
###############################################################################
#
# This file contains modified crystal structure data generated from the
# MOF subset of the Cambridge Structural Database (CSD) v543 
# hosted by the Cambridge Crystallographic Data Centre (CCDC).
#
# This work is licensed under the Creative Commons
# Attribution-NonCommercial-ShareAlike 4.0 International License.
# To view a copy of this license, visit
# http://creativecommons.org/licenses/by-nc-sa/4.0/
# or send a letter to
# Creative Commons, PO Box 1866, Mountain View, CA 94042, USA.
#
# CIF created using the CSD Python API on 29 September 2022
# The structure has been converted into the P1 space group
# The structure has a 3D framework
# The original CSD entry VEWDAF is in the orthorhombic crystal system
# The framework has been calculated to contain at least 10.0% void space
# The void calculation uses a probe of radius 1.32A, grid spacing 0.4
# H atom positions have been added when not included in the experimental data
# Generated hydrogen atom positions removed from atoms on special positions
#
###############################################################################

data_VEWDAF
_chemical_formula_moiety         '(C448 H336 Cu36 N96 O160)n'
_symmetry_cell_setting           triclinic
_symmetry_space_group_name_H-M   'P 1'
_symmetry_Int_Tables_number      1
_space_group_name_Hall           'P 1'
loop_
_symmetry_equiv_pos_site_id
_symmetry_equiv_pos_as_xyz
1 x,y,z
_cell_length_a                   24.439(5)
_cell_length_b                   27.623(6)
_cell_length_c                   31.467(6)
_cell_angle_alpha                90
_cell_angle_beta                 90
_cell_angle_gamma                90
_cell_volume                     21242.7
loop_
_atom_site_label
_atom_site_type_symbol
_atom_site_fract_x
_atom_site_fract_y
_atom_site_fract_z
Cu13 Cu 0.73838(6) 0.02143(5) 0.25090(3)
Cu14 Cu 0.73838(6) 0.02143(5) 0.74910(3)
Cu1 Cu 0.68808(7) 0.82524(6) 0.0000
Cu2 Cu 0.77655(7) 0.76873(6) 0.0000
O17 O 0.6181(4) 0.8734(3) 0.0000
O18 O 0.8419(3) 0.7183(3) 0.0000
O39 O 0.6605(2) 0.7821(2) 0.04435(14)
O40 O 0.7353(2) 0.7357(2) 0.04425(14)
O41 O 0.7277(3) 0.8591(2) 0.04325(16)
O42 O 0.8046(3) 0.8110(2) 0.04349(17)
H70 H 0.583889 0.854005 0
H72 H 0.877288 0.735965 0
Cu1_2 Cu 0.68808(7) 0.82524(6) 1.0000
Cu2_2 Cu 0.77655(7) 0.76873(6) 1.0000
Cu3 Cu 0.69921(7) 0.76875(6) 0.5000
Cu4 Cu 0.77939(7) 0.83456(6) 0.5000
Cu5 Cu 0.48857(5) 0.73622(4) 0.75041(3)
Cu6 Cu 0.76162(6) 0.52143(5) 0.74910(3)
O1 O 0.6605(2) 0.7821(2) 0.95565(14)
O2 O 0.7353(2) 0.7357(2) 0.95575(14)
O3 O 0.5557(2) 0.7273(2) 0.77941(16)
O4 O 0.5250(3) 0.7616(3) 0.83837(19)
O5 O 0.7277(3) 0.8591(2) 0.95675(16)
O6 O 0.8046(3) 0.8110(2) 0.95651(17)
O7 O 0.7426(3) 0.9707(2) 0.78847(18)
O8 O 0.7086(3) 0.9917(3) 0.8521(2)
O9 O 0.6651(2) 0.8087(2) 0.54492(15)
O10 O 0.7347(3) 0.8627(2) 0.54415(16)
O11 O 0.7007(3) 0.9776(2) 0.71221(18)
O12 O 0.7620(4) 0.9722(3) 0.6611(2)
O13 O 0.7438(3) 0.7393(2) 0.54389(15)
O14 O 0.8118(2) 0.7949(2) 0.54376(16)
O15 O 0.9235(2) 0.7581(2) 0.72002(15)
O16 O 0.9590(2) 0.7827(2) 0.65744(18)
O17_2 O 0.6181(4) 0.8734(3) 1.0000
O18_2 O 0.8419(3) 0.7183(3) 1.0000
O19 O 0.6406(4) 0.7129(3) 0.5000
O20 O 0.8411(4) 0.8883(3) 0.5000
N1 N 0.7960(3) 0.6087(3) 0.7880(2)
N2 N 0.7533(3) 0.5746(2) 0.7904(2)
N3 N 0.7246(3) 0.6399(3) 0.82032(16)
N4 N 0.9557(3) 0.8167(2) 0.78387(18)
N5 N 0.9804(3) 0.8618(3) 0.7875(2)
N6 N 0.9004(3) 0.8629(3) 0.8197(2)
N7 N 0.5176(3) 0.7936(2) 0.72092(18)
N8 N 0.4879(3) 0.8360(3) 0.7174(2)
N9 N 0.5687(3) 0.8439(3) 0.68397(19)
N10 N 0.7079(3) 0.6027(3) 0.7089(2)
N11 N 0.7548(3) 0.5742(2) 0.70584(19)
N12 N 0.7732(3) 0.6451(2) 0.67867(18)
C1 C 0.8070(3) 0.6931(3) 0.8082(2)
C2 C 0.8622(4) 0.6907(3) 0.8157(2)
H1 H 0.8785 0.6610 0.8213
C3 C 0.8931(3) 0.7312(3) 0.8148(2)
H2 H 0.9307 0.7281 0.8187
C4 C 0.8721(4) 0.7764(3) 0.8085(2)
C5 C 0.8180(4) 0.7790(3) 0.8014(2)
H3 H 0.8024 0.8091 0.7961
C6 C 0.7841(3) 0.7383(3) 0.8016(2)
H4 H 0.7466 0.7415 0.7973
C7 C 0.7761(4) 0.6468(3) 0.8056(2)
C8 C 0.7130(4) 0.5938(3) 0.8101(2)
C9 C 0.6623(4) 0.5685(3) 0.8210(3)
H5 H 0.6382 0.5902 0.8358
H6 H 0.6705 0.5413 0.8389
H7 H 0.6448 0.5573 0.7955
C10 C 0.9074(4) 0.8166(3) 0.8040(2)
C11 C 0.9452(5) 0.8877(4) 0.8088(3)
C12 C 0.9532(5) 0.9413(4) 0.8195(3)
H8 H 0.9221 0.9529 0.8352
H9 H 0.9570 0.9595 0.7937
H10 H 0.9857 0.9451 0.8364
C13 C 0.6893(4) 0.6735(3) 0.8415(2)
C14 C 0.7057(3) 0.6908(3) 0.8813(2)
H11 H 0.7375 0.6803 0.8946
C15 C 0.6697(4) 0.7262(3) 0.9000(2)
C16 C 0.6220(3) 0.7407(3) 0.8804(2)
H12 H 0.5989 0.7628 0.8937
C17 C 0.6088(4) 0.7226(3) 0.8412(2)
C18 C 0.6438(3) 0.6887(3) 0.8219(2)
H13 H 0.6352 0.6765 0.7952
C19 C 0.6904(3) 0.7492(3) 0.9405(2)
C20 C 0.5585(4) 0.7402(4) 0.8184(3)
C21 C 0.8537(4) 0.8796(3) 0.8434(3)
C22 C 0.8411(4) 0.8578(3) 0.8829(2)
H14 H 0.8637 0.8341 0.8945
C23 C 0.7950(4) 0.8724(3) 0.9034(2)
C24 C 0.7632(4) 0.9100(3) 0.8878(2)
H15 H 0.7339 0.9216 0.9036
C25 C 0.7755(4) 0.9306(3) 0.8477(2)
C26 C 0.8214(4) 0.9164(3) 0.8268(2)
H16 H 0.8313 0.9314 0.8015
C27 C 0.7742(5) 0.8447(4) 0.9433(3)
C28 C 0.7385(5) 0.9680(4) 0.8282(3)
C29 C 0.6063(3) 0.7606(3) 0.6960(2)
C30 C 0.5909(3) 0.7152(3) 0.6835(2)
H17 H 0.5548 0.7091 0.6757
C31 C 0.6296(4) 0.6777(3) 0.6826(2)
H18 H 0.6180 0.6465 0.6761
C32 C 0.6823(3) 0.6852(3) 0.6906(2)
C33 C 0.6991(4) 0.7317(3) 0.7020(2)
H19 H 0.7357 0.7376 0.7082
C34 C 0.6610(3) 0.7696(3) 0.7042(2)
H20 H 0.6725 0.8007 0.7112
C35 C 0.5642(4) 0.7967(3) 0.7015(2)
C36 C 0.5196(4) 0.8674(3) 0.6969(3)
C37 C 0.5071(4) 0.9181(3) 0.6856(3)
H21 H 0.5376 0.9318 0.6706
H22 H 0.5005 0.9364 0.7110
H23 H 0.4752 0.9190 0.6678
C38 C 0.7210(4) 0.6449(3) 0.6925(2)
C39 C 0.7923(4) 0.5996(4) 0.6887(2)
C40 C 0.8487(4) 0.5847(3) 0.6808(3)
H24 H 0.8682 0.6108 0.6676
H25 H 0.8489 0.5570 0.6623
H26 H 0.8659 0.5765 0.7072
C41 C 0.6133(3) 0.8652(3) 0.6593(2)
C42 C 0.6258(3) 0.8463(3) 0.6218(2)
H27 H 0.6059 0.8205 0.6107
C43 C 0.6700(4) 0.8663(3) 0.5993(2)
C44 C 0.6976(4) 0.9051(3) 0.6174(2)
H28 H 0.7266 0.9192 0.6028
C45 C 0.6828(3) 0.9233(3) 0.6569(2)
C46 C 0.6404(3) 0.9028(3) 0.6781(2)
H29 H 0.6300 0.9141 0.7047
C47 C 0.6897(4) 0.8436(3) 0.5587(2)
C48 C 0.7173(4) 0.9625(4) 0.6785(3)
C49 C 0.8009(3) 0.6826(3) 0.6579(2)
C50 C 0.7826(3) 0.6990(3) 0.6180(2)
H30 H 0.7529 0.6844 0.6048
C51 C 0.8096(3) 0.7370(3) 0.5988(2)
C52 C 0.8580(3) 0.7566(3) 0.6173(2)
H31 H 0.8779 0.7802 0.6029
C53 C 0.8752(3) 0.7410(3) 0.6563(2)
C54 C 0.8462(3) 0.7032(3) 0.6780(2)
H32 H 0.8573 0.6927 0.7048
C55 C 0.7854(5) 0.7558(4) 0.5577(2)
C56 C 0.9233(3) 0.7620(3) 0.6799(3)
O21 O 0.6662(3) 0.5020(3) 0.7314(2)
Cu7 Cu 0.48857(5) 0.73622(4) 0.24959(3)
Cu8 Cu 0.76162(6) 0.52143(5) 0.25090(3)
O24 O 0.5557(2) 0.7273(2) 0.22059(16)
O25 O 0.5250(3) 0.7616(3) 0.16163(19)
O28 O 0.7426(3) 0.9707(2) 0.21153(18)
O29 O 0.7086(3) 0.9917(3) 0.1479(2)
O30 O 0.6651(2) 0.8087(2) 0.45508(15)
O31 O 0.7347(3) 0.8627(2) 0.45585(16)
O32 O 0.7007(3) 0.9776(2) 0.28779(18)
O33 O 0.7620(4) 0.9722(3) 0.3389(2)
O34 O 0.7438(3) 0.7393(2) 0.45611(15)
O35 O 0.8118(2) 0.7949(2) 0.45624(16)
O36 O 0.9235(2) 0.7581(2) 0.27998(15)
O37 O 0.9590(2) 0.7827(2) 0.34256(18)
N13 N 0.7960(3) 0.6087(3) 0.2120(2)
N14 N 0.7533(3) 0.5746(2) 0.2096(2)
N15 N 0.7246(3) 0.6399(3) 0.17968(16)
N16 N 0.9557(3) 0.8167(2) 0.21613(18)
N17 N 0.9804(3) 0.8618(3) 0.2125(2)
N18 N 0.9004(3) 0.8629(3) 0.1803(2)
N19 N 0.5176(3) 0.7936(2) 0.27908(18)
N20 N 0.4879(3) 0.8360(3) 0.2826(2)
N21 N 0.5687(3) 0.8439(3) 0.31603(19)
N22 N 0.7079(3) 0.6027(3) 0.2911(2)
N23 N 0.7548(3) 0.5742(2) 0.29416(19)
N24 N 0.7732(3) 0.6451(2) 0.32133(18)
C57 C 0.8070(3) 0.6931(3) 0.1918(2)
C58 C 0.8622(4) 0.6907(3) 0.1843(2)
H33 H 0.8785 0.6610 0.1787
C59 C 0.8931(3) 0.7312(3) 0.1852(2)
H34 H 0.9307 0.7281 0.1813
C60 C 0.8721(4) 0.7764(3) 0.1915(2)
C61 C 0.8180(4) 0.7790(3) 0.1986(2)
H35 H 0.8024 0.8091 0.2039
C62 C 0.7841(3) 0.7383(3) 0.1984(2)
H36 H 0.7466 0.7415 0.2027
C63 C 0.7761(4) 0.6468(3) 0.1944(2)
C64 C 0.7130(4) 0.5938(3) 0.1899(2)
C65 C 0.6623(4) 0.5685(3) 0.1790(3)
H37 H 0.6382 0.5902 0.1642
H38 H 0.6705 0.5413 0.1611
H39 H 0.6448 0.5573 0.2045
C66 C 0.9074(4) 0.8166(3) 0.1960(2)
C67 C 0.9452(5) 0.8877(4) 0.1912(3)
C68 C 0.9532(5) 0.9413(4) 0.1805(3)
H40 H 0.9221 0.9529 0.1648
H41 H 0.9570 0.9595 0.2063
H42 H 0.9857 0.9451 0.1636
C69 C 0.6893(4) 0.6735(3) 0.1585(2)
C70 C 0.7057(3) 0.6908(3) 0.1187(2)
H43 H 0.7375 0.6803 0.1054
C71 C 0.6697(4) 0.7262(3) 0.1000(2)
C72 C 0.6220(3) 0.7407(3) 0.1196(2)
H44 H 0.5989 0.7628 0.1063
C73 C 0.6088(4) 0.7226(3) 0.1588(2)
C74 C 0.6438(3) 0.6887(3) 0.1781(2)
H45 H 0.6352 0.6765 0.2048
C75 C 0.6904(3) 0.7492(3) 0.0595(2)
C76 C 0.5585(4) 0.7402(4) 0.1816(3)
C77 C 0.8537(4) 0.8796(3) 0.1566(3)
C78 C 0.8411(4) 0.8578(3) 0.1171(2)
H46 H 0.8637 0.8341 0.1055
C79 C 0.7950(4) 0.8724(3) 0.0966(2)
C80 C 0.7632(4) 0.9100(3) 0.1122(2)
H47 H 0.7339 0.9216 0.0964
C81 C 0.7755(4) 0.9306(3) 0.1523(2)
C82 C 0.8214(4) 0.9164(3) 0.1732(2)
H48 H 0.8313 0.9314 0.1985
C83 C 0.7742(5) 0.8447(4) 0.0567(3)
C84 C 0.7385(5) 0.9680(4) 0.1718(3)
C85 C 0.6063(3) 0.7606(3) 0.3040(2)
C86 C 0.5909(3) 0.7152(3) 0.3165(2)
H49 H 0.5548 0.7091 0.3243
C87 C 0.6296(4) 0.6777(3) 0.3174(2)
H50 H 0.6180 0.6465 0.3239
C88 C 0.6823(3) 0.6852(3) 0.3094(2)
C89 C 0.6991(4) 0.7317(3) 0.2980(2)
H51 H 0.7357 0.7376 0.2918
C90 C 0.6610(3) 0.7696(3) 0.2958(2)
H52 H 0.6725 0.8007 0.2888
C91 C 0.5642(4) 0.7967(3) 0.2985(2)
C92 C 0.5196(4) 0.8674(3) 0.3031(3)
C93 C 0.5071(4) 0.9181(3) 0.3144(3)
H53 H 0.5376 0.9318 0.3294
H54 H 0.5005 0.9364 0.2890
H55 H 0.4752 0.9190 0.3322
C94 C 0.7210(4) 0.6449(3) 0.3075(2)
C95 C 0.7923(4) 0.5996(4) 0.3113(2)
C96 C 0.8487(4) 0.5847(3) 0.3192(3)
H56 H 0.8682 0.6108 0.3324
H57 H 0.8489 0.5570 0.3377
H58 H 0.8659 0.5765 0.2928
C97 C 0.6133(3) 0.8652(3) 0.3407(2)
C98 C 0.6258(3) 0.8463(3) 0.3782(2)
H59 H 0.6059 0.8205 0.3893
C99 C 0.6700(4) 0.8663(3) 0.4007(2)
C100 C 0.6976(4) 0.9051(3) 0.3826(2)
H60 H 0.7266 0.9192 0.3972
C101 C 0.6828(3) 0.9233(3) 0.3431(2)
C102 C 0.6404(3) 0.9028(3) 0.3219(2)
H61 H 0.6300 0.9141 0.2953
C103 C 0.6897(4) 0.8436(3) 0.4413(2)
C104 C 0.7173(4) 0.9625(4) 0.3215(3)
C105 C 0.8009(3) 0.6826(3) 0.3421(2)
C106 C 0.7826(3) 0.6990(3) 0.3820(2)
H62 H 0.7529 0.6844 0.3952
C107 C 0.8096(3) 0.7370(3) 0.4012(2)
C108 C 0.8580(3) 0.7566(3) 0.3827(2)
H63 H 0.8779 0.7802 0.3971
C109 C 0.8752(3) 0.7410(3) 0.3437(2)
C110 C 0.8462(3) 0.7032(3) 0.3220(2)
H64 H 0.8573 0.6927 0.2952
C111 C 0.7854(5) 0.7558(4) 0.4423(2)
C112 C 0.9233(3) 0.7620(3) 0.3201(3)
O38 O 0.6662(3) 0.5020(3) 0.2686(2)
Cu11 Cu 0.98857(5) 0.76378(4) 0.24959(3)
Cu12 Cu 0.98857(5) 0.76378(4) 0.75041(3)
O43 O 0.7574(3) 0.4707(2) 0.21153(18)
O44 O 0.7574(3) 0.4707(2) 0.78847(18)
O45 O 0.7993(3) 0.4776(2) 0.28779(18)
O46 O 0.7993(3) 0.4776(2) 0.71221(18)
O47 O 0.4235(2) 0.7419(2) 0.27998(15)
O48 O 0.4235(2) 0.7419(2) 0.72002(15)
N25 N 0.4557(3) 0.6833(2) 0.21613(18)
N26 N 0.4557(3) 0.6833(2) 0.78387(18)
H69 H 0.61917 0.894133 0.974234
H70_2 H 0.583889 0.854005 1
H71 H 0.839517 0.697653 0.974234
H72_2 H 0.877288 0.735965 1
Cu1_3 Cu 0.31192(7) 0.17476(6) 0.0000
Cu2_3 Cu 0.22345(7) 0.23127(6) 0.0000
O17_3 O 0.3819(4) 0.1266(3) 0.0000
O18_3 O 0.1581(3) 0.2817(3) 0.0000
O39_2 O 0.3395(2) 0.2179(2) 0.04435(14)
O40_2 O 0.2647(2) 0.2643(2) 0.04425(14)
O41_2 O 0.2723(3) 0.1409(2) 0.04325(16)
O42_2 O 0.1954(3) 0.1890(2) 0.04349(17)
H70_3 H 0.416111 0.145995 0
H72_3 H 0.122712 0.264035 0
Cu1_4 Cu 0.31192(7) 0.17476(6) 1.0000
Cu2_4 Cu 0.22345(7) 0.23127(6) 1.0000
Cu3_2 Cu 0.30079(7) 0.23125(6) 0.5000
Cu4_2 Cu 0.22061(7) 0.16544(6) 0.5000
Cu5_2 Cu 0.51143(5) 0.26378(4) 0.75041(3)
Cu6_2 Cu 0.23838(6) 0.47857(5) 0.74910(3)
O1_2 O 0.3395(2) 0.2179(2) 0.95565(14)
O2_2 O 0.2647(2) 0.2643(2) 0.95575(14)
O3_2 O 0.4443(2) 0.2727(2) 0.77941(16)
O4_2 O 0.4750(3) 0.2384(3) 0.83837(19)
O5_2 O 0.2723(3) 0.1409(2) 0.95675(16)
O6_2 O 0.1954(3) 0.1890(2) 0.95651(17)
O7_2 O 0.2574(3) 0.0293(2) 0.78847(18)
O8_2 O 0.2914(3) 0.0083(3) 0.8521(2)
O9_2 O 0.3349(2) 0.1913(2) 0.54492(15)
O10_2 O 0.2653(3) 0.1373(2) 0.54415(16)
O11_2 O 0.2993(3) 0.0224(2) 0.71221(18)
O12_2 O 0.2380(4) 0.0278(3) 0.6611(2)
O13_2 O 0.2562(3) 0.2607(2) 0.54389(15)
O14_2 O 0.1882(2) 0.2051(2) 0.54376(16)
O15_2 O 0.0765(2) 0.2419(2) 0.72002(15)
O16_2 O 0.0410(2) 0.2173(2) 0.65744(18)
O17_4 O 0.3819(4) 0.1266(3) 1.0000
O18_4 O 0.1581(3) 0.2817(3) 1.0000
O19_2 O 0.3594(4) 0.2871(3) 0.5000
O20_2 O 0.1589(4) 0.1117(3) 0.5000
N1_2 N 0.2040(3) 0.3913(3) 0.7880(2)
N2_2 N 0.2467(3) 0.4254(2) 0.7904(2)
N3_2 N 0.2754(3) 0.3601(3) 0.82032(16)
N4_2 N 0.0443(3) 0.1833(2) 0.78387(18)
N5_2 N 0.0196(3) 0.1382(3) 0.7875(2)
N6_2 N 0.0996(3) 0.1371(3) 0.8197(2)
N7_2 N 0.4824(3) 0.2064(2) 0.72092(18)
N8_2 N 0.5121(3) 0.1640(3) 0.7174(2)
N9_2 N 0.4313(3) 0.1561(3) 0.68397(19)
N10_2 N 0.2921(3) 0.3973(3) 0.7089(2)
N11_2 N 0.2452(3) 0.4258(2) 0.70584(19)
N12_2 N 0.2268(3) 0.3549(2) 0.67867(18)
C1_2 C 0.1930(3) 0.3069(3) 0.8082(2)
C2_2 C 0.1378(4) 0.3093(3) 0.8157(2)
H1_2 H 0.1215 0.3390 0.8213
C3_2 C 0.1069(3) 0.2688(3) 0.8148(2)
H2_2 H 0.0693 0.2719 0.8187
C4_2 C 0.1279(4) 0.2236(3) 0.8085(2)
C5_2 C 0.1820(4) 0.2210(3) 0.8014(2)
H3_2 H 0.1976 0.1909 0.7961
C6_2 C 0.2159(3) 0.2617(3) 0.8016(2)
H4_2 H 0.2534 0.2585 0.7973
C7_2 C 0.2239(4) 0.3532(3) 0.8056(2)
C8_2 C 0.2870(4) 0.4062(3) 0.8101(2)
C9_2 C 0.3377(4) 0.4315(3) 0.8210(3)
H5_2 H 0.3618 0.4098 0.8358
H6_2 H 0.3295 0.4587 0.8389
H7_2 H 0.3552 0.4427 0.7955
C10_2 C 0.0926(4) 0.1834(3) 0.8040(2)
C11_2 C 0.0548(5) 0.1123(4) 0.8088(3)
C12_2 C 0.0468(5) 0.0587(4) 0.8195(3)
H8_2 H 0.0779 0.0471 0.8352
H9_2 H 0.0430 0.0405 0.7937
H10_2 H 0.0143 0.0549 0.8364
C13_2 C 0.3107(4) 0.3265(3) 0.8415(2)
C14_2 C 0.2943(3) 0.3092(3) 0.8813(2)
H11_2 H 0.2625 0.3197 0.8946
C15_2 C 0.3303(4) 0.2738(3) 0.9000(2)
C16_2 C 0.3780(3) 0.2593(3) 0.8804(2)
H12_2 H 0.4011 0.2372 0.8937
C17_2 C 0.3912(4) 0.2774(3) 0.8412(2)
C18_2 C 0.3562(3) 0.3113(3) 0.8219(2)
H13_2 H 0.3648 0.3235 0.7952
C19_2 C 0.3096(3) 0.2508(3) 0.9405(2)
C20_2 C 0.4415(4) 0.2598(4) 0.8184(3)
C21_2 C 0.1463(4) 0.1204(3) 0.8434(3)
C22_2 C 0.1589(4) 0.1422(3) 0.8829(2)
H14_2 H 0.1363 0.1659 0.8945
C23_2 C 0.2050(4) 0.1276(3) 0.9034(2)
C24_2 C 0.2368(4) 0.0900(3) 0.8878(2)
H15_2 H 0.2661 0.0784 0.9036
C25_2 C 0.2245(4) 0.0694(3) 0.8477(2)
C26_2 C 0.1786(4) 0.0836(3) 0.8268(2)
H16_2 H 0.1687 0.0686 0.8015
C27_2 C 0.2258(5) 0.1553(4) 0.9433(3)
C28_2 C 0.2615(5) 0.0320(4) 0.8282(3)
C29_2 C 0.3937(3) 0.2394(3) 0.6960(2)
C30_2 C 0.4091(3) 0.2848(3) 0.6835(2)
H17_2 H 0.4452 0.2909 0.6757
C31_2 C 0.3704(4) 0.3223(3) 0.6826(2)
H18_2 H 0.3820 0.3535 0.6761
C32_2 C 0.3177(3) 0.3148(3) 0.6906(2)
C33_2 C 0.3009(4) 0.2683(3) 0.7020(2)
H19_2 H 0.2643 0.2624 0.7082
C34_2 C 0.3390(3) 0.2304(3) 0.7042(2)
H20_2 H 0.3275 0.1993 0.7112
C35_2 C 0.4358(4) 0.2033(3) 0.7015(2)
C36_2 C 0.4804(4) 0.1326(3) 0.6969(3)
C37_2 C 0.4929(4) 0.0819(3) 0.6856(3)
H21_2 H 0.4624 0.0682 0.6706
H22_2 H 0.4995 0.0636 0.7110
H23_2 H 0.5248 0.0810 0.6678
C38_2 C 0.2790(4) 0.3551(3) 0.6925(2)
C39_2 C 0.2077(4) 0.4004(4) 0.6887(2)
C40_2 C 0.1513(4) 0.4153(3) 0.6808(3)
H24_2 H 0.1318 0.3892 0.6676
H25_2 H 0.1511 0.4430 0.6623
H26_2 H 0.1341 0.4235 0.7072
C41_2 C 0.3867(3) 0.1348(3) 0.6593(2)
C42_2 C 0.3742(3) 0.1537(3) 0.6218(2)
H27_2 H 0.3941 0.1795 0.6107
C43_2 C 0.3300(4) 0.1337(3) 0.5993(2)
C44_2 C 0.3024(4) 0.0949(3) 0.6174(2)
H28_2 H 0.2734 0.0808 0.6028
C45_2 C 0.3172(3) 0.0767(3) 0.6569(2)
C46_2 C 0.3596(3) 0.0972(3) 0.6781(2)
H29_2 H 0.3700 0.0859 0.7047
C47_2 C 0.3103(4) 0.1564(3) 0.5587(2)
C48_2 C 0.2827(4) 0.0375(4) 0.6785(3)
C49_2 C 0.1991(3) 0.3174(3) 0.6579(2)
C50_2 C 0.2174(3) 0.3010(3) 0.6180(2)
H30_2 H 0.2471 0.3156 0.6048
C51_2 C 0.1904(3) 0.2630(3) 0.5988(2)
C52_2 C 0.1420(3) 0.2434(3) 0.6173(2)
H31_2 H 0.1221 0.2198 0.6029
C53_2 C 0.1248(3) 0.2590(3) 0.6563(2)
C54_2 C 0.1538(3) 0.2968(3) 0.6780(2)
H32_2 H 0.1427 0.3073 0.7048
C55_2 C 0.2146(5) 0.2442(4) 0.5577(2)
C56_2 C 0.0767(3) 0.2380(3) 0.6799(3)
O21_2 O 0.3338(3) 0.4980(3) 0.7314(2)
Cu7_2 Cu 0.51143(5) 0.26378(4) 0.24959(3)
Cu8_2 Cu 0.23838(6) 0.47857(5) 0.25090(3)
O24_2 O 0.4443(2) 0.2727(2) 0.22059(16)
O25_2 O 0.4750(3) 0.2384(3) 0.16163(19)
O28_2 O 0.2574(3) 0.0293(2) 0.21153(18)
O29_2 O 0.2914(3) 0.0083(3) 0.1479(2)
O30_2 O 0.3349(2) 0.1913(2) 0.45508(15)
O31_2 O 0.2653(3) 0.1373(2) 0.45585(16)
O32_2 O 0.2993(3) 0.0224(2) 0.28779(18)
O33_2 O 0.2380(4) 0.0278(3) 0.3389(2)
O34_2 O 0.2562(3) 0.2607(2) 0.45611(15)
O35_2 O 0.1882(2) 0.2051(2) 0.45624(16)
O36_2 O 0.0765(2) 0.2419(2) 0.27998(15)
O37_2 O 0.0410(2) 0.2173(2) 0.34256(18)
N13_2 N 0.2040(3) 0.3913(3) 0.2120(2)
N14_2 N 0.2467(3) 0.4254(2) 0.2096(2)
N15_2 N 0.2754(3) 0.3601(3) 0.17968(16)
N16_2 N 0.0443(3) 0.1833(2) 0.21613(18)
N17_2 N 0.0196(3) 0.1382(3) 0.2125(2)
N18_2 N 0.0996(3) 0.1371(3) 0.1803(2)
N19_2 N 0.4824(3) 0.2064(2) 0.27908(18)
N20_2 N 0.5121(3) 0.1640(3) 0.2826(2)
N21_2 N 0.4313(3) 0.1561(3) 0.31603(19)
N22_2 N 0.2921(3) 0.3973(3) 0.2911(2)
N23_2 N 0.2452(3) 0.4258(2) 0.29416(19)
N24_2 N 0.2268(3) 0.3549(2) 0.32133(18)
C57_2 C 0.1930(3) 0.3069(3) 0.1918(2)
C58_2 C 0.1378(4) 0.3093(3) 0.1843(2)
H33_2 H 0.1215 0.3390 0.1787
C59_2 C 0.1069(3) 0.2688(3) 0.1852(2)
H34_2 H 0.0693 0.2719 0.1813
C60_2 C 0.1279(4) 0.2236(3) 0.1915(2)
C61_2 C 0.1820(4) 0.2210(3) 0.1986(2)
H35_2 H 0.1976 0.1909 0.2039
C62_2 C 0.2159(3) 0.2617(3) 0.1984(2)
H36_2 H 0.2534 0.2585 0.2027
C63_2 C 0.2239(4) 0.3532(3) 0.1944(2)
C64_2 C 0.2870(4) 0.4062(3) 0.1899(2)
C65_2 C 0.3377(4) 0.4315(3) 0.1790(3)
H37_2 H 0.3618 0.4098 0.1642
H38_2 H 0.3295 0.4587 0.1611
H39_2 H 0.3552 0.4427 0.2045
C66_2 C 0.0926(4) 0.1834(3) 0.1960(2)
C67_2 C 0.0548(5) 0.1123(4) 0.1912(3)
C68_2 C 0.0468(5) 0.0587(4) 0.1805(3)
H40_2 H 0.0779 0.0471 0.1648
H41_2 H 0.0430 0.0405 0.2063
H42_2 H 0.0143 0.0549 0.1636
C69_2 C 0.3107(4) 0.3265(3) 0.1585(2)
C70_2 C 0.2943(3) 0.3092(3) 0.1187(2)
H43_2 H 0.2625 0.3197 0.1054
C71_2 C 0.3303(4) 0.2738(3) 0.1000(2)
C72_2 C 0.3780(3) 0.2593(3) 0.1196(2)
H44_2 H 0.4011 0.2372 0.1063
C73_2 C 0.3912(4) 0.2774(3) 0.1588(2)
C74_2 C 0.3562(3) 0.3113(3) 0.1781(2)
H45_2 H 0.3648 0.3235 0.2048
C75_2 C 0.3096(3) 0.2508(3) 0.0595(2)
C76_2 C 0.4415(4) 0.2598(4) 0.1816(3)
C77_2 C 0.1463(4) 0.1204(3) 0.1566(3)
C78_2 C 0.1589(4) 0.1422(3) 0.1171(2)
H46_2 H 0.1363 0.1659 0.1055
C79_2 C 0.2050(4) 0.1276(3) 0.0966(2)
C80_2 C 0.2368(4) 0.0900(3) 0.1122(2)
H47_2 H 0.2661 0.0784 0.0964
C81_2 C 0.2245(4) 0.0694(3) 0.1523(2)
C82_2 C 0.1786(4) 0.0836(3) 0.1732(2)
H48_2 H 0.1687 0.0686 0.1985
C83_2 C 0.2258(5) 0.1553(4) 0.0567(3)
C84_2 C 0.2615(5) 0.0320(4) 0.1718(3)
C85_2 C 0.3937(3) 0.2394(3) 0.3040(2)
C86_2 C 0.4091(3) 0.2848(3) 0.3165(2)
H49_2 H 0.4452 0.2909 0.3243
C87_2 C 0.3704(4) 0.3223(3) 0.3174(2)
H50_2 H 0.3820 0.3535 0.3239
C88_2 C 0.3177(3) 0.3148(3) 0.3094(2)
C89_2 C 0.3009(4) 0.2683(3) 0.2980(2)
H51_2 H 0.2643 0.2624 0.2918
C90_2 C 0.3390(3) 0.2304(3) 0.2958(2)
H52_2 H 0.3275 0.1993 0.2888
C91_2 C 0.4358(4) 0.2033(3) 0.2985(2)
C92_2 C 0.4804(4) 0.1326(3) 0.3031(3)
C93_2 C 0.4929(4) 0.0819(3) 0.3144(3)
H53_2 H 0.4624 0.0682 0.3294
H54_2 H 0.4995 0.0636 0.2890
H55_2 H 0.5248 0.0810 0.3322
C94_2 C 0.2790(4) 0.3551(3) 0.3075(2)
C95_2 C 0.2077(4) 0.4004(4) 0.3113(2)
C96_2 C 0.1513(4) 0.4153(3) 0.3192(3)
H56_2 H 0.1318 0.3892 0.3324
H57_2 H 0.1511 0.4430 0.3377
H58_2 H 0.1341 0.4235 0.2928
C97_2 C 0.3867(3) 0.1348(3) 0.3407(2)
C98_2 C 0.3742(3) 0.1537(3) 0.3782(2)
H59_2 H 0.3941 0.1795 0.3893
C99_2 C 0.3300(4) 0.1337(3) 0.4007(2)
C100_2 C 0.3024(4) 0.0949(3) 0.3826(2)
H60_2 H 0.2734 0.0808 0.3972
C101_2 C 0.3172(3) 0.0767(3) 0.3431(2)
C102_2 C 0.3596(3) 0.0972(3) 0.3219(2)
H61_2 H 0.3700 0.0859 0.2953
C103_2 C 0.3103(4) 0.1564(3) 0.4413(2)
C104_2 C 0.2827(4) 0.0375(4) 0.3215(3)
C105_2 C 0.1991(3) 0.3174(3) 0.3421(2)
C106_2 C 0.2174(3) 0.3010(3) 0.3820(2)
H62_2 H 0.2471 0.3156 0.3952
C107_2 C 0.1904(3) 0.2630(3) 0.4012(2)
C108_2 C 0.1420(3) 0.2434(3) 0.3827(2)
H63_2 H 0.1221 0.2198 0.3971
C109_2 C 0.1248(3) 0.2590(3) 0.3437(2)
C110_2 C 0.1538(3) 0.2968(3) 0.3220(2)
H64_2 H 0.1427 0.3073 0.2952
C111_2 C 0.2146(5) 0.2442(4) 0.4423(2)
C112_2 C 0.0767(3) 0.2380(3) 0.3201(3)
O38_2 O 0.3338(3) 0.4980(3) 0.2686(2)
Cu11_2 Cu 0.01143(5) 0.23622(4) 0.24959(3)
Cu12_2 Cu 0.01143(5) 0.23622(4) 0.75041(3)
O43_2 O 0.2426(3) 0.5293(2) 0.21153(18)
O44_2 O 0.2426(3) 0.5293(2) 0.78847(18)
O45_2 O 0.2007(3) 0.5224(2) 0.28779(18)
O46_2 O 0.2007(3) 0.5224(2) 0.71221(18)
O47_2 O 0.5765(2) 0.2581(2) 0.27998(15)
O48_2 O 0.5765(2) 0.2581(2) 0.72002(15)
N25_2 N 0.5443(3) 0.3167(2) 0.21613(18)
N26_2 N 0.5443(3) 0.3167(2) 0.78387(18)
H69_2 H 0.38083 0.105867 0.974234
H70_4 H 0.416111 0.145995 1
H71_2 H 0.160483 0.302347 0.974234
H72_4 H 0.122712 0.264035 1
Cu13_2 Cu 0.26162(6) 0.97857(5) 0.25090(3)
Cu14_2 Cu 0.26162(6) 0.97857(5) 0.74910(3)
N8_3 N 0.0121(3) 0.3360(3) 0.2826(2)
H23_3 H 0.0248 0.4190 0.3322
N20_3 N 0.0121(3) 0.3360(3) 0.7174(2)
H55_3 H 0.0248 0.4190 0.6678
Cu9 Cu 0.81192(7) 0.32524(6) 0.0000
Cu10 Cu 0.72345(7) 0.26873(6) 0.0000
Cu3_3 Cu 0.80079(7) 0.26875(6) 0.5000
Cu4_3 Cu 0.72061(7) 0.33456(6) 0.5000
O1_3 O 0.8395(2) 0.2821(2) 0.04435(14)
O2_3 O 0.7647(2) 0.2357(2) 0.04425(14)
O3_3 O 0.9443(2) 0.2273(2) 0.22059(16)
O4_3 O 0.9750(3) 0.2616(3) 0.16163(19)
O5_3 O 0.7723(3) 0.3591(2) 0.04325(16)
O6_3 O 0.6954(3) 0.3110(2) 0.04349(17)
O8_3 O 0.7914(3) 0.4917(3) 0.1479(2)
O9_3 O 0.8349(2) 0.3087(2) 0.45508(15)
O10_3 O 0.7653(3) 0.3627(2) 0.45585(16)
O12_3 O 0.7380(4) 0.4722(3) 0.3389(2)
O13_3 O 0.7562(3) 0.2393(2) 0.45611(15)
O14_3 O 0.6882(2) 0.2949(2) 0.45624(16)
O16_3 O 0.5410(2) 0.2827(2) 0.34256(18)
O17_5 O 0.8819(4) 0.3734(3) 0.0000
O18_5 O 0.6581(3) 0.2183(3) 0.0000
O19_3 O 0.8594(4) 0.2129(3) 0.5000
O20_3 O 0.6589(4) 0.3883(3) 0.5000
N1_3 N 0.7040(3) 0.1087(3) 0.2120(2)
N2_3 N 0.7467(3) 0.0746(2) 0.2096(2)
N3_3 N 0.7754(3) 0.1399(3) 0.17968(16)
N5_3 N 0.5196(3) 0.3618(3) 0.2125(2)
N6_3 N 0.5996(3) 0.3629(3) 0.1803(2)
N7_3 N 0.9824(3) 0.2936(2) 0.27908(18)
N9_3 N 0.9313(3) 0.3439(3) 0.31603(19)
N10_3 N 0.7921(3) 0.1027(3) 0.2911(2)
N11_3 N 0.7452(3) 0.0742(2) 0.29416(19)
N12_3 N 0.7268(3) 0.1451(2) 0.32133(18)
C1_3 C 0.6930(3) 0.1931(3) 0.1918(2)
C2_3 C 0.6378(4) 0.1907(3) 0.1843(2)
H1_3 H 0.6215 0.1610 0.1787
C3_3 C 0.6069(3) 0.2312(3) 0.1852(2)
H2_3 H 0.5693 0.2281 0.1813
C4_3 C 0.6279(4) 0.2764(3) 0.1915(2)
C5_3 C 0.6820(4) 0.2790(3) 0.1986(2)
H3_3 H 0.6976 0.3091 0.2039
C6_3 C 0.7159(3) 0.2383(3) 0.1984(2)
H4_3 H 0.7534 0.2415 0.2027
C7_3 C 0.7239(4) 0.1468(3) 0.1944(2)
C8_3 C 0.7870(4) 0.0938(3) 0.1899(2)
C9_3 C 0.8377(4) 0.0685(3) 0.1790(3)
H5_3 H 0.8618 0.0902 0.1642
H6_3 H 0.8295 0.0413 0.1611
H7_3 H 0.8552 0.0573 0.2045
C10_3 C 0.5926(4) 0.3166(3) 0.1960(2)
C11_3 C 0.5548(5) 0.3877(4) 0.1912(3)
C12_3 C 0.5468(5) 0.4413(4) 0.1805(3)
H8_3 H 0.5779 0.4529 0.1648
H9_3 H 0.5430 0.4595 0.2063
H10_3 H 0.5143 0.4451 0.1636
C13_3 C 0.8107(4) 0.1735(3) 0.1585(2)
C14_3 C 0.7943(3) 0.1908(3) 0.1187(2)
H11_3 H 0.7625 0.1803 0.1054
C15_3 C 0.8303(4) 0.2262(3) 0.1000(2)
C16_3 C 0.8780(3) 0.2407(3) 0.1196(2)
H12_3 H 0.9011 0.2628 0.1063
C17_3 C 0.8912(4) 0.2226(3) 0.1588(2)
C18_3 C 0.8562(3) 0.1887(3) 0.1781(2)
H13_3 H 0.8648 0.1765 0.2048
C19_3 C 0.8096(3) 0.2492(3) 0.0595(2)
C20_3 C 0.9415(4) 0.2402(4) 0.1816(3)
C21_3 C 0.6463(4) 0.3796(3) 0.1566(3)
C22_3 C 0.6589(4) 0.3578(3) 0.1171(2)
H14_3 H 0.6363 0.3341 0.1055
C23_3 C 0.7050(4) 0.3724(3) 0.0966(2)
C24_3 C 0.7368(4) 0.4100(3) 0.1122(2)
H15_3 H 0.7661 0.4216 0.0964
C25_3 C 0.7245(4) 0.4306(3) 0.1523(2)
C26_3 C 0.6786(4) 0.4164(3) 0.1732(2)
H16_3 H 0.6687 0.4314 0.1985
C27_3 C 0.7258(5) 0.3447(4) 0.0567(3)
C28_3 C 0.7615(5) 0.4680(4) 0.1718(3)
C29_3 C 0.8937(3) 0.2606(3) 0.3040(2)
C30_3 C 0.9091(3) 0.2152(3) 0.3165(2)
H17_3 H 0.9452 0.2091 0.3243
C31_3 C 0.8704(4) 0.1777(3) 0.3174(2)
H18_3 H 0.8820 0.1465 0.3239
C32_3 C 0.8177(3) 0.1852(3) 0.3094(2)
C33_3 C 0.8009(4) 0.2317(3) 0.2980(2)
H19_3 H 0.7643 0.2376 0.2918
C34_3 C 0.8390(3) 0.2696(3) 0.2958(2)
H20_3 H 0.8275 0.3007 0.2888
C35_3 C 0.9358(4) 0.2967(3) 0.2985(2)
C36_3 C 0.9804(4) 0.3674(3) 0.3031(3)
C37_3 C 0.9929(4) 0.4181(3) 0.3144(3)
H21_3 H 0.9624 0.4318 0.3294
H22_3 H 0.9995 0.4364 0.2890
C38_3 C 0.7790(4) 0.1449(3) 0.3075(2)
C39_3 C 0.7077(4) 0.0996(4) 0.3113(2)
C40_3 C 0.6513(4) 0.0847(3) 0.3192(3)
H24_3 H 0.6318 0.1108 0.3324
H25_3 H 0.6511 0.0570 0.3377
H26_3 H 0.6341 0.0765 0.2928
C41_3 C 0.8867(3) 0.3652(3) 0.3407(2)
C42_3 C 0.8742(3) 0.3463(3) 0.3782(2)
H27_3 H 0.8941 0.3205 0.3893
C43_3 C 0.8300(4) 0.3663(3) 0.4007(2)
C44_3 C 0.8024(4) 0.4051(3) 0.3826(2)
H28_3 H 0.7734 0.4192 0.3972
C45_3 C 0.8172(3) 0.4233(3) 0.3431(2)
C46_3 C 0.8596(3) 0.4028(3) 0.3219(2)
H29_3 H 0.8700 0.4141 0.2953
C47_3 C 0.8103(4) 0.3436(3) 0.4413(2)
C48_3 C 0.7827(4) 0.4625(4) 0.3215(3)
C49_3 C 0.6991(3) 0.1826(3) 0.3421(2)
C50_3 C 0.7174(3) 0.1990(3) 0.3820(2)
H30_3 H 0.7471 0.1844 0.3952
C51_3 C 0.6904(3) 0.2370(3) 0.4012(2)
C52_3 C 0.6420(3) 0.2566(3) 0.3827(2)
H31_3 H 0.6221 0.2802 0.3971
C53_3 C 0.6248(3) 0.2410(3) 0.3437(2)
C54_3 C 0.6538(3) 0.2032(3) 0.3220(2)
H32_3 H 0.6427 0.1927 0.2952
C55_3 C 0.7146(5) 0.2558(4) 0.4423(2)
C56_3 C 0.5767(3) 0.2620(3) 0.3201(3)
O21_3 O 0.8338(3) 0.0020(3) 0.2686(2)
O22 O 0.8395(2) 0.2821(2) 0.95565(14)
O23 O 0.7647(2) 0.2357(2) 0.95575(14)
O24_3 O 0.9443(2) 0.2273(2) 0.77941(16)
O25_3 O 0.9750(3) 0.2616(3) 0.83837(19)
O26 O 0.7723(3) 0.3591(2) 0.95675(16)
O27 O 0.6954(3) 0.3110(2) 0.95651(17)
O29_3 O 0.7914(3) 0.4917(3) 0.8521(2)
O30_3 O 0.8349(2) 0.3087(2) 0.54492(15)
O31_3 O 0.7653(3) 0.3627(2) 0.54415(16)
O33_3 O 0.7380(4) 0.4722(3) 0.6611(2)
O34_3 O 0.7562(3) 0.2393(2) 0.54389(15)
O35_3 O 0.6882(2) 0.2949(2) 0.54376(16)
O37_3 O 0.5410(2) 0.2827(2) 0.65744(18)
N13_3 N 0.7040(3) 0.1087(3) 0.7880(2)
N14_3 N 0.7467(3) 0.0746(2) 0.7904(2)
N15_3 N 0.7754(3) 0.1399(3) 0.82032(16)
N17_3 N 0.5196(3) 0.3618(3) 0.7875(2)
N18_3 N 0.5996(3) 0.3629(3) 0.8197(2)
N19_3 N 0.9824(3) 0.2936(2) 0.72092(18)
N21_3 N 0.9313(3) 0.3439(3) 0.68397(19)
N22_3 N 0.7921(3) 0.1027(3) 0.7089(2)
N23_3 N 0.7452(3) 0.0742(2) 0.70584(19)
N24_3 N 0.7268(3) 0.1451(2) 0.67867(18)
C57_3 C 0.6930(3) 0.1931(3) 0.8082(2)
C58_3 C 0.6378(4) 0.1907(3) 0.8157(2)
H33_3 H 0.6215 0.1610 0.8213
C59_3 C 0.6069(3) 0.2312(3) 0.8148(2)
H34_3 H 0.5693 0.2281 0.8187
C60_3 C 0.6279(4) 0.2764(3) 0.8085(2)
C61_3 C 0.6820(4) 0.2790(3) 0.8014(2)
H35_3 H 0.6976 0.3091 0.7961
C62_3 C 0.7159(3) 0.2383(3) 0.8016(2)
H36_3 H 0.7534 0.2415 0.7973
C63_3 C 0.7239(4) 0.1468(3) 0.8056(2)
C64_3 C 0.7870(4) 0.0938(3) 0.8101(2)
C65_3 C 0.8377(4) 0.0685(3) 0.8210(3)
H37_3 H 0.8618 0.0902 0.8358
H38_3 H 0.8295 0.0413 0.8389
H39_3 H 0.8552 0.0573 0.7955
C66_3 C 0.5926(4) 0.3166(3) 0.8040(2)
C67_3 C 0.5548(5) 0.3877(4) 0.8088(3)
C68_3 C 0.5468(5) 0.4413(4) 0.8195(3)
H40_3 H 0.5779 0.4529 0.8352
H41_3 H 0.5430 0.4595 0.7937
H42_3 H 0.5143 0.4451 0.8364
C69_3 C 0.8107(4) 0.1735(3) 0.8415(2)
C70_3 C 0.7943(3) 0.1908(3) 0.8813(2)
H43_3 H 0.7625 0.1803 0.8946
C71_3 C 0.8303(4) 0.2262(3) 0.9000(2)
C72_3 C 0.8780(3) 0.2407(3) 0.8804(2)
H44_3 H 0.9011 0.2628 0.8937
C73_3 C 0.8912(4) 0.2226(3) 0.8412(2)
C74_3 C 0.8562(3) 0.1887(3) 0.8219(2)
H45_3 H 0.8648 0.1765 0.7952
C75_3 C 0.8096(3) 0.2492(3) 0.9405(2)
C76_3 C 0.9415(4) 0.2402(4) 0.8184(3)
C77_3 C 0.6463(4) 0.3796(3) 0.8434(3)
C78_3 C 0.6589(4) 0.3578(3) 0.8829(2)
H46_3 H 0.6363 0.3341 0.8945
C79_3 C 0.7050(4) 0.3724(3) 0.9034(2)
C80_3 C 0.7368(4) 0.4100(3) 0.8878(2)
H47_3 H 0.7661 0.4216 0.9036
C81_3 C 0.7245(4) 0.4306(3) 0.8477(2)
C82_3 C 0.6786(4) 0.4164(3) 0.8268(2)
H48_3 H 0.6687 0.4314 0.8015
C83_3 C 0.7258(5) 0.3447(4) 0.9433(3)
C84_3 C 0.7615(5) 0.4680(4) 0.8282(3)
C85_3 C 0.8937(3) 0.2606(3) 0.6960(2)
C86_3 C 0.9091(3) 0.2152(3) 0.6835(2)
H49_3 H 0.9452 0.2091 0.6757
C87_3 C 0.8704(4) 0.1777(3) 0.6826(2)
H50_3 H 0.8820 0.1465 0.6761
C88_3 C 0.8177(3) 0.1852(3) 0.6906(2)
C89_3 C 0.8009(4) 0.2317(3) 0.7020(2)
H51_3 H 0.7643 0.2376 0.7082
C90_3 C 0.8390(3) 0.2696(3) 0.7042(2)
H52_3 H 0.8275 0.3007 0.7112
C91_3 C 0.9358(4) 0.2967(3) 0.7015(2)
C92_3 C 0.9804(4) 0.3674(3) 0.6969(3)
C93_3 C 0.9929(4) 0.4181(3) 0.6856(3)
H53_3 H 0.9624 0.4318 0.6706
H54_3 H 0.9995 0.4364 0.7110
C94_3 C 0.7790(4) 0.1449(3) 0.6925(2)
C95_3 C 0.7077(4) 0.0996(4) 0.6887(2)
C96_3 C 0.6513(4) 0.0847(3) 0.6808(3)
H56_3 H 0.6318 0.1108 0.6676
H57_3 H 0.6511 0.0570 0.6623
H58_3 H 0.6341 0.0765 0.7072
C97_3 C 0.8867(3) 0.3652(3) 0.6593(2)
C98_3 C 0.8742(3) 0.3463(3) 0.6218(2)
H59_3 H 0.8941 0.3205 0.6107
C99_3 C 0.8300(4) 0.3663(3) 0.5993(2)
C100_3 C 0.8024(4) 0.4051(3) 0.6174(2)
H60_3 H 0.7734 0.4192 0.6028
C101_3 C 0.8172(3) 0.4233(3) 0.6569(2)
C102_3 C 0.8596(3) 0.4028(3) 0.6781(2)
H61_3 H 0.8700 0.4141 0.7047
C103_3 C 0.8103(4) 0.3436(3) 0.5587(2)
C104_3 C 0.7827(4) 0.4625(4) 0.6785(3)
C105_3 C 0.6991(3) 0.1826(3) 0.6579(2)
C106_3 C 0.7174(3) 0.1990(3) 0.6180(2)
H62_3 H 0.7471 0.1844 0.6048
C107_3 C 0.6904(3) 0.2370(3) 0.5988(2)
C108_3 C 0.6420(3) 0.2566(3) 0.6173(2)
H63_3 H 0.6221 0.2802 0.6029
C109_3 C 0.6248(3) 0.2410(3) 0.6563(2)
C110_3 C 0.6538(3) 0.2032(3) 0.6780(2)
H64_3 H 0.6427 0.1927 0.7048
C111_3 C 0.7146(5) 0.2558(4) 0.5577(2)
C112_3 C 0.5767(3) 0.2620(3) 0.6799(3)
O38_3 O 0.8338(3) 0.0020(3) 0.7314(2)
Cu9_2 Cu 0.81192(7) 0.32524(6) 1.0000
Cu10_2 Cu 0.72345(7) 0.26873(6) 1.0000
H65 H 0.851821 0.0309961 0.280931
H69_3 H 0.88083 0.394133 0.0257661
H70_5 H 0.916111 0.354005 0
H71_3 H 0.660483 0.197653 0.0257661
H72_5 H 0.622712 0.235965 0
O17_6 O 0.8819(4) 0.3734(3) 1.0000
O18_6 O 0.6581(3) 0.2183(3) 1.0000
H70_6 H 0.916111 0.354005 1
H72_6 H 0.622712 0.235965 1
H66 H 0.834635 0.975159 0.289582
H67 H 0.853511 0.991992 0.757559
H68 H 0.834635 0.975159 0.710418
H66_2 H 0.165365 0.0248409 0.289582
H67_2 H 0.146489 0.00800822 0.757559
H68_2 H 0.165365 0.0248409 0.710418
Cu9_3 Cu 0.18808(7) 0.67476(6) 0.0000
Cu10_3 Cu 0.27655(7) 0.73127(6) 0.0000
Cu3_4 Cu 0.19921(7) 0.73125(6) 0.5000
Cu4_4 Cu 0.27939(7) 0.66544(6) 0.5000
O1_4 O 0.1605(2) 0.7179(2) 0.04435(14)
O2_4 O 0.2353(2) 0.7643(2) 0.04425(14)
O3_4 O 0.0557(2) 0.7727(2) 0.22059(16)
O4_4 O 0.0250(3) 0.7384(3) 0.16163(19)
O5_4 O 0.2277(3) 0.6409(2) 0.04325(16)
O6_4 O 0.3046(3) 0.6890(2) 0.04349(17)
O8_4 O 0.2086(3) 0.5083(3) 0.1479(2)
O9_4 O 0.1651(2) 0.6913(2) 0.45508(15)
O10_4 O 0.2347(3) 0.6373(2) 0.45585(16)
O12_4 O 0.2620(4) 0.5278(3) 0.3389(2)
O13_4 O 0.2438(3) 0.7607(2) 0.45611(15)
O14_4 O 0.3118(2) 0.7051(2) 0.45624(16)
O16_4 O 0.4590(2) 0.7173(2) 0.34256(18)
O17_7 O 0.1181(4) 0.6266(3) 0.0000
O18_7 O 0.3419(3) 0.7817(3) 0.0000
O19_4 O 0.1406(4) 0.7871(3) 0.5000
O20_4 O 0.3411(4) 0.6117(3) 0.5000
N1_4 N 0.2960(3) 0.8913(3) 0.2120(2)
N2_4 N 0.2533(3) 0.9254(2) 0.2096(2)
N3_4 N 0.2246(3) 0.8601(3) 0.17968(16)
N5_4 N 0.4804(3) 0.6382(3) 0.2125(2)
N6_4 N 0.4004(3) 0.6371(3) 0.1803(2)
N7_4 N 0.0176(3) 0.7064(2) 0.27908(18)
N9_4 N 0.0687(3) 0.6561(3) 0.31603(19)
N10_4 N 0.2079(3) 0.8973(3) 0.2911(2)
N11_4 N 0.2548(3) 0.9258(2) 0.29416(19)
N12_4 N 0.2732(3) 0.8549(2) 0.32133(18)
C1_4 C 0.3070(3) 0.8069(3) 0.1918(2)
C2_4 C 0.3622(4) 0.8093(3) 0.1843(2)
H1_4 H 0.3785 0.8390 0.1787
C3_4 C 0.3931(3) 0.7688(3) 0.1852(2)
H2_4 H 0.4307 0.7719 0.1813
C4_4 C 0.3721(4) 0.7236(3) 0.1915(2)
C5_4 C 0.3180(4) 0.7210(3) 0.1986(2)
H3_4 H 0.3024 0.6909 0.2039
C6_4 C 0.2841(3) 0.7617(3) 0.1984(2)
H4_4 H 0.2466 0.7585 0.2027
C7_4 C 0.2761(4) 0.8532(3) 0.1944(2)
C8_4 C 0.2130(4) 0.9062(3) 0.1899(2)
C9_4 C 0.1623(4) 0.9315(3) 0.1790(3)
H5_4 H 0.1382 0.9098 0.1642
H6_4 H 0.1705 0.9587 0.1611
H7_4 H 0.1448 0.9427 0.2045
C10_4 C 0.4074(4) 0.6834(3) 0.1960(2)
C11_4 C 0.4452(5) 0.6123(4) 0.1912(3)
C12_4 C 0.4532(5) 0.5587(4) 0.1805(3)
H8_4 H 0.4221 0.5471 0.1648
H9_4 H 0.4570 0.5405 0.2063
H10_4 H 0.4857 0.5549 0.1636
C13_4 C 0.1893(4) 0.8265(3) 0.1585(2)
C14_4 C 0.2057(3) 0.8092(3) 0.1187(2)
H11_4 H 0.2375 0.8197 0.1054
C15_4 C 0.1697(4) 0.7738(3) 0.1000(2)
C16_4 C 0.1220(3) 0.7593(3) 0.1196(2)
H12_4 H 0.0989 0.7372 0.1063
C17_4 C 0.1088(4) 0.7774(3) 0.1588(2)
C18_4 C 0.1438(3) 0.8113(3) 0.1781(2)
H13_4 H 0.1352 0.8235 0.2048
C19_4 C 0.1904(3) 0.7508(3) 0.0595(2)
C20_4 C 0.0585(4) 0.7598(4) 0.1816(3)
C21_4 C 0.3537(4) 0.6204(3) 0.1566(3)
C22_4 C 0.3411(4) 0.6422(3) 0.1171(2)
H14_4 H 0.3637 0.6659 0.1055
C23_4 C 0.2950(4) 0.6276(3) 0.0966(2)
C24_4 C 0.2632(4) 0.5900(3) 0.1122(2)
H15_4 H 0.2339 0.5784 0.0964
C25_4 C 0.2755(4) 0.5694(3) 0.1523(2)
C26_4 C 0.3214(4) 0.5836(3) 0.1732(2)
H16_4 H 0.3313 0.5686 0.1985
C27_4 C 0.2742(5) 0.6553(4) 0.0567(3)
C28_4 C 0.2385(5) 0.5320(4) 0.1718(3)
C29_4 C 0.1063(3) 0.7394(3) 0.3040(2)
C30_4 C 0.0909(3) 0.7848(3) 0.3165(2)
H17_4 H 0.0548 0.7909 0.3243
C31_4 C 0.1296(4) 0.8223(3) 0.3174(2)
H18_4 H 0.1180 0.8535 0.3239
C32_4 C 0.1823(3) 0.8148(3) 0.3094(2)
C33_4 C 0.1991(4) 0.7683(3) 0.2980(2)
H19_4 H 0.2357 0.7624 0.2918
C34_4 C 0.1610(3) 0.7304(3) 0.2958(2)
H20_4 H 0.1725 0.6993 0.2888
C35_4 C 0.0642(4) 0.7033(3) 0.2985(2)
C36_4 C 0.0196(4) 0.6326(3) 0.3031(3)
C37_4 C 0.0071(4) 0.5819(3) 0.3144(3)
H21_4 H 0.0376 0.5682 0.3294
H22_4 H 0.0005 0.5636 0.2890
C38_4 C 0.2210(4) 0.8551(3) 0.3075(2)
C39_4 C 0.2923(4) 0.9004(4) 0.3113(2)
C40_4 C 0.3487(4) 0.9153(3) 0.3192(3)
H24_4 H 0.3682 0.8892 0.3324
H25_4 H 0.3489 0.9430 0.3377
H26_4 H 0.3659 0.9235 0.2928
C41_4 C 0.1133(3) 0.6348(3) 0.3407(2)
C42_4 C 0.1258(3) 0.6537(3) 0.3782(2)
H27_4 H 0.1059 0.6795 0.3893
C43_4 C 0.1700(4) 0.6337(3) 0.4007(2)
C44_4 C 0.1976(4) 0.5949(3) 0.3826(2)
H28_4 H 0.2266 0.5808 0.3972
C45_4 C 0.1828(3) 0.5767(3) 0.3431(2)
C46_4 C 0.1404(3) 0.5972(3) 0.3219(2)
H29_4 H 0.1300 0.5859 0.2953
C47_4 C 0.1897(4) 0.6564(3) 0.4413(2)
C48_4 C 0.2173(4) 0.5375(4) 0.3215(3)
C49_4 C 0.3009(3) 0.8174(3) 0.3421(2)
C50_4 C 0.2826(3) 0.8010(3) 0.3820(2)
H30_4 H 0.2529 0.8156 0.3952
C51_4 C 0.3096(3) 0.7630(3) 0.4012(2)
C52_4 C 0.3580(3) 0.7434(3) 0.3827(2)
H31_4 H 0.3779 0.7198 0.3971
C53_4 C 0.3752(3) 0.7590(3) 0.3437(2)
C54_4 C 0.3462(3) 0.7968(3) 0.3220(2)
H32_4 H 0.3573 0.8073 0.2952
C55_4 C 0.2854(5) 0.7442(4) 0.4423(2)
C56_4 C 0.4233(3) 0.7380(3) 0.3201(3)
O21_4 O 0.1662(3) 0.9980(3) 0.2686(2)
O22_2 O 0.1605(2) 0.7179(2) 0.95565(14)
O23_2 O 0.2353(2) 0.7643(2) 0.95575(14)
O24_4 O 0.0557(2) 0.7727(2) 0.77941(16)
O25_4 O 0.0250(3) 0.7384(3) 0.83837(19)
O26_2 O 0.2277(3) 0.6409(2) 0.95675(16)
O27_2 O 0.3046(3) 0.6890(2) 0.95651(17)
O29_4 O 0.2086(3) 0.5083(3) 0.8521(2)
O30_4 O 0.1651(2) 0.6913(2) 0.54492(15)
O31_4 O 0.2347(3) 0.6373(2) 0.54415(16)
O33_4 O 0.2620(4) 0.5278(3) 0.6611(2)
O34_4 O 0.2438(3) 0.7607(2) 0.54389(15)
O35_4 O 0.3118(2) 0.7051(2) 0.54376(16)
O37_4 O 0.4590(2) 0.7173(2) 0.65744(18)
N13_4 N 0.2960(3) 0.8913(3) 0.7880(2)
N14_4 N 0.2533(3) 0.9254(2) 0.7904(2)
N15_4 N 0.2246(3) 0.8601(3) 0.82032(16)
N17_4 N 0.4804(3) 0.6382(3) 0.7875(2)
N18_4 N 0.4004(3) 0.6371(3) 0.8197(2)
N19_4 N 0.0176(3) 0.7064(2) 0.72092(18)
N21_4 N 0.0687(3) 0.6561(3) 0.68397(19)
N22_4 N 0.2079(3) 0.8973(3) 0.7089(2)
N23_4 N 0.2548(3) 0.9258(2) 0.70584(19)
N24_4 N 0.2732(3) 0.8549(2) 0.67867(18)
C57_4 C 0.3070(3) 0.8069(3) 0.8082(2)
C58_4 C 0.3622(4) 0.8093(3) 0.8157(2)
H33_4 H 0.3785 0.8390 0.8213
C59_4 C 0.3931(3) 0.7688(3) 0.8148(2)
H34_4 H 0.4307 0.7719 0.8187
C60_4 C 0.3721(4) 0.7236(3) 0.8085(2)
C61_4 C 0.3180(4) 0.7210(3) 0.8014(2)
H35_4 H 0.3024 0.6909 0.7961
C62_4 C 0.2841(3) 0.7617(3) 0.8016(2)
H36_4 H 0.2466 0.7585 0.7973
C63_4 C 0.2761(4) 0.8532(3) 0.8056(2)
C64_4 C 0.2130(4) 0.9062(3) 0.8101(2)
C65_4 C 0.1623(4) 0.9315(3) 0.8210(3)
H37_4 H 0.1382 0.9098 0.8358
H38_4 H 0.1705 0.9587 0.8389
H39_4 H 0.1448 0.9427 0.7955
C66_4 C 0.4074(4) 0.6834(3) 0.8040(2)
C67_4 C 0.4452(5) 0.6123(4) 0.8088(3)
C68_4 C 0.4532(5) 0.5587(4) 0.8195(3)
H40_4 H 0.4221 0.5471 0.8352
H41_4 H 0.4570 0.5405 0.7937
H42_4 H 0.4857 0.5549 0.8364
C69_4 C 0.1893(4) 0.8265(3) 0.8415(2)
C70_4 C 0.2057(3) 0.8092(3) 0.8813(2)
H43_4 H 0.2375 0.8197 0.8946
C71_4 C 0.1697(4) 0.7738(3) 0.9000(2)
C72_4 C 0.1220(3) 0.7593(3) 0.8804(2)
H44_4 H 0.0989 0.7372 0.8937
C73_4 C 0.1088(4) 0.7774(3) 0.8412(2)
C74_4 C 0.1438(3) 0.8113(3) 0.8219(2)
H45_4 H 0.1352 0.8235 0.7952
C75_4 C 0.1904(3) 0.7508(3) 0.9405(2)
C76_4 C 0.0585(4) 0.7598(4) 0.8184(3)
C77_4 C 0.3537(4) 0.6204(3) 0.8434(3)
C78_4 C 0.3411(4) 0.6422(3) 0.8829(2)
H46_4 H 0.3637 0.6659 0.8945
C79_4 C 0.2950(4) 0.6276(3) 0.9034(2)
C80_4 C 0.2632(4) 0.5900(3) 0.8878(2)
H47_4 H 0.2339 0.5784 0.9036
C81_4 C 0.2755(4) 0.5694(3) 0.8477(2)
C82_4 C 0.3214(4) 0.5836(3) 0.8268(2)
H48_4 H 0.3313 0.5686 0.8015
C83_4 C 0.2742(5) 0.6553(4) 0.9433(3)
C84_4 C 0.2385(5) 0.5320(4) 0.8282(3)
C85_4 C 0.1063(3) 0.7394(3) 0.6960(2)
C86_4 C 0.0909(3) 0.7848(3) 0.6835(2)
H49_4 H 0.0548 0.7909 0.6757
C87_4 C 0.1296(4) 0.8223(3) 0.6826(2)
H50_4 H 0.1180 0.8535 0.6761
C88_4 C 0.1823(3) 0.8148(3) 0.6906(2)
C89_4 C 0.1991(4) 0.7683(3) 0.7020(2)
H51_4 H 0.2357 0.7624 0.7082
C90_4 C 0.1610(3) 0.7304(3) 0.7042(2)
H52_4 H 0.1725 0.6993 0.7112
C91_4 C 0.0642(4) 0.7033(3) 0.7015(2)
C92_4 C 0.0196(4) 0.6326(3) 0.6969(3)
C93_4 C 0.0071(4) 0.5819(3) 0.6856(3)
H53_4 H 0.0376 0.5682 0.6706
H54_4 H 0.0005 0.5636 0.7110
C94_4 C 0.2210(4) 0.8551(3) 0.6925(2)
C95_4 C 0.2923(4) 0.9004(4) 0.6887(2)
C96_4 C 0.3487(4) 0.9153(3) 0.6808(3)
H56_4 H 0.3682 0.8892 0.6676
H57_4 H 0.3489 0.9430 0.6623
H58_4 H 0.3659 0.9235 0.7072
C97_4 C 0.1133(3) 0.6348(3) 0.6593(2)
C98_4 C 0.1258(3) 0.6537(3) 0.6218(2)
H59_4 H 0.1059 0.6795 0.6107
C99_4 C 0.1700(4) 0.6337(3) 0.5993(2)
C100_4 C 0.1976(4) 0.5949(3) 0.6174(2)
H60_4 H 0.2266 0.5808 0.6028
C101_4 C 0.1828(3) 0.5767(3) 0.6569(2)
C102_4 C 0.1404(3) 0.5972(3) 0.6781(2)
H61_4 H 0.1300 0.5859 0.7047
C103_4 C 0.1897(4) 0.6564(3) 0.5587(2)
C104_4 C 0.2173(4) 0.5375(4) 0.6785(3)
C105_4 C 0.3009(3) 0.8174(3) 0.6579(2)
C106_4 C 0.2826(3) 0.8010(3) 0.6180(2)
H62_4 H 0.2529 0.8156 0.6048
C107_4 C 0.3096(3) 0.7630(3) 0.5988(2)
C108_4 C 0.3580(3) 0.7434(3) 0.6173(2)
H63_4 H 0.3779 0.7198 0.6029
C109_4 C 0.3752(3) 0.7590(3) 0.6563(2)
C110_4 C 0.3462(3) 0.7968(3) 0.6780(2)
H64_4 H 0.3573 0.8073 0.7048
C111_4 C 0.2854(5) 0.7442(4) 0.5577(2)
C112_4 C 0.4233(3) 0.7380(3) 0.6799(3)
O38_4 O 0.1662(3) 0.9980(3) 0.7314(2)
Cu9_4 Cu 0.18808(7) 0.67476(6) 1.0000
Cu10_4 Cu 0.27655(7) 0.73127(6) 1.0000
H65_2 H 0.148179 0.969004 0.280931
H69_4 H 0.11917 0.605867 0.0257661
H70_7 H 0.0838891 0.645995 0
H71_4 H 0.339517 0.802347 0.0257661
H72_7 H 0.377288 0.764035 0
O17_8 O 0.1181(4) 0.6266(3) 1.0000
O18_8 O 0.3419(3) 0.7817(3) 1.0000
H70_8 H 0.0838891 0.645995 1
H72_8 H 0.377288 0.764035 1
N8_4 N 0.9879(3) 0.6640(3) 0.2826(2)
H23_4 H 0.9752 0.5810 0.3322
N20_4 N 0.9879(3) 0.6640(3) 0.7174(2)
H55_4 H 0.9752 0.5810 0.6678
H69_5 H 0.38083 0.105867 0.0257661
H71_5 H 0.160483 0.302347 0.0257661
H69_6 H 0.61917 0.894133 0.0257661
H71_6 H 0.839517 0.697653 0.0257661
H67_3 H 0.146489 0.00800822 0.242441
H65_3 H 0.148179 0.969004 0.719069
H69_7 H 0.11917 0.605867 0.974234
H71_7 H 0.339517 0.802347 0.974234
H65_4 H 0.851821 0.0309961 0.719069
H69_8 H 0.88083 0.394133 0.974234
H71_8 H 0.660483 0.197653 0.974234
H67_4 H 0.853511 0.991992 0.242441
loop_
_geom_bond_atom_site_label_1
_geom_bond_atom_site_label_2
_geom_bond_site_symmetry_1
_geom_bond_site_symmetry_2
Cu1 Cu2 1_555 1_555
O17 Cu1 1_555 1_555
O18 Cu2 1_555 1_555
O39 Cu1 1_555 1_555
O40 Cu2 1_555 1_555
O41 Cu1 1_555 1_555
O42 Cu2 1_555 1_555
O17 H70 1_555 1_555
O18 H72 1_555 1_555
Cu1_2 Cu2_2 1_555 1_555
Cu2_2 O2 1_555 1_555
Cu3 Cu4 1_555 1_555
Cu4 O10 1_555 1_555
Cu5 O3 1_555 1_555
Cu6 N2 1_555 1_555
O1 Cu1_2 1_555 1_555
O2 C19 1_555 1_555
O3 C20 1_555 1_555
O4 C20 1_555 1_555
O5 Cu1_2 1_555 1_555
O6 Cu2_2 1_555 1_555
O7 C28 1_555 1_555
O8 C28 1_555 1_555
O9 Cu3 1_555 1_555
O10 C47 1_555 1_555
O11 C48 1_555 1_555
O12 C48 1_555 1_555
O13 Cu3 1_555 1_555
O14 Cu4 1_555 1_555
O15 C56 1_555 1_555
O16 C56 1_555 1_555
O17_2 Cu1_2 1_555 1_555
O18_2 Cu2_2 1_555 1_555
O19 Cu3 1_555 1_555
O20 Cu4 1_555 1_555
N1 N2 1_555 1_555
N2 C8 1_555 1_555
N3 C7 1_555 1_555
N4 N5 1_555 1_555
N5 C11 1_555 1_555
N6 C10 1_555 1_555
N7 Cu5 1_555 1_555
N8 N7 1_555 1_555
N9 C35 1_555 1_555
N10 N11 1_555 1_555
N11 Cu6 1_555 1_555
N12 C38 1_555 1_555
C1 C2 1_555 1_555
C2 H1 1_555 1_555
C3 C2 1_555 1_555
H2 C3 1_555 1_555
C4 C3 1_555 1_555
C5 C4 1_555 1_555
H3 C5 1_555 1_555
C6 C1 1_555 1_555
H4 C6 1_555 1_555
C7 N1 1_555 1_555
C8 N3 1_555 1_555
C9 C8 1_555 1_555
H5 C9 1_555 1_555
H6 C9 1_555 1_555
H7 C9 1_555 1_555
C10 N4 1_555 1_555
C11 N6 1_555 1_555
C12 C11 1_555 1_555
H8 C12 1_555 1_555
H9 C12 1_555 1_555
H10 C12 1_555 1_555
C13 N3 1_555 1_555
C14 C13 1_555 1_555
H11 C14 1_555 1_555
C15 C14 1_555 1_555
C16 C15 1_555 1_555
H12 C16 1_555 1_555
C17 C16 1_555 1_555
C18 C13 1_555 1_555
H13 C18 1_555 1_555
C19 O1 1_555 1_555
C20 C17 1_555 1_555
C21 N6 1_555 1_555
C22 C21 1_555 1_555
H14 C22 1_555 1_555
C23 C22 1_555 1_555
C24 C23 1_555 1_555
H15 C24 1_555 1_555
C25 C24 1_555 1_555
C26 C21 1_555 1_555
H16 C26 1_555 1_555
C27 O5 1_555 1_555
C28 C25 1_555 1_555
C29 C30 1_555 1_555
C30 H17 1_555 1_555
C31 C30 1_555 1_555
H18 C31 1_555 1_555
C32 C31 1_555 1_555
C33 C32 1_555 1_555
H19 C33 1_555 1_555
C34 C29 1_555 1_555
H20 C34 1_555 1_555
C35 N7 1_555 1_555
C36 N8 1_555 1_555
C37 C36 1_555 1_555
H21 C37 1_555 1_555
H22 C37 1_555 1_555
H23 C37 1_555 1_555
C38 N10 1_555 1_555
C39 N11 1_555 1_555
C40 C39 1_555 1_555
H24 C40 1_555 1_555
H25 C40 1_555 1_555
H26 C40 1_555 1_555
C41 N9 1_555 1_555
C42 C41 1_555 1_555
H27 C42 1_555 1_555
C43 C42 1_555 1_555
C44 C43 1_555 1_555
H28 C44 1_555 1_555
C45 C44 1_555 1_555
C46 C41 1_555 1_555
H29 C46 1_555 1_555
C47 O9 1_555 1_555
C48 C45 1_555 1_555
C49 N12 1_555 1_555
C50 C49 1_555 1_555
H30 C50 1_555 1_555
C51 C50 1_555 1_555
C52 C51 1_555 1_555
H31 C52 1_555 1_555
C53 C52 1_555 1_555
C54 C49 1_555 1_555
H32 C54 1_555 1_555
C55 O13 1_555 1_555
C56 C53 1_555 1_555
O21 Cu6 1_555 1_555
Cu7 O24 1_555 1_555
Cu8 N14 1_555 1_555
O39 C75 1_555 1_555
O40 C75 1_555 1_555
O24 C76 1_555 1_555
O25 C76 1_555 1_555
O41 C83 1_555 1_555
O42 C83 1_555 1_555
O28 C84 1_555 1_555
O29 C84 1_555 1_555
O30 Cu3 1_555 1_555
O31 Cu4 1_555 1_555
O32 C104 1_555 1_555
O33 C104 1_555 1_555
O34 Cu3 1_555 1_555
O35 Cu4 1_555 1_555
O36 C112 1_555 1_555
O37 C112 1_555 1_555
N13 N14 1_555 1_555
N14 C64 1_555 1_555
N15 C63 1_555 1_555
N16 N17 1_555 1_555
N17 C67 1_555 1_555
N18 C66 1_555 1_555
N19 Cu7 1_555 1_555
N20 N19 1_555 1_555
N21 C91 1_555 1_555
N22 N23 1_555 1_555
N23 Cu8 1_555 1_555
N24 C94 1_555 1_555
C57 C58 1_555 1_555
C58 H33 1_555 1_555
C59 C58 1_555 1_555
H34 C59 1_555 1_555
C60 C59 1_555 1_555
C61 C60 1_555 1_555
H35 C61 1_555 1_555
C62 C57 1_555 1_555
H36 C62 1_555 1_555
C63 N13 1_555 1_555
C64 N15 1_555 1_555
C65 C64 1_555 1_555
H37 C65 1_555 1_555
H38 C65 1_555 1_555
H39 C65 1_555 1_555
C66 N16 1_555 1_555
C67 N18 1_555 1_555
C68 C67 1_555 1_555
H40 C68 1_555 1_555
H41 C68 1_555 1_555
H42 C68 1_555 1_555
C69 N15 1_555 1_555
C70 C69 1_555 1_555
H43 C70 1_555 1_555
C71 C70 1_555 1_555
C72 C71 1_555 1_555
H44 C72 1_555 1_555
C73 C72 1_555 1_555
C74 C69 1_555 1_555
H45 C74 1_555 1_555
C75 C71 1_555 1_555
C76 C73 1_555 1_555
C77 N18 1_555 1_555
C78 C77 1_555 1_555
H46 C78 1_555 1_555
C79 C78 1_555 1_555
C80 C79 1_555 1_555
H47 C80 1_555 1_555
C81 C80 1_555 1_555
C82 C77 1_555 1_555
H48 C82 1_555 1_555
C83 C79 1_555 1_555
C84 C81 1_555 1_555
C85 C86 1_555 1_555
C86 H49 1_555 1_555
C87 C86 1_555 1_555
H50 C87 1_555 1_555
C88 C87 1_555 1_555
C89 C88 1_555 1_555
H51 C89 1_555 1_555
C90 C85 1_555 1_555
H52 C90 1_555 1_555
C91 N19 1_555 1_555
C92 N20 1_555 1_555
C93 C92 1_555 1_555
H53 C93 1_555 1_555
H54 C93 1_555 1_555
H55 C93 1_555 1_555
C94 N22 1_555 1_555
C95 N23 1_555 1_555
C96 C95 1_555 1_555
H56 C96 1_555 1_555
H57 C96 1_555 1_555
H58 C96 1_555 1_555
C97 N21 1_555 1_555
C98 C97 1_555 1_555
H59 C98 1_555 1_555
C99 C98 1_555 1_555
C100 C99 1_555 1_555
H60 C100 1_555 1_555
C101 C100 1_555 1_555
C102 C97 1_555 1_555
H61 C102 1_555 1_555
C103 O30 1_555 1_555
C104 C101 1_555 1_555
C105 N24 1_555 1_555
C106 C105 1_555 1_555
H62 C106 1_555 1_555
C107 C106 1_555 1_555
C108 C107 1_555 1_555
H63 C108 1_555 1_555
C109 C108 1_555 1_555
C110 C105 1_555 1_555
H64 C110 1_555 1_555
C111 O34 1_555 1_555
C112 C109 1_555 1_555
O38 Cu8 1_555 1_555
Cu11 O36 1_555 1_555
Cu12 O15 1_555 1_555
O43 Cu8 1_555 1_555
O44 Cu6 1_555 1_555
O45 Cu8 1_555 1_555
O46 Cu6 1_555 1_555
O47 Cu7 1_555 1_555
O48 Cu5 1_555 1_555
N25 Cu7 1_555 1_555
N26 Cu5 1_555 1_555
O6 C27 1_555 1_555
O14 C55 1_555 1_555
N4 Cu12 1_555 1_555
N9 C36 1_555 1_555
N12 C39 1_555 1_555
C1 C7 1_555 1_555
C4 C10 1_555 1_555
C5 C6 1_555 1_555
C15 C19 1_555 1_555
C17 C18 1_555 1_555
C23 C27 1_555 1_555
C25 C26 1_555 1_555
C29 C35 1_555 1_555
C32 C38 1_555 1_555
C33 C34 1_555 1_555
C43 C47 1_555 1_555
C45 C46 1_555 1_555
C51 C55 1_555 1_555
C53 C54 1_555 1_555
O31 C103 1_555 1_555
O35 C111 1_555 1_555
N16 Cu11 1_555 1_555
N21 C92 1_555 1_555
N24 C95 1_555 1_555
C57 C63 1_555 1_555
C60 C66 1_555 1_555
C61 C62 1_555 1_555
C73 C74 1_555 1_555
C81 C82 1_555 1_555
C85 C91 1_555 1_555
C88 C94 1_555 1_555
C89 C90 1_555 1_555
C99 C103 1_555 1_555
C101 C102 1_555 1_555
C107 C111 1_555 1_555
C109 C110 1_555 1_555
O17_2 H69 1_555 1_555
O17_2 H70_2 1_555 1_555
O18_2 H71 1_555 1_555
O18_2 H72_2 1_555 1_555
Cu1_3 Cu2_3 1_555 1_555
O17_3 Cu1_3 1_555 1_555
O18_3 Cu2_3 1_555 1_555
O39_2 Cu1_3 1_555 1_555
O40_2 Cu2_3 1_555 1_555
O41_2 Cu1_3 1_555 1_555
O42_2 Cu2_3 1_555 1_555
O17_3 H70_3 1_555 1_555
O18_3 H72_3 1_555 1_555
Cu1_4 Cu2_4 1_555 1_555
Cu2_4 O2_2 1_555 1_555
Cu3_2 Cu4_2 1_555 1_555
Cu4_2 O10_2 1_555 1_555
Cu5_2 O3_2 1_555 1_555
Cu6_2 N2_2 1_555 1_555
O1_2 Cu1_4 1_555 1_555
O2_2 C19_2 1_555 1_555
O3_2 C20_2 1_555 1_555
O4_2 C20_2 1_555 1_555
O5_2 Cu1_4 1_555 1_555
O6_2 Cu2_4 1_555 1_555
O7_2 C28_2 1_555 1_555
O8_2 C28_2 1_555 1_555
O9_2 Cu3_2 1_555 1_555
O10_2 C47_2 1_555 1_555
O11_2 C48_2 1_555 1_555
O12_2 C48_2 1_555 1_555
O13_2 Cu3_2 1_555 1_555
O14_2 Cu4_2 1_555 1_555
O15_2 C56_2 1_555 1_555
O16_2 C56_2 1_555 1_555
O17_4 Cu1_4 1_555 1_555
O18_4 Cu2_4 1_555 1_555
O19_2 Cu3_2 1_555 1_555
O20_2 Cu4_2 1_555 1_555
N1_2 N2_2 1_555 1_555
N2_2 C8_2 1_555 1_555
N3_2 C7_2 1_555 1_555
N4_2 N5_2 1_555 1_555
N5_2 C11_2 1_555 1_555
N6_2 C10_2 1_555 1_555
N7_2 Cu5_2 1_555 1_555
N8_2 N7_2 1_555 1_555
N9_2 C35_2 1_555 1_555
N10_2 N11_2 1_555 1_555
N11_2 Cu6_2 1_555 1_555
N12_2 C38_2 1_555 1_555
C1_2 C2_2 1_555 1_555
C2_2 H1_2 1_555 1_555
C3_2 C2_2 1_555 1_555
H2_2 C3_2 1_555 1_555
C4_2 C3_2 1_555 1_555
C5_2 C4_2 1_555 1_555
H3_2 C5_2 1_555 1_555
C6_2 C1_2 1_555 1_555
H4_2 C6_2 1_555 1_555
C7_2 N1_2 1_555 1_555
C8_2 N3_2 1_555 1_555
C9_2 C8_2 1_555 1_555
H5_2 C9_2 1_555 1_555
H6_2 C9_2 1_555 1_555
H7_2 C9_2 1_555 1_555
C10_2 N4_2 1_555 1_555
C11_2 N6_2 1_555 1_555
C12_2 C11_2 1_555 1_555
H8_2 C12_2 1_555 1_555
H9_2 C12_2 1_555 1_555
H10_2 C12_2 1_555 1_555
C13_2 N3_2 1_555 1_555
C14_2 C13_2 1_555 1_555
H11_2 C14_2 1_555 1_555
C15_2 C14_2 1_555 1_555
C16_2 C15_2 1_555 1_555
H12_2 C16_2 1_555 1_555
C17_2 C16_2 1_555 1_555
C18_2 C13_2 1_555 1_555
H13_2 C18_2 1_555 1_555
C19_2 O1_2 1_555 1_555
C20_2 C17_2 1_555 1_555
C21_2 N6_2 1_555 1_555
C22_2 C21_2 1_555 1_555
H14_2 C22_2 1_555 1_555
C23_2 C22_2 1_555 1_555
C24_2 C23_2 1_555 1_555
H15_2 C24_2 1_555 1_555
C25_2 C24_2 1_555 1_555
C26_2 C21_2 1_555 1_555
H16_2 C26_2 1_555 1_555
C27_2 O5_2 1_555 1_555
C28_2 C25_2 1_555 1_555
C29_2 C30_2 1_555 1_555
C30_2 H17_2 1_555 1_555
C31_2 C30_2 1_555 1_555
H18_2 C31_2 1_555 1_555
C32_2 C31_2 1_555 1_555
C33_2 C32_2 1_555 1_555
H19_2 C33_2 1_555 1_555
C34_2 C29_2 1_555 1_555
H20_2 C34_2 1_555 1_555
C35_2 N7_2 1_555 1_555
C36_2 N8_2 1_555 1_555
C37_2 C36_2 1_555 1_555
H21_2 C37_2 1_555 1_555
H22_2 C37_2 1_555 1_555
H23_2 C37_2 1_555 1_555
C38_2 N10_2 1_555 1_555
C39_2 N11_2 1_555 1_555
C40_2 C39_2 1_555 1_555
H24_2 C40_2 1_555 1_555
H25_2 C40_2 1_555 1_555
H26_2 C40_2 1_555 1_555
C41_2 N9_2 1_555 1_555
C42_2 C41_2 1_555 1_555
H27_2 C42_2 1_555 1_555
C43_2 C42_2 1_555 1_555
C44_2 C43_2 1_555 1_555
H28_2 C44_2 1_555 1_555
C45_2 C44_2 1_555 1_555
C46_2 C41_2 1_555 1_555
H29_2 C46_2 1_555 1_555
C47_2 O9_2 1_555 1_555
C48_2 C45_2 1_555 1_555
C49_2 N12_2 1_555 1_555
C50_2 C49_2 1_555 1_555
H30_2 C50_2 1_555 1_555
C51_2 C50_2 1_555 1_555
C52_2 C51_2 1_555 1_555
H31_2 C52_2 1_555 1_555
C53_2 C52_2 1_555 1_555
C54_2 C49_2 1_555 1_555
H32_2 C54_2 1_555 1_555
C55_2 O13_2 1_555 1_555
C56_2 C53_2 1_555 1_555
O21_2 Cu6_2 1_555 1_555
Cu7_2 O24_2 1_555 1_555
Cu8_2 N14_2 1_555 1_555
O39_2 C75_2 1_555 1_555
O40_2 C75_2 1_555 1_555
O24_2 C76_2 1_555 1_555
O25_2 C76_2 1_555 1_555
O41_2 C83_2 1_555 1_555
O42_2 C83_2 1_555 1_555
O28_2 C84_2 1_555 1_555
O29_2 C84_2 1_555 1_555
O30_2 Cu3_2 1_555 1_555
O31_2 Cu4_2 1_555 1_555
O32_2 C104_2 1_555 1_555
O33_2 C104_2 1_555 1_555
O34_2 Cu3_2 1_555 1_555
O35_2 Cu4_2 1_555 1_555
O36_2 C112_2 1_555 1_555
O37_2 C112_2 1_555 1_555
N13_2 N14_2 1_555 1_555
N14_2 C64_2 1_555 1_555
N15_2 C63_2 1_555 1_555
N16_2 N17_2 1_555 1_555
N17_2 C67_2 1_555 1_555
N18_2 C66_2 1_555 1_555
N19_2 Cu7_2 1_555 1_555
N20_2 N19_2 1_555 1_555
N21_2 C91_2 1_555 1_555
N22_2 N23_2 1_555 1_555
N23_2 Cu8_2 1_555 1_555
N24_2 C94_2 1_555 1_555
C57_2 C58_2 1_555 1_555
C58_2 H33_2 1_555 1_555
C59_2 C58_2 1_555 1_555
H34_2 C59_2 1_555 1_555
C60_2 C59_2 1_555 1_555
C61_2 C60_2 1_555 1_555
H35_2 C61_2 1_555 1_555
C62_2 C57_2 1_555 1_555
H36_2 C62_2 1_555 1_555
C63_2 N13_2 1_555 1_555
C64_2 N15_2 1_555 1_555
C65_2 C64_2 1_555 1_555
H37_2 C65_2 1_555 1_555
H38_2 C65_2 1_555 1_555
H39_2 C65_2 1_555 1_555
C66_2 N16_2 1_555 1_555
C67_2 N18_2 1_555 1_555
C68_2 C67_2 1_555 1_555
H40_2 C68_2 1_555 1_555
H41_2 C68_2 1_555 1_555
H42_2 C68_2 1_555 1_555
C69_2 N15_2 1_555 1_555
C70_2 C69_2 1_555 1_555
H43_2 C70_2 1_555 1_555
C71_2 C70_2 1_555 1_555
C72_2 C71_2 1_555 1_555
H44_2 C72_2 1_555 1_555
C73_2 C72_2 1_555 1_555
C74_2 C69_2 1_555 1_555
H45_2 C74_2 1_555 1_555
C75_2 C71_2 1_555 1_555
C76_2 C73_2 1_555 1_555
C77_2 N18_2 1_555 1_555
C78_2 C77_2 1_555 1_555
H46_2 C78_2 1_555 1_555
C79_2 C78_2 1_555 1_555
C80_2 C79_2 1_555 1_555
H47_2 C80_2 1_555 1_555
C81_2 C80_2 1_555 1_555
C82_2 C77_2 1_555 1_555
H48_2 C82_2 1_555 1_555
C83_2 C79_2 1_555 1_555
C84_2 C81_2 1_555 1_555
C85_2 C86_2 1_555 1_555
C86_2 H49_2 1_555 1_555
C87_2 C86_2 1_555 1_555
H50_2 C87_2 1_555 1_555
C88_2 C87_2 1_555 1_555
C89_2 C88_2 1_555 1_555
H51_2 C89_2 1_555 1_555
C90_2 C85_2 1_555 1_555
H52_2 C90_2 1_555 1_555
C91_2 N19_2 1_555 1_555
C92_2 N20_2 1_555 1_555
C93_2 C92_2 1_555 1_555
H53_2 C93_2 1_555 1_555
H54_2 C93_2 1_555 1_555
H55_2 C93_2 1_555 1_555
C94_2 N22_2 1_555 1_555
C95_2 N23_2 1_555 1_555
C96_2 C95_2 1_555 1_555
H56_2 C96_2 1_555 1_555
H57_2 C96_2 1_555 1_555
H58_2 C96_2 1_555 1_555
C97_2 N21_2 1_555 1_555
C98_2 C97_2 1_555 1_555
H59_2 C98_2 1_555 1_555
C99_2 C98_2 1_555 1_555
C100_2 C99_2 1_555 1_555
H60_2 C100_2 1_555 1_555
C101_2 C100_2 1_555 1_555
C102_2 C97_2 1_555 1_555
H61_2 C102_2 1_555 1_555
C103_2 O30_2 1_555 1_555
C104_2 C101_2 1_555 1_555
C105_2 N24_2 1_555 1_555
C106_2 C105_2 1_555 1_555
H62_2 C106_2 1_555 1_555
C107_2 C106_2 1_555 1_555
C108_2 C107_2 1_555 1_555
H63_2 C108_2 1_555 1_555
C109_2 C108_2 1_555 1_555
C110_2 C105_2 1_555 1_555
H64_2 C110_2 1_555 1_555
C111_2 O34_2 1_555 1_555
C112_2 C109_2 1_555 1_555
O38_2 Cu8_2 1_555 1_555
Cu11_2 O36_2 1_555 1_555
Cu12_2 O15_2 1_555 1_555
O43_2 Cu8_2 1_555 1_555
O44_2 Cu6_2 1_555 1_555
O45_2 Cu8_2 1_555 1_555
O46_2 Cu6_2 1_555 1_555
O47_2 Cu7_2 1_555 1_555
O48_2 Cu5_2 1_555 1_555
N25_2 Cu7_2 1_555 1_555
N26_2 Cu5_2 1_555 1_555
O6_2 C27_2 1_555 1_555
O14_2 C55_2 1_555 1_555
N4_2 Cu12_2 1_555 1_555
N9_2 C36_2 1_555 1_555
N12_2 C39_2 1_555 1_555
C1_2 C7_2 1_555 1_555
C4_2 C10_2 1_555 1_555
C5_2 C6_2 1_555 1_555
C15_2 C19_2 1_555 1_555
C17_2 C18_2 1_555 1_555
C23_2 C27_2 1_555 1_555
C25_2 C26_2 1_555 1_555
C29_2 C35_2 1_555 1_555
C32_2 C38_2 1_555 1_555
C33_2 C34_2 1_555 1_555
C43_2 C47_2 1_555 1_555
C45_2 C46_2 1_555 1_555
C51_2 C55_2 1_555 1_555
C53_2 C54_2 1_555 1_555
O31_2 C103_2 1_555 1_555
O35_2 C111_2 1_555 1_555
N16_2 Cu11_2 1_555 1_555
N21_2 C92_2 1_555 1_555
N24_2 C95_2 1_555 1_555
C57_2 C63_2 1_555 1_555
C60_2 C66_2 1_555 1_555
C61_2 C62_2 1_555 1_555
C73_2 C74_2 1_555 1_555
C81_2 C82_2 1_555 1_555
C85_2 C91_2 1_555 1_555
C88_2 C94_2 1_555 1_555
C89_2 C90_2 1_555 1_555
C99_2 C103_2 1_555 1_555
C101_2 C102_2 1_555 1_555
C107_2 C111_2 1_555 1_555
C109_2 C110_2 1_555 1_555
O17_4 H69_2 1_555 1_555
O17_4 H70_4 1_555 1_555
O18_4 H71_2 1_555 1_555
O18_4 H72_4 1_555 1_555
Cu9 Cu10 1_555 1_555
Cu10 O2_3 1_555 1_555
Cu3_3 Cu4_3 1_555 1_555
Cu4_3 O10_3 1_555 1_555
Cu13 N2_3 1_555 1_555
O1_3 Cu9 1_555 1_555
O2_3 C19_3 1_555 1_555
O3_3 C20_3 1_555 1_555
O4_3 C20_3 1_555 1_555
O5_3 Cu9 1_555 1_555
O6_3 Cu10 1_555 1_555
O43 C28_3 1_555 1_555
O8_3 C28_3 1_555 1_555
O9_3 Cu3_3 1_555 1_555
O10_3 C47_3 1_555 1_555
O45 C48_3 1_555 1_555
O12_3 C48_3 1_555 1_555
O13_3 Cu3_3 1_555 1_555
O14_3 Cu4_3 1_555 1_555
O47_2 C56_3 1_555 1_555
O16_3 C56_3 1_555 1_555
O17_5 Cu9 1_555 1_555
O18_5 Cu10 1_555 1_555
O19_3 Cu3_3 1_555 1_555
O20_3 Cu4_3 1_555 1_555
N1_3 N2_3 1_555 1_555
N2_3 C8_3 1_555 1_555
N3_3 C7_3 1_555 1_555
N25_2 N5_3 1_555 1_555
N5_3 C11_3 1_555 1_555
N6_3 C10_3 1_555 1_555
N9_3 C35_3 1_555 1_555
N10_3 N11_3 1_555 1_555
N11_3 Cu13 1_555 1_555
N12_3 C38_3 1_555 1_555
C1_3 C2_3 1_555 1_555
C2_3 H1_3 1_555 1_555
C3_3 C2_3 1_555 1_555
H2_3 C3_3 1_555 1_555
C4_3 C3_3 1_555 1_555
C5_3 C4_3 1_555 1_555
H3_3 C5_3 1_555 1_555
C6_3 C1_3 1_555 1_555
H4_3 C6_3 1_555 1_555
C7_3 N1_3 1_555 1_555
C8_3 N3_3 1_555 1_555
C9_3 C8_3 1_555 1_555
H5_3 C9_3 1_555 1_555
H6_3 C9_3 1_555 1_555
H7_3 C9_3 1_555 1_555
C10_3 N25_2 1_555 1_555
C11_3 N6_3 1_555 1_555
C12_3 C11_3 1_555 1_555
H8_3 C12_3 1_555 1_555
H9_3 C12_3 1_555 1_555
H10_3 C12_3 1_555 1_555
C13_3 N3_3 1_555 1_555
C14_3 C13_3 1_555 1_555
H11_3 C14_3 1_555 1_555
C15_3 C14_3 1_555 1_555
C16_3 C15_3 1_555 1_555
H12_3 C16_3 1_555 1_555
C17_3 C16_3 1_555 1_555
C18_3 C13_3 1_555 1_555
H13_3 C18_3 1_555 1_555
C19_3 O1_3 1_555 1_555
C20_3 C17_3 1_555 1_555
C21_3 N6_3 1_555 1_555
C22_3 C21_3 1_555 1_555
H14_3 C22_3 1_555 1_555
C23_3 C22_3 1_555 1_555
C24_3 C23_3 1_555 1_555
H15_3 C24_3 1_555 1_555
C25_3 C24_3 1_555 1_555
C26_3 C21_3 1_555 1_555
H16_3 C26_3 1_555 1_555
C27_3 O5_3 1_555 1_555
C28_3 C25_3 1_555 1_555
C29_3 C30_3 1_555 1_555
C30_3 H17_3 1_555 1_555
C31_3 C30_3 1_555 1_555
H18_3 C31_3 1_555 1_555
C32_3 C31_3 1_555 1_555
C33_3 C32_3 1_555 1_555
H19_3 C33_3 1_555 1_555
C34_3 C29_3 1_555 1_555
H20_3 C34_3 1_555 1_555
C35_3 N7_3 1_555 1_555
C37_3 C36_3 1_555 1_555
H21_3 C37_3 1_555 1_555
H22_3 C37_3 1_555 1_555
C38_3 N10_3 1_555 1_555
C39_3 N11_3 1_555 1_555
C40_3 C39_3 1_555 1_555
H24_3 C40_3 1_555 1_555
H25_3 C40_3 1_555 1_555
H26_3 C40_3 1_555 1_555
C41_3 N9_3 1_555 1_555
C42_3 C41_3 1_555 1_555
H27_3 C42_3 1_555 1_555
C43_3 C42_3 1_555 1_555
C44_3 C43_3 1_555 1_555
H28_3 C44_3 1_555 1_555
C45_3 C44_3 1_555 1_555
C46_3 C41_3 1_555 1_555
H29_3 C46_3 1_555 1_555
C47_3 O9_3 1_555 1_555
C48_3 C45_3 1_555 1_555
C49_3 N12_3 1_555 1_555
C50_3 C49_3 1_555 1_555
H30_3 C50_3 1_555 1_555
C51_3 C50_3 1_555 1_555
C52_3 C51_3 1_555 1_555
H31_3 C52_3 1_555 1_555
C53_3 C52_3 1_555 1_555
C54_3 C49_3 1_555 1_555
H32_3 C54_3 1_555 1_555
C55_3 O13_3 1_555 1_555
C56_3 C53_3 1_555 1_555
O21_3 Cu13 1_555 1_555
Cu14 N14_3 1_555 1_555
O22 C75_3 1_555 1_555
O23 C75_3 1_555 1_555
O24_3 C76_3 1_555 1_555
O25_3 C76_3 1_555 1_555
O26 C83_3 1_555 1_555
O27 C83_3 1_555 1_555
O44 C84_3 1_555 1_555
O29_3 C84_3 1_555 1_555
O30_3 Cu3_3 1_555 1_555
O31_3 Cu4_3 1_555 1_555
O46 C104_3 1_555 1_555
O33_3 C104_3 1_555 1_555
O34_3 Cu3_3 1_555 1_555
O35_3 Cu4_3 1_555 1_555
O48_2 C112_3 1_555 1_555
O37_3 C112_3 1_555 1_555
N13_3 N14_3 1_555 1_555
N14_3 C64_3 1_555 1_555
N15_3 C63_3 1_555 1_555
N26_2 N17_3 1_555 1_555
N17_3 C67_3 1_555 1_555
N18_3 C66_3 1_555 1_555
N21_3 C91_3 1_555 1_555
N22_3 N23_3 1_555 1_555
N23_3 Cu14 1_555 1_555
N24_3 C94_3 1_555 1_555
C57_3 C58_3 1_555 1_555
C58_3 H33_3 1_555 1_555
C59_3 C58_3 1_555 1_555
H34_3 C59_3 1_555 1_555
C60_3 C59_3 1_555 1_555
C61_3 C60_3 1_555 1_555
H35_3 C61_3 1_555 1_555
C62_3 C57_3 1_555 1_555
H36_3 C62_3 1_555 1_555
C63_3 N13_3 1_555 1_555
C64_3 N15_3 1_555 1_555
C65_3 C64_3 1_555 1_555
H37_3 C65_3 1_555 1_555
H38_3 C65_3 1_555 1_555
H39_3 C65_3 1_555 1_555
C66_3 N26_2 1_555 1_555
C67_3 N18_3 1_555 1_555
C68_3 C67_3 1_555 1_555
H40_3 C68_3 1_555 1_555
H41_3 C68_3 1_555 1_555
H42_3 C68_3 1_555 1_555
C69_3 N15_3 1_555 1_555
C70_3 C69_3 1_555 1_555
H43_3 C70_3 1_555 1_555
C71_3 C70_3 1_555 1_555
C72_3 C71_3 1_555 1_555
H44_3 C72_3 1_555 1_555
C73_3 C72_3 1_555 1_555
C74_3 C69_3 1_555 1_555
H45_3 C74_3 1_555 1_555
C75_3 C71_3 1_555 1_555
C76_3 C73_3 1_555 1_555
C77_3 N18_3 1_555 1_555
C78_3 C77_3 1_555 1_555
H46_3 C78_3 1_555 1_555
C79_3 C78_3 1_555 1_555
C80_3 C79_3 1_555 1_555
H47_3 C80_3 1_555 1_555
C81_3 C80_3 1_555 1_555
C82_3 C77_3 1_555 1_555
H48_3 C82_3 1_555 1_555
C83_3 C79_3 1_555 1_555
C84_3 C81_3 1_555 1_555
C85_3 C86_3 1_555 1_555
C86_3 H49_3 1_555 1_555
C87_3 C86_3 1_555 1_555
H50_3 C87_3 1_555 1_555
C88_3 C87_3 1_555 1_555
C89_3 C88_3 1_555 1_555
H51_3 C89_3 1_555 1_555
C90_3 C85_3 1_555 1_555
H52_3 C90_3 1_555 1_555
C91_3 N19_3 1_555 1_555
C93_3 C92_3 1_555 1_555
H53_3 C93_3 1_555 1_555
H54_3 C93_3 1_555 1_555
C94_3 N22_3 1_555 1_555
C95_3 N23_3 1_555 1_555
C96_3 C95_3 1_555 1_555
H56_3 C96_3 1_555 1_555
H57_3 C96_3 1_555 1_555
H58_3 C96_3 1_555 1_555
C97_3 N21_3 1_555 1_555
C98_3 C97_3 1_555 1_555
H59_3 C98_3 1_555 1_555
C99_3 C98_3 1_555 1_555
C100_3 C99_3 1_555 1_555
H60_3 C100_3 1_555 1_555
C101_3 C100_3 1_555 1_555
C102_3 C97_3 1_555 1_555
H61_3 C102_3 1_555 1_555
C103_3 O30_3 1_555 1_555
C104_3 C101_3 1_555 1_555
C105_3 N24_3 1_555 1_555
C106_3 C105_3 1_555 1_555
H62_3 C106_3 1_555 1_555
C107_3 C106_3 1_555 1_555
C108_3 C107_3 1_555 1_555
H63_3 C108_3 1_555 1_555
C109_3 C108_3 1_555 1_555
C110_3 C105_3 1_555 1_555
H64_3 C110_3 1_555 1_555
C111_3 O34_3 1_555 1_555
C112_3 C109_3 1_555 1_555
O38_3 Cu14 1_555 1_555
Cu9_2 O22 1_555 1_555
Cu10_2 O23 1_555 1_555
O6_3 C27_3 1_555 1_555
O14_3 C55_3 1_555 1_555
N9_3 C36_3 1_555 1_555
N12_3 C39_3 1_555 1_555
C1_3 C7_3 1_555 1_555
C4_3 C10_3 1_555 1_555
C5_3 C6_3 1_555 1_555
C15_3 C19_3 1_555 1_555
C17_3 C18_3 1_555 1_555
C23_3 C27_3 1_555 1_555
C25_3 C26_3 1_555 1_555
C29_3 C35_3 1_555 1_555
C32_3 C38_3 1_555 1_555
C33_3 C34_3 1_555 1_555
C43_3 C47_3 1_555 1_555
C45_3 C46_3 1_555 1_555
C51_3 C55_3 1_555 1_555
C53_3 C54_3 1_555 1_555
O26 Cu9_2 1_555 1_555
O27 Cu10_2 1_555 1_555
O31_3 C103_3 1_555 1_555
O35_3 C111_3 1_555 1_555
N21_3 C92_3 1_555 1_555
N24_3 C95_3 1_555 1_555
C57_3 C63_3 1_555 1_555
C60_3 C66_3 1_555 1_555
C61_3 C62_3 1_555 1_555
C73_3 C74_3 1_555 1_555
C81_3 C82_3 1_555 1_555
C85_3 C91_3 1_555 1_555
C88_3 C94_3 1_555 1_555
C89_3 C90_3 1_555 1_555
C99_3 C103_3 1_555 1_555
C101_3 C102_3 1_555 1_555
C107_3 C111_3 1_555 1_555
C109_3 C110_3 1_555 1_555
Cu9_2 Cu10_2 1_555 1_555
O21_3 H65 1_555 1_555
O17_5 H69_3 1_555 1_555
O17_5 H70_5 1_555 1_555
O18_5 H71_3 1_555 1_555
O18_5 H72_5 1_555 1_555
O17_6 Cu9_2 1_555 1_555
O18_6 Cu10_2 1_555 1_555
O17_6 H70_6 1_555 1_555
O18_6 H72_6 1_555 1_555
Cu9_3 Cu10_3 1_555 1_555
Cu10_3 O2_4 1_555 1_555
Cu3_4 Cu4_4 1_555 1_555
Cu4_4 O10_4 1_555 1_555
Cu13_2 N2_4 1_555 1_555
O1_4 Cu9_3 1_555 1_555
O2_4 C19_4 1_555 1_555
O3_4 C20_4 1_555 1_555
O4_4 C20_4 1_555 1_555
O5_4 Cu9_3 1_555 1_555
O6_4 Cu10_3 1_555 1_555
O43_2 C28_4 1_555 1_555
O8_4 C28_4 1_555 1_555
O9_4 Cu3_4 1_555 1_555
O10_4 C47_4 1_555 1_555
O45_2 C48_4 1_555 1_555
O12_4 C48_4 1_555 1_555
O13_4 Cu3_4 1_555 1_555
O14_4 Cu4_4 1_555 1_555
O47 C56_4 1_555 1_555
O16_4 C56_4 1_555 1_555
O17_7 Cu9_3 1_555 1_555
O18_7 Cu10_3 1_555 1_555
O19_4 Cu3_4 1_555 1_555
O20_4 Cu4_4 1_555 1_555
N1_4 N2_4 1_555 1_555
N2_4 C8_4 1_555 1_555
N3_4 C7_4 1_555 1_555
N25 N5_4 1_555 1_555
N5_4 C11_4 1_555 1_555
N6_4 C10_4 1_555 1_555
N9_4 C35_4 1_555 1_555
N10_4 N11_4 1_555 1_555
N11_4 Cu13_2 1_555 1_555
N12_4 C38_4 1_555 1_555
C1_4 C2_4 1_555 1_555
C2_4 H1_4 1_555 1_555
C3_4 C2_4 1_555 1_555
H2_4 C3_4 1_555 1_555
C4_4 C3_4 1_555 1_555
C5_4 C4_4 1_555 1_555
H3_4 C5_4 1_555 1_555
C6_4 C1_4 1_555 1_555
H4_4 C6_4 1_555 1_555
C7_4 N1_4 1_555 1_555
C8_4 N3_4 1_555 1_555
C9_4 C8_4 1_555 1_555
H5_4 C9_4 1_555 1_555
H6_4 C9_4 1_555 1_555
H7_4 C9_4 1_555 1_555
C10_4 N25 1_555 1_555
C11_4 N6_4 1_555 1_555
C12_4 C11_4 1_555 1_555
H8_4 C12_4 1_555 1_555
H9_4 C12_4 1_555 1_555
H10_4 C12_4 1_555 1_555
C13_4 N3_4 1_555 1_555
C14_4 C13_4 1_555 1_555
H11_4 C14_4 1_555 1_555
C15_4 C14_4 1_555 1_555
C16_4 C15_4 1_555 1_555
H12_4 C16_4 1_555 1_555
C17_4 C16_4 1_555 1_555
C18_4 C13_4 1_555 1_555
H13_4 C18_4 1_555 1_555
C19_4 O1_4 1_555 1_555
C20_4 C17_4 1_555 1_555
C21_4 N6_4 1_555 1_555
C22_4 C21_4 1_555 1_555
H14_4 C22_4 1_555 1_555
C23_4 C22_4 1_555 1_555
C24_4 C23_4 1_555 1_555
H15_4 C24_4 1_555 1_555
C25_4 C24_4 1_555 1_555
C26_4 C21_4 1_555 1_555
H16_4 C26_4 1_555 1_555
C27_4 O5_4 1_555 1_555
C28_4 C25_4 1_555 1_555
C29_4 C30_4 1_555 1_555
C30_4 H17_4 1_555 1_555
C31_4 C30_4 1_555 1_555
H18_4 C31_4 1_555 1_555
C32_4 C31_4 1_555 1_555
C33_4 C32_4 1_555 1_555
H19_4 C33_4 1_555 1_555
C34_4 C29_4 1_555 1_555
H20_4 C34_4 1_555 1_555
C35_4 N7_4 1_555 1_555
C37_4 C36_4 1_555 1_555
H21_4 C37_4 1_555 1_555
H22_4 C37_4 1_555 1_555
C38_4 N10_4 1_555 1_555
C39_4 N11_4 1_555 1_555
C40_4 C39_4 1_555 1_555
H24_4 C40_4 1_555 1_555
H25_4 C40_4 1_555 1_555
H26_4 C40_4 1_555 1_555
C41_4 N9_4 1_555 1_555
C42_4 C41_4 1_555 1_555
H27_4 C42_4 1_555 1_555
C43_4 C42_4 1_555 1_555
C44_4 C43_4 1_555 1_555
H28_4 C44_4 1_555 1_555
C45_4 C44_4 1_555 1_555
C46_4 C41_4 1_555 1_555
H29_4 C46_4 1_555 1_555
C47_4 O9_4 1_555 1_555
C48_4 C45_4 1_555 1_555
C49_4 N12_4 1_555 1_555
C50_4 C49_4 1_555 1_555
H30_4 C50_4 1_555 1_555
C51_4 C50_4 1_555 1_555
C52_4 C51_4 1_555 1_555
H31_4 C52_4 1_555 1_555
C53_4 C52_4 1_555 1_555
C54_4 C49_4 1_555 1_555
H32_4 C54_4 1_555 1_555
C55_4 O13_4 1_555 1_555
C56_4 C53_4 1_555 1_555
O21_4 Cu13_2 1_555 1_555
Cu14_2 N14_4 1_555 1_555
O22_2 C75_4 1_555 1_555
O23_2 C75_4 1_555 1_555
O24_4 C76_4 1_555 1_555
O25_4 C76_4 1_555 1_555
O26_2 C83_4 1_555 1_555
O27_2 C83_4 1_555 1_555
O44_2 C84_4 1_555 1_555
O29_4 C84_4 1_555 1_555
O30_4 Cu3_4 1_555 1_555
O31_4 Cu4_4 1_555 1_555
O46_2 C104_4 1_555 1_555
O33_4 C104_4 1_555 1_555
O34_4 Cu3_4 1_555 1_555
O35_4 Cu4_4 1_555 1_555
O48 C112_4 1_555 1_555
O37_4 C112_4 1_555 1_555
N13_4 N14_4 1_555 1_555
N14_4 C64_4 1_555 1_555
N15_4 C63_4 1_555 1_555
N26 N17_4 1_555 1_555
N17_4 C67_4 1_555 1_555
N18_4 C66_4 1_555 1_555
N21_4 C91_4 1_555 1_555
N22_4 N23_4 1_555 1_555
N23_4 Cu14_2 1_555 1_555
N24_4 C94_4 1_555 1_555
C57_4 C58_4 1_555 1_555
C58_4 H33_4 1_555 1_555
C59_4 C58_4 1_555 1_555
H34_4 C59_4 1_555 1_555
C60_4 C59_4 1_555 1_555
C61_4 C60_4 1_555 1_555
H35_4 C61_4 1_555 1_555
C62_4 C57_4 1_555 1_555
H36_4 C62_4 1_555 1_555
C63_4 N13_4 1_555 1_555
C64_4 N15_4 1_555 1_555
C65_4 C64_4 1_555 1_555
H37_4 C65_4 1_555 1_555
H38_4 C65_4 1_555 1_555
H39_4 C65_4 1_555 1_555
C66_4 N26 1_555 1_555
C67_4 N18_4 1_555 1_555
C68_4 C67_4 1_555 1_555
H40_4 C68_4 1_555 1_555
H41_4 C68_4 1_555 1_555
H42_4 C68_4 1_555 1_555
C69_4 N15_4 1_555 1_555
C70_4 C69_4 1_555 1_555
H43_4 C70_4 1_555 1_555
C71_4 C70_4 1_555 1_555
C72_4 C71_4 1_555 1_555
H44_4 C72_4 1_555 1_555
C73_4 C72_4 1_555 1_555
C74_4 C69_4 1_555 1_555
H45_4 C74_4 1_555 1_555
C75_4 C71_4 1_555 1_555
C76_4 C73_4 1_555 1_555
C77_4 N18_4 1_555 1_555
C78_4 C77_4 1_555 1_555
H46_4 C78_4 1_555 1_555
C79_4 C78_4 1_555 1_555
C80_4 C79_4 1_555 1_555
H47_4 C80_4 1_555 1_555
C81_4 C80_4 1_555 1_555
C82_4 C77_4 1_555 1_555
H48_4 C82_4 1_555 1_555
C83_4 C79_4 1_555 1_555
C84_4 C81_4 1_555 1_555
C85_4 C86_4 1_555 1_555
C86_4 H49_4 1_555 1_555
C87_4 C86_4 1_555 1_555
H50_4 C87_4 1_555 1_555
C88_4 C87_4 1_555 1_555
C89_4 C88_4 1_555 1_555
H51_4 C89_4 1_555 1_555
C90_4 C85_4 1_555 1_555
H52_4 C90_4 1_555 1_555
C91_4 N19_4 1_555 1_555
C93_4 C92_4 1_555 1_555
H53_4 C93_4 1_555 1_555
H54_4 C93_4 1_555 1_555
C94_4 N22_4 1_555 1_555
C95_4 N23_4 1_555 1_555
C96_4 C95_4 1_555 1_555
H56_4 C96_4 1_555 1_555
H57_4 C96_4 1_555 1_555
H58_4 C96_4 1_555 1_555
C97_4 N21_4 1_555 1_555
C98_4 C97_4 1_555 1_555
H59_4 C98_4 1_555 1_555
C99_4 C98_4 1_555 1_555
C100_4 C99_4 1_555 1_555
H60_4 C100_4 1_555 1_555
C101_4 C100_4 1_555 1_555
C102_4 C97_4 1_555 1_555
H61_4 C102_4 1_555 1_555
C103_4 O30_4 1_555 1_555
C104_4 C101_4 1_555 1_555
C105_4 N24_4 1_555 1_555
C106_4 C105_4 1_555 1_555
H62_4 C106_4 1_555 1_555
C107_4 C106_4 1_555 1_555
C108_4 C107_4 1_555 1_555
H63_4 C108_4 1_555 1_555
C109_4 C108_4 1_555 1_555
C110_4 C105_4 1_555 1_555
H64_4 C110_4 1_555 1_555
C111_4 O34_4 1_555 1_555
C112_4 C109_4 1_555 1_555
O38_4 Cu14_2 1_555 1_555
Cu9_4 O22_2 1_555 1_555
Cu10_4 O23_2 1_555 1_555
O6_4 C27_4 1_555 1_555
O14_4 C55_4 1_555 1_555
N9_4 C36_4 1_555 1_555
N12_4 C39_4 1_555 1_555
C1_4 C7_4 1_555 1_555
C4_4 C10_4 1_555 1_555
C5_4 C6_4 1_555 1_555
C15_4 C19_4 1_555 1_555
C17_4 C18_4 1_555 1_555
C23_4 C27_4 1_555 1_555
C25_4 C26_4 1_555 1_555
C29_4 C35_4 1_555 1_555
C32_4 C38_4 1_555 1_555
C33_4 C34_4 1_555 1_555
C43_4 C47_4 1_555 1_555
C45_4 C46_4 1_555 1_555
C51_4 C55_4 1_555 1_555
C53_4 C54_4 1_555 1_555
O26_2 Cu9_4 1_555 1_555
O27_2 Cu10_4 1_555 1_555
O31_4 C103_4 1_555 1_555
O35_4 C111_4 1_555 1_555
N21_4 C92_4 1_555 1_555
N24_4 C95_4 1_555 1_555
C57_4 C63_4 1_555 1_555
C60_4 C66_4 1_555 1_555
C61_4 C62_4 1_555 1_555
C73_4 C74_4 1_555 1_555
C81_4 C82_4 1_555 1_555
C85_4 C91_4 1_555 1_555
C88_4 C94_4 1_555 1_555
C89_4 C90_4 1_555 1_555
C99_4 C103_4 1_555 1_555
C101_4 C102_4 1_555 1_555
C107_4 C111_4 1_555 1_555
C109_4 C110_4 1_555 1_555
Cu9_4 Cu10_4 1_555 1_555
O21_4 H65_2 1_555 1_555
O17_7 H69_4 1_555 1_555
O17_7 H70_7 1_555 1_555
O18_7 H71_4 1_555 1_555
O18_7 H72_7 1_555 1_555
O17_8 Cu9_4 1_555 1_555
O18_8 Cu10_4 1_555 1_555
O17_8 H70_8 1_555 1_555
O18_8 H72_8 1_555 1_555
O17_3 H69_5 1_555 1_555
O18_3 H71_5 1_555 1_555
O17 H69_6 1_555 1_555
O18 H71_6 1_555 1_555
O38_4 H65_3 1_555 1_555
O17_8 H69_7 1_555 1_555
O18_8 H71_7 1_555 1_555
O38_3 H65_4 1_555 1_555
O17_6 H69_8 1_555 1_555
O18_6 H71_8 1_555 1_555

#END
