
###############################################################################
#
# This file contains modified crystal structure data generated from the
# MOF subset of the Cambridge Structural Database (CSD) v543 
# hosted by the Cambridge Crystallographic Data Centre (CCDC).
#
# This work is licensed under the Creative Commons
# Attribution-NonCommercial-ShareAlike 4.0 International License.
# To view a copy of this license, visit
# http://creativecommons.org/licenses/by-nc-sa/4.0/
# or send a letter to
# Creative Commons, PO Box 1866, Mountain View, CA 94042, USA.
#
# CIF created using the CSD Python API on 29 September 2022
# The structure has been converted into the P1 space group
# The structure has a 3D framework
# The original CSD entry VEWKUF is in the monoclinic crystal system
# The original CSD entry VEWKUF is in a Sohncke space group
# The framework has been calculated to contain at least 10.0% void space
# The void calculation uses a probe of radius 1.32A, grid spacing 0.4
# The framework is charged, counterions have been retained in the structure
# H atom positions have been added when not included in the experimental data
#
###############################################################################

data_VEWKUF
_chemical_formula_moiety         '(C106 H64 O16 Zn2 4-)n'
_symmetry_cell_setting           triclinic
_symmetry_space_group_name_H-M   'P 1'
_symmetry_Int_Tables_number      1
_space_group_name_Hall           'P 1'
loop_
_symmetry_equiv_pos_site_id
_symmetry_equiv_pos_as_xyz
1 x,y,z
_cell_length_a                   20.6536(3)
_cell_length_b                   33.4974(5)
_cell_length_c                   20.7926(3)
_cell_angle_alpha                90
_cell_angle_beta                 118.6190(10)
_cell_angle_gamma                90
_cell_volume                     12627.7
loop_
_atom_site_label
_atom_site_type_symbol
_atom_site_fract_x
_atom_site_fract_y
_atom_site_fract_z
O3 O 0.1965(3) 0.33764(18) 0.6237(3)
O8 O 0.2266(5) 0.2805(3) 0.6159(4)
C42 C 0.0068(7) 0.2441(4) 0.5135(6)
C43 C 0.0791(7) 0.2544(4) 0.5486(6)
C44 C 0.1019(7) 0.2917(4) 0.5686(6)
C45 C 0.0521(7) 0.3195(4) 0.5617(6)
C53 C 0.1791(6) 0.3034(3) 0.6052(5)
Zn4 Zn 0.30280(5) 0.35029(3) 0.66367(5)
H13 H 0.120248 0.231147 0.56094
H14 H 0.0722564 0.348734 0.58599
O4 O 0.2880(4) 0.3510(2) 0.5321(4)
O7 O 0.3609(4) 0.3283(2) 0.6232(4)
C4 C 0.5773(5) 0.0332(3) 0.2897(5)
C5 C 0.6407(5) 0.0541(3) 0.3225(5)
C6 C 0.7115(7) 0.0326(4) 0.3686(7)
C8 C 0.6401(4) 0.0983(2) 0.3247(4)
C9 C 0.5892(5) 0.1196(3) 0.2643(4)
C10 C 0.5902(5) 0.1618(3) 0.2634(5)
C11 C 0.6392(4) 0.1820(2) 0.3216(4)
C12 C 0.6843(5) 0.1608(3) 0.3857(5)
C13 C 0.6866(5) 0.1212(3) 0.3894(5)
C14 C 0.6416(4) 0.2294(2) 0.3290(4)
C15 C 0.5893(4) 0.2434(2) 0.3605(4)
C16 C 0.5615(4) 0.2160(2) 0.3935(4)
C17 C 0.5160(6) 0.2316(3) 0.4233(5)
C18 C 0.5049(5) 0.2725(3) 0.4238(4)
C19 C 0.5310(4) 0.2983(2) 0.3885(4)
C20 C 0.5741(4) 0.2831(2) 0.3598(4)
C21 C 0.7184(5) 0.2423(2) 0.3728(4)
C22 C 0.7752(5) 0.2232(2) 0.3614(4)
C23 C 0.8462(5) 0.2345(2) 0.3998(4)
C24 C 0.8699(5) 0.2629(3) 0.4542(5)
C25 C 0.8212(5) 0.2812(3) 0.4712(5)
C26 C 0.7451(5) 0.2686(2) 0.4293(4)
C27 C 0.4604(5) 0.2881(3) 0.4554(4)
C28 C 0.4102(5) 0.3174(3) 0.4239(5)
C29 C 0.3664(6) 0.3329(3) 0.4563(5)
C30 C 0.3781(6) 0.3167(3) 0.5217(6)
C31 C 0.4274(5) 0.2871(3) 0.5552(5)
C32 C 0.4732(7) 0.2699(4) 0.5243(7)
C33 C 0.3401(6) 0.3355(3) 0.5637(6)
C35 C 0.6056(4) 0.2457(2) 0.2505(4)
C36 C 0.6510(5) 0.2656(3) 0.2190(5)
C37 C 0.6159(5) 0.2788(3) 0.1492(5)
C38 C 0.5417(5) 0.2769(2) 0.1078(4)
C39 C 0.4963(5) 0.2633(3) 0.1374(4)
C40 C 0.5283(5) 0.2487(3) 0.2029(4)
C41 C 0.9484(6) 0.2769(3) 0.4936(6)
C46 C 0.9712(7) 0.3127(4) 0.5229(6)
C50 C 0.5070(6) 0.2923(3) 0.0289(5)
C51 C 0.5456(6) 0.3204(3) 0.0096(6)
H1 H 0.43393 0.275347 0.606806
H2 H 0.648299 0.291375 0.125442
H3 H 0.436431 0.265126 0.105874
H6 H 0.599398 0.331706 0.0497157
H7 H 0.723118 0.1062 0.440615
H8 H 0.325888 0.356459 0.429631
H9 H 0.55068 0.17787 0.214843
H10 H 0.760088 0.199356 0.321137
H11 H 0.512713 0.245883 0.550778
H12 H 0.990421 0.213049 0.499646
H15 H 0.838428 0.303923 0.513709
H16 H 0.490437 0.211245 0.445356
H17 H 0.517583 0.329974 0.383641
H18 H 0.574021 0.184265 0.396291
H19 H 0.719335 0.177653 0.435121
H20 H 0.596948 0.30379 0.335526
H21 H 0.525222 0.0489115 0.258568
H22 H 0.886566 0.220608 0.387329
H23 H 0.705823 0.281365 0.444485
H24 H 0.710456 0.269038 0.252262
H25 H 0.762149 0.0478928 0.406324
H26 H 0.402042 0.329982 0.372252
H27 H 0.492453 0.237546 0.223834
H28 H 0.932531 0.335958 0.518722
H30 H 0.547815 0.103546 0.216825
O5 O 0.4528(4) 0.3585(2) 0.7913(3)
O6 O 0.3472(3) 0.33088(17) 0.7667(3)
C34 C 0.4519(5) 0.3209(2) 0.8938(4)
C47 C 0.4078(8) 0.3375(4) 0.8025(7)
C48 C 0.4045(6) 0.2971(3) 0.9064(5)
C49 C 0.4386(6) 0.2799(3) 0.9795(5)
C52 C 0.5111(7) 0.3333(3) 0.9354(6)
H4 H 0.347322 0.29176 0.865653
H5 H 0.409746 0.257515 0.994223
H32 H 0.538875 0.354402 0.916979
Zn1 Zn 0.69720(5) 0.85029(3) 0.33633(5)
O1 O 0.6999(3) 0.90746(15) 0.3384(3)
O2 O 0.5829(5) 0.9116(3) 0.3232(5)
C1 C 0.6416(7) 0.9257(4) 0.3193(6)
C2 C 0.6420(6) 0.9711(3) 0.3263(5)
C3 C 0.5775(5) 0.9917(3) 0.2951(5)
C7 C 0.7071(7) 0.9904(4) 0.3590(6)
O9 O 0.8035(3) 0.83764(18) 0.3763(3)
O10 O 0.6528(3) 0.83088(17) 0.2333(3)
O11 O 0.6391(4) 0.8283(2) 0.3768(4)
H29 H 0.757871 0.973252 0.378684
H31 H 0.525433 0.975661 0.274095
O5_2 O 0.5472(4) 0.8585(2) 0.2087(3)
C34_2 C 0.5481(5) 0.8209(2) 0.1062(4)
C47_2 C 0.5922(8) 0.8375(4) 0.1975(7)
C48_2 C 0.5955(6) 0.7971(3) 0.0936(5)
C49_2 C 0.5614(6) 0.7799(3) 0.0205(5)
C52_2 C 0.4889(7) 0.8333(3) 0.0646(6)
H4_2 H 0.652678 0.79176 0.134347
H5_2 H 0.590254 0.757515 0.00577668
H32_2 H 0.461125 0.854402 0.0830206
O1_2 O 0.3001(3) 0.40746(15) 0.6616(3)
O2_2 O 0.4171(5) 0.4116(3) 0.6768(5)
O4_2 O 0.7120(4) 0.8510(2) 0.4679(4)
C1_2 C 0.3584(7) 0.4257(4) 0.6807(6)
C2_2 C 0.3580(6) 0.4711(3) 0.6737(5)
C3_2 C 0.4225(5) 0.4917(3) 0.7049(5)
C4_2 C 0.4227(5) 0.5332(3) 0.7103(5)
C5_2 C 0.3593(5) 0.5541(3) 0.6775(5)
C6_2 C 0.2885(7) 0.5326(4) 0.6314(7)
C7_2 C 0.2929(7) 0.4904(4) 0.6410(6)
C8_2 C 0.3599(4) 0.5983(2) 0.6753(4)
C9_2 C 0.4108(5) 0.6196(3) 0.7357(4)
C10_2 C 0.4098(5) 0.6618(3) 0.7366(5)
C11_2 C 0.3608(4) 0.6820(2) 0.6784(4)
C12_2 C 0.3157(5) 0.6608(3) 0.6143(5)
C13_2 C 0.3134(5) 0.6212(3) 0.6106(5)
C14_2 C 0.3584(4) 0.7294(2) 0.6710(4)
C15_2 C 0.4107(4) 0.7434(2) 0.6395(4)
C16_2 C 0.4385(4) 0.7160(2) 0.6065(4)
C17_2 C 0.4840(6) 0.7316(3) 0.5767(5)
C18_2 C 0.4951(5) 0.7725(3) 0.5762(4)
C19_2 C 0.4690(4) 0.7983(2) 0.6115(4)
C20_2 C 0.4259(4) 0.7831(2) 0.6402(4)
C21_2 C 0.2816(5) 0.7423(2) 0.6272(4)
C22_2 C 0.2248(5) 0.7232(2) 0.6386(4)
C23_2 C 0.1538(5) 0.7345(2) 0.6002(4)
C24_2 C 0.1301(5) 0.7629(3) 0.5458(5)
C25_2 C 0.1788(5) 0.7812(3) 0.5288(5)
C26_2 C 0.2549(5) 0.7686(2) 0.5707(4)
C27_2 C 0.5396(5) 0.7881(3) 0.5446(4)
C28_2 C 0.5898(5) 0.8174(3) 0.5761(5)
C29_2 C 0.6336(6) 0.8329(3) 0.5437(5)
C30_2 C 0.6219(6) 0.8167(3) 0.4783(6)
C31_2 C 0.5726(5) 0.7871(3) 0.4448(5)
C32_2 C 0.5268(7) 0.7699(4) 0.4757(7)
C33_2 C 0.6599(6) 0.8355(3) 0.4363(6)
C35_2 C 0.3944(4) 0.7457(2) 0.7495(4)
C36_2 C 0.3490(5) 0.7656(3) 0.7810(5)
C37_2 C 0.3841(5) 0.7788(3) 0.8508(5)
C38_2 C 0.4583(5) 0.7769(2) 0.8922(4)
C39_2 C 0.5037(5) 0.7633(3) 0.8626(4)
C40_2 C 0.4717(5) 0.7487(3) 0.7971(4)
C41_2 C 0.0516(6) 0.7769(3) 0.5064(6)
C46_2 C 0.0288(7) 0.8127(4) 0.4771(6)
C50_2 C 0.4930(6) 0.7923(3) 0.9711(5)
C51_2 C 0.4544(6) 0.8204(3) 0.9904(6)
H1_2 H 0.56607 0.775347 0.393194
H2_2 H 0.351701 0.791375 0.874558
H3_2 H 0.563569 0.765126 0.894126
H6_2 H 0.400602 0.831706 0.950284
H7_2 H 0.276882 0.6062 0.559385
H8_2 H 0.674112 0.856459 0.570369
H9_2 H 0.44932 0.67787 0.785157
H10_2 H 0.239912 0.699356 0.678863
H11_2 H 0.487287 0.745883 0.449222
H12_2 H 0.009579 0.713049 0.500354
H15_2 H 0.161572 0.803923 0.486291
H16_2 H 0.509563 0.711245 0.554644
H17_2 H 0.482417 0.829974 0.616359
H18_2 H 0.425979 0.684265 0.603709
H19_2 H 0.280665 0.677653 0.564879
H20_2 H 0.403052 0.80379 0.664474
H21_2 H 0.474778 0.548912 0.741432
H22_2 H 0.113434 0.720608 0.612671
H23_2 H 0.294177 0.781365 0.555515
H24_2 H 0.289544 0.769038 0.747738
H25_2 H 0.237851 0.547893 0.593676
H26_2 H 0.597958 0.829982 0.627748
H27_2 H 0.507547 0.737546 0.776166
H28_2 H 0.0674692 0.835958 0.481278
H29_2 H 0.242129 0.473252 0.621316
H30_2 H 0.452185 0.603546 0.783175
H31_2 H 0.474567 0.475661 0.725905
O8_2 O 0.7734(5) 0.7805(3) 0.3841(4)
C42_2 C 0.9932(7) 0.7441(4) 0.4865(6)
C43_2 C 0.9209(7) 0.7544(4) 0.4514(6)
C44_2 C 0.8981(7) 0.7917(4) 0.4314(6)
C45_2 C 0.9479(7) 0.8195(4) 0.4383(6)
C53_2 C 0.8209(6) 0.8034(3) 0.3948(5)
H13_2 H 0.879752 0.731147 0.43906
H14_2 H 0.927744 0.848734 0.41401
loop_
_geom_bond_atom_site_label_1
_geom_bond_atom_site_label_2
_geom_bond_site_symmetry_1
_geom_bond_site_symmetry_2
O3 C53 1_555 1_555
O8 C53 1_555 1_555
C43 C42 1_555 1_555
C44 C43 1_555 1_555
C45 C44 1_555 1_555
C53 C44 1_555 1_555
Zn4 O3 1_555 1_555
C43 H13 1_555 1_555
C45 H14 1_555 1_555
O4 C33 1_555 1_555
O7 C33 1_555 1_555
C4 C5 1_555 1_555
C5 C6 1_555 1_555
C8 C5 1_555 1_555
C9 C8 1_555 1_555
C10 C9 1_555 1_555
C11 C10 1_555 1_555
C12 C11 1_555 1_555
C13 C8 1_555 1_555
C14 C11 1_555 1_555
C15 C14 1_555 1_555
C16 C15 1_555 1_555
C17 C16 1_555 1_555
C18 C17 1_555 1_555
C19 C18 1_555 1_555
C20 C15 1_555 1_555
C21 C14 1_555 1_555
C22 C21 1_555 1_555
C23 C22 1_555 1_555
C24 C23 1_555 1_555
C25 C24 1_555 1_555
C26 C21 1_555 1_555
C27 C18 1_555 1_555
C28 C27 1_555 1_555
C29 C28 1_555 1_555
C30 C29 1_555 1_555
C31 C30 1_555 1_555
C32 C27 1_555 1_555
C33 C30 1_555 1_555
C35 C14 1_555 1_555
C36 C35 1_555 1_555
C37 C36 1_555 1_555
C38 C37 1_555 1_555
C39 C38 1_555 1_555
C40 C35 1_555 1_555
C41 C24 1_555 1_555
C46 C41 1_555 1_555
C50 C38 1_555 1_555
C51 C50 1_555 1_555
Zn4 O7 1_555 1_555
C12 C13 1_555 1_555
C19 C20 1_555 1_555
C25 C26 1_555 1_555
C31 C32 1_555 1_555
C39 C40 1_555 1_555
C31 H1 1_555 1_555
C37 H2 1_555 1_555
C39 H3 1_555 1_555
C51 H6 1_555 1_555
C13 H7 1_555 1_555
C29 H8 1_555 1_555
C10 H9 1_555 1_555
C22 H10 1_555 1_555
C32 H11 1_555 1_555
C25 H15 1_555 1_555
C17 H16 1_555 1_555
C19 H17 1_555 1_555
C16 H18 1_555 1_555
C12 H19 1_555 1_555
C20 H20 1_555 1_555
C4 H21 1_555 1_555
C23 H22 1_555 1_555
C26 H23 1_555 1_555
C36 H24 1_555 1_555
C6 H25 1_555 1_555
C28 H26 1_555 1_555
C40 H27 1_555 1_555
C46 H28 1_555 1_555
C9 H30 1_555 1_555
O5 C47 1_555 1_555
O6 C47 1_555 1_555
C34 C47 1_555 1_555
C48 C34 1_555 1_555
C49 C48 1_555 1_555
C52 C34 1_555 1_555
Zn4 O6 1_555 1_555
C48 H4 1_555 1_555
C49 H5 1_555 1_555
C52 H32 1_555 1_555
Zn1 O1 1_555 1_555
O1 C1 1_555 1_555
O2 C1 1_555 1_555
C1 C2 1_555 1_555
C2 C3 1_555 1_555
C7 C2 1_555 1_555
O9 Zn1 1_555 1_555
O10 Zn1 1_555 1_555
O11 Zn1 1_555 1_555
C7 H29 1_555 1_555
C3 H31 1_555 1_555
O5_2 C47_2 1_555 1_555
O10 C47_2 1_555 1_555
C34_2 C47_2 1_555 1_555
C48_2 C34_2 1_555 1_555
C49_2 C48_2 1_555 1_555
C52_2 C34_2 1_555 1_555
C48_2 H4_2 1_555 1_555
C49_2 H5_2 1_555 1_555
C52_2 H32_2 1_555 1_555
Zn4 O1_2 1_555 1_555
O1_2 C1_2 1_555 1_555
O2_2 C1_2 1_555 1_555
O4_2 C33_2 1_555 1_555
O11 C33_2 1_555 1_555
C1_2 C2_2 1_555 1_555
C2_2 C3_2 1_555 1_555
C3_2 C4_2 1_555 1_555
C4_2 C5_2 1_555 1_555
C5_2 C6_2 1_555 1_555
C6_2 C7_2 1_555 1_555
C7_2 C2_2 1_555 1_555
C8_2 C5_2 1_555 1_555
C9_2 C8_2 1_555 1_555
C10_2 C9_2 1_555 1_555
C11_2 C10_2 1_555 1_555
C12_2 C11_2 1_555 1_555
C13_2 C8_2 1_555 1_555
C14_2 C11_2 1_555 1_555
C15_2 C14_2 1_555 1_555
C16_2 C15_2 1_555 1_555
C17_2 C16_2 1_555 1_555
C18_2 C17_2 1_555 1_555
C19_2 C18_2 1_555 1_555
C20_2 C15_2 1_555 1_555
C21_2 C14_2 1_555 1_555
C22_2 C21_2 1_555 1_555
C23_2 C22_2 1_555 1_555
C24_2 C23_2 1_555 1_555
C25_2 C24_2 1_555 1_555
C26_2 C21_2 1_555 1_555
C27_2 C18_2 1_555 1_555
C28_2 C27_2 1_555 1_555
C29_2 C28_2 1_555 1_555
C30_2 C29_2 1_555 1_555
C31_2 C30_2 1_555 1_555
C32_2 C27_2 1_555 1_555
C33_2 C30_2 1_555 1_555
C35_2 C14_2 1_555 1_555
C36_2 C35_2 1_555 1_555
C37_2 C36_2 1_555 1_555
C38_2 C37_2 1_555 1_555
C39_2 C38_2 1_555 1_555
C40_2 C35_2 1_555 1_555
C41_2 C24_2 1_555 1_555
C46_2 C41_2 1_555 1_555
C50_2 C38_2 1_555 1_555
C51_2 C50_2 1_555 1_555
C12_2 C13_2 1_555 1_555
C19_2 C20_2 1_555 1_555
C25_2 C26_2 1_555 1_555
C31_2 C32_2 1_555 1_555
C39_2 C40_2 1_555 1_555
C31_2 H1_2 1_555 1_555
C37_2 H2_2 1_555 1_555
C39_2 H3_2 1_555 1_555
C51_2 H6_2 1_555 1_555
C13_2 H7_2 1_555 1_555
C29_2 H8_2 1_555 1_555
C10_2 H9_2 1_555 1_555
C22_2 H10_2 1_555 1_555
C32_2 H11_2 1_555 1_555
C25_2 H15_2 1_555 1_555
C17_2 H16_2 1_555 1_555
C19_2 H17_2 1_555 1_555
C16_2 H18_2 1_555 1_555
C12_2 H19_2 1_555 1_555
C20_2 H20_2 1_555 1_555
C4_2 H21_2 1_555 1_555
C23_2 H22_2 1_555 1_555
C26_2 H23_2 1_555 1_555
C36_2 H24_2 1_555 1_555
C6_2 H25_2 1_555 1_555
C28_2 H26_2 1_555 1_555
C40_2 H27_2 1_555 1_555
C46_2 H28_2 1_555 1_555
C7_2 H29_2 1_555 1_555
C9_2 H30_2 1_555 1_555
C3_2 H31_2 1_555 1_555
O9 C53_2 1_555 1_555
O8_2 C53_2 1_555 1_555
C43_2 C42_2 1_555 1_555
C44_2 C43_2 1_555 1_555
C45_2 C44_2 1_555 1_555
C53_2 C44_2 1_555 1_555
C43_2 H13_2 1_555 1_555
C45_2 H14_2 1_555 1_555

#END
