
###############################################################################
#
# This file contains modified crystal structure data generated from the
# MOF subset of the Cambridge Structural Database (CSD) v543 
# hosted by the Cambridge Crystallographic Data Centre (CCDC).
#
# This work is licensed under the Creative Commons
# Attribution-NonCommercial-ShareAlike 4.0 International License.
# To view a copy of this license, visit
# http://creativecommons.org/licenses/by-nc-sa/4.0/
# or send a letter to
# Creative Commons, PO Box 1866, Mountain View, CA 94042, USA.
#
# CIF created using the CSD Python API on 29 September 2022
# The structure has been converted into the P1 space group
# The structure has a 3D framework
# The original CSD entry VEWLAM is in the monoclinic crystal system
# The original CSD entry VEWLAM is in a Sohncke space group
# The framework has been calculated to contain at least 10.0% void space
# The void calculation uses a probe of radius 1.32A, grid spacing 0.4
# H atom positions have been added when not included in the experimental data
#
###############################################################################

data_VEWLAM
_chemical_formula_moiety         '(C318 H200 Co10 O49)n'
_symmetry_cell_setting           triclinic
_symmetry_space_group_name_H-M   'P 1'
_symmetry_Int_Tables_number      1
_space_group_name_Hall           'P 1'
loop_
_symmetry_equiv_pos_site_id
_symmetry_equiv_pos_as_xyz
1 x,y,z
_cell_length_a                   19.3772(8)
_cell_length_b                   34.3744(10)
_cell_length_c                   20.7308(7)
_cell_angle_alpha                90
_cell_angle_beta                 115.432(2)
_cell_angle_gamma                90
_cell_volume                     12470.3
loop_
_atom_site_label
_atom_site_type_symbol
_atom_site_fract_x
_atom_site_fract_y
_atom_site_fract_z
O8 O 0.0964(4) 0.5815(2) 0.7121(4)
O10 O 0.1871(4) 0.56596(19) 0.6734(3)
C25 C 0.0842(6) 0.6079(3) 0.6052(5)
C26 C 0.0665(6) 0.6319(3) 0.4880(5)
C28 C 0.0128(6) 0.6227(3) 0.5913(6)
C30 C 0.1159(6) 0.6132(3) 0.5561(6)
C93 C 0.1317(6) 0.5822(3) 0.6726(6)
C104 C 0.0195(9) 0.6219(4) 0.0124(7)
Co10 Co 0.14226(9) 0.55636(5) 0.80860(9)
Co13 Co 0.24989(9) 0.51614(5) 0.72077(8)
H13 H 0.0889659 0.636437 0.448611
H17 H 0.0391652 0.686706 0.389129
H22 H 0.173857 0.603949 0.567932
H92 H 0.0572378 0.634177 0.0640206
O14 O 0.1075(5) 0.5866(2) 0.8722(4)
C39 C 0.0537(9) 0.6062(5) 0.9674(9)
C40 C 0.0033(8) 0.5928(4) 0.8995(7)
C41 C 0.0495(10) 0.5772(4) 0.8553(8)
H24 H 0.0184927 0.532339 0.801839
H39 H 0.115407 0.604955 0.985691
C1 C 0.8177(6) 0.8157(3) 0.1786(5)
C2 C 0.7800(5) 0.7940(3) 0.2133(5)
C3 C 0.8488(6) 0.7964(3) 0.1380(6)
O12 O 0.8372(4) 0.9982(2) 0.2502(4)
C10 C 0.5134(6) 0.6202(3) 0.0072(5)
C12 C 0.4431(7) 0.6323(3) 0.0033(6)
C14 C 0.6660(6) 0.6976(3) 0.1074(5)
C15 C 0.7306(5) 0.6730(3) 0.1411(5)
C16 C 0.5867(5) 0.6386(3) 0.0594(5)
C17 C 0.7212(5) 0.6308(3) 0.1370(5)
C18 C 0.5932(5) 0.6803(3) 0.0665(5)
C19 C 0.6496(6) 0.6151(3) 0.0940(5)
C20 C 0.8108(5) 0.6904(3) 0.1739(5)
C21 C 0.8237(5) 0.6587(3) 0.2953(5)
C22 C 0.8576(5) 0.6773(3) 0.2582(5)
C23 C 0.9309(6) 0.6913(3) 0.2896(6)
C24 C 0.8683(5) 0.6476(3) 0.3665(5)
C27 C 0.9786(5) 0.6795(3) 0.3631(5)
C29 C 0.9428(6) 0.6581(3) 0.3997(5)
C31 C 0.9641(6) 0.6398(3) 0.5235(6)
C32 C 0.9927(6) 0.6440(3) 0.4717(5)
C33 C 0.8488(6) 0.6727(3) 0.1298(6)
C34 C 0.8406(6) 0.6610(3) 0.0091(6)
C35 C 0.9164(6) 0.6472(3) 0.1565(6)
C36 C 0.9081(6) 0.6382(3) 0.0383(6)
C37 C 0.8113(6) 0.6765(3) 0.0544(6)
C38 C 0.9456(6) 0.6303(3) 0.1106(6)
C94 C 0.7811(6) 0.7539(3) 0.2119(5)
C95 C 0.8123(5) 0.7350(3) 0.1721(5)
C96 C 0.8493(5) 0.7530(3) 0.1357(5)
C97 C 0.8435(7) 0.9837(4) 0.1987(7)
C98 C 0.8221(5) 0.8592(3) 0.1821(5)
C99 C 0.8214(6) 0.9228(4) 0.1280(6)
C100 C 0.8127(5) 0.8808(3) 0.1197(5)
C101 C 0.8413(5) 0.9191(3) 0.2488(6)
C102 C 0.8334(5) 0.9385(3) 0.1909(6)
C105 C 0.8334(6) 0.8766(4) 0.2454(6)
H1 H 0.906468 0.649286 0.512422
H5 H 0.750716 0.809095 0.240558
H7 H 0.952713 0.710486 0.260827
H8 H 0.762671 0.652527 0.269943
H10 H 0.842912 0.630527 0.395023
H12 H 0.671953 0.729087 0.112696
H14 H 0.992798 0.621373 0.632966
H15 H 0.87282 0.81308 0.10785
H18 H 0.442478 0.654891 0.0398747
H19 H 0.769389 0.611828 0.167077
H20 H 0.542736 0.698539 0.0407446
H21 H 0.643288 0.583667 0.0876506
H44 H 0.757293 0.6922 0.0308631
H53 H 0.945128 0.641041 0.213497
H59 H 0.995967 0.611703 0.131774
H61 H 0.876461 0.736761 0.107759
H63 H 0.757326 0.737199 0.24223
H70 H 0.836367 0.859692 0.290944
H73 H 0.853531 0.934507 0.298433
H74 H 0.818197 0.941055 0.0838664
H77 H 0.799758 0.866555 0.068874
C4 C 0.9432(7) 0.6220(3) 0.9933(6)
C5 C 0.8890(8) 0.6068(4) 0.9258(7)
C6 C 0.9228(8) 0.5908(4) 0.8796(7)
Co1 Co 0.28392(8) 0.42953(5) 0.66044(8)
O5 O 0.1669(3) 0.4252(2) 0.6027(3)
O9 O 0.2072(4) 0.4855(2) 0.6251(3)
O11 O 0.3398(4) 0.53040(19) 0.6903(4)
O13 O 0.2495(4) 0.5761(2) 0.8636(4)
O15 O 0.3167(4) 0.5460(2) 0.8113(4)
C7 C 0.3721(6) 0.6166(3) 0.9539(6)
C8 C 0.3793(6) 0.5855(3) 0.9107(6)
C9 C 0.4491(6) 0.5748(3) 0.9112(5)
C11 C 0.5155(5) 0.5912(3) 0.9607(5)
C13 C 0.3018(7) 0.5673(3) 0.8557(6)
O16 O 0.9995(6) 0.5589(3) 0.8041(6)
C42 C 0.1543(6) 0.4595(4) 0.5976(6)
C85 C 0.0763(6) 0.4751(3) 0.5497(5)
C86 C 0.0630(6) 0.5141(4) 0.5339(6)
C89 C 0.0156(7) 0.4480(3) 0.5282(6)
O26 O 0.3001(4) 0.37289(18) 0.6717(3)
O27 O 0.3106(4) 0.45872(18) 0.7575(3)
O30 O 0.3695(3) 0.45794(17) 0.6408(3)
O31 O 0.2803(4) 0.4317(2) 0.5451(3)
O34 O 0.1628(4) 0.4982(2) 0.7498(4)
O36 O 0.1420(4) 0.5023(2) 0.8463(4)
H2 H 0.827641 0.607062 0.909922
H3 H 0.317966 0.544371 0.643879
H4 H 0.377933 0.547286 0.727385
H6 H 0.570319 0.581506 0.963735
H9 H 0.450912 0.55369 0.872788
H11 H 0.317149 0.627173 0.949177
H16 H 0.885579 0.577148 0.829165
H35 H 0.811897 0.66636 0.951825
H38 H 0.108554 0.535556 0.556063
H47 H 0.0261142 0.41732 0.542052
O1 O 0.6999(4) 0.87289(18) 0.3283(3)
O4 O 0.5792(4) 0.87240(18) 0.3227(3)
C43 C 0.7005(5) 0.5473(3) 0.3464(5)
C44 C 0.8471(5) 0.5158(3) 0.4237(5)
C45 C 0.7864(6) 0.5020(3) 0.4368(5)
C46 C 0.7093(6) 0.5164(3) 0.3949(5)
C47 C 0.7561(6) 0.5591(3) 0.3307(5)
C48 C 0.8352(6) 0.5453(3) 0.3684(6)
C49 C 0.5879(5) 0.5456(3) 0.2275(5)
C50 C 0.5962(6) 0.5026(3) 0.1324(5)
C51 C 0.6295(6) 0.5204(3) 0.2017(6)
C52 C 0.5186(6) 0.5131(3) 0.0852(6)
C53 C 0.4716(6) 0.5395(3) 0.1071(6)
C54 C 0.5076(6) 0.5541(3) 0.1777(6)
C55 C 0.6260(5) 0.6055(3) 0.3010(4)
C56 C 0.5986(5) 0.6715(3) 0.2475(5)
C57 C 0.6409(5) 0.6886(3) 0.3101(5)
C58 C 0.6758(5) 0.6242(3) 0.3652(5)
C59 C 0.5903(5) 0.6301(3) 0.2412(5)
C60 C 0.6796(5) 0.6653(3) 0.3714(5)
C61 C 0.6216(5) 0.5624(3) 0.3040(5)
C65 C 0.4822(6) 0.4950(3) 0.0115(5)
C68 C 0.5659(5) 0.5516(3) 0.3369(5)
C69 C 0.4771(6) 0.5219(4) 0.4023(6)
C70 C 0.4884(6) 0.4990(3) 0.3551(6)
C71 C 0.5339(6) 0.5115(3) 0.3228(6)
C72 C 0.5491(5) 0.5742(3) 0.3809(5)
C73 C 0.5047(6) 0.5621(3) 0.4138(6)
C74 C 0.3719(5) 0.4737(3) 0.5283(5)
C75 C 0.4298(5) 0.4982(3) 0.5624(5)
C76 C 0.4366(7) 0.5062(3) 0.4482(6)
C77 C 0.3429(6) 0.4650(3) 0.4559(6)
C78 C 0.4646(6) 0.5126(3) 0.5225(6)
C79 C 0.3702(6) 0.4817(3) 0.4098(6)
C80 C 0.6395(6) 0.8111(3) 0.3231(5)
C81 C 0.7119(6) 0.7925(3) 0.3494(5)
C82 C 0.6453(6) 0.7314(3) 0.3181(5)
C83 C 0.5700(7) 0.7941(4) 0.2970(6)
C84 C 0.7130(6) 0.7517(3) 0.3486(5)
C87 C 0.9284(5) 0.5014(3) 0.4672(5)
C88 C 0.9870(6) 0.5250(3) 0.4873(5)
C90 C 0.9388(6) 0.4626(3) 0.4870(5)
C91 C 0.3372(7) 0.4535(3) 0.5720(6)
C92 C 0.6401(6) 0.8573(3) 0.3242(5)
C106 C 0.5749(8) 0.7516(4) 0.2929(7)
O21 O 0.5151(3) 0.41748(19) 0.6404(3)
O22 O 0.6213(4) 0.3832(2) 0.6707(4)
C110 C 0.5556(8) 0.3943(4) 0.6302(6)
C112 C 0.4414(7) 0.3219(3) 0.0171(6)
C113 C 0.4757(6) 0.3265(3) 0.0896(6)
C114 C 0.3611(5) 0.2909(3) 0.0910(5)
C116 C 0.3342(5) 0.2873(3) 0.0143(5)
C117 C 0.4339(7) 0.3130(3) 0.1246(6)
C123 C 0.3494(5) 0.2930(3) 0.2082(5)
C124 C 0.4538(6) 0.2934(3) 0.3276(6)
C125 C 0.4219(6) 0.2772(3) 0.2580(6)
C126 C 0.4159(6) 0.3210(3) 0.3465(5)
C127 C 0.3452(6) 0.3321(3) 0.3042(6)
C128 C 0.3137(6) 0.3191(3) 0.2332(6)
C129 C 0.3174(5) 0.2767(3) 0.1301(5)
C130 C 0.4501(5) 0.3357(2) 0.4243(3)
C131 C 0.5245(4) 0.32557(19) 0.4708(4)
C132 C 0.5599(3) 0.3433(2) 0.5373(4)
C133 C 0.5210(5) 0.3713(2) 0.5573(3)
C134 C 0.4467(5) 0.3815(2) 0.5109(5)
C135 C 0.4113(3) 0.3637(3) 0.4444(4)
C136 C 0.3471(5) 0.1517(3) 0.1635(5)
C137 C 0.3622(5) 0.2092(3) 0.1064(5)
C138 C 0.3231(5) 0.2313(3) 0.1352(5)
C139 C 0.3715(5) 0.1670(3) 0.1211(5)
C140 C 0.3083(6) 0.1758(4) 0.1976(6)
C141 C 0.2940(5) 0.2151(3) 0.1822(5)
C142 C 0.4430(5) 0.0514(3) 0.2071(5)
C143 C 0.3909(6) 0.0293(3) 0.2233(5)
C144 C 0.3236(6) 0.0452(3) 0.2207(5)
C145 C 0.3638(5) 0.1094(3) 0.1864(5)
C146 C 0.4304(5) 0.0921(3) 0.1876(5)
C147 C 0.3112(6) 0.0858(3) 0.2023(6)
C148 C 0.2362(6) 0.2905(3) 0.0859(5)
C149 C 0.2256(5) 0.3300(3) 0.0707(5)
C150 C 0.1489(6) 0.3452(3) 0.0291(5)
C151 C 0.0892(6) 0.3206(3) 0.0039(5)
C152 C 0.0982(6) 0.2824(4) 0.0171(6)
C153 C 0.1727(6) 0.2639(3) 0.0594(5)
C157 C 0.5404(7) 0.3702(4) 0.0063(7)
Co8 Co 0.71608(8) 0.92953(5) 0.33956(8)
Co15 Co 0.47069(8) 0.42362(4) 0.71285(8)
Co17 Co 0.52931(8) 0.92362(4) 0.28715(8)
Co19 Co 0.64996(9) 0.40875(5) 0.76436(9)
H23 H 0.571861 0.603679 0.391056
H25 H 0.689305 0.514483 0.236414
H26 H 0.881316 0.556011 0.356437
H27 H 0.474372 0.572625 0.196443
H29 H 0.660395 0.504029 0.400458
H30 H 0.461588 0.47044 0.342201
H31 H 0.2964 0.444043 0.433886
H32 H 0.51636 0.529826 0.549162
H33 H 0.344905 0.476958 0.3523
H34 H 0.796872 0.480431 0.47845
H36 H 0.976919 0.554713 0.467137
H37 H 0.490434 0.58179 0.447425
H40 H 0.742801 0.580109 0.28768
H41 H 0.712007 0.606545 0.410851
H42 H 0.54615 0.492165 0.28741
H43 H 0.44796 0.506127 0.618184
H45 H 0.413071 0.547124 0.0710101
H46 H 0.516573 0.810024 0.280877
H48 H 0.369132 0.494574 0.00636485
H49 H 0.628241 0.481949 0.116014
H50 H 0.767183 0.73615 0.372009
H51 H 0.889826 0.44324 0.4718
H52 H 0.764643 0.809301 0.369458
H54 H 0.712189 0.678877 0.423158
H55 H 0.555698 0.617304 0.189151
H57 H 0.587201 0.498696 0.000528821
H58 H 0.569777 0.689488 0.200184
H60 H 0.494341 0.0373201 0.209373
H62 H 0.456077 0.319035 0.181553
H67 H 0.555022 0.303723 0.455062
H68 H 0.416251 0.403402 0.526605
H69 H 0.312806 0.350626 0.323879
H71 H 0.531789 0.339816 0.117618
H72 H 0.3531 0.371696 0.407996
H75 H 0.522079 0.734904 0.269455
H78 H 0.509608 0.283539 0.366519
H79 H 0.61807 0.33528 0.573746
H80 H 0.399118 0.148977 0.0958142
H81 H 0.282861 0.0279584 0.231907
H82 H 0.470555 0.108647 0.174431
H83 H 0.259582 0.0994565 0.20024
H84 H 0.274516 0.349581 0.0898329
H85 H 0.258164 0.330369 0.196327
H86 H 0.450479 0.254087 0.242851
H89 H 0.386109 0.222741 0.073008
H91 H 0.290634 0.162298 0.235629
H93 H 0.26257 0.232535 0.20451
H96 H 0.140022 0.376269 0.0185086
H97 H 0.179176 0.232739 0.0697412
H99 H 0.555484 0.376636 0.0621888
O3 O 0.4229(3) 0.42965(18) 0.7817(3)
C62 C 0.4940(5) 0.4744(3) 0.9066(5)
C63 C 0.4138(6) 0.4671(3) 0.8762(5)
C64 C 0.3676(5) 0.4728(3) 0.9073(5)
C66 C 0.5272(5) 0.4903(3) 0.9758(5)
C67 C 0.4037(6) 0.4881(3) 0.9779(5)
C103 C 0.3814(6) 0.4502(3) 0.7996(5)
O20 O 0.5686(3) 0.39184(18) 0.7936(4)
O23 O 0.6462(5) 0.4205(3) 0.8939(4)
C111 C 0.5910(9) 0.3973(4) 0.8611(8)
C115 C 0.3709(5) 0.3013(3) 0.9794(5)
C118 C 0.4843(7) 0.3434(4) 0.9741(7)
C119 C 0.5012(7) 0.3540(4) 0.8689(6)
C120 C 0.5820(8) 0.3910(4) 0.9733(8)
C121 C 0.4613(8) 0.3298(4) 0.9056(8)
C122 C 0.5521(6) 0.3787(3) 0.8996(6)
C154 C 0.0082(8) 0.3356(4) 0.9518(7)
C155 C 0.0109(9) 0.3657(5) 0.9084(8)
O28 O 0.4208(4) 0.37240(18) 0.6773(3)
O37 O 0.5260(4) 0.47698(18) 0.7471(3)
O38 O 0.6454(4) 0.46853(19) 0.7600(3)
O41 O 0.7453(5) 0.3787(3) 0.8329(4)
H28 H 0.306735 0.4663 0.880971
H56 H 0.527983 0.467956 0.877552
H65 H 0.483761 0.349222 0.8121
H66 H 0.421564 0.305937 0.881359
H76 H 0.280531 0.272108 0.984243
H87 H 0.348107 0.297368 0.921807
H90 H 0.627538 0.412078 0.999344
H94 H 0.047647 0.263945 0.995372
H98 H 0.0650134 0.375398 0.909766
O18 O 0.4740(4) 0.97698(18) 0.2529(3)
O19 O 0.3546(4) 0.96853(19) 0.2400(3)
C156 C 0.4079(6) 0.9873(3) 0.2386(5)
Co20 Co 0.35004(9) 0.90875(5) 0.23564(9)
C107 C 0.8715(9) 0.3723(5) 0.8648(8)
C108 C 0.8706(8) 0.3407(5) 0.9100(8)
C109 C 0.9345(11) 0.3851(5) 0.8579(9)
C158 C 0.9474(9) 0.3198(4) 0.9633(8)
C159 C 0.7786(8) 0.3962(4) 0.8160(8)
O25 O 0.7903(7) 0.4129(4) 0.7745(8)
H64 H 0.931402 0.407446 0.819511
H88 H 0.816182 0.330851 0.907717
H100 H 0.803956 0.394364 0.745098
C107_2 C 0.1285(9) 0.8723(5) 0.1352(8)
C108_2 C 0.1294(8) 0.8407(5) 0.0900(8)
C109_2 C 0.0655(11) 0.8851(5) 0.1421(9)
C158_2 C 0.0526(9) 0.8198(4) 0.0367(8)
O24 O 0.2547(5) 0.8787(3) 0.1671(4)
C159_2 C 0.2214(8) 0.8962(4) 0.1840(8)
O25_2 O 0.2097(7) 0.9129(4) 0.2255(8)
H64_2 H 0.0685978 0.907446 0.180489
H88_2 H 0.183818 0.830851 0.0922833
H100_2 H 0.196044 0.894364 0.254902
C43_2 C 0.2995(5) 0.0473(3) 0.6536(5)
C44_2 C 0.1529(5) 0.0158(3) 0.5763(5)
C45_2 C 0.2136(6) 0.0020(3) 0.5632(5)
C46_2 C 0.2907(6) 0.0164(3) 0.6051(5)
C47_2 C 0.2439(6) 0.0591(3) 0.6693(5)
C48_2 C 0.1648(6) 0.0453(3) 0.6316(6)
C49_2 C 0.4121(5) 0.0456(3) 0.7725(5)
C50_2 C 0.4038(6) 0.0026(3) 0.8676(5)
C51_2 C 0.3705(6) 0.0204(3) 0.7983(6)
C52_2 C 0.4814(6) 0.0131(3) 0.9148(6)
C53_2 C 0.5284(6) 0.0395(3) 0.8929(6)
C54_2 C 0.4924(6) 0.0541(3) 0.8223(6)
C55_2 C 0.3740(5) 0.1055(3) 0.6990(4)
C56_2 C 0.4014(5) 0.1715(3) 0.7525(5)
C57_2 C 0.3591(5) 0.1886(3) 0.6899(5)
C58_2 C 0.3242(5) 0.1242(3) 0.6348(5)
C59_2 C 0.4097(5) 0.1301(3) 0.7588(5)
C60_2 C 0.3204(5) 0.1653(3) 0.6286(5)
C61_2 C 0.3784(5) 0.0624(3) 0.6960(5)
C68_2 C 0.4341(5) 0.0516(3) 0.6631(5)
C69_2 C 0.5229(6) 0.0219(4) 0.5977(6)
C71_2 C 0.4661(6) 0.0115(3) 0.6772(6)
C72_2 C 0.4509(5) 0.0742(3) 0.6191(5)
C73_2 C 0.4953(6) 0.0621(3) 0.5862(6)
C76_2 C 0.5634(7) 0.0062(3) 0.5518(6)
C78_2 C 0.5354(6) 0.0126(3) 0.4775(6)
C80_2 C 0.3605(6) 0.3111(3) 0.6769(5)
C81_2 C 0.2881(6) 0.2925(3) 0.6506(5)
C82_2 C 0.3547(6) 0.2314(3) 0.6819(5)
C83_2 C 0.4300(7) 0.2941(4) 0.7030(6)
C84_2 C 0.2870(6) 0.2517(3) 0.6514(5)
C87_2 C 0.0716(5) 0.0014(3) 0.5328(5)
C88_2 C 0.0130(6) 0.0250(3) 0.5127(5)
C92_2 C 0.3599(6) 0.3573(3) 0.6758(5)
C106_2 C 0.4251(8) 0.2516(4) 0.7071(7)
H23_2 H 0.428139 0.103679 0.608944
H25_2 H 0.310695 0.0144833 0.763586
H26_2 H 0.118684 0.0560107 0.643563
H27_2 H 0.525628 0.0726249 0.803557
H29_2 H 0.339605 0.00402871 0.599542
H32_2 H 0.48364 0.0298258 0.450838
H36_2 H 0.0230807 0.0547127 0.532863
H37_2 H 0.509566 0.08179 0.552575
H40_2 H 0.257199 0.0801089 0.71232
H41_2 H 0.287993 0.106545 0.589149
H43_2 H 0.55204 0.00612736 0.381816
H45_2 H 0.586929 0.0471244 0.92899
H46_2 H 0.483427 0.310024 0.719123
H50_2 H 0.232817 0.23615 0.627991
H52_2 H 0.235357 0.309301 0.630542
H54_2 H 0.287811 0.178877 0.576842
H55_2 H 0.444302 0.117304 0.810849
H58_2 H 0.430223 0.189488 0.799816
H75_2 H 0.477921 0.234904 0.730545
O2 O 0.6894(4) 0.95872(18) 0.2425(3)
O3_2 O 0.5771(3) 0.92965(18) 0.2183(3)
C62_2 C 0.5060(5) 0.9744(3) 0.0934(5)
C63_2 C 0.5862(6) 0.9671(3) 0.1238(5)
C64_2 C 0.6324(5) 0.9728(3) 0.0927(5)
C66_2 C 0.4728(5) 0.9903(3) 0.0242(5)
C67_2 C 0.5963(6) 0.9881(3) 0.0221(5)
C103_2 C 0.6186(6) 0.9502(3) 0.2004(5)
O20_2 O 0.4314(3) 0.89184(18) 0.2064(4)
O23_2 O 0.3538(5) 0.9205(3) 0.1061(4)
C111_2 C 0.4090(9) 0.8973(4) 0.1389(8)
C115_2 C 0.6291(5) 0.8013(3) 0.0206(5)
C118_2 C 0.5157(7) 0.8434(4) 0.0259(7)
C119_2 C 0.4988(7) 0.8540(4) 0.1311(6)
C120_2 C 0.4180(8) 0.8910(4) 0.0267(8)
C121_2 C 0.5387(8) 0.8298(4) 0.0944(8)
C122_2 C 0.4479(6) 0.8787(3) 0.1004(6)
C154_2 C 0.9918(8) 0.8356(4) 0.0482(7)
C155_2 C 0.9891(9) 0.8657(5) 0.0916(8)
O29 O 0.6305(3) 0.95794(17) 0.3592(3)
O39 O 0.4849(3) 0.91748(19) 0.3596(3)
O40 O 0.3787(4) 0.8832(2) 0.3293(4)
H28_2 H 0.693265 0.9663 0.119029
H56_2 H 0.472017 0.967956 0.122448
H65_2 H 0.516239 0.849222 0.1879
H66_2 H 0.578436 0.805937 0.118641
H76_2 H 0.719469 0.772108 0.0157571
H87_2 H 0.651893 0.797368 0.0781925
H90_2 H 0.372462 0.912078 0.000656417
H94_2 H 0.952353 0.763945 0.0046283
H98_2 H 0.934987 0.875398 0.0902335
O7 O 0.7197(4) 0.9317(2) 0.4549(3)
C65_2 C 0.5178(6) 0.9950(3) 0.9885(5)
C70_2 C 0.5116(6) 0.9990(3) 0.6449(6)
C74_2 C 0.6281(5) 0.9737(3) 0.4717(5)
C75_2 C 0.5702(5) 0.9982(3) 0.4376(5)
C77_2 C 0.6571(6) 0.9650(3) 0.5441(6)
C79_2 C 0.6298(6) 0.9817(3) 0.5902(6)
C90_2 C 0.0612(6) 0.9626(3) 0.5130(5)
C91_2 C 0.6628(7) 0.9535(3) 0.4280(6)
C110_2 C 0.4444(8) 0.8943(4) 0.3698(6)
C112_2 C 0.5586(7) 0.8219(3) 0.9829(6)
C113_2 C 0.5243(6) 0.8265(3) 0.9104(6)
C114_2 C 0.6389(5) 0.7909(3) 0.9090(5)
C116_2 C 0.6658(5) 0.7873(3) 0.9857(5)
C117_2 C 0.5661(7) 0.8130(3) 0.8754(6)
C123_2 C 0.6506(5) 0.7930(3) 0.7918(5)
C124_2 C 0.5462(6) 0.7934(3) 0.6724(6)
C125_2 C 0.5781(6) 0.7772(3) 0.7420(6)
C126_2 C 0.5841(6) 0.8210(3) 0.6535(5)
C127_2 C 0.6548(6) 0.8321(3) 0.6958(6)
C128_2 C 0.6863(6) 0.8191(3) 0.7668(6)
C129_2 C 0.6826(5) 0.7767(3) 0.8699(5)
C130_2 C 0.5499(5) 0.8357(2) 0.5757(3)
C131_2 C 0.4755(4) 0.82557(19) 0.5292(4)
C132_2 C 0.4401(3) 0.8433(2) 0.4627(4)
C133_2 C 0.4790(5) 0.8713(2) 0.4427(3)
C134_2 C 0.5533(5) 0.8815(2) 0.4891(5)
C135_2 C 0.5887(3) 0.8637(3) 0.5556(4)
C136_2 C 0.6529(5) 0.6517(3) 0.8365(5)
C137_2 C 0.6378(5) 0.7092(3) 0.8936(5)
C138_2 C 0.6769(5) 0.7313(3) 0.8648(5)
C139_2 C 0.6285(5) 0.6670(3) 0.8789(5)
C140_2 C 0.6917(6) 0.6758(4) 0.8024(6)
C141_2 C 0.7060(5) 0.7151(3) 0.8178(5)
C142_2 C 0.5570(5) 0.5514(3) 0.7929(5)
C143_2 C 0.6091(6) 0.5293(3) 0.7767(5)
C144_2 C 0.6764(6) 0.5452(3) 0.7793(5)
C145_2 C 0.6362(5) 0.6094(3) 0.8136(5)
C146_2 C 0.5696(5) 0.5921(3) 0.8124(5)
C147_2 C 0.6888(6) 0.5858(3) 0.7977(6)
C148_2 C 0.7638(6) 0.7905(3) 0.9141(5)
C149_2 C 0.7744(5) 0.8300(3) 0.9293(5)
C150_2 C 0.8511(6) 0.8452(3) 0.9709(5)
C151_2 C 0.9108(6) 0.8206(3) 0.9961(5)
C152_2 C 0.9018(6) 0.7824(4) 0.9829(6)
C153_2 C 0.8273(6) 0.7639(3) 0.9406(5)
C156_2 C 0.5921(6) 0.4873(3) 0.7614(5)
C157_2 C 0.4596(7) 0.8702(4) 0.9937(7)
H30_2 H 0.538412 0.97044 0.657799
H31_2 H 0.7036 0.944043 0.566114
H33_2 H 0.655095 0.976958 0.6477
H34_2 H 0.203128 0.980431 0.52155
H42_2 H 0.45385 0.992165 0.71259
H48_2 H 0.630868 0.994574 0.993635
H49_2 H 0.371759 0.981949 0.883986
H51_2 H 0.110174 0.94324 0.5282
H57_2 H 0.412799 0.998696 0.999471
H60_2 H 0.505659 0.53732 0.790627
H62_2 H 0.543923 0.819035 0.818447
H67_2 H 0.444978 0.803723 0.544938
H68_2 H 0.583749 0.903402 0.473395
H69_2 H 0.687194 0.850626 0.676121
H71_2 H 0.468211 0.839816 0.882382
H72_2 H 0.6469 0.871696 0.592004
H78_2 H 0.490392 0.783539 0.633481
H79_2 H 0.38193 0.83528 0.426254
H80_2 H 0.600882 0.648977 0.904186
H81_2 H 0.717139 0.527958 0.768093
H82_2 H 0.529445 0.608647 0.825569
H83_2 H 0.740418 0.599457 0.79976
H84_2 H 0.725484 0.849581 0.910167
H85_2 H 0.741836 0.830369 0.803673
H86_2 H 0.549521 0.754087 0.757149
H89_2 H 0.613891 0.722741 0.926992
H91_2 H 0.709366 0.662298 0.764371
H93_2 H 0.73743 0.732535 0.79549
H96_2 H 0.859978 0.876269 0.981491
H97_2 H 0.820824 0.732739 0.930259
H99_2 H 0.444516 0.876636 0.937811
C1_2 C 0.1823(6) 0.3157(3) 0.8214(5)
C2_2 C 0.2200(5) 0.2940(3) 0.7867(5)
C3_2 C 0.1512(6) 0.2964(3) 0.8620(6)
C10_2 C 0.4866(6) 0.1202(3) 0.9928(5)
C12_2 C 0.5569(7) 0.1323(3) 0.9967(6)
C14_2 C 0.3340(6) 0.1976(3) 0.8926(5)
C15_2 C 0.2694(5) 0.1730(3) 0.8589(5)
C16_2 C 0.4133(5) 0.1386(3) 0.9406(5)
C17_2 C 0.2788(5) 0.1308(3) 0.8630(5)
C18_2 C 0.4068(5) 0.1803(3) 0.9335(5)
C19_2 C 0.3504(6) 0.1151(3) 0.9060(5)
C20_2 C 0.1892(5) 0.1904(3) 0.8261(5)
C21_2 C 0.1763(5) 0.1587(3) 0.7047(5)
C22_2 C 0.1424(5) 0.1773(3) 0.7418(5)
C23_2 C 0.0691(6) 0.1913(3) 0.7104(6)
C24_2 C 0.1317(5) 0.1476(3) 0.6335(5)
C27_2 C 0.0214(5) 0.1795(3) 0.6369(5)
C29_2 C 0.0572(6) 0.1581(3) 0.6003(5)
C31_2 C 0.0359(6) 0.1398(3) 0.4765(6)
C32_2 C 0.0073(6) 0.1440(3) 0.5283(5)
C33_2 C 0.1512(6) 0.1727(3) 0.8702(6)
C34_2 C 0.1594(6) 0.1610(3) 0.9909(6)
C35_2 C 0.0836(6) 0.1472(3) 0.8435(6)
C36_2 C 0.0919(6) 0.1382(3) 0.9617(6)
C37_2 C 0.1887(6) 0.1765(3) 0.9456(6)
C38_2 C 0.0544(6) 0.1303(3) 0.8894(6)
C94_2 C 0.2189(6) 0.2539(3) 0.7881(5)
C95_2 C 0.1877(5) 0.2350(3) 0.8279(5)
C96_2 C 0.1507(5) 0.2530(3) 0.8643(5)
C97_2 C 0.1565(7) 0.4837(4) 0.8013(7)
C98_2 C 0.1779(5) 0.3592(3) 0.8179(5)
C99_2 C 0.1786(6) 0.4228(4) 0.8720(6)
C100_2 C 0.1873(5) 0.3808(3) 0.8803(5)
C101_2 C 0.1587(5) 0.4191(3) 0.7512(6)
C102_2 C 0.1666(5) 0.4385(3) 0.8091(6)
C105_2 C 0.1666(6) 0.3766(4) 0.7546(6)
H1_2 H 0.0935325 0.149286 0.487578
H5_2 H 0.249284 0.309095 0.759442
H7_2 H 0.0472875 0.210486 0.739173
H8_2 H 0.237329 0.152527 0.730057
H10_2 H 0.157088 0.130527 0.604977
H12_2 H 0.328047 0.229087 0.887304
H14_2 H 0.00720177 0.121373 0.367034
H15_2 H 0.12718 0.31308 0.89215
H18_2 H 0.557522 0.154891 0.960125
H19_2 H 0.230611 0.111828 0.832923
H20_2 H 0.457264 0.198539 0.959255
H21_2 H 0.356712 0.083667 0.912349
H44_2 H 0.242707 0.1922 0.969137
H53_2 H 0.0548722 0.141041 0.786503
H59_2 H 0.00403255 0.111703 0.868226
H61_2 H 0.123539 0.236761 0.892241
H63_2 H 0.242674 0.237199 0.75777
H70_2 H 0.163633 0.359692 0.709056
H73_2 H 0.146469 0.434507 0.701567
H74_2 H 0.181803 0.441055 0.916134
H77_2 H 0.200242 0.366555 0.931126
O5_2 O 0.8331(3) 0.9252(2) 0.3973(3)
O9_2 O 0.7928(4) 0.9855(2) 0.3749(3)
C42_2 C 0.8457(6) 0.9595(4) 0.4024(6)
C85_2 C 0.9237(6) 0.9751(3) 0.4503(5)
C89_2 C 0.9844(7) 0.9480(3) 0.4718(6)
H47_2 H 0.973886 0.91732 0.457948
O17 O 0.8580(4) 0.0023(2) 0.1537(4)
Co11 Co 0.85774(9) 0.05636(5) 0.19140(9)
Co14 Co 0.75011(9) 0.01614(5) 0.27923(8)
C4_2 C 0.0568(7) 0.1220(3) 0.0067(6)
C5_2 C 0.1110(8) 0.1068(4) 0.0742(7)
C6_2 C 0.0772(8) 0.0908(4) 0.1204(7)
O11_2 O 0.6602(4) 0.03040(19) 0.3097(4)
O13_2 O 0.7505(4) 0.0761(2) 0.1364(4)
O15_2 O 0.6833(4) 0.0460(2) 0.1887(4)
C7_2 C 0.6279(6) 0.1166(3) 0.0461(6)
C8_2 C 0.6207(6) 0.0855(3) 0.0893(6)
C9_2 C 0.5509(6) 0.0748(3) 0.0888(5)
C11_2 C 0.4845(5) 0.0912(3) 0.0393(5)
C13_2 C 0.6982(7) 0.0673(3) 0.1443(6)
O16_2 O 0.0005(6) 0.0589(3) 0.1959(6)
C86_2 C 0.9370(6) 0.0141(4) 0.4661(6)
O32 O 0.9036(4) 0.0815(2) 0.2879(4)
O33 O 0.8129(4) 0.06596(19) 0.3266(3)
O35 O 0.8925(5) 0.0866(2) 0.1278(4)
H2_2 H 0.172359 0.107062 0.0900779
H3_2 H 0.682034 0.0443707 0.356121
H4_2 H 0.622067 0.0472859 0.272615
H6_2 H 0.429681 0.0815062 0.0362648
H9_2 H 0.549088 0.0536899 0.127212
H11_2 H 0.682851 0.127173 0.0508229
H16_2 H 0.114421 0.0771477 0.170835
H35_2 H 0.188103 0.16636 0.0481755
H38_2 H 0.891446 0.0355565 0.443937
C39_2 C 0.9463(9) 0.1062(5) 0.0326(9)
C40_2 C 0.9967(8) 0.0928(4) 0.1005(7)
C41_2 C 0.9505(10) 0.0772(4) 0.1447(8)
H24_2 H 0.981507 0.0323391 0.198161
H39_2 H 0.884593 0.104955 0.0143085
C25_2 C 0.9158(6) 0.1079(3) 0.3948(5)
C26_2 C 0.9335(6) 0.1319(3) 0.5120(5)
C28_2 C 0.9872(6) 0.1227(3) 0.4087(6)
C30_2 C 0.8841(6) 0.1132(3) 0.4439(6)
C93_2 C 0.8683(6) 0.0822(3) 0.3274(6)
C104_2 C 0.9805(9) 0.1219(4) 0.9876(7)
H13_2 H 0.911034 0.136437 0.551389
H17_2 H 0.960835 0.186706 0.610871
H22_2 H 0.826143 0.103949 0.432068
H92_2 H 0.942762 0.134177 0.935979
H95 H 0.952029 0.297252 0.00185153
H95_2 H 0.0479711 0.797252 0.998148
loop_
_geom_bond_atom_site_label_1
_geom_bond_atom_site_label_2
_geom_bond_site_symmetry_1
_geom_bond_site_symmetry_2
O8 C93 1_555 1_555
O10 C93 1_555 1_555
C25 C28 1_555 1_555
C26 C30 1_555 1_555
C30 C25 1_555 1_555
C93 C25 1_555 1_555
Co10 O8 1_555 1_555
Co13 O10 1_555 1_555
C26 H13 1_555 1_555
C30 H22 1_555 1_555
C104 H92 1_555 1_555
O14 C41 1_555 1_555
C39 C40 1_555 1_555
C40 C41 1_555 1_555
Co10 O14 1_555 1_555
C39 H39 1_555 1_555
C1 C2 1_555 1_555
C2 C94 1_555 1_555
C3 C1 1_555 1_555
O12 C97 1_555 1_555
C14 C15 1_555 1_555
C15 C17 1_555 1_555
C16 C10 1_555 1_555
C17 C19 1_555 1_555
C18 C14 1_555 1_555
C19 C16 1_555 1_555
C20 C15 1_555 1_555
C21 C22 1_555 1_555
C22 C20 1_555 1_555
C23 C22 1_555 1_555
C24 C21 1_555 1_555
C27 C23 1_555 1_555
C29 C24 1_555 1_555
C31 C32 1_555 1_555
C33 C20 1_555 1_555
C34 C36 1_555 1_555
C35 C33 1_555 1_555
C37 C33 1_555 1_555
C38 C35 1_555 1_555
C94 C95 1_555 1_555
C95 C20 1_555 1_555
C96 C3 1_555 1_555
C97 C102 1_555 1_555
C98 C1 1_555 1_555
C99 C100 1_555 1_555
C100 C98 1_555 1_555
C101 C102 1_555 1_555
C102 C99 1_555 1_555
C105 C98 1_555 1_555
C10 C12 1_555 1_555
C16 C18 1_555 1_555
C27 C29 1_555 1_555
C29 C32 1_555 1_555
C34 C37 1_555 1_555
C36 C38 1_555 1_555
C95 C96 1_555 1_555
C101 C105 1_555 1_555
C31 H1 1_555 1_555
C2 H5 1_555 1_555
C23 H7 1_555 1_555
C21 H8 1_555 1_555
C24 H10 1_555 1_555
C14 H12 1_555 1_555
C3 H15 1_555 1_555
C12 H18 1_555 1_555
C17 H19 1_555 1_555
C18 H20 1_555 1_555
C19 H21 1_555 1_555
C37 H44 1_555 1_555
C35 H53 1_555 1_555
C38 H59 1_555 1_555
C96 H61 1_555 1_555
C94 H63 1_555 1_555
C105 H70 1_555 1_555
C101 H73 1_555 1_555
C99 H74 1_555 1_555
C100 H77 1_555 1_555
C4 C5 1_555 1_555
C5 C6 1_555 1_555
Co1 O5 1_555 1_555
Co10 O13 1_555 1_555
Co13 O9 1_555 1_555
O5 C42 1_555 1_555
O9 Co1 1_555 1_555
O11 Co13 1_555 1_555
O13 C13 1_555 1_555
O15 Co13 1_555 1_555
C7 C8 1_555 1_555
C8 C9 1_555 1_555
C9 C11 1_555 1_555
C13 O15 1_555 1_555
C42 O9 1_555 1_555
C85 C42 1_555 1_555
C86 C85 1_555 1_555
C89 C85 1_555 1_555
O26 Co1 1_555 1_555
O27 Co1 1_555 1_555
O30 Co1 1_555 1_555
O31 Co1 1_555 1_555
O34 Co13 1_555 1_555
O36 Co10 1_555 1_555
Co13 O27 1_555 1_555
C8 C13 1_555 1_555
C5 H2 1_555 1_555
O11 H3 1_555 1_555
O11 H4 1_555 1_555
C11 H6 1_555 1_555
C9 H9 1_555 1_555
C7 H11 1_555 1_555
C6 H16 1_555 1_555
C86 H38 1_555 1_555
C89 H47 1_555 1_555
O1 C92 1_555 1_555
O4 C92 1_555 1_555
O30 C91 1_555 1_555
O31 C91 1_555 1_555
C43 C46 1_555 1_555
C44 C45 1_555 1_555
C45 C46 1_555 1_555
C47 C43 1_555 1_555
C48 C44 1_555 1_555
C49 C51 1_555 1_555
C50 C51 1_555 1_555
C52 C50 1_555 1_555
C53 C52 1_555 1_555
C54 C49 1_555 1_555
C55 C58 1_555 1_555
C56 C57 1_555 1_555
C57 C60 1_555 1_555
C58 C60 1_555 1_555
C59 C55 1_555 1_555
C61 C43 1_555 1_555
C65 C52 1_555 1_555
C68 C61 1_555 1_555
C69 C70 1_555 1_555
C70 C71 1_555 1_555
C71 C68 1_555 1_555
C72 C68 1_555 1_555
C73 C69 1_555 1_555
C74 C75 1_555 1_555
C75 C78 1_555 1_555
C76 C69 1_555 1_555
C77 C74 1_555 1_555
C78 C76 1_555 1_555
C79 C76 1_555 1_555
C80 C81 1_555 1_555
C81 C84 1_555 1_555
C82 C57 1_555 1_555
C83 C80 1_555 1_555
C84 C82 1_555 1_555
C87 C44 1_555 1_555
C90 C87 1_555 1_555
C91 C74 1_555 1_555
C92 C80 1_555 1_555
C106 C82 1_555 1_555
O21 C110 1_555 1_555
O22 C110 1_555 1_555
C110 C133 1_555 1_555
C112 C113 1_555 1_555
C113 C117 1_555 1_555
C114 C116 1_555 1_555
C117 C114 1_555 1_555
C123 C125 1_555 1_555
C124 C125 1_555 1_555
C126 C124 1_555 1_555
C127 C126 1_555 1_555
C128 C123 1_555 1_555
C129 C114 1_555 1_555
C130 C126 1_555 1_555
C131 C130 1_555 1_555
C132 C131 1_555 1_555
C133 C132 1_555 1_555
C134 C133 1_555 1_555
C135 C130 1_555 1_555
C136 C139 1_555 1_555
C137 C138 1_555 1_555
C138 C129 1_555 1_555
C139 C137 1_555 1_555
C140 C136 1_555 1_555
C141 C138 1_555 1_555
C142 C143 1_555 1_555
C143 C144 1_555 1_555
C144 C147 1_555 1_555
C145 C136 1_555 1_555
C146 C142 1_555 1_555
C147 C145 1_555 1_555
C148 C129 1_555 1_555
C149 C148 1_555 1_555
C150 C149 1_555 1_555
C151 C150 1_555 1_555
C152 C151 1_555 1_555
C153 C148 1_555 1_555
Co8 O1 1_555 1_555
Co15 O30 1_555 1_555
Co17 O4 1_555 1_555
Co19 O22 1_555 1_555
C47 C48 1_555 1_555
C49 C61 1_555 1_555
C53 C54 1_555 1_555
C55 C61 1_555 1_555
C56 C59 1_555 1_555
C72 C73 1_555 1_555
C77 C79 1_555 1_555
C83 C106 1_555 1_555
C87 C88 1_555 1_555
O21 Co15 1_555 1_555
C123 C129 1_555 1_555
C127 C128 1_555 1_555
C134 C135 1_555 1_555
C140 C141 1_555 1_555
C145 C146 1_555 1_555
C152 C153 1_555 1_555
C72 H23 1_555 1_555
C51 H25 1_555 1_555
C48 H26 1_555 1_555
C54 H27 1_555 1_555
C46 H29 1_555 1_555
C70 H30 1_555 1_555
C77 H31 1_555 1_555
C78 H32 1_555 1_555
C79 H33 1_555 1_555
C45 H34 1_555 1_555
C88 H36 1_555 1_555
C73 H37 1_555 1_555
C47 H40 1_555 1_555
C58 H41 1_555 1_555
C71 H42 1_555 1_555
C75 H43 1_555 1_555
C53 H45 1_555 1_555
C83 H46 1_555 1_555
C50 H49 1_555 1_555
C84 H50 1_555 1_555
C90 H51 1_555 1_555
C81 H52 1_555 1_555
C60 H54 1_555 1_555
C59 H55 1_555 1_555
C56 H58 1_555 1_555
C142 H60 1_555 1_555
C117 H62 1_555 1_555
C131 H67 1_555 1_555
C134 H68 1_555 1_555
C127 H69 1_555 1_555
C113 H71 1_555 1_555
C135 H72 1_555 1_555
C106 H75 1_555 1_555
C124 H78 1_555 1_555
C132 H79 1_555 1_555
C139 H80 1_555 1_555
C144 H81 1_555 1_555
C146 H82 1_555 1_555
C147 H83 1_555 1_555
C149 H84 1_555 1_555
C128 H85 1_555 1_555
C125 H86 1_555 1_555
C137 H89 1_555 1_555
C140 H91 1_555 1_555
C141 H93 1_555 1_555
C150 H96 1_555 1_555
C153 H97 1_555 1_555
C157 H99 1_555 1_555
O27 C103 1_555 1_555
O3 C103 1_555 1_555
C62 C63 1_555 1_555
C63 C64 1_555 1_555
C64 C67 1_555 1_555
C66 C62 1_555 1_555
C103 C63 1_555 1_555
Co15 O3 1_555 1_555
Co19 O20 1_555 1_555
O20 Co15 1_555 1_555
O23 C111 1_555 1_555
C111 O20 1_555 1_555
C119 C121 1_555 1_555
C120 C122 1_555 1_555
C121 C118 1_555 1_555
C122 C111 1_555 1_555
O28 Co15 1_555 1_555
O37 Co15 1_555 1_555
O38 Co19 1_555 1_555
O41 Co19 1_555 1_555
C119 C122 1_555 1_555
C154 C155 1_555 1_555
C64 H28 1_555 1_555
C62 H56 1_555 1_555
C119 H65 1_555 1_555
C121 H66 1_555 1_555
C115 H87 1_555 1_555
C120 H90 1_555 1_555
C155 H98 1_555 1_555
O18 C156 1_555 1_555
O19 C156 1_555 1_555
Co17 O18 1_555 1_555
Co20 O19 1_555 1_555
C107 C108 1_555 1_555
C108 C158 1_555 1_555
C109 C107 1_555 1_555
O41 C159 1_555 1_555
C159 C107 1_555 1_555
O25 C159 1_555 1_555
C109 H64 1_555 1_555
C108 H88 1_555 1_555
O25 H100 1_555 1_555
C107_2 C108_2 1_555 1_555
C108_2 C158_2 1_555 1_555
C109_2 C107_2 1_555 1_555
O24 C159_2 1_555 1_555
C159_2 C107_2 1_555 1_555
O25_2 C159_2 1_555 1_555
Co20 O24 1_555 1_555
C109_2 H64_2 1_555 1_555
C108_2 H88_2 1_555 1_555
O25_2 H100_2 1_555 1_555
O26 C92_2 1_555 1_555
O28 C92_2 1_555 1_555
C43_2 C46_2 1_555 1_555
C44_2 C45_2 1_555 1_555
C45_2 C46_2 1_555 1_555
C47_2 C43_2 1_555 1_555
C48_2 C44_2 1_555 1_555
C49_2 C51_2 1_555 1_555
C50_2 C51_2 1_555 1_555
C52_2 C50_2 1_555 1_555
C53_2 C52_2 1_555 1_555
C54_2 C49_2 1_555 1_555
C55_2 C58_2 1_555 1_555
C56_2 C57_2 1_555 1_555
C57_2 C60_2 1_555 1_555
C58_2 C60_2 1_555 1_555
C59_2 C55_2 1_555 1_555
C61_2 C43_2 1_555 1_555
C68_2 C61_2 1_555 1_555
C71_2 C68_2 1_555 1_555
C72_2 C68_2 1_555 1_555
C73_2 C69_2 1_555 1_555
C76_2 C69_2 1_555 1_555
C78_2 C76_2 1_555 1_555
C80_2 C81_2 1_555 1_555
C81_2 C84_2 1_555 1_555
C82_2 C57_2 1_555 1_555
C83_2 C80_2 1_555 1_555
C84_2 C82_2 1_555 1_555
C87_2 C44_2 1_555 1_555
C92_2 C80_2 1_555 1_555
C106_2 C82_2 1_555 1_555
C47_2 C48_2 1_555 1_555
C49_2 C61_2 1_555 1_555
C53_2 C54_2 1_555 1_555
C55_2 C61_2 1_555 1_555
C56_2 C59_2 1_555 1_555
C72_2 C73_2 1_555 1_555
C83_2 C106_2 1_555 1_555
C87_2 C88_2 1_555 1_555
C72_2 H23_2 1_555 1_555
C51_2 H25_2 1_555 1_555
C48_2 H26_2 1_555 1_555
C54_2 H27_2 1_555 1_555
C46_2 H29_2 1_555 1_555
C78_2 H32_2 1_555 1_555
C88_2 H36_2 1_555 1_555
C73_2 H37_2 1_555 1_555
C47_2 H40_2 1_555 1_555
C58_2 H41_2 1_555 1_555
C53_2 H45_2 1_555 1_555
C83_2 H46_2 1_555 1_555
C84_2 H50_2 1_555 1_555
C81_2 H52_2 1_555 1_555
C60_2 H54_2 1_555 1_555
C59_2 H55_2 1_555 1_555
C56_2 H58_2 1_555 1_555
C106_2 H75_2 1_555 1_555
O2 C103_2 1_555 1_555
O3_2 C103_2 1_555 1_555
C62_2 C63_2 1_555 1_555
C63_2 C64_2 1_555 1_555
C64_2 C67_2 1_555 1_555
C66_2 C62_2 1_555 1_555
C103_2 C63_2 1_555 1_555
Co17 O3_2 1_555 1_555
Co20 O20_2 1_555 1_555
O20_2 Co17 1_555 1_555
O23_2 C111_2 1_555 1_555
C111_2 O20_2 1_555 1_555
C119_2 C121_2 1_555 1_555
C120_2 C122_2 1_555 1_555
C121_2 C118_2 1_555 1_555
C122_2 C111_2 1_555 1_555
Co8 O2 1_555 1_555
O29 Co17 1_555 1_555
O39 Co17 1_555 1_555
O40 Co20 1_555 1_555
C119_2 C122_2 1_555 1_555
C154_2 C155_2 1_555 1_555
Co8 O29 1_555 1_555
C64_2 H28_2 1_555 1_555
C62_2 H56_2 1_555 1_555
C119_2 H65_2 1_555 1_555
C121_2 H66_2 1_555 1_555
C115_2 H87_2 1_555 1_555
C120_2 H90_2 1_555 1_555
C155_2 H98_2 1_555 1_555
O29 C91_2 1_555 1_555
O7 C91_2 1_555 1_555
C74_2 C75_2 1_555 1_555
C77_2 C74_2 1_555 1_555
C91_2 C74_2 1_555 1_555
O37 C156_2 1_555 1_555
O38 C156_2 1_555 1_555
O39 C110_2 1_555 1_555
O40 C110_2 1_555 1_555
C110_2 C133_2 1_555 1_555
C112_2 C113_2 1_555 1_555
C113_2 C117_2 1_555 1_555
C114_2 C116_2 1_555 1_555
C117_2 C114_2 1_555 1_555
C123_2 C125_2 1_555 1_555
C124_2 C125_2 1_555 1_555
C126_2 C124_2 1_555 1_555
C127_2 C126_2 1_555 1_555
C128_2 C123_2 1_555 1_555
C129_2 C114_2 1_555 1_555
C130_2 C126_2 1_555 1_555
C131_2 C130_2 1_555 1_555
C132_2 C131_2 1_555 1_555
C133_2 C132_2 1_555 1_555
C134_2 C133_2 1_555 1_555
C135_2 C130_2 1_555 1_555
C136_2 C139_2 1_555 1_555
C137_2 C138_2 1_555 1_555
C138_2 C129_2 1_555 1_555
C139_2 C137_2 1_555 1_555
C140_2 C136_2 1_555 1_555
C141_2 C138_2 1_555 1_555
C142_2 C143_2 1_555 1_555
C143_2 C144_2 1_555 1_555
C144_2 C147_2 1_555 1_555
C145_2 C136_2 1_555 1_555
C146_2 C142_2 1_555 1_555
C147_2 C145_2 1_555 1_555
C148_2 C129_2 1_555 1_555
C149_2 C148_2 1_555 1_555
C150_2 C149_2 1_555 1_555
C151_2 C150_2 1_555 1_555
C152_2 C151_2 1_555 1_555
C153_2 C148_2 1_555 1_555
C156_2 C143_2 1_555 1_555
O7 Co8 1_555 1_555
C77_2 C79_2 1_555 1_555
C123_2 C129_2 1_555 1_555
C127_2 C128_2 1_555 1_555
C134_2 C135_2 1_555 1_555
C140_2 C141_2 1_555 1_555
C145_2 C146_2 1_555 1_555
C152_2 C153_2 1_555 1_555
C70_2 H30_2 1_555 1_555
C77_2 H31_2 1_555 1_555
C79_2 H33_2 1_555 1_555
C90_2 H51_2 1_555 1_555
C142_2 H60_2 1_555 1_555
C117_2 H62_2 1_555 1_555
C131_2 H67_2 1_555 1_555
C134_2 H68_2 1_555 1_555
C127_2 H69_2 1_555 1_555
C113_2 H71_2 1_555 1_555
C135_2 H72_2 1_555 1_555
C124_2 H78_2 1_555 1_555
C132_2 H79_2 1_555 1_555
C139_2 H80_2 1_555 1_555
C144_2 H81_2 1_555 1_555
C146_2 H82_2 1_555 1_555
C147_2 H83_2 1_555 1_555
C149_2 H84_2 1_555 1_555
C128_2 H85_2 1_555 1_555
C125_2 H86_2 1_555 1_555
C137_2 H89_2 1_555 1_555
C140_2 H91_2 1_555 1_555
C141_2 H93_2 1_555 1_555
C150_2 H96_2 1_555 1_555
C153_2 H97_2 1_555 1_555
C157_2 H99_2 1_555 1_555
C1_2 C2_2 1_555 1_555
C2_2 C94_2 1_555 1_555
C3_2 C1_2 1_555 1_555
O34 C97_2 1_555 1_555
C14_2 C15_2 1_555 1_555
C15_2 C17_2 1_555 1_555
C16_2 C10_2 1_555 1_555
C17_2 C19_2 1_555 1_555
C18_2 C14_2 1_555 1_555
C19_2 C16_2 1_555 1_555
C20_2 C15_2 1_555 1_555
C21_2 C22_2 1_555 1_555
C22_2 C20_2 1_555 1_555
C23_2 C22_2 1_555 1_555
C24_2 C21_2 1_555 1_555
C27_2 C23_2 1_555 1_555
C29_2 C24_2 1_555 1_555
C31_2 C32_2 1_555 1_555
C33_2 C20_2 1_555 1_555
C34_2 C36_2 1_555 1_555
C35_2 C33_2 1_555 1_555
C37_2 C33_2 1_555 1_555
C38_2 C35_2 1_555 1_555
O36 C97_2 1_555 1_555
C94_2 C95_2 1_555 1_555
C95_2 C20_2 1_555 1_555
C96_2 C3_2 1_555 1_555
C97_2 C102_2 1_555 1_555
C98_2 C1_2 1_555 1_555
C99_2 C100_2 1_555 1_555
C100_2 C98_2 1_555 1_555
C101_2 C102_2 1_555 1_555
C102_2 C99_2 1_555 1_555
C105_2 C98_2 1_555 1_555
C10_2 C12_2 1_555 1_555
C16_2 C18_2 1_555 1_555
C27_2 C29_2 1_555 1_555
C29_2 C32_2 1_555 1_555
C34_2 C37_2 1_555 1_555
C36_2 C38_2 1_555 1_555
C95_2 C96_2 1_555 1_555
C101_2 C105_2 1_555 1_555
C31_2 H1_2 1_555 1_555
C2_2 H5_2 1_555 1_555
C23_2 H7_2 1_555 1_555
C21_2 H8_2 1_555 1_555
C24_2 H10_2 1_555 1_555
C14_2 H12_2 1_555 1_555
C3_2 H15_2 1_555 1_555
C12_2 H18_2 1_555 1_555
C17_2 H19_2 1_555 1_555
C18_2 H20_2 1_555 1_555
C19_2 H21_2 1_555 1_555
C37_2 H44_2 1_555 1_555
C35_2 H53_2 1_555 1_555
C38_2 H59_2 1_555 1_555
C96_2 H61_2 1_555 1_555
C94_2 H63_2 1_555 1_555
C105_2 H70_2 1_555 1_555
C101_2 H73_2 1_555 1_555
C99_2 H74_2 1_555 1_555
C100_2 H77_2 1_555 1_555
Co8 O5_2 1_555 1_555
O5_2 C42_2 1_555 1_555
O9_2 Co8 1_555 1_555
C42_2 O9_2 1_555 1_555
C85_2 C42_2 1_555 1_555
C89_2 C85_2 1_555 1_555
C89_2 H47_2 1_555 1_555
Co11 O17 1_555 1_555
C4_2 C5_2 1_555 1_555
C5_2 C6_2 1_555 1_555
Co11 O13_2 1_555 1_555
O11_2 Co14 1_555 1_555
O13_2 C13_2 1_555 1_555
O15_2 Co14 1_555 1_555
C7_2 C8_2 1_555 1_555
C8_2 C9_2 1_555 1_555
C9_2 C11_2 1_555 1_555
C13_2 O15_2 1_555 1_555
O32 Co11 1_555 1_555
O33 Co14 1_555 1_555
O35 Co11 1_555 1_555
C8_2 C13_2 1_555 1_555
C5_2 H2_2 1_555 1_555
O11_2 H3_2 1_555 1_555
O11_2 H4_2 1_555 1_555
C11_2 H6_2 1_555 1_555
C9_2 H9_2 1_555 1_555
C7_2 H11_2 1_555 1_555
C6_2 H16_2 1_555 1_555
C86_2 H38_2 1_555 1_555
O35 C41_2 1_555 1_555
C39_2 C40_2 1_555 1_555
C40_2 C41_2 1_555 1_555
C39_2 H39_2 1_555 1_555
O32 C93_2 1_555 1_555
O33 C93_2 1_555 1_555
C25_2 C28_2 1_555 1_555
C26_2 C30_2 1_555 1_555
C30_2 C25_2 1_555 1_555
C93_2 C25_2 1_555 1_555
C26_2 H13_2 1_555 1_555
C30_2 H22_2 1_555 1_555
C104_2 H92_2 1_555 1_555

#END
