
###############################################################################
#
# This file contains modified crystal structure data generated from the
# MOF subset of the Cambridge Structural Database (CSD) v543 
# hosted by the Cambridge Crystallographic Data Centre (CCDC).
#
# This work is licensed under the Creative Commons
# Attribution-NonCommercial-ShareAlike 4.0 International License.
# To view a copy of this license, visit
# http://creativecommons.org/licenses/by-nc-sa/4.0/
# or send a letter to
# Creative Commons, PO Box 1866, Mountain View, CA 94042, USA.
#
# CIF created using the CSD Python API on 29 September 2022
# The structure has been converted into the P1 space group
# The structure has a 3D framework
# The original CSD entry VEWREX is in the monoclinic crystal system
# The framework has been calculated to contain at least 10.0% void space
# The void calculation uses a probe of radius 1.32A, grid spacing 0.4
# The framework is charged, counterions have been retained in the structure
#
###############################################################################

data_VEWREX
_chemical_formula_moiety         '(C336 H192 In14 N16 O96 14-)n'
_symmetry_cell_setting           triclinic
_symmetry_space_group_name_H-M   'P 1'
_symmetry_Int_Tables_number      1
_space_group_name_Hall           'P 1'
loop_
_symmetry_equiv_pos_site_id
_symmetry_equiv_pos_as_xyz
1 x,y,z
_cell_length_a                   21.3125(5)
_cell_length_b                   42.5673(11)
_cell_length_c                   12.9321(3)
_cell_angle_alpha                90
_cell_angle_beta                 94.654(2)
_cell_angle_gamma                90
_cell_volume                     11693.5
loop_
_atom_site_label
_atom_site_type_symbol
_atom_site_fract_x
_atom_site_fract_y
_atom_site_fract_z
In5 In 0.0000 0.09602(2) 0.2500
O1 O 0.0266(2) 0.12041(11) 0.1047(4)
O4 O 0.5312(2) 0.14548(11) 0.0714(4)
O5 O 0.0804(2) 0.13126(11) 0.2485(4)
C1 C 0.1195(3) 0.15042(15) 0.0923(6)
C5 C 0.0721(3) 0.13369(15) 0.1515(6)
C9 C 0.4020(3) 0.15328(17) 0.0131(5)
H2 H 0.4148 0.1350 0.0480
H3 H 0.3095 0.1438 0.0048
C16 C 0.2178(3) 0.17637(17) 0.0840(6)
H7 H 0.2541 0.1848 0.1178
C17 C 0.5160(3) 0.16789(17) 0.0101(5)
C22 C 0.1735(3) 0.16204(17) 0.1414(6)
H11 H 0.1808 0.1604 0.2131
In9 In 0.63389(2) 0.15474(2) 0.05772(4)
In1 In 0.5000 0.59602(2) 0.2500
In2 In 0.13389(2) 0.34526(2) 0.55772(4)
O2 O 0.4341(2) 0.55729(11) 0.2839(5)
O3 O 0.5562(2) 0.18434(12) 0.9719(4)
O6 O 0.1867(3) 0.35046(14) 0.4188(4)
N1 N 0.2546(2) 0.19285(14) 0.9184(5)
O7 O 0.4318(2) 0.57232(11) 0.1228(4)
O8 O 0.1946(3) 0.29945(16) 0.5734(5)
O9 O 0.1298(4) 0.31277(16) 0.6904(5)
C2 C 0.4468(3) 0.17490(16) 0.9859(5)
C3 C 0.3187(3) 0.18654(17) 0.9401(5)
C4 C 0.3714(3) 0.52697(16) 0.1578(6)
N2 N 0.2595(3) 0.44909(15) 0.0759(5)
C6 C 0.2086(3) 0.17819(15) 0.9785(6)
C7 C 0.1914(3) 0.26591(19) 0.7189(7)
C8 C 0.1720(4) 0.26325(18) 0.8183(7)
H1 H 0.1446 0.2781 0.8422
O10 O 0.1249(3) 0.38830(17) 0.4498(5)
C10 C 0.3389(3) 0.15880(16) 0.9887(6)
C11 C 0.4139(3) 0.55386(17) 0.1884(7)
C12 C 0.1542(3) 0.16749(18) 0.9285(6)
H4 H 0.1473 0.1692 0.8568
C13 C 0.1095(3) 0.15405(16) 0.9860(7)
H5 H 0.0716 0.1473 0.9524
C18 C 0.3469(4) 0.52346(18) 0.0597(7)
H8 H 0.3557 0.5385 0.0109
C19 C 0.1709(4) 0.2951(3) 0.6589(8)
C20 C 0.4274(3) 0.20193(17) 0.9374(6)
H9 H 0.4570 0.2168 0.9210
C21 C 0.3647(3) 0.20759(18) 0.9123(6)
H10 H 0.3526 0.2258 0.8762
C24 C 0.2331(3) 0.21694(17) 0.8466(6)
C25 C 0.2969(4) 0.47541(16) 0.1014(6)
C27 C 0.1895(4) 0.3956(2) 0.3100(6)
C28 C 0.2306(4) 0.3829(2) 0.2468(7)
H13 H 0.2436 0.3621 0.2564
C29 C 0.3076(4) 0.49727(18) 0.0270(7)
C30 C 0.3590(4) 0.50584(19) 0.2317(6)
H15 H 0.3748 0.5089 0.3001
C31 C 0.2311(4) 0.2434(2) 0.6844(7)
H16 H 0.2442 0.2449 0.6177
C32 C 0.1929(4) 0.23884(18) 0.8820(6)
H17 H 0.1798 0.2372 0.9487
C34 C 0.2523(3) 0.2181(2) 0.7489(7)
H18 H 0.2786 0.2027 0.7252
C35 C 0.2369(4) 0.4311(2) 0.1577(6)
C36 C 0.3222(5) 0.47928(19) 0.2044(7)
H19 H 0.3145 0.4643 0.2543
C37 C 0.1648(4) 0.3768(2) 0.3966(7)
C39 C 0.2538(4) 0.4008(2) 0.1670(6)
H21 H 0.2803 0.3919 0.1215
C41 C 0.1721(6) 0.4261(2) 0.2991(9)
H23 H 0.1440 0.4347 0.3426
C42 C 0.1961(5) 0.4443(2) 0.2240(8)
H24 H 0.1850 0.4654 0.2176
O14 O 0.5659(2) 0.55729(11) 0.2161(5)
O18 O 0.8133(3) 0.35046(14) 0.0812(4)
O19 O 0.5682(2) 0.57232(11) 0.3772(4)
C46 C 0.6286(3) 0.52697(16) 0.3422(6)
N4 N 0.7405(3) 0.44909(15) 0.4241(5)
O22 O 0.8751(3) 0.38830(17) 0.0502(5)
C53 C 0.5861(3) 0.55386(17) 0.3116(7)
C56 C 0.7055(3) 0.42954(17) 0.5907(6)
H30 H 0.6641 0.4355 0.5728
C57 C 0.7532(4) 0.43679(16) 0.5244(6)
C60 C 0.6531(4) 0.52346(18) 0.4403(7)
H32 H 0.6443 0.5385 0.4891
C65 C 0.7206(4) 0.41390(17) 0.6804(6)
H36 H 0.6890 0.4089 0.7230
C67 C 0.7031(4) 0.47541(16) 0.3986(6)
C68 C 0.7970(7) 0.3842(3) 0.8044(9)
C69 C 0.8105(4) 0.3956(2) 0.1900(6)
O23 O 0.8569(5) 0.38045(18) 0.8251(6)
C70 C 0.7694(4) 0.3829(2) 0.2532(7)
H37 H 0.7564 0.3621 0.2436
C71 C 0.6924(4) 0.49727(18) 0.4730(7)
H38 H 0.7096 0.4953 0.5411
C72 C 0.6410(4) 0.50584(19) 0.2683(6)
H39 H 0.6252 0.5089 0.1999
C75 C 0.7818(4) 0.40515(17) 0.7103(7)
C77 C 0.7631(4) 0.4311(2) 0.3423(6)
C78 C 0.6778(5) 0.47928(19) 0.2956(7)
H43 H 0.6855 0.4643 0.2457
C79 C 0.8352(4) 0.3768(2) 0.1034(7)
C80 C 0.8145(4) 0.4288(2) 0.5548(8)
H44 H 0.8466 0.4338 0.5131
C81 C 0.7462(4) 0.4008(2) 0.3330(6)
H45 H 0.7197 0.3919 0.3785
C82 C 0.8281(4) 0.4130(2) 0.6486(8)
H46 H 0.8696 0.4079 0.6694
C83 C 0.8279(6) 0.4261(2) 0.2009(9)
H47 H 0.8560 0.4347 0.1574
C84 C 0.8039(5) 0.4443(2) 0.2760(8)
H48 H 0.8150 0.4654 0.2824
O24 O 0.7609(7) 0.3733(2) 0.8528(8)
In7 In 0.86611(2) 0.34526(2) 0.94228(4)
O25 O 0.5266(2) 0.62041(11) 0.1047(4)
O26 O 0.4734(2) 0.62041(11) 0.3953(4)
O27 O 0.9438(2) 0.31566(12) 0.0281(4)
O28 O 0.0562(2) 0.31566(12) 0.4719(4)
O30 O 0.0312(2) 0.35452(11) 0.5714(4)
O31 O 0.5804(2) 0.63126(11) 0.2485(4)
O32 O 0.4196(2) 0.63126(11) 0.2515(4)
O33 O 0.1431(5) 0.38045(18) 0.6749(6)
C14 C 0.2945(3) 0.42954(17) 0.9093(6)
H6 H 0.3359 0.4355 0.9272
C15 C 0.2468(4) 0.43679(16) 0.9756(6)
C23 C 0.2794(4) 0.41390(17) 0.8196(6)
H12 H 0.3110 0.4089 0.7770
C26 C 0.2030(7) 0.3842(3) 0.6956(9)
H14 H 0.2904 0.4953 0.9589
C33 C 0.2182(4) 0.40515(17) 0.7897(7)
C38 C 0.1855(4) 0.4288(2) 0.9452(8)
H20 H 0.1534 0.4338 0.9869
C40 C 0.1719(4) 0.4130(2) 0.8514(8)
H22 H 0.1304 0.4079 0.8306
O12 O 0.2391(7) 0.3733(2) 0.6472(8)
O13 O 0.9734(2) 0.12041(11) 0.3953(4)
O15 O 0.4438(2) 0.18434(12) 0.5281(4)
O16 O 0.4688(2) 0.14548(11) 0.4286(4)
O17 O 0.9196(2) 0.13126(11) 0.2515(4)
N3 N 0.7454(2) 0.19285(14) 0.5816(5)
O20 O 0.8054(3) 0.29945(16) 0.9266(5)
O21 O 0.8702(4) 0.31277(16) 0.8096(5)
C43 C 0.8805(3) 0.15042(15) 0.4077(6)
C44 C 0.5532(3) 0.17490(16) 0.5141(5)
C45 C 0.6813(3) 0.18654(17) 0.5599(5)
C47 C 0.9279(3) 0.13369(15) 0.3485(6)
C48 C 0.7914(3) 0.17819(15) 0.5215(6)
C49 C 0.8086(3) 0.26591(19) 0.7811(7)
C50 C 0.8280(4) 0.26325(18) 0.6817(7)
H25 H 0.8554 0.2781 0.6578
C51 C 0.5980(3) 0.15328(17) 0.4869(5)
H26 H 0.5852 0.1350 0.4520
C52 C 0.6611(3) 0.15880(16) 0.5113(6)
H27 H 0.6905 0.1438 0.4952
C54 C 0.8458(3) 0.16749(18) 0.5715(6)
H28 H 0.8527 0.1692 0.6432
C55 C 0.8905(3) 0.15405(16) 0.5140(7)
H29 H 0.9284 0.1473 0.5476
C58 C 0.7822(3) 0.17637(17) 0.4160(6)
H31 H 0.7459 0.1848 0.3822
C59 C 0.4840(3) 0.16789(17) 0.4899(5)
C61 C 0.8291(4) 0.2951(3) 0.8411(8)
C62 C 0.5726(3) 0.20193(17) 0.5626(6)
H33 H 0.5430 0.2168 0.5790
C63 C 0.6353(3) 0.20759(18) 0.5877(6)
H34 H 0.6474 0.2258 0.6238
C64 C 0.8265(3) 0.16204(17) 0.3586(6)
H35 H 0.8192 0.1604 0.2869
C66 C 0.7669(3) 0.21694(17) 0.6534(6)
C73 C 0.7689(4) 0.2434(2) 0.8156(7)
H40 H 0.7558 0.2449 0.8823
C74 C 0.8071(4) 0.23884(18) 0.6180(6)
H41 H 0.8202 0.2372 0.5513
C76 C 0.7477(3) 0.2181(2) 0.7511(7)
H42 H 0.7214 0.2027 0.7748
In5_2 In 1.0000 0.09602(2) 0.2500
In8 In 0.36611(2) 0.15474(2) 0.44228(4)
O29 O 0.9688(2) 0.35452(11) 0.9286(4)
O14_2 O 0.0659(2) 0.05729(11) 0.2161(5)
O19_2 O 0.0682(2) 0.07232(11) 0.3772(4)
C46_2 C 0.1286(3) 0.02697(16) 0.3422(6)
C53_2 C 0.0861(3) 0.05386(17) 0.3116(7)
C60_2 C 0.1531(4) 0.02346(18) 0.4403(7)
H32_2 H 0.1443 0.0385 0.4891
C72_2 C 0.1410(4) 0.00584(19) 0.2683(6)
H39_2 H 0.1252 0.0089 0.1999
O4_2 O 0.0312(2) 0.64548(11) 0.0714(4)
C17_2 C 0.0160(3) 0.66789(17) 0.0101(5)
In9_2 In 0.13389(2) 0.65474(2) 0.05772(4)
O3_2 O 0.0562(2) 0.68434(12) 0.9719(4)
O18_2 O 0.3133(3) 0.85046(14) 0.0812(4)
N4_2 N 0.2405(3) 0.94909(15) 0.4241(5)
O22_2 O 0.3751(3) 0.88830(17) 0.0502(5)
C56_2 C 0.2055(3) 0.92954(17) 0.5907(6)
H30_2 H 0.1641 0.9355 0.5728
C57_2 C 0.2532(4) 0.93679(16) 0.5244(6)
C65_2 C 0.2206(4) 0.91390(17) 0.6804(6)
H36_2 H 0.1890 0.9089 0.7230
C67_2 C 0.2031(4) 0.97541(16) 0.3986(6)
C68_2 C 0.2970(7) 0.8842(3) 0.8044(9)
C69_2 C 0.3105(4) 0.8956(2) 0.1900(6)
O23_2 O 0.3569(5) 0.88045(18) 0.8251(6)
C70_2 C 0.2694(4) 0.8829(2) 0.2532(7)
H37_2 H 0.2564 0.8621 0.2436
C71_2 C 0.1924(4) 0.99727(18) 0.4730(7)
H38_2 H 0.2096 0.9953 0.5411
C75_2 C 0.2818(4) 0.90515(17) 0.7103(7)
C77_2 C 0.2631(4) 0.9311(2) 0.3423(6)
C78_2 C 0.1778(5) 0.97928(19) 0.2956(7)
H43_2 H 0.1855 0.9643 0.2457
C79_2 C 0.3352(4) 0.8768(2) 0.1034(7)
C80_2 C 0.3145(4) 0.9288(2) 0.5548(8)
H44_2 H 0.3466 0.9338 0.5131
C81_2 C 0.2462(4) 0.9008(2) 0.3330(6)
H45_2 H 0.2197 0.8919 0.3785
C82_2 C 0.3281(4) 0.9130(2) 0.6486(8)
H46_2 H 0.3696 0.9079 0.6694
C83_2 C 0.3279(6) 0.9261(2) 0.2009(9)
H47_2 H 0.3560 0.9347 0.1574
C84_2 C 0.3039(5) 0.9443(2) 0.2760(8)
H48_2 H 0.3150 0.9654 0.2824
O24_2 O 0.2609(7) 0.8733(2) 0.8528(8)
In7_2 In 0.36611(2) 0.84526(2) 0.94228(4)
O27_2 O 0.4438(2) 0.81566(12) 0.0281(4)
N3_2 N 0.2454(2) 0.69285(14) 0.5816(5)
O20_2 O 0.3054(3) 0.79945(16) 0.9266(5)
O21_2 O 0.3702(4) 0.81277(16) 0.8096(5)
C43_2 C 0.3805(3) 0.65042(15) 0.4077(6)
C44_2 C 0.0532(3) 0.67490(16) 0.5141(5)
C45_2 C 0.1813(3) 0.68654(17) 0.5599(5)
C47_2 C 0.4279(3) 0.63369(15) 0.3485(6)
C48_2 C 0.2914(3) 0.67819(15) 0.5215(6)
C49_2 C 0.3086(3) 0.76591(19) 0.7811(7)
C50_2 C 0.3280(4) 0.76325(18) 0.6817(7)
H25_2 H 0.3554 0.7781 0.6578
C51_2 C 0.0980(3) 0.65328(17) 0.4869(5)
H26_2 H 0.0852 0.6350 0.4520
C52_2 C 0.1611(3) 0.65880(16) 0.5113(6)
H27_2 H 0.1905 0.6438 0.4952
C54_2 C 0.3458(3) 0.66749(18) 0.5715(6)
H28_2 H 0.3527 0.6692 0.6432
C55_2 C 0.3905(3) 0.65405(16) 0.5140(7)
H29_2 H 0.4284 0.6473 0.5476
C58_2 C 0.2822(3) 0.67637(17) 0.4160(6)
H31_2 H 0.2459 0.6848 0.3822
C61_2 C 0.3291(4) 0.7951(3) 0.8411(8)
C62_2 C 0.0726(3) 0.70193(17) 0.5626(6)
H33_2 H 0.0430 0.7168 0.5790
C63_2 C 0.1353(3) 0.70759(18) 0.5877(6)
H34_2 H 0.1474 0.7258 0.6238
C64_2 C 0.3265(3) 0.66204(17) 0.3586(6)
H35_2 H 0.3192 0.6604 0.2869
C66_2 C 0.2669(3) 0.71694(17) 0.6534(6)
C73_2 C 0.2689(4) 0.7434(2) 0.8156(7)
H40_2 H 0.2558 0.7449 0.8823
C74_2 C 0.3071(4) 0.73884(18) 0.6180(6)
H41_2 H 0.3202 0.7372 0.5513
C76_2 C 0.2477(3) 0.7181(2) 0.7511(7)
H42_2 H 0.2214 0.7027 0.7748
O29_2 O 0.4688(2) 0.85452(11) 0.9286(4)
O2_2 O 0.9341(2) 0.05729(11) 0.2839(5)
O7_2 O 0.9318(2) 0.07232(11) 0.1228(4)
C4_2 C 0.8714(3) 0.02697(16) 0.1578(6)
C11_2 C 0.9139(3) 0.05386(17) 0.1884(7)
C18_2 C 0.8469(4) 0.02346(18) 0.0597(7)
H8_2 H 0.8557 0.0385 0.0109
C30_2 C 0.8590(4) 0.00584(19) 0.2317(6)
H15_2 H 0.8748 0.0089 0.3001
C1_2 C 0.6195(3) 0.65042(15) 0.0923(6)
C5_2 C 0.5721(3) 0.63369(15) 0.1515(6)
C9_2 C 0.9020(3) 0.65328(17) 0.0131(5)
H2_2 H 0.9148 0.6350 0.0480
H3_2 H 0.8095 0.6438 0.0048
C16_2 C 0.7178(3) 0.67637(17) 0.0840(6)
H7_2 H 0.7541 0.6848 0.1178
C22_2 C 0.6735(3) 0.66204(17) 0.1414(6)
H11_2 H 0.6808 0.6604 0.2131
In2_2 In 0.63389(2) 0.84526(2) 0.55772(4)
O6_2 O 0.6867(3) 0.85046(14) 0.4188(4)
N1_2 N 0.7546(2) 0.69285(14) 0.9184(5)
O8_2 O 0.6946(3) 0.79945(16) 0.5734(5)
O9_2 O 0.6298(4) 0.81277(16) 0.6904(5)
C2_2 C 0.9468(3) 0.67490(16) 0.9859(5)
C3_2 C 0.8187(3) 0.68654(17) 0.9401(5)
N2_2 N 0.7595(3) 0.94909(15) 0.0759(5)
C6_2 C 0.7086(3) 0.67819(15) 0.9785(6)
C7_2 C 0.6914(3) 0.76591(19) 0.7189(7)
C8_2 C 0.6720(4) 0.76325(18) 0.8183(7)
H1_2 H 0.6446 0.7781 0.8422
O10_2 O 0.6249(3) 0.88830(17) 0.4498(5)
C10_2 C 0.8389(3) 0.65880(16) 0.9887(6)
C12_2 C 0.6542(3) 0.66749(18) 0.9285(6)
H4_2 H 0.6473 0.6692 0.8568
C13_2 C 0.6095(3) 0.65405(16) 0.9860(7)
H5_2 H 0.5716 0.6473 0.9524
C19_2 C 0.6709(4) 0.7951(3) 0.6589(8)
C20_2 C 0.9274(3) 0.70193(17) 0.9374(6)
H9_2 H 0.9570 0.7168 0.9210
C21_2 C 0.8647(3) 0.70759(18) 0.9123(6)
H10_2 H 0.8526 0.7258 0.8762
C24_2 C 0.7331(3) 0.71694(17) 0.8466(6)
C25_2 C 0.7969(4) 0.97541(16) 0.1014(6)
C27_2 C 0.6895(4) 0.8956(2) 0.3100(6)
C28_2 C 0.7306(4) 0.8829(2) 0.2468(7)
H13_2 H 0.7436 0.8621 0.2564
C29_2 C 0.8076(4) 0.99727(18) 0.0270(7)
C31_2 C 0.7311(4) 0.7434(2) 0.6844(7)
H16_2 H 0.7442 0.7449 0.6177
C32_2 C 0.6929(4) 0.73884(18) 0.8820(6)
H17_2 H 0.6798 0.7372 0.9487
C34_2 C 0.7523(3) 0.7181(2) 0.7489(7)
H18_2 H 0.7786 0.7027 0.7252
C35_2 C 0.7369(4) 0.9311(2) 0.1577(6)
C36_2 C 0.8222(5) 0.97928(19) 0.2044(7)
H19_2 H 0.8145 0.9643 0.2543
C37_2 C 0.6648(4) 0.8768(2) 0.3966(7)
C39_2 C 0.7538(4) 0.9008(2) 0.1670(6)
H21_2 H 0.7803 0.8919 0.1215
C41_2 C 0.6721(6) 0.9261(2) 0.2991(9)
H23_2 H 0.6440 0.9347 0.3426
C42_2 C 0.6961(5) 0.9443(2) 0.2240(8)
H24_2 H 0.6850 0.9654 0.2176
O28_2 O 0.5562(2) 0.81566(12) 0.4719(4)
O30_2 O 0.5312(2) 0.85452(11) 0.5714(4)
O33_2 O 0.6431(5) 0.88045(18) 0.6749(6)
C14_2 C 0.7945(3) 0.92954(17) 0.9093(6)
H6_2 H 0.8359 0.9355 0.9272
C15_2 C 0.7468(4) 0.93679(16) 0.9756(6)
C23_2 C 0.7794(4) 0.91390(17) 0.8196(6)
H12_2 H 0.8110 0.9089 0.7770
C26_2 C 0.7030(7) 0.8842(3) 0.6956(9)
H14_2 H 0.7904 0.9953 0.9589
C33_2 C 0.7182(4) 0.90515(17) 0.7897(7)
C38_2 C 0.6855(4) 0.9288(2) 0.9452(8)
H20_2 H 0.6534 0.9338 0.9869
C40_2 C 0.6719(4) 0.9130(2) 0.8514(8)
H22_2 H 0.6304 0.9079 0.8306
O12_2 O 0.7391(7) 0.8733(2) 0.6472(8)
O15_2 O 0.9438(2) 0.68434(12) 0.5281(4)
O16_2 O 0.9688(2) 0.64548(11) 0.4286(4)
C59_2 C 0.9840(3) 0.66789(17) 0.4899(5)
In8_2 In 0.86611(2) 0.65474(2) 0.44228(4)
In4 In 0.0000 0.90398(2) 0.7500
C14_3 C 0.7055(3) 0.57046(17) 0.0907(6)
H6_3 H 0.6641 0.5645 0.0728
C15_3 C 0.7532(4) 0.56321(16) 0.0244(6)
C23_3 C 0.7206(4) 0.58610(17) 0.1804(6)
H12_3 H 0.6890 0.5911 0.2230
C26_3 C 0.7970(7) 0.6158(3) 0.3044(9)
O11 O 0.8569(5) 0.61955(18) 0.3251(6)
H14_3 H 0.7096 0.5047 0.0411
C33_3 C 0.7818(4) 0.59485(17) 0.2103(7)
C38_3 C 0.8145(4) 0.5712(2) 0.0548(8)
H20_3 H 0.8466 0.5662 0.0131
C40_3 C 0.8281(4) 0.5870(2) 0.1486(8)
H22_3 H 0.8696 0.5921 0.1694
O12_3 O 0.7609(7) 0.6267(2) 0.3528(8)
O13_2 O 0.0266(2) 0.87959(11) 0.6047(4)
O17_2 O 0.0804(2) 0.86874(11) 0.7485(4)
N3_3 N 0.2546(2) 0.80715(14) 0.4184(5)
O20_3 O 0.1946(3) 0.70055(16) 0.0734(5)
O21_3 O 0.1298(4) 0.68723(16) 0.1904(5)
C43_3 C 0.1195(3) 0.84958(15) 0.5923(6)
C44_3 C 0.4468(3) 0.82510(16) 0.4859(5)
C45_3 C 0.3187(3) 0.81346(17) 0.4401(5)
C47_3 C 0.0721(3) 0.86631(15) 0.6515(6)
C48_3 C 0.2086(3) 0.82181(15) 0.4785(6)
C49_3 C 0.1914(3) 0.73409(19) 0.2189(7)
C50_3 C 0.1720(4) 0.73675(18) 0.3183(7)
H25_3 H 0.1446 0.7219 0.3422
C51_3 C 0.4020(3) 0.84672(17) 0.5131(5)
H26_3 H 0.4148 0.8650 0.5480
C52_3 C 0.3389(3) 0.84120(16) 0.4887(6)
H27_3 H 0.3095 0.8562 0.5048
C54_3 C 0.1542(3) 0.83251(18) 0.4285(6)
H28_3 H 0.1473 0.8308 0.3568
C55_3 C 0.1095(3) 0.84595(16) 0.4860(7)
H29_3 H 0.0716 0.8527 0.4524
C58_3 C 0.2178(3) 0.82363(17) 0.5840(6)
H31_3 H 0.2541 0.8152 0.6178
C59_3 C 0.5160(3) 0.83211(17) 0.5101(5)
C61_3 C 0.1709(4) 0.7049(3) 0.1589(8)
C62_3 C 0.4274(3) 0.79807(17) 0.4374(6)
H33_3 H 0.4570 0.7832 0.4210
C63_3 C 0.3647(3) 0.79241(18) 0.4123(6)
H34_3 H 0.3526 0.7742 0.3762
C64_3 C 0.1735(3) 0.83796(17) 0.6414(6)
H35_3 H 0.1808 0.8396 0.7131
C66_3 C 0.2331(3) 0.78306(17) 0.3466(6)
C73_3 C 0.2311(4) 0.7566(2) 0.1844(7)
H40_3 H 0.2442 0.7551 0.1177
C74_3 C 0.1929(4) 0.76116(18) 0.3820(6)
H41_3 H 0.1798 0.7628 0.4487
C76_3 C 0.2523(3) 0.7819(2) 0.2489(7)
H42_3 H 0.2786 0.7973 0.2252
O34 O 0.1431(5) 0.61955(18) 0.1749(6)
In1_2 In 0.5000 0.40398(2) 0.7500
O2_3 O 0.5659(2) 0.44271(11) 0.7161(5)
O6_3 O 0.8133(3) 0.64954(14) 0.5812(4)
N1_3 N 0.7454(2) 0.80715(14) 0.0816(5)
O7_3 O 0.5682(2) 0.42768(11) 0.8772(4)
O8_3 O 0.8054(3) 0.70055(16) 0.4266(5)
O9_3 O 0.8702(4) 0.68723(16) 0.3096(5)
C2_3 C 0.5532(3) 0.82510(16) 0.0141(5)
C3_3 C 0.6813(3) 0.81346(17) 0.0599(5)
C4_3 C 0.6286(3) 0.47303(16) 0.8422(6)
N2_3 N 0.7405(3) 0.55091(15) 0.9241(5)
C6_3 C 0.7914(3) 0.82181(15) 0.0215(6)
C7_3 C 0.8086(3) 0.73409(19) 0.2811(7)
C8_3 C 0.8280(4) 0.73675(18) 0.1817(7)
H1_3 H 0.8554 0.7219 0.1578
O10_3 O 0.8751(3) 0.61170(17) 0.5502(5)
C10_3 C 0.6611(3) 0.84120(16) 0.0113(6)
C11_3 C 0.5861(3) 0.44614(17) 0.8116(7)
C12_3 C 0.8458(3) 0.83251(18) 0.0715(6)
H4_3 H 0.8527 0.8308 0.1432
C13_3 C 0.8905(3) 0.84595(16) 0.0140(7)
H5_3 H 0.9284 0.8527 0.0476
C18_3 C 0.6531(4) 0.47654(18) 0.9403(7)
H8_3 H 0.6443 0.4615 0.9891
C19_3 C 0.8291(4) 0.7049(3) 0.3411(8)
C20_3 C 0.5726(3) 0.79807(17) 0.0626(6)
H9_3 H 0.5430 0.7832 0.0790
C21_3 C 0.6353(3) 0.79241(18) 0.0877(6)
H10_3 H 0.6474 0.7742 0.1238
C24_3 C 0.7669(3) 0.78306(17) 0.1534(6)
C25_3 C 0.7031(4) 0.52459(16) 0.8986(6)
C27_3 C 0.8105(4) 0.6044(2) 0.6900(6)
C28_3 C 0.7694(4) 0.6171(2) 0.7532(7)
H13_3 H 0.7564 0.6379 0.7436
C29_3 C 0.6924(4) 0.50273(18) 0.9730(7)
C30_3 C 0.6410(4) 0.49416(19) 0.7683(6)
H15_3 H 0.6252 0.4911 0.6999
C31_3 C 0.7689(4) 0.7566(2) 0.3156(7)
H16_3 H 0.7558 0.7551 0.3823
C32_3 C 0.8071(4) 0.76116(18) 0.1180(6)
H17_3 H 0.8202 0.7628 0.0513
C34_3 C 0.7477(3) 0.7819(2) 0.2511(7)
H18_3 H 0.7214 0.7973 0.2748
C35_3 C 0.7631(4) 0.5689(2) 0.8423(6)
C36_3 C 0.6778(5) 0.52072(19) 0.7956(7)
H19_3 H 0.6855 0.5357 0.7457
C37_3 C 0.8352(4) 0.6232(2) 0.6034(7)
C39_3 C 0.7462(4) 0.5992(2) 0.8330(6)
H21_3 H 0.7197 0.6081 0.8785
C41_3 C 0.8279(6) 0.5739(2) 0.7009(9)
H23_3 H 0.8560 0.5653 0.6574
C42_3 C 0.8039(5) 0.5557(2) 0.7760(8)
H24_3 H 0.8150 0.5346 0.7824
O14_3 O 0.4341(2) 0.44271(11) 0.7839(5)
O18_3 O 0.1867(3) 0.64954(14) 0.9188(4)
O19_3 O 0.4318(2) 0.42768(11) 0.6228(4)
C46_3 C 0.3714(3) 0.47303(16) 0.6578(6)
N4_3 N 0.2595(3) 0.55091(15) 0.5759(5)
O22_3 O 0.1249(3) 0.61170(17) 0.9498(5)
C53_3 C 0.4139(3) 0.44614(17) 0.6884(7)
C56_3 C 0.2945(3) 0.57046(17) 0.4093(6)
H30_3 H 0.3359 0.5645 0.4272
C57_3 C 0.2468(4) 0.56321(16) 0.4756(6)
C60_3 C 0.3469(4) 0.47654(18) 0.5597(7)
H32_3 H 0.3557 0.4615 0.5109
C65_3 C 0.2794(4) 0.58610(17) 0.3196(6)
H36_3 H 0.3110 0.5911 0.2770
C67_3 C 0.2969(4) 0.52459(16) 0.6014(6)
C68_3 C 0.2030(7) 0.6158(3) 0.1956(9)
C69_3 C 0.1895(4) 0.6044(2) 0.8100(6)
C70_3 C 0.2306(4) 0.6171(2) 0.7468(7)
H37_3 H 0.2436 0.6379 0.7564
C71_3 C 0.3076(4) 0.50273(18) 0.5270(7)
H38_3 H 0.2904 0.5047 0.4589
C72_3 C 0.3590(4) 0.49416(19) 0.7317(6)
H39_3 H 0.3748 0.4911 0.8001
C75_3 C 0.2182(4) 0.59485(17) 0.2897(7)
C77_3 C 0.2369(4) 0.5689(2) 0.6577(6)
C78_3 C 0.3222(5) 0.52072(19) 0.7044(7)
H43_3 H 0.3145 0.5357 0.7543
C79_3 C 0.1648(4) 0.6232(2) 0.8966(7)
C80_3 C 0.1855(4) 0.5712(2) 0.4452(8)
H44_3 H 0.1534 0.5662 0.4869
C81_3 C 0.2538(4) 0.5992(2) 0.6670(6)
H45_3 H 0.2803 0.6081 0.6215
C82_3 C 0.1719(4) 0.5870(2) 0.3514(8)
H46_3 H 0.1304 0.5921 0.3306
C83_3 C 0.1721(6) 0.5739(2) 0.7991(9)
H47_3 H 0.1440 0.5653 0.8426
C84_3 C 0.1961(5) 0.5557(2) 0.7240(8)
H48_3 H 0.1850 0.5346 0.7176
O24_3 O 0.2391(7) 0.6267(2) 0.1472(8)
O25_2 O 0.4734(2) 0.37959(11) 0.8953(4)
O26_2 O 0.5266(2) 0.37959(11) 0.6047(4)
O31_2 O 0.4196(2) 0.36874(11) 0.7515(4)
O32_2 O 0.5804(2) 0.36874(11) 0.7485(4)
O1_2 O 0.9734(2) 0.87959(11) 0.8953(4)
O5_2 O 0.9196(2) 0.86874(11) 0.7515(4)
C1_3 C 0.8805(3) 0.84958(15) 0.9077(6)
C5_3 C 0.9279(3) 0.86631(15) 0.8485(6)
C9_3 C 0.5980(3) 0.84672(17) 0.9869(5)
H2_3 H 0.5852 0.8650 0.9520
H3_3 H 0.6905 0.8562 0.9952
C16_3 C 0.7822(3) 0.82363(17) 0.9160(6)
H7_3 H 0.7459 0.8152 0.8822
C17_3 C 0.4840(3) 0.83211(17) 0.9899(5)
C22_3 C 0.8265(3) 0.83796(17) 0.8586(6)
H11_3 H 0.8192 0.8396 0.7869
In4_2 In 1.0000 0.90398(2) 0.7500
C14_4 C 0.2055(3) 0.07046(17) 0.0907(6)
H6_4 H 0.1641 0.0645 0.0728
C15_4 C 0.2532(4) 0.06321(16) 0.0244(6)
C23_4 C 0.2206(4) 0.08610(17) 0.1804(6)
H12_4 H 0.1890 0.0911 0.2230
C26_4 C 0.2970(7) 0.1158(3) 0.3044(9)
O11_2 O 0.3569(5) 0.11955(18) 0.3251(6)
H14_4 H 0.2096 0.0047 0.0411
C33_4 C 0.2818(4) 0.09485(17) 0.2103(7)
C38_4 C 0.3145(4) 0.0712(2) 0.0548(8)
H20_4 H 0.3466 0.0662 0.0131
C40_4 C 0.3281(4) 0.0870(2) 0.1486(8)
H22_4 H 0.3696 0.0921 0.1694
O12_4 O 0.2609(7) 0.1267(2) 0.3528(8)
C59_4 C 0.0160(3) 0.33211(17) 0.5101(5)
O6_4 O 0.3133(3) 0.14954(14) 0.5812(4)
N1_4 N 0.2454(2) 0.30715(14) 0.0816(5)
O8_4 O 0.3054(3) 0.20055(16) 0.4266(5)
O9_4 O 0.3702(4) 0.18723(16) 0.3096(5)
C2_4 C 0.0532(3) 0.32510(16) 0.0141(5)
C3_4 C 0.1813(3) 0.31346(17) 0.0599(5)
N2_4 N 0.2405(3) 0.05091(15) 0.9241(5)
C6_4 C 0.2914(3) 0.32181(15) 0.0215(6)
C7_4 C 0.3086(3) 0.23409(19) 0.2811(7)
C8_4 C 0.3280(4) 0.23675(18) 0.1817(7)
H1_4 H 0.3554 0.2219 0.1578
O10_4 O 0.3751(3) 0.11170(17) 0.5502(5)
C10_4 C 0.1611(3) 0.34120(16) 0.0113(6)
C12_4 C 0.3458(3) 0.33251(18) 0.0715(6)
H4_4 H 0.3527 0.3308 0.1432
C13_4 C 0.3905(3) 0.34595(16) 0.0140(7)
H5_4 H 0.4284 0.3527 0.0476
C19_4 C 0.3291(4) 0.2049(3) 0.3411(8)
C20_4 C 0.0726(3) 0.29807(17) 0.0626(6)
H9_4 H 0.0430 0.2832 0.0790
C21_4 C 0.1353(3) 0.29241(18) 0.0877(6)
H10_4 H 0.1474 0.2742 0.1238
C24_4 C 0.2669(3) 0.28306(17) 0.1534(6)
C25_4 C 0.2031(4) 0.02459(16) 0.8986(6)
C27_4 C 0.3105(4) 0.1044(2) 0.6900(6)
C28_4 C 0.2694(4) 0.1171(2) 0.7532(7)
H13_4 H 0.2564 0.1379 0.7436
C29_4 C 0.1924(4) 0.00273(18) 0.9730(7)
C31_4 C 0.2689(4) 0.2566(2) 0.3156(7)
H16_4 H 0.2558 0.2551 0.3823
C32_4 C 0.3071(4) 0.26116(18) 0.1180(6)
H17_4 H 0.3202 0.2628 0.0513
C34_4 C 0.2477(3) 0.2819(2) 0.2511(7)
H18_4 H 0.2214 0.2973 0.2748
C35_4 C 0.2631(4) 0.0689(2) 0.8423(6)
C36_4 C 0.1778(5) 0.02072(19) 0.7956(7)
H19_4 H 0.1855 0.0357 0.7457
C37_4 C 0.3352(4) 0.1232(2) 0.6034(7)
C39_4 C 0.2462(4) 0.0992(2) 0.8330(6)
H21_4 H 0.2197 0.1081 0.8785
C41_4 C 0.3279(6) 0.0739(2) 0.7009(9)
H23_4 H 0.3560 0.0653 0.6574
C42_4 C 0.3039(5) 0.0557(2) 0.7760(8)
H24_4 H 0.3150 0.0346 0.7824
C1_4 C 0.3805(3) 0.34958(15) 0.9077(6)
C5_4 C 0.4279(3) 0.36631(15) 0.8485(6)
C9_4 C 0.0980(3) 0.34672(17) 0.9869(5)
H2_4 H 0.0852 0.3650 0.9520
H3_4 H 0.1905 0.3562 0.9952
C16_4 C 0.2822(3) 0.32363(17) 0.9160(6)
H7_4 H 0.2459 0.3152 0.8822
C22_4 C 0.3265(3) 0.33796(17) 0.8586(6)
H11_4 H 0.3192 0.3396 0.7869
O2_4 O 0.0659(2) 0.94271(11) 0.7161(5)
O7_4 O 0.0682(2) 0.92768(11) 0.8772(4)
C4_4 C 0.1286(3) 0.97303(16) 0.8422(6)
C11_4 C 0.0861(3) 0.94614(17) 0.8116(7)
C18_4 C 0.1531(4) 0.97654(18) 0.9403(7)
H8_4 H 0.1443 0.9615 0.9891
C30_4 C 0.1410(4) 0.99416(19) 0.7683(6)
H15_4 H 0.1252 0.9911 0.6999
N3_4 N 0.7546(2) 0.30715(14) 0.4184(5)
O20_4 O 0.6946(3) 0.20055(16) 0.0734(5)
O21_4 O 0.6298(4) 0.18723(16) 0.1904(5)
C43_4 C 0.6195(3) 0.34958(15) 0.5923(6)
C44_4 C 0.9468(3) 0.32510(16) 0.4859(5)
C45_4 C 0.8187(3) 0.31346(17) 0.4401(5)
C47_4 C 0.5721(3) 0.36631(15) 0.6515(6)
C48_4 C 0.7086(3) 0.32181(15) 0.4785(6)
C49_4 C 0.6914(3) 0.23409(19) 0.2189(7)
C50_4 C 0.6720(4) 0.23675(18) 0.3183(7)
H25_4 H 0.6446 0.2219 0.3422
C51_4 C 0.9020(3) 0.34672(17) 0.5131(5)
H26_4 H 0.9148 0.3650 0.5480
C52_4 C 0.8389(3) 0.34120(16) 0.4887(6)
H27_4 H 0.8095 0.3562 0.5048
C54_4 C 0.6542(3) 0.33251(18) 0.4285(6)
H28_4 H 0.6473 0.3308 0.3568
C55_4 C 0.6095(3) 0.34595(16) 0.4860(7)
H29_4 H 0.5716 0.3527 0.4524
C58_4 C 0.7178(3) 0.32363(17) 0.5840(6)
H31_4 H 0.7541 0.3152 0.6178
C61_4 C 0.6709(4) 0.2049(3) 0.1589(8)
C62_4 C 0.9274(3) 0.29807(17) 0.4374(6)
H33_4 H 0.9570 0.2832 0.4210
C63_4 C 0.8647(3) 0.29241(18) 0.4123(6)
H34_4 H 0.8526 0.2742 0.3762
C64_4 C 0.6735(3) 0.33796(17) 0.6414(6)
H35_4 H 0.6808 0.3396 0.7131
C66_4 C 0.7331(3) 0.28306(17) 0.3466(6)
C73_4 C 0.7311(4) 0.2566(2) 0.1844(7)
H40_4 H 0.7442 0.2551 0.1177
C74_4 C 0.6929(4) 0.26116(18) 0.3820(6)
H41_4 H 0.6798 0.2628 0.4487
C76_4 C 0.7523(3) 0.2819(2) 0.2489(7)
H42_4 H 0.7786 0.2973 0.2252
O34_2 O 0.6431(5) 0.11955(18) 0.1749(6)
O18_4 O 0.6867(3) 0.14954(14) 0.9188(4)
N4_4 N 0.7595(3) 0.05091(15) 0.5759(5)
O22_4 O 0.6249(3) 0.11170(17) 0.9498(5)
C56_4 C 0.7945(3) 0.07046(17) 0.4093(6)
H30_4 H 0.8359 0.0645 0.4272
C57_4 C 0.7468(4) 0.06321(16) 0.4756(6)
C65_4 C 0.7794(4) 0.08610(17) 0.3196(6)
H36_4 H 0.8110 0.0911 0.2770
C67_4 C 0.7969(4) 0.02459(16) 0.6014(6)
C68_4 C 0.7030(7) 0.1158(3) 0.1956(9)
C69_4 C 0.6895(4) 0.1044(2) 0.8100(6)
C70_4 C 0.7306(4) 0.1171(2) 0.7468(7)
H37_4 H 0.7436 0.1379 0.7564
C71_4 C 0.8076(4) 0.00273(18) 0.5270(7)
H38_4 H 0.7904 0.0047 0.4589
C75_4 C 0.7182(4) 0.09485(17) 0.2897(7)
C77_4 C 0.7369(4) 0.0689(2) 0.6577(6)
C78_4 C 0.8222(5) 0.02072(19) 0.7044(7)
H43_4 H 0.8145 0.0357 0.7543
C79_4 C 0.6648(4) 0.1232(2) 0.8966(7)
C80_4 C 0.6855(4) 0.0712(2) 0.4452(8)
H44_4 H 0.6534 0.0662 0.4869
C81_4 C 0.7538(4) 0.0992(2) 0.6670(6)
H45_4 H 0.7803 0.1081 0.6215
C82_4 C 0.6719(4) 0.0870(2) 0.3514(8)
H46_4 H 0.6304 0.0921 0.3306
C83_4 C 0.6721(6) 0.0739(2) 0.7991(9)
H47_4 H 0.6440 0.0653 0.8426
C84_4 C 0.6961(5) 0.0557(2) 0.7240(8)
H48_4 H 0.6850 0.0346 0.7176
O24_4 O 0.7391(7) 0.1267(2) 0.1472(8)
C17_4 C 0.9840(3) 0.33211(17) 0.9899(5)
O14_4 O 0.9341(2) 0.94271(11) 0.7839(5)
O19_4 O 0.9318(2) 0.92768(11) 0.6228(4)
C46_4 C 0.8714(3) 0.97303(16) 0.6578(6)
C53_4 C 0.9139(3) 0.94614(17) 0.6884(7)
C60_4 C 0.8469(4) 0.97654(18) 0.5597(7)
H32_4 H 0.8557 0.9615 0.5109
C72_4 C 0.8590(4) 0.99416(19) 0.7317(6)
H39_4 H 0.8748 0.9911 0.8001
loop_
_geom_bond_atom_site_label_1
_geom_bond_atom_site_label_2
_geom_bond_site_symmetry_1
_geom_bond_site_symmetry_2
O1 C5 1_555 1_555
O4 C17 1_555 1_555
O5 C5 1_555 1_555
C1 C5 1_555 1_555
C9 H2 1_555 1_555
H7 C16 1_555 1_555
C22 C1 1_555 1_555
H11 C22 1_555 1_555
In5 O1 1_555 1_555
O4 In9 1_555 1_555
O5 In5 1_555 1_555
C16 C22 1_555 1_555
In1 O2 1_555 1_555
In2 O6 1_555 1_555
O2 C11 1_555 1_555
O6 C37 1_555 1_555
N1 C3 1_555 1_555
O7 In1 1_555 1_555
O8 In2 1_555 1_555
O9 In2 1_555 1_555
C3 C10 1_555 1_555
C4 C11 1_555 1_555
C6 N1 1_555 1_555
C7 C8 1_555 1_555
C8 H1 1_555 1_555
O10 In2 1_555 1_555
C11 O7 1_555 1_555
C12 C6 1_555 1_555
H4 C12 1_555 1_555
H5 C13 1_555 1_555
C18 C4 1_555 1_555
H8 C18 1_555 1_555
C19 O8 1_555 1_555
C20 C2 1_555 1_555
H9 C20 1_555 1_555
C21 C3 1_555 1_555
H10 C21 1_555 1_555
C24 N1 1_555 1_555
C25 N2 1_555 1_555
C27 C28 1_555 1_555
C28 H13 1_555 1_555
C29 C18 1_555 1_555
C30 C4 1_555 1_555
H15 C30 1_555 1_555
C31 C7 1_555 1_555
H16 C31 1_555 1_555
C32 C8 1_555 1_555
H17 C32 1_555 1_555
C34 C24 1_555 1_555
H18 C34 1_555 1_555
C35 N2 1_555 1_555
C36 C25 1_555 1_555
H19 C36 1_555 1_555
C37 O10 1_555 1_555
C39 C28 1_555 1_555
H21 C39 1_555 1_555
C41 C27 1_555 1_555
H23 C41 1_555 1_555
C42 C35 1_555 1_555
H24 C42 1_555 1_555
O14 In1 1_555 1_555
O18 C79 1_555 1_555
O19 In1 1_555 1_555
C46 C53 1_555 1_555
N4 C57 1_555 1_555
C53 O14 1_555 1_555
C56 H30 1_555 1_555
C57 C56 1_555 1_555
C60 C46 1_555 1_555
H32 C60 1_555 1_555
C65 C56 1_555 1_555
H36 C65 1_555 1_555
C67 N4 1_555 1_555
C68 O23 1_555 1_555
C69 C70 1_555 1_555
O23 In7 1_555 1_555
C70 H37 1_555 1_555
C71 C60 1_555 1_555
H38 C71 1_555 1_555
C72 C46 1_555 1_555
H39 C72 1_555 1_555
C75 C65 1_555 1_555
C77 N4 1_555 1_555
C78 C67 1_555 1_555
H43 C78 1_555 1_555
C79 O22 1_555 1_555
C80 C57 1_555 1_555
H44 C80 1_555 1_555
C81 C70 1_555 1_555
H45 C81 1_555 1_555
C82 C75 1_555 1_555
H46 C82 1_555 1_555
C83 C69 1_555 1_555
H47 C83 1_555 1_555
C84 C77 1_555 1_555
H48 C84 1_555 1_555
O24 C68 1_555 1_555
O25 In1 1_555 1_555
O26 In1 1_555 1_555
O28 In2 1_555 1_555
O30 In2 1_555 1_555
O31 In1 1_555 1_555
O32 In1 1_555 1_555
O33 In2 1_555 1_555
O9 C19 1_555 1_555
C7 C19 1_555 1_555
C12 C13 1_555 1_555
C20 C21 1_555 1_555
C24 C32 1_555 1_555
C25 C29 1_555 1_555
C27 C37 1_555 1_555
C30 C36 1_555 1_555
C31 C34 1_555 1_555
C35 C39 1_555 1_555
C41 C42 1_555 1_555
O19 C53 1_555 1_555
C67 C71 1_555 1_555
C68 C75 1_555 1_555
C69 C79 1_555 1_555
C72 C78 1_555 1_555
C77 C81 1_555 1_555
C80 C82 1_555 1_555
C83 C84 1_555 1_555
C14 H6 1_555 1_555
C15 C14 1_555 1_555
C23 C14 1_555 1_555
H12 C23 1_555 1_555
C26 O33 1_555 1_555
C33 C23 1_555 1_555
C38 C15 1_555 1_555
H20 C38 1_555 1_555
C40 C33 1_555 1_555
H22 C40 1_555 1_555
O12 C26 1_555 1_555
O13 C47 1_555 1_555
O15 C59 1_555 1_555
O16 C59 1_555 1_555
O17 C47 1_555 1_555
N3 C45 1_555 1_555
O20 In7 1_555 1_555
O21 In7 1_555 1_555
C43 C47 1_555 1_555
C44 C51 1_555 1_555
C45 C52 1_555 1_555
C48 N3 1_555 1_555
C49 C50 1_555 1_555
C50 H25 1_555 1_555
C51 H26 1_555 1_555
C52 C51 1_555 1_555
H27 C52 1_555 1_555
C54 C48 1_555 1_555
H28 C54 1_555 1_555
C55 C43 1_555 1_555
H29 C55 1_555 1_555
C58 C48 1_555 1_555
H31 C58 1_555 1_555
C59 C44 1_555 1_555
C61 O20 1_555 1_555
C62 C44 1_555 1_555
H33 C62 1_555 1_555
C63 C45 1_555 1_555
H34 C63 1_555 1_555
C64 C43 1_555 1_555
H35 C64 1_555 1_555
C66 N3 1_555 1_555
C73 C49 1_555 1_555
H40 C73 1_555 1_555
C74 C50 1_555 1_555
H41 C74 1_555 1_555
C76 C66 1_555 1_555
H42 C76 1_555 1_555
In5_2 O13 1_555 1_555
In8 O15 1_555 1_555
O29 In7 1_555 1_555
C26 C33 1_555 1_555
C38 C40 1_555 1_555
O16 In8 1_555 1_555
O17 In5_2 1_555 1_555
O21 C61 1_555 1_555
C49 C61 1_555 1_555
C54 C55 1_555 1_555
C58 C64 1_555 1_555
C62 C63 1_555 1_555
C66 C74 1_555 1_555
C73 C76 1_555 1_555
O14_2 In5 1_555 1_555
O19_2 In5 1_555 1_555
C46_2 C53_2 1_555 1_555
C53_2 O14_2 1_555 1_555
C60_2 C46_2 1_555 1_555
H32_2 C60_2 1_555 1_555
C72_2 C46_2 1_555 1_555
H39_2 C72_2 1_555 1_555
O19_2 C53_2 1_555 1_555
O4_2 C17_2 1_555 1_555
O4_2 In9_2 1_555 1_555
O18_2 C79_2 1_555 1_555
N4_2 C57_2 1_555 1_555
C56_2 H30_2 1_555 1_555
C57_2 C56_2 1_555 1_555
C65_2 C56_2 1_555 1_555
H36_2 C65_2 1_555 1_555
C67_2 N4_2 1_555 1_555
C68_2 O23_2 1_555 1_555
C69_2 C70_2 1_555 1_555
O23_2 In7_2 1_555 1_555
C70_2 H37_2 1_555 1_555
H38_2 C71_2 1_555 1_555
C75_2 C65_2 1_555 1_555
C77_2 N4_2 1_555 1_555
C78_2 C67_2 1_555 1_555
H43_2 C78_2 1_555 1_555
C79_2 O22_2 1_555 1_555
C80_2 C57_2 1_555 1_555
H44_2 C80_2 1_555 1_555
C81_2 C70_2 1_555 1_555
H45_2 C81_2 1_555 1_555
C82_2 C75_2 1_555 1_555
H46_2 C82_2 1_555 1_555
C83_2 C69_2 1_555 1_555
H47_2 C83_2 1_555 1_555
C84_2 C77_2 1_555 1_555
H48_2 C84_2 1_555 1_555
O24_2 C68_2 1_555 1_555
C67_2 C71_2 1_555 1_555
C68_2 C75_2 1_555 1_555
C69_2 C79_2 1_555 1_555
C77_2 C81_2 1_555 1_555
C80_2 C82_2 1_555 1_555
C83_2 C84_2 1_555 1_555
O26 C47_2 1_555 1_555
O32 C47_2 1_555 1_555
N3_2 C45_2 1_555 1_555
O20_2 In7_2 1_555 1_555
O21_2 In7_2 1_555 1_555
C43_2 C47_2 1_555 1_555
C44_2 C51_2 1_555 1_555
C45_2 C52_2 1_555 1_555
C48_2 N3_2 1_555 1_555
C49_2 C50_2 1_555 1_555
C50_2 H25_2 1_555 1_555
C51_2 H26_2 1_555 1_555
C52_2 C51_2 1_555 1_555
H27_2 C52_2 1_555 1_555
C54_2 C48_2 1_555 1_555
H28_2 C54_2 1_555 1_555
C55_2 C43_2 1_555 1_555
H29_2 C55_2 1_555 1_555
C58_2 C48_2 1_555 1_555
H31_2 C58_2 1_555 1_555
C61_2 O20_2 1_555 1_555
C62_2 C44_2 1_555 1_555
H33_2 C62_2 1_555 1_555
C63_2 C45_2 1_555 1_555
H34_2 C63_2 1_555 1_555
C64_2 C43_2 1_555 1_555
H35_2 C64_2 1_555 1_555
C66_2 N3_2 1_555 1_555
C73_2 C49_2 1_555 1_555
H40_2 C73_2 1_555 1_555
C74_2 C50_2 1_555 1_555
H41_2 C74_2 1_555 1_555
C76_2 C66_2 1_555 1_555
H42_2 C76_2 1_555 1_555
O29_2 In7_2 1_555 1_555
O21_2 C61_2 1_555 1_555
C49_2 C61_2 1_555 1_555
C54_2 C55_2 1_555 1_555
C58_2 C64_2 1_555 1_555
C62_2 C63_2 1_555 1_555
C66_2 C74_2 1_555 1_555
C73_2 C76_2 1_555 1_555
In5_2 O2_2 1_555 1_555
O2_2 C11_2 1_555 1_555
O7_2 In5_2 1_555 1_555
C4_2 C11_2 1_555 1_555
C11_2 O7_2 1_555 1_555
C18_2 C4_2 1_555 1_555
H8_2 C18_2 1_555 1_555
C30_2 C4_2 1_555 1_555
H15_2 C30_2 1_555 1_555
O25 C5_2 1_555 1_555
O31 C5_2 1_555 1_555
C1_2 C5_2 1_555 1_555
C9_2 H2_2 1_555 1_555
H7_2 C16_2 1_555 1_555
C22_2 C1_2 1_555 1_555
H11_2 C22_2 1_555 1_555
C16_2 C22_2 1_555 1_555
In2_2 O6_2 1_555 1_555
O6_2 C37_2 1_555 1_555
N1_2 C3_2 1_555 1_555
O8_2 In2_2 1_555 1_555
O9_2 In2_2 1_555 1_555
C3_2 C10_2 1_555 1_555
C6_2 N1_2 1_555 1_555
C7_2 C8_2 1_555 1_555
C8_2 H1_2 1_555 1_555
O10_2 In2_2 1_555 1_555
C12_2 C6_2 1_555 1_555
H4_2 C12_2 1_555 1_555
H5_2 C13_2 1_555 1_555
C19_2 O8_2 1_555 1_555
C20_2 C2_2 1_555 1_555
H9_2 C20_2 1_555 1_555
C21_2 C3_2 1_555 1_555
H10_2 C21_2 1_555 1_555
C24_2 N1_2 1_555 1_555
C25_2 N2_2 1_555 1_555
C27_2 C28_2 1_555 1_555
C28_2 H13_2 1_555 1_555
C31_2 C7_2 1_555 1_555
H16_2 C31_2 1_555 1_555
C32_2 C8_2 1_555 1_555
H17_2 C32_2 1_555 1_555
C34_2 C24_2 1_555 1_555
H18_2 C34_2 1_555 1_555
C35_2 N2_2 1_555 1_555
C36_2 C25_2 1_555 1_555
H19_2 C36_2 1_555 1_555
C37_2 O10_2 1_555 1_555
C39_2 C28_2 1_555 1_555
H21_2 C39_2 1_555 1_555
C41_2 C27_2 1_555 1_555
H23_2 C41_2 1_555 1_555
C42_2 C35_2 1_555 1_555
H24_2 C42_2 1_555 1_555
O28_2 In2_2 1_555 1_555
O30_2 In2_2 1_555 1_555
O33_2 In2_2 1_555 1_555
O9_2 C19_2 1_555 1_555
C7_2 C19_2 1_555 1_555
C12_2 C13_2 1_555 1_555
C20_2 C21_2 1_555 1_555
C24_2 C32_2 1_555 1_555
C25_2 C29_2 1_555 1_555
C27_2 C37_2 1_555 1_555
C31_2 C34_2 1_555 1_555
C35_2 C39_2 1_555 1_555
C41_2 C42_2 1_555 1_555
C14_2 H6_2 1_555 1_555
C15_2 C14_2 1_555 1_555
C23_2 C14_2 1_555 1_555
H12_2 C23_2 1_555 1_555
C26_2 O33_2 1_555 1_555
C33_2 C23_2 1_555 1_555
C38_2 C15_2 1_555 1_555
H20_2 C38_2 1_555 1_555
C40_2 C33_2 1_555 1_555
H22_2 C40_2 1_555 1_555
O12_2 C26_2 1_555 1_555
O15_2 C59_2 1_555 1_555
O16_2 C59_2 1_555 1_555
In8_2 O15_2 1_555 1_555
C26_2 C33_2 1_555 1_555
C38_2 C40_2 1_555 1_555
O16_2 In8_2 1_555 1_555
C14_3 H6_3 1_555 1_555
C15_3 C14_3 1_555 1_555
C23_3 C14_3 1_555 1_555
H12_3 C23_3 1_555 1_555
C26_3 O11 1_555 1_555
O11 In8_2 1_555 1_555
C33_3 C23_3 1_555 1_555
C38_3 C15_3 1_555 1_555
H20_3 C38_3 1_555 1_555
C40_3 C33_3 1_555 1_555
H22_3 C40_3 1_555 1_555
O12_3 C26_3 1_555 1_555
O13_2 C47_3 1_555 1_555
O28_2 C59_3 1_555 1_555
O30_2 C59_3 1_555 1_555
O17_2 C47_3 1_555 1_555
N3_3 C45_3 1_555 1_555
O20_3 In9_2 1_555 1_555
O21_3 In9_2 1_555 1_555
C43_3 C47_3 1_555 1_555
C44_3 C51_3 1_555 1_555
C45_3 C52_3 1_555 1_555
C48_3 N3_3 1_555 1_555
C49_3 C50_3 1_555 1_555
C50_3 H25_3 1_555 1_555
C51_3 H26_3 1_555 1_555
C52_3 C51_3 1_555 1_555
H27_3 C52_3 1_555 1_555
C54_3 C48_3 1_555 1_555
H28_3 C54_3 1_555 1_555
C55_3 C43_3 1_555 1_555
H29_3 C55_3 1_555 1_555
C58_3 C48_3 1_555 1_555
H31_3 C58_3 1_555 1_555
C59_3 C44_3 1_555 1_555
C61_3 O20_3 1_555 1_555
C62_3 C44_3 1_555 1_555
H33_3 C62_3 1_555 1_555
C63_3 C45_3 1_555 1_555
H34_3 C63_3 1_555 1_555
C64_3 C43_3 1_555 1_555
H35_3 C64_3 1_555 1_555
C66_3 N3_3 1_555 1_555
C73_3 C49_3 1_555 1_555
H40_3 C73_3 1_555 1_555
C74_3 C50_3 1_555 1_555
H41_3 C74_3 1_555 1_555
C76_3 C66_3 1_555 1_555
H42_3 C76_3 1_555 1_555
In4 O13_2 1_555 1_555
O34 In9_2 1_555 1_555
C26_3 C33_3 1_555 1_555
C38_3 C40_3 1_555 1_555
O17_2 In4 1_555 1_555
O21_3 C61_3 1_555 1_555
C49_3 C61_3 1_555 1_555
C54_3 C55_3 1_555 1_555
C58_3 C64_3 1_555 1_555
C62_3 C63_3 1_555 1_555
C66_3 C74_3 1_555 1_555
C73_3 C76_3 1_555 1_555
In1_2 O2_3 1_555 1_555
In8_2 O6_3 1_555 1_555
O2_3 C11_3 1_555 1_555
O6_3 C37_3 1_555 1_555
N1_3 C3_3 1_555 1_555
O7_3 In1_2 1_555 1_555
O8_3 In8_2 1_555 1_555
O9_3 In8_2 1_555 1_555
C3_3 C10_3 1_555 1_555
C4_3 C11_3 1_555 1_555
C6_3 N1_3 1_555 1_555
C7_3 C8_3 1_555 1_555
C8_3 H1_3 1_555 1_555
O10_3 In8_2 1_555 1_555
C11_3 O7_3 1_555 1_555
C12_3 C6_3 1_555 1_555
H4_3 C12_3 1_555 1_555
H5_3 C13_3 1_555 1_555
C18_3 C4_3 1_555 1_555
H8_3 C18_3 1_555 1_555
C19_3 O8_3 1_555 1_555
C20_3 C2_3 1_555 1_555
H9_3 C20_3 1_555 1_555
C21_3 C3_3 1_555 1_555
H10_3 C21_3 1_555 1_555
C24_3 N1_3 1_555 1_555
C25_3 N2_3 1_555 1_555
C27_3 C28_3 1_555 1_555
C28_3 H13_3 1_555 1_555
C29_3 C18_3 1_555 1_555
C30_3 C4_3 1_555 1_555
H15_3 C30_3 1_555 1_555
C31_3 C7_3 1_555 1_555
H16_3 C31_3 1_555 1_555
C32_3 C8_3 1_555 1_555
H17_3 C32_3 1_555 1_555
C34_3 C24_3 1_555 1_555
H18_3 C34_3 1_555 1_555
C35_3 N2_3 1_555 1_555
C36_3 C25_3 1_555 1_555
H19_3 C36_3 1_555 1_555
C37_3 O10_3 1_555 1_555
C39_3 C28_3 1_555 1_555
H21_3 C39_3 1_555 1_555
C41_3 C27_3 1_555 1_555
H23_3 C41_3 1_555 1_555
C42_3 C35_3 1_555 1_555
H24_3 C42_3 1_555 1_555
O14_3 In1_2 1_555 1_555
O18_3 C79_3 1_555 1_555
O19_3 In1_2 1_555 1_555
C46_3 C53_3 1_555 1_555
N4_3 C57_3 1_555 1_555
C53_3 O14_3 1_555 1_555
C56_3 H30_3 1_555 1_555
C57_3 C56_3 1_555 1_555
C60_3 C46_3 1_555 1_555
H32_3 C60_3 1_555 1_555
C65_3 C56_3 1_555 1_555
H36_3 C65_3 1_555 1_555
C67_3 N4_3 1_555 1_555
C68_3 O34 1_555 1_555
C69_3 C70_3 1_555 1_555
C70_3 H37_3 1_555 1_555
C71_3 C60_3 1_555 1_555
H38_3 C71_3 1_555 1_555
C72_3 C46_3 1_555 1_555
H39_3 C72_3 1_555 1_555
C75_3 C65_3 1_555 1_555
C77_3 N4_3 1_555 1_555
C78_3 C67_3 1_555 1_555
H43_3 C78_3 1_555 1_555
C79_3 O22_3 1_555 1_555
C80_3 C57_3 1_555 1_555
H44_3 C80_3 1_555 1_555
C81_3 C70_3 1_555 1_555
H45_3 C81_3 1_555 1_555
C82_3 C75_3 1_555 1_555
H46_3 C82_3 1_555 1_555
C83_3 C69_3 1_555 1_555
H47_3 C83_3 1_555 1_555
C84_3 C77_3 1_555 1_555
H48_3 C84_3 1_555 1_555
O24_3 C68_3 1_555 1_555
O25_2 In1_2 1_555 1_555
O26_2 In1_2 1_555 1_555
O31_2 In1_2 1_555 1_555
O32_2 In1_2 1_555 1_555
O9_3 C19_3 1_555 1_555
C7_3 C19_3 1_555 1_555
C12_3 C13_3 1_555 1_555
C20_3 C21_3 1_555 1_555
C24_3 C32_3 1_555 1_555
C25_3 C29_3 1_555 1_555
C27_3 C37_3 1_555 1_555
C30_3 C36_3 1_555 1_555
C31_3 C34_3 1_555 1_555
C35_3 C39_3 1_555 1_555
C41_3 C42_3 1_555 1_555
O19_3 C53_3 1_555 1_555
C67_3 C71_3 1_555 1_555
C68_3 C75_3 1_555 1_555
C69_3 C79_3 1_555 1_555
C72_3 C78_3 1_555 1_555
C77_3 C81_3 1_555 1_555
C80_3 C82_3 1_555 1_555
C83_3 C84_3 1_555 1_555
O1_2 C5_3 1_555 1_555
O29_2 C17_3 1_555 1_555
O5_2 C5_3 1_555 1_555
C1_3 C5_3 1_555 1_555
C9_3 H2_3 1_555 1_555
H7_3 C16_3 1_555 1_555
C22_3 C1_3 1_555 1_555
H11_3 C22_3 1_555 1_555
In4_2 O1_2 1_555 1_555
O5_2 In4_2 1_555 1_555
C16_3 C22_3 1_555 1_555
C14_4 H6_4 1_555 1_555
C15_4 C14_4 1_555 1_555
C23_4 C14_4 1_555 1_555
H12_4 C23_4 1_555 1_555
C26_4 O11_2 1_555 1_555
O11_2 In8 1_555 1_555
C33_4 C23_4 1_555 1_555
C38_4 C15_4 1_555 1_555
H20_4 C38_4 1_555 1_555
C40_4 C33_4 1_555 1_555
H22_4 C40_4 1_555 1_555
O12_4 C26_4 1_555 1_555
O28 C59_4 1_555 1_555
O30 C59_4 1_555 1_555
C26_4 C33_4 1_555 1_555
C38_4 C40_4 1_555 1_555
In8 O6_4 1_555 1_555
O6_4 C37_4 1_555 1_555
N1_4 C3_4 1_555 1_555
O8_4 In8 1_555 1_555
O9_4 In8 1_555 1_555
C3_4 C10_4 1_555 1_555
C6_4 N1_4 1_555 1_555
C7_4 C8_4 1_555 1_555
C8_4 H1_4 1_555 1_555
O10_4 In8 1_555 1_555
C12_4 C6_4 1_555 1_555
H4_4 C12_4 1_555 1_555
H5_4 C13_4 1_555 1_555
C19_4 O8_4 1_555 1_555
C20_4 C2_4 1_555 1_555
H9_4 C20_4 1_555 1_555
C21_4 C3_4 1_555 1_555
H10_4 C21_4 1_555 1_555
C24_4 N1_4 1_555 1_555
C25_4 N2_4 1_555 1_555
C27_4 C28_4 1_555 1_555
C28_4 H13_4 1_555 1_555
C31_4 C7_4 1_555 1_555
H16_4 C31_4 1_555 1_555
C32_4 C8_4 1_555 1_555
H17_4 C32_4 1_555 1_555
C34_4 C24_4 1_555 1_555
H18_4 C34_4 1_555 1_555
C35_4 N2_4 1_555 1_555
C36_4 C25_4 1_555 1_555
H19_4 C36_4 1_555 1_555
C37_4 O10_4 1_555 1_555
C39_4 C28_4 1_555 1_555
H21_4 C39_4 1_555 1_555
C41_4 C27_4 1_555 1_555
H23_4 C41_4 1_555 1_555
C42_4 C35_4 1_555 1_555
H24_4 C42_4 1_555 1_555
O9_4 C19_4 1_555 1_555
C7_4 C19_4 1_555 1_555
C12_4 C13_4 1_555 1_555
C20_4 C21_4 1_555 1_555
C24_4 C32_4 1_555 1_555
C25_4 C29_4 1_555 1_555
C27_4 C37_4 1_555 1_555
C31_4 C34_4 1_555 1_555
C35_4 C39_4 1_555 1_555
C41_4 C42_4 1_555 1_555
O25_2 C5_4 1_555 1_555
O31_2 C5_4 1_555 1_555
C1_4 C5_4 1_555 1_555
C9_4 H2_4 1_555 1_555
H7_4 C16_4 1_555 1_555
C22_4 C1_4 1_555 1_555
H11_4 C22_4 1_555 1_555
C16_4 C22_4 1_555 1_555
In4 O2_4 1_555 1_555
O2_4 C11_4 1_555 1_555
O7_4 In4 1_555 1_555
C4_4 C11_4 1_555 1_555
C11_4 O7_4 1_555 1_555
C18_4 C4_4 1_555 1_555
H8_4 C18_4 1_555 1_555
C30_4 C4_4 1_555 1_555
H15_4 C30_4 1_555 1_555
O26_2 C47_4 1_555 1_555
O32_2 C47_4 1_555 1_555
N3_4 C45_4 1_555 1_555
O20_4 In9 1_555 1_555
O21_4 In9 1_555 1_555
C43_4 C47_4 1_555 1_555
C44_4 C51_4 1_555 1_555
C45_4 C52_4 1_555 1_555
C48_4 N3_4 1_555 1_555
C49_4 C50_4 1_555 1_555
C50_4 H25_4 1_555 1_555
C51_4 H26_4 1_555 1_555
C52_4 C51_4 1_555 1_555
H27_4 C52_4 1_555 1_555
C54_4 C48_4 1_555 1_555
H28_4 C54_4 1_555 1_555
C55_4 C43_4 1_555 1_555
H29_4 C55_4 1_555 1_555
C58_4 C48_4 1_555 1_555
H31_4 C58_4 1_555 1_555
C61_4 O20_4 1_555 1_555
C62_4 C44_4 1_555 1_555
H33_4 C62_4 1_555 1_555
C63_4 C45_4 1_555 1_555
H34_4 C63_4 1_555 1_555
C64_4 C43_4 1_555 1_555
H35_4 C64_4 1_555 1_555
C66_4 N3_4 1_555 1_555
C73_4 C49_4 1_555 1_555
H40_4 C73_4 1_555 1_555
C74_4 C50_4 1_555 1_555
H41_4 C74_4 1_555 1_555
C76_4 C66_4 1_555 1_555
H42_4 C76_4 1_555 1_555
O34_2 In9 1_555 1_555
O21_4 C61_4 1_555 1_555
C49_4 C61_4 1_555 1_555
C54_4 C55_4 1_555 1_555
C58_4 C64_4 1_555 1_555
C62_4 C63_4 1_555 1_555
C66_4 C74_4 1_555 1_555
C73_4 C76_4 1_555 1_555
O18_4 C79_4 1_555 1_555
N4_4 C57_4 1_555 1_555
C56_4 H30_4 1_555 1_555
C57_4 C56_4 1_555 1_555
C65_4 C56_4 1_555 1_555
H36_4 C65_4 1_555 1_555
C67_4 N4_4 1_555 1_555
C68_4 O34_2 1_555 1_555
C69_4 C70_4 1_555 1_555
C70_4 H37_4 1_555 1_555
H38_4 C71_4 1_555 1_555
C75_4 C65_4 1_555 1_555
C77_4 N4_4 1_555 1_555
C78_4 C67_4 1_555 1_555
H43_4 C78_4 1_555 1_555
C79_4 O22_4 1_555 1_555
C80_4 C57_4 1_555 1_555
H44_4 C80_4 1_555 1_555
C81_4 C70_4 1_555 1_555
H45_4 C81_4 1_555 1_555
C82_4 C75_4 1_555 1_555
H46_4 C82_4 1_555 1_555
C83_4 C69_4 1_555 1_555
H47_4 C83_4 1_555 1_555
C84_4 C77_4 1_555 1_555
H48_4 C84_4 1_555 1_555
O24_4 C68_4 1_555 1_555
C67_4 C71_4 1_555 1_555
C68_4 C75_4 1_555 1_555
C69_4 C79_4 1_555 1_555
C77_4 C81_4 1_555 1_555
C80_4 C82_4 1_555 1_555
C83_4 C84_4 1_555 1_555
O29 C17_4 1_555 1_555
O14_4 In4_2 1_555 1_555
O19_4 In4_2 1_555 1_555
C46_4 C53_4 1_555 1_555
C53_4 O14_4 1_555 1_555
C60_4 C46_4 1_555 1_555
H32_4 C60_4 1_555 1_555
C72_4 C46_4 1_555 1_555
H39_4 C72_4 1_555 1_555
O19_4 C53_4 1_555 1_555

#END
