
###############################################################################
#
# This file contains modified crystal structure data generated from the
# MOF subset of the Cambridge Structural Database (CSD) v543 
# hosted by the Cambridge Crystallographic Data Centre (CCDC).
#
# This work is licensed under the Creative Commons
# Attribution-NonCommercial-ShareAlike 4.0 International License.
# To view a copy of this license, visit
# http://creativecommons.org/licenses/by-nc-sa/4.0/
# or send a letter to
# Creative Commons, PO Box 1866, Mountain View, CA 94042, USA.
#
# CIF created using the CSD Python API on 29 September 2022
# The structure has been converted into the P1 space group
# The structure has a 3D framework
# The original CSD entry VEWTEZ is in the monoclinic crystal system
# The original CSD entry VEWTEZ is in a Sohncke space group
# The framework has been calculated to contain at least 10.0% void space
# The void calculation uses a probe of radius 1.32A, grid spacing 0.4
# The framework is charged, counterions have been retained in the structure
# H atom positions have been added when not included in the experimental data
#
###############################################################################

data_VEWTEZ
_chemical_formula_moiety         '(C216 H208 Cu14 N54 O88 P8 6+)n'
_symmetry_cell_setting           triclinic
_symmetry_space_group_name_H-M   'P 1'
_symmetry_Int_Tables_number      1
_space_group_name_Hall           'P 1'
loop_
_symmetry_equiv_pos_site_id
_symmetry_equiv_pos_as_xyz
1 x,y,z
_cell_length_a                   15.2378(11)
_cell_length_b                   35.525(3)
_cell_length_c                   16.7521(12)
_cell_angle_alpha                90
_cell_angle_beta                 95.389(3)
_cell_angle_gamma                90
_cell_volume                     9028.21
loop_
_atom_site_label
_atom_site_type_symbol
_atom_site_fract_x
_atom_site_fract_y
_atom_site_fract_z
N1 N 0.67249(9) 0.20358(16) 0.52672(19)
O1 O 0.6402(2) 0.1991(3) 0.5925(4)
O2 O 0.6788(3) 0.1748(3) 0.4801(4)
O3 O 0.7003(2) 0.2368(3) 0.5034(4)
N1_2 N 0.32751(9) 0.70358(16) 0.47328(19)
O1_2 O 0.3598(2) 0.6991(3) 0.4075(4)
O2_2 O 0.3212(3) 0.6748(3) 0.5199(4)
O3_2 O 0.2997(2) 0.7368(3) 0.4966(4)
N2 N 0.53151(2) 0.84528(7) 0.45972(4)
O4 O 0.5597(7) 0.8212(4) 0.5103(7)
O5 O 0.52223(2) 0.87772(8) 0.45675(4)
O6 O 0.6021(8) 0.8452(3) 0.4068(4)
N2_2 N 0.46849(2) 0.34528(7) 0.54028(4)
O4_2 O 0.4403(7) 0.3212(4) 0.4897(7)
O5_2 O 0.47777(2) 0.37772(8) 0.54325(4)
O6_2 O 0.3979(8) 0.3452(3) 0.5932(4)
N3 N 0.38508(18) 0.25767(2) 0.05408(2)
O7 O 0.4511(3) 0.24137(2) 0.04168(2)
O8 O 0.3079(3) 0.25700(2) 0.05646(2)
O9 O 0.3718(10) 0.2712(5) 0.9669(8)
O9_2 O 0.6282(10) 0.7712(5) 0.0331(8)
N3_2 N 0.61492(18) 0.75767(2) 0.94592(2)
O7_2 O 0.5489(3) 0.74137(2) 0.95832(2)
O8_2 O 0.6921(3) 0.75700(2) 0.94354(2)
Cu5 Cu 0.17772(7) 0.06245(5) 0.01176(6)
O12 O 0.0491(5) 0.0352(2) 0.0445(4)
H19 H 0.3187 0.1891 0.0370
C29 C 0.4216(7) 0.1251(3) 0.0507(6)
H20 H 0.4362 0.1399 0.0973
C30 C 0.4653(7) 0.0914(3) 0.0399(6)
H21 H 0.5099 0.0832 0.0795
N12 N 0.20575(2) 0.09558(2) 0.10661(2)
N13 N 0.27466(5) 0.03091(3) 0.06799(5)
C49 C 0.17120(2) 0.12800(2) 0.12597(2)
H33 H 0.1222 0.1374 0.0925
C50 C 0.2030(7) 0.1498(3) 0.1941(6)
H34 H 0.1802 0.1743 0.2023
C51 C 0.2652(7) 0.1351(3) 0.2458(6)
H35 H 0.2840 0.1487 0.2932
C52 C 0.3046(6) 0.0994(3) 0.2324(5)
C53 C 0.3779(7) 0.0815(3) 0.2816(6)
H36 H 0.4006 0.0931 0.3303
C54 C 0.4125(7) 0.0500(3) 0.2596(6)
H37 H 0.4593 0.0391 0.2934
C55 C 0.3823(6) 0.0311(3) 0.1861(6)
C58 C 0.3120(6) 0.0004(3) 0.0430(5)
C59 C 0.3100(6) 0.0466(3) 0.1399(5)
C60 C 0.2696(7) 0.0812(3) 0.1621(6)
H102 H 0.0591832 0.00799182 0.0554197
H103 H 0.0298063 0.047593 0.0930285
Cu1 Cu 0.42002(7) 0.12056(5) 0.65441(6)
Cu2 Cu 0.17395(7) 0.11437(5) 0.47586(6)
Cu3 Cu 0.27017(7) 0.08832(5) 0.76801(6)
Cu4 Cu 0.06406(7) 0.09837(5) 0.72798(6)
O10 O 0.4930(4) 0.1515(2) 0.5678(4)
O11 O 0.3083(4) 0.1294(2) 0.4440(4)
P1 P 0.29749(16) 0.06031(8) 0.59213(14)
O14 O 0.3789(4) 0.08330(19) 0.5718(4)
O15 O 0.2143(4) 0.0753(2) 0.5510(4)
O16 O 0.2979(4) 0.0544(2) 0.6815(4)
O17 O 0.3016(5) 0.01984(19) 0.5518(4)
P2 P 0.21718(15) 0.15122(8) 0.64074(14)
O18 O 0.3175(4) 0.15210(19) 0.6345(4)
O19 O 0.1638(4) 0.14999(19) 0.5601(4)
O20 O 0.1921(4) 0.1223(2) 0.7016(3)
O21 O 0.1886(4) 0.18861(19) 0.6845(4)
P3 P 0.13362(16) 0.02546(8) 0.83681(14)
O22 O 0.1393(4) 0.06160(18) 0.7874(4)
O23 O 0.1811(4) 0.02882(17) 0.9200(3)
O24 O 0.0424(4) 0.0102(2) 0.8354(5)
N4 N 0.45889(2) 0.14895(2) 0.75460(2)
N5 N 0.51880(4) 0.08517(3) 0.70060(6)
C1 C 0.42808(2) 0.18175(2) 0.78237(3)
H1 H 0.3845 0.1948 0.7489
C2 C 0.4555(7) 0.1975(3) 0.8559(6)
H2 H 0.4285 0.2199 0.8728
C3 C 0.5237(7) 0.1803(3) 0.9057(6)
H3 H 0.5449 0.1913 0.9555
C4 C 0.5609(6) 0.1453(3) 0.8788(6)
C5 C 0.6273(7) 0.1227(4) 0.9222(6)
H4 H 0.6515 0.1308 0.9737
C6 C 0.6566(7) 0.0902(3) 0.8919(7)
H5 H 0.7005 0.0759 0.9223
C7 C 0.6231(6) 0.0778(3) 0.8177(6)
C8 C 0.6487(7) 0.0439(4) 0.7891(7)
H6 H 0.6924 0.0296 0.8197
C9 C 0.6101(7) 0.0295(3) 0.7123(6)
H7 H 0.6280 0.0063 0.6906
C10 C 0.5424(6) 0.0530(3) 0.6716(6)
H8 H 0.5141 0.0447 0.6217
C11 C 0.5559(5) 0.0973(3) 0.7747(5)
C12 C 0.5233(6) 0.1321(3) 0.8016(5)
N6 N 0.09793(2) 0.14701(2) 0.40162(2)
N7 N 0.15294(4) 0.07667(4) 0.38551(5)
C13 C 0.07071(2) 0.18182(2) 0.40959(3)
H9 H 0.0944 0.1958 0.4550
C14 C 0.0105(7) 0.1990(3) 0.3564(6)
C16 C 0.0015(7) 0.1436(3) 0.2760(6)
C18 C 0.0016(7) 0.0861(4) 0.2001(6)
C19 C 0.0656(7) 0.0685(3) 0.2563(6)
C20 C 0.1005(7) 0.0327(3) 0.2519(7)
H14 H 0.0851 0.0179 0.2055
C21 C 0.1553(7) 0.0184(4) 0.3110(7)
C22 C 0.1828(7) 0.0423(3) 0.3794(6)
H16 H 0.2235 0.0327 0.4209
C23 C 0.0937(6) 0.0900(3) 0.3245(5)
C24 C 0.0640(6) 0.1267(3) 0.3343(6)
N8 N 0.27981(2) 0.12542(2) 0.85820(2)
N9 N 0.35918(4) 0.06104(3) 0.84209(5)
C25 C 0.23886(2) 0.15864(2) 0.86651(3)
H17 H 0.2005 0.1673 0.8224
C26 C 0.2485(7) 0.1811(3) 0.9347(7)
H18 H 0.2125 0.2028 0.9386
C27 C 0.3070(7) 0.1725(3) 0.9929(6)
C28 C 0.3543(7) 0.1373(3) 0.9906(6)
C31 C 0.4447(6) 0.0697(3) 0.9723(6)
C32 C 0.4867(8) 0.0335(3) 0.9561(7)
H22 H 0.5307 0.0237 0.9945
C33 C 0.4643(7) 0.0136(3) 0.8877(6)
C34 C 0.3968(6) 0.0288(3) 0.8311(6)
H24 H 0.3791 0.0149 0.7840
C35 C 0.3811(6) 0.0812(3) 0.9117(6)
C36 C 0.3366(6) 0.1153(3) 0.9204(5)
N11 N 0.03940(4) 0.06690(4) 0.62874(6)
C45 C 0.0469(7) 0.0133(3) 0.5414(6)
C46 C 0.0699(7) 0.0320(3) 0.6173(7)
H32 H 0.1061 0.0197 0.6586
N19 N 0.41338(12) 0.28375(2) 0.72830(4)
C82 C 0.4779(3) 0.30626(4) 0.76233(11)
O34 O 0.4682(4) 0.32673(9) 0.8183(2)
N20 N 0.5575(4) 0.30569(9) 0.7317(2)
C83 C 0.5733(5) 0.28340(9) 0.6689(2)
N21 N 0.6491(5) 0.28349(9) 0.6414(2)
H61 H 0.6914 0.2981 0.6633
H62 H 0.6588 0.2690 0.6006
C84 C 0.5018(5) 0.25980(9) 0.6346(2)
H63 H 0.5100 0.2438 0.5906
C85 C 0.4280(5) 0.26078(9) 0.6641(2)
H64 H 0.3814 0.2453 0.6414
O35 O 0.2837(5) 0.2502(2) 0.7472(4)
C86 C 0.32919(19) 0.28497(3) 0.76223(7)
H65 H 0.3400 0.2887 0.8215
C87 C 0.2621(8) 0.3171(3) 0.7255(7)
H66 H 0.2951 0.3384 0.7033
O36 O 0.2091(6) 0.3297(3) 0.7807(6)
H67 H 0.1585 0.3205 0.7711
C88 C 0.2090(7) 0.2951(3) 0.6572(7)
H68 H 0.2467 0.2920 0.6119
O37 O 0.1294(6) 0.3119(3) 0.6275(5)
H69 H 0.1038 0.3206 0.6658
C89 C 0.1993(7) 0.2560(3) 0.6976(6)
H70 H 0.1488 0.2561 0.7317
C90 C 0.1896(7) 0.2240(3) 0.6361(6)
H71 H 0.1342 0.2267 0.6008
H72 H 0.2398 0.2239 0.6026
Cu12 Cu 0.64013(8) 0.33913(5) 0.80048(6)
O46 O 0.0388(4) 0.12457(18) 0.8243(4)
O47 O 0.1130(5) 0.1047(2) 0.9603(4)
H96 H 0.451307 0.160233 0.522464
H97 H 0.522867 0.173567 0.594689
H98 H 0.335895 0.10705 0.421004
H99 H 0.30386 0.150069 0.403917
C56 C 0.4177(6) 0.9975(3) 0.1558(6)
H38 H 0.4664 0.9853 0.1844
C57 C 0.3820(6) 0.9837(3) 0.0878(6)
H39 H 0.4055 0.9611 0.0684
C91 C 0.32726(17) 0.88061(4) 0.06171(15)
O38 O 0.4007(3) 0.86742(8) 0.0517(3)
N23 N 0.2831(3) 0.87364(8) 0.1281(3)
C92 C 0.2032(3) 0.88887(8) 0.1353(3)
N24 N 0.1660(3) 0.88088(8) 0.1999(3)
H73 H 0.1929 0.8661 0.2365
H74 H 0.1138 0.8903 0.2069
C93 C 0.1660(3) 0.91167(8) 0.0751(3)
H75 H 0.1097 0.9222 0.0809
C94 C 0.2051(3) 0.91995(8) 0.0077(3)
Cu11 Cu 0.35987(8) 0.83913(5) 0.19952(6)
O25 O 0.1884(5) 0.99622(18) 0.7894(4)
O28 O 0.0291(5) 0.5743(3) 0.0948(5)
O29 O 0.0307(7) 0.6394(3) 0.0496(5)
H15 H 0.1759 0.9932 0.3084
H23 H 0.4924 0.9904 0.8778
H31 H 0.0674 0.9885 0.5329
H40 H 0.2906 0.9896 0.9930
N16 N 0.34982(5) 0.91558(2) 0.38111(5)
C73 C 0.34163(12) 0.88575(6) 0.33000(11)
O30 O 0.2854(3) 0.86156(12) 0.3362(2)
N17 N 0.3978(2) 0.88352(11) 0.2717(2)
C74 C 0.4582(3) 0.90884(12) 0.2638(2)
N18 N 0.5099(3) 0.90565(12) 0.2078(2)
H49 H 0.5046 0.8863 0.1748
H50 H 0.5507 0.9228 0.2025
C75 C 0.4673(3) 0.94077(13) 0.3182(2)
H51 H 0.5112 0.9593 0.3126
C76 C 0.4144(3) 0.94366(12) 0.3747(2)
H52 H 0.4192 0.9643 0.4109
O31 O 0.2813(5) 0.9543(2) 0.4750(4)
C77 C 0.28684(8) 0.91749(4) 0.44532(8)
H53 H 0.2270 0.9101 0.4206
C78 C 0.3103(9) 0.8925(4) 0.5131(7)
H54 H 0.3470 0.8712 0.4957
O32 O 0.2376(7) 0.8779(3) 0.5522(5)
H55 H 0.2221 0.8939 0.5851
C79 C 0.3676(9) 0.9186(3) 0.5707(7)
H56 H 0.4265 0.9232 0.5509
O33 O 0.3762(6) 0.9062(2) 0.6536(5)
H57 H 0.3929 0.9243 0.6835
C80 C 0.3099(7) 0.9540(3) 0.5632(6)
H58 H 0.2583 0.9518 0.5957
C81 C 0.3615(7) 0.9899(3) 0.5825(6)
H59 H 0.3764 0.9926 0.6411
H60 H 0.4166 0.9903 0.5556
N22 N 0.28697(7) 0.90455(2) 0.99951(6)
H76 H 0.1771 0.9359 0.9675
O39 O 0.2977(4) 0.9446(2) 0.8919(4)
C95 C 0.33586(11) 0.91133(2) 0.92980(10)
H77 H 0.3999 0.9152 0.9466
C96 C 0.3226(8) 0.8796(3) 0.8672(6)
H78 H 0.3107 0.8549 0.8927
O40 O 0.4010(6) 0.8781(2) 0.8251(5)
H79 H 0.4236 0.8565 0.8303
C97 C 0.2454(7) 0.8923(3) 0.8113(6)
H80 H 0.1897 0.8864 0.8357
O41 O 0.2402(5) 0.8776(2) 0.7337(4)
H81 H 0.2856 0.8649 0.7279
C98 C 0.2602(8) 0.9354(3) 0.8135(6)
H82 H 0.3016 0.9427 0.7732
C99 C 0.1715(7) 0.9569(3) 0.7963(6)
H83 H 0.1398 0.9475 0.7459
H84 H 0.1338 0.9524 0.8404
N25 N 0.19714(6) 0.75152(2) 0.12797(4)
C100 C 0.24154(16) 0.78208(5) 0.16264(11)
O42 O 0.2130(3) 0.79874(11) 0.2172(2)
N26 N 0.3187(3) 0.79324(10) 0.1341(2)
C101 C 0.3493(3) 0.77505(11) 0.0750(2)
N27 N 0.4263(3) 0.78713(11) 0.0485(2)
H85 H 0.4539 0.8067 0.0712
H86 H 0.4484 0.7754 0.0087
C102 C 0.3066(3) 0.74350(11) 0.0370(2)
C103 C 0.2306(3) 0.73261(11) 0.0653(2)
H88 H 0.1995 0.7116 0.0418
O43 O 0.0979(7) 0.7024(3) 0.1421(6)
C104 C 0.11732(10) 0.74063(3) 0.15885(7)
H89 H 0.1279 0.7427 0.2185
C105 C 0.0486(13) 0.7618(6) 0.1375(13)
H90 H 0.0653 0.7882 0.1254
C106 C 0.0033(19) 0.7414(5) 0.0636(13)
H92 H 0.0399 0.7438 0.0174
C107 C 0.0113(13) 0.7010(4) 0.0988(10)
C108 C 0.007(2) 0.6747(7) 0.0267(12)
Cu10 Cu 0.06747(9) 0.54062(6) 0.18194(10)
O49 O 0.5318(4) 0.82673(9) 0.1817(2)
N28 N 0.4425(4) 0.80569(9) 0.2683(2)
Cu6 Cu 0.93253(9) 0.04062(6) 0.81806(10)
O13 O 0.8418(6) 0.0096(3) 0.8899(7)
H10 H 0.9903 0.2237 0.3670
C15 C 0.9789(7) 0.1807(4) 0.2873(7)
H11 H 0.9416 0.1936 0.2476
C17 C 0.9736(7) 0.1202(3) 0.2065(6)
H12 H 0.9337 0.1303 0.1650
H13 H 0.9783 0.0717 0.1552
N10 N 0.99679(2) 0.13623(2) 0.66161(2)
C37 C 0.97466(2) 0.17223(2) 0.67868(3)
H25 H 0.9925 0.1819 0.7305
C38 C 0.9269(7) 0.1955(3) 0.6233(7)
H26 H 0.9154 0.2209 0.6372
C39 C 0.8962(7) 0.1820(3) 0.5484(7)
H27 H 0.8625 0.1976 0.5111
C40 C 0.9163(6) 0.1441(3) 0.5286(6)
C41 C 0.8887(7) 0.1269(3) 0.4524(6)
H28 H 0.8543 0.1411 0.4128
C42 C 0.9119(7) 0.0887(4) 0.4350(6)
H29 H 0.8919 0.0771 0.3856
C43 C 0.9650(6) 0.0697(3) 0.4940(5)
C44 C 0.9958(7) 0.0314(4) 0.4825(7)
H30 H 0.9798 0.0188 0.4331
C47 C 0.9902(6) 0.0849(3) 0.5688(6)
C48 C 0.9647(6) 0.1216(3) 0.5869(5)
N14 N 0.85112(2) 0.07818(2) 0.75927(2)
N15 N 0.89392(4) 0.00991(5) 0.72076(7)
C61 C 0.83170(2) 0.10916(2) 0.77674(3)
H41 H 0.8541 0.1191 0.8272
C62 C 0.7717(10) 0.1333(6) 0.7203(14)
H42 H 0.7576 0.1582 0.7353
C63 C 0.7414(11) 0.1208(9) 0.6554(17)
H43 H 0.7027 0.1360 0.6214
C64 C 0.7609(10) 0.0867(7) 0.6315(12)
C65 C 0.7375(12) 0.0633(11) 0.5471(16)
H44 H 0.7090 0.0764 0.5025
C66 C 0.7530(15) 0.0338(10) 0.5397(17)
H45 H 0.7294 0.0199 0.4942
C68 C 0.8049(11) 0.0185(7) 0.5957(12)
C71 C 0.8354(10) 0.0285(6) 0.6671(12)
C72 C 0.8171(8) 0.0663(6) 0.6884(11)
O48 O 0.9709(5) 0.0743(3) 0.9052(5)
H100 H 0.866579 0.0089871 0.946866
H101 H 0.783634 0.0224135 0.885771
P4 P 0.97178(18) 0.60886(9) 0.09301(15)
O26 O 0.9612(4) 0.62457(18) 0.1757(4)
O27 O 0.8870(5) 0.6047(2) 0.0397(4)
C67 C 0.8315(11) 0.9787(8) 0.5776(11)
H46 H 0.8102 0.9675 0.5281
C69 C 0.8868(10) 0.9584(7) 0.6322(10)
H47 H 0.9053 0.9334 0.6222
C70 C 0.9139(9) 0.9786(5) 0.7061(10)
H48 H 0.9507 0.9656 0.7459
O44 O 0.9821(9) 0.7598(4) 0.1984(10)
H91 H 0.9844 0.7385 0.2203
O45 O 0.9231(10) 0.7478(4) 0.0407(11)
H93 H 0.9642 0.6954 0.1349
H94 H 0.9456 0.6744 0.0003
Cu8 Cu 0.93594(7) 0.59837(5) 0.27202(6)
H104 H 0.915374 0.774888 0.0271925
Cu9 Cu 0.82228(7) 0.56245(5) 0.98824(6)
O13_2 O 0.1582(6) 0.5096(3) 0.1101(7)
P4_2 P 0.02822(18) 0.10886(9) 0.90699(15)
H10_2 H 0.0097 0.7237 0.6330
C15_2 C 0.0211(7) 0.6807(4) 0.7127(7)
H11_2 H 0.0584 0.6936 0.7524
C17_2 C 0.0264(7) 0.6202(3) 0.7935(6)
H12_2 H 0.0663 0.6303 0.8350
H13_2 H 0.0217 0.5717 0.8448
N10_2 N 0.00321(2) 0.63623(2) 0.33839(2)
C37_2 C 0.02534(2) 0.67223(2) 0.32132(3)
H25_2 H 0.0075 0.6819 0.2695
C38_2 C 0.0731(7) 0.6955(3) 0.3767(7)
H26_2 H 0.0846 0.7209 0.3628
C39_2 C 0.1038(7) 0.6820(3) 0.4516(7)
H27_2 H 0.1375 0.6976 0.4889
C40_2 C 0.0837(6) 0.6441(3) 0.4714(6)
C41_2 C 0.1113(7) 0.6269(3) 0.5476(6)
H28_2 H 0.1457 0.6411 0.5872
C42_2 C 0.0881(7) 0.5887(4) 0.5650(6)
H29_2 H 0.1081 0.5771 0.6144
C43_2 C 0.0350(6) 0.5697(3) 0.5060(5)
C44_2 C 0.0042(7) 0.5314(4) 0.5175(7)
H30_2 H 0.0202 0.5188 0.5669
C47_2 C 0.0098(6) 0.5849(3) 0.4312(6)
C48_2 C 0.0353(6) 0.6216(3) 0.4131(5)
N14_2 N 0.14888(2) 0.57818(2) 0.24073(2)
N15_2 N 0.10608(4) 0.50991(5) 0.27924(7)
C61_2 C 0.16830(2) 0.60916(2) 0.22326(3)
H41_2 H 0.1459 0.6191 0.1728
C62_2 C 0.2283(10) 0.6333(6) 0.2797(14)
H42_2 H 0.2424 0.6582 0.2647
C63_2 C 0.2586(11) 0.6208(9) 0.3446(17)
H43_2 H 0.2973 0.6360 0.3786
C64_2 C 0.2391(10) 0.5867(7) 0.3685(12)
C65_2 C 0.2625(12) 0.5633(11) 0.4529(16)
H44_2 H 0.2910 0.5764 0.4975
C66_2 C 0.2470(15) 0.5338(10) 0.4603(17)
H45_2 H 0.2706 0.5199 0.5058
C67_2 C 0.1685(11) 0.4787(8) 0.4224(11)
H46_2 H 0.1898 0.4675 0.4719
C68_2 C 0.1951(11) 0.5185(7) 0.4043(12)
C69_2 C 0.1132(10) 0.4584(7) 0.3678(10)
H47_2 H 0.0947 0.4334 0.3778
C70_2 C 0.0861(9) 0.4786(5) 0.2939(10)
H48_2 H 0.0493 0.4656 0.2541
C71_2 C 0.1646(10) 0.5285(6) 0.3329(12)
C72_2 C 0.1829(8) 0.5663(6) 0.3116(11)
O44_2 O 0.0179(9) 0.2598(4) 0.8016(10)
H91_2 H 0.0156 0.2385 0.7797
O45_2 O 0.0769(10) 0.2478(4) 0.9593(11)
H93_2 H 0.0358 0.1954 0.8651
H94_2 H 0.0544 0.1744 0.9997
H100_2 H 0.133421 0.508987 0.0531338
H101_2 H 0.216366 0.522413 0.114229
H104_2 H 0.0846256 0.274888 0.972807
Cu1_2 Cu 0.57998(7) 0.62056(5) 0.34559(6)
Cu2_2 Cu 0.82605(7) 0.61437(5) 0.52414(6)
Cu3_2 Cu 0.72983(7) 0.58832(5) 0.23199(6)
O10_2 O 0.5070(4) 0.6515(2) 0.4322(4)
O11_2 O 0.6917(4) 0.6294(2) 0.5560(4)
P1_2 P 0.70251(16) 0.56031(8) 0.40787(14)
O14_2 O 0.6211(4) 0.58330(19) 0.4282(4)
O15_2 O 0.7857(4) 0.5753(2) 0.4490(4)
O16_2 O 0.7021(4) 0.5544(2) 0.3185(4)
O17_2 O 0.6984(5) 0.51984(19) 0.4482(4)
P2_2 P 0.78282(15) 0.65122(8) 0.35926(14)
O18_2 O 0.6825(4) 0.65210(19) 0.3655(4)
O19_2 O 0.8362(4) 0.64999(19) 0.4399(4)
O20_2 O 0.8079(4) 0.6223(2) 0.2984(3)
O21_2 O 0.8114(4) 0.68861(19) 0.3155(4)
P3_2 P 0.86638(16) 0.52546(8) 0.16319(14)
O22_2 O 0.8607(4) 0.56160(18) 0.2126(4)
O23_2 O 0.8189(4) 0.52882(17) 0.0800(3)
O24_2 O 0.9576(4) 0.5102(2) 0.1646(5)
O25_2 O 0.8116(5) 0.49622(18) 0.2106(4)
O29_2 O 0.9693(7) 0.1394(3) 0.9504(5)
N4_2 N 0.54111(2) 0.64895(2) 0.24540(2)
N5_2 N 0.48120(4) 0.58517(3) 0.29940(6)
C1_2 C 0.57192(2) 0.68175(2) 0.21763(3)
H1_2 H 0.6155 0.6948 0.2511
C2_2 C 0.5445(7) 0.6975(3) 0.1441(6)
H2_2 H 0.5715 0.7199 0.1272
C3_2 C 0.4763(7) 0.6803(3) 0.0943(6)
H3_2 H 0.4551 0.6913 0.0445
C4_2 C 0.4391(6) 0.6453(3) 0.1212(6)
C5_2 C 0.3727(7) 0.6227(4) 0.0778(6)
H4_2 H 0.3485 0.6308 0.0263
C6_2 C 0.3434(7) 0.5902(3) 0.1081(7)
H5_2 H 0.2995 0.5759 0.0777
C7_2 C 0.3769(6) 0.5778(3) 0.1823(6)
C8_2 C 0.3513(7) 0.5439(4) 0.2109(7)
H6_2 H 0.3076 0.5296 0.1803
C9_2 C 0.3899(7) 0.5295(3) 0.2877(6)
H7_2 H 0.3720 0.5063 0.3094
C10_2 C 0.4576(6) 0.5530(3) 0.3284(6)
H8_2 H 0.4859 0.5447 0.3783
C11_2 C 0.4441(5) 0.5973(3) 0.2253(5)
C12_2 C 0.4767(6) 0.6321(3) 0.1984(5)
N6_2 N 0.90207(2) 0.64701(2) 0.59838(2)
N7_2 N 0.84706(4) 0.57667(4) 0.61449(5)
C13_2 C 0.92929(2) 0.68182(2) 0.59041(3)
H9_2 H 0.9056 0.6958 0.5450
C14_2 C 0.9895(7) 0.6990(3) 0.6436(6)
C16_2 C 0.9985(7) 0.6436(3) 0.7240(6)
C18_2 C 0.9984(7) 0.5861(4) 0.7999(6)
C19_2 C 0.9344(7) 0.5685(3) 0.7437(6)
C20_2 C 0.8995(7) 0.5327(3) 0.7481(7)
H14_2 H 0.9149 0.5179 0.7945
C21_2 C 0.8447(7) 0.5184(4) 0.6890(7)
H15_2 H 0.8241 0.4932 0.6916
C22_2 C 0.8172(7) 0.5423(3) 0.6206(6)
H16_2 H 0.7765 0.5327 0.5791
C23_2 C 0.9063(6) 0.5900(3) 0.6755(5)
C24_2 C 0.9360(6) 0.6267(3) 0.6657(6)
N8_2 N 0.72019(2) 0.62542(2) 0.14180(2)
N9_2 N 0.64082(4) 0.56104(3) 0.15791(5)
C25_2 C 0.76114(2) 0.65864(2) 0.13349(3)
H17_2 H 0.7995 0.6673 0.1776
C26_2 C 0.7515(7) 0.6811(3) 0.0653(7)
H18_2 H 0.7875 0.7028 0.0614
C27_2 C 0.6930(7) 0.6725(3) 0.0071(6)
C28_2 C 0.6457(7) 0.6373(3) 0.0094(6)
C31_2 C 0.5553(6) 0.5697(3) 0.0277(6)
C32_2 C 0.5133(8) 0.5335(3) 0.0439(7)
H22_2 H 0.4693 0.5237 0.0055
C33_2 C 0.5357(7) 0.5136(3) 0.1123(6)
H23_2 H 0.5076 0.4904 0.1222
C34_2 C 0.6032(6) 0.5288(3) 0.1689(6)
H24_2 H 0.6209 0.5149 0.2160
C35_2 C 0.6189(6) 0.5812(3) 0.0883(6)
C36_2 C 0.6634(6) 0.6153(3) 0.0796(5)
N11_2 N 0.96060(4) 0.56690(4) 0.37126(6)
C45_2 C 0.9531(7) 0.5133(3) 0.4586(6)
H31_2 H 0.9326 0.4885 0.4671
C46_2 C 0.9301(7) 0.5320(3) 0.3827(7)
H32_2 H 0.8939 0.5197 0.3414
H40_2 H 0.7094 0.4896 0.0070
N16_2 N 0.65018(5) 0.41558(2) 0.61889(5)
C73_2 C 0.65837(12) 0.38575(6) 0.67000(11)
O30_2 O 0.7146(3) 0.36156(12) 0.6638(2)
N17_2 N 0.6022(2) 0.38352(11) 0.7283(2)
C74_2 C 0.5418(3) 0.40884(12) 0.7362(2)
N18_2 N 0.4901(3) 0.40565(12) 0.7922(2)
H49_2 H 0.4954 0.3863 0.8252
H50_2 H 0.4493 0.4228 0.7975
C75_2 C 0.5327(3) 0.44077(13) 0.6818(2)
H51_2 H 0.4888 0.4593 0.6874
C76_2 C 0.5856(3) 0.44366(12) 0.6253(2)
H52_2 H 0.5808 0.4643 0.5891
O31_2 O 0.7187(5) 0.4543(2) 0.5250(4)
C77_2 C 0.71316(8) 0.41749(4) 0.55468(8)
H53_2 H 0.7730 0.4101 0.5794
C78_2 C 0.6897(9) 0.3925(4) 0.4869(7)
H54_2 H 0.6530 0.3712 0.5043
O32_2 O 0.7624(7) 0.3779(3) 0.4478(5)
H55_2 H 0.7779 0.3939 0.4149
C79_2 C 0.6324(9) 0.4186(3) 0.4293(7)
H56_2 H 0.5735 0.4232 0.4491
O33_2 O 0.6238(6) 0.4062(2) 0.3464(5)
H57_2 H 0.6071 0.4243 0.3165
C80_2 C 0.6901(7) 0.4540(3) 0.4368(6)
H58_2 H 0.7417 0.4518 0.4043
C81_2 C 0.6385(7) 0.4899(3) 0.4175(6)
H59_2 H 0.6236 0.4926 0.3589
H60_2 H 0.5834 0.4903 0.4444
N19_2 N 0.58662(12) 0.78375(2) 0.27170(4)
C82_2 C 0.5221(3) 0.80626(4) 0.23767(11)
C83_2 C 0.4267(5) 0.78340(9) 0.3311(2)
N21_2 N 0.3509(5) 0.78349(9) 0.3586(2)
H61_2 H 0.3086 0.7981 0.3367
H62_2 H 0.3412 0.7690 0.3994
C84_2 C 0.4982(5) 0.75980(9) 0.3654(2)
H63_2 H 0.4900 0.7438 0.4094
C85_2 C 0.5720(5) 0.76078(9) 0.3359(2)
H64_2 H 0.6186 0.7453 0.3586
O35_2 O 0.7163(5) 0.7502(2) 0.2528(4)
C86_2 C 0.67081(19) 0.78497(3) 0.23777(7)
H65_2 H 0.6600 0.7887 0.1785
C87_2 C 0.7379(8) 0.8171(3) 0.2745(7)
H66_2 H 0.7049 0.8384 0.2967
O36_2 O 0.7909(6) 0.8297(3) 0.2193(6)
H67_2 H 0.8415 0.8205 0.2289
C88_2 C 0.7910(7) 0.7951(3) 0.3428(7)
H68_2 H 0.7533 0.7920 0.3881
O37_2 O 0.8706(6) 0.8119(3) 0.3725(5)
H69_2 H 0.8962 0.8206 0.3342
C89_2 C 0.8007(7) 0.7560(3) 0.3024(6)
H70_2 H 0.8512 0.7561 0.2683
C90_2 C 0.8104(7) 0.7240(3) 0.3639(6)
H71_2 H 0.8658 0.7267 0.3992
H72_2 H 0.7602 0.7239 0.3974
N22_2 N 0.71303(7) 0.40455(2) 0.00049(6)
H76_2 H 0.8229 0.4359 0.0325
O39_2 O 0.7023(4) 0.4446(2) 0.1081(4)
C95_2 C 0.66414(11) 0.41133(2) 0.07020(10)
H77_2 H 0.6001 0.4152 0.0534
C96_2 C 0.6774(8) 0.3796(3) 0.1328(6)
H78_2 H 0.6893 0.3549 0.1073
O40_2 O 0.5990(6) 0.3781(2) 0.1749(5)
H79_2 H 0.5764 0.3565 0.1697
C97_2 C 0.7546(7) 0.3923(3) 0.1887(6)
H80_2 H 0.8103 0.3864 0.1643
O41_2 O 0.7598(5) 0.3776(2) 0.2663(4)
H81_2 H 0.7144 0.3649 0.2721
C98_2 C 0.7398(8) 0.4354(3) 0.1865(6)
H82_2 H 0.6984 0.4427 0.2268
C99_2 C 0.8285(7) 0.4569(3) 0.2037(6)
H83_2 H 0.8602 0.4475 0.2541
H84_2 H 0.8662 0.4524 0.1596
N25_2 N 0.80286(6) 0.25152(2) 0.87203(4)
C100_2 C 0.75846(16) 0.28208(5) 0.83736(11)
O42_2 O 0.7870(3) 0.29874(11) 0.7828(2)
N26_2 N 0.6813(3) 0.29324(10) 0.8659(2)
C101_2 C 0.6507(3) 0.27505(11) 0.9250(2)
N27_2 N 0.5737(3) 0.28713(11) 0.9515(2)
H85_2 H 0.5461 0.3067 0.9288
H86_2 H 0.5516 0.2754 0.9913
C102_2 C 0.6934(3) 0.24350(11) 0.9630(2)
C103_2 C 0.7694(3) 0.23261(11) 0.9347(2)
H88_2 H 0.8005 0.2116 0.9582
O43_2 O 0.9021(7) 0.2024(3) 0.8579(6)
C104_2 C 0.88268(10) 0.24063(3) 0.84115(7)
H89_2 H 0.8721 0.2427 0.7815
C105_2 C 0.9514(13) 0.2618(6) 0.8625(13)
H90_2 H 0.9347 0.2882 0.8746
C106_2 C 0.9967(19) 0.2414(5) 0.9364(13)
H92_2 H 0.9601 0.2438 0.9826
C107_2 C 0.9887(13) 0.2010(4) 0.9012(10)
C108_2 C 0.993(2) 0.1747(7) 0.9733(12)
O50 O 0.5993(3) 0.36742(8) 0.9483(3)
N29 N 0.7169(3) 0.37364(8) 0.8719(3)
H96_2 H 0.548693 0.660233 0.477536
H97_2 H 0.477133 0.673567 0.405311
H98_2 H 0.664105 0.60705 0.578996
H99_2 H 0.69614 0.650069 0.596083
O12_2 O 0.9509(5) 0.5352(2) 0.9555(4)
H19_2 H 0.6813 0.6891 0.9630
C29_2 C 0.5784(7) 0.6251(3) 0.9493(6)
H20_2 H 0.5638 0.6399 0.9027
C30_2 C 0.5347(7) 0.5914(3) 0.9601(6)
H21_2 H 0.4901 0.5832 0.9205
N12_2 N 0.79425(2) 0.59558(2) 0.89339(2)
N13_2 N 0.72534(5) 0.53091(3) 0.93201(5)
C49_2 C 0.82880(2) 0.62800(2) 0.87403(2)
H33_2 H 0.8778 0.6374 0.9075
C50_2 C 0.7970(7) 0.6498(3) 0.8059(6)
H34_2 H 0.8198 0.6743 0.7977
C51_2 C 0.7348(7) 0.6351(3) 0.7542(6)
H35_2 H 0.7160 0.6487 0.7068
C52_2 C 0.6954(6) 0.5994(3) 0.7676(5)
C53_2 C 0.6221(7) 0.5815(3) 0.7184(6)
H36_2 H 0.5994 0.5931 0.6697
C54_2 C 0.5875(7) 0.5500(3) 0.7404(6)
H37_2 H 0.5407 0.5391 0.7066
C55_2 C 0.6177(6) 0.5311(3) 0.8139(6)
C56_2 C 0.5823(6) 0.4975(3) 0.8442(6)
H38_2 H 0.5336 0.4853 0.8156
C57_2 C 0.6180(6) 0.4837(3) 0.9122(6)
H39_2 H 0.5945 0.4611 0.9316
C58_2 C 0.6880(6) 0.5004(3) 0.9570(5)
C59_2 C 0.6900(6) 0.5466(3) 0.8601(5)
C60_2 C 0.7304(7) 0.5812(3) 0.8379(6)
C91_2 C 0.67274(17) 0.38061(4) 0.93829(15)
C92_2 C 0.7968(3) 0.38887(8) 0.8647(3)
N24_2 N 0.8340(3) 0.38088(8) 0.8001(3)
H73_2 H 0.8071 0.3661 0.7635
H74_2 H 0.8862 0.3903 0.7931
C93_2 C 0.8340(3) 0.41167(8) 0.9249(3)
H75_2 H 0.8903 0.4222 0.9191
C94_2 C 0.7949(3) 0.41995(8) 0.9923(3)
H102_2 H 0.940817 0.507992 0.94458
H103_2 H 0.970194 0.547593 0.906972
H87 H 0.3302 0.7307 0.9941
H95 H 0.0460 0.6841 0.9874
H87_2 H 0.6698 0.2307 0.0059
H95_2 H 0.9540 0.1841 0.0126
loop_
_geom_bond_atom_site_label_1
_geom_bond_atom_site_label_2
_geom_bond_site_symmetry_1
_geom_bond_site_symmetry_2
N1 O1 1_555 1_555
O2 N1 1_555 1_555
O3 N1 1_555 1_555
N1_2 O1_2 1_555 1_555
O2_2 N1_2 1_555 1_555
O3_2 N1_2 1_555 1_555
N2 O4 1_555 1_555
O5 N2 1_555 1_555
O6 N2 1_555 1_555
N2_2 O4_2 1_555 1_555
O5_2 N2_2 1_555 1_555
O6_2 N2_2 1_555 1_555
N3 O7 1_555 1_555
O8 N3 1_555 1_555
N3_2 O7_2 1_555 1_555
O8_2 N3_2 1_555 1_555
Cu5 O12 1_555 1_555
H20 C29 1_555 1_555
C30 C29 1_555 1_555
H21 C30 1_555 1_555
N12 Cu5 1_555 1_555
N13 Cu5 1_555 1_555
C49 N12 1_555 1_555
H33 C49 1_555 1_555
C50 C49 1_555 1_555
H34 C50 1_555 1_555
C51 C50 1_555 1_555
H35 C51 1_555 1_555
C52 C51 1_555 1_555
C53 C52 1_555 1_555
H36 C53 1_555 1_555
C54 C53 1_555 1_555
H37 C54 1_555 1_555
C55 C54 1_555 1_555
C58 N13 1_555 1_555
C59 N13 1_555 1_555
C60 N12 1_555 1_555
C52 C60 1_555 1_555
C55 C59 1_555 1_555
C59 C60 1_555 1_555
O12 H102 1_555 1_555
O12 H103 1_555 1_555
Cu1 O10 1_555 1_555
Cu2 O11 1_555 1_555
Cu3 O16 1_555 1_555
Cu4 O20 1_555 1_555
P1 O14 1_555 1_555
O14 Cu1 1_555 1_555
O15 Cu2 1_555 1_555
O16 P1 1_555 1_555
O17 P1 1_555 1_555
P2 O18 1_555 1_555
O18 Cu1 1_555 1_555
O19 Cu2 1_555 1_555
O20 Cu3 1_555 1_555
O21 P2 1_555 1_555
P3 O22 1_555 1_555
O22 Cu3 1_555 1_555
N4 Cu1 1_555 1_555
N5 Cu1 1_555 1_555
C1 N4 1_555 1_555
H1 C1 1_555 1_555
C2 C1 1_555 1_555
H2 C2 1_555 1_555
C3 C2 1_555 1_555
H3 C3 1_555 1_555
C4 C3 1_555 1_555
C5 C4 1_555 1_555
H4 C5 1_555 1_555
C6 C5 1_555 1_555
H5 C6 1_555 1_555
C7 C6 1_555 1_555
C8 C7 1_555 1_555
H6 C8 1_555 1_555
C9 C8 1_555 1_555
H7 C9 1_555 1_555
C10 N5 1_555 1_555
H8 C10 1_555 1_555
C11 N5 1_555 1_555
C12 N4 1_555 1_555
N6 Cu2 1_555 1_555
N7 Cu2 1_555 1_555
C13 N6 1_555 1_555
H9 C13 1_555 1_555
C14 C13 1_555 1_555
C19 C18 1_555 1_555
C20 C19 1_555 1_555
H14 C20 1_555 1_555
C21 C20 1_555 1_555
C22 N7 1_555 1_555
H16 C22 1_555 1_555
C23 N7 1_555 1_555
C24 N6 1_555 1_555
N8 Cu3 1_555 1_555
N9 Cu3 1_555 1_555
C25 N8 1_555 1_555
H17 C25 1_555 1_555
C26 C25 1_555 1_555
H18 C26 1_555 1_555
C27 C26 1_555 1_555
C28 C27 1_555 1_555
C32 C31 1_555 1_555
H22 C32 1_555 1_555
C33 C32 1_555 1_555
C34 N9 1_555 1_555
H24 C34 1_555 1_555
C35 N9 1_555 1_555
C36 N8 1_555 1_555
N11 Cu4 1_555 1_555
C46 N11 1_555 1_555
H32 C46 1_555 1_555
N19 C82 1_555 1_555
C82 O34 1_555 1_555
O34 Cu12 1_555 1_555
N20 C82 1_555 1_555
C83 N20 1_555 1_555
N21 C83 1_555 1_555
H61 N21 1_555 1_555
H62 N21 1_555 1_555
C84 C83 1_555 1_555
H63 C84 1_555 1_555
C85 N19 1_555 1_555
H64 C85 1_555 1_555
O35 C86 1_555 1_555
C86 N19 1_555 1_555
H65 C86 1_555 1_555
C87 C86 1_555 1_555
H66 C87 1_555 1_555
O36 C87 1_555 1_555
H67 O36 1_555 1_555
C88 C87 1_555 1_555
H68 C88 1_555 1_555
O37 C88 1_555 1_555
H69 O37 1_555 1_555
C89 O35 1_555 1_555
H70 C89 1_555 1_555
C90 O21 1_555 1_555
H71 C90 1_555 1_555
H72 C90 1_555 1_555
Cu12 N20 1_555 1_555
O46 Cu4 1_555 1_555
Cu4 O22 1_555 1_555
P1 O15 1_555 1_555
P2 O19 1_555 1_555
P2 O20 1_555 1_555
P3 O23 1_555 1_555
P3 O24 1_555 1_555
C4 C12 1_555 1_555
C7 C11 1_555 1_555
C9 C10 1_555 1_555
C11 C12 1_555 1_555
C16 C24 1_555 1_555
C19 C23 1_555 1_555
C21 C22 1_555 1_555
C23 C24 1_555 1_555
C28 C36 1_555 1_555
C31 C35 1_555 1_555
C33 C34 1_555 1_555
C35 C36 1_555 1_555
C45 C46 1_555 1_555
C84 C85 1_555 1_555
C88 C89 1_555 1_555
C89 C90 1_555 1_555
O10 H96 1_555 1_555
O10 H97 1_555 1_555
O11 H98 1_555 1_555
O11 H99 1_555 1_555
H38 C56 1_555 1_555
C57 C56 1_555 1_555
H39 C57 1_555 1_555
C91 O38 1_555 1_555
O38 Cu11 1_555 1_555
N23 C91 1_555 1_555
C92 N23 1_555 1_555
N24 C92 1_555 1_555
H73 N24 1_555 1_555
H74 N24 1_555 1_555
C93 C92 1_555 1_555
H75 C93 1_555 1_555
Cu11 N23 1_555 1_555
C93 C94 1_555 1_555
Cu11 O30 1_555 1_555
N16 C73 1_555 1_555
C73 O30 1_555 1_555
N17 Cu11 1_555 1_555
C74 N17 1_555 1_555
N18 C74 1_555 1_555
H49 N18 1_555 1_555
H50 N18 1_555 1_555
C75 C74 1_555 1_555
H51 C75 1_555 1_555
C76 N16 1_555 1_555
H52 C76 1_555 1_555
O31 C77 1_555 1_555
C77 N16 1_555 1_555
H53 C77 1_555 1_555
C78 C77 1_555 1_555
H54 C78 1_555 1_555
O32 C78 1_555 1_555
H55 O32 1_555 1_555
C79 C78 1_555 1_555
H56 C79 1_555 1_555
O33 C79 1_555 1_555
H57 O33 1_555 1_555
C80 O31 1_555 1_555
H58 C80 1_555 1_555
H59 C81 1_555 1_555
H60 C81 1_555 1_555
O39 C95 1_555 1_555
C95 N22 1_555 1_555
H77 C95 1_555 1_555
C96 C95 1_555 1_555
H78 C96 1_555 1_555
O40 C96 1_555 1_555
H79 O40 1_555 1_555
C97 C96 1_555 1_555
H80 C97 1_555 1_555
O41 C97 1_555 1_555
H81 O41 1_555 1_555
C98 O39 1_555 1_555
H82 C98 1_555 1_555
C99 O25 1_555 1_555
H83 C99 1_555 1_555
H84 C99 1_555 1_555
N25 C100 1_555 1_555
C100 O42 1_555 1_555
O42 Cu11 1_555 1_555
N26 Cu11 1_555 1_555
C101 N26 1_555 1_555
N27 C101 1_555 1_555
H85 N27 1_555 1_555
H86 N27 1_555 1_555
C102 C101 1_555 1_555
C103 N25 1_555 1_555
H88 C103 1_555 1_555
O43 C104 1_555 1_555
C104 N25 1_555 1_555
H89 C104 1_555 1_555
C105 C104 1_555 1_555
H90 C105 1_555 1_555
C106 C105 1_555 1_555
H92 C106 1_555 1_555
C107 O43 1_555 1_555
C108 O29 1_555 1_555
Cu10 O28 1_555 1_555
O49 Cu11 1_555 1_555
N28 Cu11 1_555 1_555
C73 N17 1_555 1_555
C75 C76 1_555 1_555
C79 C80 1_555 1_555
C80 C81 1_555 1_555
C97 C98 1_555 1_555
C98 C99 1_555 1_555
C100 N26 1_555 1_555
C102 C103 1_555 1_555
C106 C107 1_555 1_555
C107 C108 1_555 1_555
Cu6 O13 1_555 1_555
H11 C15 1_555 1_555
H12 C17 1_555 1_555
C37 N10 1_555 1_555
H25 C37 1_555 1_555
C38 C37 1_555 1_555
H26 C38 1_555 1_555
C39 C38 1_555 1_555
H27 C39 1_555 1_555
C40 C39 1_555 1_555
C41 C40 1_555 1_555
H28 C41 1_555 1_555
C42 C41 1_555 1_555
H29 C42 1_555 1_555
C43 C42 1_555 1_555
C44 C43 1_555 1_555
H30 C44 1_555 1_555
C48 N10 1_555 1_555
N14 Cu6 1_555 1_555
N15 Cu6 1_555 1_555
C61 N14 1_555 1_555
H41 C61 1_555 1_555
C62 C61 1_555 1_555
H42 C62 1_555 1_555
C63 C62 1_555 1_555
H43 C63 1_555 1_555
C64 C63 1_555 1_555
C65 C64 1_555 1_555
H44 C65 1_555 1_555
C66 C65 1_555 1_555
H45 C66 1_555 1_555
C68 C66 1_555 1_555
C71 N15 1_555 1_555
C72 N14 1_555 1_555
O48 Cu6 1_555 1_555
C40 C48 1_555 1_555
C43 C47 1_555 1_555
C47 C48 1_555 1_555
C64 C72 1_555 1_555
C68 C71 1_555 1_555
C71 C72 1_555 1_555
O13 H100 1_555 1_555
O13 H101 1_555 1_555
P4 O26 1_555 1_555
O26 Cu8 1_555 1_555
O27 P4 1_555 1_555
C67 H46 1_555 1_555
C69 C67 1_555 1_555
H47 C69 1_555 1_555
H48 C70 1_555 1_555
H91 O44 1_555 1_555
C69 C70 1_555 1_555
O45 H104 1_555 1_555
Cu10 O13_2 1_555 1_555
P4_2 O46 1_555 1_555
O47 P4_2 1_555 1_555
H11_2 C15_2 1_555 1_555
H12_2 C17_2 1_555 1_555
C37_2 N10_2 1_555 1_555
H25_2 C37_2 1_555 1_555
C38_2 C37_2 1_555 1_555
H26_2 C38_2 1_555 1_555
C39_2 C38_2 1_555 1_555
H27_2 C39_2 1_555 1_555
C40_2 C39_2 1_555 1_555
C41_2 C40_2 1_555 1_555
H28_2 C41_2 1_555 1_555
C42_2 C41_2 1_555 1_555
H29_2 C42_2 1_555 1_555
C43_2 C42_2 1_555 1_555
C44_2 C43_2 1_555 1_555
H30_2 C44_2 1_555 1_555
C48_2 N10_2 1_555 1_555
N14_2 Cu10 1_555 1_555
N15_2 Cu10 1_555 1_555
C61_2 N14_2 1_555 1_555
H41_2 C61_2 1_555 1_555
C62_2 C61_2 1_555 1_555
H42_2 C62_2 1_555 1_555
C63_2 C62_2 1_555 1_555
H43_2 C63_2 1_555 1_555
C64_2 C63_2 1_555 1_555
C65_2 C64_2 1_555 1_555
H44_2 C65_2 1_555 1_555
C66_2 C65_2 1_555 1_555
H45_2 C66_2 1_555 1_555
C67_2 H46_2 1_555 1_555
C68_2 C66_2 1_555 1_555
C69_2 C67_2 1_555 1_555
H47_2 C69_2 1_555 1_555
C70_2 N15_2 1_555 1_555
H48_2 C70_2 1_555 1_555
C71_2 N15_2 1_555 1_555
C72_2 N14_2 1_555 1_555
H91_2 O44_2 1_555 1_555
C40_2 C48_2 1_555 1_555
C43_2 C47_2 1_555 1_555
C47_2 C48_2 1_555 1_555
C64_2 C72_2 1_555 1_555
C67_2 C68_2 1_555 1_555
C68_2 C71_2 1_555 1_555
C69_2 C70_2 1_555 1_555
C71_2 C72_2 1_555 1_555
O13_2 H100_2 1_555 1_555
O13_2 H101_2 1_555 1_555
O45_2 H104_2 1_555 1_555
Cu1_2 O10_2 1_555 1_555
Cu2_2 O11_2 1_555 1_555
Cu3_2 O16_2 1_555 1_555
Cu8 O20_2 1_555 1_555
Cu12 O30_2 1_555 1_555
P1_2 O14_2 1_555 1_555
O14_2 Cu1_2 1_555 1_555
O15_2 Cu2_2 1_555 1_555
O16_2 P1_2 1_555 1_555
O17_2 P1_2 1_555 1_555
P2_2 O18_2 1_555 1_555
O18_2 Cu1_2 1_555 1_555
O19_2 Cu2_2 1_555 1_555
O20_2 Cu3_2 1_555 1_555
O21_2 P2_2 1_555 1_555
P3_2 O22_2 1_555 1_555
O22_2 Cu3_2 1_555 1_555
O25_2 P3_2 1_555 1_555
N4_2 Cu1_2 1_555 1_555
N5_2 Cu1_2 1_555 1_555
C1_2 N4_2 1_555 1_555
H1_2 C1_2 1_555 1_555
C2_2 C1_2 1_555 1_555
H2_2 C2_2 1_555 1_555
C3_2 C2_2 1_555 1_555
H3_2 C3_2 1_555 1_555
C4_2 C3_2 1_555 1_555
C5_2 C4_2 1_555 1_555
H4_2 C5_2 1_555 1_555
C6_2 C5_2 1_555 1_555
H5_2 C6_2 1_555 1_555
C7_2 C6_2 1_555 1_555
C8_2 C7_2 1_555 1_555
H6_2 C8_2 1_555 1_555
C9_2 C8_2 1_555 1_555
H7_2 C9_2 1_555 1_555
C10_2 N5_2 1_555 1_555
H8_2 C10_2 1_555 1_555
C11_2 N5_2 1_555 1_555
C12_2 N4_2 1_555 1_555
N6_2 Cu2_2 1_555 1_555
N7_2 Cu2_2 1_555 1_555
C13_2 N6_2 1_555 1_555
H9_2 C13_2 1_555 1_555
C14_2 C13_2 1_555 1_555
C19_2 C18_2 1_555 1_555
C20_2 C19_2 1_555 1_555
H14_2 C20_2 1_555 1_555
C21_2 C20_2 1_555 1_555
H15_2 C21_2 1_555 1_555
C22_2 N7_2 1_555 1_555
H16_2 C22_2 1_555 1_555
C23_2 N7_2 1_555 1_555
C24_2 N6_2 1_555 1_555
N8_2 Cu3_2 1_555 1_555
N9_2 Cu3_2 1_555 1_555
C25_2 N8_2 1_555 1_555
H17_2 C25_2 1_555 1_555
C26_2 C25_2 1_555 1_555
H18_2 C26_2 1_555 1_555
C27_2 C26_2 1_555 1_555
C28_2 C27_2 1_555 1_555
C32_2 C31_2 1_555 1_555
H22_2 C32_2 1_555 1_555
C33_2 C32_2 1_555 1_555
H23_2 C33_2 1_555 1_555
C34_2 N9_2 1_555 1_555
H24_2 C34_2 1_555 1_555
C35_2 N9_2 1_555 1_555
C36_2 N8_2 1_555 1_555
N11_2 Cu8 1_555 1_555
H31_2 C45_2 1_555 1_555
C46_2 N11_2 1_555 1_555
H32_2 C46_2 1_555 1_555
N16_2 C73_2 1_555 1_555
C73_2 O30_2 1_555 1_555
N17_2 Cu12 1_555 1_555
C74_2 N17_2 1_555 1_555
N18_2 C74_2 1_555 1_555
H49_2 N18_2 1_555 1_555
H50_2 N18_2 1_555 1_555
C75_2 C74_2 1_555 1_555
H51_2 C75_2 1_555 1_555
C76_2 N16_2 1_555 1_555
H52_2 C76_2 1_555 1_555
O31_2 C77_2 1_555 1_555
C77_2 N16_2 1_555 1_555
H53_2 C77_2 1_555 1_555
C78_2 C77_2 1_555 1_555
H54_2 C78_2 1_555 1_555
O32_2 C78_2 1_555 1_555
H55_2 O32_2 1_555 1_555
C79_2 C78_2 1_555 1_555
H56_2 C79_2 1_555 1_555
O33_2 C79_2 1_555 1_555
H57_2 O33_2 1_555 1_555
C80_2 O31_2 1_555 1_555
H58_2 C80_2 1_555 1_555
C81_2 O17_2 1_555 1_555
H59_2 C81_2 1_555 1_555
H60_2 C81_2 1_555 1_555
N19_2 C82_2 1_555 1_555
C82_2 O49 1_555 1_555
N28 C82_2 1_555 1_555
C83_2 N28 1_555 1_555
N21_2 C83_2 1_555 1_555
H61_2 N21_2 1_555 1_555
H62_2 N21_2 1_555 1_555
C84_2 C83_2 1_555 1_555
H63_2 C84_2 1_555 1_555
C85_2 N19_2 1_555 1_555
H64_2 C85_2 1_555 1_555
O35_2 C86_2 1_555 1_555
C86_2 N19_2 1_555 1_555
H65_2 C86_2 1_555 1_555
C87_2 C86_2 1_555 1_555
H66_2 C87_2 1_555 1_555
O36_2 C87_2 1_555 1_555
H67_2 O36_2 1_555 1_555
C88_2 C87_2 1_555 1_555
H68_2 C88_2 1_555 1_555
O37_2 C88_2 1_555 1_555
H69_2 O37_2 1_555 1_555
C89_2 O35_2 1_555 1_555
H70_2 C89_2 1_555 1_555
C90_2 O21_2 1_555 1_555
H71_2 C90_2 1_555 1_555
H72_2 C90_2 1_555 1_555
O39_2 C95_2 1_555 1_555
C95_2 N22_2 1_555 1_555
H77_2 C95_2 1_555 1_555
C96_2 C95_2 1_555 1_555
H78_2 C96_2 1_555 1_555
O40_2 C96_2 1_555 1_555
H79_2 O40_2 1_555 1_555
C97_2 C96_2 1_555 1_555
H80_2 C97_2 1_555 1_555
O41_2 C97_2 1_555 1_555
H81_2 O41_2 1_555 1_555
C98_2 O39_2 1_555 1_555
H82_2 C98_2 1_555 1_555
C99_2 O25_2 1_555 1_555
H83_2 C99_2 1_555 1_555
H84_2 C99_2 1_555 1_555
N25_2 C100_2 1_555 1_555
C100_2 O42_2 1_555 1_555
O42_2 Cu12 1_555 1_555
N26_2 Cu12 1_555 1_555
C101_2 N26_2 1_555 1_555
N27_2 C101_2 1_555 1_555
H85_2 N27_2 1_555 1_555
H86_2 N27_2 1_555 1_555
C102_2 C101_2 1_555 1_555
C103_2 N25_2 1_555 1_555
H88_2 C103_2 1_555 1_555
O43_2 C104_2 1_555 1_555
C104_2 N25_2 1_555 1_555
H89_2 C104_2 1_555 1_555
C105_2 C104_2 1_555 1_555
H90_2 C105_2 1_555 1_555
C106_2 C105_2 1_555 1_555
H92_2 C106_2 1_555 1_555
C107_2 O43_2 1_555 1_555
C108_2 O29_2 1_555 1_555
O50 Cu12 1_555 1_555
N29 Cu12 1_555 1_555
Cu8 O22_2 1_555 1_555
P1_2 O15_2 1_555 1_555
P2_2 O19_2 1_555 1_555
P2_2 O20_2 1_555 1_555
P3_2 O23_2 1_555 1_555
P3_2 O24_2 1_555 1_555
C4_2 C12_2 1_555 1_555
C7_2 C11_2 1_555 1_555
C9_2 C10_2 1_555 1_555
C11_2 C12_2 1_555 1_555
C16_2 C24_2 1_555 1_555
C19_2 C23_2 1_555 1_555
C21_2 C22_2 1_555 1_555
C23_2 C24_2 1_555 1_555
C28_2 C36_2 1_555 1_555
C31_2 C35_2 1_555 1_555
C33_2 C34_2 1_555 1_555
C35_2 C36_2 1_555 1_555
C45_2 C46_2 1_555 1_555
C73_2 N17_2 1_555 1_555
C75_2 C76_2 1_555 1_555
C79_2 C80_2 1_555 1_555
C80_2 C81_2 1_555 1_555
C84_2 C85_2 1_555 1_555
C88_2 C89_2 1_555 1_555
C89_2 C90_2 1_555 1_555
C97_2 C98_2 1_555 1_555
C98_2 C99_2 1_555 1_555
C100_2 N26_2 1_555 1_555
C102_2 C103_2 1_555 1_555
C106_2 C107_2 1_555 1_555
C107_2 C108_2 1_555 1_555
O10_2 H96_2 1_555 1_555
O10_2 H97_2 1_555 1_555
O11_2 H98_2 1_555 1_555
O11_2 H99_2 1_555 1_555
Cu9 O12_2 1_555 1_555
H20_2 C29_2 1_555 1_555
C30_2 C29_2 1_555 1_555
H21_2 C30_2 1_555 1_555
N12_2 Cu9 1_555 1_555
N13_2 Cu9 1_555 1_555
C49_2 N12_2 1_555 1_555
H33_2 C49_2 1_555 1_555
C50_2 C49_2 1_555 1_555
H34_2 C50_2 1_555 1_555
C51_2 C50_2 1_555 1_555
H35_2 C51_2 1_555 1_555
C52_2 C51_2 1_555 1_555
C53_2 C52_2 1_555 1_555
H36_2 C53_2 1_555 1_555
C54_2 C53_2 1_555 1_555
H37_2 C54_2 1_555 1_555
C55_2 C54_2 1_555 1_555
C56_2 C55_2 1_555 1_555
H38_2 C56_2 1_555 1_555
C57_2 C56_2 1_555 1_555
H39_2 C57_2 1_555 1_555
C58_2 N13_2 1_555 1_555
C59_2 N13_2 1_555 1_555
C60_2 N12_2 1_555 1_555
C91_2 O50 1_555 1_555
N29 C91_2 1_555 1_555
C92_2 N29 1_555 1_555
N24_2 C92_2 1_555 1_555
H73_2 N24_2 1_555 1_555
H74_2 N24_2 1_555 1_555
C93_2 C92_2 1_555 1_555
H75_2 C93_2 1_555 1_555
C52_2 C60_2 1_555 1_555
C55_2 C59_2 1_555 1_555
C57_2 C58_2 1_555 1_555
C59_2 C60_2 1_555 1_555
C93_2 C94_2 1_555 1_555
O12_2 H102_2 1_555 1_555
O12_2 H103_2 1_555 1_555

#END
