
###############################################################################
#
# This file contains modified crystal structure data generated from the
# MOF subset of the Cambridge Structural Database (CSD) v543 
# hosted by the Cambridge Crystallographic Data Centre (CCDC).
#
# This work is licensed under the Creative Commons
# Attribution-NonCommercial-ShareAlike 4.0 International License.
# To view a copy of this license, visit
# http://creativecommons.org/licenses/by-nc-sa/4.0/
# or send a letter to
# Creative Commons, PO Box 1866, Mountain View, CA 94042, USA.
#
# CIF created using the CSD Python API on 29 September 2022
# The structure has been converted into the P1 space group
# The structure has a 3D framework
# The original CSD entry VEWTAV is in the monoclinic crystal system
# The original CSD entry VEWTAV is in a Sohncke space group
# The framework has been calculated to contain at least 10.0% void space
# The void calculation uses a probe of radius 1.32A, grid spacing 0.4
# The framework is charged, counterions have been retained in the structure
# H atom positions have been added when not included in the experimental data
#
###############################################################################

data_VEWTAV
_chemical_formula_moiety         '(C216 H210 Cu14 N56 O94 P8 4+)n'
_symmetry_cell_setting           triclinic
_symmetry_space_group_name_H-M   'P 1'
_symmetry_Int_Tables_number      1
_space_group_name_Hall           'P 1'
loop_
_symmetry_equiv_pos_site_id
_symmetry_equiv_pos_as_xyz
1 x,y,z
_cell_length_a                   15.3831(8)
_cell_length_b                   35.7449(18)
_cell_length_c                   16.8107(8)
_cell_angle_alpha                90
_cell_angle_beta                 94.964(3)
_cell_angle_gamma                90
_cell_volume                     9208.98
loop_
_atom_site_label
_atom_site_type_symbol
_atom_site_fract_x
_atom_site_fract_y
_atom_site_fract_z
N1 N 0.3225(10) 0.7031(5) 0.4668(11)
O1 O 0.2925(11) 0.7374(5) 0.4944(11)
O2 O 0.3560(9) 0.6983(4) 0.3993(10)
O3 O 0.3195(8) 0.6752(3) 0.5152(8)
N1_2 N 0.6775(10) 0.2031(5) 0.5332(11)
O1_2 O 0.7075(11) 0.2374(5) 0.5056(11)
O2_2 O 0.6440(9) 0.1983(4) 0.6007(10)
O3_2 O 0.6805(8) 0.1752(3) 0.4848(8)
N2 N 0.3769(11) 0.2586(5) 0.0217(11)
O4 O 0.4508(9) 0.2407(4) 0.0490(8)
O6 O 0.3103(9) 0.2587(4) 0.0668(9)
O5 O 0.3686(9) 0.2761(4) 0.9605(9)
O5_2 O 0.6314(9) 0.7761(4) 0.0395(9)
N2_2 N 0.6231(11) 0.7586(5) 0.9783(11)
O4_2 O 0.5492(9) 0.7407(4) 0.9510(8)
O6_2 O 0.6897(9) 0.7587(4) 0.9332(9)
N3 N 0.5695(15) 0.8480(5) 0.4612(12)
O7 O 0.5078(13) 0.8687(5) 0.4511(10)
O8 O 0.6047(10) 0.8469(4) 0.3994(10)
O9 O 0.5637(12) 0.8239(5) 0.5209(10)
N3_2 N 0.4305(15) 0.3480(5) 0.5388(12)
O7_2 O 0.4922(13) 0.3687(5) 0.5489(10)
O8_2 O 0.3953(10) 0.3469(4) 0.6006(10)
O9_2 O 0.4363(12) 0.3239(5) 0.4791(10)
N4 N 0.906(2) 0.3366(13) 0.024(2)
O10 O 0.8298(18) 0.3228(7) 0.0208(15)
O11 O 0.9221(19) 0.3544(9) 0.0972(16)
O12 O 0.968(2) 0.3422(12) 0.9704(18)
O12_2 O 0.032(2) 0.8422(12) 0.0296(18)
N4_2 N 0.094(2) 0.8366(13) 0.976(2)
O10_2 O 0.1702(18) 0.8228(7) 0.9792(15)
O11_2 O 0.0779(19) 0.8544(9) 0.9028(16)
Cu9 Cu 0.17724(7) 0.06175(5) 0.00953(6)
H104 H 0.0571982 0.17044 0.0057447
O15 O 0.0519(5) 0.0327(3) 0.0468(4)
H19 H 0.3204 0.1857 0.0426
C29 C 0.4254(6) 0.1233(4) 0.0495(6)
H20 H 0.4395 0.1377 0.0963
C30 C 0.4671(7) 0.0917(3) 0.0397(6)
H21 H 0.5111 0.0842 0.0796
N13 N 0.20591(2) 0.09475(2) 0.10459(2)
N14 N 0.27417(4) 0.03095(3) 0.06631(5)
C49 C 0.17025(2) 0.12808(2) 0.12459(2)
H33 H 0.1211 0.1373 0.0923
C50 C 0.2030(6) 0.1493(3) 0.1906(5)
H34 H 0.1809 0.1737 0.1982
C51 C 0.2662(6) 0.1352(3) 0.2439(6)
H35 H 0.2845 0.1488 0.2909
C52 C 0.3034(6) 0.1012(3) 0.2297(5)
C53 C 0.3783(7) 0.0843(3) 0.2783(6)
H36 H 0.4018 0.0967 0.3253
C54 C 0.4139(6) 0.0516(3) 0.2571(6)
H37 H 0.4612 0.0414 0.2901
C55 C 0.3810(6) 0.0313(3) 0.1835(5)
C58 C 0.3140(6) 0.0002(2) 0.0402(6)
C59 C 0.3100(6) 0.0465(2) 0.1371(5)
C60 C 0.2706(6) 0.0813(3) 0.1584(5)
H100 H 0.0642134 0.00584222 0.0578671
H101 H 0.0331981 0.0448805 0.0955958
Cu6 Cu 0.06546(8) 0.53952(6) 0.18718(10)
O16 O 0.1568(7) 0.5087(3) 0.1168(7)
P4 P 0.02776(19) 0.10779(10) 0.90467(16)
O29 O 0.0415(4) 0.12440(19) 0.8241(4)
O30 O 0.1116(5) 0.1036(2) 0.9590(4)
H10 H 0.0067 0.7245 0.6340
C15 C 0.0236(7) 0.6814(3) 0.7077(7)
H11 H 0.0647 0.6937 0.7442
C17 C 0.0291(7) 0.6210(4) 0.7899(6)
H12 H 0.0719 0.6308 0.8284
H13 H 0.0188 0.5724 0.8465
N11 N 0.00163(2) 0.63591(2) 0.33879(2)
C37 C 0.02457(2) 0.67190(2) 0.32106(3)
H25 H 0.0087 0.6812 0.2689
C38 C 0.0703(6) 0.6954(3) 0.3765(6)
H26 H 0.0811 0.7208 0.3641
C39 C 0.1002(6) 0.6801(3) 0.4520(7)
H27 H 0.1329 0.6954 0.4900
C40 C 0.0827(6) 0.6436(3) 0.4712(6)
C41 C 0.1076(6) 0.6259(4) 0.5497(6)
H28 H 0.1391 0.6399 0.5905
C42 C 0.0861(6) 0.5899(3) 0.5639(6)
H29 H 0.1080 0.5785 0.6126
C43 C 0.0316(6) 0.5688(3) 0.5079(5)
C44 C 0.0036(7) 0.5314(3) 0.5205(6)
H30 H 0.0215 0.5190 0.5692
C47 C 0.0066(6) 0.5844(3) 0.4318(5)
C48 C 0.0324(6) 0.6213(3) 0.4146(5)
N15 N 0.14844(2) 0.57813(2) 0.24285(2)
N16 N 0.10456(4) 0.50816(5) 0.28435(7)
C61 C 0.16739(2) 0.60834(2) 0.22493(3)
H41 H 0.1450 0.6143 0.1720
C62 C 0.2200(13) 0.6415(6) 0.2655(12)
H42 H 0.2280 0.6664 0.2479
C63 C 0.2496(12) 0.6246(6) 0.3309(12)
H43 H 0.2891 0.6413 0.3591
C64 C 0.2470(13) 0.5852(6) 0.3864(12)
C65 C 0.2658(10) 0.5593(5) 0.4539(9)
H44 H 0.3058 0.5692 0.4948
C66 C 0.2451(13) 0.5333(6) 0.4659(13)
H45 H 0.2644 0.5232 0.5167
C67 C 0.1888(12) 0.5095(5) 0.4132(11)
C68 C 0.1666(13) 0.4792(6) 0.4266(13)
H46 H 0.1861 0.4690 0.4772
C69 C 0.1087(10) 0.4544(5) 0.3698(10)
H47 H 0.0925 0.4292 0.3790
C70 C 0.0837(11) 0.4763(5) 0.3005(10)
H48 H 0.0452 0.4643 0.2612
C71 C 0.1591(11) 0.5258(5) 0.3422(10)
C72 C 0.1768(10) 0.5660(5) 0.3105(9)
O47 O 0.0214(7) 0.2584(3) 0.7971(9)
H91 H 0.0012 0.2693 0.7553
C106 C 0.0010(13) 0.2421(5) 0.9330(13)
O48 O 0.0795(9) 0.2443(4) 0.9559(9)
C107 C 0.0005(12) 0.2049(5) 0.9014(9)
H93 H 0.0485 0.1999 0.8663
Cu8 Cu 0.06776(7) 0.09793(5) 0.72592(6)
O51 O 0.0280(5) 0.5725(3) 0.1000(5)
H96 H 0.13331 0.507995 0.0599093
H97 H 0.214324 0.521486 0.121342
H103 H 0.0940175 0.2705 0.971558
Cu1 Cu 0.57702(7) 0.62135(5) 0.34650(6)
Cu2 Cu 0.82316(7) 0.61503(5) 0.52472(6)
Cu3 Cu 0.72666(7) 0.58777(5) 0.23273(6)
Cu4 Cu 0.93224(7) 0.59793(5) 0.27408(6)
Cu7 Cu 0.64212(7) 0.33862(5) 0.80278(6)
O13 O 0.5059(4) 0.6545(2) 0.4317(4)
O14 O 0.6890(4) 0.63083(19) 0.5566(4)
P1 P 0.69802(16) 0.56093(8) 0.41033(13)
O17 O 0.6171(4) 0.58404(18) 0.4296(4)
O18 O 0.7813(4) 0.57593(18) 0.4510(3)
O19 O 0.7002(4) 0.55494(18) 0.3191(3)
O20 O 0.6903(4) 0.52054(18) 0.4515(4)
P2 P 0.77942(14) 0.65145(7) 0.35899(13)
O21 O 0.6800(4) 0.65267(17) 0.3661(3)
O22 O 0.8338(4) 0.65108(18) 0.4388(4)
O23 O 0.8025(4) 0.62159(16) 0.2990(3)
O24 O 0.8084(4) 0.68952(17) 0.3152(3)
P3 P 0.86448(15) 0.52482(8) 0.16604(13)
O25 O 0.8574(4) 0.56086(17) 0.2139(3)
O26 O 0.8188(4) 0.52804(17) 0.0823(3)
O27 O 0.9562(4) 0.5096(2) 0.1700(5)
O28 O 0.8088(4) 0.49533(17) 0.2132(4)
O31 O 0.9720(5) 0.0725(3) 0.9000(5)
O32 O 0.9667(6) 0.1378(3) 0.9468(5)
N5 N 0.54044(2) 0.64997(2) 0.24516(2)
N6 N 0.48012(4) 0.58580(3) 0.30009(6)
C1 C 0.57075(2) 0.68222(2) 0.21756(3)
H1 H 0.6155 0.6948 0.2495
C2 C 0.5407(7) 0.6984(3) 0.1448(6)
H2 H 0.5646 0.7214 0.1287
C3 C 0.4761(7) 0.6809(3) 0.0966(6)
H3 H 0.4559 0.6918 0.0469
C4 C 0.4395(6) 0.6465(3) 0.1205(6)
C5 C 0.3726(7) 0.6251(4) 0.0792(6)
H4 H 0.3482 0.6337 0.0287
C6 C 0.3413(6) 0.5921(4) 0.1093(6)
H5 H 0.2955 0.5790 0.0796
C7 C 0.3763(6) 0.5775(3) 0.1837(6)
C8 C 0.3495(6) 0.5433(3) 0.2157(6)
H6 H 0.3051 0.5287 0.1878
C9 C 0.3890(6) 0.5313(3) 0.2885(7)
H7 H 0.3733 0.5081 0.3109
C10 C 0.4528(6) 0.5544(3) 0.3281(6)
H8 H 0.4779 0.5464 0.3790
C11 C 0.4421(5) 0.5975(3) 0.2290(5)
C12 C 0.4751(6) 0.6320(3) 0.1989(6)
N7 N 0.90104(2) 0.64731(2) 0.59831(2)
N8 N 0.84566(4) 0.57688(4) 0.61560(5)
C13 C 0.92851(2) 0.68225(2) 0.58973(2)
H9 H 0.9053 0.6961 0.5446
C14 C 0.9893(6) 0.6995(3) 0.6434(6)
C16 C 0.9992(7) 0.6439(3) 0.7223(6)
C18 C 0.9985(7) 0.5864(4) 0.8005(6)
C19 C 0.9337(7) 0.5698(4) 0.7410(6)
C20 C 0.8982(7) 0.5339(3) 0.7472(6)
H14 H 0.9142 0.5194 0.7936
C21 C 0.8411(7) 0.5189(4) 0.6884(6)
H15 H 0.8192 0.4942 0.6912
C22 C 0.8168(7) 0.5432(3) 0.6227(6)
H16 H 0.7766 0.5339 0.5813
C23 C 0.9050(6) 0.5912(3) 0.6765(5)
C24 C 0.9341(6) 0.6282(3) 0.6657(5)
N9 N 0.71922(2) 0.62529(2) 0.14148(2)
N10 N 0.63840(4) 0.56055(3) 0.15878(5)
C25 C 0.75985(2) 0.65783(2) 0.13279(3)
H17 H 0.7993 0.6659 0.1760
C26 C 0.7496(6) 0.6809(3) 0.0664(6)
H18 H 0.7827 0.7032 0.0636
C27 C 0.6888(7) 0.6704(3) 0.0035(6)
C28 C 0.6410(6) 0.6365(3) 0.0093(6)
C31 C 0.5515(6) 0.5676(3) 0.0299(6)
C32 C 0.5076(6) 0.5335(3) 0.0458(6)
H22 H 0.4613 0.5249 0.0094
C33 C 0.5324(6) 0.5128(3) 0.1146(6)
H23 H 0.5060 0.4894 0.1247
C34 C 0.5999(6) 0.5285(3) 0.1696(5)
H24 H 0.6175 0.5147 0.2166
C35 C 0.6136(5) 0.5807(3) 0.0910(5)
C36 C 0.6599(6) 0.6150(3) 0.0792(5)
N12 N 0.95710(4) 0.56606(4) 0.37320(6)
C45 C 0.9501(6) 0.5127(3) 0.4618(6)
H31 H 0.9317 0.4878 0.4704
C46 C 0.9231(7) 0.5317(3) 0.3879(6)
H32 H 0.8820 0.5204 0.3498
H40 H 0.7070 0.4899 0.0098
N17 N 0.64844(5) 0.41656(2) 0.62192(5)
C73 C 0.65934(11) 0.38644(5) 0.67263(11)
O33 O 0.7172(2) 0.36252(11) 0.6657(2)
N18 N 0.6023(2) 0.38324(11) 0.7339(2)
C74 C 0.5412(2) 0.40963(11) 0.7389(2)
N19 N 0.4890(2) 0.40479(11) 0.7988(2)
H49 H 0.4967 0.3854 0.8308
H50 H 0.4474 0.4210 0.8057
C75 C 0.5294(2) 0.44054(11) 0.6874(2)
H51 H 0.4851 0.4586 0.6934
C76 C 0.5861(2) 0.44349(11) 0.6271(2)
H52 H 0.5813 0.4638 0.5904
O34 O 0.7136(5) 0.45447(19) 0.5263(4)
C77 C 0.71303(8) 0.41779(4) 0.55746(8)
H53 H 0.7728 0.4108 0.5810
C78 C 0.6838(9) 0.3911(3) 0.4874(6)
H54 H 0.6463 0.3704 0.5054
O35 O 0.7566(6) 0.3768(2) 0.4514(4)
H55 H 0.7475 0.3784 0.4015
C79 C 0.6306(8) 0.4183(3) 0.4321(6)
H56 H 0.5722 0.4226 0.4524
O36 O 0.6195(5) 0.4061(2) 0.3497(4)
H57 H 0.6672 0.3982 0.3358
C80 C 0.6847(8) 0.4545(3) 0.4399(5)
H58 H 0.7358 0.4532 0.4071
C81 C 0.6319(7) 0.4903(3) 0.4215(6)
H59 H 0.6165 0.4929 0.3633
H60 H 0.5776 0.4902 0.4491
N20 N 0.58564(11) 0.78411(2) 0.27262(4)
C82 C 0.5179(3) 0.80613(4) 0.23794(11)
O37 O 0.5312(4) 0.82592(8) 0.1795(2)
N21 N 0.4388(4) 0.80519(8) 0.2695(2)
C83 C 0.4233(5) 0.78436(9) 0.3314(2)
N22 N 0.3435(5) 0.78423(9) 0.3610(2)
H61 H 0.3011 0.7982 0.3387
H62 H 0.3344 0.7701 0.4024
C84 C 0.4941(5) 0.76138(9) 0.3676(2)
H63 H 0.4849 0.7461 0.4123
C85 C 0.5686(5) 0.76166(9) 0.3396(2)
H64 H 0.6141 0.7465 0.3640
O38 O 0.7126(4) 0.75031(18) 0.2539(4)
C86 C 0.66844(18) 0.78537(3) 0.23888(7)
H65 H 0.6583 0.7893 0.1799
C87 C 0.7318(7) 0.8171(3) 0.2761(8)
H66 H 0.6996 0.8385 0.2981
O39 O 0.7888(6) 0.8287(3) 0.2159(6)
H67 H 0.8223 0.8457 0.2347
C88 C 0.7873(8) 0.7947(3) 0.3421(7)
H68 H 0.7530 0.7917 0.3896
O40 O 0.8683(5) 0.8110(2) 0.3664(5)
H69 H 0.8949 0.7977 0.4017
C89 C 0.7971(6) 0.7564(3) 0.3023(6)
H70 H 0.8462 0.7569 0.2670
C90 C 0.8077(6) 0.7244(2) 0.3590(6)
H71 H 0.8630 0.7272 0.3932
H72 H 0.7590 0.7243 0.3939
N23 N 0.71457(7) 0.40443(2) 0.00136(6)
H76 H 0.8192 0.4340 0.0347
O42 O 0.6990(4) 0.44435(17) 0.1116(3)
C95 C 0.66244(12) 0.41193(2) 0.07238(9)
H77 H 0.5999 0.4166 0.0536
C96 C 0.6687(7) 0.3799(3) 0.1355(5)
H78 H 0.6787 0.3552 0.1099
O43 O 0.5944(5) 0.3792(2) 0.1757(4)
H79 H 0.6061 0.3868 0.2226
C97 C 0.7475(7) 0.3914(3) 0.1913(5)
H80 H 0.8014 0.3849 0.1650
O44 O 0.7550(5) 0.37665(19) 0.2672(4)
H81 H 0.7150 0.3851 0.2930
C98 C 0.7374(7) 0.4349(3) 0.1905(5)
H82 H 0.6972 0.4426 0.2312
C99 C 0.8251(7) 0.4556(3) 0.2060(6)
H83 H 0.8567 0.4462 0.2558
H84 H 0.8617 0.4510 0.1614
N26 N 0.80288(6) 0.25107(2) 0.87191(4)
C100 C 0.75970(15) 0.28116(5) 0.83752(11)
O45 O 0.7871(3) 0.29829(10) 0.7821(2)
N27 N 0.6833(3) 0.29244(10) 0.8662(2)
C101 C 0.6515(3) 0.27404(11) 0.9274(2)
N28 N 0.5768(3) 0.28536(11) 0.9548(2)
H85 H 0.5487 0.3047 0.9329
H86 H 0.5558 0.2734 0.9947
C102 C 0.6961(3) 0.24282(11) 0.9632(2)
C103 C 0.7712(3) 0.23235(11) 0.9337(2)
H88 H 0.8026 0.2115 0.9565
O46 O 0.9057(6) 0.2010(3) 0.8571(6)
C104 C 0.88370(10) 0.23932(3) 0.84120(7)
H89 H 0.8743 0.2416 0.7818
C105 C 0.9539(9) 0.2625(5) 0.8649(11)
H90 H 0.9376 0.2888 0.8770
H92 H 0.9656 0.2429 0.9802
C108 C 0.9932(14) 0.1731(5) 0.9731(9)
Cu10 Cu 0.93454(8) 0.03952(6) 0.81282(10)
Cu12 Cu 0.35788(7) 0.83862(5) 0.19722(6)
O49 O 0.9585(4) 0.62440(19) 0.1759(4)
O50 O 0.8884(5) 0.6036(2) 0.0410(4)
O52 O 0.4688(4) 0.32592(8) 0.8205(2)
N29 N 0.5612(4) 0.30519(8) 0.7305(2)
O53 O 0.5990(3) 0.36752(7) 0.9480(2)
N30 N 0.7191(3) 0.37351(7) 0.8760(2)
H94 H 0.547564 0.663326 0.47616
H95 H 0.477766 0.676385 0.403666
H98 H 0.661114 0.608867 0.580121
H99 H 0.693556 0.651591 0.595988
Cu5 Cu 0.82276(7) 0.56175(5) 0.99047(6)
O15_2 O 0.9481(5) 0.5327(3) 0.9532(4)
H19_2 H 0.6796 0.6857 0.9574
C29_2 C 0.5746(6) 0.6233(4) 0.9505(6)
H20_2 H 0.5605 0.6377 0.9037
C30_2 C 0.5329(7) 0.5917(3) 0.9603(6)
H21_2 H 0.4889 0.5842 0.9204
N13_2 N 0.79409(2) 0.59475(2) 0.89541(2)
N14_2 N 0.72583(4) 0.53095(3) 0.93369(5)
C49_2 C 0.82975(2) 0.62808(2) 0.87541(2)
H33_2 H 0.8789 0.6373 0.9077
C50_2 C 0.7970(6) 0.6493(3) 0.8094(5)
H34_2 H 0.8191 0.6737 0.8018
C51_2 C 0.7338(6) 0.6352(3) 0.7561(6)
H35_2 H 0.7155 0.6488 0.7091
C52_2 C 0.6966(6) 0.6012(3) 0.7703(5)
C53_2 C 0.6217(7) 0.5843(3) 0.7217(6)
H36_2 H 0.5982 0.5967 0.6747
C54_2 C 0.5861(6) 0.5516(3) 0.7429(6)
H37_2 H 0.5388 0.5414 0.7099
C55_2 C 0.6190(6) 0.5313(3) 0.8165(5)
C56 C 0.5819(6) 0.4984(2) 0.8474(5)
H38 H 0.5328 0.4870 0.8189
C57 C 0.6158(7) 0.4831(3) 0.9169(6)
H39 H 0.5917 0.4607 0.9363
C58_2 C 0.6860(6) 0.5002(2) 0.9598(6)
C59_2 C 0.6900(6) 0.5465(2) 0.8629(5)
C60_2 C 0.7294(6) 0.5813(3) 0.8416(5)
C91 C 0.67275(17) 0.38084(4) 0.94176(14)
C92 C 0.7987(3) 0.38726(8) 0.8668(3)
N25 N 0.8362(3) 0.37861(8) 0.8029(3)
H73 H 0.8093 0.3640 0.7666
H74 H 0.8884 0.3874 0.7960
C93 C 0.8354(3) 0.41069(8) 0.9299(3)
H75 H 0.8917 0.4211 0.9262
C94 C 0.7927(3) 0.41833(8) 0.9939(3)
H100_2 H 0.935787 0.505842 0.942133
H101_2 H 0.966802 0.54488 0.904404
H102 H 0.86364 0.355859 0.831139
Cu1_2 Cu 0.42298(7) 0.12135(5) 0.65350(6)
Cu2_2 Cu 0.17684(7) 0.11503(5) 0.47528(6)
Cu3_2 Cu 0.27334(7) 0.08777(5) 0.76727(6)
O13_2 O 0.4941(4) 0.1545(2) 0.5683(4)
O14_2 O 0.3110(4) 0.13083(19) 0.4434(4)
P1_2 P 0.30198(16) 0.06093(8) 0.58967(13)
O17_2 O 0.3829(4) 0.08404(18) 0.5704(4)
O18_2 O 0.2187(4) 0.07593(18) 0.5490(3)
O19_2 O 0.2998(4) 0.05494(18) 0.6809(3)
O20_2 O 0.3097(4) 0.02054(18) 0.5485(4)
P2_2 P 0.22058(14) 0.15145(7) 0.64101(13)
O21_2 O 0.3200(4) 0.15267(17) 0.6339(3)
O22_2 O 0.1662(4) 0.15108(18) 0.5612(4)
O23_2 O 0.1975(4) 0.12159(16) 0.7010(3)
O24_2 O 0.1916(4) 0.18952(17) 0.6848(3)
P3_2 P 0.13552(15) 0.02482(8) 0.83396(13)
O25_2 O 0.1426(4) 0.06086(17) 0.7861(3)
O26_2 O 0.1812(4) 0.02804(17) 0.9177(3)
O27_2 O 0.0438(4) 0.0096(2) 0.8300(5)
N5_2 N 0.45956(2) 0.14997(2) 0.75484(2)
N6_2 N 0.51988(4) 0.08580(3) 0.69991(6)
C1_2 C 0.42925(2) 0.18222(2) 0.78244(3)
H1_2 H 0.3845 0.1948 0.7505
C2_2 C 0.4593(7) 0.1984(3) 0.8552(6)
H2_2 H 0.4354 0.2214 0.8713
C3_2 C 0.5239(7) 0.1809(3) 0.9034(6)
H3_2 H 0.5441 0.1918 0.9531
C4_2 C 0.5605(6) 0.1465(3) 0.8795(6)
C5_2 C 0.6274(7) 0.1251(4) 0.9208(6)
H4_2 H 0.6518 0.1337 0.9713
C6_2 C 0.6587(6) 0.0921(4) 0.8907(6)
H5_2 H 0.7045 0.0790 0.9204
C7_2 C 0.6237(6) 0.0775(3) 0.8163(6)
C8_2 C 0.6505(6) 0.0433(3) 0.7843(6)
H6_2 H 0.6949 0.0287 0.8122
C9_2 C 0.6110(6) 0.0313(3) 0.7115(7)
H7_2 H 0.6267 0.0081 0.6891
C10_2 C 0.5472(6) 0.0544(3) 0.6719(6)
H8_2 H 0.5221 0.0464 0.6210
C11_2 C 0.5579(5) 0.0975(3) 0.7710(5)
C12_2 C 0.5249(6) 0.1320(3) 0.8011(6)
N7_2 N 0.09896(2) 0.14731(2) 0.40169(2)
N8_2 N 0.15434(4) 0.07688(4) 0.38440(5)
C13_2 C 0.07149(2) 0.18225(2) 0.41027(2)
H9_2 H 0.0947 0.1961 0.4554
C14_2 C 0.0107(6) 0.1995(3) 0.3566(6)
C16_2 C 0.0008(7) 0.1439(3) 0.2777(6)
C18_2 C 0.0015(7) 0.0864(4) 0.1995(6)
C19_2 C 0.0663(7) 0.0698(4) 0.2590(6)
C20_2 C 0.1018(7) 0.0339(3) 0.2528(6)
H14_2 H 0.0858 0.0194 0.2064
C21_2 C 0.1589(7) 0.0189(4) 0.3116(6)
C22_2 C 0.1832(7) 0.0432(3) 0.3773(6)
H16_2 H 0.2234 0.0339 0.4187
C23_2 C 0.0950(6) 0.0912(3) 0.3235(5)
C24_2 C 0.0659(6) 0.1282(3) 0.3343(5)
N9_2 N 0.28078(2) 0.12529(2) 0.85852(2)
N10_2 N 0.36160(4) 0.06055(3) 0.84122(5)
C25_2 C 0.24015(2) 0.15783(2) 0.86721(3)
H17_2 H 0.2007 0.1659 0.8240
C26_2 C 0.2504(6) 0.1809(3) 0.9336(6)
H18_2 H 0.2173 0.2032 0.9364
C27_2 C 0.3112(7) 0.1704(3) 0.9965(6)
C28_2 C 0.3590(6) 0.1365(3) 0.9907(6)
C31_2 C 0.4485(6) 0.0676(3) 0.9701(6)
C32_2 C 0.4924(6) 0.0335(3) 0.9542(6)
H22_2 H 0.5387 0.0249 0.9906
C33_2 C 0.4676(6) 0.0128(3) 0.8854(6)
C34_2 C 0.4001(6) 0.0285(3) 0.8304(5)
H24_2 H 0.3825 0.0147 0.7834
C35_2 C 0.3864(5) 0.0807(3) 0.9090(5)
C36_2 C 0.3401(6) 0.1150(3) 0.9208(5)
N12_2 N 0.04290(4) 0.06606(4) 0.62680(6)
C45_2 C 0.0499(6) 0.0127(3) 0.5382(6)
C46_2 C 0.0769(7) 0.0317(3) 0.6121(6)
H32_2 H 0.1180 0.0204 0.6502
N20_2 N 0.41436(11) 0.28411(2) 0.72738(4)
C82_2 C 0.4821(3) 0.30613(4) 0.76206(11)
C83_2 C 0.5767(5) 0.28436(9) 0.6686(2)
N22_2 N 0.6565(5) 0.28423(9) 0.6390(2)
H61_2 H 0.6989 0.2982 0.6613
H62_2 H 0.6656 0.2701 0.5976
C84_2 C 0.5059(5) 0.26138(9) 0.6324(2)
H63_2 H 0.5151 0.2461 0.5877
C85_2 C 0.4314(5) 0.26166(9) 0.6604(2)
H64_2 H 0.3859 0.2465 0.6360
O38_2 O 0.2874(4) 0.25031(18) 0.7461(4)
C86_2 C 0.33156(18) 0.28537(3) 0.76112(7)
H65_2 H 0.3417 0.2893 0.8201
C87_2 C 0.2682(7) 0.3171(3) 0.7239(8)
H66_2 H 0.3004 0.3385 0.7019
O39_2 O 0.2112(6) 0.3287(3) 0.7841(6)
H67_2 H 0.1777 0.3457 0.7653
C88_2 C 0.2127(8) 0.2947(3) 0.6579(7)
H68_2 H 0.2470 0.2917 0.6104
O40_2 O 0.1317(5) 0.3110(2) 0.6336(5)
H69_2 H 0.1051 0.2977 0.5983
C89_2 C 0.2029(6) 0.2564(3) 0.6977(6)
H70_2 H 0.1538 0.2569 0.7330
C90_2 C 0.1923(6) 0.2244(2) 0.6410(6)
H71_2 H 0.1370 0.2272 0.6068
H72_2 H 0.2410 0.2243 0.6061
H94_2 H 0.452436 0.163326 0.52384
H95_2 H 0.522234 0.176385 0.596334
H98_2 H 0.338886 0.108867 0.419879
H99_2 H 0.306444 0.151591 0.404012
C56_2 C 0.4181(6) 0.9984(2) 0.1526(5)
H38_2 H 0.4672 0.9870 0.1811
C57_2 C 0.3842(7) 0.9831(3) 0.0831(6)
H39_2 H 0.4083 0.9607 0.0637
C91_2 C 0.32725(17) 0.88084(4) 0.05824(14)
O41 O 0.4010(3) 0.86752(7) 0.0520(2)
N24 N 0.2809(3) 0.87351(7) 0.1240(2)
C92_2 C 0.2013(3) 0.88726(8) 0.1332(3)
N25_2 N 0.1638(3) 0.87861(8) 0.1971(3)
H73_2 H 0.1907 0.8640 0.2334
H74_2 H 0.1116 0.8874 0.2040
C93_2 C 0.1646(3) 0.91069(8) 0.0701(3)
H75_2 H 0.1083 0.9211 0.0738
C94_2 C 0.2073(3) 0.91833(8) 0.0061(3)
H102_2 H 0.13636 0.855859 0.168861
O28_2 O 0.1912(4) 0.99533(17) 0.7868(4)
O32_2 O 0.0333(6) 0.6378(3) 0.0532(5)
H15_2 H 0.1808 0.9942 0.3088
H23_2 H 0.4940 0.9894 0.8753
H31_2 H 0.0683 0.9878 0.5296
H40_2 H 0.2930 0.9899 0.9902
N17_2 N 0.35156(5) 0.91656(2) 0.37808(5)
C73_2 C 0.34066(11) 0.88644(5) 0.32737(11)
O33_2 O 0.2828(2) 0.86252(11) 0.3343(2)
N18_2 N 0.3977(2) 0.88324(11) 0.2661(2)
C74_2 C 0.4588(2) 0.90963(11) 0.2611(2)
N19_2 N 0.5110(2) 0.90479(11) 0.2012(2)
H49_2 H 0.5033 0.8854 0.1692
H50_2 H 0.5526 0.9210 0.1943
C75_2 C 0.4706(2) 0.94054(11) 0.3126(2)
H51_2 H 0.5149 0.9586 0.3066
C76_2 C 0.4139(2) 0.94349(11) 0.3729(2)
H52_2 H 0.4187 0.9638 0.4096
O34_2 O 0.2864(5) 0.95447(19) 0.4737(4)
C77_2 C 0.28697(8) 0.91779(4) 0.44254(8)
H53_2 H 0.2272 0.9108 0.4190
C78_2 C 0.3162(9) 0.8911(3) 0.5126(6)
H54_2 H 0.3537 0.8704 0.4946
O35_2 O 0.2434(6) 0.8768(2) 0.5486(4)
H55_2 H 0.2525 0.8784 0.5985
C79_2 C 0.3694(8) 0.9183(3) 0.5679(6)
H56_2 H 0.4278 0.9226 0.5476
O36_2 O 0.3805(5) 0.9061(2) 0.6503(4)
H57_2 H 0.3328 0.8982 0.6642
C80_2 C 0.3153(8) 0.9545(3) 0.5601(5)
H58_2 H 0.2642 0.9532 0.5929
C81_2 C 0.3681(7) 0.9903(3) 0.5785(6)
H59_2 H 0.3835 0.9929 0.6367
H60_2 H 0.4224 0.9902 0.5509
N23_2 N 0.28543(7) 0.90443(2) 0.99864(6)
H76_2 H 0.1808 0.9340 0.9653
O42_2 O 0.3010(4) 0.94435(17) 0.8884(3)
C95_2 C 0.33756(12) 0.91193(2) 0.92762(9)
H77_2 H 0.4001 0.9166 0.9464
C96_2 C 0.3313(7) 0.8799(3) 0.8645(5)
H78_2 H 0.3213 0.8552 0.8901
O43_2 O 0.4056(5) 0.8792(2) 0.8243(4)
H79_2 H 0.3939 0.8868 0.7774
C97_2 C 0.2525(7) 0.8914(3) 0.8087(5)
H80_2 H 0.1986 0.8849 0.8350
O44_2 O 0.2450(5) 0.87665(19) 0.7328(4)
H81_2 H 0.2850 0.8851 0.7070
C98_2 C 0.2626(7) 0.9349(3) 0.8095(5)
H82_2 H 0.3028 0.9426 0.7688
C99_2 C 0.1749(7) 0.9556(3) 0.7940(6)
H83_2 H 0.1433 0.9462 0.7442
H84_2 H 0.1383 0.9510 0.8386
N26_2 N 0.19712(6) 0.75107(2) 0.12809(4)
C100_2 C 0.24030(15) 0.78116(5) 0.16248(11)
O45_2 O 0.2129(3) 0.79829(10) 0.2179(2)
N27_2 N 0.3167(3) 0.79244(10) 0.1338(2)
C101_2 C 0.3485(3) 0.77404(11) 0.0726(2)
N28_2 N 0.4232(3) 0.78536(11) 0.0452(2)
H85_2 H 0.4513 0.8047 0.0671
H86_2 H 0.4442 0.7734 0.0053
C102_2 C 0.3039(3) 0.74282(11) 0.0368(2)
C103_2 C 0.2288(3) 0.73235(11) 0.0663(2)
H88_2 H 0.1974 0.7115 0.0435
O46_2 O 0.0943(6) 0.7010(3) 0.1429(6)
C104_2 C 0.11630(10) 0.73932(3) 0.15880(7)
H89_2 H 0.1257 0.7416 0.2182
C105_2 C 0.0461(9) 0.7625(5) 0.1351(11)
H90_2 H 0.0624 0.7888 0.1230
H92_2 H 0.0344 0.7429 0.0198
C108_2 C 0.0068(14) 0.6731(5) 0.0269(9)
O16_2 O 0.8432(7) 0.0087(3) 0.8832(7)
H10_2 H 0.9933 0.2245 0.3660
C15_2 C 0.9764(7) 0.1814(3) 0.2923(7)
H11_2 H 0.9353 0.1937 0.2558
C17_2 C 0.9709(7) 0.1210(4) 0.2101(6)
H12_2 H 0.9281 0.1308 0.1716
H13_2 H 0.9812 0.0724 0.1535
N11_2 N 0.99837(2) 0.13591(2) 0.66121(2)
C37_2 C 0.97543(2) 0.17190(2) 0.67894(3)
H25_2 H 0.9913 0.1812 0.7311
C38_2 C 0.9297(6) 0.1954(3) 0.6235(6)
H26_2 H 0.9189 0.2208 0.6359
C39_2 C 0.8998(6) 0.1801(3) 0.5480(7)
H27_2 H 0.8671 0.1954 0.5100
C40_2 C 0.9173(6) 0.1436(3) 0.5288(6)
C41_2 C 0.8924(6) 0.1259(4) 0.4503(6)
H28_2 H 0.8609 0.1399 0.4095
C42_2 C 0.9139(6) 0.0899(3) 0.4361(6)
H29_2 H 0.8920 0.0785 0.3874
C43_2 C 0.9684(6) 0.0688(3) 0.4921(5)
C44_2 C 0.9964(7) 0.0314(3) 0.4795(6)
H30_2 H 0.9785 0.0190 0.4308
C47_2 C 0.9934(6) 0.0844(3) 0.5682(5)
C48_2 C 0.9676(6) 0.1213(3) 0.5854(5)
N15_2 N 0.85156(2) 0.07813(2) 0.75715(2)
N16_2 N 0.89544(4) 0.00816(5) 0.71565(7)
C61_2 C 0.83261(2) 0.10834(2) 0.77507(3)
H41_2 H 0.8550 0.1143 0.8280
C62_2 C 0.7800(13) 0.1415(6) 0.7345(12)
H42_2 H 0.7720 0.1664 0.7521
C63_2 C 0.7504(12) 0.1246(6) 0.6691(12)
H43_2 H 0.7109 0.1413 0.6409
C64_2 C 0.7530(13) 0.0852(6) 0.6136(12)
C65_2 C 0.7342(10) 0.0593(5) 0.5461(9)
H44_2 H 0.6942 0.0692 0.5052
C66_2 C 0.7549(13) 0.0333(6) 0.5341(13)
H45_2 H 0.7356 0.0232 0.4833
C67_2 C 0.8112(12) 0.0095(5) 0.5868(11)
C71_2 C 0.8409(11) 0.0258(5) 0.6578(10)
C72_2 C 0.8232(10) 0.0660(5) 0.6895(9)
H96_2 H 0.86669 0.00799452 0.940091
H97_2 H 0.785676 0.0214856 0.878658
P4_2 P 0.97224(19) 0.60779(10) 0.09533(16)
C68_2 C 0.8334(13) 0.9792(6) 0.5734(13)
H46_2 H 0.8139 0.9690 0.5228
C69_2 C 0.8913(10) 0.9544(5) 0.6302(10)
H47_2 H 0.9075 0.9292 0.6210
C70_2 C 0.9163(11) 0.9763(5) 0.6995(10)
H48_2 H 0.9548 0.9643 0.7388
O47_2 O 0.9786(7) 0.7584(3) 0.2029(9)
H91_2 H 0.9988 0.7693 0.2447
C106_2 C 0.9990(13) 0.7421(5) 0.0670(13)
O48_2 O 0.9205(9) 0.7443(4) 0.0441(9)
C107_2 C 0.9995(12) 0.7049(5) 0.0986(9)
H93_2 H 0.9515 0.6999 0.1337
H103_2 H 0.905982 0.7705 0.0284423
H104_2 H 0.942802 0.67044 0.994255
H87 H 0.6740 0.2298 0.0063
H105 H 0.946496 0.183259 0.013186
H87_2 H 0.3260 0.7298 0.9937
H105_2 H 0.0535035 0.683259 0.986814
loop_
_geom_bond_atom_site_label_1
_geom_bond_atom_site_label_2
_geom_bond_site_symmetry_1
_geom_bond_site_symmetry_2
N1 O1 1_555 1_555
O2 N1 1_555 1_555
O3 N1 1_555 1_555
N1_2 O1_2 1_555 1_555
O2_2 N1_2 1_555 1_555
O3_2 N1_2 1_555 1_555
N2 O4 1_555 1_555
O6 N2 1_555 1_555
N2_2 O4_2 1_555 1_555
O6_2 N2_2 1_555 1_555
N3 O7 1_555 1_555
O8 N3 1_555 1_555
O9 N3 1_555 1_555
N3_2 O7_2 1_555 1_555
O8_2 N3_2 1_555 1_555
O9_2 N3_2 1_555 1_555
N4 O10 1_555 1_555
O11 N4 1_555 1_555
N4_2 O10_2 1_555 1_555
O11_2 N4_2 1_555 1_555
Cu9 O15 1_555 1_555
H20 C29 1_555 1_555
C30 C29 1_555 1_555
H21 C30 1_555 1_555
N13 Cu9 1_555 1_555
N14 Cu9 1_555 1_555
C49 N13 1_555 1_555
H33 C49 1_555 1_555
C50 C49 1_555 1_555
H34 C50 1_555 1_555
C51 C50 1_555 1_555
H35 C51 1_555 1_555
C52 C51 1_555 1_555
C53 C52 1_555 1_555
H36 C53 1_555 1_555
C54 C53 1_555 1_555
H37 C54 1_555 1_555
C55 C54 1_555 1_555
C58 N14 1_555 1_555
C59 N14 1_555 1_555
C60 N13 1_555 1_555
C52 C60 1_555 1_555
C55 C59 1_555 1_555
C59 C60 1_555 1_555
O15 H100 1_555 1_555
O15 H101 1_555 1_555
Cu6 O16 1_555 1_555
P4 O29 1_555 1_555
O29 Cu8 1_555 1_555
O30 P4 1_555 1_555
H11 C15 1_555 1_555
H12 C17 1_555 1_555
C37 N11 1_555 1_555
H25 C37 1_555 1_555
C38 C37 1_555 1_555
H26 C38 1_555 1_555
C39 C38 1_555 1_555
H27 C39 1_555 1_555
C40 C39 1_555 1_555
C41 C40 1_555 1_555
H28 C41 1_555 1_555
C42 C41 1_555 1_555
H29 C42 1_555 1_555
C43 C42 1_555 1_555
C44 C43 1_555 1_555
H30 C44 1_555 1_555
C48 N11 1_555 1_555
N15 Cu6 1_555 1_555
N16 Cu6 1_555 1_555
C61 N15 1_555 1_555
H41 C61 1_555 1_555
C62 C61 1_555 1_555
H42 C62 1_555 1_555
C63 C62 1_555 1_555
H43 C63 1_555 1_555
C64 C63 1_555 1_555
C65 C64 1_555 1_555
H44 C65 1_555 1_555
C66 C65 1_555 1_555
H45 C66 1_555 1_555
C67 C66 1_555 1_555
C68 C67 1_555 1_555
H46 C68 1_555 1_555
C69 C68 1_555 1_555
H47 C69 1_555 1_555
C70 N16 1_555 1_555
H48 C70 1_555 1_555
C71 N16 1_555 1_555
C72 N15 1_555 1_555
H91 O47 1_555 1_555
O48 C106 1_555 1_555
H93 C107 1_555 1_555
O51 Cu6 1_555 1_555
C40 C48 1_555 1_555
C43 C47 1_555 1_555
C47 C48 1_555 1_555
C64 C72 1_555 1_555
C67 C71 1_555 1_555
C69 C70 1_555 1_555
C71 C72 1_555 1_555
C106 C107 1_555 1_555
O16 H96 1_555 1_555
O16 H97 1_555 1_555
O48 H103 1_555 1_555
Cu1 O13 1_555 1_555
Cu2 O14 1_555 1_555
Cu3 O19 1_555 1_555
Cu4 O23 1_555 1_555
Cu7 O33 1_555 1_555
P1 O17 1_555 1_555
O17 Cu1 1_555 1_555
O18 Cu2 1_555 1_555
O19 P1 1_555 1_555
O20 P1 1_555 1_555
P2 O21 1_555 1_555
O21 Cu1 1_555 1_555
O22 Cu2 1_555 1_555
O23 Cu3 1_555 1_555
O24 P2 1_555 1_555
P3 O25 1_555 1_555
O25 Cu3 1_555 1_555
O28 P3 1_555 1_555
N5 Cu1 1_555 1_555
N6 Cu1 1_555 1_555
C1 N5 1_555 1_555
H1 C1 1_555 1_555
C2 C1 1_555 1_555
H2 C2 1_555 1_555
C3 C2 1_555 1_555
H3 C3 1_555 1_555
C4 C3 1_555 1_555
C5 C4 1_555 1_555
H4 C5 1_555 1_555
C6 C5 1_555 1_555
H5 C6 1_555 1_555
C7 C6 1_555 1_555
C8 C7 1_555 1_555
H6 C8 1_555 1_555
C9 C8 1_555 1_555
H7 C9 1_555 1_555
C10 N6 1_555 1_555
H8 C10 1_555 1_555
C11 N6 1_555 1_555
C12 N5 1_555 1_555
N7 Cu2 1_555 1_555
N8 Cu2 1_555 1_555
C13 N7 1_555 1_555
H9 C13 1_555 1_555
C14 C13 1_555 1_555
C19 C18 1_555 1_555
C20 C19 1_555 1_555
H14 C20 1_555 1_555
C21 C20 1_555 1_555
H15 C21 1_555 1_555
C22 N8 1_555 1_555
H16 C22 1_555 1_555
C23 N8 1_555 1_555
C24 N7 1_555 1_555
N9 Cu3 1_555 1_555
N10 Cu3 1_555 1_555
C25 N9 1_555 1_555
H17 C25 1_555 1_555
C26 C25 1_555 1_555
H18 C26 1_555 1_555
C27 C26 1_555 1_555
C28 C27 1_555 1_555
C32 C31 1_555 1_555
H22 C32 1_555 1_555
C33 C32 1_555 1_555
H23 C33 1_555 1_555
C34 N10 1_555 1_555
H24 C34 1_555 1_555
C35 N10 1_555 1_555
C36 N9 1_555 1_555
N12 Cu4 1_555 1_555
H31 C45 1_555 1_555
C46 N12 1_555 1_555
H32 C46 1_555 1_555
N17 C73 1_555 1_555
C73 O33 1_555 1_555
N18 Cu7 1_555 1_555
C74 N18 1_555 1_555
N19 C74 1_555 1_555
H49 N19 1_555 1_555
H50 N19 1_555 1_555
C75 C74 1_555 1_555
H51 C75 1_555 1_555
C76 N17 1_555 1_555
H52 C76 1_555 1_555
O34 C77 1_555 1_555
C77 N17 1_555 1_555
H53 C77 1_555 1_555
C78 C77 1_555 1_555
H54 C78 1_555 1_555
O35 C78 1_555 1_555
H55 O35 1_555 1_555
C79 C78 1_555 1_555
H56 C79 1_555 1_555
O36 C79 1_555 1_555
H57 O36 1_555 1_555
C80 O34 1_555 1_555
H58 C80 1_555 1_555
C81 O20 1_555 1_555
H59 C81 1_555 1_555
H60 C81 1_555 1_555
N20 C82 1_555 1_555
C82 O37 1_555 1_555
O37 Cu12 1_555 1_555
N21 C82 1_555 1_555
C83 N21 1_555 1_555
N22 C83 1_555 1_555
H61 N22 1_555 1_555
H62 N22 1_555 1_555
C84 C83 1_555 1_555
H63 C84 1_555 1_555
C85 N20 1_555 1_555
H64 C85 1_555 1_555
O38 C86 1_555 1_555
C86 N20 1_555 1_555
H65 C86 1_555 1_555
C87 C86 1_555 1_555
H66 C87 1_555 1_555
O39 C87 1_555 1_555
H67 O39 1_555 1_555
C88 C87 1_555 1_555
H68 C88 1_555 1_555
O40 C88 1_555 1_555
H69 O40 1_555 1_555
C89 O38 1_555 1_555
H70 C89 1_555 1_555
C90 O24 1_555 1_555
H71 C90 1_555 1_555
H72 C90 1_555 1_555
O42 C95 1_555 1_555
C95 N23 1_555 1_555
H77 C95 1_555 1_555
C96 C95 1_555 1_555
H78 C96 1_555 1_555
O43 C96 1_555 1_555
H79 O43 1_555 1_555
C97 C96 1_555 1_555
H80 C97 1_555 1_555
O44 C97 1_555 1_555
H81 O44 1_555 1_555
C98 O42 1_555 1_555
H82 C98 1_555 1_555
C99 O28 1_555 1_555
H83 C99 1_555 1_555
H84 C99 1_555 1_555
N26 C100 1_555 1_555
C100 O45 1_555 1_555
O45 Cu7 1_555 1_555
N27 Cu7 1_555 1_555
C101 N27 1_555 1_555
N28 C101 1_555 1_555
H85 N28 1_555 1_555
H86 N28 1_555 1_555
C102 C101 1_555 1_555
C103 N26 1_555 1_555
H88 C103 1_555 1_555
O46 C104 1_555 1_555
C104 N26 1_555 1_555
H89 C104 1_555 1_555
C105 C104 1_555 1_555
H90 C105 1_555 1_555
C108 O32 1_555 1_555
Cu10 O31 1_555 1_555
Cu12 N21 1_555 1_555
O49 Cu4 1_555 1_555
O52 Cu7 1_555 1_555
N29 Cu7 1_555 1_555
O53 Cu7 1_555 1_555
N30 Cu7 1_555 1_555
Cu4 O25 1_555 1_555
P1 O18 1_555 1_555
P2 O22 1_555 1_555
P2 O23 1_555 1_555
P3 O26 1_555 1_555
P3 O27 1_555 1_555
C4 C12 1_555 1_555
C7 C11 1_555 1_555
C9 C10 1_555 1_555
C11 C12 1_555 1_555
C16 C24 1_555 1_555
C19 C23 1_555 1_555
C21 C22 1_555 1_555
C23 C24 1_555 1_555
C28 C36 1_555 1_555
C31 C35 1_555 1_555
C33 C34 1_555 1_555
C35 C36 1_555 1_555
C45 C46 1_555 1_555
C73 N18 1_555 1_555
C75 C76 1_555 1_555
C79 C80 1_555 1_555
C80 C81 1_555 1_555
C84 C85 1_555 1_555
C88 C89 1_555 1_555
C89 C90 1_555 1_555
C97 C98 1_555 1_555
C98 C99 1_555 1_555
C100 N27 1_555 1_555
C102 C103 1_555 1_555
O13 H94 1_555 1_555
O13 H95 1_555 1_555
O14 H98 1_555 1_555
O14 H99 1_555 1_555
Cu5 O15_2 1_555 1_555
H20_2 C29_2 1_555 1_555
C30_2 C29_2 1_555 1_555
H21_2 C30_2 1_555 1_555
N13_2 Cu5 1_555 1_555
N14_2 Cu5 1_555 1_555
C49_2 N13_2 1_555 1_555
H33_2 C49_2 1_555 1_555
C50_2 C49_2 1_555 1_555
H34_2 C50_2 1_555 1_555
C51_2 C50_2 1_555 1_555
H35_2 C51_2 1_555 1_555
C52_2 C51_2 1_555 1_555
C53_2 C52_2 1_555 1_555
H36_2 C53_2 1_555 1_555
C54_2 C53_2 1_555 1_555
H37_2 C54_2 1_555 1_555
C55_2 C54_2 1_555 1_555
C56 C55_2 1_555 1_555
H38 C56 1_555 1_555
C57 C56 1_555 1_555
H39 C57 1_555 1_555
C58_2 N14_2 1_555 1_555
C59_2 N14_2 1_555 1_555
C60_2 N13_2 1_555 1_555
C91 O53 1_555 1_555
N30 C91 1_555 1_555
C92 N30 1_555 1_555
N25 C92 1_555 1_555
H73 N25 1_555 1_555
H74 N25 1_555 1_555
C93 C92 1_555 1_555
H75 C93 1_555 1_555
C52_2 C60_2 1_555 1_555
C55_2 C59_2 1_555 1_555
C57 C58_2 1_555 1_555
C59_2 C60_2 1_555 1_555
C93 C94 1_555 1_555
O15_2 H100_2 1_555 1_555
O15_2 H101_2 1_555 1_555
N25 H102 1_555 1_555
Cu1_2 O13_2 1_555 1_555
Cu2_2 O14_2 1_555 1_555
Cu3_2 O19_2 1_555 1_555
Cu8 O23_2 1_555 1_555
P1_2 O17_2 1_555 1_555
O17_2 Cu1_2 1_555 1_555
O18_2 Cu2_2 1_555 1_555
O19_2 P1_2 1_555 1_555
O20_2 P1_2 1_555 1_555
P2_2 O21_2 1_555 1_555
O21_2 Cu1_2 1_555 1_555
O22_2 Cu2_2 1_555 1_555
O23_2 Cu3_2 1_555 1_555
O24_2 P2_2 1_555 1_555
P3_2 O25_2 1_555 1_555
O25_2 Cu3_2 1_555 1_555
N5_2 Cu1_2 1_555 1_555
N6_2 Cu1_2 1_555 1_555
C1_2 N5_2 1_555 1_555
H1_2 C1_2 1_555 1_555
C2_2 C1_2 1_555 1_555
H2_2 C2_2 1_555 1_555
C3_2 C2_2 1_555 1_555
H3_2 C3_2 1_555 1_555
C4_2 C3_2 1_555 1_555
C5_2 C4_2 1_555 1_555
H4_2 C5_2 1_555 1_555
C6_2 C5_2 1_555 1_555
H5_2 C6_2 1_555 1_555
C7_2 C6_2 1_555 1_555
C8_2 C7_2 1_555 1_555
H6_2 C8_2 1_555 1_555
C9_2 C8_2 1_555 1_555
H7_2 C9_2 1_555 1_555
C10_2 N6_2 1_555 1_555
H8_2 C10_2 1_555 1_555
C11_2 N6_2 1_555 1_555
C12_2 N5_2 1_555 1_555
N7_2 Cu2_2 1_555 1_555
N8_2 Cu2_2 1_555 1_555
C13_2 N7_2 1_555 1_555
H9_2 C13_2 1_555 1_555
C14_2 C13_2 1_555 1_555
C19_2 C18_2 1_555 1_555
C20_2 C19_2 1_555 1_555
H14_2 C20_2 1_555 1_555
C21_2 C20_2 1_555 1_555
C22_2 N8_2 1_555 1_555
H16_2 C22_2 1_555 1_555
C23_2 N8_2 1_555 1_555
C24_2 N7_2 1_555 1_555
N9_2 Cu3_2 1_555 1_555
N10_2 Cu3_2 1_555 1_555
C25_2 N9_2 1_555 1_555
H17_2 C25_2 1_555 1_555
C26_2 C25_2 1_555 1_555
H18_2 C26_2 1_555 1_555
C27_2 C26_2 1_555 1_555
C28_2 C27_2 1_555 1_555
C32_2 C31_2 1_555 1_555
H22_2 C32_2 1_555 1_555
C33_2 C32_2 1_555 1_555
C34_2 N10_2 1_555 1_555
H24_2 C34_2 1_555 1_555
C35_2 N10_2 1_555 1_555
C36_2 N9_2 1_555 1_555
N12_2 Cu8 1_555 1_555
C46_2 N12_2 1_555 1_555
H32_2 C46_2 1_555 1_555
N20_2 C82_2 1_555 1_555
C82_2 O52 1_555 1_555
N29 C82_2 1_555 1_555
C83_2 N29 1_555 1_555
N22_2 C83_2 1_555 1_555
H61_2 N22_2 1_555 1_555
H62_2 N22_2 1_555 1_555
C84_2 C83_2 1_555 1_555
H63_2 C84_2 1_555 1_555
C85_2 N20_2 1_555 1_555
H64_2 C85_2 1_555 1_555
O38_2 C86_2 1_555 1_555
C86_2 N20_2 1_555 1_555
H65_2 C86_2 1_555 1_555
C87_2 C86_2 1_555 1_555
H66_2 C87_2 1_555 1_555
O39_2 C87_2 1_555 1_555
H67_2 O39_2 1_555 1_555
C88_2 C87_2 1_555 1_555
H68_2 C88_2 1_555 1_555
O40_2 C88_2 1_555 1_555
H69_2 O40_2 1_555 1_555
C89_2 O38_2 1_555 1_555
H70_2 C89_2 1_555 1_555
C90_2 O24_2 1_555 1_555
H71_2 C90_2 1_555 1_555
H72_2 C90_2 1_555 1_555
Cu8 O25_2 1_555 1_555
P1_2 O18_2 1_555 1_555
P2_2 O22_2 1_555 1_555
P2_2 O23_2 1_555 1_555
P3_2 O26_2 1_555 1_555
P3_2 O27_2 1_555 1_555
C4_2 C12_2 1_555 1_555
C7_2 C11_2 1_555 1_555
C9_2 C10_2 1_555 1_555
C11_2 C12_2 1_555 1_555
C16_2 C24_2 1_555 1_555
C19_2 C23_2 1_555 1_555
C21_2 C22_2 1_555 1_555
C23_2 C24_2 1_555 1_555
C28_2 C36_2 1_555 1_555
C31_2 C35_2 1_555 1_555
C33_2 C34_2 1_555 1_555
C35_2 C36_2 1_555 1_555
C45_2 C46_2 1_555 1_555
C84_2 C85_2 1_555 1_555
C88_2 C89_2 1_555 1_555
C89_2 C90_2 1_555 1_555
O13_2 H94_2 1_555 1_555
O13_2 H95_2 1_555 1_555
O14_2 H98_2 1_555 1_555
O14_2 H99_2 1_555 1_555
H38_2 C56_2 1_555 1_555
C57_2 C56_2 1_555 1_555
H39_2 C57_2 1_555 1_555
C91_2 O41 1_555 1_555
O41 Cu12 1_555 1_555
N24 C91_2 1_555 1_555
C92_2 N24 1_555 1_555
N25_2 C92_2 1_555 1_555
H73_2 N25_2 1_555 1_555
H74_2 N25_2 1_555 1_555
C93_2 C92_2 1_555 1_555
H75_2 C93_2 1_555 1_555
Cu12 N24 1_555 1_555
C93_2 C94_2 1_555 1_555
N25_2 H102_2 1_555 1_555
Cu12 O33_2 1_555 1_555
N17_2 C73_2 1_555 1_555
C73_2 O33_2 1_555 1_555
N18_2 Cu12 1_555 1_555
C74_2 N18_2 1_555 1_555
N19_2 C74_2 1_555 1_555
H49_2 N19_2 1_555 1_555
H50_2 N19_2 1_555 1_555
C75_2 C74_2 1_555 1_555
H51_2 C75_2 1_555 1_555
C76_2 N17_2 1_555 1_555
H52_2 C76_2 1_555 1_555
O34_2 C77_2 1_555 1_555
C77_2 N17_2 1_555 1_555
H53_2 C77_2 1_555 1_555
C78_2 C77_2 1_555 1_555
H54_2 C78_2 1_555 1_555
O35_2 C78_2 1_555 1_555
H55_2 O35_2 1_555 1_555
C79_2 C78_2 1_555 1_555
H56_2 C79_2 1_555 1_555
O36_2 C79_2 1_555 1_555
H57_2 O36_2 1_555 1_555
C80_2 O34_2 1_555 1_555
H58_2 C80_2 1_555 1_555
H59_2 C81_2 1_555 1_555
H60_2 C81_2 1_555 1_555
O42_2 C95_2 1_555 1_555
C95_2 N23_2 1_555 1_555
H77_2 C95_2 1_555 1_555
C96_2 C95_2 1_555 1_555
H78_2 C96_2 1_555 1_555
O43_2 C96_2 1_555 1_555
H79_2 O43_2 1_555 1_555
C97_2 C96_2 1_555 1_555
H80_2 C97_2 1_555 1_555
O44_2 C97_2 1_555 1_555
H81_2 O44_2 1_555 1_555
C98_2 O42_2 1_555 1_555
H82_2 C98_2 1_555 1_555
C99_2 O28_2 1_555 1_555
H83_2 C99_2 1_555 1_555
H84_2 C99_2 1_555 1_555
N26_2 C100_2 1_555 1_555
C100_2 O45_2 1_555 1_555
O45_2 Cu12 1_555 1_555
N27_2 Cu12 1_555 1_555
C101_2 N27_2 1_555 1_555
N28_2 C101_2 1_555 1_555
H85_2 N28_2 1_555 1_555
H86_2 N28_2 1_555 1_555
C102_2 C101_2 1_555 1_555
C103_2 N26_2 1_555 1_555
H88_2 C103_2 1_555 1_555
O46_2 C104_2 1_555 1_555
C104_2 N26_2 1_555 1_555
H89_2 C104_2 1_555 1_555
C105_2 C104_2 1_555 1_555
H90_2 C105_2 1_555 1_555
C108_2 O32_2 1_555 1_555
C73_2 N18_2 1_555 1_555
C75_2 C76_2 1_555 1_555
C79_2 C80_2 1_555 1_555
C80_2 C81_2 1_555 1_555
C97_2 C98_2 1_555 1_555
C98_2 C99_2 1_555 1_555
C100_2 N27_2 1_555 1_555
C102_2 C103_2 1_555 1_555
Cu10 O16_2 1_555 1_555
H11_2 C15_2 1_555 1_555
H12_2 C17_2 1_555 1_555
C37_2 N11_2 1_555 1_555
H25_2 C37_2 1_555 1_555
C38_2 C37_2 1_555 1_555
H26_2 C38_2 1_555 1_555
C39_2 C38_2 1_555 1_555
H27_2 C39_2 1_555 1_555
C40_2 C39_2 1_555 1_555
C41_2 C40_2 1_555 1_555
H28_2 C41_2 1_555 1_555
C42_2 C41_2 1_555 1_555
H29_2 C42_2 1_555 1_555
C43_2 C42_2 1_555 1_555
C44_2 C43_2 1_555 1_555
H30_2 C44_2 1_555 1_555
C48_2 N11_2 1_555 1_555
N15_2 Cu10 1_555 1_555
N16_2 Cu10 1_555 1_555
C61_2 N15_2 1_555 1_555
H41_2 C61_2 1_555 1_555
C62_2 C61_2 1_555 1_555
H42_2 C62_2 1_555 1_555
C63_2 C62_2 1_555 1_555
H43_2 C63_2 1_555 1_555
C64_2 C63_2 1_555 1_555
C65_2 C64_2 1_555 1_555
H44_2 C65_2 1_555 1_555
C66_2 C65_2 1_555 1_555
H45_2 C66_2 1_555 1_555
C67_2 C66_2 1_555 1_555
C71_2 N16_2 1_555 1_555
C72_2 N15_2 1_555 1_555
C40_2 C48_2 1_555 1_555
C43_2 C47_2 1_555 1_555
C47_2 C48_2 1_555 1_555
C64_2 C72_2 1_555 1_555
C67_2 C71_2 1_555 1_555
C71_2 C72_2 1_555 1_555
O16_2 H96_2 1_555 1_555
O16_2 H97_2 1_555 1_555
P4_2 O49 1_555 1_555
O50 P4_2 1_555 1_555
H46_2 C68_2 1_555 1_555
C69_2 C68_2 1_555 1_555
H47_2 C69_2 1_555 1_555
H48_2 C70_2 1_555 1_555
H91_2 O47_2 1_555 1_555
O48_2 C106_2 1_555 1_555
H93_2 C107_2 1_555 1_555
C69_2 C70_2 1_555 1_555
C106_2 C107_2 1_555 1_555
O48_2 H103_2 1_555 1_555

#END
