
###############################################################################
#
# This file contains modified crystal structure data generated from the
# MOF subset of the Cambridge Structural Database (CSD) v543 
# hosted by the Cambridge Crystallographic Data Centre (CCDC).
#
# This work is licensed under the Creative Commons
# Attribution-NonCommercial-ShareAlike 4.0 International License.
# To view a copy of this license, visit
# http://creativecommons.org/licenses/by-nc-sa/4.0/
# or send a letter to
# Creative Commons, PO Box 1866, Mountain View, CA 94042, USA.
#
# CIF created using the CSD Python API on 29 September 2022
# The structure has been converted into the P1 space group
# The structure has a 3D framework
# The original CSD entry VEWXAY is in the orthorhombic crystal system
# The framework has been calculated to contain at least 10.0% void space
# The void calculation uses a probe of radius 1.32A, grid spacing 0.4
#
###############################################################################

data_VEWXAY
_chemical_formula_moiety         '(C416 H432 Cd24 N80 O128)n'
_symmetry_cell_setting           triclinic
_symmetry_space_group_name_H-M   'P 1'
_symmetry_Int_Tables_number      1
_space_group_name_Hall           'P 1'
loop_
_symmetry_equiv_pos_site_id
_symmetry_equiv_pos_as_xyz
1 x,y,z
_cell_length_a                   17.125(2)
_cell_length_b                   40.751(3)
_cell_length_c                   24.938(2)
_cell_angle_alpha                90
_cell_angle_beta                 90
_cell_angle_gamma                90
_cell_volume                     17403.3
loop_
_atom_site_label
_atom_site_type_symbol
_atom_site_fract_x
_atom_site_fract_y
_atom_site_fract_z
C1 C 0.2077(2) 0.06110(8) 0.48394(14)
H1 H 0.1633 0.0614 0.5055
C2 C 0.2135(2) 0.08419(9) 0.44309(14)
H2 H 0.1744 0.0998 0.4383
C3 C 0.2763(2) 0.08380(9) 0.41036(15)
C4 C 0.3323(2) 0.06089(9) 0.42106(16)
H3 H 0.3772 0.0599 0.4002
C5 C 0.3222(2) 0.03928(9) 0.46272(14)
H4 H 0.3613 0.0239 0.4691
C6 C 0.2262(2) 0.12659(9) 0.35441(15)
H5 H 0.2108 0.1393 0.3855
H6 H 0.1809 0.1150 0.3409
C7 C 0.25963(19) 0.14872(8) 0.31155(13)
C8 C 0.3266(2) 0.16916(9) 0.33364(14)
H7 H 0.3687 0.1551 0.3460
H8 H 0.3468 0.1838 0.3063
C9 C 0.3428(2) 0.19909(9) 0.41584(15)
C10 C 0.4224(2) 0.19914(9) 0.41355(16)
H9 H 0.4483 0.1908 0.3837
C11 C 0.4636(2) 0.21171(9) 0.45622(15)
H10 H 0.5179 0.2119 0.4543
C12 C 0.3525(2) 0.22296(8) 0.50193(15)
H11 H 0.3279 0.2307 0.5327
C13 C 0.3059(2) 0.21143(8) 0.46034(15)
H12 H 0.2517 0.2120 0.4626
C14 C 0.2955(2) 0.12829(9) 0.26441(14)
H13 H 0.3161 0.1424 0.2365
H14 H 0.3366 0.1138 0.2770
C15 C 0.2403(2) 0.08732(9) 0.20658(15)
C16 C 0.3071(2) 0.07962(9) 0.18490(15)
H15 H 0.3529 0.0895 0.1968
C17 C 0.3094(2) 0.05623(9) 0.14329(15)
H16 H 0.3570 0.0521 0.1267
C18 C 0.1851(2) 0.04664(9) 0.15010(15)
H17 H 0.1406 0.0352 0.1396
C19 C 0.1767(2) 0.07007(9) 0.19116(15)
H18 H 0.1285 0.0736 0.2073
C20 C 0.1938(2) 0.16981(9) 0.29214(15)
H19 H 0.1544 0.1563 0.2750
H20 H 0.1698 0.1810 0.3222
C21 C 0.17460(19) 0.20651(8) 0.21815(13)
C22 C 0.0981(2) 0.19846(10) 0.21303(16)
H21 H 0.0752 0.1834 0.2363
C23 C 0.0548(2) 0.21285(9) 0.17304(15)
H22 H 0.0022 0.2074 0.1707
C24 C 0.1561(2) 0.24356(9) 0.14550(14)
H23 H 0.1765 0.2598 0.1233
C25 C 0.2027(2) 0.23051(9) 0.18487(14)
H24 H 0.2537 0.2380 0.1890
C26 C 0.4446(2) 0.02211(9) 0.55671(15)
H25 H 0.4774 0.0188 0.5260
H26 H 0.4762 0.0232 0.5884
H27 H 0.4161 0.0422 0.5526
Cd1 Cd -0.0000 0.2500 0.067738(13)
Cd2 Cd 0.2500 0.0000 0.560708(14)
N1 N 0.26133(17) 0.03901(7) 0.49365(13)
N2 N 0.42910(17) 0.22368(7) 0.50050(12)
N3 N 0.08271(17) 0.23377(7) 0.13790(11)
N4 N 0.24741(17) 0.03997(7) 0.12671(12)
O1 O 0.28773(14) 0.10362(6) 0.36851(10)
O2 O 0.29445(14) 0.18742(6) 0.37729(10)
O3 O 0.22589(16) 0.10928(6) 0.24520(11)
O4 O 0.22420(15) 0.19377(6) 0.25393(10)
O13 O 0.11001(15) 0.00511(6) 0.56141(10)
N10 N 0.09365(19) 0.31755(8) 0.05952(12)
O14 O 0.05204(15) 0.32149(6) 0.09135(11)
O15 O 0.12531(16) 0.34114(6) 0.04365(11)
O16 O 0.10092(14) 0.29008(6) 0.04693(10)
Cd5 Cd 0.5000 0.2500 0.567738(13)
Cd6 Cd 0.2500 0.0000 0.060708(14)
N11 N 0.07090(17) 0.22368(7) 0.00050(12)
N15 N 0.25259(17) 0.03997(7) 0.62671(12)
Cd2_2 Cd 0.2500 1.0000 0.560708(14)
O5 O 0.38999(15) 0.99489(6) 0.56141(10)
C27 C 0.2923(2) 0.93890(8) 0.48394(14)
H28 H 0.3367 0.9386 0.5055
C28 C 0.2865(2) 0.91581(9) 0.44309(14)
H29 H 0.3256 0.9002 0.4383
C29 C 0.2237(2) 0.91620(9) 0.41036(15)
C30 C 0.1677(2) 0.93911(9) 0.42106(16)
H30 H 0.1228 0.9401 0.4002
C31 C 0.1778(2) 0.96072(9) 0.46272(14)
H31 H 0.1387 0.9761 0.4691
C32 C 0.2738(2) 0.87341(9) 0.35441(15)
H32 H 0.2892 0.8607 0.3855
H33 H 0.3191 0.8850 0.3409
C33 C 0.24037(19) 0.85128(8) 0.31155(13)
C34 C 0.1734(2) 0.83084(9) 0.33364(14)
H34 H 0.1313 0.8449 0.3460
H35 H 0.1532 0.8162 0.3063
C35 C 0.1572(2) 0.80091(9) 0.41584(15)
C36 C 0.0776(2) 0.80086(9) 0.41355(16)
H36 H 0.0517 0.8092 0.3837
C37 C 0.0364(2) 0.78829(9) 0.45622(15)
C38 C 0.1475(2) 0.77704(8) 0.50193(15)
H38 H 0.1721 0.7693 0.5327
C39 C 0.1941(2) 0.78857(8) 0.46034(15)
H39 H 0.2483 0.7880 0.4626
C40 C 0.2045(2) 0.87171(9) 0.26441(14)
H40 H 0.1839 0.8576 0.2365
H41 H 0.1634 0.8862 0.2770
C41 C 0.2597(2) 0.91268(9) 0.20658(15)
C42 C 0.1929(2) 0.92038(9) 0.18490(15)
H42 H 0.1471 0.9105 0.1968
C43 C 0.1906(2) 0.94377(9) 0.14329(15)
H43 H 0.1430 0.9479 0.1267
C44 C 0.3149(2) 0.95336(9) 0.15010(15)
H44 H 0.3594 0.9648 0.1396
C45 C 0.3233(2) 0.92993(9) 0.19116(15)
H45 H 0.3715 0.9264 0.2073
C46 C 0.3062(2) 0.83019(9) 0.29214(15)
H46 H 0.3456 0.8437 0.2750
H47 H 0.3302 0.8190 0.3222
C47 C 0.32540(19) 0.79349(8) 0.21815(13)
C48 C 0.4019(2) 0.80154(10) 0.21303(16)
H48 H 0.4248 0.8166 0.2363
C49 C 0.4452(2) 0.78715(9) 0.17304(15)
H49 H 0.4978 0.7926 0.1707
C50 C 0.3439(2) 0.75644(9) 0.14550(14)
H50 H 0.3235 0.7402 0.1233
C51 C 0.2973(2) 0.76949(9) 0.18487(14)
H51 H 0.2463 0.7620 0.1890
C52 C 0.0554(2) 0.97789(9) 0.55671(15)
H52 H 0.0226 0.9812 0.5260
H53 H 0.0238 0.9768 0.5884
H54 H 0.0839 0.9578 0.5526
N6 N 0.23867(17) 0.96099(7) 0.49365(13)
N7 N 0.07090(17) 0.77632(7) 0.50050(12)
N8 N 0.41729(17) 0.76623(7) 0.13790(11)
N9 N 0.25259(17) 0.96003(7) 0.12671(12)
O9 O 0.21227(14) 0.89638(6) 0.36851(10)
O10 O 0.20555(14) 0.81258(6) 0.37729(10)
O11 O 0.27411(16) 0.89072(6) 0.24520(11)
O12 O 0.27580(15) 0.80623(6) 0.25393(10)
Cd3 Cd 0.5000 0.7500 0.067738(13)
Cd4 Cd -0.0000 0.7500 0.567738(13)
Cd6_2 Cd 0.2500 1.0000 0.060708(14)
N14 N 0.24741(17) 0.96003(7) 0.62671(12)
Cd1_2 Cd 1.0000 0.2500 0.067738(13)
N5 N 0.90635(19) 0.18245(8) 0.05952(12)
O6 O 0.94796(15) 0.17851(6) 0.09135(11)
O7 O 0.87469(16) 0.15886(6) 0.04365(11)
O8 O 0.89908(14) 0.20992(6) 0.04693(10)
N12 N 0.92910(17) 0.27632(7) 0.00050(12)
N13 N 0.91729(17) 0.26623(7) 0.13790(11)
H37 H 0.9821 0.7881 0.4543
Cd4_2 Cd 1.0000 0.7500 0.567738(13)
N5_2 N 0.59365(19) 0.81755(8) 0.05952(12)
O6_2 O 0.55204(15) 0.82149(6) 0.09135(11)
O7_2 O 0.62531(16) 0.84114(6) 0.04365(11)
O8_2 O 0.60092(14) 0.79008(6) 0.04693(10)
N10_2 N 0.40635(19) 0.68245(8) 0.05952(12)
O14_2 O 0.44796(15) 0.67851(6) 0.09135(11)
O15_2 O 0.37469(16) 0.65886(6) 0.04365(11)
O16_2 O 0.39908(14) 0.70992(6) 0.04693(10)
N11_2 N 0.42910(17) 0.77632(7) 0.00050(12)
N12_2 N 0.57090(17) 0.72368(7) 0.00050(12)
N13_2 N 0.58271(17) 0.73377(7) 0.13790(11)
H10_2 H 0.0179 0.7119 0.4543
C1_2 C 0.7077(2) 0.56110(8) 0.48394(14)
H1_2 H 0.6633 0.5614 0.5055
C2_2 C 0.7135(2) 0.58419(9) 0.44309(14)
H2_2 H 0.6744 0.5998 0.4383
C3_2 C 0.7763(2) 0.58380(9) 0.41036(15)
C4_2 C 0.8323(2) 0.56089(9) 0.42106(16)
H3_2 H 0.8772 0.5599 0.4002
C5_2 C 0.8222(2) 0.53928(9) 0.46272(14)
H4_2 H 0.8613 0.5239 0.4691
C6_2 C 0.7262(2) 0.62659(9) 0.35441(15)
H5_2 H 0.7108 0.6393 0.3855
H6_2 H 0.6809 0.6150 0.3409
C7_2 C 0.75963(19) 0.64872(8) 0.31155(13)
C8_2 C 0.8266(2) 0.66916(9) 0.33364(14)
H7_2 H 0.8687 0.6551 0.3460
H8_2 H 0.8468 0.6838 0.3063
C9_2 C 0.8428(2) 0.69909(9) 0.41584(15)
C10_2 C 0.9224(2) 0.69914(9) 0.41355(16)
H9_2 H 0.9483 0.6908 0.3837
C11_2 C 0.9636(2) 0.71171(9) 0.45622(15)
C12_2 C 0.8525(2) 0.72296(8) 0.50193(15)
H11_2 H 0.8279 0.7307 0.5327
C13_2 C 0.8059(2) 0.71143(8) 0.46034(15)
H12_2 H 0.7517 0.7120 0.4626
C14_2 C 0.7955(2) 0.62829(9) 0.26441(14)
H13_2 H 0.8161 0.6424 0.2365
H14_2 H 0.8366 0.6138 0.2770
C15_2 C 0.7403(2) 0.58732(9) 0.20658(15)
C16_2 C 0.8071(2) 0.57962(9) 0.18490(15)
H15_2 H 0.8529 0.5895 0.1968
C17_2 C 0.8094(2) 0.55623(9) 0.14329(15)
H16_2 H 0.8570 0.5521 0.1267
C18_2 C 0.6851(2) 0.54664(9) 0.15010(15)
H17_2 H 0.6406 0.5352 0.1396
C19_2 C 0.6767(2) 0.57007(9) 0.19116(15)
H18_2 H 0.6285 0.5736 0.2073
C20_2 C 0.6938(2) 0.66981(9) 0.29214(15)
H19_2 H 0.6544 0.6563 0.2750
H20_2 H 0.6698 0.6810 0.3222
C21_2 C 0.67460(19) 0.70651(8) 0.21815(13)
C22_2 C 0.5981(2) 0.69846(10) 0.21303(16)
H21_2 H 0.5752 0.6834 0.2363
C23_2 C 0.5548(2) 0.71285(9) 0.17304(15)
H22_2 H 0.5022 0.7074 0.1707
C24_2 C 0.6561(2) 0.74356(9) 0.14550(14)
H23_2 H 0.6765 0.7598 0.1233
C25_2 C 0.7027(2) 0.73051(9) 0.18487(14)
H24_2 H 0.7537 0.7380 0.1890
C26_2 C 0.9446(2) 0.52211(9) 0.55671(15)
H25_2 H 0.9774 0.5188 0.5260
H26_2 H 0.9762 0.5232 0.5884
H27_2 H 0.9161 0.5422 0.5526
Cd2_3 Cd 0.7500 0.5000 0.560708(14)
N1_2 N 0.76133(17) 0.53901(7) 0.49365(13)
N2_2 N 0.92910(17) 0.72368(7) 0.50050(12)
N4_2 N 0.74741(17) 0.53997(7) 0.12671(12)
O1_2 O 0.78773(14) 0.60362(6) 0.36851(10)
O2_2 O 0.79445(14) 0.68742(6) 0.37729(10)
O3_2 O 0.72589(16) 0.60928(6) 0.24520(11)
O4_2 O 0.72420(15) 0.69377(6) 0.25393(10)
O5_2 O 0.88999(15) 0.49489(6) 0.56141(10)
C27_2 C 0.7923(2) 0.43890(8) 0.48394(14)
H28_2 H 0.8367 0.4386 0.5055
C28_2 C 0.7865(2) 0.41581(9) 0.44309(14)
H29_2 H 0.8256 0.4002 0.4383
C29_2 C 0.7237(2) 0.41620(9) 0.41036(15)
C30_2 C 0.6677(2) 0.43911(9) 0.42106(16)
H30_2 H 0.6228 0.4401 0.4002
C31_2 C 0.6778(2) 0.46072(9) 0.46272(14)
H31_2 H 0.6387 0.4761 0.4691
C32_2 C 0.7738(2) 0.37341(9) 0.35441(15)
H32_2 H 0.7892 0.3607 0.3855
H33_2 H 0.8191 0.3850 0.3409
C33_2 C 0.74037(19) 0.35128(8) 0.31155(13)
C34_2 C 0.6734(2) 0.33084(9) 0.33364(14)
H34_2 H 0.6313 0.3449 0.3460
H35_2 H 0.6532 0.3162 0.3063
C35_2 C 0.6572(2) 0.30091(9) 0.41584(15)
C36_2 C 0.5776(2) 0.30086(9) 0.41355(16)
H36_2 H 0.5517 0.3092 0.3837
C37_2 C 0.5364(2) 0.28829(9) 0.45622(15)
H37_2 H 0.4821 0.2881 0.4543
C38_2 C 0.6475(2) 0.27704(8) 0.50193(15)
H38_2 H 0.6721 0.2693 0.5327
C39_2 C 0.6941(2) 0.28857(8) 0.46034(15)
H39_2 H 0.7483 0.2880 0.4626
C40_2 C 0.7045(2) 0.37171(9) 0.26441(14)
H40_2 H 0.6839 0.3576 0.2365
H41_2 H 0.6634 0.3862 0.2770
C41_2 C 0.7597(2) 0.41268(9) 0.20658(15)
C42_2 C 0.6929(2) 0.42038(9) 0.18490(15)
H42_2 H 0.6471 0.4105 0.1968
C43_2 C 0.6906(2) 0.44377(9) 0.14329(15)
H43_2 H 0.6430 0.4479 0.1267
C44_2 C 0.8149(2) 0.45336(9) 0.15010(15)
H44_2 H 0.8594 0.4648 0.1396
C45_2 C 0.8233(2) 0.42993(9) 0.19116(15)
H45_2 H 0.8715 0.4264 0.2073
C46_2 C 0.8062(2) 0.33019(9) 0.29214(15)
H46_2 H 0.8456 0.3437 0.2750
H47_2 H 0.8302 0.3190 0.3222
C47_2 C 0.82540(19) 0.29349(8) 0.21815(13)
C48_2 C 0.9019(2) 0.30154(10) 0.21303(16)
H48_2 H 0.9248 0.3166 0.2363
C49_2 C 0.9452(2) 0.28715(9) 0.17304(15)
H49_2 H 0.9978 0.2926 0.1707
C50_2 C 0.8439(2) 0.25644(9) 0.14550(14)
H50_2 H 0.8235 0.2402 0.1233
C51_2 C 0.7973(2) 0.26949(9) 0.18487(14)
H51_2 H 0.7463 0.2620 0.1890
C52_2 C 0.5554(2) 0.47789(9) 0.55671(15)
H52_2 H 0.5226 0.4812 0.5260
H53_2 H 0.5238 0.4768 0.5884
H54_2 H 0.5839 0.4578 0.5526
N6_2 N 0.73867(17) 0.46099(7) 0.49365(13)
N7_2 N 0.57090(17) 0.27632(7) 0.50050(12)
N9_2 N 0.75259(17) 0.46003(7) 0.12671(12)
O9_2 O 0.71227(14) 0.39638(6) 0.36851(10)
O10_2 O 0.70555(14) 0.31258(6) 0.37729(10)
O11_2 O 0.77411(16) 0.39072(6) 0.24520(11)
O12_2 O 0.77580(15) 0.30623(6) 0.25393(10)
O13_2 O 0.61001(15) 0.50511(6) 0.56141(10)
Cd6_3 Cd 0.7500 0.5000 0.060708(14)
N14_2 N 0.74741(17) 0.46003(7) 0.62671(12)
N15_2 N 0.75259(17) 0.53997(7) 0.62671(12)
O5_3 O 0.38999(15) 0.00511(6) 0.06141(10)
H28_3 H 0.3367 0.0614 0.0055
C38_3 C 0.1475(2) 0.22296(8) 0.00193(15)
H38_3 H 0.1721 0.2307 0.0327
C52_3 C 0.0554(2) 0.02211(9) 0.05671(15)
H52_3 H 0.0226 0.0188 0.0260
H53_3 H 0.0238 0.0232 0.0884
H54_3 H 0.0839 0.0422 0.0526
C27_3 C 0.2923(2) 0.06110(8) 0.98394(14)
C28_3 C 0.2865(2) 0.08419(9) 0.94309(14)
H29_3 H 0.3256 0.0998 0.9383
C29_3 C 0.2237(2) 0.08380(9) 0.91036(15)
C30_3 C 0.1677(2) 0.06089(9) 0.92106(16)
H30_3 H 0.1228 0.0599 0.9002
C31_3 C 0.1778(2) 0.03928(9) 0.96272(14)
H31_3 H 0.1387 0.0239 0.9691
C32_3 C 0.2738(2) 0.12659(9) 0.85441(15)
H32_3 H 0.2892 0.1393 0.8855
H33_3 H 0.3191 0.1150 0.8409
C33_3 C 0.24037(19) 0.14872(8) 0.81155(13)
C34_3 C 0.1734(2) 0.16916(9) 0.83364(14)
H34_3 H 0.1313 0.1551 0.8460
H35_3 H 0.1532 0.1838 0.8063
C35_3 C 0.1572(2) 0.19909(9) 0.91584(15)
C36_3 C 0.0776(2) 0.19914(9) 0.91355(16)
H36_3 H 0.0517 0.1908 0.8837
C37_3 C 0.0364(2) 0.21171(9) 0.95622(15)
C39_3 C 0.1941(2) 0.21143(8) 0.96034(15)
H39_3 H 0.2483 0.2120 0.9626
C40_3 C 0.2045(2) 0.12829(9) 0.76441(14)
H40_3 H 0.1839 0.1424 0.7365
H41_3 H 0.1634 0.1138 0.7770
C41_3 C 0.2597(2) 0.08732(9) 0.70658(15)
C42_3 C 0.1929(2) 0.07962(9) 0.68490(15)
H42_3 H 0.1471 0.0895 0.6968
C43_3 C 0.1906(2) 0.05623(9) 0.64329(15)
H43_3 H 0.1430 0.0521 0.6267
C44_3 C 0.3149(2) 0.04664(9) 0.65010(15)
H44_3 H 0.3594 0.0352 0.6396
C45_3 C 0.3233(2) 0.07007(9) 0.69116(15)
H45_3 H 0.3715 0.0736 0.7073
C46_3 C 0.3062(2) 0.16981(9) 0.79214(15)
H46_3 H 0.3456 0.1563 0.7750
H47_3 H 0.3302 0.1810 0.8222
C47_3 C 0.32540(19) 0.20651(8) 0.71815(13)
C48_3 C 0.4019(2) 0.19846(10) 0.71303(16)
H48_3 H 0.4248 0.1834 0.7363
C49_3 C 0.4452(2) 0.21285(9) 0.67304(15)
H49_3 H 0.4978 0.2074 0.6707
C50_3 C 0.3439(2) 0.24356(9) 0.64550(14)
H50_3 H 0.3235 0.2598 0.6233
C51_3 C 0.2973(2) 0.23051(9) 0.68487(14)
H51_3 H 0.2463 0.2380 0.6890
N6_3 N 0.23867(17) 0.03901(7) 0.99365(13)
N8_2 N 0.41729(17) 0.23377(7) 0.63790(11)
O9_3 O 0.21227(14) 0.10362(6) 0.86851(10)
O10_3 O 0.20555(14) 0.18742(6) 0.87729(10)
O11_3 O 0.27411(16) 0.10928(6) 0.74520(11)
O12_3 O 0.27580(15) 0.19377(6) 0.75393(10)
H1_3 H 0.1633 0.9386 0.0055
C12_3 C 0.3525(2) 0.77704(8) 0.00193(15)
H11_3 H 0.3279 0.7693 0.0327
C26_3 C 0.4446(2) 0.97789(9) 0.05671(15)
H25_3 H 0.4774 0.9812 0.0260
H26_3 H 0.4762 0.9768 0.0884
H27_3 H 0.4161 0.9578 0.0526
O13_3 O 0.11001(15) 0.99489(6) 0.06141(10)
C1_3 C 0.2077(2) 0.93890(8) 0.98394(14)
C2_3 C 0.2135(2) 0.91581(9) 0.94309(14)
H2_3 H 0.1744 0.9002 0.9383
C3_3 C 0.2763(2) 0.91620(9) 0.91036(15)
C4_3 C 0.3323(2) 0.93911(9) 0.92106(16)
H3_3 H 0.3772 0.9401 0.9002
C5_3 C 0.3222(2) 0.96072(9) 0.96272(14)
H4_3 H 0.3613 0.9761 0.9691
C6_3 C 0.2262(2) 0.87341(9) 0.85441(15)
H5_3 H 0.2108 0.8607 0.8855
H6_3 H 0.1809 0.8850 0.8409
C7_3 C 0.25963(19) 0.85128(8) 0.81155(13)
C8_3 C 0.3266(2) 0.83084(9) 0.83364(14)
H7_3 H 0.3687 0.8449 0.8460
H8_3 H 0.3468 0.8162 0.8063
C9_3 C 0.3428(2) 0.80091(9) 0.91584(15)
C10_3 C 0.4224(2) 0.80086(9) 0.91355(16)
H9_3 H 0.4483 0.8092 0.8837
C11_3 C 0.4636(2) 0.78829(9) 0.95622(15)
H10_3 H 0.5179 0.7881 0.9543
C13_3 C 0.3059(2) 0.78857(8) 0.96034(15)
H12_3 H 0.2517 0.7880 0.9626
C14_3 C 0.2955(2) 0.87171(9) 0.76441(14)
H13_3 H 0.3161 0.8576 0.7365
H14_3 H 0.3366 0.8862 0.7770
C15_3 C 0.2403(2) 0.91268(9) 0.70658(15)
C16_3 C 0.3071(2) 0.92038(9) 0.68490(15)
H15_3 H 0.3529 0.9105 0.6968
C17_3 C 0.3094(2) 0.94377(9) 0.64329(15)
H16_3 H 0.3570 0.9479 0.6267
C18_3 C 0.1851(2) 0.95336(9) 0.65010(15)
H17_3 H 0.1406 0.9648 0.6396
C19_3 C 0.1767(2) 0.92993(9) 0.69116(15)
H18_3 H 0.1285 0.9264 0.7073
C20_3 C 0.1938(2) 0.83019(9) 0.79214(15)
H19_3 H 0.1544 0.8437 0.7750
H20_3 H 0.1698 0.8190 0.8222
C21_3 C 0.17460(19) 0.79349(8) 0.71815(13)
C22_3 C 0.0981(2) 0.80154(10) 0.71303(16)
H21_3 H 0.0752 0.8166 0.7363
C23_3 C 0.0548(2) 0.78715(9) 0.67304(15)
H22_3 H 0.0022 0.7926 0.6707
C24_3 C 0.1561(2) 0.75644(9) 0.64550(14)
H23_3 H 0.1765 0.7402 0.6233
C25_3 C 0.2027(2) 0.76949(9) 0.68487(14)
H24_3 H 0.2537 0.7620 0.6890
N1_3 N 0.26133(17) 0.96099(7) 0.99365(13)
N3_2 N 0.08271(17) 0.76623(7) 0.63790(11)
O1_3 O 0.28773(14) 0.89638(6) 0.86851(10)
O2_3 O 0.29445(14) 0.81258(6) 0.87729(10)
O3_3 O 0.22589(16) 0.89072(6) 0.74520(11)
O4_3 O 0.22420(15) 0.80623(6) 0.75393(10)
N10_3 N 0.09365(19) 0.68245(8) 0.55952(12)
O14_3 O 0.05204(15) 0.67851(6) 0.59135(11)
O15_3 O 0.12531(16) 0.65886(6) 0.54365(11)
O16_3 O 0.10092(14) 0.70992(6) 0.54693(10)
N5_3 N 0.90635(19) 0.81755(8) 0.55952(12)
O6_3 O 0.94796(15) 0.82149(6) 0.59135(11)
O7_3 O 0.87469(16) 0.84114(6) 0.54365(11)
O8_3 O 0.89908(14) 0.79008(6) 0.54693(10)
N13_3 N 0.91729(17) 0.73377(7) 0.63790(11)
N5_4 N 0.59365(19) 0.18245(8) 0.55952(12)
O6_4 O 0.55204(15) 0.17851(6) 0.59135(11)
O7_4 O 0.62531(16) 0.15886(6) 0.54365(11)
O8_4 O 0.60092(14) 0.20992(6) 0.54693(10)
N10_4 N 0.40635(19) 0.31755(8) 0.55952(12)
O14_4 O 0.44796(15) 0.32149(6) 0.59135(11)
O15_4 O 0.37469(16) 0.34114(6) 0.54365(11)
O16_4 O 0.39908(14) 0.29008(6) 0.54693(10)
N13_4 N 0.58271(17) 0.26623(7) 0.63790(11)
H10_4 H 0.0179 0.2881 0.9543
H1_4 H 0.6633 0.4386 0.0055
C12_4 C 0.8525(2) 0.27704(8) 0.00193(15)
H11_4 H 0.8279 0.2693 0.0327
C26_4 C 0.9446(2) 0.47789(9) 0.05671(15)
H25_4 H 0.9774 0.4812 0.0260
H26_4 H 0.9762 0.4768 0.0884
H27_4 H 0.9161 0.4578 0.0526
O5_4 O 0.88999(15) 0.50511(6) 0.06141(10)
H28_4 H 0.8367 0.5614 0.0055
C38_4 C 0.6475(2) 0.72296(8) 0.00193(15)
H38_4 H 0.6721 0.7307 0.0327
C52_4 C 0.5554(2) 0.52211(9) 0.05671(15)
H52_4 H 0.5226 0.5188 0.0260
H53_4 H 0.5238 0.5232 0.0884
H54_4 H 0.5839 0.5422 0.0526
O13_4 O 0.61001(15) 0.49489(6) 0.06141(10)
C1_4 C 0.7077(2) 0.43890(8) 0.98394(14)
C2_4 C 0.7135(2) 0.41581(9) 0.94309(14)
H2_4 H 0.6744 0.4002 0.9383
C3_4 C 0.7763(2) 0.41620(9) 0.91036(15)
C4_4 C 0.8323(2) 0.43911(9) 0.92106(16)
H3_4 H 0.8772 0.4401 0.9002
C5_4 C 0.8222(2) 0.46072(9) 0.96272(14)
H4_4 H 0.8613 0.4761 0.9691
C6_4 C 0.7262(2) 0.37341(9) 0.85441(15)
H5_4 H 0.7108 0.3607 0.8855
H6_4 H 0.6809 0.3850 0.8409
C7_4 C 0.75963(19) 0.35128(8) 0.81155(13)
C8_4 C 0.8266(2) 0.33084(9) 0.83364(14)
H7_4 H 0.8687 0.3449 0.8460
H8_4 H 0.8468 0.3162 0.8063
C9_4 C 0.8428(2) 0.30091(9) 0.91584(15)
C10_4 C 0.9224(2) 0.30086(9) 0.91355(16)
H9_4 H 0.9483 0.3092 0.8837
C11_4 C 0.9636(2) 0.28829(9) 0.95622(15)
C13_4 C 0.8059(2) 0.28857(8) 0.96034(15)
H12_4 H 0.7517 0.2880 0.9626
C14_4 C 0.7955(2) 0.37171(9) 0.76441(14)
H13_4 H 0.8161 0.3576 0.7365
H14_4 H 0.8366 0.3862 0.7770
C15_4 C 0.7403(2) 0.41268(9) 0.70658(15)
C16_4 C 0.8071(2) 0.42038(9) 0.68490(15)
H15_4 H 0.8529 0.4105 0.6968
C17_4 C 0.8094(2) 0.44377(9) 0.64329(15)
H16_4 H 0.8570 0.4479 0.6267
C18_4 C 0.6851(2) 0.45336(9) 0.65010(15)
H17_4 H 0.6406 0.4648 0.6396
C19_4 C 0.6767(2) 0.42993(9) 0.69116(15)
H18_4 H 0.6285 0.4264 0.7073
C20_4 C 0.6938(2) 0.33019(9) 0.79214(15)
H19_4 H 0.6544 0.3437 0.7750
H20_4 H 0.6698 0.3190 0.8222
C21_4 C 0.67460(19) 0.29349(8) 0.71815(13)
C22_4 C 0.5981(2) 0.30154(10) 0.71303(16)
H21_4 H 0.5752 0.3166 0.7363
C23_4 C 0.5548(2) 0.28715(9) 0.67304(15)
H22_4 H 0.5022 0.2926 0.6707
C24_4 C 0.6561(2) 0.25644(9) 0.64550(14)
H23_4 H 0.6765 0.2402 0.6233
C25_4 C 0.7027(2) 0.26949(9) 0.68487(14)
H24_4 H 0.7537 0.2620 0.6890
N1_4 N 0.76133(17) 0.46099(7) 0.99365(13)
O1_4 O 0.78773(14) 0.39638(6) 0.86851(10)
O2_4 O 0.79445(14) 0.31258(6) 0.87729(10)
O3_4 O 0.72589(16) 0.39072(6) 0.74520(11)
O4_4 O 0.72420(15) 0.30623(6) 0.75393(10)
C27_4 C 0.7923(2) 0.56110(8) 0.98394(14)
C28_4 C 0.7865(2) 0.58419(9) 0.94309(14)
H29_4 H 0.8256 0.5998 0.9383
C29_4 C 0.7237(2) 0.58380(9) 0.91036(15)
C30_4 C 0.6677(2) 0.56089(9) 0.92106(16)
H30_4 H 0.6228 0.5599 0.9002
C31_4 C 0.6778(2) 0.53928(9) 0.96272(14)
H31_4 H 0.6387 0.5239 0.9691
C32_4 C 0.7738(2) 0.62659(9) 0.85441(15)
H32_4 H 0.7892 0.6393 0.8855
H33_4 H 0.8191 0.6150 0.8409
C33_4 C 0.74037(19) 0.64872(8) 0.81155(13)
C34_4 C 0.6734(2) 0.66916(9) 0.83364(14)
H34_4 H 0.6313 0.6551 0.8460
H35_4 H 0.6532 0.6838 0.8063
C35_4 C 0.6572(2) 0.69909(9) 0.91584(15)
C36_4 C 0.5776(2) 0.69914(9) 0.91355(16)
H36_4 H 0.5517 0.6908 0.8837
C37_4 C 0.5364(2) 0.71171(9) 0.95622(15)
H37_3 H 0.4821 0.7119 0.9543
C39_4 C 0.6941(2) 0.71143(8) 0.96034(15)
H39_4 H 0.7483 0.7120 0.9626
C40_4 C 0.7045(2) 0.62829(9) 0.76441(14)
H40_4 H 0.6839 0.6424 0.7365
H41_4 H 0.6634 0.6138 0.7770
C41_4 C 0.7597(2) 0.58732(9) 0.70658(15)
C42_4 C 0.6929(2) 0.57962(9) 0.68490(15)
H42_4 H 0.6471 0.5895 0.6968
C43_4 C 0.6906(2) 0.55623(9) 0.64329(15)
H43_4 H 0.6430 0.5521 0.6267
C44_4 C 0.8149(2) 0.54664(9) 0.65010(15)
H44_4 H 0.8594 0.5352 0.6396
C45_4 C 0.8233(2) 0.57007(9) 0.69116(15)
H45_4 H 0.8715 0.5736 0.7073
C46_4 C 0.8062(2) 0.66981(9) 0.79214(15)
H46_4 H 0.8456 0.6563 0.7750
H47_4 H 0.8302 0.6810 0.8222
C47_4 C 0.82540(19) 0.70651(8) 0.71815(13)
C48_4 C 0.9019(2) 0.69846(10) 0.71303(16)
H48_4 H 0.9248 0.6834 0.7363
C49_4 C 0.9452(2) 0.71285(9) 0.67304(15)
H49_4 H 0.9978 0.7074 0.6707
C50_4 C 0.8439(2) 0.74356(9) 0.64550(14)
H50_4 H 0.8235 0.7598 0.6233
C51_4 C 0.7973(2) 0.73051(9) 0.68487(14)
H51_4 H 0.7463 0.7380 0.6890
N6_4 N 0.73867(17) 0.53901(7) 0.99365(13)
O9_4 O 0.71227(14) 0.60362(6) 0.86851(10)
O10_4 O 0.70555(14) 0.68742(6) 0.87729(10)
O11_4 O 0.77411(16) 0.60928(6) 0.74520(11)
O12_4 O 0.77580(15) 0.69377(6) 0.75393(10)
Cd1_3 Cd -0.0000 0.2500 0.432262(13)
N5_5 N 0.09365(19) 0.18245(8) 0.44048(12)
O6_5 O 0.05204(15) 0.17851(6) 0.40865(11)
O7_5 O 0.12531(16) 0.15886(6) 0.45635(11)
O8_5 O 0.10092(14) 0.20992(6) 0.45307(10)
N12_3 N 0.07090(17) 0.27632(7) 0.49950(12)
N13_5 N 0.08271(17) 0.26623(7) 0.36210(11)
Cd4_3 Cd 0.0000 0.7500 0.932262(13)
C1_5 C 0.7923(2) 0.06110(8) 0.01606(14)
C2_5 C 0.7865(2) 0.08419(9) 0.05691(14)
H2_5 H 0.8256 0.0998 0.0617
C3_5 C 0.7237(2) 0.08380(9) 0.08964(15)
C4_5 C 0.6677(2) 0.06089(9) 0.07894(16)
H3_5 H 0.6228 0.0599 0.0998
C5_5 C 0.6778(2) 0.03928(9) 0.03728(14)
H4_5 H 0.6387 0.0239 0.0309
C6_5 C 0.7738(2) 0.12659(9) 0.14559(15)
H5_5 H 0.7892 0.1393 0.1145
H6_5 H 0.8191 0.1150 0.1591
C7_5 C 0.74037(19) 0.14872(8) 0.18845(13)
C8_5 C 0.6734(2) 0.16916(9) 0.16636(14)
H7_5 H 0.6313 0.1551 0.1540
H8_5 H 0.6532 0.1838 0.1937
C9_5 C 0.6572(2) 0.19909(9) 0.08416(15)
C10_5 C 0.5776(2) 0.19914(9) 0.08645(16)
H9_5 H 0.5517 0.1908 0.1163
C11_5 C 0.5364(2) 0.21171(9) 0.04378(15)
H10_5 H 0.4821 0.2119 0.0457
C13_5 C 0.6941(2) 0.21143(8) 0.03966(15)
H12_5 H 0.7483 0.2120 0.0374
C14_5 C 0.7045(2) 0.12829(9) 0.23559(14)
H13_5 H 0.6839 0.1424 0.2635
H14_5 H 0.6634 0.1138 0.2230
C15_5 C 0.7597(2) 0.08732(9) 0.29342(15)
C16_5 C 0.6929(2) 0.07962(9) 0.31510(15)
H15_5 H 0.6471 0.0895 0.3032
C17_5 C 0.6906(2) 0.05623(9) 0.35671(15)
H16_5 H 0.6430 0.0521 0.3733
C18_5 C 0.8149(2) 0.04664(9) 0.34990(15)
H17_5 H 0.8594 0.0352 0.3604
C19_5 C 0.8233(2) 0.07007(9) 0.30884(15)
H18_5 H 0.8715 0.0736 0.2927
C20_5 C 0.8062(2) 0.16981(9) 0.20786(15)
H19_5 H 0.8456 0.1563 0.2250
H20_5 H 0.8302 0.1810 0.1778
C21_5 C 0.82540(19) 0.20651(8) 0.28185(13)
C22_5 C 0.9019(2) 0.19846(10) 0.28697(16)
H21_5 H 0.9248 0.1834 0.2637
C23_5 C 0.9452(2) 0.21285(9) 0.32696(15)
H22_5 H 0.9978 0.2074 0.3293
C24_5 C 0.8439(2) 0.24356(9) 0.35450(14)
H23_5 H 0.8235 0.2598 0.3767
C25_5 C 0.7973(2) 0.23051(9) 0.31513(14)
H24_5 H 0.7463 0.2380 0.3110
Cd1_4 Cd 1.0000 0.2500 0.432262(13)
N1_5 N 0.73867(17) 0.03901(7) 0.00635(13)
N3_3 N 0.91729(17) 0.23377(7) 0.36210(11)
N4_3 N 0.75259(17) 0.03997(7) 0.37329(12)
O1_5 O 0.71227(14) 0.10362(6) 0.13149(10)
O2_5 O 0.70555(14) 0.18742(6) 0.12271(10)
O3_5 O 0.77411(16) 0.10928(6) 0.25480(11)
O4_5 O 0.77580(15) 0.19377(6) 0.24607(10)
N10_5 N 0.90635(19) 0.31755(8) 0.44048(12)
O14_5 O 0.94796(15) 0.32149(6) 0.40865(11)
O15_5 O 0.87469(16) 0.34114(6) 0.45635(11)
O16_5 O 0.89908(14) 0.29008(6) 0.45307(10)
Cd6_4 Cd 0.7500 0.0000 0.439292(14)
N11_3 N 0.92910(17) 0.22368(7) 0.49950(12)
H1_5 H 0.8367 0.0614 0.9945
C12_5 C 0.6475(2) 0.22296(8) 0.99807(15)
H11_5 H 0.6721 0.2307 0.9673
C26_5 C 0.5554(2) 0.02211(9) 0.94329(15)
H25_5 H 0.5226 0.0188 0.9740
H26_5 H 0.5238 0.0232 0.9116
H27_5 H 0.5839 0.0422 0.9474
Cd2_4 Cd 0.7500 -0.0000 0.939292(14)
N2_3 N 0.57090(17) 0.22368(7) 0.99950(12)
O13_5 O 0.88999(15) 0.00511(6) 0.93859(10)
Cd5_2 Cd 0.5000 0.2500 0.932262(13)
N15_3 N 0.74741(17) 0.03997(7) 0.87329(12)
C27_5 C 0.7077(2) 0.93890(8) 0.01606(14)
C28_5 C 0.7135(2) 0.91581(9) 0.05691(14)
H29_5 H 0.6744 0.9002 0.0617
C29_5 C 0.7763(2) 0.91620(9) 0.08964(15)
C30_5 C 0.8323(2) 0.93911(9) 0.07894(16)
H30_5 H 0.8772 0.9401 0.0998
C31_5 C 0.8222(2) 0.96072(9) 0.03728(14)
H31_5 H 0.8613 0.9761 0.0309
C32_5 C 0.7262(2) 0.87341(9) 0.14559(15)
H32_5 H 0.7108 0.8607 0.1145
H33_5 H 0.6809 0.8850 0.1591
C33_5 C 0.75963(19) 0.85128(8) 0.18845(13)
C34_5 C 0.8266(2) 0.83084(9) 0.16636(14)
H34_5 H 0.8687 0.8449 0.1540
H35_5 H 0.8468 0.8162 0.1937
C35_5 C 0.8428(2) 0.80091(9) 0.08416(15)
C36_5 C 0.9224(2) 0.80086(9) 0.08645(16)
H36_5 H 0.9483 0.8092 0.1163
C37_5 C 0.9636(2) 0.78829(9) 0.04378(15)
C39_5 C 0.8059(2) 0.78857(8) 0.03966(15)
H39_5 H 0.7517 0.7880 0.0374
C40_5 C 0.7955(2) 0.87171(9) 0.23559(14)
H40_5 H 0.8161 0.8576 0.2635
H41_5 H 0.8366 0.8862 0.2230
C41_5 C 0.7403(2) 0.91268(9) 0.29342(15)
C42_5 C 0.8071(2) 0.92038(9) 0.31510(15)
H42_5 H 0.8529 0.9105 0.3032
C43_5 C 0.8094(2) 0.94377(9) 0.35671(15)
H43_5 H 0.8570 0.9479 0.3733
C44_5 C 0.6851(2) 0.95336(9) 0.34990(15)
H44_5 H 0.6406 0.9648 0.3604
C45_5 C 0.6767(2) 0.92993(9) 0.30884(15)
H45_5 H 0.6285 0.9264 0.2927
C46_5 C 0.6938(2) 0.83019(9) 0.20786(15)
H46_5 H 0.6544 0.8437 0.2250
H47_5 H 0.6698 0.8190 0.1778
C47_5 C 0.67460(19) 0.79349(8) 0.28185(13)
C48_5 C 0.5981(2) 0.80154(10) 0.28697(16)
H48_5 H 0.5752 0.8166 0.2637
C49_5 C 0.5548(2) 0.78715(9) 0.32696(15)
H49_5 H 0.5022 0.7926 0.3293
C50_5 C 0.6561(2) 0.75644(9) 0.35450(14)
H50_5 H 0.6765 0.7402 0.3767
C51_5 C 0.7027(2) 0.76949(9) 0.31513(14)
H51_5 H 0.7537 0.7620 0.3110
N6_5 N 0.76133(17) 0.96099(7) 0.00635(13)
N8_3 N 0.58271(17) 0.76623(7) 0.36210(11)
N9_3 N 0.74741(17) 0.96003(7) 0.37329(12)
O9_5 O 0.78773(14) 0.89638(6) 0.13149(10)
O10_5 O 0.79445(14) 0.81258(6) 0.12271(10)
O11_5 O 0.72589(16) 0.89072(6) 0.25480(11)
O12_5 O 0.72420(15) 0.80623(6) 0.24607(10)
Cd3_2 Cd 0.5000 0.7500 0.432262(13)
Cd6_5 Cd 0.7500 1.0000 0.439292(14)
Cd2_5 Cd 0.7500 1.0000 0.939292(14)
O5_5 O 0.61001(15) 0.99489(6) 0.93859(10)
H28_5 H 0.6633 0.9386 0.9945
C38_5 C 0.8525(2) 0.77704(8) 0.99807(15)
H38_5 H 0.8279 0.7693 0.9673
C52_5 C 0.9446(2) 0.97789(9) 0.94329(15)
H52_5 H 0.9774 0.9812 0.9740
H53_5 H 0.9762 0.9768 0.9116
H54_5 H 0.9161 0.9578 0.9474
N7_3 N 0.92910(17) 0.77632(7) 0.99950(12)
Cd4_4 Cd 1.0000 0.7500 0.932262(13)
N14_3 N 0.75259(17) 0.96003(7) 0.87329(12)
N5_6 N 0.40635(19) 0.81755(8) 0.44048(12)
O6_6 O 0.44796(15) 0.82149(6) 0.40865(11)
O7_6 O 0.37469(16) 0.84114(6) 0.45635(11)
O8_6 O 0.39908(14) 0.79008(6) 0.45307(10)
N10_6 N 0.59365(19) 0.68245(8) 0.44048(12)
O14_6 O 0.55204(15) 0.67851(6) 0.40865(11)
O15_6 O 0.62531(16) 0.65886(6) 0.45635(11)
O16_6 O 0.60092(14) 0.70992(6) 0.45307(10)
N11_4 N 0.57090(17) 0.77632(7) 0.49950(12)
N12_4 N 0.42910(17) 0.72368(7) 0.49950(12)
N13_6 N 0.41729(17) 0.73377(7) 0.36210(11)
C1_6 C 0.2923(2) 0.56110(8) 0.01606(14)
C2_6 C 0.2865(2) 0.58419(9) 0.05691(14)
H2_6 H 0.3256 0.5998 0.0617
C3_6 C 0.2237(2) 0.58380(9) 0.08964(15)
C4_6 C 0.1677(2) 0.56089(9) 0.07894(16)
H3_6 H 0.1228 0.5599 0.0998
C5_6 C 0.1778(2) 0.53928(9) 0.03728(14)
H4_6 H 0.1387 0.5239 0.0309
C6_6 C 0.2738(2) 0.62659(9) 0.14559(15)
H5_6 H 0.2892 0.6393 0.1145
H6_6 H 0.3191 0.6150 0.1591
C7_6 C 0.24037(19) 0.64872(8) 0.18845(13)
C8_6 C 0.1734(2) 0.66916(9) 0.16636(14)
H7_6 H 0.1313 0.6551 0.1540
H8_6 H 0.1532 0.6838 0.1937
C9_6 C 0.1572(2) 0.69909(9) 0.08416(15)
C10_6 C 0.0776(2) 0.69914(9) 0.08645(16)
H9_6 H 0.0517 0.6908 0.1163
C11_6 C 0.0364(2) 0.71171(9) 0.04378(15)
C13_6 C 0.1941(2) 0.71143(8) 0.03966(15)
H12_6 H 0.2483 0.7120 0.0374
C14_6 C 0.2045(2) 0.62829(9) 0.23559(14)
H13_6 H 0.1839 0.6424 0.2635
H14_6 H 0.1634 0.6138 0.2230
C15_6 C 0.2597(2) 0.58732(9) 0.29342(15)
C16_6 C 0.1929(2) 0.57962(9) 0.31510(15)
H15_6 H 0.1471 0.5895 0.3032
C17_6 C 0.1906(2) 0.55623(9) 0.35671(15)
H16_6 H 0.1430 0.5521 0.3733
C18_6 C 0.3149(2) 0.54664(9) 0.34990(15)
H17_6 H 0.3594 0.5352 0.3604
C19_6 C 0.3233(2) 0.57007(9) 0.30884(15)
H18_6 H 0.3715 0.5736 0.2927
C20_6 C 0.3062(2) 0.66981(9) 0.20786(15)
H19_6 H 0.3456 0.6563 0.2250
H20_6 H 0.3302 0.6810 0.1778
C21_6 C 0.32540(19) 0.70651(8) 0.28185(13)
C22_6 C 0.4019(2) 0.69846(10) 0.28697(16)
H21_6 H 0.4248 0.6834 0.2637
C23_6 C 0.4452(2) 0.71285(9) 0.32696(15)
H22_6 H 0.4978 0.7074 0.3293
C24_6 C 0.3439(2) 0.74356(9) 0.35450(14)
H23_6 H 0.3235 0.7598 0.3767
C25_6 C 0.2973(2) 0.73051(9) 0.31513(14)
H24_6 H 0.2463 0.7380 0.3110
N1_6 N 0.23867(17) 0.53901(7) 0.00635(13)
N4_4 N 0.25259(17) 0.53997(7) 0.37329(12)
O1_6 O 0.21227(14) 0.60362(6) 0.13149(10)
O2_6 O 0.20555(14) 0.68742(6) 0.12271(10)
O3_6 O 0.27411(16) 0.60928(6) 0.25480(11)
O4_6 O 0.27580(15) 0.69377(6) 0.24607(10)
C27_6 C 0.2077(2) 0.43890(8) 0.01606(14)
C28_6 C 0.2135(2) 0.41581(9) 0.05691(14)
H29_6 H 0.1744 0.4002 0.0617
C29_6 C 0.2763(2) 0.41620(9) 0.08964(15)
C30_6 C 0.3323(2) 0.43911(9) 0.07894(16)
H30_6 H 0.3772 0.4401 0.0998
C31_6 C 0.3222(2) 0.46072(9) 0.03728(14)
H31_6 H 0.3613 0.4761 0.0309
C32_6 C 0.2262(2) 0.37341(9) 0.14559(15)
H32_6 H 0.2108 0.3607 0.1145
H33_6 H 0.1809 0.3850 0.1591
C33_6 C 0.25963(19) 0.35128(8) 0.18845(13)
C34_6 C 0.3266(2) 0.33084(9) 0.16636(14)
H34_6 H 0.3687 0.3449 0.1540
H35_6 H 0.3468 0.3162 0.1937
C35_6 C 0.3428(2) 0.30091(9) 0.08416(15)
C36_6 C 0.4224(2) 0.30086(9) 0.08645(16)
H36_6 H 0.4483 0.3092 0.1163
C37_6 C 0.4636(2) 0.28829(9) 0.04378(15)
H37_4 H 0.5179 0.2881 0.0457
C39_6 C 0.3059(2) 0.28857(8) 0.03966(15)
H39_6 H 0.2517 0.2880 0.0374
C40_6 C 0.2955(2) 0.37171(9) 0.23559(14)
H40_6 H 0.3161 0.3576 0.2635
H41_6 H 0.3366 0.3862 0.2230
C41_6 C 0.2403(2) 0.41268(9) 0.29342(15)
C42_6 C 0.3071(2) 0.42038(9) 0.31510(15)
H42_6 H 0.3529 0.4105 0.3032
C43_6 C 0.3094(2) 0.44377(9) 0.35671(15)
H43_6 H 0.3570 0.4479 0.3733
C44_6 C 0.1851(2) 0.45336(9) 0.34990(15)
H44_6 H 0.1406 0.4648 0.3604
C45_6 C 0.1767(2) 0.42993(9) 0.30884(15)
H45_6 H 0.1285 0.4264 0.2927
C46_6 C 0.1938(2) 0.33019(9) 0.20786(15)
H46_6 H 0.1544 0.3437 0.2250
H47_6 H 0.1698 0.3190 0.1778
C47_6 C 0.17460(19) 0.29349(8) 0.28185(13)
C48_6 C 0.0981(2) 0.30154(10) 0.28697(16)
H48_6 H 0.0752 0.3166 0.2637
C49_6 C 0.0548(2) 0.28715(9) 0.32696(15)
H49_6 H 0.0022 0.2926 0.3293
C50_6 C 0.1561(2) 0.25644(9) 0.35450(14)
H50_6 H 0.1765 0.2402 0.3767
C51_6 C 0.2027(2) 0.26949(9) 0.31513(14)
H51_6 H 0.2537 0.2620 0.3110
N6_6 N 0.26133(17) 0.46099(7) 0.00635(13)
N9_4 N 0.24741(17) 0.46003(7) 0.37329(12)
O9_6 O 0.28773(14) 0.39638(6) 0.13149(10)
O10_6 O 0.29445(14) 0.31258(6) 0.12271(10)
O11_6 O 0.22589(16) 0.39072(6) 0.25480(11)
O12_6 O 0.22420(15) 0.30623(6) 0.24607(10)
Cd6_6 Cd 0.2500 0.5000 0.439292(14)
H1_6 H 0.3367 0.5614 0.9945
C12_6 C 0.1475(2) 0.72296(8) 0.99807(15)
H11_6 H 0.1721 0.7307 0.9673
C26_6 C 0.0554(2) 0.52211(9) 0.94329(15)
H25_6 H 0.0226 0.5188 0.9740
H26_6 H 0.0238 0.5232 0.9116
H27_6 H 0.0839 0.5422 0.9474
Cd2_6 Cd 0.2500 0.5000 0.939292(14)
N2_4 N 0.07090(17) 0.72368(7) 0.99950(12)
O5_6 O 0.11001(15) 0.49489(6) 0.93859(10)
H28_6 H 0.1633 0.4386 0.9945
C38_6 C 0.3525(2) 0.27704(8) 0.99807(15)
H38_6 H 0.3279 0.2693 0.9673
C52_6 C 0.4446(2) 0.47789(9) 0.94329(15)
H52_6 H 0.4774 0.4812 0.9740
H53_6 H 0.4762 0.4768 0.9116
H54_6 H 0.4161 0.4578 0.9474
N7_4 N 0.42910(17) 0.27632(7) 0.99950(12)
O13_6 O 0.38999(15) 0.50511(6) 0.93859(10)
N14_4 N 0.25259(17) 0.46003(7) 0.87329(12)
N15_4 N 0.24741(17) 0.53997(7) 0.87329(12)
H10_6 H 0.9821 0.7119 0.0457
H37_5 H 0.0179 0.2119 0.5457
N5_7 N 0.09365(19) 0.81755(8) 0.94048(12)
O6_7 O 0.05204(15) 0.82149(6) 0.90865(11)
O7_7 O 0.12531(16) 0.84114(6) 0.95635(11)
O8_7 O 0.10092(14) 0.79008(6) 0.95307(10)
N13_7 N 0.08271(17) 0.73377(7) 0.86210(11)
O5_7 O 0.61001(15) 0.00511(6) 0.43859(10)
C27_7 C 0.7077(2) 0.06110(8) 0.51606(14)
H28_7 H 0.6633 0.0614 0.4945
C28_7 C 0.7135(2) 0.08419(9) 0.55691(14)
H29_7 H 0.6744 0.0998 0.5617
C29_7 C 0.7763(2) 0.08380(9) 0.58964(15)
C30_7 C 0.8323(2) 0.06089(9) 0.57894(16)
H30_7 H 0.8772 0.0599 0.5998
C31_7 C 0.8222(2) 0.03928(9) 0.53728(14)
H31_7 H 0.8613 0.0239 0.5309
C32_7 C 0.7262(2) 0.12659(9) 0.64559(15)
H32_7 H 0.7108 0.1393 0.6145
H33_7 H 0.6809 0.1150 0.6591
C33_7 C 0.75963(19) 0.14872(8) 0.68845(13)
C34_7 C 0.8266(2) 0.16916(9) 0.66636(14)
H34_7 H 0.8687 0.1551 0.6540
H35_7 H 0.8468 0.1838 0.6937
C35_7 C 0.8428(2) 0.19909(9) 0.58416(15)
C36_7 C 0.9224(2) 0.19914(9) 0.58645(16)
H36_7 H 0.9483 0.1908 0.6163
C37_7 C 0.9636(2) 0.21171(9) 0.54378(15)
C38_7 C 0.8525(2) 0.22296(8) 0.49807(15)
H38_7 H 0.8279 0.2307 0.4673
C39_7 C 0.8059(2) 0.21143(8) 0.53966(15)
H39_7 H 0.7517 0.2120 0.5374
C40_7 C 0.7955(2) 0.12829(9) 0.73559(14)
H40_7 H 0.8161 0.1424 0.7635
H41_7 H 0.8366 0.1138 0.7230
C41_7 C 0.7403(2) 0.08732(9) 0.79342(15)
C42_7 C 0.8071(2) 0.07962(9) 0.81510(15)
H42_7 H 0.8529 0.0895 0.8032
C43_7 C 0.8094(2) 0.05623(9) 0.85671(15)
H43_7 H 0.8570 0.0521 0.8733
C44_7 C 0.6851(2) 0.04664(9) 0.84990(15)
H44_7 H 0.6406 0.0352 0.8604
C45_7 C 0.6767(2) 0.07007(9) 0.80884(15)
H45_7 H 0.6285 0.0736 0.7927
C46_7 C 0.6938(2) 0.16981(9) 0.70786(15)
H46_7 H 0.6544 0.1563 0.7250
H47_7 H 0.6698 0.1810 0.6778
C47_7 C 0.67460(19) 0.20651(8) 0.78185(13)
C48_7 C 0.5981(2) 0.19846(10) 0.78697(16)
H48_7 H 0.5752 0.1834 0.7637
C49_7 C 0.5548(2) 0.21285(9) 0.82696(15)
H49_7 H 0.5022 0.2074 0.8293
C50_7 C 0.6561(2) 0.24356(9) 0.85450(14)
H50_7 H 0.6765 0.2598 0.8767
C51_7 C 0.7027(2) 0.23051(9) 0.81513(14)
H51_7 H 0.7537 0.2380 0.8110
C52_7 C 0.9446(2) 0.02211(9) 0.44329(15)
H52_7 H 0.9774 0.0188 0.4740
H53_7 H 0.9762 0.0232 0.4116
H54_7 H 0.9161 0.0422 0.4474
N6_7 N 0.76133(17) 0.03901(7) 0.50635(13)
N8_4 N 0.58271(17) 0.23377(7) 0.86210(11)
O9_7 O 0.78773(14) 0.10362(6) 0.63149(10)
O10_7 O 0.79445(14) 0.18742(6) 0.62271(10)
O11_7 O 0.72589(16) 0.10928(6) 0.75480(11)
O12_7 O 0.72420(15) 0.19377(6) 0.74607(10)
C1_7 C 0.7923(2) 0.93890(8) 0.51606(14)
H1_7 H 0.8367 0.9386 0.4945
C2_7 C 0.7865(2) 0.91581(9) 0.55691(14)
H2_7 H 0.8256 0.9002 0.5617
C3_7 C 0.7237(2) 0.91620(9) 0.58964(15)
C4_7 C 0.6677(2) 0.93911(9) 0.57894(16)
H3_7 H 0.6228 0.9401 0.5998
C5_7 C 0.6778(2) 0.96072(9) 0.53728(14)
H4_7 H 0.6387 0.9761 0.5309
C6_7 C 0.7738(2) 0.87341(9) 0.64559(15)
H5_7 H 0.7892 0.8607 0.6145
H6_7 H 0.8191 0.8850 0.6591
C7_7 C 0.74037(19) 0.85128(8) 0.68845(13)
C8_7 C 0.6734(2) 0.83084(9) 0.66636(14)
H7_7 H 0.6313 0.8449 0.6540
H8_7 H 0.6532 0.8162 0.6937
C9_7 C 0.6572(2) 0.80091(9) 0.58416(15)
C10_7 C 0.5776(2) 0.80086(9) 0.58645(16)
H9_7 H 0.5517 0.8092 0.6163
C11_7 C 0.5364(2) 0.78829(9) 0.54378(15)
H10_7 H 0.4821 0.7881 0.5457
C12_7 C 0.6475(2) 0.77704(8) 0.49807(15)
H11_7 H 0.6721 0.7693 0.4673
C13_7 C 0.6941(2) 0.78857(8) 0.53966(15)
H12_7 H 0.7483 0.7880 0.5374
C14_7 C 0.7045(2) 0.87171(9) 0.73559(14)
H13_7 H 0.6839 0.8576 0.7635
H14_7 H 0.6634 0.8862 0.7230
C15_7 C 0.7597(2) 0.91268(9) 0.79342(15)
C16_7 C 0.6929(2) 0.92038(9) 0.81510(15)
H15_7 H 0.6471 0.9105 0.8032
C17_7 C 0.6906(2) 0.94377(9) 0.85671(15)
H16_7 H 0.6430 0.9479 0.8733
C18_7 C 0.8149(2) 0.95336(9) 0.84990(15)
H17_7 H 0.8594 0.9648 0.8604
C19_7 C 0.8233(2) 0.92993(9) 0.80884(15)
H18_7 H 0.8715 0.9264 0.7927
C20_7 C 0.8062(2) 0.83019(9) 0.70786(15)
H19_7 H 0.8456 0.8437 0.7250
H20_7 H 0.8302 0.8190 0.6778
C21_7 C 0.82540(19) 0.79349(8) 0.78185(13)
C22_7 C 0.9019(2) 0.80154(10) 0.78697(16)
H21_7 H 0.9248 0.8166 0.7637
C23_7 C 0.9452(2) 0.78715(9) 0.82696(15)
H22_7 H 0.9978 0.7926 0.8293
C24_7 C 0.8439(2) 0.75644(9) 0.85450(14)
H23_7 H 0.8235 0.7402 0.8767
C25_7 C 0.7973(2) 0.76949(9) 0.81513(14)
H24_7 H 0.7463 0.7620 0.8110
C26_7 C 0.5554(2) 0.97789(9) 0.44329(15)
H25_7 H 0.5226 0.9812 0.4740
H26_7 H 0.5238 0.9768 0.4116
H27_7 H 0.5839 0.9578 0.4474
N1_7 N 0.73867(17) 0.96099(7) 0.50635(13)
N3_4 N 0.91729(17) 0.76623(7) 0.86210(11)
O1_7 O 0.71227(14) 0.89638(6) 0.63149(10)
O2_7 O 0.70555(14) 0.81258(6) 0.62271(10)
O3_7 O 0.77411(16) 0.89072(6) 0.75480(11)
O4_7 O 0.77580(15) 0.80623(6) 0.74607(10)
O13_7 O 0.88999(15) 0.99489(6) 0.43859(10)
N10_7 N 0.90635(19) 0.68245(8) 0.94048(12)
O14_7 O 0.94796(15) 0.67851(6) 0.90865(11)
O15_7 O 0.87469(16) 0.65886(6) 0.95635(11)
O16_7 O 0.89908(14) 0.70992(6) 0.95307(10)
N5_8 N 0.40635(19) 0.18245(8) 0.94048(12)
O6_8 O 0.44796(15) 0.17851(6) 0.90865(11)
O7_8 O 0.37469(16) 0.15886(6) 0.95635(11)
O8_8 O 0.39908(14) 0.20992(6) 0.95307(10)
N10_8 N 0.59365(19) 0.31755(8) 0.94048(12)
O14_8 O 0.55204(15) 0.32149(6) 0.90865(11)
O15_8 O 0.62531(16) 0.34114(6) 0.95635(11)
O16_8 O 0.60092(14) 0.29008(6) 0.95307(10)
N13_8 N 0.41729(17) 0.26623(7) 0.86210(11)
C1_8 C 0.2923(2) 0.43890(8) 0.51606(14)
H1_8 H 0.3367 0.4386 0.4945
C2_8 C 0.2865(2) 0.41581(9) 0.55691(14)
H2_8 H 0.3256 0.4002 0.5617
C3_8 C 0.2237(2) 0.41620(9) 0.58964(15)
C4_8 C 0.1677(2) 0.43911(9) 0.57894(16)
H3_8 H 0.1228 0.4401 0.5998
C5_8 C 0.1778(2) 0.46072(9) 0.53728(14)
H4_8 H 0.1387 0.4761 0.5309
C6_8 C 0.2738(2) 0.37341(9) 0.64559(15)
H5_8 H 0.2892 0.3607 0.6145
H6_8 H 0.3191 0.3850 0.6591
C7_8 C 0.24037(19) 0.35128(8) 0.68845(13)
C8_8 C 0.1734(2) 0.33084(9) 0.66636(14)
H7_8 H 0.1313 0.3449 0.6540
H8_8 H 0.1532 0.3162 0.6937
C9_8 C 0.1572(2) 0.30091(9) 0.58416(15)
C10_8 C 0.0776(2) 0.30086(9) 0.58645(16)
H9_8 H 0.0517 0.3092 0.6163
C11_8 C 0.0364(2) 0.28829(9) 0.54378(15)
C12_8 C 0.1475(2) 0.27704(8) 0.49807(15)
H11_8 H 0.1721 0.2693 0.4673
C13_8 C 0.1941(2) 0.28857(8) 0.53966(15)
H12_8 H 0.2483 0.2880 0.5374
C14_8 C 0.2045(2) 0.37171(9) 0.73559(14)
H13_8 H 0.1839 0.3576 0.7635
H14_8 H 0.1634 0.3862 0.7230
C15_8 C 0.2597(2) 0.41268(9) 0.79342(15)
C16_8 C 0.1929(2) 0.42038(9) 0.81510(15)
H15_8 H 0.1471 0.4105 0.8032
C17_8 C 0.1906(2) 0.44377(9) 0.85671(15)
H16_8 H 0.1430 0.4479 0.8733
C18_8 C 0.3149(2) 0.45336(9) 0.84990(15)
H17_8 H 0.3594 0.4648 0.8604
C19_8 C 0.3233(2) 0.42993(9) 0.80884(15)
H18_8 H 0.3715 0.4264 0.7927
C20_8 C 0.3062(2) 0.33019(9) 0.70786(15)
H19_8 H 0.3456 0.3437 0.7250
H20_8 H 0.3302 0.3190 0.6778
C21_8 C 0.32540(19) 0.29349(8) 0.78185(13)
C22_8 C 0.4019(2) 0.30154(10) 0.78697(16)
H21_8 H 0.4248 0.3166 0.7637
C23_8 C 0.4452(2) 0.28715(9) 0.82696(15)
H22_8 H 0.4978 0.2926 0.8293
C24_8 C 0.3439(2) 0.25644(9) 0.85450(14)
H23_8 H 0.3235 0.2402 0.8767
C25_8 C 0.2973(2) 0.26949(9) 0.81513(14)
H24_8 H 0.2463 0.2620 0.8110
C26_8 C 0.0554(2) 0.47789(9) 0.44329(15)
H25_8 H 0.0226 0.4812 0.4740
H26_8 H 0.0238 0.4768 0.4116
H27_8 H 0.0839 0.4578 0.4474
N1_8 N 0.23867(17) 0.46099(7) 0.50635(13)
O1_8 O 0.21227(14) 0.39638(6) 0.63149(10)
O2_8 O 0.20555(14) 0.31258(6) 0.62271(10)
O3_8 O 0.27411(16) 0.39072(6) 0.75480(11)
O4_8 O 0.27580(15) 0.30623(6) 0.74607(10)
O5_8 O 0.11001(15) 0.50511(6) 0.43859(10)
C27_8 C 0.2077(2) 0.56110(8) 0.51606(14)
H28_8 H 0.1633 0.5614 0.4945
C28_8 C 0.2135(2) 0.58419(9) 0.55691(14)
H29_8 H 0.1744 0.5998 0.5617
C29_8 C 0.2763(2) 0.58380(9) 0.58964(15)
C30_8 C 0.3323(2) 0.56089(9) 0.57894(16)
H30_8 H 0.3772 0.5599 0.5998
C31_8 C 0.3222(2) 0.53928(9) 0.53728(14)
H31_8 H 0.3613 0.5239 0.5309
C32_8 C 0.2262(2) 0.62659(9) 0.64559(15)
H32_8 H 0.2108 0.6393 0.6145
H33_8 H 0.1809 0.6150 0.6591
C33_8 C 0.25963(19) 0.64872(8) 0.68845(13)
C34_8 C 0.3266(2) 0.66916(9) 0.66636(14)
H34_8 H 0.3687 0.6551 0.6540
H35_8 H 0.3468 0.6838 0.6937
C35_8 C 0.3428(2) 0.69909(9) 0.58416(15)
C36_8 C 0.4224(2) 0.69914(9) 0.58645(16)
H36_8 H 0.4483 0.6908 0.6163
C37_8 C 0.4636(2) 0.71171(9) 0.54378(15)
H37_6 H 0.5179 0.7119 0.5457
C38_8 C 0.3525(2) 0.72296(8) 0.49807(15)
H38_8 H 0.3279 0.7307 0.4673
C39_8 C 0.3059(2) 0.71143(8) 0.53966(15)
H39_8 H 0.2517 0.7120 0.5374
C40_8 C 0.2955(2) 0.62829(9) 0.73559(14)
H40_8 H 0.3161 0.6424 0.7635
H41_8 H 0.3366 0.6138 0.7230
C41_8 C 0.2403(2) 0.58732(9) 0.79342(15)
C42_8 C 0.3071(2) 0.57962(9) 0.81510(15)
H42_8 H 0.3529 0.5895 0.8032
C43_8 C 0.3094(2) 0.55623(9) 0.85671(15)
H43_8 H 0.3570 0.5521 0.8733
C44_8 C 0.1851(2) 0.54664(9) 0.84990(15)
H44_8 H 0.1406 0.5352 0.8604
C45_8 C 0.1767(2) 0.57007(9) 0.80884(15)
H45_8 H 0.1285 0.5736 0.7927
C46_8 C 0.1938(2) 0.66981(9) 0.70786(15)
H46_8 H 0.1544 0.6563 0.7250
H47_8 H 0.1698 0.6810 0.6778
C47_8 C 0.17460(19) 0.70651(8) 0.78185(13)
C48_8 C 0.0981(2) 0.69846(10) 0.78697(16)
H48_8 H 0.0752 0.6834 0.7637
C49_8 C 0.0548(2) 0.71285(9) 0.82696(15)
H49_8 H 0.0022 0.7074 0.8293
C50_8 C 0.1561(2) 0.74356(9) 0.85450(14)
H50_8 H 0.1765 0.7598 0.8767
C51_8 C 0.2027(2) 0.73051(9) 0.81513(14)
H51_8 H 0.2537 0.7380 0.8110
C52_8 C 0.4446(2) 0.52211(9) 0.44329(15)
H52_8 H 0.4774 0.5188 0.4740
H53_8 H 0.4762 0.5232 0.4116
H54_8 H 0.4161 0.5422 0.4474
N6_8 N 0.26133(17) 0.53901(7) 0.50635(13)
O9_8 O 0.28773(14) 0.60362(6) 0.63149(10)
O10_8 O 0.29445(14) 0.68742(6) 0.62271(10)
O11_8 O 0.22589(16) 0.60928(6) 0.75480(11)
O12_8 O 0.22420(15) 0.69377(6) 0.74607(10)
O13_8 O 0.38999(15) 0.49489(6) 0.43859(10)
H10_8 H 0.9821 0.2881 0.5457
H37_7 H 0.0179 0.7881 0.0457
H37_8 H 0.9821 0.2119 0.9543
loop_
_geom_bond_atom_site_label_1
_geom_bond_atom_site_label_2
_geom_bond_site_symmetry_1
_geom_bond_site_symmetry_2
C1 H1 1_555 1_555
C2 C1 1_555 1_555
H2 C2 1_555 1_555
C3 C2 1_555 1_555
C4 C3 1_555 1_555
H3 C4 1_555 1_555
C5 C4 1_555 1_555
H4 C5 1_555 1_555
C6 H5 1_555 1_555
H6 C6 1_555 1_555
C7 C6 1_555 1_555
C8 C7 1_555 1_555
H7 C8 1_555 1_555
H8 C8 1_555 1_555
C9 C10 1_555 1_555
C10 H9 1_555 1_555
C11 C10 1_555 1_555
H10 C11 1_555 1_555
C12 H11 1_555 1_555
C13 C9 1_555 1_555
H12 C13 1_555 1_555
C14 C7 1_555 1_555
H13 C14 1_555 1_555
H14 C14 1_555 1_555
C15 C16 1_555 1_555
C16 H15 1_555 1_555
C17 C16 1_555 1_555
H16 C17 1_555 1_555
C18 H17 1_555 1_555
C19 C15 1_555 1_555
H18 C19 1_555 1_555
C20 C7 1_555 1_555
H19 C20 1_555 1_555
H20 C20 1_555 1_555
C21 C22 1_555 1_555
C22 H21 1_555 1_555
C23 C22 1_555 1_555
H22 C23 1_555 1_555
C24 H23 1_555 1_555
C25 C21 1_555 1_555
H24 C25 1_555 1_555
C26 H25 1_555 1_555
H26 C26 1_555 1_555
H27 C26 1_555 1_555
Cd1 N3 1_555 1_555
Cd2 N1 1_555 1_555
N1 C1 1_555 1_555
N2 C11 1_555 1_555
N3 C23 1_555 1_555
N4 C17 1_555 1_555
O1 C3 1_555 1_555
O2 C8 1_555 1_555
O3 C14 1_555 1_555
O4 C20 1_555 1_555
O13 Cd2 1_555 1_555
N10 O14 1_555 1_555
O15 N10 1_555 1_555
O16 Cd1 1_555 1_555
Cd5 N2 1_555 1_555
Cd6 N4 1_555 1_555
N11 Cd1 1_555 1_555
N15 Cd2 1_555 1_555
C5 N1 1_555 1_555
C6 O1 1_555 1_555
C9 O2 1_555 1_555
C12 C13 1_555 1_555
C12 N2 1_555 1_555
C15 O3 1_555 1_555
C18 C19 1_555 1_555
C18 N4 1_555 1_555
C21 O4 1_555 1_555
C24 C25 1_555 1_555
C24 N3 1_555 1_555
N10 O16 1_555 1_555
C27 H28 1_555 1_555
C28 C27 1_555 1_555
H29 C28 1_555 1_555
C29 C28 1_555 1_555
C30 C29 1_555 1_555
H30 C30 1_555 1_555
C31 C30 1_555 1_555
H31 C31 1_555 1_555
C32 H32 1_555 1_555
H33 C32 1_555 1_555
C33 C32 1_555 1_555
C34 C33 1_555 1_555
H34 C34 1_555 1_555
H35 C34 1_555 1_555
C35 C36 1_555 1_555
C36 H36 1_555 1_555
C37 C36 1_555 1_555
C38 H38 1_555 1_555
C39 C35 1_555 1_555
H39 C39 1_555 1_555
C40 C33 1_555 1_555
H40 C40 1_555 1_555
H41 C40 1_555 1_555
C41 C42 1_555 1_555
C42 H42 1_555 1_555
C43 C42 1_555 1_555
H43 C43 1_555 1_555
C44 H44 1_555 1_555
C45 C41 1_555 1_555
H45 C45 1_555 1_555
C46 C33 1_555 1_555
H46 C46 1_555 1_555
H47 C46 1_555 1_555
C47 C48 1_555 1_555
C48 H48 1_555 1_555
C49 C48 1_555 1_555
H49 C49 1_555 1_555
C50 H50 1_555 1_555
C51 C47 1_555 1_555
H51 C51 1_555 1_555
C52 H52 1_555 1_555
H53 C52 1_555 1_555
H54 C52 1_555 1_555
N6 Cd2_2 1_555 1_555
N7 C37 1_555 1_555
N8 C49 1_555 1_555
N9 C43 1_555 1_555
O9 C29 1_555 1_555
O10 C34 1_555 1_555
O11 C40 1_555 1_555
O12 C46 1_555 1_555
Cd3 N8 1_555 1_555
Cd4 N7 1_555 1_555
N14 Cd2_2 1_555 1_555
Cd2_2 O5 1_555 1_555
C27 N6 1_555 1_555
C31 N6 1_555 1_555
C32 O9 1_555 1_555
C35 O10 1_555 1_555
C38 C39 1_555 1_555
C38 N7 1_555 1_555
C41 O11 1_555 1_555
C44 C45 1_555 1_555
C44 N9 1_555 1_555
C47 O12 1_555 1_555
C50 C51 1_555 1_555
C50 N8 1_555 1_555
N9 Cd6_2 1_555 1_555
N5 O6 1_555 1_555
O7 N5 1_555 1_555
O8 Cd1_2 1_555 1_555
N12 Cd1_2 1_555 1_555
N13 Cd1_2 1_555 1_555
N5 O8 1_555 1_555
N5_2 O6_2 1_555 1_555
O7_2 N5_2 1_555 1_555
O8_2 Cd3 1_555 1_555
N10_2 O14_2 1_555 1_555
O15_2 N10_2 1_555 1_555
O16_2 Cd3 1_555 1_555
N11_2 Cd3 1_555 1_555
N12_2 Cd3 1_555 1_555
N13_2 Cd3 1_555 1_555
N5_2 O8_2 1_555 1_555
N10_2 O16_2 1_555 1_555
C1_2 H1_2 1_555 1_555
C2_2 C1_2 1_555 1_555
H2_2 C2_2 1_555 1_555
C3_2 C2_2 1_555 1_555
C4_2 C3_2 1_555 1_555
H3_2 C4_2 1_555 1_555
C5_2 C4_2 1_555 1_555
H4_2 C5_2 1_555 1_555
C6_2 H5_2 1_555 1_555
H6_2 C6_2 1_555 1_555
C7_2 C6_2 1_555 1_555
C8_2 C7_2 1_555 1_555
H7_2 C8_2 1_555 1_555
H8_2 C8_2 1_555 1_555
C9_2 C10_2 1_555 1_555
C10_2 H9_2 1_555 1_555
C11_2 C10_2 1_555 1_555
C12_2 H11_2 1_555 1_555
C13_2 C9_2 1_555 1_555
H12_2 C13_2 1_555 1_555
C14_2 C7_2 1_555 1_555
H13_2 C14_2 1_555 1_555
H14_2 C14_2 1_555 1_555
C15_2 C16_2 1_555 1_555
C16_2 H15_2 1_555 1_555
C17_2 C16_2 1_555 1_555
H16_2 C17_2 1_555 1_555
C18_2 H17_2 1_555 1_555
C19_2 C15_2 1_555 1_555
H18_2 C19_2 1_555 1_555
C20_2 C7_2 1_555 1_555
H19_2 C20_2 1_555 1_555
H20_2 C20_2 1_555 1_555
C21_2 C22_2 1_555 1_555
C22_2 H21_2 1_555 1_555
C23_2 C22_2 1_555 1_555
H22_2 C23_2 1_555 1_555
C24_2 H23_2 1_555 1_555
C25_2 C21_2 1_555 1_555
H24_2 C25_2 1_555 1_555
C26_2 H25_2 1_555 1_555
H26_2 C26_2 1_555 1_555
H27_2 C26_2 1_555 1_555
Cd2_3 N1_2 1_555 1_555
N1_2 C1_2 1_555 1_555
N2_2 C11_2 1_555 1_555
N13_2 C23_2 1_555 1_555
N4_2 C17_2 1_555 1_555
O1_2 C3_2 1_555 1_555
O2_2 C8_2 1_555 1_555
O3_2 C14_2 1_555 1_555
O4_2 C20_2 1_555 1_555
O5_2 C26_2 1_555 1_555
C27_2 H28_2 1_555 1_555
C28_2 C27_2 1_555 1_555
H29_2 C28_2 1_555 1_555
C29_2 C28_2 1_555 1_555
C30_2 C29_2 1_555 1_555
H30_2 C30_2 1_555 1_555
C31_2 C30_2 1_555 1_555
H31_2 C31_2 1_555 1_555
C32_2 H32_2 1_555 1_555
H33_2 C32_2 1_555 1_555
C33_2 C32_2 1_555 1_555
C34_2 C33_2 1_555 1_555
H34_2 C34_2 1_555 1_555
H35_2 C34_2 1_555 1_555
C35_2 C36_2 1_555 1_555
C36_2 H36_2 1_555 1_555
C37_2 C36_2 1_555 1_555
H37_2 C37_2 1_555 1_555
C38_2 H38_2 1_555 1_555
C39_2 C35_2 1_555 1_555
H39_2 C39_2 1_555 1_555
C40_2 C33_2 1_555 1_555
H40_2 C40_2 1_555 1_555
H41_2 C40_2 1_555 1_555
C41_2 C42_2 1_555 1_555
C42_2 H42_2 1_555 1_555
C43_2 C42_2 1_555 1_555
H43_2 C43_2 1_555 1_555
C44_2 H44_2 1_555 1_555
C45_2 C41_2 1_555 1_555
H45_2 C45_2 1_555 1_555
C46_2 C33_2 1_555 1_555
H46_2 C46_2 1_555 1_555
H47_2 C46_2 1_555 1_555
C47_2 C48_2 1_555 1_555
C48_2 H48_2 1_555 1_555
C49_2 C48_2 1_555 1_555
H49_2 C49_2 1_555 1_555
C50_2 H50_2 1_555 1_555
C51_2 C47_2 1_555 1_555
H51_2 C51_2 1_555 1_555
C52_2 H52_2 1_555 1_555
H53_2 C52_2 1_555 1_555
H54_2 C52_2 1_555 1_555
N6_2 Cd2_3 1_555 1_555
N7_2 C37_2 1_555 1_555
N13 C49_2 1_555 1_555
N9_2 C43_2 1_555 1_555
O9_2 C29_2 1_555 1_555
O10_2 C34_2 1_555 1_555
O11_2 C40_2 1_555 1_555
O12_2 C46_2 1_555 1_555
O13_2 Cd2_3 1_555 1_555
Cd5 N7_2 1_555 1_555
Cd4_2 N2_2 1_555 1_555
Cd6_3 N4_2 1_555 1_555
N14_2 Cd2_3 1_555 1_555
N15_2 Cd2_3 1_555 1_555
C5_2 N1_2 1_555 1_555
C6_2 O1_2 1_555 1_555
C9_2 O2_2 1_555 1_555
C12_2 C13_2 1_555 1_555
C12_2 N2_2 1_555 1_555
C15_2 O3_2 1_555 1_555
C18_2 C19_2 1_555 1_555
C18_2 N4_2 1_555 1_555
C21_2 O4_2 1_555 1_555
C24_2 C25_2 1_555 1_555
C24_2 N13_2 1_555 1_555
Cd2_3 O5_2 1_555 1_555
C27_2 N6_2 1_555 1_555
C31_2 N6_2 1_555 1_555
C32_2 O9_2 1_555 1_555
C35_2 O10_2 1_555 1_555
C38_2 C39_2 1_555 1_555
C38_2 N7_2 1_555 1_555
C41_2 O11_2 1_555 1_555
C44_2 C45_2 1_555 1_555
C44_2 N9_2 1_555 1_555
C47_2 O12_2 1_555 1_555
C50_2 C51_2 1_555 1_555
C50_2 N13 1_555 1_555
C52_2 O13_2 1_555 1_555
N9_2 Cd6_3 1_555 1_555
C38_3 H38_3 1_555 1_555
C52_3 H52_3 1_555 1_555
H53_3 C52_3 1_555 1_555
H54_3 C52_3 1_555 1_555
Cd6 O5_3 1_555 1_555
C38_3 N11 1_555 1_555
C28_3 C27_3 1_555 1_555
H29_3 C28_3 1_555 1_555
C29_3 C28_3 1_555 1_555
C30_3 C29_3 1_555 1_555
H30_3 C30_3 1_555 1_555
C31_3 C30_3 1_555 1_555
H31_3 C31_3 1_555 1_555
C32_3 H32_3 1_555 1_555
H33_3 C32_3 1_555 1_555
C33_3 C32_3 1_555 1_555
C34_3 C33_3 1_555 1_555
H34_3 C34_3 1_555 1_555
H35_3 C34_3 1_555 1_555
C35_3 C36_3 1_555 1_555
C36_3 H36_3 1_555 1_555
C37_3 C36_3 1_555 1_555
C39_3 C35_3 1_555 1_555
H39_3 C39_3 1_555 1_555
C40_3 C33_3 1_555 1_555
H40_3 C40_3 1_555 1_555
H41_3 C40_3 1_555 1_555
C41_3 C42_3 1_555 1_555
C42_3 H42_3 1_555 1_555
C43_3 C42_3 1_555 1_555
H43_3 C43_3 1_555 1_555
C44_3 H44_3 1_555 1_555
C45_3 C41_3 1_555 1_555
H45_3 C45_3 1_555 1_555
C46_3 C33_3 1_555 1_555
H46_3 C46_3 1_555 1_555
H47_3 C46_3 1_555 1_555
C47_3 C48_3 1_555 1_555
C48_3 H48_3 1_555 1_555
C49_3 C48_3 1_555 1_555
H49_3 C49_3 1_555 1_555
C50_3 H50_3 1_555 1_555
C51_3 C47_3 1_555 1_555
H51_3 C51_3 1_555 1_555
N8_2 C49_3 1_555 1_555
N15 C43_3 1_555 1_555
O9_3 C29_3 1_555 1_555
O10_3 C34_3 1_555 1_555
O11_3 C40_3 1_555 1_555
O12_3 C46_3 1_555 1_555
Cd5 N8_2 1_555 1_555
C27_3 N6_3 1_555 1_555
C31_3 N6_3 1_555 1_555
C32_3 O9_3 1_555 1_555
C35_3 O10_3 1_555 1_555
C41_3 O11_3 1_555 1_555
C44_3 C45_3 1_555 1_555
C44_3 N15 1_555 1_555
C47_3 O12_3 1_555 1_555
C50_3 C51_3 1_555 1_555
C50_3 N8_2 1_555 1_555
C12_3 H11_3 1_555 1_555
C26_3 H25_3 1_555 1_555
H26_3 C26_3 1_555 1_555
H27_3 C26_3 1_555 1_555
O13_3 Cd6_2 1_555 1_555
C12_3 N11_2 1_555 1_555
C2_3 C1_3 1_555 1_555
H2_3 C2_3 1_555 1_555
C3_3 C2_3 1_555 1_555
C4_3 C3_3 1_555 1_555
H3_3 C4_3 1_555 1_555
C5_3 C4_3 1_555 1_555
H4_3 C5_3 1_555 1_555
C6_3 H5_3 1_555 1_555
H6_3 C6_3 1_555 1_555
C7_3 C6_3 1_555 1_555
C8_3 C7_3 1_555 1_555
H7_3 C8_3 1_555 1_555
H8_3 C8_3 1_555 1_555
C9_3 C10_3 1_555 1_555
C10_3 H9_3 1_555 1_555
C11_3 C10_3 1_555 1_555
H10_3 C11_3 1_555 1_555
C13_3 C9_3 1_555 1_555
H12_3 C13_3 1_555 1_555
C14_3 C7_3 1_555 1_555
H13_3 C14_3 1_555 1_555
H14_3 C14_3 1_555 1_555
C15_3 C16_3 1_555 1_555
C16_3 H15_3 1_555 1_555
C17_3 C16_3 1_555 1_555
H16_3 C17_3 1_555 1_555
C18_3 H17_3 1_555 1_555
C19_3 C15_3 1_555 1_555
H18_3 C19_3 1_555 1_555
C20_3 C7_3 1_555 1_555
H19_3 C20_3 1_555 1_555
H20_3 C20_3 1_555 1_555
C21_3 C22_3 1_555 1_555
C22_3 H21_3 1_555 1_555
C23_3 C22_3 1_555 1_555
H22_3 C23_3 1_555 1_555
C24_3 H23_3 1_555 1_555
C25_3 C21_3 1_555 1_555
H24_3 C25_3 1_555 1_555
Cd4 N3_2 1_555 1_555
N1_3 C1_3 1_555 1_555
N3_2 C23_3 1_555 1_555
N14 C17_3 1_555 1_555
O1_3 C3_3 1_555 1_555
O2_3 C8_3 1_555 1_555
O3_3 C14_3 1_555 1_555
O4_3 C20_3 1_555 1_555
N10_3 O14_3 1_555 1_555
O15_3 N10_3 1_555 1_555
O16_3 Cd4 1_555 1_555
C5_3 N1_3 1_555 1_555
C6_3 O1_3 1_555 1_555
C9_3 O2_3 1_555 1_555
C15_3 O3_3 1_555 1_555
C18_3 C19_3 1_555 1_555
C18_3 N14 1_555 1_555
C21_3 O4_3 1_555 1_555
C24_3 C25_3 1_555 1_555
C24_3 N3_2 1_555 1_555
N10_3 O16_3 1_555 1_555
N5_3 O6_3 1_555 1_555
O7_3 N5_3 1_555 1_555
O8_3 Cd4_2 1_555 1_555
N13_3 Cd4_2 1_555 1_555
N5_3 O8_3 1_555 1_555
N5_4 O6_4 1_555 1_555
O7_4 N5_4 1_555 1_555
O8_4 Cd5 1_555 1_555
N10_4 O14_4 1_555 1_555
O15_4 N10_4 1_555 1_555
O16_4 Cd5 1_555 1_555
N13_4 Cd5 1_555 1_555
N5_4 O8_4 1_555 1_555
N10_4 O16_4 1_555 1_555
C12_4 H11_4 1_555 1_555
C26_4 H25_4 1_555 1_555
H26_4 C26_4 1_555 1_555
H27_4 C26_4 1_555 1_555
O5_4 C26_4 1_555 1_555
C38_4 H38_4 1_555 1_555
C52_4 H52_4 1_555 1_555
H53_4 C52_4 1_555 1_555
H54_4 C52_4 1_555 1_555
O13_4 Cd6_3 1_555 1_555
C12_4 N12 1_555 1_555
Cd6_3 O5_4 1_555 1_555
C38_4 N12_2 1_555 1_555
C52_4 O13_4 1_555 1_555
C2_4 C1_4 1_555 1_555
H2_4 C2_4 1_555 1_555
C3_4 C2_4 1_555 1_555
C4_4 C3_4 1_555 1_555
H3_4 C4_4 1_555 1_555
C5_4 C4_4 1_555 1_555
H4_4 C5_4 1_555 1_555
C6_4 H5_4 1_555 1_555
H6_4 C6_4 1_555 1_555
C7_4 C6_4 1_555 1_555
C8_4 C7_4 1_555 1_555
H7_4 C8_4 1_555 1_555
H8_4 C8_4 1_555 1_555
C9_4 C10_4 1_555 1_555
C10_4 H9_4 1_555 1_555
C11_4 C10_4 1_555 1_555
C13_4 C9_4 1_555 1_555
H12_4 C13_4 1_555 1_555
C14_4 C7_4 1_555 1_555
H13_4 C14_4 1_555 1_555
H14_4 C14_4 1_555 1_555
C15_4 C16_4 1_555 1_555
C16_4 H15_4 1_555 1_555
C17_4 C16_4 1_555 1_555
H16_4 C17_4 1_555 1_555
C18_4 H17_4 1_555 1_555
C19_4 C15_4 1_555 1_555
H18_4 C19_4 1_555 1_555
C20_4 C7_4 1_555 1_555
H19_4 C20_4 1_555 1_555
H20_4 C20_4 1_555 1_555
C21_4 C22_4 1_555 1_555
C22_4 H21_4 1_555 1_555
C23_4 C22_4 1_555 1_555
H22_4 C23_4 1_555 1_555
C24_4 H23_4 1_555 1_555
C25_4 C21_4 1_555 1_555
H24_4 C25_4 1_555 1_555
N1_4 C1_4 1_555 1_555
N13_4 C23_4 1_555 1_555
N14_2 C17_4 1_555 1_555
O1_4 C3_4 1_555 1_555
O2_4 C8_4 1_555 1_555
O3_4 C14_4 1_555 1_555
O4_4 C20_4 1_555 1_555
C28_4 C27_4 1_555 1_555
H29_4 C28_4 1_555 1_555
C29_4 C28_4 1_555 1_555
C30_4 C29_4 1_555 1_555
H30_4 C30_4 1_555 1_555
C31_4 C30_4 1_555 1_555
H31_4 C31_4 1_555 1_555
C32_4 H32_4 1_555 1_555
H33_4 C32_4 1_555 1_555
C33_4 C32_4 1_555 1_555
C34_4 C33_4 1_555 1_555
H34_4 C34_4 1_555 1_555
H35_4 C34_4 1_555 1_555
C35_4 C36_4 1_555 1_555
C36_4 H36_4 1_555 1_555
C37_4 C36_4 1_555 1_555
H37_3 C37_4 1_555 1_555
C39_4 C35_4 1_555 1_555
H39_4 C39_4 1_555 1_555
C40_4 C33_4 1_555 1_555
H40_4 C40_4 1_555 1_555
H41_4 C40_4 1_555 1_555
C41_4 C42_4 1_555 1_555
C42_4 H42_4 1_555 1_555
C43_4 C42_4 1_555 1_555
H43_4 C43_4 1_555 1_555
C44_4 H44_4 1_555 1_555
C45_4 C41_4 1_555 1_555
H45_4 C45_4 1_555 1_555
C46_4 C33_4 1_555 1_555
H46_4 C46_4 1_555 1_555
H47_4 C46_4 1_555 1_555
C47_4 C48_4 1_555 1_555
C48_4 H48_4 1_555 1_555
C49_4 C48_4 1_555 1_555
H49_4 C49_4 1_555 1_555
C50_4 H50_4 1_555 1_555
C51_4 C47_4 1_555 1_555
H51_4 C51_4 1_555 1_555
N13_3 C49_4 1_555 1_555
N15_2 C43_4 1_555 1_555
O9_4 C29_4 1_555 1_555
O10_4 C34_4 1_555 1_555
O11_4 C40_4 1_555 1_555
O12_4 C46_4 1_555 1_555
C5_4 N1_4 1_555 1_555
C6_4 O1_4 1_555 1_555
C9_4 O2_4 1_555 1_555
C15_4 O3_4 1_555 1_555
C18_4 C19_4 1_555 1_555
C18_4 N14_2 1_555 1_555
C21_4 O4_4 1_555 1_555
C24_4 C25_4 1_555 1_555
C24_4 N13_4 1_555 1_555
C27_4 N6_4 1_555 1_555
C31_4 N6_4 1_555 1_555
C32_4 O9_4 1_555 1_555
C35_4 O10_4 1_555 1_555
C41_4 O11_4 1_555 1_555
C44_4 C45_4 1_555 1_555
C44_4 N15_2 1_555 1_555
C47_4 O12_4 1_555 1_555
C50_4 C51_4 1_555 1_555
C50_4 N13_3 1_555 1_555
N5_5 O6_5 1_555 1_555
O7_5 N5_5 1_555 1_555
O8_5 Cd1_3 1_555 1_555
N12_3 Cd1_3 1_555 1_555
N13_5 Cd1_3 1_555 1_555
N5_5 O8_5 1_555 1_555
C2_5 C1_5 1_555 1_555
H2_5 C2_5 1_555 1_555
C3_5 C2_5 1_555 1_555
C4_5 C3_5 1_555 1_555
H3_5 C4_5 1_555 1_555
C5_5 C4_5 1_555 1_555
H4_5 C5_5 1_555 1_555
C6_5 H5_5 1_555 1_555
H6_5 C6_5 1_555 1_555
C7_5 C6_5 1_555 1_555
C8_5 C7_5 1_555 1_555
H7_5 C8_5 1_555 1_555
H8_5 C8_5 1_555 1_555
C9_5 C10_5 1_555 1_555
C10_5 H9_5 1_555 1_555
C11_5 C10_5 1_555 1_555
H10_5 C11_5 1_555 1_555
C13_5 C9_5 1_555 1_555
H12_5 C13_5 1_555 1_555
C14_5 C7_5 1_555 1_555
H13_5 C14_5 1_555 1_555
H14_5 C14_5 1_555 1_555
C15_5 C16_5 1_555 1_555
C16_5 H15_5 1_555 1_555
C17_5 C16_5 1_555 1_555
H16_5 C17_5 1_555 1_555
C18_5 H17_5 1_555 1_555
C19_5 C15_5 1_555 1_555
H18_5 C19_5 1_555 1_555
C20_5 C7_5 1_555 1_555
H19_5 C20_5 1_555 1_555
H20_5 C20_5 1_555 1_555
C21_5 C22_5 1_555 1_555
C22_5 H21_5 1_555 1_555
C23_5 C22_5 1_555 1_555
H22_5 C23_5 1_555 1_555
C24_5 H23_5 1_555 1_555
C25_5 C21_5 1_555 1_555
H24_5 C25_5 1_555 1_555
Cd1_4 N3_3 1_555 1_555
N1_5 C1_5 1_555 1_555
N3_3 C23_5 1_555 1_555
N4_3 C17_5 1_555 1_555
O1_5 C3_5 1_555 1_555
O2_5 C8_5 1_555 1_555
O3_5 C14_5 1_555 1_555
O4_5 C20_5 1_555 1_555
N10_5 O14_5 1_555 1_555
O15_5 N10_5 1_555 1_555
O16_5 Cd1_4 1_555 1_555
Cd6_4 N4_3 1_555 1_555
N11_3 Cd1_4 1_555 1_555
C5_5 N1_5 1_555 1_555
C6_5 O1_5 1_555 1_555
C9_5 O2_5 1_555 1_555
C15_5 O3_5 1_555 1_555
C18_5 C19_5 1_555 1_555
C18_5 N4_3 1_555 1_555
C21_5 O4_5 1_555 1_555
C24_5 C25_5 1_555 1_555
C24_5 N3_3 1_555 1_555
N10_5 O16_5 1_555 1_555
C12_5 H11_5 1_555 1_555
C26_5 H25_5 1_555 1_555
H26_5 C26_5 1_555 1_555
H27_5 C26_5 1_555 1_555
O13_5 Cd2_4 1_555 1_555
Cd5_2 N2_3 1_555 1_555
N15_3 Cd2_4 1_555 1_555
C12_5 N2_3 1_555 1_555
C28_5 C27_5 1_555 1_555
H29_5 C28_5 1_555 1_555
C29_5 C28_5 1_555 1_555
C30_5 C29_5 1_555 1_555
H30_5 C30_5 1_555 1_555
C31_5 C30_5 1_555 1_555
H31_5 C31_5 1_555 1_555
C32_5 H32_5 1_555 1_555
H33_5 C32_5 1_555 1_555
C33_5 C32_5 1_555 1_555
C34_5 C33_5 1_555 1_555
H34_5 C34_5 1_555 1_555
H35_5 C34_5 1_555 1_555
C35_5 C36_5 1_555 1_555
C36_5 H36_5 1_555 1_555
C37_5 C36_5 1_555 1_555
C39_5 C35_5 1_555 1_555
H39_5 C39_5 1_555 1_555
C40_5 C33_5 1_555 1_555
H40_5 C40_5 1_555 1_555
H41_5 C40_5 1_555 1_555
C41_5 C42_5 1_555 1_555
C42_5 H42_5 1_555 1_555
C43_5 C42_5 1_555 1_555
H43_5 C43_5 1_555 1_555
C44_5 H44_5 1_555 1_555
C45_5 C41_5 1_555 1_555
H45_5 C45_5 1_555 1_555
C46_5 C33_5 1_555 1_555
H46_5 C46_5 1_555 1_555
H47_5 C46_5 1_555 1_555
C47_5 C48_5 1_555 1_555
C48_5 H48_5 1_555 1_555
C49_5 C48_5 1_555 1_555
H49_5 C49_5 1_555 1_555
C50_5 H50_5 1_555 1_555
C51_5 C47_5 1_555 1_555
H51_5 C51_5 1_555 1_555
N8_3 C49_5 1_555 1_555
N9_3 C43_5 1_555 1_555
O9_5 C29_5 1_555 1_555
O10_5 C34_5 1_555 1_555
O11_5 C40_5 1_555 1_555
O12_5 C46_5 1_555 1_555
Cd3_2 N8_3 1_555 1_555
C27_5 N6_5 1_555 1_555
C31_5 N6_5 1_555 1_555
C32_5 O9_5 1_555 1_555
C35_5 O10_5 1_555 1_555
C41_5 O11_5 1_555 1_555
C44_5 C45_5 1_555 1_555
C44_5 N9_3 1_555 1_555
C47_5 O12_5 1_555 1_555
C50_5 C51_5 1_555 1_555
C50_5 N8_3 1_555 1_555
N9_3 Cd6_5 1_555 1_555
C38_5 H38_5 1_555 1_555
C52_5 H52_5 1_555 1_555
H53_5 C52_5 1_555 1_555
H54_5 C52_5 1_555 1_555
Cd4_4 N7_3 1_555 1_555
N14_3 Cd2_5 1_555 1_555
Cd2_5 O5_5 1_555 1_555
C38_5 N7_3 1_555 1_555
N5_6 O6_6 1_555 1_555
O7_6 N5_6 1_555 1_555
O8_6 Cd3_2 1_555 1_555
N10_6 O14_6 1_555 1_555
O15_6 N10_6 1_555 1_555
O16_6 Cd3_2 1_555 1_555
N11_4 Cd3_2 1_555 1_555
N12_4 Cd3_2 1_555 1_555
N13_6 Cd3_2 1_555 1_555
N5_6 O8_6 1_555 1_555
N10_6 O16_6 1_555 1_555
C2_6 C1_6 1_555 1_555
H2_6 C2_6 1_555 1_555
C3_6 C2_6 1_555 1_555
C4_6 C3_6 1_555 1_555
H3_6 C4_6 1_555 1_555
C5_6 C4_6 1_555 1_555
H4_6 C5_6 1_555 1_555
C6_6 H5_6 1_555 1_555
H6_6 C6_6 1_555 1_555
C7_6 C6_6 1_555 1_555
C8_6 C7_6 1_555 1_555
H7_6 C8_6 1_555 1_555
H8_6 C8_6 1_555 1_555
C9_6 C10_6 1_555 1_555
C10_6 H9_6 1_555 1_555
C11_6 C10_6 1_555 1_555
C13_6 C9_6 1_555 1_555
H12_6 C13_6 1_555 1_555
C14_6 C7_6 1_555 1_555
H13_6 C14_6 1_555 1_555
H14_6 C14_6 1_555 1_555
C15_6 C16_6 1_555 1_555
C16_6 H15_6 1_555 1_555
C17_6 C16_6 1_555 1_555
H16_6 C17_6 1_555 1_555
C18_6 H17_6 1_555 1_555
C19_6 C15_6 1_555 1_555
H18_6 C19_6 1_555 1_555
C20_6 C7_6 1_555 1_555
H19_6 C20_6 1_555 1_555
H20_6 C20_6 1_555 1_555
C21_6 C22_6 1_555 1_555
C22_6 H21_6 1_555 1_555
C23_6 C22_6 1_555 1_555
H22_6 C23_6 1_555 1_555
C24_6 H23_6 1_555 1_555
C25_6 C21_6 1_555 1_555
H24_6 C25_6 1_555 1_555
N1_6 C1_6 1_555 1_555
N13_6 C23_6 1_555 1_555
N4_4 C17_6 1_555 1_555
O1_6 C3_6 1_555 1_555
O2_6 C8_6 1_555 1_555
O3_6 C14_6 1_555 1_555
O4_6 C20_6 1_555 1_555
C28_6 C27_6 1_555 1_555
H29_6 C28_6 1_555 1_555
C29_6 C28_6 1_555 1_555
C30_6 C29_6 1_555 1_555
H30_6 C30_6 1_555 1_555
C31_6 C30_6 1_555 1_555
H31_6 C31_6 1_555 1_555
C32_6 H32_6 1_555 1_555
H33_6 C32_6 1_555 1_555
C33_6 C32_6 1_555 1_555
C34_6 C33_6 1_555 1_555
H34_6 C34_6 1_555 1_555
H35_6 C34_6 1_555 1_555
C35_6 C36_6 1_555 1_555
C36_6 H36_6 1_555 1_555
C37_6 C36_6 1_555 1_555
H37_4 C37_6 1_555 1_555
C39_6 C35_6 1_555 1_555
H39_6 C39_6 1_555 1_555
C40_6 C33_6 1_555 1_555
H40_6 C40_6 1_555 1_555
H41_6 C40_6 1_555 1_555
C41_6 C42_6 1_555 1_555
C42_6 H42_6 1_555 1_555
C43_6 C42_6 1_555 1_555
H43_6 C43_6 1_555 1_555
C44_6 H44_6 1_555 1_555
C45_6 C41_6 1_555 1_555
H45_6 C45_6 1_555 1_555
C46_6 C33_6 1_555 1_555
H46_6 C46_6 1_555 1_555
H47_6 C46_6 1_555 1_555
C47_6 C48_6 1_555 1_555
C48_6 H48_6 1_555 1_555
C49_6 C48_6 1_555 1_555
H49_6 C49_6 1_555 1_555
C50_6 H50_6 1_555 1_555
C51_6 C47_6 1_555 1_555
H51_6 C51_6 1_555 1_555
N13_5 C49_6 1_555 1_555
N9_4 C43_6 1_555 1_555
O9_6 C29_6 1_555 1_555
O10_6 C34_6 1_555 1_555
O11_6 C40_6 1_555 1_555
O12_6 C46_6 1_555 1_555
Cd6_6 N4_4 1_555 1_555
C5_6 N1_6 1_555 1_555
C6_6 O1_6 1_555 1_555
C9_6 O2_6 1_555 1_555
C15_6 O3_6 1_555 1_555
C18_6 C19_6 1_555 1_555
C18_6 N4_4 1_555 1_555
C21_6 O4_6 1_555 1_555
C24_6 C25_6 1_555 1_555
C24_6 N13_6 1_555 1_555
C27_6 N6_6 1_555 1_555
C31_6 N6_6 1_555 1_555
C32_6 O9_6 1_555 1_555
C35_6 O10_6 1_555 1_555
C41_6 O11_6 1_555 1_555
C44_6 C45_6 1_555 1_555
C44_6 N9_4 1_555 1_555
C47_6 O12_6 1_555 1_555
C50_6 C51_6 1_555 1_555
C50_6 N13_5 1_555 1_555
N9_4 Cd6_6 1_555 1_555
C12_6 H11_6 1_555 1_555
C26_6 H25_6 1_555 1_555
H26_6 C26_6 1_555 1_555
H27_6 C26_6 1_555 1_555
O5_6 C26_6 1_555 1_555
C38_6 H38_6 1_555 1_555
C52_6 H52_6 1_555 1_555
H53_6 C52_6 1_555 1_555
H54_6 C52_6 1_555 1_555
O13_6 Cd2_6 1_555 1_555
Cd5_2 N7_4 1_555 1_555
Cd4_3 N2_4 1_555 1_555
N14_4 Cd2_6 1_555 1_555
N15_4 Cd2_6 1_555 1_555
C12_6 N2_4 1_555 1_555
Cd2_6 O5_6 1_555 1_555
C38_6 N7_4 1_555 1_555
C52_6 O13_6 1_555 1_555
N5_7 O6_7 1_555 1_555
O7_7 N5_7 1_555 1_555
O8_7 Cd4_3 1_555 1_555
N13_7 Cd4_3 1_555 1_555
N5_7 O8_7 1_555 1_555
C27_7 H28_7 1_555 1_555
C28_7 C27_7 1_555 1_555
H29_7 C28_7 1_555 1_555
C29_7 C28_7 1_555 1_555
C30_7 C29_7 1_555 1_555
H30_7 C30_7 1_555 1_555
C31_7 C30_7 1_555 1_555
H31_7 C31_7 1_555 1_555
C32_7 H32_7 1_555 1_555
H33_7 C32_7 1_555 1_555
C33_7 C32_7 1_555 1_555
C34_7 C33_7 1_555 1_555
H34_7 C34_7 1_555 1_555
H35_7 C34_7 1_555 1_555
C35_7 C36_7 1_555 1_555
C36_7 H36_7 1_555 1_555
C37_7 C36_7 1_555 1_555
C38_7 H38_7 1_555 1_555
C39_7 C35_7 1_555 1_555
H39_7 C39_7 1_555 1_555
C40_7 C33_7 1_555 1_555
H40_7 C40_7 1_555 1_555
H41_7 C40_7 1_555 1_555
C41_7 C42_7 1_555 1_555
C42_7 H42_7 1_555 1_555
C43_7 C42_7 1_555 1_555
H43_7 C43_7 1_555 1_555
C44_7 H44_7 1_555 1_555
C45_7 C41_7 1_555 1_555
H45_7 C45_7 1_555 1_555
C46_7 C33_7 1_555 1_555
H46_7 C46_7 1_555 1_555
H47_7 C46_7 1_555 1_555
C47_7 C48_7 1_555 1_555
C48_7 H48_7 1_555 1_555
C49_7 C48_7 1_555 1_555
H49_7 C49_7 1_555 1_555
C50_7 H50_7 1_555 1_555
C51_7 C47_7 1_555 1_555
H51_7 C51_7 1_555 1_555
C52_7 H52_7 1_555 1_555
H53_7 C52_7 1_555 1_555
H54_7 C52_7 1_555 1_555
N6_7 Cd6_4 1_555 1_555
N11_3 C37_7 1_555 1_555
N8_4 C49_7 1_555 1_555
N15_3 C43_7 1_555 1_555
O9_7 C29_7 1_555 1_555
O10_7 C34_7 1_555 1_555
O11_7 C40_7 1_555 1_555
O12_7 C46_7 1_555 1_555
Cd5_2 N8_4 1_555 1_555
Cd6_4 O5_7 1_555 1_555
C27_7 N6_7 1_555 1_555
C31_7 N6_7 1_555 1_555
C32_7 O9_7 1_555 1_555
C35_7 O10_7 1_555 1_555
C38_7 C39_7 1_555 1_555
C38_7 N11_3 1_555 1_555
C41_7 O11_7 1_555 1_555
C44_7 C45_7 1_555 1_555
C44_7 N15_3 1_555 1_555
C47_7 O12_7 1_555 1_555
C50_7 C51_7 1_555 1_555
C50_7 N8_4 1_555 1_555
C1_7 H1_7 1_555 1_555
C2_7 C1_7 1_555 1_555
H2_7 C2_7 1_555 1_555
C3_7 C2_7 1_555 1_555
C4_7 C3_7 1_555 1_555
H3_7 C4_7 1_555 1_555
C5_7 C4_7 1_555 1_555
H4_7 C5_7 1_555 1_555
C6_7 H5_7 1_555 1_555
H6_7 C6_7 1_555 1_555
C7_7 C6_7 1_555 1_555
C8_7 C7_7 1_555 1_555
H7_7 C8_7 1_555 1_555
H8_7 C8_7 1_555 1_555
C9_7 C10_7 1_555 1_555
C10_7 H9_7 1_555 1_555
C11_7 C10_7 1_555 1_555
H10_7 C11_7 1_555 1_555
C12_7 H11_7 1_555 1_555
C13_7 C9_7 1_555 1_555
H12_7 C13_7 1_555 1_555
C14_7 C7_7 1_555 1_555
H13_7 C14_7 1_555 1_555
H14_7 C14_7 1_555 1_555
C15_7 C16_7 1_555 1_555
C16_7 H15_7 1_555 1_555
C17_7 C16_7 1_555 1_555
H16_7 C17_7 1_555 1_555
C18_7 H17_7 1_555 1_555
C19_7 C15_7 1_555 1_555
H18_7 C19_7 1_555 1_555
C20_7 C7_7 1_555 1_555
H19_7 C20_7 1_555 1_555
H20_7 C20_7 1_555 1_555
C21_7 C22_7 1_555 1_555
C22_7 H21_7 1_555 1_555
C23_7 C22_7 1_555 1_555
H22_7 C23_7 1_555 1_555
C24_7 H23_7 1_555 1_555
C25_7 C21_7 1_555 1_555
H24_7 C25_7 1_555 1_555
C26_7 H25_7 1_555 1_555
H26_7 C26_7 1_555 1_555
H27_7 C26_7 1_555 1_555
Cd4_4 N3_4 1_555 1_555
Cd6_5 N1_7 1_555 1_555
N1_7 C1_7 1_555 1_555
N11_4 C11_7 1_555 1_555
N3_4 C23_7 1_555 1_555
N14_3 C17_7 1_555 1_555
O1_7 C3_7 1_555 1_555
O2_7 C8_7 1_555 1_555
O3_7 C14_7 1_555 1_555
O4_7 C20_7 1_555 1_555
O13_7 Cd6_5 1_555 1_555
N10_7 O14_7 1_555 1_555
O15_7 N10_7 1_555 1_555
O16_7 Cd4_4 1_555 1_555
C5_7 N1_7 1_555 1_555
C6_7 O1_7 1_555 1_555
C9_7 O2_7 1_555 1_555
C12_7 C13_7 1_555 1_555
C12_7 N11_4 1_555 1_555
C15_7 O3_7 1_555 1_555
C18_7 C19_7 1_555 1_555
C18_7 N14_3 1_555 1_555
C21_7 O4_7 1_555 1_555
C24_7 C25_7 1_555 1_555
C24_7 N3_4 1_555 1_555
N10_7 O16_7 1_555 1_555
N5_8 O6_8 1_555 1_555
O7_8 N5_8 1_555 1_555
O8_8 Cd5_2 1_555 1_555
N10_8 O14_8 1_555 1_555
O15_8 N10_8 1_555 1_555
O16_8 Cd5_2 1_555 1_555
N13_8 Cd5_2 1_555 1_555
N5_8 O8_8 1_555 1_555
N10_8 O16_8 1_555 1_555
C1_8 H1_8 1_555 1_555
C2_8 C1_8 1_555 1_555
H2_8 C2_8 1_555 1_555
C3_8 C2_8 1_555 1_555
C4_8 C3_8 1_555 1_555
H3_8 C4_8 1_555 1_555
C5_8 C4_8 1_555 1_555
H4_8 C5_8 1_555 1_555
C6_8 H5_8 1_555 1_555
H6_8 C6_8 1_555 1_555
C7_8 C6_8 1_555 1_555
C8_8 C7_8 1_555 1_555
H7_8 C8_8 1_555 1_555
H8_8 C8_8 1_555 1_555
C9_8 C10_8 1_555 1_555
C10_8 H9_8 1_555 1_555
C11_8 C10_8 1_555 1_555
C12_8 H11_8 1_555 1_555
C13_8 C9_8 1_555 1_555
H12_8 C13_8 1_555 1_555
C14_8 C7_8 1_555 1_555
H13_8 C14_8 1_555 1_555
H14_8 C14_8 1_555 1_555
C15_8 C16_8 1_555 1_555
C16_8 H15_8 1_555 1_555
C17_8 C16_8 1_555 1_555
H16_8 C17_8 1_555 1_555
C18_8 H17_8 1_555 1_555
C19_8 C15_8 1_555 1_555
H18_8 C19_8 1_555 1_555
C20_8 C7_8 1_555 1_555
H19_8 C20_8 1_555 1_555
H20_8 C20_8 1_555 1_555
C21_8 C22_8 1_555 1_555
C22_8 H21_8 1_555 1_555
C23_8 C22_8 1_555 1_555
H22_8 C23_8 1_555 1_555
C24_8 H23_8 1_555 1_555
C25_8 C21_8 1_555 1_555
H24_8 C25_8 1_555 1_555
C26_8 H25_8 1_555 1_555
H26_8 C26_8 1_555 1_555
H27_8 C26_8 1_555 1_555
Cd6_6 N1_8 1_555 1_555
N1_8 C1_8 1_555 1_555
N12_3 C11_8 1_555 1_555
N13_8 C23_8 1_555 1_555
N14_4 C17_8 1_555 1_555
O1_8 C3_8 1_555 1_555
O2_8 C8_8 1_555 1_555
O3_8 C14_8 1_555 1_555
O4_8 C20_8 1_555 1_555
O5_8 C26_8 1_555 1_555
C27_8 H28_8 1_555 1_555
C28_8 C27_8 1_555 1_555
H29_8 C28_8 1_555 1_555
C29_8 C28_8 1_555 1_555
C30_8 C29_8 1_555 1_555
H30_8 C30_8 1_555 1_555
C31_8 C30_8 1_555 1_555
H31_8 C31_8 1_555 1_555
C32_8 H32_8 1_555 1_555
H33_8 C32_8 1_555 1_555
C33_8 C32_8 1_555 1_555
C34_8 C33_8 1_555 1_555
H34_8 C34_8 1_555 1_555
H35_8 C34_8 1_555 1_555
C35_8 C36_8 1_555 1_555
C36_8 H36_8 1_555 1_555
C37_8 C36_8 1_555 1_555
H37_6 C37_8 1_555 1_555
C38_8 H38_8 1_555 1_555
C39_8 C35_8 1_555 1_555
H39_8 C39_8 1_555 1_555
C40_8 C33_8 1_555 1_555
H40_8 C40_8 1_555 1_555
H41_8 C40_8 1_555 1_555
C41_8 C42_8 1_555 1_555
C42_8 H42_8 1_555 1_555
C43_8 C42_8 1_555 1_555
H43_8 C43_8 1_555 1_555
C44_8 H44_8 1_555 1_555
C45_8 C41_8 1_555 1_555
H45_8 C45_8 1_555 1_555
C46_8 C33_8 1_555 1_555
H46_8 C46_8 1_555 1_555
H47_8 C46_8 1_555 1_555
C47_8 C48_8 1_555 1_555
C48_8 H48_8 1_555 1_555
C49_8 C48_8 1_555 1_555
H49_8 C49_8 1_555 1_555
C50_8 H50_8 1_555 1_555
C51_8 C47_8 1_555 1_555
H51_8 C51_8 1_555 1_555
C52_8 H52_8 1_555 1_555
H53_8 C52_8 1_555 1_555
H54_8 C52_8 1_555 1_555
N6_8 Cd6_6 1_555 1_555
N12_4 C37_8 1_555 1_555
N13_7 C49_8 1_555 1_555
N15_4 C43_8 1_555 1_555
O9_8 C29_8 1_555 1_555
O10_8 C34_8 1_555 1_555
O11_8 C40_8 1_555 1_555
O12_8 C46_8 1_555 1_555
O13_8 Cd6_6 1_555 1_555
C5_8 N1_8 1_555 1_555
C6_8 O1_8 1_555 1_555
C9_8 O2_8 1_555 1_555
C12_8 C13_8 1_555 1_555
C12_8 N12_3 1_555 1_555
C15_8 O3_8 1_555 1_555
C18_8 C19_8 1_555 1_555
C18_8 N14_4 1_555 1_555
C21_8 O4_8 1_555 1_555
C24_8 C25_8 1_555 1_555
C24_8 N13_8 1_555 1_555
Cd6_6 O5_8 1_555 1_555
C27_8 N6_8 1_555 1_555
C31_8 N6_8 1_555 1_555
C32_8 O9_8 1_555 1_555
C35_8 O10_8 1_555 1_555
C38_8 C39_8 1_555 1_555
C38_8 N12_4 1_555 1_555
C41_8 O11_8 1_555 1_555
C44_8 C45_8 1_555 1_555
C44_8 N15_4 1_555 1_555
C47_8 O12_8 1_555 1_555
C50_8 C51_8 1_555 1_555
C50_8 N13_7 1_555 1_555
C52_8 O13_8 1_555 1_555

#END
