
###############################################################################
#
# This file contains modified crystal structure data generated from the
# MOF subset of the Cambridge Structural Database (CSD) v543 
# hosted by the Cambridge Crystallographic Data Centre (CCDC).
#
# This work is licensed under the Creative Commons
# Attribution-NonCommercial-ShareAlike 4.0 International License.
# To view a copy of this license, visit
# http://creativecommons.org/licenses/by-nc-sa/4.0/
# or send a letter to
# Creative Commons, PO Box 1866, Mountain View, CA 94042, USA.
#
# CIF created using the CSD Python API on 29 September 2022
# The structure has been converted into the P1 space group
# The structure has a 3D framework
# The original CSD entry VEXPAS is in the triclinic crystal system
# The framework has been calculated to contain at least 10.0% void space
# The void calculation uses a probe of radius 1.32A, grid spacing 0.4
#
###############################################################################

data_VEXPAS
_chemical_formula_moiety         '(C168 H112 N16 O30 S16 Zn8)n'
_symmetry_cell_setting           triclinic
_symmetry_space_group_name_H-M   'P 1'
_symmetry_Int_Tables_number      1
_space_group_name_Hall           'P 1'
loop_
_symmetry_equiv_pos_site_id
_symmetry_equiv_pos_as_xyz
1 x,y,z
_cell_length_a                   14.5894(2)
_cell_length_b                   14.6248(2)
_cell_length_c                   29.1828(4)
_cell_angle_alpha                100.6570(10)
_cell_angle_beta                 101.0100(10)
_cell_angle_gamma                90.2530(10)
_cell_volume                     6001.52
loop_
_atom_site_label
_atom_site_type_symbol
_atom_site_fract_x
_atom_site_fract_y
_atom_site_fract_z
Zn2 Zn 0.05747(5) 0.77018(5) 0.65538(2)
N1 N 0.0017(3) 0.7351(3) 0.58530(14)
C50 C 0.0213(5) 0.7168(7) 0.5052(3)
H17 H 0.0625 0.7211 0.4840
C54 C 0.0530(5) 0.7404(7) 0.5527(2)
H19 H 0.1163 0.7624 0.5635
H45 H 0.0068 0.5408 0.4657
H47 H 0.0476 0.5139 0.4180
O18 O 0.1443(3) 0.8762(3) 0.65146(14)
O20 O 0.1747(3) 0.6916(3) 0.66147(14)
O7 O 0.0739(3) 0.7015(3) 0.75541(15)
C21 C 0.0103(4) 0.6606(4) 0.7224(2)
Zn12 Zn 0.15999(5) 0.81223(5) 0.75618(2)
O14 O 0.0422(3) 0.8896(3) 0.75500(14)
S5 S 0.73606(11) 0.66791(11) 0.25284(5)
S6 S 0.76276(13) 0.42100(12) 0.16460(5)
N5 N 0.8143(3) 0.5103(4) 0.26106(16)
N6 N 0.6916(3) 0.5819(4) 0.15587(16)
C1 C 0.9312(4) 0.6869(4) 0.48757(18)
C2 C 0.8321(4) 0.6183(4) 0.33705(18)
C8 C 0.7988(4) 0.5916(4) 0.28562(19)
C18 C 0.8941(4) 0.6617(4) 0.43529(19)
C23 C 0.9253(5) 0.5826(4) 0.4085(2)
C29 C 0.8941(5) 0.5623(5) 0.3601(2)
H9 H 0.9155 0.5087 0.3420
C30 C 0.6730(4) 0.4730(4) 0.07976(19)
C31 C 0.7031(4) 0.4994(4) 0.13201(19)
C34 C 0.7739(4) 0.5070(4) 0.21486(19)
C44 C 0.7314(4) 0.5842(5) 0.20225(19)
C56 C 0.6659(4) 0.5131(4) 0.00243(19)
C58 C 0.6284(5) 0.3879(5) 0.0582(2)
H21 H 0.6160 0.3448 0.0772
C59 C 0.6014(5) 0.3650(5) 0.0089(2)
C60 C 0.8017(5) 0.6972(5) 0.3641(2)
H22 H 0.7586 0.7358 0.3488
C61 C 0.9142(4) 0.7057(6) 0.5683(2)
H23 H 0.8747 0.7007 0.5902
C62 C 0.8335(6) 0.7198(5) 0.4127(2)
C63 C 0.6881(4) 0.5369(5) 0.05199(19)
H24 H 0.7138 0.5973 0.0668
C69 C 0.8770(5) 0.6817(7) 0.5203(2)
H32 H 0.8132 0.6615 0.5100
H35 H 0.5363 0.2416 0.0120
C78 C 0.9907(9) 0.5176(7) 0.4313(3)
H46 H 0.9601 0.4555 0.4251
C84 C 0.7977(9) 0.8040(8) 0.4410(3)
H54 H 0.8270 0.8102 0.4747
H55 H 0.8132 0.8599 0.4295
H56 H 0.7298 0.7969 0.4374
O17 O 0.9689(3) 0.8684(3) 0.67905(14)
O22 O 0.9922(3) 0.6727(3) 0.68039(14)
Zn1 Zn 0.59638(5) 0.31053(5) 0.75885(2)
Zn3 Zn 0.61900(5) 0.27046(5) 0.65700(2)
S1 S 0.38946(10) 0.57098(10) 0.72245(5)
S2 S 0.83516(10) 0.02021(10) 0.69353(5)
S3 S 0.86642(10) 0.52501(10) 0.69290(5)
S4 S 0.33941(10) 0.06287(10) 0.71828(5)
S7 S 0.51119(16) 0.13892(15) 0.24516(5)
O1 O 0.6893(3) 0.2071(3) 0.75745(14)
O3 O 0.2560(3) 0.7224(3) 0.73622(14)
O4 O 0.4882(3) 0.2146(3) 0.73616(14)
O6 O 0.7254(3) 0.3679(3) 0.67883(15)
O8 O 0.7041(3) 0.1728(3) 0.68077(14)
O9 O 0.5140(3) 0.4115(3) 0.73540(13)
N2 N 0.6009(3) 0.2357(3) 0.58508(14)
N3 N 0.6027(3) 0.3422(3) 0.83008(14)
O11 O 0.7089(3) 0.3941(3) 0.75526(15)
O15 O 0.5314(3) 0.3787(3) 0.65937(14)
O16 O 0.5074(3) 0.1912(3) 0.66064(16)
N7 N 0.4139(4) 0.0019(4) 0.26182(17)
C3 C 0.4649(5) 0.0869(4) 0.4114(2)
C4 C 0.4438(4) 0.0640(4) 0.3623(2)
H1 H 0.3943 0.0197 0.3473
C5 C 0.5182(5) 0.2502(5) 0.55911(19)
H2 H 0.4725 0.2803 0.5752
C6 C 0.4929(4) 0.1038(4) 0.33461(19)
C7 C 0.2396(4) 0.6799(4) 0.6935(2)
C10 C 0.6811(4) 0.3401(5) 0.8610(2)
H3 H 0.7349 0.3186 0.8490
C11 C 0.7997(4) 0.1007(4) 0.7366(2)
C13 C 0.3509(4) 0.0644(4) 0.6323(2)
H5 H 0.3708 0.0786 0.6052
C14 C 0.7459(4) 0.4076(4) 0.7220(2)
C17 C 0.3892(4) 0.1059(4) 0.6778(2)
C19 C 0.7240(4) 0.1652(4) 0.72348(19)
C22 C 0.6255(4) 0.4255(4) 0.98100(19)
C24 C 0.6641(4) 0.1933(4) 0.56196(19)
H7 H 0.7233 0.1821 0.5797
C25 C 0.4957(4) 0.2242(5) 0.5105(2)
H8 H 0.4358 0.2360 0.4937
C26 C 0.4683(4) 0.1764(4) 0.6933(2)
C27 C 0.4232(4) 0.4882(4) 0.67986(19)
C28 C 0.5612(4) 0.1803(4) 0.48610(19)
C33 C 0.4682(5) 0.0754(5) 0.2830(2)
C35 C 0.3062(4) 0.6063(4) 0.6803(2)
C36 C 0.6901(4) 0.3666(5) 0.9090(2)
H10 H 0.7493 0.3650 0.9292
C37 C 0.8494(5) 0.0988(5) 0.7804(2)
H11 H 0.8394 0.1385 0.8085
C38 C 0.4953(4) 0.4210(4) 0.69308(19)
C39 C 0.6466(4) 0.1649(5) 0.51275(19)
H12 H 0.6934 0.1350 0.4975
C40 C 0.3727(4) 0.4891(4) 0.6359(2)
H13 H 0.3827 0.4488 0.6080
C41 C 0.9504(5) 0.5912(4) 0.7351(2)
C43 C 0.5386(4) 0.1526(4) 0.43352(19)
C45 C 0.3043(4) 0.5556(4) 0.6360(2)
H14 H 0.2614 0.5644 0.6085
C48 C 0.5910(4) 0.1911(5) 0.4056(2)
C51 C 0.6146(4) 0.3956(4) 0.92831(18)
C52 C 0.5664(5) 0.1677(5) 0.3566(2)
H18 H 0.6001 0.1956 0.3376
C53 C 0.8259(5) 0.4789(5) 0.7349(2)
C55 C 0.9181(5) 0.0309(5) 0.7797(2)
H20 H 0.9599 0.0203 0.8073
N8 N 0.4385(6) 0.0555(6) 0.1499(2)
C67 C 0.6861(6) 0.5845(5) 0.9738(2)
H26 H 0.7144 0.6412 0.9954
H27 H 0.7292 0.5592 0.9531
H28 H 0.6276 0.5993 0.9542
C68 C 0.4077(6) 0.0421(7) 0.4393(3)
H29 H 0.4307 0.0649 0.4734
H30 H 0.3422 0.0576 0.4308
C71 C 0.9467(7) 0.5759(7) 0.7791(2)
H34 H 0.9890 0.6049 0.8070
C72 C 0.5462(7) 0.2743(5) 0.9868(2)
H36 H 0.4857 0.2874 0.9686
H37 H 0.5811 0.2352 0.9656
C74 C 0.6721(7) 0.2593(7) 0.4275(3)
H38 H 0.6810 0.2689 0.4623
H39 H 0.7289 0.2346 0.4174
H40 H 0.6592 0.3188 0.4172
C75 C 0.4504(6) 0.0596(6) 0.1972(2)
C76 C 0.8743(6) 0.5129(7) 0.7792(3)
H41 H 0.8607 0.4961 0.8072
C80 C 0.3800(6) 0.0145(6) 0.0487(2)
H51 H 0.4216 0.0664 0.0633
C82 C 0.5292(5) 0.3709(8) 0.8486(2)
H52 H 0.4713 0.3732 0.8275
C83 C 0.5322(5) 0.3979(8) 0.8971(2)
H53 H 0.4774 0.4178 0.9085
O21 O 0.2148(3) 0.9122(3) 0.72796(14)
N9 N 0.2068(3) 0.8486(3) 0.82739(14)
S8 S 0.34328(16) 0.91604(16) 0.16633(6)
C9 C 0.9816(4) 0.9073(4) 0.72179(19)
C15 C 0.2026(4) 0.9197(4) 0.68540(19)
C16 C 0.2661(4) 0.9892(4) 0.67382(19)
C20 C 0.2792(4) 0.9986(4) 0.6299(2)
H6 H 0.2438 0.9646 0.6010
C32 C 0.9178(4) 0.9825(4) 0.73510(19)
C46 C 0.2845(6) 0.8844(7) 0.0560(2)
H15 H 0.2614 0.8479 0.0754
C47 C 0.2548(6) 0.8640(6) 0.0064(2)
C66 C 0.4052(6) 0.9946(6) 0.2143(2)
H31 H 0.4129 0.9744 0.4321
C73 C 0.3490(6) 0.9596(7) 0.0767(2)
H48 H 0.1720 0.7532 0.0107
C81 C 0.3821(7) 0.9824(7) 0.1287(2)
C12 C 0.2928(4) 0.8343(5) 0.8489(2)
H4 H 0.3357 0.8077 0.8299
C42 C 0.2613(5) 0.8945(5) 0.9259(2)
C49 C 0.3230(4) 0.8568(5) 0.8979(2)
H16 H 0.3854 0.8462 0.9119
C57 C 0.2903(5) 0.9190(5) 0.9789(2)
C64 C 0.1474(4) 0.8868(5) 0.8549(2)
H25 H 0.0860 0.8987 0.8401
C65 C 0.3521(6) 0.9957(6) 0.9998(2)
C70 C 0.1720(5) 0.9091(5) 0.9034(2)
H33 H 0.1276 0.9347 0.9216
C79 C 0.1879(6) 0.7817(7) 0.9852(2)
H49 H 0.1309 0.8024 0.9669
H50 H 0.2172 0.7358 0.9642
C77 C 0.3834(7) 0.0593(6) 0.9704(3)
H42 H 0.3573 0.0358 0.9367
H43 H 0.3615 0.1220 0.9799
H44 H 0.4518 0.0618 0.9754
N4 N 0.7932(3) 0.1514(3) 0.17261(14)
C12_2 C 0.7072(4) 0.1657(5) 0.1511(2)
H4_2 H 0.6643 0.1923 0.1701
C42_2 C 0.7387(5) 0.1055(5) 0.0741(2)
C49_2 C 0.6770(4) 0.1432(5) 0.1021(2)
H16_2 H 0.6146 0.1538 0.0881
C57_2 C 0.7097(5) 0.0810(5) 0.0211(2)
C64_2 C 0.8526(4) 0.1132(5) 0.1451(2)
H25_2 H 0.9140 0.1013 0.1599
C65_2 C 0.6479(6) 0.0043(6) 0.0002(2)
C70_2 C 0.8280(5) 0.0909(5) 0.0966(2)
H33_2 H 0.8724 0.0653 0.0784
C79_2 C 0.8121(6) 0.2183(7) 0.0148(2)
H49_2 H 0.8691 0.1976 0.0331
H50_2 H 0.7828 0.2642 0.0358
Zn9 Zn 0.84001(5) 0.18777(5) 0.24382(2)
S8_2 S 0.65672(16) 0.08396(16) 0.83367(6)
O2 O 0.0311(3) 0.1316(3) 0.32095(14)
O5 O 0.8557(3) 0.1238(3) 0.34854(14)
O12 O 0.7852(3) 0.0878(3) 0.27204(14)
C9_2 C 0.0184(4) 0.0927(4) 0.27821(19)
C15_2 C 0.7974(4) 0.0803(4) 0.31460(19)
C16_2 C 0.7339(4) 0.0108(4) 0.32618(19)
C20_2 C 0.7208(4) 0.0014(4) 0.3701(2)
H6_2 H 0.7562 0.0354 0.3990
C32_2 C 0.0822(4) 0.0175(4) 0.26490(19)
C46_2 C 0.7155(6) 0.1156(7) 0.9440(2)
H15_2 H 0.7386 0.1521 0.9246
C47_2 C 0.7452(6) 0.1360(6) 0.9936(2)
C66_2 C 0.5948(6) 0.0054(6) 0.7857(2)
H31_2 H 0.5871 0.0256 0.5679
C73_2 C 0.6510(6) 0.0404(7) 0.9233(2)
H48_2 H 0.8280 0.2468 0.9893
C81_2 C 0.6179(7) 0.0176(7) 0.8713(2)
Zn5 Zn 0.94253(5) 0.22982(5) 0.34462(2)
Zn1_2 Zn 0.40362(5) 0.68947(5) 0.24115(2)
Zn3_2 Zn 0.38100(5) 0.72954(5) 0.34300(2)
S1_2 S 0.61054(10) 0.42902(10) 0.27755(5)
S2_2 S 0.16484(10) 0.97979(10) 0.30647(5)
S3_2 S 0.13358(10) 0.47499(10) 0.30710(5)
S4_2 S 0.66059(10) 0.93713(10) 0.28172(5)
S7_2 S 0.48881(16) 0.86108(15) 0.75484(5)
O1_2 O 0.3107(3) 0.7929(3) 0.24255(14)
O3_2 O 0.7440(3) 0.2776(3) 0.26378(14)
O4_2 O 0.5118(3) 0.7854(3) 0.26384(14)
O6_2 O 0.2746(3) 0.6321(3) 0.32117(15)
O8_2 O 0.2959(3) 0.8272(3) 0.31923(14)
O9_2 O 0.4860(3) 0.5885(3) 0.26460(13)
O10 O 0.8253(3) 0.3084(3) 0.33853(14)
N2_2 N 0.3991(3) 0.7643(3) 0.41492(14)
N3_2 N 0.3973(3) 0.6578(3) 0.16992(14)
O11_2 O 0.2911(3) 0.6059(3) 0.24474(15)
O13 O 0.0078(3) 0.3273(3) 0.31961(14)
O15_2 O 0.4686(3) 0.6213(3) 0.34063(14)
O16_2 O 0.4926(3) 0.8088(3) 0.33936(16)
N7_2 N 0.5861(4) 0.9981(4) 0.73818(17)
C3_2 C 0.5351(5) 0.9131(4) 0.5886(2)
C4_2 C 0.5562(4) 0.9360(4) 0.6377(2)
H1_2 H 0.6057 0.9803 0.6527
C5_2 C 0.4818(5) 0.7498(5) 0.44089(19)
H2_2 H 0.5275 0.7197 0.4248
C6_2 C 0.5071(4) 0.8962(4) 0.66539(19)
C7_2 C 0.7604(4) 0.3201(4) 0.3065(2)
C10_2 C 0.3189(4) 0.6599(5) 0.1390(2)
H3_2 H 0.2651 0.6814 0.1510
C11_2 C 0.2003(4) 0.8993(4) 0.2634(2)
C13_2 C 0.6491(4) 0.9356(4) 0.3677(2)
H5_2 H 0.6292 0.9214 0.3948
C14_2 C 0.2541(4) 0.5924(4) 0.2780(2)
C17_2 C 0.6108(4) 0.8941(4) 0.3222(2)
C19_2 C 0.2760(4) 0.8348(4) 0.27652(19)
C22_2 C 0.3745(4) 0.5745(4) 0.01900(19)
C24_2 C 0.3359(4) 0.8067(4) 0.43804(19)
H7_2 H 0.2767 0.8179 0.4203
C25_2 C 0.5043(4) 0.7758(5) 0.4895(2)
H8_2 H 0.5642 0.7640 0.5063
C26_2 C 0.5317(4) 0.8236(4) 0.3067(2)
C27_2 C 0.5768(4) 0.5118(4) 0.32014(19)
C28_2 C 0.4388(4) 0.8197(4) 0.51390(19)
C33_2 C 0.5318(5) 0.9246(5) 0.7170(2)
C35_2 C 0.6938(4) 0.3937(4) 0.3197(2)
C36_2 C 0.3099(4) 0.6334(5) 0.0910(2)
H10_2 H 0.2507 0.6350 0.0708
C37_2 C 0.1506(5) 0.9012(5) 0.2196(2)
H11_2 H 0.1606 0.8615 0.1915
C38_2 C 0.5047(4) 0.5790(4) 0.30692(19)
C39_2 C 0.3534(4) 0.8351(5) 0.48725(19)
H12_2 H 0.3066 0.8650 0.5025
C40_2 C 0.6273(4) 0.5109(4) 0.3641(2)
H13_2 H 0.6173 0.5512 0.3920
C41_2 C 0.0496(5) 0.4088(4) 0.2649(2)
C43_2 C 0.4614(4) 0.8474(4) 0.56648(19)
C45_2 C 0.6957(4) 0.4444(4) 0.3640(2)
H14_2 H 0.7386 0.4356 0.3915
C48_2 C 0.4090(4) 0.8089(5) 0.5944(2)
C51_2 C 0.3854(4) 0.6044(4) 0.07169(18)
C52_2 C 0.4336(5) 0.8323(5) 0.6434(2)
H18_2 H 0.3999 0.8044 0.6624
C53_2 C 0.1741(5) 0.5211(5) 0.2651(2)
C55_2 C 0.0819(5) 0.9691(5) 0.2203(2)
H20_2 H 0.0401 0.9797 0.1927
N8_2 N 0.5615(6) 0.9445(6) 0.8501(2)
C67_2 C 0.3139(6) 0.4155(5) 0.0262(2)
H26_2 H 0.2856 0.3588 0.0046
H27_2 H 0.2708 0.4408 0.0469
H28_2 H 0.3724 0.4007 0.0458
C68_2 C 0.5923(6) 0.9579(7) 0.5607(3)
H29_2 H 0.5693 0.9351 0.5266
H30_2 H 0.6578 0.9424 0.5692
C71_2 C 0.0533(7) 0.4241(7) 0.2209(2)
H34_2 H 0.0110 0.3951 0.1930
C72_2 C 0.4538(7) 0.7257(5) 0.0132(2)
H36_2 H 0.5143 0.7126 0.0314
H37_2 H 0.4189 0.7648 0.0344
C74_2 C 0.3279(7) 0.7407(7) 0.5725(3)
H38_2 H 0.3190 0.7311 0.5377
H39_2 H 0.2711 0.7654 0.5826
H40_2 H 0.3408 0.6812 0.5828
C75_2 C 0.5496(6) 0.9404(6) 0.8028(2)
C76_2 C 0.1257(6) 0.4871(7) 0.2208(3)
H41_2 H 0.1393 0.5039 0.1928
C80_2 C 0.6200(6) 0.9855(6) 0.9513(2)
H51_2 H 0.5784 0.9336 0.9367
C82_2 C 0.4708(5) 0.6291(8) 0.1514(2)
H52_2 H 0.5287 0.6268 0.1725
C83_2 C 0.4678(5) 0.6021(8) 0.1029(2)
H53_2 H 0.5226 0.5822 0.0915
O19 O 0.9261(3) 0.2985(3) 0.24459(15)
O23 O 0.9578(3) 0.1104(3) 0.24500(14)
S5_2 S 0.26394(11) 0.33209(11) 0.74716(5)
S6_2 S 0.23724(13) 0.57900(12) 0.83540(5)
N5_2 N 0.1857(3) 0.4897(4) 0.73894(16)
N6_2 N 0.3084(3) 0.4181(4) 0.84413(16)
C1_2 C 0.0688(4) 0.3131(4) 0.51243(18)
C2_2 C 0.1679(4) 0.3817(4) 0.66295(18)
C8_2 C 0.2012(4) 0.4084(4) 0.71438(19)
C18_2 C 0.1059(4) 0.3383(4) 0.56471(19)
C23_2 C 0.0747(5) 0.4174(4) 0.5915(2)
C29_2 C 0.1059(5) 0.4377(5) 0.6399(2)
H9_2 H 0.0845 0.4913 0.6580
C30_2 C 0.3270(4) 0.5270(4) 0.92024(19)
C31_2 C 0.2969(4) 0.5006(4) 0.86799(19)
C34_2 C 0.2261(4) 0.4930(4) 0.78514(19)
C44_2 C 0.2686(4) 0.4158(5) 0.79775(19)
C56_2 C 0.3341(4) 0.4869(4) 0.99757(19)
C58_2 C 0.3716(5) 0.6121(5) 0.9418(2)
H21_2 H 0.3840 0.6552 0.9228
C59_2 C 0.3986(5) 0.6350(5) 0.9911(2)
C60_2 C 0.1983(5) 0.3028(5) 0.6359(2)
H22_2 H 0.2414 0.2642 0.6512
C61_2 C 0.0858(4) 0.2943(6) 0.4317(2)
H23_2 H 0.1253 0.2993 0.4098
C62_2 C 0.1665(6) 0.2802(5) 0.5873(2)
C63_2 C 0.3119(4) 0.4631(5) 0.94801(19)
H24_2 H 0.2862 0.4027 0.9332
C69_2 C 0.1230(5) 0.3183(7) 0.4797(2)
H32_2 H 0.1868 0.3385 0.4900
H35_2 H 0.4637 0.7584 0.9880
C78_2 C 0.0093(9) 0.4824(7) 0.5687(3)
H46_2 H 0.0399 0.5445 0.5749
C84_2 C 0.2023(9) 0.1960(8) 0.5590(3)
H54_2 H 0.1730 0.1898 0.5253
H55_2 H 0.1868 0.1401 0.5705
H56_2 H 0.2702 0.2031 0.5626
C21_2 C 0.9897(4) 0.3394(4) 0.2776(2)
N1_2 N 0.9983(3) 0.2649(3) 0.41470(14)
C50_2 C 0.9787(5) 0.2832(7) 0.4948(3)
H17_2 H 0.9375 0.2789 0.5160
C54_2 C 0.9470(5) 0.2596(7) 0.4473(2)
H19_2 H 0.8837 0.2376 0.4365
H45_2 H 0.9932 0.4592 0.5343
H47_2 H 0.9524 0.4861 0.5820
C77_2 C 0.6166(7) 0.9407(6) 0.0296(3)
H42_2 H 0.6427 0.9642 0.0633
H43_2 H 0.6385 0.8780 0.0201
H44_2 H 0.5482 0.9382 0.0246
loop_
_geom_bond_atom_site_label_1
_geom_bond_atom_site_label_2
_geom_bond_site_symmetry_1
_geom_bond_site_symmetry_2
Zn2 N1 1_555 1_555
N1 C54 1_555 1_555
H17 C50 1_555 1_555
C54 C50 1_555 1_555
H19 C54 1_555 1_555
O18 Zn2 1_555 1_555
O20 Zn2 1_555 1_555
O7 C21 1_555 1_555
Zn12 O7 1_555 1_555
Zn12 O14 1_555 1_555
S5 C8 1_555 1_555
S6 C31 1_555 1_555
N5 C8 1_555 1_555
N6 C31 1_555 1_555
C1 C18 1_555 1_555
C2 C8 1_555 1_555
C18 C23 1_555 1_555
C23 C29 1_555 1_555
C29 C2 1_555 1_555
H9 C29 1_555 1_555
C30 C31 1_555 1_555
C34 S6 1_555 1_555
C44 S5 1_555 1_555
C58 C30 1_555 1_555
H21 C58 1_555 1_555
C60 C2 1_555 1_555
H22 C60 1_555 1_555
H23 C61 1_555 1_555
C62 C18 1_555 1_555
C63 C30 1_555 1_555
H24 C63 1_555 1_555
C69 C1 1_555 1_555
H32 C69 1_555 1_555
C78 C23 1_555 1_555
H46 C78 1_555 1_555
C84 C62 1_555 1_555
H54 C84 1_555 1_555
H55 C84 1_555 1_555
H56 C84 1_555 1_555
N5 C34 1_555 1_555
N6 C44 1_555 1_555
C34 C44 1_555 1_555
C56 C63 1_555 1_555
C58 C59 1_555 1_555
C60 C62 1_555 1_555
C61 C69 1_555 1_555
Zn1 O1 1_555 1_555
Zn3 O6 1_555 1_555
Zn12 O3 1_555 1_555
S1 C27 1_555 1_555
S2 C11 1_555 1_555
S3 C41 1_555 1_555
S7 C33 1_555 1_555
O1 C19 1_555 1_555
O3 C7 1_555 1_555
O4 Zn1 1_555 1_555
O6 C14 1_555 1_555
O8 Zn3 1_555 1_555
O9 Zn1 1_555 1_555
O20 C7 1_555 1_555
N2 Zn3 1_555 1_555
N3 Zn1 1_555 1_555
O11 Zn1 1_555 1_555
O15 Zn3 1_555 1_555
O16 Zn3 1_555 1_555
N7 C33 1_555 1_555
C3 C4 1_555 1_555
C4 H1 1_555 1_555
C5 N2 1_555 1_555
H2 C5 1_555 1_555
C6 C4 1_555 1_555
C7 C35 1_555 1_555
C10 N3 1_555 1_555
H3 C10 1_555 1_555
C11 C19 1_555 1_555
C13 H5 1_555 1_555
C14 O11 1_555 1_555
C17 S4 1_555 1_555
C19 O8 1_555 1_555
C22 C51 1_555 1_555
C24 N2 1_555 1_555
H7 C24 1_555 1_555
C25 C5 1_555 1_555
H8 C25 1_555 1_555
C26 O4 1_555 1_555
C27 C38 1_555 1_555
C28 C25 1_555 1_555
C33 C6 1_555 1_555
C35 S1 1_555 1_555
C36 C10 1_555 1_555
H10 C36 1_555 1_555
C37 C11 1_555 1_555
H11 C37 1_555 1_555
C38 O9 1_555 1_555
C39 C24 1_555 1_555
H12 C39 1_555 1_555
C40 C27 1_555 1_555
H13 C40 1_555 1_555
C41 C71 1_555 1_555
C43 C3 1_555 1_555
C45 C35 1_555 1_555
H14 C45 1_555 1_555
C48 C43 1_555 1_555
C51 C36 1_555 1_555
C52 C6 1_555 1_555
H18 C52 1_555 1_555
C53 S3 1_555 1_555
H20 C55 1_555 1_555
N8 C75 1_555 1_555
H26 C67 1_555 1_555
H27 C67 1_555 1_555
H28 C67 1_555 1_555
C68 C3 1_555 1_555
H29 C68 1_555 1_555
H30 C68 1_555 1_555
C71 H34 1_555 1_555
H36 C72 1_555 1_555
H37 C72 1_555 1_555
C74 C48 1_555 1_555
H38 C74 1_555 1_555
H39 C74 1_555 1_555
H40 C74 1_555 1_555
C75 S7 1_555 1_555
C76 C53 1_555 1_555
H41 C76 1_555 1_555
H51 C80 1_555 1_555
C82 N3 1_555 1_555
H52 C82 1_555 1_555
C83 C51 1_555 1_555
H53 C83 1_555 1_555
O21 Zn12 1_555 1_555
N9 Zn12 1_555 1_555
O15 C38 1_555 1_555
O16 C26 1_555 1_555
C13 C17 1_555 1_555
C14 C53 1_555 1_555
C17 C26 1_555 1_555
C28 C39 1_555 1_555
C28 C43 1_555 1_555
C37 C55 1_555 1_555
C40 C45 1_555 1_555
C48 C52 1_555 1_555
C71 C76 1_555 1_555
C82 C83 1_555 1_555
S8 C66 1_555 1_555
O17 C9 1_555 1_555
O18 C15 1_555 1_555
O21 C15 1_555 1_555
C9 C32 1_555 1_555
C15 C16 1_555 1_555
C16 C20 1_555 1_555
H6 C20 1_555 1_555
C46 H15 1_555 1_555
C47 C46 1_555 1_555
C73 C46 1_555 1_555
C81 S8 1_555 1_555
C73 C81 1_555 1_555
N9 C12 1_555 1_555
C12 H4 1_555 1_555
C42 C49 1_555 1_555
C49 C12 1_555 1_555
H16 C49 1_555 1_555
C57 C42 1_555 1_555
C64 N9 1_555 1_555
H25 C64 1_555 1_555
C65 C57 1_555 1_555
C70 C42 1_555 1_555
H33 C70 1_555 1_555
H49 C79 1_555 1_555
H50 C79 1_555 1_555
C64 C70 1_555 1_555
H42 C77 1_555 1_555
H43 C77 1_555 1_555
H44 C77 1_555 1_555
N4 C12_2 1_555 1_555
C12_2 H4_2 1_555 1_555
C42_2 C49_2 1_555 1_555
C49_2 C12_2 1_555 1_555
H16_2 C49_2 1_555 1_555
C57_2 C42_2 1_555 1_555
C64_2 N4 1_555 1_555
H25_2 C64_2 1_555 1_555
C65_2 C57_2 1_555 1_555
C70_2 C42_2 1_555 1_555
H33_2 C70_2 1_555 1_555
H49_2 C79_2 1_555 1_555
H50_2 C79_2 1_555 1_555
Zn9 N4 1_555 1_555
C64_2 C70_2 1_555 1_555
S8_2 C66_2 1_555 1_555
O2 C9_2 1_555 1_555
O5 C15_2 1_555 1_555
O12 C15_2 1_555 1_555
C9_2 C32_2 1_555 1_555
C15_2 C16_2 1_555 1_555
C16_2 C20_2 1_555 1_555
H6_2 C20_2 1_555 1_555
C46_2 H15_2 1_555 1_555
C47_2 C46_2 1_555 1_555
C73_2 C46_2 1_555 1_555
C81_2 S8_2 1_555 1_555
Zn5 O5 1_555 1_555
Zn9 O12 1_555 1_555
C73_2 C81_2 1_555 1_555
Zn1_2 O1_2 1_555 1_555
Zn3_2 O6_2 1_555 1_555
Zn9 O3_2 1_555 1_555
S1_2 C27_2 1_555 1_555
S2_2 C11_2 1_555 1_555
S3_2 C41_2 1_555 1_555
S7_2 C33_2 1_555 1_555
O1_2 C19_2 1_555 1_555
O3_2 C7_2 1_555 1_555
O4_2 Zn1_2 1_555 1_555
O6_2 C14_2 1_555 1_555
O8_2 Zn3_2 1_555 1_555
O9_2 Zn1_2 1_555 1_555
O10 C7_2 1_555 1_555
N2_2 Zn3_2 1_555 1_555
N3_2 Zn1_2 1_555 1_555
O11_2 Zn1_2 1_555 1_555
O15_2 Zn3_2 1_555 1_555
O16_2 Zn3_2 1_555 1_555
N7_2 C33_2 1_555 1_555
C3_2 C4_2 1_555 1_555
C4_2 H1_2 1_555 1_555
C5_2 N2_2 1_555 1_555
H2_2 C5_2 1_555 1_555
C6_2 C4_2 1_555 1_555
C7_2 C35_2 1_555 1_555
C10_2 N3_2 1_555 1_555
H3_2 C10_2 1_555 1_555
C11_2 C19_2 1_555 1_555
C13_2 H5_2 1_555 1_555
C14_2 O11_2 1_555 1_555
C17_2 S4_2 1_555 1_555
C19_2 O8_2 1_555 1_555
C22_2 C51_2 1_555 1_555
C24_2 N2_2 1_555 1_555
H7_2 C24_2 1_555 1_555
C25_2 C5_2 1_555 1_555
H8_2 C25_2 1_555 1_555
C26_2 O4_2 1_555 1_555
C27_2 C38_2 1_555 1_555
C28_2 C25_2 1_555 1_555
C33_2 C6_2 1_555 1_555
C35_2 S1_2 1_555 1_555
C36_2 C10_2 1_555 1_555
H10_2 C36_2 1_555 1_555
C37_2 C11_2 1_555 1_555
H11_2 C37_2 1_555 1_555
C38_2 O9_2 1_555 1_555
C39_2 C24_2 1_555 1_555
H12_2 C39_2 1_555 1_555
C40_2 C27_2 1_555 1_555
H13_2 C40_2 1_555 1_555
C41_2 C71_2 1_555 1_555
C43_2 C3_2 1_555 1_555
C45_2 C35_2 1_555 1_555
H14_2 C45_2 1_555 1_555
C48_2 C43_2 1_555 1_555
C51_2 C36_2 1_555 1_555
C52_2 C6_2 1_555 1_555
H18_2 C52_2 1_555 1_555
C53_2 S3_2 1_555 1_555
H20_2 C55_2 1_555 1_555
N8_2 C75_2 1_555 1_555
H26_2 C67_2 1_555 1_555
H27_2 C67_2 1_555 1_555
H28_2 C67_2 1_555 1_555
C68_2 C3_2 1_555 1_555
H29_2 C68_2 1_555 1_555
H30_2 C68_2 1_555 1_555
C71_2 H34_2 1_555 1_555
H36_2 C72_2 1_555 1_555
H37_2 C72_2 1_555 1_555
C74_2 C48_2 1_555 1_555
H38_2 C74_2 1_555 1_555
H39_2 C74_2 1_555 1_555
H40_2 C74_2 1_555 1_555
C75_2 S7_2 1_555 1_555
C76_2 C53_2 1_555 1_555
H41_2 C76_2 1_555 1_555
H51_2 C80_2 1_555 1_555
C82_2 N3_2 1_555 1_555
H52_2 C82_2 1_555 1_555
C83_2 C51_2 1_555 1_555
H53_2 C83_2 1_555 1_555
Zn5 O10 1_555 1_555
O19 Zn9 1_555 1_555
O23 Zn9 1_555 1_555
O15_2 C38_2 1_555 1_555
O16_2 C26_2 1_555 1_555
C13_2 C17_2 1_555 1_555
C14_2 C53_2 1_555 1_555
C17_2 C26_2 1_555 1_555
C28_2 C39_2 1_555 1_555
C28_2 C43_2 1_555 1_555
C37_2 C55_2 1_555 1_555
C40_2 C45_2 1_555 1_555
C48_2 C52_2 1_555 1_555
C71_2 C76_2 1_555 1_555
C82_2 C83_2 1_555 1_555
S5_2 C8_2 1_555 1_555
S6_2 C31_2 1_555 1_555
N5_2 C8_2 1_555 1_555
N6_2 C31_2 1_555 1_555
C1_2 C18_2 1_555 1_555
C2_2 C8_2 1_555 1_555
C18_2 C23_2 1_555 1_555
C23_2 C29_2 1_555 1_555
C29_2 C2_2 1_555 1_555
H9_2 C29_2 1_555 1_555
C30_2 C31_2 1_555 1_555
C34_2 S6_2 1_555 1_555
C44_2 S5_2 1_555 1_555
C58_2 C30_2 1_555 1_555
H21_2 C58_2 1_555 1_555
C60_2 C2_2 1_555 1_555
H22_2 C60_2 1_555 1_555
H23_2 C61_2 1_555 1_555
C62_2 C18_2 1_555 1_555
C63_2 C30_2 1_555 1_555
H24_2 C63_2 1_555 1_555
C69_2 C1_2 1_555 1_555
H32_2 C69_2 1_555 1_555
C78_2 C23_2 1_555 1_555
H46_2 C78_2 1_555 1_555
C84_2 C62_2 1_555 1_555
H54_2 C84_2 1_555 1_555
H55_2 C84_2 1_555 1_555
H56_2 C84_2 1_555 1_555
N5_2 C34_2 1_555 1_555
N6_2 C44_2 1_555 1_555
C34_2 C44_2 1_555 1_555
C56_2 C63_2 1_555 1_555
C58_2 C59_2 1_555 1_555
C60_2 C62_2 1_555 1_555
C61_2 C69_2 1_555 1_555
O19 C21_2 1_555 1_555
Zn5 N1_2 1_555 1_555
N1_2 C54_2 1_555 1_555
H17_2 C50_2 1_555 1_555
C54_2 C50_2 1_555 1_555
H19_2 C54_2 1_555 1_555
H42_2 C77_2 1_555 1_555
H43_2 C77_2 1_555 1_555
H44_2 C77_2 1_555 1_555

#END
