
###############################################################################
#
# This file contains modified crystal structure data generated from the
# MOF subset of the Cambridge Structural Database (CSD) v543 
# hosted by the Cambridge Crystallographic Data Centre (CCDC).
#
# This work is licensed under the Creative Commons
# Attribution-NonCommercial-ShareAlike 4.0 International License.
# To view a copy of this license, visit
# http://creativecommons.org/licenses/by-nc-sa/4.0/
# or send a letter to
# Creative Commons, PO Box 1866, Mountain View, CA 94042, USA.
#
# CIF created using the CSD Python API on 29 September 2022
# The structure has been converted into the P1 space group
# The structure has a 3D framework
# The original CSD entry VEYVEC is in the orthorhombic crystal system
# The framework has been calculated to contain at least 10.0% void space
# The void calculation uses a probe of radius 1.32A, grid spacing 0.4
# The framework is charged, counterions have been retained in the structure
#
###############################################################################

data_VEYVEC
_chemical_formula_moiety         '(C176 H176 Co28 N16 O160 12+)n'
_symmetry_cell_setting           triclinic
_symmetry_space_group_name_H-M   'P 1'
_symmetry_Int_Tables_number      1
_space_group_name_Hall           'P 1'
loop_
_symmetry_equiv_pos_site_id
_symmetry_equiv_pos_as_xyz
1 x,y,z
_cell_length_a                   32.197(4)
_cell_length_b                   15.2214(16)
_cell_length_c                   11.3816(12)
_cell_angle_alpha                90
_cell_angle_beta                 90
_cell_angle_gamma                90
_cell_volume                     5577.93
loop_
_atom_site_label
_atom_site_type_symbol
_atom_site_fract_x
_atom_site_fract_y
_atom_site_fract_z
Co5 Co 0.380951(16) 0.0000 0.5000
Co1 Co 0.0000 0.36101(3) 0.20680(4)
Co2 Co 0.119049(16) 0.5000 0.5000
O1 O 0.06414(6) 0.34757(12) 0.22601(16)
O2 O 0.13148(6) 0.32215(12) 0.20133(17)
H1 H 0.1269 0.2834 0.2523
O3 O 0.11860(6) 0.50672(12) 0.31845(16)
O4 O 0.06331(6) 0.58976(13) 0.27256(16)
O7 O 0.0000 0.4235(2) 0.3637(3)
O8 O -0.0000 0.22947(19) 0.2701(3)
O9 O -0.0000 0.3194(2) 0.0381(3)
O10 O -0.0000 0.4908(2) 0.1324(3)
O11 O 0.06967(6) 0.59340(13) 0.50443(18)
H2 H 0.0755(11) 0.640(2) 0.526(3)
H3 H 0.0640(11) 0.595(2) 0.441(3)
N1 N 0.16633(7) 0.59812(16) 0.5075(2)
C1 C 0.09754(8) 0.36216(17) 0.1766(2)
C2 C 0.09381(8) 0.54166(17) 0.2473(2)
C4 C 0.10048(8) 0.43284(17) 0.0835(2)
C5 C 0.09992(8) 0.52030(17) 0.1191(2)
C7 C 0.16944(11) 0.6588(2) 0.4268(4)
H4 H 0.1485 0.6616 0.3682
C8 C 0.20142(11) 0.7193(3) 0.4216(4)
H5 H 0.2016 0.7622 0.3610
C9 C 0.23255(9) 0.7182(2) 0.5018(3)
C10 C 0.22813(14) 0.6571(3) 0.5892(3)
H6 H 0.2481 0.6545 0.6507
C11 C 0.19528(13) 0.5993(3) 0.5893(3)
H7 H 0.1934 0.5581 0.6517
H10 H 0.0204(16) 0.298(3) 0.008(4)
O16 O 0.12962(6) 0.69938(12) 0.15541(17)
O17 O 0.07799(6) 0.73512(12) 0.03169(17)
C14 C 0.10282(8) 0.68245(17) 0.0776(2)
C17 C 0.10138(8) 0.58796(17) 0.0363(2)
H13 H 0.0199(14) 0.422(3) 0.405(4)
H14 H 0.0198(15) 0.202(3) 0.261(4)
H16 H 0.0172(15) 0.517(3) 0.159(5)
N2 N 0.33367(7) 0.90188(16) 0.4925(2)
C18 C 0.33056(11) 0.8412(2) 0.5732(4)
H17 H 0.3515 0.8384 0.6318
C19 C 0.29858(11) 0.7807(3) 0.5784(4)
H18 H 0.2984 0.7378 0.6390
C20 C 0.26745(9) 0.7818(2) 0.4982(3)
C21 C 0.27187(14) 0.8429(3) 0.4108(3)
H19 H 0.2519 0.8455 0.3493
C22 C 0.30472(13) 0.9007(3) 0.4107(3)
H20 H 0.3066 0.9419 0.3483
O18 O 0.06967(6) 0.40660(13) 0.49557(18)
H21 H 0.0755(11) 0.360(2) 0.474(3)
H22 H 0.0640(11) 0.405(2) 0.559(3)
Co5_2 Co 0.380951(16) 1.0000 0.5000
O20 O 0.11860(6) 0.49328(12) 0.68155(16)
N3 N 0.16633(7) 0.40188(16) 0.4925(2)
O5 O 0.12962(6) 0.30062(12) 0.84459(17)
O6 O 0.07799(6) 0.26488(12) 0.96831(17)
C3 C 0.10282(8) 0.31755(17) 0.9224(2)
C6 C 0.10138(8) 0.41204(17) 0.9637(2)
O12 O 0.06414(6) 0.65243(12) 0.77399(16)
O13 O 0.13148(6) 0.67785(12) 0.79867(17)
H12 H 0.1269 0.7166 0.7477
O15 O 0.06331(6) 0.41024(13) 0.72744(16)
C12 C 0.09754(8) 0.63784(17) 0.8234(2)
C13 C 0.09381(8) 0.45834(17) 0.7527(2)
C15 C 0.10048(8) 0.56716(17) 0.9165(2)
C16 C 0.09992(8) 0.47970(17) 0.8809(2)
Co3 Co -0.0000 0.63899(3) 0.79320(4)
Co1_2 Co 1.0000 0.36101(3) 0.20680(4)
O7_2 O 1.0000 0.4235(2) 0.3637(3)
O8_2 O 1.0000 0.22947(19) 0.2701(3)
O9_2 O 1.0000 0.3194(2) 0.0381(3)
O10_2 O 1.0000 0.4908(2) 0.1324(3)
H8 H 0.9801(14) 0.422(3) 0.405(4)
H9 H 0.9802(15) 0.202(3) 0.261(4)
H11 H 0.9828(15) 0.517(3) 0.159(5)
H15 H 0.9796(16) 0.298(3) 0.008(4)
O19 O 0.93586(6) 0.34757(12) 0.22601(16)
Co3_2 Co 1.0000 0.63899(3) 0.79320(4)
O7_3 O 0.0000 0.5765(2) 0.6363(3)
O8_3 O -0.0000 0.77053(19) 0.7299(3)
O9_3 O 0.0000 0.6806(2) 0.9619(3)
O10_3 O -0.0000 0.5092(2) 0.8676(3)
C7_2 C 0.16944(11) 0.3412(2) 0.5732(4)
H4_2 H 0.1485 0.3384 0.6318
C8_2 C 0.20142(11) 0.2807(3) 0.5784(4)
H5_2 H 0.2016 0.2378 0.6390
C9_2 C 0.23255(9) 0.2818(2) 0.4982(3)
C10_2 C 0.22813(14) 0.3429(3) 0.4108(3)
H6_2 H 0.2481 0.3455 0.3493
C11_2 C 0.19528(13) 0.4007(3) 0.4107(3)
H7_2 H 0.1934 0.4419 0.3483
H10_2 H 0.0204(16) 0.702(3) 0.992(4)
H13_2 H 0.0199(14) 0.578(3) 0.595(4)
H14_2 H 0.0198(15) 0.798(3) 0.739(4)
H16_2 H 0.0172(15) 0.483(3) 0.841(5)
N2_2 N 0.33367(7) 0.09812(16) 0.5075(2)
C18_2 C 0.33056(11) 0.1588(2) 0.4268(4)
H17_2 H 0.3515 0.1616 0.3682
C19_2 C 0.29858(11) 0.2193(3) 0.4216(4)
H18_2 H 0.2984 0.2622 0.3610
C20_2 C 0.26745(9) 0.2182(2) 0.5018(3)
C21_2 C 0.27187(14) 0.1571(3) 0.5892(3)
H19_2 H 0.2519 0.1545 0.6507
C22_2 C 0.30472(13) 0.0993(3) 0.5893(3)
H20_2 H 0.3066 0.0581 0.6517
O7_4 O 1.0000 0.5765(2) 0.6363(3)
O8_4 O 1.0000 0.77053(19) 0.7299(3)
O9_4 O 1.0000 0.6806(2) 0.9619(3)
O10_4 O 1.0000 0.5092(2) 0.8676(3)
H8_2 H 0.9801(14) 0.578(3) 0.595(4)
H9_2 H 0.9802(15) 0.798(3) 0.739(4)
H11_2 H 0.9828(15) 0.483(3) 0.841(5)
H15_2 H 0.9796(16) 0.702(3) 0.992(4)
O19_2 O 0.93586(6) 0.65243(12) 0.77399(16)
Co2_2 Co 0.619049(16) 0.0000 0.5000
O3_2 O 0.61860(6) 0.00672(12) 0.31845(16)
O4_2 O 0.56331(6) 0.08976(13) 0.27256(16)
O11_2 O 0.56967(6) 0.09340(13) 0.50443(18)
H2_2 H 0.5755(11) 0.140(2) 0.526(3)
H3_2 H 0.5640(11) 0.095(2) 0.441(3)
N1_2 N 0.66633(7) 0.09812(16) 0.5075(2)
C2_2 C 0.59381(8) 0.04166(17) 0.2473(2)
C5_2 C 0.59992(8) 0.02030(17) 0.1191(2)
C7_3 C 0.66944(11) 0.1588(2) 0.4268(4)
H4_3 H 0.6485 0.1616 0.3682
C8_3 C 0.70142(11) 0.2193(3) 0.4216(4)
H5_3 H 0.7016 0.2622 0.3610
C9_3 C 0.73255(9) 0.2182(2) 0.5018(3)
C10_3 C 0.72813(14) 0.1571(3) 0.5892(3)
H6_3 H 0.7481 0.1545 0.6507
C11_3 C 0.69528(13) 0.0993(3) 0.5893(3)
H7_3 H 0.6934 0.0581 0.6517
H11_3 H 0.4828(15) 0.017(3) 0.159(5)
O16_2 O 0.62962(6) 0.19938(12) 0.15541(17)
O17_2 O 0.57799(6) 0.23512(12) 0.03169(17)
C14_2 C 0.60282(8) 0.18245(17) 0.0776(2)
C17_2 C 0.60138(8) 0.08796(17) 0.0363(2)
H16_3 H 0.5172(15) 0.017(3) 0.159(5)
N2_3 N 0.83367(7) 0.40188(16) 0.4925(2)
C18_3 C 0.83056(11) 0.3412(2) 0.5732(4)
H17_3 H 0.8515 0.3384 0.6318
C19_3 C 0.79858(11) 0.2807(3) 0.5784(4)
H18_3 H 0.7984 0.2378 0.6390
C20_3 C 0.76745(9) 0.2818(2) 0.4982(3)
C21_3 C 0.77187(14) 0.3429(3) 0.4108(3)
H19_3 H 0.7519 0.3455 0.3493
C22_3 C 0.80472(13) 0.4007(3) 0.4107(3)
H20_3 H 0.8066 0.4419 0.3483
Co5_3 Co 0.880951(16) 0.5000 0.5000
O12_2 O 0.56414(6) 0.15243(12) 0.77399(16)
O13_2 O 0.63148(6) 0.17785(12) 0.79867(17)
H12_2 H 0.6269 0.2166 0.7477
C12_2 C 0.59754(8) 0.13784(17) 0.8234(2)
C15_2 C 0.60048(8) 0.06716(17) 0.9165(2)
Co3_3 Co 0.5000 0.13899(3) 0.79320(4)
Co1_3 Co 0.5000 0.86101(3) 0.20680(4)
Co2_3 Co 0.619049(16) 1.0000 0.5000
O1_2 O 0.56414(6) 0.84757(12) 0.22601(16)
O2_2 O 0.63148(6) 0.82215(12) 0.20133(17)
H1_2 H 0.6269 0.7834 0.2523
O7_5 O 0.5000 0.9235(2) 0.3637(3)
O8_5 O 0.5000 0.72947(19) 0.2701(3)
O9_5 O 0.5000 0.8194(2) 0.0381(3)
O10_5 O 0.5000 0.9908(2) 0.1324(3)
C1_2 C 0.59754(8) 0.86216(17) 0.1766(2)
C4_2 C 0.60048(8) 0.93284(17) 0.0835(2)
H8_3 H 0.4801(14) 0.922(3) 0.405(4)
H9_3 H 0.4802(15) 0.702(3) 0.261(4)
H10_3 H 0.5204(16) 0.798(3) 0.008(4)
H13_3 H 0.5199(14) 0.922(3) 0.405(4)
H14_3 H 0.5198(15) 0.702(3) 0.261(4)
H15_3 H 0.4796(16) 0.798(3) 0.008(4)
O18_2 O 0.56967(6) 0.90660(13) 0.49557(18)
H21_2 H 0.5755(11) 0.860(2) 0.474(3)
H22_2 H 0.5640(11) 0.905(2) 0.559(3)
O19_3 O 0.43586(6) 0.84757(12) 0.22601(16)
O20_2 O 0.61860(6) 0.99328(12) 0.68155(16)
N3_2 N 0.66633(7) 0.90188(16) 0.4925(2)
O5_2 O 0.62962(6) 0.80062(12) 0.84459(17)
O6_2 O 0.57799(6) 0.76488(12) 0.96831(17)
C3_2 C 0.60282(8) 0.81755(17) 0.9224(2)
C6_2 C 0.60138(8) 0.91204(17) 0.9637(2)
O15_2 O 0.56331(6) 0.91024(13) 0.72744(16)
C13_2 C 0.59381(8) 0.95834(17) 0.7527(2)
C16_2 C 0.59992(8) 0.97970(17) 0.8809(2)
O7_6 O 0.5000 0.0765(2) 0.6363(3)
O8_6 O 0.5000 0.27053(19) 0.7299(3)
O9_6 O 0.5000 0.1806(2) 0.9619(3)
O10_6 O 0.5000 0.0092(2) 0.8676(3)
H8_4 H 0.4801(14) 0.078(3) 0.595(4)
H9_4 H 0.4802(15) 0.298(3) 0.739(4)
H10_4 H 0.5204(16) 0.202(3) 0.992(4)
H13_4 H 0.5199(14) 0.078(3) 0.595(4)
H14_4 H 0.5198(15) 0.298(3) 0.739(4)
H15_4 H 0.4796(16) 0.202(3) 0.992(4)
O19_4 O 0.43586(6) 0.15243(12) 0.77399(16)
C7_4 C 0.66944(11) 0.8412(2) 0.5732(4)
H4_4 H 0.6485 0.8384 0.6318
C8_4 C 0.70142(11) 0.7807(3) 0.5784(4)
H5_4 H 0.7016 0.7378 0.6390
C9_4 C 0.73255(9) 0.7818(2) 0.4982(3)
C10_4 C 0.72813(14) 0.8429(3) 0.4108(3)
H6_4 H 0.7481 0.8455 0.3493
C11_4 C 0.69528(13) 0.9007(3) 0.4107(3)
H7_4 H 0.6934 0.9419 0.3483
H11_4 H 0.4828(15) 0.983(3) 0.841(5)
H16_4 H 0.5172(15) 0.983(3) 0.841(5)
N2_4 N 0.83367(7) 0.59812(16) 0.5075(2)
C18_4 C 0.83056(11) 0.6588(2) 0.4268(4)
H17_4 H 0.8515 0.6616 0.3682
C19_4 C 0.79858(11) 0.7193(3) 0.4216(4)
H18_4 H 0.7984 0.7622 0.3610
C20_4 C 0.76745(9) 0.7182(2) 0.5018(3)
C21_4 C 0.77187(14) 0.6571(3) 0.5892(3)
H19_4 H 0.7519 0.6545 0.6507
C22_4 C 0.80472(13) 0.5993(3) 0.5893(3)
H20_4 H 0.8066 0.5581 0.6517
O5_3 O 0.87038(6) 0.69938(12) 0.15541(17)
O6_3 O 0.92201(6) 0.73512(12) 0.03169(17)
C3_3 C 0.89718(8) 0.68245(17) 0.0776(2)
C6_3 C 0.89862(8) 0.58796(17) 0.0363(2)
O13_3 O 0.86852(6) 0.32215(12) 0.20133(17)
H12_3 H 0.8731 0.2834 0.2523
O14 O 0.88140(6) 0.50672(12) 0.31845(16)
O15_3 O 0.93669(6) 0.58976(13) 0.27256(16)
C12_3 C 0.90246(8) 0.36216(17) 0.1766(2)
C13_3 C 0.90619(8) 0.54166(17) 0.2473(2)
C15_3 C 0.89952(8) 0.43284(17) 0.0835(2)
C16_3 C 0.90008(8) 0.52030(17) 0.1191(2)
O2_3 O 0.86852(6) 0.67785(12) 0.79867(17)
H1_3 H 0.8731 0.7166 0.7477
O3_3 O 0.88140(6) 0.49328(12) 0.68155(16)
O4_3 O 0.93669(6) 0.41024(13) 0.72744(16)
O11_3 O 0.93033(6) 0.40660(13) 0.49557(18)
H2_3 H 0.9245(11) 0.360(2) 0.474(3)
H3_3 H 0.9360(11) 0.405(2) 0.559(3)
C1_3 C 0.90246(8) 0.63784(17) 0.8234(2)
C2_3 C 0.90619(8) 0.45834(17) 0.7527(2)
C4_3 C 0.89952(8) 0.56716(17) 0.9165(2)
C5_3 C 0.90008(8) 0.47970(17) 0.8809(2)
O16_3 O 0.87038(6) 0.30062(12) 0.84459(17)
O17_3 O 0.92201(6) 0.26488(12) 0.96831(17)
C14_3 C 0.89718(8) 0.31755(17) 0.9224(2)
C17_3 C 0.89862(8) 0.41204(17) 0.9637(2)
O18_3 O 0.93033(6) 0.59340(13) 0.50443(18)
H21_3 H 0.9245(11) 0.640(2) 0.526(3)
H22_3 H 0.9360(11) 0.595(2) 0.441(3)
O5_4 O 0.37038(6) 0.19938(12) 0.15541(17)
O6_4 O 0.42201(6) 0.23512(12) 0.03169(17)
C3_4 C 0.39718(8) 0.18245(17) 0.0776(2)
C6_4 C 0.39862(8) 0.08796(17) 0.0363(2)
O14_2 O 0.38140(6) 0.00672(12) 0.31845(16)
O15_4 O 0.43669(6) 0.08976(13) 0.27256(16)
C13_4 C 0.40619(8) 0.04166(17) 0.2473(2)
C16_4 C 0.40008(8) 0.02030(17) 0.1191(2)
O2_4 O 0.36852(6) 0.17785(12) 0.79867(17)
H1_4 H 0.3731 0.2166 0.7477
C1_4 C 0.40246(8) 0.13784(17) 0.8234(2)
C4_4 C 0.39952(8) 0.06716(17) 0.9165(2)
O18_4 O 0.43033(6) 0.09340(13) 0.50443(18)
H21_4 H 0.4245(11) 0.140(2) 0.526(3)
H22_4 H 0.4360(11) 0.095(2) 0.441(3)
O13_4 O 0.36852(6) 0.82215(12) 0.20133(17)
H12_4 H 0.3731 0.7834 0.2523
C12_4 C 0.40246(8) 0.86216(17) 0.1766(2)
C15_4 C 0.39952(8) 0.93284(17) 0.0835(2)
O3_4 O 0.38140(6) 0.99328(12) 0.68155(16)
O4_4 O 0.43669(6) 0.91024(13) 0.72744(16)
O11_4 O 0.43033(6) 0.90660(13) 0.49557(18)
H2_4 H 0.4245(11) 0.860(2) 0.474(3)
H3_4 H 0.4360(11) 0.905(2) 0.559(3)
C2_4 C 0.40619(8) 0.95834(17) 0.7527(2)
C5_4 C 0.40008(8) 0.97970(17) 0.8809(2)
O16_4 O 0.37038(6) 0.80062(12) 0.84459(17)
O17_4 O 0.42201(6) 0.76488(12) 0.96831(17)
C14_4 C 0.39718(8) 0.81755(17) 0.9224(2)
C17_4 C 0.39862(8) 0.91204(17) 0.9637(2)
Co1_4 Co -0.0000 0.13899(3) 0.70680(4)
O7_7 O -0.0000 0.0765(2) 0.8637(3)
O8_7 O -0.0000 0.27053(19) 0.7701(3)
O9_7 O -0.0000 0.1806(2) 0.5381(3)
O10_7 O 0.0000 0.0092(2) 0.6324(3)
H8_5 H 0.0199(14) 0.078(3) 0.905(4)
H9_5 H 0.0198(15) 0.298(3) 0.761(4)
H15_5 H 0.0204(16) 0.202(3) 0.508(4)
O19_5 O 0.06414(6) 0.15243(12) 0.72601(16)
H11_5 H 0.0172(15) 0.983(3) 0.659(5)
Co3_4 Co 0.0000 0.86101(3) 0.29320(4)
Co2_4 Co 0.880951(16) 0.0000 -0.0000
H22_5 H 0.9360(11) 0.095(2) 0.059(3)
O20_3 O 0.88140(6) 0.00672(12) 0.18155(16)
Co1_5 Co 1.0000 0.13899(3) 0.70680(4)
Co2_5 Co 0.880951(16) 0.0000 1.0000
O1_3 O 0.93586(6) 0.15243(12) 0.72601(16)
O2_5 O 0.86852(6) 0.17785(12) 0.70133(17)
H1_5 H 0.8731 0.2166 0.7523
O5_5 O 0.87038(6) 0.19938(12) 0.34459(17)
O6_5 O 0.92201(6) 0.23512(12) 0.46831(17)
O7_8 O 1.0000 0.0765(2) 0.8637(3)
O8_8 O 1.0000 0.27053(19) 0.7701(3)
O9_8 O 1.0000 0.1806(2) 0.5381(3)
O10_8 O 1.0000 0.0092(2) 0.6324(3)
C1_5 C 0.90246(8) 0.13784(17) 0.6766(2)
C3_5 C 0.89718(8) 0.18245(17) 0.4224(2)
C4_5 C 0.89952(8) 0.06716(17) 0.5835(2)
C6_5 C 0.89862(8) 0.08796(17) 0.4637(2)
H10_5 H 0.9796(16) 0.202(3) 0.508(4)
O15_5 O 0.93669(6) 0.08976(13) 0.22744(16)
C13_5 C 0.90619(8) 0.04166(17) 0.2527(2)
C16_5 C 0.90008(8) 0.02030(17) 0.3809(2)
H13_5 H 0.9801(14) 0.078(3) 0.905(4)
H14_5 H 0.9802(15) 0.298(3) 0.761(4)
O18_5 O 0.93033(6) 0.09340(13) 0.99557(18)
H21_5 H 0.9245(11) 0.140(2) 0.974(3)
N3_3 N 0.83367(7) 0.09812(16) 0.9925(2)
Co2_6 Co 0.880951(16) 1.0000 -0.0000
O11_5 O 0.93033(6) 0.90660(13) 0.00443(18)
H2_5 H 0.9245(11) 0.860(2) 0.026(3)
N1_3 N 0.83367(7) 0.90188(16) 0.0075(2)
C9_5 C 0.76745(9) 0.7818(2) 0.0018(3)
C10_5 C 0.77187(14) 0.8429(3) 0.0892(3)
H6_5 H 0.7519 0.8455 0.1507
C11_5 C 0.80472(13) 0.9007(3) 0.0893(3)
H7_5 H 0.8066 0.9419 0.1517
C18_5 C 0.66944(11) 0.6588(2) 0.0732(4)
H17_5 H 0.6485 0.6616 0.1318
C19_5 C 0.70142(11) 0.7193(3) 0.0784(4)
H18_5 H 0.7016 0.7622 0.1390
Co5_4 Co 0.619049(16) 0.5000 -0.0000
Co2_7 Co 0.880951(16) 1.0000 1.0000
O3_5 O 0.88140(6) 0.99328(12) 0.81845(16)
O4_5 O 0.93669(6) 0.91024(13) 0.77256(16)
H3_5 H 0.9360(11) 0.905(2) 0.941(3)
C2_5 C 0.90619(8) 0.95834(17) 0.7473(2)
C5_5 C 0.90008(8) 0.97970(17) 0.6191(2)
C7_5 C 0.83056(11) 0.8412(2) 0.9268(4)
H4_5 H 0.8515 0.8384 0.8682
C8_5 C 0.79858(11) 0.7807(3) 0.9216(4)
H5_5 H 0.7984 0.7378 0.8610
O12_3 O 0.93586(6) 0.84757(12) 0.27399(16)
O13_5 O 0.86852(6) 0.82215(12) 0.29867(17)
H12_5 H 0.8731 0.7834 0.2477
O16_5 O 0.87038(6) 0.80062(12) 0.65541(17)
O17_5 O 0.92201(6) 0.76488(12) 0.53169(17)
C12_5 C 0.90246(8) 0.86216(17) 0.3234(2)
C14_5 C 0.89718(8) 0.81755(17) 0.5776(2)
C15_5 C 0.89952(8) 0.93284(17) 0.4165(2)
C17_5 C 0.89862(8) 0.91204(17) 0.5363(2)
H16_5 H 0.9828(15) 0.983(3) 0.659(5)
N2_5 N 0.66633(7) 0.59812(16) 0.9925(2)
C20_5 C 0.73255(9) 0.7182(2) 0.9982(3)
C21_5 C 0.72813(14) 0.6571(3) 0.9108(3)
H19_5 H 0.7481 0.6545 0.8493
C22_5 C 0.69528(13) 0.5993(3) 0.9107(3)
H20_5 H 0.6934 0.5581 0.8483
Co3_5 Co 1.0000 0.86101(3) 0.29320(4)
Co5_5 Co 0.619049(16) 0.5000 1.0000
H11_6 H 0.0172(15) 0.017(3) 0.341(5)
O7_9 O -0.0000 0.9235(2) 0.1363(3)
O8_9 O 0.0000 0.72947(19) 0.2299(3)
O9_9 O 0.0000 0.8194(2) 0.4619(3)
O10_9 O 0.0000 0.9908(2) 0.3676(3)
H8_6 H 0.0199(14) 0.922(3) 0.095(4)
H9_6 H 0.0198(15) 0.702(3) 0.239(4)
H15_6 H 0.0204(16) 0.798(3) 0.492(4)
O19_6 O 0.06414(6) 0.84757(12) 0.27399(16)
C7_6 C 0.83056(11) 0.1588(2) 0.0732(4)
H4_6 H 0.8515 0.1616 0.1318
C8_6 C 0.79858(11) 0.2193(3) 0.0784(4)
H5_6 H 0.7984 0.2622 0.1390
H16_6 H 0.9828(15) 0.017(3) 0.341(5)
N2_6 N 0.66633(7) 0.40188(16) 0.0075(2)
C20_6 C 0.73255(9) 0.2818(2) 0.0018(3)
C21_6 C 0.72813(14) 0.3429(3) 0.0892(3)
H19_6 H 0.7481 0.3455 0.1507
C22_6 C 0.69528(13) 0.4007(3) 0.0893(3)
H20_6 H 0.6934 0.4419 0.1517
C9_6 C 0.76745(9) 0.2182(2) 0.9982(3)
C10_6 C 0.77187(14) 0.1571(3) 0.9108(3)
H6_6 H 0.7519 0.1545 0.8493
C11_6 C 0.80472(13) 0.0993(3) 0.9107(3)
H7_6 H 0.8066 0.0581 0.8483
C18_6 C 0.66944(11) 0.3412(2) 0.9268(4)
H17_6 H 0.6485 0.3384 0.8682
C19_6 C 0.70142(11) 0.2807(3) 0.9216(4)
H18_6 H 0.7016 0.2378 0.8610
O7_10 O 1.0000 0.9235(2) 0.1363(3)
O8_10 O 1.0000 0.72947(19) 0.2299(3)
O9_10 O 1.0000 0.8194(2) 0.4619(3)
O10_10 O 1.0000 0.9908(2) 0.3676(3)
H10_6 H 0.9796(16) 0.798(3) 0.492(4)
H13_6 H 0.9801(14) 0.922(3) 0.095(4)
H14_6 H 0.9802(15) 0.702(3) 0.239(4)
Co2_8 Co 0.380951(16) 0.5000 -0.0000
O11_6 O 0.43033(6) 0.40660(13) 0.00443(18)
H2_6 H 0.4245(11) 0.360(2) 0.026(3)
N1_4 N 0.33367(7) 0.40188(16) 0.0075(2)
C9_7 C 0.26745(9) 0.2818(2) 0.0018(3)
C10_7 C 0.27187(14) 0.3429(3) 0.0892(3)
H6_7 H 0.2519 0.3455 0.1507
C11_7 C 0.30472(13) 0.4007(3) 0.0893(3)
H7_7 H 0.3066 0.4419 0.1517
C18_7 C 0.16944(11) 0.1588(2) 0.0732(4)
H17_7 H 0.1485 0.1616 0.1318
C19_7 C 0.20142(11) 0.2193(3) 0.0784(4)
H18_7 H 0.2016 0.2622 0.1390
H22_6 H 0.4360(11) 0.595(2) 0.059(3)
Co5_6 Co 0.119049(16) 0.0000 -0.0000
O20_4 O 0.38140(6) 0.50672(12) 0.18155(16)
Co1_6 Co 0.5000 0.63899(3) 0.70680(4)
Co2_9 Co 0.380951(16) 0.5000 1.0000
O1_4 O 0.43586(6) 0.65243(12) 0.72601(16)
O2_6 O 0.36852(6) 0.67785(12) 0.70133(17)
H1_6 H 0.3731 0.7166 0.7523
O3_6 O 0.38140(6) 0.49328(12) 0.81845(16)
O4_6 O 0.43669(6) 0.41024(13) 0.77256(16)
O5_6 O 0.37038(6) 0.69938(12) 0.34459(17)
O6_6 O 0.42201(6) 0.73512(12) 0.46831(17)
O7_11 O 0.5000 0.5765(2) 0.8637(3)
O8_11 O 0.5000 0.77053(19) 0.7701(3)
O9_11 O 0.5000 0.6806(2) 0.5381(3)
O10_11 O 0.5000 0.5092(2) 0.6324(3)
H3_6 H 0.4360(11) 0.405(2) 0.941(3)
C1_6 C 0.40246(8) 0.63784(17) 0.6766(2)
C2_6 C 0.40619(8) 0.45834(17) 0.7473(2)
C3_6 C 0.39718(8) 0.68245(17) 0.4224(2)
C4_6 C 0.39952(8) 0.56716(17) 0.5835(2)
C5_6 C 0.40008(8) 0.47970(17) 0.6191(2)
C6_6 C 0.39862(8) 0.58796(17) 0.4637(2)
C7_7 C 0.33056(11) 0.3412(2) 0.9268(4)
H4_7 H 0.3515 0.3384 0.8682
C8_7 C 0.29858(11) 0.2807(3) 0.9216(4)
H5_7 H 0.2984 0.2378 0.8610
H8_7 H 0.5199(14) 0.578(3) 0.905(4)
H9_7 H 0.5198(15) 0.798(3) 0.761(4)
H10_7 H 0.4796(16) 0.702(3) 0.508(4)
H11_7 H 0.5172(15) 0.483(3) 0.659(5)
O12_4 O 0.43586(6) 0.34757(12) 0.27399(16)
O13_6 O 0.36852(6) 0.32215(12) 0.29867(17)
H12_6 H 0.3731 0.2834 0.2477
O15_6 O 0.43669(6) 0.58976(13) 0.22744(16)
O16_6 O 0.37038(6) 0.30062(12) 0.65541(17)
O17_6 O 0.42201(6) 0.26488(12) 0.53169(17)
C12_6 C 0.40246(8) 0.36216(17) 0.3234(2)
C13_6 C 0.40619(8) 0.54166(17) 0.2527(2)
C14_6 C 0.39718(8) 0.31755(17) 0.5776(2)
C15_6 C 0.39952(8) 0.43284(17) 0.4165(2)
C16_6 C 0.40008(8) 0.52030(17) 0.3809(2)
C17_6 C 0.39862(8) 0.41204(17) 0.5363(2)
H13_7 H 0.4801(14) 0.578(3) 0.905(4)
H14_7 H 0.4802(15) 0.798(3) 0.761(4)
H15_7 H 0.5204(16) 0.702(3) 0.508(4)
H16_7 H 0.4828(15) 0.483(3) 0.659(5)
N2_7 N 0.16633(7) 0.09812(16) 0.9925(2)
C20_7 C 0.23255(9) 0.2182(2) 0.9982(3)
C21_7 C 0.22813(14) 0.1571(3) 0.9108(3)
H19_7 H 0.2481 0.1545 0.8493
C22_7 C 0.19528(13) 0.0993(3) 0.9107(3)
H20_7 H 0.1934 0.0581 0.8483
O18_6 O 0.43033(6) 0.59340(13) 0.99557(18)
H21_6 H 0.4245(11) 0.640(2) 0.974(3)
Co3_6 Co 0.5000 0.36101(3) 0.29320(4)
Co5_7 Co 0.119049(16) 0.0000 1.0000
O19_7 O 0.56414(6) 0.65243(12) 0.72601(16)
N3_4 N 0.33367(7) 0.59812(16) 0.9925(2)
Co5_8 Co 0.119049(16) 1.0000 -0.0000
Co5_9 Co 0.119049(16) 1.0000 1.0000
O7_12 O 0.5000 0.4235(2) 0.1363(3)
O8_12 O 0.5000 0.22947(19) 0.2299(3)
O9_12 O 0.5000 0.3194(2) 0.4619(3)
O10_12 O 0.5000 0.4908(2) 0.3676(3)
C7_8 C 0.33056(11) 0.6588(2) 0.0732(4)
H4_8 H 0.3515 0.6616 0.1318
C8_8 C 0.29858(11) 0.7193(3) 0.0784(4)
H5_8 H 0.2984 0.7622 0.1390
H8_8 H 0.5199(14) 0.422(3) 0.095(4)
H9_8 H 0.5198(15) 0.202(3) 0.239(4)
H10_8 H 0.4796(16) 0.298(3) 0.492(4)
H11_8 H 0.5172(15) 0.517(3) 0.341(5)
H13_8 H 0.4801(14) 0.422(3) 0.095(4)
H14_8 H 0.4802(15) 0.202(3) 0.239(4)
H15_8 H 0.5204(16) 0.298(3) 0.492(4)
H16_8 H 0.4828(15) 0.517(3) 0.341(5)
N2_8 N 0.16633(7) 0.90188(16) 0.0075(2)
C20_8 C 0.23255(9) 0.7818(2) 0.0018(3)
C21_8 C 0.22813(14) 0.8429(3) 0.0892(3)
H19_8 H 0.2481 0.8455 0.1507
C22_8 C 0.19528(13) 0.9007(3) 0.0893(3)
H20_8 H 0.1934 0.9419 0.1517
O19_8 O 0.56414(6) 0.34757(12) 0.27399(16)
C9_8 C 0.26745(9) 0.7182(2) 0.9982(3)
C10_8 C 0.27187(14) 0.6571(3) 0.9108(3)
H6_8 H 0.2519 0.6545 0.8493
C11_8 C 0.30472(13) 0.5993(3) 0.9107(3)
H7_8 H 0.3066 0.5581 0.8483
C18_8 C 0.16944(11) 0.8412(2) 0.9268(4)
H17_8 H 0.1485 0.8384 0.8682
C19_8 C 0.20142(11) 0.7807(3) 0.9216(4)
H18_8 H 0.2016 0.7378 0.8610
O3_7 O 0.11860(6) 0.00672(12) 0.18155(16)
O4_7 O 0.06331(6) 0.08976(13) 0.22744(16)
H3_7 H 0.0640(11) 0.095(2) 0.059(3)
C2_7 C 0.09381(8) 0.04166(17) 0.2527(2)
C5_7 C 0.09992(8) 0.02030(17) 0.3809(2)
O13_7 O 0.13148(6) 0.17785(12) 0.70133(17)
H12_7 H 0.1269 0.2166 0.7523
O16_7 O 0.12962(6) 0.19938(12) 0.34459(17)
O17_7 O 0.07799(6) 0.23512(12) 0.46831(17)
C12_7 C 0.09754(8) 0.13784(17) 0.6766(2)
C14_7 C 0.10282(8) 0.18245(17) 0.4224(2)
C15_7 C 0.10048(8) 0.06716(17) 0.5835(2)
C17_7 C 0.10138(8) 0.08796(17) 0.4637(2)
O11_7 O 0.06967(6) 0.09340(13) 0.99557(18)
H2_7 H 0.0755(11) 0.140(2) 0.974(3)
O2_7 O 0.13148(6) 0.82215(12) 0.29867(17)
H1_7 H 0.1269 0.7834 0.2477
O5_7 O 0.12962(6) 0.80062(12) 0.65541(17)
O6_7 O 0.07799(6) 0.76488(12) 0.53169(17)
C1_7 C 0.09754(8) 0.86216(17) 0.3234(2)
C3_7 C 0.10282(8) 0.81755(17) 0.5776(2)
C4_7 C 0.10048(8) 0.93284(17) 0.4165(2)
C6_7 C 0.10138(8) 0.91204(17) 0.5363(2)
O14_3 O 0.11860(6) 0.99328(12) 0.81845(16)
O15_7 O 0.06331(6) 0.91024(13) 0.77256(16)
C13_7 C 0.09381(8) 0.95834(17) 0.7473(2)
C16_7 C 0.09992(8) 0.97970(17) 0.6191(2)
O18_7 O 0.06967(6) 0.90660(13) 0.00443(18)
H21_7 H 0.0755(11) 0.860(2) 0.026(3)
H22_7 H 0.0640(11) 0.905(2) 0.941(3)
O2_8 O 0.63148(6) 0.32215(12) 0.29867(17)
H1_8 H 0.6269 0.2834 0.2477
O3_8 O 0.61860(6) 0.50672(12) 0.18155(16)
O4_8 O 0.56331(6) 0.58976(13) 0.22744(16)
O5_8 O 0.62962(6) 0.30062(12) 0.65541(17)
O6_8 O 0.57799(6) 0.26488(12) 0.53169(17)
H3_8 H 0.5640(11) 0.595(2) 0.059(3)
C1_8 C 0.59754(8) 0.36216(17) 0.3234(2)
C2_8 C 0.59381(8) 0.54166(17) 0.2527(2)
C3_8 C 0.60282(8) 0.31755(17) 0.5776(2)
C4_8 C 0.60048(8) 0.43284(17) 0.4165(2)
C5_8 C 0.59992(8) 0.52030(17) 0.3809(2)
C6_8 C 0.60138(8) 0.41204(17) 0.5363(2)
O13_8 O 0.63148(6) 0.67785(12) 0.70133(17)
H12_8 H 0.6269 0.7166 0.7523
O14_4 O 0.61860(6) 0.49328(12) 0.81845(16)
O15_8 O 0.56331(6) 0.41024(13) 0.77256(16)
O16_8 O 0.62962(6) 0.69938(12) 0.34459(17)
O17_8 O 0.57799(6) 0.73512(12) 0.46831(17)
C12_8 C 0.59754(8) 0.63784(17) 0.6766(2)
C13_8 C 0.59381(8) 0.45834(17) 0.7473(2)
C14_8 C 0.60282(8) 0.68245(17) 0.4224(2)
C15_8 C 0.60048(8) 0.56716(17) 0.5835(2)
C16_8 C 0.59992(8) 0.47970(17) 0.6191(2)
C17_8 C 0.60138(8) 0.58796(17) 0.4637(2)
O18_8 O 0.56967(6) 0.40660(13) 0.00443(18)
H21_8 H 0.5755(11) 0.360(2) 0.026(3)
O11_8 O 0.56967(6) 0.59340(13) 0.99557(18)
H2_8 H 0.5755(11) 0.640(2) 0.974(3)
H22_8 H 0.5640(11) 0.405(2) 0.941(3)
loop_
_geom_bond_atom_site_label_1
_geom_bond_atom_site_label_2
_geom_bond_site_symmetry_1
_geom_bond_site_symmetry_2
Co1 O1 1_555 1_555
Co2 O3 1_555 1_555
O1 C1 1_555 1_555
O2 H1 1_555 1_555
O3 C2 1_555 1_555
O4 C2 1_555 1_555
O7 Co1 1_555 1_555
O8 Co1 1_555 1_555
O9 Co1 1_555 1_555
O10 Co1 1_555 1_555
O11 Co2 1_555 1_555
H2 O11 1_555 1_555
H3 O11 1_555 1_555
N1 Co2 1_555 1_555
C1 O2 1_555 1_555
C2 C5 1_555 1_555
C4 C1 1_555 1_555
C5 C4 1_555 1_555
C7 N1 1_555 1_555
H4 C7 1_555 1_555
C8 C7 1_555 1_555
H5 C8 1_555 1_555
C9 C8 1_555 1_555
C10 C9 1_555 1_555
H6 C10 1_555 1_555
C11 N1 1_555 1_555
H7 C11 1_555 1_555
H10 O9 1_555 1_555
O16 C14 1_555 1_555
O17 C14 1_555 1_555
C14 C17 1_555 1_555
C17 C5 1_555 1_555
H13 O7 1_555 1_555
H14 O8 1_555 1_555
H16 O10 1_555 1_555
N2 C18 1_555 1_555
C18 H17 1_555 1_555
C19 C18 1_555 1_555
H18 C19 1_555 1_555
C20 C9 1_555 1_555
C21 C20 1_555 1_555
H19 C21 1_555 1_555
C22 N2 1_555 1_555
H20 C22 1_555 1_555
O18 Co2 1_555 1_555
H21 O18 1_555 1_555
H22 O18 1_555 1_555
Co5_2 N2 1_555 1_555
O20 Co2 1_555 1_555
N3 Co2 1_555 1_555
C10 C11 1_555 1_555
C19 C20 1_555 1_555
C21 C22 1_555 1_555
O5 C3 1_555 1_555
O6 C3 1_555 1_555
C3 C6 1_555 1_555
O12 C12 1_555 1_555
O13 H12 1_555 1_555
O20 C13 1_555 1_555
O15 C13 1_555 1_555
C12 O13 1_555 1_555
C13 C16 1_555 1_555
C15 C12 1_555 1_555
C16 C6 1_555 1_555
Co3 O12 1_555 1_555
C15 C16 1_555 1_555
O7_2 Co1_2 1_555 1_555
O8_2 Co1_2 1_555 1_555
O9_2 Co1_2 1_555 1_555
O10_2 Co1_2 1_555 1_555
H8 O7_2 1_555 1_555
H9 O8_2 1_555 1_555
H11 O10_2 1_555 1_555
H15 O9_2 1_555 1_555
O19 Co1_2 1_555 1_555
O7_3 Co3 1_555 1_555
O8_3 Co3 1_555 1_555
O9_3 Co3 1_555 1_555
O10_3 Co3 1_555 1_555
C7_2 N3 1_555 1_555
H4_2 C7_2 1_555 1_555
C8_2 C7_2 1_555 1_555
H5_2 C8_2 1_555 1_555
C9_2 C8_2 1_555 1_555
C10_2 C9_2 1_555 1_555
H6_2 C10_2 1_555 1_555
C11_2 N3 1_555 1_555
H7_2 C11_2 1_555 1_555
H10_2 O9_3 1_555 1_555
H13_2 O7_3 1_555 1_555
H14_2 O8_3 1_555 1_555
H16_2 O10_3 1_555 1_555
N2_2 C18_2 1_555 1_555
C18_2 H17_2 1_555 1_555
C19_2 C18_2 1_555 1_555
H18_2 C19_2 1_555 1_555
C20_2 C9_2 1_555 1_555
C21_2 C20_2 1_555 1_555
H19_2 C21_2 1_555 1_555
C22_2 N2_2 1_555 1_555
H20_2 C22_2 1_555 1_555
Co5 N2_2 1_555 1_555
C10_2 C11_2 1_555 1_555
C19_2 C20_2 1_555 1_555
C21_2 C22_2 1_555 1_555
O7_4 Co3_2 1_555 1_555
O8_4 Co3_2 1_555 1_555
O9_4 Co3_2 1_555 1_555
O10_4 Co3_2 1_555 1_555
H8_2 O7_4 1_555 1_555
H9_2 O8_4 1_555 1_555
H11_2 O10_4 1_555 1_555
H15_2 O9_4 1_555 1_555
O19_2 Co3_2 1_555 1_555
Co2_2 O3_2 1_555 1_555
O3_2 C2_2 1_555 1_555
O4_2 C2_2 1_555 1_555
O11_2 Co2_2 1_555 1_555
H2_2 O11_2 1_555 1_555
H3_2 O11_2 1_555 1_555
N1_2 Co2_2 1_555 1_555
C2_2 C5_2 1_555 1_555
C7_3 N1_2 1_555 1_555
H4_3 C7_3 1_555 1_555
C8_3 C7_3 1_555 1_555
H5_3 C8_3 1_555 1_555
C9_3 C8_3 1_555 1_555
C10_3 C9_3 1_555 1_555
H6_3 C10_3 1_555 1_555
C11_3 N1_2 1_555 1_555
H7_3 C11_3 1_555 1_555
O16_2 C14_2 1_555 1_555
O17_2 C14_2 1_555 1_555
C14_2 C17_2 1_555 1_555
C17_2 C5_2 1_555 1_555
N2_3 C18_3 1_555 1_555
C18_3 H17_3 1_555 1_555
C19_3 C18_3 1_555 1_555
H18_3 C19_3 1_555 1_555
C20_3 C9_3 1_555 1_555
C21_3 C20_3 1_555 1_555
H19_3 C21_3 1_555 1_555
C22_3 N2_3 1_555 1_555
H20_3 C22_3 1_555 1_555
Co5_3 N2_3 1_555 1_555
C10_3 C11_3 1_555 1_555
C19_3 C20_3 1_555 1_555
C21_3 C22_3 1_555 1_555
O12_2 C12_2 1_555 1_555
O13_2 H12_2 1_555 1_555
C12_2 O13_2 1_555 1_555
C15_2 C12_2 1_555 1_555
Co3_3 O12_2 1_555 1_555
Co1_3 O1_2 1_555 1_555
O1_2 C1_2 1_555 1_555
O2_2 H1_2 1_555 1_555
O7_5 Co1_3 1_555 1_555
O8_5 Co1_3 1_555 1_555
O9_5 Co1_3 1_555 1_555
O10_5 Co1_3 1_555 1_555
C1_2 O2_2 1_555 1_555
C4_2 C1_2 1_555 1_555
H8_3 O7_5 1_555 1_555
H9_3 O8_5 1_555 1_555
H10_3 O9_5 1_555 1_555
H13_3 O7_5 1_555 1_555
H14_3 O8_5 1_555 1_555
H15_3 O9_5 1_555 1_555
O18_2 Co2_3 1_555 1_555
H21_2 O18_2 1_555 1_555
H22_2 O18_2 1_555 1_555
O19_3 Co1_3 1_555 1_555
O20_2 Co2_3 1_555 1_555
N3_2 Co2_3 1_555 1_555
O5_2 C3_2 1_555 1_555
O6_2 C3_2 1_555 1_555
C3_2 C6_2 1_555 1_555
O20_2 C13_2 1_555 1_555
O15_2 C13_2 1_555 1_555
C13_2 C16_2 1_555 1_555
C16_2 C6_2 1_555 1_555
O7_6 Co3_3 1_555 1_555
O8_6 Co3_3 1_555 1_555
O9_6 Co3_3 1_555 1_555
O10_6 Co3_3 1_555 1_555
H8_4 O7_6 1_555 1_555
H9_4 O8_6 1_555 1_555
H10_4 O9_6 1_555 1_555
H13_4 O7_6 1_555 1_555
H14_4 O8_6 1_555 1_555
H15_4 O9_6 1_555 1_555
O19_4 Co3_3 1_555 1_555
C7_4 N3_2 1_555 1_555
H4_4 C7_4 1_555 1_555
C8_4 C7_4 1_555 1_555
H5_4 C8_4 1_555 1_555
C9_4 C8_4 1_555 1_555
C10_4 C9_4 1_555 1_555
H6_4 C10_4 1_555 1_555
C11_4 N3_2 1_555 1_555
H7_4 C11_4 1_555 1_555
N2_4 C18_4 1_555 1_555
C18_4 H17_4 1_555 1_555
C19_4 C18_4 1_555 1_555
H18_4 C19_4 1_555 1_555
C20_4 C9_4 1_555 1_555
C21_4 C20_4 1_555 1_555
H19_4 C21_4 1_555 1_555
C22_4 N2_4 1_555 1_555
H20_4 C22_4 1_555 1_555
Co5_3 N2_4 1_555 1_555
C10_4 C11_4 1_555 1_555
C19_4 C20_4 1_555 1_555
C21_4 C22_4 1_555 1_555
O5_3 C3_3 1_555 1_555
O6_3 C3_3 1_555 1_555
C3_3 C6_3 1_555 1_555
O19 C12_3 1_555 1_555
O13_3 H12_3 1_555 1_555
O14 C13_3 1_555 1_555
O15_3 C13_3 1_555 1_555
C12_3 O13_3 1_555 1_555
C13_3 C16_3 1_555 1_555
C15_3 C12_3 1_555 1_555
C16_3 C6_3 1_555 1_555
Co5_3 O14 1_555 1_555
C15_3 C16_3 1_555 1_555
Co5_3 O3_3 1_555 1_555
O19_2 C1_3 1_555 1_555
O2_3 H1_3 1_555 1_555
O3_3 C2_3 1_555 1_555
O4_3 C2_3 1_555 1_555
O11_3 Co5_3 1_555 1_555
H2_3 O11_3 1_555 1_555
H3_3 O11_3 1_555 1_555
C1_3 O2_3 1_555 1_555
C2_3 C5_3 1_555 1_555
C4_3 C1_3 1_555 1_555
C5_3 C4_3 1_555 1_555
O16_3 C14_3 1_555 1_555
O17_3 C14_3 1_555 1_555
C14_3 C17_3 1_555 1_555
C17_3 C5_3 1_555 1_555
O18_3 Co5_3 1_555 1_555
H21_3 O18_3 1_555 1_555
H22_3 O18_3 1_555 1_555
O5_4 C3_4 1_555 1_555
O6_4 C3_4 1_555 1_555
C3_4 C6_4 1_555 1_555
O14_2 C13_4 1_555 1_555
O15_4 C13_4 1_555 1_555
C13_4 C16_4 1_555 1_555
C16_4 C6_4 1_555 1_555
Co5 O14_2 1_555 1_555
O19_4 C1_4 1_555 1_555
O2_4 H1_4 1_555 1_555
C1_4 O2_4 1_555 1_555
C4_4 C1_4 1_555 1_555
O18_4 Co5 1_555 1_555
H21_4 O18_4 1_555 1_555
H22_4 O18_4 1_555 1_555
O19_3 C12_4 1_555 1_555
O13_4 H12_4 1_555 1_555
C12_4 O13_4 1_555 1_555
C15_4 C12_4 1_555 1_555
Co5_2 O3_4 1_555 1_555
O3_4 C2_4 1_555 1_555
O4_4 C2_4 1_555 1_555
O11_4 Co5_2 1_555 1_555
H2_4 O11_4 1_555 1_555
H3_4 O11_4 1_555 1_555
C2_4 C5_4 1_555 1_555
O16_4 C14_4 1_555 1_555
O17_4 C14_4 1_555 1_555
C14_4 C17_4 1_555 1_555
C17_4 C5_4 1_555 1_555
O7_7 Co1_4 1_555 1_555
O8_7 Co1_4 1_555 1_555
O9_7 Co1_4 1_555 1_555
O10_7 Co1_4 1_555 1_555
H8_5 O7_7 1_555 1_555
H9_5 O8_7 1_555 1_555
H15_5 O9_7 1_555 1_555
O19_5 Co1_4 1_555 1_555
O20_3 Co2_4 1_555 1_555
Co1_5 O1_3 1_555 1_555
O1_3 C1_5 1_555 1_555
O2_5 H1_5 1_555 1_555
O5_5 C3_5 1_555 1_555
O6_5 C3_5 1_555 1_555
O7_8 Co1_5 1_555 1_555
O8_8 Co1_5 1_555 1_555
O9_8 Co1_5 1_555 1_555
O10_8 Co1_5 1_555 1_555
C1_5 O2_5 1_555 1_555
C3_5 C6_5 1_555 1_555
C4_5 C1_5 1_555 1_555
C6_5 C4_5 1_555 1_555
H10_5 O9_8 1_555 1_555
O20_3 C13_5 1_555 1_555
O15_5 C13_5 1_555 1_555
C13_5 C16_5 1_555 1_555
C16_5 C6_5 1_555 1_555
H13_5 O7_8 1_555 1_555
H14_5 O8_8 1_555 1_555
O18_5 Co2_5 1_555 1_555
H21_5 O18_5 1_555 1_555
N3_3 Co2_5 1_555 1_555
O11_5 Co2_6 1_555 1_555
H2_5 O11_5 1_555 1_555
N1_3 Co2_6 1_555 1_555
C10_5 C9_5 1_555 1_555
H6_5 C10_5 1_555 1_555
C11_5 N1_3 1_555 1_555
H7_5 C11_5 1_555 1_555
C18_5 H17_5 1_555 1_555
C19_5 C18_5 1_555 1_555
H18_5 C19_5 1_555 1_555
C10_5 C11_5 1_555 1_555
Co2_7 O3_5 1_555 1_555
O3_5 C2_5 1_555 1_555
O4_5 C2_5 1_555 1_555
C2_5 C5_5 1_555 1_555
H4_5 C7_5 1_555 1_555
C8_5 C7_5 1_555 1_555
H5_5 C8_5 1_555 1_555
O12_3 C12_5 1_555 1_555
O13_5 H12_5 1_555 1_555
O16_5 C14_5 1_555 1_555
O17_5 C14_5 1_555 1_555
C12_5 O13_5 1_555 1_555
C14_5 C17_5 1_555 1_555
C15_5 C12_5 1_555 1_555
C17_5 C5_5 1_555 1_555
C21_5 C20_5 1_555 1_555
H19_5 C21_5 1_555 1_555
C22_5 N2_5 1_555 1_555
H20_5 C22_5 1_555 1_555
Co3_5 O12_3 1_555 1_555
Co5_5 N2_5 1_555 1_555
C15_5 C17_5 1_555 1_555
C21_5 C22_5 1_555 1_555
O7_9 Co3_4 1_555 1_555
O8_9 Co3_4 1_555 1_555
O9_9 Co3_4 1_555 1_555
O10_9 Co3_4 1_555 1_555
H8_6 O7_9 1_555 1_555
H9_6 O8_9 1_555 1_555
H15_6 O9_9 1_555 1_555
O19_6 Co3_4 1_555 1_555
H4_6 C7_6 1_555 1_555
C8_6 C7_6 1_555 1_555
H5_6 C8_6 1_555 1_555
C21_6 C20_6 1_555 1_555
H19_6 C21_6 1_555 1_555
C22_6 N2_6 1_555 1_555
H20_6 C22_6 1_555 1_555
Co5_4 N2_6 1_555 1_555
C21_6 C22_6 1_555 1_555
C10_6 C9_6 1_555 1_555
H6_6 C10_6 1_555 1_555
C11_6 N3_3 1_555 1_555
H7_6 C11_6 1_555 1_555
C18_6 H17_6 1_555 1_555
C19_6 C18_6 1_555 1_555
H18_6 C19_6 1_555 1_555
C10_6 C11_6 1_555 1_555
O7_10 Co3_5 1_555 1_555
O8_10 Co3_5 1_555 1_555
O9_10 Co3_5 1_555 1_555
O10_10 Co3_5 1_555 1_555
H10_6 O9_10 1_555 1_555
H13_6 O7_10 1_555 1_555
H14_6 O8_10 1_555 1_555
O11_6 Co2_8 1_555 1_555
H2_6 O11_6 1_555 1_555
N1_4 Co2_8 1_555 1_555
C10_7 C9_7 1_555 1_555
H6_7 C10_7 1_555 1_555
C11_7 N1_4 1_555 1_555
H7_7 C11_7 1_555 1_555
C18_7 H17_7 1_555 1_555
C19_7 C18_7 1_555 1_555
H18_7 C19_7 1_555 1_555
O20_4 Co2_8 1_555 1_555
C10_7 C11_7 1_555 1_555
Co1_6 O1_4 1_555 1_555
Co2_9 O3_6 1_555 1_555
O1_4 C1_6 1_555 1_555
O2_6 H1_6 1_555 1_555
O3_6 C2_6 1_555 1_555
O4_6 C2_6 1_555 1_555
O5_6 C3_6 1_555 1_555
O6_6 C3_6 1_555 1_555
O7_11 Co1_6 1_555 1_555
O8_11 Co1_6 1_555 1_555
O9_11 Co1_6 1_555 1_555
O10_11 Co1_6 1_555 1_555
C1_6 O2_6 1_555 1_555
C2_6 C5_6 1_555 1_555
C3_6 C6_6 1_555 1_555
C4_6 C1_6 1_555 1_555
C5_6 C4_6 1_555 1_555
C6_6 C4_6 1_555 1_555
H4_7 C7_7 1_555 1_555
C8_7 C7_7 1_555 1_555
H5_7 C8_7 1_555 1_555
H8_7 O7_11 1_555 1_555
H9_7 O8_11 1_555 1_555
H10_7 O9_11 1_555 1_555
H11_7 O10_11 1_555 1_555
O12_4 C12_6 1_555 1_555
O13_6 H12_6 1_555 1_555
O20_4 C13_6 1_555 1_555
O15_6 C13_6 1_555 1_555
O16_6 C14_6 1_555 1_555
O17_6 C14_6 1_555 1_555
C12_6 O13_6 1_555 1_555
C13_6 C16_6 1_555 1_555
C14_6 C17_6 1_555 1_555
C15_6 C12_6 1_555 1_555
C16_6 C6_6 1_555 1_555
C17_6 C5_6 1_555 1_555
H13_7 O7_11 1_555 1_555
H14_7 O8_11 1_555 1_555
H15_7 O9_11 1_555 1_555
H16_7 O10_11 1_555 1_555
C21_7 C20_7 1_555 1_555
H19_7 C21_7 1_555 1_555
C22_7 N2_7 1_555 1_555
H20_7 C22_7 1_555 1_555
O18_6 Co2_9 1_555 1_555
H21_6 O18_6 1_555 1_555
Co3_6 O12_4 1_555 1_555
Co5_7 N2_7 1_555 1_555
O19_7 Co1_6 1_555 1_555
N3_4 Co2_9 1_555 1_555
C15_6 C16_6 1_555 1_555
C15_6 C17_6 1_555 1_555
C21_7 C22_7 1_555 1_555
O7_12 Co3_6 1_555 1_555
O8_12 Co3_6 1_555 1_555
O9_12 Co3_6 1_555 1_555
O10_12 Co3_6 1_555 1_555
H4_8 C7_8 1_555 1_555
C8_8 C7_8 1_555 1_555
H5_8 C8_8 1_555 1_555
H8_8 O7_12 1_555 1_555
H9_8 O8_12 1_555 1_555
H10_8 O9_12 1_555 1_555
H11_8 O10_12 1_555 1_555
H13_8 O7_12 1_555 1_555
H14_8 O8_12 1_555 1_555
H15_8 O9_12 1_555 1_555
H16_8 O10_12 1_555 1_555
C21_8 C20_8 1_555 1_555
H19_8 C21_8 1_555 1_555
C22_8 N2_8 1_555 1_555
H20_8 C22_8 1_555 1_555
Co5_8 N2_8 1_555 1_555
O19_8 Co3_6 1_555 1_555
C21_8 C22_8 1_555 1_555
C10_8 C9_8 1_555 1_555
H6_8 C10_8 1_555 1_555
C11_8 N3_4 1_555 1_555
H7_8 C11_8 1_555 1_555
C18_8 H17_8 1_555 1_555
C19_8 C18_8 1_555 1_555
H18_8 C19_8 1_555 1_555
C10_8 C11_8 1_555 1_555
Co5_6 O3_7 1_555 1_555
O3_7 C2_7 1_555 1_555
O4_7 C2_7 1_555 1_555
C2_7 C5_7 1_555 1_555
O19_5 C12_7 1_555 1_555
O13_7 H12_7 1_555 1_555
O16_7 C14_7 1_555 1_555
O17_7 C14_7 1_555 1_555
C12_7 O13_7 1_555 1_555
C14_7 C17_7 1_555 1_555
C15_7 C12_7 1_555 1_555
C17_7 C5_7 1_555 1_555
C15_7 C17_7 1_555 1_555
O11_7 Co5_7 1_555 1_555
H2_7 O11_7 1_555 1_555
O19_6 C1_7 1_555 1_555
O2_7 H1_7 1_555 1_555
O5_7 C3_7 1_555 1_555
O6_7 C3_7 1_555 1_555
C1_7 O2_7 1_555 1_555
C3_7 C6_7 1_555 1_555
C4_7 C1_7 1_555 1_555
C6_7 C4_7 1_555 1_555
O14_3 C13_7 1_555 1_555
O15_7 C13_7 1_555 1_555
C13_7 C16_7 1_555 1_555
C16_7 C6_7 1_555 1_555
O18_7 Co5_8 1_555 1_555
H21_7 O18_7 1_555 1_555
Co5_9 O14_3 1_555 1_555
Co5_4 O3_8 1_555 1_555
O19_8 C1_8 1_555 1_555
O2_8 H1_8 1_555 1_555
O3_8 C2_8 1_555 1_555
O4_8 C2_8 1_555 1_555
O5_8 C3_8 1_555 1_555
O6_8 C3_8 1_555 1_555
C1_8 O2_8 1_555 1_555
C2_8 C5_8 1_555 1_555
C3_8 C6_8 1_555 1_555
C4_8 C1_8 1_555 1_555
C5_8 C4_8 1_555 1_555
C6_8 C4_8 1_555 1_555
O19_7 C12_8 1_555 1_555
O13_8 H12_8 1_555 1_555
O14_4 C13_8 1_555 1_555
O15_8 C13_8 1_555 1_555
O16_8 C14_8 1_555 1_555
O17_8 C14_8 1_555 1_555
C12_8 O13_8 1_555 1_555
C13_8 C16_8 1_555 1_555
C14_8 C17_8 1_555 1_555
C15_8 C12_8 1_555 1_555
C16_8 C6_8 1_555 1_555
C17_8 C5_8 1_555 1_555
O18_8 Co5_4 1_555 1_555
H21_8 O18_8 1_555 1_555
Co5_5 O14_4 1_555 1_555
C15_8 C16_8 1_555 1_555
C15_8 C17_8 1_555 1_555
O11_8 Co5_5 1_555 1_555
H2_8 O11_8 1_555 1_555

#END
