
###############################################################################
#
# This file contains modified crystal structure data generated from the
# MOF subset of the Cambridge Structural Database (CSD) v543 
# hosted by the Cambridge Crystallographic Data Centre (CCDC).
#
# This work is licensed under the Creative Commons
# Attribution-NonCommercial-ShareAlike 4.0 International License.
# To view a copy of this license, visit
# http://creativecommons.org/licenses/by-nc-sa/4.0/
# or send a letter to
# Creative Commons, PO Box 1866, Mountain View, CA 94042, USA.
#
# CIF created using the CSD Python API on 29 September 2022
# The structure has been converted into the P1 space group
# The structure has a 3D framework
# The original CSD entry VEZLIY is in the monoclinic crystal system
# The framework has been calculated to contain at least 10.0% void space
# The void calculation uses a probe of radius 1.32A, grid spacing 0.4
# H atom positions have been added when not included in the experimental data
#
###############################################################################

data_VEZLIY
_chemical_formula_moiety         '(C120 H56 Cd4 K20 O91 S16)n'
_symmetry_cell_setting           triclinic
_symmetry_space_group_name_H-M   'P 1'
_symmetry_Int_Tables_number      1
_space_group_name_Hall           'P 1'
loop_
_symmetry_equiv_pos_site_id
_symmetry_equiv_pos_as_xyz
1 x,y,z
_cell_length_a                   10.840(2)
_cell_length_b                   18.697(4)
_cell_length_c                   27.370(3)
_cell_angle_alpha                90
_cell_angle_beta                 98.154(15)
_cell_angle_gamma                90
_cell_volume                     5491.15
loop_
_atom_site_label
_atom_site_type_symbol
_atom_site_fract_x
_atom_site_fract_y
_atom_site_fract_z
O25 O 0.1601(19) 0.3733(11) 0.8152(7)
K8 K 0.3532(4) 0.4637(2) 0.76965(17)
O33 O 0.1746(15) 0.3166(6) 0.6702(4)
O34 O 0.1584(9) 0.4355(5) 0.6928(3)
O38 O 0.0207(13) 0.1999(7) 0.7358(4)
Cd1 Cd 0.28176(5) 0.35052(4) 0.18692(3)
K1 K 0.3532(4) 0.5363(2) 0.26965(17)
K3 K 0.2284(5) 0.1972(3) 0.6942(2)
K4 K 0.5733(4) 0.3242(2) 0.70253(13)
K5 K 0.9872(5) 0.3421(2) 0.73897(17)
K6 K 0.5351(7) 0.5266(5) 0.6489(4)
S2 S 0.2215(4) 0.3857(2) 0.66482(10)
S3 S 0.7111(3) 0.48302(18) 0.25545(10)
S4 S 0.7658(3) 0.42127(18) 0.62539(10)
O1 O 0.2031(12) 0.2907(6) 0.2534(4)
O2 O 0.1529(12) 0.4056(7) 0.2540(3)
O6 O 0.0917(12) 0.2525(5) 0.4945(3)
O7 O 0.1300(11) 0.5862(7) 0.6291(4)
O8 O 0.3219(12) 0.5452(7) 0.6425(5)
O9 O 0.3551(11) 0.3919(7) 0.6745(3)
O12 O 0.4319(10) 0.4057(7) 0.2382(4)
O13 O 0.5207(13) 0.3001(7) 0.2358(4)
O14 O 0.6101(10) 0.5328(6) 0.2478(3)
O15 O 0.7132(11) 0.4343(6) 0.2144(3)
O16 O 0.8301(9) 0.5145(6) 0.2688(3)
O17 O 0.8619(10) 0.4765(5) 0.4429(3)
O18 O 0.6958(14) 0.2488(6) 0.6386(4)
O19 O 0.8777(11) 0.2069(8) 0.6264(4)
O20 O 0.6312(13) 0.4165(6) 0.6299(4)
O21 O 0.8441(13) 0.3897(7) 0.6645(4)
O22 O 0.7957(11) 0.4927(6) 0.6147(4)
O23 O 0.4215(16) 0.5105(10) 0.3699(7)
O24 O 0.395(3) 0.1911(19) 0.6354(11)
C1 C 0.1463(16) 0.3387(7) 0.3261(4)
C2 C 0.0441(12) 0.2956(7) 0.3429(4)
C3 C 0.0470(15) 0.2878(7) 0.3956(4)
C4 C 0.1261(10) 0.3235(7) 0.4277(4)
C5 C 0.2131(14) 0.3646(8) 0.4095(4)
H2 H 0.2704 0.3891 0.4320
C6 C 0.2219(13) 0.3725(8) 0.3598(4)
H3 H 0.2827 0.4024 0.3502
C7 C 0.1626(14) 0.3476(8) 0.2746(4)
C8 C 0.1144(11) 0.3122(7) 0.4797(4)
C9 C 0.1394(11) 0.3709(6) 0.5173(4)
C10 C 0.1618(12) 0.3560(7) 0.5665(4)
H4 H 0.1605 0.3086 0.5767
C11 C 0.1867(10) 0.4097(7) 0.6021(4)
C12 C 0.1815(11) 0.4793(6) 0.5871(4)
C13 C 0.1469(14) 0.4968(8) 0.5374(4)
H5 H 0.1356 0.5443 0.5277
C14 C 0.1297(13) 0.4427(6) 0.5031(4)
H6 H 0.1113 0.4541 0.4698
C15 C 0.2109(11) 0.5405(8) 0.6229(4)
C16 C 0.5861(11) 0.3796(6) 0.3022(3)
C17 C 0.6763(11) 0.4256(7) 0.3069(4)
C18 C 0.7512(11) 0.4417(7) 0.3510(4)
H7 H 0.8143 0.4758 0.3527
C19 C 0.7269(11) 0.4042(6) 0.3925(4)
C20 C 0.6319(13) 0.3527(7) 0.3890(4)
H8 H 0.6139 0.3285 0.4168
C21 C 0.5680(11) 0.3392(7) 0.3446(4)
H9 H 0.5099 0.3023 0.3413
C22 C 0.5095(15) 0.3599(7) 0.2557(5)
C23 C 0.8017(13) 0.4210(8) 0.4387(4)
C24 C 0.7967(10) 0.3707(6) 0.4840(4)
C25 C 0.7962(12) 0.4090(6) 0.5295(4)
H10 H 0.8027 0.4586 0.5305
C26 C 0.7859(12) 0.3698(7) 0.5718(4)
C27 C 0.7913(12) 0.2988(6) 0.5706(3)
C28 C 0.8029(14) 0.2617(8) 0.5247(4)
H11 H 0.8129 0.2123 0.5242
C29 C 0.7988(11) 0.2996(6) 0.4838(3)
H12 H 0.7973 0.2759 0.4539
C30 C 0.7903(17) 0.2486(7) 0.6161(4)
Cd2 Cd 0.28176(5) 0.64948(4) 0.68692(3)
Cd3 Cd 0.78176(5) 0.14948(4) 0.68692(3)
K10 K 0.9631(3) 0.4557(2) 0.19198(14)
K12 K 0.9631(3) 0.5443(2) 0.69198(14)
K13 K 0.4631(3) 0.0443(2) 0.69198(14)
K15 K 0.7284(5) 0.3028(3) 0.1942(2)
K16 K 0.5733(4) 0.6758(2) 0.20253(13)
K17 K 0.0733(4) 0.1758(2) 0.20253(13)
K19 K 0.9872(5) 0.6579(2) 0.23897(17)
K20 K 0.4872(5) 0.1579(2) 0.23897(17)
K21 K 0.5351(7) 0.4734(5) 0.1489(4)
O26 O 0.7031(12) 0.2093(6) 0.7534(4)
O27 O 0.4834(11) 0.6843(8) 0.2907(5)
O28 O 0.4834(11) 0.3157(8) 0.7907(5)
O29 O 0.4155(11) 0.2029(9) 0.7601(4)
O30 O 0.1300(11) 0.4138(7) 0.1291(4)
O31 O 0.3219(12) 0.4548(7) 0.1425(5)
O32 O 0.3551(11) 0.6081(7) 0.1745(3)
O35 O 0.1584(9) 0.5645(5) 0.1928(3)
O36 O 0.4319(10) 0.5943(7) 0.7382(4)
O39 O 0.6101(10) 0.4672(6) 0.7478(3)
O41 O 0.7132(11) 0.5657(6) 0.7144(3)
O42 O 0.2132(11) 0.0657(6) 0.7144(3)
O44 O 0.8301(9) 0.4855(6) 0.7688(3)
O45 O 0.1958(14) 0.2512(6) 0.1386(4)
O46 O 0.3777(11) 0.2931(8) 0.1264(4)
O50 O 0.1601(19) 0.6267(11) 0.3152(7)
H13 H 0.456114 0.461422 0.374691
H14 H 0.485573 0.545807 0.383676
S1 S 0.9340(3) 0.2508(2) 0.30252(12)
O3 O 0.9834(11) 0.1843(8) 0.2907(5)
O4 O 0.9155(11) 0.2971(9) 0.2601(4)
O5 O 0.8305(11) 0.2445(10) 0.3289(6)
H1 H 0.9912 0.2565 0.4072
K9 K 0.8532(4) 0.0363(2) 0.26965(17)
O47 O 0.8441(13) 0.6103(7) 0.1645(4)
O48 O 0.7957(11) 0.5073(6) 0.1147(4)
O49 O 0.895(3) 0.3089(19) 0.1354(11)
O33_2 O 0.1746(15) 0.6834(6) 0.1702(4)
O38_2 O 0.0207(13) 0.8001(7) 0.2358(4)
K3_2 K 0.2284(5) 0.8028(3) 0.1942(2)
S2_2 S 0.2215(4) 0.6143(2) 0.16482(10)
S4_2 S 0.7658(3) 0.57873(18) 0.12539(10)
O18_2 O 0.6958(14) 0.7512(6) 0.1386(4)
O19_2 O 0.8777(11) 0.7931(8) 0.1264(4)
O20_2 O 0.6312(13) 0.5835(6) 0.1299(4)
O24_2 O 0.395(3) 0.8089(19) 0.1354(11)
C9_2 C 0.1394(11) 0.6291(6) 0.0173(4)
C10_2 C 0.1618(12) 0.6440(7) 0.0665(4)
H4_2 H 0.1605 0.6914 0.0767
C11_2 C 0.1867(10) 0.5903(7) 0.1021(4)
C12_2 C 0.1815(11) 0.5207(6) 0.0871(4)
C13_2 C 0.1469(14) 0.5032(8) 0.0374(4)
H5_2 H 0.1356 0.4557 0.0277
C14_2 C 0.1297(13) 0.5573(6) 0.0031(4)
C15_2 C 0.2109(11) 0.4595(8) 0.1229(4)
C25_2 C 0.7962(12) 0.5910(6) 0.0295(4)
H10_2 H 0.8027 0.5414 0.0305
C26_2 C 0.7859(12) 0.6302(7) 0.0718(4)
C27_2 C 0.7913(12) 0.7012(6) 0.0706(3)
C28_2 C 0.8029(14) 0.7383(8) 0.0247(4)
H11_2 H 0.8129 0.7877 0.0242
C30_2 C 0.7903(17) 0.7514(7) 0.1161(4)
Cd3_2 Cd 0.78176(5) 0.85052(4) 0.18692(3)
K13_2 K 0.4631(3) 0.9557(2) 0.19198(14)
O26_2 O 0.7031(12) 0.7907(6) 0.2534(4)
O29_2 O 0.4155(11) 0.7971(9) 0.2601(4)
O42_2 O 0.2132(11) 0.9343(6) 0.2144(3)
S3_2 S 0.7111(3) 0.51698(18) 0.75545(10)
O1_2 O 0.2031(12) 0.7093(6) 0.7534(4)
O2_2 O 0.1529(12) 0.5944(7) 0.7540(3)
O6_2 O 0.0917(12) 0.7475(5) 0.9945(3)
O13_2 O 0.5207(13) 0.6999(7) 0.7358(4)
O17_2 O 0.8619(10) 0.5235(5) 0.9429(3)
O23_2 O 0.4215(16) 0.4895(10) 0.8699(7)
C1_2 C 0.1463(16) 0.6613(7) 0.8261(4)
C2_2 C 0.0441(12) 0.7044(7) 0.8429(4)
C3_2 C 0.0470(15) 0.7122(7) 0.8956(4)
C4_2 C 0.1261(10) 0.6765(7) 0.9277(4)
C5_2 C 0.2131(14) 0.6354(8) 0.9095(4)
H2_2 H 0.2704 0.6109 0.9320
C6_2 C 0.2219(13) 0.6275(8) 0.8598(4)
H3_2 H 0.2827 0.5976 0.8502
C7_2 C 0.1626(14) 0.6524(8) 0.7746(4)
C8_2 C 0.1144(11) 0.6878(7) 0.9797(4)
H6_2 H 0.1113 0.5459 0.9698
C16_2 C 0.5861(11) 0.6204(6) 0.8022(3)
C17_2 C 0.6763(11) 0.5744(7) 0.8069(4)
C18_2 C 0.7512(11) 0.5583(7) 0.8510(4)
H7_2 H 0.8143 0.5242 0.8527
C19_2 C 0.7269(11) 0.5958(6) 0.8925(4)
C20_2 C 0.6319(13) 0.6473(7) 0.8890(4)
H8_2 H 0.6139 0.6715 0.9168
C21_2 C 0.5680(11) 0.6608(7) 0.8446(4)
H9_2 H 0.5099 0.6977 0.8413
C22_2 C 0.5095(15) 0.6401(7) 0.7557(5)
C23_2 C 0.8017(13) 0.5790(8) 0.9387(4)
C24_2 C 0.7967(10) 0.6293(6) 0.9840(4)
C29_2 C 0.7988(11) 0.7004(6) 0.9838(3)
H12_2 H 0.7973 0.7241 0.9539
K15_2 K 0.7284(5) 0.6972(3) 0.6942(2)
K17_2 K 0.0733(4) 0.8242(2) 0.70253(13)
K20_2 K 0.4872(5) 0.8421(2) 0.73897(17)
O45_2 O 0.1958(14) 0.7488(6) 0.6386(4)
O46_2 O 0.3777(11) 0.7069(8) 0.6264(4)
H13_2 H 0.456114 0.538578 0.874691
H14_2 H 0.485573 0.454193 0.883676
S1_2 S 0.9340(3) 0.7492(2) 0.80252(12)
O3_2 O 0.9834(11) 0.8157(8) 0.7907(5)
O4_2 O 0.9155(11) 0.7029(9) 0.7601(4)
O5_2 O 0.8305(11) 0.7555(10) 0.8289(6)
H1_2 H 0.9912 0.7435 0.9072
K9_2 K 0.8532(4) 0.9637(2) 0.76965(17)
O49_2 O 0.895(3) 0.6911(19) 0.6354(11)
K6_2 K 0.0351(7) 0.0266(5) 0.6489(4)
O14_2 O 0.1101(10) 0.0328(6) 0.2478(3)
O16_2 O 0.3301(9) 0.0145(6) 0.2688(3)
S3_3 S 0.2111(3) 0.98302(18) 0.25545(10)
S4_3 S 0.2658(3) 0.92127(18) 0.62539(10)
O17_3 O 0.3619(10) 0.9765(5) 0.4429(3)
O20_3 O 0.1312(13) 0.9165(6) 0.6299(4)
O21_2 O 0.3441(13) 0.8897(7) 0.6645(4)
O22_2 O 0.2957(11) 0.9927(6) 0.6147(4)
O25_2 O 0.6601(19) 0.8733(11) 0.8152(7)
C16_3 C 0.0861(11) 0.8796(6) 0.3022(3)
C17_3 C 0.1763(11) 0.9256(7) 0.3069(4)
C18_3 C 0.2512(11) 0.9417(7) 0.3510(4)
H7_3 H 0.3143 0.9758 0.3527
C19_3 C 0.2269(11) 0.9042(6) 0.3925(4)
C20_3 C 0.1319(13) 0.8527(7) 0.3890(4)
H8_3 H 0.1139 0.8285 0.4168
C21_3 C 0.0680(11) 0.8392(7) 0.3446(4)
H9_3 H 0.0099 0.8023 0.3413
C22_3 C 0.0095(15) 0.8599(7) 0.2557(5)
C23_3 C 0.3017(13) 0.9210(8) 0.4387(4)
C24_3 C 0.2967(10) 0.8707(6) 0.4840(4)
C25_3 C 0.2962(12) 0.9090(6) 0.5295(4)
H10_3 H 0.3027 0.9586 0.5305
C26_3 C 0.2859(12) 0.8698(7) 0.5718(4)
C27_3 C 0.2913(12) 0.7988(6) 0.5706(3)
C28_3 C 0.3029(14) 0.7617(8) 0.5247(4)
H11_3 H 0.3129 0.7123 0.5242
C29_3 C 0.2988(11) 0.7996(6) 0.4838(3)
H12_3 H 0.2973 0.7759 0.4539
C30_3 C 0.2903(17) 0.7486(7) 0.6161(4)
K21_2 K 0.0351(7) 0.9734(5) 0.1489(4)
O33_3 O 0.6746(15) 0.8166(6) 0.6702(4)
O34_2 O 0.6584(9) 0.9355(5) 0.6928(3)
O39_2 O 0.1101(10) 0.9672(6) 0.7478(3)
O44_2 O 0.3301(9) 0.9855(6) 0.7688(3)
O7_2 O 0.6300(11) 0.0862(7) 0.6291(4)
O8_2 O 0.8219(12) 0.0452(7) 0.6425(5)
O23_3 O 0.9215(16) 0.0105(10) 0.3699(7)
H5_3 H 0.6356 0.0443 0.5277
C15_3 C 0.7109(11) 0.0405(8) 0.6229(4)
O32_2 O 0.8551(11) 0.1081(7) 0.1745(3)
O35_2 O 0.6584(9) 0.0645(5) 0.1928(3)
O36_2 O 0.9319(10) 0.0943(7) 0.7382(4)
O47_2 O 0.3441(13) 0.1103(7) 0.1645(4)
O48_2 O 0.2957(11) 0.0073(6) 0.1147(4)
O50_2 O 0.6601(19) 0.1267(11) 0.3152(7)
H14_3 H 0.985573 0.0458068 0.383676
S1_3 S 0.4340(3) 0.7508(2) 0.30252(12)
S2_3 S 0.7215(4) 0.8857(2) 0.66482(10)
O2_3 O 0.6529(12) 0.9056(7) 0.2540(3)
O5_3 O 0.3305(11) 0.7445(10) 0.3289(6)
O6_3 O 0.5917(12) 0.7525(5) 0.4945(3)
O9_2 O 0.8551(11) 0.8919(7) 0.6745(3)
O12_2 O 0.9319(10) 0.9057(7) 0.2382(4)
C1_3 C 0.6463(16) 0.8387(7) 0.3261(4)
C2_3 C 0.5441(12) 0.7956(7) 0.3429(4)
C3_3 C 0.5470(15) 0.7878(7) 0.3956(4)
H1_3 H 0.4912 0.7565 0.4072
C4_3 C 0.6261(10) 0.8235(7) 0.4277(4)
C5_3 C 0.7131(14) 0.8646(8) 0.4095(4)
H2_3 H 0.7704 0.8891 0.4320
C6_3 C 0.7219(13) 0.8725(8) 0.3598(4)
H3_3 H 0.7827 0.9024 0.3502
C7_3 C 0.6626(14) 0.8476(8) 0.2746(4)
C8_3 C 0.6144(11) 0.8122(7) 0.4797(4)
C9_3 C 0.6394(11) 0.8709(6) 0.5173(4)
C10_3 C 0.6618(12) 0.8560(7) 0.5665(4)
H4_3 H 0.6605 0.8086 0.5767
C11_3 C 0.6867(10) 0.9097(7) 0.6021(4)
C12_3 C 0.6815(11) 0.9793(6) 0.5871(4)
C13_3 C 0.6469(14) 0.9968(8) 0.5374(4)
C14_3 C 0.6297(13) 0.9427(6) 0.5031(4)
H6_3 H 0.6113 0.9541 0.4698
O30_2 O 0.6300(11) 0.9138(7) 0.1291(4)
O31_2 O 0.8219(12) 0.9548(7) 0.1425(5)
H13_3 H 0.956114 0.961422 0.374691
S4_4 S 0.2658(3) 0.07873(18) 0.12539(10)
O20_4 O 0.1312(13) 0.0835(6) 0.1299(4)
C25_4 C 0.2962(12) 0.0910(6) 0.0295(4)
H10_4 H 0.3027 0.0414 0.0305
C26_4 C 0.2859(12) 0.1302(7) 0.0718(4)
C27_4 C 0.2913(12) 0.2012(6) 0.0706(3)
C28_4 C 0.3029(14) 0.2383(8) 0.0247(4)
H11_4 H 0.3129 0.2877 0.0242
C30_4 C 0.2903(17) 0.2514(7) 0.1161(4)
O33_4 O 0.6746(15) 0.1834(6) 0.1702(4)
S3_4 S 0.2111(3) 0.01698(18) 0.75545(10)
O17_4 O 0.3619(10) 0.0235(5) 0.9429(3)
C16_4 C 0.0861(11) 0.1204(6) 0.8022(3)
C17_4 C 0.1763(11) 0.0744(7) 0.8069(4)
C18_4 C 0.2512(11) 0.0583(7) 0.8510(4)
H7_4 H 0.3143 0.0242 0.8527
C19_4 C 0.2269(11) 0.0958(6) 0.8925(4)
C20_4 C 0.1319(13) 0.1473(7) 0.8890(4)
H8_4 H 0.1139 0.1715 0.9168
C21_4 C 0.0680(11) 0.1608(7) 0.8446(4)
H9_4 H 0.0099 0.1977 0.8413
C22_4 C 0.0095(15) 0.1401(7) 0.7557(5)
C23_4 C 0.3017(13) 0.0790(8) 0.9387(4)
C24_4 C 0.2967(10) 0.1293(6) 0.9840(4)
C29_4 C 0.2988(11) 0.2004(6) 0.9838(3)
H12_4 H 0.2973 0.2241 0.9539
S2_4 S 0.7215(4) 0.1143(2) 0.16482(10)
C9_4 C 0.6394(11) 0.1291(6) 0.0173(4)
C10_4 C 0.6618(12) 0.1440(7) 0.0665(4)
H4_4 H 0.6605 0.1914 0.0767
C11_4 C 0.6867(10) 0.0903(7) 0.1021(4)
C12_4 C 0.6815(11) 0.0207(6) 0.0871(4)
C13_4 C 0.6469(14) 0.0032(8) 0.0374(4)
C14_4 C 0.6297(13) 0.0573(6) 0.0031(4)
S1_4 S 0.4340(3) 0.2492(2) 0.80252(12)
O2_4 O 0.6529(12) 0.0944(7) 0.7540(3)
O5_4 O 0.3305(11) 0.2555(10) 0.8289(6)
O6_4 O 0.5917(12) 0.2475(5) 0.9945(3)
C1_4 C 0.6463(16) 0.1613(7) 0.8261(4)
C2_4 C 0.5441(12) 0.2044(7) 0.8429(4)
C3_4 C 0.5470(15) 0.2122(7) 0.8956(4)
H1_4 H 0.4912 0.2435 0.9072
C4_4 C 0.6261(10) 0.1765(7) 0.9277(4)
C5_4 C 0.7131(14) 0.1354(8) 0.9095(4)
H2_4 H 0.7704 0.1109 0.9320
C6_4 C 0.7219(13) 0.1275(8) 0.8598(4)
H3_4 H 0.7827 0.0976 0.8502
C7_4 C 0.6626(14) 0.1524(8) 0.7746(4)
C8_4 C 0.6144(11) 0.1878(7) 0.9797(4)
H6_4 H 0.6113 0.0459 0.9698
H13_4 H 0.956114 0.0385784 0.874691
H5_4 H 0.6356 0.9557 0.0277
C15_4 C 0.7109(11) 0.9595(8) 0.1229(4)
O23_4 O 0.9215(16) 0.9895(10) 0.8699(7)
H14_4 H 0.985573 0.954193 0.883676
loop_
_geom_bond_atom_site_label_1
_geom_bond_atom_site_label_2
_geom_bond_site_symmetry_1
_geom_bond_site_symmetry_2
K8 O25 1_555 1_555
K8 O34 1_555 1_555
Cd1 O1 1_555 1_555
K1 O2 1_555 1_555
K3 O33 1_555 1_555
K4 O9 1_555 1_555
K5 O21 1_555 1_555
K6 O8 1_555 1_555
S2 O9 1_555 1_555
S3 O14 1_555 1_555
S4 O20 1_555 1_555
O1 C7 1_555 1_555
O2 Cd1 1_555 1_555
O6 C8 1_555 1_555
O7 C15 1_555 1_555
O8 C15 1_555 1_555
O9 K6 1_555 1_555
O33 S2 1_555 1_555
O34 S2 1_555 1_555
O12 Cd1 1_555 1_555
O13 C22 1_555 1_555
O14 K1 1_555 1_555
O15 S3 1_555 1_555
O16 S3 1_555 1_555
O17 C23 1_555 1_555
O18 K4 1_555 1_555
O19 C30 1_555 1_555
O20 K4 1_555 1_555
O21 S4 1_555 1_555
O22 K6 1_555 1_555
O23 K1 1_555 1_555
O24 K3 1_555 1_555
C1 C2 1_555 1_555
C3 C2 1_555 1_555
C4 C3 1_555 1_555
C5 C4 1_555 1_555
H2 C5 1_555 1_555
C6 C1 1_555 1_555
H3 C6 1_555 1_555
C7 O2 1_555 1_555
C8 C4 1_555 1_555
C9 C8 1_555 1_555
C10 C9 1_555 1_555
H4 C10 1_555 1_555
C11 S2 1_555 1_555
C12 C11 1_555 1_555
C13 C12 1_555 1_555
H5 C13 1_555 1_555
C14 C9 1_555 1_555
H6 C14 1_555 1_555
C15 C12 1_555 1_555
C16 C17 1_555 1_555
C17 S3 1_555 1_555
C18 C17 1_555 1_555
H7 C18 1_555 1_555
C19 C18 1_555 1_555
C20 C19 1_555 1_555
H8 C20 1_555 1_555
C21 C16 1_555 1_555
H9 C21 1_555 1_555
C22 O12 1_555 1_555
C23 C19 1_555 1_555
C24 C23 1_555 1_555
C25 C24 1_555 1_555
H10 C25 1_555 1_555
C26 S4 1_555 1_555
C27 C26 1_555 1_555
C28 C27 1_555 1_555
H11 C28 1_555 1_555
C29 C24 1_555 1_555
H12 C29 1_555 1_555
C30 O18 1_555 1_555
Cd2 O7 1_555 1_555
Cd3 O18 1_555 1_555
K8 O9 1_555 1_555
K10 O15 1_555 1_555
K12 O21 1_555 1_555
K13 O24 1_555 1_555
K15 O13 1_555 1_555
K16 O14 1_555 1_555
K17 O1 1_555 1_555
K19 O16 1_555 1_555
K20 O13 1_555 1_555
K21 O12 1_555 1_555
O26 K4 1_555 1_555
O27 K1 1_555 1_555
O28 K4 1_555 1_555
O29 K3 1_555 1_555
O30 Cd1 1_555 1_555
O31 Cd1 1_555 1_555
O32 K1 1_555 1_555
O35 K1 1_555 1_555
O36 K6 1_555 1_555
O38 K3 1_555 1_555
O39 K4 1_555 1_555
O41 K6 1_555 1_555
O42 K3 1_555 1_555
O44 K5 1_555 1_555
O45 Cd1 1_555 1_555
O46 Cd1 1_555 1_555
O50 K1 1_555 1_555
K1 O12 1_555 1_555
K4 O29 1_555 1_555
K6 O20 1_555 1_555
K6 O39 1_555 1_555
S4 O22 1_555 1_555
O8 Cd2 1_555 1_555
O14 K21 1_555 1_555
O15 K15 1_555 1_555
O15 K21 1_555 1_555
O16 K10 1_555 1_555
O19 Cd3 1_555 1_555
O22 K12 1_555 1_555
C1 C7 1_555 1_555
C5 C6 1_555 1_555
C10 C11 1_555 1_555
C13 C14 1_555 1_555
C16 C22 1_555 1_555
C20 C21 1_555 1_555
C25 C26 1_555 1_555
C27 C30 1_555 1_555
C28 C29 1_555 1_555
Cd2 O36 1_555 1_555
Cd3 O26 1_555 1_555
K8 O28 1_555 1_555
K8 O36 1_555 1_555
K8 O39 1_555 1_555
K12 O41 1_555 1_555
K12 O44 1_555 1_555
K13 O42 1_555 1_555
K16 O27 1_555 1_555
K16 O32 1_555 1_555
K17 O45 1_555 1_555
K21 O31 1_555 1_555
K21 O32 1_555 1_555
O23 H13 1_555 1_555
O23 H14 1_555 1_555
S1 O3 1_555 1_555
O3 K9 1_555 1_555
O4 S1 1_555 1_555
O5 S1 1_555 1_555
K15 O4 1_555 1_555
O47 K10 1_555 1_555
O48 K10 1_555 1_555
O49 K10 1_555 1_555
K15 O49 1_555 1_555
K3_2 O33_2 1_555 1_555
K19 O47 1_555 1_555
S2_2 O32 1_555 1_555
S4_2 O20_2 1_555 1_555
O30 C15_2 1_555 1_555
O31 C15_2 1_555 1_555
O33_2 S2_2 1_555 1_555
O35 S2_2 1_555 1_555
O18_2 K16 1_555 1_555
O19_2 C30_2 1_555 1_555
O20_2 K16 1_555 1_555
O47 S4_2 1_555 1_555
O48 K21 1_555 1_555
O24_2 K3_2 1_555 1_555
C10_2 C9_2 1_555 1_555
H4_2 C10_2 1_555 1_555
C11_2 S2_2 1_555 1_555
C12_2 C11_2 1_555 1_555
C13_2 C12_2 1_555 1_555
H5_2 C13_2 1_555 1_555
C14_2 C9_2 1_555 1_555
C15_2 C12_2 1_555 1_555
H10_2 C25_2 1_555 1_555
C26_2 S4_2 1_555 1_555
C27_2 C26_2 1_555 1_555
C28_2 C27_2 1_555 1_555
H11_2 C28_2 1_555 1_555
C30_2 O18_2 1_555 1_555
Cd3_2 O18_2 1_555 1_555
K13_2 O24_2 1_555 1_555
O26_2 K16 1_555 1_555
O29_2 K3_2 1_555 1_555
O38_2 K3_2 1_555 1_555
O42_2 K3_2 1_555 1_555
K16 O29_2 1_555 1_555
K21 O20_2 1_555 1_555
S4_2 O48 1_555 1_555
O19_2 Cd3_2 1_555 1_555
C10_2 C11_2 1_555 1_555
C13_2 C14_2 1_555 1_555
C25_2 C26_2 1_555 1_555
C27_2 C30_2 1_555 1_555
Cd3_2 O26_2 1_555 1_555
K13_2 O42_2 1_555 1_555
Cd2 O1_2 1_555 1_555
K8 O2_2 1_555 1_555
S3_2 O39 1_555 1_555
O1_2 C7_2 1_555 1_555
O2_2 Cd2 1_555 1_555
O6_2 C8_2 1_555 1_555
O13_2 C22_2 1_555 1_555
O41 S3_2 1_555 1_555
O44 S3_2 1_555 1_555
O17_2 C23_2 1_555 1_555
O23_2 K8 1_555 1_555
C1_2 C2_2 1_555 1_555
C3_2 C2_2 1_555 1_555
C4_2 C3_2 1_555 1_555
C5_2 C4_2 1_555 1_555
H2_2 C5_2 1_555 1_555
C6_2 C1_2 1_555 1_555
H3_2 C6_2 1_555 1_555
C7_2 O2_2 1_555 1_555
C8_2 C4_2 1_555 1_555
C16_2 C17_2 1_555 1_555
C17_2 S3_2 1_555 1_555
C18_2 C17_2 1_555 1_555
H7_2 C18_2 1_555 1_555
C19_2 C18_2 1_555 1_555
C20_2 C19_2 1_555 1_555
H8_2 C20_2 1_555 1_555
C21_2 C16_2 1_555 1_555
H9_2 C21_2 1_555 1_555
C22_2 O36 1_555 1_555
C23_2 C19_2 1_555 1_555
C24_2 C23_2 1_555 1_555
C29_2 C24_2 1_555 1_555
H12_2 C29_2 1_555 1_555
K15_2 O13_2 1_555 1_555
K17_2 O1_2 1_555 1_555
K20_2 O13_2 1_555 1_555
O45_2 Cd2 1_555 1_555
O46_2 Cd2 1_555 1_555
O41 K15_2 1_555 1_555
C1_2 C7_2 1_555 1_555
C5_2 C6_2 1_555 1_555
C16_2 C22_2 1_555 1_555
C20_2 C21_2 1_555 1_555
K17_2 O45_2 1_555 1_555
O23_2 H13_2 1_555 1_555
O23_2 H14_2 1_555 1_555
S1_2 O3_2 1_555 1_555
O3_2 K9_2 1_555 1_555
O4_2 S1_2 1_555 1_555
O5_2 S1_2 1_555 1_555
K15_2 O4_2 1_555 1_555
O49_2 K12 1_555 1_555
K15_2 O49_2 1_555 1_555
K17 O14_2 1_555 1_555
K20 O16_2 1_555 1_555
O42 K6_2 1_555 1_555
K20_2 O21_2 1_555 1_555
S4_3 O20_3 1_555 1_555
O38_2 C22_3 1_555 1_555
O42_2 S3_3 1_555 1_555
O17_3 C23_3 1_555 1_555
O46_2 C30_3 1_555 1_555
O20_3 K17_2 1_555 1_555
O21_2 S4_3 1_555 1_555
O25_2 K20_2 1_555 1_555
C16_3 C17_3 1_555 1_555
C17_3 S3_3 1_555 1_555
C18_3 C17_3 1_555 1_555
H7_3 C18_3 1_555 1_555
C19_3 C18_3 1_555 1_555
C20_3 C19_3 1_555 1_555
H8_3 C20_3 1_555 1_555
C21_3 C16_3 1_555 1_555
H9_3 C21_3 1_555 1_555
C23_3 C19_3 1_555 1_555
C24_3 C23_3 1_555 1_555
C25_3 C24_3 1_555 1_555
H10_3 C25_3 1_555 1_555
C26_3 S4_3 1_555 1_555
C27_3 C26_3 1_555 1_555
C28_3 C27_3 1_555 1_555
H11_3 C28_3 1_555 1_555
C29_3 C24_3 1_555 1_555
H12_3 C29_3 1_555 1_555
C30_3 O45_2 1_555 1_555
K9_2 O25_2 1_555 1_555
O33_3 K20_2 1_555 1_555
O34_2 K20_2 1_555 1_555
O39_2 K17_2 1_555 1_555
O44_2 K20_2 1_555 1_555
S4_3 O22_2 1_555 1_555
O42_2 K21_2 1_555 1_555
C16_3 C22_3 1_555 1_555
C20_3 C21_3 1_555 1_555
C25_3 C26_3 1_555 1_555
C27_3 C30_3 1_555 1_555
C28_3 C29_3 1_555 1_555
K9_2 O34_2 1_555 1_555
O7_2 C15_3 1_555 1_555
O8_2 C15_3 1_555 1_555
O23_3 K9 1_555 1_555
Cd3 O7_2 1_555 1_555
K13 O7_2 1_555 1_555
O32_2 K9 1_555 1_555
O35_2 K9 1_555 1_555
O50_2 K9 1_555 1_555
O8_2 Cd3 1_555 1_555
Cd3 O36_2 1_555 1_555
O23_3 H14_3 1_555 1_555
K13_2 O2_3 1_555 1_555
K15_2 O33_3 1_555 1_555
S1_3 O27 1_555 1_555
S2_3 O9_2 1_555 1_555
O26_2 C7_3 1_555 1_555
O2_3 Cd3_2 1_555 1_555
O29_2 S1_3 1_555 1_555
O5_3 S1_3 1_555 1_555
O6_3 C8_3 1_555 1_555
O33_3 S2_3 1_555 1_555
O34_2 S2_3 1_555 1_555
O12_2 Cd3_2 1_555 1_555
C1_3 C2_3 1_555 1_555
C2_3 S1_3 1_555 1_555
C3_3 C2_3 1_555 1_555
H1_3 C3_3 1_555 1_555
C4_3 C3_3 1_555 1_555
C5_3 C4_3 1_555 1_555
H2_3 C5_3 1_555 1_555
C6_3 C1_3 1_555 1_555
H3_3 C6_3 1_555 1_555
C7_3 O2_3 1_555 1_555
C8_3 C4_3 1_555 1_555
C9_3 C8_3 1_555 1_555
C10_3 C9_3 1_555 1_555
H4_3 C10_3 1_555 1_555
C11_3 S2_3 1_555 1_555
C12_3 C11_3 1_555 1_555
C13_3 C12_3 1_555 1_555
C14_3 C9_3 1_555 1_555
H6_3 C14_3 1_555 1_555
K9_2 O9_2 1_555 1_555
O30_2 Cd3_2 1_555 1_555
O31_2 Cd3_2 1_555 1_555
K13_2 O30_2 1_555 1_555
C1_3 C7_3 1_555 1_555
C5_3 C6_3 1_555 1_555
C10_3 C11_3 1_555 1_555
C13_3 C14_3 1_555 1_555
K20 O47_2 1_555 1_555
S4_4 O20_4 1_555 1_555
O46 C30_4 1_555 1_555
O20_4 K17 1_555 1_555
O47_2 S4_4 1_555 1_555
O50_2 K20 1_555 1_555
H10_4 C25_4 1_555 1_555
C26_4 S4_4 1_555 1_555
C27_4 C26_4 1_555 1_555
C28_4 C27_4 1_555 1_555
H11_4 C28_4 1_555 1_555
C30_4 O45 1_555 1_555
O33_4 K20 1_555 1_555
O35_2 K20 1_555 1_555
S4_4 O48_2 1_555 1_555
C25_4 C26_4 1_555 1_555
C27_4 C30_4 1_555 1_555
O38 C22_4 1_555 1_555
O42 S3_4 1_555 1_555
O17_4 C23_4 1_555 1_555
C16_4 C17_4 1_555 1_555
C17_4 S3_4 1_555 1_555
C18_4 C17_4 1_555 1_555
H7_4 C18_4 1_555 1_555
C19_4 C18_4 1_555 1_555
C20_4 C19_4 1_555 1_555
H8_4 C20_4 1_555 1_555
C21_4 C16_4 1_555 1_555
H9_4 C21_4 1_555 1_555
C23_4 C19_4 1_555 1_555
C24_4 C23_4 1_555 1_555
C29_4 C24_4 1_555 1_555
H12_4 C29_4 1_555 1_555
C16_4 C22_4 1_555 1_555
C20_4 C21_4 1_555 1_555
K15 O33_4 1_555 1_555
S2_4 O32_2 1_555 1_555
O33_4 S2_4 1_555 1_555
O35_2 S2_4 1_555 1_555
C10_4 C9_4 1_555 1_555
H4_4 C10_4 1_555 1_555
C11_4 S2_4 1_555 1_555
C12_4 C11_4 1_555 1_555
C13_4 C12_4 1_555 1_555
C14_4 C9_4 1_555 1_555
C10_4 C11_4 1_555 1_555
C13_4 C14_4 1_555 1_555
K13 O2_4 1_555 1_555
S1_4 O28 1_555 1_555
O26 C7_4 1_555 1_555
O2_4 Cd3 1_555 1_555
O29 S1_4 1_555 1_555
O5_4 S1_4 1_555 1_555
O6_4 C8_4 1_555 1_555
C1_4 C2_4 1_555 1_555
C2_4 S1_4 1_555 1_555
C3_4 C2_4 1_555 1_555
H1_4 C3_4 1_555 1_555
C4_4 C3_4 1_555 1_555
C5_4 C4_4 1_555 1_555
H2_4 C5_4 1_555 1_555
C6_4 C1_4 1_555 1_555
H3_4 C6_4 1_555 1_555
C7_4 O2_4 1_555 1_555
C8_4 C4_4 1_555 1_555
C1_4 C7_4 1_555 1_555
C5_4 C6_4 1_555 1_555
O30_2 C15_4 1_555 1_555
O31_2 C15_4 1_555 1_555
O23_4 K9_2 1_555 1_555
O23_4 H14_4 1_555 1_555

#END
