
###############################################################################
#
# This file contains modified crystal structure data generated from the
# MOF subset of the Cambridge Structural Database (CSD) v543 
# hosted by the Cambridge Crystallographic Data Centre (CCDC).
#
# This work is licensed under the Creative Commons
# Attribution-NonCommercial-ShareAlike 4.0 International License.
# To view a copy of this license, visit
# http://creativecommons.org/licenses/by-nc-sa/4.0/
# or send a letter to
# Creative Commons, PO Box 1866, Mountain View, CA 94042, USA.
#
# CIF created using the CSD Python API on 29 September 2022
# The structure has been converted into the P1 space group
# The structure has a 3D framework
# The original CSD entry VIBFAQ is in the tetragonal crystal system
# The framework has been calculated to contain at least 10.0% void space
# The void calculation uses a probe of radius 1.32A, grid spacing 0.4
# H atom positions have been added when not included in the experimental data
#
###############################################################################

data_VIBFAQ
_chemical_formula_moiety         '(C352 H208 N32 Ni18 O104 P32 Zr14)n'
_symmetry_cell_setting           triclinic
_symmetry_space_group_name_H-M   'P 1'
_symmetry_Int_Tables_number      1
_space_group_name_Hall           'P 1'
loop_
_symmetry_equiv_pos_site_id
_symmetry_equiv_pos_as_xyz
1 x,y,z
_cell_length_a                   44.7776(58)
_cell_length_b                   44.7776(58)
_cell_length_c                   7.6581(39)
_cell_angle_alpha                90
_cell_angle_beta                 90
_cell_angle_gamma                90
_cell_volume                     15354.7
loop_
_atom_site_label
_atom_site_type_symbol
_atom_site_fract_x
_atom_site_fract_y
_atom_site_fract_z
O12 O 0.484077 0.204614 0.079706
Zr8 Zr 0.5014(13) 0.24396(42) 0.13317
O16 O 0.7600(16) 0.0202(10) 0.13383
O19 O 0.226412 0.037933 0.004368
H24 H 0.437172 0.146732 0.051502
Zr1 Zr 0.24396(42) 0.0014(13) 0.88317
O1 O 0.2400(16) 0.0202(10) 0.63383
Ni1 Ni 0.500 0 0.73067
O8 O 0.734302 0.034914 0.784020
O9 O 0.716557 0.012115 0.454159
O10 O 0.708665 0.063471 0.549241
P3 P 0.707450 0.030691 0.631585
C23 C 0.605631 0.023654 0.696565
C24 C 0.617887 0.036137 0.554006
C25 C 0.648722 0.038598 0.538671
C26 C 0.667590 0.028757 0.665857
C27 C 0.655481 0.017476 0.811682
C28 C 0.624518 0.014885 0.826741
C29 C 0.57418 0.01588 0.72871
O11 O 0.462067 0.226412 0.754368
O13 O 0.425064 0.206038 0.984160
P4 P 0.459443 0.201442 0.912611
C30 C 0.480583 0.104613 0.780916
C31 C 0.460747 0.111915 0.915799
C32 C 0.452282 0.141316 0.944672
C33 C 0.463129 0.16387 0.836921
C34 C 0.482693 0.156956 0.700330
C35 C 0.491129 0.127296 0.670840
C36 C 0.48388 0.07341 0.73863
C37 C 0.51345 0.06441 0.74571
C38 C 0.53662 0.08454 0.76352
C39 C 0.55354 0.03887 0.7396
C40 C 0.56231 0.06824 0.75809
N3 N 0.52329 0.03582 0.73381
C41 C 0.43538 0.01331 0.7172
C42 C 0.41531 0.03643 0.69736
C43 C 0.46112 0.05288 0.72034
C44 C 0.43176 0.06173 0.69947
N4 N 0.46411 0.02287 0.72702
Zr6 Zr 0.75604(42) 0.0014(13) 0.38317
Zr7 Zr 0.4986(13) 0.24396(42) 0.63317
O17 O 0.283443 0.012115 0.954159
O21 O 0.795386 0.015923 0.829706
H3 H 0.603559 0.0443864 0.449718
H7 H 0.658083 0.048697 0.421457
H11 H 0.669822 0.0103171 0.918629
H14 H 0.615137 0.00557405 0.946111
H18 H 0.505884 0.121832 0.562405
H19 H 0.491353 0.174656 0.616984
H20 H 0.585078 0.0766652 0.766596
H21 H 0.534738 0.108645 0.778854
H22 H 0.410767 0.202226 0.887578
H23 H 0.451864 0.0943052 0.998994
H25 H 0.423536 0.0845208 0.687191
H26 H 0.39118 0.0346606 0.682962
O6 O 0.515923 0.795386 0.079706
Zr3 Zr 0.4986(13) 0.75604(42) 0.13317
O15 O 0.2400(16) 0.9798(10) 0.13383
O20 O 0.773588 0.962067 0.004368
H4 H 0.562828 0.853268 0.051502
O2 O 0.265698 0.965086 0.784020
O3 O 0.283443 0.987885 0.454159
O4 O 0.291335 0.936529 0.549241
P1 P 0.292550 0.969309 0.631585
C1 C 0.394369 0.976346 0.696565
C2 C 0.382113 0.963863 0.554006
C3 C 0.351278 0.961402 0.538671
C4 C 0.332410 0.971243 0.665857
C5 C 0.344519 0.982524 0.811682
C6 C 0.375482 0.985115 0.826741
C7 C 0.42582 0.98412 0.72871
O5 O 0.537933 0.773588 0.754368
O7 O 0.574936 0.793962 0.984160
P2 P 0.540557 0.798558 0.912611
C8 C 0.519417 0.895387 0.780916
C9 C 0.539253 0.888085 0.915799
C10 C 0.547718 0.858684 0.944672
C11 C 0.536871 0.83613 0.836921
C12 C 0.517307 0.843044 0.700330
C13 C 0.508871 0.872704 0.670840
C14 C 0.51612 0.92659 0.73863
C15 C 0.48655 0.93559 0.74571
C16 C 0.46338 0.91546 0.76352
C17 C 0.44646 0.96113 0.7396
C18 C 0.43769 0.93176 0.75809
N1 N 0.47671 0.96418 0.73381
C19 C 0.56462 0.98669 0.7172
C20 C 0.58469 0.96357 0.69736
C21 C 0.53888 0.94712 0.72034
C22 C 0.56824 0.93827 0.69947
N2 N 0.53589 0.97713 0.72702
Ni1_2 Ni 0.500 1 0.73067
Zr2 Zr 0.75604(42) 0.9986(13) 0.88317
O14 O 0.7600(16) 0.9798(10) 0.63383
Zr4 Zr 0.5014(13) 0.75604(42) 0.63317
Zr5 Zr 0.24396(42) 0.9986(13) 0.38317
O18 O 0.716557 0.987885 0.954159
O22 O 0.204614 0.984077 0.829706
H1 H 0.494116 0.878168 0.562405
H2 H 0.396441 0.955614 0.449718
H5 H 0.465262 0.891355 0.778854
H6 H 0.414922 0.923335 0.766596
H8 H 0.508647 0.825344 0.616984
H9 H 0.60882 0.965339 0.682962
H10 H 0.576464 0.915479 0.687191
H12 H 0.589233 0.797774 0.887578
H13 H 0.330178 0.989683 0.918629
H15 H 0.384863 0.994426 0.946111
H16 H 0.548136 0.905695 0.998994
H17 H 0.341917 0.951303 0.421457
Zr1_2 Zr 0.25604(42) 0.4986(13) 0.38317
O1_2 O 0.2600(16) 0.4798(10) 0.13383
O2_2 O 0.234302 0.534914 0.284020
O4_2 O 0.208665 0.563471 0.049241
P1_2 P 0.207450 0.530691 0.131585
C1_2 C 0.105631 0.523654 0.196565
C2_2 C 0.117887 0.536137 0.054006
C3_2 C 0.148722 0.538598 0.038671
C4_2 C 0.167590 0.528757 0.165857
C5_2 C 0.155481 0.517476 0.311682
C6_2 C 0.124518 0.514885 0.326741
C7_2 C 0.07418 0.51588 0.22871
C15_2 C 0.01345 0.56441 0.24571
C16_2 C 0.03662 0.58454 0.26352
C17_2 C 0.05354 0.53887 0.2396
C18_2 C 0.06231 0.56824 0.25809
N1_2 N 0.02329 0.53582 0.23381
Ni1_3 Ni 0.000 0.5 0.23067
O11_2 O 0.037933 0.273588 0.254368
O12_2 O 0.015923 0.295386 0.579706
O13_2 O 0.074936 0.293962 0.484160
P4_2 P 0.040557 0.298558 0.412611
C30_2 C 0.019417 0.395387 0.280916
C31_2 C 0.039253 0.388085 0.415799
C32_2 C 0.047718 0.358684 0.444672
C33_2 C 0.036871 0.33613 0.336921
C34_2 C 0.017307 0.343044 0.200330
C35_2 C 0.008871 0.372704 0.170840
C36_2 C 0.01612 0.42659 0.23863
C41_2 C 0.06462 0.48669 0.2172
C42_2 C 0.08469 0.46357 0.19736
C43_2 C 0.03888 0.44712 0.22034
C44_2 C 0.06824 0.43827 0.19947
N4_2 N 0.03589 0.47713 0.22702
Zr3_2 Zr 0.0014(13) 0.74396(42) 0.63317
Zr7_2 Zr 0.0014(13) 0.25604(42) 0.13317
O15_2 O 0.2600(16) 0.5202(10) 0.63383
O17_2 O 0.216557 0.487885 0.454159
O19_2 O 0.273588 0.462067 0.504368
O22_2 O 0.295386 0.515923 0.329706
H1_2 H 0.00588367 0.621832 0.0624051
H5_2 H 0.0347376 0.608645 0.278854
H6_2 H 0.0850778 0.576665 0.266596
H13_2 H 0.169822 0.510317 0.418629
H15_2 H 0.115137 0.505574 0.446111
H19_2 H 0.0086471 0.325344 0.116984
H22_2 H 0.0892333 0.297774 0.387578
H23_2 H 0.0481364 0.405695 0.498994
H24_2 H 0.0628283 0.353268 0.551502
H25_2 H 0.0764644 0.415479 0.187191
H26_2 H 0.10882 0.465339 0.182962
O3_2 O 0.216557 0.512115 0.954159
Zr5_2 Zr 0.25604(42) 0.5014(13) 0.88317
H2_2 H 0.103559 0.544386 0.949718
H17_2 H 0.158083 0.548697 0.921457
O5_2 O 0.962067 0.726412 0.254368
O6_2 O 0.984077 0.704614 0.579706
O7_2 O 0.925064 0.706038 0.484160
P2_2 P 0.959443 0.701442 0.412611
C8_2 C 0.980583 0.604613 0.280916
C9_2 C 0.960747 0.611915 0.415799
C10_2 C 0.952282 0.641316 0.444672
C11_2 C 0.963129 0.66387 0.336921
C12_2 C 0.982693 0.656956 0.200330
C13_2 C 0.991129 0.627296 0.170840
C14_2 C 0.98388 0.57341 0.23863
C19_2 C 0.93538 0.51331 0.2172
C20_2 C 0.91531 0.53643 0.19736
C21_2 C 0.96112 0.55288 0.22034
C22_2 C 0.93176 0.56173 0.19947
N2_2 N 0.96411 0.52287 0.22702
Ni1_4 Ni 1.000 0.5 0.23067
O8_2 O 0.765698 0.465086 0.284020
O10_2 O 0.791335 0.436529 0.049241
P3_2 P 0.792550 0.469309 0.131585
C23_2 C 0.894369 0.476346 0.196565
C24_2 C 0.882113 0.463863 0.054006
C25_2 C 0.851278 0.461402 0.038671
C26_2 C 0.832410 0.471243 0.165857
C27_2 C 0.844519 0.482524 0.311682
C28_2 C 0.875482 0.485115 0.326741
C29_2 C 0.92582 0.48412 0.22871
C37_2 C 0.98655 0.43559 0.24571
C38_2 C 0.96338 0.41546 0.26352
C39_2 C 0.94646 0.46113 0.2396
C40_2 C 0.93769 0.43176 0.25809
N3_2 N 0.97671 0.46418 0.23381
Zr2_2 Zr 0.74396(42) 0.5014(13) 0.38317
O14_2 O 0.7400(16) 0.5202(10) 0.13383
Zr4_2 Zr 0.9986(13) 0.74396(42) 0.13317
Zr8_2 Zr 0.9986(13) 0.25604(42) 0.63317
O16_2 O 0.7400(16) 0.4798(10) 0.63383
O18_2 O 0.783443 0.512115 0.454159
O20_2 O 0.726412 0.537933 0.504368
O21_2 O 0.704614 0.484077 0.329706
H4_2 H 0.937172 0.646732 0.551502
H8_2 H 0.991353 0.674656 0.116984
H9_2 H 0.89118 0.534661 0.182962
H10_2 H 0.923536 0.584521 0.187191
H11_2 H 0.830178 0.489683 0.418629
H12_2 H 0.910767 0.702226 0.387578
H14_2 H 0.884863 0.494426 0.446111
H16_2 H 0.951864 0.594305 0.498994
H18_2 H 0.994116 0.378168 0.0624051
H20_2 H 0.914922 0.423335 0.266596
H21_2 H 0.965262 0.391355 0.278854
O9_2 O 0.783443 0.487885 0.954159
Zr6_2 Zr 0.74396(42) 0.4986(13) 0.88317
H3_2 H 0.896441 0.455614 0.949718
H7_2 H 0.841917 0.451303 0.921457
O12_3 O 0.015923 0.704614 0.079706
O19_3 O 0.273588 0.537933 0.004368
H24_3 H 0.0628283 0.646732 0.051502
O2_3 O 0.234302 0.465086 0.784020
O4_3 O 0.208665 0.436529 0.549241
P1_3 P 0.207450 0.469309 0.631585
C1_3 C 0.105631 0.476346 0.696565
C2_3 C 0.117887 0.463863 0.554006
C3_3 C 0.148722 0.461402 0.538671
C4_3 C 0.167590 0.471243 0.665857
C5_3 C 0.155481 0.482524 0.811682
C6_3 C 0.124518 0.485115 0.826741
C7_3 C 0.07418 0.48412 0.72871
C15_3 C 0.01345 0.43559 0.74571
C16_3 C 0.03662 0.41546 0.76352
C17_3 C 0.05354 0.46113 0.7396
C18_3 C 0.06231 0.43176 0.75809
N1_3 N 0.02329 0.46418 0.73381
Ni1_5 Ni 0.000 0.5 0.73067
O11_3 O 0.037933 0.726412 0.754368
O13_3 O 0.074936 0.706038 0.984160
P4_3 P 0.040557 0.701442 0.912611
C30_3 C 0.019417 0.604613 0.780916
C31_3 C 0.039253 0.611915 0.915799
C32_3 C 0.047718 0.641316 0.944672
C33_3 C 0.036871 0.66387 0.836921
C34_3 C 0.017307 0.656956 0.700330
C35_3 C 0.008871 0.627296 0.670840
C36_3 C 0.01612 0.57341 0.73863
C41_3 C 0.06462 0.51331 0.7172
C42_3 C 0.08469 0.53643 0.69736
C43_3 C 0.03888 0.55288 0.72034
C44_3 C 0.06824 0.56173 0.69947
N4_3 N 0.03589 0.52287 0.72702
O22_3 O 0.295386 0.484077 0.829706
H1_3 H 0.00588367 0.378168 0.562405
H2_3 H 0.103559 0.455614 0.449718
H5_3 H 0.0347376 0.391355 0.778854
H6_3 H 0.0850778 0.423335 0.766596
H13_3 H 0.169822 0.489683 0.918629
H15_3 H 0.115137 0.494426 0.946111
H17_3 H 0.158083 0.451303 0.421457
H19_3 H 0.0086471 0.674656 0.616984
H22_3 H 0.0892333 0.702226 0.887578
H23_3 H 0.0481364 0.594305 0.998994
H25_3 H 0.0764644 0.584521 0.687191
H26_3 H 0.10882 0.534661 0.682962
O6_3 O 0.984077 0.295386 0.079706
O20_3 O 0.726412 0.462067 0.004368
H4_3 H 0.937172 0.353268 0.051502
O5_3 O 0.962067 0.273588 0.754368
O7_3 O 0.925064 0.293962 0.984160
P2_3 P 0.959443 0.298558 0.912611
C8_3 C 0.980583 0.395387 0.780916
C9_3 C 0.960747 0.388085 0.915799
C10_3 C 0.952282 0.358684 0.944672
C11_3 C 0.963129 0.33613 0.836921
C12_3 C 0.982693 0.343044 0.700330
C13_3 C 0.991129 0.372704 0.670840
C14_3 C 0.98388 0.42659 0.73863
C19_3 C 0.93538 0.48669 0.7172
C20_3 C 0.91531 0.46357 0.69736
C21_3 C 0.96112 0.44712 0.72034
C22_3 C 0.93176 0.43827 0.69947
N2_3 N 0.96411 0.47713 0.72702
Ni1_6 Ni 1.000 0.5 0.73067
O8_3 O 0.765698 0.534914 0.784020
O10_3 O 0.791335 0.563471 0.549241
P3_3 P 0.792550 0.530691 0.631585
C23_3 C 0.894369 0.523654 0.696565
C24_3 C 0.882113 0.536137 0.554006
C25_3 C 0.851278 0.538598 0.538671
C26_3 C 0.832410 0.528757 0.665857
C27_3 C 0.844519 0.517476 0.811682
C28_3 C 0.875482 0.514885 0.826741
C29_3 C 0.92582 0.51588 0.72871
C37_3 C 0.98655 0.56441 0.74571
C38_3 C 0.96338 0.58454 0.76352
C39_3 C 0.94646 0.53887 0.7396
C40_3 C 0.93769 0.56824 0.75809
N3_3 N 0.97671 0.53582 0.73381
O21_3 O 0.704614 0.515923 0.829706
H3_3 H 0.896441 0.544386 0.449718
H7_3 H 0.841917 0.548697 0.421457
H8_3 H 0.991353 0.325344 0.616984
H9_3 H 0.89118 0.465339 0.682962
H10_3 H 0.923536 0.415479 0.687191
H11_3 H 0.830178 0.510317 0.918629
H12_3 H 0.910767 0.297774 0.887578
H14_3 H 0.884863 0.505574 0.946111
H16_3 H 0.951864 0.405695 0.998994
H18_3 H 0.994116 0.621832 0.562405
H20_3 H 0.914922 0.576665 0.766596
H21_3 H 0.965262 0.608645 0.778854
O6_4 O 0.204614 0.015923 0.329706
O7_4 O 0.206038 0.074936 0.234160
P2_4 P 0.201442 0.040557 0.162611
C8_4 C 0.104613 0.019417 0.030916
C9_4 C 0.111915 0.039253 0.165799
C10_4 C 0.141316 0.047718 0.194672
C11_4 C 0.16387 0.036871 0.086921
O18_3 O 0.012115 0.216557 0.204159
H4_4 H 0.146732 0.0628283 0.301502
H12_4 H 0.202226 0.0892333 0.137578
H16_4 H 0.0943052 0.0481364 0.248994
C12_4 C 0.156956 0.017307 0.950330
C13_4 C 0.127296 0.008871 0.920840
C14_4 C 0.07341 0.01612 0.98863
C19_4 C 0.01331 0.06462 0.9672
C20_4 C 0.03643 0.08469 0.94736
C21_4 C 0.05288 0.03888 0.97034
C22_4 C 0.06173 0.06824 0.94947
N2_4 N 0.02287 0.03589 0.97702
Ni1_7 Ni 0 0.000 0.98067
O14_3 O 0.0202(10) 0.2600(16) 0.88383
H8_4 H 0.174656 0.0086471 0.866984
H9_4 H 0.0346606 0.10882 0.932962
H10_4 H 0.0845208 0.0764644 0.937191
O2_4 O 0.034914 0.765698 0.034020
C5_4 C 0.017476 0.844519 0.061682
C6_4 C 0.014885 0.875482 0.076741
C16_4 C 0.08454 0.96338 0.01352
C18_4 C 0.06824 0.93769 0.00809
O15_3 O 0.0202(10) 0.7400(16) 0.38383
H5_4 H 0.108645 0.965262 0.028854
H6_4 H 0.0766652 0.914922 0.0165964
H13_4 H 0.0103171 0.830178 0.168629
H15_4 H 0.00557405 0.884863 0.196111
O3_3 O 0.012115 0.783443 0.704159
O4_4 O 0.063471 0.791335 0.799241
P1_4 P 0.030691 0.792550 0.881585
C1_4 C 0.023654 0.894369 0.946565
C2_4 C 0.036137 0.882113 0.804006
C3_4 C 0.038598 0.851278 0.788671
C4_4 C 0.028757 0.832410 0.915857
C7_4 C 0.01588 0.92582 0.97871
C15_4 C 0.06441 0.98655 0.99571
C17_4 C 0.03887 0.94646 0.9896
N1_4 N 0.03582 0.97671 0.98381
Ni1_8 Ni -0 1.000 0.98067
H1_4 H 0.121832 0.994116 0.812405
H2_4 H 0.0443864 0.896441 0.699718
H17_4 H 0.048697 0.841917 0.671457
O8_4 O 0.965086 0.234302 0.034020
C27_4 C 0.982524 0.155481 0.061682
C28_4 C 0.985115 0.124518 0.076741
C38_4 C 0.91546 0.03662 0.01352
C40_4 C 0.93176 0.06231 0.00809
O16_3 O 0.9798(10) 0.2600(16) 0.38383
H11_4 H 0.989683 0.169822 0.168629
H14_4 H 0.994426 0.115137 0.196111
H20_4 H 0.923335 0.0850778 0.0165964
H21_4 H 0.891355 0.0347376 0.028854
Ni1_9 Ni 1 0.000 0.98067
O9_3 O 0.987885 0.216557 0.704159
O10_4 O 0.936529 0.208665 0.799241
P3_4 P 0.969309 0.207450 0.881585
C23_4 C 0.976346 0.105631 0.946565
C24_4 C 0.963863 0.117887 0.804006
C25_4 C 0.961402 0.148722 0.788671
C26_4 C 0.971243 0.167590 0.915857
C29_4 C 0.98412 0.07418 0.97871
C37_4 C 0.93559 0.01345 0.99571
C39_4 C 0.96113 0.05354 0.9896
N3_4 N 0.96418 0.02329 0.98381
H3_4 H 0.955614 0.103559 0.699718
H7_4 H 0.951303 0.158083 0.671457
H18_4 H 0.878168 0.00588367 0.812405
O12_4 O 0.795386 0.984077 0.329706
O13_4 O 0.793962 0.925064 0.234160
P4_4 P 0.798558 0.959443 0.162611
C30_4 C 0.895387 0.980583 0.030916
C31_4 C 0.888085 0.960747 0.165799
C32_4 C 0.858684 0.952282 0.194672
C33_4 C 0.83613 0.963129 0.086921
O17_3 O 0.987885 0.783443 0.204159
H22_4 H 0.797774 0.910767 0.137578
H23_4 H 0.905695 0.951864 0.248994
H24_4 H 0.853268 0.937172 0.301502
O1_3 O 0.9798(10) 0.7400(16) 0.88383
Ni1_10 Ni 1 1.000 0.98067
C34_4 C 0.843044 0.982693 0.950330
C35_4 C 0.872704 0.991129 0.920840
C36_4 C 0.92659 0.98388 0.98863
C41_4 C 0.98669 0.93538 0.9672
C42_4 C 0.96357 0.91531 0.94736
C43_4 C 0.94712 0.96112 0.97034
C44_4 C 0.93827 0.93176 0.94947
N4_4 N 0.97713 0.96411 0.97702
H19_4 H 0.825344 0.991353 0.866984
H25_4 H 0.915479 0.923536 0.937191
H26_4 H 0.965339 0.89118 0.932962
O2_5 O 0.534914 0.734302 0.034020
C5_5 C 0.517476 0.655481 0.061682
C6_5 C 0.514885 0.624518 0.076741
O7_5 O 0.706038 0.425064 0.234160
P2_5 P 0.701442 0.459443 0.162611
C8_5 C 0.604613 0.480583 0.030916
C9_5 C 0.611915 0.460747 0.165799
C10_5 C 0.641316 0.452282 0.194672
C11_5 C 0.66387 0.463129 0.086921
C16_5 C 0.58454 0.53662 0.01352
C18_5 C 0.56824 0.56231 0.00809
O8_5 O 0.465086 0.265698 0.034020
C27_5 C 0.482524 0.344519 0.061682
C28_5 C 0.485115 0.375482 0.076741
O13_5 O 0.293962 0.574936 0.234160
P4_5 P 0.298558 0.540557 0.162611
C30_5 C 0.395387 0.519417 0.030916
C31_5 C 0.388085 0.539253 0.165799
C32_5 C 0.358684 0.547718 0.194672
C33_5 C 0.33613 0.536871 0.086921
C38_5 C 0.41546 0.46338 0.01352
C40_5 C 0.43176 0.43769 0.00809
O15_4 O 0.5202(10) 0.7600(16) 0.38383
O16_4 O 0.4798(10) 0.2400(16) 0.38383
O17_4 O 0.487885 0.716557 0.204159
O18_4 O 0.512115 0.283443 0.204159
O19_4 O 0.462067 0.773588 0.254368
O20_4 O 0.537933 0.226412 0.254368
H4_5 H 0.646732 0.437172 0.301502
H5_5 H 0.608645 0.534738 0.028854
H6_5 H 0.576665 0.585078 0.0165964
H11_5 H 0.489683 0.330178 0.168629
H12_5 H 0.702226 0.410767 0.137578
H13_5 H 0.510317 0.669822 0.168629
H14_5 H 0.494426 0.384863 0.196111
H15_5 H 0.505574 0.615137 0.196111
H16_5 H 0.594305 0.451864 0.248994
H20_5 H 0.423335 0.414922 0.0165964
H21_5 H 0.391355 0.465262 0.028854
H22_5 H 0.297774 0.589233 0.137578
H23_5 H 0.405695 0.548136 0.248994
H24_5 H 0.353268 0.562828 0.301502
O1_4 O 0.4798(10) 0.7600(16) 0.88383
O3_4 O 0.512115 0.716557 0.704159
O4_5 O 0.563471 0.708665 0.799241
P1_5 P 0.530691 0.707450 0.881585
C1_5 C 0.523654 0.605631 0.946565
C2_5 C 0.536137 0.617887 0.804006
C3_5 C 0.538598 0.648722 0.788671
C4_5 C 0.528757 0.667590 0.915857
C7_5 C 0.51588 0.57418 0.97871
C12_5 C 0.656956 0.482693 0.950330
C13_5 C 0.627296 0.491129 0.920840
C14_5 C 0.57341 0.48388 0.98863
C15_5 C 0.56441 0.51345 0.99571
C17_5 C 0.53887 0.55354 0.9896
N1_5 N 0.53582 0.52329 0.98381
C19_5 C 0.51331 0.43538 0.9672
C20_5 C 0.53643 0.41531 0.94736
C21_5 C 0.55288 0.46112 0.97034
C22_5 C 0.56173 0.43176 0.94947
N2_5 N 0.52287 0.46411 0.97702
Ni1_11 Ni 0.5 0.500 0.98067
O9_4 O 0.487885 0.283443 0.704159
O10_5 O 0.436529 0.291335 0.799241
P3_5 P 0.469309 0.292550 0.881585
C23_5 C 0.476346 0.394369 0.946565
C24_5 C 0.463863 0.382113 0.804006
C25_5 C 0.461402 0.351278 0.788671
C26_5 C 0.471243 0.332410 0.915857
C29_5 C 0.48412 0.42582 0.97871
C34_5 C 0.343044 0.517307 0.950330
C35_5 C 0.372704 0.508871 0.920840
C36_5 C 0.42659 0.51612 0.98863
C37_5 C 0.43559 0.48655 0.99571
C39_5 C 0.46113 0.44646 0.9896
N3_5 N 0.46418 0.47671 0.98381
C41_5 C 0.48669 0.56462 0.9672
C42_5 C 0.46357 0.58469 0.94736
C43_5 C 0.44712 0.53888 0.97034
C44_5 C 0.43827 0.56824 0.94947
N4_5 N 0.47713 0.53589 0.97702
O14_4 O 0.5202(10) 0.2400(16) 0.88383
H1_5 H 0.621832 0.505884 0.812405
H2_5 H 0.544386 0.603559 0.699718
H3_5 H 0.455614 0.396441 0.699718
H7_5 H 0.451303 0.341917 0.671457
H8_5 H 0.674656 0.491353 0.866984
H9_5 H 0.534661 0.39118 0.932962
H10_5 H 0.584521 0.423536 0.937191
H17_5 H 0.548697 0.658083 0.671457
H18_5 H 0.378168 0.494116 0.812405
H19_5 H 0.325344 0.508647 0.866984
H25_5 H 0.415479 0.576464 0.937191
H26_5 H 0.465339 0.60882 0.932962
Ni1_12 Ni 0 0.000 0.48067
O8_6 O 0.034914 0.234302 0.534020
O10_6 O 0.063471 0.208665 0.299241
P3_6 P 0.030691 0.207450 0.381585
C23_6 C 0.023654 0.105631 0.446565
C24_6 C 0.036137 0.117887 0.304006
C25_6 C 0.038598 0.148722 0.288671
C26_6 C 0.028757 0.167590 0.415857
C27_6 C 0.017476 0.155481 0.561682
C28_6 C 0.014885 0.124518 0.576741
C29_6 C 0.01588 0.07418 0.47871
C37_6 C 0.06441 0.01345 0.49571
C38_6 C 0.08454 0.03662 0.51352
C39_6 C 0.03887 0.05354 0.4896
C40_6 C 0.06824 0.06231 0.50809
N3_6 N 0.03582 0.02329 0.48381
H3_6 H 0.0443864 0.103559 0.199718
H7_6 H 0.048697 0.158083 0.171457
H11_6 H 0.0103171 0.169822 0.668629
H14_6 H 0.00557405 0.115137 0.696111
H18_6 H 0.121832 0.00588367 0.312405
H20_6 H 0.0766652 0.0850778 0.516596
H21_6 H 0.108645 0.0347376 0.528854
Ni1_13 Ni -0 1.000 0.48067
O11_4 O 0.226412 0.962067 0.504368
O13_6 O 0.206038 0.925064 0.734160
P4_6 P 0.201442 0.959443 0.662611
C30_6 C 0.104613 0.980583 0.530916
C31_6 C 0.111915 0.960747 0.665799
C32_6 C 0.141316 0.952282 0.694672
C33_6 C 0.16387 0.963129 0.586921
C34_6 C 0.156956 0.982693 0.450330
C35_6 C 0.127296 0.991129 0.420840
C36_6 C 0.07341 0.98388 0.48863
C41_6 C 0.01331 0.93538 0.4672
C42_6 C 0.03643 0.91531 0.44736
C43_6 C 0.05288 0.96112 0.47034
C44_6 C 0.06173 0.93176 0.44947
N4_6 N 0.02287 0.96411 0.47702
H19_6 H 0.174656 0.991353 0.366984
H22_6 H 0.202226 0.910767 0.637578
H23_6 H 0.0943052 0.951864 0.748994
H24_6 H 0.146732 0.937172 0.801502
H25_6 H 0.0845208 0.923536 0.437191
H26_6 H 0.0346606 0.89118 0.432962
O5_4 O 0.773588 0.037933 0.504368
O7_6 O 0.793962 0.074936 0.734160
P2_6 P 0.798558 0.040557 0.662611
C8_6 C 0.895387 0.019417 0.530916
C9_6 C 0.888085 0.039253 0.665799
C10_6 C 0.858684 0.047718 0.694672
C11_6 C 0.83613 0.036871 0.586921
C12_6 C 0.843044 0.017307 0.450330
C13_6 C 0.872704 0.008871 0.420840
C14_6 C 0.92659 0.01612 0.48863
C19_6 C 0.98669 0.06462 0.4672
C20_6 C 0.96357 0.08469 0.44736
C21_6 C 0.94712 0.03888 0.47034
C22_6 C 0.93827 0.06824 0.44947
N2_6 N 0.97713 0.03589 0.47702
Ni1_14 Ni 1 0.000 0.48067
H4_6 H 0.853268 0.0628283 0.801502
H8_6 H 0.825344 0.0086471 0.366984
H9_6 H 0.965339 0.10882 0.432962
H10_6 H 0.915479 0.0764644 0.437191
H12_6 H 0.797774 0.0892333 0.637578
H16_6 H 0.905695 0.0481364 0.748994
O2_6 O 0.965086 0.765698 0.534020
O4_6 O 0.936529 0.791335 0.299241
P1_6 P 0.969309 0.792550 0.381585
C1_6 C 0.976346 0.894369 0.446565
C2_6 C 0.963863 0.882113 0.304006
C3_6 C 0.961402 0.851278 0.288671
C4_6 C 0.971243 0.832410 0.415857
C5_6 C 0.982524 0.844519 0.561682
C6_6 C 0.985115 0.875482 0.576741
C7_6 C 0.98412 0.92582 0.47871
C15_6 C 0.93559 0.98655 0.49571
C16_6 C 0.91546 0.96338 0.51352
C17_6 C 0.96113 0.94646 0.4896
C18_6 C 0.93176 0.93769 0.50809
N1_6 N 0.96418 0.97671 0.48381
Ni1_15 Ni 1 1.000 0.48067
H1_6 H 0.878168 0.994116 0.312405
H2_6 H 0.955614 0.896441 0.199718
H5_6 H 0.891355 0.965262 0.528854
H6_6 H 0.923335 0.914922 0.516596
H13_6 H 0.989683 0.830178 0.668629
H15_6 H 0.994426 0.884863 0.696111
H17_6 H 0.951303 0.841917 0.171457
O2_7 O 0.465086 0.734302 0.534020
O4_7 O 0.436529 0.708665 0.299241
P1_7 P 0.469309 0.707450 0.381585
C1_7 C 0.476346 0.605631 0.446565
C2_7 C 0.463863 0.617887 0.304006
C3_7 C 0.461402 0.648722 0.288671
C4_7 C 0.471243 0.667590 0.415857
C5_7 C 0.482524 0.655481 0.561682
C6_7 C 0.485115 0.624518 0.576741
C7_7 C 0.48412 0.57418 0.47871
O7_7 O 0.293962 0.425064 0.734160
P2_7 P 0.298558 0.459443 0.662611
C8_7 C 0.395387 0.480583 0.530916
C9_7 C 0.388085 0.460747 0.665799
C10_7 C 0.358684 0.452282 0.694672
C11_7 C 0.33613 0.463129 0.586921
C12_7 C 0.343044 0.482693 0.450330
C13_7 C 0.372704 0.491129 0.420840
C14_7 C 0.42659 0.48388 0.48863
C15_7 C 0.43559 0.51345 0.49571
C16_7 C 0.41546 0.53662 0.51352
C17_7 C 0.46113 0.55354 0.4896
C18_7 C 0.43176 0.56231 0.50809
N1_7 N 0.46418 0.52329 0.48381
C19_7 C 0.48669 0.43538 0.4672
C20_7 C 0.46357 0.41531 0.44736
C21_7 C 0.44712 0.46112 0.47034
C22_7 C 0.43827 0.43176 0.44947
N2_7 N 0.47713 0.46411 0.47702
Ni1_16 Ni 0.5 0.500 0.48067
O8_7 O 0.534914 0.265698 0.534020
O10_7 O 0.563471 0.291335 0.299241
P3_7 P 0.530691 0.292550 0.381585
C23_7 C 0.523654 0.394369 0.446565
C24_7 C 0.536137 0.382113 0.304006
C25_7 C 0.538598 0.351278 0.288671
C26_7 C 0.528757 0.332410 0.415857
C27_7 C 0.517476 0.344519 0.561682
C28_7 C 0.514885 0.375482 0.576741
C29_7 C 0.51588 0.42582 0.47871
O13_7 O 0.706038 0.574936 0.734160
P4_7 P 0.701442 0.540557 0.662611
C30_7 C 0.604613 0.519417 0.530916
C31_7 C 0.611915 0.539253 0.665799
C32_7 C 0.641316 0.547718 0.694672
C33_7 C 0.66387 0.536871 0.586921
C34_7 C 0.656956 0.517307 0.450330
C35_7 C 0.627296 0.508871 0.420840
C36_7 C 0.57341 0.51612 0.48863
C37_7 C 0.56441 0.48655 0.49571
C38_7 C 0.58454 0.46338 0.51352
C39_7 C 0.53887 0.44646 0.4896
C40_7 C 0.56824 0.43769 0.50809
N3_7 N 0.53582 0.47671 0.48381
C41_7 C 0.51331 0.56462 0.4672
C42_7 C 0.53643 0.58469 0.44736
C43_7 C 0.55288 0.53888 0.47034
C44_7 C 0.56173 0.56824 0.44947
N4_7 N 0.52287 0.53589 0.47702
O21_4 O 0.515923 0.204614 0.579706
O22_4 O 0.484077 0.795386 0.579706
H1_7 H 0.378168 0.505884 0.312405
H2_7 H 0.455614 0.603559 0.199718
H3_7 H 0.544386 0.396441 0.199718
H4_7 H 0.353268 0.437172 0.801502
H5_7 H 0.391355 0.534738 0.528854
H6_7 H 0.423335 0.585078 0.516596
H7_7 H 0.548697 0.341917 0.171457
H8_7 H 0.325344 0.491353 0.366984
H9_7 H 0.465339 0.39118 0.432962
H10_7 H 0.415479 0.423536 0.437191
H11_7 H 0.510317 0.330178 0.668629
H12_7 H 0.297774 0.410767 0.637578
H13_7 H 0.489683 0.669822 0.668629
H14_7 H 0.505574 0.384863 0.696111
H15_7 H 0.494426 0.615137 0.696111
H16_7 H 0.405695 0.451864 0.748994
H17_7 H 0.451303 0.658083 0.171457
H18_7 H 0.621832 0.494116 0.312405
H19_7 H 0.674656 0.508647 0.366984
H20_7 H 0.576665 0.414922 0.516596
H21_7 H 0.608645 0.465262 0.528854
H22_7 H 0.702226 0.589233 0.637578
H23_7 H 0.594305 0.548136 0.748994
H24_7 H 0.646732 0.562828 0.801502
H25_7 H 0.584521 0.576464 0.437191
H26_7 H 0.534661 0.60882 0.432962
O2_8 O 0.265698 0.034914 0.284020
O4_8 O 0.291335 0.063471 0.049241
P1_8 P 0.292550 0.030691 0.131585
C1_8 C 0.394369 0.023654 0.196565
C2_8 C 0.382113 0.036137 0.054006
C3_8 C 0.351278 0.038598 0.038671
C4_8 C 0.332410 0.028757 0.165857
C5_8 C 0.344519 0.017476 0.311682
C6_8 C 0.375482 0.014885 0.326741
C7_8 C 0.42582 0.01588 0.22871
O7_8 O 0.574936 0.206038 0.484160
P2_8 P 0.540557 0.201442 0.412611
C8_8 C 0.519417 0.104613 0.280916
C9_8 C 0.539253 0.111915 0.415799
C10_8 C 0.547718 0.141316 0.444672
C11_8 C 0.536871 0.16387 0.336921
C12_8 C 0.517307 0.156956 0.200330
C13_8 C 0.508871 0.127296 0.170840
C14_8 C 0.51612 0.07341 0.23863
C15_8 C 0.48655 0.06441 0.24571
C16_8 C 0.46338 0.08454 0.26352
C17_8 C 0.44646 0.03887 0.2396
C18_8 C 0.43769 0.06824 0.25809
N1_8 N 0.47671 0.03582 0.23381
C19_8 C 0.56462 0.01331 0.2172
C20_8 C 0.58469 0.03643 0.19736
C21_8 C 0.53888 0.05288 0.22034
C22_8 C 0.56824 0.06173 0.19947
N2_8 N 0.53589 0.02287 0.22702
Ni1_17 Ni 0.500 0 0.23067
H1_8 H 0.494116 0.121832 0.0624051
H4_8 H 0.562828 0.146732 0.551502
H5_8 H 0.465262 0.108645 0.278854
H6_8 H 0.414922 0.0766652 0.266596
H8_8 H 0.508647 0.174656 0.116984
H9_8 H 0.60882 0.0346606 0.182962
H10_8 H 0.576464 0.0845208 0.187191
H12_8 H 0.589233 0.202226 0.387578
H13_8 H 0.330178 0.0103171 0.418629
H15_8 H 0.384863 0.00557405 0.446111
H16_8 H 0.548136 0.0943052 0.498994
H2_8 H 0.396441 0.0443864 0.949718
H17_8 H 0.341917 0.048697 0.921457
Ni1_18 Ni 0.500 1 0.23067
O8_8 O 0.734302 0.965086 0.284020
O10_8 O 0.708665 0.936529 0.049241
P3_8 P 0.707450 0.969309 0.131585
C23_8 C 0.605631 0.976346 0.196565
C24_8 C 0.617887 0.963863 0.054006
C25_8 C 0.648722 0.961402 0.038671
C26_8 C 0.667590 0.971243 0.165857
C27_8 C 0.655481 0.982524 0.311682
C28_8 C 0.624518 0.985115 0.326741
C29_8 C 0.57418 0.98412 0.22871
O13_8 O 0.425064 0.793962 0.484160
P4_8 P 0.459443 0.798558 0.412611
C30_8 C 0.480583 0.895387 0.280916
C31_8 C 0.460747 0.888085 0.415799
C32_8 C 0.452282 0.858684 0.444672
C33_8 C 0.463129 0.83613 0.336921
C34_8 C 0.482693 0.843044 0.200330
C35_8 C 0.491129 0.872704 0.170840
C36_8 C 0.48388 0.92659 0.23863
C37_8 C 0.51345 0.93559 0.24571
C38_8 C 0.53662 0.91546 0.26352
C39_8 C 0.55354 0.96113 0.2396
C40_8 C 0.56231 0.93176 0.25809
N3_8 N 0.52329 0.96418 0.23381
C41_8 C 0.43538 0.98669 0.2172
C42_8 C 0.41531 0.96357 0.19736
C43_8 C 0.46112 0.94712 0.22034
C44_8 C 0.43176 0.93827 0.19947
N4_8 N 0.46411 0.97713 0.22702
H11_8 H 0.669822 0.989683 0.418629
H14_8 H 0.615137 0.994426 0.446111
H18_8 H 0.505884 0.878168 0.0624051
H19_8 H 0.491353 0.825344 0.116984
H20_8 H 0.585078 0.923335 0.266596
H21_8 H 0.534738 0.891355 0.278854
H22_8 H 0.410767 0.797774 0.387578
H23_8 H 0.451864 0.905695 0.498994
H24_8 H 0.437172 0.853268 0.551502
H25_8 H 0.423536 0.915479 0.187191
H26_8 H 0.39118 0.965339 0.182962
H3_8 H 0.603559 0.955614 0.949718
H7_8 H 0.658083 0.951303 0.921457
loop_
_geom_bond_atom_site_label_1
_geom_bond_atom_site_label_2
_geom_bond_site_symmetry_1
_geom_bond_site_symmetry_2
Zr8 O12 1_555 1_555
Zr1 O1 1_555 1_555
O8 P3 1_555 1_555
O9 P3 1_555 1_555
O10 P3 1_555 1_555
P3 C26 1_555 1_555
C23 C24 1_555 1_555
C24 C25 1_555 1_555
C25 C26 1_555 1_555
C26 C27 1_555 1_555
C27 C28 1_555 1_555
C28 C23 1_555 1_555
O11 P4 1_555 1_555
O13 P4 1_555 1_555
P4 C33 1_555 1_555
C30 C31 1_555 1_555
C31 C32 1_555 1_555
C32 C33 1_555 1_555
C33 C34 1_555 1_555
C34 C35 1_555 1_555
C35 C30 1_555 1_555
C36 C30 1_555 1_555
C37 C36 1_555 1_555
C38 C37 1_555 1_555
C39 C29 1_555 1_555
C40 C38 1_555 1_555
N3 Ni1 1_555 1_555
C42 C41 1_555 1_555
C43 C36 1_555 1_555
C44 C42 1_555 1_555
N4 Ni1 1_555 1_555
Zr6 O9 1_555 1_555
Zr7 O11 1_555 1_555
O17 Zr1 1_555 1_555
C23 C29 1_555 1_555
C37 N3 1_555 1_555
C39 C40 1_555 1_555
C39 N3 1_555 1_555
C41 N4 1_555 1_555
C43 C44 1_555 1_555
C43 N4 1_555 1_555
C24 H3 1_555 1_555
C25 H7 1_555 1_555
C27 H11 1_555 1_555
C28 H14 1_555 1_555
C35 H18 1_555 1_555
C34 H19 1_555 1_555
C40 H20 1_555 1_555
C38 H21 1_555 1_555
O13 H22 1_555 1_555
C31 H23 1_555 1_555
C44 H25 1_555 1_555
C42 H26 1_555 1_555
Zr3 O6 1_555 1_555
O3 P1 1_555 1_555
O4 P1 1_555 1_555
P1 O2 1_555 1_555
C1 C2 1_555 1_555
C2 C3 1_555 1_555
C3 C4 1_555 1_555
C4 P1 1_555 1_555
C5 C4 1_555 1_555
C6 C1 1_555 1_555
C7 C1 1_555 1_555
O5 P2 1_555 1_555
O7 P2 1_555 1_555
P2 C11 1_555 1_555
C8 C9 1_555 1_555
C9 C10 1_555 1_555
C10 C11 1_555 1_555
C11 C12 1_555 1_555
C12 C13 1_555 1_555
C13 C8 1_555 1_555
C14 C8 1_555 1_555
C15 C14 1_555 1_555
C16 C15 1_555 1_555
C17 C7 1_555 1_555
C18 C16 1_555 1_555
N1 C15 1_555 1_555
C19 C20 1_555 1_555
C20 C22 1_555 1_555
C21 C14 1_555 1_555
C22 C21 1_555 1_555
N2 C19 1_555 1_555
Ni1_2 N1 1_555 1_555
O14 Zr2 1_555 1_555
Zr4 O5 1_555 1_555
Zr5 O3 1_555 1_555
O18 Zr2 1_555 1_555
C5 C6 1_555 1_555
C17 C18 1_555 1_555
C17 N1 1_555 1_555
C21 N2 1_555 1_555
N2 Ni1_2 1_555 1_555
C13 H1 1_555 1_555
C2 H2 1_555 1_555
C16 H5 1_555 1_555
C18 H6 1_555 1_555
C12 H8 1_555 1_555
C20 H9 1_555 1_555
C22 H10 1_555 1_555
O7 H12 1_555 1_555
C5 H13 1_555 1_555
C6 H15 1_555 1_555
C9 H16 1_555 1_555
C3 H17 1_555 1_555
Zr1_2 O1_2 1_555 1_555
O2_2 Zr1_2 1_555 1_555
O4_2 P1_2 1_555 1_555
P1_2 O2_2 1_555 1_555
C1_2 C2_2 1_555 1_555
C2_2 C3_2 1_555 1_555
C3_2 C4_2 1_555 1_555
C4_2 P1_2 1_555 1_555
C5_2 C4_2 1_555 1_555
C6_2 C1_2 1_555 1_555
C7_2 C1_2 1_555 1_555
C16_2 C15_2 1_555 1_555
C17_2 C7_2 1_555 1_555
C18_2 C16_2 1_555 1_555
N1_2 C15_2 1_555 1_555
Ni1_3 N1_2 1_555 1_555
O11_2 P4_2 1_555 1_555
O12_2 P4_2 1_555 1_555
O13_2 P4_2 1_555 1_555
P4_2 C33_2 1_555 1_555
C30_2 C31_2 1_555 1_555
C31_2 C32_2 1_555 1_555
C32_2 C33_2 1_555 1_555
C33_2 C34_2 1_555 1_555
C34_2 C35_2 1_555 1_555
C35_2 C30_2 1_555 1_555
C36_2 C30_2 1_555 1_555
C41_2 C7_2 1_555 1_555
C42_2 C41_2 1_555 1_555
C43_2 C36_2 1_555 1_555
C44_2 C42_2 1_555 1_555
N4_2 Ni1_3 1_555 1_555
Zr7_2 O11_2 1_555 1_555
O15_2 Zr1_2 1_555 1_555
O17_2 Zr1_2 1_555 1_555
O19_2 Zr1_2 1_555 1_555
O22_2 Zr1_2 1_555 1_555
C5_2 C6_2 1_555 1_555
C17_2 C18_2 1_555 1_555
C17_2 N1_2 1_555 1_555
C41_2 N4_2 1_555 1_555
C43_2 C44_2 1_555 1_555
C43_2 N4_2 1_555 1_555
C16_2 H5_2 1_555 1_555
C18_2 H6_2 1_555 1_555
C5_2 H13_2 1_555 1_555
C6_2 H15_2 1_555 1_555
C34_2 H19_2 1_555 1_555
O13_2 H22_2 1_555 1_555
C31_2 H23_2 1_555 1_555
C32_2 H24_2 1_555 1_555
C44_2 H25_2 1_555 1_555
C42_2 H26_2 1_555 1_555
Zr5_2 O3_2 1_555 1_555
O5_2 P2_2 1_555 1_555
O6_2 P2_2 1_555 1_555
O7_2 P2_2 1_555 1_555
P2_2 C11_2 1_555 1_555
C8_2 C9_2 1_555 1_555
C9_2 C10_2 1_555 1_555
C10_2 C11_2 1_555 1_555
C11_2 C12_2 1_555 1_555
C12_2 C13_2 1_555 1_555
C13_2 C8_2 1_555 1_555
C14_2 C8_2 1_555 1_555
C19_2 C20_2 1_555 1_555
C20_2 C22_2 1_555 1_555
C21_2 C14_2 1_555 1_555
C22_2 C21_2 1_555 1_555
N2_2 C19_2 1_555 1_555
O8_2 P3_2 1_555 1_555
O10_2 P3_2 1_555 1_555
P3_2 C26_2 1_555 1_555
C23_2 C24_2 1_555 1_555
C24_2 C25_2 1_555 1_555
C25_2 C26_2 1_555 1_555
C26_2 C27_2 1_555 1_555
C27_2 C28_2 1_555 1_555
C28_2 C23_2 1_555 1_555
C29_2 C19_2 1_555 1_555
C38_2 C37_2 1_555 1_555
C39_2 C29_2 1_555 1_555
C40_2 C38_2 1_555 1_555
N3_2 Ni1_4 1_555 1_555
Zr2_2 O8_2 1_555 1_555
O14_2 Zr2_2 1_555 1_555
Zr4_2 O5_2 1_555 1_555
O16_2 Zr2_2 1_555 1_555
O18_2 Zr2_2 1_555 1_555
O20_2 Zr2_2 1_555 1_555
O21_2 Zr2_2 1_555 1_555
C21_2 N2_2 1_555 1_555
N2_2 Ni1_4 1_555 1_555
C23_2 C29_2 1_555 1_555
C37_2 N3_2 1_555 1_555
C39_2 C40_2 1_555 1_555
C39_2 N3_2 1_555 1_555
C10_2 H4_2 1_555 1_555
C12_2 H8_2 1_555 1_555
C20_2 H9_2 1_555 1_555
C22_2 H10_2 1_555 1_555
C27_2 H11_2 1_555 1_555
O7_2 H12_2 1_555 1_555
C28_2 H14_2 1_555 1_555
C9_2 H16_2 1_555 1_555
C40_2 H20_2 1_555 1_555
C38_2 H21_2 1_555 1_555
Zr6_2 O9_2 1_555 1_555
Zr5_2 O15_2 1_555 1_555
O2_3 Zr5_2 1_555 1_555
O17_2 P1_3 1_555 1_555
O4_3 P1_3 1_555 1_555
P1_3 O2_3 1_555 1_555
C1_3 C2_3 1_555 1_555
C2_3 C3_3 1_555 1_555
C3_3 C4_3 1_555 1_555
C4_3 P1_3 1_555 1_555
C5_3 C4_3 1_555 1_555
C6_3 C1_3 1_555 1_555
C7_3 C1_3 1_555 1_555
C16_3 C15_3 1_555 1_555
C17_3 C7_3 1_555 1_555
C18_3 C16_3 1_555 1_555
N1_3 C15_3 1_555 1_555
Ni1_5 N1_3 1_555 1_555
O11_3 P4_3 1_555 1_555
O13_3 P4_3 1_555 1_555
P4_3 C33_3 1_555 1_555
C30_3 C31_3 1_555 1_555
C31_3 C32_3 1_555 1_555
C32_3 C33_3 1_555 1_555
C33_3 C34_3 1_555 1_555
C34_3 C35_3 1_555 1_555
C35_3 C30_3 1_555 1_555
C36_3 C30_3 1_555 1_555
C41_3 C7_3 1_555 1_555
C42_3 C41_3 1_555 1_555
C43_3 C36_3 1_555 1_555
C44_3 C42_3 1_555 1_555
N4_3 Ni1_5 1_555 1_555
Zr3_2 O11_3 1_555 1_555
O22_3 Zr5_2 1_555 1_555
C5_3 C6_3 1_555 1_555
C17_3 C18_3 1_555 1_555
C17_3 N1_3 1_555 1_555
C41_3 N4_3 1_555 1_555
C43_3 C44_3 1_555 1_555
C43_3 N4_3 1_555 1_555
C2_3 H2_3 1_555 1_555
C16_3 H5_3 1_555 1_555
C18_3 H6_3 1_555 1_555
C5_3 H13_3 1_555 1_555
C6_3 H15_3 1_555 1_555
C3_3 H17_3 1_555 1_555
C34_3 H19_3 1_555 1_555
O13_3 H22_3 1_555 1_555
C31_3 H23_3 1_555 1_555
C44_3 H25_3 1_555 1_555
C42_3 H26_3 1_555 1_555
O5_3 P2_3 1_555 1_555
O7_3 P2_3 1_555 1_555
P2_3 C11_3 1_555 1_555
C8_3 C9_3 1_555 1_555
C9_3 C10_3 1_555 1_555
C10_3 C11_3 1_555 1_555
C11_3 C12_3 1_555 1_555
C12_3 C13_3 1_555 1_555
C13_3 C8_3 1_555 1_555
C14_3 C8_3 1_555 1_555
C19_3 C20_3 1_555 1_555
C20_3 C22_3 1_555 1_555
C21_3 C14_3 1_555 1_555
C22_3 C21_3 1_555 1_555
N2_3 C19_3 1_555 1_555
O8_3 P3_3 1_555 1_555
O18_2 P3_3 1_555 1_555
O10_3 P3_3 1_555 1_555
P3_3 C26_3 1_555 1_555
C23_3 C24_3 1_555 1_555
C24_3 C25_3 1_555 1_555
C25_3 C26_3 1_555 1_555
C26_3 C27_3 1_555 1_555
C27_3 C28_3 1_555 1_555
C28_3 C23_3 1_555 1_555
C29_3 C19_3 1_555 1_555
C38_3 C37_3 1_555 1_555
C39_3 C29_3 1_555 1_555
C40_3 C38_3 1_555 1_555
N3_3 Ni1_6 1_555 1_555
Zr6_2 O8_3 1_555 1_555
O16_2 Zr6_2 1_555 1_555
Zr8_2 O5_3 1_555 1_555
O21_3 Zr6_2 1_555 1_555
C21_3 N2_3 1_555 1_555
N2_3 Ni1_6 1_555 1_555
C23_3 C29_3 1_555 1_555
C37_3 N3_3 1_555 1_555
C39_3 C40_3 1_555 1_555
C39_3 N3_3 1_555 1_555
C24_3 H3_3 1_555 1_555
C25_3 H7_3 1_555 1_555
C12_3 H8_3 1_555 1_555
C20_3 H9_3 1_555 1_555
C22_3 H10_3 1_555 1_555
C27_3 H11_3 1_555 1_555
O7_3 H12_3 1_555 1_555
C28_3 H14_3 1_555 1_555
C9_3 H16_3 1_555 1_555
C40_3 H20_3 1_555 1_555
C38_3 H21_3 1_555 1_555
O19 P2_4 1_555 1_555
O6_4 P2_4 1_555 1_555
O7_4 P2_4 1_555 1_555
P2_4 C11_4 1_555 1_555
C8_4 C9_4 1_555 1_555
C9_4 C10_4 1_555 1_555
C10_4 C11_4 1_555 1_555
O18_3 Zr7_2 1_555 1_555
C10_4 H4_4 1_555 1_555
O7_4 H12_4 1_555 1_555
C9_4 H16_4 1_555 1_555
C12_4 C13_4 1_555 1_555
C19_4 C20_4 1_555 1_555
C20_4 C22_4 1_555 1_555
C21_4 C14_4 1_555 1_555
C22_4 C21_4 1_555 1_555
N2_4 C19_4 1_555 1_555
C21_4 N2_4 1_555 1_555
N2_4 Ni1_7 1_555 1_555
C12_4 H8_4 1_555 1_555
C20_4 H9_4 1_555 1_555
C22_4 H10_4 1_555 1_555
C18_4 C16_4 1_555 1_555
C5_4 C6_4 1_555 1_555
C16_4 H5_4 1_555 1_555
C18_4 H6_4 1_555 1_555
C5_4 H13_4 1_555 1_555
C6_4 H15_4 1_555 1_555
O3_3 P1_4 1_555 1_555
O4_4 P1_4 1_555 1_555
C1_4 C2_4 1_555 1_555
C2_4 C3_4 1_555 1_555
C3_4 C4_4 1_555 1_555
C4_4 P1_4 1_555 1_555
C7_4 C1_4 1_555 1_555
C17_4 C7_4 1_555 1_555
N1_4 C15_4 1_555 1_555
Ni1_8 N1_4 1_555 1_555
Zr3_2 O3_3 1_555 1_555
C17_4 N1_4 1_555 1_555
C2_4 H2_4 1_555 1_555
C3_4 H17_4 1_555 1_555
C27_4 C28_4 1_555 1_555
C40_4 C38_4 1_555 1_555
C27_4 H11_4 1_555 1_555
C28_4 H14_4 1_555 1_555
C40_4 H20_4 1_555 1_555
C38_4 H21_4 1_555 1_555
O9_3 P3_4 1_555 1_555
O10_4 P3_4 1_555 1_555
P3_4 C26_4 1_555 1_555
C23_4 C24_4 1_555 1_555
C24_4 C25_4 1_555 1_555
C25_4 C26_4 1_555 1_555
C39_4 C29_4 1_555 1_555
N3_4 Ni1_9 1_555 1_555
Zr8_2 O9_3 1_555 1_555
C23_4 C29_4 1_555 1_555
C37_4 N3_4 1_555 1_555
C39_4 N3_4 1_555 1_555
C24_4 H3_4 1_555 1_555
C25_4 H7_4 1_555 1_555
O20 P4_4 1_555 1_555
O12_4 P4_4 1_555 1_555
O13_4 P4_4 1_555 1_555
P4_4 C33_4 1_555 1_555
C30_4 C31_4 1_555 1_555
C31_4 C32_4 1_555 1_555
C32_4 C33_4 1_555 1_555
O17_3 Zr4_2 1_555 1_555
O13_4 H22_4 1_555 1_555
C31_4 H23_4 1_555 1_555
C32_4 H24_4 1_555 1_555
C34_4 C35_4 1_555 1_555
C42_4 C41_4 1_555 1_555
C43_4 C36_4 1_555 1_555
C44_4 C42_4 1_555 1_555
N4_4 Ni1_10 1_555 1_555
C41_4 N4_4 1_555 1_555
C43_4 C44_4 1_555 1_555
C43_4 N4_4 1_555 1_555
C34_4 H19_4 1_555 1_555
C44_4 H25_4 1_555 1_555
C42_4 H26_4 1_555 1_555
O2_5 Zr3 1_555 1_555
O20_3 P2_5 1_555 1_555
O21_2 P2_5 1_555 1_555
O7_5 P2_5 1_555 1_555
P2_5 C11_5 1_555 1_555
C8_5 C9_5 1_555 1_555
C9_5 C10_5 1_555 1_555
C10_5 C11_5 1_555 1_555
C18_5 C16_5 1_555 1_555
C27_5 C28_5 1_555 1_555
O19_3 P4_5 1_555 1_555
O22_2 P4_5 1_555 1_555
O13_5 P4_5 1_555 1_555
P4_5 C33_5 1_555 1_555
C30_5 C31_5 1_555 1_555
C31_5 C32_5 1_555 1_555
C32_5 C33_5 1_555 1_555
C40_5 C38_5 1_555 1_555
Zr8 O8_5 1_555 1_555
O15_4 Zr3 1_555 1_555
O16_4 Zr8 1_555 1_555
O17_4 Zr3 1_555 1_555
O18_4 Zr8 1_555 1_555
O19_4 Zr3 1_555 1_555
O20_4 Zr8 1_555 1_555
C5_5 C6_5 1_555 1_555
C10_5 H4_5 1_555 1_555
C16_5 H5_5 1_555 1_555
C18_5 H6_5 1_555 1_555
C27_5 H11_5 1_555 1_555
O7_5 H12_5 1_555 1_555
C5_5 H13_5 1_555 1_555
C28_5 H14_5 1_555 1_555
C6_5 H15_5 1_555 1_555
C9_5 H16_5 1_555 1_555
C40_5 H20_5 1_555 1_555
C38_5 H21_5 1_555 1_555
O13_5 H22_5 1_555 1_555
C31_5 H23_5 1_555 1_555
C32_5 H24_5 1_555 1_555
O1_4 Zr4 1_555 1_555
O3_4 P1_5 1_555 1_555
O4_5 P1_5 1_555 1_555
C1_5 C2_5 1_555 1_555
C2_5 C3_5 1_555 1_555
C3_5 C4_5 1_555 1_555
C4_5 P1_5 1_555 1_555
C7_5 C1_5 1_555 1_555
C12_5 C13_5 1_555 1_555
C15_5 C14_5 1_555 1_555
C17_5 C7_5 1_555 1_555
N1_5 C15_5 1_555 1_555
C19_5 C20_5 1_555 1_555
C20_5 C22_5 1_555 1_555
C21_5 C14_5 1_555 1_555
C22_5 C21_5 1_555 1_555
N2_5 C19_5 1_555 1_555
Ni1_11 N1_5 1_555 1_555
O9_4 P3_5 1_555 1_555
O10_5 P3_5 1_555 1_555
P3_5 C26_5 1_555 1_555
C23_5 C24_5 1_555 1_555
C24_5 C25_5 1_555 1_555
C25_5 C26_5 1_555 1_555
C29_5 C19_5 1_555 1_555
C34_5 C35_5 1_555 1_555
C37_5 C36_5 1_555 1_555
C39_5 C29_5 1_555 1_555
N3_5 Ni1_11 1_555 1_555
C41_5 C7_5 1_555 1_555
C42_5 C41_5 1_555 1_555
C43_5 C36_5 1_555 1_555
C44_5 C42_5 1_555 1_555
N4_5 Ni1_11 1_555 1_555
Zr4 O3_4 1_555 1_555
Zr7 O9_4 1_555 1_555
C17_5 N1_5 1_555 1_555
C21_5 N2_5 1_555 1_555
N2_5 Ni1_11 1_555 1_555
C23_5 C29_5 1_555 1_555
C37_5 N3_5 1_555 1_555
C39_5 N3_5 1_555 1_555
C41_5 N4_5 1_555 1_555
C43_5 C44_5 1_555 1_555
C43_5 N4_5 1_555 1_555
O14_4 Zr7 1_555 1_555
C13_5 H1_5 1_555 1_555
C2_5 H2_5 1_555 1_555
C24_5 H3_5 1_555 1_555
C25_5 H7_5 1_555 1_555
C12_5 H8_5 1_555 1_555
C20_5 H9_5 1_555 1_555
C22_5 H10_5 1_555 1_555
C3_5 H17_5 1_555 1_555
C35_5 H18_5 1_555 1_555
C34_5 H19_5 1_555 1_555
C44_5 H25_5 1_555 1_555
C42_5 H26_5 1_555 1_555
O8_6 P3_6 1_555 1_555
O18_3 P3_6 1_555 1_555
O10_6 P3_6 1_555 1_555
P3_6 C26_6 1_555 1_555
C23_6 C24_6 1_555 1_555
C24_6 C25_6 1_555 1_555
C25_6 C26_6 1_555 1_555
C26_6 C27_6 1_555 1_555
C27_6 C28_6 1_555 1_555
C28_6 C23_6 1_555 1_555
C38_6 C37_6 1_555 1_555
C39_6 C29_6 1_555 1_555
C40_6 C38_6 1_555 1_555
N3_6 Ni1_12 1_555 1_555
C23_6 C29_6 1_555 1_555
C37_6 N3_6 1_555 1_555
C39_6 C40_6 1_555 1_555
C39_6 N3_6 1_555 1_555
C24_6 H3_6 1_555 1_555
C25_6 H7_6 1_555 1_555
C27_6 H11_6 1_555 1_555
C28_6 H14_6 1_555 1_555
C40_6 H20_6 1_555 1_555
C38_6 H21_6 1_555 1_555
Zr3_2 O15_3 1_555 1_555
O11_4 P4_6 1_555 1_555
O22 P4_6 1_555 1_555
O13_6 P4_6 1_555 1_555
P4_6 C33_6 1_555 1_555
C30_6 C31_6 1_555 1_555
C31_6 C32_6 1_555 1_555
C32_6 C33_6 1_555 1_555
C33_6 C34_6 1_555 1_555
C34_6 C35_6 1_555 1_555
C35_6 C30_6 1_555 1_555
C36_6 C30_6 1_555 1_555
C42_6 C41_6 1_555 1_555
C43_6 C36_6 1_555 1_555
C44_6 C42_6 1_555 1_555
N4_6 Ni1_13 1_555 1_555
Zr5 O11_4 1_555 1_555
C41_6 N4_6 1_555 1_555
C43_6 C44_6 1_555 1_555
C43_6 N4_6 1_555 1_555
C34_6 H19_6 1_555 1_555
O13_6 H22_6 1_555 1_555
C31_6 H23_6 1_555 1_555
C32_6 H24_6 1_555 1_555
C44_6 H25_6 1_555 1_555
C42_6 H26_6 1_555 1_555
O5_4 P2_6 1_555 1_555
O21 P2_6 1_555 1_555
O7_6 P2_6 1_555 1_555
P2_6 C11_6 1_555 1_555
C8_6 C9_6 1_555 1_555
C9_6 C10_6 1_555 1_555
C10_6 C11_6 1_555 1_555
C11_6 C12_6 1_555 1_555
C12_6 C13_6 1_555 1_555
C13_6 C8_6 1_555 1_555
C14_6 C8_6 1_555 1_555
C19_6 C20_6 1_555 1_555
C20_6 C22_6 1_555 1_555
C21_6 C14_6 1_555 1_555
C22_6 C21_6 1_555 1_555
N2_6 C19_6 1_555 1_555
O16_3 Zr8_2 1_555 1_555
Zr6 O5_4 1_555 1_555
C21_6 N2_6 1_555 1_555
N2_6 Ni1_14 1_555 1_555
C10_6 H4_6 1_555 1_555
C12_6 H8_6 1_555 1_555
C20_6 H9_6 1_555 1_555
C22_6 H10_6 1_555 1_555
O7_6 H12_6 1_555 1_555
C9_6 H16_6 1_555 1_555
O17_3 P1_6 1_555 1_555
O4_6 P1_6 1_555 1_555
P1_6 O2_6 1_555 1_555
C1_6 C2_6 1_555 1_555
C2_6 C3_6 1_555 1_555
C3_6 C4_6 1_555 1_555
C4_6 P1_6 1_555 1_555
C5_6 C4_6 1_555 1_555
C6_6 C1_6 1_555 1_555
C7_6 C1_6 1_555 1_555
C16_6 C15_6 1_555 1_555
C17_6 C7_6 1_555 1_555
C18_6 C16_6 1_555 1_555
N1_6 C15_6 1_555 1_555
Ni1_15 N1_6 1_555 1_555
C5_6 C6_6 1_555 1_555
C17_6 C18_6 1_555 1_555
C17_6 N1_6 1_555 1_555
C2_6 H2_6 1_555 1_555
C16_6 H5_6 1_555 1_555
C18_6 H6_6 1_555 1_555
C5_6 H13_6 1_555 1_555
C6_6 H15_6 1_555 1_555
C3_6 H17_6 1_555 1_555
Zr4 O15_4 1_555 1_555
O2_7 Zr4 1_555 1_555
O17_4 P1_7 1_555 1_555
O4_7 P1_7 1_555 1_555
P1_7 O2_7 1_555 1_555
C1_7 C2_7 1_555 1_555
C2_7 C3_7 1_555 1_555
C3_7 C4_7 1_555 1_555
C4_7 P1_7 1_555 1_555
C5_7 C4_7 1_555 1_555
C6_7 C1_7 1_555 1_555
C7_7 C1_7 1_555 1_555
O19_2 P2_7 1_555 1_555
O22_3 P2_7 1_555 1_555
O7_7 P2_7 1_555 1_555
P2_7 C11_7 1_555 1_555
C8_7 C9_7 1_555 1_555
C9_7 C10_7 1_555 1_555
C10_7 C11_7 1_555 1_555
C11_7 C12_7 1_555 1_555
C12_7 C13_7 1_555 1_555
C13_7 C8_7 1_555 1_555
C14_7 C8_7 1_555 1_555
C15_7 C14_7 1_555 1_555
C16_7 C15_7 1_555 1_555
C17_7 C7_7 1_555 1_555
C18_7 C16_7 1_555 1_555
N1_7 C15_7 1_555 1_555
C19_7 C20_7 1_555 1_555
C20_7 C22_7 1_555 1_555
C21_7 C14_7 1_555 1_555
C22_7 C21_7 1_555 1_555
N2_7 C19_7 1_555 1_555
Ni1_16 N1_7 1_555 1_555
O8_7 P3_7 1_555 1_555
O18_4 P3_7 1_555 1_555
O10_7 P3_7 1_555 1_555
P3_7 C26_7 1_555 1_555
C23_7 C24_7 1_555 1_555
C24_7 C25_7 1_555 1_555
C25_7 C26_7 1_555 1_555
C26_7 C27_7 1_555 1_555
C27_7 C28_7 1_555 1_555
C28_7 C23_7 1_555 1_555
C29_7 C19_7 1_555 1_555
O20_2 P4_7 1_555 1_555
O21_3 P4_7 1_555 1_555
O13_7 P4_7 1_555 1_555
P4_7 C33_7 1_555 1_555
C30_7 C31_7 1_555 1_555
C31_7 C32_7 1_555 1_555
C32_7 C33_7 1_555 1_555
C33_7 C34_7 1_555 1_555
C34_7 C35_7 1_555 1_555
C35_7 C30_7 1_555 1_555
C36_7 C30_7 1_555 1_555
C37_7 C36_7 1_555 1_555
C38_7 C37_7 1_555 1_555
C39_7 C29_7 1_555 1_555
C40_7 C38_7 1_555 1_555
N3_7 Ni1_16 1_555 1_555
C41_7 C7_7 1_555 1_555
C42_7 C41_7 1_555 1_555
C43_7 C36_7 1_555 1_555
C44_7 C42_7 1_555 1_555
N4_7 Ni1_16 1_555 1_555
Zr7 O8_7 1_555 1_555
O16_4 Zr7 1_555 1_555
O21_4 Zr7 1_555 1_555
O22_4 Zr4 1_555 1_555
C5_7 C6_7 1_555 1_555
C17_7 C18_7 1_555 1_555
C17_7 N1_7 1_555 1_555
C21_7 N2_7 1_555 1_555
N2_7 Ni1_16 1_555 1_555
C23_7 C29_7 1_555 1_555
C37_7 N3_7 1_555 1_555
C39_7 C40_7 1_555 1_555
C39_7 N3_7 1_555 1_555
C41_7 N4_7 1_555 1_555
C43_7 C44_7 1_555 1_555
C43_7 N4_7 1_555 1_555
C13_7 H1_7 1_555 1_555
C2_7 H2_7 1_555 1_555
C24_7 H3_7 1_555 1_555
C10_7 H4_7 1_555 1_555
C16_7 H5_7 1_555 1_555
C18_7 H6_7 1_555 1_555
C25_7 H7_7 1_555 1_555
C12_7 H8_7 1_555 1_555
C20_7 H9_7 1_555 1_555
C22_7 H10_7 1_555 1_555
C27_7 H11_7 1_555 1_555
O7_7 H12_7 1_555 1_555
C5_7 H13_7 1_555 1_555
C28_7 H14_7 1_555 1_555
C6_7 H15_7 1_555 1_555
C9_7 H16_7 1_555 1_555
C3_7 H17_7 1_555 1_555
C35_7 H18_7 1_555 1_555
C34_7 H19_7 1_555 1_555
C40_7 H20_7 1_555 1_555
C38_7 H21_7 1_555 1_555
O13_7 H22_7 1_555 1_555
C31_7 H23_7 1_555 1_555
C32_7 H24_7 1_555 1_555
C44_7 H25_7 1_555 1_555
C42_7 H26_7 1_555 1_555
O4_8 P1_8 1_555 1_555
P1_8 O2_8 1_555 1_555
C1_8 C2_8 1_555 1_555
C2_8 C3_8 1_555 1_555
C3_8 C4_8 1_555 1_555
C4_8 P1_8 1_555 1_555
C5_8 C4_8 1_555 1_555
C6_8 C1_8 1_555 1_555
C7_8 C1_8 1_555 1_555
O20_4 P2_8 1_555 1_555
O21_4 P2_8 1_555 1_555
O7_8 P2_8 1_555 1_555
P2_8 C11_8 1_555 1_555
C8_8 C9_8 1_555 1_555
C9_8 C10_8 1_555 1_555
C10_8 C11_8 1_555 1_555
C11_8 C12_8 1_555 1_555
C12_8 C13_8 1_555 1_555
C13_8 C8_8 1_555 1_555
C14_8 C8_8 1_555 1_555
C15_8 C14_8 1_555 1_555
C16_8 C15_8 1_555 1_555
C17_8 C7_8 1_555 1_555
C18_8 C16_8 1_555 1_555
N1_8 C15_8 1_555 1_555
C19_8 C20_8 1_555 1_555
C20_8 C22_8 1_555 1_555
C21_8 C14_8 1_555 1_555
C22_8 C21_8 1_555 1_555
N2_8 C19_8 1_555 1_555
Ni1_17 N1_8 1_555 1_555
O16 Zr6 1_555 1_555
C5_8 C6_8 1_555 1_555
C17_8 C18_8 1_555 1_555
C17_8 N1_8 1_555 1_555
C21_8 N2_8 1_555 1_555
N2_8 Ni1_17 1_555 1_555
C13_8 H1_8 1_555 1_555
C10_8 H4_8 1_555 1_555
C16_8 H5_8 1_555 1_555
C18_8 H6_8 1_555 1_555
C12_8 H8_8 1_555 1_555
C20_8 H9_8 1_555 1_555
C22_8 H10_8 1_555 1_555
O7_8 H12_8 1_555 1_555
C5_8 H13_8 1_555 1_555
C6_8 H15_8 1_555 1_555
C9_8 H16_8 1_555 1_555
Zr5 O15 1_555 1_555
O8_8 P3_8 1_555 1_555
O10_8 P3_8 1_555 1_555
P3_8 C26_8 1_555 1_555
C23_8 C24_8 1_555 1_555
C24_8 C25_8 1_555 1_555
C25_8 C26_8 1_555 1_555
C26_8 C27_8 1_555 1_555
C27_8 C28_8 1_555 1_555
C28_8 C23_8 1_555 1_555
O19_4 P4_8 1_555 1_555
O22_4 P4_8 1_555 1_555
O13_8 P4_8 1_555 1_555
P4_8 C33_8 1_555 1_555
C30_8 C31_8 1_555 1_555
C31_8 C32_8 1_555 1_555
C32_8 C33_8 1_555 1_555
C33_8 C34_8 1_555 1_555
C34_8 C35_8 1_555 1_555
C35_8 C30_8 1_555 1_555
C36_8 C30_8 1_555 1_555
C37_8 C36_8 1_555 1_555
C38_8 C37_8 1_555 1_555
C39_8 C29_8 1_555 1_555
C40_8 C38_8 1_555 1_555
N3_8 Ni1_18 1_555 1_555
C42_8 C41_8 1_555 1_555
C43_8 C36_8 1_555 1_555
C44_8 C42_8 1_555 1_555
N4_8 Ni1_18 1_555 1_555
C23_8 C29_8 1_555 1_555
C37_8 N3_8 1_555 1_555
C39_8 C40_8 1_555 1_555
C39_8 N3_8 1_555 1_555
C41_8 N4_8 1_555 1_555
C43_8 C44_8 1_555 1_555
C43_8 N4_8 1_555 1_555
C27_8 H11_8 1_555 1_555
C28_8 H14_8 1_555 1_555
C35_8 H18_8 1_555 1_555
C34_8 H19_8 1_555 1_555
C40_8 H20_8 1_555 1_555
C38_8 H21_8 1_555 1_555
O13_8 H22_8 1_555 1_555
C31_8 H23_8 1_555 1_555
C32_8 H24_8 1_555 1_555
C44_8 H25_8 1_555 1_555
C42_8 H26_8 1_555 1_555

#END
