
###############################################################################
#
# This file contains modified crystal structure data generated from the
# MOF subset of the Cambridge Structural Database (CSD) v543 
# hosted by the Cambridge Crystallographic Data Centre (CCDC).
#
# This work is licensed under the Creative Commons
# Attribution-NonCommercial-ShareAlike 4.0 International License.
# To view a copy of this license, visit
# http://creativecommons.org/licenses/by-nc-sa/4.0/
# or send a letter to
# Creative Commons, PO Box 1866, Mountain View, CA 94042, USA.
#
# CIF created using the CSD Python API on 29 September 2022
# The structure has been converted into the P1 space group
# The structure has a 3D framework
# The original CSD entry VIBXUC is in the monoclinic crystal system
# The framework has been calculated to contain at least 10.0% void space
# The void calculation uses a probe of radius 1.32A, grid spacing 0.4
#
###############################################################################

data_VIBXUC
_chemical_formula_moiety         '(C160 H124 Mn8 N32 O36)n'
_symmetry_cell_setting           triclinic
_symmetry_space_group_name_H-M   'P 1'
_symmetry_Int_Tables_number      1
_space_group_name_Hall           'P 1'
loop_
_symmetry_equiv_pos_site_id
_symmetry_equiv_pos_as_xyz
1 x,y,z
_cell_length_a                   20.1455(13)
_cell_length_b                   15.6066(9)
_cell_length_c                   14.4134(8)
_cell_angle_alpha                90
_cell_angle_beta                 95.926(2)
_cell_angle_gamma                90
_cell_volume                     4507.4
loop_
_atom_site_label
_atom_site_type_symbol
_atom_site_fract_x
_atom_site_fract_y
_atom_site_fract_z
Mn2 Mn 0.13996(3) 0.39003(3) 0.12786(4)
O7 O 0.21475(13) 0.29804(16) 0.1173(2)
O8 O 0.04948(15) 0.47132(18) 0.1368(3)
H1 H 0.035679 0.465182 0.076653
H2 H 0.064579 0.523002 0.146703
O9 O 0.30588(14) 0.37998(16) 0.1308(2)
N4 N 0.50756(15) 0.01810(18) 0.2361(2)
N5 N 0.54033(18) 0.0346(2) 0.1597(2)
N6 N 0.61145(17) 0.0287(2) 0.2912(2)
N7 N 0.07047(16) 0.2807(2) 0.1366(2)
N8 N 0.02293(16) 0.15765(19) 0.0926(2)
C23 C 0.43506(19) 0.0066(2) 0.2310(3)
H18 H 0.424248 0.000142 0.295400
C24 C 0.6023(2) 0.0405(3) 0.1972(3)
H19 H 0.637500 0.051856 0.162043
C25 C 0.5509(2) 0.0149(3) 0.3119(3)
H20 H 0.539655 0.004264 0.371798
C26 C 0.3975(2) 0.0862(2) 0.1918(3)
C27 C 0.4266(2) 0.1659(2) 0.1864(3)
H21 H 0.472677 0.171331 0.198374
C28 C 0.3881(2) 0.2379(2) 0.1633(3)
H22 H 0.408539 0.291051 0.159651
C29 C 0.31977(19) 0.2310(2) 0.1458(3)
C30 C 0.2770(2) 0.3093(2) 0.1295(3)
C31 C 0.0758(2) 0.2095(2) 0.0887(3)
H23 H 0.112036 0.196625 0.056012
C32 C 0.01103(19) 0.0775(2) 0.0456(3)
C36 C 0.0104(2) 0.2738(3) 0.1718(3)
C37 C 0.2912(2) 0.1508(2) 0.1486(3)
H28 H 0.245296 0.144935 0.135219
C38 C 0.3294(2) 0.0795(3) 0.1708(3)
H29 H 0.309094 0.026015 0.171712
Mn6 Mn 0.29286(3) 0.51410(3) 0.11165(4)
Mn7 Mn 0.70714(3) 0.01410(3) 0.38835(4)
O22 O 0.18869(12) 0.49029(16) 0.04334(15)
O27 O 0.17360(15) 0.43503(18) 0.26492(18)
C33 C 0.0351(2) 0.0636(2) 0.9607(3)
H24 H 0.058945 0.106641 0.934269
H46 H 0.011344 0.199121 0.415015
O25 O 0.11302(16) 0.4101(2) 0.9657(2)
O3 O 0.24198(14) 0.53977(17) 0.23101(17)
O5 O 0.29615(12) 0.65111(15) 0.08643(17)
N1 N 0.12908(16) 0.74069(19) 0.6216(2)
N2 N 0.06385(18) 0.7196(2) 0.6036(2)
N3 N 0.0762(2) 0.8612(2) 0.6097(3)
C1 C 0.15302(18) 0.4710(2) 0.9683(2)
C2 C 0.15834(18) 0.5244(2) 0.8827(2)
C3 C 0.1149(2) 0.5131(3) 0.8022(3)
H5 H 0.081313 0.472039 0.800957
C4 C 0.2070(2) 0.5870(2) 0.8818(3)
H6 H 0.235209 0.597353 0.935878
C5 C 0.20633(19) 0.5022(2) 0.2838(2)
C6 C 0.20181(18) 0.5438(2) 0.3772(2)
C7 C 0.19496(19) 0.4966(2) 0.4566(2)
H7 H 0.193857 0.437115 0.453916
C8 C 0.1897(2) 0.5383(3) 0.5405(3)
H8 H 0.187015 0.505937 0.594155
C9 C 0.18838(18) 0.6264(2) 0.5465(2)
C10 C 0.18188(19) 0.6757(2) 0.6366(2)
H9 H 0.223856 0.707009 0.650933
C11 C 0.0346(2) 0.7945(3) 0.5972(3)
C12 C 0.1352(2) 0.8256(3) 0.6248(3)
H11 H 0.175316 0.855139 0.635943
C13 C 0.17216(19) 0.6222(2) 0.7225(2)
C14 C 0.1215(2) 0.5628(3) 0.7237(2)
H12 H 0.091173 0.555862 0.671028
C15 C 0.2149(2) 0.6341(2) 0.8030(3)
H13 H 0.249097 0.674212 0.803783
C16 C 0.1966(2) 0.6729(3) 0.4673(3)
H14 H 0.196696 0.732464 0.469925
C17 C 0.2046(2) 0.6322(3) 0.3840(3)
H15 H 0.211926 0.664603 0.331875
C18 C 0.33734(19) 0.6933(2) 0.0443(3)
C19 C 0.36374(18) 0.7748(2) 0.0905(3)
C20 C 0.3655(2) 0.7841(2) 0.1860(3)
H16 H 0.349865 0.739843 0.221114
C21 C 0.3899(2) 0.8579(3) 0.2306(3)
H17 H 0.391241 0.862530 0.295056
C22 C 0.41210(19) 0.9237(2) 0.1799(3)
C39 C 0.4115(2) 0.9159(2) 0.0848(3)
H30 H 0.426895 0.960755 0.050319
C40 C 0.3878(2) 0.8406(3) 0.0395(3)
N17 N 0.38855(17) 0.5287(2) 0.2088(2)
H2_2 H 0.935421 0.023002 0.353297
Mn2_2 Mn 0.86004(3) 0.89003(3) 0.37214(4)
O3_2 O 0.75802(14) 0.03977(17) 0.26899(17)
O5_2 O 0.70385(12) 0.15111(15) 0.41357(17)
O6 O 0.64241(15) 0.17264(18) 0.53174(19)
O7_2 O 0.78525(13) 0.79804(16) 0.3827(2)
O8_2 O 0.95052(15) 0.97132(18) 0.3632(3)
H1_2 H 0.964321 0.965182 0.423347
O9_2 O 0.69412(14) 0.87998(16) 0.3692(2)
O10 O 0.65451(17) 0.00204(18) 0.5093(2)
H3 H 0.649773 0.051311 0.532927
N4_2 N 0.49244(15) 0.51810(18) 0.2639(2)
N5_2 N 0.45967(18) 0.5346(2) 0.3403(2)
N7_2 N 0.92953(16) 0.7807(2) 0.3634(2)
N8_2 N 0.97707(16) 0.65765(19) 0.4074(2)
C5_2 C 0.79367(19) 0.0022(2) 0.2162(2)
C6_2 C 0.79819(18) 0.0438(2) 0.1228(2)
C16_2 C 0.8034(2) 0.1729(3) 0.0327(3)
H14_2 H 0.803304 0.232464 0.030075
C17_2 C 0.7954(2) 0.1322(3) 0.1160(3)
H15_2 H 0.788074 0.164603 0.168125
C18_2 C 0.66266(19) 0.1933(2) 0.4557(3)
C19_2 C 0.63626(18) 0.2748(2) 0.4095(3)
C20_2 C 0.6345(2) 0.2841(2) 0.3140(3)
H16_2 H 0.650135 0.239843 0.278886
C21_2 C 0.6101(2) 0.3579(3) 0.2694(3)
H17_2 H 0.608759 0.362530 0.204944
C22_2 C 0.58790(19) 0.4237(2) 0.3201(3)
C23_2 C 0.56494(19) 0.5066(2) 0.2690(3)
H18_2 H 0.575752 0.500142 0.204600
C24_2 C 0.3977(2) 0.5405(3) 0.3028(3)
H19_2 H 0.362500 0.551856 0.337957
C25_2 C 0.4491(2) 0.5149(3) 0.1881(3)
H20_2 H 0.460345 0.504264 0.128202
C26_2 C 0.6025(2) 0.5862(2) 0.3082(3)
C27_2 C 0.5734(2) 0.6659(2) 0.3136(3)
H21_2 H 0.527323 0.671331 0.301626
C28_2 C 0.6119(2) 0.7379(2) 0.3367(3)
H22_2 H 0.591461 0.791051 0.340349
C29_2 C 0.68023(19) 0.7310(2) 0.3542(3)
C30_2 C 0.7230(2) 0.8093(2) 0.3705(3)
C31_2 C 0.9242(2) 0.7095(2) 0.4113(3)
H23_2 H 0.887964 0.696625 0.443988
C32_2 C 0.98897(19) 0.5775(2) 0.4544(3)
C33_2 C 0.9649(2) 0.5636(2) 0.5393(3)
H24_2 H 0.941055 0.606641 0.565731
C36_2 C 0.9896(2) 0.7738(3) 0.3282(3)
C37_2 C 0.7088(2) 0.6508(2) 0.3514(3)
H28_2 H 0.754704 0.644935 0.364781
C38_2 C 0.6706(2) 0.5795(3) 0.3292(3)
H29_2 H 0.690906 0.526015 0.328288
C39_2 C 0.5885(2) 0.4159(2) 0.4152(3)
H30_2 H 0.573105 0.460755 0.449681
C40_2 C 0.6122(2) 0.3406(3) 0.4605(3)
H31 H 0.611759 0.335078 0.524662
C44 C 0.9759(2) 0.4864(2) 0.5855(3)
H34 H 0.959806 0.477533 0.642908
C45 C 0.9810(2) 0.3009(3) 0.6464(3)
H35 H 0.940042 0.320608 0.662184
H36 H 0.992351 0.184869 0.708350
O22_2 O 0.81131(12) 0.99029(16) 0.45666(15)
O25_2 O 0.88698(16) 0.9101(2) 0.5343(2)
O27_2 O 0.82640(15) 0.93503(18) 0.23508(18)
N1_2 N 0.87092(16) 0.24069(19) 0.8784(2)
N2_2 N 0.93615(18) 0.2196(2) 0.8964(2)
N3_2 N 0.9238(2) 0.3612(2) 0.8903(3)
C2_2 C 0.84166(18) 0.0244(2) 0.6173(2)
C3_2 C 0.8851(2) 0.0131(3) 0.6978(3)
C4_2 C 0.7930(2) 0.0870(2) 0.6182(3)
H6_2 H 0.764791 0.097353 0.564122
C8_2 C 0.8103(2) 0.0383(3) 0.9595(3)
H8_2 H 0.812985 0.005937 0.905845
C9_2 C 0.81162(18) 0.1264(2) 0.9535(2)
C10_2 C 0.81812(19) 0.1757(2) 0.8634(2)
H9_2 H 0.776144 0.207009 0.849067
C11_2 C 0.9654(2) 0.2945(3) 0.9028(3)
C12_2 C 0.8648(2) 0.3256(3) 0.8752(3)
H11_2 H 0.824684 0.355139 0.864057
C13_2 C 0.82784(19) 0.1222(2) 0.7775(2)
C14_2 C 0.8785(2) 0.0628(3) 0.7763(2)
H12_2 H 0.908827 0.055862 0.828972
C15_2 C 0.7851(2) 0.1341(2) 0.6970(3)
H13_2 H 0.750903 0.174212 0.696217
H4 H 0.643223 0.959512 0.540906
C7_2 C 0.80504(19) 0.9966(2) 0.0434(2)
H7_2 H 0.806143 0.937115 0.046084
C1_2 C 0.84698(18) 0.9710(2) 0.5317(2)
H5_2 H 0.918687 0.972039 0.699043
O6_2 O 0.35759(15) 0.67264(18) 0.96826(19)
O10_2 O 0.34549(17) 0.50204(18) 0.9907(2)
H3_2 H 0.350227 0.551311 0.967073
H4_2 H 0.356777 0.459512 0.959094
H31_2 H 0.388241 0.835078 0.975338
C44_2 C 0.0241(2) 0.9864(2) 0.9145(3)
H34_2 H 0.040194 0.977533 0.857092
C45_2 C 0.0190(2) 0.8009(3) 0.8536(3)
H35_2 H 0.059958 0.820608 0.837816
H36_2 H 0.007649 0.684869 0.791650
C34 C 0.9759(2) 0.0136(2) 0.0855(3)
H25 H 0.959806 0.022467 0.142908
C35 C 0.9810(2) 0.1991(3) 0.1464(3)
H26 H 0.940042 0.179392 0.162184
H27 H 0.992351 0.315131 0.208350
O16 O 0.64241(15) 0.32736(18) 0.03174(19)
O20 O 0.65451(17) 0.49796(18) 0.0093(2)
H39 H 0.649773 0.448689 0.032927
H40 H 0.643223 0.540488 0.040906
H62 H 0.611759 0.164922 0.024662
Mn3 Mn 0.70714(3) 0.48590(3) 0.88835(4)
O12 O 0.88698(16) 0.5899(2) 0.0343(2)
O13 O 0.75802(14) 0.46023(17) 0.76899(17)
O14 O 0.82640(15) 0.56497(18) 0.73508(18)
O15 O 0.70385(12) 0.34889(15) 0.91357(17)
N11 N 0.87092(16) 0.25931(19) 0.3784(2)
N12 N 0.93615(18) 0.2804(2) 0.3964(2)
N13 N 0.9238(2) 0.1388(2) 0.3903(3)
C47 C 0.84698(18) 0.5290(2) 0.0317(2)
C48 C 0.84166(18) 0.4756(2) 0.1173(2)
C49 C 0.8851(2) 0.4869(3) 0.1978(3)
H41 H 0.918687 0.527961 0.199043
C50 C 0.7930(2) 0.4130(2) 0.1182(3)
H42 H 0.764791 0.402647 0.064122
C51 C 0.79367(19) 0.4978(2) 0.7162(2)
C52 C 0.79819(18) 0.4562(2) 0.6228(2)
C53 C 0.80504(19) 0.5034(2) 0.5434(2)
H43 H 0.806143 0.562885 0.546084
C54 C 0.8103(2) 0.4617(3) 0.4595(3)
H44 H 0.812985 0.494063 0.405845
C55 C 0.81162(18) 0.3736(2) 0.4535(2)
C56 C 0.81812(19) 0.3243(2) 0.3634(2)
H45 H 0.776144 0.292991 0.349067
C57 C 0.9654(2) 0.2055(3) 0.4028(3)
C58 C 0.8648(2) 0.1744(3) 0.3752(3)
H47 H 0.824684 0.144861 0.364057
C59 C 0.82784(19) 0.3778(2) 0.2775(2)
C60 C 0.8785(2) 0.4372(3) 0.2763(2)
H48 H 0.908827 0.444138 0.328972
C61 C 0.7851(2) 0.3659(2) 0.1970(3)
H49 H 0.750903 0.325788 0.196217
C62 C 0.8034(2) 0.3271(3) 0.5327(3)
H50 H 0.803304 0.267536 0.530075
C63 C 0.7954(2) 0.3678(3) 0.6160(3)
H51 H 0.788074 0.335397 0.668125
C64 C 0.66266(19) 0.3067(2) 0.9557(3)
C65 C 0.63626(18) 0.2252(2) 0.9095(3)
C66 C 0.6345(2) 0.2159(2) 0.8140(3)
H52 H 0.650135 0.260157 0.778886
C67 C 0.6101(2) 0.1421(3) 0.7694(3)
H53 H 0.608759 0.137470 0.704944
C68 C 0.58790(19) 0.0763(2) 0.8201(3)
C79 C 0.5885(2) 0.0841(2) 0.9152(3)
H61 H 0.573105 0.039245 0.949681
C80 C 0.6122(2) 0.1594(3) 0.9605(3)
Mn14 Mn 0.86004(3) 0.60997(3) 0.87214(4)
O24 O 0.81131(12) 0.50971(16) 0.95666(15)
O30 O 0.69412(14) 0.62002(16) 0.8692(2)
N18 N 0.61145(17) 0.4713(2) 0.7912(2)
H10 H 0.988656 0.800879 0.584985
C43 C 0.9649(2) 0.9364(2) 0.0393(3)
H33 H 0.941055 0.893359 0.065731
N9 N 0.92953(16) 0.7193(2) 0.8634(2)
N10 N 0.97707(16) 0.84235(19) 0.9074(2)
C41 C 0.9242(2) 0.7905(2) 0.9113(3)
H32 H 0.887964 0.803375 0.943988
C42 C 0.98897(19) 0.9225(2) 0.9544(3)
C46 C 0.9896(2) 0.7262(3) 0.8282(3)
O17 O 0.78525(13) 0.70196(16) 0.8827(2)
O18 O 0.95052(15) 0.52868(18) 0.8632(3)
H37 H 0.964321 0.534818 0.923347
H38 H 0.935421 0.476998 0.853297
N14 N 0.49244(15) 0.98190(18) 0.7639(2)
N15 N 0.45967(18) 0.9654(2) 0.8403(2)
N16 N 0.38855(17) 0.9713(2) 0.7088(2)
C69 C 0.56494(19) 0.9934(2) 0.7690(3)
H54 H 0.575752 0.999858 0.704600
C70 C 0.3977(2) 0.9595(3) 0.8028(3)
H55 H 0.362500 0.948144 0.837957
C71 C 0.4491(2) 0.9851(3) 0.6881(3)
H56 H 0.460345 0.995736 0.628202
C72 C 0.6025(2) 0.9138(2) 0.8082(3)
C73 C 0.5734(2) 0.8341(2) 0.8136(3)
H57 H 0.527323 0.828669 0.801626
C74 C 0.6119(2) 0.7621(2) 0.8367(3)
H58 H 0.591461 0.708949 0.840349
C75 C 0.68023(19) 0.7690(2) 0.8542(3)
C76 C 0.7230(2) 0.6907(2) 0.8705(3)
C77 C 0.7088(2) 0.8492(2) 0.8514(3)
H59 H 0.754704 0.855065 0.864781
C78 C 0.6706(2) 0.9205(3) 0.8292(3)
H60 H 0.690906 0.973985 0.828288
Mn10 Mn 0.29286(3) 0.98590(3) 0.61165(4)
O11 O 0.18869(12) 0.00971(16) 0.54334(15)
O12_2 O 0.11302(16) 0.0899(2) 0.4657(2)
C47_2 C 0.15302(18) 0.0290(2) 0.4683(2)
H41_2 H 0.081313 0.027961 0.300957
Mn13 Mn 0.13996(3) 0.10997(3) 0.62786(4)
O14_2 O 0.17360(15) 0.06497(18) 0.76492(18)
H40_2 H 0.356777 0.040488 0.459094
C53_2 C 0.19496(19) 0.0034(2) 0.9566(2)
H43_2 H 0.193857 0.062885 0.953916
O30_2 O 0.30588(14) 0.12002(16) 0.6308(2)
N11_2 N 0.12908(16) 0.75931(19) 0.1216(2)
N12_2 N 0.06385(18) 0.7804(2) 0.1036(2)
N13_2 N 0.0762(2) 0.6388(2) 0.1097(3)
C48_2 C 0.15834(18) 0.9756(2) 0.3827(2)
C49_2 C 0.1149(2) 0.9869(3) 0.3022(3)
C50_2 C 0.2070(2) 0.9130(2) 0.3818(3)
H42_2 H 0.235209 0.902647 0.435878
C54_2 C 0.1897(2) 0.9617(3) 0.0405(3)
H44_2 H 0.187015 0.994063 0.094155
C55_2 C 0.18838(18) 0.8736(2) 0.0465(2)
C56_2 C 0.18188(19) 0.8243(2) 0.1366(2)
H45_2 H 0.223856 0.792991 0.150933
C57_2 C 0.0346(2) 0.7055(3) 0.0972(3)
C58_2 C 0.1352(2) 0.6744(3) 0.1248(3)
H47_2 H 0.175316 0.644861 0.135943
C59_2 C 0.17216(19) 0.8778(2) 0.2225(2)
C60_2 C 0.1215(2) 0.9372(3) 0.2237(2)
H48_2 H 0.091173 0.944138 0.171028
C61_2 C 0.2149(2) 0.8659(2) 0.3030(3)
H49_2 H 0.249097 0.825788 0.303783
C34_2 C 0.0241(2) 0.5136(2) 0.4145(3)
H25_2 H 0.040194 0.522467 0.357092
C35_2 C 0.0190(2) 0.6991(3) 0.3536(3)
H26_2 H 0.059958 0.679392 0.337816
H27_2 H 0.007649 0.815131 0.291650
N9_2 N 0.07047(16) 0.2193(2) 0.6366(2)
N10_2 N 0.02293(16) 0.34235(19) 0.5926(2)
C41_2 C 0.0758(2) 0.2905(2) 0.5887(3)
H32_2 H 0.112036 0.303375 0.556012
C42_2 C 0.01103(19) 0.4225(2) 0.5456(3)
C43_2 C 0.0351(2) 0.4364(2) 0.4607(3)
H33_2 H 0.058945 0.393359 0.434269
C46_2 C 0.0104(2) 0.2262(3) 0.6718(3)
O13_2 O 0.24198(14) 0.96023(17) 0.73101(17)
O15_2 O 0.29615(12) 0.84889(15) 0.58643(17)
O16_2 O 0.35759(15) 0.82736(18) 0.46826(19)
O17_2 O 0.21475(13) 0.20196(16) 0.6173(2)
O18_2 O 0.04948(15) 0.02868(18) 0.6368(3)
H37_2 H 0.035679 0.034818 0.576653
O20_2 O 0.34549(17) 0.99796(18) 0.4907(2)
H39_2 H 0.350227 0.948689 0.467073
N14_2 N 0.50756(15) 0.48190(18) 0.7361(2)
N15_2 N 0.54033(18) 0.4654(2) 0.6597(2)
C51_2 C 0.20633(19) 0.9978(2) 0.7838(2)
C52_2 C 0.20181(18) 0.9562(2) 0.8772(2)
C62_2 C 0.1966(2) 0.8271(3) 0.9673(3)
H50_2 H 0.196696 0.767536 0.969925
C63_2 C 0.2046(2) 0.8678(3) 0.8840(3)
H51_2 H 0.211926 0.835397 0.831875
C64_2 C 0.33734(19) 0.8067(2) 0.5443(3)
C65_2 C 0.36374(18) 0.7252(2) 0.5905(3)
C66_2 C 0.3655(2) 0.7159(2) 0.6860(3)
H52_2 H 0.349865 0.760157 0.721114
C67_2 C 0.3899(2) 0.6421(3) 0.7306(3)
H53_2 H 0.391241 0.637470 0.795056
C68_2 C 0.41210(19) 0.5763(2) 0.6799(3)
C69_2 C 0.43506(19) 0.4934(2) 0.7310(3)
H54_2 H 0.424248 0.499858 0.795400
C70_2 C 0.6023(2) 0.4595(3) 0.6972(3)
H55_2 H 0.637500 0.448144 0.662043
C71_2 C 0.5509(2) 0.4851(3) 0.8119(3)
H56_2 H 0.539655 0.495736 0.871798
C72_2 C 0.3975(2) 0.4138(2) 0.6918(3)
C73_2 C 0.4266(2) 0.3341(2) 0.6864(3)
H57_2 H 0.472677 0.328669 0.698374
C74_2 C 0.3881(2) 0.2621(2) 0.6633(3)
H58_2 H 0.408539 0.208949 0.659651
C75_2 C 0.31977(19) 0.2690(2) 0.6458(3)
C76_2 C 0.2770(2) 0.1907(2) 0.6295(3)
C77_2 C 0.2912(2) 0.3492(2) 0.6486(3)
H59_2 H 0.245296 0.355065 0.635219
C78_2 C 0.3294(2) 0.4205(3) 0.6708(3)
H60_2 H 0.309094 0.473985 0.671712
C79_2 C 0.4115(2) 0.5841(2) 0.5848(3)
H61_2 H 0.426895 0.539245 0.550319
C80_2 C 0.3878(2) 0.6594(3) 0.5395(3)
H62_2 H 0.388241 0.664922 0.475338
H38_2 H 0.064579 0.976998 0.646703
H10_2 H 0.011344 0.300879 0.915015
H46_2 H 0.988656 0.699121 0.084985
loop_
_geom_bond_atom_site_label_1
_geom_bond_atom_site_label_2
_geom_bond_site_symmetry_1
_geom_bond_site_symmetry_2
Mn2 O7 1_555 1_555
O7 C30 1_555 1_555
O8 Mn2 1_555 1_555
H1 O8 1_555 1_555
H2 O8 1_555 1_555
O9 C30 1_555 1_555
N4 N5 1_555 1_555
N5 C24 1_555 1_555
N6 C24 1_555 1_555
N7 Mn2 1_555 1_555
N8 C31 1_555 1_555
C23 N4 1_555 1_555
H18 C23 1_555 1_555
C24 H19 1_555 1_555
C25 N4 1_555 1_555
H20 C25 1_555 1_555
C26 C23 1_555 1_555
C27 C26 1_555 1_555
H21 C27 1_555 1_555
C28 C27 1_555 1_555
H22 C28 1_555 1_555
C29 C28 1_555 1_555
C30 C29 1_555 1_555
C31 N7 1_555 1_555
H23 C31 1_555 1_555
C32 N8 1_555 1_555
C36 N7 1_555 1_555
C37 C29 1_555 1_555
H28 C37 1_555 1_555
C38 C26 1_555 1_555
H29 C38 1_555 1_555
Mn6 O9 1_555 1_555
Mn7 N6 1_555 1_555
O22 Mn2 1_555 1_555
O27 Mn2 1_555 1_555
N6 C25 1_555 1_555
C37 C38 1_555 1_555
Mn6 O22 1_555 1_555
H24 C33 1_555 1_555
Mn6 O3 1_555 1_555
O25 C1 1_555 1_555
O3 C5 1_555 1_555
O27 C5 1_555 1_555
O5 Mn6 1_555 1_555
N1 N2 1_555 1_555
N2 C11 1_555 1_555
N3 C11 1_555 1_555
C1 C2 1_555 1_555
C2 C3 1_555 1_555
C3 H5 1_555 1_555
C4 C2 1_555 1_555
H6 C4 1_555 1_555
C5 C6 1_555 1_555
C6 C7 1_555 1_555
C7 H7 1_555 1_555
C8 C7 1_555 1_555
H8 C8 1_555 1_555
C9 C8 1_555 1_555
C10 N1 1_555 1_555
H9 C10 1_555 1_555
C12 N1 1_555 1_555
H11 C12 1_555 1_555
C13 C10 1_555 1_555
C14 C3 1_555 1_555
H12 C14 1_555 1_555
C15 C4 1_555 1_555
H13 C15 1_555 1_555
C16 C9 1_555 1_555
H14 C16 1_555 1_555
C17 C6 1_555 1_555
H15 C17 1_555 1_555
C18 O5 1_555 1_555
C19 C18 1_555 1_555
C20 C19 1_555 1_555
H16 C20 1_555 1_555
C21 C20 1_555 1_555
H17 C21 1_555 1_555
C22 C21 1_555 1_555
C39 C22 1_555 1_555
H30 C39 1_555 1_555
C40 C19 1_555 1_555
N17 Mn6 1_555 1_555
N3 C12 1_555 1_555
C9 C10 1_555 1_555
C13 C14 1_555 1_555
C13 C15 1_555 1_555
C16 C17 1_555 1_555
C39 C40 1_555 1_555
Mn7 O3_2 1_555 1_555
Mn2_2 O7_2 1_555 1_555
O3_2 C5_2 1_555 1_555
O5_2 Mn7 1_555 1_555
O6 C18_2 1_555 1_555
O7_2 C30_2 1_555 1_555
O8_2 Mn2_2 1_555 1_555
H1_2 O8_2 1_555 1_555
O9_2 C30_2 1_555 1_555
O10 Mn7 1_555 1_555
H3 O10 1_555 1_555
N4_2 N5_2 1_555 1_555
N5_2 C24_2 1_555 1_555
N17 C24_2 1_555 1_555
N7_2 Mn2_2 1_555 1_555
N8_2 C31_2 1_555 1_555
C5_2 C6_2 1_555 1_555
H14_2 C16_2 1_555 1_555
C17_2 C6_2 1_555 1_555
H15_2 C17_2 1_555 1_555
C18_2 O5_2 1_555 1_555
C19_2 C18_2 1_555 1_555
C20_2 C19_2 1_555 1_555
H16_2 C20_2 1_555 1_555
C21_2 C20_2 1_555 1_555
H17_2 C21_2 1_555 1_555
C22_2 C21_2 1_555 1_555
C23_2 N4_2 1_555 1_555
H18_2 C23_2 1_555 1_555
C24_2 H19_2 1_555 1_555
C25_2 N4_2 1_555 1_555
H20_2 C25_2 1_555 1_555
C26_2 C23_2 1_555 1_555
C27_2 C26_2 1_555 1_555
H21_2 C27_2 1_555 1_555
C28_2 C27_2 1_555 1_555
H22_2 C28_2 1_555 1_555
C29_2 C28_2 1_555 1_555
C30_2 C29_2 1_555 1_555
C31_2 N7_2 1_555 1_555
H23_2 C31_2 1_555 1_555
C32_2 N8_2 1_555 1_555
C33_2 C32_2 1_555 1_555
H24_2 C33_2 1_555 1_555
C36_2 N7_2 1_555 1_555
C37_2 C29_2 1_555 1_555
H28_2 C37_2 1_555 1_555
C38_2 C26_2 1_555 1_555
H29_2 C38_2 1_555 1_555
C39_2 C22_2 1_555 1_555
H30_2 C39_2 1_555 1_555
C40_2 C19_2 1_555 1_555
H31 C40_2 1_555 1_555
C44 C33_2 1_555 1_555
H34 C44 1_555 1_555
H35 C45 1_555 1_555
O22_2 Mn2_2 1_555 1_555
O25_2 Mn2_2 1_555 1_555
O27_2 Mn2_2 1_555 1_555
N17 C25_2 1_555 1_555
C16_2 C17_2 1_555 1_555
C22_2 C23_2 1_555 1_555
C37_2 C38_2 1_555 1_555
C39_2 C40_2 1_555 1_555
N1_2 N2_2 1_555 1_555
N2_2 C11_2 1_555 1_555
N3_2 C11_2 1_555 1_555
C2_2 C3_2 1_555 1_555
C4_2 C2_2 1_555 1_555
H6_2 C4_2 1_555 1_555
H8_2 C8_2 1_555 1_555
C9_2 C8_2 1_555 1_555
C10_2 N1_2 1_555 1_555
H9_2 C10_2 1_555 1_555
C12_2 N1_2 1_555 1_555
H11_2 C12_2 1_555 1_555
C13_2 C10_2 1_555 1_555
C14_2 C3_2 1_555 1_555
H12_2 C14_2 1_555 1_555
C15_2 C4_2 1_555 1_555
H13_2 C15_2 1_555 1_555
N3_2 C12_2 1_555 1_555
C9_2 C10_2 1_555 1_555
C13_2 C14_2 1_555 1_555
C13_2 C15_2 1_555 1_555
C7_2 H7_2 1_555 1_555
O22_2 C1_2 1_555 1_555
O25_2 C1_2 1_555 1_555
H3_2 O10_2 1_555 1_555
H4_2 O10_2 1_555 1_555
H34_2 C44_2 1_555 1_555
H35_2 C45_2 1_555 1_555
H25 C34 1_555 1_555
H26 C35 1_555 1_555
H39 O20 1_555 1_555
H40 O20 1_555 1_555
Mn3 O13 1_555 1_555
O12 C47 1_555 1_555
O13 C51 1_555 1_555
O14 C51 1_555 1_555
O15 Mn3 1_555 1_555
N11 N12 1_555 1_555
N12 C57 1_555 1_555
N13 C57 1_555 1_555
C47 C48 1_555 1_555
C48 C49 1_555 1_555
C49 H41 1_555 1_555
C50 C48 1_555 1_555
H42 C50 1_555 1_555
C51 C52 1_555 1_555
C52 C53 1_555 1_555
C53 H43 1_555 1_555
C54 C53 1_555 1_555
H44 C54 1_555 1_555
C55 C54 1_555 1_555
C56 N11 1_555 1_555
H45 C56 1_555 1_555
C58 N11 1_555 1_555
H47 C58 1_555 1_555
C59 C56 1_555 1_555
C60 C49 1_555 1_555
H48 C60 1_555 1_555
C61 C50 1_555 1_555
H49 C61 1_555 1_555
C62 C55 1_555 1_555
H50 C62 1_555 1_555
C63 C52 1_555 1_555
H51 C63 1_555 1_555
C64 O15 1_555 1_555
C65 C64 1_555 1_555
C66 C65 1_555 1_555
H52 C66 1_555 1_555
C67 C66 1_555 1_555
H53 C67 1_555 1_555
C68 C67 1_555 1_555
C79 C68 1_555 1_555
H61 C79 1_555 1_555
C80 C65 1_555 1_555
Mn14 O14 1_555 1_555
O24 Mn3 1_555 1_555
O30 Mn3 1_555 1_555
N18 Mn3 1_555 1_555
N13 C58 1_555 1_555
C55 C56 1_555 1_555
C59 C60 1_555 1_555
C59 C61 1_555 1_555
C62 C63 1_555 1_555
C79 C80 1_555 1_555
Mn14 O24 1_555 1_555
H33 C43 1_555 1_555
N9 C41 1_555 1_555
N10 C41 1_555 1_555
C41 H32 1_555 1_555
C42 N10 1_555 1_555
C46 N9 1_555 1_555
Mn14 N9 1_555 1_555
O17 Mn14 1_555 1_555
O18 Mn14 1_555 1_555
H37 O18 1_555 1_555
H38 O18 1_555 1_555
O30 C76 1_555 1_555
N14 N15 1_555 1_555
N15 C70 1_555 1_555
N16 C70 1_555 1_555
C69 N14 1_555 1_555
H54 C69 1_555 1_555
C70 H55 1_555 1_555
C71 N14 1_555 1_555
H56 C71 1_555 1_555
C72 C69 1_555 1_555
C73 C72 1_555 1_555
H57 C73 1_555 1_555
C74 C73 1_555 1_555
H58 C74 1_555 1_555
C75 C74 1_555 1_555
C76 O17 1_555 1_555
C77 C75 1_555 1_555
H59 C77 1_555 1_555
C78 C72 1_555 1_555
H60 C78 1_555 1_555
Mn10 N16 1_555 1_555
N16 C71 1_555 1_555
C75 C76 1_555 1_555
C77 C78 1_555 1_555
O11 C47_2 1_555 1_555
O12_2 C47_2 1_555 1_555
Mn13 O11 1_555 1_555
O12_2 Mn13 1_555 1_555
C53_2 H43_2 1_555 1_555
Mn13 O14_2 1_555 1_555
N11_2 N12_2 1_555 1_555
N12_2 C57_2 1_555 1_555
N13_2 C57_2 1_555 1_555
C48_2 C49_2 1_555 1_555
C50_2 C48_2 1_555 1_555
H42_2 C50_2 1_555 1_555
H44_2 C54_2 1_555 1_555
C55_2 C54_2 1_555 1_555
C56_2 N11_2 1_555 1_555
H45_2 C56_2 1_555 1_555
C58_2 N11_2 1_555 1_555
H47_2 C58_2 1_555 1_555
C59_2 C56_2 1_555 1_555
C60_2 C49_2 1_555 1_555
H48_2 C60_2 1_555 1_555
C61_2 C50_2 1_555 1_555
H49_2 C61_2 1_555 1_555
N13_2 C58_2 1_555 1_555
C55_2 C56_2 1_555 1_555
C59_2 C60_2 1_555 1_555
C59_2 C61_2 1_555 1_555
H25_2 C34_2 1_555 1_555
H26_2 C35_2 1_555 1_555
N9_2 C41_2 1_555 1_555
N10_2 C41_2 1_555 1_555
C41_2 H32_2 1_555 1_555
C42_2 N10_2 1_555 1_555
C43_2 C34_2 1_555 1_555
H33_2 C43_2 1_555 1_555
C46_2 N9_2 1_555 1_555
Mn10 O13_2 1_555 1_555
Mn13 N9_2 1_555 1_555
O13_2 C51_2 1_555 1_555
O15_2 Mn10 1_555 1_555
O16_2 C64_2 1_555 1_555
O17_2 Mn13 1_555 1_555
O18_2 Mn13 1_555 1_555
H37_2 O18_2 1_555 1_555
O30_2 C76_2 1_555 1_555
O20_2 Mn10 1_555 1_555
H39_2 O20_2 1_555 1_555
N14_2 N15_2 1_555 1_555
N15_2 C70_2 1_555 1_555
N18 C70_2 1_555 1_555
C51_2 C52_2 1_555 1_555
H50_2 C62_2 1_555 1_555
C63_2 C52_2 1_555 1_555
H51_2 C63_2 1_555 1_555
C64_2 O15_2 1_555 1_555
C65_2 C64_2 1_555 1_555
C66_2 C65_2 1_555 1_555
H52_2 C66_2 1_555 1_555
C67_2 C66_2 1_555 1_555
H53_2 C67_2 1_555 1_555
C68_2 C67_2 1_555 1_555
C69_2 N14_2 1_555 1_555
H54_2 C69_2 1_555 1_555
C70_2 H55_2 1_555 1_555
C71_2 N14_2 1_555 1_555
H56_2 C71_2 1_555 1_555
C72_2 C69_2 1_555 1_555
C73_2 C72_2 1_555 1_555
H57_2 C73_2 1_555 1_555
C74_2 C73_2 1_555 1_555
H58_2 C74_2 1_555 1_555
C75_2 C74_2 1_555 1_555
C76_2 O17_2 1_555 1_555
C77_2 C75_2 1_555 1_555
H59_2 C77_2 1_555 1_555
C78_2 C72_2 1_555 1_555
H60_2 C78_2 1_555 1_555
C79_2 C68_2 1_555 1_555
H61_2 C79_2 1_555 1_555
C80_2 C65_2 1_555 1_555
H62_2 C80_2 1_555 1_555
C42_2 C43_2 1_555 1_555
N18 C71_2 1_555 1_555
C62_2 C63_2 1_555 1_555
C68_2 C69_2 1_555 1_555
C75_2 C76_2 1_555 1_555
C77_2 C78_2 1_555 1_555
C79_2 C80_2 1_555 1_555

#END
