
###############################################################################
#
# This file contains modified crystal structure data generated from the
# MOF subset of the Cambridge Structural Database (CSD) v543 
# hosted by the Cambridge Crystallographic Data Centre (CCDC).
#
# This work is licensed under the Creative Commons
# Attribution-NonCommercial-ShareAlike 4.0 International License.
# To view a copy of this license, visit
# http://creativecommons.org/licenses/by-nc-sa/4.0/
# or send a letter to
# Creative Commons, PO Box 1866, Mountain View, CA 94042, USA.
#
# CIF created using the CSD Python API on 29 September 2022
# The structure has been converted into the P1 space group
# The structure has a 3D framework
# The original CSD entry VIBYIQ is in the rhombohedral crystal system
# The framework has been calculated to contain at least 10.0% void space
# The void calculation uses a probe of radius 1.32A, grid spacing 0.4
#
###############################################################################

data_VIBYIQ
_chemical_formula_moiety         '(C216 H234 Mn29 N36 O138)n'
_symmetry_cell_setting           triclinic
_symmetry_space_group_name_H-M   'P 1'
_symmetry_Int_Tables_number      1
_space_group_name_Hall           'P 1'
loop_
_symmetry_equiv_pos_site_id
_symmetry_equiv_pos_as_xyz
1 x,y,z
_cell_length_a                   25.1437(13)
_cell_length_b                   25.1437(13)
_cell_length_c                   14.5663(15)
_cell_angle_alpha                90
_cell_angle_beta                 90
_cell_angle_gamma                120
_cell_volume                     7975.14
loop_
_atom_site_label
_atom_site_type_symbol
_atom_site_fract_x
_atom_site_fract_y
_atom_site_fract_z
C24 C 0.0669(5) 0.9472(5) 0.6950(8)
H18 H 0.0418 0.9626 0.6701
H19 H 0.1028 0.9803 0.7229
H20 H 0.0790 0.9295 0.6467
O13 O 0.0336(3) 0.9027(4) 0.7607(5)
Mn4 Mn 0.01233(6) 0.74391(4) 0.48004(7)
O15 O 0.3144(3) 0.9565(4) 0.5028(4)
H23 H 0.3125 0.9334 0.5468
H24 H 0.2952 0.9322 0.4588
N5 N 0.1754(4) 0.9296(5) 0.5227(3)
O17 O 0.2531(3) 0.9847(4) 0.6629(3)
Mn1 Mn 0.1667 0.8334 0.8334
C1 C 0.0799(5) 0.7879(3) 0.6571(5)
C2 C 0.1147(4) 0.8415(3) 0.5954(5)
C3 C 0.1654(5) 0.8989(3) 0.6042(5)
C4 C 0.2073(6) 0.9332(4) 0.6820(5)
C5 C 0.1303(4) 0.8895(3) 0.4673(5)
C6 C 0.1229(5) 0.9051(3) 0.3714(5)
C7 C 0.1306(6) 0.9624(4) 0.3528(5)
H1 H 0.1414 0.9915 0.3990
C8 C 0.1219(6) 0.9755(4) 0.2627(6)
C9 C 0.1069(6) 0.9333(4) 0.1933(6)
H2 H 0.1022 0.9430 0.1333
C10 C 0.0989(6) 0.8773(4) 0.2137(5)
H3 H 0.0882 0.8485 0.1670
C11 C 0.1062(6) 0.8613(4) 0.3021(5)
H4 H 0.1002 0.8224 0.3148
N1 N 0.0919(4) 0.8354(2) 0.5079(4)
O1 O 0.0318(4) 0.7435(2) 0.6244(3)
O2 O 0.0973(4) 0.7854(3) 0.7361(4)
O3 O 0.1961(4) 0.9135(3) 0.7620(4)
O6 O 0.0807(4) 0.7192(3) 0.4293(4)
H8 H 0.0617 0.6818 0.4461
H9 H 0.0705 0.7234 0.3753
O8 O 0.1052(6) 0.8580(4) 0.9070(6)
H12 H 0.0729 0.8319 0.9373
H13 H 0.1135 0.8953 0.9202
C16 C 0.1260(6) 0.7335(4) 0.9847(5)
O10 O 0.2360(4) 0.8813(3) 0.9306(4)
O11 O 0.1372(4) 0.7532(3) 0.9047(4)
O16 O 0.2281(6) 0.8087(4) 0.7597(6)
H25 H 0.2604 0.8348 0.7294
H26 H 0.2198 0.7714 0.7465
O7 O 0.0245(3) 0.6477(3) 0.8305(4)
H10 H 0.0457 0.6458 0.7865
H11 H 0.0296 0.6285 0.8745
Mn1_2 Mn 0.8333 0.6667 0.1667
C4_2 C 0.7335(4) 0.6075(4) 0.0153(5)
O2_2 O 0.8813(3) 0.6453(3) 0.0694(4)
O3_2 O 0.7532(3) 0.6160(3) 0.0953(4)
O8_2 O 0.8087(4) 0.5806(5) 0.2403(6)
H12_2 H 0.8348 0.5744 0.2706
H13_2 H 0.7714 0.5516 0.2535
Mn3 Mn 0.74391(4) 0.73157(5) 0.51996(7)
C13 C 0.7879(3) 0.7079(4) 0.3429(5)
C14 C 0.8415(3) 0.7267(3) 0.4046(5)
C15 C 0.8989(3) 0.7334(4) 0.3958(5)
C16_2 C 0.9332(4) 0.7258(4) 0.3180(5)
C17 C 0.8895(3) 0.7591(3) 0.5327(5)
C18 C 0.9051(3) 0.7821(4) 0.6286(5)
C19 C 0.9624(4) 0.8317(4) 0.6472(5)
H14 H 0.9915 0.8500 0.6010
C20 C 0.9755(4) 0.8535(4) 0.7373(6)
C21 C 0.9333(4) 0.8263(4) 0.8067(6)
H15 H 0.9430 0.8407 0.8667
C22 C 0.8773(4) 0.7783(4) 0.7863(5)
H16 H 0.8485 0.7602 0.8330
C23 C 0.8613(4) 0.7550(4) 0.6979(5)
H17 H 0.8224 0.7221 0.6852
N3 N 0.8354(2) 0.7434(3) 0.4921(4)
N4 N 0.9296(2) 0.7541(3) 0.4773(3)
O9 O 0.7435(2) 0.7116(3) 0.3756(3)
O10_2 O 0.7854(3) 0.6880(3) 0.2639(4)
O11_2 O 0.9135(3) 0.7173(3) 0.2380(4)
O12 O 0.9847(2) 0.7315(2) 0.3371(3)
O14 O 0.7192(3) 0.6384(3) 0.5707(4)
H21 H 0.6818 0.6200 0.5539
H22 H 0.7234 0.6528 0.6247
O15_2 O 0.6422(3) 0.6856(3) 0.5028(4)
H23_2 H 0.6210 0.6875 0.5468
H24_2 H 0.6371 0.7048 0.4588
O16_2 O 0.8580(4) 0.7527(5) 0.0930(6)
H25_2 H 0.8319 0.7589 0.0627
H26_2 H 0.8953 0.7817 0.0798
N5_2 N 0.7541(3) 0.8246(4) 0.5227(3)
O17_2 O 0.7315(2) 0.7469(3) 0.6629(3)
C24_2 C 0.8804(7) 0.9331(5) 0.6950(8)
H18_2 H 0.9209 0.9582 0.6701
H19_2 H 0.8776 0.8972 0.7229
H20_2 H 0.8506 0.9210 0.6467
O13_2 O 0.8692(5) 0.9664(3) 0.7607(5)
Mn4_2 Mn 0.73157(7) 0.98767(6) 0.48004(7)
Mn1_3 Mn 0.6666 0.8333 0.8334
C1_2 C 0.7079(4) 0.9201(5) 0.6571(5)
C2_2 C 0.7267(3) 0.8853(4) 0.5954(5)
C3_2 C 0.7334(4) 0.8346(5) 0.6042(5)
C4_3 C 0.7258(4) 0.7927(6) 0.6820(5)
C5_2 C 0.7591(3) 0.8697(4) 0.4673(5)
C6_2 C 0.7821(4) 0.8771(5) 0.3714(5)
C7_2 C 0.8317(4) 0.8694(6) 0.3528(5)
H1_2 H 0.8500 0.8586 0.3990
C8_2 C 0.8535(4) 0.8781(6) 0.2627(6)
C9_2 C 0.8263(4) 0.8931(6) 0.1933(6)
H2_2 H 0.8407 0.8978 0.1333
C10_2 C 0.7783(4) 0.9011(6) 0.2137(5)
H3_2 H 0.7602 0.9118 0.1670
C11_2 C 0.7550(4) 0.8938(6) 0.3021(5)
H4_2 H 0.7221 0.8998 0.3148
C12 C 0.9472(5) 0.8804(7) 0.3050(8)
H5 H 0.9626 0.9209 0.3299
H6 H 0.9803 0.8776 0.2771
H7 H 0.9295 0.8506 0.3533
N1_2 N 0.7434(3) 0.9081(4) 0.5079(4)
O1_2 O 0.7116(3) 0.9682(4) 0.6244(3)
O2_3 O 0.6880(3) 0.9027(4) 0.7361(4)
O3_3 O 0.7173(3) 0.8039(4) 0.7620(4)
O5 O 0.9027(4) 0.8692(5) 0.2393(5)
O6_2 O 0.6384(3) 0.9193(4) 0.4293(4)
H8_2 H 0.6200 0.9383 0.4461
H9_2 H 0.6528 0.9295 0.3753
O8_3 O 0.7527(5) 0.8948(6) 0.9070(6)
H12_3 H 0.7589 0.9271 0.9373
H13_3 H 0.7817 0.8865 0.9202
C16_3 C 0.6075(4) 0.8740(6) 0.9847(5)
O10_3 O 0.6453(3) 0.7640(4) 0.9306(4)
O11_3 O 0.6160(3) 0.8628(4) 0.9047(4)
O16_3 O 0.5806(5) 0.7719(6) 0.7597(6)
H25_3 H 0.5744 0.7396 0.7294
H26_3 H 0.5516 0.7802 0.7465
O7_2 O 0.9565(4) 0.6422(3) 0.4972(4)
H10_2 H 0.9334 0.6210 0.4532
H11_2 H 0.9322 0.6371 0.5412
Mn2 Mn 0.92276(4) 0.60176(5) 0.81337(7)
C1_3 C 0.8788(3) 0.6254(4) 0.9904(5)
C2_3 C 0.8252(3) 0.6066(3) 0.9287(5)
C3_3 C 0.7678(3) 0.5999(4) 0.9375(5)
C5_3 C 0.7772(3) 0.5742(3) 0.8006(5)
C6_3 C 0.7616(3) 0.5512(4) 0.7047(5)
C7_3 C 0.7043(4) 0.5016(4) 0.6861(5)
H1_3 H 0.6752 0.4833 0.7323
C8_3 C 0.6912(4) 0.4798(4) 0.5960(6)
C9_3 C 0.7334(4) 0.5070(4) 0.5266(6)
H2_3 H 0.7237 0.4926 0.4666
C10_3 C 0.7894(4) 0.5550(4) 0.5470(5)
H3_3 H 0.8182 0.5731 0.5003
C11_3 C 0.8054(4) 0.5783(4) 0.6354(5)
H4_3 H 0.8443 0.6112 0.6481
C12_2 C 0.5998(5) 0.3861(5) 0.6383(8)
H5_2 H 0.6249 0.3707 0.6632
H6_2 H 0.5639 0.3530 0.6104
H7_2 H 0.5877 0.4038 0.6866
N1_3 N 0.8313(2) 0.5899(3) 0.8412(4)
N2 N 0.7371(2) 0.5792(3) 0.8560(3)
O1_3 O 0.9232(2) 0.6217(3) 0.9577(3)
O4 O 0.6820(2) 0.6018(2) 0.9962(3)
O5_2 O 0.6331(3) 0.4306(4) 0.5726(5)
O6_3 O 0.9475(3) 0.6949(3) 0.7626(4)
H8_3 H 0.9849 0.7133 0.7794
H9_3 H 0.9433 0.6805 0.7086
Mn5 Mn 0.65433(6) 0.58943(4) 0.85330(7)
N6 N 0.9125(3) 0.5088(4) 0.8107(3)
O18 O 0.9351(2) 0.5865(3) 0.6705(3)
Mn2_2 Mn 0.39824(5) 0.32100(6) 0.81337(7)
C1_4 C 0.3746(4) 0.2534(5) 0.9904(5)
C2_4 C 0.3934(3) 0.2186(4) 0.9287(5)
C3_4 C 0.4001(4) 0.1679(5) 0.9375(5)
C5_4 C 0.4258(3) 0.2030(4) 0.8006(5)
C6_4 C 0.4488(4) 0.2104(5) 0.7047(5)
C7_4 C 0.4984(4) 0.2027(6) 0.6861(5)
H1_4 H 0.5167 0.1919 0.7323
C8_4 C 0.5202(4) 0.2114(6) 0.5960(6)
C9_4 C 0.4930(4) 0.2264(6) 0.5266(6)
H2_4 H 0.5074 0.2311 0.4666
C10_4 C 0.4450(4) 0.2344(6) 0.5470(5)
H3_4 H 0.4269 0.2451 0.5003
C11_4 C 0.4217(4) 0.2271(6) 0.6354(5)
H4_4 H 0.3888 0.2331 0.6481
C12_3 C 0.6139(5) 0.2137(7) 0.6383(8)
H5_3 H 0.6293 0.2542 0.6632
H6_3 H 0.6470 0.2109 0.6104
H7_3 H 0.5962 0.1839 0.6866
N1_4 N 0.4101(3) 0.2414(4) 0.8412(4)
N2_2 N 0.4208(3) 0.1579(4) 0.8560(3)
O1_4 O 0.3783(3) 0.3015(4) 0.9577(3)
O4_2 O 0.3982(2) 0.0802(3) 0.9962(3)
O5_3 O 0.5694(4) 0.2025(5) 0.5726(5)
O6_4 O 0.3051(3) 0.2526(4) 0.7626(4)
H8_4 H 0.2867 0.2716 0.7794
H9_4 H 0.3195 0.2628 0.7086
O7_3 O 0.3523(3) 0.3768(4) 0.8305(4)
H10_3 H 0.3542 0.3999 0.7865
H11_3 H 0.3715 0.4011 0.8745
Mn5_2 Mn 0.41057(4) 0.06491(7) 0.85330(7)
N6_2 N 0.4912(4) 0.4038(5) 0.8107(3)
O18_2 O 0.4135(3) 0.3487(4) 0.6705(3)
Mn2_3 Mn 0.67900(6) 0.07724(4) 0.81337(7)
C1_5 C 0.7466(5) 0.1212(3) 0.9904(5)
C2_5 C 0.7814(4) 0.1748(3) 0.9287(5)
C3_5 C 0.8321(5) 0.2322(3) 0.9375(5)
C5_5 C 0.7970(4) 0.2228(3) 0.8006(5)
C6_5 C 0.7896(5) 0.2384(3) 0.7047(5)
C7_5 C 0.7973(6) 0.2957(4) 0.6861(5)
H1_5 H 0.8081 0.3248 0.7323
C8_5 C 0.7886(6) 0.3088(4) 0.5960(6)
C9_5 C 0.7736(6) 0.2666(4) 0.5266(6)
H2_5 H 0.7689 0.2763 0.4666
C10_5 C 0.7656(6) 0.2106(4) 0.5470(5)
H3_5 H 0.7549 0.1818 0.5003
C11_5 C 0.7729(6) 0.1946(4) 0.6354(5)
H4_5 H 0.7669 0.1557 0.6481
C12_4 C 0.7863(7) 0.4002(5) 0.6383(8)
H5_4 H 0.7458 0.3751 0.6632
H6_4 H 0.7891 0.4361 0.6104
H7_4 H 0.8161 0.4123 0.6866
N1_5 N 0.7586(4) 0.1687(2) 0.8412(4)
N2_3 N 0.8421(4) 0.2629(2) 0.8560(3)
O1_5 O 0.6985(4) 0.0768(2) 0.9577(3)
O4_3 O 0.9198(3) 0.3180(2) 0.9962(3)
O5_4 O 0.7975(5) 0.3669(3) 0.5726(5)
O6_5 O 0.7474(4) 0.0525(3) 0.7626(4)
H8_5 H 0.7284 0.0151 0.7794
H9_5 H 0.7372 0.0567 0.7086
Mn5_3 Mn 0.93509(7) 0.34567(6) 0.85330(7)
N6_3 N 0.5962(5) 0.0875(3) 0.8107(3)
O18_3 O 0.6513(4) 0.0649(2) 0.6705(3)
Mn1_4 Mn 0.5000 0.0000 0.5000
O6_6 O 0.6142(3) 0.0282(3) 0.0959(4)
H8_6 H 0.6516 0.0466 0.1127
H9_6 H 0.6100 0.0138 0.0419
C13_2 C 0.4545(3) 0.0413(4) 0.6763(5)
C14_2 C 0.5081(3) 0.0601(3) 0.7380(5)
C15_2 C 0.5655(3) 0.0668(4) 0.7292(5)
C16_4 C 0.5998(4) 0.0592(4) 0.6514(5)
C17_2 C 0.5561(3) 0.0925(3) 0.8661(5)
C18_2 C 0.5717(3) 0.1155(4) 0.9620(5)
C19_2 C 0.6290(4) 0.1651(4) 0.9806(5)
H14_2 H 0.6581 0.1834 0.9344
H20_3 H 0.7456 0.2629 0.9801
N3_2 N 0.5020(2) 0.0768(3) 0.8255(4)
O9_2 O 0.4101(2) 0.0450(3) 0.7090(3)
O10_4 O 0.4520(3) 0.0214(3) 0.5973(4)
O11_4 O 0.5801(3) 0.0507(3) 0.5714(4)
O15_3 O 0.3088(3) 0.0190(3) 0.8362(4)
H23_3 H 0.2876 0.0209 0.8802
H24_3 H 0.3037 0.0382 0.7922
O16_4 O 0.5246(4) 0.0861(5) 0.4264(6)
H25_4 H 0.4985 0.0923 0.3961
H26_4 H 0.5619 0.1151 0.4132
Mn1_5 Mn 0.5000 1.0000 0.5000
Mn2_4 Mn 0.58943(4) 0.93509(5) 0.14670(7)
C1_6 C 0.5455(3) 0.9587(4) 0.3237(5)
C2_6 C 0.4919(3) 0.9399(3) 0.2620(5)
C3_6 C 0.4345(3) 0.9332(4) 0.2708(5)
C4_4 C 0.4002(4) 0.9408(4) 0.3486(5)
C5_6 C 0.4439(3) 0.9075(3) 0.1339(5)
C6_6 C 0.4283(3) 0.8845(4) 0.0380(5)
C7_6 C 0.3710(4) 0.8349(4) 0.0194(5)
H1_6 H 0.3419 0.8166 0.0656
H7_5 H 0.2544 0.7371 0.0199
N1_6 N 0.4980(2) 0.9232(3) 0.1745(4)
N2_4 N 0.4038(2) 0.9125(3) 0.1893(3)
O1_6 O 0.5899(2) 0.9550(3) 0.2910(3)
O2_4 O 0.5480(3) 0.9786(3) 0.4027(4)
O3_4 O 0.4199(3) 0.9493(3) 0.4286(4)
O4_4 O 0.3487(2) 0.9351(2) 0.3295(3)
O7_4 O 0.6912(3) 0.9810(3) 0.1638(4)
H10_4 H 0.7124 0.9791 0.1198
H11_4 H 0.6963 0.9618 0.2078
O8_4 O 0.4754(4) 0.9139(5) 0.5736(6)
H12_4 H 0.5015 0.9077 0.6039
H13_4 H 0.4381 0.8849 0.5868
O14_2 O 0.3858(3) 0.9718(3) 0.9041(4)
H21_2 H 0.3484 0.9534 0.8873
H22_2 H 0.3900 0.9862 0.9581
Mn5_4 Mn 0.32100(6) 0.92276(4) 0.18663(7)
N6_4 N 0.5792(3) 0.8421(4) 0.1440(3)
O18_4 O 0.6018(2) 0.9198(3) 0.0038(3)
Mn1_6 Mn -0.0000 0.4999 0.5000
Mn2_5 Mn 0.06491(5) 0.65433(6) 0.14670(7)
C1_7 C 0.0413(4) 0.5867(5) 0.3237(5)
C2_7 C 0.0601(3) 0.5519(4) 0.2620(5)
C3_7 C 0.0668(4) 0.5012(5) 0.2708(5)
C4_5 C 0.0592(4) 0.4593(6) 0.3486(5)
C5_7 C 0.0925(3) 0.5363(4) 0.1339(5)
C6_7 C 0.1155(4) 0.5437(5) 0.0380(5)
C7_7 C 0.1651(4) 0.5360(6) 0.0194(5)
H1_7 H 0.1834 0.5252 0.0656
H7_6 H 0.2629 0.5172 0.0199
N1_7 N 0.0768(3) 0.5747(4) 0.1745(4)
N2_5 N 0.0875(3) 0.4912(4) 0.1893(3)
O1_7 O 0.0450(3) 0.6348(4) 0.2910(3)
O2_5 O 0.0214(3) 0.5693(4) 0.4027(4)
O3_5 O 0.0507(3) 0.4705(4) 0.4286(4)
O4_5 O 0.0649(2) 0.4135(3) 0.3295(3)
O7_5 O 0.0190(3) 0.7101(4) 0.1638(4)
H10_5 H 0.0209 0.7332 0.1198
H11_5 H 0.0382 0.7344 0.2078
O8_5 O 0.0861(5) 0.5614(6) 0.5736(6)
H12_5 H 0.0923 0.5937 0.6039
H13_5 H 0.1151 0.5531 0.5868
O14_3 O 0.0282(3) 0.4141(4) 0.9041(4)
H21_3 H 0.0466 0.3951 0.8873
H22_3 H 0.0138 0.4039 0.9581
Mn5_5 Mn 0.07724(4) 0.39824(7) 0.18663(7)
N6_5 N 0.1579(4) 0.7371(5) 0.1440(3)
O18_5 O 0.0802(3) 0.6820(4) 0.0038(3)
Mn1_7 Mn 1.0000 0.4999 0.5000
O6_7 O 0.9718(3) 0.5859(4) 0.0959(4)
H8_7 H 0.9534 0.6049 0.1127
H9_7 H 0.9862 0.5961 0.0419
C13_3 C 0.9587(4) 0.4133(5) 0.6763(5)
C14_3 C 0.9399(3) 0.4481(4) 0.7380(5)
C15_3 C 0.9332(4) 0.4988(5) 0.7292(5)
C16_5 C 0.9408(4) 0.5407(6) 0.6514(5)
C17_3 C 0.9075(3) 0.4637(4) 0.8661(5)
C18_3 C 0.8845(4) 0.4563(5) 0.9620(5)
C19_3 C 0.8349(4) 0.4640(6) 0.9806(5)
H14_3 H 0.8166 0.4748 0.9344
H20_4 H 0.7371 0.4828 0.9801
N3_3 N 0.9232(3) 0.4253(4) 0.8255(4)
O9_3 O 0.9550(3) 0.3652(4) 0.7090(3)
O10_5 O 0.9786(3) 0.4307(4) 0.5973(4)
O11_5 O 0.9493(3) 0.5295(4) 0.5714(4)
O15_4 O 0.9810(3) 0.2899(4) 0.8362(4)
H23_4 H 0.9791 0.2668 0.8802
H24_4 H 0.9618 0.2656 0.7922
O16_5 O 0.9139(5) 0.4386(6) 0.4264(6)
H25_5 H 0.9077 0.4063 0.3961
H26_5 H 0.8849 0.4469 0.4132
Mn1_8 Mn 0.5001 0.5000 0.5000
Mn2_6 Mn 0.34567(6) 0.41057(4) 0.14670(7)
C1_8 C 0.4133(5) 0.4545(3) 0.3237(5)
C2_8 C 0.4481(4) 0.5081(3) 0.2620(5)
C3_8 C 0.4988(5) 0.5655(3) 0.2708(5)
C4_6 C 0.5407(6) 0.5998(4) 0.3486(5)
C5_8 C 0.4637(4) 0.5561(3) 0.1339(5)
C6_8 C 0.4563(5) 0.5717(3) 0.0380(5)
C7_8 C 0.4640(6) 0.6290(4) 0.0194(5)
H1_8 H 0.4748 0.6581 0.0656
H7_7 H 0.4828 0.7456 0.0199
N1_8 N 0.4253(4) 0.5020(2) 0.1745(4)
N2_6 N 0.5088(4) 0.5962(2) 0.1893(3)
O1_8 O 0.3652(4) 0.4101(2) 0.2910(3)
O2_6 O 0.4307(4) 0.4520(3) 0.4027(4)
O3_6 O 0.5295(4) 0.5801(3) 0.4286(4)
O4_6 O 0.5865(3) 0.6513(2) 0.3295(3)
O6_8 O 0.4141(4) 0.3858(3) 0.0959(4)
H8_8 H 0.3951 0.3484 0.1127
H9_8 H 0.4039 0.3900 0.0419
O7_6 O 0.2899(4) 0.3088(3) 0.1638(4)
H10_6 H 0.2668 0.2876 0.1198
H11_6 H 0.2656 0.3037 0.2078
O8_6 O 0.4386(6) 0.5246(4) 0.5736(6)
H12_6 H 0.4063 0.4985 0.6039
H13_6 H 0.4469 0.5619 0.5868
C13_4 C 0.5867(5) 0.5455(3) 0.6763(5)
C14_4 C 0.5519(4) 0.4919(3) 0.7380(5)
C15_4 C 0.5012(5) 0.4345(3) 0.7292(5)
C16_6 C 0.4593(6) 0.4002(4) 0.6514(5)
C17_4 C 0.5363(4) 0.4439(3) 0.8661(5)
C18_4 C 0.5437(5) 0.4283(3) 0.9620(5)
C19_4 C 0.5360(6) 0.3710(4) 0.9806(5)
H14_4 H 0.5252 0.3419 0.9344
H20_5 H 0.5172 0.2544 0.9801
N3_4 N 0.5747(4) 0.4980(2) 0.8255(4)
O9_4 O 0.6348(4) 0.5899(2) 0.7090(3)
O10_6 O 0.5693(4) 0.5480(3) 0.5973(4)
O11_6 O 0.4705(4) 0.4199(3) 0.5714(4)
O14_4 O 0.5859(4) 0.6142(3) 0.9041(4)
H21_4 H 0.6049 0.6516 0.8873
H22_4 H 0.5961 0.6100 0.9581
O15_5 O 0.7101(4) 0.6912(3) 0.8362(4)
H23_5 H 0.7332 0.7124 0.8802
H24_5 H 0.7344 0.6963 0.7922
O16_6 O 0.5614(6) 0.4754(4) 0.4264(6)
H25_6 H 0.5937 0.5015 0.3961
H26_6 H 0.5531 0.4381 0.4132
Mn5_6 Mn 0.60176(7) 0.67900(6) 0.18663(7)
N6_6 N 0.2629(5) 0.4208(3) 0.1440(3)
O18_6 O 0.3180(4) 0.3982(2) 0.0038(3)
C13_5 C 0.1212(3) 0.3746(4) 0.0096(5)
C14_5 C 0.1748(3) 0.3934(3) 0.0713(5)
C15_5 C 0.2322(3) 0.4001(4) 0.0625(5)
C17_5 C 0.2228(3) 0.4258(3) 0.1994(5)
C18_5 C 0.2384(3) 0.4488(4) 0.2953(5)
C19_5 C 0.2957(4) 0.4984(4) 0.3139(5)
H14_5 H 0.3248 0.5167 0.2677
C20_2 C 0.3088(4) 0.5202(4) 0.4040(6)
C21_2 C 0.2666(4) 0.4930(4) 0.4734(6)
H15_2 H 0.2763 0.5074 0.5334
C22_2 C 0.2106(4) 0.4450(4) 0.4530(5)
H16_2 H 0.1818 0.4269 0.4997
C23_2 C 0.1946(4) 0.4217(4) 0.3646(5)
H17_2 H 0.1557 0.3888 0.3519
C24_3 C 0.4002(5) 0.6139(5) 0.3617(8)
H18_3 H 0.3751 0.6293 0.3368
H19_3 H 0.4361 0.6470 0.3896
H20_6 H 0.4123 0.5962 0.3134
N3_5 N 0.1687(2) 0.4101(3) 0.1588(4)
O9_5 O 0.0768(2) 0.3783(3) 0.0423(3)
O13_3 O 0.3669(3) 0.5694(4) 0.4274(5)
O14_5 O 0.0525(3) 0.3051(3) 0.2374(4)
H21_5 H 0.0151 0.2867 0.2206
H22_5 H 0.0567 0.3195 0.2914
C13_6 C 0.6254(4) 0.7466(5) 0.0096(5)
C14_6 C 0.6066(3) 0.7814(4) 0.0713(5)
C15_6 C 0.5999(4) 0.8321(5) 0.0625(5)
C17_6 C 0.5742(3) 0.7970(4) 0.1994(5)
C18_6 C 0.5512(4) 0.7896(5) 0.2953(5)
C19_6 C 0.5016(4) 0.7973(6) 0.3139(5)
H14_6 H 0.4833 0.8081 0.2677
C20_3 C 0.4798(4) 0.7886(6) 0.4040(6)
C21_3 C 0.5070(4) 0.7736(6) 0.4734(6)
H15_3 H 0.4926 0.7689 0.5334
C22_3 C 0.5550(4) 0.7656(6) 0.4530(5)
H16_3 H 0.5731 0.7549 0.4997
C23_3 C 0.5783(4) 0.7729(6) 0.3646(5)
H17_3 H 0.6112 0.7669 0.3519
C24_4 C 0.3861(5) 0.7863(7) 0.3617(8)
H18_4 H 0.3707 0.7458 0.3368
H19_4 H 0.3530 0.7891 0.3896
H20_7 H 0.4038 0.8161 0.3134
N3_6 N 0.5899(3) 0.7586(4) 0.1588(4)
O9_6 O 0.6217(3) 0.6985(4) 0.0423(3)
O13_4 O 0.4306(4) 0.7975(5) 0.4274(5)
O14_6 O 0.6949(3) 0.7474(4) 0.2374(4)
H21_6 H 0.7133 0.7284 0.2206
H22_6 H 0.6805 0.7372 0.2914
O15_6 O 0.6477(3) 0.6232(4) 0.1695(4)
H23_6 H 0.6458 0.6001 0.2135
H24_6 H 0.6285 0.5989 0.1255
C13_7 C 0.2534(5) 0.8788(3) 0.0096(5)
C14_7 C 0.2186(4) 0.8252(3) 0.0713(5)
C15_7 C 0.1679(5) 0.7678(3) 0.0625(5)
C17_7 C 0.2030(4) 0.7772(3) 0.1994(5)
C18_7 C 0.2104(5) 0.7616(3) 0.2953(5)
C19_7 C 0.2027(6) 0.7043(4) 0.3139(5)
H14_7 H 0.1919 0.6752 0.2677
C20_4 C 0.2114(6) 0.6912(4) 0.4040(6)
C21_4 C 0.2264(6) 0.7334(4) 0.4734(6)
H15_4 H 0.2311 0.7237 0.5334
C22_4 C 0.2344(6) 0.7894(4) 0.4530(5)
H16_4 H 0.2451 0.8182 0.4997
C23_4 C 0.2271(6) 0.8054(4) 0.3646(5)
H17_4 H 0.2331 0.8443 0.3519
C24_5 C 0.2137(7) 0.5998(5) 0.3617(8)
H18_5 H 0.2542 0.6249 0.3368
H19_5 H 0.2109 0.5639 0.3896
H20_8 H 0.1839 0.5877 0.3134
N3_7 N 0.2414(4) 0.8313(2) 0.1588(4)
O9_7 O 0.3015(4) 0.9232(2) 0.0423(3)
O13_5 O 0.2025(5) 0.6331(3) 0.4274(5)
O14_7 O 0.2526(4) 0.9475(3) 0.2374(4)
H21_7 H 0.2716 0.9849 0.2206
H22_7 H 0.2628 0.9433 0.2914
Mn1_9 Mn 0.3333 0.1666 0.1667
C4_7 C 0.3925(4) 0.1260(6) 0.0153(5)
O2_7 O 0.3547(3) 0.2360(4) 0.0694(4)
O3_7 O 0.3840(3) 0.1372(4) 0.0953(4)
O8_7 O 0.4194(5) 0.2281(6) 0.2403(6)
H12_7 H 0.4256 0.2604 0.2706
H13_7 H 0.4484 0.2198 0.2535
Mn3_2 Mn 0.26843(5) 0.01233(6) 0.51996(7)
C13_8 C 0.2921(4) 0.0799(5) 0.3429(5)
C14_8 C 0.2733(3) 0.1147(4) 0.4046(5)
C15_8 C 0.2666(4) 0.1654(5) 0.3958(5)
C16_7 C 0.2742(4) 0.2073(6) 0.3180(5)
C17_8 C 0.2409(3) 0.1303(4) 0.5327(5)
C18_8 C 0.2179(4) 0.1229(5) 0.6286(5)
C19_8 C 0.1683(4) 0.1306(6) 0.6472(5)
H14_8 H 0.1500 0.1414 0.6010
C20_5 C 0.1465(4) 0.1219(6) 0.7373(6)
C21_5 C 0.1737(4) 0.1069(6) 0.8067(6)
H15_5 H 0.1593 0.1022 0.8667
C22_5 C 0.2217(4) 0.0989(6) 0.7863(5)
H16_5 H 0.2398 0.0882 0.8330
C23_5 C 0.2450(4) 0.1062(6) 0.6979(5)
H17_5 H 0.2779 0.1002 0.6852
C24_6 C 0.0528(5) 0.1196(7) 0.6950(8)
H18_6 H 0.0374 0.0791 0.6701
H19_6 H 0.0197 0.1224 0.7229
H20_9 H 0.0705 0.1494 0.6467
N3_8 N 0.2566(3) 0.0919(4) 0.4921(4)
N4_2 N 0.2459(3) 0.1754(4) 0.4773(3)
O9_8 O 0.2884(3) 0.0318(4) 0.3756(3)
O10_7 O 0.3120(3) 0.0973(4) 0.2639(4)
O11_7 O 0.2827(3) 0.1961(4) 0.2380(4)
O12_2 O 0.2685(2) 0.2531(3) 0.3371(3)
O13_6 O 0.0973(4) 0.1308(5) 0.7607(5)
O14_8 O 0.3616(3) 0.0807(4) 0.5707(4)
H21_8 H 0.3800 0.0617 0.5539
H22_8 H 0.3472 0.0705 0.6247
O16_7 O 0.2473(5) 0.1052(6) 0.0930(6)
H25_7 H 0.2411 0.0729 0.0627
H26_7 H 0.2183 0.1135 0.0798
Mn4_3 Mn 0.25609(4) 0.26843(7) 0.48004(7)
O15_7 O 0.0435(4) 0.3578(3) 0.5028(4)
H23_7 H 0.0666 0.3790 0.5468
H24_7 H 0.0678 0.3629 0.4588
N5_3 N 0.0704(5) 0.2459(3) 0.5227(3)
O17_3 O 0.0153(4) 0.2685(2) 0.6629(3)
Mn1_10 Mn 0.1666 0.3334 0.8334
C1_9 C 0.2121(3) 0.2921(4) 0.6571(5)
C2_9 C 0.1585(3) 0.2733(3) 0.5954(5)
C3_9 C 0.1011(3) 0.2666(4) 0.6042(5)
C4_8 C 0.0668(4) 0.2742(4) 0.6820(5)
C5_9 C 0.1105(3) 0.2409(3) 0.4673(5)
C6_9 C 0.0949(3) 0.2179(4) 0.3714(5)
C7_9 C 0.0376(4) 0.1683(4) 0.3528(5)
H1_9 H 0.0085 0.1500 0.3990
C8_6 C 0.0245(4) 0.1465(4) 0.2627(6)
C9_6 C 0.0667(4) 0.1737(4) 0.1933(6)
H2_6 H 0.0570 0.1593 0.1333
C10_6 C 0.1227(4) 0.2217(4) 0.2137(5)
H3_6 H 0.1515 0.2398 0.1670
C11_6 C 0.1387(4) 0.2450(4) 0.3021(5)
H4_6 H 0.1776 0.2779 0.3148
N1_9 N 0.1646(2) 0.2566(3) 0.5079(4)
O1_9 O 0.2565(2) 0.2884(3) 0.6244(3)
O2_8 O 0.2146(3) 0.3120(3) 0.7361(4)
O3_8 O 0.0865(3) 0.2827(3) 0.7620(4)
O6_9 O 0.2808(3) 0.3616(3) 0.4293(4)
H8_9 H 0.3182 0.3800 0.4461
H9_9 H 0.2766 0.3472 0.3753
O7_7 O 0.3578(3) 0.3144(3) 0.4972(4)
H10_7 H 0.3790 0.3125 0.4532
H11_7 H 0.3629 0.2952 0.5412
O8_8 O 0.1420(4) 0.2473(5) 0.9070(6)
H12_8 H 0.1681 0.2411 0.9373
H13_8 H 0.1047 0.2183 0.9202
C16_8 C 0.2665(4) 0.3925(4) 0.9847(5)
O10_8 O 0.1187(3) 0.3547(3) 0.9306(4)
O11_8 O 0.2468(3) 0.3840(3) 0.9047(4)
O16_8 O 0.1913(4) 0.4194(5) 0.7597(6)
H25_8 H 0.1652 0.4256 0.7294
H26_8 H 0.2286 0.4484 0.7465
C12_5 C 0.1196(7) 0.0669(5) 0.3050(8)
H5_5 H 0.0791 0.0418 0.3299
H6_5 H 0.1224 0.1028 0.2771
H7_8 H 0.1494 0.0790 0.3533
O5_5 O 0.1308(5) 0.0336(3) 0.2393(5)
Mn1_11 Mn 0.8334 0.1667 0.1667
C4_9 C 0.8740(6) 0.2665(4) 0.0153(5)
O2_9 O 0.7640(4) 0.1187(3) 0.0694(4)
O3_9 O 0.8628(4) 0.2468(3) 0.0953(4)
O8_9 O 0.7719(6) 0.1913(4) 0.2403(6)
H12_9 H 0.7396 0.1652 0.2706
H13_9 H 0.7802 0.2286 0.2535
Mn3_3 Mn 0.98767(6) 0.25609(4) 0.51996(7)
C13_9 C 0.9201(5) 0.2121(3) 0.3429(5)
C14_9 C 0.8853(4) 0.1585(3) 0.4046(5)
C15_9 C 0.8346(5) 0.1011(3) 0.3958(5)
C16_9 C 0.7927(6) 0.0668(4) 0.3180(5)
C17_9 C 0.8697(4) 0.1105(3) 0.5327(5)
C18_9 C 0.8771(5) 0.0949(3) 0.6286(5)
C19_9 C 0.8694(6) 0.0376(4) 0.6472(5)
H14_9 H 0.8586 0.0085 0.6010
C20_6 C 0.8781(6) 0.0245(4) 0.7373(6)
C21_6 C 0.8931(6) 0.0667(4) 0.8067(6)
H15_6 H 0.8978 0.0570 0.8667
C22_6 C 0.9011(6) 0.1227(4) 0.7863(5)
H16_6 H 0.9118 0.1515 0.8330
C23_6 C 0.8938(6) 0.1387(4) 0.6979(5)
H17_6 H 0.8998 0.1776 0.6852
N3_9 N 0.9081(4) 0.1646(2) 0.4921(4)
N4_3 N 0.8246(4) 0.0704(2) 0.4773(3)
O9_9 O 0.9682(4) 0.2565(2) 0.3756(3)
O10_9 O 0.9027(4) 0.2146(3) 0.2639(4)
O11_9 O 0.8039(4) 0.0865(3) 0.2380(4)
O12_3 O 0.7469(3) 0.0153(2) 0.3371(3)
O14_9 O 0.9193(4) 0.2808(3) 0.5707(4)
H21_9 H 0.9383 0.3182 0.5539
H22_9 H 0.9295 0.2766 0.6247
O16_9 O 0.8948(6) 0.1420(4) 0.0930(6)
H25_9 H 0.9271 0.1681 0.0627
H26_9 H 0.8865 0.1047 0.0798
C12_6 C 0.9331(5) 0.0528(5) 0.3050(8)
H5_6 H 0.9582 0.0374 0.3299
H6_6 H 0.8972 0.0197 0.2771
H7_9 H 0.9210 0.0705 0.3533
O5_6 O 0.9664(3) 0.0973(4) 0.2393(5)
O7_8 O 0.6856(3) 0.0435(4) 0.4972(4)
H10_8 H 0.6875 0.0666 0.4532
H11_8 H 0.7048 0.0678 0.5412
O7_9 O 0.6232(4) 0.9755(3) 0.8305(4)
H10_9 H 0.6001 0.9543 0.7865
H11_9 H 0.5989 0.9704 0.8745
C20_7 C 0.6421(4) 0.1869(4) 0.0707(6)
C21_7 C 0.5999(4) 0.1597(4) 0.1401(6)
H15_7 H 0.6096 0.1741 0.2001
C22_7 C 0.5439(4) 0.1117(4) 0.1197(5)
H16_7 H 0.5151 0.0936 0.1664
C23_7 C 0.5279(4) 0.0884(4) 0.0313(5)
H17_7 H 0.4890 0.0555 0.0186
C24_7 C 0.7335(5) 0.2806(5) 0.0284(8)
H18_7 H 0.7084 0.2960 0.0035
H19_7 H 0.7694 0.3137 0.0563
O13_7 O 0.7002(3) 0.2361(4) 0.0941(5)
C8_7 C 0.3579(4) 0.8131(4) 0.9293(6)
C9_7 C 0.4001(4) 0.8403(4) 0.8599(6)
H2_7 H 0.3904 0.8259 0.7999
C10_7 C 0.4561(4) 0.8883(4) 0.8803(5)
H3_7 H 0.4849 0.9064 0.8336
C11_7 C 0.4721(4) 0.9116(4) 0.9687(5)
H4_7 H 0.5110 0.9445 0.9814
C12_7 C 0.2665(5) 0.7194(5) 0.9716(8)
H5_7 H 0.2916 0.7040 0.9965
H6_7 H 0.2306 0.6863 0.9437
O5_7 O 0.2998(3) 0.7639(4) 0.9059(5)
C8_8 C 0.1869(4) 0.5447(6) 0.9293(6)
C9_8 C 0.1597(4) 0.5597(6) 0.8599(6)
H2_8 H 0.1741 0.5644 0.7999
C10_8 C 0.1117(4) 0.5677(6) 0.8803(5)
H3_8 H 0.0936 0.5784 0.8336
C11_8 C 0.0884(4) 0.5604(6) 0.9687(5)
H4_8 H 0.0555 0.5664 0.9814
C12_8 C 0.2806(5) 0.5470(7) 0.9716(8)
H5_8 H 0.2960 0.5875 0.9965
H6_8 H 0.3137 0.5442 0.9437
O5_8 O 0.2361(4) 0.5358(5) 0.9059(5)
C20_8 C 0.8131(4) 0.4553(6) 0.0707(6)
C21_8 C 0.8403(4) 0.4403(6) 0.1401(6)
H15_8 H 0.8259 0.4356 0.2001
C22_8 C 0.8883(4) 0.4323(6) 0.1197(5)
H16_8 H 0.9064 0.4216 0.1664
C23_8 C 0.9116(4) 0.4396(6) 0.0313(5)
H17_8 H 0.9445 0.4336 0.0186
C24_8 C 0.7194(5) 0.4530(7) 0.0284(8)
H18_8 H 0.7040 0.4125 0.0035
H19_8 H 0.6863 0.4558 0.0563
O13_8 O 0.7639(4) 0.4642(5) 0.0941(5)
C20_9 C 0.5447(6) 0.3579(4) 0.0707(6)
C21_9 C 0.5597(6) 0.4001(4) 0.1401(6)
H15_9 H 0.5644 0.3904 0.2001
C22_9 C 0.5677(6) 0.4561(4) 0.1197(5)
H16_9 H 0.5784 0.4849 0.1664
C23_9 C 0.5604(6) 0.4721(4) 0.0313(5)
H17_9 H 0.5664 0.5110 0.0186
C24_9 C 0.5470(7) 0.2665(5) 0.0284(8)
H18_9 H 0.5875 0.2916 0.0035
H19_9 H 0.5442 0.2306 0.0563
O13_9 O 0.5358(5) 0.2998(3) 0.0941(5)
C8_9 C 0.4553(6) 0.6421(4) 0.9293(6)
C9_9 C 0.4403(6) 0.5999(4) 0.8599(6)
H2_9 H 0.4356 0.6096 0.7999
C10_9 C 0.4323(6) 0.5439(4) 0.8803(5)
H3_9 H 0.4216 0.5151 0.8336
C11_9 C 0.4396(6) 0.5279(4) 0.9687(5)
H4_9 H 0.4336 0.4890 0.9814
C12_9 C 0.4530(7) 0.7335(5) 0.9716(8)
H5_9 H 0.4125 0.7084 0.9965
H6_9 H 0.4558 0.7694 0.9437
O5_9 O 0.4642(5) 0.7002(3) 0.9059(5)
O15_8 O 0.9755(3) 0.3523(3) 0.1695(4)
H23_8 H 0.9543 0.3542 0.2135
H24_8 H 0.9704 0.3715 0.1255
O15_9 O 0.3768(4) 0.0245(3) 0.1695(4)
H23_9 H 0.3999 0.0457 0.2135
H24_9 H 0.4011 0.0296 0.1255
loop_
_geom_bond_atom_site_label_1
_geom_bond_atom_site_label_2
_geom_bond_site_symmetry_1
_geom_bond_site_symmetry_2
C24 H18 1_555 1_555
H19 C24 1_555 1_555
H20 C24 1_555 1_555
C24 O13 1_555 1_555
H23 O15 1_555 1_555
H24 O15 1_555 1_555
Mn1 O2 1_555 1_555
Mn4 N1 1_555 1_555
C1 C2 1_555 1_555
C2 C3 1_555 1_555
C3 C4 1_555 1_555
C4 O3 1_555 1_555
C5 C6 1_555 1_555
C6 C7 1_555 1_555
C7 H1 1_555 1_555
C8 C7 1_555 1_555
C9 C8 1_555 1_555
H2 C9 1_555 1_555
C10 C9 1_555 1_555
H3 C10 1_555 1_555
C11 C6 1_555 1_555
H4 C11 1_555 1_555
N1 C2 1_555 1_555
N5 C3 1_555 1_555
O1 Mn4 1_555 1_555
O2 C1 1_555 1_555
O3 Mn1 1_555 1_555
O17 C4 1_555 1_555
O6 Mn4 1_555 1_555
H8 O6 1_555 1_555
H9 O6 1_555 1_555
O8 Mn1 1_555 1_555
H12 O8 1_555 1_555
H13 O8 1_555 1_555
C16 O11 1_555 1_555
O10 Mn1 1_555 1_555
O11 Mn1 1_555 1_555
O16 Mn1 1_555 1_555
H25 O16 1_555 1_555
H26 O16 1_555 1_555
C1 O1 1_555 1_555
C5 N1 1_555 1_555
C5 N5 1_555 1_555
C10 C11 1_555 1_555
H10 O7 1_555 1_555
H11 O7 1_555 1_555
Mn1_2 O2_2 1_555 1_555
C4_2 O3_2 1_555 1_555
O3_2 Mn1_2 1_555 1_555
O8_2 Mn1_2 1_555 1_555
H12_2 O8_2 1_555 1_555
H13_2 O8_2 1_555 1_555
Mn3 N3 1_555 1_555
C13 C14 1_555 1_555
C14 C15 1_555 1_555
C15 C16_2 1_555 1_555
C16_2 O11_2 1_555 1_555
C17 C18 1_555 1_555
C18 C19 1_555 1_555
C19 H14 1_555 1_555
C20 C19 1_555 1_555
C21 C20 1_555 1_555
H15 C21 1_555 1_555
C22 C21 1_555 1_555
H16 C22 1_555 1_555
C23 C18 1_555 1_555
H17 C23 1_555 1_555
N3 C14 1_555 1_555
N4 C15 1_555 1_555
O9 Mn3 1_555 1_555
O10_2 Mn1_2 1_555 1_555
O11_2 Mn1_2 1_555 1_555
O12 C16_2 1_555 1_555
O14 Mn3 1_555 1_555
H21 O14 1_555 1_555
H22 O14 1_555 1_555
O15_2 Mn3 1_555 1_555
H23_2 O15_2 1_555 1_555
H24_2 O15_2 1_555 1_555
O16_2 Mn1_2 1_555 1_555
H25_2 O16_2 1_555 1_555
H26_2 O16_2 1_555 1_555
N5_2 Mn3 1_555 1_555
O17_2 Mn3 1_555 1_555
C13 O9 1_555 1_555
C13 O10_2 1_555 1_555
C17 N3 1_555 1_555
C17 N4 1_555 1_555
C22 C23 1_555 1_555
C24_2 H18_2 1_555 1_555
H19_2 C24_2 1_555 1_555
H20_2 C24_2 1_555 1_555
C24_2 O13_2 1_555 1_555
Mn1_3 O2_3 1_555 1_555
Mn4_2 N1_2 1_555 1_555
C1_2 C2_2 1_555 1_555
C2_2 C3_2 1_555 1_555
C3_2 C4_3 1_555 1_555
C4_3 O3_3 1_555 1_555
C5_2 C6_2 1_555 1_555
C6_2 C7_2 1_555 1_555
C7_2 H1_2 1_555 1_555
C8_2 C7_2 1_555 1_555
C9_2 C8_2 1_555 1_555
H2_2 C9_2 1_555 1_555
C10_2 C9_2 1_555 1_555
H3_2 C10_2 1_555 1_555
C11_2 C6_2 1_555 1_555
H4_2 C11_2 1_555 1_555
C12 H5 1_555 1_555
H6 C12 1_555 1_555
H7 C12 1_555 1_555
N1_2 C2_2 1_555 1_555
N5_2 C3_2 1_555 1_555
O1_2 Mn4_2 1_555 1_555
O2_3 C1_2 1_555 1_555
O3_3 Mn1_3 1_555 1_555
O17_2 C4_3 1_555 1_555
O5 C8_2 1_555 1_555
O6_2 Mn4_2 1_555 1_555
H8_2 O6_2 1_555 1_555
H9_2 O6_2 1_555 1_555
O8_3 Mn1_3 1_555 1_555
H12_3 O8_3 1_555 1_555
H13_3 O8_3 1_555 1_555
C16_3 O11_3 1_555 1_555
O10_3 Mn1_3 1_555 1_555
O11_3 Mn1_3 1_555 1_555
O16_3 Mn1_3 1_555 1_555
H25_3 O16_3 1_555 1_555
H26_3 O16_3 1_555 1_555
C1_2 O1_2 1_555 1_555
C5_2 N1_2 1_555 1_555
C5_2 N5_2 1_555 1_555
C10_2 C11_2 1_555 1_555
C12 O5 1_555 1_555
H10_2 O7_2 1_555 1_555
H11_2 O7_2 1_555 1_555
Mn2 N1_3 1_555 1_555
C1_3 C2_3 1_555 1_555
C2_3 C3_3 1_555 1_555
C5_3 C6_3 1_555 1_555
C6_3 C7_3 1_555 1_555
C7_3 H1_3 1_555 1_555
C8_3 C7_3 1_555 1_555
C9_3 C8_3 1_555 1_555
H2_3 C9_3 1_555 1_555
C10_3 C9_3 1_555 1_555
H3_3 C10_3 1_555 1_555
C11_3 C6_3 1_555 1_555
H4_3 C11_3 1_555 1_555
C12_2 H5_2 1_555 1_555
H6_2 C12_2 1_555 1_555
H7_2 C12_2 1_555 1_555
N1_3 C2_3 1_555 1_555
N2 C3_3 1_555 1_555
O1_3 Mn2 1_555 1_555
O5_2 C8_3 1_555 1_555
O6_3 Mn2 1_555 1_555
H8_3 O6_3 1_555 1_555
H9_3 O6_3 1_555 1_555
Mn5 N2 1_555 1_555
N6 Mn2 1_555 1_555
O18 Mn2 1_555 1_555
C1_3 O1_3 1_555 1_555
C5_3 N1_3 1_555 1_555
C5_3 N2 1_555 1_555
C10_3 C11_3 1_555 1_555
C12_2 O5_2 1_555 1_555
O4 Mn5 1_555 1_555
Mn2_2 N1_4 1_555 1_555
C1_4 C2_4 1_555 1_555
C2_4 C3_4 1_555 1_555
C5_4 C6_4 1_555 1_555
C6_4 C7_4 1_555 1_555
C7_4 H1_4 1_555 1_555
C8_4 C7_4 1_555 1_555
C9_4 C8_4 1_555 1_555
H2_4 C9_4 1_555 1_555
C10_4 C9_4 1_555 1_555
H3_4 C10_4 1_555 1_555
C11_4 C6_4 1_555 1_555
H4_4 C11_4 1_555 1_555
C12_3 H5_3 1_555 1_555
H6_3 C12_3 1_555 1_555
H7_3 C12_3 1_555 1_555
N1_4 C2_4 1_555 1_555
N2_2 C3_4 1_555 1_555
O1_4 Mn2_2 1_555 1_555
O5_3 C8_4 1_555 1_555
O6_4 Mn2_2 1_555 1_555
H8_4 O6_4 1_555 1_555
H9_4 O6_4 1_555 1_555
O7_3 Mn2_2 1_555 1_555
H10_3 O7_3 1_555 1_555
H11_3 O7_3 1_555 1_555
Mn5_2 N2_2 1_555 1_555
N6_2 Mn2_2 1_555 1_555
O18_2 Mn2_2 1_555 1_555
C1_4 O1_4 1_555 1_555
C5_4 N1_4 1_555 1_555
C5_4 N2_2 1_555 1_555
C10_4 C11_4 1_555 1_555
C12_3 O5_3 1_555 1_555
O4_2 Mn5_2 1_555 1_555
Mn2_3 N1_5 1_555 1_555
C1_5 C2_5 1_555 1_555
C2_5 C3_5 1_555 1_555
C5_5 C6_5 1_555 1_555
C6_5 C7_5 1_555 1_555
C7_5 H1_5 1_555 1_555
C8_5 C7_5 1_555 1_555
C9_5 C8_5 1_555 1_555
H2_5 C9_5 1_555 1_555
C10_5 C9_5 1_555 1_555
H3_5 C10_5 1_555 1_555
C11_5 C6_5 1_555 1_555
H4_5 C11_5 1_555 1_555
C12_4 H5_4 1_555 1_555
H6_4 C12_4 1_555 1_555
H7_4 C12_4 1_555 1_555
N1_5 C2_5 1_555 1_555
N2_3 C3_5 1_555 1_555
O1_5 Mn2_3 1_555 1_555
O5_4 C8_5 1_555 1_555
O6_5 Mn2_3 1_555 1_555
H8_5 O6_5 1_555 1_555
H9_5 O6_5 1_555 1_555
Mn5_3 N2_3 1_555 1_555
N6_3 Mn2_3 1_555 1_555
O18_3 Mn2_3 1_555 1_555
C1_5 O1_5 1_555 1_555
C5_5 N1_5 1_555 1_555
C5_5 N2_3 1_555 1_555
C10_5 C11_5 1_555 1_555
C12_4 O5_4 1_555 1_555
O4_3 Mn5_3 1_555 1_555
H8_6 O6_6 1_555 1_555
H9_6 O6_6 1_555 1_555
Mn5_2 N3_2 1_555 1_555
C13_2 C14_2 1_555 1_555
C14_2 C15_2 1_555 1_555
C15_2 C16_4 1_555 1_555
C16_4 O11_4 1_555 1_555
C17_2 C18_2 1_555 1_555
C18_2 C19_2 1_555 1_555
C19_2 H14_2 1_555 1_555
N3_2 C14_2 1_555 1_555
N6_3 C15_2 1_555 1_555
O9_2 Mn5_2 1_555 1_555
O10_4 Mn1_4 1_555 1_555
O11_4 Mn1_4 1_555 1_555
O18_3 C16_4 1_555 1_555
O15_3 Mn5_2 1_555 1_555
H23_3 O15_3 1_555 1_555
H24_3 O15_3 1_555 1_555
O16_4 Mn1_4 1_555 1_555
H25_4 O16_4 1_555 1_555
H26_4 O16_4 1_555 1_555
C13_2 O9_2 1_555 1_555
C13_2 O10_4 1_555 1_555
C17_2 N3_2 1_555 1_555
C17_2 N6_3 1_555 1_555
Mn1_5 O2_4 1_555 1_555
Mn2_4 N1_6 1_555 1_555
C1_6 C2_6 1_555 1_555
C2_6 C3_6 1_555 1_555
C3_6 C4_4 1_555 1_555
C4_4 O3_4 1_555 1_555
C5_6 C6_6 1_555 1_555
C6_6 C7_6 1_555 1_555
C7_6 H1_6 1_555 1_555
N1_6 C2_6 1_555 1_555
N2_4 C3_6 1_555 1_555
O1_6 Mn2_4 1_555 1_555
O2_4 C1_6 1_555 1_555
O3_4 Mn1_5 1_555 1_555
O4_4 C4_4 1_555 1_555
O7_4 Mn2_4 1_555 1_555
H10_4 O7_4 1_555 1_555
H11_4 O7_4 1_555 1_555
O8_4 Mn1_5 1_555 1_555
H12_4 O8_4 1_555 1_555
H13_4 O8_4 1_555 1_555
H21_2 O14_2 1_555 1_555
H22_2 O14_2 1_555 1_555
Mn5_4 N2_4 1_555 1_555
N6_4 Mn2_4 1_555 1_555
O18_4 Mn2_4 1_555 1_555
C1_6 O1_6 1_555 1_555
C5_6 N1_6 1_555 1_555
C5_6 N2_4 1_555 1_555
O4_4 Mn5_4 1_555 1_555
Mn1_6 O2_5 1_555 1_555
Mn2_5 N1_7 1_555 1_555
C1_7 C2_7 1_555 1_555
C2_7 C3_7 1_555 1_555
C3_7 C4_5 1_555 1_555
C4_5 O3_5 1_555 1_555
C5_7 C6_7 1_555 1_555
C6_7 C7_7 1_555 1_555
C7_7 H1_7 1_555 1_555
N1_7 C2_7 1_555 1_555
N2_5 C3_7 1_555 1_555
O1_7 Mn2_5 1_555 1_555
O2_5 C1_7 1_555 1_555
O3_5 Mn1_6 1_555 1_555
O4_5 C4_5 1_555 1_555
O7_5 Mn2_5 1_555 1_555
H10_5 O7_5 1_555 1_555
H11_5 O7_5 1_555 1_555
O8_5 Mn1_6 1_555 1_555
H12_5 O8_5 1_555 1_555
H13_5 O8_5 1_555 1_555
H21_3 O14_3 1_555 1_555
H22_3 O14_3 1_555 1_555
Mn5_5 N2_5 1_555 1_555
N6_5 Mn2_5 1_555 1_555
O18_5 Mn2_5 1_555 1_555
C1_7 O1_7 1_555 1_555
C5_7 N1_7 1_555 1_555
C5_7 N2_5 1_555 1_555
O4_5 Mn5_5 1_555 1_555
H8_7 O6_7 1_555 1_555
H9_7 O6_7 1_555 1_555
Mn5_3 N3_3 1_555 1_555
C13_3 C14_3 1_555 1_555
C14_3 C15_3 1_555 1_555
C15_3 C16_5 1_555 1_555
C16_5 O11_5 1_555 1_555
C17_3 C18_3 1_555 1_555
C18_3 C19_3 1_555 1_555
C19_3 H14_3 1_555 1_555
N3_3 C14_3 1_555 1_555
N6 C15_3 1_555 1_555
O9_3 Mn5_3 1_555 1_555
O10_5 Mn1_7 1_555 1_555
O11_5 Mn1_7 1_555 1_555
O18 C16_5 1_555 1_555
O15_4 Mn5_3 1_555 1_555
H23_4 O15_4 1_555 1_555
H24_4 O15_4 1_555 1_555
O16_5 Mn1_7 1_555 1_555
H25_5 O16_5 1_555 1_555
H26_5 O16_5 1_555 1_555
C13_3 O9_3 1_555 1_555
C13_3 O10_5 1_555 1_555
C17_3 N3_3 1_555 1_555
C17_3 N6 1_555 1_555
Mn1_8 O2_6 1_555 1_555
Mn2_6 N1_8 1_555 1_555
C1_8 C2_8 1_555 1_555
C2_8 C3_8 1_555 1_555
C3_8 C4_6 1_555 1_555
C4_6 O3_6 1_555 1_555
C5_8 C6_8 1_555 1_555
C6_8 C7_8 1_555 1_555
C7_8 H1_8 1_555 1_555
N1_8 C2_8 1_555 1_555
N2_6 C3_8 1_555 1_555
O1_8 Mn2_6 1_555 1_555
O2_6 C1_8 1_555 1_555
O3_6 Mn1_8 1_555 1_555
O4_6 C4_6 1_555 1_555
O6_8 Mn2_6 1_555 1_555
H8_8 O6_8 1_555 1_555
H9_8 O6_8 1_555 1_555
O7_6 Mn2_6 1_555 1_555
H10_6 O7_6 1_555 1_555
H11_6 O7_6 1_555 1_555
O8_6 Mn1_8 1_555 1_555
H12_6 O8_6 1_555 1_555
H13_6 O8_6 1_555 1_555
Mn5 N3_4 1_555 1_555
C13_4 C14_4 1_555 1_555
C14_4 C15_4 1_555 1_555
C15_4 C16_6 1_555 1_555
C16_6 O11_6 1_555 1_555
C17_4 C18_4 1_555 1_555
C18_4 C19_4 1_555 1_555
C19_4 H14_4 1_555 1_555
N3_4 C14_4 1_555 1_555
N6_2 C15_4 1_555 1_555
O9_4 Mn5 1_555 1_555
O10_6 Mn1_8 1_555 1_555
O11_6 Mn1_8 1_555 1_555
O18_2 C16_6 1_555 1_555
O14_4 Mn5 1_555 1_555
H21_4 O14_4 1_555 1_555
H22_4 O14_4 1_555 1_555
O15_5 Mn5 1_555 1_555
H23_5 O15_5 1_555 1_555
H24_5 O15_5 1_555 1_555
O16_6 Mn1_8 1_555 1_555
H25_6 O16_6 1_555 1_555
H26_6 O16_6 1_555 1_555
Mn5_6 N2_6 1_555 1_555
N6_6 Mn2_6 1_555 1_555
O18_6 Mn2_6 1_555 1_555
C1_8 O1_8 1_555 1_555
C5_8 N1_8 1_555 1_555
C5_8 N2_6 1_555 1_555
O4_6 Mn5_6 1_555 1_555
C13_4 O9_4 1_555 1_555
C13_4 O10_6 1_555 1_555
C17_4 N3_4 1_555 1_555
C17_4 N6_2 1_555 1_555
Mn5_5 N3_5 1_555 1_555
C13_5 C14_5 1_555 1_555
C14_5 C15_5 1_555 1_555
C17_5 C18_5 1_555 1_555
C18_5 C19_5 1_555 1_555
C19_5 H14_5 1_555 1_555
C20_2 C19_5 1_555 1_555
C21_2 C20_2 1_555 1_555
H15_2 C21_2 1_555 1_555
C22_2 C21_2 1_555 1_555
H16_2 C22_2 1_555 1_555
C23_2 C18_5 1_555 1_555
H17_2 C23_2 1_555 1_555
C24_3 H18_3 1_555 1_555
H19_3 C24_3 1_555 1_555
H20_6 C24_3 1_555 1_555
N3_5 C14_5 1_555 1_555
N6_6 C15_5 1_555 1_555
O9_5 Mn5_5 1_555 1_555
O13_3 C20_2 1_555 1_555
O14_5 Mn5_5 1_555 1_555
H21_5 O14_5 1_555 1_555
H22_5 O14_5 1_555 1_555
C13_5 O9_5 1_555 1_555
C17_5 N3_5 1_555 1_555
C17_5 N6_6 1_555 1_555
C22_2 C23_2 1_555 1_555
C24_3 O13_3 1_555 1_555
Mn5_6 N3_6 1_555 1_555
C13_6 C14_6 1_555 1_555
C14_6 C15_6 1_555 1_555
C17_6 C18_6 1_555 1_555
C18_6 C19_6 1_555 1_555
C19_6 H14_6 1_555 1_555
C20_3 C19_6 1_555 1_555
C21_3 C20_3 1_555 1_555
H15_3 C21_3 1_555 1_555
C22_3 C21_3 1_555 1_555
H16_3 C22_3 1_555 1_555
C23_3 C18_6 1_555 1_555
H17_3 C23_3 1_555 1_555
C24_4 H18_4 1_555 1_555
H19_4 C24_4 1_555 1_555
H20_7 C24_4 1_555 1_555
N3_6 C14_6 1_555 1_555
N6_4 C15_6 1_555 1_555
O9_6 Mn5_6 1_555 1_555
O13_4 C20_3 1_555 1_555
O14_6 Mn5_6 1_555 1_555
H21_6 O14_6 1_555 1_555
H22_6 O14_6 1_555 1_555
O15_6 Mn5_6 1_555 1_555
H23_6 O15_6 1_555 1_555
H24_6 O15_6 1_555 1_555
C13_6 O9_6 1_555 1_555
C17_6 N3_6 1_555 1_555
C17_6 N6_4 1_555 1_555
C22_3 C23_3 1_555 1_555
C24_4 O13_4 1_555 1_555
Mn5_4 N3_7 1_555 1_555
C13_7 C14_7 1_555 1_555
C14_7 C15_7 1_555 1_555
C17_7 C18_7 1_555 1_555
C18_7 C19_7 1_555 1_555
C19_7 H14_7 1_555 1_555
C20_4 C19_7 1_555 1_555
C21_4 C20_4 1_555 1_555
H15_4 C21_4 1_555 1_555
C22_4 C21_4 1_555 1_555
H16_4 C22_4 1_555 1_555
C23_4 C18_7 1_555 1_555
H17_4 C23_4 1_555 1_555
C24_5 H18_5 1_555 1_555
H19_5 C24_5 1_555 1_555
H20_8 C24_5 1_555 1_555
N3_7 C14_7 1_555 1_555
N6_5 C15_7 1_555 1_555
O9_7 Mn5_4 1_555 1_555
O13_5 C20_4 1_555 1_555
O14_7 Mn5_4 1_555 1_555
H21_7 O14_7 1_555 1_555
H22_7 O14_7 1_555 1_555
C13_7 O9_7 1_555 1_555
C17_7 N3_7 1_555 1_555
C17_7 N6_5 1_555 1_555
C22_4 C23_4 1_555 1_555
C24_5 O13_5 1_555 1_555
Mn1_9 O2_7 1_555 1_555
C4_7 O3_7 1_555 1_555
O3_7 Mn1_9 1_555 1_555
O8_7 Mn1_9 1_555 1_555
H12_7 O8_7 1_555 1_555
H13_7 O8_7 1_555 1_555
Mn3_2 N3_8 1_555 1_555
C13_8 C14_8 1_555 1_555
C14_8 C15_8 1_555 1_555
C15_8 C16_7 1_555 1_555
C16_7 O11_7 1_555 1_555
C17_8 C18_8 1_555 1_555
C18_8 C19_8 1_555 1_555
C19_8 H14_8 1_555 1_555
C20_5 C19_8 1_555 1_555
C21_5 C20_5 1_555 1_555
H15_5 C21_5 1_555 1_555
C22_5 C21_5 1_555 1_555
H16_5 C22_5 1_555 1_555
C23_5 C18_8 1_555 1_555
H17_5 C23_5 1_555 1_555
C24_6 H18_6 1_555 1_555
H19_6 C24_6 1_555 1_555
H20_9 C24_6 1_555 1_555
N3_8 C14_8 1_555 1_555
N4_2 C15_8 1_555 1_555
O9_8 Mn3_2 1_555 1_555
O10_7 Mn1_9 1_555 1_555
O11_7 Mn1_9 1_555 1_555
O12_2 C16_7 1_555 1_555
O13_6 C20_5 1_555 1_555
O14_8 Mn3_2 1_555 1_555
H21_8 O14_8 1_555 1_555
H22_8 O14_8 1_555 1_555
O16_7 Mn1_9 1_555 1_555
H25_7 O16_7 1_555 1_555
H26_7 O16_7 1_555 1_555
Mn4_3 N4_2 1_555 1_555
C13_8 O9_8 1_555 1_555
C13_8 O10_7 1_555 1_555
C17_8 N3_8 1_555 1_555
C17_8 N4_2 1_555 1_555
C22_5 C23_5 1_555 1_555
C24_6 O13_6 1_555 1_555
O12_2 Mn4_3 1_555 1_555
H23_7 O15_7 1_555 1_555
H24_7 O15_7 1_555 1_555
Mn1_10 O2_8 1_555 1_555
Mn4_3 N1_9 1_555 1_555
C1_9 C2_9 1_555 1_555
C2_9 C3_9 1_555 1_555
C3_9 C4_8 1_555 1_555
C4_8 O3_8 1_555 1_555
C5_9 C6_9 1_555 1_555
C6_9 C7_9 1_555 1_555
C7_9 H1_9 1_555 1_555
C8_6 C7_9 1_555 1_555
C9_6 C8_6 1_555 1_555
H2_6 C9_6 1_555 1_555
C10_6 C9_6 1_555 1_555
H3_6 C10_6 1_555 1_555
C11_6 C6_9 1_555 1_555
H4_6 C11_6 1_555 1_555
N1_9 C2_9 1_555 1_555
N5_3 C3_9 1_555 1_555
O1_9 Mn4_3 1_555 1_555
O2_8 C1_9 1_555 1_555
O3_8 Mn1_10 1_555 1_555
O17_3 C4_8 1_555 1_555
O6_9 Mn4_3 1_555 1_555
H8_9 O6_9 1_555 1_555
H9_9 O6_9 1_555 1_555
O7_7 Mn4_3 1_555 1_555
H10_7 O7_7 1_555 1_555
H11_7 O7_7 1_555 1_555
O8_8 Mn1_10 1_555 1_555
H12_8 O8_8 1_555 1_555
H13_8 O8_8 1_555 1_555
C16_8 O11_8 1_555 1_555
O10_8 Mn1_10 1_555 1_555
O11_8 Mn1_10 1_555 1_555
O16_8 Mn1_10 1_555 1_555
H25_8 O16_8 1_555 1_555
H26_8 O16_8 1_555 1_555
C1_9 O1_9 1_555 1_555
C5_9 N1_9 1_555 1_555
C5_9 N5_3 1_555 1_555
C10_6 C11_6 1_555 1_555
C12_5 H5_5 1_555 1_555
H6_5 C12_5 1_555 1_555
H7_8 C12_5 1_555 1_555
C12_5 O5_5 1_555 1_555
Mn1_11 O2_9 1_555 1_555
C4_9 O3_9 1_555 1_555
O3_9 Mn1_11 1_555 1_555
O8_9 Mn1_11 1_555 1_555
H12_9 O8_9 1_555 1_555
H13_9 O8_9 1_555 1_555
Mn3_3 N3_9 1_555 1_555
C13_9 C14_9 1_555 1_555
C14_9 C15_9 1_555 1_555
C15_9 C16_9 1_555 1_555
C16_9 O11_9 1_555 1_555
C17_9 C18_9 1_555 1_555
C18_9 C19_9 1_555 1_555
C19_9 H14_9 1_555 1_555
C20_6 C19_9 1_555 1_555
C21_6 C20_6 1_555 1_555
H15_6 C21_6 1_555 1_555
C22_6 C21_6 1_555 1_555
H16_6 C22_6 1_555 1_555
C23_6 C18_9 1_555 1_555
H17_6 C23_6 1_555 1_555
N3_9 C14_9 1_555 1_555
N4_3 C15_9 1_555 1_555
O9_9 Mn3_3 1_555 1_555
O10_9 Mn1_11 1_555 1_555
O11_9 Mn1_11 1_555 1_555
O12_3 C16_9 1_555 1_555
O14_9 Mn3_3 1_555 1_555
H21_9 O14_9 1_555 1_555
H22_9 O14_9 1_555 1_555
O16_9 Mn1_11 1_555 1_555
H25_9 O16_9 1_555 1_555
H26_9 O16_9 1_555 1_555
C13_9 O9_9 1_555 1_555
C13_9 O10_9 1_555 1_555
C17_9 N3_9 1_555 1_555
C17_9 N4_3 1_555 1_555
C22_6 C23_6 1_555 1_555
C12_6 H5_6 1_555 1_555
H6_6 C12_6 1_555 1_555
H7_9 C12_6 1_555 1_555
C12_6 O5_6 1_555 1_555
H10_8 O7_8 1_555 1_555
H11_8 O7_8 1_555 1_555
H10_9 O7_9 1_555 1_555
H11_9 O7_9 1_555 1_555
C21_7 C20_7 1_555 1_555
H15_7 C21_7 1_555 1_555
C22_7 C21_7 1_555 1_555
H16_7 C22_7 1_555 1_555
H17_7 C23_7 1_555 1_555
C24_7 H18_7 1_555 1_555
H19_7 C24_7 1_555 1_555
O13_7 C20_7 1_555 1_555
C22_7 C23_7 1_555 1_555
C24_7 O13_7 1_555 1_555
C9_7 C8_7 1_555 1_555
H2_7 C9_7 1_555 1_555
C10_7 C9_7 1_555 1_555
H3_7 C10_7 1_555 1_555
H4_7 C11_7 1_555 1_555
C12_7 H5_7 1_555 1_555
H6_7 C12_7 1_555 1_555
O5_7 C8_7 1_555 1_555
C10_7 C11_7 1_555 1_555
C12_7 O5_7 1_555 1_555
C9_8 C8_8 1_555 1_555
H2_8 C9_8 1_555 1_555
C10_8 C9_8 1_555 1_555
H3_8 C10_8 1_555 1_555
H4_8 C11_8 1_555 1_555
C12_8 H5_8 1_555 1_555
H6_8 C12_8 1_555 1_555
O5_8 C8_8 1_555 1_555
C10_8 C11_8 1_555 1_555
C12_8 O5_8 1_555 1_555
C21_8 C20_8 1_555 1_555
H15_8 C21_8 1_555 1_555
C22_8 C21_8 1_555 1_555
H16_8 C22_8 1_555 1_555
H17_8 C23_8 1_555 1_555
C24_8 H18_8 1_555 1_555
H19_8 C24_8 1_555 1_555
O13_8 C20_8 1_555 1_555
C22_8 C23_8 1_555 1_555
C24_8 O13_8 1_555 1_555
C21_9 C20_9 1_555 1_555
H15_9 C21_9 1_555 1_555
C22_9 C21_9 1_555 1_555
H16_9 C22_9 1_555 1_555
H17_9 C23_9 1_555 1_555
C24_9 H18_9 1_555 1_555
H19_9 C24_9 1_555 1_555
O13_9 C20_9 1_555 1_555
C22_9 C23_9 1_555 1_555
C24_9 O13_9 1_555 1_555
C9_9 C8_9 1_555 1_555
H2_9 C9_9 1_555 1_555
C10_9 C9_9 1_555 1_555
H3_9 C10_9 1_555 1_555
H4_9 C11_9 1_555 1_555
C12_9 H5_9 1_555 1_555
H6_9 C12_9 1_555 1_555
O5_9 C8_9 1_555 1_555
C10_9 C11_9 1_555 1_555
C12_9 O5_9 1_555 1_555
H23_8 O15_8 1_555 1_555
H24_8 O15_8 1_555 1_555
H23_9 O15_9 1_555 1_555
H24_9 O15_9 1_555 1_555

#END
