
###############################################################################
#
# This file contains modified crystal structure data generated from the
# MOF subset of the Cambridge Structural Database (CSD) v543 
# hosted by the Cambridge Crystallographic Data Centre (CCDC).
#
# This work is licensed under the Creative Commons
# Attribution-NonCommercial-ShareAlike 4.0 International License.
# To view a copy of this license, visit
# http://creativecommons.org/licenses/by-nc-sa/4.0/
# or send a letter to
# Creative Commons, PO Box 1866, Mountain View, CA 94042, USA.
#
# CIF created using the CSD Python API on 29 September 2022
# The structure has been converted into the P1 space group
# The structure has a 3D framework
# The original CSD entry VICLAW is in the monoclinic crystal system
# The original CSD entry VICLAW is in a Sohncke space group
# The framework has been calculated to contain at least 10.0% void space
# The void calculation uses a probe of radius 1.32A, grid spacing 0.4
#
###############################################################################

data_VICLAW
_chemical_formula_moiety         '(C342 H360 Cd8 Cl2 N18 Ni8 O60)n'
_symmetry_cell_setting           triclinic
_symmetry_space_group_name_H-M   'P 1'
_symmetry_Int_Tables_number      1
_space_group_name_Hall           'P 1'
loop_
_symmetry_equiv_pos_site_id
_symmetry_equiv_pos_as_xyz
1 x,y,z
_cell_length_a                   23.235(5)
_cell_length_b                   11.855(2)
_cell_length_c                   36.749(7)
_cell_angle_alpha                90
_cell_angle_beta                 95.26(3)
_cell_angle_gamma                90
_cell_volume                     10079.9
loop_
_atom_site_label
_atom_site_type_symbol
_atom_site_fract_x
_atom_site_fract_y
_atom_site_fract_z
H49 H 0.3291 0.0847 0.0163
Cd4 Cd 0.05657(4) 0.21838(7) 0.77023(2)
C10 C 0.2852(5) 0.0015(9) 0.9745(3)
O8 O 0.2112(4) 0.1230(8) 0.7333(3)
O20 O 0.1223(4) 0.1153(8) 0.8011(2)
O22 O 0.1331(5) 0.3113(8) 0.7473(3)
H16 H 0.1374 0.3819 0.7506
H17 H 0.1569 0.2748 0.7356
C61 C 0.2422(5) 0.1006(10) 0.9682(3)
H37 H 0.2575 0.1551 0.9524
H38 H 0.2366 0.1354 0.9912
H39 H 0.2059 0.0728 0.9572
C64 C 0.1894(5) 0.0109(10) 0.8351(3)
H44 H 0.1820 0.0542 0.8552
C70 C 0.3386(5) 0.0476(10) 0.9944(3)
H47 H 0.3562 0.1006 0.9791
H61 H 0.2389 0.0287 0.9068
C162 C 0.1522(5) 0.0264(10) 0.8034(3)
N9 N 0.2950(6) 0.1455(11) 0.7679(4)
C163 C 0.2569(6) 0.0879(14) 0.7492(4)
H165 H 0.2641 0.0112 0.7471
C165 C 0.3435(8) 0.0875(17) 0.7869(7)
H167 H 0.3405 0.0082 0.7818
H168 H 0.3434 0.0997 0.8127
H169 H 0.3788 0.1161 0.7787
C166 C 0.2875(9) 0.2615(14) 0.7734(7)
H170 H 0.2523 0.2859 0.7600
H171 H 0.3195 0.3020 0.7650
H172 H 0.2856 0.2761 0.7990
O35 O 0.0493(4) 0.1252(7) 0.72021(19)
O36 O 0.0949(4) 0.1018(9) 0.6744(2)
O37 O 0.0448(5) 0.3194(9) 0.8167(2)
H21 H 0.0176 0.3556 0.4464
C32 C 0.0042(4) 0.4013(9) 0.5108(3)
H22 H 0.0347 0.3538 0.5066
H23 H 0.0283 0.4876 0.0534
C57 C 0.0065(5) 0.3462(9) 0.6095(3)
C83 C 0.0581(5) 0.1567(11) 0.6894(3)
C85 C 0.0345(5) 0.2709(10) 0.6357(3)
H64 H 0.0646 0.2318 0.6264
C87 C 0.0182(5) 0.3459(10) 0.5742(3)
H65 H 0.0461 0.2959 0.5673
C97 C 0.0487(6) 0.6859(11) 0.0851(4)
C100 C 0.0281(5) 0.2439(10) 0.6688(3)
H85 H 0.0013 0.2853 0.6806
C113 C 0.0587(4) 0.6051(8) 0.4583(3)
H107 H 0.0443 0.6131 0.4809
C114 C 0.0396(4) 0.5175(8) 0.4358(2)
C119 C 0.0635(5) 0.5094(10) 0.4026(3)
H109 H 0.0512 0.4511 0.3868
C129 C 0.1044(6) 0.5831(12) 0.3920(4)
H127 H 0.1205 0.5723 0.3700
C144 C 0.0688(6) 0.7296(13) 0.0536(4)
H145 H 0.0483 0.7169 0.0310
C146 C 0.1196(7) 0.7925(16) 0.0558(6)
H147 H 0.1317 0.8265 0.0350
C148 C 0.0812(7) 0.7045(14) 0.1182(4)
H149 H 0.0675 0.6755 0.1393
C156 C 0.0995(5) 0.6819(11) 0.4477(4)
H159 H 0.1120 0.7400 0.4636
C157 C 0.1215(7) 0.6734(14) 0.4142(4)
H160 H 0.1472 0.7270 0.4068
C160 C 0.1524(10) 0.8043(19) 0.0894(5)
H163 H 0.1881 0.8400 0.0902
C161 C 0.1332(7) 0.7643(16) 0.1217(6)
H164 H 0.1538 0.7765 0.1443
H180 H 0.0113 0.3006 0.0726
H34 H 0.0115 0.4688 0.9943
H84 H 0.0204 0.4118 0.8698
H139 H 0.0141 0.4401 0.9325
O2 O 0.4171(3) 0.7259(6) 0.02547(17)
C7 C 0.4845(4) 0.5796(9) 0.0457(3)
C8 C 0.4395(4) 0.6603(9) 0.0512(2)
C9 C 0.5085(5) 0.5136(10) 0.0754(3)
H4 H 0.5385 0.4646 0.0714
C11 C 0.4455(5) 0.6003(10) 0.1144(3)
H5 H 0.4334 0.6084 0.1377
C12 C 0.4198(5) 0.6669(10) 0.0879(3)
O7 O 0.5466(4) 0.2708(8) 0.1891(2)
O24 O 0.1053(3) 0.1875(8) 0.02379(19)
C26 C 0.0858(5) 0.1308(10) 0.0496(3)
C48 C 0.5050(4) 0.5644(9) 0.0120(3)
H31 H 0.5368 0.5173 0.0109
C52 C 0.0174(5) 0.0232(10) 0.0081(3)
C54 C 0.5105(5) 0.4409(10) 0.1379(3)
H35 H 0.5371 0.3869 0.1319
C55 C 0.1647(6) 0.2179(12) 0.0957(3)
C60 C 0.1100(5) 0.1447(11) 0.0870(3)
C63 C 0.3821(7) 0.8664(11) 0.0854(4)
H41 H 0.4153 0.8920 0.1006
H42 H 0.3496 0.9136 0.0891
H43 H 0.3900 0.8701 0.0602
H48 H 0.3651 0.9870 0.0007
C71 C 0.3688(5) 0.7472(10) 0.0951(3)
C74 C 0.3157(6) 0.7062(14) 0.0720(4)
H51 H 0.2835 0.7541 0.0759
H52 H 0.3071 0.6303 0.0789
H53 H 0.3227 0.7080 0.0467
C76 C 0.0851(5) 0.0894(11) 0.1146(3)
H55 H 0.1001 0.1026 0.1386
C81 C 0.2133(5) 0.1725(13) 0.0741(4)
H58 H 0.2211 0.0953 0.0806
H59 H 0.2476 0.2167 0.0797
H60 H 0.2016 0.1772 0.0484
O27 O 0.4996(5) 0.3640(9) 0.2313(2)
H62 H 0.5112 0.3113 0.2444
C90 C 0.5163(7) 0.3475(14) 0.1960(3)
H67 H 0.0575 0.0043 0.1831
C94 C 0.1863(7) 0.2170(15) 0.1353(3)
H72 H 0.1949 0.1409 0.1429
H73 H 0.1572 0.2474 0.1494
H74 H 0.2207 0.2620 0.1390
C101 C 0.2373(5) 0.4094(10) 0.0096(3)
H86 H 0.2720 0.3826 0.0003
H87 H 0.2120 0.3468 0.0129
H88 H 0.2468 0.4461 0.0327
C109 C 0.4951(6) 0.4393(11) 0.1720(3)
H103 H 0.4714 0.4952 0.1802
H105 H 0.1627 0.5738 0.0200
C111 C 0.4900(5) 0.5177(10) 0.1098(3)
C120 C 0.2576(5) 0.9159(11) 0.0011(3)
H110 H 0.2834 0.8536 0.0063
H112 H 0.2512 0.9537 0.0235
C135 C 0.3562(8) 0.7460(15) 0.1337(4)
H135 H 0.3891 0.7736 0.1488
H136 H 0.3478 0.6702 0.1408
H137 H 0.3234 0.7933 0.1367
C139 C 0.0379(6) 0.0496(12) 0.0432(3)
C140 C 0.0380(5) 0.0136(11) 0.1086(3)
C142 C 0.1505(6) 0.3375(12) 0.0859(4)
H141 H 0.1361 0.3418 0.0607
H142 H 0.1847 0.3829 0.0901
H143 H 0.1216 0.3646 0.1008
H179 H 0.2532 0.6291 0.0027
Cd7 Cd 0.59584(4) 0.13183(7) 0.22548(2)
Cd1 Cd 0.24157(4) 0.66130(6) 0.746812(19)
Cd2 Cd 0.13483(3) 0.98379(6) 0.716646(18)
Cd3 Cd 0.40416(4) 0.63183(7) 0.77452(2)
Ni1 Ni 0.41590(5) 0.49780(11) 0.51367(3)
Ni2 Ni 0.08605(6) 0.04119(11) 0.51801(3)
Ni3 Ni 0.42185(5) 0.70828(12) 0.97554(3)
Ni4 Ni 0.08003(6) 0.18655(12) 0.97485(4)
O1 O 0.3646(3) 0.8154(6) 0.96882(18)
C1 C 0.3384(4) 0.8529(10) 0.9383(3)
N1 N 0.4210(3) 0.6753(7) 0.9262(2)
C2 C 0.2710(5) 0.9192(9) 0.8719(3)
N2 N 0.4841(3) 0.6096(8) 0.9819(2)
C3 C 0.3869(4) 0.7172(9) 0.9004(2)
H1 H 0.3888 0.6867 0.8772
C4 C 0.5107(5) 0.5892(10) 0.9472(3)
H2 H 0.5309 0.5165 0.9485
C5 C 0.3133(5) 0.8359(9) 0.8714(3)
H3 H 0.3193 0.8008 0.8495
C6 C 0.2954(5) 0.9412(9) 0.9395(3)
C13 C 0.4591(4) 0.5835(8) 0.9172(3)
H6 H 0.4736 0.6001 0.8936
C14 C 0.3476(5) 0.8033(10) 0.9037(3)
O3 O 0.1464(3) 0.1460(6) 0.51964(16)
O4 O 0.1993(3) 0.8014(7) 0.7124(2)
O5 O 0.5382(4) 0.1993(7) 0.2679(2)
O6 O 0.2835(3) 0.5364(6) 0.78666(19)
O9 O 0.3764(3) 0.4993(6) 0.73201(19)
H7 H 0.3478 0.5119 0.7164
H8 H 0.3945 0.4371 0.7317
O10 O 0.0823(3) 0.0552(6) 0.46846(18)
O11 O 0.3613(4) 0.5803(7) 0.8227(2)
O12 O 0.1857(4) 0.9339(8) 0.6714(2)
O13 O 0.1746(4) 0.7262(8) 0.7838(2)
H9 H 0.1415 0.6955 0.7832
H10 H 0.1829 0.7814 0.7981
O14 O 0.2649(3) 0.5404(7) 0.70071(18)
N4 N 0.0947(3) 0.0109(7) 0.5671(2)
O15 O 0.3708(3) 0.6246(5) 0.51358(16)
O16 O 0.4017(3) 0.5001(6) 0.46288(17)
N5 N 0.4283(3) 0.4971(7) 0.5631(2)
C15 C 0.1647(4) 0.1577(8) 0.5842(2)
N6 N 0.4620(3) 0.3727(7) 0.5147(2)
C16 C 0.1709(4) 0.1967(8) 0.5486(2)
C17 C 0.2062(4) 0.2929(8) 0.5436(2)
C18 C 0.1885(4) 0.2187(9) 0.6158(3)
H11 H 0.1848 0.1916 0.6392
C19 C 0.2174(4) 0.3194(8) 0.6104(3)
O17 O 0.1830(3) 0.5070(7) 0.7226(2)
C20 C 0.4796(4) 0.3242(8) 0.5513(2)
H12 H 0.5189 0.2937 0.5520
O18 O 0.1510(3) 0.9554(6) 0.77627(18)
C21 C 0.4814(4) 0.3242(9) 0.4862(2)
H13 H 0.5070 0.2644 0.4906
C22 C 0.2071(5) 0.8386(9) 0.6806(3)
C23 C 0.4094(5) 0.4574(9) 0.4012(3)
C24 C 0.4253(4) 0.4377(10) 0.4384(3)
O21 O 0.0630(4) 0.8286(15) 0.7133(2)
H14 H 0.0745 0.7608 0.7117
H15 H 0.0272 0.8427 0.7137
C25 C 0.4667(5) 0.3547(9) 0.4493(3)
N7 N 0.0570(3) 0.1839(8) 0.9258(2)
O23 O 0.1262(3) 0.3080(6) 0.97121(19)
C27 C 0.0853(5) 0.2291(10) 0.9014(3)
H18 H 0.0733 0.2113 0.8773
C28 C 0.0051(4) 0.1162(10) 0.9148(3)
H19 H 0.0079 0.0856 0.8902
C33 C 0.1488(4) 0.3473(9) 0.9422(3)
C34 C 0.0106(6) 0.0165(14) 0.9438(5)
N8 N 0.0329(4) 0.0639(8) 0.9781(3)
C36 C 0.3555(4) 0.6306(9) 0.5767(2)
C37 C 0.4375(4) 0.2315(8) 0.5591(2)
C38 C 0.4782(4) 0.4252(9) 0.5779(3)
H24 H 0.4704 0.3968 0.6021
C39 C 0.2780(5) 0.8006(9) 0.5609(3)
H25 H 0.2512 0.8582 0.5560
C40 C 0.1899(4) 0.4351(9) 0.9454(3)
C41 C 0.2267(4) 0.3506(8) 0.5749(3)
H26 H 0.2484 0.4153 0.5719
C42 C 0.2854(5) 0.7598(9) 0.5970(3)
C43 C 0.2174(5) 0.4668(9) 0.9147(3)
H27 H 0.2459 0.5221 0.9172
C44 C 0.3457(4) 0.6672(9) 0.5404(3)
C45 C 0.3244(4) 0.6758(9) 0.6041(3)
H28 H 0.3306 0.6475 0.6278
C46 C 0.2503(5) 0.8119(9) 0.6230(3)
H29 H 0.2288 0.8745 0.6148
C47 C 0.2338(5) 0.9416(9) 0.8395(3)
H30 H 0.2421 0.9019 0.8188
C49 C 0.4940(4) 0.2947(9) 0.4225(3)
H32 H 0.5220 0.2412 0.4299
C50 C 0.5540(4) 0.6847(9) 0.9394(2)
C51 C 0.2320(5) 0.3967(11) 0.6406(3)
H33 H 0.2623 0.4469 0.6385
C53 C 0.2065(5) 0.4945(10) 0.9822(3)
C56 C 0.2839(4) 0.5084(9) 0.8501(3)
H36 H 0.3025 0.5276 0.8727
C58 C 0.3628(5) 0.5397(12) 0.3888(3)
C59 C 0.5354(4) 0.4882(10) 0.5815(3)
C62 C 0.2046(5) 0.4004(11) 0.6714(3)
H40 H 0.1755 0.3483 0.6743
C65 C 0.2347(5) 0.4522(10) 0.8493(3)
H45 H 0.2180 0.4321 0.8262
C67 C 0.1168(6) 0.0685(11) 0.3944(3)
C69 C 0.1607(4) 0.3400(9) 0.8755(3)
H46 H 0.1497 0.3109 0.8524
C72 C 0.5117(5) 0.2482(10) 0.3600(3)
H50 H 0.5379 0.1952 0.3702
C73 C 0.3099(5) 0.5413(9) 0.8178(3)
C75 C 0.4572(7) 0.1229(9) 0.5631(6)
H54 H 0.4963 0.1084 0.5617
C77 C 0.2035(4) 0.4176(11) 0.8801(3)
C79 C 0.2454(5) 0.7791(9) 0.6583(3)
H57 H 0.2668 0.7181 0.6680
C80 C 0.2188(5) 0.4832(9) 0.7005(3)
C82 C 0.2654(5) 0.9700(10) 0.9064(3)
O26 O 0.5671(4) 0.0999(8) 0.3174(2)
C84 C 0.5073(5) 0.2556(9) 0.3247(3)
H63 H 0.4838 0.3112 0.3133
C88 C 0.5380(5) 0.1790(10) 0.3023(3)
C89 C 0.5680(5) 0.7696(9) 0.9646(3)
H66 H 0.5514 0.7732 0.9867
C92 C 0.2674(5) 0.7325(10) 0.4681(3)
H68 H 0.2312 0.7096 0.4763
H69 H 0.2913 0.6674 0.4656
H70 H 0.2607 0.7696 0.4449
C93 C 0.5797(5) 0.6800(11) 0.9066(3)
H71 H 0.5702 0.6218 0.8901
C95 C 0.3554(6) 0.8498(10) 0.4809(4)
H75 H 0.3756 0.9020 0.4976
H76 H 0.3472 0.8852 0.4575
H77 H 0.3790 0.7843 0.4784
C96 C 0.2481(5) 0.2435(9) 0.4861(3)
H78 H 0.2839 0.2246 0.4999
H79 H 0.2557 0.2699 0.4623
H80 H 0.2238 0.1779 0.4837
C98 C 0.3798(6) 0.6597(11) 0.4007(4)
H81 H 0.4146 0.6809 0.3902
H82 H 0.3862 0.6627 0.4269
H83 H 0.3493 0.7108 0.3925
C102 C 0.3044(6) 0.4965(15) 0.4029(4)
H89 H 0.3090 0.4901 0.4290
H90 H 0.2948 0.4240 0.3924
H91 H 0.2740 0.5491 0.3958
C103 C 0.6078(5) 0.8488(10) 0.9553(4)
H92 H 0.6179 0.9067 0.9718
C104 C 0.1010(7) 0.1931(13) 0.4014(4)
H93 H 0.1312 0.2414 0.3942
H94 H 0.0969 0.2036 0.4270
H95 H 0.0653 0.2115 0.3875
C105 C 0.2568(5) 0.4373(10) 0.5091(3)
H96 H 0.2934 0.4167 0.5217
H97 H 0.2393 0.4954 0.5226
H98 H 0.2627 0.4647 0.4852
C106 C 0.1604(5) 0.3718(11) 0.4854(3)
H99 H 0.1672 0.3989 0.4616
H100 H 0.1434 0.4308 0.4988
H101 H 0.1346 0.3085 0.4831
C107 C 0.2980(5) 0.8142(9) 0.4961(3)
C108 C 0.5668(6) 0.4954(13) 0.6151(4)
H102 H 0.5539 0.4582 0.6351
C110 C 0.1529(6) 0.5380(11) 0.9968(4)
H104 H 0.1346 0.5917 0.9800
H106 H 0.1269 0.4764 0.9998
C112 C 0.2178(5) 0.3357(8) 0.5059(2)
C115 C 0.4312(4) 0.4708(9) 0.9150(2)
C116 C 0.4804(5) 0.3134(10) 0.3859(3)
C117 C 0.4381(5) 0.3938(9) 0.3763(3)
H108 H 0.4281 0.4061 0.3516
H111 H 0.2214 0.8887 0.9897
C121 C 0.3922(6) 0.4374(10) 0.9386(3)
H113 H 0.3815 0.4872 0.9564
C122 C 0.4439(6) 0.3979(10) 0.8873(3)
H116 H 0.4692 0.4196 0.8704
C123 C 0.2612(7) 0.9233(12) 0.4959(4)
H117 H 0.2245 0.9066 0.5046
H118 H 0.2553 0.9522 0.4714
H119 H 0.2810 0.9786 0.5114
C125 C 0.3647(7) 0.0509(11) 0.5772(6)
C127 C 0.1718(6) 0.0361(14) 0.4147(4)
H124 H 0.1688 0.0449 0.4405
H125 H 0.2022 0.0835 0.4075
C128 C 0.5542(5) 0.5471(11) 0.5525(4)
H126 H 0.5314 0.5473 0.5303
C131 C 0.6333(7) 0.8458(12) 0.9229(4)
H129 H 0.6599 0.9008 0.9178
C132 C 0.3802(4) 0.2462(11) 0.5641(4)
H130 H 0.3646 0.3183 0.5618
C133 C 0.3502(7) 0.5448(17) 0.3466(4)
H131 H 0.3836 0.5731 0.3360
H132 H 0.3179 0.5939 0.3404
H133 H 0.3412 0.4705 0.3374
C134 C 0.4182(7) 0.2920(13) 0.8852(4)
H134 H 0.4259 0.2441 0.8662
C136 C 0.3450(6) 0.1590(10) 0.5722(4)
H138 H 0.3062 0.1739 0.5744
C138 C 0.1320(5) 0.3020(9) 0.9071(3)
C141 C 0.3819(6) 0.2556(11) 0.9103(4)
H140 H 0.3668 0.1828 0.9095
C145 C 0.3688(6) 0.3310(10) 0.9363(4)
H146 H 0.3432 0.3096 0.9531
C149 C 0.1253(7) 0.0528(15) 0.3556(4)
H151 H 0.1558 0.1014 0.3491
H152 H 0.0903 0.0710 0.3409
C150 C 0.6191(5) 0.7613(11) 0.8982(4)
H153 H 0.6358 0.7587 0.8762
C151 C 0.4207(6) 0.0343(13) 0.5692(6)
C153 C 0.6177(6) 0.5574(15) 0.6194(5)
H156 H 0.6390 0.5635 0.6420
C154 C 0.1298(4) 0.0624(8) 0.5916(3)
H157 H 0.1323 0.0351 0.6154
C155 C 0.3986(4) 0.5495(8) 0.5870(3)
H158 H 0.4063 0.5324 0.6117
C158 C 0.6062(5) 0.6064(13) 0.5552(4)
H161 H 0.6202 0.6417 0.5352
C159 C 0.6351(7) 0.6093(17) 0.5889(4)
H162 H 0.6695 0.6497 0.5916
C168 C 0.3064(4) 0.7632(8) 0.5329(3)
O31 O 0.4832(5) 0.5081(13) 0.7902(4)
H175 H 0.5175 0.5334 0.7916
H176 H 0.4771 0.4389 0.7945
C170 C 0.2451(6) 0.5950(11) 0.9791(4)
H177 H 0.2262 0.6489 0.9626
H178 H 0.2807 0.5714 0.9701
Cl1 Cl 0.32826(15) 0.7883(3) 0.75643(10)
O32 O 0.4618(4) 0.6993(7) 0.7321(2)
O33 O 0.4534(4) 0.7708(8) 0.8109(2)
O30 O 0.9902(5) 0.062(3) 0.7921(3)
H114 H 0.9632 0.0805 0.8050
O34 O 0.9843(5) 0.3643(9) 0.7710(2)
H34_2 H 0.9885 0.9688 0.0057
O29 O 0.9552(5) 0.8194(9) 0.1833(2)
H84_2 H 0.9796 0.9118 0.1302
H139_2 H 0.9859 0.9401 0.0675
Cd9 Cd 0.94343(4) 0.71838(7) 0.22977(2)
H21_2 H 0.9824 0.8556 0.5536
C32_2 C 0.9958(4) 0.9013(9) 0.4892(3)
H22_2 H 0.9653 0.8538 0.4934
H23_2 H 0.9717 0.9876 0.9466
O25 O 0.9507(4) 0.6252(7) 0.27979(19)
C57_2 C 0.9935(5) 0.8462(9) 0.3905(3)
O28 O 0.9051(4) 0.6018(9) 0.3256(2)
C83_2 C 0.9419(5) 0.6567(11) 0.3106(3)
C85_2 C 0.9655(5) 0.7709(10) 0.3643(3)
H64_2 H 0.9354 0.7318 0.3736
C87_2 C 0.9818(5) 0.8459(10) 0.4258(3)
H65_2 H 0.9539 0.7959 0.4327
C100_2 C 0.9719(5) 0.7439(10) 0.3312(3)
H85_2 H 0.9987 0.7853 0.3194
H109_2 H 0.9488 0.9511 0.6132
H180_2 H 0.9887 0.8006 0.9274
Cd5 Cd 0.86517(3) 0.48379(6) 0.283354(18)
Cd1_2 Cd 0.75843(4) 0.16130(6) 0.253188(19)
Ni3_2 Ni 0.57815(5) 0.20828(12) 0.02446(3)
O1_2 O 0.6354(3) 0.3154(6) 0.03118(18)
C1_2 C 0.6616(4) 0.3529(10) 0.0617(3)
N1_2 N 0.5790(3) 0.1753(7) 0.0738(2)
C2_2 C 0.7290(5) 0.4192(9) 0.1281(3)
N2_2 N 0.5159(3) 0.1096(8) 0.0181(2)
C3_2 C 0.6131(4) 0.2172(9) 0.0996(2)
H1_2 H 0.6112 0.1867 0.1228
C4_2 C 0.4893(5) 0.0892(10) 0.0528(3)
H2_2 H 0.4691 0.0165 0.0515
C5_2 C 0.6867(5) 0.3359(9) 0.1286(3)
H3_2 H 0.6807 0.3008 0.1505
C6_2 C 0.7046(5) 0.4412(9) 0.0605(3)
C10_2 C 0.7148(5) 0.5015(9) 0.0255(3)
C13_2 C 0.5409(4) 0.0835(8) 0.0828(3)
H6_2 H 0.5264 0.1001 0.1064
C14_2 C 0.6524(5) 0.3033(10) 0.0963(3)
O4_2 O 0.8007(3) 0.3014(7) 0.2876(2)
O6_2 O 0.7165(3) 0.0364(6) 0.21334(19)
O8_2 O 0.7888(4) 0.6230(8) 0.2667(3)
H7_2 H 0.6522 0.0119 0.2836
O11_2 O 0.6387(4) 0.0803(7) 0.1773(2)
O12_2 O 0.8143(4) 0.4339(8) 0.3286(2)
O13_2 O 0.8254(4) 0.2262(8) 0.2162(2)
H9_2 H 0.8585 0.1955 0.2168
H10_2 H 0.8171 0.2814 0.2019
O14_2 O 0.7351(3) 0.0404(7) 0.29929(18)
O15_2 O 0.6292(3) 0.1246(5) 0.48642(16)
O16_2 O 0.5983(3) 0.0001(6) 0.53712(17)
O17_2 O 0.8170(3) 0.0070(7) 0.2774(2)
O18_2 O 0.8490(3) 0.4554(6) 0.22373(18)
C22_2 C 0.7929(5) 0.3386(9) 0.3194(3)
O20_2 O 0.8777(4) 0.6153(8) 0.1989(2)
O21_2 O 0.9370(4) 0.3286(15) 0.2867(2)
H14_2 H 0.9255 0.2608 0.2883
H15_2 H 0.9728 0.3427 0.2863
O22_2 O 0.8669(5) 0.8113(8) 0.2527(3)
H16_2 H 0.8626 0.8819 0.2494
H17_2 H 0.8431 0.7748 0.2644
C36_2 C 0.6445(4) 0.1306(9) 0.4233(2)
C39_2 C 0.7220(5) 0.3006(9) 0.4391(3)
H25_2 H 0.7488 0.3582 0.4440
C42_2 C 0.7146(5) 0.2598(9) 0.4030(3)
H27_2 H 0.7541 0.0221 0.0828
C44_2 C 0.6543(4) 0.1672(9) 0.4596(3)
C45_2 C 0.6756(4) 0.1758(9) 0.3959(3)
H28_2 H 0.6694 0.1475 0.3722
C46_2 C 0.7497(5) 0.3119(9) 0.3770(3)
H29_2 H 0.7712 0.3745 0.3852
C47_2 C 0.7662(5) 0.4416(9) 0.1605(3)
H30_2 H 0.7579 0.4019 0.1812
C50_2 C 0.4460(4) 0.1847(9) 0.0606(2)
C56_2 C 0.7161(4) 0.0084(9) 0.1499(3)
H36_2 H 0.6975 0.0276 0.1273
C58_2 C 0.6372(5) 0.0397(12) 0.6112(3)
C61_2 C 0.7578(5) 0.6006(10) 0.0318(3)
H37_2 H 0.7425 0.6551 0.0476
H38_2 H 0.7634 0.6354 0.0088
H39_2 H 0.7941 0.5728 0.0428
C64_2 C 0.8106(5) 0.5109(10) 0.1649(3)
H44_2 H 0.8180 0.5542 0.1448
C70_2 C 0.6614(5) 0.5476(10) 0.0056(3)
H47_2 H 0.6438 0.6006 0.0209
C73_2 C 0.6901(5) 0.0413(9) 0.1822(3)
C79_2 C 0.7546(5) 0.2791(9) 0.3417(3)
H57_2 H 0.7332 0.2181 0.3320
C82_2 C 0.7346(5) 0.4700(10) 0.0936(3)
H61_2 H 0.7611 0.5287 0.0932
C89_2 C 0.4320(5) 0.2696(9) 0.0354(3)
H66_2 H 0.4486 0.2732 0.0133
C92_2 C 0.7326(5) 0.2325(10) 0.5319(3)
H68_2 H 0.7688 0.2096 0.5237
H69_2 H 0.7087 0.1674 0.5344
H70_2 H 0.7393 0.2696 0.5551
C93_2 C 0.4203(5) 0.1800(11) 0.0934(3)
H71_2 H 0.4298 0.1218 0.1099
C95_2 C 0.6446(6) 0.3498(10) 0.5191(4)
H75_2 H 0.6244 0.4020 0.5024
H76_2 H 0.6528 0.3852 0.5425
H77_2 H 0.6210 0.2843 0.5216
C98_2 C 0.6202(6) 0.1597(11) 0.5993(4)
H81_2 H 0.5854 0.1809 0.6098
H82_2 H 0.6138 0.1627 0.5731
H83_2 H 0.6507 0.2108 0.6075
H91_2 H 0.7260 0.0491 0.6042
C103_2 C 0.3922(5) 0.3488(10) 0.0447(4)
H92_2 H 0.3821 0.4067 0.0282
C107_2 C 0.7020(5) 0.3142(9) 0.5039(3)
C110_2 C 0.8471(6) 0.0380(11) 0.0032(4)
H104_2 H 0.8654 0.0917 0.0200
H111_2 H 0.7786 0.3887 0.0103
C123_2 C 0.7388(7) 0.4233(12) 0.5041(4)
H117_2 H 0.7755 0.4066 0.4954
H118_2 H 0.7447 0.4522 0.5286
H119_2 H 0.7190 0.4786 0.4886
C128_2 C 0.4458(5) 0.0471(11) 0.4475(4)
H126_2 H 0.4686 0.0473 0.4697
C131_2 C 0.3667(7) 0.3458(12) 0.0771(4)
H129_2 H 0.3401 0.4008 0.0822
C133_2 C 0.6498(7) 0.0448(17) 0.6534(4)
H131_2 H 0.6164 0.0731 0.6640
H132_2 H 0.6821 0.0939 0.6596
C150_2 C 0.3809(5) 0.2613(11) 0.1018(4)
H153_2 H 0.3642 0.2587 0.1238
C153_2 C 0.3823(6) 0.0574(15) 0.3806(5)
H156_2 H 0.3610 0.0635 0.3580
C155_2 C 0.6014(4) 0.0495(8) 0.4130(3)
H158_2 H 0.5937 0.0324 0.3883
C158_2 C 0.3938(5) 0.1064(13) 0.4448(4)
H161_2 H 0.3798 0.1417 0.4648
C159_2 C 0.3649(7) 0.1093(17) 0.4111(4)
H162_2 H 0.3305 0.1497 0.4084
C162_2 C 0.8478(5) 0.5264(10) 0.1966(3)
N9_2 N 0.7050(6) 0.6455(11) 0.2321(4)
C163_2 C 0.7431(6) 0.5879(14) 0.2508(4)
H165_2 H 0.7359 0.5112 0.2529
C165_2 C 0.6565(8) 0.5875(17) 0.2131(7)
H167_2 H 0.6595 0.5082 0.2182
H168_2 H 0.6566 0.5997 0.1873
H169_2 H 0.6212 0.6161 0.2213
C166_2 C 0.7125(9) 0.7615(14) 0.2266(7)
H170_2 H 0.7477 0.7859 0.2400
H171_2 H 0.6805 0.8020 0.2350
H172_2 H 0.7144 0.7761 0.2010
C168_2 C 0.6936(4) 0.2632(8) 0.4671(3)
O31_2 O 0.5168(5) 0.0081(13) 0.2098(4)
H175_2 H 0.4825 0.0334 0.2084
C170_2 C 0.7549(6) 0.0950(11) 0.0209(4)
H177_2 H 0.7738 0.1489 0.0374
H178_2 H 0.7193 0.0714 0.0299
Cl1_2 Cl 0.67174(15) 0.2883(3) 0.24357(10)
Ni1_2 Ni 0.58410(5) 0.99780(11) 0.48633(3)
Ni2_2 Ni 0.91395(6) 0.54119(11) 0.48199(3)
Ni4_2 Ni 0.91997(6) 0.68655(12) 0.02515(4)
O3_2 O 0.8536(3) 0.6460(6) 0.48036(16)
O9_2 O 0.6236(3) 0.9993(6) 0.26799(19)
H8_2 H 0.6055 0.9371 0.2683
N3 N 0.9767(3) 0.4490(6) 0.48327(19)
O10_2 O 0.9177(3) 0.5552(6) 0.53154(18)
N4_2 N 0.9053(3) 0.5109(7) 0.4329(2)
N5_2 N 0.5717(3) 0.9971(7) 0.4369(2)
C15_2 C 0.8353(4) 0.6577(8) 0.4158(2)
N6_2 N 0.5380(3) 0.8727(7) 0.4853(2)
C16_2 C 0.8291(4) 0.6967(8) 0.4514(2)
C17_2 C 0.7938(4) 0.7929(8) 0.4564(2)
C18_2 C 0.8115(4) 0.7187(9) 0.3842(3)
H11_2 H 0.8152 0.6916 0.3608
C19_2 C 0.7826(4) 0.8194(8) 0.3896(3)
C20_2 C 0.5204(4) 0.8242(8) 0.4487(2)
H12_2 H 0.4811 0.7937 0.4480
C21_2 C 0.5186(4) 0.8242(9) 0.5138(2)
H13_2 H 0.4930 0.7644 0.5094
C23_2 C 0.5906(5) 0.9574(9) 0.5988(3)
C24_2 C 0.5747(4) 0.9377(10) 0.5616(3)
C25_2 C 0.5333(5) 0.8547(9) 0.5507(3)
N7_2 N 0.9430(3) 0.6839(8) 0.0742(2)
O23_2 O 0.8738(3) 0.8080(6) 0.02879(19)
C27_2 C 0.9147(5) 0.7291(10) 0.0986(3)
H18_2 H 0.9267 0.7113 0.1227
C28_2 C 0.9949(4) 0.6162(10) 0.0852(3)
H19_2 H 0.9921 0.5856 0.1098
C29 C 0.9417(5) 0.4227(8) 0.4198(2)
H20 H 0.9509 0.4419 0.3950
C30 C 0.9449(4) 0.4890(9) 0.5565(2)
C31 C 0.9983(4) 0.4291(8) 0.4462(2)
C33_2 C 0.8512(4) 0.8473(9) 0.0578(3)
C34_2 C 0.9894(6) 0.5165(14) 0.0562(5)
C35 C 0.9911(5) 0.4160(9) 0.5474(3)
N8_2 N 0.9671(4) 0.5639(8) 0.0219(3)
C37_2 C 0.5625(4) 0.7315(8) 0.4409(2)
C38_2 C 0.5218(4) 0.9252(9) 0.4221(3)
H24_2 H 0.5296 0.8968 0.3979
C40_2 C 0.8101(4) 0.9351(9) 0.0546(3)
C41_2 C 0.7733(4) 0.8506(8) 0.4251(3)
H26_2 H 0.7516 0.9153 0.4281
C43_2 C 0.7826(5) 0.9668(9) 0.0853(3)
C49_2 C 0.5060(4) 0.7947(9) 0.5775(3)
H32_2 H 0.4780 0.7412 0.5701
C51_2 C 0.7680(5) 0.8967(11) 0.3594(3)
H33_2 H 0.7377 0.9469 0.3615
C53_2 C 0.7935(5) 0.9945(10) 0.0178(3)
C59_2 C 0.4646(4) 0.9882(10) 0.4185(3)
C62_2 C 0.7954(5) 0.9004(11) 0.3286(3)
H40_2 H 0.8245 0.8483 0.3257
C65_2 C 0.7653(5) 0.9522(10) 0.1507(3)
H45_2 H 0.7820 0.9321 0.1738
C66 C 0.9549(6) 0.4250(14) 0.0670(5)
C67_2 C 0.8832(6) 0.5685(11) 0.6056(3)
C68 C 0.9319(5) 0.4899(9) 0.5940(3)
C69_2 C 0.8393(4) 0.8400(9) 0.1245(3)
H46_2 H 0.8503 0.8109 0.1476
C72_2 C 0.4883(5) 0.7482(10) 0.6400(3)
H50_2 H 0.4621 0.6952 0.6298
C75_2 C 0.5428(7) 0.6229(9) 0.4369(6)
H54_2 H 0.5037 0.6084 0.4383
C77_2 C 0.7965(4) 0.9176(11) 0.1199(3)
C78 C 0.9613(5) 0.4190(10) 0.6180(3)
H56 H 0.9511 0.4183 0.6419
C80_2 C 0.7812(5) 0.9832(9) 0.2995(3)
O26_2 O 0.4329(4) 0.5999(8) 0.6826(2)
C84_2 C 0.4927(5) 0.7556(9) 0.6753(3)
H63_2 H 0.5162 0.8112 0.6867
C88_2 C 0.4620(5) 0.6790(10) 0.6977(3)
C96_2 C 0.7519(5) 0.7435(9) 0.5139(3)
H78_2 H 0.7161 0.7246 0.5001
H79_2 H 0.7443 0.7699 0.5377
H80_2 H 0.7762 0.6779 0.5163
C102_2 C 0.6956(6) 0.9965(15) 0.5971(4)
H89_2 H 0.6910 0.9901 0.5710
H90_2 H 0.7052 0.9240 0.6076
C104_2 C 0.8990(7) 0.6931(13) 0.5986(4)
H93_2 H 0.8688 0.7414 0.6058
H94_2 H 0.9031 0.7036 0.5730
H95_2 H 0.9347 0.7115 0.6125
C105_2 C 0.7432(5) 0.9373(10) 0.4909(3)
H96_2 H 0.7066 0.9167 0.4783
H97_2 H 0.7607 0.9954 0.4774
H98_2 H 0.7373 0.9647 0.5148
C106_2 C 0.8396(5) 0.8718(11) 0.5146(3)
H99_2 H 0.8328 0.8989 0.5384
H100_2 H 0.8566 0.9308 0.5012
H101_2 H 0.8654 0.8085 0.5169
C108_2 C 0.4332(6) 0.9954(13) 0.3849(4)
H102_2 H 0.4461 0.9582 0.3649
H106_2 H 0.8731 0.9764 0.0002
C112_2 C 0.7822(5) 0.8357(8) 0.4941(2)
C115_2 C 0.5688(4) 0.9708(9) 0.0850(2)
C116_2 C 0.5196(5) 0.8134(10) 0.6141(3)
C117_2 C 0.5619(5) 0.8938(9) 0.6237(3)
H108_2 H 0.5719 0.9061 0.6484
C118 C 0.9142(4) 0.3078(8) 0.4191(3)
C121_2 C 0.6078(6) 0.9374(10) 0.0614(3)
H113_2 H 0.6185 0.9872 0.0436
C122_2 C 0.5561(6) 0.8979(10) 0.1127(3)
H116_2 H 0.5308 0.9196 0.1296
C124 C 0.9238(6) 0.2366(10) 0.3906(4)
H120 H 0.9449 0.2606 0.3717
C125_2 C 0.6353(7) 0.5509(11) 0.4228(6)
H121 H 0.6580 0.4932 0.4146
C126 C 0.8814(6) 0.2703(9) 0.4462(4)
H122 H 0.8738 0.3188 0.4651
C127_2 C 0.8282(6) 0.5361(14) 0.5853(4)
H123 H 0.8197 0.4588 0.5904
H124_2 H 0.8312 0.5449 0.5595
H125_2 H 0.7978 0.5835 0.5925
C130 C 0.9011(6) 0.1276(11) 0.3908(4)
H128 H 0.9067 0.0806 0.3712
C132_2 C 0.6198(4) 0.7462(11) 0.4359(4)
H130_2 H 0.6354 0.8183 0.4382
H133_2 H 0.6588 0.9705 0.6626
C134_2 C 0.5818(7) 0.7920(13) 0.1148(4)
H134_2 H 0.5741 0.7441 0.1338
C136_2 C 0.6550(6) 0.6590(10) 0.4278(4)
H138_2 H 0.6938 0.6739 0.4256
C138_2 C 0.8680(5) 0.8020(9) 0.0929(3)
C141_2 C 0.6181(6) 0.7556(11) 0.0897(4)
H140_2 H 0.6332 0.6828 0.0905
C143 C 0.8594(6) 0.1608(10) 0.4457(4)
H144 H 0.8367 0.1379 0.4640
C145_2 C 0.6312(6) 0.8310(10) 0.0637(4)
H146_2 H 0.6568 0.8096 0.0469
C147 C 0.8707(7) 0.0854(13) 0.4183(4)
H148 H 0.8586 0.0107 0.4185
C149_2 C 0.8747(7) 0.5528(15) 0.6444(4)
H150 H 0.8644 0.4757 0.6486
H151_2 H 0.8442 0.6014 0.6509
H152_2 H 0.9097 0.5710 0.6591
C151_2 C 0.5793(6) 0.5343(13) 0.4308(6)
H154 H 0.5655 0.4609 0.4323
C152 C 0.8961(6) 0.4223(15) 0.0643(5)
H155 H 0.8763 0.4838 0.0536
C154_2 C 0.8702(4) 0.5624(8) 0.4084(3)
H157_2 H 0.8677 0.5351 0.3846
C164 C 0.8830(7) 0.2384(16) 0.0928(6)
H166 H 0.8606 0.1797 0.1006
C167 C 0.8641(8) 0.3353(14) 0.0762(5)
H173 H 0.8242 0.3437 0.0725
C169 C 0.9420(7) 0.2453(18) 0.0955(7)
H174 H 0.9623 0.1938 0.1109
H176_2 H 0.5229 0.9389 0.2055
C171 C 0.9743(8) 0.3215(14) 0.0776(6)
H4_2 H 0.4615 0.9646 0.9286
O24_2 O 0.8947(3) 0.6875(8) 0.97621(19)
C26_2 C 0.9142(5) 0.6308(10) 0.9504(3)
C52_2 C 0.9826(5) 0.5232(10) 0.9919(3)
C54_2 C 0.4895(5) 0.9409(10) 0.8621(3)
H35_2 H 0.4629 0.8869 0.8681
C55_2 C 0.8353(6) 0.7179(12) 0.9043(3)
C60_2 C 0.8900(5) 0.6447(11) 0.9130(3)
C76_2 C 0.9149(5) 0.5894(11) 0.8854(3)
H55_2 H 0.8999 0.6026 0.8614
C81_2 C 0.7867(5) 0.6725(13) 0.9259(4)
H58_2 H 0.7789 0.5953 0.9194
H59_2 H 0.7524 0.7167 0.9203
H60_2 H 0.7984 0.6772 0.9516
O27_2 O 0.5004(5) 0.8640(9) 0.7687(2)
H62_2 H 0.4888 0.8113 0.7556
C86 C 0.9992(7) 0.3742(12) 0.8028(4)
C90_2 C 0.4837(7) 0.8475(14) 0.8040(3)
C91 C 0.9711(5) 0.4550(10) 0.8266(3)
H67_2 H 0.9425 0.5043 0.8169
C94_2 C 0.8137(7) 0.7170(15) 0.8647(3)
H72_2 H 0.8051 0.6409 0.8571
H73_2 H 0.8428 0.7474 0.8506
H74_2 H 0.7793 0.7620 0.8610
C99 C 0.9879(6) 0.4550(10) 0.8625(3)
C101_2 C 0.7627(5) 0.9094(10) 0.9904(3)
H86_2 H 0.7280 0.8826 0.9997
H87_2 H 0.7880 0.8468 0.9871
H88_2 H 0.7532 0.9461 0.9673
C109_2 C 0.5049(6) 0.9393(11) 0.8280(3)
H103_2 H 0.5286 0.9952 0.8198
C137 C 0.9844(5) 0.4923(12) 0.9278(3)
C139_2 C 0.9621(6) 0.5496(12) 0.9568(3)
C140_2 C 0.9620(5) 0.5136(11) 0.8914(3)
C142_2 C 0.8495(6) 0.8375(12) 0.9141(4)
H141_2 H 0.8639 0.8418 0.9393
H142_2 H 0.8153 0.8829 0.9099
H143_2 H 0.8784 0.8646 0.8992
O19 O 0.0157(5) 0.8643(9) 0.2290(2)
C86_2 C 0.0008(7) 0.8742(12) 0.1972(4)
C91_2 C 0.0289(5) 0.9550(10) 0.1734(3)
C99_2 C 0.0121(6) 0.9550(10) 0.1375(3)
C137_2 C 0.0156(5) 0.9923(12) 0.0722(3)
O30_2 O 0.0098(5) 0.562(3) 0.2079(3)
H114_2 H 0.0368 0.5805 0.1950
H115 H 0.0052 0.4926 0.2133
N3_2 N 0.0233(3) 0.9490(6) 0.51673(19)
C29_2 C 0.0583(5) 0.9227(8) 0.5802(2)
H20_2 H 0.0491 0.9419 0.6050
C30_2 C 0.0551(4) 0.9890(9) 0.4435(2)
C31_2 C 0.0017(4) 0.9291(8) 0.5538(2)
C35_2 C 0.0089(5) 0.9160(9) 0.4526(3)
C66_2 C 0.0451(6) 0.9250(14) 0.9330(5)
C68_2 C 0.0681(5) 0.9899(9) 0.4060(3)
C78_2 C 0.0387(5) 0.9190(10) 0.3820(3)
H56_2 H 0.0489 0.9183 0.3581
C118_2 C 0.0858(4) 0.8078(8) 0.5809(3)
C124_2 C 0.0762(6) 0.7366(10) 0.6094(4)
H120_2 H 0.0551 0.7606 0.6283
H121_2 H 0.3420 0.9932 0.5854
C126_2 C 0.1186(6) 0.7703(9) 0.5538(4)
H122_2 H 0.1262 0.8188 0.5349
H123_2 H 0.1803 0.9588 0.4096
C130_2 C 0.0989(6) 0.6276(11) 0.6092(4)
H128_2 H 0.0933 0.5806 0.6288
C143_2 C 0.1406(6) 0.6608(10) 0.5543(4)
H144_2 H 0.1633 0.6379 0.5360
C147_2 C 0.1293(7) 0.5854(13) 0.5817(4)
H148_2 H 0.1414 0.5107 0.5815
H150_2 H 0.1356 0.9757 0.3514
H154_2 H 0.4345 0.9609 0.5677
C152_2 C 0.1039(6) 0.9223(15) 0.9357(5)
H155_2 H 0.1237 0.9838 0.9464
C164_2 C 0.1170(7) 0.7384(16) 0.9072(6)
H166_2 H 0.1394 0.6797 0.8994
C167_2 C 0.1359(8) 0.8353(14) 0.9238(5)
H173_2 H 0.1758 0.8437 0.9275
C169_2 C 0.0580(7) 0.7453(18) 0.9045(7)
H174_2 H 0.0377 0.6938 0.8891
C171_2 C 0.0257(8) 0.8215(14) 0.9224(6)
C97_2 C 0.9513(6) 0.1859(11) 0.9149(4)
C113_2 C 0.9413(4) 0.1051(8) 0.5417(3)
H107_2 H 0.9557 0.1131 0.5191
C114_2 C 0.9604(4) 0.0175(8) 0.5642(2)
C119_2 C 0.9365(5) 0.0094(10) 0.5974(3)
H115_2 H 0.9948 0.9926 0.7867
C129_2 C 0.8956(6) 0.0831(12) 0.6080(4)
H127_2 H 0.8795 0.0723 0.6300
C144_2 C 0.9312(6) 0.2296(13) 0.9464(4)
H145_2 H 0.9517 0.2169 0.9690
C146_2 C 0.8804(7) 0.2925(16) 0.9442(6)
H147_2 H 0.8683 0.3265 0.9650
C148_2 C 0.9188(7) 0.2045(14) 0.8818(4)
H149_2 H 0.9325 0.1755 0.8607
C156_2 C 0.9005(5) 0.1819(11) 0.5523(4)
H159_2 H 0.8880 0.2400 0.5364
C157_2 C 0.8785(7) 0.1734(14) 0.5858(4)
H160_2 H 0.8528 0.2270 0.5932
C160_2 C 0.8476(10) 0.3043(19) 0.9106(5)
H163_2 H 0.8119 0.3400 0.9098
C161_2 C 0.8668(7) 0.2643(16) 0.8783(6)
H164_2 H 0.8462 0.2765 0.8557
O2_2 O 0.5829(3) 0.2259(6) 0.97453(17)
C7_2 C 0.5155(4) 0.0796(9) 0.9543(3)
C8_2 C 0.5605(4) 0.1603(9) 0.9488(2)
C9_2 C 0.4915(5) 0.0136(10) 0.9246(3)
C11_2 C 0.5545(5) 0.1003(10) 0.8856(3)
H5_2 H 0.5666 0.1084 0.8623
C12_2 C 0.5802(5) 0.1669(10) 0.9121(3)
C48_2 C 0.4950(4) 0.0644(9) 0.9880(3)
H31_2 H 0.4632 0.0173 0.9891
C63_2 C 0.6179(7) 0.3664(11) 0.9146(4)
H41_2 H 0.5847 0.3920 0.8994
H42_2 H 0.6504 0.4136 0.9109
H43_2 H 0.6100 0.3701 0.9398
H48_2 H 0.6349 0.4870 0.9993
H49_2 H 0.6709 0.5847 0.9837
C71_2 C 0.6312(5) 0.2472(10) 0.9049(3)
C74_2 C 0.6843(6) 0.2062(14) 0.9280(4)
H51_2 H 0.7165 0.2541 0.9241
H52_2 H 0.6929 0.1303 0.9211
H53_2 H 0.6773 0.2080 0.9533
H105_2 H 0.8373 0.0738 0.9800
C111_2 C 0.5100(5) 0.0177(10) 0.8902(3)
C120_2 C 0.7424(5) 0.4159(11) 0.9989(3)
H110_2 H 0.7166 0.3536 0.9937
H112_2 H 0.7488 0.4537 0.9765
C135_2 C 0.6438(8) 0.2460(15) 0.8663(4)
H135_2 H 0.6109 0.2736 0.8512
H136_2 H 0.6522 0.1702 0.8592
H137_2 H 0.6766 0.2933 0.8633
H179_2 H 0.7468 0.1291 0.9973
loop_
_geom_bond_atom_site_label_1
_geom_bond_atom_site_label_2
_geom_bond_site_symmetry_1
_geom_bond_site_symmetry_2
Cd4 O20 1_555 1_555
C10 C61 1_555 1_555
O20 C162 1_555 1_555
O22 Cd4 1_555 1_555
H16 O22 1_555 1_555
H17 O22 1_555 1_555
C61 H37 1_555 1_555
H38 C61 1_555 1_555
H39 C61 1_555 1_555
H44 C64 1_555 1_555
C70 C10 1_555 1_555
H47 C70 1_555 1_555
N9 C163 1_555 1_555
C163 O8 1_555 1_555
H165 C163 1_555 1_555
C165 N9 1_555 1_555
H167 C165 1_555 1_555
H168 C165 1_555 1_555
H169 C165 1_555 1_555
C166 N9 1_555 1_555
H170 C166 1_555 1_555
H171 C166 1_555 1_555
H172 C166 1_555 1_555
O37 Cd4 1_555 1_555
Cd4 O35 1_555 1_555
C64 C162 1_555 1_555
H22 C32 1_555 1_555
O35 C83 1_555 1_555
O36 C83 1_555 1_555
C83 C100 1_555 1_555
C85 C57 1_555 1_555
H64 C85 1_555 1_555
H65 C87 1_555 1_555
C100 C85 1_555 1_555
H85 C100 1_555 1_555
C113 H107 1_555 1_555
C119 C114 1_555 1_555
H109 C119 1_555 1_555
C129 C119 1_555 1_555
H127 C129 1_555 1_555
C144 C97 1_555 1_555
H145 C144 1_555 1_555
C146 C144 1_555 1_555
H147 C146 1_555 1_555
C148 C97 1_555 1_555
H149 C148 1_555 1_555
C156 C113 1_555 1_555
H159 C156 1_555 1_555
C157 C129 1_555 1_555
H160 C157 1_555 1_555
C160 C146 1_555 1_555
H163 C160 1_555 1_555
C161 C148 1_555 1_555
H164 C161 1_555 1_555
C57 C87 1_555 1_555
C113 C114 1_555 1_555
C156 C157 1_555 1_555
C160 C161 1_555 1_555
C7 C8 1_555 1_555
C8 O2 1_555 1_555
C9 C7 1_555 1_555
H4 C9 1_555 1_555
C11 H5 1_555 1_555
C12 C8 1_555 1_555
O7 C90 1_555 1_555
C26 O24 1_555 1_555
H31 C48 1_555 1_555
C54 H35 1_555 1_555
C55 C60 1_555 1_555
C60 C26 1_555 1_555
C63 H41 1_555 1_555
H42 C63 1_555 1_555
H43 C63 1_555 1_555
C71 C12 1_555 1_555
C74 C71 1_555 1_555
H51 C74 1_555 1_555
H52 C74 1_555 1_555
H53 C74 1_555 1_555
C76 C60 1_555 1_555
H55 C76 1_555 1_555
C81 C55 1_555 1_555
H58 C81 1_555 1_555
H59 C81 1_555 1_555
H60 C81 1_555 1_555
O27 H62 1_555 1_555
C90 O27 1_555 1_555
C94 C55 1_555 1_555
H72 C94 1_555 1_555
H73 C94 1_555 1_555
H74 C94 1_555 1_555
H86 C101 1_555 1_555
H87 C101 1_555 1_555
H88 C101 1_555 1_555
C109 C54 1_555 1_555
H103 C109 1_555 1_555
C111 C9 1_555 1_555
H110 C120 1_555 1_555
H112 C120 1_555 1_555
C135 C71 1_555 1_555
H135 C135 1_555 1_555
H136 C135 1_555 1_555
H137 C135 1_555 1_555
C139 C26 1_555 1_555
C140 C76 1_555 1_555
C142 C55 1_555 1_555
H141 C142 1_555 1_555
H142 C142 1_555 1_555
H143 C142 1_555 1_555
Cd7 O7 1_555 1_555
C7 C48 1_555 1_555
C11 C12 1_555 1_555
C11 C111 1_555 1_555
C52 C139 1_555 1_555
C54 C111 1_555 1_555
C63 C71 1_555 1_555
C90 C109 1_555 1_555
Cd1 O4 1_555 1_555
Cd2 O4 1_555 1_555
Cd3 O9 1_555 1_555
Ni1 O15 1_555 1_555
Ni2 O3 1_555 1_555
Ni3 O1 1_555 1_555
Ni4 N7 1_555 1_555
O1 C1 1_555 1_555
C1 C6 1_555 1_555
N1 Ni3 1_555 1_555
C2 C5 1_555 1_555
N2 Ni3 1_555 1_555
C3 N1 1_555 1_555
H1 C3 1_555 1_555
C4 N2 1_555 1_555
H2 C4 1_555 1_555
C5 H3 1_555 1_555
C13 N1 1_555 1_555
H6 C13 1_555 1_555
C14 C1 1_555 1_555
O3 C16 1_555 1_555
O4 C22 1_555 1_555
O5 C88 1_555 1_555
O6 Cd1 1_555 1_555
O9 H7 1_555 1_555
H8 O9 1_555 1_555
O10 Ni2 1_555 1_555
O11 Cd3 1_555 1_555
O12 Cd2 1_555 1_555
O13 Cd1 1_555 1_555
H9 O13 1_555 1_555
H10 O13 1_555 1_555
O14 Cd1 1_555 1_555
N4 Ni2 1_555 1_555
O15 C44 1_555 1_555
O16 Ni1 1_555 1_555
N5 Ni1 1_555 1_555
C15 C16 1_555 1_555
N6 Ni1 1_555 1_555
C16 C17 1_555 1_555
C17 C41 1_555 1_555
C18 C15 1_555 1_555
H11 C18 1_555 1_555
C19 C18 1_555 1_555
O17 Cd1 1_555 1_555
C20 N6 1_555 1_555
H12 C20 1_555 1_555
O18 Cd2 1_555 1_555
C21 N6 1_555 1_555
H13 C21 1_555 1_555
C22 O12 1_555 1_555
C23 C24 1_555 1_555
C24 O16 1_555 1_555
O21 Cd2 1_555 1_555
H14 O21 1_555 1_555
H15 O21 1_555 1_555
C25 C21 1_555 1_555
N7 C27 1_555 1_555
O23 Ni4 1_555 1_555
C27 H18 1_555 1_555
C28 N7 1_555 1_555
H19 C28 1_555 1_555
C33 O23 1_555 1_555
C34 C28 1_555 1_555
N8 Ni4 1_555 1_555
C36 C44 1_555 1_555
C37 C20 1_555 1_555
C38 N5 1_555 1_555
H24 C38 1_555 1_555
C39 H25 1_555 1_555
C40 C33 1_555 1_555
C41 C19 1_555 1_555
H26 C41 1_555 1_555
C42 C39 1_555 1_555
C43 C40 1_555 1_555
H27 C43 1_555 1_555
C44 C168 1_555 1_555
C45 C36 1_555 1_555
H28 C45 1_555 1_555
C46 C42 1_555 1_555
H29 C46 1_555 1_555
C47 C2 1_555 1_555
H30 C47 1_555 1_555
C49 C25 1_555 1_555
H32 C49 1_555 1_555
C50 C4 1_555 1_555
C51 C19 1_555 1_555
H33 C51 1_555 1_555
C53 C40 1_555 1_555
C56 H36 1_555 1_555
C58 C23 1_555 1_555
C59 C38 1_555 1_555
C62 C51 1_555 1_555
H40 C62 1_555 1_555
C65 C56 1_555 1_555
H45 C65 1_555 1_555
C69 H46 1_555 1_555
C72 H50 1_555 1_555
C73 O6 1_555 1_555
C75 C37 1_555 1_555
H54 C75 1_555 1_555
C77 C43 1_555 1_555
C79 C22 1_555 1_555
H57 C79 1_555 1_555
C80 O14 1_555 1_555
C82 C2 1_555 1_555
O26 C88 1_555 1_555
C84 C72 1_555 1_555
H63 C84 1_555 1_555
C88 C84 1_555 1_555
C89 C50 1_555 1_555
H66 C89 1_555 1_555
C92 H68 1_555 1_555
H69 C92 1_555 1_555
H70 C92 1_555 1_555
C93 C50 1_555 1_555
H71 C93 1_555 1_555
C95 H75 1_555 1_555
H76 C95 1_555 1_555
H77 C95 1_555 1_555
C96 H78 1_555 1_555
H79 C96 1_555 1_555
H80 C96 1_555 1_555
C98 C58 1_555 1_555
H81 C98 1_555 1_555
H82 C98 1_555 1_555
H83 C98 1_555 1_555
C102 C58 1_555 1_555
H89 C102 1_555 1_555
H90 C102 1_555 1_555
H91 C102 1_555 1_555
C103 C89 1_555 1_555
H92 C103 1_555 1_555
C104 C67 1_555 1_555
H93 C104 1_555 1_555
H94 C104 1_555 1_555
H95 C104 1_555 1_555
C105 H96 1_555 1_555
H97 C105 1_555 1_555
H98 C105 1_555 1_555
C106 H99 1_555 1_555
H100 C106 1_555 1_555
H101 C106 1_555 1_555
C107 C92 1_555 1_555
C108 C59 1_555 1_555
H102 C108 1_555 1_555
C110 C53 1_555 1_555
H104 C110 1_555 1_555
H106 C110 1_555 1_555
C112 C17 1_555 1_555
C115 C13 1_555 1_555
C116 C49 1_555 1_555
C117 C23 1_555 1_555
H108 C117 1_555 1_555
C121 C115 1_555 1_555
H113 C121 1_555 1_555
C122 C115 1_555 1_555
H116 C122 1_555 1_555
C123 C107 1_555 1_555
H117 C123 1_555 1_555
H118 C123 1_555 1_555
H119 C123 1_555 1_555
C127 C67 1_555 1_555
H124 C127 1_555 1_555
H125 C127 1_555 1_555
C128 C59 1_555 1_555
H126 C128 1_555 1_555
C131 C103 1_555 1_555
H129 C131 1_555 1_555
C132 C37 1_555 1_555
H130 C132 1_555 1_555
C133 C58 1_555 1_555
H131 C133 1_555 1_555
H132 C133 1_555 1_555
H133 C133 1_555 1_555
C134 C122 1_555 1_555
H134 C134 1_555 1_555
C136 C125 1_555 1_555
H138 C136 1_555 1_555
C138 C27 1_555 1_555
C141 C134 1_555 1_555
H140 C141 1_555 1_555
C145 C121 1_555 1_555
H146 C145 1_555 1_555
C149 C67 1_555 1_555
H151 C149 1_555 1_555
H152 C149 1_555 1_555
C150 C93 1_555 1_555
H153 C150 1_555 1_555
C151 C75 1_555 1_555
C153 C108 1_555 1_555
H156 C153 1_555 1_555
C154 N4 1_555 1_555
H157 C154 1_555 1_555
C155 N5 1_555 1_555
H158 C155 1_555 1_555
C158 C128 1_555 1_555
H161 C158 1_555 1_555
C159 C153 1_555 1_555
H162 C159 1_555 1_555
C168 C39 1_555 1_555
O31 Cd3 1_555 1_555
H175 O31 1_555 1_555
H176 O31 1_555 1_555
C170 C53 1_555 1_555
H177 C170 1_555 1_555
H178 C170 1_555 1_555
Cl1 Cd1 1_555 1_555
Cd7 O5 1_555 1_555
O32 Cd3 1_555 1_555
O33 Cd3 1_555 1_555
Cd3 Cl1 1_555 1_555
C3 C14 1_555 1_555
C4 C13 1_555 1_555
C5 C14 1_555 1_555
C6 C82 1_555 1_555
O11 C73 1_555 1_555
C15 C154 1_555 1_555
O17 C80 1_555 1_555
C20 C38 1_555 1_555
C24 C25 1_555 1_555
C33 C138 1_555 1_555
C34 N8 1_555 1_555
C36 C155 1_555 1_555
C42 C45 1_555 1_555
C46 C79 1_555 1_555
C56 C73 1_555 1_555
C62 C80 1_555 1_555
C65 C77 1_555 1_555
C69 C77 1_555 1_555
C69 C138 1_555 1_555
C72 C116 1_555 1_555
C95 C107 1_555 1_555
C96 C112 1_555 1_555
C105 C112 1_555 1_555
C106 C112 1_555 1_555
C107 C168 1_555 1_555
C116 C117 1_555 1_555
C125 C151 1_555 1_555
C131 C150 1_555 1_555
C132 C136 1_555 1_555
C141 C145 1_555 1_555
C158 C159 1_555 1_555
H114 O30 1_555 1_555
O29 Cd9 1_555 1_555
H22_2 C32_2 1_555 1_555
O25 C83_2 1_555 1_555
O28 C83_2 1_555 1_555
C83_2 C100_2 1_555 1_555
C85_2 C57_2 1_555 1_555
H64_2 C85_2 1_555 1_555
H65_2 C87_2 1_555 1_555
C100_2 C85_2 1_555 1_555
H85_2 C100_2 1_555 1_555
Cd5 O25 1_555 1_555
Cd9 O25 1_555 1_555
C57_2 C87_2 1_555 1_555
O28 Cd5 1_555 1_555
Cd1_2 O4_2 1_555 1_555
Cd5 O4_2 1_555 1_555
Cd9 O20_2 1_555 1_555
Ni3_2 O1_2 1_555 1_555
O1_2 C1_2 1_555 1_555
C1_2 C6_2 1_555 1_555
N1_2 Ni3_2 1_555 1_555
C2_2 C5_2 1_555 1_555
N2_2 Ni3_2 1_555 1_555
C3_2 N1_2 1_555 1_555
H1_2 C3_2 1_555 1_555
C4_2 N2_2 1_555 1_555
H2_2 C4_2 1_555 1_555
C5_2 H3_2 1_555 1_555
C6_2 C10_2 1_555 1_555
C10_2 C61_2 1_555 1_555
C13_2 N1_2 1_555 1_555
H6_2 C13_2 1_555 1_555
C14_2 C1_2 1_555 1_555
O4_2 C22_2 1_555 1_555
O6_2 Cd1_2 1_555 1_555
O8_2 Cd5 1_555 1_555
O11_2 Cd7 1_555 1_555
O12_2 Cd5 1_555 1_555
O13_2 Cd1_2 1_555 1_555
H9_2 O13_2 1_555 1_555
H10_2 O13_2 1_555 1_555
O14_2 Cd1_2 1_555 1_555
O15_2 C44_2 1_555 1_555
O17_2 Cd1_2 1_555 1_555
O18_2 Cd5 1_555 1_555
C22_2 O12_2 1_555 1_555
O20_2 C162_2 1_555 1_555
O21_2 Cd5 1_555 1_555
H14_2 O21_2 1_555 1_555
H15_2 O21_2 1_555 1_555
O22_2 Cd9 1_555 1_555
H16_2 O22_2 1_555 1_555
H17_2 O22_2 1_555 1_555
C36_2 C44_2 1_555 1_555
C39_2 H25_2 1_555 1_555
C42_2 C39_2 1_555 1_555
C44_2 C168_2 1_555 1_555
C45_2 C36_2 1_555 1_555
H28_2 C45_2 1_555 1_555
C46_2 C42_2 1_555 1_555
H29_2 C46_2 1_555 1_555
C47_2 C2_2 1_555 1_555
H30_2 C47_2 1_555 1_555
C50_2 C4_2 1_555 1_555
C56_2 H36_2 1_555 1_555
C61_2 H37_2 1_555 1_555
H38_2 C61_2 1_555 1_555
H39_2 C61_2 1_555 1_555
C64_2 C47_2 1_555 1_555
H44_2 C64_2 1_555 1_555
C70_2 C10_2 1_555 1_555
H47_2 C70_2 1_555 1_555
C73_2 O6_2 1_555 1_555
C79_2 C22_2 1_555 1_555
H57_2 C79_2 1_555 1_555
C82_2 C2_2 1_555 1_555
H61_2 C82_2 1_555 1_555
C89_2 C50_2 1_555 1_555
H66_2 C89_2 1_555 1_555
C92_2 H68_2 1_555 1_555
H69_2 C92_2 1_555 1_555
H70_2 C92_2 1_555 1_555
C93_2 C50_2 1_555 1_555
H71_2 C93_2 1_555 1_555
C95_2 H75_2 1_555 1_555
H76_2 C95_2 1_555 1_555
H77_2 C95_2 1_555 1_555
C98_2 C58_2 1_555 1_555
H81_2 C98_2 1_555 1_555
H82_2 C98_2 1_555 1_555
H83_2 C98_2 1_555 1_555
C103_2 C89_2 1_555 1_555
H92_2 C103_2 1_555 1_555
C107_2 C92_2 1_555 1_555
H104_2 C110_2 1_555 1_555
C123_2 C107_2 1_555 1_555
H117_2 C123_2 1_555 1_555
H118_2 C123_2 1_555 1_555
H119_2 C123_2 1_555 1_555
H126_2 C128_2 1_555 1_555
C131_2 C103_2 1_555 1_555
H129_2 C131_2 1_555 1_555
C133_2 C58_2 1_555 1_555
H131_2 C133_2 1_555 1_555
H132_2 C133_2 1_555 1_555
C150_2 C93_2 1_555 1_555
H153_2 C150_2 1_555 1_555
H156_2 C153_2 1_555 1_555
H158_2 C155_2 1_555 1_555
C158_2 C128_2 1_555 1_555
H161_2 C158_2 1_555 1_555
C159_2 C153_2 1_555 1_555
H162_2 C159_2 1_555 1_555
C162_2 O18_2 1_555 1_555
N9_2 C163_2 1_555 1_555
C163_2 O8_2 1_555 1_555
H165_2 C163_2 1_555 1_555
C165_2 N9_2 1_555 1_555
H167_2 C165_2 1_555 1_555
H168_2 C165_2 1_555 1_555
H169_2 C165_2 1_555 1_555
C166_2 N9_2 1_555 1_555
H170_2 C166_2 1_555 1_555
H171_2 C166_2 1_555 1_555
H172_2 C166_2 1_555 1_555
C168_2 C39_2 1_555 1_555
O31_2 Cd7 1_555 1_555
H175_2 O31_2 1_555 1_555
H177_2 C170_2 1_555 1_555
H178_2 C170_2 1_555 1_555
Cl1_2 Cd1_2 1_555 1_555
Cd7 Cl1_2 1_555 1_555
C3_2 C14_2 1_555 1_555
C4_2 C13_2 1_555 1_555
C5_2 C14_2 1_555 1_555
C6_2 C82_2 1_555 1_555
O11_2 C73_2 1_555 1_555
C36_2 C155_2 1_555 1_555
C42_2 C45_2 1_555 1_555
C46_2 C79_2 1_555 1_555
C56_2 C73_2 1_555 1_555
C64_2 C162_2 1_555 1_555
C95_2 C107_2 1_555 1_555
C107_2 C168_2 1_555 1_555
C131_2 C150_2 1_555 1_555
C158_2 C159_2 1_555 1_555
Ni2_2 O3_2 1_555 1_555
Ni4_2 N7_2 1_555 1_555
O3_2 C16_2 1_555 1_555
O32 C88_2 1_555 1_555
H8_2 O9_2 1_555 1_555
N3 Ni2_2 1_555 1_555
O10_2 Ni2_2 1_555 1_555
N4_2 Ni2_2 1_555 1_555
N5_2 Ni1_2 1_555 1_555
C15_2 C16_2 1_555 1_555
N6_2 Ni1_2 1_555 1_555
C16_2 C17_2 1_555 1_555
C17_2 C41_2 1_555 1_555
C18_2 C15_2 1_555 1_555
H11_2 C18_2 1_555 1_555
C19_2 C18_2 1_555 1_555
C20_2 N6_2 1_555 1_555
H12_2 C20_2 1_555 1_555
C21_2 N6_2 1_555 1_555
H13_2 C21_2 1_555 1_555
C23_2 C24_2 1_555 1_555
C25_2 C21_2 1_555 1_555
N7_2 C27_2 1_555 1_555
O23_2 Ni4_2 1_555 1_555
C27_2 H18_2 1_555 1_555
C28_2 N7_2 1_555 1_555
H19_2 C28_2 1_555 1_555
C29 N4_2 1_555 1_555
H20 C29 1_555 1_555
C30 O10_2 1_555 1_555
C31 N3 1_555 1_555
C33_2 O23_2 1_555 1_555
C34_2 C28_2 1_555 1_555
C35 C30 1_555 1_555
N8_2 Ni4_2 1_555 1_555
C37_2 C20_2 1_555 1_555
C38_2 N5_2 1_555 1_555
H24_2 C38_2 1_555 1_555
C40_2 C33_2 1_555 1_555
C41_2 C19_2 1_555 1_555
H26_2 C41_2 1_555 1_555
C43_2 C40_2 1_555 1_555
C49_2 C25_2 1_555 1_555
H32_2 C49_2 1_555 1_555
C51_2 C19_2 1_555 1_555
H33_2 C51_2 1_555 1_555
C53_2 C40_2 1_555 1_555
C59_2 C38_2 1_555 1_555
C62_2 C51_2 1_555 1_555
H40_2 C62_2 1_555 1_555
H45_2 C65_2 1_555 1_555
C66 C34_2 1_555 1_555
C67_2 C68 1_555 1_555
C68 C30 1_555 1_555
C69_2 H46_2 1_555 1_555
C72_2 H50_2 1_555 1_555
C75_2 C37_2 1_555 1_555
H54_2 C75_2 1_555 1_555
C77_2 C43_2 1_555 1_555
C78 C68 1_555 1_555
H56 C78 1_555 1_555
O26_2 C88_2 1_555 1_555
C84_2 C72_2 1_555 1_555
H63_2 C84_2 1_555 1_555
C88_2 C84_2 1_555 1_555
C96_2 H78_2 1_555 1_555
H79_2 C96_2 1_555 1_555
H80_2 C96_2 1_555 1_555
H89_2 C102_2 1_555 1_555
H90_2 C102_2 1_555 1_555
C104_2 C67_2 1_555 1_555
H93_2 C104_2 1_555 1_555
H94_2 C104_2 1_555 1_555
H95_2 C104_2 1_555 1_555
C105_2 H96_2 1_555 1_555
H97_2 C105_2 1_555 1_555
H98_2 C105_2 1_555 1_555
C106_2 H99_2 1_555 1_555
H100_2 C106_2 1_555 1_555
H101_2 C106_2 1_555 1_555
C108_2 C59_2 1_555 1_555
H102_2 C108_2 1_555 1_555
C112_2 C17_2 1_555 1_555
C116_2 C49_2 1_555 1_555
C117_2 C23_2 1_555 1_555
H108_2 C117_2 1_555 1_555
C118 C29 1_555 1_555
C121_2 C115_2 1_555 1_555
H113_2 C121_2 1_555 1_555
C122_2 C115_2 1_555 1_555
H116_2 C122_2 1_555 1_555
C124 C118 1_555 1_555
H120 C124 1_555 1_555
C125_2 H121 1_555 1_555
C126 C118 1_555 1_555
H122 C126 1_555 1_555
C127_2 C67_2 1_555 1_555
H123 C127_2 1_555 1_555
H124_2 C127_2 1_555 1_555
H125_2 C127_2 1_555 1_555
C130 C124 1_555 1_555
H128 C130 1_555 1_555
C132_2 C37_2 1_555 1_555
H130_2 C132_2 1_555 1_555
C134_2 C122_2 1_555 1_555
H134_2 C134_2 1_555 1_555
C136_2 C125_2 1_555 1_555
H138_2 C136_2 1_555 1_555
C138_2 C27_2 1_555 1_555
C141_2 C134_2 1_555 1_555
H140_2 C141_2 1_555 1_555
C143 C126 1_555 1_555
H144 C143 1_555 1_555
C145_2 C121_2 1_555 1_555
H146_2 C145_2 1_555 1_555
C147 C130 1_555 1_555
H148 C147 1_555 1_555
C149_2 C67_2 1_555 1_555
H150 C149_2 1_555 1_555
H151_2 C149_2 1_555 1_555
H152_2 C149_2 1_555 1_555
C151_2 C75_2 1_555 1_555
H154 C151_2 1_555 1_555
C152 C66 1_555 1_555
H155 C152 1_555 1_555
C154_2 N4_2 1_555 1_555
H157_2 C154_2 1_555 1_555
C164 H166 1_555 1_555
C167 C152 1_555 1_555
H173 C167 1_555 1_555
C169 C164 1_555 1_555
H174 C169 1_555 1_555
C171 C66 1_555 1_555
C15_2 C154_2 1_555 1_555
C20_2 C38_2 1_555 1_555
C24_2 C25_2 1_555 1_555
C29 C31 1_555 1_555
C33_2 C138_2 1_555 1_555
C34_2 N8_2 1_555 1_555
C62_2 C80_2 1_555 1_555
C65_2 C77_2 1_555 1_555
C69_2 C77_2 1_555 1_555
C69_2 C138_2 1_555 1_555
C72_2 C116_2 1_555 1_555
C96_2 C112_2 1_555 1_555
C105_2 C112_2 1_555 1_555
C106_2 C112_2 1_555 1_555
C116_2 C117_2 1_555 1_555
C125_2 C151_2 1_555 1_555
C132_2 C136_2 1_555 1_555
C141_2 C145_2 1_555 1_555
C143 C147 1_555 1_555
C164 C167 1_555 1_555
C169 C171 1_555 1_555
O33 C90_2 1_555 1_555
O34 C86 1_555 1_555
C26_2 O24_2 1_555 1_555
C54_2 H35_2 1_555 1_555
C55_2 C60_2 1_555 1_555
C60_2 C26_2 1_555 1_555
C76_2 C60_2 1_555 1_555
H55_2 C76_2 1_555 1_555
C81_2 C55_2 1_555 1_555
H58_2 C81_2 1_555 1_555
H59_2 C81_2 1_555 1_555
H60_2 C81_2 1_555 1_555
O27_2 H62_2 1_555 1_555
C86 C91 1_555 1_555
C90_2 O27_2 1_555 1_555
C91 H67_2 1_555 1_555
C94_2 C55_2 1_555 1_555
H72_2 C94_2 1_555 1_555
H73_2 C94_2 1_555 1_555
H74_2 C94_2 1_555 1_555
C99 C91 1_555 1_555
H86_2 C101_2 1_555 1_555
H87_2 C101_2 1_555 1_555
H88_2 C101_2 1_555 1_555
C109_2 C54_2 1_555 1_555
H103_2 C109_2 1_555 1_555
C139_2 C26_2 1_555 1_555
C140_2 C76_2 1_555 1_555
C142_2 C55_2 1_555 1_555
H141_2 C142_2 1_555 1_555
H142_2 C142_2 1_555 1_555
H143_2 C142_2 1_555 1_555
C52_2 C139_2 1_555 1_555
C90_2 C109_2 1_555 1_555
C99 C140_2 1_555 1_555
C137 C139_2 1_555 1_555
C137 C140_2 1_555 1_555
O19 C86_2 1_555 1_555
C86_2 C91_2 1_555 1_555
C99_2 C91_2 1_555 1_555
H114_2 O30_2 1_555 1_555
H115 O30_2 1_555 1_555
H20_2 C29_2 1_555 1_555
C31_2 N3_2 1_555 1_555
C35_2 C30_2 1_555 1_555
C68_2 C30_2 1_555 1_555
C78_2 C68_2 1_555 1_555
H56_2 C78_2 1_555 1_555
C118_2 C29_2 1_555 1_555
C124_2 C118_2 1_555 1_555
H120_2 C124_2 1_555 1_555
C126_2 C118_2 1_555 1_555
H122_2 C126_2 1_555 1_555
C130_2 C124_2 1_555 1_555
H128_2 C130_2 1_555 1_555
C143_2 C126_2 1_555 1_555
H144_2 C143_2 1_555 1_555
C147_2 C130_2 1_555 1_555
H148_2 C147_2 1_555 1_555
C152_2 C66_2 1_555 1_555
H155_2 C152_2 1_555 1_555
C164_2 H166_2 1_555 1_555
C167_2 C152_2 1_555 1_555
H173_2 C167_2 1_555 1_555
C169_2 C164_2 1_555 1_555
H174_2 C169_2 1_555 1_555
C171_2 C66_2 1_555 1_555
C29_2 C31_2 1_555 1_555
C143_2 C147_2 1_555 1_555
C164_2 C167_2 1_555 1_555
C169_2 C171_2 1_555 1_555
C113_2 H107_2 1_555 1_555
C119_2 C114_2 1_555 1_555
C129_2 C119_2 1_555 1_555
H127_2 C129_2 1_555 1_555
C144_2 C97_2 1_555 1_555
H145_2 C144_2 1_555 1_555
C146_2 C144_2 1_555 1_555
H147_2 C146_2 1_555 1_555
C148_2 C97_2 1_555 1_555
H149_2 C148_2 1_555 1_555
C156_2 C113_2 1_555 1_555
H159_2 C156_2 1_555 1_555
C157_2 C129_2 1_555 1_555
H160_2 C157_2 1_555 1_555
C160_2 C146_2 1_555 1_555
H163_2 C160_2 1_555 1_555
C161_2 C148_2 1_555 1_555
H164_2 C161_2 1_555 1_555
C113_2 C114_2 1_555 1_555
C156_2 C157_2 1_555 1_555
C160_2 C161_2 1_555 1_555
C7_2 C8_2 1_555 1_555
C8_2 O2_2 1_555 1_555
C9_2 C7_2 1_555 1_555
C11_2 H5_2 1_555 1_555
C12_2 C8_2 1_555 1_555
H31_2 C48_2 1_555 1_555
C63_2 H41_2 1_555 1_555
H42_2 C63_2 1_555 1_555
H43_2 C63_2 1_555 1_555
C71_2 C12_2 1_555 1_555
C74_2 C71_2 1_555 1_555
H51_2 C74_2 1_555 1_555
H52_2 C74_2 1_555 1_555
H53_2 C74_2 1_555 1_555
C111_2 C9_2 1_555 1_555
H110_2 C120_2 1_555 1_555
H112_2 C120_2 1_555 1_555
C135_2 C71_2 1_555 1_555
H135_2 C135_2 1_555 1_555
H136_2 C135_2 1_555 1_555
H137_2 C135_2 1_555 1_555
C7_2 C48_2 1_555 1_555
C11_2 C12_2 1_555 1_555
C11_2 C111_2 1_555 1_555
C63_2 C71_2 1_555 1_555

#END
