
###############################################################################
#
# This file contains modified crystal structure data generated from the
# MOF subset of the Cambridge Structural Database (CSD) v543 
# hosted by the Cambridge Crystallographic Data Centre (CCDC).
#
# This work is licensed under the Creative Commons
# Attribution-NonCommercial-ShareAlike 4.0 International License.
# To view a copy of this license, visit
# http://creativecommons.org/licenses/by-nc-sa/4.0/
# or send a letter to
# Creative Commons, PO Box 1866, Mountain View, CA 94042, USA.
#
# CIF created using the CSD Python API on 29 September 2022
# The structure has been converted into the P1 space group
# The structure has a 3D framework
# The original CSD entry VIDCOD is in the monoclinic crystal system
# The framework has been calculated to contain at least 10.0% void space
# The void calculation uses a probe of radius 1.32A, grid spacing 0.4
# H atom positions have been added when not included in the experimental data
#
###############################################################################

data_VIDCOD
_chemical_formula_moiety         '(C176 H116 Co8 N28 O28)n'
_symmetry_cell_setting           triclinic
_symmetry_space_group_name_H-M   'P 1'
_symmetry_Int_Tables_number      1
_space_group_name_Hall           'P 1'
loop_
_symmetry_equiv_pos_site_id
_symmetry_equiv_pos_as_xyz
1 x,y,z
_cell_length_a                   11.3738(4)
_cell_length_b                   29.4286(10)
_cell_length_c                   17.1665(8)
_cell_angle_alpha                90
_cell_angle_beta                 99.870(4)
_cell_angle_gamma                90
_cell_volume                     5660.84
loop_
_atom_site_label
_atom_site_type_symbol
_atom_site_fract_x
_atom_site_fract_y
_atom_site_fract_z
Co1 Co 0.42443(5) 0.314900(18) 0.04980(3)
N5 N 0.2357(3) 0.31578(13) 0.0489(2)
C4 C 0.3964(4) 0.18178(15) 0.3918(3)
C7 C 0.4058(3) 0.20166(13) 0.2522(2)
H3 H 0.3990 0.2321 0.2653
C8 C 0.4007(4) 0.16798(14) 0.3087(2)
C9 C 0.4319(3) 0.22438(14) 0.1147(2)
C10 C 0.4211(4) 0.18935(14) 0.1760(3)
C12 C 0.1940(4) 0.3087(2) 0.1154(3)
H5 H 0.2482 0.3041 0.1619
H6 H 0.0111 0.1814 0.0390
C15 C 0.4169(5) 0.10976(16) 0.2121(3)
C17 C 0.4275(5) 0.14385(15) 0.1575(3)
H9 H 0.4391 0.1357 0.1071
C18 C 0.4067(5) 0.12260(15) 0.2888(3)
H10 H 0.4038 0.1004 0.3270
C20 C 0.4190(6) 0.06165(18) 0.1885(3)
H15 H 0.2104 0.1840 0.0376
C27 C 0.0726(4) 0.3080(2) 0.1186(3)
H16 H 0.0470 0.3030 0.1665
C37 C 0.4530(6) 0.02679(17) 0.2432(3)
H25 H 0.4792 0.0335 0.2962
C38 C 0.3891(8) 0.0490(2) 0.1106(4)
H26 H 0.3713 0.0713 0.0719
C40 C 0.3849(9) 0.0028(2) 0.0886(4)
O3 O 0.3908(3) 0.22231(12) 0.4098(2)
O4 O 0.4004(3) 0.15048(12) 0.44291(18)
O5 O 0.4350(3) 0.20999(12) 0.0471(2)
O6 O 0.4364(3) 0.26526(11) 0.1344(2)
Co5 Co 0.42443(5) 0.185100(18) 0.54980(3)
Co7 Co 0.39352(5) 0.289716(19) 0.43059(3)
N9 N 0.6143(3) 0.31120(12) 0.0475(2)
N10 N 0.4575(3) 0.36955(13) 0.1278(2)
Co2 Co 0.39352(5) 0.210284(19) 0.93059(3)
N4 N 0.2065(3) 0.21100(13) 0.9337(2)
C13 C 0.0385(4) 0.1924(2) 0.9946(3)
C14 C 0.1560(4) 0.3239(2) 0.9844(3)
H7 H 0.1837 0.3301 0.9376
C19 C 0.0365(4) 0.3236(2) 0.9829(3)
C21 C 0.0072(4) 0.2242(2) 0.8668(3)
C23 C 0.3378(5) 0.13957(18) 0.8456(3)
C25 C 0.1587(4) 0.1947(2) 0.9935(3)
C31 C 0.1301(4) 0.2263(2) 0.8708(3)
H20 H 0.1605 0.2386 0.8284
C32 C 0.3214(9) 0.0162(2) 0.9422(4)
H21 H 0.3306 0.0475 0.9489
H27 H 0.2702 0.0185 0.8258
O1 O 0.3469(3) 0.17927(14) 0.8164(2)
O2 O 0.3743(4) 0.13651(14) 0.9184(3)
O7 O 0.2982(6) 0.1083(2) 0.8034(4)
N8 N 0.5810(3) 0.20567(13) 0.9264(2)
O8 O 0.3908(3) 0.27769(12) 0.9098(2)
O9 O 0.4004(3) 0.34952(12) 0.94291(18)
N6 N 0.5425(3) 0.86955(13) 0.3722(2)
N7 N 0.4136(6) 0.97069(16) 0.1414(3)
C26 C 0.4825(6) 0.94365(17) 0.2725(3)
C30 C 0.4815(5) 0.86436(17) 0.2991(3)
H19 H 0.4598 0.8351 0.2816
C33 C 0.4496(6) 0.89951(18) 0.2492(3)
H22 H 0.4057 0.8942 0.1992
C34 C 0.5767(7) 0.9107(2) 0.3942(4)
H23 H 0.6221 0.9150 0.4441
C36 C 0.5475(8) 0.9486(2) 0.3454(4)
H24 H 0.5732 0.9774 0.3634
C39 C 0.4471(6) 0.98252(18) 0.2175(3)
C43 C 0.3482(10) 0.9881(2) 0.0051(4)
Co4 Co 0.57557(5) 0.814900(18) 0.45020(3)
H29 H 0.381102 0.917873 0.0373244
H2 H 0.6220 0.1669 0.0148
C3 C 0.8592(4) 0.31370(15) 0.0503(3)
C11 C 0.8110(4) 0.2846(2) 0.0977(4)
H4 H 0.8597 0.2653 0.1321
C16 C 0.6883(4) 0.28403(19) 0.0941(3)
H8 H 0.6563 0.2636 0.1261
H13 H 0.8257 0.1673 0.0224
C24 C 0.6634(4) 0.3393(2) 0.0019(3)
C29 C 0.7846(4) 0.3408(2) 0.0018(4)
C42 C 0.9908(4) 0.31467(16) 0.0509(3)
C1 C 0.6302(5) 0.2282(3) 0.8732(4)
H1 H 0.5808 0.2451 0.8352
C2 C 0.6537(5) 0.1838(2) 0.9775(4)
C5 C 0.8266(4) 0.20557(16) 0.9272(3)
C6 C 0.9573(4) 0.20682(17) 0.9283(3)
H11 H 0.9849 0.3295 0.9358
H12 H 0.9575 0.2348 0.8217
C22 C 0.7776(5) 0.1831(2) 0.9820(4)
H14 H 0.6140 0.3589 0.9685
C28 C 0.7490(5) 0.2276(3) 0.8716(4)
H17 H 0.7777 0.2428 0.8312
H18 H 0.8149 0.3607 0.9680
N2 N 0.4190(3) 0.70567(13) 0.5736(2)
N3 N 0.3857(3) 0.81120(12) 0.4525(2)
C1_2 C 0.3698(5) 0.7282(3) 0.6268(4)
H1_2 H 0.4192 0.7451 0.6648
C2_2 C 0.3463(5) 0.6838(2) 0.5225(4)
H2_2 H 0.3780 0.6669 0.4852
C3_2 C 0.1408(4) 0.81370(15) 0.4497(3)
C5_2 C 0.1734(4) 0.70557(16) 0.5728(3)
C6_2 C 0.0427(4) 0.70682(17) 0.5717(3)
C11_2 C 0.1890(4) 0.7846(2) 0.4023(4)
H4_2 H 0.1403 0.7653 0.3679
C16_2 C 0.3117(4) 0.78403(19) 0.4059(3)
H8_2 H 0.3437 0.7636 0.3739
H11_2 H 0.0151 0.8295 0.5642
H12_2 H 0.0425 0.7348 0.6783
C22_2 C 0.2224(5) 0.6831(2) 0.5180(4)
H13_2 H 0.1743 0.6673 0.4776
C24_2 C 0.3366(4) 0.8393(2) 0.4981(3)
H14_2 H 0.3860 0.8589 0.5315
C28_2 C 0.2510(5) 0.7276(3) 0.6284(4)
H17_2 H 0.2223 0.7428 0.6688
C29_2 C 0.2154(4) 0.8408(2) 0.4982(4)
H18_2 H 0.1851 0.8607 0.5320
C42_2 C 0.0092(4) 0.81467(16) 0.4491(3)
Co6 Co 0.60648(5) 0.710284(19) 0.56941(3)
N1 N 0.7452(9) 0.4551(2) 0.6458(4)
N4_2 N 0.7935(3) 0.71100(13) 0.5663(2)
N5_2 N 0.7643(3) 0.81578(13) 0.4511(2)
N7_2 N 0.5864(6) 0.47069(16) 0.3586(3)
C4_2 C 0.6036(4) 0.68178(15) 0.1082(3)
C7_2 C 0.5942(3) 0.70166(13) 0.2478(2)
H3_2 H 0.6010 0.7321 0.2347
C8_2 C 0.5993(4) 0.66798(14) 0.1913(2)
C9_2 C 0.5681(3) 0.72438(14) 0.3853(2)
C10_2 C 0.5789(4) 0.68935(14) 0.3240(3)
C12_2 C 0.8060(4) 0.8087(2) 0.3846(3)
H5_2 H 0.7518 0.8041 0.3381
C13_2 C 0.9615(4) 0.6924(2) 0.5054(3)
H6_2 H 0.9889 0.6814 0.4610
C14_2 C 0.8440(4) 0.8239(2) 0.5156(3)
H7_2 H 0.8163 0.8301 0.5624
C15_2 C 0.5831(5) 0.60976(16) 0.2879(3)
C17_2 C 0.5725(5) 0.64385(15) 0.3425(3)
H9_2 H 0.5609 0.6357 0.3929
C18_2 C 0.5933(5) 0.62260(15) 0.2112(3)
H10_2 H 0.5962 0.6004 0.1730
C19_2 C 0.9635(4) 0.8236(2) 0.5171(3)
C20_2 C 0.5810(6) 0.56165(18) 0.3115(3)
C21_2 C 0.9928(4) 0.7242(2) 0.6332(3)
C23_2 C 0.6622(5) 0.63957(18) 0.6544(3)
C25_2 C 0.8413(4) 0.6947(2) 0.5065(3)
H15_2 H 0.7896 0.6840 0.4624
C26_2 C 0.5175(6) 0.44365(17) 0.2275(3)
C27_2 C 0.9274(4) 0.8080(2) 0.3814(3)
H16_2 H 0.9530 0.8030 0.3335
C30_2 C 0.5185(5) 0.36436(17) 0.2009(3)
H19_2 H 0.5402 0.3351 0.2184
C31_2 C 0.8699(4) 0.7263(2) 0.6292(3)
H20_2 H 0.8395 0.7386 0.6716
C32_2 C 0.6786(9) 0.5162(2) 0.5578(4)
H21_2 H 0.6694 0.5475 0.5511
C33_2 C 0.5504(6) 0.39951(18) 0.2508(3)
H22_2 H 0.5943 0.3942 0.3008
C34_2 C 0.4233(7) 0.4107(2) 0.1058(4)
H23_2 H 0.3779 0.4150 0.0559
C35 C 0.6553(16) 0.4419(3) 0.5088(5)
C36_2 C 0.4525(8) 0.4486(2) 0.1546(4)
H24_2 H 0.4268 0.4774 0.1366
C37_2 C 0.5470(6) 0.52679(17) 0.2568(3)
H25_2 H 0.5208 0.5335 0.2038
C38_2 C 0.6109(8) 0.5490(2) 0.3894(4)
H26_2 H 0.6287 0.5713 0.4281
C39_2 C 0.5529(6) 0.48252(18) 0.2825(3)
C40_2 C 0.6151(9) 0.5028(2) 0.4114(4)
C41 C 0.7195(9) 0.4986(2) 0.6314(4)
H27_2 H 0.7298 0.5185 0.6742
C43_2 C 0.6518(10) 0.4881(2) 0.4949(4)
C44 C 0.7060(14) 0.4274(3) 0.5824(6)
H28 H 0.7146 0.3962 0.5902
O1_2 O 0.6531(3) 0.67927(14) 0.6836(2)
O2_2 O 0.6257(4) 0.63651(14) 0.5816(3)
O3_2 O 0.6092(3) 0.72231(12) 0.0902(2)
O4_2 O 0.5996(3) 0.65048(12) 0.05709(18)
O5_2 O 0.5650(3) 0.70999(12) 0.4529(2)
O6_2 O 0.5636(3) 0.76526(11) 0.3656(2)
O7_2 O 0.7018(6) 0.6083(2) 0.6966(4)
Co7_2 Co 0.60648(5) 0.789716(19) 0.06941(3)
O8_2 O 0.6092(3) 0.77769(12) 0.5902(2)
O9_2 O 0.5996(3) 0.84952(12) 0.55709(18)
H29_2 H 0.618898 0.417873 0.462676
Co5_2 Co 0.57557(5) 0.685100(18) 0.95020(3)
N2_2 N 0.4190(3) 0.79433(13) 0.0736(2)
C1_3 C 0.3698(5) 0.7718(3) 0.1268(4)
H1_3 H 0.4192 0.7549 0.1648
C2_3 C 0.3463(5) 0.8162(2) 0.0225(4)
C5_3 C 0.1734(4) 0.79443(16) 0.0728(3)
C6_3 C 0.0427(4) 0.79318(17) 0.0717(3)
H11_3 H 0.0151 0.6705 0.0642
H12_3 H 0.0425 0.7652 0.1783
C22_3 C 0.2224(5) 0.8169(2) 0.0180(4)
H14_3 H 0.3860 0.6411 0.0315
C28_3 C 0.2510(5) 0.7724(3) 0.1284(4)
H17_3 H 0.2223 0.7572 0.1688
H18_3 H 0.1851 0.6393 0.0320
N3_2 N 0.3857(3) 0.68880(12) 0.9525(2)
H2_3 H 0.3780 0.8331 0.9852
C3_3 C 0.1408(4) 0.68630(15) 0.9497(3)
C11_3 C 0.1890(4) 0.7154(2) 0.9023(4)
H4_3 H 0.1403 0.7347 0.8679
C16_3 C 0.3117(4) 0.71597(19) 0.9059(3)
H8_3 H 0.3437 0.7364 0.8739
H13_3 H 0.1743 0.8327 0.9776
C24_3 C 0.3366(4) 0.6607(2) 0.9981(3)
C29_3 C 0.2154(4) 0.6592(2) 0.9982(4)
C42_3 C 0.0092(4) 0.68533(16) 0.9491(3)
N6_2 N 0.4575(3) 0.13045(13) 0.6278(2)
N7_3 N 0.5864(6) 0.02931(16) 0.8586(3)
C26_3 C 0.5175(6) 0.05635(17) 0.7275(3)
C30_3 C 0.5185(5) 0.13564(17) 0.7009(3)
H19_3 H 0.5402 0.1649 0.7184
C33_3 C 0.5504(6) 0.10049(18) 0.7508(3)
H22_3 H 0.5943 0.1058 0.8008
C34_3 C 0.4233(7) 0.0893(2) 0.6058(4)
H23_3 H 0.3779 0.0850 0.5559
C36_3 C 0.4525(8) 0.0514(2) 0.6546(4)
H24_3 H 0.4268 0.0226 0.6366
C39_3 C 0.5529(6) 0.01748(18) 0.7825(3)
C43_3 C 0.6518(10) 0.0119(2) 0.9949(4)
H29_3 H 0.618898 0.0821267 0.962676
N4_3 N 0.7935(3) 0.78900(13) 0.0663(2)
C13_3 C 0.9615(4) 0.8076(2) 0.0054(3)
C14_3 C 0.8440(4) 0.6761(2) 0.0156(3)
H7_3 H 0.8163 0.6699 0.0624
C19_3 C 0.9635(4) 0.6764(2) 0.0171(3)
C21_3 C 0.9928(4) 0.7758(2) 0.1332(3)
C23_3 C 0.6622(5) 0.86043(18) 0.1544(3)
C25_3 C 0.8413(4) 0.8053(2) 0.0065(3)
C31_3 C 0.8699(4) 0.7737(2) 0.1292(3)
H20_3 H 0.8395 0.7614 0.1716
C32_3 C 0.6786(9) 0.9838(2) 0.0578(4)
H21_3 H 0.6694 0.9525 0.0511
H27_3 H 0.7298 0.9815 0.1742
O1_3 O 0.6531(3) 0.82073(14) 0.1836(2)
O2_3 O 0.6257(4) 0.86349(14) 0.0816(3)
O7_3 O 0.7018(6) 0.8917(2) 0.1966(4)
N5_3 N 0.7643(3) 0.68422(13) 0.9511(2)
C4_3 C 0.6036(4) 0.81822(15) 0.6082(3)
C7_3 C 0.5942(3) 0.79834(13) 0.7478(2)
H3_3 H 0.6010 0.7679 0.7347
C8_3 C 0.5993(4) 0.83202(14) 0.6913(2)
C9_3 C 0.5681(3) 0.77562(14) 0.8853(2)
C10_3 C 0.5789(4) 0.81065(14) 0.8240(3)
C12_3 C 0.8060(4) 0.6913(2) 0.8846(3)
H5_3 H 0.7518 0.6959 0.8381
H6_3 H 0.9889 0.8186 0.9610
C15_3 C 0.5831(5) 0.89024(16) 0.7879(3)
C17_3 C 0.5725(5) 0.85615(15) 0.8425(3)
H9_3 H 0.5609 0.8643 0.8929
C18_3 C 0.5933(5) 0.87740(15) 0.7112(3)
H10_3 H 0.5962 0.8996 0.6730
C20_3 C 0.5810(6) 0.93835(18) 0.8115(3)
H15_3 H 0.7896 0.8160 0.9624
C27_3 C 0.9274(4) 0.6920(2) 0.8814(3)
H16_3 H 0.9530 0.6970 0.8335
C37_3 C 0.5470(6) 0.97321(17) 0.7568(3)
H25_3 H 0.5208 0.9665 0.7038
C38_3 C 0.6109(8) 0.9510(2) 0.8894(4)
H26_3 H 0.6287 0.9287 0.9281
C40_3 C 0.6151(9) 0.9972(2) 0.9114(4)
O5_3 O 0.5650(3) 0.79001(12) 0.9529(2)
O6_3 O 0.5636(3) 0.73474(11) 0.8656(2)
N10_2 N 0.5425(3) 0.63045(13) 0.8722(2)
N1_2 N 0.2548(9) 0.5449(2) 0.3542(4)
N4_4 N 0.2065(3) 0.28900(13) 0.4337(2)
N5_4 N 0.2357(3) 0.18422(13) 0.5489(2)
N7_4 N 0.4136(6) 0.52931(16) 0.6414(3)
C4_4 C 0.3964(4) 0.31822(15) 0.8918(3)
C7_4 C 0.4058(3) 0.29834(13) 0.7522(2)
H3_4 H 0.3990 0.2679 0.7653
C8_4 C 0.4007(4) 0.33202(14) 0.8087(2)
C9_4 C 0.4319(3) 0.27562(14) 0.6147(2)
C10_4 C 0.4211(4) 0.31065(14) 0.6760(3)
C12_4 C 0.1940(4) 0.1913(2) 0.6154(3)
H5_4 H 0.2482 0.1959 0.6619
C13_4 C 0.0385(4) 0.3076(2) 0.4946(3)
H6_4 H 0.0111 0.3186 0.5390
C14_4 C 0.1560(4) 0.1761(2) 0.4844(3)
H7_4 H 0.1837 0.1699 0.4376
C15_4 C 0.4169(5) 0.39024(16) 0.7121(3)
C17_4 C 0.4275(5) 0.35615(15) 0.6575(3)
H9_4 H 0.4391 0.3643 0.6071
C18_4 C 0.4067(5) 0.37740(15) 0.7888(3)
H10_4 H 0.4038 0.3996 0.8270
C19_4 C 0.0365(4) 0.1764(2) 0.4829(3)
C20_4 C 0.4190(6) 0.43835(18) 0.6885(3)
C21_4 C 0.0072(4) 0.2758(2) 0.3668(3)
C23_4 C 0.3378(5) 0.36043(18) 0.3456(3)
C25_4 C 0.1587(4) 0.3053(2) 0.4935(3)
H15_4 H 0.2104 0.3160 0.5376
C26_4 C 0.4825(6) 0.55635(17) 0.7725(3)
C27_4 C 0.0726(4) 0.1920(2) 0.6186(3)
H16_4 H 0.0470 0.1970 0.6665
C30_4 C 0.4815(5) 0.63564(17) 0.7991(3)
H19_4 H 0.4598 0.6649 0.7816
C31_4 C 0.1301(4) 0.2737(2) 0.3708(3)
H20_4 H 0.1605 0.2614 0.3284
C32_4 C 0.3214(9) 0.4838(2) 0.4422(4)
H21_4 H 0.3306 0.4525 0.4489
C33_4 C 0.4496(6) 0.60049(18) 0.7492(3)
H22_4 H 0.4057 0.6058 0.6992
C34_4 C 0.5767(7) 0.5893(2) 0.8942(4)
H23_4 H 0.6221 0.5850 0.9441
C35_2 C 0.3447(16) 0.5581(3) 0.4912(5)
C36_4 C 0.5475(8) 0.5514(2) 0.8454(4)
H24_4 H 0.5732 0.5226 0.8634
C37_4 C 0.4530(6) 0.47321(17) 0.7432(3)
H25_4 H 0.4792 0.4665 0.7962
C38_4 C 0.3891(8) 0.4510(2) 0.6106(4)
H26_4 H 0.3713 0.4287 0.5719
C39_4 C 0.4471(6) 0.51748(18) 0.7175(3)
C40_4 C 0.3849(9) 0.4972(2) 0.5886(4)
C41_2 C 0.2805(9) 0.5014(2) 0.3686(4)
H27_4 H 0.2702 0.4815 0.3258
C43_4 C 0.3482(10) 0.5119(2) 0.5051(4)
C44_2 C 0.2940(14) 0.5726(3) 0.4176(6)
H28_2 H 0.2854 0.6038 0.4098
O1_4 O 0.3469(3) 0.32073(14) 0.3164(2)
O2_4 O 0.3743(4) 0.36349(14) 0.4184(3)
O5_4 O 0.4350(3) 0.29001(12) 0.5471(2)
O6_4 O 0.4364(3) 0.23474(11) 0.6344(2)
O7_4 O 0.2982(6) 0.3917(2) 0.3034(4)
N8_2 N 0.5810(3) 0.29433(13) 0.4264(2)
N9_2 N 0.6143(3) 0.18880(12) 0.5475(2)
H29_4 H 0.381102 0.582127 0.537324
C1_4 C 0.6302(5) 0.2718(3) 0.3732(4)
H1_4 H 0.5808 0.2549 0.3352
C2_4 C 0.6537(5) 0.3162(2) 0.4775(4)
H2_4 H 0.6220 0.3331 0.5148
C3_4 C 0.8592(4) 0.18630(15) 0.5503(3)
C5_4 C 0.8266(4) 0.29443(16) 0.4272(3)
C6_4 C 0.9573(4) 0.29318(17) 0.4283(3)
C11_4 C 0.8110(4) 0.2154(2) 0.5977(4)
H4_4 H 0.8597 0.2347 0.6321
C16_4 C 0.6883(4) 0.21597(19) 0.5941(3)
H8_4 H 0.6563 0.2364 0.6261
H11_4 H 0.9849 0.1705 0.4358
H12_4 H 0.9575 0.2652 0.3217
C22_4 C 0.7776(5) 0.3169(2) 0.4820(4)
H13_4 H 0.8257 0.3327 0.5224
C24_4 C 0.6634(4) 0.1607(2) 0.5019(3)
H14_4 H 0.6140 0.1411 0.4685
C28_4 C 0.7490(5) 0.2724(3) 0.3716(4)
H17_4 H 0.7777 0.2572 0.3312
C29_4 C 0.7846(4) 0.1592(2) 0.5018(4)
H18_4 H 0.8149 0.1393 0.4680
C42_4 C 0.9908(4) 0.18533(16) 0.5509(3)
N1_3 N 0.2548(9) 0.9551(2) 0.8542(4)
C35_3 C 0.3447(16) 0.9419(3) 0.9912(5)
C41_3 C 0.2805(9) 0.9986(2) 0.8686(4)
C44_3 C 0.2940(14) 0.9274(3) 0.9176(6)
H28_3 H 0.2854 0.8962 0.9098
N1_4 N 0.7452(9) 0.0449(2) 0.1458(4)
C35_4 C 0.6553(16) 0.0581(3) 0.0088(5)
C41_4 C 0.7195(9) 0.0014(2) 0.1314(4)
C44_4 C 0.7060(14) 0.0726(3) 0.0824(6)
H28_4 H 0.7146 0.1038 0.0902
loop_
_geom_bond_atom_site_label_1
_geom_bond_atom_site_label_2
_geom_bond_site_symmetry_1
_geom_bond_site_symmetry_2
Co1 N5 1_555 1_555
N5 C12 1_555 1_555
C4 C8 1_555 1_555
C7 H3 1_555 1_555
C8 C7 1_555 1_555
C9 C10 1_555 1_555
C10 C7 1_555 1_555
C12 H5 1_555 1_555
C15 C17 1_555 1_555
C17 C10 1_555 1_555
H9 C17 1_555 1_555
C18 C8 1_555 1_555
H10 C18 1_555 1_555
C20 C15 1_555 1_555
C27 C12 1_555 1_555
H16 C27 1_555 1_555
C37 C20 1_555 1_555
H25 C37 1_555 1_555
C38 C20 1_555 1_555
H26 C38 1_555 1_555
O3 C4 1_555 1_555
O4 C4 1_555 1_555
O6 Co1 1_555 1_555
Co5 O4 1_555 1_555
Co7 O3 1_555 1_555
N9 Co1 1_555 1_555
N10 Co1 1_555 1_555
C9 O5 1_555 1_555
C9 O6 1_555 1_555
C15 C18 1_555 1_555
C38 C40 1_555 1_555
Co2 N4 1_555 1_555
N4 C25 1_555 1_555
H7 C14 1_555 1_555
C19 C14 1_555 1_555
C23 O1 1_555 1_555
C25 C13 1_555 1_555
C31 N4 1_555 1_555
H20 C31 1_555 1_555
C32 H21 1_555 1_555
O1 Co2 1_555 1_555
O2 Co2 1_555 1_555
O7 C23 1_555 1_555
N8 Co2 1_555 1_555
O8 Co2 1_555 1_555
C21 C31 1_555 1_555
C23 O2 1_555 1_555
N6 C30 1_555 1_555
N7 C39 1_555 1_555
C26 C33 1_555 1_555
C30 H19 1_555 1_555
C33 C30 1_555 1_555
H22 C33 1_555 1_555
C34 N6 1_555 1_555
H23 C34 1_555 1_555
C36 C26 1_555 1_555
H24 C36 1_555 1_555
C39 C26 1_555 1_555
Co4 N6 1_555 1_555
C34 C36 1_555 1_555
N9 C16 1_555 1_555
C3 C11 1_555 1_555
C11 H4 1_555 1_555
C16 C11 1_555 1_555
H8 C16 1_555 1_555
C24 N9 1_555 1_555
C29 C3 1_555 1_555
C42 C3 1_555 1_555
C24 C29 1_555 1_555
N8 C1 1_555 1_555
C1 H1 1_555 1_555
C2 N8 1_555 1_555
C5 C6 1_555 1_555
C22 C2 1_555 1_555
C28 C1 1_555 1_555
H17 C28 1_555 1_555
C5 C22 1_555 1_555
C5 C28 1_555 1_555
N2 C1_2 1_555 1_555
N3 C16_2 1_555 1_555
C1_2 H1_2 1_555 1_555
C2_2 N2 1_555 1_555
H2_2 C2_2 1_555 1_555
C3_2 C11_2 1_555 1_555
C5_2 C6_2 1_555 1_555
C11_2 H4_2 1_555 1_555
C16_2 C11_2 1_555 1_555
H8_2 C16_2 1_555 1_555
C22_2 C2_2 1_555 1_555
H13_2 C22_2 1_555 1_555
C24_2 N3 1_555 1_555
H14_2 C24_2 1_555 1_555
C28_2 C1_2 1_555 1_555
H17_2 C28_2 1_555 1_555
C29_2 C3_2 1_555 1_555
H18_2 C29_2 1_555 1_555
C42_2 C3_2 1_555 1_555
Co4 N3 1_555 1_555
Co6 N2 1_555 1_555
C5_2 C22_2 1_555 1_555
C5_2 C28_2 1_555 1_555
C24_2 C29_2 1_555 1_555
Co4 N5_2 1_555 1_555
Co6 N4_2 1_555 1_555
N1 C41 1_555 1_555
N4_2 C25_2 1_555 1_555
N5_2 C12_2 1_555 1_555
N10 C30_2 1_555 1_555
N7_2 C39_2 1_555 1_555
C4_2 C8_2 1_555 1_555
C7_2 H3_2 1_555 1_555
C8_2 C7_2 1_555 1_555
C9_2 C10_2 1_555 1_555
C10_2 C7_2 1_555 1_555
C12_2 H5_2 1_555 1_555
C13_2 H6_2 1_555 1_555
C14_2 N5_2 1_555 1_555
H7_2 C14_2 1_555 1_555
C15_2 C17_2 1_555 1_555
C17_2 C10_2 1_555 1_555
H9_2 C17_2 1_555 1_555
C18_2 C8_2 1_555 1_555
H10_2 C18_2 1_555 1_555
C19_2 C14_2 1_555 1_555
C20_2 C15_2 1_555 1_555
C23_2 O1_2 1_555 1_555
C25_2 C13_2 1_555 1_555
H15_2 C25_2 1_555 1_555
C26_2 C33_2 1_555 1_555
C27_2 C12_2 1_555 1_555
H16_2 C27_2 1_555 1_555
C30_2 H19_2 1_555 1_555
C31_2 N4_2 1_555 1_555
H20_2 C31_2 1_555 1_555
C32_2 H21_2 1_555 1_555
C33_2 C30_2 1_555 1_555
H22_2 C33_2 1_555 1_555
C34_2 N10 1_555 1_555
H23_2 C34_2 1_555 1_555
C35 C43_2 1_555 1_555
C36_2 C26_2 1_555 1_555
H24_2 C36_2 1_555 1_555
C37_2 C20_2 1_555 1_555
H25_2 C37_2 1_555 1_555
C38_2 C20_2 1_555 1_555
H26_2 C38_2 1_555 1_555
C39_2 C26_2 1_555 1_555
C40_2 N7_2 1_555 1_555
C41 C32_2 1_555 1_555
H27_2 C41 1_555 1_555
C43_2 C32_2 1_555 1_555
C44 N1 1_555 1_555
H28 C44 1_555 1_555
O1_2 Co6 1_555 1_555
O2_2 Co6 1_555 1_555
O3_2 C4_2 1_555 1_555
O4_2 C4_2 1_555 1_555
O5_2 Co6 1_555 1_555
O6_2 Co4 1_555 1_555
O7_2 C23_2 1_555 1_555
Co7_2 O3_2 1_555 1_555
O8_2 Co6 1_555 1_555
O9_2 Co4 1_555 1_555
C9_2 O5_2 1_555 1_555
C9_2 O6_2 1_555 1_555
C15_2 C18_2 1_555 1_555
C21_2 C31_2 1_555 1_555
C23_2 O2_2 1_555 1_555
C34_2 C36_2 1_555 1_555
C35 C44 1_555 1_555
C37_2 C39_2 1_555 1_555
C38_2 C40_2 1_555 1_555
C40_2 C43_2 1_555 1_555
C35 H29_2 1_555 1_555
N2_2 C1_3 1_555 1_555
C1_3 H1_3 1_555 1_555
C2_3 N2_2 1_555 1_555
C5_3 C6_3 1_555 1_555
C22_3 C2_3 1_555 1_555
C28_3 C1_3 1_555 1_555
H17_3 C28_3 1_555 1_555
Co7_2 N2_2 1_555 1_555
C5_3 C22_3 1_555 1_555
C5_3 C28_3 1_555 1_555
N3_2 C16_3 1_555 1_555
C3_3 C11_3 1_555 1_555
C11_3 H4_3 1_555 1_555
C16_3 C11_3 1_555 1_555
H8_3 C16_3 1_555 1_555
C24_3 N3_2 1_555 1_555
C29_3 C3_3 1_555 1_555
C42_3 C3_3 1_555 1_555
Co5_2 N3_2 1_555 1_555
C24_3 C29_3 1_555 1_555
N6_2 C30_3 1_555 1_555
N7_3 C39_3 1_555 1_555
C26_3 C33_3 1_555 1_555
C30_3 H19_3 1_555 1_555
C33_3 C30_3 1_555 1_555
H22_3 C33_3 1_555 1_555
C34_3 N6_2 1_555 1_555
H23_3 C34_3 1_555 1_555
C36_3 C26_3 1_555 1_555
H24_3 C36_3 1_555 1_555
C39_3 C26_3 1_555 1_555
Co5 N6_2 1_555 1_555
C34_3 C36_3 1_555 1_555
Co7_2 N4_3 1_555 1_555
N4_3 C25_3 1_555 1_555
H7_3 C14_3 1_555 1_555
C19_3 C14_3 1_555 1_555
C23_3 O1_3 1_555 1_555
C25_3 C13_3 1_555 1_555
C31_3 N4_3 1_555 1_555
H20_3 C31_3 1_555 1_555
C32_3 H21_3 1_555 1_555
O1_3 Co7_2 1_555 1_555
O2_3 Co7_2 1_555 1_555
O7_3 C23_3 1_555 1_555
C21_3 C31_3 1_555 1_555
C23_3 O2_3 1_555 1_555
Co5_2 N5_3 1_555 1_555
N5_3 C12_3 1_555 1_555
C4_3 C8_3 1_555 1_555
C7_3 H3_3 1_555 1_555
C8_3 C7_3 1_555 1_555
C9_3 C10_3 1_555 1_555
C10_3 C7_3 1_555 1_555
C12_3 H5_3 1_555 1_555
C15_3 C17_3 1_555 1_555
C17_3 C10_3 1_555 1_555
H9_3 C17_3 1_555 1_555
C18_3 C8_3 1_555 1_555
H10_3 C18_3 1_555 1_555
C20_3 C15_3 1_555 1_555
C27_3 C12_3 1_555 1_555
H16_3 C27_3 1_555 1_555
C37_3 C20_3 1_555 1_555
H25_3 C37_3 1_555 1_555
C38_3 C20_3 1_555 1_555
H26_3 C38_3 1_555 1_555
O8_2 C4_3 1_555 1_555
O9_2 C4_3 1_555 1_555
O6_3 Co5_2 1_555 1_555
N10_2 Co5_2 1_555 1_555
C9_3 O5_3 1_555 1_555
C9_3 O6_3 1_555 1_555
C15_3 C18_3 1_555 1_555
C38_3 C40_3 1_555 1_555
Co5 N5_4 1_555 1_555
Co7 N4_4 1_555 1_555
N1_2 C41_2 1_555 1_555
N4_4 C25_4 1_555 1_555
N5_4 C12_4 1_555 1_555
N10_2 C30_4 1_555 1_555
N7_4 C39_4 1_555 1_555
C4_4 C8_4 1_555 1_555
C7_4 H3_4 1_555 1_555
C8_4 C7_4 1_555 1_555
C9_4 C10_4 1_555 1_555
C10_4 C7_4 1_555 1_555
C12_4 H5_4 1_555 1_555
C13_4 H6_4 1_555 1_555
C14_4 N5_4 1_555 1_555
H7_4 C14_4 1_555 1_555
C15_4 C17_4 1_555 1_555
C17_4 C10_4 1_555 1_555
H9_4 C17_4 1_555 1_555
C18_4 C8_4 1_555 1_555
H10_4 C18_4 1_555 1_555
C19_4 C14_4 1_555 1_555
C20_4 C15_4 1_555 1_555
C23_4 O1_4 1_555 1_555
C25_4 C13_4 1_555 1_555
H15_4 C25_4 1_555 1_555
C26_4 C33_4 1_555 1_555
C27_4 C12_4 1_555 1_555
H16_4 C27_4 1_555 1_555
C30_4 H19_4 1_555 1_555
C31_4 N4_4 1_555 1_555
H20_4 C31_4 1_555 1_555
C32_4 H21_4 1_555 1_555
C33_4 C30_4 1_555 1_555
H22_4 C33_4 1_555 1_555
C34_4 N10_2 1_555 1_555
H23_4 C34_4 1_555 1_555
C35_2 C43_4 1_555 1_555
C36_4 C26_4 1_555 1_555
H24_4 C36_4 1_555 1_555
C37_4 C20_4 1_555 1_555
H25_4 C37_4 1_555 1_555
C38_4 C20_4 1_555 1_555
H26_4 C38_4 1_555 1_555
C39_4 C26_4 1_555 1_555
C40_4 N7_4 1_555 1_555
C41_2 C32_4 1_555 1_555
H27_4 C41_2 1_555 1_555
C43_4 C32_4 1_555 1_555
C44_2 N1_2 1_555 1_555
H28_2 C44_2 1_555 1_555
O1_4 Co7 1_555 1_555
O2_4 Co7 1_555 1_555
O8 C4_4 1_555 1_555
O9 C4_4 1_555 1_555
O5_4 Co7 1_555 1_555
O6_4 Co5 1_555 1_555
O7_4 C23_4 1_555 1_555
N8_2 Co7 1_555 1_555
N9_2 Co5 1_555 1_555
C9_4 O5_4 1_555 1_555
C9_4 O6_4 1_555 1_555
C15_4 C18_4 1_555 1_555
C21_4 C31_4 1_555 1_555
C23_4 O2_4 1_555 1_555
C34_4 C36_4 1_555 1_555
C35_2 C44_2 1_555 1_555
C37_4 C39_4 1_555 1_555
C38_4 C40_4 1_555 1_555
C40_4 C43_4 1_555 1_555
C35_2 H29_4 1_555 1_555
N8_2 C1_4 1_555 1_555
N9_2 C16_4 1_555 1_555
C1_4 H1_4 1_555 1_555
C2_4 N8_2 1_555 1_555
H2_4 C2_4 1_555 1_555
C3_4 C11_4 1_555 1_555
C5_4 C6_4 1_555 1_555
C11_4 H4_4 1_555 1_555
C16_4 C11_4 1_555 1_555
H8_4 C16_4 1_555 1_555
C22_4 C2_4 1_555 1_555
H13_4 C22_4 1_555 1_555
C24_4 N9_2 1_555 1_555
H14_4 C24_4 1_555 1_555
C28_4 C1_4 1_555 1_555
H17_4 C28_4 1_555 1_555
C29_4 C3_4 1_555 1_555
H18_4 C29_4 1_555 1_555
C42_4 C3_4 1_555 1_555
C5_4 C22_4 1_555 1_555
C5_4 C28_4 1_555 1_555
C24_4 C29_4 1_555 1_555
N1_3 C41_3 1_555 1_555
C44_3 N1_3 1_555 1_555
H28_3 C44_3 1_555 1_555
C35_3 C44_3 1_555 1_555
N1_4 C41_4 1_555 1_555
C44_4 N1_4 1_555 1_555
H28_4 C44_4 1_555 1_555
C35_4 C44_4 1_555 1_555

#END
