
###############################################################################
#
# This file contains modified crystal structure data generated from the
# MOF subset of the Cambridge Structural Database (CSD) v543 
# hosted by the Cambridge Crystallographic Data Centre (CCDC).
#
# This work is licensed under the Creative Commons
# Attribution-NonCommercial-ShareAlike 4.0 International License.
# To view a copy of this license, visit
# http://creativecommons.org/licenses/by-nc-sa/4.0/
# or send a letter to
# Creative Commons, PO Box 1866, Mountain View, CA 94042, USA.
#
# CIF created using the CSD Python API on 29 September 2022
# The structure has been converted into the P1 space group
# The structure has a 3D framework
# The original CSD entry VIDNOO is in the monoclinic crystal system
# The framework has been calculated to contain at least 10.0% void space
# The void calculation uses a probe of radius 1.32A, grid spacing 0.4
# H atom positions have been added when not included in the experimental data
#
###############################################################################

data_VIDNOO
_chemical_formula_moiety         '(C192 H152 Cu8 N48 O44)n'
_symmetry_cell_setting           triclinic
_symmetry_space_group_name_H-M   'P 1'
_symmetry_Int_Tables_number      1
_space_group_name_Hall           'P 1'
loop_
_symmetry_equiv_pos_site_id
_symmetry_equiv_pos_as_xyz
1 x,y,z
_cell_length_a                   27.100(9)
_cell_length_b                   10.897(4)
_cell_length_c                   18.900(6)
_cell_angle_alpha                90
_cell_angle_beta                 98.250(4)
_cell_angle_gamma                90
_cell_volume                     5523.58
loop_
_atom_site_label
_atom_site_type_symbol
_atom_site_fract_x
_atom_site_fract_y
_atom_site_fract_z
C1 C 0.01885(16) 0.0995(4) 0.0635(2)
H1 H 0.0222 0.0201 0.0815
C4 C 0.00738(18) 0.3270(5) 0.0093(3)
C5 C 0.05265(18) 0.2689(5) 0.0193(3)
H4 H 0.0801 0.3098 0.0063
Cu1 Cu 0.13204(2) 0.09561(5) 0.06375(3)
N1 N 0.05919(13) 0.1553(4) 0.0469(2)
O6 O 0.15260(15) 0.2915(3) 0.1161(2)
H18 H 0.1807 0.2890 0.1390
N13 N 0.20395(13) 0.0352(4) 0.0691(2)
O14 O 0.12409(12) 0.0250(3) 0.15562(16)
H37 H 0.128162 0.313341 0.148479
H3 H 0.0046 0.4047 0.9888
C11 C 0.10539(17) 0.1556(4) 0.7165(2)
C12 C 0.11091(16) 0.0879(5) 0.6495(2)
C13 C 0.13001(16) 0.1005(5) 0.9167(3)
C14 C 0.11632(17) 0.1629(4) 0.8453(2)
C15 C 0.11913(17) 0.0995(4) 0.7829(2)
H9 H 0.1303 0.0186 0.7849
C16 C 0.10037(18) 0.2844(4) 0.8414(3)
H10 H 0.0997 0.3289 0.8832
C17 C 0.08784(18) 0.2760(5) 0.7134(3)
H11 H 0.0777 0.3131 0.6693
C18 C 0.08553(19) 0.3399(5) 0.7757(3)
C19 C 0.02180(18) 0.6325(4) 0.7348(3)
C20 C 0.04318(19) 0.7440(5) 0.7207(3)
H12 H 0.0726 0.7442 0.7006
C21 C 0.0221(2) 0.8539(5) 0.7355(3)
H13 H 0.0373 0.9275 0.7262
C22 C 0.0459(2) 0.5145(5) 0.7147(3)
H14 H 0.0209 0.4595 0.6903
H15 H 0.0703 0.5316 0.6832
O2 O 0.10227(13) 0.1417(3) 0.59072(18)
O3 O 0.13809(11) 0.1706(3) 0.97096(16)
O5 O 0.06938(15) 0.4602(3) 0.77986(18)
C38 C 0.02796(16) 0.1530(4) 0.4445(3)
H27 H 0.0551 0.1099 0.4322
C39 C 0.03391(16) 0.2711(4) 0.4707(3)
C42 C 0.26144(17) 0.6154(4) 0.4426(3)
H30 H 0.2699 0.6981 0.4441
C43 C 0.21347(17) 0.5840(4) 0.4530(3)
H31 H 0.1905 0.6440 0.4609
C44 C 0.20051(16) 0.4606(4) 0.4511(3)
C45 C 0.23549(18) 0.3757(5) 0.4348(3)
H32 H 0.2274 0.2929 0.4297
C46 C 0.28255(18) 0.4172(5) 0.4264(3)
H33 H 0.3062 0.3597 0.4172
C47 C 0.08039(16) 0.3429(5) 0.4828(3)
C48 C 0.15166(16) 0.4269(4) 0.4725(3)
N8 N 0.29605(13) 0.5352(4) 0.4309(2)
N9 N 0.08814(15) 0.4317(4) 0.5304(2)
N10 N 0.13355(14) 0.4849(4) 0.5232(2)
N11 N 0.12008(13) 0.3362(3) 0.4449(2)
N12 N 0.12612(15) 0.2639(4) 0.3848(2)
H34 H 0.1562 0.2780 0.3727
H35 H 0.1028 0.2844 0.3487
Cu4 Cu 0.36796(2) 0.59561(5) 0.43625(3)
C2 C 0.97204(16) 0.1530(4) 0.0555(3)
H2 H 0.9449 0.1099 0.0678
C3 C 0.96609(16) 0.2711(4) 0.0293(3)
C6 C 0.73856(17) 0.6154(4) 0.0574(3)
H5 H 0.7301 0.6981 0.0559
C7 C 0.78653(17) 0.5840(4) 0.0470(3)
H6 H 0.8095 0.6440 0.0391
C8 C 0.79949(16) 0.4606(4) 0.0489(3)
C9 C 0.76451(18) 0.3757(5) 0.0652(3)
H7 H 0.7726 0.2929 0.0703
C10 C 0.71745(18) 0.4172(5) 0.0736(3)
H8 H 0.6938 0.3597 0.0828
C23 C 0.91961(16) 0.3429(5) 0.0172(3)
C24 C 0.84834(16) 0.4269(4) 0.0275(3)
N2 N 0.70395(13) 0.5352(4) 0.0691(2)
N5 N 0.87992(13) 0.3362(3) 0.0551(2)
N6 N 0.87388(15) 0.2639(4) 0.1152(2)
H16 H 0.8438 0.2780 0.1273
H17 H 0.8972 0.2844 0.1513
Cu3 Cu 0.63204(2) 0.59561(5) 0.06375(3)
O9 O 0.86863(14) 0.9876(3) 0.58034(18)
O11 O 0.87591(12) 0.9750(3) 0.84438(16)
Cu5 Cu 0.86796(2) 0.90439(5) 0.93625(3)
O15 O 0.89773(13) 0.8583(3) 0.40928(18)
C6_2 C 0.23856(17) 0.1154(4) 0.0574(3)
H5_2 H 0.2301 0.1981 0.0559
C7_2 C 0.28653(17) 0.0840(4) 0.0470(3)
H6_2 H 0.3095 0.1440 0.0391
C1_2 C 0.51885(16) 0.5995(4) 0.0635(2)
H1_2 H 0.5222 0.5201 0.0815
C2_2 C 0.47204(16) 0.6530(4) 0.0555(3)
H2_2 H 0.4449 0.6099 0.0678
C3_2 C 0.46609(16) 0.7711(4) 0.0293(3)
C4_2 C 0.50738(18) 0.8270(5) 0.0093(3)
C5_2 C 0.55265(18) 0.7689(5) 0.0193(3)
H4_2 H 0.5801 0.8098 0.0063
C8_2 C 0.29949(16) 0.9606(4) 0.0489(3)
C9_2 C 0.26451(18) 0.8757(5) 0.0652(3)
H7_2 H 0.2726 0.7929 0.0703
C10_2 C 0.21745(18) 0.9172(5) 0.0736(3)
H8_2 H 0.1938 0.8597 0.0828
C23_2 C 0.41961(16) 0.8429(5) 0.0172(3)
C24_2 C 0.34834(16) 0.9269(4) 0.0275(3)
N1_2 N 0.55919(13) 0.6553(4) 0.0469(2)
N5_2 N 0.37992(13) 0.8362(3) 0.0551(2)
N6_2 N 0.37388(15) 0.7639(4) 0.1152(2)
H16_2 H 0.3438 0.7780 0.1273
H17_2 H 0.3972 0.7844 0.1513
O6_2 O 0.65260(15) 0.7915(3) 0.1161(2)
H18_2 H 0.6807 0.7890 0.1390
O14_2 O 0.62409(12) 0.5250(3) 0.15562(16)
O16 O 0.60227(13) 0.3583(3) 0.09072(18)
H37_2 H 0.628162 0.813341 0.148479
H3_2 H 0.5046 0.9047 0.9888
C11_2 C 0.60539(17) 0.6556(4) 0.7165(2)
C12_2 C 0.61091(16) 0.5879(5) 0.6495(2)
C13_2 C 0.63001(16) 0.6005(5) 0.9167(3)
C14_2 C 0.61632(17) 0.6629(4) 0.8453(2)
C15_2 C 0.61913(17) 0.5995(4) 0.7829(2)
H9_2 H 0.6303 0.5186 0.7849
C16_2 C 0.60037(18) 0.7844(4) 0.8414(3)
H10_2 H 0.5997 0.8289 0.8832
C17_2 C 0.58784(18) 0.7760(5) 0.7134(3)
H11_2 H 0.5777 0.8131 0.6693
C18_2 C 0.58553(19) 0.8399(5) 0.7757(3)
H14_2 H 0.5209 0.9595 0.6903
N3 N 0.41186(15) 0.9317(4) 0.9696(2)
N4 N 0.36645(14) 0.9849(4) 0.9768(2)
O1 O 0.62409(12) 0.4750(3) 0.65562(16)
O2_2 O 0.60227(13) 0.6417(3) 0.59072(18)
O3_2 O 0.63809(11) 0.6706(3) 0.97096(16)
O4 O 0.63137(14) 0.4876(3) 0.91966(18)
O5_2 O 0.56938(15) 0.9602(3) 0.77986(18)
C25 C 0.39461(17) 0.6556(4) 0.7835(2)
C26 C 0.38909(16) 0.5879(5) 0.8505(2)
C27 C 0.36999(16) 0.6005(5) 0.5833(3)
C28 C 0.38368(17) 0.6629(4) 0.6547(2)
C29 C 0.38087(17) 0.5995(4) 0.7171(2)
H19 H 0.3697 0.5186 0.7151
C30 C 0.39963(18) 0.7844(4) 0.6586(3)
H20 H 0.4003 0.8289 0.6168
C31 C 0.41216(18) 0.7760(5) 0.7866(3)
H21 H 0.4223 0.8131 0.8307
C32 C 0.41447(19) 0.8399(5) 0.7243(3)
H24 H 0.4791 0.9595 0.8097
O7 O 0.39773(13) 0.6417(3) 0.90928(18)
O8 O 0.36191(11) 0.6706(3) 0.52904(16)
O9_2 O 0.36863(14) 0.4876(3) 0.58034(18)
O10 O 0.43062(15) 0.9602(3) 0.72014(18)
O11_2 O 0.37591(12) 0.4750(3) 0.84438(16)
C37 C 0.48115(16) 0.5995(4) 0.4365(2)
H26 H 0.4778 0.5201 0.4185
C38_2 C 0.52796(16) 0.6530(4) 0.4445(3)
H27_2 H 0.5551 0.6099 0.4322
C39_2 C 0.53391(16) 0.7711(4) 0.4707(3)
C40 C 0.49262(18) 0.8270(5) 0.4907(3)
H28 H 0.4954 0.9047 0.5112
C41 C 0.44735(18) 0.7689(5) 0.4807(3)
H29 H 0.4199 0.8098 0.4937
C44_2 C 0.70051(16) 0.9606(4) 0.4511(3)
C45_2 C 0.73549(18) 0.8757(5) 0.4348(3)
H32_2 H 0.7274 0.7929 0.4297
C46_2 C 0.78255(18) 0.9172(5) 0.4264(3)
H33_2 H 0.8062 0.8597 0.4172
C47_2 C 0.58039(16) 0.8429(5) 0.4828(3)
C48_2 C 0.65166(16) 0.9269(4) 0.4725(3)
N7 N 0.44081(13) 0.6553(4) 0.4531(2)
N9_2 N 0.58814(15) 0.9317(4) 0.5304(2)
N10_2 N 0.63355(14) 0.9849(4) 0.5232(2)
N11_2 N 0.62008(13) 0.8362(3) 0.4449(2)
N12_2 N 0.62612(15) 0.7639(4) 0.3848(2)
H34_2 H 0.6562 0.7780 0.3727
H35_2 H 0.6028 0.7844 0.3487
O12 O 0.34740(15) 0.7915(3) 0.3839(2)
H36 H 0.3193 0.7890 0.3610
Cu5_2 Cu 0.36796(2) 0.40439(5) 0.93625(3)
Cu6 Cu 0.63204(2) 0.40439(5) 0.56375(3)
O13 O 0.37591(12) 0.5250(3) 0.34438(16)
O15_2 O 0.39773(13) 0.3583(3) 0.40928(18)
H38 H 0.371838 0.813341 0.351521
O9_3 O 0.13137(14) 0.0124(3) 0.41966(18)
C2_3 C 0.02796(16) 0.8470(4) 0.9445(3)
H2_3 H 0.0551 0.8901 0.9322
C3_3 C 0.03391(16) 0.7289(4) 0.9707(3)
C6_3 C 0.26144(17) 0.3846(4) 0.9426(3)
H5_3 H 0.2699 0.3019 0.9441
C7_3 C 0.21347(17) 0.4160(4) 0.9530(3)
H6_3 H 0.1905 0.3560 0.9609
C8_3 C 0.20051(16) 0.5394(4) 0.9511(3)
C9_3 C 0.23549(18) 0.6243(5) 0.9348(3)
H7_3 H 0.2274 0.7071 0.9297
C10_3 C 0.28255(18) 0.5828(5) 0.9264(3)
H8_3 H 0.3062 0.6403 0.9172
C23_3 C 0.08039(16) 0.6571(5) 0.9828(3)
C24_3 C 0.15166(16) 0.5731(4) 0.9725(3)
N2_2 N 0.29605(13) 0.4648(4) 0.9309(2)
N5_3 N 0.12008(13) 0.6638(3) 0.9449(2)
N6_3 N 0.12612(15) 0.7361(4) 0.8848(2)
H16_3 H 0.1562 0.7220 0.8727
H17_3 H 0.1028 0.7156 0.8487
H3_3 H 0.9954 0.5953 0.0112
C11_3 C 0.89461(17) 0.8444(4) 0.2835(2)
C12_3 C 0.88909(16) 0.9121(5) 0.3505(2)
C13_3 C 0.86999(16) 0.8995(5) 0.0833(3)
C14_3 C 0.88368(17) 0.8371(4) 0.1547(2)
C15_3 C 0.88087(17) 0.9005(4) 0.2171(2)
H9_3 H 0.8697 0.9814 0.2151
C16_3 C 0.89963(18) 0.7156(4) 0.1586(3)
H10_3 H 0.9003 0.6711 0.1168
C17_3 C 0.91216(18) 0.7240(5) 0.2866(3)
H11_3 H 0.9223 0.6869 0.3307
C18_3 C 0.91447(19) 0.6601(5) 0.2243(3)
C19_2 C 0.97820(18) 0.3675(4) 0.2652(3)
C20_2 C 0.95682(19) 0.2560(5) 0.2793(3)
H12_2 H 0.9274 0.2558 0.2994
C21_2 C 0.9779(2) 0.1461(5) 0.2645(3)
H13_2 H 0.9627 0.0725 0.2738
C22_2 C 0.9541(2) 0.4855(5) 0.2853(3)
H14_3 H 0.9791 0.5405 0.3097
H15_2 H 0.9297 0.4684 0.3168
O3_3 O 0.86191(11) 0.8294(3) 0.02904(16)
O5_3 O 0.93062(15) 0.5398(3) 0.22014(18)
C38_3 C 0.97204(16) 0.8470(4) 0.5555(3)
H27_3 H 0.9449 0.8901 0.5678
C39_3 C 0.96609(16) 0.7289(4) 0.5293(3)
C42_2 C 0.73856(17) 0.3846(4) 0.5574(3)
H30_2 H 0.7301 0.3019 0.5559
C43_2 C 0.78653(17) 0.4160(4) 0.5470(3)
H31_2 H 0.8095 0.3560 0.5391
C44_3 C 0.79949(16) 0.5394(4) 0.5489(3)
C45_3 C 0.76451(18) 0.6243(5) 0.5652(3)
H32_3 H 0.7726 0.7071 0.5703
C46_3 C 0.71745(18) 0.5828(5) 0.5736(3)
H33_3 H 0.6938 0.6403 0.5828
C47_3 C 0.91961(16) 0.6571(5) 0.5172(3)
C48_3 C 0.84834(16) 0.5731(4) 0.5275(3)
N8_2 N 0.70395(13) 0.4648(4) 0.5691(2)
N9_3 N 0.91186(15) 0.5683(4) 0.4696(2)
N10_3 N 0.86645(14) 0.5151(4) 0.4768(2)
N11_3 N 0.87992(13) 0.6638(3) 0.5551(2)
N12_3 N 0.87388(15) 0.7361(4) 0.6152(2)
H34_3 H 0.8438 0.7220 0.6273
H35_3 H 0.8972 0.7156 0.6513
C1_3 C 0.98115(16) 0.9005(4) 0.9365(2)
H1_3 H 0.9778 0.9799 0.9185
C4_3 C 0.99262(18) 0.6730(5) 0.9907(3)
C5_3 C 0.94735(18) 0.7311(5) 0.9807(3)
H4_3 H 0.9199 0.6902 0.9937
N1_3 N 0.94081(13) 0.8447(4) 0.9531(2)
O6_3 O 0.84740(15) 0.7085(3) 0.8839(2)
H18_3 H 0.8193 0.7110 0.8610
N13_2 N 0.79605(13) 0.9648(4) 0.9309(2)
H37_3 H 0.871838 0.686659 0.851521
H3_4 H 0.4954 0.0953 0.0112
C11_4 C 0.39461(17) 0.3444(4) 0.2835(2)
C12_4 C 0.38909(16) 0.4121(5) 0.3505(2)
C13_4 C 0.36999(16) 0.3995(5) 0.0833(3)
C14_4 C 0.38368(17) 0.3371(4) 0.1547(2)
C15_4 C 0.38087(17) 0.4005(4) 0.2171(2)
H9_4 H 0.3697 0.4814 0.2151
C16_4 C 0.39963(18) 0.2156(4) 0.1586(3)
H10_4 H 0.4003 0.1711 0.1168
C17_4 C 0.41216(18) 0.2240(5) 0.2866(3)
H11_4 H 0.4223 0.1869 0.3307
C18_4 C 0.41447(19) 0.1601(5) 0.2243(3)
H14_4 H 0.4791 0.0405 0.3097
N3_2 N 0.58814(15) 0.0683(4) 0.0304(2)
N4_2 N 0.63355(14) 0.0151(4) 0.0232(2)
O3_4 O 0.36191(11) 0.3294(3) 0.02904(16)
O4_2 O 0.36863(14) 0.5124(3) 0.08034(18)
O5_4 O 0.43062(15) 0.0398(3) 0.22014(18)
C25_2 C 0.60539(17) 0.3444(4) 0.2165(2)
C26_2 C 0.61091(16) 0.4121(5) 0.1495(2)
C27_2 C 0.63001(16) 0.3995(5) 0.4167(3)
C28_2 C 0.61632(17) 0.3371(4) 0.3453(2)
C29_2 C 0.61913(17) 0.4005(4) 0.2829(2)
H19_2 H 0.6303 0.4814 0.2849
C30_2 C 0.60037(18) 0.2156(4) 0.3414(3)
H20_2 H 0.5997 0.1711 0.3832
C31_2 C 0.58784(18) 0.2240(5) 0.2134(3)
H21_2 H 0.5777 0.1869 0.1693
C32_2 C 0.58553(19) 0.1601(5) 0.2757(3)
H24_2 H 0.5209 0.0405 0.1903
O8_2 O 0.63809(11) 0.3294(3) 0.47096(16)
O9_4 O 0.63137(14) 0.5124(3) 0.41966(18)
O10_2 O 0.56938(15) 0.0398(3) 0.27986(18)
C37_2 C 0.51885(16) 0.4005(4) 0.5635(2)
H26_2 H 0.5222 0.4799 0.5815
C38_4 C 0.47204(16) 0.3470(4) 0.5555(3)
H27_4 H 0.4449 0.3901 0.5678
C39_4 C 0.46609(16) 0.2289(4) 0.5293(3)
C40_2 C 0.50738(18) 0.1730(5) 0.5093(3)
H28_2 H 0.5046 0.0953 0.4888
C41_2 C 0.55265(18) 0.2311(5) 0.5193(3)
H29_2 H 0.5801 0.1902 0.5063
C44_4 C 0.29949(16) 0.0394(4) 0.5489(3)
C45_4 C 0.26451(18) 0.1243(5) 0.5652(3)
H32_4 H 0.2726 0.2071 0.5703
C46_4 C 0.21745(18) 0.0828(5) 0.5736(3)
H33_4 H 0.1938 0.1403 0.5828
C47_4 C 0.41961(16) 0.1571(5) 0.5172(3)
C48_4 C 0.34834(16) 0.0731(4) 0.5275(3)
N7_2 N 0.55919(13) 0.3447(4) 0.5469(2)
N9_4 N 0.41186(15) 0.0683(4) 0.4696(2)
N10_4 N 0.36645(14) 0.0151(4) 0.4768(2)
N11_4 N 0.37992(13) 0.1638(3) 0.5551(2)
N12_4 N 0.37388(15) 0.2361(4) 0.6152(2)
H34_4 H 0.3438 0.2220 0.6273
H35_4 H 0.3972 0.2156 0.6513
O12_2 O 0.65260(15) 0.2085(3) 0.6161(2)
H36_2 H 0.6807 0.2110 0.6390
H38_2 H 0.628162 0.186659 0.648479
C1_4 C 0.48115(16) 0.4005(4) 0.9365(2)
H1_4 H 0.4778 0.4799 0.9185
C2_4 C 0.52796(16) 0.3470(4) 0.9445(3)
H2_4 H 0.5551 0.3901 0.9322
C3_4 C 0.53391(16) 0.2289(4) 0.9707(3)
C4_4 C 0.49262(18) 0.1730(5) 0.9907(3)
C5_4 C 0.44735(18) 0.2311(5) 0.9807(3)
H4_4 H 0.4199 0.1902 0.9937
C8_4 C 0.70051(16) 0.0394(4) 0.9511(3)
C9_4 C 0.73549(18) 0.1243(5) 0.9348(3)
H7_4 H 0.7274 0.2071 0.9297
C10_4 C 0.78255(18) 0.0828(5) 0.9264(3)
H8_4 H 0.8062 0.1403 0.9172
C23_4 C 0.58039(16) 0.1571(5) 0.9828(3)
C24_4 C 0.65166(16) 0.0731(4) 0.9725(3)
N1_4 N 0.44081(13) 0.3447(4) 0.9531(2)
N5_4 N 0.62008(13) 0.1638(3) 0.9449(2)
N6_4 N 0.62612(15) 0.2361(4) 0.8848(2)
H16_4 H 0.6562 0.2220 0.8727
H17_4 H 0.6028 0.2156 0.8487
O6_4 O 0.34740(15) 0.2085(3) 0.8839(2)
H18_4 H 0.3193 0.2110 0.8610
H37_4 H 0.371838 0.186659 0.851521
C6_4 C 0.76144(17) 0.8846(4) 0.9426(3)
H5_4 H 0.7699 0.8019 0.9441
C7_4 C 0.71347(17) 0.9160(4) 0.9530(3)
H6_4 H 0.6905 0.8560 0.9609
O16_2 O 0.10227(13) 0.8583(3) 0.09072(18)
O1_2 O 0.12409(12) 0.9750(3) 0.65562(16)
O4_3 O 0.13137(14) 0.9876(3) 0.91966(18)
Cu6_2 Cu 0.13204(2) 0.90439(5) 0.56375(3)
N3_3 N 0.08814(15) 0.5683(4) 0.0304(2)
N4_3 N 0.13355(14) 0.5151(4) 0.0232(2)
C25_3 C 0.10539(17) 0.8444(4) 0.2165(2)
C26_3 C 0.11091(16) 0.9121(5) 0.1495(2)
C27_3 C 0.13001(16) 0.8995(5) 0.4167(3)
C28_3 C 0.11632(17) 0.8371(4) 0.3453(2)
C29_3 C 0.11913(17) 0.9005(4) 0.2829(2)
H19_3 H 0.1303 0.9814 0.2849
C30_3 C 0.10037(18) 0.7156(4) 0.3414(3)
H20_3 H 0.0997 0.6711 0.3832
C31_3 C 0.08784(18) 0.7240(5) 0.2134(3)
H21_3 H 0.0777 0.6869 0.1693
C32_3 C 0.08553(19) 0.6601(5) 0.2757(3)
C33 C 0.02180(18) 0.3675(4) 0.2348(3)
C34 C 0.04318(19) 0.2560(5) 0.2207(3)
H22 H 0.0726 0.2558 0.2006
C35 C 0.0221(2) 0.1461(5) 0.2355(3)
H23 H 0.0373 0.0725 0.2262
C36 C 0.0459(2) 0.4855(5) 0.2147(3)
H24_3 H 0.0209 0.5405 0.1903
H25 H 0.0703 0.4684 0.1832
O8_3 O 0.13809(11) 0.8294(3) 0.47096(16)
O10_3 O 0.06938(15) 0.5398(3) 0.27986(18)
C37_3 C 0.01885(16) 0.9005(4) 0.5635(2)
H26_3 H 0.0222 0.9799 0.5815
C40_3 C 0.00738(18) 0.6730(5) 0.5093(3)
H28_3 H 0.0046 0.5953 0.4888
C41_3 C 0.05265(18) 0.7311(5) 0.5193(3)
H29_3 H 0.0801 0.6902 0.5063
N7_3 N 0.05919(13) 0.8447(4) 0.5469(2)
O12_3 O 0.15260(15) 0.7085(3) 0.6161(2)
H36_3 H 0.1807 0.7110 0.6390
N14 N 0.20395(13) 0.9648(4) 0.5691(2)
H38_3 H 0.128162 0.686659 0.648479
C19_3 C 0.47820(18) 0.8675(4) 0.2652(3)
C20_3 C 0.45682(19) 0.7560(5) 0.2793(3)
H12_3 H 0.4274 0.7558 0.2994
C21_3 C 0.4779(2) 0.6461(5) 0.2645(3)
H13_3 H 0.4627 0.5725 0.2738
C22_3 C 0.4541(2) 0.9855(5) 0.2853(3)
H15_3 H 0.4297 0.9684 0.3168
C33_2 C 0.52180(18) 0.8675(4) 0.2348(3)
C34_2 C 0.54318(19) 0.7560(5) 0.2207(3)
H22_2 H 0.5726 0.7558 0.2006
C35_2 C 0.5221(2) 0.6461(5) 0.2355(3)
H23_2 H 0.5373 0.5725 0.2262
C36_2 C 0.5459(2) 0.9855(5) 0.2147(3)
H25_2 H 0.5703 0.9684 0.1832
C42_3 C 0.23856(17) 0.8846(4) 0.5574(3)
H30_3 H 0.2301 0.8019 0.5559
C43_3 C 0.28653(17) 0.9160(4) 0.5470(3)
H31_3 H 0.3095 0.8560 0.5391
N3_4 N 0.91186(15) 0.4317(4) 0.9696(2)
N4_4 N 0.86645(14) 0.4849(4) 0.9768(2)
C25_4 C 0.89461(17) 0.1556(4) 0.7835(2)
C26_4 C 0.88909(16) 0.0879(5) 0.8505(2)
C27_4 C 0.86999(16) 0.1005(5) 0.5833(3)
C28_4 C 0.88368(17) 0.1629(4) 0.6547(2)
C29_4 C 0.88087(17) 0.0995(4) 0.7171(2)
H19_4 H 0.8697 0.0186 0.7151
C30_4 C 0.89963(18) 0.2844(4) 0.6586(3)
H20_4 H 0.9003 0.3289 0.6168
C31_4 C 0.91216(18) 0.2760(5) 0.7866(3)
H21_4 H 0.9223 0.3131 0.8307
C32_4 C 0.91447(19) 0.3399(5) 0.7243(3)
C33_3 C 0.97820(18) 0.6325(4) 0.7652(3)
C34_3 C 0.95682(19) 0.7440(5) 0.7793(3)
H22_3 H 0.9274 0.7442 0.7994
C35_3 C 0.9779(2) 0.8539(5) 0.7645(3)
H23_3 H 0.9627 0.9275 0.7738
C36_3 C 0.9541(2) 0.5145(5) 0.7853(3)
H24_4 H 0.9791 0.4595 0.8097
H25_3 H 0.9297 0.5316 0.8168
O7_2 O 0.89773(13) 0.1417(3) 0.90928(18)
O8_4 O 0.86191(11) 0.1706(3) 0.52904(16)
O10_4 O 0.93062(15) 0.4602(3) 0.72014(18)
C37_4 C 0.98115(16) 0.0995(4) 0.4365(2)
H26_4 H 0.9778 0.0201 0.4185
C40_4 C 0.99262(18) 0.3270(5) 0.4907(3)
H28_4 H 0.9954 0.4047 0.5112
C41_4 C 0.94735(18) 0.2689(5) 0.4807(3)
H29_4 H 0.9199 0.3098 0.4937
Cu2 Cu 0.86796(2) 0.09561(5) 0.43625(3)
N7_4 N 0.94081(13) 0.1553(4) 0.4531(2)
O12_4 O 0.84740(15) 0.2915(3) 0.3839(2)
H36_4 H 0.8193 0.2890 0.3610
N14_2 N 0.79605(13) 0.0352(4) 0.4309(2)
O13_2 O 0.87591(12) 0.0250(3) 0.34438(16)
H38_4 H 0.871838 0.313341 0.351521
C19_4 C 0.52180(18) 0.1325(4) 0.7348(3)
C20_4 C 0.54318(19) 0.2440(5) 0.7207(3)
H12_4 H 0.5726 0.2442 0.7006
C21_4 C 0.5221(2) 0.3539(5) 0.7355(3)
H13_4 H 0.5373 0.4275 0.7262
C22_4 C 0.5459(2) 0.0145(5) 0.7147(3)
H15_4 H 0.5703 0.0316 0.6832
C33_4 C 0.47820(18) 0.1325(4) 0.7652(3)
C34_4 C 0.45682(19) 0.2440(5) 0.7793(3)
H22_4 H 0.4274 0.2442 0.7994
C35_4 C 0.4779(2) 0.3539(5) 0.7645(3)
H23_4 H 0.4627 0.4275 0.7738
C36_4 C 0.4541(2) 0.0145(5) 0.7853(3)
H25_4 H 0.4297 0.0316 0.8168
C42_4 C 0.76144(17) 0.1154(4) 0.4426(3)
H30_4 H 0.7699 0.1981 0.4441
C43_4 C 0.71347(17) 0.0840(4) 0.4530(3)
H31_4 H 0.6905 0.1440 0.4609
O4_4 O 0.86863(14) 0.0124(3) 0.08034(18)
loop_
_geom_bond_atom_site_label_1
_geom_bond_atom_site_label_2
_geom_bond_site_symmetry_1
_geom_bond_site_symmetry_2
C1 H1 1_555 1_555
C5 C4 1_555 1_555
H4 C5 1_555 1_555
Cu1 N1 1_555 1_555
N1 C1 1_555 1_555
O6 Cu1 1_555 1_555
H18 O6 1_555 1_555
N13 Cu1 1_555 1_555
O14 Cu1 1_555 1_555
C5 N1 1_555 1_555
O6 H37 1_555 1_555
C11 C12 1_555 1_555
C13 C14 1_555 1_555
C14 C15 1_555 1_555
C15 C11 1_555 1_555
H9 C15 1_555 1_555
C16 C14 1_555 1_555
H10 C16 1_555 1_555
C17 C11 1_555 1_555
H11 C17 1_555 1_555
C18 C16 1_555 1_555
C19 C20 1_555 1_555
C20 H12 1_555 1_555
C21 C20 1_555 1_555
H13 C21 1_555 1_555
C22 C19 1_555 1_555
H14 C22 1_555 1_555
H15 C22 1_555 1_555
O2 C12 1_555 1_555
O3 C13 1_555 1_555
O5 C18 1_555 1_555
H27 C38 1_555 1_555
C39 C38 1_555 1_555
C42 H30 1_555 1_555
C43 C42 1_555 1_555
H31 C43 1_555 1_555
C44 C43 1_555 1_555
C45 C44 1_555 1_555
H32 C45 1_555 1_555
C46 C45 1_555 1_555
H33 C46 1_555 1_555
C47 C39 1_555 1_555
C48 C44 1_555 1_555
N8 C42 1_555 1_555
N9 C47 1_555 1_555
N10 C48 1_555 1_555
N11 C47 1_555 1_555
N12 N11 1_555 1_555
H34 N12 1_555 1_555
H35 N12 1_555 1_555
Cu4 N8 1_555 1_555
C17 C18 1_555 1_555
C22 O5 1_555 1_555
C46 N8 1_555 1_555
C48 N11 1_555 1_555
N9 N10 1_555 1_555
H2 C2 1_555 1_555
C3 C2 1_555 1_555
C6 H5 1_555 1_555
C7 C6 1_555 1_555
H6 C7 1_555 1_555
C8 C7 1_555 1_555
C9 C8 1_555 1_555
H7 C9 1_555 1_555
C10 C9 1_555 1_555
H8 C10 1_555 1_555
C23 C3 1_555 1_555
C24 C8 1_555 1_555
N2 C6 1_555 1_555
N5 C23 1_555 1_555
N6 N5 1_555 1_555
H16 N6 1_555 1_555
H17 N6 1_555 1_555
Cu3 N2 1_555 1_555
C10 N2 1_555 1_555
C24 N5 1_555 1_555
Cu5 O11 1_555 1_555
C6_2 H5_2 1_555 1_555
C7_2 C6_2 1_555 1_555
H6_2 C7_2 1_555 1_555
N13 C6_2 1_555 1_555
C1_2 H1_2 1_555 1_555
C2_2 C1_2 1_555 1_555
H2_2 C2_2 1_555 1_555
C3_2 C2_2 1_555 1_555
C4_2 C3_2 1_555 1_555
C5_2 C4_2 1_555 1_555
H4_2 C5_2 1_555 1_555
C9_2 C8_2 1_555 1_555
H7_2 C9_2 1_555 1_555
C10_2 C9_2 1_555 1_555
H8_2 C10_2 1_555 1_555
C23_2 C3_2 1_555 1_555
C24_2 C8_2 1_555 1_555
Cu3 N1_2 1_555 1_555
N1_2 C1_2 1_555 1_555
N5_2 C23_2 1_555 1_555
N6_2 N5_2 1_555 1_555
H16_2 N6_2 1_555 1_555
H17_2 N6_2 1_555 1_555
O6_2 Cu3 1_555 1_555
H18_2 O6_2 1_555 1_555
O14_2 Cu3 1_555 1_555
O16 Cu3 1_555 1_555
C5_2 N1_2 1_555 1_555
C24_2 N5_2 1_555 1_555
O6_2 H37_2 1_555 1_555
C11_2 C12_2 1_555 1_555
C12_2 O1 1_555 1_555
C13_2 C14_2 1_555 1_555
C14_2 C15_2 1_555 1_555
C15_2 C11_2 1_555 1_555
H9_2 C15_2 1_555 1_555
C16_2 C14_2 1_555 1_555
H10_2 C16_2 1_555 1_555
C17_2 C11_2 1_555 1_555
H11_2 C17_2 1_555 1_555
C18_2 C16_2 1_555 1_555
O1 Cu6 1_555 1_555
O2_2 C12_2 1_555 1_555
O3_2 C13_2 1_555 1_555
O4 C13_2 1_555 1_555
O5_2 C18_2 1_555 1_555
C25 C26 1_555 1_555
C26 O7 1_555 1_555
C27 C28 1_555 1_555
C28 C29 1_555 1_555
C29 C25 1_555 1_555
H19 C29 1_555 1_555
C30 C28 1_555 1_555
H20 C30 1_555 1_555
C31 C25 1_555 1_555
H21 C31 1_555 1_555
C32 C30 1_555 1_555
O7 Cu5_2 1_555 1_555
O8 C27 1_555 1_555
O9_2 C27 1_555 1_555
O10 C32 1_555 1_555
O11_2 C26 1_555 1_555
C37 H26 1_555 1_555
C38_2 C37 1_555 1_555
H27_2 C38_2 1_555 1_555
C39_2 C38_2 1_555 1_555
C40 C39_2 1_555 1_555
H28 C40 1_555 1_555
C41 C40 1_555 1_555
H29 C41 1_555 1_555
C45_2 C44_2 1_555 1_555
H32_2 C45_2 1_555 1_555
C46_2 C45_2 1_555 1_555
H33_2 C46_2 1_555 1_555
C47_2 C39_2 1_555 1_555
C48_2 C44_2 1_555 1_555
Cu4 O8 1_555 1_555
N7 C37 1_555 1_555
N9_2 C47_2 1_555 1_555
N10_2 C48_2 1_555 1_555
N11_2 C47_2 1_555 1_555
N12_2 N11_2 1_555 1_555
H34_2 N12_2 1_555 1_555
H35_2 N12_2 1_555 1_555
O12 Cu4 1_555 1_555
H36 O12 1_555 1_555
Cu5_2 O11_2 1_555 1_555
Cu6 O2_2 1_555 1_555
O13 Cu4 1_555 1_555
O15_2 Cu4 1_555 1_555
C17_2 C18_2 1_555 1_555
N3 N4 1_555 1_555
C31 C32 1_555 1_555
C41 N7 1_555 1_555
C48_2 N11_2 1_555 1_555
Cu4 N7 1_555 1_555
N9_2 N10_2 1_555 1_555
O12 H38 1_555 1_555
H2_3 C2_3 1_555 1_555
C3_3 C2_3 1_555 1_555
C6_3 H5_3 1_555 1_555
C7_3 C6_3 1_555 1_555
H6_3 C7_3 1_555 1_555
C8_3 C7_3 1_555 1_555
C9_3 C8_3 1_555 1_555
H7_3 C9_3 1_555 1_555
C10_3 C9_3 1_555 1_555
H8_3 C10_3 1_555 1_555
C23_3 C3_3 1_555 1_555
C24_3 C8_3 1_555 1_555
N2_2 C6_3 1_555 1_555
N5_3 C23_3 1_555 1_555
N6_3 N5_3 1_555 1_555
H16_3 N6_3 1_555 1_555
H17_3 N6_3 1_555 1_555
Cu5_2 N2_2 1_555 1_555
C10_3 N2_2 1_555 1_555
C24_3 N5_3 1_555 1_555
C11_3 C12_3 1_555 1_555
C13_3 C14_3 1_555 1_555
C14_3 C15_3 1_555 1_555
C15_3 C11_3 1_555 1_555
H9_3 C15_3 1_555 1_555
C16_3 C14_3 1_555 1_555
H10_3 C16_3 1_555 1_555
C17_3 C11_3 1_555 1_555
H11_3 C17_3 1_555 1_555
C18_3 C16_3 1_555 1_555
C19_2 C20_2 1_555 1_555
C20_2 H12_2 1_555 1_555
C21_2 C20_2 1_555 1_555
H13_2 C21_2 1_555 1_555
C22_2 C19_2 1_555 1_555
H14_3 C22_2 1_555 1_555
H15_2 C22_2 1_555 1_555
O15 C12_3 1_555 1_555
O3_3 C13_3 1_555 1_555
O5_3 C18_3 1_555 1_555
H27_3 C38_3 1_555 1_555
C39_3 C38_3 1_555 1_555
C42_2 H30_2 1_555 1_555
C43_2 C42_2 1_555 1_555
H31_2 C43_2 1_555 1_555
C44_3 C43_2 1_555 1_555
C45_3 C44_3 1_555 1_555
H32_3 C45_3 1_555 1_555
C46_3 C45_3 1_555 1_555
H33_3 C46_3 1_555 1_555
C47_3 C39_3 1_555 1_555
C48_3 C44_3 1_555 1_555
N8_2 C42_2 1_555 1_555
N9_3 C47_3 1_555 1_555
N10_3 C48_3 1_555 1_555
N11_3 C47_3 1_555 1_555
N12_3 N11_3 1_555 1_555
H34_3 N12_3 1_555 1_555
H35_3 N12_3 1_555 1_555
Cu6 N8_2 1_555 1_555
C17_3 C18_3 1_555 1_555
C22_2 O5_3 1_555 1_555
C46_3 N8_2 1_555 1_555
C48_3 N11_3 1_555 1_555
N9_3 N10_3 1_555 1_555
C1_3 H1_3 1_555 1_555
C5_3 C4_3 1_555 1_555
H4_3 C5_3 1_555 1_555
Cu5 N1_3 1_555 1_555
N1_3 C1_3 1_555 1_555
O6_3 Cu5 1_555 1_555
H18_3 O6_3 1_555 1_555
N13_2 Cu5 1_555 1_555
C5_3 N1_3 1_555 1_555
O6_3 H37_3 1_555 1_555
C11_4 C12_4 1_555 1_555
C12_4 O13 1_555 1_555
C13_4 C14_4 1_555 1_555
C14_4 C15_4 1_555 1_555
C15_4 C11_4 1_555 1_555
H9_4 C15_4 1_555 1_555
C16_4 C14_4 1_555 1_555
H10_4 C16_4 1_555 1_555
C17_4 C11_4 1_555 1_555
H11_4 C17_4 1_555 1_555
C18_4 C16_4 1_555 1_555
O15_2 C12_4 1_555 1_555
O3_4 C13_4 1_555 1_555
O4_2 C13_4 1_555 1_555
O5_4 C18_4 1_555 1_555
C25_2 C26_2 1_555 1_555
C26_2 O16 1_555 1_555
C27_2 C28_2 1_555 1_555
C28_2 C29_2 1_555 1_555
C29_2 C25_2 1_555 1_555
H19_2 C29_2 1_555 1_555
C30_2 C28_2 1_555 1_555
H20_2 C30_2 1_555 1_555
C31_2 C25_2 1_555 1_555
H21_2 C31_2 1_555 1_555
C32_2 C30_2 1_555 1_555
O8_2 C27_2 1_555 1_555
O9_4 C27_2 1_555 1_555
O10_2 C32_2 1_555 1_555
O14_2 C26_2 1_555 1_555
C37_2 H26_2 1_555 1_555
C38_4 C37_2 1_555 1_555
H27_4 C38_4 1_555 1_555
C39_4 C38_4 1_555 1_555
C40_2 C39_4 1_555 1_555
H28_2 C40_2 1_555 1_555
C41_2 C40_2 1_555 1_555
H29_2 C41_2 1_555 1_555
C45_4 C44_4 1_555 1_555
H32_4 C45_4 1_555 1_555
C46_4 C45_4 1_555 1_555
H33_4 C46_4 1_555 1_555
C47_4 C39_4 1_555 1_555
C48_4 C44_4 1_555 1_555
Cu6 O8_2 1_555 1_555
N7_2 C37_2 1_555 1_555
N9_4 C47_4 1_555 1_555
N10_4 C48_4 1_555 1_555
N11_4 C47_4 1_555 1_555
N12_4 N11_4 1_555 1_555
H34_4 N12_4 1_555 1_555
H35_4 N12_4 1_555 1_555
O12_2 Cu6 1_555 1_555
H36_2 O12_2 1_555 1_555
C17_4 C18_4 1_555 1_555
N3_2 N4_2 1_555 1_555
C31_2 C32_2 1_555 1_555
C41_2 N7_2 1_555 1_555
C48_4 N11_4 1_555 1_555
Cu6 N7_2 1_555 1_555
N9_4 N10_4 1_555 1_555
O12_2 H38_2 1_555 1_555
C1_4 H1_4 1_555 1_555
C2_4 C1_4 1_555 1_555
H2_4 C2_4 1_555 1_555
C3_4 C2_4 1_555 1_555
C4_4 C3_4 1_555 1_555
C5_4 C4_4 1_555 1_555
H4_4 C5_4 1_555 1_555
C9_4 C8_4 1_555 1_555
H7_4 C9_4 1_555 1_555
C10_4 C9_4 1_555 1_555
H8_4 C10_4 1_555 1_555
C23_4 C3_4 1_555 1_555
C24_4 C8_4 1_555 1_555
Cu5_2 N1_4 1_555 1_555
N1_4 C1_4 1_555 1_555
N5_4 C23_4 1_555 1_555
N6_4 N5_4 1_555 1_555
H16_4 N6_4 1_555 1_555
H17_4 N6_4 1_555 1_555
O6_4 Cu5_2 1_555 1_555
H18_4 O6_4 1_555 1_555
C5_4 N1_4 1_555 1_555
C24_4 N5_4 1_555 1_555
O6_4 H37_4 1_555 1_555
C6_4 H5_4 1_555 1_555
C7_4 C6_4 1_555 1_555
H6_4 C7_4 1_555 1_555
N13_2 C6_4 1_555 1_555
O1_2 Cu6_2 1_555 1_555
C25_3 C26_3 1_555 1_555
C26_3 O16_2 1_555 1_555
C27_3 C28_3 1_555 1_555
C28_3 C29_3 1_555 1_555
C29_3 C25_3 1_555 1_555
H19_3 C29_3 1_555 1_555
C30_3 C28_3 1_555 1_555
H20_3 C30_3 1_555 1_555
C31_3 C25_3 1_555 1_555
H21_3 C31_3 1_555 1_555
C32_3 C30_3 1_555 1_555
C34 C33 1_555 1_555
H22 C34 1_555 1_555
H23 C35 1_555 1_555
C36 C33 1_555 1_555
H24_3 C36 1_555 1_555
H25 C36 1_555 1_555
O8_3 C27_3 1_555 1_555
O10_3 C32_3 1_555 1_555
C37_3 H26_3 1_555 1_555
H28_3 C40_3 1_555 1_555
C41_3 C40_3 1_555 1_555
H29_3 C41_3 1_555 1_555
Cu6_2 O8_3 1_555 1_555
N7_3 C37_3 1_555 1_555
O12_3 Cu6_2 1_555 1_555
H36_3 O12_3 1_555 1_555
N14 Cu6_2 1_555 1_555
N3_3 N4_3 1_555 1_555
C31_3 C32_3 1_555 1_555
C34 C35 1_555 1_555
C36 O10_3 1_555 1_555
C41_3 N7_3 1_555 1_555
Cu6_2 N7_3 1_555 1_555
O12_3 H38_3 1_555 1_555
C19_3 C20_3 1_555 1_555
C20_3 H12_3 1_555 1_555
C21_3 C20_3 1_555 1_555
H13_3 C21_3 1_555 1_555
C22_3 C19_3 1_555 1_555
H15_3 C22_3 1_555 1_555
C33_2 C19_3 1_555 1_555
C34_2 C33_2 1_555 1_555
H22_2 C34_2 1_555 1_555
C35_2 C21_3 1_555 1_555
H23_2 C35_2 1_555 1_555
C36_2 C33_2 1_555 1_555
H25_2 C36_2 1_555 1_555
C42_3 H30_3 1_555 1_555
C43_3 C42_3 1_555 1_555
H31_3 C43_3 1_555 1_555
N14 C42_3 1_555 1_555
C34_2 C35_2 1_555 1_555
C25_4 C26_4 1_555 1_555
C26_4 O7_2 1_555 1_555
C27_4 C28_4 1_555 1_555
C28_4 C29_4 1_555 1_555
C29_4 C25_4 1_555 1_555
H19_4 C29_4 1_555 1_555
C30_4 C28_4 1_555 1_555
H20_4 C30_4 1_555 1_555
C31_4 C25_4 1_555 1_555
H21_4 C31_4 1_555 1_555
C32_4 C30_4 1_555 1_555
C34_3 C33_3 1_555 1_555
H22_3 C34_3 1_555 1_555
H23_3 C35_3 1_555 1_555
C36_3 C33_3 1_555 1_555
H24_4 C36_3 1_555 1_555
H25_3 C36_3 1_555 1_555
O8_4 C27_4 1_555 1_555
O10_4 C32_4 1_555 1_555
C37_4 H26_4 1_555 1_555
H28_4 C40_4 1_555 1_555
C41_4 C40_4 1_555 1_555
H29_4 C41_4 1_555 1_555
Cu2 O8_4 1_555 1_555
N7_4 C37_4 1_555 1_555
O12_4 Cu2 1_555 1_555
H36_4 O12_4 1_555 1_555
N14_2 Cu2 1_555 1_555
O13_2 Cu2 1_555 1_555
N3_4 N4_4 1_555 1_555
C31_4 C32_4 1_555 1_555
C34_3 C35_3 1_555 1_555
C36_3 O10_4 1_555 1_555
C41_4 N7_4 1_555 1_555
Cu2 N7_4 1_555 1_555
O12_4 H38_4 1_555 1_555
C19_4 C20_4 1_555 1_555
C20_4 H12_4 1_555 1_555
C21_4 C20_4 1_555 1_555
H13_4 C21_4 1_555 1_555
C22_4 C19_4 1_555 1_555
H15_4 C22_4 1_555 1_555
C33_4 C19_4 1_555 1_555
C34_4 C33_4 1_555 1_555
H22_4 C34_4 1_555 1_555
C35_4 C21_4 1_555 1_555
H23_4 C35_4 1_555 1_555
C36_4 C33_4 1_555 1_555
H25_4 C36_4 1_555 1_555
C42_4 H30_4 1_555 1_555
C43_4 C42_4 1_555 1_555
H31_4 C43_4 1_555 1_555
N14_2 C42_4 1_555 1_555
C34_4 C35_4 1_555 1_555

#END
