
###############################################################################
#
# This file contains modified crystal structure data generated from the
# MOF subset of the Cambridge Structural Database (CSD) v543 
# hosted by the Cambridge Crystallographic Data Centre (CCDC).
#
# This work is licensed under the Creative Commons
# Attribution-NonCommercial-ShareAlike 4.0 International License.
# To view a copy of this license, visit
# http://creativecommons.org/licenses/by-nc-sa/4.0/
# or send a letter to
# Creative Commons, PO Box 1866, Mountain View, CA 94042, USA.
#
# CIF created using the CSD Python API on 29 September 2022
# The structure has been converted into the P1 space group
# The structure has a 3D framework
# The original CSD entry VIDPIJ is in the tetragonal crystal system
# The framework has been calculated to contain at least 10.0% void space
# The void calculation uses a probe of radius 1.32A, grid spacing 0.4
# H atom positions have been added when not included in the experimental data
# Generated hydrogen atom positions removed from atoms on special positions
#
###############################################################################

data_VIDPIJ
_chemical_formula_moiety         '(C96 H116 Mn42 N116 O146)n'
_symmetry_cell_setting           triclinic
_symmetry_space_group_name_H-M   'P 1'
_symmetry_Int_Tables_number      1
_space_group_name_Hall           'P 1'
loop_
_symmetry_equiv_pos_site_id
_symmetry_equiv_pos_as_xyz
1 x,y,z
_cell_length_a                   20.019(3)
_cell_length_b                   20.019(3)
_cell_length_c                   18.861(4)
_cell_angle_alpha                90
_cell_angle_beta                 90
_cell_angle_gamma                90
_cell_volume                     7558.74
loop_
_atom_site_label
_atom_site_type_symbol
_atom_site_fract_x
_atom_site_fract_y
_atom_site_fract_z
Mn4 Mn 0.05178(7) 0.20402(7) 0.44707(8)
Mn5 Mn 0.07860(8) 0.20631(10) 0.77516(8)
Mn6 Mn 0.07194(10) 0.26829(18) 0.12050(11)
O3 O 0.0836(7) 0.3817(6) 0.1209(8)
H1 H 0.0735 0.4183 0.1411
H2 H 0.1185 0.3927 0.0981
O5 O 0.0885(6) 0.1011(6) 0.8087(6)
H3 H 0.0980 0.0718 0.7777
H4 H 0.1010 0.0716 0.8383
O7 O 0.0747(6) 0.3132(6) 0.7365(6)
H5 H 0.0596 0.3468 0.7589
H6 H 0.0624 0.3280 0.6963
O12 O 0.1078(3) 0.2258(3) 0.3434(3)
O14 O 0.0974(4) 0.2567(5) 0.2301(4)
O15 O 0.0960(3) 0.1739(4) 0.6677(3)
O16 O 0.1052(3) 0.1767(3) 0.5514(3)
N10 N 0.0694(5) 0.3092(5) 0.4699(5)
N11 N 0.0624(9) 0.3299(9) 0.5282(13)
N12 N 0.0566(15) 0.3542(12) 0.5956(14)
N13 N 0.0524(5) 0.1017(5) 0.4161(4)
N14 N 0.0306(13) 0.0861(11) 0.3473(19)
N15 N 0.0302(12) 0.0682(9) 0.2713(10)
C1 C 0.0718(5) 0.1800(5) 0.6076(5)
C2 C 0.0725(5) 0.2419(5) 0.2886(5)
O19 O 0.0626(9) 0.1802(13) 0.1240(7)
Mn7 Mn 0.21956(7) 0.21013(7) 0.34803(7)
Mn8 Mn 0.21578(7) 0.16469(6) 0.55409(7)
O20 O 0.2364(4) 0.2387(3) 0.6319(3)
O21 O 0.2766(4) 0.3138(3) 0.7038(3)
O23 O 0.2156(4) 0.2390(3) 0.4705(3)
O25 O 0.2281(4) 0.3214(4) 0.3961(3)
O27 O 0.3063(4) 0.1265(4) 0.8290(4)
O28 O 0.2855(7) 0.0240(5) 0.8629(5)
O29 O 0.3282(4) 0.1616(5) 0.5382(4)
H19 H 0.3424 0.1827 0.5742
H20 H 0.3671 0.1775 0.5319
O31 O 0.3268(4) 0.2100(5) 0.3475(5)
H21 H 0.3484 0.2423 0.3294
H22 H 0.3528 0.2052 0.3828
O35 O 0.1990(5) 0.0253(4) 0.2340(4)
O36 O 0.2112(4) 0.1327(3) 0.2627(3)
N16 N 0.2388(7) 0.4144(5) 0.4949(5)
N17 N 0.2498(8) 0.4523(4) 0.5527(5)
N18 N 0.2578(6) 0.4138(5) 0.6086(4)
N19 N 0.2540(4) 0.1105(4) 0.7034(4)
N20 N 0.2320(4) 0.0912(4) 0.6395(4)
N21 N 0.2262(4) 0.0253(4) 0.6371(4)
N22 N 0.2107(4) 0.1111(4) 0.3997(4)
N23 N 0.2062(4) 0.0905(4) 0.4656(4)
N24 N 0.1954(4) 0.0244(4) 0.4684(4)
C15 C 0.2012(5) 0.0558(5) 0.3572(5)
C16 C 0.2261(5) 0.2997(5) 0.4603(5)
C17 C 0.2445(5) 0.0004(5) 0.7012(5)
C18 C 0.2604(5) 0.0565(5) 0.7435(4)
C19 C 0.2531(5) 0.2961(5) 0.6438(5)
C20 C 0.2032(6) 0.0704(5) 0.2780(5)
C21 C 0.2355(6) 0.3497(5) 0.5171(5)
C22 C 0.1934(5) 0.0019(5) 0.4008(4)
C23 C 0.2484(6) 0.3497(5) 0.5877(5)
C24 C 0.2875(6) 0.0689(5) 0.8176(5)
Mn14 Mn 0.29018(7) 0.20982(7) 0.7500
Mn17 Mn 0.29369(10) 0.42140(8) 0.72484(8)
Mn19 Mn 0.23171(18) 0.42806(10) 0.37950(11)
O38 O 0.1862(3) 0.2234(4) 0.7962(3)
O41 O 0.1786(4) 0.2719(4) 0.1039(3)
O44 O 0.2263(3) 0.2737(3) 0.2500
N31 N 0.0856(5) 0.2612(7) 0.0051(5)
N33 N 0.0862(5) 0.2422(6) 0.8914(4)
H28 H 0.256257 0.0825218 0.466812
Mn9 Mn 0.20402(7) 0.94822(7) 0.55293(8)
Mn10 Mn 0.20631(10) 0.92140(8) 0.22484(8)
Mn11 Mn 0.26829(18) 0.92806(10) 0.87950(11)
O22 O 0.3817(6) 0.9164(7) 0.8791(8)
H13 H 0.4183 0.9265 0.8589
H14 H 0.3927 0.8815 0.9019
O24 O 0.1011(6) 0.9115(6) 0.1913(6)
H15 H 0.0718 0.9020 0.2223
H16 H 0.0716 0.8990 0.1617
O26 O 0.3132(6) 0.9253(6) 0.2635(6)
H17 H 0.3468 0.9404 0.2411
H18 H 0.3280 0.9376 0.3037
O30 O 0.2258(3) 0.8922(3) 0.6566(3)
O32 O 0.2567(5) 0.9026(4) 0.7699(4)
O33 O 0.1739(4) 0.9040(3) 0.3323(3)
O34 O 0.1767(3) 0.8948(3) 0.4486(3)
N25 N 0.3092(5) 0.9306(5) 0.5301(5)
N26 N 0.3299(9) 0.9376(9) 0.4718(13)
N27 N 0.3542(12) 0.9434(15) 0.4044(14)
N28 N 0.1017(5) 0.9476(5) 0.5839(4)
N29 N 0.0861(11) 0.9694(13) 0.6527(19)
N30 N 0.0682(9) 0.9698(12) 0.7287(10)
C13 C 0.1800(5) 0.9282(5) 0.3924(5)
C14 C 0.2419(5) 0.9275(5) 0.7114(5)
O37 O 0.1802(13) 0.9374(9) 0.8760(7)
Mn12 Mn 0.21013(7) 0.78044(7) 0.65197(7)
Mn15 Mn 0.16469(6) 0.78422(7) 0.44591(7)
O40 O 0.2234(4) 0.8138(3) 0.2038(3)
O42 O 0.2719(4) 0.8214(4) 0.8961(3)
N32 N 0.2612(7) 0.9144(5) 0.9949(5)
N34 N 0.2422(6) 0.9138(5) 0.1086(4)
Mn1 Mn 0.78987(7) 0.21956(7) 0.65197(7)
Mn2 Mn 0.79018(7) 0.29018(7) 0.2500
Mn3 Mn 0.83531(6) 0.21578(7) 0.44591(7)
O1 O 0.7613(3) 0.2364(4) 0.3681(3)
O2 O 0.6862(3) 0.2766(4) 0.2962(3)
O4 O 0.7610(3) 0.2156(4) 0.5295(3)
O6 O 0.6786(4) 0.2281(4) 0.6039(3)
O8 O 0.8735(4) 0.3063(4) 0.1710(4)
O9 O 0.7263(3) 0.2263(3) 0.7500
H7 H 0.7204 0.1844 0.7541
O10 O 0.9760(5) 0.2855(7) 0.1371(5)
O11 O 0.8384(5) 0.3282(4) 0.4618(4)
H8 H 0.8173 0.3424 0.4258
H9 H 0.8225 0.3671 0.4681
O13 O 0.7900(5) 0.3268(4) 0.6525(5)
H10 H 0.7577 0.3484 0.6706
H11 H 0.7948 0.3528 0.6172
O17 O 0.9747(4) 0.1990(5) 0.7660(4)
O18 O 0.8673(3) 0.2112(4) 0.7373(3)
N1 N 0.5856(5) 0.2388(7) 0.5051(5)
N2 N 0.5477(4) 0.2498(8) 0.4473(5)
N3 N 0.5862(5) 0.2578(6) 0.3914(4)
N4 N 0.8895(4) 0.2540(4) 0.2966(4)
N5 N 0.9088(4) 0.2320(4) 0.3605(4)
N6 N 0.9747(4) 0.2262(4) 0.3629(4)
N7 N 0.8889(4) 0.2107(4) 0.6003(4)
N8 N 0.9095(4) 0.2062(4) 0.5344(4)
N9 N 0.9756(4) 0.1954(4) 0.5316(4)
C3 C 0.9442(5) 0.2012(5) 0.6428(5)
C4 C 0.7003(5) 0.2261(5) 0.5397(5)
C5 C 0.9996(5) 0.2445(5) 0.2988(5)
C6 C 0.9435(5) 0.2604(5) 0.2565(4)
C7 C 0.7039(5) 0.2531(5) 0.3562(5)
C8 C 0.9296(5) 0.2032(6) 0.7220(5)
C9 C 0.6503(5) 0.2355(6) 0.4829(5)
C10 C 0.9981(5) 0.1934(5) 0.5992(4)
C11 C 0.6503(5) 0.2484(6) 0.4123(5)
C12 C 0.9311(5) 0.2875(6) 0.1824(5)
H12 H 0.6844 0.2204 0.7459
Mn13 Mn 0.71956(7) 0.28987(7) 0.84803(7)
Mn16 Mn 0.57860(8) 0.29369(10) 0.27516(8)
Mn18 Mn 0.57194(10) 0.23171(18) 0.62050(11)
O39 O 0.7766(4) 0.1862(3) 0.2038(3)
O43 O 0.8063(4) 0.3735(4) 0.3290(4)
O45 O 0.7742(3) 0.1078(3) 0.6566(3)
O46 O 0.8233(3) 0.1052(3) 0.4486(3)
N35 N 0.7540(4) 0.3895(4) 0.2034(4)
H25 H 0.917478 0.256257 0.533188
Mn2_2 Mn 0.20982(7) 0.70982(7) 0.2500
O1_2 O 0.2387(3) 0.7636(4) 0.3681(3)
O2_2 O 0.3138(3) 0.7234(4) 0.2962(3)
O4_2 O 0.2390(3) 0.7844(4) 0.5295(3)
O6_2 O 0.3214(4) 0.7719(4) 0.6039(3)
O8_2 O 0.1265(4) 0.6937(4) 0.1710(4)
O9_2 O 0.2737(3) 0.7737(3) 0.7500
H7_2 H 0.2796 0.8156 0.7541
O10_2 O 0.0240(5) 0.7145(7) 0.1371(5)
O11_2 O 0.1616(5) 0.6718(4) 0.4618(4)
H8_2 H 0.1827 0.6576 0.4258
H9_2 H 0.1775 0.6329 0.4681
O13_2 O 0.2100(5) 0.6732(4) 0.6525(5)
H10_2 H 0.2423 0.6516 0.6706
H11_2 H 0.2052 0.6472 0.6172
O17_2 O 0.0253(4) 0.8010(5) 0.7660(4)
O18_2 O 0.1327(3) 0.7888(4) 0.7373(3)
N1_2 N 0.4144(5) 0.7612(7) 0.5051(5)
N2_2 N 0.4523(4) 0.7502(8) 0.4473(5)
N3_2 N 0.4138(5) 0.7422(6) 0.3914(4)
N4_2 N 0.1105(4) 0.7460(4) 0.2966(4)
N5_2 N 0.0912(4) 0.7680(4) 0.3605(4)
N6_2 N 0.0253(4) 0.7738(4) 0.3629(4)
N7_2 N 0.1111(4) 0.7893(4) 0.6003(4)
N8_2 N 0.0905(4) 0.7938(4) 0.5344(4)
N9_2 N 0.0244(4) 0.8046(4) 0.5316(4)
C3_2 C 0.0558(5) 0.7988(5) 0.6428(5)
C4_2 C 0.2997(5) 0.7739(5) 0.5397(5)
C5_2 C 0.0004(5) 0.7555(5) 0.2988(5)
C6_2 C 0.0565(5) 0.7396(5) 0.2565(4)
C7_2 C 0.2961(5) 0.7469(5) 0.3562(5)
C8_2 C 0.0704(5) 0.7968(6) 0.7220(5)
C9_2 C 0.3497(5) 0.7645(6) 0.4829(5)
C10_2 C 0.0019(5) 0.8066(5) 0.5992(4)
C11_2 C 0.3497(5) 0.7516(6) 0.4123(5)
C12_2 C 0.0689(5) 0.7125(6) 0.1824(5)
H12_2 H 0.3156 0.7796 0.7459
Mn13_2 Mn 0.28044(7) 0.71013(7) 0.84803(7)
Mn16_2 Mn 0.42140(8) 0.70631(10) 0.27516(8)
Mn18_2 Mn 0.42806(10) 0.76829(18) 0.62050(11)
O43_2 O 0.1937(4) 0.6265(4) 0.3290(4)
N35_2 N 0.2460(4) 0.6105(4) 0.2034(4)
H25_2 H 0.0825218 0.743743 0.533188
Mn9_2 Mn 0.79598(7) 0.05178(7) 0.55293(8)
Mn10_2 Mn 0.79369(10) 0.07860(8) 0.22484(8)
Mn11_2 Mn 0.73171(18) 0.07194(10) 0.87950(11)
O22_2 O 0.6183(6) 0.0836(7) 0.8791(8)
H13_2 H 0.5817 0.0735 0.8589
H14_2 H 0.6073 0.1185 0.9019
O24_2 O 0.8989(6) 0.0885(6) 0.1913(6)
H15_2 H 0.9282 0.0980 0.2223
H16_2 H 0.9284 0.1010 0.1617
O26_2 O 0.6868(6) 0.0747(6) 0.2635(6)
H17_2 H 0.6532 0.0596 0.2411
H18_2 H 0.6720 0.0624 0.3037
O32_2 O 0.7433(5) 0.0974(4) 0.7699(4)
O33_2 O 0.8261(4) 0.0960(3) 0.3323(3)
N25_2 N 0.6908(5) 0.0694(5) 0.5301(5)
N26_2 N 0.6701(9) 0.0624(9) 0.4718(13)
N27_2 N 0.6458(12) 0.0566(15) 0.4044(14)
N28_2 N 0.8983(5) 0.0524(5) 0.5839(4)
N29_2 N 0.9139(11) 0.0306(13) 0.6527(19)
N30_2 N 0.9318(9) 0.0302(12) 0.7287(10)
C13_2 C 0.8200(5) 0.0718(5) 0.3924(5)
C14_2 C 0.7581(5) 0.0725(5) 0.7114(5)
O37_2 O 0.8198(13) 0.0626(9) 0.8760(7)
O42_2 O 0.7281(4) 0.1786(4) 0.8961(3)
N32_2 N 0.7388(7) 0.0856(5) 0.9949(5)
N34_2 N 0.7578(6) 0.0862(5) 0.1086(4)
Mn4_2 Mn 0.94822(7) 0.79598(7) 0.44707(8)
Mn5_2 Mn 0.92140(8) 0.79369(10) 0.77516(8)
Mn6_2 Mn 0.92806(10) 0.73171(18) 0.12050(11)
O3_2 O 0.9164(7) 0.6183(6) 0.1209(8)
H1_2 H 0.9265 0.5817 0.1411
H2_2 H 0.8815 0.6073 0.0981
O5_2 O 0.9115(6) 0.8989(6) 0.8087(6)
H3_2 H 0.9020 0.9282 0.7777
H4_2 H 0.8990 0.9284 0.8383
O7_2 O 0.9253(6) 0.6868(6) 0.7365(6)
H5_2 H 0.9404 0.6532 0.7589
H6_2 H 0.9376 0.6720 0.6963
O12_2 O 0.8922(3) 0.7742(3) 0.3434(3)
O14_2 O 0.9026(4) 0.7433(5) 0.2301(4)
O15_2 O 0.9040(3) 0.8261(4) 0.6677(3)
O16_2 O 0.8948(3) 0.8233(3) 0.5514(3)
N10_2 N 0.9306(5) 0.6908(5) 0.4699(5)
N11_2 N 0.9376(9) 0.6701(9) 0.5282(13)
N12_2 N 0.9434(15) 0.6458(12) 0.5956(14)
N13_2 N 0.9476(5) 0.8983(5) 0.4161(4)
N14_2 N 0.9694(13) 0.9139(11) 0.3473(19)
N15_2 N 0.9698(12) 0.9318(9) 0.2713(10)
C1_2 C 0.9282(5) 0.8200(5) 0.6076(5)
C2_2 C 0.9275(5) 0.7581(5) 0.2886(5)
O19_2 O 0.9374(9) 0.8198(13) 0.1240(7)
Mn7_2 Mn 0.78044(7) 0.78987(7) 0.34803(7)
Mn8_2 Mn 0.78422(7) 0.83531(6) 0.55409(7)
O20_2 O 0.7636(4) 0.7613(3) 0.6319(3)
O21_2 O 0.7234(4) 0.6862(3) 0.7038(3)
O23_2 O 0.7844(4) 0.7610(3) 0.4705(3)
O25_2 O 0.7719(4) 0.6786(4) 0.3961(3)
O27_2 O 0.6937(4) 0.8735(4) 0.8290(4)
O28_2 O 0.7145(7) 0.9760(5) 0.8629(5)
O29_2 O 0.6718(4) 0.8384(5) 0.5382(4)
H19_2 H 0.6576 0.8173 0.5742
H20_2 H 0.6329 0.8225 0.5319
O31_2 O 0.6732(4) 0.7900(5) 0.3475(5)
H21_2 H 0.6516 0.7577 0.3294
H22_2 H 0.6472 0.7948 0.3828
O35_2 O 0.8010(5) 0.9747(4) 0.2340(4)
O36_2 O 0.7888(4) 0.8673(3) 0.2627(3)
N16_2 N 0.7612(7) 0.5856(5) 0.4949(5)
N17_2 N 0.7502(8) 0.5477(4) 0.5527(5)
N18_2 N 0.7422(6) 0.5862(5) 0.6086(4)
N19_2 N 0.7460(4) 0.8895(4) 0.7034(4)
N20_2 N 0.7680(4) 0.9088(4) 0.6395(4)
N21_2 N 0.7738(4) 0.9747(4) 0.6371(4)
N22_2 N 0.7893(4) 0.8889(4) 0.3997(4)
N23_2 N 0.7938(4) 0.9095(4) 0.4656(4)
N24_2 N 0.8046(4) 0.9756(4) 0.4684(4)
C15_2 C 0.7988(5) 0.9442(5) 0.3572(5)
C16_2 C 0.7739(5) 0.7003(5) 0.4603(5)
C17_2 C 0.7555(5) 0.9996(5) 0.7012(5)
C18_2 C 0.7396(5) 0.9435(5) 0.7435(4)
C19_2 C 0.7469(5) 0.7039(5) 0.6438(5)
C20_2 C 0.7968(6) 0.9296(5) 0.2780(5)
C21_2 C 0.7645(6) 0.6503(5) 0.5171(5)
C22_2 C 0.8066(5) 0.9981(5) 0.4008(4)
C23_2 C 0.7516(6) 0.6503(5) 0.5877(5)
C24_2 C 0.7125(6) 0.9311(5) 0.8176(5)
Mn14_2 Mn 0.70982(7) 0.79018(7) 0.7500
Mn17_2 Mn 0.70631(10) 0.57860(8) 0.72484(8)
Mn19_2 Mn 0.76829(18) 0.57194(10) 0.37950(11)
O38_2 O 0.8138(3) 0.7766(4) 0.7962(3)
O41_2 O 0.8214(4) 0.7281(4) 0.1039(3)
O44_2 O 0.7737(3) 0.7263(3) 0.2500
N31_2 N 0.9144(5) 0.7388(7) 0.0051(5)
N33_2 N 0.9138(5) 0.7578(6) 0.8914(4)
H28_2 H 0.743743 0.917478 0.466812
H7_3 H 0.1844 0.2796 0.2459
H12_3 H 0.2204 0.3156 0.2541
Mn13_3 Mn 0.28987(7) 0.28044(7) 0.15197(7)
O43_3 O 0.3735(4) 0.1937(4) 0.6710(4)
N35_3 N 0.3895(4) 0.2460(4) 0.7966(4)
H7_4 H 0.8156 0.7204 0.2459
H12_4 H 0.7796 0.6844 0.2541
Mn13_4 Mn 0.71013(7) 0.71956(7) 0.15197(7)
O43_4 O 0.6265(4) 0.8063(4) 0.6710(4)
N35_4 N 0.6105(4) 0.7540(4) 0.7966(4)
O4_3 O 0.2610(3) 0.2844(4) 0.0295(3)
O5_3 O 0.5885(6) 0.3989(6) 0.3087(6)
H3_3 H 0.5980 0.4282 0.2777
H4_3 H 0.6010 0.4284 0.3383
O7_3 O 0.5747(6) 0.1868(6) 0.2365(6)
H5_3 H 0.5596 0.1532 0.2589
H6_3 H 0.5624 0.1720 0.1963
O13_3 O 0.2900(5) 0.1732(4) 0.1525(5)
H10_3 H 0.2577 0.1516 0.1706
H11_3 H 0.2948 0.1472 0.1172
O15_3 O 0.5960(3) 0.3261(4) 0.1677(3)
O16_3 O 0.6052(3) 0.3233(3) 0.0514(3)
O17_3 O 0.4747(4) 0.3010(5) 0.2660(4)
O18_3 O 0.3673(3) 0.2888(4) 0.2373(3)
N7_3 N 0.3889(4) 0.2893(4) 0.1003(4)
N8_3 N 0.4095(4) 0.2938(4) 0.0344(4)
N9_3 N 0.4756(4) 0.3046(4) 0.0316(4)
N11_3 N 0.5624(9) 0.1701(9) 0.0282(13)
N12_3 N 0.5566(15) 0.1458(12) 0.0956(14)
C1_3 C 0.5718(5) 0.3200(5) 0.1076(5)
C3_3 C 0.4442(5) 0.2988(5) 0.1428(5)
C4_3 C 0.2003(5) 0.2739(5) 0.0397(5)
C8_3 C 0.4296(5) 0.2968(6) 0.2220(5)
C10_3 C 0.4981(5) 0.3066(5) 0.0992(4)
Mn8_3 Mn 0.71578(7) 0.33531(6) 0.05409(7)
Mn9_3 Mn 0.70402(7) 0.55178(7) 0.05293(8)
O20_3 O 0.7364(4) 0.2613(3) 0.1319(3)
O22_3 O 0.8817(6) 0.5836(7) 0.3791(8)
H13_3 H 0.9183 0.5735 0.3589
H14_3 H 0.8927 0.6185 0.4019
O28_3 O 0.7855(7) 0.4760(5) 0.3629(5)
O29_3 O 0.8282(4) 0.3384(5) 0.0382(4)
H19_3 H 0.8424 0.3173 0.0742
H20_3 H 0.8671 0.3225 0.0319
O30_2 O 0.7258(3) 0.6078(3) 0.1566(3)
O32_3 O 0.7567(5) 0.5974(4) 0.2699(4)
N17_3 N 0.7498(8) 0.0477(4) 0.0527(5)
N20_3 N 0.7320(4) 0.4088(4) 0.1395(4)
N21_3 N 0.7262(4) 0.4747(4) 0.1371(4)
N25_3 N 0.8092(5) 0.5694(5) 0.0301(5)
N28_3 N 0.6017(5) 0.5524(5) 0.0839(4)
N29_3 N 0.5861(11) 0.5306(13) 0.1527(19)
N30_3 N 0.5682(9) 0.5302(12) 0.2287(10)
C14_3 C 0.7419(5) 0.5725(5) 0.2114(5)
C17_3 C 0.7445(5) 0.4996(5) 0.2012(5)
C18_3 C 0.7604(5) 0.4435(5) 0.2435(4)
C19_3 C 0.7531(5) 0.2039(5) 0.1438(5)
C21_3 C 0.7355(6) 0.1503(5) 0.0171(5)
C23_3 C 0.7484(6) 0.1503(5) 0.0877(5)
C24_3 C 0.7875(6) 0.4311(5) 0.3176(5)
O37_3 O 0.6802(13) 0.5626(9) 0.3760(7)
O45_2 O 0.2742(3) 0.3922(3) 0.1566(3)
H25_3 H 0.417478 0.243743 0.0331875
Mn3_2 Mn 0.33531(6) 0.28422(7) 0.94591(7)
Mn4_3 Mn 0.55178(7) 0.29598(7) 0.94707(8)
O1_3 O 0.2613(3) 0.2636(4) 0.8681(3)
O3_3 O 0.5836(7) 0.1183(6) 0.6209(8)
H1_3 H 0.5735 0.0817 0.6411
H2_3 H 0.6185 0.1073 0.5981
O10_3 O 0.4760(5) 0.2145(7) 0.6371(5)
O11_3 O 0.3384(5) 0.1718(4) 0.9618(4)
H8_3 H 0.3173 0.1576 0.9258
H9_3 H 0.3225 0.1329 0.9681
O12_3 O 0.6078(3) 0.2742(3) 0.8434(3)
O14_3 O 0.5974(4) 0.2433(5) 0.7301(4)
N2_3 N 0.0477(4) 0.2502(8) 0.9473(5)
N5_3 N 0.4088(4) 0.2680(4) 0.8605(4)
N6_3 N 0.4747(4) 0.2738(4) 0.8629(4)
N10_3 N 0.5694(5) 0.1908(5) 0.9699(5)
N13_3 N 0.5524(5) 0.3983(5) 0.9161(4)
N14_3 N 0.5306(13) 0.4139(11) 0.8473(19)
N15_3 N 0.5302(12) 0.4318(9) 0.7713(10)
C2_3 C 0.5725(5) 0.2581(5) 0.7886(5)
C5_3 C 0.4996(5) 0.2555(5) 0.7988(5)
C6_3 C 0.4435(5) 0.2396(5) 0.7565(4)
C7_3 C 0.2039(5) 0.2469(5) 0.8562(5)
C9_3 C 0.1503(5) 0.2645(6) 0.9829(5)
C11_3 C 0.1503(5) 0.2516(6) 0.9123(5)
C12_3 C 0.4311(5) 0.2125(6) 0.6824(5)
O19_3 O 0.5626(9) 0.3198(13) 0.6240(7)
O23_3 O 0.7156(4) 0.2610(3) 0.9705(3)
O24_3 O 0.6011(6) 0.5885(6) 0.6913(6)
H15_3 H 0.5718 0.5980 0.7223
H16_3 H 0.5716 0.6010 0.6617
O26_3 O 0.8132(6) 0.5747(6) 0.7635(6)
H17_3 H 0.8468 0.5596 0.7411
H18_3 H 0.8280 0.5624 0.8037
O31_3 O 0.8268(4) 0.2900(5) 0.8475(5)
H21_3 H 0.8484 0.2577 0.8294
H22_3 H 0.8528 0.2948 0.8828
O33_3 O 0.6739(4) 0.5960(3) 0.8323(3)
O34_2 O 0.6767(3) 0.6052(3) 0.9486(3)
O35_3 O 0.6990(5) 0.4747(4) 0.7340(4)
O36_3 O 0.7112(4) 0.3673(3) 0.7627(3)
N22_3 N 0.7107(4) 0.3889(4) 0.8997(4)
N23_3 N 0.7062(4) 0.4095(4) 0.9656(4)
N24_3 N 0.6954(4) 0.4756(4) 0.9684(4)
N26_3 N 0.8299(9) 0.5624(9) 0.9718(13)
N27_3 N 0.8542(12) 0.5566(15) 0.9044(14)
C13_3 C 0.6800(5) 0.5718(5) 0.8924(5)
C15_3 C 0.7012(5) 0.4442(5) 0.8572(5)
C16_3 C 0.7261(5) 0.2003(5) 0.9603(5)
C20_3 C 0.7032(6) 0.4296(5) 0.7780(5)
C22_3 C 0.6934(5) 0.4981(5) 0.9008(4)
Mn15_2 Mn 0.66469(6) 0.71578(7) 0.94591(7)
O46_2 O 0.3233(3) 0.3948(3) 0.9486(3)
H28_3 H 0.756257 0.417478 0.966812
O4_4 O 0.7390(3) 0.7156(4) 0.0295(3)
O5_4 O 0.4115(6) 0.6011(6) 0.3087(6)
H3_4 H 0.4020 0.5718 0.2777
H4_4 H 0.3990 0.5716 0.3383
O7_4 O 0.4253(6) 0.8132(6) 0.2365(6)
H5_4 H 0.4404 0.8468 0.2589
H6_4 H 0.4376 0.8280 0.1963
O13_4 O 0.7100(5) 0.8268(4) 0.1525(5)
H10_4 H 0.7423 0.8484 0.1706
H11_4 H 0.7052 0.8528 0.1172
O15_4 O 0.4040(3) 0.6739(4) 0.1677(3)
O16_4 O 0.3948(3) 0.6767(3) 0.0514(3)
O17_4 O 0.5253(4) 0.6990(5) 0.2660(4)
O18_4 O 0.6327(3) 0.7112(4) 0.2373(3)
N7_4 N 0.6111(4) 0.7107(4) 0.1003(4)
N8_4 N 0.5905(4) 0.7062(4) 0.0344(4)
N9_4 N 0.5244(4) 0.6954(4) 0.0316(4)
N11_4 N 0.4376(9) 0.8299(9) 0.0282(13)
N12_4 N 0.4434(15) 0.8542(12) 0.0956(14)
C1_4 C 0.4282(5) 0.6800(5) 0.1076(5)
C3_4 C 0.5558(5) 0.7012(5) 0.1428(5)
C4_4 C 0.7997(5) 0.7261(5) 0.0397(5)
C8_4 C 0.5704(5) 0.7032(6) 0.2220(5)
C10_4 C 0.5019(5) 0.6934(5) 0.0992(4)
Mn8_4 Mn 0.28422(7) 0.66469(6) 0.05409(7)
Mn9_4 Mn 0.29598(7) 0.44822(7) 0.05293(8)
O20_4 O 0.2636(4) 0.7387(3) 0.1319(3)
O22_4 O 0.1183(6) 0.4164(7) 0.3791(8)
H13_4 H 0.0817 0.4265 0.3589
H14_4 H 0.1073 0.3815 0.4019
O28_4 O 0.2145(7) 0.5240(5) 0.3629(5)
O29_4 O 0.1718(4) 0.6616(5) 0.0382(4)
H19_4 H 0.1576 0.6827 0.0742
H20_4 H 0.1329 0.6775 0.0319
O32_4 O 0.2433(5) 0.4026(4) 0.2699(4)
N17_4 N 0.2502(8) 0.9523(4) 0.0527(5)
N20_4 N 0.2680(4) 0.5912(4) 0.1395(4)
N21_4 N 0.2738(4) 0.5253(4) 0.1371(4)
N25_4 N 0.1908(5) 0.4306(5) 0.0301(5)
N28_4 N 0.3983(5) 0.4476(5) 0.0839(4)
N29_4 N 0.4139(11) 0.4694(13) 0.1527(19)
N30_4 N 0.4318(9) 0.4698(12) 0.2287(10)
C14_4 C 0.2581(5) 0.4275(5) 0.2114(5)
C17_4 C 0.2555(5) 0.5004(5) 0.2012(5)
C18_4 C 0.2396(5) 0.5565(5) 0.2435(4)
C19_4 C 0.2469(5) 0.7961(5) 0.1438(5)
C21_4 C 0.2645(6) 0.8497(5) 0.0171(5)
C23_4 C 0.2516(6) 0.8497(5) 0.0877(5)
C24_4 C 0.2125(6) 0.5689(5) 0.3176(5)
O37_4 O 0.3198(13) 0.4374(9) 0.3760(7)
H25_4 H 0.582522 0.756257 0.0331875
Mn4_4 Mn 0.44822(7) 0.70402(7) 0.94707(8)
O1_4 O 0.7387(3) 0.7364(4) 0.8681(3)
O3_4 O 0.4164(7) 0.8817(6) 0.6209(8)
H1_4 H 0.4265 0.9183 0.6411
H2_4 H 0.3815 0.8927 0.5981
O10_4 O 0.5240(5) 0.7855(7) 0.6371(5)
O11_4 O 0.6616(5) 0.8282(4) 0.9618(4)
H8_4 H 0.6827 0.8424 0.9258
H9_4 H 0.6775 0.8671 0.9681
O12_4 O 0.3922(3) 0.7258(3) 0.8434(3)
O14_4 O 0.4026(4) 0.7567(5) 0.7301(4)
N2_4 N 0.9523(4) 0.7498(8) 0.9473(5)
N5_4 N 0.5912(4) 0.7320(4) 0.8605(4)
N6_4 N 0.5253(4) 0.7262(4) 0.8629(4)
N10_4 N 0.4306(5) 0.8092(5) 0.9699(5)
N13_4 N 0.4476(5) 0.6017(5) 0.9161(4)
N14_4 N 0.4694(13) 0.5861(11) 0.8473(19)
N15_4 N 0.4698(12) 0.5682(9) 0.7713(10)
C2_4 C 0.4275(5) 0.7419(5) 0.7886(5)
C5_4 C 0.5004(5) 0.7445(5) 0.7988(5)
C6_4 C 0.5565(5) 0.7604(5) 0.7565(4)
C7_4 C 0.7961(5) 0.7531(5) 0.8562(5)
C9_4 C 0.8497(5) 0.7355(6) 0.9829(5)
C11_4 C 0.8497(5) 0.7484(6) 0.9123(5)
C12_4 C 0.5689(5) 0.7875(6) 0.6824(5)
O19_4 O 0.4374(9) 0.6802(13) 0.6240(7)
O23_4 O 0.2844(4) 0.7390(3) 0.9705(3)
O24_4 O 0.3989(6) 0.4115(6) 0.6913(6)
H15_4 H 0.4282 0.4020 0.7223
H16_4 H 0.4284 0.3990 0.6617
O26_4 O 0.1868(6) 0.4253(6) 0.7635(6)
H17_4 H 0.1532 0.4404 0.7411
H18_4 H 0.1720 0.4376 0.8037
O31_4 O 0.1732(4) 0.7100(5) 0.8475(5)
H21_4 H 0.1516 0.7423 0.8294
H22_4 H 0.1472 0.7052 0.8828
O33_4 O 0.3261(4) 0.4040(3) 0.8323(3)
O35_4 O 0.3010(5) 0.5253(4) 0.7340(4)
O36_4 O 0.2888(4) 0.6327(3) 0.7627(3)
N22_4 N 0.2893(4) 0.6111(4) 0.8997(4)
N23_4 N 0.2938(4) 0.5905(4) 0.9656(4)
N24_4 N 0.3046(4) 0.5244(4) 0.9684(4)
N26_4 N 0.1701(9) 0.4376(9) 0.9718(13)
N27_4 N 0.1458(12) 0.4434(15) 0.9044(14)
C13_4 C 0.3200(5) 0.4282(5) 0.8924(5)
C15_4 C 0.2988(5) 0.5558(5) 0.8572(5)
C16_4 C 0.2739(5) 0.7997(5) 0.9603(5)
C20_4 C 0.2968(6) 0.5704(5) 0.7780(5)
C22_4 C 0.3066(5) 0.5019(5) 0.9008(4)
H28_4 H 0.243743 0.582522 0.966812
loop_
_geom_bond_atom_site_label_1
_geom_bond_atom_site_label_2
_geom_bond_site_symmetry_1
_geom_bond_site_symmetry_2
Mn4 O12 1_555 1_555
Mn5 O5 1_555 1_555
Mn6 O3 1_555 1_555
O3 H1 1_555 1_555
H2 O3 1_555 1_555
O5 H3 1_555 1_555
H4 O5 1_555 1_555
O7 Mn5 1_555 1_555
H5 O7 1_555 1_555
H6 O7 1_555 1_555
O12 C2 1_555 1_555
O14 Mn6 1_555 1_555
O15 Mn5 1_555 1_555
O16 Mn4 1_555 1_555
N10 Mn4 1_555 1_555
N11 N10 1_555 1_555
N12 N11 1_555 1_555
N13 Mn4 1_555 1_555
N14 N13 1_555 1_555
N15 N14 1_555 1_555
C1 O15 1_555 1_555
C2 O14 1_555 1_555
O19 Mn6 1_555 1_555
Mn7 O12 1_555 1_555
Mn8 O16 1_555 1_555
O20 Mn8 1_555 1_555
O21 C19 1_555 1_555
O23 Mn7 1_555 1_555
O25 Mn7 1_555 1_555
O27 C24 1_555 1_555
O29 Mn8 1_555 1_555
H19 O29 1_555 1_555
H20 O29 1_555 1_555
O31 Mn7 1_555 1_555
H21 O31 1_555 1_555
H22 O31 1_555 1_555
O36 Mn7 1_555 1_555
N16 N17 1_555 1_555
N17 N18 1_555 1_555
N18 C23 1_555 1_555
N19 N20 1_555 1_555
N20 Mn8 1_555 1_555
N22 Mn7 1_555 1_555
N23 Mn8 1_555 1_555
C15 N22 1_555 1_555
C16 O23 1_555 1_555
C17 N21 1_555 1_555
C18 N19 1_555 1_555
C19 O20 1_555 1_555
C20 O35 1_555 1_555
C21 N16 1_555 1_555
C22 N24 1_555 1_555
C23 C19 1_555 1_555
C24 O28 1_555 1_555
Mn14 O21 1_555 1_555
Mn17 O21 1_555 1_555
Mn19 O25 1_555 1_555
O38 Mn5 1_555 1_555
O41 Mn6 1_555 1_555
O44 Mn7 1_555 1_555
N31 Mn6 1_555 1_555
N33 Mn5 1_555 1_555
O16 C1 1_555 1_555
Mn8 O23 1_555 1_555
O25 C16 1_555 1_555
O27 Mn14 1_555 1_555
O36 C20 1_555 1_555
N16 Mn19 1_555 1_555
N18 Mn17 1_555 1_555
N19 Mn14 1_555 1_555
N20 N21 1_555 1_555
N22 N23 1_555 1_555
N23 N24 1_555 1_555
C15 C20 1_555 1_555
C15 C22 1_555 1_555
C16 C21 1_555 1_555
C17 C18 1_555 1_555
C18 C24 1_555 1_555
C21 C23 1_555 1_555
Mn14 O38 1_555 1_555
N23 H28 1_555 1_555
Mn9 O30 1_555 1_555
Mn10 O24 1_555 1_555
Mn11 O22 1_555 1_555
O22 H13 1_555 1_555
H14 O22 1_555 1_555
O24 H15 1_555 1_555
H16 O24 1_555 1_555
O26 Mn10 1_555 1_555
H17 O26 1_555 1_555
H18 O26 1_555 1_555
O30 C14 1_555 1_555
O32 Mn11 1_555 1_555
O33 Mn10 1_555 1_555
O34 Mn9 1_555 1_555
N25 Mn9 1_555 1_555
N26 N25 1_555 1_555
N27 N26 1_555 1_555
N28 Mn9 1_555 1_555
N29 N28 1_555 1_555
N30 N29 1_555 1_555
C13 O33 1_555 1_555
C14 O32 1_555 1_555
O37 Mn11 1_555 1_555
Mn12 O30 1_555 1_555
Mn15 O34 1_555 1_555
O40 Mn10 1_555 1_555
O42 Mn11 1_555 1_555
N32 Mn11 1_555 1_555
N34 Mn10 1_555 1_555
O34 C13 1_555 1_555
Mn1 O4 1_555 1_555
Mn2 O2 1_555 1_555
Mn3 O1 1_555 1_555
O1 C7 1_555 1_555
O2 C7 1_555 1_555
O4 Mn3 1_555 1_555
O6 Mn1 1_555 1_555
O8 Mn2 1_555 1_555
O9 Mn1 1_555 1_555
H7 O9 1_555 1_555
O11 Mn3 1_555 1_555
H8 O11 1_555 1_555
H9 O11 1_555 1_555
O13 Mn1 1_555 1_555
H10 O13 1_555 1_555
H11 O13 1_555 1_555
O18 Mn1 1_555 1_555
N1 N2 1_555 1_555
N2 N3 1_555 1_555
N3 C11 1_555 1_555
N4 Mn2 1_555 1_555
N5 Mn3 1_555 1_555
N7 Mn1 1_555 1_555
N8 Mn3 1_555 1_555
C3 N7 1_555 1_555
C4 O4 1_555 1_555
C5 N6 1_555 1_555
C6 N4 1_555 1_555
C7 C11 1_555 1_555
C8 O17 1_555 1_555
C9 N1 1_555 1_555
C10 N9 1_555 1_555
C11 C9 1_555 1_555
C12 O8 1_555 1_555
H12 O9 1_555 1_555
Mn13 O9 1_555 1_555
Mn16 O2 1_555 1_555
Mn18 O6 1_555 1_555
O39 Mn2 1_555 1_555
O43 Mn2 1_555 1_555
O45 Mn1 1_555 1_555
O46 Mn3 1_555 1_555
N35 Mn2 1_555 1_555
O6 C4 1_555 1_555
O10 C12 1_555 1_555
O18 C8 1_555 1_555
N1 Mn18 1_555 1_555
N3 Mn16 1_555 1_555
N4 N5 1_555 1_555
N5 N6 1_555 1_555
N7 N8 1_555 1_555
N8 N9 1_555 1_555
C3 C8 1_555 1_555
C3 C10 1_555 1_555
C4 C9 1_555 1_555
C5 C6 1_555 1_555
C6 C12 1_555 1_555
N8 H25 1_555 1_555
Mn12 O4_2 1_555 1_555
Mn2_2 O2_2 1_555 1_555
Mn15 O1_2 1_555 1_555
O1_2 C7_2 1_555 1_555
O2_2 C7_2 1_555 1_555
O4_2 Mn15 1_555 1_555
O6_2 Mn12 1_555 1_555
O8_2 Mn2_2 1_555 1_555
O9_2 Mn12 1_555 1_555
H7_2 O9_2 1_555 1_555
O11_2 Mn15 1_555 1_555
H8_2 O11_2 1_555 1_555
H9_2 O11_2 1_555 1_555
O13_2 Mn12 1_555 1_555
H10_2 O13_2 1_555 1_555
H11_2 O13_2 1_555 1_555
O18_2 Mn12 1_555 1_555
N1_2 N2_2 1_555 1_555
N2_2 N3_2 1_555 1_555
N3_2 C11_2 1_555 1_555
N4_2 Mn2_2 1_555 1_555
N5_2 Mn15 1_555 1_555
N7_2 Mn12 1_555 1_555
N8_2 Mn15 1_555 1_555
C3_2 N7_2 1_555 1_555
C4_2 O4_2 1_555 1_555
C5_2 N6_2 1_555 1_555
C6_2 N4_2 1_555 1_555
C7_2 C11_2 1_555 1_555
C8_2 O17_2 1_555 1_555
C9_2 N1_2 1_555 1_555
C10_2 N9_2 1_555 1_555
C11_2 C9_2 1_555 1_555
C12_2 O8_2 1_555 1_555
H12_2 O9_2 1_555 1_555
Mn13_2 O9_2 1_555 1_555
Mn16_2 O2_2 1_555 1_555
Mn18_2 O6_2 1_555 1_555
O40 Mn2_2 1_555 1_555
O43_2 Mn2_2 1_555 1_555
N35_2 Mn2_2 1_555 1_555
O6_2 C4_2 1_555 1_555
O10_2 C12_2 1_555 1_555
O18_2 C8_2 1_555 1_555
N1_2 Mn18_2 1_555 1_555
N3_2 Mn16_2 1_555 1_555
N4_2 N5_2 1_555 1_555
N5_2 N6_2 1_555 1_555
N7_2 N8_2 1_555 1_555
N8_2 N9_2 1_555 1_555
C3_2 C8_2 1_555 1_555
C3_2 C10_2 1_555 1_555
C4_2 C9_2 1_555 1_555
C5_2 C6_2 1_555 1_555
C6_2 C12_2 1_555 1_555
N8_2 H25_2 1_555 1_555
Mn9_2 O45 1_555 1_555
Mn10_2 O24_2 1_555 1_555
Mn11_2 O22_2 1_555 1_555
O22_2 H13_2 1_555 1_555
H14_2 O22_2 1_555 1_555
O24_2 H15_2 1_555 1_555
H16_2 O24_2 1_555 1_555
O26_2 Mn10_2 1_555 1_555
H17_2 O26_2 1_555 1_555
H18_2 O26_2 1_555 1_555
O45 C14_2 1_555 1_555
O32_2 Mn11_2 1_555 1_555
O33_2 Mn10_2 1_555 1_555
O46 Mn9_2 1_555 1_555
N25_2 Mn9_2 1_555 1_555
N26_2 N25_2 1_555 1_555
N27_2 N26_2 1_555 1_555
N28_2 Mn9_2 1_555 1_555
N29_2 N28_2 1_555 1_555
N30_2 N29_2 1_555 1_555
C13_2 O33_2 1_555 1_555
C14_2 O32_2 1_555 1_555
O37_2 Mn11_2 1_555 1_555
O39 Mn10_2 1_555 1_555
O42_2 Mn11_2 1_555 1_555
N32_2 Mn11_2 1_555 1_555
N34_2 Mn10_2 1_555 1_555
O46 C13_2 1_555 1_555
Mn4_2 O12_2 1_555 1_555
Mn5_2 O5_2 1_555 1_555
Mn6_2 O3_2 1_555 1_555
O3_2 H1_2 1_555 1_555
H2_2 O3_2 1_555 1_555
O5_2 H3_2 1_555 1_555
H4_2 O5_2 1_555 1_555
O7_2 Mn5_2 1_555 1_555
H5_2 O7_2 1_555 1_555
H6_2 O7_2 1_555 1_555
O12_2 C2_2 1_555 1_555
O14_2 Mn6_2 1_555 1_555
O15_2 Mn5_2 1_555 1_555
O16_2 Mn4_2 1_555 1_555
N10_2 Mn4_2 1_555 1_555
N11_2 N10_2 1_555 1_555
N12_2 N11_2 1_555 1_555
N13_2 Mn4_2 1_555 1_555
N14_2 N13_2 1_555 1_555
N15_2 N14_2 1_555 1_555
C1_2 O15_2 1_555 1_555
C2_2 O14_2 1_555 1_555
O19_2 Mn6_2 1_555 1_555
Mn7_2 O12_2 1_555 1_555
Mn8_2 O16_2 1_555 1_555
O20_2 Mn8_2 1_555 1_555
O21_2 C19_2 1_555 1_555
O23_2 Mn7_2 1_555 1_555
O25_2 Mn7_2 1_555 1_555
O27_2 C24_2 1_555 1_555
O29_2 Mn8_2 1_555 1_555
H19_2 O29_2 1_555 1_555
H20_2 O29_2 1_555 1_555
O31_2 Mn7_2 1_555 1_555
H21_2 O31_2 1_555 1_555
H22_2 O31_2 1_555 1_555
O36_2 Mn7_2 1_555 1_555
N16_2 N17_2 1_555 1_555
N17_2 N18_2 1_555 1_555
N18_2 C23_2 1_555 1_555
N19_2 N20_2 1_555 1_555
N20_2 Mn8_2 1_555 1_555
N22_2 Mn7_2 1_555 1_555
N23_2 Mn8_2 1_555 1_555
C15_2 N22_2 1_555 1_555
C16_2 O23_2 1_555 1_555
C17_2 N21_2 1_555 1_555
C18_2 N19_2 1_555 1_555
C19_2 O20_2 1_555 1_555
C20_2 O35_2 1_555 1_555
C21_2 N16_2 1_555 1_555
C22_2 N24_2 1_555 1_555
C23_2 C19_2 1_555 1_555
C24_2 O28_2 1_555 1_555
Mn14_2 O21_2 1_555 1_555
Mn17_2 O21_2 1_555 1_555
Mn19_2 O25_2 1_555 1_555
O38_2 Mn5_2 1_555 1_555
O41_2 Mn6_2 1_555 1_555
O44_2 Mn7_2 1_555 1_555
N31_2 Mn6_2 1_555 1_555
N33_2 Mn5_2 1_555 1_555
O16_2 C1_2 1_555 1_555
Mn8_2 O23_2 1_555 1_555
O25_2 C16_2 1_555 1_555
O27_2 Mn14_2 1_555 1_555
O36_2 C20_2 1_555 1_555
N16_2 Mn19_2 1_555 1_555
N18_2 Mn17_2 1_555 1_555
N19_2 Mn14_2 1_555 1_555
N20_2 N21_2 1_555 1_555
N22_2 N23_2 1_555 1_555
N23_2 N24_2 1_555 1_555
C15_2 C20_2 1_555 1_555
C15_2 C22_2 1_555 1_555
C16_2 C21_2 1_555 1_555
C17_2 C18_2 1_555 1_555
C18_2 C24_2 1_555 1_555
C21_2 C23_2 1_555 1_555
Mn14_2 O38_2 1_555 1_555
N23_2 H28_2 1_555 1_555
H7_3 O44 1_555 1_555
H12_3 O44 1_555 1_555
Mn13_3 O44 1_555 1_555
O43_3 Mn14 1_555 1_555
N35_3 Mn14 1_555 1_555
H7_4 O44_2 1_555 1_555
H12_4 O44_2 1_555 1_555
Mn13_4 O44_2 1_555 1_555
O43_4 Mn14_2 1_555 1_555
N35_4 Mn14_2 1_555 1_555
Mn13_3 O4_3 1_555 1_555
Mn16 O5_3 1_555 1_555
O5_3 H3_3 1_555 1_555
H4_3 O5_3 1_555 1_555
O41 Mn13_3 1_555 1_555
O7_3 Mn16 1_555 1_555
H5_3 O7_3 1_555 1_555
H6_3 O7_3 1_555 1_555
O13_3 Mn13_3 1_555 1_555
H10_3 O13_3 1_555 1_555
H11_3 O13_3 1_555 1_555
O15_3 Mn16 1_555 1_555
O17_3 Mn16 1_555 1_555
O18_3 Mn13_3 1_555 1_555
N7_3 Mn13_3 1_555 1_555
N12_3 N11_3 1_555 1_555
C1_3 O15_3 1_555 1_555
C3_3 N7_3 1_555 1_555
C4_3 O4_3 1_555 1_555
C8_3 O17_3 1_555 1_555
C10_3 N9_3 1_555 1_555
Mn8_3 O16_3 1_555 1_555
Mn9_3 O30_2 1_555 1_555
Mn19_2 O22_3 1_555 1_555
O20_3 Mn8_3 1_555 1_555
O39 C19_3 1_555 1_555
O22_3 H13_3 1_555 1_555
H14_3 O22_3 1_555 1_555
O43 C24_3 1_555 1_555
O28_3 Mn19_2 1_555 1_555
O29_3 Mn8_3 1_555 1_555
H19_3 O29_3 1_555 1_555
H20_3 O29_3 1_555 1_555
O30_2 C14_3 1_555 1_555
O32_3 Mn19_2 1_555 1_555
N17_3 N34_2 1_555 1_555
N34_2 C23_3 1_555 1_555
N35 N20_3 1_555 1_555
N20_3 Mn8_3 1_555 1_555
N21_3 Mn9_3 1_555 1_555
N25_3 Mn9_3 1_555 1_555
N28_3 Mn9_3 1_555 1_555
N29_3 N28_3 1_555 1_555
N30_3 N29_3 1_555 1_555
C14_3 O32_3 1_555 1_555
C17_3 N21_3 1_555 1_555
C18_3 N35 1_555 1_555
C19_3 O20_3 1_555 1_555
C23_3 C19_3 1_555 1_555
C24_3 O28_3 1_555 1_555
O37_3 Mn19_2 1_555 1_555
Mn13_4 O30_2 1_555 1_555
O45_2 Mn13_3 1_555 1_555
O41 C4_3 1_555 1_555
O16_3 C1_3 1_555 1_555
O18_3 C8_3 1_555 1_555
N7_3 N8_3 1_555 1_555
N8_3 N9_3 1_555 1_555
C1_3 C10_3 1_555 1_555
C3_3 C8_3 1_555 1_555
C3_3 C10_3 1_555 1_555
N20_3 N21_3 1_555 1_555
C14_3 C17_3 1_555 1_555
C17_3 C18_3 1_555 1_555
C18_3 C24_3 1_555 1_555
C21_3 C23_3 1_555 1_555
N8_3 H25_3 1_555 1_555
Mn3_2 O1_3 1_555 1_555
Mn4_3 O12_3 1_555 1_555
Mn18 O3_3 1_555 1_555
O1_3 C7_3 1_555 1_555
O38 C7_3 1_555 1_555
O3_3 H1_3 1_555 1_555
H2_3 O3_3 1_555 1_555
O10_3 Mn18 1_555 1_555
O11_3 Mn3_2 1_555 1_555
H8_3 O11_3 1_555 1_555
H9_3 O11_3 1_555 1_555
O12_3 C2_3 1_555 1_555
O14_3 Mn18 1_555 1_555
N2_3 N33 1_555 1_555
N33 C11_3 1_555 1_555
N5_3 Mn3_2 1_555 1_555
N6_3 Mn4_3 1_555 1_555
N10_3 Mn4_3 1_555 1_555
N13_3 Mn4_3 1_555 1_555
N14_3 N13_3 1_555 1_555
N15_3 N14_3 1_555 1_555
C2_3 O14_3 1_555 1_555
C5_3 N6_3 1_555 1_555
C6_3 N35_3 1_555 1_555
C7_3 C11_3 1_555 1_555
C11_3 C9_3 1_555 1_555
C12_3 O43_3 1_555 1_555
O19_3 Mn18 1_555 1_555
Mn13 O12_3 1_555 1_555
Mn17_2 O24_3 1_555 1_555
O23_3 Mn13 1_555 1_555
O24_3 H15_3 1_555 1_555
H16_3 O24_3 1_555 1_555
O42_2 Mn13 1_555 1_555
O26_3 Mn17_2 1_555 1_555
H17_3 O26_3 1_555 1_555
H18_3 O26_3 1_555 1_555
O31_3 Mn13 1_555 1_555
H21_3 O31_3 1_555 1_555
H22_3 O31_3 1_555 1_555
O33_3 Mn17_2 1_555 1_555
O35_3 Mn17_2 1_555 1_555
O36_3 Mn13 1_555 1_555
N22_3 Mn13 1_555 1_555
N27_3 N26_3 1_555 1_555
C13_3 O33_3 1_555 1_555
C15_3 N22_3 1_555 1_555
C16_3 O23_3 1_555 1_555
C20_3 O35_3 1_555 1_555
C22_3 N24_3 1_555 1_555
Mn15_2 O34_2 1_555 1_555
O46_2 Mn3_2 1_555 1_555
O10_3 C12_3 1_555 1_555
N35_3 N5_3 1_555 1_555
N5_3 N6_3 1_555 1_555
C2_3 C5_3 1_555 1_555
C5_3 C6_3 1_555 1_555
C6_3 C12_3 1_555 1_555
O42_2 C16_3 1_555 1_555
O34_2 C13_3 1_555 1_555
O36_3 C20_3 1_555 1_555
N22_3 N23_3 1_555 1_555
N23_3 N24_3 1_555 1_555
C13_3 C22_3 1_555 1_555
C15_3 C20_3 1_555 1_555
C15_3 C22_3 1_555 1_555
N23_3 H28_3 1_555 1_555
Mn13_4 O4_4 1_555 1_555
Mn16_2 O5_4 1_555 1_555
O5_4 H3_4 1_555 1_555
H4_4 O5_4 1_555 1_555
O41_2 Mn13_4 1_555 1_555
O7_4 Mn16_2 1_555 1_555
H5_4 O7_4 1_555 1_555
H6_4 O7_4 1_555 1_555
O13_4 Mn13_4 1_555 1_555
H10_4 O13_4 1_555 1_555
H11_4 O13_4 1_555 1_555
O15_4 Mn16_2 1_555 1_555
O17_4 Mn16_2 1_555 1_555
O18_4 Mn13_4 1_555 1_555
N7_4 Mn13_4 1_555 1_555
N12_4 N11_4 1_555 1_555
C1_4 O15_4 1_555 1_555
C3_4 N7_4 1_555 1_555
C4_4 O4_4 1_555 1_555
C8_4 O17_4 1_555 1_555
C10_4 N9_4 1_555 1_555
Mn8_4 O16_4 1_555 1_555
Mn9_4 O45_2 1_555 1_555
Mn19 O22_4 1_555 1_555
O20_4 Mn8_4 1_555 1_555
O40 C19_4 1_555 1_555
O22_4 H13_4 1_555 1_555
H14_4 O22_4 1_555 1_555
O43_2 C24_4 1_555 1_555
O28_4 Mn19 1_555 1_555
O29_4 Mn8_4 1_555 1_555
H19_4 O29_4 1_555 1_555
H20_4 O29_4 1_555 1_555
O45_2 C14_4 1_555 1_555
O32_4 Mn19 1_555 1_555
N17_4 N34 1_555 1_555
N34 C23_4 1_555 1_555
N35_2 N20_4 1_555 1_555
N20_4 Mn8_4 1_555 1_555
N21_4 Mn9_4 1_555 1_555
N25_4 Mn9_4 1_555 1_555
N28_4 Mn9_4 1_555 1_555
N29_4 N28_4 1_555 1_555
N30_4 N29_4 1_555 1_555
C14_4 O32_4 1_555 1_555
C17_4 N21_4 1_555 1_555
C18_4 N35_2 1_555 1_555
C19_4 O20_4 1_555 1_555
C23_4 C19_4 1_555 1_555
C24_4 O28_4 1_555 1_555
O37_4 Mn19 1_555 1_555
O41_2 C4_4 1_555 1_555
O16_4 C1_4 1_555 1_555
O18_4 C8_4 1_555 1_555
N7_4 N8_4 1_555 1_555
N8_4 N9_4 1_555 1_555
C1_4 C10_4 1_555 1_555
C3_4 C8_4 1_555 1_555
C3_4 C10_4 1_555 1_555
N20_4 N21_4 1_555 1_555
C14_4 C17_4 1_555 1_555
C17_4 C18_4 1_555 1_555
C18_4 C24_4 1_555 1_555
C21_4 C23_4 1_555 1_555
N8_4 H25_4 1_555 1_555
Mn15_2 O1_4 1_555 1_555
Mn4_4 O12_4 1_555 1_555
Mn18_2 O3_4 1_555 1_555
O1_4 C7_4 1_555 1_555
O38_2 C7_4 1_555 1_555
O3_4 H1_4 1_555 1_555
H2_4 O3_4 1_555 1_555
O10_4 Mn18_2 1_555 1_555
O11_4 Mn15_2 1_555 1_555
H8_4 O11_4 1_555 1_555
H9_4 O11_4 1_555 1_555
O12_4 C2_4 1_555 1_555
O14_4 Mn18_2 1_555 1_555
N2_4 N33_2 1_555 1_555
N33_2 C11_4 1_555 1_555
N5_4 Mn15_2 1_555 1_555
N6_4 Mn4_4 1_555 1_555
N10_4 Mn4_4 1_555 1_555
N13_4 Mn4_4 1_555 1_555
N14_4 N13_4 1_555 1_555
N15_4 N14_4 1_555 1_555
C2_4 O14_4 1_555 1_555
C5_4 N6_4 1_555 1_555
C6_4 N35_4 1_555 1_555
C7_4 C11_4 1_555 1_555
C11_4 C9_4 1_555 1_555
C12_4 O43_4 1_555 1_555
O19_4 Mn18_2 1_555 1_555
Mn13_2 O12_4 1_555 1_555
Mn17 O24_4 1_555 1_555
O23_4 Mn13_2 1_555 1_555
O24_4 H15_4 1_555 1_555
H16_4 O24_4 1_555 1_555
O42 Mn13_2 1_555 1_555
O26_4 Mn17 1_555 1_555
H17_4 O26_4 1_555 1_555
H18_4 O26_4 1_555 1_555
O31_4 Mn13_2 1_555 1_555
H21_4 O31_4 1_555 1_555
H22_4 O31_4 1_555 1_555
O33_4 Mn17 1_555 1_555
O35_4 Mn17 1_555 1_555
O36_4 Mn13_2 1_555 1_555
N22_4 Mn13_2 1_555 1_555
N27_4 N26_4 1_555 1_555
C13_4 O33_4 1_555 1_555
C15_4 N22_4 1_555 1_555
C16_4 O23_4 1_555 1_555
C20_4 O35_4 1_555 1_555
C22_4 N24_4 1_555 1_555
O10_4 C12_4 1_555 1_555
N35_4 N5_4 1_555 1_555
N5_4 N6_4 1_555 1_555
C2_4 C5_4 1_555 1_555
C5_4 C6_4 1_555 1_555
C6_4 C12_4 1_555 1_555
O42 C16_4 1_555 1_555
O46_2 C13_4 1_555 1_555
O36_4 C20_4 1_555 1_555
N22_4 N23_4 1_555 1_555
N23_4 N24_4 1_555 1_555
C13_4 C22_4 1_555 1_555
C15_4 C20_4 1_555 1_555
C15_4 C22_4 1_555 1_555
N23_4 H28_4 1_555 1_555

#END
