
###############################################################################
#
# This file contains modified crystal structure data generated from the
# MOF subset of the Cambridge Structural Database (CSD) v543 
# hosted by the Cambridge Crystallographic Data Centre (CCDC).
#
# This work is licensed under the Creative Commons
# Attribution-NonCommercial-ShareAlike 4.0 International License.
# To view a copy of this license, visit
# http://creativecommons.org/licenses/by-nc-sa/4.0/
# or send a letter to
# Creative Commons, PO Box 1866, Mountain View, CA 94042, USA.
#
# CIF created using the CSD Python API on 29 September 2022
# The structure has been converted into the P1 space group
# The structure has a 3D framework
# The original CSD entry VIDRUX is in the triclinic crystal system
# The framework has been calculated to contain at least 10.0% void space
# The void calculation uses a probe of radius 1.32A, grid spacing 0.4
# H atom positions have been added when not included in the experimental data
#
###############################################################################

data_VIDRUX
_chemical_formula_moiety         '(C96 H80 Cd6 N20 O34)n'
_symmetry_cell_setting           triclinic
_symmetry_space_group_name_H-M   'P 1'
_symmetry_Int_Tables_number      1
_space_group_name_Hall           'P 1'
loop_
_symmetry_equiv_pos_site_id
_symmetry_equiv_pos_as_xyz
1 x,y,z
_cell_length_a                   11.175(2)
_cell_length_b                   11.499(2)
_cell_length_c                   22.243(4)
_cell_angle_alpha                83.95(3)
_cell_angle_beta                 83.06(3)
_cell_angle_gamma                76.05(3)
_cell_volume                     2744.99
loop_
_atom_site_label
_atom_site_type_symbol
_atom_site_fract_x
_atom_site_fract_y
_atom_site_fract_z
_atom_site_U_iso_or_equiv
_atom_site_thermal_displace_type
Cd3 Cd 0.27541(9) 0.11353(9) 0.48717(4) 0.0362 Uani
C21 C 0.3983(18) 0.2969(18) 0.4917(10) 0.0711 Uani
C22 C 0.4520(13) 0.3985(13) 0.4964(7) 0.0449 Uani
C23 C 0.4272(14) 0.4995(16) 0.4526(8) 0.0589 Uani
C24 C 0.5247(13) 0.4030(13) 0.5427(7) 0.0465 Uani
C37 C 0.1222(14) 0.2716(14) 0.5934(7) 0.0486 Uani
H17 H 0.2018 0.2802 0.5966 0.0580 Uiso
C38 C 0.0297(14) 0.3229(13) 0.6352(7) 0.0483 Uani
H18 H 0.0463 0.3666 0.6647 0.0580 Uiso
N6 N 0.1072(10) 0.2111(10) 0.5493(5) 0.0416 Uani
O11 O 0.3310(12) 0.2988(12) 0.4505(7) 0.0798 Uani
O12 O 0.4219(12) 0.2059(11) 0.5281(7) 0.0785 Uani
H34 H 0.4919 0.0304 0.4033 0.2240 Uiso
C53 C 0.6017(18) 0.7031(18) 0.5083(10) 0.0711 Uani
C54 C 0.5480(13) 0.6015(13) 0.5036(7) 0.0449 Uani
C55 C 0.5728(14) 0.5005(16) 0.5474(8) 0.0589 Uani
C56 C 0.4753(13) 0.5970(13) 0.4573(7) 0.0465 Uani
O20 O 0.6690(12) 0.7012(12) 0.5495(7) 0.0798 Uani
O21 O 0.5781(12) 0.7941(11) 0.4719(7) 0.0785 Uani
Cd11 Cd 0.72459(9) 0.88647(9) 0.51283(4) 0.0362 Uani
N22 N 0.1574(11) 0.1532(11) 0.4057(5) 0.0463 Uani
H74 H 0.456166 0.67356 0.423785 . .
H75 H 0.629129 0.500928 0.584019 . .
H78 H 0.370871 0.499072 0.415981 . .
H80 H 0.543834 0.32644 0.576215 . .
C80 C 0.0263(13) 0.2022(13) 0.3041(6) 0.0411 Uani
C81 C 0.0493(14) 0.0896(14) 0.3348(6) 0.0482 Uani
H49 H 0.0212 0.0279 0.3215 0.0580 Uiso
C82 C 0.1142(15) 0.0692(13) 0.3852(7) 0.0503 Uani
C83 C 0.1318(15) 0.2652(14) 0.3761(7) 0.0540 Uani
H51 H 0.1584 0.3261 0.3911 0.0650 Uiso
H52 H 0.0551 0.3713 0.3055 0.0650 Uiso
C84 C 0.0694(15) 0.2922(13) 0.3258(7) 0.0502 Uani
C32 C 0.9737(13) 0.7978(13) 0.6959(6) 0.0411 Uani
C33 C 0.9507(14) 0.9104(14) 0.6652(6) 0.0482 Uani
H13 H 0.9788 0.9721 0.6785 0.0580 Uiso
C34 C 0.8858(15) 0.9308(13) 0.6148(7) 0.0503 Uani
C35 C 0.8682(15) 0.7348(14) 0.6239(7) 0.0540 Uani
H15 H 0.8416 0.6739 0.6089 0.0650 Uiso
H16 H 0.9449 0.6287 0.6945 0.0650 Uiso
C36 C 0.9306(15) 0.7078(13) 0.6742(7) 0.0502 Uani
N5 N 0.8426(11) 0.8468(11) 0.5943(5) 0.0463 Uani
C85 C 0.8778(14) 0.7284(14) 0.4066(7) 0.0486 Uani
H53 H 0.7982 0.7198 0.4034 0.0580 Uiso
C86 C 0.9703(14) 0.6771(13) 0.3648(7) 0.0483 Uani
H54 H 0.9537 0.6334 0.3353 0.0580 Uiso
N16 N 0.8928(10) 0.7889(10) 0.4507(5) 0.0416 Uani
H70 H 0.5081 0.9696 0.5967 0.2240 Uiso
Cd2 Cd 0.34731(10) 0.20042(12) 0.74286(5) 0.0547 Uani
H2 H 0.0018 0.2781 0.8868 0.0580 Uiso
C12 C 0.0792(13) 0.1560(13) 0.7857(7) 0.0447 Uani
C13 C 0.3248(13) 0.4423(15) 0.7013(7) 0.0499 Uani
C14 C 0.3092(12) 0.5617(13) 0.6675(6) 0.0419 Uani
C15 C 0.2472(14) 0.5840(14) 0.6142(7) 0.0511 Uani
H5 H 0.2134 0.5247 0.6024 0.0610 Uiso
C16 C 0.2361(13) 0.6909(13) 0.5799(6) 0.0452 Uani
H6 H 0.1948 0.7023 0.5450 0.0540 Uiso
C17 C 0.2835(12) 0.7817(12) 0.5949(6) 0.0377 Uani
C18 C 0.3455(16) 0.7627(13) 0.6482(7) 0.0527 Uani
H7 H 0.3781 0.8227 0.6602 0.0630 Uiso
C19 C 0.3567(14) 0.6524(14) 0.6822(6) 0.0485 Uani
H8 H 0.3989 0.6400 0.7168 0.0580 Uiso
C20 C 0.2736(12) 0.8984(13) 0.5572(6) 0.0423 Uani
O5 O 0.1580(9) 0.2131(11) 0.7951(5) 0.0555 Uani
O6 O 0.0935(10) 0.0798(10) 0.7481(5) 0.0535 Uani
O7 O 0.2783(13) 0.3665(11) 0.6868(7) 0.0804 Uani
O8 O 0.3896(11) 0.4199(11) 0.7447(6) 0.0691 Uani
O9 O 0.3298(9) 0.9729(8) 0.5707(4) 0.0446 Uani
O10 O 0.2149(11) 0.9169(10) 0.5113(5) 0.0588 Uani
O14 O 0.3117(12) 0.0592(12) 0.6866(6) 0.0775 Uani
O15 O 0.5424(14) 0.1620(15) 0.6843(8) 0.1019 Uani
O16 O 0.428(2) 0.149(2) 0.8244(10) 0.1508 Uani
O17 O 0.4350(10) 0.9971(12) 0.4242(5) 0.0646 Uani
H27 H 0.3699 0.0274 0.6605 0.2240 Uiso
H28 H 0.2448 0.0401 0.6927 0.2240 Uiso
H29 H 0.5617 0.1118 0.6582 0.2240 Uiso
H30 H 0.6003 0.2005 0.6901 0.2240 Uiso
H31 H 0.5090 0.1223 0.8251 0.2240 Uiso
H32 H 0.3852 0.1479 0.8590 0.2240 Uiso
H33 H 0.4424 0.9234 0.4231 0.2240 Uiso
C39 C 0.9123(12) 0.3089(12) 0.6327(6) 0.0368 Uani
C40 C 0.8913(13) 0.2468(13) 0.5863(6) 0.0463 Uani
H19 H 0.8123 0.2376 0.5823 0.0550 Uiso
C41 C 0.9910(14) 0.1991(13) 0.5463(6) 0.0465 Uani
H20 H 0.9774 0.1563 0.5155 0.0560 Uiso
C42 C 0.8118(12) 0.3591(13) 0.6787(6) 0.0405 Uani
C43 C 0.7188(12) 0.4533(13) 0.7532(6) 0.0401 Uani
C44 C 0.6903(12) 0.5213(12) 0.8074(6) 0.0383 Uani
C45 C 0.7844(14) 0.5610(14) 0.8271(7) 0.0513 Uani
H21 H 0.8635 0.5449 0.8066 0.0610 Uiso
C46 C 0.7590(13) 0.6251(13) 0.8778(6) 0.0425 Uani
H22 H 0.8231 0.6503 0.8918 0.0510 Uiso
C47 C 0.5563(13) 0.6112(15) 0.8881(6) 0.0482 Uani
H23 H 0.4777 0.6298 0.9089 0.0580 Uiso
C48 C 0.5735(13) 0.5451(14) 0.8403(7) 0.0474 Uani
H24 H 0.5093 0.5158 0.8294 0.0570 Uiso
N7 N 0.6385(11) 0.4028(11) 0.7306(5) 0.0431 Uani
N8 N 0.6971(10) 0.3413(11) 0.6805(5) 0.0451 Uani
N9 N 0.8293(10) 0.4285(10) 0.7220(5) 0.0417 Uani
N10 N 0.6473(10) 0.6524(10) 0.9077(5) 0.0401 Uani
H36 H 0.5612 0.4094 0.7356 0.2240 Uiso
Cd8 Cd 0.61004(9) 0.77144(9) 0.98927(4) 0.0364 Uani
C49 C 0.7956(13) 0.8941(13) 0.9895(7) 0.0480 Uani
C50 C 0.9015(12) 0.9489(12) 0.9949(7) 0.0416 Uani
O18 O 0.8000(12) 0.8300(11) 0.9477(6) 0.0710 Uani
O30 O 0.4962(12) 0.9293(13) 0.9283(5) 0.0778 Uani
H61 H 0.4158 0.9351 0.9258 0.2240 Uiso
H62 H 0.5284 0.9802 0.9072 0.2240 Uiso
Cd1 Cd 0.38996(9) 0.22856(9) 0.01073(4) 0.0364 Uani
C1 C 0.2044(13) 0.1059(13) 0.0105(7) 0.0480 Uani
C2 C 0.0985(12) 0.0511(12) 0.0051(7) 0.0416 Uani
O1 O 0.2000(12) 0.1700(11) 0.0523(6) 0.0710 Uani
O13 O 0.5038(12) 0.0707(13) 0.0717(5) 0.0778 Uani
H25 H 0.5842 0.0649 0.0742 0.2240 Uiso
H26 H 0.4716 0.0198 0.0928 0.2240 Uiso
N24 N 0.3527(10) 0.3476(10) 0.0923(5) 0.0401 Uani
C87 C 0.0877(12) 0.6911(12) 0.3673(6) 0.0368 Uani
C88 C 0.1087(13) 0.7532(13) 0.4137(6) 0.0463 Uani
H55 H 0.1877 0.7624 0.4177 0.0550 Uiso
C89 C 0.0090(14) 0.8009(13) 0.4537(6) 0.0465 Uani
H56 H 0.0226 0.8437 0.4845 0.0560 Uiso
C90 C 0.1882(12) 0.6409(13) 0.3213(6) 0.0405 Uani
C91 C 0.2812(12) 0.5467(13) 0.2468(6) 0.0401 Uani
C92 C 0.3097(12) 0.4787(12) 0.1926(6) 0.0383 Uani
C93 C 0.2156(14) 0.4390(14) 0.1729(7) 0.0513 Uani
H57 H 0.1365 0.4551 0.1934 0.0610 Uiso
C94 C 0.2410(13) 0.3749(13) 0.1222(6) 0.0425 Uani
H58 H 0.1769 0.3497 0.1082 0.0510 Uiso
C95 C 0.4437(13) 0.3888(15) 0.1119(6) 0.0482 Uani
H59 H 0.5223 0.3702 0.0911 0.0580 Uiso
C96 C 0.4265(13) 0.4549(14) 0.1597(7) 0.0474 Uani
H60 H 0.4907 0.4842 0.1706 0.0570 Uiso
N17 N 0.3615(11) 0.5972(11) 0.2694(5) 0.0431 Uani
N18 N 0.3029(10) 0.6587(11) 0.3195(5) 0.0451 Uani
N19 N 0.1707(10) 0.5715(10) 0.2780(5) 0.0417 Uani
H72 H 0.4388 0.5906 0.2644 0.2240 Uiso
C5 C 0.6140(13) 0.2317(13) 0.9403(6) 0.0450 Uani
C6 C 0.7326(12) 0.2160(12) 0.9001(6) 0.0407 Uani
C7 C 0.8309(14) 0.2606(14) 0.9136(6) 0.0501 Uani
H1 H 0.8221 0.3016 0.9484 0.0600 Uiso
C8 C 0.9386(14) 0.2454(13) 0.8773(7) 0.0486 Uani
C9 C 0.9566(13) 0.1808(12) 0.8252(6) 0.0427 Uani
C10 C 0.8590(14) 0.1363(17) 0.8106(7) 0.0596 Uani
H3 H 0.8678 0.0962 0.7756 0.0720 Uiso
C11 C 0.7480(14) 0.1517(17) 0.8486(7) 0.0599 Uani
H4 H 0.6843 0.1192 0.8396 0.0720 Uiso
C25 C 0.2841(13) 0.5048(12) 0.9578(6) 0.0433 Uani
H9 H 0.3220 0.5205 0.9901 0.0520 Uiso
C26 C 0.2345(13) 0.5998(13) 0.9191(6) 0.0442 Uani
H10 H 0.2384 0.6775 0.9252 0.0530 Uiso
C27 C 0.1786(13) 0.5785(13) 0.8707(6) 0.0437 Uani
C28 C 0.1725(13) 0.4628(13) 0.8645(6) 0.0460 Uani
H11 H 0.1338 0.4465 0.8327 0.0550 Uiso
C29 C 0.2237(13) 0.3706(14) 0.9052(7) 0.0480 Uani
H12 H 0.2189 0.2925 0.9005 0.0580 Uiso
C30 C 0.1307(12) 0.6765(12) 0.8254(6) 0.0382 Uani
C31 C 0.0411(13) 0.7657(13) 0.7510(6) 0.0408 Uani
N1 N 0.2817(10) 0.3922(11) 0.9524(5) 0.0435 Uani
N2 N 0.0914(11) 0.8437(10) 0.7747(5) 0.0451 Uani
N3 N 0.1499(11) 0.7848(11) 0.8241(5) 0.0457 Uani
N4 N 0.0642(10) 0.6619(10) 0.7803(5) 0.0396 Uani
O2 O 0.2966(10) 0.0918(10) 0.9708(6) 0.0636 Uani
O3 O 0.5987(10) 0.2881(12) 0.9856(5) 0.0671 Uani
O4 O 0.5306(9) 0.1826(11) 0.9259(5) 0.0602 Uani
H35 H 0.0952 0.9207 0.7667 0.2240 Uiso
C4 C 0.1013(14) 0.9795(14) 0.9570(7) 0.0490 Uani
C51 C 0.0053(14) 0.9293(14) 0.9523(7) 0.0495 Uani
H73 H 0.00910208 0.873476 0.915174 . .
H77 H 0.181508 0.964425 0.923284 . .
H50 H 0.1281 0.9930 0.4056 0.0610 Uiso
H14 H 0.8719 0.0070 0.5944 0.0610 Uiso
C3 C 0.9947(14) 0.0707(14) 0.0477(7) 0.0495 Uani
C52 C 0.8987(14) 0.0205(14) 0.0430(7) 0.0490 Uani
H76 H 0.818492 0.0355754 0.0767162 . .
H79 H 0.990898 0.126524 0.0848262 . .
O19 O 0.7034(10) 0.9082(10) 0.0292(6) 0.0636 Uani
C57 C 0.3860(13) 0.7683(13) 0.0597(6) 0.0450 Uani
C58 C 0.2674(12) 0.7840(12) 0.0999(6) 0.0407 Uani
C59 C 0.1691(14) 0.7394(14) 0.0864(6) 0.0501 Uani
H37 H 0.1779 0.6984 0.0516 0.0600 Uiso
C60 C 0.0614(14) 0.7546(13) 0.1227(7) 0.0486 Uani
C61 C 0.0434(13) 0.8192(12) 0.1748(6) 0.0427 Uani
C62 C 0.1410(14) 0.8637(17) 0.1894(7) 0.0596 Uani
H39 H 0.1322 0.9038 0.2244 0.0720 Uiso
C63 C 0.2520(14) 0.8483(17) 0.1514(7) 0.0599 Uani
H40 H 0.3157 0.8808 0.1604 0.0720 Uiso
C73 C 0.7159(13) 0.4952(12) 0.0422(6) 0.0433 Uani
H45 H 0.6780 0.4795 0.0099 0.0520 Uiso
C74 C 0.7655(13) 0.4002(13) 0.0809(6) 0.0442 Uani
H46 H 0.7616 0.3225 0.0748 0.0530 Uiso
C75 C 0.8214(13) 0.4215(13) 0.1293(6) 0.0437 Uani
C76 C 0.8275(13) 0.5372(13) 0.1355(6) 0.0460 Uani
H47 H 0.8662 0.5535 0.1673 0.0550 Uiso
C77 C 0.7763(13) 0.6294(14) 0.0948(7) 0.0480 Uani
H48 H 0.7811 0.7075 0.0995 0.0580 Uiso
C78 C 0.8693(12) 0.3235(12) 0.1746(6) 0.0382 Uani
C79 C 0.9589(13) 0.2343(13) 0.2490(6) 0.0408 Uani
N11 N 0.7183(10) 0.6078(11) 0.0476(5) 0.0435 Uani
N12 N 0.9086(11) 0.1563(10) 0.2253(5) 0.0451 Uani
N13 N 0.8501(11) 0.2152(11) 0.1759(5) 0.0457 Uani
N14 N 0.9358(10) 0.3381(10) 0.2197(5) 0.0396 Uani
O22 O 0.4013(10) 0.7119(12) 0.0144(5) 0.0671 Uani
O23 O 0.4694(9) 0.8174(11) 0.0741(5) 0.0602 Uani
H71 H 0.9048 0.0793 0.2333 0.2240 Uiso
Cd5 Cd 0.65269(10) 0.79958(12) 0.25714(5) 0.0547 Uani
H38 H 0.9982 0.7219 0.1132 0.0580 Uiso
C64 C 0.9208(13) 0.8440(13) 0.2143(7) 0.0447 Uani
C65 C 0.6752(13) 0.5577(15) 0.2987(7) 0.0499 Uani
C66 C 0.6908(12) 0.4383(13) 0.3325(6) 0.0419 Uani
C67 C 0.7528(14) 0.4160(14) 0.3858(7) 0.0511 Uani
H41 H 0.7866 0.4753 0.3976 0.0610 Uiso
C68 C 0.7639(13) 0.3091(13) 0.4201(6) 0.0452 Uani
H42 H 0.8052 0.2977 0.4550 0.0540 Uiso
C69 C 0.7165(12) 0.2183(12) 0.4051(6) 0.0377 Uani
C70 C 0.6545(16) 0.2373(13) 0.3518(7) 0.0527 Uani
H43 H 0.6219 0.1773 0.3398 0.0630 Uiso
C71 C 0.6433(14) 0.3476(14) 0.3178(6) 0.0485 Uani
H44 H 0.6011 0.3600 0.2832 0.0580 Uiso
C72 C 0.7264(12) 0.1016(13) 0.4428(6) 0.0423 Uani
O24 O 0.8420(9) 0.7869(11) 0.2049(5) 0.0555 Uani
O25 O 0.9065(10) 0.9202(10) 0.2519(5) 0.0535 Uani
O26 O 0.7217(13) 0.6335(11) 0.3132(7) 0.0804 Uani
O27 O 0.6104(11) 0.5801(11) 0.2553(6) 0.0691 Uani
O28 O 0.6702(9) 0.0271(8) 0.4293(4) 0.0446 Uani
O29 O 0.7851(11) 0.0831(10) 0.4887(5) 0.0588 Uani
O31 O 0.6883(12) 0.9408(12) 0.3134(6) 0.0775 Uani
O32 O 0.4576(14) 0.8380(15) 0.3157(8) 0.1019 Uani
O33 O 0.572(2) 0.851(2) 0.1756(10) 0.1508 Uani
O34 O 0.5650(10) 0.0029(12) 0.5758(5) 0.0646 Uani
H63 H 0.6301 0.9726 0.3395 0.2240 Uiso
H64 H 0.7552 0.9599 0.3073 0.2240 Uiso
H65 H 0.4383 0.8882 0.3418 0.2240 Uiso
H66 H 0.3997 0.7995 0.3099 0.2240 Uiso
H67 H 0.4910 0.8777 0.1749 0.2240 Uiso
H68 H 0.6148 0.8521 0.1410 0.2240 Uiso
H69 H 0.5576 0.0766 0.5769 0.2240 Uiso
loop_
_atom_site_aniso_label
_atom_site_aniso_U_11
_atom_site_aniso_U_22
_atom_site_aniso_U_33
_atom_site_aniso_U_23
_atom_site_aniso_U_13
_atom_site_aniso_U_12
Cd3 0.0375 0.0399 0.0339 -0.0085 -0.0072 -0.0102
C21 0.064 0.062 0.096 -0.013 -0.001 -0.032
C22 0.046 0.04 0.052 -0.011 0.003 -0.017
C23 0.044 0.071 0.063 -0.013 -0.009 -0.011
C24 0.046 0.045 0.05 0.009 -0.006 -0.018
C37 0.042 0.059 0.051 -0.02 -0.005 -0.017
C38 0.054 0.049 0.047 -0.025 -0.007 -0.012
N6 0.044 0.044 0.04 -0.015 -0.009 -0.009
O11 0.076 0.079 0.099 -0.016 -0.012 -0.041
O12 0.07 0.057 0.11 -0.013 0.002 -0.02
C53 0.064 0.062 0.096 -0.013 -0.001 -0.032
C54 0.046 0.04 0.052 -0.011 0.003 -0.017
C55 0.044 0.071 0.063 -0.013 -0.009 -0.011
C56 0.046 0.045 0.05 0.009 -0.006 -0.018
O20 0.076 0.079 0.099 -0.016 -0.012 -0.041
O21 0.07 0.057 0.11 -0.013 0.002 -0.02
Cd11 0.0375 0.0399 0.0339 -0.0085 -0.0072 -0.0102
N22 0.055 0.046 0.04 -0.003 -0.017 -0.01
C80 0.049 0.044 0.031 -0.003 -0.02 -0.004
C81 0.061 0.055 0.036 -0.006 -0.018 -0.02
C82 0.065 0.039 0.053 0 -0.025 -0.016
C83 0.073 0.044 0.056 -0.013 -0.025 -0.022
C84 0.065 0.034 0.058 -0.002 -0.026 -0.015
C32 0.049 0.044 0.031 -0.003 -0.02 -0.004
C33 0.061 0.055 0.036 -0.006 -0.018 -0.02
C34 0.065 0.039 0.053 0 -0.025 -0.016
C35 0.073 0.044 0.056 -0.013 -0.025 -0.022
C36 0.065 0.034 0.058 -0.002 -0.026 -0.015
N5 0.055 0.046 0.04 -0.003 -0.017 -0.01
C85 0.042 0.059 0.051 -0.02 -0.005 -0.017
C86 0.054 0.049 0.047 -0.025 -0.007 -0.012
N16 0.044 0.044 0.04 -0.015 -0.009 -0.009
Cd2 0.0459 0.0782 0.0437 -0.0118 -0.0009 -0.0203
C12 0.044 0.043 0.048 -0.002 -0.008 -0.011
C13 0.035 0.071 0.044 0.007 -0.001 -0.019
C14 0.038 0.042 0.045 -0.005 0 -0.009
C15 0.055 0.048 0.061 -0.017 -0.004 -0.028
C16 0.049 0.05 0.042 -0.009 -0.02 -0.012
C17 0.042 0.037 0.034 -0.003 -0.008 -0.007
C18 0.082 0.042 0.041 -0.004 -0.011 -0.025
C19 0.063 0.054 0.039 -0.006 -0.015 -0.028
C20 0.035 0.048 0.041 -0.011 -0.007 0.001
O5 0.041 0.077 0.057 -0.014 0.006 -0.032
O6 0.059 0.059 0.05 -0.015 0.008 -0.03
O7 0.094 0.057 0.098 -0.009 0.008 -0.04
O8 0.05 0.071 0.08 0.022 0.008 -0.021
O9 0.053 0.037 0.047 0.004 -0.013 -0.016
O10 0.078 0.054 0.046 0.007 -0.023 -0.015
O14 0.074 0.076 0.088 -0.041 0.036 -0.035
O15 0.084 0.119 0.125 -0.066 0.044 -0.069
O16 0.142 0.174 0.137 -0.023 -0.037 -0.022
O17 0.041 0.098 0.053 -0.016 0.001 -0.011
C39 0.044 0.036 0.032 -0.013 -0.004 -0.008
C40 0.036 0.056 0.051 -0.023 -0.006 -0.01
C41 0.054 0.053 0.04 -0.014 -0.004 -0.023
C42 0.042 0.046 0.036 -0.012 0 -0.013
C43 0.039 0.048 0.035 -0.017 0.001 -0.01
C44 0.039 0.045 0.036 -0.015 -0.005 -0.014
C45 0.044 0.057 0.058 -0.026 -0.002 -0.014
C46 0.045 0.057 0.032 -0.02 -0.005 -0.017
C47 0.037 0.075 0.036 -0.02 0.011 -0.02
C48 0.041 0.057 0.053 -0.026 -0.007 -0.018
N7 0.048 0.05 0.035 -0.02 0.001 -0.014
N8 0.04 0.059 0.041 -0.022 -0.004 -0.013
N9 0.039 0.044 0.044 -0.015 -0.003 -0.009
N10 0.044 0.047 0.033 -0.013 -0.007 -0.012
Cd8 0.0359 0.0405 0.0356 -0.0142 -0.0035 -0.0096
C49 0.043 0.045 0.06 -0.005 -0.006 -0.017
C50 0.039 0.031 0.055 -0.003 -0.012 -0.005
O18 0.077 0.076 0.078 -0.03 -0.006 -0.043
O30 0.076 0.089 0.056 -0.012 -0.011 0.01
Cd1 0.0359 0.0405 0.0356 -0.0142 -0.0035 -0.0096
C1 0.043 0.045 0.06 -0.005 -0.006 -0.017
C2 0.039 0.031 0.055 -0.003 -0.012 -0.005
O1 0.077 0.076 0.078 -0.03 -0.006 -0.043
O13 0.076 0.089 0.056 -0.012 -0.011 0.01
N24 0.044 0.047 0.033 -0.013 -0.007 -0.012
C87 0.044 0.036 0.032 -0.013 -0.004 -0.008
C88 0.036 0.056 0.051 -0.023 -0.006 -0.01
C89 0.054 0.053 0.04 -0.014 -0.004 -0.023
C90 0.042 0.046 0.036 -0.012 0 -0.013
C91 0.039 0.048 0.035 -0.017 0.001 -0.01
C92 0.039 0.045 0.036 -0.015 -0.005 -0.014
C93 0.044 0.057 0.058 -0.026 -0.002 -0.014
C94 0.045 0.057 0.032 -0.02 -0.005 -0.017
C95 0.037 0.075 0.036 -0.02 0.011 -0.02
C96 0.041 0.057 0.053 -0.026 -0.007 -0.018
N17 0.048 0.05 0.035 -0.02 0.001 -0.014
N18 0.04 0.059 0.041 -0.022 -0.004 -0.013
N19 0.039 0.044 0.044 -0.015 -0.003 -0.009
C5 0.042 0.051 0.043 -0.013 0.002 -0.012
C6 0.041 0.043 0.043 -0.016 -0.008 -0.012
C7 0.062 0.061 0.036 -0.015 -0.006 -0.026
C8 0.048 0.049 0.057 -0.011 -0.004 -0.025
C9 0.045 0.039 0.047 -0.002 -0.004 -0.016
C10 0.042 0.09 0.054 -0.03 -0.005 -0.019
C11 0.041 0.092 0.058 -0.036 0 -0.027
C25 0.054 0.04 0.041 -0.003 -0.015 -0.016
C26 0.052 0.047 0.04 -0.021 -0.014 -0.012
C27 0.045 0.047 0.038 -0.008 0.001 -0.009
C28 0.052 0.052 0.04 -0.005 -0.025 -0.013
C29 0.045 0.046 0.061 -0.015 -0.016 -0.016
C30 0.042 0.038 0.039 -0.01 -0.008 -0.013
C31 0.046 0.05 0.031 -0.008 -0.008 -0.016
N1 0.041 0.054 0.038 -0.005 -0.008 -0.013
N2 0.056 0.039 0.046 -0.011 -0.017 -0.013
N3 0.059 0.053 0.03 -0.006 -0.015 -0.016
N4 0.038 0.047 0.035 0.002 -0.009 -0.012
O2 0.047 0.06 0.087 -0.014 0.007 -0.022
O3 0.056 0.098 0.054 -0.037 0.004 -0.022
O4 0.041 0.09 0.055 -0.023 0.009 -0.025
C4 0.054 0.053 0.045 -0.022 0.013 -0.023
C51 0.044 0.059 0.047 -0.02 0.005 -0.013
C3 0.044 0.059 0.047 -0.02 0.005 -0.013
C52 0.054 0.053 0.045 -0.022 0.013 -0.023
O19 0.047 0.06 0.087 -0.014 0.007 -0.022
C57 0.042 0.051 0.043 -0.013 0.002 -0.012
C58 0.041 0.043 0.043 -0.016 -0.008 -0.012
C59 0.062 0.061 0.036 -0.015 -0.006 -0.026
C60 0.048 0.049 0.057 -0.011 -0.004 -0.025
C61 0.045 0.039 0.047 -0.002 -0.004 -0.016
C62 0.042 0.09 0.054 -0.03 -0.005 -0.019
C63 0.041 0.092 0.058 -0.036 0 -0.027
C73 0.054 0.04 0.041 -0.003 -0.015 -0.016
C74 0.052 0.047 0.04 -0.021 -0.014 -0.012
C75 0.045 0.047 0.038 -0.008 0.001 -0.009
C76 0.052 0.052 0.04 -0.005 -0.025 -0.013
C77 0.045 0.046 0.061 -0.015 -0.016 -0.016
C78 0.042 0.038 0.039 -0.01 -0.008 -0.013
C79 0.046 0.05 0.031 -0.008 -0.008 -0.016
N11 0.041 0.054 0.038 -0.005 -0.008 -0.013
N12 0.056 0.039 0.046 -0.011 -0.017 -0.013
N13 0.059 0.053 0.03 -0.006 -0.015 -0.016
N14 0.038 0.047 0.035 0.002 -0.009 -0.012
O22 0.056 0.098 0.054 -0.037 0.004 -0.022
O23 0.041 0.09 0.055 -0.023 0.009 -0.025
Cd5 0.0459 0.0782 0.0437 -0.0118 -0.0009 -0.0203
C64 0.044 0.043 0.048 -0.002 -0.008 -0.011
C65 0.035 0.071 0.044 0.007 -0.001 -0.019
C66 0.038 0.042 0.045 -0.005 0 -0.009
C67 0.055 0.048 0.061 -0.017 -0.004 -0.028
C68 0.049 0.05 0.042 -0.009 -0.02 -0.012
C69 0.042 0.037 0.034 -0.003 -0.008 -0.007
C70 0.082 0.042 0.041 -0.004 -0.011 -0.025
C71 0.063 0.054 0.039 -0.006 -0.015 -0.028
C72 0.035 0.048 0.041 -0.011 -0.007 0.001
O24 0.041 0.077 0.057 -0.014 0.006 -0.032
O25 0.059 0.059 0.05 -0.015 0.008 -0.03
O26 0.094 0.057 0.098 -0.009 0.008 -0.04
O27 0.05 0.071 0.08 0.022 0.008 -0.021
O28 0.053 0.037 0.047 0.004 -0.013 -0.016
O29 0.078 0.054 0.046 0.007 -0.023 -0.015
O31 0.074 0.076 0.088 -0.041 0.036 -0.035
O32 0.084 0.119 0.125 -0.066 0.044 -0.069
O33 0.142 0.174 0.137 -0.023 -0.037 -0.022
O34 0.041 0.098 0.053 -0.016 0.001 -0.011
loop_
_geom_bond_atom_site_label_1
_geom_bond_atom_site_label_2
_geom_bond_site_symmetry_1
_geom_bond_site_symmetry_2
Cd3 N6 1_555 1_555
C21 C22 1_555 1_555
C22 C23 1_555 1_555
C23 C56 1_555 1_555
C24 C22 1_555 1_555
C37 H17 1_555 1_555
C38 C37 1_555 1_555
H18 C38 1_555 1_555
N6 C37 1_555 1_555
O11 Cd3 1_555 1_555
O12 Cd3 1_555 1_555
C53 C54 1_555 1_555
C54 C55 1_555 1_555
C55 C24 1_555 1_555
C56 C54 1_555 1_555
O20 C53 1_555 1_555
O21 C53 1_555 1_555
Cd11 O20 1_555 1_555
N22 Cd3 1_555 1_555
C21 O11 1_555 1_555
C21 O12 1_555 1_555
O21 Cd11 1_555 1_555
C56 H74 1_555 1_555
C55 H75 1_555 1_555
C23 H78 1_555 1_555
C24 H80 1_555 1_555
C80 C81 1_555 1_555
C81 H49 1_555 1_555
C82 C81 1_555 1_555
C83 H51 1_555 1_555
H52 C84 1_555 1_555
C84 C80 1_555 1_555
N22 C82 1_555 1_555
C83 C84 1_555 1_555
C83 N22 1_555 1_555
C32 C33 1_555 1_555
C33 H13 1_555 1_555
C34 C33 1_555 1_555
C35 H15 1_555 1_555
H16 C36 1_555 1_555
C36 C32 1_555 1_555
N5 C34 1_555 1_555
Cd11 N5 1_555 1_555
C35 C36 1_555 1_555
C35 N5 1_555 1_555
Cd11 N16 1_555 1_555
C85 H53 1_555 1_555
C86 C85 1_555 1_555
H54 C86 1_555 1_555
N16 C85 1_555 1_555
Cd2 O5 1_555 1_555
C13 C14 1_555 1_555
C14 C15 1_555 1_555
C15 H5 1_555 1_555
C16 C15 1_555 1_555
H6 C16 1_555 1_555
C17 C16 1_555 1_555
C18 C17 1_555 1_555
H7 C18 1_555 1_555
C19 C14 1_555 1_555
H8 C19 1_555 1_555
C20 C17 1_555 1_555
O5 C12 1_555 1_555
O6 C12 1_555 1_555
O7 Cd2 1_555 1_555
O8 Cd2 1_555 1_555
O14 Cd2 1_555 1_555
O15 Cd2 1_555 1_555
O16 Cd2 1_555 1_555
H27 O14 1_555 1_555
H28 O14 1_555 1_555
H29 O15 1_555 1_555
H30 O15 1_555 1_555
H31 O16 1_555 1_555
H32 O16 1_555 1_555
H33 O17 1_555 1_555
C13 O7 1_555 1_555
C13 O8 1_555 1_555
C18 C19 1_555 1_555
C20 O9 1_555 1_555
C20 O10 1_555 1_555
C40 C39 1_555 1_555
H19 C40 1_555 1_555
C41 C40 1_555 1_555
H20 C41 1_555 1_555
C42 C39 1_555 1_555
C43 C44 1_555 1_555
C44 C45 1_555 1_555
C45 H21 1_555 1_555
C46 C45 1_555 1_555
H22 C46 1_555 1_555
C47 H23 1_555 1_555
C48 C44 1_555 1_555
H24 C48 1_555 1_555
N7 C43 1_555 1_555
N8 C42 1_555 1_555
N9 C42 1_555 1_555
N10 C46 1_555 1_555
H36 N7 1_555 1_555
Cd8 N10 1_555 1_555
C43 N9 1_555 1_555
C47 C48 1_555 1_555
C47 N10 1_555 1_555
N7 N8 1_555 1_555
C49 C50 1_555 1_555
O18 C49 1_555 1_555
Cd8 O18 1_555 1_555
O30 Cd8 1_555 1_555
H61 O30 1_555 1_555
H62 O30 1_555 1_555
C1 C2 1_555 1_555
O1 Cd1 1_555 1_555
O13 Cd1 1_555 1_555
H25 O13 1_555 1_555
H26 O13 1_555 1_555
N24 Cd1 1_555 1_555
C1 O1 1_555 1_555
C88 C87 1_555 1_555
H55 C88 1_555 1_555
C89 C88 1_555 1_555
H56 C89 1_555 1_555
C90 C87 1_555 1_555
C91 C92 1_555 1_555
C92 C93 1_555 1_555
C93 H57 1_555 1_555
C94 C93 1_555 1_555
H58 C94 1_555 1_555
C95 H59 1_555 1_555
C96 C92 1_555 1_555
H60 C96 1_555 1_555
N17 C91 1_555 1_555
N18 C90 1_555 1_555
N19 C90 1_555 1_555
N24 C94 1_555 1_555
H72 N17 1_555 1_555
C91 N19 1_555 1_555
C95 C96 1_555 1_555
C95 N24 1_555 1_555
N17 N18 1_555 1_555
C5 C6 1_555 1_555
C6 C7 1_555 1_555
C7 H1 1_555 1_555
C8 C7 1_555 1_555
C9 C8 1_555 1_555
C10 C9 1_555 1_555
H3 C10 1_555 1_555
C11 C6 1_555 1_555
H4 C11 1_555 1_555
C25 H9 1_555 1_555
C26 C25 1_555 1_555
H10 C26 1_555 1_555
C27 C26 1_555 1_555
C28 C27 1_555 1_555
H11 C28 1_555 1_555
C29 C28 1_555 1_555
H12 C29 1_555 1_555
C30 C27 1_555 1_555
N1 C25 1_555 1_555
N2 C31 1_555 1_555
N3 C30 1_555 1_555
N4 C30 1_555 1_555
H35 N2 1_555 1_555
C5 O3 1_555 1_555
C5 O4 1_555 1_555
C10 C11 1_555 1_555
C29 N1 1_555 1_555
C31 N4 1_555 1_555
N2 N3 1_555 1_555
C51 C4 1_555 1_555
C51 H73 1_555 1_555
C4 H77 1_555 1_555
C3 C52 1_555 1_555
C52 H76 1_555 1_555
C3 H79 1_555 1_555
C57 C58 1_555 1_555
C58 C59 1_555 1_555
C59 H37 1_555 1_555
C60 C59 1_555 1_555
C61 C60 1_555 1_555
C62 C61 1_555 1_555
H39 C62 1_555 1_555
C63 C58 1_555 1_555
H40 C63 1_555 1_555
C73 H45 1_555 1_555
C74 C73 1_555 1_555
H46 C74 1_555 1_555
C75 C74 1_555 1_555
C76 C75 1_555 1_555
H47 C76 1_555 1_555
C77 C76 1_555 1_555
H48 C77 1_555 1_555
C78 C75 1_555 1_555
N12 C79 1_555 1_555
N13 C78 1_555 1_555
N14 C78 1_555 1_555
H71 N12 1_555 1_555
C57 O22 1_555 1_555
C57 O23 1_555 1_555
C62 C63 1_555 1_555
C73 N11 1_555 1_555
C77 N11 1_555 1_555
C79 N14 1_555 1_555
N12 N13 1_555 1_555
Cd5 O24 1_555 1_555
C65 C66 1_555 1_555
C66 C67 1_555 1_555
C67 H41 1_555 1_555
C68 C67 1_555 1_555
H42 C68 1_555 1_555
C69 C68 1_555 1_555
C70 C69 1_555 1_555
H43 C70 1_555 1_555
C71 C66 1_555 1_555
H44 C71 1_555 1_555
C72 C69 1_555 1_555
O24 C64 1_555 1_555
O25 C64 1_555 1_555
O26 Cd5 1_555 1_555
O27 Cd5 1_555 1_555
O31 Cd5 1_555 1_555
O32 Cd5 1_555 1_555
O33 Cd5 1_555 1_555
H63 O31 1_555 1_555
H64 O31 1_555 1_555
H65 O32 1_555 1_555
H66 O32 1_555 1_555
H67 O33 1_555 1_555
H68 O33 1_555 1_555
H69 O34 1_555 1_555
C65 O26 1_555 1_555
C65 O27 1_555 1_555
C70 C71 1_555 1_555
C72 O28 1_555 1_555
C72 O29 1_555 1_555

#END
