
###############################################################################
#
# This file contains modified crystal structure data generated from the
# MOF subset of the Cambridge Structural Database (CSD) v543 
# hosted by the Cambridge Crystallographic Data Centre (CCDC).
#
# This work is licensed under the Creative Commons
# Attribution-NonCommercial-ShareAlike 4.0 International License.
# To view a copy of this license, visit
# http://creativecommons.org/licenses/by-nc-sa/4.0/
# or send a letter to
# Creative Commons, PO Box 1866, Mountain View, CA 94042, USA.
#
# CIF created using the CSD Python API on 29 September 2022
# The structure has been converted into the P1 space group
# The structure has a 3D framework
# The original CSD entry VIDXOX is in the triclinic crystal system
# The framework has been calculated to contain at least 10.0% void space
# The void calculation uses a probe of radius 1.32A, grid spacing 0.4
# H atom positions have been added when not included in the experimental data
# Generated hydrogen atom positions removed from atoms on special positions
#
###############################################################################

data_VIDXOX
_chemical_formula_moiety         '(C30 H54 Er4 O34)n'
_symmetry_cell_setting           triclinic
_symmetry_space_group_name_H-M   'P 1'
_symmetry_Int_Tables_number      1
_space_group_name_Hall           'P 1'
loop_
_symmetry_equiv_pos_site_id
_symmetry_equiv_pos_as_xyz
1 x,y,z
_cell_length_a                   10.4135(2)
_cell_length_b                   10.5541(2)
_cell_length_c                   14.0372(4)
_cell_angle_alpha                99.5950(10)
_cell_angle_beta                 99.6200(10)
_cell_angle_gamma                108.8430(10)
_cell_volume                     1398.72
loop_
_atom_site_label
_atom_site_type_symbol
_atom_site_fract_x
_atom_site_fract_y
_atom_site_fract_z
_atom_site_U_iso_or_equiv
_atom_site_thermal_displace_type
Er1 Er 0.035843(18) 0.535827(18) 0.178552(14) 0.0144 Uani
O2 O 0.2464(4) 0.6164(5) 0.3011(3) 0.0407 Uani
O6 O 0.1188(4) 0.7644(3) 0.1462(3) 0.0273 Uani
O10 O 0.0802(4) 0.3249(3) 0.1890(3) 0.0270 Uani
C3 C 0.1248(4) 0.1089(4) 0.0468(3) 0.0169 Uani
H1 H 0.2079 0.1817 0.0783 0.0200 Uiso
O19 O 0.3624(4) 0.0069(4) 0.0469(3) 0.0279 Uani
O27 O 0.1543(4) 0.5930(4) 0.7706(3) 0.0248 Uani
O28 O 0.0002(5) 0.3158(4) 0.7011(3) 0.0330 Uani
O29 O 0.1247(5) 0.2549(5) 0.6058(4) 0.0470 Uani
C26 C 0.0302(5) 0.4199(5) 0.5651(4) 0.0214 Uani
C27 C 0.0829(5) 0.5648(4) 0.5961(3) 0.0203 Uani
C28 C 0.0511(5) 0.6417(5) 0.5303(4) 0.0251 Uani
H6 H 0.0857 0.7373 0.5513 0.0300 Uiso
C29 C 0.0562(5) 0.3260(5) 0.6303(4) 0.0248 Uani
C30 C 0.1769(4) 0.6423(4) 0.6967(3) 0.0177 Uani
O30 O 0.2738(4) 0.7523(4) 0.7009(3) 0.0292 Uani
Er10 Er 0.458221(18) 0.934616(18) 0.818012(14) 0.0157 Uani
Er12 Er 0.541779(18) 0.065384(18) 0.181988(14) 0.0157 Uani
O42 O 0.2068(3) 0.5494(4) 0.0932(3) 0.0242 Uani
O39 O 0.0762(3) 0.6899(3) 0.9426(2) 0.0190 Uani
O41 O 0.1312(3) 0.4425(3) 0.9323(3) 0.0231 Uani
C16 C 0.0017(4) 0.8792(4) 0.9443(3) 0.0171 Uani
C17 C 0.1277(4) 0.9880(4) 0.9905(3) 0.0156 Uani
C19 C 0.0009(4) 0.7414(4) 0.8944(4) 0.0183 Uani
C20 C 0.2650(4) 0.9823(4) 0.9730(4) 0.0173 Uani
O22 O 0.2730(4) 0.9580(4) 0.8836(3) 0.0281 Uani
O8 O 0.7270(4) 0.0420(4) 0.1164(3) 0.0281 Uani
O9 O 0.9238(3) 0.3101(3) 0.0574(2) 0.0190 Uani
C1 C 0.9983(4) 0.1208(4) 0.0557(3) 0.0171 Uani
C2 C 0.8723(4) 0.0120(4) 0.0095(3) 0.0156 Uani
C4 C 0.9991(4) 0.2586(4) 0.1056(4) 0.0183 Uani
C5 C 0.7350(4) 0.0177(4) 0.0270(4) 0.0173 Uani
O11 O 0.8688(3) 0.5575(3) 0.0677(3) 0.0231 Uani
C8 C 0.6188(4) 0.5993(4) 0.0649(4) 0.0187 Uani
H2 H 0.6985 0.6655 0.1085 0.0230 Uiso
O15 O 0.8457(4) 0.4070(4) 0.2294(3) 0.0248 Uani
O16 O 0.7262(4) 0.2477(4) 0.2991(3) 0.0292 Uani
O17 O 0.9998(5) 0.6842(4) 0.2989(3) 0.0330 Uani
O18 O 0.8753(5) 0.7451(5) 0.3942(4) 0.0470 Uani
C11 C 0.9698(5) 0.5801(5) 0.4349(4) 0.0214 Uani
C12 C 0.9171(5) 0.4352(4) 0.4039(3) 0.0203 Uani
C13 C 0.9489(5) 0.3583(5) 0.4697(4) 0.0251 Uani
H3 H 0.9143 0.2627 0.4487 0.0300 Uiso
C14 C 0.9438(5) 0.6740(5) 0.3697(4) 0.0248 Uani
C15 C 0.8231(4) 0.3577(4) 0.3033(3) 0.0177 Uani
O24 O 0.4744(3) 0.8217(3) 0.1144(3) 0.0208 Uani
O25 O 0.5027(6) 0.7151(5) 0.2363(4) 0.0470 Uani
C21 C 0.4881(4) 0.6018(4) 0.0719(3) 0.0158 Uani
C22 C 0.3684(4) 0.5016(4) 0.0068(3) 0.0154 Uani
C24 C 0.4849(4) 0.7205(4) 0.1470(3) 0.0168 Uani
C25 C 0.2252(4) 0.4986(4) 0.0118(3) 0.0154 Uani
O31 O 0.5999(4) 0.2405(3) 0.0955(3) 0.0265 Uani
O34 O 0.4477(5) 0.2245(4) 0.2508(4) 0.0462 Uani
Er8 Er 0.964157(18) 0.464173(18) 0.821448(14) 0.0144 Uani
H19 H 0.739631 0.0493482 0.341033 . .
H24 H 0.309125 0.0212243 0.270629 . .
O3 O 0.6383(4) 0.0405(4) 0.7433(4) 0.0419 Uani
O4 O 0.3576(5) 0.0153(4) 0.6896(3) 0.0454 Uani
O12 O 0.7932(3) 0.4506(4) 0.9068(3) 0.0242 Uani
O13 O 0.5256(3) 0.1783(3) 0.8856(3) 0.0208 Uani
O14 O 0.4973(6) 0.2849(5) 0.7637(4) 0.0470 Uani
C6 C 0.5119(4) 0.3982(4) 0.9281(3) 0.0158 Uani
C7 C 0.6316(4) 0.4984(4) 0.9932(3) 0.0154 Uani
C9 C 0.5151(4) 0.2795(4) 0.8530(3) 0.0168 Uani
C10 C 0.7748(4) 0.5014(4) 0.9882(3) 0.0154 Uani
C23 C 0.3812(4) 0.4007(4) 0.9351(4) 0.0187 Uani
H5 H 0.3015 0.3345 0.8915 0.0230 Uiso
O35 O 0.7536(4) 0.3836(5) 0.6989(3) 0.0407 Uani
O36 O 0.8812(4) 0.2356(3) 0.8538(3) 0.0273 Uani
O40 O 0.9198(4) 0.6751(3) 0.8110(3) 0.0270 Uani
H8 H 0.617021 0.113214 0.714411 . .
O32 O 0.3617(4) 0.9595(4) 0.2567(4) 0.0419 Uani
O33 O 0.6424(5) 0.9847(4) 0.3104(3) 0.0454 Uani
H23 H 0.402764 0.941756 0.319932 . .
O1 O 0.4001(4) 0.7595(3) 0.9045(3) 0.0265 Uani
O5 O 0.5523(5) 0.7755(4) 0.7492(4) 0.0462 Uani
O7 O 0.6376(4) 0.9931(4) 0.9531(3) 0.0279 Uani
C18 C 0.8752(4) 0.8911(4) 0.9532(3) 0.0169 Uani
H4 H 0.7921 0.8183 0.9217 0.0200 Uiso
H7 H 0.645509 0.970372 0.689846 . .
H7_2 H 0.354491 0.0296282 0.310154 . .
H23_2 H 0.597236 0.058244 0.680068 . .
H8_2 H 0.382979 0.886786 0.285589 . .
H19_2 H 0.260369 0.950652 0.658967 . .
H24_2 H 0.690875 0.978776 0.729371 . .
loop_
_atom_site_aniso_label
_atom_site_aniso_U_11
_atom_site_aniso_U_22
_atom_site_aniso_U_33
_atom_site_aniso_U_23
_atom_site_aniso_U_13
_atom_site_aniso_U_12
Er1 0.01289 0.01235 0.01529 0.0006 0.00287 0.00253
O2 0.0255 0.051 0.032 -0.0033 -0.0045 0.0082
O6 0.0297 0.019 0.026 0.0027 0.0061 0.0011
O10 0.0291 0.0192 0.0254 -0.0045 -0.0061 0.0101
C3 0.0127 0.0119 0.022 -0.0002 0.0021 0.002
O19 0.0189 0.0265 0.033 -0.0008 -0.0023 0.0094
O27 0.0231 0.0238 0.017 0.0015 0.0044 -0.0036
O28 0.055 0.0221 0.026 0.0063 0.0209 0.0135
O29 0.069 0.051 0.044 0.0217 0.0261 0.0402
C26 0.02 0.0179 0.019 0.0011 0.0035 -0.0004
C27 0.024 0.0166 0.014 0.0003 0.0039 0.001
C28 0.035 0.0131 0.02 0.001 0.0045 0.0018
C29 0.027 0.027 0.023 0.0058 0.0088 0.0118
C30 0.0188 0.0137 0.014 -0.002 0.0025 0.0007
O30 0.0308 0.0207 0.0205 0.0032 0.0005 -0.0074
Er10 0.01407 0.01342 0.01536 -1e-05 0.00277 0.00158
Er12 0.01407 0.01342 0.01536 -1e-05 0.00277 0.00158
O42 0.0179 0.0282 0.0243 -0.0006 0.008 0.0073
O39 0.0227 0.015 0.0183 0.0005 0.0033 0.0078
O41 0.0159 0.0224 0.0276 0.0019 -0.001 0.0074
C16 0.0145 0.0137 0.022 0.0036 0.0036 0.0043
C17 0.0129 0.0144 0.019 0.0022 0.0042 0.0051
C19 0.0168 0.0123 0.024 0.002 0.0043 0.0041
C20 0.0112 0.0133 0.026 0.003 0.0044 0.0033
O22 0.0217 0.0331 0.03 0.0048 0.0122 0.0087
O8 0.0217 0.0331 0.03 0.0048 0.0122 0.0087
O9 0.0227 0.015 0.0183 0.0005 0.0033 0.0078
C1 0.0145 0.0137 0.022 0.0036 0.0036 0.0043
C2 0.0129 0.0144 0.019 0.0022 0.0042 0.0051
C4 0.0168 0.0123 0.024 0.002 0.0043 0.0041
C5 0.0112 0.0133 0.026 0.003 0.0044 0.0033
O11 0.0159 0.0224 0.0276 0.0019 -0.001 0.0074
C8 0.0126 0.0157 0.023 -0.0018 0.0027 0.0028
O15 0.0231 0.0238 0.017 0.0015 0.0044 -0.0036
O16 0.0308 0.0207 0.0205 0.0032 0.0005 -0.0074
O17 0.055 0.0221 0.026 0.0063 0.0209 0.0135
O18 0.069 0.051 0.044 0.0217 0.0261 0.0402
C11 0.02 0.0179 0.019 0.0011 0.0035 -0.0004
C12 0.024 0.0166 0.014 0.0003 0.0039 0.001
C13 0.035 0.0131 0.02 0.001 0.0045 0.0018
C14 0.027 0.027 0.023 0.0058 0.0088 0.0118
C15 0.0188 0.0137 0.014 -0.002 0.0025 0.0007
O24 0.0264 0.0133 0.0209 0.0025 0.0041 0.0065
O25 0.069 0.051 0.044 0.0217 0.0261 0.0402
C21 0.0149 0.0128 0.018 0.0005 0.0038 0.0044
C22 0.0112 0.0157 0.017 0.0005 0.0029 0.0038
C24 0.0135 0.0141 0.02 0.0014 0.0033 0.0028
C25 0.0123 0.0132 0.021 0.004 0.0045 0.0046
O31 0.0304 0.0197 0.0224 0.0045 0.0031 0.0018
O34 0.05 0.031 0.064 0.002 0.03 0.0192
Er8 0.01289 0.01235 0.01529 0.0006 0.00287 0.00253
O3 0.036 0.034 0.046 0.0019 0.0221 -0.0023
O4 0.055 0.0231 0.038 0.0085 -0.014 -0.0006
O12 0.0179 0.0282 0.0243 -0.0006 0.008 0.0073
O13 0.0264 0.0133 0.0209 0.0025 0.0041 0.0065
O14 0.069 0.051 0.044 0.0217 0.0261 0.0402
C6 0.0149 0.0128 0.018 0.0005 0.0038 0.0044
C7 0.0112 0.0157 0.017 0.0005 0.0029 0.0038
C9 0.0135 0.0141 0.02 0.0014 0.0033 0.0028
C10 0.0123 0.0132 0.021 0.004 0.0045 0.0046
C23 0.0126 0.0157 0.023 -0.0018 0.0027 0.0028
O35 0.0255 0.051 0.032 -0.0033 -0.0045 0.0082
O36 0.0297 0.019 0.026 0.0027 0.0061 0.0011
O40 0.0291 0.0192 0.0254 -0.0045 -0.0061 0.0101
O32 0.036 0.034 0.046 0.0019 0.0221 -0.0023
O33 0.055 0.0231 0.038 0.0085 -0.014 -0.0006
O1 0.0304 0.0197 0.0224 0.0045 0.0031 0.0018
O5 0.05 0.031 0.064 0.002 0.03 0.0192
O7 0.0189 0.0265 0.033 -0.0008 -0.0023 0.0094
C18 0.0127 0.0119 0.022 -0.0002 0.0021 0.002
loop_
_geom_bond_atom_site_label_1
_geom_bond_atom_site_label_2
_geom_bond_site_symmetry_1
_geom_bond_site_symmetry_2
Er1 O2 1_555 1_555
O6 Er1 1_555 1_555
O10 Er1 1_555 1_555
H1 C3 1_555 1_555
O27 C30 1_555 1_555
O28 C29 1_555 1_555
O29 C29 1_555 1_555
C27 C26 1_555 1_555
H6 C28 1_555 1_555
C29 C26 1_555 1_555
C30 C27 1_555 1_555
O30 C30 1_555 1_555
Er10 O30 1_555 1_555
Er12 O19 1_555 1_555
O42 Er1 1_555 1_555
C27 C28 1_555 1_555
O39 C19 1_555 1_555
C16 C17 1_555 1_555
C19 C16 1_555 1_555
C20 C17 1_555 1_555
O22 C20 1_555 1_555
Er10 O22 1_555 1_555
O8 C5 1_555 1_555
C1 C2 1_555 1_555
C2 C5 1_555 1_555
C4 O9 1_555 1_555
C8 H2 1_555 1_555
O16 C15 1_555 1_555
O18 C14 1_555 1_555
C11 C12 1_555 1_555
C12 C13 1_555 1_555
C13 H3 1_555 1_555
C14 O17 1_555 1_555
C15 O15 1_555 1_555
O24 C24 1_555 1_555
O25 C24 1_555 1_555
C21 C8 1_555 1_555
C22 C21 1_555 1_555
C24 C21 1_555 1_555
C25 C22 1_555 1_555
O42 C25 1_555 1_555
Er12 O8 1_555 1_555
O31 Er12 1_555 1_555
O34 Er12 1_555 1_555
C1 C4 1_555 1_555
O16 Er12 1_555 1_555
C11 C14 1_555 1_555
C12 C15 1_555 1_555
O12 C10 1_555 1_555
O14 C9 1_555 1_555
C6 C7 1_555 1_555
C9 O13 1_555 1_555
C23 C6 1_555 1_555
H5 C23 1_555 1_555
Er8 O12 1_555 1_555
O35 Er8 1_555 1_555
O36 Er8 1_555 1_555
O40 Er8 1_555 1_555
C6 C9 1_555 1_555
C7 C10 1_555 1_555
O3 H8 1_555 1_555
O32 H23 1_555 1_555
Er10 O1 1_555 1_555
O5 Er10 1_555 1_555
O7 Er10 1_555 1_555
H4 C18 1_555 1_555
O3 H23_2 1_555 1_555
O32 H8_2 1_555 1_555

#END
