
###############################################################################
#
# This file contains modified crystal structure data generated from the
# MOF subset of the Cambridge Structural Database (CSD) v543 
# hosted by the Cambridge Crystallographic Data Centre (CCDC).
#
# This work is licensed under the Creative Commons
# Attribution-NonCommercial-ShareAlike 4.0 International License.
# To view a copy of this license, visit
# http://creativecommons.org/licenses/by-nc-sa/4.0/
# or send a letter to
# Creative Commons, PO Box 1866, Mountain View, CA 94042, USA.
#
# CIF created using the CSD Python API on 29 September 2022
# The structure has been converted into the P1 space group
# The structure has a 3D framework
# The original CSD entry VIFBOD is in the triclinic crystal system
# The framework has been calculated to contain at least 10.0% void space
# The void calculation uses a probe of radius 1.32A, grid spacing 0.4
# H atom positions have been added when not included in the experimental data
# Generated hydrogen atom positions removed from atoms on special positions
#
###############################################################################

data_VIFBOD
_chemical_formula_moiety         '(C30 H42 O33 Tm4)n'
_symmetry_cell_setting           triclinic
_symmetry_space_group_name_H-M   'P 1'
_symmetry_Int_Tables_number      1
_space_group_name_Hall           'P 1'
loop_
_symmetry_equiv_pos_site_id
_symmetry_equiv_pos_as_xyz
1 x,y,z
_cell_length_a                   10.2850(2)
_cell_length_b                   11.5717(3)
_cell_length_c                   13.5114(4)
_cell_angle_alpha                85.5810(10)
_cell_angle_beta                 69.2090(10)
_cell_angle_gamma                63.7550(10)
_cell_volume                     1342.23
loop_
_atom_site_label
_atom_site_type_symbol
_atom_site_fract_x
_atom_site_fract_y
_atom_site_fract_z
_atom_site_U_iso_or_equiv
_atom_site_thermal_displace_type
Tm1 Tm 0.555394(13) 0.275444(12) 0.320310(9) 0.0145 Uani
O7 O 0.6995(3) 0.0622(2) 0.3577(2) 0.0225 Uani
O8 O 0.2716(3) 0.2253(3) 0.6345(2) 0.0237 Uani
O9 O 0.5144(3) 0.1650(2) 0.2120(2) 0.0253 Uani
O10 O 0.5806(4) 0.4223(3) 0.1940(3) 0.0375 Uani
C1 C 0.1382(3) 0.2472(3) 0.5187(2) 0.0155 Uani
O13 O 0.7992(3) 0.1776(3) 0.1801(2) 0.0355 Uani
O16 O 0.3913(3) 0.2356(3) 0.4637(2) 0.0254 Uani
C3 C 0.5567(3) 0.0487(3) 0.1840(2) 0.0169 Uani
C4 C 0.1428(3) 0.1563(3) 0.4522(2) 0.0163 Uani
C6 C 0.0067(3) 0.1720(3) 0.4407(3) 0.0183 Uani
H1 H 0.0105 0.1106 0.3978 0.0220 Uiso
C7 C 0.2778(3) 0.2342(3) 0.5389(2) 0.0166 Uani
C8 C 0.5280(3) 0.0214(3) 0.0892(2) 0.0162 Uani
C9 C 0.4200(4) 0.1223(3) 0.0540(2) 0.0189 Uani
H2 H 0.3654 0.2039 0.0913 0.0230 Uiso
C15 C 0.2881(3) 0.0377(3) 0.3954(2) 0.0174 Uani
O21 O 0.1318(3) 0.2463(4) 0.0030(3) 0.0430 Uani
Tm12 Tm 0.468822(14) 0.203020(12) 0.690698(10) 0.0149 Uani
O37 O 0.4007(3) 0.4814(2) 0.4260(2) 0.0234 Uani
O38 O 0.7152(3) 0.3024(3) 0.3885(2) 0.0229 Uani
O42 O 0.2967(3) 0.4332(3) 0.3280(2) 0.0253 Uani
O18 O 0.3804(3) 0.0462(2) 0.76827(18) 0.0193 Uani
O19 O 0.2997(3) 0.2797(2) 0.86117(19) 0.0236 Uani
C19 C 0.2656(4) 0.2166(3) 0.9398(3) 0.0205 Uani
C20 C 0.3932(3) 0.1028(3) 0.9650(2) 0.0163 Uani
Tm2 Tm 0.531178(14) 0.796980(12) 0.309302(10) 0.0149 Uani
O1 O 0.3929(3) 0.9849(2) 0.43527(19) 0.0189 Uani
O2 O 0.6196(3) 0.9538(2) 0.23173(18) 0.0193 Uani
O5 O 0.7003(3) 0.7203(2) 0.13883(19) 0.0236 Uani
O12 O 0.6529(3) 0.5778(3) 0.3256(2) 0.0311 Uani
O14 O 0.3005(3) 0.9876(2) 0.3103(2) 0.0230 Uani
C11 C 0.7344(4) 0.7834(3) 0.0602(3) 0.0205 Uani
C12 C 0.6068(3) 0.8972(3) 0.0350(2) 0.0163 Uani
O17 O 0.4028(4) 0.7274(4) 0.2275(3) 0.0387 Uani
O24 O 0.2848(3) 0.6976(3) 0.6115(2) 0.0229 Uani
C22 C 0.1345(3) 0.7224(3) 0.5079(2) 0.0151 Uani
O32 O 0.3617(3) 0.7546(3) 0.4484(2) 0.0270 Uani
C24 C 0.1397(3) 0.6281(3) 0.4457(2) 0.0162 Uani
C27 C 0.0031(3) 0.6452(3) 0.4323(2) 0.0176 Uani
H6 H 0.0070 0.5833 0.3898 0.0210 Uiso
C28 C 0.2737(3) 0.7217(3) 0.5220(2) 0.0162 Uani
C29 C 0.2873(3) 0.5081(3) 0.3966(3) 0.0192 Uani
Tm9 Tm 0.444606(13) 0.724556(12) 0.679690(9) 0.0145 Uani
O44 O 0.7284(3) 0.7747(3) 0.3655(2) 0.0237 Uani
O11 O 0.8682(3) 0.7537(4) 0.9970(3) 0.0430 Uani
O20 O 0.4856(3) 0.8350(2) 0.7880(2) 0.0253 Uani
C16 C 0.4433(3) 0.9513(3) 0.8160(2) 0.0169 Uani
C17 C 0.4720(3) 0.9786(3) 0.9108(2) 0.0162 Uani
C18 C 0.5800(4) 0.8777(3) 0.9460(2) 0.0189 Uani
H4 H 0.6346 0.7961 0.9087 0.0230 Uiso
O3 O 0.5993(3) 0.5186(2) 0.5740(2) 0.0234 Uani
O6 O 0.7033(3) 0.5668(3) 0.6720(2) 0.0253 Uani
C2 C 0.8655(3) 0.2776(3) 0.4921(2) 0.0151 Uani
O15 O 0.6383(3) 0.2454(3) 0.5516(2) 0.0270 Uani
C5 C 0.8603(3) 0.3719(3) 0.5543(2) 0.0162 Uani
C10 C 0.9969(3) 0.3548(3) 0.5677(2) 0.0176 Uani
H3 H 0.9930 0.4167 0.6102 0.0210 Uiso
C13 C 0.7263(3) 0.2783(3) 0.4780(2) 0.0162 Uani
C14 C 0.7127(3) 0.4919(3) 0.6034(3) 0.0192 Uani
O22 O 0.6071(3) 0.0151(2) 0.56473(19) 0.0189 Uani
O29 O 0.3471(3) 0.4222(3) 0.6744(2) 0.0311 Uani
O31 O 0.6995(3) 0.0124(2) 0.6897(2) 0.0230 Uani
O34 O 0.5972(4) 0.2726(4) 0.7725(3) 0.0387 Uani
H19 H 0.270444 0.000546986 0.701897 . .
O26 O 0.3005(3) 0.9378(2) 0.6423(2) 0.0225 Uani
O28 O 0.4194(4) 0.5777(3) 0.8060(3) 0.0375 Uani
C21 C 0.8618(3) 0.7528(3) 0.4813(2) 0.0155 Uani
O30 O 0.2008(3) 0.8224(3) 0.8199(2) 0.0355 Uani
O33 O 0.6087(3) 0.7644(3) 0.5363(2) 0.0254 Uani
C23 C 0.8572(3) 0.8437(3) 0.5478(2) 0.0163 Uani
C25 C 0.9933(3) 0.8280(3) 0.5593(3) 0.0183 Uani
H5 H 0.9895 0.8894 0.6022 0.0220 Uiso
C26 C 0.7222(3) 0.7658(3) 0.4611(2) 0.0166 Uani
C30 C 0.7119(3) 0.9623(3) 0.6046(2) 0.0174 Uani
H19_2 H 0.729556 0.999453 0.298103 . .
loop_
_atom_site_aniso_label
_atom_site_aniso_U_11
_atom_site_aniso_U_22
_atom_site_aniso_U_33
_atom_site_aniso_U_23
_atom_site_aniso_U_13
_atom_site_aniso_U_12
Tm1 0.01435 0.01322 0.01603 -0.00122 -0.00672 -0.00476
O7 0.0283 0.018 0.0222 0.0007 -0.0108 -0.0095
O8 0.0225 0.029 0.0224 0.0032 -0.0141 -0.0094
O9 0.0358 0.0154 0.0275 -0.0008 -0.0203 -0.0065
O10 0.0351 0.0289 0.042 0.0142 -0.01 -0.0134
C1 0.0138 0.0162 0.0167 0.0001 -0.0059 -0.0063
O13 0.023 0.042 0.0258 0.0003 -0.0028 -0.0054
O16 0.0178 0.0245 0.0328 0.0039 -0.0063 -0.0108
C3 0.0188 0.0171 0.016 0.0001 -0.0078 -0.0076
C4 0.0128 0.0141 0.0188 -0.0023 -0.0066 -0.002
C6 0.0146 0.0172 0.022 -0.0036 -0.0072 -0.0047
C7 0.0151 0.0144 0.0205 0.0013 -0.0095 -0.0042
C8 0.0195 0.014 0.0149 0.0005 -0.0082 -0.0057
C9 0.0282 0.0138 0.0151 -0.0019 -0.0106 -0.0069
C15 0.0147 0.0148 0.0192 -0.0013 -0.0064 -0.003
O21 0.0209 0.0442 0.0392 0.0152 -0.0037 -0.0007
Tm12 0.01463 0.01325 0.01599 -0.00022 -0.00611 -0.00485
O37 0.0171 0.0172 0.0337 -0.0069 -0.012 -0.0022
O38 0.0221 0.0263 0.0255 0.0014 -0.0145 -0.0104
O42 0.021 0.0214 0.0309 -0.0089 -0.013 -0.0026
O18 0.0252 0.0173 0.019 0.0032 -0.0126 -0.0091
O19 0.0295 0.0162 0.0165 0.0012 -0.0067 -0.004
C19 0.0209 0.0184 0.0196 0.0019 -0.0104 -0.0041
C20 0.0186 0.0132 0.0153 -0.0005 -0.0071 -0.0045
Tm2 0.01463 0.01325 0.01599 -0.00022 -0.00611 -0.00485
O1 0.0178 0.016 0.0205 0 -0.0094 -0.0032
O2 0.0252 0.0173 0.019 0.0032 -0.0126 -0.0091
O5 0.0295 0.0162 0.0165 0.0012 -0.0067 -0.004
O12 0.032 0.016 0.0378 0.0043 -0.0081 -0.0079
O14 0.0199 0.0221 0.0231 -0.0062 -0.0093 -0.0036
C11 0.0209 0.0184 0.0196 0.0019 -0.0104 -0.0041
C12 0.0186 0.0132 0.0153 -0.0005 -0.0071 -0.0045
O17 0.0395 0.046 0.041 -0.0033 -0.0234 -0.0197
O24 0.0221 0.0263 0.0255 0.0014 -0.0145 -0.0104
C22 0.0121 0.0153 0.0166 -0.0009 -0.0052 -0.0046
O32 0.023 0.0263 0.0307 0.001 -0.0043 -0.014
C24 0.0112 0.0149 0.0195 -0.0023 -0.0054 -0.0027
C27 0.0155 0.0166 0.0222 -0.0029 -0.0092 -0.0058
C28 0.0142 0.0136 0.0211 -0.0014 -0.0073 -0.0051
C29 0.0159 0.0144 0.0231 -0.0032 -0.0065 -0.0027
Tm9 0.01435 0.01322 0.01603 -0.00122 -0.00672 -0.00476
O44 0.0225 0.029 0.0224 0.0032 -0.0141 -0.0094
O11 0.0209 0.0442 0.0392 0.0152 -0.0037 -0.0007
O20 0.0358 0.0154 0.0275 -0.0008 -0.0203 -0.0065
C16 0.0188 0.0171 0.016 0.0001 -0.0078 -0.0076
C17 0.0195 0.014 0.0149 0.0005 -0.0082 -0.0057
C18 0.0282 0.0138 0.0151 -0.0019 -0.0106 -0.0069
O3 0.0171 0.0172 0.0337 -0.0069 -0.012 -0.0022
O6 0.021 0.0214 0.0309 -0.0089 -0.013 -0.0026
C2 0.0121 0.0153 0.0166 -0.0009 -0.0052 -0.0046
O15 0.023 0.0263 0.0307 0.001 -0.0043 -0.014
C5 0.0112 0.0149 0.0195 -0.0023 -0.0054 -0.0027
C10 0.0155 0.0166 0.0222 -0.0029 -0.0092 -0.0058
C13 0.0142 0.0136 0.0211 -0.0014 -0.0073 -0.0051
C14 0.0159 0.0144 0.0231 -0.0032 -0.0065 -0.0027
O22 0.0178 0.016 0.0205 0 -0.0094 -0.0032
O29 0.032 0.016 0.0378 0.0043 -0.0081 -0.0079
O31 0.0199 0.0221 0.0231 -0.0062 -0.0093 -0.0036
O34 0.0395 0.046 0.041 -0.0033 -0.0234 -0.0197
O26 0.0283 0.018 0.0222 0.0007 -0.0108 -0.0095
O28 0.0351 0.0289 0.042 0.0142 -0.01 -0.0134
C21 0.0138 0.0162 0.0167 0.0001 -0.0059 -0.0063
O30 0.023 0.042 0.0258 0.0003 -0.0028 -0.0054
O33 0.0178 0.0245 0.0328 0.0039 -0.0063 -0.0108
C23 0.0128 0.0141 0.0188 -0.0023 -0.0066 -0.002
C25 0.0146 0.0172 0.022 -0.0036 -0.0072 -0.0047
C26 0.0151 0.0144 0.0205 0.0013 -0.0095 -0.0042
C30 0.0147 0.0148 0.0192 -0.0013 -0.0064 -0.003
loop_
_geom_bond_atom_site_label_1
_geom_bond_atom_site_label_2
_geom_bond_site_symmetry_1
_geom_bond_site_symmetry_2
Tm1 O7 1_555 1_555
O8 C7 1_555 1_555
O9 Tm1 1_555 1_555
O10 Tm1 1_555 1_555
C1 C4 1_555 1_555
O13 Tm1 1_555 1_555
O16 Tm1 1_555 1_555
C4 C6 1_555 1_555
H1 C6 1_555 1_555
C7 C1 1_555 1_555
C8 C3 1_555 1_555
C9 C8 1_555 1_555
H2 C9 1_555 1_555
Tm12 O8 1_555 1_555
O37 Tm1 1_555 1_555
O38 Tm1 1_555 1_555
O42 Tm1 1_555 1_555
O9 C3 1_555 1_555
O16 C7 1_555 1_555
C4 C15 1_555 1_555
O19 C19 1_555 1_555
C19 C20 1_555 1_555
Tm12 O18 1_555 1_555
O19 Tm12 1_555 1_555
Tm2 O1 1_555 1_555
O2 Tm2 1_555 1_555
O5 Tm2 1_555 1_555
O12 Tm2 1_555 1_555
O14 Tm2 1_555 1_555
C11 O5 1_555 1_555
O17 Tm2 1_555 1_555
O37 C29 1_555 1_555
O24 C28 1_555 1_555
O42 C29 1_555 1_555
C22 C24 1_555 1_555
O32 Tm2 1_555 1_555
C24 C27 1_555 1_555
H6 C27 1_555 1_555
C28 C22 1_555 1_555
C29 C24 1_555 1_555
Tm9 O24 1_555 1_555
O44 Tm2 1_555 1_555
C11 C12 1_555 1_555
O32 C28 1_555 1_555
O20 C16 1_555 1_555
C16 C17 1_555 1_555
C17 C18 1_555 1_555
H4 C18 1_555 1_555
Tm9 O20 1_555 1_555
O3 C14 1_555 1_555
O38 C13 1_555 1_555
O6 C14 1_555 1_555
C2 C5 1_555 1_555
O15 C13 1_555 1_555
C5 C10 1_555 1_555
H3 C10 1_555 1_555
C13 C2 1_555 1_555
C14 C5 1_555 1_555
Tm12 O15 1_555 1_555
O22 Tm12 1_555 1_555
O29 Tm12 1_555 1_555
O31 Tm12 1_555 1_555
O34 Tm12 1_555 1_555
Tm9 O3 1_555 1_555
O6 Tm9 1_555 1_555
Tm9 O26 1_555 1_555
O44 C26 1_555 1_555
O28 Tm9 1_555 1_555
C21 C23 1_555 1_555
O30 Tm9 1_555 1_555
O33 Tm9 1_555 1_555
C23 C25 1_555 1_555
H5 C25 1_555 1_555
C26 C21 1_555 1_555
O33 C26 1_555 1_555
C23 C30 1_555 1_555

#END
