
###############################################################################
#
# This file contains modified crystal structure data generated from the
# MOF subset of the Cambridge Structural Database (CSD) v543 
# hosted by the Cambridge Crystallographic Data Centre (CCDC).
#
# This work is licensed under the Creative Commons
# Attribution-NonCommercial-ShareAlike 4.0 International License.
# To view a copy of this license, visit
# http://creativecommons.org/licenses/by-nc-sa/4.0/
# or send a letter to
# Creative Commons, PO Box 1866, Mountain View, CA 94042, USA.
#
# CIF created using the CSD Python API on 29 September 2022
# The structure has been converted into the P1 space group
# The structure has a 3D framework
# The original CSD entry VIGBOF is in the tetragonal crystal system
# The framework has been calculated to contain at least 10.0% void space
# The void calculation uses a probe of radius 1.32A, grid spacing 0.4
#
###############################################################################

data_VIGBOF
_chemical_formula_moiety         '(C836 H704 N128 O128 Zn30)n'
_symmetry_cell_setting           triclinic
_symmetry_space_group_name_H-M   'P 1'
_symmetry_Int_Tables_number      1
_space_group_name_Hall           'P 1'
loop_
_symmetry_equiv_pos_site_id
_symmetry_equiv_pos_as_xyz
1 x,y,z
_cell_length_a                   24.720
_cell_length_b                   24.720
_cell_length_c                   35.625
_cell_angle_alpha                90
_cell_angle_beta                 90
_cell_angle_gamma                90
_cell_volume                     21769.7
loop_
_atom_site_label
_atom_site_type_symbol
_atom_site_fract_x
_atom_site_fract_y
_atom_site_fract_z
H8 H 0.0065 0.1823 0.0790
N5 N 0.0681(4) 0.0334(4) 0.1488(3)
C1 C 0.1920(5) 0.8172(5) 0.9320(3)
H1 H 0.1842 0.7860 0.9456
C2 C 0.1965(5) 0.9029(5) 0.9161(3)
H2 H 0.1930 0.9404 0.9164
C3 C 0.2191(5) 0.8723(5) 0.8889(3)
H3 H 0.2341 0.8856 0.8668
C24 C 0.1520(5) 0.8807(5) 0.9773(3)
C25 C 0.1141(4) 0.9223(5) 0.9778(3)
H21 H 0.1065 0.9419 0.9561
N1 N 0.2166(4) 0.8181(4) 0.8988(3)
N2 N 0.1801(4) 0.8673(4) 0.9430(2)
Zn3 Zn 0.24919(7) 0.74973(6) 0.86979(3)
C4 C 0.8052(5) 0.1832(5) 0.3079(3)
H4 H 0.8107 0.2143 0.2938
C5 C 0.8045(4) 0.0975(5) 0.3252(3)
H5 H 0.8094 0.0602 0.3258
C6 C 0.7801(4) 0.1285(5) 0.3516(3)
H6 H 0.7648 0.1153 0.3736
C7 C 0.9726(5) 0.1645(5) 0.0746(3)
H7 H 0.9705 0.1535 0.0488
H9 H 0.9434 0.1889 0.0801
C8 C 0.9684(5) 0.1157(5) 0.0994(3)
C9 C 0.9399(5) 0.1203(5) 0.1332(3)
H10 H 0.9241 0.1539 0.1375
C10 C 0.9318(5) 0.0823(5) 0.1612(3)
C11 C 0.9028(5) 0.0966(5) 0.1958(4)
C12 C 0.8655(5) 0.1387(5) 0.1981(3)
H11 H 0.8586 0.1595 0.1768
C13 C 0.8383(5) 0.1504(5) 0.2310(3)
H12 H 0.8137 0.1788 0.2317
C14 C 0.8479(5) 0.1196(5) 0.2628(3)
C15 C 0.8853(5) 0.0774(5) 0.2617(3)
H13 H 0.8925 0.0570 0.2830
C16 C 0.9116(5) 0.0665(5) 0.2278(3)
H14 H 0.9359 0.0378 0.2268
N3 N 0.7812(4) 0.1815(4) 0.3416(2)
N4 N 0.8204(4) 0.1326(4) 0.2974(3)
O1 O 0.9926(3) 0.0733(3) 0.08924(19)
O2 O 0.9500(3) 0.0337(3) 0.16065(18)
Zn1 Zn 0.99973(6) 0.00081(7) 0.11979(3)
Zn2 Zn 0.74919(7) 0.24973(6) 0.36979(3)
C4_2 C 0.1948(5) 0.3168(5) 0.3079(3)
H4_2 H 0.1893 0.2857 0.2938
C5_2 C 0.1955(4) 0.4025(5) 0.3252(3)
H5_2 H 0.1906 0.4398 0.3258
C6_2 C 0.2199(4) 0.3715(5) 0.3516(3)
H6_2 H 0.2352 0.3847 0.3736
C7_2 C 0.0274(5) 0.3355(5) 0.0746(3)
H7_2 H 0.0295 0.3465 0.0488
H9_2 H 0.0566 0.3111 0.0801
C8_2 C 0.0316(5) 0.3843(5) 0.0994(3)
C9_2 C 0.0601(5) 0.3797(5) 0.1332(3)
H10_2 H 0.0759 0.3461 0.1375
C10_2 C 0.0682(5) 0.4177(5) 0.1612(3)
C11_2 C 0.0972(5) 0.4034(5) 0.1958(4)
C12_2 C 0.1345(5) 0.3613(5) 0.1981(3)
H11_2 H 0.1414 0.3405 0.1768
C13_2 C 0.1617(5) 0.3496(5) 0.2310(3)
H12_2 H 0.1863 0.3212 0.2317
C14_2 C 0.1521(5) 0.3804(5) 0.2628(3)
C15_2 C 0.1147(5) 0.4226(5) 0.2617(3)
H13_2 H 0.1075 0.4430 0.2830
C16_2 C 0.0884(5) 0.4335(5) 0.2278(3)
H14_2 H 0.0641 0.4622 0.2268
H15 H 0.0067 0.6816 0.1603
N3_2 N 0.2188(4) 0.3185(4) 0.3416(2)
N4_2 N 0.1796(4) 0.3674(4) 0.2974(3)
O1_2 O 0.0074(3) 0.4267(3) 0.08924(19)
O2_2 O 0.0500(3) 0.4663(3) 0.16065(18)
Zn1_2 Zn 0.00027(6) 0.49919(7) 0.11979(3)
N6 N 0.0685(4) 0.5312(4) 0.0916(2)
Zn2_2 Zn 0.25081(7) 0.25027(6) 0.36979(3)
H8_2 H 0.9935 0.3177 0.0790
C17 C 0.9735(5) 0.6629(5) 0.1654(3)
H16 H 0.9730 0.6515 0.1912
H17 H 0.9435 0.6866 0.1608
C18 C 0.9692(5) 0.6135(6) 0.1399(3)
C19 C 0.9394(5) 0.6184(5) 0.1057(3)
H18 H 0.9226 0.6514 0.1014
C20 C 0.9331(5) 0.5792(6) 0.0785(3)
C21 C 0.9013(5) 0.5944(5) 0.0431(3)
C22 C 0.8646(5) 0.6361(5) 0.0424(3)
H19 H 0.8583 0.6562 0.0640
C23 C 0.8368(5) 0.6487(5) 0.0098(3)
H20 H 0.8111 0.6762 0.0095
C26 C 0.9120(5) 0.5660(5) 0.0110(3)
H22 H 0.9373 0.5382 0.0116
O3 O 0.9929(3) 0.5717(3) 0.15063(19)
O4 O 0.9511(3) 0.5314(3) 0.07927(18)
N5_2 N 0.9319(4) 0.4666(4) 0.1488(3)
C1_2 C 0.8080(5) 0.6828(5) 0.9320(3)
H1_2 H 0.8158 0.7140 0.9456
C2_2 C 0.8035(5) 0.5971(5) 0.9161(3)
H2_2 H 0.8070 0.5596 0.9164
C3_2 C 0.7809(5) 0.6277(5) 0.8889(3)
H3_2 H 0.7659 0.6144 0.8668
C24_2 C 0.8480(5) 0.6193(5) 0.9773(3)
C25_2 C 0.8859(4) 0.5777(5) 0.9778(3)
H21_2 H 0.8935 0.5581 0.9561
N1_2 N 0.7834(4) 0.6819(4) 0.8988(3)
N2_2 N 0.8199(4) 0.6327(4) 0.9430(2)
Zn3_2 Zn 0.75081(7) 0.75027(6) 0.86979(3)
C1_3 C 0.9328(5) 0.4420(5) 0.1820(3)
H1_3 H 0.9640 0.4342 0.1956
C2_3 C 0.8471(5) 0.4465(5) 0.1661(3)
H2_3 H 0.8096 0.4430 0.1664
C3_3 C 0.8777(5) 0.4691(5) 0.1389(3)
H3_3 H 0.8644 0.4841 0.1168
C4_3 C 0.5668(5) 0.0552(5) 0.5579(3)
H4_3 H 0.5357 0.0607 0.5438
C5_3 C 0.6525(5) 0.0545(4) 0.5752(3)
H5_3 H 0.6898 0.0594 0.5758
C6_3 C 0.6215(5) 0.0301(4) 0.6016(3)
H6_3 H 0.6347 0.0148 0.6236
C7_3 C 0.5855(5) 0.2226(5) 0.3246(3)
H7_3 H 0.5965 0.2205 0.2988
H8_3 H 0.5677 0.2565 0.3290
H9_3 H 0.5611 0.1934 0.3301
C8_3 C 0.6343(5) 0.2184(5) 0.3494(3)
C9_3 C 0.6297(5) 0.1899(5) 0.3832(3)
H10_3 H 0.5961 0.1741 0.3875
C10_3 C 0.6677(5) 0.1818(5) 0.4112(3)
C11_3 C 0.6534(5) 0.1528(5) 0.4458(4)
C12_3 C 0.6113(5) 0.1155(5) 0.4481(3)
H11_3 H 0.5905 0.1086 0.4268
C13_3 C 0.5996(5) 0.0883(5) 0.4810(3)
H12_3 H 0.5712 0.0637 0.4817
C14_3 C 0.6304(5) 0.0979(5) 0.5128(3)
C15_3 C 0.6726(5) 0.1353(5) 0.5117(3)
H13_3 H 0.6930 0.1425 0.5330
C16_3 C 0.6835(5) 0.1616(5) 0.4778(3)
H14_3 H 0.7122 0.1859 0.4768
C17_2 C 0.9129(5) 0.2765(5) 0.4154(3)
H15_2 H 0.9316 0.2433 0.4103
H16_2 H 0.9015 0.2770 0.4412
H17_2 H 0.9366 0.3065 0.4108
C18_2 C 0.8635(6) 0.2808(5) 0.3899(3)
C19_2 C 0.8684(5) 0.3106(5) 0.3557(3)
H18_2 H 0.9014 0.3274 0.3514
C20_2 C 0.8292(6) 0.3169(5) 0.3285(3)
C21_2 C 0.8444(5) 0.3487(5) 0.2931(3)
C22_2 C 0.8861(5) 0.3854(5) 0.2924(3)
H19_2 H 0.9062 0.3917 0.3140
C23_2 C 0.8987(5) 0.4132(5) 0.2598(3)
H20_2 H 0.9262 0.4389 0.2595
C24_3 C 0.8693(5) 0.4020(5) 0.2273(3)
C25_3 C 0.8277(5) 0.3641(4) 0.2278(3)
H21_3 H 0.8081 0.3565 0.2061
C26_2 C 0.8160(5) 0.3380(5) 0.2610(3)
H22_2 H 0.7882 0.3127 0.2616
N2_3 N 0.8827(4) 0.4301(4) 0.1930(2)
N3_3 N 0.5685(4) 0.0312(4) 0.5916(2)
N4_3 N 0.6174(4) 0.0704(4) 0.5474(3)
O1_3 O 0.6767(3) 0.2426(3) 0.33924(19)
O2_3 O 0.7163(3) 0.2000(3) 0.41065(18)
O3_2 O 0.8217(3) 0.2571(3) 0.40063(19)
O4_2 O 0.7814(3) 0.2989(3) 0.32927(18)
N5_3 N 0.7166(4) 0.3181(4) 0.3988(3)
Zn2_3 Zn 0.50027(6) 0.99919(7) 0.61979(3)
C1_4 C 0.0672(5) 0.0580(5) 0.1820(3)
H1_4 H 0.0360 0.0658 0.1956
C2_4 C 0.1529(5) 0.0535(5) 0.1661(3)
H2_4 H 0.1904 0.0570 0.1664
C3_4 C 0.1223(5) 0.0309(5) 0.1389(3)
H3_4 H 0.1356 0.0159 0.1168
C4_4 C 0.4332(5) 0.4448(5) 0.5579(3)
H4_4 H 0.4643 0.4393 0.5438
C5_4 C 0.3475(5) 0.4455(4) 0.5752(3)
H5_4 H 0.3102 0.4406 0.5758
C6_4 C 0.3785(5) 0.4699(4) 0.6016(3)
H6_4 H 0.3653 0.4852 0.6236
C7_4 C 0.4145(5) 0.2774(5) 0.3246(3)
H7_4 H 0.4035 0.2795 0.2988
H8_4 H 0.4323 0.2435 0.3290
H9_4 H 0.4389 0.3066 0.3301
C8_4 C 0.3657(5) 0.2816(5) 0.3494(3)
C9_4 C 0.3703(5) 0.3101(5) 0.3832(3)
H10_4 H 0.4039 0.3259 0.3875
C10_4 C 0.3323(5) 0.3182(5) 0.4112(3)
C11_4 C 0.3466(5) 0.3472(5) 0.4458(4)
C12_4 C 0.3887(5) 0.3845(5) 0.4481(3)
H11_4 H 0.4095 0.3914 0.4268
C13_4 C 0.4004(5) 0.4117(5) 0.4810(3)
H12_4 H 0.4288 0.4363 0.4817
C14_4 C 0.3696(5) 0.4021(5) 0.5128(3)
C15_4 C 0.3274(5) 0.3647(5) 0.5117(3)
H13_4 H 0.3070 0.3575 0.5330
C16_4 C 0.3165(5) 0.3384(5) 0.4778(3)
H14_4 H 0.2878 0.3141 0.4768
C17_3 C 0.0871(5) 0.2235(5) 0.4154(3)
H15_3 H 0.0684 0.2567 0.4103
H16_3 H 0.0985 0.2230 0.4412
H17_3 H 0.0634 0.1935 0.4108
C18_3 C 0.1365(6) 0.2192(5) 0.3899(3)
C19_3 C 0.1316(5) 0.1894(5) 0.3557(3)
H18_3 H 0.0986 0.1726 0.3514
C20_3 C 0.1708(6) 0.1831(5) 0.3285(3)
C21_3 C 0.1556(5) 0.1513(5) 0.2931(3)
C22_3 C 0.1139(5) 0.1146(5) 0.2924(3)
H19_3 H 0.0938 0.1083 0.3140
C23_3 C 0.1013(5) 0.0868(5) 0.2598(3)
H20_3 H 0.0738 0.0611 0.2595
C24_4 C 0.1307(5) 0.0980(5) 0.2273(3)
C25_4 C 0.1723(5) 0.1359(4) 0.2278(3)
H21_4 H 0.1919 0.1435 0.2061
C26_3 C 0.1840(5) 0.1620(5) 0.2610(3)
H22_3 H 0.2118 0.1873 0.2616
N2_4 N 0.1173(4) 0.0699(4) 0.1930(2)
N3_4 N 0.4315(4) 0.4688(4) 0.5916(2)
N4_4 N 0.3826(4) 0.4296(4) 0.5474(3)
O1_4 O 0.3233(3) 0.2574(3) 0.33924(19)
O2_4 O 0.2837(3) 0.3000(3) 0.41065(18)
O3_3 O 0.1783(3) 0.2429(3) 0.40063(19)
O4_3 O 0.2186(3) 0.2011(3) 0.32927(18)
N5_4 N 0.2834(4) 0.1819(4) 0.3988(3)
Zn2_4 Zn 0.49973(6) 0.50081(7) 0.61979(3)
C1_5 C 0.6920(5) 0.3172(5) 0.4320(3)
H1_5 H 0.6842 0.2860 0.4456
C2_5 C 0.6965(5) 0.4029(5) 0.4161(3)
H2_5 H 0.6930 0.4404 0.4164
C3_5 C 0.7191(5) 0.3723(5) 0.3889(3)
H3_5 H 0.7341 0.3856 0.3668
C4_5 C 0.3052(5) 0.6832(5) 0.8079(3)
H4_5 H 0.3107 0.7143 0.7938
C5_5 C 0.3045(4) 0.5975(5) 0.8252(3)
H5_5 H 0.3094 0.5602 0.8258
C6_5 C 0.2801(4) 0.6285(5) 0.8516(3)
H6_5 H 0.2648 0.6153 0.8736
C7_5 C 0.4726(5) 0.6645(5) 0.5746(3)
H7_5 H 0.4705 0.6535 0.5488
H8_5 H 0.5065 0.6823 0.5790
H9_5 H 0.4434 0.6889 0.5801
C8_5 C 0.4684(5) 0.6157(5) 0.5994(3)
C9_5 C 0.4399(5) 0.6203(5) 0.6332(3)
H10_5 H 0.4241 0.6539 0.6375
C10_5 C 0.4318(5) 0.5823(5) 0.6612(3)
C11_5 C 0.4028(5) 0.5966(5) 0.6958(4)
C12_5 C 0.3655(5) 0.6387(5) 0.6981(3)
H11_5 H 0.3586 0.6595 0.6768
C13_5 C 0.3383(5) 0.6504(5) 0.7310(3)
H12_5 H 0.3137 0.6788 0.7317
C14_5 C 0.3479(5) 0.6196(5) 0.7628(3)
C15_5 C 0.3853(5) 0.5774(5) 0.7617(3)
H13_5 H 0.3925 0.5570 0.7830
C16_5 C 0.4116(5) 0.5665(5) 0.7278(3)
H14_5 H 0.4359 0.5378 0.7268
C17_4 C 0.5265(5) 0.3371(5) 0.6654(3)
H15_4 H 0.4933 0.3184 0.6603
H16_4 H 0.5270 0.3485 0.6912
H17_4 H 0.5565 0.3134 0.6608
C18_4 C 0.5308(5) 0.3865(6) 0.6399(3)
C19_4 C 0.5606(5) 0.3816(5) 0.6057(3)
H18_4 H 0.5774 0.3486 0.6014
C20_4 C 0.5669(5) 0.4208(6) 0.5785(3)
C21_4 C 0.5987(5) 0.4056(5) 0.5431(3)
C22_4 C 0.6354(5) 0.3639(5) 0.5424(3)
H19_4 H 0.6417 0.3438 0.5640
C23_4 C 0.6632(5) 0.3513(5) 0.5098(3)
H20_4 H 0.6889 0.3238 0.5095
C24_5 C 0.6520(5) 0.3807(5) 0.4773(3)
C25_5 C 0.6141(4) 0.4223(5) 0.4778(3)
H21_5 H 0.6065 0.4419 0.4561
C26_4 C 0.5880(5) 0.4340(5) 0.5110(3)
H22_4 H 0.5627 0.4618 0.5116
N2_5 N 0.6801(4) 0.3673(4) 0.4430(2)
N3_5 N 0.2812(4) 0.6815(4) 0.8416(2)
N4_5 N 0.3204(4) 0.6326(4) 0.7974(3)
O1_5 O 0.4926(3) 0.5733(3) 0.58924(19)
O2_5 O 0.4500(3) 0.5337(3) 0.66065(18)
O3_4 O 0.5071(3) 0.4283(3) 0.65063(19)
O4_4 O 0.5489(3) 0.4686(3) 0.57927(18)
N5_5 N 0.5681(4) 0.5334(4) 0.6488(3)
C1_6 C 0.3080(5) 0.1828(5) 0.4320(3)
H1_6 H 0.3158 0.2140 0.4456
C2_6 C 0.3035(5) 0.0971(5) 0.4161(3)
H2_6 H 0.3070 0.0596 0.4164
C3_6 C 0.2809(5) 0.1277(5) 0.3889(3)
H3_6 H 0.2659 0.1144 0.3668
C17_5 C 0.4735(5) 0.1629(5) 0.6654(3)
H15_5 H 0.5067 0.1816 0.6603
H16_5 H 0.4730 0.1515 0.6912
H17_5 H 0.4435 0.1866 0.6608
C18_5 C 0.4692(5) 0.1135(6) 0.6399(3)
C19_5 C 0.4394(5) 0.1184(5) 0.6057(3)
H18_5 H 0.4226 0.1514 0.6014
C20_5 C 0.4331(5) 0.0792(6) 0.5785(3)
C21_5 C 0.4013(5) 0.0944(5) 0.5431(3)
C22_5 C 0.3646(5) 0.1361(5) 0.5424(3)
H19_5 H 0.3583 0.1562 0.5640
C23_5 C 0.3368(5) 0.1487(5) 0.5098(3)
H20_5 H 0.3111 0.1762 0.5095
C24_6 C 0.3480(5) 0.1193(5) 0.4773(3)
C25_6 C 0.3859(4) 0.0777(5) 0.4778(3)
H21_6 H 0.3935 0.0581 0.4561
C26_5 C 0.4120(5) 0.0660(5) 0.5110(3)
H22_5 H 0.4373 0.0382 0.5116
N2_6 N 0.3199(4) 0.1327(4) 0.4430(2)
O3_5 O 0.4929(3) 0.0717(3) 0.65063(19)
O4_5 O 0.4511(3) 0.0314(3) 0.57927(18)
C4_6 C 0.6948(5) 0.8168(5) 0.8079(3)
H4_6 H 0.6893 0.7857 0.7938
C5_6 C 0.6955(4) 0.9025(5) 0.8252(3)
H5_6 H 0.6906 0.9398 0.8258
C6_6 C 0.7199(4) 0.8715(5) 0.8516(3)
H6_6 H 0.7352 0.8847 0.8736
C7_6 C 0.5274(5) 0.8355(5) 0.5746(3)
H7_6 H 0.5295 0.8465 0.5488
H8_6 H 0.4935 0.8177 0.5790
H9_6 H 0.5566 0.8111 0.5801
C8_6 C 0.5316(5) 0.8843(5) 0.5994(3)
C9_6 C 0.5601(5) 0.8797(5) 0.6332(3)
H10_6 H 0.5759 0.8461 0.6375
C10_6 C 0.5682(5) 0.9177(5) 0.6612(3)
C11_6 C 0.5972(5) 0.9034(5) 0.6958(4)
C12_6 C 0.6345(5) 0.8613(5) 0.6981(3)
H11_6 H 0.6414 0.8405 0.6768
C13_6 C 0.6617(5) 0.8496(5) 0.7310(3)
H12_6 H 0.6863 0.8212 0.7317
C14_6 C 0.6521(5) 0.8804(5) 0.7628(3)
C15_6 C 0.6147(5) 0.9226(5) 0.7617(3)
H13_6 H 0.6075 0.9430 0.7830
C16_6 C 0.5884(5) 0.9335(5) 0.7278(3)
H14_6 H 0.5641 0.9622 0.7268
N3_6 N 0.7188(4) 0.8185(4) 0.8416(2)
N4_6 N 0.6796(4) 0.8674(4) 0.7974(3)
O1_6 O 0.5074(3) 0.9267(3) 0.58924(19)
O2_6 O 0.5500(3) 0.9663(3) 0.66065(18)
N5_6 N 0.4319(4) 0.9666(4) 0.6488(3)
C4_7 C 0.0668(5) 0.5552(5) 0.0579(3)
H4_7 H 0.0357 0.5607 0.0438
C5_7 C 0.1525(5) 0.5545(4) 0.0752(3)
H5_7 H 0.1898 0.5594 0.0758
C6_7 C 0.1215(5) 0.5301(4) 0.1016(3)
H6_7 H 0.1347 0.5148 0.1236
C14_7 C 0.1304(5) 0.5979(5) 0.0128(3)
C15_7 C 0.1726(5) 0.6353(5) 0.0117(3)
H13_7 H 0.1930 0.6425 0.0330
N4_7 N 0.1174(4) 0.5704(4) 0.0474(3)
C1_7 C 0.4328(5) 0.9420(5) 0.6820(3)
H1_7 H 0.4640 0.9342 0.6956
C2_7 C 0.3471(5) 0.9465(5) 0.6661(3)
H2_7 H 0.3096 0.9430 0.6664
C3_7 C 0.3777(5) 0.9691(5) 0.6389(3)
H3_7 H 0.3644 0.9841 0.6168
C7_7 C 0.0855(5) 0.7226(5) 0.8246(3)
H7_7 H 0.0965 0.7205 0.7988
H8_7 H 0.0677 0.7565 0.8290
H9_7 H 0.0611 0.6934 0.8301
C8_7 C 0.1343(5) 0.7184(5) 0.8494(3)
C9_7 C 0.1297(5) 0.6899(5) 0.8832(3)
H10_7 H 0.0961 0.6741 0.8875
C10_7 C 0.1677(5) 0.6818(5) 0.9112(3)
C11_7 C 0.1534(5) 0.6528(5) 0.9458(4)
C12_7 C 0.1113(5) 0.6155(5) 0.9481(3)
H11_7 H 0.0905 0.6086 0.9268
C13_7 C 0.0996(5) 0.5883(5) 0.9810(3)
H12_7 H 0.0712 0.5637 0.9817
C16_7 C 0.1835(5) 0.6616(5) 0.9778(3)
H14_7 H 0.2122 0.6859 0.9768
C17_6 C 0.4129(5) 0.7765(5) 0.9154(3)
H15_6 H 0.4316 0.7433 0.9103
H16_6 H 0.4015 0.7770 0.9412
H17_6 H 0.4366 0.8065 0.9108
C18_6 C 0.3635(6) 0.7808(5) 0.8899(3)
C19_6 C 0.3684(5) 0.8106(5) 0.8557(3)
H18_6 H 0.4014 0.8274 0.8514
C20_6 C 0.3292(6) 0.8169(5) 0.8285(3)
C21_6 C 0.3444(5) 0.8487(5) 0.7931(3)
C22_6 C 0.3861(5) 0.8854(5) 0.7924(3)
H19_6 H 0.4062 0.8917 0.8140
C23_6 C 0.3987(5) 0.9132(5) 0.7598(3)
H20_6 H 0.4262 0.9389 0.7595
C24_7 C 0.3693(5) 0.9020(5) 0.7273(3)
C25_7 C 0.3277(5) 0.8641(4) 0.7278(3)
H21_7 H 0.3081 0.8565 0.7061
C26_6 C 0.3160(5) 0.8380(5) 0.7610(3)
H22_6 H 0.2882 0.8127 0.7616
N2_7 N 0.3827(4) 0.9301(4) 0.6930(2)
O1_7 O 0.1767(3) 0.7426(3) 0.83924(19)
O2_7 O 0.2163(3) 0.7000(3) 0.91065(18)
O3_6 O 0.3217(3) 0.7571(3) 0.90063(19)
O4_6 O 0.2814(3) 0.7989(3) 0.82927(18)
C1_8 C 0.5672(5) 0.5580(5) 0.6820(3)
H1_8 H 0.5360 0.5658 0.6956
C2_8 C 0.6529(5) 0.5535(5) 0.6661(3)
H2_8 H 0.6904 0.5570 0.6664
C3_8 C 0.6223(5) 0.5309(5) 0.6389(3)
H3_8 H 0.6356 0.5159 0.6168
C7_8 C 0.9145(5) 0.7774(5) 0.8246(3)
H7_8 H 0.9035 0.7795 0.7988
H8_8 H 0.9323 0.7435 0.8290
H9_8 H 0.9389 0.8066 0.8301
C8_8 C 0.8657(5) 0.7816(5) 0.8494(3)
C9_8 C 0.8703(5) 0.8101(5) 0.8832(3)
H10_8 H 0.9039 0.8259 0.8875
C10_8 C 0.8323(5) 0.8182(5) 0.9112(3)
C11_8 C 0.8466(5) 0.8472(5) 0.9458(4)
C12_8 C 0.8887(5) 0.8845(5) 0.9481(3)
H11_8 H 0.9095 0.8914 0.9268
C13_8 C 0.9004(5) 0.9117(5) 0.9810(3)
H12_8 H 0.9288 0.9363 0.9817
C16_8 C 0.8165(5) 0.8384(5) 0.9778(3)
H14_8 H 0.7878 0.8141 0.9768
C17_7 C 0.5871(5) 0.7235(5) 0.9154(3)
H15_7 H 0.5684 0.7567 0.9103
H16_7 H 0.5985 0.7230 0.9412
H17_7 H 0.5634 0.6935 0.9108
C18_7 C 0.6365(6) 0.7192(5) 0.8899(3)
C19_7 C 0.6316(5) 0.6894(5) 0.8557(3)
H18_7 H 0.5986 0.6726 0.8514
C20_7 C 0.6708(6) 0.6831(5) 0.8285(3)
C21_7 C 0.6556(5) 0.6513(5) 0.7931(3)
C22_7 C 0.6139(5) 0.6146(5) 0.7924(3)
H19_7 H 0.5938 0.6083 0.8140
C23_7 C 0.6013(5) 0.5868(5) 0.7598(3)
H20_7 H 0.5738 0.5611 0.7595
C24_8 C 0.6307(5) 0.5980(5) 0.7273(3)
C25_8 C 0.6723(5) 0.6359(4) 0.7278(3)
H21_8 H 0.6919 0.6435 0.7061
C26_7 C 0.6840(5) 0.6620(5) 0.7610(3)
H22_7 H 0.7118 0.6873 0.7616
N2_8 N 0.6173(4) 0.5699(4) 0.6930(2)
O1_8 O 0.8233(3) 0.7574(3) 0.83924(19)
O2_8 O 0.7837(3) 0.8000(3) 0.91065(18)
O3_7 O 0.6783(3) 0.7429(3) 0.90063(19)
O4_7 O 0.7186(3) 0.7011(3) 0.82927(18)
C17_8 C 0.0265(5) 0.8371(5) 0.1654(3)
H16_8 H 0.0270 0.8485 0.1912
H17_8 H 0.0565 0.8134 0.1608
C18_8 C 0.0308(5) 0.8865(6) 0.1399(3)
C19_8 C 0.0606(5) 0.8816(5) 0.1057(3)
H18_8 H 0.0774 0.8486 0.1014
C20_8 C 0.0669(5) 0.9208(6) 0.0785(3)
C21_8 C 0.0987(5) 0.9056(5) 0.0431(3)
C22_8 C 0.1354(5) 0.8639(5) 0.0424(3)
H19_8 H 0.1417 0.8438 0.0640
C23_8 C 0.1632(5) 0.8513(5) 0.0098(3)
H20_8 H 0.1889 0.8238 0.0095
C26_8 C 0.0880(5) 0.9340(5) 0.0110(3)
H22_8 H 0.0627 0.9618 0.0116
O3_8 O 0.0071(3) 0.9283(3) 0.15063(19)
O4_8 O 0.0489(3) 0.9686(3) 0.07927(18)
H15_8 H 0.9933 0.8184 0.1603
N6_2 N 0.9315(4) 0.9688(4) 0.0916(2)
C4_8 C 0.9332(5) 0.9448(5) 0.0579(3)
H4_8 H 0.9643 0.9393 0.0438
C5_8 C 0.8475(5) 0.9455(4) 0.0752(3)
H5_8 H 0.8102 0.9406 0.0758
C6_8 C 0.8785(5) 0.9699(4) 0.1016(3)
H6_8 H 0.8653 0.9852 0.1236
C14_8 C 0.8696(5) 0.9021(5) 0.0128(3)
C15_8 C 0.8274(5) 0.8647(5) 0.0117(3)
H13_8 H 0.8070 0.8575 0.0330
N4_8 N 0.8826(4) 0.9296(4) 0.0474(3)
H15_9 H 0.0067 0.1816 0.8397
N6_3 N 0.0685(4) 0.0312(4) 0.9084(2)
C4_9 C 0.0668(5) 0.0552(5) 0.9421(3)
H4_9 H 0.0357 0.0607 0.9562
C5_9 C 0.1525(5) 0.0545(4) 0.9248(3)
H5_9 H 0.1898 0.0594 0.9242
C6_9 C 0.1215(5) 0.0301(4) 0.8984(3)
H6_9 H 0.1347 0.0148 0.8764
C14_9 C 0.1304(5) 0.0979(5) 0.9872(3)
C15_9 C 0.1726(5) 0.1353(5) 0.9883(3)
H13_9 H 0.1930 0.1425 0.9670
N4_9 N 0.1174(4) 0.0704(4) 0.9526(3)
C4_10 C 0.1948(5) 0.8168(5) 0.6921(3)
H4_10 H 0.1893 0.7857 0.7062
C5_10 C 0.1955(4) 0.9025(5) 0.6748(3)
H5_10 H 0.1906 0.9398 0.6742
C6_10 C 0.2199(4) 0.8715(5) 0.6484(3)
H6_10 H 0.2352 0.8847 0.6264
C7_9 C 0.0274(5) 0.8355(5) 0.9254(3)
H7_9 H 0.0295 0.8465 0.9512
H9_9 H 0.0566 0.8111 0.9199
C8_9 C 0.0316(5) 0.8843(5) 0.9006(3)
C9_9 C 0.0601(5) 0.8797(5) 0.8668(3)
H10_9 H 0.0759 0.8461 0.8625
C10_9 C 0.0682(5) 0.9177(5) 0.8388(3)
C11_9 C 0.0972(5) 0.9034(5) 0.8042(4)
C12_9 C 0.1345(5) 0.8613(5) 0.8019(3)
H11_9 H 0.1414 0.8405 0.8232
C13_9 C 0.1617(5) 0.8496(5) 0.7690(3)
H12_9 H 0.1863 0.8212 0.7683
C14_10 C 0.1521(5) 0.8804(5) 0.7372(3)
C15_10 C 0.1147(5) 0.9226(5) 0.7383(3)
H13_10 H 0.1075 0.9430 0.7170
C16_9 C 0.0884(5) 0.9335(5) 0.7722(3)
H14_9 H 0.0641 0.9622 0.7732
N3_7 N 0.2188(4) 0.8185(4) 0.6584(2)
N4_10 N 0.1796(4) 0.8674(4) 0.7026(3)
O1_9 O 0.0074(3) 0.9267(3) 0.91076(19)
O2_9 O 0.0500(3) 0.9663(3) 0.83935(18)
Zn1_3 Zn 0.00027(6) 0.99919(7) 0.88021(3)
Zn2_5 Zn 0.25081(7) 0.75027(6) 0.63021(3)
C1_9 C 0.8080(5) 0.1828(5) 0.0680(3)
H1_9 H 0.8158 0.2140 0.0544
C2_9 C 0.8035(5) 0.0971(5) 0.0839(3)
H2_9 H 0.8070 0.0596 0.0836
C3_9 C 0.7809(5) 0.1277(5) 0.1111(3)
H3_9 H 0.7659 0.1144 0.1332
C24_9 C 0.8480(5) 0.1193(5) 0.0227(3)
C25_9 C 0.8859(4) 0.0777(5) 0.0222(3)
H21_9 H 0.8935 0.0581 0.0439
N1_3 N 0.7834(4) 0.1819(4) 0.1012(3)
N2_9 N 0.8199(4) 0.1327(4) 0.0570(2)
Zn3_3 Zn 0.75081(7) 0.25027(6) 0.13021(3)
H8_9 H 0.9935 0.8177 0.9210
N5_7 N 0.9319(4) 0.9666(4) 0.8512(3)
C1_10 C 0.1920(5) 0.3172(5) 0.0680(3)
H1_10 H 0.1842 0.2860 0.0544
C2_10 C 0.1965(5) 0.4029(5) 0.0839(3)
H2_10 H 0.1930 0.4404 0.0836
C3_10 C 0.2191(5) 0.3723(5) 0.1111(3)
H3_10 H 0.2341 0.3856 0.1332
C24_10 C 0.1520(5) 0.3807(5) 0.0227(3)
C25_10 C 0.1141(4) 0.4223(5) 0.0222(3)
H21_10 H 0.1065 0.4419 0.0439
N1_4 N 0.2166(4) 0.3181(4) 0.1012(3)
N2_10 N 0.1801(4) 0.3673(4) 0.0570(2)
Zn3_4 Zn 0.24919(7) 0.24973(6) 0.13021(3)
H8_10 H 0.0065 0.6823 0.9210
C17_9 C 0.0265(5) 0.3371(5) 0.8346(3)
H16_9 H 0.0270 0.3485 0.8088
H17_9 H 0.0565 0.3134 0.8392
C18_9 C 0.0308(5) 0.3865(6) 0.8601(3)
C19_9 C 0.0606(5) 0.3816(5) 0.8943(3)
H18_9 H 0.0774 0.3486 0.8986
C20_9 C 0.0669(5) 0.4208(6) 0.9215(3)
C21_9 C 0.0987(5) 0.4056(5) 0.9569(3)
C22_9 C 0.1354(5) 0.3639(5) 0.9576(3)
H19_9 H 0.1417 0.3438 0.9360
C23_9 C 0.1632(5) 0.3513(5) 0.9902(3)
H20_9 H 0.1889 0.3238 0.9905
C26_9 C 0.0880(5) 0.4340(5) 0.9890(3)
H22_9 H 0.0627 0.4618 0.9884
O3_9 O 0.0071(3) 0.4283(3) 0.84937(19)
O4_9 O 0.0489(3) 0.4686(3) 0.92073(18)
N5_8 N 0.0681(4) 0.5334(4) 0.8512(3)
C4_11 C 0.8052(5) 0.6832(5) 0.6921(3)
H4_11 H 0.8107 0.7143 0.7062
C5_11 C 0.8045(4) 0.5975(5) 0.6748(3)
H5_11 H 0.8094 0.5602 0.6742
C6_11 C 0.7801(4) 0.6285(5) 0.6484(3)
H6_11 H 0.7648 0.6153 0.6264
C7_10 C 0.9726(5) 0.6645(5) 0.9254(3)
H7_10 H 0.9705 0.6535 0.9512
H9_10 H 0.9434 0.6889 0.9199
C8_10 C 0.9684(5) 0.6157(5) 0.9006(3)
C9_10 C 0.9399(5) 0.6203(5) 0.8668(3)
H10_10 H 0.9241 0.6539 0.8625
C10_10 C 0.9318(5) 0.5823(5) 0.8388(3)
C11_10 C 0.9028(5) 0.5966(5) 0.8042(4)
C12_10 C 0.8655(5) 0.6387(5) 0.8019(3)
H11_10 H 0.8586 0.6595 0.8232
C13_10 C 0.8383(5) 0.6504(5) 0.7690(3)
H12_10 H 0.8137 0.6788 0.7683
C14_11 C 0.8479(5) 0.6196(5) 0.7372(3)
C15_11 C 0.8853(5) 0.5774(5) 0.7383(3)
H13_11 H 0.8925 0.5570 0.7170
C16_10 C 0.9116(5) 0.5665(5) 0.7722(3)
H14_10 H 0.9359 0.5378 0.7732
H15_10 H 0.9933 0.3184 0.8397
N3_8 N 0.7812(4) 0.6815(4) 0.6584(2)
N4_11 N 0.8204(4) 0.6326(4) 0.7026(3)
O1_10 O 0.9926(3) 0.5733(3) 0.91076(19)
O2_10 O 0.9500(3) 0.5337(3) 0.83935(18)
Zn1_4 Zn 0.99973(6) 0.50081(7) 0.88021(3)
N6_4 N 0.9315(4) 0.4688(4) 0.9084(2)
Zn2_6 Zn 0.74919(7) 0.74973(6) 0.63021(3)
Zn2_7 Zn 0.49973(6) 0.00081(7) 0.38021(3)
C1_11 C 0.0672(5) 0.5580(5) 0.8180(3)
H1_11 H 0.0360 0.5658 0.8044
C2_11 C 0.1529(5) 0.5535(5) 0.8339(3)
H2_11 H 0.1904 0.5570 0.8336
C3_11 C 0.1223(5) 0.5309(5) 0.8611(3)
H3_11 H 0.1356 0.5159 0.8832
C4_12 C 0.4332(5) 0.9448(5) 0.4421(3)
H4_12 H 0.4643 0.9393 0.4562
C5_12 C 0.3475(5) 0.9455(4) 0.4248(3)
H5_12 H 0.3102 0.9406 0.4242
C6_12 C 0.3785(5) 0.9699(4) 0.3984(3)
H6_12 H 0.3653 0.9852 0.3764
C7_11 C 0.4145(5) 0.7774(5) 0.6754(3)
H7_11 H 0.4035 0.7795 0.7012
H8_11 H 0.4323 0.7435 0.6710
H9_11 H 0.4389 0.8066 0.6699
C8_11 C 0.3657(5) 0.7816(5) 0.6506(3)
C9_11 C 0.3703(5) 0.8101(5) 0.6168(3)
H10_11 H 0.4039 0.8259 0.6125
C10_11 C 0.3323(5) 0.8182(5) 0.5888(3)
C11_11 C 0.3466(5) 0.8472(5) 0.5542(4)
C12_11 C 0.3887(5) 0.8845(5) 0.5519(3)
H11_11 H 0.4095 0.8914 0.5732
C13_11 C 0.4004(5) 0.9117(5) 0.5190(3)
H12_11 H 0.4288 0.9363 0.5183
C14_12 C 0.3696(5) 0.9021(5) 0.4872(3)
C15_12 C 0.3274(5) 0.8647(5) 0.4883(3)
H13_12 H 0.3070 0.8575 0.4670
C16_11 C 0.3165(5) 0.8384(5) 0.5222(3)
H14_11 H 0.2878 0.8141 0.5232
C17_10 C 0.0871(5) 0.7235(5) 0.5846(3)
H15_11 H 0.0684 0.7567 0.5897
H16_10 H 0.0985 0.7230 0.5588
H17_10 H 0.0634 0.6935 0.5892
C18_10 C 0.1365(6) 0.7192(5) 0.6101(3)
C19_10 C 0.1316(5) 0.6894(5) 0.6443(3)
H18_10 H 0.0986 0.6726 0.6486
C20_10 C 0.1708(6) 0.6831(5) 0.6715(3)
C21_10 C 0.1556(5) 0.6513(5) 0.7069(3)
C22_10 C 0.1139(5) 0.6146(5) 0.7076(3)
H19_10 H 0.0938 0.6083 0.6860
C23_10 C 0.1013(5) 0.5868(5) 0.7402(3)
H20_10 H 0.0738 0.5611 0.7405
C24_11 C 0.1307(5) 0.5980(5) 0.7727(3)
C25_11 C 0.1723(5) 0.6359(4) 0.7722(3)
H21_11 H 0.1919 0.6435 0.7939
C26_10 C 0.1840(5) 0.6620(5) 0.7390(3)
H22_10 H 0.2118 0.6873 0.7384
N2_11 N 0.1173(4) 0.5699(4) 0.8070(2)
N3_9 N 0.4315(4) 0.9688(4) 0.4084(2)
N4_12 N 0.3826(4) 0.9296(4) 0.4526(3)
O1_11 O 0.3233(3) 0.7574(3) 0.66076(19)
O2_11 O 0.2837(3) 0.8000(3) 0.58935(18)
O3_10 O 0.1783(3) 0.7429(3) 0.59937(19)
O4_10 O 0.2186(3) 0.7011(3) 0.67073(18)
N5_9 N 0.2834(4) 0.6819(4) 0.6012(3)
C1_12 C 0.9328(5) 0.9420(5) 0.8180(3)
H1_12 H 0.9640 0.9342 0.8044
C2_12 C 0.8471(5) 0.9465(5) 0.8339(3)
H2_12 H 0.8096 0.9430 0.8336
C3_12 C 0.8777(5) 0.9691(5) 0.8611(3)
H3_12 H 0.8644 0.9841 0.8832
C4_13 C 0.5668(5) 0.5552(5) 0.4421(3)
H4_13 H 0.5357 0.5607 0.4562
C5_13 C 0.6525(5) 0.5545(4) 0.4248(3)
H5_13 H 0.6898 0.5594 0.4242
C6_13 C 0.6215(5) 0.5301(4) 0.3984(3)
H6_13 H 0.6347 0.5148 0.3764
C7_12 C 0.5855(5) 0.7226(5) 0.6754(3)
H7_12 H 0.5965 0.7205 0.7012
H8_12 H 0.5677 0.7565 0.6710
H9_12 H 0.5611 0.6934 0.6699
C8_12 C 0.6343(5) 0.7184(5) 0.6506(3)
C9_12 C 0.6297(5) 0.6899(5) 0.6168(3)
H10_12 H 0.5961 0.6741 0.6125
C10_12 C 0.6677(5) 0.6818(5) 0.5888(3)
C11_12 C 0.6534(5) 0.6528(5) 0.5542(4)
C12_12 C 0.6113(5) 0.6155(5) 0.5519(3)
H11_12 H 0.5905 0.6086 0.5732
C13_12 C 0.5996(5) 0.5883(5) 0.5190(3)
H12_12 H 0.5712 0.5637 0.5183
C14_13 C 0.6304(5) 0.5979(5) 0.4872(3)
C15_13 C 0.6726(5) 0.6353(5) 0.4883(3)
H13_13 H 0.6930 0.6425 0.4670
C16_12 C 0.6835(5) 0.6616(5) 0.5222(3)
H14_12 H 0.7122 0.6859 0.5232
C17_11 C 0.9129(5) 0.7765(5) 0.5846(3)
H15_12 H 0.9316 0.7433 0.5897
H16_11 H 0.9015 0.7770 0.5588
H17_11 H 0.9366 0.8065 0.5892
C18_11 C 0.8635(6) 0.7808(5) 0.6101(3)
C19_11 C 0.8684(5) 0.8106(5) 0.6443(3)
H18_11 H 0.9014 0.8274 0.6486
C20_11 C 0.8292(6) 0.8169(5) 0.6715(3)
C21_11 C 0.8444(5) 0.8487(5) 0.7069(3)
C22_11 C 0.8861(5) 0.8854(5) 0.7076(3)
H19_11 H 0.9062 0.8917 0.6860
C23_11 C 0.8987(5) 0.9132(5) 0.7402(3)
H20_11 H 0.9262 0.9389 0.7405
C24_12 C 0.8693(5) 0.9020(5) 0.7727(3)
C25_12 C 0.8277(5) 0.8641(4) 0.7722(3)
H21_12 H 0.8081 0.8565 0.7939
C26_11 C 0.8160(5) 0.8380(5) 0.7390(3)
H22_11 H 0.7882 0.8127 0.7384
N2_12 N 0.8827(4) 0.9301(4) 0.8070(2)
N3_10 N 0.5685(4) 0.5312(4) 0.4084(2)
N4_13 N 0.6174(4) 0.5704(4) 0.4526(3)
O1_12 O 0.6767(3) 0.7426(3) 0.66076(19)
O2_12 O 0.7163(3) 0.7000(3) 0.58935(18)
O3_11 O 0.8217(3) 0.7571(3) 0.59937(19)
O4_11 O 0.7814(3) 0.7989(3) 0.67073(18)
N5_10 N 0.7166(4) 0.8181(4) 0.6012(3)
Zn2_8 Zn 0.50027(6) 0.49919(7) 0.38021(3)
C1_13 C 0.3080(5) 0.6828(5) 0.5680(3)
H1_13 H 0.3158 0.7140 0.5544
C2_13 C 0.3035(5) 0.5971(5) 0.5839(3)
H2_13 H 0.3070 0.5596 0.5836
C3_13 C 0.2809(5) 0.6277(5) 0.6111(3)
H3_13 H 0.2659 0.6144 0.6332
C4_14 C 0.6948(5) 0.3168(5) 0.1921(3)
H4_14 H 0.6893 0.2857 0.2062
C5_14 C 0.6955(4) 0.4025(5) 0.1748(3)
H5_14 H 0.6906 0.4398 0.1742
C6_14 C 0.7199(4) 0.3715(5) 0.1484(3)
H6_14 H 0.7352 0.3847 0.1264
C7_13 C 0.5274(5) 0.3355(5) 0.4254(3)
H7_13 H 0.5295 0.3465 0.4512
H8_13 H 0.4935 0.3177 0.4210
H9_13 H 0.5566 0.3111 0.4199
C8_13 C 0.5316(5) 0.3843(5) 0.4006(3)
C9_13 C 0.5601(5) 0.3797(5) 0.3668(3)
H10_13 H 0.5759 0.3461 0.3625
C10_13 C 0.5682(5) 0.4177(5) 0.3388(3)
C11_13 C 0.5972(5) 0.4034(5) 0.3042(4)
C12_13 C 0.6345(5) 0.3613(5) 0.3019(3)
H11_13 H 0.6414 0.3405 0.3232
C13_13 C 0.6617(5) 0.3496(5) 0.2690(3)
H12_13 H 0.6863 0.3212 0.2683
C14_14 C 0.6521(5) 0.3804(5) 0.2372(3)
C15_14 C 0.6147(5) 0.4226(5) 0.2383(3)
H13_14 H 0.6075 0.4430 0.2170
C16_13 C 0.5884(5) 0.4335(5) 0.2722(3)
H14_13 H 0.5641 0.4622 0.2732
C17_12 C 0.4735(5) 0.6629(5) 0.3346(3)
H15_13 H 0.5067 0.6816 0.3397
H16_12 H 0.4730 0.6515 0.3088
H17_12 H 0.4435 0.6866 0.3392
C18_12 C 0.4692(5) 0.6135(6) 0.3601(3)
C19_12 C 0.4394(5) 0.6184(5) 0.3943(3)
H18_12 H 0.4226 0.6514 0.3986
C20_12 C 0.4331(5) 0.5792(6) 0.4215(3)
C21_12 C 0.4013(5) 0.5944(5) 0.4569(3)
C22_12 C 0.3646(5) 0.6361(5) 0.4576(3)
H19_12 H 0.3583 0.6562 0.4360
C23_12 C 0.3368(5) 0.6487(5) 0.4902(3)
H20_12 H 0.3111 0.6762 0.4905
C24_13 C 0.3480(5) 0.6193(5) 0.5227(3)
C25_13 C 0.3859(4) 0.5777(5) 0.5222(3)
H21_13 H 0.3935 0.5581 0.5439
C26_12 C 0.4120(5) 0.5660(5) 0.4890(3)
H22_12 H 0.4373 0.5382 0.4884
N2_13 N 0.3199(4) 0.6327(4) 0.5570(2)
N3_11 N 0.7188(4) 0.3185(4) 0.1584(2)
N4_14 N 0.6796(4) 0.3674(4) 0.2026(3)
O1_13 O 0.5074(3) 0.4267(3) 0.41076(19)
O2_13 O 0.5500(3) 0.4663(3) 0.33935(18)
O3_12 O 0.4929(3) 0.5717(3) 0.34937(19)
O4_12 O 0.4511(3) 0.5314(3) 0.42073(18)
N5_11 N 0.4319(4) 0.4666(4) 0.3512(3)
C4_15 C 0.3052(5) 0.1832(5) 0.1921(3)
H4_15 H 0.3107 0.2143 0.2062
C5_15 C 0.3045(4) 0.0975(5) 0.1748(3)
H5_15 H 0.3094 0.0602 0.1742
C6_15 C 0.2801(4) 0.1285(5) 0.1484(3)
H6_15 H 0.2648 0.1153 0.1264
C7_14 C 0.4726(5) 0.1645(5) 0.4254(3)
H7_14 H 0.4705 0.1535 0.4512
H8_14 H 0.5065 0.1823 0.4210
H9_14 H 0.4434 0.1889 0.4199
C8_14 C 0.4684(5) 0.1157(5) 0.4006(3)
C9_14 C 0.4399(5) 0.1203(5) 0.3668(3)
H10_14 H 0.4241 0.1539 0.3625
C10_14 C 0.4318(5) 0.0823(5) 0.3388(3)
C11_14 C 0.4028(5) 0.0966(5) 0.3042(4)
C12_14 C 0.3655(5) 0.1387(5) 0.3019(3)
H11_14 H 0.3586 0.1595 0.3232
C13_14 C 0.3383(5) 0.1504(5) 0.2690(3)
H12_14 H 0.3137 0.1788 0.2683
C14_15 C 0.3479(5) 0.1196(5) 0.2372(3)
C15_15 C 0.3853(5) 0.0774(5) 0.2383(3)
H13_15 H 0.3925 0.0570 0.2170
C16_14 C 0.4116(5) 0.0665(5) 0.2722(3)
H14_14 H 0.4359 0.0378 0.2732
N3_12 N 0.2812(4) 0.1815(4) 0.1584(2)
N4_15 N 0.3204(4) 0.1326(4) 0.2026(3)
O1_14 O 0.4926(3) 0.0733(3) 0.41076(19)
O2_14 O 0.4500(3) 0.0337(3) 0.33935(18)
N5_12 N 0.5681(4) 0.0334(4) 0.3512(3)
C1_14 C 0.6920(5) 0.8172(5) 0.5680(3)
H1_14 H 0.6842 0.7860 0.5544
C2_14 C 0.6965(5) 0.9029(5) 0.5839(3)
H2_14 H 0.6930 0.9404 0.5836
C3_14 C 0.7191(5) 0.8723(5) 0.6111(3)
H3_14 H 0.7341 0.8856 0.6332
C17_13 C 0.5265(5) 0.8371(5) 0.3346(3)
H15_14 H 0.4933 0.8184 0.3397
H16_13 H 0.5270 0.8485 0.3088
H17_13 H 0.5565 0.8134 0.3392
C18_13 C 0.5308(5) 0.8865(6) 0.3601(3)
C19_13 C 0.5606(5) 0.8816(5) 0.3943(3)
H18_13 H 0.5774 0.8486 0.3986
C20_13 C 0.5669(5) 0.9208(6) 0.4215(3)
C21_13 C 0.5987(5) 0.9056(5) 0.4569(3)
C22_13 C 0.6354(5) 0.8639(5) 0.4576(3)
H19_13 H 0.6417 0.8438 0.4360
C23_13 C 0.6632(5) 0.8513(5) 0.4902(3)
H20_13 H 0.6889 0.8238 0.4905
C24_14 C 0.6520(5) 0.8807(5) 0.5227(3)
C25_14 C 0.6141(4) 0.9223(5) 0.5222(3)
H21_14 H 0.6065 0.9419 0.5439
C26_13 C 0.5880(5) 0.9340(5) 0.4890(3)
H22_13 H 0.5627 0.9618 0.4884
N2_14 N 0.6801(4) 0.8673(4) 0.5570(2)
O3_13 O 0.5071(3) 0.9283(3) 0.34937(19)
O4_13 O 0.5489(3) 0.9686(3) 0.42073(18)
C1_15 C 0.5672(5) 0.0580(5) 0.3180(3)
H1_15 H 0.5360 0.0658 0.3044
C2_15 C 0.6529(5) 0.0535(5) 0.3339(3)
H2_15 H 0.6904 0.0570 0.3336
C3_15 C 0.6223(5) 0.0309(5) 0.3611(3)
H3_15 H 0.6356 0.0159 0.3832
C7_15 C 0.9145(5) 0.2774(5) 0.1754(3)
H7_15 H 0.9035 0.2795 0.2012
H8_15 H 0.9323 0.2435 0.1710
H9_15 H 0.9389 0.3066 0.1699
C8_15 C 0.8657(5) 0.2816(5) 0.1506(3)
C9_15 C 0.8703(5) 0.3101(5) 0.1168(3)
H10_15 H 0.9039 0.3259 0.1125
C10_15 C 0.8323(5) 0.3182(5) 0.0888(3)
C11_15 C 0.8466(5) 0.3472(5) 0.0542(4)
C12_15 C 0.8887(5) 0.3845(5) 0.0519(3)
H11_15 H 0.9095 0.3914 0.0732
C13_15 C 0.9004(5) 0.4117(5) 0.0190(3)
H12_15 H 0.9288 0.4363 0.0183
C16_15 C 0.8165(5) 0.3384(5) 0.0222(3)
H14_15 H 0.7878 0.3141 0.0232
C17_14 C 0.5871(5) 0.2235(5) 0.0846(3)
H15_15 H 0.5684 0.2567 0.0897
H16_14 H 0.5985 0.2230 0.0588
H17_14 H 0.5634 0.1935 0.0892
C18_14 C 0.6365(6) 0.2192(5) 0.1101(3)
C19_14 C 0.6316(5) 0.1894(5) 0.1443(3)
H18_14 H 0.5986 0.1726 0.1486
C20_14 C 0.6708(6) 0.1831(5) 0.1715(3)
C21_14 C 0.6556(5) 0.1513(5) 0.2069(3)
C22_14 C 0.6139(5) 0.1146(5) 0.2076(3)
H19_14 H 0.5938 0.1083 0.1860
C23_14 C 0.6013(5) 0.0868(5) 0.2402(3)
H20_14 H 0.5738 0.0611 0.2405
C24_15 C 0.6307(5) 0.0980(5) 0.2727(3)
C25_15 C 0.6723(5) 0.1359(4) 0.2722(3)
H21_15 H 0.6919 0.1435 0.2939
C26_14 C 0.6840(5) 0.1620(5) 0.2390(3)
H22_14 H 0.7118 0.1873 0.2384
N2_15 N 0.6173(4) 0.0699(4) 0.3070(2)
O1_15 O 0.8233(3) 0.2574(3) 0.16076(19)
O2_15 O 0.7837(3) 0.3000(3) 0.08935(18)
O3_14 O 0.6783(3) 0.2429(3) 0.09937(19)
O4_14 O 0.7186(3) 0.2011(3) 0.17073(18)
C4_16 C 0.9332(5) 0.4448(5) 0.9421(3)
H4_16 H 0.9643 0.4393 0.9562
C5_16 C 0.8475(5) 0.4455(4) 0.9248(3)
H5_16 H 0.8102 0.4406 0.9242
C6_16 C 0.8785(5) 0.4699(4) 0.8984(3)
H6_16 H 0.8653 0.4852 0.8764
C14_16 C 0.8696(5) 0.4021(5) 0.9872(3)
C15_16 C 0.8274(5) 0.3647(5) 0.9883(3)
H13_16 H 0.8070 0.3575 0.9670
N4_16 N 0.8826(4) 0.4296(4) 0.9526(3)
C1_16 C 0.4328(5) 0.4420(5) 0.3180(3)
H1_16 H 0.4640 0.4342 0.3044
C2_16 C 0.3471(5) 0.4465(5) 0.3339(3)
H2_16 H 0.3096 0.4430 0.3336
C3_16 C 0.3777(5) 0.4691(5) 0.3611(3)
H3_16 H 0.3644 0.4841 0.3832
C7_16 C 0.0855(5) 0.2226(5) 0.1754(3)
H7_16 H 0.0965 0.2205 0.2012
H8_16 H 0.0677 0.2565 0.1710
H9_16 H 0.0611 0.1934 0.1699
C8_16 C 0.1343(5) 0.2184(5) 0.1506(3)
C9_16 C 0.1297(5) 0.1899(5) 0.1168(3)
H10_16 H 0.0961 0.1741 0.1125
C10_16 C 0.1677(5) 0.1818(5) 0.0888(3)
C11_16 C 0.1534(5) 0.1528(5) 0.0542(4)
C12_16 C 0.1113(5) 0.1155(5) 0.0519(3)
H11_16 H 0.0905 0.1086 0.0732
C13_16 C 0.0996(5) 0.0883(5) 0.0190(3)
H12_16 H 0.0712 0.0637 0.0183
C16_16 C 0.1835(5) 0.1616(5) 0.0222(3)
H14_16 H 0.2122 0.1859 0.0232
C17_15 C 0.4129(5) 0.2765(5) 0.0846(3)
H15_16 H 0.4316 0.2433 0.0897
H16_15 H 0.4015 0.2770 0.0588
H17_15 H 0.4366 0.3065 0.0892
C18_15 C 0.3635(6) 0.2808(5) 0.1101(3)
C19_15 C 0.3684(5) 0.3106(5) 0.1443(3)
H18_15 H 0.4014 0.3274 0.1486
C20_15 C 0.3292(6) 0.3169(5) 0.1715(3)
C21_15 C 0.3444(5) 0.3487(5) 0.2069(3)
C22_15 C 0.3861(5) 0.3854(5) 0.2076(3)
H19_15 H 0.4062 0.3917 0.1860
C23_15 C 0.3987(5) 0.4132(5) 0.2402(3)
H20_15 H 0.4262 0.4389 0.2405
C24_16 C 0.3693(5) 0.4020(5) 0.2727(3)
C25_16 C 0.3277(5) 0.3641(4) 0.2722(3)
H21_16 H 0.3081 0.3565 0.2939
C26_15 C 0.3160(5) 0.3380(5) 0.2390(3)
H22_15 H 0.2882 0.3127 0.2384
N2_16 N 0.3827(4) 0.4301(4) 0.3070(2)
O1_16 O 0.1767(3) 0.2426(3) 0.16076(19)
O2_16 O 0.2163(3) 0.2000(3) 0.08935(18)
O3_15 O 0.3217(3) 0.2571(3) 0.09937(19)
O4_15 O 0.2814(3) 0.2989(3) 0.17073(18)
C17_16 C 0.9735(5) 0.1629(5) 0.8346(3)
H16_16 H 0.9730 0.1515 0.8088
H17_16 H 0.9435 0.1866 0.8392
C18_16 C 0.9692(5) 0.1135(6) 0.8601(3)
C19_16 C 0.9394(5) 0.1184(5) 0.8943(3)
H18_16 H 0.9226 0.1514 0.8986
C20_16 C 0.9331(5) 0.0792(6) 0.9215(3)
C21_16 C 0.9013(5) 0.0944(5) 0.9569(3)
C22_16 C 0.8646(5) 0.1361(5) 0.9576(3)
H19_16 H 0.8583 0.1562 0.9360
C23_16 C 0.8368(5) 0.1487(5) 0.9902(3)
H20_16 H 0.8111 0.1762 0.9905
C26_16 C 0.9120(5) 0.0660(5) 0.9890(3)
H22_16 H 0.9373 0.0382 0.9884
O3_16 O 0.9929(3) 0.0717(3) 0.84937(19)
O4_16 O 0.9511(3) 0.0314(3) 0.92073(18)
Zn5 Zn 0.00073(6) 0.00167(6) 0.35647(4)
C30 C 0.9352(5) 0.9423(5) 0.2943(3)
H26 H 0.9662 0.9388 0.2797
C31 C 0.8506(6) 0.9360(6) 0.3140(4)
H27 H 0.8137 0.9286 0.3152
C32 C 0.8810(6) 0.9600(5) 0.3405(4)
H28 H 0.8684 0.9711 0.3639
C33 C 0.5942(6) 0.7060(6) 0.1585(4)
H29 H 0.5975 0.6741 0.1737
H30 H 0.5603 0.7052 0.1453
H31 H 0.5955 0.7375 0.1743
C34 C 0.6410(7) 0.7081(6) 0.1300(4)
C35 C 0.6345(6) 0.6796(6) 0.0972(4)
H32 H 0.6021 0.6608 0.0943
C36 C 0.6702(7) 0.6761(6) 0.0690(4)
C37 C 0.6564(6) 0.6476(6) 0.0326(4)
C38 C 0.6164(7) 0.6082(7) 0.0322(4)
H33 H 0.5982 0.5991 0.0541
H36 H 0.7123 0.6832 0.0002
C43 C 0.9148(5) 0.7770(5) 0.0601(3)
H37 H 0.9312 0.7421 0.0633
H38 H 0.9405 0.8047 0.0662
H39 H 0.9034 0.7811 0.0345
C44 C 0.8671(6) 0.7816(5) 0.0854(3)
C45 C 0.8714(6) 0.8107(5) 0.1190(3)
H40 H 0.9044 0.8277 0.1233
C46 C 0.8316(6) 0.8173(5) 0.1472(3)
C47 C 0.8468(6) 0.8488(6) 0.1825(3)
C48 C 0.8878(5) 0.8877(6) 0.1844(4)
H41 H 0.9067 0.8969 0.1627
C49 C 0.9005(6) 0.9124(5) 0.2173(4)
H42 H 0.9281 0.9380 0.2179
C50 C 0.8731(6) 0.9001(6) 0.2497(4)
C51 C 0.8334(6) 0.8611(7) 0.2500(4)
H43 H 0.8168 0.8507 0.2723
C52 C 0.8185(6) 0.8369(6) 0.2150(4)
H44 H 0.7895 0.8130 0.2141
N9 N 0.9332(4) 0.9656(4) 0.3283(3)
N10 N 0.8852(5) 0.9246(5) 0.2844(3)
O5 O 0.6813(4) 0.7390(4) 0.1390(2)
O6 O 0.7168(4) 0.6995(3) 0.06659(19)
O7 O 0.8225(4) 0.7571(3) 0.0761(2)
O8 O 0.7825(4) 0.7998(3) 0.1468(2)
Zn4 Zn 0.75167(6) 0.74927(6) 0.10647(4)
N11 N 0.7827(4) 0.6809(5) 0.1358(3)
N12 N 0.7156(4) 0.8168(4) 0.0783(3)
C27 C 0.5688(6) 0.5584(6) 0.9177(4)
H23 H 0.5373 0.5697 0.9297
C28 C 0.6539(6) 0.5461(5) 0.9053(4)
H24 H 0.6915 0.5467 0.9060
C29 C 0.6219(6) 0.5243(5) 0.8779(4)
H25 H 0.6347 0.5063 0.8567
C39 C 0.6037(6) 0.5821(7) 0.9983(4)
H34 H 0.5756 0.5570 0.9978
C40 C 0.6323(6) 0.5930(6) 0.9656(4)
C41 C 0.6727(5) 0.6318(6) 0.9665(3)
H35 H 0.6917 0.6403 0.9448
C42 C 0.6845(5) 0.6579(5) 0.9998(4)
N7 N 0.5691(5) 0.5327(4) 0.8858(3)
N8 N 0.6192(5) 0.5669(5) 0.9315(3)
Zn6 Zn 0.50073(6) 0.50167(6) 0.85647(4)
C30_2 C 0.0648(5) 0.5577(5) 0.2943(3)
H26_2 H 0.0338 0.5612 0.2797
C31_2 C 0.1494(6) 0.5640(6) 0.3140(4)
H27_2 H 0.1863 0.5714 0.3152
C32_2 C 0.1190(6) 0.5400(5) 0.3405(4)
H28_2 H 0.1316 0.5289 0.3639
C33_2 C 0.4058(6) 0.7940(6) 0.1585(4)
H29_2 H 0.4025 0.8259 0.1737
H30_2 H 0.4397 0.7948 0.1453
H31_2 H 0.4045 0.7625 0.1743
C34_2 C 0.3590(7) 0.7919(6) 0.1300(4)
C35_2 C 0.3655(6) 0.8204(6) 0.0972(4)
H32_2 H 0.3979 0.8392 0.0943
C36_2 C 0.3298(7) 0.8239(6) 0.0690(4)
C37_2 C 0.3436(6) 0.8524(6) 0.0326(4)
C38_2 C 0.3836(7) 0.8918(7) 0.0322(4)
H33_2 H 0.4018 0.9009 0.0541
H36_2 H 0.2877 0.8168 0.0002
C43_2 C 0.0852(5) 0.7230(5) 0.0601(3)
H37_2 H 0.0688 0.7579 0.0633
H38_2 H 0.0595 0.6953 0.0662
H39_2 H 0.0966 0.7189 0.0345
C44_2 C 0.1329(6) 0.7184(5) 0.0854(3)
C45_2 C 0.1286(6) 0.6893(5) 0.1190(3)
H40_2 H 0.0956 0.6723 0.1233
C46_2 C 0.1684(6) 0.6827(5) 0.1472(3)
C47_2 C 0.1532(6) 0.6512(6) 0.1825(3)
C48_2 C 0.1122(5) 0.6123(6) 0.1844(4)
H41_2 H 0.0933 0.6031 0.1627
C49_2 C 0.0995(6) 0.5876(5) 0.2173(4)
H42_2 H 0.0719 0.5620 0.2179
C50_2 C 0.1269(6) 0.5999(6) 0.2497(4)
C51_2 C 0.1666(6) 0.6389(7) 0.2500(4)
H43_2 H 0.1832 0.6493 0.2723
C52_2 C 0.1815(6) 0.6631(6) 0.2150(4)
H44_2 H 0.2105 0.6870 0.2141
N9_2 N 0.0668(4) 0.5344(4) 0.3283(3)
N10_2 N 0.1148(5) 0.5754(5) 0.2844(3)
O5_2 O 0.3187(4) 0.7610(4) 0.1390(2)
O6_2 O 0.2832(4) 0.8005(3) 0.06659(19)
O7_2 O 0.1775(4) 0.7429(3) 0.0761(2)
O8_2 O 0.2175(4) 0.7002(3) 0.1468(2)
Zn4_2 Zn 0.24833(6) 0.75073(6) 0.10647(4)
N11_2 N 0.2173(4) 0.8191(5) 0.1358(3)
N12_2 N 0.2844(4) 0.6832(4) 0.0783(3)
Zn5_2 Zn 0.99927(6) 0.49833(6) 0.35647(4)
H37_3 H 0.0079 0.1812 0.3133
N11_3 N 0.0691(5) 0.0327(4) 0.3858(3)
C27_2 C 0.1916(6) 0.8188(6) 0.1677(4)
H23_2 H 0.1803 0.7873 0.1797
C28_2 C 0.2039(5) 0.9039(6) 0.1553(4)
H24_2 H 0.2033 0.9415 0.1560
C29_2 C 0.2257(5) 0.8719(6) 0.1279(4)
H25_2 H 0.2437 0.8847 0.1067
C33_3 C 0.0440(6) 0.8442(6) 0.4085(4)
H29_3 H 0.0759 0.8475 0.4237
H30_3 H 0.0448 0.8103 0.3953
H31_3 H 0.0125 0.8455 0.4243
C34_3 C 0.0419(6) 0.8910(7) 0.3800(4)
C35_3 C 0.0704(6) 0.8845(6) 0.3472(4)
H32_3 H 0.0892 0.8521 0.3443
C36_3 C 0.0739(6) 0.9202(7) 0.3190(4)
C37_3 C 0.1024(6) 0.9064(6) 0.2826(4)
C38_3 C 0.1418(7) 0.8664(7) 0.2822(4)
H33_3 H 0.1509 0.8482 0.3041
C39_2 C 0.1679(7) 0.8537(6) 0.2483(4)
H34_2 H 0.1930 0.8256 0.2478
C40_2 C 0.1570(6) 0.8823(6) 0.2156(4)
C41_2 C 0.1182(6) 0.9227(5) 0.2165(3)
H35_2 H 0.1097 0.9417 0.1948
C42_2 C 0.0921(5) 0.9345(5) 0.2498(4)
H36_3 H 0.0668 0.9623 0.2502
N8_2 N 0.1831(5) 0.8692(5) 0.1815(3)
O5_3 O 0.0110(4) 0.9313(4) 0.3890(2)
O6_3 O 0.0505(3) 0.9668(4) 0.31659(19)
C30_3 C 0.8077(5) 0.1852(5) 0.5443(3)
H26_3 H 0.8112 0.2162 0.5297
C31_3 C 0.8140(6) 0.1006(6) 0.5640(4)
H27_3 H 0.8214 0.0637 0.5652
C32_3 C 0.7900(5) 0.1310(6) 0.5905(4)
H28_3 H 0.7789 0.1184 0.6139
C43_3 C 0.9730(5) 0.1648(5) 0.3101(3)
H38_3 H 0.9453 0.1905 0.3162
H39_3 H 0.9689 0.1534 0.2845
C44_3 C 0.9684(5) 0.1171(6) 0.3354(3)
C45_3 C 0.9393(5) 0.1214(6) 0.3690(3)
H40_3 H 0.9223 0.1544 0.3733
C46_3 C 0.9327(5) 0.0816(6) 0.3972(3)
C47_3 C 0.9012(6) 0.0968(6) 0.4325(3)
C48_3 C 0.8623(6) 0.1378(5) 0.4344(4)
H41_3 H 0.8531 0.1567 0.4127
C49_3 C 0.8376(5) 0.1505(6) 0.4673(4)
H42_3 H 0.8120 0.1781 0.4679
C50_3 C 0.8499(6) 0.1231(6) 0.4997(4)
C51_3 C 0.8889(7) 0.0834(6) 0.5000(4)
H43_3 H 0.8993 0.0668 0.5223
C52_3 C 0.9131(6) 0.0685(6) 0.4650(4)
H44_3 H 0.9370 0.0395 0.4641
N9_3 N 0.7844(4) 0.1832(4) 0.5783(3)
N10_3 N 0.8254(5) 0.1352(5) 0.5344(3)
O7_3 O 0.9929(3) 0.0725(4) 0.3261(2)
O8_3 O 0.9502(3) 0.0325(4) 0.3968(2)
Zn5_3 Zn 0.74833(6) 0.25073(6) 0.60647(4)
C30_4 C 0.1923(5) 0.3148(5) 0.5443(3)
H26_4 H 0.1888 0.2838 0.5297
C31_4 C 0.1860(6) 0.3994(6) 0.5640(4)
H27_4 H 0.1786 0.4363 0.5652
C32_4 C 0.2100(5) 0.3690(6) 0.5905(4)
H28_4 H 0.2211 0.3816 0.6139
C43_4 C 0.0270(5) 0.3352(5) 0.3101(3)
H38_4 H 0.0547 0.3095 0.3162
H39_4 H 0.0311 0.3466 0.2845
C44_4 C 0.0316(5) 0.3829(6) 0.3354(3)
C45_4 C 0.0607(5) 0.3786(6) 0.3690(3)
H40_4 H 0.0777 0.3456 0.3733
C46_4 C 0.0673(5) 0.4184(6) 0.3972(3)
C47_4 C 0.0988(6) 0.4032(6) 0.4325(3)
C48_4 C 0.1377(6) 0.3622(5) 0.4344(4)
H41_4 H 0.1469 0.3433 0.4127
C49_4 C 0.1624(5) 0.3495(6) 0.4673(4)
H42_4 H 0.1880 0.3219 0.4679
C50_4 C 0.1501(6) 0.3769(6) 0.4997(4)
C51_4 C 0.1111(7) 0.4166(6) 0.5000(4)
H43_4 H 0.1007 0.4332 0.5223
C52_4 C 0.0869(6) 0.4315(6) 0.4650(4)
H44_4 H 0.0630 0.4605 0.4641
N9_4 N 0.2156(4) 0.3168(4) 0.5783(3)
N10_4 N 0.1746(5) 0.3648(5) 0.5344(3)
O7_4 O 0.0071(3) 0.4275(4) 0.3261(2)
O8_4 O 0.0498(3) 0.4675(4) 0.3968(2)
Zn5_4 Zn 0.25167(6) 0.24927(6) 0.60647(4)
C27_3 C 0.8084(6) 0.6812(6) 0.1677(4)
H23_3 H 0.8197 0.7127 0.1797
C28_3 C 0.7961(5) 0.5961(6) 0.1553(4)
H24_3 H 0.7967 0.5585 0.1560
C29_3 C 0.7743(5) 0.6281(6) 0.1279(4)
H25_3 H 0.7563 0.6153 0.1067
C33_4 C 0.9560(6) 0.6558(6) 0.4085(4)
H29_4 H 0.9241 0.6525 0.4237
H30_4 H 0.9552 0.6897 0.3953
H31_4 H 0.9875 0.6545 0.4243
C34_4 C 0.9581(6) 0.6090(7) 0.3800(4)
C35_4 C 0.9296(6) 0.6155(6) 0.3472(4)
H32_4 H 0.9108 0.6479 0.3443
C36_4 C 0.9261(6) 0.5798(7) 0.3190(4)
C37_4 C 0.8976(6) 0.5936(6) 0.2826(4)
C38_4 C 0.8582(7) 0.6336(7) 0.2822(4)
H33_4 H 0.8491 0.6518 0.3041
C39_3 C 0.8321(7) 0.6463(6) 0.2483(4)
H34_3 H 0.8070 0.6744 0.2478
C40_3 C 0.8430(6) 0.6177(6) 0.2156(4)
C41_3 C 0.8818(6) 0.5773(5) 0.2165(3)
H35_3 H 0.8903 0.5583 0.1948
C42_3 C 0.9079(5) 0.5655(5) 0.2498(4)
H36_4 H 0.9332 0.5377 0.2502
H37_4 H 0.9921 0.3188 0.3133
N8_3 N 0.8169(5) 0.6308(5) 0.1815(3)
O5_4 O 0.9890(4) 0.5687(4) 0.3890(2)
O6_4 O 0.9495(3) 0.5332(4) 0.31659(19)
N11_4 N 0.9309(5) 0.4673(4) 0.3858(3)
C27_4 C 0.0688(6) 0.0584(6) 0.4177(4)
H23_4 H 0.0373 0.0697 0.4297
C28_4 C 0.1539(6) 0.0461(5) 0.4053(4)
H24_4 H 0.1915 0.0467 0.4060
C29_4 C 0.1219(6) 0.0243(5) 0.3779(4)
H25_4 H 0.1347 0.0063 0.3567
C30_5 C 0.4352(5) 0.4423(5) 0.7943(3)
H26_5 H 0.4662 0.4388 0.7797
C31_5 C 0.3506(6) 0.4360(6) 0.8140(4)
H27_5 H 0.3137 0.4286 0.8152
C32_5 C 0.3810(6) 0.4600(5) 0.8405(4)
H28_5 H 0.3684 0.4711 0.8639
C33_5 C 0.0942(6) 0.2060(6) 0.6585(4)
H29_5 H 0.0975 0.1741 0.6737
H30_5 H 0.0603 0.2052 0.6453
H31_5 H 0.0955 0.2375 0.6743
C34_5 C 0.1410(7) 0.2081(6) 0.6300(4)
C35_5 C 0.1345(6) 0.1796(6) 0.5972(4)
H32_5 H 0.1021 0.1608 0.5943
C36_5 C 0.1702(7) 0.1761(6) 0.5690(4)
C37_5 C 0.1564(6) 0.1476(6) 0.5326(4)
C38_5 C 0.1164(7) 0.1082(7) 0.5322(4)
H33_5 H 0.0982 0.0991 0.5541
C39_4 C 0.1037(6) 0.0821(7) 0.4983(4)
H34_4 H 0.0756 0.0570 0.4978
C40_4 C 0.1323(6) 0.0930(6) 0.4656(4)
C41_4 C 0.1727(5) 0.1318(6) 0.4665(3)
H35_4 H 0.1917 0.1403 0.4448
C42_4 C 0.1845(5) 0.1579(5) 0.4998(4)
H36_5 H 0.2123 0.1832 0.5002
C43_5 C 0.4148(5) 0.2770(5) 0.5601(3)
H37_5 H 0.4312 0.2421 0.5633
H38_5 H 0.4405 0.3047 0.5662
H39_5 H 0.4034 0.2811 0.5345
C44_5 C 0.3671(6) 0.2816(5) 0.5854(3)
C45_5 C 0.3714(6) 0.3107(5) 0.6190(3)
H40_5 H 0.4044 0.3277 0.6233
C46_5 C 0.3316(6) 0.3173(5) 0.6472(3)
C47_5 C 0.3468(6) 0.3488(6) 0.6825(3)
C48_5 C 0.3878(5) 0.3877(6) 0.6844(4)
H41_5 H 0.4067 0.3969 0.6627
C49_5 C 0.4005(6) 0.4124(5) 0.7173(4)
H42_5 H 0.4281 0.4380 0.7179
C50_5 C 0.3731(6) 0.4001(6) 0.7497(4)
C51_5 C 0.3334(6) 0.3611(7) 0.7500(4)
H43_5 H 0.3168 0.3507 0.7723
C52_5 C 0.3185(6) 0.3369(6) 0.7150(4)
H44_5 H 0.2895 0.3130 0.7141
N8_4 N 0.1192(5) 0.0669(5) 0.4315(3)
N9_5 N 0.4332(4) 0.4656(4) 0.8283(3)
N10_5 N 0.3852(5) 0.4246(5) 0.7844(3)
O5_5 O 0.1813(4) 0.2390(4) 0.6390(2)
O6_5 O 0.2168(4) 0.1995(3) 0.56659(19)
O7_5 O 0.3225(4) 0.2571(3) 0.5761(2)
O8_5 O 0.2825(4) 0.2998(3) 0.6468(2)
N11_5 N 0.2827(4) 0.1809(5) 0.6358(3)
C27_5 C 0.9312(6) 0.4416(6) 0.4177(4)
H23_5 H 0.9627 0.4303 0.4297
C28_5 C 0.8461(6) 0.4539(5) 0.4053(4)
H24_5 H 0.8085 0.4533 0.4060
C29_5 C 0.8781(6) 0.4757(5) 0.3779(4)
H25_5 H 0.8653 0.4937 0.3567
C30_6 C 0.5648(5) 0.0577(5) 0.7943(3)
H26_6 H 0.5338 0.0612 0.7797
C31_6 C 0.6494(6) 0.0640(6) 0.8140(4)
H27_6 H 0.6863 0.0714 0.8152
C32_6 C 0.6190(6) 0.0400(5) 0.8405(4)
H28_6 H 0.6316 0.0289 0.8639
C33_6 C 0.9058(6) 0.2940(6) 0.6585(4)
H29_6 H 0.9025 0.3259 0.6737
H30_6 H 0.9397 0.2948 0.6453
H31_6 H 0.9045 0.2625 0.6743
C34_6 C 0.8590(7) 0.2919(6) 0.6300(4)
C35_6 C 0.8655(6) 0.3204(6) 0.5972(4)
H32_6 H 0.8979 0.3392 0.5943
C36_6 C 0.8298(7) 0.3239(6) 0.5690(4)
C37_6 C 0.8436(6) 0.3524(6) 0.5326(4)
C38_6 C 0.8836(7) 0.3918(7) 0.5322(4)
H33_6 H 0.9018 0.4009 0.5541
C39_5 C 0.8963(6) 0.4179(7) 0.4983(4)
H34_5 H 0.9244 0.4430 0.4978
C40_5 C 0.8677(6) 0.4070(6) 0.4656(4)
C41_5 C 0.8273(5) 0.3682(6) 0.4665(3)
H35_5 H 0.8083 0.3597 0.4448
C42_5 C 0.8155(5) 0.3421(5) 0.4998(4)
H36_6 H 0.7877 0.3168 0.5002
C43_6 C 0.5852(5) 0.2230(5) 0.5601(3)
H37_6 H 0.5688 0.2579 0.5633
H38_6 H 0.5595 0.1953 0.5662
H39_6 H 0.5966 0.2189 0.5345
C44_6 C 0.6329(6) 0.2184(5) 0.5854(3)
C45_6 C 0.6286(6) 0.1893(5) 0.6190(3)
H40_6 H 0.5956 0.1723 0.6233
C46_6 C 0.6684(6) 0.1827(5) 0.6472(3)
C47_6 C 0.6532(6) 0.1512(6) 0.6825(3)
C48_6 C 0.6122(5) 0.1123(6) 0.6844(4)
H41_6 H 0.5933 0.1031 0.6627
C49_6 C 0.5995(6) 0.0876(5) 0.7173(4)
H42_6 H 0.5719 0.0620 0.7179
C50_6 C 0.6269(6) 0.0999(6) 0.7497(4)
C51_6 C 0.6666(6) 0.1389(7) 0.7500(4)
H43_6 H 0.6832 0.1493 0.7723
C52_6 C 0.6815(6) 0.1631(6) 0.7150(4)
H44_6 H 0.7105 0.1870 0.7141
N8_5 N 0.8808(5) 0.4331(5) 0.4315(3)
N9_6 N 0.5668(4) 0.0344(4) 0.8283(3)
N10_6 N 0.6148(5) 0.0754(5) 0.7844(3)
O5_6 O 0.8187(4) 0.2610(4) 0.6390(2)
O6_6 O 0.7832(4) 0.3005(3) 0.56659(19)
O7_6 O 0.6775(4) 0.2429(3) 0.5761(2)
O8_6 O 0.7175(4) 0.2002(3) 0.6468(2)
N11_6 N 0.7173(4) 0.3191(5) 0.6358(3)
C30_7 C 0.3077(5) 0.6852(5) 0.0443(3)
H26_7 H 0.3112 0.7162 0.0297
C31_7 C 0.3140(6) 0.6006(6) 0.0640(4)
H27_7 H 0.3214 0.5637 0.0652
C32_7 C 0.2900(5) 0.6310(6) 0.0905(4)
H28_7 H 0.2789 0.6184 0.1139
C51_7 C 0.3889(7) 0.5834(6) 0.0000(4)
H43_7 H 0.3993 0.5668 0.0223
N10_7 N 0.3254(5) 0.6352(5) 0.0344(3)
C27_6 C 0.6916(6) 0.3188(6) 0.6677(4)
H23_6 H 0.6803 0.2873 0.6797
C28_6 C 0.7039(5) 0.4039(6) 0.6553(4)
H24_6 H 0.7033 0.4415 0.6560
C29_6 C 0.7257(5) 0.3719(6) 0.6279(4)
H25_6 H 0.7437 0.3847 0.6067
C33_7 C 0.5440(6) 0.3442(6) 0.9085(4)
H29_7 H 0.5759 0.3475 0.9237
H30_7 H 0.5448 0.3103 0.8953
H31_7 H 0.5125 0.3455 0.9243
C34_7 C 0.5419(6) 0.3910(7) 0.8800(4)
C35_7 C 0.5704(6) 0.3845(6) 0.8472(4)
H32_7 H 0.5892 0.3521 0.8443
C36_7 C 0.5739(6) 0.4202(7) 0.8190(4)
C37_7 C 0.6024(6) 0.4064(6) 0.7826(4)
C38_7 C 0.6418(7) 0.3664(7) 0.7822(4)
H33_7 H 0.6509 0.3482 0.8041
C39_6 C 0.6679(7) 0.3537(6) 0.7483(4)
H34_6 H 0.6930 0.3256 0.7478
C40_6 C 0.6570(6) 0.3823(6) 0.7156(4)
C41_6 C 0.6182(6) 0.4227(5) 0.7165(3)
H35_6 H 0.6097 0.4417 0.6948
C42_6 C 0.5921(5) 0.4345(5) 0.7498(4)
H36_7 H 0.5668 0.4623 0.7502
C43_7 C 0.4730(5) 0.6648(5) 0.8101(3)
H37_7 H 0.5079 0.6812 0.8133
H38_7 H 0.4453 0.6905 0.8162
H39_7 H 0.4689 0.6534 0.7845
C44_7 C 0.4684(5) 0.6171(6) 0.8354(3)
C45_7 C 0.4393(5) 0.6214(6) 0.8690(3)
H40_7 H 0.4223 0.6544 0.8733
C46_7 C 0.4327(5) 0.5816(6) 0.8972(3)
C47_7 C 0.4012(6) 0.5968(6) 0.9325(3)
C48_7 C 0.3623(6) 0.6378(5) 0.9344(4)
H41_7 H 0.3531 0.6567 0.9127
C49_7 C 0.3376(5) 0.6505(6) 0.9673(4)
H42_7 H 0.3120 0.6781 0.9679
C50_7 C 0.3499(6) 0.6231(6) 0.9997(4)
C51_8 C 0.3889(7) 0.5834(6) 1.0000(4)
C52_7 C 0.4131(6) 0.5685(6) 0.9650(4)
H44_7 H 0.4370 0.5395 0.9641
N8_6 N 0.6831(5) 0.3692(5) 0.6815(3)
O5_7 O 0.5110(4) 0.4313(4) 0.8890(2)
O6_7 O 0.5505(3) 0.4668(4) 0.81659(19)
O7_7 O 0.4929(3) 0.5725(4) 0.8261(2)
O8_7 O 0.4502(3) 0.5325(4) 0.8968(2)
C27_7 C 0.3084(6) 0.1812(6) 0.6677(4)
H23_7 H 0.3197 0.2127 0.6797
C28_7 C 0.2961(5) 0.0961(6) 0.6553(4)
H24_7 H 0.2967 0.0585 0.6560
C29_7 C 0.2743(5) 0.1281(6) 0.6279(4)
H25_7 H 0.2563 0.1153 0.6067
C33_8 C 0.4560(6) 0.1558(6) 0.9085(4)
H29_8 H 0.4241 0.1525 0.9237
H30_8 H 0.4552 0.1897 0.8953
H31_8 H 0.4875 0.1545 0.9243
C34_8 C 0.4581(6) 0.1090(7) 0.8800(4)
C35_8 C 0.4296(6) 0.1155(6) 0.8472(4)
H32_8 H 0.4108 0.1479 0.8443
C36_8 C 0.4261(6) 0.0798(7) 0.8190(4)
C37_8 C 0.3976(6) 0.0936(6) 0.7826(4)
C38_8 C 0.3582(7) 0.1336(7) 0.7822(4)
H33_8 H 0.3491 0.1518 0.8041
C39_7 C 0.3321(7) 0.1463(6) 0.7483(4)
H34_7 H 0.3070 0.1744 0.7478
C40_7 C 0.3430(6) 0.1177(6) 0.7156(4)
C41_7 C 0.3818(6) 0.0773(5) 0.7165(3)
H35_7 H 0.3903 0.0583 0.6948
C42_7 C 0.4079(5) 0.0655(5) 0.7498(4)
H36_8 H 0.4332 0.0377 0.7502
N8_7 N 0.3169(5) 0.1308(5) 0.6815(3)
O5_8 O 0.4890(4) 0.0687(4) 0.8890(2)
O6_8 O 0.4495(3) 0.0332(4) 0.81659(19)
C30_8 C 0.6923(5) 0.8148(5) 0.0443(3)
H26_8 H 0.6888 0.7838 0.0297
C31_8 C 0.6860(6) 0.8994(6) 0.0640(4)
H27_8 H 0.6786 0.9363 0.0652
C32_8 C 0.7100(5) 0.8690(6) 0.0905(4)
H28_8 H 0.7211 0.8816 0.1139
C51_9 C 0.6111(7) 0.9166(6) 0.0000(4)
H43_8 H 0.6007 0.9332 0.0223
N10_8 N 0.6746(5) 0.8648(5) 0.0344(3)
C27_8 C 0.4312(6) 0.9416(6) 0.9177(4)
H23_8 H 0.4627 0.9303 0.9297
C28_8 C 0.3461(6) 0.9539(5) 0.9053(4)
H24_8 H 0.3085 0.9533 0.9060
C29_8 C 0.3781(6) 0.9757(5) 0.8779(4)
H25_8 H 0.3653 0.9937 0.8567
C39_8 C 0.3963(6) 0.9179(7) 0.9983(4)
H34_8 H 0.4244 0.9430 0.9978
C40_8 C 0.3677(6) 0.9070(6) 0.9656(4)
C41_8 C 0.3273(5) 0.8682(6) 0.9665(3)
H35_8 H 0.3083 0.8597 0.9448
C42_8 C 0.3155(5) 0.8421(5) 0.9998(4)
N7_2 N 0.4309(5) 0.9673(4) 0.8858(3)
N8_8 N 0.3808(5) 0.9331(5) 0.9315(3)
Zn6_2 Zn 0.49927(6) 0.99833(6) 0.85647(4)
C43_8 C 0.5270(5) 0.8352(5) 0.8101(3)
H37_8 H 0.4921 0.8188 0.8133
H38_8 H 0.5547 0.8095 0.8162
H39_8 H 0.5311 0.8466 0.7845
C44_8 C 0.5316(5) 0.8829(6) 0.8354(3)
C45_8 C 0.5607(5) 0.8786(6) 0.8690(3)
H40_8 H 0.5777 0.8456 0.8733
C46_8 C 0.5673(5) 0.9184(6) 0.8972(3)
C47_8 C 0.5988(6) 0.9032(6) 0.9325(3)
C48_8 C 0.6377(6) 0.8622(5) 0.9344(4)
H41_8 H 0.6469 0.8433 0.9127
C49_8 C 0.6624(5) 0.8495(6) 0.9673(4)
H42_8 H 0.6880 0.8219 0.9679
C50_8 C 0.6501(6) 0.8769(6) 0.9997(4)
C51_10 C 0.6111(7) 0.9166(6) 1.0000(4)
C52_8 C 0.5869(6) 0.9315(6) 0.9650(4)
H44_8 H 0.5630 0.9605 0.9641
O7_8 O 0.5071(3) 0.9275(4) 0.8261(2)
O8_8 O 0.5498(3) 0.9675(4) 0.8968(2)
C27_9 C 0.4312(6) 0.4416(6) 0.0823(4)
H23_9 H 0.4627 0.4303 0.0703
C28_9 C 0.3461(6) 0.4539(5) 0.0947(4)
H24_9 H 0.3085 0.4533 0.0940
C29_9 C 0.3781(6) 0.4757(5) 0.1221(4)
H25_9 H 0.3653 0.4937 0.1433
C39_9 C 0.3963(6) 0.4179(7) 0.0017(4)
H34_9 H 0.4244 0.4430 0.0022
C40_9 C 0.3677(6) 0.4070(6) 0.0344(4)
C41_9 C 0.3273(5) 0.3682(6) 0.0335(3)
H35_9 H 0.3083 0.3597 0.0552
C42_9 C 0.3155(5) 0.3421(5) 0.0002(4)
N7_3 N 0.4309(5) 0.4673(4) 0.1142(3)
N8_9 N 0.3808(5) 0.4331(5) 0.0685(3)
Zn6_3 Zn 0.49927(6) 0.49833(6) 0.14353(4)
C30_9 C 0.0648(5) 0.0577(5) 0.7057(3)
H26_9 H 0.0338 0.0612 0.7203
C31_9 C 0.1494(6) 0.0640(6) 0.6860(4)
H27_9 H 0.1863 0.0714 0.6848
C32_9 C 0.1190(6) 0.0400(5) 0.6595(4)
H28_9 H 0.1316 0.0289 0.6361
C33_9 C 0.4058(6) 0.2940(6) 0.8415(4)
H29_9 H 0.4025 0.3259 0.8263
H30_9 H 0.4397 0.2948 0.8547
H31_9 H 0.4045 0.2625 0.8257
C34_9 C 0.3590(7) 0.2919(6) 0.8700(4)
C35_9 C 0.3655(6) 0.3204(6) 0.9028(4)
H32_9 H 0.3979 0.3392 0.9057
C36_9 C 0.3298(7) 0.3239(6) 0.9310(4)
C37_9 C 0.3436(6) 0.3524(6) 0.9674(4)
C38_9 C 0.3836(7) 0.3918(7) 0.9678(4)
H33_9 H 0.4018 0.4009 0.9459
H36_9 H 0.2877 0.3168 0.9998
C43_9 C 0.0852(5) 0.2230(5) 0.9399(3)
H37_9 H 0.0688 0.2579 0.9367
H38_9 H 0.0595 0.1953 0.9338
H39_9 H 0.0966 0.2189 0.9655
C44_9 C 0.1329(6) 0.2184(5) 0.9146(3)
C45_9 C 0.1286(6) 0.1893(5) 0.8810(3)
H40_9 H 0.0956 0.1723 0.8767
C46_9 C 0.1684(6) 0.1827(5) 0.8528(3)
C47_9 C 0.1532(6) 0.1512(6) 0.8175(3)
C48_9 C 0.1122(5) 0.1123(6) 0.8156(4)
H41_9 H 0.0933 0.1031 0.8373
C49_9 C 0.0995(6) 0.0876(5) 0.7827(4)
H42_9 H 0.0719 0.0620 0.7821
C50_9 C 0.1269(6) 0.0999(6) 0.7503(4)
C51_11 C 0.1666(6) 0.1389(7) 0.7500(4)
H43_9 H 0.1832 0.1493 0.7277
C52_9 C 0.1815(6) 0.1631(6) 0.7850(4)
H44_9 H 0.2105 0.1870 0.7859
N9_7 N 0.0668(4) 0.0344(4) 0.6717(3)
N10_9 N 0.1148(5) 0.0754(5) 0.7156(3)
O5_9 O 0.3187(4) 0.2610(4) 0.8610(2)
O6_9 O 0.2832(4) 0.3005(3) 0.93341(19)
O7_9 O 0.1775(4) 0.2429(3) 0.9239(2)
O8_9 O 0.2175(4) 0.2002(3) 0.8532(2)
Zn4_3 Zn 0.24833(6) 0.25073(6) 0.89353(4)
N11_7 N 0.2173(4) 0.3191(5) 0.8642(3)
N12_3 N 0.2844(4) 0.1832(4) 0.9217(3)
Zn5_5 Zn 0.99927(6) 0.99833(6) 0.64353(4)
Zn5_6 Zn 0.00073(6) 0.50167(6) 0.64353(4)
C30_10 C 0.9352(5) 0.4423(5) 0.7057(3)
H26_10 H 0.9662 0.4388 0.7203
C31_10 C 0.8506(6) 0.4360(6) 0.6860(4)
H27_10 H 0.8137 0.4286 0.6848
C32_10 C 0.8810(6) 0.4600(5) 0.6595(4)
H28_10 H 0.8684 0.4711 0.6361
C33_10 C 0.5942(6) 0.2060(6) 0.8415(4)
H29_10 H 0.5975 0.1741 0.8263
H30_10 H 0.5603 0.2052 0.8547
H31_10 H 0.5955 0.2375 0.8257
C34_10 C 0.6410(7) 0.2081(6) 0.8700(4)
C35_10 C 0.6345(6) 0.1796(6) 0.9028(4)
H32_10 H 0.6021 0.1608 0.9057
C36_10 C 0.6702(7) 0.1761(6) 0.9310(4)
C37_10 C 0.6564(6) 0.1476(6) 0.9674(4)
C38_10 C 0.6164(7) 0.1082(7) 0.9678(4)
H33_10 H 0.5982 0.0991 0.9459
H36_10 H 0.7123 0.1832 0.9998
C43_10 C 0.9148(5) 0.2770(5) 0.9399(3)
H37_10 H 0.9312 0.2421 0.9367
H38_10 H 0.9405 0.3047 0.9338
H39_10 H 0.9034 0.2811 0.9655
C44_10 C 0.8671(6) 0.2816(5) 0.9146(3)
C45_10 C 0.8714(6) 0.3107(5) 0.8810(3)
H40_10 H 0.9044 0.3277 0.8767
C46_10 C 0.8316(6) 0.3173(5) 0.8528(3)
C47_10 C 0.8468(6) 0.3488(6) 0.8175(3)
C48_10 C 0.8878(5) 0.3877(6) 0.8156(4)
H41_10 H 0.9067 0.3969 0.8373
C49_10 C 0.9005(6) 0.4124(5) 0.7827(4)
H42_10 H 0.9281 0.4380 0.7821
C50_10 C 0.8731(6) 0.4001(6) 0.7503(4)
C51_12 C 0.8334(6) 0.3611(7) 0.7500(4)
H43_10 H 0.8168 0.3507 0.7277
C52_10 C 0.8185(6) 0.3369(6) 0.7850(4)
H44_10 H 0.7895 0.3130 0.7859
N9_8 N 0.9332(4) 0.4656(4) 0.6717(3)
N10_10 N 0.8852(5) 0.4246(5) 0.7156(3)
O5_10 O 0.6813(4) 0.2390(4) 0.8610(2)
O6_10 O 0.7168(4) 0.1995(3) 0.93341(19)
O7_10 O 0.8225(4) 0.2571(3) 0.9239(2)
O8_10 O 0.7825(4) 0.2998(3) 0.8532(2)
Zn4_4 Zn 0.75167(6) 0.24927(6) 0.89353(4)
N11_8 N 0.7827(4) 0.1809(5) 0.8642(3)
N12_4 N 0.7156(4) 0.3168(4) 0.9217(3)
C30_11 C 0.1923(5) 0.8148(5) 0.4557(3)
H26_11 H 0.1888 0.7838 0.4703
C31_11 C 0.1860(6) 0.8994(6) 0.4360(4)
H27_11 H 0.1786 0.9363 0.4348
C32_11 C 0.2100(5) 0.8690(6) 0.4095(4)
H28_11 H 0.2211 0.8816 0.3861
C43_11 C 0.0270(5) 0.8352(5) 0.6899(3)
H38_11 H 0.0547 0.8095 0.6838
H39_11 H 0.0311 0.8466 0.7155
C44_11 C 0.0316(5) 0.8829(6) 0.6646(3)
C45_11 C 0.0607(5) 0.8786(6) 0.6310(3)
H40_11 H 0.0777 0.8456 0.6267
C46_11 C 0.0673(5) 0.9184(6) 0.6028(3)
C47_11 C 0.0988(6) 0.9032(6) 0.5675(3)
C48_11 C 0.1377(6) 0.8622(5) 0.5656(4)
H41_11 H 0.1469 0.8433 0.5873
C49_11 C 0.1624(5) 0.8495(6) 0.5327(4)
H42_11 H 0.1880 0.8219 0.5321
C50_11 C 0.1501(6) 0.8769(6) 0.5003(4)
C51_13 C 0.1111(7) 0.9166(6) 0.5000(4)
H43_11 H 0.1007 0.9332 0.4777
C52_11 C 0.0869(6) 0.9315(6) 0.5350(4)
H44_11 H 0.0630 0.9605 0.5359
N9_9 N 0.2156(4) 0.8168(4) 0.4217(3)
N10_11 N 0.1746(5) 0.8648(5) 0.4656(3)
O7_11 O 0.0071(3) 0.9275(4) 0.6739(2)
O8_11 O 0.0498(3) 0.9675(4) 0.6032(2)
Zn5_7 Zn 0.25167(6) 0.74927(6) 0.39353(4)
C27_10 C 0.8084(6) 0.1812(6) 0.8323(4)
H23_10 H 0.8197 0.2127 0.8203
C28_10 C 0.7961(5) 0.0961(6) 0.8447(4)
H24_10 H 0.7967 0.0585 0.8440
C29_10 C 0.7743(5) 0.1281(6) 0.8721(4)
H25_10 H 0.7563 0.1153 0.8933
C33_11 C 0.9560(6) 0.1558(6) 0.5915(4)
H29_11 H 0.9241 0.1525 0.5763
H30_11 H 0.9552 0.1897 0.6047
H31_11 H 0.9875 0.1545 0.5757
C34_11 C 0.9581(6) 0.1090(7) 0.6200(4)
C35_11 C 0.9296(6) 0.1155(6) 0.6528(4)
H32_11 H 0.9108 0.1479 0.6557
C36_11 C 0.9261(6) 0.0798(7) 0.6810(4)
C37_11 C 0.8976(6) 0.0936(6) 0.7174(4)
C38_11 C 0.8582(7) 0.1336(7) 0.7178(4)
H33_11 H 0.8491 0.1518 0.6959
C39_10 C 0.8321(7) 0.1463(6) 0.7517(4)
H34_10 H 0.8070 0.1744 0.7522
C40_10 C 0.8430(6) 0.1177(6) 0.7844(4)
C41_10 C 0.8818(6) 0.0773(5) 0.7835(3)
H35_10 H 0.8903 0.0583 0.8052
C42_10 C 0.9079(5) 0.0655(5) 0.7502(4)
H36_11 H 0.9332 0.0377 0.7498
N8_10 N 0.8169(5) 0.1308(5) 0.8185(3)
O5_11 O 0.9890(4) 0.0687(4) 0.6110(2)
O6_11 O 0.9495(3) 0.0332(4) 0.68341(19)
H37_11 H 0.9921 0.8188 0.6867
N11_9 N 0.9309(5) 0.9673(4) 0.6142(3)
C27_11 C 0.1916(6) 0.3188(6) 0.8323(4)
H23_11 H 0.1803 0.2873 0.8203
C28_11 C 0.2039(5) 0.4039(6) 0.8447(4)
H24_11 H 0.2033 0.4415 0.8440
C29_11 C 0.2257(5) 0.3719(6) 0.8721(4)
H25_11 H 0.2437 0.3847 0.8933
C33_12 C 0.0440(6) 0.3442(6) 0.5915(4)
H29_12 H 0.0759 0.3475 0.5763
H30_12 H 0.0448 0.3103 0.6047
H31_12 H 0.0125 0.3455 0.5757
C34_12 C 0.0419(6) 0.3910(7) 0.6200(4)
C35_12 C 0.0704(6) 0.3845(6) 0.6528(4)
H32_12 H 0.0892 0.3521 0.6557
C36_12 C 0.0739(6) 0.4202(7) 0.6810(4)
C37_12 C 0.1024(6) 0.4064(6) 0.7174(4)
C38_12 C 0.1418(7) 0.3664(7) 0.7178(4)
H33_12 H 0.1509 0.3482 0.6959
C39_11 C 0.1679(7) 0.3537(6) 0.7517(4)
H34_11 H 0.1930 0.3256 0.7522
C40_11 C 0.1570(6) 0.3823(6) 0.7844(4)
C41_11 C 0.1182(6) 0.4227(5) 0.7835(3)
H35_11 H 0.1097 0.4417 0.8052
C42_11 C 0.0921(5) 0.4345(5) 0.7502(4)
H36_12 H 0.0668 0.4623 0.7498
H37_12 H 0.0079 0.6812 0.6867
N8_11 N 0.1831(5) 0.3692(5) 0.8185(3)
O5_12 O 0.0110(4) 0.4313(4) 0.6110(2)
O6_12 O 0.0505(3) 0.4668(4) 0.68341(19)
N11_10 N 0.0691(5) 0.5327(4) 0.6142(3)
C30_12 C 0.8077(5) 0.6852(5) 0.4557(3)
H26_12 H 0.8112 0.7162 0.4703
C31_12 C 0.8140(6) 0.6006(6) 0.4360(4)
H27_12 H 0.8214 0.5637 0.4348
C32_12 C 0.7900(5) 0.6310(6) 0.4095(4)
H28_12 H 0.7789 0.6184 0.3861
C43_12 C 0.9730(5) 0.6648(5) 0.6899(3)
H38_12 H 0.9453 0.6905 0.6838
H39_12 H 0.9689 0.6534 0.7155
C44_12 C 0.9684(5) 0.6171(6) 0.6646(3)
C45_12 C 0.9393(5) 0.6214(6) 0.6310(3)
H40_12 H 0.9223 0.6544 0.6267
C46_12 C 0.9327(5) 0.5816(6) 0.6028(3)
C47_12 C 0.9012(6) 0.5968(6) 0.5675(3)
C48_12 C 0.8623(6) 0.6378(5) 0.5656(4)
H41_12 H 0.8531 0.6567 0.5873
C49_12 C 0.8376(5) 0.6505(6) 0.5327(4)
H42_12 H 0.8120 0.6781 0.5321
C50_12 C 0.8499(6) 0.6231(6) 0.5003(4)
C51_14 C 0.8889(7) 0.5834(6) 0.5000(4)
H43_12 H 0.8993 0.5668 0.4777
C52_12 C 0.9131(6) 0.5685(6) 0.5350(4)
H44_12 H 0.9370 0.5395 0.5359
N9_10 N 0.7844(4) 0.6832(4) 0.4217(3)
N10_12 N 0.8254(5) 0.6352(5) 0.4656(3)
O7_12 O 0.9929(3) 0.5725(4) 0.6739(2)
O8_12 O 0.9502(3) 0.5325(4) 0.6032(2)
Zn5_8 Zn 0.74833(6) 0.75073(6) 0.39353(4)
C27_12 C 0.9312(6) 0.9416(6) 0.5823(4)
H23_12 H 0.9627 0.9303 0.5703
C28_12 C 0.8461(6) 0.9539(5) 0.5947(4)
H24_12 H 0.8085 0.9533 0.5940
C29_12 C 0.8781(6) 0.9757(5) 0.6221(4)
H25_12 H 0.8653 0.9937 0.6433
C30_13 C 0.5648(5) 0.5577(5) 0.2057(3)
H26_13 H 0.5338 0.5612 0.2203
C31_13 C 0.6494(6) 0.5640(6) 0.1860(4)
H27_13 H 0.6863 0.5714 0.1848
C32_13 C 0.6190(6) 0.5400(5) 0.1595(4)
H28_13 H 0.6316 0.5289 0.1361
C33_13 C 0.9058(6) 0.7940(6) 0.3415(4)
H29_13 H 0.9025 0.8259 0.3263
H30_13 H 0.9397 0.7948 0.3547
H31_13 H 0.9045 0.7625 0.3257
C34_13 C 0.8590(7) 0.7919(6) 0.3700(4)
C35_13 C 0.8655(6) 0.8204(6) 0.4028(4)
H32_13 H 0.8979 0.8392 0.4057
C36_13 C 0.8298(7) 0.8239(6) 0.4310(4)
C37_13 C 0.8436(6) 0.8524(6) 0.4674(4)
C38_13 C 0.8836(7) 0.8918(7) 0.4678(4)
H33_13 H 0.9018 0.9009 0.4459
C39_12 C 0.8963(6) 0.9179(7) 0.5017(4)
H34_12 H 0.9244 0.9430 0.5022
C40_12 C 0.8677(6) 0.9070(6) 0.5344(4)
C41_12 C 0.8273(5) 0.8682(6) 0.5335(3)
H35_12 H 0.8083 0.8597 0.5552
C42_12 C 0.8155(5) 0.8421(5) 0.5002(4)
H36_13 H 0.7877 0.8168 0.4998
C43_13 C 0.5852(5) 0.7230(5) 0.4399(3)
H37_13 H 0.5688 0.7579 0.4367
H38_13 H 0.5595 0.6953 0.4338
H39_13 H 0.5966 0.7189 0.4655
C44_13 C 0.6329(6) 0.7184(5) 0.4146(3)
C45_13 C 0.6286(6) 0.6893(5) 0.3810(3)
H40_13 H 0.5956 0.6723 0.3767
C46_13 C 0.6684(6) 0.6827(5) 0.3528(3)
C47_13 C 0.6532(6) 0.6512(6) 0.3175(3)
C48_13 C 0.6122(5) 0.6123(6) 0.3156(4)
H41_13 H 0.5933 0.6031 0.3373
C49_13 C 0.5995(6) 0.5876(5) 0.2827(4)
H42_13 H 0.5719 0.5620 0.2821
C50_13 C 0.6269(6) 0.5999(6) 0.2503(4)
C51_15 C 0.6666(6) 0.6389(7) 0.2500(4)
H43_13 H 0.6832 0.6493 0.2277
C52_13 C 0.6815(6) 0.6631(6) 0.2850(4)
H44_13 H 0.7105 0.6870 0.2859
N8_12 N 0.8808(5) 0.9331(5) 0.5685(3)
N9_11 N 0.5668(4) 0.5344(4) 0.1717(3)
N10_13 N 0.6148(5) 0.5754(5) 0.2156(3)
O5_13 O 0.8187(4) 0.7610(4) 0.3610(2)
O6_13 O 0.7832(4) 0.8005(3) 0.43341(19)
O7_13 O 0.6775(4) 0.7429(3) 0.4239(2)
O8_13 O 0.7175(4) 0.7002(3) 0.3532(2)
N11_11 N 0.7173(4) 0.8191(5) 0.3642(3)
C27_13 C 0.0688(6) 0.5584(6) 0.5823(4)
H23_13 H 0.0373 0.5697 0.5703
C28_13 C 0.1539(6) 0.5461(5) 0.5947(4)
H24_13 H 0.1915 0.5467 0.5940
C29_13 C 0.1219(6) 0.5243(5) 0.6221(4)
H25_13 H 0.1347 0.5063 0.6433
C30_14 C 0.4352(5) 0.9423(5) 0.2057(3)
H26_14 H 0.4662 0.9388 0.2203
C31_14 C 0.3506(6) 0.9360(6) 0.1860(4)
H27_14 H 0.3137 0.9286 0.1848
C32_14 C 0.3810(6) 0.9600(5) 0.1595(4)
H28_14 H 0.3684 0.9711 0.1361
C33_14 C 0.0942(6) 0.7060(6) 0.3415(4)
H29_14 H 0.0975 0.6741 0.3263
H30_14 H 0.0603 0.7052 0.3547
H31_14 H 0.0955 0.7375 0.3257
C34_14 C 0.1410(7) 0.7081(6) 0.3700(4)
C35_14 C 0.1345(6) 0.6796(6) 0.4028(4)
H32_14 H 0.1021 0.6608 0.4057
C36_14 C 0.1702(7) 0.6761(6) 0.4310(4)
C37_14 C 0.1564(6) 0.6476(6) 0.4674(4)
C38_14 C 0.1164(7) 0.6082(7) 0.4678(4)
H33_14 H 0.0982 0.5991 0.4459
C39_13 C 0.1037(6) 0.5821(7) 0.5017(4)
H34_13 H 0.0756 0.5570 0.5022
C40_13 C 0.1323(6) 0.5930(6) 0.5344(4)
C41_13 C 0.1727(5) 0.6318(6) 0.5335(3)
H35_13 H 0.1917 0.6403 0.5552
C42_13 C 0.1845(5) 0.6579(5) 0.5002(4)
H36_14 H 0.2123 0.6832 0.4998
C43_14 C 0.4148(5) 0.7770(5) 0.4399(3)
H37_14 H 0.4312 0.7421 0.4367
H38_14 H 0.4405 0.8047 0.4338
H39_14 H 0.4034 0.7811 0.4655
C44_14 C 0.3671(6) 0.7816(5) 0.4146(3)
C45_14 C 0.3714(6) 0.8107(5) 0.3810(3)
H40_14 H 0.4044 0.8277 0.3767
C46_14 C 0.3316(6) 0.8173(5) 0.3528(3)
C47_14 C 0.3468(6) 0.8488(6) 0.3175(3)
C48_14 C 0.3878(5) 0.8877(6) 0.3156(4)
H41_14 H 0.4067 0.8969 0.3373
C49_14 C 0.4005(6) 0.9124(5) 0.2827(4)
H42_14 H 0.4281 0.9380 0.2821
C50_14 C 0.3731(6) 0.9001(6) 0.2503(4)
C51_16 C 0.3334(6) 0.8611(7) 0.2500(4)
H43_14 H 0.3168 0.8507 0.2277
C52_14 C 0.3185(6) 0.8369(6) 0.2850(4)
H44_14 H 0.2895 0.8130 0.2859
N8_13 N 0.1192(5) 0.5669(5) 0.5685(3)
N9_12 N 0.4332(4) 0.9656(4) 0.1717(3)
N10_14 N 0.3852(5) 0.9246(5) 0.2156(3)
O5_14 O 0.1813(4) 0.7390(4) 0.3610(2)
O6_14 O 0.2168(4) 0.6995(3) 0.43341(19)
O7_14 O 0.3225(4) 0.7571(3) 0.4239(2)
O8_14 O 0.2825(4) 0.7998(3) 0.3532(2)
N11_12 N 0.2827(4) 0.6809(5) 0.3642(3)
C27_14 C 0.3084(6) 0.6812(6) 0.3323(4)
H23_14 H 0.3197 0.7127 0.3203
C28_14 C 0.2961(5) 0.5961(6) 0.3447(4)
H24_14 H 0.2967 0.5585 0.3440
C29_14 C 0.2743(5) 0.6281(6) 0.3721(4)
H25_14 H 0.2563 0.6153 0.3933
C33_15 C 0.4560(6) 0.6558(6) 0.0915(4)
H29_15 H 0.4241 0.6525 0.0763
H30_15 H 0.4552 0.6897 0.1047
H31_15 H 0.4875 0.6545 0.0757
C34_15 C 0.4581(6) 0.6090(7) 0.1200(4)
C35_15 C 0.4296(6) 0.6155(6) 0.1528(4)
H32_15 H 0.4108 0.6479 0.1557
C36_15 C 0.4261(6) 0.5798(7) 0.1810(4)
C37_15 C 0.3976(6) 0.5936(6) 0.2174(4)
C38_15 C 0.3582(7) 0.6336(7) 0.2178(4)
H33_15 H 0.3491 0.6518 0.1959
C39_14 C 0.3321(7) 0.6463(6) 0.2517(4)
H34_14 H 0.3070 0.6744 0.2522
C40_14 C 0.3430(6) 0.6177(6) 0.2844(4)
C41_14 C 0.3818(6) 0.5773(5) 0.2835(3)
H35_14 H 0.3903 0.5583 0.3052
C42_14 C 0.4079(5) 0.5655(5) 0.2502(4)
H36_15 H 0.4332 0.5377 0.2498
C43_15 C 0.5270(5) 0.3352(5) 0.1899(3)
H37_15 H 0.4921 0.3188 0.1867
H38_15 H 0.5547 0.3095 0.1838
H39_15 H 0.5311 0.3466 0.2155
C44_15 C 0.5316(5) 0.3829(6) 0.1646(3)
C45_15 C 0.5607(5) 0.3786(6) 0.1310(3)
H40_15 H 0.5777 0.3456 0.1267
C46_15 C 0.5673(5) 0.4184(6) 0.1028(3)
C47_15 C 0.5988(6) 0.4032(6) 0.0675(3)
C48_15 C 0.6377(6) 0.3622(5) 0.0656(4)
H41_15 H 0.6469 0.3433 0.0873
C49_15 C 0.6624(5) 0.3495(6) 0.0327(4)
H42_15 H 0.6880 0.3219 0.0321
C50_15 C 0.6501(6) 0.3769(6) 0.0003(4)
C51_17 C 0.6111(7) 0.4166(6) 0.0000(4)
C52_15 C 0.5869(6) 0.4315(6) 0.0350(4)
H44_15 H 0.5630 0.4605 0.0359
N8_14 N 0.3169(5) 0.6308(5) 0.3185(3)
O5_15 O 0.4890(4) 0.5687(4) 0.1110(2)
O6_15 O 0.4495(3) 0.5332(4) 0.18341(19)
O7_15 O 0.5071(3) 0.4275(4) 0.1739(2)
O8_15 O 0.5498(3) 0.4675(4) 0.1032(2)
C30_15 C 0.6923(5) 0.3148(5) 0.9557(3)
H26_15 H 0.6888 0.2838 0.9703
C31_15 C 0.6860(6) 0.3994(6) 0.9360(4)
H27_15 H 0.6786 0.4363 0.9348
C32_15 C 0.7100(5) 0.3690(6) 0.9095(4)
H28_15 H 0.7211 0.3816 0.8861
C51_18 C 0.6111(7) 0.4166(6) 1.0000(4)
H43_15 H 0.6007 0.4332 0.9777
N10_15 N 0.6746(5) 0.3648(5) 0.9656(3)
C30_16 C 0.3077(5) 0.1852(5) 0.9557(3)
H26_16 H 0.3112 0.2162 0.9703
C31_16 C 0.3140(6) 0.1006(6) 0.9360(4)
H27_16 H 0.3214 0.0637 0.9348
C32_16 C 0.2900(5) 0.1310(6) 0.9095(4)
H28_16 H 0.2789 0.1184 0.8861
C51_19 C 0.3889(7) 0.0834(6) 1.0000(4)
H43_16 H 0.3993 0.0668 0.9777
N10_16 N 0.3254(5) 0.1352(5) 0.9656(3)
C27_15 C 0.6916(6) 0.8188(6) 0.3323(4)
H23_15 H 0.6803 0.7873 0.3203
C28_15 C 0.7039(5) 0.9039(6) 0.3447(4)
H24_15 H 0.7033 0.9415 0.3440
C29_15 C 0.7257(5) 0.8719(6) 0.3721(4)
H25_15 H 0.7437 0.8847 0.3933
C33_16 C 0.5440(6) 0.8442(6) 0.0915(4)
H29_16 H 0.5759 0.8475 0.0763
H30_16 H 0.5448 0.8103 0.1047
H31_16 H 0.5125 0.8455 0.0757
C34_16 C 0.5419(6) 0.8910(7) 0.1200(4)
C35_16 C 0.5704(6) 0.8845(6) 0.1528(4)
H32_16 H 0.5892 0.8521 0.1557
C36_16 C 0.5739(6) 0.9202(7) 0.1810(4)
C37_16 C 0.6024(6) 0.9064(6) 0.2174(4)
C38_16 C 0.6418(7) 0.8664(7) 0.2178(4)
H33_16 H 0.6509 0.8482 0.1959
C39_15 C 0.6679(7) 0.8537(6) 0.2517(4)
H34_15 H 0.6930 0.8256 0.2522
C40_15 C 0.6570(6) 0.8823(6) 0.2844(4)
C41_15 C 0.6182(6) 0.9227(5) 0.2835(3)
H35_15 H 0.6097 0.9417 0.3052
C42_15 C 0.5921(5) 0.9345(5) 0.2502(4)
H36_16 H 0.5668 0.9623 0.2498
N8_15 N 0.6831(5) 0.8692(5) 0.3185(3)
O5_16 O 0.5110(4) 0.9313(4) 0.1110(2)
O6_16 O 0.5505(3) 0.9668(4) 0.18341(19)
C27_16 C 0.5688(6) 0.0584(6) 0.0823(4)
H23_16 H 0.5373 0.0697 0.0703
C28_16 C 0.6539(6) 0.0461(5) 0.0947(4)
H24_16 H 0.6915 0.0467 0.0940
C29_16 C 0.6219(6) 0.0243(5) 0.1221(4)
H25_16 H 0.6347 0.0063 0.1433
C39_16 C 0.6037(6) 0.0821(7) 0.0017(4)
H34_16 H 0.5756 0.0570 0.0022
C40_16 C 0.6323(6) 0.0930(6) 0.0344(4)
C41_16 C 0.6727(5) 0.1318(6) 0.0335(3)
H35_16 H 0.6917 0.1403 0.0552
C42_16 C 0.6845(5) 0.1579(5) 0.0002(4)
N7_4 N 0.5691(5) 0.0327(4) 0.1142(3)
N8_16 N 0.6192(5) 0.0669(5) 0.0685(3)
Zn6_4 Zn 0.50073(6) 0.00167(6) 0.14353(4)
C43_16 C 0.4730(5) 0.1648(5) 0.1899(3)
H37_16 H 0.5079 0.1812 0.1867
H38_16 H 0.4453 0.1905 0.1838
H39_16 H 0.4689 0.1534 0.2155
C44_16 C 0.4684(5) 0.1171(6) 0.1646(3)
C45_16 C 0.4393(5) 0.1214(6) 0.1310(3)
H40_16 H 0.4223 0.1544 0.1267
C46_16 C 0.4327(5) 0.0816(6) 0.1028(3)
C47_16 C 0.4012(6) 0.0968(6) 0.0675(3)
C48_16 C 0.3623(6) 0.1378(5) 0.0656(4)
H41_16 H 0.3531 0.1567 0.0873
C49_16 C 0.3376(5) 0.1505(6) 0.0327(4)
H42_16 H 0.3120 0.1781 0.0321
C50_16 C 0.3499(6) 0.1231(6) 0.0003(4)
C51_20 C 0.3889(7) 0.0834(6) 0.0000(4)
C52_16 C 0.4131(6) 0.0685(6) 0.0350(4)
H44_16 H 0.4370 0.0395 0.0359
O7_16 O 0.4929(3) 0.0725(4) 0.1739(2)
O8_16 O 0.4502(3) 0.0325(4) 0.1032(2)
loop_
_geom_bond_atom_site_label_1
_geom_bond_atom_site_label_2
_geom_bond_site_symmetry_1
_geom_bond_site_symmetry_2
C1 H1 1_555 1_555
C2 H2 1_555 1_555
C3 C2 1_555 1_555
H3 C3 1_555 1_555
C25 C24 1_555 1_555
H21 C25 1_555 1_555
N1 C1 1_555 1_555
N2 C1 1_555 1_555
Zn3 N1 1_555 1_555
C2 N2 1_555 1_555
C3 N1 1_555 1_555
C24 N2 1_555 1_555
C4 H4 1_555 1_555
C5 H5 1_555 1_555
C6 C5 1_555 1_555
H6 C6 1_555 1_555
C7 H7 1_555 1_555
H9 C7 1_555 1_555
C8 C7 1_555 1_555
C9 C8 1_555 1_555
H10 C9 1_555 1_555
C10 C9 1_555 1_555
C11 C10 1_555 1_555
C12 C11 1_555 1_555
H11 C12 1_555 1_555
C13 C12 1_555 1_555
H12 C13 1_555 1_555
C14 C13 1_555 1_555
C15 C14 1_555 1_555
H13 C15 1_555 1_555
C16 C11 1_555 1_555
H14 C16 1_555 1_555
N3 C4 1_555 1_555
N4 C4 1_555 1_555
O1 C8 1_555 1_555
O2 C10 1_555 1_555
Zn1 O1 1_555 1_555
Zn2 N3 1_555 1_555
C5 N4 1_555 1_555
C6 N3 1_555 1_555
C14 N4 1_555 1_555
C15 C16 1_555 1_555
O2 Zn1 1_555 1_555
C4_2 H4_2 1_555 1_555
C5_2 H5_2 1_555 1_555
C6_2 C5_2 1_555 1_555
H6_2 C6_2 1_555 1_555
C7_2 H7_2 1_555 1_555
H9_2 C7_2 1_555 1_555
C8_2 C7_2 1_555 1_555
C9_2 C8_2 1_555 1_555
H10_2 C9_2 1_555 1_555
C10_2 C9_2 1_555 1_555
C11_2 C10_2 1_555 1_555
C12_2 C11_2 1_555 1_555
H11_2 C12_2 1_555 1_555
C13_2 C12_2 1_555 1_555
H12_2 C13_2 1_555 1_555
C14_2 C13_2 1_555 1_555
C15_2 C14_2 1_555 1_555
H13_2 C15_2 1_555 1_555
C16_2 C11_2 1_555 1_555
H14_2 C16_2 1_555 1_555
N3_2 C4_2 1_555 1_555
N4_2 C4_2 1_555 1_555
O1_2 C8_2 1_555 1_555
O2_2 C10_2 1_555 1_555
Zn1_2 O1_2 1_555 1_555
N6 Zn1_2 1_555 1_555
Zn2_2 N3_2 1_555 1_555
C5_2 N4_2 1_555 1_555
C6_2 N3_2 1_555 1_555
C14_2 N4_2 1_555 1_555
C15_2 C16_2 1_555 1_555
O2_2 Zn1_2 1_555 1_555
H16 C17 1_555 1_555
H17 C17 1_555 1_555
C18 C17 1_555 1_555
C19 C18 1_555 1_555
H18 C19 1_555 1_555
C20 C19 1_555 1_555
C21 C20 1_555 1_555
C22 C21 1_555 1_555
H19 C22 1_555 1_555
C23 C22 1_555 1_555
H20 C23 1_555 1_555
C26 C21 1_555 1_555
H22 C26 1_555 1_555
O3 C18 1_555 1_555
O4 C20 1_555 1_555
C1_2 H1_2 1_555 1_555
C2_2 H2_2 1_555 1_555
C3_2 C2_2 1_555 1_555
H3_2 C3_2 1_555 1_555
C25_2 C24_2 1_555 1_555
H21_2 C25_2 1_555 1_555
N1_2 C1_2 1_555 1_555
N2_2 C1_2 1_555 1_555
Zn3_2 N1_2 1_555 1_555
C2_2 N2_2 1_555 1_555
C3_2 N1_2 1_555 1_555
C24_2 N2_2 1_555 1_555
C1_3 H1_3 1_555 1_555
C2_3 H2_3 1_555 1_555
C3_3 C2_3 1_555 1_555
H3_3 C3_3 1_555 1_555
C4_3 H4_3 1_555 1_555
C5_3 H5_3 1_555 1_555
C6_3 C5_3 1_555 1_555
H6_3 C6_3 1_555 1_555
C7_3 H7_3 1_555 1_555
H8_3 C7_3 1_555 1_555
H9_3 C7_3 1_555 1_555
C8_3 C7_3 1_555 1_555
C9_3 C8_3 1_555 1_555
H10_3 C9_3 1_555 1_555
C10_3 C9_3 1_555 1_555
C11_3 C10_3 1_555 1_555
C12_3 C11_3 1_555 1_555
H11_3 C12_3 1_555 1_555
C13_3 C12_3 1_555 1_555
H12_3 C13_3 1_555 1_555
C14_3 C13_3 1_555 1_555
C15_3 C14_3 1_555 1_555
H13_3 C15_3 1_555 1_555
C16_3 C11_3 1_555 1_555
H14_3 C16_3 1_555 1_555
C17_2 H15_2 1_555 1_555
H16_2 C17_2 1_555 1_555
H17_2 C17_2 1_555 1_555
C18_2 C17_2 1_555 1_555
C19_2 C18_2 1_555 1_555
H18_2 C19_2 1_555 1_555
C20_2 C19_2 1_555 1_555
C21_2 C20_2 1_555 1_555
C22_2 C21_2 1_555 1_555
H19_2 C22_2 1_555 1_555
C23_2 C22_2 1_555 1_555
H20_2 C23_2 1_555 1_555
C24_3 C23_2 1_555 1_555
C25_3 C24_3 1_555 1_555
H21_3 C25_3 1_555 1_555
C26_2 C21_2 1_555 1_555
H22_2 C26_2 1_555 1_555
N5_2 C1_3 1_555 1_555
N2_3 C1_3 1_555 1_555
N3_3 C4_3 1_555 1_555
N4_3 C4_3 1_555 1_555
O1_3 C8_3 1_555 1_555
O2_3 C10_3 1_555 1_555
O3_2 C18_2 1_555 1_555
O4_2 C20_2 1_555 1_555
Zn2 O1_3 1_555 1_555
N5_3 Zn2 1_555 1_555
C2_3 N2_3 1_555 1_555
C3_3 N5_2 1_555 1_555
C5_3 N4_3 1_555 1_555
C6_3 N3_3 1_555 1_555
C14_3 N4_3 1_555 1_555
C15_3 C16_3 1_555 1_555
C24_3 N2_3 1_555 1_555
C25_3 C26_2 1_555 1_555
O2_3 Zn2 1_555 1_555
O3_2 Zn2 1_555 1_555
O4_2 Zn2 1_555 1_555
C1_4 H1_4 1_555 1_555
C2_4 H2_4 1_555 1_555
C3_4 C2_4 1_555 1_555
H3_4 C3_4 1_555 1_555
C4_4 H4_4 1_555 1_555
C5_4 H5_4 1_555 1_555
C6_4 C5_4 1_555 1_555
H6_4 C6_4 1_555 1_555
C7_4 H7_4 1_555 1_555
H8_4 C7_4 1_555 1_555
H9_4 C7_4 1_555 1_555
C8_4 C7_4 1_555 1_555
C9_4 C8_4 1_555 1_555
H10_4 C9_4 1_555 1_555
C10_4 C9_4 1_555 1_555
C11_4 C10_4 1_555 1_555
C12_4 C11_4 1_555 1_555
H11_4 C12_4 1_555 1_555
C13_4 C12_4 1_555 1_555
H12_4 C13_4 1_555 1_555
C14_4 C13_4 1_555 1_555
C15_4 C14_4 1_555 1_555
H13_4 C15_4 1_555 1_555
C16_4 C11_4 1_555 1_555
H14_4 C16_4 1_555 1_555
C17_3 H15_3 1_555 1_555
H16_3 C17_3 1_555 1_555
H17_3 C17_3 1_555 1_555
C18_3 C17_3 1_555 1_555
C19_3 C18_3 1_555 1_555
H18_3 C19_3 1_555 1_555
C20_3 C19_3 1_555 1_555
C21_3 C20_3 1_555 1_555
C22_3 C21_3 1_555 1_555
H19_3 C22_3 1_555 1_555
C23_3 C22_3 1_555 1_555
H20_3 C23_3 1_555 1_555
C24_4 C23_3 1_555 1_555
C25_4 C24_4 1_555 1_555
H21_4 C25_4 1_555 1_555
C26_3 C21_3 1_555 1_555
H22_3 C26_3 1_555 1_555
N5 C1_4 1_555 1_555
N2_4 C1_4 1_555 1_555
N3_4 C4_4 1_555 1_555
N4_4 C4_4 1_555 1_555
O1_4 C8_4 1_555 1_555
O2_4 C10_4 1_555 1_555
O3_3 C18_3 1_555 1_555
O4_3 C20_3 1_555 1_555
Zn2_2 O1_4 1_555 1_555
N5_4 Zn2_2 1_555 1_555
Zn2_4 N3_4 1_555 1_555
C2_4 N2_4 1_555 1_555
C3_4 N5 1_555 1_555
C5_4 N4_4 1_555 1_555
C6_4 N3_4 1_555 1_555
C14_4 N4_4 1_555 1_555
C15_4 C16_4 1_555 1_555
C24_4 N2_4 1_555 1_555
C25_4 C26_3 1_555 1_555
O2_4 Zn2_2 1_555 1_555
O3_3 Zn2_2 1_555 1_555
O4_3 Zn2_2 1_555 1_555
C1_5 H1_5 1_555 1_555
C2_5 H2_5 1_555 1_555
C3_5 C2_5 1_555 1_555
H3_5 C3_5 1_555 1_555
C4_5 H4_5 1_555 1_555
C5_5 H5_5 1_555 1_555
C6_5 C5_5 1_555 1_555
H6_5 C6_5 1_555 1_555
C7_5 H7_5 1_555 1_555
H8_5 C7_5 1_555 1_555
H9_5 C7_5 1_555 1_555
C8_5 C7_5 1_555 1_555
C9_5 C8_5 1_555 1_555
H10_5 C9_5 1_555 1_555
C10_5 C9_5 1_555 1_555
C11_5 C10_5 1_555 1_555
C12_5 C11_5 1_555 1_555
H11_5 C12_5 1_555 1_555
C13_5 C12_5 1_555 1_555
H12_5 C13_5 1_555 1_555
C14_5 C13_5 1_555 1_555
C15_5 C14_5 1_555 1_555
H13_5 C15_5 1_555 1_555
C16_5 C11_5 1_555 1_555
H14_5 C16_5 1_555 1_555
C17_4 H15_4 1_555 1_555
H16_4 C17_4 1_555 1_555
H17_4 C17_4 1_555 1_555
C18_4 C17_4 1_555 1_555
C19_4 C18_4 1_555 1_555
H18_4 C19_4 1_555 1_555
C20_4 C19_4 1_555 1_555
C21_4 C20_4 1_555 1_555
C22_4 C21_4 1_555 1_555
H19_4 C22_4 1_555 1_555
C23_4 C22_4 1_555 1_555
H20_4 C23_4 1_555 1_555
C24_5 C23_4 1_555 1_555
C25_5 C24_5 1_555 1_555
H21_5 C25_5 1_555 1_555
C26_4 C21_4 1_555 1_555
H22_4 C26_4 1_555 1_555
N5_3 C1_5 1_555 1_555
N2_5 C1_5 1_555 1_555
N3_5 C4_5 1_555 1_555
N4_5 C4_5 1_555 1_555
O1_5 C8_5 1_555 1_555
O2_5 C10_5 1_555 1_555
O3_4 C18_4 1_555 1_555
O4_4 C20_4 1_555 1_555
Zn2_4 O1_5 1_555 1_555
N5_5 Zn2_4 1_555 1_555
Zn3 N3_5 1_555 1_555
C2_5 N2_5 1_555 1_555
C3_5 N5_3 1_555 1_555
C5_5 N4_5 1_555 1_555
C6_5 N3_5 1_555 1_555
C14_5 N4_5 1_555 1_555
C15_5 C16_5 1_555 1_555
C24_5 N2_5 1_555 1_555
C25_5 C26_4 1_555 1_555
O2_5 Zn2_4 1_555 1_555
O3_4 Zn2_4 1_555 1_555
O4_4 Zn2_4 1_555 1_555
C1_6 H1_6 1_555 1_555
C2_6 H2_6 1_555 1_555
C3_6 C2_6 1_555 1_555
H3_6 C3_6 1_555 1_555
C17_5 H15_5 1_555 1_555
H16_5 C17_5 1_555 1_555
H17_5 C17_5 1_555 1_555
C18_5 C17_5 1_555 1_555
C19_5 C18_5 1_555 1_555
H18_5 C19_5 1_555 1_555
C20_5 C19_5 1_555 1_555
C21_5 C20_5 1_555 1_555
C22_5 C21_5 1_555 1_555
H19_5 C22_5 1_555 1_555
C23_5 C22_5 1_555 1_555
H20_5 C23_5 1_555 1_555
C24_6 C23_5 1_555 1_555
C25_6 C24_6 1_555 1_555
H21_6 C25_6 1_555 1_555
C26_5 C21_5 1_555 1_555
H22_5 C26_5 1_555 1_555
N5_4 C1_6 1_555 1_555
N2_6 C1_6 1_555 1_555
O3_5 C18_5 1_555 1_555
O4_5 C20_5 1_555 1_555
C2_6 N2_6 1_555 1_555
C3_6 N5_4 1_555 1_555
C24_6 N2_6 1_555 1_555
C25_6 C26_5 1_555 1_555
C4_6 H4_6 1_555 1_555
C5_6 H5_6 1_555 1_555
C6_6 C5_6 1_555 1_555
H6_6 C6_6 1_555 1_555
C7_6 H7_6 1_555 1_555
H8_6 C7_6 1_555 1_555
H9_6 C7_6 1_555 1_555
C8_6 C7_6 1_555 1_555
C9_6 C8_6 1_555 1_555
H10_6 C9_6 1_555 1_555
C10_6 C9_6 1_555 1_555
C11_6 C10_6 1_555 1_555
C12_6 C11_6 1_555 1_555
H11_6 C12_6 1_555 1_555
C13_6 C12_6 1_555 1_555
H12_6 C13_6 1_555 1_555
C14_6 C13_6 1_555 1_555
C15_6 C14_6 1_555 1_555
H13_6 C15_6 1_555 1_555
C16_6 C11_6 1_555 1_555
H14_6 C16_6 1_555 1_555
N3_6 C4_6 1_555 1_555
N4_6 C4_6 1_555 1_555
O1_6 C8_6 1_555 1_555
O2_6 C10_6 1_555 1_555
Zn2_3 O1_6 1_555 1_555
N5_6 Zn2_3 1_555 1_555
Zn3_2 N3_6 1_555 1_555
C5_6 N4_6 1_555 1_555
C6_6 N3_6 1_555 1_555
C14_6 N4_6 1_555 1_555
C15_6 C16_6 1_555 1_555
O2_6 Zn2_3 1_555 1_555
C4_7 H4_7 1_555 1_555
C5_7 H5_7 1_555 1_555
C6_7 C5_7 1_555 1_555
H6_7 C6_7 1_555 1_555
C15_7 C14_7 1_555 1_555
H13_7 C15_7 1_555 1_555
N6 C4_7 1_555 1_555
N4_7 C4_7 1_555 1_555
C5_7 N4_7 1_555 1_555
C6_7 N6 1_555 1_555
C14_7 N4_7 1_555 1_555
C1_7 H1_7 1_555 1_555
C2_7 H2_7 1_555 1_555
C3_7 C2_7 1_555 1_555
H3_7 C3_7 1_555 1_555
C7_7 H7_7 1_555 1_555
H8_7 C7_7 1_555 1_555
H9_7 C7_7 1_555 1_555
C8_7 C7_7 1_555 1_555
C9_7 C8_7 1_555 1_555
H10_7 C9_7 1_555 1_555
C10_7 C9_7 1_555 1_555
C11_7 C10_7 1_555 1_555
C12_7 C11_7 1_555 1_555
H11_7 C12_7 1_555 1_555
C13_7 C12_7 1_555 1_555
H12_7 C13_7 1_555 1_555
C16_7 C11_7 1_555 1_555
H14_7 C16_7 1_555 1_555
C17_6 H15_6 1_555 1_555
H16_6 C17_6 1_555 1_555
H17_6 C17_6 1_555 1_555
C18_6 C17_6 1_555 1_555
C19_6 C18_6 1_555 1_555
H18_6 C19_6 1_555 1_555
C20_6 C19_6 1_555 1_555
C21_6 C20_6 1_555 1_555
C22_6 C21_6 1_555 1_555
H19_6 C22_6 1_555 1_555
C23_6 C22_6 1_555 1_555
H20_6 C23_6 1_555 1_555
C24_7 C23_6 1_555 1_555
C25_7 C24_7 1_555 1_555
H21_7 C25_7 1_555 1_555
C26_6 C21_6 1_555 1_555
H22_6 C26_6 1_555 1_555
N5_6 C1_7 1_555 1_555
N2_7 C1_7 1_555 1_555
O1_7 C8_7 1_555 1_555
O2_7 C10_7 1_555 1_555
O3_6 C18_6 1_555 1_555
O4_6 C20_6 1_555 1_555
Zn3 O1_7 1_555 1_555
C2_7 N2_7 1_555 1_555
C3_7 N5_6 1_555 1_555
C24_7 N2_7 1_555 1_555
C25_7 C26_6 1_555 1_555
O2_7 Zn3 1_555 1_555
O3_6 Zn3 1_555 1_555
O4_6 Zn3 1_555 1_555
C1_8 H1_8 1_555 1_555
C2_8 H2_8 1_555 1_555
C3_8 C2_8 1_555 1_555
H3_8 C3_8 1_555 1_555
C7_8 H7_8 1_555 1_555
H8_8 C7_8 1_555 1_555
H9_8 C7_8 1_555 1_555
C8_8 C7_8 1_555 1_555
C9_8 C8_8 1_555 1_555
H10_8 C9_8 1_555 1_555
C10_8 C9_8 1_555 1_555
C11_8 C10_8 1_555 1_555
C12_8 C11_8 1_555 1_555
H11_8 C12_8 1_555 1_555
C13_8 C12_8 1_555 1_555
H12_8 C13_8 1_555 1_555
C16_8 C11_8 1_555 1_555
H14_8 C16_8 1_555 1_555
C17_7 H15_7 1_555 1_555
H16_7 C17_7 1_555 1_555
H17_7 C17_7 1_555 1_555
C18_7 C17_7 1_555 1_555
C19_7 C18_7 1_555 1_555
H18_7 C19_7 1_555 1_555
C20_7 C19_7 1_555 1_555
C21_7 C20_7 1_555 1_555
C22_7 C21_7 1_555 1_555
H19_7 C22_7 1_555 1_555
C23_7 C22_7 1_555 1_555
H20_7 C23_7 1_555 1_555
C24_8 C23_7 1_555 1_555
C25_8 C24_8 1_555 1_555
H21_8 C25_8 1_555 1_555
C26_7 C21_7 1_555 1_555
H22_7 C26_7 1_555 1_555
N5_5 C1_8 1_555 1_555
N2_8 C1_8 1_555 1_555
O1_8 C8_8 1_555 1_555
O2_8 C10_8 1_555 1_555
O3_7 C18_7 1_555 1_555
O4_7 C20_7 1_555 1_555
Zn3_2 O1_8 1_555 1_555
C2_8 N2_8 1_555 1_555
C3_8 N5_5 1_555 1_555
C24_8 N2_8 1_555 1_555
C25_8 C26_7 1_555 1_555
O2_8 Zn3_2 1_555 1_555
O3_7 Zn3_2 1_555 1_555
O4_7 Zn3_2 1_555 1_555
H16_8 C17_8 1_555 1_555
H17_8 C17_8 1_555 1_555
C18_8 C17_8 1_555 1_555
C19_8 C18_8 1_555 1_555
H18_8 C19_8 1_555 1_555
C20_8 C19_8 1_555 1_555
C21_8 C20_8 1_555 1_555
C22_8 C21_8 1_555 1_555
H19_8 C22_8 1_555 1_555
C23_8 C22_8 1_555 1_555
H20_8 C23_8 1_555 1_555
C26_8 C21_8 1_555 1_555
H22_8 C26_8 1_555 1_555
O3_8 C18_8 1_555 1_555
O4_8 C20_8 1_555 1_555
C4_8 H4_8 1_555 1_555
C5_8 H5_8 1_555 1_555
C6_8 C5_8 1_555 1_555
H6_8 C6_8 1_555 1_555
C15_8 C14_8 1_555 1_555
H13_8 C15_8 1_555 1_555
N6_2 C4_8 1_555 1_555
N4_8 C4_8 1_555 1_555
C5_8 N4_8 1_555 1_555
C6_8 N6_2 1_555 1_555
C14_8 N4_8 1_555 1_555
C4_9 H4_9 1_555 1_555
C5_9 H5_9 1_555 1_555
C6_9 C5_9 1_555 1_555
H6_9 C6_9 1_555 1_555
C15_9 C14_9 1_555 1_555
H13_9 C15_9 1_555 1_555
N6_3 C4_9 1_555 1_555
N4_9 C4_9 1_555 1_555
C5_9 N4_9 1_555 1_555
C6_9 N6_3 1_555 1_555
C14_9 N4_9 1_555 1_555
C4_10 H4_10 1_555 1_555
C5_10 H5_10 1_555 1_555
C6_10 C5_10 1_555 1_555
H6_10 C6_10 1_555 1_555
C7_9 H7_9 1_555 1_555
H9_9 C7_9 1_555 1_555
C8_9 C7_9 1_555 1_555
C9_9 C8_9 1_555 1_555
H10_9 C9_9 1_555 1_555
C10_9 C9_9 1_555 1_555
C11_9 C10_9 1_555 1_555
C12_9 C11_9 1_555 1_555
H11_9 C12_9 1_555 1_555
C13_9 C12_9 1_555 1_555
H12_9 C13_9 1_555 1_555
C14_10 C13_9 1_555 1_555
C15_10 C14_10 1_555 1_555
H13_10 C15_10 1_555 1_555
C16_9 C11_9 1_555 1_555
H14_9 C16_9 1_555 1_555
N3_7 C4_10 1_555 1_555
N4_10 C4_10 1_555 1_555
O1_9 C8_9 1_555 1_555
O2_9 C10_9 1_555 1_555
Zn1_3 O1_9 1_555 1_555
Zn2_5 N3_7 1_555 1_555
C5_10 N4_10 1_555 1_555
C6_10 N3_7 1_555 1_555
C14_10 N4_10 1_555 1_555
C15_10 C16_9 1_555 1_555
O2_9 Zn1_3 1_555 1_555
C1_9 H1_9 1_555 1_555
C2_9 H2_9 1_555 1_555
C3_9 C2_9 1_555 1_555
H3_9 C3_9 1_555 1_555
C25_9 C24_9 1_555 1_555
H21_9 C25_9 1_555 1_555
N1_3 C1_9 1_555 1_555
N2_9 C1_9 1_555 1_555
Zn3_3 N1_3 1_555 1_555
C2_9 N2_9 1_555 1_555
C3_9 N1_3 1_555 1_555
C24_9 N2_9 1_555 1_555
C1_10 H1_10 1_555 1_555
C2_10 H2_10 1_555 1_555
C3_10 C2_10 1_555 1_555
H3_10 C3_10 1_555 1_555
C25_10 C24_10 1_555 1_555
H21_10 C25_10 1_555 1_555
N1_4 C1_10 1_555 1_555
N2_10 C1_10 1_555 1_555
Zn3_4 N1_4 1_555 1_555
C2_10 N2_10 1_555 1_555
C3_10 N1_4 1_555 1_555
C24_10 N2_10 1_555 1_555
H16_9 C17_9 1_555 1_555
H17_9 C17_9 1_555 1_555
C18_9 C17_9 1_555 1_555
C19_9 C18_9 1_555 1_555
H18_9 C19_9 1_555 1_555
C20_9 C19_9 1_555 1_555
C21_9 C20_9 1_555 1_555
C22_9 C21_9 1_555 1_555
H19_9 C22_9 1_555 1_555
C23_9 C22_9 1_555 1_555
H20_9 C23_9 1_555 1_555
C26_9 C21_9 1_555 1_555
H22_9 C26_9 1_555 1_555
O3_9 C18_9 1_555 1_555
O4_9 C20_9 1_555 1_555
C4_11 H4_11 1_555 1_555
C5_11 H5_11 1_555 1_555
C6_11 C5_11 1_555 1_555
H6_11 C6_11 1_555 1_555
C7_10 H7_10 1_555 1_555
H9_10 C7_10 1_555 1_555
C8_10 C7_10 1_555 1_555
C9_10 C8_10 1_555 1_555
H10_10 C9_10 1_555 1_555
C10_10 C9_10 1_555 1_555
C11_10 C10_10 1_555 1_555
C12_10 C11_10 1_555 1_555
H11_10 C12_10 1_555 1_555
C13_10 C12_10 1_555 1_555
H12_10 C13_10 1_555 1_555
C14_11 C13_10 1_555 1_555
C15_11 C14_11 1_555 1_555
H13_11 C15_11 1_555 1_555
C16_10 C11_10 1_555 1_555
H14_10 C16_10 1_555 1_555
N3_8 C4_11 1_555 1_555
N4_11 C4_11 1_555 1_555
O1_10 C8_10 1_555 1_555
O2_10 C10_10 1_555 1_555
Zn1_4 O1_10 1_555 1_555
N6_4 Zn1_4 1_555 1_555
Zn2_6 N3_8 1_555 1_555
C5_11 N4_11 1_555 1_555
C6_11 N3_8 1_555 1_555
C14_11 N4_11 1_555 1_555
C15_11 C16_10 1_555 1_555
O2_10 Zn1_4 1_555 1_555
C1_11 H1_11 1_555 1_555
C2_11 H2_11 1_555 1_555
C3_11 C2_11 1_555 1_555
H3_11 C3_11 1_555 1_555
C4_12 H4_12 1_555 1_555
C5_12 H5_12 1_555 1_555
C6_12 C5_12 1_555 1_555
H6_12 C6_12 1_555 1_555
C7_11 H7_11 1_555 1_555
H8_11 C7_11 1_555 1_555
H9_11 C7_11 1_555 1_555
C8_11 C7_11 1_555 1_555
C9_11 C8_11 1_555 1_555
H10_11 C9_11 1_555 1_555
C10_11 C9_11 1_555 1_555
C11_11 C10_11 1_555 1_555
C12_11 C11_11 1_555 1_555
H11_11 C12_11 1_555 1_555
C13_11 C12_11 1_555 1_555
H12_11 C13_11 1_555 1_555
C14_12 C13_11 1_555 1_555
C15_12 C14_12 1_555 1_555
H13_12 C15_12 1_555 1_555
C16_11 C11_11 1_555 1_555
H14_11 C16_11 1_555 1_555
C17_10 H15_11 1_555 1_555
H16_10 C17_10 1_555 1_555
H17_10 C17_10 1_555 1_555
C18_10 C17_10 1_555 1_555
C19_10 C18_10 1_555 1_555
H18_10 C19_10 1_555 1_555
C20_10 C19_10 1_555 1_555
C21_10 C20_10 1_555 1_555
C22_10 C21_10 1_555 1_555
H19_10 C22_10 1_555 1_555
C23_10 C22_10 1_555 1_555
H20_10 C23_10 1_555 1_555
C24_11 C23_10 1_555 1_555
C25_11 C24_11 1_555 1_555
H21_11 C25_11 1_555 1_555
C26_10 C21_10 1_555 1_555
H22_10 C26_10 1_555 1_555
N5_8 C1_11 1_555 1_555
N2_11 C1_11 1_555 1_555
N3_9 C4_12 1_555 1_555
N4_12 C4_12 1_555 1_555
O1_11 C8_11 1_555 1_555
O2_11 C10_11 1_555 1_555
O3_10 C18_10 1_555 1_555
O4_10 C20_10 1_555 1_555
Zn2_5 O1_11 1_555 1_555
N5_9 Zn2_5 1_555 1_555
C2_11 N2_11 1_555 1_555
C3_11 N5_8 1_555 1_555
C5_12 N4_12 1_555 1_555
C6_12 N3_9 1_555 1_555
C14_12 N4_12 1_555 1_555
C15_12 C16_11 1_555 1_555
C24_11 N2_11 1_555 1_555
C25_11 C26_10 1_555 1_555
O2_11 Zn2_5 1_555 1_555
O3_10 Zn2_5 1_555 1_555
O4_10 Zn2_5 1_555 1_555
C1_12 H1_12 1_555 1_555
C2_12 H2_12 1_555 1_555
C3_12 C2_12 1_555 1_555
H3_12 C3_12 1_555 1_555
C4_13 H4_13 1_555 1_555
C5_13 H5_13 1_555 1_555
C6_13 C5_13 1_555 1_555
H6_13 C6_13 1_555 1_555
C7_12 H7_12 1_555 1_555
H8_12 C7_12 1_555 1_555
H9_12 C7_12 1_555 1_555
C8_12 C7_12 1_555 1_555
C9_12 C8_12 1_555 1_555
H10_12 C9_12 1_555 1_555
C10_12 C9_12 1_555 1_555
C11_12 C10_12 1_555 1_555
C12_12 C11_12 1_555 1_555
H11_12 C12_12 1_555 1_555
C13_12 C12_12 1_555 1_555
H12_12 C13_12 1_555 1_555
C14_13 C13_12 1_555 1_555
C15_13 C14_13 1_555 1_555
H13_13 C15_13 1_555 1_555
C16_12 C11_12 1_555 1_555
H14_12 C16_12 1_555 1_555
C17_11 H15_12 1_555 1_555
H16_11 C17_11 1_555 1_555
H17_11 C17_11 1_555 1_555
C18_11 C17_11 1_555 1_555
C19_11 C18_11 1_555 1_555
H18_11 C19_11 1_555 1_555
C20_11 C19_11 1_555 1_555
C21_11 C20_11 1_555 1_555
C22_11 C21_11 1_555 1_555
H19_11 C22_11 1_555 1_555
C23_11 C22_11 1_555 1_555
H20_11 C23_11 1_555 1_555
C24_12 C23_11 1_555 1_555
C25_12 C24_12 1_555 1_555
H21_12 C25_12 1_555 1_555
C26_11 C21_11 1_555 1_555
H22_11 C26_11 1_555 1_555
N5_7 C1_12 1_555 1_555
N2_12 C1_12 1_555 1_555
N3_10 C4_13 1_555 1_555
N4_13 C4_13 1_555 1_555
O1_12 C8_12 1_555 1_555
O2_12 C10_12 1_555 1_555
O3_11 C18_11 1_555 1_555
O4_11 C20_11 1_555 1_555
Zn2_6 O1_12 1_555 1_555
N5_10 Zn2_6 1_555 1_555
Zn2_8 N3_10 1_555 1_555
C2_12 N2_12 1_555 1_555
C3_12 N5_7 1_555 1_555
C5_13 N4_13 1_555 1_555
C6_13 N3_10 1_555 1_555
C14_13 N4_13 1_555 1_555
C15_13 C16_12 1_555 1_555
C24_12 N2_12 1_555 1_555
C25_12 C26_11 1_555 1_555
O2_12 Zn2_6 1_555 1_555
O3_11 Zn2_6 1_555 1_555
O4_11 Zn2_6 1_555 1_555
C1_13 H1_13 1_555 1_555
C2_13 H2_13 1_555 1_555
C3_13 C2_13 1_555 1_555
H3_13 C3_13 1_555 1_555
C4_14 H4_14 1_555 1_555
C5_14 H5_14 1_555 1_555
C6_14 C5_14 1_555 1_555
H6_14 C6_14 1_555 1_555
C7_13 H7_13 1_555 1_555
H8_13 C7_13 1_555 1_555
H9_13 C7_13 1_555 1_555
C8_13 C7_13 1_555 1_555
C9_13 C8_13 1_555 1_555
H10_13 C9_13 1_555 1_555
C10_13 C9_13 1_555 1_555
C11_13 C10_13 1_555 1_555
C12_13 C11_13 1_555 1_555
H11_13 C12_13 1_555 1_555
C13_13 C12_13 1_555 1_555
H12_13 C13_13 1_555 1_555
C14_14 C13_13 1_555 1_555
C15_14 C14_14 1_555 1_555
H13_14 C15_14 1_555 1_555
C16_13 C11_13 1_555 1_555
H14_13 C16_13 1_555 1_555
C17_12 H15_13 1_555 1_555
H16_12 C17_12 1_555 1_555
H17_12 C17_12 1_555 1_555
C18_12 C17_12 1_555 1_555
C19_12 C18_12 1_555 1_555
H18_12 C19_12 1_555 1_555
C20_12 C19_12 1_555 1_555
C21_12 C20_12 1_555 1_555
C22_12 C21_12 1_555 1_555
H19_12 C22_12 1_555 1_555
C23_12 C22_12 1_555 1_555
H20_12 C23_12 1_555 1_555
C24_13 C23_12 1_555 1_555
C25_13 C24_13 1_555 1_555
H21_13 C25_13 1_555 1_555
C26_12 C21_12 1_555 1_555
H22_12 C26_12 1_555 1_555
N5_9 C1_13 1_555 1_555
N2_13 C1_13 1_555 1_555
N3_11 C4_14 1_555 1_555
N4_14 C4_14 1_555 1_555
O1_13 C8_13 1_555 1_555
O2_13 C10_13 1_555 1_555
O3_12 C18_12 1_555 1_555
O4_12 C20_12 1_555 1_555
Zn2_8 O1_13 1_555 1_555
N5_11 Zn2_8 1_555 1_555
Zn3_3 N3_11 1_555 1_555
C2_13 N2_13 1_555 1_555
C3_13 N5_9 1_555 1_555
C5_14 N4_14 1_555 1_555
C6_14 N3_11 1_555 1_555
C14_14 N4_14 1_555 1_555
C15_14 C16_13 1_555 1_555
C24_13 N2_13 1_555 1_555
C25_13 C26_12 1_555 1_555
O2_13 Zn2_8 1_555 1_555
O3_12 Zn2_8 1_555 1_555
O4_12 Zn2_8 1_555 1_555
C4_15 H4_15 1_555 1_555
C5_15 H5_15 1_555 1_555
C6_15 C5_15 1_555 1_555
H6_15 C6_15 1_555 1_555
C7_14 H7_14 1_555 1_555
H8_14 C7_14 1_555 1_555
H9_14 C7_14 1_555 1_555
C8_14 C7_14 1_555 1_555
C9_14 C8_14 1_555 1_555
H10_14 C9_14 1_555 1_555
C10_14 C9_14 1_555 1_555
C11_14 C10_14 1_555 1_555
C12_14 C11_14 1_555 1_555
H11_14 C12_14 1_555 1_555
C13_14 C12_14 1_555 1_555
H12_14 C13_14 1_555 1_555
C14_15 C13_14 1_555 1_555
C15_15 C14_15 1_555 1_555
H13_15 C15_15 1_555 1_555
C16_14 C11_14 1_555 1_555
H14_14 C16_14 1_555 1_555
N3_12 C4_15 1_555 1_555
N4_15 C4_15 1_555 1_555
O1_14 C8_14 1_555 1_555
O2_14 C10_14 1_555 1_555
Zn2_7 O1_14 1_555 1_555
N5_12 Zn2_7 1_555 1_555
Zn3_4 N3_12 1_555 1_555
C5_15 N4_15 1_555 1_555
C6_15 N3_12 1_555 1_555
C14_15 N4_15 1_555 1_555
C15_15 C16_14 1_555 1_555
O2_14 Zn2_7 1_555 1_555
C1_14 H1_14 1_555 1_555
C2_14 H2_14 1_555 1_555
C3_14 C2_14 1_555 1_555
H3_14 C3_14 1_555 1_555
C17_13 H15_14 1_555 1_555
H16_13 C17_13 1_555 1_555
H17_13 C17_13 1_555 1_555
C18_13 C17_13 1_555 1_555
C19_13 C18_13 1_555 1_555
H18_13 C19_13 1_555 1_555
C20_13 C19_13 1_555 1_555
C21_13 C20_13 1_555 1_555
C22_13 C21_13 1_555 1_555
H19_13 C22_13 1_555 1_555
C23_13 C22_13 1_555 1_555
H20_13 C23_13 1_555 1_555
C24_14 C23_13 1_555 1_555
C25_14 C24_14 1_555 1_555
H21_14 C25_14 1_555 1_555
C26_13 C21_13 1_555 1_555
H22_13 C26_13 1_555 1_555
N5_10 C1_14 1_555 1_555
N2_14 C1_14 1_555 1_555
O3_13 C18_13 1_555 1_555
O4_13 C20_13 1_555 1_555
C2_14 N2_14 1_555 1_555
C3_14 N5_10 1_555 1_555
C24_14 N2_14 1_555 1_555
C25_14 C26_13 1_555 1_555
C1_15 H1_15 1_555 1_555
C2_15 H2_15 1_555 1_555
C3_15 C2_15 1_555 1_555
H3_15 C3_15 1_555 1_555
C7_15 H7_15 1_555 1_555
H8_15 C7_15 1_555 1_555
H9_15 C7_15 1_555 1_555
C8_15 C7_15 1_555 1_555
C9_15 C8_15 1_555 1_555
H10_15 C9_15 1_555 1_555
C10_15 C9_15 1_555 1_555
C11_15 C10_15 1_555 1_555
C12_15 C11_15 1_555 1_555
H11_15 C12_15 1_555 1_555
C13_15 C12_15 1_555 1_555
H12_15 C13_15 1_555 1_555
C16_15 C11_15 1_555 1_555
H14_15 C16_15 1_555 1_555
C17_14 H15_15 1_555 1_555
H16_14 C17_14 1_555 1_555
H17_14 C17_14 1_555 1_555
C18_14 C17_14 1_555 1_555
C19_14 C18_14 1_555 1_555
H18_14 C19_14 1_555 1_555
C20_14 C19_14 1_555 1_555
C21_14 C20_14 1_555 1_555
C22_14 C21_14 1_555 1_555
H19_14 C22_14 1_555 1_555
C23_14 C22_14 1_555 1_555
H20_14 C23_14 1_555 1_555
C24_15 C23_14 1_555 1_555
C25_15 C24_15 1_555 1_555
H21_15 C25_15 1_555 1_555
C26_14 C21_14 1_555 1_555
H22_14 C26_14 1_555 1_555
N5_12 C1_15 1_555 1_555
N2_15 C1_15 1_555 1_555
O1_15 C8_15 1_555 1_555
O2_15 C10_15 1_555 1_555
O3_14 C18_14 1_555 1_555
O4_14 C20_14 1_555 1_555
Zn3_3 O1_15 1_555 1_555
C2_15 N2_15 1_555 1_555
C3_15 N5_12 1_555 1_555
C24_15 N2_15 1_555 1_555
C25_15 C26_14 1_555 1_555
O2_15 Zn3_3 1_555 1_555
O3_14 Zn3_3 1_555 1_555
O4_14 Zn3_3 1_555 1_555
C4_16 H4_16 1_555 1_555
C5_16 H5_16 1_555 1_555
C6_16 C5_16 1_555 1_555
H6_16 C6_16 1_555 1_555
C15_16 C14_16 1_555 1_555
H13_16 C15_16 1_555 1_555
N6_4 C4_16 1_555 1_555
N4_16 C4_16 1_555 1_555
C5_16 N4_16 1_555 1_555
C6_16 N6_4 1_555 1_555
C14_16 N4_16 1_555 1_555
C1_16 H1_16 1_555 1_555
C2_16 H2_16 1_555 1_555
C3_16 C2_16 1_555 1_555
H3_16 C3_16 1_555 1_555
C7_16 H7_16 1_555 1_555
H8_16 C7_16 1_555 1_555
H9_16 C7_16 1_555 1_555
C8_16 C7_16 1_555 1_555
C9_16 C8_16 1_555 1_555
H10_16 C9_16 1_555 1_555
C10_16 C9_16 1_555 1_555
C11_16 C10_16 1_555 1_555
C12_16 C11_16 1_555 1_555
H11_16 C12_16 1_555 1_555
C13_16 C12_16 1_555 1_555
H12_16 C13_16 1_555 1_555
C16_16 C11_16 1_555 1_555
H14_16 C16_16 1_555 1_555
C17_15 H15_16 1_555 1_555
H16_15 C17_15 1_555 1_555
H17_15 C17_15 1_555 1_555
C18_15 C17_15 1_555 1_555
C19_15 C18_15 1_555 1_555
H18_15 C19_15 1_555 1_555
C20_15 C19_15 1_555 1_555
C21_15 C20_15 1_555 1_555
C22_15 C21_15 1_555 1_555
H19_15 C22_15 1_555 1_555
C23_15 C22_15 1_555 1_555
H20_15 C23_15 1_555 1_555
C24_16 C23_15 1_555 1_555
C25_16 C24_16 1_555 1_555
H21_16 C25_16 1_555 1_555
C26_15 C21_15 1_555 1_555
H22_15 C26_15 1_555 1_555
N5_11 C1_16 1_555 1_555
N2_16 C1_16 1_555 1_555
O1_16 C8_16 1_555 1_555
O2_16 C10_16 1_555 1_555
O3_15 C18_15 1_555 1_555
O4_15 C20_15 1_555 1_555
Zn3_4 O1_16 1_555 1_555
C2_16 N2_16 1_555 1_555
C3_16 N5_11 1_555 1_555
C24_16 N2_16 1_555 1_555
C25_16 C26_15 1_555 1_555
O2_16 Zn3_4 1_555 1_555
O3_15 Zn3_4 1_555 1_555
O4_15 Zn3_4 1_555 1_555
H16_16 C17_16 1_555 1_555
H17_16 C17_16 1_555 1_555
C18_16 C17_16 1_555 1_555
C19_16 C18_16 1_555 1_555
H18_16 C19_16 1_555 1_555
C20_16 C19_16 1_555 1_555
C21_16 C20_16 1_555 1_555
C22_16 C21_16 1_555 1_555
H19_16 C22_16 1_555 1_555
C23_16 C22_16 1_555 1_555
H20_16 C23_16 1_555 1_555
C26_16 C21_16 1_555 1_555
H22_16 C26_16 1_555 1_555
O3_16 C18_16 1_555 1_555
O4_16 C20_16 1_555 1_555
C30 H26 1_555 1_555
C31 H27 1_555 1_555
C32 C31 1_555 1_555
H28 C32 1_555 1_555
C33 H29 1_555 1_555
H30 C33 1_555 1_555
H31 C33 1_555 1_555
C34 C33 1_555 1_555
C35 C34 1_555 1_555
H32 C35 1_555 1_555
C36 C35 1_555 1_555
C37 C36 1_555 1_555
C38 C37 1_555 1_555
H33 C38 1_555 1_555
C43 H37 1_555 1_555
H38 C43 1_555 1_555
H39 C43 1_555 1_555
C44 C43 1_555 1_555
C45 C44 1_555 1_555
H40 C45 1_555 1_555
C46 C45 1_555 1_555
C47 C46 1_555 1_555
C48 C47 1_555 1_555
H41 C48 1_555 1_555
C49 C48 1_555 1_555
H42 C49 1_555 1_555
C50 C49 1_555 1_555
C51 C50 1_555 1_555
H43 C51 1_555 1_555
C52 C47 1_555 1_555
H44 C52 1_555 1_555
N9 C30 1_555 1_555
N10 C30 1_555 1_555
O5 C34 1_555 1_555
O6 C36 1_555 1_555
O7 C44 1_555 1_555
O8 C46 1_555 1_555
Zn4 O5 1_555 1_555
N11 Zn4 1_555 1_555
N12 Zn4 1_555 1_555
C31 N10 1_555 1_555
C32 N9 1_555 1_555
C50 N10 1_555 1_555
C51 C52 1_555 1_555
O6 Zn4 1_555 1_555
O7 Zn4 1_555 1_555
O8 Zn4 1_555 1_555
C27 H23 1_555 1_555
C28 H24 1_555 1_555
C29 C28 1_555 1_555
H25 C29 1_555 1_555
H34 C39 1_555 1_555
C40 C39 1_555 1_555
C41 C40 1_555 1_555
H35 C41 1_555 1_555
N7 C27 1_555 1_555
N8 C27 1_555 1_555
Zn6 N7 1_555 1_555
C28 N8 1_555 1_555
C29 N7 1_555 1_555
C40 N8 1_555 1_555
C41 C42 1_555 1_555
C30_2 H26_2 1_555 1_555
C31_2 H27_2 1_555 1_555
C32_2 C31_2 1_555 1_555
H28_2 C32_2 1_555 1_555
C33_2 H29_2 1_555 1_555
H30_2 C33_2 1_555 1_555
H31_2 C33_2 1_555 1_555
C34_2 C33_2 1_555 1_555
C35_2 C34_2 1_555 1_555
H32_2 C35_2 1_555 1_555
C36_2 C35_2 1_555 1_555
C37_2 C36_2 1_555 1_555
C38_2 C37_2 1_555 1_555
H33_2 C38_2 1_555 1_555
C43_2 H37_2 1_555 1_555
H38_2 C43_2 1_555 1_555
H39_2 C43_2 1_555 1_555
C44_2 C43_2 1_555 1_555
C45_2 C44_2 1_555 1_555
H40_2 C45_2 1_555 1_555
C46_2 C45_2 1_555 1_555
C47_2 C46_2 1_555 1_555
C48_2 C47_2 1_555 1_555
H41_2 C48_2 1_555 1_555
C49_2 C48_2 1_555 1_555
H42_2 C49_2 1_555 1_555
C50_2 C49_2 1_555 1_555
C51_2 C50_2 1_555 1_555
H43_2 C51_2 1_555 1_555
C52_2 C47_2 1_555 1_555
H44_2 C52_2 1_555 1_555
N9_2 C30_2 1_555 1_555
N10_2 C30_2 1_555 1_555
O5_2 C34_2 1_555 1_555
O6_2 C36_2 1_555 1_555
O7_2 C44_2 1_555 1_555
O8_2 C46_2 1_555 1_555
Zn4_2 O5_2 1_555 1_555
N11_2 Zn4_2 1_555 1_555
N12_2 Zn4_2 1_555 1_555
C31_2 N10_2 1_555 1_555
C32_2 N9_2 1_555 1_555
C50_2 N10_2 1_555 1_555
C51_2 C52_2 1_555 1_555
O6_2 Zn4_2 1_555 1_555
O7_2 Zn4_2 1_555 1_555
O8_2 Zn4_2 1_555 1_555
N11_3 Zn5 1_555 1_555
C27_2 H23_2 1_555 1_555
C28_2 H24_2 1_555 1_555
C29_2 C28_2 1_555 1_555
H25_2 C29_2 1_555 1_555
C33_3 H29_3 1_555 1_555
H30_3 C33_3 1_555 1_555
H31_3 C33_3 1_555 1_555
C34_3 C33_3 1_555 1_555
C35_3 C34_3 1_555 1_555
H32_3 C35_3 1_555 1_555
C36_3 C35_3 1_555 1_555
C37_3 C36_3 1_555 1_555
C38_3 C37_3 1_555 1_555
H33_3 C38_3 1_555 1_555
C39_2 C38_3 1_555 1_555
H34_2 C39_2 1_555 1_555
C40_2 C39_2 1_555 1_555
C41_2 C40_2 1_555 1_555
H35_2 C41_2 1_555 1_555
C42_2 C37_3 1_555 1_555
H36_3 C42_2 1_555 1_555
N11_2 C27_2 1_555 1_555
N8_2 C27_2 1_555 1_555
O5_3 C34_3 1_555 1_555
O6_3 C36_3 1_555 1_555
C28_2 N8_2 1_555 1_555
C29_2 N11_2 1_555 1_555
C40_2 N8_2 1_555 1_555
C41_2 C42_2 1_555 1_555
C30_3 H26_3 1_555 1_555
C31_3 H27_3 1_555 1_555
C32_3 C31_3 1_555 1_555
H28_3 C32_3 1_555 1_555
H38_3 C43_3 1_555 1_555
H39_3 C43_3 1_555 1_555
C44_3 C43_3 1_555 1_555
C45_3 C44_3 1_555 1_555
H40_3 C45_3 1_555 1_555
C46_3 C45_3 1_555 1_555
C47_3 C46_3 1_555 1_555
C48_3 C47_3 1_555 1_555
H41_3 C48_3 1_555 1_555
C49_3 C48_3 1_555 1_555
H42_3 C49_3 1_555 1_555
C50_3 C49_3 1_555 1_555
C51_3 C50_3 1_555 1_555
H43_3 C51_3 1_555 1_555
C52_3 C47_3 1_555 1_555
H44_3 C52_3 1_555 1_555
N9_3 C30_3 1_555 1_555
N10_3 C30_3 1_555 1_555
O7_3 C44_3 1_555 1_555
O8_3 C46_3 1_555 1_555
Zn5_3 N9_3 1_555 1_555
C31_3 N10_3 1_555 1_555
C32_3 N9_3 1_555 1_555
C50_3 N10_3 1_555 1_555
C51_3 C52_3 1_555 1_555
C30_4 H26_4 1_555 1_555
C31_4 H27_4 1_555 1_555
C32_4 C31_4 1_555 1_555
H28_4 C32_4 1_555 1_555
H38_4 C43_4 1_555 1_555
H39_4 C43_4 1_555 1_555
C44_4 C43_4 1_555 1_555
C45_4 C44_4 1_555 1_555
H40_4 C45_4 1_555 1_555
C46_4 C45_4 1_555 1_555
C47_4 C46_4 1_555 1_555
C48_4 C47_4 1_555 1_555
H41_4 C48_4 1_555 1_555
C49_4 C48_4 1_555 1_555
H42_4 C49_4 1_555 1_555
C50_4 C49_4 1_555 1_555
C51_4 C50_4 1_555 1_555
H43_4 C51_4 1_555 1_555
C52_4 C47_4 1_555 1_555
H44_4 C52_4 1_555 1_555
N9_4 C30_4 1_555 1_555
N10_4 C30_4 1_555 1_555
O7_4 C44_4 1_555 1_555
O8_4 C46_4 1_555 1_555
Zn5_4 N9_4 1_555 1_555
C31_4 N10_4 1_555 1_555
C32_4 N9_4 1_555 1_555
C50_4 N10_4 1_555 1_555
C51_4 C52_4 1_555 1_555
C27_3 H23_3 1_555 1_555
C28_3 H24_3 1_555 1_555
C29_3 C28_3 1_555 1_555
H25_3 C29_3 1_555 1_555
C33_4 H29_4 1_555 1_555
H30_4 C33_4 1_555 1_555
H31_4 C33_4 1_555 1_555
C34_4 C33_4 1_555 1_555
C35_4 C34_4 1_555 1_555
H32_4 C35_4 1_555 1_555
C36_4 C35_4 1_555 1_555
C37_4 C36_4 1_555 1_555
C38_4 C37_4 1_555 1_555
H33_4 C38_4 1_555 1_555
C39_3 C38_4 1_555 1_555
H34_3 C39_3 1_555 1_555
C40_3 C39_3 1_555 1_555
C41_3 C40_3 1_555 1_555
H35_3 C41_3 1_555 1_555
C42_3 C37_4 1_555 1_555
H36_4 C42_3 1_555 1_555
N11 C27_3 1_555 1_555
N8_3 C27_3 1_555 1_555
O5_4 C34_4 1_555 1_555
O6_4 C36_4 1_555 1_555
Zn5_2 O5_4 1_555 1_555
N11_4 Zn5_2 1_555 1_555
C28_3 N8_3 1_555 1_555
C29_3 N11 1_555 1_555
C40_3 N8_3 1_555 1_555
C41_3 C42_3 1_555 1_555
O6_4 Zn5_2 1_555 1_555
C27_4 H23_4 1_555 1_555
C28_4 H24_4 1_555 1_555
C29_4 C28_4 1_555 1_555
H25_4 C29_4 1_555 1_555
C30_5 H26_5 1_555 1_555
C31_5 H27_5 1_555 1_555
C32_5 C31_5 1_555 1_555
H28_5 C32_5 1_555 1_555
C33_5 H29_5 1_555 1_555
H30_5 C33_5 1_555 1_555
H31_5 C33_5 1_555 1_555
C34_5 C33_5 1_555 1_555
C35_5 C34_5 1_555 1_555
H32_5 C35_5 1_555 1_555
C36_5 C35_5 1_555 1_555
C37_5 C36_5 1_555 1_555
C38_5 C37_5 1_555 1_555
H33_5 C38_5 1_555 1_555
C39_4 C38_5 1_555 1_555
H34_4 C39_4 1_555 1_555
C40_4 C39_4 1_555 1_555
C41_4 C40_4 1_555 1_555
H35_4 C41_4 1_555 1_555
C42_4 C37_5 1_555 1_555
H36_5 C42_4 1_555 1_555
C43_5 H37_5 1_555 1_555
H38_5 C43_5 1_555 1_555
H39_5 C43_5 1_555 1_555
C44_5 C43_5 1_555 1_555
C45_5 C44_5 1_555 1_555
H40_5 C45_5 1_555 1_555
C46_5 C45_5 1_555 1_555
C47_5 C46_5 1_555 1_555
C48_5 C47_5 1_555 1_555
H41_5 C48_5 1_555 1_555
C49_5 C48_5 1_555 1_555
H42_5 C49_5 1_555 1_555
C50_5 C49_5 1_555 1_555
C51_5 C50_5 1_555 1_555
H43_5 C51_5 1_555 1_555
C52_5 C47_5 1_555 1_555
H44_5 C52_5 1_555 1_555
N11_3 C27_4 1_555 1_555
N8_4 C27_4 1_555 1_555
N9_5 C30_5 1_555 1_555
N10_5 C30_5 1_555 1_555
O5_5 C34_5 1_555 1_555
O6_5 C36_5 1_555 1_555
O7_5 C44_5 1_555 1_555
O8_5 C46_5 1_555 1_555
Zn5_4 O5_5 1_555 1_555
N11_5 Zn5_4 1_555 1_555
Zn6 N9_5 1_555 1_555
C28_4 N8_4 1_555 1_555
C29_4 N11_3 1_555 1_555
C31_5 N10_5 1_555 1_555
C32_5 N9_5 1_555 1_555
C40_4 N8_4 1_555 1_555
C41_4 C42_4 1_555 1_555
C50_5 N10_5 1_555 1_555
C51_5 C52_5 1_555 1_555
O6_5 Zn5_4 1_555 1_555
O7_5 Zn5_4 1_555 1_555
O8_5 Zn5_4 1_555 1_555
C27_5 H23_5 1_555 1_555
C28_5 H24_5 1_555 1_555
C29_5 C28_5 1_555 1_555
H25_5 C29_5 1_555 1_555
C30_6 H26_6 1_555 1_555
C31_6 H27_6 1_555 1_555
C32_6 C31_6 1_555 1_555
H28_6 C32_6 1_555 1_555
C33_6 H29_6 1_555 1_555
H30_6 C33_6 1_555 1_555
H31_6 C33_6 1_555 1_555
C34_6 C33_6 1_555 1_555
C35_6 C34_6 1_555 1_555
H32_6 C35_6 1_555 1_555
C36_6 C35_6 1_555 1_555
C37_6 C36_6 1_555 1_555
C38_6 C37_6 1_555 1_555
H33_6 C38_6 1_555 1_555
C39_5 C38_6 1_555 1_555
H34_5 C39_5 1_555 1_555
C40_5 C39_5 1_555 1_555
C41_5 C40_5 1_555 1_555
H35_5 C41_5 1_555 1_555
C42_5 C37_6 1_555 1_555
H36_6 C42_5 1_555 1_555
C43_6 H37_6 1_555 1_555
H38_6 C43_6 1_555 1_555
H39_6 C43_6 1_555 1_555
C44_6 C43_6 1_555 1_555
C45_6 C44_6 1_555 1_555
H40_6 C45_6 1_555 1_555
C46_6 C45_6 1_555 1_555
C47_6 C46_6 1_555 1_555
C48_6 C47_6 1_555 1_555
H41_6 C48_6 1_555 1_555
C49_6 C48_6 1_555 1_555
H42_6 C49_6 1_555 1_555
C50_6 C49_6 1_555 1_555
C51_6 C50_6 1_555 1_555
H43_6 C51_6 1_555 1_555
C52_6 C47_6 1_555 1_555
H44_6 C52_6 1_555 1_555
N11_4 C27_5 1_555 1_555
N8_5 C27_5 1_555 1_555
N9_6 C30_6 1_555 1_555
N10_6 C30_6 1_555 1_555
O5_6 C34_6 1_555 1_555
O6_6 C36_6 1_555 1_555
O7_6 C44_6 1_555 1_555
O8_6 C46_6 1_555 1_555
Zn5_3 O5_6 1_555 1_555
N11_6 Zn5_3 1_555 1_555
C28_5 N8_5 1_555 1_555
C29_5 N11_4 1_555 1_555
C31_6 N10_6 1_555 1_555
C32_6 N9_6 1_555 1_555
C40_5 N8_5 1_555 1_555
C41_5 C42_5 1_555 1_555
C50_6 N10_6 1_555 1_555
C51_6 C52_6 1_555 1_555
O6_6 Zn5_3 1_555 1_555
O7_6 Zn5_3 1_555 1_555
O8_6 Zn5_3 1_555 1_555
C30_7 H26_7 1_555 1_555
C31_7 H27_7 1_555 1_555
C32_7 C31_7 1_555 1_555
H28_7 C32_7 1_555 1_555
H43_7 C51_7 1_555 1_555
N12_2 C30_7 1_555 1_555
N10_7 C30_7 1_555 1_555
C31_7 N10_7 1_555 1_555
C32_7 N12_2 1_555 1_555
C27_6 H23_6 1_555 1_555
C28_6 H24_6 1_555 1_555
C29_6 C28_6 1_555 1_555
H25_6 C29_6 1_555 1_555
C33_7 H29_7 1_555 1_555
H30_7 C33_7 1_555 1_555
H31_7 C33_7 1_555 1_555
C34_7 C33_7 1_555 1_555
C35_7 C34_7 1_555 1_555
H32_7 C35_7 1_555 1_555
C36_7 C35_7 1_555 1_555
C37_7 C36_7 1_555 1_555
C38_7 C37_7 1_555 1_555
H33_7 C38_7 1_555 1_555
C39_6 C38_7 1_555 1_555
H34_6 C39_6 1_555 1_555
C40_6 C39_6 1_555 1_555
C41_6 C40_6 1_555 1_555
H35_6 C41_6 1_555 1_555
C42_6 C37_7 1_555 1_555
H36_7 C42_6 1_555 1_555
C43_7 H37_7 1_555 1_555
H38_7 C43_7 1_555 1_555
H39_7 C43_7 1_555 1_555
C44_7 C43_7 1_555 1_555
C45_7 C44_7 1_555 1_555
H40_7 C45_7 1_555 1_555
C46_7 C45_7 1_555 1_555
C47_7 C46_7 1_555 1_555
C48_7 C47_7 1_555 1_555
H41_7 C48_7 1_555 1_555
C49_7 C48_7 1_555 1_555
H42_7 C49_7 1_555 1_555
C50_7 C49_7 1_555 1_555
C51_8 C50_7 1_555 1_555
C52_7 C47_7 1_555 1_555
H44_7 C52_7 1_555 1_555
N11_6 C27_6 1_555 1_555
N8_6 C27_6 1_555 1_555
O5_7 C34_7 1_555 1_555
O6_7 C36_7 1_555 1_555
O7_7 C44_7 1_555 1_555
O8_7 C46_7 1_555 1_555
Zn6 O5_7 1_555 1_555
C28_6 N8_6 1_555 1_555
C29_6 N11_6 1_555 1_555
C40_6 N8_6 1_555 1_555
C41_6 C42_6 1_555 1_555
C51_8 C52_7 1_555 1_555
O6_7 Zn6 1_555 1_555
O7_7 Zn6 1_555 1_555
O8_7 Zn6 1_555 1_555
C27_7 H23_7 1_555 1_555
C28_7 H24_7 1_555 1_555
C29_7 C28_7 1_555 1_555
H25_7 C29_7 1_555 1_555
C33_8 H29_8 1_555 1_555
H30_8 C33_8 1_555 1_555
H31_8 C33_8 1_555 1_555
C34_8 C33_8 1_555 1_555
C35_8 C34_8 1_555 1_555
H32_8 C35_8 1_555 1_555
C36_8 C35_8 1_555 1_555
C37_8 C36_8 1_555 1_555
C38_8 C37_8 1_555 1_555
H33_8 C38_8 1_555 1_555
C39_7 C38_8 1_555 1_555
H34_7 C39_7 1_555 1_555
C40_7 C39_7 1_555 1_555
C41_7 C40_7 1_555 1_555
H35_7 C41_7 1_555 1_555
C42_7 C37_8 1_555 1_555
H36_8 C42_7 1_555 1_555
N11_5 C27_7 1_555 1_555
N8_7 C27_7 1_555 1_555
O5_8 C34_8 1_555 1_555
O6_8 C36_8 1_555 1_555
C28_7 N8_7 1_555 1_555
C29_7 N11_5 1_555 1_555
C40_7 N8_7 1_555 1_555
C41_7 C42_7 1_555 1_555
C30_8 H26_8 1_555 1_555
C31_8 H27_8 1_555 1_555
C32_8 C31_8 1_555 1_555
H28_8 C32_8 1_555 1_555
H43_8 C51_9 1_555 1_555
N12 C30_8 1_555 1_555
N10_8 C30_8 1_555 1_555
C31_8 N10_8 1_555 1_555
C32_8 N12 1_555 1_555
C27_8 H23_8 1_555 1_555
C28_8 H24_8 1_555 1_555
C29_8 C28_8 1_555 1_555
H25_8 C29_8 1_555 1_555
H34_8 C39_8 1_555 1_555
C40_8 C39_8 1_555 1_555
C41_8 C40_8 1_555 1_555
H35_8 C41_8 1_555 1_555
N7_2 C27_8 1_555 1_555
N8_8 C27_8 1_555 1_555
Zn6_2 N7_2 1_555 1_555
C28_8 N8_8 1_555 1_555
C29_8 N7_2 1_555 1_555
C40_8 N8_8 1_555 1_555
C41_8 C42_8 1_555 1_555
C43_8 H37_8 1_555 1_555
H38_8 C43_8 1_555 1_555
H39_8 C43_8 1_555 1_555
C44_8 C43_8 1_555 1_555
C45_8 C44_8 1_555 1_555
H40_8 C45_8 1_555 1_555
C46_8 C45_8 1_555 1_555
C47_8 C46_8 1_555 1_555
C48_8 C47_8 1_555 1_555
H41_8 C48_8 1_555 1_555
C49_8 C48_8 1_555 1_555
H42_8 C49_8 1_555 1_555
C50_8 C49_8 1_555 1_555
C51_10 C50_8 1_555 1_555
C52_8 C47_8 1_555 1_555
H44_8 C52_8 1_555 1_555
O7_8 C44_8 1_555 1_555
O8_8 C46_8 1_555 1_555
C51_10 C52_8 1_555 1_555
O7_8 Zn6_2 1_555 1_555
O8_8 Zn6_2 1_555 1_555
C27_9 H23_9 1_555 1_555
C28_9 H24_9 1_555 1_555
C29_9 C28_9 1_555 1_555
H25_9 C29_9 1_555 1_555
H34_9 C39_9 1_555 1_555
C40_9 C39_9 1_555 1_555
C41_9 C40_9 1_555 1_555
H35_9 C41_9 1_555 1_555
N7_3 C27_9 1_555 1_555
N8_9 C27_9 1_555 1_555
Zn6_3 N7_3 1_555 1_555
C28_9 N8_9 1_555 1_555
C29_9 N7_3 1_555 1_555
C40_9 N8_9 1_555 1_555
C41_9 C42_9 1_555 1_555
C30_9 H26_9 1_555 1_555
C31_9 H27_9 1_555 1_555
C32_9 C31_9 1_555 1_555
H28_9 C32_9 1_555 1_555
C33_9 H29_9 1_555 1_555
H30_9 C33_9 1_555 1_555
H31_9 C33_9 1_555 1_555
C34_9 C33_9 1_555 1_555
C35_9 C34_9 1_555 1_555
H32_9 C35_9 1_555 1_555
C36_9 C35_9 1_555 1_555
C37_9 C36_9 1_555 1_555
C38_9 C37_9 1_555 1_555
H33_9 C38_9 1_555 1_555
C43_9 H37_9 1_555 1_555
H38_9 C43_9 1_555 1_555
H39_9 C43_9 1_555 1_555
C44_9 C43_9 1_555 1_555
C45_9 C44_9 1_555 1_555
H40_9 C45_9 1_555 1_555
C46_9 C45_9 1_555 1_555
C47_9 C46_9 1_555 1_555
C48_9 C47_9 1_555 1_555
H41_9 C48_9 1_555 1_555
C49_9 C48_9 1_555 1_555
H42_9 C49_9 1_555 1_555
C50_9 C49_9 1_555 1_555
C51_11 C50_9 1_555 1_555
H43_9 C51_11 1_555 1_555
C52_9 C47_9 1_555 1_555
H44_9 C52_9 1_555 1_555
N9_7 C30_9 1_555 1_555
N10_9 C30_9 1_555 1_555
O5_9 C34_9 1_555 1_555
O6_9 C36_9 1_555 1_555
O7_9 C44_9 1_555 1_555
O8_9 C46_9 1_555 1_555
Zn4_3 O5_9 1_555 1_555
N11_7 Zn4_3 1_555 1_555
N12_3 Zn4_3 1_555 1_555
C31_9 N10_9 1_555 1_555
C32_9 N9_7 1_555 1_555
C50_9 N10_9 1_555 1_555
C51_11 C52_9 1_555 1_555
O6_9 Zn4_3 1_555 1_555
O7_9 Zn4_3 1_555 1_555
O8_9 Zn4_3 1_555 1_555
C30_10 H26_10 1_555 1_555
C31_10 H27_10 1_555 1_555
C32_10 C31_10 1_555 1_555
H28_10 C32_10 1_555 1_555
C33_10 H29_10 1_555 1_555
H30_10 C33_10 1_555 1_555
H31_10 C33_10 1_555 1_555
C34_10 C33_10 1_555 1_555
C35_10 C34_10 1_555 1_555
H32_10 C35_10 1_555 1_555
C36_10 C35_10 1_555 1_555
C37_10 C36_10 1_555 1_555
C38_10 C37_10 1_555 1_555
H33_10 C38_10 1_555 1_555
C43_10 H37_10 1_555 1_555
H38_10 C43_10 1_555 1_555
H39_10 C43_10 1_555 1_555
C44_10 C43_10 1_555 1_555
C45_10 C44_10 1_555 1_555
H40_10 C45_10 1_555 1_555
C46_10 C45_10 1_555 1_555
C47_10 C46_10 1_555 1_555
C48_10 C47_10 1_555 1_555
H41_10 C48_10 1_555 1_555
C49_10 C48_10 1_555 1_555
H42_10 C49_10 1_555 1_555
C50_10 C49_10 1_555 1_555
C51_12 C50_10 1_555 1_555
H43_10 C51_12 1_555 1_555
C52_10 C47_10 1_555 1_555
H44_10 C52_10 1_555 1_555
N9_8 C30_10 1_555 1_555
N10_10 C30_10 1_555 1_555
O5_10 C34_10 1_555 1_555
O6_10 C36_10 1_555 1_555
O7_10 C44_10 1_555 1_555
O8_10 C46_10 1_555 1_555
Zn4_4 O5_10 1_555 1_555
N11_8 Zn4_4 1_555 1_555
N12_4 Zn4_4 1_555 1_555
C31_10 N10_10 1_555 1_555
C32_10 N9_8 1_555 1_555
C50_10 N10_10 1_555 1_555
C51_12 C52_10 1_555 1_555
O6_10 Zn4_4 1_555 1_555
O7_10 Zn4_4 1_555 1_555
O8_10 Zn4_4 1_555 1_555
C30_11 H26_11 1_555 1_555
C31_11 H27_11 1_555 1_555
C32_11 C31_11 1_555 1_555
H28_11 C32_11 1_555 1_555
H38_11 C43_11 1_555 1_555
H39_11 C43_11 1_555 1_555
C44_11 C43_11 1_555 1_555
C45_11 C44_11 1_555 1_555
H40_11 C45_11 1_555 1_555
C46_11 C45_11 1_555 1_555
C47_11 C46_11 1_555 1_555
C48_11 C47_11 1_555 1_555
H41_11 C48_11 1_555 1_555
C49_11 C48_11 1_555 1_555
H42_11 C49_11 1_555 1_555
C50_11 C49_11 1_555 1_555
C51_13 C50_11 1_555 1_555
H43_11 C51_13 1_555 1_555
C52_11 C47_11 1_555 1_555
H44_11 C52_11 1_555 1_555
N9_9 C30_11 1_555 1_555
N10_11 C30_11 1_555 1_555
O7_11 C44_11 1_555 1_555
O8_11 C46_11 1_555 1_555
Zn5_7 N9_9 1_555 1_555
C31_11 N10_11 1_555 1_555
C32_11 N9_9 1_555 1_555
C50_11 N10_11 1_555 1_555
C51_13 C52_11 1_555 1_555
C27_10 H23_10 1_555 1_555
C28_10 H24_10 1_555 1_555
C29_10 C28_10 1_555 1_555
H25_10 C29_10 1_555 1_555
C33_11 H29_11 1_555 1_555
H30_11 C33_11 1_555 1_555
H31_11 C33_11 1_555 1_555
C34_11 C33_11 1_555 1_555
C35_11 C34_11 1_555 1_555
H32_11 C35_11 1_555 1_555
C36_11 C35_11 1_555 1_555
C37_11 C36_11 1_555 1_555
C38_11 C37_11 1_555 1_555
H33_11 C38_11 1_555 1_555
C39_10 C38_11 1_555 1_555
H34_10 C39_10 1_555 1_555
C40_10 C39_10 1_555 1_555
C41_10 C40_10 1_555 1_555
H35_10 C41_10 1_555 1_555
C42_10 C37_11 1_555 1_555
H36_11 C42_10 1_555 1_555
N11_8 C27_10 1_555 1_555
N8_10 C27_10 1_555 1_555
O5_11 C34_11 1_555 1_555
O6_11 C36_11 1_555 1_555
C28_10 N8_10 1_555 1_555
C29_10 N11_8 1_555 1_555
C40_10 N8_10 1_555 1_555
C41_10 C42_10 1_555 1_555
N11_9 Zn5_5 1_555 1_555
C27_11 H23_11 1_555 1_555
C28_11 H24_11 1_555 1_555
C29_11 C28_11 1_555 1_555
H25_11 C29_11 1_555 1_555
C33_12 H29_12 1_555 1_555
H30_12 C33_12 1_555 1_555
H31_12 C33_12 1_555 1_555
C34_12 C33_12 1_555 1_555
C35_12 C34_12 1_555 1_555
H32_12 C35_12 1_555 1_555
C36_12 C35_12 1_555 1_555
C37_12 C36_12 1_555 1_555
C38_12 C37_12 1_555 1_555
H33_12 C38_12 1_555 1_555
C39_11 C38_12 1_555 1_555
H34_11 C39_11 1_555 1_555
C40_11 C39_11 1_555 1_555
C41_11 C40_11 1_555 1_555
H35_11 C41_11 1_555 1_555
C42_11 C37_12 1_555 1_555
H36_12 C42_11 1_555 1_555
N11_7 C27_11 1_555 1_555
N8_11 C27_11 1_555 1_555
O5_12 C34_12 1_555 1_555
O6_12 C36_12 1_555 1_555
Zn5_6 O5_12 1_555 1_555
N11_10 Zn5_6 1_555 1_555
C28_11 N8_11 1_555 1_555
C29_11 N11_7 1_555 1_555
C40_11 N8_11 1_555 1_555
C41_11 C42_11 1_555 1_555
O6_12 Zn5_6 1_555 1_555
C30_12 H26_12 1_555 1_555
C31_12 H27_12 1_555 1_555
C32_12 C31_12 1_555 1_555
H28_12 C32_12 1_555 1_555
H38_12 C43_12 1_555 1_555
H39_12 C43_12 1_555 1_555
C44_12 C43_12 1_555 1_555
C45_12 C44_12 1_555 1_555
H40_12 C45_12 1_555 1_555
C46_12 C45_12 1_555 1_555
C47_12 C46_12 1_555 1_555
C48_12 C47_12 1_555 1_555
H41_12 C48_12 1_555 1_555
C49_12 C48_12 1_555 1_555
H42_12 C49_12 1_555 1_555
C50_12 C49_12 1_555 1_555
C51_14 C50_12 1_555 1_555
H43_12 C51_14 1_555 1_555
C52_12 C47_12 1_555 1_555
H44_12 C52_12 1_555 1_555
N9_10 C30_12 1_555 1_555
N10_12 C30_12 1_555 1_555
O7_12 C44_12 1_555 1_555
O8_12 C46_12 1_555 1_555
Zn5_8 N9_10 1_555 1_555
C31_12 N10_12 1_555 1_555
C32_12 N9_10 1_555 1_555
C50_12 N10_12 1_555 1_555
C51_14 C52_12 1_555 1_555
C27_12 H23_12 1_555 1_555
C28_12 H24_12 1_555 1_555
C29_12 C28_12 1_555 1_555
H25_12 C29_12 1_555 1_555
C30_13 H26_13 1_555 1_555
C31_13 H27_13 1_555 1_555
C32_13 C31_13 1_555 1_555
H28_13 C32_13 1_555 1_555
C33_13 H29_13 1_555 1_555
H30_13 C33_13 1_555 1_555
H31_13 C33_13 1_555 1_555
C34_13 C33_13 1_555 1_555
C35_13 C34_13 1_555 1_555
H32_13 C35_13 1_555 1_555
C36_13 C35_13 1_555 1_555
C37_13 C36_13 1_555 1_555
C38_13 C37_13 1_555 1_555
H33_13 C38_13 1_555 1_555
C39_12 C38_13 1_555 1_555
H34_12 C39_12 1_555 1_555
C40_12 C39_12 1_555 1_555
C41_12 C40_12 1_555 1_555
H35_12 C41_12 1_555 1_555
C42_12 C37_13 1_555 1_555
H36_13 C42_12 1_555 1_555
C43_13 H37_13 1_555 1_555
H38_13 C43_13 1_555 1_555
H39_13 C43_13 1_555 1_555
C44_13 C43_13 1_555 1_555
C45_13 C44_13 1_555 1_555
H40_13 C45_13 1_555 1_555
C46_13 C45_13 1_555 1_555
C47_13 C46_13 1_555 1_555
C48_13 C47_13 1_555 1_555
H41_13 C48_13 1_555 1_555
C49_13 C48_13 1_555 1_555
H42_13 C49_13 1_555 1_555
C50_13 C49_13 1_555 1_555
C51_15 C50_13 1_555 1_555
H43_13 C51_15 1_555 1_555
C52_13 C47_13 1_555 1_555
H44_13 C52_13 1_555 1_555
N11_9 C27_12 1_555 1_555
N8_12 C27_12 1_555 1_555
N9_11 C30_13 1_555 1_555
N10_13 C30_13 1_555 1_555
O5_13 C34_13 1_555 1_555
O6_13 C36_13 1_555 1_555
O7_13 C44_13 1_555 1_555
O8_13 C46_13 1_555 1_555
Zn5_8 O5_13 1_555 1_555
N11_11 Zn5_8 1_555 1_555
Zn6_3 N9_11 1_555 1_555
C28_12 N8_12 1_555 1_555
C29_12 N11_9 1_555 1_555
C31_13 N10_13 1_555 1_555
C32_13 N9_11 1_555 1_555
C40_12 N8_12 1_555 1_555
C41_12 C42_12 1_555 1_555
C50_13 N10_13 1_555 1_555
C51_15 C52_13 1_555 1_555
O6_13 Zn5_8 1_555 1_555
O7_13 Zn5_8 1_555 1_555
O8_13 Zn5_8 1_555 1_555
C27_13 H23_13 1_555 1_555
C28_13 H24_13 1_555 1_555
C29_13 C28_13 1_555 1_555
H25_13 C29_13 1_555 1_555
C30_14 H26_14 1_555 1_555
C31_14 H27_14 1_555 1_555
C32_14 C31_14 1_555 1_555
H28_14 C32_14 1_555 1_555
C33_14 H29_14 1_555 1_555
H30_14 C33_14 1_555 1_555
H31_14 C33_14 1_555 1_555
C34_14 C33_14 1_555 1_555
C35_14 C34_14 1_555 1_555
H32_14 C35_14 1_555 1_555
C36_14 C35_14 1_555 1_555
C37_14 C36_14 1_555 1_555
C38_14 C37_14 1_555 1_555
H33_14 C38_14 1_555 1_555
C39_13 C38_14 1_555 1_555
H34_13 C39_13 1_555 1_555
C40_13 C39_13 1_555 1_555
C41_13 C40_13 1_555 1_555
H35_13 C41_13 1_555 1_555
C42_13 C37_14 1_555 1_555
H36_14 C42_13 1_555 1_555
C43_14 H37_14 1_555 1_555
H38_14 C43_14 1_555 1_555
H39_14 C43_14 1_555 1_555
C44_14 C43_14 1_555 1_555
C45_14 C44_14 1_555 1_555
H40_14 C45_14 1_555 1_555
C46_14 C45_14 1_555 1_555
C47_14 C46_14 1_555 1_555
C48_14 C47_14 1_555 1_555
H41_14 C48_14 1_555 1_555
C49_14 C48_14 1_555 1_555
H42_14 C49_14 1_555 1_555
C50_14 C49_14 1_555 1_555
C51_16 C50_14 1_555 1_555
H43_14 C51_16 1_555 1_555
C52_14 C47_14 1_555 1_555
H44_14 C52_14 1_555 1_555
N11_10 C27_13 1_555 1_555
N8_13 C27_13 1_555 1_555
N9_12 C30_14 1_555 1_555
N10_14 C30_14 1_555 1_555
O5_14 C34_14 1_555 1_555
O6_14 C36_14 1_555 1_555
O7_14 C44_14 1_555 1_555
O8_14 C46_14 1_555 1_555
Zn5_7 O5_14 1_555 1_555
N11_12 Zn5_7 1_555 1_555
C28_13 N8_13 1_555 1_555
C29_13 N11_10 1_555 1_555
C31_14 N10_14 1_555 1_555
C32_14 N9_12 1_555 1_555
C40_13 N8_13 1_555 1_555
C41_13 C42_13 1_555 1_555
C50_14 N10_14 1_555 1_555
C51_16 C52_14 1_555 1_555
O6_14 Zn5_7 1_555 1_555
O7_14 Zn5_7 1_555 1_555
O8_14 Zn5_7 1_555 1_555
C27_14 H23_14 1_555 1_555
C28_14 H24_14 1_555 1_555
C29_14 C28_14 1_555 1_555
H25_14 C29_14 1_555 1_555
C33_15 H29_15 1_555 1_555
H30_15 C33_15 1_555 1_555
H31_15 C33_15 1_555 1_555
C34_15 C33_15 1_555 1_555
C35_15 C34_15 1_555 1_555
H32_15 C35_15 1_555 1_555
C36_15 C35_15 1_555 1_555
C37_15 C36_15 1_555 1_555
C38_15 C37_15 1_555 1_555
H33_15 C38_15 1_555 1_555
C39_14 C38_15 1_555 1_555
H34_14 C39_14 1_555 1_555
C40_14 C39_14 1_555 1_555
C41_14 C40_14 1_555 1_555
H35_14 C41_14 1_555 1_555
C42_14 C37_15 1_555 1_555
H36_15 C42_14 1_555 1_555
C43_15 H37_15 1_555 1_555
H38_15 C43_15 1_555 1_555
H39_15 C43_15 1_555 1_555
C44_15 C43_15 1_555 1_555
C45_15 C44_15 1_555 1_555
H40_15 C45_15 1_555 1_555
C46_15 C45_15 1_555 1_555
C47_15 C46_15 1_555 1_555
C48_15 C47_15 1_555 1_555
H41_15 C48_15 1_555 1_555
C49_15 C48_15 1_555 1_555
H42_15 C49_15 1_555 1_555
C50_15 C49_15 1_555 1_555
C51_17 C50_15 1_555 1_555
C52_15 C47_15 1_555 1_555
H44_15 C52_15 1_555 1_555
N11_12 C27_14 1_555 1_555
N8_14 C27_14 1_555 1_555
O5_15 C34_15 1_555 1_555
O6_15 C36_15 1_555 1_555
O7_15 C44_15 1_555 1_555
O8_15 C46_15 1_555 1_555
Zn6_3 O5_15 1_555 1_555
C28_14 N8_14 1_555 1_555
C29_14 N11_12 1_555 1_555
C40_14 N8_14 1_555 1_555
C41_14 C42_14 1_555 1_555
C51_17 C52_15 1_555 1_555
O6_15 Zn6_3 1_555 1_555
O7_15 Zn6_3 1_555 1_555
O8_15 Zn6_3 1_555 1_555
C30_15 H26_15 1_555 1_555
C31_15 H27_15 1_555 1_555
C32_15 C31_15 1_555 1_555
H28_15 C32_15 1_555 1_555
H43_15 C51_18 1_555 1_555
N12_4 C30_15 1_555 1_555
N10_15 C30_15 1_555 1_555
C31_15 N10_15 1_555 1_555
C32_15 N12_4 1_555 1_555
C30_16 H26_16 1_555 1_555
C31_16 H27_16 1_555 1_555
C32_16 C31_16 1_555 1_555
H28_16 C32_16 1_555 1_555
H43_16 C51_19 1_555 1_555
N12_3 C30_16 1_555 1_555
N10_16 C30_16 1_555 1_555
C31_16 N10_16 1_555 1_555
C32_16 N12_3 1_555 1_555
C27_15 H23_15 1_555 1_555
C28_15 H24_15 1_555 1_555
C29_15 C28_15 1_555 1_555
H25_15 C29_15 1_555 1_555
C33_16 H29_16 1_555 1_555
H30_16 C33_16 1_555 1_555
H31_16 C33_16 1_555 1_555
C34_16 C33_16 1_555 1_555
C35_16 C34_16 1_555 1_555
H32_16 C35_16 1_555 1_555
C36_16 C35_16 1_555 1_555
C37_16 C36_16 1_555 1_555
C38_16 C37_16 1_555 1_555
H33_16 C38_16 1_555 1_555
C39_15 C38_16 1_555 1_555
H34_15 C39_15 1_555 1_555
C40_15 C39_15 1_555 1_555
C41_15 C40_15 1_555 1_555
H35_15 C41_15 1_555 1_555
C42_15 C37_16 1_555 1_555
H36_16 C42_15 1_555 1_555
N11_11 C27_15 1_555 1_555
N8_15 C27_15 1_555 1_555
O5_16 C34_16 1_555 1_555
O6_16 C36_16 1_555 1_555
C28_15 N8_15 1_555 1_555
C29_15 N11_11 1_555 1_555
C40_15 N8_15 1_555 1_555
C41_15 C42_15 1_555 1_555
C27_16 H23_16 1_555 1_555
C28_16 H24_16 1_555 1_555
C29_16 C28_16 1_555 1_555
H25_16 C29_16 1_555 1_555
H34_16 C39_16 1_555 1_555
C40_16 C39_16 1_555 1_555
C41_16 C40_16 1_555 1_555
H35_16 C41_16 1_555 1_555
N7_4 C27_16 1_555 1_555
N8_16 C27_16 1_555 1_555
Zn6_4 N7_4 1_555 1_555
C28_16 N8_16 1_555 1_555
C29_16 N7_4 1_555 1_555
C40_16 N8_16 1_555 1_555
C41_16 C42_16 1_555 1_555
C43_16 H37_16 1_555 1_555
H38_16 C43_16 1_555 1_555
H39_16 C43_16 1_555 1_555
C44_16 C43_16 1_555 1_555
C45_16 C44_16 1_555 1_555
H40_16 C45_16 1_555 1_555
C46_16 C45_16 1_555 1_555
C47_16 C46_16 1_555 1_555
C48_16 C47_16 1_555 1_555
H41_16 C48_16 1_555 1_555
C49_16 C48_16 1_555 1_555
H42_16 C49_16 1_555 1_555
C50_16 C49_16 1_555 1_555
C51_20 C50_16 1_555 1_555
C52_16 C47_16 1_555 1_555
H44_16 C52_16 1_555 1_555
O7_16 C44_16 1_555 1_555
O8_16 C46_16 1_555 1_555
C51_20 C52_16 1_555 1_555
O7_16 Zn6_4 1_555 1_555
O8_16 Zn6_4 1_555 1_555

#END
