
###############################################################################
#
# This file contains modified crystal structure data generated from the
# MOF subset of the Cambridge Structural Database (CSD) v543 
# hosted by the Cambridge Crystallographic Data Centre (CCDC).
#
# This work is licensed under the Creative Commons
# Attribution-NonCommercial-ShareAlike 4.0 International License.
# To view a copy of this license, visit
# http://creativecommons.org/licenses/by-nc-sa/4.0/
# or send a letter to
# Creative Commons, PO Box 1866, Mountain View, CA 94042, USA.
#
# CIF created using the CSD Python API on 29 September 2022
# The structure has been converted into the P1 space group
# The structure has a 3D framework
# The original CSD entry VIGDIY is in the trigonal crystal system
# The original CSD entry VIGDIY is in a Sohncke space group
# The framework has been calculated to contain at least 10.0% void space
# The void calculation uses a probe of radius 1.32A, grid spacing 0.4
# H atom positions have been added when not included in the experimental data
# Generated hydrogen atom positions removed from atoms on special positions
#
###############################################################################

data_VIGDIY
_chemical_formula_moiety         '(C168 H348 Mn29 N24 O138)n'
_symmetry_cell_setting           triclinic
_symmetry_space_group_name_H-M   'P 1'
_symmetry_Int_Tables_number      1
_space_group_name_Hall           'P 1'
loop_
_symmetry_equiv_pos_site_id
_symmetry_equiv_pos_as_xyz
1 x,y,z
_cell_length_a                   18.978(9)
_cell_length_b                   18.978(9)
_cell_length_c                   22.916(10)
_cell_angle_alpha                90
_cell_angle_beta                 90
_cell_angle_gamma                120
_cell_volume                     7147.77
loop_
_atom_site_label
_atom_site_type_symbol
_atom_site_fract_x
_atom_site_fract_y
_atom_site_fract_z
Mn1 Mn 0.5636(2) 0.0000 0.16667
Mn2 Mn 0.6145(2) 0.0185(1) 0.00581(9)
Mn4 Mn 0.5800(2) 0.2802(2) 0.22164(9)
O1 O 0.4761(8) 0.1633(7) 0.1859(4)
O2 O 0.5221(8) 0.2430(8) 0.3079(4)
O3 O 0.6442(8) 0.2140(8) 0.2434(4)
O4 O 0.6348(8) 0.1288(7) 0.1399(5)
O10 O 0.5202(6) 0.0450(7) 0.0324(4)
O11 O 0.6266(8) 0.2997(8) 0.1334(5)
O13 O 0.7249(9) 0.1300(9) 0.0286(6)
O20 O 0.5938(8) 0.2073(8) 0.0637(4)
O22 O 0.849(1) 0.183(1) 0.065(1)
N3 N 0.3976(8) 0.0715(8) 0.0049(5)
N4 N 0.4906(8) 0.2460(8) 0.0096(5)
C2 C 0.4634(9) 0.0139(9) 0.0679(6)
C6 C 0.592(1) 0.266(1) 0.0863(6)
C7 C 0.406(1) 0.200(1) 0.0368(6)
C8 C 0.550(1) 0.303(1) 0.0522(7)
C13 C 0.397(1) 0.030(1) 0.0615(7)
C14 C 0.787(2) 0.131(1) 0.041(1)
C18 C 0.355(1) 0.119(1) 0.0082(7)
C20 C 0.272(1) 0.076(1) 0.0336(8)
C21 C 0.283(1) 0.206(1) 0.0674(8)
C23 C 0.229(1) 0.122(1) 0.036(1)
C24 C 0.362(1) 0.248(1) 0.0380(7)
C25 C 0.792(1) 0.052(1) 0.0270(9)
H6 H 0.416 0.192 0.077
H7 H 0.591 0.349 0.031
H8 H 0.522 0.320 0.080
H15 H 0.401 0.066 0.094
H19 H 0.278 0.063 0.074
H20 H 0.241 0.027 0.012
H21 H 0.290 0.193 0.108
H22 H 0.257 0.239 0.066
H26 H 0.178 0.090 0.057
H28 H 0.395 0.298 0.059
H29 H 0.805 0.034 0.063
O25 O 0.6495(10) 0.0284(7) 0.2369(4)
O28 O 0.6176(10) 0.1099(7) 0.3332(4)
O30 O 0.5747(13) 0.1767(8) 0.3879(5)
O32 O 0.763(2) 0.141(2) 0.195(1)
N5 N 0.6343(11) 0.0284(8) 0.4233(5)
N6 N 0.7312(13) 0.0158(9) 0.3299(6)
C29 C 0.725(1) 0.079(1) 0.4257(6)
C31 C 0.725(2) 0.078(2) 0.2345(8)
C32 C 0.596(1) 0.076(1) 0.4338(6)
C33 C 0.595(1) 0.124(1) 0.3794(8)
C34 C 0.771(2) 0.084(2) 0.2912(7)
C35 C 0.762(1) 0.036(1) 0.3926(7)
C37 C 0.757(1) 0.101(1) 0.4889(6)
C40 C 0.849(1) 0.148(1) 0.4904(8)
C41 C 0.855(1) 0.084(1) 0.3951(9)
C42 C 0.881(3) 0.100(2) 0.461(1)
H37 H 0.740 0.129 0.406333
H40 H 0.540 0.040 0.445333
H41 H 0.625 0.114 0.464333
H42 H 0.779 0.131 0.312333
H43 H 0.823 0.090 0.280333
H45 H 0.738 0.052 0.511333
H46 H 0.737 0.134 0.505333
H49 H 0.868 0.159 0.530333
H50 H 0.869 0.200 0.470333
H51 H 0.876 0.052 0.376333
H52 H 0.876 0.135 0.374333
H53 H 0.940 0.130 0.463333
H54 H 0.861 0.049 0.482333
O36 O 0.4902(8) 0.0296(6) 0.2237(4)
O40 O 0.369(1) 0.002(1) 0.4757(6)
H60 H 0.367 0.021 0.269333
H67 H 0.411 0.035 0.364333
H68 H 0.320 0.014 0.376333
Mn9 Mn 0.3810(4) 0.1316(3) 0.4931(2)
O41 O 0.499(1) 0.197(1) 0.4778(7)
O42 O 0.273(3) 0.076(2) 0.518(1)
O43 O 0.381(4) 0.092(3) 0.585(2)
O44 O 0.6663(11) 0.3943(7) 0.2621(5)
O45 O 0.5071(11) 0.3321(8) 0.1943(4)
Mn11 Mn 0.8684(3) 0.2494(3) 0.1598(2)
O48 O 0.334(1) 0.151(1) 0.398(1)
O49 O 0.378(1) 0.237(2) 0.529(1)
H73 H 0.423933 0.162229 0.192883
H74 H 0.483821 0.160083 0.143325
H79 H 0.653344 0.190813 0.207259
H80 H 0.697401 0.251977 0.261649
H83 H 0.517818 0.190478 0.319188
H84 H 0.55548 0.285239 0.337172
Mn3 Mn 0.5349(2) 0.1567(2) 0.98029(9)
O9 O 0.6108(7) 0.1105(7) 0.9425(4)
O12 O 0.6057(7) 0.2720(8) 0.9288(5)
O15 O 0.4647(10) 0.1129(9) 0.8983(5)
O17 O 0.6679(8) 0.1750(7) 0.8610(4)
O18 O 0.5955(8) 0.3742(9) 0.8906(5)
C3 C 0.643(1) 0.042(1) 0.8700(6)
C10 C 0.493(1) 0.286(1) 0.9563(6)
C16 C 0.406(1) 0.049(2) 0.8989(8)
C17 C 0.571(1) 0.314(1) 0.9228(7)
C19 C 0.6411(9) 0.1147(9) 0.8929(6)
C22 C 0.364(1) 0.008(1) 0.9592(7)
H2 H 0.699 0.056 0.864
H3 H 0.614 0.026 0.834
H9 H 0.448 0.249 0.932
H10 H 0.488 0.334 0.966
H13 H 0.760 0.015 0.921
H18 H 0.346 0.127 0.968
H25 H 0.217 0.131 0.996
H27 H 0.353 0.258 0.998
H30 H 0.834 0.065 0.999
Mn10 Mn 0.7198(2) 0.2998(3) 0.88831(9)
Mn1_2 Mn 0.5636(2) 1.0000 0.16667
O8 O 0.6211(7) 0.9716(7) 0.0964(4)
O14 O 0.4606(6) 0.9704(6) 0.1096(4)
O16 O 0.5077(7) 0.8901(7) 0.0001(4)
O23 O 0.622(1) 0.859(2) 0.138(1)
N2 N 0.7154(9) 0.9842(9) 0.0034(6)
C4 C 0.647(1) 0.922(2) 0.0988(8)
C11 C 0.687(1) 0.916(2) 0.0421(7)
H11 H 0.648 0.869 0.021
H12 H 0.733 0.910 0.053
H14 H 0.346 0.979 0.064
O24 O 0.5060(11) 0.8712(7) 0.1934(5)
O26 O 0.5003(10) 0.8895(7) 0.3908(4)
O27 O 0.5949(13) 0.8700(9) 0.3047(6)
O29 O 0.4929(11) 0.8250(7) 0.4723(4)
O31 O 0.666(1) 0.817(1) 0.268(1)
C30 C 0.601(1) 0.958(1) 0.4633(6)
C36 C 0.656(2) 0.869(1) 0.292(1)
C38 C 0.5264(13) 0.8853(9) 0.4404(6)
C39 C 0.740(1) 0.948(1) 0.3063(9)
H38 H 0.643 0.944 0.469333
H39 H 0.588 0.974 0.499333
H44 H 0.745 0.985 0.412333
H47 H 0.771 0.966 0.270333
H48 H 0.769 0.935 0.334333
O33 O 0.4752(9) 0.9550(7) 0.3009(4)
O34 O 0.3269(11) 0.7003(8) 0.1999(5)
O35 O 0.3337(11) 0.7280(8) 0.4045(5)
O37 O 0.3518(13) 0.8871(9) 0.4350(5)
O38 O 0.2213(12) 0.6258(9) 0.4427(5)
O39 O 0.3865(11) 0.7927(8) 0.2696(4)
N7 N 0.3261(11) 0.9285(8) 0.3284(5)
N8 N 0.2446(11) 0.7540(8) 0.3237(5)
C43 C 0.4495(13) 0.9861(9) 0.2654(6)
C44 C 0.326(1) 0.734(1) 0.2470(6)
C45 C 0.206(1) 0.800(1) 0.2965(6)
C46 C 0.247(1) 0.697(1) 0.2811(7)
C47 C 0.207(1) 0.714(1) 0.3770(6)
C48 C 0.367(1) 0.970(1) 0.2718(7)
C49 C 0.357(2) 0.951(2) 0.4344(8)
C50 C 0.257(1) 0.686(1) 0.4105(7)
C51 C 0.236(1) 0.881(1) 0.3251(7)
C52 C 0.196(1) 0.924(1) 0.2997(8)
C53 C 0.077(1) 0.794(1) 0.2659(8)
C54 C 0.356(1) 0.992(1) 0.3741(7)
C55 C 0.107(1) 0.878(1) 0.297(1)
C56 C 0.114(1) 0.752(1) 0.2953(7)
H55 H 0.224 0.808 0.256333
H56 H 0.242 0.651 0.302333
H57 H 0.202 0.680 0.253333
H58 H 0.199 0.751 0.401333
H59 H 0.154 0.666 0.367333
H61 H 0.335 0.934 0.239333
H62 H 0.219 0.873 0.365333
H63 H 0.215 0.937 0.259333
H64 H 0.214 0.973 0.321333
H65 H 0.097 0.807 0.225333
H66 H 0.018 0.761 0.267333
H69 H 0.086 0.869 0.337333
H70 H 0.088 0.910 0.276333
H71 H 0.095 0.742 0.335333
H72 H 0.097 0.702 0.274333
Mn6 Mn 0.5960(2) 0.9815(1) 0.32752(9)
Mn7 Mn 0.3782(3) 0.8433(2) 0.35304(9)
Mn8 Mn 0.2998(3) 0.7198(2) 0.11169(9)
Mn12 Mn 0.6190(4) 0.7506(3) 0.1735(2)
Mn13 Mn 0.4200(2) 0.7002(3) 0.44503(9)
Mn5 Mn 0.2494(3) 0.8684(3) 0.8402(2)
O5 O 0.302(1) 0.803(1) 0.8555(7)
O6 O 0.197(2) 0.924(2) 0.815(1)
O7 O 0.289(3) 0.908(3) 0.748(2)
O19 O 0.398(1) 0.8233(8) 0.9454(5)
O21 O 0.367(1) 0.998(1) 0.8576(6)
N1 N 0.6059(8) 0.9716(8) 0.9100(5)
C1 C 0.646(1) 0.921(1) 0.9076(6)
C5 C 0.520(1) 0.924(1) 0.8995(6)
C9 C 0.471(1) 0.876(1) 0.9539(8)
C12 C 0.726(1) 0.964(1) 0.9407(7)
C15 C 0.656(1) 0.899(1) 0.8444(6)
C26 C 0.701(1) 0.852(1) 0.8429(8)
C27 C 0.771(1) 0.916(1) 0.9382(9)
C28 C 0.781(2) 0.900(2) 0.872(1)
H1 H 0.611 0.871 0.927
H4 H 0.500 0.960 0.888
H5 H 0.511 0.886 0.869
H16 H 0.686 0.948 0.822
H17 H 0.603 0.866 0.828
H23 H 0.376 0.965 0.969
H24 H 0.306 0.986 0.957
H31 H 0.709 0.841 0.803
H32 H 0.669 0.800 0.863
H33 H 0.824 0.948 0.957
H34 H 0.741 0.865 0.959
H35 H 0.810 0.870 0.870
H36 H 0.812 0.951 0.851
O46 O 0.183(1) 0.849(1) 0.935(1)
O47 O 0.141(2) 0.763(2) 0.805(1)
O26_2 O 0.1105(7) 0.6108(12) 0.0575(4)
O29_2 O 0.1750(7) 0.6679(13) 0.1390(4)
C30_2 C 0.042(1) 0.643(1) 0.1300(6)
C38_2 C 0.1147(9) 0.6411(16) 0.1071(6)
H38_2 H 0.056 0.699 0.136000
H39_2 H 0.026 0.614 0.166000
H44_2 H 0.015 0.760 0.079000
H48_2 H 0.065 0.834 0.001000
O35_2 O 0.2720(8) 0.6057(14) 0.0712(5)
O37_2 O 0.1129(9) 0.4647(16) 0.1017(5)
O38_2 O 0.3742(9) 0.5955(15) 0.1094(5)
C47_2 C 0.286(1) 0.493(1) 0.0437(6)
C49_2 C 0.049(2) 0.406(3) 0.1011(8)
C50_2 C 0.314(1) 0.571(1) 0.0772(7)
C54_2 C 0.008(1) 0.364(1) 0.0408(7)
H58_2 H 0.249 0.448 0.068000
H59_2 H 0.334 0.488 0.034000
H62_2 H 0.127 0.346 0.032000
H69_2 H 0.131 0.217 0.004000
H71_2 H 0.258 0.353 0.002000
Mn7_2 Mn 0.1567(2) 0.5349(4) 0.01971(9)
Mn1_3 Mn -0.0000 0.5636(2) 0.83334
Mn5_2 Mn 0.1316(3) 0.3810(4) 0.5069(2)
O5_2 O 0.197(1) 0.499(1) 0.5222(7)
O6_2 O 0.076(2) 0.273(3) 0.482(1)
O7_2 O 0.092(3) 0.381(4) 0.415(2)
O8_2 O 0.0284(7) 0.6495(10) 0.7631(4)
O14_2 O 0.0296(6) 0.4902(8) 0.7763(4)
O16_2 O 0.1099(7) 0.6176(10) 0.6668(4)
O19_2 O 0.1767(8) 0.5747(13) 0.6121(5)
O21_2 O 0.002(1) 0.369(1) 0.5243(6)
N1_2 N 0.0284(8) 0.6343(11) 0.5767(5)
N2_2 N 0.0158(9) 0.7312(13) 0.6701(6)
C1_2 C 0.079(1) 0.725(1) 0.5743(6)
C4_2 C 0.078(2) 0.725(2) 0.7655(8)
C5_2 C 0.076(1) 0.596(1) 0.5662(6)
C9_2 C 0.124(1) 0.595(1) 0.6206(8)
C11_2 C 0.084(2) 0.771(2) 0.7088(7)
C12_2 C 0.036(1) 0.762(1) 0.6074(7)
C15_2 C 0.101(1) 0.757(1) 0.5111(6)
C26_2 C 0.148(1) 0.849(1) 0.5096(8)
C27_2 C 0.084(1) 0.855(1) 0.6049(9)
C28_2 C 0.100(2) 0.881(3) 0.539(1)
H1_2 H 0.129 0.740 0.593667
H4_2 H 0.040 0.540 0.554667
H5_2 H 0.114 0.625 0.535667
H11_2 H 0.131 0.779 0.687667
H12_2 H 0.090 0.823 0.719667
H14_2 H 0.021 0.367 0.730667
H16_2 H 0.052 0.738 0.488667
H17_2 H 0.134 0.737 0.494667
H23_2 H 0.035 0.411 0.635667
H24_2 H 0.014 0.320 0.623667
H31_2 H 0.159 0.868 0.469667
H32_2 H 0.200 0.869 0.529667
H33_2 H 0.052 0.876 0.623667
H34_2 H 0.135 0.876 0.625667
H35_2 H 0.130 0.940 0.536667
H36_2 H 0.049 0.861 0.517667
O24_2 O 0.1288(7) 0.6348(13) 0.8601(5)
O27_2 O 0.1300(9) 0.7249(16) 0.9714(6)
C36_2 C 0.131(1) 0.787(2) 0.959(1)
C39_2 C 0.052(1) 0.792(1) 0.9730(9)
H47_2 H 0.034 0.805 0.937000
O33_2 O 0.0450(7) 0.5202(11) 0.9676(4)
O34_2 O 0.2997(8) 0.6266(14) 0.8666(5)
O39_2 O 0.2073(8) 0.5938(14) 0.9363(4)
N7_2 N 0.0715(8) 0.3976(14) 0.9951(5)
N8_2 N 0.2460(8) 0.4906(14) 0.9904(5)
C43_2 C 0.0139(9) 0.4634(16) 0.9321(6)
C44_2 C 0.266(1) 0.592(1) 0.9137(6)
C45_2 C 0.200(1) 0.406(1) 0.9632(6)
C46_2 C 0.303(1) 0.550(1) 0.9478(7)
C48_2 C 0.030(1) 0.397(1) 0.9385(7)
C51_2 C 0.119(1) 0.355(1) 0.9918(7)
C52_2 C 0.076(1) 0.272(1) 0.9664(8)
C53_2 C 0.206(1) 0.283(1) 0.9326(8)
C55_2 C 0.122(1) 0.229(1) 0.964(1)
C56_2 C 0.248(1) 0.362(1) 0.9620(7)
H55_2 H 0.192 0.416 0.923000
H56_2 H 0.349 0.591 0.969000
H57_2 H 0.320 0.522 0.920000
H61_2 H 0.066 0.401 0.906000
H63_2 H 0.063 0.278 0.926000
H64_2 H 0.027 0.241 0.988000
H65_2 H 0.193 0.290 0.892000
H66_2 H 0.239 0.257 0.934000
H70_2 H 0.090 0.178 0.943000
H72_2 H 0.298 0.395 0.941000
Mn6_2 Mn 0.0185(1) 0.6145(2) 0.99419(9)
Mn8_2 Mn 0.2802(2) 0.5800(4) 0.77836(9)
O46_2 O 0.151(1) 0.334(1) 0.602(1)
O47_2 O 0.237(2) 0.378(3) 0.471(1)
O30_2 O 0.8233(8) 0.3980(15) 0.0546(5)
N5_2 N 0.9716(8) 0.6059(14) 0.0900(5)
C29_2 C 0.921(1) 0.646(1) 0.0924(6)
C32_2 C 0.924(1) 0.520(1) 0.1005(6)
C33_2 C 0.876(1) 0.471(1) 0.0461(8)
C35_2 C 0.964(1) 0.726(1) 0.0593(7)
C37_2 C 0.899(1) 0.656(1) 0.1556(6)
C40_2 C 0.852(1) 0.701(1) 0.1571(8)
C41_2 C 0.916(1) 0.771(1) 0.0618(9)
C42_2 C 0.900(2) 0.781(4) 0.128(1)
H37_2 H 0.871 0.611 0.073000
H40_2 H 0.960 0.500 0.112000
H41_2 H 0.886 0.511 0.131000
H45_2 H 0.948 0.686 0.178000
H46_2 H 0.866 0.603 0.172000
H49_2 H 0.841 0.709 0.197000
H50_2 H 0.800 0.669 0.137000
H51_2 H 0.948 0.824 0.043000
H52_2 H 0.865 0.741 0.041000
H53_2 H 0.870 0.810 0.130000
H54_2 H 0.951 0.812 0.149000
O40_2 O 0.998(1) 0.367(1) 0.1424(6)
H67_2 H 0.965 0.376 0.031000
H68_2 H 0.986 0.306 0.043000
O41_2 O 0.803(1) 0.302(1) 0.1445(7)
O42_2 O 0.924(2) 0.197(4) 0.185(1)
O43_2 O 0.908(3) 0.289(5) 0.252(2)
H84_2 H 0.714761 0.270241 0.00383893
Mn1_4 Mn 1.0000 0.5636(2) 0.83334
Mn2_2 Mn 0.9815(1) 0.5960(2) 0.67248(9)
Mn3_2 Mn 0.8433(2) 0.3782(3) 0.64696(9)
O1_2 O 0.8367(7) 0.3128(11) 0.8526(4)
O2_2 O 0.7570(8) 0.2791(11) 0.9746(4)
O3_2 O 0.7860(8) 0.4302(11) 0.9101(4)
O4_2 O 0.8712(7) 0.5060(11) 0.8066(5)
O9_2 O 0.8895(7) 0.5003(10) 0.6092(4)
O10_2 O 0.9550(7) 0.4752(9) 0.6991(4)
O11_2 O 0.7003(8) 0.3269(11) 0.8001(5)
O12_2 O 0.7280(8) 0.3337(11) 0.5955(5)
O13_2 O 0.8700(9) 0.5949(13) 0.6953(6)
O15_2 O 0.8871(9) 0.3518(13) 0.5650(5)
O17_2 O 0.8250(7) 0.4929(11) 0.5277(4)
O18_2 O 0.6258(9) 0.2213(12) 0.5573(5)
O20_2 O 0.7927(8) 0.3865(11) 0.7304(4)
O22_2 O 0.817(1) 0.666(1) 0.732(1)
N3_2 N 0.9285(8) 0.3261(11) 0.6716(5)
N4_2 N 0.7540(8) 0.2446(11) 0.6763(5)
C2_2 C 0.9861(9) 0.4495(13) 0.7346(6)
C3_2 C 0.958(1) 0.601(1) 0.5367(6)
C6_2 C 0.734(1) 0.326(1) 0.7530(6)
C7_2 C 0.800(1) 0.206(1) 0.7035(6)
C8_2 C 0.697(1) 0.247(1) 0.7189(7)
C10_2 C 0.714(1) 0.207(1) 0.6230(6)
C13_2 C 0.970(1) 0.367(1) 0.7282(7)
C14_2 C 0.869(1) 0.656(2) 0.708(1)
C16_2 C 0.951(2) 0.357(2) 0.5656(8)
C17_2 C 0.686(1) 0.257(1) 0.5895(7)
C18_2 C 0.881(1) 0.236(1) 0.6749(7)
C19_2 C 0.8853(9) 0.5264(13) 0.5596(6)
C20_2 C 0.924(1) 0.196(1) 0.7003(8)
C21_2 C 0.794(1) 0.077(1) 0.7341(8)
C22_2 C 0.992(1) 0.356(1) 0.6259(7)
C23_2 C 0.878(1) 0.107(1) 0.703(1)
C24_2 C 0.752(1) 0.114(1) 0.7047(7)
C25_2 C 0.948(1) 0.740(1) 0.6937(9)
H2_2 H 0.944 0.643 0.530667
H3_2 H 0.974 0.588 0.500667
H6_2 H 0.808 0.224 0.743667
H7_2 H 0.651 0.242 0.697667
H8_2 H 0.680 0.202 0.746667
H9_2 H 0.751 0.199 0.598667
H10_2 H 0.666 0.154 0.632667
H13_2 H 0.985 0.745 0.587667
H15_2 H 0.934 0.335 0.760667
H18_2 H 0.873 0.219 0.634667
H19_2 H 0.937 0.215 0.740667
H20_2 H 0.973 0.214 0.678667
H21_2 H 0.807 0.097 0.774667
H22_2 H 0.761 0.018 0.732667
H25_2 H 0.869 0.086 0.662667
H26_2 H 0.910 0.088 0.723667
H27_2 H 0.742 0.095 0.664667
H28_2 H 0.702 0.097 0.725667
H29_2 H 0.966 0.771 0.729667
H30_2 H 0.935 0.769 0.665667
O25_2 O 0.9716(7) 0.6211(12) 0.9036(4)
O28_2 O 0.8901(7) 0.5077(12) 0.9999(4)
O32_2 O 0.859(2) 0.622(3) 0.862(1)
N6_2 N 0.9842(9) 0.7154(16) 0.9966(6)
C31_2 C 0.922(2) 0.647(3) 0.9012(8)
C34_2 C 0.916(2) 0.687(3) 0.9579(7)
H42_2 H 0.869 0.648 0.979000
H43_2 H 0.910 0.733 0.947000
O36_2 O 0.9704(6) 0.4606(10) 0.8904(4)
H60_2 H 0.979 0.346 0.936000
Mn10_2 Mn 0.7002(3) 0.4200(4) 0.55497(9)
Mn11_2 Mn 0.7506(3) 0.6190(4) 0.8265(2)
H73_2 H 0.837771 0.261704 0.859549
H74_2 H 0.839917 0.323738 0.809991
H79_2 H 0.809187 0.462531 0.873925
H80_2 H 0.748023 0.445424 0.928316
H83_2 H 0.809522 0.32734 0.985855
Mn1_5 Mn 0.4364(2) 0.4364(2) 0.50000
Mn2_3 Mn 0.4040(2) 0.3855(2) 0.33914(9)
Mn3_3 Mn 0.6218(3) 0.4651(2) 0.31362(9)
O1_3 O 0.6872(11) 0.5239(8) 0.5192(4)
O2_3 O 0.7209(11) 0.4779(8) 0.6412(4)
O3_3 O 0.5698(11) 0.3558(8) 0.5767(4)
O4_3 O 0.4940(11) 0.3652(8) 0.4732(5)
O5_3 O 0.501(1) 0.698(1) 0.1888(7)
O6_3 O 0.727(3) 0.803(2) 0.148(1)
O7_3 O 0.619(4) 0.711(3) 0.081(2)
O8_3 O 0.3505(10) 0.3789(7) 0.4297(4)
O9_3 O 0.4997(10) 0.3892(7) 0.2758(4)
O10_3 O 0.5248(9) 0.4798(6) 0.3657(4)
O11_3 O 0.6731(11) 0.3734(8) 0.4667(5)
O13_3 O 0.4051(13) 0.2751(9) 0.3619(6)
O14_3 O 0.5098(8) 0.5394(6) 0.4429(4)
O15_3 O 0.6482(13) 0.5353(10) 0.2316(5)
O16_3 O 0.3824(10) 0.4923(7) 0.3334(4)
O18_3 O 0.7787(12) 0.4045(8) 0.2239(5)
O19_3 O 0.4253(13) 0.602(1) 0.2787(5)
O20_3 O 0.6135(11) 0.4062(8) 0.3970(4)
O21_3 O 0.631(1) 0.633(1) 0.1909(6)
N1_3 N 0.3657(11) 0.3941(8) 0.2433(5)
N2_3 N 0.2688(13) 0.2846(9) 0.3367(6)
N3_3 N 0.6739(11) 0.6024(8) 0.3382(5)
N4_3 N 0.7554(11) 0.5094(8) 0.3429(5)
C1_3 C 0.275(1) 0.354(1) 0.2409(6)
C2_3 C 0.5505(13) 0.5366(9) 0.4012(6)
C3_3 C 0.399(1) 0.357(1) 0.2033(6)
C4_3 C 0.275(2) 0.353(1) 0.4321(8)
C5_3 C 0.404(1) 0.480(1) 0.2328(6)
C6_3 C 0.674(1) 0.408(1) 0.4196(6)
C7_3 C 0.794(1) 0.594(1) 0.3701(6)
C8_3 C 0.753(1) 0.450(1) 0.3855(7)
C9_3 C 0.405(1) 0.529(1) 0.2872(8)
C10_3 C 0.793(1) 0.507(1) 0.2896(6)
C11_3 C 0.229(2) 0.313(1) 0.3754(7)
C12_3 C 0.238(1) 0.274(1) 0.2740(7)
C13_3 C 0.633(1) 0.603(1) 0.3948(7)
C14_3 C 0.344(2) 0.213(2) 0.374(1)
C15_3 C 0.243(1) 0.344(1) 0.1777(6)
C16_3 C 0.643(2) 0.594(1) 0.2322(8)
C17_3 C 0.743(1) 0.429(1) 0.2561(7)
C18_3 C 0.764(1) 0.645(1) 0.3415(7)
C19_3 C 0.4736(13) 0.3589(9) 0.2262(6)
C20_3 C 0.804(1) 0.728(1) 0.3669(8)
C21_3 C 0.923(1) 0.717(1) 0.4007(8)
C22_3 C 0.644(1) 0.636(1) 0.2925(7)
C23_3 C 0.893(1) 0.771(1) 0.369(1)
C24_3 C 0.886(1) 0.638(1) 0.3713(7)
C25_3 C 0.260(1) 0.208(1) 0.3603(9)
C26_3 C 0.151(1) 0.299(1) 0.1762(8)
C27_3 C 0.145(1) 0.229(1) 0.2715(9)
C28_3 C 0.119(3) 0.219(2) 0.205(1)
H1_3 H 0.260 0.389 0.260333
H2_3 H 0.357 0.301 0.197333
H3_3 H 0.412 0.386 0.167333
H4_3 H 0.460 0.500 0.221333
H5_3 H 0.375 0.489 0.202333
H6_3 H 0.776 0.584 0.410333
H7_3 H 0.758 0.409 0.364333
H8_3 H 0.798 0.478 0.413333
H9_3 H 0.801 0.552 0.265333
H10_3 H 0.846 0.512 0.299333
H11_3 H 0.221 0.352 0.354333
H12_3 H 0.177 0.267 0.386333
H13_3 H 0.255 0.240 0.254333
H14_3 H 0.633 0.654 0.397333
H15_3 H 0.665 0.599 0.427333
H16_3 H 0.262 0.314 0.155333
H17_3 H 0.263 0.397 0.161333
H18_3 H 0.781 0.654 0.301333
H19_3 H 0.785 0.722 0.407333
H20_3 H 0.786 0.759 0.345333
H21_3 H 0.903 0.710 0.441333
H22_3 H 0.982 0.743 0.399333
H23_3 H 0.589 0.624 0.302333
H24_3 H 0.680 0.694 0.290333
H25_3 H 0.914 0.783 0.329333
H26_3 H 0.912 0.822 0.390333
H27_3 H 0.905 0.647 0.331333
H28_3 H 0.903 0.605 0.392333
H29_3 H 0.229 0.195 0.396333
H30_3 H 0.231 0.166 0.332333
H31_3 H 0.132 0.291 0.136333
H32_3 H 0.131 0.331 0.196333
H33_3 H 0.124 0.176 0.290333
H34_3 H 0.124 0.259 0.292333
H35_3 H 0.060 0.190 0.203333
H36_3 H 0.139 0.188 0.184333
O24_3 O 0.3652(13) 0.4940(11) 0.5268(5)
O25_3 O 0.3789(12) 0.3505(10) 0.5703(4)
O26_3 O 0.3892(12) 0.4997(10) 0.7242(4)
O27_3 O 0.2751(16) 0.4051(13) 0.6381(6)
O28_3 O 0.4923(12) 0.3824(10) 0.6666(4)
O29_3 O 0.3321(13) 0.5071(11) 0.8057(4)
O30_3 O 0.6020(15) 0.4253(13) 0.7213(5)
N5_3 N 0.3941(14) 0.3657(11) 0.7567(5)
N6_3 N 0.2846(16) 0.2688(13) 0.6633(6)
C29_3 C 0.354(1) 0.275(1) 0.7591(6)
C30_3 C 0.357(1) 0.399(1) 0.7967(6)
C31_3 C 0.353(3) 0.275(2) 0.5679(8)
C32_3 C 0.480(1) 0.404(1) 0.7672(6)
C33_3 C 0.529(1) 0.405(1) 0.7128(8)
C34_3 C 0.313(3) 0.229(2) 0.6246(7)
C35_3 C 0.274(1) 0.238(1) 0.7260(7)
C36_3 C 0.213(2) 0.344(2) 0.626(1)
C37_3 C 0.344(1) 0.243(1) 0.8223(6)
C38_3 C 0.3589(16) 0.4736(13) 0.7738(6)
C39_3 C 0.208(1) 0.260(1) 0.6397(9)
C40_3 C 0.299(1) 0.151(1) 0.8238(8)
C41_3 C 0.229(1) 0.145(1) 0.7285(9)
C42_3 C 0.219(4) 0.119(3) 0.795(1)
H37_3 H 0.389 0.260 0.739667
H38_3 H 0.301 0.357 0.802667
H39_3 H 0.386 0.412 0.832667
H40_3 H 0.500 0.460 0.778667
H41_3 H 0.489 0.375 0.797667
H42_3 H 0.352 0.221 0.645667
H43_3 H 0.267 0.177 0.613667
H44_3 H 0.240 0.255 0.745667
H45_3 H 0.314 0.262 0.844667
H46_3 H 0.397 0.263 0.838667
H47_3 H 0.195 0.229 0.603667
H48_3 H 0.166 0.231 0.667667
H49_3 H 0.291 0.132 0.863667
H50_3 H 0.331 0.131 0.803667
H51_3 H 0.176 0.124 0.709667
H52_3 H 0.259 0.124 0.707667
H53_3 H 0.190 0.060 0.796667
H54_3 H 0.188 0.139 0.815667
O33_3 O 0.4798(11) 0.5248(9) 0.6343(4)
O34_3 O 0.3734(14) 0.6731(11) 0.5333(5)
O35_3 O 0.3943(14) 0.6663(11) 0.7379(5)
O36_3 O 0.5394(10) 0.5098(8) 0.5571(4)
O37_3 O 0.5353(16) 0.6482(13) 0.7684(5)
O38_3 O 0.4045(15) 0.7787(12) 0.7761(5)
O39_3 O 0.4062(14) 0.6135(11) 0.6030(4)
O40_3 O 0.633(1) 0.631(1) 0.8091(6)
N7_3 N 0.6024(14) 0.6739(11) 0.6618(5)
N8_3 N 0.5094(14) 0.7554(11) 0.6571(5)
C43_3 C 0.5366(16) 0.5505(13) 0.5988(6)
C44_3 C 0.408(1) 0.674(1) 0.5804(6)
C45_3 C 0.594(1) 0.794(1) 0.6299(6)
C46_3 C 0.450(1) 0.753(1) 0.6145(7)
C47_3 C 0.507(1) 0.793(1) 0.7104(6)
C48_3 C 0.603(1) 0.633(1) 0.6052(7)
C49_3 C 0.594(3) 0.643(2) 0.7678(8)
C50_3 C 0.429(1) 0.743(1) 0.7439(7)
C51_3 C 0.645(1) 0.764(1) 0.6585(7)
C52_3 C 0.728(1) 0.804(1) 0.6331(8)
C53_3 C 0.717(1) 0.923(1) 0.5993(8)
C54_3 C 0.636(1) 0.644(1) 0.7075(7)
C55_3 C 0.771(1) 0.893(1) 0.631(1)
C56_3 C 0.638(1) 0.886(1) 0.6287(7)
H55_3 H 0.584 0.776 0.589667
H56_3 H 0.409 0.758 0.635667
H57_3 H 0.478 0.798 0.586667
H58_3 H 0.552 0.801 0.734667
H59_3 H 0.512 0.846 0.700667
H60_3 H 0.654 0.633 0.602667
H61_3 H 0.599 0.665 0.572667
H62_3 H 0.654 0.781 0.698667
H63_3 H 0.722 0.785 0.592667
H64_3 H 0.759 0.786 0.654667
H65_3 H 0.710 0.903 0.558667
H66_3 H 0.743 0.982 0.600667
H67_3 H 0.624 0.589 0.697667
H68_3 H 0.694 0.680 0.709667
H69_3 H 0.783 0.914 0.670667
H70_3 H 0.822 0.912 0.609667
H71_3 H 0.647 0.905 0.668667
H72_3 H 0.605 0.903 0.607667
Mn6_3 Mn 0.3855(2) 0.4040(2) 0.66086(9)
Mn7_3 Mn 0.4651(4) 0.6218(3) 0.68638(9)
O41_3 O 0.698(1) 0.501(1) 0.8112(7)
O42_3 O 0.803(4) 0.727(3) 0.852(1)
O43_3 O 0.711(5) 0.619(4) 0.919(2)
H73_3 H 0.738296 0.576067 0.526216
H74_3 H 0.676262 0.516179 0.476658
H79_3 H 0.537469 0.346656 0.540592
H80_3 H 0.554576 0.302599 0.594983
H83_3 H 0.67266 0.482182 0.652521
H84_3 H 0.729759 0.44452 0.670506
O1_4 O 0.1633(7) 0.4761(8) 0.8141(4)
O2_4 O 0.2430(8) 0.5221(8) 0.6921(4)
O3_4 O 0.2140(8) 0.6442(8) 0.7566(4)
H73_4 H 0.162229 0.423933 0.807117
H74_4 H 0.160083 0.483821 0.856675
H79_4 H 0.190813 0.653344 0.792741
H80_4 H 0.251977 0.697401 0.738351
H83_4 H 0.190478 0.517818 0.680812
H84_4 H 0.285239 0.55548 0.662828
O1_5 O 0.3128(11) 0.8367(7) 0.1474(4)
O2_5 O 0.2791(11) 0.7570(8) 0.0254(4)
O3_5 O 0.4302(11) 0.7860(8) 0.0899(4)
H73_5 H 0.261704 0.837771 0.140451
H74_5 H 0.323738 0.839917 0.190009
H79_5 H 0.462531 0.809187 0.126075
H80_5 H 0.445424 0.748023 0.0716842
H83_5 H 0.32734 0.809522 0.0141452
H84_5 H 0.270241 0.714761 0.996161
O1_6 O 0.5239(8) 0.6872(11) 0.4808(4)
O2_6 O 0.4779(8) 0.7209(11) 0.3588(4)
O3_6 O 0.3558(8) 0.5698(11) 0.4233(4)
H73_6 H 0.576067 0.738296 0.473784
H74_6 H 0.516179 0.676262 0.523342
H79_6 H 0.346656 0.537469 0.459408
H80_6 H 0.302599 0.554576 0.405017
H83_6 H 0.482182 0.67266 0.347479
H84_6 H 0.44452 0.729759 0.329494
loop_
_geom_bond_atom_site_label_1
_geom_bond_atom_site_label_2
_geom_bond_site_symmetry_1
_geom_bond_site_symmetry_2
Mn1 O4 1_555 1_555
Mn4 O1 1_555 1_555
O2 Mn4 1_555 1_555
O3 Mn4 1_555 1_555
O10 Mn2 1_555 1_555
O11 Mn4 1_555 1_555
O13 Mn2 1_555 1_555
O22 C14 1_555 1_555
C2 O10 1_555 1_555
C6 O11 1_555 1_555
C7 N4 1_555 1_555
C8 N4 1_555 1_555
C13 N3 1_555 1_555
C14 O13 1_555 1_555
C18 N3 1_555 1_555
C20 C18 1_555 1_555
C21 C23 1_555 1_555
C23 C20 1_555 1_555
C24 C7 1_555 1_555
H6 C7 1_555 1_555
H7 C8 1_555 1_555
H8 C8 1_555 1_555
H15 C13 1_555 1_555
H19 C20 1_555 1_555
H20 C20 1_555 1_555
H21 C21 1_555 1_555
H22 C21 1_555 1_555
H26 C23 1_555 1_555
H28 C24 1_555 1_555
H29 C25 1_555 1_555
O25 Mn1 1_555 1_555
O28 C33 1_555 1_555
O30 C33 1_555 1_555
O32 C31 1_555 1_555
N5 C29 1_555 1_555
N6 C34 1_555 1_555
C29 C35 1_555 1_555
C31 O25 1_555 1_555
C32 N5 1_555 1_555
C33 C32 1_555 1_555
C34 C31 1_555 1_555
C35 N6 1_555 1_555
C37 C29 1_555 1_555
C40 C37 1_555 1_555
C41 C35 1_555 1_555
C42 C40 1_555 1_555
H37 C29 1_555 1_555
H40 C32 1_555 1_555
H41 C32 1_555 1_555
H42 C34 1_555 1_555
H43 C34 1_555 1_555
H45 C37 1_555 1_555
H46 C37 1_555 1_555
H49 C40 1_555 1_555
H50 C40 1_555 1_555
H51 C41 1_555 1_555
H52 C41 1_555 1_555
H53 C42 1_555 1_555
H54 C42 1_555 1_555
O36 Mn1 1_555 1_555
Mn9 O40 1_555 1_555
O41 Mn9 1_555 1_555
O42 Mn9 1_555 1_555
O43 Mn9 1_555 1_555
O44 Mn4 1_555 1_555
O45 Mn4 1_555 1_555
Mn11 O22 1_555 1_555
O48 Mn9 1_555 1_555
O49 Mn9 1_555 1_555
O20 C6 1_555 1_555
C2 C13 1_555 1_555
C6 C8 1_555 1_555
C7 C18 1_555 1_555
C14 C25 1_555 1_555
C21 C24 1_555 1_555
O32 Mn11 1_555 1_555
C41 C42 1_555 1_555
O1 H73 1_555 1_555
O1 H74 1_555 1_555
O3 H79 1_555 1_555
O3 H80 1_555 1_555
O2 H83 1_555 1_555
O2 H84 1_555 1_555
Mn3 O9 1_555 1_555
O12 Mn3 1_555 1_555
O15 Mn3 1_555 1_555
O17 C19 1_555 1_555
O18 C17 1_555 1_555
C16 O15 1_555 1_555
C17 O12 1_555 1_555
C19 O9 1_555 1_555
H2 C3 1_555 1_555
H3 C3 1_555 1_555
H9 C10 1_555 1_555
H10 C10 1_555 1_555
Mn10 O12 1_555 1_555
O17 Mn10 1_555 1_555
C3 C19 1_555 1_555
C10 C17 1_555 1_555
C16 C22 1_555 1_555
O8 Mn1_2 1_555 1_555
O14 Mn1_2 1_555 1_555
O23 C4 1_555 1_555
C4 O8 1_555 1_555
C11 N2 1_555 1_555
H11 C11 1_555 1_555
H12 C11 1_555 1_555
O24 Mn1_2 1_555 1_555
O26 C38 1_555 1_555
O27 C36 1_555 1_555
O29 C38 1_555 1_555
O31 C36 1_555 1_555
C36 C39 1_555 1_555
C38 C30 1_555 1_555
H38 C30 1_555 1_555
H39 C30 1_555 1_555
H47 C39 1_555 1_555
H48 C39 1_555 1_555
O33 C43 1_555 1_555
O34 C44 1_555 1_555
O35 C50 1_555 1_555
O37 C49 1_555 1_555
O38 C50 1_555 1_555
O39 C44 1_555 1_555
N7 C48 1_555 1_555
N8 C45 1_555 1_555
C44 C46 1_555 1_555
C45 C51 1_555 1_555
C46 N8 1_555 1_555
C47 N8 1_555 1_555
C48 C43 1_555 1_555
C49 C54 1_555 1_555
C50 C47 1_555 1_555
C51 N7 1_555 1_555
C52 C51 1_555 1_555
C53 C55 1_555 1_555
C54 N7 1_555 1_555
C55 C52 1_555 1_555
C56 C45 1_555 1_555
H55 C45 1_555 1_555
H56 C46 1_555 1_555
H57 C46 1_555 1_555
H58 C47 1_555 1_555
H59 C47 1_555 1_555
H61 C48 1_555 1_555
H62 C51 1_555 1_555
H63 C52 1_555 1_555
H64 C52 1_555 1_555
H65 C53 1_555 1_555
H66 C53 1_555 1_555
H69 C55 1_555 1_555
H70 C55 1_555 1_555
H71 C56 1_555 1_555
H72 C56 1_555 1_555
Mn7 O26 1_555 1_555
Mn8 O34 1_555 1_555
Mn12 O23 1_555 1_555
Mn13 O29 1_555 1_555
C4 C11 1_555 1_555
O26 Mn6 1_555 1_555
O27 Mn6 1_555 1_555
O31 Mn12 1_555 1_555
O33 Mn6 1_555 1_555
O33 Mn7 1_555 1_555
O35 Mn7 1_555 1_555
O35 Mn13 1_555 1_555
O37 Mn7 1_555 1_555
O39 Mn7 1_555 1_555
N7 Mn7 1_555 1_555
N8 Mn7 1_555 1_555
C53 C56 1_555 1_555
Mn5 O5 1_555 1_555
O6 Mn5 1_555 1_555
O7 Mn5 1_555 1_555
O19 C9 1_555 1_555
O21 Mn5 1_555 1_555
C1 N1 1_555 1_555
C5 N1 1_555 1_555
C15 C1 1_555 1_555
C26 C15 1_555 1_555
C27 C12 1_555 1_555
C28 C26 1_555 1_555
H1 C1 1_555 1_555
H4 C5 1_555 1_555
H5 C5 1_555 1_555
H16 C15 1_555 1_555
H17 C15 1_555 1_555
H31 C26 1_555 1_555
H32 C26 1_555 1_555
H33 C27 1_555 1_555
H34 C27 1_555 1_555
H35 C28 1_555 1_555
H36 C28 1_555 1_555
O46 Mn5 1_555 1_555
O47 Mn5 1_555 1_555
C1 C12 1_555 1_555
C5 C9 1_555 1_555
C27 C28 1_555 1_555
O26_2 C38_2 1_555 1_555
O29_2 C38_2 1_555 1_555
C38_2 C30_2 1_555 1_555
H38_2 C30_2 1_555 1_555
H39_2 C30_2 1_555 1_555
O35_2 C50_2 1_555 1_555
O37_2 C49_2 1_555 1_555
O38_2 C50_2 1_555 1_555
C49_2 C54_2 1_555 1_555
C50_2 C47_2 1_555 1_555
H58_2 C47_2 1_555 1_555
H59_2 C47_2 1_555 1_555
Mn7_2 O26_2 1_555 1_555
Mn8 O29_2 1_555 1_555
O35_2 Mn7_2 1_555 1_555
O35_2 Mn8 1_555 1_555
O37_2 Mn7_2 1_555 1_555
Mn5_2 O5_2 1_555 1_555
O6_2 Mn5_2 1_555 1_555
O7_2 Mn5_2 1_555 1_555
O8_2 Mn1_3 1_555 1_555
O14_2 Mn1_3 1_555 1_555
O19_2 C9_2 1_555 1_555
O21_2 Mn5_2 1_555 1_555
O47 C4_2 1_555 1_555
C1_2 N1_2 1_555 1_555
C4_2 O8_2 1_555 1_555
C5_2 N1_2 1_555 1_555
C9_2 O16_2 1_555 1_555
C11_2 N2_2 1_555 1_555
C12_2 N2_2 1_555 1_555
C15_2 C1_2 1_555 1_555
C26_2 C15_2 1_555 1_555
C27_2 C12_2 1_555 1_555
C28_2 C26_2 1_555 1_555
H1_2 C1_2 1_555 1_555
H4_2 C5_2 1_555 1_555
H5_2 C5_2 1_555 1_555
H11_2 C11_2 1_555 1_555
H12_2 C11_2 1_555 1_555
H16_2 C15_2 1_555 1_555
H17_2 C15_2 1_555 1_555
H31_2 C26_2 1_555 1_555
H32_2 C26_2 1_555 1_555
H33_2 C27_2 1_555 1_555
H34_2 C27_2 1_555 1_555
H35_2 C28_2 1_555 1_555
H36_2 C28_2 1_555 1_555
O24_2 Mn1_3 1_555 1_555
O27_2 C36_2 1_555 1_555
O46 C36_2 1_555 1_555
C36_2 C39_2 1_555 1_555
H47_2 C39_2 1_555 1_555
O33_2 C43_2 1_555 1_555
O34_2 C44_2 1_555 1_555
O39_2 C44_2 1_555 1_555
N7_2 C48_2 1_555 1_555
N8_2 C45_2 1_555 1_555
C44_2 C46_2 1_555 1_555
C45_2 C51_2 1_555 1_555
C46_2 N8_2 1_555 1_555
C48_2 C43_2 1_555 1_555
C51_2 N7_2 1_555 1_555
C52_2 C51_2 1_555 1_555
C53_2 C55_2 1_555 1_555
C55_2 C52_2 1_555 1_555
C56_2 C45_2 1_555 1_555
H55_2 C45_2 1_555 1_555
H56_2 C46_2 1_555 1_555
H57_2 C46_2 1_555 1_555
H61_2 C48_2 1_555 1_555
H63_2 C52_2 1_555 1_555
H64_2 C52_2 1_555 1_555
H65_2 C53_2 1_555 1_555
H66_2 C53_2 1_555 1_555
H70_2 C55_2 1_555 1_555
H72_2 C56_2 1_555 1_555
Mn8_2 O34_2 1_555 1_555
O46_2 Mn5_2 1_555 1_555
O47_2 Mn5_2 1_555 1_555
C1_2 C12_2 1_555 1_555
C4_2 C11_2 1_555 1_555
C5_2 C9_2 1_555 1_555
C27_2 C28_2 1_555 1_555
O27_2 Mn6_2 1_555 1_555
O33_2 Mn6_2 1_555 1_555
C53_2 C56_2 1_555 1_555
O30_2 C33_2 1_555 1_555
N5_2 C29_2 1_555 1_555
C29_2 C35_2 1_555 1_555
C32_2 N5_2 1_555 1_555
C33_2 C32_2 1_555 1_555
C37_2 C29_2 1_555 1_555
C40_2 C37_2 1_555 1_555
C41_2 C35_2 1_555 1_555
C42_2 C40_2 1_555 1_555
H37_2 C29_2 1_555 1_555
H40_2 C32_2 1_555 1_555
H41_2 C32_2 1_555 1_555
H45_2 C37_2 1_555 1_555
H46_2 C37_2 1_555 1_555
H49_2 C40_2 1_555 1_555
H50_2 C40_2 1_555 1_555
H51_2 C41_2 1_555 1_555
H52_2 C41_2 1_555 1_555
H53_2 C42_2 1_555 1_555
H54_2 C42_2 1_555 1_555
Mn11 O40_2 1_555 1_555
O41_2 Mn11 1_555 1_555
O42_2 Mn11 1_555 1_555
O43_2 Mn11 1_555 1_555
C41_2 C42_2 1_555 1_555
Mn1_4 O4_2 1_555 1_555
Mn3_2 O9_2 1_555 1_555
Mn10 O1_2 1_555 1_555
O2_2 Mn10 1_555 1_555
O3_2 Mn10 1_555 1_555
O9_2 Mn2_2 1_555 1_555
O10_2 Mn2_2 1_555 1_555
O11_2 Mn10 1_555 1_555
O12_2 Mn3_2 1_555 1_555
O13_2 Mn2_2 1_555 1_555
O15_2 Mn3_2 1_555 1_555
O17_2 C19_2 1_555 1_555
O18_2 C17_2 1_555 1_555
O20_2 Mn3_2 1_555 1_555
O22_2 C14_2 1_555 1_555
N3_2 Mn3_2 1_555 1_555
N4_2 Mn3_2 1_555 1_555
C2_2 O10_2 1_555 1_555
C6_2 O11_2 1_555 1_555
C7_2 N4_2 1_555 1_555
C8_2 N4_2 1_555 1_555
C10_2 N4_2 1_555 1_555
C13_2 N3_2 1_555 1_555
C14_2 O13_2 1_555 1_555
C16_2 O15_2 1_555 1_555
C17_2 O12_2 1_555 1_555
C18_2 N3_2 1_555 1_555
C19_2 O9_2 1_555 1_555
C20_2 C18_2 1_555 1_555
C21_2 C23_2 1_555 1_555
C22_2 N3_2 1_555 1_555
C23_2 C20_2 1_555 1_555
C24_2 C7_2 1_555 1_555
H2_2 C3_2 1_555 1_555
H3_2 C3_2 1_555 1_555
H6_2 C7_2 1_555 1_555
H7_2 C8_2 1_555 1_555
H8_2 C8_2 1_555 1_555
H9_2 C10_2 1_555 1_555
H10_2 C10_2 1_555 1_555
H15_2 C13_2 1_555 1_555
H18_2 C18_2 1_555 1_555
H19_2 C20_2 1_555 1_555
H20_2 C20_2 1_555 1_555
H21_2 C21_2 1_555 1_555
H22_2 C21_2 1_555 1_555
H25_2 C23_2 1_555 1_555
H26_2 C23_2 1_555 1_555
H27_2 C24_2 1_555 1_555
H28_2 C24_2 1_555 1_555
H29_2 C25_2 1_555 1_555
H30_2 C25_2 1_555 1_555
O25_2 Mn1_4 1_555 1_555
O32_2 C31_2 1_555 1_555
N6_2 C34_2 1_555 1_555
C31_2 O25_2 1_555 1_555
C34_2 C31_2 1_555 1_555
H42_2 C34_2 1_555 1_555
H43_2 C34_2 1_555 1_555
O36_2 Mn1_4 1_555 1_555
Mn10_2 O12_2 1_555 1_555
Mn11_2 O22_2 1_555 1_555
Mn3_2 O10_2 1_555 1_555
O17_2 Mn10_2 1_555 1_555
O20_2 C6_2 1_555 1_555
C2_2 C13_2 1_555 1_555
C3_2 C19_2 1_555 1_555
C6_2 C8_2 1_555 1_555
C7_2 C18_2 1_555 1_555
C10_2 C17_2 1_555 1_555
C14_2 C25_2 1_555 1_555
C16_2 C22_2 1_555 1_555
C21_2 C24_2 1_555 1_555
O32_2 Mn11_2 1_555 1_555
O1_2 H73_2 1_555 1_555
O1_2 H74_2 1_555 1_555
O3_2 H79_2 1_555 1_555
O3_2 H80_2 1_555 1_555
O2_2 H83_2 1_555 1_555
Mn1_5 O4_3 1_555 1_555
Mn2_3 O8_3 1_555 1_555
Mn3_3 O9_3 1_555 1_555
Mn10_2 O1_3 1_555 1_555
Mn12 O5_3 1_555 1_555
O2_3 Mn10_2 1_555 1_555
O3_3 Mn10_2 1_555 1_555
O6_3 Mn12 1_555 1_555
O7_3 Mn12 1_555 1_555
O8_3 Mn1_5 1_555 1_555
O9_3 Mn2_3 1_555 1_555
O10_3 Mn2_3 1_555 1_555
O11_3 Mn10_2 1_555 1_555
O44 Mn3_3 1_555 1_555
O13_3 Mn2_3 1_555 1_555
O14_3 Mn1_5 1_555 1_555
O15_3 Mn3_3 1_555 1_555
O16_3 Mn2_3 1_555 1_555
O45 C19_3 1_555 1_555
O18_3 C17_3 1_555 1_555
O19_3 C9_3 1_555 1_555
O20_3 Mn3_3 1_555 1_555
O21_3 Mn12 1_555 1_555
O48 C14_3 1_555 1_555
O47_2 C4_3 1_555 1_555
N1_3 Mn2_3 1_555 1_555
N2_3 Mn2_3 1_555 1_555
N3_3 Mn3_3 1_555 1_555
N4_3 Mn3_3 1_555 1_555
C1_3 N1_3 1_555 1_555
C2_3 O10_3 1_555 1_555
C3_3 N1_3 1_555 1_555
C4_3 O8_3 1_555 1_555
C5_3 N1_3 1_555 1_555
C6_3 O11_3 1_555 1_555
C7_3 N4_3 1_555 1_555
C8_3 N4_3 1_555 1_555
C9_3 O16_3 1_555 1_555
C10_3 N4_3 1_555 1_555
C11_3 N2_3 1_555 1_555
C12_3 N2_3 1_555 1_555
C13_3 N3_3 1_555 1_555
C14_3 O13_3 1_555 1_555
C15_3 C1_3 1_555 1_555
C16_3 O15_3 1_555 1_555
C17_3 O44 1_555 1_555
C18_3 N3_3 1_555 1_555
C19_3 O9_3 1_555 1_555
C20_3 C18_3 1_555 1_555
C21_3 C23_3 1_555 1_555
C22_3 N3_3 1_555 1_555
C23_3 C20_3 1_555 1_555
C24_3 C7_3 1_555 1_555
C25_3 N2_3 1_555 1_555
C26_3 C15_3 1_555 1_555
C27_3 C12_3 1_555 1_555
C28_3 C26_3 1_555 1_555
H1_3 C1_3 1_555 1_555
H2_3 C3_3 1_555 1_555
H3_3 C3_3 1_555 1_555
H4_3 C5_3 1_555 1_555
H5_3 C5_3 1_555 1_555
H6_3 C7_3 1_555 1_555
H7_3 C8_3 1_555 1_555
H8_3 C8_3 1_555 1_555
H9_3 C10_3 1_555 1_555
H10_3 C10_3 1_555 1_555
H11_3 C11_3 1_555 1_555
H12_3 C11_3 1_555 1_555
H13_3 C12_3 1_555 1_555
H14_3 C13_3 1_555 1_555
H15_3 C13_3 1_555 1_555
H16_3 C15_3 1_555 1_555
H17_3 C15_3 1_555 1_555
H18_3 C18_3 1_555 1_555
H19_3 C20_3 1_555 1_555
H20_3 C20_3 1_555 1_555
H21_3 C21_3 1_555 1_555
H22_3 C21_3 1_555 1_555
H23_3 C22_3 1_555 1_555
H24_3 C22_3 1_555 1_555
H25_3 C23_3 1_555 1_555
H26_3 C23_3 1_555 1_555
H27_3 C24_3 1_555 1_555
H28_3 C24_3 1_555 1_555
H29_3 C25_3 1_555 1_555
H30_3 C25_3 1_555 1_555
H31_3 C26_3 1_555 1_555
H32_3 C26_3 1_555 1_555
H33_3 C27_3 1_555 1_555
H34_3 C27_3 1_555 1_555
H35_3 C28_3 1_555 1_555
H36_3 C28_3 1_555 1_555
O24_3 Mn1_5 1_555 1_555
O25_3 Mn1_5 1_555 1_555
O26_3 C38_3 1_555 1_555
O27_3 C36_3 1_555 1_555
O28_3 C33_3 1_555 1_555
O29_3 C38_3 1_555 1_555
O30_3 C33_3 1_555 1_555
O46_2 C36_3 1_555 1_555
O49 C31_3 1_555 1_555
N5_3 C29_3 1_555 1_555
N6_3 C34_3 1_555 1_555
C29_3 C35_3 1_555 1_555
C30_3 N5_3 1_555 1_555
C31_3 O25_3 1_555 1_555
C32_3 N5_3 1_555 1_555
C33_3 C32_3 1_555 1_555
C34_3 C31_3 1_555 1_555
C35_3 N6_3 1_555 1_555
C36_3 C39_3 1_555 1_555
C37_3 C29_3 1_555 1_555
C38_3 C30_3 1_555 1_555
C39_3 N6_3 1_555 1_555
C40_3 C37_3 1_555 1_555
C41_3 C35_3 1_555 1_555
C42_3 C40_3 1_555 1_555
H37_3 C29_3 1_555 1_555
H38_3 C30_3 1_555 1_555
H39_3 C30_3 1_555 1_555
H40_3 C32_3 1_555 1_555
H41_3 C32_3 1_555 1_555
H42_3 C34_3 1_555 1_555
H43_3 C34_3 1_555 1_555
H44_3 C35_3 1_555 1_555
H45_3 C37_3 1_555 1_555
H46_3 C37_3 1_555 1_555
H47_3 C39_3 1_555 1_555
H48_3 C39_3 1_555 1_555
H49_3 C40_3 1_555 1_555
H50_3 C40_3 1_555 1_555
H51_3 C41_3 1_555 1_555
H52_3 C41_3 1_555 1_555
H53_3 C42_3 1_555 1_555
H54_3 C42_3 1_555 1_555
O33_3 C43_3 1_555 1_555
O34_3 C44_3 1_555 1_555
O35_3 C50_3 1_555 1_555
O36_3 Mn1_5 1_555 1_555
O37_3 C49_3 1_555 1_555
O38_3 C50_3 1_555 1_555
O39_3 C44_3 1_555 1_555
O40_3 C49_3 1_555 1_555
N7_3 C48_3 1_555 1_555
N8_3 C45_3 1_555 1_555
C43_3 O36_3 1_555 1_555
C44_3 C46_3 1_555 1_555
C45_3 C51_3 1_555 1_555
C46_3 N8_3 1_555 1_555
C47_3 N8_3 1_555 1_555
C48_3 C43_3 1_555 1_555
C49_3 C54_3 1_555 1_555
C50_3 C47_3 1_555 1_555
C51_3 N7_3 1_555 1_555
C52_3 C51_3 1_555 1_555
C53_3 C55_3 1_555 1_555
C54_3 N7_3 1_555 1_555
C55_3 C52_3 1_555 1_555
C56_3 C45_3 1_555 1_555
H55_3 C45_3 1_555 1_555
H56_3 C46_3 1_555 1_555
H57_3 C46_3 1_555 1_555
H58_3 C47_3 1_555 1_555
H59_3 C47_3 1_555 1_555
H60_3 C48_3 1_555 1_555
H61_3 C48_3 1_555 1_555
H62_3 C51_3 1_555 1_555
H63_3 C52_3 1_555 1_555
H64_3 C52_3 1_555 1_555
H65_3 C53_3 1_555 1_555
H66_3 C53_3 1_555 1_555
H67_3 C54_3 1_555 1_555
H68_3 C54_3 1_555 1_555
H69_3 C55_3 1_555 1_555
H70_3 C55_3 1_555 1_555
H71_3 C56_3 1_555 1_555
H72_3 C56_3 1_555 1_555
Mn6_3 O25_3 1_555 1_555
Mn7_3 O26_3 1_555 1_555
Mn13 O34_3 1_555 1_555
Mn11_2 O40_3 1_555 1_555
O41_3 Mn11_2 1_555 1_555
O42_3 Mn11_2 1_555 1_555
O43_3 Mn11_2 1_555 1_555
Mn8_2 O29_3 1_555 1_555
Mn3_3 O10_3 1_555 1_555
O14_3 C2_3 1_555 1_555
O20_3 C6_3 1_555 1_555
O21_3 C16_3 1_555 1_555
C1_3 C12_3 1_555 1_555
C2_3 C13_3 1_555 1_555
C3_3 C19_3 1_555 1_555
C4_3 C11_3 1_555 1_555
C5_3 C9_3 1_555 1_555
C6_3 C8_3 1_555 1_555
C7_3 C18_3 1_555 1_555
C10_3 C17_3 1_555 1_555
C14_3 C25_3 1_555 1_555
C16_3 C22_3 1_555 1_555
C21_3 C24_3 1_555 1_555
C27_3 C28_3 1_555 1_555
O26_3 Mn6_3 1_555 1_555
O27_3 Mn6_3 1_555 1_555
O28_3 Mn6_3 1_555 1_555
N5_3 Mn6_3 1_555 1_555
N6_3 Mn6_3 1_555 1_555
C41_3 C42_3 1_555 1_555
O33_3 Mn6_3 1_555 1_555
O33_3 Mn7_3 1_555 1_555
O35_3 Mn7_3 1_555 1_555
O35_3 Mn8_2 1_555 1_555
O37_3 Mn7_3 1_555 1_555
O39_3 Mn7_3 1_555 1_555
N7_3 Mn7_3 1_555 1_555
N8_3 Mn7_3 1_555 1_555
C53_3 C56_3 1_555 1_555
O1_3 H73_3 1_555 1_555
O1_3 H74_3 1_555 1_555
O3_3 H79_3 1_555 1_555
O3_3 H80_3 1_555 1_555
O2_3 H83_3 1_555 1_555
O2_3 H84_3 1_555 1_555
Mn8_2 O1_4 1_555 1_555
O2_4 Mn8_2 1_555 1_555
O3_4 Mn8_2 1_555 1_555
O1_4 H73_4 1_555 1_555
O1_4 H74_4 1_555 1_555
O3_4 H79_4 1_555 1_555
O3_4 H80_4 1_555 1_555
O2_4 H83_4 1_555 1_555
O2_4 H84_4 1_555 1_555
Mn8 O1_5 1_555 1_555
O2_5 Mn8 1_555 1_555
O3_5 Mn8 1_555 1_555
O1_5 H73_5 1_555 1_555
O1_5 H74_5 1_555 1_555
O3_5 H79_5 1_555 1_555
O3_5 H80_5 1_555 1_555
O2_5 H83_5 1_555 1_555
Mn13 O1_6 1_555 1_555
O2_6 Mn13 1_555 1_555
O3_6 Mn13 1_555 1_555
O1_6 H73_6 1_555 1_555
O1_6 H74_6 1_555 1_555
O3_6 H79_6 1_555 1_555
O3_6 H80_6 1_555 1_555
O2_6 H83_6 1_555 1_555
O2_6 H84_6 1_555 1_555

#END
