
###############################################################################
#
# This file contains modified crystal structure data generated from the
# MOF subset of the Cambridge Structural Database (CSD) v543 
# hosted by the Cambridge Crystallographic Data Centre (CCDC).
#
# This work is licensed under the Creative Commons
# Attribution-NonCommercial-ShareAlike 4.0 International License.
# To view a copy of this license, visit
# http://creativecommons.org/licenses/by-nc-sa/4.0/
# or send a letter to
# Creative Commons, PO Box 1866, Mountain View, CA 94042, USA.
#
# CIF created using the CSD Python API on 29 September 2022
# The structure has been converted into the P1 space group
# The structure has a 3D framework
# The original CSD entry VIKTUH is in the monoclinic crystal system
# The framework has been calculated to contain at least 10.0% void space
# The void calculation uses a probe of radius 1.32A, grid spacing 0.4
#
###############################################################################

data_VIKTUH
_chemical_formula_moiety         '(C142 H146 Gd16 N16 O92)n'
_symmetry_cell_setting           triclinic
_symmetry_space_group_name_H-M   'P 1'
_symmetry_Int_Tables_number      1
_space_group_name_Hall           'P 1'
loop_
_symmetry_equiv_pos_site_id
_symmetry_equiv_pos_as_xyz
1 x,y,z
_cell_length_a                   25.809(5)
_cell_length_b                   10.2855(16)
_cell_length_c                   21.999(4)
_cell_angle_alpha                90
_cell_angle_beta                 110.400(3)
_cell_angle_gamma                90
_cell_volume                     5473.56
loop_
_atom_site_label
_atom_site_type_symbol
_atom_site_fract_x
_atom_site_fract_y
_atom_site_fract_z
C12 C 0.2113(3) 0.0074(8) 0.2548(3)
H5 H 0.204041 0.068761 0.283135
H6 H 0.294760 0.032274 0.288233
O7 O 0.10558(18) 0.0048(5) 0.2625(2)
Gd9 Gd 0.07437(2) 0.16794(3) 0.31684(2)
Gd1 Gd 0.03165(2) 0.42419(3) 0.18219(2)
O1 O 0.34395(17) 0.7712(4) 0.1919(2)
N1 N 0.0719(2) 0.5856(6) 0.1186(2)
C1 C 0.2323(2) 0.8268(6) 0.1729(3)
H1 H 0.239523 0.765464 0.144555
C2 C 0.0860(3) 0.6623(7) 0.0228(3)
C3 C 0.1775(2) 0.8499(6) 0.1685(3)
C5 C 0.1095(3) 0.9722(6) 0.2092(3)
C6 C 0.1066(2) 0.6788(6) 0.1517(3)
H2 H 0.112484 0.687646 0.196627
C7 C 0.0631(3) 0.5770(7) 0.0549(3)
H3 H 0.040008 0.509215 0.030777
C8 C 0.1343(2) 0.7631(6) 0.1246(3)
C9 C 0.3350(2) 0.8584(7) 0.2262(3)
C10 C 0.2762(2) 0.8926(7) 0.2181(3)
C11 C 0.1234(2) 0.7547(6) 0.0586(3)
H4 H 0.141184 0.811418 0.037977
O3 O 0.37178(19) 0.9198(6) 0.2700(3)
C13 C 0.2652(3) 0.9848(8) 0.2583(4)
O5 O 0.02307(16) 0.2013(4) 0.20322(19)
C14 C 0.1677(2) 0.9403(6) 0.2099(3)
O6 O 0.06971(17) 0.9671(5) 0.1563(2)
O8 O 0.0194(2) 0.6381(5) 0.2117(2)
O10 O 0.1546(2) 0.0652(6) 0.3984(2)
H9 H 0.188399 0.111720 0.437289
O11 O 0.0593(3) 0.2958(6) 0.1047(3)
C15 C 0.000000 0.6916(10) 0.250000
H11 H 0.000001 0.783987 0.250000
N2 N 0.1089(6) 0.1805(15) 0.0552(7)
C16 C 0.1047(8) 0.2629(16) 0.1033(8)
H12 H 0.137370 0.294375 0.135550
C17 C 0.0583(8) 0.115(2) 0.0165(9)
H13 H 0.035757 0.097373 0.043264
H14 H 0.067538 0.032837 0.000045
C18 C 0.1651(8) 0.142(2) 0.0594(12)
H16 H 0.182085 0.213313 0.043243
H17 H 0.163165 0.064304 0.033155
H18 H 0.187501 0.124000 0.104726
O24 O 0.05167(16) 0.3919(4) 0.29669(18)
Gd6 Gd 0.46835(2) 0.92419(3) 0.31781(2)
Gd8 Gd 0.03165(2) 0.57581(3) 0.68219(2)
Gd12 Gd 0.42563(2) 0.66794(3) 0.18316(2)
O26 O 0.15605(17) 0.2712(4) 0.3081(2)
O28 O 0.08274(19) 0.2523(5) 0.4218(2)
O30 O 0.12822(19) 0.4198(6) 0.2300(3)
O32 O 0.0402(2) 0.4411(6) 0.4217(2)
O2 O 0.08274(19) 0.7477(5) 0.9218(2)
C4 C 0.0686(3) 0.6559(7) 0.9496(3)
O4 O 0.0402(2) 0.5589(6) 0.9217(2)
H14_2 H 0.067538 0.032837 1.000045
H15 H 0.037624 0.170569 0.979866
Gd14 Gd 0.07437(2) 0.83206(3) 0.81684(2)
C30 C 0.7887(3) 0.0074(8) 0.2452(3)
H23 H 0.795959 0.068761 0.216865
H24 H 0.705240 0.032274 0.211767
O20 O 0.89442(18) 0.0048(5) 0.2375(2)
Gd10 Gd 0.92563(2) 0.16794(3) 0.18316(2)
C15_2 C 1.000000 0.6916(10) 0.250000
H11_2 H 1.000001 0.783987 0.250000
O12 O 0.94833(16) 0.3919(4) 0.20331(18)
O13 O 0.9806(2) 0.6381(5) 0.2883(2)
Gd3 Gd 0.96835(2) 0.42419(3) 0.31781(2)
O14 O 0.65605(17) 0.7712(4) 0.3081(2)
O15 O 0.91726(19) 0.7477(5) 0.5782(2)
N3 N 0.9281(2) 0.5856(6) 0.3814(2)
C19 C 0.7677(2) 0.8268(6) 0.3271(3)
H19 H 0.760477 0.765464 0.355445
C20 C 0.9140(3) 0.6623(7) 0.4772(3)
C21 C 0.8225(2) 0.8499(6) 0.3315(3)
C22 C 0.9314(3) 0.6559(7) 0.5504(3)
C23 C 0.8905(3) 0.9722(6) 0.2908(3)
C24 C 0.8934(2) 0.6788(6) 0.3483(3)
H20 H 0.887516 0.687646 0.303373
C25 C 0.9369(3) 0.5770(7) 0.4451(3)
H21 H 0.959992 0.509215 0.469223
C26 C 0.8657(2) 0.7631(6) 0.3754(3)
C27 C 0.6650(2) 0.8584(7) 0.2738(3)
C28 C 0.7238(2) 0.8926(7) 0.2819(3)
C29 C 0.8766(2) 0.7547(6) 0.4414(3)
H22 H 0.858816 0.811418 0.462023
O16 O 0.62822(19) 0.9198(6) 0.2300(3)
C31 C 0.7348(3) 0.9848(8) 0.2417(4)
O17 O 0.9598(2) 0.5589(6) 0.5783(2)
O18 O 0.97693(16) 0.2013(4) 0.29678(19)
C32 C 0.8323(2) 0.9403(6) 0.2901(3)
O19 O 0.93029(17) 0.9671(5) 0.3437(2)
O22 O 0.8454(2) 0.0652(6) 0.1016(2)
H27 H 0.811601 0.111720 0.062711
O23 O 0.9407(3) 0.2958(6) 0.3953(3)
N4 N 0.8911(6) 0.1805(15) 0.4448(7)
C33 C 0.8953(8) 0.2629(16) 0.3967(8)
H29 H 0.862630 0.294375 0.364450
C34 C 0.9417(8) 0.115(2) 0.4835(9)
H30 H 0.964243 0.097373 0.456736
H31 H 0.932462 0.032837 0.499955
H32 H 0.962376 0.170569 0.520134
C35 C 0.8349(8) 0.142(2) 0.4406(12)
H33 H 0.817915 0.213313 0.456757
H34 H 0.836835 0.064304 0.466845
H35 H 0.812499 0.124000 0.395274
Gd5 Gd 0.53165(2) 0.92419(3) 0.18219(2)
Gd11 Gd 0.57437(2) 0.66794(3) 0.31684(2)
Gd13 Gd 0.92563(2) 0.83206(3) 0.68316(2)
O25 O 0.84395(17) 0.2712(4) 0.1919(2)
O27 O 0.91726(19) 0.2523(5) 0.0782(2)
O29 O 0.87178(19) 0.4198(6) 0.2700(3)
O31 O 0.9598(2) 0.4411(6) 0.0783(2)
Gd7 Gd 0.96835(2) 0.57581(3) 0.81781(2)
N1_2 N 0.5719(2) 0.0856(6) 0.1186(2)
C1_2 C 0.7323(2) 0.3268(6) 0.1729(3)
H1_2 H 0.739523 0.265464 0.144555
C2_2 C 0.5860(3) 0.1623(7) 0.0228(3)
C3_2 C 0.6775(2) 0.3499(6) 0.1685(3)
C5_2 C 0.6095(3) 0.4722(6) 0.2092(3)
C6_2 C 0.6066(2) 0.1788(6) 0.1517(3)
H2_2 H 0.612484 0.187646 0.196627
C7_2 C 0.5631(3) 0.0770(7) 0.0549(3)
H3_2 H 0.540008 0.009215 0.030777
C8_2 C 0.6343(2) 0.2631(6) 0.1246(3)
C9_2 C 0.8350(2) 0.3584(7) 0.2262(3)
C10_2 C 0.7762(2) 0.3926(7) 0.2181(3)
C11_2 C 0.6234(2) 0.2547(6) 0.0586(3)
H4_2 H 0.641184 0.311418 0.037977
C12_2 C 0.7113(3) 0.5074(8) 0.2548(3)
H5_2 H 0.704041 0.568761 0.283135
C13_2 C 0.7652(3) 0.4848(8) 0.2583(4)
H6_2 H 0.794760 0.532274 0.288233
C14_2 C 0.6677(2) 0.4403(6) 0.2099(3)
O6_2 O 0.56971(17) 0.4671(5) 0.1563(2)
O7_2 O 0.60558(18) 0.5048(5) 0.2625(2)
O8_2 O 0.5194(2) 0.1381(5) 0.2117(2)
C15_3 C 0.500000 0.1916(10) 0.250000
H11_3 H 0.500001 0.283987 0.250000
O13_2 O 0.4806(2) 0.1381(5) 0.2883(2)
O15_2 O 0.41726(19) 0.2477(5) 0.5782(2)
N3_2 N 0.4281(2) 0.0856(6) 0.3814(2)
C19_2 C 0.2677(2) 0.3268(6) 0.3271(3)
H19_2 H 0.260477 0.265464 0.355445
C20_2 C 0.4140(3) 0.1623(7) 0.4772(3)
C21_2 C 0.3225(2) 0.3499(6) 0.3315(3)
C22_2 C 0.4314(3) 0.1559(7) 0.5504(3)
C23_2 C 0.3905(3) 0.4722(6) 0.2908(3)
C24_2 C 0.3934(2) 0.1788(6) 0.3483(3)
H20_2 H 0.387516 0.187646 0.303373
C25_2 C 0.4369(3) 0.0770(7) 0.4451(3)
H21_2 H 0.459992 0.009215 0.469223
C26_2 C 0.3657(2) 0.2631(6) 0.3754(3)
C27_2 C 0.1650(2) 0.3584(7) 0.2738(3)
C28_2 C 0.2238(2) 0.3926(7) 0.2819(3)
C29_2 C 0.3766(2) 0.2547(6) 0.4414(3)
H22_2 H 0.358816 0.311418 0.462023
C30_2 C 0.2887(3) 0.5074(8) 0.2452(3)
H23_2 H 0.295959 0.568761 0.216865
C31_2 C 0.2348(3) 0.4848(8) 0.2417(4)
H24_2 H 0.205240 0.532274 0.211767
O17_2 O 0.4598(2) 0.0589(6) 0.5783(2)
C32_2 C 0.3323(2) 0.4403(6) 0.2901(3)
O19_2 O 0.43029(17) 0.4671(5) 0.3437(2)
O20_2 O 0.39442(18) 0.5048(5) 0.2375(2)
Gd8_2 Gd 0.53165(2) 0.07581(3) 0.68219(2)
Gd13_2 Gd 0.42563(2) 0.33206(3) 0.68316(2)
O2_2 O 0.58274(19) 0.2477(5) 0.9218(2)
C4_2 C 0.5686(3) 0.1559(7) 0.9496(3)
O4_2 O 0.5402(2) 0.0589(6) 0.9217(2)
Gd7_2 Gd 0.46835(2) 0.07581(3) 0.81781(2)
Gd14_2 Gd 0.57437(2) 0.33206(3) 0.81684(2)
O5_2 O 0.52307(16) 0.7013(4) 0.20322(19)
O9 O 0.53737(19) 0.4746(5) 0.3486(3)
H7 H 0.564159 0.419410 0.366631
H8 H 0.515793 0.433979 0.314136
O10_2 O 0.6546(2) 0.5652(6) 0.3984(2)
H9_2 H 0.688399 0.611720 0.437289
H10 H 0.665358 0.461779 0.404691
O11_2 O 0.5593(3) 0.7958(6) 0.1047(3)
N2_2 N 0.6089(6) 0.6805(15) 0.0552(7)
C16_2 C 0.6047(8) 0.7629(16) 0.1033(8)
H12_2 H 0.637370 0.794375 0.135550
C17_2 C 0.5583(8) 0.615(2) 0.0165(9)
H13_2 H 0.535757 0.597373 0.043264
H14_3 H 0.567538 0.532837 0.000045
O12_2 O 0.44833(16) 0.8919(4) 0.20331(18)
C18_2 C 0.6651(8) 0.642(2) 0.0594(12)
H16_2 H 0.682085 0.713313 0.043243
H17_2 H 0.663165 0.564304 0.033155
H18_2 H 0.687501 0.624000 0.104726
O18_2 O 0.47693(16) 0.7013(4) 0.29678(19)
O21 O 0.46263(19) 0.4746(5) 0.1514(3)
H25 H 0.435841 0.419410 0.133369
H26 H 0.484207 0.433979 0.185864
O22_2 O 0.3454(2) 0.5652(6) 0.1016(2)
H27_2 H 0.311601 0.611720 0.062711
H28 H 0.334642 0.461779 0.095309
O23_2 O 0.4407(3) 0.7958(6) 0.3953(3)
N4_2 N 0.3911(6) 0.6805(15) 0.4448(7)
C33_2 C 0.3953(8) 0.7629(16) 0.3967(8)
H29_2 H 0.362630 0.794375 0.364450
C34_2 C 0.4417(8) 0.615(2) 0.4835(9)
H30_2 H 0.464243 0.597373 0.456736
H31_2 H 0.432462 0.532837 0.499955
H32_2 H 0.462376 0.670569 0.520134
O24_2 O 0.55167(16) 0.8919(4) 0.29669(18)
C35_2 C 0.3349(8) 0.642(2) 0.4406(12)
H33_2 H 0.317915 0.713313 0.456757
H34_2 H 0.336835 0.564304 0.466845
H35_2 H 0.312499 0.624000 0.395274
O27_2 O 0.41726(19) 0.7523(5) 0.0782(2)
O28_2 O 0.58274(19) 0.7523(5) 0.4218(2)
O31_2 O 0.4598(2) 0.9411(6) 0.0783(2)
O32_2 O 0.5402(2) 0.9411(6) 0.4217(2)
C15_4 C 0.000000 0.3084(10) 0.750000
H11_4 H -0.000001 0.216013 0.750000
O12_3 O 0.05167(16) 0.6081(4) 0.79669(18)
O13_3 O 0.0194(2) 0.3619(5) 0.7117(2)
O14_2 O 0.34395(17) 0.2288(4) 0.6919(2)
N3_3 N 0.0719(2) 0.4144(6) 0.6186(2)
C19_3 C 0.2323(2) 0.1732(6) 0.6729(3)
H19_3 H 0.239523 0.234536 0.644555
C20_3 C 0.0860(3) 0.3377(7) 0.5228(3)
C21_3 C 0.1775(2) 0.1501(6) 0.6685(3)
C22_3 C 0.0686(3) 0.3441(7) 0.4496(3)
C23_3 C 0.1095(3) 0.0278(6) 0.7092(3)
C24_3 C 0.1066(2) 0.3212(6) 0.6517(3)
H20_3 H 0.112484 0.312354 0.696627
C25_3 C 0.0631(3) 0.4230(7) 0.5549(3)
H21_3 H 0.040008 0.490785 0.530777
C26_3 C 0.1343(2) 0.2369(6) 0.6246(3)
C27_3 C 0.3350(2) 0.1416(7) 0.7262(3)
C28_3 C 0.2762(2) 0.1074(7) 0.7181(3)
C29_3 C 0.1234(2) 0.2453(6) 0.5586(3)
H22_3 H 0.141184 0.188582 0.537977
O16_2 O 0.37178(19) 0.0802(6) 0.7700(3)
C31_3 C 0.2652(3) 0.0152(8) 0.7583(4)
O18_3 O 0.02307(16) 0.7987(4) 0.70322(19)
C32_3 C 0.1677(2) 0.0597(6) 0.7099(3)
O19_3 O 0.06971(17) 0.0329(5) 0.6563(2)
O22_3 O 0.1546(2) 0.9348(6) 0.8984(2)
H27_3 H 0.188399 0.888280 0.937289
O23_3 O 0.0593(3) 0.7042(6) 0.6047(3)
N4_3 N 0.1089(6) 0.8195(15) 0.5552(7)
C33_3 C 0.1047(8) 0.7371(16) 0.6033(8)
H29_3 H 0.137370 0.705625 0.635550
C34_3 C 0.0583(8) 0.885(2) 0.5165(9)
H30_3 H 0.035757 0.902627 0.543264
H31_3 H 0.067538 0.967163 0.500045
H32_3 H 0.037624 0.829431 0.479866
C35_3 C 0.1651(8) 0.858(2) 0.5594(12)
H33_3 H 0.182085 0.786687 0.543243
H34_3 H 0.163165 0.935696 0.533155
H35_3 H 0.187501 0.876000 0.604726
O25_2 O 0.15605(17) 0.7288(4) 0.8081(2)
O29_2 O 0.12822(19) 0.5802(6) 0.7300(3)
O34 O 0.10558(18) 0.9952(5) 0.7625(2)
C30_3 C 0.2113(3) 0.9926(8) 0.7548(3)
H23_3 H 0.204041 0.931239 0.783135
H24_3 H 0.294760 0.967726 0.788233
C4_3 C 0.9314(3) 0.3441(7) 0.0504(3)
H14_4 H 0.932462 0.967163 -0.000045
H15_2 H 0.962376 0.829431 0.020134
O1_2 O 0.65605(17) 0.2288(4) 0.8081(2)
N1_3 N 0.9281(2) 0.4144(6) 0.8814(2)
C1_3 C 0.7677(2) 0.1732(6) 0.8271(3)
H1_3 H 0.760477 0.234536 0.855445
C2_3 C 0.9140(3) 0.3377(7) 0.9772(3)
C3_3 C 0.8225(2) 0.1501(6) 0.8315(3)
C5_3 C 0.8905(3) 0.0278(6) 0.7908(3)
C6_3 C 0.8934(2) 0.3212(6) 0.8483(3)
H2_3 H 0.887516 0.312354 0.803373
C7_3 C 0.9369(3) 0.4230(7) 0.9451(3)
H3_3 H 0.959992 0.490785 0.969223
C8_3 C 0.8657(2) 0.2369(6) 0.8754(3)
C9_3 C 0.6650(2) 0.1416(7) 0.7738(3)
C10_3 C 0.7238(2) 0.1074(7) 0.7819(3)
C11_3 C 0.8766(2) 0.2453(6) 0.9414(3)
H4_3 H 0.858816 0.188582 0.962023
O3_2 O 0.62822(19) 0.0802(6) 0.7300(3)
C13_3 C 0.7348(3) 0.0152(8) 0.7417(4)
O5_3 O 0.97693(16) 0.7987(4) 0.79678(19)
C14_3 C 0.8323(2) 0.0597(6) 0.7901(3)
O6_3 O 0.93029(17) 0.0329(5) 0.8437(2)
O8_3 O 0.9806(2) 0.3619(5) 0.7883(2)
O10_3 O 0.8454(2) 0.9348(6) 0.6016(2)
H9_3 H 0.811601 0.888280 0.562711
O11_3 O 0.9407(3) 0.7042(6) 0.8953(3)
C15_5 C 1.000000 0.3084(10) 0.750000
H11_5 H 0.999999 0.216013 0.750000
N2_3 N 0.8911(6) 0.8195(15) 0.9448(7)
C16_3 C 0.8953(8) 0.7371(16) 0.8967(8)
H12_3 H 0.862630 0.705625 0.864450
C17_3 C 0.9417(8) 0.885(2) 0.9835(9)
H13_3 H 0.964243 0.902627 0.956736
H14_5 H 0.932462 0.967163 0.999955
C18_3 C 0.8349(8) 0.858(2) 0.9406(12)
H16_3 H 0.817915 0.786687 0.956757
H17_3 H 0.836835 0.935696 0.966845
H18_3 H 0.812499 0.876000 0.895274
O24_3 O 0.94833(16) 0.6081(4) 0.70331(18)
O26_2 O 0.84395(17) 0.7288(4) 0.6919(2)
O30_2 O 0.87178(19) 0.5802(6) 0.7700(3)
O33 O 0.89442(18) 0.9952(5) 0.7375(2)
C12_3 C 0.7887(3) 0.9926(8) 0.7452(3)
H5_3 H 0.795959 0.931239 0.716865
H6_3 H 0.705240 0.967726 0.711767
O5_4 O 0.47693(16) 0.2987(4) 0.79678(19)
O9_2 O 0.46263(19) 0.5254(5) 0.6514(3)
H7_2 H 0.435841 0.580590 0.633369
H8_2 H 0.484207 0.566021 0.685864
O10_4 O 0.3454(2) 0.4348(6) 0.6016(2)
H9_4 H 0.311601 0.388280 0.562711
H10_2 H 0.334642 0.538221 0.595309
O11_4 O 0.4407(3) 0.2042(6) 0.8953(3)
N2_4 N 0.3911(6) 0.3195(15) 0.9448(7)
C16_4 C 0.3953(8) 0.2371(16) 0.8967(8)
H12_4 H 0.362630 0.205625 0.864450
C17_4 C 0.4417(8) 0.385(2) 0.9835(9)
H13_4 H 0.464243 0.402627 0.956736
H14_6 H 0.432462 0.467163 0.999955
O12_4 O 0.55167(16) 0.1081(4) 0.79669(18)
C18_4 C 0.3349(8) 0.358(2) 0.9406(12)
H16_4 H 0.317915 0.286687 0.956757
H17_4 H 0.336835 0.435696 0.966845
H18_4 H 0.312499 0.376000 0.895274
O18_4 O 0.52307(16) 0.2987(4) 0.70322(19)
O21_2 O 0.53737(19) 0.5254(5) 0.8486(3)
H25_2 H 0.564159 0.580590 0.866631
H26_2 H 0.515793 0.566021 0.814136
O22_4 O 0.6546(2) 0.4348(6) 0.8984(2)
H27_4 H 0.688399 0.388280 0.937289
H28_2 H 0.665358 0.538221 0.904691
O23_4 O 0.5593(3) 0.2042(6) 0.6047(3)
N4_4 N 0.6089(6) 0.3195(15) 0.5552(7)
C33_4 C 0.6047(8) 0.2371(16) 0.6033(8)
H29_4 H 0.637370 0.205625 0.635550
C34_4 C 0.5583(8) 0.385(2) 0.5165(9)
H30_4 H 0.535757 0.402627 0.543264
H31_4 H 0.567538 0.467163 0.500045
H32_4 H 0.537624 0.329431 0.479866
O24_4 O 0.44833(16) 0.1081(4) 0.70331(18)
C35_4 C 0.6651(8) 0.358(2) 0.5594(12)
H33_4 H 0.682085 0.286687 0.543243
H34_4 H 0.663165 0.435696 0.533155
H35_4 H 0.687501 0.376000 0.604726
O33_2 O 0.39442(18) 0.4952(5) 0.7375(2)
O34_2 O 0.60558(18) 0.4952(5) 0.7625(2)
C4_4 C 0.4314(3) 0.8441(7) 0.0504(3)
N1_4 N 0.4281(2) 0.9144(6) 0.8814(2)
C1_4 C 0.2677(2) 0.6732(6) 0.8271(3)
H1_4 H 0.260477 0.734536 0.855445
C2_4 C 0.4140(3) 0.8377(7) 0.9772(3)
C3_4 C 0.3225(2) 0.6501(6) 0.8315(3)
C5_4 C 0.3905(3) 0.5278(6) 0.7908(3)
C6_4 C 0.3934(2) 0.8212(6) 0.8483(3)
H2_4 H 0.387516 0.812354 0.803373
C7_4 C 0.4369(3) 0.9230(7) 0.9451(3)
H3_4 H 0.459992 0.990785 0.969223
C8_4 C 0.3657(2) 0.7369(6) 0.8754(3)
C9_4 C 0.1650(2) 0.6416(7) 0.7738(3)
C10_4 C 0.2238(2) 0.6074(7) 0.7819(3)
C11_4 C 0.3766(2) 0.7453(6) 0.9414(3)
H4_4 H 0.358816 0.688582 0.962023
C12_4 C 0.2887(3) 0.4926(8) 0.7452(3)
H5_4 H 0.295959 0.431239 0.716865
C13_4 C 0.2348(3) 0.5152(8) 0.7417(4)
H6_4 H 0.205240 0.467726 0.711767
C14_4 C 0.3323(2) 0.5597(6) 0.7901(3)
O6_4 O 0.43029(17) 0.5329(5) 0.8437(2)
O8_4 O 0.4806(2) 0.8619(5) 0.7883(2)
C15_6 C 0.500000 0.8084(10) 0.750000
H11_6 H 0.499999 0.716013 0.750000
O13_4 O 0.5194(2) 0.8619(5) 0.7117(2)
N3_4 N 0.5719(2) 0.9144(6) 0.6186(2)
C19_4 C 0.7323(2) 0.6732(6) 0.6729(3)
H19_4 H 0.739523 0.734536 0.644555
C20_4 C 0.5860(3) 0.8377(7) 0.5228(3)
C21_4 C 0.6775(2) 0.6501(6) 0.6685(3)
C22_4 C 0.5686(3) 0.8441(7) 0.4496(3)
C23_4 C 0.6095(3) 0.5278(6) 0.7092(3)
C24_4 C 0.6066(2) 0.8212(6) 0.6517(3)
H20_4 H 0.612484 0.812354 0.696627
C25_4 C 0.5631(3) 0.9230(7) 0.5549(3)
H21_4 H 0.540008 0.990785 0.530777
C26_4 C 0.6343(2) 0.7369(6) 0.6246(3)
C27_4 C 0.8350(2) 0.6416(7) 0.7262(3)
C28_4 C 0.7762(2) 0.6074(7) 0.7181(3)
C29_4 C 0.6234(2) 0.7453(6) 0.5586(3)
H22_4 H 0.641184 0.688582 0.537977
C30_4 C 0.7113(3) 0.4926(8) 0.7548(3)
H23_4 H 0.704041 0.431239 0.783135
C31_4 C 0.7652(3) 0.5152(8) 0.7583(4)
H24_4 H 0.794760 0.467726 0.788233
C32_4 C 0.6677(2) 0.5597(6) 0.7099(3)
O19_4 O 0.56971(17) 0.5329(5) 0.6563(2)
O9_3 O 0.03737(19) 0.9746(5) 0.3486(3)
H7_3 H 0.064159 0.919410 0.366631
H8_3 H 0.015793 0.933979 0.314136
H10_3 H 0.165358 0.961779 0.404691
O21_3 O 0.96263(19) 0.9746(5) 0.1514(3)
H25_3 H 0.935841 0.919410 0.133369
H26_3 H 0.984207 0.933979 0.185864
H28_3 H 0.834642 0.961779 0.095309
H14_7 H 0.567538 0.532837 1.000045
H15_3 H 0.537624 0.670569 0.979866
O21_4 O 0.03737(19) 0.0254(5) 0.8486(3)
H25_4 H 0.064159 0.080590 0.866631
H26_4 H 0.015793 0.066021 0.814136
H28_4 H 0.165358 0.038221 0.904691
O9_4 O 0.96263(19) 0.0254(5) 0.6514(3)
H7_4 H 0.935841 0.080590 0.633369
H8_4 H 0.984207 0.066021 0.685864
H10_4 H 0.834642 0.038221 0.595309
H14_8 H 0.432462 0.467163 -0.000045
H15_4 H 0.462376 0.329431 0.020134
loop_
_geom_bond_atom_site_label_1
_geom_bond_atom_site_label_2
_geom_bond_site_symmetry_1
_geom_bond_site_symmetry_2
C12 H5 1_555 1_555
Gd9 O7 1_555 1_555
Gd1 N1 1_555 1_555
Gd9 O5 1_555 1_555
O1 C9 1_555 1_555
N1 C6 1_555 1_555
C1 H1 1_555 1_555
C3 C1 1_555 1_555
C5 C14 1_555 1_555
C6 H2 1_555 1_555
C7 N1 1_555 1_555
H3 C7 1_555 1_555
C8 C3 1_555 1_555
C9 C10 1_555 1_555
C10 C1 1_555 1_555
C11 C2 1_555 1_555
H4 C11 1_555 1_555
O3 C9 1_555 1_555
C13 C10 1_555 1_555
O5 Gd1 1_555 1_555
C14 C3 1_555 1_555
O6 C5 1_555 1_555
O8 Gd1 1_555 1_555
O10 Gd9 1_555 1_555
H9 O10 1_555 1_555
O11 Gd1 1_555 1_555
C15 O8 1_555 1_555
H11 C15 1_555 1_555
N2 C16 1_555 1_555
C16 O11 1_555 1_555
H12 C16 1_555 1_555
C17 N2 1_555 1_555
H13 C17 1_555 1_555
H14 C17 1_555 1_555
C18 N2 1_555 1_555
H16 C18 1_555 1_555
H17 C18 1_555 1_555
H18 C18 1_555 1_555
O24 Gd1 1_555 1_555
Gd6 O3 1_555 1_555
Gd12 O1 1_555 1_555
O26 Gd9 1_555 1_555
O28 Gd9 1_555 1_555
O30 Gd1 1_555 1_555
Gd9 O24 1_555 1_555
C2 C7 1_555 1_555
C6 C8 1_555 1_555
C8 C11 1_555 1_555
O2 C4 1_555 1_555
C4 O4 1_555 1_555
Gd14 O2 1_555 1_555
C30 H23 1_555 1_555
Gd10 O20 1_555 1_555
H11_2 C15_2 1_555 1_555
O13 C15_2 1_555 1_555
Gd3 O12 1_555 1_555
O14 C27 1_555 1_555
O15 C22 1_555 1_555
N3 Gd3 1_555 1_555
C19 H19 1_555 1_555
C20 C22 1_555 1_555
C21 C19 1_555 1_555
C22 O17 1_555 1_555
C23 C32 1_555 1_555
C24 N3 1_555 1_555
H20 C24 1_555 1_555
C25 N3 1_555 1_555
H21 C25 1_555 1_555
C26 C21 1_555 1_555
C27 C28 1_555 1_555
C28 C19 1_555 1_555
C29 C20 1_555 1_555
H22 C29 1_555 1_555
O16 C27 1_555 1_555
C31 C28 1_555 1_555
C32 C21 1_555 1_555
O19 C23 1_555 1_555
O22 Gd10 1_555 1_555
H27 O22 1_555 1_555
O23 Gd3 1_555 1_555
N4 C33 1_555 1_555
C33 O23 1_555 1_555
H29 C33 1_555 1_555
C34 N4 1_555 1_555
H30 C34 1_555 1_555
H31 C34 1_555 1_555
H32 C34 1_555 1_555
C35 N4 1_555 1_555
H33 C35 1_555 1_555
H34 C35 1_555 1_555
H35 C35 1_555 1_555
Gd5 O16 1_555 1_555
Gd11 O14 1_555 1_555
Gd13 O15 1_555 1_555
O25 Gd10 1_555 1_555
O27 Gd10 1_555 1_555
O29 Gd3 1_555 1_555
O12 Gd10 1_555 1_555
O13 Gd3 1_555 1_555
Gd3 O18 1_555 1_555
Gd10 O18 1_555 1_555
C20 C25 1_555 1_555
C24 C26 1_555 1_555
C26 C29 1_555 1_555
O25 C9_2 1_555 1_555
N1_2 C6_2 1_555 1_555
C1_2 H1_2 1_555 1_555
C3_2 C1_2 1_555 1_555
C5_2 C14_2 1_555 1_555
C6_2 H2_2 1_555 1_555
C7_2 N1_2 1_555 1_555
H3_2 C7_2 1_555 1_555
C8_2 C3_2 1_555 1_555
C9_2 C10_2 1_555 1_555
C10_2 C1_2 1_555 1_555
C11_2 C2_2 1_555 1_555
H4_2 C11_2 1_555 1_555
C12_2 H5_2 1_555 1_555
O29 C9_2 1_555 1_555
C13_2 C10_2 1_555 1_555
H6_2 C13_2 1_555 1_555
C14_2 C3_2 1_555 1_555
O6_2 C5_2 1_555 1_555
O7_2 C5_2 1_555 1_555
C15_3 O8_2 1_555 1_555
H11_3 C15_3 1_555 1_555
O13_2 C15_3 1_555 1_555
O26 C27_2 1_555 1_555
O15_2 C22_2 1_555 1_555
C19_2 H19_2 1_555 1_555
C20_2 C22_2 1_555 1_555
C21_2 C19_2 1_555 1_555
C22_2 O17_2 1_555 1_555
C23_2 C32_2 1_555 1_555
C24_2 N3_2 1_555 1_555
H20_2 C24_2 1_555 1_555
C25_2 N3_2 1_555 1_555
H21_2 C25_2 1_555 1_555
C26_2 C21_2 1_555 1_555
C27_2 C28_2 1_555 1_555
C28_2 C19_2 1_555 1_555
C29_2 C20_2 1_555 1_555
H22_2 C29_2 1_555 1_555
C30_2 H23_2 1_555 1_555
O30 C27_2 1_555 1_555
C31_2 C28_2 1_555 1_555
H24_2 C31_2 1_555 1_555
O17_2 Gd8_2 1_555 1_555
C32_2 C21_2 1_555 1_555
O19_2 C23_2 1_555 1_555
O20_2 C23_2 1_555 1_555
Gd11 O7_2 1_555 1_555
Gd12 O20_2 1_555 1_555
Gd13_2 O15_2 1_555 1_555
C2_2 C7_2 1_555 1_555
C6_2 C8_2 1_555 1_555
C8_2 C11_2 1_555 1_555
C12_2 C13_2 1_555 1_555
C12_2 C14_2 1_555 1_555
C20_2 C25_2 1_555 1_555
C24_2 C26_2 1_555 1_555
C26_2 C29_2 1_555 1_555
C30_2 C31_2 1_555 1_555
C30_2 C32_2 1_555 1_555
O2_2 C4_2 1_555 1_555
C4_2 O4_2 1_555 1_555
O4_2 Gd7_2 1_555 1_555
Gd14_2 O2_2 1_555 1_555
Gd11 O5_2 1_555 1_555
O5_2 Gd5 1_555 1_555
O9 Gd11 1_555 1_555
H7 O9 1_555 1_555
H8 O9 1_555 1_555
O10_2 Gd11 1_555 1_555
H9_2 O10_2 1_555 1_555
H10 O10_2 1_555 1_555
O11_2 Gd5 1_555 1_555
N2_2 C16_2 1_555 1_555
C16_2 O11_2 1_555 1_555
H12_2 C16_2 1_555 1_555
C17_2 N2_2 1_555 1_555
H13_2 C17_2 1_555 1_555
H14_3 C17_2 1_555 1_555
O12_2 Gd5 1_555 1_555
C18_2 N2_2 1_555 1_555
H16_2 C18_2 1_555 1_555
H17_2 C18_2 1_555 1_555
H18_2 C18_2 1_555 1_555
Gd6 O12_2 1_555 1_555
Gd12 O5_2 1_555 1_555
O18_2 Gd11 1_555 1_555
O21 Gd12 1_555 1_555
H25 O21 1_555 1_555
H26 O21 1_555 1_555
O22_2 Gd12 1_555 1_555
H27_2 O22_2 1_555 1_555
H28 O22_2 1_555 1_555
O23_2 Gd6 1_555 1_555
N4_2 C33_2 1_555 1_555
C33_2 O23_2 1_555 1_555
H29_2 C33_2 1_555 1_555
C34_2 N4_2 1_555 1_555
H30_2 C34_2 1_555 1_555
H31_2 C34_2 1_555 1_555
H32_2 C34_2 1_555 1_555
O24_2 Gd5 1_555 1_555
C35_2 N4_2 1_555 1_555
H33_2 C35_2 1_555 1_555
H34_2 C35_2 1_555 1_555
H35_2 C35_2 1_555 1_555
O27_2 Gd12 1_555 1_555
O28_2 Gd11 1_555 1_555
O31_2 Gd5 1_555 1_555
O32_2 Gd6 1_555 1_555
Gd11 O24_2 1_555 1_555
O12_2 Gd12 1_555 1_555
Gd6 O18_2 1_555 1_555
Gd6 O24_2 1_555 1_555
Gd12 O18_2 1_555 1_555
H11_4 C15_4 1_555 1_555
O13_3 C15_4 1_555 1_555
Gd8 O12_3 1_555 1_555
O14_2 C27_3 1_555 1_555
O28 C22_3 1_555 1_555
N3_3 Gd8 1_555 1_555
C19_3 H19_3 1_555 1_555
C20_3 C22_3 1_555 1_555
C21_3 C19_3 1_555 1_555
C22_3 O32 1_555 1_555
C23_3 C32_3 1_555 1_555
C24_3 N3_3 1_555 1_555
H20_3 C24_3 1_555 1_555
C25_3 N3_3 1_555 1_555
H21_3 C25_3 1_555 1_555
C26_3 C21_3 1_555 1_555
C27_3 C28_3 1_555 1_555
C28_3 C19_3 1_555 1_555
C29_3 C20_3 1_555 1_555
H22_3 C29_3 1_555 1_555
O16_2 C27_3 1_555 1_555
C31_3 C28_3 1_555 1_555
C32_3 C21_3 1_555 1_555
O19_3 C23_3 1_555 1_555
O22_3 Gd14 1_555 1_555
H27_3 O22_3 1_555 1_555
O23_3 Gd8 1_555 1_555
N4_3 C33_3 1_555 1_555
C33_3 O23_3 1_555 1_555
H29_3 C33_3 1_555 1_555
C34_3 N4_3 1_555 1_555
H30_3 C34_3 1_555 1_555
H31_3 C34_3 1_555 1_555
H32_3 C34_3 1_555 1_555
C35_3 N4_3 1_555 1_555
H33_3 C35_3 1_555 1_555
H34_3 C35_3 1_555 1_555
H35_3 C35_3 1_555 1_555
Gd7_2 O16_2 1_555 1_555
Gd13_2 O14_2 1_555 1_555
O25_2 Gd14 1_555 1_555
O29_2 Gd8 1_555 1_555
O34 Gd14 1_555 1_555
O12_3 Gd14 1_555 1_555
O13_3 Gd8 1_555 1_555
Gd8 O18_3 1_555 1_555
Gd14 O18_3 1_555 1_555
C20_3 C25_3 1_555 1_555
C24_3 C26_3 1_555 1_555
C26_3 C29_3 1_555 1_555
C30_3 H23_3 1_555 1_555
O27 C4_3 1_555 1_555
C4_3 O31 1_555 1_555
Gd7 N1_3 1_555 1_555
Gd13 O5_3 1_555 1_555
O1_2 C9_3 1_555 1_555
N1_3 C6_3 1_555 1_555
C1_3 H1_3 1_555 1_555
C3_3 C1_3 1_555 1_555
C5_3 C14_3 1_555 1_555
C6_3 H2_3 1_555 1_555
C7_3 N1_3 1_555 1_555
H3_3 C7_3 1_555 1_555
C8_3 C3_3 1_555 1_555
C9_3 C10_3 1_555 1_555
C10_3 C1_3 1_555 1_555
C11_3 C2_3 1_555 1_555
H4_3 C11_3 1_555 1_555
O3_2 C9_3 1_555 1_555
C13_3 C10_3 1_555 1_555
O5_3 Gd7 1_555 1_555
C14_3 C3_3 1_555 1_555
O6_3 C5_3 1_555 1_555
O8_3 Gd7 1_555 1_555
O10_3 Gd13 1_555 1_555
H9_3 O10_3 1_555 1_555
O11_3 Gd7 1_555 1_555
C15_5 O8_3 1_555 1_555
H11_5 C15_5 1_555 1_555
N2_3 C16_3 1_555 1_555
C16_3 O11_3 1_555 1_555
H12_3 C16_3 1_555 1_555
C17_3 N2_3 1_555 1_555
H13_3 C17_3 1_555 1_555
H14_5 C17_3 1_555 1_555
C18_3 N2_3 1_555 1_555
H16_3 C18_3 1_555 1_555
H17_3 C18_3 1_555 1_555
H18_3 C18_3 1_555 1_555
O24_3 Gd7 1_555 1_555
Gd8_2 O3_2 1_555 1_555
Gd14_2 O1_2 1_555 1_555
O26_2 Gd13 1_555 1_555
O30_2 Gd7 1_555 1_555
O33 Gd13 1_555 1_555
Gd13 O24_3 1_555 1_555
C2_3 C7_3 1_555 1_555
C6_3 C8_3 1_555 1_555
C8_3 C11_3 1_555 1_555
C12_3 H5_3 1_555 1_555
Gd13_2 O5_4 1_555 1_555
O5_4 Gd7_2 1_555 1_555
O9_2 Gd13_2 1_555 1_555
H7_2 O9_2 1_555 1_555
H8_2 O9_2 1_555 1_555
O10_4 Gd13_2 1_555 1_555
H9_4 O10_4 1_555 1_555
H10_2 O10_4 1_555 1_555
O11_4 Gd7_2 1_555 1_555
N2_4 C16_4 1_555 1_555
C16_4 O11_4 1_555 1_555
H12_4 C16_4 1_555 1_555
C17_4 N2_4 1_555 1_555
H13_4 C17_4 1_555 1_555
H14_6 C17_4 1_555 1_555
O12_4 Gd7_2 1_555 1_555
C18_4 N2_4 1_555 1_555
H16_4 C18_4 1_555 1_555
H17_4 C18_4 1_555 1_555
H18_4 C18_4 1_555 1_555
Gd8_2 O12_4 1_555 1_555
Gd14_2 O5_4 1_555 1_555
O18_4 Gd13_2 1_555 1_555
O21_2 Gd14_2 1_555 1_555
H25_2 O21_2 1_555 1_555
H26_2 O21_2 1_555 1_555
O22_4 Gd14_2 1_555 1_555
H27_4 O22_4 1_555 1_555
H28_2 O22_4 1_555 1_555
O23_4 Gd8_2 1_555 1_555
N4_4 C33_4 1_555 1_555
C33_4 O23_4 1_555 1_555
H29_4 C33_4 1_555 1_555
C34_4 N4_4 1_555 1_555
H30_4 C34_4 1_555 1_555
H31_4 C34_4 1_555 1_555
H32_4 C34_4 1_555 1_555
O24_4 Gd7_2 1_555 1_555
C35_4 N4_4 1_555 1_555
H33_4 C35_4 1_555 1_555
H34_4 C35_4 1_555 1_555
H35_4 C35_4 1_555 1_555
O33_2 Gd13_2 1_555 1_555
O34_2 Gd14_2 1_555 1_555
Gd13_2 O24_4 1_555 1_555
O12_4 Gd14_2 1_555 1_555
Gd8_2 O18_4 1_555 1_555
Gd8_2 O24_4 1_555 1_555
Gd14_2 O18_4 1_555 1_555
O27_2 C4_4 1_555 1_555
C4_4 O31_2 1_555 1_555
O25_2 C9_4 1_555 1_555
N1_4 C6_4 1_555 1_555
C1_4 H1_4 1_555 1_555
C3_4 C1_4 1_555 1_555
C5_4 C14_4 1_555 1_555
C6_4 H2_4 1_555 1_555
C7_4 N1_4 1_555 1_555
H3_4 C7_4 1_555 1_555
C8_4 C3_4 1_555 1_555
C9_4 C10_4 1_555 1_555
C10_4 C1_4 1_555 1_555
C11_4 C2_4 1_555 1_555
H4_4 C11_4 1_555 1_555
C12_4 H5_4 1_555 1_555
O29_2 C9_4 1_555 1_555
C13_4 C10_4 1_555 1_555
H6_4 C13_4 1_555 1_555
C14_4 C3_4 1_555 1_555
O6_4 C5_4 1_555 1_555
O33_2 C5_4 1_555 1_555
C15_6 O8_4 1_555 1_555
H11_6 C15_6 1_555 1_555
O13_4 C15_6 1_555 1_555
O26_2 C27_4 1_555 1_555
O28_2 C22_4 1_555 1_555
C19_4 H19_4 1_555 1_555
C20_4 C22_4 1_555 1_555
C21_4 C19_4 1_555 1_555
C22_4 O32_2 1_555 1_555
C23_4 C32_4 1_555 1_555
C24_4 N3_4 1_555 1_555
H20_4 C24_4 1_555 1_555
C25_4 N3_4 1_555 1_555
H21_4 C25_4 1_555 1_555
C26_4 C21_4 1_555 1_555
C27_4 C28_4 1_555 1_555
C28_4 C19_4 1_555 1_555
C29_4 C20_4 1_555 1_555
H22_4 C29_4 1_555 1_555
C30_4 H23_4 1_555 1_555
O30_2 C27_4 1_555 1_555
C31_4 C28_4 1_555 1_555
H24_4 C31_4 1_555 1_555
C32_4 C21_4 1_555 1_555
O19_4 C23_4 1_555 1_555
O34_2 C23_4 1_555 1_555
C2_4 C7_4 1_555 1_555
C6_4 C8_4 1_555 1_555
C8_4 C11_4 1_555 1_555
C12_4 C13_4 1_555 1_555
C12_4 C14_4 1_555 1_555
C20_4 C25_4 1_555 1_555
C24_4 C26_4 1_555 1_555
C26_4 C29_4 1_555 1_555
C30_4 C31_4 1_555 1_555
C30_4 C32_4 1_555 1_555
H7_3 O9_3 1_555 1_555
H8_3 O9_3 1_555 1_555
H25_3 O21_3 1_555 1_555
H26_3 O21_3 1_555 1_555
H25_4 O21_4 1_555 1_555
H26_4 O21_4 1_555 1_555
H7_4 O9_4 1_555 1_555
H8_4 O9_4 1_555 1_555

#END
