
###############################################################################
#
# This file contains modified crystal structure data generated from the
# MOF subset of the Cambridge Structural Database (CSD) v543 
# hosted by the Cambridge Crystallographic Data Centre (CCDC).
#
# This work is licensed under the Creative Commons
# Attribution-NonCommercial-ShareAlike 4.0 International License.
# To view a copy of this license, visit
# http://creativecommons.org/licenses/by-nc-sa/4.0/
# or send a letter to
# Creative Commons, PO Box 1866, Mountain View, CA 94042, USA.
#
# CIF created using the CSD Python API on 29 September 2022
# The structure has been converted into the P1 space group
# The structure has a 3D framework
# The original CSD entry VIKVET is in the monoclinic crystal system
# The framework has been calculated to contain at least 10.0% void space
# The void calculation uses a probe of radius 1.32A, grid spacing 0.4
#
###############################################################################

data_VIKVET
_chemical_formula_moiety         '(C142 H142 Er16 N16 O92)n'
_symmetry_cell_setting           triclinic
_symmetry_space_group_name_H-M   'P 1'
_symmetry_Int_Tables_number      1
_space_group_name_Hall           'P 1'
loop_
_symmetry_equiv_pos_site_id
_symmetry_equiv_pos_as_xyz
1 x,y,z
_cell_length_a                   25.594(4)
_cell_length_b                   10.3060(15)
_cell_length_c                   21.680(3)
_cell_angle_alpha                90
_cell_angle_beta                 109.638(2)
_cell_angle_gamma                90
_cell_volume                     5385.95
loop_
_atom_site_label
_atom_site_type_symbol
_atom_site_fract_x
_atom_site_fract_y
_atom_site_fract_z
O4 O 0.03617(18) 0.0198(4) 0.3438(2)
H1 H 0.0615 0.0617 0.3763
H2 H 0.0099 0.0020 0.3611
H4 H 0.1588 0.0334 0.3996
Er1 Er 0.03272(2) 0.57712(3) 0.18306(2)
Er2 Er 0.07286(2) 0.82786(2) 0.31513(2)
O1 O 0.02296(15) 0.7952(4) 0.20337(17)
O3 O 0.0178(2) 0.3675(4) 0.2095(2)
O5 O 0.15051(19) 0.9372(5) 0.3954(2)
H3 H 0.1819 0.8969 0.4322
O6 O 0.0634(3) 0.7041(5) 0.1086(3)
C1 C -0.0000 0.3142(9) 0.2500
H5 H 0.0000 0.2240 0.2500
C2 C 0.1068(5) 0.7403(10) 0.1027(5)
H6 H 0.1396 0.7106 0.1333
N1 N 0.1109(4) 0.8185(10) 0.0562(5)
C3 C 0.0578(6) 0.8892(16) 0.0139(7)
H8 H 0.0674 0.9723 0.0008
H9 H 0.0335 0.9012 0.0389
C4 C 0.1643(6) 0.8638(18) 0.0531(9)
H10 H 0.1629 0.9561 0.0468
H11 H 0.1716 0.8223 0.0172
H12 H 0.1932 0.8427 0.0933
N2 N 0.07288(19) 0.4177(5) 0.1194(2)
C5 C 0.1348(2) 0.2392(6) 0.1244(2)
C6 C 0.1076(2) 0.3241(6) 0.1526(2)
H13 H 0.1137 0.3160 0.1972
C7 C 0.1229(2) 0.2440(6) 0.0570(2)
H14 H 0.1393 0.1861 0.0361
C8 C 0.0634(2) 0.4233(6) 0.0552(2)
H15 H 0.0403 0.4886 0.0314
C9 C 0.0859(2) 0.3376(6) 0.0217(2)
O9 O 0.34573(16) 0.2275(4) 0.1903(2)
O10 O 0.06911(16) 0.0335(5) 0.15544(19)
O11 O 0.37251(17) 0.0770(5) 0.2684(2)
C11 C 0.2334(2) 0.1731(5) 0.1714(3)
H16 H 0.2409 0.2341 0.1439
C12 C 0.1781(2) 0.1509(5) 0.1674(2)
C13 C 0.1669(2) 0.0576(6) 0.2088(3)
C14 C 0.1086(2) 0.0255(6) 0.2077(3)
C15 C 0.3360(2) 0.1393(6) 0.2252(3)
C16 C 0.2773(2) 0.1055(6) 0.2161(3)
C18 C 0.2656(2) 0.0134(7) 0.2558(3)
O15 O 0.05011(14) 0.6070(4) 0.29567(16)
Er6 Er 0.46728(2) 0.07712(3) 0.31694(2)
Er8 Er 0.03272(2) 0.42288(3) 0.68306(2)
Er12 Er 0.42714(2) 0.32786(2) 0.18487(2)
O26 O 0.08210(18) 0.7485(4) 0.41947(17)
O28 O 0.03629(18) 0.5646(4) 0.41915(17)
O30 O 0.15427(16) 0.7275(4) 0.3097(2)
O32 O 0.12749(17) 0.5770(5) 0.2316(2)
O33 O 0.10529(17) 0.9850(4) 0.26138(19)
H7 H 0.0393 0.8383 0.9757
O7 O 0.08210(18) 0.2515(4) 0.91947(17)
O8 O 0.03629(18) 0.4354(4) 0.91915(17)
C10 C 0.0670(2) 0.3414(6) 0.9475(3)
Er14 Er 0.07286(2) 0.17214(2) 0.81513(2)
C17 C 0.2107(2) 0.9895(7) 0.2531(3)
H17 H 0.2037 0.9283 0.2808
H18 H 0.2944 0.9664 0.2848
O2 O 0.94989(14) 0.6070(4) 0.20433(16)
C1_2 C 1.0000 0.3142(9) 0.2500
H5_2 H 1.0000 0.2240 0.2500
O13 O 0.9822(2) 0.3675(4) 0.2905(2)
Er3 Er 0.96728(2) 0.57712(3) 0.31694(2)
Er4 Er 0.92714(2) 0.82786(2) 0.18487(2)
O14 O 0.97704(15) 0.7952(4) 0.29663(17)
O17 O 0.84949(19) 0.9372(5) 0.1046(2)
H21 H 0.8181 0.8969 0.0678
O18 O 0.9366(3) 0.7041(5) 0.3914(3)
C19 C 0.8932(5) 0.7403(10) 0.3973(5)
H23 H 0.8604 0.7106 0.3667
N3 N 0.8891(4) 0.8185(10) 0.4438(5)
C20 C 0.9422(6) 0.8892(16) 0.4861(7)
H24 H 0.9607 0.8383 0.5243
H25 H 0.9326 0.9723 0.4992
H26 H 0.9665 0.9012 0.4611
C21 C 0.8357(6) 0.8638(18) 0.4469(9)
H27 H 0.8371 0.9561 0.4532
H28 H 0.8284 0.8223 0.4828
H29 H 0.8068 0.8427 0.4067
O19 O 0.91790(18) 0.2515(4) 0.58053(17)
N4 N 0.92712(19) 0.4177(5) 0.3806(2)
O20 O 0.96371(18) 0.4354(4) 0.58085(17)
C22 C 0.8652(2) 0.2392(6) 0.3756(2)
C23 C 0.8924(2) 0.3241(6) 0.3474(2)
H30 H 0.8863 0.3160 0.3028
C24 C 0.8771(2) 0.2440(6) 0.4430(2)
H31 H 0.8607 0.1861 0.4639
C25 C 0.9366(2) 0.4233(6) 0.4448(2)
H32 H 0.9597 0.4886 0.4686
C26 C 0.9141(2) 0.3376(6) 0.4783(2)
C27 C 0.9330(2) 0.3414(6) 0.5525(3)
O21 O 0.65427(16) 0.2275(4) 0.3097(2)
O22 O 0.93089(16) 0.0335(5) 0.34456(19)
O23 O 0.62749(17) 0.0770(5) 0.2316(2)
C28 C 0.7666(2) 0.1731(5) 0.3286(3)
H33 H 0.7591 0.2341 0.3561
C29 C 0.8219(2) 0.1509(5) 0.3326(2)
C30 C 0.8331(2) 0.0576(6) 0.2912(3)
C31 C 0.8914(2) 0.0255(6) 0.2923(3)
C32 C 0.6640(2) 0.1393(6) 0.2748(3)
C33 C 0.7227(2) 0.1055(6) 0.2839(3)
C35 C 0.7344(2) 0.0134(7) 0.2442(3)
Er5 Er 0.53272(2) 0.07712(3) 0.18306(2)
Er11 Er 0.57286(2) 0.32786(2) 0.31513(2)
Er13 Er 0.92714(2) 0.17214(2) 0.68487(2)
O25 O 0.91790(18) 0.7485(4) 0.08053(17)
O27 O 0.96371(18) 0.5646(4) 0.08085(17)
O29 O 0.84573(16) 0.7275(4) 0.1903(2)
O31 O 0.87251(17) 0.5770(5) 0.2684(2)
O34 O 0.89471(17) 0.9850(4) 0.23862(19)
Er7 Er 0.96728(2) 0.42288(3) 0.81694(2)
C34 C 0.7893(2) 0.9895(7) 0.2469(3)
H34 H 0.7963 0.9283 0.2192
H35 H 0.7056 0.9664 0.2152
O1_2 O 0.52296(15) 0.2952(4) 0.20337(17)
O2_2 O 0.44989(14) 0.1070(4) 0.20433(16)
O4_2 O 0.53617(18) 0.5198(4) 0.3438(2)
H1_2 H 0.5615 0.5617 0.3763
H2_2 H 0.5099 0.5020 0.3611
O5_2 O 0.65051(19) 0.4372(5) 0.3954(2)
H3_2 H 0.6819 0.3969 0.4322
H4_2 H 0.6588 0.5334 0.3996
O6_2 O 0.5634(3) 0.2041(5) 0.1086(3)
C2_2 C 0.6068(5) 0.2403(10) 0.1027(5)
H6_2 H 0.6396 0.2106 0.1333
N1_2 N 0.6109(4) 0.3185(10) 0.0562(5)
C3_2 C 0.5578(6) 0.3892(16) 0.0139(7)
H8_2 H 0.5674 0.4723 0.0008
H9_2 H 0.5335 0.4012 0.0389
C4_2 C 0.6643(6) 0.3638(18) 0.0531(9)
H10_2 H 0.6629 0.4561 0.0468
H11_2 H 0.6716 0.3223 0.0172
H12_2 H 0.6932 0.3427 0.0933
O14_2 O 0.47704(15) 0.2952(4) 0.29663(17)
O15_2 O 0.55011(14) 0.1070(4) 0.29567(16)
O16 O 0.46383(18) 0.5198(4) 0.1562(2)
H19 H 0.4385 0.5617 0.1237
H20 H 0.4901 0.5020 0.1389
O17_2 O 0.34949(19) 0.4372(5) 0.1046(2)
H21_2 H 0.3181 0.3969 0.0678
H22 H 0.3412 0.5334 0.1004
O18_2 O 0.4366(3) 0.2041(5) 0.3914(3)
C19_2 C 0.3932(5) 0.2403(10) 0.3973(5)
H23_2 H 0.3604 0.2106 0.3667
N3_2 N 0.3891(4) 0.3185(10) 0.4438(5)
C20_2 C 0.4422(6) 0.3892(16) 0.4861(7)
H24_2 H 0.4607 0.3383 0.5243
H25_2 H 0.4326 0.4723 0.4992
H26_2 H 0.4665 0.4012 0.4611
C21_2 C 0.3357(6) 0.3638(18) 0.4469(9)
H27_2 H 0.3371 0.4561 0.4532
H28_2 H 0.3284 0.3223 0.4828
H29_2 H 0.3068 0.3427 0.4067
O25_2 O 0.41790(18) 0.2485(4) 0.08053(17)
O26_2 O 0.58210(18) 0.2485(4) 0.41947(17)
O27_2 O 0.46371(18) 0.0646(4) 0.08085(17)
O28_2 O 0.53629(18) 0.0646(4) 0.41915(17)
O33_2 O 0.60529(17) 0.4850(4) 0.26138(19)
O34_2 O 0.39471(17) 0.4850(4) 0.23862(19)
O3_2 O 0.5178(2) 0.8675(4) 0.2095(2)
C1_3 C 0.5000 0.8142(9) 0.2500
H5_3 H 0.5000 0.7240 0.2500
N2_2 N 0.57288(19) 0.9177(5) 0.1194(2)
C5_2 C 0.6348(2) 0.7392(6) 0.1244(2)
C6_2 C 0.6076(2) 0.8241(6) 0.1526(2)
H13_2 H 0.6137 0.8160 0.1972
C7_2 C 0.6229(2) 0.7440(6) 0.0570(2)
H14_2 H 0.6393 0.6861 0.0361
C8_2 C 0.5634(2) 0.9233(6) 0.0552(2)
H15_2 H 0.5403 0.9886 0.0314
C9_2 C 0.5859(2) 0.8376(6) 0.0217(2)
O10_2 O 0.56911(16) 0.5335(5) 0.15544(19)
C11_2 C 0.7334(2) 0.6731(5) 0.1714(3)
H16_2 H 0.7409 0.7341 0.1439
C12_2 C 0.6781(2) 0.6509(5) 0.1674(2)
C13_2 C 0.6669(2) 0.5576(6) 0.2088(3)
C14_2 C 0.6086(2) 0.5255(6) 0.2077(3)
C15_2 C 0.8360(2) 0.6393(6) 0.2252(3)
C16_2 C 0.7773(2) 0.6055(6) 0.2161(3)
C17_2 C 0.7107(2) 0.4895(7) 0.2531(3)
H17_2 H 0.7037 0.4283 0.2808
C18_2 C 0.7656(2) 0.5134(7) 0.2558(3)
H18_2 H 0.7944 0.4664 0.2848
O13_2 O 0.4822(2) 0.8675(4) 0.2905(2)
O19_2 O 0.41790(18) 0.7515(4) 0.58053(17)
N4_2 N 0.42712(19) 0.9177(5) 0.3806(2)
O20_2 O 0.46371(18) 0.9354(4) 0.58085(17)
C22_2 C 0.3652(2) 0.7392(6) 0.3756(2)
C23_2 C 0.3924(2) 0.8241(6) 0.3474(2)
H30_2 H 0.3863 0.8160 0.3028
C24_2 C 0.3771(2) 0.7440(6) 0.4430(2)
H31_2 H 0.3607 0.6861 0.4639
C25_2 C 0.4366(2) 0.9233(6) 0.4448(2)
H32_2 H 0.4597 0.9886 0.4686
C26_2 C 0.4141(2) 0.8376(6) 0.4783(2)
C27_2 C 0.4330(2) 0.8414(6) 0.5525(3)
O22_2 O 0.43089(16) 0.5335(5) 0.34456(19)
C28_2 C 0.2666(2) 0.6731(5) 0.3286(3)
H33_2 H 0.2591 0.7341 0.3561
C29_2 C 0.3219(2) 0.6509(5) 0.3326(2)
C30_2 C 0.3331(2) 0.5576(6) 0.2912(3)
C31_2 C 0.3914(2) 0.5255(6) 0.2923(3)
C32_2 C 0.1640(2) 0.6393(6) 0.2748(3)
C33_2 C 0.2227(2) 0.6055(6) 0.2839(3)
C34_2 C 0.2893(2) 0.4895(7) 0.2469(3)
H34_2 H 0.2963 0.4283 0.2192
C35_2 C 0.2344(2) 0.5134(7) 0.2442(3)
H35_2 H 0.2056 0.4664 0.2152
Er8_2 Er 0.53272(2) 0.92288(3) 0.68306(2)
Er13_2 Er 0.42714(2) 0.67214(2) 0.68487(2)
O7_2 O 0.58210(18) 0.7515(4) 0.91947(17)
O8_2 O 0.53629(18) 0.9354(4) 0.91915(17)
C10_2 C 0.5670(2) 0.8414(6) 0.9475(3)
Er7_2 Er 0.46728(2) 0.92288(3) 0.81694(2)
Er14_2 Er 0.57286(2) 0.67214(2) 0.81513(2)
C34_3 C 0.2107(2) 0.0105(7) 0.7531(3)
H34_3 H 0.2037 0.0717 0.7808
H35_3 H 0.2944 0.0336 0.7848
O24 O 0.10529(17) 0.0150(4) 0.76138(19)
O2_3 O 0.05011(14) 0.3930(4) 0.79567(16)
C1_4 C 0.0000 0.6858(9) 0.7500
H5_4 H 0.0000 0.7760 0.7500
O13_3 O 0.0178(2) 0.6325(4) 0.7095(2)
O14_3 O 0.02296(15) 0.2048(4) 0.70337(17)
O17_3 O 0.15051(19) 0.0628(5) 0.8954(2)
H21_3 H 0.1819 0.1031 0.9322
O18_3 O 0.0634(3) 0.2959(5) 0.6086(3)
C19_3 C 0.1068(5) 0.2597(10) 0.6027(5)
H23_3 H 0.1396 0.2894 0.6333
N3_3 N 0.1109(4) 0.1815(10) 0.5562(5)
C20_3 C 0.0578(6) 0.1108(16) 0.5139(7)
H24_3 H 0.0393 0.1617 0.4757
H25_3 H 0.0674 0.0277 0.5008
H26_3 H 0.0335 0.0988 0.5389
C21_3 C 0.1643(6) 0.1362(18) 0.5531(9)
H27_3 H 0.1629 0.0439 0.5468
H28_3 H 0.1716 0.1777 0.5172
H29_3 H 0.1932 0.1573 0.5933
N4_3 N 0.07288(19) 0.5823(5) 0.6194(2)
C22_3 C 0.1348(2) 0.7608(6) 0.6244(2)
C23_3 C 0.1076(2) 0.6759(6) 0.6526(2)
H30_3 H 0.1137 0.6840 0.6972
C24_3 C 0.1229(2) 0.7560(6) 0.5570(2)
H31_3 H 0.1393 0.8139 0.5361
C25_3 C 0.0634(2) 0.5767(6) 0.5552(2)
H32_3 H 0.0403 0.5114 0.5314
C26_3 C 0.0859(2) 0.6624(6) 0.5217(2)
C27_3 C 0.0670(2) 0.6586(6) 0.4475(3)
O21_2 O 0.34573(16) 0.7725(4) 0.6903(2)
O22_3 O 0.06911(16) 0.9665(5) 0.65544(19)
O23_2 O 0.37251(17) 0.9230(5) 0.7684(2)
C28_3 C 0.2334(2) 0.8269(5) 0.6714(3)
H33_3 H 0.2409 0.7659 0.6439
C29_3 C 0.1781(2) 0.8491(5) 0.6674(2)
C30_3 C 0.1669(2) 0.9424(6) 0.7088(3)
C31_3 C 0.1086(2) 0.9745(6) 0.7077(3)
C32_3 C 0.3360(2) 0.8607(6) 0.7252(3)
C33_3 C 0.2773(2) 0.8945(6) 0.7161(3)
C35_3 C 0.2656(2) 0.9866(7) 0.7558(3)
O29_2 O 0.15427(16) 0.2725(4) 0.8097(2)
O31_2 O 0.12749(17) 0.4230(5) 0.7316(2)
C17_3 C 0.7893(2) 0.0105(7) 0.7469(3)
H17_3 H 0.7963 0.0717 0.7192
H18_3 H 0.7056 0.0336 0.7152
O12 O 0.89471(17) 0.0150(4) 0.73862(19)
H7_2 H 0.9607 0.1617 0.0243
C10_3 C 0.9330(2) 0.6586(6) 0.0525(3)
O1_3 O 0.97704(15) 0.2048(4) 0.79663(17)
O3_3 O 0.9822(2) 0.6325(4) 0.7905(2)
O5_3 O 0.84949(19) 0.0628(5) 0.6046(2)
H3_3 H 0.8181 0.1031 0.5678
O6_3 O 0.9366(3) 0.2959(5) 0.8914(3)
C1_5 C 1.0000 0.6858(9) 0.7500
H5_5 H 1.0000 0.7760 0.7500
C2_3 C 0.8932(5) 0.2597(10) 0.8973(5)
H6_3 H 0.8604 0.2894 0.8667
N1_3 N 0.8891(4) 0.1815(10) 0.9438(5)
C3_3 C 0.9422(6) 0.1108(16) 0.9861(7)
H8_3 H 0.9326 0.0277 0.9992
H9_3 H 0.9665 0.0988 0.9611
C4_3 C 0.8357(6) 0.1362(18) 0.9469(9)
H10_3 H 0.8371 0.0439 0.9532
H11_3 H 0.8284 0.1777 0.9828
H12_3 H 0.8068 0.1573 0.9067
N2_3 N 0.92712(19) 0.5823(5) 0.8806(2)
C5_3 C 0.8652(2) 0.7608(6) 0.8756(2)
C6_3 C 0.8924(2) 0.6759(6) 0.8474(2)
H13_3 H 0.8863 0.6840 0.8028
C7_3 C 0.8771(2) 0.7560(6) 0.9430(2)
H14_3 H 0.8607 0.8139 0.9639
C8_3 C 0.9366(2) 0.5767(6) 0.9448(2)
H15_3 H 0.9597 0.5114 0.9686
C9_3 C 0.9141(2) 0.6624(6) 0.9783(2)
O9_2 O 0.65427(16) 0.7725(4) 0.8097(2)
O10_3 O 0.93089(16) 0.9665(5) 0.84456(19)
O11_2 O 0.62749(17) 0.9230(5) 0.7316(2)
C11_3 C 0.7666(2) 0.8269(5) 0.8286(3)
H16_3 H 0.7591 0.7659 0.8561
C12_3 C 0.8219(2) 0.8491(5) 0.8326(2)
C13_3 C 0.8331(2) 0.9424(6) 0.7912(3)
C14_3 C 0.8914(2) 0.9745(6) 0.7923(3)
C15_3 C 0.6640(2) 0.8607(6) 0.7748(3)
C16_3 C 0.7227(2) 0.8945(6) 0.7839(3)
C18_3 C 0.7344(2) 0.9866(7) 0.7442(3)
O15_3 O 0.94989(14) 0.3930(4) 0.70433(16)
O30_2 O 0.84573(16) 0.2725(4) 0.6903(2)
O32_2 O 0.87251(17) 0.4230(5) 0.7684(2)
C10_4 C 0.4330(2) 0.1586(6) 0.0525(3)
O3_4 O 0.4822(2) 0.1325(4) 0.7905(2)
C1_6 C 0.5000 0.1858(9) 0.7500
H5_6 H 0.5000 0.2760 0.7500
N2_4 N 0.42712(19) 0.0823(5) 0.8806(2)
C5_4 C 0.3652(2) 0.2608(6) 0.8756(2)
C6_4 C 0.3924(2) 0.1759(6) 0.8474(2)
H13_4 H 0.3863 0.1840 0.8028
C7_4 C 0.3771(2) 0.2560(6) 0.9430(2)
H14_4 H 0.3607 0.3139 0.9639
C8_4 C 0.4366(2) 0.0767(6) 0.9448(2)
H15_4 H 0.4597 0.0114 0.9686
C9_4 C 0.4141(2) 0.1624(6) 0.9783(2)
O10_4 O 0.43089(16) 0.4665(5) 0.84456(19)
C11_4 C 0.2666(2) 0.3269(5) 0.8286(3)
H16_4 H 0.2591 0.2659 0.8561
C12_4 C 0.3219(2) 0.3491(5) 0.8326(2)
C13_4 C 0.3331(2) 0.4424(6) 0.7912(3)
C14_4 C 0.3914(2) 0.4745(6) 0.7923(3)
C15_4 C 0.1640(2) 0.3607(6) 0.7748(3)
C16_4 C 0.2227(2) 0.3945(6) 0.7839(3)
C17_4 C 0.2893(2) 0.5105(7) 0.7469(3)
H17_4 H 0.2963 0.5717 0.7192
C18_4 C 0.2344(2) 0.4866(7) 0.7442(3)
H18_4 H 0.2056 0.5336 0.7152
O12_2 O 0.39471(17) 0.5150(4) 0.73862(19)
O13_4 O 0.5178(2) 0.1325(4) 0.7095(2)
N4_4 N 0.57288(19) 0.0823(5) 0.6194(2)
C22_4 C 0.6348(2) 0.2608(6) 0.6244(2)
C23_4 C 0.6076(2) 0.1759(6) 0.6526(2)
H30_4 H 0.6137 0.1840 0.6972
C24_4 C 0.6229(2) 0.2560(6) 0.5570(2)
H31_4 H 0.6393 0.3139 0.5361
C25_4 C 0.5634(2) 0.0767(6) 0.5552(2)
H32_4 H 0.5403 0.0114 0.5314
C26_4 C 0.5859(2) 0.1624(6) 0.5217(2)
C27_4 C 0.5670(2) 0.1586(6) 0.4475(3)
O22_4 O 0.56911(16) 0.4665(5) 0.65544(19)
C28_4 C 0.7334(2) 0.3269(5) 0.6714(3)
H33_4 H 0.7409 0.2659 0.6439
C29_4 C 0.6781(2) 0.3491(5) 0.6674(2)
C30_4 C 0.6669(2) 0.4424(6) 0.7088(3)
C31_4 C 0.6086(2) 0.4745(6) 0.7077(3)
C32_4 C 0.8360(2) 0.3607(6) 0.7252(3)
C33_4 C 0.7773(2) 0.3945(6) 0.7161(3)
C34_4 C 0.7107(2) 0.5105(7) 0.7531(3)
H34_4 H 0.7037 0.5717 0.7808
C35_4 C 0.7656(2) 0.4866(7) 0.7558(3)
H35_4 H 0.7944 0.5336 0.7848
O24_2 O 0.60529(17) 0.5150(4) 0.76138(19)
O1_4 O 0.47704(15) 0.7048(4) 0.79663(17)
O2_4 O 0.55011(14) 0.8930(4) 0.79567(16)
O4_3 O 0.46383(18) 0.4802(4) 0.6562(2)
H1_3 H 0.4385 0.4383 0.6237
H2_3 H 0.4901 0.4980 0.6389
O5_4 O 0.34949(19) 0.5628(5) 0.6046(2)
H3_4 H 0.3181 0.6031 0.5678
H4_3 H 0.3412 0.4666 0.6004
O6_4 O 0.4366(3) 0.7959(5) 0.8914(3)
C2_4 C 0.3932(5) 0.7597(10) 0.8973(5)
H6_4 H 0.3604 0.7894 0.8667
N1_4 N 0.3891(4) 0.6815(10) 0.9438(5)
C3_4 C 0.4422(6) 0.6108(16) 0.9861(7)
H8_4 H 0.4326 0.5277 0.9992
H9_4 H 0.4665 0.5988 0.9611
C4_4 C 0.3357(6) 0.6362(18) 0.9469(9)
H10_4 H 0.3371 0.5439 0.9532
H11_4 H 0.3284 0.6777 0.9828
H12_4 H 0.3068 0.6573 0.9067
O14_4 O 0.52296(15) 0.7048(4) 0.70337(17)
O15_4 O 0.44989(14) 0.8930(4) 0.70433(16)
O16_2 O 0.53617(18) 0.4802(4) 0.8438(2)
H19_2 H 0.5615 0.4383 0.8763
H20_2 H 0.5099 0.4980 0.8611
O17_4 O 0.65051(19) 0.5628(5) 0.8954(2)
H21_4 H 0.6819 0.6031 0.9322
H22_2 H 0.6588 0.4666 0.8996
O18_4 O 0.5634(3) 0.7959(5) 0.6086(3)
C19_4 C 0.6068(5) 0.7597(10) 0.6027(5)
H23_4 H 0.6396 0.7894 0.6333
N3_4 N 0.6109(4) 0.6815(10) 0.5562(5)
C20_4 C 0.5578(6) 0.6108(16) 0.5139(7)
H24_4 H 0.5393 0.6617 0.4757
H25_4 H 0.5674 0.5277 0.5008
H26_4 H 0.5335 0.5988 0.5389
C21_4 C 0.6643(6) 0.6362(18) 0.5531(9)
H27_4 H 0.6629 0.5439 0.5468
H28_4 H 0.6716 0.6777 0.5172
H29_4 H 0.6932 0.6573 0.5933
O16_3 O 0.96383(18) 0.0198(4) 0.1562(2)
H19_3 H 0.9385 0.0617 0.1237
H20_3 H 0.9901 0.0020 0.1389
H22_3 H 0.8412 0.0334 0.1004
H7_3 H 0.5393 0.3383 0.9757
O16_4 O 0.03617(18) 0.9802(4) 0.8438(2)
H19_4 H 0.0615 0.9383 0.8763
H20_4 H 0.0099 0.9980 0.8611
H22_4 H 0.1588 0.9666 0.8996
O4_4 O 0.96383(18) 0.9802(4) 0.6562(2)
H1_4 H 0.9385 0.9383 0.6237
H2_4 H 0.9901 0.9980 0.6389
H4_4 H 0.8412 0.9666 0.6004
H7_4 H 0.4607 0.6617 0.0243
loop_
_geom_bond_atom_site_label_1
_geom_bond_atom_site_label_2
_geom_bond_site_symmetry_1
_geom_bond_site_symmetry_2
H1 O4 1_555 1_555
H2 O4 1_555 1_555
Er1 O1 1_555 1_555
Er2 O1 1_555 1_555
O3 Er1 1_555 1_555
O5 Er2 1_555 1_555
H3 O5 1_555 1_555
O6 Er1 1_555 1_555
C1 O3 1_555 1_555
H5 C1 1_555 1_555
C2 O6 1_555 1_555
H6 C2 1_555 1_555
N1 C2 1_555 1_555
C3 N1 1_555 1_555
H8 C3 1_555 1_555
H9 C3 1_555 1_555
C4 N1 1_555 1_555
H10 C4 1_555 1_555
H11 C4 1_555 1_555
H12 C4 1_555 1_555
N2 Er1 1_555 1_555
C5 C6 1_555 1_555
C6 N2 1_555 1_555
H13 C6 1_555 1_555
C7 C5 1_555 1_555
H14 C7 1_555 1_555
C8 N2 1_555 1_555
H15 C8 1_555 1_555
C9 C7 1_555 1_555
O9 C15 1_555 1_555
O10 C14 1_555 1_555
O11 C15 1_555 1_555
C11 H16 1_555 1_555
C12 C5 1_555 1_555
C13 C12 1_555 1_555
C14 C13 1_555 1_555
C15 C16 1_555 1_555
C16 C11 1_555 1_555
C18 C16 1_555 1_555
O15 Er1 1_555 1_555
Er6 O11 1_555 1_555
Er12 O9 1_555 1_555
O26 Er2 1_555 1_555
O30 Er2 1_555 1_555
O32 Er1 1_555 1_555
O33 Er2 1_555 1_555
Er2 O15 1_555 1_555
C8 C9 1_555 1_555
C11 C12 1_555 1_555
O7 C10 1_555 1_555
O8 C10 1_555 1_555
Er14 O7 1_555 1_555
H17 C17 1_555 1_555
H5_2 C1_2 1_555 1_555
O13 C1_2 1_555 1_555
Er3 O2 1_555 1_555
Er4 O2 1_555 1_555
O17 Er4 1_555 1_555
H21 O17 1_555 1_555
O18 Er3 1_555 1_555
C19 O18 1_555 1_555
H23 C19 1_555 1_555
N3 C19 1_555 1_555
C20 N3 1_555 1_555
H24 C20 1_555 1_555
H25 C20 1_555 1_555
H26 C20 1_555 1_555
C21 N3 1_555 1_555
H27 C21 1_555 1_555
H28 C21 1_555 1_555
H29 C21 1_555 1_555
O19 C27 1_555 1_555
N4 Er3 1_555 1_555
O20 C27 1_555 1_555
C22 C23 1_555 1_555
C23 N4 1_555 1_555
H30 C23 1_555 1_555
C24 C22 1_555 1_555
H31 C24 1_555 1_555
C25 N4 1_555 1_555
H32 C25 1_555 1_555
C26 C24 1_555 1_555
C27 C26 1_555 1_555
O21 C32 1_555 1_555
O22 C31 1_555 1_555
O23 C32 1_555 1_555
C28 H33 1_555 1_555
C29 C22 1_555 1_555
C30 C29 1_555 1_555
C31 C30 1_555 1_555
C32 C33 1_555 1_555
C33 C28 1_555 1_555
C35 C33 1_555 1_555
Er5 O23 1_555 1_555
Er11 O21 1_555 1_555
Er13 O19 1_555 1_555
O25 Er4 1_555 1_555
O29 Er4 1_555 1_555
O31 Er3 1_555 1_555
O34 Er4 1_555 1_555
O13 Er3 1_555 1_555
Er3 O14 1_555 1_555
Er4 O14 1_555 1_555
C25 C26 1_555 1_555
C28 C29 1_555 1_555
H34 C34 1_555 1_555
Er5 O1_2 1_555 1_555
Er11 O1_2 1_555 1_555
O1_2 Er12 1_555 1_555
O2_2 Er5 1_555 1_555
O4_2 Er11 1_555 1_555
H1_2 O4_2 1_555 1_555
H2_2 O4_2 1_555 1_555
O5_2 Er11 1_555 1_555
H3_2 O5_2 1_555 1_555
H4_2 O5_2 1_555 1_555
O6_2 Er5 1_555 1_555
C2_2 O6_2 1_555 1_555
H6_2 C2_2 1_555 1_555
N1_2 C2_2 1_555 1_555
C3_2 N1_2 1_555 1_555
H8_2 C3_2 1_555 1_555
H9_2 C3_2 1_555 1_555
C4_2 N1_2 1_555 1_555
H10_2 C4_2 1_555 1_555
H11_2 C4_2 1_555 1_555
H12_2 C4_2 1_555 1_555
Er6 O2_2 1_555 1_555
Er12 O2_2 1_555 1_555
O14_2 Er11 1_555 1_555
O15_2 Er5 1_555 1_555
O16 Er12 1_555 1_555
H19 O16 1_555 1_555
H20 O16 1_555 1_555
O17_2 Er12 1_555 1_555
H21_2 O17_2 1_555 1_555
H22 O17_2 1_555 1_555
O18_2 Er6 1_555 1_555
C19_2 O18_2 1_555 1_555
H23_2 C19_2 1_555 1_555
N3_2 C19_2 1_555 1_555
C20_2 N3_2 1_555 1_555
H24_2 C20_2 1_555 1_555
H25_2 C20_2 1_555 1_555
H26_2 C20_2 1_555 1_555
C21_2 N3_2 1_555 1_555
H27_2 C21_2 1_555 1_555
H28_2 C21_2 1_555 1_555
H29_2 C21_2 1_555 1_555
O25_2 Er12 1_555 1_555
O26_2 Er11 1_555 1_555
O27_2 Er5 1_555 1_555
O28_2 Er6 1_555 1_555
O33_2 Er11 1_555 1_555
O34_2 Er12 1_555 1_555
Er11 O15_2 1_555 1_555
Er6 O14_2 1_555 1_555
Er6 O15_2 1_555 1_555
Er12 O14_2 1_555 1_555
C1_3 O3_2 1_555 1_555
H5_3 C1_3 1_555 1_555
C5_2 C6_2 1_555 1_555
C6_2 N2_2 1_555 1_555
H13_2 C6_2 1_555 1_555
C7_2 C5_2 1_555 1_555
H14_2 C7_2 1_555 1_555
C8_2 N2_2 1_555 1_555
H15_2 C8_2 1_555 1_555
C9_2 C7_2 1_555 1_555
O29 C15_2 1_555 1_555
O10_2 C14_2 1_555 1_555
O31 C15_2 1_555 1_555
C11_2 H16_2 1_555 1_555
C12_2 C5_2 1_555 1_555
C13_2 C12_2 1_555 1_555
C14_2 C13_2 1_555 1_555
C15_2 C16_2 1_555 1_555
C16_2 C11_2 1_555 1_555
C17_2 C13_2 1_555 1_555
H17_2 C17_2 1_555 1_555
C18_2 C16_2 1_555 1_555
H18_2 C18_2 1_555 1_555
O33_2 C14_2 1_555 1_555
O13_2 C1_3 1_555 1_555
O19_2 C27_2 1_555 1_555
O20_2 C27_2 1_555 1_555
C22_2 C23_2 1_555 1_555
C23_2 N4_2 1_555 1_555
H30_2 C23_2 1_555 1_555
C24_2 C22_2 1_555 1_555
H31_2 C24_2 1_555 1_555
C25_2 N4_2 1_555 1_555
H32_2 C25_2 1_555 1_555
C26_2 C24_2 1_555 1_555
C27_2 C26_2 1_555 1_555
O30 C32_2 1_555 1_555
O22_2 C31_2 1_555 1_555
O32 C32_2 1_555 1_555
C28_2 H33_2 1_555 1_555
C29_2 C22_2 1_555 1_555
C30_2 C29_2 1_555 1_555
C31_2 C30_2 1_555 1_555
C32_2 C33_2 1_555 1_555
C33_2 C28_2 1_555 1_555
C34_2 C30_2 1_555 1_555
H34_2 C34_2 1_555 1_555
C35_2 C33_2 1_555 1_555
H35_2 C35_2 1_555 1_555
O34_2 C31_2 1_555 1_555
Er8_2 O20_2 1_555 1_555
Er13_2 O19_2 1_555 1_555
C8_2 C9_2 1_555 1_555
C11_2 C12_2 1_555 1_555
C17_2 C18_2 1_555 1_555
C25_2 C26_2 1_555 1_555
C28_2 C29_2 1_555 1_555
C34_2 C35_2 1_555 1_555
O7_2 C10_2 1_555 1_555
O8_2 C10_2 1_555 1_555
Er7_2 O8_2 1_555 1_555
Er14_2 O7_2 1_555 1_555
H34_3 C34_3 1_555 1_555
Er14 O24 1_555 1_555
H5_4 C1_4 1_555 1_555
O13_3 C1_4 1_555 1_555
Er8 O2_3 1_555 1_555
Er14 O2_3 1_555 1_555
O17_3 Er14 1_555 1_555
H21_3 O17_3 1_555 1_555
O18_3 Er8 1_555 1_555
C19_3 O18_3 1_555 1_555
H23_3 C19_3 1_555 1_555
N3_3 C19_3 1_555 1_555
C20_3 N3_3 1_555 1_555
H24_3 C20_3 1_555 1_555
H25_3 C20_3 1_555 1_555
H26_3 C20_3 1_555 1_555
C21_3 N3_3 1_555 1_555
H27_3 C21_3 1_555 1_555
H28_3 C21_3 1_555 1_555
H29_3 C21_3 1_555 1_555
O26 C27_3 1_555 1_555
N4_3 Er8 1_555 1_555
O28 C27_3 1_555 1_555
C22_3 C23_3 1_555 1_555
C23_3 N4_3 1_555 1_555
H30_3 C23_3 1_555 1_555
C24_3 C22_3 1_555 1_555
H31_3 C24_3 1_555 1_555
C25_3 N4_3 1_555 1_555
H32_3 C25_3 1_555 1_555
C26_3 C24_3 1_555 1_555
C27_3 C26_3 1_555 1_555
O21_2 C32_3 1_555 1_555
O22_3 C31_3 1_555 1_555
O23_2 C32_3 1_555 1_555
C28_3 H33_3 1_555 1_555
C29_3 C22_3 1_555 1_555
C30_3 C29_3 1_555 1_555
C31_3 C30_3 1_555 1_555
C32_3 C33_3 1_555 1_555
C33_3 C28_3 1_555 1_555
C35_3 C33_3 1_555 1_555
Er7_2 O23_2 1_555 1_555
Er13_2 O21_2 1_555 1_555
O29_2 Er14 1_555 1_555
O31_2 Er8 1_555 1_555
O13_3 Er8 1_555 1_555
Er8 O14_3 1_555 1_555
Er14 O14_3 1_555 1_555
C25_3 C26_3 1_555 1_555
C28_3 C29_3 1_555 1_555
H17_3 C17_3 1_555 1_555
Er13 O12 1_555 1_555
O25 C10_3 1_555 1_555
O27 C10_3 1_555 1_555
Er7 O1_3 1_555 1_555
Er13 O1_3 1_555 1_555
O3_3 Er7 1_555 1_555
O5_3 Er13 1_555 1_555
H3_3 O5_3 1_555 1_555
O6_3 Er7 1_555 1_555
C1_5 O3_3 1_555 1_555
H5_5 C1_5 1_555 1_555
C2_3 O6_3 1_555 1_555
H6_3 C2_3 1_555 1_555
N1_3 C2_3 1_555 1_555
C3_3 N1_3 1_555 1_555
H8_3 C3_3 1_555 1_555
H9_3 C3_3 1_555 1_555
C4_3 N1_3 1_555 1_555
H10_3 C4_3 1_555 1_555
H11_3 C4_3 1_555 1_555
H12_3 C4_3 1_555 1_555
N2_3 Er7 1_555 1_555
C5_3 C6_3 1_555 1_555
C6_3 N2_3 1_555 1_555
H13_3 C6_3 1_555 1_555
C7_3 C5_3 1_555 1_555
H14_3 C7_3 1_555 1_555
C8_3 N2_3 1_555 1_555
H15_3 C8_3 1_555 1_555
C9_3 C7_3 1_555 1_555
O9_2 C15_3 1_555 1_555
O10_3 C14_3 1_555 1_555
O11_2 C15_3 1_555 1_555
C11_3 H16_3 1_555 1_555
C12_3 C5_3 1_555 1_555
C13_3 C12_3 1_555 1_555
C14_3 C13_3 1_555 1_555
C15_3 C16_3 1_555 1_555
C16_3 C11_3 1_555 1_555
C18_3 C16_3 1_555 1_555
O15_3 Er7 1_555 1_555
Er8_2 O11_2 1_555 1_555
Er14_2 O9_2 1_555 1_555
O30_2 Er13 1_555 1_555
O32_2 Er7 1_555 1_555
Er13 O15_3 1_555 1_555
C8_3 C9_3 1_555 1_555
C11_3 C12_3 1_555 1_555
O25_2 C10_4 1_555 1_555
O27_2 C10_4 1_555 1_555
C1_6 O3_4 1_555 1_555
H5_6 C1_6 1_555 1_555
C5_4 C6_4 1_555 1_555
C6_4 N2_4 1_555 1_555
H13_4 C6_4 1_555 1_555
C7_4 C5_4 1_555 1_555
H14_4 C7_4 1_555 1_555
C8_4 N2_4 1_555 1_555
H15_4 C8_4 1_555 1_555
C9_4 C7_4 1_555 1_555
O29_2 C15_4 1_555 1_555
O10_4 C14_4 1_555 1_555
O31_2 C15_4 1_555 1_555
C11_4 H16_4 1_555 1_555
C12_4 C5_4 1_555 1_555
C13_4 C12_4 1_555 1_555
C14_4 C13_4 1_555 1_555
C15_4 C16_4 1_555 1_555
C16_4 C11_4 1_555 1_555
C17_4 C13_4 1_555 1_555
H17_4 C17_4 1_555 1_555
C18_4 C16_4 1_555 1_555
H18_4 C18_4 1_555 1_555
O12_2 C14_4 1_555 1_555
O13_4 C1_6 1_555 1_555
O26_2 C27_4 1_555 1_555
O28_2 C27_4 1_555 1_555
C22_4 C23_4 1_555 1_555
C23_4 N4_4 1_555 1_555
H30_4 C23_4 1_555 1_555
C24_4 C22_4 1_555 1_555
H31_4 C24_4 1_555 1_555
C25_4 N4_4 1_555 1_555
H32_4 C25_4 1_555 1_555
C26_4 C24_4 1_555 1_555
C27_4 C26_4 1_555 1_555
O30_2 C32_4 1_555 1_555
O22_4 C31_4 1_555 1_555
O32_2 C32_4 1_555 1_555
C28_4 H33_4 1_555 1_555
C29_4 C22_4 1_555 1_555
C30_4 C29_4 1_555 1_555
C31_4 C30_4 1_555 1_555
C32_4 C33_4 1_555 1_555
C33_4 C28_4 1_555 1_555
C34_4 C30_4 1_555 1_555
H34_4 C34_4 1_555 1_555
C35_4 C33_4 1_555 1_555
H35_4 C35_4 1_555 1_555
O24_2 C31_4 1_555 1_555
Er13_2 O12_2 1_555 1_555
Er14_2 O24_2 1_555 1_555
C8_4 C9_4 1_555 1_555
C11_4 C12_4 1_555 1_555
C17_4 C18_4 1_555 1_555
C25_4 C26_4 1_555 1_555
C28_4 C29_4 1_555 1_555
C34_4 C35_4 1_555 1_555
Er7_2 O1_4 1_555 1_555
Er13_2 O1_4 1_555 1_555
O1_4 Er14_2 1_555 1_555
O2_4 Er7_2 1_555 1_555
O4_3 Er13_2 1_555 1_555
H1_3 O4_3 1_555 1_555
H2_3 O4_3 1_555 1_555
O5_4 Er13_2 1_555 1_555
H3_4 O5_4 1_555 1_555
H4_3 O5_4 1_555 1_555
O6_4 Er7_2 1_555 1_555
C2_4 O6_4 1_555 1_555
H6_4 C2_4 1_555 1_555
N1_4 C2_4 1_555 1_555
C3_4 N1_4 1_555 1_555
H8_4 C3_4 1_555 1_555
H9_4 C3_4 1_555 1_555
C4_4 N1_4 1_555 1_555
H10_4 C4_4 1_555 1_555
H11_4 C4_4 1_555 1_555
H12_4 C4_4 1_555 1_555
Er8_2 O2_4 1_555 1_555
Er14_2 O2_4 1_555 1_555
O14_4 Er13_2 1_555 1_555
O15_4 Er7_2 1_555 1_555
O16_2 Er14_2 1_555 1_555
H19_2 O16_2 1_555 1_555
H20_2 O16_2 1_555 1_555
O17_4 Er14_2 1_555 1_555
H21_4 O17_4 1_555 1_555
H22_2 O17_4 1_555 1_555
O18_4 Er8_2 1_555 1_555
C19_4 O18_4 1_555 1_555
H23_4 C19_4 1_555 1_555
N3_4 C19_4 1_555 1_555
C20_4 N3_4 1_555 1_555
H24_4 C20_4 1_555 1_555
H25_4 C20_4 1_555 1_555
H26_4 C20_4 1_555 1_555
C21_4 N3_4 1_555 1_555
H27_4 C21_4 1_555 1_555
H28_4 C21_4 1_555 1_555
H29_4 C21_4 1_555 1_555
Er13_2 O15_4 1_555 1_555
Er8_2 O14_4 1_555 1_555
Er8_2 O15_4 1_555 1_555
Er14_2 O14_4 1_555 1_555
H19_3 O16_3 1_555 1_555
H20_3 O16_3 1_555 1_555
H19_4 O16_4 1_555 1_555
H20_4 O16_4 1_555 1_555
H1_4 O4_4 1_555 1_555
H2_4 O4_4 1_555 1_555

#END
