
###############################################################################
#
# This file contains modified crystal structure data generated from the
# MOF subset of the Cambridge Structural Database (CSD) v543 
# hosted by the Cambridge Crystallographic Data Centre (CCDC).
#
# This work is licensed under the Creative Commons
# Attribution-NonCommercial-ShareAlike 4.0 International License.
# To view a copy of this license, visit
# http://creativecommons.org/licenses/by-nc-sa/4.0/
# or send a letter to
# Creative Commons, PO Box 1866, Mountain View, CA 94042, USA.
#
# CIF created using the CSD Python API on 29 September 2022
# The structure has been converted into the P1 space group
# The structure has a 3D framework
# The original CSD entry VIKVIX is in the monoclinic crystal system
# The framework has been calculated to contain at least 10.0% void space
# The void calculation uses a probe of radius 1.32A, grid spacing 0.4
#
###############################################################################

data_VIKVIX
_chemical_formula_moiety         '(C142 H150 Dy16 N16 O92)n'
_symmetry_cell_setting           triclinic
_symmetry_space_group_name_H-M   'P 1'
_symmetry_Int_Tables_number      1
_space_group_name_Hall           'P 1'
loop_
_symmetry_equiv_pos_site_id
_symmetry_equiv_pos_as_xyz
1 x,y,z
_cell_length_a                   25.6353(16)
_cell_length_b                   10.4616(7)
_cell_length_c                   21.7893(15)
_cell_angle_alpha                90
_cell_angle_beta                 110.4380(10)
_cell_angle_gamma                90
_cell_volume                     5475.74
loop_
_atom_site_label
_atom_site_type_symbol
_atom_site_fract_x
_atom_site_fract_y
_atom_site_fract_z
Dy1 Dy 0.07426(2) 0.32400(2) 0.31587(2)
Dy2 Dy 0.03229(2) 0.07384(2) 0.18278(2)
O1 O 0.02261(14) 0.2903(4) 0.20301(17)
O7 O 0.03778(17) 0.5159(4) 0.3445(2)
H7 H 0.0008 0.5083 0.3478
H8 H 0.0331 0.5847 0.3132
O8 O 0.15382(18) 0.4281(4) 0.3961(2)
H9 H 0.1841 0.3876 0.4332
H10 H 0.1637 0.5208 0.3995
O9 O 0.0636(2) 0.1992(5) 0.1072(3)
O11 O 0.05106(13) 0.1032(3) 0.29665(16)
C16 C 0.1052(6) 0.2410(13) 0.1035(7)
H12 H 0.1377 0.2179 0.1372
N2 N 0.1115(5) 0.3153(11) 0.0584(6)
C17 C 0.0605(6) 0.3611(16) 0.0161(8)
H13 H 0.0656 0.4441 0.0003
H14 H 0.0348 0.3671 0.0392
C18 C 0.1644(6) 0.3617(18) 0.0573(9)
H16 H 0.1923 0.3509 0.0998
H17 H 0.1611 0.4506 0.0458
H18 H 0.1747 0.3142 0.0256
H19 H 0.032(4) 0.341(9) 0.188(5)
O26 O 0.15600(14) 0.2226(4) 0.3091(2)
O28 O 0.12812(15) 0.0751(5) 0.2314(2)
O29 O 0.10567(15) 0.4783(4) 0.26022(19)
O32 O 0.08288(16) 0.2461(4) 0.42105(17)
O34 O 0.03772(17) 0.0646(4) 0.42121(18)
N1 N 0.07256(17) 0.9130(4) 0.1199(2)
C1 C 0.1072(2) 0.8220(5) 0.1537(2)
H1 H 0.1138 0.8153 0.1983
C2 C 0.1082(2) 0.5216(5) 0.2082(3)
C3 C 0.0632(2) 0.9214(5) 0.0558(2)
H2 H 0.0408 0.9874 0.0322
C4 C 0.13375(19) 0.7372(5) 0.1258(2)
C5 C 0.0854(2) 0.8359(5) 0.0228(2)
C6 C 0.1660(2) 0.5558(5) 0.2095(2)
C7 C 0.2322(2) 0.6726(5) 0.1741(2)
H3 H 0.2395 0.7344 0.1475
O2 O 0.06814(15) 0.5356(4) 0.1568(2)
C8 C 0.17668(19) 0.6500(5) 0.1691(2)
C9 C 0.3348(2) 0.6372(6) 0.2254(3)
O3 O 0.34400(14) 0.7226(4) 0.1909(2)
O4 O 0.37188(15) 0.5751(5) 0.2686(2)
C10 C 0.1218(2) 0.7440(5) 0.0581(2)
H4 H 0.1383 0.6874 0.0374
C11 C 0.2650(2) 0.5133(6) 0.2568(3)
H5 H 0.2941 0.4671 0.2861
C12 C 0.2762(2) 0.6055(5) 0.2176(3)
C13 C 0.2108(2) 0.4892(6) 0.2528(3)
H6 H 0.2041 0.4271 0.2797
O6 O 0.01878(19) 0.8662(4) 0.2114(2)
C14 C 0.0000 0.8125(8) 0.2500
H11 H 0.0000 0.7236 0.2500
Dy8 Dy 0.42574(2) 0.82400(2) 0.18413(2)
Dy12 Dy 0.46771(2) 0.57384(2) 0.31722(2)
Dy14 Dy 0.03229(2) 0.92616(2) 0.68278(2)
O10 O 0.08288(16) 0.7539(4) 0.92105(17)
C15 C 0.0675(2) 0.8421(5) 0.9493(2)
O12 O 0.03772(17) 0.9354(4) 0.92121(18)
Dy10 Dy 0.07426(2) 0.67600(2) 0.81587(2)
Dy3 Dy 0.92574(2) 0.32400(2) 0.18413(2)
Dy4 Dy 0.96771(2) 0.07384(2) 0.31722(2)
O14 O 0.97739(14) 0.2903(4) 0.29699(17)
O19 O 0.96222(17) 0.5159(4) 0.1555(2)
H26 H 0.9992 0.5083 0.1522
H27 H 0.9669 0.5847 0.1868
O20 O 0.84618(18) 0.4281(4) 0.1039(2)
H28 H 0.8159 0.3876 0.0668
H29 H 0.8363 0.5208 0.1005
O21 O 0.9364(2) 0.1992(5) 0.3928(3)
O23 O 0.94894(13) 0.1032(3) 0.20335(16)
C33 C 0.8948(6) 0.2410(13) 0.3965(7)
H30 H 0.8623 0.2179 0.3628
N4 N 0.8885(5) 0.3153(11) 0.4416(6)
C34 C 0.9395(6) 0.3611(16) 0.4839(8)
H31 H 0.9344 0.4441 0.4997
H32 H 0.9652 0.3671 0.4608
H33 H 0.9540 0.3036 0.5202
C35 C 0.8356(6) 0.3617(18) 0.4427(9)
H34 H 0.8077 0.3509 0.4002
H35 H 0.8389 0.4506 0.4542
H36 H 0.8253 0.3142 0.4744
H37 H 0.968(4) 0.341(9) 0.312(5)
O25 O 0.84400(14) 0.2226(4) 0.1909(2)
O27 O 0.87188(15) 0.0751(5) 0.2686(2)
O30 O 0.89433(15) 0.4783(4) 0.23978(19)
O31 O 0.91712(16) 0.2461(4) 0.07895(17)
O33 O 0.96228(17) 0.0646(4) 0.07879(18)
C14_2 C 1.0000 0.8125(8) 0.2500
H11_2 H 1.0000 0.7236 0.2500
O13 O 0.98122(19) 0.8662(4) 0.2886(2)
N3 N 0.92744(17) 0.9130(4) 0.3801(2)
C19 C 0.8928(2) 0.8220(5) 0.3463(2)
H20 H 0.8862 0.8153 0.3017
C20 C 0.8918(2) 0.5216(5) 0.2918(3)
C21 C 0.9368(2) 0.9214(5) 0.4442(2)
H21 H 0.9592 0.9874 0.4678
C22 C 0.86625(19) 0.7372(5) 0.3742(2)
C23 C 0.9146(2) 0.8359(5) 0.4772(2)
C24 C 0.8340(2) 0.5558(5) 0.2905(2)
C25 C 0.7678(2) 0.6726(5) 0.3259(2)
H22 H 0.7605 0.7344 0.3525
O15 O 0.93186(15) 0.5356(4) 0.3432(2)
C26 C 0.82332(19) 0.6500(5) 0.3309(2)
C27 C 0.6652(2) 0.6372(6) 0.2746(3)
O16 O 0.65600(14) 0.7226(4) 0.3091(2)
O17 O 0.62812(15) 0.5751(5) 0.2314(2)
C28 C 0.8782(2) 0.7440(5) 0.4419(2)
H23 H 0.8617 0.6874 0.4626
C29 C 0.7350(2) 0.5133(6) 0.2432(3)
H24 H 0.7059 0.4671 0.2139
C30 C 0.7238(2) 0.6055(5) 0.2824(3)
C31 C 0.7892(2) 0.4892(6) 0.2472(3)
H25 H 0.7959 0.4271 0.2203
O22 O 0.91712(16) 0.7539(4) 0.57895(17)
C32 C 0.9325(2) 0.8421(5) 0.5507(2)
O24 O 0.96228(17) 0.9354(4) 0.57879(18)
Dy7 Dy 0.57426(2) 0.82400(2) 0.31587(2)
Dy9 Dy 0.92574(2) 0.67600(2) 0.68413(2)
Dy11 Dy 0.53229(2) 0.57384(2) 0.18278(2)
Dy13 Dy 0.96771(2) 0.92616(2) 0.81722(2)
O1_2 O 0.52261(14) 0.7903(4) 0.20301(17)
N1_2 N 0.57256(17) 0.4130(4) 0.1199(2)
C1_2 C 0.6072(2) 0.3220(5) 0.1537(2)
H1_2 H 0.6138 0.3153 0.1983
C2_2 C 0.6082(2) 0.0216(5) 0.2082(3)
C3_2 C 0.5632(2) 0.4214(5) 0.0558(2)
H2_2 H 0.5408 0.4874 0.0322
C4_2 C 0.63375(19) 0.2372(5) 0.1258(2)
C5_2 C 0.5854(2) 0.3359(5) 0.0228(2)
C6_2 C 0.6660(2) 0.0558(5) 0.2095(2)
C7_2 C 0.7322(2) 0.1726(5) 0.1741(2)
H3_2 H 0.7395 0.2344 0.1475
O2_2 O 0.56814(15) 0.0356(4) 0.1568(2)
C8_2 C 0.67668(19) 0.1500(5) 0.1691(2)
C9_2 C 0.8348(2) 0.1372(6) 0.2254(3)
C10_2 C 0.6218(2) 0.2440(5) 0.0581(2)
H4_2 H 0.6383 0.1874 0.0374
C11_2 C 0.7650(2) 0.0133(6) 0.2568(3)
C12_2 C 0.7762(2) 0.1055(5) 0.2176(3)
O6_2 O 0.51878(19) 0.3662(4) 0.2114(2)
O8_2 O 0.65382(18) 0.9281(4) 0.3961(2)
H9_2 H 0.6841 0.8876 0.4332
O9_2 O 0.5636(2) 0.6992(5) 0.1072(3)
C14_3 C 0.5000 0.3125(8) 0.2500
H11_3 H 0.5000 0.2236 0.2500
O11_2 O 0.55106(13) 0.6032(3) 0.29665(16)
C16_2 C 0.6052(6) 0.7410(13) 0.1035(7)
H12_2 H 0.6377 0.7179 0.1372
N2_2 N 0.6115(5) 0.8153(11) 0.0584(6)
C17_2 C 0.5605(6) 0.8611(16) 0.0161(8)
H13_2 H 0.5656 0.9441 0.0003
H14_2 H 0.5348 0.8671 0.0392
C18_2 C 0.6644(6) 0.8617(18) 0.0573(9)
H16_2 H 0.6923 0.8509 0.0998
H17_2 H 0.6611 0.9506 0.0458
H18_2 H 0.6747 0.8142 0.0256
H19_2 H 0.532(4) 0.841(9) 0.188(5)
O13_2 O 0.48122(19) 0.3662(4) 0.2886(2)
O14_2 O 0.47739(14) 0.7903(4) 0.29699(17)
N3_2 N 0.42744(17) 0.4130(4) 0.3801(2)
C19_2 C 0.3928(2) 0.3220(5) 0.3463(2)
H20_2 H 0.3862 0.3153 0.3017
C20_2 C 0.3918(2) 0.0216(5) 0.2918(3)
C21_2 C 0.4368(2) 0.4214(5) 0.4442(2)
H21_2 H 0.4592 0.4874 0.4678
C22_2 C 0.36625(19) 0.2372(5) 0.3742(2)
C23_2 C 0.4146(2) 0.3359(5) 0.4772(2)
C24_2 C 0.3340(2) 0.0558(5) 0.2905(2)
C25_2 C 0.2678(2) 0.1726(5) 0.3259(2)
H22_2 H 0.2605 0.2344 0.3525
O15_2 O 0.43186(15) 0.0356(4) 0.3432(2)
C26_2 C 0.32332(19) 0.1500(5) 0.3309(2)
C27_2 C 0.1652(2) 0.1372(6) 0.2746(3)
C28_2 C 0.3782(2) 0.2440(5) 0.4419(2)
H23_2 H 0.3617 0.1874 0.4626
C29_2 C 0.2350(2) 0.0133(6) 0.2432(3)
C30_2 C 0.2238(2) 0.1055(5) 0.2824(3)
O20_2 O 0.34618(18) 0.9281(4) 0.1039(2)
H28_2 H 0.3159 0.8876 0.0668
O21_2 O 0.4364(2) 0.6992(5) 0.3928(3)
O22_2 O 0.41712(16) 0.2539(4) 0.57895(17)
C32_2 C 0.4325(2) 0.3421(5) 0.5507(2)
O23_2 O 0.44894(13) 0.6032(3) 0.20335(16)
O24_2 O 0.46228(17) 0.4354(4) 0.57879(18)
C33_2 C 0.3948(6) 0.7410(13) 0.3965(7)
H30_2 H 0.3623 0.7179 0.3628
N4_2 N 0.3885(5) 0.8153(11) 0.4416(6)
C34_2 C 0.4395(6) 0.8611(16) 0.4839(8)
H31_2 H 0.4344 0.9441 0.4997
H32_2 H 0.4652 0.8671 0.4608
H33_2 H 0.4540 0.8036 0.5202
C35_2 C 0.3356(6) 0.8617(18) 0.4427(9)
H34_2 H 0.3077 0.8509 0.4002
H35_2 H 0.3389 0.9506 0.4542
H36_2 H 0.3253 0.8142 0.4744
H37_2 H 0.468(4) 0.841(9) 0.312(5)
Dy9_2 Dy 0.42574(2) 0.17600(2) 0.68413(2)
Dy14_2 Dy 0.53229(2) 0.42616(2) 0.68278(2)
O29_2 O 0.60567(15) 0.9783(4) 0.26022(19)
O30_2 O 0.39433(15) 0.9783(4) 0.23978(19)
O31_2 O 0.41712(16) 0.7461(4) 0.07895(17)
O32_2 O 0.58288(16) 0.7461(4) 0.42105(17)
O33_2 O 0.46228(17) 0.5646(4) 0.07879(18)
O34_2 O 0.53772(17) 0.5646(4) 0.42121(18)
O10_2 O 0.58288(16) 0.2539(4) 0.92105(17)
C15_2 C 0.5675(2) 0.3421(5) 0.9493(2)
O12_2 O 0.53772(17) 0.4354(4) 0.92121(18)
H15 H 0.5460 0.8036 0.9798
Dy10_2 Dy 0.57426(2) 0.17600(2) 0.81587(2)
Dy13_2 Dy 0.46771(2) 0.42616(2) 0.81722(2)
H5_2 H 0.7941 0.9671 0.2861
C13_2 C 0.7108(2) 0.9892(6) 0.2528(3)
H6_2 H 0.7041 0.9271 0.2797
H24_2 H 0.2059 0.9671 0.2139
C31_2 C 0.2892(2) 0.9892(6) 0.2472(3)
H25_2 H 0.2959 0.9271 0.2203
C14_4 C 0.0000 0.1875(8) 0.7500
H11_4 H 0.0000 0.2764 0.7500
O13_3 O 0.01878(19) 0.1338(4) 0.7114(2)
N3_3 N 0.07256(17) 0.0870(4) 0.6199(2)
C19_3 C 0.1072(2) 0.1780(5) 0.6537(2)
H20_3 H 0.1138 0.1847 0.6983
C20_3 C 0.1082(2) 0.4784(5) 0.7082(3)
C21_3 C 0.0632(2) 0.0786(5) 0.5558(2)
H21_3 H 0.0408 0.0126 0.5322
C22_3 C 0.13375(19) 0.2628(5) 0.6258(2)
C23_3 C 0.0854(2) 0.1641(5) 0.5228(2)
C24_3 C 0.1660(2) 0.4442(5) 0.7095(2)
C25_3 C 0.2322(2) 0.3274(5) 0.6741(2)
H22_3 H 0.2395 0.2656 0.6475
O15_3 O 0.06814(15) 0.4644(4) 0.6568(2)
C26_3 C 0.17668(19) 0.3500(5) 0.6691(2)
C27_3 C 0.3348(2) 0.3628(6) 0.7254(3)
O16_2 O 0.34400(14) 0.2774(4) 0.6909(2)
O17_2 O 0.37188(15) 0.4249(5) 0.7686(2)
C28_3 C 0.1218(2) 0.2560(5) 0.5581(2)
H23_3 H 0.1383 0.3126 0.5374
C29_3 C 0.2650(2) 0.4867(6) 0.7568(3)
H24_3 H 0.2941 0.5329 0.7861
C30_3 C 0.2762(2) 0.3945(5) 0.7176(3)
C31_3 C 0.2108(2) 0.5108(6) 0.7528(3)
H25_3 H 0.2041 0.5729 0.7797
O18 O 0.10567(15) 0.5217(4) 0.76022(19)
C32_3 C 0.0675(2) 0.1579(5) 0.4493(2)
O14_3 O 0.02261(14) 0.7097(4) 0.70301(17)
O19_2 O 0.03778(17) 0.4841(4) 0.8445(2)
H26_2 H 0.0008 0.4917 0.8478
H27_2 H 0.0331 0.4153 0.8132
O20_3 O 0.15382(18) 0.5719(4) 0.8961(2)
H28_3 H 0.1841 0.6124 0.9332
H29_2 H 0.1637 0.4792 0.8995
O21_3 O 0.0636(2) 0.8008(5) 0.6072(3)
O23_3 O 0.05106(13) 0.8968(3) 0.79665(16)
C33_3 C 0.1052(6) 0.7590(13) 0.6035(7)
H30_3 H 0.1377 0.7821 0.6372
N4_3 N 0.1115(5) 0.6847(11) 0.5584(6)
C34_3 C 0.0605(6) 0.6389(16) 0.5161(8)
H31_3 H 0.0656 0.5559 0.5003
H32_3 H 0.0348 0.6329 0.5392
H33_3 H 0.0460 0.6964 0.4798
C35_3 C 0.1644(6) 0.6383(18) 0.5573(9)
H34_3 H 0.1923 0.6491 0.5998
H35_3 H 0.1611 0.5494 0.5458
H36_3 H 0.1747 0.6858 0.5256
H37_3 H 0.032(4) 0.659(9) 0.688(5)
O25_2 O 0.15600(14) 0.7774(4) 0.8091(2)
O27_2 O 0.12812(15) 0.9249(5) 0.7314(2)
C15_3 C 0.9325(2) 0.1579(5) 0.0507(2)
N1_3 N 0.92744(17) 0.0870(4) 0.8801(2)
C1_3 C 0.8928(2) 0.1780(5) 0.8463(2)
H1_3 H 0.8862 0.1847 0.8017
C2_3 C 0.8918(2) 0.4784(5) 0.7918(3)
C3_3 C 0.9368(2) 0.0786(5) 0.9442(2)
H2_3 H 0.9592 0.0126 0.9678
C4_3 C 0.86625(19) 0.2628(5) 0.8742(2)
C5_3 C 0.9146(2) 0.1641(5) 0.9772(2)
C6_3 C 0.8340(2) 0.4442(5) 0.7905(2)
C7_3 C 0.7678(2) 0.3274(5) 0.8259(2)
H3_3 H 0.7605 0.2656 0.8525
O2_3 O 0.93186(15) 0.4644(4) 0.8432(2)
C8_3 C 0.82332(19) 0.3500(5) 0.8309(2)
C9_3 C 0.6652(2) 0.3628(6) 0.7746(3)
O3_2 O 0.65600(14) 0.2774(4) 0.8091(2)
O4_2 O 0.62812(15) 0.4249(5) 0.7314(2)
C10_3 C 0.8782(2) 0.2560(5) 0.9419(2)
H4_3 H 0.8617 0.3126 0.9626
C11_3 C 0.7350(2) 0.4867(6) 0.7432(3)
H5_3 H 0.7059 0.5329 0.7139
C12_3 C 0.7238(2) 0.3945(5) 0.7824(3)
C13_3 C 0.7892(2) 0.5108(6) 0.7472(3)
H6_3 H 0.7959 0.5729 0.7203
O5 O 0.89433(15) 0.5217(4) 0.73978(19)
O6_3 O 0.98122(19) 0.1338(4) 0.7886(2)
C14_5 C 1.0000 0.1875(8) 0.7500
H11_5 H 1.0000 0.2764 0.7500
O1_3 O 0.97739(14) 0.7097(4) 0.79699(17)
O7_2 O 0.96222(17) 0.4841(4) 0.6555(2)
H7_2 H 0.9992 0.4917 0.6522
H8_2 H 0.9669 0.4153 0.6868
O8_3 O 0.84618(18) 0.5719(4) 0.6039(2)
H9_3 H 0.8159 0.6124 0.5668
H10_2 H 0.8363 0.4792 0.6005
O9_3 O 0.9364(2) 0.8008(5) 0.8928(3)
O11_3 O 0.94894(13) 0.8968(3) 0.70335(16)
C16_3 C 0.8948(6) 0.7590(13) 0.8965(7)
H12_3 H 0.8623 0.7821 0.8628
N2_3 N 0.8885(5) 0.6847(11) 0.9416(6)
C17_3 C 0.9395(6) 0.6389(16) 0.9839(8)
H13_3 H 0.9344 0.5559 0.9997
H14_3 H 0.9652 0.6329 0.9608
C18_3 C 0.8356(6) 0.6383(18) 0.9427(9)
H16_3 H 0.8077 0.6491 0.9002
H17_3 H 0.8389 0.5494 0.9542
H18_3 H 0.8253 0.6858 0.9744
H19_3 H 0.968(4) 0.659(9) 0.812(5)
O26_2 O 0.84400(14) 0.7774(4) 0.6909(2)
O28_2 O 0.87188(15) 0.9249(5) 0.7686(2)
H5_4 H 0.2059 0.0329 0.7139
C13_4 C 0.2892(2) 0.0108(6) 0.7472(3)
H6_4 H 0.2959 0.0729 0.7203
O5_2 O 0.39433(15) 0.0217(4) 0.73978(19)
H24_4 H 0.7941 0.0329 0.7861
C31_4 C 0.7108(2) 0.0108(6) 0.7528(3)
H25_4 H 0.7041 0.0729 0.7797
O18_2 O 0.60567(15) 0.0217(4) 0.76022(19)
C15_4 C 0.4325(2) 0.6579(5) 0.0507(2)
H15_2 H 0.4540 0.1964 0.0202
O1_4 O 0.47739(14) 0.2097(4) 0.79699(17)
N1_4 N 0.42744(17) 0.5870(4) 0.8801(2)
C1_4 C 0.3928(2) 0.6780(5) 0.8463(2)
H1_4 H 0.3862 0.6847 0.8017
C2_4 C 0.3918(2) 0.9784(5) 0.7918(3)
C3_4 C 0.4368(2) 0.5786(5) 0.9442(2)
H2_4 H 0.4592 0.5126 0.9678
C4_4 C 0.36625(19) 0.7628(5) 0.8742(2)
C5_4 C 0.4146(2) 0.6641(5) 0.9772(2)
C6_4 C 0.3340(2) 0.9442(5) 0.7905(2)
C7_4 C 0.2678(2) 0.8274(5) 0.8259(2)
H3_4 H 0.2605 0.7656 0.8525
O2_4 O 0.43186(15) 0.9644(4) 0.8432(2)
C8_4 C 0.32332(19) 0.8500(5) 0.8309(2)
C9_4 C 0.1652(2) 0.8628(6) 0.7746(3)
C10_4 C 0.3782(2) 0.7560(5) 0.9419(2)
H4_4 H 0.3617 0.8126 0.9626
C11_4 C 0.2350(2) 0.9867(6) 0.7432(3)
C12_4 C 0.2238(2) 0.8945(5) 0.7824(3)
O6_4 O 0.48122(19) 0.6338(4) 0.7886(2)
O8_4 O 0.34618(18) 0.0719(4) 0.6039(2)
H9_4 H 0.3159 0.1124 0.5668
O9_4 O 0.4364(2) 0.3008(5) 0.8928(3)
C14_6 C 0.5000 0.6875(8) 0.7500
H11_6 H 0.5000 0.7764 0.7500
O11_4 O 0.44894(13) 0.3968(3) 0.70335(16)
C16_4 C 0.3948(6) 0.2590(13) 0.8965(7)
H12_4 H 0.3623 0.2821 0.8628
N2_4 N 0.3885(5) 0.1847(11) 0.9416(6)
C17_4 C 0.4395(6) 0.1389(16) 0.9839(8)
H13_4 H 0.4344 0.0559 0.9997
H14_4 H 0.4652 0.1329 0.9608
C18_4 C 0.3356(6) 0.1383(18) 0.9427(9)
H16_4 H 0.3077 0.1491 0.9002
H17_4 H 0.3389 0.0494 0.9542
H18_4 H 0.3253 0.1858 0.9744
H19_4 H 0.468(4) 0.159(9) 0.812(5)
O13_4 O 0.51878(19) 0.6338(4) 0.7114(2)
O14_4 O 0.52261(14) 0.2097(4) 0.70301(17)
N3_4 N 0.57256(17) 0.5870(4) 0.6199(2)
C19_4 C 0.6072(2) 0.6780(5) 0.6537(2)
H20_4 H 0.6138 0.6847 0.6983
C20_4 C 0.6082(2) 0.9784(5) 0.7082(3)
C21_4 C 0.5632(2) 0.5786(5) 0.5558(2)
H21_4 H 0.5408 0.5126 0.5322
C22_4 C 0.63375(19) 0.7628(5) 0.6258(2)
C23_4 C 0.5854(2) 0.6641(5) 0.5228(2)
C24_4 C 0.6660(2) 0.9442(5) 0.7095(2)
C25_4 C 0.7322(2) 0.8274(5) 0.6741(2)
H22_4 H 0.7395 0.7656 0.6475
O15_4 O 0.56814(15) 0.9644(4) 0.6568(2)
C26_4 C 0.67668(19) 0.8500(5) 0.6691(2)
C27_4 C 0.8348(2) 0.8628(6) 0.7254(3)
C28_4 C 0.6218(2) 0.7560(5) 0.5581(2)
H23_4 H 0.6383 0.8126 0.5374
C29_4 C 0.7650(2) 0.9867(6) 0.7568(3)
C30_4 C 0.7762(2) 0.8945(5) 0.7176(3)
O20_4 O 0.65382(18) 0.0719(4) 0.8961(2)
H28_4 H 0.6841 0.1124 0.9332
O21_4 O 0.5636(2) 0.3008(5) 0.6072(3)
C32_4 C 0.5675(2) 0.6579(5) 0.4493(2)
O23_4 O 0.55106(13) 0.3968(3) 0.79665(16)
C33_4 C 0.6052(6) 0.2590(13) 0.6035(7)
H30_4 H 0.6377 0.2821 0.6372
N4_4 N 0.6115(5) 0.1847(11) 0.5584(6)
C34_4 C 0.5605(6) 0.1389(16) 0.5161(8)
H31_4 H 0.5656 0.0559 0.5003
H32_4 H 0.5348 0.1329 0.5392
H33_4 H 0.5460 0.1964 0.4798
C35_4 C 0.6644(6) 0.1383(18) 0.5573(9)
H34_4 H 0.6923 0.1491 0.5998
H35_4 H 0.6611 0.0494 0.5458
H36_4 H 0.6747 0.1858 0.5256
H37_4 H 0.532(4) 0.159(9) 0.688(5)
H15_3 H 0.0460 0.3036 0.9798
O7_3 O 0.53778(17) 0.0159(4) 0.3445(2)
H7_3 H 0.5008 0.0083 0.3478
H8_3 H 0.5331 0.0847 0.3132
H10_3 H 0.6637 0.0208 0.3995
O19_3 O 0.46222(17) 0.0159(4) 0.1555(2)
H26_3 H 0.4992 0.0083 0.1522
H27_3 H 0.4669 0.0847 0.1868
H29_3 H 0.3363 0.0208 0.1005
H15_4 H 0.9540 0.6964 0.0202
O7_4 O 0.46222(17) 0.9841(4) 0.6555(2)
H7_4 H 0.4992 0.9917 0.6522
H8_4 H 0.4669 0.9153 0.6868
H10_4 H 0.3363 0.9792 0.6005
O19_4 O 0.53778(17) 0.9841(4) 0.8445(2)
H26_4 H 0.5008 0.9917 0.8478
H27_4 H 0.5331 0.9153 0.8132
H29_4 H 0.6637 0.9792 0.8995
loop_
_geom_bond_atom_site_label_1
_geom_bond_atom_site_label_2
_geom_bond_site_symmetry_1
_geom_bond_site_symmetry_2
Dy1 O1 1_555 1_555
Dy2 O1 1_555 1_555
O1 H19 1_555 1_555
O7 Dy1 1_555 1_555
H7 O7 1_555 1_555
H8 O7 1_555 1_555
O8 Dy1 1_555 1_555
H9 O8 1_555 1_555
H10 O8 1_555 1_555
O9 Dy2 1_555 1_555
O11 Dy1 1_555 1_555
C16 O9 1_555 1_555
H12 C16 1_555 1_555
N2 C16 1_555 1_555
C17 N2 1_555 1_555
H13 C17 1_555 1_555
H14 C17 1_555 1_555
C18 N2 1_555 1_555
H16 C18 1_555 1_555
H17 C18 1_555 1_555
H18 C18 1_555 1_555
O26 Dy1 1_555 1_555
O28 Dy2 1_555 1_555
O29 Dy1 1_555 1_555
O32 Dy1 1_555 1_555
Dy2 O11 1_555 1_555
C1 N1 1_555 1_555
H1 C1 1_555 1_555
C2 C6 1_555 1_555
C3 N1 1_555 1_555
H2 C3 1_555 1_555
C4 C1 1_555 1_555
C5 C3 1_555 1_555
C6 C8 1_555 1_555
C7 H3 1_555 1_555
O2 C2 1_555 1_555
C8 C4 1_555 1_555
C9 O3 1_555 1_555
O3 Dy8 1_555 1_555
O4 C9 1_555 1_555
C10 C4 1_555 1_555
H4 C10 1_555 1_555
C11 H5 1_555 1_555
C12 C7 1_555 1_555
C13 C6 1_555 1_555
H6 C13 1_555 1_555
O29 C2 1_555 1_555
C14 O6 1_555 1_555
H11 C14 1_555 1_555
Dy12 O4 1_555 1_555
C5 C10 1_555 1_555
C7 C8 1_555 1_555
C9 C12 1_555 1_555
C11 C12 1_555 1_555
C11 C13 1_555 1_555
O10 C15 1_555 1_555
O12 C15 1_555 1_555
Dy10 O10 1_555 1_555
O19 Dy3 1_555 1_555
H26 O19 1_555 1_555
H27 O19 1_555 1_555
O20 Dy3 1_555 1_555
H28 O20 1_555 1_555
H29 O20 1_555 1_555
O21 Dy4 1_555 1_555
C33 O21 1_555 1_555
H30 C33 1_555 1_555
N4 C33 1_555 1_555
C34 N4 1_555 1_555
H31 C34 1_555 1_555
H32 C34 1_555 1_555
H33 C34 1_555 1_555
C35 N4 1_555 1_555
H34 C35 1_555 1_555
H35 C35 1_555 1_555
H36 C35 1_555 1_555
H37 O14 1_555 1_555
O25 Dy3 1_555 1_555
O27 Dy4 1_555 1_555
O30 Dy3 1_555 1_555
O31 Dy3 1_555 1_555
Dy3 O14 1_555 1_555
Dy3 O23 1_555 1_555
Dy4 O14 1_555 1_555
Dy4 O23 1_555 1_555
H11_2 C14_2 1_555 1_555
O13 C14_2 1_555 1_555
C19 N3 1_555 1_555
H20 C19 1_555 1_555
C20 C24 1_555 1_555
C21 N3 1_555 1_555
H21 C21 1_555 1_555
C22 C19 1_555 1_555
C23 C21 1_555 1_555
C24 C26 1_555 1_555
C25 H22 1_555 1_555
O15 C20 1_555 1_555
C26 C22 1_555 1_555
C27 O16 1_555 1_555
O16 Dy7 1_555 1_555
O17 C27 1_555 1_555
C28 C22 1_555 1_555
H23 C28 1_555 1_555
C29 H24 1_555 1_555
C30 C25 1_555 1_555
C31 C24 1_555 1_555
H25 C31 1_555 1_555
O30 C20 1_555 1_555
O22 C32 1_555 1_555
C32 C23 1_555 1_555
O24 C32 1_555 1_555
Dy9 O22 1_555 1_555
Dy11 O17 1_555 1_555
C23 C28 1_555 1_555
C25 C26 1_555 1_555
C27 C30 1_555 1_555
C29 C30 1_555 1_555
C29 C31 1_555 1_555
Dy7 O1_2 1_555 1_555
Dy11 O1_2 1_555 1_555
O1_2 H19_2 1_555 1_555
N1_2 Dy11 1_555 1_555
C1_2 N1_2 1_555 1_555
H1_2 C1_2 1_555 1_555
C2_2 C6_2 1_555 1_555
C3_2 N1_2 1_555 1_555
H2_2 C3_2 1_555 1_555
C4_2 C1_2 1_555 1_555
C5_2 C3_2 1_555 1_555
C6_2 C8_2 1_555 1_555
C7_2 H3_2 1_555 1_555
O2_2 C2_2 1_555 1_555
C8_2 C4_2 1_555 1_555
C9_2 O25 1_555 1_555
O27 C9_2 1_555 1_555
C10_2 C4_2 1_555 1_555
H4_2 C10_2 1_555 1_555
C12_2 C7_2 1_555 1_555
O6_2 Dy11 1_555 1_555
O8_2 Dy7 1_555 1_555
H9_2 O8_2 1_555 1_555
O9_2 Dy11 1_555 1_555
C14_3 O6_2 1_555 1_555
H11_3 C14_3 1_555 1_555
O11_2 Dy7 1_555 1_555
C16_2 O9_2 1_555 1_555
H12_2 C16_2 1_555 1_555
N2_2 C16_2 1_555 1_555
C17_2 N2_2 1_555 1_555
H13_2 C17_2 1_555 1_555
H14_2 C17_2 1_555 1_555
C18_2 N2_2 1_555 1_555
H16_2 C18_2 1_555 1_555
H17_2 C18_2 1_555 1_555
H18_2 C18_2 1_555 1_555
O13_2 C14_3 1_555 1_555
Dy8 O1_2 1_555 1_555
Dy12 O11_2 1_555 1_555
O14_2 Dy7 1_555 1_555
N3_2 Dy12 1_555 1_555
C19_2 N3_2 1_555 1_555
H20_2 C19_2 1_555 1_555
C20_2 C24_2 1_555 1_555
C21_2 N3_2 1_555 1_555
H21_2 C21_2 1_555 1_555
C22_2 C19_2 1_555 1_555
C23_2 C21_2 1_555 1_555
C24_2 C26_2 1_555 1_555
C25_2 H22_2 1_555 1_555
O15_2 C20_2 1_555 1_555
C26_2 C22_2 1_555 1_555
C27_2 O26 1_555 1_555
O28 C27_2 1_555 1_555
C28_2 C22_2 1_555 1_555
H23_2 C28_2 1_555 1_555
C30_2 C25_2 1_555 1_555
O20_2 Dy8 1_555 1_555
H28_2 O20_2 1_555 1_555
O21_2 Dy12 1_555 1_555
O22_2 C32_2 1_555 1_555
C32_2 C23_2 1_555 1_555
O23_2 Dy11 1_555 1_555
O24_2 C32_2 1_555 1_555
C33_2 O21_2 1_555 1_555
H30_2 C33_2 1_555 1_555
N4_2 C33_2 1_555 1_555
C34_2 N4_2 1_555 1_555
H31_2 C34_2 1_555 1_555
H32_2 C34_2 1_555 1_555
H33_2 C34_2 1_555 1_555
C35_2 N4_2 1_555 1_555
H34_2 C35_2 1_555 1_555
H35_2 C35_2 1_555 1_555
H36_2 C35_2 1_555 1_555
H37_2 O14_2 1_555 1_555
Dy9_2 O22_2 1_555 1_555
Dy14_2 O24_2 1_555 1_555
O29_2 Dy7 1_555 1_555
O30_2 Dy8 1_555 1_555
O31_2 Dy8 1_555 1_555
O32_2 Dy7 1_555 1_555
O33_2 Dy11 1_555 1_555
O34_2 Dy12 1_555 1_555
Dy11 O11_2 1_555 1_555
C5_2 C10_2 1_555 1_555
C7_2 C8_2 1_555 1_555
C9_2 C12_2 1_555 1_555
C11_2 C12_2 1_555 1_555
O13_2 Dy12 1_555 1_555
Dy8 O14_2 1_555 1_555
Dy8 O23_2 1_555 1_555
Dy12 O14_2 1_555 1_555
Dy12 O23_2 1_555 1_555
C23_2 C28_2 1_555 1_555
C25_2 C26_2 1_555 1_555
C27_2 C30_2 1_555 1_555
C29_2 C30_2 1_555 1_555
O10_2 C15_2 1_555 1_555
O12_2 C15_2 1_555 1_555
Dy10_2 O10_2 1_555 1_555
Dy13_2 O12_2 1_555 1_555
H6_2 C13_2 1_555 1_555
H25_2 C31_2 1_555 1_555
H11_4 C14_4 1_555 1_555
O13_3 C14_4 1_555 1_555
C19_3 N3_3 1_555 1_555
H20_3 C19_3 1_555 1_555
C20_3 C24_3 1_555 1_555
C21_3 N3_3 1_555 1_555
H21_3 C21_3 1_555 1_555
C22_3 C19_3 1_555 1_555
C23_3 C21_3 1_555 1_555
C24_3 C26_3 1_555 1_555
C25_3 H22_3 1_555 1_555
O15_3 C20_3 1_555 1_555
C26_3 C22_3 1_555 1_555
C27_3 O16_2 1_555 1_555
O16_2 Dy9_2 1_555 1_555
O17_2 C27_3 1_555 1_555
C28_3 C22_3 1_555 1_555
H23_3 C28_3 1_555 1_555
C29_3 H24_3 1_555 1_555
C30_3 C25_3 1_555 1_555
C31_3 C24_3 1_555 1_555
H25_3 C31_3 1_555 1_555
O18 C20_3 1_555 1_555
O32 C32_3 1_555 1_555
C32_3 C23_3 1_555 1_555
O34 C32_3 1_555 1_555
Dy10 O18 1_555 1_555
Dy13_2 O17_2 1_555 1_555
C23_3 C28_3 1_555 1_555
C25_3 C26_3 1_555 1_555
C27_3 C30_3 1_555 1_555
C29_3 C30_3 1_555 1_555
C29_3 C31_3 1_555 1_555
O19_2 Dy10 1_555 1_555
H26_2 O19_2 1_555 1_555
H27_2 O19_2 1_555 1_555
O20_3 Dy10 1_555 1_555
H28_3 O20_3 1_555 1_555
H29_2 O20_3 1_555 1_555
O21_3 Dy14 1_555 1_555
C33_3 O21_3 1_555 1_555
H30_3 C33_3 1_555 1_555
N4_3 C33_3 1_555 1_555
C34_3 N4_3 1_555 1_555
H31_3 C34_3 1_555 1_555
H32_3 C34_3 1_555 1_555
H33_3 C34_3 1_555 1_555
C35_3 N4_3 1_555 1_555
H34_3 C35_3 1_555 1_555
H35_3 C35_3 1_555 1_555
H36_3 C35_3 1_555 1_555
H37_3 O14_3 1_555 1_555
O25_2 Dy10 1_555 1_555
O27_2 Dy14 1_555 1_555
Dy10 O14_3 1_555 1_555
Dy10 O23_3 1_555 1_555
Dy14 O14_3 1_555 1_555
Dy14 O23_3 1_555 1_555
O31 C15_3 1_555 1_555
O33 C15_3 1_555 1_555
C1_3 N1_3 1_555 1_555
H1_3 C1_3 1_555 1_555
C2_3 C6_3 1_555 1_555
C3_3 N1_3 1_555 1_555
H2_3 C3_3 1_555 1_555
C4_3 C1_3 1_555 1_555
C5_3 C3_3 1_555 1_555
C6_3 C8_3 1_555 1_555
C7_3 H3_3 1_555 1_555
O2_3 C2_3 1_555 1_555
C8_3 C4_3 1_555 1_555
C9_3 O3_2 1_555 1_555
O3_2 Dy10_2 1_555 1_555
O4_2 C9_3 1_555 1_555
C10_3 C4_3 1_555 1_555
H4_3 C10_3 1_555 1_555
C11_3 H5_3 1_555 1_555
C12_3 C7_3 1_555 1_555
C13_3 C6_3 1_555 1_555
H6_3 C13_3 1_555 1_555
O5 C2_3 1_555 1_555
C14_5 O6_3 1_555 1_555
H11_5 C14_5 1_555 1_555
Dy9 O5 1_555 1_555
Dy14_2 O4_2 1_555 1_555
C5_3 C10_3 1_555 1_555
C7_3 C8_3 1_555 1_555
C9_3 C12_3 1_555 1_555
C11_3 C12_3 1_555 1_555
C11_3 C13_3 1_555 1_555
Dy9 O1_3 1_555 1_555
Dy13 O1_3 1_555 1_555
O1_3 H19_3 1_555 1_555
O7_2 Dy9 1_555 1_555
H7_2 O7_2 1_555 1_555
H8_2 O7_2 1_555 1_555
O8_3 Dy9 1_555 1_555
H9_3 O8_3 1_555 1_555
H10_2 O8_3 1_555 1_555
O9_3 Dy13 1_555 1_555
O11_3 Dy9 1_555 1_555
C16_3 O9_3 1_555 1_555
H12_3 C16_3 1_555 1_555
N2_3 C16_3 1_555 1_555
C17_3 N2_3 1_555 1_555
H13_3 C17_3 1_555 1_555
H14_3 C17_3 1_555 1_555
C18_3 N2_3 1_555 1_555
H16_3 C18_3 1_555 1_555
H17_3 C18_3 1_555 1_555
H18_3 C18_3 1_555 1_555
O26_2 Dy9 1_555 1_555
O28_2 Dy13 1_555 1_555
Dy13 O11_3 1_555 1_555
H6_4 C13_4 1_555 1_555
H25_4 C31_4 1_555 1_555
Dy9_2 O5_2 1_555 1_555
Dy10_2 O18_2 1_555 1_555
O31_2 C15_4 1_555 1_555
O33_2 C15_4 1_555 1_555
Dy9_2 O1_4 1_555 1_555
Dy13_2 O1_4 1_555 1_555
O1_4 H19_4 1_555 1_555
N1_4 Dy13_2 1_555 1_555
C1_4 N1_4 1_555 1_555
H1_4 C1_4 1_555 1_555
C2_4 C6_4 1_555 1_555
C3_4 N1_4 1_555 1_555
H2_4 C3_4 1_555 1_555
C4_4 C1_4 1_555 1_555
C5_4 C3_4 1_555 1_555
C6_4 C8_4 1_555 1_555
C7_4 H3_4 1_555 1_555
O2_4 C2_4 1_555 1_555
C8_4 C4_4 1_555 1_555
C9_4 O25_2 1_555 1_555
O27_2 C9_4 1_555 1_555
C10_4 C4_4 1_555 1_555
H4_4 C10_4 1_555 1_555
C12_4 C7_4 1_555 1_555
O6_4 Dy13_2 1_555 1_555
O8_4 Dy9_2 1_555 1_555
H9_4 O8_4 1_555 1_555
O9_4 Dy13_2 1_555 1_555
C14_6 O6_4 1_555 1_555
H11_6 C14_6 1_555 1_555
O11_4 Dy9_2 1_555 1_555
C16_4 O9_4 1_555 1_555
H12_4 C16_4 1_555 1_555
N2_4 C16_4 1_555 1_555
C17_4 N2_4 1_555 1_555
H13_4 C17_4 1_555 1_555
H14_4 C17_4 1_555 1_555
C18_4 N2_4 1_555 1_555
H16_4 C18_4 1_555 1_555
H17_4 C18_4 1_555 1_555
H18_4 C18_4 1_555 1_555
O13_4 C14_6 1_555 1_555
Dy10_2 O1_4 1_555 1_555
Dy14_2 O11_4 1_555 1_555
O14_4 Dy9_2 1_555 1_555
N3_4 Dy14_2 1_555 1_555
C19_4 N3_4 1_555 1_555
H20_4 C19_4 1_555 1_555
C20_4 C24_4 1_555 1_555
C21_4 N3_4 1_555 1_555
H21_4 C21_4 1_555 1_555
C22_4 C19_4 1_555 1_555
C23_4 C21_4 1_555 1_555
C24_4 C26_4 1_555 1_555
C25_4 H22_4 1_555 1_555
O15_4 C20_4 1_555 1_555
C26_4 C22_4 1_555 1_555
C27_4 O26_2 1_555 1_555
O28_2 C27_4 1_555 1_555
C28_4 C22_4 1_555 1_555
H23_4 C28_4 1_555 1_555
C30_4 C25_4 1_555 1_555
O20_4 Dy10_2 1_555 1_555
H28_4 O20_4 1_555 1_555
O21_4 Dy14_2 1_555 1_555
O32_2 C32_4 1_555 1_555
C32_4 C23_4 1_555 1_555
O23_4 Dy13_2 1_555 1_555
O34_2 C32_4 1_555 1_555
C33_4 O21_4 1_555 1_555
H30_4 C33_4 1_555 1_555
N4_4 C33_4 1_555 1_555
C34_4 N4_4 1_555 1_555
H31_4 C34_4 1_555 1_555
H32_4 C34_4 1_555 1_555
H33_4 C34_4 1_555 1_555
C35_4 N4_4 1_555 1_555
H34_4 C35_4 1_555 1_555
H35_4 C35_4 1_555 1_555
H36_4 C35_4 1_555 1_555
H37_4 O14_4 1_555 1_555
Dy13_2 O11_4 1_555 1_555
C5_4 C10_4 1_555 1_555
C7_4 C8_4 1_555 1_555
C9_4 C12_4 1_555 1_555
C11_4 C12_4 1_555 1_555
O13_4 Dy14_2 1_555 1_555
Dy10_2 O14_4 1_555 1_555
Dy10_2 O23_4 1_555 1_555
Dy14_2 O14_4 1_555 1_555
Dy14_2 O23_4 1_555 1_555
C23_4 C28_4 1_555 1_555
C25_4 C26_4 1_555 1_555
C27_4 C30_4 1_555 1_555
C29_4 C30_4 1_555 1_555
H7_3 O7_3 1_555 1_555
H8_3 O7_3 1_555 1_555
H26_3 O19_3 1_555 1_555
H27_3 O19_3 1_555 1_555
H7_4 O7_4 1_555 1_555
H8_4 O7_4 1_555 1_555
H26_4 O19_4 1_555 1_555
H27_4 O19_4 1_555 1_555

#END
