
###############################################################################
#
# This file contains modified crystal structure data generated from the
# MOF subset of the Cambridge Structural Database (CSD) v543 
# hosted by the Cambridge Crystallographic Data Centre (CCDC).
#
# This work is licensed under the Creative Commons
# Attribution-NonCommercial-ShareAlike 4.0 International License.
# To view a copy of this license, visit
# http://creativecommons.org/licenses/by-nc-sa/4.0/
# or send a letter to
# Creative Commons, PO Box 1866, Mountain View, CA 94042, USA.
#
# CIF created using the CSD Python API on 29 September 2022
# The structure has been converted into the P1 space group
# The structure has a 3D framework
# The original CSD entry VILHAC is in the orthorhombic crystal system
# The framework has been calculated to contain at least 10.0% void space
# The void calculation uses a probe of radius 1.32A, grid spacing 0.4
#
###############################################################################

data_VILHAC
_chemical_formula_moiety         '(C326 H240 Co16 N32 O92)n'
_symmetry_cell_setting           triclinic
_symmetry_space_group_name_H-M   'P 1'
_symmetry_Int_Tables_number      1
_space_group_name_Hall           'P 1'
loop_
_symmetry_equiv_pos_site_id
_symmetry_equiv_pos_as_xyz
1 x,y,z
_cell_length_a                   16.1550(9)
_cell_length_b                   15.9078(7)
_cell_length_c                   44.217(3)
_cell_angle_alpha                90
_cell_angle_beta                 90
_cell_angle_gamma                90
_cell_volume                     11363.3
loop_
_atom_site_label
_atom_site_type_symbol
_atom_site_fract_x
_atom_site_fract_y
_atom_site_fract_z
Co1 Co 0.04270(4) 0.09704(3) 0.07235(2)
O6 O 0.39689(19) 0.15851(17) 0.08221(7)
O7 O 0.08868(19) 0.21294(18) 0.07759(7)
O8 O 0.07690(19) 0.34928(18) 0.06817(7)
O9 O 0.3328(2) 0.52802(18) 0.07675(7)
O10 O 0.45232(19) 0.46546(17) 0.07181(6)
O11 O 0.0280(4) 0.0407(3) 0.21238(9)
O12 O 0.0108(3) 0.2535(3) 0.21099(8)
N3 N 0.0333(2) 0.0875(2) 0.12042(8)
C15 C 0.3446(3) 0.2269(2) 0.07807(9)
C16 C 0.2598(3) 0.2201(3) 0.07674(9)
H10 H 0.2344 0.1662 0.0775
C17 C 0.2110(3) 0.2921(2) 0.07433(9)
C18 C 0.2494(3) 0.3709(3) 0.07387(9)
H11 H 0.2166 0.4202 0.0721
C19 C 0.3335(3) 0.3778(3) 0.07593(9)
C20 C 0.3827(3) 0.3050(3) 0.07789(9)
H12 H 0.4413 0.3093 0.0791
C21 C 0.3758(3) 0.0825(3) 0.06632(10)
H13 H 0.3165 0.0694 0.0695
H14 H 0.4090 0.0352 0.0743
C23 C 0.3305(3) 0.1033(3) 0.01191(11)
H16 H 0.2742 0.1020 0.0181
C24 C 0.3927(3) 0.0934(3) 0.03277(10)
C25 C 0.4729(3) 0.0949(3) 0.02227(10)
H17 H 0.5178 0.0877 0.0359
C27 C 0.1196(3) 0.2840(3) 0.07301(9)
C28 C 0.3755(3) 0.4614(3) 0.07502(10)
C29 C 0.0925(3) 0.1173(3) 0.13843(10)
H19 H 0.1360 0.1486 0.1294
C30 C 0.0947(4) 0.1057(4) 0.16927(12)
H20 H 0.1380 0.1293 0.1811
C31 C 0.0332(5) 0.0593(4) 0.18257(12)
C34 C 0.0662(5) 0.0942(4) 0.23448(13)
H23 H 0.1083 0.1300 0.2246
H24 H 0.0944 0.0593 0.2499
C35 C 0.0000 0.1505(7) 0.2500
C37 C 0.0383(3) 0.3471(3) 0.13757(11)
H27 H 0.0808 0.3765 0.1271
C38 C 0.0516(4) 0.3244(4) 0.16754(12)
H28 H 0.1019 0.3390 0.1774
N6 N 0.0323(3) 0.3294(2) 0.37729(8)
C45 C 0.0298(5) 0.0284(4) 0.33586(13)
C46 C 0.0271(4) 0.0446(3) 0.36633(11)
H34 H 0.0709 0.0239 0.3786
C48 C 0.0472(5) 0.2027(4) 0.27265(12)
H37 H 0.0777 0.1656 0.2868
H38 H 0.0878 0.2389 0.2621
C51 C 0.0088(4) 0.2805(4) 0.31714(12)
C52 C 0.0816(4) 0.2645(3) 0.33193(11)
H41 H 0.1255 0.2368 0.3217
C53 C 0.0911(3) 0.2887(3) 0.36179(11)
H42 H 0.1416 0.2759 0.3717
Co4 Co 0.04677(4) 0.35593(3) 0.42409(2)
O15 O 0.40465(18) 0.29386(17) 0.41609(7)
O16 O 0.0976(2) 0.24429(19) 0.43266(7)
O17 O 0.08339(19) 0.10531(18) 0.42958(7)
N7 N 0.4386(2) 0.3949(2) 0.52436(8)
C54 C 0.3504(3) 0.2271(3) 0.41794(9)
C55 C 0.2658(3) 0.2342(3) 0.42252(9)
H43 H 0.2415 0.2880 0.4252
C56 C 0.2168(3) 0.1631(2) 0.42313(9)
C57 C 0.2525(3) 0.0839(3) 0.41908(9)
H44 H 0.2188 0.0349 0.4190
C58 C 0.3369(3) 0.0772(2) 0.41512(9)
C59 C 0.3866(3) 0.1482(3) 0.41429(9)
H45 H 0.4446 0.1431 0.4113
C60 C 0.3808(3) 0.3727(3) 0.42901(10)
H46 H 0.3207 0.3811 0.4260
H47 H 0.4101 0.4187 0.4184
C61 C 0.4026(3) 0.4580(3) 0.50826(10)
H48 H 0.3902 0.5091 0.5184
C62 C 0.3832(3) 0.4519(3) 0.47821(10)
H49 H 0.3582 0.4980 0.4680
C63 C 0.4004(3) 0.3774(3) 0.46247(10)
C64 C 0.4383(3) 0.3149(3) 0.47878(10)
H50 H 0.4533 0.2640 0.4690
C65 C 0.4549(3) 0.3249(3) 0.50942(10)
H51 H 0.4790 0.2793 0.5201
C66 C 0.1250(3) 0.1716(3) 0.42882(9)
Co5 Co 0.45730(4) 0.40296(3) 0.57235(2)
Co8 Co 0.45730(4) 0.59704(3) 0.07235(2)
O25 O 0.16662(19) 0.42654(18) 0.41328(7)
O27 O 0.04535(19) 0.48764(17) 0.41567(7)
O30 O 0.1672(2) 0.02802(18) 0.07675(7)
N10 N 0.0614(2) 0.1051(2) 0.02436(8)
N11 N 0.0712(2) 0.3819(2) 0.47135(8)
N2 N 0.4288(2) 0.1181(2) 0.97135(8)
C22 C 0.3507(3) 0.1153(3) 0.98175(11)
H15 H 0.3068 0.1220 0.9676
C26 C 0.4880(3) 0.1068(3) 0.99177(11)
H18 H 0.5438 0.1068 0.9851
Co10 Co 0.45323(4) 0.14407(3) 0.92409(2)
H33 H 0.0739 0.9967 0.3275
O18 O 0.33338(19) 0.92654(18) 0.41328(7)
O19 O 0.45465(19) 0.98764(17) 0.41567(7)
C67 C 0.3773(3) 0.9917(3) 0.41428(9)
Co11 Co 0.45323(4) 0.85593(3) 0.42409(2)
O32 O 0.04768(19) 0.96546(17) 0.07181(6)
Co2 Co 0.95323(4) 0.35593(3) 0.07591(2)
O1 O 0.59535(18) 0.29386(17) 0.08391(7)
O2 O 0.9024(2) 0.24429(19) 0.06734(7)
O3 O 0.91661(19) 0.10531(18) 0.07042(7)
N4 N 0.9677(3) 0.3294(2) 0.12271(8)
C1 C 0.6496(3) 0.2271(3) 0.08206(9)
C2 C 0.7342(3) 0.2342(3) 0.07748(9)
H1 H 0.7585 0.2880 0.0748
C3 C 0.7832(3) 0.1631(2) 0.07687(9)
C4 C 0.7475(3) 0.0839(3) 0.08092(9)
H2 H 0.7812 0.0349 0.0810
C5 C 0.6631(3) 0.0772(2) 0.08488(9)
C6 C 0.6134(3) 0.1482(3) 0.08571(9)
H3 H 0.5554 0.1431 0.0887
C7 C 0.6192(3) 0.3727(3) 0.07099(10)
H4 H 0.6793 0.3811 0.0740
H5 H 0.5899 0.4187 0.0816
C9 C 0.6168(3) 0.4519(3) 0.02179(10)
H7 H 0.6418 0.4980 0.0320
C10 C 0.5996(3) 0.3774(3) 0.03753(10)
C11 C 0.5617(3) 0.3149(3) 0.02122(10)
H8 H 0.5467 0.2640 0.0310
C13 C 0.8750(3) 0.1716(3) 0.07118(9)
C32 C 0.9702(5) 0.0284(4) 0.16414(13)
C33 C 0.9729(4) 0.0446(3) 0.13367(11)
H22 H 0.9291 0.0239 0.1214
C35_2 C 1.0000 0.1505(7) 0.2500
C36 C 0.9528(5) 0.2027(4) 0.22735(12)
H25 H 0.9223 0.1656 0.2132
H26 H 0.9122 0.2389 0.2379
C39 C 0.9912(4) 0.2805(4) 0.18286(12)
C40 C 0.9184(4) 0.2645(3) 0.16807(11)
H29 H 0.8745 0.2368 0.1783
C41 C 0.9089(3) 0.2887(3) 0.13821(11)
H30 H 0.8584 0.2759 0.1283
O13 O 0.9720(4) 0.0407(3) 0.28762(9)
O14 O 0.9892(3) 0.2535(3) 0.28901(8)
N5 N 0.9667(2) 0.0875(2) 0.37958(8)
C42 C 0.9075(3) 0.1173(3) 0.36157(10)
H31 H 0.8640 0.1486 0.3706
C43 C 0.9053(4) 0.1057(4) 0.33073(12)
H32 H 0.8620 0.1293 0.3189
C44 C 0.9668(5) 0.0593(4) 0.31743(12)
C47 C 0.9338(5) 0.0942(4) 0.26552(13)
H35 H 0.8917 0.1300 0.2754
H36 H 0.9056 0.0593 0.2501
C49 C 0.9617(3) 0.3471(3) 0.36243(11)
H39 H 0.9192 0.3765 0.3729
C50 C 0.9484(4) 0.3244(4) 0.33246(12)
H40 H 0.8981 0.3390 0.3226
Co3 Co 0.95730(4) 0.09704(3) 0.42765(2)
O20 O 0.60311(19) 0.15851(17) 0.41779(7)
O21 O 0.91132(19) 0.21294(18) 0.42241(7)
O22 O 0.92310(19) 0.34928(18) 0.43183(7)
O23 O 0.6672(2) 0.52802(18) 0.42325(7)
O24 O 0.54768(19) 0.46546(17) 0.42819(6)
N8 N 0.5712(2) 0.1181(2) 0.52865(8)
C68 C 0.6554(3) 0.2269(2) 0.42193(9)
C69 C 0.7402(3) 0.2201(3) 0.42326(9)
H52 H 0.7656 0.1662 0.4225
C70 C 0.7890(3) 0.2921(2) 0.42567(9)
C71 C 0.7506(3) 0.3709(3) 0.42613(9)
H53 H 0.7834 0.4202 0.4279
C72 C 0.6665(3) 0.3778(3) 0.42407(9)
C73 C 0.6173(3) 0.3050(3) 0.42211(9)
H54 H 0.5587 0.3093 0.4209
C74 C 0.6242(3) 0.0825(3) 0.43368(10)
H55 H 0.6835 0.0694 0.4305
H56 H 0.5910 0.0352 0.4257
C75 C 0.6493(3) 0.1153(3) 0.51825(11)
H57 H 0.6932 0.1220 0.5324
C76 C 0.6695(3) 0.1033(3) 0.48809(11)
H58 H 0.7258 0.1020 0.4819
C77 C 0.6073(3) 0.0934(3) 0.46723(10)
C78 C 0.5271(3) 0.0949(3) 0.47773(10)
H59 H 0.4822 0.0877 0.4641
C79 C 0.5120(3) 0.1068(3) 0.50823(11)
H60 H 0.4562 0.1068 0.5149
C80 C 0.8804(3) 0.2840(3) 0.42699(9)
C81 C 0.6245(3) 0.4614(3) 0.42498(10)
Co7 Co 0.54270(4) 0.59704(3) 0.42765(2)
Co9 Co 0.54677(4) 0.14407(3) 0.57591(2)
O26 O 0.83338(19) 0.42654(18) 0.08672(7)
O28 O 0.95465(19) 0.48764(17) 0.08433(7)
O29 O 0.8328(2) 0.02802(18) 0.42325(7)
N9 N 0.9386(2) 0.1051(2) 0.47564(8)
N12 N 0.9288(2) 0.3819(2) 0.02865(8)
N1 N 0.5614(2) 0.3949(2) 0.97564(8)
C8 C 0.5974(3) 0.4580(3) 0.99174(10)
H6 H 0.6098 0.5091 0.9816
C12 C 0.5451(3) 0.3249(3) 0.99058(10)
H9 H 0.5210 0.2793 0.9799
Co6 Co 0.54270(4) 0.40296(3) 0.92765(2)
O4 O 0.66662(19) 0.92654(18) 0.08672(7)
O5 O 0.54535(19) 0.98764(17) 0.08433(7)
C14 C 0.6227(3) 0.9917(3) 0.08572(9)
H21 H 0.9261 0.9967 0.1725
Co12 Co 0.54677(4) 0.85593(3) 0.07591(2)
O31 O 0.95232(19) 0.96546(17) 0.42819(6)
C61_2 C 0.0974(3) 0.0420(3) 0.00826(10)
C65_2 C 0.0451(3) 0.1751(3) 0.00942(10)
H51_2 H 0.0210 0.2207 0.0201
C75_2 C 0.8507(3) 0.3847(3) 0.01825(11)
H57_2 H 0.8068 0.3780 0.0324
C79_2 C 0.9880(3) 0.3932(3) 0.00823(11)
O1_2 O 0.90465(18) 0.20614(17) 0.58391(7)
O2_2 O 0.5976(2) 0.25571(19) 0.56734(7)
O3_2 O 0.58339(19) 0.39469(18) 0.57042(7)
O4_2 O 0.83338(19) 0.57346(18) 0.58672(7)
O5_2 O 0.95465(19) 0.51236(17) 0.58433(7)
O6_2 O 0.10311(19) 0.34149(17) 0.58221(7)
O7_2 O 0.41132(19) 0.28706(18) 0.57759(7)
O8_2 O 0.42310(19) 0.15072(18) 0.56817(7)
O10_2 O 0.04768(19) 0.03454(17) 0.57181(6)
O11_2 O 0.4720(4) 0.4593(3) 0.71238(9)
O12_2 O 0.4892(3) 0.2465(3) 0.71099(8)
N3_2 N 0.4667(2) 0.4125(2) 0.62042(8)
N4_2 N 0.5323(3) 0.1706(2) 0.62271(8)
C1_2 C 0.8504(3) 0.2729(3) 0.58206(9)
C2_2 C 0.7658(3) 0.2658(3) 0.57748(9)
H1_2 H 0.7415 0.2120 0.5748
C3_2 C 0.7168(3) 0.3369(2) 0.57687(9)
C4_2 C 0.7525(3) 0.4161(3) 0.58092(9)
H2_2 H 0.7188 0.4651 0.5810
C5_2 C 0.8369(3) 0.4228(2) 0.58488(9)
C6_2 C 0.8866(3) 0.3518(3) 0.58571(9)
H3_2 H 0.9446 0.3569 0.5887
C7_2 C 0.8808(3) 0.1273(3) 0.57099(10)
H4_2 H 0.8207 0.1189 0.5740
H5_2 H 0.9101 0.0813 0.5816
C8_2 C 0.9026(3) 0.0420(3) 0.49174(10)
C9_2 C 0.8832(3) 0.0481(3) 0.52179(10)
H7_2 H 0.8582 0.0020 0.5320
C10_2 C 0.9004(3) 0.1226(3) 0.53753(10)
C11_2 C 0.9383(3) 0.1851(3) 0.52122(10)
H8_2 H 0.9533 0.2360 0.5310
C12_2 C 0.9549(3) 0.1751(3) 0.49058(10)
H9_2 H 0.9790 0.2207 0.4799
C13_2 C 0.6250(3) 0.3284(3) 0.57118(9)
C14_2 C 0.8773(3) 0.5083(3) 0.58572(9)
C15_2 C 0.1554(3) 0.2731(2) 0.57807(9)
C16_2 C 0.2402(3) 0.2799(3) 0.57674(9)
H10_2 H 0.2656 0.3338 0.5775
C17_2 C 0.2890(3) 0.2079(2) 0.57433(9)
C18_2 C 0.2506(3) 0.1291(3) 0.57387(9)
H11_2 H 0.2834 0.0798 0.5721
C19_2 C 0.1665(3) 0.1222(3) 0.57593(9)
C20_2 C 0.1173(3) 0.1950(3) 0.57789(9)
H12_2 H 0.0587 0.1907 0.5791
C21_2 C 0.1242(3) 0.4175(3) 0.56632(10)
H13_2 H 0.1835 0.4306 0.5695
H14_2 H 0.0910 0.4648 0.5743
C22_2 C 0.1493(3) 0.3847(3) 0.48175(11)
H15_2 H 0.1932 0.3780 0.4676
C23_2 C 0.1695(3) 0.3967(3) 0.51191(11)
H16_2 H 0.2258 0.3980 0.5181
C24_2 C 0.1073(3) 0.4066(3) 0.53277(10)
C25_2 C 0.0271(3) 0.4051(3) 0.52227(10)
C26_2 C 0.0120(3) 0.3932(3) 0.49177(11)
C27_2 C 0.3804(3) 0.2160(3) 0.57301(9)
C28_2 C 0.1245(3) 0.0386(3) 0.57502(10)
C29_2 C 0.4075(3) 0.3827(3) 0.63843(10)
H19_2 H 0.3640 0.3514 0.6294
C30_2 C 0.4053(4) 0.3943(4) 0.66927(12)
H20_2 H 0.3620 0.3707 0.6811
C31_2 C 0.4668(5) 0.4407(4) 0.68257(12)
C32_2 C 0.5298(5) 0.4716(4) 0.66414(13)
H21_2 H 0.5739 0.5033 0.6725
C33_2 C 0.5271(4) 0.4554(3) 0.63367(11)
H22_2 H 0.5709 0.4761 0.6214
C34_2 C 0.4338(5) 0.4058(4) 0.73448(13)
H23_2 H 0.3917 0.3700 0.7246
H24_2 H 0.4056 0.4407 0.7499
C35_3 C 0.5000 0.3495(7) 0.7500
C36_2 C 0.5472(5) 0.2973(4) 0.72735(12)
H25_2 H 0.5777 0.3344 0.7132
H26_2 H 0.5878 0.2611 0.7379
C37_2 C 0.4617(3) 0.1529(3) 0.63757(11)
H27_2 H 0.4192 0.1235 0.6271
C38_2 C 0.4484(4) 0.1756(4) 0.66754(12)
H28_2 H 0.3981 0.1610 0.6774
C39_2 C 0.5088(4) 0.2195(4) 0.68286(12)
C40_2 C 0.5816(4) 0.2355(3) 0.66807(11)
H29_2 H 0.6255 0.2632 0.6783
C41_2 C 0.5911(3) 0.2113(3) 0.63821(11)
H30_2 H 0.6416 0.2241 0.6283
O13_2 O 0.5280(4) 0.4593(3) 0.78762(9)
O14_2 O 0.5108(3) 0.2465(3) 0.78901(8)
N5_2 N 0.5333(2) 0.4125(2) 0.87958(8)
N6_2 N 0.4677(3) 0.1706(2) 0.87729(8)
C42_2 C 0.5925(3) 0.3827(3) 0.86157(10)
H31_2 H 0.6360 0.3514 0.8706
C43_2 C 0.5947(4) 0.3943(4) 0.83073(12)
H32_2 H 0.6380 0.3707 0.8189
C44_2 C 0.5332(5) 0.4407(4) 0.81743(12)
C45_2 C 0.4702(5) 0.4716(4) 0.83586(13)
H33_2 H 0.4261 0.5033 0.8275
C46_2 C 0.4729(4) 0.4554(3) 0.86633(11)
H34_2 H 0.4291 0.4761 0.8786
C47_2 C 0.5662(5) 0.4058(4) 0.76552(13)
H35_2 H 0.6083 0.3700 0.7754
H36_2 H 0.5944 0.4407 0.7501
C48_2 C 0.4528(5) 0.2973(4) 0.77265(12)
H37_2 H 0.4223 0.3344 0.7868
H38_2 H 0.4122 0.2611 0.7621
C49_2 C 0.5383(3) 0.1529(3) 0.86243(11)
H39_2 H 0.5808 0.1235 0.8729
C50_2 C 0.5516(4) 0.1756(4) 0.83246(12)
H40_2 H 0.6019 0.1610 0.8226
C51_2 C 0.4912(4) 0.2195(4) 0.81714(12)
C52_2 C 0.4184(4) 0.2355(3) 0.83193(11)
H41_2 H 0.3745 0.2632 0.8217
C53_2 C 0.4089(3) 0.2113(3) 0.86179(11)
H42_2 H 0.3584 0.2241 0.8717
O15_2 O 0.09535(18) 0.20614(17) 0.91609(7)
O16_2 O 0.4024(2) 0.25571(19) 0.93266(7)
O17_2 O 0.41661(19) 0.39469(18) 0.92958(7)
O18_2 O 0.16662(19) 0.57346(18) 0.91328(7)
O19_2 O 0.04535(19) 0.51236(17) 0.91567(7)
O20_2 O 0.89689(19) 0.34149(17) 0.91779(7)
O21_2 O 0.58868(19) 0.28706(18) 0.92241(7)
O22_2 O 0.57690(19) 0.15072(18) 0.93183(7)
O24_2 O 0.95232(19) 0.03454(17) 0.92819(6)
C54_2 C 0.1496(3) 0.2729(3) 0.91794(9)
C55_2 C 0.2342(3) 0.2658(3) 0.92252(9)
H43_2 H 0.2585 0.2120 0.9252
C56_2 C 0.2832(3) 0.3369(2) 0.92313(9)
C57_2 C 0.2475(3) 0.4161(3) 0.91908(9)
H44_2 H 0.2812 0.4651 0.9190
C58_2 C 0.1631(3) 0.4228(2) 0.91512(9)
C59_2 C 0.1134(3) 0.3518(3) 0.91429(9)
H45_2 H 0.0554 0.3569 0.9113
C60_2 C 0.1192(3) 0.1273(3) 0.92901(10)
H46_2 H 0.1793 0.1189 0.9260
H47_2 H 0.0899 0.0813 0.9184
C62_2 C 0.1168(3) 0.0481(3) 0.97821(10)
H49_2 H 0.1418 0.0020 0.9680
C63_2 C 0.0996(3) 0.1226(3) 0.96247(10)
C64_2 C 0.0617(3) 0.1851(3) 0.97878(10)
H50_2 H 0.0467 0.2360 0.9690
C66_2 C 0.3750(3) 0.3284(3) 0.92882(9)
C67_2 C 0.1227(3) 0.5083(3) 0.91428(9)
C68_2 C 0.8446(3) 0.2731(2) 0.92193(9)
C69_2 C 0.7598(3) 0.2799(3) 0.92326(9)
H52_2 H 0.7344 0.3338 0.9225
C70_2 C 0.7110(3) 0.2079(2) 0.92567(9)
C71_2 C 0.7494(3) 0.1291(3) 0.92613(9)
H53_2 H 0.7166 0.0798 0.9279
C72_2 C 0.8335(3) 0.1222(3) 0.92407(9)
C73_2 C 0.8827(3) 0.1950(3) 0.92211(9)
H54_2 H 0.9413 0.1907 0.9209
C74_2 C 0.8758(3) 0.4175(3) 0.93368(10)
H55_2 H 0.8165 0.4306 0.9305
H56_2 H 0.9090 0.4648 0.9257
C76_2 C 0.8305(3) 0.3967(3) 0.98809(11)
H58_2 H 0.7742 0.3980 0.9819
C77_2 C 0.8927(3) 0.4066(3) 0.96723(10)
C78_2 C 0.9729(3) 0.4051(3) 0.97773(10)
C80_2 C 0.6196(3) 0.2160(3) 0.92699(9)
C81_2 C 0.8755(3) 0.0386(3) 0.92498(10)
Co11_2 Co 0.04677(4) 0.64407(3) 0.92409(2)
Co12_2 Co 0.95323(4) 0.64407(3) 0.57591(2)
O25_2 O 0.33338(19) 0.07346(18) 0.91328(7)
O26_2 O 0.66662(19) 0.07346(18) 0.58672(7)
O27_2 O 0.45465(19) 0.01236(17) 0.91567(7)
O28_2 O 0.54535(19) 0.01236(17) 0.58433(7)
O29_2 O 0.6672(2) 0.47198(18) 0.92325(7)
O30_2 O 0.3328(2) 0.47198(18) 0.57675(7)
O31_2 O 0.54768(19) 0.53454(17) 0.92819(6)
O32_2 O 0.45232(19) 0.53454(17) 0.57181(6)
O9_2 O 0.1672(2) 0.97198(18) 0.57675(7)
H6_2 H 0.8902 0.9909 0.4816
O23_2 O 0.8328(2) 0.97198(18) 0.92325(7)
Co7_2 Co 0.95730(4) 0.90296(3) 0.92765(2)
Co8_2 Co 0.04270(4) 0.90296(3) 0.57235(2)
C14_3 C 0.3773(3) 0.0083(3) 0.91428(9)
H21_3 H 0.0739 0.0033 0.8275
N1_2 N 0.4386(2) 0.6051(2) 0.02436(8)
C8_3 C 0.4026(3) 0.5420(3) 0.00826(10)
H6_3 H 0.3902 0.4909 0.0184
C12_3 C 0.4549(3) 0.6751(3) 0.00942(10)
H9_3 H 0.4790 0.7207 0.0201
O1_3 O 0.40465(18) 0.70614(17) 0.91609(7)
O2_3 O 0.0976(2) 0.75571(19) 0.93266(7)
O3_3 O 0.08339(19) 0.89469(18) 0.92958(7)
N4_3 N 0.0323(3) 0.6706(2) 0.87729(8)
C1_3 C 0.3504(3) 0.7729(3) 0.91794(9)
C2_3 C 0.2658(3) 0.7658(3) 0.92252(9)
H1_3 H 0.2415 0.7120 0.9252
C3_3 C 0.2168(3) 0.8369(2) 0.92313(9)
C4_3 C 0.2525(3) 0.9161(3) 0.91908(9)
H2_3 H 0.2188 0.9651 0.9190
C5_3 C 0.3369(3) 0.9228(2) 0.91512(9)
C6_3 C 0.3866(3) 0.8518(3) 0.91429(9)
H3_3 H 0.4446 0.8569 0.9113
C7_3 C 0.3808(3) 0.6273(3) 0.92901(10)
H4_3 H 0.3207 0.6189 0.9260
H5_3 H 0.4101 0.5813 0.9184
C9_3 C 0.3832(3) 0.5481(3) 0.97821(10)
H7_3 H 0.3582 0.5020 0.9680
C10_3 C 0.4004(3) 0.6226(3) 0.96247(10)
C11_3 C 0.4383(3) 0.6851(3) 0.97878(10)
H8_3 H 0.4533 0.7360 0.9690
C13_3 C 0.1250(3) 0.8284(3) 0.92882(9)
C32_3 C 0.0298(5) 0.9716(4) 0.83586(13)
C33_3 C 0.0271(4) 0.9554(3) 0.86633(11)
H22_3 H 0.0709 0.9761 0.8786
C35_4 C -0.0000 0.8495(7) 0.7500
C36_3 C 0.0472(5) 0.7973(4) 0.77265(12)
H25_3 H 0.0777 0.8344 0.7868
H26_3 H 0.0878 0.7611 0.7621
C39_3 C 0.0088(4) 0.7195(4) 0.81714(12)
C40_3 C 0.0816(4) 0.7355(3) 0.83193(11)
H29_3 H 0.1255 0.7632 0.8217
C41_3 C 0.0911(3) 0.7113(3) 0.86179(11)
H30_3 H 0.1416 0.7241 0.8717
O13_3 O 0.0280(4) 0.9593(3) 0.71238(9)
O14_3 O 0.0108(3) 0.7465(3) 0.71099(8)
N5_3 N 0.0333(2) 0.9125(2) 0.62042(8)
C42_3 C 0.0925(3) 0.8827(3) 0.63843(10)
H31_3 H 0.1360 0.8514 0.6294
C43_3 C 0.0947(4) 0.8943(4) 0.66927(12)
H32_3 H 0.1380 0.8707 0.6811
C44_3 C 0.0332(5) 0.9407(4) 0.68257(12)
C47_3 C 0.0662(5) 0.9058(4) 0.73448(13)
H35_3 H 0.1083 0.8700 0.7246
H36_3 H 0.0944 0.9407 0.7499
C49_3 C 0.0383(3) 0.6529(3) 0.63757(11)
H39_3 H 0.0808 0.6235 0.6271
C50_3 C 0.0516(4) 0.6756(4) 0.66754(12)
H40_3 H 0.1019 0.6610 0.6774
O20_3 O 0.39689(19) 0.84149(17) 0.58221(7)
O21_3 O 0.08868(19) 0.78706(18) 0.57759(7)
O22_3 O 0.07690(19) 0.65072(18) 0.56817(7)
N8_2 N 0.4288(2) 0.8819(2) 0.47135(8)
C68_3 C 0.3446(3) 0.7731(2) 0.57807(9)
C69_3 C 0.2598(3) 0.7799(3) 0.57674(9)
H52_3 H 0.2344 0.8338 0.5775
C70_3 C 0.2110(3) 0.7079(2) 0.57433(9)
C71_3 C 0.2494(3) 0.6291(3) 0.57387(9)
H53_3 H 0.2166 0.5798 0.5721
C72_3 C 0.3335(3) 0.6222(3) 0.57593(9)
C73_3 C 0.3827(3) 0.6950(3) 0.57789(9)
H54_3 H 0.4413 0.6907 0.5791
C74_3 C 0.3758(3) 0.9175(3) 0.56632(10)
H55_3 H 0.3165 0.9306 0.5695
H56_3 H 0.4090 0.9648 0.5743
C75_3 C 0.3507(3) 0.8847(3) 0.48175(11)
H57_3 H 0.3068 0.8780 0.4676
C76_3 C 0.3305(3) 0.8967(3) 0.51191(11)
H58_3 H 0.2742 0.8980 0.5181
C77_3 C 0.3927(3) 0.9066(3) 0.53277(10)
C78_3 C 0.4729(3) 0.9051(3) 0.52227(10)
H59_2 H 0.5178 0.9123 0.5359
C79_3 C 0.4880(3) 0.8932(3) 0.49177(11)
H60_2 H 0.5438 0.8932 0.4851
C80_3 C 0.1196(3) 0.7160(3) 0.57301(9)
C81_3 C 0.3755(3) 0.5386(3) 0.57502(10)
N9_2 N 0.0614(2) 0.8949(2) 0.52436(8)
N12_2 N 0.0712(2) 0.6181(2) 0.97135(8)
H33_3 H 0.9261 0.0033 0.6725
C67_3 C 0.6227(3) 0.0083(3) 0.58572(9)
N2_2 N 0.5712(2) 0.8819(2) 0.02865(8)
C22_3 C 0.6493(3) 0.8847(3) 0.01825(11)
H15_3 H 0.6932 0.8780 0.0324
C26_3 C 0.5120(3) 0.8932(3) 0.00823(11)
H18_2 H 0.4562 0.8932 0.0149
O6_3 O 0.60311(19) 0.84149(17) 0.91779(7)
O7_3 O 0.91132(19) 0.78706(18) 0.92241(7)
O8_3 O 0.92310(19) 0.65072(18) 0.93183(7)
O11_3 O 0.9720(4) 0.9593(3) 0.78762(9)
O12_3 O 0.9892(3) 0.7465(3) 0.78901(8)
N3_3 N 0.9667(2) 0.9125(2) 0.87958(8)
C15_3 C 0.6554(3) 0.7731(2) 0.92193(9)
C16_3 C 0.7402(3) 0.7799(3) 0.92326(9)
H10_3 H 0.7656 0.8338 0.9225
C17_3 C 0.7890(3) 0.7079(2) 0.92567(9)
C18_3 C 0.7506(3) 0.6291(3) 0.92613(9)
H11_3 H 0.7834 0.5798 0.9279
C19_3 C 0.6665(3) 0.6222(3) 0.92407(9)
C20_3 C 0.6173(3) 0.6950(3) 0.92211(9)
H12_3 H 0.5587 0.6907 0.9209
C21_3 C 0.6242(3) 0.9175(3) 0.93368(10)
H13_3 H 0.6835 0.9306 0.9305
H14_3 H 0.5910 0.9648 0.9257
C23_3 C 0.6695(3) 0.8967(3) 0.98809(11)
H16_3 H 0.7258 0.8980 0.9819
C24_3 C 0.6073(3) 0.9066(3) 0.96723(10)
C25_3 C 0.5271(3) 0.9051(3) 0.97773(10)
H17_2 H 0.4822 0.9123 0.9641
C27_3 C 0.8804(3) 0.7160(3) 0.92699(9)
C28_3 C 0.6245(3) 0.5386(3) 0.92498(10)
C29_3 C 0.9075(3) 0.8827(3) 0.86157(10)
H19_3 H 0.8640 0.8514 0.8706
C30_3 C 0.9053(4) 0.8943(4) 0.83073(12)
H20_3 H 0.8620 0.8707 0.8189
C31_3 C 0.9668(5) 0.9407(4) 0.81743(12)
C34_3 C 0.9338(5) 0.9058(4) 0.76552(13)
H23_3 H 0.8917 0.8700 0.7754
H24_3 H 0.9056 0.9407 0.7501
C35_5 C 1.0000 0.8495(7) 0.7500
C37_3 C 0.9617(3) 0.6529(3) 0.86243(11)
H27_3 H 0.9192 0.6235 0.8729
C38_3 C 0.9484(4) 0.6756(4) 0.83246(12)
H28_3 H 0.8981 0.6610 0.8226
N6_3 N 0.9677(3) 0.6706(2) 0.62271(8)
C45_3 C 0.9702(5) 0.9716(4) 0.66414(13)
C46_3 C 0.9729(4) 0.9554(3) 0.63367(11)
H34_3 H 0.9291 0.9761 0.6214
C48_3 C 0.9528(5) 0.7973(4) 0.72735(12)
H37_3 H 0.9223 0.8344 0.7132
H38_3 H 0.9122 0.7611 0.7379
C51_3 C 0.9912(4) 0.7195(4) 0.68286(12)
C52_3 C 0.9184(4) 0.7355(3) 0.66807(11)
H41_3 H 0.8745 0.7632 0.6783
C53_3 C 0.9089(3) 0.7113(3) 0.63821(11)
H42_3 H 0.8584 0.7241 0.6283
O15_3 O 0.59535(18) 0.70614(17) 0.58391(7)
O16_3 O 0.9024(2) 0.75571(19) 0.56734(7)
O17_3 O 0.91661(19) 0.89469(18) 0.57042(7)
N7_2 N 0.5614(2) 0.6051(2) 0.47564(8)
C54_3 C 0.6496(3) 0.7729(3) 0.58206(9)
C55_3 C 0.7342(3) 0.7658(3) 0.57748(9)
H43_3 H 0.7585 0.7120 0.5748
C56_3 C 0.7832(3) 0.8369(2) 0.57687(9)
C57_3 C 0.7475(3) 0.9161(3) 0.58092(9)
H44_3 H 0.7812 0.9651 0.5810
C58_3 C 0.6631(3) 0.9228(2) 0.58488(9)
C59_3 C 0.6134(3) 0.8518(3) 0.58571(9)
H45_3 H 0.5554 0.8569 0.5887
C60_3 C 0.6192(3) 0.6273(3) 0.57099(10)
H46_3 H 0.6793 0.6189 0.5740
H47_3 H 0.5899 0.5813 0.5816
C61_3 C 0.5974(3) 0.5420(3) 0.49174(10)
H48_2 H 0.6098 0.4909 0.4816
C62_3 C 0.6168(3) 0.5481(3) 0.52179(10)
H49_3 H 0.6418 0.5020 0.5320
C63_3 C 0.5996(3) 0.6226(3) 0.53753(10)
C64_3 C 0.5617(3) 0.6851(3) 0.52122(10)
H50_3 H 0.5467 0.7360 0.5310
C65_3 C 0.5451(3) 0.6751(3) 0.49058(10)
H51_3 H 0.5210 0.7207 0.4799
C66_3 C 0.8750(3) 0.8284(3) 0.57118(9)
N10_2 N 0.9386(2) 0.8949(2) 0.97564(8)
N11_2 N 0.9288(2) 0.6181(2) 0.52865(8)
H6_4 H 0.1098 0.0091 0.5184
O1_4 O 0.09535(18) 0.79386(17) 0.41609(7)
O2_4 O 0.4024(2) 0.74429(19) 0.43266(7)
O3_4 O 0.41661(19) 0.60531(18) 0.42958(7)
O6_4 O 0.89689(19) 0.65851(17) 0.41779(7)
O7_4 O 0.58868(19) 0.71294(18) 0.42241(7)
O8_4 O 0.57690(19) 0.84928(18) 0.43183(7)
O11_4 O 0.5280(4) 0.5407(3) 0.28762(9)
O12_4 O 0.5108(3) 0.7535(3) 0.28901(8)
N3_4 N 0.5333(2) 0.5875(2) 0.37958(8)
N4_4 N 0.4677(3) 0.8294(2) 0.37729(8)
C1_4 C 0.1496(3) 0.7271(3) 0.41794(9)
C2_4 C 0.2342(3) 0.7342(3) 0.42252(9)
H1_4 H 0.2585 0.7880 0.4252
C3_4 C 0.2832(3) 0.6631(2) 0.42313(9)
C4_4 C 0.2475(3) 0.5839(3) 0.41908(9)
H2_4 H 0.2812 0.5349 0.4190
C5_4 C 0.1631(3) 0.5772(2) 0.41512(9)
C6_4 C 0.1134(3) 0.6482(3) 0.41429(9)
H3_4 H 0.0554 0.6431 0.4113
C7_4 C 0.1192(3) 0.8727(3) 0.42901(10)
H4_4 H 0.1793 0.8811 0.4260
H5_4 H 0.0899 0.9187 0.4184
C8_4 C 0.0974(3) 0.9580(3) 0.50826(10)
C9_4 C 0.1168(3) 0.9519(3) 0.47821(10)
H7_4 H 0.1418 0.9980 0.4680
C10_4 C 0.0996(3) 0.8774(3) 0.46247(10)
C11_4 C 0.0617(3) 0.8149(3) 0.47878(10)
H8_4 H 0.0467 0.7640 0.4690
C12_4 C 0.0451(3) 0.8249(3) 0.50942(10)
H9_4 H 0.0210 0.7793 0.5201
C13_4 C 0.3750(3) 0.6716(3) 0.42882(9)
C14_4 C 0.1227(3) 0.4917(3) 0.41428(9)
C15_4 C 0.8446(3) 0.7269(2) 0.42193(9)
C16_4 C 0.7598(3) 0.7201(3) 0.42326(9)
H10_4 H 0.7344 0.6662 0.4225
C17_4 C 0.7110(3) 0.7921(2) 0.42567(9)
C18_4 C 0.7494(3) 0.8709(3) 0.42613(9)
H11_4 H 0.7166 0.9202 0.4279
C19_4 C 0.8335(3) 0.8778(3) 0.42407(9)
C20_4 C 0.8827(3) 0.8050(3) 0.42211(9)
H12_4 H 0.9413 0.8093 0.4209
C21_4 C 0.8758(3) 0.5825(3) 0.43368(10)
H13_4 H 0.8165 0.5694 0.4305
H14_4 H 0.9090 0.5352 0.4257
C22_4 C 0.8507(3) 0.6153(3) 0.51825(11)
H15_4 H 0.8068 0.6220 0.5324
C23_4 C 0.8305(3) 0.6033(3) 0.48809(11)
H16_4 H 0.7742 0.6020 0.4819
C24_4 C 0.8927(3) 0.5934(3) 0.46723(10)
C25_4 C 0.9729(3) 0.5949(3) 0.47773(10)
C26_4 C 0.9880(3) 0.6068(3) 0.50823(11)
C27_4 C 0.6196(3) 0.7840(3) 0.42699(9)
C28_4 C 0.8755(3) 0.9614(3) 0.42498(10)
C29_4 C 0.5925(3) 0.6173(3) 0.36157(10)
H19_4 H 0.6360 0.6486 0.3706
C30_4 C 0.5947(4) 0.6057(4) 0.33073(12)
H20_4 H 0.6380 0.6293 0.3189
C31_4 C 0.5332(5) 0.5593(4) 0.31743(12)
C32_4 C 0.4702(5) 0.5284(4) 0.33586(13)
H21_4 H 0.4261 0.4967 0.3275
C33_4 C 0.4729(4) 0.5446(3) 0.36633(11)
H22_4 H 0.4291 0.5239 0.3786
C34_4 C 0.5662(5) 0.5942(4) 0.26552(13)
H23_4 H 0.6083 0.6300 0.2754
H24_4 H 0.5944 0.5593 0.2501
C35_6 C 0.5000 0.6505(7) 0.2500
C36_4 C 0.4528(5) 0.7027(4) 0.27265(12)
H25_4 H 0.4223 0.6656 0.2868
H26_4 H 0.4122 0.7389 0.2621
C37_4 C 0.5383(3) 0.8471(3) 0.36243(11)
H27_4 H 0.5808 0.8765 0.3729
C38_4 C 0.5516(4) 0.8244(4) 0.33246(12)
H28_4 H 0.6019 0.8390 0.3226
C39_4 C 0.4912(4) 0.7805(4) 0.31714(12)
C40_4 C 0.4184(4) 0.7645(3) 0.33193(11)
H29_4 H 0.3745 0.7368 0.3217
C41_4 C 0.4089(3) 0.7887(3) 0.36179(11)
H30_4 H 0.3584 0.7759 0.3717
O13_4 O 0.4720(4) 0.5407(3) 0.21238(9)
O14_4 O 0.4892(3) 0.7535(3) 0.21099(8)
N5_4 N 0.4667(2) 0.5875(2) 0.12042(8)
N6_4 N 0.5323(3) 0.8294(2) 0.12271(8)
C42_4 C 0.4075(3) 0.6173(3) 0.13843(10)
H31_4 H 0.3640 0.6486 0.1294
C43_4 C 0.4053(4) 0.6057(4) 0.16927(12)
H32_4 H 0.3620 0.6293 0.1811
C44_4 C 0.4668(5) 0.5593(4) 0.18257(12)
C45_4 C 0.5298(5) 0.5284(4) 0.16414(13)
H33_4 H 0.5739 0.4967 0.1725
C46_4 C 0.5271(4) 0.5446(3) 0.13367(11)
H34_4 H 0.5709 0.5239 0.1214
C47_4 C 0.4338(5) 0.5942(4) 0.23448(13)
H35_4 H 0.3917 0.6300 0.2246
H36_4 H 0.4056 0.5593 0.2499
C48_4 C 0.5472(5) 0.7027(4) 0.22735(12)
H37_4 H 0.5777 0.6656 0.2132
H38_4 H 0.5878 0.7389 0.2379
C49_4 C 0.4617(3) 0.8471(3) 0.13757(11)
H39_4 H 0.4192 0.8765 0.1271
C50_4 C 0.4484(4) 0.8244(4) 0.16754(12)
H40_4 H 0.3981 0.8390 0.1774
C51_4 C 0.5088(4) 0.7805(4) 0.18286(12)
C52_4 C 0.5816(4) 0.7645(3) 0.16807(11)
H41_4 H 0.6255 0.7368 0.1783
C53_4 C 0.5911(3) 0.7887(3) 0.13821(11)
H42_4 H 0.6416 0.7759 0.1283
O15_4 O 0.90465(18) 0.79386(17) 0.08391(7)
O16_4 O 0.5976(2) 0.74429(19) 0.06734(7)
O17_4 O 0.58339(19) 0.60531(18) 0.07042(7)
O20_4 O 0.10311(19) 0.65851(17) 0.08221(7)
O21_4 O 0.41132(19) 0.71294(18) 0.07759(7)
O22_4 O 0.42310(19) 0.84928(18) 0.06817(7)
C54_4 C 0.8504(3) 0.7271(3) 0.08206(9)
C55_4 C 0.7658(3) 0.7342(3) 0.07748(9)
H43_4 H 0.7415 0.7880 0.0748
C56_4 C 0.7168(3) 0.6631(2) 0.07687(9)
C57_4 C 0.7525(3) 0.5839(3) 0.08092(9)
H44_4 H 0.7188 0.5349 0.0810
C58_4 C 0.8369(3) 0.5772(2) 0.08488(9)
C59_4 C 0.8866(3) 0.6482(3) 0.08571(9)
H45_4 H 0.9446 0.6431 0.0887
C60_4 C 0.8808(3) 0.8727(3) 0.07099(10)
H46_4 H 0.8207 0.8811 0.0740
H47_4 H 0.9101 0.9187 0.0816
C62_4 C 0.8832(3) 0.9519(3) 0.02179(10)
H49_4 H 0.8582 0.9980 0.0320
C63_4 C 0.9004(3) 0.8774(3) 0.03753(10)
C64_4 C 0.9383(3) 0.8149(3) 0.02122(10)
H50_4 H 0.9533 0.7640 0.0310
C66_4 C 0.6250(3) 0.6716(3) 0.07118(9)
C67_4 C 0.8773(3) 0.4917(3) 0.08572(9)
C68_4 C 0.1554(3) 0.7269(2) 0.07807(9)
C69_4 C 0.2402(3) 0.7201(3) 0.07674(9)
H52_4 H 0.2656 0.6662 0.0775
C70_4 C 0.2890(3) 0.7921(2) 0.07433(9)
C71_4 C 0.2506(3) 0.8709(3) 0.07387(9)
H53_4 H 0.2834 0.9202 0.0721
C72_4 C 0.1665(3) 0.8778(3) 0.07593(9)
C73_4 C 0.1173(3) 0.8050(3) 0.07789(9)
H54_4 H 0.0587 0.8093 0.0791
C74_4 C 0.1242(3) 0.5825(3) 0.06632(10)
H55_4 H 0.1835 0.5694 0.0695
H56_4 H 0.0910 0.5352 0.0743
C76_4 C 0.1695(3) 0.6033(3) 0.01191(11)
H58_4 H 0.2258 0.6020 0.0181
C77_4 C 0.1073(3) 0.5934(3) 0.03277(10)
C78_4 C 0.0271(3) 0.5949(3) 0.02227(10)
C80_4 C 0.3804(3) 0.7840(3) 0.07301(9)
C81_4 C 0.1245(3) 0.9614(3) 0.07502(10)
C61_4 C 0.9026(3) 0.9580(3) 0.99174(10)
C65_4 C 0.9549(3) 0.8249(3) 0.99058(10)
H51_4 H 0.9790 0.7793 0.9799
C75_4 C 0.1493(3) 0.6153(3) 0.98175(11)
H57_4 H 0.1932 0.6220 0.9676
C79_4 C 0.0120(3) 0.6068(3) 0.99177(11)
H60_3 H 0.0438 0.3932 0.0149
H59_3 H 0.0178 0.4123 0.9641
H48_3 H 0.1098 0.9909 0.0184
H17_3 H 0.9822 0.4123 0.5359
H18_3 H 0.9562 0.3932 0.4851
H17_4 H 0.0178 0.5877 0.4641
H18_4 H 0.0438 0.6068 0.5149
H48_4 H 0.8902 0.0091 0.9816
H59_4 H 0.9822 0.5877 0.0359
H60_4 H 0.9562 0.6068 0.9851
loop_
_geom_bond_atom_site_label_1
_geom_bond_atom_site_label_2
_geom_bond_site_symmetry_1
_geom_bond_site_symmetry_2
O6 C15 1_555 1_555
O7 Co1 1_555 1_555
O9 C28 1_555 1_555
O10 C28 1_555 1_555
O11 C31 1_555 1_555
N3 Co1 1_555 1_555
C15 C16 1_555 1_555
C16 H10 1_555 1_555
C17 C16 1_555 1_555
C18 C17 1_555 1_555
H11 C18 1_555 1_555
C19 C18 1_555 1_555
C20 C15 1_555 1_555
H12 C20 1_555 1_555
C21 O6 1_555 1_555
H13 C21 1_555 1_555
H14 C21 1_555 1_555
H16 C23 1_555 1_555
C24 C21 1_555 1_555
C25 C24 1_555 1_555
H17 C25 1_555 1_555
C27 O7 1_555 1_555
C28 C19 1_555 1_555
C29 N3 1_555 1_555
H19 C29 1_555 1_555
C30 C29 1_555 1_555
H20 C30 1_555 1_555
C31 C30 1_555 1_555
C34 O11 1_555 1_555
H23 C34 1_555 1_555
H24 C34 1_555 1_555
C35 C34 1_555 1_555
H27 C37 1_555 1_555
C38 C37 1_555 1_555
H28 C38 1_555 1_555
H34 C46 1_555 1_555
C48 C35 1_555 1_555
H37 C48 1_555 1_555
H38 C48 1_555 1_555
C52 C51 1_555 1_555
H41 C52 1_555 1_555
C53 N6 1_555 1_555
H42 C53 1_555 1_555
Co4 N6 1_555 1_555
O15 C54 1_555 1_555
O16 Co4 1_555 1_555
N7 C61 1_555 1_555
C54 C55 1_555 1_555
C55 H43 1_555 1_555
C56 C55 1_555 1_555
C57 C56 1_555 1_555
H44 C57 1_555 1_555
C58 C57 1_555 1_555
C59 C54 1_555 1_555
H45 C59 1_555 1_555
C60 O15 1_555 1_555
H46 C60 1_555 1_555
H47 C60 1_555 1_555
C61 H48 1_555 1_555
C62 C61 1_555 1_555
H49 C62 1_555 1_555
C63 C60 1_555 1_555
C64 C63 1_555 1_555
H50 C64 1_555 1_555
C65 N7 1_555 1_555
H51 C65 1_555 1_555
C66 O16 1_555 1_555
Co5 N7 1_555 1_555
Co8 O9 1_555 1_555
O25 Co4 1_555 1_555
O27 Co4 1_555 1_555
O30 Co1 1_555 1_555
N10 Co1 1_555 1_555
N11 Co4 1_555 1_555
O8 C27 1_555 1_555
O10 Co8 1_555 1_555
C17 C27 1_555 1_555
C19 C20 1_555 1_555
C23 C24 1_555 1_555
C45 C46 1_555 1_555
C52 C53 1_555 1_555
O17 C66 1_555 1_555
C56 C66 1_555 1_555
C58 C59 1_555 1_555
C62 C63 1_555 1_555
C64 C65 1_555 1_555
N2 C22 1_555 1_555
C22 H15 1_555 1_555
C26 N2 1_555 1_555
H18 C26 1_555 1_555
Co10 N2 1_555 1_555
O18 C67 1_555 1_555
O19 C67 1_555 1_555
Co11 O18 1_555 1_555
O19 Co11 1_555 1_555
Co2 O2 1_555 1_555
O1 C1 1_555 1_555
O2 C13 1_555 1_555
O3 C13 1_555 1_555
N4 Co2 1_555 1_555
C1 C2 1_555 1_555
C2 H1 1_555 1_555
C3 C2 1_555 1_555
C4 C3 1_555 1_555
H2 C4 1_555 1_555
C5 C4 1_555 1_555
C6 C1 1_555 1_555
H3 C6 1_555 1_555
C7 O1 1_555 1_555
H4 C7 1_555 1_555
H5 C7 1_555 1_555
H7 C9 1_555 1_555
C10 C7 1_555 1_555
C11 C10 1_555 1_555
H8 C11 1_555 1_555
C13 C3 1_555 1_555
H22 C33 1_555 1_555
C36 C35_2 1_555 1_555
H25 C36 1_555 1_555
H26 C36 1_555 1_555
C40 C39 1_555 1_555
H29 C40 1_555 1_555
C41 N4 1_555 1_555
H30 C41 1_555 1_555
O13 C44 1_555 1_555
N5 C42 1_555 1_555
C42 H31 1_555 1_555
C43 C42 1_555 1_555
H32 C43 1_555 1_555
C44 C43 1_555 1_555
C47 C35_2 1_555 1_555
H35 C47 1_555 1_555
H36 C47 1_555 1_555
C49 H39 1_555 1_555
C50 C49 1_555 1_555
H40 C50 1_555 1_555
Co3 N5 1_555 1_555
O20 C68 1_555 1_555
O21 Co3 1_555 1_555
O23 C81 1_555 1_555
O24 C81 1_555 1_555
N8 C75 1_555 1_555
C68 C69 1_555 1_555
C69 H52 1_555 1_555
C70 C69 1_555 1_555
C71 C70 1_555 1_555
H53 C71 1_555 1_555
C72 C71 1_555 1_555
C73 C68 1_555 1_555
H54 C73 1_555 1_555
C74 O20 1_555 1_555
H55 C74 1_555 1_555
H56 C74 1_555 1_555
C75 H57 1_555 1_555
C76 C75 1_555 1_555
H58 C76 1_555 1_555
C77 C74 1_555 1_555
C78 C77 1_555 1_555
H59 C78 1_555 1_555
C79 N8 1_555 1_555
H60 C79 1_555 1_555
C80 O21 1_555 1_555
C81 C72 1_555 1_555
Co7 O23 1_555 1_555
Co9 N8 1_555 1_555
O26 Co2 1_555 1_555
O28 Co2 1_555 1_555
O29 Co3 1_555 1_555
N9 Co3 1_555 1_555
N12 Co2 1_555 1_555
C5 C6 1_555 1_555
C9 C10 1_555 1_555
C32 C33 1_555 1_555
C40 C41 1_555 1_555
O13 C47 1_555 1_555
O22 C80 1_555 1_555
O24 Co7 1_555 1_555
C70 C80 1_555 1_555
C72 C73 1_555 1_555
C76 C77 1_555 1_555
C78 C79 1_555 1_555
N1 C8 1_555 1_555
C8 H6 1_555 1_555
C12 N1 1_555 1_555
H9 C12 1_555 1_555
Co6 N1 1_555 1_555
O4 C14 1_555 1_555
O5 C14 1_555 1_555
Co12 O4 1_555 1_555
O5 Co12 1_555 1_555
N10 C61_2 1_555 1_555
N12 C75_2 1_555 1_555
C65_2 N10 1_555 1_555
H51_2 C65_2 1_555 1_555
C75_2 H57_2 1_555 1_555
C79_2 N12 1_555 1_555
Co5 O3_2 1_555 1_555
Co9 O2_2 1_555 1_555
O1_2 C1_2 1_555 1_555
O2_2 C13_2 1_555 1_555
O3_2 C13_2 1_555 1_555
O4_2 C14_2 1_555 1_555
O5_2 C14_2 1_555 1_555
O6_2 C15_2 1_555 1_555
O7_2 Co5 1_555 1_555
O8_2 Co9 1_555 1_555
O10_2 C28_2 1_555 1_555
O11_2 C31_2 1_555 1_555
O12_2 C36_2 1_555 1_555
N9 C8_2 1_555 1_555
N11 C22_2 1_555 1_555
N3_2 Co5 1_555 1_555
N4_2 Co9 1_555 1_555
C1_2 C2_2 1_555 1_555
C2_2 H1_2 1_555 1_555
C3_2 C2_2 1_555 1_555
C4_2 C3_2 1_555 1_555
H2_2 C4_2 1_555 1_555
C5_2 C4_2 1_555 1_555
C6_2 C1_2 1_555 1_555
H3_2 C6_2 1_555 1_555
C7_2 O1_2 1_555 1_555
H4_2 C7_2 1_555 1_555
H5_2 C7_2 1_555 1_555
C9_2 C8_2 1_555 1_555
H7_2 C9_2 1_555 1_555
C10_2 C7_2 1_555 1_555
C11_2 C10_2 1_555 1_555
H8_2 C11_2 1_555 1_555
C12_2 N9 1_555 1_555
H9_2 C12_2 1_555 1_555
C13_2 C3_2 1_555 1_555
C14_2 C5_2 1_555 1_555
C15_2 C16_2 1_555 1_555
C16_2 H10_2 1_555 1_555
C17_2 C16_2 1_555 1_555
C18_2 C17_2 1_555 1_555
H11_2 C18_2 1_555 1_555
C19_2 C18_2 1_555 1_555
C20_2 C15_2 1_555 1_555
H12_2 C20_2 1_555 1_555
C21_2 O6_2 1_555 1_555
H13_2 C21_2 1_555 1_555
H14_2 C21_2 1_555 1_555
C22_2 H15_2 1_555 1_555
C23_2 C22_2 1_555 1_555
H16_2 C23_2 1_555 1_555
C24_2 C21_2 1_555 1_555
C25_2 C24_2 1_555 1_555
C26_2 N11 1_555 1_555
C27_2 O7_2 1_555 1_555
C28_2 C19_2 1_555 1_555
C29_2 N3_2 1_555 1_555
H19_2 C29_2 1_555 1_555
C30_2 C29_2 1_555 1_555
H20_2 C30_2 1_555 1_555
C31_2 C30_2 1_555 1_555
C32_2 C31_2 1_555 1_555
H21_2 C32_2 1_555 1_555
C33_2 N3_2 1_555 1_555
H22_2 C33_2 1_555 1_555
C34_2 O11_2 1_555 1_555
H23_2 C34_2 1_555 1_555
H24_2 C34_2 1_555 1_555
C35_3 C34_2 1_555 1_555
C36_2 C35_3 1_555 1_555
H25_2 C36_2 1_555 1_555
H26_2 C36_2 1_555 1_555
C37_2 N4_2 1_555 1_555
H27_2 C37_2 1_555 1_555
C38_2 C37_2 1_555 1_555
H28_2 C38_2 1_555 1_555
C39_2 O12_2 1_555 1_555
C40_2 C39_2 1_555 1_555
H29_2 C40_2 1_555 1_555
C41_2 N4_2 1_555 1_555
H30_2 C41_2 1_555 1_555
O13_2 C44_2 1_555 1_555
O14_2 C48_2 1_555 1_555
N5_2 C42_2 1_555 1_555
N6_2 C49_2 1_555 1_555
C42_2 H31_2 1_555 1_555
C43_2 C42_2 1_555 1_555
H32_2 C43_2 1_555 1_555
C44_2 C43_2 1_555 1_555
C45_2 C44_2 1_555 1_555
H33_2 C45_2 1_555 1_555
C46_2 N5_2 1_555 1_555
H34_2 C46_2 1_555 1_555
C47_2 C35_3 1_555 1_555
H35_2 C47_2 1_555 1_555
H36_2 C47_2 1_555 1_555
C48_2 C35_3 1_555 1_555
H37_2 C48_2 1_555 1_555
H38_2 C48_2 1_555 1_555
C49_2 H39_2 1_555 1_555
C50_2 C49_2 1_555 1_555
H40_2 C50_2 1_555 1_555
C51_2 O14_2 1_555 1_555
C52_2 C51_2 1_555 1_555
H41_2 C52_2 1_555 1_555
C53_2 N6_2 1_555 1_555
H42_2 C53_2 1_555 1_555
Co6 N5_2 1_555 1_555
Co10 N6_2 1_555 1_555
O15_2 C54_2 1_555 1_555
O16_2 Co10 1_555 1_555
O17_2 Co6 1_555 1_555
O18_2 C67_2 1_555 1_555
O19_2 C67_2 1_555 1_555
O20_2 C68_2 1_555 1_555
O21_2 Co6 1_555 1_555
O22_2 Co10 1_555 1_555
O24_2 C81_2 1_555 1_555
C54_2 C55_2 1_555 1_555
C55_2 H43_2 1_555 1_555
C56_2 C55_2 1_555 1_555
C57_2 C56_2 1_555 1_555
H44_2 C57_2 1_555 1_555
C58_2 C57_2 1_555 1_555
C59_2 C54_2 1_555 1_555
H45_2 C59_2 1_555 1_555
C60_2 O15_2 1_555 1_555
H46_2 C60_2 1_555 1_555
H47_2 C60_2 1_555 1_555
H49_2 C62_2 1_555 1_555
C63_2 C60_2 1_555 1_555
C64_2 C63_2 1_555 1_555
H50_2 C64_2 1_555 1_555
C66_2 O16_2 1_555 1_555
C67_2 C58_2 1_555 1_555
C68_2 C69_2 1_555 1_555
C69_2 H52_2 1_555 1_555
C70_2 C69_2 1_555 1_555
C71_2 C70_2 1_555 1_555
H53_2 C71_2 1_555 1_555
C72_2 C71_2 1_555 1_555
C73_2 C68_2 1_555 1_555
H54_2 C73_2 1_555 1_555
C74_2 O20_2 1_555 1_555
H55_2 C74_2 1_555 1_555
H56_2 C74_2 1_555 1_555
H58_2 C76_2 1_555 1_555
C77_2 C74_2 1_555 1_555
C78_2 C77_2 1_555 1_555
C80_2 O21_2 1_555 1_555
C81_2 C72_2 1_555 1_555
Co11_2 O18_2 1_555 1_555
Co12_2 O4_2 1_555 1_555
O25_2 Co10 1_555 1_555
O26_2 Co9 1_555 1_555
O27_2 Co10 1_555 1_555
O28_2 Co9 1_555 1_555
O29_2 Co6 1_555 1_555
O30_2 Co5 1_555 1_555
O31_2 Co6 1_555 1_555
O32_2 Co5 1_555 1_555
O5_2 Co12_2 1_555 1_555
O8_2 C27_2 1_555 1_555
C5_2 C6_2 1_555 1_555
C9_2 C10_2 1_555 1_555
C11_2 C12_2 1_555 1_555
C17_2 C27_2 1_555 1_555
C19_2 C20_2 1_555 1_555
C23_2 C24_2 1_555 1_555
C25_2 C26_2 1_555 1_555
C32_2 C33_2 1_555 1_555
C38_2 C39_2 1_555 1_555
C40_2 C41_2 1_555 1_555
O13_2 C47_2 1_555 1_555
C45_2 C46_2 1_555 1_555
C50_2 C51_2 1_555 1_555
C52_2 C53_2 1_555 1_555
O17_2 C66_2 1_555 1_555
O19_2 Co11_2 1_555 1_555
O22_2 C80_2 1_555 1_555
C56_2 C66_2 1_555 1_555
C58_2 C59_2 1_555 1_555
C62_2 C63_2 1_555 1_555
C70_2 C80_2 1_555 1_555
C72_2 C73_2 1_555 1_555
C76_2 C77_2 1_555 1_555
Co7_2 O23_2 1_555 1_555
Co8_2 O9_2 1_555 1_555
O25_2 C14_3 1_555 1_555
O27_2 C14_3 1_555 1_555
N1_2 C8_3 1_555 1_555
C8_3 H6_3 1_555 1_555
C12_3 N1_2 1_555 1_555
H9_3 C12_3 1_555 1_555
Co8 N1_2 1_555 1_555
Co11_2 O2_3 1_555 1_555
O1_3 C1_3 1_555 1_555
O2_3 C13_3 1_555 1_555
O3_3 C13_3 1_555 1_555
N4_3 Co11_2 1_555 1_555
C1_3 C2_3 1_555 1_555
C2_3 H1_3 1_555 1_555
C3_3 C2_3 1_555 1_555
C4_3 C3_3 1_555 1_555
H2_3 C4_3 1_555 1_555
C5_3 C4_3 1_555 1_555
C6_3 C1_3 1_555 1_555
H3_3 C6_3 1_555 1_555
C7_3 O1_3 1_555 1_555
H4_3 C7_3 1_555 1_555
H5_3 C7_3 1_555 1_555
H7_3 C9_3 1_555 1_555
C10_3 C7_3 1_555 1_555
C11_3 C10_3 1_555 1_555
H8_3 C11_3 1_555 1_555
C13_3 C3_3 1_555 1_555
H22_3 C33_3 1_555 1_555
C36_3 C35_4 1_555 1_555
H25_3 C36_3 1_555 1_555
H26_3 C36_3 1_555 1_555
C40_3 C39_3 1_555 1_555
H29_3 C40_3 1_555 1_555
C41_3 N4_3 1_555 1_555
H30_3 C41_3 1_555 1_555
O13_3 C44_3 1_555 1_555
N5_3 C42_3 1_555 1_555
C42_3 H31_3 1_555 1_555
C43_3 C42_3 1_555 1_555
H32_3 C43_3 1_555 1_555
C44_3 C43_3 1_555 1_555
C47_3 C35_4 1_555 1_555
H35_3 C47_3 1_555 1_555
H36_3 C47_3 1_555 1_555
C49_3 H39_3 1_555 1_555
C50_3 C49_3 1_555 1_555
H40_3 C50_3 1_555 1_555
Co8_2 N5_3 1_555 1_555
O20_3 C68_3 1_555 1_555
O21_3 Co8_2 1_555 1_555
O30_2 C81_3 1_555 1_555
O32_2 C81_3 1_555 1_555
N8_2 C75_3 1_555 1_555
C68_3 C69_3 1_555 1_555
C69_3 H52_3 1_555 1_555
C70_3 C69_3 1_555 1_555
C71_3 C70_3 1_555 1_555
H53_3 C71_3 1_555 1_555
C72_3 C71_3 1_555 1_555
C73_3 C68_3 1_555 1_555
H54_3 C73_3 1_555 1_555
C74_3 O20_3 1_555 1_555
H55_3 C74_3 1_555 1_555
H56_3 C74_3 1_555 1_555
C75_3 H57_3 1_555 1_555
C76_3 C75_3 1_555 1_555
H58_3 C76_3 1_555 1_555
C77_3 C74_3 1_555 1_555
C78_3 C77_3 1_555 1_555
H59_2 C78_3 1_555 1_555
C79_3 N8_2 1_555 1_555
H60_2 C79_3 1_555 1_555
C80_3 O21_3 1_555 1_555
C81_3 C72_3 1_555 1_555
Co11 N8_2 1_555 1_555
N9_2 Co8_2 1_555 1_555
N12_2 Co11_2 1_555 1_555
C5_3 C6_3 1_555 1_555
C9_3 C10_3 1_555 1_555
C32_3 C33_3 1_555 1_555
C40_3 C41_3 1_555 1_555
O13_3 C47_3 1_555 1_555
O22_3 C80_3 1_555 1_555
C70_3 C80_3 1_555 1_555
C72_3 C73_3 1_555 1_555
C76_3 C77_3 1_555 1_555
C78_3 C79_3 1_555 1_555
O26_2 C67_3 1_555 1_555
O28_2 C67_3 1_555 1_555
N2_2 C22_3 1_555 1_555
C22_3 H15_3 1_555 1_555
C26_3 N2_2 1_555 1_555
H18_2 C26_3 1_555 1_555
Co12 N2_2 1_555 1_555
O6_3 C15_3 1_555 1_555
O7_3 Co7_2 1_555 1_555
O29_2 C28_3 1_555 1_555
O31_2 C28_3 1_555 1_555
O11_3 C31_3 1_555 1_555
N3_3 Co7_2 1_555 1_555
C15_3 C16_3 1_555 1_555
C16_3 H10_3 1_555 1_555
C17_3 C16_3 1_555 1_555
C18_3 C17_3 1_555 1_555
H11_3 C18_3 1_555 1_555
C19_3 C18_3 1_555 1_555
C20_3 C15_3 1_555 1_555
H12_3 C20_3 1_555 1_555
C21_3 O6_3 1_555 1_555
H13_3 C21_3 1_555 1_555
H14_3 C21_3 1_555 1_555
H16_3 C23_3 1_555 1_555
C24_3 C21_3 1_555 1_555
C25_3 C24_3 1_555 1_555
H17_2 C25_3 1_555 1_555
C27_3 O7_3 1_555 1_555
C28_3 C19_3 1_555 1_555
C29_3 N3_3 1_555 1_555
H19_3 C29_3 1_555 1_555
C30_3 C29_3 1_555 1_555
H20_3 C30_3 1_555 1_555
C31_3 C30_3 1_555 1_555
C34_3 O11_3 1_555 1_555
H23_3 C34_3 1_555 1_555
H24_3 C34_3 1_555 1_555
C35_5 C34_3 1_555 1_555
H27_3 C37_3 1_555 1_555
C38_3 C37_3 1_555 1_555
H28_3 C38_3 1_555 1_555
H34_3 C46_3 1_555 1_555
C48_3 C35_5 1_555 1_555
H37_3 C48_3 1_555 1_555
H38_3 C48_3 1_555 1_555
C52_3 C51_3 1_555 1_555
H41_3 C52_3 1_555 1_555
C53_3 N6_3 1_555 1_555
H42_3 C53_3 1_555 1_555
Co12_2 N6_3 1_555 1_555
O15_3 C54_3 1_555 1_555
O16_3 Co12_2 1_555 1_555
N7_2 C61_3 1_555 1_555
C54_3 C55_3 1_555 1_555
C55_3 H43_3 1_555 1_555
C56_3 C55_3 1_555 1_555
C57_3 C56_3 1_555 1_555
H44_3 C57_3 1_555 1_555
C58_3 C57_3 1_555 1_555
C59_3 C54_3 1_555 1_555
H45_3 C59_3 1_555 1_555
C60_3 O15_3 1_555 1_555
H46_3 C60_3 1_555 1_555
H47_3 C60_3 1_555 1_555
C61_3 H48_2 1_555 1_555
C62_3 C61_3 1_555 1_555
H49_3 C62_3 1_555 1_555
C63_3 C60_3 1_555 1_555
C64_3 C63_3 1_555 1_555
H50_3 C64_3 1_555 1_555
C65_3 N7_2 1_555 1_555
H51_3 C65_3 1_555 1_555
C66_3 O16_3 1_555 1_555
Co7 N7_2 1_555 1_555
N10_2 Co7_2 1_555 1_555
N11_2 Co12_2 1_555 1_555
O8_3 C27_3 1_555 1_555
C17_3 C27_3 1_555 1_555
C19_3 C20_3 1_555 1_555
C23_3 C24_3 1_555 1_555
C45_3 C46_3 1_555 1_555
C52_3 C53_3 1_555 1_555
O17_3 C66_3 1_555 1_555
C56_3 C66_3 1_555 1_555
C58_3 C59_3 1_555 1_555
C62_3 C63_3 1_555 1_555
C64_3 C65_3 1_555 1_555
Co7 O3_4 1_555 1_555
Co11 O2_4 1_555 1_555
O1_4 C1_4 1_555 1_555
O2_4 C13_4 1_555 1_555
O3_4 C13_4 1_555 1_555
O25 C14_4 1_555 1_555
O27 C14_4 1_555 1_555
O6_4 C15_4 1_555 1_555
O7_4 Co7 1_555 1_555
O8_4 Co11 1_555 1_555
O31 C28_4 1_555 1_555
O11_4 C31_4 1_555 1_555
O12_4 C36_4 1_555 1_555
N9_2 C8_4 1_555 1_555
N11_2 C22_4 1_555 1_555
N3_4 Co7 1_555 1_555
N4_4 Co11 1_555 1_555
C1_4 C2_4 1_555 1_555
C2_4 H1_4 1_555 1_555
C3_4 C2_4 1_555 1_555
C4_4 C3_4 1_555 1_555
H2_4 C4_4 1_555 1_555
C5_4 C4_4 1_555 1_555
C6_4 C1_4 1_555 1_555
H3_4 C6_4 1_555 1_555
C7_4 O1_4 1_555 1_555
H4_4 C7_4 1_555 1_555
H5_4 C7_4 1_555 1_555
C9_4 C8_4 1_555 1_555
H7_4 C9_4 1_555 1_555
C10_4 C7_4 1_555 1_555
C11_4 C10_4 1_555 1_555
H8_4 C11_4 1_555 1_555
C12_4 N9_2 1_555 1_555
H9_4 C12_4 1_555 1_555
C13_4 C3_4 1_555 1_555
C14_4 C5_4 1_555 1_555
C15_4 C16_4 1_555 1_555
C16_4 H10_4 1_555 1_555
C17_4 C16_4 1_555 1_555
C18_4 C17_4 1_555 1_555
H11_4 C18_4 1_555 1_555
C19_4 C18_4 1_555 1_555
C20_4 C15_4 1_555 1_555
H12_4 C20_4 1_555 1_555
C21_4 O6_4 1_555 1_555
H13_4 C21_4 1_555 1_555
H14_4 C21_4 1_555 1_555
C22_4 H15_4 1_555 1_555
C23_4 C22_4 1_555 1_555
H16_4 C23_4 1_555 1_555
C24_4 C21_4 1_555 1_555
C25_4 C24_4 1_555 1_555
C26_4 N11_2 1_555 1_555
C27_4 O7_4 1_555 1_555
C28_4 C19_4 1_555 1_555
C29_4 N3_4 1_555 1_555
H19_4 C29_4 1_555 1_555
C30_4 C29_4 1_555 1_555
H20_4 C30_4 1_555 1_555
C31_4 C30_4 1_555 1_555
C32_4 C31_4 1_555 1_555
H21_4 C32_4 1_555 1_555
C33_4 N3_4 1_555 1_555
H22_4 C33_4 1_555 1_555
C34_4 O11_4 1_555 1_555
H23_4 C34_4 1_555 1_555
H24_4 C34_4 1_555 1_555
C35_6 C34_4 1_555 1_555
C36_4 C35_6 1_555 1_555
H25_4 C36_4 1_555 1_555
H26_4 C36_4 1_555 1_555
C37_4 N4_4 1_555 1_555
H27_4 C37_4 1_555 1_555
C38_4 C37_4 1_555 1_555
H28_4 C38_4 1_555 1_555
C39_4 O12_4 1_555 1_555
C40_4 C39_4 1_555 1_555
H29_4 C40_4 1_555 1_555
C41_4 N4_4 1_555 1_555
H30_4 C41_4 1_555 1_555
O13_4 C44_4 1_555 1_555
O14_4 C48_4 1_555 1_555
N5_4 C42_4 1_555 1_555
N6_4 C49_4 1_555 1_555
C42_4 H31_4 1_555 1_555
C43_4 C42_4 1_555 1_555
H32_4 C43_4 1_555 1_555
C44_4 C43_4 1_555 1_555
C45_4 C44_4 1_555 1_555
H33_4 C45_4 1_555 1_555
C46_4 N5_4 1_555 1_555
H34_4 C46_4 1_555 1_555
C47_4 C35_6 1_555 1_555
H35_4 C47_4 1_555 1_555
H36_4 C47_4 1_555 1_555
C48_4 C35_6 1_555 1_555
H37_4 C48_4 1_555 1_555
H38_4 C48_4 1_555 1_555
C49_4 H39_4 1_555 1_555
C50_4 C49_4 1_555 1_555
H40_4 C50_4 1_555 1_555
C51_4 O14_4 1_555 1_555
C52_4 C51_4 1_555 1_555
H41_4 C52_4 1_555 1_555
C53_4 N6_4 1_555 1_555
H42_4 C53_4 1_555 1_555
Co8 N5_4 1_555 1_555
Co12 N6_4 1_555 1_555
O15_4 C54_4 1_555 1_555
O16_4 Co12 1_555 1_555
O17_4 Co8 1_555 1_555
O26 C67_4 1_555 1_555
O28 C67_4 1_555 1_555
O20_4 C68_4 1_555 1_555
O21_4 Co8 1_555 1_555
O22_4 Co12 1_555 1_555
O32 C81_4 1_555 1_555
C54_4 C55_4 1_555 1_555
C55_4 H43_4 1_555 1_555
C56_4 C55_4 1_555 1_555
C57_4 C56_4 1_555 1_555
H44_4 C57_4 1_555 1_555
C58_4 C57_4 1_555 1_555
C59_4 C54_4 1_555 1_555
H45_4 C59_4 1_555 1_555
C60_4 O15_4 1_555 1_555
H46_4 C60_4 1_555 1_555
H47_4 C60_4 1_555 1_555
H49_4 C62_4 1_555 1_555
C63_4 C60_4 1_555 1_555
C64_4 C63_4 1_555 1_555
H50_4 C64_4 1_555 1_555
C66_4 O16_4 1_555 1_555
C67_4 C58_4 1_555 1_555
C68_4 C69_4 1_555 1_555
C69_4 H52_4 1_555 1_555
C70_4 C69_4 1_555 1_555
C71_4 C70_4 1_555 1_555
H53_4 C71_4 1_555 1_555
C72_4 C71_4 1_555 1_555
C73_4 C68_4 1_555 1_555
H54_4 C73_4 1_555 1_555
C74_4 O20_4 1_555 1_555
H55_4 C74_4 1_555 1_555
H56_4 C74_4 1_555 1_555
H58_4 C76_4 1_555 1_555
C77_4 C74_4 1_555 1_555
C78_4 C77_4 1_555 1_555
C80_4 O21_4 1_555 1_555
C81_4 C72_4 1_555 1_555
O8_4 C27_4 1_555 1_555
C5_4 C6_4 1_555 1_555
C9_4 C10_4 1_555 1_555
C11_4 C12_4 1_555 1_555
C17_4 C27_4 1_555 1_555
C19_4 C20_4 1_555 1_555
C23_4 C24_4 1_555 1_555
C25_4 C26_4 1_555 1_555
C32_4 C33_4 1_555 1_555
C38_4 C39_4 1_555 1_555
C40_4 C41_4 1_555 1_555
O13_4 C47_4 1_555 1_555
C45_4 C46_4 1_555 1_555
C50_4 C51_4 1_555 1_555
C52_4 C53_4 1_555 1_555
O17_4 C66_4 1_555 1_555
O22_4 C80_4 1_555 1_555
C56_4 C66_4 1_555 1_555
C58_4 C59_4 1_555 1_555
C62_4 C63_4 1_555 1_555
C70_4 C80_4 1_555 1_555
C72_4 C73_4 1_555 1_555
C76_4 C77_4 1_555 1_555
N10_2 C61_4 1_555 1_555
N12_2 C75_4 1_555 1_555
C65_4 N10_2 1_555 1_555
H51_4 C65_4 1_555 1_555
C75_4 H57_4 1_555 1_555
C79_4 N12_2 1_555 1_555

#END
