
###############################################################################
#
# This file contains modified crystal structure data generated from the
# MOF subset of the Cambridge Structural Database (CSD) v543 
# hosted by the Cambridge Crystallographic Data Centre (CCDC).
#
# This work is licensed under the Creative Commons
# Attribution-NonCommercial-ShareAlike 4.0 International License.
# To view a copy of this license, visit
# http://creativecommons.org/licenses/by-nc-sa/4.0/
# or send a letter to
# Creative Commons, PO Box 1866, Mountain View, CA 94042, USA.
#
# CIF created using the CSD Python API on 29 September 2022
# The structure has been converted into the P1 space group
# The structure has a 3D framework
# The original CSD entry VILTAO is in the cubic crystal system
# The framework has been calculated to contain at least 10.0% void space
# The void calculation uses a probe of radius 1.32A, grid spacing 0.4
#
###############################################################################

data_VILTAO
_chemical_formula_moiety         '(C624 H576 Eu16 N48 O228 P48)n'
_symmetry_cell_setting           triclinic
_symmetry_space_group_name_H-M   'P 1'
_symmetry_Int_Tables_number      1
_space_group_name_Hall           'P 1'
loop_
_symmetry_equiv_pos_site_id
_symmetry_equiv_pos_as_xyz
1 x,y,z
_cell_length_a                   26.4179(7)
_cell_length_b                   26.4179(7)
_cell_length_c                   26.4179(7)
_cell_angle_alpha                90
_cell_angle_beta                 90
_cell_angle_gamma                90
_cell_volume                     18437.2
loop_
_atom_site_label
_atom_site_type_symbol
_atom_site_fract_x
_atom_site_fract_y
_atom_site_fract_z
Eu1 Eu 0.30900(2) 0.69100(2) 0.19100(2)
P1 P 0.26735(3) 0.59034(3) 0.09855(3)
O1 O 0.28491(8) 0.62182(8) 0.14245(7)
O2 O 0.250000 0.60044(11) 0.000000
C1 C 0.26310(12) 0.63052(11) 0.04276(11)
H1 H 0.237093 0.656970 0.048122
H2 H 0.295990 0.647456 0.036774
C2 C 0.30933(12) 0.53913(11) 0.08496(10)
C3 C 0.30427(14) 0.49327(12) 0.11152(12)
H3 H 0.277504 0.488844 0.135122
C4 C 0.33872(15) 0.45454(14) 0.10296(16)
H4 H 0.335617 0.423579 0.120979
C5 C 0.37732(15) 0.46068(15) 0.06858(15)
H5 H 0.400231 0.433643 0.062461
C6 C 0.38305(14) 0.50605(15) 0.04276(15)
H6 H 0.410268 0.510209 0.019624
C7 C 0.34913(12) 0.54538(13) 0.05064(12)
H7 H 0.352935 0.576384 0.032809
C8 C 0.20574(10) 0.56428(11) 0.10931(11)
C9 C 0.18683(13) 0.52549(12) 0.07856(11)
H8 H 0.206925 0.512199 0.051867
C10 C 0.13836(13) 0.50644(14) 0.08728(13)
H9 H 0.125453 0.479911 0.066720
C11 C 0.10920(13) 0.52625(14) 0.12585(15)
H10 H 0.076117 0.513350 0.131532
C12 C 0.12757(13) 0.56463(14) 0.15629(15)
H11 H 0.107096 0.578112 0.182593
C13 C 0.17632(13) 0.58356(13) 0.14830(13)
H12 H 0.189274 0.609561 0.169507
O3 O 0.24925(9) 0.72560(9) 0.12493(9)
O4 O 0.21622(8) 0.70514(9) 0.19694(10)
O5 O 0.16738(10) 0.72718(12) 0.13465(13)
N1 N 0.20951(10) 0.71982(10) 0.15155(12)
P3 P 0.40145(3) 0.73265(3) 0.09034(3)
O7 O 0.35755(7) 0.71509(8) 0.12182(8)
O8 O 0.500000 0.750000 0.10044(11)
C27 C 0.45724(11) 0.73690(12) 0.13052(11)
H25 H 0.451878 0.762907 0.156970
H26 H 0.463226 0.704010 0.147456
C28 C 0.41504(10) 0.69067(12) 0.03913(11)
C32 C 0.45724(15) 0.61695(14) 0.00605(15)
H30 H 0.480376 0.589732 0.010209
C33 C 0.44936(12) 0.65087(12) 0.04538(13)
H31 H 0.467191 0.647065 0.076384
C34 C 0.39069(11) 0.79426(10) 0.06428(11)
C35 C 0.42144(11) 0.81317(13) 0.02549(12)
H32 H 0.448133 0.793075 0.012199
C36 C 0.41272(13) 0.86164(13) 0.00644(14)
C37 C 0.37415(15) 0.89080(13) 0.02625(14)
H34 H 0.368468 0.923883 0.013350
C38 C 0.34371(15) 0.87243(13) 0.06463(14)
H35 H 0.317407 0.892904 0.078112
C39 C 0.35170(13) 0.82368(13) 0.08356(13)
H36 H 0.330493 0.810726 0.109561
O9 O 0.37507(9) 0.75075(9) 0.22560(9)
O10 O 0.30306(10) 0.78378(8) 0.20514(9)
O11 O 0.36535(13) 0.83262(10) 0.22718(12)
N2 N 0.34845(12) 0.79049(10) 0.21982(10)
P4 P 0.59855(3) 0.76735(3) 0.09034(3)
O12 O 0.64245(7) 0.78491(8) 0.12182(8)
C40 C 0.54276(11) 0.76310(12) 0.13052(11)
H37 H 0.548122 0.737093 0.156970
H38 H 0.536774 0.795990 0.147456
C41 C 0.58496(10) 0.80933(12) 0.03913(11)
C45 C 0.54276(15) 0.88305(14) 0.00605(15)
H42 H 0.519624 0.910268 0.010209
C46 C 0.55064(12) 0.84913(12) 0.04538(13)
H43 H 0.532809 0.852935 0.076384
C47 C 0.60931(11) 0.70574(10) 0.06428(11)
C48 C 0.57856(11) 0.68683(13) 0.02549(12)
H44 H 0.551867 0.706925 0.012199
C49 C 0.58728(13) 0.63836(13) 0.00644(14)
C50 C 0.62585(15) 0.60920(13) 0.02625(14)
H46 H 0.631532 0.576117 0.013350
C51 C 0.65629(15) 0.62757(13) 0.06463(14)
H47 H 0.682593 0.607096 0.078112
C52 C 0.64830(13) 0.67632(13) 0.08356(13)
H48 H 0.669507 0.689274 0.109561
P5 P 0.40966(3) 0.59855(3) 0.23265(3)
O13 O 0.37818(8) 0.64245(7) 0.21509(8)
O14 O 0.39956(11) 0.500000 0.250000
C53 C 0.36948(11) 0.54276(11) 0.23690(12)
H49 H 0.343030 0.548122 0.262907
H50 H 0.352544 0.536774 0.204010
C54 C 0.46087(11) 0.58496(10) 0.19067(12)
C55 C 0.50673(12) 0.61152(12) 0.19573(14)
H51 H 0.511156 0.635122 0.222496
C56 C 0.54546(14) 0.60296(16) 0.16128(15)
H52 H 0.576421 0.620979 0.164383
C57 C 0.53932(15) 0.56858(15) 0.12268(15)
H53 H 0.566357 0.562461 0.099769
C58 C 0.49395(15) 0.54276(15) 0.11695(14)
H54 H 0.489791 0.519624 0.089732
C59 C 0.45462(13) 0.55064(12) 0.15087(12)
H55 H 0.423616 0.532809 0.147065
C60 C 0.43572(11) 0.60931(11) 0.29426(10)
C61 C 0.47451(12) 0.57856(11) 0.31317(13)
H56 H 0.487801 0.551867 0.293075
C62 C 0.49356(14) 0.58728(13) 0.36164(13)
H57 H 0.520089 0.566720 0.374547
C63 C 0.47375(14) 0.62585(15) 0.39080(13)
H58 H 0.486650 0.631532 0.423883
C64 C 0.43537(14) 0.65629(15) 0.37243(13)
H59 H 0.421888 0.682593 0.392904
C65 C 0.41644(13) 0.64830(13) 0.32368(13)
H60 H 0.390439 0.669507 0.310726
O15 O 0.27440(9) 0.62493(9) 0.25075(9)
O16 O 0.29486(9) 0.69694(10) 0.28378(8)
O17 O 0.27282(12) 0.63465(13) 0.33262(10)
N3 N 0.28018(10) 0.65155(12) 0.29049(10)
P6 P 0.40966(3) 0.40145(3) 0.26735(3)
O18 O 0.37818(8) 0.35755(7) 0.28491(8)
C66 C 0.36948(11) 0.45724(11) 0.26310(12)
H61 H 0.343030 0.451878 0.237093
H62 H 0.352544 0.463226 0.295990
C67 C 0.46087(11) 0.41504(10) 0.30933(12)
C68 C 0.50673(12) 0.38848(12) 0.30427(14)
H63 H 0.511156 0.364878 0.277504
C69 C 0.54546(14) 0.39704(16) 0.33872(15)
H64 H 0.576421 0.379021 0.335617
C70 C 0.53932(15) 0.43142(15) 0.37732(15)
H65 H 0.566357 0.437539 0.400231
C71 C 0.49395(15) 0.45724(15) 0.38305(14)
H66 H 0.489791 0.480376 0.410268
C72 C 0.45462(13) 0.44936(12) 0.34913(12)
H67 H 0.423616 0.467191 0.352935
C73 C 0.43572(11) 0.39069(11) 0.20574(10)
C74 C 0.47451(12) 0.42144(11) 0.18683(13)
H68 H 0.487801 0.448133 0.206925
C75 C 0.49356(14) 0.41272(13) 0.13836(13)
H69 H 0.520089 0.433280 0.125453
C76 C 0.47375(14) 0.37415(15) 0.10920(13)
H70 H 0.486650 0.368468 0.076117
C77 C 0.43537(14) 0.34371(15) 0.12757(13)
H71 H 0.421888 0.317407 0.107096
C78 C 0.41644(13) 0.35170(13) 0.17632(13)
H72 H 0.390439 0.330493 0.189274
Eu3 Eu 0.69100(2) 0.80900(2) 0.19100(2)
Eu4 Eu 0.30900(2) 0.30900(2) 0.30900(2)
O2_2 O 0.250000 0.60044(11) 1.000000
P2 P 0.23265(3) 0.59034(3) 0.90145(3)
O6 O 0.21509(8) 0.62182(8) 0.85755(7)
C14 C 0.23690(12) 0.63052(11) 0.95724(11)
H13 H 0.262907 0.656970 0.951878
H14 H 0.204010 0.647456 0.963226
C15 C 0.19067(12) 0.53913(11) 0.91504(10)
C16 C 0.19573(14) 0.49327(12) 0.88848(12)
H15 H 0.222496 0.488844 0.864878
C17 C 0.16128(15) 0.45454(14) 0.89704(16)
H16 H 0.164383 0.423579 0.879021
C18 C 0.12268(15) 0.46068(15) 0.93142(15)
H17 H 0.099769 0.433643 0.937539
C19 C 0.11695(14) 0.50605(15) 0.95724(15)
H18 H 0.089732 0.510209 0.980376
C20 C 0.15087(12) 0.54538(13) 0.94936(12)
H19 H 0.147065 0.576384 0.967191
C21 C 0.29426(10) 0.56428(11) 0.89069(11)
C22 C 0.31317(13) 0.52549(12) 0.92144(11)
H20 H 0.293075 0.512199 0.948133
C23 C 0.36164(13) 0.50644(14) 0.91272(13)
H21 H 0.374547 0.479911 0.933280
C24 C 0.39080(13) 0.52625(14) 0.87415(15)
H22 H 0.423883 0.513350 0.868468
C25 C 0.37243(13) 0.56463(14) 0.84371(15)
H23 H 0.392904 0.578112 0.817407
C26 C 0.32368(13) 0.58356(13) 0.85170(13)
H24 H 0.310726 0.609561 0.830493
C29 C 0.38848(12) 0.69573(14) 0.99327(12)
H27 H 0.364878 0.722496 0.988844
C30 C 0.39704(16) 0.66128(15) 0.95454(14)
H28 H 0.379021 0.664383 0.923579
C31 C 0.43142(15) 0.62268(15) 0.96068(15)
H29 H 0.437539 0.599769 0.933643
H33 H 0.433280 0.874547 0.979911
C42 C 0.61152(12) 0.80427(14) 0.99327(12)
H39 H 0.635122 0.777504 0.988844
C43 C 0.60296(16) 0.83872(15) 0.95454(14)
H40 H 0.620979 0.835617 0.923579
C44 C 0.56858(15) 0.87732(15) 0.96068(15)
H41 H 0.562461 0.900231 0.933643
H45 H 0.566720 0.625453 0.979911
Eu2 Eu 0.19100(2) 0.69100(2) 0.80900(2)
O19 O 0.25075(9) 0.72560(9) 0.87507(9)
O20 O 0.28378(8) 0.70514(9) 0.80306(10)
O21 O 0.33262(10) 0.72718(12) 0.86535(13)
N4 N 0.29049(10) 0.71982(10) 0.84845(12)
O22 O 0.12493(9) 0.75075(9) 0.77440(9)
O23 O 0.19694(10) 0.78378(8) 0.79486(9)
O24 O 0.13465(13) 0.83262(10) 0.77282(12)
N5 N 0.15155(12) 0.79049(10) 0.78018(10)
O25 O 0.22560(9) 0.62493(9) 0.74925(9)
O26 O 0.20514(9) 0.69694(10) 0.71622(8)
O27 O 0.22718(12) 0.63465(13) 0.66738(10)
N6 N 0.21982(10) 0.65155(12) 0.70951(10)
O28 O 0.14245(7) 0.71509(8) 0.87818(8)
O29 O 0.12182(8) 0.64245(7) 0.78491(8)
Eu1_2 Eu 0.19100(2) 0.30900(2) 0.69100(2)
P1_2 P 0.23265(3) 0.40966(3) 0.59855(3)
O1_2 O 0.21509(8) 0.37818(8) 0.64245(7)
O2_3 O 0.250000 0.39956(11) 0.500000
C1_2 C 0.23690(12) 0.36948(11) 0.54276(11)
H1_2 H 0.262907 0.343030 0.548122
H2_2 H 0.204010 0.352544 0.536774
C2_2 C 0.19067(12) 0.46087(11) 0.58496(10)
C3_2 C 0.19573(14) 0.50673(12) 0.61152(12)
H3_2 H 0.222496 0.511156 0.635122
C4_2 C 0.16128(15) 0.54546(14) 0.60296(16)
H4_2 H 0.164383 0.576421 0.620979
C5_2 C 0.12268(15) 0.53932(15) 0.56858(15)
H5_2 H 0.099769 0.566357 0.562461
C6_2 C 0.11695(14) 0.49395(15) 0.54276(15)
H6_2 H 0.089732 0.489791 0.519624
C7_2 C 0.15087(12) 0.45462(13) 0.55064(12)
H7_2 H 0.147065 0.423616 0.532809
C8_2 C 0.29426(10) 0.43572(11) 0.60931(11)
C9_2 C 0.31317(13) 0.47451(12) 0.57856(11)
H8_2 H 0.293075 0.487801 0.551867
C10_2 C 0.36164(13) 0.49356(14) 0.58728(13)
H9_2 H 0.374547 0.520089 0.566720
C11_2 C 0.39080(13) 0.47375(14) 0.62585(15)
H10_2 H 0.423883 0.486650 0.631532
C12_2 C 0.37243(13) 0.43537(14) 0.65629(15)
H11_2 H 0.392904 0.421888 0.682593
C13_2 C 0.32368(13) 0.41644(13) 0.64830(13)
H12_2 H 0.310726 0.390439 0.669507
O3_2 O 0.25075(9) 0.27440(9) 0.62493(9)
O4_2 O 0.28378(8) 0.29486(9) 0.69694(10)
O5_2 O 0.33262(10) 0.27282(12) 0.63465(13)
N1_2 N 0.29049(10) 0.28018(10) 0.65155(12)
P2_2 P 0.26735(3) 0.40966(3) 0.40145(3)
O6_2 O 0.28491(8) 0.37818(8) 0.35755(7)
C14_2 C 0.26310(12) 0.36948(11) 0.45724(11)
H13_2 H 0.237093 0.343030 0.451878
H14_2 H 0.295990 0.352544 0.463226
C15_2 C 0.30933(12) 0.46087(11) 0.41504(10)
C16_2 C 0.30427(14) 0.50673(12) 0.38848(12)
H15_2 H 0.277504 0.511156 0.364878
C17_2 C 0.33872(15) 0.54546(14) 0.39704(16)
H16_2 H 0.335617 0.576421 0.379021
C18_2 C 0.37732(15) 0.53932(15) 0.43142(15)
H17_2 H 0.400231 0.566357 0.437539
C19_2 C 0.38305(14) 0.49395(15) 0.45724(15)
H18_2 H 0.410268 0.489791 0.480376
C20_2 C 0.34913(12) 0.45462(13) 0.44936(12)
H19_2 H 0.352935 0.423616 0.467191
C21_2 C 0.20574(10) 0.43572(11) 0.39069(11)
C22_2 C 0.18683(13) 0.47451(12) 0.42144(11)
H20_2 H 0.206925 0.487801 0.448133
C23_2 C 0.13836(13) 0.49356(14) 0.41272(13)
H21_2 H 0.125453 0.520089 0.433280
C24_2 C 0.10920(13) 0.47375(14) 0.37415(15)
H22_2 H 0.076117 0.486650 0.368468
C25_2 C 0.12757(13) 0.43537(14) 0.34371(15)
H23_2 H 0.107096 0.421888 0.317407
C26_2 C 0.17632(13) 0.41644(13) 0.35170(13)
H24_2 H 0.189274 0.390439 0.330493
P3_2 P 0.09855(3) 0.26735(3) 0.59034(3)
O7_2 O 0.14245(7) 0.28491(8) 0.62182(8)
O8_2 O -0.000000 0.250000 0.60044(11)
C27_2 C 0.04276(11) 0.26310(12) 0.63052(11)
H25_2 H 0.048122 0.237093 0.656970
H26_2 H 0.036774 0.295990 0.647456
C28_2 C 0.08496(10) 0.30933(12) 0.53913(11)
C29_2 C 0.11152(12) 0.30427(14) 0.49327(12)
H27_2 H 0.135122 0.277504 0.488844
C30_2 C 0.10296(16) 0.33872(15) 0.45454(14)
H28_2 H 0.120979 0.335617 0.423579
C31_2 C 0.06858(15) 0.37732(15) 0.46068(15)
H29_2 H 0.062461 0.400231 0.433643
C32_2 C 0.04276(15) 0.38305(14) 0.50605(15)
H30_2 H 0.019624 0.410268 0.510209
C33_2 C 0.05064(12) 0.34913(12) 0.54538(13)
H31_2 H 0.032809 0.352935 0.576384
C34_2 C 0.10931(11) 0.20574(10) 0.56428(11)
C35_2 C 0.07856(11) 0.18683(13) 0.52549(12)
H32_2 H 0.051867 0.206925 0.512199
C36_2 C 0.08728(13) 0.13836(13) 0.50644(14)
H33_2 H 0.066720 0.125453 0.479911
C37_2 C 0.12585(15) 0.10920(13) 0.52625(14)
H34_2 H 0.131532 0.076117 0.513350
C38_2 C 0.15629(15) 0.12757(13) 0.56463(14)
H35_2 H 0.182593 0.107096 0.578112
C39_2 C 0.14830(13) 0.17632(13) 0.58356(13)
H36_2 H 0.169507 0.189274 0.609561
O9_2 O 0.12493(9) 0.24925(9) 0.72560(9)
O10_2 O 0.19694(10) 0.21622(8) 0.70514(9)
O11_2 O 0.13465(13) 0.16738(10) 0.72718(12)
N2_2 N 0.15155(12) 0.20951(10) 0.71982(10)
P5_2 P 0.09034(3) 0.40145(3) 0.73265(3)
O13_2 O 0.12182(8) 0.35755(7) 0.71509(8)
O14_2 O 0.10044(11) 0.500000 0.750000
C53_2 C 0.13052(11) 0.45724(11) 0.73690(12)
H49_2 H 0.156970 0.451878 0.762907
H50_2 H 0.147456 0.463226 0.704010
C54_2 C 0.03913(11) 0.41504(10) 0.69067(12)
C58_2 C 0.00605(15) 0.45724(15) 0.61695(14)
H54_2 H 0.010209 0.480376 0.589732
C59_2 C 0.04538(13) 0.44936(12) 0.65087(12)
H55_2 H 0.076384 0.467191 0.647065
C60_2 C 0.06428(11) 0.39069(11) 0.79426(10)
C61_2 C 0.02549(12) 0.42144(11) 0.81317(13)
H56_2 H 0.012199 0.448133 0.793075
C62_2 C 0.00644(14) 0.41272(13) 0.86164(13)
C63_2 C 0.02625(14) 0.37415(15) 0.89080(13)
H58_2 H 0.013350 0.368468 0.923883
C64_2 C 0.06463(14) 0.34371(15) 0.87243(13)
H59_2 H 0.078112 0.317407 0.892904
C65_2 C 0.08356(13) 0.35170(13) 0.82368(13)
H60_2 H 0.109561 0.330493 0.810726
O15_2 O 0.22560(9) 0.37507(9) 0.75075(9)
O16_2 O 0.20514(9) 0.30306(10) 0.78378(8)
O17_2 O 0.22718(12) 0.36535(13) 0.83262(10)
N3_2 N 0.21982(10) 0.34845(12) 0.79049(10)
P6_2 P 0.09034(3) 0.59855(3) 0.76735(3)
C66_2 C 0.13052(11) 0.54276(11) 0.76310(12)
H61_2 H 0.156970 0.548122 0.737093
H62_2 H 0.147456 0.536774 0.795990
C67_2 C 0.03913(11) 0.58496(10) 0.80933(12)
C71_2 C 0.00605(15) 0.54276(15) 0.88305(14)
H66_2 H 0.010209 0.519624 0.910268
C72_2 C 0.04538(13) 0.55064(12) 0.84913(12)
H67_2 H 0.076384 0.532809 0.852935
C73_2 C 0.06428(11) 0.60931(11) 0.70574(10)
C74_2 C 0.02549(12) 0.57856(11) 0.68683(13)
H68_2 H 0.012199 0.551867 0.706925
C75_2 C 0.00644(14) 0.58728(13) 0.63836(13)
C76_2 C 0.02625(14) 0.62585(15) 0.60920(13)
H70_2 H 0.013350 0.631532 0.576117
C77_2 C 0.06463(14) 0.65629(15) 0.62757(13)
H71_2 H 0.078112 0.682593 0.607096
C78_2 C 0.08356(13) 0.64830(13) 0.67632(13)
H72_2 H 0.109561 0.669507 0.689274
O19_2 O 0.24925(9) 0.27440(9) 0.37507(9)
O20_2 O 0.21622(8) 0.29486(9) 0.30306(10)
O21_2 O 0.16738(10) 0.27282(12) 0.36535(13)
N4_2 N 0.20951(10) 0.28018(10) 0.34845(12)
O22_2 O 0.37507(9) 0.24925(9) 0.27440(9)
O23_2 O 0.30306(10) 0.21622(8) 0.29486(9)
O24_2 O 0.36535(13) 0.16738(10) 0.27282(12)
N5_2 N 0.34845(12) 0.20951(10) 0.28018(10)
O25_2 O 0.27440(9) 0.37507(9) 0.24925(9)
O26_2 O 0.29486(9) 0.30306(10) 0.21622(8)
O27_2 O 0.27282(12) 0.36535(13) 0.16738(10)
N6_2 N 0.28018(10) 0.34845(12) 0.20951(10)
O28_2 O 0.35755(7) 0.28491(8) 0.37818(8)
O8_3 O 1.000000 0.250000 0.60044(11)
P4_2 P 0.90145(3) 0.23265(3) 0.59034(3)
O12_2 O 0.85755(7) 0.21509(8) 0.62182(8)
C40_2 C 0.95724(11) 0.23690(12) 0.63052(11)
H37_2 H 0.951878 0.262907 0.656970
H38_2 H 0.963226 0.204010 0.647456
C41_2 C 0.91504(10) 0.19067(12) 0.53913(11)
C42_2 C 0.88848(12) 0.19573(14) 0.49327(12)
H39_2 H 0.864878 0.222496 0.488844
C43_2 C 0.89704(16) 0.16128(15) 0.45454(14)
H40_2 H 0.879021 0.164383 0.423579
C44_2 C 0.93142(15) 0.12268(15) 0.46068(15)
H41_2 H 0.937539 0.099769 0.433643
C45_2 C 0.95724(15) 0.11695(14) 0.50605(15)
H42_2 H 0.980376 0.089732 0.510209
C46_2 C 0.94936(12) 0.15087(12) 0.54538(13)
H43_2 H 0.967191 0.147065 0.576384
C47_2 C 0.89069(11) 0.29426(10) 0.56428(11)
C48_2 C 0.92144(11) 0.31317(13) 0.52549(12)
H44_2 H 0.948133 0.293075 0.512199
C49_2 C 0.91272(13) 0.36164(13) 0.50644(14)
H45_2 H 0.933280 0.374547 0.479911
C50_2 C 0.87415(15) 0.39080(13) 0.52625(14)
H46_2 H 0.868468 0.423883 0.513350
C51_2 C 0.84371(15) 0.37243(13) 0.56463(14)
H47_2 H 0.817407 0.392904 0.578112
C52_2 C 0.85170(13) 0.32368(13) 0.58356(13)
H48_2 H 0.830493 0.310726 0.609561
C55_2 C 0.99327(12) 0.38848(12) 0.69573(14)
H51_2 H 0.988844 0.364878 0.722496
C56_2 C 0.95454(14) 0.39704(16) 0.66128(15)
H52_2 H 0.923579 0.379021 0.664383
C57_2 C 0.96068(15) 0.43142(15) 0.62268(15)
H53_2 H 0.933643 0.437539 0.599769
H57_2 H 0.979911 0.433280 0.874547
C68_2 C 0.99327(12) 0.61152(12) 0.80427(14)
H63_2 H 0.988844 0.635122 0.777504
C69_2 C 0.95454(14) 0.60296(16) 0.83872(15)
H64_2 H 0.923579 0.620979 0.835617
C70_2 C 0.96068(15) 0.56858(15) 0.87732(15)
H65_2 H 0.933643 0.562461 0.900231
H69_2 H 0.979911 0.566720 0.625453
Eu3_2 Eu 0.80900(2) 0.19100(2) 0.69100(2)
Eu1_3 Eu 0.69100(2) 0.19100(2) 0.30900(2)
P1_3 P 0.73265(3) 0.09034(3) 0.40145(3)
O1_3 O 0.71509(8) 0.12182(8) 0.35755(7)
O2_4 O 0.750000 0.10044(11) 0.500000
C1_3 C 0.73690(12) 0.13052(11) 0.45724(11)
H1_3 H 0.762907 0.156970 0.451878
H2_3 H 0.704010 0.147456 0.463226
C2_3 C 0.69067(12) 0.03913(11) 0.41504(10)
C6_3 C 0.61695(14) 0.00605(15) 0.45724(15)
H6_3 H 0.589732 0.010209 0.480376
C7_3 C 0.65087(12) 0.04538(13) 0.44936(12)
H7_3 H 0.647065 0.076384 0.467191
C8_3 C 0.79426(10) 0.06428(11) 0.39069(11)
C9_3 C 0.81317(13) 0.02549(12) 0.42144(11)
H8_3 H 0.793075 0.012199 0.448133
C10_3 C 0.86164(13) 0.00644(14) 0.41272(13)
C11_3 C 0.89080(13) 0.02625(14) 0.37415(15)
H10_3 H 0.923883 0.013350 0.368468
C12_3 C 0.87243(13) 0.06463(14) 0.34371(15)
H11_3 H 0.892904 0.078112 0.317407
C13_3 C 0.82368(13) 0.08356(13) 0.35170(13)
H12_3 H 0.810726 0.109561 0.330493
O3_3 O 0.75075(9) 0.22560(9) 0.37507(9)
O4_3 O 0.78378(8) 0.20514(9) 0.30306(10)
O5_3 O 0.83262(10) 0.22718(12) 0.36535(13)
N1_3 N 0.79049(10) 0.21982(10) 0.34845(12)
P2_3 P 0.76735(3) 0.09034(3) 0.59855(3)
O6_3 O 0.78491(8) 0.12182(8) 0.64245(7)
C14_3 C 0.76310(12) 0.13052(11) 0.54276(11)
H13_3 H 0.737093 0.156970 0.548122
H14_3 H 0.795990 0.147456 0.536774
C15_3 C 0.80933(12) 0.03913(11) 0.58496(10)
C19_3 C 0.88305(14) 0.00605(15) 0.54276(15)
H18_3 H 0.910268 0.010209 0.519624
C20_3 C 0.84913(12) 0.04538(13) 0.55064(12)
H19_3 H 0.852935 0.076384 0.532809
C21_3 C 0.70574(10) 0.06428(11) 0.60931(11)
C22_3 C 0.68683(13) 0.02549(12) 0.57856(11)
H20_3 H 0.706925 0.012199 0.551867
C23_3 C 0.63836(13) 0.00644(14) 0.58728(13)
C24_3 C 0.60920(13) 0.02625(14) 0.62585(15)
H22_3 H 0.576117 0.013350 0.631532
C25_3 C 0.62757(13) 0.06463(14) 0.65629(15)
H23_3 H 0.607096 0.078112 0.682593
C26_3 C 0.67632(13) 0.08356(13) 0.64830(13)
H24_3 H 0.689274 0.109561 0.669507
P3_3 P 0.59855(3) 0.23265(3) 0.40966(3)
O7_3 O 0.64245(7) 0.21509(8) 0.37818(8)
O8_4 O 0.500000 0.250000 0.39956(11)
C27_3 C 0.54276(11) 0.23690(12) 0.36948(11)
H25_3 H 0.548122 0.262907 0.343030
H26_3 H 0.536774 0.204010 0.352544
C28_3 C 0.58496(10) 0.19067(12) 0.46087(11)
C29_3 C 0.61152(12) 0.19573(14) 0.50673(12)
H27_3 H 0.635122 0.222496 0.511156
C30_3 C 0.60296(16) 0.16128(15) 0.54546(14)
H28_3 H 0.620979 0.164383 0.576421
C31_3 C 0.56858(15) 0.12268(15) 0.53932(15)
H29_3 H 0.562461 0.099769 0.566357
C32_3 C 0.54276(15) 0.11695(14) 0.49395(15)
H30_3 H 0.519624 0.089732 0.489791
C33_3 C 0.55064(12) 0.15087(12) 0.45462(13)
H31_3 H 0.532809 0.147065 0.423616
C34_3 C 0.60931(11) 0.29426(10) 0.43572(11)
C35_3 C 0.57856(11) 0.31317(13) 0.47451(12)
H32_3 H 0.551867 0.293075 0.487801
C36_3 C 0.58728(13) 0.36164(13) 0.49356(14)
H33_3 H 0.566720 0.374547 0.520089
C37_3 C 0.62585(15) 0.39080(13) 0.47375(14)
H34_3 H 0.631532 0.423883 0.486650
C38_3 C 0.65629(15) 0.37243(13) 0.43537(14)
H35_3 H 0.682593 0.392904 0.421888
C39_3 C 0.64830(13) 0.32368(13) 0.41644(13)
H36_3 H 0.669507 0.310726 0.390439
O9_3 O 0.62493(9) 0.25075(9) 0.27440(9)
O10_3 O 0.69694(10) 0.28378(8) 0.29486(9)
O11_3 O 0.63465(13) 0.33262(10) 0.27282(12)
N2_3 N 0.65155(12) 0.29049(10) 0.28018(10)
P4_3 P 0.40145(3) 0.26735(3) 0.40966(3)
C40_3 C 0.45724(11) 0.26310(12) 0.36948(11)
H37_3 H 0.451878 0.237093 0.343030
H38_3 H 0.463226 0.295990 0.352544
C41_3 C 0.41504(10) 0.30933(12) 0.46087(11)
C42_3 C 0.38848(12) 0.30427(14) 0.50673(12)
H39_3 H 0.364878 0.277504 0.511156
C43_3 C 0.39704(16) 0.33872(15) 0.54546(14)
H40_3 H 0.379021 0.335617 0.576421
C44_3 C 0.43142(15) 0.37732(15) 0.53932(15)
H41_3 H 0.437539 0.400231 0.566357
C45_3 C 0.45724(15) 0.38305(14) 0.49395(15)
H42_3 H 0.480376 0.410268 0.489791
C46_3 C 0.44936(12) 0.34913(12) 0.45462(13)
H43_3 H 0.467191 0.352935 0.423616
C47_3 C 0.39069(11) 0.20574(10) 0.43572(11)
C48_3 C 0.42144(11) 0.18683(13) 0.47451(12)
H44_3 H 0.448133 0.206925 0.487801
C49_3 C 0.41272(13) 0.13836(13) 0.49356(14)
H45_3 H 0.433280 0.125453 0.520089
C50_3 C 0.37415(15) 0.10920(13) 0.47375(14)
H46_3 H 0.368468 0.076117 0.486650
C51_3 C 0.34371(15) 0.12757(13) 0.43537(14)
H47_3 H 0.317407 0.107096 0.421888
C52_3 C 0.35170(13) 0.17632(13) 0.41644(13)
H48_3 H 0.330493 0.189274 0.390439
P5_3 P 0.59034(3) 0.09855(3) 0.26735(3)
O13_3 O 0.62182(8) 0.14245(7) 0.28491(8)
O14_3 O 0.60044(11) 0.000000 0.250000
C53_3 C 0.63052(11) 0.04276(11) 0.26310(12)
H49_3 H 0.656970 0.048122 0.237093
H50_3 H 0.647456 0.036774 0.295990
C54_3 C 0.53913(11) 0.08496(10) 0.30933(12)
C55_3 C 0.49327(12) 0.11152(12) 0.30427(14)
H51_3 H 0.488844 0.135122 0.277504
C56_3 C 0.45454(14) 0.10296(16) 0.33872(15)
H52_3 H 0.423579 0.120979 0.335617
C57_3 C 0.46068(15) 0.06858(15) 0.37732(15)
H53_3 H 0.433643 0.062461 0.400231
C58_3 C 0.50605(15) 0.04276(15) 0.38305(14)
H54_3 H 0.510209 0.019624 0.410268
C59_3 C 0.54538(13) 0.05064(12) 0.34913(12)
H55_3 H 0.576384 0.032809 0.352935
C60_3 C 0.56428(11) 0.10931(11) 0.20574(10)
C61_3 C 0.52549(12) 0.07856(11) 0.18683(13)
H56_3 H 0.512199 0.051867 0.206925
C62_3 C 0.50644(14) 0.08728(13) 0.13836(13)
H57_3 H 0.479911 0.066720 0.125453
C63_3 C 0.52625(14) 0.12585(15) 0.10920(13)
H58_3 H 0.513350 0.131532 0.076117
C64_3 C 0.56463(14) 0.15629(15) 0.12757(13)
H59_3 H 0.578112 0.182593 0.107096
C65_3 C 0.58356(13) 0.14830(13) 0.17632(13)
H60_3 H 0.609561 0.169507 0.189274
O15_3 O 0.72560(9) 0.12493(9) 0.24925(9)
O16_3 O 0.70514(9) 0.19694(10) 0.21622(8)
O17_3 O 0.72718(12) 0.13465(13) 0.16738(10)
N3_3 N 0.71982(10) 0.15155(12) 0.20951(10)
O19_3 O 0.74925(9) 0.22560(9) 0.62493(9)
O20_3 O 0.71622(8) 0.20514(9) 0.69694(10)
O21_3 O 0.66738(10) 0.22718(12) 0.63465(13)
N4_3 N 0.70951(10) 0.21982(10) 0.65155(12)
O22_3 O 0.87507(9) 0.25075(9) 0.72560(9)
O23_3 O 0.80306(10) 0.28378(8) 0.70514(9)
O24_3 O 0.86535(13) 0.33262(10) 0.72718(12)
N5_3 N 0.84845(12) 0.29049(10) 0.71982(10)
O25_3 O 0.77440(9) 0.12493(9) 0.75075(9)
O26_3 O 0.79486(9) 0.19694(10) 0.78378(8)
O27_3 O 0.77282(12) 0.13465(13) 0.83262(10)
N6_3 N 0.78018(10) 0.15155(12) 0.79049(10)
O29_2 O 0.87818(8) 0.14245(7) 0.71509(8)
C3_3 C 0.69573(14) 0.99327(12) 0.38848(12)
H3_3 H 0.722496 0.988844 0.364878
C4_3 C 0.66128(15) 0.95454(14) 0.39704(16)
H4_3 H 0.664383 0.923579 0.379021
C5_3 C 0.62268(15) 0.96068(15) 0.43142(15)
H5_3 H 0.599769 0.933643 0.437539
H9_3 H 0.874547 0.979911 0.433280
C16_3 C 0.80427(14) 0.99327(12) 0.61152(12)
H15_3 H 0.777504 0.988844 0.635122
C17_3 C 0.83872(15) 0.95454(14) 0.60296(16)
H16_3 H 0.835617 0.923579 0.620979
C18_3 C 0.87732(15) 0.96068(15) 0.56858(15)
H17_3 H 0.900231 0.933643 0.562461
H21_3 H 0.625453 0.979911 0.566720
O14_4 O 0.60044(11) 1.000000 0.250000
P6_3 P 0.59034(3) 0.90145(3) 0.23265(3)
O18_2 O 0.62182(8) 0.85755(7) 0.21509(8)
C66_3 C 0.63052(11) 0.95724(11) 0.23690(12)
H61_3 H 0.656970 0.951878 0.262907
H62_3 H 0.647456 0.963226 0.204010
C67_3 C 0.53913(11) 0.91504(10) 0.19067(12)
C68_3 C 0.49327(12) 0.88848(12) 0.19573(14)
H63_3 H 0.488844 0.864878 0.222496
C69_3 C 0.45454(14) 0.89704(16) 0.16128(15)
H64_3 H 0.423579 0.879021 0.164383
C70_3 C 0.46068(15) 0.93142(15) 0.12268(15)
H65_3 H 0.433643 0.937539 0.099769
C71_3 C 0.50605(15) 0.95724(15) 0.11695(14)
H66_3 H 0.510209 0.980376 0.089732
C72_3 C 0.54538(13) 0.94936(12) 0.15087(12)
H67_3 H 0.576384 0.967191 0.147065
C73_3 C 0.56428(11) 0.89069(11) 0.29426(10)
C74_3 C 0.52549(12) 0.92144(11) 0.31317(13)
H68_3 H 0.512199 0.948133 0.293075
C75_3 C 0.50644(14) 0.91272(13) 0.36164(13)
H69_3 H 0.479911 0.933280 0.374547
C76_3 C 0.52625(14) 0.87415(15) 0.39080(13)
H70_3 H 0.513350 0.868468 0.423883
C77_3 C 0.56463(14) 0.84371(15) 0.37243(13)
H71_3 H 0.578112 0.817407 0.392904
C78_3 C 0.58356(13) 0.85170(13) 0.32368(13)
H72_3 H 0.609561 0.830493 0.310726
C68_4 C 0.00673(12) 0.11152(12) 0.69573(14)
H63_4 H 0.011156 0.135122 0.722496
C69_4 C 0.04546(14) 0.10296(16) 0.66128(15)
H64_4 H 0.076421 0.120979 0.664383
C70_4 C 0.03932(15) 0.06858(15) 0.62268(15)
H65_4 H 0.066357 0.062461 0.599769
H69_4 H 0.020089 0.066720 0.874547
C42_4 C 0.11152(12) 0.69573(14) 0.00673(12)
H39_4 H 0.135122 0.722496 0.011156
C43_4 C 0.10296(16) 0.66128(15) 0.04546(14)
H40_4 H 0.120979 0.664383 0.076421
C44_4 C 0.06858(15) 0.62268(15) 0.03932(15)
H41_4 H 0.062461 0.599769 0.066357
H45_4 H 0.066720 0.874547 0.020089
O8_5 O 0.000000 0.750000 0.89956(11)
P4_4 P 0.09855(3) 0.73265(3) 0.90966(3)
C40_4 C 0.04276(11) 0.73690(12) 0.86948(11)
H37_4 H 0.048122 0.762907 0.843030
H38_4 H 0.036774 0.704010 0.852544
C41_4 C 0.08496(10) 0.69067(12) 0.96087(11)
C45_4 C 0.04276(15) 0.61695(14) 0.99395(15)
H42_4 H 0.019624 0.589732 0.989791
C46_4 C 0.05064(12) 0.65087(12) 0.95462(13)
H43_4 H 0.032809 0.647065 0.923616
C47_4 C 0.10931(11) 0.79426(10) 0.93572(11)
C48_4 C 0.07856(11) 0.81317(13) 0.97451(12)
H44_4 H 0.051867 0.793075 0.987801
C49_4 C 0.08728(13) 0.86164(13) 0.99356(14)
C50_4 C 0.12585(15) 0.89080(13) 0.97375(14)
H46_4 H 0.131532 0.923883 0.986650
C51_4 C 0.15629(15) 0.87243(13) 0.93537(14)
H47_4 H 0.182593 0.892904 0.921888
C52_4 C 0.14830(13) 0.82368(13) 0.91644(13)
H48_4 H 0.169507 0.810726 0.890439
C55_4 C 0.00673(12) 0.88848(12) 0.80427(14)
H51_4 H 0.011156 0.864878 0.777504
C56_4 C 0.04546(14) 0.89704(16) 0.83872(15)
H52_4 H 0.076421 0.879021 0.835617
C57_4 C 0.03932(15) 0.93142(15) 0.87732(15)
H53_4 H 0.066357 0.937539 0.900231
H57_4 H 0.020089 0.933280 0.625453
C16_4 C 0.69573(14) 0.00673(12) 0.11152(12)
H15_4 H 0.722496 0.011156 0.135122
C17_4 C 0.66128(15) 0.04546(14) 0.10296(16)
H16_4 H 0.664383 0.076421 0.120979
C18_4 C 0.62268(15) 0.03932(15) 0.06858(15)
H17_4 H 0.599769 0.066357 0.062461
H21_4 H 0.874547 0.020089 0.066720
C3_4 C 0.80427(14) 0.00673(12) 0.88848(12)
H3_4 H 0.777504 0.011156 0.864878
C4_4 C 0.83872(15) 0.04546(14) 0.89704(16)
H4_4 H 0.835617 0.076421 0.879021
C5_4 C 0.87732(15) 0.03932(15) 0.93142(15)
H5_4 H 0.900231 0.066357 0.937539
H9_4 H 0.625453 0.020089 0.933280
O14_5 O 0.89956(11) 0.000000 0.750000
P6_4 P 0.90966(3) 0.09855(3) 0.73265(3)
C66_4 C 0.86948(11) 0.04276(11) 0.73690(12)
H61_4 H 0.843030 0.048122 0.762907
H62_4 H 0.852544 0.036774 0.704010
C67_4 C 0.96087(11) 0.08496(10) 0.69067(12)
C71_4 C 0.99395(15) 0.04276(15) 0.61695(14)
H66_4 H 0.989791 0.019624 0.589732
C72_4 C 0.95462(13) 0.05064(12) 0.65087(12)
H67_4 H 0.923616 0.032809 0.647065
C73_4 C 0.93572(11) 0.10931(11) 0.79426(10)
C74_4 C 0.97451(12) 0.07856(11) 0.81317(13)
H68_4 H 0.987801 0.051867 0.793075
C75_4 C 0.99356(14) 0.08728(13) 0.86164(13)
C76_4 C 0.97375(14) 0.12585(15) 0.89080(13)
H70_4 H 0.986650 0.131532 0.923883
C77_4 C 0.93537(14) 0.15629(15) 0.87243(13)
H71_4 H 0.921888 0.182593 0.892904
C78_4 C 0.91644(13) 0.14830(13) 0.82368(13)
H72_4 H 0.890439 0.169507 0.810726
O2_5 O 0.750000 0.89956(11) 0.000000
P2_4 P 0.73265(3) 0.90966(3) 0.09855(3)
O6_4 O 0.71509(8) 0.87818(8) 0.14245(7)
C14_4 C 0.73690(12) 0.86948(11) 0.04276(11)
H13_4 H 0.762907 0.843030 0.048122
H14_4 H 0.704010 0.852544 0.036774
C15_4 C 0.69067(12) 0.96087(11) 0.08496(10)
C19_4 C 0.61695(14) 0.99395(15) 0.04276(15)
H18_4 H 0.589732 0.989791 0.019624
C20_4 C 0.65087(12) 0.95462(13) 0.05064(12)
H19_4 H 0.647065 0.923616 0.032809
C21_4 C 0.79426(10) 0.93572(11) 0.10931(11)
C22_4 C 0.81317(13) 0.97451(12) 0.07856(11)
H20_4 H 0.793075 0.987801 0.051867
C23_4 C 0.86164(13) 0.99356(14) 0.08728(13)
C24_4 C 0.89080(13) 0.97375(14) 0.12585(15)
H22_4 H 0.923883 0.986650 0.131532
C25_4 C 0.87243(13) 0.93537(14) 0.15629(15)
H23_4 H 0.892904 0.921888 0.182593
C26_4 C 0.82368(13) 0.91644(13) 0.14830(13)
H24_4 H 0.810726 0.890439 0.169507
C29_4 C 0.88848(12) 0.80427(14) 0.00673(12)
H27_4 H 0.864878 0.777504 0.011156
C30_4 C 0.89704(16) 0.83872(15) 0.04546(14)
H28_4 H 0.879021 0.835617 0.076421
C31_4 C 0.93142(15) 0.87732(15) 0.03932(15)
H29_4 H 0.937539 0.900231 0.066357
H33_4 H 0.933280 0.625453 0.020089
O19_4 O 0.75075(9) 0.77440(9) 0.12493(9)
O20_4 O 0.78378(8) 0.79486(9) 0.19694(10)
O21_4 O 0.83262(10) 0.77282(12) 0.13465(13)
N4_4 N 0.79049(10) 0.78018(10) 0.15155(12)
O22_4 O 0.62493(9) 0.74925(9) 0.22560(9)
O23_4 O 0.69694(10) 0.71622(8) 0.20514(9)
O24_4 O 0.63465(13) 0.66738(10) 0.22718(12)
N5_4 N 0.65155(12) 0.70951(10) 0.21982(10)
O25_4 O 0.72560(9) 0.87507(9) 0.25075(9)
O26_4 O 0.70514(9) 0.80306(10) 0.28378(8)
O27_4 O 0.72718(12) 0.86535(13) 0.33262(10)
N6_4 N 0.71982(10) 0.84845(12) 0.29049(10)
Eu1_4 Eu 0.80900(2) 0.80900(2) 0.80900(2)
P1_4 P 0.76735(3) 0.90966(3) 0.90145(3)
O1_4 O 0.78491(8) 0.87818(8) 0.85755(7)
O2_6 O 0.750000 0.89956(11) 1.000000
C1_4 C 0.76310(12) 0.86948(11) 0.95724(11)
H1_4 H 0.737093 0.843030 0.951878
H2_4 H 0.795990 0.852544 0.963226
C2_4 C 0.80933(12) 0.96087(11) 0.91504(10)
C6_4 C 0.88305(14) 0.99395(15) 0.95724(15)
H6_4 H 0.910268 0.989791 0.980376
C7_4 C 0.84913(12) 0.95462(13) 0.94936(12)
H7_4 H 0.852935 0.923616 0.967191
C8_4 C 0.70574(10) 0.93572(11) 0.89069(11)
C9_4 C 0.68683(13) 0.97451(12) 0.92144(11)
H8_4 H 0.706925 0.987801 0.948133
C10_4 C 0.63836(13) 0.99356(14) 0.91272(13)
C11_4 C 0.60920(13) 0.97375(14) 0.87415(15)
H10_4 H 0.576117 0.986650 0.868468
C12_4 C 0.62757(13) 0.93537(14) 0.84371(15)
H11_4 H 0.607096 0.921888 0.817407
C13_4 C 0.67632(13) 0.91644(13) 0.85170(13)
H12_4 H 0.689274 0.890439 0.830493
O3_4 O 0.74925(9) 0.77440(9) 0.87507(9)
O4_4 O 0.71622(8) 0.79486(9) 0.80306(10)
O5_4 O 0.66738(10) 0.77282(12) 0.86535(13)
N1_4 N 0.70951(10) 0.78018(10) 0.84845(12)
P3_4 P 0.90145(3) 0.76735(3) 0.90966(3)
O7_4 O 0.85755(7) 0.78491(8) 0.87818(8)
O8_6 O 1.000000 0.750000 0.89956(11)
C27_4 C 0.95724(11) 0.76310(12) 0.86948(11)
H25_4 H 0.951878 0.737093 0.843030
H26_4 H 0.963226 0.795990 0.852544
C28_4 C 0.91504(10) 0.80933(12) 0.96087(11)
C32_4 C 0.95724(15) 0.88305(14) 0.99395(15)
H30_4 H 0.980376 0.910268 0.989791
C33_4 C 0.94936(12) 0.84913(12) 0.95462(13)
H31_4 H 0.967191 0.852935 0.923616
C34_4 C 0.89069(11) 0.70574(10) 0.93572(11)
C35_4 C 0.92144(11) 0.68683(13) 0.97451(12)
H32_4 H 0.948133 0.706925 0.987801
C36_4 C 0.91272(13) 0.63836(13) 0.99356(14)
C37_4 C 0.87415(15) 0.60920(13) 0.97375(14)
H34_4 H 0.868468 0.576117 0.986650
C38_4 C 0.84371(15) 0.62757(13) 0.93537(14)
H35_4 H 0.817407 0.607096 0.921888
C39_4 C 0.85170(13) 0.67632(13) 0.91644(13)
H36_4 H 0.830493 0.689274 0.890439
O9_4 O 0.87507(9) 0.74925(9) 0.77440(9)
O10_4 O 0.80306(10) 0.71622(8) 0.79486(9)
O11_4 O 0.86535(13) 0.66738(10) 0.77282(12)
N2_4 N 0.84845(12) 0.70951(10) 0.78018(10)
P5_4 P 0.90966(3) 0.90145(3) 0.76735(3)
O13_4 O 0.87818(8) 0.85755(7) 0.78491(8)
O14_6 O 0.89956(11) 1.000000 0.750000
C53_4 C 0.86948(11) 0.95724(11) 0.76310(12)
H49_4 H 0.843030 0.951878 0.737093
H50_4 H 0.852544 0.963226 0.795990
C54_4 C 0.96087(11) 0.91504(10) 0.80933(12)
C58_4 C 0.99395(15) 0.95724(15) 0.88305(14)
H54_4 H 0.989791 0.980376 0.910268
C59_4 C 0.95462(13) 0.94936(12) 0.84913(12)
H55_4 H 0.923616 0.967191 0.852935
C60_4 C 0.93572(11) 0.89069(11) 0.70574(10)
C61_4 C 0.97451(12) 0.92144(11) 0.68683(13)
H56_4 H 0.987801 0.948133 0.706925
C62_4 C 0.99356(14) 0.91272(13) 0.63836(13)
C63_4 C 0.97375(14) 0.87415(15) 0.60920(13)
H58_4 H 0.986650 0.868468 0.576117
C64_4 C 0.93537(14) 0.84371(15) 0.62757(13)
H59_4 H 0.921888 0.817407 0.607096
C65_4 C 0.91644(13) 0.85170(13) 0.67632(13)
H60_4 H 0.890439 0.830493 0.689274
O15_4 O 0.77440(9) 0.87507(9) 0.74925(9)
O16_4 O 0.79486(9) 0.80306(10) 0.71622(8)
O17_4 O 0.77282(12) 0.86535(13) 0.66738(10)
N3_4 N 0.78018(10) 0.84845(12) 0.70951(10)
O8_7 O -0.000000 0.750000 0.35044(11)
H25_5 H 0.012907 0.701878 0.406970
C34_5 C 0.04426(10) 0.64069(11) 0.31428(11)
C35_5 C 0.06317(13) 0.67144(11) 0.27549(12)
H32_5 H 0.043075 0.698133 0.262199
C36_5 C 0.11164(13) 0.66272(13) 0.25644(14)
H33_5 H 0.124547 0.683280 0.229911
C37_5 C 0.14080(13) 0.62415(15) 0.27625(14)
H34_5 H 0.173883 0.618468 0.263350
C38_5 C 0.12243(13) 0.59371(15) 0.31463(14)
H35_5 H 0.142904 0.567407 0.328112
C39_5 C 0.07368(13) 0.60170(13) 0.33356(13)
H36_5 H 0.060726 0.580493 0.359561
O9_5 O 0.00075(9) 0.62507(9) 0.47560(9)
O10_5 O 0.03378(8) 0.55306(10) 0.45514(9)
O11_5 O 0.08262(10) 0.61535(13) 0.47718(12)
N2_5 N 0.04049(10) 0.59845(12) 0.46982(10)
P4_5 P 0.01735(3) 0.84855(3) 0.34034(3)
O12_3 O 0.03491(8) 0.89245(7) 0.37182(8)
C40_5 C 0.01310(12) 0.79276(11) 0.38052(11)
H38_5 H 0.045990 0.786774 0.397456
C41_5 C 0.05933(12) 0.83496(10) 0.28913(11)
C42_5 C 0.05427(14) 0.86152(12) 0.24327(12)
H39_5 H 0.027504 0.885122 0.238844
C43_5 C 0.08872(15) 0.85296(16) 0.20454(14)
H40_5 H 0.085617 0.870979 0.173579
C44_5 C 0.12732(15) 0.81858(15) 0.21068(15)
H41_5 H 0.150231 0.812461 0.183643
C45_5 C 0.13305(14) 0.79276(15) 0.25605(15)
H42_5 H 0.160268 0.769624 0.260209
C46_5 C 0.09913(12) 0.80064(12) 0.29538(13)
H43_5 H 0.102935 0.782809 0.326384
O22_5 O 0.00075(9) 0.37493(9) 0.02440(9)
O23_5 O 0.03378(8) 0.44694(10) 0.04486(9)
O24_5 O 0.08262(10) 0.38465(13) 0.02282(12)
N5_5 N 0.04049(10) 0.40155(12) 0.03018(10)
Eu3_3 Eu 0.05900(2) 0.94100(2) 0.44100(2)
Eu1_5 Eu 0.94100(2) 0.55900(2) 0.44100(2)
P1_5 P 0.84034(3) 0.51735(3) 0.34855(3)
O1_5 O 0.87182(8) 0.53491(8) 0.39245(7)
O2_7 O 0.85044(11) 0.500000 0.250000
C1_5 C 0.88052(11) 0.51310(12) 0.29276(11)
H1_5 H 0.906970 0.487093 0.298122
H2_5 H 0.897456 0.545990 0.286774
C2_5 C 0.78913(11) 0.55933(12) 0.33496(10)
C3_5 C 0.74327(12) 0.55427(14) 0.36152(12)
H3_5 H 0.738844 0.527504 0.385122
C4_5 C 0.70454(14) 0.58872(15) 0.35296(16)
H4_5 H 0.673579 0.585617 0.370979
C5_5 C 0.71068(15) 0.62732(15) 0.31858(15)
H5_5 H 0.683643 0.650231 0.312461
C6_5 C 0.75605(15) 0.63305(14) 0.29276(15)
H6_5 H 0.760209 0.660268 0.269624
C7_5 C 0.79538(13) 0.59913(12) 0.30064(12)
H7_5 H 0.826384 0.602935 0.282809
C8_5 C 0.81428(11) 0.45574(10) 0.35931(11)
C9_5 C 0.77549(12) 0.43683(13) 0.32856(11)
H8_5 H 0.762199 0.456925 0.301867
C10_5 C 0.75644(14) 0.38836(13) 0.33728(13)
H9_5 H 0.729911 0.375453 0.316720
C11_5 C 0.77625(14) 0.35920(13) 0.37585(15)
H10_5 H 0.763350 0.326117 0.381532
C12_5 C 0.81463(14) 0.37757(13) 0.40629(15)
H11_5 H 0.828112 0.357096 0.432593
C13_5 C 0.83356(13) 0.42632(13) 0.39830(13)
H12_5 H 0.859561 0.439274 0.419507
O3_5 O 0.97560(9) 0.49925(9) 0.37493(9)
O4_5 O 0.95514(9) 0.46622(8) 0.44694(10)
O5_5 O 0.97718(12) 0.41738(10) 0.38465(13)
N1_5 N 0.96982(10) 0.45951(10) 0.40155(12)
P2_5 P 0.84034(3) 0.48265(3) 0.15145(3)
O6_5 O 0.87182(8) 0.46509(8) 0.10755(7)
C14_5 C 0.88052(11) 0.48690(12) 0.20724(11)
H13_5 H 0.906970 0.512907 0.201878
H14_5 H 0.897456 0.454010 0.213226
C15_5 C 0.78913(11) 0.44067(12) 0.16504(10)
C16_5 C 0.74327(12) 0.44573(14) 0.13848(12)
H15_5 H 0.738844 0.472496 0.114878
C17_5 C 0.70454(14) 0.41128(15) 0.14704(16)
H16_5 H 0.673579 0.414383 0.129021
C18_5 C 0.71068(15) 0.37268(15) 0.18142(15)
H17_5 H 0.683643 0.349769 0.187539
C19_5 C 0.75605(15) 0.36695(14) 0.20724(15)
H18_5 H 0.760209 0.339732 0.230376
C20_5 C 0.79538(13) 0.40087(12) 0.19936(12)
H19_5 H 0.826384 0.397065 0.217191
C21_5 C 0.81428(11) 0.54426(10) 0.14069(11)
C22_5 C 0.77549(12) 0.56317(13) 0.17144(11)
H20_5 H 0.762199 0.543075 0.198133
C23_5 C 0.75644(14) 0.61164(13) 0.16272(13)
H21_5 H 0.729911 0.624547 0.183280
C24_5 C 0.77625(14) 0.64080(13) 0.12415(15)
H22_5 H 0.763350 0.673883 0.118468
C25_5 C 0.81463(14) 0.62243(13) 0.09371(15)
H23_5 H 0.828112 0.642904 0.067407
C26_5 C 0.83356(13) 0.57368(13) 0.10170(13)
H24_5 H 0.859561 0.560726 0.080493
P3_5 P 0.98265(3) 0.65145(3) 0.34034(3)
O7_5 O 0.96509(8) 0.60755(7) 0.37182(8)
O8_8 O 1.000000 0.750000 0.35044(11)
C27_5 C 0.98690(12) 0.70724(11) 0.38052(11)
H26_5 H 0.954010 0.713226 0.397456
C28_5 C 0.94067(12) 0.66504(10) 0.28913(11)
C29_5 C 0.94573(14) 0.63848(12) 0.24327(12)
H27_5 H 0.972496 0.614878 0.238844
C30_5 C 0.91128(15) 0.64704(16) 0.20454(14)
H28_5 H 0.914383 0.629021 0.173579
C31_5 C 0.87268(15) 0.68142(15) 0.21068(15)
H29_5 H 0.849769 0.687539 0.183643
C32_5 C 0.86695(14) 0.70724(15) 0.25605(15)
H30_5 H 0.839732 0.730376 0.260209
C33_5 C 0.90087(12) 0.69936(12) 0.29538(13)
H31_5 H 0.897065 0.717191 0.326384
H37_5 H 0.987093 0.798122 0.406970
C47_5 C 0.95574(10) 0.85931(11) 0.31428(11)
C48_5 C 0.93683(13) 0.82856(11) 0.27549(12)
H44_5 H 0.956925 0.801867 0.262199
C49_5 C 0.88836(13) 0.83728(13) 0.25644(14)
H45_5 H 0.875453 0.816720 0.229911
C50_5 C 0.85920(13) 0.87585(15) 0.27625(14)
H46_5 H 0.826117 0.881532 0.263350
C51_5 C 0.87757(13) 0.90629(15) 0.31463(14)
H47_5 H 0.857096 0.932593 0.328112
C52_5 C 0.92632(13) 0.89830(13) 0.33356(13)
H48_5 H 0.939274 0.919507 0.359561
P5_5 P 0.84855(3) 0.65966(3) 0.48265(3)
O13_5 O 0.89245(7) 0.62818(8) 0.46509(8)
O14_7 O 0.750000 0.64956(11) 0.500000
C53_5 C 0.79276(11) 0.61948(11) 0.48690(12)
H49_5 H 0.798122 0.593030 0.512907
H50_5 H 0.786774 0.602544 0.454010
C54_5 C 0.83496(10) 0.71087(11) 0.44067(12)
C55_5 C 0.86152(12) 0.75673(12) 0.44573(14)
H51_5 H 0.885122 0.761156 0.472496
C56_5 C 0.85296(16) 0.79546(14) 0.41128(15)
H52_5 H 0.870979 0.826421 0.414383
C57_5 C 0.81858(15) 0.78932(15) 0.37268(15)
H53_5 H 0.812461 0.816357 0.349769
C58_5 C 0.79276(15) 0.74395(15) 0.36695(14)
H54_5 H 0.769624 0.739791 0.339732
C59_5 C 0.80064(12) 0.70462(13) 0.40087(12)
H55_5 H 0.782809 0.673616 0.397065
C60_5 C 0.85931(11) 0.68572(11) 0.54426(10)
C61_5 C 0.82856(11) 0.72451(12) 0.56317(13)
H56_5 H 0.801867 0.737801 0.543075
C62_5 C 0.83728(13) 0.74356(14) 0.61164(13)
H57_5 H 0.816720 0.770089 0.624547
C63_5 C 0.87585(15) 0.72375(14) 0.64080(13)
H58_5 H 0.881532 0.736650 0.673883
C64_5 C 0.90629(15) 0.68537(14) 0.62243(13)
H59_5 H 0.932593 0.671888 0.642904
C65_5 C 0.89830(13) 0.66644(13) 0.57368(13)
H60_5 H 0.919507 0.640439 0.560726
O15_5 O 0.87493(9) 0.52440(9) 0.50075(9)
O16_5 O 0.94694(10) 0.54486(9) 0.53378(8)
O17_5 O 0.88465(13) 0.52282(12) 0.58262(10)
N3_5 N 0.90155(12) 0.53018(10) 0.54049(10)
P6_5 P 0.65145(3) 0.65966(3) 0.51735(3)
O18_3 O 0.60755(7) 0.62818(8) 0.53491(8)
C66_5 C 0.70724(11) 0.61948(11) 0.51310(12)
H61_5 H 0.701878 0.593030 0.487093
H62_5 H 0.713226 0.602544 0.545990
C67_5 C 0.66504(10) 0.71087(11) 0.55933(12)
C68_5 C 0.63848(12) 0.75673(12) 0.55427(14)
H63_5 H 0.614878 0.761156 0.527504
C69_5 C 0.64704(16) 0.79546(14) 0.58872(15)
H64_5 H 0.629021 0.826421 0.585617
C70_5 C 0.68142(15) 0.78932(15) 0.62732(15)
H65_5 H 0.687539 0.816357 0.650231
C71_5 C 0.70724(15) 0.74395(15) 0.63305(14)
H66_5 H 0.730376 0.739791 0.660268
C72_5 C 0.69936(12) 0.70462(13) 0.59913(12)
H67_5 H 0.717191 0.673616 0.602935
C73_5 C 0.64069(11) 0.68572(11) 0.45574(10)
C74_5 C 0.67144(11) 0.72451(12) 0.43683(13)
H68_5 H 0.698133 0.737801 0.456925
C75_5 C 0.66272(13) 0.74356(14) 0.38836(13)
H69_5 H 0.683280 0.770089 0.375453
C76_5 C 0.62415(15) 0.72375(14) 0.35920(13)
H70_5 H 0.618468 0.736650 0.326117
C77_5 C 0.59371(15) 0.68537(14) 0.37757(13)
H71_5 H 0.567407 0.671888 0.357096
C78_5 C 0.60170(13) 0.66644(13) 0.42632(13)
H72_5 H 0.580493 0.640439 0.439274
Eu2_2 Eu 0.94100(2) 0.44100(2) 0.05900(2)
O19_5 O 0.97560(9) 0.50075(9) 0.12507(9)
O20_5 O 0.95514(9) 0.53378(8) 0.05306(10)
O21_5 O 0.97718(12) 0.58262(10) 0.11535(13)
N4_5 N 0.96982(10) 0.54049(10) 0.09845(12)
Eu4_2 Eu 0.55900(2) 0.55900(2) 0.55900(2)
O28_3 O 0.96509(8) 0.39245(7) 0.12818(8)
O29_3 O 0.89245(7) 0.37182(8) 0.03491(8)
O25_5 O 0.87493(9) 0.47560(9) 0.99925(9)
O26_5 O 0.94694(10) 0.45514(9) 0.96622(8)
O27_5 O 0.88465(13) 0.47718(12) 0.91738(10)
N6_5 N 0.90155(12) 0.46982(10) 0.95951(10)
O14_8 O 0.750000 0.35044(11) 0.000000
H49_6 H 0.701878 0.406970 0.012907
C60_6 C 0.64069(11) 0.31428(11) 0.04426(10)
C61_6 C 0.67144(11) 0.27549(12) 0.06317(13)
H56_6 H 0.698133 0.262199 0.043075
C62_6 C 0.66272(13) 0.25644(14) 0.11164(13)
H57_6 H 0.683280 0.229911 0.124547
C63_6 C 0.62415(15) 0.27625(14) 0.14080(13)
H58_6 H 0.618468 0.263350 0.173883
C64_6 C 0.59371(15) 0.31463(14) 0.12243(13)
H59_6 H 0.567407 0.328112 0.142904
C65_6 C 0.60170(13) 0.33356(13) 0.07368(13)
H60_6 H 0.580493 0.359561 0.060726
O15_6 O 0.62507(9) 0.47560(9) 0.00075(9)
O16_6 O 0.55306(10) 0.45514(9) 0.03378(8)
O17_6 O 0.61535(13) 0.47718(12) 0.08262(10)
N3_6 N 0.59845(12) 0.46982(10) 0.04049(10)
P6_6 P 0.84855(3) 0.34034(3) 0.01735(3)
C66_6 C 0.79276(11) 0.38052(11) 0.01310(12)
H62_6 H 0.786774 0.397456 0.045990
C67_6 C 0.83496(10) 0.28913(11) 0.05933(12)
C68_6 C 0.86152(12) 0.24327(12) 0.05427(14)
H63_6 H 0.885122 0.238844 0.027504
C69_6 C 0.85296(16) 0.20454(14) 0.08872(15)
H64_6 H 0.870979 0.173579 0.085617
C70_6 C 0.81858(15) 0.21068(15) 0.12732(15)
H65_6 H 0.812461 0.183643 0.150231
C71_6 C 0.79276(15) 0.25605(15) 0.13305(14)
H66_6 H 0.769624 0.260209 0.160268
C72_6 C 0.80064(12) 0.29538(13) 0.09913(12)
H67_6 H 0.782809 0.326384 0.102935
Eu1_6 Eu 0.55900(2) 0.44100(2) 0.94100(2)
P1_6 P 0.65966(3) 0.48265(3) 0.84855(3)
O1_6 O 0.62818(8) 0.46509(8) 0.89245(7)
O2_8 O 0.64956(11) 0.500000 0.750000
C1_6 C 0.61948(11) 0.48690(12) 0.79276(11)
H1_6 H 0.593030 0.512907 0.798122
H2_6 H 0.602544 0.454010 0.786774
C2_6 C 0.71087(11) 0.44067(12) 0.83496(10)
C3_6 C 0.75673(12) 0.44573(14) 0.86152(12)
H3_6 H 0.761156 0.472496 0.885122
C4_6 C 0.79546(14) 0.41128(15) 0.85296(16)
H4_6 H 0.826421 0.414383 0.870979
C5_6 C 0.78932(15) 0.37268(15) 0.81858(15)
H5_6 H 0.816357 0.349769 0.812461
C6_6 C 0.74395(15) 0.36695(14) 0.79276(15)
H6_6 H 0.739791 0.339732 0.769624
C7_6 C 0.70462(13) 0.40087(12) 0.80064(12)
H7_6 H 0.673616 0.397065 0.782809
C8_6 C 0.68572(11) 0.54426(10) 0.85931(11)
C9_6 C 0.72451(12) 0.56317(13) 0.82856(11)
H8_6 H 0.737801 0.543075 0.801867
C10_6 C 0.74356(14) 0.61164(13) 0.83728(13)
H9_6 H 0.770089 0.624547 0.816720
C11_6 C 0.72375(14) 0.64080(13) 0.87585(15)
H10_6 H 0.736650 0.673883 0.881532
C12_6 C 0.68537(14) 0.62243(13) 0.90629(15)
H11_6 H 0.671888 0.642904 0.932593
C13_6 C 0.66644(13) 0.57368(13) 0.89830(13)
H12_6 H 0.640439 0.560726 0.919507
O3_6 O 0.52440(9) 0.50075(9) 0.87493(9)
O4_6 O 0.54486(9) 0.53378(8) 0.94694(10)
O5_6 O 0.52282(12) 0.58262(10) 0.88465(13)
N1_6 N 0.53018(10) 0.54049(10) 0.90155(12)
P2_6 P 0.65966(3) 0.51735(3) 0.65145(3)
O6_6 O 0.62818(8) 0.53491(8) 0.60755(7)
C14_6 C 0.61948(11) 0.51310(12) 0.70724(11)
H13_6 H 0.593030 0.487093 0.701878
H14_6 H 0.602544 0.545990 0.713226
C15_6 C 0.71087(11) 0.55933(12) 0.66504(10)
C16_6 C 0.75673(12) 0.55427(14) 0.63848(12)
H15_6 H 0.761156 0.527504 0.614878
C17_6 C 0.79546(14) 0.58872(15) 0.64704(16)
H16_6 H 0.826421 0.585617 0.629021
C18_6 C 0.78932(15) 0.62732(15) 0.68142(15)
H17_6 H 0.816357 0.650231 0.687539
C19_6 C 0.74395(15) 0.63305(14) 0.70724(15)
H18_6 H 0.739791 0.660268 0.730376
C20_6 C 0.70462(13) 0.59913(12) 0.69936(12)
H19_6 H 0.673616 0.602935 0.717191
C21_6 C 0.68572(11) 0.45574(10) 0.64069(11)
C22_6 C 0.72451(12) 0.43683(13) 0.67144(11)
H20_6 H 0.737801 0.456925 0.698133
C23_6 C 0.74356(14) 0.38836(13) 0.66272(13)
H21_6 H 0.770089 0.375453 0.683280
C24_6 C 0.72375(14) 0.35920(13) 0.62415(15)
H22_6 H 0.736650 0.326117 0.618468
C25_6 C 0.68537(14) 0.37757(13) 0.59371(15)
H23_6 H 0.671888 0.357096 0.567407
C26_6 C 0.66644(13) 0.42632(13) 0.60170(13)
H24_6 H 0.640439 0.439274 0.580493
P3_6 P 0.51735(3) 0.34855(3) 0.84034(3)
O7_6 O 0.53491(8) 0.39245(7) 0.87182(8)
O8_9 O 0.500000 0.250000 0.85044(11)
C27_6 C 0.51310(12) 0.29276(11) 0.88052(11)
H25_6 H 0.487093 0.298122 0.906970
H26_6 H 0.545990 0.286774 0.897456
C28_6 C 0.55933(12) 0.33496(10) 0.78913(11)
C29_6 C 0.55427(14) 0.36152(12) 0.74327(12)
H27_6 H 0.527504 0.385122 0.738844
C30_6 C 0.58872(15) 0.35296(16) 0.70454(14)
H28_6 H 0.585617 0.370979 0.673579
C31_6 C 0.62732(15) 0.31858(15) 0.71068(15)
H29_6 H 0.650231 0.312461 0.683643
C32_6 C 0.63305(14) 0.29276(15) 0.75605(15)
H30_6 H 0.660268 0.269624 0.760209
C33_6 C 0.59913(12) 0.30064(12) 0.79538(13)
H31_6 H 0.602935 0.282809 0.826384
C34_6 C 0.45574(10) 0.35931(11) 0.81428(11)
C35_6 C 0.43683(13) 0.32856(11) 0.77549(12)
H32_6 H 0.456925 0.301867 0.762199
C36_6 C 0.38836(13) 0.33728(13) 0.75644(14)
H33_6 H 0.375453 0.316720 0.729911
C37_6 C 0.35920(13) 0.37585(15) 0.77625(14)
H34_6 H 0.326117 0.381532 0.763350
C38_6 C 0.37757(13) 0.40629(15) 0.81463(14)
H35_6 H 0.357096 0.432593 0.828112
C39_6 C 0.42632(13) 0.39830(13) 0.83356(13)
H36_6 H 0.439274 0.419507 0.859561
O9_6 O 0.49925(9) 0.37493(9) 0.97560(9)
O10_6 O 0.46622(8) 0.44694(10) 0.95514(9)
O11_6 O 0.41738(10) 0.38465(13) 0.97718(12)
N2_6 N 0.45951(10) 0.40155(12) 0.96982(10)
P4_6 P 0.48265(3) 0.15145(3) 0.84034(3)
O12_4 O 0.46509(8) 0.10755(7) 0.87182(8)
C40_6 C 0.48690(12) 0.20724(11) 0.88052(11)
H37_6 H 0.512907 0.201878 0.906970
H38_6 H 0.454010 0.213226 0.897456
C41_6 C 0.44067(12) 0.16504(10) 0.78913(11)
C42_6 C 0.44573(14) 0.13848(12) 0.74327(12)
H39_6 H 0.472496 0.114878 0.738844
C43_6 C 0.41128(15) 0.14704(16) 0.70454(14)
H40_6 H 0.414383 0.129021 0.673579
C44_6 C 0.37268(15) 0.18142(15) 0.71068(15)
H41_6 H 0.349769 0.187539 0.683643
C45_6 C 0.36695(14) 0.20724(15) 0.75605(15)
H42_6 H 0.339732 0.230376 0.760209
C46_6 C 0.40087(12) 0.19936(12) 0.79538(13)
H43_6 H 0.397065 0.217191 0.826384
C47_6 C 0.54426(10) 0.14069(11) 0.81428(11)
C48_6 C 0.56317(13) 0.17144(11) 0.77549(12)
H44_6 H 0.543075 0.198133 0.762199
C49_6 C 0.61164(13) 0.16272(13) 0.75644(14)
H45_6 H 0.624547 0.183280 0.729911
C50_6 C 0.64080(13) 0.12415(15) 0.77625(14)
H46_6 H 0.673883 0.118468 0.763350
C51_6 C 0.62243(13) 0.09371(15) 0.81463(14)
H47_6 H 0.642904 0.067407 0.828112
C52_6 C 0.57368(13) 0.10170(13) 0.83356(13)
H48_6 H 0.560726 0.080493 0.859561
P5_6 P 0.65145(3) 0.34034(3) 0.98265(3)
O13_6 O 0.60755(7) 0.37182(8) 0.96509(8)
O14_9 O 0.750000 0.35044(11) 1.000000
C53_6 C 0.70724(11) 0.38052(11) 0.98690(12)
H50_6 H 0.713226 0.397456 0.954010
C54_6 C 0.66504(10) 0.28913(11) 0.94067(12)
C55_6 C 0.63848(12) 0.24327(12) 0.94573(14)
H51_6 H 0.614878 0.238844 0.972496
C56_6 C 0.64704(16) 0.20454(14) 0.91128(15)
H52_6 H 0.629021 0.173579 0.914383
C57_6 C 0.68142(15) 0.21068(15) 0.87268(15)
H53_6 H 0.687539 0.183643 0.849769
C58_6 C 0.70724(15) 0.25605(15) 0.86695(14)
H54_6 H 0.730376 0.260209 0.839732
C59_6 C 0.69936(12) 0.29538(13) 0.90087(12)
H55_6 H 0.717191 0.326384 0.897065
H61_6 H 0.798122 0.406970 0.987093
C73_6 C 0.85931(11) 0.31428(11) 0.95574(10)
C74_6 C 0.82856(11) 0.27549(12) 0.93683(13)
H68_6 H 0.801867 0.262199 0.956925
C75_6 C 0.83728(13) 0.25644(14) 0.88836(13)
H69_6 H 0.816720 0.229911 0.875453
C76_6 C 0.87585(15) 0.27625(14) 0.85920(13)
H70_6 H 0.881532 0.263350 0.826117
C77_6 C 0.90629(15) 0.31463(14) 0.87757(13)
H71_6 H 0.932593 0.328112 0.857096
C78_6 C 0.89830(13) 0.33356(13) 0.92632(13)
H72_6 H 0.919507 0.359561 0.939274
O19_6 O 0.52440(9) 0.49925(9) 0.62507(9)
O20_6 O 0.54486(9) 0.46622(8) 0.55306(10)
O21_6 O 0.52282(12) 0.41738(10) 0.61535(13)
N4_6 N 0.53018(10) 0.45951(10) 0.59845(12)
O22_6 O 0.49925(9) 0.62507(9) 0.52440(9)
O23_6 O 0.46622(8) 0.55306(10) 0.54486(9)
O24_6 O 0.41738(10) 0.61535(13) 0.52282(12)
N5_6 N 0.45951(10) 0.59845(12) 0.53018(10)
O25_6 O 0.62507(9) 0.52440(9) 0.49925(9)
O26_6 O 0.55306(10) 0.54486(9) 0.46622(8)
O27_6 O 0.61535(13) 0.52282(12) 0.41738(10)
N6_6 N 0.59845(12) 0.53018(10) 0.45951(10)
Eu3_4 Eu 0.44100(2) 0.05900(2) 0.94100(2)
O28_4 O 0.53491(8) 0.60755(7) 0.62818(8)
O25_7 O 0.37493(9) 0.02440(9) 0.00075(9)
O26_7 O 0.44694(10) 0.04486(9) 0.03378(8)
O27_7 O 0.38465(13) 0.02282(12) 0.08262(10)
N6_7 N 0.40155(12) 0.03018(10) 0.04049(10)
O2_9 O 0.35044(11) 0.000000 0.750000
H1_7 H 0.406970 0.012907 0.701878
C8_7 C 0.31428(11) 0.04426(10) 0.64069(11)
C9_7 C 0.27549(12) 0.06317(13) 0.67144(11)
H8_7 H 0.262199 0.043075 0.698133
C10_7 C 0.25644(14) 0.11164(13) 0.66272(13)
H9_7 H 0.229911 0.124547 0.683280
C11_7 C 0.27625(14) 0.14080(13) 0.62415(15)
H10_7 H 0.263350 0.173883 0.618468
C12_7 C 0.31463(14) 0.12243(13) 0.59371(15)
H11_7 H 0.328112 0.142904 0.567407
C13_7 C 0.33356(13) 0.07368(13) 0.60170(13)
H12_7 H 0.359561 0.060726 0.580493
O3_7 O 0.47560(9) 0.00075(9) 0.62507(9)
O4_7 O 0.45514(9) 0.03378(8) 0.55306(10)
O5_7 O 0.47718(12) 0.08262(10) 0.61535(13)
N1_7 N 0.46982(10) 0.04049(10) 0.59845(12)
P2_7 P 0.34034(3) 0.01735(3) 0.84855(3)
O6_7 O 0.37182(8) 0.03491(8) 0.89245(7)
C14_7 C 0.38052(11) 0.01310(12) 0.79276(11)
H14_7 H 0.397456 0.045990 0.786774
C15_7 C 0.28913(11) 0.05933(12) 0.83496(10)
C16_7 C 0.24327(12) 0.05427(14) 0.86152(12)
H15_7 H 0.238844 0.027504 0.885122
C17_7 C 0.20454(14) 0.08872(15) 0.85296(16)
H16_7 H 0.173579 0.085617 0.870979
C18_7 C 0.21068(15) 0.12732(15) 0.81858(15)
H17_7 H 0.183643 0.150231 0.812461
C19_7 C 0.25605(15) 0.13305(14) 0.79276(15)
H18_7 H 0.260209 0.160268 0.769624
C20_7 C 0.29538(13) 0.09913(12) 0.80064(12)
H19_7 H 0.326384 0.102935 0.782809
O22_7 O 0.50075(9) 0.12507(9) 0.97560(9)
O23_7 O 0.53378(8) 0.05306(10) 0.95514(9)
O24_7 O 0.58262(10) 0.11535(13) 0.97718(12)
N5_7 N 0.54049(10) 0.09845(12) 0.96982(10)
O29_4 O 0.39245(7) 0.12818(8) 0.96509(8)
Eu1_7 Eu 0.44100(2) 0.94100(2) 0.55900(2)
P1_7 P 0.34034(3) 0.98265(3) 0.65145(3)
O1_7 O 0.37182(8) 0.96509(8) 0.60755(7)
O2_10 O 0.35044(11) 1.000000 0.750000
C1_7 C 0.38052(11) 0.98690(12) 0.70724(11)
H2_7 H 0.397456 0.954010 0.713226
C2_7 C 0.28913(11) 0.94067(12) 0.66504(10)
C3_7 C 0.24327(12) 0.94573(14) 0.63848(12)
H3_7 H 0.238844 0.972496 0.614878
C4_7 C 0.20454(14) 0.91128(15) 0.64704(16)
H4_7 H 0.173579 0.914383 0.629021
C5_7 C 0.21068(15) 0.87268(15) 0.68142(15)
H5_7 H 0.183643 0.849769 0.687539
C6_7 C 0.25605(15) 0.86695(14) 0.70724(15)
H6_7 H 0.260209 0.839732 0.730376
C7_7 C 0.29538(13) 0.90087(12) 0.69936(12)
H7_7 H 0.326384 0.897065 0.717191
H13_7 H 0.406970 0.987093 0.798122
C21_7 C 0.31428(11) 0.95574(10) 0.85931(11)
C22_7 C 0.27549(12) 0.93683(13) 0.82856(11)
H20_7 H 0.262199 0.956925 0.801867
C23_7 C 0.25644(14) 0.88836(13) 0.83728(13)
H21_7 H 0.229911 0.875453 0.816720
C24_7 C 0.27625(14) 0.85920(13) 0.87585(15)
H22_7 H 0.263350 0.826117 0.881532
C25_7 C 0.31463(14) 0.87757(13) 0.90629(15)
H23_7 H 0.328112 0.857096 0.932593
C26_7 C 0.33356(13) 0.92632(13) 0.89830(13)
H24_7 H 0.359561 0.939274 0.919507
P3_7 P 0.48265(3) 0.84855(3) 0.65966(3)
O7_7 O 0.46509(8) 0.89245(7) 0.62818(8)
O8_10 O 0.500000 0.750000 0.64956(11)
C27_7 C 0.48690(12) 0.79276(11) 0.61948(11)
H25_7 H 0.512907 0.798122 0.593030
H26_7 H 0.454010 0.786774 0.602544
C28_7 C 0.44067(12) 0.83496(10) 0.71087(11)
C29_7 C 0.44573(14) 0.86152(12) 0.75673(12)
H27_7 H 0.472496 0.885122 0.761156
C30_7 C 0.41128(15) 0.85296(16) 0.79546(14)
H28_7 H 0.414383 0.870979 0.826421
C31_7 C 0.37268(15) 0.81858(15) 0.78932(15)
H29_7 H 0.349769 0.812461 0.816357
C32_7 C 0.36695(14) 0.79276(15) 0.74395(15)
H30_7 H 0.339732 0.769624 0.739791
C33_7 C 0.40087(12) 0.80064(12) 0.70462(13)
H31_7 H 0.397065 0.782809 0.673616
C34_7 C 0.54426(10) 0.85931(11) 0.68572(11)
C35_7 C 0.56317(13) 0.82856(11) 0.72451(12)
H32_7 H 0.543075 0.801867 0.737801
C36_7 C 0.61164(13) 0.83728(13) 0.74356(14)
H33_7 H 0.624547 0.816720 0.770089
C37_7 C 0.64080(13) 0.87585(15) 0.72375(14)
H34_7 H 0.673883 0.881532 0.736650
C38_7 C 0.62243(13) 0.90629(15) 0.68537(14)
H35_7 H 0.642904 0.932593 0.671888
C39_7 C 0.57368(13) 0.89830(13) 0.66644(13)
H36_7 H 0.560726 0.919507 0.640439
O9_7 O 0.50075(9) 0.87493(9) 0.52440(9)
O10_7 O 0.53378(8) 0.94694(10) 0.54486(9)
O11_7 O 0.58262(10) 0.88465(13) 0.52282(12)
N2_7 N 0.54049(10) 0.90155(12) 0.53018(10)
P4_7 P 0.51735(3) 0.65145(3) 0.65966(3)
C40_7 C 0.51310(12) 0.70724(11) 0.61948(11)
H37_7 H 0.487093 0.701878 0.593030
H38_7 H 0.545990 0.713226 0.602544
C41_7 C 0.55933(12) 0.66504(10) 0.71087(11)
C42_7 C 0.55427(14) 0.63848(12) 0.75673(12)
H39_7 H 0.527504 0.614878 0.761156
C43_7 C 0.58872(15) 0.64704(16) 0.79546(14)
H40_7 H 0.585617 0.629021 0.826421
C44_7 C 0.62732(15) 0.68142(15) 0.78932(15)
H41_7 H 0.650231 0.687539 0.816357
C45_7 C 0.63305(14) 0.70724(15) 0.74395(15)
H42_7 H 0.660268 0.730376 0.739791
C46_7 C 0.59913(12) 0.69936(12) 0.70462(13)
H43_7 H 0.602935 0.717191 0.673616
C47_7 C 0.45574(10) 0.64069(11) 0.68572(11)
C48_7 C 0.43683(13) 0.67144(11) 0.72451(12)
H44_7 H 0.456925 0.698133 0.737801
C49_7 C 0.38836(13) 0.66272(13) 0.74356(14)
H45_7 H 0.375453 0.683280 0.770089
C50_7 C 0.35920(13) 0.62415(15) 0.72375(14)
H46_7 H 0.326117 0.618468 0.736650
C51_7 C 0.37757(13) 0.59371(15) 0.68537(14)
H47_7 H 0.357096 0.567407 0.671888
C52_7 C 0.42632(13) 0.60170(13) 0.66644(13)
H48_7 H 0.439274 0.580493 0.640439
P5_7 P 0.34855(3) 0.84034(3) 0.51735(3)
O13_7 O 0.39245(7) 0.87182(8) 0.53491(8)
O14_10 O 0.250000 0.85044(11) 0.500000
C53_7 C 0.29276(11) 0.88052(11) 0.51310(12)
H49_7 H 0.298122 0.906970 0.487093
H50_7 H 0.286774 0.897456 0.545990
C54_7 C 0.33496(10) 0.78913(11) 0.55933(12)
C55_7 C 0.36152(12) 0.74327(12) 0.55427(14)
H51_7 H 0.385122 0.738844 0.527504
C56_7 C 0.35296(16) 0.70454(14) 0.58872(15)
H52_7 H 0.370979 0.673579 0.585617
C57_7 C 0.31858(15) 0.71068(15) 0.62732(15)
H53_7 H 0.312461 0.683643 0.650231
C58_7 C 0.29276(15) 0.75605(15) 0.63305(14)
H54_7 H 0.269624 0.760209 0.660268
C59_7 C 0.30064(12) 0.79538(13) 0.59913(12)
H55_7 H 0.282809 0.826384 0.602935
C60_7 C 0.35931(11) 0.81428(11) 0.45574(10)
C61_7 C 0.32856(11) 0.77549(12) 0.43683(13)
H56_7 H 0.301867 0.762199 0.456925
C62_7 C 0.33728(13) 0.75644(14) 0.38836(13)
H57_7 H 0.316720 0.729911 0.375453
C63_7 C 0.37585(15) 0.77625(14) 0.35920(13)
H58_7 H 0.381532 0.763350 0.326117
C64_7 C 0.40629(15) 0.81463(14) 0.37757(13)
H59_7 H 0.432593 0.828112 0.357096
C65_7 C 0.39830(13) 0.83356(13) 0.42632(13)
H60_7 H 0.419507 0.859561 0.439274
O15_7 O 0.37493(9) 0.97560(9) 0.49925(9)
O16_7 O 0.44694(10) 0.95514(9) 0.46622(8)
O17_7 O 0.38465(13) 0.97718(12) 0.41738(10)
N3_7 N 0.40155(12) 0.96982(10) 0.45951(10)
P6_7 P 0.15145(3) 0.84034(3) 0.48265(3)
O18_4 O 0.10755(7) 0.87182(8) 0.46509(8)
C66_7 C 0.20724(11) 0.88052(11) 0.48690(12)
H61_7 H 0.201878 0.906970 0.512907
H62_7 H 0.213226 0.897456 0.454010
C67_7 C 0.16504(10) 0.78913(11) 0.44067(12)
C68_7 C 0.13848(12) 0.74327(12) 0.44573(14)
H63_7 H 0.114878 0.738844 0.472496
C69_7 C 0.14704(16) 0.70454(14) 0.41128(15)
H64_7 H 0.129021 0.673579 0.414383
C70_7 C 0.18142(15) 0.71068(15) 0.37268(15)
H65_7 H 0.187539 0.683643 0.349769
C71_7 C 0.20724(15) 0.75605(15) 0.36695(14)
H66_7 H 0.230376 0.760209 0.339732
C72_7 C 0.19936(12) 0.79538(13) 0.40087(12)
H67_7 H 0.217191 0.826384 0.397065
C73_7 C 0.14069(11) 0.81428(11) 0.54426(10)
C74_7 C 0.17144(11) 0.77549(12) 0.56317(13)
H68_7 H 0.198133 0.762199 0.543075
C75_7 C 0.16272(13) 0.75644(14) 0.61164(13)
H69_7 H 0.183280 0.729911 0.624547
C76_7 C 0.12415(15) 0.77625(14) 0.64080(13)
H70_7 H 0.118468 0.763350 0.673883
C77_7 C 0.09371(15) 0.81463(14) 0.62243(13)
H71_7 H 0.067407 0.828112 0.642904
C78_7 C 0.10170(13) 0.83356(13) 0.57368(13)
H72_7 H 0.080493 0.859561 0.560726
O19_7 O 0.47560(9) 0.99925(9) 0.87493(9)
O20_7 O 0.45514(9) 0.96622(8) 0.94694(10)
O21_7 O 0.47718(12) 0.91738(10) 0.88465(13)
N4_7 N 0.46982(10) 0.95951(10) 0.90155(12)
Eu1_8 Eu 0.05900(2) 0.05900(2) 0.05900(2)
P1_8 P 0.15966(3) 0.01735(3) 0.15145(3)
O1_8 O 0.12818(8) 0.03491(8) 0.10755(7)
O2_11 O 0.14956(11) 0.000000 0.250000
C1_8 C 0.11948(11) 0.01310(12) 0.20724(11)
H2_8 H 0.102544 0.045990 0.213226
C2_8 C 0.21087(11) 0.05933(12) 0.16504(10)
C3_8 C 0.25673(12) 0.05427(14) 0.13848(12)
H3_8 H 0.261156 0.027504 0.114878
C4_8 C 0.29546(14) 0.08872(15) 0.14704(16)
H4_8 H 0.326421 0.085617 0.129021
C5_8 C 0.28932(15) 0.12732(15) 0.18142(15)
H5_8 H 0.316357 0.150231 0.187539
C6_8 C 0.24395(15) 0.13305(14) 0.20724(15)
H6_8 H 0.239791 0.160268 0.230376
C7_8 C 0.20462(13) 0.09913(12) 0.19936(12)
H7_8 H 0.173616 0.102935 0.217191
H13_8 H 0.093030 0.012907 0.298122
C21_8 C 0.18572(11) 0.04426(10) 0.35931(11)
C22_8 C 0.22451(12) 0.06317(13) 0.32856(11)
H20_8 H 0.237801 0.043075 0.301867
C23_8 C 0.24356(14) 0.11164(13) 0.33728(13)
H21_8 H 0.270089 0.124547 0.316720
C24_8 C 0.22375(14) 0.14080(13) 0.37585(15)
H22_8 H 0.236650 0.173883 0.381532
C25_8 C 0.18537(14) 0.12243(13) 0.40629(15)
H23_8 H 0.171888 0.142904 0.432593
C26_8 C 0.16644(13) 0.07368(13) 0.39830(13)
H24_8 H 0.140439 0.060726 0.419507
P3_8 P 0.01735(3) 0.15145(3) 0.15966(3)
O7_8 O 0.03491(8) 0.10755(7) 0.12818(8)
O8_11 O 0.000000 0.250000 0.14956(11)
C27_8 C 0.01310(12) 0.20724(11) 0.11948(11)
H26_8 H 0.045990 0.213226 0.102544
C28_8 C 0.05933(12) 0.16504(10) 0.21087(11)
C29_8 C 0.05427(14) 0.13848(12) 0.25673(12)
H27_8 H 0.027504 0.114878 0.261156
C30_8 C 0.08872(15) 0.14704(16) 0.29546(14)
H28_8 H 0.085617 0.129021 0.326421
C31_8 C 0.12732(15) 0.18142(15) 0.28932(15)
H29_8 H 0.150231 0.187539 0.316357
C32_8 C 0.13305(14) 0.20724(15) 0.24395(15)
H30_8 H 0.160268 0.230376 0.239791
C33_8 C 0.09913(12) 0.19936(12) 0.20462(13)
H31_8 H 0.102935 0.217191 0.173616
H37_8 H 0.012907 0.298122 0.093030
C47_8 C 0.04426(10) 0.35931(11) 0.18572(11)
C48_8 C 0.06317(13) 0.32856(11) 0.22451(12)
H44_8 H 0.043075 0.301867 0.237801
C49_8 C 0.11164(13) 0.33728(13) 0.24356(14)
H45_8 H 0.124547 0.316720 0.270089
C50_8 C 0.14080(13) 0.37585(15) 0.22375(14)
H46_8 H 0.173883 0.381532 0.236650
C51_8 C 0.12243(13) 0.40629(15) 0.18537(14)
H47_8 H 0.142904 0.432593 0.171888
C52_8 C 0.07368(13) 0.39830(13) 0.16644(13)
H48_8 H 0.060726 0.419507 0.140439
P5_8 P 0.15145(3) 0.15966(3) 0.01735(3)
O13_8 O 0.10755(7) 0.12818(8) 0.03491(8)
O14_11 O 0.250000 0.14956(11) 0.000000
C53_8 C 0.20724(11) 0.11948(11) 0.01310(12)
H50_8 H 0.213226 0.102544 0.045990
C54_8 C 0.16504(10) 0.21087(11) 0.05933(12)
C55_8 C 0.13848(12) 0.25673(12) 0.05427(14)
H51_8 H 0.114878 0.261156 0.027504
C56_8 C 0.14704(16) 0.29546(14) 0.08872(15)
H52_8 H 0.129021 0.326421 0.085617
C57_8 C 0.18142(15) 0.28932(15) 0.12732(15)
H53_8 H 0.187539 0.316357 0.150231
C58_8 C 0.20724(15) 0.24395(15) 0.13305(14)
H54_8 H 0.230376 0.239791 0.160268
C59_8 C 0.19936(12) 0.20462(13) 0.09913(12)
H55_8 H 0.217191 0.173616 0.102935
H61_8 H 0.298122 0.093030 0.012907
C73_8 C 0.35931(11) 0.18572(11) 0.04426(10)
C74_8 C 0.32856(11) 0.22451(12) 0.06317(13)
H68_8 H 0.301867 0.237801 0.043075
C75_8 C 0.33728(13) 0.24356(14) 0.11164(13)
H69_8 H 0.316720 0.270089 0.124547
C76_8 C 0.37585(15) 0.22375(14) 0.14080(13)
H70_8 H 0.381532 0.236650 0.173883
C77_8 C 0.40629(15) 0.18537(14) 0.12243(13)
H71_8 H 0.432593 0.171888 0.142904
C78_8 C 0.39830(13) 0.16644(13) 0.07368(13)
H72_8 H 0.419507 0.140439 0.060726
O19_8 O 0.02440(9) 0.00075(9) 0.37493(9)
O20_8 O 0.04486(9) 0.03378(8) 0.44694(10)
O21_8 O 0.02282(12) 0.08262(10) 0.38465(13)
N4_8 N 0.03018(10) 0.04049(10) 0.40155(12)
O14_12 O 0.250000 0.14956(11) 1.000000
H49_8 H 0.201878 0.093030 0.987093
C60_8 C 0.14069(11) 0.18572(11) 0.95574(10)
C61_8 C 0.17144(11) 0.22451(12) 0.93683(13)
H56_8 H 0.198133 0.237801 0.956925
C62_8 C 0.16272(13) 0.24356(14) 0.88836(13)
H57_8 H 0.183280 0.270089 0.875453
C63_8 C 0.12415(15) 0.22375(14) 0.85920(13)
H58_8 H 0.118468 0.236650 0.826117
C64_8 C 0.09371(15) 0.18537(14) 0.87757(13)
H59_8 H 0.067407 0.171888 0.857096
C65_8 C 0.10170(13) 0.16644(13) 0.92632(13)
H60_8 H 0.080493 0.140439 0.939274
O15_8 O 0.12507(9) 0.02440(9) 0.99925(9)
O16_8 O 0.05306(10) 0.04486(9) 0.96622(8)
O17_8 O 0.11535(13) 0.02282(12) 0.91738(10)
N3_8 N 0.09845(12) 0.03018(10) 0.95951(10)
P6_8 P 0.34855(3) 0.15966(3) 0.98265(3)
C66_8 C 0.29276(11) 0.11948(11) 0.98690(12)
H62_8 H 0.286774 0.102544 0.954010
C67_8 C 0.33496(10) 0.21087(11) 0.94067(12)
C68_8 C 0.36152(12) 0.25673(12) 0.94573(14)
H63_8 H 0.385122 0.261156 0.972496
C69_8 C 0.35296(16) 0.29546(14) 0.91128(15)
H64_8 H 0.370979 0.326421 0.914383
C70_8 C 0.31858(15) 0.28932(15) 0.87268(15)
H65_8 H 0.312461 0.316357 0.849769
C71_8 C 0.29276(15) 0.24395(15) 0.86695(14)
H66_8 H 0.269624 0.239791 0.839732
C72_8 C 0.30064(12) 0.20462(13) 0.90087(12)
H67_8 H 0.282809 0.173616 0.897065
O2_12 O 0.14956(11) 1.000000 0.250000
H1_8 H 0.093030 0.987093 0.201878
C8_8 C 0.18572(11) 0.95574(10) 0.14069(11)
C9_8 C 0.22451(12) 0.93683(13) 0.17144(11)
H8_8 H 0.237801 0.956925 0.198133
C10_8 C 0.24356(14) 0.88836(13) 0.16272(13)
H9_8 H 0.270089 0.875453 0.183280
C11_8 C 0.22375(14) 0.85920(13) 0.12415(15)
H10_8 H 0.236650 0.826117 0.118468
C12_8 C 0.18537(14) 0.87757(13) 0.09371(15)
H11_8 H 0.171888 0.857096 0.067407
C13_8 C 0.16644(13) 0.92632(13) 0.10170(13)
H12_8 H 0.140439 0.939274 0.080493
O3_8 O 0.02440(9) 0.99925(9) 0.12507(9)
O4_8 O 0.04486(9) 0.96622(8) 0.05306(10)
O5_8 O 0.02282(12) 0.91738(10) 0.11535(13)
N1_8 N 0.03018(10) 0.95951(10) 0.09845(12)
P2_8 P 0.15966(3) 0.98265(3) 0.34855(3)
O6_8 O 0.12818(8) 0.96509(8) 0.39245(7)
C14_8 C 0.11948(11) 0.98690(12) 0.29276(11)
H14_8 H 0.102544 0.954010 0.286774
C15_8 C 0.21087(11) 0.94067(12) 0.33496(10)
C16_8 C 0.25673(12) 0.94573(14) 0.36152(12)
H15_8 H 0.261156 0.972496 0.385122
C17_8 C 0.29546(14) 0.91128(15) 0.35296(16)
H16_8 H 0.326421 0.914383 0.370979
C18_8 C 0.28932(15) 0.87268(15) 0.31858(15)
H17_8 H 0.316357 0.849769 0.312461
C19_8 C 0.24395(15) 0.86695(14) 0.29276(15)
H18_8 H 0.239791 0.839732 0.269624
C20_8 C 0.20462(13) 0.90087(12) 0.30064(12)
H19_8 H 0.173616 0.897065 0.282809
O25_8 O 0.12507(9) 0.97560(9) 0.50075(9)
O26_8 O 0.05306(10) 0.95514(9) 0.53378(8)
O27_8 O 0.11535(13) 0.97718(12) 0.58262(10)
N6_8 N 0.09845(12) 0.96982(10) 0.54049(10)
O8_12 O 1.000000 0.250000 0.14956(11)
H25_8 H 0.987093 0.201878 0.093030
C34_8 C 0.95574(10) 0.14069(11) 0.18572(11)
C35_8 C 0.93683(13) 0.17144(11) 0.22451(12)
H32_8 H 0.956925 0.198133 0.237801
C36_8 C 0.88836(13) 0.16272(13) 0.24356(14)
H33_8 H 0.875453 0.183280 0.270089
C37_8 C 0.85920(13) 0.12415(15) 0.22375(14)
H34_8 H 0.826117 0.118468 0.236650
C38_8 C 0.87757(13) 0.09371(15) 0.18537(14)
H35_8 H 0.857096 0.067407 0.171888
C39_8 C 0.92632(13) 0.10170(13) 0.16644(13)
H36_8 H 0.939274 0.080493 0.140439
O9_8 O 0.99925(9) 0.12507(9) 0.02440(9)
O10_8 O 0.96622(8) 0.05306(10) 0.04486(9)
O11_8 O 0.91738(10) 0.11535(13) 0.02282(12)
N2_8 N 0.95951(10) 0.09845(12) 0.03018(10)
P4_8 P 0.98265(3) 0.34855(3) 0.15966(3)
C40_8 C 0.98690(12) 0.29276(11) 0.11948(11)
H38_8 H 0.954010 0.286774 0.102544
C41_8 C 0.94067(12) 0.33496(10) 0.21087(11)
C42_8 C 0.94573(14) 0.36152(12) 0.25673(12)
H39_8 H 0.972496 0.385122 0.261156
C43_8 C 0.91128(15) 0.35296(16) 0.29546(14)
H40_8 H 0.914383 0.370979 0.326421
C44_8 C 0.87268(15) 0.31858(15) 0.28932(15)
H41_8 H 0.849769 0.312461 0.316357
C45_8 C 0.86695(14) 0.29276(15) 0.24395(15)
H42_8 H 0.839732 0.269624 0.239791
C46_8 C 0.90087(12) 0.30064(12) 0.20462(13)
H43_8 H 0.897065 0.282809 0.173616
O22_8 O 0.99925(9) 0.87493(9) 0.47560(9)
O23_8 O 0.96622(8) 0.94694(10) 0.45514(9)
O24_8 O 0.91738(10) 0.88465(13) 0.47718(12)
N5_8 N 0.95951(10) 0.90155(12) 0.46982(10)
loop_
_geom_bond_atom_site_label_1
_geom_bond_atom_site_label_2
_geom_bond_site_symmetry_1
_geom_bond_site_symmetry_2
Eu1 O1 1_555 1_555
P1 O1 1_555 1_555
O2 C1 1_555 1_555
C1 P1 1_555 1_555
H1 C1 1_555 1_555
H2 C1 1_555 1_555
C2 P1 1_555 1_555
C3 C2 1_555 1_555
H3 C3 1_555 1_555
C4 C3 1_555 1_555
H4 C4 1_555 1_555
C5 C4 1_555 1_555
H5 C5 1_555 1_555
C6 C5 1_555 1_555
H6 C6 1_555 1_555
C7 C2 1_555 1_555
H7 C7 1_555 1_555
C8 P1 1_555 1_555
C9 C8 1_555 1_555
H8 C9 1_555 1_555
C10 C9 1_555 1_555
H9 C10 1_555 1_555
C11 C10 1_555 1_555
H10 C11 1_555 1_555
C12 C11 1_555 1_555
H11 C12 1_555 1_555
C13 C8 1_555 1_555
H12 C13 1_555 1_555
O3 Eu1 1_555 1_555
O4 Eu1 1_555 1_555
O5 N1 1_555 1_555
N1 O3 1_555 1_555
P3 O7 1_555 1_555
O7 Eu1 1_555 1_555
O8 C27 1_555 1_555
C27 P3 1_555 1_555
H25 C27 1_555 1_555
H26 C27 1_555 1_555
C28 P3 1_555 1_555
H30 C32 1_555 1_555
C33 C28 1_555 1_555
H31 C33 1_555 1_555
C34 P3 1_555 1_555
C35 C34 1_555 1_555
H32 C35 1_555 1_555
C36 C35 1_555 1_555
C37 C36 1_555 1_555
H34 C37 1_555 1_555
C38 C37 1_555 1_555
H35 C38 1_555 1_555
C39 C34 1_555 1_555
H36 C39 1_555 1_555
O9 Eu1 1_555 1_555
O10 Eu1 1_555 1_555
O11 N2 1_555 1_555
N2 O9 1_555 1_555
P4 O12 1_555 1_555
O12 Eu3 1_555 1_555
C40 O8 1_555 1_555
H37 C40 1_555 1_555
H38 C40 1_555 1_555
C41 P4 1_555 1_555
H42 C45 1_555 1_555
C46 C41 1_555 1_555
H43 C46 1_555 1_555
C47 P4 1_555 1_555
C48 C47 1_555 1_555
H44 C48 1_555 1_555
C49 C48 1_555 1_555
C50 C49 1_555 1_555
H46 C50 1_555 1_555
C51 C50 1_555 1_555
H47 C51 1_555 1_555
C52 C47 1_555 1_555
H48 C52 1_555 1_555
P5 O13 1_555 1_555
O13 Eu1 1_555 1_555
O14 C53 1_555 1_555
C53 P5 1_555 1_555
H49 C53 1_555 1_555
H50 C53 1_555 1_555
C54 P5 1_555 1_555
C55 C54 1_555 1_555
H51 C55 1_555 1_555
C56 C55 1_555 1_555
H52 C56 1_555 1_555
C57 C56 1_555 1_555
H53 C57 1_555 1_555
C58 C57 1_555 1_555
H54 C58 1_555 1_555
C59 C54 1_555 1_555
H55 C59 1_555 1_555
C60 P5 1_555 1_555
C61 C60 1_555 1_555
H56 C61 1_555 1_555
C62 C61 1_555 1_555
H57 C62 1_555 1_555
C63 C62 1_555 1_555
H58 C63 1_555 1_555
C64 C63 1_555 1_555
H59 C64 1_555 1_555
C65 C60 1_555 1_555
H60 C65 1_555 1_555
O15 Eu1 1_555 1_555
O16 Eu1 1_555 1_555
O17 N3 1_555 1_555
N3 O15 1_555 1_555
P6 O18 1_555 1_555
O18 Eu4 1_555 1_555
C66 O14 1_555 1_555
H61 C66 1_555 1_555
H62 C66 1_555 1_555
C67 P6 1_555 1_555
C68 C67 1_555 1_555
H63 C68 1_555 1_555
C69 C68 1_555 1_555
H64 C69 1_555 1_555
C70 C69 1_555 1_555
H65 C70 1_555 1_555
C71 C70 1_555 1_555
H66 C71 1_555 1_555
C72 C67 1_555 1_555
H67 C72 1_555 1_555
C73 P6 1_555 1_555
C74 C73 1_555 1_555
H68 C74 1_555 1_555
C75 C74 1_555 1_555
H69 C75 1_555 1_555
C76 C75 1_555 1_555
H70 C76 1_555 1_555
C77 C76 1_555 1_555
H71 C77 1_555 1_555
C78 C73 1_555 1_555
H72 C78 1_555 1_555
C6 C7 1_555 1_555
C12 C13 1_555 1_555
O4 N1 1_555 1_555
C32 C33 1_555 1_555
C38 C39 1_555 1_555
O10 N2 1_555 1_555
P4 C40 1_555 1_555
C45 C46 1_555 1_555
C51 C52 1_555 1_555
C58 C59 1_555 1_555
C64 C65 1_555 1_555
O16 N3 1_555 1_555
P6 C66 1_555 1_555
C71 C72 1_555 1_555
C77 C78 1_555 1_555
P2 O6 1_555 1_555
O6 Eu2 1_555 1_555
C14 O2_2 1_555 1_555
H13 C14 1_555 1_555
H14 C14 1_555 1_555
C15 P2 1_555 1_555
C16 C15 1_555 1_555
H15 C16 1_555 1_555
C17 C16 1_555 1_555
H16 C17 1_555 1_555
C18 C17 1_555 1_555
H17 C18 1_555 1_555
C19 C18 1_555 1_555
H18 C19 1_555 1_555
C20 C15 1_555 1_555
H19 C20 1_555 1_555
C21 P2 1_555 1_555
C22 C21 1_555 1_555
H20 C22 1_555 1_555
C23 C22 1_555 1_555
H21 C23 1_555 1_555
C24 C23 1_555 1_555
H22 C24 1_555 1_555
C25 C24 1_555 1_555
H23 C25 1_555 1_555
C26 C21 1_555 1_555
H24 C26 1_555 1_555
H27 C29 1_555 1_555
C30 C29 1_555 1_555
H28 C30 1_555 1_555
C31 C30 1_555 1_555
H29 C31 1_555 1_555
H39 C42 1_555 1_555
C43 C42 1_555 1_555
H40 C43 1_555 1_555
C44 C43 1_555 1_555
H41 C44 1_555 1_555
Eu2 O19 1_555 1_555
O19 N4 1_555 1_555
O20 Eu2 1_555 1_555
O21 N4 1_555 1_555
N4 O20 1_555 1_555
O22 Eu2 1_555 1_555
O23 Eu2 1_555 1_555
O24 N5 1_555 1_555
N5 O22 1_555 1_555
O25 Eu2 1_555 1_555
O26 Eu2 1_555 1_555
O27 N6 1_555 1_555
N6 O25 1_555 1_555
O28 Eu2 1_555 1_555
O29 Eu2 1_555 1_555
P2 C14 1_555 1_555
C19 C20 1_555 1_555
C25 C26 1_555 1_555
O23 N5 1_555 1_555
O26 N6 1_555 1_555
Eu1_2 O1_2 1_555 1_555
P1_2 O1_2 1_555 1_555
O2_3 C1_2 1_555 1_555
C1_2 P1_2 1_555 1_555
H1_2 C1_2 1_555 1_555
H2_2 C1_2 1_555 1_555
C2_2 P1_2 1_555 1_555
C3_2 C2_2 1_555 1_555
H3_2 C3_2 1_555 1_555
C4_2 C3_2 1_555 1_555
H4_2 C4_2 1_555 1_555
C5_2 C4_2 1_555 1_555
H5_2 C5_2 1_555 1_555
C6_2 C5_2 1_555 1_555
H6_2 C6_2 1_555 1_555
C7_2 C2_2 1_555 1_555
H7_2 C7_2 1_555 1_555
C8_2 P1_2 1_555 1_555
C9_2 C8_2 1_555 1_555
H8_2 C9_2 1_555 1_555
C10_2 C9_2 1_555 1_555
H9_2 C10_2 1_555 1_555
C11_2 C10_2 1_555 1_555
H10_2 C11_2 1_555 1_555
C12_2 C11_2 1_555 1_555
H11_2 C12_2 1_555 1_555
C13_2 C8_2 1_555 1_555
H12_2 C13_2 1_555 1_555
O3_2 Eu1_2 1_555 1_555
O4_2 Eu1_2 1_555 1_555
O5_2 N1_2 1_555 1_555
N1_2 O3_2 1_555 1_555
P2_2 O6_2 1_555 1_555
O6_2 Eu4 1_555 1_555
C14_2 O2_3 1_555 1_555
H13_2 C14_2 1_555 1_555
H14_2 C14_2 1_555 1_555
C15_2 P2_2 1_555 1_555
C16_2 C15_2 1_555 1_555
H15_2 C16_2 1_555 1_555
C17_2 C16_2 1_555 1_555
H16_2 C17_2 1_555 1_555
C18_2 C17_2 1_555 1_555
H17_2 C18_2 1_555 1_555
C19_2 C18_2 1_555 1_555
H18_2 C19_2 1_555 1_555
C20_2 C15_2 1_555 1_555
H19_2 C20_2 1_555 1_555
C21_2 P2_2 1_555 1_555
C22_2 C21_2 1_555 1_555
H20_2 C22_2 1_555 1_555
C23_2 C22_2 1_555 1_555
H21_2 C23_2 1_555 1_555
C24_2 C23_2 1_555 1_555
H22_2 C24_2 1_555 1_555
C25_2 C24_2 1_555 1_555
H23_2 C25_2 1_555 1_555
C26_2 C21_2 1_555 1_555
H24_2 C26_2 1_555 1_555
P3_2 O7_2 1_555 1_555
O7_2 Eu1_2 1_555 1_555
O8_2 C27_2 1_555 1_555
C27_2 P3_2 1_555 1_555
H25_2 C27_2 1_555 1_555
H26_2 C27_2 1_555 1_555
C28_2 P3_2 1_555 1_555
C29_2 C28_2 1_555 1_555
H27_2 C29_2 1_555 1_555
C30_2 C29_2 1_555 1_555
H28_2 C30_2 1_555 1_555
C31_2 C30_2 1_555 1_555
H29_2 C31_2 1_555 1_555
C32_2 C31_2 1_555 1_555
H30_2 C32_2 1_555 1_555
C33_2 C28_2 1_555 1_555
H31_2 C33_2 1_555 1_555
C34_2 P3_2 1_555 1_555
C35_2 C34_2 1_555 1_555
H32_2 C35_2 1_555 1_555
C36_2 C35_2 1_555 1_555
H33_2 C36_2 1_555 1_555
C37_2 C36_2 1_555 1_555
H34_2 C37_2 1_555 1_555
C38_2 C37_2 1_555 1_555
H35_2 C38_2 1_555 1_555
C39_2 C34_2 1_555 1_555
H36_2 C39_2 1_555 1_555
O9_2 Eu1_2 1_555 1_555
O10_2 Eu1_2 1_555 1_555
O11_2 N2_2 1_555 1_555
N2_2 O9_2 1_555 1_555
P5_2 O13_2 1_555 1_555
O13_2 Eu1_2 1_555 1_555
O14_2 C53_2 1_555 1_555
C53_2 P5_2 1_555 1_555
H49_2 C53_2 1_555 1_555
H50_2 C53_2 1_555 1_555
C54_2 P5_2 1_555 1_555
H54_2 C58_2 1_555 1_555
C59_2 C54_2 1_555 1_555
H55_2 C59_2 1_555 1_555
C60_2 P5_2 1_555 1_555
C61_2 C60_2 1_555 1_555
H56_2 C61_2 1_555 1_555
C62_2 C61_2 1_555 1_555
C63_2 C62_2 1_555 1_555
H58_2 C63_2 1_555 1_555
C64_2 C63_2 1_555 1_555
H59_2 C64_2 1_555 1_555
C65_2 C60_2 1_555 1_555
H60_2 C65_2 1_555 1_555
O15_2 Eu1_2 1_555 1_555
O16_2 Eu1_2 1_555 1_555
O17_2 N3_2 1_555 1_555
N3_2 O15_2 1_555 1_555
P6_2 O29 1_555 1_555
C66_2 O14_2 1_555 1_555
H61_2 C66_2 1_555 1_555
H62_2 C66_2 1_555 1_555
C67_2 P6_2 1_555 1_555
H66_2 C71_2 1_555 1_555
C72_2 C67_2 1_555 1_555
H67_2 C72_2 1_555 1_555
C73_2 P6_2 1_555 1_555
C74_2 C73_2 1_555 1_555
H68_2 C74_2 1_555 1_555
C75_2 C74_2 1_555 1_555
C76_2 C75_2 1_555 1_555
H70_2 C76_2 1_555 1_555
C77_2 C76_2 1_555 1_555
H71_2 C77_2 1_555 1_555
C78_2 C73_2 1_555 1_555
H72_2 C78_2 1_555 1_555
Eu4 O19_2 1_555 1_555
O19_2 N4_2 1_555 1_555
O20_2 Eu4 1_555 1_555
O21_2 N4_2 1_555 1_555
N4_2 O20_2 1_555 1_555
O22_2 Eu4 1_555 1_555
O23_2 Eu4 1_555 1_555
O24_2 N5_2 1_555 1_555
N5_2 O22_2 1_555 1_555
O25_2 Eu4 1_555 1_555
O26_2 Eu4 1_555 1_555
O27_2 N6_2 1_555 1_555
N6_2 O25_2 1_555 1_555
O28_2 Eu4 1_555 1_555
C6_2 C7_2 1_555 1_555
C12_2 C13_2 1_555 1_555
O4_2 N1_2 1_555 1_555
P2_2 C14_2 1_555 1_555
C19_2 C20_2 1_555 1_555
C25_2 C26_2 1_555 1_555
C32_2 C33_2 1_555 1_555
C38_2 C39_2 1_555 1_555
O10_2 N2_2 1_555 1_555
C58_2 C59_2 1_555 1_555
C64_2 C65_2 1_555 1_555
O16_2 N3_2 1_555 1_555
P6_2 C66_2 1_555 1_555
C71_2 C72_2 1_555 1_555
C77_2 C78_2 1_555 1_555
O23_2 N5_2 1_555 1_555
O26_2 N6_2 1_555 1_555
P4_2 O12_2 1_555 1_555
O12_2 Eu3_2 1_555 1_555
C40_2 O8_3 1_555 1_555
H37_2 C40_2 1_555 1_555
H38_2 C40_2 1_555 1_555
C41_2 P4_2 1_555 1_555
C42_2 C41_2 1_555 1_555
H39_2 C42_2 1_555 1_555
C43_2 C42_2 1_555 1_555
H40_2 C43_2 1_555 1_555
C44_2 C43_2 1_555 1_555
H41_2 C44_2 1_555 1_555
C45_2 C44_2 1_555 1_555
H42_2 C45_2 1_555 1_555
C46_2 C41_2 1_555 1_555
H43_2 C46_2 1_555 1_555
C47_2 P4_2 1_555 1_555
C48_2 C47_2 1_555 1_555
H44_2 C48_2 1_555 1_555
C49_2 C48_2 1_555 1_555
H45_2 C49_2 1_555 1_555
C50_2 C49_2 1_555 1_555
H46_2 C50_2 1_555 1_555
C51_2 C50_2 1_555 1_555
H47_2 C51_2 1_555 1_555
C52_2 C47_2 1_555 1_555
H48_2 C52_2 1_555 1_555
H51_2 C55_2 1_555 1_555
C56_2 C55_2 1_555 1_555
H52_2 C56_2 1_555 1_555
C57_2 C56_2 1_555 1_555
H53_2 C57_2 1_555 1_555
H63_2 C68_2 1_555 1_555
C69_2 C68_2 1_555 1_555
H64_2 C69_2 1_555 1_555
C70_2 C69_2 1_555 1_555
H65_2 C70_2 1_555 1_555
P4_2 C40_2 1_555 1_555
C45_2 C46_2 1_555 1_555
C51_2 C52_2 1_555 1_555
Eu1_3 O1_3 1_555 1_555
P1_3 O1_3 1_555 1_555
O2_4 C1_3 1_555 1_555
C1_3 P1_3 1_555 1_555
H1_3 C1_3 1_555 1_555
H2_3 C1_3 1_555 1_555
C2_3 P1_3 1_555 1_555
H6_3 C6_3 1_555 1_555
C7_3 C2_3 1_555 1_555
H7_3 C7_3 1_555 1_555
C8_3 P1_3 1_555 1_555
C9_3 C8_3 1_555 1_555
H8_3 C9_3 1_555 1_555
C10_3 C9_3 1_555 1_555
C11_3 C10_3 1_555 1_555
H10_3 C11_3 1_555 1_555
C12_3 C11_3 1_555 1_555
H11_3 C12_3 1_555 1_555
C13_3 C8_3 1_555 1_555
H12_3 C13_3 1_555 1_555
O3_3 Eu1_3 1_555 1_555
O4_3 Eu1_3 1_555 1_555
O5_3 N1_3 1_555 1_555
N1_3 O3_3 1_555 1_555
P2_3 O6_3 1_555 1_555
O6_3 Eu3_2 1_555 1_555
C14_3 O2_4 1_555 1_555
H13_3 C14_3 1_555 1_555
H14_3 C14_3 1_555 1_555
C15_3 P2_3 1_555 1_555
H18_3 C19_3 1_555 1_555
C20_3 C15_3 1_555 1_555
H19_3 C20_3 1_555 1_555
C21_3 P2_3 1_555 1_555
C22_3 C21_3 1_555 1_555
H20_3 C22_3 1_555 1_555
C23_3 C22_3 1_555 1_555
C24_3 C23_3 1_555 1_555
H22_3 C24_3 1_555 1_555
C25_3 C24_3 1_555 1_555
H23_3 C25_3 1_555 1_555
C26_3 C21_3 1_555 1_555
H24_3 C26_3 1_555 1_555
P3_3 O7_3 1_555 1_555
O7_3 Eu1_3 1_555 1_555
O8_4 C27_3 1_555 1_555
C27_3 P3_3 1_555 1_555
H25_3 C27_3 1_555 1_555
H26_3 C27_3 1_555 1_555
C28_3 P3_3 1_555 1_555
C29_3 C28_3 1_555 1_555
H27_3 C29_3 1_555 1_555
C30_3 C29_3 1_555 1_555
H28_3 C30_3 1_555 1_555
C31_3 C30_3 1_555 1_555
H29_3 C31_3 1_555 1_555
C32_3 C31_3 1_555 1_555
H30_3 C32_3 1_555 1_555
C33_3 C28_3 1_555 1_555
H31_3 C33_3 1_555 1_555
C34_3 P3_3 1_555 1_555
C35_3 C34_3 1_555 1_555
H32_3 C35_3 1_555 1_555
C36_3 C35_3 1_555 1_555
H33_3 C36_3 1_555 1_555
C37_3 C36_3 1_555 1_555
H34_3 C37_3 1_555 1_555
C38_3 C37_3 1_555 1_555
H35_3 C38_3 1_555 1_555
C39_3 C34_3 1_555 1_555
H36_3 C39_3 1_555 1_555
O9_3 Eu1_3 1_555 1_555
O10_3 Eu1_3 1_555 1_555
O11_3 N2_3 1_555 1_555
N2_3 O9_3 1_555 1_555
P4_3 O28_2 1_555 1_555
C40_3 O8_4 1_555 1_555
H37_3 C40_3 1_555 1_555
H38_3 C40_3 1_555 1_555
C41_3 P4_3 1_555 1_555
C42_3 C41_3 1_555 1_555
H39_3 C42_3 1_555 1_555
C43_3 C42_3 1_555 1_555
H40_3 C43_3 1_555 1_555
C44_3 C43_3 1_555 1_555
H41_3 C44_3 1_555 1_555
C45_3 C44_3 1_555 1_555
H42_3 C45_3 1_555 1_555
C46_3 C41_3 1_555 1_555
H43_3 C46_3 1_555 1_555
C47_3 P4_3 1_555 1_555
C48_3 C47_3 1_555 1_555
H44_3 C48_3 1_555 1_555
C49_3 C48_3 1_555 1_555
H45_3 C49_3 1_555 1_555
C50_3 C49_3 1_555 1_555
H46_3 C50_3 1_555 1_555
C51_3 C50_3 1_555 1_555
H47_3 C51_3 1_555 1_555
C52_3 C47_3 1_555 1_555
H48_3 C52_3 1_555 1_555
P5_3 O13_3 1_555 1_555
O13_3 Eu1_3 1_555 1_555
O14_3 C53_3 1_555 1_555
C53_3 P5_3 1_555 1_555
H49_3 C53_3 1_555 1_555
H50_3 C53_3 1_555 1_555
C54_3 P5_3 1_555 1_555
C55_3 C54_3 1_555 1_555
H51_3 C55_3 1_555 1_555
C56_3 C55_3 1_555 1_555
H52_3 C56_3 1_555 1_555
C57_3 C56_3 1_555 1_555
H53_3 C57_3 1_555 1_555
C58_3 C57_3 1_555 1_555
H54_3 C58_3 1_555 1_555
C59_3 C54_3 1_555 1_555
H55_3 C59_3 1_555 1_555
C60_3 P5_3 1_555 1_555
C61_3 C60_3 1_555 1_555
H56_3 C61_3 1_555 1_555
C62_3 C61_3 1_555 1_555
H57_3 C62_3 1_555 1_555
C63_3 C62_3 1_555 1_555
H58_3 C63_3 1_555 1_555
C64_3 C63_3 1_555 1_555
H59_3 C64_3 1_555 1_555
C65_3 C60_3 1_555 1_555
H60_3 C65_3 1_555 1_555
O15_3 Eu1_3 1_555 1_555
O16_3 Eu1_3 1_555 1_555
O17_3 N3_3 1_555 1_555
N3_3 O15_3 1_555 1_555
Eu3_2 O19_3 1_555 1_555
O19_3 N4_3 1_555 1_555
O20_3 Eu3_2 1_555 1_555
O21_3 N4_3 1_555 1_555
N4_3 O20_3 1_555 1_555
O22_3 Eu3_2 1_555 1_555
O23_3 Eu3_2 1_555 1_555
O24_3 N5_3 1_555 1_555
N5_3 O22_3 1_555 1_555
O25_3 Eu3_2 1_555 1_555
O26_3 Eu3_2 1_555 1_555
O27_3 N6_3 1_555 1_555
N6_3 O25_3 1_555 1_555
O29_2 Eu3_2 1_555 1_555
C6_3 C7_3 1_555 1_555
C12_3 C13_3 1_555 1_555
O4_3 N1_3 1_555 1_555
P2_3 C14_3 1_555 1_555
C19_3 C20_3 1_555 1_555
C25_3 C26_3 1_555 1_555
C32_3 C33_3 1_555 1_555
C38_3 C39_3 1_555 1_555
O10_3 N2_3 1_555 1_555
P4_3 C40_3 1_555 1_555
C45_3 C46_3 1_555 1_555
C51_3 C52_3 1_555 1_555
C58_3 C59_3 1_555 1_555
C64_3 C65_3 1_555 1_555
O16_3 N3_3 1_555 1_555
O23_3 N5_3 1_555 1_555
O26_3 N6_3 1_555 1_555
H3_3 C3_3 1_555 1_555
C4_3 C3_3 1_555 1_555
H4_3 C4_3 1_555 1_555
C5_3 C4_3 1_555 1_555
H5_3 C5_3 1_555 1_555
H15_3 C16_3 1_555 1_555
C17_3 C16_3 1_555 1_555
H16_3 C17_3 1_555 1_555
C18_3 C17_3 1_555 1_555
H17_3 C18_3 1_555 1_555
P6_3 O18_2 1_555 1_555
O18_2 Eu3 1_555 1_555
C66_3 O14_4 1_555 1_555
H61_3 C66_3 1_555 1_555
H62_3 C66_3 1_555 1_555
C67_3 P6_3 1_555 1_555
C68_3 C67_3 1_555 1_555
H63_3 C68_3 1_555 1_555
C69_3 C68_3 1_555 1_555
H64_3 C69_3 1_555 1_555
C70_3 C69_3 1_555 1_555
H65_3 C70_3 1_555 1_555
C71_3 C70_3 1_555 1_555
H66_3 C71_3 1_555 1_555
C72_3 C67_3 1_555 1_555
H67_3 C72_3 1_555 1_555
C73_3 P6_3 1_555 1_555
C74_3 C73_3 1_555 1_555
H68_3 C74_3 1_555 1_555
C75_3 C74_3 1_555 1_555
H69_3 C75_3 1_555 1_555
C76_3 C75_3 1_555 1_555
H70_3 C76_3 1_555 1_555
C77_3 C76_3 1_555 1_555
H71_3 C77_3 1_555 1_555
C78_3 C73_3 1_555 1_555
H72_3 C78_3 1_555 1_555
P6_3 C66_3 1_555 1_555
C71_3 C72_3 1_555 1_555
C77_3 C78_3 1_555 1_555
H63_4 C68_4 1_555 1_555
C69_4 C68_4 1_555 1_555
H64_4 C69_4 1_555 1_555
C70_4 C69_4 1_555 1_555
H65_4 C70_4 1_555 1_555
H39_4 C42_4 1_555 1_555
C43_4 C42_4 1_555 1_555
H40_4 C43_4 1_555 1_555
C44_4 C43_4 1_555 1_555
H41_4 C44_4 1_555 1_555
P4_4 O28 1_555 1_555
C40_4 O8_5 1_555 1_555
H37_4 C40_4 1_555 1_555
H38_4 C40_4 1_555 1_555
C41_4 P4_4 1_555 1_555
H42_4 C45_4 1_555 1_555
C46_4 C41_4 1_555 1_555
H43_4 C46_4 1_555 1_555
C47_4 P4_4 1_555 1_555
C48_4 C47_4 1_555 1_555
H44_4 C48_4 1_555 1_555
C49_4 C48_4 1_555 1_555
C50_4 C49_4 1_555 1_555
H46_4 C50_4 1_555 1_555
C51_4 C50_4 1_555 1_555
H47_4 C51_4 1_555 1_555
C52_4 C47_4 1_555 1_555
H48_4 C52_4 1_555 1_555
H51_4 C55_4 1_555 1_555
C56_4 C55_4 1_555 1_555
H52_4 C56_4 1_555 1_555
C57_4 C56_4 1_555 1_555
H53_4 C57_4 1_555 1_555
P4_4 C40_4 1_555 1_555
C45_4 C46_4 1_555 1_555
C51_4 C52_4 1_555 1_555
H15_4 C16_4 1_555 1_555
C17_4 C16_4 1_555 1_555
H16_4 C17_4 1_555 1_555
C18_4 C17_4 1_555 1_555
H17_4 C18_4 1_555 1_555
H3_4 C3_4 1_555 1_555
C4_4 C3_4 1_555 1_555
H4_4 C4_4 1_555 1_555
C5_4 C4_4 1_555 1_555
H5_4 C5_4 1_555 1_555
P6_4 O29_2 1_555 1_555
C66_4 O14_5 1_555 1_555
H61_4 C66_4 1_555 1_555
H62_4 C66_4 1_555 1_555
C67_4 P6_4 1_555 1_555
H66_4 C71_4 1_555 1_555
C72_4 C67_4 1_555 1_555
H67_4 C72_4 1_555 1_555
C73_4 P6_4 1_555 1_555
C74_4 C73_4 1_555 1_555
H68_4 C74_4 1_555 1_555
C75_4 C74_4 1_555 1_555
C76_4 C75_4 1_555 1_555
H70_4 C76_4 1_555 1_555
C77_4 C76_4 1_555 1_555
H71_4 C77_4 1_555 1_555
C78_4 C73_4 1_555 1_555
H72_4 C78_4 1_555 1_555
P6_4 C66_4 1_555 1_555
C71_4 C72_4 1_555 1_555
C77_4 C78_4 1_555 1_555
P2_4 O6_4 1_555 1_555
O6_4 Eu3 1_555 1_555
C14_4 O2_5 1_555 1_555
H13_4 C14_4 1_555 1_555
H14_4 C14_4 1_555 1_555
C15_4 P2_4 1_555 1_555
H18_4 C19_4 1_555 1_555
C20_4 C15_4 1_555 1_555
H19_4 C20_4 1_555 1_555
C21_4 P2_4 1_555 1_555
C22_4 C21_4 1_555 1_555
H20_4 C22_4 1_555 1_555
C23_4 C22_4 1_555 1_555
C24_4 C23_4 1_555 1_555
H22_4 C24_4 1_555 1_555
C25_4 C24_4 1_555 1_555
H23_4 C25_4 1_555 1_555
C26_4 C21_4 1_555 1_555
H24_4 C26_4 1_555 1_555
H27_4 C29_4 1_555 1_555
C30_4 C29_4 1_555 1_555
H28_4 C30_4 1_555 1_555
C31_4 C30_4 1_555 1_555
H29_4 C31_4 1_555 1_555
Eu3 O19_4 1_555 1_555
O19_4 N4_4 1_555 1_555
O20_4 Eu3 1_555 1_555
O21_4 N4_4 1_555 1_555
N4_4 O20_4 1_555 1_555
O22_4 Eu3 1_555 1_555
O23_4 Eu3 1_555 1_555
O24_4 N5_4 1_555 1_555
N5_4 O22_4 1_555 1_555
O25_4 Eu3 1_555 1_555
O26_4 Eu3 1_555 1_555
O27_4 N6_4 1_555 1_555
N6_4 O25_4 1_555 1_555
P2_4 C14_4 1_555 1_555
C19_4 C20_4 1_555 1_555
C25_4 C26_4 1_555 1_555
O23_4 N5_4 1_555 1_555
O26_4 N6_4 1_555 1_555
Eu1_4 O1_4 1_555 1_555
P1_4 O1_4 1_555 1_555
O2_6 C1_4 1_555 1_555
C1_4 P1_4 1_555 1_555
H1_4 C1_4 1_555 1_555
H2_4 C1_4 1_555 1_555
C2_4 P1_4 1_555 1_555
H6_4 C6_4 1_555 1_555
C7_4 C2_4 1_555 1_555
H7_4 C7_4 1_555 1_555
C8_4 P1_4 1_555 1_555
C9_4 C8_4 1_555 1_555
H8_4 C9_4 1_555 1_555
C10_4 C9_4 1_555 1_555
C11_4 C10_4 1_555 1_555
H10_4 C11_4 1_555 1_555
C12_4 C11_4 1_555 1_555
H11_4 C12_4 1_555 1_555
C13_4 C8_4 1_555 1_555
H12_4 C13_4 1_555 1_555
O3_4 Eu1_4 1_555 1_555
O4_4 Eu1_4 1_555 1_555
O5_4 N1_4 1_555 1_555
N1_4 O3_4 1_555 1_555
P3_4 O7_4 1_555 1_555
O7_4 Eu1_4 1_555 1_555
O8_6 C27_4 1_555 1_555
C27_4 P3_4 1_555 1_555
H25_4 C27_4 1_555 1_555
H26_4 C27_4 1_555 1_555
C28_4 P3_4 1_555 1_555
H30_4 C32_4 1_555 1_555
C33_4 C28_4 1_555 1_555
H31_4 C33_4 1_555 1_555
C34_4 P3_4 1_555 1_555
C35_4 C34_4 1_555 1_555
H32_4 C35_4 1_555 1_555
C36_4 C35_4 1_555 1_555
C37_4 C36_4 1_555 1_555
H34_4 C37_4 1_555 1_555
C38_4 C37_4 1_555 1_555
H35_4 C38_4 1_555 1_555
C39_4 C34_4 1_555 1_555
H36_4 C39_4 1_555 1_555
O9_4 Eu1_4 1_555 1_555
O10_4 Eu1_4 1_555 1_555
O11_4 N2_4 1_555 1_555
N2_4 O9_4 1_555 1_555
P5_4 O13_4 1_555 1_555
O13_4 Eu1_4 1_555 1_555
O14_6 C53_4 1_555 1_555
C53_4 P5_4 1_555 1_555
H49_4 C53_4 1_555 1_555
H50_4 C53_4 1_555 1_555
C54_4 P5_4 1_555 1_555
H54_4 C58_4 1_555 1_555
C59_4 C54_4 1_555 1_555
H55_4 C59_4 1_555 1_555
C60_4 P5_4 1_555 1_555
C61_4 C60_4 1_555 1_555
H56_4 C61_4 1_555 1_555
C62_4 C61_4 1_555 1_555
C63_4 C62_4 1_555 1_555
H58_4 C63_4 1_555 1_555
C64_4 C63_4 1_555 1_555
H59_4 C64_4 1_555 1_555
C65_4 C60_4 1_555 1_555
H60_4 C65_4 1_555 1_555
O15_4 Eu1_4 1_555 1_555
O16_4 Eu1_4 1_555 1_555
O17_4 N3_4 1_555 1_555
N3_4 O15_4 1_555 1_555
C6_4 C7_4 1_555 1_555
C12_4 C13_4 1_555 1_555
O4_4 N1_4 1_555 1_555
C32_4 C33_4 1_555 1_555
C38_4 C39_4 1_555 1_555
O10_4 N2_4 1_555 1_555
C58_4 C59_4 1_555 1_555
C64_4 C65_4 1_555 1_555
O16_4 N3_4 1_555 1_555
C35_5 C34_5 1_555 1_555
H32_5 C35_5 1_555 1_555
C36_5 C35_5 1_555 1_555
H33_5 C36_5 1_555 1_555
C37_5 C36_5 1_555 1_555
H34_5 C37_5 1_555 1_555
C38_5 C37_5 1_555 1_555
H35_5 C38_5 1_555 1_555
C39_5 C34_5 1_555 1_555
H36_5 C39_5 1_555 1_555
O11_5 N2_5 1_555 1_555
N2_5 O9_5 1_555 1_555
P4_5 O12_3 1_555 1_555
O12_3 Eu3_3 1_555 1_555
C40_5 O8_7 1_555 1_555
H38_5 C40_5 1_555 1_555
C41_5 P4_5 1_555 1_555
C42_5 C41_5 1_555 1_555
H39_5 C42_5 1_555 1_555
C43_5 C42_5 1_555 1_555
H40_5 C43_5 1_555 1_555
C44_5 C43_5 1_555 1_555
H41_5 C44_5 1_555 1_555
C45_5 C44_5 1_555 1_555
H42_5 C45_5 1_555 1_555
C46_5 C41_5 1_555 1_555
H43_5 C46_5 1_555 1_555
O24_5 N5_5 1_555 1_555
N5_5 O22_5 1_555 1_555
C38_5 C39_5 1_555 1_555
O10_5 N2_5 1_555 1_555
P4_5 C40_5 1_555 1_555
C45_5 C46_5 1_555 1_555
O23_5 N5_5 1_555 1_555
Eu1_5 O1_5 1_555 1_555
P1_5 O1_5 1_555 1_555
O2_7 C1_5 1_555 1_555
C1_5 P1_5 1_555 1_555
H1_5 C1_5 1_555 1_555
H2_5 C1_5 1_555 1_555
C2_5 P1_5 1_555 1_555
C3_5 C2_5 1_555 1_555
H3_5 C3_5 1_555 1_555
C4_5 C3_5 1_555 1_555
H4_5 C4_5 1_555 1_555
C5_5 C4_5 1_555 1_555
H5_5 C5_5 1_555 1_555
C6_5 C5_5 1_555 1_555
H6_5 C6_5 1_555 1_555
C7_5 C2_5 1_555 1_555
H7_5 C7_5 1_555 1_555
C8_5 P1_5 1_555 1_555
C9_5 C8_5 1_555 1_555
H8_5 C9_5 1_555 1_555
C10_5 C9_5 1_555 1_555
H9_5 C10_5 1_555 1_555
C11_5 C10_5 1_555 1_555
H10_5 C11_5 1_555 1_555
C12_5 C11_5 1_555 1_555
H11_5 C12_5 1_555 1_555
C13_5 C8_5 1_555 1_555
H12_5 C13_5 1_555 1_555
O3_5 Eu1_5 1_555 1_555
O4_5 Eu1_5 1_555 1_555
O5_5 N1_5 1_555 1_555
N1_5 O3_5 1_555 1_555
P2_5 O6_5 1_555 1_555
O6_5 Eu2_2 1_555 1_555
C14_5 O2_7 1_555 1_555
H13_5 C14_5 1_555 1_555
H14_5 C14_5 1_555 1_555
C15_5 P2_5 1_555 1_555
C16_5 C15_5 1_555 1_555
H15_5 C16_5 1_555 1_555
C17_5 C16_5 1_555 1_555
H16_5 C17_5 1_555 1_555
C18_5 C17_5 1_555 1_555
H17_5 C18_5 1_555 1_555
C19_5 C18_5 1_555 1_555
H18_5 C19_5 1_555 1_555
C20_5 C15_5 1_555 1_555
H19_5 C20_5 1_555 1_555
C21_5 P2_5 1_555 1_555
C22_5 C21_5 1_555 1_555
H20_5 C22_5 1_555 1_555
C23_5 C22_5 1_555 1_555
H21_5 C23_5 1_555 1_555
C24_5 C23_5 1_555 1_555
H22_5 C24_5 1_555 1_555
C25_5 C24_5 1_555 1_555
H23_5 C25_5 1_555 1_555
C26_5 C21_5 1_555 1_555
H24_5 C26_5 1_555 1_555
P3_5 O7_5 1_555 1_555
O7_5 Eu1_5 1_555 1_555
O8_8 C27_5 1_555 1_555
C27_5 P3_5 1_555 1_555
H26_5 C27_5 1_555 1_555
C28_5 P3_5 1_555 1_555
C29_5 C28_5 1_555 1_555
H27_5 C29_5 1_555 1_555
C30_5 C29_5 1_555 1_555
H28_5 C30_5 1_555 1_555
C31_5 C30_5 1_555 1_555
H29_5 C31_5 1_555 1_555
C32_5 C31_5 1_555 1_555
H30_5 C32_5 1_555 1_555
C33_5 C28_5 1_555 1_555
H31_5 C33_5 1_555 1_555
C48_5 C47_5 1_555 1_555
H44_5 C48_5 1_555 1_555
C49_5 C48_5 1_555 1_555
H45_5 C49_5 1_555 1_555
C50_5 C49_5 1_555 1_555
H46_5 C50_5 1_555 1_555
C51_5 C50_5 1_555 1_555
H47_5 C51_5 1_555 1_555
C52_5 C47_5 1_555 1_555
H48_5 C52_5 1_555 1_555
P5_5 O13_5 1_555 1_555
O13_5 Eu1_5 1_555 1_555
O14_7 C53_5 1_555 1_555
C53_5 P5_5 1_555 1_555
H49_5 C53_5 1_555 1_555
H50_5 C53_5 1_555 1_555
C54_5 P5_5 1_555 1_555
C55_5 C54_5 1_555 1_555
H51_5 C55_5 1_555 1_555
C56_5 C55_5 1_555 1_555
H52_5 C56_5 1_555 1_555
C57_5 C56_5 1_555 1_555
H53_5 C57_5 1_555 1_555
C58_5 C57_5 1_555 1_555
H54_5 C58_5 1_555 1_555
C59_5 C54_5 1_555 1_555
H55_5 C59_5 1_555 1_555
C60_5 P5_5 1_555 1_555
C61_5 C60_5 1_555 1_555
H56_5 C61_5 1_555 1_555
C62_5 C61_5 1_555 1_555
H57_5 C62_5 1_555 1_555
C63_5 C62_5 1_555 1_555
H58_5 C63_5 1_555 1_555
C64_5 C63_5 1_555 1_555
H59_5 C64_5 1_555 1_555
C65_5 C60_5 1_555 1_555
H60_5 C65_5 1_555 1_555
O15_5 Eu1_5 1_555 1_555
O16_5 Eu1_5 1_555 1_555
O17_5 N3_5 1_555 1_555
N3_5 O15_5 1_555 1_555
P6_5 O18_3 1_555 1_555
O18_3 Eu4_2 1_555 1_555
C66_5 O14_7 1_555 1_555
H61_5 C66_5 1_555 1_555
H62_5 C66_5 1_555 1_555
C67_5 P6_5 1_555 1_555
C68_5 C67_5 1_555 1_555
H63_5 C68_5 1_555 1_555
C69_5 C68_5 1_555 1_555
H64_5 C69_5 1_555 1_555
C70_5 C69_5 1_555 1_555
H65_5 C70_5 1_555 1_555
C71_5 C70_5 1_555 1_555
H66_5 C71_5 1_555 1_555
C72_5 C67_5 1_555 1_555
H67_5 C72_5 1_555 1_555
C73_5 P6_5 1_555 1_555
C74_5 C73_5 1_555 1_555
H68_5 C74_5 1_555 1_555
C75_5 C74_5 1_555 1_555
H69_5 C75_5 1_555 1_555
C76_5 C75_5 1_555 1_555
H70_5 C76_5 1_555 1_555
C77_5 C76_5 1_555 1_555
H71_5 C77_5 1_555 1_555
C78_5 C73_5 1_555 1_555
H72_5 C78_5 1_555 1_555
Eu2_2 O19_5 1_555 1_555
O19_5 N4_5 1_555 1_555
O20_5 Eu2_2 1_555 1_555
O21_5 N4_5 1_555 1_555
N4_5 O20_5 1_555 1_555
O28_3 Eu2_2 1_555 1_555
O29_3 Eu2_2 1_555 1_555
C6_5 C7_5 1_555 1_555
C12_5 C13_5 1_555 1_555
O4_5 N1_5 1_555 1_555
P2_5 C14_5 1_555 1_555
C19_5 C20_5 1_555 1_555
C25_5 C26_5 1_555 1_555
C32_5 C33_5 1_555 1_555
C51_5 C52_5 1_555 1_555
C58_5 C59_5 1_555 1_555
C64_5 C65_5 1_555 1_555
O16_5 N3_5 1_555 1_555
P6_5 C66_5 1_555 1_555
C71_5 C72_5 1_555 1_555
C77_5 C78_5 1_555 1_555
O27_5 N6_5 1_555 1_555
N6_5 O25_5 1_555 1_555
O26_5 N6_5 1_555 1_555
C61_6 C60_6 1_555 1_555
H56_6 C61_6 1_555 1_555
C62_6 C61_6 1_555 1_555
H57_6 C62_6 1_555 1_555
C63_6 C62_6 1_555 1_555
H58_6 C63_6 1_555 1_555
C64_6 C63_6 1_555 1_555
H59_6 C64_6 1_555 1_555
C65_6 C60_6 1_555 1_555
H60_6 C65_6 1_555 1_555
O17_6 N3_6 1_555 1_555
N3_6 O15_6 1_555 1_555
P6_6 O29_3 1_555 1_555
C66_6 O14_8 1_555 1_555
H62_6 C66_6 1_555 1_555
C67_6 P6_6 1_555 1_555
C68_6 C67_6 1_555 1_555
H63_6 C68_6 1_555 1_555
C69_6 C68_6 1_555 1_555
H64_6 C69_6 1_555 1_555
C70_6 C69_6 1_555 1_555
H65_6 C70_6 1_555 1_555
C71_6 C70_6 1_555 1_555
H66_6 C71_6 1_555 1_555
C72_6 C67_6 1_555 1_555
H67_6 C72_6 1_555 1_555
C64_6 C65_6 1_555 1_555
O16_6 N3_6 1_555 1_555
P6_6 C66_6 1_555 1_555
C71_6 C72_6 1_555 1_555
Eu1_6 O1_6 1_555 1_555
P1_6 O1_6 1_555 1_555
O2_8 C1_6 1_555 1_555
C1_6 P1_6 1_555 1_555
H1_6 C1_6 1_555 1_555
H2_6 C1_6 1_555 1_555
C2_6 P1_6 1_555 1_555
C3_6 C2_6 1_555 1_555
H3_6 C3_6 1_555 1_555
C4_6 C3_6 1_555 1_555
H4_6 C4_6 1_555 1_555
C5_6 C4_6 1_555 1_555
H5_6 C5_6 1_555 1_555
C6_6 C5_6 1_555 1_555
H6_6 C6_6 1_555 1_555
C7_6 C2_6 1_555 1_555
H7_6 C7_6 1_555 1_555
C8_6 P1_6 1_555 1_555
C9_6 C8_6 1_555 1_555
H8_6 C9_6 1_555 1_555
C10_6 C9_6 1_555 1_555
H9_6 C10_6 1_555 1_555
C11_6 C10_6 1_555 1_555
H10_6 C11_6 1_555 1_555
C12_6 C11_6 1_555 1_555
H11_6 C12_6 1_555 1_555
C13_6 C8_6 1_555 1_555
H12_6 C13_6 1_555 1_555
O3_6 Eu1_6 1_555 1_555
O4_6 Eu1_6 1_555 1_555
O5_6 N1_6 1_555 1_555
N1_6 O3_6 1_555 1_555
P2_6 O6_6 1_555 1_555
O6_6 Eu4_2 1_555 1_555
C14_6 O2_8 1_555 1_555
H13_6 C14_6 1_555 1_555
H14_6 C14_6 1_555 1_555
C15_6 P2_6 1_555 1_555
C16_6 C15_6 1_555 1_555
H15_6 C16_6 1_555 1_555
C17_6 C16_6 1_555 1_555
H16_6 C17_6 1_555 1_555
C18_6 C17_6 1_555 1_555
H17_6 C18_6 1_555 1_555
C19_6 C18_6 1_555 1_555
H18_6 C19_6 1_555 1_555
C20_6 C15_6 1_555 1_555
H19_6 C20_6 1_555 1_555
C21_6 P2_6 1_555 1_555
C22_6 C21_6 1_555 1_555
H20_6 C22_6 1_555 1_555
C23_6 C22_6 1_555 1_555
H21_6 C23_6 1_555 1_555
C24_6 C23_6 1_555 1_555
H22_6 C24_6 1_555 1_555
C25_6 C24_6 1_555 1_555
H23_6 C25_6 1_555 1_555
C26_6 C21_6 1_555 1_555
H24_6 C26_6 1_555 1_555
P3_6 O7_6 1_555 1_555
O7_6 Eu1_6 1_555 1_555
O8_9 C27_6 1_555 1_555
C27_6 P3_6 1_555 1_555
H25_6 C27_6 1_555 1_555
H26_6 C27_6 1_555 1_555
C28_6 P3_6 1_555 1_555
C29_6 C28_6 1_555 1_555
H27_6 C29_6 1_555 1_555
C30_6 C29_6 1_555 1_555
H28_6 C30_6 1_555 1_555
C31_6 C30_6 1_555 1_555
H29_6 C31_6 1_555 1_555
C32_6 C31_6 1_555 1_555
H30_6 C32_6 1_555 1_555
C33_6 C28_6 1_555 1_555
H31_6 C33_6 1_555 1_555
C34_6 P3_6 1_555 1_555
C35_6 C34_6 1_555 1_555
H32_6 C35_6 1_555 1_555
C36_6 C35_6 1_555 1_555
H33_6 C36_6 1_555 1_555
C37_6 C36_6 1_555 1_555
H34_6 C37_6 1_555 1_555
C38_6 C37_6 1_555 1_555
H35_6 C38_6 1_555 1_555
C39_6 C34_6 1_555 1_555
H36_6 C39_6 1_555 1_555
O9_6 Eu1_6 1_555 1_555
O10_6 Eu1_6 1_555 1_555
O11_6 N2_6 1_555 1_555
N2_6 O9_6 1_555 1_555
P4_6 O12_4 1_555 1_555
O12_4 Eu3_4 1_555 1_555
C40_6 O8_9 1_555 1_555
H37_6 C40_6 1_555 1_555
H38_6 C40_6 1_555 1_555
C41_6 P4_6 1_555 1_555
C42_6 C41_6 1_555 1_555
H39_6 C42_6 1_555 1_555
C43_6 C42_6 1_555 1_555
H40_6 C43_6 1_555 1_555
C44_6 C43_6 1_555 1_555
H41_6 C44_6 1_555 1_555
C45_6 C44_6 1_555 1_555
H42_6 C45_6 1_555 1_555
C46_6 C41_6 1_555 1_555
H43_6 C46_6 1_555 1_555
C47_6 P4_6 1_555 1_555
C48_6 C47_6 1_555 1_555
H44_6 C48_6 1_555 1_555
C49_6 C48_6 1_555 1_555
H45_6 C49_6 1_555 1_555
C50_6 C49_6 1_555 1_555
H46_6 C50_6 1_555 1_555
C51_6 C50_6 1_555 1_555
H47_6 C51_6 1_555 1_555
C52_6 C47_6 1_555 1_555
H48_6 C52_6 1_555 1_555
P5_6 O13_6 1_555 1_555
O13_6 Eu1_6 1_555 1_555
O14_9 C53_6 1_555 1_555
C53_6 P5_6 1_555 1_555
H50_6 C53_6 1_555 1_555
C54_6 P5_6 1_555 1_555
C55_6 C54_6 1_555 1_555
H51_6 C55_6 1_555 1_555
C56_6 C55_6 1_555 1_555
H52_6 C56_6 1_555 1_555
C57_6 C56_6 1_555 1_555
H53_6 C57_6 1_555 1_555
C58_6 C57_6 1_555 1_555
H54_6 C58_6 1_555 1_555
C59_6 C54_6 1_555 1_555
H55_6 C59_6 1_555 1_555
C74_6 C73_6 1_555 1_555
H68_6 C74_6 1_555 1_555
C75_6 C74_6 1_555 1_555
H69_6 C75_6 1_555 1_555
C76_6 C75_6 1_555 1_555
H70_6 C76_6 1_555 1_555
C77_6 C76_6 1_555 1_555
H71_6 C77_6 1_555 1_555
C78_6 C73_6 1_555 1_555
H72_6 C78_6 1_555 1_555
Eu4_2 O19_6 1_555 1_555
O19_6 N4_6 1_555 1_555
O20_6 Eu4_2 1_555 1_555
O21_6 N4_6 1_555 1_555
N4_6 O20_6 1_555 1_555
O22_6 Eu4_2 1_555 1_555
O23_6 Eu4_2 1_555 1_555
O24_6 N5_6 1_555 1_555
N5_6 O22_6 1_555 1_555
O25_6 Eu4_2 1_555 1_555
O26_6 Eu4_2 1_555 1_555
O27_6 N6_6 1_555 1_555
N6_6 O25_6 1_555 1_555
O28_4 Eu4_2 1_555 1_555
C6_6 C7_6 1_555 1_555
C12_6 C13_6 1_555 1_555
O4_6 N1_6 1_555 1_555
P2_6 C14_6 1_555 1_555
C19_6 C20_6 1_555 1_555
C25_6 C26_6 1_555 1_555
C32_6 C33_6 1_555 1_555
C38_6 C39_6 1_555 1_555
O10_6 N2_6 1_555 1_555
P4_6 C40_6 1_555 1_555
C45_6 C46_6 1_555 1_555
C51_6 C52_6 1_555 1_555
C58_6 C59_6 1_555 1_555
C77_6 C78_6 1_555 1_555
O23_6 N5_6 1_555 1_555
O26_6 N6_6 1_555 1_555
O27_7 N6_7 1_555 1_555
N6_7 O25_7 1_555 1_555
O26_7 N6_7 1_555 1_555
C9_7 C8_7 1_555 1_555
H8_7 C9_7 1_555 1_555
C10_7 C9_7 1_555 1_555
H9_7 C10_7 1_555 1_555
C11_7 C10_7 1_555 1_555
H10_7 C11_7 1_555 1_555
C12_7 C11_7 1_555 1_555
H11_7 C12_7 1_555 1_555
C13_7 C8_7 1_555 1_555
H12_7 C13_7 1_555 1_555
O5_7 N1_7 1_555 1_555
N1_7 O3_7 1_555 1_555
P2_7 O6_7 1_555 1_555
O6_7 Eu3_4 1_555 1_555
C14_7 O2_9 1_555 1_555
H14_7 C14_7 1_555 1_555
C15_7 P2_7 1_555 1_555
C16_7 C15_7 1_555 1_555
H15_7 C16_7 1_555 1_555
C17_7 C16_7 1_555 1_555
H16_7 C17_7 1_555 1_555
C18_7 C17_7 1_555 1_555
H17_7 C18_7 1_555 1_555
C19_7 C18_7 1_555 1_555
H18_7 C19_7 1_555 1_555
C20_7 C15_7 1_555 1_555
H19_7 C20_7 1_555 1_555
O22_7 Eu3_4 1_555 1_555
O23_7 Eu3_4 1_555 1_555
O24_7 N5_7 1_555 1_555
N5_7 O22_7 1_555 1_555
O29_4 Eu3_4 1_555 1_555
C12_7 C13_7 1_555 1_555
O4_7 N1_7 1_555 1_555
P2_7 C14_7 1_555 1_555
C19_7 C20_7 1_555 1_555
O23_7 N5_7 1_555 1_555
Eu1_7 O1_7 1_555 1_555
P1_7 O1_7 1_555 1_555
O2_10 C1_7 1_555 1_555
C1_7 P1_7 1_555 1_555
H2_7 C1_7 1_555 1_555
C2_7 P1_7 1_555 1_555
C3_7 C2_7 1_555 1_555
H3_7 C3_7 1_555 1_555
C4_7 C3_7 1_555 1_555
H4_7 C4_7 1_555 1_555
C5_7 C4_7 1_555 1_555
H5_7 C5_7 1_555 1_555
C6_7 C5_7 1_555 1_555
H6_7 C6_7 1_555 1_555
C7_7 C2_7 1_555 1_555
H7_7 C7_7 1_555 1_555
C22_7 C21_7 1_555 1_555
H20_7 C22_7 1_555 1_555
C23_7 C22_7 1_555 1_555
H21_7 C23_7 1_555 1_555
C24_7 C23_7 1_555 1_555
H22_7 C24_7 1_555 1_555
C25_7 C24_7 1_555 1_555
H23_7 C25_7 1_555 1_555
C26_7 C21_7 1_555 1_555
H24_7 C26_7 1_555 1_555
P3_7 O7_7 1_555 1_555
O7_7 Eu1_7 1_555 1_555
O8_10 C27_7 1_555 1_555
C27_7 P3_7 1_555 1_555
H25_7 C27_7 1_555 1_555
H26_7 C27_7 1_555 1_555
C28_7 P3_7 1_555 1_555
C29_7 C28_7 1_555 1_555
H27_7 C29_7 1_555 1_555
C30_7 C29_7 1_555 1_555
H28_7 C30_7 1_555 1_555
C31_7 C30_7 1_555 1_555
H29_7 C31_7 1_555 1_555
C32_7 C31_7 1_555 1_555
H30_7 C32_7 1_555 1_555
C33_7 C28_7 1_555 1_555
H31_7 C33_7 1_555 1_555
C34_7 P3_7 1_555 1_555
C35_7 C34_7 1_555 1_555
H32_7 C35_7 1_555 1_555
C36_7 C35_7 1_555 1_555
H33_7 C36_7 1_555 1_555
C37_7 C36_7 1_555 1_555
H34_7 C37_7 1_555 1_555
C38_7 C37_7 1_555 1_555
H35_7 C38_7 1_555 1_555
C39_7 C34_7 1_555 1_555
H36_7 C39_7 1_555 1_555
O9_7 Eu1_7 1_555 1_555
O10_7 Eu1_7 1_555 1_555
O11_7 N2_7 1_555 1_555
N2_7 O9_7 1_555 1_555
P4_7 O28_4 1_555 1_555
C40_7 O8_10 1_555 1_555
H37_7 C40_7 1_555 1_555
H38_7 C40_7 1_555 1_555
C41_7 P4_7 1_555 1_555
C42_7 C41_7 1_555 1_555
H39_7 C42_7 1_555 1_555
C43_7 C42_7 1_555 1_555
H40_7 C43_7 1_555 1_555
C44_7 C43_7 1_555 1_555
H41_7 C44_7 1_555 1_555
C45_7 C44_7 1_555 1_555
H42_7 C45_7 1_555 1_555
C46_7 C41_7 1_555 1_555
H43_7 C46_7 1_555 1_555
C47_7 P4_7 1_555 1_555
C48_7 C47_7 1_555 1_555
H44_7 C48_7 1_555 1_555
C49_7 C48_7 1_555 1_555
H45_7 C49_7 1_555 1_555
C50_7 C49_7 1_555 1_555
H46_7 C50_7 1_555 1_555
C51_7 C50_7 1_555 1_555
H47_7 C51_7 1_555 1_555
C52_7 C47_7 1_555 1_555
H48_7 C52_7 1_555 1_555
P5_7 O13_7 1_555 1_555
O13_7 Eu1_7 1_555 1_555
O14_10 C53_7 1_555 1_555
C53_7 P5_7 1_555 1_555
H49_7 C53_7 1_555 1_555
H50_7 C53_7 1_555 1_555
C54_7 P5_7 1_555 1_555
C55_7 C54_7 1_555 1_555
H51_7 C55_7 1_555 1_555
C56_7 C55_7 1_555 1_555
H52_7 C56_7 1_555 1_555
C57_7 C56_7 1_555 1_555
H53_7 C57_7 1_555 1_555
C58_7 C57_7 1_555 1_555
H54_7 C58_7 1_555 1_555
C59_7 C54_7 1_555 1_555
H55_7 C59_7 1_555 1_555
C60_7 P5_7 1_555 1_555
C61_7 C60_7 1_555 1_555
H56_7 C61_7 1_555 1_555
C62_7 C61_7 1_555 1_555
H57_7 C62_7 1_555 1_555
C63_7 C62_7 1_555 1_555
H58_7 C63_7 1_555 1_555
C64_7 C63_7 1_555 1_555
H59_7 C64_7 1_555 1_555
C65_7 C60_7 1_555 1_555
H60_7 C65_7 1_555 1_555
O15_7 Eu1_7 1_555 1_555
O16_7 Eu1_7 1_555 1_555
O17_7 N3_7 1_555 1_555
N3_7 O15_7 1_555 1_555
P6_7 O18_4 1_555 1_555
O18_4 Eu3_3 1_555 1_555
C66_7 O14_10 1_555 1_555
H61_7 C66_7 1_555 1_555
H62_7 C66_7 1_555 1_555
C67_7 P6_7 1_555 1_555
C68_7 C67_7 1_555 1_555
H63_7 C68_7 1_555 1_555
C69_7 C68_7 1_555 1_555
H64_7 C69_7 1_555 1_555
C70_7 C69_7 1_555 1_555
H65_7 C70_7 1_555 1_555
C71_7 C70_7 1_555 1_555
H66_7 C71_7 1_555 1_555
C72_7 C67_7 1_555 1_555
H67_7 C72_7 1_555 1_555
C73_7 P6_7 1_555 1_555
C74_7 C73_7 1_555 1_555
H68_7 C74_7 1_555 1_555
C75_7 C74_7 1_555 1_555
H69_7 C75_7 1_555 1_555
C76_7 C75_7 1_555 1_555
H70_7 C76_7 1_555 1_555
C77_7 C76_7 1_555 1_555
H71_7 C77_7 1_555 1_555
C78_7 C73_7 1_555 1_555
H72_7 C78_7 1_555 1_555
O19_7 N4_7 1_555 1_555
O21_7 N4_7 1_555 1_555
N4_7 O20_7 1_555 1_555
C6_7 C7_7 1_555 1_555
C25_7 C26_7 1_555 1_555
C32_7 C33_7 1_555 1_555
C38_7 C39_7 1_555 1_555
O10_7 N2_7 1_555 1_555
P4_7 C40_7 1_555 1_555
C45_7 C46_7 1_555 1_555
C51_7 C52_7 1_555 1_555
C58_7 C59_7 1_555 1_555
C64_7 C65_7 1_555 1_555
O16_7 N3_7 1_555 1_555
P6_7 C66_7 1_555 1_555
C71_7 C72_7 1_555 1_555
C77_7 C78_7 1_555 1_555
Eu1_8 O1_8 1_555 1_555
P1_8 O1_8 1_555 1_555
O2_11 C1_8 1_555 1_555
C1_8 P1_8 1_555 1_555
H2_8 C1_8 1_555 1_555
C2_8 P1_8 1_555 1_555
C3_8 C2_8 1_555 1_555
H3_8 C3_8 1_555 1_555
C4_8 C3_8 1_555 1_555
H4_8 C4_8 1_555 1_555
C5_8 C4_8 1_555 1_555
H5_8 C5_8 1_555 1_555
C6_8 C5_8 1_555 1_555
H6_8 C6_8 1_555 1_555
C7_8 C2_8 1_555 1_555
H7_8 C7_8 1_555 1_555
C22_8 C21_8 1_555 1_555
H20_8 C22_8 1_555 1_555
C23_8 C22_8 1_555 1_555
H21_8 C23_8 1_555 1_555
C24_8 C23_8 1_555 1_555
H22_8 C24_8 1_555 1_555
C25_8 C24_8 1_555 1_555
H23_8 C25_8 1_555 1_555
C26_8 C21_8 1_555 1_555
H24_8 C26_8 1_555 1_555
P3_8 O7_8 1_555 1_555
O7_8 Eu1_8 1_555 1_555
O8_11 C27_8 1_555 1_555
C27_8 P3_8 1_555 1_555
H26_8 C27_8 1_555 1_555
C28_8 P3_8 1_555 1_555
C29_8 C28_8 1_555 1_555
H27_8 C29_8 1_555 1_555
C30_8 C29_8 1_555 1_555
H28_8 C30_8 1_555 1_555
C31_8 C30_8 1_555 1_555
H29_8 C31_8 1_555 1_555
C32_8 C31_8 1_555 1_555
H30_8 C32_8 1_555 1_555
C33_8 C28_8 1_555 1_555
H31_8 C33_8 1_555 1_555
C48_8 C47_8 1_555 1_555
H44_8 C48_8 1_555 1_555
C49_8 C48_8 1_555 1_555
H45_8 C49_8 1_555 1_555
C50_8 C49_8 1_555 1_555
H46_8 C50_8 1_555 1_555
C51_8 C50_8 1_555 1_555
H47_8 C51_8 1_555 1_555
C52_8 C47_8 1_555 1_555
H48_8 C52_8 1_555 1_555
P5_8 O13_8 1_555 1_555
O13_8 Eu1_8 1_555 1_555
O14_11 C53_8 1_555 1_555
C53_8 P5_8 1_555 1_555
H50_8 C53_8 1_555 1_555
C54_8 P5_8 1_555 1_555
C55_8 C54_8 1_555 1_555
H51_8 C55_8 1_555 1_555
C56_8 C55_8 1_555 1_555
H52_8 C56_8 1_555 1_555
C57_8 C56_8 1_555 1_555
H53_8 C57_8 1_555 1_555
C58_8 C57_8 1_555 1_555
H54_8 C58_8 1_555 1_555
C59_8 C54_8 1_555 1_555
H55_8 C59_8 1_555 1_555
C74_8 C73_8 1_555 1_555
H68_8 C74_8 1_555 1_555
C75_8 C74_8 1_555 1_555
H69_8 C75_8 1_555 1_555
C76_8 C75_8 1_555 1_555
H70_8 C76_8 1_555 1_555
C77_8 C76_8 1_555 1_555
H71_8 C77_8 1_555 1_555
C78_8 C73_8 1_555 1_555
H72_8 C78_8 1_555 1_555
O19_8 N4_8 1_555 1_555
O21_8 N4_8 1_555 1_555
N4_8 O20_8 1_555 1_555
C6_8 C7_8 1_555 1_555
C25_8 C26_8 1_555 1_555
C32_8 C33_8 1_555 1_555
C51_8 C52_8 1_555 1_555
C58_8 C59_8 1_555 1_555
C77_8 C78_8 1_555 1_555
C61_8 C60_8 1_555 1_555
H56_8 C61_8 1_555 1_555
C62_8 C61_8 1_555 1_555
H57_8 C62_8 1_555 1_555
C63_8 C62_8 1_555 1_555
H58_8 C63_8 1_555 1_555
C64_8 C63_8 1_555 1_555
H59_8 C64_8 1_555 1_555
C65_8 C60_8 1_555 1_555
H60_8 C65_8 1_555 1_555
O17_8 N3_8 1_555 1_555
N3_8 O15_8 1_555 1_555
P6_8 O29_4 1_555 1_555
C66_8 O14_12 1_555 1_555
H62_8 C66_8 1_555 1_555
C67_8 P6_8 1_555 1_555
C68_8 C67_8 1_555 1_555
H63_8 C68_8 1_555 1_555
C69_8 C68_8 1_555 1_555
H64_8 C69_8 1_555 1_555
C70_8 C69_8 1_555 1_555
H65_8 C70_8 1_555 1_555
C71_8 C70_8 1_555 1_555
H66_8 C71_8 1_555 1_555
C72_8 C67_8 1_555 1_555
H67_8 C72_8 1_555 1_555
C64_8 C65_8 1_555 1_555
O16_8 N3_8 1_555 1_555
P6_8 C66_8 1_555 1_555
C71_8 C72_8 1_555 1_555
C9_8 C8_8 1_555 1_555
H8_8 C9_8 1_555 1_555
C10_8 C9_8 1_555 1_555
H9_8 C10_8 1_555 1_555
C11_8 C10_8 1_555 1_555
H10_8 C11_8 1_555 1_555
C12_8 C11_8 1_555 1_555
H11_8 C12_8 1_555 1_555
C13_8 C8_8 1_555 1_555
H12_8 C13_8 1_555 1_555
O5_8 N1_8 1_555 1_555
N1_8 O3_8 1_555 1_555
P2_8 O6_8 1_555 1_555
O6_8 Eu3_3 1_555 1_555
C14_8 O2_12 1_555 1_555
H14_8 C14_8 1_555 1_555
C15_8 P2_8 1_555 1_555
C16_8 C15_8 1_555 1_555
H15_8 C16_8 1_555 1_555
C17_8 C16_8 1_555 1_555
H16_8 C17_8 1_555 1_555
C18_8 C17_8 1_555 1_555
H17_8 C18_8 1_555 1_555
C19_8 C18_8 1_555 1_555
H18_8 C19_8 1_555 1_555
C20_8 C15_8 1_555 1_555
H19_8 C20_8 1_555 1_555
O25_8 Eu3_3 1_555 1_555
O26_8 Eu3_3 1_555 1_555
O27_8 N6_8 1_555 1_555
N6_8 O25_8 1_555 1_555
C12_8 C13_8 1_555 1_555
O4_8 N1_8 1_555 1_555
P2_8 C14_8 1_555 1_555
C19_8 C20_8 1_555 1_555
O26_8 N6_8 1_555 1_555
C35_8 C34_8 1_555 1_555
H32_8 C35_8 1_555 1_555
C36_8 C35_8 1_555 1_555
H33_8 C36_8 1_555 1_555
C37_8 C36_8 1_555 1_555
H34_8 C37_8 1_555 1_555
C38_8 C37_8 1_555 1_555
H35_8 C38_8 1_555 1_555
C39_8 C34_8 1_555 1_555
H36_8 C39_8 1_555 1_555
O11_8 N2_8 1_555 1_555
N2_8 O9_8 1_555 1_555
P4_8 O28_3 1_555 1_555
C40_8 O8_12 1_555 1_555
H38_8 C40_8 1_555 1_555
C41_8 P4_8 1_555 1_555
C42_8 C41_8 1_555 1_555
H39_8 C42_8 1_555 1_555
C43_8 C42_8 1_555 1_555
H40_8 C43_8 1_555 1_555
C44_8 C43_8 1_555 1_555
H41_8 C44_8 1_555 1_555
C45_8 C44_8 1_555 1_555
H42_8 C45_8 1_555 1_555
C46_8 C41_8 1_555 1_555
H43_8 C46_8 1_555 1_555
C38_8 C39_8 1_555 1_555
O10_8 N2_8 1_555 1_555
P4_8 C40_8 1_555 1_555
C45_8 C46_8 1_555 1_555
O24_8 N5_8 1_555 1_555
N5_8 O22_8 1_555 1_555
O23_8 N5_8 1_555 1_555

#END
