
###############################################################################
#
# This file contains modified crystal structure data generated from the
# MOF subset of the Cambridge Structural Database (CSD) v543 
# hosted by the Cambridge Crystallographic Data Centre (CCDC).
#
# This work is licensed under the Creative Commons
# Attribution-NonCommercial-ShareAlike 4.0 International License.
# To view a copy of this license, visit
# http://creativecommons.org/licenses/by-nc-sa/4.0/
# or send a letter to
# Creative Commons, PO Box 1866, Mountain View, CA 94042, USA.
#
# CIF created using the CSD Python API on 29 September 2022
# The structure has been converted into the P1 space group
# The structure has a 3D framework
# The original CSD entry VILTIW is in the cubic crystal system
# The framework has been calculated to contain at least 10.0% void space
# The void calculation uses a probe of radius 1.32A, grid spacing 0.4
#
###############################################################################

data_VILTIW
_chemical_formula_moiety         '(C624 H576 Lu16 N48 O228 P48)n'
_symmetry_cell_setting           triclinic
_symmetry_space_group_name_H-M   'P 1'
_symmetry_Int_Tables_number      1
_space_group_name_Hall           'P 1'
loop_
_symmetry_equiv_pos_site_id
_symmetry_equiv_pos_as_xyz
1 x,y,z
_cell_length_a                   26.3523(8)
_cell_length_b                   26.3523(8)
_cell_length_c                   26.3523(8)
_cell_angle_alpha                90
_cell_angle_beta                 90
_cell_angle_gamma                90
_cell_volume                     18300.2
loop_
_atom_site_label
_atom_site_type_symbol
_atom_site_fract_x
_atom_site_fract_y
_atom_site_fract_z
O2 O 0.250000 0.10182(12) 0.000000
P2 P 0.23156(3) 0.09250(3) 0.09906(3)
O6 O 0.21420(9) 0.12479(9) 0.14255(8)
C14 C 0.23663(13) 0.13215(12) 0.04274(12)
H13 H 0.203814 0.149283 0.036326
H14 H 0.262776 0.158576 0.048177
C15 C 0.18903(14) 0.04136(12) 0.08587(12)
C19 C 0.11660(16) 0.00678(18) 0.04236(17)
H18 H 0.090498 0.009889 0.017692
C20 C 0.15076(14) 0.04608(15) 0.04976(14)
H19 H 0.148067 0.076230 0.030185
C21 C 0.29299(12) 0.06550(13) 0.10996(12)
C22 C 0.31131(15) 0.02606(14) 0.07947(13)
H20 H 0.290844 0.012573 0.053035
C23 C 0.35986(15) 0.00665(15) 0.08814(15)
C24 C 0.38972(15) 0.02695(16) 0.12598(16)
H22 H 0.422956 0.014025 0.131286
C25 C 0.37192(15) 0.06590(15) 0.15635(15)
H23 H 0.392809 0.079501 0.182388
C26 C 0.32330(14) 0.08513(14) 0.14864(14)
H24 H 0.310807 0.111582 0.169708
C29 C 0.38495(14) 0.19269(18) 0.00305(14)
H27 H 0.360176 0.218641 0.006546
C30 C 0.39283(19) 0.1578(2) 0.04188(18)
H28 H 0.373059 0.159714 0.071969
C31 C 0.42895(18) 0.1207(2) 0.03700(18)
H29 H 0.434338 0.097412 0.064027
H33 H 0.432031 0.372292 0.020515
C42 C 0.61505(14) 0.30731(18) 0.00305(14)
H39 H 0.639824 0.281359 0.006546
C43 C 0.60717(19) 0.3422(2) 0.04188(18)
H40 H 0.626941 0.340286 0.071969
C44 C 0.57105(18) 0.3793(2) 0.03700(18)
H41 H 0.565662 0.402588 0.064027
H45 H 0.567969 0.127708 0.020515
Lu2 Lu 0.19049(2) 0.19049(2) 0.19049(2)
O19 O 0.24763(10) 0.22565(10) 0.12556(10)
O20 O 0.27992(9) 0.20394(10) 0.19748(10)
O21 O 0.32955(11) 0.22789(14) 0.13623(14)
N4 N 0.28717(12) 0.21973(12) 0.15235(13)
O22 O 0.12556(10) 0.24763(10) 0.22565(10)
O23 O 0.19748(10) 0.27992(9) 0.20394(10)
O24 O 0.13623(14) 0.32955(11) 0.22789(14)
N5 N 0.15235(13) 0.28717(12) 0.21973(12)
O25 O 0.22565(10) 0.12556(10) 0.24763(10)
O26 O 0.20394(10) 0.19748(10) 0.27992(9)
O27 O 0.22789(14) 0.13623(14) 0.32955(11)
N6 N 0.21973(12) 0.15235(13) 0.28717(12)
O28 O 0.14255(8) 0.21420(9) 0.12479(9)
O29 O 0.12479(9) 0.14255(8) 0.21420(9)
Lu1 Lu 0.30951(2) 0.19049(2) 0.80951(2)
P1 P 0.26844(3) 0.09250(3) 0.90094(3)
O1 O 0.28580(9) 0.12479(9) 0.85745(8)
O2_2 O 0.250000 0.10182(12) 1.000000
C1 C 0.26337(13) 0.13215(12) 0.95726(12)
H1 H 0.296186 0.149283 0.963674
H2 H 0.237224 0.158576 0.951823
C2 C 0.31097(14) 0.04136(12) 0.91413(12)
C6 C 0.38340(16) 0.00678(18) 0.95764(17)
H6 H 0.409502 0.009889 0.982308
C7 C 0.34924(14) 0.04608(15) 0.95024(14)
H7 H 0.351933 0.076230 0.969815
C8 C 0.20701(12) 0.06550(13) 0.89004(12)
C9 C 0.18869(15) 0.02606(14) 0.92053(13)
H8 H 0.209156 0.012573 0.946965
C10 C 0.14014(15) 0.00665(15) 0.91186(15)
C11 C 0.11028(15) 0.02695(16) 0.87402(16)
H10 H 0.077044 0.014025 0.868714
C12 C 0.12808(15) 0.06590(15) 0.84365(15)
H11 H 0.107191 0.079501 0.817612
C13 C 0.17670(14) 0.08513(14) 0.85136(14)
H12 H 0.189193 0.111582 0.830292
O3 O 0.25237(10) 0.22565(10) 0.87444(10)
O4 O 0.22008(9) 0.20394(10) 0.80252(10)
O5 O 0.17045(11) 0.22789(14) 0.86377(14)
N1 N 0.21283(12) 0.21973(12) 0.84765(13)
P3 P 0.40094(3) 0.23156(3) 0.90750(3)
O7 O 0.35745(8) 0.21420(9) 0.87521(9)
O8 O 0.500000 0.250000 0.89818(12)
C27 C 0.45726(12) 0.23663(13) 0.86785(12)
H25 H 0.463674 0.203814 0.850717
H26 H 0.451823 0.262776 0.841424
C28 C 0.41413(12) 0.18903(14) 0.95864(12)
C32 C 0.45764(17) 0.11660(16) 0.99322(18)
H30 H 0.482308 0.090498 0.990111
C33 C 0.45024(14) 0.15076(14) 0.95392(15)
H31 H 0.469815 0.148067 0.923770
C34 C 0.39004(12) 0.29299(12) 0.93450(13)
C35 C 0.42053(13) 0.31131(15) 0.97394(14)
H32 H 0.446965 0.290844 0.987427
C36 C 0.41186(15) 0.35986(15) 0.99335(15)
C37 C 0.37402(16) 0.38972(15) 0.97305(16)
H34 H 0.368714 0.422956 0.985975
C38 C 0.34365(15) 0.37192(15) 0.93410(15)
H35 H 0.317612 0.392809 0.920499
C39 C 0.35136(14) 0.32330(14) 0.91487(14)
H36 H 0.330292 0.310807 0.888418
O9 O 0.37444(10) 0.24763(10) 0.77435(10)
O10 O 0.30252(10) 0.27992(9) 0.79606(10)
O11 O 0.36377(14) 0.32955(11) 0.77211(14)
N2 N 0.34765(13) 0.28717(12) 0.78027(12)
P4 P 0.59906(3) 0.26844(3) 0.90750(3)
O12 O 0.64255(8) 0.28580(9) 0.87521(9)
C40 C 0.54274(12) 0.26337(13) 0.86785(12)
H37 H 0.536326 0.296186 0.850717
H38 H 0.548177 0.237224 0.841424
C41 C 0.58587(12) 0.31097(14) 0.95864(12)
C45 C 0.54236(17) 0.38340(16) 0.99322(18)
H42 H 0.517692 0.409502 0.990111
C46 C 0.54976(14) 0.34924(14) 0.95392(15)
H43 H 0.530185 0.351933 0.923770
C47 C 0.60996(12) 0.20701(12) 0.93450(13)
C48 C 0.57947(13) 0.18869(15) 0.97394(14)
H44 H 0.553035 0.209156 0.987427
C49 C 0.58814(15) 0.14014(15) 0.99335(15)
C50 C 0.62598(16) 0.11028(15) 0.97305(16)
H46 H 0.631286 0.077044 0.985975
C51 C 0.65635(15) 0.12808(15) 0.93410(15)
H47 H 0.682388 0.107191 0.920499
C52 C 0.64864(14) 0.17670(14) 0.91487(14)
H48 H 0.669708 0.189193 0.888418
P5 P 0.40750(3) 0.09906(3) 0.76844(3)
O13 O 0.37521(9) 0.14255(8) 0.78580(9)
O14 O 0.39818(12) 0.000000 0.750000
C53 C 0.36785(12) 0.04274(12) 0.76337(13)
H49 H 0.350717 0.036326 0.796186
H50 H 0.341424 0.048177 0.737224
C54 C 0.45864(12) 0.08587(12) 0.81097(14)
C55 C 0.50305(14) 0.11505(14) 0.80731(18)
H51 H 0.506546 0.139824 0.781359
C56 C 0.54188(18) 0.10717(19) 0.8422(2)
H52 H 0.571969 0.126941 0.840286
C57 C 0.53700(18) 0.07105(18) 0.8793(2)
H53 H 0.564027 0.065662 0.902588
C58 C 0.49322(18) 0.04236(17) 0.88340(16)
H54 H 0.490111 0.017692 0.909502
C59 C 0.45392(15) 0.04976(14) 0.84924(14)
H55 H 0.423770 0.030185 0.851933
C60 C 0.43450(13) 0.10996(12) 0.70701(12)
C61 C 0.47394(14) 0.07947(13) 0.68869(15)
H56 H 0.487427 0.053035 0.709156
C62 C 0.49335(15) 0.08814(15) 0.64014(15)
H57 H 0.520515 0.067969 0.627708
C63 C 0.47305(16) 0.12598(16) 0.61028(15)
H58 H 0.485975 0.131286 0.577044
C64 C 0.43410(15) 0.15635(15) 0.62808(15)
H59 H 0.420499 0.182388 0.607191
C65 C 0.41487(14) 0.14864(14) 0.67670(14)
H60 H 0.388418 0.169708 0.689193
O15 O 0.27435(10) 0.12556(10) 0.75237(10)
O16 O 0.29606(10) 0.19748(10) 0.72008(9)
O17 O 0.27211(14) 0.13623(14) 0.67045(11)
N3 N 0.28027(12) 0.15235(13) 0.71283(12)
Lu3 Lu 0.69049(2) 0.30951(2) 0.80951(2)
C16 C 0.19269(18) 0.99695(14) 0.11505(14)
H15 H 0.218641 0.993454 0.139824
C17 C 0.1578(2) 0.95812(18) 0.10717(19)
H16 H 0.159714 0.928031 0.126941
C18 C 0.1207(2) 0.96300(18) 0.07105(18)
H17 H 0.097412 0.935973 0.065662
H21 H 0.372292 0.979485 0.067969
C3 C 0.30731(18) 0.99695(14) 0.88495(14)
H3 H 0.281359 0.993454 0.860176
C4 C 0.3422(2) 0.95812(18) 0.89283(19)
H4 H 0.340286 0.928031 0.873059
C5 C 0.3793(2) 0.96300(18) 0.92895(18)
H5 H 0.402588 0.935973 0.934338
H9 H 0.127708 0.979485 0.932031
O14_2 O 0.39818(12) 1.000000 0.750000
P6 P 0.40750(3) 0.90094(3) 0.73156(3)
O18 O 0.37521(9) 0.85745(8) 0.71420(9)
C66 C 0.36785(12) 0.95726(12) 0.73663(13)
H61 H 0.350717 0.963674 0.703814
H62 H 0.341424 0.951823 0.762776
C67 C 0.45864(12) 0.91413(12) 0.68903(14)
C68 C 0.50305(14) 0.88495(14) 0.69269(18)
H63 H 0.506546 0.860176 0.718641
C69 C 0.54188(18) 0.89283(19) 0.6578(2)
H64 H 0.571969 0.873059 0.659714
C70 C 0.53700(18) 0.92895(18) 0.6207(2)
H65 H 0.564027 0.934338 0.597412
C71 C 0.49322(18) 0.95764(17) 0.61660(16)
H66 H 0.490111 0.982308 0.590498
C72 C 0.45392(15) 0.95024(14) 0.65076(14)
H67 H 0.423770 0.969815 0.648067
C73 C 0.43450(13) 0.89004(12) 0.79299(12)
C74 C 0.47394(14) 0.92053(13) 0.81131(15)
H68 H 0.487427 0.946965 0.790844
C75 C 0.49335(15) 0.91186(15) 0.85986(15)
H69 H 0.520515 0.932031 0.872292
C76 C 0.47305(16) 0.87402(16) 0.88972(15)
H70 H 0.485975 0.868714 0.922956
C77 C 0.43410(15) 0.84365(15) 0.87192(15)
H71 H 0.420499 0.817612 0.892809
C78 C 0.41487(14) 0.85136(14) 0.82330(14)
H72 H 0.388418 0.830292 0.810807
Lu4 Lu 0.30951(2) 0.80951(2) 0.69049(2)
C3_2 C 0.19269(18) 0.00305(14) 0.38495(14)
H3_2 H 0.218641 0.006546 0.360176
C4_2 C 0.1578(2) 0.04188(18) 0.39283(19)
H4_2 H 0.159714 0.071969 0.373059
C5_2 C 0.1207(2) 0.03700(18) 0.42895(18)
H5_2 H 0.097412 0.064027 0.434338
H9_2 H 0.372292 0.020515 0.432031
C16_2 C 0.30731(18) 0.00305(14) 0.61505(14)
H15_2 H 0.281359 0.006546 0.639824
C17_2 C 0.3422(2) 0.04188(18) 0.60717(19)
H16_2 H 0.340286 0.071969 0.626941
C18_2 C 0.3793(2) 0.03700(18) 0.57105(18)
H17_2 H 0.402588 0.064027 0.565662
H21_2 H 0.127708 0.020515 0.567969
O14_3 O 0.10182(12) -0.000000 0.250000
P6_2 P 0.09250(3) 0.09906(3) 0.23156(3)
C66_2 C 0.13215(12) 0.04274(12) 0.23663(13)
H61_2 H 0.149283 0.036326 0.203814
H62_2 H 0.158576 0.048177 0.262776
C67_2 C 0.04136(12) 0.08587(12) 0.18903(14)
C71_2 C 0.00678(18) 0.04236(17) 0.11660(16)
H66_2 H 0.009889 0.017692 0.090498
C72_2 C 0.04608(15) 0.04976(14) 0.15076(14)
H67_2 H 0.076230 0.030185 0.148067
C73_2 C 0.06550(13) 0.10996(12) 0.29299(12)
C74_2 C 0.02606(14) 0.07947(13) 0.31131(15)
H68_2 H 0.012573 0.053035 0.290844
C75_2 C 0.00665(15) 0.08814(15) 0.35986(15)
C76_2 C 0.02695(16) 0.12598(16) 0.38972(15)
H70_2 H 0.014025 0.131286 0.422956
C77_2 C 0.06590(15) 0.15635(15) 0.37192(15)
H71_2 H 0.079501 0.182388 0.392809
C78_2 C 0.08513(14) 0.14864(14) 0.32330(14)
H72_2 H 0.111582 0.169708 0.310807
Lu1_2 Lu 0.19049(2) 0.80951(2) 0.30951(2)
P1_2 P 0.23156(3) 0.90750(3) 0.40094(3)
O1_2 O 0.21420(9) 0.87521(9) 0.35745(8)
O2_3 O 0.250000 0.89818(12) 0.500000
C1_2 C 0.23663(13) 0.86785(12) 0.45726(12)
H1_2 H 0.203814 0.850717 0.463674
H2_2 H 0.262776 0.841424 0.451823
C2_2 C 0.18903(14) 0.95864(12) 0.41413(12)
C6_2 C 0.11660(16) 0.99322(18) 0.45764(17)
H6_2 H 0.090498 0.990111 0.482308
C7_2 C 0.15076(14) 0.95392(15) 0.45024(14)
H7_2 H 0.148067 0.923770 0.469815
C8_2 C 0.29299(12) 0.93450(13) 0.39004(12)
C9_2 C 0.31131(15) 0.97394(14) 0.42053(13)
H8_2 H 0.290844 0.987427 0.446965
C10_2 C 0.35986(15) 0.99335(15) 0.41186(15)
C11_2 C 0.38972(15) 0.97305(16) 0.37402(16)
H10_2 H 0.422956 0.985975 0.368714
C12_2 C 0.37192(15) 0.93410(15) 0.34365(15)
H11_2 H 0.392809 0.920499 0.317612
C13_2 C 0.32330(14) 0.91487(14) 0.35136(14)
H12_2 H 0.310807 0.888418 0.330292
O3_2 O 0.24763(10) 0.77435(10) 0.37444(10)
O4_2 O 0.27992(9) 0.79606(10) 0.30252(10)
O5_2 O 0.32955(11) 0.77211(14) 0.36377(14)
N1_2 N 0.28717(12) 0.78027(12) 0.34765(13)
P2_2 P 0.26844(3) 0.90750(3) 0.59906(3)
O6_2 O 0.28580(9) 0.87521(9) 0.64255(8)
C14_2 C 0.26337(13) 0.86785(12) 0.54274(12)
H13_2 H 0.296186 0.850717 0.536326
H14_2 H 0.237224 0.841424 0.548177
C15_2 C 0.31097(14) 0.95864(12) 0.58587(12)
C19_2 C 0.38340(16) 0.99322(18) 0.54236(17)
H18_2 H 0.409502 0.990111 0.517692
C20_2 C 0.34924(14) 0.95392(15) 0.54976(14)
H19_2 H 0.351933 0.923770 0.530185
C21_2 C 0.20701(12) 0.93450(13) 0.60996(12)
C22_2 C 0.18869(15) 0.97394(14) 0.57947(13)
H20_2 H 0.209156 0.987427 0.553035
C23_2 C 0.14014(15) 0.99335(15) 0.58814(15)
C24_2 C 0.11028(15) 0.97305(16) 0.62598(16)
H22_2 H 0.077044 0.985975 0.631286
C25_2 C 0.12808(15) 0.93410(15) 0.65635(15)
H23_2 H 0.107191 0.920499 0.682388
C26_2 C 0.17670(14) 0.91487(14) 0.64864(14)
H24_2 H 0.189193 0.888418 0.669708
P3_2 P 0.09906(3) 0.76844(3) 0.40750(3)
O7_2 O 0.14255(8) 0.78580(9) 0.37521(9)
O8_2 O -0.000000 0.750000 0.39818(12)
C27_2 C 0.04274(12) 0.76337(13) 0.36785(12)
H25_2 H 0.036326 0.796186 0.350717
H26_2 H 0.048177 0.737224 0.341424
C28_2 C 0.08587(12) 0.81097(14) 0.45864(12)
C29_2 C 0.11505(14) 0.80731(18) 0.50305(14)
H27_2 H 0.139824 0.781359 0.506546
C30_2 C 0.10717(19) 0.8422(2) 0.54188(18)
H28_2 H 0.126941 0.840286 0.571969
C31_2 C 0.07105(18) 0.8793(2) 0.53700(18)
H29_2 H 0.065662 0.902588 0.564027
C32_2 C 0.04236(17) 0.88340(16) 0.49322(18)
H30_2 H 0.017692 0.909502 0.490111
C33_2 C 0.04976(14) 0.84924(14) 0.45392(15)
H31_2 H 0.030185 0.851933 0.423770
C34_2 C 0.10996(12) 0.70701(12) 0.43450(13)
C35_2 C 0.07947(13) 0.68869(15) 0.47394(14)
H32_2 H 0.053035 0.709156 0.487427
C36_2 C 0.08814(15) 0.64014(15) 0.49335(15)
H33_2 H 0.067969 0.627708 0.520515
C37_2 C 0.12598(16) 0.61028(15) 0.47305(16)
H34_2 H 0.131286 0.577044 0.485975
C38_2 C 0.15635(15) 0.62808(15) 0.43410(15)
H35_2 H 0.182388 0.607191 0.420499
C39_2 C 0.14864(14) 0.67670(14) 0.41487(14)
H36_2 H 0.169708 0.689193 0.388418
O9_2 O 0.12556(10) 0.75237(10) 0.27435(10)
O10_2 O 0.19748(10) 0.72008(9) 0.29606(10)
O11_2 O 0.13623(14) 0.67045(11) 0.27211(14)
N2_2 N 0.15235(13) 0.71283(12) 0.28027(12)
P5_2 P 0.09250(3) 0.90094(3) 0.26844(3)
O13_2 O 0.12479(9) 0.85745(8) 0.28580(9)
O14_4 O 0.10182(12) 1.000000 0.250000
C53_2 C 0.13215(12) 0.95726(12) 0.26337(13)
H49_2 H 0.149283 0.963674 0.296186
H50_2 H 0.158576 0.951823 0.237224
C54_2 C 0.04136(12) 0.91413(12) 0.31097(14)
C58_2 C 0.00678(18) 0.95764(17) 0.38340(16)
H54_2 H 0.009889 0.982308 0.409502
C59_2 C 0.04608(15) 0.95024(14) 0.34924(14)
H55_2 H 0.076230 0.969815 0.351933
C60_2 C 0.06550(13) 0.89004(12) 0.20701(12)
C61_2 C 0.02606(14) 0.92053(13) 0.18869(15)
H56_2 H 0.012573 0.946965 0.209156
C62_2 C 0.00665(15) 0.91186(15) 0.14014(15)
C63_2 C 0.02695(16) 0.87402(16) 0.11028(15)
H58_2 H 0.014025 0.868714 0.077044
C64_2 C 0.06590(15) 0.84365(15) 0.12808(15)
H59_2 H 0.079501 0.817612 0.107191
C65_2 C 0.08513(14) 0.85136(14) 0.17670(14)
H60_2 H 0.111582 0.830292 0.189193
O15_2 O 0.22565(10) 0.87444(10) 0.25237(10)
O16_2 O 0.20394(10) 0.80252(10) 0.22008(9)
O17_2 O 0.22789(14) 0.86377(14) 0.17045(11)
N3_2 N 0.21973(12) 0.84765(13) 0.21283(12)
O19_2 O 0.25237(10) 0.77435(10) 0.62556(10)
O20_2 O 0.22008(9) 0.79606(10) 0.69748(10)
O21_2 O 0.17045(11) 0.77211(14) 0.63623(14)
N4_2 N 0.21283(12) 0.78027(12) 0.65235(13)
O22_2 O 0.37444(10) 0.75237(10) 0.72565(10)
O23_2 O 0.30252(10) 0.72008(9) 0.70394(10)
O24_2 O 0.36377(14) 0.67045(11) 0.72789(14)
N5_2 N 0.34765(13) 0.71283(12) 0.71973(12)
O25_2 O 0.27435(10) 0.87444(10) 0.74763(10)
O26_2 O 0.29606(10) 0.80252(10) 0.77992(9)
O27_2 O 0.27211(14) 0.86377(14) 0.82955(11)
N6_2 N 0.28027(12) 0.84765(13) 0.78717(12)
O28_2 O 0.35745(8) 0.78580(9) 0.62479(9)
C68_2 C 0.99695(14) 0.11505(14) 0.19269(18)
H63_2 H 0.993454 0.139824 0.218641
C69_2 C 0.95812(18) 0.10717(19) 0.1578(2)
H64_2 H 0.928031 0.126941 0.159714
C70_2 C 0.96300(18) 0.07105(18) 0.1207(2)
H65_2 H 0.935973 0.065662 0.097412
H69_2 H 0.979485 0.067969 0.372292
O8_3 O 1.000000 0.750000 0.39818(12)
P4_2 P 0.90094(3) 0.73156(3) 0.40750(3)
O12_2 O 0.85745(8) 0.71420(9) 0.37521(9)
C40_2 C 0.95726(12) 0.73663(13) 0.36785(12)
H37_2 H 0.963674 0.703814 0.350717
H38_2 H 0.951823 0.762776 0.341424
C41_2 C 0.91413(12) 0.68903(14) 0.45864(12)
C42_2 C 0.88495(14) 0.69269(18) 0.50305(14)
H39_2 H 0.860176 0.718641 0.506546
C43_2 C 0.89283(19) 0.6578(2) 0.54188(18)
H40_2 H 0.873059 0.659714 0.571969
C44_2 C 0.92895(18) 0.6207(2) 0.53700(18)
H41_2 H 0.934338 0.597412 0.564027
C45_2 C 0.95764(17) 0.61660(16) 0.49322(18)
H42_2 H 0.982308 0.590498 0.490111
C46_2 C 0.95024(14) 0.65076(14) 0.45392(15)
H43_2 H 0.969815 0.648067 0.423770
C47_2 C 0.89004(12) 0.79299(12) 0.43450(13)
C48_2 C 0.92053(13) 0.81131(15) 0.47394(14)
H44_2 H 0.946965 0.790844 0.487427
C49_2 C 0.91186(15) 0.85986(15) 0.49335(15)
H45_2 H 0.932031 0.872292 0.520515
C50_2 C 0.87402(16) 0.88972(15) 0.47305(16)
H46_2 H 0.868714 0.922956 0.485975
C51_2 C 0.84365(15) 0.87192(15) 0.43410(15)
H47_2 H 0.817612 0.892809 0.420499
C52_2 C 0.85136(14) 0.82330(14) 0.41487(14)
H48_2 H 0.830292 0.810807 0.388418
C55_2 C 0.99695(14) 0.88495(14) 0.30731(18)
H51_2 H 0.993454 0.860176 0.281359
C56_2 C 0.95812(18) 0.89283(19) 0.3422(2)
H52_2 H 0.928031 0.873059 0.340286
C57_2 C 0.96300(18) 0.92895(18) 0.3793(2)
H53_2 H 0.935973 0.934338 0.402588
H57_2 H 0.979485 0.932031 0.127708
Lu3_2 Lu 0.80951(2) 0.69049(2) 0.30951(2)
Lu1_3 Lu 0.69049(2) 0.69049(2) 0.69049(2)
P1_3 P 0.73156(3) 0.59250(3) 0.59906(3)
O1_3 O 0.71420(9) 0.62479(9) 0.64255(8)
O2_4 O 0.750000 0.60182(12) 0.500000
C1_3 C 0.73663(13) 0.63215(12) 0.54274(12)
H1_3 H 0.703814 0.649283 0.536326
H2_3 H 0.762776 0.658576 0.548177
C2_3 C 0.68903(14) 0.54136(12) 0.58587(12)
C3_3 C 0.69269(18) 0.49695(14) 0.61505(14)
H3_3 H 0.718641 0.493454 0.639824
C4_3 C 0.6578(2) 0.45812(18) 0.60717(19)
H4_3 H 0.659714 0.428031 0.626941
C5_3 C 0.6207(2) 0.46300(18) 0.57105(18)
H5_3 H 0.597412 0.435973 0.565662
C6_3 C 0.61660(16) 0.50678(18) 0.54236(17)
H6_3 H 0.590498 0.509889 0.517692
C7_3 C 0.65076(14) 0.54608(15) 0.54976(14)
H7_3 H 0.648067 0.576230 0.530185
C8_3 C 0.79299(12) 0.56550(13) 0.60996(12)
C9_3 C 0.81131(15) 0.52606(14) 0.57947(13)
H8_3 H 0.790844 0.512573 0.553035
C10_3 C 0.85986(15) 0.50665(15) 0.58814(15)
H9_3 H 0.872292 0.479485 0.567969
C11_3 C 0.88972(15) 0.52695(16) 0.62598(16)
H10_3 H 0.922956 0.514025 0.631286
C12_3 C 0.87192(15) 0.56590(15) 0.65635(15)
H11_3 H 0.892809 0.579501 0.682388
C13_3 C 0.82330(14) 0.58513(14) 0.64864(14)
H12_3 H 0.810807 0.611582 0.669708
O3_3 O 0.74763(10) 0.72565(10) 0.62556(10)
O4_3 O 0.77992(9) 0.70394(10) 0.69748(10)
O5_3 O 0.82955(11) 0.72789(14) 0.63623(14)
N1_3 N 0.78717(12) 0.71973(12) 0.65235(13)
P2_3 P 0.76844(3) 0.59250(3) 0.40094(3)
O6_3 O 0.78580(9) 0.62479(9) 0.35745(8)
C14_3 C 0.76337(13) 0.63215(12) 0.45726(12)
H13_3 H 0.796186 0.649283 0.463674
H14_3 H 0.737224 0.658576 0.451823
C15_3 C 0.81097(14) 0.54136(12) 0.41413(12)
C16_3 C 0.80731(18) 0.49695(14) 0.38495(14)
H15_3 H 0.781359 0.493454 0.360176
C17_3 C 0.8422(2) 0.45812(18) 0.39283(19)
H16_3 H 0.840286 0.428031 0.373059
C18_3 C 0.8793(2) 0.46300(18) 0.42895(18)
H17_3 H 0.902588 0.435973 0.434338
C19_3 C 0.88340(16) 0.50678(18) 0.45764(17)
H18_3 H 0.909502 0.509889 0.482308
C20_3 C 0.84924(14) 0.54608(15) 0.45024(14)
H19_3 H 0.851933 0.576230 0.469815
C21_3 C 0.70701(12) 0.56550(13) 0.39004(12)
C22_3 C 0.68869(15) 0.52606(14) 0.42053(13)
H20_3 H 0.709156 0.512573 0.446965
C23_3 C 0.64014(15) 0.50665(15) 0.41186(15)
H21_3 H 0.627708 0.479485 0.432031
C24_3 C 0.61028(15) 0.52695(16) 0.37402(16)
H22_3 H 0.577044 0.514025 0.368714
C25_3 C 0.62808(15) 0.56590(15) 0.34365(15)
H23_3 H 0.607191 0.579501 0.317612
C26_3 C 0.67670(14) 0.58513(14) 0.35136(14)
H24_3 H 0.689193 0.611582 0.330292
P3_3 P 0.59906(3) 0.73156(3) 0.59250(3)
O7_3 O 0.64255(8) 0.71420(9) 0.62479(9)
O8_4 O 0.500000 0.750000 0.60182(12)
C27_3 C 0.54274(12) 0.73663(13) 0.63215(12)
H25_3 H 0.536326 0.703814 0.649283
H26_3 H 0.548177 0.762776 0.658576
C28_3 C 0.58587(12) 0.68903(14) 0.54136(12)
C29_3 C 0.61505(14) 0.69269(18) 0.49695(14)
H27_3 H 0.639824 0.718641 0.493454
C30_3 C 0.60717(19) 0.6578(2) 0.45812(18)
H28_3 H 0.626941 0.659714 0.428031
C31_3 C 0.57105(18) 0.6207(2) 0.46300(18)
H29_3 H 0.565662 0.597412 0.435973
C32_3 C 0.54236(17) 0.61660(16) 0.50678(18)
H30_3 H 0.517692 0.590498 0.509889
C33_3 C 0.54976(14) 0.65076(14) 0.54608(15)
H31_3 H 0.530185 0.648067 0.576230
C34_3 C 0.60996(12) 0.79299(12) 0.56550(13)
C35_3 C 0.57947(13) 0.81131(15) 0.52606(14)
H32_3 H 0.553035 0.790844 0.512573
C36_3 C 0.58814(15) 0.85986(15) 0.50665(15)
H33_3 H 0.567969 0.872292 0.479485
C37_3 C 0.62598(16) 0.88972(15) 0.52695(16)
H34_3 H 0.631286 0.922956 0.514025
C38_3 C 0.65635(15) 0.87192(15) 0.56590(15)
H35_3 H 0.682388 0.892809 0.579501
C39_3 C 0.64864(14) 0.82330(14) 0.58513(14)
H36_3 H 0.669708 0.810807 0.611582
O9_3 O 0.62556(10) 0.74763(10) 0.72565(10)
O10_3 O 0.69748(10) 0.77992(9) 0.70394(10)
O11_3 O 0.63623(14) 0.82955(11) 0.72789(14)
N2_3 N 0.65235(13) 0.78717(12) 0.71973(12)
P4_3 P 0.40094(3) 0.76844(3) 0.59250(3)
C40_3 C 0.45726(12) 0.76337(13) 0.63215(12)
H37_3 H 0.463674 0.796186 0.649283
H38_3 H 0.451823 0.737224 0.658576
C41_3 C 0.41413(12) 0.81097(14) 0.54136(12)
C42_3 C 0.38495(14) 0.80731(18) 0.49695(14)
H39_3 H 0.360176 0.781359 0.493454
C43_3 C 0.39283(19) 0.8422(2) 0.45812(18)
H40_3 H 0.373059 0.840286 0.428031
C44_3 C 0.42895(18) 0.8793(2) 0.46300(18)
H41_3 H 0.434338 0.902588 0.435973
C45_3 C 0.45764(17) 0.88340(16) 0.50678(18)
H42_3 H 0.482308 0.909502 0.509889
C46_3 C 0.45024(14) 0.84924(14) 0.54608(15)
H43_3 H 0.469815 0.851933 0.576230
C47_3 C 0.39004(12) 0.70701(12) 0.56550(13)
C48_3 C 0.42053(13) 0.68869(15) 0.52606(14)
H44_3 H 0.446965 0.709156 0.512573
C49_3 C 0.41186(15) 0.64014(15) 0.50665(15)
H45_3 H 0.432031 0.627708 0.479485
C50_3 C 0.37402(16) 0.61028(15) 0.52695(16)
H46_3 H 0.368714 0.577044 0.514025
C51_3 C 0.34365(15) 0.62808(15) 0.56590(15)
H47_3 H 0.317612 0.607191 0.579501
C52_3 C 0.35136(14) 0.67670(14) 0.58513(14)
H48_3 H 0.330292 0.689193 0.611582
P5_3 P 0.59250(3) 0.59906(3) 0.73156(3)
O13_3 O 0.62479(9) 0.64255(8) 0.71420(9)
O14_5 O 0.60182(12) 0.500000 0.750000
C53_3 C 0.63215(12) 0.54274(12) 0.73663(13)
H49_3 H 0.649283 0.536326 0.703814
H50_3 H 0.658576 0.548177 0.762776
C54_3 C 0.54136(12) 0.58587(12) 0.68903(14)
C55_3 C 0.49695(14) 0.61505(14) 0.69269(18)
H51_3 H 0.493454 0.639824 0.718641
C56_3 C 0.45812(18) 0.60717(19) 0.6578(2)
H52_3 H 0.428031 0.626941 0.659714
C57_3 C 0.46300(18) 0.57105(18) 0.6207(2)
H53_3 H 0.435973 0.565662 0.597412
C58_3 C 0.50678(18) 0.54236(17) 0.61660(16)
H54_3 H 0.509889 0.517692 0.590498
C59_3 C 0.54608(15) 0.54976(14) 0.65076(14)
H55_3 H 0.576230 0.530185 0.648067
C60_3 C 0.56550(13) 0.60996(12) 0.79299(12)
C61_3 C 0.52606(14) 0.57947(13) 0.81131(15)
H56_3 H 0.512573 0.553035 0.790844
C62_3 C 0.50665(15) 0.58814(15) 0.85986(15)
H57_3 H 0.479485 0.567969 0.872292
C63_3 C 0.52695(16) 0.62598(16) 0.88972(15)
H58_3 H 0.514025 0.631286 0.922956
C64_3 C 0.56590(15) 0.65635(15) 0.87192(15)
H59_3 H 0.579501 0.682388 0.892809
C65_3 C 0.58513(14) 0.64864(14) 0.82330(14)
H60_3 H 0.611582 0.669708 0.810807
O15_3 O 0.72565(10) 0.62556(10) 0.74763(10)
O16_3 O 0.70394(10) 0.69748(10) 0.77992(9)
O17_3 O 0.72789(14) 0.63623(14) 0.82955(11)
N3_3 N 0.71973(12) 0.65235(13) 0.78717(12)
P6_3 P 0.59250(3) 0.40094(3) 0.76844(3)
O18_2 O 0.62479(9) 0.35745(8) 0.78580(9)
C66_3 C 0.63215(12) 0.45726(12) 0.76337(13)
H61_3 H 0.649283 0.463674 0.796186
H62_3 H 0.658576 0.451823 0.737224
C67_3 C 0.54136(12) 0.41413(12) 0.81097(14)
C68_3 C 0.49695(14) 0.38495(14) 0.80731(18)
H63_3 H 0.493454 0.360176 0.781359
C69_3 C 0.45812(18) 0.39283(19) 0.8422(2)
H64_3 H 0.428031 0.373059 0.840286
C70_3 C 0.46300(18) 0.42895(18) 0.8793(2)
H65_3 H 0.435973 0.434338 0.902588
C71_3 C 0.50678(18) 0.45764(17) 0.88340(16)
H66_3 H 0.509889 0.482308 0.909502
C72_3 C 0.54608(15) 0.45024(14) 0.84924(14)
H67_3 H 0.576230 0.469815 0.851933
C73_3 C 0.56550(13) 0.39004(12) 0.70701(12)
C74_3 C 0.52606(14) 0.42053(13) 0.68869(15)
H68_3 H 0.512573 0.446965 0.709156
C75_3 C 0.50665(15) 0.41186(15) 0.64014(15)
H69_3 H 0.479485 0.432031 0.627708
C76_3 C 0.52695(16) 0.37402(16) 0.61028(15)
H70_3 H 0.514025 0.368714 0.577044
C77_3 C 0.56590(15) 0.34365(15) 0.62808(15)
H71_3 H 0.579501 0.317612 0.607191
C78_3 C 0.58513(14) 0.35136(14) 0.67670(14)
H72_3 H 0.611582 0.330292 0.689193
O19_3 O 0.75237(10) 0.72565(10) 0.37444(10)
O20_3 O 0.72008(9) 0.70394(10) 0.30252(10)
O21_3 O 0.67045(11) 0.72789(14) 0.36377(14)
N4_3 N 0.71283(12) 0.71973(12) 0.34765(13)
O22_3 O 0.87444(10) 0.74763(10) 0.27435(10)
O23_3 O 0.80252(10) 0.77992(9) 0.29606(10)
O24_3 O 0.86377(14) 0.82955(11) 0.27211(14)
N5_3 N 0.84765(13) 0.78717(12) 0.28027(12)
O25_3 O 0.77435(10) 0.62556(10) 0.25237(10)
O26_3 O 0.79606(10) 0.69748(10) 0.22008(9)
O27_3 O 0.77211(14) 0.63623(14) 0.17045(11)
N6_3 N 0.78027(12) 0.65235(13) 0.21283(12)
O29_2 O 0.87521(9) 0.64255(8) 0.28580(9)
O8_5 O 0.000000 0.250000 0.10182(12)
P4_4 P 0.09906(3) 0.23156(3) 0.09250(3)
C40_4 C 0.04274(12) 0.23663(13) 0.13215(12)
H37_4 H 0.036326 0.203814 0.149283
H38_4 H 0.048177 0.262776 0.158576
C41_4 C 0.08587(12) 0.18903(14) 0.04136(12)
C45_4 C 0.04236(17) 0.11660(16) 0.00678(18)
H42_4 H 0.017692 0.090498 0.009889
C46_4 C 0.04976(14) 0.15076(14) 0.04608(15)
H43_4 H 0.030185 0.148067 0.076230
C47_4 C 0.10996(12) 0.29299(12) 0.06550(13)
C48_4 C 0.07947(13) 0.31131(15) 0.02606(14)
H44_4 H 0.053035 0.290844 0.012573
C49_4 C 0.08814(15) 0.35986(15) 0.00665(15)
C50_4 C 0.12598(16) 0.38972(15) 0.02695(16)
H46_4 H 0.131286 0.422956 0.014025
C51_4 C 0.15635(15) 0.37192(15) 0.06590(15)
H47_4 H 0.182388 0.392809 0.079501
C52_4 C 0.14864(14) 0.32330(14) 0.08513(14)
H48_4 H 0.169708 0.310807 0.111582
C55_4 C 0.00305(14) 0.38495(14) 0.19269(18)
H51_4 H 0.006546 0.360176 0.218641
C56_4 C 0.04188(18) 0.39283(19) 0.1578(2)
H52_4 H 0.071969 0.373059 0.159714
C57_4 C 0.03700(18) 0.42895(18) 0.1207(2)
H53_4 H 0.064027 0.434338 0.097412
H57_4 H 0.020515 0.432031 0.372292
C68_4 C 0.00305(14) 0.61505(14) 0.30731(18)
H63_4 H 0.006546 0.639824 0.281359
C69_4 C 0.04188(18) 0.60717(19) 0.3422(2)
H64_4 H 0.071969 0.626941 0.340286
C70_4 C 0.03700(18) 0.57105(18) 0.3793(2)
H65_4 H 0.064027 0.565662 0.402588
H69_4 H 0.020515 0.567969 0.127708
C42_4 C 0.11505(14) 0.19269(18) 0.99695(14)
H39_4 H 0.139824 0.218641 0.993454
C43_4 C 0.10717(19) 0.1578(2) 0.95812(18)
H40_4 H 0.126941 0.159714 0.928031
C44_4 C 0.07105(18) 0.1207(2) 0.96300(18)
H41_4 H 0.065662 0.097412 0.935973
H45_4 H 0.067969 0.372292 0.979485
Lu1_4 Lu 0.80951(2) 0.30951(2) 0.19049(2)
P1_4 P 0.76844(3) 0.40750(3) 0.09906(3)
O1_4 O 0.78580(9) 0.37521(9) 0.14255(8)
O2_5 O 0.750000 0.39818(12) -0.000000
C1_4 C 0.76337(13) 0.36785(12) 0.04274(12)
H1_4 H 0.796186 0.350717 0.036326
H2_4 H 0.737224 0.341424 0.048177
C2_4 C 0.81097(14) 0.45864(12) 0.08587(12)
C3_4 C 0.80731(18) 0.50305(14) 0.11505(14)
H3_4 H 0.781359 0.506546 0.139824
C4_4 C 0.8422(2) 0.54188(18) 0.10717(19)
H4_4 H 0.840286 0.571969 0.126941
C5_4 C 0.8793(2) 0.53700(18) 0.07105(18)
H5_4 H 0.902588 0.564027 0.065662
C6_4 C 0.88340(16) 0.49322(18) 0.04236(17)
H6_4 H 0.909502 0.490111 0.017692
C7_4 C 0.84924(14) 0.45392(15) 0.04976(14)
H7_4 H 0.851933 0.423770 0.030185
C8_4 C 0.70701(12) 0.43450(13) 0.10996(12)
C9_4 C 0.68869(15) 0.47394(14) 0.07947(13)
H8_4 H 0.709156 0.487427 0.053035
C10_4 C 0.64014(15) 0.49335(15) 0.08814(15)
H9_4 H 0.627708 0.520515 0.067969
C11_4 C 0.61028(15) 0.47305(16) 0.12598(16)
H10_4 H 0.577044 0.485975 0.131286
C12_4 C 0.62808(15) 0.43410(15) 0.15635(15)
H11_4 H 0.607191 0.420499 0.182388
C13_4 C 0.67670(14) 0.41487(14) 0.14864(14)
H12_4 H 0.689193 0.388418 0.169708
O3_4 O 0.75237(10) 0.27435(10) 0.12556(10)
O4_4 O 0.72008(9) 0.29606(10) 0.19748(10)
O5_4 O 0.67045(11) 0.27211(14) 0.13623(14)
N1_4 N 0.71283(12) 0.28027(12) 0.15235(13)
P3_4 P 0.90094(3) 0.26844(3) 0.09250(3)
O7_4 O 0.85745(8) 0.28580(9) 0.12479(9)
O8_6 O 1.000000 0.250000 0.10182(12)
C27_4 C 0.95726(12) 0.26337(13) 0.13215(12)
H25_4 H 0.963674 0.296186 0.149283
H26_4 H 0.951823 0.237224 0.158576
C28_4 C 0.91413(12) 0.31097(14) 0.04136(12)
C32_4 C 0.95764(17) 0.38340(16) 0.00678(18)
H30_4 H 0.982308 0.409502 0.009889
C33_4 C 0.95024(14) 0.34924(14) 0.04608(15)
H31_4 H 0.969815 0.351933 0.076230
C34_4 C 0.89004(12) 0.20701(12) 0.06550(13)
C35_4 C 0.92053(13) 0.18869(15) 0.02606(14)
H32_4 H 0.946965 0.209156 0.012573
C36_4 C 0.91186(15) 0.14014(15) 0.00665(15)
C37_4 C 0.87402(16) 0.11028(15) 0.02695(16)
H34_4 H 0.868714 0.077044 0.014025
C38_4 C 0.84365(15) 0.12808(15) 0.06590(15)
H35_4 H 0.817612 0.107191 0.079501
C39_4 C 0.85136(14) 0.17670(14) 0.08513(14)
H36_4 H 0.830292 0.189193 0.111582
O9_4 O 0.87444(10) 0.25237(10) 0.22565(10)
O10_4 O 0.80252(10) 0.22008(9) 0.20394(10)
O11_4 O 0.86377(14) 0.17045(11) 0.22789(14)
N2_4 N 0.84765(13) 0.21283(12) 0.21973(12)
P5_4 P 0.90750(3) 0.40094(3) 0.23156(3)
O13_4 O 0.87521(9) 0.35745(8) 0.21420(9)
O14_6 O 0.89818(12) 0.500000 0.250000
C53_4 C 0.86785(12) 0.45726(12) 0.23663(13)
H49_4 H 0.850717 0.463674 0.203814
H50_4 H 0.841424 0.451823 0.262776
C54_4 C 0.95864(12) 0.41413(12) 0.18903(14)
C58_4 C 0.99322(18) 0.45764(17) 0.11660(16)
H54_4 H 0.990111 0.482308 0.090498
C59_4 C 0.95392(15) 0.45024(14) 0.15076(14)
H55_4 H 0.923770 0.469815 0.148067
C60_4 C 0.93450(13) 0.39004(12) 0.29299(12)
C61_4 C 0.97394(14) 0.42053(13) 0.31131(15)
H56_4 H 0.987427 0.446965 0.290844
C62_4 C 0.99335(15) 0.41186(15) 0.35986(15)
C63_4 C 0.97305(16) 0.37402(16) 0.38972(15)
H58_4 H 0.985975 0.368714 0.422956
C64_4 C 0.93410(15) 0.34365(15) 0.37192(15)
H59_4 H 0.920499 0.317612 0.392809
C65_4 C 0.91487(14) 0.35136(14) 0.32330(14)
H60_4 H 0.888418 0.330292 0.310807
O15_4 O 0.77435(10) 0.37444(10) 0.24763(10)
O16_4 O 0.79606(10) 0.30252(10) 0.27992(9)
O17_4 O 0.77211(14) 0.36377(14) 0.32955(11)
N3_4 N 0.78027(12) 0.34765(13) 0.28717(12)
P6_4 P 0.90750(3) 0.59906(3) 0.26844(3)
C66_4 C 0.86785(12) 0.54274(12) 0.26337(13)
H61_4 H 0.850717 0.536326 0.296186
H62_4 H 0.841424 0.548177 0.237224
C67_4 C 0.95864(12) 0.58587(12) 0.31097(14)
C71_4 C 0.99322(18) 0.54236(17) 0.38340(16)
H66_4 H 0.990111 0.517692 0.409502
C72_4 C 0.95392(15) 0.54976(14) 0.34924(14)
H67_4 H 0.923770 0.530185 0.351933
C73_4 C 0.93450(13) 0.60996(12) 0.20701(12)
C74_4 C 0.97394(14) 0.57947(13) 0.18869(15)
H68_4 H 0.987427 0.553035 0.209156
C75_4 C 0.99335(15) 0.58814(15) 0.14014(15)
C76_4 C 0.97305(16) 0.62598(16) 0.11028(15)
H70_4 H 0.985975 0.631286 0.077044
C77_4 C 0.93410(15) 0.65635(15) 0.12808(15)
H71_4 H 0.920499 0.682388 0.107191
C78_4 C 0.91487(14) 0.64864(14) 0.17670(14)
H72_4 H 0.888418 0.669708 0.189193
O2_6 O 0.750000 0.39818(12) 1.000000
P2_4 P 0.73156(3) 0.40750(3) 0.90094(3)
O6_4 O 0.71420(9) 0.37521(9) 0.85745(8)
C14_4 C 0.73663(13) 0.36785(12) 0.95726(12)
H13_4 H 0.703814 0.350717 0.963674
H14_4 H 0.762776 0.341424 0.951823
C15_4 C 0.68903(14) 0.45864(12) 0.91413(12)
C16_4 C 0.69269(18) 0.50305(14) 0.88495(14)
H15_4 H 0.718641 0.506546 0.860176
C17_4 C 0.6578(2) 0.54188(18) 0.89283(19)
H16_4 H 0.659714 0.571969 0.873059
C18_4 C 0.6207(2) 0.53700(18) 0.92895(18)
H17_4 H 0.597412 0.564027 0.934338
C19_4 C 0.61660(16) 0.49322(18) 0.95764(17)
H18_4 H 0.590498 0.490111 0.982308
C20_4 C 0.65076(14) 0.45392(15) 0.95024(14)
H19_4 H 0.648067 0.423770 0.969815
C21_4 C 0.79299(12) 0.43450(13) 0.89004(12)
C22_4 C 0.81131(15) 0.47394(14) 0.92053(13)
H20_4 H 0.790844 0.487427 0.946965
C23_4 C 0.85986(15) 0.49335(15) 0.91186(15)
H21_4 H 0.872292 0.520515 0.932031
C24_4 C 0.88972(15) 0.47305(16) 0.87402(16)
H22_4 H 0.922956 0.485975 0.868714
C25_4 C 0.87192(15) 0.43410(15) 0.84365(15)
H23_4 H 0.892809 0.420499 0.817612
C26_4 C 0.82330(14) 0.41487(14) 0.85136(14)
H24_4 H 0.810807 0.388418 0.830292
C29_4 C 0.88495(14) 0.30731(18) 0.99695(14)
H27_4 H 0.860176 0.281359 0.993454
C30_4 C 0.89283(19) 0.3422(2) 0.95812(18)
H28_4 H 0.873059 0.340286 0.928031
C31_4 C 0.92895(18) 0.3793(2) 0.96300(18)
H29_4 H 0.934338 0.402588 0.935973
H33_4 H 0.932031 0.127708 0.979485
O19_4 O 0.74763(10) 0.27435(10) 0.87444(10)
O20_4 O 0.77992(9) 0.29606(10) 0.80252(10)
O21_4 O 0.82955(11) 0.27211(14) 0.86377(14)
N4_4 N 0.78717(12) 0.28027(12) 0.84765(13)
O22_4 O 0.62556(10) 0.25237(10) 0.77435(10)
O23_4 O 0.69748(10) 0.22008(9) 0.79606(10)
O24_4 O 0.63623(14) 0.17045(11) 0.77211(14)
N5_4 N 0.65235(13) 0.21283(12) 0.78027(12)
O25_4 O 0.72565(10) 0.37444(10) 0.75237(10)
O26_4 O 0.70394(10) 0.30252(10) 0.72008(9)
O27_4 O 0.72789(14) 0.36377(14) 0.67045(11)
N6_4 N 0.71973(12) 0.34765(13) 0.71283(12)
Lu1_5 Lu 0.44049(2) 0.55951(2) 0.05951(2)
P1_5 P 0.34250(3) 0.51844(3) 0.15094(3)
O1_5 O 0.37479(9) 0.53580(9) 0.10745(8)
O2_7 O 0.35182(12) 0.500000 0.250000
C1_5 C 0.38215(12) 0.51337(13) 0.20726(12)
H1_5 H 0.399283 0.546186 0.213674
H2_5 H 0.408576 0.487224 0.201823
C2_5 C 0.29136(12) 0.56097(14) 0.16413(12)
C3_5 C 0.24695(14) 0.55731(18) 0.13495(14)
H3_5 H 0.243454 0.531359 0.110176
C4_5 C 0.20812(18) 0.5922(2) 0.14283(19)
H4_5 H 0.178031 0.590286 0.123059
C5_5 C 0.21300(18) 0.6293(2) 0.17895(18)
H5_5 H 0.185973 0.652588 0.184338
C6_5 C 0.25678(18) 0.63340(16) 0.20764(17)
H6_5 H 0.259889 0.659502 0.232308
C7_5 C 0.29608(15) 0.59924(14) 0.20024(14)
H7_5 H 0.326230 0.601933 0.219815
C8_5 C 0.31550(13) 0.45701(12) 0.14004(12)
C9_5 C 0.27606(14) 0.43869(15) 0.17053(13)
H8_5 H 0.262573 0.459156 0.196965
C10_5 C 0.25665(15) 0.39014(15) 0.16186(15)
H9_5 H 0.229485 0.377708 0.182031
C11_5 C 0.27695(16) 0.36028(15) 0.12402(16)
H10_5 H 0.264025 0.327044 0.118714
C12_5 C 0.31590(15) 0.37808(15) 0.09365(15)
H11_5 H 0.329501 0.357191 0.067612
C13_5 C 0.33513(14) 0.42670(14) 0.10136(14)
H12_5 H 0.361582 0.439193 0.080292
O3_5 O 0.47565(10) 0.50237(10) 0.12444(10)
O4_5 O 0.45394(10) 0.47008(9) 0.05252(10)
O5_5 O 0.47789(14) 0.42045(11) 0.11377(14)
N1_5 N 0.46973(12) 0.46283(12) 0.09765(13)
P2_5 P 0.34250(3) 0.48156(3) 0.34906(3)
O6_5 O 0.37479(9) 0.46420(9) 0.39255(8)
C14_5 C 0.38215(12) 0.48663(13) 0.29274(12)
H13_5 H 0.399283 0.453814 0.286326
H14_5 H 0.408576 0.512776 0.298177
C15_5 C 0.29136(12) 0.43903(14) 0.33587(12)
C16_5 C 0.24695(14) 0.44269(18) 0.36505(14)
H15_5 H 0.243454 0.468641 0.389824
C17_5 C 0.20812(18) 0.4078(2) 0.35717(19)
H16_5 H 0.178031 0.409714 0.376941
C18_5 C 0.21300(18) 0.3707(2) 0.32105(18)
H17_5 H 0.185973 0.347412 0.315662
C19_5 C 0.25678(18) 0.36660(16) 0.29236(17)
H18_5 H 0.259889 0.340498 0.267692
C20_5 C 0.29608(15) 0.40076(14) 0.29976(14)
H19_5 H 0.326230 0.398067 0.280185
C21_5 C 0.31550(13) 0.54299(12) 0.35996(12)
C22_5 C 0.27606(14) 0.56131(15) 0.32947(13)
H20_5 H 0.262573 0.540844 0.303035
C23_5 C 0.25665(15) 0.60986(15) 0.33814(15)
H21_5 H 0.229485 0.622292 0.317969
C24_5 C 0.27695(16) 0.63972(15) 0.37598(16)
H22_5 H 0.264025 0.672956 0.381286
C25_5 C 0.31590(15) 0.62192(15) 0.40635(15)
H23_5 H 0.329501 0.642809 0.432388
C26_5 C 0.33513(14) 0.57330(14) 0.39864(14)
H24_5 H 0.361582 0.560807 0.419708
P3_5 P 0.48156(3) 0.65094(3) 0.15750(3)
O7_5 O 0.46420(9) 0.60745(8) 0.12521(9)
O8_7 O 0.500000 0.750000 0.14818(12)
C27_5 C 0.48663(13) 0.70726(12) 0.11785(12)
H25_5 H 0.453814 0.713674 0.100717
H26_5 H 0.512776 0.701823 0.091424
C28_5 C 0.43903(14) 0.66413(12) 0.20864(12)
C29_5 C 0.44269(18) 0.63495(14) 0.25305(14)
H27_5 H 0.468641 0.610176 0.256546
C30_5 C 0.4078(2) 0.64283(19) 0.29188(18)
H28_5 H 0.409714 0.623059 0.321969
C31_5 C 0.3707(2) 0.67895(18) 0.28700(18)
H29_5 H 0.347412 0.684338 0.314027
C32_5 C 0.36660(16) 0.70764(17) 0.24322(18)
H30_5 H 0.340498 0.732308 0.240111
C33_5 C 0.40076(14) 0.70024(14) 0.20392(15)
H31_5 H 0.398067 0.719815 0.173770
C34_5 C 0.54299(12) 0.64004(12) 0.18450(13)
C35_5 C 0.56131(15) 0.67053(13) 0.22394(14)
H32_5 H 0.540844 0.696965 0.237427
C36_5 C 0.60986(15) 0.66186(15) 0.24335(15)
H33_5 H 0.622292 0.682031 0.270515
C37_5 C 0.63972(15) 0.62402(16) 0.22305(16)
H34_5 H 0.672956 0.618714 0.235975
C38_5 C 0.62192(15) 0.59365(15) 0.18410(15)
H35_5 H 0.642809 0.567612 0.170499
C39_5 C 0.57330(14) 0.60136(14) 0.16487(14)
H36_5 H 0.560807 0.580292 0.138418
O9_5 O 0.49763(10) 0.62444(10) 0.02435(10)
O10_5 O 0.52992(9) 0.55252(10) 0.04606(10)
O11_5 O 0.57955(11) 0.61377(14) 0.02211(14)
N2_5 N 0.53717(12) 0.59765(13) 0.03027(12)
P4_5 P 0.51844(3) 0.84906(3) 0.15750(3)
O12_3 O 0.53580(9) 0.89255(8) 0.12521(9)
C40_5 C 0.51337(13) 0.79274(12) 0.11785(12)
H37_5 H 0.546186 0.786326 0.100717
H38_5 H 0.487224 0.798177 0.091424
C41_5 C 0.56097(14) 0.83587(12) 0.20864(12)
C42_5 C 0.55731(18) 0.86505(14) 0.25305(14)
H39_5 H 0.531359 0.889824 0.256546
C43_5 C 0.5922(2) 0.85717(19) 0.29188(18)
H40_5 H 0.590286 0.876941 0.321969
C44_5 C 0.6293(2) 0.82105(18) 0.28700(18)
H41_5 H 0.652588 0.815662 0.314027
C45_5 C 0.63340(16) 0.79236(17) 0.24322(18)
H42_5 H 0.659502 0.767692 0.240111
C46_5 C 0.59924(14) 0.79976(14) 0.20392(15)
H43_5 H 0.601933 0.780185 0.173770
C47_5 C 0.45701(12) 0.85996(12) 0.18450(13)
C48_5 C 0.43869(15) 0.82947(13) 0.22394(14)
H44_5 H 0.459156 0.803035 0.237427
C49_5 C 0.39014(15) 0.83814(15) 0.24335(15)
H45_5 H 0.377708 0.817969 0.270515
C50_5 C 0.36028(15) 0.87598(16) 0.22305(16)
H46_5 H 0.327044 0.881286 0.235975
C51_5 C 0.37808(15) 0.90635(15) 0.18410(15)
H47_5 H 0.357191 0.932388 0.170499
C52_5 C 0.42670(14) 0.89864(14) 0.16487(14)
H48_5 H 0.439193 0.919708 0.138418
P5_5 P 0.34906(3) 0.65750(3) 0.01844(3)
O13_5 O 0.39255(8) 0.62521(9) 0.03580(9)
O14_7 O 0.250000 0.64818(12) 0.000000
C53_5 C 0.29274(12) 0.61785(12) 0.01337(13)
H49_5 H 0.286326 0.600717 0.046186
C54_5 C 0.33587(12) 0.70864(12) 0.06097(14)
C55_5 C 0.36505(14) 0.75305(14) 0.05731(18)
H51_5 H 0.389824 0.756546 0.031359
C56_5 C 0.35717(19) 0.79188(18) 0.0922(2)
H52_5 H 0.376941 0.821969 0.090286
C57_5 C 0.32105(18) 0.78700(18) 0.1293(2)
H53_5 H 0.315662 0.814027 0.152588
C58_5 C 0.29236(17) 0.74322(18) 0.13340(16)
H54_5 H 0.267692 0.740111 0.159502
C59_5 C 0.29976(14) 0.70392(15) 0.09924(14)
H55_5 H 0.280185 0.673770 0.101933
O15_5 O 0.37556(10) 0.52435(10) 0.00237(10)
H62_5 H 0.201823 0.591424 0.012776
C73_5 C 0.14004(12) 0.68450(13) 0.04299(12)
C74_5 C 0.17053(13) 0.72394(14) 0.06131(15)
H68_5 H 0.196965 0.737427 0.040844
C75_5 C 0.16186(15) 0.74335(15) 0.10986(15)
H69_5 H 0.182031 0.770515 0.122292
C76_5 C 0.12402(16) 0.72305(16) 0.13972(15)
H70_5 H 0.118714 0.735975 0.172956
C77_5 C 0.09365(15) 0.68410(15) 0.12192(15)
H71_5 H 0.067612 0.670499 0.142809
C78_5 C 0.10136(14) 0.66487(14) 0.07330(14)
H72_5 H 0.080292 0.638418 0.060807
Lu2_2 Lu 0.44049(2) 0.44049(2) 0.44049(2)
O19_5 O 0.47565(10) 0.49763(10) 0.37556(10)
O20_5 O 0.45394(10) 0.52992(9) 0.44748(10)
O21_5 O 0.47789(14) 0.57955(11) 0.38623(14)
N4_5 N 0.46973(12) 0.53717(12) 0.40235(13)
O22_5 O 0.49763(10) 0.37556(10) 0.47565(10)
O23_5 O 0.52992(9) 0.44748(10) 0.45394(10)
O24_5 O 0.57955(11) 0.38623(14) 0.47789(14)
N5_5 N 0.53717(12) 0.40235(13) 0.46973(12)
O25_5 O 0.37556(10) 0.47565(10) 0.49763(10)
O26_5 O 0.44748(10) 0.45394(10) 0.52992(9)
O27_5 O 0.38623(14) 0.47789(14) 0.57955(11)
N6_5 N 0.40235(13) 0.46973(12) 0.53717(12)
Lu3_3 Lu 0.55951(2) 0.94049(2) 0.05951(2)
O28_3 O 0.46420(9) 0.39255(8) 0.37479(9)
O29_3 O 0.39255(8) 0.37479(9) 0.46420(9)
O14_8 O 0.250000 0.64818(12) 1.000000
H50_5 H 0.298177 0.591424 0.987224
C60_5 C 0.35996(12) 0.68450(13) 0.95701(12)
C61_5 C 0.32947(13) 0.72394(14) 0.93869(15)
H56_5 H 0.303035 0.737427 0.959156
C62_5 C 0.33814(15) 0.74335(15) 0.89014(15)
H57_5 H 0.317969 0.770515 0.877708
C63_5 C 0.37598(16) 0.72305(16) 0.86028(15)
H58_5 H 0.381286 0.735975 0.827044
C64_5 C 0.40635(15) 0.68410(15) 0.87808(15)
H59_5 H 0.432388 0.670499 0.857191
C65_5 C 0.39864(14) 0.66487(14) 0.92670(14)
H60_5 H 0.419708 0.638418 0.939193
O16_5 O 0.44748(10) 0.54606(10) 0.97008(9)
O17_5 O 0.38623(14) 0.52211(14) 0.92045(11)
N3_5 N 0.40235(13) 0.53027(12) 0.96283(12)
P6_5 P 0.15094(3) 0.65750(3) 0.98156(3)
O18_3 O 0.10745(8) 0.62521(9) 0.96420(9)
C66_5 C 0.20726(12) 0.61785(12) 0.98663(13)
H61_5 H 0.213674 0.600717 0.953814
C67_5 C 0.16413(12) 0.70864(12) 0.93903(14)
C68_5 C 0.13495(14) 0.75305(14) 0.94269(18)
H63_5 H 0.110176 0.756546 0.968641
C69_5 C 0.14283(19) 0.79188(18) 0.9078(2)
H64_5 H 0.123059 0.821969 0.909714
C70_5 C 0.17895(18) 0.78700(18) 0.8707(2)
H65_5 H 0.184338 0.814027 0.847412
C71_5 C 0.20764(17) 0.74322(18) 0.86660(16)
H66_5 H 0.232308 0.740111 0.840498
C72_5 C 0.20024(14) 0.70392(15) 0.90076(14)
H67_5 H 0.219815 0.673770 0.898067
Lu4_2 Lu 0.05951(2) 0.55951(2) 0.94049(2)
O26_6 O 0.05252(10) 0.54606(10) 0.02992(9)
O27_6 O 0.11377(14) 0.52211(14) 0.07955(11)
N6_6 N 0.09765(13) 0.53027(12) 0.03717(12)
Lu1_6 Lu 0.05951(2) 0.44049(2) 0.55951(2)
P1_6 P 0.15750(3) 0.48156(3) 0.65094(3)
O1_6 O 0.12521(9) 0.46420(9) 0.60745(8)
O2_8 O 0.14818(12) 0.500000 0.750000
C1_6 C 0.11785(12) 0.48663(13) 0.70726(12)
H1_6 H 0.100717 0.453814 0.713674
H2_6 H 0.091424 0.512776 0.701823
C2_6 C 0.20864(12) 0.43903(14) 0.66413(12)
C3_6 C 0.25305(14) 0.44269(18) 0.63495(14)
H3_6 H 0.256546 0.468641 0.610176
C4_6 C 0.29188(18) 0.4078(2) 0.64283(19)
H4_6 H 0.321969 0.409714 0.623059
C5_6 C 0.28700(18) 0.3707(2) 0.67895(18)
H5_6 H 0.314027 0.347412 0.684338
C6_6 C 0.24322(18) 0.36660(16) 0.70764(17)
H6_6 H 0.240111 0.340498 0.732308
C7_6 C 0.20392(15) 0.40076(14) 0.70024(14)
H7_6 H 0.173770 0.398067 0.719815
C8_6 C 0.18450(13) 0.54299(12) 0.64004(12)
C9_6 C 0.22394(14) 0.56131(15) 0.67053(13)
H8_6 H 0.237427 0.540844 0.696965
C10_6 C 0.24335(15) 0.60986(15) 0.66186(15)
H9_6 H 0.270515 0.622292 0.682031
C11_6 C 0.22305(16) 0.63972(15) 0.62402(16)
H10_6 H 0.235975 0.672956 0.618714
C12_6 C 0.18410(15) 0.62192(15) 0.59365(15)
H11_6 H 0.170499 0.642809 0.567612
C13_6 C 0.16487(14) 0.57330(14) 0.60136(14)
H12_6 H 0.138418 0.560807 0.580292
O3_6 O 0.02435(10) 0.49763(10) 0.62444(10)
O4_6 O 0.04606(10) 0.52992(9) 0.55252(10)
O5_6 O 0.02211(14) 0.57955(11) 0.61377(14)
N1_6 N 0.03027(12) 0.53717(12) 0.59765(13)
P2_6 P 0.15750(3) 0.51844(3) 0.84906(3)
O6_6 O 0.12521(9) 0.53580(9) 0.89255(8)
C14_6 C 0.11785(12) 0.51337(13) 0.79274(12)
H13_6 H 0.100717 0.546186 0.786326
H14_6 H 0.091424 0.487224 0.798177
C15_6 C 0.20864(12) 0.56097(14) 0.83587(12)
C16_6 C 0.25305(14) 0.55731(18) 0.86505(14)
H15_6 H 0.256546 0.531359 0.889824
C17_6 C 0.29188(18) 0.5922(2) 0.85717(19)
H16_6 H 0.321969 0.590286 0.876941
C18_6 C 0.28700(18) 0.6293(2) 0.82105(18)
H17_6 H 0.314027 0.652588 0.815662
C19_6 C 0.24322(18) 0.63340(16) 0.79236(17)
H18_6 H 0.240111 0.659502 0.767692
C20_6 C 0.20392(15) 0.59924(14) 0.79976(14)
H19_6 H 0.173770 0.601933 0.780185
C21_6 C 0.18450(13) 0.45701(12) 0.85996(12)
C22_6 C 0.22394(14) 0.43869(15) 0.82947(13)
H20_6 H 0.237427 0.459156 0.803035
C23_6 C 0.24335(15) 0.39014(15) 0.83814(15)
H21_6 H 0.270515 0.377708 0.817969
C24_6 C 0.22305(16) 0.36028(15) 0.87598(16)
H22_6 H 0.235975 0.327044 0.881286
C25_6 C 0.18410(15) 0.37808(15) 0.90635(15)
H23_6 H 0.170499 0.357191 0.932388
C26_6 C 0.16487(14) 0.42670(14) 0.89864(14)
H24_6 H 0.138418 0.439193 0.919708
P3_6 P 0.01844(3) 0.34906(3) 0.65750(3)
O7_6 O 0.03580(9) 0.39255(8) 0.62521(9)
O8_8 O -0.000000 0.250000 0.64818(12)
C27_6 C 0.01337(13) 0.29274(12) 0.61785(12)
H25_6 H 0.046186 0.286326 0.600717
C28_6 C 0.06097(14) 0.33587(12) 0.70864(12)
C29_6 C 0.05731(18) 0.36505(14) 0.75305(14)
H27_6 H 0.031359 0.389824 0.756546
C30_6 C 0.0922(2) 0.35717(19) 0.79188(18)
H28_6 H 0.090286 0.376941 0.821969
C31_6 C 0.1293(2) 0.32105(18) 0.78700(18)
H29_6 H 0.152588 0.315662 0.814027
C32_6 C 0.13340(16) 0.29236(17) 0.74322(18)
H30_6 H 0.159502 0.267692 0.740111
C33_6 C 0.09924(14) 0.29976(14) 0.70392(15)
H31_6 H 0.101933 0.280185 0.673770
O9_6 O 0.00237(10) 0.37556(10) 0.52435(10)
H38_6 H 0.012776 0.201823 0.591424
C47_6 C 0.04299(12) 0.14004(12) 0.68450(13)
C48_6 C 0.06131(15) 0.17053(13) 0.72394(14)
H44_6 H 0.040844 0.196965 0.737427
C49_6 C 0.10986(15) 0.16186(15) 0.74335(15)
H45_6 H 0.122292 0.182031 0.770515
C50_6 C 0.13972(15) 0.12402(16) 0.72305(16)
H46_6 H 0.172956 0.118714 0.735975
C51_6 C 0.12192(15) 0.09365(15) 0.68410(15)
H47_6 H 0.142809 0.067612 0.670499
C52_6 C 0.07330(14) 0.10136(14) 0.66487(14)
H48_6 H 0.060807 0.080292 0.638418
P5_6 P 0.15094(3) 0.34250(3) 0.51844(3)
O13_6 O 0.10745(8) 0.37479(9) 0.53580(9)
O14_9 O 0.250000 0.35182(12) 0.500000
C53_6 C 0.20726(12) 0.38215(12) 0.51337(13)
H49_6 H 0.213674 0.399283 0.546186
H50_6 H 0.201823 0.408576 0.487224
C54_6 C 0.16413(12) 0.29136(12) 0.56097(14)
C55_6 C 0.13495(14) 0.24695(14) 0.55731(18)
H51_6 H 0.110176 0.243454 0.531359
C56_6 C 0.14283(19) 0.20812(18) 0.5922(2)
H52_6 H 0.123059 0.178031 0.590286
C57_6 C 0.17895(18) 0.21300(18) 0.6293(2)
H53_6 H 0.184338 0.185973 0.652588
C58_6 C 0.20764(17) 0.25678(18) 0.63340(16)
H54_6 H 0.232308 0.259889 0.659502
C59_6 C 0.20024(14) 0.29608(15) 0.59924(14)
H55_6 H 0.219815 0.326230 0.601933
C60_6 C 0.14004(12) 0.31550(13) 0.45701(12)
C61_6 C 0.17053(13) 0.27606(14) 0.43869(15)
H56_6 H 0.196965 0.262573 0.459156
C62_6 C 0.16186(15) 0.25665(15) 0.39014(15)
H57_6 H 0.182031 0.229485 0.377708
C63_6 C 0.12402(16) 0.27695(16) 0.36028(15)
H58_6 H 0.118714 0.264025 0.327044
C64_6 C 0.09365(15) 0.31590(15) 0.37808(15)
H59_6 H 0.067612 0.329501 0.357191
C65_6 C 0.10136(14) 0.33513(14) 0.42670(14)
H60_6 H 0.080292 0.361582 0.439193
O15_6 O 0.12444(10) 0.47565(10) 0.50237(10)
O16_6 O 0.05252(10) 0.45394(10) 0.47008(9)
O17_6 O 0.11377(14) 0.47789(14) 0.42045(11)
N3_6 N 0.09765(13) 0.46973(12) 0.46283(12)
P6_6 P 0.34906(3) 0.34250(3) 0.48156(3)
C66_6 C 0.29274(12) 0.38215(12) 0.48663(13)
H61_6 H 0.286326 0.399283 0.453814
H62_6 H 0.298177 0.408576 0.512776
C67_6 C 0.33587(12) 0.29136(12) 0.43903(14)
C68_6 C 0.36505(14) 0.24695(14) 0.44269(18)
H63_6 H 0.389824 0.243454 0.468641
C69_6 C 0.35717(19) 0.20812(18) 0.4078(2)
H64_6 H 0.376941 0.178031 0.409714
C70_6 C 0.32105(18) 0.21300(18) 0.3707(2)
H65_6 H 0.315662 0.185973 0.347412
C71_6 C 0.29236(17) 0.25678(18) 0.36660(16)
H66_6 H 0.267692 0.259889 0.340498
C72_6 C 0.29976(14) 0.29608(15) 0.40076(14)
H67_6 H 0.280185 0.326230 0.398067
C73_6 C 0.35996(12) 0.31550(13) 0.54299(12)
C74_6 C 0.32947(13) 0.27606(14) 0.56131(15)
H68_6 H 0.303035 0.262573 0.540844
C75_6 C 0.33814(15) 0.25665(15) 0.60986(15)
H69_6 H 0.317969 0.229485 0.622292
C76_6 C 0.37598(16) 0.27695(16) 0.63972(15)
H70_6 H 0.381286 0.264025 0.672956
C77_6 C 0.40635(15) 0.31590(15) 0.62192(15)
H71_6 H 0.432388 0.329501 0.642809
C78_6 C 0.39864(14) 0.33513(14) 0.57330(14)
H72_6 H 0.419708 0.361582 0.560807
O19_6 O 0.02435(10) 0.50237(10) 0.87556(10)
O20_6 O 0.04606(10) 0.47008(9) 0.94748(10)
O21_6 O 0.02211(14) 0.42045(11) 0.88623(14)
N4_6 N 0.03027(12) 0.46283(12) 0.90235(13)
O22_6 O 0.00237(10) 0.62444(10) 0.97565(10)
O25_6 O 0.12444(10) 0.52435(10) 0.99763(10)
O28_4 O 0.03580(9) 0.60745(8) 0.87479(9)
O8_9 O 1.000000 0.250000 0.64818(12)
H26_6 H 0.987224 0.298177 0.591424
C34_6 C 0.95701(12) 0.35996(12) 0.68450(13)
C35_6 C 0.93869(15) 0.32947(13) 0.72394(14)
H32_6 H 0.959156 0.303035 0.737427
C36_6 C 0.89014(15) 0.33814(15) 0.74335(15)
H33_6 H 0.877708 0.317969 0.770515
C37_6 C 0.86028(15) 0.37598(16) 0.72305(16)
H34_6 H 0.827044 0.381286 0.735975
C38_6 C 0.87808(15) 0.40635(15) 0.68410(15)
H35_6 H 0.857191 0.432388 0.670499
C39_6 C 0.92670(14) 0.39864(14) 0.66487(14)
H36_6 H 0.939193 0.419708 0.638418
O10_6 O 0.97008(9) 0.44748(10) 0.54606(10)
O11_6 O 0.92045(11) 0.38623(14) 0.52211(14)
N2_6 N 0.96283(12) 0.40235(13) 0.53027(12)
P4_6 P 0.98156(3) 0.15094(3) 0.65750(3)
O12_4 O 0.96420(9) 0.10745(8) 0.62521(9)
C40_6 C 0.98663(13) 0.20726(12) 0.61785(12)
H37_6 H 0.953814 0.213674 0.600717
C41_6 C 0.93903(14) 0.16413(12) 0.70864(12)
C42_6 C 0.94269(18) 0.13495(14) 0.75305(14)
H39_6 H 0.968641 0.110176 0.756546
C43_6 C 0.9078(2) 0.14283(19) 0.79188(18)
H40_6 H 0.909714 0.123059 0.821969
C44_6 C 0.8707(2) 0.17895(18) 0.78700(18)
H41_6 H 0.847412 0.184338 0.814027
C45_6 C 0.86660(16) 0.20764(17) 0.74322(18)
H42_6 H 0.840498 0.232308 0.740111
C46_6 C 0.90076(14) 0.20024(14) 0.70392(15)
H43_6 H 0.898067 0.219815 0.673770
O23_6 O 0.97008(9) 0.55252(10) 0.95394(10)
O24_6 O 0.92045(11) 0.61377(14) 0.97789(14)
N5_6 N 0.96283(12) 0.59765(13) 0.96973(12)
Lu3_4 Lu 0.94049(2) 0.05951(2) 0.55951(2)
O23_7 O 0.02992(9) 0.05252(10) 0.54606(10)
O24_7 O 0.07955(11) 0.11377(14) 0.52211(14)
N5_7 N 0.03717(12) 0.09765(13) 0.53027(12)
O8_10 O 0.000000 0.750000 0.85182(12)
H26_7 H 0.012776 0.798177 0.908576
C34_7 C 0.04299(12) 0.85996(12) 0.81550(13)
C35_7 C 0.06131(15) 0.82947(13) 0.77606(14)
H32_7 H 0.040844 0.803035 0.762573
C36_7 C 0.10986(15) 0.83814(15) 0.75665(15)
H33_7 H 0.122292 0.817969 0.729485
C37_7 C 0.13972(15) 0.87598(16) 0.77695(16)
H34_7 H 0.172956 0.881286 0.764025
C38_7 C 0.12192(15) 0.90635(15) 0.81590(15)
H35_7 H 0.142809 0.932388 0.829501
C39_7 C 0.07330(14) 0.89864(14) 0.83513(14)
H36_7 H 0.060807 0.919708 0.861582
O10_7 O 0.02992(9) 0.94748(10) 0.95394(10)
O11_7 O 0.07955(11) 0.88623(14) 0.97789(14)
N2_7 N 0.03717(12) 0.90235(13) 0.96973(12)
P4_7 P 0.01844(3) 0.65094(3) 0.84250(3)
C40_7 C 0.01337(13) 0.70726(12) 0.88215(12)
H37_7 H 0.046186 0.713674 0.899283
C41_7 C 0.06097(14) 0.66413(12) 0.79136(12)
C42_7 C 0.05731(18) 0.63495(14) 0.74695(14)
H39_7 H 0.031359 0.610176 0.743454
C43_7 C 0.0922(2) 0.64283(19) 0.70812(18)
H40_7 H 0.090286 0.623059 0.678031
C44_7 C 0.1293(2) 0.67895(18) 0.71300(18)
H41_7 H 0.152588 0.684338 0.685973
C45_7 C 0.13340(16) 0.70764(17) 0.75678(18)
H42_7 H 0.159502 0.732308 0.759889
C46_7 C 0.09924(14) 0.70024(14) 0.79608(15)
H43_7 H 0.101933 0.719815 0.826230
O2_9 O 0.85182(12) -0.000000 0.750000
H2_7 H 0.908576 0.012776 0.798177
C8_7 C 0.81550(13) 0.04299(12) 0.85996(12)
C9_7 C 0.77606(14) 0.06131(15) 0.82947(13)
H8_7 H 0.762573 0.040844 0.803035
C10_7 C 0.75665(15) 0.10986(15) 0.83814(15)
H9_7 H 0.729485 0.122292 0.817969
C11_7 C 0.77695(16) 0.13972(15) 0.87598(16)
H10_7 H 0.764025 0.172956 0.881286
C12_7 C 0.81590(15) 0.12192(15) 0.90635(15)
H11_7 H 0.829501 0.142809 0.932388
C13_7 C 0.83513(14) 0.07330(14) 0.89864(14)
H12_7 H 0.861582 0.060807 0.919708
O4_7 O 0.95394(10) 0.02992(9) 0.94748(10)
O5_7 O 0.97789(14) 0.07955(11) 0.88623(14)
N1_7 N 0.96973(12) 0.03717(12) 0.90235(13)
P2_7 P 0.84250(3) 0.01844(3) 0.65094(3)
O6_7 O 0.87479(9) 0.03580(9) 0.60745(8)
C14_7 C 0.88215(12) 0.01337(13) 0.70726(12)
H13_7 H 0.899283 0.046186 0.713674
C15_7 C 0.79136(12) 0.06097(14) 0.66413(12)
C16_7 C 0.74695(14) 0.05731(18) 0.63495(14)
H15_7 H 0.743454 0.031359 0.610176
C17_7 C 0.70812(18) 0.0922(2) 0.64283(19)
H16_7 H 0.678031 0.090286 0.623059
C18_7 C 0.71300(18) 0.1293(2) 0.67895(18)
H17_7 H 0.685973 0.152588 0.684338
C19_7 C 0.75678(18) 0.13340(16) 0.70764(17)
H18_7 H 0.759889 0.159502 0.732308
C20_7 C 0.79608(15) 0.09924(14) 0.70024(14)
H19_7 H 0.826230 0.101933 0.719815
O19_7 O 0.97565(10) 0.00237(10) 0.62444(10)
O22_7 O 0.99763(10) 0.12444(10) 0.52435(10)
O25_7 O 0.87556(10) 0.02435(10) 0.50237(10)
O26_7 O 0.94748(10) 0.04606(10) 0.47008(9)
O27_7 O 0.88623(14) 0.02211(14) 0.42045(11)
N6_7 N 0.90235(13) 0.03027(12) 0.46283(12)
O29_4 O 0.89255(8) 0.12521(9) 0.53580(9)
O14_10 O 0.750000 0.85182(12) -0.000000
H50_7 H 0.798177 0.908576 0.012776
C60_7 C 0.85996(12) 0.81550(13) 0.04299(12)
C61_7 C 0.82947(13) 0.77606(14) 0.06131(15)
H56_7 H 0.803035 0.762573 0.040844
C62_7 C 0.83814(15) 0.75665(15) 0.10986(15)
H57_7 H 0.817969 0.729485 0.122292
C63_7 C 0.87598(16) 0.77695(16) 0.13972(15)
H58_7 H 0.881286 0.764025 0.172956
C64_7 C 0.90635(15) 0.81590(15) 0.12192(15)
H59_7 H 0.932388 0.829501 0.142809
C65_7 C 0.89864(14) 0.83513(14) 0.07330(14)
H60_7 H 0.919708 0.861582 0.060807
O16_7 O 0.94748(10) 0.95394(10) 0.02992(9)
O17_7 O 0.88623(14) 0.97789(14) 0.07955(11)
N3_7 N 0.90235(13) 0.96973(12) 0.03717(12)
P6_7 P 0.65094(3) 0.84250(3) 0.01844(3)
O18_4 O 0.60745(8) 0.87479(9) 0.03580(9)
C66_7 C 0.70726(12) 0.88215(12) 0.01337(13)
H61_7 H 0.713674 0.899283 0.046186
C67_7 C 0.66413(12) 0.79136(12) 0.06097(14)
C68_7 C 0.63495(14) 0.74695(14) 0.05731(18)
H63_7 H 0.610176 0.743454 0.031359
C69_7 C 0.64283(19) 0.70812(18) 0.0922(2)
H64_7 H 0.623059 0.678031 0.090286
C70_7 C 0.67895(18) 0.71300(18) 0.1293(2)
H65_7 H 0.684338 0.685973 0.152588
C71_7 C 0.70764(17) 0.75678(18) 0.13340(16)
H66_7 H 0.732308 0.759889 0.159502
C72_7 C 0.70024(14) 0.79608(15) 0.09924(14)
H67_7 H 0.719815 0.826230 0.101933
Lu1_7 Lu 0.94049(2) 0.94049(2) 0.94049(2)
P1_7 P 0.84250(3) 0.98156(3) 0.84906(3)
O1_7 O 0.87479(9) 0.96420(9) 0.89255(8)
O2_10 O 0.85182(12) 1.000000 0.750000
C1_7 C 0.88215(12) 0.98663(13) 0.79274(12)
H1_7 H 0.899283 0.953814 0.786326
C2_7 C 0.79136(12) 0.93903(14) 0.83587(12)
C3_7 C 0.74695(14) 0.94269(18) 0.86505(14)
H3_7 H 0.743454 0.968641 0.889824
C4_7 C 0.70812(18) 0.9078(2) 0.85717(19)
H4_7 H 0.678031 0.909714 0.876941
C5_7 C 0.71300(18) 0.8707(2) 0.82105(18)
H5_7 H 0.685973 0.847412 0.815662
C6_7 C 0.75678(18) 0.86660(16) 0.79236(17)
H6_7 H 0.759889 0.840498 0.767692
C7_7 C 0.79608(15) 0.90076(14) 0.79976(14)
H7_7 H 0.826230 0.898067 0.780185
O3_7 O 0.97565(10) 0.99763(10) 0.87556(10)
H14_7 H 0.908576 0.987224 0.701823
C21_7 C 0.81550(13) 0.95701(12) 0.64004(12)
C22_7 C 0.77606(14) 0.93869(15) 0.67053(13)
H20_7 H 0.762573 0.959156 0.696965
C23_7 C 0.75665(15) 0.89014(15) 0.66186(15)
H21_7 H 0.729485 0.877708 0.682031
C24_7 C 0.77695(16) 0.86028(15) 0.62402(16)
H22_7 H 0.764025 0.827044 0.618714
C25_7 C 0.81590(15) 0.87808(15) 0.59365(15)
H23_7 H 0.829501 0.857191 0.567612
C26_7 C 0.83513(14) 0.92670(14) 0.60136(14)
H24_7 H 0.861582 0.939193 0.580292
P3_7 P 0.98156(3) 0.84906(3) 0.84250(3)
O7_7 O 0.96420(9) 0.89255(8) 0.87479(9)
O8_11 O 1.000000 0.750000 0.85182(12)
C27_7 C 0.98663(13) 0.79274(12) 0.88215(12)
H25_7 H 0.953814 0.786326 0.899283
C28_7 C 0.93903(14) 0.83587(12) 0.79136(12)
C29_7 C 0.94269(18) 0.86505(14) 0.74695(14)
H27_7 H 0.968641 0.889824 0.743454
C30_7 C 0.9078(2) 0.85717(19) 0.70812(18)
H28_7 H 0.909714 0.876941 0.678031
C31_7 C 0.8707(2) 0.82105(18) 0.71300(18)
H29_7 H 0.847412 0.815662 0.685973
C32_7 C 0.86660(16) 0.79236(17) 0.75678(18)
H30_7 H 0.840498 0.767692 0.759889
C33_7 C 0.90076(14) 0.79976(14) 0.79608(15)
H31_7 H 0.898067 0.780185 0.826230
O9_7 O 0.99763(10) 0.87556(10) 0.97565(10)
H38_7 H 0.987224 0.701823 0.908576
C47_7 C 0.95701(12) 0.64004(12) 0.81550(13)
C48_7 C 0.93869(15) 0.67053(13) 0.77606(14)
H44_7 H 0.959156 0.696965 0.762573
C49_7 C 0.89014(15) 0.66186(15) 0.75665(15)
H45_7 H 0.877708 0.682031 0.729485
C50_7 C 0.86028(15) 0.62402(16) 0.77695(16)
H46_7 H 0.827044 0.618714 0.764025
C51_7 C 0.87808(15) 0.59365(15) 0.81590(15)
H47_7 H 0.857191 0.567612 0.829501
C52_7 C 0.92670(14) 0.60136(14) 0.83513(14)
H48_7 H 0.939193 0.580292 0.861582
P5_7 P 0.84906(3) 0.84250(3) 0.98156(3)
O13_7 O 0.89255(8) 0.87479(9) 0.96420(9)
O14_11 O 0.750000 0.85182(12) 1.000000
C53_7 C 0.79274(12) 0.88215(12) 0.98663(13)
H49_7 H 0.786326 0.899283 0.953814
C54_7 C 0.83587(12) 0.79136(12) 0.93903(14)
C55_7 C 0.86505(14) 0.74695(14) 0.94269(18)
H51_7 H 0.889824 0.743454 0.968641
C56_7 C 0.85717(19) 0.70812(18) 0.9078(2)
H52_7 H 0.876941 0.678031 0.909714
C57_7 C 0.82105(18) 0.71300(18) 0.8707(2)
H53_7 H 0.815662 0.685973 0.847412
C58_7 C 0.79236(17) 0.75678(18) 0.86660(16)
H54_7 H 0.767692 0.759889 0.840498
C59_7 C 0.79976(14) 0.79608(15) 0.90076(14)
H55_7 H 0.780185 0.826230 0.898067
O15_7 O 0.87556(10) 0.97565(10) 0.99763(10)
H62_7 H 0.701823 0.908576 0.987224
C73_7 C 0.64004(12) 0.81550(13) 0.95701(12)
C74_7 C 0.67053(13) 0.77606(14) 0.93869(15)
H68_7 H 0.696965 0.762573 0.959156
C75_7 C 0.66186(15) 0.75665(15) 0.89014(15)
H69_7 H 0.682031 0.729485 0.877708
C76_7 C 0.62402(16) 0.77695(16) 0.86028(15)
H70_7 H 0.618714 0.764025 0.827044
C77_7 C 0.59365(15) 0.81590(15) 0.87808(15)
H71_7 H 0.567612 0.829501 0.857191
C78_7 C 0.60136(14) 0.83513(14) 0.92670(14)
H72_7 H 0.580292 0.861582 0.939193
O20_7 O 0.95394(10) 0.97008(9) 0.55252(10)
O21_7 O 0.97789(14) 0.92045(11) 0.61377(14)
N4_7 N 0.96973(12) 0.96283(12) 0.59765(13)
Lu1_8 Lu 0.55951(2) 0.05951(2) 0.44049(2)
P1_8 P 0.65750(3) 0.01844(3) 0.34906(3)
O1_8 O 0.62521(9) 0.03580(9) 0.39255(8)
O2_11 O 0.64818(12) 0.000000 0.250000
C1_8 C 0.61785(12) 0.01337(13) 0.29274(12)
H1_8 H 0.600717 0.046186 0.286326
C2_8 C 0.70864(12) 0.06097(14) 0.33587(12)
C3_8 C 0.75305(14) 0.05731(18) 0.36505(14)
H3_8 H 0.756546 0.031359 0.389824
C4_8 C 0.79188(18) 0.0922(2) 0.35717(19)
H4_8 H 0.821969 0.090286 0.376941
C5_8 C 0.78700(18) 0.1293(2) 0.32105(18)
H5_8 H 0.814027 0.152588 0.315662
C6_8 C 0.74322(18) 0.13340(16) 0.29236(17)
H6_8 H 0.740111 0.159502 0.267692
C7_8 C 0.70392(15) 0.09924(14) 0.29976(14)
H7_8 H 0.673770 0.101933 0.280185
O3_8 O 0.52435(10) 0.00237(10) 0.37556(10)
H14_8 H 0.591424 0.012776 0.201823
C21_8 C 0.68450(13) 0.04299(12) 0.14004(12)
C22_8 C 0.72394(14) 0.06131(15) 0.17053(13)
H20_8 H 0.737427 0.040844 0.196965
C23_8 C 0.74335(15) 0.10986(15) 0.16186(15)
H21_8 H 0.770515 0.122292 0.182031
C24_8 C 0.72305(16) 0.13972(15) 0.12402(16)
H22_8 H 0.735975 0.172956 0.118714
C25_8 C 0.68410(15) 0.12192(15) 0.09365(15)
H23_8 H 0.670499 0.142809 0.067612
C26_8 C 0.66487(14) 0.07330(14) 0.10136(14)
H24_8 H 0.638418 0.060807 0.080292
P3_8 P 0.51844(3) 0.15094(3) 0.34250(3)
O7_8 O 0.53580(9) 0.10745(8) 0.37479(9)
O8_12 O 0.500000 0.250000 0.35182(12)
C27_8 C 0.51337(13) 0.20726(12) 0.38215(12)
H25_8 H 0.546186 0.213674 0.399283
H26_8 H 0.487224 0.201823 0.408576
C28_8 C 0.56097(14) 0.16413(12) 0.29136(12)
C29_8 C 0.55731(18) 0.13495(14) 0.24695(14)
H27_8 H 0.531359 0.110176 0.243454
C30_8 C 0.5922(2) 0.14283(19) 0.20812(18)
H28_8 H 0.590286 0.123059 0.178031
C31_8 C 0.6293(2) 0.17895(18) 0.21300(18)
H29_8 H 0.652588 0.184338 0.185973
C32_8 C 0.63340(16) 0.20764(17) 0.25678(18)
H30_8 H 0.659502 0.232308 0.259889
C33_8 C 0.59924(14) 0.20024(14) 0.29608(15)
H31_8 H 0.601933 0.219815 0.326230
C34_8 C 0.45701(12) 0.14004(12) 0.31550(13)
C35_8 C 0.43869(15) 0.17053(13) 0.27606(14)
H32_8 H 0.459156 0.196965 0.262573
C36_8 C 0.39014(15) 0.16186(15) 0.25665(15)
H33_8 H 0.377708 0.182031 0.229485
C37_8 C 0.36028(15) 0.12402(16) 0.27695(16)
H34_8 H 0.327044 0.118714 0.264025
C38_8 C 0.37808(15) 0.09365(15) 0.31590(15)
H35_8 H 0.357191 0.067612 0.329501
C39_8 C 0.42670(14) 0.10136(14) 0.33513(14)
H36_8 H 0.439193 0.080292 0.361582
O9_8 O 0.50237(10) 0.12444(10) 0.47565(10)
O10_8 O 0.47008(9) 0.05252(10) 0.45394(10)
O11_8 O 0.42045(11) 0.11377(14) 0.47789(14)
N2_8 N 0.46283(12) 0.09765(13) 0.46973(12)
P4_8 P 0.48156(3) 0.34906(3) 0.34250(3)
C40_8 C 0.48663(13) 0.29274(12) 0.38215(12)
H37_8 H 0.453814 0.286326 0.399283
H38_8 H 0.512776 0.298177 0.408576
C41_8 C 0.43903(14) 0.33587(12) 0.29136(12)
C42_8 C 0.44269(18) 0.36505(14) 0.24695(14)
H39_8 H 0.468641 0.389824 0.243454
C43_8 C 0.4078(2) 0.35717(19) 0.20812(18)
H40_8 H 0.409714 0.376941 0.178031
C44_8 C 0.3707(2) 0.32105(18) 0.21300(18)
H41_8 H 0.347412 0.315662 0.185973
C45_8 C 0.36660(16) 0.29236(17) 0.25678(18)
H42_8 H 0.340498 0.267692 0.259889
C46_8 C 0.40076(14) 0.29976(14) 0.29608(15)
H43_8 H 0.398067 0.280185 0.326230
C47_8 C 0.54299(12) 0.35996(12) 0.31550(13)
C48_8 C 0.56131(15) 0.32947(13) 0.27606(14)
H44_8 H 0.540844 0.303035 0.262573
C49_8 C 0.60986(15) 0.33814(15) 0.25665(15)
H45_8 H 0.622292 0.317969 0.229485
C50_8 C 0.63972(15) 0.37598(16) 0.27695(16)
H46_8 H 0.672956 0.381286 0.264025
C51_8 C 0.62192(15) 0.40635(15) 0.31590(15)
H47_8 H 0.642809 0.432388 0.329501
C52_8 C 0.57330(14) 0.39864(14) 0.33513(14)
H48_8 H 0.560807 0.419708 0.361582
P5_8 P 0.65094(3) 0.15750(3) 0.48156(3)
O13_8 O 0.60745(8) 0.12521(9) 0.46420(9)
O14_12 O 0.750000 0.14818(12) 0.500000
C53_8 C 0.70726(12) 0.11785(12) 0.48663(13)
H49_8 H 0.713674 0.100717 0.453814
H50_8 H 0.701823 0.091424 0.512776
C54_8 C 0.66413(12) 0.20864(12) 0.43903(14)
C55_8 C 0.63495(14) 0.25305(14) 0.44269(18)
H51_8 H 0.610176 0.256546 0.468641
C56_8 C 0.64283(19) 0.29188(18) 0.4078(2)
H52_8 H 0.623059 0.321969 0.409714
C57_8 C 0.67895(18) 0.28700(18) 0.3707(2)
H53_8 H 0.684338 0.314027 0.347412
C58_8 C 0.70764(17) 0.24322(18) 0.36660(16)
H54_8 H 0.732308 0.240111 0.340498
C59_8 C 0.70024(14) 0.20392(15) 0.40076(14)
H55_8 H 0.719815 0.173770 0.398067
C60_8 C 0.64004(12) 0.18450(13) 0.54299(12)
C61_8 C 0.67053(13) 0.22394(14) 0.56131(15)
H56_8 H 0.696965 0.237427 0.540844
C62_8 C 0.66186(15) 0.24335(15) 0.60986(15)
H57_8 H 0.682031 0.270515 0.622292
C63_8 C 0.62402(16) 0.22305(16) 0.63972(15)
H58_8 H 0.618714 0.235975 0.672956
C64_8 C 0.59365(15) 0.18410(15) 0.62192(15)
H59_8 H 0.567612 0.170499 0.642809
C65_8 C 0.60136(14) 0.16487(14) 0.57330(14)
H60_8 H 0.580292 0.138418 0.560807
O15_8 O 0.62444(10) 0.02435(10) 0.49763(10)
O16_8 O 0.55252(10) 0.04606(10) 0.52992(9)
O17_8 O 0.61377(14) 0.02211(14) 0.57955(11)
N3_8 N 0.59765(13) 0.03027(12) 0.53717(12)
P6_8 P 0.84906(3) 0.15750(3) 0.51844(3)
C66_8 C 0.79274(12) 0.11785(12) 0.51337(13)
H61_8 H 0.786326 0.100717 0.546186
H62_8 H 0.798177 0.091424 0.487224
C67_8 C 0.83587(12) 0.20864(12) 0.56097(14)
C68_8 C 0.86505(14) 0.25305(14) 0.55731(18)
H63_8 H 0.889824 0.256546 0.531359
C69_8 C 0.85717(19) 0.29188(18) 0.5922(2)
H64_8 H 0.876941 0.321969 0.590286
C70_8 C 0.82105(18) 0.28700(18) 0.6293(2)
H65_8 H 0.815662 0.314027 0.652588
C71_8 C 0.79236(17) 0.24322(18) 0.63340(16)
H66_8 H 0.767692 0.240111 0.659502
C72_8 C 0.79976(14) 0.20392(15) 0.59924(14)
H67_8 H 0.780185 0.173770 0.601933
C73_8 C 0.85996(12) 0.18450(13) 0.45701(12)
C74_8 C 0.82947(13) 0.22394(14) 0.43869(15)
H68_8 H 0.803035 0.237427 0.459156
C75_8 C 0.83814(15) 0.24335(15) 0.39014(15)
H69_8 H 0.817969 0.270515 0.377708
C76_8 C 0.87598(16) 0.22305(16) 0.36028(15)
H70_8 H 0.881286 0.235975 0.327044
C77_8 C 0.90635(15) 0.18410(15) 0.37808(15)
H71_8 H 0.932388 0.170499 0.357191
C78_8 C 0.89864(14) 0.16487(14) 0.42670(14)
H72_8 H 0.919708 0.138418 0.439193
O20_8 O 0.54606(10) 0.02992(9) 0.05252(10)
O21_8 O 0.52211(14) 0.07955(11) 0.11377(14)
N4_8 N 0.53027(12) 0.03717(12) 0.09765(13)
O2_12 O 0.64818(12) 1.000000 0.250000
H2_8 H 0.591424 0.987224 0.298177
C8_8 C 0.68450(13) 0.95701(12) 0.35996(12)
C9_8 C 0.72394(14) 0.93869(15) 0.32947(13)
H8_8 H 0.737427 0.959156 0.303035
C10_8 C 0.74335(15) 0.89014(15) 0.33814(15)
H9_8 H 0.770515 0.877708 0.317969
C11_8 C 0.72305(16) 0.86028(15) 0.37598(16)
H10_8 H 0.735975 0.827044 0.381286
C12_8 C 0.68410(15) 0.87808(15) 0.40635(15)
H11_8 H 0.670499 0.857191 0.432388
C13_8 C 0.66487(14) 0.92670(14) 0.39864(14)
H12_8 H 0.638418 0.939193 0.419708
O4_8 O 0.54606(10) 0.97008(9) 0.44748(10)
O5_8 O 0.52211(14) 0.92045(11) 0.38623(14)
N1_8 N 0.53027(12) 0.96283(12) 0.40235(13)
P2_8 P 0.65750(3) 0.98156(3) 0.15094(3)
O6_8 O 0.62521(9) 0.96420(9) 0.10745(8)
C14_8 C 0.61785(12) 0.98663(13) 0.20726(12)
H13_8 H 0.600717 0.953814 0.213674
C15_8 C 0.70864(12) 0.93903(14) 0.16413(12)
C16_8 C 0.75305(14) 0.94269(18) 0.13495(14)
H15_8 H 0.756546 0.968641 0.110176
C17_8 C 0.79188(18) 0.9078(2) 0.14283(19)
H16_8 H 0.821969 0.909714 0.123059
C18_8 C 0.78700(18) 0.8707(2) 0.17895(18)
H17_8 H 0.814027 0.847412 0.184338
C19_8 C 0.74322(18) 0.86660(16) 0.20764(17)
H18_8 H 0.740111 0.840498 0.232308
C20_8 C 0.70392(15) 0.90076(14) 0.20024(14)
H19_8 H 0.673770 0.898067 0.219815
O19_8 O 0.52435(10) 0.99763(10) 0.12444(10)
O22_8 O 0.50237(10) 0.87556(10) 0.02435(10)
O23_8 O 0.47008(9) 0.94748(10) 0.04606(10)
O24_8 O 0.42045(11) 0.88623(14) 0.02211(14)
N5_8 N 0.46283(12) 0.90235(13) 0.03027(12)
O25_8 O 0.62444(10) 0.97565(10) 0.00237(10)
O26_8 O 0.55252(10) 0.95394(10) 0.97008(9)
O27_8 O 0.61377(14) 0.97789(14) 0.92045(11)
N6_8 N 0.59765(13) 0.96973(12) 0.96283(12)
loop_
_geom_bond_atom_site_label_1
_geom_bond_atom_site_label_2
_geom_bond_site_symmetry_1
_geom_bond_site_symmetry_2
P2 O6 1_555 1_555
O6 Lu2 1_555 1_555
C14 O2 1_555 1_555
H13 C14 1_555 1_555
H14 C14 1_555 1_555
C15 P2 1_555 1_555
H18 C19 1_555 1_555
C20 C15 1_555 1_555
H19 C20 1_555 1_555
C21 P2 1_555 1_555
C22 C21 1_555 1_555
H20 C22 1_555 1_555
C23 C22 1_555 1_555
C24 C23 1_555 1_555
H22 C24 1_555 1_555
C25 C24 1_555 1_555
H23 C25 1_555 1_555
C26 C21 1_555 1_555
H24 C26 1_555 1_555
H27 C29 1_555 1_555
C30 C29 1_555 1_555
H28 C30 1_555 1_555
C31 C30 1_555 1_555
H29 C31 1_555 1_555
H39 C42 1_555 1_555
C43 C42 1_555 1_555
H40 C43 1_555 1_555
C44 C43 1_555 1_555
H41 C44 1_555 1_555
Lu2 O19 1_555 1_555
O19 N4 1_555 1_555
O20 Lu2 1_555 1_555
O21 N4 1_555 1_555
N4 O20 1_555 1_555
O22 Lu2 1_555 1_555
O23 Lu2 1_555 1_555
O24 N5 1_555 1_555
N5 O22 1_555 1_555
O25 Lu2 1_555 1_555
O26 Lu2 1_555 1_555
O27 N6 1_555 1_555
N6 O25 1_555 1_555
O28 Lu2 1_555 1_555
O29 Lu2 1_555 1_555
P2 C14 1_555 1_555
C19 C20 1_555 1_555
C25 C26 1_555 1_555
O23 N5 1_555 1_555
O26 N6 1_555 1_555
Lu1 O1 1_555 1_555
P1 O1 1_555 1_555
O2_2 C1 1_555 1_555
C1 P1 1_555 1_555
H1 C1 1_555 1_555
H2 C1 1_555 1_555
C2 P1 1_555 1_555
H6 C6 1_555 1_555
C7 C2 1_555 1_555
H7 C7 1_555 1_555
C8 P1 1_555 1_555
C9 C8 1_555 1_555
H8 C9 1_555 1_555
C10 C9 1_555 1_555
C11 C10 1_555 1_555
H10 C11 1_555 1_555
C12 C11 1_555 1_555
H11 C12 1_555 1_555
C13 C8 1_555 1_555
H12 C13 1_555 1_555
O3 Lu1 1_555 1_555
O4 Lu1 1_555 1_555
O5 N1 1_555 1_555
N1 O3 1_555 1_555
P3 O7 1_555 1_555
O7 Lu1 1_555 1_555
O8 C27 1_555 1_555
C27 P3 1_555 1_555
H25 C27 1_555 1_555
H26 C27 1_555 1_555
C28 P3 1_555 1_555
H30 C32 1_555 1_555
C33 C28 1_555 1_555
H31 C33 1_555 1_555
C34 P3 1_555 1_555
C35 C34 1_555 1_555
H32 C35 1_555 1_555
C36 C35 1_555 1_555
C37 C36 1_555 1_555
H34 C37 1_555 1_555
C38 C37 1_555 1_555
H35 C38 1_555 1_555
C39 C34 1_555 1_555
H36 C39 1_555 1_555
O9 Lu1 1_555 1_555
O10 Lu1 1_555 1_555
O11 N2 1_555 1_555
N2 O9 1_555 1_555
P4 O12 1_555 1_555
O12 Lu3 1_555 1_555
C40 O8 1_555 1_555
H37 C40 1_555 1_555
H38 C40 1_555 1_555
C41 P4 1_555 1_555
H42 C45 1_555 1_555
C46 C41 1_555 1_555
H43 C46 1_555 1_555
C47 P4 1_555 1_555
C48 C47 1_555 1_555
H44 C48 1_555 1_555
C49 C48 1_555 1_555
C50 C49 1_555 1_555
H46 C50 1_555 1_555
C51 C50 1_555 1_555
H47 C51 1_555 1_555
C52 C47 1_555 1_555
H48 C52 1_555 1_555
P5 O13 1_555 1_555
O13 Lu1 1_555 1_555
O14 C53 1_555 1_555
C53 P5 1_555 1_555
H49 C53 1_555 1_555
H50 C53 1_555 1_555
C54 P5 1_555 1_555
C55 C54 1_555 1_555
H51 C55 1_555 1_555
C56 C55 1_555 1_555
H52 C56 1_555 1_555
C57 C56 1_555 1_555
H53 C57 1_555 1_555
C58 C57 1_555 1_555
H54 C58 1_555 1_555
C59 C54 1_555 1_555
H55 C59 1_555 1_555
C60 P5 1_555 1_555
C61 C60 1_555 1_555
H56 C61 1_555 1_555
C62 C61 1_555 1_555
H57 C62 1_555 1_555
C63 C62 1_555 1_555
H58 C63 1_555 1_555
C64 C63 1_555 1_555
H59 C64 1_555 1_555
C65 C60 1_555 1_555
H60 C65 1_555 1_555
O15 Lu1 1_555 1_555
O16 Lu1 1_555 1_555
O17 N3 1_555 1_555
N3 O15 1_555 1_555
C6 C7 1_555 1_555
C12 C13 1_555 1_555
O4 N1 1_555 1_555
C32 C33 1_555 1_555
C38 C39 1_555 1_555
O10 N2 1_555 1_555
P4 C40 1_555 1_555
C45 C46 1_555 1_555
C51 C52 1_555 1_555
C58 C59 1_555 1_555
C64 C65 1_555 1_555
O16 N3 1_555 1_555
H15 C16 1_555 1_555
C17 C16 1_555 1_555
H16 C17 1_555 1_555
C18 C17 1_555 1_555
H17 C18 1_555 1_555
H3 C3 1_555 1_555
C4 C3 1_555 1_555
H4 C4 1_555 1_555
C5 C4 1_555 1_555
H5 C5 1_555 1_555
P6 O18 1_555 1_555
O18 Lu4 1_555 1_555
C66 O14_2 1_555 1_555
H61 C66 1_555 1_555
H62 C66 1_555 1_555
C67 P6 1_555 1_555
C68 C67 1_555 1_555
H63 C68 1_555 1_555
C69 C68 1_555 1_555
H64 C69 1_555 1_555
C70 C69 1_555 1_555
H65 C70 1_555 1_555
C71 C70 1_555 1_555
H66 C71 1_555 1_555
C72 C67 1_555 1_555
H67 C72 1_555 1_555
C73 P6 1_555 1_555
C74 C73 1_555 1_555
H68 C74 1_555 1_555
C75 C74 1_555 1_555
H69 C75 1_555 1_555
C76 C75 1_555 1_555
H70 C76 1_555 1_555
C77 C76 1_555 1_555
H71 C77 1_555 1_555
C78 C73 1_555 1_555
H72 C78 1_555 1_555
P6 C66 1_555 1_555
C71 C72 1_555 1_555
C77 C78 1_555 1_555
H3_2 C3_2 1_555 1_555
C4_2 C3_2 1_555 1_555
H4_2 C4_2 1_555 1_555
C5_2 C4_2 1_555 1_555
H5_2 C5_2 1_555 1_555
H15_2 C16_2 1_555 1_555
C17_2 C16_2 1_555 1_555
H16_2 C17_2 1_555 1_555
C18_2 C17_2 1_555 1_555
H17_2 C18_2 1_555 1_555
P6_2 O29 1_555 1_555
C66_2 O14_3 1_555 1_555
H61_2 C66_2 1_555 1_555
H62_2 C66_2 1_555 1_555
C67_2 P6_2 1_555 1_555
H66_2 C71_2 1_555 1_555
C72_2 C67_2 1_555 1_555
H67_2 C72_2 1_555 1_555
C73_2 P6_2 1_555 1_555
C74_2 C73_2 1_555 1_555
H68_2 C74_2 1_555 1_555
C75_2 C74_2 1_555 1_555
C76_2 C75_2 1_555 1_555
H70_2 C76_2 1_555 1_555
C77_2 C76_2 1_555 1_555
H71_2 C77_2 1_555 1_555
C78_2 C73_2 1_555 1_555
H72_2 C78_2 1_555 1_555
P6_2 C66_2 1_555 1_555
C71_2 C72_2 1_555 1_555
C77_2 C78_2 1_555 1_555
Lu1_2 O1_2 1_555 1_555
P1_2 O1_2 1_555 1_555
O2_3 C1_2 1_555 1_555
C1_2 P1_2 1_555 1_555
H1_2 C1_2 1_555 1_555
H2_2 C1_2 1_555 1_555
C2_2 P1_2 1_555 1_555
H6_2 C6_2 1_555 1_555
C7_2 C2_2 1_555 1_555
H7_2 C7_2 1_555 1_555
C8_2 P1_2 1_555 1_555
C9_2 C8_2 1_555 1_555
H8_2 C9_2 1_555 1_555
C10_2 C9_2 1_555 1_555
C11_2 C10_2 1_555 1_555
H10_2 C11_2 1_555 1_555
C12_2 C11_2 1_555 1_555
H11_2 C12_2 1_555 1_555
C13_2 C8_2 1_555 1_555
H12_2 C13_2 1_555 1_555
O3_2 Lu1_2 1_555 1_555
O4_2 Lu1_2 1_555 1_555
O5_2 N1_2 1_555 1_555
N1_2 O3_2 1_555 1_555
P2_2 O6_2 1_555 1_555
O6_2 Lu4 1_555 1_555
C14_2 O2_3 1_555 1_555
H13_2 C14_2 1_555 1_555
H14_2 C14_2 1_555 1_555
C15_2 P2_2 1_555 1_555
H18_2 C19_2 1_555 1_555
C20_2 C15_2 1_555 1_555
H19_2 C20_2 1_555 1_555
C21_2 P2_2 1_555 1_555
C22_2 C21_2 1_555 1_555
H20_2 C22_2 1_555 1_555
C23_2 C22_2 1_555 1_555
C24_2 C23_2 1_555 1_555
H22_2 C24_2 1_555 1_555
C25_2 C24_2 1_555 1_555
H23_2 C25_2 1_555 1_555
C26_2 C21_2 1_555 1_555
H24_2 C26_2 1_555 1_555
P3_2 O7_2 1_555 1_555
O7_2 Lu1_2 1_555 1_555
O8_2 C27_2 1_555 1_555
C27_2 P3_2 1_555 1_555
H25_2 C27_2 1_555 1_555
H26_2 C27_2 1_555 1_555
C28_2 P3_2 1_555 1_555
C29_2 C28_2 1_555 1_555
H27_2 C29_2 1_555 1_555
C30_2 C29_2 1_555 1_555
H28_2 C30_2 1_555 1_555
C31_2 C30_2 1_555 1_555
H29_2 C31_2 1_555 1_555
C32_2 C31_2 1_555 1_555
H30_2 C32_2 1_555 1_555
C33_2 C28_2 1_555 1_555
H31_2 C33_2 1_555 1_555
C34_2 P3_2 1_555 1_555
C35_2 C34_2 1_555 1_555
H32_2 C35_2 1_555 1_555
C36_2 C35_2 1_555 1_555
H33_2 C36_2 1_555 1_555
C37_2 C36_2 1_555 1_555
H34_2 C37_2 1_555 1_555
C38_2 C37_2 1_555 1_555
H35_2 C38_2 1_555 1_555
C39_2 C34_2 1_555 1_555
H36_2 C39_2 1_555 1_555
O9_2 Lu1_2 1_555 1_555
O10_2 Lu1_2 1_555 1_555
O11_2 N2_2 1_555 1_555
N2_2 O9_2 1_555 1_555
P5_2 O13_2 1_555 1_555
O13_2 Lu1_2 1_555 1_555
O14_4 C53_2 1_555 1_555
C53_2 P5_2 1_555 1_555
H49_2 C53_2 1_555 1_555
H50_2 C53_2 1_555 1_555
C54_2 P5_2 1_555 1_555
H54_2 C58_2 1_555 1_555
C59_2 C54_2 1_555 1_555
H55_2 C59_2 1_555 1_555
C60_2 P5_2 1_555 1_555
C61_2 C60_2 1_555 1_555
H56_2 C61_2 1_555 1_555
C62_2 C61_2 1_555 1_555
C63_2 C62_2 1_555 1_555
H58_2 C63_2 1_555 1_555
C64_2 C63_2 1_555 1_555
H59_2 C64_2 1_555 1_555
C65_2 C60_2 1_555 1_555
H60_2 C65_2 1_555 1_555
O15_2 Lu1_2 1_555 1_555
O16_2 Lu1_2 1_555 1_555
O17_2 N3_2 1_555 1_555
N3_2 O15_2 1_555 1_555
Lu4 O19_2 1_555 1_555
O19_2 N4_2 1_555 1_555
O20_2 Lu4 1_555 1_555
O21_2 N4_2 1_555 1_555
N4_2 O20_2 1_555 1_555
O22_2 Lu4 1_555 1_555
O23_2 Lu4 1_555 1_555
O24_2 N5_2 1_555 1_555
N5_2 O22_2 1_555 1_555
O25_2 Lu4 1_555 1_555
O26_2 Lu4 1_555 1_555
O27_2 N6_2 1_555 1_555
N6_2 O25_2 1_555 1_555
O28_2 Lu4 1_555 1_555
C6_2 C7_2 1_555 1_555
C12_2 C13_2 1_555 1_555
O4_2 N1_2 1_555 1_555
P2_2 C14_2 1_555 1_555
C19_2 C20_2 1_555 1_555
C25_2 C26_2 1_555 1_555
C32_2 C33_2 1_555 1_555
C38_2 C39_2 1_555 1_555
O10_2 N2_2 1_555 1_555
C58_2 C59_2 1_555 1_555
C64_2 C65_2 1_555 1_555
O16_2 N3_2 1_555 1_555
O23_2 N5_2 1_555 1_555
O26_2 N6_2 1_555 1_555
H63_2 C68_2 1_555 1_555
C69_2 C68_2 1_555 1_555
H64_2 C69_2 1_555 1_555
C70_2 C69_2 1_555 1_555
H65_2 C70_2 1_555 1_555
P4_2 O12_2 1_555 1_555
O12_2 Lu3_2 1_555 1_555
C40_2 O8_3 1_555 1_555
H37_2 C40_2 1_555 1_555
H38_2 C40_2 1_555 1_555
C41_2 P4_2 1_555 1_555
C42_2 C41_2 1_555 1_555
H39_2 C42_2 1_555 1_555
C43_2 C42_2 1_555 1_555
H40_2 C43_2 1_555 1_555
C44_2 C43_2 1_555 1_555
H41_2 C44_2 1_555 1_555
C45_2 C44_2 1_555 1_555
H42_2 C45_2 1_555 1_555
C46_2 C41_2 1_555 1_555
H43_2 C46_2 1_555 1_555
C47_2 P4_2 1_555 1_555
C48_2 C47_2 1_555 1_555
H44_2 C48_2 1_555 1_555
C49_2 C48_2 1_555 1_555
H45_2 C49_2 1_555 1_555
C50_2 C49_2 1_555 1_555
H46_2 C50_2 1_555 1_555
C51_2 C50_2 1_555 1_555
H47_2 C51_2 1_555 1_555
C52_2 C47_2 1_555 1_555
H48_2 C52_2 1_555 1_555
H51_2 C55_2 1_555 1_555
C56_2 C55_2 1_555 1_555
H52_2 C56_2 1_555 1_555
C57_2 C56_2 1_555 1_555
H53_2 C57_2 1_555 1_555
P4_2 C40_2 1_555 1_555
C45_2 C46_2 1_555 1_555
C51_2 C52_2 1_555 1_555
Lu1_3 O1_3 1_555 1_555
P1_3 O1_3 1_555 1_555
O2_4 C1_3 1_555 1_555
C1_3 P1_3 1_555 1_555
H1_3 C1_3 1_555 1_555
H2_3 C1_3 1_555 1_555
C2_3 P1_3 1_555 1_555
C3_3 C2_3 1_555 1_555
H3_3 C3_3 1_555 1_555
C4_3 C3_3 1_555 1_555
H4_3 C4_3 1_555 1_555
C5_3 C4_3 1_555 1_555
H5_3 C5_3 1_555 1_555
C6_3 C5_3 1_555 1_555
H6_3 C6_3 1_555 1_555
C7_3 C2_3 1_555 1_555
H7_3 C7_3 1_555 1_555
C8_3 P1_3 1_555 1_555
C9_3 C8_3 1_555 1_555
H8_3 C9_3 1_555 1_555
C10_3 C9_3 1_555 1_555
H9_3 C10_3 1_555 1_555
C11_3 C10_3 1_555 1_555
H10_3 C11_3 1_555 1_555
C12_3 C11_3 1_555 1_555
H11_3 C12_3 1_555 1_555
C13_3 C8_3 1_555 1_555
H12_3 C13_3 1_555 1_555
O3_3 Lu1_3 1_555 1_555
O4_3 Lu1_3 1_555 1_555
O5_3 N1_3 1_555 1_555
N1_3 O3_3 1_555 1_555
P2_3 O6_3 1_555 1_555
O6_3 Lu3_2 1_555 1_555
C14_3 O2_4 1_555 1_555
H13_3 C14_3 1_555 1_555
H14_3 C14_3 1_555 1_555
C15_3 P2_3 1_555 1_555
C16_3 C15_3 1_555 1_555
H15_3 C16_3 1_555 1_555
C17_3 C16_3 1_555 1_555
H16_3 C17_3 1_555 1_555
C18_3 C17_3 1_555 1_555
H17_3 C18_3 1_555 1_555
C19_3 C18_3 1_555 1_555
H18_3 C19_3 1_555 1_555
C20_3 C15_3 1_555 1_555
H19_3 C20_3 1_555 1_555
C21_3 P2_3 1_555 1_555
C22_3 C21_3 1_555 1_555
H20_3 C22_3 1_555 1_555
C23_3 C22_3 1_555 1_555
H21_3 C23_3 1_555 1_555
C24_3 C23_3 1_555 1_555
H22_3 C24_3 1_555 1_555
C25_3 C24_3 1_555 1_555
H23_3 C25_3 1_555 1_555
C26_3 C21_3 1_555 1_555
H24_3 C26_3 1_555 1_555
P3_3 O7_3 1_555 1_555
O7_3 Lu1_3 1_555 1_555
O8_4 C27_3 1_555 1_555
C27_3 P3_3 1_555 1_555
H25_3 C27_3 1_555 1_555
H26_3 C27_3 1_555 1_555
C28_3 P3_3 1_555 1_555
C29_3 C28_3 1_555 1_555
H27_3 C29_3 1_555 1_555
C30_3 C29_3 1_555 1_555
H28_3 C30_3 1_555 1_555
C31_3 C30_3 1_555 1_555
H29_3 C31_3 1_555 1_555
C32_3 C31_3 1_555 1_555
H30_3 C32_3 1_555 1_555
C33_3 C28_3 1_555 1_555
H31_3 C33_3 1_555 1_555
C34_3 P3_3 1_555 1_555
C35_3 C34_3 1_555 1_555
H32_3 C35_3 1_555 1_555
C36_3 C35_3 1_555 1_555
H33_3 C36_3 1_555 1_555
C37_3 C36_3 1_555 1_555
H34_3 C37_3 1_555 1_555
C38_3 C37_3 1_555 1_555
H35_3 C38_3 1_555 1_555
C39_3 C34_3 1_555 1_555
H36_3 C39_3 1_555 1_555
O9_3 Lu1_3 1_555 1_555
O10_3 Lu1_3 1_555 1_555
O11_3 N2_3 1_555 1_555
N2_3 O9_3 1_555 1_555
P4_3 O28_2 1_555 1_555
C40_3 O8_4 1_555 1_555
H37_3 C40_3 1_555 1_555
H38_3 C40_3 1_555 1_555
C41_3 P4_3 1_555 1_555
C42_3 C41_3 1_555 1_555
H39_3 C42_3 1_555 1_555
C43_3 C42_3 1_555 1_555
H40_3 C43_3 1_555 1_555
C44_3 C43_3 1_555 1_555
H41_3 C44_3 1_555 1_555
C45_3 C44_3 1_555 1_555
H42_3 C45_3 1_555 1_555
C46_3 C41_3 1_555 1_555
H43_3 C46_3 1_555 1_555
C47_3 P4_3 1_555 1_555
C48_3 C47_3 1_555 1_555
H44_3 C48_3 1_555 1_555
C49_3 C48_3 1_555 1_555
H45_3 C49_3 1_555 1_555
C50_3 C49_3 1_555 1_555
H46_3 C50_3 1_555 1_555
C51_3 C50_3 1_555 1_555
H47_3 C51_3 1_555 1_555
C52_3 C47_3 1_555 1_555
H48_3 C52_3 1_555 1_555
P5_3 O13_3 1_555 1_555
O13_3 Lu1_3 1_555 1_555
O14_5 C53_3 1_555 1_555
C53_3 P5_3 1_555 1_555
H49_3 C53_3 1_555 1_555
H50_3 C53_3 1_555 1_555
C54_3 P5_3 1_555 1_555
C55_3 C54_3 1_555 1_555
H51_3 C55_3 1_555 1_555
C56_3 C55_3 1_555 1_555
H52_3 C56_3 1_555 1_555
C57_3 C56_3 1_555 1_555
H53_3 C57_3 1_555 1_555
C58_3 C57_3 1_555 1_555
H54_3 C58_3 1_555 1_555
C59_3 C54_3 1_555 1_555
H55_3 C59_3 1_555 1_555
C60_3 P5_3 1_555 1_555
C61_3 C60_3 1_555 1_555
H56_3 C61_3 1_555 1_555
C62_3 C61_3 1_555 1_555
H57_3 C62_3 1_555 1_555
C63_3 C62_3 1_555 1_555
H58_3 C63_3 1_555 1_555
C64_3 C63_3 1_555 1_555
H59_3 C64_3 1_555 1_555
C65_3 C60_3 1_555 1_555
H60_3 C65_3 1_555 1_555
O15_3 Lu1_3 1_555 1_555
O16_3 Lu1_3 1_555 1_555
O17_3 N3_3 1_555 1_555
N3_3 O15_3 1_555 1_555
P6_3 O18_2 1_555 1_555
O18_2 Lu3 1_555 1_555
C66_3 O14_5 1_555 1_555
H61_3 C66_3 1_555 1_555
H62_3 C66_3 1_555 1_555
C67_3 P6_3 1_555 1_555
C68_3 C67_3 1_555 1_555
H63_3 C68_3 1_555 1_555
C69_3 C68_3 1_555 1_555
H64_3 C69_3 1_555 1_555
C70_3 C69_3 1_555 1_555
H65_3 C70_3 1_555 1_555
C71_3 C70_3 1_555 1_555
H66_3 C71_3 1_555 1_555
C72_3 C67_3 1_555 1_555
H67_3 C72_3 1_555 1_555
C73_3 P6_3 1_555 1_555
C74_3 C73_3 1_555 1_555
H68_3 C74_3 1_555 1_555
C75_3 C74_3 1_555 1_555
H69_3 C75_3 1_555 1_555
C76_3 C75_3 1_555 1_555
H70_3 C76_3 1_555 1_555
C77_3 C76_3 1_555 1_555
H71_3 C77_3 1_555 1_555
C78_3 C73_3 1_555 1_555
H72_3 C78_3 1_555 1_555
Lu3_2 O19_3 1_555 1_555
O19_3 N4_3 1_555 1_555
O20_3 Lu3_2 1_555 1_555
O21_3 N4_3 1_555 1_555
N4_3 O20_3 1_555 1_555
O22_3 Lu3_2 1_555 1_555
O23_3 Lu3_2 1_555 1_555
O24_3 N5_3 1_555 1_555
N5_3 O22_3 1_555 1_555
O25_3 Lu3_2 1_555 1_555
O26_3 Lu3_2 1_555 1_555
O27_3 N6_3 1_555 1_555
N6_3 O25_3 1_555 1_555
O29_2 Lu3_2 1_555 1_555
C6_3 C7_3 1_555 1_555
C12_3 C13_3 1_555 1_555
O4_3 N1_3 1_555 1_555
P2_3 C14_3 1_555 1_555
C19_3 C20_3 1_555 1_555
C25_3 C26_3 1_555 1_555
C32_3 C33_3 1_555 1_555
C38_3 C39_3 1_555 1_555
O10_3 N2_3 1_555 1_555
P4_3 C40_3 1_555 1_555
C45_3 C46_3 1_555 1_555
C51_3 C52_3 1_555 1_555
C58_3 C59_3 1_555 1_555
C64_3 C65_3 1_555 1_555
O16_3 N3_3 1_555 1_555
P6_3 C66_3 1_555 1_555
C71_3 C72_3 1_555 1_555
C77_3 C78_3 1_555 1_555
O23_3 N5_3 1_555 1_555
O26_3 N6_3 1_555 1_555
P4_4 O28 1_555 1_555
C40_4 O8_5 1_555 1_555
H37_4 C40_4 1_555 1_555
H38_4 C40_4 1_555 1_555
C41_4 P4_4 1_555 1_555
H42_4 C45_4 1_555 1_555
C46_4 C41_4 1_555 1_555
H43_4 C46_4 1_555 1_555
C47_4 P4_4 1_555 1_555
C48_4 C47_4 1_555 1_555
H44_4 C48_4 1_555 1_555
C49_4 C48_4 1_555 1_555
C50_4 C49_4 1_555 1_555
H46_4 C50_4 1_555 1_555
C51_4 C50_4 1_555 1_555
H47_4 C51_4 1_555 1_555
C52_4 C47_4 1_555 1_555
H48_4 C52_4 1_555 1_555
H51_4 C55_4 1_555 1_555
C56_4 C55_4 1_555 1_555
H52_4 C56_4 1_555 1_555
C57_4 C56_4 1_555 1_555
H53_4 C57_4 1_555 1_555
H63_4 C68_4 1_555 1_555
C69_4 C68_4 1_555 1_555
H64_4 C69_4 1_555 1_555
C70_4 C69_4 1_555 1_555
H65_4 C70_4 1_555 1_555
P4_4 C40_4 1_555 1_555
C45_4 C46_4 1_555 1_555
C51_4 C52_4 1_555 1_555
H39_4 C42_4 1_555 1_555
C43_4 C42_4 1_555 1_555
H40_4 C43_4 1_555 1_555
C44_4 C43_4 1_555 1_555
H41_4 C44_4 1_555 1_555
Lu1_4 O1_4 1_555 1_555
P1_4 O1_4 1_555 1_555
O2_5 C1_4 1_555 1_555
C1_4 P1_4 1_555 1_555
H1_4 C1_4 1_555 1_555
H2_4 C1_4 1_555 1_555
C2_4 P1_4 1_555 1_555
C3_4 C2_4 1_555 1_555
H3_4 C3_4 1_555 1_555
C4_4 C3_4 1_555 1_555
H4_4 C4_4 1_555 1_555
C5_4 C4_4 1_555 1_555
H5_4 C5_4 1_555 1_555
C6_4 C5_4 1_555 1_555
H6_4 C6_4 1_555 1_555
C7_4 C2_4 1_555 1_555
H7_4 C7_4 1_555 1_555
C8_4 P1_4 1_555 1_555
C9_4 C8_4 1_555 1_555
H8_4 C9_4 1_555 1_555
C10_4 C9_4 1_555 1_555
H9_4 C10_4 1_555 1_555
C11_4 C10_4 1_555 1_555
H10_4 C11_4 1_555 1_555
C12_4 C11_4 1_555 1_555
H11_4 C12_4 1_555 1_555
C13_4 C8_4 1_555 1_555
H12_4 C13_4 1_555 1_555
O3_4 Lu1_4 1_555 1_555
O4_4 Lu1_4 1_555 1_555
O5_4 N1_4 1_555 1_555
N1_4 O3_4 1_555 1_555
P3_4 O7_4 1_555 1_555
O7_4 Lu1_4 1_555 1_555
O8_6 C27_4 1_555 1_555
C27_4 P3_4 1_555 1_555
H25_4 C27_4 1_555 1_555
H26_4 C27_4 1_555 1_555
C28_4 P3_4 1_555 1_555
H30_4 C32_4 1_555 1_555
C33_4 C28_4 1_555 1_555
H31_4 C33_4 1_555 1_555
C34_4 P3_4 1_555 1_555
C35_4 C34_4 1_555 1_555
H32_4 C35_4 1_555 1_555
C36_4 C35_4 1_555 1_555
C37_4 C36_4 1_555 1_555
H34_4 C37_4 1_555 1_555
C38_4 C37_4 1_555 1_555
H35_4 C38_4 1_555 1_555
C39_4 C34_4 1_555 1_555
H36_4 C39_4 1_555 1_555
O9_4 Lu1_4 1_555 1_555
O10_4 Lu1_4 1_555 1_555
O11_4 N2_4 1_555 1_555
N2_4 O9_4 1_555 1_555
P5_4 O13_4 1_555 1_555
O13_4 Lu1_4 1_555 1_555
O14_6 C53_4 1_555 1_555
C53_4 P5_4 1_555 1_555
H49_4 C53_4 1_555 1_555
H50_4 C53_4 1_555 1_555
C54_4 P5_4 1_555 1_555
H54_4 C58_4 1_555 1_555
C59_4 C54_4 1_555 1_555
H55_4 C59_4 1_555 1_555
C60_4 P5_4 1_555 1_555
C61_4 C60_4 1_555 1_555
H56_4 C61_4 1_555 1_555
C62_4 C61_4 1_555 1_555
C63_4 C62_4 1_555 1_555
H58_4 C63_4 1_555 1_555
C64_4 C63_4 1_555 1_555
H59_4 C64_4 1_555 1_555
C65_4 C60_4 1_555 1_555
H60_4 C65_4 1_555 1_555
O15_4 Lu1_4 1_555 1_555
O16_4 Lu1_4 1_555 1_555
O17_4 N3_4 1_555 1_555
N3_4 O15_4 1_555 1_555
P6_4 O29_2 1_555 1_555
C66_4 O14_6 1_555 1_555
H61_4 C66_4 1_555 1_555
H62_4 C66_4 1_555 1_555
C67_4 P6_4 1_555 1_555
H66_4 C71_4 1_555 1_555
C72_4 C67_4 1_555 1_555
H67_4 C72_4 1_555 1_555
C73_4 P6_4 1_555 1_555
C74_4 C73_4 1_555 1_555
H68_4 C74_4 1_555 1_555
C75_4 C74_4 1_555 1_555
C76_4 C75_4 1_555 1_555
H70_4 C76_4 1_555 1_555
C77_4 C76_4 1_555 1_555
H71_4 C77_4 1_555 1_555
C78_4 C73_4 1_555 1_555
H72_4 C78_4 1_555 1_555
C6_4 C7_4 1_555 1_555
C12_4 C13_4 1_555 1_555
O4_4 N1_4 1_555 1_555
C32_4 C33_4 1_555 1_555
C38_4 C39_4 1_555 1_555
O10_4 N2_4 1_555 1_555
C58_4 C59_4 1_555 1_555
C64_4 C65_4 1_555 1_555
O16_4 N3_4 1_555 1_555
P6_4 C66_4 1_555 1_555
C71_4 C72_4 1_555 1_555
C77_4 C78_4 1_555 1_555
P2_4 O6_4 1_555 1_555
O6_4 Lu3 1_555 1_555
C14_4 O2_6 1_555 1_555
H13_4 C14_4 1_555 1_555
H14_4 C14_4 1_555 1_555
C15_4 P2_4 1_555 1_555
C16_4 C15_4 1_555 1_555
H15_4 C16_4 1_555 1_555
C17_4 C16_4 1_555 1_555
H16_4 C17_4 1_555 1_555
C18_4 C17_4 1_555 1_555
H17_4 C18_4 1_555 1_555
C19_4 C18_4 1_555 1_555
H18_4 C19_4 1_555 1_555
C20_4 C15_4 1_555 1_555
H19_4 C20_4 1_555 1_555
C21_4 P2_4 1_555 1_555
C22_4 C21_4 1_555 1_555
H20_4 C22_4 1_555 1_555
C23_4 C22_4 1_555 1_555
H21_4 C23_4 1_555 1_555
C24_4 C23_4 1_555 1_555
H22_4 C24_4 1_555 1_555
C25_4 C24_4 1_555 1_555
H23_4 C25_4 1_555 1_555
C26_4 C21_4 1_555 1_555
H24_4 C26_4 1_555 1_555
H27_4 C29_4 1_555 1_555
C30_4 C29_4 1_555 1_555
H28_4 C30_4 1_555 1_555
C31_4 C30_4 1_555 1_555
H29_4 C31_4 1_555 1_555
Lu3 O19_4 1_555 1_555
O19_4 N4_4 1_555 1_555
O20_4 Lu3 1_555 1_555
O21_4 N4_4 1_555 1_555
N4_4 O20_4 1_555 1_555
O22_4 Lu3 1_555 1_555
O23_4 Lu3 1_555 1_555
O24_4 N5_4 1_555 1_555
N5_4 O22_4 1_555 1_555
O25_4 Lu3 1_555 1_555
O26_4 Lu3 1_555 1_555
O27_4 N6_4 1_555 1_555
N6_4 O25_4 1_555 1_555
P2_4 C14_4 1_555 1_555
C19_4 C20_4 1_555 1_555
C25_4 C26_4 1_555 1_555
O23_4 N5_4 1_555 1_555
O26_4 N6_4 1_555 1_555
Lu1_5 O1_5 1_555 1_555
P1_5 O1_5 1_555 1_555
O2_7 C1_5 1_555 1_555
C1_5 P1_5 1_555 1_555
H1_5 C1_5 1_555 1_555
H2_5 C1_5 1_555 1_555
C2_5 P1_5 1_555 1_555
C3_5 C2_5 1_555 1_555
H3_5 C3_5 1_555 1_555
C4_5 C3_5 1_555 1_555
H4_5 C4_5 1_555 1_555
C5_5 C4_5 1_555 1_555
H5_5 C5_5 1_555 1_555
C6_5 C5_5 1_555 1_555
H6_5 C6_5 1_555 1_555
C7_5 C2_5 1_555 1_555
H7_5 C7_5 1_555 1_555
C8_5 P1_5 1_555 1_555
C9_5 C8_5 1_555 1_555
H8_5 C9_5 1_555 1_555
C10_5 C9_5 1_555 1_555
H9_5 C10_5 1_555 1_555
C11_5 C10_5 1_555 1_555
H10_5 C11_5 1_555 1_555
C12_5 C11_5 1_555 1_555
H11_5 C12_5 1_555 1_555
C13_5 C8_5 1_555 1_555
H12_5 C13_5 1_555 1_555
O3_5 Lu1_5 1_555 1_555
O4_5 Lu1_5 1_555 1_555
O5_5 N1_5 1_555 1_555
N1_5 O3_5 1_555 1_555
P2_5 O6_5 1_555 1_555
O6_5 Lu2_2 1_555 1_555
C14_5 O2_7 1_555 1_555
H13_5 C14_5 1_555 1_555
H14_5 C14_5 1_555 1_555
C15_5 P2_5 1_555 1_555
C16_5 C15_5 1_555 1_555
H15_5 C16_5 1_555 1_555
C17_5 C16_5 1_555 1_555
H16_5 C17_5 1_555 1_555
C18_5 C17_5 1_555 1_555
H17_5 C18_5 1_555 1_555
C19_5 C18_5 1_555 1_555
H18_5 C19_5 1_555 1_555
C20_5 C15_5 1_555 1_555
H19_5 C20_5 1_555 1_555
C21_5 P2_5 1_555 1_555
C22_5 C21_5 1_555 1_555
H20_5 C22_5 1_555 1_555
C23_5 C22_5 1_555 1_555
H21_5 C23_5 1_555 1_555
C24_5 C23_5 1_555 1_555
H22_5 C24_5 1_555 1_555
C25_5 C24_5 1_555 1_555
H23_5 C25_5 1_555 1_555
C26_5 C21_5 1_555 1_555
H24_5 C26_5 1_555 1_555
P3_5 O7_5 1_555 1_555
O7_5 Lu1_5 1_555 1_555
O8_7 C27_5 1_555 1_555
C27_5 P3_5 1_555 1_555
H25_5 C27_5 1_555 1_555
H26_5 C27_5 1_555 1_555
C28_5 P3_5 1_555 1_555
C29_5 C28_5 1_555 1_555
H27_5 C29_5 1_555 1_555
C30_5 C29_5 1_555 1_555
H28_5 C30_5 1_555 1_555
C31_5 C30_5 1_555 1_555
H29_5 C31_5 1_555 1_555
C32_5 C31_5 1_555 1_555
H30_5 C32_5 1_555 1_555
C33_5 C28_5 1_555 1_555
H31_5 C33_5 1_555 1_555
C34_5 P3_5 1_555 1_555
C35_5 C34_5 1_555 1_555
H32_5 C35_5 1_555 1_555
C36_5 C35_5 1_555 1_555
H33_5 C36_5 1_555 1_555
C37_5 C36_5 1_555 1_555
H34_5 C37_5 1_555 1_555
C38_5 C37_5 1_555 1_555
H35_5 C38_5 1_555 1_555
C39_5 C34_5 1_555 1_555
H36_5 C39_5 1_555 1_555
O9_5 Lu1_5 1_555 1_555
O10_5 Lu1_5 1_555 1_555
O11_5 N2_5 1_555 1_555
N2_5 O9_5 1_555 1_555
P4_5 O12_3 1_555 1_555
O12_3 Lu3_3 1_555 1_555
C40_5 O8_7 1_555 1_555
H37_5 C40_5 1_555 1_555
H38_5 C40_5 1_555 1_555
C41_5 P4_5 1_555 1_555
C42_5 C41_5 1_555 1_555
H39_5 C42_5 1_555 1_555
C43_5 C42_5 1_555 1_555
H40_5 C43_5 1_555 1_555
C44_5 C43_5 1_555 1_555
H41_5 C44_5 1_555 1_555
C45_5 C44_5 1_555 1_555
H42_5 C45_5 1_555 1_555
C46_5 C41_5 1_555 1_555
H43_5 C46_5 1_555 1_555
C47_5 P4_5 1_555 1_555
C48_5 C47_5 1_555 1_555
H44_5 C48_5 1_555 1_555
C49_5 C48_5 1_555 1_555
H45_5 C49_5 1_555 1_555
C50_5 C49_5 1_555 1_555
H46_5 C50_5 1_555 1_555
C51_5 C50_5 1_555 1_555
H47_5 C51_5 1_555 1_555
C52_5 C47_5 1_555 1_555
H48_5 C52_5 1_555 1_555
P5_5 O13_5 1_555 1_555
O13_5 Lu1_5 1_555 1_555
O14_7 C53_5 1_555 1_555
C53_5 P5_5 1_555 1_555
H49_5 C53_5 1_555 1_555
C54_5 P5_5 1_555 1_555
C55_5 C54_5 1_555 1_555
H51_5 C55_5 1_555 1_555
C56_5 C55_5 1_555 1_555
H52_5 C56_5 1_555 1_555
C57_5 C56_5 1_555 1_555
H53_5 C57_5 1_555 1_555
C58_5 C57_5 1_555 1_555
H54_5 C58_5 1_555 1_555
C59_5 C54_5 1_555 1_555
H55_5 C59_5 1_555 1_555
O15_5 Lu1_5 1_555 1_555
C74_5 C73_5 1_555 1_555
H68_5 C74_5 1_555 1_555
C75_5 C74_5 1_555 1_555
H69_5 C75_5 1_555 1_555
C76_5 C75_5 1_555 1_555
H70_5 C76_5 1_555 1_555
C77_5 C76_5 1_555 1_555
H71_5 C77_5 1_555 1_555
C78_5 C73_5 1_555 1_555
H72_5 C78_5 1_555 1_555
Lu2_2 O19_5 1_555 1_555
O19_5 N4_5 1_555 1_555
O20_5 Lu2_2 1_555 1_555
O21_5 N4_5 1_555 1_555
N4_5 O20_5 1_555 1_555
O22_5 Lu2_2 1_555 1_555
O23_5 Lu2_2 1_555 1_555
O24_5 N5_5 1_555 1_555
N5_5 O22_5 1_555 1_555
O25_5 Lu2_2 1_555 1_555
O26_5 Lu2_2 1_555 1_555
O27_5 N6_5 1_555 1_555
N6_5 O25_5 1_555 1_555
O28_3 Lu2_2 1_555 1_555
O29_3 Lu2_2 1_555 1_555
C6_5 C7_5 1_555 1_555
C12_5 C13_5 1_555 1_555
O4_5 N1_5 1_555 1_555
P2_5 C14_5 1_555 1_555
C19_5 C20_5 1_555 1_555
C25_5 C26_5 1_555 1_555
C32_5 C33_5 1_555 1_555
C38_5 C39_5 1_555 1_555
O10_5 N2_5 1_555 1_555
P4_5 C40_5 1_555 1_555
C45_5 C46_5 1_555 1_555
C51_5 C52_5 1_555 1_555
C58_5 C59_5 1_555 1_555
C77_5 C78_5 1_555 1_555
O23_5 N5_5 1_555 1_555
O26_5 N6_5 1_555 1_555
C61_5 C60_5 1_555 1_555
H56_5 C61_5 1_555 1_555
C62_5 C61_5 1_555 1_555
H57_5 C62_5 1_555 1_555
C63_5 C62_5 1_555 1_555
H58_5 C63_5 1_555 1_555
C64_5 C63_5 1_555 1_555
H59_5 C64_5 1_555 1_555
C65_5 C60_5 1_555 1_555
H60_5 C65_5 1_555 1_555
O17_5 N3_5 1_555 1_555
P6_5 O18_3 1_555 1_555
O18_3 Lu4_2 1_555 1_555
C66_5 O14_8 1_555 1_555
H61_5 C66_5 1_555 1_555
C67_5 P6_5 1_555 1_555
C68_5 C67_5 1_555 1_555
H63_5 C68_5 1_555 1_555
C69_5 C68_5 1_555 1_555
H64_5 C69_5 1_555 1_555
C70_5 C69_5 1_555 1_555
H65_5 C70_5 1_555 1_555
C71_5 C70_5 1_555 1_555
H66_5 C71_5 1_555 1_555
C72_5 C67_5 1_555 1_555
H67_5 C72_5 1_555 1_555
C64_5 C65_5 1_555 1_555
O16_5 N3_5 1_555 1_555
P6_5 C66_5 1_555 1_555
C71_5 C72_5 1_555 1_555
O27_6 N6_6 1_555 1_555
O26_6 N6_6 1_555 1_555
Lu1_6 O1_6 1_555 1_555
P1_6 O1_6 1_555 1_555
O2_8 C1_6 1_555 1_555
C1_6 P1_6 1_555 1_555
H1_6 C1_6 1_555 1_555
H2_6 C1_6 1_555 1_555
C2_6 P1_6 1_555 1_555
C3_6 C2_6 1_555 1_555
H3_6 C3_6 1_555 1_555
C4_6 C3_6 1_555 1_555
H4_6 C4_6 1_555 1_555
C5_6 C4_6 1_555 1_555
H5_6 C5_6 1_555 1_555
C6_6 C5_6 1_555 1_555
H6_6 C6_6 1_555 1_555
C7_6 C2_6 1_555 1_555
H7_6 C7_6 1_555 1_555
C8_6 P1_6 1_555 1_555
C9_6 C8_6 1_555 1_555
H8_6 C9_6 1_555 1_555
C10_6 C9_6 1_555 1_555
H9_6 C10_6 1_555 1_555
C11_6 C10_6 1_555 1_555
H10_6 C11_6 1_555 1_555
C12_6 C11_6 1_555 1_555
H11_6 C12_6 1_555 1_555
C13_6 C8_6 1_555 1_555
H12_6 C13_6 1_555 1_555
O3_6 Lu1_6 1_555 1_555
O4_6 Lu1_6 1_555 1_555
O5_6 N1_6 1_555 1_555
N1_6 O3_6 1_555 1_555
P2_6 O6_6 1_555 1_555
O6_6 Lu4_2 1_555 1_555
C14_6 O2_8 1_555 1_555
H13_6 C14_6 1_555 1_555
H14_6 C14_6 1_555 1_555
C15_6 P2_6 1_555 1_555
C16_6 C15_6 1_555 1_555
H15_6 C16_6 1_555 1_555
C17_6 C16_6 1_555 1_555
H16_6 C17_6 1_555 1_555
C18_6 C17_6 1_555 1_555
H17_6 C18_6 1_555 1_555
C19_6 C18_6 1_555 1_555
H18_6 C19_6 1_555 1_555
C20_6 C15_6 1_555 1_555
H19_6 C20_6 1_555 1_555
C21_6 P2_6 1_555 1_555
C22_6 C21_6 1_555 1_555
H20_6 C22_6 1_555 1_555
C23_6 C22_6 1_555 1_555
H21_6 C23_6 1_555 1_555
C24_6 C23_6 1_555 1_555
H22_6 C24_6 1_555 1_555
C25_6 C24_6 1_555 1_555
H23_6 C25_6 1_555 1_555
C26_6 C21_6 1_555 1_555
H24_6 C26_6 1_555 1_555
P3_6 O7_6 1_555 1_555
O7_6 Lu1_6 1_555 1_555
O8_8 C27_6 1_555 1_555
C27_6 P3_6 1_555 1_555
H25_6 C27_6 1_555 1_555
C28_6 P3_6 1_555 1_555
C29_6 C28_6 1_555 1_555
H27_6 C29_6 1_555 1_555
C30_6 C29_6 1_555 1_555
H28_6 C30_6 1_555 1_555
C31_6 C30_6 1_555 1_555
H29_6 C31_6 1_555 1_555
C32_6 C31_6 1_555 1_555
H30_6 C32_6 1_555 1_555
C33_6 C28_6 1_555 1_555
H31_6 C33_6 1_555 1_555
O9_6 Lu1_6 1_555 1_555
C48_6 C47_6 1_555 1_555
H44_6 C48_6 1_555 1_555
C49_6 C48_6 1_555 1_555
H45_6 C49_6 1_555 1_555
C50_6 C49_6 1_555 1_555
H46_6 C50_6 1_555 1_555
C51_6 C50_6 1_555 1_555
H47_6 C51_6 1_555 1_555
C52_6 C47_6 1_555 1_555
H48_6 C52_6 1_555 1_555
P5_6 O13_6 1_555 1_555
O13_6 Lu1_6 1_555 1_555
O14_9 C53_6 1_555 1_555
C53_6 P5_6 1_555 1_555
H49_6 C53_6 1_555 1_555
H50_6 C53_6 1_555 1_555
C54_6 P5_6 1_555 1_555
C55_6 C54_6 1_555 1_555
H51_6 C55_6 1_555 1_555
C56_6 C55_6 1_555 1_555
H52_6 C56_6 1_555 1_555
C57_6 C56_6 1_555 1_555
H53_6 C57_6 1_555 1_555
C58_6 C57_6 1_555 1_555
H54_6 C58_6 1_555 1_555
C59_6 C54_6 1_555 1_555
H55_6 C59_6 1_555 1_555
C60_6 P5_6 1_555 1_555
C61_6 C60_6 1_555 1_555
H56_6 C61_6 1_555 1_555
C62_6 C61_6 1_555 1_555
H57_6 C62_6 1_555 1_555
C63_6 C62_6 1_555 1_555
H58_6 C63_6 1_555 1_555
C64_6 C63_6 1_555 1_555
H59_6 C64_6 1_555 1_555
C65_6 C60_6 1_555 1_555
H60_6 C65_6 1_555 1_555
O15_6 Lu1_6 1_555 1_555
O16_6 Lu1_6 1_555 1_555
O17_6 N3_6 1_555 1_555
N3_6 O15_6 1_555 1_555
P6_6 O29_3 1_555 1_555
C66_6 O14_9 1_555 1_555
H61_6 C66_6 1_555 1_555
H62_6 C66_6 1_555 1_555
C67_6 P6_6 1_555 1_555
C68_6 C67_6 1_555 1_555
H63_6 C68_6 1_555 1_555
C69_6 C68_6 1_555 1_555
H64_6 C69_6 1_555 1_555
C70_6 C69_6 1_555 1_555
H65_6 C70_6 1_555 1_555
C71_6 C70_6 1_555 1_555
H66_6 C71_6 1_555 1_555
C72_6 C67_6 1_555 1_555
H67_6 C72_6 1_555 1_555
C73_6 P6_6 1_555 1_555
C74_6 C73_6 1_555 1_555
H68_6 C74_6 1_555 1_555
C75_6 C74_6 1_555 1_555
H69_6 C75_6 1_555 1_555
C76_6 C75_6 1_555 1_555
H70_6 C76_6 1_555 1_555
C77_6 C76_6 1_555 1_555
H71_6 C77_6 1_555 1_555
C78_6 C73_6 1_555 1_555
H72_6 C78_6 1_555 1_555
Lu4_2 O19_6 1_555 1_555
O19_6 N4_6 1_555 1_555
O20_6 Lu4_2 1_555 1_555
O21_6 N4_6 1_555 1_555
N4_6 O20_6 1_555 1_555
O22_6 Lu4_2 1_555 1_555
O25_6 Lu4_2 1_555 1_555
O28_4 Lu4_2 1_555 1_555
C6_6 C7_6 1_555 1_555
C12_6 C13_6 1_555 1_555
O4_6 N1_6 1_555 1_555
P2_6 C14_6 1_555 1_555
C19_6 C20_6 1_555 1_555
C25_6 C26_6 1_555 1_555
C32_6 C33_6 1_555 1_555
C51_6 C52_6 1_555 1_555
C58_6 C59_6 1_555 1_555
C64_6 C65_6 1_555 1_555
O16_6 N3_6 1_555 1_555
P6_6 C66_6 1_555 1_555
C71_6 C72_6 1_555 1_555
C77_6 C78_6 1_555 1_555
C35_6 C34_6 1_555 1_555
H32_6 C35_6 1_555 1_555
C36_6 C35_6 1_555 1_555
H33_6 C36_6 1_555 1_555
C37_6 C36_6 1_555 1_555
H34_6 C37_6 1_555 1_555
C38_6 C37_6 1_555 1_555
H35_6 C38_6 1_555 1_555
C39_6 C34_6 1_555 1_555
H36_6 C39_6 1_555 1_555
O11_6 N2_6 1_555 1_555
P4_6 O12_4 1_555 1_555
O12_4 Lu3_4 1_555 1_555
C40_6 O8_9 1_555 1_555
H37_6 C40_6 1_555 1_555
C41_6 P4_6 1_555 1_555
C42_6 C41_6 1_555 1_555
H39_6 C42_6 1_555 1_555
C43_6 C42_6 1_555 1_555
H40_6 C43_6 1_555 1_555
C44_6 C43_6 1_555 1_555
H41_6 C44_6 1_555 1_555
C45_6 C44_6 1_555 1_555
H42_6 C45_6 1_555 1_555
C46_6 C41_6 1_555 1_555
H43_6 C46_6 1_555 1_555
O24_6 N5_6 1_555 1_555
C38_6 C39_6 1_555 1_555
O10_6 N2_6 1_555 1_555
P4_6 C40_6 1_555 1_555
C45_6 C46_6 1_555 1_555
O23_6 N5_6 1_555 1_555
O24_7 N5_7 1_555 1_555
O23_7 N5_7 1_555 1_555
C35_7 C34_7 1_555 1_555
H32_7 C35_7 1_555 1_555
C36_7 C35_7 1_555 1_555
H33_7 C36_7 1_555 1_555
C37_7 C36_7 1_555 1_555
H34_7 C37_7 1_555 1_555
C38_7 C37_7 1_555 1_555
H35_7 C38_7 1_555 1_555
C39_7 C34_7 1_555 1_555
H36_7 C39_7 1_555 1_555
O11_7 N2_7 1_555 1_555
P4_7 O28_4 1_555 1_555
C40_7 O8_10 1_555 1_555
H37_7 C40_7 1_555 1_555
C41_7 P4_7 1_555 1_555
C42_7 C41_7 1_555 1_555
H39_7 C42_7 1_555 1_555
C43_7 C42_7 1_555 1_555
H40_7 C43_7 1_555 1_555
C44_7 C43_7 1_555 1_555
H41_7 C44_7 1_555 1_555
C45_7 C44_7 1_555 1_555
H42_7 C45_7 1_555 1_555
C46_7 C41_7 1_555 1_555
H43_7 C46_7 1_555 1_555
C38_7 C39_7 1_555 1_555
O10_7 N2_7 1_555 1_555
P4_7 C40_7 1_555 1_555
C45_7 C46_7 1_555 1_555
C9_7 C8_7 1_555 1_555
H8_7 C9_7 1_555 1_555
C10_7 C9_7 1_555 1_555
H9_7 C10_7 1_555 1_555
C11_7 C10_7 1_555 1_555
H10_7 C11_7 1_555 1_555
C12_7 C11_7 1_555 1_555
H11_7 C12_7 1_555 1_555
C13_7 C8_7 1_555 1_555
H12_7 C13_7 1_555 1_555
O5_7 N1_7 1_555 1_555
P2_7 O6_7 1_555 1_555
O6_7 Lu3_4 1_555 1_555
C14_7 O2_9 1_555 1_555
H13_7 C14_7 1_555 1_555
C15_7 P2_7 1_555 1_555
C16_7 C15_7 1_555 1_555
H15_7 C16_7 1_555 1_555
C17_7 C16_7 1_555 1_555
H16_7 C17_7 1_555 1_555
C18_7 C17_7 1_555 1_555
H17_7 C18_7 1_555 1_555
C19_7 C18_7 1_555 1_555
H18_7 C19_7 1_555 1_555
C20_7 C15_7 1_555 1_555
H19_7 C20_7 1_555 1_555
Lu3_4 O19_7 1_555 1_555
O22_7 Lu3_4 1_555 1_555
O25_7 Lu3_4 1_555 1_555
O26_7 Lu3_4 1_555 1_555
O27_7 N6_7 1_555 1_555
N6_7 O25_7 1_555 1_555
O29_4 Lu3_4 1_555 1_555
C12_7 C13_7 1_555 1_555
O4_7 N1_7 1_555 1_555
P2_7 C14_7 1_555 1_555
C19_7 C20_7 1_555 1_555
O26_7 N6_7 1_555 1_555
C61_7 C60_7 1_555 1_555
H56_7 C61_7 1_555 1_555
C62_7 C61_7 1_555 1_555
H57_7 C62_7 1_555 1_555
C63_7 C62_7 1_555 1_555
H58_7 C63_7 1_555 1_555
C64_7 C63_7 1_555 1_555
H59_7 C64_7 1_555 1_555
C65_7 C60_7 1_555 1_555
H60_7 C65_7 1_555 1_555
O17_7 N3_7 1_555 1_555
P6_7 O18_4 1_555 1_555
O18_4 Lu3_3 1_555 1_555
C66_7 O14_10 1_555 1_555
H61_7 C66_7 1_555 1_555
C67_7 P6_7 1_555 1_555
C68_7 C67_7 1_555 1_555
H63_7 C68_7 1_555 1_555
C69_7 C68_7 1_555 1_555
H64_7 C69_7 1_555 1_555
C70_7 C69_7 1_555 1_555
H65_7 C70_7 1_555 1_555
C71_7 C70_7 1_555 1_555
H66_7 C71_7 1_555 1_555
C72_7 C67_7 1_555 1_555
H67_7 C72_7 1_555 1_555
C64_7 C65_7 1_555 1_555
O16_7 N3_7 1_555 1_555
P6_7 C66_7 1_555 1_555
C71_7 C72_7 1_555 1_555
Lu1_7 O1_7 1_555 1_555
P1_7 O1_7 1_555 1_555
O2_10 C1_7 1_555 1_555
C1_7 P1_7 1_555 1_555
H1_7 C1_7 1_555 1_555
C2_7 P1_7 1_555 1_555
C3_7 C2_7 1_555 1_555
H3_7 C3_7 1_555 1_555
C4_7 C3_7 1_555 1_555
H4_7 C4_7 1_555 1_555
C5_7 C4_7 1_555 1_555
H5_7 C5_7 1_555 1_555
C6_7 C5_7 1_555 1_555
H6_7 C6_7 1_555 1_555
C7_7 C2_7 1_555 1_555
H7_7 C7_7 1_555 1_555
O3_7 Lu1_7 1_555 1_555
C22_7 C21_7 1_555 1_555
H20_7 C22_7 1_555 1_555
C23_7 C22_7 1_555 1_555
H21_7 C23_7 1_555 1_555
C24_7 C23_7 1_555 1_555
H22_7 C24_7 1_555 1_555
C25_7 C24_7 1_555 1_555
H23_7 C25_7 1_555 1_555
C26_7 C21_7 1_555 1_555
H24_7 C26_7 1_555 1_555
P3_7 O7_7 1_555 1_555
O7_7 Lu1_7 1_555 1_555
O8_11 C27_7 1_555 1_555
C27_7 P3_7 1_555 1_555
H25_7 C27_7 1_555 1_555
C28_7 P3_7 1_555 1_555
C29_7 C28_7 1_555 1_555
H27_7 C29_7 1_555 1_555
C30_7 C29_7 1_555 1_555
H28_7 C30_7 1_555 1_555
C31_7 C30_7 1_555 1_555
H29_7 C31_7 1_555 1_555
C32_7 C31_7 1_555 1_555
H30_7 C32_7 1_555 1_555
C33_7 C28_7 1_555 1_555
H31_7 C33_7 1_555 1_555
O9_7 Lu1_7 1_555 1_555
C48_7 C47_7 1_555 1_555
H44_7 C48_7 1_555 1_555
C49_7 C48_7 1_555 1_555
H45_7 C49_7 1_555 1_555
C50_7 C49_7 1_555 1_555
H46_7 C50_7 1_555 1_555
C51_7 C50_7 1_555 1_555
H47_7 C51_7 1_555 1_555
C52_7 C47_7 1_555 1_555
H48_7 C52_7 1_555 1_555
P5_7 O13_7 1_555 1_555
O13_7 Lu1_7 1_555 1_555
O14_11 C53_7 1_555 1_555
C53_7 P5_7 1_555 1_555
H49_7 C53_7 1_555 1_555
C54_7 P5_7 1_555 1_555
C55_7 C54_7 1_555 1_555
H51_7 C55_7 1_555 1_555
C56_7 C55_7 1_555 1_555
H52_7 C56_7 1_555 1_555
C57_7 C56_7 1_555 1_555
H53_7 C57_7 1_555 1_555
C58_7 C57_7 1_555 1_555
H54_7 C58_7 1_555 1_555
C59_7 C54_7 1_555 1_555
H55_7 C59_7 1_555 1_555
O15_7 Lu1_7 1_555 1_555
C74_7 C73_7 1_555 1_555
H68_7 C74_7 1_555 1_555
C75_7 C74_7 1_555 1_555
H69_7 C75_7 1_555 1_555
C76_7 C75_7 1_555 1_555
H70_7 C76_7 1_555 1_555
C77_7 C76_7 1_555 1_555
H71_7 C77_7 1_555 1_555
C78_7 C73_7 1_555 1_555
H72_7 C78_7 1_555 1_555
O21_7 N4_7 1_555 1_555
N4_7 O20_7 1_555 1_555
C6_7 C7_7 1_555 1_555
C25_7 C26_7 1_555 1_555
C32_7 C33_7 1_555 1_555
C51_7 C52_7 1_555 1_555
C58_7 C59_7 1_555 1_555
C77_7 C78_7 1_555 1_555
Lu1_8 O1_8 1_555 1_555
P1_8 O1_8 1_555 1_555
O2_11 C1_8 1_555 1_555
C1_8 P1_8 1_555 1_555
H1_8 C1_8 1_555 1_555
C2_8 P1_8 1_555 1_555
C3_8 C2_8 1_555 1_555
H3_8 C3_8 1_555 1_555
C4_8 C3_8 1_555 1_555
H4_8 C4_8 1_555 1_555
C5_8 C4_8 1_555 1_555
H5_8 C5_8 1_555 1_555
C6_8 C5_8 1_555 1_555
H6_8 C6_8 1_555 1_555
C7_8 C2_8 1_555 1_555
H7_8 C7_8 1_555 1_555
O3_8 Lu1_8 1_555 1_555
C22_8 C21_8 1_555 1_555
H20_8 C22_8 1_555 1_555
C23_8 C22_8 1_555 1_555
H21_8 C23_8 1_555 1_555
C24_8 C23_8 1_555 1_555
H22_8 C24_8 1_555 1_555
C25_8 C24_8 1_555 1_555
H23_8 C25_8 1_555 1_555
C26_8 C21_8 1_555 1_555
H24_8 C26_8 1_555 1_555
P3_8 O7_8 1_555 1_555
O7_8 Lu1_8 1_555 1_555
O8_12 C27_8 1_555 1_555
C27_8 P3_8 1_555 1_555
H25_8 C27_8 1_555 1_555
H26_8 C27_8 1_555 1_555
C28_8 P3_8 1_555 1_555
C29_8 C28_8 1_555 1_555
H27_8 C29_8 1_555 1_555
C30_8 C29_8 1_555 1_555
H28_8 C30_8 1_555 1_555
C31_8 C30_8 1_555 1_555
H29_8 C31_8 1_555 1_555
C32_8 C31_8 1_555 1_555
H30_8 C32_8 1_555 1_555
C33_8 C28_8 1_555 1_555
H31_8 C33_8 1_555 1_555
C34_8 P3_8 1_555 1_555
C35_8 C34_8 1_555 1_555
H32_8 C35_8 1_555 1_555
C36_8 C35_8 1_555 1_555
H33_8 C36_8 1_555 1_555
C37_8 C36_8 1_555 1_555
H34_8 C37_8 1_555 1_555
C38_8 C37_8 1_555 1_555
H35_8 C38_8 1_555 1_555
C39_8 C34_8 1_555 1_555
H36_8 C39_8 1_555 1_555
O9_8 Lu1_8 1_555 1_555
O10_8 Lu1_8 1_555 1_555
O11_8 N2_8 1_555 1_555
N2_8 O9_8 1_555 1_555
P4_8 O28_3 1_555 1_555
C40_8 O8_12 1_555 1_555
H37_8 C40_8 1_555 1_555
H38_8 C40_8 1_555 1_555
C41_8 P4_8 1_555 1_555
C42_8 C41_8 1_555 1_555
H39_8 C42_8 1_555 1_555
C43_8 C42_8 1_555 1_555
H40_8 C43_8 1_555 1_555
C44_8 C43_8 1_555 1_555
H41_8 C44_8 1_555 1_555
C45_8 C44_8 1_555 1_555
H42_8 C45_8 1_555 1_555
C46_8 C41_8 1_555 1_555
H43_8 C46_8 1_555 1_555
C47_8 P4_8 1_555 1_555
C48_8 C47_8 1_555 1_555
H44_8 C48_8 1_555 1_555
C49_8 C48_8 1_555 1_555
H45_8 C49_8 1_555 1_555
C50_8 C49_8 1_555 1_555
H46_8 C50_8 1_555 1_555
C51_8 C50_8 1_555 1_555
H47_8 C51_8 1_555 1_555
C52_8 C47_8 1_555 1_555
H48_8 C52_8 1_555 1_555
P5_8 O13_8 1_555 1_555
O13_8 Lu1_8 1_555 1_555
O14_12 C53_8 1_555 1_555
C53_8 P5_8 1_555 1_555
H49_8 C53_8 1_555 1_555
H50_8 C53_8 1_555 1_555
C54_8 P5_8 1_555 1_555
C55_8 C54_8 1_555 1_555
H51_8 C55_8 1_555 1_555
C56_8 C55_8 1_555 1_555
H52_8 C56_8 1_555 1_555
C57_8 C56_8 1_555 1_555
H53_8 C57_8 1_555 1_555
C58_8 C57_8 1_555 1_555
H54_8 C58_8 1_555 1_555
C59_8 C54_8 1_555 1_555
H55_8 C59_8 1_555 1_555
C60_8 P5_8 1_555 1_555
C61_8 C60_8 1_555 1_555
H56_8 C61_8 1_555 1_555
C62_8 C61_8 1_555 1_555
H57_8 C62_8 1_555 1_555
C63_8 C62_8 1_555 1_555
H58_8 C63_8 1_555 1_555
C64_8 C63_8 1_555 1_555
H59_8 C64_8 1_555 1_555
C65_8 C60_8 1_555 1_555
H60_8 C65_8 1_555 1_555
O15_8 Lu1_8 1_555 1_555
O16_8 Lu1_8 1_555 1_555
O17_8 N3_8 1_555 1_555
N3_8 O15_8 1_555 1_555
P6_8 O29_4 1_555 1_555
C66_8 O14_12 1_555 1_555
H61_8 C66_8 1_555 1_555
H62_8 C66_8 1_555 1_555
C67_8 P6_8 1_555 1_555
C68_8 C67_8 1_555 1_555
H63_8 C68_8 1_555 1_555
C69_8 C68_8 1_555 1_555
H64_8 C69_8 1_555 1_555
C70_8 C69_8 1_555 1_555
H65_8 C70_8 1_555 1_555
C71_8 C70_8 1_555 1_555
H66_8 C71_8 1_555 1_555
C72_8 C67_8 1_555 1_555
H67_8 C72_8 1_555 1_555
C73_8 P6_8 1_555 1_555
C74_8 C73_8 1_555 1_555
H68_8 C74_8 1_555 1_555
C75_8 C74_8 1_555 1_555
H69_8 C75_8 1_555 1_555
C76_8 C75_8 1_555 1_555
H70_8 C76_8 1_555 1_555
C77_8 C76_8 1_555 1_555
H71_8 C77_8 1_555 1_555
C78_8 C73_8 1_555 1_555
H72_8 C78_8 1_555 1_555
O21_8 N4_8 1_555 1_555
N4_8 O20_8 1_555 1_555
C6_8 C7_8 1_555 1_555
C25_8 C26_8 1_555 1_555
C32_8 C33_8 1_555 1_555
C38_8 C39_8 1_555 1_555
O10_8 N2_8 1_555 1_555
P4_8 C40_8 1_555 1_555
C45_8 C46_8 1_555 1_555
C51_8 C52_8 1_555 1_555
C58_8 C59_8 1_555 1_555
C64_8 C65_8 1_555 1_555
O16_8 N3_8 1_555 1_555
P6_8 C66_8 1_555 1_555
C71_8 C72_8 1_555 1_555
C77_8 C78_8 1_555 1_555
C9_8 C8_8 1_555 1_555
H8_8 C9_8 1_555 1_555
C10_8 C9_8 1_555 1_555
H9_8 C10_8 1_555 1_555
C11_8 C10_8 1_555 1_555
H10_8 C11_8 1_555 1_555
C12_8 C11_8 1_555 1_555
H11_8 C12_8 1_555 1_555
C13_8 C8_8 1_555 1_555
H12_8 C13_8 1_555 1_555
O5_8 N1_8 1_555 1_555
P2_8 O6_8 1_555 1_555
O6_8 Lu3_3 1_555 1_555
C14_8 O2_12 1_555 1_555
H13_8 C14_8 1_555 1_555
C15_8 P2_8 1_555 1_555
C16_8 C15_8 1_555 1_555
H15_8 C16_8 1_555 1_555
C17_8 C16_8 1_555 1_555
H16_8 C17_8 1_555 1_555
C18_8 C17_8 1_555 1_555
H17_8 C18_8 1_555 1_555
C19_8 C18_8 1_555 1_555
H18_8 C19_8 1_555 1_555
C20_8 C15_8 1_555 1_555
H19_8 C20_8 1_555 1_555
Lu3_3 O19_8 1_555 1_555
O22_8 Lu3_3 1_555 1_555
O23_8 Lu3_3 1_555 1_555
O24_8 N5_8 1_555 1_555
N5_8 O22_8 1_555 1_555
O25_8 Lu3_3 1_555 1_555
C12_8 C13_8 1_555 1_555
O4_8 N1_8 1_555 1_555
P2_8 C14_8 1_555 1_555
C19_8 C20_8 1_555 1_555
O23_8 N5_8 1_555 1_555
O27_8 N6_8 1_555 1_555
O26_8 N6_8 1_555 1_555

#END
