
###############################################################################
#
# This file contains modified crystal structure data generated from the
# MOF subset of the Cambridge Structural Database (CSD) v543 
# hosted by the Cambridge Crystallographic Data Centre (CCDC).
#
# This work is licensed under the Creative Commons
# Attribution-NonCommercial-ShareAlike 4.0 International License.
# To view a copy of this license, visit
# http://creativecommons.org/licenses/by-nc-sa/4.0/
# or send a letter to
# Creative Commons, PO Box 1866, Mountain View, CA 94042, USA.
#
# CIF created using the CSD Python API on 29 September 2022
# The structure has been converted into the P1 space group
# The structure has a 3D framework
# The original CSD entry VIMRAM is in the tetragonal crystal system
# The framework has been calculated to contain at least 10.0% void space
# The void calculation uses a probe of radius 1.32A, grid spacing 0.4
#
###############################################################################

data_VIMRAM
_chemical_formula_moiety         '(C112 H72 Cu16 O84 S16)n'
_symmetry_cell_setting           triclinic
_symmetry_space_group_name_H-M   'P 1'
_symmetry_Int_Tables_number      1
_space_group_name_Hall           'P 1'
loop_
_symmetry_equiv_pos_site_id
_symmetry_equiv_pos_as_xyz
1 x,y,z
_cell_length_a                   24.1267(4)
_cell_length_b                   24.1267(4)
_cell_length_c                   11.3077(4)
_cell_angle_alpha                90
_cell_angle_beta                 90
_cell_angle_gamma                90
_cell_volume                     6582.19
loop_
_atom_site_label
_atom_site_type_symbol
_atom_site_fract_x
_atom_site_fract_y
_atom_site_fract_z
O4 O 0.53538(13) 0.84798(11) 0.0174(3)
O8 O 0.46971(15) 0.60707(12) 0.0414(3)
O9 O 0.56161(18) 0.64842(16) 0.0642(4)
H7 H 0.5294 0.7456 0.0160
Cu3 Cu 0.462463(18) 0.50850(2) 0.10150(4)
Cu7 Cu 0.54413(2) 0.90135(2) 0.14732(5)
Cu2 Cu 0.59865(2) 0.54413(2) 0.14732(5)
O1 O 0.55293(12) 0.56115(14) 0.2840(3)
O2 O 0.46950(11) 0.52079(13) 0.2678(2)
O3 O 0.48147(13) 0.88395(11) 0.8769(3)
O5 O 0.33321(17) 0.5263(3) 0.5789(4)
O6 O 0.36639(12) 0.54173(13) 0.7766(3)
O7 O 0.3305(2) 0.6172(2) 0.6660(4)
O10 O 0.54199(16) 0.59180(13) 0.8950(4)
O11 O 0.54234(9) 0.49747(11) 0.0729(2)
H1 H 0.5461 0.4672 0.1048
O12 O 0.44732(15) 0.62987(12) 0.7738(3)
S1 S 0.35846(5) 0.56456(7) 0.66016(11)
S2 S 0.51978(6) 0.62974(5) 0.98420(14)
O13 O 0.65446(15) 0.59256(17) 0.2245(4)
H2 H 0.6916 0.5805 0.2149
H3 H 0.6556 0.6305 0.1987
C1 C 0.49113(17) 0.56937(16) 0.4439(4)
C2 C 0.44013(16) 0.55782(17) 0.4923(4)
H4 H 0.4153 0.5356 0.4509
C3 C 0.42530(17) 0.57869(17) 0.6016(4)
C4 C 0.4627(2) 0.61095(17) 0.6615(4)
C5 C 0.5134(2) 0.6212(2) 0.6165(4)
H5 H 0.5386 0.6422 0.6599
C6 C 0.5285(2) 0.6010(2) 0.5064(4)
H6 H 0.5634 0.6087 0.4752
C7 C 0.4658(2) 0.68249(18) 0.8059(4)
C8 C 0.49618(18) 0.68848(16) 0.9067(4)
C9 C 0.50922(18) 0.74128(17) 0.9465(4)
C10 C 0.49230(18) 0.78792(16) 0.8834(3)
C11 C 0.4627(2) 0.78017(18) 0.7802(4)
H8 H 0.4514 0.8108 0.7364
C12 C 0.4498(2) 0.7279(2) 0.7415(4)
H9 H 0.4301 0.7233 0.6715
C13 C 0.50639(18) 0.54816(17) 0.3219(4)
C14 C 0.50408(18) 0.84490(16) 0.9303(4)
Cu5 Cu 0.537537(18) 0.49150(2) 0.89850(4)
Cu6 Cu 0.49150(2) 0.962463(18) 0.89850(4)
Cu8 Cu 0.40135(2) 0.45587(2) 0.85268(5)
O14 O 0.38395(11) 0.51853(13) 0.1231(3)
O15 O 0.65202(11) 0.53538(13) 0.0174(3)
O16 O 0.63361(12) 0.45827(13) 0.2234(3)
O18 O 0.45801(16) 0.40820(13) 0.1050(4)
O19 O 0.45766(9) 0.50253(11) 0.9271(2)
O8_2 O 0.03029(15) 0.89293(12) 0.0414(3)
Cu3_2 Cu 0.037537(18) 0.99150(2) 0.10150(4)
O2_2 O 0.03050(11) 0.97921(13) 0.2678(2)
O3_2 O 0.01853(13) 0.61605(11) 0.8769(3)
O5_2 O 0.16679(17) 0.9737(3) 0.5789(4)
O6_2 O 0.13361(12) 0.95827(13) 0.7766(3)
O7_2 O 0.1695(2) 0.8828(2) 0.6660(4)
O12_2 O 0.05268(15) 0.87013(12) 0.7738(3)
S1_2 S 0.14154(5) 0.93544(7) 0.66016(11)
C1_2 C 0.00887(17) 0.93063(16) 0.4439(4)
C2_2 C 0.05987(16) 0.94218(17) 0.4923(4)
H4_2 H 0.0847 0.9644 0.4509
C3_2 C 0.07470(17) 0.92131(17) 0.6016(4)
C4_2 C 0.0373(2) 0.88905(17) 0.6615(4)
C7_2 C 0.0342(2) 0.81751(18) 0.8059(4)
C8_2 C 0.00382(18) 0.81152(16) 0.9067(4)
C10_2 C 0.00770(18) 0.71208(16) 0.8834(3)
C11_2 C 0.0373(2) 0.71983(18) 0.7802(4)
H8_2 H 0.0486 0.6892 0.7364
C12_2 C 0.0502(2) 0.7721(2) 0.7415(4)
H9_2 H 0.0699 0.7767 0.6715
Cu6_2 Cu 0.00850(2) 0.537537(18) 0.89850(4)
O14_2 O 0.11605(11) 0.98147(13) 0.1231(3)
O19_2 O 0.04234(9) 0.99747(11) 0.9271(2)
O11_2 O 0.95766(9) 0.00253(11) 0.0729(2)
H1_2 H 0.9539 0.0328 0.1048
Cu5_2 Cu 0.962463(18) 0.00850(2) 0.89850(4)
O16_2 O 0.86639(12) 0.04173(13) 0.2234(3)
O4_2 O 0.96462(13) 0.65202(11) 0.0174(3)
O9_2 O 0.93839(18) 0.85158(16) 0.0642(4)
H7_2 H 0.9706 0.7544 0.0160
Cu7_2 Cu 0.95587(2) 0.59865(2) 0.14732(5)
O11_3 O 0.00253(11) 0.54234(9) 0.0729(2)
H1_3 H 0.0328 0.5461 0.1048
Cu8_2 Cu 0.04413(2) 0.40135(2) 0.85268(5)
O16_3 O 0.04173(13) 0.63361(12) 0.2234(3)
O18_2 O 0.09180(13) 0.45801(16) 0.1050(4)
O8_3 O 0.89293(12) 0.46971(15) 0.0414(3)
O9_3 O 0.85158(16) 0.56161(18) 0.0642(4)
H7_3 H 0.7544 0.5294 0.0160
Cu3_3 Cu 0.99150(2) 0.462463(18) 0.10150(4)
O1_2 O 0.93885(14) 0.55293(12) 0.2840(3)
O2_3 O 0.97921(13) 0.46950(11) 0.2678(2)
O3_3 O 0.61605(11) 0.48147(13) 0.8769(3)
O5_3 O 0.9737(3) 0.33321(17) 0.5789(4)
O6_3 O 0.95827(13) 0.36639(12) 0.7766(3)
O7_3 O 0.8828(2) 0.3305(2) 0.6660(4)
O10_2 O 0.90820(13) 0.54199(16) 0.8950(4)
O12_3 O 0.87013(12) 0.44732(15) 0.7738(3)
S1_3 S 0.93544(7) 0.35846(5) 0.66016(11)
S2_2 S 0.87026(5) 0.51978(6) 0.98420(14)
O13_2 O 0.90744(17) 0.65446(15) 0.2245(4)
H2_2 H 0.9195 0.6916 0.2149
H3_2 H 0.8695 0.6556 0.1987
C1_3 C 0.93063(16) 0.49113(17) 0.4439(4)
C2_3 C 0.94218(17) 0.44013(16) 0.4923(4)
H4_3 H 0.9644 0.4153 0.4509
C3_3 C 0.92131(17) 0.42530(17) 0.6016(4)
C4_3 C 0.88905(17) 0.4627(2) 0.6615(4)
C5_2 C 0.8788(2) 0.5134(2) 0.6165(4)
H5_2 H 0.8578 0.5386 0.6599
C6_2 C 0.8990(2) 0.5285(2) 0.5064(4)
H6_2 H 0.8913 0.5634 0.4752
C7_3 C 0.81751(18) 0.4658(2) 0.8059(4)
C8_3 C 0.81152(16) 0.49618(18) 0.9067(4)
C9_2 C 0.75872(17) 0.50922(18) 0.9465(4)
C10_3 C 0.71208(16) 0.49230(18) 0.8834(3)
C11_3 C 0.71983(18) 0.4627(2) 0.7802(4)
H8_3 H 0.6892 0.4514 0.7364
C12_3 C 0.7721(2) 0.4498(2) 0.7415(4)
H9_3 H 0.7767 0.4301 0.6715
C13_2 C 0.95184(17) 0.50639(18) 0.3219(4)
C14_2 C 0.65510(16) 0.50408(18) 0.9303(4)
O14_3 O 0.98147(13) 0.38395(11) 0.1231(3)
O19_3 O 0.99747(11) 0.45766(9) 0.9271(2)
O8_4 O 0.60707(12) 0.03029(15) 0.0414(3)
Cu3_4 Cu 0.50850(2) 0.037537(18) 0.10150(4)
O2_4 O 0.52079(13) 0.03050(11) 0.2678(2)
O3_4 O 0.88395(11) 0.01853(13) 0.8769(3)
O5_4 O 0.5263(3) 0.16679(17) 0.5789(4)
O6_4 O 0.54173(13) 0.13361(12) 0.7766(3)
O7_4 O 0.6172(2) 0.1695(2) 0.6660(4)
O12_4 O 0.62987(12) 0.05268(15) 0.7738(3)
S1_4 S 0.56456(7) 0.14154(5) 0.66016(11)
C1_4 C 0.56937(16) 0.00887(17) 0.4439(4)
C2_4 C 0.55782(17) 0.05987(16) 0.4923(4)
H4_4 H 0.5356 0.0847 0.4509
C3_4 C 0.57869(17) 0.07470(17) 0.6016(4)
C4_4 C 0.61095(17) 0.0373(2) 0.6615(4)
C7_4 C 0.68249(18) 0.0342(2) 0.8059(4)
C8_4 C 0.68848(16) 0.00382(18) 0.9067(4)
C10_4 C 0.78792(16) 0.00770(18) 0.8834(3)
C11_4 C 0.78017(18) 0.0373(2) 0.7802(4)
H8_4 H 0.8108 0.0486 0.7364
C12_4 C 0.7279(2) 0.0502(2) 0.7415(4)
H9_4 H 0.7233 0.0699 0.6715
Cu8_3 Cu 0.45587(2) 0.09865(2) 0.85268(5)
O14_4 O 0.51853(13) 0.11605(11) 0.1231(3)
O18_3 O 0.40820(13) 0.04199(16) 0.1050(4)
O19_4 O 0.50253(11) 0.04234(9) 0.9271(2)
O1_3 O 0.56115(14) 0.94707(12) 0.2840(3)
O10_3 O 0.59180(13) 0.95801(16) 0.8950(4)
O11_4 O 0.49747(11) 0.95766(9) 0.0729(2)
H1_4 H 0.4672 0.9539 0.1048
S2_3 S 0.62974(5) 0.98022(6) 0.98420(14)
O13_3 O 0.59256(17) 0.84554(15) 0.2245(4)
H2_3 H 0.5805 0.8084 0.2149
H3_3 H 0.6305 0.8444 0.1987
C5_3 C 0.6212(2) 0.9866(2) 0.6165(4)
H5_3 H 0.6422 0.9614 0.6599
C6_3 C 0.6010(2) 0.9715(2) 0.5064(4)
H6_3 H 0.6087 0.9366 0.4752
C9_3 C 0.74128(17) 0.99078(18) 0.9465(4)
C13_3 C 0.54816(17) 0.99361(18) 0.3219(4)
C14_3 C 0.84490(16) 0.99592(18) 0.9303(4)
O16_4 O 0.45827(13) 0.86639(12) 0.2234(3)
O1_4 O 0.44707(12) 0.43885(14) 0.7160(3)
O2_5 O 0.53050(11) 0.47921(13) 0.7322(2)
O5_5 O 0.66679(17) 0.4737(3) 0.4211(4)
O7_5 O 0.6695(2) 0.3828(2) 0.3340(4)
H1_5 H 0.4539 0.5328 0.8952
O12_5 O 0.55268(15) 0.37013(12) 0.2262(3)
S1_5 S 0.64154(5) 0.43544(7) 0.33984(11)
S2_4 S 0.48022(6) 0.37026(5) 0.01580(14)
O13_4 O 0.34554(15) 0.40744(17) 0.7755(4)
H2_4 H 0.3084 0.4195 0.7851
H3_4 H 0.3444 0.3695 0.8013
C1_5 C 0.50887(17) 0.43063(16) 0.5561(4)
C2_5 C 0.55987(16) 0.44218(17) 0.5077(4)
H4_5 H 0.5847 0.4644 0.5491
C3_5 C 0.57470(17) 0.42131(17) 0.3984(4)
C4_5 C 0.5373(2) 0.38905(17) 0.3385(4)
C5_4 C 0.4866(2) 0.3788(2) 0.3835(4)
H5_4 H 0.4614 0.3578 0.3401
C6_4 C 0.4715(2) 0.3990(2) 0.4936(4)
H6_4 H 0.4366 0.3913 0.5248
C7_5 C 0.5342(2) 0.31751(18) 0.1941(4)
C8_5 C 0.50382(18) 0.31152(16) 0.0933(4)
C9_4 C 0.49078(18) 0.25872(17) 0.0535(4)
C10_5 C 0.50770(18) 0.21208(16) 0.1166(3)
C11_5 C 0.5373(2) 0.21983(18) 0.2198(4)
H8_5 H 0.5486 0.1892 0.2636
C12_5 C 0.5502(2) 0.2721(2) 0.2585(4)
H9_5 H 0.5699 0.2767 0.3285
C13_4 C 0.49361(18) 0.45184(17) 0.6781(4)
C14_4 C 0.49592(18) 0.15510(16) 0.0697(4)
O15_2 O 0.34798(11) 0.46462(13) 0.9826(3)
O17 O 0.53029(15) 0.39293(12) 0.9586(3)
O4_3 O 0.46462(13) 0.15202(11) 0.9826(3)
O9_4 O 0.43839(18) 0.35158(16) 0.9358(4)
H7_4 H 0.4706 0.2544 0.9840
O4_4 O 0.03538(13) 0.34798(11) 0.9826(3)
O9_5 O 0.06161(18) 0.14842(16) 0.9358(4)
H7_5 H 0.0294 0.2456 0.9840
H1_6 H 0.0461 0.9672 0.8952
O2_6 O 0.96950(11) 0.02079(13) 0.7322(2)
O5_6 O 0.83321(17) 0.0263(3) 0.4211(4)
O7_6 O 0.8305(2) 0.1172(2) 0.3340(4)
O12_6 O 0.94732(15) 0.12987(12) 0.2262(3)
S1_6 S 0.85846(5) 0.06456(7) 0.33984(11)
C1_6 C 0.99113(17) 0.06937(16) 0.5561(4)
C2_6 C 0.94013(16) 0.05782(17) 0.5077(4)
H4_6 H 0.9153 0.0356 0.5491
C3_6 C 0.92530(17) 0.07869(17) 0.3984(4)
C4_6 C 0.9627(2) 0.11095(17) 0.3385(4)
C7_6 C 0.9658(2) 0.18249(18) 0.1941(4)
C8_6 C 0.99618(18) 0.18848(16) 0.0933(4)
C10_6 C 0.99230(18) 0.28792(16) 0.1166(3)
C11_6 C 0.9627(2) 0.28017(18) 0.2198(4)
H8_6 H 0.9514 0.3108 0.2636
C12_6 C 0.9498(2) 0.2279(2) 0.2585(4)
H9_6 H 0.9301 0.2233 0.3285
O17_2 O 0.96971(15) 0.10707(12) 0.9586(3)
O1_5 O 0.06115(14) 0.44707(12) 0.7160(3)
O2_7 O 0.02079(13) 0.53050(11) 0.7322(2)
O5_7 O 0.0263(3) 0.66679(17) 0.4211(4)
O7_7 O 0.1172(2) 0.6695(2) 0.3340(4)
O12_7 O 0.12987(12) 0.55268(15) 0.2262(3)
S1_7 S 0.06456(7) 0.64154(5) 0.33984(11)
S2_5 S 0.12974(5) 0.48022(6) 0.01580(14)
O13_5 O 0.09256(17) 0.34554(15) 0.7755(4)
H2_5 H 0.0805 0.3084 0.7851
H3_5 H 0.1305 0.3444 0.8013
C1_7 C 0.06937(16) 0.50887(17) 0.5561(4)
C2_7 C 0.05782(17) 0.55987(16) 0.5077(4)
H4_7 H 0.0356 0.5847 0.5491
C3_7 C 0.07869(17) 0.57470(17) 0.3984(4)
C4_7 C 0.11095(17) 0.5373(2) 0.3385(4)
C5_5 C 0.1212(2) 0.4866(2) 0.3835(4)
H5_5 H 0.1422 0.4614 0.3401
C6_5 C 0.1010(2) 0.4715(2) 0.4936(4)
H6_5 H 0.1087 0.4366 0.5248
C7_7 C 0.18249(18) 0.5342(2) 0.1941(4)
C8_7 C 0.18848(16) 0.50382(18) 0.0933(4)
C9_5 C 0.24128(17) 0.49078(18) 0.0535(4)
C10_7 C 0.28792(16) 0.50770(18) 0.1166(3)
C11_7 C 0.28017(18) 0.5373(2) 0.2198(4)
H8_7 H 0.3108 0.5486 0.2636
C12_7 C 0.2279(2) 0.5502(2) 0.2585(4)
H9_7 H 0.2233 0.5699 0.3285
C13_5 C 0.04816(17) 0.49361(18) 0.6781(4)
C14_5 C 0.34490(16) 0.49592(18) 0.0697(4)
O17_3 O 0.10707(12) 0.53029(15) 0.9586(3)
O9_6 O 0.14842(16) 0.43839(18) 0.9358(4)
H7_6 H 0.2456 0.4706 0.9840
H1_7 H 0.9672 0.4539 0.8952
O1_6 O 0.43885(14) 0.05293(12) 0.7160(3)
H1_8 H 0.5328 0.0461 0.8952
S2_6 S 0.37026(5) 0.01978(6) 0.01580(14)
O13_6 O 0.40744(17) 0.15446(15) 0.7755(4)
H2_6 H 0.4195 0.1916 0.7851
H3_6 H 0.3695 0.1556 0.8013
C5_6 C 0.3788(2) 0.0134(2) 0.3835(4)
H5_6 H 0.3578 0.0386 0.3401
C6_6 C 0.3990(2) 0.0285(2) 0.4936(4)
H6_6 H 0.3913 0.0634 0.5248
C9_6 C 0.25872(17) 0.00922(18) 0.0535(4)
C13_6 C 0.45184(17) 0.00639(18) 0.6781(4)
C14_6 C 0.15510(16) 0.00408(18) 0.0697(4)
O2_8 O 0.47921(13) 0.96950(11) 0.7322(2)
O5_8 O 0.4737(3) 0.83321(17) 0.4211(4)
O7_8 O 0.3828(2) 0.8305(2) 0.3340(4)
O12_8 O 0.37013(12) 0.94732(15) 0.2262(3)
S1_8 S 0.43544(7) 0.85846(5) 0.33984(11)
C1_8 C 0.43063(16) 0.99113(17) 0.5561(4)
C2_8 C 0.44218(17) 0.94013(16) 0.5077(4)
H4_8 H 0.4644 0.9153 0.5491
C3_8 C 0.42131(17) 0.92530(17) 0.3984(4)
C4_8 C 0.38905(17) 0.9627(2) 0.3385(4)
C7_8 C 0.31751(18) 0.9658(2) 0.1941(4)
C8_8 C 0.31152(16) 0.99618(18) 0.0933(4)
C10_8 C 0.21208(16) 0.99230(18) 0.1166(3)
C11_8 C 0.21983(18) 0.9627(2) 0.2198(4)
H8_8 H 0.1892 0.9514 0.2636
C12_8 C 0.2721(2) 0.9498(2) 0.2585(4)
H9_8 H 0.2767 0.9301 0.3285
O17_4 O 0.39293(12) 0.96971(15) 0.9586(3)
Cu8_4 Cu 0.09865(2) 0.04413(2) 0.85268(5)
O18_4 O 0.04199(16) 0.09180(13) 0.1050(4)
O1_7 O 0.05293(12) 0.06115(14) 0.7160(3)
S2_7 S 0.01978(6) 0.12974(5) 0.01580(14)
O13_7 O 0.15446(15) 0.09256(17) 0.7755(4)
H2_7 H 0.1916 0.0805 0.7851
H3_7 H 0.1556 0.1305 0.8013
C5_7 C 0.0134(2) 0.1212(2) 0.3835(4)
H5_7 H 0.0386 0.1422 0.3401
C6_7 C 0.0285(2) 0.1010(2) 0.4936(4)
H6_7 H 0.0634 0.1087 0.5248
C9_7 C 0.00922(18) 0.24128(17) 0.0535(4)
C13_7 C 0.00639(18) 0.04816(17) 0.6781(4)
C14_7 C 0.00408(18) 0.34490(16) 0.0697(4)
O15_3 O 0.15202(11) 0.03538(13) 0.9826(3)
O9_7 O 0.35158(16) 0.06161(18) 0.9358(4)
H7_7 H 0.2544 0.0294 0.9840
Cu2_2 Cu 0.90135(2) 0.95587(2) 0.14732(5)
O1_8 O 0.94707(12) 0.93885(14) 0.2840(3)
O10_4 O 0.95801(16) 0.90820(13) 0.8950(4)
S2_8 S 0.98022(6) 0.87026(5) 0.98420(14)
O13_8 O 0.84554(15) 0.90744(17) 0.2245(4)
H2_8 H 0.8084 0.9195 0.2149
H3_8 H 0.8444 0.8695 0.1987
C5_8 C 0.9866(2) 0.8788(2) 0.6165(4)
H5_8 H 0.9614 0.8578 0.6599
C6_8 C 0.9715(2) 0.8990(2) 0.5064(4)
H6_8 H 0.9366 0.8913 0.4752
C9_8 C 0.99078(18) 0.75872(17) 0.9465(4)
C13_8 C 0.99361(18) 0.95184(17) 0.3219(4)
C14_8 C 0.99592(18) 0.65510(16) 0.9303(4)
O15_4 O 0.84798(11) 0.96462(13) 0.0174(3)
O9_8 O 0.64842(16) 0.93839(18) 0.0642(4)
H7_8 H 0.7456 0.9706 0.0160
loop_
_geom_bond_atom_site_label_1
_geom_bond_atom_site_label_2
_geom_bond_site_symmetry_1
_geom_bond_site_symmetry_2
Cu3 O8 1_555 1_555
Cu7 O4 1_555 1_555
Cu3 O2 1_555 1_555
Cu2 O1 1_555 1_555
O1 C13 1_555 1_555
O2 C13 1_555 1_555
O3 C14 1_555 1_555
O5 S1 1_555 1_555
O6 S1 1_555 1_555
O7 S1 1_555 1_555
O10 S2 1_555 1_555
O11 Cu3 1_555 1_555
H1 O11 1_555 1_555
O12 C4 1_555 1_555
S1 C3 1_555 1_555
S2 C8 1_555 1_555
O13 Cu2 1_555 1_555
H2 O13 1_555 1_555
H3 O13 1_555 1_555
C1 C2 1_555 1_555
C2 H4 1_555 1_555
C3 C2 1_555 1_555
C4 C3 1_555 1_555
C5 C4 1_555 1_555
H5 C5 1_555 1_555
C6 C1 1_555 1_555
H6 C6 1_555 1_555
C7 O12 1_555 1_555
C8 C7 1_555 1_555
C9 C8 1_555 1_555
C10 C9 1_555 1_555
C11 C10 1_555 1_555
H8 C11 1_555 1_555
C12 C7 1_555 1_555
H9 C12 1_555 1_555
C13 C1 1_555 1_555
C14 C10 1_555 1_555
Cu5 O10 1_555 1_555
Cu6 O3 1_555 1_555
Cu8 O6 1_555 1_555
O14 Cu3 1_555 1_555
O15 Cu2 1_555 1_555
O16 Cu2 1_555 1_555
O18 Cu3 1_555 1_555
Cu2 O11 1_555 1_555
C5 C6 1_555 1_555
C11 C12 1_555 1_555
Cu5 O19 1_555 1_555
Cu3_2 O8_2 1_555 1_555
Cu3_2 O2_2 1_555 1_555
O5_2 S1_2 1_555 1_555
O6_2 S1_2 1_555 1_555
O7_2 S1_2 1_555 1_555
O12_2 C4_2 1_555 1_555
S1_2 C3_2 1_555 1_555
C1_2 C2_2 1_555 1_555
C2_2 H4_2 1_555 1_555
C3_2 C2_2 1_555 1_555
C4_2 C3_2 1_555 1_555
C7_2 O12_2 1_555 1_555
C8_2 C7_2 1_555 1_555
C11_2 C10_2 1_555 1_555
H8_2 C11_2 1_555 1_555
C12_2 C7_2 1_555 1_555
H9_2 C12_2 1_555 1_555
Cu6_2 O3_2 1_555 1_555
O14_2 Cu3_2 1_555 1_555
C11_2 C12_2 1_555 1_555
H1_2 O11_2 1_555 1_555
Cu7_2 O4_2 1_555 1_555
H1_3 O11_3 1_555 1_555
Cu3_3 O8_3 1_555 1_555
Cu3_3 O2_3 1_555 1_555
Cu7_2 O1_2 1_555 1_555
O1_2 C13_2 1_555 1_555
O2_3 C13_2 1_555 1_555
O3_3 C14_2 1_555 1_555
O5_3 S1_3 1_555 1_555
O6_3 S1_3 1_555 1_555
O7_3 S1_3 1_555 1_555
O10_2 S2_2 1_555 1_555
O12_3 C4_3 1_555 1_555
S1_3 C3_3 1_555 1_555
S2_2 C8_3 1_555 1_555
O13_2 Cu7_2 1_555 1_555
H2_2 O13_2 1_555 1_555
H3_2 O13_2 1_555 1_555
C1_3 C2_3 1_555 1_555
C2_3 H4_3 1_555 1_555
C3_3 C2_3 1_555 1_555
C4_3 C3_3 1_555 1_555
C5_2 C4_3 1_555 1_555
H5_2 C5_2 1_555 1_555
C6_2 C1_3 1_555 1_555
H6_2 C6_2 1_555 1_555
C7_3 O12_3 1_555 1_555
C8_3 C7_3 1_555 1_555
C9_2 C8_3 1_555 1_555
C10_3 C9_2 1_555 1_555
C11_3 C10_3 1_555 1_555
H8_3 C11_3 1_555 1_555
C12_3 C7_3 1_555 1_555
H9_3 C12_3 1_555 1_555
C13_2 C1_3 1_555 1_555
C14_2 C10_3 1_555 1_555
Cu5 O3_3 1_555 1_555
O14_3 Cu3_3 1_555 1_555
C5_2 C6_2 1_555 1_555
C11_3 C12_3 1_555 1_555
Cu3_4 O8_4 1_555 1_555
Cu3_4 O2_4 1_555 1_555
O5_4 S1_4 1_555 1_555
O6_4 S1_4 1_555 1_555
O7_4 S1_4 1_555 1_555
O12_4 C4_4 1_555 1_555
S1_4 C3_4 1_555 1_555
C1_4 C2_4 1_555 1_555
C2_4 H4_4 1_555 1_555
C3_4 C2_4 1_555 1_555
C4_4 C3_4 1_555 1_555
C7_4 O12_4 1_555 1_555
C8_4 C7_4 1_555 1_555
C11_4 C10_4 1_555 1_555
H8_4 C11_4 1_555 1_555
C12_4 C7_4 1_555 1_555
H9_4 C12_4 1_555 1_555
Cu5_2 O3_4 1_555 1_555
Cu8_3 O6_4 1_555 1_555
O14_4 Cu3_4 1_555 1_555
O18_3 Cu3_4 1_555 1_555
C11_4 C12_4 1_555 1_555
Cu7 O1_3 1_555 1_555
O1_3 C13_3 1_555 1_555
O10_3 S2_3 1_555 1_555
H1_4 O11_4 1_555 1_555
O13_3 Cu7 1_555 1_555
H2_3 O13_3 1_555 1_555
H3_3 O13_3 1_555 1_555
H5_3 C5_3 1_555 1_555
H6_3 C6_3 1_555 1_555
Cu6 O10_3 1_555 1_555
O16_4 Cu7 1_555 1_555
Cu7 O11_4 1_555 1_555
C5_3 C6_3 1_555 1_555
Cu5 O2_5 1_555 1_555
Cu8 O1_4 1_555 1_555
O1_4 C13_4 1_555 1_555
O2_5 C13_4 1_555 1_555
O14_4 C14_4 1_555 1_555
O5_5 S1_5 1_555 1_555
O16 S1_5 1_555 1_555
O7_5 S1_5 1_555 1_555
O18 S2_4 1_555 1_555
H1_5 O19 1_555 1_555
O12_5 C4_5 1_555 1_555
S1_5 C3_5 1_555 1_555
S2_4 C8_5 1_555 1_555
O13_4 Cu8 1_555 1_555
H2_4 O13_4 1_555 1_555
H3_4 O13_4 1_555 1_555
C1_5 C2_5 1_555 1_555
C2_5 H4_5 1_555 1_555
C3_5 C2_5 1_555 1_555
C4_5 C3_5 1_555 1_555
C5_4 C4_5 1_555 1_555
H5_4 C5_4 1_555 1_555
C6_4 C1_5 1_555 1_555
H6_4 C6_4 1_555 1_555
C7_5 O12_5 1_555 1_555
C8_5 C7_5 1_555 1_555
C9_4 C8_5 1_555 1_555
C10_5 C9_4 1_555 1_555
C11_5 C10_5 1_555 1_555
H8_5 C11_5 1_555 1_555
C12_5 C7_5 1_555 1_555
H9_5 C12_5 1_555 1_555
C13_4 C1_5 1_555 1_555
C14_4 C10_5 1_555 1_555
O15_2 Cu8 1_555 1_555
O17 Cu5 1_555 1_555
Cu8 O19 1_555 1_555
C5_4 C6_4 1_555 1_555
C11_5 C12_5 1_555 1_555
Cu8_3 O4_3 1_555 1_555
Cu8_2 O4_4 1_555 1_555
H1_6 O19_2 1_555 1_555
Cu5_2 O2_6 1_555 1_555
O5_6 S1_6 1_555 1_555
O16_2 S1_6 1_555 1_555
O7_6 S1_6 1_555 1_555
O12_6 C4_6 1_555 1_555
S1_6 C3_6 1_555 1_555
C1_6 C2_6 1_555 1_555
C2_6 H4_6 1_555 1_555
C3_6 C2_6 1_555 1_555
C4_6 C3_6 1_555 1_555
C7_6 O12_6 1_555 1_555
C8_6 C7_6 1_555 1_555
C11_6 C10_6 1_555 1_555
H8_6 C11_6 1_555 1_555
C12_6 C7_6 1_555 1_555
H9_6 C12_6 1_555 1_555
O17_2 Cu5_2 1_555 1_555
C11_6 C12_6 1_555 1_555
Cu6_2 O2_7 1_555 1_555
Cu8_2 O1_5 1_555 1_555
O1_5 C13_5 1_555 1_555
O2_7 C13_5 1_555 1_555
O14 C14_5 1_555 1_555
O5_7 S1_7 1_555 1_555
O16_3 S1_7 1_555 1_555
O7_7 S1_7 1_555 1_555
O18_2 S2_5 1_555 1_555
O12_7 C4_7 1_555 1_555
S1_7 C3_7 1_555 1_555
S2_5 C8_7 1_555 1_555
O13_5 Cu8_2 1_555 1_555
H2_5 O13_5 1_555 1_555
H3_5 O13_5 1_555 1_555
C1_7 C2_7 1_555 1_555
C2_7 H4_7 1_555 1_555
C3_7 C2_7 1_555 1_555
C4_7 C3_7 1_555 1_555
C5_5 C4_7 1_555 1_555
H5_5 C5_5 1_555 1_555
C6_5 C1_7 1_555 1_555
H6_5 C6_5 1_555 1_555
C7_7 O12_7 1_555 1_555
C8_7 C7_7 1_555 1_555
C9_5 C8_7 1_555 1_555
C10_7 C9_5 1_555 1_555
C11_7 C10_7 1_555 1_555
H8_7 C11_7 1_555 1_555
C12_7 C7_7 1_555 1_555
H9_7 C12_7 1_555 1_555
C13_5 C1_7 1_555 1_555
C14_5 C10_7 1_555 1_555
O17_3 Cu6_2 1_555 1_555
C5_5 C6_5 1_555 1_555
C11_7 C12_7 1_555 1_555
H1_7 O19_3 1_555 1_555
Cu8_3 O1_6 1_555 1_555
O1_6 C13_6 1_555 1_555
O18_3 S2_6 1_555 1_555
H1_8 O19_4 1_555 1_555
O13_6 Cu8_3 1_555 1_555
H2_6 O13_6 1_555 1_555
H3_6 O13_6 1_555 1_555
H5_6 C5_6 1_555 1_555
H6_6 C6_6 1_555 1_555
Cu8_3 O19_4 1_555 1_555
C5_6 C6_6 1_555 1_555
Cu6 O2_8 1_555 1_555
O5_8 S1_8 1_555 1_555
O16_4 S1_8 1_555 1_555
O7_8 S1_8 1_555 1_555
O12_8 C4_8 1_555 1_555
S1_8 C3_8 1_555 1_555
C1_8 C2_8 1_555 1_555
C2_8 H4_8 1_555 1_555
C3_8 C2_8 1_555 1_555
C4_8 C3_8 1_555 1_555
C7_8 O12_8 1_555 1_555
C8_8 C7_8 1_555 1_555
C11_8 C10_8 1_555 1_555
H8_8 C11_8 1_555 1_555
C12_8 C7_8 1_555 1_555
H9_8 C12_8 1_555 1_555
O17_4 Cu6 1_555 1_555
C11_8 C12_8 1_555 1_555
Cu8_4 O1_7 1_555 1_555
O1_7 C13_7 1_555 1_555
O18_4 S2_7 1_555 1_555
O13_7 Cu8_4 1_555 1_555
H2_7 O13_7 1_555 1_555
H3_7 O13_7 1_555 1_555
H5_7 C5_7 1_555 1_555
H6_7 C6_7 1_555 1_555
O15_3 Cu8_4 1_555 1_555
C5_7 C6_7 1_555 1_555
Cu2_2 O1_8 1_555 1_555
O1_8 C13_8 1_555 1_555
O10_4 S2_8 1_555 1_555
O13_8 Cu2_2 1_555 1_555
H2_8 O13_8 1_555 1_555
H3_8 O13_8 1_555 1_555
H5_8 C5_8 1_555 1_555
H6_8 C6_8 1_555 1_555
O15_4 Cu2_2 1_555 1_555
C5_8 C6_8 1_555 1_555

#END
