
###############################################################################
#
# This file contains modified crystal structure data generated from the
# MOF subset of the Cambridge Structural Database (CSD) v543 
# hosted by the Cambridge Crystallographic Data Centre (CCDC).
#
# This work is licensed under the Creative Commons
# Attribution-NonCommercial-ShareAlike 4.0 International License.
# To view a copy of this license, visit
# http://creativecommons.org/licenses/by-nc-sa/4.0/
# or send a letter to
# Creative Commons, PO Box 1866, Mountain View, CA 94042, USA.
#
# CIF created using the CSD Python API on 29 September 2022
# The structure has been converted into the P1 space group
# The structure has a 3D framework
# The original CSD entry VINHEH is in the monoclinic crystal system
# The original CSD entry VINHEH is in a Sohncke space group
# The framework has been calculated to contain at least 10.0% void space
# The void calculation uses a probe of radius 1.32A, grid spacing 0.4
# The framework is charged, counterions have been retained in the structure
# H atom positions have been added when not included in the experimental data
#
###############################################################################

data_VINHEH
_chemical_formula_moiety         '(C228 H228 Cr12 Fe8 Mn14 N80 O156)n'
_symmetry_cell_setting           triclinic
_symmetry_space_group_name_H-M   'P 1'
_symmetry_Int_Tables_number      1
_space_group_name_Hall           'P 1'
loop_
_symmetry_equiv_pos_site_id
_symmetry_equiv_pos_as_xyz
1 x,y,z
_cell_length_a                   39.821(4)
_cell_length_b                   14.1428(8)
_cell_length_c                   20.3826(17)
_cell_angle_alpha                90
_cell_angle_beta                 116.922(11)
_cell_angle_gamma                90
_cell_volume                     10235
loop_
_atom_site_label
_atom_site_type_symbol
_atom_site_fract_x
_atom_site_fract_y
_atom_site_fract_z
H15 H 0.1830 0.0061 0.1005
C1 C 0.2078(3) 0.8130(7) 0.0644(6)
H1 H 0.2242 0.8557 0.0531
H2 H 0.1931 0.7747 0.0198
C2 C 0.2328(3) 0.7466(7) 0.1262(6)
H3 H 0.2473 0.7053 0.1089
H4 H 0.2510 0.7841 0.1684
C3 C 0.2047(3) 0.5975(8) 0.1289(5)
H5 H 0.2148 0.5704 0.0989
C4 C 0.1827(3) 0.5438(7) 0.1549(6)
C5 C 0.1696(4) 0.4532(8) 0.1450(7)
H6 H 0.1739 0.4055 0.1168
C6 C 0.1512(4) 0.5333(10) 0.2153(7)
H7 H 0.1401 0.5481 0.2465
C7 C 0.1433(4) 0.8576(9) 0.0357(7)
H9 H 0.1301 0.9131 0.0427
C8 C 0.1286(3) 0.7669(8) 0.0562(5)
H10 H 0.1010 0.7635 0.0263
H11 H 0.1398 0.7112 0.0440
C9 C 0.1110(3) 0.7813(7) 0.1476(8)
H12 H 0.0865 0.7992 0.1120
C10 C 0.1209(4) 0.7726(8) 0.2296(9)
C11 C 0.1015(4) 0.7831(9) 0.2648(8)
H13 H 0.0758 0.8002 0.2478
C12 C 0.1622(5) 0.7417(9) 0.3375(8)
H14 H 0.1850 0.7262 0.3796
C13 C 0.1964(3) 0.9489(8) 0.1276(7)
H16 H 0.2235 0.9575 0.1411
C14 C 0.1921(3) 0.9412(8) 0.1974(6)
H17 H 0.2040 0.9967 0.2292
H18 H 0.1651 0.9410 0.1851
C15 C 0.2407(4) 0.8581(9) 0.2945(7)
H19 H 0.2541 0.9158 0.3115
C16 C 0.2545(4) 0.7739(11) 0.3322(6)
C17 C 0.2861(6) 0.7503(12) 0.3925(8)
H20 H 0.3064 0.7903 0.4232
C18 C 0.2492(5) 0.6200(12) 0.3437(8)
H21 H 0.2403 0.5567 0.3373
N1 N 0.1826(3) 0.8687(6) 0.0791(5)
N2 N 0.2103(2) 0.6892(6) 0.1497(4)
N3 N 0.1488(3) 0.4440(7) 0.1841(5)
H22 H 0.1369 0.3936 0.1882
N4 N 0.1704(3) 0.5946(6) 0.1974(5)
N5 N 0.1372(2) 0.7633(6) 0.1294(5)
N6 N 0.1293(5) 0.7616(8) 0.3359(9)
H23 H 0.1254 0.7614 0.3750
N7 N 0.1568(4) 0.7478(6) 0.2690(6)
N8 N 0.2098(3) 0.8550(6) 0.2368(5)
N9 N 0.2825(5) 0.6591(12) 0.3988(9)
H24 H 0.2995 0.6250 0.4346
N10 N 0.2338(3) 0.6947(7) 0.3036(5)
Fe1 Fe 0.18690(5) 0.72596(10) 0.21321(8)
H8 H 0.1375 0.8549 0.9831
H15_2 H 0.8170 0.0061 0.8995
H8_2 H 0.8625 0.8549 0.0169
C1_2 C 0.7922(3) 0.8130(7) 0.9356(6)
H1_2 H 0.7758 0.8557 0.9469
H2_2 H 0.8069 0.7747 0.9802
C2_2 C 0.7672(3) 0.7466(7) 0.8738(6)
H3_2 H 0.7527 0.7053 0.8911
H4_2 H 0.7490 0.7841 0.8316
C3_2 C 0.7953(3) 0.5975(8) 0.8711(5)
H5_2 H 0.7852 0.5704 0.9011
C4_2 C 0.8173(3) 0.5438(7) 0.8451(6)
C5_2 C 0.8304(4) 0.4532(8) 0.8550(7)
H6_2 H 0.8261 0.4055 0.8832
C6_2 C 0.8488(4) 0.5333(10) 0.7847(7)
H7_2 H 0.8599 0.5481 0.7535
C7_2 C 0.8567(4) 0.8576(9) 0.9643(7)
H9_2 H 0.8699 0.9131 0.9573
C8_2 C 0.8714(3) 0.7669(8) 0.9438(5)
H10_2 H 0.8990 0.7635 0.9737
H11_2 H 0.8602 0.7112 0.9560
C9_2 C 0.8890(3) 0.7813(7) 0.8524(8)
H12_2 H 0.9135 0.7992 0.8880
C10_2 C 0.8791(4) 0.7726(8) 0.7704(9)
C11_2 C 0.8985(4) 0.7831(9) 0.7352(8)
H13_2 H 0.9242 0.8002 0.7522
C12_2 C 0.8378(5) 0.7417(9) 0.6625(8)
H14_2 H 0.8150 0.7262 0.6204
C13_2 C 0.8036(3) 0.9489(8) 0.8724(7)
H16_2 H 0.7765 0.9575 0.8589
C14_2 C 0.8079(3) 0.9412(8) 0.8026(6)
H17_2 H 0.7960 0.9967 0.7708
H18_2 H 0.8349 0.9410 0.8149
C15_2 C 0.7593(4) 0.8581(9) 0.7055(7)
H19_2 H 0.7459 0.9158 0.6885
C16_2 C 0.7455(4) 0.7739(11) 0.6678(6)
C17_2 C 0.7139(6) 0.7503(12) 0.6075(8)
H20_2 H 0.6936 0.7903 0.5768
C18_2 C 0.7508(5) 0.6200(12) 0.6563(8)
H21_2 H 0.7597 0.5567 0.6627
N1_2 N 0.8174(3) 0.8687(6) 0.9209(5)
N2_2 N 0.7897(2) 0.6892(6) 0.8503(4)
N3_2 N 0.8512(3) 0.4440(7) 0.8159(5)
H22_2 H 0.8631 0.3936 0.8118
N4_2 N 0.8296(3) 0.5946(6) 0.8026(5)
N5_2 N 0.8628(2) 0.7633(6) 0.8706(5)
N6_2 N 0.8707(5) 0.7616(8) 0.6641(9)
H23_2 H 0.8746 0.7614 0.6250
N7_2 N 0.8432(4) 0.7478(6) 0.7310(6)
N8_2 N 0.7902(3) 0.8550(6) 0.7632(5)
N9_2 N 0.7175(5) 0.6591(12) 0.6012(9)
H24_2 H 0.7005 0.6250 0.5654
N10_2 N 0.7662(3) 0.6947(7) 0.6964(5)
Fe1_2 Fe 0.81310(5) 0.72596(10) 0.78679(8)
C1_3 C 0.7078(3) 0.3130(7) 0.0644(6)
H1_3 H 0.7242 0.3557 0.0531
H2_3 H 0.6931 0.2747 0.0198
C2_3 C 0.7328(3) 0.2466(7) 0.1262(6)
H3_3 H 0.7473 0.2053 0.1089
H4_3 H 0.7510 0.2841 0.1684
C3_3 C 0.7047(3) 0.0975(8) 0.1289(5)
H5_3 H 0.7148 0.0704 0.0989
C4_3 C 0.6827(3) 0.0438(7) 0.1549(6)
C6_3 C 0.6512(4) 0.0333(10) 0.2153(7)
H7_3 H 0.6401 0.0481 0.2465
C7_3 C 0.6433(4) 0.3576(9) 0.0357(7)
H9_3 H 0.6301 0.4131 0.0427
C8_3 C 0.6286(3) 0.2669(8) 0.0562(5)
H10_3 H 0.6010 0.2635 0.0263
H11_3 H 0.6398 0.2112 0.0440
C9_3 C 0.6110(3) 0.2813(7) 0.1476(8)
H12_3 H 0.5865 0.2992 0.1120
C10_3 C 0.6209(4) 0.2726(8) 0.2296(9)
C11_3 C 0.6015(4) 0.2831(9) 0.2648(8)
H13_3 H 0.5758 0.3002 0.2478
C12_3 C 0.6622(5) 0.2417(9) 0.3375(8)
H14_3 H 0.6850 0.2262 0.3796
C13_3 C 0.6964(3) 0.4489(8) 0.1276(7)
H15_3 H 0.6830 0.5061 0.1005
H16_3 H 0.7235 0.4575 0.1411
C14_3 C 0.6921(3) 0.4412(8) 0.1974(6)
H17_3 H 0.7040 0.4967 0.2292
H18_3 H 0.6651 0.4410 0.1851
C15_3 C 0.7407(4) 0.3581(9) 0.2945(7)
H19_3 H 0.7541 0.4158 0.3115
C16_3 C 0.7545(4) 0.2739(11) 0.3322(6)
C17_3 C 0.7861(6) 0.2503(12) 0.3925(8)
H20_3 H 0.8064 0.2903 0.4232
C18_3 C 0.7492(5) 0.1200(12) 0.3437(8)
H21_3 H 0.7403 0.0567 0.3373
N1_3 N 0.6826(3) 0.3687(6) 0.0791(5)
N2_3 N 0.7103(2) 0.1892(6) 0.1497(4)
N4_3 N 0.6704(3) 0.0946(6) 0.1974(5)
N5_3 N 0.6372(2) 0.2633(6) 0.1294(5)
N6_3 N 0.6293(5) 0.2616(8) 0.3359(9)
H23_3 H 0.6254 0.2614 0.3750
N7_3 N 0.6568(4) 0.2478(6) 0.2690(6)
N8_3 N 0.7098(3) 0.3550(6) 0.2368(5)
N9_3 N 0.7825(5) 0.1591(12) 0.3988(9)
H24_3 H 0.7995 0.1250 0.4346
N10_3 N 0.7338(3) 0.1947(7) 0.3036(5)
Fe1_3 Fe 0.68690(5) 0.22596(10) 0.21321(8)
H8_3 H 0.6375 0.3549 0.9831
C5_3 C 0.6696(4) 0.9532(8) 0.1450(7)
H6_3 H 0.6739 0.9055 0.1168
N3_3 N 0.6488(3) 0.9440(7) 0.1841(5)
H22_3 H 0.6369 0.8936 0.1882
H8_4 H 0.3625 0.3549 0.0169
C1_4 C 0.2922(3) 0.3130(7) 0.9356(6)
H1_4 H 0.2758 0.3557 0.9469
H2_4 H 0.3069 0.2747 0.9802
C2_4 C 0.2672(3) 0.2466(7) 0.8738(6)
H3_4 H 0.2527 0.2053 0.8911
H4_4 H 0.2490 0.2841 0.8316
C3_4 C 0.2953(3) 0.0975(8) 0.8711(5)
H5_4 H 0.2852 0.0704 0.9011
C4_4 C 0.3173(3) 0.0438(7) 0.8451(6)
C6_4 C 0.3488(4) 0.0333(10) 0.7847(7)
H7_4 H 0.3599 0.0481 0.7535
C7_4 C 0.3567(4) 0.3576(9) 0.9643(7)
H9_4 H 0.3699 0.4131 0.9573
C8_4 C 0.3714(3) 0.2669(8) 0.9438(5)
H10_4 H 0.3990 0.2635 0.9737
H11_4 H 0.3602 0.2112 0.9560
C9_4 C 0.3890(3) 0.2813(7) 0.8524(8)
H12_4 H 0.4135 0.2992 0.8880
C10_4 C 0.3791(4) 0.2726(8) 0.7704(9)
C11_4 C 0.3985(4) 0.2831(9) 0.7352(8)
H13_4 H 0.4242 0.3002 0.7522
C12_4 C 0.3378(5) 0.2417(9) 0.6625(8)
H14_4 H 0.3150 0.2262 0.6204
C13_4 C 0.3036(3) 0.4489(8) 0.8724(7)
H15_4 H 0.3170 0.5061 0.8995
H16_4 H 0.2765 0.4575 0.8589
C14_4 C 0.3079(3) 0.4412(8) 0.8026(6)
H17_4 H 0.2960 0.4967 0.7708
H18_4 H 0.3349 0.4410 0.8149
C15_4 C 0.2593(4) 0.3581(9) 0.7055(7)
H19_4 H 0.2459 0.4158 0.6885
C16_4 C 0.2455(4) 0.2739(11) 0.6678(6)
C17_4 C 0.2139(6) 0.2503(12) 0.6075(8)
H20_4 H 0.1936 0.2903 0.5768
C18_4 C 0.2508(5) 0.1200(12) 0.6563(8)
H21_4 H 0.2597 0.0567 0.6627
N1_4 N 0.3174(3) 0.3687(6) 0.9209(5)
N2_4 N 0.2897(2) 0.1892(6) 0.8503(4)
N4_4 N 0.3296(3) 0.0946(6) 0.8026(5)
N5_4 N 0.3628(2) 0.2633(6) 0.8706(5)
N6_4 N 0.3707(5) 0.2616(8) 0.6641(9)
H23_4 H 0.3746 0.2614 0.6250
N7_4 N 0.3432(4) 0.2478(6) 0.7310(6)
N8_4 N 0.2902(3) 0.3550(6) 0.7632(5)
N9_4 N 0.2175(5) 0.1591(12) 0.6012(9)
H24_4 H 0.2005 0.1250 0.5654
N10_4 N 0.2662(3) 0.1947(7) 0.6964(5)
Fe1_4 Fe 0.31310(5) 0.22596(10) 0.78679(8)
C5_4 C 0.3304(4) 0.9532(8) 0.8550(7)
H6_4 H 0.3261 0.9055 0.8832
N3_4 N 0.3512(3) 0.9440(7) 0.8159(5)
H22_4 H 0.3631 0.8936 0.8118
C25 C 0.3672(10) 0.078(3) 0.0757(18)
H32 H 0.3547 0.1028 0.0249
H33 H 0.3932 0.0587 0.0873
H34 H 0.3737 0.2340 0.1331
C26 C 0.4317(5) 0.1692(11) 0.2300(9)
H35 H 0.4345 0.2256 0.2077
C27 C 0.4607(5) 0.1265(14) 0.2929(9)
C28 C 0.5016(6) 0.1453(17) 0.3334(12)
H36 H 0.5159 0.1944 0.3265
C29 C 0.4856(6) 0.0165(16) 0.3768(10)
H39 H 0.3008 0.0488 0.0728
C32 C 0.3231(4) 0.0390(9) 0.2477(8)
H42 H 0.2965 0.0382 0.2284
C33 C 0.3459(4) 0.0920(9) 0.3110(6)
C34 C 0.3416(4) 0.1468(9) 0.3600(7)
H43 H 0.3183 0.1597 0.3604
C35 C 0.4021(6) 0.1391(13) 0.3923(9)
H44 H 0.4286 0.1436 0.4212
N11 N 0.3495(4) 0.0097(10) 0.0819(7)
N15 N 0.4005(4) 0.1204(8) 0.2067(7)
N16 N 0.5139(5) 0.0687(13) 0.3866(9)
H46 H 0.5372 0.0595 0.4204
N17 N 0.4530(4) 0.0420(9) 0.3191(7)
N19 N 0.3738(4) 0.1797(9) 0.4064(6)
H47 H 0.3776 0.2209 0.4414
N20 N 0.3835(4) 0.0933(7) 0.3300(6)
Fe2 Fe 0.39756(6) 0.00622(13) 0.26330(11)
C36 C 0.3753(12) 0.160(3) 0.120(2)
H66 H 0.400837 0.172965 0.114397
C19 C 0.3669(4) 0.9257(18) 0.0699(8)
H25 H 0.3671 0.9296 0.0216
H26 H 0.3525 0.8689 0.0701
C20 C 0.4081(5) 0.9185(18) 0.1327(12)
H27 H 0.4227 0.9747 0.1316
H28 H 0.4205 0.8615 0.1253
C21 C 0.4167(6) 0.8298(16) 0.2337(9)
H29 H 0.4236 0.7819 0.2094
C22 C 0.4155(6) 0.8168(14) 0.3007(10)
C23 C 0.4180(7) 0.738(2) 0.3385(14)
H30 H 0.4212 0.6741 0.3283
C24 C 0.4032(5) 0.8743(15) 0.3945(11)
H31 H 0.3955 0.9146 0.4225
H37 H 0.4875 0.9642 0.4075
C30 C 0.3151(4) 0.9891(12) 0.0811(7)
H38 H 0.3007 0.9475 0.0384
C31 C 0.3164(4) 0.9445(10) 0.1458(8)
H40 H 0.3258 0.8791 0.1482
H41 H 0.2904 0.9401 0.1399
N12 N 0.4075(5) 0.9125(17) 0.2094(8)
N13 N 0.4139(6) 0.7849(17) 0.4080(12)
H45 H 0.4183 0.7547 0.4488
N14 N 0.4056(4) 0.8960(9) 0.3312(7)
N18 N 0.3400(3) 0.9915(7) 0.2169(5)
C25_2 C 0.6328(10) 0.078(3) 0.9243(18)
H32_2 H 0.6453 0.1028 0.9751
H33_2 H 0.6068 0.0587 0.9127
H34_2 H 0.6263 0.2340 0.8669
C26_2 C 0.5683(5) 0.1692(11) 0.7700(9)
H35_2 H 0.5655 0.2256 0.7923
C27_2 C 0.5393(5) 0.1265(14) 0.7071(9)
C28_2 C 0.4984(6) 0.1453(17) 0.6666(12)
H36_2 H 0.4841 0.1944 0.6735
C29_2 C 0.5144(6) 0.0165(16) 0.6232(10)
H39_2 H 0.6992 0.0488 0.9272
C32_2 C 0.6769(4) 0.0390(9) 0.7523(8)
H42_2 H 0.7035 0.0382 0.7716
C33_2 C 0.6541(4) 0.0920(9) 0.6890(6)
C34_2 C 0.6584(4) 0.1468(9) 0.6400(7)
H43_2 H 0.6817 0.1597 0.6396
C35_2 C 0.5979(6) 0.1391(13) 0.6077(9)
H44_2 H 0.5714 0.1436 0.5788
N11_2 N 0.6505(4) 0.0097(10) 0.9181(7)
N15_2 N 0.5995(4) 0.1204(8) 0.7933(7)
N16_2 N 0.4861(5) 0.0687(13) 0.6134(9)
H46_2 H 0.4628 0.0595 0.5796
N17_2 N 0.5470(4) 0.0420(9) 0.6809(7)
N19_2 N 0.6262(4) 0.1797(9) 0.5936(6)
H47_2 H 0.6224 0.2209 0.5586
N20_2 N 0.6165(4) 0.0933(7) 0.6700(6)
Fe2_2 Fe 0.60244(6) 0.00622(13) 0.73670(11)
C36_2 C 0.6247(12) 0.160(3) 0.880(2)
H66_2 H 0.599163 0.172965 0.885603
C19_2 C 0.6331(4) 0.9257(18) 0.9301(8)
H25_2 H 0.6329 0.9296 0.9784
H26_2 H 0.6475 0.8689 0.9299
C20_2 C 0.5919(5) 0.9185(18) 0.8673(12)
H27_2 H 0.5773 0.9747 0.8684
H28_2 H 0.5795 0.8615 0.8747
C21_2 C 0.5833(6) 0.8298(16) 0.7663(9)
H29_2 H 0.5764 0.7819 0.7906
C22_2 C 0.5845(6) 0.8168(14) 0.6993(10)
C23_2 C 0.5820(7) 0.738(2) 0.6615(14)
H30_2 H 0.5788 0.6741 0.6717
C24_2 C 0.5968(5) 0.8743(15) 0.6055(11)
H31_2 H 0.6045 0.9146 0.5775
H37_2 H 0.5125 0.9642 0.5925
C30_2 C 0.6849(4) 0.9891(12) 0.9189(7)
H38_2 H 0.6993 0.9475 0.9616
C31_2 C 0.6836(4) 0.9445(10) 0.8542(8)
H40_2 H 0.6742 0.8791 0.8518
H41_2 H 0.7096 0.9401 0.8601
N12_2 N 0.5925(5) 0.9125(17) 0.7906(8)
N13_2 N 0.5861(6) 0.7849(17) 0.5920(12)
H45_2 H 0.5817 0.7547 0.5512
N14_2 N 0.5944(4) 0.8960(9) 0.6688(7)
N18_2 N 0.6600(3) 0.9915(7) 0.7831(5)
C28_3 C 0.0016(6) 0.6453(17) 0.3334(12)
H36_3 H 0.0159 0.6944 0.3265
N16_3 N 0.0139(5) 0.5687(13) 0.3866(9)
H46_3 H 0.0372 0.5595 0.4204
C19_3 C 0.8669(4) 0.4257(18) 0.0699(8)
H25_3 H 0.8671 0.4296 0.0216
H26_3 H 0.8525 0.3689 0.0701
C20_3 C 0.9081(5) 0.4185(18) 0.1327(12)
H27_3 H 0.9227 0.4747 0.1316
H28_3 H 0.9205 0.3615 0.1253
C21_3 C 0.9167(6) 0.3298(16) 0.2337(9)
H29_3 H 0.9236 0.2819 0.2094
C22_3 C 0.9155(6) 0.3168(14) 0.3007(10)
C23_3 C 0.9180(7) 0.238(2) 0.3385(14)
H30_3 H 0.9212 0.1741 0.3283
C24_3 C 0.9032(5) 0.3743(15) 0.3945(11)
H31_3 H 0.8955 0.4146 0.4225
C25_3 C 0.8672(10) 0.578(3) 0.0757(18)
H32_3 H 0.8547 0.6028 0.0249
H33_3 H 0.8932 0.5587 0.0873
H34_3 H 0.8737 0.7340 0.1331
C26_3 C 0.9317(5) 0.6692(11) 0.2300(9)
H35_3 H 0.9345 0.7256 0.2077
C27_3 C 0.9607(5) 0.6265(14) 0.2929(9)
C29_3 C 0.9856(6) 0.5165(16) 0.3768(10)
H37_3 H 0.9875 0.4642 0.4075
C30_3 C 0.8151(4) 0.4891(12) 0.0811(7)
H38_3 H 0.8007 0.4475 0.0384
H39_3 H 0.8008 0.5488 0.0728
C31_3 C 0.8164(4) 0.4445(10) 0.1458(8)
H40_3 H 0.8258 0.3791 0.1482
H41_3 H 0.7904 0.4401 0.1399
C32_3 C 0.8231(4) 0.5390(9) 0.2477(8)
H42_3 H 0.7965 0.5382 0.2284
C33_3 C 0.8459(4) 0.5920(9) 0.3110(6)
C34_3 C 0.8416(4) 0.6468(9) 0.3600(7)
H43_3 H 0.8183 0.6597 0.3604
C35_3 C 0.9021(6) 0.6391(13) 0.3923(9)
H44_3 H 0.9286 0.6436 0.4212
N11_3 N 0.8495(4) 0.5097(10) 0.0819(7)
N12_3 N 0.9075(5) 0.4125(17) 0.2094(8)
N13_3 N 0.9139(6) 0.2849(17) 0.4080(12)
H45_3 H 0.9183 0.2547 0.4488
N14_3 N 0.9056(4) 0.3960(9) 0.3312(7)
N15_3 N 0.9005(4) 0.6204(8) 0.2067(7)
N17_3 N 0.9530(4) 0.5420(9) 0.3191(7)
N18_3 N 0.8400(3) 0.4915(7) 0.2169(5)
N19_3 N 0.8738(4) 0.6797(9) 0.4064(6)
H47_3 H 0.8776 0.7209 0.4414
N20_3 N 0.8835(4) 0.5933(7) 0.3300(6)
Fe2_3 Fe 0.89756(6) 0.50622(13) 0.26330(11)
C36_3 C 0.8753(12) 0.660(3) 0.120(2)
H66_3 H 0.900837 0.672965 0.114397
C19_4 C 0.1331(4) 0.4257(18) 0.9301(8)
H25_4 H 0.1329 0.4296 0.9784
H26_4 H 0.1475 0.3689 0.9299
C20_4 C 0.0919(5) 0.4185(18) 0.8673(12)
H27_4 H 0.0773 0.4747 0.8684
H28_4 H 0.0795 0.3615 0.8747
C21_4 C 0.0833(6) 0.3298(16) 0.7663(9)
H29_4 H 0.0764 0.2819 0.7906
C22_4 C 0.0845(6) 0.3168(14) 0.6993(10)
C23_4 C 0.0820(7) 0.238(2) 0.6615(14)
H30_4 H 0.0788 0.1741 0.6717
C24_4 C 0.0968(5) 0.3743(15) 0.6055(11)
H31_4 H 0.1045 0.4146 0.5775
C25_4 C 0.1328(10) 0.578(3) 0.9243(18)
H32_4 H 0.1453 0.6028 0.9751
H33_4 H 0.1068 0.5587 0.9127
H34_4 H 0.1263 0.7340 0.8669
C26_4 C 0.0683(5) 0.6692(11) 0.7700(9)
H35_4 H 0.0655 0.7256 0.7923
C27_4 C 0.0393(5) 0.6265(14) 0.7071(9)
C29_4 C 0.0144(6) 0.5165(16) 0.6232(10)
H37_4 H 0.0125 0.4642 0.5925
C30_4 C 0.1849(4) 0.4891(12) 0.9189(7)
H38_4 H 0.1993 0.4475 0.9616
H39_4 H 0.1992 0.5488 0.9272
C31_4 C 0.1836(4) 0.4445(10) 0.8542(8)
H40_4 H 0.1742 0.3791 0.8518
H41_4 H 0.2096 0.4401 0.8601
C32_4 C 0.1769(4) 0.5390(9) 0.7523(8)
H42_4 H 0.2035 0.5382 0.7716
C33_4 C 0.1541(4) 0.5920(9) 0.6890(6)
C34_4 C 0.1584(4) 0.6468(9) 0.6400(7)
H43_4 H 0.1817 0.6597 0.6396
C35_4 C 0.0979(6) 0.6391(13) 0.6077(9)
H44_4 H 0.0714 0.6436 0.5788
N11_4 N 0.1505(4) 0.5097(10) 0.9181(7)
N12_4 N 0.0925(5) 0.4125(17) 0.7906(8)
N13_4 N 0.0861(6) 0.2849(17) 0.5920(12)
H45_4 H 0.0817 0.2547 0.5512
N14_4 N 0.0944(4) 0.3960(9) 0.6688(7)
N15_4 N 0.0995(4) 0.6204(8) 0.7933(7)
N17_4 N 0.0470(4) 0.5420(9) 0.6809(7)
N18_4 N 0.1600(3) 0.4915(7) 0.7831(5)
N19_4 N 0.1262(4) 0.6797(9) 0.5936(6)
H47_4 H 0.1224 0.7209 0.5586
N20_4 N 0.1165(4) 0.5933(7) 0.6700(6)
Fe2_4 Fe 0.10244(6) 0.50622(13) 0.73670(11)
C36_4 C 0.1247(12) 0.660(3) 0.880(2)
H66_4 H 0.099163 0.672965 0.885603
C28_4 C 0.9984(6) 0.6453(17) 0.6666(12)
H36_4 H 0.9841 0.6944 0.6735
N16_4 N 0.9861(5) 0.5687(13) 0.6134(9)
H46_4 H 0.9628 0.5595 0.5796
C37 C 0.3852(5) 0.0232(10) 0.5389(7)
C38 C 0.3967(4) 0.0451(10) 0.6184(8)
C39 C 0.2549(5) 0.0326(8) 0.4267(7)
C40 C 0.2701(4) 0.1249(8) 0.4642(6)
C41 C 0.2419(3) 0.1953(8) 0.2291(7)
C42 C 0.2004(3) 0.2197(8) 0.1749(7)
C43 C 0.3024(3) 0.3496(7) 0.1181(5)
C44 C 0.2754(3) 0.4195(8) 0.1293(5)
C45 C 0.4212(4) 0.4638(9) 0.2244(7)
C46 C 0.4152(4) 0.5073(8) 0.1453(6)
C47 C 0.4788(3) 0.2929(10) 0.1098(6)
C48 C 0.5092(3) 0.3634(10) 0.1128(7)
C49 C 0.2004(3) 0.3682(7) 0.3735(5)
C50 C 0.1777(3) 0.3065(7) 0.4028(6)
C51 C 0.3032(3) 0.6901(7) 0.0431(6)
O1 O 0.4257(3) 0.0752(8) 0.6635(6)
O2 O 0.4127(3) 0.0243(7) 0.5221(4)
O3 O 0.3659(2) 0.0260(5) 0.6311(3)
O4 O 0.3524(3) 0.0030(6) 0.4947(4)
O5 O 0.3009(2) 0.1182(5) 0.5248(4)
O7 O 0.2535(3) 0.1999(5) 0.4369(4)
O8 O 0.2231(2) 0.0349(5) 0.3698(4)
O9 O 0.2488(2) 0.1671(5) 0.2906(4)
O10 O 0.1759(2) 0.2123(6) 0.1987(5)
O11 O 0.2647(2) 0.2110(5) 0.2045(4)
O12 O 0.1932(2) 0.2376(5) 0.1095(4)
O13 O 0.2889(2) 0.2671(4) 0.0981(4)
O14 O 0.2446(2) 0.3846(5) 0.1207(4)
O15 O 0.3327(2) 0.3768(5) 0.1286(4)
O16 O 0.2849(2) 0.5001(5) 0.1480(4)
O17 O 0.3960(3) 0.4734(6) 0.2379(4)
O18 O 0.3832(2) 0.5479(6) 0.1069(4)
O19 O 0.4515(3) 0.4232(6) 0.2562(4)
O20 O 0.4418(2) 0.5005(6) 0.1314(4)
O21 O 0.4655(2) 0.3121(6) 0.1549(4)
O22 O 0.5156(2) 0.4330(6) 0.1552(5)
O23 O 0.46887(19) 0.2275(6) 0.0656(4)
O24 O 0.5262(2) 0.3419(6) 0.0778(5)
O25 O 0.1735(2) 0.2227(6) 0.3891(4)
O26 O 0.2089(2) 0.3286(5) 0.3298(5)
O27 O 0.1658(2) 0.3498(5) 0.4420(4)
O28 O 0.2044(2) 0.4542(5) 0.3926(3)
O29 O 0.2995(2) 0.5229(5) 0.0256(4)
O30 O 0.3243(2) 0.6791(5) 0.1098(4)
O32 O 0.2899(2) 0.7656(5) 0.0077(4)
O33 O 0.5305(3) 0.3802(9) 0.2975(7)
O34 O 0.5077(4) 0.5512(9) 0.2623(7)
O35 O 0.5576(7) 0.6060(15) 0.3614(10)
C53 C 0.5364(6) 0.5416(13) 0.3196(9)
O36 O 0.5846(7) 0.4387(19) 0.3963(13)
C54 C 0.5535(9) 0.4417(15) 0.341(2)
Cr2 Cr 0.23975(5) 0.24810(11) 0.09758(9)
Cr3 Cr 0.48589(6) 0.43195(18) 0.21009(12)
Mn1 Mn 0.20177(5) 0.17389(11) 0.32181(9)
Mn2 Mn 0.34077(5) 0.53442(11) 0.14996(9)
Mn3 Mn 0.5000 0.22208(19) 0.0000
C55 C 0.1336(5) 0.0287(10) 0.2944(9)
H48 H 0.1099 0.0036 0.2558
H49 H 0.1287 0.0601 0.3321
O37 O 0.1488(3) 0.0935(6) 0.2639(6)
C56 C 0.3278(5) 0.6686(10) 0.2643(8)
H51 H 0.3389 0.6873 0.3162
H52 H 0.3031 0.6394 0.2501
H53 H 0.3247 0.7246 0.2337
O38 O 0.3517(2) 0.6030(6) 0.2539(4)
C57 C 0.5636(6) 0.0586(14) 0.0509(12)
H54 H 0.5798 0.0209 0.0941
H55 H 0.5794 0.0945 0.0342
H56 H 0.5469 0.0165 0.0114
O39 O 0.5410(2) 0.1243(7) 0.0704(4)
C73 C 0.7111(3) 0.5979(7) 0.0015(6)
O70 O 0.7357(2) 0.6119(5) 0.0700(4)
O84 O 0.2357(2) 0.1119(5) 0.0700(4)
O85 O 0.7899(2) 0.2656(5) 0.0077(4)
Cr8 Cr 0.17910(6) 0.48596(12) 0.45491(9)
Cr9 Cr 0.73975(5) 0.74810(11) 0.09758(9)
C52 C 0.2889(3) 0.5979(7) 0.9985(6)
O31 O 0.2643(2) 0.6119(5) 0.9300(4)
Mn3_2 Mn 0.5000 0.22208(19) 1.0000
C58 C 0.6148(5) 0.0232(10) 0.4611(7)
C59 C 0.6033(4) 0.0451(10) 0.3816(8)
C60 C 0.7451(5) 0.0326(8) 0.5733(7)
C61 C 0.7299(4) 0.1249(8) 0.5358(6)
C62 C 0.7581(3) 0.1953(8) 0.7709(7)
C63 C 0.7996(3) 0.2197(8) 0.8251(7)
C64 C 0.6976(3) 0.3496(7) 0.8819(5)
C65 C 0.7246(3) 0.4195(8) 0.8707(5)
C66 C 0.5788(4) 0.4638(9) 0.7756(7)
C67 C 0.5848(4) 0.5073(8) 0.8547(6)
C68 C 0.5212(3) 0.2929(10) 0.8902(6)
C69 C 0.4908(3) 0.3634(10) 0.8872(7)
C70 C 0.7996(3) 0.3682(7) 0.6265(5)
C71 C 0.8223(3) 0.3065(7) 0.5972(6)
C72 C 0.6968(3) 0.6901(7) 0.9569(6)
O40 O 0.5743(3) 0.0752(8) 0.3365(6)
O41 O 0.5873(3) 0.0243(7) 0.4779(4)
O42 O 0.6341(2) 0.0260(5) 0.3689(3)
O43 O 0.6476(3) 0.0030(6) 0.5053(4)
O44 O 0.6991(2) 0.1182(5) 0.4752(4)
O46 O 0.7465(3) 0.1999(5) 0.5631(4)
O47 O 0.7769(2) 0.0349(5) 0.6302(4)
O48 O 0.7512(2) 0.1671(5) 0.7094(4)
O49 O 0.8241(2) 0.2123(6) 0.8013(5)
O50 O 0.7353(2) 0.2110(5) 0.7955(4)
O51 O 0.8068(2) 0.2376(5) 0.8905(4)
O52 O 0.7111(2) 0.2671(4) 0.9019(4)
O53 O 0.7554(2) 0.3846(5) 0.8793(4)
O54 O 0.6673(2) 0.3768(5) 0.8714(4)
O55 O 0.7151(2) 0.5001(5) 0.8520(4)
O56 O 0.6040(3) 0.4734(6) 0.7621(4)
O57 O 0.6168(2) 0.5479(6) 0.8931(4)
O58 O 0.5485(3) 0.4232(6) 0.7438(4)
O59 O 0.5582(2) 0.5005(6) 0.8686(4)
O60 O 0.5345(2) 0.3121(6) 0.8451(4)
O61 O 0.4844(2) 0.4330(6) 0.8448(5)
O62 O 0.53113(19) 0.2275(6) 0.9344(4)
O63 O 0.4738(2) 0.3419(6) 0.9222(5)
O64 O 0.8265(2) 0.2227(6) 0.6109(4)
O65 O 0.7911(2) 0.3286(5) 0.6702(5)
O66 O 0.8342(2) 0.3498(5) 0.5580(4)
O67 O 0.7956(2) 0.4542(5) 0.6074(3)
O68 O 0.7005(2) 0.5229(5) 0.9744(4)
O69 O 0.6757(2) 0.6791(5) 0.8902(4)
O71 O 0.7101(2) 0.7656(5) 0.9923(4)
O72 O 0.4695(3) 0.3802(9) 0.7025(7)
O73 O 0.4923(4) 0.5512(9) 0.7377(7)
O74 O 0.4424(7) 0.6060(15) 0.6386(10)
C74 C 0.4636(6) 0.5416(13) 0.6804(9)
O75 O 0.4154(7) 0.4387(19) 0.6037(13)
C75 C 0.4465(9) 0.4417(15) 0.659(2)
Cr5 Cr 0.76025(5) 0.24810(11) 0.90242(9)
Cr6 Cr 0.51411(6) 0.43195(18) 0.78991(12)
Mn4 Mn 0.79823(5) 0.17389(11) 0.67819(9)
Mn5 Mn 0.65923(5) 0.53442(11) 0.85004(9)
C76 C 0.8664(5) 0.0287(10) 0.7056(9)
H57 H 0.8901 0.0036 0.7442
H58 H 0.8713 0.0601 0.6679
O76 O 0.8512(3) 0.0935(6) 0.7361(6)
C77 C 0.6722(5) 0.6686(10) 0.7357(8)
H60 H 0.6611 0.6873 0.6838
H61 H 0.6969 0.6394 0.7499
H62 H 0.6753 0.7246 0.7663
O77 O 0.6483(2) 0.6030(6) 0.7461(4)
C78 C 0.4364(6) 0.0586(14) 0.9491(12)
H63 H 0.4202 0.0209 0.9059
H64 H 0.4206 0.0945 0.9658
H65 H 0.4531 0.0165 0.9886
O78 O 0.4590(2) 0.1243(7) 0.9296(4)
O83 O 0.7643(2) 0.1119(5) 0.9300(4)
O86 O 0.2101(2) 0.2656(5) 0.9923(4)
Cr7 Cr 0.82090(6) 0.48596(12) 0.54509(9)
Cr10 Cr 0.26025(5) 0.74810(11) 0.90242(9)
O6 O 0.2734(2) 0.9586(5) 0.4530(4)
Cr1 Cr 0.32090(6) 0.98596(12) 0.54509(9)
H50 H 0.1514 0.9766 0.3169
O80 O 0.3342(2) 0.8498(5) 0.5580(4)
O82 O 0.2956(2) 0.9542(5) 0.6074(3)
O45 O 0.7266(2) 0.9586(5) 0.5470(4)
Cr4 Cr 0.67910(6) 0.98596(12) 0.45491(9)
H59 H 0.8486 0.9766 0.6831
O79 O 0.6658(2) 0.8498(5) 0.4420(4)
O81 O 0.7044(2) 0.9542(5) 0.3926(3)
O34_2 O 0.0077(4) 0.0512(9) 0.2623(7)
O35_2 O 0.0576(7) 0.1060(15) 0.3614(10)
C53_2 C 0.0364(6) 0.0416(13) 0.3196(9)
C73_2 C 0.2111(3) 0.0979(7) 0.0015(6)
C67_2 C 0.0848(4) 0.0073(8) 0.8547(6)
C72_2 C 0.1968(3) 0.1901(7) 0.9569(6)
O55_2 O 0.2151(2) 0.0001(5) 0.8520(4)
O57_2 O 0.1168(2) 0.0479(6) 0.8931(4)
O59_2 O 0.0582(2) 0.0005(6) 0.8686(4)
O68_2 O 0.2005(2) 0.0229(5) 0.9744(4)
O69_2 O 0.1757(2) 0.1791(5) 0.8902(4)
Mn5_2 Mn 0.15923(5) 0.03442(11) 0.85004(9)
C77_2 C 0.1722(5) 0.1686(10) 0.7357(8)
H60_2 H 0.1611 0.1873 0.6838
H61_2 H 0.1969 0.1394 0.7499
H62_2 H 0.1753 0.2246 0.7663
O77_2 O 0.1483(2) 0.1030(6) 0.7461(4)
C48_2 C 0.0092(3) 0.8634(10) 0.1128(7)
O22_2 O 0.0156(2) 0.9330(6) 0.1552(5)
O24_2 O 0.0262(2) 0.8419(6) 0.0778(5)
O33_2 O 0.0305(3) 0.8802(9) 0.2975(7)
O36_2 O 0.0846(7) 0.9387(19) 0.3963(13)
C54_2 C 0.0535(9) 0.9417(15) 0.341(2)
Mn3_3 Mn -0.0000 0.72208(19) 0.0000
C57_2 C 0.0636(6) 0.5586(14) 0.0509(12)
H54_2 H 0.0798 0.5209 0.0941
H55_2 H 0.0794 0.5945 0.0342
H56_2 H 0.0469 0.5165 0.0114
O39_2 O 0.0410(2) 0.6243(7) 0.0704(4)
Mn3_4 Mn -0.0000 0.72208(19) 1.0000
C58_2 C 0.1148(5) 0.5232(10) 0.4611(7)
C59_2 C 0.1033(4) 0.5451(10) 0.3816(8)
C60_2 C 0.2451(5) 0.5326(8) 0.5733(7)
C61_2 C 0.2299(4) 0.6249(8) 0.5358(6)
C62_2 C 0.2581(3) 0.6953(8) 0.7709(7)
C63_2 C 0.2996(3) 0.7197(8) 0.8251(7)
C64_2 C 0.1976(3) 0.8496(7) 0.8819(5)
C65_2 C 0.2246(3) 0.9195(8) 0.8707(5)
C66_2 C 0.0788(4) 0.9638(9) 0.7756(7)
C68_2 C 0.0212(3) 0.7929(10) 0.8902(6)
C70_2 C 0.2996(3) 0.8682(7) 0.6265(5)
C71_2 C 0.3223(3) 0.8065(7) 0.5972(6)
O40_2 O 0.0743(3) 0.5752(8) 0.3365(6)
O41_2 O 0.0873(3) 0.5243(7) 0.4779(4)
O42_2 O 0.1341(2) 0.5260(5) 0.3689(3)
O43_2 O 0.1476(3) 0.5030(6) 0.5053(4)
O44_2 O 0.1991(2) 0.6182(5) 0.4752(4)
O45_2 O 0.2266(2) 0.4586(5) 0.5470(4)
O46_2 O 0.2465(3) 0.6999(5) 0.5631(4)
O47_2 O 0.2769(2) 0.5349(5) 0.6302(4)
O48_2 O 0.2512(2) 0.6671(5) 0.7094(4)
O49_2 O 0.3241(2) 0.7123(6) 0.8013(5)
O50_2 O 0.2353(2) 0.7110(5) 0.7955(4)
O51_2 O 0.3068(2) 0.7376(5) 0.8905(4)
O52_2 O 0.2111(2) 0.7671(4) 0.9019(4)
O53_2 O 0.2554(2) 0.8846(5) 0.8793(4)
O54_2 O 0.1673(2) 0.8768(5) 0.8714(4)
O56_2 O 0.1040(3) 0.9734(6) 0.7621(4)
O58_2 O 0.0485(3) 0.9232(6) 0.7438(4)
O60_2 O 0.0345(2) 0.8121(6) 0.8451(4)
O62_2 O 0.03113(19) 0.7275(6) 0.9344(4)
O64_2 O 0.3265(2) 0.7227(6) 0.6109(4)
O65_2 O 0.2911(2) 0.8286(5) 0.6702(5)
Cr6_2 Cr 0.01411(6) 0.93195(18) 0.78991(12)
Mn4_2 Mn 0.29823(5) 0.67389(11) 0.67819(9)
C76_2 C 0.3664(5) 0.5287(10) 0.7056(9)
H57_2 H 0.3901 0.5036 0.7442
H58_2 H 0.3713 0.5601 0.6679
H59_2 H 0.3486 0.4766 0.6831
O76_2 O 0.3512(3) 0.5935(6) 0.7361(6)
C46_2 C 0.9152(4) 0.0073(8) 0.1453(6)
C51_2 C 0.8032(3) 0.1901(7) 0.0431(6)
O16_2 O 0.7849(2) 0.0001(5) 0.1480(4)
O18_2 O 0.8832(2) 0.0479(6) 0.1069(4)
O20_2 O 0.9418(2) 0.0005(6) 0.1314(4)
O29_2 O 0.7995(2) 0.0229(5) 0.0256(4)
O30_2 O 0.8243(2) 0.1791(5) 0.1098(4)
Mn2_2 Mn 0.84077(5) 0.03442(11) 0.14996(9)
C56_2 C 0.8278(5) 0.1686(10) 0.2643(8)
H51_2 H 0.8389 0.1873 0.3162
H52_2 H 0.8031 0.1394 0.2501
H53_2 H 0.8247 0.2246 0.2337
O38_2 O 0.8517(2) 0.1030(6) 0.2539(4)
C52_2 C 0.7889(3) 0.0979(7) 0.9985(6)
O73_2 O 0.9923(4) 0.0512(9) 0.7377(7)
O74_2 O 0.9424(7) 0.1060(15) 0.6386(10)
C74_2 C 0.9636(6) 0.0416(13) 0.6804(9)
C37_2 C 0.8852(5) 0.5232(10) 0.5389(7)
C38_2 C 0.8967(4) 0.5451(10) 0.6184(8)
C39_2 C 0.7549(5) 0.5326(8) 0.4267(7)
C40_2 C 0.7701(4) 0.6249(8) 0.4642(6)
C41_2 C 0.7419(3) 0.6953(8) 0.2291(7)
C42_2 C 0.7004(3) 0.7197(8) 0.1749(7)
C43_2 C 0.8024(3) 0.8496(7) 0.1181(5)
C44_2 C 0.7754(3) 0.9195(8) 0.1293(5)
C45_2 C 0.9212(4) 0.9638(9) 0.2244(7)
C47_2 C 0.9788(3) 0.7929(10) 0.1098(6)
C49_2 C 0.7004(3) 0.8682(7) 0.3735(5)
C50_2 C 0.6777(3) 0.8065(7) 0.4028(6)
O1_2 O 0.9257(3) 0.5752(8) 0.6635(6)
O2_2 O 0.9127(3) 0.5243(7) 0.5221(4)
O3_2 O 0.8659(2) 0.5260(5) 0.6311(3)
O4_2 O 0.8524(3) 0.5030(6) 0.4947(4)
O5_2 O 0.8009(2) 0.6182(5) 0.5248(4)
O6_2 O 0.7734(2) 0.4586(5) 0.4530(4)
O7_2 O 0.7535(3) 0.6999(5) 0.4369(4)
O8_2 O 0.7231(2) 0.5349(5) 0.3698(4)
O9_2 O 0.7488(2) 0.6671(5) 0.2906(4)
O10_2 O 0.6759(2) 0.7123(6) 0.1987(5)
O11_2 O 0.7647(2) 0.7110(5) 0.2045(4)
O12_2 O 0.6932(2) 0.7376(5) 0.1095(4)
O13_2 O 0.7889(2) 0.7671(4) 0.0981(4)
O14_2 O 0.7446(2) 0.8846(5) 0.1207(4)
O15_2 O 0.8327(2) 0.8768(5) 0.1286(4)
O17_2 O 0.8960(3) 0.9734(6) 0.2379(4)
O19_2 O 0.9515(3) 0.9232(6) 0.2562(4)
O21_2 O 0.9655(2) 0.8121(6) 0.1549(4)
O23_2 O 0.96887(19) 0.7275(6) 0.0656(4)
O25_2 O 0.6735(2) 0.7227(6) 0.3891(4)
O26_2 O 0.7089(2) 0.8286(5) 0.3298(5)
Cr3_2 Cr 0.98589(6) 0.93195(18) 0.21009(12)
Mn1_2 Mn 0.70177(5) 0.67389(11) 0.32181(9)
Mn3_5 Mn 1.0000 0.72208(19) 0.0000
C55_2 C 0.6336(5) 0.5287(10) 0.2944(9)
H48_2 H 0.6099 0.5036 0.2558
H49_2 H 0.6287 0.5601 0.3321
H50_2 H 0.6514 0.4766 0.3169
O37_2 O 0.6488(3) 0.5935(6) 0.2639(6)
Mn3_6 Mn 1.0000 0.72208(19) 1.0000
C69_2 C 0.9908(3) 0.8634(10) 0.8872(7)
O61_2 O 0.9844(2) 0.9330(6) 0.8448(5)
O63_2 O 0.9738(2) 0.8419(6) 0.9222(5)
O72_2 O 0.9695(3) 0.8802(9) 0.7025(7)
O75_2 O 0.9154(7) 0.9387(19) 0.6037(13)
C75_2 C 0.9465(9) 0.9417(15) 0.659(2)
C78_2 C 0.9364(6) 0.5586(14) 0.9491(12)
H63_2 H 0.9202 0.5209 0.9059
H64_2 H 0.9206 0.5945 0.9658
H65_2 H 0.9531 0.5165 0.9886
O78_2 O 0.9590(2) 0.6243(7) 0.9296(4)
loop_
_geom_bond_atom_site_label_1
_geom_bond_atom_site_label_2
_geom_bond_site_symmetry_1
_geom_bond_site_symmetry_2
C1 H1 1_555 1_555
H2 C1 1_555 1_555
C2 C1 1_555 1_555
H3 C2 1_555 1_555
H4 C2 1_555 1_555
C3 H5 1_555 1_555
C4 C3 1_555 1_555
C5 C4 1_555 1_555
H6 C5 1_555 1_555
C6 H7 1_555 1_555
H9 C7 1_555 1_555
C8 C7 1_555 1_555
H10 C8 1_555 1_555
H11 C8 1_555 1_555
C9 H12 1_555 1_555
C10 C9 1_555 1_555
C11 C10 1_555 1_555
H13 C11 1_555 1_555
C12 H14 1_555 1_555
H16 C13 1_555 1_555
C14 C13 1_555 1_555
H17 C14 1_555 1_555
H18 C14 1_555 1_555
C15 H19 1_555 1_555
C16 C15 1_555 1_555
C17 C16 1_555 1_555
H20 C17 1_555 1_555
C18 H21 1_555 1_555
N1 C1 1_555 1_555
N2 C2 1_555 1_555
N3 C5 1_555 1_555
H22 N3 1_555 1_555
N4 C4 1_555 1_555
N5 C8 1_555 1_555
N6 C11 1_555 1_555
H23 N6 1_555 1_555
N7 C10 1_555 1_555
N8 C14 1_555 1_555
N9 C17 1_555 1_555
H24 N9 1_555 1_555
N10 C16 1_555 1_555
Fe1 N2 1_555 1_555
C3 N2 1_555 1_555
C6 N3 1_555 1_555
C6 N4 1_555 1_555
C7 N1 1_555 1_555
C9 N5 1_555 1_555
C12 N6 1_555 1_555
C12 N7 1_555 1_555
C13 N1 1_555 1_555
C15 N8 1_555 1_555
C18 N9 1_555 1_555
C18 N10 1_555 1_555
N4 Fe1 1_555 1_555
N5 Fe1 1_555 1_555
N7 Fe1 1_555 1_555
N8 Fe1 1_555 1_555
N10 Fe1 1_555 1_555
C1_2 H1_2 1_555 1_555
H2_2 C1_2 1_555 1_555
C2_2 C1_2 1_555 1_555
H3_2 C2_2 1_555 1_555
H4_2 C2_2 1_555 1_555
C3_2 H5_2 1_555 1_555
C4_2 C3_2 1_555 1_555
C5_2 C4_2 1_555 1_555
H6_2 C5_2 1_555 1_555
C6_2 H7_2 1_555 1_555
H9_2 C7_2 1_555 1_555
C8_2 C7_2 1_555 1_555
H10_2 C8_2 1_555 1_555
H11_2 C8_2 1_555 1_555
C9_2 H12_2 1_555 1_555
C10_2 C9_2 1_555 1_555
C11_2 C10_2 1_555 1_555
H13_2 C11_2 1_555 1_555
C12_2 H14_2 1_555 1_555
H16_2 C13_2 1_555 1_555
C14_2 C13_2 1_555 1_555
H17_2 C14_2 1_555 1_555
H18_2 C14_2 1_555 1_555
C15_2 H19_2 1_555 1_555
C16_2 C15_2 1_555 1_555
C17_2 C16_2 1_555 1_555
H20_2 C17_2 1_555 1_555
C18_2 H21_2 1_555 1_555
N1_2 C1_2 1_555 1_555
N2_2 C2_2 1_555 1_555
N3_2 C5_2 1_555 1_555
H22_2 N3_2 1_555 1_555
N4_2 C4_2 1_555 1_555
N5_2 C8_2 1_555 1_555
N6_2 C11_2 1_555 1_555
H23_2 N6_2 1_555 1_555
N7_2 C10_2 1_555 1_555
N8_2 C14_2 1_555 1_555
N9_2 C17_2 1_555 1_555
H24_2 N9_2 1_555 1_555
N10_2 C16_2 1_555 1_555
Fe1_2 N2_2 1_555 1_555
C3_2 N2_2 1_555 1_555
C6_2 N3_2 1_555 1_555
C6_2 N4_2 1_555 1_555
C7_2 N1_2 1_555 1_555
C9_2 N5_2 1_555 1_555
C12_2 N6_2 1_555 1_555
C12_2 N7_2 1_555 1_555
C13_2 N1_2 1_555 1_555
C15_2 N8_2 1_555 1_555
C18_2 N9_2 1_555 1_555
C18_2 N10_2 1_555 1_555
N4_2 Fe1_2 1_555 1_555
N5_2 Fe1_2 1_555 1_555
N7_2 Fe1_2 1_555 1_555
N8_2 Fe1_2 1_555 1_555
N10_2 Fe1_2 1_555 1_555
C1_3 H1_3 1_555 1_555
H2_3 C1_3 1_555 1_555
C2_3 C1_3 1_555 1_555
H3_3 C2_3 1_555 1_555
H4_3 C2_3 1_555 1_555
C3_3 H5_3 1_555 1_555
C4_3 C3_3 1_555 1_555
C6_3 H7_3 1_555 1_555
H9_3 C7_3 1_555 1_555
C8_3 C7_3 1_555 1_555
H10_3 C8_3 1_555 1_555
H11_3 C8_3 1_555 1_555
C9_3 H12_3 1_555 1_555
C10_3 C9_3 1_555 1_555
C11_3 C10_3 1_555 1_555
H13_3 C11_3 1_555 1_555
C12_3 H14_3 1_555 1_555
C13_3 H15_3 1_555 1_555
H16_3 C13_3 1_555 1_555
C14_3 C13_3 1_555 1_555
H17_3 C14_3 1_555 1_555
H18_3 C14_3 1_555 1_555
C15_3 H19_3 1_555 1_555
C16_3 C15_3 1_555 1_555
C17_3 C16_3 1_555 1_555
H20_3 C17_3 1_555 1_555
C18_3 H21_3 1_555 1_555
N1_3 C1_3 1_555 1_555
N2_3 C2_3 1_555 1_555
N4_3 C4_3 1_555 1_555
N5_3 C8_3 1_555 1_555
N6_3 C11_3 1_555 1_555
H23_3 N6_3 1_555 1_555
N7_3 C10_3 1_555 1_555
N8_3 C14_3 1_555 1_555
N9_3 C17_3 1_555 1_555
H24_3 N9_3 1_555 1_555
N10_3 C16_3 1_555 1_555
Fe1_3 N2_3 1_555 1_555
C3_3 N2_3 1_555 1_555
C6_3 N4_3 1_555 1_555
C7_3 N1_3 1_555 1_555
C9_3 N5_3 1_555 1_555
C12_3 N6_3 1_555 1_555
C12_3 N7_3 1_555 1_555
C13_3 N1_3 1_555 1_555
C15_3 N8_3 1_555 1_555
C18_3 N9_3 1_555 1_555
C18_3 N10_3 1_555 1_555
N4_3 Fe1_3 1_555 1_555
N5_3 Fe1_3 1_555 1_555
N7_3 Fe1_3 1_555 1_555
N8_3 Fe1_3 1_555 1_555
N10_3 Fe1_3 1_555 1_555
H6_3 C5_3 1_555 1_555
N3_3 C5_3 1_555 1_555
H22_3 N3_3 1_555 1_555
C1_4 H1_4 1_555 1_555
H2_4 C1_4 1_555 1_555
C2_4 C1_4 1_555 1_555
H3_4 C2_4 1_555 1_555
H4_4 C2_4 1_555 1_555
C3_4 H5_4 1_555 1_555
C4_4 C3_4 1_555 1_555
C6_4 H7_4 1_555 1_555
H9_4 C7_4 1_555 1_555
C8_4 C7_4 1_555 1_555
H10_4 C8_4 1_555 1_555
H11_4 C8_4 1_555 1_555
C9_4 H12_4 1_555 1_555
C10_4 C9_4 1_555 1_555
C11_4 C10_4 1_555 1_555
H13_4 C11_4 1_555 1_555
C12_4 H14_4 1_555 1_555
C13_4 H15_4 1_555 1_555
H16_4 C13_4 1_555 1_555
C14_4 C13_4 1_555 1_555
H17_4 C14_4 1_555 1_555
H18_4 C14_4 1_555 1_555
C15_4 H19_4 1_555 1_555
C16_4 C15_4 1_555 1_555
C17_4 C16_4 1_555 1_555
H20_4 C17_4 1_555 1_555
C18_4 H21_4 1_555 1_555
N1_4 C1_4 1_555 1_555
N2_4 C2_4 1_555 1_555
N4_4 C4_4 1_555 1_555
N5_4 C8_4 1_555 1_555
N6_4 C11_4 1_555 1_555
H23_4 N6_4 1_555 1_555
N7_4 C10_4 1_555 1_555
N8_4 C14_4 1_555 1_555
N9_4 C17_4 1_555 1_555
H24_4 N9_4 1_555 1_555
N10_4 C16_4 1_555 1_555
Fe1_4 N2_4 1_555 1_555
C3_4 N2_4 1_555 1_555
C6_4 N4_4 1_555 1_555
C7_4 N1_4 1_555 1_555
C9_4 N5_4 1_555 1_555
C12_4 N6_4 1_555 1_555
C12_4 N7_4 1_555 1_555
C13_4 N1_4 1_555 1_555
C15_4 N8_4 1_555 1_555
C18_4 N9_4 1_555 1_555
C18_4 N10_4 1_555 1_555
N4_4 Fe1_4 1_555 1_555
N5_4 Fe1_4 1_555 1_555
N7_4 Fe1_4 1_555 1_555
N8_4 Fe1_4 1_555 1_555
N10_4 Fe1_4 1_555 1_555
H6_4 C5_4 1_555 1_555
N3_4 C5_4 1_555 1_555
H22_4 N3_4 1_555 1_555
C25 H32 1_555 1_555
H33 C25 1_555 1_555
H34 C36 1_555 1_555
C26 H35 1_555 1_555
C27 C26 1_555 1_555
C28 C27 1_555 1_555
H36 C28 1_555 1_555
C32 H42 1_555 1_555
C33 C32 1_555 1_555
C34 C33 1_555 1_555
H43 C34 1_555 1_555
C35 H44 1_555 1_555
N15 C26 1_555 1_555
N16 C28 1_555 1_555
H46 N16 1_555 1_555
N17 C27 1_555 1_555
N19 C34 1_555 1_555
H47 N19 1_555 1_555
N20 C33 1_555 1_555
C36 C25 1_555 1_555
C25 N11 1_555 1_555
C29 N16 1_555 1_555
C29 N17 1_555 1_555
C35 N19 1_555 1_555
C35 N20 1_555 1_555
N15 Fe2 1_555 1_555
N15 C36 1_555 1_555
N17 Fe2 1_555 1_555
N20 Fe2 1_555 1_555
C36 H66 1_555 1_555
C19 H25 1_555 1_555
H26 C19 1_555 1_555
C20 C19 1_555 1_555
H27 C20 1_555 1_555
H28 C20 1_555 1_555
C21 H29 1_555 1_555
C22 C21 1_555 1_555
C23 C22 1_555 1_555
H30 C23 1_555 1_555
C24 H31 1_555 1_555
C30 H38 1_555 1_555
C31 C30 1_555 1_555
H40 C31 1_555 1_555
H41 C31 1_555 1_555
N12 C20 1_555 1_555
N13 C23 1_555 1_555
H45 N13 1_555 1_555
N14 C22 1_555 1_555
N18 C31 1_555 1_555
C21 N12 1_555 1_555
C24 N13 1_555 1_555
C24 N14 1_555 1_555
C25_2 H32_2 1_555 1_555
H33_2 C25_2 1_555 1_555
H34_2 C36_2 1_555 1_555
C26_2 H35_2 1_555 1_555
C27_2 C26_2 1_555 1_555
C28_2 C27_2 1_555 1_555
H36_2 C28_2 1_555 1_555
C32_2 H42_2 1_555 1_555
C33_2 C32_2 1_555 1_555
C34_2 C33_2 1_555 1_555
H43_2 C34_2 1_555 1_555
C35_2 H44_2 1_555 1_555
N15_2 C26_2 1_555 1_555
N16_2 C28_2 1_555 1_555
H46_2 N16_2 1_555 1_555
N17_2 C27_2 1_555 1_555
N19_2 C34_2 1_555 1_555
H47_2 N19_2 1_555 1_555
N20_2 C33_2 1_555 1_555
C36_2 C25_2 1_555 1_555
C25_2 N11_2 1_555 1_555
C29_2 N16_2 1_555 1_555
C29_2 N17_2 1_555 1_555
C35_2 N19_2 1_555 1_555
C35_2 N20_2 1_555 1_555
N15_2 Fe2_2 1_555 1_555
N15_2 C36_2 1_555 1_555
N17_2 Fe2_2 1_555 1_555
N20_2 Fe2_2 1_555 1_555
C36_2 H66_2 1_555 1_555
C19_2 H25_2 1_555 1_555
H26_2 C19_2 1_555 1_555
C20_2 C19_2 1_555 1_555
H27_2 C20_2 1_555 1_555
H28_2 C20_2 1_555 1_555
C21_2 H29_2 1_555 1_555
C22_2 C21_2 1_555 1_555
C23_2 C22_2 1_555 1_555
H30_2 C23_2 1_555 1_555
C24_2 H31_2 1_555 1_555
C30_2 H38_2 1_555 1_555
C31_2 C30_2 1_555 1_555
H40_2 C31_2 1_555 1_555
H41_2 C31_2 1_555 1_555
N12_2 C20_2 1_555 1_555
N13_2 C23_2 1_555 1_555
H45_2 N13_2 1_555 1_555
N14_2 C22_2 1_555 1_555
N18_2 C31_2 1_555 1_555
C21_2 N12_2 1_555 1_555
C24_2 N13_2 1_555 1_555
C24_2 N14_2 1_555 1_555
H36_3 C28_3 1_555 1_555
N16_3 C28_3 1_555 1_555
H46_3 N16_3 1_555 1_555
C19_3 H25_3 1_555 1_555
H26_3 C19_3 1_555 1_555
C20_3 C19_3 1_555 1_555
H27_3 C20_3 1_555 1_555
H28_3 C20_3 1_555 1_555
C21_3 H29_3 1_555 1_555
C22_3 C21_3 1_555 1_555
C23_3 C22_3 1_555 1_555
H30_3 C23_3 1_555 1_555
C24_3 H31_3 1_555 1_555
C25_3 H32_3 1_555 1_555
H33_3 C25_3 1_555 1_555
H34_3 C36_3 1_555 1_555
C26_3 H35_3 1_555 1_555
C27_3 C26_3 1_555 1_555
C29_3 H37_3 1_555 1_555
C30_3 H38_3 1_555 1_555
H39_3 C30_3 1_555 1_555
C31_3 C30_3 1_555 1_555
H40_3 C31_3 1_555 1_555
H41_3 C31_3 1_555 1_555
C32_3 H42_3 1_555 1_555
C33_3 C32_3 1_555 1_555
C34_3 C33_3 1_555 1_555
H43_3 C34_3 1_555 1_555
C35_3 H44_3 1_555 1_555
N11_3 C19_3 1_555 1_555
N12_3 C20_3 1_555 1_555
N13_3 C23_3 1_555 1_555
H45_3 N13_3 1_555 1_555
N14_3 C22_3 1_555 1_555
N15_3 C26_3 1_555 1_555
N17_3 C27_3 1_555 1_555
N18_3 C31_3 1_555 1_555
N19_3 C34_3 1_555 1_555
H47_3 N19_3 1_555 1_555
N20_3 C33_3 1_555 1_555
Fe2_3 N12_3 1_555 1_555
C36_3 C25_3 1_555 1_555
C21_3 N12_3 1_555 1_555
C24_3 N13_3 1_555 1_555
C24_3 N14_3 1_555 1_555
C25_3 N11_3 1_555 1_555
C29_3 N17_3 1_555 1_555
C30_3 N11_3 1_555 1_555
C32_3 N18_3 1_555 1_555
C35_3 N19_3 1_555 1_555
C35_3 N20_3 1_555 1_555
N14_3 Fe2_3 1_555 1_555
N15_3 Fe2_3 1_555 1_555
N15_3 C36_3 1_555 1_555
N17_3 Fe2_3 1_555 1_555
N18_3 Fe2_3 1_555 1_555
N20_3 Fe2_3 1_555 1_555
C36_3 H66_3 1_555 1_555
C19_4 H25_4 1_555 1_555
H26_4 C19_4 1_555 1_555
C20_4 C19_4 1_555 1_555
H27_4 C20_4 1_555 1_555
H28_4 C20_4 1_555 1_555
C21_4 H29_4 1_555 1_555
C22_4 C21_4 1_555 1_555
C23_4 C22_4 1_555 1_555
H30_4 C23_4 1_555 1_555
C24_4 H31_4 1_555 1_555
C25_4 H32_4 1_555 1_555
H33_4 C25_4 1_555 1_555
H34_4 C36_4 1_555 1_555
C26_4 H35_4 1_555 1_555
C27_4 C26_4 1_555 1_555
C29_4 H37_4 1_555 1_555
C30_4 H38_4 1_555 1_555
H39_4 C30_4 1_555 1_555
C31_4 C30_4 1_555 1_555
H40_4 C31_4 1_555 1_555
H41_4 C31_4 1_555 1_555
C32_4 H42_4 1_555 1_555
C33_4 C32_4 1_555 1_555
C34_4 C33_4 1_555 1_555
H43_4 C34_4 1_555 1_555
C35_4 H44_4 1_555 1_555
N11_4 C19_4 1_555 1_555
N12_4 C20_4 1_555 1_555
N13_4 C23_4 1_555 1_555
H45_4 N13_4 1_555 1_555
N14_4 C22_4 1_555 1_555
N15_4 C26_4 1_555 1_555
N17_4 C27_4 1_555 1_555
N18_4 C31_4 1_555 1_555
N19_4 C34_4 1_555 1_555
H47_4 N19_4 1_555 1_555
N20_4 C33_4 1_555 1_555
Fe2_4 N12_4 1_555 1_555
C36_4 C25_4 1_555 1_555
C21_4 N12_4 1_555 1_555
C24_4 N13_4 1_555 1_555
C24_4 N14_4 1_555 1_555
C25_4 N11_4 1_555 1_555
C29_4 N17_4 1_555 1_555
C30_4 N11_4 1_555 1_555
C32_4 N18_4 1_555 1_555
C35_4 N19_4 1_555 1_555
C35_4 N20_4 1_555 1_555
N14_4 Fe2_4 1_555 1_555
N15_4 Fe2_4 1_555 1_555
N15_4 C36_4 1_555 1_555
N17_4 Fe2_4 1_555 1_555
N18_4 Fe2_4 1_555 1_555
N20_4 Fe2_4 1_555 1_555
C36_4 H66_4 1_555 1_555
H36_4 C28_4 1_555 1_555
N16_4 C28_4 1_555 1_555
H46_4 N16_4 1_555 1_555
C37 C38 1_555 1_555
C38 O1 1_555 1_555
C39 C40 1_555 1_555
C40 O5 1_555 1_555
C41 C42 1_555 1_555
C42 O10 1_555 1_555
C43 C44 1_555 1_555
C44 O14 1_555 1_555
C45 C46 1_555 1_555
C46 O18 1_555 1_555
C47 C48 1_555 1_555
C48 O22 1_555 1_555
C49 C50 1_555 1_555
C50 O25 1_555 1_555
O2 C37 1_555 1_555
O3 C38 1_555 1_555
O4 C37 1_555 1_555
O7 C40 1_555 1_555
O8 C39 1_555 1_555
O9 C41 1_555 1_555
O10 Mn1 1_555 1_555
O11 C41 1_555 1_555
O12 C42 1_555 1_555
O13 C43 1_555 1_555
O14 Cr2 1_555 1_555
O15 C43 1_555 1_555
O16 C44 1_555 1_555
O17 C45 1_555 1_555
O18 Mn2 1_555 1_555
O19 C45 1_555 1_555
O20 C46 1_555 1_555
O21 C47 1_555 1_555
O22 Cr3 1_555 1_555
O23 C47 1_555 1_555
O24 C48 1_555 1_555
O25 Mn1 1_555 1_555
O26 C49 1_555 1_555
O27 C50 1_555 1_555
O28 C49 1_555 1_555
O29 Mn2 1_555 1_555
O30 C51 1_555 1_555
O32 C51 1_555 1_555
O33 C54 1_555 1_555
O34 C53 1_555 1_555
O35 C53 1_555 1_555
C53 C54 1_555 1_555
O36 C54 1_555 1_555
Cr2 O11 1_555 1_555
Cr3 O19 1_555 1_555
Mn1 O7 1_555 1_555
Mn2 O15 1_555 1_555
Mn3 O23 1_555 1_555
C55 H48 1_555 1_555
H49 C55 1_555 1_555
O37 Mn1 1_555 1_555
C56 H51 1_555 1_555
H52 C56 1_555 1_555
H53 C56 1_555 1_555
O38 Mn2 1_555 1_555
C57 H54 1_555 1_555
H55 C57 1_555 1_555
H56 C57 1_555 1_555
O39 Mn3 1_555 1_555
O70 C73 1_555 1_555
O84 Cr2 1_555 1_555
Cr8 O27 1_555 1_555
Cr9 O70 1_555 1_555
O8 Mn1 1_555 1_555
O9 Mn1 1_555 1_555
O12 Cr2 1_555 1_555
O13 Cr2 1_555 1_555
O16 Mn2 1_555 1_555
O17 Mn2 1_555 1_555
O20 Cr3 1_555 1_555
O21 Cr3 1_555 1_555
O24 Mn3 1_555 1_555
O26 Mn1 1_555 1_555
O28 Cr8 1_555 1_555
O30 Mn2 1_555 1_555
O33 Cr3 1_555 1_555
O34 Cr3 1_555 1_555
C55 O37 1_555 1_555
C56 O38 1_555 1_555
C57 O39 1_555 1_555
O31 C52 1_555 1_555
C58 C59 1_555 1_555
C59 O40 1_555 1_555
C60 C61 1_555 1_555
C61 O44 1_555 1_555
C62 C63 1_555 1_555
C63 O49 1_555 1_555
C64 C65 1_555 1_555
C65 O53 1_555 1_555
C66 C67 1_555 1_555
C67 O57 1_555 1_555
C68 C69 1_555 1_555
C69 O61 1_555 1_555
C70 C71 1_555 1_555
C71 O64 1_555 1_555
O41 C58 1_555 1_555
O42 C59 1_555 1_555
O43 C58 1_555 1_555
O46 C61 1_555 1_555
O47 C60 1_555 1_555
O48 C62 1_555 1_555
O49 Mn4 1_555 1_555
O50 C62 1_555 1_555
O51 C63 1_555 1_555
O52 C64 1_555 1_555
O53 Cr5 1_555 1_555
O54 C64 1_555 1_555
O55 C65 1_555 1_555
O56 C66 1_555 1_555
O57 Mn5 1_555 1_555
O58 C66 1_555 1_555
O59 C67 1_555 1_555
O60 C68 1_555 1_555
O61 Cr6 1_555 1_555
O62 Mn3_2 1_555 1_555
O63 Mn3_2 1_555 1_555
O64 Mn4 1_555 1_555
O65 C70 1_555 1_555
O66 C71 1_555 1_555
O67 C70 1_555 1_555
O68 Mn5 1_555 1_555
O69 C72 1_555 1_555
O71 C72 1_555 1_555
O72 C75 1_555 1_555
O73 C74 1_555 1_555
O74 C74 1_555 1_555
C74 C75 1_555 1_555
O75 C75 1_555 1_555
Cr5 O50 1_555 1_555
Cr6 O58 1_555 1_555
Mn4 O46 1_555 1_555
Mn5 O54 1_555 1_555
C76 H57 1_555 1_555
H58 C76 1_555 1_555
O76 Mn4 1_555 1_555
C77 H60 1_555 1_555
H61 C77 1_555 1_555
H62 C77 1_555 1_555
O77 Mn5 1_555 1_555
C78 H63 1_555 1_555
H64 C78 1_555 1_555
H65 C78 1_555 1_555
O78 Mn3_2 1_555 1_555
O83 Cr5 1_555 1_555
Cr7 O66 1_555 1_555
Cr10 O31 1_555 1_555
C68 O62 1_555 1_555
C69 O63 1_555 1_555
O47 Mn4 1_555 1_555
O48 Mn4 1_555 1_555
O51 Cr5 1_555 1_555
O52 Cr5 1_555 1_555
O55 Mn5 1_555 1_555
O56 Mn5 1_555 1_555
O59 Cr6 1_555 1_555
O60 Cr6 1_555 1_555
O65 Mn4 1_555 1_555
O67 Cr7 1_555 1_555
O69 Mn5 1_555 1_555
O72 Cr6 1_555 1_555
O73 Cr6 1_555 1_555
C76 O76 1_555 1_555
C77 O77 1_555 1_555
C78 O78 1_555 1_555
O80 Cr1 1_555 1_555
O82 Cr1 1_555 1_555
O6 Cr1 1_555 1_555
O79 Cr4 1_555 1_555
O81 Cr4 1_555 1_555
O45 Cr4 1_555 1_555
O34_2 C53_2 1_555 1_555
O35_2 C53_2 1_555 1_555
O84 C73_2 1_555 1_555
C67_2 O57_2 1_555 1_555
O57_2 Mn5_2 1_555 1_555
O59_2 C67_2 1_555 1_555
O68_2 Mn5_2 1_555 1_555
O69_2 C72_2 1_555 1_555
O86 C72_2 1_555 1_555
C77_2 H60_2 1_555 1_555
H61_2 C77_2 1_555 1_555
H62_2 C77_2 1_555 1_555
O77_2 Mn5_2 1_555 1_555
O55_2 Mn5_2 1_555 1_555
O69_2 Mn5_2 1_555 1_555
C77_2 O77_2 1_555 1_555
C48_2 O22_2 1_555 1_555
O24_2 C48_2 1_555 1_555
O33_2 C54_2 1_555 1_555
O36_2 C54_2 1_555 1_555
C57_2 H54_2 1_555 1_555
H55_2 C57_2 1_555 1_555
H56_2 C57_2 1_555 1_555
O39_2 Mn3_3 1_555 1_555
O24_2 Mn3_3 1_555 1_555
C57_2 O39_2 1_555 1_555
C58_2 C59_2 1_555 1_555
C59_2 O40_2 1_555 1_555
C60_2 C61_2 1_555 1_555
C61_2 O44_2 1_555 1_555
C62_2 C63_2 1_555 1_555
C63_2 O49_2 1_555 1_555
C64_2 C65_2 1_555 1_555
C65_2 O53_2 1_555 1_555
C70_2 C71_2 1_555 1_555
C71_2 O64_2 1_555 1_555
O41_2 C58_2 1_555 1_555
O42_2 C59_2 1_555 1_555
O43_2 C58_2 1_555 1_555
O44_2 Cr8 1_555 1_555
O45_2 C60_2 1_555 1_555
O46_2 C61_2 1_555 1_555
O47_2 C60_2 1_555 1_555
O48_2 C62_2 1_555 1_555
O49_2 Mn4_2 1_555 1_555
O50_2 C62_2 1_555 1_555
O51_2 C63_2 1_555 1_555
O52_2 C64_2 1_555 1_555
O53_2 Cr10 1_555 1_555
O54_2 C64_2 1_555 1_555
O56_2 C66_2 1_555 1_555
O58_2 C66_2 1_555 1_555
O60_2 C68_2 1_555 1_555
O62_2 Mn3_4 1_555 1_555
O64_2 Mn4_2 1_555 1_555
O65_2 C70_2 1_555 1_555
O80 C71_2 1_555 1_555
O82 C70_2 1_555 1_555
Cr8 O42_2 1_555 1_555
Cr10 O50_2 1_555 1_555
Cr6_2 O58_2 1_555 1_555
Mn4_2 O46_2 1_555 1_555
C76_2 H57_2 1_555 1_555
H58_2 C76_2 1_555 1_555
H59_2 C76_2 1_555 1_555
O76_2 Mn4_2 1_555 1_555
C68_2 O62_2 1_555 1_555
O43_2 Cr8 1_555 1_555
O45_2 Cr8 1_555 1_555
O47_2 Mn4_2 1_555 1_555
O48_2 Mn4_2 1_555 1_555
O51_2 Cr10 1_555 1_555
O52_2 Cr10 1_555 1_555
O60_2 Cr6_2 1_555 1_555
O65_2 Mn4_2 1_555 1_555
C76_2 O76_2 1_555 1_555
C46_2 O18_2 1_555 1_555
O18_2 Mn2_2 1_555 1_555
O20_2 C46_2 1_555 1_555
O29_2 Mn2_2 1_555 1_555
O30_2 C51_2 1_555 1_555
O85 C51_2 1_555 1_555
C56_2 H51_2 1_555 1_555
H52_2 C56_2 1_555 1_555
H53_2 C56_2 1_555 1_555
O38_2 Mn2_2 1_555 1_555
O16_2 Mn2_2 1_555 1_555
O30_2 Mn2_2 1_555 1_555
C56_2 O38_2 1_555 1_555
O83 C52_2 1_555 1_555
O73_2 C74_2 1_555 1_555
O74_2 C74_2 1_555 1_555
C37_2 C38_2 1_555 1_555
C38_2 O1_2 1_555 1_555
C39_2 C40_2 1_555 1_555
C40_2 O5_2 1_555 1_555
C41_2 C42_2 1_555 1_555
C42_2 O10_2 1_555 1_555
C43_2 C44_2 1_555 1_555
C44_2 O14_2 1_555 1_555
C49_2 C50_2 1_555 1_555
C50_2 O25_2 1_555 1_555
O2_2 C37_2 1_555 1_555
O3_2 C38_2 1_555 1_555
O4_2 C37_2 1_555 1_555
O5_2 Cr7 1_555 1_555
O6_2 C39_2 1_555 1_555
O7_2 C40_2 1_555 1_555
O8_2 C39_2 1_555 1_555
O9_2 C41_2 1_555 1_555
O10_2 Mn1_2 1_555 1_555
O11_2 C41_2 1_555 1_555
O12_2 C42_2 1_555 1_555
O13_2 C43_2 1_555 1_555
O14_2 Cr9 1_555 1_555
O15_2 C43_2 1_555 1_555
O17_2 C45_2 1_555 1_555
O19_2 C45_2 1_555 1_555
O21_2 C47_2 1_555 1_555
O23_2 C47_2 1_555 1_555
O25_2 Mn1_2 1_555 1_555
O26_2 C49_2 1_555 1_555
O79 C50_2 1_555 1_555
O81 C49_2 1_555 1_555
Cr7 O3_2 1_555 1_555
Cr9 O11_2 1_555 1_555
Cr3_2 O19_2 1_555 1_555
Mn1_2 O7_2 1_555 1_555
Mn3_5 O23_2 1_555 1_555
C55_2 H48_2 1_555 1_555
H49_2 C55_2 1_555 1_555
H50_2 C55_2 1_555 1_555
O37_2 Mn1_2 1_555 1_555
O4_2 Cr7 1_555 1_555
O6_2 Cr7 1_555 1_555
O8_2 Mn1_2 1_555 1_555
O9_2 Mn1_2 1_555 1_555
O12_2 Cr9 1_555 1_555
O13_2 Cr9 1_555 1_555
O21_2 Cr3_2 1_555 1_555
O26_2 Mn1_2 1_555 1_555
C55_2 O37_2 1_555 1_555
C69_2 O61_2 1_555 1_555
O63_2 Mn3_6 1_555 1_555
O72_2 C75_2 1_555 1_555
O75_2 C75_2 1_555 1_555
C78_2 H63_2 1_555 1_555
H64_2 C78_2 1_555 1_555
H65_2 C78_2 1_555 1_555
O78_2 Mn3_6 1_555 1_555
C69_2 O63_2 1_555 1_555
C78_2 O78_2 1_555 1_555

#END
