
###############################################################################
#
# This file contains modified crystal structure data generated from the
# MOF subset of the Cambridge Structural Database (CSD) v543 
# hosted by the Cambridge Crystallographic Data Centre (CCDC).
#
# This work is licensed under the Creative Commons
# Attribution-NonCommercial-ShareAlike 4.0 International License.
# To view a copy of this license, visit
# http://creativecommons.org/licenses/by-nc-sa/4.0/
# or send a letter to
# Creative Commons, PO Box 1866, Mountain View, CA 94042, USA.
#
# CIF created using the CSD Python API on 29 September 2022
# The structure has been converted into the P1 space group
# The structure has a 3D framework
# The original CSD entry VINHIL is in the monoclinic crystal system
# The framework has been calculated to contain at least 10.0% void space
# The void calculation uses a probe of radius 1.32A, grid spacing 0.4
# H atom positions have been added when not included in the experimental data
#
###############################################################################

data_VINHIL
_chemical_formula_moiety         '(C160 H144 Cr8 Fe4 Mn8 N28 O96)n'
_symmetry_cell_setting           triclinic
_symmetry_space_group_name_H-M   'P 1'
_symmetry_Int_Tables_number      1
_space_group_name_Hall           'P 1'
loop_
_symmetry_equiv_pos_site_id
_symmetry_equiv_pos_as_xyz
1 x,y,z
_cell_length_a                   13.6556(14)
_cell_length_b                   28.194(2)
_cell_length_c                   17.2693(16)
_cell_angle_alpha                90
_cell_angle_beta                 107.080(10)
_cell_angle_gamma                90
_cell_volume                     6355.54
loop_
_atom_site_label
_atom_site_type_symbol
_atom_site_fract_x
_atom_site_fract_y
_atom_site_fract_z
H6 H 0.0391 0.1402 0.7828
C6 C 0.0110(6) 0.1054(3) 0.6742(5)
H7 H 0.0786 0.1069 0.6698
C1 C 0.7376(7) 0.1269(3) 0.9412(5)
H1 H 0.8025 0.1090 0.9608
H2 H 0.7205 0.1397 0.9891
C2 C 0.7521(7) 0.1679(3) 0.8881(5)
H3 H 0.6896 0.1878 0.8719
H4 H 0.8103 0.1880 0.9180
C3 C 0.8640(6) 0.1450(3) 0.8129(4)
H5 H 0.9176 0.1574 0.8567
C4 C 0.8891(6) 0.1237(3) 0.7435(4)
C5 C 0.9873(6) 0.1255(3) 0.7404(5)
C7 C 0.9342(6) 0.0836(2) 0.6159(5)
H8 H 0.9477 0.0704 0.5694
C8 C 0.8346(5) 0.0808(2) 0.6250(4)
C9 C 0.7520(7) 0.0560(3) 0.5629(5)
H9 H 0.6884 0.0573 0.5783
H10 H 0.7716 0.0228 0.5592
H11 H 0.7415 0.0715 0.5103
C10 C 0.5567(6) 0.1112(3) 0.8963(5)
H12 H 0.5589 0.1451 0.9118
H13 H 0.5333 0.0928 0.9363
C11 C 0.4790(6) 0.1045(3) 0.8102(5)
H14 H 0.4730 0.0706 0.7945
H15 H 0.4104 0.1166 0.8086
C12 C 0.4836(7) 0.1722(3) 0.7325(6)
H16 H 0.4241 0.1820 0.7460
C13 C 0.5297(7) 0.2042(3) 0.6837(5)
C14 C 0.4823(12) 0.2458(4) 0.6590(8)
H17 H 0.4227 0.2546 0.6733
C15 C 0.5224(11) 0.2756(4) 0.6124(10)
H18 H 0.4940 0.3061 0.5965
C16 C 0.6050(9) 0.2594(3) 0.5899(7)
H19 H 0.6340 0.2784 0.5568
C17 C 0.6455(6) 0.2155(2) 0.6155(5)
C18 C 0.7366(7) 0.1976(3) 0.5897(5)
H20 H 0.7564 0.1661 0.6127
H21 H 0.7943 0.2195 0.6095
H22 H 0.7177 0.1959 0.5305
C19 C 0.6786(8) 0.0463(3) 0.9085(5)
H23 H 0.6132 0.0287 0.8963
H24 H 0.7179 0.0399 0.9655
C20 C 0.7411(7) 0.0289(3) 0.8513(5)
H25 H 0.8083 0.0451 0.8646
C21 C 0.6316(6) 0.0075(2) 0.7247(5)
C22 C 0.5630(5) 0.0174(2) 0.6419(5)
C25 C 0.4357(6) 0.0345(4) 0.4952(5)
H30 H 0.3886 0.0416 0.4439
C26 C 0.4874(5) 0.0718(3) 0.5447(5)
C27 C 0.4707(9) 0.1224(3) 0.5175(7)
H31 H 0.5130 0.1432 0.5597
H32 H 0.3984 0.1307 0.5074
H33 H 0.4900 0.1265 0.4675
N1 N 0.6583(5) 0.0958(2) 0.8980(4)
N2 N 0.7725(5) 0.1473(2) 0.8156(3)
N3 N 0.8116(4) 0.10178(18) 0.6876(3)
N4 N 0.5232(5) 0.1325(2) 0.7557(4)
N5 N 0.6079(4) 0.18664(19) 0.6610(4)
N6 N 0.6787(4) 0.04087(19) 0.7679(4)
N7 N 0.5502(5) 0.0629(2) 0.6188(4)
Fe1 Fe 0.65615(7) 0.11183(3) 0.71832(6)
H26 H 0.7529 0.9943 0.8570
H27 H 0.6398 0.9759 0.7448
C23 C 0.5159(6) 0.9791(3) 0.5936(6)
H28 H 0.5282 0.9473 0.6123
C24 C 0.4515(7) 0.9893(3) 0.5186(6)
H29 H 0.4182 0.9645 0.4835
H6_2 H 0.0391 0.8598 0.2828
C6_2 C 0.0110(6) 0.8946(3) 0.1742(5)
H7_2 H 0.0786 0.8931 0.1698
H26_2 H 0.7529 0.0057 0.3570
H27_2 H 0.6398 0.0241 0.2448
C23_2 C 0.5159(6) 0.0209(3) 0.0936(6)
H28_2 H 0.5282 0.0527 0.1123
C24_2 C 0.4515(7) 0.0107(3) 0.0186(6)
H29_2 H 0.4182 0.0355 0.9835
C1_2 C 0.7376(7) 0.8731(3) 0.4412(5)
H1_2 H 0.8025 0.8910 0.4608
H2_2 H 0.7205 0.8603 0.4891
C2_2 C 0.7521(7) 0.8321(3) 0.3881(5)
H3_2 H 0.6896 0.8122 0.3719
H4_2 H 0.8103 0.8120 0.4180
C3_2 C 0.8640(6) 0.8550(3) 0.3129(4)
H5_2 H 0.9176 0.8426 0.3567
C4_2 C 0.8891(6) 0.8763(3) 0.2435(4)
C5_2 C 0.9873(6) 0.8745(3) 0.2404(5)
C7_2 C 0.9342(6) 0.9164(2) 0.1159(5)
H8_2 H 0.9477 0.9296 0.0694
C8_2 C 0.8346(5) 0.9192(2) 0.1250(4)
C9_2 C 0.7520(7) 0.9440(3) 0.0629(5)
H9_2 H 0.6884 0.9427 0.0783
H10_2 H 0.7716 0.9772 0.0592
H11_2 H 0.7415 0.9285 0.0103
C10_2 C 0.5567(6) 0.8888(3) 0.3963(5)
H12_2 H 0.5589 0.8549 0.4118
H13_2 H 0.5333 0.9072 0.4363
C11_2 C 0.4790(6) 0.8955(3) 0.3102(5)
H14_2 H 0.4730 0.9294 0.2945
H15_2 H 0.4104 0.8834 0.3086
C12_2 C 0.4836(7) 0.8278(3) 0.2325(6)
H16_2 H 0.4241 0.8180 0.2460
C13_2 C 0.5297(7) 0.7958(3) 0.1837(5)
C14_2 C 0.4823(12) 0.7542(4) 0.1590(8)
H17_2 H 0.4227 0.7454 0.1733
C15_2 C 0.5224(11) 0.7244(4) 0.1124(10)
H18_2 H 0.4940 0.6939 0.0965
C16_2 C 0.6050(9) 0.7406(3) 0.0899(7)
H19_2 H 0.6340 0.7216 0.0568
C17_2 C 0.6455(6) 0.7845(2) 0.1155(5)
C18_2 C 0.7366(7) 0.8024(3) 0.0897(5)
H20_2 H 0.7564 0.8339 0.1127
H21_2 H 0.7943 0.7805 0.1095
H22_2 H 0.7177 0.8041 0.0305
C19_2 C 0.6786(8) 0.9537(3) 0.4085(5)
H23_2 H 0.6132 0.9713 0.3963
H24_2 H 0.7179 0.9601 0.4655
C20_2 C 0.7411(7) 0.9711(3) 0.3513(5)
H25_2 H 0.8083 0.9549 0.3646
C21_2 C 0.6316(6) 0.9925(2) 0.2247(5)
C22_2 C 0.5630(5) 0.9826(2) 0.1419(5)
C26_2 C 0.4874(5) 0.9282(3) 0.0447(5)
C27_2 C 0.4707(9) 0.8776(3) 0.0175(7)
H31_2 H 0.5130 0.8568 0.0597
H32_2 H 0.3984 0.8693 0.0074
N1_2 N 0.6583(5) 0.9042(2) 0.3980(4)
N2_2 N 0.7725(5) 0.8527(2) 0.3156(3)
N3_2 N 0.8116(4) 0.89822(18) 0.1876(3)
N4_2 N 0.5232(5) 0.8675(2) 0.2557(4)
N5_2 N 0.6079(4) 0.81336(19) 0.1610(4)
N6_2 N 0.6787(4) 0.95913(19) 0.2679(4)
N7_2 N 0.5502(5) 0.9371(2) 0.1188(4)
Fe1_2 Fe 0.65615(7) 0.88817(3) 0.21832(6)
C25_2 C 0.4357(6) 0.9655(4) 0.9952(5)
H30_2 H 0.3886 0.9584 0.9439
H33_2 H 0.4900 0.8735 0.9675
C1_3 C 0.2376(7) 0.6269(3) 0.9412(5)
H1_3 H 0.3025 0.6090 0.9608
H2_3 H 0.2205 0.6397 0.9891
C2_3 C 0.2521(7) 0.6679(3) 0.8881(5)
H3_3 H 0.1896 0.6878 0.8719
H4_3 H 0.3103 0.6880 0.9180
C3_3 C 0.3640(6) 0.6450(3) 0.8129(4)
H5_3 H 0.4176 0.6574 0.8567
C4_3 C 0.3891(6) 0.6237(3) 0.7435(4)
C5_3 C 0.4873(6) 0.6255(3) 0.7404(5)
H6_3 H 0.5391 0.6402 0.7828
C6_3 C 0.5110(6) 0.6054(3) 0.6742(5)
H7_3 H 0.5786 0.6069 0.6698
C7_3 C 0.4342(6) 0.5836(2) 0.6159(5)
H8_3 H 0.4477 0.5704 0.5694
C8_3 C 0.3346(5) 0.5808(2) 0.6250(4)
C9_3 C 0.2520(7) 0.5560(3) 0.5629(5)
H9_3 H 0.1884 0.5573 0.5783
H10_3 H 0.2716 0.5228 0.5592
H11_3 H 0.2415 0.5715 0.5103
C10_3 C 0.0567(6) 0.6112(3) 0.8963(5)
H12_3 H 0.0589 0.6451 0.9118
H13_3 H 0.0333 0.5928 0.9363
C13_3 C 0.0297(7) 0.7042(3) 0.6837(5)
C15_3 C 0.0224(11) 0.7756(4) 0.6124(10)
C16_3 C 0.1050(9) 0.7594(3) 0.5899(7)
H19_3 H 0.1340 0.7784 0.5568
C17_3 C 0.1455(6) 0.7155(2) 0.6155(5)
C18_3 C 0.2366(7) 0.6976(3) 0.5897(5)
H20_3 H 0.2564 0.6661 0.6127
H21_3 H 0.2943 0.7195 0.6095
H22_3 H 0.2177 0.6959 0.5305
C19_3 C 0.1786(8) 0.5463(3) 0.9085(5)
H23_3 H 0.1132 0.5287 0.8963
H24_3 H 0.2179 0.5399 0.9655
C20_3 C 0.2411(7) 0.5289(3) 0.8513(5)
H25_3 H 0.3083 0.5451 0.8646
H26_3 H 0.2529 0.4943 0.8570
C21_3 C 0.1316(6) 0.5075(2) 0.7247(5)
H27_3 H 0.1398 0.4759 0.7448
C22_3 C 0.0630(5) 0.5174(2) 0.6419(5)
C23_3 C 0.0159(6) 0.4791(3) 0.5936(6)
H28_3 H 0.0282 0.4473 0.6123
H31_3 H 0.0130 0.6432 0.5597
N1_3 N 0.1583(5) 0.5958(2) 0.8980(4)
N2_3 N 0.2725(5) 0.6473(2) 0.8156(3)
N3_3 N 0.3116(4) 0.60178(18) 0.6876(3)
N4_3 N 0.0232(5) 0.6325(2) 0.7557(4)
N5_3 N 0.1079(4) 0.68664(19) 0.6610(4)
N6_3 N 0.1787(4) 0.54087(19) 0.7679(4)
N7_3 N 0.0502(5) 0.5629(2) 0.6188(4)
Fe1_3 Fe 0.15615(7) 0.61183(3) 0.71832(6)
C11_3 C 0.9790(6) 0.6045(3) 0.8102(5)
H14_3 H 0.9730 0.5706 0.7945
H15_3 H 0.9104 0.6166 0.8086
C12_3 C 0.9836(7) 0.6722(3) 0.7325(6)
H16_3 H 0.9241 0.6820 0.7460
C14_3 C 0.9823(12) 0.7458(4) 0.6590(8)
H17_3 H 0.9227 0.7546 0.6733
H18_3 H 0.9940 0.8061 0.5965
C24_3 C 0.9515(7) 0.4893(3) 0.5186(6)
H29_3 H 0.9182 0.4645 0.4835
C25_3 C 0.9357(6) 0.5345(4) 0.4952(5)
H30_3 H 0.8886 0.5416 0.4439
C26_3 C 0.9874(5) 0.5718(3) 0.5447(5)
C27_3 C 0.9707(9) 0.6224(3) 0.5175(7)
H32_3 H 0.8984 0.6307 0.5074
H33_3 H 0.9900 0.6265 0.4675
C1_4 C 0.2376(7) 0.3731(3) 0.4412(5)
H1_4 H 0.3025 0.3910 0.4608
H2_4 H 0.2205 0.3603 0.4891
C2_4 C 0.2521(7) 0.3321(3) 0.3881(5)
H3_4 H 0.1896 0.3122 0.3719
H4_4 H 0.3103 0.3120 0.4180
C3_4 C 0.3640(6) 0.3550(3) 0.3129(4)
H5_4 H 0.4176 0.3426 0.3567
C4_4 C 0.3891(6) 0.3763(3) 0.2435(4)
C5_4 C 0.4873(6) 0.3745(3) 0.2404(5)
H6_4 H 0.5391 0.3598 0.2828
C6_4 C 0.5110(6) 0.3946(3) 0.1742(5)
H7_4 H 0.5786 0.3931 0.1698
C7_4 C 0.4342(6) 0.4164(2) 0.1159(5)
H8_4 H 0.4477 0.4296 0.0694
C8_4 C 0.3346(5) 0.4192(2) 0.1250(4)
C9_4 C 0.2520(7) 0.4440(3) 0.0629(5)
H9_4 H 0.1884 0.4427 0.0783
H10_4 H 0.2716 0.4772 0.0592
H11_4 H 0.2415 0.4285 0.0103
C10_4 C 0.0567(6) 0.3888(3) 0.3963(5)
H12_4 H 0.0589 0.3549 0.4118
H13_4 H 0.0333 0.4072 0.4363
C13_4 C 0.0297(7) 0.2958(3) 0.1837(5)
C15_4 C 0.0224(11) 0.2244(4) 0.1124(10)
C16_4 C 0.1050(9) 0.2406(3) 0.0899(7)
H19_4 H 0.1340 0.2216 0.0568
C17_4 C 0.1455(6) 0.2845(2) 0.1155(5)
C18_4 C 0.2366(7) 0.3024(3) 0.0897(5)
H20_4 H 0.2564 0.3339 0.1127
H21_4 H 0.2943 0.2805 0.1095
H22_4 H 0.2177 0.3041 0.0305
C19_4 C 0.1786(8) 0.4537(3) 0.4085(5)
H23_4 H 0.1132 0.4713 0.3963
H24_4 H 0.2179 0.4601 0.4655
C20_4 C 0.2411(7) 0.4711(3) 0.3513(5)
H25_4 H 0.3083 0.4549 0.3646
H26_4 H 0.2529 0.5057 0.3570
C21_4 C 0.1316(6) 0.4925(2) 0.2247(5)
H27_4 H 0.1398 0.5241 0.2448
C22_4 C 0.0630(5) 0.4826(2) 0.1419(5)
C23_4 C 0.0159(6) 0.5209(3) 0.0936(6)
H28_4 H 0.0282 0.5527 0.1123
H31_4 H 0.0130 0.3568 0.0597
N1_4 N 0.1583(5) 0.4042(2) 0.3980(4)
N2_4 N 0.2725(5) 0.3527(2) 0.3156(3)
N3_4 N 0.3116(4) 0.39822(18) 0.1876(3)
N4_4 N 0.0232(5) 0.3675(2) 0.2557(4)
N5_4 N 0.1079(4) 0.31336(19) 0.1610(4)
N6_4 N 0.1787(4) 0.45913(19) 0.2679(4)
N7_4 N 0.0502(5) 0.4371(2) 0.1188(4)
Fe1_4 Fe 0.15615(7) 0.38817(3) 0.21832(6)
C11_4 C 0.9790(6) 0.3955(3) 0.3102(5)
H14_4 H 0.9730 0.4294 0.2945
H15_4 H 0.9104 0.3834 0.3086
C12_4 C 0.9836(7) 0.3278(3) 0.2325(6)
H16_4 H 0.9241 0.3180 0.2460
C14_4 C 0.9823(12) 0.2542(4) 0.1590(8)
H17_4 H 0.9227 0.2454 0.1733
H18_4 H 0.9940 0.1939 0.0965
C24_4 C 0.9515(7) 0.5107(3) 0.0186(6)
C26_4 C 0.9874(5) 0.4282(3) 0.0447(5)
C27_4 C 0.9707(9) 0.3776(3) 0.0175(7)
H32_4 H 0.8984 0.3693 0.0074
H29_4 H 0.9182 0.5355 0.9835
C25_4 C 0.9357(6) 0.4655(4) 0.9952(5)
H30_4 H 0.8886 0.4584 0.9439
H33_4 H 0.9900 0.3735 0.9675
C28 C 0.5467(5) 0.4471(2) 0.6400(4)
C29 C 0.4423(5) 0.4608(2) 0.5792(4)
C30 C 0.2953(5) 0.3403(2) 0.6662(4)
C31 C 0.2164(6) 0.3768(2) 0.6798(4)
C34 C 0.4722(6) 0.4893(2) 0.8274(4)
C35 C 0.4860(6) 0.4420(2) 0.8695(4)
C36 C 0.1858(5) 0.2513(2) 0.8199(5)
C37 C 0.1892(5) 0.2076(2) 0.7649(4)
C38 C 0.7223(5) 0.4130(2) 0.4601(4)
C39 C 0.6247(5) 0.3835(2) 0.4566(4)
O1 O 0.6262(4) 0.45730(19) 0.6237(3)
O2 O 0.4422(4) 0.48178(17) 0.5167(3)
O3 O 0.5406(4) 0.42601(17) 0.7037(3)
O4 O 0.3651(4) 0.44763(18) 0.5992(3)
O5 O 0.3829(4) 0.35634(17) 0.6749(3)
O6 O 0.2543(4) 0.41752(16) 0.7049(3)
O7 O 0.2666(4) 0.29953(17) 0.6475(4)
O8 O 0.1273(4) 0.36380(17) 0.6658(4)
O10 O 0.0524(4) 0.28672(18) 0.5215(3)
O13 O 0.7240(4) 0.45543(16) 0.4760(3)
O14 O 0.5556(4) 0.40184(18) 0.4778(3)
O15 O 0.4182(4) 0.48868(17) 0.7528(3)
O16 O 0.4506(4) 0.40592(17) 0.8260(3)
O17 O 0.5138(5) 0.52474(17) 0.8653(3)
O18 O 0.5293(5) 0.44018(18) 0.9448(3)
O19 O 0.1537(4) 0.28958(17) 0.7868(4)
O20 O 0.1579(4) 0.21283(16) 0.6914(3)
O21 O 0.2181(4) 0.24343(16) 0.8943(3)
O22 O 0.2234(4) 0.17039(15) 0.8038(3)
O23 O 0.7941(4) 0.39000(16) 0.4436(3)
O24 O 0.6270(4) 0.34040(16) 0.4323(3)
Cr1 Cr 0.40076(8) 0.42336(4) 0.71085(6)
Cr2 Cr 0.76189(8) 0.32230(3) 0.42276(6)
Mn1 Mn 0.59197(9) 0.48837(4) 0.49746(6)
Mn2 Mn 0.11553(9) 0.28588(4) 0.65367(8)
O25 O 0.684(2) 0.5459(11) 0.5635(16)
C40 C 0.7718(15) 0.5405(6) 0.6301(12)
O26 O 0.8093(4) 0.30770(18) 0.5408(3)
O27 O 0.9050(4) 0.30618(17) 0.4293(3)
O28 O 0.5138(5) 0.47526(17) 0.3653(3)
O29 O 0.5293(5) 0.55982(18) 0.4448(3)
O30 O 0.7181(4) 0.25657(16) 0.3943(3)
O31 O 0.7234(4) 0.32961(15) 0.3038(3)
Cr4 Cr 0.26189(8) 0.17770(3) 0.92276(6)
Mn3 Mn 0.59197(9) 0.51163(4) 0.99746(6)
H34 H 0.829035 0.520065 0.611898
H35 H 0.802838 0.57529 0.651455
H36 H 0.75159 0.521959 0.678575
C32 C 0.9026(6) 0.2979(3) 0.5664(5)
C33 C 0.9599(5) 0.2969(2) 0.5002(5)
O9 O 0.9523(4) 0.2878(2) 0.6361(3)
C28_2 C 0.5467(5) 0.5529(2) 0.1400(4)
C29_2 C 0.4423(5) 0.5392(2) 0.0792(4)
C30_2 C 0.2953(5) 0.6597(2) 0.1662(4)
C31_2 C 0.2164(6) 0.6232(2) 0.1798(4)
C34_2 C 0.4722(6) 0.5107(2) 0.3274(4)
C35_2 C 0.4860(6) 0.5580(2) 0.3695(4)
C36_2 C 0.1858(5) 0.7487(2) 0.3199(5)
C37_2 C 0.1892(5) 0.7924(2) 0.2649(4)
O1_2 O 0.6262(4) 0.54270(19) 0.1237(3)
O2_2 O 0.4422(4) 0.51822(17) 0.0167(3)
O3_2 O 0.5406(4) 0.57399(17) 0.2037(3)
O4_2 O 0.3651(4) 0.55237(18) 0.0992(3)
O5_2 O 0.3829(4) 0.64366(17) 0.1749(3)
O6_2 O 0.2543(4) 0.58248(16) 0.2049(3)
O7_2 O 0.2666(4) 0.70047(17) 0.1475(4)
O8_2 O 0.1273(4) 0.63620(17) 0.1658(4)
O10_2 O 0.0524(4) 0.71328(18) 0.0215(3)
O15_2 O 0.4182(4) 0.51132(17) 0.2528(3)
O16_2 O 0.4506(4) 0.59408(17) 0.3260(3)
O19_2 O 0.1537(4) 0.71042(17) 0.2868(4)
O20_2 O 0.1579(4) 0.78717(16) 0.1914(3)
O21_2 O 0.2181(4) 0.75657(16) 0.3943(3)
O22_2 O 0.2234(4) 0.82961(15) 0.3038(3)
Cr1_2 Cr 0.40076(8) 0.57664(4) 0.21085(6)
Mn2_2 Mn 0.11553(9) 0.71412(4) 0.15367(8)
O25_2 O 0.684(2) 0.4541(11) 0.0635(16)
C40_2 C 0.7718(15) 0.4595(6) 0.1301(12)
O26_2 O 0.8093(4) 0.69230(18) 0.0408(3)
Cr4_2 Cr 0.26189(8) 0.82230(3) 0.42276(6)
H34_2 H 0.829035 0.479935 0.111898
H35_2 H 0.802838 0.42471 0.151455
H36_2 H 0.75159 0.478041 0.178575
C38_2 C 0.7223(5) 0.5870(2) 0.9601(4)
C39_2 C 0.6247(5) 0.6165(2) 0.9566(4)
O13_2 O 0.7240(4) 0.54457(16) 0.9760(3)
O14_2 O 0.5556(4) 0.59816(18) 0.9778(3)
O23_2 O 0.7941(4) 0.61000(16) 0.9436(3)
O24_2 O 0.6270(4) 0.65960(16) 0.9323(3)
Cr2_2 Cr 0.76189(8) 0.67770(3) 0.92276(6)
O27_2 O 0.9050(4) 0.69382(17) 0.9293(3)
O30_2 O 0.7181(4) 0.74343(16) 0.8943(3)
O31_2 O 0.7234(4) 0.67039(15) 0.8038(3)
C32_2 C 0.9026(6) 0.7021(3) 0.0664(5)
C33_2 C 0.9599(5) 0.7031(2) 0.0002(5)
O9_2 O 0.9523(4) 0.7122(2) 0.1361(3)
O17_2 O 0.0138(5) 0.02474(17) 0.8653(3)
O25_3 O 0.184(2) 0.0459(11) 0.5635(16)
C40_3 C 0.2718(15) 0.0405(6) 0.6301(12)
O29_2 O 0.0293(5) 0.05982(18) 0.4448(3)
Mn3_2 Mn 0.09197(9) 0.01163(4) 0.99746(6)
H34_3 H 0.329035 0.0200649 0.611898
H35_3 H 0.302838 0.0752899 0.651455
H36_3 H 0.25159 0.0219592 0.678575
C28_3 C 0.0467(5) 0.9471(2) 0.6400(4)
C38_3 C 0.2223(5) 0.9130(2) 0.4601(4)
C39_3 C 0.1247(5) 0.8835(2) 0.4566(4)
O1_3 O 0.1262(4) 0.95730(19) 0.6237(3)
O3_3 O 0.0406(4) 0.92601(17) 0.7037(3)
O13_3 O 0.2240(4) 0.95543(16) 0.4760(3)
O14_3 O 0.0556(4) 0.90184(18) 0.4778(3)
O18_2 O 0.0293(5) 0.94018(18) 0.9448(3)
O23_3 O 0.2941(4) 0.89000(16) 0.4436(3)
O24_3 O 0.1270(4) 0.84040(16) 0.4323(3)
Mn1_2 Mn 0.09197(9) 0.98837(4) 0.49746(6)
O26_3 O 0.3093(4) 0.80770(18) 0.5408(3)
O27_3 O 0.4050(4) 0.80618(17) 0.4293(3)
O28_2 O 0.0138(5) 0.97526(17) 0.3653(3)
C29_3 C 0.9423(5) 0.9608(2) 0.5792(4)
C30_3 C 0.7953(5) 0.8403(2) 0.6662(4)
C31_3 C 0.7164(6) 0.8768(2) 0.6798(4)
C32_3 C 0.4026(6) 0.7979(3) 0.5664(5)
C33_3 C 0.4599(5) 0.7969(2) 0.5002(5)
C34_3 C 0.9722(6) 0.9893(2) 0.8274(4)
C35_3 C 0.9860(6) 0.9420(2) 0.8695(4)
C36_3 C 0.6858(5) 0.7513(2) 0.8199(5)
C37_3 C 0.6892(5) 0.7076(2) 0.7649(4)
O2_3 O 0.9422(4) 0.98178(17) 0.5167(3)
O4_3 O 0.8651(4) 0.94763(18) 0.5992(3)
O5_3 O 0.8829(4) 0.85634(17) 0.6749(3)
O6_3 O 0.7543(4) 0.91752(16) 0.7049(3)
O7_3 O 0.7666(4) 0.79953(17) 0.6475(4)
O8_3 O 0.6273(4) 0.86380(17) 0.6658(4)
O9_3 O 0.4523(4) 0.7878(2) 0.6361(3)
O10_3 O 0.5524(4) 0.78672(18) 0.5215(3)
O15_3 O 0.9182(4) 0.98868(17) 0.7528(3)
O16_3 O 0.9506(4) 0.90592(17) 0.8260(3)
O19_3 O 0.6537(4) 0.78958(17) 0.7868(4)
O20_3 O 0.6579(4) 0.71283(16) 0.6914(3)
Cr1_3 Cr 0.90076(8) 0.92336(4) 0.71085(6)
Mn2_3 Mn 0.61553(9) 0.78588(4) 0.65367(8)
C28_4 C 0.0467(5) 0.0529(2) 0.1400(4)
O1_4 O 0.1262(4) 0.04270(19) 0.1237(3)
O3_4 O 0.0406(4) 0.07399(17) 0.2037(3)
O26_4 O 0.3093(4) 0.19230(18) 0.0408(3)
C38_4 C 0.2223(5) 0.0870(2) 0.9601(4)
C39_4 C 0.1247(5) 0.1165(2) 0.9566(4)
O13_4 O 0.2240(4) 0.04457(16) 0.9760(3)
O14_4 O 0.0556(4) 0.09816(18) 0.9778(3)
O23_4 O 0.2941(4) 0.11000(16) 0.9436(3)
O24_4 O 0.1270(4) 0.15960(16) 0.9323(3)
O27_4 O 0.4050(4) 0.19382(17) 0.9293(3)
O25_4 O 0.184(2) 0.9541(11) 0.0635(16)
C40_4 C 0.2718(15) 0.9595(6) 0.1301(12)
H34_4 H 0.329035 0.979935 0.111898
H35_4 H 0.302838 0.92471 0.151455
H36_4 H 0.25159 0.978041 0.178575
C29_4 C 0.9423(5) 0.0392(2) 0.0792(4)
C30_4 C 0.7953(5) 0.1597(2) 0.1662(4)
C31_4 C 0.7164(6) 0.1232(2) 0.1798(4)
C32_4 C 0.4026(6) 0.2021(3) 0.0664(5)
C33_4 C 0.4599(5) 0.2031(2) 0.0002(5)
C34_4 C 0.9722(6) 0.0107(2) 0.3274(4)
C35_4 C 0.9860(6) 0.0580(2) 0.3695(4)
C36_4 C 0.6858(5) 0.2487(2) 0.3199(5)
C37_4 C 0.6892(5) 0.2924(2) 0.2649(4)
O2_4 O 0.9422(4) 0.01822(17) 0.0167(3)
O4_4 O 0.8651(4) 0.05237(18) 0.0992(3)
O5_4 O 0.8829(4) 0.14366(17) 0.1749(3)
O6_4 O 0.7543(4) 0.08248(16) 0.2049(3)
O7_4 O 0.7666(4) 0.20047(17) 0.1475(4)
O8_4 O 0.6273(4) 0.13620(17) 0.1658(4)
O9_4 O 0.4523(4) 0.2122(2) 0.1361(3)
O10_4 O 0.5524(4) 0.21328(18) 0.0215(3)
O15_4 O 0.9182(4) 0.01132(17) 0.2528(3)
O16_4 O 0.9506(4) 0.09408(17) 0.3260(3)
O19_4 O 0.6537(4) 0.21042(17) 0.2868(4)
O20_4 O 0.6579(4) 0.28717(16) 0.1914(3)
Cr1_4 Cr 0.90076(8) 0.07664(4) 0.21085(6)
Mn2_4 Mn 0.61553(9) 0.21412(4) 0.15367(8)
loop_
_geom_bond_atom_site_label_1
_geom_bond_atom_site_label_2
_geom_bond_site_symmetry_1
_geom_bond_site_symmetry_2
H7 C6 1_555 1_555
C1 H1 1_555 1_555
H2 C1 1_555 1_555
C2 C1 1_555 1_555
H3 C2 1_555 1_555
H4 C2 1_555 1_555
C3 H5 1_555 1_555
C4 C3 1_555 1_555
C5 C4 1_555 1_555
H8 C7 1_555 1_555
C8 C7 1_555 1_555
C9 C8 1_555 1_555
H9 C9 1_555 1_555
H10 C9 1_555 1_555
H11 C9 1_555 1_555
C10 H12 1_555 1_555
H13 C10 1_555 1_555
C11 C10 1_555 1_555
H14 C11 1_555 1_555
H15 C11 1_555 1_555
C12 H16 1_555 1_555
C13 C12 1_555 1_555
C14 C13 1_555 1_555
H17 C14 1_555 1_555
C15 C14 1_555 1_555
H18 C15 1_555 1_555
C16 C15 1_555 1_555
H19 C16 1_555 1_555
C17 C16 1_555 1_555
C18 C17 1_555 1_555
H20 C18 1_555 1_555
H21 C18 1_555 1_555
H22 C18 1_555 1_555
C19 H23 1_555 1_555
H24 C19 1_555 1_555
C20 C19 1_555 1_555
H25 C20 1_555 1_555
C22 C21 1_555 1_555
H30 C25 1_555 1_555
C26 C25 1_555 1_555
C27 C26 1_555 1_555
H31 C27 1_555 1_555
H32 C27 1_555 1_555
H33 C27 1_555 1_555
N1 C1 1_555 1_555
N2 C2 1_555 1_555
N3 C4 1_555 1_555
N4 C11 1_555 1_555
N5 C13 1_555 1_555
N6 C20 1_555 1_555
N7 C22 1_555 1_555
Fe1 N2 1_555 1_555
C3 N2 1_555 1_555
C8 N3 1_555 1_555
C10 N1 1_555 1_555
C12 N4 1_555 1_555
C17 N5 1_555 1_555
C19 N1 1_555 1_555
C21 N6 1_555 1_555
C26 N7 1_555 1_555
N3 Fe1 1_555 1_555
N4 Fe1 1_555 1_555
N5 Fe1 1_555 1_555
N6 Fe1 1_555 1_555
N7 Fe1 1_555 1_555
H28 C23 1_555 1_555
C24 C23 1_555 1_555
H29 C24 1_555 1_555
H7_2 C6_2 1_555 1_555
H28_2 C23_2 1_555 1_555
C24_2 C23_2 1_555 1_555
C1_2 H1_2 1_555 1_555
H2_2 C1_2 1_555 1_555
C2_2 C1_2 1_555 1_555
H3_2 C2_2 1_555 1_555
H4_2 C2_2 1_555 1_555
C3_2 H5_2 1_555 1_555
C4_2 C3_2 1_555 1_555
C5_2 C4_2 1_555 1_555
H8_2 C7_2 1_555 1_555
C8_2 C7_2 1_555 1_555
C9_2 C8_2 1_555 1_555
H9_2 C9_2 1_555 1_555
H10_2 C9_2 1_555 1_555
H11_2 C9_2 1_555 1_555
C10_2 H12_2 1_555 1_555
H13_2 C10_2 1_555 1_555
C11_2 C10_2 1_555 1_555
H14_2 C11_2 1_555 1_555
H15_2 C11_2 1_555 1_555
C12_2 H16_2 1_555 1_555
C13_2 C12_2 1_555 1_555
C14_2 C13_2 1_555 1_555
H17_2 C14_2 1_555 1_555
C15_2 C14_2 1_555 1_555
H18_2 C15_2 1_555 1_555
C16_2 C15_2 1_555 1_555
H19_2 C16_2 1_555 1_555
C17_2 C16_2 1_555 1_555
C18_2 C17_2 1_555 1_555
H20_2 C18_2 1_555 1_555
H21_2 C18_2 1_555 1_555
H22_2 C18_2 1_555 1_555
C19_2 H23_2 1_555 1_555
H24_2 C19_2 1_555 1_555
C20_2 C19_2 1_555 1_555
H25_2 C20_2 1_555 1_555
C22_2 C21_2 1_555 1_555
C27_2 C26_2 1_555 1_555
H31_2 C27_2 1_555 1_555
H32_2 C27_2 1_555 1_555
N1_2 C1_2 1_555 1_555
N2_2 C2_2 1_555 1_555
N3_2 C4_2 1_555 1_555
N4_2 C11_2 1_555 1_555
N5_2 C13_2 1_555 1_555
N6_2 C20_2 1_555 1_555
N7_2 C22_2 1_555 1_555
Fe1_2 N2_2 1_555 1_555
C3_2 N2_2 1_555 1_555
C8_2 N3_2 1_555 1_555
C10_2 N1_2 1_555 1_555
C12_2 N4_2 1_555 1_555
C17_2 N5_2 1_555 1_555
C19_2 N1_2 1_555 1_555
C21_2 N6_2 1_555 1_555
C26_2 N7_2 1_555 1_555
N3_2 Fe1_2 1_555 1_555
N4_2 Fe1_2 1_555 1_555
N5_2 Fe1_2 1_555 1_555
N6_2 Fe1_2 1_555 1_555
N7_2 Fe1_2 1_555 1_555
H30_2 C25_2 1_555 1_555
C1_3 H1_3 1_555 1_555
H2_3 C1_3 1_555 1_555
C2_3 C1_3 1_555 1_555
H3_3 C2_3 1_555 1_555
H4_3 C2_3 1_555 1_555
C3_3 H5_3 1_555 1_555
C4_3 C3_3 1_555 1_555
C5_3 C4_3 1_555 1_555
H6_3 C5_3 1_555 1_555
C6_3 C5_3 1_555 1_555
H7_3 C6_3 1_555 1_555
C7_3 C6_3 1_555 1_555
H8_3 C7_3 1_555 1_555
C8_3 C7_3 1_555 1_555
C9_3 C8_3 1_555 1_555
H9_3 C9_3 1_555 1_555
H10_3 C9_3 1_555 1_555
H11_3 C9_3 1_555 1_555
C10_3 H12_3 1_555 1_555
H13_3 C10_3 1_555 1_555
C16_3 C15_3 1_555 1_555
H19_3 C16_3 1_555 1_555
C17_3 C16_3 1_555 1_555
C18_3 C17_3 1_555 1_555
H20_3 C18_3 1_555 1_555
H21_3 C18_3 1_555 1_555
H22_3 C18_3 1_555 1_555
C19_3 H23_3 1_555 1_555
H24_3 C19_3 1_555 1_555
C20_3 C19_3 1_555 1_555
H25_3 C20_3 1_555 1_555
H26_3 C20_3 1_555 1_555
C21_3 H27_3 1_555 1_555
C22_3 C21_3 1_555 1_555
C23_3 C22_3 1_555 1_555
H28_3 C23_3 1_555 1_555
N1_3 C1_3 1_555 1_555
N2_3 C2_3 1_555 1_555
N3_3 C4_3 1_555 1_555
N5_3 C13_3 1_555 1_555
N6_3 C20_3 1_555 1_555
N7_3 C22_3 1_555 1_555
Fe1_3 N2_3 1_555 1_555
C3_3 N2_3 1_555 1_555
C8_3 N3_3 1_555 1_555
C10_3 N1_3 1_555 1_555
C17_3 N5_3 1_555 1_555
C19_3 N1_3 1_555 1_555
C21_3 N6_3 1_555 1_555
N3_3 Fe1_3 1_555 1_555
N4_3 Fe1_3 1_555 1_555
N5_3 Fe1_3 1_555 1_555
N6_3 Fe1_3 1_555 1_555
N7_3 Fe1_3 1_555 1_555
H14_3 C11_3 1_555 1_555
H15_3 C11_3 1_555 1_555
C12_3 H16_3 1_555 1_555
H17_3 C14_3 1_555 1_555
H29_3 C24_3 1_555 1_555
C25_3 C24_3 1_555 1_555
H30_3 C25_3 1_555 1_555
C26_3 C25_3 1_555 1_555
C27_3 C26_3 1_555 1_555
H32_3 C27_3 1_555 1_555
H33_3 C27_3 1_555 1_555
C1_4 H1_4 1_555 1_555
H2_4 C1_4 1_555 1_555
C2_4 C1_4 1_555 1_555
H3_4 C2_4 1_555 1_555
H4_4 C2_4 1_555 1_555
C3_4 H5_4 1_555 1_555
C4_4 C3_4 1_555 1_555
C5_4 C4_4 1_555 1_555
H6_4 C5_4 1_555 1_555
C6_4 C5_4 1_555 1_555
H7_4 C6_4 1_555 1_555
C7_4 C6_4 1_555 1_555
H8_4 C7_4 1_555 1_555
C8_4 C7_4 1_555 1_555
C9_4 C8_4 1_555 1_555
H9_4 C9_4 1_555 1_555
H10_4 C9_4 1_555 1_555
H11_4 C9_4 1_555 1_555
C10_4 H12_4 1_555 1_555
H13_4 C10_4 1_555 1_555
C16_4 C15_4 1_555 1_555
H19_4 C16_4 1_555 1_555
C17_4 C16_4 1_555 1_555
C18_4 C17_4 1_555 1_555
H20_4 C18_4 1_555 1_555
H21_4 C18_4 1_555 1_555
H22_4 C18_4 1_555 1_555
C19_4 H23_4 1_555 1_555
H24_4 C19_4 1_555 1_555
C20_4 C19_4 1_555 1_555
H25_4 C20_4 1_555 1_555
H26_4 C20_4 1_555 1_555
C21_4 H27_4 1_555 1_555
C22_4 C21_4 1_555 1_555
C23_4 C22_4 1_555 1_555
H28_4 C23_4 1_555 1_555
N1_4 C1_4 1_555 1_555
N2_4 C2_4 1_555 1_555
N3_4 C4_4 1_555 1_555
N5_4 C13_4 1_555 1_555
N6_4 C20_4 1_555 1_555
N7_4 C22_4 1_555 1_555
Fe1_4 N2_4 1_555 1_555
C3_4 N2_4 1_555 1_555
C8_4 N3_4 1_555 1_555
C10_4 N1_4 1_555 1_555
C17_4 N5_4 1_555 1_555
C19_4 N1_4 1_555 1_555
C21_4 N6_4 1_555 1_555
N3_4 Fe1_4 1_555 1_555
N4_4 Fe1_4 1_555 1_555
N5_4 Fe1_4 1_555 1_555
N6_4 Fe1_4 1_555 1_555
N7_4 Fe1_4 1_555 1_555
H14_4 C11_4 1_555 1_555
H15_4 C11_4 1_555 1_555
C12_4 H16_4 1_555 1_555
H17_4 C14_4 1_555 1_555
C27_4 C26_4 1_555 1_555
H32_4 C27_4 1_555 1_555
H30_4 C25_4 1_555 1_555
C28 C29 1_555 1_555
C29 O2 1_555 1_555
C30 C31 1_555 1_555
C31 O6 1_555 1_555
C34 C35 1_555 1_555
C35 O16 1_555 1_555
C36 C37 1_555 1_555
C37 O20 1_555 1_555
C38 C39 1_555 1_555
C39 O14 1_555 1_555
O1 C28 1_555 1_555
O2 Mn1 1_555 1_555
O3 C28 1_555 1_555
O4 C29 1_555 1_555
O5 C30 1_555 1_555
O6 Cr1 1_555 1_555
O7 C30 1_555 1_555
O8 C31 1_555 1_555
O10 Mn2 1_555 1_555
O13 C38 1_555 1_555
O15 C34 1_555 1_555
O16 Cr1 1_555 1_555
O17 C34 1_555 1_555
O18 C35 1_555 1_555
O19 C36 1_555 1_555
O20 Mn2 1_555 1_555
O21 C36 1_555 1_555
O22 C37 1_555 1_555
O23 C38 1_555 1_555
O24 C39 1_555 1_555
Cr1 O3 1_555 1_555
Cr2 O23 1_555 1_555
Mn1 O1 1_555 1_555
Mn2 O7 1_555 1_555
O25 Mn1 1_555 1_555
C40 O25 1_555 1_555
O26 Cr2 1_555 1_555
O27 Cr2 1_555 1_555
O28 Mn1 1_555 1_555
O29 Mn1 1_555 1_555
O30 Cr2 1_555 1_555
O31 Cr2 1_555 1_555
Cr4 O21 1_555 1_555
Mn3 O17 1_555 1_555
O4 Cr1 1_555 1_555
O5 Cr1 1_555 1_555
O8 Mn2 1_555 1_555
O13 Mn1 1_555 1_555
O15 Cr1 1_555 1_555
O18 Mn3 1_555 1_555
O19 Mn2 1_555 1_555
O22 Cr4 1_555 1_555
O24 Cr2 1_555 1_555
C40 H34 1_555 1_555
C40 H35 1_555 1_555
C40 H36 1_555 1_555
C32 C33 1_555 1_555
O9 C32 1_555 1_555
O26 C32 1_555 1_555
O27 C33 1_555 1_555
C28_2 C29_2 1_555 1_555
C29_2 O2_2 1_555 1_555
C30_2 C31_2 1_555 1_555
C31_2 O6_2 1_555 1_555
C34_2 C35_2 1_555 1_555
C35_2 O16_2 1_555 1_555
C36_2 C37_2 1_555 1_555
C37_2 O20_2 1_555 1_555
O1_2 C28_2 1_555 1_555
O3_2 C28_2 1_555 1_555
O4_2 C29_2 1_555 1_555
O5_2 C30_2 1_555 1_555
O6_2 Cr1_2 1_555 1_555
O7_2 C30_2 1_555 1_555
O8_2 C31_2 1_555 1_555
O10_2 Mn2_2 1_555 1_555
O15_2 C34_2 1_555 1_555
O16_2 Cr1_2 1_555 1_555
O28 C34_2 1_555 1_555
O29 C35_2 1_555 1_555
O19_2 C36_2 1_555 1_555
O20_2 Mn2_2 1_555 1_555
O21_2 C36_2 1_555 1_555
O22_2 C37_2 1_555 1_555
Cr1_2 O3_2 1_555 1_555
Mn2_2 O7_2 1_555 1_555
C40_2 O25_2 1_555 1_555
Cr4_2 O21_2 1_555 1_555
O4_2 Cr1_2 1_555 1_555
O5_2 Cr1_2 1_555 1_555
O8_2 Mn2_2 1_555 1_555
O15_2 Cr1_2 1_555 1_555
O19_2 Mn2_2 1_555 1_555
O22_2 Cr4_2 1_555 1_555
C40_2 H34_2 1_555 1_555
C40_2 H35_2 1_555 1_555
C40_2 H36_2 1_555 1_555
C38_2 C39_2 1_555 1_555
C39_2 O14_2 1_555 1_555
O13_2 C38_2 1_555 1_555
O23_2 C38_2 1_555 1_555
O24_2 C39_2 1_555 1_555
Cr2_2 O23_2 1_555 1_555
O27_2 Cr2_2 1_555 1_555
O30_2 Cr2_2 1_555 1_555
O31_2 Cr2_2 1_555 1_555
O13_2 Mn3 1_555 1_555
O24_2 Cr2_2 1_555 1_555
C32_2 C33_2 1_555 1_555
O9_2 C32_2 1_555 1_555
O26_2 C32_2 1_555 1_555
C40_3 O25_3 1_555 1_555
Mn3_2 O17_2 1_555 1_555
C40_3 H34_3 1_555 1_555
C40_3 H35_3 1_555 1_555
C40_3 H36_3 1_555 1_555
C38_3 C39_3 1_555 1_555
C39_3 O14_3 1_555 1_555
O1_3 C28_3 1_555 1_555
O3_3 C28_3 1_555 1_555
O13_3 C38_3 1_555 1_555
O23_3 C38_3 1_555 1_555
O24_3 C39_3 1_555 1_555
Cr4_2 O23_3 1_555 1_555
Mn1_2 O1_3 1_555 1_555
O26_3 Cr4_2 1_555 1_555
O27_3 Cr4_2 1_555 1_555
O28_2 Mn1_2 1_555 1_555
O13_3 Mn1_2 1_555 1_555
O24_3 Cr4_2 1_555 1_555
C29_3 O2_3 1_555 1_555
C30_3 C31_3 1_555 1_555
C31_3 O6_3 1_555 1_555
C32_3 C33_3 1_555 1_555
C33_3 O10_3 1_555 1_555
C34_3 C35_3 1_555 1_555
C35_3 O16_3 1_555 1_555
C36_3 C37_3 1_555 1_555
C37_3 O20_3 1_555 1_555
O4_3 C29_3 1_555 1_555
O5_3 C30_3 1_555 1_555
O6_3 Cr1_3 1_555 1_555
O7_3 C30_3 1_555 1_555
O8_3 C31_3 1_555 1_555
O9_3 C32_3 1_555 1_555
O10_3 Mn2_3 1_555 1_555
O26_3 C32_3 1_555 1_555
O27_3 C33_3 1_555 1_555
O15_3 C34_3 1_555 1_555
O16_3 Cr1_3 1_555 1_555
O19_3 C36_3 1_555 1_555
O20_3 Mn2_3 1_555 1_555
O30_2 C36_3 1_555 1_555
O31_2 C37_3 1_555 1_555
Mn2_3 O7_3 1_555 1_555
O4_3 Cr1_3 1_555 1_555
O5_3 Cr1_3 1_555 1_555
O8_3 Mn2_3 1_555 1_555
O9_3 Mn2_3 1_555 1_555
O15_3 Cr1_3 1_555 1_555
O19_3 Mn2_3 1_555 1_555
O1_4 C28_4 1_555 1_555
O3_4 C28_4 1_555 1_555
C38_4 C39_4 1_555 1_555
C39_4 O14_4 1_555 1_555
O13_4 C38_4 1_555 1_555
O23_4 C38_4 1_555 1_555
O24_4 C39_4 1_555 1_555
Cr4 O23_4 1_555 1_555
O27_4 Cr4 1_555 1_555
O13_4 Mn3_2 1_555 1_555
O24_4 Cr4 1_555 1_555
C40_4 O25_4 1_555 1_555
C40_4 H34_4 1_555 1_555
C40_4 H35_4 1_555 1_555
C40_4 H36_4 1_555 1_555
C29_4 O2_4 1_555 1_555
C30_4 C31_4 1_555 1_555
C31_4 O6_4 1_555 1_555
C32_4 C33_4 1_555 1_555
C33_4 O10_4 1_555 1_555
C34_4 C35_4 1_555 1_555
C35_4 O16_4 1_555 1_555
C36_4 C37_4 1_555 1_555
C37_4 O20_4 1_555 1_555
O4_4 C29_4 1_555 1_555
O5_4 C30_4 1_555 1_555
O6_4 Cr1_4 1_555 1_555
O7_4 C30_4 1_555 1_555
O8_4 C31_4 1_555 1_555
O9_4 C32_4 1_555 1_555
O10_4 Mn2_4 1_555 1_555
O26_4 C32_4 1_555 1_555
O15_4 C34_4 1_555 1_555
O16_4 Cr1_4 1_555 1_555
O19_4 C36_4 1_555 1_555
O20_4 Mn2_4 1_555 1_555
O30 C36_4 1_555 1_555
O31 C37_4 1_555 1_555
Mn2_4 O7_4 1_555 1_555
O4_4 Cr1_4 1_555 1_555
O5_4 Cr1_4 1_555 1_555
O8_4 Mn2_4 1_555 1_555
O9_4 Mn2_4 1_555 1_555
O15_4 Cr1_4 1_555 1_555
O19_4 Mn2_4 1_555 1_555

#END
