
###############################################################################
#
# This file contains modified crystal structure data generated from the
# MOF subset of the Cambridge Structural Database (CSD) v543 
# hosted by the Cambridge Crystallographic Data Centre (CCDC).
#
# This work is licensed under the Creative Commons
# Attribution-NonCommercial-ShareAlike 4.0 International License.
# To view a copy of this license, visit
# http://creativecommons.org/licenses/by-nc-sa/4.0/
# or send a letter to
# Creative Commons, PO Box 1866, Mountain View, CA 94042, USA.
#
# CIF created using the CSD Python API on 29 September 2022
# The structure has been converted into the P1 space group
# The structure has a 3D framework
# The original CSD entry VINMUD is in the monoclinic crystal system
# The framework has been calculated to contain at least 10.0% void space
# The void calculation uses a probe of radius 1.32A, grid spacing 0.4
# The framework is charged, counterions have been retained in the structure
#
###############################################################################

data_VINMUD
_chemical_formula_moiety         '(C24 Cd6 N32 2-)n'
_symmetry_cell_setting           triclinic
_symmetry_space_group_name_H-M   'P 1'
_symmetry_Int_Tables_number      1
_space_group_name_Hall           'P 1'
loop_
_symmetry_equiv_pos_site_id
_symmetry_equiv_pos_as_xyz
1 x,y,z
_cell_length_a                   18.909(4)
_cell_length_b                   10.618(2)
_cell_length_c                   10.507(2)
_cell_angle_alpha                90
_cell_angle_beta                 111.75(3)
_cell_angle_gamma                90
_cell_volume                     1959.37
loop_
_atom_site_label
_atom_site_type_symbol
_atom_site_fract_x
_atom_site_fract_y
_atom_site_fract_z
Cd1 Cd 0.2500 0.2500 0.0000
N1 N 0.25746(15) 0.24409(19) 0.2255(2)
C1 C 0.43925(13) 0.2640(2) 0.1685(3)
N2 N 0.38313(12) 0.2291(2) 0.0908(2)
C2 C 0.28027(12) 0.2941(2) 0.3294(2)
N3 N 0.31007(13) 0.3417(2) 0.4518(2)
N4 N 0.5000 0.3194(3) 0.2500
C3 C 0.28451(12) 0.4457(2) 0.4807(2)
N5 N 0.26546(14) 0.5357(2) 0.5169(2)
C4 C 0.56075(13) 0.2640(2) 0.3315(3)
N6 N 0.61687(12) 0.2291(2) 0.4092(2)
Cd2 Cd 0.7500 0.2500 0.5000
Cd4 Cd 0.2500 0.7500 0.5000
N12 N 0.26546(14) 0.4643(2) 0.0169(2)
Cd1_2 Cd 0.2500 0.2500 1.0000
N7 N 0.24254(15) 0.25591(19) 0.7745(2)
C5 C 0.21973(12) 0.2059(2) 0.6706(2)
N8 N 0.18993(13) 0.1583(2) 0.5482(2)
C6 C 0.21549(12) 0.0543(2) 0.5193(2)
N10 N 0.11687(12) 0.2709(2) 0.9092(2)
N11 N 0.23454(14) 0.0357(2) 0.9831(2)
N9 N 0.23454(14) 0.9643(2) 0.4831(2)
N1_2 N 0.74254(15) 0.24409(19) 0.2745(2)
C2_2 C 0.71973(12) 0.2941(2) 0.1706(2)
N3_2 N 0.68993(13) 0.3417(2) 0.0482(2)
C3_2 C 0.71549(12) 0.4457(2) 0.0193(2)
N7_2 N 0.75746(15) 0.25591(19) 0.7255(2)
C5_2 C 0.78027(12) 0.2059(2) 0.8294(2)
N8_2 N 0.81007(13) 0.1583(2) 0.9518(2)
C6_2 C 0.78451(12) 0.0543(2) 0.9807(2)
Cd4_2 Cd 0.7500 0.7500 0.0000
N10_2 N 0.88313(12) 0.2709(2) 0.5908(2)
N11_2 N 0.76546(14) 0.0357(2) 0.5169(2)
N12_2 N 0.73454(14) 0.4643(2) 0.4831(2)
N5_2 N 0.73454(14) 0.5357(2) 0.9831(2)
Cd4_3 Cd 0.7500 0.7500 1.0000
N9_2 N 0.76546(14) 0.9643(2) 0.0169(2)
N4_2 N 0.0000 0.8194(3) 0.2500
C4_2 C 0.06075(13) 0.7640(2) 0.3315(3)
N6_2 N 0.11687(12) 0.7291(2) 0.4092(2)
N1_3 N 0.75746(15) 0.74409(19) 0.2255(2)
C1_2 C 0.93925(13) 0.7640(2) 0.1685(3)
N2_2 N 0.88313(12) 0.7291(2) 0.0908(2)
C2_3 C 0.78027(12) 0.7941(2) 0.3294(2)
N3_3 N 0.81007(13) 0.8417(2) 0.4518(2)
N4_3 N 1.0000 0.8194(3) 0.2500
C3_3 C 0.78451(12) 0.9457(2) 0.4807(2)
N7_3 N 0.74254(15) 0.75591(19) 0.7745(2)
C5_3 C 0.71973(12) 0.7059(2) 0.6706(2)
N8_3 N 0.68993(13) 0.6583(2) 0.5482(2)
C6_3 C 0.71549(12) 0.5543(2) 0.5193(2)
N10_3 N 0.61687(12) 0.7709(2) 0.9092(2)
N1_4 N 0.24254(15) 0.74409(19) 0.2745(2)
C2_4 C 0.21973(12) 0.7941(2) 0.1706(2)
N3_4 N 0.18993(13) 0.8417(2) 0.0482(2)
C3_4 C 0.21549(12) 0.9457(2) 0.0193(2)
N7_4 N 0.25746(15) 0.75591(19) 0.7255(2)
C5_4 C 0.28027(12) 0.7059(2) 0.8294(2)
N8_4 N 0.31007(13) 0.6583(2) 0.9518(2)
C6_4 C 0.28451(12) 0.5543(2) 0.9807(2)
N10_4 N 0.38313(12) 0.7709(2) 0.5908(2)
C1_3 C 0.56075(13) 0.7360(2) 0.8315(3)
N4_4 N 0.5000 0.6806(3) 0.7500
C4_3 C 0.43925(13) 0.7360(2) 0.6685(3)
C1_4 C 0.06075(13) 0.2360(2) 0.8315(3)
N4_5 N 0.0000 0.1806(3) 0.7500
N4_6 N 1.0000 0.1806(3) 0.7500
C4_4 C 0.93925(13) 0.2360(2) 0.6685(3)
loop_
_geom_bond_atom_site_label_1
_geom_bond_atom_site_label_2
_geom_bond_site_symmetry_1
_geom_bond_site_symmetry_2
Cd1 N1 1_555 1_555
N1 C2 1_555 1_555
C1 N2 1_555 1_555
N2 Cd1 1_555 1_555
C2 N3 1_555 1_555
N3 C3 1_555 1_555
N4 C1 1_555 1_555
C3 N5 1_555 1_555
N5 Cd4 1_555 1_555
C4 N4 1_555 1_555
N6 C4 1_555 1_555
Cd2 N6 1_555 1_555
N12 Cd1 1_555 1_555
N7 Cd1_2 1_555 1_555
C5 N7 1_555 1_555
N8 C5 1_555 1_555
C6 N8 1_555 1_555
N10 Cd1_2 1_555 1_555
N11 Cd1_2 1_555 1_555
Cd4 N9 1_555 1_555
Cd2 N1_2 1_555 1_555
N1_2 C2_2 1_555 1_555
C2_2 N3_2 1_555 1_555
N3_2 C3_2 1_555 1_555
N7_2 Cd2 1_555 1_555
C5_2 N7_2 1_555 1_555
N8_2 C5_2 1_555 1_555
C6_2 N8_2 1_555 1_555
N10_2 Cd2 1_555 1_555
N11_2 Cd2 1_555 1_555
N12_2 Cd2 1_555 1_555
N5_2 Cd4_3 1_555 1_555
Cd4_2 N9_2 1_555 1_555
C4_2 N4_2 1_555 1_555
N6_2 C4_2 1_555 1_555
Cd4 N6_2 1_555 1_555
Cd4_2 N1_3 1_555 1_555
N1_3 C2_3 1_555 1_555
C1_2 N2_2 1_555 1_555
N2_2 Cd4_2 1_555 1_555
C2_3 N3_3 1_555 1_555
N3_3 C3_3 1_555 1_555
N4_3 C1_2 1_555 1_555
N7_3 Cd4_3 1_555 1_555
C5_3 N7_3 1_555 1_555
N8_3 C5_3 1_555 1_555
C6_3 N8_3 1_555 1_555
N12_2 C6_3 1_555 1_555
N10_3 Cd4_3 1_555 1_555
Cd4 N1_4 1_555 1_555
N1_4 C2_4 1_555 1_555
C2_4 N3_4 1_555 1_555
N3_4 C3_4 1_555 1_555
N7_4 Cd4 1_555 1_555
C5_4 N7_4 1_555 1_555
N8_4 C5_4 1_555 1_555
C6_4 N8_4 1_555 1_555
N10_4 Cd4 1_555 1_555
C1_3 N10_3 1_555 1_555
N4_4 C1_3 1_555 1_555
C4_3 N4_4 1_555 1_555
N10_4 C4_3 1_555 1_555
C1_4 N10 1_555 1_555
N4_5 C1_4 1_555 1_555
C4_4 N4_6 1_555 1_555
N10_2 C4_4 1_555 1_555

#END
