
###############################################################################
#
# This file contains modified crystal structure data generated from the
# MOF subset of the Cambridge Structural Database (CSD) v543 
# hosted by the Cambridge Crystallographic Data Centre (CCDC).
#
# This work is licensed under the Creative Commons
# Attribution-NonCommercial-ShareAlike 4.0 International License.
# To view a copy of this license, visit
# http://creativecommons.org/licenses/by-nc-sa/4.0/
# or send a letter to
# Creative Commons, PO Box 1866, Mountain View, CA 94042, USA.
#
# CIF created using the CSD Python API on 29 September 2022
# The structure has been converted into the P1 space group
# The structure has a 3D framework
# The original CSD entry VIPCUV is in the tetragonal crystal system
# The framework has been calculated to contain at least 10.0% void space
# The void calculation uses a probe of radius 1.32A, grid spacing 0.4
# H atom positions have been added when not included in the experimental data
#
###############################################################################

data_VIPCUV
_chemical_formula_moiety         '(C256 H176 Eu16 O120)n'
_symmetry_cell_setting           triclinic
_symmetry_space_group_name_H-M   'P 1'
_symmetry_Int_Tables_number      1
_space_group_name_Hall           'P 1'
loop_
_symmetry_equiv_pos_site_id
_symmetry_equiv_pos_as_xyz
1 x,y,z
_cell_length_a                   21.534(3)
_cell_length_b                   21.534(3)
_cell_length_c                   15.908(3)
_cell_angle_alpha                90
_cell_angle_beta                 90
_cell_angle_gamma                90
_cell_volume                     7376.75
loop_
_atom_site_label
_atom_site_type_symbol
_atom_site_fract_x
_atom_site_fract_y
_atom_site_fract_z
Eu4 Eu 0.173409(8) 0.050309(8) 0.418239(10)
O13 O 0.19331(17) 0.02948(14) 0.1914(2)
O5 O 0.14936(14) 0.93271(15) 0.03991(16)
Eu2 Eu 0.199691(8) 0.923409(8) 0.168239(10)
O1 O 0.24322(13) 0.88189(12) 0.29128(15)
O2 O 0.13656(18) 0.82838(17) 0.1832(3)
O3 O 0.24446(16) 0.66021(13) 0.3902(2)
O4 O 0.21759(15) 0.95507(13) 0.3815(2)
O6 O 0.19270(18) 0.64143(14) 0.5081(2)
O7 O 0.22052(14) 0.94331(17) 0.9414(2)
O8 O 0.12543(13) 0.84941(17) 0.68063(17)
C1 C 0.21765(19) 0.67686(17) 0.4564(2)
C2 C 0.0445(2) 0.8593(2) 0.7772(3)
H1 H 0.0175 0.8457 0.7355
C3 C 0.22731(16) 0.89970(16) 0.3639(2)
C4 C 0.22085(16) 0.85171(17) 0.4311(2)
C5 C 0.22394(18) 0.78881(17) 0.4124(2)
H2 H 0.2320 0.7760 0.3577
C6 C 0.21499(17) 0.74481(17) 0.4755(2)
C7 C 0.21007(17) 0.87055(17) 0.5135(2)
H3 H 0.2083 0.9127 0.5260
C8 C 0.20195(18) 0.82765(19) 0.5770(2)
C9 C 0.19088(19) 0.8494(2) 0.6652(2)
H4 H 0.2116 0.8219 0.7046
H5 H 0.2075 0.8909 0.6725
C10 C 0.10662(18) 0.86622(19) 0.7602(2)
C11 C 0.16807(17) 0.92707(17) 0.9656(2)
C12 C 0.12394(17) 0.90189(17) 0.9011(2)
C13 C 0.14659(18) 0.88855(17) 0.8209(2)
H6 H 0.1883 0.8947 0.8085
C14 C 0.0615(2) 0.8928(2) 0.9188(3)
H7 H 0.0463 0.9004 0.9725
C15 C 0.20368(19) 0.76479(19) 0.5576(2)
H8 H 0.1972 0.7356 0.5998
C16 C 0.0224(2) 0.8727(3) 0.8564(3)
Eu3 Eu 0.326591(8) 0.949691(8) 0.918239(10)
Eu5 Eu 0.173409(8) 0.550309(8) 0.581761(10)
Eu6 Eu 0.300309(8) 0.576591(8) 0.331761(10)
O9 O 0.25554(16) 0.83979(13) 0.1098(2)
O10 O 0.29493(13) 0.96759(15) 0.1315(2)
O12 O 0.10857(14) 0.94270(18) 0.2419(2)
H10 H 0.114017 0.829493 0.237633
H11 H 0.106168 0.826006 0.136365
O3_2 O 0.08979(13) 0.49446(16) 0.6402(2)
O6_2 O 0.10857(14) 0.44270(18) 0.7581(2)
C1_2 C 0.07314(17) 0.46765(19) 0.7064(2)
C6_2 C 0.00519(17) 0.46499(17) 0.7255(2)
H8_2 H 0.0144 0.4472 0.8498
Eu5_2 Eu 0.199691(8) 0.423409(8) 0.831761(10)
O5_2 O 0.81729(15) 0.39936(14) 0.28991(16)
O7_2 O 0.80669(17) 0.47052(14) 0.1914(2)
C2_2 C 0.8907(2) 0.2945(2) 0.0272(3)
C10_2 C 0.88378(19) 0.35662(18) 0.0102(2)
C11_2 C 0.82293(17) 0.41807(17) 0.2156(2)
C12_2 C 0.84811(17) 0.37394(17) 0.1511(2)
C13_2 C 0.86145(17) 0.39659(18) 0.0709(2)
H6_2 H 0.8553 0.4383 0.0585
C14_2 C 0.8572(2) 0.3115(2) 0.1688(3)
H7_2 H 0.8496 0.2963 0.2225
C16_2 C 0.8773(3) 0.2724(2) 0.1064(3)
H9 H 0.8821 0.2303 0.1177
Eu2_2 Eu 0.826591(8) 0.449691(8) 0.418239(10)
Eu3_2 Eu 0.800309(8) 0.576591(8) 0.168239(10)
O1_2 O 0.86811(12) 0.49322(13) 0.54128(15)
O2_2 O 0.92162(17) 0.38656(18) 0.4332(3)
O4_2 O 0.79493(13) 0.46759(15) 0.6315(2)
O8_2 O 0.90059(17) 0.37543(13) 0.93063(17)
H1_2 H 0.9043 0.2675 0.9855
C3_2 C 0.85030(16) 0.47731(16) 0.6139(2)
C4_2 C 0.89829(17) 0.47085(16) 0.6811(2)
C5_2 C 0.96119(17) 0.47394(18) 0.6624(2)
H2_2 H 0.9740 0.4820 0.6077
C7_2 C 0.87945(17) 0.46007(17) 0.7635(2)
H3_2 H 0.8373 0.4583 0.7760
C8_2 C 0.92235(19) 0.45195(18) 0.8270(2)
C9_2 C 0.9006(2) 0.44088(19) 0.9152(2)
H4_2 H 0.9281 0.4616 0.9546
H5_2 H 0.8591 0.4575 0.9225
C15_2 C 0.98521(19) 0.45368(19) 0.8076(2)
Eu4_2 Eu 0.699691(8) 0.423409(8) 0.668239(10)
O9_2 O 0.91021(13) 0.50554(16) 0.3598(2)
O10_2 O 0.78241(15) 0.54493(13) 0.3815(2)
O12_2 O 0.80730(18) 0.35857(14) 0.4919(2)
O13_2 O 0.72052(14) 0.44331(17) 0.4414(2)
H10_2 H 0.920507 0.364017 0.487633
H11_2 H 0.923994 0.356168 0.386365
O5_3 O 0.35064(14) 0.06729(15) 0.53991(16)
O6_3 O 0.30730(18) 0.35857(14) 0.0081(2)
O7_3 O 0.27948(14) 0.05669(17) 0.4414(2)
O8_3 O 0.37457(13) 0.15059(17) 0.18063(17)
C2_3 C 0.4555(2) 0.1407(2) 0.2772(3)
H1_3 H 0.4825 0.1543 0.2355
C7_3 C 0.28993(17) 0.12945(17) 0.0135(2)
H3_3 H 0.2917 0.0873 0.0260
C8_3 C 0.29805(18) 0.17235(19) 0.0770(2)
C9_3 C 0.30912(19) 0.1506(2) 0.1652(2)
H4_3 H 0.2884 0.1781 0.2046
H5_3 H 0.2925 0.1091 0.1725
C10_3 C 0.39338(18) 0.13378(19) 0.2602(2)
C11_3 C 0.33193(17) 0.07293(17) 0.4656(2)
C12_3 C 0.37606(17) 0.09811(17) 0.4011(2)
C13_3 C 0.35341(18) 0.11145(17) 0.3209(2)
H6_3 H 0.3117 0.1053 0.3085
C14_3 C 0.4385(2) 0.1072(2) 0.4188(3)
H7_3 H 0.4537 0.0996 0.4725
C15_3 C 0.29632(19) 0.23521(19) 0.0576(2)
H8_3 H 0.3028 0.2644 0.0998
C16_3 C 0.4776(2) 0.1273(3) 0.3564(3)
H9_2 H 0.5197 0.1321 0.3677
Eu2_3 Eu 0.300309(8) 0.076591(8) 0.668239(10)
Eu5_3 Eu 0.326591(8) 0.449691(8) 0.081761(10)
O1_3 O 0.25678(13) 0.11811(12) 0.79128(15)
O2_3 O 0.36344(18) 0.17162(17) 0.6832(3)
O3_3 O 0.25554(16) 0.33979(13) 0.8902(2)
O4_3 O 0.28241(15) 0.04493(13) 0.8815(2)
C1_3 C 0.28235(19) 0.32314(17) 0.9564(2)
C3_3 C 0.27269(16) 0.10030(16) 0.8639(2)
C4_3 C 0.27915(16) 0.14829(17) 0.9311(2)
C5_3 C 0.27606(18) 0.21119(17) 0.9124(2)
H2_3 H 0.2680 0.2240 0.8577
C6_3 C 0.28501(17) 0.25519(17) 0.9755(2)
O9_3 O 0.24446(16) 0.16021(13) 0.6098(2)
O10_3 O 0.20507(13) 0.03241(15) 0.6315(2)
O12_3 O 0.39143(14) 0.05730(18) 0.7419(2)
H10_3 H 0.385983 0.170507 0.737633
H11_3 H 0.393832 0.173994 0.636365
O13_3 O 0.30669(17) 0.97052(14) 0.6914(2)
O1_4 O 0.63189(12) 0.50678(13) 0.04128(15)
O3_4 O 0.41021(13) 0.50554(16) 0.1402(2)
O4_4 O 0.70507(13) 0.53241(15) 0.1315(2)
O5_4 O 0.68271(15) 0.60064(14) 0.78991(16)
O6_4 O 0.39143(14) 0.55730(18) 0.2581(2)
O7_4 O 0.69331(17) 0.52948(14) 0.6914(2)
O8_4 O 0.59941(17) 0.62457(13) 0.43063(17)
C1_4 C 0.42686(17) 0.53235(19) 0.2064(2)
C2_4 C 0.6093(2) 0.7055(2) 0.5272(3)
H1_4 H 0.5957 0.7325 0.4855
C3_4 C 0.64970(16) 0.52269(16) 0.1139(2)
C4_4 C 0.60171(17) 0.52915(16) 0.1811(2)
C5_4 C 0.53881(17) 0.52606(18) 0.1624(2)
H2_4 H 0.5260 0.5180 0.1077
C6_4 C 0.49481(17) 0.53501(17) 0.2255(2)
C7_4 C 0.62055(17) 0.53993(17) 0.2635(2)
H3_4 H 0.6627 0.5417 0.2760
C8_4 C 0.57765(19) 0.54805(18) 0.3270(2)
C9_4 C 0.5994(2) 0.55912(19) 0.4152(2)
H4_4 H 0.5719 0.5384 0.4546
H5_4 H 0.6409 0.5425 0.4225
C10_4 C 0.61622(19) 0.64338(18) 0.5102(2)
C11_4 C 0.67707(17) 0.58193(17) 0.7156(2)
C12_4 C 0.65189(17) 0.62606(17) 0.6511(2)
C13_4 C 0.63855(17) 0.60341(18) 0.5709(2)
H6_4 H 0.6447 0.5617 0.5585
C14_4 C 0.6428(2) 0.6885(2) 0.6688(3)
H7_4 H 0.6504 0.7037 0.7225
C15_4 C 0.51479(19) 0.54632(19) 0.3076(2)
H8_4 H 0.4856 0.5528 0.3498
C16_4 C 0.6227(3) 0.7276(2) 0.6064(3)
H9_3 H 0.6179 0.7697 0.6177
Eu2_4 Eu 0.673409(8) 0.550309(8) 0.918239(10)
O2_4 O 0.57838(17) 0.61344(18) 0.9332(3)
O9_4 O 0.58979(13) 0.49446(16) 0.8598(2)
O10_4 O 0.71759(15) 0.45507(13) 0.8815(2)
O12_4 O 0.69270(18) 0.64143(14) 0.9919(2)
O13_4 O 0.77948(14) 0.55669(17) 0.9414(2)
H10_4 H 0.579493 0.635983 0.987633
H11_4 H 0.576006 0.643832 0.886365
O5_5 O 0.64936(14) 0.43271(15) 0.53991(16)
O6_5 O 0.69270(18) 0.14143(14) 0.0081(2)
O8_5 O 0.62543(13) 0.34941(17) 0.18063(17)
C2_5 C 0.5445(2) 0.3593(2) 0.2772(3)
H1_5 H 0.5175 0.3457 0.2355
C7_5 C 0.71007(17) 0.37055(17) 0.0135(2)
H3_5 H 0.7083 0.4127 0.0260
C8_5 C 0.70195(18) 0.32765(19) 0.0770(2)
C9_5 C 0.69088(19) 0.3494(2) 0.1652(2)
H4_5 H 0.7116 0.3219 0.2046
H5_5 H 0.7075 0.3909 0.1725
C10_5 C 0.60662(18) 0.36622(19) 0.2602(2)
C11_5 C 0.66807(17) 0.42707(17) 0.4656(2)
C12_5 C 0.62394(17) 0.40189(17) 0.4011(2)
C13_5 C 0.64659(18) 0.38855(17) 0.3209(2)
H6_5 H 0.6883 0.3947 0.3085
C14_5 C 0.5615(2) 0.3928(2) 0.4188(3)
H7_5 H 0.5463 0.4004 0.4725
C15_5 C 0.70368(19) 0.26479(19) 0.0576(2)
H8_5 H 0.6972 0.2356 0.0998
C16_5 C 0.5224(2) 0.3727(3) 0.3564(3)
H9_4 H 0.4803 0.3679 0.3677
Eu5_4 Eu 0.673409(8) 0.050309(8) 0.081761(10)
O1_5 O 0.74322(13) 0.38189(12) 0.79128(15)
O2_5 O 0.63656(18) 0.32838(17) 0.6832(3)
O3_5 O 0.74446(16) 0.16021(13) 0.8902(2)
C1_5 C 0.71765(19) 0.17686(17) 0.9564(2)
C3_5 C 0.72731(16) 0.39970(16) 0.8639(2)
C4_5 C 0.72085(16) 0.35171(17) 0.9311(2)
C5_5 C 0.72394(18) 0.28881(17) 0.9124(2)
H2_5 H 0.7320 0.2760 0.8577
C6_5 C 0.71499(17) 0.24481(17) 0.9755(2)
Eu6_2 Eu 0.800309(8) 0.076591(8) 0.831761(10)
O9_5 O 0.75554(16) 0.33979(13) 0.6098(2)
O12_5 O 0.60857(14) 0.44270(18) 0.7419(2)
H10_5 H 0.614017 0.329493 0.737633
H11_5 H 0.606168 0.326006 0.636365
O9_6 O 0.41021(13) 0.00554(16) 0.8598(2)
O1_6 O 0.36811(12) 0.99322(13) 0.04128(15)
O3_6 O 0.58979(13) 0.99446(16) 0.1402(2)
O5_6 O 0.31729(15) 0.89936(14) 0.78991(16)
O6_6 O 0.60857(14) 0.94270(18) 0.2581(2)
O8_6 O 0.40059(17) 0.87543(13) 0.43063(17)
C1_6 C 0.57314(17) 0.96765(19) 0.2064(2)
C2_6 C 0.3907(2) 0.7945(2) 0.5272(3)
H1_6 H 0.4043 0.7675 0.4855
C3_6 C 0.35030(16) 0.97731(16) 0.1139(2)
C4_6 C 0.39829(17) 0.97085(16) 0.1811(2)
C5_6 C 0.46119(17) 0.97394(18) 0.1624(2)
H2_6 H 0.4740 0.9820 0.1077
C6_6 C 0.50519(17) 0.96499(17) 0.2255(2)
C7_6 C 0.37945(17) 0.96007(17) 0.2635(2)
H3_6 H 0.3373 0.9583 0.2760
C8_6 C 0.42235(19) 0.95195(18) 0.3270(2)
C9_6 C 0.4006(2) 0.94088(19) 0.4152(2)
H4_6 H 0.4281 0.9616 0.4546
H5_6 H 0.3591 0.9575 0.4225
C10_6 C 0.38378(19) 0.85662(18) 0.5102(2)
C11_6 C 0.32293(17) 0.91807(17) 0.7156(2)
C12_6 C 0.34811(17) 0.87394(17) 0.6511(2)
C13_6 C 0.36145(17) 0.89659(18) 0.5709(2)
H6_6 H 0.3553 0.9383 0.5585
C14_6 C 0.3572(2) 0.8115(2) 0.6688(3)
H7_6 H 0.3496 0.7963 0.7225
C15_6 C 0.48521(19) 0.95368(19) 0.3076(2)
H8_6 H 0.5144 0.9472 0.3498
C16_6 C 0.3773(3) 0.7724(2) 0.6064(3)
H9_5 H 0.3821 0.7303 0.6177
Eu5_5 Eu 0.699691(8) 0.923409(8) 0.331761(10)
O2_6 O 0.42162(17) 0.88656(18) 0.9332(3)
O12_6 O 0.30730(18) 0.85857(14) 0.9919(2)
H10_6 H 0.420507 0.864017 0.987633
H11_6 H 0.423994 0.856168 0.886365
O5_7 O 0.85064(14) 0.56729(15) 0.03991(16)
O1_7 O 0.75678(13) 0.61811(12) 0.29128(15)
O2_7 O 0.86344(18) 0.67162(17) 0.1832(3)
O3_7 O 0.75554(16) 0.83979(13) 0.3902(2)
O6_7 O 0.80730(18) 0.85857(14) 0.5081(2)
O8_7 O 0.87457(13) 0.65059(17) 0.68063(17)
C1_7 C 0.78235(19) 0.82314(17) 0.4564(2)
C2_7 C 0.9555(2) 0.6407(2) 0.7772(3)
H1_7 H 0.9825 0.6543 0.7355
C3_7 C 0.77269(16) 0.60030(16) 0.3639(2)
C4_7 C 0.77915(16) 0.64829(17) 0.4311(2)
C5_7 C 0.77606(18) 0.71119(17) 0.4124(2)
H2_7 H 0.7680 0.7240 0.3577
C6_7 C 0.78501(17) 0.75519(17) 0.4755(2)
C7_7 C 0.78993(17) 0.62945(17) 0.5135(2)
H3_7 H 0.7917 0.5873 0.5260
C8_7 C 0.79805(18) 0.67235(19) 0.5770(2)
C9_7 C 0.80912(19) 0.6506(2) 0.6652(2)
H4_7 H 0.7884 0.6781 0.7046
H5_7 H 0.7925 0.6091 0.6725
C10_7 C 0.89338(18) 0.63378(19) 0.7602(2)
C11_7 C 0.83193(17) 0.57293(17) 0.9656(2)
C12_7 C 0.87606(17) 0.59811(17) 0.9011(2)
C13_7 C 0.85341(18) 0.61145(17) 0.8209(2)
H6_7 H 0.8117 0.6053 0.8085
C14_7 C 0.9385(2) 0.6072(2) 0.9188(3)
H7_7 H 0.9537 0.5996 0.9725
C15_7 C 0.79632(19) 0.73521(19) 0.5576(2)
H8_7 H 0.8028 0.7644 0.5998
C16_7 C 0.9776(2) 0.6273(3) 0.8564(3)
Eu5_6 Eu 0.826591(8) 0.949691(8) 0.581761(10)
O9_7 O 0.74446(16) 0.66021(13) 0.1098(2)
O12_7 O 0.89143(14) 0.55730(18) 0.2419(2)
H10_7 H 0.885983 0.670507 0.237633
H11_7 H 0.893832 0.673994 0.136365
O5_8 O 0.18271(15) 0.10064(14) 0.28991(16)
C2_8 C 0.1093(2) 0.2055(2) 0.0272(3)
C10_8 C 0.11622(19) 0.14338(18) 0.0102(2)
C11_8 C 0.17707(17) 0.08193(17) 0.2156(2)
C12_8 C 0.15189(17) 0.12606(17) 0.1511(2)
C13_8 C 0.13855(17) 0.10341(18) 0.0709(2)
H6_8 H 0.1447 0.0617 0.0585
C14_8 C 0.1428(2) 0.1885(2) 0.1688(3)
H7_8 H 0.1504 0.2037 0.2225
C16_8 C 0.1227(3) 0.2276(2) 0.1064(3)
H9_6 H 0.1179 0.2697 0.1177
O1_8 O 0.13189(12) 0.00678(13) 0.54128(15)
O2_8 O 0.07838(17) 0.11344(18) 0.4332(3)
O8_8 O 0.09941(17) 0.12457(13) 0.93063(17)
H1_8 H 0.0957 0.2325 0.9855
C3_8 C 0.14970(16) 0.02269(16) 0.6139(2)
C4_8 C 0.10171(17) 0.02915(16) 0.6811(2)
C5_8 C 0.03881(17) 0.02606(18) 0.6624(2)
H2_8 H 0.0260 0.0180 0.6077
C7_8 C 0.12055(17) 0.03993(17) 0.7635(2)
H3_8 H 0.1627 0.0417 0.7760
C8_8 C 0.07765(19) 0.04805(18) 0.8270(2)
C9_8 C 0.0994(2) 0.05912(19) 0.9152(2)
H4_8 H 0.0719 0.0384 0.9546
H5_8 H 0.1409 0.0425 0.9225
C15_8 C 0.01479(19) 0.04632(19) 0.8076(2)
O12_8 O 0.19270(18) 0.14143(14) 0.4919(2)
H10_8 H 0.0794927 0.135983 0.487633
H11_8 H 0.0760063 0.143832 0.386365
O9_8 O 0.08979(13) 0.99446(16) 0.3598(2)
O3_8 O 0.91021(13) 0.00554(16) 0.6402(2)
O6_8 O 0.89143(14) 0.05730(18) 0.7581(2)
C1_8 C 0.92686(17) 0.03235(19) 0.7064(2)
C6_8 C 0.99481(17) 0.03501(17) 0.7255(2)
H8_8 H 0.9856 0.0528 0.8498
O1_9 O 0.75678(13) 0.11811(12) 0.70872(15)
O2_9 O 0.86344(18) 0.17162(17) 0.8168(3)
O4_5 O 0.78241(15) 0.04493(13) 0.6185(2)
O7_5 O 0.77948(14) 0.05669(17) 0.0586(2)
O8_9 O 0.87457(13) 0.15059(17) 0.31937(17)
C1_9 C 0.78235(19) 0.32314(17) 0.5436(2)
C2_9 C 0.9555(2) 0.1407(2) 0.2228(3)
H1_9 H 0.9825 0.1543 0.2645
C3_9 C 0.77269(16) 0.10030(16) 0.6361(2)
C4_9 C 0.77915(16) 0.14829(17) 0.5689(2)
C5_9 C 0.77606(18) 0.21119(17) 0.5876(2)
H2_9 H 0.7680 0.2240 0.6423
C6_9 C 0.78501(17) 0.25519(17) 0.5245(2)
C7_9 C 0.78993(17) 0.12945(17) 0.4865(2)
H3_9 H 0.7917 0.0873 0.4740
C8_9 C 0.79805(18) 0.17235(19) 0.4230(2)
C9_9 C 0.80912(19) 0.1506(2) 0.3348(2)
H4_9 H 0.7884 0.1781 0.2954
H5_9 H 0.7925 0.1091 0.3275
C10_9 C 0.89338(18) 0.13378(19) 0.2398(2)
C11_9 C 0.83193(17) 0.07293(17) 0.0344(2)
C12_9 C 0.87606(17) 0.09811(17) 0.0989(2)
C13_9 C 0.85341(18) 0.11145(17) 0.1791(2)
H6_9 H 0.8117 0.1053 0.1915
C14_9 C 0.9385(2) 0.1072(2) 0.0812(3)
H7_9 H 0.9537 0.0996 0.0275
C15_9 C 0.79632(19) 0.23521(19) 0.4424(2)
H8_9 H 0.8028 0.2644 0.4002
C16_9 C 0.9776(2) 0.1273(3) 0.1436(3)
O10_5 O 0.70507(13) 0.03241(15) 0.8685(2)
O11 O 0.85064(14) 0.06729(15) 0.96009(16)
H10_9 H 0.885983 0.170507 0.762367
H11_9 H 0.893832 0.173994 0.863635
O13_5 O 0.80669(17) 0.97052(14) 0.8086(2)
O1_10 O 0.13189(12) 0.50678(13) 0.45872(15)
O2_10 O 0.07838(17) 0.61344(18) 0.5668(3)
O4_6 O 0.20507(13) 0.53241(15) 0.3685(2)
O8_10 O 0.09941(17) 0.62457(13) 0.06937(17)
H1_10 H 0.0957 0.7325 0.0145
C3_10 C 0.14970(16) 0.52269(16) 0.3861(2)
C4_10 C 0.10171(17) 0.52915(16) 0.3189(2)
C5_10 C 0.03881(17) 0.52606(18) 0.3376(2)
H2_10 H 0.0260 0.5180 0.3923
C7_10 C 0.12055(17) 0.53993(17) 0.2365(2)
H3_10 H 0.1627 0.5417 0.2240
C8_10 C 0.07765(19) 0.54805(18) 0.1730(2)
C9_10 C 0.0994(2) 0.55912(19) 0.0848(2)
H4_10 H 0.0719 0.5384 0.0454
H5_10 H 0.1409 0.5425 0.0775
C15_10 C 0.01479(19) 0.54632(19) 0.1924(2)
O10_6 O 0.21759(15) 0.45507(13) 0.6185(2)
O11_2 O 0.18271(15) 0.60064(14) 0.71009(16)
O13_6 O 0.27948(14) 0.55669(17) 0.5586(2)
H10_10 H 0.0794927 0.635983 0.512367
H11_10 H 0.0760063 0.643832 0.613635
O7_6 O 0.19331(17) 0.52948(14) 0.8086(2)
C2_10 C 0.1093(2) 0.7055(2) 0.9728(3)
C10_10 C 0.11622(19) 0.64338(18) 0.9898(2)
C11_10 C 0.17707(17) 0.58193(17) 0.7844(2)
C12_10 C 0.15189(17) 0.62606(17) 0.8489(2)
C13_10 C 0.13855(17) 0.60341(18) 0.9291(2)
H6_10 H 0.1447 0.5617 0.9415
C14_10 C 0.1428(2) 0.6885(2) 0.8312(3)
H7_10 H 0.1504 0.7037 0.7775
C16_10 C 0.1227(3) 0.7276(2) 0.8936(3)
H9_7 H 0.1179 0.7697 0.8823
C1_10 C 0.92686(17) 0.53235(19) 0.2936(2)
C6_10 C 0.99481(17) 0.53501(17) 0.2745(2)
H8_10 H 0.9856 0.5528 0.1502
O13_7 O 0.69331(17) 0.02948(14) 0.3086(2)
O1_11 O 0.74322(13) 0.88189(12) 0.20872(15)
O2_11 O 0.63656(18) 0.82838(17) 0.3168(3)
O4_7 O 0.71759(15) 0.95507(13) 0.1185(2)
C1_11 C 0.71765(19) 0.67686(17) 0.0436(2)
C3_11 C 0.72731(16) 0.89970(16) 0.1361(2)
C4_11 C 0.72085(16) 0.85171(17) 0.0689(2)
C5_11 C 0.72394(18) 0.78881(17) 0.0876(2)
H2_11 H 0.7320 0.7760 0.1423
C6_11 C 0.71499(17) 0.74481(17) 0.0245(2)
O10_7 O 0.79493(13) 0.96759(15) 0.3685(2)
O11_3 O 0.64936(14) 0.93271(15) 0.46009(16)
H10_11 H 0.614017 0.829493 0.262367
H11_11 H 0.606168 0.826006 0.363635
O7_7 O 0.72052(14) 0.94331(17) 0.5586(2)
O8_11 O 0.62543(13) 0.84941(17) 0.81937(17)
C2_11 C 0.5445(2) 0.8593(2) 0.7228(3)
H1_11 H 0.5175 0.8457 0.7645
C7_11 C 0.71007(17) 0.87055(17) 0.9865(2)
H3_11 H 0.7083 0.9127 0.9740
C8_11 C 0.70195(18) 0.82765(19) 0.9230(2)
C9_11 C 0.69088(19) 0.8494(2) 0.8348(2)
H4_11 H 0.7116 0.8219 0.7954
H5_11 H 0.7075 0.8909 0.8275
C10_11 C 0.60662(18) 0.86622(19) 0.7398(2)
C11_11 C 0.66807(17) 0.92707(17) 0.5344(2)
C12_11 C 0.62394(17) 0.90189(17) 0.5989(2)
C13_11 C 0.64659(18) 0.88855(17) 0.6791(2)
H6_11 H 0.6883 0.8947 0.6915
C14_11 C 0.5615(2) 0.8928(2) 0.5812(3)
H7_11 H 0.5463 0.9004 0.5275
C15_11 C 0.70368(19) 0.76479(19) 0.9424(2)
H8_11 H 0.6972 0.7356 0.9002
C16_11 C 0.5224(2) 0.8727(3) 0.6436(3)
H9_8 H 0.4803 0.8679 0.6323
O2_12 O 0.42162(17) 0.38656(18) 0.0668(3)
O10_8 O 0.28241(15) 0.54493(13) 0.1185(2)
O11_4 O 0.31729(15) 0.39936(14) 0.21009(16)
O13_8 O 0.22052(14) 0.44331(17) 0.0586(2)
H10_12 H 0.420507 0.364017 0.0123668
H11_12 H 0.423994 0.356168 0.113635
O1_12 O 0.36811(12) 0.49322(13) 0.95872(15)
O4_8 O 0.29493(13) 0.46759(15) 0.8685(2)
O7_8 O 0.30669(17) 0.47052(14) 0.3086(2)
O8_12 O 0.40059(17) 0.37543(13) 0.56937(17)
C1_12 C 0.57314(17) 0.46765(19) 0.7936(2)
C2_12 C 0.3907(2) 0.2945(2) 0.4728(3)
H1_12 H 0.4043 0.2675 0.5145
C3_12 C 0.35030(16) 0.47731(16) 0.8861(2)
C4_12 C 0.39829(17) 0.47085(16) 0.8189(2)
C5_12 C 0.46119(17) 0.47394(18) 0.8376(2)
H2_12 H 0.4740 0.4820 0.8923
C6_12 C 0.50519(17) 0.46499(17) 0.7745(2)
C7_12 C 0.37945(17) 0.46007(17) 0.7365(2)
H3_12 H 0.3373 0.4583 0.7240
C8_12 C 0.42235(19) 0.45195(18) 0.6730(2)
C9_12 C 0.4006(2) 0.44088(19) 0.5848(2)
H4_12 H 0.4281 0.4616 0.5454
H5_12 H 0.3591 0.4575 0.5775
C10_12 C 0.38378(19) 0.35662(18) 0.4898(2)
C11_12 C 0.32293(17) 0.41807(17) 0.2844(2)
C12_12 C 0.34811(17) 0.37394(17) 0.3489(2)
C13_12 C 0.36145(17) 0.39659(18) 0.4291(2)
H6_12 H 0.3553 0.4383 0.4415
C14_12 C 0.3572(2) 0.3115(2) 0.3312(3)
H7_12 H 0.3496 0.2963 0.2775
C15_12 C 0.48521(19) 0.45368(19) 0.6924(2)
H8_12 H 0.5144 0.4472 0.6502
C16_12 C 0.3773(3) 0.2724(2) 0.3936(3)
H9_9 H 0.3821 0.2303 0.3823
O1_13 O 0.25678(13) 0.61811(12) 0.20872(15)
O2_13 O 0.36344(18) 0.67162(17) 0.3168(3)
C1_13 C 0.28235(19) 0.82314(17) 0.0436(2)
C3_13 C 0.27269(16) 0.60030(16) 0.1361(2)
C4_13 C 0.27915(16) 0.64829(17) 0.0689(2)
C5_13 C 0.27606(18) 0.71119(17) 0.0876(2)
H2_13 H 0.2680 0.7240 0.1423
C6_13 C 0.28501(17) 0.75519(17) 0.0245(2)
O11_5 O 0.35064(14) 0.56729(15) 0.46009(16)
H10_13 H 0.385983 0.670507 0.262367
H11_13 H 0.393832 0.673994 0.363635
O8_13 O 0.37457(13) 0.65059(17) 0.81937(17)
C2_13 C 0.4555(2) 0.6407(2) 0.7228(3)
H1_13 H 0.4825 0.6543 0.7645
C7_13 C 0.28993(17) 0.62945(17) 0.9865(2)
H3_13 H 0.2917 0.5873 0.9740
C8_13 C 0.29805(18) 0.67235(19) 0.9230(2)
C9_13 C 0.30912(19) 0.6506(2) 0.8348(2)
H4_13 H 0.2884 0.6781 0.7954
H5_13 H 0.2925 0.6091 0.8275
C10_13 C 0.39338(18) 0.63378(19) 0.7398(2)
C11_13 C 0.33193(17) 0.57293(17) 0.5344(2)
C12_13 C 0.37606(17) 0.59811(17) 0.5989(2)
C13_13 C 0.35341(18) 0.61145(17) 0.6791(2)
H6_13 H 0.3117 0.6053 0.6915
C14_13 C 0.4385(2) 0.6072(2) 0.5812(3)
H7_13 H 0.4537 0.5996 0.5275
C15_13 C 0.29632(19) 0.73521(19) 0.9424(2)
H8_13 H 0.3028 0.7644 0.9002
C16_13 C 0.4776(2) 0.6273(3) 0.6436(3)
H9_10 H 0.5197 0.6321 0.6323
O2_14 O 0.57838(17) 0.11344(18) 0.0668(3)
O11_6 O 0.68271(15) 0.10064(14) 0.21009(16)
H10_14 H 0.579493 0.135983 0.0123668
H11_14 H 0.576006 0.143832 0.113635
O1_14 O 0.63189(12) 0.00678(13) 0.95872(15)
O8_14 O 0.59941(17) 0.12457(13) 0.56937(17)
C1_14 C 0.42686(17) 0.03235(19) 0.7936(2)
C2_14 C 0.6093(2) 0.2055(2) 0.4728(3)
H1_14 H 0.5957 0.2325 0.5145
C3_14 C 0.64970(16) 0.02269(16) 0.8861(2)
C4_14 C 0.60171(17) 0.02915(16) 0.8189(2)
C5_14 C 0.53881(17) 0.02606(18) 0.8376(2)
H2_14 H 0.5260 0.0180 0.8923
C6_14 C 0.49481(17) 0.03501(17) 0.7745(2)
C7_14 C 0.62055(17) 0.03993(17) 0.7365(2)
H3_14 H 0.6627 0.0417 0.7240
C8_14 C 0.57765(19) 0.04805(18) 0.6730(2)
C9_14 C 0.5994(2) 0.05912(19) 0.5848(2)
H4_14 H 0.5719 0.0384 0.5454
H5_14 H 0.6409 0.0425 0.5775
C10_14 C 0.61622(19) 0.14338(18) 0.4898(2)
C11_14 C 0.67707(17) 0.08193(17) 0.2844(2)
C12_14 C 0.65189(17) 0.12606(17) 0.3489(2)
C13_14 C 0.63855(17) 0.10341(18) 0.4291(2)
H6_14 H 0.6447 0.0617 0.4415
C14_14 C 0.6428(2) 0.1885(2) 0.3312(3)
H7_14 H 0.6504 0.2037 0.2775
C15_14 C 0.51479(19) 0.04632(19) 0.6924(2)
H8_14 H 0.4856 0.0528 0.6502
C16_14 C 0.6227(3) 0.2276(2) 0.3936(3)
H9_11 H 0.6179 0.2697 0.3823
O1_15 O 0.24322(13) 0.38189(12) 0.70872(15)
O2_15 O 0.13656(18) 0.32838(17) 0.8168(3)
O8_15 O 0.12543(13) 0.34941(17) 0.31937(17)
C1_15 C 0.21765(19) 0.17686(17) 0.5436(2)
C2_15 C 0.0445(2) 0.3593(2) 0.2228(3)
H1_15 H 0.0175 0.3457 0.2645
C3_15 C 0.22731(16) 0.39970(16) 0.6361(2)
C4_15 C 0.22085(16) 0.35171(17) 0.5689(2)
C5_15 C 0.22394(18) 0.28881(17) 0.5876(2)
H2_15 H 0.2320 0.2760 0.6423
C6_15 C 0.21499(17) 0.24481(17) 0.5245(2)
C7_15 C 0.21007(17) 0.37055(17) 0.4865(2)
H3_15 H 0.2083 0.4127 0.4740
C8_15 C 0.20195(18) 0.32765(19) 0.4230(2)
C9_15 C 0.19088(19) 0.3494(2) 0.3348(2)
H4_15 H 0.2116 0.3219 0.2954
H5_15 H 0.2075 0.3909 0.3275
C10_15 C 0.10662(18) 0.36622(19) 0.2398(2)
C11_15 C 0.16807(17) 0.42707(17) 0.0344(2)
C12_15 C 0.12394(17) 0.40189(17) 0.0989(2)
C13_15 C 0.14659(18) 0.38855(17) 0.1791(2)
H6_15 H 0.1883 0.3947 0.1915
C14_15 C 0.0615(2) 0.3928(2) 0.0812(3)
H7_15 H 0.0463 0.4004 0.0275
C15_15 C 0.20368(19) 0.26479(19) 0.4424(2)
H8_15 H 0.1972 0.2356 0.4002
C16_15 C 0.0224(2) 0.3727(3) 0.1436(3)
O11_7 O 0.14936(14) 0.43271(15) 0.96009(16)
H10_15 H 0.114017 0.329493 0.762367
H11_15 H 0.106168 0.326006 0.863635
C1_16 C 0.07314(17) 0.96765(19) 0.2936(2)
C6_16 C 0.00519(17) 0.96499(17) 0.2745(2)
H8_16 H 0.0144 0.9472 0.1502
O1_16 O 0.86811(12) 0.99322(13) 0.45872(15)
O2_16 O 0.92162(17) 0.88656(18) 0.5668(3)
O8_16 O 0.90059(17) 0.87543(13) 0.06937(17)
H1_16 H 0.9043 0.7675 0.0145
C3_16 C 0.85030(16) 0.97731(16) 0.3861(2)
C4_16 C 0.89829(17) 0.97085(16) 0.3189(2)
C5_16 C 0.96119(17) 0.97394(18) 0.3376(2)
H2_16 H 0.9740 0.9820 0.3923
C7_16 C 0.87945(17) 0.96007(17) 0.2365(2)
H3_16 H 0.8373 0.9583 0.2240
C8_16 C 0.92235(19) 0.95195(18) 0.1730(2)
C9_16 C 0.9006(2) 0.94088(19) 0.0848(2)
H4_16 H 0.9281 0.9616 0.0454
H5_16 H 0.8591 0.9575 0.0775
C15_16 C 0.98521(19) 0.95368(19) 0.1924(2)
O11_8 O 0.81729(15) 0.89936(14) 0.71009(16)
H10_16 H 0.920507 0.864017 0.512367
H11_16 H 0.923994 0.856168 0.613635
C2_16 C 0.8907(2) 0.7945(2) 0.9728(3)
C10_16 C 0.88378(19) 0.85662(18) 0.9898(2)
C11_16 C 0.82293(17) 0.91807(17) 0.7844(2)
C12_16 C 0.84811(17) 0.87394(17) 0.8489(2)
C13_16 C 0.86145(17) 0.89659(18) 0.9291(2)
H6_16 H 0.8553 0.9383 0.9415
C14_16 C 0.8572(2) 0.8115(2) 0.8312(3)
H7_16 H 0.8496 0.7963 0.7775
C16_16 C 0.8773(3) 0.7724(2) 0.8936(3)
H9_12 H 0.8821 0.7303 0.8823
H9_13 H 0.9803 0.8679 0.8677
H9_14 H 0.0197 0.6321 0.8677
H9_15 H 0.0197 0.1321 0.1323
H9_16 H 0.9803 0.3679 0.1323
loop_
_geom_bond_atom_site_label_1
_geom_bond_atom_site_label_2
_geom_bond_site_symmetry_1
_geom_bond_site_symmetry_2
Eu2 O5 1_555 1_555
Eu2 O1 1_555 1_555
O1 C3 1_555 1_555
O2 Eu2 1_555 1_555
O3 C1 1_555 1_555
O4 C3 1_555 1_555
O6 C1 1_555 1_555
O7 C11 1_555 1_555
O8 C9 1_555 1_555
C1 C6 1_555 1_555
C2 H1 1_555 1_555
C3 C4 1_555 1_555
C4 C5 1_555 1_555
C5 H2 1_555 1_555
C6 C5 1_555 1_555
C7 C4 1_555 1_555
H3 C7 1_555 1_555
C8 C7 1_555 1_555
C9 C8 1_555 1_555
H4 C9 1_555 1_555
H5 C9 1_555 1_555
C10 O8 1_555 1_555
C11 C12 1_555 1_555
C12 C13 1_555 1_555
C13 C10 1_555 1_555
H6 C13 1_555 1_555
C14 C12 1_555 1_555
H7 C14 1_555 1_555
C15 C6 1_555 1_555
H8 C15 1_555 1_555
C16 C2 1_555 1_555
Eu3 O7 1_555 1_555
Eu5 O6 1_555 1_555
Eu6 O3 1_555 1_555
O9 Eu2 1_555 1_555
O10 Eu2 1_555 1_555
O12 Eu2 1_555 1_555
C2 C10 1_555 1_555
C8 C15 1_555 1_555
C14 C16 1_555 1_555
O2 H10 1_555 1_555
O2 H11 1_555 1_555
O3_2 C1_2 1_555 1_555
O6_2 C1_2 1_555 1_555
C1_2 C6_2 1_555 1_555
Eu5_2 O6_2 1_555 1_555
Eu5 O3_2 1_555 1_555
O5_2 C11_2 1_555 1_555
O7_2 C11_2 1_555 1_555
C11_2 C12_2 1_555 1_555
C12_2 C13_2 1_555 1_555
C13_2 C10_2 1_555 1_555
H6_2 C13_2 1_555 1_555
C14_2 C12_2 1_555 1_555
H7_2 C14_2 1_555 1_555
C16_2 C2_2 1_555 1_555
H9 C16_2 1_555 1_555
Eu2_2 O5_2 1_555 1_555
Eu3_2 O7_2 1_555 1_555
C2_2 C10_2 1_555 1_555
C14_2 C16_2 1_555 1_555
Eu2_2 O1_2 1_555 1_555
O1_2 C3_2 1_555 1_555
O2_2 Eu2_2 1_555 1_555
O4_2 C3_2 1_555 1_555
O8_2 C9_2 1_555 1_555
C3_2 C4_2 1_555 1_555
C4_2 C5_2 1_555 1_555
C5_2 H2_2 1_555 1_555
C7_2 C4_2 1_555 1_555
H3_2 C7_2 1_555 1_555
C8_2 C7_2 1_555 1_555
C9_2 C8_2 1_555 1_555
H4_2 C9_2 1_555 1_555
H5_2 C9_2 1_555 1_555
Eu4_2 O4_2 1_555 1_555
O9_2 Eu2_2 1_555 1_555
O10_2 Eu2_2 1_555 1_555
O12_2 Eu2_2 1_555 1_555
O13_2 Eu2_2 1_555 1_555
C8_2 C15_2 1_555 1_555
O2_2 H10_2 1_555 1_555
O2_2 H11_2 1_555 1_555
O5_3 C11_3 1_555 1_555
O7_3 C11_3 1_555 1_555
O8_3 C9_3 1_555 1_555
C2_3 H1_3 1_555 1_555
H3_3 C7_3 1_555 1_555
C8_3 C7_3 1_555 1_555
C9_3 C8_3 1_555 1_555
H4_3 C9_3 1_555 1_555
H5_3 C9_3 1_555 1_555
C10_3 O8_3 1_555 1_555
C11_3 C12_3 1_555 1_555
C12_3 C13_3 1_555 1_555
C13_3 C10_3 1_555 1_555
H6_3 C13_3 1_555 1_555
C14_3 C12_3 1_555 1_555
H7_3 C14_3 1_555 1_555
H8_3 C15_3 1_555 1_555
C16_3 C2_3 1_555 1_555
H9_2 C16_3 1_555 1_555
Eu2_3 O5_3 1_555 1_555
Eu4 O7_3 1_555 1_555
Eu5_3 O6_3 1_555 1_555
C2_3 C10_3 1_555 1_555
C8_3 C15_3 1_555 1_555
C14_3 C16_3 1_555 1_555
Eu2_3 O1_3 1_555 1_555
O1_3 C3_3 1_555 1_555
O2_3 Eu2_3 1_555 1_555
O3_3 C1_3 1_555 1_555
O4_3 C3_3 1_555 1_555
C1_3 C6_3 1_555 1_555
C3_3 C4_3 1_555 1_555
C4_3 C5_3 1_555 1_555
C5_3 H2_3 1_555 1_555
C6_3 C5_3 1_555 1_555
Eu5_2 O3_3 1_555 1_555
O9_3 Eu2_3 1_555 1_555
O10_3 Eu2_3 1_555 1_555
O12_3 Eu2_3 1_555 1_555
O2_3 H10_3 1_555 1_555
O2_3 H11_3 1_555 1_555
O1_4 C3_4 1_555 1_555
O3_4 C1_4 1_555 1_555
O4_4 C3_4 1_555 1_555
O5_4 C11_4 1_555 1_555
O6_4 C1_4 1_555 1_555
O7_4 C11_4 1_555 1_555
O8_4 C9_4 1_555 1_555
C1_4 C6_4 1_555 1_555
C2_4 H1_4 1_555 1_555
C3_4 C4_4 1_555 1_555
C4_4 C5_4 1_555 1_555
C5_4 H2_4 1_555 1_555
C6_4 C5_4 1_555 1_555
C7_4 C4_4 1_555 1_555
H3_4 C7_4 1_555 1_555
C8_4 C7_4 1_555 1_555
C9_4 C8_4 1_555 1_555
H4_4 C9_4 1_555 1_555
H5_4 C9_4 1_555 1_555
C10_4 O8_4 1_555 1_555
C11_4 C12_4 1_555 1_555
C12_4 C13_4 1_555 1_555
C13_4 C10_4 1_555 1_555
H6_4 C13_4 1_555 1_555
C14_4 C12_4 1_555 1_555
H7_4 C14_4 1_555 1_555
C15_4 C6_4 1_555 1_555
H8_4 C15_4 1_555 1_555
C16_4 C2_4 1_555 1_555
H9_3 C16_4 1_555 1_555
Eu2_4 O5_4 1_555 1_555
Eu4_2 O7_4 1_555 1_555
Eu3_2 O4_4 1_555 1_555
Eu6 O6_4 1_555 1_555
Eu5_3 O3_4 1_555 1_555
C2_4 C10_4 1_555 1_555
C8_4 C15_4 1_555 1_555
C14_4 C16_4 1_555 1_555
O2_4 Eu2_4 1_555 1_555
O9_4 Eu2_4 1_555 1_555
O10_4 Eu2_4 1_555 1_555
O12_4 Eu2_4 1_555 1_555
O13_4 Eu2_4 1_555 1_555
O2_4 H10_4 1_555 1_555
O2_4 H11_4 1_555 1_555
O5_5 C11_5 1_555 1_555
O13_2 C11_5 1_555 1_555
O8_5 C9_5 1_555 1_555
C2_5 H1_5 1_555 1_555
H3_5 C7_5 1_555 1_555
C8_5 C7_5 1_555 1_555
C9_5 C8_5 1_555 1_555
H4_5 C9_5 1_555 1_555
H5_5 C9_5 1_555 1_555
C10_5 O8_5 1_555 1_555
C11_5 C12_5 1_555 1_555
C12_5 C13_5 1_555 1_555
C13_5 C10_5 1_555 1_555
H6_5 C13_5 1_555 1_555
C14_5 C12_5 1_555 1_555
H7_5 C14_5 1_555 1_555
H8_5 C15_5 1_555 1_555
C16_5 C2_5 1_555 1_555
H9_4 C16_5 1_555 1_555
Eu4_2 O5_5 1_555 1_555
Eu5_4 O6_5 1_555 1_555
C2_5 C10_5 1_555 1_555
C8_5 C15_5 1_555 1_555
C14_5 C16_5 1_555 1_555
Eu4_2 O1_5 1_555 1_555
O1_5 C3_5 1_555 1_555
O2_5 Eu4_2 1_555 1_555
O3_5 C1_5 1_555 1_555
O10_4 C3_5 1_555 1_555
C1_5 C6_5 1_555 1_555
C3_5 C4_5 1_555 1_555
C4_5 C5_5 1_555 1_555
C5_5 H2_5 1_555 1_555
C6_5 C5_5 1_555 1_555
Eu6_2 O3_5 1_555 1_555
O9_5 Eu4_2 1_555 1_555
O12_5 Eu4_2 1_555 1_555
O2_5 H10_5 1_555 1_555
O2_5 H11_5 1_555 1_555
O1_6 C3_6 1_555 1_555
O3_6 C1_6 1_555 1_555
O10 C3_6 1_555 1_555
O5_6 C11_6 1_555 1_555
O6_6 C1_6 1_555 1_555
O13_3 C11_6 1_555 1_555
O8_6 C9_6 1_555 1_555
C1_6 C6_6 1_555 1_555
C2_6 H1_6 1_555 1_555
C3_6 C4_6 1_555 1_555
C4_6 C5_6 1_555 1_555
C5_6 H2_6 1_555 1_555
C6_6 C5_6 1_555 1_555
C7_6 C4_6 1_555 1_555
H3_6 C7_6 1_555 1_555
C8_6 C7_6 1_555 1_555
C9_6 C8_6 1_555 1_555
H4_6 C9_6 1_555 1_555
H5_6 C9_6 1_555 1_555
C10_6 O8_6 1_555 1_555
C11_6 C12_6 1_555 1_555
C12_6 C13_6 1_555 1_555
C13_6 C10_6 1_555 1_555
H6_6 C13_6 1_555 1_555
C14_6 C12_6 1_555 1_555
H7_6 C14_6 1_555 1_555
C15_6 C6_6 1_555 1_555
H8_6 C15_6 1_555 1_555
C16_6 C2_6 1_555 1_555
H9_5 C16_6 1_555 1_555
Eu3 O5_6 1_555 1_555
Eu5_5 O6_6 1_555 1_555
C2_6 C10_6 1_555 1_555
C8_6 C15_6 1_555 1_555
C14_6 C16_6 1_555 1_555
O2_6 Eu3 1_555 1_555
O12_6 Eu3 1_555 1_555
O2_6 H10_6 1_555 1_555
O2_6 H11_6 1_555 1_555
Eu3_2 O5_7 1_555 1_555
Eu3_2 O1_7 1_555 1_555
O1_7 C3_7 1_555 1_555
O2_7 Eu3_2 1_555 1_555
O3_7 C1_7 1_555 1_555
O10_2 C3_7 1_555 1_555
O6_7 C1_7 1_555 1_555
O13_4 C11_7 1_555 1_555
O8_7 C9_7 1_555 1_555
C1_7 C6_7 1_555 1_555
C2_7 H1_7 1_555 1_555
C3_7 C4_7 1_555 1_555
C4_7 C5_7 1_555 1_555
C5_7 H2_7 1_555 1_555
C6_7 C5_7 1_555 1_555
C7_7 C4_7 1_555 1_555
H3_7 C7_7 1_555 1_555
C8_7 C7_7 1_555 1_555
C9_7 C8_7 1_555 1_555
H4_7 C9_7 1_555 1_555
H5_7 C9_7 1_555 1_555
C10_7 O8_7 1_555 1_555
C11_7 C12_7 1_555 1_555
C12_7 C13_7 1_555 1_555
C13_7 C10_7 1_555 1_555
H6_7 C13_7 1_555 1_555
C14_7 C12_7 1_555 1_555
H7_7 C14_7 1_555 1_555
C15_7 C6_7 1_555 1_555
H8_7 C15_7 1_555 1_555
C16_7 C2_7 1_555 1_555
Eu5_6 O6_7 1_555 1_555
Eu5_5 O3_7 1_555 1_555
O9_7 Eu3_2 1_555 1_555
O12_7 Eu3_2 1_555 1_555
C2_7 C10_7 1_555 1_555
C8_7 C15_7 1_555 1_555
C14_7 C16_7 1_555 1_555
O2_7 H10_7 1_555 1_555
O2_7 H11_7 1_555 1_555
O5_8 C11_8 1_555 1_555
O13 C11_8 1_555 1_555
C11_8 C12_8 1_555 1_555
C12_8 C13_8 1_555 1_555
C13_8 C10_8 1_555 1_555
H6_8 C13_8 1_555 1_555
C14_8 C12_8 1_555 1_555
H7_8 C14_8 1_555 1_555
C16_8 C2_8 1_555 1_555
H9_6 C16_8 1_555 1_555
Eu4 O5_8 1_555 1_555
C2_8 C10_8 1_555 1_555
C14_8 C16_8 1_555 1_555
Eu4 O1_8 1_555 1_555
O1_8 C3_8 1_555 1_555
O2_8 Eu4 1_555 1_555
O10_3 C3_8 1_555 1_555
O8_8 C9_8 1_555 1_555
C3_8 C4_8 1_555 1_555
C4_8 C5_8 1_555 1_555
C5_8 H2_8 1_555 1_555
C7_8 C4_8 1_555 1_555
H3_8 C7_8 1_555 1_555
C8_8 C7_8 1_555 1_555
C9_8 C8_8 1_555 1_555
H4_8 C9_8 1_555 1_555
H5_8 C9_8 1_555 1_555
O12_8 Eu4 1_555 1_555
C8_8 C15_8 1_555 1_555
O2_8 H10_8 1_555 1_555
O2_8 H11_8 1_555 1_555
O3_8 C1_8 1_555 1_555
O6_8 C1_8 1_555 1_555
C1_8 C6_8 1_555 1_555
Eu6_2 O6_8 1_555 1_555
Eu6_2 O1_9 1_555 1_555
O1_9 C3_9 1_555 1_555
O2_9 Eu6_2 1_555 1_555
O9_5 C1_9 1_555 1_555
O4_5 C3_9 1_555 1_555
O12_2 C1_9 1_555 1_555
O7_5 C11_9 1_555 1_555
O8_9 C9_9 1_555 1_555
C1_9 C6_9 1_555 1_555
C2_9 H1_9 1_555 1_555
C3_9 C4_9 1_555 1_555
C4_9 C5_9 1_555 1_555
C5_9 H2_9 1_555 1_555
C6_9 C5_9 1_555 1_555
C7_9 C4_9 1_555 1_555
H3_9 C7_9 1_555 1_555
C8_9 C7_9 1_555 1_555
C9_9 C8_9 1_555 1_555
H4_9 C9_9 1_555 1_555
H5_9 C9_9 1_555 1_555
C10_9 O8_9 1_555 1_555
C11_9 C12_9 1_555 1_555
C12_9 C13_9 1_555 1_555
C13_9 C10_9 1_555 1_555
H6_9 C13_9 1_555 1_555
C14_9 C12_9 1_555 1_555
H7_9 C14_9 1_555 1_555
C15_9 C6_9 1_555 1_555
H8_9 C15_9 1_555 1_555
C16_9 C2_9 1_555 1_555
Eu5_4 O7_5 1_555 1_555
O10_5 Eu6_2 1_555 1_555
O11 Eu6_2 1_555 1_555
C2_9 C10_9 1_555 1_555
C8_9 C15_9 1_555 1_555
C14_9 C16_9 1_555 1_555
O2_9 H10_9 1_555 1_555
O2_9 H11_9 1_555 1_555
Eu5 O1_10 1_555 1_555
O1_10 C3_10 1_555 1_555
O2_10 Eu5 1_555 1_555
O4_6 C3_10 1_555 1_555
O8_10 C9_10 1_555 1_555
C3_10 C4_10 1_555 1_555
C4_10 C5_10 1_555 1_555
C5_10 H2_10 1_555 1_555
C7_10 C4_10 1_555 1_555
H3_10 C7_10 1_555 1_555
C8_10 C7_10 1_555 1_555
C9_10 C8_10 1_555 1_555
H4_10 C9_10 1_555 1_555
H5_10 C9_10 1_555 1_555
Eu6 O4_6 1_555 1_555
O10_6 Eu5 1_555 1_555
O11_2 Eu5 1_555 1_555
O13_6 Eu5 1_555 1_555
C8_10 C15_10 1_555 1_555
O2_10 H10_10 1_555 1_555
O2_10 H11_10 1_555 1_555
O11_2 C11_10 1_555 1_555
O7_6 C11_10 1_555 1_555
C11_10 C12_10 1_555 1_555
C12_10 C13_10 1_555 1_555
C13_10 C10_10 1_555 1_555
H6_10 C13_10 1_555 1_555
C14_10 C12_10 1_555 1_555
H7_10 C14_10 1_555 1_555
C16_10 C2_10 1_555 1_555
H9_7 C16_10 1_555 1_555
Eu5_2 O7_6 1_555 1_555
C2_10 C10_10 1_555 1_555
C14_10 C16_10 1_555 1_555
O9_2 C1_10 1_555 1_555
O12_7 C1_10 1_555 1_555
C1_10 C6_10 1_555 1_555
Eu5_5 O1_11 1_555 1_555
O1_11 C3_11 1_555 1_555
O2_11 Eu5_5 1_555 1_555
O9_7 C1_11 1_555 1_555
O4_7 C3_11 1_555 1_555
C1_11 C6_11 1_555 1_555
C3_11 C4_11 1_555 1_555
C4_11 C5_11 1_555 1_555
C5_11 H2_11 1_555 1_555
C6_11 C5_11 1_555 1_555
O10_7 Eu5_5 1_555 1_555
O11_3 Eu5_5 1_555 1_555
O2_11 H10_11 1_555 1_555
O2_11 H11_11 1_555 1_555
O11_3 C11_11 1_555 1_555
O7_7 C11_11 1_555 1_555
O8_11 C9_11 1_555 1_555
C2_11 H1_11 1_555 1_555
H3_11 C7_11 1_555 1_555
C8_11 C7_11 1_555 1_555
C9_11 C8_11 1_555 1_555
H4_11 C9_11 1_555 1_555
H5_11 C9_11 1_555 1_555
C10_11 O8_11 1_555 1_555
C11_11 C12_11 1_555 1_555
C12_11 C13_11 1_555 1_555
C13_11 C10_11 1_555 1_555
H6_11 C13_11 1_555 1_555
C14_11 C12_11 1_555 1_555
H7_11 C14_11 1_555 1_555
H8_11 C15_11 1_555 1_555
C16_11 C2_11 1_555 1_555
H9_8 C16_11 1_555 1_555
Eu5_6 O7_7 1_555 1_555
C2_11 C10_11 1_555 1_555
C8_11 C15_11 1_555 1_555
C14_11 C16_11 1_555 1_555
O2_12 Eu5_3 1_555 1_555
O10_8 Eu5_3 1_555 1_555
O11_4 Eu5_3 1_555 1_555
O13_8 Eu5_3 1_555 1_555
O2_12 H10_12 1_555 1_555
O2_12 H11_12 1_555 1_555
O1_12 C3_12 1_555 1_555
O9_4 C1_12 1_555 1_555
O4_8 C3_12 1_555 1_555
O11_4 C11_12 1_555 1_555
O12_5 C1_12 1_555 1_555
O7_8 C11_12 1_555 1_555
O8_12 C9_12 1_555 1_555
C1_12 C6_12 1_555 1_555
C2_12 H1_12 1_555 1_555
C3_12 C4_12 1_555 1_555
C4_12 C5_12 1_555 1_555
C5_12 H2_12 1_555 1_555
C6_12 C5_12 1_555 1_555
C7_12 C4_12 1_555 1_555
H3_12 C7_12 1_555 1_555
C8_12 C7_12 1_555 1_555
C9_12 C8_12 1_555 1_555
H4_12 C9_12 1_555 1_555
H5_12 C9_12 1_555 1_555
C10_12 O8_12 1_555 1_555
C11_12 C12_12 1_555 1_555
C12_12 C13_12 1_555 1_555
C13_12 C10_12 1_555 1_555
H6_12 C13_12 1_555 1_555
C14_12 C12_12 1_555 1_555
H7_12 C14_12 1_555 1_555
C15_12 C6_12 1_555 1_555
H8_12 C15_12 1_555 1_555
C16_12 C2_12 1_555 1_555
H9_9 C16_12 1_555 1_555
Eu6 O7_8 1_555 1_555
Eu5_2 O4_8 1_555 1_555
C2_12 C10_12 1_555 1_555
C8_12 C15_12 1_555 1_555
C14_12 C16_12 1_555 1_555
Eu6 O1_13 1_555 1_555
O1_13 C3_13 1_555 1_555
O2_13 Eu6 1_555 1_555
O9 C1_13 1_555 1_555
O10_8 C3_13 1_555 1_555
C1_13 C6_13 1_555 1_555
C3_13 C4_13 1_555 1_555
C4_13 C5_13 1_555 1_555
C5_13 H2_13 1_555 1_555
C6_13 C5_13 1_555 1_555
O11_5 Eu6 1_555 1_555
O2_13 H10_13 1_555 1_555
O2_13 H11_13 1_555 1_555
O11_5 C11_13 1_555 1_555
O13_6 C11_13 1_555 1_555
O8_13 C9_13 1_555 1_555
C2_13 H1_13 1_555 1_555
H3_13 C7_13 1_555 1_555
C8_13 C7_13 1_555 1_555
C9_13 C8_13 1_555 1_555
H4_13 C9_13 1_555 1_555
H5_13 C9_13 1_555 1_555
C10_13 O8_13 1_555 1_555
C11_13 C12_13 1_555 1_555
C12_13 C13_13 1_555 1_555
C13_13 C10_13 1_555 1_555
H6_13 C13_13 1_555 1_555
C14_13 C12_13 1_555 1_555
H7_13 C14_13 1_555 1_555
H8_13 C15_13 1_555 1_555
C16_13 C2_13 1_555 1_555
H9_10 C16_13 1_555 1_555
C2_13 C10_13 1_555 1_555
C8_13 C15_13 1_555 1_555
C14_13 C16_13 1_555 1_555
O2_14 Eu5_4 1_555 1_555
O11_6 Eu5_4 1_555 1_555
O2_14 H10_14 1_555 1_555
O2_14 H11_14 1_555 1_555
O1_14 C3_14 1_555 1_555
O9_6 C1_14 1_555 1_555
O10_5 C3_14 1_555 1_555
O11_6 C11_14 1_555 1_555
O12_3 C1_14 1_555 1_555
O13_7 C11_14 1_555 1_555
O8_14 C9_14 1_555 1_555
C1_14 C6_14 1_555 1_555
C2_14 H1_14 1_555 1_555
C3_14 C4_14 1_555 1_555
C4_14 C5_14 1_555 1_555
C5_14 H2_14 1_555 1_555
C6_14 C5_14 1_555 1_555
C7_14 C4_14 1_555 1_555
H3_14 C7_14 1_555 1_555
C8_14 C7_14 1_555 1_555
C9_14 C8_14 1_555 1_555
H4_14 C9_14 1_555 1_555
H5_14 C9_14 1_555 1_555
C10_14 O8_14 1_555 1_555
C11_14 C12_14 1_555 1_555
C12_14 C13_14 1_555 1_555
C13_14 C10_14 1_555 1_555
H6_14 C13_14 1_555 1_555
C14_14 C12_14 1_555 1_555
H7_14 C14_14 1_555 1_555
C15_14 C6_14 1_555 1_555
H8_14 C15_14 1_555 1_555
C16_14 C2_14 1_555 1_555
H9_11 C16_14 1_555 1_555
C2_14 C10_14 1_555 1_555
C8_14 C15_14 1_555 1_555
C14_14 C16_14 1_555 1_555
Eu5_2 O1_15 1_555 1_555
O1_15 C3_15 1_555 1_555
O2_15 Eu5_2 1_555 1_555
O9_3 C1_15 1_555 1_555
O10_6 C3_15 1_555 1_555
O12_8 C1_15 1_555 1_555
O13_8 C11_15 1_555 1_555
O8_15 C9_15 1_555 1_555
C1_15 C6_15 1_555 1_555
C2_15 H1_15 1_555 1_555
C3_15 C4_15 1_555 1_555
C4_15 C5_15 1_555 1_555
C5_15 H2_15 1_555 1_555
C6_15 C5_15 1_555 1_555
C7_15 C4_15 1_555 1_555
H3_15 C7_15 1_555 1_555
C8_15 C7_15 1_555 1_555
C9_15 C8_15 1_555 1_555
H4_15 C9_15 1_555 1_555
H5_15 C9_15 1_555 1_555
C10_15 O8_15 1_555 1_555
C11_15 C12_15 1_555 1_555
C12_15 C13_15 1_555 1_555
C13_15 C10_15 1_555 1_555
H6_15 C13_15 1_555 1_555
C14_15 C12_15 1_555 1_555
H7_15 C14_15 1_555 1_555
C15_15 C6_15 1_555 1_555
H8_15 C15_15 1_555 1_555
C16_15 C2_15 1_555 1_555
O11_7 Eu5_2 1_555 1_555
C2_15 C10_15 1_555 1_555
C8_15 C15_15 1_555 1_555
C14_15 C16_15 1_555 1_555
O2_15 H10_15 1_555 1_555
O2_15 H11_15 1_555 1_555
O9_8 C1_16 1_555 1_555
O12 C1_16 1_555 1_555
C1_16 C6_16 1_555 1_555
Eu5_6 O1_16 1_555 1_555
O1_16 C3_16 1_555 1_555
O2_16 Eu5_6 1_555 1_555
O10_7 C3_16 1_555 1_555
O8_16 C9_16 1_555 1_555
C3_16 C4_16 1_555 1_555
C4_16 C5_16 1_555 1_555
C5_16 H2_16 1_555 1_555
C7_16 C4_16 1_555 1_555
H3_16 C7_16 1_555 1_555
C8_16 C7_16 1_555 1_555
C9_16 C8_16 1_555 1_555
H4_16 C9_16 1_555 1_555
H5_16 C9_16 1_555 1_555
O11_8 Eu5_6 1_555 1_555
C8_16 C15_16 1_555 1_555
O2_16 H10_16 1_555 1_555
O2_16 H11_16 1_555 1_555
O11_8 C11_16 1_555 1_555
O13_5 C11_16 1_555 1_555
C11_16 C12_16 1_555 1_555
C12_16 C13_16 1_555 1_555
C13_16 C10_16 1_555 1_555
H6_16 C13_16 1_555 1_555
C14_16 C12_16 1_555 1_555
H7_16 C14_16 1_555 1_555
C16_16 C2_16 1_555 1_555
H9_12 C16_16 1_555 1_555
C2_16 C10_16 1_555 1_555
C14_16 C16_16 1_555 1_555

#END
