
###############################################################################
#
# This file contains modified crystal structure data generated from the
# MOF subset of the Cambridge Structural Database (CSD) v543 
# hosted by the Cambridge Crystallographic Data Centre (CCDC).
#
# This work is licensed under the Creative Commons
# Attribution-NonCommercial-ShareAlike 4.0 International License.
# To view a copy of this license, visit
# http://creativecommons.org/licenses/by-nc-sa/4.0/
# or send a letter to
# Creative Commons, PO Box 1866, Mountain View, CA 94042, USA.
#
# CIF created using the CSD Python API on 29 September 2022
# The structure has been converted into the P1 space group
# The structure has a 3D framework
# The original CSD entry VIQQUJ is in the orthorhombic crystal system
# The framework has been calculated to contain at least 10.0% void space
# The void calculation uses a probe of radius 1.32A, grid spacing 0.4
#
###############################################################################

data_VIQQUJ
_chemical_formula_moiety         '(C136 H120 N24 Ni4 O48)n'
_symmetry_cell_setting           triclinic
_symmetry_space_group_name_H-M   'P 1'
_symmetry_Int_Tables_number      1
_space_group_name_Hall           'P 1'
loop_
_symmetry_equiv_pos_site_id
_symmetry_equiv_pos_as_xyz
1 x,y,z
_cell_length_a                   18.707(3)
_cell_length_b                   10.1820(14)
_cell_length_c                   20.353(3)
_cell_angle_alpha                90
_cell_angle_beta                 90
_cell_angle_gamma                90
_cell_volume                     3876.73
loop_
_atom_site_label
_atom_site_type_symbol
_atom_site_fract_x
_atom_site_fract_y
_atom_site_fract_z
Ni2 Ni 0.049177(18) 0.83672(3) 0.051426(16)
H2 H 0.6975 0.0337 0.3346
C8 C 0.58766(15) 0.1081(3) 0.40525(13)
H4 H 0.9241 0.0272 0.0904
H5 H 0.8234 0.0393 0.1565
C16 C 0.33397(17) 0.0516(3) 0.42140(16)
H11 H 0.3443 0.1146 0.4552
H12 H 0.2922 0.0788 0.3976
H13 H 0.3738 0.0458 0.3918
O3 O 0.53322(10) 0.11926(19) 0.44064(8)
O4 O 0.61750(10) 0.20601(18) 0.38105(8)
Ni4 Ni 0.549177(18) 0.33672(3) 0.448574(16)
C1 C 0.57841(15) 0.6224(3) 0.43932(13)
C2 C 0.61453(15) 0.7404(3) 0.41151(13)
C3 C 0.58594(15) 0.8645(3) 0.42217(14)
H1 H 0.5461 0.8743 0.4490
C4 C 0.61630(15) 0.9727(3) 0.39322(13)
C5 C 0.67682(16) 0.9599(3) 0.35374(14)
C6 C 0.70610(16) 0.8358(3) 0.34317(14)
C7 C 0.67462(16) 0.7263(3) 0.37109(14)
H3 H 0.6934 0.6432 0.3630
C9 C 0.77333(16) 0.8885(3) 0.24599(14)
C10 C 0.91571(16) 0.9627(3) 0.12178(15)
C11 C 0.85544(15) 0.9703(3) 0.16169(14)
C12 C 0.84305(15) 0.8756(3) 0.20905(14)
C13 C 0.89126(16) 0.7720(3) 0.21630(15)
H6 H 0.8836 0.7078 0.2480
C14 C 0.95082(16) 0.7657(3) 0.17576(15)
H7 H 0.9830 0.6967 0.1805
C15 C 0.25193(17) 0.8943(3) 0.48569(16)
H8 H 0.2537 0.8089 0.5056
H9 H 0.2136 0.8971 0.4544
H10 H 0.2441 0.9595 0.5190
C17 C 0.37601(18) 0.8245(3) 0.45104(15)
H14 H 0.4194 0.8464 0.4316
N1 N 0.76784(13) 0.8227(2) 0.30326(12)
H15 H 0.8021 0.7723 0.3157
N2 N 0.96302(13) 0.8600(3) 0.12865(12)
N3 N 0.32083(14) 0.9212(3) 0.45169(12)
Ni1 Ni 0.450823(18) 0.66328(3) 0.551426(16)
O1 O 0.60166(10) 0.51163(19) 0.42456(10)
O2 O 0.52552(11) 0.63889(19) 0.47548(10)
O5 O 0.72645(11) 0.9547(2) 0.22332(10)
O6 O 0.36963(12) 0.7134(2) 0.47478(10)
N4 N 0.53698(13) 0.6400(3) 0.62865(12)
O7 O 0.39834(10) 0.48837(19) 0.57544(10)
O8 O 0.46678(10) 0.88074(19) 0.55936(8)
O9 O 0.38250(10) 0.79399(18) 0.61895(8)
O7_2 O 0.10166(10) 0.01163(19) 0.07544(10)
H8_2 H 0.2463 0.6911 0.0056
H10_2 H 0.2559 0.5405 0.0190
O8_2 O 0.03322(10) 0.61926(19) 0.05936(8)
O9_2 O 0.11750(10) 0.70601(18) 0.11895(8)
Ni3 Ni 0.950823(18) 0.16328(3) 0.948574(16)
C1_2 C 0.92159(15) 0.8776(3) 0.93932(13)
C2_2 C 0.88547(15) 0.7596(3) 0.91151(13)
C3_2 C 0.91406(15) 0.6355(3) 0.92217(14)
H1_2 H 0.9539 0.6257 0.9490
C4_2 C 0.88370(15) 0.5273(3) 0.89322(13)
C5_2 C 0.82318(16) 0.5401(3) 0.85374(14)
H2_2 H 0.8025 0.4663 0.8346
C6_2 C 0.79390(16) 0.6642(3) 0.84317(14)
C7_2 C 0.82538(16) 0.7737(3) 0.87109(14)
H3_2 H 0.8066 0.8568 0.8630
C8_2 C 0.91234(15) 0.3919(3) 0.90525(13)
C9_2 C 0.72667(16) 0.6115(3) 0.74599(14)
C10_2 C 0.58429(16) 0.5373(3) 0.62178(15)
H4_2 H 0.5759 0.4728 0.5904
C11_2 C 0.64456(15) 0.5297(3) 0.66169(14)
H5_2 H 0.6766 0.4607 0.6565
C12_2 C 0.65695(15) 0.6244(3) 0.70905(14)
C13_2 C 0.60874(16) 0.7280(3) 0.71630(15)
H6_2 H 0.6164 0.7922 0.7480
C14_2 C 0.54918(16) 0.7343(3) 0.67576(15)
H7_2 H 0.5170 0.8033 0.6805
N1_2 N 0.73216(13) 0.6773(2) 0.80326(12)
H15_2 H 0.6979 0.7277 0.8157
O1_2 O 0.89834(10) 0.98837(19) 0.92456(10)
O2_2 O 0.97448(11) 0.86111(19) 0.97548(10)
O3_2 O 0.96678(10) 0.38074(19) 0.94064(8)
O4_2 O 0.88250(10) 0.29399(18) 0.88105(8)
O5_2 O 0.77355(11) 0.5453(2) 0.72332(10)
C1_3 C 0.42159(15) 0.3776(3) 0.56068(13)
C2_3 C 0.38547(15) 0.2596(3) 0.58849(13)
C3_3 C 0.41406(15) 0.1355(3) 0.57783(14)
H1_3 H 0.4539 0.1257 0.5510
C4_3 C 0.38370(15) 0.0273(3) 0.60678(13)
C5_3 C 0.32318(16) 0.0401(3) 0.64626(14)
C6_3 C 0.29390(16) 0.1642(3) 0.65683(14)
C7_3 C 0.32538(16) 0.2737(3) 0.62891(14)
H3_3 H 0.3066 0.3568 0.6370
C9_3 C 0.22667(16) 0.1115(3) 0.75401(14)
C10_3 C 0.08429(16) 0.0373(3) 0.87822(15)
C11_3 C 0.14456(15) 0.0297(3) 0.83831(14)
C12_3 C 0.15695(15) 0.1244(3) 0.79095(14)
C13_3 C 0.10874(16) 0.2280(3) 0.78370(15)
H6_3 H 0.1164 0.2922 0.7520
C14_3 C 0.04918(16) 0.2343(3) 0.82424(15)
H7_3 H 0.0170 0.3033 0.8195
C15_2 C 0.74807(17) 0.1057(3) 0.51431(16)
H8_3 H 0.7463 0.1911 0.4944
H9_2 H 0.7864 0.1029 0.5456
H10_3 H 0.7559 0.0405 0.4810
C17_2 C 0.62399(18) 0.1755(3) 0.54896(15)
H14_2 H 0.5806 0.1536 0.5684
N1_3 N 0.23216(13) 0.1773(2) 0.69674(12)
H15_3 H 0.1979 0.2277 0.6843
N2_2 N 0.03698(13) 0.1400(3) 0.87135(12)
N3_2 N 0.67917(14) 0.0788(3) 0.54831(12)
O2_3 O 0.47448(11) 0.36111(19) 0.52452(10)
O5_3 O 0.27355(11) 0.0453(2) 0.77668(10)
O6_2 O 0.63037(12) 0.2866(2) 0.52522(10)
N4_2 N 0.46302(13) 0.3600(3) 0.37135(12)
H2_3 H 0.3025 0.9663 0.6654
C8_3 C 0.41234(15) 0.8919(3) 0.59475(13)
H4_3 H 0.0759 0.9728 0.9096
H5_3 H 0.1766 0.9607 0.8435
C16_2 C 0.66603(17) 0.9484(3) 0.57860(16)
H11_2 H 0.6557 0.8854 0.5448
H12_2 H 0.7078 0.9212 0.6024
H13_2 H 0.6262 0.9542 0.6082
C1_4 C 0.07841(15) 0.1224(3) 0.06068(13)
C2_4 C 0.11453(15) 0.2404(3) 0.08849(13)
C3_4 C 0.08594(15) 0.3645(3) 0.07783(14)
H1_4 H 0.0461 0.3743 0.0510
C4_4 C 0.11630(15) 0.4727(3) 0.10678(13)
C5_4 C 0.17682(16) 0.4599(3) 0.14626(14)
H2_4 H 0.1975 0.5337 0.1654
C6_4 C 0.20610(16) 0.3358(3) 0.15683(14)
C7_4 C 0.17462(16) 0.2263(3) 0.12891(14)
H3_4 H 0.1934 0.1432 0.1370
C8_4 C 0.08766(15) 0.6081(3) 0.09475(13)
C9_4 C 0.27333(16) 0.3885(3) 0.25401(14)
C10_4 C 0.41571(16) 0.4627(3) 0.37822(15)
H4_4 H 0.4241 0.5272 0.4096
C11_4 C 0.35544(15) 0.4703(3) 0.33831(14)
H5_4 H 0.3234 0.5393 0.3435
C12_4 C 0.34305(15) 0.3756(3) 0.29095(14)
C13_4 C 0.39126(16) 0.2720(3) 0.28370(15)
H6_4 H 0.3836 0.2078 0.2520
C14_4 C 0.45082(16) 0.2657(3) 0.32424(15)
H7_4 H 0.4830 0.1967 0.3195
N1_4 N 0.26784(13) 0.3227(2) 0.19674(12)
H15_4 H 0.3021 0.2723 0.1843
O2_4 O 0.02552(11) 0.13889(19) 0.02452(10)
O5_4 O 0.22645(11) 0.4547(2) 0.27668(10)
H8_4 H 0.7537 0.3089 0.9944
H10_4 H 0.7441 0.4595 0.9810
C15_3 C 0.24807(17) 0.6057(3) 0.98569(16)
H9_3 H 0.2864 0.6029 0.9544
C16_3 C 0.16603(17) 0.4484(3) 0.92140(16)
H11_3 H 0.1557 0.3854 0.9552
H12_3 H 0.2078 0.4212 0.8976
H13_3 H 0.1262 0.4542 0.8918
C17_3 C 0.12399(18) 0.6755(3) 0.95104(15)
H14_3 H 0.0806 0.6536 0.9316
N3_3 N 0.17917(14) 0.5788(3) 0.95169(12)
O6_3 O 0.13037(12) 0.7866(2) 0.97478(10)
H2_5 H 0.3025 0.0337 0.1654
C8_5 C 0.41234(15) 0.1081(3) 0.09475(13)
H4_5 H 0.0759 0.0272 0.4096
H5_5 H 0.1766 0.0393 0.3435
C16_4 C 0.66603(17) 0.0516(3) 0.07860(16)
H11_4 H 0.6557 0.1146 0.0448
H12_4 H 0.7078 0.0788 0.1024
H13_4 H 0.6262 0.0458 0.1082
O3_3 O 0.46678(10) 0.11926(19) 0.05936(8)
O4_3 O 0.38250(10) 0.20601(18) 0.11895(8)
Ni4_2 Ni 0.450823(18) 0.33672(3) 0.051426(16)
C1_5 C 0.42159(15) 0.6224(3) 0.06068(13)
C2_5 C 0.38547(15) 0.7404(3) 0.08849(13)
C3_5 C 0.41406(15) 0.8645(3) 0.07783(14)
H1_5 H 0.4539 0.8743 0.0510
C4_5 C 0.38370(15) 0.9727(3) 0.10678(13)
C5_5 C 0.32318(16) 0.9599(3) 0.14626(14)
C6_5 C 0.29390(16) 0.8358(3) 0.15683(14)
C7_5 C 0.32538(16) 0.7263(3) 0.12891(14)
H3_5 H 0.3066 0.6432 0.1370
C9_5 C 0.22667(16) 0.8885(3) 0.25401(14)
C10_5 C 0.08429(16) 0.9627(3) 0.37822(15)
C11_5 C 0.14456(15) 0.9703(3) 0.33831(14)
C12_5 C 0.15695(15) 0.8756(3) 0.29095(14)
C13_5 C 0.10874(16) 0.7720(3) 0.28370(15)
H6_5 H 0.1164 0.7078 0.2520
C14_5 C 0.04918(16) 0.7657(3) 0.32424(15)
H7_5 H 0.0170 0.6967 0.3195
C15_4 C 0.74807(17) 0.8943(3) 0.01431(16)
H9_4 H 0.7864 0.8971 0.0456
C17_4 C 0.62399(18) 0.8245(3) 0.04896(15)
H14_4 H 0.5806 0.8464 0.0684
N1_5 N 0.23216(13) 0.8227(2) 0.19674(12)
H15_5 H 0.1979 0.7723 0.1843
N2_3 N 0.03698(13) 0.8600(3) 0.37135(12)
N3_4 N 0.67917(14) 0.9212(3) 0.04831(12)
O1_3 O 0.39834(10) 0.51163(19) 0.07544(10)
O2_5 O 0.47448(11) 0.63889(19) 0.02452(10)
O5_5 O 0.27355(11) 0.9547(2) 0.27668(10)
O6_4 O 0.63037(12) 0.7134(2) 0.02522(10)
H8_5 H 0.7463 0.8089 0.9944
H10_5 H 0.7559 0.9595 0.9810
Ni1_2 Ni 0.549177(18) 0.66328(3) 0.948574(16)
N4_3 N 0.46302(13) 0.6400(3) 0.87135(12)
O7_3 O 0.60166(10) 0.48837(19) 0.92456(10)
O8_3 O 0.53322(10) 0.88074(19) 0.94064(8)
O9_3 O 0.61750(10) 0.79399(18) 0.88105(8)
Ni2_2 Ni 0.950823(18) 0.83672(3) 0.448574(16)
Ni3_2 Ni 0.049177(18) 0.16328(3) 0.551426(16)
C1_6 C 0.07841(15) 0.8776(3) 0.56068(13)
C2_6 C 0.11453(15) 0.7596(3) 0.58849(13)
C3_6 C 0.08594(15) 0.6355(3) 0.57783(14)
H1_6 H 0.0461 0.6257 0.5510
C4_6 C 0.11630(15) 0.5273(3) 0.60678(13)
C5_6 C 0.17682(16) 0.5401(3) 0.64626(14)
H2_6 H 0.1975 0.4663 0.6654
C6_6 C 0.20610(16) 0.6642(3) 0.65683(14)
C7_6 C 0.17462(16) 0.7737(3) 0.62891(14)
H3_6 H 0.1934 0.8568 0.6370
C8_6 C 0.08766(15) 0.3919(3) 0.59475(13)
C9_6 C 0.27333(16) 0.6115(3) 0.75401(14)
C10_6 C 0.41571(16) 0.5373(3) 0.87822(15)
H4_6 H 0.4241 0.4728 0.9096
C11_6 C 0.35544(15) 0.5297(3) 0.83831(14)
H5_6 H 0.3234 0.4607 0.8435
C12_6 C 0.34305(15) 0.6244(3) 0.79095(14)
C13_6 C 0.39126(16) 0.7280(3) 0.78370(15)
H6_6 H 0.3836 0.7922 0.7520
C14_6 C 0.45082(16) 0.7343(3) 0.82424(15)
H7_6 H 0.4830 0.8033 0.8195
N1_6 N 0.26784(13) 0.6773(2) 0.69674(12)
H15_6 H 0.3021 0.7277 0.6843
O1_4 O 0.10166(10) 0.98837(19) 0.57544(10)
O2_6 O 0.02552(11) 0.86111(19) 0.52452(10)
O3_4 O 0.03322(10) 0.38074(19) 0.55936(8)
O4_4 O 0.11750(10) 0.29399(18) 0.61895(8)
O5_6 O 0.22645(11) 0.5453(2) 0.77668(10)
O7_4 O 0.89834(10) 0.01163(19) 0.42456(10)
C15_5 C 0.75193(17) 0.6057(3) 0.51431(16)
H8_6 H 0.7537 0.6911 0.4944
H9_5 H 0.7136 0.6029 0.5456
H10_6 H 0.7441 0.5405 0.4810
C16_5 C 0.83397(17) 0.4484(3) 0.57860(16)
H11_5 H 0.8443 0.3854 0.5448
H12_5 H 0.7922 0.4212 0.6024
H13_5 H 0.8738 0.4542 0.6082
C17_5 C 0.87601(18) 0.6755(3) 0.54896(15)
H14_5 H 0.9194 0.6536 0.5684
N3_5 N 0.82083(14) 0.5788(3) 0.54831(12)
O6_5 O 0.86963(12) 0.7866(2) 0.52522(10)
O8_4 O 0.96678(10) 0.61926(19) 0.44064(8)
O9_4 O 0.88250(10) 0.70601(18) 0.38105(8)
H8_7 H 0.2537 0.1911 0.0056
H10_7 H 0.2441 0.0405 0.0190
N4_4 N 0.53698(13) 0.3600(3) 0.12865(12)
C1_7 C 0.57841(15) 0.3776(3) 0.93932(13)
C2_7 C 0.61453(15) 0.2596(3) 0.91151(13)
C3_7 C 0.58594(15) 0.1355(3) 0.92217(14)
H1_7 H 0.5461 0.1257 0.9490
C4_7 C 0.61630(15) 0.0273(3) 0.89322(13)
C5_7 C 0.67682(16) 0.0401(3) 0.85374(14)
C6_7 C 0.70610(16) 0.1642(3) 0.84317(14)
C7_7 C 0.67462(16) 0.2737(3) 0.87109(14)
H3_7 H 0.6934 0.3568 0.8630
C9_7 C 0.77333(16) 0.1115(3) 0.74599(14)
C10_7 C 0.91571(16) 0.0373(3) 0.62178(15)
C11_7 C 0.85544(15) 0.0297(3) 0.66169(14)
C12_7 C 0.84305(15) 0.1244(3) 0.70905(14)
C13_7 C 0.89126(16) 0.2280(3) 0.71630(15)
H6_7 H 0.8836 0.2922 0.7480
C14_7 C 0.95082(16) 0.2343(3) 0.67576(15)
H7_7 H 0.9830 0.3033 0.6805
C15_6 C 0.25193(17) 0.1057(3) 0.98569(16)
H9_6 H 0.2136 0.1029 0.9544
C17_6 C 0.37601(18) 0.1755(3) 0.95104(15)
H14_6 H 0.4194 0.1536 0.9316
N1_7 N 0.76784(13) 0.1773(2) 0.80326(12)
H15_7 H 0.8021 0.2277 0.8157
N2_4 N 0.96302(13) 0.1400(3) 0.62865(12)
N3_6 N 0.32083(14) 0.0788(3) 0.95169(12)
O2_7 O 0.52552(11) 0.36111(19) 0.97548(10)
O5_7 O 0.72645(11) 0.0453(2) 0.72332(10)
O6_6 O 0.36963(12) 0.2866(2) 0.97478(10)
H2_7 H 0.6975 0.9663 0.8346
C8_7 C 0.58766(15) 0.8919(3) 0.90525(13)
H4_7 H 0.9241 0.9728 0.5904
H5_7 H 0.8234 0.9607 0.6565
C16_6 C 0.33397(17) 0.9484(3) 0.92140(16)
H11_6 H 0.3443 0.8854 0.9552
H12_6 H 0.2922 0.9212 0.8976
H13_6 H 0.3738 0.9542 0.8918
C15_7 C 0.24807(17) 0.3943(3) 0.48569(16)
H8_8 H 0.2463 0.3089 0.5056
H9_7 H 0.2864 0.3971 0.4544
H10_8 H 0.2559 0.4595 0.5190
C16_7 C 0.16603(17) 0.5516(3) 0.42140(16)
H11_7 H 0.1557 0.6146 0.4552
H12_7 H 0.2078 0.5788 0.3976
H13_7 H 0.1262 0.5458 0.3918
C17_7 C 0.12399(18) 0.3245(3) 0.45104(15)
H14_7 H 0.0806 0.3464 0.4316
N3_7 N 0.17917(14) 0.4212(3) 0.45169(12)
O6_7 O 0.13037(12) 0.2134(2) 0.47478(10)
C1_8 C 0.92159(15) 0.1224(3) 0.43932(13)
C2_8 C 0.88547(15) 0.2404(3) 0.41151(13)
C3_8 C 0.91406(15) 0.3645(3) 0.42217(14)
H1_8 H 0.9539 0.3743 0.4490
C4_8 C 0.88370(15) 0.4727(3) 0.39322(13)
C5_8 C 0.82318(16) 0.4599(3) 0.35374(14)
H2_8 H 0.8025 0.5337 0.3346
C6_8 C 0.79390(16) 0.3358(3) 0.34317(14)
C7_8 C 0.82538(16) 0.2263(3) 0.37109(14)
H3_8 H 0.8066 0.1432 0.3630
C8_8 C 0.91234(15) 0.6081(3) 0.40525(13)
C9_8 C 0.72667(16) 0.3885(3) 0.24599(14)
C10_8 C 0.58429(16) 0.4627(3) 0.12178(15)
H4_8 H 0.5759 0.5272 0.0904
C11_8 C 0.64456(15) 0.4703(3) 0.16169(14)
H5_8 H 0.6766 0.5393 0.1565
C12_8 C 0.65695(15) 0.3756(3) 0.20905(14)
C13_8 C 0.60874(16) 0.2720(3) 0.21630(15)
H6_8 H 0.6164 0.2078 0.2480
C14_8 C 0.54918(16) 0.2657(3) 0.17576(15)
H7_8 H 0.5170 0.1967 0.1805
N1_8 N 0.73216(13) 0.3227(2) 0.30326(12)
H15_8 H 0.6979 0.2723 0.3157
O2_8 O 0.97448(11) 0.13889(19) 0.47548(10)
O5_8 O 0.77355(11) 0.4547(2) 0.22332(10)
C15_8 C 0.75193(17) 0.3943(3) 0.01431(16)
H9_8 H 0.7136 0.3971 0.0456
C16_8 C 0.83397(17) 0.5516(3) 0.07860(16)
H11_8 H 0.8443 0.6146 0.0448
H12_8 H 0.7922 0.5788 0.1024
H13_8 H 0.8738 0.5458 0.1082
C17_8 C 0.87601(18) 0.3245(3) 0.04896(15)
H14_8 H 0.9194 0.3464 0.0684
N3_8 N 0.82083(14) 0.4212(3) 0.04831(12)
O6_8 O 0.86963(12) 0.2134(2) 0.02522(10)
loop_
_geom_bond_atom_site_label_1
_geom_bond_atom_site_label_2
_geom_bond_site_symmetry_1
_geom_bond_site_symmetry_2
C16 H11 1_555 1_555
H12 C16 1_555 1_555
H13 C16 1_555 1_555
O3 C8 1_555 1_555
O4 C8 1_555 1_555
Ni4 O3 1_555 1_555
O4 Ni4 1_555 1_555
C1 C2 1_555 1_555
C2 C3 1_555 1_555
C3 H1 1_555 1_555
C4 C3 1_555 1_555
C5 C4 1_555 1_555
C6 C5 1_555 1_555
C7 C2 1_555 1_555
H3 C7 1_555 1_555
C9 C12 1_555 1_555
C11 C10 1_555 1_555
C12 C11 1_555 1_555
C13 C12 1_555 1_555
H6 C13 1_555 1_555
C14 C13 1_555 1_555
H7 C14 1_555 1_555
C15 H8 1_555 1_555
H9 C15 1_555 1_555
H10 C15 1_555 1_555
C17 H14 1_555 1_555
N1 C6 1_555 1_555
H15 N1 1_555 1_555
N2 C10 1_555 1_555
N3 C15 1_555 1_555
Ni1 O2 1_555 1_555
O1 C1 1_555 1_555
O2 C1 1_555 1_555
O5 C9 1_555 1_555
O6 C17 1_555 1_555
N4 Ni1 1_555 1_555
Ni4 O1 1_555 1_555
O7 Ni1 1_555 1_555
O8 Ni1 1_555 1_555
O9 Ni1 1_555 1_555
C6 C7 1_555 1_555
C9 N1 1_555 1_555
C14 N2 1_555 1_555
C17 N3 1_555 1_555
Ni1 O6 1_555 1_555
O8_2 Ni2 1_555 1_555
O9_2 Ni2 1_555 1_555
C1_2 C2_2 1_555 1_555
C2_2 C3_2 1_555 1_555
C3_2 H1_2 1_555 1_555
C4_2 C3_2 1_555 1_555
C5_2 C4_2 1_555 1_555
H2_2 C5_2 1_555 1_555
C6_2 C5_2 1_555 1_555
C7_2 C2_2 1_555 1_555
H3_2 C7_2 1_555 1_555
C8_2 C4_2 1_555 1_555
C9_2 C12_2 1_555 1_555
C10_2 H4_2 1_555 1_555
C11_2 C10_2 1_555 1_555
H5_2 C11_2 1_555 1_555
C12_2 C11_2 1_555 1_555
C13_2 C12_2 1_555 1_555
H6_2 C13_2 1_555 1_555
C14_2 C13_2 1_555 1_555
H7_2 C14_2 1_555 1_555
N1_2 C6_2 1_555 1_555
H15_2 N1_2 1_555 1_555
N4 C10_2 1_555 1_555
O1_2 C1_2 1_555 1_555
O2_2 C1_2 1_555 1_555
O3_2 C8_2 1_555 1_555
O4_2 C8_2 1_555 1_555
O5_2 C9_2 1_555 1_555
Ni3 O3_2 1_555 1_555
C6_2 C7_2 1_555 1_555
C9_2 N1_2 1_555 1_555
C14_2 N4 1_555 1_555
O4_2 Ni3 1_555 1_555
C1_3 C2_3 1_555 1_555
C2_3 C3_3 1_555 1_555
C3_3 H1_3 1_555 1_555
C4_3 C3_3 1_555 1_555
C5_3 C4_3 1_555 1_555
C6_3 C5_3 1_555 1_555
C7_3 C2_3 1_555 1_555
H3_3 C7_3 1_555 1_555
C9_3 C12_3 1_555 1_555
C11_3 C10_3 1_555 1_555
C12_3 C11_3 1_555 1_555
C13_3 C12_3 1_555 1_555
H6_3 C13_3 1_555 1_555
C14_3 C13_3 1_555 1_555
H7_3 C14_3 1_555 1_555
C15_2 H8_3 1_555 1_555
H9_2 C15_2 1_555 1_555
H10_3 C15_2 1_555 1_555
C17_2 H14_2 1_555 1_555
N1_3 C6_3 1_555 1_555
H15_3 N1_3 1_555 1_555
N2_2 C10_3 1_555 1_555
N3_2 C15_2 1_555 1_555
Ni4 O2_3 1_555 1_555
O7 C1_3 1_555 1_555
O2_3 C1_3 1_555 1_555
O5_3 C9_3 1_555 1_555
O6_2 C17_2 1_555 1_555
N4_2 Ni4 1_555 1_555
C6_3 C7_3 1_555 1_555
C9_3 N1_3 1_555 1_555
C14_3 N2_2 1_555 1_555
C17_2 N3_2 1_555 1_555
Ni4 O6_2 1_555 1_555
C16_2 H11_2 1_555 1_555
H12_2 C16_2 1_555 1_555
H13_2 C16_2 1_555 1_555
O8 C8_3 1_555 1_555
O9 C8_3 1_555 1_555
C1_4 C2_4 1_555 1_555
C2_4 C3_4 1_555 1_555
C3_4 H1_4 1_555 1_555
C4_4 C3_4 1_555 1_555
C5_4 C4_4 1_555 1_555
H2_4 C5_4 1_555 1_555
C6_4 C5_4 1_555 1_555
C7_4 C2_4 1_555 1_555
H3_4 C7_4 1_555 1_555
C8_4 C4_4 1_555 1_555
C9_4 C12_4 1_555 1_555
C10_4 H4_4 1_555 1_555
C11_4 C10_4 1_555 1_555
H5_4 C11_4 1_555 1_555
C12_4 C11_4 1_555 1_555
C13_4 C12_4 1_555 1_555
H6_4 C13_4 1_555 1_555
C14_4 C13_4 1_555 1_555
H7_4 C14_4 1_555 1_555
N1_4 C6_4 1_555 1_555
H15_4 N1_4 1_555 1_555
N4_2 C10_4 1_555 1_555
O7_2 C1_4 1_555 1_555
O2_4 C1_4 1_555 1_555
O8_2 C8_4 1_555 1_555
O9_2 C8_4 1_555 1_555
O5_4 C9_4 1_555 1_555
C6_4 C7_4 1_555 1_555
C9_4 N1_4 1_555 1_555
C14_4 N4_2 1_555 1_555
H9_3 C15_3 1_555 1_555
C16_3 H11_3 1_555 1_555
H12_3 C16_3 1_555 1_555
H13_3 C16_3 1_555 1_555
C17_3 H14_3 1_555 1_555
N3_3 C15_3 1_555 1_555
O6_3 C17_3 1_555 1_555
C16_3 N3_3 1_555 1_555
C17_3 N3_3 1_555 1_555
C16_4 H11_4 1_555 1_555
H12_4 C16_4 1_555 1_555
H13_4 C16_4 1_555 1_555
O3_3 C8_5 1_555 1_555
O4_3 C8_5 1_555 1_555
Ni4_2 O3_3 1_555 1_555
O4_3 Ni4_2 1_555 1_555
C1_5 C2_5 1_555 1_555
C2_5 C3_5 1_555 1_555
C3_5 H1_5 1_555 1_555
C4_5 C3_5 1_555 1_555
C5_5 C4_5 1_555 1_555
C6_5 C5_5 1_555 1_555
C7_5 C2_5 1_555 1_555
H3_5 C7_5 1_555 1_555
C9_5 C12_5 1_555 1_555
C11_5 C10_5 1_555 1_555
C12_5 C11_5 1_555 1_555
C13_5 C12_5 1_555 1_555
H6_5 C13_5 1_555 1_555
C14_5 C13_5 1_555 1_555
H7_5 C14_5 1_555 1_555
H9_4 C15_4 1_555 1_555
C17_4 H14_4 1_555 1_555
N1_5 C6_5 1_555 1_555
H15_5 N1_5 1_555 1_555
N2_3 C10_5 1_555 1_555
N3_4 C15_4 1_555 1_555
O1_3 C1_5 1_555 1_555
O2_5 C1_5 1_555 1_555
O5_5 C9_5 1_555 1_555
O6_4 C17_4 1_555 1_555
Ni4_2 O1_3 1_555 1_555
C6_5 C7_5 1_555 1_555
C9_5 N1_5 1_555 1_555
C14_5 N2_3 1_555 1_555
C17_4 N3_4 1_555 1_555
N4_3 Ni1_2 1_555 1_555
O7_3 Ni1_2 1_555 1_555
O8_3 Ni1_2 1_555 1_555
O9_3 Ni1_2 1_555 1_555
C1_6 C2_6 1_555 1_555
C2_6 C3_6 1_555 1_555
C3_6 H1_6 1_555 1_555
C4_6 C3_6 1_555 1_555
C5_6 C4_6 1_555 1_555
H2_6 C5_6 1_555 1_555
C6_6 C5_6 1_555 1_555
C7_6 C2_6 1_555 1_555
H3_6 C7_6 1_555 1_555
C8_6 C4_6 1_555 1_555
C9_6 C12_6 1_555 1_555
C10_6 H4_6 1_555 1_555
C11_6 C10_6 1_555 1_555
H5_6 C11_6 1_555 1_555
C12_6 C11_6 1_555 1_555
C13_6 C12_6 1_555 1_555
H6_6 C13_6 1_555 1_555
C14_6 C13_6 1_555 1_555
H7_6 C14_6 1_555 1_555
N1_6 C6_6 1_555 1_555
H15_6 N1_6 1_555 1_555
N4_3 C10_6 1_555 1_555
O1_4 C1_6 1_555 1_555
O2_6 C1_6 1_555 1_555
O3_4 C8_6 1_555 1_555
O4_4 C8_6 1_555 1_555
O5_6 C9_6 1_555 1_555
Ni3_2 O3_4 1_555 1_555
C6_6 C7_6 1_555 1_555
C9_6 N1_6 1_555 1_555
C14_6 N4_3 1_555 1_555
O4_4 Ni3_2 1_555 1_555
C15_5 H8_6 1_555 1_555
H9_5 C15_5 1_555 1_555
H10_6 C15_5 1_555 1_555
C16_5 H11_5 1_555 1_555
H12_5 C16_5 1_555 1_555
H13_5 C16_5 1_555 1_555
C17_5 H14_5 1_555 1_555
N3_5 C15_5 1_555 1_555
O6_5 C17_5 1_555 1_555
O8_4 Ni2_2 1_555 1_555
O9_4 Ni2_2 1_555 1_555
C16_5 N3_5 1_555 1_555
C17_5 N3_5 1_555 1_555
Ni2_2 O6_5 1_555 1_555
N4_4 Ni4_2 1_555 1_555
C1_7 C2_7 1_555 1_555
C2_7 C3_7 1_555 1_555
C3_7 H1_7 1_555 1_555
C4_7 C3_7 1_555 1_555
C5_7 C4_7 1_555 1_555
C6_7 C5_7 1_555 1_555
C7_7 C2_7 1_555 1_555
H3_7 C7_7 1_555 1_555
C9_7 C12_7 1_555 1_555
C11_7 C10_7 1_555 1_555
C12_7 C11_7 1_555 1_555
C13_7 C12_7 1_555 1_555
H6_7 C13_7 1_555 1_555
C14_7 C13_7 1_555 1_555
H7_7 C14_7 1_555 1_555
H9_6 C15_6 1_555 1_555
C17_6 H14_6 1_555 1_555
N1_7 C6_7 1_555 1_555
H15_7 N1_7 1_555 1_555
N2_4 C10_7 1_555 1_555
N3_6 C15_6 1_555 1_555
O7_3 C1_7 1_555 1_555
O2_7 C1_7 1_555 1_555
O5_7 C9_7 1_555 1_555
O6_6 C17_6 1_555 1_555
C6_7 C7_7 1_555 1_555
C9_7 N1_7 1_555 1_555
C14_7 N2_4 1_555 1_555
C17_6 N3_6 1_555 1_555
C16_6 H11_6 1_555 1_555
H12_6 C16_6 1_555 1_555
H13_6 C16_6 1_555 1_555
O8_3 C8_7 1_555 1_555
O9_3 C8_7 1_555 1_555
C15_7 H8_8 1_555 1_555
H9_7 C15_7 1_555 1_555
H10_8 C15_7 1_555 1_555
C16_7 H11_7 1_555 1_555
H12_7 C16_7 1_555 1_555
H13_7 C16_7 1_555 1_555
C17_7 H14_7 1_555 1_555
N3_7 C15_7 1_555 1_555
O6_7 C17_7 1_555 1_555
C16_7 N3_7 1_555 1_555
C17_7 N3_7 1_555 1_555
Ni3_2 O6_7 1_555 1_555
C1_8 C2_8 1_555 1_555
C2_8 C3_8 1_555 1_555
C3_8 H1_8 1_555 1_555
C4_8 C3_8 1_555 1_555
C5_8 C4_8 1_555 1_555
H2_8 C5_8 1_555 1_555
C6_8 C5_8 1_555 1_555
C7_8 C2_8 1_555 1_555
H3_8 C7_8 1_555 1_555
C8_8 C4_8 1_555 1_555
C9_8 C12_8 1_555 1_555
C10_8 H4_8 1_555 1_555
C11_8 C10_8 1_555 1_555
H5_8 C11_8 1_555 1_555
C12_8 C11_8 1_555 1_555
C13_8 C12_8 1_555 1_555
H6_8 C13_8 1_555 1_555
C14_8 C13_8 1_555 1_555
H7_8 C14_8 1_555 1_555
N1_8 C6_8 1_555 1_555
H15_8 N1_8 1_555 1_555
N4_4 C10_8 1_555 1_555
O7_4 C1_8 1_555 1_555
O2_8 C1_8 1_555 1_555
O8_4 C8_8 1_555 1_555
O9_4 C8_8 1_555 1_555
O5_8 C9_8 1_555 1_555
C6_8 C7_8 1_555 1_555
C9_8 N1_8 1_555 1_555
C14_8 N4_4 1_555 1_555
H9_8 C15_8 1_555 1_555
C16_8 H11_8 1_555 1_555
H12_8 C16_8 1_555 1_555
H13_8 C16_8 1_555 1_555
C17_8 H14_8 1_555 1_555
N3_8 C15_8 1_555 1_555
O6_8 C17_8 1_555 1_555
C16_8 N3_8 1_555 1_555
C17_8 N3_8 1_555 1_555

#END
