
###############################################################################
#
# This file contains modified crystal structure data generated from the
# MOF subset of the Cambridge Structural Database (CSD) v543 
# hosted by the Cambridge Crystallographic Data Centre (CCDC).
#
# This work is licensed under the Creative Commons
# Attribution-NonCommercial-ShareAlike 4.0 International License.
# To view a copy of this license, visit
# http://creativecommons.org/licenses/by-nc-sa/4.0/
# or send a letter to
# Creative Commons, PO Box 1866, Mountain View, CA 94042, USA.
#
# CIF created using the CSD Python API on 29 September 2022
# The structure has been converted into the P1 space group
# The structure has a 3D framework
# The original CSD entry VIQWIE is in the triclinic crystal system
# The framework has been calculated to contain at least 10.0% void space
# The void calculation uses a probe of radius 1.32A, grid spacing 0.4
#
###############################################################################

data_VIQWIE
_chemical_formula_moiety         '(C180 H116 Co6 N16 O36)n'
_symmetry_cell_setting           triclinic
_symmetry_space_group_name_H-M   'P 1'
_symmetry_Int_Tables_number      1
_space_group_name_Hall           'P 1'
loop_
_symmetry_equiv_pos_site_id
_symmetry_equiv_pos_as_xyz
1 x,y,z
_cell_length_a                   15.8498(12)
_cell_length_b                   16.1591(13)
_cell_length_c                   23.6701(17)
_cell_angle_alpha                97.696(2)
_cell_angle_beta                 92.686(2)
_cell_angle_gamma                112.973(2)
_cell_volume                     5498.52
loop_
_atom_site_label
_atom_site_type_symbol
_atom_site_fract_x
_atom_site_fract_y
_atom_site_fract_z
O1 O 0.23059(18) 0.49990(19) 0.78799(11)
O2 O 0.2037(2) 0.4671(2) 0.87335(12)
C1 C 0.1734(3) 0.4624(3) 0.82233(18)
C2 C 0.0742(3) 0.4175(3) 0.80316(19)
C3 C 0.0394(3) 0.4291(3) 0.75131(19)
H1 H 0.079501 0.467026 0.728016
C8 C 0.0144(3) 0.3631(3) 0.8373(2)
H4 H 0.037798 0.355028 0.872941
Co6 Co 0.27858(4) 0.48196(4) 0.70683(2)
Co9 Co 0.34555(4) 0.53787(4) 0.85194(2)
O3 O 0.7949(2) 0.2965(2) 0.74851(17)
O4 O 0.3465(2) 0.41069(19) 0.82986(12)
O5 O 0.34186(19) 0.40076(19) 0.73406(12)
O6 O 0.4936(2) 0.1028(2) 0.78124(18)
O10 O 0.16407(19) 0.36201(18) 0.68104(12)
O11 O 0.09915(18) 0.37761(18) 0.59868(12)
N1 N 0.2170(2) 0.2985(2) 0.54697(15)
N2 N 0.2177(2) 0.1730(2) 0.57302(15)
C4 C 0.9465(3) 0.3856(3) 0.7338(2)
H2 H 0.922436 0.392700 0.698101
C5 C 0.8884(3) 0.3317(3) 0.7679(2)
C6 C 0.7361(3) 0.2117(3) 0.7585(2)
C7 C 0.9213(3) 0.3211(3) 0.8196(2)
H3 H 0.880272 0.284892 0.843206
C9 C 0.3551(3) 0.3763(3) 0.78086(19)
C10 C 0.3876(3) 0.3005(3) 0.77809(18)
C11 C 0.4241(3) 0.2749(3) 0.72997(19)
H5 H 0.423858 0.301912 0.696750
C12 C 0.4612(3) 0.2098(3) 0.7302(2)
H6 H 0.486418 0.192418 0.697366
C13 C 0.4609(3) 0.1704(3) 0.7791(2)
C14 C 0.5832(3) 0.1196(3) 0.7713(2)
C15 C 0.6480(3) 0.2047(3) 0.7669(2)
H7 H 0.632788 0.256271 0.769583
C16 C 0.4221(3) 0.1922(3) 0.8260(2)
H8 H 0.420585 0.163144 0.858513
C17 C 0.3850(3) 0.2568(3) 0.8258(2)
H9 H 0.357564 0.271745 0.858329
C23 C 0.6938(3) 0.0555(3) 0.7609(2)
C24 C 0.7606(3) 0.1387(3) 0.7554(2)
H12 H 0.821623 0.145425 0.749525
C25 C 0.6049(3) 0.0447(3) 0.7689(2)
C28 C 0.1014(3) 0.3354(3) 0.63963(18)
C29 C 0.2428(3) 0.2635(3) 0.58772(19)
H16 H 0.275526 0.297889 0.623506
C30 C 0.2325(3) 0.1150(3) 0.60900(19)
C31 C 0.2132(3) 0.1238(3) 0.6651(2)
H17 H 0.187127 0.165599 0.678544
C32 C 0.2318(3) 0.0718(3) 0.7017(2)
H18 H 0.219022 0.079230 0.740446
C33 C 0.2682(3) 0.0097(3) 0.6836(2)
C35 C 0.2665(4) 0.0514(3) 0.5898(2)
H20 H 0.277811 0.043101 0.550861
H27 H 0.237060 0.000293 0.791781
C45 C 0.1734(3) 0.1494(3) 0.5186(2)
H28 H 0.148330 0.090330 0.495955
C46 C 0.1724(3) 0.2265(3) 0.50339(19)
H29 H 0.144877 0.230430 0.467868
C65 C 0.0264(3) 0.2423(3) 0.63749(18)
C66 C 0.0155(3) 0.1988(3) 0.6840(2)
H44 H 0.052393 0.229737 0.719275
Co11 Co 0.22038(4) 0.43208(4) 0.56230(2)
O23 O 0.39292(19) 0.60296(19) 0.73228(12)
O26 O 0.33269(18) 0.46177(18) 0.62830(11)
O28 O 0.21402(18) 0.56412(19) 0.68327(12)
O7 O 0.46440(19) 0.5995(2) 0.81516(12)
O9 O 0.7236(2) 0.9863(2) 0.75882(18)
O16 O 0.06531(19) 0.8609(2) 0.62770(15)
O18 O 0.22880(19) 0.56262(18) 0.58917(12)
N3 N 0.3369(3) 0.7918(3) 0.83601(17)
N4 N 0.3392(3) 0.6686(3) 0.86470(16)
N5 N 0.1589(2) 0.4364(2) 0.48502(14)
N6 N 0.1586(2) 0.4785(2) 0.39995(14)
N7 N 0.4073(2) 0.5667(3) 0.02769(15)
C18 C 0.4584(3) 0.6353(3) 0.77195(18)
C19 C 0.5311(3) 0.7269(3) 0.76805(19)
C20 C 0.5365(3) 0.7621(3) 0.7169(2)
H10 H 0.495647 0.726466 0.683872
C21 C 0.5998(3) 0.8471(3) 0.7141(2)
H11 H 0.604019 0.870585 0.679084
C22 C 0.6571(3) 0.8983(3) 0.7620(3)
H13 H 0.559517 0.986839 0.772590
C26 C 0.6544(3) 0.8675(4) 0.8129(3)
H14 H 0.695347 0.904367 0.845562
C27 C 0.5903(3) 0.7806(3) 0.8157(2)
H15 H 0.587060 0.757761 0.850858
C34 C 0.2843(4) 0.9994(3) 0.6267(2)
H19 H 0.308055 0.955798 0.612768
C36 C 0.2884(3) 0.9542(3) 0.7239(2)
C37 C 0.3311(3) 0.8957(3) 0.7074(2)
H21 H 0.349093 0.891850 0.669714
C38 C 0.3482(3) 0.8428(3) 0.7442(2)
H22 H 0.377439 0.803176 0.731960
C39 C 0.3221(3) 0.8485(3) 0.7988(2)
C40 C 0.3149(3) 0.7022(3) 0.82164(19)
H23 H 0.285721 0.667317 0.785271
C41 C 0.3798(4) 0.7426(4) 0.9088(2)
H24 H 0.404343 0.739756 0.945551
C42 C 0.3795(5) 0.8189(4) 0.8920(2)
H25 H 0.403261 0.878623 0.913743
C43 C 0.2815(4) 0.9074(4) 0.8165(2)
H26 H 0.264646 0.912127 0.854386
C44 C 0.2650(4) 0.9598(4) 0.7791(2)
C47 C 0.2079(3) 0.4632(3) 0.44263(18)
H30 H 0.270421 0.471011 0.441975
C48 C 0.1907(3) 0.5010(3) 0.34651(17)
C49 C 0.2806(3) 0.5612(3) 0.34569(19)
H31 H 0.318477 0.592577 0.380559
C50 C 0.3150(3) 0.5754(3) 0.29373(18)
H32 H 0.377081 0.616552 0.293216
C51 C 0.2614(3) 0.5311(3) 0.24263(18)
C52 C 0.1699(3) 0.4734(3) 0.24432(18)
H33 H 0.131066 0.444661 0.209463
C53 C 0.1347(3) 0.4572(3) 0.29609(17)
H34 H 0.072542 0.416405 0.296813
C54 C 0.3004(3) 0.5429(3) 0.18731(17)
C55 C 0.3874(3) 0.5437(3) 0.18047(18)
H35 H 0.423227 0.539526 0.212418
C56 C 0.4231(3) 0.5505(3) 0.12788(18)
H36 H 0.482055 0.549785 0.123495
C57 C 0.3712(3) 0.5582(3) 0.08267(18)
C60 C 0.4968(3) 0.6119(3) 0.0176(2)
H39 H 0.549110 0.641129 0.045307
C61 C 0.2843(3) 0.5590(3) 0.08796(19)
H40 H 0.249704 0.565771 0.056351
C62 C 0.2501(3) 0.5498(3) 0.13984(19)
H41 H 0.190062 0.548193 0.143533
C63 C 0.0724(3) 0.4606(3) 0.41719(19)
H42 H 0.021815 0.464745 0.396440
C64 C 0.0738(3) 0.4359(3) 0.46938(19)
H43 H 0.023557 0.420388 0.491971
C81 C 0.0957(3) 0.7912(3) 0.6314(2)
C82 C 0.0986(3) 0.7575(3) 0.6816(2)
H52 H 0.076007 0.778485 0.714539
C83 C 0.1349(3) 0.6927(3) 0.68310(19)
H53 H 0.135929 0.668062 0.717276
C84 C 0.1700(3) 0.6629(3) 0.63569(18)
C85 C 0.2083(3) 0.5913(3) 0.63638(18)
C86 C 0.1675(3) 0.6993(3) 0.58630(19)
H54 H 0.191333 0.679757 0.553466
C87 C 0.1309(3) 0.7635(3) 0.5840(2)
H55 H 0.130008 0.788353 0.549904
O27 O 0.35976(19) 0.49087(19) 0.54141(12)
N10 N 0.4067(2) 0.5573(2) 0.93435(14)
C58 C 0.3556(3) 0.5355(3) 0.97686(18)
H37 H 0.290723 0.502047 0.972053
C59 C 0.4956(3) 0.6063(3) 0.96035(18)
H38 H 0.548162 0.632298 0.940687
O12 O 0.8324(2) 0.9767(2) 0.62393(16)
O13 O 0.76483(19) 0.6823(2) 0.67264(14)
C69 C 0.8637(3) 0.9101(3) 0.63406(19)
C70 C 0.7975(3) 0.8314(3) 0.64776(19)
H46 H 0.736499 0.826324 0.652342
C71 C 0.8232(3) 0.7609(3) 0.65448(18)
C72 C 0.6726(3) 0.6389(3) 0.6502(2)
C73 C 0.6151(3) 0.5883(3) 0.68626(19)
H47 H 0.638332 0.587729 0.723873
C74 C 0.5228(3) 0.5383(3) 0.66664(18)
H48 H 0.482496 0.502214 0.690614
C75 C 0.4893(3) 0.5410(3) 0.61203(17)
C76 C 0.3897(3) 0.4959(3) 0.59241(18)
C77 C 0.5496(3) 0.5905(3) 0.57599(19)
H49 H 0.527096 0.589873 0.537951
C78 C 0.6412(3) 0.6402(3) 0.5949(2)
H50 H 0.682163 0.674680 0.570601
C79 C 0.9110(3) 0.7662(3) 0.64774(18)
H51 H 0.926886 0.716162 0.651545
C80 C 0.9748(3) 0.8462(3) 0.63537(19)
C88 C 0.9528(3) 0.9191(3) 0.6288(2)
H56 H 0.998042 0.974239 0.620746
C67 C 0.9513(3) 0.1103(3) 0.6804(2)
H45 H 0.943988 0.080419 0.712862
C68 C 0.8986(3) 0.0662(3) 0.6294(2)
C89 C 0.9058(3) 0.1089(3) 0.5826(2)
H57 H 0.867466 0.078218 0.547817
C90 C 0.9700(3) 0.1978(3) 0.5869(2)
H58 H 0.975260 0.228579 0.554914
O12_2 O 0.1676(2) 0.0233(2) 0.37607(16)
O13_2 O 0.23517(19) 0.3177(2) 0.32736(14)
O14 O 0.66731(18) 0.53823(18) 0.37170(11)
O15 O 0.64024(19) 0.50913(19) 0.45859(12)
C69_2 C 0.1363(3) 0.0899(3) 0.36594(19)
C70_2 C 0.2025(3) 0.1686(3) 0.35224(19)
H46_2 H 0.263501 0.173676 0.347658
C71_2 C 0.1768(3) 0.2391(3) 0.34552(18)
C72_2 C 0.3274(3) 0.3611(3) 0.3498(2)
C73_2 C 0.3849(3) 0.4117(3) 0.31374(19)
H47_2 H 0.361668 0.412271 0.276127
C74_2 C 0.4772(3) 0.4617(3) 0.33336(18)
H48_2 H 0.517504 0.497786 0.309386
C75_2 C 0.5107(3) 0.4590(3) 0.38797(17)
C76_2 C 0.6103(3) 0.5041(3) 0.40759(18)
C77_2 C 0.4504(3) 0.4095(3) 0.42401(19)
H49_2 H 0.472904 0.410127 0.462049
C78_2 C 0.3588(3) 0.3598(3) 0.4051(2)
H50_2 H 0.317837 0.325320 0.429399
C79_2 C 0.0890(3) 0.2338(3) 0.35226(18)
H51_2 H 0.073114 0.283838 0.348455
C80_2 C 0.0252(3) 0.1538(3) 0.36463(19)
C88_2 C 0.0472(3) 0.0809(3) 0.3712(2)
H56_2 H 0.001958 0.025761 0.379254
Co4 Co 0.72142(4) 0.51804(4) 0.29317(2)
Co10 Co 0.77962(4) 0.56792(4) 0.43770(2)
N8 N 0.5933(2) 0.4427(2) 0.06565(14)
C58_2 C 0.6444(3) 0.4645(3) 0.02314(18)
H37_2 H 0.709277 0.497953 0.027947
C59_2 C 0.5044(3) 0.3937(3) 0.03965(18)
H38_2 H 0.451838 0.367702 0.059313
Co7 Co 0.65445(4) 0.46213(4) 0.14806(2)
O7_2 O 0.53560(19) 0.4005(2) 0.18484(12)
O8 O 0.60708(19) 0.39704(19) 0.26772(12)
O9_2 O 0.2764(2) 0.0137(2) 0.24118(18)
O16_2 O 0.93469(19) 0.1391(2) 0.37230(15)
O17 O 0.78598(18) 0.43588(19) 0.31673(12)
O18_2 O 0.77120(19) 0.43738(18) 0.41083(12)
N3_2 N 0.6631(3) 0.2082(3) 0.16399(17)
N4_2 N 0.6608(3) 0.3314(3) 0.13530(16)
N5_2 N 0.8411(2) 0.5636(2) 0.51498(14)
N6_2 N 0.8414(2) 0.5215(2) 0.60005(14)
N7_2 N 0.5927(2) 0.4333(3) 0.97231(15)
C18_2 C 0.5416(3) 0.3647(3) 0.22805(18)
C19_2 C 0.4689(3) 0.2731(3) 0.23195(19)
C20_2 C 0.4635(3) 0.2379(3) 0.2831(2)
H10_2 H 0.504353 0.273534 0.316128
C21_2 C 0.4002(3) 0.1529(3) 0.2859(2)
H11_2 H 0.395981 0.129415 0.320916
C22_2 C 0.3429(3) 0.1017(3) 0.2380(3)
H13_2 H 0.440483 0.013161 0.227410
C26_2 C 0.3456(3) 0.1325(4) 0.1871(3)
H14_2 H 0.304653 0.095633 0.154438
C27_2 C 0.4097(3) 0.2194(3) 0.1843(2)
H15_2 H 0.412940 0.242239 0.149142
C34_2 C 0.7157(4) 0.0006(3) 0.3733(2)
H19_2 H 0.691945 0.044202 0.387232
C36_2 C 0.7116(3) 0.0458(3) 0.2761(2)
C37_2 C 0.6689(3) 0.1043(3) 0.2926(2)
H21_2 H 0.650907 0.108150 0.330286
C38_2 C 0.6518(3) 0.1572(3) 0.2558(2)
H22_2 H 0.622561 0.196824 0.268040
C39_2 C 0.6779(3) 0.1515(3) 0.2012(2)
C40_2 C 0.6851(3) 0.2978(3) 0.17836(19)
H23_2 H 0.714279 0.332683 0.214729
C41_2 C 0.6202(4) 0.2574(4) 0.0912(2)
H24_2 H 0.595657 0.260244 0.054449
C42_2 C 0.6205(5) 0.1811(4) 0.1080(2)
H25_2 H 0.596739 0.121377 0.086257
C43_2 C 0.7185(4) 0.0926(4) 0.1835(2)
H26_2 H 0.735354 0.087873 0.145614
C44_2 C 0.7350(4) 0.0402(4) 0.2209(2)
C47_2 C 0.7921(3) 0.5368(3) 0.55737(18)
H30_2 H 0.729579 0.528989 0.558025
C48_2 C 0.8093(3) 0.4990(3) 0.65349(17)
C49_2 C 0.7194(3) 0.4388(3) 0.65431(19)
H31_2 H 0.681523 0.407423 0.619441
C50_2 C 0.6850(3) 0.4246(3) 0.70627(18)
H32_2 H 0.622919 0.383448 0.706784
C51_2 C 0.7386(3) 0.4689(3) 0.75737(18)
C52_2 C 0.8301(3) 0.5266(3) 0.75568(18)
H33_2 H 0.868934 0.555339 0.790537
C53_2 C 0.8653(3) 0.5428(3) 0.70391(17)
H34_2 H 0.927458 0.583595 0.703187
C54_2 C 0.6996(3) 0.4571(3) 0.81269(17)
C55_2 C 0.6126(3) 0.4563(3) 0.81953(18)
H35_2 H 0.576773 0.460474 0.787582
C56_2 C 0.5769(3) 0.4495(3) 0.87212(18)
H36_2 H 0.517945 0.450215 0.876505
C57_2 C 0.6288(3) 0.4418(3) 0.91733(18)
C60_2 C 0.5032(3) 0.3881(3) 0.9824(2)
H39_2 H 0.450890 0.358871 0.954693
C61_2 C 0.7157(3) 0.4410(3) 0.91204(19)
H40_2 H 0.750296 0.434229 0.943649
C62_2 C 0.7499(3) 0.4502(3) 0.86016(19)
H41_2 H 0.809938 0.451807 0.856467
C63_2 C 0.9276(3) 0.5394(3) 0.58281(19)
H42_2 H 0.978185 0.535255 0.603560
C64_2 C 0.9262(3) 0.5641(3) 0.53062(19)
H43_2 H 0.976443 0.579612 0.508029
C81_2 C 0.9043(3) 0.2088(3) 0.3686(2)
C82_2 C 0.9014(3) 0.2425(3) 0.3184(2)
H52_2 H 0.923993 0.221515 0.285461
C83_2 C 0.8651(3) 0.3073(3) 0.31690(19)
H53_2 H 0.864071 0.331938 0.282724
C84_2 C 0.8300(3) 0.3371(3) 0.36431(18)
C85_2 C 0.7917(3) 0.4087(3) 0.36362(18)
C86_2 C 0.8325(3) 0.3007(3) 0.41370(19)
H54_2 H 0.808667 0.320243 0.446534
C87_2 C 0.8691(3) 0.2365(3) 0.4160(2)
H55_2 H 0.869992 0.211647 0.450096
O19 O 0.76941(18) 0.50010(19) 0.21201(11)
O21 O 0.7963(2) 0.5329(2) 0.12665(12)
O22 O 0.6535(2) 0.58931(19) 0.17014(12)
O24 O 0.90085(18) 0.62239(18) 0.40132(12)
N9 N 0.7830(2) 0.7015(2) 0.45303(15)
O3_2 O 0.2051(2) 0.7035(2) 0.25149(17)
O5_2 O 0.65814(19) 0.59924(19) 0.26594(12)
O6_2 O 0.5064(2) 0.8972(2) 0.21876(18)
O10_2 O 0.83593(19) 0.63799(18) 0.31896(12)
N2_2 N 0.7823(2) 0.8270(2) 0.42698(15)
C4_2 C 0.0535(3) 0.6144(3) 0.2662(2)
H2_2 H 0.077564 0.607300 0.301899
C5_2 C 0.1116(3) 0.6683(3) 0.2321(2)
C6_2 C 0.2639(3) 0.7883(3) 0.2415(2)
C7_2 C 0.0787(3) 0.6789(3) 0.1804(2)
H3_2 H 0.119728 0.715108 0.156794
C9_2 C 0.6449(3) 0.6237(3) 0.21914(19)
C10_2 C 0.6124(3) 0.6995(3) 0.22191(18)
C11_2 C 0.5759(3) 0.7251(3) 0.27003(19)
H5_2 H 0.576142 0.698088 0.303250
C12_2 C 0.5388(3) 0.7902(3) 0.2698(2)
H6_2 H 0.513582 0.807582 0.302634
C13_2 C 0.5391(3) 0.8296(3) 0.2209(2)
C14_2 C 0.4168(3) 0.8804(3) 0.2287(2)
C15_2 C 0.3520(3) 0.7953(3) 0.2331(2)
H7_2 H 0.367212 0.743729 0.230417
C16_2 C 0.5779(3) 0.8078(3) 0.1740(2)
H8_2 H 0.579415 0.836856 0.141487
C17_2 C 0.6150(3) 0.7432(3) 0.1742(2)
H9_2 H 0.642436 0.728255 0.141671
C23_2 C 0.3062(3) 0.9445(3) 0.2391(2)
C24_2 C 0.2394(3) 0.8613(3) 0.2446(2)
H12_2 H 0.178377 0.854575 0.250475
C25_2 C 0.3951(3) 0.9553(3) 0.2311(2)
C28_2 C 0.8986(3) 0.6646(3) 0.36037(18)
C29_2 C 0.7572(3) 0.7365(3) 0.41228(19)
H16_2 H 0.724474 0.702111 0.376494
C30_2 C 0.7675(3) 0.8850(3) 0.39100(19)
C31_2 C 0.7868(3) 0.8762(3) 0.3349(2)
H17_2 H 0.812873 0.834401 0.321456
C32_2 C 0.7682(3) 0.9282(3) 0.2983(2)
H18_2 H 0.780978 0.920770 0.259554
C33_2 C 0.7318(3) 0.9903(3) 0.3164(2)
C35_2 C 0.7335(4) 0.9486(3) 0.4102(2)
H20_2 H 0.722189 0.956899 0.449139
H27_2 H 0.762940 0.999707 0.208219
C45_2 C 0.8266(3) 0.8506(3) 0.4814(2)
H28_2 H 0.851670 0.909670 0.504045
C46_2 C 0.8276(3) 0.7735(3) 0.49661(19)
H29_2 H 0.855123 0.769570 0.532132
C65_2 C 0.9736(3) 0.7577(3) 0.36251(18)
C66_2 C 0.9845(3) 0.8012(3) 0.3160(2)
H44_2 H 0.947607 0.770263 0.280725
C1_2 C 0.8266(3) 0.5376(3) 0.17767(18)
C2_2 C 0.9258(3) 0.5825(3) 0.19684(19)
C3_2 C 0.9606(3) 0.5709(3) 0.24869(19)
H1_2 H 0.920499 0.532974 0.271984
C8_2 C 0.9856(3) 0.6369(3) 0.1627(2)
H4_2 H 0.962202 0.644972 0.127059
C67_2 C 0.0487(3) 0.8897(3) 0.3196(2)
H45_2 H 0.056012 0.919581 0.287138
C68_2 C 0.1014(3) 0.9338(3) 0.3706(2)
C89_2 C 0.0942(3) 0.8911(3) 0.4174(2)
H57_2 H 0.132534 0.921782 0.452183
C90_2 C 0.0300(3) 0.8022(3) 0.4131(2)
H58_2 H 0.024740 0.771421 0.445086
loop_
_geom_bond_atom_site_label_1
_geom_bond_atom_site_label_2
_geom_bond_site_symmetry_1
_geom_bond_site_symmetry_2
O1 C1 1_555 1_555
O2 C1 1_555 1_555
C1 C2 1_555 1_555
C2 C3 1_555 1_555
C3 H1 1_555 1_555
C8 C2 1_555 1_555
H4 C8 1_555 1_555
Co6 O1 1_555 1_555
Co9 O1 1_555 1_555
O2 Co9 1_555 1_555
Co6 O5 1_555 1_555
O3 C5 1_555 1_555
O4 C9 1_555 1_555
O5 C9 1_555 1_555
O6 C13 1_555 1_555
O10 Co6 1_555 1_555
O11 C28 1_555 1_555
N1 C29 1_555 1_555
N2 C29 1_555 1_555
H2 C4 1_555 1_555
C5 C4 1_555 1_555
C6 O3 1_555 1_555
C7 C5 1_555 1_555
H3 C7 1_555 1_555
C9 C10 1_555 1_555
C10 C11 1_555 1_555
C11 H5 1_555 1_555
C12 C11 1_555 1_555
H6 C12 1_555 1_555
C13 C12 1_555 1_555
C14 O6 1_555 1_555
C15 C6 1_555 1_555
H7 C15 1_555 1_555
C16 C13 1_555 1_555
H8 C16 1_555 1_555
C17 C10 1_555 1_555
H9 C17 1_555 1_555
C24 C6 1_555 1_555
H12 C24 1_555 1_555
C25 C14 1_555 1_555
C28 O10 1_555 1_555
C29 H16 1_555 1_555
C30 N2 1_555 1_555
C31 C30 1_555 1_555
H17 C31 1_555 1_555
C32 C31 1_555 1_555
H18 C32 1_555 1_555
C33 C32 1_555 1_555
C35 C30 1_555 1_555
H20 C35 1_555 1_555
C45 N2 1_555 1_555
H28 C45 1_555 1_555
C46 N1 1_555 1_555
H29 C46 1_555 1_555
C65 C28 1_555 1_555
C66 C65 1_555 1_555
H44 C66 1_555 1_555
Co9 O4 1_555 1_555
Co11 O11 1_555 1_555
O23 Co6 1_555 1_555
O26 Co6 1_555 1_555
O28 Co6 1_555 1_555
N1 Co11 1_555 1_555
C14 C15 1_555 1_555
C16 C17 1_555 1_555
C23 C24 1_555 1_555
C23 C25 1_555 1_555
C45 C46 1_555 1_555
Co11 O26 1_555 1_555
Co9 O7 1_555 1_555
Co11 O18 1_555 1_555
O7 C18 1_555 1_555
O23 C18 1_555 1_555
O9 C22 1_555 1_555
O28 C85 1_555 1_555
O18 C85 1_555 1_555
N3 C39 1_555 1_555
N4 Co9 1_555 1_555
N5 Co11 1_555 1_555
N6 C47 1_555 1_555
N7 C57 1_555 1_555
C18 C19 1_555 1_555
C19 C20 1_555 1_555
C20 H10 1_555 1_555
C21 C20 1_555 1_555
H11 C21 1_555 1_555
C22 C21 1_555 1_555
C26 C22 1_555 1_555
H14 C26 1_555 1_555
C27 C19 1_555 1_555
H15 C27 1_555 1_555
H19 C34 1_555 1_555
C37 C36 1_555 1_555
H21 C37 1_555 1_555
C38 C37 1_555 1_555
H22 C38 1_555 1_555
C39 C38 1_555 1_555
C40 N3 1_555 1_555
H23 C40 1_555 1_555
C41 N4 1_555 1_555
H24 C41 1_555 1_555
C42 N3 1_555 1_555
H25 C42 1_555 1_555
C43 C39 1_555 1_555
H26 C43 1_555 1_555
C44 C36 1_555 1_555
C47 N5 1_555 1_555
H30 C47 1_555 1_555
C48 N6 1_555 1_555
C49 C48 1_555 1_555
H31 C49 1_555 1_555
C50 C49 1_555 1_555
H32 C50 1_555 1_555
C51 C50 1_555 1_555
C52 C51 1_555 1_555
H33 C52 1_555 1_555
C53 C48 1_555 1_555
H34 C53 1_555 1_555
C54 C51 1_555 1_555
C55 C54 1_555 1_555
H35 C55 1_555 1_555
C56 C55 1_555 1_555
H36 C56 1_555 1_555
C57 C56 1_555 1_555
C60 N7 1_555 1_555
H39 C60 1_555 1_555
C61 C57 1_555 1_555
H40 C61 1_555 1_555
C62 C54 1_555 1_555
H41 C62 1_555 1_555
C63 N6 1_555 1_555
H42 C63 1_555 1_555
C64 N5 1_555 1_555
H43 C64 1_555 1_555
C81 O16 1_555 1_555
C82 C81 1_555 1_555
H52 C82 1_555 1_555
C83 C82 1_555 1_555
H53 C83 1_555 1_555
C84 C83 1_555 1_555
C85 C84 1_555 1_555
C86 C84 1_555 1_555
H54 C86 1_555 1_555
C87 C81 1_555 1_555
H55 C87 1_555 1_555
O27 Co11 1_555 1_555
N10 Co9 1_555 1_555
N4 C40 1_555 1_555
C26 C27 1_555 1_555
C41 C42 1_555 1_555
C43 C44 1_555 1_555
C52 C53 1_555 1_555
C61 C62 1_555 1_555
C63 C64 1_555 1_555
C86 C87 1_555 1_555
N10 C58 1_555 1_555
H37 C58 1_555 1_555
C59 N10 1_555 1_555
H38 C59 1_555 1_555
O13 C71 1_555 1_555
O26 C76 1_555 1_555
O27 C76 1_555 1_555
C69 O12 1_555 1_555
C70 C69 1_555 1_555
H46 C70 1_555 1_555
C71 C70 1_555 1_555
C72 O13 1_555 1_555
C73 C72 1_555 1_555
H47 C73 1_555 1_555
C74 C73 1_555 1_555
H48 C74 1_555 1_555
C75 C74 1_555 1_555
C76 C75 1_555 1_555
C77 C75 1_555 1_555
H49 C77 1_555 1_555
C78 C72 1_555 1_555
H50 C78 1_555 1_555
C79 C71 1_555 1_555
H51 C79 1_555 1_555
C80 C79 1_555 1_555
C88 C69 1_555 1_555
H56 C88 1_555 1_555
C77 C78 1_555 1_555
C80 C88 1_555 1_555
H45 C67 1_555 1_555
C68 C67 1_555 1_555
C89 C68 1_555 1_555
H57 C89 1_555 1_555
H58 C90 1_555 1_555
C89 C90 1_555 1_555
O13_2 C71_2 1_555 1_555
O14 C76_2 1_555 1_555
O15 C76_2 1_555 1_555
C69_2 O12_2 1_555 1_555
C70_2 C69_2 1_555 1_555
H46_2 C70_2 1_555 1_555
C71_2 C70_2 1_555 1_555
C72_2 O13_2 1_555 1_555
C73_2 C72_2 1_555 1_555
H47_2 C73_2 1_555 1_555
C74_2 C73_2 1_555 1_555
H48_2 C74_2 1_555 1_555
C75_2 C74_2 1_555 1_555
C76_2 C75_2 1_555 1_555
C77_2 C75_2 1_555 1_555
H49_2 C77_2 1_555 1_555
C78_2 C72_2 1_555 1_555
H50_2 C78_2 1_555 1_555
C79_2 C71_2 1_555 1_555
H51_2 C79_2 1_555 1_555
C80_2 C79_2 1_555 1_555
C88_2 C69_2 1_555 1_555
H56_2 C88_2 1_555 1_555
Co4 O14 1_555 1_555
Co10 O14 1_555 1_555
O15 Co10 1_555 1_555
C77_2 C78_2 1_555 1_555
C80_2 C88_2 1_555 1_555
N8 C58_2 1_555 1_555
H37_2 C58_2 1_555 1_555
C59_2 N8 1_555 1_555
H38_2 C59_2 1_555 1_555
Co7 N8 1_555 1_555
Co7 O7_2 1_555 1_555
Co10 O18_2 1_555 1_555
O7_2 C18_2 1_555 1_555
O8 C18_2 1_555 1_555
O9_2 C22_2 1_555 1_555
O17 C85_2 1_555 1_555
O18_2 C85_2 1_555 1_555
N3_2 C39_2 1_555 1_555
N4_2 Co7 1_555 1_555
N5_2 Co10 1_555 1_555
N6_2 C47_2 1_555 1_555
N7_2 C57_2 1_555 1_555
C18_2 C19_2 1_555 1_555
C19_2 C20_2 1_555 1_555
C20_2 H10_2 1_555 1_555
C21_2 C20_2 1_555 1_555
H11_2 C21_2 1_555 1_555
C22_2 C21_2 1_555 1_555
C26_2 C22_2 1_555 1_555
H14_2 C26_2 1_555 1_555
C27_2 C19_2 1_555 1_555
H15_2 C27_2 1_555 1_555
H19_2 C34_2 1_555 1_555
C37_2 C36_2 1_555 1_555
H21_2 C37_2 1_555 1_555
C38_2 C37_2 1_555 1_555
H22_2 C38_2 1_555 1_555
C39_2 C38_2 1_555 1_555
C40_2 N3_2 1_555 1_555
H23_2 C40_2 1_555 1_555
C41_2 N4_2 1_555 1_555
H24_2 C41_2 1_555 1_555
C42_2 N3_2 1_555 1_555
H25_2 C42_2 1_555 1_555
C43_2 C39_2 1_555 1_555
H26_2 C43_2 1_555 1_555
C44_2 C36_2 1_555 1_555
C47_2 N5_2 1_555 1_555
H30_2 C47_2 1_555 1_555
C48_2 N6_2 1_555 1_555
C49_2 C48_2 1_555 1_555
H31_2 C49_2 1_555 1_555
C50_2 C49_2 1_555 1_555
H32_2 C50_2 1_555 1_555
C51_2 C50_2 1_555 1_555
C52_2 C51_2 1_555 1_555
H33_2 C52_2 1_555 1_555
C53_2 C48_2 1_555 1_555
H34_2 C53_2 1_555 1_555
C54_2 C51_2 1_555 1_555
C55_2 C54_2 1_555 1_555
H35_2 C55_2 1_555 1_555
C56_2 C55_2 1_555 1_555
H36_2 C56_2 1_555 1_555
C57_2 C56_2 1_555 1_555
C60_2 N7_2 1_555 1_555
H39_2 C60_2 1_555 1_555
C61_2 C57_2 1_555 1_555
H40_2 C61_2 1_555 1_555
C62_2 C54_2 1_555 1_555
H41_2 C62_2 1_555 1_555
C63_2 N6_2 1_555 1_555
H42_2 C63_2 1_555 1_555
C64_2 N5_2 1_555 1_555
H43_2 C64_2 1_555 1_555
C81_2 O16_2 1_555 1_555
C82_2 C81_2 1_555 1_555
H52_2 C82_2 1_555 1_555
C83_2 C82_2 1_555 1_555
H53_2 C83_2 1_555 1_555
C84_2 C83_2 1_555 1_555
C85_2 C84_2 1_555 1_555
C86_2 C84_2 1_555 1_555
H54_2 C86_2 1_555 1_555
C87_2 C81_2 1_555 1_555
H55_2 C87_2 1_555 1_555
Co4 O8 1_555 1_555
O19 Co7 1_555 1_555
O21 Co7 1_555 1_555
O22 Co7 1_555 1_555
O24 Co10 1_555 1_555
N9 Co10 1_555 1_555
O17 Co4 1_555 1_555
N4_2 C40_2 1_555 1_555
C26_2 C27_2 1_555 1_555
C41_2 C42_2 1_555 1_555
C43_2 C44_2 1_555 1_555
C52_2 C53_2 1_555 1_555
C61_2 C62_2 1_555 1_555
C63_2 C64_2 1_555 1_555
C86_2 C87_2 1_555 1_555
Co4 O19 1_555 1_555
Co4 O5_2 1_555 1_555
O3_2 C5_2 1_555 1_555
O22 C9_2 1_555 1_555
O5_2 C9_2 1_555 1_555
O6_2 C13_2 1_555 1_555
O10_2 Co4 1_555 1_555
O24 C28_2 1_555 1_555
N9 C29_2 1_555 1_555
N2_2 C29_2 1_555 1_555
H2_2 C4_2 1_555 1_555
C5_2 C4_2 1_555 1_555
C6_2 O3_2 1_555 1_555
C7_2 C5_2 1_555 1_555
H3_2 C7_2 1_555 1_555
C9_2 C10_2 1_555 1_555
C10_2 C11_2 1_555 1_555
C11_2 H5_2 1_555 1_555
C12_2 C11_2 1_555 1_555
H6_2 C12_2 1_555 1_555
C13_2 C12_2 1_555 1_555
C14_2 O6_2 1_555 1_555
C15_2 C6_2 1_555 1_555
H7_2 C15_2 1_555 1_555
C16_2 C13_2 1_555 1_555
H8_2 C16_2 1_555 1_555
C17_2 C10_2 1_555 1_555
H9_2 C17_2 1_555 1_555
C24_2 C6_2 1_555 1_555
H12_2 C24_2 1_555 1_555
C25_2 C14_2 1_555 1_555
C28_2 O10_2 1_555 1_555
C29_2 H16_2 1_555 1_555
C30_2 N2_2 1_555 1_555
C31_2 C30_2 1_555 1_555
H17_2 C31_2 1_555 1_555
C32_2 C31_2 1_555 1_555
H18_2 C32_2 1_555 1_555
C33_2 C32_2 1_555 1_555
C35_2 C30_2 1_555 1_555
H20_2 C35_2 1_555 1_555
C45_2 N2_2 1_555 1_555
H28_2 C45_2 1_555 1_555
C46_2 N9 1_555 1_555
H29_2 C46_2 1_555 1_555
C65_2 C28_2 1_555 1_555
C66_2 C65_2 1_555 1_555
H44_2 C66_2 1_555 1_555
C14_2 C15_2 1_555 1_555
C16_2 C17_2 1_555 1_555
C23_2 C24_2 1_555 1_555
C23_2 C25_2 1_555 1_555
C45_2 C46_2 1_555 1_555
O19 C1_2 1_555 1_555
O21 C1_2 1_555 1_555
C1_2 C2_2 1_555 1_555
C2_2 C3_2 1_555 1_555
C3_2 H1_2 1_555 1_555
C8_2 C2_2 1_555 1_555
H4_2 C8_2 1_555 1_555
H45_2 C67_2 1_555 1_555
C68_2 C67_2 1_555 1_555
C89_2 C68_2 1_555 1_555
H57_2 C89_2 1_555 1_555
H58_2 C90_2 1_555 1_555
C89_2 C90_2 1_555 1_555

#END
