
###############################################################################
#
# This file contains modified crystal structure data generated from the
# MOF subset of the Cambridge Structural Database (CSD) v543 
# hosted by the Cambridge Crystallographic Data Centre (CCDC).
#
# This work is licensed under the Creative Commons
# Attribution-NonCommercial-ShareAlike 4.0 International License.
# To view a copy of this license, visit
# http://creativecommons.org/licenses/by-nc-sa/4.0/
# or send a letter to
# Creative Commons, PO Box 1866, Mountain View, CA 94042, USA.
#
# CIF created using the CSD Python API on 29 September 2022
# The structure has been converted into the P1 space group
# The structure has a 3D framework
# The original CSD entry VIRJEM is in the trigonal crystal system
# The framework has been calculated to contain at least 10.0% void space
# The void calculation uses a probe of radius 1.32A, grid spacing 0.4
# The framework is charged, counterions have been retained in the structure
#
###############################################################################

data_VIRJEM
_chemical_formula_moiety         '(C12 H12 Mn13 O24 4-)n'
_symmetry_cell_setting           triclinic
_symmetry_space_group_name_H-M   'P 1'
_symmetry_Int_Tables_number      1
_space_group_name_Hall           'P 1'
loop_
_symmetry_equiv_pos_site_id
_symmetry_equiv_pos_as_xyz
1 x,y,z
_cell_length_a                   8.3176(4)
_cell_length_b                   8.3176(4)
_cell_length_c                   15.0651(5)
_cell_angle_alpha                90
_cell_angle_beta                 90
_cell_angle_gamma                120
_cell_volume                     902.607
loop_
_atom_site_label
_atom_site_type_symbol
_atom_site_fract_x
_atom_site_fract_y
_atom_site_fract_z
Mn1 Mn 0.0000 0.0000 0.0000
Mn2 Mn 0.3333 0.6667 0.2500
O2 O 0.1099(2) 0.4558(3) 0.16900(10)
C1 C 0.1104(3) 0.3265(3) 0.12803(14)
H1 H 0.2178 0.3187 0.1324
O4 O 0.2230(3) 0.0151(2) 0.08246(10)
O13 O 0.5442(3) 0.6541(4) 0.16900(10)
O14 O 0.3459(4) 0.8901(2) 0.16900(10)
O15 O 0.3459(4) 0.4558(3) 0.33100(10)
O16 O 0.1099(2) 0.6541(4) 0.33100(10)
O17 O 0.5442(3) 0.8901(2) 0.33100(10)
Mn1_2 Mn 0.0000 0.0000 1.0000
Mn6 Mn 0.6667 0.3333 0.7500
O6 O 0.2079(2) 0.2230(3) 0.91754(10)
O11 O 0.4558(3) 0.3459(4) 0.83100(10)
C5 C 0.3265(3) 0.2161(4) 0.87197(14)
H5 H 0.3187 0.1009 0.8676
Mn1_3 Mn 0.0000 1.0000 0.0000
C3 C 0.2161(4) 0.8896(3) 0.12803(14)
H3 H 0.1009 0.7822 0.1324
Mn1_4 Mn 1.0000 0.0000 1.0000
O12 O 0.6541(4) 0.1099(2) 0.83100(10)
C6 C 0.7839(4) 0.1104(3) 0.87197(14)
H6 H 0.8991 0.2178 0.8676
Mn1_5 Mn 1.0000 1.0000 0.0000
O3 O 0.7921(2) 0.7770(3) 0.08246(10)
C2 C 0.6735(3) 0.7839(4) 0.12803(14)
H2 H 0.6813 0.8991 0.1324
Mn1_6 Mn 1.0000 1.0000 1.0000
O7 O 0.7770(3) 0.9849(2) 0.91754(10)
O10 O 0.8901(2) 0.5442(3) 0.83100(10)
C4 C 0.8896(3) 0.6735(3) 0.87197(14)
H4 H 0.7822 0.6813 0.8676
Mn1_7 Mn 0.0000 0.0000 0.5000
O1 O 0.2230(3) 0.2079(2) 0.41754(10)
C1_2 C 0.2161(4) 0.3265(3) 0.37197(14)
H1_2 H 0.1009 0.3187 0.3676
O6_2 O 0.0151(4) 0.2230(3) 0.58246(10)
O12_2 O 0.4558(4) 0.1099(2) 0.66900(10)
C6_2 C 0.3265(5) 0.1104(3) 0.62803(14)
H6_2 H 0.3187 0.2178 0.6324
Mn1_8 Mn 0.0000 1.0000 0.5000
O7_2 O 0.2079(4) 0.9849(2) 0.58246(10)
C2_2 C 0.1104(5) 0.7839(4) 0.37197(14)
H2_2 H 0.2178 0.8991 0.3676
Mn1_9 Mn 1.0000 0.0000 0.5000
O4_2 O 0.7921(4) 0.0151(2) 0.41754(10)
O11_2 O 0.8901(5) 0.3459(4) 0.66900(10)
C5_2 C 0.8896(5) 0.2161(4) 0.62803(14)
H5_2 H 0.7822 0.1009 0.6324
Mn1_10 Mn 1.0000 1.0000 0.5000
O3_2 O 0.9849(4) 0.7770(3) 0.41754(10)
O5 O 0.7770(3) 0.7921(2) 0.58246(10)
O10_2 O 0.6541(4) 0.5442(3) 0.66900(10)
C3_2 C 0.6735(5) 0.8896(3) 0.37197(14)
C4_2 C 0.7839(4) 0.6735(3) 0.62803(14)
H3_2 H 0.6813 0.7822 0.3676
H4_2 H 0.8991 0.6813 0.6324
Mn1_11 Mn 0.0000 1.0000 1.0000
O5_2 O 0.0151(2) 0.7921(2) 0.91754(10)
Mn1_12 Mn 1.0000 0.0000 0.0000
O1_2 O 0.9849(2) 0.2079(2) 0.08246(10)
loop_
_geom_bond_atom_site_label_1
_geom_bond_atom_site_label_2
_geom_bond_site_symmetry_1
_geom_bond_site_symmetry_2
Mn2 O2 1_555 1_555
O2 C1 1_555 1_555
C1 H1 1_555 1_555
O4 Mn1 1_555 1_555
O13 Mn2 1_555 1_555
O14 Mn2 1_555 1_555
O15 Mn2 1_555 1_555
O16 Mn2 1_555 1_555
O17 Mn2 1_555 1_555
Mn6 O11 1_555 1_555
O6 Mn1_2 1_555 1_555
O11 C5 1_555 1_555
C5 O6 1_555 1_555
H5 C5 1_555 1_555
O14 C3 1_555 1_555
H3 C3 1_555 1_555
Mn6 O12 1_555 1_555
O12 C6 1_555 1_555
H6 C6 1_555 1_555
O3 Mn1_5 1_555 1_555
O13 C2 1_555 1_555
C2 O3 1_555 1_555
H2 C2 1_555 1_555
Mn6 O10 1_555 1_555
O7 Mn1_6 1_555 1_555
O10 C4 1_555 1_555
H4 C4 1_555 1_555
Mn1_7 O1 1_555 1_555
O1 C1_2 1_555 1_555
O15 C1_2 1_555 1_555
C1_2 H1_2 1_555 1_555
Mn6 O12_2 1_555 1_555
O6_2 Mn1_7 1_555 1_555
O12_2 C6_2 1_555 1_555
H6_2 C6_2 1_555 1_555
O7_2 Mn1_8 1_555 1_555
O16 C2_2 1_555 1_555
H2_2 C2_2 1_555 1_555
Mn6 O11_2 1_555 1_555
O4_2 Mn1_9 1_555 1_555
O11_2 C5_2 1_555 1_555
H5_2 C5_2 1_555 1_555
Mn6 O10_2 1_555 1_555
O3_2 Mn1_10 1_555 1_555
O5 Mn1_10 1_555 1_555
O17 C3_2 1_555 1_555
O10_2 C4_2 1_555 1_555
C4_2 O5 1_555 1_555
H3_2 C3_2 1_555 1_555
H4_2 C4_2 1_555 1_555
O5_2 Mn1_11 1_555 1_555
Mn1_12 O1_2 1_555 1_555

#END
