
###############################################################################
#
# This file contains modified crystal structure data generated from the
# MOF subset of the Cambridge Structural Database (CSD) v543 
# hosted by the Cambridge Crystallographic Data Centre (CCDC).
#
# This work is licensed under the Creative Commons
# Attribution-NonCommercial-ShareAlike 4.0 International License.
# To view a copy of this license, visit
# http://creativecommons.org/licenses/by-nc-sa/4.0/
# or send a letter to
# Creative Commons, PO Box 1866, Mountain View, CA 94042, USA.
#
# CIF created using the CSD Python API on 29 September 2022
# The structure has been converted into the P1 space group
# The structure has a 3D framework
# The original CSD entry VIRJIQ is in the trigonal crystal system
# The framework has been calculated to contain at least 10.0% void space
# The void calculation uses a probe of radius 1.32A, grid spacing 0.4
# The framework is charged, counterions have been retained in the structure
#
###############################################################################

data_VIRJIQ
_chemical_formula_moiety         '(C12 H12 Co13 O24 4-)n'
_symmetry_cell_setting           triclinic
_symmetry_space_group_name_H-M   'P 1'
_symmetry_Int_Tables_number      1
_space_group_name_Hall           'P 1'
loop_
_symmetry_equiv_pos_site_id
_symmetry_equiv_pos_as_xyz
1 x,y,z
_cell_length_a                   8.1805(4)
_cell_length_b                   8.1805(4)
_cell_length_c                   14.6798(6)
_cell_angle_alpha                90
_cell_angle_beta                 90
_cell_angle_gamma                120
_cell_volume                     850.767
loop_
_atom_site_label
_atom_site_type_symbol
_atom_site_fract_x
_atom_site_fract_y
_atom_site_fract_z
Co1 Co 0.0000 0.0000 0.0000
Co2 Co 0.3333 0.6667 0.2500
O1 O 0.2180(3) 0.2067(3) 0.08090(12)
O2 O 0.3437(3) 0.4588(3) 0.16993(12)
C1 C 0.2103(4) 0.3265(4) 0.12826(18)
H1 H 0.0929 0.3176 0.1336
O13 O 0.5412(3) 0.8849(4) 0.16993(12)
O14 O 0.1151(4) 0.6563(3) 0.16993(12)
O15 O 0.1151(4) 0.4588(3) 0.33007(12)
O16 O 0.3437(3) 0.8849(4) 0.33007(12)
O17 O 0.5412(3) 0.6563(3) 0.33007(12)
Co1_2 Co 0.0000 0.0000 1.0000
Co6 Co 0.6667 0.3333 0.7500
O7 O 0.0113(4) 0.2180(3) 0.91910(12)
O11 O 0.4588(3) 0.1151(4) 0.83007(12)
C5 C 0.3265(4) 0.1162(6) 0.87174(18)
H5 H 0.3176 0.2247 0.8664
Co1_3 Co 0.0000 1.0000 0.0000
C3 C 0.1162(6) 0.7897(4) 0.12826(18)
H3 H 0.2247 0.9071 0.1336
Co1_4 Co 1.0000 0.0000 1.0000
O12 O 0.8849(4) 0.3437(3) 0.83007(12)
C6 C 0.8838(6) 0.2103(4) 0.87174(18)
H6 H 0.7753 0.0929 0.8664
Co1_5 Co 1.0000 1.0000 0.0000
O4 O 0.9887(4) 0.7820(3) 0.08090(12)
C2 C 0.6735(4) 0.8838(6) 0.12826(18)
H2 H 0.6824 0.7753 0.1336
Co1_6 Co 1.0000 1.0000 1.0000
O5 O 0.7820(3) 0.7933(3) 0.91910(12)
O10 O 0.6563(3) 0.5412(3) 0.83007(12)
C4 C 0.7897(4) 0.6735(4) 0.87174(18)
H4 H 0.9071 0.6824 0.8664
Co1_7 Co 0.0000 0.0000 0.5000
C1_2 C 0.1162(6) 0.3265(4) 0.37174(18)
H1_2 H 0.2247 0.3176 0.3664
O3 O 0.2180(5) 0.0113(4) 0.41910(12)
O7_2 O 0.2067(5) 0.2180(3) 0.58090(12)
O12_2 O 0.4588(5) 0.3437(3) 0.66993(12)
C6_2 C 0.3265(7) 0.2103(4) 0.62826(18)
H6_2 H 0.3176 0.0929 0.6336
Co1_8 Co 0.0000 1.0000 0.5000
O5_2 O 0.0113(4) 0.7933(3) 0.58090(12)
C2_2 C 0.2103(7) 0.8838(6) 0.37174(18)
H2_2 H 0.0929 0.7753 0.3664
Co1_9 Co 1.0000 0.0000 0.5000
O1_2 O 0.9887(4) 0.2067(3) 0.41910(12)
O11_2 O 0.6563(5) 0.1151(4) 0.66993(12)
C5_2 C 0.7897(7) 0.1162(6) 0.62826(18)
H5_2 H 0.9071 0.2247 0.6336
Co1_10 Co 1.0000 1.0000 0.5000
O4_2 O 0.7933(5) 0.7820(3) 0.41910(12)
O6 O 0.7820(5) 0.9887(4) 0.58090(12)
O10_2 O 0.8849(4) 0.5412(3) 0.66993(12)
C3_2 C 0.6735(7) 0.7897(4) 0.37174(18)
C4_2 C 0.8838(6) 0.6735(4) 0.62826(18)
H3_2 H 0.6824 0.9071 0.3664
H4_2 H 0.7753 0.6824 0.6336
Co1_11 Co 0.0000 1.0000 1.0000
O6_2 O 0.2067(3) 0.9887(4) 0.91910(12)
Co1_12 Co 1.0000 0.0000 0.0000
O3_2 O 0.7933(3) 0.0113(4) 0.08090(12)
loop_
_geom_bond_atom_site_label_1
_geom_bond_atom_site_label_2
_geom_bond_site_symmetry_1
_geom_bond_site_symmetry_2
Co1 O1 1_555 1_555
Co2 O2 1_555 1_555
O1 C1 1_555 1_555
O2 C1 1_555 1_555
C1 H1 1_555 1_555
O13 Co2 1_555 1_555
O14 Co2 1_555 1_555
O15 Co2 1_555 1_555
O16 Co2 1_555 1_555
O17 Co2 1_555 1_555
Co6 O11 1_555 1_555
O7 Co1_2 1_555 1_555
O11 C5 1_555 1_555
H5 C5 1_555 1_555
O14 C3 1_555 1_555
H3 C3 1_555 1_555
Co6 O12 1_555 1_555
O12 C6 1_555 1_555
H6 C6 1_555 1_555
O4 Co1_5 1_555 1_555
O13 C2 1_555 1_555
H2 C2 1_555 1_555
Co6 O10 1_555 1_555
O5 Co1_6 1_555 1_555
O10 C4 1_555 1_555
C4 O5 1_555 1_555
H4 C4 1_555 1_555
O15 C1_2 1_555 1_555
C1_2 H1_2 1_555 1_555
Co6 O12_2 1_555 1_555
O3 Co1_7 1_555 1_555
O7_2 Co1_7 1_555 1_555
O12_2 C6_2 1_555 1_555
C6_2 O7_2 1_555 1_555
H6_2 C6_2 1_555 1_555
O5_2 Co1_8 1_555 1_555
O16 C2_2 1_555 1_555
H2_2 C2_2 1_555 1_555
Co1_9 O1_2 1_555 1_555
Co6 O11_2 1_555 1_555
O11_2 C5_2 1_555 1_555
H5_2 C5_2 1_555 1_555
Co6 O10_2 1_555 1_555
O4_2 Co1_10 1_555 1_555
O6 Co1_10 1_555 1_555
O17 C3_2 1_555 1_555
O10_2 C4_2 1_555 1_555
C3_2 O4_2 1_555 1_555
H3_2 C3_2 1_555 1_555
H4_2 C4_2 1_555 1_555
O6_2 Co1_11 1_555 1_555
O3_2 Co1_12 1_555 1_555

#END
