
###############################################################################
#
# This file contains modified crystal structure data generated from the
# MOF subset of the Cambridge Structural Database (CSD) v543 
# hosted by the Cambridge Crystallographic Data Centre (CCDC).
#
# This work is licensed under the Creative Commons
# Attribution-NonCommercial-ShareAlike 4.0 International License.
# To view a copy of this license, visit
# http://creativecommons.org/licenses/by-nc-sa/4.0/
# or send a letter to
# Creative Commons, PO Box 1866, Mountain View, CA 94042, USA.
#
# CIF created using the CSD Python API on 29 September 2022
# The structure has been converted into the P1 space group
# The structure has a 3D framework
# The original CSD entry VIRPOC is in the cubic crystal system
# The framework has been calculated to contain at least 10.0% void space
# The void calculation uses a probe of radius 1.32A, grid spacing 0.4
# H atom positions have been added when not included in the experimental data
#
###############################################################################

data_VIRPOC
_chemical_formula_moiety         '(C192 H576 N312 Ni120 O254)n'
_symmetry_cell_setting           triclinic
_symmetry_space_group_name_H-M   'P 1'
_symmetry_Int_Tables_number      1
_space_group_name_Hall           'P 1'
loop_
_symmetry_equiv_pos_site_id
_symmetry_equiv_pos_as_xyz
1 x,y,z
_cell_length_a                   25.2102(4)
_cell_length_b                   25.2102(4)
_cell_length_c                   25.2102(4)
_cell_angle_alpha                90
_cell_angle_beta                 90
_cell_angle_gamma                90
_cell_volume                     16022.4
loop_
_atom_site_label
_atom_site_type_symbol
_atom_site_fract_x
_atom_site_fract_y
_atom_site_fract_z
Ni1 Ni 0.307247(14) 0.5000 0.057247(14)
O1 O 0.2500 0.5000 0.0000
O2 O 0.34911(17) 0.45220(16) 0.00846(17)
N1 N 0.27119(11) 0.43491(11) 0.08851(11)
N2 N 0.2500 0.36429(9) 0.13571(9)
C1 C 0.28240(12) 0.40606(12) 0.13096(13)
H1 H 0.3096 0.4139 0.1547
Ni3 Ni 0.192753(14) 0.442753(14) 0.0000
Ni4 Ni 0.2500 0.307247(14) 0.192753(14)
Ni5 Ni 0.442753(14) 0.692753(14) 0.0000
Ni6 Ni 0.442753(14) 0.557247(14) 0.2500
Ni7 Ni 0.5000 0.442753(14) 0.192753(14)
O3 O 0.25846(17) 0.54780(16) 0.09911(17)
O7 O 0.15089(17) 0.49154(17) 0.04780(16)
N3 N 0.22881(11) 0.41149(11) 0.06509(11)
N4 N 0.33851(11) 0.56509(11) 0.02119(11)
N6 N 0.41149(11) 0.52119(11) 0.18491(11)
N7 N 0.43491(11) 0.47881(11) 0.16149(11)
N10 N 0.38571(9) 0.63571(9) 0.0000
N11 N 0.36429(9) 0.5000 0.11429(9)
N13 N 0.13571(9) 0.38571(9) 0.0000
C2 C 0.21760(12) 0.36904(13) 0.09394(12)
C3 C 0.38096(13) 0.59394(12) 0.03240(12)
C5 C 0.36904(13) 0.53240(12) 0.15606(12)
C6 C 0.40606(12) 0.46760(12) 0.11904(13)
H2 H 0.1904 0.3453 0.0861
H3 H 0.4047 0.5861 0.0596
H5 H 0.3453 0.5596 0.1639
H6 H 0.4139 0.4404 0.0953
H10 H 0.383468 0.443009 0.0253876
H11 H 0.224408 0.529174 0.105818
H12 H 0.275388 0.556991 0.133468
H13 H 0.220826 0.605818 0.0255925
H15 H 0.144182 0.525592 0.0291743
H16 H 0.116532 0.474612 0.056991
O1_2 O 0.2500 0.5000 1.0000
Ni2 Ni 0.2500 0.557247(14) 0.942753(14)
Ni3_2 Ni 0.192753(14) 0.442753(14) 1.0000
Ni5_2 Ni 0.442753(14) 0.692753(14) 1.0000
O4 O 0.20220(16) 0.59911(17) 0.99154(17)
O5 O 0.29780(16) 0.50846(17) 0.90089(17)
O6 O 0.24154(17) 0.40089(17) 0.95220(16)
N5 N 0.31509(11) 0.58851(11) 0.97881(11)
N8 N 0.18491(11) 0.52119(11) 0.91149(11)
N9 N 0.16149(11) 0.47881(11) 0.93491(11)
N10_2 N 0.38571(9) 0.63571(9) 1.0000
N12 N 0.2500 0.61429(9) 0.88571(9)
N13_2 N 0.13571(9) 0.38571(9) 1.0000
C4 C 0.34394(12) 0.63096(13) 0.96760(12)
H4 H 0.3361 0.6547 0.9404
H7 H 0.275592 0.394182 0.970826
H8 H 0.224612 0.366532 0.943009
H9 H 0.355818 0.470826 0.974408
H14 H 0.193009 0.633468 0.974612
H17 H 0.279174 0.474408 0.894182
H18 H 0.306991 0.525388 0.866532
Ni1_2 Ni 0.057247(14) 0.307247(14) 0.5000
O1_3 O -0.0000 0.2500 0.5000
O2_2 O 0.00846(17) 0.34911(17) 0.45220(16)
N1_2 N 0.08851(11) 0.27119(11) 0.43491(11)
N2_2 N 0.13571(9) 0.2500 0.36429(9)
C1_2 C 0.13096(13) 0.28240(12) 0.40606(12)
H1_2 H 0.1547 0.3096 0.4139
Ni3_3 Ni -0.0000 0.192753(14) 0.442753(14)
Ni4_2 Ni 0.192753(14) 0.2500 0.307247(14)
Ni5_3 Ni -0.0000 0.442753(14) 0.692753(14)
Ni6_2 Ni 0.2500 0.442753(14) 0.557247(14)
Ni7_2 Ni 0.192753(14) 0.5000 0.442753(14)
O3_2 O 0.09911(17) 0.25846(17) 0.54780(16)
O7_2 O 0.04780(16) 0.15089(17) 0.49154(17)
N3_2 N 0.06509(11) 0.22881(11) 0.41149(11)
N4_2 N 0.02119(11) 0.33851(11) 0.56509(11)
N6_2 N 0.18491(11) 0.41149(11) 0.52119(11)
N7_2 N 0.16149(11) 0.43491(11) 0.47881(11)
N10_3 N -0.0000 0.38571(9) 0.63571(9)
N11_2 N 0.11429(9) 0.36429(9) 0.5000
N13_3 N -0.0000 0.13571(9) 0.38571(9)
C2_2 C 0.09394(12) 0.21760(12) 0.36904(13)
C3_2 C 0.03240(12) 0.38096(13) 0.59394(12)
C5_2 C 0.15606(12) 0.36904(13) 0.53240(12)
C6_2 C 0.11904(13) 0.40606(12) 0.46760(12)
H2_2 H 0.0861 0.1904 0.3453
H3_2 H 0.0596 0.4047 0.5861
H5_2 H 0.1639 0.3453 0.5596
H6_2 H 0.0953 0.4139 0.4404
H10_2 H 0.0253876 0.383468 0.443009
H11_2 H 0.105818 0.224408 0.529174
H12_2 H 0.133468 0.275388 0.556991
H13_2 H 0.0255925 0.220826 0.605818
H15_2 H 0.0291743 0.144182 0.525592
H16_2 H 0.056991 0.116532 0.474612
O1_4 O 1.0000 0.2500 0.5000
Ni2_2 Ni 0.942753(14) 0.2500 0.557247(14)
Ni3_4 Ni 1.0000 0.192753(14) 0.442753(14)
Ni5_4 Ni 1.0000 0.442753(14) 0.692753(14)
O4_2 O 0.99154(17) 0.20220(16) 0.59911(17)
O5_2 O 0.90089(17) 0.29780(16) 0.50846(17)
O6_2 O 0.95220(16) 0.24154(17) 0.40089(17)
N5_2 N 0.97881(11) 0.31509(11) 0.58851(11)
N8_2 N 0.91149(11) 0.18491(11) 0.52119(11)
N9_2 N 0.93491(11) 0.16149(11) 0.47881(11)
N10_4 N 1.0000 0.38571(9) 0.63571(9)
N12_2 N 0.88571(9) 0.2500 0.61429(9)
N13_4 N 1.0000 0.13571(9) 0.38571(9)
C4_2 C 0.96760(12) 0.34394(12) 0.63096(13)
H4_2 H 0.9404 0.3361 0.6547
H7_2 H 0.970826 0.275592 0.394182
H8_2 H 0.943009 0.224612 0.366532
H9_2 H 0.974408 0.355818 0.470826
H14_2 H 0.974612 0.193009 0.633468
H17_2 H 0.894182 0.279174 0.474408
H18_2 H 0.866532 0.306991 0.525388
Ni1_3 Ni 0.5000 0.057247(14) 0.307247(14)
O1_5 O 0.5000 -0.0000 0.2500
O2_3 O 0.45220(16) 0.00846(17) 0.34911(17)
N1_3 N 0.43491(11) 0.08851(11) 0.27119(11)
N2_3 N 0.36429(9) 0.13571(9) 0.2500
C1_3 C 0.40606(12) 0.13096(13) 0.28240(12)
H1_3 H 0.4139 0.1547 0.3096
Ni3_5 Ni 0.442753(14) 0.0000 0.192753(14)
Ni4_3 Ni 0.307247(14) 0.192753(14) 0.2500
Ni5_5 Ni 0.692753(14) -0.0000 0.442753(14)
Ni6_3 Ni 0.557247(14) 0.2500 0.442753(14)
Ni7_3 Ni 0.442753(14) 0.192753(14) 0.5000
O3_3 O 0.54780(16) 0.09911(17) 0.25846(17)
O7_3 O 0.49154(17) 0.04780(16) 0.15089(17)
N3_3 N 0.41149(11) 0.06509(11) 0.22881(11)
N4_3 N 0.56509(11) 0.02119(11) 0.33851(11)
N6_3 N 0.52119(11) 0.18491(11) 0.41149(11)
N7_3 N 0.47881(11) 0.16149(11) 0.43491(11)
N10_5 N 0.63571(9) -0.0000 0.38571(9)
N11_3 N 0.5000 0.11429(9) 0.36429(9)
N13_5 N 0.38571(9) 0.0000 0.13571(9)
C2_3 C 0.36904(13) 0.09394(12) 0.21760(12)
C3_3 C 0.59394(12) 0.03240(12) 0.38096(13)
C5_3 C 0.53240(12) 0.15606(12) 0.36904(13)
C6_3 C 0.46760(12) 0.11904(13) 0.40606(12)
H2_3 H 0.3453 0.0861 0.1904
H3_3 H 0.5861 0.0596 0.4047
H5_3 H 0.5596 0.1639 0.3453
H6_3 H 0.4404 0.0953 0.4139
H10_3 H 0.443009 0.0253876 0.383468
H11_3 H 0.529174 0.105818 0.224408
H12_3 H 0.556991 0.133468 0.275388
H13_3 H 0.605818 0.0255925 0.220826
H15_3 H 0.525592 0.0291743 0.144182
H16_3 H 0.474612 0.056991 0.116532
O1_6 O 0.5000 1.0000 0.2500
Ni2_3 Ni 0.557247(14) 0.942753(14) 0.2500
Ni3_6 Ni 0.442753(14) 1.0000 0.192753(14)
Ni5_6 Ni 0.692753(14) 1.0000 0.442753(14)
O4_3 O 0.59911(17) 0.99154(17) 0.20220(16)
O5_3 O 0.50846(17) 0.90089(17) 0.29780(16)
O6_3 O 0.40089(17) 0.95220(16) 0.24154(17)
N5_3 N 0.58851(11) 0.97881(11) 0.31509(11)
N8_3 N 0.52119(11) 0.91149(11) 0.18491(11)
N9_3 N 0.47881(11) 0.93491(11) 0.16149(11)
N10_6 N 0.63571(9) 1.0000 0.38571(9)
N12_3 N 0.61429(9) 0.88571(9) 0.2500
N13_6 N 0.38571(9) 1.0000 0.13571(9)
C4_3 C 0.63096(13) 0.96760(12) 0.34394(12)
H4_3 H 0.6547 0.9404 0.3361
H7_3 H 0.394182 0.970826 0.275592
H8_3 H 0.366532 0.943009 0.224612
H9_3 H 0.470826 0.974408 0.355818
H14_3 H 0.633468 0.974612 0.193009
H17_3 H 0.474408 0.894182 0.279174
H18_3 H 0.525388 0.866532 0.306991
N2_4 N 0.11429(9) 0.5000 0.86429(9)
C1_4 C 0.15606(12) 0.53240(12) 0.86904(13)
H1_4 H 0.1639 0.5596 0.8453
Ni4_4 Ni 0.057247(14) 0.5000 0.807247(14)
Ni6_4 Ni 0.307247(14) 0.692753(14) 0.7500
Ni7_4 Ni 0.192753(14) 0.7500 0.807247(14)
N6_4 N 0.27119(11) 0.66149(11) 0.81509(11)
N7_4 N 0.22881(11) 0.68491(11) 0.83851(11)
C2_4 C 0.11904(13) 0.46760(12) 0.90606(12)
C5_4 C 0.28240(12) 0.61904(13) 0.84394(12)
C6_4 C 0.21760(12) 0.65606(12) 0.88096(13)
H2_4 H 0.0953 0.4404 0.9139
H5_4 H 0.3096 0.5953 0.8361
H6_4 H 0.1904 0.6639 0.9047
Ni6_5 Ni 0.807247(14) 0.557247(14) 0.0000
Ni1_4 Ni 0.7500 0.692753(14) 0.807247(14)
O1_7 O 0.7500 0.7500 0.7500
O2_4 O 0.70220(16) 0.65089(17) 0.75846(17)
N1_4 N 0.68491(11) 0.72881(11) 0.83851(11)
N2_5 N 0.61429(9) 0.7500 0.88571(9)
C1_5 C 0.65606(12) 0.71760(12) 0.88096(13)
H1_5 H 0.6639 0.6904 0.9047
Ni2_4 Ni 0.807247(14) 0.7500 0.692753(14)
Ni3_7 Ni 0.692753(14) 0.807247(14) 0.7500
Ni4_5 Ni 0.557247(14) 0.7500 0.942753(14)
Ni5_7 Ni 0.942753(14) 0.557247(14) 0.7500
Ni6_6 Ni 0.807247(14) 0.557247(14) 1.0000
Ni7_5 Ni 0.692753(14) 0.5000 0.942753(14)
O3_4 O 0.79780(16) 0.74154(17) 0.84911(17)
O4_4 O 0.84911(17) 0.79780(16) 0.74154(17)
O5_4 O 0.75846(17) 0.70220(16) 0.65089(17)
O6_4 O 0.65089(17) 0.75846(17) 0.70220(16)
O7_4 O 0.74154(17) 0.84911(17) 0.79780(16)
N3_4 N 0.66149(11) 0.77119(11) 0.81509(11)
N4_4 N 0.81509(11) 0.66149(11) 0.77119(11)
N5_4 N 0.83851(11) 0.68491(11) 0.72881(11)
N6_5 N 0.77119(11) 0.58851(11) 0.93491(11)
N7_5 N 0.72881(11) 0.56509(11) 0.91149(11)
N8_4 N 0.77119(11) 0.81509(11) 0.66149(11)
N9_4 N 0.72881(11) 0.83851(11) 0.68491(11)
N10_7 N 0.88571(9) 0.61429(9) 0.7500
N11_4 N 0.7500 0.63571(9) 0.86429(9)
N12_4 N 0.86429(9) 0.7500 0.63571(9)
N13_7 N 0.63571(9) 0.86429(9) 0.7500
C2_5 C 0.61904(13) 0.78240(12) 0.84394(12)
C3_4 C 0.84394(12) 0.61904(13) 0.78240(12)
C4_4 C 0.88096(13) 0.65606(12) 0.71760(12)
C5_5 C 0.78240(12) 0.63096(13) 0.90606(12)
C6_5 C 0.71760(12) 0.59394(12) 0.86904(13)
H2_5 H 0.5953 0.8096 0.8361
H3_4 H 0.8361 0.5953 0.8096
H4_4 H 0.9047 0.6639 0.6904
H5_5 H 0.8096 0.6547 0.9139
H6_5 H 0.6904 0.5861 0.8453
H7_4 H 0.644182 0.724408 0.720826
H8_4 H 0.616532 0.775388 0.693009
H9_4 H 0.720826 0.644182 0.724408
H10_4 H 0.693009 0.616532 0.775388
H11_4 H 0.779174 0.775592 0.855818
H12_4 H 0.806991 0.724612 0.883468
H13_4 H 0.855818 0.779174 0.775592
H14_4 H 0.883468 0.806991 0.724612
H15_4 H 0.775592 0.855818 0.779174
H16_4 H 0.724612 0.883468 0.806991
H17_4 H 0.724408 0.720826 0.644182
H18_4 H 0.775388 0.693009 0.616532
Ni6_7 Ni 0.557247(14) -0.0000 0.807247(14)
N2_6 N 0.7500 0.88571(9) 0.61429(9)
C1_6 C 0.71760(12) 0.88096(13) 0.65606(12)
H1_6 H 0.6904 0.9047 0.6639
Ni4_6 Ni 0.7500 0.942753(14) 0.557247(14)
Ni6_8 Ni 0.557247(14) 1.0000 0.807247(14)
Ni7_6 Ni 0.5000 0.942753(14) 0.692753(14)
N6_6 N 0.58851(11) 0.93491(11) 0.77119(11)
N7_6 N 0.56509(11) 0.91149(11) 0.72881(11)
C2_6 C 0.78240(12) 0.84394(12) 0.61904(13)
C5_6 C 0.63096(13) 0.90606(12) 0.78240(12)
C6_6 C 0.59394(12) 0.86904(13) 0.71760(12)
H2_6 H 0.8096 0.8361 0.5953
H5_6 H 0.6547 0.9139 0.8096
H6_6 H 0.5861 0.8453 0.6904
N2_7 N 0.5000 0.86429(9) 0.11429(9)
C1_7 C 0.53240(12) 0.86904(13) 0.15606(12)
H1_7 H 0.5596 0.8453 0.1639
Ni4_7 Ni 0.5000 0.807247(14) 0.057247(14)
Ni6_9 Ni 0.692753(14) 0.7500 0.307247(14)
Ni7_7 Ni 0.7500 0.807247(14) 0.192753(14)
N6_7 N 0.66149(11) 0.81509(11) 0.27119(11)
N7_7 N 0.68491(11) 0.83851(11) 0.22881(11)
C2_7 C 0.46760(12) 0.90606(12) 0.11904(13)
C5_7 C 0.61904(13) 0.84394(12) 0.28240(12)
C6_7 C 0.65606(12) 0.88096(13) 0.21760(12)
H2_7 H 0.4404 0.9139 0.0953
H5_7 H 0.5953 0.8361 0.3096
H6_7 H 0.6639 0.9047 0.1904
Ni6_10 Ni 0.0000 0.807247(14) 0.557247(14)
Ni6_11 Ni 1.0000 0.807247(14) 0.557247(14)
Ni7_8 Ni 0.942753(14) 0.692753(14) 0.5000
N6_8 N 0.93491(11) 0.77119(11) 0.58851(11)
N7_8 N 0.91149(11) 0.72881(11) 0.56509(11)
C5_8 C 0.90606(12) 0.78240(12) 0.63096(13)
C6_8 C 0.86904(13) 0.71760(12) 0.59394(12)
H5_8 H 0.9139 0.8096 0.6547
H6_8 H 0.8453 0.6904 0.5861
N2_8 N 0.86429(9) 0.11429(9) 0.5000
C1_8 C 0.86904(13) 0.15606(12) 0.53240(12)
H1_8 H 0.8453 0.1639 0.5596
Ni4_8 Ni 0.807247(14) 0.057247(14) 0.5000
Ni6_12 Ni 0.7500 0.307247(14) 0.692753(14)
Ni7_9 Ni 0.807247(14) 0.192753(14) 0.7500
N6_9 N 0.81509(11) 0.27119(11) 0.66149(11)
N7_9 N 0.83851(11) 0.22881(11) 0.68491(11)
C2_8 C 0.90606(12) 0.11904(13) 0.46760(12)
C5_9 C 0.84394(12) 0.28240(12) 0.61904(13)
C6_9 C 0.88096(13) 0.21760(12) 0.65606(12)
H2_8 H 0.9139 0.0953 0.4404
H5_9 H 0.8361 0.3096 0.5953
H6_9 H 0.9047 0.1904 0.6639
Ni1_5 Ni 0.307247(14) 0.0000 0.557247(14)
O1_8 O 0.2500 0.0000 0.5000
Ni2_5 Ni 0.2500 0.057247(14) 0.442753(14)
Ni6_13 Ni 0.442753(14) 0.057247(14) 0.7500
O3_5 O 0.25846(17) 0.04780(16) 0.59911(17)
O4_5 O 0.20220(16) 0.09911(17) 0.49154(17)
O5_5 O 0.29780(16) 0.00846(17) 0.40089(17)
N4_5 N 0.33851(11) 0.06509(11) 0.52119(11)
N5_5 N 0.31509(11) 0.08851(11) 0.47881(11)
N6_10 N 0.41149(11) 0.02119(11) 0.68491(11)
N8_5 N 0.18491(11) 0.02119(11) 0.41149(11)
N10_8 N 0.38571(9) 0.13571(9) 0.5000
N11_5 N 0.36429(9) -0.0000 0.61429(9)
N12_5 N 0.2500 0.11429(9) 0.38571(9)
C3_5 C 0.38096(13) 0.09394(12) 0.53240(12)
C4_5 C 0.34394(12) 0.13096(13) 0.46760(12)
C5_10 C 0.36904(13) 0.03240(12) 0.65606(12)
H3_5 H 0.4047 0.0861 0.5596
H4_5 H 0.3361 0.1547 0.4404
H5_10 H 0.3453 0.0596 0.6639
H11_5 H 0.224408 0.0291743 0.605818
H12_5 H 0.275388 0.056991 0.633468
H13_5 H 0.220826 0.105818 0.525592
H14_5 H 0.193009 0.133468 0.474612
H15_5 H 0.144182 0.0255925 0.529174
H18_5 H 0.306991 0.0253876 0.366532
Ni1_6 Ni 0.307247(14) 1.0000 0.557247(14)
O1_9 O 0.2500 1.0000 0.5000
O2_5 O 0.34911(17) 0.95220(16) 0.50846(17)
N1_5 N 0.27119(11) 0.93491(11) 0.58851(11)
N2_9 N 0.2500 0.86429(9) 0.63571(9)
C1_9 C 0.28240(12) 0.90606(12) 0.63096(13)
H1_9 H 0.3096 0.9139 0.6547
Ni3_8 Ni 0.192753(14) 0.942753(14) 0.5000
Ni4_9 Ni 0.2500 0.807247(14) 0.692753(14)
O6_5 O 0.24154(17) 0.90089(17) 0.45220(16)
O7_5 O 0.15089(17) 0.99154(17) 0.54780(16)
N3_5 N 0.22881(11) 0.91149(11) 0.56509(11)
N7_10 N 0.43491(11) 0.97881(11) 0.66149(11)
N9_5 N 0.16149(11) 0.97881(11) 0.43491(11)
N11_6 N 0.36429(9) 1.0000 0.61429(9)
N13_8 N 0.13571(9) 0.88571(9) 0.5000
C2_9 C 0.21760(12) 0.86904(13) 0.59394(12)
C6_10 C 0.40606(12) 0.96760(12) 0.61904(13)
H2_9 H 0.1904 0.8453 0.5861
H6_10 H 0.4139 0.9404 0.5953
H7_5 H 0.275592 0.894182 0.470826
H8_5 H 0.224612 0.866532 0.443009
H9_5 H 0.355818 0.970826 0.474408
H10_5 H 0.383468 0.943009 0.525388
H16_5 H 0.116532 0.974612 0.556991
H17_5 H 0.279174 0.974408 0.394182
O1_10 O 0.0000 0.7500 0.0000
N2_10 N 0.0000 0.88571(9) 0.13571(9)
Ni3_9 Ni 0.057247(14) 0.807247(14) 0.0000
Ni4_10 Ni 0.0000 0.942753(14) 0.192753(14)
O7_6 O 0.09911(17) 0.75846(17) 0.04780(16)
N3_6 N 0.02119(11) 0.83851(11) 0.06509(11)
N13_9 N 0.11429(9) 0.86429(9) 0.0000
C2_10 C 0.03240(12) 0.88096(13) 0.09394(12)
H2_10 H 0.0596 0.9047 0.0861
H11_6 H 0.0255925 0.720826 0.105818
H13_6 H 0.0291743 0.644182 0.0255925
H15_6 H 0.105818 0.724408 0.0291743
H16_6 H 0.133468 0.775388 0.056991
O1_11 O 0.0000 0.7500 1.0000
Ni2_6 Ni 0.0000 0.692753(14) 0.942753(14)
Ni3_10 Ni 0.057247(14) 0.807247(14) 1.0000
O4_6 O 0.04780(16) 0.65089(17) 0.99154(17)
O6_6 O 0.00846(17) 0.84911(17) 0.95220(16)
N8_6 N 0.06509(11) 0.72881(11) 0.91149(11)
N9_6 N 0.08851(11) 0.77119(11) 0.93491(11)
N12_6 N 0.0000 0.63571(9) 0.88571(9)
N13_10 N 0.11429(9) 0.86429(9) 1.0000
H8_6 H 0.0253876 0.883468 0.943009
H14_6 H 0.056991 0.616532 0.974612
Ni1_7 Ni 0.942753(14) 0.7500 0.057247(14)
O1_12 O 1.0000 0.7500 0.0000
O2_6 O 0.90089(17) 0.79780(16) 0.00846(17)
N1_6 N 0.97881(11) 0.81509(11) 0.08851(11)
N2_11 N 1.0000 0.88571(9) 0.13571(9)
C1_10 C 0.96760(12) 0.84394(12) 0.13096(13)
H1_10 H 0.9404 0.8361 0.1547
Ni4_11 Ni 1.0000 0.942753(14) 0.192753(14)
Ni6_14 Ni 0.807247(14) 0.692753(14) 0.2500
O3_6 O 0.99154(17) 0.70220(16) 0.09911(17)
N4_6 N 0.91149(11) 0.68491(11) 0.02119(11)
N6_11 N 0.83851(11) 0.72881(11) 0.18491(11)
N7_11 N 0.81509(11) 0.77119(11) 0.16149(11)
N10_9 N 0.86429(9) 0.61429(9) 0.0000
N11_7 N 0.88571(9) 0.7500 0.11429(9)
C3_6 C 0.86904(13) 0.65606(12) 0.03240(12)
C5_11 C 0.88096(13) 0.71760(12) 0.15606(12)
C6_11 C 0.84394(12) 0.78240(12) 0.11904(13)
H3_6 H 0.8453 0.6639 0.0596
H5_11 H 0.9047 0.6904 0.1639
H6_11 H 0.8361 0.8096 0.0953
H10_6 H 0.866532 0.806991 0.0253876
H12_6 H 0.974612 0.693009 0.133468
O1_13 O 1.0000 0.7500 1.0000
Ni2_7 Ni 1.0000 0.692753(14) 0.942753(14)
O5_6 O 0.95220(16) 0.74154(17) 0.90089(17)
N5_6 N 0.93491(11) 0.66149(11) 0.97881(11)
N10_10 N 0.86429(9) 0.61429(9) 1.0000
N12_7 N 1.0000 0.63571(9) 0.88571(9)
C4_6 C 0.90606(12) 0.61904(13) 0.96760(12)
H4_6 H 0.9139 0.5953 0.9404
H7_6 H 0.974408 0.855818 0.970826
H9_6 H 0.894182 0.779174 0.974408
H17_6 H 0.970826 0.775592 0.894182
H18_6 H 0.943009 0.724612 0.866532
Ni7_10 Ni 0.192753(14) -0.0000 0.942753(14)
Ni6_15 Ni 0.2500 0.942753(14) 0.057247(14)
N6_12 N 0.18491(11) 0.91149(11) 0.02119(11)
C5_12 C 0.15606(12) 0.86904(13) 0.03240(12)
H5_12 H 0.1639 0.8453 0.0596
N2_12 N 0.13571(9) 0.7500 0.86429(9)
C1_11 C 0.13096(13) 0.78240(12) 0.90606(12)
H1_11 H 0.1547 0.8096 0.9139
Ni7_11 Ni 0.192753(14) 1.0000 0.942753(14)
N7_12 N 0.16149(11) 0.93491(11) 0.97881(11)
C2_11 C 0.09394(12) 0.71760(12) 0.86904(13)
C6_12 C 0.11904(13) 0.90606(12) 0.96760(12)
H2_11 H 0.0861 0.6904 0.8453
H6_12 H 0.0953 0.9139 0.9404
N2_13 N 0.11429(9) 0.0000 0.36429(9)
Ni4_12 Ni 0.057247(14) 0.0000 0.307247(14)
C2_12 C 0.15606(12) 0.03240(12) 0.36904(13)
H2_12 H 0.1639 0.0596 0.3453
N2_14 N 0.11429(9) 1.0000 0.36429(9)
C1_12 C 0.11904(13) 0.96760(12) 0.40606(12)
H1_12 H 0.0953 0.9404 0.4139
Ni4_13 Ni 0.057247(14) 1.0000 0.307247(14)
Ni7_12 Ni 0.057247(14) 0.7500 0.442753(14)
N6_13 N 0.06509(11) 0.83851(11) 0.52119(11)
N7_13 N 0.08851(11) 0.81509(11) 0.47881(11)
C5_13 C 0.09394(12) 0.88096(13) 0.53240(12)
C6_13 C 0.13096(13) 0.84394(12) 0.46760(12)
H5_13 H 0.0861 0.9047 0.5596
H6_13 H 0.1547 0.8361 0.4404
Ni1_8 Ni 0.5000 0.557247(14) 0.807247(14)
O1_14 O 0.5000 0.5000 0.7500
O2_7 O 0.45220(16) 0.50846(17) 0.84911(17)
N1_7 N 0.43491(11) 0.58851(11) 0.77119(11)
N2_15 N 0.36429(9) 0.63571(9) 0.7500
C1_13 C 0.40606(12) 0.63096(13) 0.78240(12)
H1_13 H 0.4139 0.6547 0.8096
Ni2_8 Ni 0.557247(14) 0.442753(14) 0.7500
Ni3_11 Ni 0.442753(14) 0.5000 0.692753(14)
O3_7 O 0.54780(16) 0.59911(17) 0.75846(17)
O4_7 O 0.59911(17) 0.49154(17) 0.70220(16)
O5_7 O 0.50846(17) 0.40089(17) 0.79780(16)
O6_7 O 0.40089(17) 0.45220(16) 0.74154(17)
O7_7 O 0.49154(17) 0.54780(16) 0.65089(17)
N3_7 N 0.41149(11) 0.56509(11) 0.72881(11)
N4_7 N 0.56509(11) 0.52119(11) 0.83851(11)
N5_7 N 0.58851(11) 0.47881(11) 0.81509(11)
N6_14 N 0.52119(11) 0.68491(11) 0.91149(11)
N7_14 N 0.47881(11) 0.66149(11) 0.93491(11)
N8_7 N 0.52119(11) 0.41149(11) 0.68491(11)
N9_7 N 0.47881(11) 0.43491(11) 0.66149(11)
N10_11 N 0.63571(9) 0.5000 0.88571(9)
N11_8 N 0.5000 0.61429(9) 0.86429(9)
N12_8 N 0.61429(9) 0.38571(9) 0.7500
N13_11 N 0.38571(9) 0.5000 0.63571(9)
C2_13 C 0.36904(13) 0.59394(12) 0.71760(12)
C3_7 C 0.59394(12) 0.53240(12) 0.88096(13)
C4_7 C 0.63096(13) 0.46760(12) 0.84394(12)
C5_14 C 0.53240(12) 0.65606(12) 0.86904(13)
C6_14 C 0.46760(12) 0.61904(13) 0.90606(12)
H2_13 H 0.3453 0.5861 0.6904
H3_7 H 0.5861 0.5596 0.9047
H4_7 H 0.6547 0.4404 0.8361
H5_14 H 0.5596 0.6639 0.8453
H6_14 H 0.4404 0.5953 0.9139
H7_7 H 0.394182 0.470826 0.775592
H8_7 H 0.366532 0.443009 0.724612
H9_7 H 0.470826 0.474408 0.855818
H10_7 H 0.443009 0.525388 0.883468
H11_7 H 0.529174 0.605818 0.724408
H12_7 H 0.556991 0.633468 0.775388
H13_7 H 0.605818 0.525592 0.720826
H14_7 H 0.633468 0.474612 0.693009
H15_7 H 0.525592 0.529174 0.644182
H16_7 H 0.474612 0.556991 0.616532
H17_7 H 0.474408 0.394182 0.779174
H18_7 H 0.525388 0.366532 0.806991
Ni1_9 Ni 0.7500 0.192753(14) 0.307247(14)
O1_15 O 0.7500 0.2500 0.2500
O2_8 O 0.79780(16) 0.24154(17) 0.34911(17)
N1_8 N 0.81509(11) 0.16149(11) 0.27119(11)
N2_16 N 0.88571(9) 0.11429(9) 0.2500
C1_14 C 0.84394(12) 0.11904(13) 0.28240(12)
H1_14 H 0.8361 0.0953 0.3096
Ni2_9 Ni 0.692753(14) 0.307247(14) 0.2500
Ni3_12 Ni 0.807247(14) 0.2500 0.192753(14)
Ni4_14 Ni 0.942753(14) 0.057247(14) 0.2500
O3_8 O 0.70220(16) 0.15089(17) 0.25846(17)
O4_8 O 0.65089(17) 0.25846(17) 0.20220(16)
O5_8 O 0.74154(17) 0.34911(17) 0.29780(16)
O6_8 O 0.84911(17) 0.29780(16) 0.24154(17)
O7_8 O 0.75846(17) 0.20220(16) 0.15089(17)
N3_8 N 0.83851(11) 0.18491(11) 0.22881(11)
N4_8 N 0.68491(11) 0.22881(11) 0.33851(11)
N5_8 N 0.66149(11) 0.27119(11) 0.31509(11)
N6_15 N 0.72881(11) 0.06509(11) 0.41149(11)
N7_15 N 0.77119(11) 0.08851(11) 0.43491(11)
N8_8 N 0.72881(11) 0.33851(11) 0.18491(11)
N9_8 N 0.77119(11) 0.31509(11) 0.16149(11)
N10_12 N 0.61429(9) 0.2500 0.38571(9)
N11_9 N 0.7500 0.13571(9) 0.36429(9)
N12_9 N 0.63571(9) 0.36429(9) 0.2500
N13_12 N 0.86429(9) 0.2500 0.13571(9)
C2_14 C 0.88096(13) 0.15606(12) 0.21760(12)
C3_8 C 0.65606(12) 0.21760(12) 0.38096(13)
C4_8 C 0.61904(13) 0.28240(12) 0.34394(12)
C5_15 C 0.71760(12) 0.09394(12) 0.36904(13)
C6_15 C 0.78240(12) 0.13096(13) 0.40606(12)
H2_14 H 0.9047 0.1639 0.1904
H3_8 H 0.6639 0.1904 0.4047
H4_8 H 0.5953 0.3096 0.3361
H5_15 H 0.6904 0.0861 0.3453
H6_15 H 0.8096 0.1547 0.4139
H7_8 H 0.855818 0.279174 0.275592
H8_8 H 0.883468 0.306991 0.224612
H9_8 H 0.779174 0.275592 0.355818
H10_8 H 0.806991 0.224612 0.383468
H11_8 H 0.720826 0.144182 0.224408
H12_8 H 0.693009 0.116532 0.275388
H13_8 H 0.644182 0.224408 0.220826
H14_8 H 0.616532 0.275388 0.193009
H15_8 H 0.724408 0.220826 0.144182
H16_8 H 0.775388 0.193009 0.116532
H17_8 H 0.775592 0.355818 0.279174
H18_8 H 0.724612 0.383468 0.306991
N2_17 N 0.7500 0.38571(9) 0.11429(9)
C1_15 C 0.71760(12) 0.38096(13) 0.15606(12)
H1_15 H 0.6904 0.4047 0.1639
Ni4_15 Ni 0.7500 0.442753(14) 0.057247(14)
Ni6_16 Ni 0.557247(14) 0.5000 0.307247(14)
N6_16 N 0.58851(11) 0.43491(11) 0.27119(11)
N7_16 N 0.56509(11) 0.41149(11) 0.22881(11)
C2_15 C 0.78240(12) 0.34394(12) 0.11904(13)
C5_16 C 0.63096(13) 0.40606(12) 0.28240(12)
C6_16 C 0.59394(12) 0.36904(13) 0.21760(12)
H2_15 H 0.8096 0.3361 0.0953
H5_16 H 0.6547 0.4139 0.3096
H6_16 H 0.5861 0.3453 0.1904
N2_18 N 0.5000 0.36429(9) 0.61429(9)
C1_16 C 0.53240(12) 0.36904(13) 0.65606(12)
H1_16 H 0.5596 0.3453 0.6639
Ni4_16 Ni 0.5000 0.307247(14) 0.557247(14)
Ni6_17 Ni 0.692753(14) 0.2500 0.807247(14)
N6_17 N 0.66149(11) 0.31509(11) 0.77119(11)
N7_17 N 0.68491(11) 0.33851(11) 0.72881(11)
C2_16 C 0.46760(12) 0.40606(12) 0.61904(13)
C5_17 C 0.61904(13) 0.34394(12) 0.78240(12)
C6_17 C 0.65606(12) 0.38096(13) 0.71760(12)
H2_16 H 0.4404 0.4139 0.5953
H5_17 H 0.5953 0.3361 0.8096
H6_17 H 0.6639 0.4047 0.6904
Ni1_10 Ni 0.807247(14) 0.5000 0.557247(14)
O1_16 O 0.7500 0.5000 0.5000
O2_9 O 0.84911(17) 0.45220(16) 0.50846(17)
N1_9 N 0.77119(11) 0.43491(11) 0.58851(11)
N2_19 N 0.7500 0.36429(9) 0.63571(9)
C1_17 C 0.78240(12) 0.40606(12) 0.63096(13)
H1_17 H 0.8096 0.4139 0.6547
Ni2_10 Ni 0.7500 0.557247(14) 0.442753(14)
Ni3_13 Ni 0.692753(14) 0.442753(14) 0.5000
O3_9 O 0.75846(17) 0.54780(16) 0.59911(17)
O4_9 O 0.70220(16) 0.59911(17) 0.49154(17)
O5_9 O 0.79780(16) 0.50846(17) 0.40089(17)
O6_9 O 0.74154(17) 0.40089(17) 0.45220(16)
O7_9 O 0.65089(17) 0.49154(17) 0.54780(16)
N3_9 N 0.72881(11) 0.41149(11) 0.56509(11)
N4_9 N 0.83851(11) 0.56509(11) 0.52119(11)
N5_9 N 0.81509(11) 0.58851(11) 0.47881(11)
N6_18 N 0.91149(11) 0.52119(11) 0.68491(11)
N7_18 N 0.93491(11) 0.47881(11) 0.66149(11)
N8_9 N 0.68491(11) 0.52119(11) 0.41149(11)
N9_9 N 0.66149(11) 0.47881(11) 0.43491(11)
N10_13 N 0.88571(9) 0.63571(9) 0.5000
N11_10 N 0.86429(9) 0.5000 0.61429(9)
N12_10 N 0.7500 0.61429(9) 0.38571(9)
N13_13 N 0.63571(9) 0.38571(9) 0.5000
C2_17 C 0.71760(12) 0.36904(13) 0.59394(12)
C3_9 C 0.88096(13) 0.59394(12) 0.53240(12)
C4_9 C 0.84394(12) 0.63096(13) 0.46760(12)
C5_18 C 0.86904(13) 0.53240(12) 0.65606(12)
C6_18 C 0.90606(12) 0.46760(12) 0.61904(13)
H2_17 H 0.6904 0.3453 0.5861
H3_9 H 0.9047 0.5861 0.5596
H4_9 H 0.8361 0.6547 0.4404
H5_18 H 0.8453 0.5596 0.6639
H6_18 H 0.9139 0.4404 0.5953
H7_9 H 0.775592 0.394182 0.470826
H8_9 H 0.724612 0.366532 0.443009
H9_9 H 0.855818 0.470826 0.474408
H10_9 H 0.883468 0.443009 0.525388
H11_9 H 0.724408 0.529174 0.605818
H12_9 H 0.775388 0.556991 0.633468
H13_9 H 0.720826 0.605818 0.525592
H14_9 H 0.693009 0.633468 0.474612
H15_9 H 0.644182 0.525592 0.529174
H16_9 H 0.616532 0.474612 0.556991
H17_9 H 0.779174 0.474408 0.394182
H18_9 H 0.806991 0.525388 0.366532
Ni1_11 Ni 0.307247(14) 0.7500 0.192753(14)
O1_17 O 0.2500 0.7500 0.2500
O2_10 O 0.34911(17) 0.79780(16) 0.24154(17)
N1_10 N 0.27119(11) 0.81509(11) 0.16149(11)
N2_20 N 0.2500 0.88571(9) 0.11429(9)
C1_18 C 0.28240(12) 0.84394(12) 0.11904(13)
H1_18 H 0.3096 0.8361 0.0953
Ni2_11 Ni 0.2500 0.692753(14) 0.307247(14)
Ni3_14 Ni 0.192753(14) 0.807247(14) 0.2500
O3_10 O 0.25846(17) 0.70220(16) 0.15089(17)
O4_10 O 0.20220(16) 0.65089(17) 0.25846(17)
O5_10 O 0.29780(16) 0.74154(17) 0.34911(17)
O6_10 O 0.24154(17) 0.84911(17) 0.29780(16)
O7_10 O 0.15089(17) 0.75846(17) 0.20220(16)
N3_10 N 0.22881(11) 0.83851(11) 0.18491(11)
N4_10 N 0.33851(11) 0.68491(11) 0.22881(11)
N5_10 N 0.31509(11) 0.66149(11) 0.27119(11)
N6_19 N 0.41149(11) 0.72881(11) 0.06509(11)
N7_19 N 0.43491(11) 0.77119(11) 0.08851(11)
N8_10 N 0.18491(11) 0.72881(11) 0.33851(11)
N9_10 N 0.16149(11) 0.77119(11) 0.31509(11)
N10_14 N 0.38571(9) 0.61429(9) 0.2500
N11_11 N 0.36429(9) 0.7500 0.13571(9)
N12_11 N 0.2500 0.63571(9) 0.36429(9)
N13_14 N 0.13571(9) 0.86429(9) 0.2500
C2_18 C 0.21760(12) 0.88096(13) 0.15606(12)
C3_10 C 0.38096(13) 0.65606(12) 0.21760(12)
C4_10 C 0.34394(12) 0.61904(13) 0.28240(12)
C5_19 C 0.36904(13) 0.71760(12) 0.09394(12)
C6_19 C 0.40606(12) 0.78240(12) 0.13096(13)
H2_18 H 0.1904 0.9047 0.1639
H3_10 H 0.4047 0.6639 0.1904
H4_10 H 0.3361 0.5953 0.3096
H5_19 H 0.3453 0.6904 0.0861
H6_19 H 0.4139 0.8096 0.1547
H7_10 H 0.275592 0.855818 0.279174
H8_10 H 0.224612 0.883468 0.306991
H9_10 H 0.355818 0.779174 0.275592
H10_10 H 0.383468 0.806991 0.224612
H11_10 H 0.224408 0.720826 0.144182
H12_10 H 0.275388 0.693009 0.116532
H13_10 H 0.220826 0.644182 0.224408
H14_10 H 0.193009 0.616532 0.275388
H15_10 H 0.144182 0.724408 0.220826
H16_10 H 0.116532 0.775388 0.193009
H17_10 H 0.279174 0.775592 0.355818
H18_10 H 0.306991 0.724612 0.383468
Ni1_12 Ni 0.557247(14) 0.307247(14) 0.0000
O1_18 O 0.5000 0.2500 0.0000
Ni2_12 Ni 0.442753(14) 0.2500 0.057247(14)
O3_11 O 0.59911(17) 0.25846(17) 0.04780(16)
O4_11 O 0.49154(17) 0.20220(16) 0.09911(17)
O5_11 O 0.40089(17) 0.29780(16) 0.00846(17)
N4_11 N 0.52119(11) 0.33851(11) 0.06509(11)
N5_11 N 0.47881(11) 0.31509(11) 0.08851(11)
N6_20 N 0.68491(11) 0.41149(11) 0.02119(11)
N8_11 N 0.41149(11) 0.18491(11) 0.02119(11)
N10_15 N 0.5000 0.38571(9) 0.13571(9)
N11_12 N 0.61429(9) 0.36429(9) 0.0000
N12_12 N 0.38571(9) 0.2500 0.11429(9)
C3_11 C 0.53240(12) 0.38096(13) 0.09394(12)
C4_11 C 0.46760(12) 0.34394(12) 0.13096(13)
C5_20 C 0.65606(12) 0.36904(13) 0.03240(12)
H3_11 H 0.5596 0.4047 0.0861
H4_11 H 0.4404 0.3361 0.1547
H5_20 H 0.6639 0.3453 0.0596
H11_11 H 0.605818 0.224408 0.0291743
H12_11 H 0.633468 0.275388 0.056991
H13_11 H 0.525592 0.220826 0.105818
H14_11 H 0.474612 0.193009 0.133468
H15_11 H 0.529174 0.144182 0.0255925
H18_11 H 0.366532 0.306991 0.0253876
Ni1_13 Ni 0.557247(14) 0.307247(14) 1.0000
O1_19 O 0.5000 0.2500 1.0000
O2_11 O 0.50846(17) 0.34911(17) 0.95220(16)
N1_11 N 0.58851(11) 0.27119(11) 0.93491(11)
N2_21 N 0.63571(9) 0.2500 0.86429(9)
C1_19 C 0.63096(13) 0.28240(12) 0.90606(12)
H1_19 H 0.6547 0.3096 0.9139
Ni3_15 Ni 0.5000 0.192753(14) 0.942753(14)
O6_11 O 0.45220(16) 0.24154(17) 0.90089(17)
O7_11 O 0.54780(16) 0.15089(17) 0.99154(17)
N3_11 N 0.56509(11) 0.22881(11) 0.91149(11)
N7_20 N 0.66149(11) 0.43491(11) 0.97881(11)
N9_11 N 0.43491(11) 0.16149(11) 0.97881(11)
N11_13 N 0.61429(9) 0.36429(9) 1.0000
N13_15 N 0.5000 0.13571(9) 0.88571(9)
C2_19 C 0.59394(12) 0.21760(12) 0.86904(13)
C6_20 C 0.61904(13) 0.40606(12) 0.96760(12)
H2_19 H 0.5861 0.1904 0.8453
H6_20 H 0.5953 0.4139 0.9404
H7_11 H 0.470826 0.275592 0.894182
H8_11 H 0.443009 0.224612 0.866532
H9_11 H 0.474408 0.355818 0.970826
H10_11 H 0.525388 0.383468 0.943009
H16_11 H 0.556991 0.116532 0.974612
H17_11 H 0.394182 0.279174 0.974408
O1_20 O -0.0000 0.0000 0.7500
N2_22 N 0.13571(9) 0.0000 0.88571(9)
Ni3_16 Ni -0.0000 0.057247(14) 0.807247(14)
O7_12 O 0.04780(16) 0.09911(17) 0.75846(17)
N3_12 N 0.06509(11) 0.02119(11) 0.83851(11)
N13_16 N -0.0000 0.11429(9) 0.86429(9)
C2_20 C 0.09394(12) 0.03240(12) 0.88096(13)
H2_20 H 0.0861 0.0596 0.9047
H11_12 H 0.105818 0.0255925 0.720826
H13_12 H 0.0255925 0.0291743 0.644182
H15_12 H 0.0291743 0.105818 0.724408
H16_12 H 0.056991 0.133468 0.775388
Ni1_14 Ni 0.057247(14) 0.942753(14) 0.7500
O1_21 O -0.0000 1.0000 0.7500
O2_12 O 0.00846(17) 0.90089(17) 0.79780(16)
N1_12 N 0.08851(11) 0.97881(11) 0.81509(11)
N2_23 N 0.13571(9) 1.0000 0.88571(9)
C1_20 C 0.13096(13) 0.96760(12) 0.84394(12)
H1_20 H 0.1547 0.9404 0.8361
O3_12 O 0.09911(17) 0.99154(17) 0.70220(16)
N4_12 N 0.02119(11) 0.91149(11) 0.68491(11)
N6_21 N 0.18491(11) 0.83851(11) 0.72881(11)
N7_21 N 0.16149(11) 0.81509(11) 0.77119(11)
N10_16 N 0.0000 0.86429(9) 0.61429(9)
N11_14 N 0.11429(9) 0.88571(9) 0.7500
C3_12 C 0.03240(12) 0.86904(13) 0.65606(12)
C5_21 C 0.15606(12) 0.88096(13) 0.71760(12)
C6_21 C 0.11904(13) 0.84394(12) 0.78240(12)
H3_12 H 0.0596 0.8453 0.6639
H5_21 H 0.1639 0.9047 0.6904
H6_21 H 0.0953 0.8361 0.8096
H10_12 H 0.0253876 0.866532 0.806991
H12_12 H 0.133468 0.974612 0.693009
O1_22 O 1.0000 0.0000 0.7500
Ni2_13 Ni 0.942753(14) 0.0000 0.692753(14)
Ni3_17 Ni 1.0000 0.057247(14) 0.807247(14)
O4_12 O 0.99154(17) 0.04780(16) 0.65089(17)
O6_12 O 0.95220(16) 0.00846(17) 0.84911(17)
N8_12 N 0.91149(11) 0.06509(11) 0.72881(11)
N9_12 N 0.93491(11) 0.08851(11) 0.77119(11)
N12_13 N 0.88571(9) 0.0000 0.63571(9)
N13_17 N 1.0000 0.11429(9) 0.86429(9)
H8_12 H 0.943009 0.0253876 0.883468
H14_12 H 0.974612 0.056991 0.616532
O1_23 O 1.0000 1.0000 0.7500
Ni2_14 Ni 0.942753(14) 1.0000 0.692753(14)
O5_12 O 0.90089(17) 0.95220(16) 0.74154(17)
N5_12 N 0.97881(11) 0.93491(11) 0.66149(11)
N10_17 N 1.0000 0.86429(9) 0.61429(9)
N12_14 N 0.88571(9) 1.0000 0.63571(9)
C4_12 C 0.96760(12) 0.90606(12) 0.61904(13)
H4_12 H 0.9404 0.9139 0.5953
H7_12 H 0.970826 0.974408 0.855818
H9_12 H 0.974408 0.894182 0.779174
H17_12 H 0.894182 0.970826 0.775592
H18_12 H 0.866532 0.943009 0.724612
Ni6_18 Ni 0.057247(14) 0.2500 0.942753(14)
N6_22 N 0.02119(11) 0.18491(11) 0.91149(11)
C5_22 C 0.03240(12) 0.15606(12) 0.86904(13)
H5_22 H 0.0596 0.1639 0.8453
Ni7_13 Ni 0.942753(14) 0.192753(14) 0.0000
N2_24 N 0.86429(9) 0.13571(9) 0.7500
C1_21 C 0.90606(12) 0.13096(13) 0.78240(12)
H1_21 H 0.9139 0.1547 0.8096
Ni7_14 Ni 0.942753(14) 0.192753(14) 1.0000
N7_22 N 0.97881(11) 0.16149(11) 0.93491(11)
C2_21 C 0.86904(13) 0.09394(12) 0.71760(12)
C6_22 C 0.96760(12) 0.11904(13) 0.90606(12)
H2_21 H 0.8453 0.0861 0.6904
H6_22 H 0.9404 0.0953 0.9139
N2_25 N 0.36429(9) 0.11429(9) 0.0000
Ni4_17 Ni 0.307247(14) 0.057247(14) 0.0000
C2_22 C 0.36904(13) 0.15606(12) 0.03240(12)
H2_22 H 0.3453 0.1639 0.0596
N2_26 N 0.36429(9) 0.11429(9) 1.0000
C1_22 C 0.40606(12) 0.11904(13) 0.96760(12)
H1_22 H 0.4139 0.0953 0.9404
Ni4_18 Ni 0.307247(14) 0.057247(14) 1.0000
N6_23 N 0.52119(11) 0.06509(11) 0.83851(11)
N7_23 N 0.47881(11) 0.08851(11) 0.81509(11)
C5_23 C 0.53240(12) 0.09394(12) 0.88096(13)
C6_23 C 0.46760(12) 0.13096(13) 0.84394(12)
H5_23 H 0.5596 0.0861 0.9047
H6_23 H 0.4404 0.1547 0.8361
N2_27 N 0.61429(9) 0.5000 0.36429(9)
C1_23 C 0.65606(12) 0.53240(12) 0.36904(13)
H1_23 H 0.6639 0.5596 0.3453
N6_24 N 0.77119(11) 0.66149(11) 0.31509(11)
N7_24 N 0.72881(11) 0.68491(11) 0.33851(11)
C2_23 C 0.61904(13) 0.46760(12) 0.40606(12)
C5_24 C 0.78240(12) 0.61904(13) 0.34394(12)
C6_24 C 0.71760(12) 0.65606(12) 0.38096(13)
H2_23 H 0.5953 0.4404 0.4139
H5_24 H 0.8096 0.5953 0.3361
H6_24 H 0.6904 0.6639 0.4047
N2_28 N 0.11429(9) 0.7500 0.38571(9)
C1_24 C 0.15606(12) 0.71760(12) 0.38096(13)
H1_24 H 0.1639 0.6904 0.4047
Ni6_19 Ni 0.307247(14) 0.557247(14) 0.5000
N6_25 N 0.27119(11) 0.58851(11) 0.43491(11)
N7_25 N 0.22881(11) 0.56509(11) 0.41149(11)
C2_24 C 0.11904(13) 0.78240(12) 0.34394(12)
C5_25 C 0.28240(12) 0.63096(13) 0.40606(12)
C6_25 C 0.21760(12) 0.59394(12) 0.36904(13)
H2_24 H 0.0953 0.8096 0.3361
H5_25 H 0.3096 0.6547 0.4139
H6_25 H 0.1904 0.5861 0.3453
Ni1_15 Ni 0.807247(14) 0.0000 0.057247(14)
O1_24 O 0.7500 0.0000 0.0000
O3_13 O 0.75846(17) 0.04780(16) 0.09911(17)
N4_13 N 0.83851(11) 0.06509(11) 0.02119(11)
N6_26 N 0.91149(11) 0.02119(11) 0.18491(11)
N10_18 N 0.88571(9) 0.13571(9) 0.0000
N11_15 N 0.86429(9) -0.0000 0.11429(9)
C3_13 C 0.88096(13) 0.09394(12) 0.03240(12)
C5_26 C 0.86904(13) 0.03240(12) 0.15606(12)
H3_13 H 0.9047 0.0861 0.0596
H5_26 H 0.8453 0.0596 0.1639
H11_13 H 0.724408 0.0291743 0.105818
H12_13 H 0.775388 0.056991 0.133468
H13_13 H 0.720826 0.105818 0.0255925
H15_13 H 0.644182 0.0255925 0.0291743
O1_25 O 0.7500 0.0000 1.0000
Ni2_15 Ni 0.7500 0.057247(14) 0.942753(14)
O4_13 O 0.70220(16) 0.09911(17) 0.99154(17)
O5_13 O 0.79780(16) 0.00846(17) 0.90089(17)
N5_13 N 0.81509(11) 0.08851(11) 0.97881(11)
N8_13 N 0.68491(11) 0.02119(11) 0.91149(11)
N10_19 N 0.88571(9) 0.13571(9) 1.0000
N12_15 N 0.7500 0.11429(9) 0.88571(9)
C4_13 C 0.84394(12) 0.13096(13) 0.96760(12)
H4_13 H 0.8361 0.1547 0.9404
H14_13 H 0.693009 0.133468 0.974612
H18_13 H 0.806991 0.0253876 0.866532
Ni1_16 Ni 0.807247(14) 1.0000 0.057247(14)
O1_26 O 0.7500 1.0000 0.0000
O2_13 O 0.84911(17) 0.95220(16) 0.00846(17)
N1_13 N 0.77119(11) 0.93491(11) 0.08851(11)
N2_29 N 0.7500 0.86429(9) 0.13571(9)
C1_25 C 0.78240(12) 0.90606(12) 0.13096(13)
H1_25 H 0.8096 0.9139 0.1547
Ni3_18 Ni 0.692753(14) 0.942753(14) 0.0000
O7_13 O 0.65089(17) 0.99154(17) 0.04780(16)
N3_13 N 0.72881(11) 0.91149(11) 0.06509(11)
N7_26 N 0.93491(11) 0.97881(11) 0.16149(11)
N11_16 N 0.86429(9) 1.0000 0.11429(9)
N13_18 N 0.63571(9) 0.88571(9) 0.0000
C2_25 C 0.71760(12) 0.86904(13) 0.09394(12)
C6_26 C 0.90606(12) 0.96760(12) 0.11904(13)
H2_25 H 0.6904 0.8453 0.0861
H6_26 H 0.9139 0.9404 0.0953
H10_13 H 0.883468 0.943009 0.0253876
H16_13 H 0.616532 0.974612 0.056991
O1_27 O 0.7500 1.0000 1.0000
Ni3_19 Ni 0.692753(14) 0.942753(14) 1.0000
O6_13 O 0.74154(17) 0.90089(17) 0.95220(16)
N9_13 N 0.66149(11) 0.97881(11) 0.93491(11)
N13_19 N 0.63571(9) 0.88571(9) 1.0000
H7_13 H 0.775592 0.894182 0.970826
H8_13 H 0.724612 0.866532 0.943009
H9_13 H 0.855818 0.970826 0.974408
H17_13 H 0.779174 0.974408 0.894182
O1_28 O 0.0000 0.5000 0.2500
N2_30 N 0.0000 0.36429(9) 0.11429(9)
Ni2_16 Ni 0.0000 0.557247(14) 0.307247(14)
Ni3_20 Ni 0.057247(14) 0.442753(14) 0.2500
Ni4_19 Ni 0.0000 0.307247(14) 0.057247(14)
O4_14 O 0.04780(16) 0.59911(17) 0.25846(17)
O6_14 O 0.00846(17) 0.40089(17) 0.29780(16)
O7_14 O 0.09911(17) 0.49154(17) 0.20220(16)
N3_14 N 0.02119(11) 0.41149(11) 0.18491(11)
N8_14 N 0.06509(11) 0.52119(11) 0.33851(11)
N9_14 N 0.08851(11) 0.47881(11) 0.31509(11)
N12_16 N 0.0000 0.61429(9) 0.36429(9)
N13_20 N 0.11429(9) 0.38571(9) 0.2500
C2_26 C 0.03240(12) 0.36904(13) 0.15606(12)
H2_26 H 0.0596 0.3453 0.1639
H8_14 H 0.0253876 0.366532 0.306991
H11_14 H 0.0255925 0.529174 0.144182
H13_14 H 0.0291743 0.605818 0.224408
H14_14 H 0.056991 0.633468 0.275388
H15_14 H 0.105818 0.525592 0.220826
H16_14 H 0.133468 0.474612 0.193009
Ni1_17 Ni 0.942753(14) 0.5000 0.192753(14)
O1_29 O 1.0000 0.5000 0.2500
O2_14 O 0.90089(17) 0.45220(16) 0.24154(17)
N1_14 N 0.97881(11) 0.43491(11) 0.16149(11)
N2_31 N 1.0000 0.36429(9) 0.11429(9)
C1_26 C 0.96760(12) 0.40606(12) 0.11904(13)
H1_26 H 0.9404 0.4139 0.0953
Ni2_17 Ni 1.0000 0.557247(14) 0.307247(14)
Ni4_20 Ni 1.0000 0.307247(14) 0.057247(14)
O3_14 O 0.99154(17) 0.54780(16) 0.15089(17)
O5_14 O 0.95220(16) 0.50846(17) 0.34911(17)
N4_14 N 0.91149(11) 0.56509(11) 0.22881(11)
N5_14 N 0.93491(11) 0.58851(11) 0.27119(11)
N6_27 N 0.83851(11) 0.52119(11) 0.06509(11)
N7_27 N 0.81509(11) 0.47881(11) 0.08851(11)
N10_20 N 0.86429(9) 0.63571(9) 0.2500
N11_17 N 0.88571(9) 0.5000 0.13571(9)
N12_17 N 1.0000 0.61429(9) 0.36429(9)
C3_14 C 0.86904(13) 0.59394(12) 0.21760(12)
C4_14 C 0.90606(12) 0.63096(13) 0.28240(12)
C5_27 C 0.88096(13) 0.53240(12) 0.09394(12)
C6_27 C 0.84394(12) 0.46760(12) 0.13096(13)
H3_14 H 0.8453 0.5861 0.1904
H4_14 H 0.9139 0.6547 0.3096
H5_27 H 0.9047 0.5596 0.0861
H6_27 H 0.8361 0.4404 0.1547
H7_14 H 0.974408 0.394182 0.279174
H9_14 H 0.894182 0.470826 0.275592
H10_14 H 0.866532 0.443009 0.224612
H12_14 H 0.974612 0.556991 0.116532
H17_14 H 0.970826 0.474408 0.355818
H18_14 H 0.943009 0.525388 0.383468
Ni1_18 Ni 0.557247(14) 0.807247(14) 0.5000
O1_30 O 0.5000 0.7500 0.5000
O2_15 O 0.50846(17) 0.84911(17) 0.45220(16)
N1_15 N 0.58851(11) 0.77119(11) 0.43491(11)
N2_32 N 0.63571(9) 0.7500 0.36429(9)
C1_27 C 0.63096(13) 0.78240(12) 0.40606(12)
H1_27 H 0.6547 0.8096 0.4139
Ni2_18 Ni 0.442753(14) 0.7500 0.557247(14)
Ni3_21 Ni 0.5000 0.692753(14) 0.442753(14)
O3_15 O 0.59911(17) 0.75846(17) 0.54780(16)
O4_15 O 0.49154(17) 0.70220(16) 0.59911(17)
O5_15 O 0.40089(17) 0.79780(16) 0.50846(17)
O6_15 O 0.45220(16) 0.74154(17) 0.40089(17)
O7_15 O 0.54780(16) 0.65089(17) 0.49154(17)
N3_15 N 0.56509(11) 0.72881(11) 0.41149(11)
N4_15 N 0.52119(11) 0.83851(11) 0.56509(11)
N5_15 N 0.47881(11) 0.81509(11) 0.58851(11)
N6_28 N 0.68491(11) 0.91149(11) 0.52119(11)
N7_28 N 0.66149(11) 0.93491(11) 0.47881(11)
N8_15 N 0.41149(11) 0.68491(11) 0.52119(11)
N9_15 N 0.43491(11) 0.66149(11) 0.47881(11)
N10_21 N 0.5000 0.88571(9) 0.63571(9)
N11_18 N 0.61429(9) 0.86429(9) 0.5000
N12_18 N 0.38571(9) 0.7500 0.61429(9)
N13_21 N 0.5000 0.63571(9) 0.38571(9)
C2_27 C 0.59394(12) 0.71760(12) 0.36904(13)
C3_15 C 0.53240(12) 0.88096(13) 0.59394(12)
C4_15 C 0.46760(12) 0.84394(12) 0.63096(13)
C5_28 C 0.65606(12) 0.86904(13) 0.53240(12)
C6_28 C 0.61904(13) 0.90606(12) 0.46760(12)
H2_27 H 0.5861 0.6904 0.3453
H3_15 H 0.5596 0.9047 0.5861
H4_15 H 0.4404 0.8361 0.6547
H5_28 H 0.6639 0.8453 0.5596
H6_28 H 0.5953 0.9139 0.4404
H7_15 H 0.470826 0.775592 0.394182
H8_15 H 0.443009 0.724612 0.366532
H9_15 H 0.474408 0.855818 0.470826
H10_15 H 0.525388 0.883468 0.443009
H11_15 H 0.605818 0.724408 0.529174
H12_15 H 0.633468 0.775388 0.556991
H13_15 H 0.525592 0.720826 0.605818
H14_15 H 0.474612 0.693009 0.633468
H15_15 H 0.529174 0.644182 0.525592
H16_15 H 0.556991 0.616532 0.474612
H17_15 H 0.394182 0.779174 0.474408
H18_15 H 0.366532 0.806991 0.525388
Ni1_19 Ni 0.192753(14) 0.307247(14) 0.7500
O1_31 O 0.2500 0.2500 0.7500
O2_16 O 0.24154(17) 0.34911(17) 0.79780(16)
N1_16 N 0.16149(11) 0.27119(11) 0.81509(11)
N2_33 N 0.11429(9) 0.2500 0.88571(9)
C1_28 C 0.11904(13) 0.28240(12) 0.84394(12)
H1_28 H 0.0953 0.3096 0.8361
Ni2_19 Ni 0.307247(14) 0.2500 0.692753(14)
Ni3_22 Ni 0.2500 0.192753(14) 0.807247(14)
O3_16 O 0.15089(17) 0.25846(17) 0.70220(16)
O4_16 O 0.25846(17) 0.20220(16) 0.65089(17)
O5_16 O 0.34911(17) 0.29780(16) 0.74154(17)
O6_16 O 0.29780(16) 0.24154(17) 0.84911(17)
O7_16 O 0.20220(16) 0.15089(17) 0.75846(17)
N3_16 N 0.18491(11) 0.22881(11) 0.83851(11)
N4_16 N 0.22881(11) 0.33851(11) 0.68491(11)
N5_16 N 0.27119(11) 0.31509(11) 0.66149(11)
N6_29 N 0.06509(11) 0.41149(11) 0.72881(11)
N7_29 N 0.08851(11) 0.43491(11) 0.77119(11)
N8_16 N 0.33851(11) 0.18491(11) 0.72881(11)
N9_16 N 0.31509(11) 0.16149(11) 0.77119(11)
N10_22 N 0.2500 0.38571(9) 0.61429(9)
N11_19 N 0.13571(9) 0.36429(9) 0.7500
N12_19 N 0.36429(9) 0.2500 0.63571(9)
N13_22 N 0.2500 0.13571(9) 0.86429(9)
C2_28 C 0.15606(12) 0.21760(12) 0.88096(13)
C3_16 C 0.21760(12) 0.38096(13) 0.65606(12)
C4_16 C 0.28240(12) 0.34394(12) 0.61904(13)
C5_29 C 0.09394(12) 0.36904(13) 0.71760(12)
C6_29 C 0.13096(13) 0.40606(12) 0.78240(12)
H2_28 H 0.1639 0.1904 0.9047
H3_16 H 0.1904 0.4047 0.6639
H4_16 H 0.3096 0.3361 0.5953
H5_29 H 0.0861 0.3453 0.6904
H6_29 H 0.1547 0.4139 0.8096
H7_16 H 0.279174 0.275592 0.855818
H8_16 H 0.306991 0.224612 0.883468
H9_16 H 0.275592 0.355818 0.779174
H10_16 H 0.224612 0.383468 0.806991
H11_16 H 0.144182 0.224408 0.720826
H12_16 H 0.116532 0.275388 0.693009
H13_16 H 0.224408 0.220826 0.644182
H14_16 H 0.275388 0.193009 0.616532
H15_16 H 0.220826 0.144182 0.724408
H16_16 H 0.193009 0.116532 0.775388
H17_16 H 0.355818 0.279174 0.775592
H18_16 H 0.383468 0.306991 0.724612
N6_30 N 0.02119(11) 0.68491(11) 0.41149(11)
N10_23 N 0.13571(9) 0.5000 0.38571(9)
C3_17 C 0.09394(12) 0.53240(12) 0.38096(13)
C4_17 C 0.13096(13) 0.46760(12) 0.34394(12)
C5_30 C 0.03240(12) 0.65606(12) 0.36904(13)
H3_17 H 0.0861 0.5596 0.4047
H4_17 H 0.1547 0.4404 0.3361
H5_30 H 0.0596 0.6639 0.3453
N7_30 N 0.97881(11) 0.66149(11) 0.43491(11)
C6_30 C 0.96760(12) 0.61904(13) 0.40606(12)
H6_30 H 0.9404 0.5953 0.4139
N6_31 N 0.72881(11) 0.18491(11) 0.83851(11)
N7_31 N 0.77119(11) 0.16149(11) 0.81509(11)
N10_24 N 0.61429(9) 0.0000 0.86429(9)
C3_18 C 0.65606(12) 0.03240(12) 0.86904(13)
C5_31 C 0.71760(12) 0.15606(12) 0.88096(13)
C6_31 C 0.78240(12) 0.11904(13) 0.84394(12)
H3_18 H 0.6639 0.0596 0.8453
H5_31 H 0.6904 0.1639 0.9047
H6_31 H 0.8096 0.0953 0.8361
N10_25 N 0.61429(9) 1.0000 0.86429(9)
C4_18 C 0.61904(13) 0.96760(12) 0.90606(12)
H4_18 H 0.5953 0.9404 0.9139
N2_34 N 0.38571(9) 0.11429(9) 0.7500
C1_29 C 0.38096(13) 0.15606(12) 0.71760(12)
H1_29 H 0.4047 0.1639 0.6904
N6_32 N 0.43491(11) 0.27119(11) 0.58851(11)
N7_32 N 0.41149(11) 0.22881(11) 0.56509(11)
C2_29 C 0.34394(12) 0.11904(13) 0.78240(12)
C5_32 C 0.40606(12) 0.28240(12) 0.63096(13)
C6_32 C 0.36904(13) 0.21760(12) 0.59394(12)
H2_29 H 0.3361 0.0953 0.8096
H5_32 H 0.4139 0.3096 0.6547
H6_32 H 0.3453 0.1904 0.5861
N2_35 N 0.36429(9) 0.61429(9) 0.5000
C1_30 C 0.36904(13) 0.65606(12) 0.53240(12)
H1_30 H 0.3453 0.6639 0.5596
N6_33 N 0.31509(11) 0.77119(11) 0.66149(11)
N7_33 N 0.33851(11) 0.72881(11) 0.68491(11)
C2_30 C 0.40606(12) 0.61904(13) 0.46760(12)
C5_33 C 0.34394(12) 0.78240(12) 0.61904(13)
C6_33 C 0.38096(13) 0.71760(12) 0.65606(12)
H2_30 H 0.4139 0.5953 0.4404
H5_33 H 0.3361 0.8096 0.5953
H6_33 H 0.4047 0.6904 0.6639
N6_34 N 0.33851(11) 0.02119(11) 0.06509(11)
C5_34 C 0.38096(13) 0.03240(12) 0.09394(12)
H5_34 H 0.4047 0.0596 0.0861
N7_34 N 0.31509(11) 0.97881(11) 0.08851(11)
C6_34 C 0.34394(12) 0.96760(12) 0.13096(13)
H6_34 H 0.3361 0.9404 0.1547
N6_35 N 0.06509(11) 0.33851(11) 0.02119(11)
C5_35 C 0.09394(12) 0.38096(13) 0.03240(12)
H5_35 H 0.0861 0.4047 0.0596
N7_35 N 0.08851(11) 0.31509(11) 0.97881(11)
C6_35 C 0.13096(13) 0.34394(12) 0.96760(12)
H6_35 H 0.1547 0.3361 0.9404
N6_36 N 0.02119(11) 0.06509(11) 0.33851(11)
C5_36 C 0.03240(12) 0.09394(12) 0.38096(13)
H5_36 H 0.0596 0.0861 0.4047
N7_36 N 0.97881(11) 0.08851(11) 0.31509(11)
C6_36 C 0.96760(12) 0.13096(13) 0.34394(12)
H6_36 H 0.9404 0.1547 0.3361
N6_37 N 0.33851(11) 0.52119(11) 0.56509(11)
N7_37 N 0.31509(11) 0.47881(11) 0.58851(11)
C5_37 C 0.38096(13) 0.53240(12) 0.59394(12)
C6_37 C 0.34394(12) 0.46760(12) 0.63096(13)
H5_37 H 0.4047 0.5596 0.5861
H6_37 H 0.3361 0.4404 0.6547
N6_38 N 0.91149(11) 0.22881(11) 0.06509(11)
N7_38 N 0.93491(11) 0.27119(11) 0.08851(11)
C5_38 C 0.86904(13) 0.21760(12) 0.09394(12)
C6_38 C 0.90606(12) 0.28240(12) 0.13096(13)
H5_38 H 0.8453 0.1904 0.0861
H6_38 H 0.9139 0.3096 0.1547
N6_39 N 0.22881(11) 0.18491(11) 0.33851(11)
N7_39 N 0.27119(11) 0.16149(11) 0.31509(11)
C5_39 C 0.21760(12) 0.15606(12) 0.38096(13)
C6_39 C 0.28240(12) 0.11904(13) 0.34394(12)
H5_39 H 0.1904 0.1639 0.4047
H6_39 H 0.3096 0.0953 0.3361
N6_40 N 0.02119(11) 0.56509(11) 0.83851(11)
C5_40 C 0.03240(12) 0.59394(12) 0.88096(13)
H5_40 H 0.0596 0.5861 0.9047
N7_40 N 0.97881(11) 0.58851(11) 0.81509(11)
C6_40 C 0.96760(12) 0.63096(13) 0.84394(12)
H6_40 H 0.9404 0.6547 0.8361
N6_41 N 0.33851(11) 0.22881(11) 0.18491(11)
N7_41 N 0.31509(11) 0.27119(11) 0.16149(11)
C5_41 C 0.38096(13) 0.21760(12) 0.15606(12)
C6_41 C 0.34394(12) 0.28240(12) 0.11904(13)
H5_41 H 0.4047 0.1904 0.1639
H6_41 H 0.3361 0.3096 0.0953
N6_42 N 0.83851(11) 0.02119(11) 0.56509(11)
C5_42 C 0.88096(13) 0.03240(12) 0.59394(12)
H5_42 H 0.9047 0.0596 0.5861
N7_42 N 0.81509(11) 0.97881(11) 0.58851(11)
C6_42 C 0.84394(12) 0.96760(12) 0.63096(13)
H6_42 H 0.8361 0.9404 0.6547
N6_43 N 0.56509(11) 0.33851(11) 0.52119(11)
N7_43 N 0.58851(11) 0.31509(11) 0.47881(11)
C5_43 C 0.59394(12) 0.38096(13) 0.53240(12)
C6_43 C 0.63096(13) 0.34394(12) 0.46760(12)
H5_43 H 0.5861 0.4047 0.5596
H6_43 H 0.6547 0.3361 0.4404
N6_44 N 0.06509(11) 0.91149(11) 0.22881(11)
N7_44 N 0.08851(11) 0.93491(11) 0.27119(11)
C5_44 C 0.09394(12) 0.86904(13) 0.21760(12)
C6_44 C 0.13096(13) 0.90606(12) 0.28240(12)
H5_44 H 0.0861 0.8453 0.1904
H6_44 H 0.1547 0.9139 0.3096
N6_45 N 0.18491(11) 0.33851(11) 0.22881(11)
N7_45 N 0.16149(11) 0.31509(11) 0.27119(11)
C5_45 C 0.15606(12) 0.38096(13) 0.21760(12)
C6_45 C 0.11904(13) 0.34394(12) 0.28240(12)
H5_45 H 0.1639 0.4047 0.1904
H6_45 H 0.0953 0.3361 0.3096
N6_46 N 0.56509(11) 0.83851(11) 0.02119(11)
C5_46 C 0.59394(12) 0.88096(13) 0.03240(12)
H5_46 H 0.5861 0.9047 0.0596
N7_46 N 0.58851(11) 0.81509(11) 0.97881(11)
C6_46 C 0.63096(13) 0.84394(12) 0.96760(12)
H6_46 H 0.6547 0.8361 0.9404
N6_47 N 0.52119(11) 0.56509(11) 0.33851(11)
N7_47 N 0.47881(11) 0.58851(11) 0.31509(11)
C5_47 C 0.53240(12) 0.59394(12) 0.38096(13)
C6_47 C 0.46760(12) 0.63096(13) 0.34394(12)
H5_47 H 0.5596 0.5861 0.4047
H6_47 H 0.4404 0.6547 0.3361
N6_48 N 0.22881(11) 0.06509(11) 0.91149(11)
N7_48 N 0.27119(11) 0.08851(11) 0.93491(11)
C5_48 C 0.21760(12) 0.09394(12) 0.86904(13)
C6_48 C 0.28240(12) 0.13096(13) 0.90606(12)
H5_48 H 0.1904 0.0861 0.8453
H6_48 H 0.3096 0.1547 0.9139
O1_32 O 0.7500 0.5000 0.0000
O4_17 O 0.79780(16) 0.40089(17) 0.00846(17)
O5_17 O 0.70220(16) 0.49154(17) 0.09911(17)
O6_17 O 0.75846(17) 0.59911(17) 0.04780(16)
H7_17 H 0.724408 0.605818 0.0291743
H8_17 H 0.775388 0.633468 0.056991
H9_17 H 0.644182 0.529174 0.0255925
H14_17 H 0.806991 0.366532 0.0253876
H17_17 H 0.720826 0.525592 0.105818
H18_17 H 0.693009 0.474612 0.133468
O1_33 O 0.7500 0.5000 1.0000
O2_17 O 0.65089(17) 0.54780(16) 0.99154(17)
O3_17 O 0.74154(17) 0.45220(16) 0.90089(17)
O7_17 O 0.84911(17) 0.50846(17) 0.95220(16)
H10_17 H 0.616532 0.556991 0.974612
H11_17 H 0.775592 0.470826 0.894182
H12_17 H 0.724612 0.443009 0.866532
H13_17 H 0.779174 0.394182 0.974408
H15_17 H 0.855818 0.474408 0.970826
H16_17 H 0.883468 0.525388 0.943009
O1_34 O 0.0000 0.7500 0.5000
O4_18 O 0.00846(17) 0.79780(16) 0.40089(17)
O5_18 O 0.09911(17) 0.70220(16) 0.49154(17)
O6_18 O 0.04780(16) 0.75846(17) 0.59911(17)
H7_18 H 0.0291743 0.724408 0.605818
H8_18 H 0.056991 0.775388 0.633468
H9_18 H 0.0255925 0.644182 0.529174
H14_18 H 0.0253876 0.806991 0.366532
H17_18 H 0.105818 0.720826 0.525592
H18_18 H 0.133468 0.693009 0.474612
O1_35 O 1.0000 0.7500 0.5000
O2_18 O 0.99154(17) 0.65089(17) 0.54780(16)
O3_18 O 0.90089(17) 0.74154(17) 0.45220(16)
O7_18 O 0.95220(16) 0.84911(17) 0.50846(17)
H10_18 H 0.974612 0.616532 0.556991
H11_18 H 0.894182 0.775592 0.470826
H12_18 H 0.866532 0.724612 0.443009
H13_18 H 0.974408 0.779174 0.394182
H15_18 H 0.970826 0.855818 0.474408
H16_18 H 0.943009 0.883468 0.525388
O1_36 O 0.5000 -0.0000 0.7500
O4_19 O 0.40089(17) 0.00846(17) 0.79780(16)
O5_19 O 0.49154(17) 0.09911(17) 0.70220(16)
O6_19 O 0.59911(17) 0.04780(16) 0.75846(17)
H7_19 H 0.605818 0.0291743 0.724408
H8_19 H 0.633468 0.056991 0.775388
H9_19 H 0.529174 0.0255925 0.644182
H14_19 H 0.366532 0.0253876 0.806991
H17_19 H 0.525592 0.105818 0.720826
H18_19 H 0.474612 0.133468 0.693009
O1_37 O 0.5000 1.0000 0.7500
O2_19 O 0.54780(16) 0.99154(17) 0.65089(17)
O3_19 O 0.45220(16) 0.90089(17) 0.74154(17)
O7_19 O 0.50846(17) 0.95220(16) 0.84911(17)
H10_19 H 0.556991 0.974612 0.616532
H11_19 H 0.470826 0.894182 0.775592
H12_19 H 0.443009 0.866532 0.724612
H13_19 H 0.394182 0.974408 0.779174
H15_19 H 0.474408 0.970826 0.855818
H16_19 H 0.525388 0.943009 0.883468
O1_38 O 0.2500 0.2500 0.2500
O2_20 O 0.29780(16) 0.34911(17) 0.24154(17)
O3_20 O 0.20220(16) 0.25846(17) 0.15089(17)
O4_20 O 0.15089(17) 0.20220(16) 0.25846(17)
O5_20 O 0.24154(17) 0.29780(16) 0.34911(17)
O6_20 O 0.34911(17) 0.24154(17) 0.29780(16)
O7_20 O 0.25846(17) 0.15089(17) 0.20220(16)
H7_20 H 0.355818 0.275592 0.279174
H8_20 H 0.383468 0.224612 0.306991
H9_20 H 0.279174 0.355818 0.275592
H10_20 H 0.306991 0.383468 0.224612
H11_20 H 0.220826 0.224408 0.144182
H12_20 H 0.193009 0.275388 0.116532
H13_20 H 0.144182 0.220826 0.224408
H14_20 H 0.116532 0.193009 0.275388
H15_20 H 0.224408 0.144182 0.220826
H16_20 H 0.275388 0.116532 0.193009
H17_20 H 0.275592 0.279174 0.355818
H18_20 H 0.224612 0.306991 0.383468
O1_39 O 0.7500 0.0000 0.5000
O2_21 O 0.65089(17) 0.04780(16) 0.49154(17)
O6_21 O 0.75846(17) 0.09911(17) 0.54780(16)
O7_21 O 0.84911(17) 0.00846(17) 0.45220(16)
H7_21 H 0.724408 0.105818 0.529174
H8_21 H 0.775388 0.133468 0.556991
H9_21 H 0.644182 0.0291743 0.525592
H10_21 H 0.616532 0.056991 0.474612
H16_21 H 0.883468 0.0253876 0.443009
H17_21 H 0.720826 0.0255925 0.605818
O1_40 O 0.7500 1.0000 0.5000
O3_21 O 0.74154(17) 0.95220(16) 0.40089(17)
O4_21 O 0.79780(16) 0.90089(17) 0.50846(17)
O5_21 O 0.70220(16) 0.99154(17) 0.59911(17)
H11_21 H 0.775592 0.970826 0.394182
H12_21 H 0.724612 0.943009 0.366532
H13_21 H 0.779174 0.894182 0.474408
H14_21 H 0.806991 0.866532 0.525388
H15_21 H 0.855818 0.974408 0.470826
H18_21 H 0.693009 0.974612 0.633468
O1_41 O -0.0000 0.2500 0.0000
O5_22 O 0.04780(16) 0.25846(17) 0.09911(17)
H7_22 H 0.0255925 0.144182 0.0291743
H9_22 H 0.105818 0.220826 0.0255925
H17_22 H 0.0291743 0.224408 0.105818
H18_22 H 0.056991 0.275388 0.133468
O1_42 O -0.0000 0.2500 1.0000
O2_22 O 0.09911(17) 0.20220(16) 0.99154(17)
O3_22 O 0.00846(17) 0.29780(16) 0.90089(17)
H10_22 H 0.133468 0.193009 0.974612
H12_22 H 0.0253876 0.306991 0.866532
O1_43 O 1.0000 0.2500 0.0000
O4_22 O 0.95220(16) 0.34911(17) 0.00846(17)
O6_22 O 0.99154(17) 0.15089(17) 0.04780(16)
H8_22 H 0.974612 0.116532 0.056991
H14_22 H 0.943009 0.383468 0.0253876
O1_44 O 1.0000 0.2500 1.0000
O7_22 O 0.90089(17) 0.24154(17) 0.95220(16)
H11_22 H 0.974408 0.279174 0.894182
H13_22 H 0.970826 0.355818 0.974408
H15_22 H 0.894182 0.275592 0.970826
H16_22 H 0.866532 0.224612 0.943009
O1_45 O 0.5000 0.5000 0.2500
O2_23 O 0.54780(16) 0.49154(17) 0.15089(17)
O3_23 O 0.45220(16) 0.40089(17) 0.24154(17)
O4_23 O 0.40089(17) 0.50846(17) 0.29780(16)
O5_23 O 0.49154(17) 0.59911(17) 0.20220(16)
O6_23 O 0.59911(17) 0.54780(16) 0.25846(17)
O7_23 O 0.50846(17) 0.45220(16) 0.34911(17)
H7_23 H 0.605818 0.529174 0.224408
H8_23 H 0.633468 0.556991 0.275388
H9_23 H 0.529174 0.525592 0.144182
H10_23 H 0.556991 0.474612 0.116532
H11_23 H 0.470826 0.394182 0.275592
H12_23 H 0.443009 0.366532 0.224612
H13_23 H 0.394182 0.474408 0.279174
H14_23 H 0.366532 0.525388 0.306991
H15_23 H 0.474408 0.470826 0.355818
H16_23 H 0.525388 0.443009 0.383468
H17_23 H 0.525592 0.605818 0.220826
H18_23 H 0.474612 0.633468 0.193009
O1_46 O 0.2500 0.7500 0.7500
O2_24 O 0.20220(16) 0.75846(17) 0.65089(17)
O3_24 O 0.29780(16) 0.84911(17) 0.74154(17)
O4_24 O 0.34911(17) 0.74154(17) 0.79780(16)
O5_24 O 0.25846(17) 0.65089(17) 0.70220(16)
O6_24 O 0.15089(17) 0.70220(16) 0.75846(17)
O7_24 O 0.24154(17) 0.79780(16) 0.84911(17)
H7_24 H 0.144182 0.720826 0.724408
H8_24 H 0.116532 0.693009 0.775388
H9_24 H 0.220826 0.724408 0.644182
H10_24 H 0.193009 0.775388 0.616532
H11_24 H 0.279174 0.855818 0.775592
H12_24 H 0.306991 0.883468 0.724612
H13_24 H 0.355818 0.775592 0.779174
H14_24 H 0.383468 0.724612 0.806991
H15_24 H 0.275592 0.779174 0.855818
H16_24 H 0.224612 0.806991 0.883468
H17_24 H 0.224408 0.644182 0.720826
H18_24 H 0.275388 0.616532 0.693009
O1_47 O 0.2500 0.5000 0.5000
O2_25 O 0.15089(17) 0.54780(16) 0.49154(17)
O3_25 O 0.24154(17) 0.45220(16) 0.40089(17)
O4_25 O 0.29780(16) 0.40089(17) 0.50846(17)
O5_25 O 0.20220(16) 0.49154(17) 0.59911(17)
O6_25 O 0.25846(17) 0.59911(17) 0.54780(16)
O7_25 O 0.34911(17) 0.50846(17) 0.45220(16)
H7_25 H 0.224408 0.605818 0.529174
H8_25 H 0.275388 0.633468 0.556991
H9_25 H 0.144182 0.529174 0.525592
H10_25 H 0.116532 0.556991 0.474612
H11_25 H 0.275592 0.470826 0.394182
H12_25 H 0.224612 0.443009 0.366532
H13_25 H 0.279174 0.394182 0.474408
H14_25 H 0.306991 0.366532 0.525388
H15_25 H 0.355818 0.474408 0.470826
H16_25 H 0.383468 0.525388 0.443009
H17_25 H 0.220826 0.525592 0.605818
H18_25 H 0.193009 0.474612 0.633468
O1_48 O 0.7500 0.2500 0.7500
O2_26 O 0.65089(17) 0.20220(16) 0.75846(17)
O3_26 O 0.74154(17) 0.29780(16) 0.84911(17)
O4_26 O 0.79780(16) 0.34911(17) 0.74154(17)
O5_26 O 0.70220(16) 0.25846(17) 0.65089(17)
O6_26 O 0.75846(17) 0.15089(17) 0.70220(16)
O7_26 O 0.84911(17) 0.24154(17) 0.79780(16)
H7_26 H 0.724408 0.144182 0.720826
H8_26 H 0.775388 0.116532 0.693009
H9_26 H 0.644182 0.220826 0.724408
H10_26 H 0.616532 0.193009 0.775388
H11_26 H 0.775592 0.279174 0.855818
H12_26 H 0.724612 0.306991 0.883468
H13_26 H 0.779174 0.355818 0.775592
H14_26 H 0.806991 0.383468 0.724612
H15_26 H 0.855818 0.275592 0.779174
H16_26 H 0.883468 0.224612 0.806991
H17_26 H 0.720826 0.224408 0.644182
H18_26 H 0.693009 0.275388 0.616532
O1_49 O 0.5000 0.7500 0.0000
O2_27 O 0.49154(17) 0.65089(17) 0.04780(16)
O6_27 O 0.54780(16) 0.75846(17) 0.09911(17)
O7_27 O 0.45220(16) 0.84911(17) 0.00846(17)
H7_27 H 0.529174 0.724408 0.105818
H8_27 H 0.556991 0.775388 0.133468
H9_27 H 0.525592 0.644182 0.0291743
H10_27 H 0.474612 0.616532 0.056991
H16_27 H 0.443009 0.883468 0.0253876
H17_27 H 0.605818 0.720826 0.0255925
O1_50 O 0.5000 0.7500 1.0000
O3_27 O 0.40089(17) 0.74154(17) 0.95220(16)
O4_27 O 0.50846(17) 0.79780(16) 0.90089(17)
O5_27 O 0.59911(17) 0.70220(16) 0.99154(17)
H11_27 H 0.394182 0.775592 0.970826
H12_27 H 0.366532 0.724612 0.943009
H13_27 H 0.474408 0.779174 0.894182
H14_27 H 0.525388 0.806991 0.866532
H15_27 H 0.470826 0.855818 0.974408
H18_27 H 0.633468 0.693009 0.974612
O1_51 O -0.0000 -0.0000 0.2500
O5_28 O 0.09911(17) 0.04780(16) 0.25846(17)
H7_28 H 0.0291743 0.0255925 0.144182
H9_28 H 0.0255925 0.105818 0.220826
H17_28 H 0.105818 0.0291743 0.224408
H18_28 H 0.133468 0.056991 0.275388
O1_52 O 0.0000 1.0000 0.2500
O4_28 O 0.00846(17) 0.95220(16) 0.34911(17)
O6_28 O 0.04780(16) 0.99154(17) 0.15089(17)
H8_28 H 0.056991 0.974612 0.116532
H14_28 H 0.0253876 0.943009 0.383468
O1_53 O 1.0000 -0.0000 0.2500
O2_28 O 0.99154(17) 0.09911(17) 0.20220(16)
O3_28 O 0.90089(17) 0.00846(17) 0.29780(16)
H10_28 H 0.974612 0.133468 0.193009
H12_28 H 0.866532 0.0253876 0.306991
O1_54 O 1.0000 1.0000 0.2500
O7_28 O 0.95220(16) 0.90089(17) 0.24154(17)
H11_28 H 0.894182 0.974408 0.279174
H13_28 H 0.974408 0.970826 0.355818
H15_28 H 0.970826 0.894182 0.275592
H16_28 H 0.943009 0.866532 0.224612
O1_55 O 0.2500 0.0000 0.0000
O6_29 O 0.25846(17) 0.09911(17) 0.04780(16)
H7_29 H 0.224408 0.105818 0.0291743
H8_29 H 0.275388 0.133468 0.056991
H9_29 H 0.144182 0.0291743 0.0255925
H17_29 H 0.220826 0.0255925 0.105818
O1_56 O 0.2500 0.0000 1.0000
O2_29 O 0.15089(17) 0.04780(16) 0.99154(17)
O7_29 O 0.34911(17) 0.00846(17) 0.95220(16)
H10_29 H 0.116532 0.056991 0.974612
H16_29 H 0.383468 0.0253876 0.943009
O1_57 O 0.2500 1.0000 0.0000
O4_29 O 0.29780(16) 0.90089(17) 0.00846(17)
O5_29 O 0.20220(16) 0.99154(17) 0.09911(17)
H14_29 H 0.306991 0.866532 0.0253876
H18_29 H 0.193009 0.974612 0.133468
O1_58 O 0.2500 1.0000 1.0000
O3_29 O 0.24154(17) 0.95220(16) 0.90089(17)
H11_29 H 0.275592 0.970826 0.894182
H12_29 H 0.224612 0.943009 0.866532
H13_29 H 0.279174 0.894182 0.974408
H15_29 H 0.355818 0.974408 0.970826
O1_59 O -0.0000 0.5000 0.7500
O2_30 O 0.09911(17) 0.54780(16) 0.75846(17)
O3_30 O 0.00846(17) 0.45220(16) 0.84911(17)
O5_30 O 0.04780(16) 0.49154(17) 0.65089(17)
H7_30 H 0.0255925 0.605818 0.720826
H9_30 H 0.105818 0.529174 0.724408
H10_30 H 0.133468 0.556991 0.775388
H12_30 H 0.0253876 0.443009 0.883468
H17_30 H 0.0291743 0.525592 0.644182
H18_30 H 0.056991 0.474612 0.616532
O1_60 O 1.0000 0.5000 0.7500
O4_30 O 0.95220(16) 0.40089(17) 0.74154(17)
O6_30 O 0.99154(17) 0.59911(17) 0.70220(16)
O7_30 O 0.90089(17) 0.50846(17) 0.79780(16)
H8_30 H 0.974612 0.633468 0.693009
H11_30 H 0.974408 0.470826 0.855818
H13_30 H 0.970826 0.394182 0.775592
H14_30 H 0.943009 0.366532 0.724612
H15_30 H 0.894182 0.474408 0.779174
H16_30 H 0.866532 0.525388 0.806991
O1_61 O 0.5000 0.2500 0.5000
O2_31 O 0.49154(17) 0.15089(17) 0.54780(16)
O3_31 O 0.40089(17) 0.24154(17) 0.45220(16)
O4_31 O 0.50846(17) 0.29780(16) 0.40089(17)
O5_31 O 0.59911(17) 0.20220(16) 0.49154(17)
O6_31 O 0.54780(16) 0.25846(17) 0.59911(17)
O7_31 O 0.45220(16) 0.34911(17) 0.50846(17)
H7_31 H 0.529174 0.224408 0.605818
H8_31 H 0.556991 0.275388 0.633468
H9_31 H 0.525592 0.144182 0.529174
H10_31 H 0.474612 0.116532 0.556991
H11_31 H 0.394182 0.275592 0.470826
H12_31 H 0.366532 0.224612 0.443009
H13_31 H 0.474408 0.279174 0.394182
H14_31 H 0.525388 0.306991 0.366532
H15_31 H 0.470826 0.355818 0.474408
H16_31 H 0.443009 0.383468 0.525388
H17_31 H 0.605818 0.220826 0.525592
H18_31 H 0.633468 0.193009 0.474612
O1_62 O 0.7500 0.7500 0.2500
O2_32 O 0.75846(17) 0.65089(17) 0.20220(16)
O3_32 O 0.84911(17) 0.74154(17) 0.29780(16)
O4_32 O 0.74154(17) 0.79780(16) 0.34911(17)
O5_32 O 0.65089(17) 0.70220(16) 0.25846(17)
O6_32 O 0.70220(16) 0.75846(17) 0.15089(17)
O7_32 O 0.79780(16) 0.84911(17) 0.24154(17)
H7_32 H 0.720826 0.724408 0.144182
H8_32 H 0.693009 0.775388 0.116532
H9_32 H 0.724408 0.644182 0.220826
H10_32 H 0.775388 0.616532 0.193009
H11_32 H 0.855818 0.775592 0.279174
H12_32 H 0.883468 0.724612 0.306991
H13_32 H 0.775592 0.779174 0.355818
H14_32 H 0.724612 0.806991 0.383468
H15_32 H 0.779174 0.855818 0.275592
H16_32 H 0.806991 0.883468 0.224612
H17_32 H 0.644182 0.720826 0.224408
H18_32 H 0.616532 0.693009 0.275388
loop_
_geom_bond_atom_site_label_1
_geom_bond_atom_site_label_2
_geom_bond_site_symmetry_1
_geom_bond_site_symmetry_2
Ni1 O1 1_555 1_555
O2 Ni1 1_555 1_555
N1 Ni1 1_555 1_555
N2 C1 1_555 1_555
C1 N1 1_555 1_555
H1 C1 1_555 1_555
Ni3 O1 1_555 1_555
Ni4 N2 1_555 1_555
Ni5 N10 1_555 1_555
Ni6 N6 1_555 1_555
Ni7 N7 1_555 1_555
O3 Ni1 1_555 1_555
O7 Ni3 1_555 1_555
N3 N1 1_555 1_555
N4 Ni1 1_555 1_555
N6 N7 1_555 1_555
N7 C6 1_555 1_555
N10 C3 1_555 1_555
N11 Ni1 1_555 1_555
N13 Ni3 1_555 1_555
C2 N2 1_555 1_555
C3 N4 1_555 1_555
C5 N6 1_555 1_555
C6 N11 1_555 1_555
H2 C2 1_555 1_555
H3 C3 1_555 1_555
H5 C5 1_555 1_555
H6 C6 1_555 1_555
Ni3 N3 1_555 1_555
N3 C2 1_555 1_555
N11 C5 1_555 1_555
O2 H10 1_555 1_555
O3 H11 1_555 1_555
O3 H12 1_555 1_555
O7 H15 1_555 1_555
O7 H16 1_555 1_555
O1_2 Ni2 1_555 1_555
Ni2 O4 1_555 1_555
Ni3_2 O1_2 1_555 1_555
Ni5_2 N10_2 1_555 1_555
O5 Ni2 1_555 1_555
O6 Ni3_2 1_555 1_555
N5 Ni2 1_555 1_555
N8 Ni2 1_555 1_555
N9 Ni3_2 1_555 1_555
N12 Ni2 1_555 1_555
N13_2 Ni3_2 1_555 1_555
C4 N5 1_555 1_555
H4 C4 1_555 1_555
N8 N9 1_555 1_555
N10_2 C4 1_555 1_555
O6 H7 1_555 1_555
O6 H8 1_555 1_555
O4 H14 1_555 1_555
O5 H17 1_555 1_555
O5 H18 1_555 1_555
Ni1_2 O1_3 1_555 1_555
O2_2 Ni1_2 1_555 1_555
N1_2 Ni1_2 1_555 1_555
N2_2 C1_2 1_555 1_555
C1_2 N1_2 1_555 1_555
H1_2 C1_2 1_555 1_555
Ni3_3 O1_3 1_555 1_555
Ni4_2 N2_2 1_555 1_555
Ni5_3 N10_3 1_555 1_555
Ni6_2 N6_2 1_555 1_555
Ni7_2 N7_2 1_555 1_555
O3_2 Ni1_2 1_555 1_555
O7_2 Ni3_3 1_555 1_555
N3_2 N1_2 1_555 1_555
N4_2 Ni1_2 1_555 1_555
N6_2 N7_2 1_555 1_555
N7_2 C6_2 1_555 1_555
N10_3 C3_2 1_555 1_555
N11_2 Ni1_2 1_555 1_555
N13_3 Ni3_3 1_555 1_555
C2_2 N2_2 1_555 1_555
C3_2 N4_2 1_555 1_555
C5_2 N6_2 1_555 1_555
C6_2 N11_2 1_555 1_555
H2_2 C2_2 1_555 1_555
H3_2 C3_2 1_555 1_555
H5_2 C5_2 1_555 1_555
H6_2 C6_2 1_555 1_555
Ni3_3 N3_2 1_555 1_555
N3_2 C2_2 1_555 1_555
N11_2 C5_2 1_555 1_555
O2_2 H10_2 1_555 1_555
O3_2 H11_2 1_555 1_555
O3_2 H12_2 1_555 1_555
O7_2 H15_2 1_555 1_555
O7_2 H16_2 1_555 1_555
O1_4 Ni2_2 1_555 1_555
Ni2_2 O4_2 1_555 1_555
Ni3_4 O1_4 1_555 1_555
Ni5_4 N10_4 1_555 1_555
O5_2 Ni2_2 1_555 1_555
O6_2 Ni3_4 1_555 1_555
N5_2 Ni2_2 1_555 1_555
N8_2 Ni2_2 1_555 1_555
N9_2 Ni3_4 1_555 1_555
N12_2 Ni2_2 1_555 1_555
N13_4 Ni3_4 1_555 1_555
C4_2 N5_2 1_555 1_555
H4_2 C4_2 1_555 1_555
N8_2 N9_2 1_555 1_555
N10_4 C4_2 1_555 1_555
O6_2 H7_2 1_555 1_555
O6_2 H8_2 1_555 1_555
O4_2 H14_2 1_555 1_555
O5_2 H17_2 1_555 1_555
O5_2 H18_2 1_555 1_555
Ni1_3 O1_5 1_555 1_555
O2_3 Ni1_3 1_555 1_555
N1_3 Ni1_3 1_555 1_555
N2_3 C1_3 1_555 1_555
C1_3 N1_3 1_555 1_555
H1_3 C1_3 1_555 1_555
Ni3_5 O1_5 1_555 1_555
Ni4_3 N2_3 1_555 1_555
Ni5_5 N10_5 1_555 1_555
Ni6_3 N6_3 1_555 1_555
Ni7_3 N7_3 1_555 1_555
O3_3 Ni1_3 1_555 1_555
O7_3 Ni3_5 1_555 1_555
N3_3 N1_3 1_555 1_555
N4_3 Ni1_3 1_555 1_555
N6_3 N7_3 1_555 1_555
N7_3 C6_3 1_555 1_555
N10_5 C3_3 1_555 1_555
N11_3 Ni1_3 1_555 1_555
N13_5 Ni3_5 1_555 1_555
C2_3 N2_3 1_555 1_555
C3_3 N4_3 1_555 1_555
C5_3 N6_3 1_555 1_555
C6_3 N11_3 1_555 1_555
H2_3 C2_3 1_555 1_555
H3_3 C3_3 1_555 1_555
H5_3 C5_3 1_555 1_555
H6_3 C6_3 1_555 1_555
Ni3_5 N3_3 1_555 1_555
N3_3 C2_3 1_555 1_555
N11_3 C5_3 1_555 1_555
O2_3 H10_3 1_555 1_555
O3_3 H11_3 1_555 1_555
O3_3 H12_3 1_555 1_555
O7_3 H15_3 1_555 1_555
O7_3 H16_3 1_555 1_555
O1_6 Ni2_3 1_555 1_555
Ni2_3 O4_3 1_555 1_555
Ni3_6 O1_6 1_555 1_555
Ni5_6 N10_6 1_555 1_555
O5_3 Ni2_3 1_555 1_555
O6_3 Ni3_6 1_555 1_555
N5_3 Ni2_3 1_555 1_555
N8_3 Ni2_3 1_555 1_555
N9_3 Ni3_6 1_555 1_555
N12_3 Ni2_3 1_555 1_555
N13_6 Ni3_6 1_555 1_555
C4_3 N5_3 1_555 1_555
H4_3 C4_3 1_555 1_555
N8_3 N9_3 1_555 1_555
N10_6 C4_3 1_555 1_555
O6_3 H7_3 1_555 1_555
O6_3 H8_3 1_555 1_555
O4_3 H14_3 1_555 1_555
O5_3 H17_3 1_555 1_555
O5_3 H18_3 1_555 1_555
N2_4 C1_4 1_555 1_555
C1_4 N8 1_555 1_555
H1_4 C1_4 1_555 1_555
Ni4_4 N2_4 1_555 1_555
Ni6_4 N6_4 1_555 1_555
Ni7_4 N7_4 1_555 1_555
N6_4 N7_4 1_555 1_555
N7_4 C6_4 1_555 1_555
C2_4 N2_4 1_555 1_555
C5_4 N6_4 1_555 1_555
C6_4 N12 1_555 1_555
H2_4 C2_4 1_555 1_555
H5_4 C5_4 1_555 1_555
H6_4 C6_4 1_555 1_555
N9 C2_4 1_555 1_555
N12 C5_4 1_555 1_555
Ni1_4 O1_7 1_555 1_555
O1_7 Ni2_4 1_555 1_555
O2_4 Ni1_4 1_555 1_555
N1_4 Ni1_4 1_555 1_555
N2_5 C1_5 1_555 1_555
C1_5 N1_4 1_555 1_555
H1_5 C1_5 1_555 1_555
Ni2_4 O4_4 1_555 1_555
Ni3_7 O1_7 1_555 1_555
Ni4_5 N2_5 1_555 1_555
Ni5_7 N10_7 1_555 1_555
Ni6_6 N6_5 1_555 1_555
Ni7_5 N7_5 1_555 1_555
O3_4 Ni1_4 1_555 1_555
O5_4 Ni2_4 1_555 1_555
O6_4 Ni3_7 1_555 1_555
O7_4 Ni3_7 1_555 1_555
N3_4 N1_4 1_555 1_555
N4_4 Ni1_4 1_555 1_555
N5_4 Ni2_4 1_555 1_555
N6_5 N7_5 1_555 1_555
N7_5 C6_5 1_555 1_555
N8_4 Ni2_4 1_555 1_555
N9_4 Ni3_7 1_555 1_555
N10_7 C3_4 1_555 1_555
N11_4 Ni1_4 1_555 1_555
N12_4 Ni2_4 1_555 1_555
N13_7 Ni3_7 1_555 1_555
C2_5 N2_5 1_555 1_555
C3_4 N4_4 1_555 1_555
C4_4 N5_4 1_555 1_555
C5_5 N6_5 1_555 1_555
C6_5 N11_4 1_555 1_555
H2_5 C2_5 1_555 1_555
H3_4 C3_4 1_555 1_555
H4_4 C4_4 1_555 1_555
H5_5 C5_5 1_555 1_555
H6_5 C6_5 1_555 1_555
Ni3_7 N3_4 1_555 1_555
N3_4 C2_5 1_555 1_555
N4_4 N5_4 1_555 1_555
N8_4 N9_4 1_555 1_555
N10_7 C4_4 1_555 1_555
N11_4 C5_5 1_555 1_555
O6_4 H7_4 1_555 1_555
O6_4 H8_4 1_555 1_555
O2_4 H9_4 1_555 1_555
O2_4 H10_4 1_555 1_555
O3_4 H11_4 1_555 1_555
O3_4 H12_4 1_555 1_555
O4_4 H13_4 1_555 1_555
O4_4 H14_4 1_555 1_555
O7_4 H15_4 1_555 1_555
O7_4 H16_4 1_555 1_555
O5_4 H17_4 1_555 1_555
O5_4 H18_4 1_555 1_555
N2_6 C1_6 1_555 1_555
C1_6 N9_4 1_555 1_555
H1_6 C1_6 1_555 1_555
Ni4_6 N2_6 1_555 1_555
Ni6_8 N6_6 1_555 1_555
Ni7_6 N7_6 1_555 1_555
N6_6 N7_6 1_555 1_555
N7_6 C6_6 1_555 1_555
C2_6 N2_6 1_555 1_555
C5_6 N6_6 1_555 1_555
C6_6 N13_7 1_555 1_555
H2_6 C2_6 1_555 1_555
H5_6 C5_6 1_555 1_555
H6_6 C6_6 1_555 1_555
N8_4 C2_6 1_555 1_555
N13_7 C5_6 1_555 1_555
N2_7 C1_7 1_555 1_555
C1_7 N8_3 1_555 1_555
H1_7 C1_7 1_555 1_555
Ni4_7 N2_7 1_555 1_555
Ni6_9 N6_7 1_555 1_555
Ni7_7 N7_7 1_555 1_555
N6_7 N7_7 1_555 1_555
N7_7 C6_7 1_555 1_555
C2_7 N2_7 1_555 1_555
C5_7 N6_7 1_555 1_555
C6_7 N12_3 1_555 1_555
H2_7 C2_7 1_555 1_555
H5_7 C5_7 1_555 1_555
H6_7 C6_7 1_555 1_555
N9_3 C2_7 1_555 1_555
N12_3 C5_7 1_555 1_555
Ni6_11 N6_8 1_555 1_555
Ni7_8 N7_8 1_555 1_555
N6_8 N7_8 1_555 1_555
N7_8 C6_8 1_555 1_555
C5_8 N6_8 1_555 1_555
C6_8 N12_4 1_555 1_555
H5_8 C5_8 1_555 1_555
H6_8 C6_8 1_555 1_555
N12_4 C5_8 1_555 1_555
N2_8 C1_8 1_555 1_555
C1_8 N8_2 1_555 1_555
H1_8 C1_8 1_555 1_555
Ni4_8 N2_8 1_555 1_555
Ni6_12 N6_9 1_555 1_555
Ni7_9 N7_9 1_555 1_555
N6_9 N7_9 1_555 1_555
N7_9 C6_9 1_555 1_555
C2_8 N2_8 1_555 1_555
C5_9 N6_9 1_555 1_555
C6_9 N12_2 1_555 1_555
H2_8 C2_8 1_555 1_555
H5_9 C5_9 1_555 1_555
H6_9 C6_9 1_555 1_555
N9_2 C2_8 1_555 1_555
N12_2 C5_9 1_555 1_555
Ni1_5 O1_8 1_555 1_555
O1_8 Ni2_5 1_555 1_555
Ni2_5 O4_5 1_555 1_555
Ni7_3 N10_8 1_555 1_555
Ni6_13 N6_10 1_555 1_555
O3_5 Ni1_5 1_555 1_555
O5_5 Ni2_5 1_555 1_555
N4_5 Ni1_5 1_555 1_555
N5_5 Ni2_5 1_555 1_555
N8_5 Ni2_5 1_555 1_555
N10_8 C3_5 1_555 1_555
N11_5 Ni1_5 1_555 1_555
N12_5 Ni2_5 1_555 1_555
C3_5 N4_5 1_555 1_555
C4_5 N5_5 1_555 1_555
C5_10 N6_10 1_555 1_555
H3_5 C3_5 1_555 1_555
H4_5 C4_5 1_555 1_555
H5_10 C5_10 1_555 1_555
N4_5 N5_5 1_555 1_555
N10_8 C4_5 1_555 1_555
N11_5 C5_10 1_555 1_555
O3_5 H11_5 1_555 1_555
O3_5 H12_5 1_555 1_555
O4_5 H13_5 1_555 1_555
O4_5 H14_5 1_555 1_555
O5_5 H18_5 1_555 1_555
Ni1_6 O1_9 1_555 1_555
O2_5 Ni1_6 1_555 1_555
N1_5 Ni1_6 1_555 1_555
N2_9 C1_9 1_555 1_555
C1_9 N1_5 1_555 1_555
H1_9 C1_9 1_555 1_555
Ni3_8 O1_9 1_555 1_555
Ni4_9 N2_9 1_555 1_555
Ni7_6 N7_10 1_555 1_555
O6_5 Ni3_8 1_555 1_555
O7_5 Ni3_8 1_555 1_555
N3_5 N1_5 1_555 1_555
N7_10 C6_10 1_555 1_555
N9_5 Ni3_8 1_555 1_555
N11_6 Ni1_6 1_555 1_555
N13_8 Ni3_8 1_555 1_555
C2_9 N2_9 1_555 1_555
C6_10 N11_6 1_555 1_555
H2_9 C2_9 1_555 1_555
H6_10 C6_10 1_555 1_555
Ni3_8 N3_5 1_555 1_555
N3_5 C2_9 1_555 1_555
O6_5 H7_5 1_555 1_555
O6_5 H8_5 1_555 1_555
O2_5 H9_5 1_555 1_555
O2_5 H10_5 1_555 1_555
O7_5 H16_5 1_555 1_555
Ni3_9 O1_10 1_555 1_555
Ni4_10 N2_10 1_555 1_555
O7_6 Ni3_9 1_555 1_555
N13_9 Ni3_9 1_555 1_555
C2_10 N2_10 1_555 1_555
H2_10 C2_10 1_555 1_555
Ni3_9 N3_6 1_555 1_555
N3_6 C2_10 1_555 1_555
O7_6 H15_6 1_555 1_555
O7_6 H16_6 1_555 1_555
O1_11 Ni2_6 1_555 1_555
Ni2_6 O4_6 1_555 1_555
Ni3_10 O1_11 1_555 1_555
O6_6 Ni3_10 1_555 1_555
N8_6 Ni2_6 1_555 1_555
N9_6 Ni3_10 1_555 1_555
N12_6 Ni2_6 1_555 1_555
N13_10 Ni3_10 1_555 1_555
N8_6 N9_6 1_555 1_555
O6_6 H8_6 1_555 1_555
O4_6 H14_6 1_555 1_555
Ni1_7 O1_12 1_555 1_555
O2_6 Ni1_7 1_555 1_555
N1_6 Ni1_7 1_555 1_555
N2_11 C1_10 1_555 1_555
C1_10 N1_6 1_555 1_555
H1_10 C1_10 1_555 1_555
Ni4_11 N2_11 1_555 1_555
Ni6_5 N10_9 1_555 1_555
Ni6_14 N6_11 1_555 1_555
Ni7_7 N7_11 1_555 1_555
O3_6 Ni1_7 1_555 1_555
N4_6 Ni1_7 1_555 1_555
N6_11 N7_11 1_555 1_555
N7_11 C6_11 1_555 1_555
N10_9 C3_6 1_555 1_555
N11_7 Ni1_7 1_555 1_555
C3_6 N4_6 1_555 1_555
C5_11 N6_11 1_555 1_555
C6_11 N11_7 1_555 1_555
H3_6 C3_6 1_555 1_555
H5_11 C5_11 1_555 1_555
H6_11 C6_11 1_555 1_555
N11_7 C5_11 1_555 1_555
O2_6 H10_6 1_555 1_555
O3_6 H12_6 1_555 1_555
O1_13 Ni2_7 1_555 1_555
Ni6_6 N10_10 1_555 1_555
O5_6 Ni2_7 1_555 1_555
N5_6 Ni2_7 1_555 1_555
N12_7 Ni2_7 1_555 1_555
C4_6 N5_6 1_555 1_555
H4_6 C4_6 1_555 1_555
N10_10 C4_6 1_555 1_555
O5_6 H17_6 1_555 1_555
O5_6 H18_6 1_555 1_555
Ni6_15 N6_12 1_555 1_555
C5_12 N6_12 1_555 1_555
H5_12 C5_12 1_555 1_555
N13_9 C5_12 1_555 1_555
N2_12 C1_11 1_555 1_555
C1_11 N9_6 1_555 1_555
H1_11 C1_11 1_555 1_555
Ni7_4 N2_12 1_555 1_555
Ni7_11 N7_12 1_555 1_555
N7_12 C6_12 1_555 1_555
C2_11 N2_12 1_555 1_555
C6_12 N13_10 1_555 1_555
H2_11 C2_11 1_555 1_555
H6_12 C6_12 1_555 1_555
N8_6 C2_11 1_555 1_555
Ni4_12 N2_13 1_555 1_555
C2_12 N2_13 1_555 1_555
H2_12 C2_12 1_555 1_555
N8_5 C2_12 1_555 1_555
N2_14 C1_12 1_555 1_555
C1_12 N9_5 1_555 1_555
H1_12 C1_12 1_555 1_555
Ni4_13 N2_14 1_555 1_555
Ni6_10 N6_13 1_555 1_555
Ni7_12 N7_13 1_555 1_555
N6_13 N7_13 1_555 1_555
N7_13 C6_13 1_555 1_555
C5_13 N6_13 1_555 1_555
C6_13 N13_8 1_555 1_555
H5_13 C5_13 1_555 1_555
H6_13 C6_13 1_555 1_555
N13_8 C5_13 1_555 1_555
Ni1_8 O1_14 1_555 1_555
O1_14 Ni2_8 1_555 1_555
O2_7 Ni1_8 1_555 1_555
N1_7 Ni1_8 1_555 1_555
N2_15 C1_13 1_555 1_555
C1_13 N1_7 1_555 1_555
H1_13 C1_13 1_555 1_555
Ni2_8 O4_7 1_555 1_555
Ni3_11 O1_14 1_555 1_555
Ni6_4 N2_15 1_555 1_555
Ni7_5 N10_11 1_555 1_555
Ni4_5 N6_14 1_555 1_555
Ni5_2 N7_14 1_555 1_555
O3_7 Ni1_8 1_555 1_555
O5_7 Ni2_8 1_555 1_555
O6_7 Ni3_11 1_555 1_555
O7_7 Ni3_11 1_555 1_555
N3_7 N1_7 1_555 1_555
N4_7 Ni1_8 1_555 1_555
N5_7 Ni2_8 1_555 1_555
N6_14 N7_14 1_555 1_555
N7_14 C6_14 1_555 1_555
N8_7 Ni2_8 1_555 1_555
N9_7 Ni3_11 1_555 1_555
N10_11 C3_7 1_555 1_555
N11_8 Ni1_8 1_555 1_555
N12_8 Ni2_8 1_555 1_555
N13_11 Ni3_11 1_555 1_555
C2_13 N2_15 1_555 1_555
C3_7 N4_7 1_555 1_555
C4_7 N5_7 1_555 1_555
C5_14 N6_14 1_555 1_555
C6_14 N11_8 1_555 1_555
H2_13 C2_13 1_555 1_555
H3_7 C3_7 1_555 1_555
H4_7 C4_7 1_555 1_555
H5_14 C5_14 1_555 1_555
H6_14 C6_14 1_555 1_555
Ni3_11 N3_7 1_555 1_555
N3_7 C2_13 1_555 1_555
N4_7 N5_7 1_555 1_555
N8_7 N9_7 1_555 1_555
N10_11 C4_7 1_555 1_555
N11_8 C5_14 1_555 1_555
O6_7 H7_7 1_555 1_555
O6_7 H8_7 1_555 1_555
O2_7 H9_7 1_555 1_555
O2_7 H10_7 1_555 1_555
O3_7 H11_7 1_555 1_555
O3_7 H12_7 1_555 1_555
O4_7 H13_7 1_555 1_555
O4_7 H14_7 1_555 1_555
O7_7 H15_7 1_555 1_555
O7_7 H16_7 1_555 1_555
O5_7 H17_7 1_555 1_555
O5_7 H18_7 1_555 1_555
Ni1_9 O1_15 1_555 1_555
O1_15 Ni2_9 1_555 1_555
O2_8 Ni1_9 1_555 1_555
N1_8 Ni1_9 1_555 1_555
N2_16 C1_14 1_555 1_555
C1_14 N1_8 1_555 1_555
H1_14 C1_14 1_555 1_555
Ni2_9 O4_8 1_555 1_555
Ni3_12 O1_15 1_555 1_555
Ni4_14 N2_16 1_555 1_555
Ni6_3 N10_12 1_555 1_555
Ni5_5 N6_15 1_555 1_555
Ni4_8 N7_15 1_555 1_555
O3_8 Ni1_9 1_555 1_555
O5_8 Ni2_9 1_555 1_555
O6_8 Ni3_12 1_555 1_555
O7_8 Ni3_12 1_555 1_555
N3_8 N1_8 1_555 1_555
N4_8 Ni1_9 1_555 1_555
N5_8 Ni2_9 1_555 1_555
N6_15 N7_15 1_555 1_555
N7_15 C6_15 1_555 1_555
N8_8 Ni2_9 1_555 1_555
N9_8 Ni3_12 1_555 1_555
N10_12 C3_8 1_555 1_555
N11_9 Ni1_9 1_555 1_555
N12_9 Ni2_9 1_555 1_555
N13_12 Ni3_12 1_555 1_555
C2_14 N2_16 1_555 1_555
C3_8 N4_8 1_555 1_555
C4_8 N5_8 1_555 1_555
C5_15 N6_15 1_555 1_555
C6_15 N11_9 1_555 1_555
H2_14 C2_14 1_555 1_555
H3_8 C3_8 1_555 1_555
H4_8 C4_8 1_555 1_555
H5_15 C5_15 1_555 1_555
H6_15 C6_15 1_555 1_555
Ni3_12 N3_8 1_555 1_555
N3_8 C2_14 1_555 1_555
N4_8 N5_8 1_555 1_555
N8_8 N9_8 1_555 1_555
N10_12 C4_8 1_555 1_555
N11_9 C5_15 1_555 1_555
O6_8 H7_8 1_555 1_555
O6_8 H8_8 1_555 1_555
O2_8 H9_8 1_555 1_555
O2_8 H10_8 1_555 1_555
O3_8 H11_8 1_555 1_555
O3_8 H12_8 1_555 1_555
O4_8 H13_8 1_555 1_555
O4_8 H14_8 1_555 1_555
O7_8 H15_8 1_555 1_555
O7_8 H16_8 1_555 1_555
O5_8 H17_8 1_555 1_555
O5_8 H18_8 1_555 1_555
N2_17 C1_15 1_555 1_555
C1_15 N8_8 1_555 1_555
H1_15 C1_15 1_555 1_555
Ni4_15 N2_17 1_555 1_555
Ni6_16 N6_16 1_555 1_555
Ni7 N7_16 1_555 1_555
N6_16 N7_16 1_555 1_555
N7_16 C6_16 1_555 1_555
C2_15 N2_17 1_555 1_555
C5_16 N6_16 1_555 1_555
C6_16 N12_9 1_555 1_555
H2_15 C2_15 1_555 1_555
H5_16 C5_16 1_555 1_555
H6_16 C6_16 1_555 1_555
N9_8 C2_15 1_555 1_555
N12_9 C5_16 1_555 1_555
N2_18 C1_16 1_555 1_555
C1_16 N8_7 1_555 1_555
H1_16 C1_16 1_555 1_555
Ni4_16 N2_18 1_555 1_555
Ni6_17 N6_17 1_555 1_555
Ni6_12 N7_17 1_555 1_555
N6_17 N7_17 1_555 1_555
N7_17 C6_17 1_555 1_555
C2_16 N2_18 1_555 1_555
C5_17 N6_17 1_555 1_555
C6_17 N12_8 1_555 1_555
H2_16 C2_16 1_555 1_555
H5_17 C5_17 1_555 1_555
H6_17 C6_17 1_555 1_555
N9_7 C2_16 1_555 1_555
N12_8 C5_17 1_555 1_555
Ni1_10 O1_16 1_555 1_555
O1_16 Ni2_10 1_555 1_555
O2_9 Ni1_10 1_555 1_555
N1_9 Ni1_10 1_555 1_555
N2_19 C1_17 1_555 1_555
C1_17 N1_9 1_555 1_555
H1_17 C1_17 1_555 1_555
Ni2_10 O4_9 1_555 1_555
Ni3_13 O1_16 1_555 1_555
Ni6_12 N2_19 1_555 1_555
Ni7_8 N10_13 1_555 1_555
Ni5_7 N6_18 1_555 1_555
Ni5_4 N7_18 1_555 1_555
O3_9 Ni1_10 1_555 1_555
O5_9 Ni2_10 1_555 1_555
O6_9 Ni3_13 1_555 1_555
O7_9 Ni3_13 1_555 1_555
N3_9 N1_9 1_555 1_555
N4_9 Ni1_10 1_555 1_555
N5_9 Ni2_10 1_555 1_555
N6_18 N7_18 1_555 1_555
N7_18 C6_18 1_555 1_555
N8_9 Ni2_10 1_555 1_555
N9_9 Ni3_13 1_555 1_555
N10_13 C3_9 1_555 1_555
N11_10 Ni1_10 1_555 1_555
N12_10 Ni2_10 1_555 1_555
N13_13 Ni3_13 1_555 1_555
C2_17 N2_19 1_555 1_555
C3_9 N4_9 1_555 1_555
C4_9 N5_9 1_555 1_555
C5_18 N6_18 1_555 1_555
C6_18 N11_10 1_555 1_555
H2_17 C2_17 1_555 1_555
H3_9 C3_9 1_555 1_555
H4_9 C4_9 1_555 1_555
H5_18 C5_18 1_555 1_555
H6_18 C6_18 1_555 1_555
Ni3_13 N3_9 1_555 1_555
N3_9 C2_17 1_555 1_555
N4_9 N5_9 1_555 1_555
N8_9 N9_9 1_555 1_555
N10_13 C4_9 1_555 1_555
N11_10 C5_18 1_555 1_555
O6_9 H7_9 1_555 1_555
O6_9 H8_9 1_555 1_555
O2_9 H9_9 1_555 1_555
O2_9 H10_9 1_555 1_555
O3_9 H11_9 1_555 1_555
O3_9 H12_9 1_555 1_555
O4_9 H13_9 1_555 1_555
O4_9 H14_9 1_555 1_555
O7_9 H15_9 1_555 1_555
O7_9 H16_9 1_555 1_555
O5_9 H17_9 1_555 1_555
O5_9 H18_9 1_555 1_555
Ni1_11 O1_17 1_555 1_555
O1_17 Ni2_11 1_555 1_555
O2_10 Ni1_11 1_555 1_555
N1_10 Ni1_11 1_555 1_555
N2_20 C1_18 1_555 1_555
C1_18 N1_10 1_555 1_555
H1_18 C1_18 1_555 1_555
Ni2_11 O4_10 1_555 1_555
Ni3_14 O1_17 1_555 1_555
Ni6_15 N2_20 1_555 1_555
Ni6 N10_14 1_555 1_555
Ni5 N6_19 1_555 1_555
Ni4_7 N7_19 1_555 1_555
O3_10 Ni1_11 1_555 1_555
O5_10 Ni2_11 1_555 1_555
O6_10 Ni3_14 1_555 1_555
O7_10 Ni3_14 1_555 1_555
N3_10 N1_10 1_555 1_555
N4_10 Ni1_11 1_555 1_555
N5_10 Ni2_11 1_555 1_555
N6_19 N7_19 1_555 1_555
N7_19 C6_19 1_555 1_555
N8_10 Ni2_11 1_555 1_555
N9_10 Ni3_14 1_555 1_555
N10_14 C3_10 1_555 1_555
N11_11 Ni1_11 1_555 1_555
N12_11 Ni2_11 1_555 1_555
N13_14 Ni3_14 1_555 1_555
C2_18 N2_20 1_555 1_555
C3_10 N4_10 1_555 1_555
C4_10 N5_10 1_555 1_555
C5_19 N6_19 1_555 1_555
C6_19 N11_11 1_555 1_555
H2_18 C2_18 1_555 1_555
H3_10 C3_10 1_555 1_555
H4_10 C4_10 1_555 1_555
H5_19 C5_19 1_555 1_555
H6_19 C6_19 1_555 1_555
Ni3_14 N3_10 1_555 1_555
N3_10 C2_18 1_555 1_555
N4_10 N5_10 1_555 1_555
N8_10 N9_10 1_555 1_555
N10_14 C4_10 1_555 1_555
N11_11 C5_19 1_555 1_555
O6_10 H7_10 1_555 1_555
O6_10 H8_10 1_555 1_555
O2_10 H9_10 1_555 1_555
O2_10 H10_10 1_555 1_555
O3_10 H11_10 1_555 1_555
O3_10 H12_10 1_555 1_555
O4_10 H13_10 1_555 1_555
O4_10 H14_10 1_555 1_555
O7_10 H15_10 1_555 1_555
O7_10 H16_10 1_555 1_555
O5_10 H17_10 1_555 1_555
O5_10 H18_10 1_555 1_555
Ni1_12 O1_18 1_555 1_555
O1_18 Ni2_12 1_555 1_555
Ni2_12 O4_11 1_555 1_555
Ni7 N10_15 1_555 1_555
Ni4_15 N6_20 1_555 1_555
O3_11 Ni1_12 1_555 1_555
O5_11 Ni2_12 1_555 1_555
N4_11 Ni1_12 1_555 1_555
N5_11 Ni2_12 1_555 1_555
N8_11 Ni2_12 1_555 1_555
N10_15 C3_11 1_555 1_555
N11_12 Ni1_12 1_555 1_555
N12_12 Ni2_12 1_555 1_555
C3_11 N4_11 1_555 1_555
C4_11 N5_11 1_555 1_555
C5_20 N6_20 1_555 1_555
H3_11 C3_11 1_555 1_555
H4_11 C4_11 1_555 1_555
H5_20 C5_20 1_555 1_555
N4_11 N5_11 1_555 1_555
N10_15 C4_11 1_555 1_555
N11_12 C5_20 1_555 1_555
O3_11 H11_11 1_555 1_555
O3_11 H12_11 1_555 1_555
O4_11 H13_11 1_555 1_555
O4_11 H14_11 1_555 1_555
O5_11 H18_11 1_555 1_555
Ni1_13 O1_19 1_555 1_555
O2_11 Ni1_13 1_555 1_555
N1_11 Ni1_13 1_555 1_555
N2_21 C1_19 1_555 1_555
C1_19 N1_11 1_555 1_555
H1_19 C1_19 1_555 1_555
Ni3_15 O1_19 1_555 1_555
Ni6_17 N2_21 1_555 1_555
Ni7_5 N7_20 1_555 1_555
O6_11 Ni3_15 1_555 1_555
O7_11 Ni3_15 1_555 1_555
N3_11 N1_11 1_555 1_555
N7_20 C6_20 1_555 1_555
N9_11 Ni3_15 1_555 1_555
N11_13 Ni1_13 1_555 1_555
N13_15 Ni3_15 1_555 1_555
C2_19 N2_21 1_555 1_555
C6_20 N11_13 1_555 1_555
H2_19 C2_19 1_555 1_555
H6_20 C6_20 1_555 1_555
Ni3_15 N3_11 1_555 1_555
N3_11 C2_19 1_555 1_555
O6_11 H7_11 1_555 1_555
O6_11 H8_11 1_555 1_555
O2_11 H9_11 1_555 1_555
O2_11 H10_11 1_555 1_555
O7_11 H16_11 1_555 1_555
Ni3_16 O1_20 1_555 1_555
Ni7_10 N2_22 1_555 1_555
O7_12 Ni3_16 1_555 1_555
N13_16 Ni3_16 1_555 1_555
C2_20 N2_22 1_555 1_555
H2_20 C2_20 1_555 1_555
Ni3_16 N3_12 1_555 1_555
N3_12 C2_20 1_555 1_555
O7_12 H15_12 1_555 1_555
O7_12 H16_12 1_555 1_555
Ni1_14 O1_21 1_555 1_555
O2_12 Ni1_14 1_555 1_555
N1_12 Ni1_14 1_555 1_555
N2_23 C1_20 1_555 1_555
C1_20 N1_12 1_555 1_555
H1_20 C1_20 1_555 1_555
Ni7_11 N2_23 1_555 1_555
Ni6_10 N10_16 1_555 1_555
Ni4_9 N6_21 1_555 1_555
Ni7_4 N7_21 1_555 1_555
O3_12 Ni1_14 1_555 1_555
N4_12 Ni1_14 1_555 1_555
N6_21 N7_21 1_555 1_555
N7_21 C6_21 1_555 1_555
N10_16 C3_12 1_555 1_555
N11_14 Ni1_14 1_555 1_555
C3_12 N4_12 1_555 1_555
C5_21 N6_21 1_555 1_555
C6_21 N11_14 1_555 1_555
H3_12 C3_12 1_555 1_555
H5_21 C5_21 1_555 1_555
H6_21 C6_21 1_555 1_555
N11_14 C5_21 1_555 1_555
O2_12 H10_12 1_555 1_555
O3_12 H12_12 1_555 1_555
O1_22 Ni2_13 1_555 1_555
Ni2_13 O4_12 1_555 1_555
Ni3_17 O1_22 1_555 1_555
O6_12 Ni3_17 1_555 1_555
N8_12 Ni2_13 1_555 1_555
N9_12 Ni3_17 1_555 1_555
N12_13 Ni2_13 1_555 1_555
N13_17 Ni3_17 1_555 1_555
N8_12 N9_12 1_555 1_555
O6_12 H8_12 1_555 1_555
O4_12 H14_12 1_555 1_555
O1_23 Ni2_14 1_555 1_555
Ni6_11 N10_17 1_555 1_555
O5_12 Ni2_14 1_555 1_555
N5_12 Ni2_14 1_555 1_555
N12_14 Ni2_14 1_555 1_555
C4_12 N5_12 1_555 1_555
H4_12 C4_12 1_555 1_555
N10_17 C4_12 1_555 1_555
O5_12 H17_12 1_555 1_555
O5_12 H18_12 1_555 1_555
Ni6_18 N6_22 1_555 1_555
C5_22 N6_22 1_555 1_555
H5_22 C5_22 1_555 1_555
N13_16 C5_22 1_555 1_555
N2_24 C1_21 1_555 1_555
C1_21 N9_12 1_555 1_555
H1_21 C1_21 1_555 1_555
Ni7_9 N2_24 1_555 1_555
Ni7_14 N7_22 1_555 1_555
N7_22 C6_22 1_555 1_555
C2_21 N2_24 1_555 1_555
C6_22 N13_17 1_555 1_555
H2_21 C2_21 1_555 1_555
H6_22 C6_22 1_555 1_555
N8_12 C2_21 1_555 1_555
Ni4_17 N2_25 1_555 1_555
C2_22 N2_25 1_555 1_555
H2_22 C2_22 1_555 1_555
N8_11 C2_22 1_555 1_555
N2_26 C1_22 1_555 1_555
C1_22 N9_11 1_555 1_555
H1_22 C1_22 1_555 1_555
Ni4_18 N2_26 1_555 1_555
Ni6_7 N6_23 1_555 1_555
Ni6_13 N7_23 1_555 1_555
N6_23 N7_23 1_555 1_555
N7_23 C6_23 1_555 1_555
C5_23 N6_23 1_555 1_555
C6_23 N13_15 1_555 1_555
H5_23 C5_23 1_555 1_555
H6_23 C6_23 1_555 1_555
N13_15 C5_23 1_555 1_555
N2_27 C1_23 1_555 1_555
C1_23 N8_9 1_555 1_555
H1_23 C1_23 1_555 1_555
Ni6_16 N2_27 1_555 1_555
Ni6_14 N6_24 1_555 1_555
Ni6_9 N7_24 1_555 1_555
N6_24 N7_24 1_555 1_555
N7_24 C6_24 1_555 1_555
C2_23 N2_27 1_555 1_555
C5_24 N6_24 1_555 1_555
C6_24 N12_10 1_555 1_555
H2_23 C2_23 1_555 1_555
H5_24 C5_24 1_555 1_555
H6_24 C6_24 1_555 1_555
N9_9 C2_23 1_555 1_555
N12_10 C5_24 1_555 1_555
N2_28 C1_24 1_555 1_555
C1_24 N8_10 1_555 1_555
H1_24 C1_24 1_555 1_555
Ni7_12 N2_28 1_555 1_555
Ni6_19 N6_25 1_555 1_555
Ni7_2 N7_25 1_555 1_555
N6_25 N7_25 1_555 1_555
N7_25 C6_25 1_555 1_555
C2_24 N2_28 1_555 1_555
C5_25 N6_25 1_555 1_555
C6_25 N12_11 1_555 1_555
H2_24 C2_24 1_555 1_555
H5_25 C5_25 1_555 1_555
H6_25 C6_25 1_555 1_555
N9_10 C2_24 1_555 1_555
N12_11 C5_25 1_555 1_555
Ni1_15 O1_24 1_555 1_555
Ni7_13 N10_18 1_555 1_555
Ni4_14 N6_26 1_555 1_555
O3_13 Ni1_15 1_555 1_555
N4_13 Ni1_15 1_555 1_555
N10_18 C3_13 1_555 1_555
N11_15 Ni1_15 1_555 1_555
C3_13 N4_13 1_555 1_555
C5_26 N6_26 1_555 1_555
H3_13 C3_13 1_555 1_555
H5_26 C5_26 1_555 1_555
N11_15 C5_26 1_555 1_555
O3_13 H11_13 1_555 1_555
O3_13 H12_13 1_555 1_555
O1_25 Ni2_15 1_555 1_555
Ni2_15 O4_13 1_555 1_555
Ni7_14 N10_19 1_555 1_555
O5_13 Ni2_15 1_555 1_555
N5_13 Ni2_15 1_555 1_555
N8_13 Ni2_15 1_555 1_555
N12_15 Ni2_15 1_555 1_555
C4_13 N5_13 1_555 1_555
H4_13 C4_13 1_555 1_555
N10_19 C4_13 1_555 1_555
O4_13 H14_13 1_555 1_555
O5_13 H18_13 1_555 1_555
Ni1_16 O1_26 1_555 1_555
O2_13 Ni1_16 1_555 1_555
N1_13 Ni1_16 1_555 1_555
N2_29 C1_25 1_555 1_555
C1_25 N1_13 1_555 1_555
H1_25 C1_25 1_555 1_555
Ni3_18 O1_26 1_555 1_555
Ni7_7 N2_29 1_555 1_555
Ni4_11 N7_26 1_555 1_555
O7_13 Ni3_18 1_555 1_555
N3_13 N1_13 1_555 1_555
N7_26 C6_26 1_555 1_555
N11_16 Ni1_16 1_555 1_555
N13_18 Ni3_18 1_555 1_555
C2_25 N2_29 1_555 1_555
C6_26 N11_16 1_555 1_555
H2_25 C2_25 1_555 1_555
H6_26 C6_26 1_555 1_555
Ni3_18 N3_13 1_555 1_555
N3_13 C2_25 1_555 1_555
O2_13 H10_13 1_555 1_555
O7_13 H16_13 1_555 1_555
Ni3_19 O1_27 1_555 1_555
O6_13 Ni3_19 1_555 1_555
N9_13 Ni3_19 1_555 1_555
N13_19 Ni3_19 1_555 1_555
O6_13 H7_13 1_555 1_555
O6_13 H8_13 1_555 1_555
O1_28 Ni2_16 1_555 1_555
Ni2_16 O4_14 1_555 1_555
Ni3_20 O1_28 1_555 1_555
Ni4_19 N2_30 1_555 1_555
O6_14 Ni3_20 1_555 1_555
O7_14 Ni3_20 1_555 1_555
N8_14 Ni2_16 1_555 1_555
N9_14 Ni3_20 1_555 1_555
N12_16 Ni2_16 1_555 1_555
N13_20 Ni3_20 1_555 1_555
C2_26 N2_30 1_555 1_555
H2_26 C2_26 1_555 1_555
Ni3_20 N3_14 1_555 1_555
N3_14 C2_26 1_555 1_555
N8_14 N9_14 1_555 1_555
O6_14 H8_14 1_555 1_555
O4_14 H13_14 1_555 1_555
O4_14 H14_14 1_555 1_555
O7_14 H15_14 1_555 1_555
O7_14 H16_14 1_555 1_555
Ni1_17 O1_29 1_555 1_555
O1_29 Ni2_17 1_555 1_555
O2_14 Ni1_17 1_555 1_555
N1_14 Ni1_17 1_555 1_555
N2_31 C1_26 1_555 1_555
C1_26 N1_14 1_555 1_555
H1_26 C1_26 1_555 1_555
Ni4_20 N2_31 1_555 1_555
Ni6_14 N10_20 1_555 1_555
Ni6_5 N6_27 1_555 1_555
Ni4_15 N7_27 1_555 1_555
O3_14 Ni1_17 1_555 1_555
O5_14 Ni2_17 1_555 1_555
N4_14 Ni1_17 1_555 1_555
N5_14 Ni2_17 1_555 1_555
N6_27 N7_27 1_555 1_555
N7_27 C6_27 1_555 1_555
N10_20 C3_14 1_555 1_555
N11_17 Ni1_17 1_555 1_555
N12_17 Ni2_17 1_555 1_555
C3_14 N4_14 1_555 1_555
C4_14 N5_14 1_555 1_555
C5_27 N6_27 1_555 1_555
C6_27 N11_17 1_555 1_555
H3_14 C3_14 1_555 1_555
H4_14 C4_14 1_555 1_555
H5_27 C5_27 1_555 1_555
H6_27 C6_27 1_555 1_555
N4_14 N5_14 1_555 1_555
N10_20 C4_14 1_555 1_555
N11_17 C5_27 1_555 1_555
O2_14 H9_14 1_555 1_555
O2_14 H10_14 1_555 1_555
O3_14 H12_14 1_555 1_555
O5_14 H17_14 1_555 1_555
O5_14 H18_14 1_555 1_555
Ni1_18 O1_30 1_555 1_555
O1_30 Ni2_18 1_555 1_555
O2_15 Ni1_18 1_555 1_555
N1_15 Ni1_18 1_555 1_555
N2_32 C1_27 1_555 1_555
C1_27 N1_15 1_555 1_555
H1_27 C1_27 1_555 1_555
Ni2_18 O4_15 1_555 1_555
Ni3_21 O1_30 1_555 1_555
Ni6_9 N2_32 1_555 1_555
Ni7_6 N10_21 1_555 1_555
Ni4_6 N6_28 1_555 1_555
Ni5_6 N7_28 1_555 1_555
O3_15 Ni1_18 1_555 1_555
O5_15 Ni2_18 1_555 1_555
O6_15 Ni3_21 1_555 1_555
O7_15 Ni3_21 1_555 1_555
N3_15 N1_15 1_555 1_555
N4_15 Ni1_18 1_555 1_555
N5_15 Ni2_18 1_555 1_555
N6_28 N7_28 1_555 1_555
N7_28 C6_28 1_555 1_555
N8_15 Ni2_18 1_555 1_555
N9_15 Ni3_21 1_555 1_555
N10_21 C3_15 1_555 1_555
N11_18 Ni1_18 1_555 1_555
N12_18 Ni2_18 1_555 1_555
N13_21 Ni3_21 1_555 1_555
C2_27 N2_32 1_555 1_555
C3_15 N4_15 1_555 1_555
C4_15 N5_15 1_555 1_555
C5_28 N6_28 1_555 1_555
C6_28 N11_18 1_555 1_555
H2_27 C2_27 1_555 1_555
H3_15 C3_15 1_555 1_555
H4_15 C4_15 1_555 1_555
H5_28 C5_28 1_555 1_555
H6_28 C6_28 1_555 1_555
Ni3_21 N3_15 1_555 1_555
N3_15 C2_27 1_555 1_555
N4_15 N5_15 1_555 1_555
N8_15 N9_15 1_555 1_555
N10_21 C4_15 1_555 1_555
N11_18 C5_28 1_555 1_555
O6_15 H7_15 1_555 1_555
O6_15 H8_15 1_555 1_555
O2_15 H9_15 1_555 1_555
O2_15 H10_15 1_555 1_555
O3_15 H11_15 1_555 1_555
O3_15 H12_15 1_555 1_555
O4_15 H13_15 1_555 1_555
O4_15 H14_15 1_555 1_555
O7_15 H15_15 1_555 1_555
O7_15 H16_15 1_555 1_555
O5_15 H17_15 1_555 1_555
O5_15 H18_15 1_555 1_555
Ni1_19 O1_31 1_555 1_555
O1_31 Ni2_19 1_555 1_555
O2_16 Ni1_19 1_555 1_555
N1_16 Ni1_19 1_555 1_555
N2_33 C1_28 1_555 1_555
C1_28 N1_16 1_555 1_555
H1_28 C1_28 1_555 1_555
Ni2_19 O4_16 1_555 1_555
Ni3_22 O1_31 1_555 1_555
Ni6_18 N2_33 1_555 1_555
Ni6_2 N10_22 1_555 1_555
Ni5_3 N6_29 1_555 1_555
Ni4_4 N7_29 1_555 1_555
O3_16 Ni1_19 1_555 1_555
O5_16 Ni2_19 1_555 1_555
O6_16 Ni3_22 1_555 1_555
O7_16 Ni3_22 1_555 1_555
N3_16 N1_16 1_555 1_555
N4_16 Ni1_19 1_555 1_555
N5_16 Ni2_19 1_555 1_555
N6_29 N7_29 1_555 1_555
N7_29 C6_29 1_555 1_555
N8_16 Ni2_19 1_555 1_555
N9_16 Ni3_22 1_555 1_555
N10_22 C3_16 1_555 1_555
N11_19 Ni1_19 1_555 1_555
N12_19 Ni2_19 1_555 1_555
N13_22 Ni3_22 1_555 1_555
C2_28 N2_33 1_555 1_555
C3_16 N4_16 1_555 1_555
C4_16 N5_16 1_555 1_555
C5_29 N6_29 1_555 1_555
C6_29 N11_19 1_555 1_555
H2_28 C2_28 1_555 1_555
H3_16 C3_16 1_555 1_555
H4_16 C4_16 1_555 1_555
H5_29 C5_29 1_555 1_555
H6_29 C6_29 1_555 1_555
Ni3_22 N3_16 1_555 1_555
N3_16 C2_28 1_555 1_555
N4_16 N5_16 1_555 1_555
N8_16 N9_16 1_555 1_555
N10_22 C4_16 1_555 1_555
N11_19 C5_29 1_555 1_555
O6_16 H7_16 1_555 1_555
O6_16 H8_16 1_555 1_555
O2_16 H9_16 1_555 1_555
O2_16 H10_16 1_555 1_555
O3_16 H11_16 1_555 1_555
O3_16 H12_16 1_555 1_555
O4_16 H13_16 1_555 1_555
O4_16 H14_16 1_555 1_555
O7_16 H15_16 1_555 1_555
O7_16 H16_16 1_555 1_555
O5_16 H17_16 1_555 1_555
O5_16 H18_16 1_555 1_555
Ni7_2 N10_23 1_555 1_555
Ni7_12 N6_30 1_555 1_555
N10_23 C3_17 1_555 1_555
C3_17 N8_14 1_555 1_555
C4_17 N9_14 1_555 1_555
C5_30 N6_30 1_555 1_555
H3_17 C3_17 1_555 1_555
H4_17 C4_17 1_555 1_555
H5_30 C5_30 1_555 1_555
N10_23 C4_17 1_555 1_555
N12_16 C5_30 1_555 1_555
Ni7_8 N7_30 1_555 1_555
N7_30 C6_30 1_555 1_555
C6_30 N12_17 1_555 1_555
H6_30 C6_30 1_555 1_555
Ni6_7 N10_24 1_555 1_555
Ni6_17 N6_31 1_555 1_555
Ni7_9 N7_31 1_555 1_555
N6_31 N7_31 1_555 1_555
N7_31 C6_31 1_555 1_555
N10_24 C3_18 1_555 1_555
C3_18 N8_13 1_555 1_555
C5_31 N6_31 1_555 1_555
C6_31 N12_15 1_555 1_555
H3_18 C3_18 1_555 1_555
H5_31 C5_31 1_555 1_555
H6_31 C6_31 1_555 1_555
N12_15 C5_31 1_555 1_555
Ni6_8 N10_25 1_555 1_555
C4_18 N9_13 1_555 1_555
H4_18 C4_18 1_555 1_555
N10_25 C4_18 1_555 1_555
N2_34 C1_29 1_555 1_555
C1_29 N8_16 1_555 1_555
H1_29 C1_29 1_555 1_555
Ni6_13 N2_34 1_555 1_555
Ni4_16 N6_32 1_555 1_555
Ni7_3 N7_32 1_555 1_555
N6_32 N7_32 1_555 1_555
N7_32 C6_32 1_555 1_555
C2_29 N2_34 1_555 1_555
C5_32 N6_32 1_555 1_555
C6_32 N12_19 1_555 1_555
H2_29 C2_29 1_555 1_555
H5_32 C5_32 1_555 1_555
H6_32 C6_32 1_555 1_555
N9_16 C2_29 1_555 1_555
N12_19 C5_32 1_555 1_555
N2_35 C1_30 1_555 1_555
C1_30 N8_15 1_555 1_555
H1_30 C1_30 1_555 1_555
Ni6_19 N2_35 1_555 1_555
Ni4_9 N6_33 1_555 1_555
Ni6_4 N7_33 1_555 1_555
N6_33 N7_33 1_555 1_555
N7_33 C6_33 1_555 1_555
C2_30 N2_35 1_555 1_555
C5_33 N6_33 1_555 1_555
C6_33 N12_18 1_555 1_555
H2_30 C2_30 1_555 1_555
H5_33 C5_33 1_555 1_555
H6_33 C6_33 1_555 1_555
N9_15 C2_30 1_555 1_555
N12_18 C5_33 1_555 1_555
Ni4_17 N6_34 1_555 1_555
C5_34 N6_34 1_555 1_555
H5_34 C5_34 1_555 1_555
N13_5 C5_34 1_555 1_555
Ni6_15 N7_34 1_555 1_555
N7_34 C6_34 1_555 1_555
C6_34 N13_6 1_555 1_555
H6_34 C6_34 1_555 1_555
Ni4_19 N6_35 1_555 1_555
C5_35 N6_35 1_555 1_555
H5_35 C5_35 1_555 1_555
N13 C5_35 1_555 1_555
Ni6_18 N7_35 1_555 1_555
N7_35 C6_35 1_555 1_555
C6_35 N13_2 1_555 1_555
H6_35 C6_35 1_555 1_555
Ni4_12 N6_36 1_555 1_555
C5_36 N6_36 1_555 1_555
H5_36 C5_36 1_555 1_555
N13_3 C5_36 1_555 1_555
Ni4_14 N7_36 1_555 1_555
N7_36 C6_36 1_555 1_555
C6_36 N13_4 1_555 1_555
H6_36 C6_36 1_555 1_555
Ni6_19 N6_37 1_555 1_555
Ni6_2 N7_37 1_555 1_555
N6_37 N7_37 1_555 1_555
N7_37 C6_37 1_555 1_555
C5_37 N6_37 1_555 1_555
C6_37 N13_11 1_555 1_555
H5_37 C5_37 1_555 1_555
H6_37 C6_37 1_555 1_555
N13_11 C5_37 1_555 1_555
Ni7_13 N6_38 1_555 1_555
Ni4_20 N7_38 1_555 1_555
N6_38 N7_38 1_555 1_555
N7_38 C6_38 1_555 1_555
C5_38 N6_38 1_555 1_555
C6_38 N13_12 1_555 1_555
H5_38 C5_38 1_555 1_555
H6_38 C6_38 1_555 1_555
N13_12 C5_38 1_555 1_555
Ni4_2 N6_39 1_555 1_555
Ni4_3 N7_39 1_555 1_555
N6_39 N7_39 1_555 1_555
N7_39 C6_39 1_555 1_555
C5_39 N6_39 1_555 1_555
C6_39 N12_5 1_555 1_555
H5_39 C5_39 1_555 1_555
H6_39 C6_39 1_555 1_555
N12_5 C5_39 1_555 1_555
Ni4_4 N6_40 1_555 1_555
C5_40 N6_40 1_555 1_555
H5_40 C5_40 1_555 1_555
N12_6 C5_40 1_555 1_555
Ni5_7 N7_40 1_555 1_555
N7_40 C6_40 1_555 1_555
C6_40 N12_7 1_555 1_555
H6_40 C6_40 1_555 1_555
Ni4_3 N6_41 1_555 1_555
Ni4 N7_41 1_555 1_555
N6_41 N7_41 1_555 1_555
N7_41 C6_41 1_555 1_555
C5_41 N6_41 1_555 1_555
C6_41 N12_12 1_555 1_555
H5_41 C5_41 1_555 1_555
H6_41 C6_41 1_555 1_555
N12_12 C5_41 1_555 1_555
Ni4_8 N6_42 1_555 1_555
C5_42 N6_42 1_555 1_555
H5_42 C5_42 1_555 1_555
N12_13 C5_42 1_555 1_555
Ni4_6 N7_42 1_555 1_555
N7_42 C6_42 1_555 1_555
C6_42 N12_14 1_555 1_555
H6_42 C6_42 1_555 1_555
Ni4_16 N6_43 1_555 1_555
Ni6_3 N7_43 1_555 1_555
N6_43 N7_43 1_555 1_555
N7_43 C6_43 1_555 1_555
C5_43 N6_43 1_555 1_555
C6_43 N13_13 1_555 1_555
H5_43 C5_43 1_555 1_555
H6_43 C6_43 1_555 1_555
N13_13 C5_43 1_555 1_555
Ni4_10 N6_44 1_555 1_555
Ni4_13 N7_44 1_555 1_555
N6_44 N7_44 1_555 1_555
N7_44 C6_44 1_555 1_555
C5_44 N6_44 1_555 1_555
C6_44 N13_14 1_555 1_555
H5_44 C5_44 1_555 1_555
H6_44 C6_44 1_555 1_555
N13_14 C5_44 1_555 1_555
Ni4 N6_45 1_555 1_555
Ni4_2 N7_45 1_555 1_555
N6_45 N7_45 1_555 1_555
N7_45 C6_45 1_555 1_555
C5_45 N6_45 1_555 1_555
C6_45 N13_20 1_555 1_555
H5_45 C5_45 1_555 1_555
H6_45 C6_45 1_555 1_555
N13_20 C5_45 1_555 1_555
Ni4_7 N6_46 1_555 1_555
C5_46 N6_46 1_555 1_555
H5_46 C5_46 1_555 1_555
N13_18 C5_46 1_555 1_555
Ni4_5 N7_46 1_555 1_555
N7_46 C6_46 1_555 1_555
C6_46 N13_19 1_555 1_555
H6_46 C6_46 1_555 1_555
Ni6_16 N6_47 1_555 1_555
Ni6 N7_47 1_555 1_555
N6_47 N7_47 1_555 1_555
N7_47 C6_47 1_555 1_555
C5_47 N6_47 1_555 1_555
C6_47 N13_21 1_555 1_555
H5_47 C5_47 1_555 1_555
H6_47 C6_47 1_555 1_555
N13_21 C5_47 1_555 1_555
Ni7_10 N6_48 1_555 1_555
Ni4_18 N7_48 1_555 1_555
N6_48 N7_48 1_555 1_555
N7_48 C6_48 1_555 1_555
C5_48 N6_48 1_555 1_555
C6_48 N13_22 1_555 1_555
H5_48 C5_48 1_555 1_555
H6_48 C6_48 1_555 1_555
N13_22 C5_48 1_555 1_555
O1_32 Ni4_15 1_555 1_555
Ni4_15 O4_17 1_555 1_555
Ni6_5 O1_32 1_555 1_555
O5_17 Ni4_15 1_555 1_555
O6_17 Ni6_5 1_555 1_555
O6_17 H7_17 1_555 1_555
O6_17 H8_17 1_555 1_555
O4_17 H14_17 1_555 1_555
O5_17 H17_17 1_555 1_555
O5_17 H18_17 1_555 1_555
Ni7_5 O1_33 1_555 1_555
O2_17 Ni7_5 1_555 1_555
Ni6_6 O1_33 1_555 1_555
O3_17 Ni7_5 1_555 1_555
O7_17 Ni6_6 1_555 1_555
O2_17 H10_17 1_555 1_555
O3_17 H11_17 1_555 1_555
O3_17 H12_17 1_555 1_555
O7_17 H15_17 1_555 1_555
O7_17 H16_17 1_555 1_555
O1_34 Ni7_12 1_555 1_555
Ni7_12 O4_18 1_555 1_555
Ni6_10 O1_34 1_555 1_555
O5_18 Ni7_12 1_555 1_555
O6_18 Ni6_10 1_555 1_555
O6_18 H7_18 1_555 1_555
O6_18 H8_18 1_555 1_555
O4_18 H14_18 1_555 1_555
O5_18 H17_18 1_555 1_555
O5_18 H18_18 1_555 1_555
Ni7_8 O1_35 1_555 1_555
O2_18 Ni7_8 1_555 1_555
Ni6_11 O1_35 1_555 1_555
O3_18 Ni7_8 1_555 1_555
O7_18 Ni6_11 1_555 1_555
O2_18 H10_18 1_555 1_555
O3_18 H11_18 1_555 1_555
O3_18 H12_18 1_555 1_555
O7_18 H15_18 1_555 1_555
O7_18 H16_18 1_555 1_555
O1_36 Ni6_13 1_555 1_555
Ni6_13 O4_19 1_555 1_555
Ni6_7 O1_36 1_555 1_555
O5_19 Ni6_13 1_555 1_555
O6_19 Ni6_7 1_555 1_555
O6_19 H7_19 1_555 1_555
O6_19 H8_19 1_555 1_555
O4_19 H14_19 1_555 1_555
O5_19 H17_19 1_555 1_555
O5_19 H18_19 1_555 1_555
Ni7_6 O1_37 1_555 1_555
O2_19 Ni7_6 1_555 1_555
Ni6_8 O1_37 1_555 1_555
O3_19 Ni7_6 1_555 1_555
O7_19 Ni6_8 1_555 1_555
O2_19 H10_19 1_555 1_555
O3_19 H11_19 1_555 1_555
O3_19 H12_19 1_555 1_555
O7_19 H15_19 1_555 1_555
O7_19 H16_19 1_555 1_555
Ni4 O1_38 1_555 1_555
O1_38 Ni4_2 1_555 1_555
O2_20 Ni4 1_555 1_555
Ni4_2 O4_20 1_555 1_555
Ni4_3 O1_38 1_555 1_555
O3_20 Ni4 1_555 1_555
O5_20 Ni4_2 1_555 1_555
O6_20 Ni4_3 1_555 1_555
O7_20 Ni4_3 1_555 1_555
O6_20 H7_20 1_555 1_555
O6_20 H8_20 1_555 1_555
O2_20 H9_20 1_555 1_555
O2_20 H10_20 1_555 1_555
O3_20 H11_20 1_555 1_555
O3_20 H12_20 1_555 1_555
O4_20 H13_20 1_555 1_555
O4_20 H14_20 1_555 1_555
O7_20 H15_20 1_555 1_555
O7_20 H16_20 1_555 1_555
O5_20 H17_20 1_555 1_555
O5_20 H18_20 1_555 1_555
Ni5_5 O1_39 1_555 1_555
O2_21 Ni5_5 1_555 1_555
Ni4_8 O1_39 1_555 1_555
O6_21 Ni4_8 1_555 1_555
O7_21 Ni4_8 1_555 1_555
O6_21 H7_21 1_555 1_555
O6_21 H8_21 1_555 1_555
O2_21 H9_21 1_555 1_555
O2_21 H10_21 1_555 1_555
O7_21 H16_21 1_555 1_555
Ni5_6 O1_40 1_555 1_555
O1_40 Ni4_6 1_555 1_555
Ni4_6 O4_21 1_555 1_555
O3_21 Ni5_6 1_555 1_555
O5_21 Ni4_6 1_555 1_555
O3_21 H11_21 1_555 1_555
O3_21 H12_21 1_555 1_555
O4_21 H13_21 1_555 1_555
O4_21 H14_21 1_555 1_555
O5_21 H18_21 1_555 1_555
O1_41 Ni4_19 1_555 1_555
O5_22 Ni4_19 1_555 1_555
O5_22 H17_22 1_555 1_555
O5_22 H18_22 1_555 1_555
Ni6_18 O1_42 1_555 1_555
O2_22 Ni6_18 1_555 1_555
O3_22 Ni6_18 1_555 1_555
O2_22 H10_22 1_555 1_555
O3_22 H12_22 1_555 1_555
O1_43 Ni4_20 1_555 1_555
Ni4_20 O4_22 1_555 1_555
Ni7_13 O1_43 1_555 1_555
O6_22 Ni7_13 1_555 1_555
O6_22 H8_22 1_555 1_555
O4_22 H14_22 1_555 1_555
Ni7_14 O1_44 1_555 1_555
O7_22 Ni7_14 1_555 1_555
O7_22 H15_22 1_555 1_555
O7_22 H16_22 1_555 1_555
Ni7 O1_45 1_555 1_555
O1_45 Ni6 1_555 1_555
O2_23 Ni7 1_555 1_555
Ni6 O4_23 1_555 1_555
Ni6_16 O1_45 1_555 1_555
O3_23 Ni7 1_555 1_555
O5_23 Ni6 1_555 1_555
O6_23 Ni6_16 1_555 1_555
O7_23 Ni6_16 1_555 1_555
O6_23 H7_23 1_555 1_555
O6_23 H8_23 1_555 1_555
O2_23 H9_23 1_555 1_555
O2_23 H10_23 1_555 1_555
O3_23 H11_23 1_555 1_555
O3_23 H12_23 1_555 1_555
O4_23 H13_23 1_555 1_555
O4_23 H14_23 1_555 1_555
O7_23 H15_23 1_555 1_555
O7_23 H16_23 1_555 1_555
O5_23 H17_23 1_555 1_555
O5_23 H18_23 1_555 1_555
Ni4_9 O1_46 1_555 1_555
O1_46 Ni6_4 1_555 1_555
O2_24 Ni4_9 1_555 1_555
Ni6_4 O4_24 1_555 1_555
Ni7_4 O1_46 1_555 1_555
O3_24 Ni4_9 1_555 1_555
O5_24 Ni6_4 1_555 1_555
O6_24 Ni7_4 1_555 1_555
O7_24 Ni7_4 1_555 1_555
O6_24 H7_24 1_555 1_555
O6_24 H8_24 1_555 1_555
O2_24 H9_24 1_555 1_555
O2_24 H10_24 1_555 1_555
O3_24 H11_24 1_555 1_555
O3_24 H12_24 1_555 1_555
O4_24 H13_24 1_555 1_555
O4_24 H14_24 1_555 1_555
O7_24 H15_24 1_555 1_555
O7_24 H16_24 1_555 1_555
O5_24 H17_24 1_555 1_555
O5_24 H18_24 1_555 1_555
Ni7_2 O1_47 1_555 1_555
O1_47 Ni6_2 1_555 1_555
O2_25 Ni7_2 1_555 1_555
Ni6_2 O4_25 1_555 1_555
Ni6_19 O1_47 1_555 1_555
O3_25 Ni7_2 1_555 1_555
O5_25 Ni6_2 1_555 1_555
O6_25 Ni6_19 1_555 1_555
O7_25 Ni6_19 1_555 1_555
O6_25 H7_25 1_555 1_555
O6_25 H8_25 1_555 1_555
O2_25 H9_25 1_555 1_555
O2_25 H10_25 1_555 1_555
O3_25 H11_25 1_555 1_555
O3_25 H12_25 1_555 1_555
O4_25 H13_25 1_555 1_555
O4_25 H14_25 1_555 1_555
O7_25 H15_25 1_555 1_555
O7_25 H16_25 1_555 1_555
O5_25 H17_25 1_555 1_555
O5_25 H18_25 1_555 1_555
Ni6_17 O1_48 1_555 1_555
O1_48 Ni6_12 1_555 1_555
O2_26 Ni6_17 1_555 1_555
Ni6_12 O4_26 1_555 1_555
Ni7_9 O1_48 1_555 1_555
O3_26 Ni6_17 1_555 1_555
O5_26 Ni6_12 1_555 1_555
O6_26 Ni7_9 1_555 1_555
O7_26 Ni7_9 1_555 1_555
O6_26 H7_26 1_555 1_555
O6_26 H8_26 1_555 1_555
O2_26 H9_26 1_555 1_555
O2_26 H10_26 1_555 1_555
O3_26 H11_26 1_555 1_555
O3_26 H12_26 1_555 1_555
O4_26 H13_26 1_555 1_555
O4_26 H14_26 1_555 1_555
O7_26 H15_26 1_555 1_555
O7_26 H16_26 1_555 1_555
O5_26 H17_26 1_555 1_555
O5_26 H18_26 1_555 1_555
Ni5 O1_49 1_555 1_555
O2_27 Ni5 1_555 1_555
Ni4_7 O1_49 1_555 1_555
O6_27 Ni4_7 1_555 1_555
O7_27 Ni4_7 1_555 1_555
O6_27 H7_27 1_555 1_555
O6_27 H8_27 1_555 1_555
O2_27 H9_27 1_555 1_555
O2_27 H10_27 1_555 1_555
O7_27 H16_27 1_555 1_555
Ni5_2 O1_50 1_555 1_555
O1_50 Ni4_5 1_555 1_555
Ni4_5 O4_27 1_555 1_555
O3_27 Ni5_2 1_555 1_555
O5_27 Ni4_5 1_555 1_555
O3_27 H11_27 1_555 1_555
O3_27 H12_27 1_555 1_555
O4_27 H13_27 1_555 1_555
O4_27 H14_27 1_555 1_555
O5_27 H18_27 1_555 1_555
O1_51 Ni4_12 1_555 1_555
O5_28 Ni4_12 1_555 1_555
O5_28 H17_28 1_555 1_555
O5_28 H18_28 1_555 1_555
O1_52 Ni4_13 1_555 1_555
Ni4_13 O4_28 1_555 1_555
Ni4_10 O1_52 1_555 1_555
O6_28 Ni4_10 1_555 1_555
O6_28 H8_28 1_555 1_555
O4_28 H14_28 1_555 1_555
Ni4_14 O1_53 1_555 1_555
O2_28 Ni4_14 1_555 1_555
O3_28 Ni4_14 1_555 1_555
O2_28 H10_28 1_555 1_555
O3_28 H12_28 1_555 1_555
Ni4_11 O1_54 1_555 1_555
O7_28 Ni4_11 1_555 1_555
O7_28 H15_28 1_555 1_555
O7_28 H16_28 1_555 1_555
Ni4_17 O1_55 1_555 1_555
O6_29 Ni4_17 1_555 1_555
O6_29 H7_29 1_555 1_555
O6_29 H8_29 1_555 1_555
Ni7_10 O1_56 1_555 1_555
O2_29 Ni7_10 1_555 1_555
Ni4_18 O1_56 1_555 1_555
O7_29 Ni4_18 1_555 1_555
O2_29 H10_29 1_555 1_555
O7_29 H16_29 1_555 1_555
O1_57 Ni6_15 1_555 1_555
Ni6_15 O4_29 1_555 1_555
O5_29 Ni6_15 1_555 1_555
O4_29 H14_29 1_555 1_555
O5_29 H18_29 1_555 1_555
Ni7_11 O1_58 1_555 1_555
O3_29 Ni7_11 1_555 1_555
O3_29 H11_29 1_555 1_555
O3_29 H12_29 1_555 1_555
Ni4_4 O1_59 1_555 1_555
O1_59 Ni5_3 1_555 1_555
O2_30 Ni4_4 1_555 1_555
O3_30 Ni4_4 1_555 1_555
O5_30 Ni5_3 1_555 1_555
O2_30 H9_30 1_555 1_555
O2_30 H10_30 1_555 1_555
O3_30 H12_30 1_555 1_555
O5_30 H17_30 1_555 1_555
O5_30 H18_30 1_555 1_555
O1_60 Ni5_4 1_555 1_555
Ni5_4 O4_30 1_555 1_555
Ni5_7 O1_60 1_555 1_555
O6_30 Ni5_7 1_555 1_555
O7_30 Ni5_7 1_555 1_555
O6_30 H8_30 1_555 1_555
O4_30 H13_30 1_555 1_555
O4_30 H14_30 1_555 1_555
O7_30 H15_30 1_555 1_555
O7_30 H16_30 1_555 1_555
Ni7_3 O1_61 1_555 1_555
O1_61 Ni6_3 1_555 1_555
O2_31 Ni7_3 1_555 1_555
Ni6_3 O4_31 1_555 1_555
Ni4_16 O1_61 1_555 1_555
O3_31 Ni7_3 1_555 1_555
O5_31 Ni6_3 1_555 1_555
O6_31 Ni4_16 1_555 1_555
O7_31 Ni4_16 1_555 1_555
O6_31 H7_31 1_555 1_555
O6_31 H8_31 1_555 1_555
O2_31 H9_31 1_555 1_555
O2_31 H10_31 1_555 1_555
O3_31 H11_31 1_555 1_555
O3_31 H12_31 1_555 1_555
O4_31 H13_31 1_555 1_555
O4_31 H14_31 1_555 1_555
O7_31 H15_31 1_555 1_555
O7_31 H16_31 1_555 1_555
O5_31 H17_31 1_555 1_555
O5_31 H18_31 1_555 1_555
Ni6_14 O1_62 1_555 1_555
O1_62 Ni6_9 1_555 1_555
O2_32 Ni6_14 1_555 1_555
Ni6_9 O4_32 1_555 1_555
Ni7_7 O1_62 1_555 1_555
O3_32 Ni6_14 1_555 1_555
O5_32 Ni6_9 1_555 1_555
O6_32 Ni7_7 1_555 1_555
O7_32 Ni7_7 1_555 1_555
O6_32 H7_32 1_555 1_555
O6_32 H8_32 1_555 1_555
O2_32 H9_32 1_555 1_555
O2_32 H10_32 1_555 1_555
O3_32 H11_32 1_555 1_555
O3_32 H12_32 1_555 1_555
O4_32 H13_32 1_555 1_555
O4_32 H14_32 1_555 1_555
O7_32 H15_32 1_555 1_555
O7_32 H16_32 1_555 1_555
O5_32 H17_32 1_555 1_555
O5_32 H18_32 1_555 1_555

#END
