
###############################################################################
#
# This file contains modified crystal structure data generated from the
# MOF subset of the Cambridge Structural Database (CSD) v543 
# hosted by the Cambridge Crystallographic Data Centre (CCDC).
#
# This work is licensed under the Creative Commons
# Attribution-NonCommercial-ShareAlike 4.0 International License.
# To view a copy of this license, visit
# http://creativecommons.org/licenses/by-nc-sa/4.0/
# or send a letter to
# Creative Commons, PO Box 1866, Mountain View, CA 94042, USA.
#
# CIF created using the CSD Python API on 29 September 2022
# The structure has been converted into the P1 space group
# The structure has a 3D framework
# The original CSD entry VIRVEY is in the orthorhombic crystal system
# The framework has been calculated to contain at least 10.0% void space
# The void calculation uses a probe of radius 1.32A, grid spacing 0.4
#
###############################################################################

data_VIRVEY
_chemical_formula_moiety         '(C92 H108 Cl8 N20 O38 Pt4 Zn6)n'
_symmetry_cell_setting           triclinic
_symmetry_space_group_name_H-M   'P 1'
_symmetry_Int_Tables_number      1
_space_group_name_Hall           'P 1'
loop_
_symmetry_equiv_pos_site_id
_symmetry_equiv_pos_as_xyz
1 x,y,z
_cell_length_a                   23.340(4)
_cell_length_b                   12.766(2)
_cell_length_c                   14.903(3)
_cell_angle_alpha                90
_cell_angle_beta                 90
_cell_angle_gamma                90
_cell_volume                     4440.47
loop_
_atom_site_label
_atom_site_type_symbol
_atom_site_fract_x
_atom_site_fract_y
_atom_site_fract_z
Zn2 Zn 0.01532(2) 0.25254(6) 0.39420(11)
O13 O 0.06181(19) 0.1609(4) 0.4746(3)
O15 O 0.0179(2) 0.3878(4) 0.5024(4)
O17 O 0.0747(2) 0.3229(4) 0.3171(3)
O3 O 0.01610(18) 0.9072(4) 0.0422(4)
Zn3 Zn 0.09863(3) 0.84944(6) 0.01172(11)
Zn1 Zn 0.90137(3) 0.15056(6) 0.51172(11)
O1 O 0.90207(18) 0.1063(4) 0.3815(3)
O2 O 0.98378(18) 0.1491(4) 0.3081(3)
O7 O 0.4896(2) 0.1087(5) 0.2848(4)
O8 O 0.5747(2) 0.1771(4) 0.3171(3)
O9 O 0.8179(2) 0.2073(5) 0.4836(4)
O10 O 0.8729(2) 0.0026(5) 0.5515(4)
O11 O 0.8907(2) 0.1945(4) 0.6457(4)
N3 N 0.7227(3) 0.1840(6) 0.4714(5)
N5 N 0.8738(4) 0.1220(7) 0.7815(5)
C1 C 0.8546(2) 0.0369(6) 0.2240(5)
C2 C 0.9130(2) 0.0511(5) 0.2322(4)
C3 C 0.9490(2) 0.0096(5) 0.1669(4)
C6 C 0.9350(3) 0.1060(6) 0.3148(4)
C11 C 0.5711(3) 0.0458(5) 0.2038(4)
C12 C 0.6294(3) 0.0387(6) 0.2036(4)
C14 C 0.5420(3) 0.1161(6) 0.2727(5)
C15 C 0.7733(3) 0.1717(6) 0.5110(6)
C16 C 0.7184(4) 0.2418(8) 0.3880(7)
C17 C 0.6702(4) 0.1316(10) 0.5042(10)
C21 C 0.8980(4) 0.1296(7) 0.7048(5)
C22 C 0.8880(5) 0.0446(9) 0.8493(7)
C23 C 0.8255(6) 0.1893(14) 0.8031(10)
H1 H 0.8306 0.0679 0.2664
H2 H 0.9882 0.0216 0.1688
H6 H 0.6503 0.0783 0.2439
H7 H 0.7743 0.1324 0.5639
H8 H 0.7504 0.2883 0.3825
H9 H 0.6839 0.2822 0.3878
H10 H 0.7183 0.1941 0.3383
H11 H 0.6781 0.0977 0.5607
H12 H 0.6401 0.1815 0.5124
H13 H 0.6579 0.0802 0.4613
H21 H 0.9252 0.0776 0.6931
H22 H 0.8672 0.0609 0.9033
H23 H 0.9284 0.0481 0.8605
H25 H 0.8077 0.1643 0.8574
H26 H 0.8392 0.2596 0.8126
H27 H 0.7985 0.1885 0.7542
Zn7 Zn 0.51532(2) 0.24746(6) 0.39420(11)
O12 O 0.98390(18) 0.0928(4) 0.5422(4)
O14 O 0.94230(18) 0.2923(4) 0.4701(3)
O16 O 0.9896(2) 0.3913(5) 0.2848(4)
Pt1 Pt 0.744111(7) 0.973340(17) 0.14927(10)
Cl1 Cl 0.73887(7) 0.9422(2) 0.30162(16)
O6 O 0.4821(2) 0.8878(4) 0.0024(4)
N1 N 0.83128(17) 0.9807(4) 0.1571(5)
N2 N 0.65775(16) 0.9757(4) 0.1463(6)
N4 N 0.8252(6) 0.8517(9) 0.5572(8)
C4 C 0.9248(2) 0.9499(5) 0.0987(4)
C5 C 0.8656(2) 0.9374(6) 0.0943(4)
C7 C 0.9632(2) 0.8946(5) 0.0320(4)
C8 C 0.6260(2) 0.9195(6) 0.0849(4)
C9 C 0.5669(3) 0.9257(6) 0.0823(4)
C10 C 0.5389(2) 0.9907(5) 0.1414(6)
C13 C 0.5328(3) 0.8661(5) 0.0152(4)
C18 C 0.8395(4) 0.9401(7) 0.5216(6)
C19 C 0.7816(9) 0.7804(14) 0.5158(14)
C20 C 0.8473(7) 0.8166(13) 0.6382(11)
H3 H 0.8491 0.8986 0.0484
H4 H 0.6451 0.8770 0.0440
H5 H 0.4994 0.9972 0.1396
H14 H 0.8219 0.9573 0.4671
H15 H 0.7811 0.7148 0.5478
H16 H 0.7912 0.7676 0.4538
H17 H 0.7442 0.8121 0.5194
H18 H 0.8594 0.8753 0.6746
H19 H 0.8795 0.7716 0.6258
H20 H 0.8183 0.7776 0.6702
H24 H 0.8779 0.9755 0.8279
Zn4 Zn 0.59863(3) 0.65056(6) 0.01172(11)
O4 O 0.93819(19) 0.8391(4) 0.9746(3)
O5 O 0.55770(18) 0.7923(4) 0.9701(3)
Zn5 Zn 0.98468(2) 0.74746(6) 0.89420(11)
Zn6 Zn 0.48468(2) 0.75254(6) 0.89420(11)
O7_2 O 0.0104(2) 0.6087(5) 0.7848(4)
H5_2 H 0.0006 0.4972 0.6396
O10_2 O 0.6271(2) 0.5026(5) 0.0515(4)
O11_2 O 0.6093(2) 0.6945(4) 0.1457(4)
N4_2 N 0.6748(6) 0.3517(9) 0.0572(8)
N5_2 N 0.6262(4) 0.6220(7) 0.2815(5)
C15_2 C 0.7267(3) 0.6717(6) 0.0110(6)
C17_2 C 0.8298(4) 0.6316(10) 0.0042(10)
C18_2 C 0.6605(4) 0.4401(7) 0.0216(6)
C19_2 C 0.7184(9) 0.2804(14) 0.0158(14)
C20_2 C 0.6527(7) 0.3166(13) 0.1382(11)
C21_2 C 0.6020(4) 0.6296(7) 0.2048(5)
C22_2 C 0.6120(5) 0.5446(9) 0.3493(7)
C23_2 C 0.6745(6) 0.6893(14) 0.3031(10)
H7_2 H 0.7257 0.6324 0.0639
H11_2 H 0.8219 0.5977 0.0607
H12_2 H 0.8599 0.6815 0.0124
H15_2 H 0.7189 0.2148 0.0478
H17_2 H 0.7558 0.3121 0.0194
H18_2 H 0.6406 0.3753 0.1746
H19_2 H 0.6205 0.2716 0.1258
H20_2 H 0.6817 0.2776 0.1702
H21_2 H 0.5748 0.5776 0.1931
H22_2 H 0.6328 0.5609 0.4033
H23_2 H 0.5716 0.5481 0.3605
H24_2 H 0.6221 0.4755 0.3279
H25_2 H 0.6923 0.6643 0.3574
H26_2 H 0.6608 0.7596 0.3126
H27_2 H 0.7015 0.6885 0.2542
O12_2 O 0.51610(18) 0.5928(4) 0.0422(4)
Pt1_2 Pt 0.755889(7) 0.473340(17) 0.64927(10)
Cl1_2 Cl 0.76113(7) 0.4422(2) 0.80162(16)
Cl2 Cl 0.75120(7) 0.50597(19) 0.49773(15)
O1_2 O 0.59793(18) 0.6063(4) 0.8815(3)
O2_2 O 0.51622(18) 0.6491(4) 0.8081(3)
O3_2 O 0.48390(18) 0.4072(4) 0.5422(4)
O4_2 O 0.56181(19) 0.3391(4) 0.4746(3)
O8_2 O 0.9253(2) 0.6771(4) 0.8171(3)
O9_2 O 0.6821(2) 0.7073(5) 0.9836(4)
N1_2 N 0.66872(17) 0.4807(4) 0.6571(5)
N2_2 N 0.84225(16) 0.4757(4) 0.6463(6)
N3_2 N 0.7773(3) 0.6840(6) 0.9714(5)
C1_2 C 0.6454(2) 0.5369(6) 0.7240(5)
C2_2 C 0.5870(2) 0.5511(5) 0.7322(4)
C3_2 C 0.5510(2) 0.5096(5) 0.6669(4)
C4_2 C 0.5752(2) 0.4499(5) 0.5987(4)
C5_2 C 0.6344(2) 0.4374(6) 0.5943(4)
C6_2 C 0.5650(3) 0.6060(6) 0.8148(4)
C7_2 C 0.5368(2) 0.3946(5) 0.5320(4)
C8_2 C 0.8740(2) 0.4195(6) 0.5849(4)
C9_2 C 0.9331(3) 0.4257(6) 0.5823(4)
C10_2 C 0.9611(2) 0.4907(5) 0.6414(6)
C11_2 C 0.9289(3) 0.5458(5) 0.7038(4)
C12_2 C 0.8706(3) 0.5387(6) 0.7036(4)
C13_2 C 0.9672(3) 0.3661(5) 0.5152(4)
C14_2 C 0.9580(3) 0.6161(6) 0.7727(5)
C16_2 C 0.7816(4) 0.7418(8) 0.8880(7)
H1_2 H 0.6694 0.5679 0.7664
H2_2 H 0.5118 0.5216 0.6688
H3_2 H 0.6509 0.3986 0.5484
H4_2 H 0.8549 0.3770 0.5440
H6_2 H 0.8497 0.5783 0.7439
H8_2 H 0.7496 0.7883 0.8825
H9_2 H 0.8161 0.7822 0.8878
H10_2 H 0.7817 0.6941 0.8383
H13_2 H 0.8421 0.5802 0.9613
H14_2 H 0.6781 0.4573 0.9671
H16_2 H 0.7088 0.2676 0.9538
Zn3_2 Zn 0.40137(3) 0.34944(6) 0.51172(11)
O13_2 O 0.43819(19) 0.6609(4) 0.9746(3)
O16_2 O 0.5104(2) 0.8913(5) 0.7848(4)
O17_2 O 0.4253(2) 0.8229(4) 0.8171(3)
Pt1_3 Pt 0.244111(7) 0.526660(17) 0.14927(10)
Cl1_3 Cl 0.23887(7) 0.5578(2) 0.30162(16)
O1_3 O 0.40207(18) 0.3937(4) 0.3815(3)
O2_3 O 0.48378(18) 0.3509(4) 0.3081(3)
O9_3 O 0.3179(2) 0.2927(5) 0.4836(4)
O10_3 O 0.3729(2) 0.4974(5) 0.5515(4)
O11_3 O 0.3907(2) 0.3055(4) 0.6457(4)
N1_3 N 0.33128(17) 0.5193(4) 0.1571(5)
N2_3 N 0.15775(16) 0.5243(4) 0.1463(6)
N3_3 N 0.2227(3) 0.3160(6) 0.4714(5)
N4_3 N 0.3252(6) 0.6483(9) 0.5572(8)
N5_3 N 0.3738(4) 0.3780(7) 0.7815(5)
C1_3 C 0.3546(2) 0.4631(6) 0.2240(5)
C2_3 C 0.4130(2) 0.4489(5) 0.2322(4)
C3_3 C 0.4490(2) 0.4904(5) 0.1669(4)
C4_3 C 0.4248(2) 0.5501(5) 0.0987(4)
C5_3 C 0.3656(2) 0.5626(6) 0.0943(4)
C6_3 C 0.4350(3) 0.3940(6) 0.3148(4)
C7_3 C 0.4632(2) 0.6054(5) 0.0320(4)
C8_3 C 0.1260(2) 0.5805(6) 0.0849(4)
C9_3 C 0.0669(3) 0.5743(6) 0.0823(4)
C10_3 C 0.0389(2) 0.5093(5) 0.1414(6)
C11_3 C 0.0711(3) 0.4542(5) 0.2038(4)
C12_3 C 0.1294(3) 0.4613(6) 0.2036(4)
C13_3 C 0.0328(3) 0.6339(5) 0.0152(4)
C14_3 C 0.0420(3) 0.3839(6) 0.2727(5)
C15_3 C 0.2733(3) 0.3283(6) 0.5110(6)
C16_3 C 0.2184(4) 0.2582(8) 0.3880(7)
C17_3 C 0.1702(4) 0.3684(10) 0.5042(10)
C18_3 C 0.3395(4) 0.5599(7) 0.5216(6)
C19_3 C 0.2816(9) 0.7196(14) 0.5158(14)
C20_3 C 0.3473(7) 0.6834(13) 0.6382(11)
C21_3 C 0.3980(4) 0.3704(7) 0.7048(5)
C22_3 C 0.3880(5) 0.4554(9) 0.8493(7)
C23_3 C 0.3255(6) 0.3107(14) 0.8031(10)
H1_3 H 0.3306 0.4321 0.2664
H2_3 H 0.4882 0.4784 0.1688
H3_3 H 0.3491 0.6014 0.0484
H4_3 H 0.1451 0.6230 0.0440
H6_3 H 0.1503 0.4217 0.2439
H7_3 H 0.2743 0.3676 0.5639
H8_3 H 0.2504 0.2117 0.3825
H9_3 H 0.1839 0.2178 0.3878
H10_3 H 0.2183 0.3059 0.3383
H11_3 H 0.1781 0.4023 0.5607
H12_3 H 0.1401 0.3185 0.5124
H13_3 H 0.1579 0.4198 0.4613
H14_3 H 0.3219 0.5427 0.4671
H15_3 H 0.2811 0.7852 0.5478
H16_3 H 0.2912 0.7324 0.4538
H17_3 H 0.2442 0.6879 0.5194
H18_3 H 0.3594 0.6247 0.6746
H19_3 H 0.3795 0.7284 0.6258
H20_3 H 0.3183 0.7224 0.6702
H21_3 H 0.4252 0.4224 0.6931
H22_3 H 0.3672 0.4391 0.9033
H23_3 H 0.4284 0.4519 0.8605
H24_3 H 0.3779 0.5245 0.8279
H25_3 H 0.3077 0.3357 0.8574
H26_3 H 0.3392 0.2404 0.8126
H27_3 H 0.2985 0.3115 0.7542
O14_2 O 0.44230(18) 0.2077(4) 0.4701(3)
O15_2 O 0.5179(2) 0.1122(4) 0.5024(4)
Cl2_2 Cl 0.24880(7) 0.49403(19) 0.99773(15)
O5_2 O 0.05770(18) 0.7077(4) 0.9701(3)
O6_2 O 0.9821(2) 0.6122(4) 0.0024(4)
H5_3 H 0.9994 0.5028 0.1396
Pt1_4 Pt 0.255889(7) 0.026660(17) 0.64927(10)
Cl1_4 Cl 0.26113(7) 0.0578(2) 0.80162(16)
N1_4 N 0.16872(17) 0.0193(4) 0.6571(5)
N2_4 N 0.34225(16) 0.0243(4) 0.6463(6)
C4_4 C 0.0752(2) 0.0501(5) 0.5987(4)
C5_4 C 0.1344(2) 0.0626(6) 0.5943(4)
C7_4 C 0.0368(2) 0.1054(5) 0.5320(4)
C8_4 C 0.3740(2) 0.0805(6) 0.5849(4)
C9_4 C 0.4331(3) 0.0743(6) 0.5823(4)
C10_4 C 0.4611(2) 0.0093(5) 0.6414(6)
C13_4 C 0.4672(3) 0.1339(5) 0.5152(4)
H3_4 H 0.1509 0.1014 0.5484
H4_4 H 0.3549 0.1230 0.5440
H5_4 H 0.5006 0.0028 0.6396
H14_4 H 0.1781 0.0427 0.9671
H16_4 H 0.2088 0.2324 0.9538
O10_4 O 0.1271(2) 0.9974(5) 0.0515(4)
O11_4 O 0.1093(2) 0.8055(4) 0.1457(4)
N5_4 N 0.1262(4) 0.8780(7) 0.2815(5)
C15_4 C 0.2267(3) 0.8283(6) 0.0110(6)
C17_4 C 0.3298(4) 0.8684(10) 0.0042(10)
C21_4 C 0.1020(4) 0.8704(7) 0.2048(5)
C22_4 C 0.1120(5) 0.9554(9) 0.3493(7)
C23_4 C 0.1745(6) 0.8107(14) 0.3031(10)
H7_4 H 0.2257 0.8676 0.0639
H11_4 H 0.3219 0.9023 0.0607
H12_4 H 0.3599 0.8185 0.0124
H21_4 H 0.0748 0.9224 0.1931
H22_4 H 0.1328 0.9391 0.4033
H23_4 H 0.0716 0.9519 0.3605
H25_4 H 0.1923 0.8357 0.3574
H26_4 H 0.1608 0.7404 0.3126
H27_4 H 0.2015 0.8115 0.2542
Cl2_3 Cl 0.25120(7) 0.99403(19) 0.49773(15)
O1_4 O 0.09793(18) 0.8937(4) 0.8815(3)
O2_4 O 0.01622(18) 0.8509(4) 0.8081(3)
O9_4 O 0.1821(2) 0.7927(5) 0.9836(4)
N3_4 N 0.2773(3) 0.8160(6) 0.9714(5)
C1_4 C 0.1454(2) 0.9631(6) 0.7240(5)
C2_4 C 0.0870(2) 0.9489(5) 0.7322(4)
C3_4 C 0.0510(2) 0.9904(5) 0.6669(4)
C6_4 C 0.0650(3) 0.8940(6) 0.8148(4)
C11_4 C 0.4289(3) 0.9542(5) 0.7038(4)
C12_4 C 0.3706(3) 0.9613(6) 0.7036(4)
C14_4 C 0.4580(3) 0.8839(6) 0.7727(5)
C16_4 C 0.2816(4) 0.7582(8) 0.8880(7)
H1_4 H 0.1694 0.9321 0.7664
H2_4 H 0.0118 0.9784 0.6688
H6_4 H 0.3497 0.9217 0.7439
H8_4 H 0.2496 0.7117 0.8825
H9_4 H 0.3161 0.7178 0.8878
H10_4 H 0.2817 0.8059 0.8383
H13_4 H 0.3421 0.9198 0.9613
Cl2_4 Cl 0.74880(7) 0.00597(19) 0.99773(15)
N4_4 N 0.1748(6) 0.1483(9) 0.0572(8)
C18_4 C 0.1605(4) 0.0599(7) 0.0216(6)
C19_4 C 0.2184(9) 0.2196(14) 0.0158(14)
C20_4 C 0.1527(7) 0.1834(13) 0.1382(11)
H15_4 H 0.2189 0.2852 0.0478
H17_4 H 0.2558 0.1879 0.0194
H18_4 H 0.1406 0.1247 0.1746
H19_4 H 0.1205 0.2284 0.1258
H20_4 H 0.1817 0.2224 0.1702
H24_4 H 0.1221 0.0245 0.3279
loop_
_geom_bond_atom_site_label_1
_geom_bond_atom_site_label_2
_geom_bond_site_symmetry_1
_geom_bond_site_symmetry_2
O13 Zn2 1_555 1_555
O15 Zn2 1_555 1_555
O17 Zn2 1_555 1_555
Zn3 O3 1_555 1_555
Zn1 O1 1_555 1_555
O1 C6 1_555 1_555
O2 C6 1_555 1_555
O7 C14 1_555 1_555
O8 C14 1_555 1_555
O9 Zn1 1_555 1_555
O10 Zn1 1_555 1_555
O11 Zn1 1_555 1_555
N3 C15 1_555 1_555
N5 C21 1_555 1_555
C2 C1 1_555 1_555
C3 C2 1_555 1_555
C6 C2 1_555 1_555
C14 C11 1_555 1_555
C15 O9 1_555 1_555
C16 N3 1_555 1_555
C17 N3 1_555 1_555
C21 O11 1_555 1_555
C22 N5 1_555 1_555
C23 N5 1_555 1_555
H1 C1 1_555 1_555
H2 C3 1_555 1_555
H6 C12 1_555 1_555
H7 C15 1_555 1_555
H8 C16 1_555 1_555
H9 C16 1_555 1_555
H10 C16 1_555 1_555
H11 C17 1_555 1_555
H12 C17 1_555 1_555
H13 C17 1_555 1_555
H21 C21 1_555 1_555
H22 C22 1_555 1_555
H23 C22 1_555 1_555
H25 C23 1_555 1_555
H26 C23 1_555 1_555
H27 C23 1_555 1_555
Zn7 O7 1_555 1_555
O12 Zn1 1_555 1_555
O14 Zn1 1_555 1_555
O8 Zn7 1_555 1_555
C11 C12 1_555 1_555
Pt1 Cl1 1_555 1_555
O6 C13 1_555 1_555
N1 Pt1 1_555 1_555
N2 Pt1 1_555 1_555
N4 C18 1_555 1_555
C5 N1 1_555 1_555
C7 C4 1_555 1_555
C8 N2 1_555 1_555
C9 C8 1_555 1_555
C10 C9 1_555 1_555
C13 C9 1_555 1_555
C19 N4 1_555 1_555
C20 N4 1_555 1_555
H3 C5 1_555 1_555
H4 C8 1_555 1_555
H5 C10 1_555 1_555
H14 C18 1_555 1_555
H15 C19 1_555 1_555
H16 C19 1_555 1_555
H17 C19 1_555 1_555
H18 C20 1_555 1_555
H19 C20 1_555 1_555
H20 C20 1_555 1_555
C4 C5 1_555 1_555
Zn5 O4 1_555 1_555
Zn6 O5 1_555 1_555
O10_2 Zn4 1_555 1_555
O11_2 Zn4 1_555 1_555
N4_2 C18_2 1_555 1_555
N5_2 C21_2 1_555 1_555
C18_2 O10_2 1_555 1_555
C19_2 N4_2 1_555 1_555
C20_2 N4_2 1_555 1_555
C21_2 O11_2 1_555 1_555
C22_2 N5_2 1_555 1_555
C23_2 N5_2 1_555 1_555
H7_2 C15_2 1_555 1_555
H11_2 C17_2 1_555 1_555
H12_2 C17_2 1_555 1_555
H15_2 C19_2 1_555 1_555
H17_2 C19_2 1_555 1_555
H18_2 C20_2 1_555 1_555
H19_2 C20_2 1_555 1_555
H20_2 C20_2 1_555 1_555
H21_2 C21_2 1_555 1_555
H22_2 C22_2 1_555 1_555
H23_2 C22_2 1_555 1_555
H24_2 C22_2 1_555 1_555
H25_2 C23_2 1_555 1_555
H26_2 C23_2 1_555 1_555
H27_2 C23_2 1_555 1_555
O12_2 Zn4 1_555 1_555
Pt1_2 Cl1_2 1_555 1_555
Zn6 O2_2 1_555 1_555
Cl2 Pt1_2 1_555 1_555
O1_2 C6_2 1_555 1_555
O2_2 C6_2 1_555 1_555
O3_2 C7_2 1_555 1_555
O4_2 C7_2 1_555 1_555
O14 C13_2 1_555 1_555
O8_2 C14_2 1_555 1_555
N1_2 Pt1_2 1_555 1_555
N2_2 Pt1_2 1_555 1_555
C1_2 N1_2 1_555 1_555
C2_2 C1_2 1_555 1_555
C3_2 C2_2 1_555 1_555
C4_2 C3_2 1_555 1_555
C5_2 N1_2 1_555 1_555
C6_2 C2_2 1_555 1_555
C7_2 C4_2 1_555 1_555
C8_2 N2_2 1_555 1_555
C9_2 C8_2 1_555 1_555
C10_2 C9_2 1_555 1_555
C11_2 C10_2 1_555 1_555
C12_2 N2_2 1_555 1_555
C13_2 C9_2 1_555 1_555
C14_2 C11_2 1_555 1_555
C16_2 N3_2 1_555 1_555
H1_2 C1_2 1_555 1_555
H2_2 C3_2 1_555 1_555
H3_2 C5_2 1_555 1_555
H4_2 C8_2 1_555 1_555
H6_2 C12_2 1_555 1_555
H8_2 C16_2 1_555 1_555
H9_2 C16_2 1_555 1_555
H10_2 C16_2 1_555 1_555
Zn3_2 O3_2 1_555 1_555
Zn7 O4_2 1_555 1_555
O13_2 Zn6 1_555 1_555
O16_2 Zn6 1_555 1_555
O17_2 Zn6 1_555 1_555
O8_2 Zn5 1_555 1_555
C4_2 C5_2 1_555 1_555
C11_2 C12_2 1_555 1_555
Pt1_3 Cl1_3 1_555 1_555
Zn3_2 O1_3 1_555 1_555
Zn7 O2_3 1_555 1_555
O1_3 C6_3 1_555 1_555
O2_3 C6_3 1_555 1_555
O12_2 C7_3 1_555 1_555
O17 C14_3 1_555 1_555
O9_3 Zn3_2 1_555 1_555
O10_3 Zn3_2 1_555 1_555
O11_3 Zn3_2 1_555 1_555
N1_3 Pt1_3 1_555 1_555
N2_3 Pt1_3 1_555 1_555
N3_3 C15_3 1_555 1_555
N4_3 C18_3 1_555 1_555
N5_3 C21_3 1_555 1_555
C1_3 N1_3 1_555 1_555
C2_3 C1_3 1_555 1_555
C3_3 C2_3 1_555 1_555
C4_3 C3_3 1_555 1_555
C5_3 N1_3 1_555 1_555
C6_3 C2_3 1_555 1_555
C7_3 C4_3 1_555 1_555
C8_3 N2_3 1_555 1_555
C9_3 C8_3 1_555 1_555
C10_3 C9_3 1_555 1_555
C11_3 C10_3 1_555 1_555
C12_3 N2_3 1_555 1_555
C13_3 C9_3 1_555 1_555
C14_3 C11_3 1_555 1_555
C15_3 O9_3 1_555 1_555
C16_3 N3_3 1_555 1_555
C17_3 N3_3 1_555 1_555
C18_3 O10_3 1_555 1_555
C19_3 N4_3 1_555 1_555
C20_3 N4_3 1_555 1_555
C21_3 O11_3 1_555 1_555
C22_3 N5_3 1_555 1_555
C23_3 N5_3 1_555 1_555
H1_3 C1_3 1_555 1_555
H2_3 C3_3 1_555 1_555
H3_3 C5_3 1_555 1_555
H4_3 C8_3 1_555 1_555
H6_3 C12_3 1_555 1_555
H7_3 C15_3 1_555 1_555
H8_3 C16_3 1_555 1_555
H9_3 C16_3 1_555 1_555
H10_3 C16_3 1_555 1_555
H11_3 C17_3 1_555 1_555
H12_3 C17_3 1_555 1_555
H13_3 C17_3 1_555 1_555
H14_3 C18_3 1_555 1_555
H15_3 C19_3 1_555 1_555
H16_3 C19_3 1_555 1_555
H17_3 C19_3 1_555 1_555
H18_3 C20_3 1_555 1_555
H19_3 C20_3 1_555 1_555
H20_3 C20_3 1_555 1_555
H21_3 C21_3 1_555 1_555
H22_3 C22_3 1_555 1_555
H23_3 C22_3 1_555 1_555
H24_3 C22_3 1_555 1_555
H25_3 C23_3 1_555 1_555
H26_3 C23_3 1_555 1_555
H27_3 C23_3 1_555 1_555
O14_2 Zn3_2 1_555 1_555
O15_2 Zn7 1_555 1_555
Zn7 O14_2 1_555 1_555
C4_3 C5_3 1_555 1_555
C11_3 C12_3 1_555 1_555
Pt1_4 Cl1_4 1_555 1_555
O13 C7_4 1_555 1_555
O14_2 C13_4 1_555 1_555
O15_2 C13_4 1_555 1_555
N1_4 Pt1_4 1_555 1_555
N2_4 Pt1_4 1_555 1_555
C5_4 N1_4 1_555 1_555
C7_4 C4_4 1_555 1_555
C8_4 N2_4 1_555 1_555
C9_4 C8_4 1_555 1_555
C10_4 C9_4 1_555 1_555
C13_4 C9_4 1_555 1_555
H3_4 C5_4 1_555 1_555
H4_4 C8_4 1_555 1_555
H5_4 C10_4 1_555 1_555
C4_4 C5_4 1_555 1_555
O10_4 Zn3 1_555 1_555
O11_4 Zn3 1_555 1_555
N5_4 C21_4 1_555 1_555
C21_4 O11_4 1_555 1_555
C22_4 N5_4 1_555 1_555
C23_4 N5_4 1_555 1_555
H7_4 C15_4 1_555 1_555
H11_4 C17_4 1_555 1_555
H12_4 C17_4 1_555 1_555
H21_4 C21_4 1_555 1_555
H22_4 C22_4 1_555 1_555
H23_4 C22_4 1_555 1_555
H25_4 C23_4 1_555 1_555
H26_4 C23_4 1_555 1_555
H27_4 C23_4 1_555 1_555
O1_4 C6_4 1_555 1_555
O2_4 C6_4 1_555 1_555
O16_2 C14_4 1_555 1_555
O17_2 C14_4 1_555 1_555
C2_4 C1_4 1_555 1_555
C3_4 C2_4 1_555 1_555
C6_4 C2_4 1_555 1_555
C14_4 C11_4 1_555 1_555
C16_4 N3_4 1_555 1_555
H1_4 C1_4 1_555 1_555
H2_4 C3_4 1_555 1_555
H6_4 C12_4 1_555 1_555
H8_4 C16_4 1_555 1_555
H9_4 C16_4 1_555 1_555
H10_4 C16_4 1_555 1_555
C11_4 C12_4 1_555 1_555
N4_4 C18_4 1_555 1_555
C19_4 N4_4 1_555 1_555
C20_4 N4_4 1_555 1_555
H15_4 C19_4 1_555 1_555
H17_4 C19_4 1_555 1_555
H18_4 C20_4 1_555 1_555
H19_4 C20_4 1_555 1_555
H20_4 C20_4 1_555 1_555

#END
