
###############################################################################
#
# This file contains modified crystal structure data generated from the
# MOF subset of the Cambridge Structural Database (CSD) v543 
# hosted by the Cambridge Crystallographic Data Centre (CCDC).
#
# This work is licensed under the Creative Commons
# Attribution-NonCommercial-ShareAlike 4.0 International License.
# To view a copy of this license, visit
# http://creativecommons.org/licenses/by-nc-sa/4.0/
# or send a letter to
# Creative Commons, PO Box 1866, Mountain View, CA 94042, USA.
#
# CIF created using the CSD Python API on 29 September 2022
# The structure has been converted into the P1 space group
# The structure has a 3D framework
# The original CSD entry VIRXIF is in the trigonal crystal system
# The original CSD entry VIRXIF is in a Sohncke space group
# The framework has been calculated to contain at least 10.0% void space
# The void calculation uses a probe of radius 1.32A, grid spacing 0.4
#
###############################################################################

data_VIRXIF
_chemical_formula_moiety         '(C42 H72 N24 O42 P12 Zn12 6+)n'
_symmetry_cell_setting           triclinic
_symmetry_space_group_name_H-M   'P 1'
_symmetry_Int_Tables_number      1
_space_group_name_Hall           'P 1'
loop_
_symmetry_equiv_pos_site_id
_symmetry_equiv_pos_as_xyz
1 x,y,z
_cell_length_a                   14.3807(3)
_cell_length_b                   14.3807(3)
_cell_length_c                   14.3552(3)
_cell_angle_alpha                90
_cell_angle_beta                 90
_cell_angle_gamma                120
_cell_volume                     2570.99
loop_
_atom_site_label
_atom_site_type_symbol
_atom_site_fract_x
_atom_site_fract_y
_atom_site_fract_z
Zn1 Zn 0.58507(9) 0.25785(8) 0.83541(6)
Zn2 Zn 0.34366(11) 0.0000 0.6667
P1 P 0.53270(17) 0.22012(18) 0.61950(15)
P2 P 0.36435(19) 0.20870(19) 0.75924(15)
O1 O 0.4649(5) 0.1036(5) 0.5932(4)
O2 O 0.6028(6) 0.2372(6) 0.7036(4)
O3 O 0.4481(6) 0.2516(7) 0.8368(4)
O4 O 0.2836(6) 0.2428(6) 0.7719(5)
O5 O 0.3134(7) 0.0883(6) 0.7471(5)
C1 C 0.4399(7) 0.2709(7) 0.6507(6)
O6 O 0.3672(6) 0.2479(7) 0.5739(4)
H1 H 0.3060 0.2239 0.5938
C2 C 0.5068(8) 0.3921(7) 0.6582(7)
H2 H 0.5610 0.4092 0.7057
H3 H 0.5440 0.4195 0.5995
N1 N 0.4502(7) 0.4490(6) 0.6801(5)
C3 C 0.4686(8) 0.5109(8) 0.7558(6)
H4 H 0.5165 0.5204 0.8033
C4 C 0.3752(11) 0.4522(10) 0.6266(7)
H5 H 0.3469 0.4154 0.5711
C5 C 0.3489(10) 0.5210(9) 0.6705(7)
H6 H 0.3000 0.5407 0.6494
N2 N 0.4087(7) 0.5557(7) 0.7525(5)
O7 O 0.5955(5) 0.2857(5) 0.5372(4)
Zn5 Zn 0.74215(8) 0.32722(12) 0.50208(6)
Zn7 Zn 0.41493(9) 0.67278(12) 0.83126(6)
N6 N 0.5913(7) 0.1470(10) 0.9142(5)
O15 O 0.6902(7) 0.4045(5) 0.8705(4)
Zn2_2 Zn 0.34366(11) 1.0000 0.6667
Zn3 Zn 0.32722(12) 0.74215(8) 0.49792(6)
P3 P 0.31258(25) 0.77988(18) 0.71383(15)
P4 P 0.15565(27) 0.79130(19) 0.57409(15)
O8 O 0.3613(7) 0.8964(5) 0.7401(4)
O9 O 0.3656(8) 0.7628(6) 0.6297(4)
O10 O 0.1965(9) 0.7484(7) 0.4965(4)
O11 O 0.0408(8) 0.7572(6) 0.5614(5)
O12 O 0.2251(9) 0.9117(6) 0.5862(5)
C6 C 0.1690(10) 0.7291(7) 0.6826(6)
O13 O 0.1193(9) 0.7521(7) 0.7594(4)
H7 H 0.0821 0.7761 0.7395
C7 C 0.1147(11) 0.6079(7) 0.6751(7)
H8 H 0.1518 0.5908 0.6276
H9 H 0.1245 0.5805 0.7338
N3 N 0.0012(9) 0.5510(6) 0.6532(5)
O14 O 0.3098(7) 0.7143(5) 0.7961(4)
N5 N 0.4443(7) 0.8530(10) 0.4192(5)
O16 O 0.2857(5) 0.5955(5) 0.4628(4)
C8 C 0.9577(11) 0.4891(8) 0.5775(6)
H10 H 0.9961 0.4796 0.5300
C9 C 0.9230(15) 0.5478(10) 0.7067(7)
H11 H 0.9315 0.5846 0.7622
C10 C 0.8279(13) 0.4790(9) 0.6628(7)
H12 H 0.7593 0.4593 0.6839
N4 N 0.8530(10) 0.4443(7) 0.5808(5)
Zn2_3 Zn 0.0000 0.34366(11) 0.3334
Zn3_2 Zn 0.25785(8) 0.58507(14) 0.16459(6)
P3_2 P 0.22012(18) 0.53270(31) 0.38050(15)
P4_2 P 0.20870(19) 0.36435(33) 0.24076(15)
O8_2 O 0.1036(5) 0.4649(9) 0.4068(4)
O9_2 O 0.2372(6) 0.6028(10) 0.2964(4)
O10_2 O 0.2516(7) 0.4481(11) 0.1632(4)
O11_2 O 0.2428(6) 0.2836(10) 0.2281(5)
O12_2 O 0.0883(6) 0.3134(11) 0.2529(5)
C6_2 C 0.2709(7) 0.4399(12) 0.3493(6)
O13_2 O 0.2479(7) 0.3672(11) 0.4261(4)
H7_2 H 0.2239 0.3060 0.4062
C7_2 C 0.3921(7) 0.5068(13) 0.3418(7)
H8_2 H 0.4092 0.5610 0.2943
H9_2 H 0.4195 0.5440 0.4005
N3_2 N 0.4490(6) 0.4502(11) 0.3199(5)
C8_2 C 0.5109(8) 0.4686(14) 0.2442(6)
H10_2 H 0.5204 0.5165 0.1967
C9_2 C 0.4522(10) 0.3752(18) 0.3734(7)
H11_2 H 0.4154 0.3469 0.4289
C10_2 C 0.5210(9) 0.3489(16) 0.3295(7)
H12_2 H 0.5407 0.3000 0.3506
N4_2 N 0.5557(7) 0.4087(12) 0.2475(5)
Zn4 Zn 0.67278(12) 0.41493(14) 0.16874(6)
N5_2 N 0.1470(10) 0.5913(12) 0.0858(5)
O16_2 O 0.4045(5) 0.6902(7) 0.1295(4)
Zn2_4 Zn 1.0000 0.34366(11) 0.3334
P1_2 P 0.77988(18) 0.31258(25) 0.28617(15)
P2_2 P 0.79130(19) 0.15565(27) 0.42591(15)
O1_2 O 0.8964(5) 0.3613(7) 0.2599(4)
O2_2 O 0.7628(6) 0.3656(8) 0.3703(4)
O3_2 O 0.7484(7) 0.1965(9) 0.5035(4)
O4_2 O 0.7572(6) 0.0408(8) 0.4386(5)
O5_2 O 0.9117(6) 0.2251(9) 0.4138(5)
C1_2 C 0.7291(7) 0.1690(10) 0.3174(6)
O6_2 O 0.7521(7) 0.1193(9) 0.2406(4)
H1_2 H 0.7761 0.0821 0.2605
C2_2 C 0.6079(7) 0.1147(11) 0.3249(7)
H2_2 H 0.5908 0.1518 0.3724
H3_2 H 0.5805 0.1245 0.2662
N1_2 N 0.5510(6) 0.0012(9) 0.3468(5)
O7_2 O 0.7143(5) 0.3098(7) 0.2039(4)
C3_2 C 0.4891(8) 0.9577(11) 0.4225(6)
H4_2 H 0.4796 0.9961 0.4700
C4_2 C 0.5478(10) 0.9230(15) 0.2933(7)
H5_2 H 0.5846 0.9315 0.2378
C5_2 C 0.4790(9) 0.8279(13) 0.3372(7)
H6_2 H 0.4593 0.7593 0.3161
C3_3 C 0.0423(11) 0.5314(8) 0.0891(6)
H4_3 H 0.0039 0.4835 0.1366
C5_3 C 0.1721(13) 0.6511(10) 0.0038(7)
C8_3 C 0.5314(14) 0.0423(11) 0.9109(6)
H10_3 H 0.4835 0.0039 0.8634
C10_3 C 0.6511(16) 0.1721(13) 0.9962(7)
Zn2_5 Zn 0.65634(11) 0.65634(11) 0.0000
P2_3 P 0.84435(27) 0.63565(19) 0.09257(15)
O2_3 O 0.6344(8) 0.3972(6) 0.0369(4)
O3_3 O 0.8035(9) 0.5519(6) 0.1701(4)
O4_3 O 0.9592(8) 0.7164(6) 0.1052(5)
O5_3 O 0.7749(9) 0.6866(7) 0.0804(5)
H2_3 H 0.8482 0.4390 0.0390
N1_3 N 0.9988(9) 0.5498(7) 0.0134(5)
P3_3 P 0.46730(31) 0.68742(25) 0.04717(15)
O8_3 O 0.5351(9) 0.6387(7) 0.0735(4)
C6_3 C 0.5601(12) 0.8310(10) 0.0160(6)
O13_3 O 0.6328(11) 0.8807(9) 0.0928(4)
H7_3 H 0.6940 0.9179 0.0729
C7_3 C 0.4932(13) 0.8853(11) 0.0085(7)
H9_3 H 0.4560 0.8755 0.0672
Zn2_6 Zn 0.65634(11) 0.65634(11) 1.0000
P1_3 P 0.68742(25) 0.46730(17) 0.95283(15)
O1_3 O 0.6387(7) 0.5351(5) 0.9265(4)
C1_3 C 0.8310(10) 0.5601(7) 0.9840(6)
O6_3 O 0.8807(9) 0.6328(6) 0.9072(4)
H1_3 H 0.9179 0.6940 0.9271
C2_3 C 0.8853(11) 0.4932(8) 0.9915(7)
H3_3 H 0.8755 0.4560 0.9328
P4_3 P 0.63565(33) 0.84435(27) 0.90743(15)
O9_3 O 0.3972(10) 0.6344(8) 0.9631(4)
O10_3 O 0.5519(11) 0.8035(9) 0.8299(4)
O11_3 O 0.7164(10) 0.9592(8) 0.8948(5)
O12_3 O 0.6866(11) 0.7749(9) 0.9196(5)
H8_3 H 0.4390 0.8482 0.9610
N3_3 N 0.5498(11) 0.9988(9) 0.9866(5)
C4_3 C 0.0770(15) 0.6248(11) 0.9599(7)
H5_3 H 0.0685 0.6531 0.9044
H6_3 H 0.2407 0.7000 0.9827
C9_3 C 0.6248(18) 0.0770(15) 0.0401(7)
H11_3 H 0.6531 0.0685 0.0956
H12_3 H 0.7000 0.2407 0.0173
N7 N 0.6314(14) 0.0000 0.6667
H13 H 0.6122 0.0368 0.6280
N8 N 0.8242(19) 0.0000 0.6667
H20 H 0.8803 0.0384 0.6286
C13 C 0.7146(25) 0.0776(17) 0.7221(15)
H21 H 0.7295 0.1476 0.7003
H22 H 0.6870 0.0694 0.7851
C14 C 0.8054(25) 0.0794(15) 0.7269(18)
H23 H 0.8162 0.0675 0.7915
H24 H 0.8611 0.1515 0.7110
N7_2 N 0.6314(14) 1.0000 0.6667
N8_2 N 0.8242(19) 1.0000 0.6667
H14 H 0.8419 0.9616 0.7047
C11 C 0.6370(18) 0.9224(17) 0.6112(15)
H15 H 0.5819 0.8524 0.6330
H16 H 0.6176 0.9306 0.5482
C12 C 0.726(2) 0.9206(15) 0.6064(18)
H17 H 0.7487 0.9325 0.5418
H18 H 0.7096 0.8485 0.6223
H19 H 0.5754 0.9632 0.7053
N7_3 N -0.0000 0.6314(14) 0.3334
N8_3 N -0.0000 0.8242(19) 0.3334
H14_2 H 0.0384 0.8803 0.3714
C11_2 C 0.0776(17) 0.7146(25) 0.2779(15)
H15_2 H 0.1476 0.7295 0.2997
H16_2 H 0.0694 0.6870 0.2149
C12_2 C 0.0794(15) 0.8054(25) 0.2731(18)
H17_2 H 0.0675 0.8162 0.2085
H18_2 H 0.1515 0.8611 0.2890
H19_2 H 0.0368 0.6122 0.3720
N7_4 N 1.0000 0.6314(14) 0.3334
H13_2 H 0.9632 0.5754 0.2947
N8_4 N 1.0000 0.8242(19) 0.3334
H20_2 H 0.9616 0.8419 0.2953
C13_2 C 0.9224(17) 0.6370(30) 0.3888(15)
H21_2 H 0.8524 0.5819 0.3670
H22_2 H 0.9306 0.6176 0.4518
C14_2 C 0.9206(15) 0.7260(29) 0.3936(18)
H23_2 H 0.9325 0.7487 0.4582
H24_2 H 0.8485 0.7096 0.3777
N7_5 N 0.3686(14) 0.3686(14) 0.0000
N8_5 N 0.1758(19) 0.1758(19) 0.0000
H14_3 H 0.1197 0.1581 0.0380
H19_3 H 0.3878 0.4246 0.0387
C13_3 C 0.3630(30) 0.2854(25) 0.0555(15)
H21_3 H 0.4181 0.2705 0.0337
H22_3 H 0.3824 0.3130 0.1185
C14_3 C 0.2740(29) 0.1946(25) 0.0603(18)
H23_3 H 0.2513 0.1838 0.1249
H24_3 H 0.2904 0.1389 0.0444
N7_6 N 0.3686(14) 0.3686(14) 1.0000
H13_3 H 0.4246 0.3878 0.9613
N8_6 N 0.1758(19) 0.1758(19) 1.0000
C11_3 C 0.2854(25) 0.3630(18) 0.9445(15)
H15_3 H 0.2705 0.4181 0.9663
H16_3 H 0.3130 0.3824 0.8815
C12_3 C 0.1946(25) 0.274(2) 0.9397(18)
H17_3 H 0.1838 0.2513 0.8751
H18_3 H 0.1389 0.2904 0.9556
H20_3 H 0.1581 0.1197 0.9620
loop_
_geom_bond_atom_site_label_1
_geom_bond_atom_site_label_2
_geom_bond_site_symmetry_1
_geom_bond_site_symmetry_2
Zn1 O2 1_555 1_555
Zn2 O1 1_555 1_555
P1 O1 1_555 1_555
P2 O3 1_555 1_555
O2 P1 1_555 1_555
O3 Zn1 1_555 1_555
O4 P2 1_555 1_555
O5 Zn2 1_555 1_555
C1 P1 1_555 1_555
O6 C1 1_555 1_555
H1 O6 1_555 1_555
C2 C1 1_555 1_555
H2 C2 1_555 1_555
H3 C2 1_555 1_555
N1 C2 1_555 1_555
C3 N1 1_555 1_555
H4 C3 1_555 1_555
C4 N1 1_555 1_555
H5 C4 1_555 1_555
C5 C4 1_555 1_555
H6 C5 1_555 1_555
N2 C3 1_555 1_555
O7 P1 1_555 1_555
Zn5 O7 1_555 1_555
Zn7 N2 1_555 1_555
N6 Zn1 1_555 1_555
O15 Zn1 1_555 1_555
P2 O5 1_555 1_555
P2 C1 1_555 1_555
C5 N2 1_555 1_555
Zn3 O9 1_555 1_555
P3 O8 1_555 1_555
P4 O10 1_555 1_555
O8 Zn2_2 1_555 1_555
O9 P3 1_555 1_555
O10 Zn3 1_555 1_555
O11 P4 1_555 1_555
O12 Zn2_2 1_555 1_555
C6 P3 1_555 1_555
O13 C6 1_555 1_555
H7 O13 1_555 1_555
C7 C6 1_555 1_555
H8 C7 1_555 1_555
H9 C7 1_555 1_555
N3 C7 1_555 1_555
O14 P3 1_555 1_555
Zn7 O14 1_555 1_555
N5 Zn3 1_555 1_555
O16 Zn3 1_555 1_555
P4 O12 1_555 1_555
P4 C6 1_555 1_555
H10 C8 1_555 1_555
H11 C9 1_555 1_555
C10 C9 1_555 1_555
H12 C10 1_555 1_555
N4 C8 1_555 1_555
Zn5 N4 1_555 1_555
C10 N4 1_555 1_555
Zn3_2 O9_2 1_555 1_555
P3_2 O8_2 1_555 1_555
P4_2 O10_2 1_555 1_555
O8_2 Zn2_3 1_555 1_555
O9_2 P3_2 1_555 1_555
O10_2 Zn3_2 1_555 1_555
O11_2 P4_2 1_555 1_555
O12_2 Zn2_3 1_555 1_555
C6_2 P3_2 1_555 1_555
O13_2 C6_2 1_555 1_555
H7_2 O13_2 1_555 1_555
C7_2 C6_2 1_555 1_555
H8_2 C7_2 1_555 1_555
H9_2 C7_2 1_555 1_555
N3_2 C7_2 1_555 1_555
C8_2 N3_2 1_555 1_555
H10_2 C8_2 1_555 1_555
C9_2 N3_2 1_555 1_555
H11_2 C9_2 1_555 1_555
C10_2 C9_2 1_555 1_555
H12_2 C10_2 1_555 1_555
N4_2 C8_2 1_555 1_555
O16 P3_2 1_555 1_555
Zn4 N4_2 1_555 1_555
N5_2 Zn3_2 1_555 1_555
O16_2 Zn3_2 1_555 1_555
P4_2 O12_2 1_555 1_555
P4_2 C6_2 1_555 1_555
C10_2 N4_2 1_555 1_555
Zn5 O2_2 1_555 1_555
Zn2_4 O1_2 1_555 1_555
P1_2 O1_2 1_555 1_555
P2_2 O3_2 1_555 1_555
O2_2 P1_2 1_555 1_555
O3_2 Zn5 1_555 1_555
O4_2 P2_2 1_555 1_555
O5_2 Zn2_4 1_555 1_555
C1_2 P1_2 1_555 1_555
O6_2 C1_2 1_555 1_555
H1_2 O6_2 1_555 1_555
C2_2 C1_2 1_555 1_555
H2_2 C2_2 1_555 1_555
H3_2 C2_2 1_555 1_555
N1_2 C2_2 1_555 1_555
O7_2 P1_2 1_555 1_555
Zn4 O7_2 1_555 1_555
P2_2 O5_2 1_555 1_555
P2_2 C1_2 1_555 1_555
H4_2 C3_2 1_555 1_555
H5_2 C4_2 1_555 1_555
C5_2 C4_2 1_555 1_555
H6_2 C5_2 1_555 1_555
N5 C3_2 1_555 1_555
C5_2 N5 1_555 1_555
H4_3 C3_3 1_555 1_555
N5_2 C3_3 1_555 1_555
C5_3 N5_2 1_555 1_555
H10_3 C8_3 1_555 1_555
N6 C8_3 1_555 1_555
C10_3 N6 1_555 1_555
Zn4 O2_3 1_555 1_555
P2_3 O3_3 1_555 1_555
O3_3 Zn4 1_555 1_555
O4_3 P2_3 1_555 1_555
O5_3 Zn2_5 1_555 1_555
P3_3 O8_3 1_555 1_555
O8_3 Zn2_5 1_555 1_555
C6_3 P3_3 1_555 1_555
O13_3 C6_3 1_555 1_555
H7_3 O13_3 1_555 1_555
C7_3 C6_3 1_555 1_555
H9_3 C7_3 1_555 1_555
O16_2 P3_3 1_555 1_555
P2_3 O5_3 1_555 1_555
Zn2_6 O1_3 1_555 1_555
P1_3 O1_3 1_555 1_555
C1_3 P1_3 1_555 1_555
O6_3 C1_3 1_555 1_555
H1_3 O6_3 1_555 1_555
C2_3 C1_3 1_555 1_555
H3_3 C2_3 1_555 1_555
O15 P1_3 1_555 1_555
Zn7 O9_3 1_555 1_555
P4_3 O10_3 1_555 1_555
O10_3 Zn7 1_555 1_555
O11_3 P4_3 1_555 1_555
O12_3 Zn2_6 1_555 1_555
P4_3 O12_3 1_555 1_555
H5_3 C4_3 1_555 1_555
H11_3 C9_3 1_555 1_555
N7 H13 1_555 1_555
H20 N8 1_555 1_555
C13 N7 1_555 1_555
H21 C13 1_555 1_555
H22 C13 1_555 1_555
C14 N8 1_555 1_555
H23 C14 1_555 1_555
H24 C14 1_555 1_555
C13 C14 1_555 1_555
N8_2 H14 1_555 1_555
C11 N7_2 1_555 1_555
H15 C11 1_555 1_555
H16 C11 1_555 1_555
C12 N8_2 1_555 1_555
H17 C12 1_555 1_555
H18 C12 1_555 1_555
H19 N7_2 1_555 1_555
C11 C12 1_555 1_555
N8_3 H14_2 1_555 1_555
C11_2 N7_3 1_555 1_555
H15_2 C11_2 1_555 1_555
H16_2 C11_2 1_555 1_555
C12_2 N8_3 1_555 1_555
H17_2 C12_2 1_555 1_555
H18_2 C12_2 1_555 1_555
H19_2 N7_3 1_555 1_555
C11_2 C12_2 1_555 1_555
N7_4 H13_2 1_555 1_555
H20_2 N8_4 1_555 1_555
C13_2 N7_4 1_555 1_555
H21_2 C13_2 1_555 1_555
H22_2 C13_2 1_555 1_555
C14_2 N8_4 1_555 1_555
H23_2 C14_2 1_555 1_555
H24_2 C14_2 1_555 1_555
C13_2 C14_2 1_555 1_555
N8_5 H14_3 1_555 1_555
H19_3 N7_5 1_555 1_555
C13_3 N7_5 1_555 1_555
H21_3 C13_3 1_555 1_555
H22_3 C13_3 1_555 1_555
C14_3 N8_5 1_555 1_555
H23_3 C14_3 1_555 1_555
H24_3 C14_3 1_555 1_555
C13_3 C14_3 1_555 1_555
N7_6 H13_3 1_555 1_555
C11_3 N7_6 1_555 1_555
H15_3 C11_3 1_555 1_555
H16_3 C11_3 1_555 1_555
C12_3 N8_6 1_555 1_555
H17_3 C12_3 1_555 1_555
H18_3 C12_3 1_555 1_555
H20_3 N8_6 1_555 1_555
C11_3 C12_3 1_555 1_555

#END
