
###############################################################################
#
# This file contains modified crystal structure data generated from the
# MOF subset of the Cambridge Structural Database (CSD) v543 
# hosted by the Cambridge Crystallographic Data Centre (CCDC).
#
# This work is licensed under the Creative Commons
# Attribution-NonCommercial-ShareAlike 4.0 International License.
# To view a copy of this license, visit
# http://creativecommons.org/licenses/by-nc-sa/4.0/
# or send a letter to
# Creative Commons, PO Box 1866, Mountain View, CA 94042, USA.
#
# CIF created using the CSD Python API on 29 September 2022
# The structure has been converted into the P1 space group
# The structure has a 3D framework
# The original CSD entry VIRYOL is in the triclinic crystal system
# The framework has been calculated to contain at least 10.0% void space
# The void calculation uses a probe of radius 1.32A, grid spacing 0.4
#
###############################################################################

data_VIRYOL
_chemical_formula_moiety         '(C30 H42 Co1 N12 O11 V4)n'
_symmetry_cell_setting           triclinic
_symmetry_space_group_name_H-M   'P 1'
_symmetry_Int_Tables_number      1
_space_group_name_Hall           'P 1'
loop_
_symmetry_equiv_pos_site_id
_symmetry_equiv_pos_as_xyz
1 x,y,z
_cell_length_a                   9.0373(18)
_cell_length_b                   10.577(2)
_cell_length_c                   11.947(2)
_cell_angle_alpha                87.80(3)
_cell_angle_beta                 81.71(3)
_cell_angle_gamma                85.29(3)
_cell_volume                     1125.83
loop_
_atom_site_label
_atom_site_type_symbol
_atom_site_fract_x
_atom_site_fract_y
_atom_site_fract_z
_atom_site_U_iso_or_equiv
_atom_site_thermal_displace_type
H20 H 0.0364 0.0317 0.3839 0.0850 Uiso
C23 C 0.3527(11) 0.1200(10) 0.4693(8) 0.0455 Uani
H30 H 0.3361 0.1777 0.5275 0.0550 Uiso
C24 C 0.4398(10) 0.1323(9) 0.3678(8) 0.0375 Uani
H31 H 0.4953 0.2016 0.3457 0.0450 Uiso
C30 C 0.0298(11) 0.0072(12) 0.5557(8) 0.0571 Uani
H42 H 0.0272 0.0968 0.5710 0.0850 Uiso
N11 N 0.2945(9) 0.0056(8) 0.4681(6) 0.0388 Uani
N12 N 0.4358(7) 0.0316(7) 0.3030(6) 0.0291 Uani
Co5 Co 0.54013(12) 0.99673(10) 0.13457(9) 0.0217 Uani
C26 C 0.3479(11) 0.9561(9) 0.3683(7) 0.0368 Uani
H34 H 0.3258 0.8770 0.3467 0.0440 Uiso
C29 C 0.1866(11) 0.9491(11) 0.5579(8) 0.0480 Uani
H39 H 0.1891 0.8584 0.5473 0.0570 Uiso
H40 H 0.2164 0.9618 0.6312 0.0570 Uiso
V2 V 0.17483(15) 0.09757(13) 0.10039(12) 0.0232 Uani
O1 O 0.3523(6) 0.0418(5) 0.0523(5) 0.0259 Uani
O4 O 0.1686(7) 0.1895(6) 0.2049(5) 0.0402 Uani
N8 N 0.5996(7) 0.1843(7) 0.1170(6) 0.0264 Uani
V1 V 0.08716(15) 0.13179(13) 0.85385(12) 0.0239 Uani
Co1 Co 0.45987(12) 0.00327(10) 0.86543(9) 0.0217 Uani
O2 O 0.2498(6) 0.0543(5) 0.8145(5) 0.0286 Uani
O3 O 0.0949(6) 0.1860(6) 0.9921(5) 0.0325 Uani
O6 O 0.0641(8) 0.2522(6) 0.7687(5) 0.0441 Uani
C1 C 0.6527(10) 0.2408(8) 0.8382(7) 0.0303 Uani
H1 H 0.7257 0.2026 0.8786 0.0370 Uiso
C4 C 0.4454(10) 0.2772(8) 0.7720(7) 0.0309 Uani
H4 H 0.3487 0.2714 0.7558 0.0370 Uiso
C5 C 0.6670(11) 0.3471(9) 0.7748(7) 0.0358 Uani
H5 H 0.7502 0.3947 0.7617 0.0430 Uiso
C11 C 0.6521(11) 0.0439(9) 0.6317(7) 0.0368 Uani
H13 H 0.6742 0.1230 0.6533 0.0440 Uiso
C12 C 0.5251(13) 0.4444(9) 0.5372(8) 0.0448 Uani
H14 H 0.4731 0.3709 0.5243 0.0670 Uiso
H15 H 0.6318 0.4233 0.5166 0.0670 Uiso
C13 C 0.4941(12) 0.4750(9) 0.6571(8) 0.0456 Uani
H16 H 0.5492 0.5469 0.6695 0.0540 Uiso
H17 H 0.3880 0.5004 0.6758 0.0540 Uiso
C14 C 0.8134(11) 0.0509(11) 0.4421(8) 0.0480 Uani
H18 H 0.8109 0.1416 0.4527 0.0570 Uiso
H19 H 0.7836 0.0382 0.3688 0.0570 Uiso
N2 N 0.5139(7) 0.1958(7) 0.8354(5) 0.0257 Uani
N6 N 0.5333(8) 0.3716(7) 0.7329(6) 0.0304 Uani
C16 C 0.3473(10) 0.7592(8) 0.1618(7) 0.0303 Uani
H22 H 0.2743 0.7974 0.1214 0.0370 Uiso
C19 C 0.5546(10) 0.7228(8) 0.2280(7) 0.0309 Uani
H25 H 0.6513 0.7286 0.2442 0.0370 Uiso
C20 C 0.3330(11) 0.6529(9) 0.2252(7) 0.0358 Uani
H26 H 0.2498 0.6053 0.2383 0.0430 Uiso
C27 C 0.4749(13) 0.5556(9) 0.4628(8) 0.0448 Uani
H35 H 0.5269 0.6291 0.4757 0.0670 Uiso
H36 H 0.3682 0.5767 0.4834 0.0670 Uiso
C28 C 0.5059(12) 0.5250(9) 0.3429(8) 0.0456 Uani
H37 H 0.4508 0.4531 0.3305 0.0540 Uiso
H38 H 0.6120 0.4996 0.3242 0.0540 Uiso
N9 N 0.4861(7) 0.8042(7) 0.1646(5) 0.0257 Uani
N15 N 0.4667(8) 0.6284(7) 0.2671(6) 0.0304 Uani
C10 C 0.0754(10) 0.5264(9) 0.0007(8) 0.0367 Uani
H11 H 0.0656 0.5917 0.0567 0.0550 Uiso
H12 H 0.1471 0.4593 0.0214 0.0550 Uiso
O10 O 0.7502(6) 0.9457(5) 0.1855(5) 0.0286 Uani
O13 O 0.0611(6) 0.9694(6) 0.1412(5) 0.0405 Uani
C2 C 0.2666(10) 0.7784(8) 0.8745(7) 0.0285 Uani
H2 H 0.1847 0.8333 0.8617 0.0340 Uiso
C3 C 0.4882(10) 0.7049(8) 0.9017(7) 0.0288 Uani
H3 H 0.5891 0.7001 0.9107 0.0350 Uiso
C6 C 0.1315(9) 0.5819(8) 0.8850(8) 0.0322 Uani
H6 H 0.1561 0.5138 0.8317 0.0380 Uiso
H7 H 0.0523 0.6382 0.8592 0.0380 Uiso
C7 C 0.4035(10) 0.6057(8) 0.9045(7) 0.0314 Uani
H8 H 0.4351 0.5210 0.9166 0.0380 Uiso
C8 C 0.6473(11) 0.8800(10) 0.5307(8) 0.0455 Uani
H9 H 0.6639 0.8223 0.4725 0.0550 Uiso
C9 C 0.5602(10) 0.8677(9) 0.6322(8) 0.0375 Uani
H10 H 0.5047 0.7984 0.6543 0.0450 Uiso
C15 C 0.9702(11) 0.9928(12) 0.4443(8) 0.0571 Uani
H21 H 0.9728 0.9032 0.4290 0.0850 Uiso
N1 N 0.4004(7) 0.8157(7) 0.8830(6) 0.0264 Uani
N3 N 0.7055(9) 0.9944(8) 0.5319(6) 0.0388 Uani
N4 N 0.5642(7) 0.9684(7) 0.6970(6) 0.0291 Uani
N5 N 0.2628(8) 0.6517(6) 0.8865(6) 0.0274 Uani
V5 V 0.82517(15) 0.90243(13) 0.89961(12) 0.0232 Uani
O7 O 0.6477(6) 0.9582(5) 0.9477(5) 0.0259 Uani
H41 H 0.9636 0.9683 0.6161 0.0850 Uiso
O5 O 0.9389(6) 0.0306(6) 0.8588(5) 0.0405 Uani
V3 V 0.91284(15) 0.86821(13) 0.14615(12) 0.0239 Uani
O11 O 0.9051(6) 0.8140(6) 0.0079(5) 0.0325 Uani
O14 O 0.9359(8) 0.7478(6) 0.2313(5) 0.0441 Uani
C17 C 0.7334(10) 0.2216(8) 0.1255(7) 0.0285 Uani
H23 H 0.8153 0.1667 0.1383 0.0340 Uiso
C18 C 0.5118(10) 0.2951(8) 0.0983(7) 0.0288 Uani
H24 H 0.4109 0.2999 0.0893 0.0350 Uiso
C21 C 0.8685(9) 0.4181(8) 0.1150(8) 0.0322 Uani
H27 H 0.8439 0.4862 0.1683 0.0380 Uiso
H28 H 0.9477 0.3618 0.1408 0.0380 Uiso
C22 C 0.5965(10) 0.3943(8) 0.0955(7) 0.0314 Uani
H29 H 0.5649 0.4790 0.0834 0.0380 Uiso
N14 N 0.7372(8) 0.3483(6) 0.1135(6) 0.0274 Uani
O12 O 0.8314(7) 0.8105(6) 0.7951(5) 0.0402 Uani
C25 C 0.9246(10) 0.4736(9) 0.9993(8) 0.0367 Uani
H32 H 0.9344 0.4083 0.9433 0.0550 Uiso
H33 H 0.8529 0.5407 0.9786 0.0550 Uiso
loop_
_atom_site_aniso_label
_atom_site_aniso_U_11
_atom_site_aniso_U_22
_atom_site_aniso_U_33
_atom_site_aniso_U_23
_atom_site_aniso_U_13
_atom_site_aniso_U_12
C23 0.046 0.048 0.044 -0.021 -0.002 -0.011
C24 0.035 0.045 0.033 -0.006 0 -0.012
C30 0.041 0.101 0.028 -0.006 0.008 -0.019
N11 0.037 0.052 0.028 -0.004 -0.001 -0.012
N12 0.021 0.038 0.028 0.002 -0.001 -0.006
Co5 0.0167 0.0244 0.024 0.0004 -0.0024 -0.0037
C26 0.044 0.041 0.026 -0.008 -0.002 -0.008
C29 0.039 0.084 0.019 -0.002 0.007 -0.013
V2 0.0158 0.0287 0.0251 -0.0022 -0.0024 -0.0024
O1 0.021 0.027 0.03 0.003 -0.004 -0.005
O4 0.04 0.046 0.036 -0.019 -0.011 0.006
N8 0.016 0.035 0.029 -0.005 -0.002 -0.007
V1 0.0171 0.0267 0.0274 0.0054 -0.0039 -0.0011
Co1 0.0167 0.0244 0.024 0.0004 -0.0024 -0.0037
O2 0.014 0.034 0.038 -0.003 -0.007 0.004
O3 0.026 0.039 0.032 -0.002 -0.009 0.009
O6 0.051 0.041 0.042 0.016 -0.015 -0.006
C1 0.025 0.037 0.03 0.003 -0.009 -0.001
C4 0.032 0.024 0.037 -0.007 -0.003 -0.005
C5 0.043 0.041 0.024 0.006 0 -0.019
C11 0.044 0.041 0.026 -0.008 -0.002 -0.008
C12 0.071 0.036 0.028 0.007 -0.006 -0.013
C13 0.068 0.027 0.043 0.018 -0.013 -0.011
C14 0.039 0.084 0.019 -0.002 0.007 -0.013
N2 0.025 0.032 0.02 0 -0.003 -0.002
N6 0.039 0.028 0.024 0.011 -0.008 0
C16 0.025 0.037 0.03 0.003 -0.009 -0.001
C19 0.032 0.024 0.037 -0.007 -0.003 -0.005
C20 0.043 0.041 0.024 0.006 0 -0.019
C27 0.071 0.036 0.028 0.007 -0.006 -0.013
C28 0.068 0.027 0.043 0.018 -0.013 -0.011
N9 0.025 0.032 0.02 0 -0.003 -0.002
N15 0.039 0.028 0.024 0.011 -0.008 0
C10 0.034 0.036 0.04 0.003 0 -0.013
O10 0.014 0.034 0.038 -0.003 -0.007 0.004
O13 0.022 0.049 0.052 0.009 -0.007 -0.013
C2 0.025 0.019 0.039 -0.002 0.003 0.001
C3 0.03 0.027 0.031 -0.003 -0.006 -0.007
C6 0.025 0.025 0.046 -0.007 0.001 -0.006
C7 0.031 0.026 0.036 -0.001 0.001 -0.006
C8 0.046 0.048 0.044 -0.021 -0.002 -0.011
C9 0.035 0.045 0.033 -0.006 0 -0.012
C15 0.041 0.101 0.028 -0.006 0.008 -0.019
N1 0.016 0.035 0.029 -0.005 -0.002 -0.007
N3 0.037 0.052 0.028 -0.004 -0.001 -0.012
N4 0.021 0.038 0.028 0.002 -0.001 -0.006
N5 0.024 0.026 0.033 -0.002 0 -0.013
V5 0.0158 0.0287 0.0251 -0.0022 -0.0024 -0.0024
O7 0.021 0.027 0.03 0.003 -0.004 -0.005
O5 0.022 0.049 0.052 0.009 -0.007 -0.013
V3 0.0171 0.0267 0.0274 0.0054 -0.0039 -0.0011
O11 0.026 0.039 0.032 -0.002 -0.009 0.009
O14 0.051 0.041 0.042 0.016 -0.015 -0.006
C17 0.025 0.019 0.039 -0.002 0.003 0.001
C18 0.03 0.027 0.031 -0.003 -0.006 -0.007
C21 0.025 0.025 0.046 -0.007 0.001 -0.006
C22 0.031 0.026 0.036 -0.001 0.001 -0.006
N14 0.024 0.026 0.033 -0.002 0 -0.013
O12 0.04 0.046 0.036 -0.019 -0.011 0.006
C25 0.034 0.036 0.04 0.003 0 -0.013
loop_
_geom_bond_atom_site_label_1
_geom_bond_atom_site_label_2
_geom_bond_site_symmetry_1
_geom_bond_site_symmetry_2
C23 H30 1_555 1_555
C24 C23 1_555 1_555
H31 C24 1_555 1_555
H42 C30 1_555 1_555
N11 C23 1_555 1_555
N12 C24 1_555 1_555
C26 H34 1_555 1_555
C29 H39 1_555 1_555
H40 C29 1_555 1_555
V2 O1 1_555 1_555
O4 V2 1_555 1_555
V1 O2 1_555 1_555
O2 Co1 1_555 1_555
O3 V1 1_555 1_555
O6 V1 1_555 1_555
C1 H1 1_555 1_555
C4 H4 1_555 1_555
C5 C1 1_555 1_555
H5 C5 1_555 1_555
C11 H13 1_555 1_555
C12 H14 1_555 1_555
H15 C12 1_555 1_555
C13 C12 1_555 1_555
H16 C13 1_555 1_555
H17 C13 1_555 1_555
C14 H18 1_555 1_555
H19 C14 1_555 1_555
N2 Co1 1_555 1_555
N6 C4 1_555 1_555
Co5 N9 1_555 1_555
C16 H22 1_555 1_555
C19 H25 1_555 1_555
C20 C16 1_555 1_555
H26 C20 1_555 1_555
C27 C12 1_555 1_555
H35 C27 1_555 1_555
H36 C27 1_555 1_555
C28 C27 1_555 1_555
H37 C28 1_555 1_555
H38 C28 1_555 1_555
N9 C16 1_555 1_555
N15 C19 1_555 1_555
C1 N2 1_555 1_555
C4 N2 1_555 1_555
C5 N6 1_555 1_555
C13 N6 1_555 1_555
C19 N9 1_555 1_555
C20 N15 1_555 1_555
C28 N15 1_555 1_555
H11 C10 1_555 1_555
H12 C10 1_555 1_555
O10 Co5 1_555 1_555
C2 H2 1_555 1_555
C3 H3 1_555 1_555
C6 H6 1_555 1_555
H7 C6 1_555 1_555
C7 C3 1_555 1_555
H8 C7 1_555 1_555
C8 H9 1_555 1_555
C9 C8 1_555 1_555
H10 C9 1_555 1_555
H21 C15 1_555 1_555
N3 C8 1_555 1_555
N5 C2 1_555 1_555
V5 O7 1_555 1_555
C2 N1 1_555 1_555
C3 N1 1_555 1_555
C6 N5 1_555 1_555
C7 N5 1_555 1_555
C9 N4 1_555 1_555
V3 O10 1_555 1_555
O11 V3 1_555 1_555
O14 V3 1_555 1_555
C17 H23 1_555 1_555
C18 H24 1_555 1_555
C21 H27 1_555 1_555
H28 C21 1_555 1_555
C22 C18 1_555 1_555
H29 C22 1_555 1_555
N8 C17 1_555 1_555
N14 C17 1_555 1_555
C18 N8 1_555 1_555
C21 N14 1_555 1_555
C22 N14 1_555 1_555
O12 V5 1_555 1_555
H32 C25 1_555 1_555
H33 C25 1_555 1_555

#END
