
###############################################################################
#
# This file contains modified crystal structure data generated from the
# MOF subset of the Cambridge Structural Database (CSD) v543 
# hosted by the Cambridge Crystallographic Data Centre (CCDC).
#
# This work is licensed under the Creative Commons
# Attribution-NonCommercial-ShareAlike 4.0 International License.
# To view a copy of this license, visit
# http://creativecommons.org/licenses/by-nc-sa/4.0/
# or send a letter to
# Creative Commons, PO Box 1866, Mountain View, CA 94042, USA.
#
# CIF created using the CSD Python API on 29 September 2022
# The structure has been converted into the P1 space group
# The structure has a 3D framework
# The original CSD entry VISTUM is in the orthorhombic crystal system
# The framework has been calculated to contain at least 10.0% void space
# The void calculation uses a probe of radius 1.32A, grid spacing 0.4
#
###############################################################################

data_VISTUM
_chemical_formula_moiety         '(C52 H52 Cd19 N44)n'
_symmetry_cell_setting           triclinic
_symmetry_space_group_name_H-M   'P 1'
_symmetry_Int_Tables_number      1
_space_group_name_Hall           'P 1'
loop_
_symmetry_equiv_pos_site_id
_symmetry_equiv_pos_as_xyz
1 x,y,z
_cell_length_a                   21.274(4)
_cell_length_b                   7.782(1)
_cell_length_c                   13.272(5)
_cell_angle_alpha                90
_cell_angle_beta                 90
_cell_angle_gamma                90
_cell_volume                     2197.24
loop_
_atom_site_label
_atom_site_type_symbol
_atom_site_fract_x
_atom_site_fract_y
_atom_site_fract_z
Cd2 Cd 0.5000 0.00000 0.0000
N3 N 0.5000 0.1766(4) 0.1568(3)
N4 N 0.4423(2) 0.3978(4) 0.2500
C3 C 0.5000 0.5027(6) 0.2500
C4 C 0.4436(1) 0.2877(4) 0.1600(2)
C5 C 0.5000 0.0715(6) 0.2500
H1 H 0.5000 0.5828(12) 0.1836(4)
H2 H 0.4468(8) 0.3536(14) 0.0886(5)
H3 H 0.4001(4) 0.2159(14) 0.1631(12)
N5 N 0.5577(2) 0.3978(4) 0.2500
C6 C 0.5564(1) 0.2877(4) 0.1600(2)
N6 N 0.5000 0.1766(4) 0.3432(3)
C7 C 0.5564(1) 0.2877(4) 0.3400(2)
H5 H 0.5532(8) 0.3536(14) 0.4114(5)
H6 H 0.5999(4) 0.2159(14) 0.3369(12)
C8 C 0.4436(1) 0.2877(4) 0.3400(2)
H7 H 0.4468(8) 0.3536(14) 0.4114(5)
H8 H 0.4001(4) 0.2159(14) 0.3369(12)
H10 H 0.5532(8) 0.3536(14) 0.0886(5)
H11 H 0.5999(4) 0.2159(14) 0.1631(12)
H12 H 0.5000 0.5828(12) 0.3164(4)
Cd5 Cd 0.34236(2) 0.62203(4) 0.2500
Cd6 Cd 0.65764(2) 0.62203(4) 0.2500
Cd7 Cd 0.5000 0.00000 0.5000
Cd1 Cd 0.34236(2) 0.37797(4) 0.7500
Cd2_2 Cd 0.5000 0.00000 1.0000
C1 C 0.2851 0.6081(6) 0.7500
N1 N 0.2463(3) 0.7086(7) 0.7500
C2 C 0.3928(2) 0.2554(5) 0.8789(2)
N2 N 0.4246(2) 0.1774(4) 0.9297(2)
C9 C 0.6072(2) 0.2554(5) 0.8789(2)
N7 N 0.5754(2) 0.1774(4) 0.9297(2)
Cd3 Cd 0.65764(2) 0.37797(4) 0.7500
C12 C 0.2149 0.1081(6) 0.7500
N10 N 0.2537(3) 0.2086(7) 0.7500
C13 C 0.3928(2) 0.2554(5) 0.6211(2)
N11 N 0.4423(2) 0.6022(4) 0.7500
Cd4 Cd 0.15764(2) 0.87797(4) 0.7500
C14 C 0.7149 0.6081(6) 0.7500
N13 N 0.7463(3) 0.2086(7) 0.7500
C15 C 0.6072(2) 0.2554(5) 0.6211(2)
N14 N 0.5577(2) 0.6022(4) 0.7500
Cd2_3 Cd 0.5000 1.00000 0.0000
H4 H 0.5415(3) 0.9914(12) 0.2500
H9 H 0.4585(3) 0.9914(12) 0.2500
C10 C 0.6072(2) 0.7446(5) 0.1211(2)
N8 N 0.5754(2) 0.8226(4) 0.0703(2)
C11 C 0.3928(2) 0.7446(5) 0.1211(2)
N9 N 0.4246(2) 0.8226(4) 0.0703(2)
Cd7_2 Cd 0.5000 1.00000 0.5000
Cd2_4 Cd 0.5000 1.00000 1.0000
N12 N 0.5000 0.8234(4) 0.8432(3)
C3_2 C 0.0000 0.0027(6) 0.2500
H1_2 H 0.0000 0.0828(12) 0.1836(4)
H12_2 H 0.0000 0.0828(12) 0.3164(4)
Cd6_2 Cd 0.15764(2) 0.12203(4) 0.2500
N14_2 N 0.0577(2) 0.1022(4) 0.7500
Cd2_5 Cd 0.0000 0.50000 0.0000
N3_2 N 0.0000 0.6766(4) 0.1568(3)
C5_2 C 0.0000 0.5715(6) 0.2500
H4_2 H 0.0415(3) 0.4914(12) 0.2500
N5_2 N 0.0577(2) 0.8978(4) 0.2500
C6_2 C 0.0564(1) 0.7877(4) 0.1600(2)
N6_2 N 0.0000 0.6766(4) 0.3432(3)
C7_2 C 0.0564(1) 0.7877(4) 0.3400(2)
H5_2 H 0.0532(8) 0.8536(14) 0.4114(5)
H6_2 H 0.0999(4) 0.7159(14) 0.3369(12)
H10_2 H 0.0532(8) 0.8536(14) 0.0886(5)
H11_2 H 0.0999(4) 0.7159(14) 0.1631(12)
C10_2 C 0.1072(2) 0.2446(5) 0.1211(2)
N8_2 N 0.0754(2) 0.3226(4) 0.0703(2)
Cd7_3 Cd 0.0000 0.50000 0.5000
Cd2_6 Cd 0.0000 0.50000 1.0000
C9_2 C 0.1072(2) 0.7554(5) 0.8789(2)
N7_2 N 0.0754(2) 0.6774(4) 0.9297(2)
N12_2 N 0.0000 0.3234(4) 0.8432(3)
C15_2 C 0.1072(2) 0.7554(5) 0.6211(2)
C3_3 C 1.0000 0.0027(6) 0.2500
H1_3 H 1.0000 0.0828(12) 0.1836(4)
H12_3 H 1.0000 0.0828(12) 0.3164(4)
Cd5_2 Cd 0.84236(2) 0.12203(4) 0.2500
C1_2 C 0.7851 0.1081(6) 0.7500
N11_2 N 0.9423(2) 0.1022(4) 0.7500
Cd2_7 Cd 1.0000 0.50000 0.0000
N3_3 N 1.0000 0.6766(4) 0.1568(3)
N4_2 N 0.9423(2) 0.8978(4) 0.2500
C4_2 C 0.9436(1) 0.7877(4) 0.1600(2)
C5_3 C 1.0000 0.5715(6) 0.2500
H2_2 H 0.9468(8) 0.8536(14) 0.0886(5)
H3_2 H 0.9001(4) 0.7159(14) 0.1631(12)
N6_3 N 1.0000 0.6766(4) 0.3432(3)
C8_2 C 0.9436(1) 0.7877(4) 0.3400(2)
H7_2 H 0.9468(8) 0.8536(14) 0.4114(5)
H8_2 H 0.9001(4) 0.7159(14) 0.3369(12)
H9_2 H 0.9585(3) 0.4914(12) 0.2500
C11_2 C 0.8928(2) 0.2446(5) 0.1211(2)
N9_2 N 0.9246(2) 0.3226(4) 0.0703(2)
Cd7_4 Cd 1.0000 0.50000 0.5000
Cd1_2 Cd 0.84236(2) 0.87797(4) 0.7500
Cd2_8 Cd 1.0000 0.50000 1.0000
C2_2 C 0.8928(2) 0.7554(5) 0.8789(2)
N2_2 N 0.9246(2) 0.6774(4) 0.9297(2)
N10_2 N 0.7537(3) 0.7086(7) 0.7500
C13_2 C 0.8928(2) 0.7554(5) 0.6211(2)
N12_3 N 1.0000 0.3234(4) 0.8432(3)
H4_3 H 0.5415(3) 0.0086(12) 0.7500
H9_3 H 0.4585(3) 0.0086(12) 0.7500
N8_3 N 0.5754(2) 0.1774(4) 0.5703(2)
N9_3 N 0.4246(2) 0.1774(4) 0.5703(2)
C1_3 C 0.2851 0.3919(6) 0.2500
N1_2 N 0.2463(3) 0.2914(7) 0.2500
C2_3 C 0.3928(2) 0.7446(5) 0.3789(2)
N2_3 N 0.4246(2) 0.8226(4) 0.4297(2)
N3_4 N 0.5000 0.8234(4) 0.6568(3)
C3_4 C 0.5000 0.4973(6) 0.7500
C4_3 C 0.4436(1) 0.7123(4) 0.6600(2)
C5_4 C 0.5000 0.9285(6) 0.7500
H1_4 H 0.5000 0.4172(12) 0.6836(4)
H2_3 H 0.4468(8) 0.6464(14) 0.5886(5)
H3_3 H 0.4001(4) 0.7841(14) 0.6631(12)
C6_3 C 0.5564(1) 0.7123(4) 0.6600(2)
C7_3 C 0.5564(1) 0.7123(4) 0.8400(2)
H5_3 H 0.5532(8) 0.6464(14) 0.9114(5)
H6_3 H 0.5999(4) 0.7841(14) 0.8369(12)
C8_3 C 0.4436(1) 0.7123(4) 0.8400(2)
H7_3 H 0.4468(8) 0.6464(14) 0.9114(5)
H8_3 H 0.4001(4) 0.7841(14) 0.8369(12)
H10_3 H 0.5532(8) 0.6464(14) 0.5886(5)
H11_3 H 0.5999(4) 0.7841(14) 0.6631(12)
H12_4 H 0.5000 0.4172(12) 0.8164(4)
C9_3 C 0.6072(2) 0.7446(5) 0.3789(2)
N7_3 N 0.5754(2) 0.8226(4) 0.4297(2)
C12_2 C 0.2149 0.8919(6) 0.2500
N10_3 N 0.2537(3) 0.7914(7) 0.2500
C14_2 C 0.7149 0.3919(6) 0.2500
N13_2 N 0.7463(3) 0.7914(7) 0.2500
N3_5 N 0.0000 0.3234(4) 0.6568(3)
C5_5 C 0.0000 0.4285(6) 0.7500
H4_4 H 0.0415(3) 0.5086(12) 0.7500
C6_4 C 0.0564(1) 0.2123(4) 0.6600(2)
C7_4 C 0.0564(1) 0.2123(4) 0.8400(2)
H5_4 H 0.0532(8) 0.1464(14) 0.9114(5)
H6_4 H 0.0999(4) 0.2841(14) 0.8369(12)
H10_4 H 0.0532(8) 0.1464(14) 0.5886(5)
H11_4 H 0.0999(4) 0.2841(14) 0.6631(12)
C9_4 C 0.1072(2) 0.2446(5) 0.3789(2)
N7_4 N 0.0754(2) 0.3226(4) 0.4297(2)
N8_4 N 0.0754(2) 0.6774(4) 0.5703(2)
C3_5 C 0.0000 0.9973(6) 0.7500
H1_5 H 0.0000 0.9172(12) 0.6836(4)
H12_5 H 0.0000 0.9172(12) 0.8164(4)
C2_4 C 0.8928(2) 0.2446(5) 0.3789(2)
N2_4 N 0.9246(2) 0.3226(4) 0.4297(2)
N3_6 N 1.0000 0.3234(4) 0.6568(3)
C4_4 C 0.9436(1) 0.2123(4) 0.6600(2)
C5_6 C 1.0000 0.4285(6) 0.7500
H2_4 H 0.9468(8) 0.1464(14) 0.5886(5)
H3_4 H 0.9001(4) 0.2841(14) 0.6631(12)
C8_4 C 0.9436(1) 0.2123(4) 0.8400(2)
H7_4 H 0.9468(8) 0.1464(14) 0.9114(5)
H8_4 H 0.9001(4) 0.2841(14) 0.8369(12)
H9_4 H 0.9585(3) 0.5086(12) 0.7500
N9_4 N 0.9246(2) 0.6774(4) 0.5703(2)
N10_4 N 0.7537(3) 0.2914(7) 0.2500
C1_4 C 0.7851 0.8919(6) 0.2500
C3_6 C 1.0000 0.9973(6) 0.7500
H1_6 H 1.0000 0.9172(12) 0.6836(4)
H12_6 H 1.0000 0.9172(12) 0.8164(4)
loop_
_geom_bond_atom_site_label_1
_geom_bond_atom_site_label_2
_geom_bond_site_symmetry_1
_geom_bond_site_symmetry_2
N3 Cd2 1_555 1_555
N4 C3 1_555 1_555
C3 H1 1_555 1_555
C4 N3 1_555 1_555
C5 N3 1_555 1_555
H2 C4 1_555 1_555
H3 C4 1_555 1_555
N5 C3 1_555 1_555
C6 N3 1_555 1_555
N6 C5 1_555 1_555
C7 N5 1_555 1_555
H5 C7 1_555 1_555
H6 C7 1_555 1_555
C8 N4 1_555 1_555
H7 C8 1_555 1_555
H8 C8 1_555 1_555
H10 C6 1_555 1_555
H11 C6 1_555 1_555
H12 C3 1_555 1_555
Cd5 N4 1_555 1_555
Cd6 N5 1_555 1_555
Cd7 N6 1_555 1_555
N4 C4 1_555 1_555
N5 C6 1_555 1_555
N6 C7 1_555 1_555
N6 C8 1_555 1_555
Cd1 C1 1_555 1_555
Cd2_2 N2 1_555 1_555
C1 N1 1_555 1_555
N1 Cd4 1_555 1_555
C2 Cd1 1_555 1_555
N2 C2 1_555 1_555
C9 N7 1_555 1_555
N7 Cd2_2 1_555 1_555
Cd3 C9 1_555 1_555
C12 N10 1_555 1_555
N10 Cd1 1_555 1_555
C13 Cd1 1_555 1_555
N11 Cd1 1_555 1_555
C14 Cd3 1_555 1_555
N13 Cd3 1_555 1_555
C15 Cd3 1_555 1_555
N14 Cd3 1_555 1_555
C10 N8 1_555 1_555
N8 Cd2_3 1_555 1_555
C11 N9 1_555 1_555
N9 Cd2_3 1_555 1_555
Cd6 C10 1_555 1_555
Cd5 C11 1_555 1_555
N12 Cd2_4 1_555 1_555
C3_2 H1_2 1_555 1_555
H12_2 C3_2 1_555 1_555
N3_2 Cd2_5 1_555 1_555
C5_2 N3_2 1_555 1_555
H4_2 C5_2 1_555 1_555
C6_2 N3_2 1_555 1_555
N6_2 C5_2 1_555 1_555
C7_2 N5_2 1_555 1_555
H5_2 C7_2 1_555 1_555
H6_2 C7_2 1_555 1_555
H10_2 C6_2 1_555 1_555
H11_2 C6_2 1_555 1_555
C10_2 N8_2 1_555 1_555
N8_2 Cd2_5 1_555 1_555
Cd7_3 N6_2 1_555 1_555
Cd6_2 C10_2 1_555 1_555
N5_2 C6_2 1_555 1_555
N6_2 C7_2 1_555 1_555
C9_2 N7_2 1_555 1_555
N7_2 Cd2_6 1_555 1_555
Cd4 C9_2 1_555 1_555
N12_2 Cd2_6 1_555 1_555
C15_2 Cd4 1_555 1_555
C3_3 H1_3 1_555 1_555
H12_3 C3_3 1_555 1_555
C1_2 N13 1_555 1_555
N3_3 Cd2_7 1_555 1_555
C4_2 N3_3 1_555 1_555
C5_3 N3_3 1_555 1_555
H2_2 C4_2 1_555 1_555
H3_2 C4_2 1_555 1_555
N6_3 C5_3 1_555 1_555
C8_2 N4_2 1_555 1_555
H7_2 C8_2 1_555 1_555
H8_2 C8_2 1_555 1_555
H9_2 C5_3 1_555 1_555
C11_2 N9_2 1_555 1_555
N9_2 Cd2_7 1_555 1_555
Cd7_4 N6_3 1_555 1_555
Cd5_2 C11_2 1_555 1_555
N4_2 C4_2 1_555 1_555
N6_3 C8_2 1_555 1_555
Cd2_8 N2_2 1_555 1_555
C2_2 Cd1_2 1_555 1_555
N2_2 C2_2 1_555 1_555
C14 N10_2 1_555 1_555
N10_2 Cd1_2 1_555 1_555
C13_2 Cd1_2 1_555 1_555
N12_3 Cd2_8 1_555 1_555
C15 N8_3 1_555 1_555
N8_3 Cd7 1_555 1_555
C13 N9_3 1_555 1_555
N9_3 Cd7 1_555 1_555
Cd5 C1_3 1_555 1_555
Cd7_2 N2_3 1_555 1_555
C1_3 N1_2 1_555 1_555
N1_2 Cd6_2 1_555 1_555
C2_3 Cd5 1_555 1_555
N2_3 C2_3 1_555 1_555
N3_4 Cd7_2 1_555 1_555
N11 C3_4 1_555 1_555
C3_4 H1_4 1_555 1_555
C4_3 N3_4 1_555 1_555
C5_4 N3_4 1_555 1_555
H2_3 C4_3 1_555 1_555
H3_3 C4_3 1_555 1_555
N14 C3_4 1_555 1_555
C6_3 N3_4 1_555 1_555
N12 C5_4 1_555 1_555
C7_3 N14 1_555 1_555
H5_3 C7_3 1_555 1_555
H6_3 C7_3 1_555 1_555
C8_3 N11 1_555 1_555
H7_3 C8_3 1_555 1_555
H8_3 C8_3 1_555 1_555
H10_3 C6_3 1_555 1_555
H11_3 C6_3 1_555 1_555
H12_4 C3_4 1_555 1_555
C9_3 N7_3 1_555 1_555
N7_3 Cd7_2 1_555 1_555
Cd6 C9_3 1_555 1_555
C12_2 N10_3 1_555 1_555
N10_3 Cd5 1_555 1_555
C14_2 Cd6 1_555 1_555
N13_2 Cd6 1_555 1_555
N11 C4_3 1_555 1_555
N14 C6_3 1_555 1_555
N12 C7_3 1_555 1_555
N12 C8_3 1_555 1_555
N3_5 Cd7_3 1_555 1_555
C5_5 N3_5 1_555 1_555
H4_4 C5_5 1_555 1_555
C6_4 N3_5 1_555 1_555
N12_2 C5_5 1_555 1_555
C7_4 N14_2 1_555 1_555
H5_4 C7_4 1_555 1_555
H6_4 C7_4 1_555 1_555
H10_4 C6_4 1_555 1_555
H11_4 C6_4 1_555 1_555
C9_4 N7_4 1_555 1_555
N7_4 Cd7_3 1_555 1_555
C15_2 N8_4 1_555 1_555
N8_4 Cd7_3 1_555 1_555
Cd6_2 C9_4 1_555 1_555
N14_2 C6_4 1_555 1_555
N12_2 C7_4 1_555 1_555
C3_5 H1_5 1_555 1_555
H12_5 C3_5 1_555 1_555
Cd7_4 N2_4 1_555 1_555
C2_4 Cd5_2 1_555 1_555
N2_4 C2_4 1_555 1_555
N3_6 Cd7_4 1_555 1_555
C4_4 N3_6 1_555 1_555
C5_6 N3_6 1_555 1_555
H2_4 C4_4 1_555 1_555
H3_4 C4_4 1_555 1_555
N12_3 C5_6 1_555 1_555
C8_4 N11_2 1_555 1_555
H7_4 C8_4 1_555 1_555
H8_4 C8_4 1_555 1_555
H9_4 C5_6 1_555 1_555
C13_2 N9_4 1_555 1_555
N9_4 Cd7_4 1_555 1_555
C14_2 N10_4 1_555 1_555
N10_4 Cd5_2 1_555 1_555
N11_2 C4_4 1_555 1_555
N12_3 C8_4 1_555 1_555
C1_4 N13_2 1_555 1_555
C3_6 H1_6 1_555 1_555
H12_6 C3_6 1_555 1_555

#END
