
###############################################################################
#
# This file contains modified crystal structure data generated from the
# MOF subset of the Cambridge Structural Database (CSD) v543 
# hosted by the Cambridge Crystallographic Data Centre (CCDC).
#
# This work is licensed under the Creative Commons
# Attribution-NonCommercial-ShareAlike 4.0 International License.
# To view a copy of this license, visit
# http://creativecommons.org/licenses/by-nc-sa/4.0/
# or send a letter to
# Creative Commons, PO Box 1866, Mountain View, CA 94042, USA.
#
# CIF created using the CSD Python API on 29 September 2022
# The structure has been converted into the P1 space group
# The structure has a 3D framework
# The original CSD entry VISYUU is in the tetragonal crystal system
# The framework has been calculated to contain at least 10.0% void space
# The void calculation uses a probe of radius 1.32A, grid spacing 0.4
# H atom positions have been added when not included in the experimental data
# Generated hydrogen atom positions removed from atoms on special positions
#
###############################################################################

data_VISYUU
_chemical_formula_moiety         '(C372 H384 N26 O126 Zr28)n'
_symmetry_cell_setting           triclinic
_symmetry_space_group_name_H-M   'P 1'
_symmetry_Int_Tables_number      1
_space_group_name_Hall           'P 1'
loop_
_symmetry_equiv_pos_site_id
_symmetry_equiv_pos_as_xyz
1 x,y,z
_cell_length_a                   20.7442(2)
_cell_length_b                   20.7442(2)
_cell_length_c                   66.4456(7)
_cell_angle_alpha                90
_cell_angle_beta                 90
_cell_angle_gamma                90
_cell_volume                     28593
loop_
_atom_site_label
_atom_site_type_symbol
_atom_site_fract_x
_atom_site_fract_y
_atom_site_fract_z
_atom_site_U_iso_or_equiv
_atom_site_thermal_displace_type
C1 C 0.0636(5) 0.500 0.000 0.1267 Uiso
C2 C 0.0318(2) 0.4507(5) 0.0077(2) 0.1267 Uiso
C3 C 0.1404(7) 0.500 0.000 0.1267 Uiso
C4 C 0.1753(7) 0.4703(11) 0.0164(2) 0.1267 Uiso
C5 C 0.2423(7) 0.4726(10) 0.01515(18) 0.1267 Uiso
C6 C 0.2854(8) 0.441(2) 0.0325(4) 0.1267 Uiso
C7 C 0.3370(8) 0.3996(19) 0.0275(7) 0.1267 Uiso
C8 C 0.3752(8) 0.372(3) 0.0428(8) 0.1267 Uiso
C9 C 0.3617(8) 0.386(4) 0.0633(8) 0.1267 Uiso
C10 C 0.3101(8) 0.427(5) 0.0683(5) 0.1267 Uiso
C11 C 0.2719(8) 0.455(4) 0.0530(3) 0.1267 Uiso
C12 C 0.3969(8) 0.360(5) 0.0775(9) 0.1267 Uiso
O1 O 0.4460(11) 0.317(5) 0.0725(12) 0.1267 Uiso
O2 O 0.3854(11) 0.376(7) 0.0976(8) 0.1267 Uiso
H1 H 0.0543(2) 0.4158(7) 0.0131(4) 0.1520 Uiso
H2 H 0.1527(7) 0.4511(18) 0.0270(3) 0.1520 Uiso
H3 H 0.3459(9) 0.3905(11) 0.0140(7) 0.1520 Uiso
H4 H 0.4093(9) 0.344(3) 0.0395(10) 0.1520 Uiso
H5 H 0.3012(9) 0.436(6) 0.0818(4) 0.1520 Uiso
H6 H 0.2378(9) 0.482(4) 0.05630(16) 0.1520 Uiso
N1 N 0.2751(12) 0.500 0.000 0.1267 Uiso
Zr1 Zr 0.500 0.250 0.08925(11) 0.0797 Uiso
Zr2 Zr 0.41608(16) 0.33392(16) 0.125 0.0797 Uiso
O3 O 0.4101(17) 0.250 0.1036(5) 0.1267 Uiso
O4 O 0.500 0.3417(17) 0.1067(5) 0.1267 Uiso
O5 O 0.2970(7) 0.3015(7) 0.1204(3) 0.1267 Uiso
O14 O 0.4485(7) 0.4530(7) 0.1296(3) 0.1267 Uiso
O15 O 0.500 0.1583(17) 0.1067(5) 0.1267 Uiso
O17 O 0.5540(11) 0.317(5) 0.0725(12) 0.1267 Uiso
O18 O 0.5540(11) 0.183(5) 0.0725(12) 0.1267 Uiso
O19 O 0.4460(11) 0.183(5) 0.0725(12) 0.1267 Uiso
O20 O 0.374(7) 0.3646(11) 0.1524(8) 0.1267 Uiso
Zr7 Zr 0.58392(16) 0.33392(16) 0.125 0.0797 Uiso
Zr8 Zr 0.41608(16) 0.16608(16) 0.125 0.0797 Uiso
Zr10 Zr 0.58392(16) 0.16608(16) 0.125 0.0797 Uiso
O22 O 0.5899(17) 0.250 0.1036(5) 0.1267 Uiso
O24 O 0.500 0.3399(17) 0.1464(5) 0.1267 Uiso
O26 O 0.4083(17) 0.250 0.1433(5) 0.1267 Uiso
C1_2 C 0.0636(5) 0.500 1.000 0.1267 Uiso
C3_2 C 0.1404(7) 0.500 1.000 0.1267 Uiso
N1_2 N 0.2751(12) 0.500 1.000 0.1267 Uiso
C25 C 0.0318(2) 0.5493(5) 0.9923(2) 0.1267 Uiso
C26 C 0.1753(7) 0.5297(11) 0.9836(2) 0.1267 Uiso
C27 C 0.2423(7) 0.5274(10) 0.98485(18) 0.1267 Uiso
C28 C 0.2854(8) 0.559(2) 0.9675(4) 0.1267 Uiso
C29 C 0.3370(8) 0.6004(19) 0.9725(7) 0.1267 Uiso
C30 C 0.3752(8) 0.628(3) 0.9572(8) 0.1267 Uiso
C31 C 0.3617(8) 0.614(4) 0.9367(8) 0.1267 Uiso
C32 C 0.3101(8) 0.573(5) 0.9317(5) 0.1267 Uiso
C33 C 0.2719(8) 0.545(4) 0.9470(3) 0.1267 Uiso
C34 C 0.3969(8) 0.640(5) 0.9225(9) 0.1267 Uiso
O8 O 0.4460(11) 0.683(5) 0.9275(12) 0.1267 Uiso
O9 O 0.3854(11) 0.624(7) 0.9024(8) 0.1267 Uiso
H13 H 0.0543(2) 0.5842(7) 0.9869(4) 0.1520 Uiso
H14 H 0.1527(7) 0.5489(18) 0.9730(3) 0.1520 Uiso
H15 H 0.3459(9) 0.6095(11) 0.9860(7) 0.1520 Uiso
H16 H 0.4093(9) 0.656(3) 0.9605(10) 0.1520 Uiso
H17 H 0.3012(9) 0.564(6) 0.9182(4) 0.1520 Uiso
H18 H 0.2378(9) 0.518(4) 0.94370(16) 0.1520 Uiso
Zr6 Zr 0.500 0.750 0.91075(11) 0.0797 Uiso
Zr11 Zr 0.41608(16) 0.66608(16) 0.875 0.0797 Uiso
C13 C 0.9364(5) 0.500 0.000 0.1267 Uiso
C14 C 0.9682(2) 0.4507(5) 0.0077(2) 0.1267 Uiso
C15 C 0.8596(7) 0.500 0.000 0.1267 Uiso
C16 C 0.8247(7) 0.4703(11) 0.0164(2) 0.1267 Uiso
C17 C 0.7577(7) 0.4726(10) 0.01515(18) 0.1267 Uiso
C18 C 0.7146(8) 0.441(2) 0.0325(4) 0.1267 Uiso
C19 C 0.6630(8) 0.3996(19) 0.0275(7) 0.1267 Uiso
C20 C 0.6248(8) 0.372(3) 0.0428(8) 0.1267 Uiso
C21 C 0.6383(8) 0.386(4) 0.0633(8) 0.1267 Uiso
C22 C 0.6899(8) 0.427(5) 0.0683(5) 0.1267 Uiso
C23 C 0.7281(8) 0.455(4) 0.0530(3) 0.1267 Uiso
C24 C 0.6031(8) 0.360(5) 0.0775(9) 0.1267 Uiso
O7 O 0.6146(11) 0.376(7) 0.0976(8) 0.1267 Uiso
H7 H 0.9457(2) 0.4158(7) 0.0131(4) 0.1520 Uiso
H8 H 0.8473(7) 0.4511(18) 0.0270(3) 0.1520 Uiso
H9 H 0.6541(9) 0.3905(11) 0.0140(7) 0.1520 Uiso
H10 H 0.5907(9) 0.344(3) 0.0395(10) 0.1520 Uiso
H11 H 0.6988(9) 0.436(6) 0.0818(4) 0.1520 Uiso
H12 H 0.7622(9) 0.482(4) 0.05630(16) 0.1520 Uiso
N2 N 0.7249(12) 0.500 0.000 0.1267 Uiso
O13 O 0.7030(7) 0.3015(7) 0.1204(3) 0.1267 Uiso
O16 O 0.5515(7) 0.4530(7) 0.1296(3) 0.1267 Uiso
O21 O 0.626(7) 0.3646(11) 0.1524(8) 0.1267 Uiso
O27 O 0.5917(17) 0.250 0.1433(5) 0.1267 Uiso
C13_2 C 0.9364(5) 0.500 1.000 0.1267 Uiso
C15_2 C 0.8596(7) 0.500 1.000 0.1267 Uiso
N2_2 N 0.7249(12) 0.500 1.000 0.1267 Uiso
C35 C 0.9682(2) 0.5493(5) 0.9923(2) 0.1267 Uiso
C36 C 0.8247(7) 0.5297(11) 0.9836(2) 0.1267 Uiso
C37 C 0.7577(7) 0.5274(10) 0.98485(18) 0.1267 Uiso
C38 C 0.7146(8) 0.559(2) 0.9675(4) 0.1267 Uiso
C39 C 0.6630(8) 0.6004(19) 0.9725(7) 0.1267 Uiso
C40 C 0.6248(8) 0.628(3) 0.9572(8) 0.1267 Uiso
C41 C 0.6383(8) 0.614(4) 0.9367(8) 0.1267 Uiso
C42 C 0.6899(8) 0.573(5) 0.9317(5) 0.1267 Uiso
C43 C 0.7281(8) 0.545(4) 0.9470(3) 0.1267 Uiso
C44 C 0.6031(8) 0.640(5) 0.9225(9) 0.1267 Uiso
O10 O 0.5540(11) 0.683(5) 0.9275(12) 0.1267 Uiso
O11 O 0.6146(11) 0.624(7) 0.9024(8) 0.1267 Uiso
H19 H 0.9457(2) 0.5842(7) 0.9869(4) 0.1520 Uiso
H20 H 0.8473(7) 0.5489(18) 0.9730(3) 0.1520 Uiso
H21 H 0.6541(9) 0.6095(11) 0.9860(7) 0.1520 Uiso
H22 H 0.5907(9) 0.656(3) 0.9605(10) 0.1520 Uiso
H23 H 0.6988(9) 0.564(6) 0.9182(4) 0.1520 Uiso
H24 H 0.7622(9) 0.518(4) 0.94370(16) 0.1520 Uiso
Zr12 Zr 0.58392(16) 0.66608(16) 0.875 0.0797 Uiso
Zr4 Zr -0.000 0.750 0.58925(11) 0.0797 Uiso
Zr5 Zr -0.000 0.250 0.41075(11) 0.0797 Uiso
O23 O -0.000 0.6601(17) 0.6464(5) 0.1267 Uiso
O25 O -0.000 0.6583(17) 0.6067(5) 0.1267 Uiso
C1_3 C 0.4364(5) 0.500 0.500 0.1267 Uiso
C2_2 C 0.4682(2) 0.5493(5) 0.5077(2) 0.1267 Uiso
C3_3 C 0.3596(7) 0.500 0.500 0.1267 Uiso
C4_2 C 0.3247(7) 0.5297(11) 0.5164(2) 0.1267 Uiso
C5_2 C 0.2577(7) 0.5274(10) 0.51515(18) 0.1267 Uiso
C6_2 C 0.2146(8) 0.559(2) 0.5325(4) 0.1267 Uiso
C7_2 C 0.1630(8) 0.6004(19) 0.5275(7) 0.1267 Uiso
C8_2 C 0.1248(8) 0.628(3) 0.5428(8) 0.1267 Uiso
C9_2 C 0.1383(8) 0.614(4) 0.5633(8) 0.1267 Uiso
C10_2 C 0.1899(8) 0.573(5) 0.5683(5) 0.1267 Uiso
C11_2 C 0.2281(8) 0.545(4) 0.5530(3) 0.1267 Uiso
C12_2 C 0.1031(8) 0.640(5) 0.5775(9) 0.1267 Uiso
O1_2 O 0.0540(11) 0.683(5) 0.5725(12) 0.1267 Uiso
O2_2 O 0.1146(11) 0.624(7) 0.5976(8) 0.1267 Uiso
H1_2 H 0.4457(2) 0.5842(7) 0.5131(4) 0.1520 Uiso
H2_2 H 0.3473(7) 0.5489(18) 0.5270(3) 0.1520 Uiso
H3_2 H 0.1541(9) 0.6095(11) 0.5140(7) 0.1520 Uiso
H4_2 H 0.0907(9) 0.656(3) 0.5395(10) 0.1520 Uiso
H5_2 H 0.1988(9) 0.564(6) 0.5818(4) 0.1520 Uiso
H6_2 H 0.2622(9) 0.518(4) 0.55630(16) 0.1520 Uiso
N1_3 N 0.2249(12) 0.500 0.500 0.1267 Uiso
Zr2_2 Zr 0.08392(16) 0.66608(16) 0.625 0.0797 Uiso
O3_2 O 0.0899(17) 0.750 0.6036(5) 0.1267 Uiso
O5_2 O 0.2030(7) 0.6985(7) 0.6204(3) 0.1267 Uiso
C13_3 C 0.5636(5) 0.500 0.500 0.1267 Uiso
C14_2 C 0.5318(2) 0.5493(5) 0.5077(2) 0.1267 Uiso
C15_3 C 0.6404(7) 0.500 0.500 0.1267 Uiso
C16_2 C 0.6753(7) 0.5297(11) 0.5164(2) 0.1267 Uiso
C17_2 C 0.7423(7) 0.5274(10) 0.51515(18) 0.1267 Uiso
C18_2 C 0.7854(8) 0.559(2) 0.5325(4) 0.1267 Uiso
C19_2 C 0.8370(8) 0.6004(19) 0.5275(7) 0.1267 Uiso
C20_2 C 0.8752(8) 0.628(3) 0.5428(8) 0.1267 Uiso
C21_2 C 0.8617(8) 0.614(4) 0.5633(8) 0.1267 Uiso
C22_2 C 0.8101(8) 0.573(5) 0.5683(5) 0.1267 Uiso
C23_2 C 0.7719(8) 0.545(4) 0.5530(3) 0.1267 Uiso
C24_2 C 0.8969(8) 0.640(5) 0.5775(9) 0.1267 Uiso
O6 O 0.9460(11) 0.683(5) 0.5725(12) 0.1267 Uiso
O7_2 O 0.8854(11) 0.624(7) 0.5976(8) 0.1267 Uiso
H7_2 H 0.5543(2) 0.5842(7) 0.5131(4) 0.1520 Uiso
H8_2 H 0.6527(7) 0.5489(18) 0.5270(3) 0.1520 Uiso
H9_2 H 0.8459(9) 0.6095(11) 0.5140(7) 0.1520 Uiso
H10_2 H 0.9093(9) 0.656(3) 0.5395(10) 0.1520 Uiso
H11_2 H 0.8012(9) 0.564(6) 0.5818(4) 0.1520 Uiso
H12_2 H 0.7378(9) 0.518(4) 0.55630(16) 0.1520 Uiso
N2_3 N 0.7751(12) 0.500 0.500 0.1267 Uiso
C25_2 C 0.4682(2) 0.4507(5) 0.4923(2) 0.1267 Uiso
C26_2 C 0.3247(7) 0.4703(11) 0.4836(2) 0.1267 Uiso
C27_2 C 0.2577(7) 0.4726(10) 0.48485(18) 0.1267 Uiso
C28_2 C 0.2146(8) 0.441(2) 0.4675(4) 0.1267 Uiso
C29_2 C 0.1630(8) 0.3996(19) 0.4725(7) 0.1267 Uiso
C30_2 C 0.1248(8) 0.372(3) 0.4572(8) 0.1267 Uiso
C31_2 C 0.1383(8) 0.386(4) 0.4367(8) 0.1267 Uiso
C32_2 C 0.1899(8) 0.427(5) 0.4317(5) 0.1267 Uiso
C33_2 C 0.2281(8) 0.455(4) 0.4470(3) 0.1267 Uiso
C34_2 C 0.1031(8) 0.360(5) 0.4225(9) 0.1267 Uiso
O8_2 O 0.0540(11) 0.317(5) 0.4275(12) 0.1267 Uiso
O9_2 O 0.1146(11) 0.376(7) 0.4024(8) 0.1267 Uiso
H13_2 H 0.4457(2) 0.4158(7) 0.4869(4) 0.1520 Uiso
H14_2 H 0.3473(7) 0.4511(18) 0.4730(3) 0.1520 Uiso
H15_2 H 0.1541(9) 0.3905(11) 0.4860(7) 0.1520 Uiso
H16_2 H 0.0907(9) 0.344(3) 0.4605(10) 0.1520 Uiso
H17_2 H 0.1988(9) 0.436(6) 0.4182(4) 0.1520 Uiso
H18_2 H 0.2622(9) 0.482(4) 0.44370(16) 0.1520 Uiso
C35_2 C 0.5318(2) 0.4507(5) 0.4923(2) 0.1267 Uiso
C36_2 C 0.6753(7) 0.4703(11) 0.4836(2) 0.1267 Uiso
C37_2 C 0.7423(7) 0.4726(10) 0.48485(18) 0.1267 Uiso
C38_2 C 0.7854(8) 0.441(2) 0.4675(4) 0.1267 Uiso
C39_2 C 0.8370(8) 0.3996(19) 0.4725(7) 0.1267 Uiso
C40_2 C 0.8752(8) 0.372(3) 0.4572(8) 0.1267 Uiso
C41_2 C 0.8617(8) 0.386(4) 0.4367(8) 0.1267 Uiso
C42_2 C 0.8101(8) 0.427(5) 0.4317(5) 0.1267 Uiso
C43_2 C 0.7719(8) 0.455(4) 0.4470(3) 0.1267 Uiso
C44_2 C 0.8969(8) 0.360(5) 0.4225(9) 0.1267 Uiso
O10_2 O 0.9460(11) 0.317(5) 0.4275(12) 0.1267 Uiso
O11_2 O 0.8854(11) 0.376(7) 0.4024(8) 0.1267 Uiso
H19_2 H 0.5543(2) 0.4158(7) 0.4869(4) 0.1520 Uiso
H20_2 H 0.6527(7) 0.4511(18) 0.4730(3) 0.1520 Uiso
H21_2 H 0.8459(9) 0.3905(11) 0.4860(7) 0.1520 Uiso
H22_2 H 0.9093(9) 0.344(3) 0.4605(10) 0.1520 Uiso
H23_2 H 0.8012(9) 0.436(6) 0.4182(4) 0.1520 Uiso
H24_2 H 0.7378(9) 0.482(4) 0.44370(16) 0.1520 Uiso
Zr3 Zr 0.91608(16) 0.66608(16) 0.625 0.0797 Uiso
O12 O 0.9101(17) 0.750 0.6036(5) 0.1267 Uiso
O13_2 O 0.7970(7) 0.6985(7) 0.6204(3) 0.1267 Uiso
O14_2 O 0.0515(7) 0.5470(7) 0.6296(3) 0.1267 Uiso
O15_2 O 0.000 0.8417(17) 0.6067(5) 0.1267 Uiso
O16_2 O 0.9485(7) 0.5470(7) 0.6296(3) 0.1267 Uiso
O19_2 O 0.0540(11) 0.817(5) 0.5725(12) 0.1267 Uiso
O20_2 O 0.126(7) 0.6354(11) 0.6524(8) 0.1267 Uiso
O21_2 O 0.874(7) 0.6354(11) 0.6524(8) 0.1267 Uiso
Zr4_2 Zr 1.000 0.750 0.58925(11) 0.0797 Uiso
Zr5_2 Zr 1.000 0.250 0.41075(11) 0.0797 Uiso
Zr8_2 Zr 0.08392(16) 0.83392(16) 0.625 0.0797 Uiso
Zr9 Zr 0.91608(16) 0.83392(16) 0.625 0.0797 Uiso
Zr11_2 Zr 0.08392(16) 0.33392(16) 0.375 0.0797 Uiso
Zr12_2 Zr 0.91608(16) 0.33392(16) 0.375 0.0797 Uiso
O23_2 O 1.000 0.6601(17) 0.6464(5) 0.1267 Uiso
O25_2 O 1.000 0.6583(17) 0.6067(5) 0.1267 Uiso
O26_2 O 0.0917(17) 0.750 0.6433(5) 0.1267 Uiso
O27_2 O 0.9083(17) 0.750 0.6433(5) 0.1267 Uiso
O15_3 O 1.000 0.8417(17) 0.6067(5) 0.1267 Uiso
O18_2 O 0.9460(11) 0.817(5) 0.5725(12) 0.1267 Uiso
O23_3 O -0.000 0.3399(17) 0.3536(5) 0.1267 Uiso
O25_3 O -0.000 0.3417(17) 0.3933(5) 0.1267 Uiso
O3_3 O 0.0899(17) 0.250 0.3964(5) 0.1267 Uiso
O5_3 O 0.2030(7) 0.3015(7) 0.3796(3) 0.1267 Uiso
O12_2 O 0.9101(17) 0.250 0.3964(5) 0.1267 Uiso
O13_3 O 0.7970(7) 0.3015(7) 0.3796(3) 0.1267 Uiso
O14_3 O 0.0515(7) 0.4530(7) 0.3704(3) 0.1267 Uiso
O15_4 O 0.000 0.1583(17) 0.3933(5) 0.1267 Uiso
O16_3 O 0.9485(7) 0.4530(7) 0.3704(3) 0.1267 Uiso
O19_3 O 0.0540(11) 0.183(5) 0.4275(12) 0.1267 Uiso
O20_3 O 0.126(7) 0.3646(11) 0.3476(8) 0.1267 Uiso
O21_3 O 0.874(7) 0.3646(11) 0.3476(8) 0.1267 Uiso
Zr8_3 Zr 0.08392(16) 0.16608(16) 0.375 0.0797 Uiso
Zr9_2 Zr 0.91608(16) 0.16608(16) 0.375 0.0797 Uiso
O23_4 O 1.000 0.3399(17) 0.3536(5) 0.1267 Uiso
O25_4 O 1.000 0.3417(17) 0.3933(5) 0.1267 Uiso
O26_3 O 0.0917(17) 0.250 0.3567(5) 0.1267 Uiso
O27_3 O 0.9083(17) 0.250 0.3567(5) 0.1267 Uiso
O15_5 O 1.000 0.1583(17) 0.3933(5) 0.1267 Uiso
O18_3 O 0.9460(11) 0.183(5) 0.4275(12) 0.1267 Uiso
Zr4_3 Zr 0.000 0.750 0.66075(11) 0.0797 Uiso
O3_4 O 0.000 0.8399(17) 0.6464(5) 0.1267 Uiso
O18_4 O 0.067(5) 0.6960(11) 0.6775(12) 0.1267 Uiso
O19_4 O 0.067(5) 0.8040(11) 0.6775(12) 0.1267 Uiso
C1_4 C 0.750 0.1864(5) 0.750 0.1267 Uiso
C2_3 C 0.7993(5) 0.2182(2) 0.7423(2) 0.1267 Uiso
C3_4 C 0.750 0.1096(7) 0.750 0.1267 Uiso
C4_3 C 0.7797(11) 0.0747(7) 0.7336(2) 0.1267 Uiso
C5_3 C 0.7774(10) 0.0077(7) 0.73485(18) 0.1267 Uiso
H1_3 H 0.8342(7) 0.1957(2) 0.7369(4) 0.1520 Uiso
H2_3 H 0.7989(18) 0.0973(7) 0.7230(3) 0.1520 Uiso
H6_3 H 0.768(4) 0.0122(9) 0.69370(16) 0.1520 Uiso
C13_4 C 0.750 0.3136(5) 0.750 0.1267 Uiso
C14_3 C 0.7993(5) 0.2818(2) 0.7423(2) 0.1267 Uiso
C15_4 C 0.750 0.3904(7) 0.750 0.1267 Uiso
C16_3 C 0.7797(11) 0.4253(7) 0.7336(2) 0.1267 Uiso
C17_3 C 0.7774(10) 0.4923(7) 0.73485(18) 0.1267 Uiso
C18_3 C 0.809(2) 0.5354(8) 0.7175(4) 0.1267 Uiso
C19_3 C 0.8504(19) 0.5870(8) 0.7225(7) 0.1267 Uiso
C20_3 C 0.878(3) 0.6252(8) 0.7072(8) 0.1267 Uiso
C21_3 C 0.864(4) 0.6117(8) 0.6867(8) 0.1267 Uiso
C22_3 C 0.823(5) 0.5601(8) 0.6817(5) 0.1267 Uiso
C23_3 C 0.795(4) 0.5219(8) 0.6970(3) 0.1267 Uiso
C24_3 C 0.890(5) 0.6469(8) 0.6725(9) 0.1267 Uiso
O6_2 O 0.933(5) 0.6960(11) 0.6775(12) 0.1267 Uiso
H7_3 H 0.8342(7) 0.3043(2) 0.7369(4) 0.1520 Uiso
H8_3 H 0.7989(18) 0.4027(7) 0.7230(3) 0.1520 Uiso
H9_3 H 0.8595(11) 0.5959(9) 0.7360(7) 0.1520 Uiso
H10_3 H 0.906(3) 0.6593(9) 0.7105(10) 0.1520 Uiso
H11_3 H 0.814(6) 0.5512(9) 0.6682(4) 0.1520 Uiso
H12_3 H 0.768(4) 0.4878(9) 0.69370(16) 0.1520 Uiso
N2_4 N 0.750 0.5251(12) 0.750 0.1267 Uiso
C25_3 C 0.7007(5) 0.2182(2) 0.7577(2) 0.1267 Uiso
C26_3 C 0.7203(11) 0.0747(7) 0.7664(2) 0.1267 Uiso
C27_3 C 0.7226(10) 0.0077(7) 0.76515(18) 0.1267 Uiso
H13_3 H 0.6658(7) 0.1957(2) 0.7631(4) 0.1520 Uiso
H14_3 H 0.7011(18) 0.0973(7) 0.7770(3) 0.1520 Uiso
H18_3 H 0.732(4) 0.0122(9) 0.80630(16) 0.1520 Uiso
C35_3 C 0.7007(5) 0.2818(2) 0.7577(2) 0.1267 Uiso
C36_3 C 0.7203(11) 0.4253(7) 0.7664(2) 0.1267 Uiso
C37_3 C 0.7226(10) 0.4923(7) 0.76515(18) 0.1267 Uiso
C38_3 C 0.691(2) 0.5354(8) 0.7825(4) 0.1267 Uiso
C39_3 C 0.6496(19) 0.5870(8) 0.7775(7) 0.1267 Uiso
C40_3 C 0.622(3) 0.6252(8) 0.7928(8) 0.1267 Uiso
C41_3 C 0.636(4) 0.6117(8) 0.8133(8) 0.1267 Uiso
C42_3 C 0.677(5) 0.5601(8) 0.8183(5) 0.1267 Uiso
C43_3 C 0.705(4) 0.5219(8) 0.8030(3) 0.1267 Uiso
C44_3 C 0.610(5) 0.6469(8) 0.8275(9) 0.1267 Uiso
O10_3 O 0.567(5) 0.6960(11) 0.8225(12) 0.1267 Uiso
O11_3 O 0.626(7) 0.6354(11) 0.8476(8) 0.1267 Uiso
H19_3 H 0.6658(7) 0.3043(2) 0.7631(4) 0.1520 Uiso
H20_3 H 0.7011(18) 0.4027(7) 0.7770(3) 0.1520 Uiso
H21_3 H 0.6405(11) 0.5959(9) 0.7640(7) 0.1520 Uiso
H22_3 H 0.594(3) 0.6593(9) 0.7895(10) 0.1520 Uiso
H23_3 H 0.686(6) 0.5512(9) 0.8318(4) 0.1520 Uiso
H24_3 H 0.732(4) 0.4878(9) 0.80630(16) 0.1520 Uiso
Zr4_4 Zr 1.000 0.750 0.66075(11) 0.0797 Uiso
Zr5_3 Zr 0.500 0.750 0.83925(11) 0.0797 Uiso
C6_3 C 0.809(2) 0.9646(8) 0.7175(4) 0.1267 Uiso
C7_3 C 0.8504(19) 0.9130(8) 0.7225(7) 0.1267 Uiso
C8_3 C 0.878(3) 0.8748(8) 0.7072(8) 0.1267 Uiso
C9_3 C 0.864(4) 0.8883(8) 0.6867(8) 0.1267 Uiso
C10_3 C 0.823(5) 0.9399(8) 0.6817(5) 0.1267 Uiso
C11_3 C 0.795(4) 0.9781(8) 0.6970(3) 0.1267 Uiso
C12_3 C 0.890(5) 0.8531(8) 0.6725(9) 0.1267 Uiso
O1_3 O 0.933(5) 0.8040(11) 0.6775(12) 0.1267 Uiso
O2_3 O 0.874(7) 0.8646(11) 0.6524(8) 0.1267 Uiso
H3_3 H 0.8595(11) 0.9041(9) 0.7360(7) 0.1520 Uiso
H4_3 H 0.906(3) 0.8407(9) 0.7105(10) 0.1520 Uiso
H5_3 H 0.814(6) 0.9488(9) 0.6682(4) 0.1520 Uiso
N1_4 N 0.750 0.9749(12) 0.750 0.1267 Uiso
O3_5 O 1.000 0.8399(17) 0.6464(5) 0.1267 Uiso
O5_4 O 0.9485(7) 0.9530(7) 0.6296(3) 0.1267 Uiso
C28_3 C 0.691(2) 0.9646(8) 0.7825(4) 0.1267 Uiso
C29_3 C 0.6496(19) 0.9130(8) 0.7775(7) 0.1267 Uiso
C30_3 C 0.622(3) 0.8748(8) 0.7928(8) 0.1267 Uiso
C31_3 C 0.636(4) 0.8883(8) 0.8133(8) 0.1267 Uiso
C32_3 C 0.677(5) 0.9399(8) 0.8183(5) 0.1267 Uiso
C33_3 C 0.705(4) 0.9781(8) 0.8030(3) 0.1267 Uiso
C34_3 C 0.610(5) 0.8531(8) 0.8275(9) 0.1267 Uiso
O8_3 O 0.567(5) 0.8040(11) 0.8225(12) 0.1267 Uiso
O9_3 O 0.626(7) 0.8646(11) 0.8476(8) 0.1267 Uiso
H15_3 H 0.6405(11) 0.9041(9) 0.7640(7) 0.1520 Uiso
H16_3 H 0.594(3) 0.8407(9) 0.7895(10) 0.1520 Uiso
H17_3 H 0.686(6) 0.9488(9) 0.8318(4) 0.1520 Uiso
O14_4 O 0.7970(7) 0.8015(7) 0.6204(3) 0.1267 Uiso
O20_4 O 0.8854(11) 0.876(7) 0.5976(8) 0.1267 Uiso
Zr11_3 Zr 0.58392(16) 0.83392(16) 0.875 0.0797 Uiso
Zr1_2 Zr 0.000 0.250 0.33925(11) 0.0797 Uiso
O3_6 O 0.000 0.1601(17) 0.3536(5) 0.1267 Uiso
O18_5 O 0.067(5) 0.3040(11) 0.3225(12) 0.1267 Uiso
O19_5 O 0.067(5) 0.1960(11) 0.3225(12) 0.1267 Uiso
C6_4 C 0.809(2) 0.0354(8) 0.2825(4) 0.1267 Uiso
C7_4 C 0.8504(19) 0.0870(8) 0.2775(7) 0.1267 Uiso
C8_4 C 0.878(3) 0.1252(8) 0.2928(8) 0.1267 Uiso
C9_4 C 0.864(4) 0.1117(8) 0.3133(8) 0.1267 Uiso
C10_4 C 0.823(5) 0.0601(8) 0.3183(5) 0.1267 Uiso
C11_4 C 0.795(4) 0.0219(8) 0.3030(3) 0.1267 Uiso
C12_4 C 0.890(5) 0.1469(8) 0.3275(9) 0.1267 Uiso
O1_4 O 0.933(5) 0.1960(11) 0.3225(12) 0.1267 Uiso
O2_4 O 0.874(7) 0.1354(11) 0.3476(8) 0.1267 Uiso
H3_4 H 0.8595(11) 0.0959(9) 0.2640(7) 0.1520 Uiso
H4_4 H 0.906(3) 0.1593(9) 0.2895(10) 0.1520 Uiso
H5_4 H 0.814(6) 0.0512(9) 0.3318(4) 0.1520 Uiso
N1_5 N 0.750 0.0251(12) 0.250 0.1267 Uiso
Zr1_3 Zr 1.000 0.250 0.33925(11) 0.0797 Uiso
O3_7 O 1.000 0.1601(17) 0.3536(5) 0.1267 Uiso
O5_5 O 0.9485(7) 0.0470(7) 0.3704(3) 0.1267 Uiso
C28_4 C 0.691(2) 0.0354(8) 0.2175(4) 0.1267 Uiso
C29_4 C 0.6496(19) 0.0870(8) 0.2225(7) 0.1267 Uiso
C30_4 C 0.622(3) 0.1252(8) 0.2072(8) 0.1267 Uiso
C31_4 C 0.636(4) 0.1117(8) 0.1867(8) 0.1267 Uiso
C32_4 C 0.677(5) 0.0601(8) 0.1817(5) 0.1267 Uiso
C33_4 C 0.705(4) 0.0219(8) 0.1970(3) 0.1267 Uiso
C34_4 C 0.610(5) 0.1469(8) 0.1725(9) 0.1267 Uiso
O8_4 O 0.567(5) 0.1960(11) 0.1775(12) 0.1267 Uiso
O9_4 O 0.626(7) 0.1354(11) 0.1524(8) 0.1267 Uiso
H15_4 H 0.6405(11) 0.0959(9) 0.2360(7) 0.1520 Uiso
H16_4 H 0.594(3) 0.1593(9) 0.2105(10) 0.1520 Uiso
H17_4 H 0.686(6) 0.0512(9) 0.1682(4) 0.1520 Uiso
O14_5 O 0.7970(7) 0.1985(7) 0.3796(3) 0.1267 Uiso
O17_2 O 0.933(5) 0.3040(11) 0.3225(12) 0.1267 Uiso
O20_5 O 0.8854(11) 0.124(7) 0.4024(8) 0.1267 Uiso
Zr6_2 Zr 0.500 0.250 0.16075(11) 0.0797 Uiso
C1_5 C 0.750 0.8136(5) 0.250 0.1267 Uiso
C2_4 C 0.7993(5) 0.7818(2) 0.2577(2) 0.1267 Uiso
C3_5 C 0.750 0.8904(7) 0.250 0.1267 Uiso
C4_4 C 0.7797(11) 0.9253(7) 0.2664(2) 0.1267 Uiso
C5_4 C 0.7774(10) 0.9923(7) 0.26515(18) 0.1267 Uiso
H1_4 H 0.8342(7) 0.8043(2) 0.2631(4) 0.1520 Uiso
H2_4 H 0.7989(18) 0.9027(7) 0.2770(3) 0.1520 Uiso
H6_4 H 0.768(4) 0.9878(9) 0.30630(16) 0.1520 Uiso
C13_5 C 0.750 0.6864(5) 0.250 0.1267 Uiso
C14_4 C 0.7993(5) 0.7182(2) 0.2577(2) 0.1267 Uiso
C15_5 C 0.750 0.6096(7) 0.250 0.1267 Uiso
C16_4 C 0.7797(11) 0.5747(7) 0.2664(2) 0.1267 Uiso
C17_4 C 0.7774(10) 0.5077(7) 0.26515(18) 0.1267 Uiso
C18_4 C 0.809(2) 0.4646(8) 0.2825(4) 0.1267 Uiso
C19_4 C 0.8504(19) 0.4130(8) 0.2775(7) 0.1267 Uiso
C20_4 C 0.878(3) 0.3748(8) 0.2928(8) 0.1267 Uiso
C21_4 C 0.864(4) 0.3883(8) 0.3133(8) 0.1267 Uiso
C22_4 C 0.823(5) 0.4399(8) 0.3183(5) 0.1267 Uiso
C23_4 C 0.795(4) 0.4781(8) 0.3030(3) 0.1267 Uiso
C24_4 C 0.890(5) 0.3531(8) 0.3275(9) 0.1267 Uiso
H7_4 H 0.8342(7) 0.6957(2) 0.2631(4) 0.1520 Uiso
H8_4 H 0.7989(18) 0.5973(7) 0.2770(3) 0.1520 Uiso
H9_4 H 0.8595(11) 0.4041(9) 0.2640(7) 0.1520 Uiso
H10_4 H 0.906(3) 0.3407(9) 0.2895(10) 0.1520 Uiso
H11_4 H 0.814(6) 0.4488(9) 0.3318(4) 0.1520 Uiso
H12_4 H 0.768(4) 0.5122(9) 0.30630(16) 0.1520 Uiso
N2_5 N 0.750 0.4749(12) 0.250 0.1267 Uiso
C25_4 C 0.7007(5) 0.7818(2) 0.2423(2) 0.1267 Uiso
C26_4 C 0.7203(11) 0.9253(7) 0.2336(2) 0.1267 Uiso
C27_4 C 0.7226(10) 0.9923(7) 0.23485(18) 0.1267 Uiso
H13_4 H 0.6658(7) 0.8043(2) 0.2369(4) 0.1520 Uiso
H14_4 H 0.7011(18) 0.9027(7) 0.2230(3) 0.1520 Uiso
H18_4 H 0.732(4) 0.9878(9) 0.19370(16) 0.1520 Uiso
C35_4 C 0.7007(5) 0.7182(2) 0.2423(2) 0.1267 Uiso
C36_4 C 0.7203(11) 0.5747(7) 0.2336(2) 0.1267 Uiso
C37_4 C 0.7226(10) 0.5077(7) 0.23485(18) 0.1267 Uiso
C38_4 C 0.691(2) 0.4646(8) 0.2175(4) 0.1267 Uiso
C39_4 C 0.6496(19) 0.4130(8) 0.2225(7) 0.1267 Uiso
C40_4 C 0.622(3) 0.3748(8) 0.2072(8) 0.1267 Uiso
C41_4 C 0.636(4) 0.3883(8) 0.1867(8) 0.1267 Uiso
C42_4 C 0.677(5) 0.4399(8) 0.1817(5) 0.1267 Uiso
C43_4 C 0.705(4) 0.4781(8) 0.1970(3) 0.1267 Uiso
C44_4 C 0.610(5) 0.3531(8) 0.1725(9) 0.1267 Uiso
O10_4 O 0.567(5) 0.3040(11) 0.1775(12) 0.1267 Uiso
H19_4 H 0.6658(7) 0.6957(2) 0.2369(4) 0.1520 Uiso
H20_4 H 0.7011(18) 0.5973(7) 0.2230(3) 0.1520 Uiso
H21_4 H 0.6405(11) 0.4041(9) 0.2360(7) 0.1520 Uiso
H22_4 H 0.594(3) 0.3407(9) 0.2105(10) 0.1520 Uiso
H23_4 H 0.686(6) 0.4488(9) 0.1682(4) 0.1520 Uiso
H24_4 H 0.732(4) 0.5122(9) 0.19370(16) 0.1520 Uiso
O12_3 O 0.500 0.6601(17) 0.8536(5) 0.1267 Uiso
O13_4 O 0.5515(7) 0.5470(7) 0.8704(3) 0.1267 Uiso
O16_4 O 0.7030(7) 0.6985(7) 0.8796(3) 0.1267 Uiso
O23_5 O 0.5899(17) 0.750 0.8964(5) 0.1267 Uiso
O25_5 O 0.5917(17) 0.750 0.8567(5) 0.1267 Uiso
O27_4 O 0.500 0.6583(17) 0.8933(5) 0.1267 Uiso
O3_8 O 0.500 0.8399(17) 0.8536(5) 0.1267 Uiso
O5_6 O 0.5515(7) 0.9530(7) 0.8704(3) 0.1267 Uiso
O14_6 O 0.7030(7) 0.8015(7) 0.8796(3) 0.1267 Uiso
O15_6 O 0.4083(17) 0.750 0.8567(5) 0.1267 Uiso
O18_6 O 0.433(5) 0.6960(11) 0.8225(12) 0.1267 Uiso
O19_6 O 0.433(5) 0.8040(11) 0.8225(12) 0.1267 Uiso
O20_6 O 0.6146(11) 0.876(7) 0.9024(8) 0.1267 Uiso
Zr8_4 Zr 0.41608(16) 0.83392(16) 0.875 0.0797 Uiso
O26_4 O 0.500 0.8417(17) 0.8933(5) 0.1267 Uiso
O3_9 O 0.500 0.1601(17) 0.1464(5) 0.1267 Uiso
O5_7 O 0.5515(7) 0.0470(7) 0.1296(3) 0.1267 Uiso
O14_7 O 0.7030(7) 0.1985(7) 0.1204(3) 0.1267 Uiso
O18_7 O 0.433(5) 0.3040(11) 0.1775(12) 0.1267 Uiso
O19_7 O 0.433(5) 0.1960(11) 0.1775(12) 0.1267 Uiso
O20_7 O 0.6146(11) 0.124(7) 0.0976(8) 0.1267 Uiso
O3_10 O 0.4101(17) 0.750 0.8964(5) 0.1267 Uiso
O5_8 O 0.2970(7) 0.6985(7) 0.8796(3) 0.1267 Uiso
O14_8 O 0.4485(7) 0.5470(7) 0.8704(3) 0.1267 Uiso
O18_8 O 0.5540(11) 0.817(5) 0.9275(12) 0.1267 Uiso
O19_8 O 0.4460(11) 0.817(5) 0.9275(12) 0.1267 Uiso
O20_8 O 0.374(7) 0.6354(11) 0.8476(8) 0.1267 Uiso
C1_6 C 0.5636(5) -0.000 0.500 0.1267 Uiso
C3_6 C 0.6404(7) -0.000 0.500 0.1267 Uiso
N1_6 N 0.7751(12) -0.000 0.500 0.1267 Uiso
C13_6 C 0.4364(5) -0.000 0.500 0.1267 Uiso
C15_6 C 0.3596(7) -0.000 0.500 0.1267 Uiso
N2_6 N 0.2249(12) -0.000 0.500 0.1267 Uiso
C25_5 C 0.5318(2) 0.0493(5) 0.4923(2) 0.1267 Uiso
C26_5 C 0.6753(7) 0.0297(11) 0.4836(2) 0.1267 Uiso
C27_5 C 0.7423(7) 0.0274(10) 0.48485(18) 0.1267 Uiso
C28_5 C 0.7854(8) 0.059(2) 0.4675(4) 0.1267 Uiso
C29_5 C 0.8370(8) 0.1004(19) 0.4725(7) 0.1267 Uiso
C30_5 C 0.8752(8) 0.128(3) 0.4572(8) 0.1267 Uiso
C31_5 C 0.8617(8) 0.114(4) 0.4367(8) 0.1267 Uiso
C32_5 C 0.8101(8) 0.073(5) 0.4317(5) 0.1267 Uiso
C33_5 C 0.7719(8) 0.045(4) 0.4470(3) 0.1267 Uiso
C34_5 C 0.8969(8) 0.140(5) 0.4225(9) 0.1267 Uiso
H13_5 H 0.5543(2) 0.0842(7) 0.4869(4) 0.1520 Uiso
H14_5 H 0.6527(7) 0.0489(18) 0.4730(3) 0.1520 Uiso
H15_5 H 0.8459(9) 0.1095(11) 0.4860(7) 0.1520 Uiso
H16_5 H 0.9093(9) 0.156(3) 0.4605(10) 0.1520 Uiso
H17_5 H 0.8012(9) 0.064(6) 0.4182(4) 0.1520 Uiso
H18_5 H 0.7378(9) 0.018(4) 0.44370(16) 0.1520 Uiso
C35_5 C 0.4682(2) 0.0493(5) 0.4923(2) 0.1267 Uiso
C36_5 C 0.3247(7) 0.0297(11) 0.4836(2) 0.1267 Uiso
C37_5 C 0.2577(7) 0.0274(10) 0.48485(18) 0.1267 Uiso
C38_5 C 0.2146(8) 0.059(2) 0.4675(4) 0.1267 Uiso
C39_5 C 0.1630(8) 0.1004(19) 0.4725(7) 0.1267 Uiso
C40_5 C 0.1248(8) 0.128(3) 0.4572(8) 0.1267 Uiso
C41_5 C 0.1383(8) 0.114(4) 0.4367(8) 0.1267 Uiso
C42_5 C 0.1899(8) 0.073(5) 0.4317(5) 0.1267 Uiso
C43_5 C 0.2281(8) 0.045(4) 0.4470(3) 0.1267 Uiso
C44_5 C 0.1031(8) 0.140(5) 0.4225(9) 0.1267 Uiso
O11_4 O 0.1146(11) 0.124(7) 0.4024(8) 0.1267 Uiso
H19_5 H 0.4457(2) 0.0842(7) 0.4869(4) 0.1520 Uiso
H20_5 H 0.3473(7) 0.0489(18) 0.4730(3) 0.1520 Uiso
H21_5 H 0.1541(9) 0.1095(11) 0.4860(7) 0.1520 Uiso
H22_5 H 0.0907(9) 0.156(3) 0.4605(10) 0.1520 Uiso
H23_5 H 0.1988(9) 0.064(6) 0.4182(4) 0.1520 Uiso
H24_5 H 0.2622(9) 0.018(4) 0.44370(16) 0.1520 Uiso
C1_7 C 0.5636(5) 1.000 0.500 0.1267 Uiso
C2_5 C 0.5318(2) 0.9507(5) 0.5077(2) 0.1267 Uiso
C3_7 C 0.6404(7) 1.000 0.500 0.1267 Uiso
C4_5 C 0.6753(7) 0.9703(11) 0.5164(2) 0.1267 Uiso
C5_5 C 0.7423(7) 0.9726(10) 0.51515(18) 0.1267 Uiso
C6_5 C 0.7854(8) 0.941(2) 0.5325(4) 0.1267 Uiso
C7_5 C 0.8370(8) 0.8996(19) 0.5275(7) 0.1267 Uiso
C8_5 C 0.8752(8) 0.872(3) 0.5428(8) 0.1267 Uiso
C9_5 C 0.8617(8) 0.886(4) 0.5633(8) 0.1267 Uiso
C10_5 C 0.8101(8) 0.927(5) 0.5683(5) 0.1267 Uiso
C11_5 C 0.7719(8) 0.955(4) 0.5530(3) 0.1267 Uiso
C12_5 C 0.8969(8) 0.860(5) 0.5775(9) 0.1267 Uiso
H1_5 H 0.5543(2) 0.9158(7) 0.5131(4) 0.1520 Uiso
H2_5 H 0.6527(7) 0.9511(18) 0.5270(3) 0.1520 Uiso
H3_5 H 0.8459(9) 0.8905(11) 0.5140(7) 0.1520 Uiso
H4_5 H 0.9093(9) 0.844(3) 0.5395(10) 0.1520 Uiso
H5_5 H 0.8012(9) 0.936(6) 0.5818(4) 0.1520 Uiso
H6_5 H 0.7378(9) 0.982(4) 0.55630(16) 0.1520 Uiso
N1_7 N 0.7751(12) 1.000 0.500 0.1267 Uiso
C13_7 C 0.4364(5) 1.000 0.500 0.1267 Uiso
C14_5 C 0.4682(2) 0.9507(5) 0.5077(2) 0.1267 Uiso
C15_7 C 0.3596(7) 1.000 0.500 0.1267 Uiso
C16_5 C 0.3247(7) 0.9703(11) 0.5164(2) 0.1267 Uiso
C17_5 C 0.2577(7) 0.9726(10) 0.51515(18) 0.1267 Uiso
C18_5 C 0.2146(8) 0.941(2) 0.5325(4) 0.1267 Uiso
C19_5 C 0.1630(8) 0.8996(19) 0.5275(7) 0.1267 Uiso
C20_5 C 0.1248(8) 0.872(3) 0.5428(8) 0.1267 Uiso
C21_5 C 0.1383(8) 0.886(4) 0.5633(8) 0.1267 Uiso
C22_5 C 0.1899(8) 0.927(5) 0.5683(5) 0.1267 Uiso
C23_5 C 0.2281(8) 0.955(4) 0.5530(3) 0.1267 Uiso
C24_5 C 0.1031(8) 0.860(5) 0.5775(9) 0.1267 Uiso
O7_3 O 0.1146(11) 0.876(7) 0.5976(8) 0.1267 Uiso
H7_5 H 0.4457(2) 0.9158(7) 0.5131(4) 0.1520 Uiso
H8_5 H 0.3473(7) 0.9511(18) 0.5270(3) 0.1520 Uiso
H9_5 H 0.1541(9) 0.8905(11) 0.5140(7) 0.1520 Uiso
H10_5 H 0.0907(9) 0.844(3) 0.5395(10) 0.1520 Uiso
H11_5 H 0.1988(9) 0.936(6) 0.5818(4) 0.1520 Uiso
H12_5 H 0.2622(9) 0.982(4) 0.55630(16) 0.1520 Uiso
N2_7 N 0.2249(12) 1.000 0.500 0.1267 Uiso
O13_5 O 0.2030(7) 0.8015(7) 0.6204(3) 0.1267 Uiso
O16_5 O 0.0515(7) 0.9530(7) 0.6296(3) 0.1267 Uiso
O21_4 O 0.126(7) 0.8646(11) 0.6524(8) 0.1267 Uiso
C13_8 C 0.0636(5) 0.000 0.000 0.1267 Uiso
C14_6 C 0.0318(2) 0.0493(5) 0.0077(2) 0.1267 Uiso
C15_8 C 0.1404(7) 0.000 0.000 0.1267 Uiso
C16_6 C 0.1753(7) 0.0297(11) 0.0164(2) 0.1267 Uiso
C17_6 C 0.2423(7) 0.0274(10) 0.01515(18) 0.1267 Uiso
C18_6 C 0.2854(8) 0.059(2) 0.0325(4) 0.1267 Uiso
C19_6 C 0.3370(8) 0.1004(19) 0.0275(7) 0.1267 Uiso
C20_6 C 0.3752(8) 0.128(3) 0.0428(8) 0.1267 Uiso
C21_6 C 0.3617(8) 0.114(4) 0.0633(8) 0.1267 Uiso
C22_6 C 0.3101(8) 0.073(5) 0.0683(5) 0.1267 Uiso
C23_6 C 0.2719(8) 0.045(4) 0.0530(3) 0.1267 Uiso
C24_6 C 0.3969(8) 0.140(5) 0.0775(9) 0.1267 Uiso
O7_4 O 0.3854(11) 0.124(7) 0.0976(8) 0.1267 Uiso
H7_6 H 0.0543(2) 0.0842(7) 0.0131(4) 0.1520 Uiso
H8_6 H 0.1527(7) 0.0489(18) 0.0270(3) 0.1520 Uiso
H9_6 H 0.3459(9) 0.1095(11) 0.0140(7) 0.1520 Uiso
H10_6 H 0.4093(9) 0.156(3) 0.0395(10) 0.1520 Uiso
H11_6 H 0.3012(9) 0.064(6) 0.0818(4) 0.1520 Uiso
H12_6 H 0.2378(9) 0.018(4) 0.05630(16) 0.1520 Uiso
N2_8 N 0.2751(12) 0.000 0.000 0.1267 Uiso
O13_6 O 0.2970(7) 0.1985(7) 0.1204(3) 0.1267 Uiso
O16_6 O 0.4485(7) 0.0470(7) 0.1296(3) 0.1267 Uiso
O21_5 O 0.374(7) 0.1354(11) 0.1524(8) 0.1267 Uiso
C13_9 C 0.0636(5) 1.000 1.000 0.1267 Uiso
C15_9 C 0.1404(7) 1.000 1.000 0.1267 Uiso
N2_9 N 0.2751(12) 1.000 1.000 0.1267 Uiso
C35_6 C 0.0318(2) 0.9507(5) 0.9923(2) 0.1267 Uiso
C36_6 C 0.1753(7) 0.9703(11) 0.9836(2) 0.1267 Uiso
C37_6 C 0.2423(7) 0.9726(10) 0.98485(18) 0.1267 Uiso
C38_6 C 0.2854(8) 0.941(2) 0.9675(4) 0.1267 Uiso
C39_6 C 0.3370(8) 0.8996(19) 0.9725(7) 0.1267 Uiso
C40_6 C 0.3752(8) 0.872(3) 0.9572(8) 0.1267 Uiso
C41_6 C 0.3617(8) 0.886(4) 0.9367(8) 0.1267 Uiso
C42_6 C 0.3101(8) 0.927(5) 0.9317(5) 0.1267 Uiso
C43_6 C 0.2719(8) 0.955(4) 0.9470(3) 0.1267 Uiso
C44_6 C 0.3969(8) 0.860(5) 0.9225(9) 0.1267 Uiso
O11_5 O 0.3854(11) 0.876(7) 0.9024(8) 0.1267 Uiso
H19_6 H 0.0543(2) 0.9158(7) 0.9869(4) 0.1520 Uiso
H20_6 H 0.1527(7) 0.9511(18) 0.9730(3) 0.1520 Uiso
H21_6 H 0.3459(9) 0.8905(11) 0.9860(7) 0.1520 Uiso
H22_6 H 0.4093(9) 0.844(3) 0.9605(10) 0.1520 Uiso
H23_6 H 0.3012(9) 0.936(6) 0.9182(4) 0.1520 Uiso
H24_6 H 0.2378(9) 0.982(4) 0.94370(16) 0.1520 Uiso
C1_8 C 0.9364(5) 0.000 0.000 0.1267 Uiso
C2_6 C 0.9682(2) 0.0493(5) 0.0077(2) 0.1267 Uiso
C3_8 C 0.8596(7) 0.000 0.000 0.1267 Uiso
C4_6 C 0.8247(7) 0.0297(11) 0.0164(2) 0.1267 Uiso
C5_6 C 0.7577(7) 0.0274(10) 0.01515(18) 0.1267 Uiso
C6_6 C 0.7146(8) 0.059(2) 0.0325(4) 0.1267 Uiso
C7_6 C 0.6630(8) 0.1004(19) 0.0275(7) 0.1267 Uiso
C8_6 C 0.6248(8) 0.128(3) 0.0428(8) 0.1267 Uiso
C9_6 C 0.6383(8) 0.114(4) 0.0633(8) 0.1267 Uiso
C10_6 C 0.6899(8) 0.073(5) 0.0683(5) 0.1267 Uiso
C11_6 C 0.7281(8) 0.045(4) 0.0530(3) 0.1267 Uiso
C12_6 C 0.6031(8) 0.140(5) 0.0775(9) 0.1267 Uiso
H1_6 H 0.9457(2) 0.0842(7) 0.0131(4) 0.1520 Uiso
H2_6 H 0.8473(7) 0.0489(18) 0.0270(3) 0.1520 Uiso
H3_6 H 0.6541(9) 0.1095(11) 0.0140(7) 0.1520 Uiso
H4_6 H 0.5907(9) 0.156(3) 0.0395(10) 0.1520 Uiso
H5_6 H 0.6988(9) 0.064(6) 0.0818(4) 0.1520 Uiso
H6_6 H 0.7622(9) 0.018(4) 0.05630(16) 0.1520 Uiso
N1_8 N 0.7249(12) 0.000 0.000 0.1267 Uiso
C1_9 C 0.9364(5) 1.000 1.000 0.1267 Uiso
C3_9 C 0.8596(7) 1.000 1.000 0.1267 Uiso
N1_9 N 0.7249(12) 1.000 1.000 0.1267 Uiso
C25_6 C 0.9682(2) 0.9507(5) 0.9923(2) 0.1267 Uiso
C26_6 C 0.8247(7) 0.9703(11) 0.9836(2) 0.1267 Uiso
C27_6 C 0.7577(7) 0.9726(10) 0.98485(18) 0.1267 Uiso
C28_6 C 0.7146(8) 0.941(2) 0.9675(4) 0.1267 Uiso
C29_6 C 0.6630(8) 0.8996(19) 0.9725(7) 0.1267 Uiso
C30_6 C 0.6248(8) 0.872(3) 0.9572(8) 0.1267 Uiso
C31_6 C 0.6383(8) 0.886(4) 0.9367(8) 0.1267 Uiso
C32_6 C 0.6899(8) 0.927(5) 0.9317(5) 0.1267 Uiso
C33_6 C 0.7281(8) 0.955(4) 0.9470(3) 0.1267 Uiso
C34_6 C 0.6031(8) 0.860(5) 0.9225(9) 0.1267 Uiso
H13_6 H 0.9457(2) 0.9158(7) 0.9869(4) 0.1520 Uiso
H14_6 H 0.8473(7) 0.9511(18) 0.9730(3) 0.1520 Uiso
H15_6 H 0.6541(9) 0.8905(11) 0.9860(7) 0.1520 Uiso
H16_6 H 0.5907(9) 0.844(3) 0.9605(10) 0.1520 Uiso
H17_6 H 0.6988(9) 0.936(6) 0.9182(4) 0.1520 Uiso
H18_6 H 0.7622(9) 0.982(4) 0.94370(16) 0.1520 Uiso
O13_7 O 0.2970(7) 0.8015(7) 0.8796(3) 0.1267 Uiso
O16_7 O 0.4485(7) 0.9530(7) 0.8704(3) 0.1267 Uiso
O21_6 O 0.374(7) 0.8646(11) 0.8476(8) 0.1267 Uiso
C18_7 C 0.309(2) 0.0354(8) 0.2175(4) 0.1267 Uiso
C19_7 C 0.3504(19) 0.0870(8) 0.2225(7) 0.1267 Uiso
C20_7 C 0.378(3) 0.1252(8) 0.2072(8) 0.1267 Uiso
C21_7 C 0.364(4) 0.1117(8) 0.1867(8) 0.1267 Uiso
C22_7 C 0.323(5) 0.0601(8) 0.1817(5) 0.1267 Uiso
C23_7 C 0.295(4) 0.0219(8) 0.1970(3) 0.1267 Uiso
C24_7 C 0.390(5) 0.1469(8) 0.1725(9) 0.1267 Uiso
H9_7 H 0.3595(11) 0.0959(9) 0.2360(7) 0.1520 Uiso
H10_7 H 0.406(3) 0.1593(9) 0.2105(10) 0.1520 Uiso
H11_7 H 0.314(6) 0.0512(9) 0.1682(4) 0.1520 Uiso
N2_10 N 0.250 0.0251(12) 0.250 0.1267 Uiso
C38_7 C 0.191(2) 0.0354(8) 0.2825(4) 0.1267 Uiso
C39_7 C 0.1496(19) 0.0870(8) 0.2775(7) 0.1267 Uiso
C40_7 C 0.122(3) 0.1252(8) 0.2928(8) 0.1267 Uiso
C41_7 C 0.136(4) 0.1117(8) 0.3133(8) 0.1267 Uiso
C42_7 C 0.177(5) 0.0601(8) 0.3183(5) 0.1267 Uiso
C43_7 C 0.205(4) 0.0219(8) 0.3030(3) 0.1267 Uiso
C44_7 C 0.110(5) 0.1469(8) 0.3275(9) 0.1267 Uiso
O11_6 O 0.126(7) 0.1354(11) 0.3476(8) 0.1267 Uiso
H21_7 H 0.1405(11) 0.0959(9) 0.2640(7) 0.1520 Uiso
H22_7 H 0.094(3) 0.1593(9) 0.2895(10) 0.1520 Uiso
H23_7 H 0.186(6) 0.0512(9) 0.3318(4) 0.1520 Uiso
C1_10 C 0.250 0.6864(5) 0.250 0.1267 Uiso
C2_7 C 0.2993(5) 0.7182(2) 0.2423(2) 0.1267 Uiso
C3_10 C 0.250 0.6096(7) 0.250 0.1267 Uiso
C4_7 C 0.2797(11) 0.5747(7) 0.2336(2) 0.1267 Uiso
C5_7 C 0.2774(10) 0.5077(7) 0.23485(18) 0.1267 Uiso
C6_7 C 0.309(2) 0.4646(8) 0.2175(4) 0.1267 Uiso
C7_7 C 0.3504(19) 0.4130(8) 0.2225(7) 0.1267 Uiso
C8_7 C 0.378(3) 0.3748(8) 0.2072(8) 0.1267 Uiso
C9_7 C 0.364(4) 0.3883(8) 0.1867(8) 0.1267 Uiso
C10_7 C 0.323(5) 0.4399(8) 0.1817(5) 0.1267 Uiso
C11_7 C 0.295(4) 0.4781(8) 0.1970(3) 0.1267 Uiso
C12_7 C 0.390(5) 0.3531(8) 0.1725(9) 0.1267 Uiso
H1_7 H 0.3342(7) 0.6957(2) 0.2369(4) 0.1520 Uiso
H2_7 H 0.2989(18) 0.5973(7) 0.2230(3) 0.1520 Uiso
H3_7 H 0.3595(11) 0.4041(9) 0.2360(7) 0.1520 Uiso
H4_7 H 0.406(3) 0.3407(9) 0.2105(10) 0.1520 Uiso
H5_7 H 0.314(6) 0.4488(9) 0.1682(4) 0.1520 Uiso
H6_7 H 0.268(4) 0.5122(9) 0.19370(16) 0.1520 Uiso
N1_10 N 0.250 0.4749(12) 0.250 0.1267 Uiso
C13_10 C 0.250 0.8136(5) 0.250 0.1267 Uiso
C14_7 C 0.2993(5) 0.7818(2) 0.2423(2) 0.1267 Uiso
C15_10 C 0.250 0.8904(7) 0.250 0.1267 Uiso
C16_7 C 0.2797(11) 0.9253(7) 0.2336(2) 0.1267 Uiso
C17_7 C 0.2774(10) 0.9923(7) 0.23485(18) 0.1267 Uiso
H7_7 H 0.3342(7) 0.8043(2) 0.2369(4) 0.1520 Uiso
H8_7 H 0.2989(18) 0.9027(7) 0.2230(3) 0.1520 Uiso
H12_7 H 0.268(4) 0.9878(9) 0.19370(16) 0.1520 Uiso
C25_7 C 0.2007(5) 0.7182(2) 0.2577(2) 0.1267 Uiso
C26_7 C 0.2203(11) 0.5747(7) 0.2664(2) 0.1267 Uiso
C27_7 C 0.2226(10) 0.5077(7) 0.26515(18) 0.1267 Uiso
C28_7 C 0.191(2) 0.4646(8) 0.2825(4) 0.1267 Uiso
C29_7 C 0.1496(19) 0.4130(8) 0.2775(7) 0.1267 Uiso
C30_7 C 0.122(3) 0.3748(8) 0.2928(8) 0.1267 Uiso
C31_7 C 0.136(4) 0.3883(8) 0.3133(8) 0.1267 Uiso
C32_7 C 0.177(5) 0.4399(8) 0.3183(5) 0.1267 Uiso
C33_7 C 0.205(4) 0.4781(8) 0.3030(3) 0.1267 Uiso
C34_7 C 0.110(5) 0.3531(8) 0.3275(9) 0.1267 Uiso
H13_7 H 0.1658(7) 0.6957(2) 0.2631(4) 0.1520 Uiso
H14_7 H 0.2011(18) 0.5973(7) 0.2770(3) 0.1520 Uiso
H15_7 H 0.1405(11) 0.4041(9) 0.2640(7) 0.1520 Uiso
H16_7 H 0.094(3) 0.3407(9) 0.2895(10) 0.1520 Uiso
H17_7 H 0.186(6) 0.4488(9) 0.3318(4) 0.1520 Uiso
H18_7 H 0.232(4) 0.5122(9) 0.30630(16) 0.1520 Uiso
C35_7 C 0.2007(5) 0.7818(2) 0.2577(2) 0.1267 Uiso
C36_7 C 0.2203(11) 0.9253(7) 0.2664(2) 0.1267 Uiso
C37_7 C 0.2226(10) 0.9923(7) 0.26515(18) 0.1267 Uiso
H19_7 H 0.1658(7) 0.8043(2) 0.2631(4) 0.1520 Uiso
H20_7 H 0.2011(18) 0.9027(7) 0.2770(3) 0.1520 Uiso
H24_7 H 0.232(4) 0.9878(9) 0.30630(16) 0.1520 Uiso
C1_11 C 0.250 0.3136(5) 0.750 0.1267 Uiso
C2_8 C 0.2993(5) 0.2818(2) 0.7577(2) 0.1267 Uiso
C3_11 C 0.250 0.3904(7) 0.750 0.1267 Uiso
C4_8 C 0.2797(11) 0.4253(7) 0.7664(2) 0.1267 Uiso
C5_8 C 0.2774(10) 0.4923(7) 0.76515(18) 0.1267 Uiso
C6_8 C 0.309(2) 0.5354(8) 0.7825(4) 0.1267 Uiso
C7_8 C 0.3504(19) 0.5870(8) 0.7775(7) 0.1267 Uiso
C8_8 C 0.378(3) 0.6252(8) 0.7928(8) 0.1267 Uiso
C9_8 C 0.364(4) 0.6117(8) 0.8133(8) 0.1267 Uiso
C10_8 C 0.323(5) 0.5601(8) 0.8183(5) 0.1267 Uiso
C11_8 C 0.295(4) 0.5219(8) 0.8030(3) 0.1267 Uiso
C12_8 C 0.390(5) 0.6469(8) 0.8275(9) 0.1267 Uiso
H1_8 H 0.3342(7) 0.3043(2) 0.7631(4) 0.1520 Uiso
H2_8 H 0.2989(18) 0.4027(7) 0.7770(3) 0.1520 Uiso
H3_8 H 0.3595(11) 0.5959(9) 0.7640(7) 0.1520 Uiso
H4_8 H 0.406(3) 0.6593(9) 0.7895(10) 0.1520 Uiso
H5_8 H 0.314(6) 0.5512(9) 0.8318(4) 0.1520 Uiso
H6_8 H 0.268(4) 0.4878(9) 0.80630(16) 0.1520 Uiso
N1_11 N 0.250 0.5251(12) 0.750 0.1267 Uiso
C13_11 C 0.250 0.1864(5) 0.750 0.1267 Uiso
C14_8 C 0.2993(5) 0.2182(2) 0.7577(2) 0.1267 Uiso
C15_11 C 0.250 0.1096(7) 0.750 0.1267 Uiso
C16_8 C 0.2797(11) 0.0747(7) 0.7664(2) 0.1267 Uiso
C17_8 C 0.2774(10) 0.0077(7) 0.76515(18) 0.1267 Uiso
H7_8 H 0.3342(7) 0.1957(2) 0.7631(4) 0.1520 Uiso
H8_8 H 0.2989(18) 0.0973(7) 0.7770(3) 0.1520 Uiso
H12_8 H 0.268(4) 0.0122(9) 0.80630(16) 0.1520 Uiso
C25_8 C 0.2007(5) 0.2818(2) 0.7423(2) 0.1267 Uiso
C26_8 C 0.2203(11) 0.4253(7) 0.7336(2) 0.1267 Uiso
C27_8 C 0.2226(10) 0.4923(7) 0.73485(18) 0.1267 Uiso
C28_8 C 0.191(2) 0.5354(8) 0.7175(4) 0.1267 Uiso
C29_8 C 0.1496(19) 0.5870(8) 0.7225(7) 0.1267 Uiso
C30_8 C 0.122(3) 0.6252(8) 0.7072(8) 0.1267 Uiso
C31_8 C 0.136(4) 0.6117(8) 0.6867(8) 0.1267 Uiso
C32_8 C 0.177(5) 0.5601(8) 0.6817(5) 0.1267 Uiso
C33_8 C 0.205(4) 0.5219(8) 0.6970(3) 0.1267 Uiso
C34_8 C 0.110(5) 0.6469(8) 0.6725(9) 0.1267 Uiso
H13_8 H 0.1658(7) 0.3043(2) 0.7369(4) 0.1520 Uiso
H14_8 H 0.2011(18) 0.4027(7) 0.7230(3) 0.1520 Uiso
H15_8 H 0.1405(11) 0.5959(9) 0.7360(7) 0.1520 Uiso
H16_8 H 0.094(3) 0.6593(9) 0.7105(10) 0.1520 Uiso
H17_8 H 0.186(6) 0.5512(9) 0.6682(4) 0.1520 Uiso
H18_8 H 0.232(4) 0.4878(9) 0.69370(16) 0.1520 Uiso
C35_8 C 0.2007(5) 0.2182(2) 0.7423(2) 0.1267 Uiso
C36_8 C 0.2203(11) 0.0747(7) 0.7336(2) 0.1267 Uiso
C37_8 C 0.2226(10) 0.0077(7) 0.73485(18) 0.1267 Uiso
H19_8 H 0.1658(7) 0.1957(2) 0.7369(4) 0.1520 Uiso
H20_8 H 0.2011(18) 0.0973(7) 0.7230(3) 0.1520 Uiso
H24_8 H 0.232(4) 0.0122(9) 0.69370(16) 0.1520 Uiso
C18_8 C 0.309(2) 0.9646(8) 0.7825(4) 0.1267 Uiso
C19_8 C 0.3504(19) 0.9130(8) 0.7775(7) 0.1267 Uiso
C20_8 C 0.378(3) 0.8748(8) 0.7928(8) 0.1267 Uiso
C21_8 C 0.364(4) 0.8883(8) 0.8133(8) 0.1267 Uiso
C22_8 C 0.323(5) 0.9399(8) 0.8183(5) 0.1267 Uiso
C23_8 C 0.295(4) 0.9781(8) 0.8030(3) 0.1267 Uiso
C24_8 C 0.390(5) 0.8531(8) 0.8275(9) 0.1267 Uiso
H9_8 H 0.3595(11) 0.9041(9) 0.7640(7) 0.1520 Uiso
H10_8 H 0.406(3) 0.8407(9) 0.7895(10) 0.1520 Uiso
H11_8 H 0.314(6) 0.9488(9) 0.8318(4) 0.1520 Uiso
N2_11 N 0.250 0.9749(12) 0.750 0.1267 Uiso
C38_8 C 0.191(2) 0.9646(8) 0.7175(4) 0.1267 Uiso
C39_8 C 0.1496(19) 0.9130(8) 0.7225(7) 0.1267 Uiso
C40_8 C 0.122(3) 0.8748(8) 0.7072(8) 0.1267 Uiso
C41_8 C 0.136(4) 0.8883(8) 0.6867(8) 0.1267 Uiso
C42_8 C 0.177(5) 0.9399(8) 0.6817(5) 0.1267 Uiso
C43_8 C 0.205(4) 0.9781(8) 0.6970(3) 0.1267 Uiso
C44_8 C 0.110(5) 0.8531(8) 0.6725(9) 0.1267 Uiso
H21_8 H 0.1405(11) 0.9041(9) 0.7360(7) 0.1520 Uiso
H22_8 H 0.094(3) 0.8407(9) 0.7105(10) 0.1520 Uiso
H23_8 H 0.186(6) 0.9488(9) 0.6682(4) 0.1520 Uiso
O13_8 O 0.0515(7) 0.0470(7) 0.3704(3) 0.1267 Uiso
O16_8 O 0.2030(7) 0.1985(7) 0.3796(3) 0.1267 Uiso
C13_12 C 0.0636(5) 0.000 1.000 0.1267 Uiso
C15_12 C 0.1404(7) 0.000 1.000 0.1267 Uiso
N2_12 N 0.2751(12) 0.000 1.000 0.1267 Uiso
C13_13 C 0.0636(5) 1.000 0.000 0.1267 Uiso
C15_13 C 0.1404(7) 1.000 0.000 0.1267 Uiso
N2_13 N 0.2751(12) 1.000 0.000 0.1267 Uiso
C1_12 C 0.9364(5) 0.000 1.000 0.1267 Uiso
C3_12 C 0.8596(7) 0.000 1.000 0.1267 Uiso
N1_12 N 0.7249(12) 0.000 1.000 0.1267 Uiso
C1_13 C 0.9364(5) 1.000 0.000 0.1267 Uiso
C3_13 C 0.8596(7) 1.000 0.000 0.1267 Uiso
N1_13 N 0.7249(12) 1.000 0.000 0.1267 Uiso
loop_
_geom_bond_atom_site_label_1
_geom_bond_atom_site_label_2
_geom_bond_site_symmetry_1
_geom_bond_site_symmetry_2
C1 C2 1_555 1_555
C2 H1 1_555 1_555
C3 C1 1_555 1_555
C4 C3 1_555 1_555
C5 C4 1_555 1_555
C6 C5 1_555 1_555
C7 C6 1_555 1_555
C8 C7 1_555 1_555
C9 C8 1_555 1_555
C10 C9 1_555 1_555
C11 C6 1_555 1_555
C12 C9 1_555 1_555
O1 C12 1_555 1_555
O2 C12 1_555 1_555
H2 C4 1_555 1_555
H3 C7 1_555 1_555
H4 C8 1_555 1_555
H5 C10 1_555 1_555
H6 C11 1_555 1_555
N1 C5 1_555 1_555
Zr1 O1 1_555 1_555
Zr2 O2 1_555 1_555
O3 Zr1 1_555 1_555
O4 Zr1 1_555 1_555
O5 Zr2 1_555 1_555
O14 Zr2 1_555 1_555
O15 Zr1 1_555 1_555
O17 Zr1 1_555 1_555
O18 Zr1 1_555 1_555
O19 Zr1 1_555 1_555
O20 Zr2 1_555 1_555
Zr7 O4 1_555 1_555
Zr8 O3 1_555 1_555
Zr10 O15 1_555 1_555
O22 Zr1 1_555 1_555
O24 Zr2 1_555 1_555
O26 Zr2 1_555 1_555
C10 C11 1_555 1_555
Zr2 O3 1_555 1_555
Zr2 O4 1_555 1_555
O15 Zr8 1_555 1_555
Zr7 O22 1_555 1_555
Zr7 O24 1_555 1_555
Zr8 O26 1_555 1_555
Zr10 O22 1_555 1_555
C3_2 C1_2 1_555 1_555
C25 C1_2 1_555 1_555
C26 C3_2 1_555 1_555
C27 N1_2 1_555 1_555
C28 C27 1_555 1_555
C29 C28 1_555 1_555
C30 C29 1_555 1_555
C31 C30 1_555 1_555
C32 C31 1_555 1_555
C33 C28 1_555 1_555
C34 C31 1_555 1_555
O8 C34 1_555 1_555
O9 C34 1_555 1_555
H13 C25 1_555 1_555
H14 C26 1_555 1_555
H15 C29 1_555 1_555
H16 C30 1_555 1_555
H17 C32 1_555 1_555
H18 C33 1_555 1_555
Zr6 O8 1_555 1_555
Zr11 O9 1_555 1_555
C26 C27 1_555 1_555
C32 C33 1_555 1_555
C13 C14 1_555 1_555
C15 C13 1_555 1_555
C16 C15 1_555 1_555
C17 C16 1_555 1_555
C18 C17 1_555 1_555
C19 C18 1_555 1_555
C20 C19 1_555 1_555
C21 C20 1_555 1_555
C22 C21 1_555 1_555
C23 C18 1_555 1_555
C24 C21 1_555 1_555
O17 C24 1_555 1_555
O7 C24 1_555 1_555
H7 C14 1_555 1_555
H8 C16 1_555 1_555
H9 C19 1_555 1_555
H10 C20 1_555 1_555
H11 C22 1_555 1_555
H12 C23 1_555 1_555
N2 C17 1_555 1_555
Zr7 O7 1_555 1_555
O13 Zr7 1_555 1_555
O16 Zr7 1_555 1_555
O21 Zr7 1_555 1_555
O27 Zr7 1_555 1_555
C22 C23 1_555 1_555
Zr10 O27 1_555 1_555
C15_2 C13_2 1_555 1_555
C35 C13_2 1_555 1_555
C36 C15_2 1_555 1_555
C37 N2_2 1_555 1_555
C38 C37 1_555 1_555
C39 C38 1_555 1_555
C40 C39 1_555 1_555
C41 C40 1_555 1_555
C42 C41 1_555 1_555
C43 C38 1_555 1_555
C44 C41 1_555 1_555
O10 C44 1_555 1_555
O11 C44 1_555 1_555
H19 C35 1_555 1_555
H20 C36 1_555 1_555
H21 C39 1_555 1_555
H22 C40 1_555 1_555
H23 C42 1_555 1_555
H24 C43 1_555 1_555
Zr6 O10 1_555 1_555
Zr12 O11 1_555 1_555
C36 C37 1_555 1_555
C42 C43 1_555 1_555
Zr4 O25 1_555 1_555
C1_3 C2_2 1_555 1_555
C2_2 H1_2 1_555 1_555
C3_3 C1_3 1_555 1_555
C4_2 C3_3 1_555 1_555
C5_2 C4_2 1_555 1_555
C6_2 C5_2 1_555 1_555
C7_2 C6_2 1_555 1_555
C8_2 C7_2 1_555 1_555
C9_2 C8_2 1_555 1_555
C10_2 C9_2 1_555 1_555
C11_2 C6_2 1_555 1_555
C12_2 C9_2 1_555 1_555
O1_2 C12_2 1_555 1_555
O2_2 C12_2 1_555 1_555
H2_2 C4_2 1_555 1_555
H3_2 C7_2 1_555 1_555
H4_2 C8_2 1_555 1_555
H5_2 C10_2 1_555 1_555
H6_2 C11_2 1_555 1_555
N1_3 C5_2 1_555 1_555
Zr4 O1_2 1_555 1_555
Zr2_2 O2_2 1_555 1_555
O3_2 Zr4 1_555 1_555
O5_2 Zr2_2 1_555 1_555
C13_3 C14_2 1_555 1_555
C14_2 C2_2 1_555 1_555
C15_3 C13_3 1_555 1_555
C16_2 C15_3 1_555 1_555
C17_2 C16_2 1_555 1_555
C18_2 C17_2 1_555 1_555
C19_2 C18_2 1_555 1_555
C20_2 C19_2 1_555 1_555
C21_2 C20_2 1_555 1_555
C22_2 C21_2 1_555 1_555
C23_2 C18_2 1_555 1_555
C24_2 C21_2 1_555 1_555
O6 C24_2 1_555 1_555
O7_2 C24_2 1_555 1_555
H7_2 C14_2 1_555 1_555
H8_2 C16_2 1_555 1_555
H9_2 C19_2 1_555 1_555
H10_2 C20_2 1_555 1_555
H11_2 C22_2 1_555 1_555
H12_2 C23_2 1_555 1_555
N2_3 C17_2 1_555 1_555
C25_2 C1_3 1_555 1_555
C26_2 C3_3 1_555 1_555
C27_2 N1_3 1_555 1_555
C28_2 C27_2 1_555 1_555
C29_2 C28_2 1_555 1_555
C30_2 C29_2 1_555 1_555
C31_2 C30_2 1_555 1_555
C32_2 C31_2 1_555 1_555
C33_2 C28_2 1_555 1_555
C34_2 C31_2 1_555 1_555
O8_2 C34_2 1_555 1_555
O9_2 C34_2 1_555 1_555
H13_2 C25_2 1_555 1_555
H14_2 C26_2 1_555 1_555
H15_2 C29_2 1_555 1_555
H16_2 C30_2 1_555 1_555
H17_2 C32_2 1_555 1_555
H18_2 C33_2 1_555 1_555
C35_2 C13_3 1_555 1_555
C36_2 C15_3 1_555 1_555
C37_2 N2_3 1_555 1_555
C38_2 C37_2 1_555 1_555
C39_2 C38_2 1_555 1_555
C40_2 C39_2 1_555 1_555
C41_2 C40_2 1_555 1_555
C42_2 C41_2 1_555 1_555
C43_2 C38_2 1_555 1_555
C44_2 C41_2 1_555 1_555
O10_2 C44_2 1_555 1_555
O11_2 C44_2 1_555 1_555
H19_2 C35_2 1_555 1_555
H20_2 C36_2 1_555 1_555
H21_2 C39_2 1_555 1_555
H22_2 C40_2 1_555 1_555
H23_2 C42_2 1_555 1_555
H24_2 C43_2 1_555 1_555
Zr3 O7_2 1_555 1_555
O12 Zr3 1_555 1_555
O13_2 Zr3 1_555 1_555
O14_2 Zr2_2 1_555 1_555
O15_2 Zr4 1_555 1_555
O16_2 Zr3 1_555 1_555
O19_2 Zr4 1_555 1_555
O20_2 Zr2_2 1_555 1_555
O21_2 Zr3 1_555 1_555
Zr4_2 O6 1_555 1_555
Zr5_2 O10_2 1_555 1_555
Zr5 O8_2 1_555 1_555
Zr8_2 O3_2 1_555 1_555
Zr9 O12 1_555 1_555
Zr11_2 O9_2 1_555 1_555
Zr12_2 O11_2 1_555 1_555
O23_2 Zr3 1_555 1_555
O23 Zr2_2 1_555 1_555
O25_2 Zr3 1_555 1_555
O26_2 Zr2_2 1_555 1_555
O27_2 Zr3 1_555 1_555
C10_2 C11_2 1_555 1_555
Zr2_2 O3_2 1_555 1_555
Zr2_2 O25 1_555 1_555
C22_2 C23_2 1_555 1_555
C25_2 C35_2 1_555 1_555
C26_2 C27_2 1_555 1_555
C32_2 C33_2 1_555 1_555
C36_2 C37_2 1_555 1_555
C42_2 C43_2 1_555 1_555
O12 Zr4_2 1_555 1_555
O15_2 Zr8_2 1_555 1_555
Zr4_2 O25_2 1_555 1_555
Zr8_2 O26_2 1_555 1_555
Zr9 O27_2 1_555 1_555
O15_3 Zr4_2 1_555 1_555
O18_2 Zr4_2 1_555 1_555
Zr9 O15_3 1_555 1_555
Zr5 O25_3 1_555 1_555
O3_3 Zr5 1_555 1_555
O5_3 Zr11_2 1_555 1_555
O12_2 Zr12_2 1_555 1_555
O13_3 Zr12_2 1_555 1_555
O14_3 Zr11_2 1_555 1_555
O15_4 Zr5 1_555 1_555
O16_3 Zr12_2 1_555 1_555
O19_3 Zr5 1_555 1_555
O20_3 Zr11_2 1_555 1_555
O21_3 Zr12_2 1_555 1_555
Zr8_3 O3_3 1_555 1_555
Zr9_2 O12_2 1_555 1_555
O23_4 Zr12_2 1_555 1_555
O23_3 Zr11_2 1_555 1_555
O25_4 Zr12_2 1_555 1_555
O26_3 Zr11_2 1_555 1_555
O27_3 Zr12_2 1_555 1_555
Zr11_2 O3_3 1_555 1_555
Zr11_2 O25_3 1_555 1_555
O12_2 Zr5_2 1_555 1_555
O15_4 Zr8_3 1_555 1_555
Zr5_2 O25_4 1_555 1_555
Zr8_3 O26_3 1_555 1_555
Zr9_2 O27_3 1_555 1_555
O15_5 Zr5_2 1_555 1_555
O18_3 Zr5_2 1_555 1_555
Zr9_2 O15_5 1_555 1_555
O23 Zr4_3 1_555 1_555
O3_4 Zr4_3 1_555 1_555
O26_2 Zr4_3 1_555 1_555
O18_4 Zr4_3 1_555 1_555
O19_4 Zr4_3 1_555 1_555
Zr8_2 O3_4 1_555 1_555
C1_4 C2_3 1_555 1_555
C2_3 H1_3 1_555 1_555
C3_4 C1_4 1_555 1_555
C4_3 C3_4 1_555 1_555
C5_3 C4_3 1_555 1_555
H2_3 C4_3 1_555 1_555
C13_4 C14_3 1_555 1_555
C14_3 C2_3 1_555 1_555
C15_4 C13_4 1_555 1_555
C16_3 C15_4 1_555 1_555
C17_3 C16_3 1_555 1_555
C18_3 C17_3 1_555 1_555
C19_3 C18_3 1_555 1_555
C20_3 C19_3 1_555 1_555
C21_3 C20_3 1_555 1_555
C22_3 C21_3 1_555 1_555
C23_3 C18_3 1_555 1_555
C24_3 C21_3 1_555 1_555
O6_2 C24_3 1_555 1_555
O21_2 C24_3 1_555 1_555
H7_3 C14_3 1_555 1_555
H8_3 C16_3 1_555 1_555
H9_3 C19_3 1_555 1_555
H10_3 C20_3 1_555 1_555
H11_3 C22_3 1_555 1_555
H12_3 C23_3 1_555 1_555
N2_4 C17_3 1_555 1_555
C25_3 C1_4 1_555 1_555
C26_3 C3_4 1_555 1_555
H13_3 C25_3 1_555 1_555
H14_3 C26_3 1_555 1_555
C35_3 C13_4 1_555 1_555
C36_3 C15_4 1_555 1_555
C37_3 N2_4 1_555 1_555
C38_3 C37_3 1_555 1_555
C39_3 C38_3 1_555 1_555
C40_3 C39_3 1_555 1_555
C41_3 C40_3 1_555 1_555
C42_3 C41_3 1_555 1_555
C43_3 C38_3 1_555 1_555
C44_3 C41_3 1_555 1_555
O10_3 C44_3 1_555 1_555
O11_3 C44_3 1_555 1_555
H19_3 C35_3 1_555 1_555
H20_3 C36_3 1_555 1_555
H21_3 C39_3 1_555 1_555
H22_3 C40_3 1_555 1_555
H23_3 C42_3 1_555 1_555
H24_3 C43_3 1_555 1_555
Zr4_4 O6_2 1_555 1_555
Zr5_3 O10_3 1_555 1_555
Zr12 O11_3 1_555 1_555
C22_3 C23_3 1_555 1_555
C25_3 C35_3 1_555 1_555
C26_3 C27_3 1_555 1_555
C36_3 C37_3 1_555 1_555
C42_3 C43_3 1_555 1_555
O23_2 Zr4_4 1_555 1_555
Zr4_4 O27_2 1_555 1_555
C7_3 C6_3 1_555 1_555
C8_3 C7_3 1_555 1_555
C9_3 C8_3 1_555 1_555
C10_3 C9_3 1_555 1_555
C11_3 C6_3 1_555 1_555
C12_3 C9_3 1_555 1_555
O1_3 C12_3 1_555 1_555
O2_3 C12_3 1_555 1_555
H3_3 C7_3 1_555 1_555
H4_3 C8_3 1_555 1_555
H5_3 C10_3 1_555 1_555
Zr4_4 O1_3 1_555 1_555
Zr9 O2_3 1_555 1_555
O3_5 Zr4_4 1_555 1_555
O5_4 Zr9 1_555 1_555
C29_3 C28_3 1_555 1_555
C30_3 C29_3 1_555 1_555
C31_3 C30_3 1_555 1_555
C32_3 C31_3 1_555 1_555
C33_3 C28_3 1_555 1_555
C34_3 C31_3 1_555 1_555
O8_3 C34_3 1_555 1_555
O9_3 C34_3 1_555 1_555
H15_3 C29_3 1_555 1_555
H16_3 C30_3 1_555 1_555
H17_3 C32_3 1_555 1_555
O14_4 Zr9 1_555 1_555
O20_4 Zr9 1_555 1_555
Zr5_3 O8_3 1_555 1_555
Zr11_3 O9_3 1_555 1_555
C10_3 C11_3 1_555 1_555
Zr9 O3_5 1_555 1_555
C32_3 C33_3 1_555 1_555
O3_6 Zr1_2 1_555 1_555
O26_3 Zr1_2 1_555 1_555
O18_5 Zr1_2 1_555 1_555
O19_5 Zr1_2 1_555 1_555
Zr8_3 O3_6 1_555 1_555
O23_3 Zr1_2 1_555 1_555
C7_4 C6_4 1_555 1_555
C8_4 C7_4 1_555 1_555
C9_4 C8_4 1_555 1_555
C10_4 C9_4 1_555 1_555
C11_4 C6_4 1_555 1_555
C12_4 C9_4 1_555 1_555
O1_4 C12_4 1_555 1_555
O2_4 C12_4 1_555 1_555
H3_4 C7_4 1_555 1_555
H4_4 C8_4 1_555 1_555
H5_4 C10_4 1_555 1_555
Zr1_3 O1_4 1_555 1_555
Zr9_2 O2_4 1_555 1_555
O3_7 Zr1_3 1_555 1_555
O27_3 Zr1_3 1_555 1_555
O5_5 Zr9_2 1_555 1_555
C29_4 C28_4 1_555 1_555
C30_4 C29_4 1_555 1_555
C31_4 C30_4 1_555 1_555
C32_4 C31_4 1_555 1_555
C33_4 C28_4 1_555 1_555
C34_4 C31_4 1_555 1_555
O8_4 C34_4 1_555 1_555
O9_4 C34_4 1_555 1_555
H15_4 C29_4 1_555 1_555
H16_4 C30_4 1_555 1_555
H17_4 C32_4 1_555 1_555
O14_5 Zr9_2 1_555 1_555
O17_2 Zr1_3 1_555 1_555
O20_5 Zr9_2 1_555 1_555
Zr6_2 O8_4 1_555 1_555
Zr10 O9_4 1_555 1_555
O23_4 Zr1_3 1_555 1_555
C10_4 C11_4 1_555 1_555
Zr9_2 O3_7 1_555 1_555
C32_4 C33_4 1_555 1_555
C1_5 C2_4 1_555 1_555
C2_4 H1_4 1_555 1_555
C3_5 C1_5 1_555 1_555
C4_4 C3_5 1_555 1_555
C5_4 C4_4 1_555 1_555
H2_4 C4_4 1_555 1_555
C13_5 C14_4 1_555 1_555
C14_4 C2_4 1_555 1_555
C15_5 C13_5 1_555 1_555
C16_4 C15_5 1_555 1_555
C17_4 C16_4 1_555 1_555
C18_4 C17_4 1_555 1_555
C19_4 C18_4 1_555 1_555
C20_4 C19_4 1_555 1_555
C21_4 C20_4 1_555 1_555
C22_4 C21_4 1_555 1_555
C23_4 C18_4 1_555 1_555
C24_4 C21_4 1_555 1_555
O17_2 C24_4 1_555 1_555
O21_3 C24_4 1_555 1_555
H7_4 C14_4 1_555 1_555
H8_4 C16_4 1_555 1_555
H9_4 C19_4 1_555 1_555
H10_4 C20_4 1_555 1_555
H11_4 C22_4 1_555 1_555
H12_4 C23_4 1_555 1_555
N2_5 C17_4 1_555 1_555
C25_4 C1_5 1_555 1_555
C26_4 C3_5 1_555 1_555
H13_4 C25_4 1_555 1_555
H14_4 C26_4 1_555 1_555
C35_4 C13_5 1_555 1_555
C36_4 C15_5 1_555 1_555
C37_4 N2_5 1_555 1_555
C38_4 C37_4 1_555 1_555
C39_4 C38_4 1_555 1_555
C40_4 C39_4 1_555 1_555
C41_4 C40_4 1_555 1_555
C42_4 C41_4 1_555 1_555
C43_4 C38_4 1_555 1_555
C44_4 C41_4 1_555 1_555
O10_4 C44_4 1_555 1_555
O21 C44_4 1_555 1_555
H19_4 C35_4 1_555 1_555
H20_4 C36_4 1_555 1_555
H21_4 C39_4 1_555 1_555
H22_4 C40_4 1_555 1_555
H23_4 C42_4 1_555 1_555
H24_4 C43_4 1_555 1_555
Zr6_2 O10_4 1_555 1_555
C22_4 C23_4 1_555 1_555
C25_4 C35_4 1_555 1_555
C26_4 C27_4 1_555 1_555
C36_4 C37_4 1_555 1_555
C42_4 C43_4 1_555 1_555
O12_3 Zr12 1_555 1_555
O13_4 Zr12 1_555 1_555
O16_4 Zr12 1_555 1_555
Zr11 O12_3 1_555 1_555
O23_5 Zr12 1_555 1_555
O25_5 Zr12 1_555 1_555
O27_4 Zr12 1_555 1_555
O12_3 Zr5_3 1_555 1_555
Zr5_3 O25_5 1_555 1_555
Zr11 O27_4 1_555 1_555
O3_8 Zr5_3 1_555 1_555
O5_6 Zr11_3 1_555 1_555
O14_6 Zr11_3 1_555 1_555
O15_6 Zr5_3 1_555 1_555
O18_6 Zr5_3 1_555 1_555
O19_6 Zr5_3 1_555 1_555
O20_6 Zr11_3 1_555 1_555
Zr8_4 O3_8 1_555 1_555
Zr11 O15_6 1_555 1_555
O23_5 Zr11_3 1_555 1_555
O26_4 Zr11_3 1_555 1_555
Zr11_3 O3_8 1_555 1_555
Zr11_3 O25_5 1_555 1_555
O15_6 Zr8_4 1_555 1_555
Zr8_4 O26_4 1_555 1_555
O3_9 Zr6_2 1_555 1_555
O27 Zr6_2 1_555 1_555
O5_7 Zr10 1_555 1_555
O14_7 Zr10 1_555 1_555
O26 Zr6_2 1_555 1_555
O18_7 Zr6_2 1_555 1_555
O19_7 Zr6_2 1_555 1_555
O20_7 Zr10 1_555 1_555
Zr8 O3_9 1_555 1_555
O24 Zr6_2 1_555 1_555
Zr10 O3_9 1_555 1_555
O3_10 Zr6 1_555 1_555
O27_4 Zr6 1_555 1_555
O5_8 Zr11 1_555 1_555
O14_8 Zr11 1_555 1_555
O26_4 Zr6 1_555 1_555
O18_8 Zr6 1_555 1_555
O19_8 Zr6 1_555 1_555
O20_8 Zr11 1_555 1_555
Zr8_4 O3_10 1_555 1_555
O23_5 Zr6 1_555 1_555
Zr11 O3_10 1_555 1_555
C3_6 C1_6 1_555 1_555
C15_6 C13_6 1_555 1_555
C25_5 C1_6 1_555 1_555
C26_5 C3_6 1_555 1_555
C27_5 N1_6 1_555 1_555
C28_5 C27_5 1_555 1_555
C29_5 C28_5 1_555 1_555
C30_5 C29_5 1_555 1_555
C31_5 C30_5 1_555 1_555
C32_5 C31_5 1_555 1_555
C33_5 C28_5 1_555 1_555
C34_5 C31_5 1_555 1_555
O18_3 C34_5 1_555 1_555
O20_5 C34_5 1_555 1_555
H13_5 C25_5 1_555 1_555
H14_5 C26_5 1_555 1_555
H15_5 C29_5 1_555 1_555
H16_5 C30_5 1_555 1_555
H17_5 C32_5 1_555 1_555
H18_5 C33_5 1_555 1_555
C35_5 C13_6 1_555 1_555
C36_5 C15_6 1_555 1_555
C37_5 N2_6 1_555 1_555
C38_5 C37_5 1_555 1_555
C39_5 C38_5 1_555 1_555
C40_5 C39_5 1_555 1_555
C41_5 C40_5 1_555 1_555
C42_5 C41_5 1_555 1_555
C43_5 C38_5 1_555 1_555
C44_5 C41_5 1_555 1_555
O19_3 C44_5 1_555 1_555
O11_4 C44_5 1_555 1_555
H19_5 C35_5 1_555 1_555
H20_5 C36_5 1_555 1_555
H21_5 C39_5 1_555 1_555
H22_5 C40_5 1_555 1_555
H23_5 C42_5 1_555 1_555
H24_5 C43_5 1_555 1_555
Zr8_3 O11_4 1_555 1_555
C25_5 C35_5 1_555 1_555
C26_5 C27_5 1_555 1_555
C32_5 C33_5 1_555 1_555
C36_5 C37_5 1_555 1_555
C42_5 C43_5 1_555 1_555
C1_7 C2_5 1_555 1_555
C2_5 H1_5 1_555 1_555
C3_7 C1_7 1_555 1_555
C4_5 C3_7 1_555 1_555
C5_5 C4_5 1_555 1_555
C6_5 C5_5 1_555 1_555
C7_5 C6_5 1_555 1_555
C8_5 C7_5 1_555 1_555
C9_5 C8_5 1_555 1_555
C10_5 C9_5 1_555 1_555
C11_5 C6_5 1_555 1_555
C12_5 C9_5 1_555 1_555
O18_2 C12_5 1_555 1_555
O20_4 C12_5 1_555 1_555
H2_5 C4_5 1_555 1_555
H3_5 C7_5 1_555 1_555
H4_5 C8_5 1_555 1_555
H5_5 C10_5 1_555 1_555
H6_5 C11_5 1_555 1_555
N1_7 C5_5 1_555 1_555
C13_7 C14_5 1_555 1_555
C14_5 C2_5 1_555 1_555
C15_7 C13_7 1_555 1_555
C16_5 C15_7 1_555 1_555
C17_5 C16_5 1_555 1_555
C18_5 C17_5 1_555 1_555
C19_5 C18_5 1_555 1_555
C20_5 C19_5 1_555 1_555
C21_5 C20_5 1_555 1_555
C22_5 C21_5 1_555 1_555
C23_5 C18_5 1_555 1_555
C24_5 C21_5 1_555 1_555
O19_2 C24_5 1_555 1_555
O7_3 C24_5 1_555 1_555
H7_5 C14_5 1_555 1_555
H8_5 C16_5 1_555 1_555
H9_5 C19_5 1_555 1_555
H10_5 C20_5 1_555 1_555
H11_5 C22_5 1_555 1_555
H12_5 C23_5 1_555 1_555
N2_7 C17_5 1_555 1_555
Zr8_2 O7_3 1_555 1_555
O13_5 Zr8_2 1_555 1_555
O16_5 Zr8_2 1_555 1_555
O21_4 Zr8_2 1_555 1_555
C10_5 C11_5 1_555 1_555
C22_5 C23_5 1_555 1_555
C13_8 C14_6 1_555 1_555
C15_8 C13_8 1_555 1_555
C16_6 C15_8 1_555 1_555
C17_6 C16_6 1_555 1_555
C18_6 C17_6 1_555 1_555
C19_6 C18_6 1_555 1_555
C20_6 C19_6 1_555 1_555
C21_6 C20_6 1_555 1_555
C22_6 C21_6 1_555 1_555
C23_6 C18_6 1_555 1_555
C24_6 C21_6 1_555 1_555
O19 C24_6 1_555 1_555
O7_4 C24_6 1_555 1_555
H7_6 C14_6 1_555 1_555
H8_6 C16_6 1_555 1_555
H9_6 C19_6 1_555 1_555
H10_6 C20_6 1_555 1_555
H11_6 C22_6 1_555 1_555
H12_6 C23_6 1_555 1_555
N2_8 C17_6 1_555 1_555
Zr8 O7_4 1_555 1_555
O13_6 Zr8 1_555 1_555
O16_6 Zr8 1_555 1_555
O21_5 Zr8 1_555 1_555
C22_6 C23_6 1_555 1_555
C15_9 C13_9 1_555 1_555
C35_6 C13_9 1_555 1_555
C36_6 C15_9 1_555 1_555
C37_6 N2_9 1_555 1_555
C38_6 C37_6 1_555 1_555
C39_6 C38_6 1_555 1_555
C40_6 C39_6 1_555 1_555
C41_6 C40_6 1_555 1_555
C42_6 C41_6 1_555 1_555
C43_6 C38_6 1_555 1_555
C44_6 C41_6 1_555 1_555
O19_8 C44_6 1_555 1_555
O11_5 C44_6 1_555 1_555
H19_6 C35_6 1_555 1_555
H20_6 C36_6 1_555 1_555
H21_6 C39_6 1_555 1_555
H22_6 C40_6 1_555 1_555
H23_6 C42_6 1_555 1_555
H24_6 C43_6 1_555 1_555
Zr8_4 O11_5 1_555 1_555
C36_6 C37_6 1_555 1_555
C42_6 C43_6 1_555 1_555
C1_8 C2_6 1_555 1_555
C2_6 H1_6 1_555 1_555
C3_8 C1_8 1_555 1_555
C4_6 C3_8 1_555 1_555
C5_6 C4_6 1_555 1_555
C6_6 C5_6 1_555 1_555
C7_6 C6_6 1_555 1_555
C8_6 C7_6 1_555 1_555
C9_6 C8_6 1_555 1_555
C10_6 C9_6 1_555 1_555
C11_6 C6_6 1_555 1_555
C12_6 C9_6 1_555 1_555
O18 C12_6 1_555 1_555
O20_7 C12_6 1_555 1_555
H2_6 C4_6 1_555 1_555
H3_6 C7_6 1_555 1_555
H4_6 C8_6 1_555 1_555
H5_6 C10_6 1_555 1_555
H6_6 C11_6 1_555 1_555
N1_8 C5_6 1_555 1_555
C10_6 C11_6 1_555 1_555
C3_9 C1_9 1_555 1_555
C25_6 C1_9 1_555 1_555
C26_6 C3_9 1_555 1_555
C27_6 N1_9 1_555 1_555
C28_6 C27_6 1_555 1_555
C29_6 C28_6 1_555 1_555
C30_6 C29_6 1_555 1_555
C31_6 C30_6 1_555 1_555
C32_6 C31_6 1_555 1_555
C33_6 C28_6 1_555 1_555
C34_6 C31_6 1_555 1_555
O18_8 C34_6 1_555 1_555
O20_6 C34_6 1_555 1_555
H13_6 C25_6 1_555 1_555
H14_6 C26_6 1_555 1_555
H15_6 C29_6 1_555 1_555
H16_6 C30_6 1_555 1_555
H17_6 C32_6 1_555 1_555
H18_6 C33_6 1_555 1_555
C26_6 C27_6 1_555 1_555
C32_6 C33_6 1_555 1_555
O13_7 Zr8_4 1_555 1_555
O16_7 Zr8_4 1_555 1_555
O21_6 Zr8_4 1_555 1_555
C19_7 C18_7 1_555 1_555
C20_7 C19_7 1_555 1_555
C21_7 C20_7 1_555 1_555
C22_7 C21_7 1_555 1_555
C23_7 C18_7 1_555 1_555
C24_7 C21_7 1_555 1_555
O19_7 C24_7 1_555 1_555
O21_5 C24_7 1_555 1_555
H9_7 C19_7 1_555 1_555
H10_7 C20_7 1_555 1_555
H11_7 C22_7 1_555 1_555
C39_7 C38_7 1_555 1_555
C40_7 C39_7 1_555 1_555
C41_7 C40_7 1_555 1_555
C42_7 C41_7 1_555 1_555
C43_7 C38_7 1_555 1_555
C44_7 C41_7 1_555 1_555
O19_5 C44_7 1_555 1_555
O11_6 C44_7 1_555 1_555
H21_7 C39_7 1_555 1_555
H22_7 C40_7 1_555 1_555
H23_7 C42_7 1_555 1_555
Zr8_3 O11_6 1_555 1_555
C22_7 C23_7 1_555 1_555
C42_7 C43_7 1_555 1_555
C1_10 C2_7 1_555 1_555
C2_7 H1_7 1_555 1_555
C3_10 C1_10 1_555 1_555
C4_7 C3_10 1_555 1_555
C5_7 C4_7 1_555 1_555
C6_7 C5_7 1_555 1_555
C7_7 C6_7 1_555 1_555
C8_7 C7_7 1_555 1_555
C9_7 C8_7 1_555 1_555
C10_7 C9_7 1_555 1_555
C11_7 C6_7 1_555 1_555
C12_7 C9_7 1_555 1_555
O18_7 C12_7 1_555 1_555
O20 C12_7 1_555 1_555
H2_7 C4_7 1_555 1_555
H3_7 C7_7 1_555 1_555
H4_7 C8_7 1_555 1_555
H5_7 C10_7 1_555 1_555
H6_7 C11_7 1_555 1_555
N1_10 C5_7 1_555 1_555
C13_10 C14_7 1_555 1_555
C14_7 C2_7 1_555 1_555
C15_10 C13_10 1_555 1_555
C16_7 C15_10 1_555 1_555
C17_7 C16_7 1_555 1_555
H7_7 C14_7 1_555 1_555
H8_7 C16_7 1_555 1_555
C25_7 C1_10 1_555 1_555
C26_7 C3_10 1_555 1_555
C27_7 N1_10 1_555 1_555
C28_7 C27_7 1_555 1_555
C29_7 C28_7 1_555 1_555
C30_7 C29_7 1_555 1_555
C31_7 C30_7 1_555 1_555
C32_7 C31_7 1_555 1_555
C33_7 C28_7 1_555 1_555
C34_7 C31_7 1_555 1_555
O18_5 C34_7 1_555 1_555
O20_3 C34_7 1_555 1_555
H13_7 C25_7 1_555 1_555
H14_7 C26_7 1_555 1_555
H15_7 C29_7 1_555 1_555
H16_7 C30_7 1_555 1_555
H17_7 C32_7 1_555 1_555
H18_7 C33_7 1_555 1_555
C35_7 C13_10 1_555 1_555
C36_7 C15_10 1_555 1_555
H19_7 C35_7 1_555 1_555
H20_7 C36_7 1_555 1_555
C10_7 C11_7 1_555 1_555
C25_7 C35_7 1_555 1_555
C26_7 C27_7 1_555 1_555
C32_7 C33_7 1_555 1_555
C36_7 C37_7 1_555 1_555
C1_11 C2_8 1_555 1_555
C2_8 H1_8 1_555 1_555
C3_11 C1_11 1_555 1_555
C4_8 C3_11 1_555 1_555
C5_8 C4_8 1_555 1_555
C6_8 C5_8 1_555 1_555
C7_8 C6_8 1_555 1_555
C8_8 C7_8 1_555 1_555
C9_8 C8_8 1_555 1_555
C10_8 C9_8 1_555 1_555
C11_8 C6_8 1_555 1_555
C12_8 C9_8 1_555 1_555
O18_6 C12_8 1_555 1_555
O20_8 C12_8 1_555 1_555
H2_8 C4_8 1_555 1_555
H3_8 C7_8 1_555 1_555
H4_8 C8_8 1_555 1_555
H5_8 C10_8 1_555 1_555
H6_8 C11_8 1_555 1_555
N1_11 C5_8 1_555 1_555
C13_11 C14_8 1_555 1_555
C14_8 C2_8 1_555 1_555
C15_11 C13_11 1_555 1_555
C16_8 C15_11 1_555 1_555
C17_8 C16_8 1_555 1_555
H7_8 C14_8 1_555 1_555
H8_8 C16_8 1_555 1_555
C25_8 C1_11 1_555 1_555
C26_8 C3_11 1_555 1_555
C27_8 N1_11 1_555 1_555
C28_8 C27_8 1_555 1_555
C29_8 C28_8 1_555 1_555
C30_8 C29_8 1_555 1_555
C31_8 C30_8 1_555 1_555
C32_8 C31_8 1_555 1_555
C33_8 C28_8 1_555 1_555
C34_8 C31_8 1_555 1_555
O18_4 C34_8 1_555 1_555
O20_2 C34_8 1_555 1_555
H13_8 C25_8 1_555 1_555
H14_8 C26_8 1_555 1_555
H15_8 C29_8 1_555 1_555
H16_8 C30_8 1_555 1_555
H17_8 C32_8 1_555 1_555
H18_8 C33_8 1_555 1_555
C35_8 C13_11 1_555 1_555
C36_8 C15_11 1_555 1_555
H19_8 C35_8 1_555 1_555
H20_8 C36_8 1_555 1_555
C10_8 C11_8 1_555 1_555
C25_8 C35_8 1_555 1_555
C26_8 C27_8 1_555 1_555
C32_8 C33_8 1_555 1_555
C36_8 C37_8 1_555 1_555
C19_8 C18_8 1_555 1_555
C20_8 C19_8 1_555 1_555
C21_8 C20_8 1_555 1_555
C22_8 C21_8 1_555 1_555
C23_8 C18_8 1_555 1_555
C24_8 C21_8 1_555 1_555
O19_6 C24_8 1_555 1_555
O21_6 C24_8 1_555 1_555
H9_8 C19_8 1_555 1_555
H10_8 C20_8 1_555 1_555
H11_8 C22_8 1_555 1_555
C39_8 C38_8 1_555 1_555
C40_8 C39_8 1_555 1_555
C41_8 C40_8 1_555 1_555
C42_8 C41_8 1_555 1_555
C43_8 C38_8 1_555 1_555
C44_8 C41_8 1_555 1_555
O19_4 C44_8 1_555 1_555
O21_4 C44_8 1_555 1_555
H21_8 C39_8 1_555 1_555
H22_8 C40_8 1_555 1_555
H23_8 C42_8 1_555 1_555
C22_8 C23_8 1_555 1_555
C42_8 C43_8 1_555 1_555
O13_8 Zr8_3 1_555 1_555
O16_8 Zr8_3 1_555 1_555
C15_12 C13_12 1_555 1_555
C15_13 C13_13 1_555 1_555
C3_12 C1_12 1_555 1_555
C3_13 C1_13 1_555 1_555

#END
