
###############################################################################
#
# This file contains modified crystal structure data generated from the
# MOF subset of the Cambridge Structural Database (CSD) v543 
# hosted by the Cambridge Crystallographic Data Centre (CCDC).
#
# This work is licensed under the Creative Commons
# Attribution-NonCommercial-ShareAlike 4.0 International License.
# To view a copy of this license, visit
# http://creativecommons.org/licenses/by-nc-sa/4.0/
# or send a letter to
# Creative Commons, PO Box 1866, Mountain View, CA 94042, USA.
#
# CIF created using the CSD Python API on 29 September 2022
# The structure has been converted into the P1 space group
# The structure has a 3D framework
# The original CSD entry VISZEF is in the tetragonal crystal system
# The framework has been calculated to contain at least 10.0% void space
# The void calculation uses a probe of radius 1.32A, grid spacing 0.4
# H atom positions have been added when not included in the experimental data
# Generated hydrogen atom positions removed from atoms on special positions
#
###############################################################################

data_VISZEF
_chemical_formula_moiety         '(C372 H384 N26 O126 Zr28)n'
_symmetry_cell_setting           triclinic
_symmetry_space_group_name_H-M   'P 1'
_symmetry_Int_Tables_number      1
_space_group_name_Hall           'P 1'
loop_
_symmetry_equiv_pos_site_id
_symmetry_equiv_pos_as_xyz
1 x,y,z
_cell_length_a                   20.5600(3)
_cell_length_b                   20.5600(3)
_cell_length_c                   67.1128(11)
_cell_angle_alpha                90
_cell_angle_beta                 90
_cell_angle_gamma                90
_cell_volume                     28369.5
loop_
_atom_site_label
_atom_site_type_symbol
_atom_site_fract_x
_atom_site_fract_y
_atom_site_fract_z
C1 C 0.0633(9) 0.500 0.000
C2 C 0.0316(5) 0.4520(10) 0.0081(4)
C3 C 0.1365(14) 0.500 0.000
C4 C 0.1716(14) 0.472(2) 0.0165(3)
C5 C 0.2392(14) 0.474(2) 0.0153(3)
C6 C 0.2746(15) 0.450(4) 0.0295(6)
C7 C 0.3334(16) 0.404(3) 0.0244(12)
C8 C 0.3760(17) 0.375(5) 0.0415(15)
C9 C 0.3596(16) 0.391(8) 0.0637(13)
C10 C 0.3008(16) 0.436(9) 0.0688(8)
C11 C 0.2583(16) 0.465(7) 0.0517(5)
C12 C 0.3950(16) 0.367(10) 0.0779(16)
O1 O 0.442(2) 0.326(10) 0.074(2)
O2 O 0.384(2) 0.383(12) 0.0964(15)
H1 H 0.0544(5) 0.4174(14) 0.0139(7)
H2 H 0.1489(14) 0.453(3) 0.0272(6)
H3 H 0.3432(17) 0.3949(18) 0.0111(13)
H4 H 0.4112(18) 0.348(5) 0.0384(18)
H5 H 0.2910(17) 0.446(11) 0.0821(7)
H6 H 0.2231(17) 0.493(7) 0.0548(3)
N1 N 0.272(2) 0.500 0.000
Zr1 Zr 0.500 0.250 0.08628(16)
Zr2 Zr 0.4182(2) 0.3318(2) 0.125
O3 O 0.413(2) 0.250 0.1041(8)
O4 O 0.500 0.335(2) 0.1052(8)
O5 O 0.2978(13) 0.3200(13) 0.1279(5)
O14 O 0.4300(13) 0.4522(13) 0.1221(5)
O15 O 0.500 0.165(2) 0.1052(8)
O17 O 0.558(2) 0.326(10) 0.074(2)
O18 O 0.558(2) 0.174(10) 0.074(2)
O19 O 0.442(2) 0.174(10) 0.074(2)
O20 O 0.367(12) 0.366(2) 0.1536(15)
Zr7 Zr 0.5818(2) 0.3318(2) 0.125
Zr8 Zr 0.4182(2) 0.1682(2) 0.125
Zr10 Zr 0.5818(2) 0.1682(2) 0.125
O22 O 0.587(2) 0.250 0.1041(8)
O24 O 0.500 0.337(2) 0.1459(8)
O26 O 0.415(2) 0.250 0.1448(8)
C1_2 C 0.0633(9) 0.500 1.000
C3_2 C 0.1365(14) 0.500 1.000
N1_2 N 0.272(2) 0.500 1.000
C25 C 0.0316(5) 0.5480(10) 0.9919(4)
C26 C 0.1716(14) 0.528(2) 0.9835(3)
C27 C 0.2392(14) 0.526(2) 0.9847(3)
C28 C 0.2746(15) 0.550(4) 0.9705(6)
C29 C 0.3334(16) 0.596(3) 0.9756(12)
C30 C 0.3760(17) 0.625(5) 0.9585(15)
C31 C 0.3596(16) 0.609(8) 0.9363(13)
C32 C 0.3008(16) 0.564(9) 0.9312(8)
C33 C 0.2583(16) 0.535(7) 0.9483(5)
C34 C 0.3950(16) 0.633(10) 0.9221(16)
O8 O 0.442(2) 0.674(10) 0.926(2)
O9 O 0.384(2) 0.617(12) 0.9036(15)
H13 H 0.0544(5) 0.5826(14) 0.9861(7)
H14 H 0.1489(14) 0.547(3) 0.9728(6)
H15 H 0.3432(17) 0.6051(18) 0.9889(13)
H16 H 0.4112(18) 0.652(5) 0.9616(18)
H17 H 0.2910(17) 0.554(11) 0.9179(7)
H18 H 0.2231(17) 0.507(7) 0.9452(3)
Zr6 Zr 0.500 0.750 0.91372(16)
Zr11 Zr 0.4182(2) 0.6682(2) 0.875
C13 C 0.9367(9) 0.500 0.000
C14 C 0.9684(5) 0.4520(10) 0.0081(4)
C15 C 0.8635(14) 0.500 0.000
C16 C 0.8284(14) 0.472(2) 0.0165(3)
C17 C 0.7608(14) 0.474(2) 0.0153(3)
C18 C 0.7254(15) 0.450(4) 0.0295(6)
C19 C 0.6666(16) 0.404(3) 0.0244(12)
C20 C 0.6240(17) 0.375(5) 0.0415(15)
C21 C 0.6404(16) 0.391(8) 0.0637(13)
C22 C 0.6992(16) 0.436(9) 0.0688(8)
C23 C 0.7417(16) 0.465(7) 0.0517(5)
C24 C 0.6050(16) 0.367(10) 0.0779(16)
O7 O 0.616(2) 0.383(12) 0.0964(15)
H7 H 0.9456(5) 0.4174(14) 0.0139(7)
H8 H 0.8511(14) 0.453(3) 0.0272(6)
H9 H 0.6568(17) 0.3949(18) 0.0111(13)
H10 H 0.5888(18) 0.348(5) 0.0384(18)
H11 H 0.7090(17) 0.446(11) 0.0821(7)
H12 H 0.7769(17) 0.493(7) 0.0548(3)
N2 N 0.728(2) 0.500 0.000
O13 O 0.7022(13) 0.3200(13) 0.1279(5)
O16 O 0.5700(13) 0.4522(13) 0.1221(5)
O21 O 0.633(12) 0.366(2) 0.1536(15)
O27 O 0.585(2) 0.250 0.1448(8)
C13_2 C 0.9367(9) 0.500 1.000
C15_2 C 0.8635(14) 0.500 1.000
N2_2 N 0.728(2) 0.500 1.000
C35 C 0.9684(5) 0.5480(10) 0.9919(4)
C36 C 0.8284(14) 0.528(2) 0.9835(3)
C37 C 0.7608(14) 0.526(2) 0.9847(3)
C38 C 0.7254(15) 0.550(4) 0.9705(6)
C39 C 0.6666(16) 0.596(3) 0.9756(12)
C40 C 0.6240(17) 0.625(5) 0.9585(15)
C41 C 0.6404(16) 0.609(8) 0.9363(13)
C42 C 0.6992(16) 0.564(9) 0.9312(8)
C43 C 0.7417(16) 0.535(7) 0.9483(5)
C44 C 0.6050(16) 0.633(10) 0.9221(16)
O10 O 0.558(2) 0.674(10) 0.926(2)
O11 O 0.616(2) 0.617(12) 0.9036(15)
H19 H 0.9456(5) 0.5826(14) 0.9861(7)
H20 H 0.8511(14) 0.547(3) 0.9728(6)
H21 H 0.6568(17) 0.6051(18) 0.9889(13)
H22 H 0.5888(18) 0.652(5) 0.9616(18)
H23 H 0.7090(17) 0.554(11) 0.9179(7)
H24 H 0.7769(17) 0.507(7) 0.9452(3)
Zr12 Zr 0.5818(2) 0.6682(2) 0.875
Zr4 Zr -0.000 0.750 0.58628(16)
Zr5 Zr -0.000 0.250 0.41372(16)
O23 O -0.000 0.663(2) 0.6459(8)
O25 O -0.000 0.665(2) 0.6052(8)
C1_3 C 0.4367(9) 0.500 0.500
C2_2 C 0.4684(5) 0.5480(10) 0.5081(4)
C3_3 C 0.3635(14) 0.500 0.500
C4_2 C 0.3284(14) 0.528(2) 0.5165(3)
C5_2 C 0.2608(14) 0.526(2) 0.5153(3)
C6_2 C 0.2254(15) 0.550(4) 0.5295(6)
C7_2 C 0.1666(16) 0.596(3) 0.5244(12)
C8_2 C 0.1240(17) 0.625(5) 0.5415(15)
C9_2 C 0.1404(16) 0.609(8) 0.5637(13)
C10_2 C 0.1992(16) 0.564(9) 0.5688(8)
C11_2 C 0.2417(16) 0.535(7) 0.5517(5)
C12_2 C 0.1050(16) 0.633(10) 0.5779(16)
O1_2 O 0.058(2) 0.674(10) 0.574(2)
O2_2 O 0.116(2) 0.617(12) 0.5964(15)
H1_2 H 0.4456(5) 0.5826(14) 0.5139(7)
H2_2 H 0.3511(14) 0.547(3) 0.5272(6)
H3_2 H 0.1568(17) 0.6051(18) 0.5111(13)
H4_2 H 0.0888(18) 0.652(5) 0.5384(18)
H5_2 H 0.2090(17) 0.554(11) 0.5821(7)
H6_2 H 0.2769(17) 0.507(7) 0.5548(3)
N1_3 N 0.228(2) 0.500 0.500
Zr2_2 Zr 0.0818(2) 0.6682(2) 0.625
O3_2 O 0.087(2) 0.750 0.6041(8)
O5_2 O 0.2022(13) 0.6800(13) 0.6279(5)
C13_3 C 0.5633(9) 0.500 0.500
C14_2 C 0.5316(5) 0.5480(10) 0.5081(4)
C15_3 C 0.6365(14) 0.500 0.500
C16_2 C 0.6716(14) 0.528(2) 0.5165(3)
C17_2 C 0.7392(14) 0.526(2) 0.5153(3)
C18_2 C 0.7746(15) 0.550(4) 0.5295(6)
C19_2 C 0.8334(16) 0.596(3) 0.5244(12)
C20_2 C 0.8760(17) 0.625(5) 0.5415(15)
C21_2 C 0.8596(16) 0.609(8) 0.5637(13)
C22_2 C 0.8008(16) 0.564(9) 0.5688(8)
C23_2 C 0.7583(16) 0.535(7) 0.5517(5)
C24_2 C 0.8950(16) 0.633(10) 0.5779(16)
O6 O 0.942(2) 0.674(10) 0.574(2)
O7_2 O 0.884(2) 0.617(12) 0.5964(15)
H7_2 H 0.5544(5) 0.5826(14) 0.5139(7)
H8_2 H 0.6489(14) 0.547(3) 0.5272(6)
H9_2 H 0.8432(17) 0.6051(18) 0.5111(13)
H10_2 H 0.9112(18) 0.652(5) 0.5384(18)
H11_2 H 0.7910(17) 0.554(11) 0.5821(7)
H12_2 H 0.7231(17) 0.507(7) 0.5548(3)
N2_3 N 0.772(2) 0.500 0.500
C25_2 C 0.4684(5) 0.4520(10) 0.4919(4)
C26_2 C 0.3284(14) 0.472(2) 0.4835(3)
C27_2 C 0.2608(14) 0.474(2) 0.4847(3)
C28_2 C 0.2254(15) 0.450(4) 0.4705(6)
C29_2 C 0.1666(16) 0.404(3) 0.4756(12)
C30_2 C 0.1240(17) 0.375(5) 0.4585(15)
C31_2 C 0.1404(16) 0.391(8) 0.4363(13)
C32_2 C 0.1992(16) 0.436(9) 0.4312(8)
C33_2 C 0.2417(16) 0.465(7) 0.4483(5)
C34_2 C 0.1050(16) 0.367(10) 0.4221(16)
O8_2 O 0.058(2) 0.326(10) 0.426(2)
O9_2 O 0.116(2) 0.383(12) 0.4036(15)
H13_2 H 0.4456(5) 0.4174(14) 0.4861(7)
H14_2 H 0.3511(14) 0.453(3) 0.4728(6)
H15_2 H 0.1568(17) 0.3949(18) 0.4889(13)
H16_2 H 0.0888(18) 0.348(5) 0.4616(18)
H17_2 H 0.2090(17) 0.446(11) 0.4179(7)
H18_2 H 0.2769(17) 0.493(7) 0.4452(3)
C35_2 C 0.5316(5) 0.4520(10) 0.4919(4)
C36_2 C 0.6716(14) 0.472(2) 0.4835(3)
C37_2 C 0.7392(14) 0.474(2) 0.4847(3)
C38_2 C 0.7746(15) 0.450(4) 0.4705(6)
C39_2 C 0.8334(16) 0.404(3) 0.4756(12)
C40_2 C 0.8760(17) 0.375(5) 0.4585(15)
C41_2 C 0.8596(16) 0.391(8) 0.4363(13)
C42_2 C 0.8008(16) 0.436(9) 0.4312(8)
C43_2 C 0.7583(16) 0.465(7) 0.4483(5)
C44_2 C 0.8950(16) 0.367(10) 0.4221(16)
O10_2 O 0.942(2) 0.326(10) 0.426(2)
O11_2 O 0.884(2) 0.383(12) 0.4036(15)
H19_2 H 0.5544(5) 0.4174(14) 0.4861(7)
H20_2 H 0.6489(14) 0.453(3) 0.4728(6)
H21_2 H 0.8432(17) 0.3949(18) 0.4889(13)
H22_2 H 0.9112(18) 0.348(5) 0.4616(18)
H23_2 H 0.7910(17) 0.446(11) 0.4179(7)
H24_2 H 0.7231(17) 0.493(7) 0.4452(3)
Zr3 Zr 0.9182(2) 0.6682(2) 0.625
O12 O 0.913(2) 0.750 0.6041(8)
O13_2 O 0.7978(13) 0.6800(13) 0.6279(5)
O14_2 O 0.0700(13) 0.5478(13) 0.6221(5)
O15_2 O -0.000 0.835(2) 0.6052(8)
O16_2 O 0.9300(13) 0.5478(13) 0.6221(5)
O19_2 O 0.058(2) 0.826(10) 0.574(2)
O20_2 O 0.133(12) 0.634(2) 0.6536(15)
O21_2 O 0.867(12) 0.634(2) 0.6536(15)
Zr4_2 Zr 1.000 0.750 0.58628(16)
Zr5_2 Zr 1.000 0.250 0.41372(16)
Zr8_2 Zr 0.0818(2) 0.8318(2) 0.625
Zr9 Zr 0.9182(2) 0.8318(2) 0.625
Zr11_2 Zr 0.0818(2) 0.3318(2) 0.375
Zr12_2 Zr 0.9182(2) 0.3318(2) 0.375
O23_2 O 1.000 0.663(2) 0.6459(8)
O25_2 O 1.000 0.665(2) 0.6052(8)
O26_2 O 0.085(2) 0.750 0.6448(8)
O27_2 O 0.915(2) 0.750 0.6448(8)
O15_3 O 1.000 0.835(2) 0.6052(8)
O18_2 O 0.942(2) 0.826(10) 0.574(2)
O23_3 O -0.000 0.337(2) 0.3541(8)
O25_3 O -0.000 0.335(2) 0.3948(8)
O3_3 O 0.087(2) 0.250 0.3959(8)
O5_3 O 0.2022(13) 0.3200(13) 0.3721(5)
O12_2 O 0.913(2) 0.250 0.3959(8)
O13_3 O 0.7978(13) 0.3200(13) 0.3721(5)
O14_3 O 0.0700(13) 0.4522(13) 0.3779(5)
O15_4 O -0.000 0.165(2) 0.3948(8)
O16_3 O 0.9300(13) 0.4522(13) 0.3779(5)
O19_3 O 0.058(2) 0.174(10) 0.426(2)
O20_3 O 0.133(12) 0.366(2) 0.3464(15)
O21_3 O 0.867(12) 0.366(2) 0.3464(15)
Zr8_3 Zr 0.0818(2) 0.1682(2) 0.375
Zr9_2 Zr 0.9182(2) 0.1682(2) 0.375
O23_4 O 1.000 0.337(2) 0.3541(8)
O25_4 O 1.000 0.335(2) 0.3948(8)
O26_3 O 0.085(2) 0.250 0.3552(8)
O27_3 O 0.915(2) 0.250 0.3552(8)
O15_5 O 1.000 0.165(2) 0.3948(8)
O18_3 O 0.942(2) 0.174(10) 0.426(2)
Zr4_3 Zr 0.000 0.750 0.66372(16)
O3_4 O 0.000 0.837(2) 0.6459(8)
O18_4 O 0.076(10) 0.692(2) 0.676(2)
O19_4 O 0.076(10) 0.808(2) 0.676(2)
C1_4 C 0.750 0.1867(9) 0.750
C2_3 C 0.7980(10) 0.2184(5) 0.7419(4)
C3_4 C 0.750 0.1135(14) 0.750
C4_3 C 0.778(2) 0.0784(14) 0.7335(3)
C5_3 C 0.776(2) 0.0108(14) 0.7347(3)
H1_3 H 0.8326(14) 0.1956(5) 0.7361(7)
H2_3 H 0.797(3) 0.1011(14) 0.7228(6)
H6_3 H 0.757(7) 0.0269(17) 0.6952(3)
C13_4 C 0.750 0.3133(9) 0.750
C14_3 C 0.7980(10) 0.2816(5) 0.7419(4)
C15_4 C 0.750 0.3865(14) 0.750
C16_3 C 0.778(2) 0.4216(14) 0.7335(3)
C17_3 C 0.776(2) 0.4892(14) 0.7347(3)
C18_3 C 0.800(4) 0.5246(15) 0.7205(6)
C19_3 C 0.846(3) 0.5834(16) 0.7256(12)
C20_3 C 0.875(5) 0.6260(17) 0.7085(15)
C21_3 C 0.859(8) 0.6096(16) 0.6863(13)
C22_3 C 0.814(9) 0.5508(16) 0.6812(8)
C23_3 C 0.785(7) 0.5083(16) 0.6983(5)
C24_3 C 0.883(10) 0.6450(16) 0.6721(16)
O6_2 O 0.924(10) 0.692(2) 0.676(2)
H7_3 H 0.8326(14) 0.3044(5) 0.7361(7)
H8_3 H 0.797(3) 0.3989(14) 0.7228(6)
H9_3 H 0.8551(18) 0.5932(17) 0.7389(13)
H10_3 H 0.902(5) 0.6612(18) 0.7116(18)
H11_3 H 0.804(11) 0.5410(17) 0.6679(7)
H12_3 H 0.757(7) 0.4731(17) 0.6952(3)
N2_4 N 0.750 0.522(2) 0.750
C25_3 C 0.7020(10) 0.2184(5) 0.7581(4)
C26_3 C 0.722(2) 0.0784(14) 0.7665(3)
C27_3 C 0.724(2) 0.0108(14) 0.7653(3)
H13_3 H 0.6674(14) 0.1956(5) 0.7639(7)
H14_3 H 0.703(3) 0.1011(14) 0.7772(6)
H18_3 H 0.743(7) 0.0269(17) 0.8048(3)
C35_3 C 0.7020(10) 0.2816(5) 0.7581(4)
C36_3 C 0.722(2) 0.4216(14) 0.7665(3)
C37_3 C 0.724(2) 0.4892(14) 0.7653(3)
C38_3 C 0.700(4) 0.5246(15) 0.7795(6)
C39_3 C 0.654(3) 0.5834(16) 0.7744(12)
C40_3 C 0.625(5) 0.6260(17) 0.7915(15)
C41_3 C 0.641(8) 0.6096(16) 0.8137(13)
C42_3 C 0.686(9) 0.5508(16) 0.8188(8)
C43_3 C 0.715(7) 0.5083(16) 0.8017(5)
C44_3 C 0.617(10) 0.6450(16) 0.8279(16)
O10_3 O 0.576(10) 0.692(2) 0.824(2)
O11_3 O 0.633(12) 0.634(2) 0.8464(15)
H19_3 H 0.6674(14) 0.3044(5) 0.7639(7)
H20_3 H 0.703(3) 0.3989(14) 0.7772(6)
H21_3 H 0.6449(18) 0.5932(17) 0.7611(13)
H22_3 H 0.598(5) 0.6612(18) 0.7884(18)
H23_3 H 0.696(11) 0.5410(17) 0.8321(7)
H24_3 H 0.743(7) 0.4731(17) 0.8048(3)
Zr4_4 Zr 1.000 0.750 0.66372(16)
Zr5_3 Zr 0.500 0.750 0.83628(16)
C6_3 C 0.800(4) 0.9754(15) 0.7205(6)
C7_3 C 0.846(3) 0.9166(16) 0.7256(12)
C8_3 C 0.875(5) 0.8740(17) 0.7085(15)
C9_3 C 0.859(8) 0.8904(16) 0.6863(13)
C10_3 C 0.814(9) 0.9492(16) 0.6812(8)
C11_3 C 0.785(7) 0.9917(16) 0.6983(5)
C12_3 C 0.883(10) 0.8550(16) 0.6721(16)
O1_3 O 0.924(10) 0.808(2) 0.676(2)
O2_3 O 0.867(12) 0.866(2) 0.6536(15)
H3_3 H 0.8551(18) 0.9068(17) 0.7389(13)
H4_3 H 0.902(5) 0.8388(18) 0.7116(18)
H5_3 H 0.804(11) 0.9590(17) 0.6679(7)
N1_4 N 0.750 0.978(2) 0.750
O3_5 O 1.000 0.837(2) 0.6459(8)
O5_4 O 0.9300(13) 0.9522(13) 0.6221(5)
C28_3 C 0.700(4) 0.9754(15) 0.7795(6)
C29_3 C 0.654(3) 0.9166(16) 0.7744(12)
C30_3 C 0.625(5) 0.8740(17) 0.7915(15)
C31_3 C 0.641(8) 0.8904(16) 0.8137(13)
C32_3 C 0.686(9) 0.9492(16) 0.8188(8)
C33_3 C 0.715(7) 0.9917(16) 0.8017(5)
C34_3 C 0.617(10) 0.8550(16) 0.8279(16)
O8_3 O 0.576(10) 0.808(2) 0.824(2)
O9_3 O 0.633(12) 0.866(2) 0.8464(15)
H15_3 H 0.6449(18) 0.9068(17) 0.7611(13)
H16_3 H 0.598(5) 0.8388(18) 0.7884(18)
H17_3 H 0.696(11) 0.9590(17) 0.8321(7)
O14_4 O 0.7978(13) 0.8200(13) 0.6279(5)
O20_4 O 0.884(2) 0.883(12) 0.5964(15)
Zr11_3 Zr 0.5818(2) 0.8318(2) 0.875
Zr1_2 Zr 0.000 0.250 0.33628(16)
O3_6 O 0.000 0.163(2) 0.3541(8)
O18_5 O 0.076(10) 0.308(2) 0.324(2)
O19_5 O 0.076(10) 0.192(2) 0.324(2)
C6_4 C 0.800(4) 0.0246(15) 0.2795(6)
C7_4 C 0.846(3) 0.0834(16) 0.2744(12)
C8_4 C 0.875(5) 0.1260(17) 0.2915(15)
C9_4 C 0.859(8) 0.1096(16) 0.3137(13)
C10_4 C 0.814(9) 0.0508(16) 0.3188(8)
C11_4 C 0.785(7) 0.0083(16) 0.3017(5)
C12_4 C 0.883(10) 0.1450(16) 0.3279(16)
O1_4 O 0.924(10) 0.192(2) 0.324(2)
O2_4 O 0.867(12) 0.134(2) 0.3464(15)
H3_4 H 0.8551(18) 0.0932(17) 0.2611(13)
H4_4 H 0.902(5) 0.1612(18) 0.2884(18)
H5_4 H 0.804(11) 0.0410(17) 0.3321(7)
N1_5 N 0.750 0.022(2) 0.250
Zr1_3 Zr 1.000 0.250 0.33628(16)
O3_7 O 1.000 0.163(2) 0.3541(8)
O5_5 O 0.9300(13) 0.0478(13) 0.3779(5)
C28_4 C 0.700(4) 0.0246(15) 0.2205(6)
C29_4 C 0.654(3) 0.0834(16) 0.2256(12)
C30_4 C 0.625(5) 0.1260(17) 0.2085(15)
C31_4 C 0.641(8) 0.1096(16) 0.1863(13)
C32_4 C 0.686(9) 0.0508(16) 0.1812(8)
C33_4 C 0.715(7) 0.0083(16) 0.1983(5)
C34_4 C 0.617(10) 0.1450(16) 0.1721(16)
O8_4 O 0.576(10) 0.192(2) 0.176(2)
O9_4 O 0.633(12) 0.134(2) 0.1536(15)
H15_4 H 0.6449(18) 0.0932(17) 0.2389(13)
H16_4 H 0.598(5) 0.1612(18) 0.2116(18)
H17_4 H 0.696(11) 0.0410(17) 0.1679(7)
O14_5 O 0.7978(13) 0.1800(13) 0.3721(5)
O17_2 O 0.924(10) 0.308(2) 0.324(2)
O20_5 O 0.884(2) 0.117(12) 0.4036(15)
Zr6_2 Zr 0.500 0.250 0.16372(16)
C1_5 C 0.750 0.8133(9) 0.250
C2_4 C 0.7980(10) 0.7816(5) 0.2581(4)
C3_5 C 0.750 0.8865(14) 0.250
C4_4 C 0.778(2) 0.9216(14) 0.2665(3)
C5_4 C 0.776(2) 0.9892(14) 0.2653(3)
H1_4 H 0.8326(14) 0.8044(5) 0.2639(7)
H2_4 H 0.797(3) 0.8989(14) 0.2772(6)
H6_4 H 0.757(7) 0.9731(17) 0.3048(3)
C13_5 C 0.750 0.6867(9) 0.250
C14_4 C 0.7980(10) 0.7184(5) 0.2581(4)
C15_5 C 0.750 0.6135(14) 0.250
C16_4 C 0.778(2) 0.5784(14) 0.2665(3)
C17_4 C 0.776(2) 0.5108(14) 0.2653(3)
C18_4 C 0.800(4) 0.4754(15) 0.2795(6)
C19_4 C 0.846(3) 0.4166(16) 0.2744(12)
C20_4 C 0.875(5) 0.3740(17) 0.2915(15)
C21_4 C 0.859(8) 0.3904(16) 0.3137(13)
C22_4 C 0.814(9) 0.4492(16) 0.3188(8)
C23_4 C 0.785(7) 0.4917(16) 0.3017(5)
C24_4 C 0.883(10) 0.3550(16) 0.3279(16)
H7_4 H 0.8326(14) 0.6956(5) 0.2639(7)
H8_4 H 0.797(3) 0.6011(14) 0.2772(6)
H9_4 H 0.8551(18) 0.4068(17) 0.2611(13)
H10_4 H 0.902(5) 0.3388(18) 0.2884(18)
H11_4 H 0.804(11) 0.4590(17) 0.3321(7)
H12_4 H 0.757(7) 0.5269(17) 0.3048(3)
N2_5 N 0.750 0.478(2) 0.250
C25_4 C 0.7020(10) 0.7816(5) 0.2419(4)
C26_4 C 0.722(2) 0.9216(14) 0.2335(3)
C27_4 C 0.724(2) 0.9892(14) 0.2347(3)
H13_4 H 0.6674(14) 0.8044(5) 0.2361(7)
H14_4 H 0.703(3) 0.8989(14) 0.2228(6)
H18_4 H 0.743(7) 0.9731(17) 0.1952(3)
C35_4 C 0.7020(10) 0.7184(5) 0.2419(4)
C36_4 C 0.722(2) 0.5784(14) 0.2335(3)
C37_4 C 0.724(2) 0.5108(14) 0.2347(3)
C38_4 C 0.700(4) 0.4754(15) 0.2205(6)
C39_4 C 0.654(3) 0.4166(16) 0.2256(12)
C40_4 C 0.625(5) 0.3740(17) 0.2085(15)
C41_4 C 0.641(8) 0.3904(16) 0.1863(13)
C42_4 C 0.686(9) 0.4492(16) 0.1812(8)
C43_4 C 0.715(7) 0.4917(16) 0.1983(5)
C44_4 C 0.617(10) 0.3550(16) 0.1721(16)
O10_4 O 0.576(10) 0.308(2) 0.176(2)
H19_4 H 0.6674(14) 0.6956(5) 0.2361(7)
H20_4 H 0.703(3) 0.6011(14) 0.2228(6)
H21_4 H 0.6449(18) 0.4068(17) 0.2389(13)
H22_4 H 0.598(5) 0.3388(18) 0.2116(18)
H23_4 H 0.696(11) 0.4590(17) 0.1679(7)
H24_4 H 0.743(7) 0.5269(17) 0.1952(3)
O12_3 O 0.500 0.663(2) 0.8541(8)
O13_4 O 0.5700(13) 0.5478(13) 0.8779(5)
O16_4 O 0.7022(13) 0.6800(13) 0.8721(5)
O23_5 O 0.587(2) 0.750 0.8959(8)
O25_5 O 0.585(2) 0.750 0.8552(8)
O27_4 O 0.500 0.665(2) 0.8948(8)
O3_8 O 0.500 0.837(2) 0.8541(8)
O5_6 O 0.5700(13) 0.9522(13) 0.8779(5)
O14_6 O 0.7022(13) 0.8200(13) 0.8721(5)
O15_6 O 0.415(2) 0.750 0.8552(8)
O18_6 O 0.424(10) 0.692(2) 0.824(2)
O19_6 O 0.424(10) 0.808(2) 0.824(2)
O20_6 O 0.616(2) 0.883(12) 0.9036(15)
Zr8_4 Zr 0.4182(2) 0.8318(2) 0.875
O26_4 O 0.500 0.835(2) 0.8948(8)
O3_9 O 0.500 0.163(2) 0.1459(8)
O5_7 O 0.5700(13) 0.0478(13) 0.1221(5)
O14_7 O 0.7022(13) 0.1800(13) 0.1279(5)
O18_7 O 0.424(10) 0.308(2) 0.176(2)
O19_7 O 0.424(10) 0.192(2) 0.176(2)
O20_7 O 0.616(2) 0.117(12) 0.0964(15)
O3_10 O 0.413(2) 0.750 0.8959(8)
O5_8 O 0.2978(13) 0.6800(13) 0.8721(5)
O14_8 O 0.4300(13) 0.5478(13) 0.8779(5)
O18_8 O 0.558(2) 0.826(10) 0.926(2)
O19_8 O 0.442(2) 0.826(10) 0.926(2)
O20_8 O 0.367(12) 0.634(2) 0.8464(15)
C1_6 C 0.5633(9) -0.000 0.500
C3_6 C 0.6365(14) -0.000 0.500
N1_6 N 0.772(2) -0.000 0.500
C13_6 C 0.4367(9) -0.000 0.500
C15_6 C 0.3635(14) -0.000 0.500
N2_6 N 0.228(2) -0.000 0.500
C25_5 C 0.5316(5) 0.0480(10) 0.4919(4)
C26_5 C 0.6716(14) 0.028(2) 0.4835(3)
C27_5 C 0.7392(14) 0.026(2) 0.4847(3)
C28_5 C 0.7746(15) 0.050(4) 0.4705(6)
C29_5 C 0.8334(16) 0.096(3) 0.4756(12)
C30_5 C 0.8760(17) 0.125(5) 0.4585(15)
C31_5 C 0.8596(16) 0.109(8) 0.4363(13)
C32_5 C 0.8008(16) 0.064(9) 0.4312(8)
C33_5 C 0.7583(16) 0.035(7) 0.4483(5)
C34_5 C 0.8950(16) 0.133(10) 0.4221(16)
H13_5 H 0.5544(5) 0.0826(14) 0.4861(7)
H14_5 H 0.6489(14) 0.047(3) 0.4728(6)
H15_5 H 0.8432(17) 0.1051(18) 0.4889(13)
H16_5 H 0.9112(18) 0.152(5) 0.4616(18)
H17_5 H 0.7910(17) 0.054(11) 0.4179(7)
H18_5 H 0.7231(17) 0.007(7) 0.4452(3)
C35_5 C 0.4684(5) 0.0480(10) 0.4919(4)
C36_5 C 0.3284(14) 0.028(2) 0.4835(3)
C37_5 C 0.2608(14) 0.026(2) 0.4847(3)
C38_5 C 0.2254(15) 0.050(4) 0.4705(6)
C39_5 C 0.1666(16) 0.096(3) 0.4756(12)
C40_5 C 0.1240(17) 0.125(5) 0.4585(15)
C41_5 C 0.1404(16) 0.109(8) 0.4363(13)
C42_5 C 0.1992(16) 0.064(9) 0.4312(8)
C43_5 C 0.2417(16) 0.035(7) 0.4483(5)
C44_5 C 0.1050(16) 0.133(10) 0.4221(16)
O11_4 O 0.116(2) 0.117(12) 0.4036(15)
H19_5 H 0.4456(5) 0.0826(14) 0.4861(7)
H20_5 H 0.3511(14) 0.047(3) 0.4728(6)
H21_5 H 0.1568(17) 0.1051(18) 0.4889(13)
H22_5 H 0.0888(18) 0.152(5) 0.4616(18)
H23_5 H 0.2090(17) 0.054(11) 0.4179(7)
H24_5 H 0.2769(17) 0.007(7) 0.4452(3)
C1_7 C 0.5633(9) 1.000 0.500
C2_5 C 0.5316(5) 0.9520(10) 0.5081(4)
C3_7 C 0.6365(14) 1.000 0.500
C4_5 C 0.6716(14) 0.972(2) 0.5165(3)
C5_5 C 0.7392(14) 0.974(2) 0.5153(3)
C6_5 C 0.7746(15) 0.950(4) 0.5295(6)
C7_5 C 0.8334(16) 0.904(3) 0.5244(12)
C8_5 C 0.8760(17) 0.875(5) 0.5415(15)
C9_5 C 0.8596(16) 0.891(8) 0.5637(13)
C10_5 C 0.8008(16) 0.936(9) 0.5688(8)
C11_5 C 0.7583(16) 0.965(7) 0.5517(5)
C12_5 C 0.8950(16) 0.867(10) 0.5779(16)
H1_5 H 0.5544(5) 0.9174(14) 0.5139(7)
H2_5 H 0.6489(14) 0.953(3) 0.5272(6)
H3_5 H 0.8432(17) 0.8949(18) 0.5111(13)
H4_5 H 0.9112(18) 0.848(5) 0.5384(18)
H5_5 H 0.7910(17) 0.946(11) 0.5821(7)
H6_5 H 0.7231(17) 0.993(7) 0.5548(3)
N1_7 N 0.772(2) 1.000 0.500
C13_7 C 0.4367(9) 1.000 0.500
C14_5 C 0.4684(5) 0.9520(10) 0.5081(4)
C15_7 C 0.3635(14) 1.000 0.500
C16_5 C 0.3284(14) 0.972(2) 0.5165(3)
C17_5 C 0.2608(14) 0.974(2) 0.5153(3)
C18_5 C 0.2254(15) 0.950(4) 0.5295(6)
C19_5 C 0.1666(16) 0.904(3) 0.5244(12)
C20_5 C 0.1240(17) 0.875(5) 0.5415(15)
C21_5 C 0.1404(16) 0.891(8) 0.5637(13)
C22_5 C 0.1992(16) 0.936(9) 0.5688(8)
C23_5 C 0.2417(16) 0.965(7) 0.5517(5)
C24_5 C 0.1050(16) 0.867(10) 0.5779(16)
O7_3 O 0.116(2) 0.883(12) 0.5964(15)
H7_5 H 0.4456(5) 0.9174(14) 0.5139(7)
H8_5 H 0.3511(14) 0.953(3) 0.5272(6)
H9_5 H 0.1568(17) 0.8949(18) 0.5111(13)
H10_5 H 0.0888(18) 0.848(5) 0.5384(18)
H11_5 H 0.2090(17) 0.946(11) 0.5821(7)
H12_5 H 0.2769(17) 0.993(7) 0.5548(3)
N2_7 N 0.228(2) 1.000 0.500
O13_5 O 0.2022(13) 0.8200(13) 0.6279(5)
O16_5 O 0.0700(13) 0.9522(13) 0.6221(5)
O21_4 O 0.133(12) 0.866(2) 0.6536(15)
C13_8 C 0.0633(9) 0.000 0.000
C14_6 C 0.0316(5) 0.0480(10) 0.0081(4)
C15_8 C 0.1365(14) 0.000 0.000
C16_6 C 0.1716(14) 0.028(2) 0.0165(3)
C17_6 C 0.2392(14) 0.026(2) 0.0153(3)
C18_6 C 0.2746(15) 0.050(4) 0.0295(6)
C19_6 C 0.3334(16) 0.096(3) 0.0244(12)
C20_6 C 0.3760(17) 0.125(5) 0.0415(15)
C21_6 C 0.3596(16) 0.109(8) 0.0637(13)
C22_6 C 0.3008(16) 0.064(9) 0.0688(8)
C23_6 C 0.2583(16) 0.035(7) 0.0517(5)
C24_6 C 0.3950(16) 0.133(10) 0.0779(16)
O7_4 O 0.384(2) 0.117(12) 0.0964(15)
H7_6 H 0.0544(5) 0.0826(14) 0.0139(7)
H8_6 H 0.1489(14) 0.047(3) 0.0272(6)
H9_6 H 0.3432(17) 0.1051(18) 0.0111(13)
H10_6 H 0.4112(18) 0.152(5) 0.0384(18)
H11_6 H 0.2910(17) 0.054(11) 0.0821(7)
H12_6 H 0.2231(17) 0.007(7) 0.0548(3)
N2_8 N 0.272(2) 0.000 0.000
O13_6 O 0.2978(13) 0.1800(13) 0.1279(5)
O16_6 O 0.4300(13) 0.0478(13) 0.1221(5)
O21_5 O 0.367(12) 0.134(2) 0.1536(15)
C13_9 C 0.0633(9) 1.000 1.000
C15_9 C 0.1365(14) 1.000 1.000
N2_9 N 0.272(2) 1.000 1.000
C35_6 C 0.0316(5) 0.9520(10) 0.9919(4)
C36_6 C 0.1716(14) 0.972(2) 0.9835(3)
C37_6 C 0.2392(14) 0.974(2) 0.9847(3)
C38_6 C 0.2746(15) 0.950(4) 0.9705(6)
C39_6 C 0.3334(16) 0.904(3) 0.9756(12)
C40_6 C 0.3760(17) 0.875(5) 0.9585(15)
C41_6 C 0.3596(16) 0.891(8) 0.9363(13)
C42_6 C 0.3008(16) 0.936(9) 0.9312(8)
C43_6 C 0.2583(16) 0.965(7) 0.9483(5)
C44_6 C 0.3950(16) 0.867(10) 0.9221(16)
O11_5 O 0.384(2) 0.883(12) 0.9036(15)
H19_6 H 0.0544(5) 0.9174(14) 0.9861(7)
H20_6 H 0.1489(14) 0.953(3) 0.9728(6)
H21_6 H 0.3432(17) 0.8949(18) 0.9889(13)
H22_6 H 0.4112(18) 0.848(5) 0.9616(18)
H23_6 H 0.2910(17) 0.946(11) 0.9179(7)
H24_6 H 0.2231(17) 0.993(7) 0.9452(3)
C1_8 C 0.9367(9) 0.000 0.000
C2_6 C 0.9684(5) 0.0480(10) 0.0081(4)
C3_8 C 0.8635(14) 0.000 0.000
C4_6 C 0.8284(14) 0.028(2) 0.0165(3)
C5_6 C 0.7608(14) 0.026(2) 0.0153(3)
C6_6 C 0.7254(15) 0.050(4) 0.0295(6)
C7_6 C 0.6666(16) 0.096(3) 0.0244(12)
C8_6 C 0.6240(17) 0.125(5) 0.0415(15)
C9_6 C 0.6404(16) 0.109(8) 0.0637(13)
C10_6 C 0.6992(16) 0.064(9) 0.0688(8)
C11_6 C 0.7417(16) 0.035(7) 0.0517(5)
C12_6 C 0.6050(16) 0.133(10) 0.0779(16)
H1_6 H 0.9456(5) 0.0826(14) 0.0139(7)
H2_6 H 0.8511(14) 0.047(3) 0.0272(6)
H3_6 H 0.6568(17) 0.1051(18) 0.0111(13)
H4_6 H 0.5888(18) 0.152(5) 0.0384(18)
H5_6 H 0.7090(17) 0.054(11) 0.0821(7)
H6_6 H 0.7769(17) 0.007(7) 0.0548(3)
N1_8 N 0.728(2) 0.000 0.000
C1_9 C 0.9367(9) 1.000 1.000
C3_9 C 0.8635(14) 1.000 1.000
N1_9 N 0.728(2) 1.000 1.000
C25_6 C 0.9684(5) 0.9520(10) 0.9919(4)
C26_6 C 0.8284(14) 0.972(2) 0.9835(3)
C27_6 C 0.7608(14) 0.974(2) 0.9847(3)
C28_6 C 0.7254(15) 0.950(4) 0.9705(6)
C29_6 C 0.6666(16) 0.904(3) 0.9756(12)
C30_6 C 0.6240(17) 0.875(5) 0.9585(15)
C31_6 C 0.6404(16) 0.891(8) 0.9363(13)
C32_6 C 0.6992(16) 0.936(9) 0.9312(8)
C33_6 C 0.7417(16) 0.965(7) 0.9483(5)
C34_6 C 0.6050(16) 0.867(10) 0.9221(16)
H13_6 H 0.9456(5) 0.9174(14) 0.9861(7)
H14_6 H 0.8511(14) 0.953(3) 0.9728(6)
H15_6 H 0.6568(17) 0.8949(18) 0.9889(13)
H16_6 H 0.5888(18) 0.848(5) 0.9616(18)
H17_6 H 0.7090(17) 0.946(11) 0.9179(7)
H18_6 H 0.7769(17) 0.993(7) 0.9452(3)
O13_7 O 0.2978(13) 0.8200(13) 0.8721(5)
O16_7 O 0.4300(13) 0.9522(13) 0.8779(5)
O21_6 O 0.367(12) 0.866(2) 0.8464(15)
C18_7 C 0.300(4) 0.0246(15) 0.2205(6)
C19_7 C 0.346(3) 0.0834(16) 0.2256(12)
C20_7 C 0.375(5) 0.1260(17) 0.2085(15)
C21_7 C 0.359(8) 0.1096(16) 0.1863(13)
C22_7 C 0.314(9) 0.0508(16) 0.1812(8)
C23_7 C 0.285(7) 0.0083(16) 0.1983(5)
C24_7 C 0.383(10) 0.1450(16) 0.1721(16)
H9_7 H 0.3551(18) 0.0932(17) 0.2389(13)
H10_7 H 0.402(5) 0.1612(18) 0.2116(18)
H11_7 H 0.304(11) 0.0410(17) 0.1679(7)
N2_10 N 0.250 0.022(2) 0.250
C38_7 C 0.200(4) 0.0246(15) 0.2795(6)
C39_7 C 0.154(3) 0.0834(16) 0.2744(12)
C40_7 C 0.125(5) 0.1260(17) 0.2915(15)
C41_7 C 0.141(8) 0.1096(16) 0.3137(13)
C42_7 C 0.186(9) 0.0508(16) 0.3188(8)
C43_7 C 0.215(7) 0.0083(16) 0.3017(5)
C44_7 C 0.117(10) 0.1450(16) 0.3279(16)
O11_6 O 0.133(12) 0.134(2) 0.3464(15)
H21_7 H 0.1449(18) 0.0932(17) 0.2611(13)
H22_7 H 0.098(5) 0.1612(18) 0.2884(18)
H23_7 H 0.196(11) 0.0410(17) 0.3321(7)
C1_10 C 0.250 0.6867(9) 0.250
C2_7 C 0.2980(10) 0.7184(5) 0.2419(4)
C3_10 C 0.250 0.6135(14) 0.250
C4_7 C 0.278(2) 0.5784(14) 0.2335(3)
C5_7 C 0.276(2) 0.5108(14) 0.2347(3)
C6_7 C 0.300(4) 0.4754(15) 0.2205(6)
C7_7 C 0.346(3) 0.4166(16) 0.2256(12)
C8_7 C 0.375(5) 0.3740(17) 0.2085(15)
C9_7 C 0.359(8) 0.3904(16) 0.1863(13)
C10_7 C 0.314(9) 0.4492(16) 0.1812(8)
C11_7 C 0.285(7) 0.4917(16) 0.1983(5)
C12_7 C 0.383(10) 0.3550(16) 0.1721(16)
H1_7 H 0.3326(14) 0.6956(5) 0.2361(7)
H2_7 H 0.297(3) 0.6011(14) 0.2228(6)
H3_7 H 0.3551(18) 0.4068(17) 0.2389(13)
H4_7 H 0.402(5) 0.3388(18) 0.2116(18)
H5_7 H 0.304(11) 0.4590(17) 0.1679(7)
H6_7 H 0.257(7) 0.5269(17) 0.1952(3)
N1_10 N 0.250 0.478(2) 0.250
C13_10 C 0.250 0.8133(9) 0.250
C14_7 C 0.2980(10) 0.7816(5) 0.2419(4)
C15_10 C 0.250 0.8865(14) 0.250
C16_7 C 0.278(2) 0.9216(14) 0.2335(3)
C17_7 C 0.276(2) 0.9892(14) 0.2347(3)
H7_7 H 0.3326(14) 0.8044(5) 0.2361(7)
H8_7 H 0.297(3) 0.8989(14) 0.2228(6)
H12_7 H 0.257(7) 0.9731(17) 0.1952(3)
C25_7 C 0.2020(10) 0.7184(5) 0.2581(4)
C26_7 C 0.222(2) 0.5784(14) 0.2665(3)
C27_7 C 0.224(2) 0.5108(14) 0.2653(3)
C28_7 C 0.200(4) 0.4754(15) 0.2795(6)
C29_7 C 0.154(3) 0.4166(16) 0.2744(12)
C30_7 C 0.125(5) 0.3740(17) 0.2915(15)
C31_7 C 0.141(8) 0.3904(16) 0.3137(13)
C32_7 C 0.186(9) 0.4492(16) 0.3188(8)
C33_7 C 0.215(7) 0.4917(16) 0.3017(5)
C34_7 C 0.117(10) 0.3550(16) 0.3279(16)
H13_7 H 0.1674(14) 0.6956(5) 0.2639(7)
H14_7 H 0.203(3) 0.6011(14) 0.2772(6)
H15_7 H 0.1449(18) 0.4068(17) 0.2611(13)
H16_7 H 0.098(5) 0.3388(18) 0.2884(18)
H17_7 H 0.196(11) 0.4590(17) 0.3321(7)
H18_7 H 0.243(7) 0.5269(17) 0.3048(3)
C35_7 C 0.2020(10) 0.7816(5) 0.2581(4)
C36_7 C 0.222(2) 0.9216(14) 0.2665(3)
C37_7 C 0.224(2) 0.9892(14) 0.2653(3)
H19_7 H 0.1674(14) 0.8044(5) 0.2639(7)
H20_7 H 0.203(3) 0.8989(14) 0.2772(6)
H24_7 H 0.243(7) 0.9731(17) 0.3048(3)
C1_11 C 0.250 0.3133(9) 0.750
C2_8 C 0.2980(10) 0.2816(5) 0.7581(4)
C3_11 C 0.250 0.3865(14) 0.750
C4_8 C 0.278(2) 0.4216(14) 0.7665(3)
C5_8 C 0.276(2) 0.4892(14) 0.7653(3)
C6_8 C 0.300(4) 0.5246(15) 0.7795(6)
C7_8 C 0.346(3) 0.5834(16) 0.7744(12)
C8_8 C 0.375(5) 0.6260(17) 0.7915(15)
C9_8 C 0.359(8) 0.6096(16) 0.8137(13)
C10_8 C 0.314(9) 0.5508(16) 0.8188(8)
C11_8 C 0.285(7) 0.5083(16) 0.8017(5)
C12_8 C 0.383(10) 0.6450(16) 0.8279(16)
H1_8 H 0.3326(14) 0.3044(5) 0.7639(7)
H2_8 H 0.297(3) 0.3989(14) 0.7772(6)
H3_8 H 0.3551(18) 0.5932(17) 0.7611(13)
H4_8 H 0.402(5) 0.6612(18) 0.7884(18)
H5_8 H 0.304(11) 0.5410(17) 0.8321(7)
H6_8 H 0.257(7) 0.4731(17) 0.8048(3)
N1_11 N 0.250 0.522(2) 0.750
C13_11 C 0.250 0.1867(9) 0.750
C14_8 C 0.2980(10) 0.2184(5) 0.7581(4)
C15_11 C 0.250 0.1135(14) 0.750
C16_8 C 0.278(2) 0.0784(14) 0.7665(3)
C17_8 C 0.276(2) 0.0108(14) 0.7653(3)
H7_8 H 0.3326(14) 0.1956(5) 0.7639(7)
H8_8 H 0.297(3) 0.1011(14) 0.7772(6)
H12_8 H 0.257(7) 0.0269(17) 0.8048(3)
C25_8 C 0.2020(10) 0.2816(5) 0.7419(4)
C26_8 C 0.222(2) 0.4216(14) 0.7335(3)
C27_8 C 0.224(2) 0.4892(14) 0.7347(3)
C28_8 C 0.200(4) 0.5246(15) 0.7205(6)
C29_8 C 0.154(3) 0.5834(16) 0.7256(12)
C30_8 C 0.125(5) 0.6260(17) 0.7085(15)
C31_8 C 0.141(8) 0.6096(16) 0.6863(13)
C32_8 C 0.186(9) 0.5508(16) 0.6812(8)
C33_8 C 0.215(7) 0.5083(16) 0.6983(5)
C34_8 C 0.117(10) 0.6450(16) 0.6721(16)
H13_8 H 0.1674(14) 0.3044(5) 0.7361(7)
H14_8 H 0.203(3) 0.3989(14) 0.7228(6)
H15_8 H 0.1449(18) 0.5932(17) 0.7389(13)
H16_8 H 0.098(5) 0.6612(18) 0.7116(18)
H17_8 H 0.196(11) 0.5410(17) 0.6679(7)
H18_8 H 0.243(7) 0.4731(17) 0.6952(3)
C35_8 C 0.2020(10) 0.2184(5) 0.7419(4)
C36_8 C 0.222(2) 0.0784(14) 0.7335(3)
C37_8 C 0.224(2) 0.0108(14) 0.7347(3)
H19_8 H 0.1674(14) 0.1956(5) 0.7361(7)
H20_8 H 0.203(3) 0.1011(14) 0.7228(6)
H24_8 H 0.243(7) 0.0269(17) 0.6952(3)
C18_8 C 0.300(4) 0.9754(15) 0.7795(6)
C19_8 C 0.346(3) 0.9166(16) 0.7744(12)
C20_8 C 0.375(5) 0.8740(17) 0.7915(15)
C21_8 C 0.359(8) 0.8904(16) 0.8137(13)
C22_8 C 0.314(9) 0.9492(16) 0.8188(8)
C23_8 C 0.285(7) 0.9917(16) 0.8017(5)
C24_8 C 0.383(10) 0.8550(16) 0.8279(16)
H9_8 H 0.3551(18) 0.9068(17) 0.7611(13)
H10_8 H 0.402(5) 0.8388(18) 0.7884(18)
H11_8 H 0.304(11) 0.9590(17) 0.8321(7)
N2_11 N 0.250 0.978(2) 0.750
C38_8 C 0.200(4) 0.9754(15) 0.7205(6)
C39_8 C 0.154(3) 0.9166(16) 0.7256(12)
C40_8 C 0.125(5) 0.8740(17) 0.7085(15)
C41_8 C 0.141(8) 0.8904(16) 0.6863(13)
C42_8 C 0.186(9) 0.9492(16) 0.6812(8)
C43_8 C 0.215(7) 0.9917(16) 0.6983(5)
C44_8 C 0.117(10) 0.8550(16) 0.6721(16)
H21_8 H 0.1449(18) 0.9068(17) 0.7389(13)
H22_8 H 0.098(5) 0.8388(18) 0.7116(18)
H23_8 H 0.196(11) 0.9590(17) 0.6679(7)
O13_8 O 0.0700(13) 0.0478(13) 0.3779(5)
O16_8 O 0.2022(13) 0.1800(13) 0.3721(5)
C13_12 C 0.0633(9) -0.000 1.000
C15_12 C 0.1365(14) -0.000 1.000
N2_12 N 0.272(2) -0.000 1.000
C13_13 C 0.0633(9) 1.000 0.000
C15_13 C 0.1365(14) 1.000 0.000
N2_13 N 0.272(2) 1.000 0.000
C1_12 C 0.9367(9) -0.000 1.000
C3_12 C 0.8635(14) -0.000 1.000
N1_12 N 0.728(2) -0.000 1.000
C1_13 C 0.9367(9) 1.000 0.000
C3_13 C 0.8635(14) 1.000 0.000
N1_13 N 0.728(2) 1.000 0.000
loop_
_geom_bond_atom_site_label_1
_geom_bond_atom_site_label_2
_geom_bond_site_symmetry_1
_geom_bond_site_symmetry_2
C1 C2 1_555 1_555
C2 H1 1_555 1_555
C3 C1 1_555 1_555
C4 C3 1_555 1_555
C5 C4 1_555 1_555
C6 C5 1_555 1_555
C7 C6 1_555 1_555
C8 C7 1_555 1_555
C9 C8 1_555 1_555
C10 C9 1_555 1_555
C11 C6 1_555 1_555
C12 C9 1_555 1_555
O1 C12 1_555 1_555
O2 C12 1_555 1_555
H2 C4 1_555 1_555
H3 C7 1_555 1_555
H4 C8 1_555 1_555
H5 C10 1_555 1_555
H6 C11 1_555 1_555
N1 C5 1_555 1_555
Zr1 O1 1_555 1_555
Zr2 O2 1_555 1_555
O3 Zr1 1_555 1_555
O4 Zr1 1_555 1_555
O5 Zr2 1_555 1_555
O14 Zr2 1_555 1_555
O15 Zr1 1_555 1_555
O17 Zr1 1_555 1_555
O18 Zr1 1_555 1_555
O19 Zr1 1_555 1_555
O20 Zr2 1_555 1_555
Zr7 O4 1_555 1_555
Zr8 O3 1_555 1_555
Zr10 O15 1_555 1_555
O22 Zr1 1_555 1_555
O24 Zr2 1_555 1_555
O26 Zr2 1_555 1_555
C10 C11 1_555 1_555
Zr2 O3 1_555 1_555
Zr2 O4 1_555 1_555
O15 Zr8 1_555 1_555
Zr7 O22 1_555 1_555
Zr7 O24 1_555 1_555
Zr8 O26 1_555 1_555
Zr10 O22 1_555 1_555
C3_2 C1_2 1_555 1_555
C25 C1_2 1_555 1_555
C26 C3_2 1_555 1_555
C27 N1_2 1_555 1_555
C28 C27 1_555 1_555
C29 C28 1_555 1_555
C30 C29 1_555 1_555
C31 C30 1_555 1_555
C32 C31 1_555 1_555
C33 C28 1_555 1_555
C34 C31 1_555 1_555
O8 C34 1_555 1_555
O9 C34 1_555 1_555
H13 C25 1_555 1_555
H14 C26 1_555 1_555
H15 C29 1_555 1_555
H16 C30 1_555 1_555
H17 C32 1_555 1_555
H18 C33 1_555 1_555
Zr6 O8 1_555 1_555
Zr11 O9 1_555 1_555
C26 C27 1_555 1_555
C32 C33 1_555 1_555
C13 C14 1_555 1_555
C15 C13 1_555 1_555
C16 C15 1_555 1_555
C17 C16 1_555 1_555
C18 C17 1_555 1_555
C19 C18 1_555 1_555
C20 C19 1_555 1_555
C21 C20 1_555 1_555
C22 C21 1_555 1_555
C23 C18 1_555 1_555
C24 C21 1_555 1_555
O17 C24 1_555 1_555
O7 C24 1_555 1_555
H7 C14 1_555 1_555
H8 C16 1_555 1_555
H9 C19 1_555 1_555
H10 C20 1_555 1_555
H11 C22 1_555 1_555
H12 C23 1_555 1_555
N2 C17 1_555 1_555
Zr7 O7 1_555 1_555
O13 Zr7 1_555 1_555
O16 Zr7 1_555 1_555
O21 Zr7 1_555 1_555
O27 Zr7 1_555 1_555
C22 C23 1_555 1_555
Zr10 O27 1_555 1_555
C15_2 C13_2 1_555 1_555
C35 C13_2 1_555 1_555
C36 C15_2 1_555 1_555
C37 N2_2 1_555 1_555
C38 C37 1_555 1_555
C39 C38 1_555 1_555
C40 C39 1_555 1_555
C41 C40 1_555 1_555
C42 C41 1_555 1_555
C43 C38 1_555 1_555
C44 C41 1_555 1_555
O10 C44 1_555 1_555
O11 C44 1_555 1_555
H19 C35 1_555 1_555
H20 C36 1_555 1_555
H21 C39 1_555 1_555
H22 C40 1_555 1_555
H23 C42 1_555 1_555
H24 C43 1_555 1_555
Zr6 O10 1_555 1_555
Zr12 O11 1_555 1_555
C36 C37 1_555 1_555
C42 C43 1_555 1_555
Zr4 O25 1_555 1_555
C1_3 C2_2 1_555 1_555
C2_2 H1_2 1_555 1_555
C3_3 C1_3 1_555 1_555
C4_2 C3_3 1_555 1_555
C5_2 C4_2 1_555 1_555
C6_2 C5_2 1_555 1_555
C7_2 C6_2 1_555 1_555
C8_2 C7_2 1_555 1_555
C9_2 C8_2 1_555 1_555
C10_2 C9_2 1_555 1_555
C11_2 C6_2 1_555 1_555
C12_2 C9_2 1_555 1_555
O1_2 C12_2 1_555 1_555
O2_2 C12_2 1_555 1_555
H2_2 C4_2 1_555 1_555
H3_2 C7_2 1_555 1_555
H4_2 C8_2 1_555 1_555
H5_2 C10_2 1_555 1_555
H6_2 C11_2 1_555 1_555
N1_3 C5_2 1_555 1_555
Zr4 O1_2 1_555 1_555
Zr2_2 O2_2 1_555 1_555
O3_2 Zr4 1_555 1_555
O5_2 Zr2_2 1_555 1_555
C13_3 C14_2 1_555 1_555
C14_2 C2_2 1_555 1_555
C15_3 C13_3 1_555 1_555
C16_2 C15_3 1_555 1_555
C17_2 C16_2 1_555 1_555
C18_2 C17_2 1_555 1_555
C19_2 C18_2 1_555 1_555
C20_2 C19_2 1_555 1_555
C21_2 C20_2 1_555 1_555
C22_2 C21_2 1_555 1_555
C23_2 C18_2 1_555 1_555
C24_2 C21_2 1_555 1_555
O6 C24_2 1_555 1_555
O7_2 C24_2 1_555 1_555
H7_2 C14_2 1_555 1_555
H8_2 C16_2 1_555 1_555
H9_2 C19_2 1_555 1_555
H10_2 C20_2 1_555 1_555
H11_2 C22_2 1_555 1_555
H12_2 C23_2 1_555 1_555
N2_3 C17_2 1_555 1_555
C25_2 C1_3 1_555 1_555
C26_2 C3_3 1_555 1_555
C27_2 N1_3 1_555 1_555
C28_2 C27_2 1_555 1_555
C29_2 C28_2 1_555 1_555
C30_2 C29_2 1_555 1_555
C31_2 C30_2 1_555 1_555
C32_2 C31_2 1_555 1_555
C33_2 C28_2 1_555 1_555
C34_2 C31_2 1_555 1_555
O8_2 C34_2 1_555 1_555
O9_2 C34_2 1_555 1_555
H13_2 C25_2 1_555 1_555
H14_2 C26_2 1_555 1_555
H15_2 C29_2 1_555 1_555
H16_2 C30_2 1_555 1_555
H17_2 C32_2 1_555 1_555
H18_2 C33_2 1_555 1_555
C35_2 C13_3 1_555 1_555
C36_2 C15_3 1_555 1_555
C37_2 N2_3 1_555 1_555
C38_2 C37_2 1_555 1_555
C39_2 C38_2 1_555 1_555
C40_2 C39_2 1_555 1_555
C41_2 C40_2 1_555 1_555
C42_2 C41_2 1_555 1_555
C43_2 C38_2 1_555 1_555
C44_2 C41_2 1_555 1_555
O10_2 C44_2 1_555 1_555
O11_2 C44_2 1_555 1_555
H19_2 C35_2 1_555 1_555
H20_2 C36_2 1_555 1_555
H21_2 C39_2 1_555 1_555
H22_2 C40_2 1_555 1_555
H23_2 C42_2 1_555 1_555
H24_2 C43_2 1_555 1_555
Zr3 O7_2 1_555 1_555
O12 Zr3 1_555 1_555
O13_2 Zr3 1_555 1_555
O14_2 Zr2_2 1_555 1_555
O15_2 Zr4 1_555 1_555
O16_2 Zr3 1_555 1_555
O19_2 Zr4 1_555 1_555
O20_2 Zr2_2 1_555 1_555
O21_2 Zr3 1_555 1_555
Zr4_2 O6 1_555 1_555
Zr5_2 O10_2 1_555 1_555
Zr5 O8_2 1_555 1_555
Zr8_2 O3_2 1_555 1_555
Zr9 O12 1_555 1_555
Zr11_2 O9_2 1_555 1_555
Zr12_2 O11_2 1_555 1_555
O23_2 Zr3 1_555 1_555
O23 Zr2_2 1_555 1_555
O25_2 Zr3 1_555 1_555
O26_2 Zr2_2 1_555 1_555
O27_2 Zr3 1_555 1_555
C10_2 C11_2 1_555 1_555
Zr2_2 O3_2 1_555 1_555
Zr2_2 O25 1_555 1_555
C22_2 C23_2 1_555 1_555
C25_2 C35_2 1_555 1_555
C26_2 C27_2 1_555 1_555
C32_2 C33_2 1_555 1_555
C36_2 C37_2 1_555 1_555
C42_2 C43_2 1_555 1_555
O12 Zr4_2 1_555 1_555
O15_2 Zr8_2 1_555 1_555
Zr4_2 O25_2 1_555 1_555
Zr8_2 O26_2 1_555 1_555
Zr9 O27_2 1_555 1_555
O15_3 Zr4_2 1_555 1_555
O18_2 Zr4_2 1_555 1_555
Zr9 O15_3 1_555 1_555
Zr5 O25_3 1_555 1_555
O3_3 Zr5 1_555 1_555
O5_3 Zr11_2 1_555 1_555
O12_2 Zr12_2 1_555 1_555
O13_3 Zr12_2 1_555 1_555
O14_3 Zr11_2 1_555 1_555
O15_4 Zr5 1_555 1_555
O16_3 Zr12_2 1_555 1_555
O19_3 Zr5 1_555 1_555
O20_3 Zr11_2 1_555 1_555
O21_3 Zr12_2 1_555 1_555
Zr8_3 O3_3 1_555 1_555
Zr9_2 O12_2 1_555 1_555
O23_4 Zr12_2 1_555 1_555
O23_3 Zr11_2 1_555 1_555
O25_4 Zr12_2 1_555 1_555
O26_3 Zr11_2 1_555 1_555
O27_3 Zr12_2 1_555 1_555
Zr11_2 O3_3 1_555 1_555
Zr11_2 O25_3 1_555 1_555
O12_2 Zr5_2 1_555 1_555
O15_4 Zr8_3 1_555 1_555
Zr5_2 O25_4 1_555 1_555
Zr8_3 O26_3 1_555 1_555
Zr9_2 O27_3 1_555 1_555
O15_5 Zr5_2 1_555 1_555
O18_3 Zr5_2 1_555 1_555
Zr9_2 O15_5 1_555 1_555
O23 Zr4_3 1_555 1_555
O3_4 Zr4_3 1_555 1_555
O26_2 Zr4_3 1_555 1_555
O18_4 Zr4_3 1_555 1_555
O19_4 Zr4_3 1_555 1_555
Zr8_2 O3_4 1_555 1_555
C1_4 C2_3 1_555 1_555
C2_3 H1_3 1_555 1_555
C3_4 C1_4 1_555 1_555
C4_3 C3_4 1_555 1_555
C5_3 C4_3 1_555 1_555
H2_3 C4_3 1_555 1_555
C13_4 C14_3 1_555 1_555
C14_3 C2_3 1_555 1_555
C15_4 C13_4 1_555 1_555
C16_3 C15_4 1_555 1_555
C17_3 C16_3 1_555 1_555
C18_3 C17_3 1_555 1_555
C19_3 C18_3 1_555 1_555
C20_3 C19_3 1_555 1_555
C21_3 C20_3 1_555 1_555
C22_3 C21_3 1_555 1_555
C23_3 C18_3 1_555 1_555
C24_3 C21_3 1_555 1_555
O6_2 C24_3 1_555 1_555
O21_2 C24_3 1_555 1_555
H7_3 C14_3 1_555 1_555
H8_3 C16_3 1_555 1_555
H9_3 C19_3 1_555 1_555
H10_3 C20_3 1_555 1_555
H11_3 C22_3 1_555 1_555
H12_3 C23_3 1_555 1_555
N2_4 C17_3 1_555 1_555
C25_3 C1_4 1_555 1_555
C26_3 C3_4 1_555 1_555
H13_3 C25_3 1_555 1_555
H14_3 C26_3 1_555 1_555
C35_3 C13_4 1_555 1_555
C36_3 C15_4 1_555 1_555
C37_3 N2_4 1_555 1_555
C38_3 C37_3 1_555 1_555
C39_3 C38_3 1_555 1_555
C40_3 C39_3 1_555 1_555
C41_3 C40_3 1_555 1_555
C42_3 C41_3 1_555 1_555
C43_3 C38_3 1_555 1_555
C44_3 C41_3 1_555 1_555
O10_3 C44_3 1_555 1_555
O11_3 C44_3 1_555 1_555
H19_3 C35_3 1_555 1_555
H20_3 C36_3 1_555 1_555
H21_3 C39_3 1_555 1_555
H22_3 C40_3 1_555 1_555
H23_3 C42_3 1_555 1_555
H24_3 C43_3 1_555 1_555
Zr4_4 O6_2 1_555 1_555
Zr5_3 O10_3 1_555 1_555
Zr12 O11_3 1_555 1_555
C22_3 C23_3 1_555 1_555
C25_3 C35_3 1_555 1_555
C26_3 C27_3 1_555 1_555
C36_3 C37_3 1_555 1_555
C42_3 C43_3 1_555 1_555
O23_2 Zr4_4 1_555 1_555
Zr4_4 O27_2 1_555 1_555
C7_3 C6_3 1_555 1_555
C8_3 C7_3 1_555 1_555
C9_3 C8_3 1_555 1_555
C10_3 C9_3 1_555 1_555
C11_3 C6_3 1_555 1_555
C12_3 C9_3 1_555 1_555
O1_3 C12_3 1_555 1_555
O2_3 C12_3 1_555 1_555
H3_3 C7_3 1_555 1_555
H4_3 C8_3 1_555 1_555
H5_3 C10_3 1_555 1_555
Zr4_4 O1_3 1_555 1_555
Zr9 O2_3 1_555 1_555
O3_5 Zr4_4 1_555 1_555
O5_4 Zr9 1_555 1_555
C29_3 C28_3 1_555 1_555
C30_3 C29_3 1_555 1_555
C31_3 C30_3 1_555 1_555
C32_3 C31_3 1_555 1_555
C33_3 C28_3 1_555 1_555
C34_3 C31_3 1_555 1_555
O8_3 C34_3 1_555 1_555
O9_3 C34_3 1_555 1_555
H15_3 C29_3 1_555 1_555
H16_3 C30_3 1_555 1_555
H17_3 C32_3 1_555 1_555
O14_4 Zr9 1_555 1_555
O20_4 Zr9 1_555 1_555
Zr5_3 O8_3 1_555 1_555
Zr11_3 O9_3 1_555 1_555
C10_3 C11_3 1_555 1_555
Zr9 O3_5 1_555 1_555
C32_3 C33_3 1_555 1_555
O3_6 Zr1_2 1_555 1_555
O26_3 Zr1_2 1_555 1_555
O18_5 Zr1_2 1_555 1_555
O19_5 Zr1_2 1_555 1_555
Zr8_3 O3_6 1_555 1_555
O23_3 Zr1_2 1_555 1_555
C7_4 C6_4 1_555 1_555
C8_4 C7_4 1_555 1_555
C9_4 C8_4 1_555 1_555
C10_4 C9_4 1_555 1_555
C11_4 C6_4 1_555 1_555
C12_4 C9_4 1_555 1_555
O1_4 C12_4 1_555 1_555
O2_4 C12_4 1_555 1_555
H3_4 C7_4 1_555 1_555
H4_4 C8_4 1_555 1_555
H5_4 C10_4 1_555 1_555
Zr1_3 O1_4 1_555 1_555
Zr9_2 O2_4 1_555 1_555
O3_7 Zr1_3 1_555 1_555
O27_3 Zr1_3 1_555 1_555
O5_5 Zr9_2 1_555 1_555
C29_4 C28_4 1_555 1_555
C30_4 C29_4 1_555 1_555
C31_4 C30_4 1_555 1_555
C32_4 C31_4 1_555 1_555
C33_4 C28_4 1_555 1_555
C34_4 C31_4 1_555 1_555
O8_4 C34_4 1_555 1_555
O9_4 C34_4 1_555 1_555
H15_4 C29_4 1_555 1_555
H16_4 C30_4 1_555 1_555
H17_4 C32_4 1_555 1_555
O14_5 Zr9_2 1_555 1_555
O17_2 Zr1_3 1_555 1_555
O20_5 Zr9_2 1_555 1_555
Zr6_2 O8_4 1_555 1_555
Zr10 O9_4 1_555 1_555
O23_4 Zr1_3 1_555 1_555
C10_4 C11_4 1_555 1_555
Zr9_2 O3_7 1_555 1_555
C32_4 C33_4 1_555 1_555
C1_5 C2_4 1_555 1_555
C2_4 H1_4 1_555 1_555
C3_5 C1_5 1_555 1_555
C4_4 C3_5 1_555 1_555
C5_4 C4_4 1_555 1_555
H2_4 C4_4 1_555 1_555
C13_5 C14_4 1_555 1_555
C14_4 C2_4 1_555 1_555
C15_5 C13_5 1_555 1_555
C16_4 C15_5 1_555 1_555
C17_4 C16_4 1_555 1_555
C18_4 C17_4 1_555 1_555
C19_4 C18_4 1_555 1_555
C20_4 C19_4 1_555 1_555
C21_4 C20_4 1_555 1_555
C22_4 C21_4 1_555 1_555
C23_4 C18_4 1_555 1_555
C24_4 C21_4 1_555 1_555
O17_2 C24_4 1_555 1_555
O21_3 C24_4 1_555 1_555
H7_4 C14_4 1_555 1_555
H8_4 C16_4 1_555 1_555
H9_4 C19_4 1_555 1_555
H10_4 C20_4 1_555 1_555
H11_4 C22_4 1_555 1_555
H12_4 C23_4 1_555 1_555
N2_5 C17_4 1_555 1_555
C25_4 C1_5 1_555 1_555
C26_4 C3_5 1_555 1_555
H13_4 C25_4 1_555 1_555
H14_4 C26_4 1_555 1_555
C35_4 C13_5 1_555 1_555
C36_4 C15_5 1_555 1_555
C37_4 N2_5 1_555 1_555
C38_4 C37_4 1_555 1_555
C39_4 C38_4 1_555 1_555
C40_4 C39_4 1_555 1_555
C41_4 C40_4 1_555 1_555
C42_4 C41_4 1_555 1_555
C43_4 C38_4 1_555 1_555
C44_4 C41_4 1_555 1_555
O10_4 C44_4 1_555 1_555
O21 C44_4 1_555 1_555
H19_4 C35_4 1_555 1_555
H20_4 C36_4 1_555 1_555
H21_4 C39_4 1_555 1_555
H22_4 C40_4 1_555 1_555
H23_4 C42_4 1_555 1_555
H24_4 C43_4 1_555 1_555
Zr6_2 O10_4 1_555 1_555
C22_4 C23_4 1_555 1_555
C25_4 C35_4 1_555 1_555
C26_4 C27_4 1_555 1_555
C36_4 C37_4 1_555 1_555
C42_4 C43_4 1_555 1_555
O12_3 Zr12 1_555 1_555
O13_4 Zr12 1_555 1_555
O16_4 Zr12 1_555 1_555
Zr11 O12_3 1_555 1_555
O23_5 Zr12 1_555 1_555
O25_5 Zr12 1_555 1_555
O27_4 Zr12 1_555 1_555
O12_3 Zr5_3 1_555 1_555
Zr5_3 O25_5 1_555 1_555
Zr11 O27_4 1_555 1_555
O3_8 Zr5_3 1_555 1_555
O5_6 Zr11_3 1_555 1_555
O14_6 Zr11_3 1_555 1_555
O15_6 Zr5_3 1_555 1_555
O18_6 Zr5_3 1_555 1_555
O19_6 Zr5_3 1_555 1_555
O20_6 Zr11_3 1_555 1_555
Zr8_4 O3_8 1_555 1_555
Zr11 O15_6 1_555 1_555
O23_5 Zr11_3 1_555 1_555
O26_4 Zr11_3 1_555 1_555
Zr11_3 O3_8 1_555 1_555
Zr11_3 O25_5 1_555 1_555
O15_6 Zr8_4 1_555 1_555
Zr8_4 O26_4 1_555 1_555
O3_9 Zr6_2 1_555 1_555
O27 Zr6_2 1_555 1_555
O5_7 Zr10 1_555 1_555
O14_7 Zr10 1_555 1_555
O26 Zr6_2 1_555 1_555
O18_7 Zr6_2 1_555 1_555
O19_7 Zr6_2 1_555 1_555
O20_7 Zr10 1_555 1_555
Zr8 O3_9 1_555 1_555
O24 Zr6_2 1_555 1_555
Zr10 O3_9 1_555 1_555
O3_10 Zr6 1_555 1_555
O27_4 Zr6 1_555 1_555
O5_8 Zr11 1_555 1_555
O14_8 Zr11 1_555 1_555
O26_4 Zr6 1_555 1_555
O18_8 Zr6 1_555 1_555
O19_8 Zr6 1_555 1_555
O20_8 Zr11 1_555 1_555
Zr8_4 O3_10 1_555 1_555
O23_5 Zr6 1_555 1_555
Zr11 O3_10 1_555 1_555
C3_6 C1_6 1_555 1_555
C15_6 C13_6 1_555 1_555
C25_5 C1_6 1_555 1_555
C26_5 C3_6 1_555 1_555
C27_5 N1_6 1_555 1_555
C28_5 C27_5 1_555 1_555
C29_5 C28_5 1_555 1_555
C30_5 C29_5 1_555 1_555
C31_5 C30_5 1_555 1_555
C32_5 C31_5 1_555 1_555
C33_5 C28_5 1_555 1_555
C34_5 C31_5 1_555 1_555
O18_3 C34_5 1_555 1_555
O20_5 C34_5 1_555 1_555
H13_5 C25_5 1_555 1_555
H14_5 C26_5 1_555 1_555
H15_5 C29_5 1_555 1_555
H16_5 C30_5 1_555 1_555
H17_5 C32_5 1_555 1_555
H18_5 C33_5 1_555 1_555
C35_5 C13_6 1_555 1_555
C36_5 C15_6 1_555 1_555
C37_5 N2_6 1_555 1_555
C38_5 C37_5 1_555 1_555
C39_5 C38_5 1_555 1_555
C40_5 C39_5 1_555 1_555
C41_5 C40_5 1_555 1_555
C42_5 C41_5 1_555 1_555
C43_5 C38_5 1_555 1_555
C44_5 C41_5 1_555 1_555
O19_3 C44_5 1_555 1_555
O11_4 C44_5 1_555 1_555
H19_5 C35_5 1_555 1_555
H20_5 C36_5 1_555 1_555
H21_5 C39_5 1_555 1_555
H22_5 C40_5 1_555 1_555
H23_5 C42_5 1_555 1_555
H24_5 C43_5 1_555 1_555
Zr8_3 O11_4 1_555 1_555
C25_5 C35_5 1_555 1_555
C26_5 C27_5 1_555 1_555
C32_5 C33_5 1_555 1_555
C36_5 C37_5 1_555 1_555
C42_5 C43_5 1_555 1_555
C1_7 C2_5 1_555 1_555
C2_5 H1_5 1_555 1_555
C3_7 C1_7 1_555 1_555
C4_5 C3_7 1_555 1_555
C5_5 C4_5 1_555 1_555
C6_5 C5_5 1_555 1_555
C7_5 C6_5 1_555 1_555
C8_5 C7_5 1_555 1_555
C9_5 C8_5 1_555 1_555
C10_5 C9_5 1_555 1_555
C11_5 C6_5 1_555 1_555
C12_5 C9_5 1_555 1_555
O18_2 C12_5 1_555 1_555
O20_4 C12_5 1_555 1_555
H2_5 C4_5 1_555 1_555
H3_5 C7_5 1_555 1_555
H4_5 C8_5 1_555 1_555
H5_5 C10_5 1_555 1_555
H6_5 C11_5 1_555 1_555
N1_7 C5_5 1_555 1_555
C13_7 C14_5 1_555 1_555
C14_5 C2_5 1_555 1_555
C15_7 C13_7 1_555 1_555
C16_5 C15_7 1_555 1_555
C17_5 C16_5 1_555 1_555
C18_5 C17_5 1_555 1_555
C19_5 C18_5 1_555 1_555
C20_5 C19_5 1_555 1_555
C21_5 C20_5 1_555 1_555
C22_5 C21_5 1_555 1_555
C23_5 C18_5 1_555 1_555
C24_5 C21_5 1_555 1_555
O19_2 C24_5 1_555 1_555
O7_3 C24_5 1_555 1_555
H7_5 C14_5 1_555 1_555
H8_5 C16_5 1_555 1_555
H9_5 C19_5 1_555 1_555
H10_5 C20_5 1_555 1_555
H11_5 C22_5 1_555 1_555
H12_5 C23_5 1_555 1_555
N2_7 C17_5 1_555 1_555
Zr8_2 O7_3 1_555 1_555
O13_5 Zr8_2 1_555 1_555
O16_5 Zr8_2 1_555 1_555
O21_4 Zr8_2 1_555 1_555
C10_5 C11_5 1_555 1_555
C22_5 C23_5 1_555 1_555
C13_8 C14_6 1_555 1_555
C15_8 C13_8 1_555 1_555
C16_6 C15_8 1_555 1_555
C17_6 C16_6 1_555 1_555
C18_6 C17_6 1_555 1_555
C19_6 C18_6 1_555 1_555
C20_6 C19_6 1_555 1_555
C21_6 C20_6 1_555 1_555
C22_6 C21_6 1_555 1_555
C23_6 C18_6 1_555 1_555
C24_6 C21_6 1_555 1_555
O19 C24_6 1_555 1_555
O7_4 C24_6 1_555 1_555
H7_6 C14_6 1_555 1_555
H8_6 C16_6 1_555 1_555
H9_6 C19_6 1_555 1_555
H10_6 C20_6 1_555 1_555
H11_6 C22_6 1_555 1_555
H12_6 C23_6 1_555 1_555
N2_8 C17_6 1_555 1_555
Zr8 O7_4 1_555 1_555
O13_6 Zr8 1_555 1_555
O16_6 Zr8 1_555 1_555
O21_5 Zr8 1_555 1_555
C22_6 C23_6 1_555 1_555
C15_9 C13_9 1_555 1_555
C35_6 C13_9 1_555 1_555
C36_6 C15_9 1_555 1_555
C37_6 N2_9 1_555 1_555
C38_6 C37_6 1_555 1_555
C39_6 C38_6 1_555 1_555
C40_6 C39_6 1_555 1_555
C41_6 C40_6 1_555 1_555
C42_6 C41_6 1_555 1_555
C43_6 C38_6 1_555 1_555
C44_6 C41_6 1_555 1_555
O19_8 C44_6 1_555 1_555
O11_5 C44_6 1_555 1_555
H19_6 C35_6 1_555 1_555
H20_6 C36_6 1_555 1_555
H21_6 C39_6 1_555 1_555
H22_6 C40_6 1_555 1_555
H23_6 C42_6 1_555 1_555
H24_6 C43_6 1_555 1_555
Zr8_4 O11_5 1_555 1_555
C36_6 C37_6 1_555 1_555
C42_6 C43_6 1_555 1_555
C1_8 C2_6 1_555 1_555
C2_6 H1_6 1_555 1_555
C3_8 C1_8 1_555 1_555
C4_6 C3_8 1_555 1_555
C5_6 C4_6 1_555 1_555
C6_6 C5_6 1_555 1_555
C7_6 C6_6 1_555 1_555
C8_6 C7_6 1_555 1_555
C9_6 C8_6 1_555 1_555
C10_6 C9_6 1_555 1_555
C11_6 C6_6 1_555 1_555
C12_6 C9_6 1_555 1_555
O18 C12_6 1_555 1_555
O20_7 C12_6 1_555 1_555
H2_6 C4_6 1_555 1_555
H3_6 C7_6 1_555 1_555
H4_6 C8_6 1_555 1_555
H5_6 C10_6 1_555 1_555
H6_6 C11_6 1_555 1_555
N1_8 C5_6 1_555 1_555
C10_6 C11_6 1_555 1_555
C3_9 C1_9 1_555 1_555
C25_6 C1_9 1_555 1_555
C26_6 C3_9 1_555 1_555
C27_6 N1_9 1_555 1_555
C28_6 C27_6 1_555 1_555
C29_6 C28_6 1_555 1_555
C30_6 C29_6 1_555 1_555
C31_6 C30_6 1_555 1_555
C32_6 C31_6 1_555 1_555
C33_6 C28_6 1_555 1_555
C34_6 C31_6 1_555 1_555
O18_8 C34_6 1_555 1_555
O20_6 C34_6 1_555 1_555
H13_6 C25_6 1_555 1_555
H14_6 C26_6 1_555 1_555
H15_6 C29_6 1_555 1_555
H16_6 C30_6 1_555 1_555
H17_6 C32_6 1_555 1_555
H18_6 C33_6 1_555 1_555
C26_6 C27_6 1_555 1_555
C32_6 C33_6 1_555 1_555
O13_7 Zr8_4 1_555 1_555
O16_7 Zr8_4 1_555 1_555
O21_6 Zr8_4 1_555 1_555
C19_7 C18_7 1_555 1_555
C20_7 C19_7 1_555 1_555
C21_7 C20_7 1_555 1_555
C22_7 C21_7 1_555 1_555
C23_7 C18_7 1_555 1_555
C24_7 C21_7 1_555 1_555
O19_7 C24_7 1_555 1_555
O21_5 C24_7 1_555 1_555
H9_7 C19_7 1_555 1_555
H10_7 C20_7 1_555 1_555
H11_7 C22_7 1_555 1_555
C39_7 C38_7 1_555 1_555
C40_7 C39_7 1_555 1_555
C41_7 C40_7 1_555 1_555
C42_7 C41_7 1_555 1_555
C43_7 C38_7 1_555 1_555
C44_7 C41_7 1_555 1_555
O19_5 C44_7 1_555 1_555
O11_6 C44_7 1_555 1_555
H21_7 C39_7 1_555 1_555
H22_7 C40_7 1_555 1_555
H23_7 C42_7 1_555 1_555
Zr8_3 O11_6 1_555 1_555
C22_7 C23_7 1_555 1_555
C42_7 C43_7 1_555 1_555
C1_10 C2_7 1_555 1_555
C2_7 H1_7 1_555 1_555
C3_10 C1_10 1_555 1_555
C4_7 C3_10 1_555 1_555
C5_7 C4_7 1_555 1_555
C6_7 C5_7 1_555 1_555
C7_7 C6_7 1_555 1_555
C8_7 C7_7 1_555 1_555
C9_7 C8_7 1_555 1_555
C10_7 C9_7 1_555 1_555
C11_7 C6_7 1_555 1_555
C12_7 C9_7 1_555 1_555
O18_7 C12_7 1_555 1_555
O20 C12_7 1_555 1_555
H2_7 C4_7 1_555 1_555
H3_7 C7_7 1_555 1_555
H4_7 C8_7 1_555 1_555
H5_7 C10_7 1_555 1_555
H6_7 C11_7 1_555 1_555
N1_10 C5_7 1_555 1_555
C13_10 C14_7 1_555 1_555
C14_7 C2_7 1_555 1_555
C15_10 C13_10 1_555 1_555
C16_7 C15_10 1_555 1_555
C17_7 C16_7 1_555 1_555
H7_7 C14_7 1_555 1_555
H8_7 C16_7 1_555 1_555
C25_7 C1_10 1_555 1_555
C26_7 C3_10 1_555 1_555
C27_7 N1_10 1_555 1_555
C28_7 C27_7 1_555 1_555
C29_7 C28_7 1_555 1_555
C30_7 C29_7 1_555 1_555
C31_7 C30_7 1_555 1_555
C32_7 C31_7 1_555 1_555
C33_7 C28_7 1_555 1_555
C34_7 C31_7 1_555 1_555
O18_5 C34_7 1_555 1_555
O20_3 C34_7 1_555 1_555
H13_7 C25_7 1_555 1_555
H14_7 C26_7 1_555 1_555
H15_7 C29_7 1_555 1_555
H16_7 C30_7 1_555 1_555
H17_7 C32_7 1_555 1_555
H18_7 C33_7 1_555 1_555
C35_7 C13_10 1_555 1_555
C36_7 C15_10 1_555 1_555
H19_7 C35_7 1_555 1_555
H20_7 C36_7 1_555 1_555
C10_7 C11_7 1_555 1_555
C25_7 C35_7 1_555 1_555
C26_7 C27_7 1_555 1_555
C32_7 C33_7 1_555 1_555
C36_7 C37_7 1_555 1_555
C1_11 C2_8 1_555 1_555
C2_8 H1_8 1_555 1_555
C3_11 C1_11 1_555 1_555
C4_8 C3_11 1_555 1_555
C5_8 C4_8 1_555 1_555
C6_8 C5_8 1_555 1_555
C7_8 C6_8 1_555 1_555
C8_8 C7_8 1_555 1_555
C9_8 C8_8 1_555 1_555
C10_8 C9_8 1_555 1_555
C11_8 C6_8 1_555 1_555
C12_8 C9_8 1_555 1_555
O18_6 C12_8 1_555 1_555
O20_8 C12_8 1_555 1_555
H2_8 C4_8 1_555 1_555
H3_8 C7_8 1_555 1_555
H4_8 C8_8 1_555 1_555
H5_8 C10_8 1_555 1_555
H6_8 C11_8 1_555 1_555
N1_11 C5_8 1_555 1_555
C13_11 C14_8 1_555 1_555
C14_8 C2_8 1_555 1_555
C15_11 C13_11 1_555 1_555
C16_8 C15_11 1_555 1_555
C17_8 C16_8 1_555 1_555
H7_8 C14_8 1_555 1_555
H8_8 C16_8 1_555 1_555
C25_8 C1_11 1_555 1_555
C26_8 C3_11 1_555 1_555
C27_8 N1_11 1_555 1_555
C28_8 C27_8 1_555 1_555
C29_8 C28_8 1_555 1_555
C30_8 C29_8 1_555 1_555
C31_8 C30_8 1_555 1_555
C32_8 C31_8 1_555 1_555
C33_8 C28_8 1_555 1_555
C34_8 C31_8 1_555 1_555
O18_4 C34_8 1_555 1_555
O20_2 C34_8 1_555 1_555
H13_8 C25_8 1_555 1_555
H14_8 C26_8 1_555 1_555
H15_8 C29_8 1_555 1_555
H16_8 C30_8 1_555 1_555
H17_8 C32_8 1_555 1_555
H18_8 C33_8 1_555 1_555
C35_8 C13_11 1_555 1_555
C36_8 C15_11 1_555 1_555
H19_8 C35_8 1_555 1_555
H20_8 C36_8 1_555 1_555
C10_8 C11_8 1_555 1_555
C25_8 C35_8 1_555 1_555
C26_8 C27_8 1_555 1_555
C32_8 C33_8 1_555 1_555
C36_8 C37_8 1_555 1_555
C19_8 C18_8 1_555 1_555
C20_8 C19_8 1_555 1_555
C21_8 C20_8 1_555 1_555
C22_8 C21_8 1_555 1_555
C23_8 C18_8 1_555 1_555
C24_8 C21_8 1_555 1_555
O19_6 C24_8 1_555 1_555
O21_6 C24_8 1_555 1_555
H9_8 C19_8 1_555 1_555
H10_8 C20_8 1_555 1_555
H11_8 C22_8 1_555 1_555
C39_8 C38_8 1_555 1_555
C40_8 C39_8 1_555 1_555
C41_8 C40_8 1_555 1_555
C42_8 C41_8 1_555 1_555
C43_8 C38_8 1_555 1_555
C44_8 C41_8 1_555 1_555
O19_4 C44_8 1_555 1_555
O21_4 C44_8 1_555 1_555
H21_8 C39_8 1_555 1_555
H22_8 C40_8 1_555 1_555
H23_8 C42_8 1_555 1_555
C22_8 C23_8 1_555 1_555
C42_8 C43_8 1_555 1_555
O13_8 Zr8_3 1_555 1_555
O16_8 Zr8_3 1_555 1_555
C15_12 C13_12 1_555 1_555
C15_13 C13_13 1_555 1_555
C3_12 C1_12 1_555 1_555
C3_13 C1_13 1_555 1_555

#END
