
###############################################################################
#
# This file contains modified crystal structure data generated from the
# MOF subset of the Cambridge Structural Database (CSD) v543 
# hosted by the Cambridge Crystallographic Data Centre (CCDC).
#
# This work is licensed under the Creative Commons
# Attribution-NonCommercial-ShareAlike 4.0 International License.
# To view a copy of this license, visit
# http://creativecommons.org/licenses/by-nc-sa/4.0/
# or send a letter to
# Creative Commons, PO Box 1866, Mountain View, CA 94042, USA.
#
# CIF created using the CSD Python API on 29 September 2022
# The structure has been converted into the P1 space group
# The structure has a 3D framework
# The original CSD entry VITHIR is in the rhombohedral crystal system
# The framework has been calculated to contain at least 10.0% void space
# The void calculation uses a probe of radius 1.32A, grid spacing 0.4
#
###############################################################################

data_VITHIR
_chemical_formula_moiety         '(C468 H540 Cd21 N144 O72)n'
_symmetry_cell_setting           triclinic
_symmetry_space_group_name_H-M   'P 1'
_symmetry_Int_Tables_number      1
_space_group_name_Hall           'P 1'
loop_
_symmetry_equiv_pos_site_id
_symmetry_equiv_pos_as_xyz
1 x,y,z
_cell_length_a                   20.5333(3)
_cell_length_b                   20.5333(3)
_cell_length_c                   50.8055(15)
_cell_angle_alpha                90
_cell_angle_beta                 90
_cell_angle_gamma                120
_cell_volume                     18550.6
loop_
_atom_site_label
_atom_site_type_symbol
_atom_site_fract_x
_atom_site_fract_y
_atom_site_fract_z
O3 O 0.20521(16) 0.09554(23) 0.40765(6)
C14 C 0.1530(2) 0.0281(4) 0.40665(9)
C15 C 0.0738(2) 0.0133(3) 0.40762(9)
O6 O 0.02650(24) 0.19011(17) 0.40465(7)
C19 C 0.0594(4) 0.0726(3) 0.40779(9)
H17 H 0.0997 0.1217 0.4080
Cd2 Cd 0.3333 0.15035(2) 0.4167
N5 N 0.3489(2) 0.0874(3) 0.38125(8)
N6 N 0.2890(2) 0.0199(3) 0.37510(9)
N7 N 0.4345(3) 0.0837(4) 0.27426(9)
H19 H 0.4475 0.1075 0.2595
N8 N 0.4400(2) 0.0220(3) 0.27944(8)
C21 C 0.4156(3) 0.0029(4) 0.30437(8)
C22 C 0.3938(3) 0.0530(4) 0.31458(9)
C23 C 0.4062(3) 0.1036(4) 0.29476(11)
C24 C 0.3943(6) 0.1696(7) 0.29333(15)
H23 H 0.3521 0.1577 0.2822
H24 H 0.4385 0.2121 0.2862
H25 H 0.3848 0.1816 0.3107
C25 C 0.3635(3) 0.0526(4) 0.34119(10)
C28 C 0.4675(3) 0.1812(4) 0.35976(11)
H29 H 0.4585 0.2212 0.3647
H30 H 0.4878 0.1899 0.3423
H31 H 0.5027 0.1796 0.3718
C29 C 0.3939(3) 0.1068(4) 0.36059(10)
H32 H 0.0052 0.2566 0.3854
C30 C 0.0634(5) 0.4765(3) 0.31684(11)
H34 H 0.0706 0.4622 0.3341
H35 H 0.0557 0.5188 0.3182
H36 H 0.1072 0.4900 0.3063
C36 C 0.0030(4) 0.2982(3) 0.35124(10)
C37 C 0.0743(7) 0.3091(6) 0.33960(17)
H40 H 0.0918 0.2812 0.3496
H41 H 0.1116 0.3616 0.3400
H42 H 0.0655 0.2916 0.3217
Cd8 Cd -0.0000 0.51628(2) 0.2500
Cd10 Cd 0.51632(2) 0.0000 0.2500
O13 O 0.46146(16) 0.22366(16) 0.42568(6)
N25 N 0.3178(2) 0.0718(2) 0.45208(8)
N27 N 0.3553(3) 0.2487(2) 0.38723(8)
N29 N 0.3113(3) 0.2267(2) 0.44611(8)
O4 O 0.16361(17) 0.97350(24) 0.40465(7)
C16 C 0.0132(3) 0.9406(4) 0.40779(9)
H16 H 0.0220 0.9003 0.4080
H18 H 0.2514 0.9948 0.3854
C20 C 0.4131(4) 0.9366(5) 0.31684(11)
H20 H 0.3916 0.9294 0.3341
H21 H 0.4631 0.9443 0.3182
H22 H 0.3828 0.8928 0.3063
C26 C 0.2952(3) 0.9970(4) 0.35124(10)
C27 C 0.2348(4) 0.9257(7) 0.33960(17)
H26 H 0.1894 0.9082 0.3496
H27 H 0.2500 0.8884 0.3400
H28 H 0.2261 0.9345 0.3217
N22 N 0.0443(2) 0.6468(3) 0.29157(9)
H74 H 0.0819 0.6719 0.2813
C66 C 0.0381(3) 0.6697(4) 0.31543(10)
C67 C 0.0985(4) 0.7410(7) 0.32707(17)
H82 H 0.1439 0.7585 0.3171
H83 H 0.0833 0.7783 0.3267
H84 H 0.1072 0.7322 0.3450
Cd10_2 Cd 0.51632(2) 1.0000 0.2500
O5 O 0.90446(23) 0.10967(16) 0.40765(6)
C17 C 0.9719(4) 0.1249(3) 0.40665(9)
C18 C 0.9867(3) 0.0605(2) 0.40762(9)
Cd3 Cd 0.84965(2) 0.18295(2) 0.4167
N9 N 0.9126(3) 0.2615(2) 0.38125(8)
N10 N 0.9801(3) 0.2691(2) 0.37510(9)
N11 N 0.9163(4) 0.3508(3) 0.27426(9)
H33 H 0.8925 0.3400 0.2595
N12 N 0.9780(3) 0.4180(2) 0.27944(8)
C31 C 0.9971(4) 0.4127(2) 0.30437(8)
C32 C 0.9470(4) 0.3408(3) 0.31458(9)
C33 C 0.8964(4) 0.3026(3) 0.29476(11)
C34 C 0.8304(7) 0.2247(4) 0.29333(15)
H37 H 0.8423 0.1944 0.2822
H38 H 0.7879 0.2264 0.2862
H39 H 0.8184 0.2032 0.3107
C35 C 0.9474(4) 0.3109(3) 0.34119(10)
C38 C 0.8188(4) 0.2863(3) 0.35976(11)
H43 H 0.7788 0.2373 0.3647
H44 H 0.8101 0.2979 0.3423
H45 H 0.8204 0.3231 0.3718
C39 C 0.8932(4) 0.2871(3) 0.36059(10)
N13 N 0.5948(2) 0.0156(2) 0.28542(8)
N15 N 0.6841(3) 0.1012(3) 0.39241(9)
H47 H 0.6733 0.1142 0.4072
N16 N 0.7513(2) 0.1067(2) 0.38723(8)
C40 C 0.8098(3) 0.0798(4) 0.34983(11)
H48 H 0.7955 0.0583 0.3326
H49 H 0.8521 0.1298 0.3485
H50 H 0.8233 0.0495 0.3604
C41 C 0.7460(2) 0.0823(3) 0.36230(8)
C42 C 0.6741(3) 0.0605(3) 0.35209(9)
C43 C 0.6359(3) 0.0729(3) 0.37191(11)
C44 C 0.5580(4) 0.0610(6) 0.37334(15)
H51 H 0.5277 0.0188 0.3845
H52 H 0.5597 0.1052 0.3805
H53 H 0.5365 0.0515 0.3560
C45 C 0.6442(3) 0.0302(3) 0.32548(10)
C48 C 0.6196(3) 0.1342(3) 0.30691(11)
H57 H 0.5706 0.1252 0.3020
H58 H 0.6312 0.1545 0.3244
H59 H 0.6564 0.1694 0.2949
C49 C 0.6204(3) 0.0606(3) 0.30608(10)
Cd8_2 Cd 1.0000 0.51628(2) 0.2500
O14 O 0.77634(16) 0.23779(23) 0.42568(6)
N26 N 0.9282(2) 0.2459(3) 0.45208(8)
N28 N 0.7733(2) 0.0847(2) 0.44611(8)
Cd1 Cd 0.81705(2) 0.6667 0.4167
O1 O 0.89033(16) 0.79479(16) 0.40765(6)
O2 O 0.80989(17) 0.83639(17) 0.40465(7)
N1 N 0.7385(2) 0.6511(2) 0.38125(8)
N2 N 0.7309(2) 0.7110(2) 0.37510(9)
H1 H 0.7434 0.7486 0.3854
N3 N 0.6492(3) 0.5655(3) 0.27426(9)
H2 H 0.6600 0.5525 0.2595
N4 N 0.5820(2) 0.5600(2) 0.27944(8)
C1 C 0.5235(3) 0.5869(4) 0.31684(11)
H3 H 0.5378 0.6084 0.3341
H4 H 0.4812 0.5369 0.3182
H5 H 0.5100 0.6172 0.3063
C2 C 0.5873(2) 0.5844(3) 0.30437(8)
C3 C 0.6592(3) 0.6062(3) 0.31458(9)
C4 C 0.6974(3) 0.5938(3) 0.29476(11)
C5 C 0.7753(4) 0.6057(6) 0.29333(15)
H6 H 0.8056 0.6479 0.2822
H7 H 0.7736 0.5615 0.2862
H8 H 0.7968 0.6152 0.3107
C6 C 0.6891(3) 0.6365(3) 0.34119(10)
C7 C 0.7018(3) 0.7048(3) 0.35124(10)
C8 C 0.6909(6) 0.7652(4) 0.33960(17)
H9 H 0.7188 0.8106 0.3496
H10 H 0.6384 0.7500 0.3400
H11 H 0.7084 0.7739 0.3217
C9 C 0.7137(3) 0.5325(3) 0.35976(11)
H12 H 0.7627 0.5415 0.3647
H13 H 0.7021 0.5122 0.3423
H14 H 0.6769 0.4973 0.3718
C10 C 0.7129(3) 0.6061(3) 0.36059(10)
C11 C 0.8751(3) 0.8470(2) 0.40665(9)
C12 C 0.9395(2) 0.9262(2) 0.40762(9)
C13 C 0.9274(3) 0.9868(3) 0.40779(9)
H15 H 0.8783 0.9780 0.4080
N14 N 0.6024(2) 0.9557(2) 0.29157(9)
H46 H 0.5899 0.9181 0.2813
C46 C 0.6315(3) 0.9619(3) 0.31543(10)
C47 C 0.6424(6) 0.9015(4) 0.32707(17)
H54 H 0.6145 0.8561 0.3171
H55 H 0.6949 0.9167 0.3267
H56 H 0.6249 0.8928 0.3450
N17 N 0.7541(3) 0.6822(2) 0.45208(8)
N18 N 0.6866(3) 0.6223(2) 0.45823(9)
H60 H 0.6615 0.5847 0.4479
N19 N 0.7504(4) 0.7678(3) 0.55907(9)
H61 H 0.7742 0.7808 0.5738
N20 N 0.6887(3) 0.7733(2) 0.55389(8)
C50 C 0.6033(5) 0.7464(4) 0.51649(11)
H62 H 0.5961 0.7249 0.4992
H63 H 0.6110 0.7964 0.5151
H64 H 0.5595 0.7161 0.5270
C51 C 0.6696(4) 0.7489(3) 0.52896(8)
C52 C 0.7197(4) 0.7271(3) 0.51875(9)
C53 C 0.7703(4) 0.7395(3) 0.53857(11)
C54 C 0.8363(7) 0.7276(6) 0.54000(15)
H65 H 0.8244 0.6854 0.5511
H66 H 0.8788 0.7718 0.5471
H67 H 0.8483 0.7181 0.5226
C55 C 0.7193(4) 0.6968(3) 0.49214(10)
C56 C 0.6637(4) 0.6285(3) 0.48209(10)
C57 C 0.5924(7) 0.5681(4) 0.49373(17)
H68 H 0.5749 0.5227 0.4837
H69 H 0.5551 0.5833 0.4933
H70 H 0.6012 0.5594 0.5116
C58 C 0.8479(4) 0.8008(3) 0.47357(11)
H71 H 0.8879 0.7918 0.4686
H72 H 0.8566 0.8211 0.4910
H73 H 0.8463 0.8360 0.4615
C59 C 0.7735(4) 0.7272(3) 0.47274(10)
N21 N 0.9844(2) 0.5793(3) 0.28542(8)
N23 N 0.8988(3) 0.5830(4) 0.39241(9)
H75 H 0.8858 0.5592 0.4072
N24 N 0.8933(2) 0.6447(3) 0.38723(8)
C60 C 0.9202(4) 0.7301(5) 0.34983(11)
H76 H 0.9417 0.7373 0.3326
H77 H 0.8702 0.7224 0.3485
H78 H 0.9505 0.7739 0.3604
C61 C 0.9177(3) 0.6638(4) 0.36230(8)
C62 C 0.9395(3) 0.6137(4) 0.35209(9)
C63 C 0.9271(3) 0.5631(4) 0.37191(11)
C64 C 0.9390(6) 0.4971(7) 0.37334(15)
H79 H 0.9812 0.5090 0.3845
H80 H 0.8948 0.4546 0.3805
H81 H 0.9485 0.4851 0.3560
C65 C 0.9698(3) 0.6141(4) 0.32548(10)
C68 C 0.8658(3) 0.4855(4) 0.30691(11)
H85 H 0.8748 0.4455 0.3020
H86 H 0.8455 0.4768 0.3244
H87 H 0.8306 0.4871 0.2949
C69 C 0.9394(3) 0.5599(4) 0.30608(10)
O7 O 0.76221(23) 0.53854(16) 0.42568(6)
O8 O 0.64017(24) 0.49694(17) 0.42868(7)
C70 C 0.6948(4) 0.4863(2) 0.42668(9)
C71 C 0.6800(3) 0.4071(2) 0.42571(9)
C72 C 0.6073(4) 0.3465(3) 0.42554(9)
H88 H 0.5670 0.3553 0.4253
O10 O 0.85678(17) 0.35983(24) 0.42868(7)
C73 C 0.7916(3) 0.3052(4) 0.42668(9)
C74 C 0.7272(2) 0.3200(3) 0.42571(9)
C75 C 0.7393(3) 0.3927(4) 0.42554(9)
H89 H 0.7884 0.4330 0.4253
O12 O 0.50306(17) 0.14322(17) 0.42868(7)
C76 C 0.5137(2) 0.2084(3) 0.42668(9)
C77 C 0.5929(2) 0.2728(2) 0.42571(9)
C78 C 0.6535(3) 0.2607(3) 0.42554(9)
H90 H 0.6447 0.2116 0.4253
Cd6 Cd 0.6667 0.84965(2) 0.5833
Cd11 Cd 0.48372(2) 0.48368(2) 0.2500
N30 N 0.9153(2) 0.6887(3) 0.44611(8)
N18_2 N 0.3777(2) 0.0642(4) 0.45823(9)
H60_2 H 0.4153 0.0767 0.4479
C53_2 C 0.2605(3) 0.0307(5) 0.53857(11)
C54_2 C 0.2724(6) 0.1086(9) 0.54000(15)
H65_2 H 0.3146 0.1389 0.5511
H66_2 H 0.2282 0.1069 0.5471
H67_2 H 0.2819 0.1301 0.5226
C55_2 C 0.3032(3) 0.0224(5) 0.49214(10)
C56_2 C 0.3715(3) 0.0351(5) 0.48209(10)
C57_2 C 0.4319(4) 0.0242(8) 0.49373(17)
H68_2 H 0.4773 0.0521 0.4837
H70_2 H 0.4406 0.0417 0.5116
C58_2 C 0.1992(3) 0.0470(5) 0.47357(11)
H71_2 H 0.2082 0.0960 0.4686
H72_2 H 0.1789 0.0354 0.4910
H73_2 H 0.1640 0.0102 0.4615
C59_2 C 0.2728(3) 0.0462(5) 0.47274(10)
N21_2 N 0.4207(3) 0.4052(4) 0.28542(8)
N22_2 N 0.3532(3) 0.3976(4) 0.29157(9)
H74_2 H 0.3281 0.4101 0.2813
N23_2 N 0.4170(4) 0.3159(5) 0.39241(9)
H75_2 H 0.4408 0.3267 0.4072
C60_2 C 0.2699(5) 0.1902(6) 0.34983(11)
H76_2 H 0.2627 0.2045 0.3326
H77_2 H 0.2776 0.1479 0.3485
H78_2 H 0.2261 0.1767 0.3604
C61_2 C 0.3362(4) 0.2540(5) 0.36230(8)
C62_2 C 0.3863(4) 0.3259(5) 0.35209(9)
C63_2 C 0.4369(4) 0.3641(5) 0.37191(11)
C64_2 C 0.5029(7) 0.4420(9) 0.37334(15)
H79_2 H 0.4910 0.4723 0.3845
H80_2 H 0.5454 0.4403 0.3805
H81_2 H 0.5149 0.4635 0.3560
C65_2 C 0.3859(4) 0.3558(5) 0.32548(10)
C66_2 C 0.3303(4) 0.3685(5) 0.31543(10)
C67_2 C 0.2590(7) 0.3576(8) 0.32707(17)
H82_2 H 0.2415 0.3855 0.3171
H83_2 H 0.2217 0.3051 0.3267
H84_2 H 0.2678 0.3751 0.3450
C68_2 C 0.5145(4) 0.3804(5) 0.30691(11)
H85_2 H 0.5545 0.4294 0.3020
H86_2 H 0.5232 0.3688 0.3244
H87_2 H 0.5129 0.3436 0.2949
C69_2 C 0.4401(4) 0.3796(5) 0.30608(10)
N19_2 N 0.2322(3) 0.9825(5) 0.55907(9)
H61_2 H 0.2192 0.9933 0.5738
N20_2 N 0.2267(2) 0.9153(4) 0.55389(8)
C50_2 C 0.2536(4) 0.8568(6) 0.51649(11)
H62_2 H 0.2751 0.8711 0.4992
H63_2 H 0.2036 0.8145 0.5151
H64_2 H 0.2839 0.8433 0.5270
C51_2 C 0.2511(3) 0.9206(5) 0.52896(8)
C52_2 C 0.2729(3) 0.9925(5) 0.51875(9)
H69_2 H 0.4167 0.9717 0.4933
Cd6_2 Cd 0.15035(2) 0.81705(2) 0.5833
N19_3 N 0.0175(5) 0.2496(4) 0.55907(9)
H61_3 H 0.0067 0.2258 0.5738
N20_3 N 0.0847(4) 0.3113(3) 0.55389(8)
C50_3 C 0.1432(6) 0.3967(5) 0.51649(11)
H62_3 H 0.1289 0.4039 0.4992
H63_3 H 0.1855 0.3890 0.5151
H64_3 H 0.1567 0.4405 0.5270
C51_3 C 0.0794(5) 0.3304(4) 0.52896(8)
C52_3 C 0.0075(5) 0.2803(4) 0.51875(9)
H69_3 H 0.0283 0.4449 0.4933
Cd6_3 Cd 0.18295(2) 0.3333 0.5833
N18_3 N 0.9358(4) 0.3134(3) 0.45823(9)
H60_3 H 0.9233 0.3385 0.4479
C53_3 C 0.9693(5) 0.2297(4) 0.53857(11)
C54_3 C 0.8914(9) 0.1637(7) 0.54000(15)
H65_3 H 0.8611 0.1756 0.5511
H66_3 H 0.8931 0.1212 0.5471
H67_3 H 0.8699 0.1517 0.5226
C55_3 C 0.9776(5) 0.2807(4) 0.49214(10)
C56_3 C 0.9649(5) 0.3363(4) 0.48209(10)
C57_3 C 0.9758(8) 0.4076(7) 0.49373(17)
H68_3 H 0.9479 0.4251 0.4837
H70_3 H 0.9583 0.3988 0.5116
C58_3 C 0.9530(5) 0.1521(4) 0.47357(11)
H71_3 H 0.9040 0.1121 0.4686
H72_3 H 0.9646 0.1434 0.4910
H73_3 H 0.9898 0.1537 0.4615
C59_3 C 0.9538(5) 0.2265(4) 0.47274(10)
O3_2 O 0.09554(23) 0.20521(16) 0.09235(6)
C14_2 C 0.0281(4) 0.1530(2) 0.09335(9)
C15_2 C 0.0133(3) 0.0738(2) 0.09238(9)
O6_2 O 0.19011(17) 0.02650(24) 0.09535(7)
C19_2 C 0.0726(3) 0.0594(4) 0.09221(9)
H17_2 H 0.1217 0.0997 0.0920
Cd2_2 Cd 0.15035(2) 0.3333 0.0833
N5_2 N 0.0874(3) 0.3489(2) 0.11875(8)
N6_2 N 0.0199(3) 0.2890(2) 0.12490(9)
N7_2 N 0.0837(4) 0.4345(3) 0.22574(9)
H19_2 H 0.1075 0.4475 0.2405
N8_2 N 0.0220(3) 0.4400(2) 0.22056(8)
C21_2 C 0.0029(4) 0.4156(3) 0.19563(8)
C22_2 C 0.0530(4) 0.3938(3) 0.18542(9)
C23_2 C 0.1036(4) 0.4062(3) 0.20524(11)
C24_2 C 0.1696(7) 0.3943(6) 0.20667(15)
H23_2 H 0.1577 0.3521 0.2178
H24_2 H 0.2121 0.4385 0.2138
H25_2 H 0.1816 0.3848 0.1893
C25_2 C 0.0526(4) 0.3635(3) 0.15881(10)
C28_2 C 0.1812(4) 0.4675(3) 0.14024(11)
H29_2 H 0.2212 0.4585 0.1353
H30_2 H 0.1899 0.4878 0.1577
H31_2 H 0.1796 0.5027 0.1282
C29_2 C 0.1068(4) 0.3939(3) 0.13941(10)
H32_2 H 0.2566 0.0052 0.1146
C30_2 C 0.4765(3) 0.0634(5) 0.18316(11)
H34_2 H 0.4622 0.0706 0.1659
H35_2 H 0.5188 0.0557 0.1818
H36_2 H 0.4900 0.1072 0.1937
C36_2 C 0.2982(3) 0.0030(4) 0.14876(10)
C37_2 C 0.3091(6) 0.0743(7) 0.16040(17)
H40_2 H 0.2812 0.0918 0.1504
H41_2 H 0.3616 0.1116 0.1600
H42_2 H 0.2916 0.0655 0.1783
O13_2 O 0.22366(16) 0.46146(16) 0.07432(6)
N25_2 N 0.0718(2) 0.3178(2) 0.04792(8)
N27_2 N 0.2487(2) 0.3553(3) 0.11277(8)
N29_2 N 0.2267(2) 0.3113(3) 0.05389(8)
O5_2 O 0.10967(16) 0.90446(23) 0.09235(6)
C17_2 C 0.1249(3) 0.9719(4) 0.09335(9)
C18_2 C 0.0605(2) 0.9867(3) 0.09238(9)
Cd3_2 Cd 0.18295(2) 0.84965(2) 0.0833
N9_2 N 0.2615(2) 0.9126(3) 0.11875(8)
N10_2 N 0.2691(2) 0.9801(3) 0.12490(9)
N11_2 N 0.3508(3) 0.9163(4) 0.22574(9)
H33_2 H 0.3400 0.8925 0.2405
N12_2 N 0.4180(2) 0.9780(3) 0.22056(8)
C31_2 C 0.4127(2) 0.9971(4) 0.19563(8)
C32_2 C 0.3408(3) 0.9470(4) 0.18542(9)
C33_2 C 0.3026(3) 0.8964(4) 0.20524(11)
C34_2 C 0.2247(4) 0.8304(7) 0.20667(15)
H37_2 H 0.1944 0.8423 0.2178
H38_2 H 0.2264 0.7879 0.2138
H39_2 H 0.2032 0.8184 0.1893
C35_2 C 0.3109(3) 0.9474(4) 0.15881(10)
C38_2 C 0.2863(3) 0.8188(4) 0.14024(11)
H43_2 H 0.2373 0.7788 0.1353
H44_2 H 0.2979 0.8101 0.1577
H45_2 H 0.3231 0.8204 0.1282
C39_2 C 0.2871(3) 0.8932(4) 0.13941(10)
N13_2 N 0.0156(2) 0.5948(2) 0.21458(8)
N15_2 N 0.1012(3) 0.6841(3) 0.10759(9)
H47_2 H 0.1142 0.6733 0.0928
N16_2 N 0.1067(2) 0.7513(2) 0.11277(8)
C40_2 C 0.0798(4) 0.8098(3) 0.15017(11)
H48_2 H 0.0583 0.7955 0.1674
H49_2 H 0.1298 0.8521 0.1515
H50_2 H 0.0495 0.8233 0.1396
C41_2 C 0.0823(3) 0.7460(2) 0.13770(8)
C42_2 C 0.0605(3) 0.6741(3) 0.14791(9)
C43_2 C 0.0729(3) 0.6359(3) 0.12809(11)
C44_2 C 0.0610(6) 0.5580(4) 0.12666(15)
H51_2 H 0.0188 0.5277 0.1155
H52_2 H 0.1052 0.5597 0.1195
H53_2 H 0.0515 0.5365 0.1440
C45_2 C 0.0302(3) 0.6442(3) 0.17452(10)
C48_2 C 0.1342(3) 0.6196(3) 0.19309(11)
H57_2 H 0.1252 0.5706 0.1980
H58_2 H 0.1545 0.6312 0.1756
H59_2 H 0.1694 0.6564 0.2051
C49_2 C 0.0606(3) 0.6204(3) 0.19392(10)
O14_2 O 0.23779(23) 0.77634(16) 0.07432(6)
N26_2 N 0.2459(3) 0.9282(2) 0.04792(8)
N28_2 N 0.0847(2) 0.7733(2) 0.05389(8)
O4_2 O 0.97350(24) 0.16361(17) 0.09535(7)
C16_2 C 0.9406(4) 0.0132(3) 0.09221(9)
H16_2 H 0.9003 0.0220 0.0920
H18_2 H 0.9948 0.2514 0.1146
C20_2 C 0.9366(5) 0.4131(4) 0.18316(11)
H20_2 H 0.9294 0.3916 0.1659
H21_2 H 0.9443 0.4631 0.1818
H22_2 H 0.8928 0.3828 0.1937
C26_2 C 0.9970(4) 0.2952(3) 0.14876(10)
C27_2 C 0.9257(7) 0.2348(4) 0.16040(17)
H26_2 H 0.9082 0.1894 0.1504
H27_2 H 0.8884 0.2500 0.1600
H28_2 H 0.9345 0.2261 0.1783
N22_3 N 0.6468(3) 0.0443(2) 0.20843(9)
H74_3 H 0.6719 0.0819 0.2187
C66_3 C 0.6697(4) 0.0381(3) 0.18457(10)
C67_3 C 0.7410(7) 0.0985(4) 0.17293(17)
H82_3 H 0.7585 0.1439 0.1829
H83_3 H 0.7783 0.0833 0.1733
H84_3 H 0.7322 0.1072 0.1550
Cd1_2 Cd 0.6667 0.81705(2) 0.0833
O1_2 O 0.79479(16) 0.89033(16) 0.09235(6)
O2_2 O 0.83639(17) 0.80989(17) 0.09535(7)
N1_2 N 0.6511(2) 0.7385(2) 0.11875(8)
N2_2 N 0.7110(2) 0.7309(2) 0.12490(9)
H1_2 H 0.7486 0.7434 0.1146
N3_2 N 0.5655(3) 0.6492(3) 0.22574(9)
H2_2 H 0.5525 0.6600 0.2405
N4_2 N 0.5600(2) 0.5820(2) 0.22056(8)
C1_2 C 0.5869(4) 0.5235(3) 0.18316(11)
H3_2 H 0.6084 0.5378 0.1659
H4_2 H 0.5369 0.4812 0.1818
H5_2 H 0.6172 0.5100 0.1937
C2_2 C 0.5844(3) 0.5873(2) 0.19563(8)
C3_2 C 0.6062(3) 0.6592(3) 0.18542(9)
C4_2 C 0.5938(3) 0.6974(3) 0.20524(11)
C5_2 C 0.6057(6) 0.7753(4) 0.20667(15)
H6_2 H 0.6479 0.8056 0.2178
H7_2 H 0.5615 0.7736 0.2138
H8_2 H 0.6152 0.7968 0.1893
C6_2 C 0.6365(3) 0.6891(3) 0.15881(10)
C7_2 C 0.7048(3) 0.7018(3) 0.14876(10)
C8_2 C 0.7652(4) 0.6909(6) 0.16040(17)
H9_2 H 0.8106 0.7188 0.1504
H10_2 H 0.7500 0.6384 0.1600
H11_2 H 0.7739 0.7084 0.1783
C9_2 C 0.5325(3) 0.7137(3) 0.14024(11)
H12_2 H 0.5415 0.7627 0.1353
H13_2 H 0.5122 0.7021 0.1577
H14_2 H 0.4973 0.6769 0.1282
C10_2 C 0.6061(3) 0.7129(3) 0.13941(10)
C11_2 C 0.8470(2) 0.8751(3) 0.09335(9)
C12_2 C 0.9262(2) 0.9395(2) 0.09238(9)
C13_2 C 0.9868(3) 0.9274(3) 0.09221(9)
H15_2 H 0.9780 0.8783 0.0920
N14_2 N 0.9557(2) 0.6024(2) 0.20843(9)
H46_2 H 0.9181 0.5899 0.2187
C46_2 C 0.9619(3) 0.6315(3) 0.18457(10)
C47_2 C 0.9015(4) 0.6424(6) 0.17293(17)
H54_2 H 0.8561 0.6145 0.1829
H55_2 H 0.9167 0.6949 0.1733
H56_2 H 0.8928 0.6249 0.1550
N17_2 N 0.6822(2) 0.7541(3) 0.04792(8)
N18_4 N 0.6223(2) 0.6866(3) 0.04177(9)
H60_4 H 0.5847 0.6615 0.0521
H62_4 H 0.7249 0.5961 0.0008
C55_4 C 0.6968(3) 0.7193(4) 0.00786(10)
C56_4 C 0.6285(3) 0.6637(4) 0.01791(10)
C57_4 C 0.5681(4) 0.5924(7) 0.00627(17)
H68_4 H 0.5227 0.5749 0.0163
H69_4 H 0.5833 0.5551 0.0067
C58_4 C 0.8008(3) 0.8479(4) 0.02643(11)
H71_4 H 0.7918 0.8879 0.0314
H72_4 H 0.8211 0.8566 0.0090
H73_4 H 0.8360 0.8463 0.0385
C59_4 C 0.7272(3) 0.7735(4) 0.02726(10)
N21_3 N 0.5793(3) 0.9844(2) 0.21458(8)
N23_3 N 0.5830(4) 0.8988(3) 0.10759(9)
H75_3 H 0.5592 0.8858 0.0928
N24_2 N 0.6447(3) 0.8933(2) 0.11277(8)
C60_3 C 0.7301(5) 0.9202(4) 0.15017(11)
H76_3 H 0.7373 0.9417 0.1674
H77_3 H 0.7224 0.8702 0.1515
H78_3 H 0.7739 0.9505 0.1396
C61_3 C 0.6638(4) 0.9177(3) 0.13770(8)
C62_3 C 0.6137(4) 0.9395(3) 0.14791(9)
C63_3 C 0.5631(4) 0.9271(3) 0.12809(11)
C64_3 C 0.4971(7) 0.9390(6) 0.12666(15)
H79_3 H 0.5090 0.9812 0.1155
H80_3 H 0.4546 0.8948 0.1195
H81_3 H 0.4851 0.9485 0.1440
C65_3 C 0.6141(4) 0.9698(3) 0.17452(10)
C68_3 C 0.4855(4) 0.8658(3) 0.19309(11)
H85_3 H 0.4455 0.8748 0.1980
H86_3 H 0.4768 0.8455 0.1756
H87_3 H 0.4871 0.8306 0.2051
C69_3 C 0.5599(4) 0.9394(3) 0.19392(10)
O7_2 O 0.53854(16) 0.76221(23) 0.07432(6)
O8_2 O 0.49694(17) 0.64017(24) 0.07132(7)
C70_2 C 0.4863(2) 0.6948(4) 0.07332(9)
C71_2 C 0.4071(2) 0.6800(3) 0.07429(9)
C72_2 C 0.3465(3) 0.6073(4) 0.07446(9)
H88_2 H 0.3553 0.5670 0.0747
O10_2 O 0.35983(24) 0.85678(17) 0.07132(7)
C73_2 C 0.3052(4) 0.7916(3) 0.07332(9)
C74_2 C 0.3200(3) 0.7272(2) 0.07429(9)
C75_2 C 0.3927(4) 0.7393(3) 0.07446(9)
H89_2 H 0.4330 0.7884 0.0747
O12_2 O 0.14322(17) 0.50306(17) 0.07132(7)
C76_2 C 0.2084(3) 0.5137(2) 0.07332(9)
C77_2 C 0.2728(2) 0.5929(2) 0.07429(9)
C78_2 C 0.2607(3) 0.6535(3) 0.07446(9)
H90_2 H 0.2116 0.6447 0.0747
N30_2 N 0.6887(3) 0.9153(2) 0.05389(8)
N19_4 N 0.7678(3) 0.7504(4) 0.94093(9)
H61_4 H 0.7808 0.7742 0.9262
N20_4 N 0.7733(2) 0.6887(3) 0.94611(8)
C50_4 C 0.7464(4) 0.6033(5) 0.98351(11)
H63_4 H 0.7964 0.6110 0.9849
H64_4 H 0.7161 0.5595 0.9730
C51_4 C 0.7489(3) 0.6696(4) 0.97104(8)
C52_4 C 0.7271(3) 0.7197(4) 0.98125(9)
C53_4 C 0.7395(3) 0.7703(4) 0.96143(11)
C54_4 C 0.7276(6) 0.8363(7) 0.96000(15)
H65_4 H 0.6854 0.8244 0.9489
H66_4 H 0.7718 0.8788 0.9529
H67_4 H 0.7181 0.8483 0.9774
H70_4 H 0.5594 0.6012 0.9884
Cd6_4 Cd 0.84965(2) 0.6667 0.9167
N18_5 N 0.0642(4) 0.3777(2) 0.04177(9)
H60_5 H 0.0767 0.4153 0.0521
C55_5 C 0.0224(5) 0.3032(3) 0.00786(10)
C56_5 C 0.0351(5) 0.3715(3) 0.01791(10)
C57_5 C 0.0242(8) 0.4319(4) 0.00627(17)
H68_5 H 0.0521 0.4773 0.0163
C58_5 C 0.0470(5) 0.1992(3) 0.02643(11)
H71_5 H 0.0960 0.2082 0.0314
H72_5 H 0.0354 0.1789 0.0090
H73_5 H 0.0102 0.1640 0.0385
C59_5 C 0.0462(5) 0.2728(3) 0.02726(10)
N21_4 N 0.4052(4) 0.4207(3) 0.21458(8)
N22_4 N 0.3976(4) 0.3532(3) 0.20843(9)
H74_4 H 0.4101 0.3281 0.2187
N23_4 N 0.3159(5) 0.4170(4) 0.10759(9)
H75_4 H 0.3267 0.4408 0.0928
C60_4 C 0.1902(6) 0.2699(5) 0.15017(11)
H76_4 H 0.2045 0.2627 0.1674
H77_4 H 0.1479 0.2776 0.1515
H78_4 H 0.1767 0.2261 0.1396
C61_4 C 0.2540(5) 0.3362(4) 0.13770(8)
C62_4 C 0.3259(5) 0.3863(4) 0.14791(9)
C63_4 C 0.3641(5) 0.4369(4) 0.12809(11)
C64_4 C 0.4420(9) 0.5029(7) 0.12666(15)
H79_4 H 0.4723 0.4910 0.1155
H80_4 H 0.4403 0.5454 0.1195
H81_4 H 0.4635 0.5149 0.1440
C65_4 C 0.3558(5) 0.3859(4) 0.17452(10)
C66_4 C 0.3685(5) 0.3303(4) 0.18457(10)
C67_4 C 0.3576(8) 0.2590(7) 0.17293(17)
H82_4 H 0.3855 0.2415 0.1829
H83_4 H 0.3051 0.2217 0.1733
H84_4 H 0.3751 0.2678 0.1550
C68_4 C 0.3804(5) 0.5145(4) 0.19309(11)
H85_4 H 0.4294 0.5545 0.1980
H86_4 H 0.3688 0.5232 0.1756
H87_4 H 0.3436 0.5129 0.2051
C69_4 C 0.3796(5) 0.4401(4) 0.19392(10)
C53_5 C 0.0307(5) 0.2605(3) 0.96143(11)
C54_5 C 0.1086(9) 0.2724(6) 0.96000(15)
H65_5 H 0.1389 0.3146 0.9489
H66_5 H 0.1069 0.2282 0.9529
H67_5 H 0.1301 0.2819 0.9774
H70_5 H 0.0417 0.4406 0.9884
H62_5 H 0.8711 0.2751 0.0008
H69_5 H 0.9717 0.4167 0.0067
N19_5 N 0.9825(5) 0.2322(3) 0.94093(9)
H61_5 H 0.9933 0.2192 0.9262
N20_5 N 0.9153(4) 0.2267(2) 0.94611(8)
C50_5 C 0.8568(6) 0.2536(4) 0.98351(11)
H63_5 H 0.8145 0.2036 0.9849
H64_5 H 0.8433 0.2839 0.9730
C51_5 C 0.9206(5) 0.2511(3) 0.97104(8)
C52_5 C 0.9925(5) 0.2729(3) 0.98125(9)
Cd6_5 Cd 0.81705(2) 0.15035(2) 0.9167
H62_6 H 0.4039 0.1289 0.0008
H69_6 H 0.4449 0.0283 0.0067
N19_6 N 0.2496(4) 0.0175(5) 0.94093(9)
H61_6 H 0.2258 0.0067 0.9262
N20_6 N 0.3113(3) 0.0847(4) 0.94611(8)
C50_6 C 0.3967(5) 0.1432(6) 0.98351(11)
H63_6 H 0.3890 0.1855 0.9849
H64_6 H 0.4405 0.1567 0.9730
C51_6 C 0.3304(4) 0.0794(5) 0.97104(8)
C52_6 C 0.2803(4) 0.0075(5) 0.98125(9)
Cd6_6 Cd 0.3333 0.18295(2) 0.9167
N18_6 N 0.3134(3) 0.9358(4) 0.04177(9)
H60_6 H 0.3385 0.9233 0.0521
C55_6 C 0.2807(4) 0.9776(5) 0.00786(10)
C56_6 C 0.3363(4) 0.9649(5) 0.01791(10)
C57_6 C 0.4076(7) 0.9758(8) 0.00627(17)
H68_6 H 0.4251 0.9479 0.0163
C58_6 C 0.1521(4) 0.9530(5) 0.02643(11)
H71_6 H 0.1121 0.9040 0.0314
H72_6 H 0.1434 0.9646 0.0090
H73_6 H 0.1537 0.9898 0.0385
C59_6 C 0.2265(4) 0.9538(5) 0.02726(10)
C53_6 C 0.2297(4) 0.9693(5) 0.96143(11)
C54_6 C 0.1637(7) 0.8914(9) 0.96000(15)
H65_6 H 0.1756 0.8611 0.9489
H66_6 H 0.1212 0.8931 0.9529
H67_6 H 0.1517 0.8699 0.9774
H70_6 H 0.3988 0.9583 0.9884
Cd2_3 Cd -0.0000 0.48368(2) 0.7500
N5_3 N 0.0156(2) 0.4207(3) 0.71458(8)
N7_3 N 0.1012(3) 0.4170(4) 0.60759(9)
H19_3 H 0.1142 0.4408 0.5928
N8_3 N 0.1067(2) 0.3553(3) 0.61277(8)
C20_3 C 0.0798(4) 0.2699(5) 0.65017(11)
H20_3 H 0.0583 0.2627 0.6674
H21_3 H 0.1298 0.2776 0.6515
H22_3 H 0.0495 0.2261 0.6396
C21_3 C 0.0823(3) 0.3362(4) 0.63770(8)
C22_3 C 0.0605(3) 0.3863(4) 0.64791(9)
C23_3 C 0.0729(3) 0.4369(4) 0.62809(11)
C24_3 C 0.0610(6) 0.5029(7) 0.62666(15)
H23_3 H 0.0188 0.4910 0.6155
H24_3 H 0.1052 0.5454 0.6195
H25_3 H 0.0515 0.5149 0.6440
C25_3 C 0.0302(3) 0.3859(4) 0.67452(10)
C28_3 C 0.1342(3) 0.5145(4) 0.69309(11)
H29_3 H 0.1252 0.5545 0.6980
H30_3 H 0.1545 0.5232 0.6756
H31_3 H 0.1694 0.5129 0.7051
C29_3 C 0.0606(3) 0.4401(4) 0.69392(10)
O13_3 O 0.12812(16) 0.55700(16) 0.75902(6)
N27_3 N 0.0220(3) 0.5820(2) 0.72056(8)
Cd1_3 Cd 0.48372(2) 0.0000 0.7500
O1_3 O 0.55700(16) 0.12812(16) 0.74098(6)
O2_3 O 0.47656(17) 0.16972(17) 0.73798(7)
N2_3 N 0.3976(2) 0.0443(2) 0.70843(9)
H1_3 H 0.4101 0.0819 0.7187
C7_3 C 0.3685(3) 0.0381(3) 0.68457(10)
C8_3 C 0.3576(6) 0.0985(4) 0.67293(17)
H9_3 H 0.3855 0.1439 0.6829
H10_3 H 0.3051 0.0833 0.6733
H11_3 H 0.3751 0.1072 0.6550
C11_3 C 0.5418(3) 0.1803(2) 0.73998(9)
C12_3 C 0.6062(2) 0.2595(2) 0.74095(9)
C13_3 C 0.5941(3) 0.3201(3) 0.74112(9)
H15_3 H 0.5450 0.3113 0.7413
O3_3 O 0.87188(16) 0.42887(23) 0.74098(6)
O4_3 O 0.83028(17) 0.30683(24) 0.73798(7)
C14_3 C 0.8197(2) 0.3614(4) 0.73998(9)
C15_3 C 0.7405(2) 0.3466(3) 0.74095(9)
C16_3 C 0.6799(3) 0.2739(4) 0.74112(9)
H16_3 H 0.6887 0.2336 0.7413
O5_3 O 0.57113(23) 0.44300(16) 0.74098(6)
O6_3 O 0.69317(24) 0.52344(17) 0.73798(7)
C17_3 C 0.6386(4) 0.4582(3) 0.73998(9)
C18_3 C 0.6534(3) 0.3938(2) 0.74095(9)
C19_3 C 0.7261(4) 0.4059(3) 0.74112(9)
H17_3 H 0.7664 0.4550 0.7413
Cd2_4 Cd 1.0000 0.48368(2) 0.7500
N6_3 N 0.9557(2) 0.3532(3) 0.70843(9)
H18_3 H 0.9181 0.3281 0.7187
C26_3 C 0.9619(3) 0.3303(4) 0.68457(10)
C27_3 C 0.9015(4) 0.2590(7) 0.67293(17)
H26_3 H 0.8561 0.2415 0.6829
H27_3 H 0.9167 0.2217 0.6733
H28_3 H 0.8928 0.2678 0.6550
Cd3_3 Cd 0.51632(2) 0.51628(2) 0.7500
N9_3 N 0.5793(3) 0.5948(2) 0.71458(8)
N10_3 N 0.6468(3) 0.6024(2) 0.70843(9)
H32_3 H 0.6719 0.5899 0.7187
N11_3 N 0.5830(4) 0.6841(3) 0.60759(9)
H33_3 H 0.5592 0.6733 0.5928
N12_3 N 0.6447(3) 0.7513(2) 0.61277(8)
C30_3 C 0.7301(5) 0.8098(3) 0.65017(11)
H34_3 H 0.7373 0.7955 0.6674
H35_3 H 0.7224 0.8521 0.6515
H36_3 H 0.7739 0.8233 0.6396
C31_3 C 0.6638(4) 0.7460(2) 0.63770(8)
C32_3 C 0.6137(4) 0.6741(3) 0.64791(9)
C33_3 C 0.5631(4) 0.6359(3) 0.62809(11)
C34_3 C 0.4971(7) 0.5580(4) 0.62666(15)
H37_3 H 0.5090 0.5277 0.6155
H38_3 H 0.4546 0.5597 0.6195
H39_3 H 0.4851 0.5365 0.6440
C35_3 C 0.6141(4) 0.6442(3) 0.67452(10)
C36_3 C 0.6697(4) 0.6315(3) 0.68457(10)
C37_3 C 0.7410(7) 0.6424(6) 0.67293(17)
H40_3 H 0.7585 0.6145 0.6829
H41_3 H 0.7783 0.6949 0.6733
H42_3 H 0.7322 0.6249 0.6550
C38_3 C 0.4855(4) 0.6196(3) 0.69309(11)
H43_3 H 0.4455 0.5706 0.6980
H44_3 H 0.4768 0.6312 0.6756
H45_3 H 0.4871 0.6564 0.7051
C39_3 C 0.5599(4) 0.6204(3) 0.69392(10)
N13_3 N 0.2615(2) 0.3489(2) 0.61875(8)
N14_3 N 0.2691(2) 0.2890(2) 0.62490(9)
H46_3 H 0.2566 0.2514 0.6146
N15_3 N 0.3508(3) 0.4345(3) 0.72574(9)
H47_3 H 0.3400 0.4475 0.7405
N16_3 N 0.4180(2) 0.4400(2) 0.72056(8)
C40_3 C 0.4765(3) 0.4131(4) 0.68316(11)
H48_3 H 0.4622 0.3916 0.6659
H49_3 H 0.5188 0.4631 0.6818
H50_3 H 0.4900 0.3828 0.6937
C41_3 C 0.4127(2) 0.4156(3) 0.69563(8)
C42_3 C 0.3408(3) 0.3938(3) 0.68542(9)
C43_3 C 0.3026(3) 0.4062(3) 0.70524(11)
C44_3 C 0.2247(4) 0.3943(6) 0.70667(15)
H51_3 H 0.1944 0.3521 0.7178
H52_3 H 0.2264 0.4385 0.7138
H53_3 H 0.2032 0.3848 0.6893
C45_3 C 0.3109(3) 0.3635(3) 0.65881(10)
C46_3 C 0.2982(3) 0.2952(3) 0.64876(10)
C47_3 C 0.3091(6) 0.2348(4) 0.66040(17)
H54_3 H 0.2812 0.1894 0.6504
H55_3 H 0.3616 0.2500 0.6600
H56_3 H 0.2916 0.2261 0.6783
C48_3 C 0.2863(3) 0.4675(3) 0.64024(11)
H57_3 H 0.2373 0.4585 0.6353
H58_3 H 0.2979 0.4878 0.6577
H59_3 H 0.3231 0.5027 0.6282
C49_3 C 0.2871(3) 0.3939(3) 0.63941(10)
N17_3 N 0.4207(3) 0.0156(2) 0.78542(8)
N19_7 N 0.4170(4) 0.1012(3) 0.89241(9)
H61_7 H 0.4408 0.1142 0.9072
N20_7 N 0.3553(3) 0.1067(2) 0.88723(8)
C50_7 C 0.2699(5) 0.0798(4) 0.84983(11)
H62_7 H 0.2627 0.0583 0.8326
H63_7 H 0.2776 0.1298 0.8485
H64_7 H 0.2261 0.0495 0.8604
C51_7 C 0.3362(4) 0.0823(3) 0.86230(8)
C52_7 C 0.3863(4) 0.0605(3) 0.85209(9)
C53_7 C 0.4369(4) 0.0729(3) 0.87191(11)
C54_7 C 0.5029(7) 0.0610(6) 0.87334(15)
H65_7 H 0.4910 0.0188 0.8845
H66_7 H 0.5454 0.1052 0.8805
H67_7 H 0.5149 0.0515 0.8560
C55_7 C 0.3859(4) 0.0302(3) 0.82548(10)
C58_7 C 0.5145(4) 0.1342(3) 0.80691(11)
H71_7 H 0.5545 0.1252 0.8020
H72_7 H 0.5232 0.1545 0.8244
H73_7 H 0.5129 0.1694 0.7949
C59_7 C 0.4401(4) 0.0606(3) 0.80608(10)
H74_5 H 0.7486 0.0052 0.6146
C60_5 C 0.5869(4) 0.0634(5) 0.68316(11)
H76_5 H 0.6084 0.0706 0.6659
H77_5 H 0.5369 0.0557 0.6818
H78_5 H 0.6172 0.1072 0.6937
C66_5 C 0.7048(3) 0.0030(4) 0.64876(10)
C67_5 C 0.7652(4) 0.0743(7) 0.66040(17)
H82_5 H 0.8106 0.0918 0.6504
H83_5 H 0.7500 0.1116 0.6600
H84_5 H 0.7739 0.0655 0.6783
O14_3 O 0.44300(16) 0.57113(23) 0.75902(6)
N25_3 N 0.9844(2) 0.4052(2) 0.78542(8)
N26_3 N 0.5948(2) 0.5793(3) 0.78542(8)
N28_3 N 0.4400(2) 0.4180(2) 0.77944(8)
N29_3 N 0.9780(3) 0.5600(2) 0.77944(8)
N30_3 N 0.5820(2) 0.0220(3) 0.77944(8)
Cd1_4 Cd 0.48372(2) 1.0000 0.7500
N1_3 N 0.4052(2) 0.9844(2) 0.71458(8)
N3_3 N 0.3159(3) 0.8988(3) 0.60759(9)
H2_3 H 0.3267 0.8858 0.5928
N4_3 N 0.2487(2) 0.8933(2) 0.61277(8)
C1_3 C 0.1902(3) 0.9202(4) 0.65017(11)
H3_3 H 0.2045 0.9417 0.6674
H4_3 H 0.1479 0.8702 0.6515
H5_3 H 0.1767 0.9505 0.6396
C2_3 C 0.2540(2) 0.9177(3) 0.63770(8)
C3_3 C 0.3259(3) 0.9395(3) 0.64791(9)
C4_3 C 0.3641(3) 0.9271(3) 0.62809(11)
C5_3 C 0.4420(4) 0.9390(6) 0.62666(15)
H6_3 H 0.4723 0.9812 0.6155
H7_3 H 0.4403 0.8948 0.6195
H8_3 H 0.4635 0.9485 0.6440
C6_3 C 0.3558(3) 0.9698(3) 0.67452(10)
C9_3 C 0.3804(3) 0.8658(3) 0.69309(11)
H12_3 H 0.4294 0.8748 0.6980
H13_3 H 0.3688 0.8455 0.6756
H14_3 H 0.3436 0.8306 0.7051
C10_3 C 0.3796(3) 0.9394(3) 0.69392(10)
N18_7 N 0.3532(3) 0.9557(2) 0.79157(9)
H60_7 H 0.3281 0.9181 0.7813
C56_7 C 0.3303(4) 0.9619(3) 0.81543(10)
C57_7 C 0.2590(7) 0.9015(4) 0.82707(17)
H68_7 H 0.2415 0.8561 0.8171
H69_7 H 0.2217 0.9167 0.8267
H70_7 H 0.2678 0.8928 0.8450
N21_5 N 0.6511(2) 0.9126(3) 0.61875(8)
N22_5 N 0.7110(2) 0.9801(3) 0.62490(9)
N23_5 N 0.5655(3) 0.9163(4) 0.72574(9)
H75_5 H 0.5525 0.8925 0.7405
N24_3 N 0.5600(2) 0.9780(3) 0.72056(8)
C61_5 C 0.5844(3) 0.9971(4) 0.69563(8)
C62_5 C 0.6062(3) 0.9470(4) 0.68542(9)
C63_5 C 0.5938(3) 0.8964(4) 0.70524(11)
C64_5 C 0.6057(6) 0.8304(7) 0.70667(15)
H79_5 H 0.6479 0.8423 0.7178
H80_5 H 0.5615 0.7879 0.7138
H81_5 H 0.6152 0.8184 0.6893
C65_5 C 0.6365(3) 0.9474(4) 0.65881(10)
C68_5 C 0.5325(3) 0.8188(4) 0.64024(11)
H85_5 H 0.5415 0.7788 0.6353
H86_5 H 0.5122 0.8101 0.6577
H87_5 H 0.4973 0.8204 0.6282
C69_5 C 0.6061(3) 0.8932(4) 0.63941(10)
O7_3 O 0.42887(23) 0.87188(16) 0.75902(6)
O8_3 O 0.30683(24) 0.83028(17) 0.76202(7)
C70_3 C 0.3614(4) 0.8197(2) 0.76002(9)
C71_3 C 0.3466(3) 0.7405(2) 0.75905(9)
C72_3 C 0.2739(4) 0.6799(3) 0.75888(9)
H88_3 H 0.2336 0.6887 0.7587
O10_3 O 0.52344(17) 0.69317(24) 0.76202(7)
C73_3 C 0.4582(3) 0.6386(4) 0.76002(9)
C74_3 C 0.3938(2) 0.6534(3) 0.75905(9)
C75_3 C 0.4059(3) 0.7261(4) 0.75888(9)
H89_3 H 0.4550 0.7664 0.7587
O12_3 O 0.16972(17) 0.47656(17) 0.76202(7)
C76_3 C 0.1803(2) 0.5418(3) 0.76002(9)
C77_3 C 0.2595(2) 0.6062(2) 0.75905(9)
C78_3 C 0.3201(3) 0.5941(3) 0.75888(9)
H90_3 H 0.3113 0.5450 0.7587
N18_8 N 0.0443(2) 0.3976(4) 0.79157(9)
H60_8 H 0.0819 0.4101 0.7813
C56_8 C 0.0381(3) 0.3685(5) 0.81543(10)
C57_8 C 0.0985(4) 0.3576(8) 0.82707(17)
H68_8 H 0.1439 0.3855 0.8171
H69_8 H 0.0833 0.3051 0.8267
H70_8 H 0.1072 0.3751 0.8450
N21_6 N 0.0874(3) 0.7385(4) 0.61875(8)
N22_6 N 0.0199(3) 0.7309(4) 0.62490(9)
N23_6 N 0.0837(4) 0.6492(5) 0.72574(9)
H75_6 H 0.1075 0.6600 0.7405
C61_6 C 0.0029(4) 0.5873(5) 0.69563(8)
C62_6 C 0.0530(4) 0.6592(5) 0.68542(9)
C63_6 C 0.1036(4) 0.6974(5) 0.70524(11)
C64_6 C 0.1696(7) 0.7753(9) 0.70667(15)
H79_6 H 0.1577 0.8056 0.7178
H80_6 H 0.2121 0.7736 0.7138
H81_6 H 0.1816 0.7968 0.6893
C65_6 C 0.0526(4) 0.6891(5) 0.65881(10)
C68_6 C 0.1812(4) 0.7137(5) 0.64024(11)
H85_6 H 0.2212 0.7627 0.6353
H86_6 H 0.1899 0.7021 0.6577
H87_6 H 0.1796 0.6769 0.6282
C69_6 C 0.1068(4) 0.7129(5) 0.63941(10)
N19_8 N 0.8988(3) 0.3159(5) 0.89241(9)
H61_8 H 0.8858 0.3267 0.9072
N20_8 N 0.8933(2) 0.2487(4) 0.88723(8)
C50_8 C 0.9202(4) 0.1902(6) 0.84983(11)
H62_8 H 0.9417 0.2045 0.8326
H63_8 H 0.8702 0.1479 0.8485
H64_8 H 0.9505 0.1767 0.8604
C51_8 C 0.9177(3) 0.2540(5) 0.86230(8)
C52_8 C 0.9395(3) 0.3259(5) 0.85209(9)
C53_8 C 0.9271(3) 0.3641(5) 0.87191(11)
C54_8 C 0.9390(6) 0.4420(9) 0.87334(15)
H65_8 H 0.9812 0.4723 0.8845
H66_8 H 0.8948 0.4403 0.8805
H67_8 H 0.9485 0.4635 0.8560
C55_8 C 0.9698(3) 0.3558(5) 0.82548(10)
C58_8 C 0.8658(3) 0.3804(5) 0.80691(11)
H71_8 H 0.8748 0.4294 0.8020
H72_8 H 0.8455 0.3688 0.8244
H73_8 H 0.8306 0.3436 0.7949
C59_8 C 0.9394(3) 0.3796(5) 0.80608(10)
H74_6 H 0.9948 0.7434 0.6146
C60_6 C 0.9366(5) 0.5235(6) 0.68316(11)
H76_6 H 0.9294 0.5378 0.6659
H77_6 H 0.9443 0.4812 0.6818
H78_6 H 0.8928 0.5100 0.6937
C66_6 C 0.9970(4) 0.7018(5) 0.64876(10)
C67_6 C 0.9257(7) 0.6909(8) 0.66040(17)
H82_6 H 0.9082 0.7188 0.6504
H83_6 H 0.8884 0.6384 0.6600
H84_6 H 0.9345 0.7084 0.6783
N18_9 N 0.6024(4) 0.6468(3) 0.79157(9)
H60_9 H 0.5899 0.6719 0.7813
N19_9 N 0.6841(5) 0.5830(4) 0.89241(9)
H61_9 H 0.6733 0.5592 0.9072
N20_9 N 0.7513(4) 0.6447(3) 0.88723(8)
C50_9 C 0.8098(6) 0.7301(5) 0.84983(11)
H62_9 H 0.7955 0.7373 0.8326
H63_9 H 0.8521 0.7224 0.8485
H64_9 H 0.8233 0.7739 0.8604
C51_9 C 0.7460(5) 0.6638(4) 0.86230(8)
C52_9 C 0.6741(5) 0.6137(4) 0.85209(9)
C53_9 C 0.6359(5) 0.5631(4) 0.87191(11)
C54_9 C 0.5580(9) 0.4971(7) 0.87334(15)
H65_9 H 0.5277 0.5090 0.8845
H66_9 H 0.5597 0.4546 0.8805
H67_9 H 0.5365 0.4851 0.8560
C55_9 C 0.6442(5) 0.6141(4) 0.82548(10)
C56_9 C 0.6315(5) 0.6697(4) 0.81543(10)
C57_9 C 0.6424(8) 0.7410(7) 0.82707(17)
H68_9 H 0.6145 0.7585 0.8171
H69_9 H 0.6949 0.7783 0.8267
H70_9 H 0.6249 0.7322 0.8450
C58_9 C 0.6196(5) 0.4855(4) 0.80691(11)
H71_9 H 0.5706 0.4455 0.8020
H72_9 H 0.6312 0.4768 0.8244
H73_9 H 0.6564 0.4871 0.7949
C59_9 C 0.6204(5) 0.5599(4) 0.80608(10)
N15_4 N 0.7678(3) 0.0175(3) 0.44093(9)
H47_4 H 0.7808 0.0067 0.4262
C40_4 C 0.7464(4) 0.1432(3) 0.48351(11)
H48_4 H 0.7249 0.1289 0.5008
H49_4 H 0.7964 0.1855 0.4849
H50_4 H 0.7161 0.1567 0.4730
C41_4 C 0.7489(3) 0.0794(2) 0.47104(8)
C42_4 C 0.7271(3) 0.0075(3) 0.48125(9)
H55_4 H 0.5833 0.0283 0.5067
N21_7 N 0.2459(3) 0.3178(2) 0.54792(8)
N22_7 N 0.3134(3) 0.3777(2) 0.54177(9)
H74_7 H 0.3385 0.4153 0.5521
N23_7 N 0.2496(4) 0.2322(3) 0.44093(9)
H75_7 H 0.2258 0.2192 0.4262
C60_7 C 0.3967(5) 0.2536(4) 0.48351(11)
H76_7 H 0.4039 0.2751 0.5008
H77_7 H 0.3890 0.2036 0.4849
H78_7 H 0.4405 0.2839 0.4730
C61_7 C 0.3304(4) 0.2511(3) 0.47104(8)
C62_7 C 0.2803(4) 0.2729(3) 0.48125(9)
C63_7 C 0.2297(4) 0.2605(3) 0.46143(11)
C64_7 C 0.1637(7) 0.2724(6) 0.46000(15)
H79_7 H 0.1756 0.3146 0.4489
H80_7 H 0.1212 0.2282 0.4529
H81_7 H 0.1517 0.2819 0.4774
C65_7 C 0.2807(4) 0.3032(3) 0.50786(10)
C66_7 C 0.3363(4) 0.3715(3) 0.51791(10)
C67_7 C 0.4076(7) 0.4319(4) 0.50627(17)
H82_7 H 0.4251 0.4773 0.5163
H83_7 H 0.4449 0.4167 0.5067
H84_7 H 0.3988 0.4406 0.4884
C68_7 C 0.1521(4) 0.1992(3) 0.52643(11)
H85_7 H 0.1121 0.2082 0.5314
H86_7 H 0.1434 0.1789 0.5090
H87_7 H 0.1537 0.1640 0.5385
C69_7 C 0.2265(4) 0.2728(3) 0.52726(10)
N13_4 N 0.6822(2) 0.9282(2) 0.54792(8)
N14_4 N 0.6223(2) 0.9358(2) 0.54177(9)
H46_4 H 0.5847 0.9233 0.5521
C43_4 C 0.7395(3) 0.9693(3) 0.46143(11)
C44_4 C 0.7276(6) 0.8914(4) 0.46000(15)
H51_4 H 0.6854 0.8611 0.4489
H52_4 H 0.7718 0.8931 0.4529
H53_4 H 0.7181 0.8699 0.4774
C45_4 C 0.6968(3) 0.9776(3) 0.50786(10)
C46_4 C 0.6285(3) 0.9649(3) 0.51791(10)
C47_4 C 0.5681(4) 0.9758(6) 0.50627(17)
H54_4 H 0.5227 0.9479 0.5163
H56_4 H 0.5594 0.9583 0.4884
C48_4 C 0.8008(3) 0.9530(3) 0.52643(11)
H57_4 H 0.7918 0.9040 0.5314
H58_4 H 0.8211 0.9646 0.5090
H59_4 H 0.8360 0.9898 0.5385
C49_4 C 0.7272(3) 0.9538(3) 0.52726(10)
N21_8 N 0.0718(4) 0.7541(3) 0.54792(8)
N22_8 N 0.0642(4) 0.6866(3) 0.54177(9)
H74_8 H 0.0767 0.6615 0.5521
C63_8 C 0.0307(5) 0.7703(4) 0.46143(11)
C64_8 C 0.1086(9) 0.8363(7) 0.46000(15)
H79_8 H 0.1389 0.8244 0.4489
H80_8 H 0.1069 0.8788 0.4529
H81_8 H 0.1301 0.8483 0.4774
C65_8 C 0.0224(5) 0.7193(4) 0.50786(10)
C66_8 C 0.0351(5) 0.6637(4) 0.51791(10)
C67_8 C 0.0242(8) 0.5924(7) 0.50627(17)
H82_8 H 0.0521 0.5749 0.5163
H84_8 H 0.0417 0.6012 0.4884
C68_8 C 0.0470(5) 0.8479(4) 0.52643(11)
H85_8 H 0.0960 0.8879 0.5314
H86_8 H 0.0354 0.8566 0.5090
H87_8 H 0.0102 0.8463 0.5385
C69_8 C 0.0462(5) 0.7735(4) 0.52726(10)
N23_8 N 0.9825(5) 0.7504(4) 0.44093(9)
H75_8 H 0.9933 0.7742 0.4262
C60_8 C 0.8568(6) 0.6033(5) 0.48351(11)
H76_8 H 0.8711 0.5961 0.5008
H77_8 H 0.8145 0.6110 0.4849
H78_8 H 0.8433 0.5595 0.4730
C61_8 C 0.9206(5) 0.6696(4) 0.47104(8)
C62_8 C 0.9925(5) 0.7197(4) 0.48125(9)
H83_8 H 0.9717 0.5551 0.5067
N15_5 N 0.0175(3) 0.7678(3) 0.05907(9)
H47_5 H 0.0067 0.7808 0.0738
C40_5 C 0.1432(3) 0.7464(4) 0.01649(11)
H49_5 H 0.1855 0.7964 0.0151
H50_5 H 0.1567 0.7161 0.0270
C41_5 C 0.0794(2) 0.7489(3) 0.02896(8)
C42_5 C 0.0075(3) 0.7271(3) 0.01875(9)
N23_9 N 0.2322(3) 0.2496(4) 0.05907(9)
H75_9 H 0.2192 0.2258 0.0738
C60_9 C 0.2536(4) 0.3967(5) 0.01649(11)
H77_9 H 0.2036 0.3890 0.0151
H78_9 H 0.2839 0.4405 0.0270
C61_9 C 0.2511(3) 0.3304(4) 0.02896(8)
C62_9 C 0.2729(3) 0.2803(4) 0.01875(9)
C63_9 C 0.2605(3) 0.2297(4) 0.03857(11)
C64_9 C 0.2724(6) 0.1637(7) 0.04000(15)
H79_9 H 0.3146 0.1756 0.0511
H80_9 H 0.2282 0.1212 0.0471
H81_9 H 0.2819 0.1517 0.0226
H84_9 H 0.4406 0.3988 0.0116
H48_5 H 0.1289 0.7249 0.9992
H55_5 H 0.0283 0.5833 0.9933
N21_9 N 0.3178(2) 0.2459(3) 0.95208(8)
N22_9 N 0.3777(2) 0.3134(3) 0.95823(9)
H74_9 H 0.4153 0.3385 0.9479
H76_9 H 0.2751 0.4039 0.9992
C65_9 C 0.3032(3) 0.2807(4) 0.99214(10)
C66_9 C 0.3715(3) 0.3363(4) 0.98209(10)
C67_9 C 0.4319(4) 0.4076(7) 0.99373(17)
H82_9 H 0.4773 0.4251 0.9837
H83_9 H 0.4167 0.4449 0.9933
C68_9 C 0.1992(3) 0.1521(4) 0.97357(11)
H85_9 H 0.2082 0.1121 0.9686
H86_9 H 0.1789 0.1434 0.9910
H87_9 H 0.1640 0.1537 0.9615
C69_9 C 0.2728(3) 0.2265(4) 0.97274(10)
C43_5 C 0.9693(3) 0.7395(3) 0.03857(11)
C44_5 C 0.8914(4) 0.7276(6) 0.04000(15)
H51_5 H 0.8611 0.6854 0.0511
H52_5 H 0.8931 0.7718 0.0471
H53_5 H 0.8699 0.7181 0.0226
H56_5 H 0.9583 0.5594 0.0116
N13_5 N 0.9282(2) 0.6822(2) 0.95208(8)
N14_5 N 0.9358(2) 0.6223(2) 0.95823(9)
H46_5 H 0.9233 0.5847 0.9479
C45_5 C 0.9776(3) 0.6968(3) 0.99214(10)
C46_5 C 0.9649(3) 0.6285(3) 0.98209(10)
C47_5 C 0.9758(6) 0.5681(4) 0.99373(17)
H54_5 H 0.9479 0.5227 0.9837
C48_5 C 0.9530(3) 0.8008(3) 0.97357(11)
H57_5 H 0.9040 0.7918 0.9686
H58_5 H 0.9646 0.8211 0.9910
H59_5 H 0.9898 0.8360 0.9615
C49_5 C 0.9538(3) 0.7272(3) 0.97274(10)
C63_10 C 0.7703(4) 0.0307(5) 0.03857(11)
C64_10 C 0.8363(7) 0.1086(9) 0.04000(15)
H79_10 H 0.8244 0.1389 0.0511
H80_10 H 0.8788 0.1069 0.0471
H81_10 H 0.8483 0.1301 0.0226
H84_10 H 0.6012 0.0417 0.0116
N21_10 N 0.7541(3) 0.0718(4) 0.95208(8)
N22_10 N 0.6866(3) 0.0642(4) 0.95823(9)
H74_10 H 0.6615 0.0767 0.9479
C65_10 C 0.7193(4) 0.0224(5) 0.99214(10)
C66_10 C 0.6637(4) 0.0351(5) 0.98209(10)
C67_10 C 0.5924(7) 0.0242(8) 0.99373(17)
H82_10 H 0.5749 0.0521 0.9837
C68_10 C 0.8479(4) 0.0470(5) 0.97357(11)
H85_10 H 0.8879 0.0960 0.9686
H86_10 H 0.8566 0.0354 0.9910
H87_10 H 0.8463 0.0102 0.9615
C69_10 C 0.7735(4) 0.0462(5) 0.97274(10)
N23_10 N 0.7504(4) 0.9825(5) 0.05907(9)
H75_10 H 0.7742 0.9933 0.0738
C60_10 C 0.6033(5) 0.8568(6) 0.01649(11)
H77_10 H 0.6110 0.8145 0.0151
H78_10 H 0.5595 0.8433 0.0270
C61_10 C 0.6696(4) 0.9206(5) 0.02896(8)
C62_10 C 0.7197(4) 0.9925(5) 0.01875(9)
H76_10 H 0.5961 0.8711 0.9992
H83_10 H 0.5551 0.9717 0.9933
N13_6 N 0.3489(2) 0.2615(2) 0.88125(8)
N14_6 N 0.2890(2) 0.2691(2) 0.87510(9)
H46_6 H 0.2514 0.2566 0.8854
N15_6 N 0.4345(3) 0.3508(3) 0.77426(9)
H47_6 H 0.4475 0.3400 0.7595
C40_6 C 0.4131(4) 0.4765(3) 0.81684(11)
H48_6 H 0.3916 0.4622 0.8341
H49_6 H 0.4631 0.5188 0.8182
H50_6 H 0.3828 0.4900 0.8063
C41_6 C 0.4156(3) 0.4127(2) 0.80437(8)
C42_6 C 0.3938(3) 0.3408(3) 0.81458(9)
C43_6 C 0.4062(3) 0.3026(3) 0.79476(11)
C44_6 C 0.3943(6) 0.2247(4) 0.79333(15)
H51_6 H 0.3521 0.1944 0.7822
H52_6 H 0.4385 0.2264 0.7862
H53_6 H 0.3848 0.2032 0.8107
C45_6 C 0.3635(3) 0.3109(3) 0.84119(10)
C46_6 C 0.2952(3) 0.2982(3) 0.85124(10)
C47_6 C 0.2348(4) 0.3091(6) 0.83960(17)
H54_6 H 0.1894 0.2812 0.8496
H55_6 H 0.2500 0.3616 0.8400
H56_6 H 0.2261 0.2916 0.8217
C48_6 C 0.4675(3) 0.2863(3) 0.85976(11)
H57_6 H 0.4585 0.2373 0.8647
H58_6 H 0.4878 0.2979 0.8423
H59_6 H 0.5027 0.3231 0.8718
C49_6 C 0.3939(3) 0.2871(3) 0.86059(10)
H74_11 H 0.0052 0.7486 0.8854
C60_11 C 0.0634(5) 0.5869(4) 0.81684(11)
H76_11 H 0.0706 0.6084 0.8341
H77_11 H 0.0557 0.5369 0.8182
H78_11 H 0.1072 0.6172 0.8063
C66_11 C 0.0030(4) 0.7048(3) 0.85124(10)
C67_11 C 0.0743(7) 0.7652(4) 0.83960(17)
H82_11 H 0.0918 0.8106 0.8496
H83_11 H 0.1116 0.7500 0.8400
H84_11 H 0.0655 0.7739 0.8217
N21_11 N 0.9126(3) 0.6511(2) 0.88125(8)
N22_11 N 0.9801(3) 0.7110(2) 0.87510(9)
N23_11 N 0.9163(4) 0.5655(3) 0.77426(9)
H75_11 H 0.8925 0.5525 0.7595
C61_11 C 0.9971(4) 0.5844(3) 0.80437(8)
C62_11 C 0.9470(4) 0.6062(3) 0.81458(9)
C63_11 C 0.8964(4) 0.5938(3) 0.79476(11)
C64_11 C 0.8304(7) 0.6057(6) 0.79333(15)
H79_11 H 0.8423 0.6479 0.7822
H80_11 H 0.7879 0.5615 0.7862
H81_11 H 0.8184 0.6152 0.8107
C65_11 C 0.9474(4) 0.6365(3) 0.84119(10)
C68_11 C 0.8188(4) 0.5325(3) 0.85976(11)
H85_11 H 0.7788 0.5415 0.8647
H86_11 H 0.8101 0.5122 0.8423
H87_11 H 0.8204 0.4973 0.8718
C69_11 C 0.8932(4) 0.6061(3) 0.86059(10)
N21_12 N 0.7385(4) 0.0874(3) 0.88125(8)
N22_12 N 0.7309(4) 0.0199(3) 0.87510(9)
N23_12 N 0.6492(5) 0.0837(4) 0.77426(9)
H75_12 H 0.6600 0.1075 0.7595
C61_12 C 0.5873(5) 0.0029(4) 0.80437(8)
C62_12 C 0.6592(5) 0.0530(4) 0.81458(9)
C63_12 C 0.6974(5) 0.1036(4) 0.79476(11)
C64_12 C 0.7753(9) 0.1696(7) 0.79333(15)
H79_12 H 0.8056 0.1577 0.7822
H80_12 H 0.7736 0.2121 0.7862
H81_12 H 0.7968 0.1816 0.8107
C65_12 C 0.6891(5) 0.0526(4) 0.84119(10)
C68_12 C 0.7137(5) 0.1812(4) 0.85976(11)
H85_12 H 0.7627 0.2212 0.8647
H86_12 H 0.7021 0.1899 0.8423
H87_12 H 0.6769 0.1796 0.8718
C69_12 C 0.7129(5) 0.1068(4) 0.86059(10)
H74_12 H 0.7434 0.9948 0.8854
C60_12 C 0.5235(6) 0.9366(5) 0.81684(11)
H76_12 H 0.5378 0.9294 0.8341
H77_12 H 0.4812 0.9443 0.8182
H78_12 H 0.5100 0.8928 0.8063
C66_12 C 0.7018(5) 0.9970(4) 0.85124(10)
C67_12 C 0.6909(8) 0.9257(7) 0.83960(17)
H82_12 H 0.7188 0.9082 0.8496
H83_12 H 0.6384 0.8884 0.8400
H84_12 H 0.7084 0.9345 0.8217
O1_4 O 0.10967(16) 0.20521(16) 0.59235(6)
O2_4 O 0.19011(17) 0.16361(17) 0.59535(7)
C11_4 C 0.1249(3) 0.1530(2) 0.59335(9)
C12_4 C 0.0605(2) 0.0738(2) 0.59238(9)
C13_4 C 0.0726(3) 0.0132(3) 0.59221(9)
H15_4 H 0.1217 0.0220 0.5920
O7_4 O 0.23779(23) 0.46146(16) 0.57432(6)
O8_4 O 0.35983(24) 0.50306(17) 0.57132(7)
C70_4 C 0.3052(4) 0.5137(2) 0.57332(9)
C71_4 C 0.3200(3) 0.5929(2) 0.57429(9)
C72_4 C 0.3927(4) 0.6535(3) 0.57446(9)
H88_4 H 0.4330 0.6447 0.5747
O9 O 0.22366(16) 0.76221(23) 0.57432(6)
O10_4 O 0.14322(17) 0.64017(24) 0.57132(7)
C73_4 C 0.2084(3) 0.6948(4) 0.57332(9)
C74_4 C 0.2728(2) 0.6800(3) 0.57429(9)
C75_4 C 0.2607(3) 0.6073(4) 0.57446(9)
H89_4 H 0.2116 0.5670 0.5747
O11 O 0.53854(16) 0.77634(16) 0.57432(6)
O12_4 O 0.49694(17) 0.85678(17) 0.57132(7)
C76_4 C 0.4863(2) 0.7916(3) 0.57332(9)
C77_4 C 0.4071(2) 0.7272(2) 0.57429(9)
C78_4 C 0.3465(3) 0.7393(3) 0.57446(9)
H90_4 H 0.3553 0.7884 0.5747
O5_4 O 0.09554(23) 0.89033(16) 0.59235(6)
C17_4 C 0.0281(4) 0.8751(3) 0.59335(9)
C18_4 C 0.0133(3) 0.9395(2) 0.59238(9)
O4_4 O 0.83639(17) 0.02650(24) 0.59535(7)
C16_4 C 0.9868(3) 0.0594(4) 0.59221(9)
H16_4 H 0.9780 0.0997 0.5920
O3_4 O 0.79479(16) 0.90446(23) 0.59235(6)
C14_4 C 0.8470(2) 0.9719(4) 0.59335(9)
C15_4 C 0.9262(2) 0.9867(3) 0.59238(9)
O6_4 O 0.97350(24) 0.80989(17) 0.59535(7)
C19_4 C 0.9406(4) 0.9274(3) 0.59221(9)
H17_4 H 0.9003 0.8783 0.5920
O1_5 O 0.20521(16) 0.10967(16) 0.90765(6)
O2_5 O 0.16361(17) 0.19011(17) 0.90465(7)
C11_5 C 0.1530(2) 0.1249(3) 0.90665(9)
C12_5 C 0.0738(2) 0.0605(2) 0.90762(9)
C13_5 C 0.0132(3) 0.0726(3) 0.90779(9)
H15_5 H 0.0220 0.1217 0.9080
O7_5 O 0.46146(16) 0.23779(23) 0.92568(6)
O8_5 O 0.50306(17) 0.35983(24) 0.92868(7)
C70_5 C 0.5137(2) 0.3052(4) 0.92668(9)
C71_5 C 0.5929(2) 0.3200(3) 0.92571(9)
C72_5 C 0.6535(3) 0.3927(4) 0.92554(9)
H88_5 H 0.6447 0.4330 0.9253
O9_2 O 0.76221(23) 0.22366(16) 0.92568(6)
O10_5 O 0.64017(24) 0.14322(17) 0.92868(7)
C73_5 C 0.6948(4) 0.2084(3) 0.92668(9)
C74_5 C 0.6800(3) 0.2728(2) 0.92571(9)
C75_5 C 0.6073(4) 0.2607(3) 0.92554(9)
H89_5 H 0.5670 0.2116 0.9253
O11_2 O 0.77634(16) 0.53854(16) 0.92568(6)
O12_5 O 0.85678(17) 0.49694(17) 0.92868(7)
C76_5 C 0.7916(3) 0.4863(2) 0.92668(9)
C77_5 C 0.7272(2) 0.4071(2) 0.92571(9)
C78_5 C 0.7393(3) 0.3465(3) 0.92554(9)
H90_5 H 0.7884 0.3553 0.9253
O4_5 O 0.02650(24) 0.83639(17) 0.90465(7)
C16_5 C 0.0594(4) 0.9868(3) 0.90779(9)
H16_5 H 0.0997 0.9780 0.9080
O5_5 O 0.89033(16) 0.09554(23) 0.90765(6)
C17_5 C 0.8751(3) 0.0281(4) 0.90665(9)
C18_5 C 0.9395(2) 0.0133(3) 0.90762(9)
O3_5 O 0.90446(23) 0.79479(16) 0.90765(6)
C14_5 C 0.9719(4) 0.8470(2) 0.90665(9)
C15_5 C 0.9867(3) 0.9262(2) 0.90762(9)
O6_5 O 0.80989(17) 0.97350(24) 0.90465(7)
C19_5 C 0.9274(3) 0.9406(4) 0.90779(9)
H17_5 H 0.8783 0.9003 0.9080
O7_6 O 0.57113(23) 0.12812(16) 0.24098(6)
O8_6 O 0.69317(24) 0.16972(17) 0.23798(7)
C70_6 C 0.6386(4) 0.1803(2) 0.23998(9)
C71_6 C 0.6534(3) 0.2595(2) 0.24095(9)
C72_6 C 0.7261(4) 0.3201(3) 0.24112(9)
H88_6 H 0.7664 0.3113 0.2413
O9_3 O 0.55700(16) 0.42887(23) 0.24098(6)
O10_6 O 0.47656(17) 0.30683(24) 0.23798(7)
C73_6 C 0.5418(3) 0.3614(4) 0.23998(9)
C74_6 C 0.6062(2) 0.3466(3) 0.24095(9)
C75_6 C 0.5941(3) 0.2739(4) 0.24112(9)
H89_6 H 0.5450 0.2336 0.2413
O11_3 O 0.87188(16) 0.44300(16) 0.24098(6)
O12_6 O 0.83028(17) 0.52344(17) 0.23798(7)
C76_6 C 0.8197(2) 0.4582(3) 0.23998(9)
C77_6 C 0.7405(2) 0.3938(2) 0.24095(9)
C78_6 C 0.6799(3) 0.4059(3) 0.24112(9)
H90_6 H 0.6887 0.4550 0.2413
O1_6 O 0.44300(16) 0.87188(16) 0.25902(6)
O2_6 O 0.52344(17) 0.83028(17) 0.26202(7)
C11_6 C 0.4582(3) 0.8197(2) 0.26002(9)
C12_6 C 0.3938(2) 0.7405(2) 0.25905(9)
C13_6 C 0.4059(3) 0.6799(3) 0.25888(9)
H15_6 H 0.4550 0.6887 0.2587
O3_6 O 0.12812(16) 0.57113(23) 0.25902(6)
O4_6 O 0.16972(17) 0.69317(24) 0.26202(7)
C14_6 C 0.1803(2) 0.6386(4) 0.26002(9)
C15_6 C 0.2595(2) 0.6534(3) 0.25905(9)
C16_6 C 0.3201(3) 0.7261(4) 0.25888(9)
H16_6 H 0.3113 0.7664 0.2587
O5_6 O 0.42887(23) 0.55700(16) 0.25902(6)
O6_6 O 0.30683(24) 0.47656(17) 0.26202(7)
C17_6 C 0.3614(4) 0.5418(3) 0.26002(9)
C18_6 C 0.3466(3) 0.6062(2) 0.25905(9)
C19_6 C 0.2739(4) 0.5941(3) 0.25888(9)
H17_6 H 0.2336 0.5450 0.2587
loop_
_geom_bond_atom_site_label_1
_geom_bond_atom_site_label_2
_geom_bond_site_symmetry_1
_geom_bond_site_symmetry_2
O3 C14 1_555 1_555
C14 C15 1_555 1_555
C19 C15 1_555 1_555
H17 C19 1_555 1_555
Cd2 O3 1_555 1_555
N5 Cd2 1_555 1_555
N6 N5 1_555 1_555
N7 H19 1_555 1_555
N8 N7 1_555 1_555
C21 N8 1_555 1_555
C22 C21 1_555 1_555
C23 N7 1_555 1_555
C24 C23 1_555 1_555
H23 C24 1_555 1_555
H24 C24 1_555 1_555
H25 C24 1_555 1_555
C25 C22 1_555 1_555
C28 H29 1_555 1_555
H30 C28 1_555 1_555
H31 C28 1_555 1_555
C29 N5 1_555 1_555
C30 H34 1_555 1_555
H35 C30 1_555 1_555
H36 C30 1_555 1_555
C37 C36 1_555 1_555
H40 C37 1_555 1_555
H41 C37 1_555 1_555
H42 C37 1_555 1_555
Cd10 N8 1_555 1_555
O13 Cd2 1_555 1_555
N25 Cd2 1_555 1_555
N27 Cd2 1_555 1_555
N29 Cd2 1_555 1_555
C22 C23 1_555 1_555
C25 C29 1_555 1_555
C28 C29 1_555 1_555
H16 C16 1_555 1_555
C20 H20 1_555 1_555
H21 C20 1_555 1_555
H22 C20 1_555 1_555
C27 C26 1_555 1_555
H26 C27 1_555 1_555
H27 C27 1_555 1_555
H28 C27 1_555 1_555
N22 H74 1_555 1_555
C66 N22 1_555 1_555
C67 C66 1_555 1_555
H82 C67 1_555 1_555
H83 C67 1_555 1_555
H84 C67 1_555 1_555
O5 C17 1_555 1_555
C17 C18 1_555 1_555
Cd3 O5 1_555 1_555
N9 Cd3 1_555 1_555
N10 N9 1_555 1_555
N11 H33 1_555 1_555
N12 N11 1_555 1_555
C31 N12 1_555 1_555
C32 C31 1_555 1_555
C33 N11 1_555 1_555
C34 C33 1_555 1_555
H37 C34 1_555 1_555
H38 C34 1_555 1_555
H39 C34 1_555 1_555
C35 C32 1_555 1_555
C38 H43 1_555 1_555
H44 C38 1_555 1_555
H45 C38 1_555 1_555
C39 N9 1_555 1_555
N15 H47 1_555 1_555
N16 Cd3 1_555 1_555
C40 H48 1_555 1_555
H49 C40 1_555 1_555
H50 C40 1_555 1_555
C41 N16 1_555 1_555
C42 C41 1_555 1_555
C43 N15 1_555 1_555
C44 C43 1_555 1_555
H51 C44 1_555 1_555
H52 C44 1_555 1_555
H53 C44 1_555 1_555
C45 C42 1_555 1_555
C48 H57 1_555 1_555
H58 C48 1_555 1_555
H59 C48 1_555 1_555
C49 N13 1_555 1_555
Cd8_2 N12 1_555 1_555
Cd10 N13 1_555 1_555
O14 Cd3 1_555 1_555
N26 Cd3 1_555 1_555
N28 Cd3 1_555 1_555
C32 C33 1_555 1_555
C35 C39 1_555 1_555
C38 C39 1_555 1_555
N15 N16 1_555 1_555
C40 C41 1_555 1_555
C42 C43 1_555 1_555
C45 C49 1_555 1_555
C48 C49 1_555 1_555
Cd1 O1 1_555 1_555
O1 C11 1_555 1_555
O2 C11 1_555 1_555
N1 Cd1 1_555 1_555
N2 N1 1_555 1_555
H1 N2 1_555 1_555
N3 H2 1_555 1_555
N4 N3 1_555 1_555
C1 H3 1_555 1_555
H4 C1 1_555 1_555
H5 C1 1_555 1_555
C2 N4 1_555 1_555
C3 C2 1_555 1_555
C4 N3 1_555 1_555
C5 C4 1_555 1_555
H6 C5 1_555 1_555
H7 C5 1_555 1_555
H8 C5 1_555 1_555
C6 C3 1_555 1_555
C7 N2 1_555 1_555
C8 C7 1_555 1_555
H9 C8 1_555 1_555
H10 C8 1_555 1_555
H11 C8 1_555 1_555
C9 H12 1_555 1_555
H13 C9 1_555 1_555
H14 C9 1_555 1_555
C10 N1 1_555 1_555
C11 C12 1_555 1_555
C12 C13 1_555 1_555
C13 H15 1_555 1_555
N14 H46 1_555 1_555
C46 N14 1_555 1_555
C47 C46 1_555 1_555
H54 C47 1_555 1_555
H55 C47 1_555 1_555
H56 C47 1_555 1_555
N17 Cd1 1_555 1_555
N18 N17 1_555 1_555
H60 N18 1_555 1_555
N19 H61 1_555 1_555
N20 N19 1_555 1_555
C50 H62 1_555 1_555
H63 C50 1_555 1_555
H64 C50 1_555 1_555
C51 N20 1_555 1_555
C52 C51 1_555 1_555
C53 N19 1_555 1_555
C54 C53 1_555 1_555
H65 C54 1_555 1_555
H66 C54 1_555 1_555
H67 C54 1_555 1_555
C55 C52 1_555 1_555
C56 N18 1_555 1_555
C57 C56 1_555 1_555
H68 C57 1_555 1_555
H69 C57 1_555 1_555
H70 C57 1_555 1_555
C58 H71 1_555 1_555
H72 C58 1_555 1_555
H73 C58 1_555 1_555
C59 N17 1_555 1_555
N23 H75 1_555 1_555
N24 Cd1 1_555 1_555
C60 H76 1_555 1_555
H77 C60 1_555 1_555
H78 C60 1_555 1_555
C61 N24 1_555 1_555
C62 C61 1_555 1_555
C63 N23 1_555 1_555
C64 C63 1_555 1_555
H79 C64 1_555 1_555
H80 C64 1_555 1_555
H81 C64 1_555 1_555
C65 C62 1_555 1_555
C68 H85 1_555 1_555
H86 C68 1_555 1_555
H87 C68 1_555 1_555
C69 N21 1_555 1_555
O7 Cd1 1_555 1_555
O8 C70 1_555 1_555
C70 O7 1_555 1_555
C71 C70 1_555 1_555
C72 C71 1_555 1_555
H88 C72 1_555 1_555
O14 C73 1_555 1_555
O10 C73 1_555 1_555
C73 C74 1_555 1_555
C74 C75 1_555 1_555
C75 C71 1_555 1_555
H89 C75 1_555 1_555
O13 C76 1_555 1_555
O12 C76 1_555 1_555
C76 C77 1_555 1_555
C77 C72 1_555 1_555
C78 C74 1_555 1_555
H90 C78 1_555 1_555
Cd6 N20 1_555 1_555
Cd8_2 N21 1_555 1_555
Cd11 N4 1_555 1_555
N30 Cd1 1_555 1_555
C1 C2 1_555 1_555
C3 C4 1_555 1_555
C6 C7 1_555 1_555
C6 C10 1_555 1_555
C9 C10 1_555 1_555
C50 C51 1_555 1_555
C52 C53 1_555 1_555
C55 C56 1_555 1_555
C55 C59 1_555 1_555
C58 C59 1_555 1_555
N23 N24 1_555 1_555
C60 C61 1_555 1_555
C62 C63 1_555 1_555
C65 C69 1_555 1_555
C68 C69 1_555 1_555
C77 C78 1_555 1_555
N18_2 N25 1_555 1_555
H60_2 N18_2 1_555 1_555
C54_2 C53_2 1_555 1_555
H65_2 C54_2 1_555 1_555
H66_2 C54_2 1_555 1_555
H67_2 C54_2 1_555 1_555
C56_2 N18_2 1_555 1_555
C57_2 C56_2 1_555 1_555
H68_2 C57_2 1_555 1_555
H70_2 C57_2 1_555 1_555
C58_2 H71_2 1_555 1_555
H72_2 C58_2 1_555 1_555
H73_2 C58_2 1_555 1_555
C59_2 N25 1_555 1_555
N21_2 N22_2 1_555 1_555
N22_2 H74_2 1_555 1_555
N23_2 H75_2 1_555 1_555
C60_2 H76_2 1_555 1_555
H77_2 C60_2 1_555 1_555
H78_2 C60_2 1_555 1_555
C61_2 N27 1_555 1_555
C62_2 C61_2 1_555 1_555
C63_2 N23_2 1_555 1_555
C64_2 C63_2 1_555 1_555
H79_2 C64_2 1_555 1_555
H80_2 C64_2 1_555 1_555
H81_2 C64_2 1_555 1_555
C65_2 C62_2 1_555 1_555
C66_2 N22_2 1_555 1_555
C67_2 C66_2 1_555 1_555
H82_2 C67_2 1_555 1_555
H83_2 C67_2 1_555 1_555
H84_2 C67_2 1_555 1_555
C68_2 H85_2 1_555 1_555
H86_2 C68_2 1_555 1_555
H87_2 C68_2 1_555 1_555
C69_2 N21_2 1_555 1_555
Cd11 N21_2 1_555 1_555
C55_2 C56_2 1_555 1_555
C55_2 C59_2 1_555 1_555
C58_2 C59_2 1_555 1_555
N23_2 N27 1_555 1_555
C60_2 C61_2 1_555 1_555
C62_2 C63_2 1_555 1_555
C65_2 C66_2 1_555 1_555
C65_2 C69_2 1_555 1_555
C68_2 C69_2 1_555 1_555
N19_2 H61_2 1_555 1_555
N20_2 N19_2 1_555 1_555
C50_2 H62_2 1_555 1_555
H63_2 C50_2 1_555 1_555
H64_2 C50_2 1_555 1_555
C51_2 N20_2 1_555 1_555
C52_2 C51_2 1_555 1_555
Cd6_2 N20_2 1_555 1_555
C50_2 C51_2 1_555 1_555
N19_3 H61_3 1_555 1_555
N20_3 N19_3 1_555 1_555
C50_3 H62_3 1_555 1_555
H63_3 C50_3 1_555 1_555
H64_3 C50_3 1_555 1_555
C51_3 N20_3 1_555 1_555
C52_3 C51_3 1_555 1_555
Cd6_3 N20_3 1_555 1_555
C50_3 C51_3 1_555 1_555
N18_3 N26 1_555 1_555
H60_3 N18_3 1_555 1_555
C54_3 C53_3 1_555 1_555
H65_3 C54_3 1_555 1_555
H66_3 C54_3 1_555 1_555
H67_3 C54_3 1_555 1_555
C56_3 N18_3 1_555 1_555
C57_3 C56_3 1_555 1_555
H68_3 C57_3 1_555 1_555
H70_3 C57_3 1_555 1_555
C58_3 H71_3 1_555 1_555
H72_3 C58_3 1_555 1_555
H73_3 C58_3 1_555 1_555
C59_3 N26 1_555 1_555
C55_3 C56_3 1_555 1_555
C55_3 C59_3 1_555 1_555
C58_3 C59_3 1_555 1_555
O3_2 C14_2 1_555 1_555
C14_2 C15_2 1_555 1_555
C19_2 C15_2 1_555 1_555
H17_2 C19_2 1_555 1_555
Cd2_2 O3_2 1_555 1_555
N5_2 Cd2_2 1_555 1_555
N6_2 N5_2 1_555 1_555
N7_2 H19_2 1_555 1_555
N8_2 N7_2 1_555 1_555
C21_2 N8_2 1_555 1_555
C22_2 C21_2 1_555 1_555
C23_2 N7_2 1_555 1_555
C24_2 C23_2 1_555 1_555
H23_2 C24_2 1_555 1_555
H24_2 C24_2 1_555 1_555
H25_2 C24_2 1_555 1_555
C25_2 C22_2 1_555 1_555
C28_2 H29_2 1_555 1_555
H30_2 C28_2 1_555 1_555
H31_2 C28_2 1_555 1_555
C29_2 N5_2 1_555 1_555
C30_2 H34_2 1_555 1_555
H35_2 C30_2 1_555 1_555
H36_2 C30_2 1_555 1_555
C37_2 C36_2 1_555 1_555
H40_2 C37_2 1_555 1_555
H41_2 C37_2 1_555 1_555
H42_2 C37_2 1_555 1_555
Cd8 N8_2 1_555 1_555
O13_2 Cd2_2 1_555 1_555
N25_2 Cd2_2 1_555 1_555
N27_2 Cd2_2 1_555 1_555
N29_2 Cd2_2 1_555 1_555
C22_2 C23_2 1_555 1_555
C25_2 C29_2 1_555 1_555
C28_2 C29_2 1_555 1_555
O5_2 C17_2 1_555 1_555
C17_2 C18_2 1_555 1_555
Cd3_2 O5_2 1_555 1_555
N9_2 Cd3_2 1_555 1_555
N10_2 N9_2 1_555 1_555
N11_2 H33_2 1_555 1_555
N12_2 N11_2 1_555 1_555
C31_2 N12_2 1_555 1_555
C32_2 C31_2 1_555 1_555
C33_2 N11_2 1_555 1_555
C34_2 C33_2 1_555 1_555
H37_2 C34_2 1_555 1_555
H38_2 C34_2 1_555 1_555
H39_2 C34_2 1_555 1_555
C35_2 C32_2 1_555 1_555
C38_2 H43_2 1_555 1_555
H44_2 C38_2 1_555 1_555
H45_2 C38_2 1_555 1_555
C39_2 N9_2 1_555 1_555
N15_2 H47_2 1_555 1_555
N16_2 Cd3_2 1_555 1_555
C40_2 H48_2 1_555 1_555
H49_2 C40_2 1_555 1_555
H50_2 C40_2 1_555 1_555
C41_2 N16_2 1_555 1_555
C42_2 C41_2 1_555 1_555
C43_2 N15_2 1_555 1_555
C44_2 C43_2 1_555 1_555
H51_2 C44_2 1_555 1_555
H52_2 C44_2 1_555 1_555
H53_2 C44_2 1_555 1_555
C45_2 C42_2 1_555 1_555
C48_2 H57_2 1_555 1_555
H58_2 C48_2 1_555 1_555
H59_2 C48_2 1_555 1_555
C49_2 N13_2 1_555 1_555
Cd10_2 N12_2 1_555 1_555
Cd8 N13_2 1_555 1_555
O14_2 Cd3_2 1_555 1_555
N26_2 Cd3_2 1_555 1_555
N28_2 Cd3_2 1_555 1_555
C32_2 C33_2 1_555 1_555
C35_2 C39_2 1_555 1_555
C38_2 C39_2 1_555 1_555
N15_2 N16_2 1_555 1_555
C40_2 C41_2 1_555 1_555
C42_2 C43_2 1_555 1_555
C45_2 C49_2 1_555 1_555
C48_2 C49_2 1_555 1_555
H16_2 C16_2 1_555 1_555
C20_2 H20_2 1_555 1_555
H21_2 C20_2 1_555 1_555
H22_2 C20_2 1_555 1_555
C27_2 C26_2 1_555 1_555
H26_2 C27_2 1_555 1_555
H27_2 C27_2 1_555 1_555
H28_2 C27_2 1_555 1_555
N22_3 H74_3 1_555 1_555
C66_3 N22_3 1_555 1_555
C67_3 C66_3 1_555 1_555
H82_3 C67_3 1_555 1_555
H83_3 C67_3 1_555 1_555
H84_3 C67_3 1_555 1_555
Cd1_2 O1_2 1_555 1_555
O1_2 C11_2 1_555 1_555
O2_2 C11_2 1_555 1_555
N1_2 Cd1_2 1_555 1_555
N2_2 N1_2 1_555 1_555
H1_2 N2_2 1_555 1_555
N3_2 H2_2 1_555 1_555
N4_2 N3_2 1_555 1_555
C1_2 H3_2 1_555 1_555
H4_2 C1_2 1_555 1_555
H5_2 C1_2 1_555 1_555
C2_2 N4_2 1_555 1_555
C3_2 C2_2 1_555 1_555
C4_2 N3_2 1_555 1_555
C5_2 C4_2 1_555 1_555
H6_2 C5_2 1_555 1_555
H7_2 C5_2 1_555 1_555
H8_2 C5_2 1_555 1_555
C6_2 C3_2 1_555 1_555
C7_2 N2_2 1_555 1_555
C8_2 C7_2 1_555 1_555
H9_2 C8_2 1_555 1_555
H10_2 C8_2 1_555 1_555
H11_2 C8_2 1_555 1_555
C9_2 H12_2 1_555 1_555
H13_2 C9_2 1_555 1_555
H14_2 C9_2 1_555 1_555
C10_2 N1_2 1_555 1_555
C11_2 C12_2 1_555 1_555
C12_2 C13_2 1_555 1_555
C13_2 H15_2 1_555 1_555
N14_2 H46_2 1_555 1_555
C46_2 N14_2 1_555 1_555
C47_2 C46_2 1_555 1_555
H54_2 C47_2 1_555 1_555
H55_2 C47_2 1_555 1_555
H56_2 C47_2 1_555 1_555
N17_2 Cd1_2 1_555 1_555
N18_4 N17_2 1_555 1_555
H60_4 N18_4 1_555 1_555
C56_4 N18_4 1_555 1_555
C57_4 C56_4 1_555 1_555
H68_4 C57_4 1_555 1_555
H69_4 C57_4 1_555 1_555
C58_4 H71_4 1_555 1_555
H72_4 C58_4 1_555 1_555
H73_4 C58_4 1_555 1_555
C59_4 N17_2 1_555 1_555
N23_3 H75_3 1_555 1_555
N24_2 Cd1_2 1_555 1_555
C60_3 H76_3 1_555 1_555
H77_3 C60_3 1_555 1_555
H78_3 C60_3 1_555 1_555
C61_3 N24_2 1_555 1_555
C62_3 C61_3 1_555 1_555
C63_3 N23_3 1_555 1_555
C64_3 C63_3 1_555 1_555
H79_3 C64_3 1_555 1_555
H80_3 C64_3 1_555 1_555
H81_3 C64_3 1_555 1_555
C65_3 C62_3 1_555 1_555
C68_3 H85_3 1_555 1_555
H86_3 C68_3 1_555 1_555
H87_3 C68_3 1_555 1_555
C69_3 N21_3 1_555 1_555
O7_2 Cd1_2 1_555 1_555
O8_2 C70_2 1_555 1_555
C70_2 O7_2 1_555 1_555
C71_2 C70_2 1_555 1_555
C72_2 C71_2 1_555 1_555
H88_2 C72_2 1_555 1_555
O14_2 C73_2 1_555 1_555
O10_2 C73_2 1_555 1_555
C73_2 C74_2 1_555 1_555
C74_2 C75_2 1_555 1_555
C75_2 C71_2 1_555 1_555
H89_2 C75_2 1_555 1_555
O13_2 C76_2 1_555 1_555
O12_2 C76_2 1_555 1_555
C76_2 C77_2 1_555 1_555
C77_2 C72_2 1_555 1_555
C78_2 C74_2 1_555 1_555
H90_2 C78_2 1_555 1_555
Cd10_2 N21_3 1_555 1_555
Cd11 N4_2 1_555 1_555
N30_2 Cd1_2 1_555 1_555
C1_2 C2_2 1_555 1_555
C3_2 C4_2 1_555 1_555
C6_2 C7_2 1_555 1_555
C6_2 C10_2 1_555 1_555
C9_2 C10_2 1_555 1_555
C55_4 C56_4 1_555 1_555
C55_4 C59_4 1_555 1_555
C58_4 C59_4 1_555 1_555
N23_3 N24_2 1_555 1_555
C60_3 C61_3 1_555 1_555
C62_3 C63_3 1_555 1_555
C65_3 C69_3 1_555 1_555
C68_3 C69_3 1_555 1_555
C77_2 C78_2 1_555 1_555
N19_4 H61_4 1_555 1_555
N20_4 N19_4 1_555 1_555
H63_4 C50_4 1_555 1_555
H64_4 C50_4 1_555 1_555
C51_4 N20_4 1_555 1_555
C52_4 C51_4 1_555 1_555
C53_4 N19_4 1_555 1_555
C54_4 C53_4 1_555 1_555
H65_4 C54_4 1_555 1_555
H66_4 C54_4 1_555 1_555
H67_4 C54_4 1_555 1_555
Cd6_4 N20_4 1_555 1_555
C50_4 C51_4 1_555 1_555
C52_4 C53_4 1_555 1_555
N18_5 N25_2 1_555 1_555
H60_5 N18_5 1_555 1_555
C56_5 N18_5 1_555 1_555
C57_5 C56_5 1_555 1_555
H68_5 C57_5 1_555 1_555
C58_5 H71_5 1_555 1_555
H72_5 C58_5 1_555 1_555
H73_5 C58_5 1_555 1_555
C59_5 N25_2 1_555 1_555
N21_4 N22_4 1_555 1_555
N22_4 H74_4 1_555 1_555
N23_4 H75_4 1_555 1_555
C60_4 H76_4 1_555 1_555
H77_4 C60_4 1_555 1_555
H78_4 C60_4 1_555 1_555
C61_4 N27_2 1_555 1_555
C62_4 C61_4 1_555 1_555
C63_4 N23_4 1_555 1_555
C64_4 C63_4 1_555 1_555
H79_4 C64_4 1_555 1_555
H80_4 C64_4 1_555 1_555
H81_4 C64_4 1_555 1_555
C65_4 C62_4 1_555 1_555
C66_4 N22_4 1_555 1_555
C67_4 C66_4 1_555 1_555
H82_4 C67_4 1_555 1_555
H83_4 C67_4 1_555 1_555
H84_4 C67_4 1_555 1_555
C68_4 H85_4 1_555 1_555
H86_4 C68_4 1_555 1_555
H87_4 C68_4 1_555 1_555
C69_4 N21_4 1_555 1_555
Cd11 N21_4 1_555 1_555
C55_5 C56_5 1_555 1_555
C55_5 C59_5 1_555 1_555
C58_5 C59_5 1_555 1_555
N23_4 N27_2 1_555 1_555
C60_4 C61_4 1_555 1_555
C62_4 C63_4 1_555 1_555
C65_4 C66_4 1_555 1_555
C65_4 C69_4 1_555 1_555
C68_4 C69_4 1_555 1_555
C54_5 C53_5 1_555 1_555
H65_5 C54_5 1_555 1_555
H66_5 C54_5 1_555 1_555
H67_5 C54_5 1_555 1_555
N19_5 H61_5 1_555 1_555
N20_5 N19_5 1_555 1_555
H63_5 C50_5 1_555 1_555
H64_5 C50_5 1_555 1_555
C51_5 N20_5 1_555 1_555
C52_5 C51_5 1_555 1_555
Cd6_5 N20_5 1_555 1_555
C50_5 C51_5 1_555 1_555
N19_6 H61_6 1_555 1_555
N20_6 N19_6 1_555 1_555
H63_6 C50_6 1_555 1_555
H64_6 C50_6 1_555 1_555
C51_6 N20_6 1_555 1_555
C52_6 C51_6 1_555 1_555
Cd6_6 N20_6 1_555 1_555
C50_6 C51_6 1_555 1_555
N18_6 N26_2 1_555 1_555
H60_6 N18_6 1_555 1_555
C56_6 N18_6 1_555 1_555
C57_6 C56_6 1_555 1_555
H68_6 C57_6 1_555 1_555
C58_6 H71_6 1_555 1_555
H72_6 C58_6 1_555 1_555
H73_6 C58_6 1_555 1_555
C59_6 N26_2 1_555 1_555
C55_6 C56_6 1_555 1_555
C55_6 C59_6 1_555 1_555
C58_6 C59_6 1_555 1_555
C54_6 C53_6 1_555 1_555
H65_6 C54_6 1_555 1_555
H66_6 C54_6 1_555 1_555
H67_6 C54_6 1_555 1_555
N5_3 Cd2_3 1_555 1_555
N7_3 H19_3 1_555 1_555
N8_3 N7_3 1_555 1_555
C20_3 H20_3 1_555 1_555
H21_3 C20_3 1_555 1_555
H22_3 C20_3 1_555 1_555
C21_3 N8_3 1_555 1_555
C22_3 C21_3 1_555 1_555
C23_3 N7_3 1_555 1_555
C24_3 C23_3 1_555 1_555
H23_3 C24_3 1_555 1_555
H24_3 C24_3 1_555 1_555
H25_3 C24_3 1_555 1_555
C25_3 C22_3 1_555 1_555
C28_3 H29_3 1_555 1_555
H30_3 C28_3 1_555 1_555
H31_3 C28_3 1_555 1_555
C29_3 N5_3 1_555 1_555
Cd6_3 N8_3 1_555 1_555
O13_3 Cd2_3 1_555 1_555
N27_3 Cd2_3 1_555 1_555
C20_3 C21_3 1_555 1_555
C22_3 C23_3 1_555 1_555
C25_3 C29_3 1_555 1_555
C28_3 C29_3 1_555 1_555
Cd1_3 O1_3 1_555 1_555
O1_3 C11_3 1_555 1_555
O2_3 C11_3 1_555 1_555
H1_3 N2_3 1_555 1_555
C7_3 N2_3 1_555 1_555
C8_3 C7_3 1_555 1_555
H9_3 C8_3 1_555 1_555
H10_3 C8_3 1_555 1_555
H11_3 C8_3 1_555 1_555
C11_3 C12_3 1_555 1_555
C12_3 C13_3 1_555 1_555
C13_3 H15_3 1_555 1_555
O3_3 C14_3 1_555 1_555
O4_3 C14_3 1_555 1_555
C14_3 C15_3 1_555 1_555
C15_3 C16_3 1_555 1_555
C16_3 C12_3 1_555 1_555
H16_3 C16_3 1_555 1_555
O5_3 C17_3 1_555 1_555
O6_3 C17_3 1_555 1_555
C17_3 C18_3 1_555 1_555
C18_3 C13_3 1_555 1_555
C19_3 C15_3 1_555 1_555
H17_3 C19_3 1_555 1_555
Cd2_4 O3_3 1_555 1_555
H18_3 N6_3 1_555 1_555
C26_3 N6_3 1_555 1_555
C27_3 C26_3 1_555 1_555
H26_3 C27_3 1_555 1_555
H27_3 C27_3 1_555 1_555
H28_3 C27_3 1_555 1_555
Cd3_3 O5_3 1_555 1_555
N9_3 Cd3_3 1_555 1_555
N10_3 N9_3 1_555 1_555
H32_3 N10_3 1_555 1_555
N11_3 H33_3 1_555 1_555
N12_3 N11_3 1_555 1_555
C30_3 H34_3 1_555 1_555
H35_3 C30_3 1_555 1_555
H36_3 C30_3 1_555 1_555
C31_3 N12_3 1_555 1_555
C32_3 C31_3 1_555 1_555
C33_3 N11_3 1_555 1_555
C34_3 C33_3 1_555 1_555
H37_3 C34_3 1_555 1_555
H38_3 C34_3 1_555 1_555
H39_3 C34_3 1_555 1_555
C35_3 C32_3 1_555 1_555
C36_3 N10_3 1_555 1_555
C37_3 C36_3 1_555 1_555
H40_3 C37_3 1_555 1_555
H41_3 C37_3 1_555 1_555
H42_3 C37_3 1_555 1_555
C38_3 H43_3 1_555 1_555
H44_3 C38_3 1_555 1_555
H45_3 C38_3 1_555 1_555
C39_3 N9_3 1_555 1_555
N13_3 N14_3 1_555 1_555
N14_3 H46_3 1_555 1_555
N15_3 H47_3 1_555 1_555
N16_3 Cd3_3 1_555 1_555
C40_3 H48_3 1_555 1_555
H49_3 C40_3 1_555 1_555
H50_3 C40_3 1_555 1_555
C41_3 N16_3 1_555 1_555
C42_3 C41_3 1_555 1_555
C43_3 N15_3 1_555 1_555
C44_3 C43_3 1_555 1_555
H51_3 C44_3 1_555 1_555
H52_3 C44_3 1_555 1_555
H53_3 C44_3 1_555 1_555
C45_3 C42_3 1_555 1_555
C46_3 N14_3 1_555 1_555
C47_3 C46_3 1_555 1_555
H54_3 C47_3 1_555 1_555
H55_3 C47_3 1_555 1_555
H56_3 C47_3 1_555 1_555
C48_3 H57_3 1_555 1_555
H58_3 C48_3 1_555 1_555
H59_3 C48_3 1_555 1_555
C49_3 N13_3 1_555 1_555
N17_3 Cd1_3 1_555 1_555
N19_7 H61_7 1_555 1_555
N20_7 N19_7 1_555 1_555
C50_7 H62_7 1_555 1_555
H63_7 C50_7 1_555 1_555
H64_7 C50_7 1_555 1_555
C51_7 N20_7 1_555 1_555
C52_7 C51_7 1_555 1_555
C53_7 N19_7 1_555 1_555
C54_7 C53_7 1_555 1_555
H65_7 C54_7 1_555 1_555
H66_7 C54_7 1_555 1_555
H67_7 C54_7 1_555 1_555
C55_7 C52_7 1_555 1_555
C58_7 H71_7 1_555 1_555
H72_7 C58_7 1_555 1_555
H73_7 C58_7 1_555 1_555
C59_7 N17_3 1_555 1_555
C60_5 H76_5 1_555 1_555
H77_5 C60_5 1_555 1_555
H78_5 C60_5 1_555 1_555
C67_5 C66_5 1_555 1_555
H82_5 C67_5 1_555 1_555
H83_5 C67_5 1_555 1_555
H84_5 C67_5 1_555 1_555
Cd6_6 N20_7 1_555 1_555
Cd6 N12_3 1_555 1_555
Cd6_3 N13_3 1_555 1_555
O14_3 Cd3_3 1_555 1_555
N25_3 Cd2_4 1_555 1_555
N26_3 Cd3_3 1_555 1_555
N28_3 Cd3_3 1_555 1_555
N29_3 Cd2_4 1_555 1_555
N30_3 Cd1_3 1_555 1_555
C18_3 C19_3 1_555 1_555
C30_3 C31_3 1_555 1_555
C32_3 C33_3 1_555 1_555
C35_3 C36_3 1_555 1_555
C35_3 C39_3 1_555 1_555
C38_3 C39_3 1_555 1_555
N15_3 N16_3 1_555 1_555
C40_3 C41_3 1_555 1_555
C42_3 C43_3 1_555 1_555
C45_3 C46_3 1_555 1_555
C45_3 C49_3 1_555 1_555
C48_3 C49_3 1_555 1_555
C50_7 C51_7 1_555 1_555
C52_7 C53_7 1_555 1_555
C55_7 C59_7 1_555 1_555
C58_7 C59_7 1_555 1_555
N1_3 Cd1_4 1_555 1_555
N3_3 H2_3 1_555 1_555
N4_3 N3_3 1_555 1_555
C1_3 H3_3 1_555 1_555
H4_3 C1_3 1_555 1_555
H5_3 C1_3 1_555 1_555
C2_3 N4_3 1_555 1_555
C3_3 C2_3 1_555 1_555
C4_3 N3_3 1_555 1_555
C5_3 C4_3 1_555 1_555
H6_3 C5_3 1_555 1_555
H7_3 C5_3 1_555 1_555
H8_3 C5_3 1_555 1_555
C6_3 C3_3 1_555 1_555
C9_3 H12_3 1_555 1_555
H13_3 C9_3 1_555 1_555
H14_3 C9_3 1_555 1_555
C10_3 N1_3 1_555 1_555
H60_7 N18_7 1_555 1_555
C56_7 N18_7 1_555 1_555
C57_7 C56_7 1_555 1_555
H68_7 C57_7 1_555 1_555
H69_7 C57_7 1_555 1_555
H70_7 C57_7 1_555 1_555
N21_5 N22_5 1_555 1_555
N23_5 H75_5 1_555 1_555
N24_3 Cd1_4 1_555 1_555
C61_5 N24_3 1_555 1_555
C62_5 C61_5 1_555 1_555
C63_5 N23_5 1_555 1_555
C64_5 C63_5 1_555 1_555
H79_5 C64_5 1_555 1_555
H80_5 C64_5 1_555 1_555
H81_5 C64_5 1_555 1_555
C65_5 C62_5 1_555 1_555
C68_5 H85_5 1_555 1_555
H86_5 C68_5 1_555 1_555
H87_5 C68_5 1_555 1_555
C69_5 N21_5 1_555 1_555
O7_3 Cd1_4 1_555 1_555
O8_3 C70_3 1_555 1_555
C70_3 O7_3 1_555 1_555
C71_3 C70_3 1_555 1_555
C72_3 C71_3 1_555 1_555
H88_3 C72_3 1_555 1_555
O14_3 C73_3 1_555 1_555
O10_3 C73_3 1_555 1_555
C73_3 C74_3 1_555 1_555
C74_3 C75_3 1_555 1_555
C75_3 C71_3 1_555 1_555
H89_3 C75_3 1_555 1_555
O13_3 C76_3 1_555 1_555
O12_3 C76_3 1_555 1_555
C76_3 C77_3 1_555 1_555
C77_3 C72_3 1_555 1_555
C78_3 C74_3 1_555 1_555
H90_3 C78_3 1_555 1_555
Cd6 N21_5 1_555 1_555
Cd6_2 N4_3 1_555 1_555
C1_3 C2_3 1_555 1_555
C3_3 C4_3 1_555 1_555
C6_3 C10_3 1_555 1_555
C9_3 C10_3 1_555 1_555
N23_5 N24_3 1_555 1_555
C62_5 C63_5 1_555 1_555
C65_5 C69_5 1_555 1_555
C68_5 C69_5 1_555 1_555
C77_3 C78_3 1_555 1_555
H60_8 N18_8 1_555 1_555
C56_8 N18_8 1_555 1_555
C57_8 C56_8 1_555 1_555
H68_8 C57_8 1_555 1_555
H69_8 C57_8 1_555 1_555
H70_8 C57_8 1_555 1_555
N21_6 N22_6 1_555 1_555
N23_6 H75_6 1_555 1_555
C61_6 N27_3 1_555 1_555
C62_6 C61_6 1_555 1_555
C63_6 N23_6 1_555 1_555
C64_6 C63_6 1_555 1_555
H79_6 C64_6 1_555 1_555
H80_6 C64_6 1_555 1_555
H81_6 C64_6 1_555 1_555
C65_6 C62_6 1_555 1_555
C68_6 H85_6 1_555 1_555
H86_6 C68_6 1_555 1_555
H87_6 C68_6 1_555 1_555
C69_6 N21_6 1_555 1_555
Cd6_2 N21_6 1_555 1_555
N23_6 N27_3 1_555 1_555
C62_6 C63_6 1_555 1_555
C65_6 C69_6 1_555 1_555
C68_6 C69_6 1_555 1_555
N19_8 H61_8 1_555 1_555
N20_8 N19_8 1_555 1_555
C50_8 H62_8 1_555 1_555
H63_8 C50_8 1_555 1_555
H64_8 C50_8 1_555 1_555
C51_8 N20_8 1_555 1_555
C52_8 C51_8 1_555 1_555
C53_8 N19_8 1_555 1_555
C54_8 C53_8 1_555 1_555
H65_8 C54_8 1_555 1_555
H66_8 C54_8 1_555 1_555
H67_8 C54_8 1_555 1_555
C55_8 C52_8 1_555 1_555
C58_8 H71_8 1_555 1_555
H72_8 C58_8 1_555 1_555
H73_8 C58_8 1_555 1_555
C59_8 N25_3 1_555 1_555
C60_6 H76_6 1_555 1_555
H77_6 C60_6 1_555 1_555
H78_6 C60_6 1_555 1_555
C67_6 C66_6 1_555 1_555
H82_6 C67_6 1_555 1_555
H83_6 C67_6 1_555 1_555
H84_6 C67_6 1_555 1_555
Cd6_5 N20_8 1_555 1_555
C50_8 C51_8 1_555 1_555
C52_8 C53_8 1_555 1_555
C55_8 C59_8 1_555 1_555
C58_8 C59_8 1_555 1_555
N18_9 N26_3 1_555 1_555
H60_9 N18_9 1_555 1_555
N19_9 H61_9 1_555 1_555
N20_9 N19_9 1_555 1_555
C50_9 H62_9 1_555 1_555
H63_9 C50_9 1_555 1_555
H64_9 C50_9 1_555 1_555
C51_9 N20_9 1_555 1_555
C52_9 C51_9 1_555 1_555
C53_9 N19_9 1_555 1_555
C54_9 C53_9 1_555 1_555
H65_9 C54_9 1_555 1_555
H66_9 C54_9 1_555 1_555
H67_9 C54_9 1_555 1_555
C55_9 C52_9 1_555 1_555
C56_9 N18_9 1_555 1_555
C57_9 C56_9 1_555 1_555
H68_9 C57_9 1_555 1_555
H69_9 C57_9 1_555 1_555
H70_9 C57_9 1_555 1_555
C58_9 H71_9 1_555 1_555
H72_9 C58_9 1_555 1_555
H73_9 C58_9 1_555 1_555
C59_9 N26_3 1_555 1_555
Cd6_4 N20_9 1_555 1_555
C50_9 C51_9 1_555 1_555
C52_9 C53_9 1_555 1_555
C55_9 C56_9 1_555 1_555
C55_9 C59_9 1_555 1_555
C58_9 C59_9 1_555 1_555
N15_4 H47_4 1_555 1_555
C40_4 H48_4 1_555 1_555
H49_4 C40_4 1_555 1_555
H50_4 C40_4 1_555 1_555
C41_4 N28 1_555 1_555
C42_4 C41_4 1_555 1_555
N21_7 N22_7 1_555 1_555
N22_7 H74_7 1_555 1_555
N23_7 H75_7 1_555 1_555
C60_7 H76_7 1_555 1_555
H77_7 C60_7 1_555 1_555
H78_7 C60_7 1_555 1_555
C61_7 N29 1_555 1_555
C62_7 C61_7 1_555 1_555
C63_7 N23_7 1_555 1_555
C64_7 C63_7 1_555 1_555
H79_7 C64_7 1_555 1_555
H80_7 C64_7 1_555 1_555
H81_7 C64_7 1_555 1_555
C65_7 C62_7 1_555 1_555
C66_7 N22_7 1_555 1_555
C67_7 C66_7 1_555 1_555
H82_7 C67_7 1_555 1_555
H83_7 C67_7 1_555 1_555
H84_7 C67_7 1_555 1_555
C68_7 H85_7 1_555 1_555
H86_7 C68_7 1_555 1_555
H87_7 C68_7 1_555 1_555
C69_7 N21_7 1_555 1_555
Cd6_3 N21_7 1_555 1_555
N15_4 N28 1_555 1_555
C40_4 C41_4 1_555 1_555
N23_7 N29 1_555 1_555
C60_7 C61_7 1_555 1_555
C62_7 C63_7 1_555 1_555
C65_7 C66_7 1_555 1_555
C65_7 C69_7 1_555 1_555
C68_7 C69_7 1_555 1_555
N13_4 N14_4 1_555 1_555
N14_4 H46_4 1_555 1_555
C44_4 C43_4 1_555 1_555
H51_4 C44_4 1_555 1_555
H52_4 C44_4 1_555 1_555
H53_4 C44_4 1_555 1_555
C46_4 N14_4 1_555 1_555
C47_4 C46_4 1_555 1_555
H54_4 C47_4 1_555 1_555
H56_4 C47_4 1_555 1_555
C48_4 H57_4 1_555 1_555
H58_4 C48_4 1_555 1_555
H59_4 C48_4 1_555 1_555
C49_4 N13_4 1_555 1_555
Cd6 N13_4 1_555 1_555
C45_4 C46_4 1_555 1_555
C45_4 C49_4 1_555 1_555
C48_4 C49_4 1_555 1_555
N21_8 N22_8 1_555 1_555
N22_8 H74_8 1_555 1_555
C64_8 C63_8 1_555 1_555
H79_8 C64_8 1_555 1_555
H80_8 C64_8 1_555 1_555
H81_8 C64_8 1_555 1_555
C66_8 N22_8 1_555 1_555
C67_8 C66_8 1_555 1_555
H82_8 C67_8 1_555 1_555
H84_8 C67_8 1_555 1_555
C68_8 H85_8 1_555 1_555
H86_8 C68_8 1_555 1_555
H87_8 C68_8 1_555 1_555
C69_8 N21_8 1_555 1_555
Cd6_2 N21_8 1_555 1_555
C65_8 C66_8 1_555 1_555
C65_8 C69_8 1_555 1_555
C68_8 C69_8 1_555 1_555
N23_8 H75_8 1_555 1_555
C60_8 H76_8 1_555 1_555
H77_8 C60_8 1_555 1_555
H78_8 C60_8 1_555 1_555
C61_8 N30 1_555 1_555
C62_8 C61_8 1_555 1_555
N23_8 N30 1_555 1_555
C60_8 C61_8 1_555 1_555
N15_5 H47_5 1_555 1_555
H49_5 C40_5 1_555 1_555
H50_5 C40_5 1_555 1_555
C41_5 N28_2 1_555 1_555
C42_5 C41_5 1_555 1_555
N23_9 H75_9 1_555 1_555
H77_9 C60_9 1_555 1_555
H78_9 C60_9 1_555 1_555
C61_9 N29_2 1_555 1_555
C62_9 C61_9 1_555 1_555
C63_9 N23_9 1_555 1_555
C64_9 C63_9 1_555 1_555
H79_9 C64_9 1_555 1_555
H80_9 C64_9 1_555 1_555
H81_9 C64_9 1_555 1_555
N15_5 N28_2 1_555 1_555
C40_5 C41_5 1_555 1_555
N23_9 N29_2 1_555 1_555
C60_9 C61_9 1_555 1_555
C62_9 C63_9 1_555 1_555
N21_9 N22_9 1_555 1_555
N22_9 H74_9 1_555 1_555
C66_9 N22_9 1_555 1_555
C67_9 C66_9 1_555 1_555
H82_9 C67_9 1_555 1_555
H83_9 C67_9 1_555 1_555
C68_9 H85_9 1_555 1_555
H86_9 C68_9 1_555 1_555
H87_9 C68_9 1_555 1_555
C69_9 N21_9 1_555 1_555
Cd6_6 N21_9 1_555 1_555
C65_9 C66_9 1_555 1_555
C65_9 C69_9 1_555 1_555
C68_9 C69_9 1_555 1_555
C44_5 C43_5 1_555 1_555
H51_5 C44_5 1_555 1_555
H52_5 C44_5 1_555 1_555
H53_5 C44_5 1_555 1_555
N13_5 N14_5 1_555 1_555
N14_5 H46_5 1_555 1_555
C46_5 N14_5 1_555 1_555
C47_5 C46_5 1_555 1_555
H54_5 C47_5 1_555 1_555
C48_5 H57_5 1_555 1_555
H58_5 C48_5 1_555 1_555
H59_5 C48_5 1_555 1_555
C49_5 N13_5 1_555 1_555
Cd6_4 N13_5 1_555 1_555
C45_5 C46_5 1_555 1_555
C45_5 C49_5 1_555 1_555
C48_5 C49_5 1_555 1_555
C64_10 C63_10 1_555 1_555
H79_10 C64_10 1_555 1_555
H80_10 C64_10 1_555 1_555
H81_10 C64_10 1_555 1_555
N21_10 N22_10 1_555 1_555
N22_10 H74_10 1_555 1_555
C66_10 N22_10 1_555 1_555
C67_10 C66_10 1_555 1_555
H82_10 C67_10 1_555 1_555
C68_10 H85_10 1_555 1_555
H86_10 C68_10 1_555 1_555
H87_10 C68_10 1_555 1_555
C69_10 N21_10 1_555 1_555
Cd6_5 N21_10 1_555 1_555
C65_10 C66_10 1_555 1_555
C65_10 C69_10 1_555 1_555
C68_10 C69_10 1_555 1_555
N23_10 H75_10 1_555 1_555
H77_10 C60_10 1_555 1_555
H78_10 C60_10 1_555 1_555
C61_10 N30_2 1_555 1_555
C62_10 C61_10 1_555 1_555
N23_10 N30_2 1_555 1_555
C60_10 C61_10 1_555 1_555
N13_6 N14_6 1_555 1_555
N14_6 H46_6 1_555 1_555
N15_6 H47_6 1_555 1_555
C40_6 H48_6 1_555 1_555
H49_6 C40_6 1_555 1_555
H50_6 C40_6 1_555 1_555
C41_6 N28_3 1_555 1_555
C42_6 C41_6 1_555 1_555
C43_6 N15_6 1_555 1_555
C44_6 C43_6 1_555 1_555
H51_6 C44_6 1_555 1_555
H52_6 C44_6 1_555 1_555
H53_6 C44_6 1_555 1_555
C45_6 C42_6 1_555 1_555
C46_6 N14_6 1_555 1_555
C47_6 C46_6 1_555 1_555
H54_6 C47_6 1_555 1_555
H55_6 C47_6 1_555 1_555
H56_6 C47_6 1_555 1_555
C48_6 H57_6 1_555 1_555
H58_6 C48_6 1_555 1_555
H59_6 C48_6 1_555 1_555
C49_6 N13_6 1_555 1_555
C60_11 H76_11 1_555 1_555
H77_11 C60_11 1_555 1_555
H78_11 C60_11 1_555 1_555
C67_11 C66_11 1_555 1_555
H82_11 C67_11 1_555 1_555
H83_11 C67_11 1_555 1_555
H84_11 C67_11 1_555 1_555
Cd6_6 N13_6 1_555 1_555
N15_6 N28_3 1_555 1_555
C40_6 C41_6 1_555 1_555
C42_6 C43_6 1_555 1_555
C45_6 C46_6 1_555 1_555
C45_6 C49_6 1_555 1_555
C48_6 C49_6 1_555 1_555
N21_11 N22_11 1_555 1_555
N23_11 H75_11 1_555 1_555
C61_11 N29_3 1_555 1_555
C62_11 C61_11 1_555 1_555
C63_11 N23_11 1_555 1_555
C64_11 C63_11 1_555 1_555
H79_11 C64_11 1_555 1_555
H80_11 C64_11 1_555 1_555
H81_11 C64_11 1_555 1_555
C65_11 C62_11 1_555 1_555
C68_11 H85_11 1_555 1_555
H86_11 C68_11 1_555 1_555
H87_11 C68_11 1_555 1_555
C69_11 N21_11 1_555 1_555
Cd6_4 N21_11 1_555 1_555
N23_11 N29_3 1_555 1_555
C62_11 C63_11 1_555 1_555
C65_11 C69_11 1_555 1_555
C68_11 C69_11 1_555 1_555
N21_12 N22_12 1_555 1_555
N23_12 H75_12 1_555 1_555
C61_12 N30_3 1_555 1_555
C62_12 C61_12 1_555 1_555
C63_12 N23_12 1_555 1_555
C64_12 C63_12 1_555 1_555
H79_12 C64_12 1_555 1_555
H80_12 C64_12 1_555 1_555
H81_12 C64_12 1_555 1_555
C65_12 C62_12 1_555 1_555
C68_12 H85_12 1_555 1_555
H86_12 C68_12 1_555 1_555
H87_12 C68_12 1_555 1_555
C69_12 N21_12 1_555 1_555
Cd6_5 N21_12 1_555 1_555
N23_12 N30_3 1_555 1_555
C62_12 C63_12 1_555 1_555
C65_12 C69_12 1_555 1_555
C68_12 C69_12 1_555 1_555
C60_12 H76_12 1_555 1_555
H77_12 C60_12 1_555 1_555
H78_12 C60_12 1_555 1_555
C67_12 C66_12 1_555 1_555
H82_12 C67_12 1_555 1_555
H83_12 C67_12 1_555 1_555
H84_12 C67_12 1_555 1_555
Cd6_3 O1_4 1_555 1_555
O1_4 C11_4 1_555 1_555
O2_4 C11_4 1_555 1_555
C11_4 C12_4 1_555 1_555
C12_4 C13_4 1_555 1_555
C13_4 H15_4 1_555 1_555
O7_4 Cd6_3 1_555 1_555
O8_4 C70_4 1_555 1_555
C70_4 O7_4 1_555 1_555
C71_4 C70_4 1_555 1_555
C72_4 C71_4 1_555 1_555
H88_4 C72_4 1_555 1_555
O9 C73_4 1_555 1_555
O10_4 C73_4 1_555 1_555
C73_4 C74_4 1_555 1_555
C74_4 C75_4 1_555 1_555
C75_4 C71_4 1_555 1_555
H89_4 C75_4 1_555 1_555
O11 C76_4 1_555 1_555
O12_4 C76_4 1_555 1_555
C76_4 C77_4 1_555 1_555
C77_4 C72_4 1_555 1_555
C78_4 C74_4 1_555 1_555
H90_4 C78_4 1_555 1_555
Cd6 O11 1_555 1_555
Cd6_2 O9 1_555 1_555
C77_4 C78_4 1_555 1_555
O5_4 C17_4 1_555 1_555
C17_4 C18_4 1_555 1_555
Cd6_2 O5_4 1_555 1_555
H16_4 C16_4 1_555 1_555
O3_4 C14_4 1_555 1_555
C14_4 C15_4 1_555 1_555
C19_4 C15_4 1_555 1_555
H17_4 C19_4 1_555 1_555
Cd6 O3_4 1_555 1_555
Cd6_6 O1_5 1_555 1_555
O1_5 C11_5 1_555 1_555
O2_5 C11_5 1_555 1_555
C11_5 C12_5 1_555 1_555
C12_5 C13_5 1_555 1_555
C13_5 H15_5 1_555 1_555
O7_5 Cd6_6 1_555 1_555
O8_5 C70_5 1_555 1_555
C70_5 O7_5 1_555 1_555
C71_5 C70_5 1_555 1_555
C72_5 C71_5 1_555 1_555
H88_5 C72_5 1_555 1_555
O9_2 C73_5 1_555 1_555
O10_5 C73_5 1_555 1_555
C73_5 C74_5 1_555 1_555
C74_5 C75_5 1_555 1_555
C75_5 C71_5 1_555 1_555
H89_5 C75_5 1_555 1_555
O11_2 C76_5 1_555 1_555
O12_5 C76_5 1_555 1_555
C76_5 C77_5 1_555 1_555
C77_5 C72_5 1_555 1_555
C78_5 C74_5 1_555 1_555
H90_5 C78_5 1_555 1_555
Cd6_4 O11_2 1_555 1_555
Cd6_5 O9_2 1_555 1_555
C77_5 C78_5 1_555 1_555
H16_5 C16_5 1_555 1_555
O5_5 C17_5 1_555 1_555
C17_5 C18_5 1_555 1_555
Cd6_5 O5_5 1_555 1_555
O3_5 C14_5 1_555 1_555
C14_5 C15_5 1_555 1_555
C19_5 C15_5 1_555 1_555
H17_5 C19_5 1_555 1_555
Cd6_4 O3_5 1_555 1_555
O7_6 Cd10 1_555 1_555
O8_6 C70_6 1_555 1_555
C70_6 O7_6 1_555 1_555
C71_6 C70_6 1_555 1_555
C72_6 C71_6 1_555 1_555
H88_6 C72_6 1_555 1_555
O9_3 C73_6 1_555 1_555
O10_6 C73_6 1_555 1_555
C73_6 C74_6 1_555 1_555
C74_6 C75_6 1_555 1_555
C75_6 C71_6 1_555 1_555
H89_6 C75_6 1_555 1_555
O11_3 C76_6 1_555 1_555
O12_6 C76_6 1_555 1_555
C76_6 C77_6 1_555 1_555
C77_6 C72_6 1_555 1_555
C78_6 C74_6 1_555 1_555
H90_6 C78_6 1_555 1_555
Cd8_2 O11_3 1_555 1_555
Cd11 O9_3 1_555 1_555
C77_6 C78_6 1_555 1_555
Cd10_2 O1_6 1_555 1_555
O1_6 C11_6 1_555 1_555
O2_6 C11_6 1_555 1_555
C11_6 C12_6 1_555 1_555
C12_6 C13_6 1_555 1_555
C13_6 H15_6 1_555 1_555
O3_6 C14_6 1_555 1_555
O4_6 C14_6 1_555 1_555
C14_6 C15_6 1_555 1_555
C15_6 C16_6 1_555 1_555
C16_6 C12_6 1_555 1_555
H16_6 C16_6 1_555 1_555
O5_6 C17_6 1_555 1_555
O6_6 C17_6 1_555 1_555
C17_6 C18_6 1_555 1_555
C18_6 C13_6 1_555 1_555
C19_6 C15_6 1_555 1_555
H17_6 C19_6 1_555 1_555
Cd8 O3_6 1_555 1_555
Cd11 O5_6 1_555 1_555
C18_6 C19_6 1_555 1_555

#END
