
###############################################################################
#
# This file contains modified crystal structure data generated from the
# MOF subset of the Cambridge Structural Database (CSD) v543 
# hosted by the Cambridge Crystallographic Data Centre (CCDC).
#
# This work is licensed under the Creative Commons
# Attribution-NonCommercial-ShareAlike 4.0 International License.
# To view a copy of this license, visit
# http://creativecommons.org/licenses/by-nc-sa/4.0/
# or send a letter to
# Creative Commons, PO Box 1866, Mountain View, CA 94042, USA.
#
# CIF created using the CSD Python API on 29 September 2022
# The structure has been converted into the P1 space group
# The structure has a 3D framework
# The original CSD entry VITKUG is in the monoclinic crystal system
# The framework has been calculated to contain at least 10.0% void space
# The void calculation uses a probe of radius 1.32A, grid spacing 0.4
# The framework is charged, counterions have been retained in the structure
#
###############################################################################

data_VITKUG
_chemical_formula_moiety         '(C52 H48 Cu8 N4 O34 2-)n'
_symmetry_cell_setting           triclinic
_symmetry_space_group_name_H-M   'P 1'
_symmetry_Int_Tables_number      1
_space_group_name_Hall           'P 1'
loop_
_symmetry_equiv_pos_site_id
_symmetry_equiv_pos_as_xyz
1 x,y,z
_cell_length_a                   11.5934(11)
_cell_length_b                   10.5944(7)
_cell_length_c                   15.822(2)
_cell_angle_alpha                90
_cell_angle_beta                 106.130(11)
_cell_angle_gamma                90
_cell_volume                     1866.84
loop_
_atom_site_label
_atom_site_type_symbol
_atom_site_fract_x
_atom_site_fract_y
_atom_site_fract_z
Cu1 Cu 0.01480(4) 0.63677(4) 0.00079(3)
Cu2 Cu 0.14067(4) 0.49758(4) 0.18562(3)
C1 C 0.0170(3) 0.1110(3) 0.2105(2)
C4 C 0.0387(3) 0.2308(3) 0.1667(2)
O1 O 0.1042(2) 0.3137(2) 0.2120(2)
O5 O 0.0058(2) 0.5016(2) 0.08290(14)
C7 C 0.3897(3) 0.5059(4) 0.0200(2)
C8 C 0.4973(3) 0.5102(4) 0.0865(2)
C10 C 0.2754(3) 0.5233(4) 0.0479(2)
O8 O 0.2520(2) 0.4405(3) 0.0975(2)
O9 O 0.2173(2) 0.6228(3) 0.0255(2)
H3 H 0.4990(34) 0.5203(38) 0.1481(26)
O11 O 0.0105(3) 0.2332(3) 0.4152(2)
C16 C 0.6075(3) 0.5044(4) 0.0674(2)
C19 C 0.7217(3) 0.5172(4) 0.1407(2)
O14 O 0.7158(2) 0.4875(3) 0.2173(2)
O15 O 0.8118(2) 0.5578(4) 0.1224(2)
Cu6 Cu 0.01480(4) 0.36323(4) 0.50079(3)
Cu14 Cu 0.85933(4) 0.49758(4) 0.31438(3)
O21 O 0.1082(2) 0.6805(2) 0.2107(2)
O23 O 0.0005(2) 0.7661(2) 0.0828(2)
O25 O 0.2842(2) 0.4875(3) 0.2827(2)
C6 C 0.3925(3) 0.4956(4) 0.9326(2)
C9 C 0.2783(3) 0.4828(4) 0.8593(2)
O6 O 0.2842(2) 0.5125(3) 0.7827(2)
O7 O 0.1882(2) 0.4422(4) 0.8776(2)
C17 C 0.6103(3) 0.4941(4) 0.9800(2)
C18 C 0.5027(3) 0.4898(4) 0.9135(2)
C20 C 0.7246(3) 0.4767(4) 0.9521(2)
O16 O 0.7480(2) 0.5595(3) 0.9025(2)
O17 O 0.7827(2) 0.3772(3) 0.9745(2)
H5 H 0.5010(34) 0.4797(38) 0.8519(26)
H6 H 0.0613(25) 0.4950(48) 0.9006(30)
Cu7 Cu 0.98520(4) 0.36323(4) 0.99921(3)
Cu10 Cu 0.14067(4) 0.50242(4) 0.68562(3)
Cu11 Cu 0.85933(4) 0.50242(4) 0.81438(3)
O20 O 0.0105(3) 0.7668(3) 0.9152(2)
C2 C 0.0176(3) 0.8817(3) 0.2108(2)
C3 C 0.0327(3) 0.9968(4) 0.1729(2)
C5 C 0.0438(3) 0.7636(3) 0.1659(2)
H1 H 0.0541(35) 0.9955(39) 0.1206(27)
O2 O 0.9895(3) 0.2332(3) 0.0848(2)
H2 H 0.9387(25) 0.5050(48) 0.0994(30)
C11 C 0.9830(3) 0.1110(3) 0.2895(2)
C14 C 0.9613(3) 0.2308(3) 0.3333(2)
O10 O 0.8958(2) 0.3137(2) 0.2880(2)
O18 O 0.9942(2) 0.4984(2) 0.91710(14)
O19 O 0.8958(2) 0.6863(2) 0.7880(2)
O22 O 0.8918(2) 0.3195(2) 0.7893(2)
O24 O 0.9995(2) 0.2339(2) 0.9172(2)
O26 O 0.7158(2) 0.5125(3) 0.7173(2)
C12 C 0.9824(3) 0.8817(3) 0.2892(2)
C13 C 0.9673(3) 0.9968(4) 0.3271(2)
C15 C 0.9562(3) 0.7636(3) 0.3341(2)
O12 O 0.8918(2) 0.6805(2) 0.2893(2)
O13 O 0.9995(2) 0.7661(2) 0.4172(2)
H4 H 0.9459(35) 0.9955(39) 0.3794(27)
Cu8 Cu 0.98520(4) 0.63677(4) 0.49921(3)
H2_2 H 0.0613(25) 0.5050(48) 0.4006(30)
O18_2 O 0.0058(2) 0.4984(2) 0.58290(14)
O19_2 O 0.1042(2) 0.6863(2) 0.7120(2)
O22_2 O 0.1082(2) 0.3195(2) 0.7107(2)
O24_2 O 0.0005(2) 0.2339(2) 0.5828(2)
O27 O 0.2520(2) 0.5595(3) 0.5975(2)
O28 O 0.2173(2) 0.3772(3) 0.5255(2)
O5_2 O 0.9942(2) 0.5016(2) 0.41710(14)
C6_2 C 0.6075(3) 0.4956(4) 0.5674(2)
C7_2 C 0.6103(3) 0.5059(4) 0.4800(2)
C8_2 C 0.5027(3) 0.5102(4) 0.4135(2)
C9_2 C 0.7217(3) 0.4828(4) 0.6407(2)
C10_2 C 0.7246(3) 0.5233(4) 0.4521(2)
O7_2 O 0.8118(2) 0.4422(4) 0.6224(2)
O8_2 O 0.7480(2) 0.4405(3) 0.4025(2)
O9_2 O 0.7827(2) 0.6228(3) 0.4745(2)
H3_2 H 0.5010(34) 0.5203(38) 0.3519(26)
C16_2 C 0.3925(3) 0.5044(4) 0.4326(2)
C17_2 C 0.3897(3) 0.4941(4) 0.5200(2)
C18_2 C 0.4973(3) 0.4898(4) 0.5865(2)
C19_2 C 0.2783(3) 0.5172(4) 0.3593(2)
C20_2 C 0.2754(3) 0.4767(4) 0.5479(2)
O15_2 O 0.1882(2) 0.5578(4) 0.3776(2)
H5_2 H 0.4990(34) 0.4797(38) 0.6481(26)
H6_2 H 0.9387(25) 0.4950(48) 0.5994(30)
O20_2 O 0.9895(3) 0.7668(3) 0.5848(2)
C12_2 C 0.0176(3) 0.1183(3) 0.7108(2)
C13_2 C 0.0327(3) 0.0032(4) 0.6729(2)
C15_2 C 0.0438(3) 0.2364(3) 0.6659(2)
H4_2 H 0.0541(35) 0.0045(39) 0.6206(27)
C11_2 C 0.0170(3) 0.8890(3) 0.7105(2)
C14_2 C 0.0387(3) 0.7692(3) 0.6667(2)
C2_2 C 0.9824(3) 0.1183(3) 0.7892(2)
C3_2 C 0.9673(3) 0.0032(4) 0.8271(2)
C5_2 C 0.9562(3) 0.2364(3) 0.8341(2)
H1_2 H 0.9459(35) 0.0045(39) 0.8794(27)
C1_2 C 0.9830(3) 0.8890(3) 0.7895(2)
C4_2 C 0.9613(3) 0.7692(3) 0.8333(2)
N1 N 0.7084(4) 0.1477(5) 0.0275(3)
H7 H 0.6970(55) 0.1485(62) 0.0818(18)
H8 H 0.7459(50) 0.2160(36) 0.0132(39)
H9 H 0.7467(51) 0.0744(32) 0.0243(42)
C21 C 0.5935(6) 0.1402(7) 0.9570(5)
C22 C 0.6125(7) 0.1388(6) 0.8671(5)
C23 C 0.4916(9) 0.1354(8) 0.7959(6)
H10 H 0.5491(63) 0.2077(49) 0.9631(55)
H11 H 0.5553(67) 0.0691(45) 0.9657(55)
H12 H 0.6531(67) 0.0705(51) 0.8566(55)
H13 H 0.6428(70) 0.2134(40) 0.8557(54)
H14 H 0.4519(68) 0.0652(48) 0.8046(55)
H15 H 0.4537(67) 0.2105(40) 0.7942(56)
N2 N 0.2916(4) 0.1477(5) 0.4725(3)
C24 C 0.4065(6) 0.1402(7) 0.5430(5)
C25 C 0.3875(7) 0.1388(6) 0.6329(5)
C26 C 0.5084(9) 0.1354(8) 0.7041(6)
H16 H 0.3030(55) 0.1485(62) 0.4182(18)
H17 H 0.2541(50) 0.2160(36) 0.4868(39)
H18 H 0.2533(51) 0.0744(32) 0.4757(42)
H19 H 0.4509(63) 0.2077(49) 0.5369(55)
H20 H 0.4447(67) 0.0691(45) 0.5343(55)
H21 H 0.3469(67) 0.0705(51) 0.6434(55)
H22 H 0.3572(70) 0.2134(40) 0.6443(54)
H23 H 0.5481(68) 0.0652(48) 0.6954(55)
H24 H 0.5463(67) 0.2105(40) 0.7058(56)
C21_2 C 0.4065(6) 0.8598(7) 0.0430(5)
C22_2 C 0.3875(7) 0.8612(6) 0.1329(5)
C23_2 C 0.5084(9) 0.8646(8) 0.2041(6)
H10_2 H 0.4509(63) 0.7923(49) 0.0369(55)
H11_2 H 0.4447(67) 0.9309(45) 0.0343(55)
H12_2 H 0.3469(67) 0.9295(51) 0.1434(55)
H13_2 H 0.3572(70) 0.7866(40) 0.1443(54)
H14_2 H 0.5481(68) 0.9348(48) 0.1954(55)
H15_2 H 0.5463(67) 0.7895(40) 0.2058(56)
N2_2 N 0.7084(4) 0.8523(5) 0.5275(3)
C24_2 C 0.5935(6) 0.8598(7) 0.4570(5)
C25_2 C 0.6125(7) 0.8612(6) 0.3671(5)
C26_2 C 0.4916(9) 0.8646(8) 0.2959(6)
H16_2 H 0.6970(55) 0.8515(62) 0.5818(18)
H17_2 H 0.7459(50) 0.7840(36) 0.5132(39)
H18_2 H 0.7467(51) 0.9256(32) 0.5243(42)
H19_2 H 0.5491(63) 0.7923(49) 0.4631(55)
H20_2 H 0.5553(67) 0.9309(45) 0.4657(55)
H21_2 H 0.6531(67) 0.9295(51) 0.3566(55)
H22_2 H 0.6428(70) 0.7866(40) 0.3557(54)
H23_2 H 0.4519(68) 0.9348(48) 0.3046(55)
H24_2 H 0.4537(67) 0.7895(40) 0.2942(56)
N1_2 N 0.2916(4) 0.8523(5) 0.9725(3)
H7_2 H 0.3030(55) 0.8515(62) 0.9182(18)
H8_2 H 0.2541(50) 0.7840(36) 0.9868(39)
H9_2 H 0.2533(51) 0.9256(32) 0.9757(42)
loop_
_geom_bond_atom_site_label_1
_geom_bond_atom_site_label_2
_geom_bond_site_symmetry_1
_geom_bond_site_symmetry_2
Cu1 O5 1_555 1_555
Cu2 O1 1_555 1_555
C4 C1 1_555 1_555
O1 C4 1_555 1_555
O5 Cu2 1_555 1_555
C7 C8 1_555 1_555
C8 H3 1_555 1_555
C10 C7 1_555 1_555
O8 Cu2 1_555 1_555
O9 Cu1 1_555 1_555
C16 C8 1_555 1_555
C19 C16 1_555 1_555
O14 C19 1_555 1_555
O15 C19 1_555 1_555
Cu6 O11 1_555 1_555
Cu14 O14 1_555 1_555
O21 Cu2 1_555 1_555
O23 Cu1 1_555 1_555
O25 Cu2 1_555 1_555
C10 O8 1_555 1_555
C10 O9 1_555 1_555
C9 C6 1_555 1_555
O6 C9 1_555 1_555
O7 C9 1_555 1_555
C18 C6 1_555 1_555
C20 C17 1_555 1_555
O16 C20 1_555 1_555
O17 C20 1_555 1_555
H5 C18 1_555 1_555
Cu7 O17 1_555 1_555
Cu10 O6 1_555 1_555
Cu11 O16 1_555 1_555
C17 C18 1_555 1_555
C2 C3 1_555 1_555
C3 H1 1_555 1_555
C5 C2 1_555 1_555
O21 C5 1_555 1_555
O23 C5 1_555 1_555
C14 C11 1_555 1_555
O10 C14 1_555 1_555
Cu14 O10 1_555 1_555
Cu11 O18 1_555 1_555
O19 Cu11 1_555 1_555
O22 Cu11 1_555 1_555
O24 Cu7 1_555 1_555
O26 Cu11 1_555 1_555
Cu7 O18 1_555 1_555
C15 C12 1_555 1_555
O12 C15 1_555 1_555
O13 C15 1_555 1_555
H4 C13 1_555 1_555
Cu8 O13 1_555 1_555
Cu14 O12 1_555 1_555
C12 C13 1_555 1_555
Cu10 O18_2 1_555 1_555
O19_2 Cu10 1_555 1_555
O22_2 Cu10 1_555 1_555
O24_2 Cu6 1_555 1_555
O27 Cu10 1_555 1_555
O28 Cu6 1_555 1_555
Cu6 O18_2 1_555 1_555
Cu8 O5_2 1_555 1_555
O5_2 Cu14 1_555 1_555
C6_2 C7_2 1_555 1_555
C7_2 C8_2 1_555 1_555
C8_2 H3_2 1_555 1_555
C9_2 C6_2 1_555 1_555
C10_2 C7_2 1_555 1_555
O26 C9_2 1_555 1_555
O7_2 C9_2 1_555 1_555
O8_2 Cu14 1_555 1_555
O9_2 Cu8 1_555 1_555
C16_2 C8_2 1_555 1_555
C17_2 C16_2 1_555 1_555
C18_2 C6_2 1_555 1_555
C19_2 C16_2 1_555 1_555
C20_2 C17_2 1_555 1_555
O25 C19_2 1_555 1_555
O15_2 C19_2 1_555 1_555
O27 C20_2 1_555 1_555
O28 C20_2 1_555 1_555
H5_2 C18_2 1_555 1_555
O20_2 Cu8 1_555 1_555
C10_2 O8_2 1_555 1_555
C10_2 O9_2 1_555 1_555
C17_2 C18_2 1_555 1_555
C15_2 C12_2 1_555 1_555
O22_2 C15_2 1_555 1_555
O24_2 C15_2 1_555 1_555
H4_2 C13_2 1_555 1_555
C12_2 C13_2 1_555 1_555
C14_2 C11_2 1_555 1_555
O19_2 C14_2 1_555 1_555
C2_2 C3_2 1_555 1_555
C3_2 H1_2 1_555 1_555
C5_2 C2_2 1_555 1_555
O22 C5_2 1_555 1_555
O24 C5_2 1_555 1_555
C4_2 C1_2 1_555 1_555
O19 C4_2 1_555 1_555
H7 N1 1_555 1_555
H8 N1 1_555 1_555
H9 N1 1_555 1_555
C21 C22 1_555 1_555
C22 C23 1_555 1_555
C23 H14 1_555 1_555
H10 C21 1_555 1_555
H11 C21 1_555 1_555
H12 C22 1_555 1_555
H13 C22 1_555 1_555
H15 C23 1_555 1_555
N2 C24 1_555 1_555
C24 C25 1_555 1_555
C25 C26 1_555 1_555
C26 C23 1_555 1_555
H16 N2 1_555 1_555
H17 N2 1_555 1_555
H18 N2 1_555 1_555
H19 C24 1_555 1_555
H20 C24 1_555 1_555
H21 C25 1_555 1_555
H22 C25 1_555 1_555
H23 C26 1_555 1_555
H24 C26 1_555 1_555
C21_2 C22_2 1_555 1_555
C22_2 C23_2 1_555 1_555
C23_2 H14_2 1_555 1_555
H10_2 C21_2 1_555 1_555
H11_2 C21_2 1_555 1_555
H12_2 C22_2 1_555 1_555
H13_2 C22_2 1_555 1_555
H15_2 C23_2 1_555 1_555
N2_2 C24_2 1_555 1_555
C24_2 C25_2 1_555 1_555
C25_2 C26_2 1_555 1_555
C26_2 C23_2 1_555 1_555
H16_2 N2_2 1_555 1_555
H17_2 N2_2 1_555 1_555
H18_2 N2_2 1_555 1_555
H19_2 C24_2 1_555 1_555
H20_2 C24_2 1_555 1_555
H21_2 C25_2 1_555 1_555
H22_2 C25_2 1_555 1_555
H23_2 C26_2 1_555 1_555
H24_2 C26_2 1_555 1_555
H7_2 N1_2 1_555 1_555
H8_2 N1_2 1_555 1_555
H9_2 N1_2 1_555 1_555

#END
