
###############################################################################
#
# This file contains modified crystal structure data generated from the
# MOF subset of the Cambridge Structural Database (CSD) v543 
# hosted by the Cambridge Crystallographic Data Centre (CCDC).
#
# This work is licensed under the Creative Commons
# Attribution-NonCommercial-ShareAlike 4.0 International License.
# To view a copy of this license, visit
# http://creativecommons.org/licenses/by-nc-sa/4.0/
# or send a letter to
# Creative Commons, PO Box 1866, Mountain View, CA 94042, USA.
#
# CIF created using the CSD Python API on 29 September 2022
# The structure has been converted into the P1 space group
# The structure has a 3D framework
# The original CSD entry VITYUU is in the triclinic crystal system
# The framework has been calculated to contain at least 10.0% void space
# The void calculation uses a probe of radius 1.32A, grid spacing 0.4
# The framework is charged, counterions have been retained in the structure
# H atom positions have been added when not included in the experimental data
# Generated hydrogen atom positions removed from atoms on special positions
#
###############################################################################

data_VITYUU
_chemical_formula_moiety         '(C48 H26 Eu5 O25 2-)n'
_symmetry_cell_setting           triclinic
_symmetry_space_group_name_H-M   'P 1'
_symmetry_Int_Tables_number      1
_space_group_name_Hall           'P 1'
loop_
_symmetry_equiv_pos_site_id
_symmetry_equiv_pos_as_xyz
1 x,y,z
_cell_length_a                   11.660(2)
_cell_length_b                   12.245(2)
_cell_length_c                   13.568(3)
_cell_angle_alpha                64.88(3)
_cell_angle_beta                 68.25(3)
_cell_angle_gamma                88.14(3)
_cell_volume                     1611.06
loop_
_atom_site_label
_atom_site_type_symbol
_atom_site_fract_x
_atom_site_fract_y
_atom_site_fract_z
Eu6 Eu 0.0000 0.0000 0.0000
Eu10 Eu 0.07117(2) 0.17060(2) 0.17231(2)
Eu6_2 Eu -0.0000 -0.0000 1.0000
Eu6_3 Eu 0.0000 1.0000 0.0000
Eu6_4 Eu 0.0000 1.0000 1.0000
O3 O 0.9343(3) 0.1573(3) 0.0559(3)
O7 O 0.9767(3) 0.3313(3) 0.0549(3)
C12 C 0.9211(4) 0.2686(4) 0.0292(4)
Eu6_5 Eu 1.0000 0.0000 0.0000
O32 O 0.0593(4) 0.1287(3) 0.3714(3)
O34 O 0.2340(3) 0.0555(3) 0.2083(3)
O40 O 0.2372(3) 0.3236(3) 0.0976(3)
O1 O 0.2100(3) 0.1936(3) 0.9799(3)
O8 O 0.7628(3) 0.6764(3) 0.9024(3)
O10 O 0.2148(3) 0.0465(3) 0.9249(4)
O11 O 0.6434(4) 0.6723(4) 0.8086(4)
C3 C 0.7108(5) 0.6230(5) 0.8655(5)
C4 C 0.2677(4) 0.1264(5) 0.9356(4)
C5 C 0.4081(4) 0.1387(4) 0.8933(4)
C6 C 0.4671(4) 0.0517(4) 0.8580(4)
C7 C 0.5917(4) 0.0495(4) 0.8332(4)
C8 C 0.6600(4) 0.1331(4) 0.8418(4)
H2 H 0.7452 0.1320 0.8223
C9 C 0.6039(4) 0.2193(4) 0.8791(4)
C10 C 0.4754(4) 0.2212(4) 0.9033(4)
H3 H 0.4357 0.2788 0.9262
C19 C 0.8162(5) 0.4438(5) 0.9401(5)
H7 H 0.8634 0.4924 0.9528
C20 C 0.8331(5) 0.3231(5) 0.9698(4)
C21 C 0.7635(4) 0.2511(5) 0.9488(4)
H8 H 0.7746 0.1700 0.9685
C22 C 0.6770(4) 0.2996(4) 0.8984(4)
C23 C 0.6590(5) 0.4215(5) 0.8712(5)
H9 H 0.6003 0.4541 0.8398
C24 C 0.7294(5) 0.4932(4) 0.8916(5)
Eu6_6 Eu 1.0000 -0.0000 1.0000
Eu14 Eu 0.92883(2) 0.82940(2) 0.82769(2)
O41 O 0.0410(4) 0.1889(3) 0.8196(3)
O2 O 0.0281(3) 0.9701(3) 0.1863(3)
O6 O 0.0013(4) 0.6996(3) 0.7234(3)
C25 C 0.0068(4) 0.1440(4) 0.7663(4)
C26 C 0.0062(4) 0.2264(4) 0.6482(4)
C27 C 0.0234(5) 0.2293(5) 0.3636(4)
C28 C 0.0098(5) 0.1844(5) 0.5670(4)
H10 H 0.0107 0.1023 0.5850
C29 C 0.0039(5) 0.3498(5) 0.6202(4)
H11 H 0.0032 0.3760 0.6755
C30 C 0.0027(5) 0.4348(5) 0.5135(5)
C31 C 0.0083(5) 0.3912(5) 0.4321(5)
H12 H 0.0095 0.4457 0.3586
C32 C 0.0120(5) 0.2692(5) 0.4576(4)
Eu6_7 Eu 1.0000 1.0000 0.0000
O5 O 0.7660(3) 0.9445(3) 0.7917(3)
H1 H 0.4215 0.9959 0.8516
C13 C 0.6533(5) 0.9481(4) 0.8087(4)
O13 O 0.5813(3) 0.8696(3) 0.8089(4)
Eu6_8 Eu 1.0000 1.0000 1.0000
O30 O 0.0657(3) 0.8427(3) 0.9441(3)
O25 O 0.1443(4) 0.9040(5) 0.6954(4)
O38 O 0.0233(3) 0.6687(3) 0.9451(3)
O12 O 0.8557(4) 0.0960(5) 0.3046(4)
O36 O 0.9987(4) 0.3004(3) 0.2766(3)
O27 O 0.9719(3) 0.0299(3) 0.8137(3)
H13 H 0.5785 0.0041 0.1484
C42 C 0.3467(5) 0.0519(4) 0.1913(4)
O26 O 0.4187(3) 0.1304(3) 0.1911(4)
O4 O 0.9407(4) 0.8713(3) 0.6286(3)
O9 O 0.9590(4) 0.8111(3) 0.1804(3)
C1 C 0.9932(4) 0.8560(4) 0.2337(4)
C2 C 0.9938(4) 0.7736(4) 0.3518(4)
C11 C 0.9766(5) 0.7707(5) 0.6364(4)
C14 C 0.9902(5) 0.8156(5) 0.4330(4)
H4 H 0.9893 0.8977 0.4150
C15 C 0.9961(5) 0.6502(5) 0.3798(4)
H5 H 0.9968 0.6240 0.3245
C16 C 0.9973(5) 0.5652(5) 0.4865(5)
C17 C 0.9917(5) 0.6088(5) 0.5679(5)
H6 H 0.9905 0.5543 0.6414
C18 C 0.9880(5) 0.7308(5) 0.5424(4)
O42 O 0.7852(3) 0.9535(3) 0.0751(4)
O18 O 0.7900(3) 0.8064(3) 0.0201(3)
O24 O 0.3566(4) 0.3277(4) 0.1914(4)
C33 C 0.2892(5) 0.3770(5) 0.1345(5)
C34 C 0.7323(4) 0.8736(5) 0.0644(4)
C35 C 0.5919(4) 0.8613(4) 0.1067(4)
C36 C 0.5329(4) 0.9483(4) 0.1420(4)
C37 C 0.4083(4) 0.9505(4) 0.1668(4)
C38 C 0.3400(4) 0.8669(4) 0.1582(4)
H14 H 0.2548 0.8680 0.1777
C39 C 0.3961(4) 0.7807(4) 0.1209(4)
C40 C 0.5246(4) 0.7788(4) 0.0967(4)
H15 H 0.5643 0.7212 0.0738
C43 C 0.1838(5) 0.5562(5) 0.0599(5)
H16 H 0.1366 0.5076 0.0472
C44 C 0.1669(5) 0.6769(5) 0.0302(4)
C45 C 0.2365(4) 0.7489(5) 0.0512(4)
H17 H 0.2254 0.8300 0.0315
C46 C 0.3230(4) 0.7004(4) 0.1016(4)
C47 C 0.3410(5) 0.5785(5) 0.1288(5)
H18 H 0.3997 0.5459 0.1602
C48 C 0.2706(5) 0.5068(4) 0.1084(5)
C41 C 0.0789(4) 0.7314(4) 0.9708(4)
loop_
_geom_bond_atom_site_label_1
_geom_bond_atom_site_label_2
_geom_bond_site_symmetry_1
_geom_bond_site_symmetry_2
O3 C12 1_555 1_555
O7 C12 1_555 1_555
Eu6_5 O3 1_555 1_555
O32 Eu10 1_555 1_555
O34 Eu10 1_555 1_555
O40 Eu10 1_555 1_555
O1 C4 1_555 1_555
O8 C3 1_555 1_555
O10 Eu6_2 1_555 1_555
O11 C3 1_555 1_555
C3 C24 1_555 1_555
C4 O10 1_555 1_555
C5 C4 1_555 1_555
C6 C5 1_555 1_555
C7 C6 1_555 1_555
C8 C7 1_555 1_555
H2 C8 1_555 1_555
C9 C8 1_555 1_555
C10 C5 1_555 1_555
H3 C10 1_555 1_555
C19 H7 1_555 1_555
C20 C19 1_555 1_555
C21 C20 1_555 1_555
H8 C21 1_555 1_555
C22 C9 1_555 1_555
C23 C22 1_555 1_555
H9 C23 1_555 1_555
C24 C19 1_555 1_555
Eu14 O8 1_555 1_555
O41 Eu6_2 1_555 1_555
C9 C10 1_555 1_555
C21 C22 1_555 1_555
C23 C24 1_555 1_555
Eu6_3 O2 1_555 1_555
O32 C27 1_555 1_555
O41 C25 1_555 1_555
C25 C26 1_555 1_555
C26 C28 1_555 1_555
C27 C32 1_555 1_555
C28 H10 1_555 1_555
C29 C26 1_555 1_555
H11 C29 1_555 1_555
C31 C30 1_555 1_555
H12 C31 1_555 1_555
C32 C28 1_555 1_555
C29 C30 1_555 1_555
C31 C32 1_555 1_555
O5 C13 1_555 1_555
O13 C13 1_555 1_555
Eu14 O5 1_555 1_555
O30 Eu6_4 1_555 1_555
O27 Eu6_6 1_555 1_555
O34 C42 1_555 1_555
O26 C42 1_555 1_555
O4 C11 1_555 1_555
O9 Eu6_7 1_555 1_555
C2 C1 1_555 1_555
C11 C18 1_555 1_555
C14 C2 1_555 1_555
H4 C14 1_555 1_555
C15 C2 1_555 1_555
H5 C15 1_555 1_555
C16 C15 1_555 1_555
C17 C16 1_555 1_555
H6 C17 1_555 1_555
C18 C14 1_555 1_555
Eu14 O4 1_555 1_555
O42 Eu6_7 1_555 1_555
O9 C1 1_555 1_555
C17 C18 1_555 1_555
O40 C33 1_555 1_555
O42 C34 1_555 1_555
O24 C33 1_555 1_555
C33 C48 1_555 1_555
C34 O18 1_555 1_555
C35 C34 1_555 1_555
C36 C35 1_555 1_555
C37 C36 1_555 1_555
C38 C37 1_555 1_555
H14 C38 1_555 1_555
C39 C38 1_555 1_555
C40 C35 1_555 1_555
H15 C40 1_555 1_555
C43 H16 1_555 1_555
C44 C43 1_555 1_555
C45 C44 1_555 1_555
H17 C45 1_555 1_555
C46 C39 1_555 1_555
C47 C46 1_555 1_555
H18 C47 1_555 1_555
C48 C43 1_555 1_555
C39 C40 1_555 1_555
C45 C46 1_555 1_555
C47 C48 1_555 1_555
O30 C41 1_555 1_555
O38 C41 1_555 1_555

#END
