
###############################################################################
#
# This file contains modified crystal structure data generated from the
# MOF subset of the Cambridge Structural Database (CSD) v543 
# hosted by the Cambridge Crystallographic Data Centre (CCDC).
#
# This work is licensed under the Creative Commons
# Attribution-NonCommercial-ShareAlike 4.0 International License.
# To view a copy of this license, visit
# http://creativecommons.org/licenses/by-nc-sa/4.0/
# or send a letter to
# Creative Commons, PO Box 1866, Mountain View, CA 94042, USA.
#
# CIF created using the CSD Python API on 29 September 2022
# The structure has been converted into the P1 space group
# The structure has a 3D framework
# The original CSD entry VITYOO is in the monoclinic crystal system
# The framework has been calculated to contain at least 10.0% void space
# The void calculation uses a probe of radius 1.32A, grid spacing 0.4
# The framework is charged, counterions have been retained in the structure
# H atom positions have been added when not included in the experimental data
# Generated hydrogen atom positions removed from atoms on special positions
#
###############################################################################

data_VITYOO
_chemical_formula_moiety         '(C128 H112 Nd8 O80 8-)n'
_symmetry_cell_setting           triclinic
_symmetry_space_group_name_H-M   'P 1'
_symmetry_Int_Tables_number      1
_space_group_name_Hall           'P 1'
loop_
_symmetry_equiv_pos_site_id
_symmetry_equiv_pos_as_xyz
1 x,y,z
_cell_length_a                   12.143(2)
_cell_length_b                   24.875(5)
_cell_length_c                   19.669(4)
_cell_angle_alpha                90
_cell_angle_beta                 102.90(3)
_cell_angle_gamma                90
_cell_volume                     5791.21
loop_
_atom_site_label
_atom_site_type_symbol
_atom_site_fract_x
_atom_site_fract_y
_atom_site_fract_z
O1 O 0.0597(6) 0.3899(3) 0.1368(4)
O7 O 0.0917(4) 0.5013(2) 0.0703(2)
C9 C 0.2730(13) 0.2818(6) 0.0115(10)
C10 C 0.4158(10) 0.3562(6) 0.0237(11)
C13 C 0.3911(13) 0.3019(6) 0.0311(9)
C14 C 0.5375(13) 0.3738(6) 0.0325(10)
H5 H 0.4494 0.2780 0.0486
O9 O 0.5349(11) 0.4206(6) 0.0375(6)
O10 O 0.6105(7) 0.3411(4) 0.0463(7)
C19 C 0.3173(11) 0.1828(4) 0.0136(10)
C23 C 0.2937(11) 0.1292(4) 0.0213(11)
H7 H 0.3914 0.1953 0.0247
Nd4 Nd 0.07944(2) 0.449539(14) 0.444768(16)
C27 C 0.3877(7) 0.0880(3) 0.0355(5)
C28 C 0.1754(9) 0.1102(4) 0.0024(7)
O15 O 0.4750(4) 0.1007(2) 0.0162(3)
O16 O 0.3640(5) 0.0435(2) 0.0571(3)
H11 H 0.1612 0.0739 0.0082
O2 O 0.0250(4) 0.3993(2) 0.9838(3)
C1 C 0.1123(7) 0.4120(3) 0.9645(5)
C3 C 0.2063(11) 0.3708(4) 0.9787(11)
C5 C 0.1827(11) 0.3172(4) 0.9864(10)
C6 C 0.3246(9) 0.3898(4) 0.9976(7)
H1 H 0.1086 0.3047 0.9753
H2 H 0.3388 0.4261 0.9918
Nd2 Nd 0.07944(2) 0.550461(14) 0.944768(16)
O12 O 0.1360(5) 0.4565(2) 0.9429(3)
C17 C 0.2270(13) 0.2182(6) 0.9885(10)
C20 C 0.1089(13) 0.1981(6) 0.9689(9)
C24 C 0.0842(10) 0.1438(6) 0.9763(11)
H8 H 0.0506 0.2220 0.9514
Nd5 Nd 0.57944(2) 0.050461(14) 0.944768(16)
Nd6 Nd 0.42056(2) 0.949539(14) 0.055232(16)
Nd1 Nd 0.92056(2) 0.449539(14) 0.055232(16)
O3 O 0.7418(4) 0.4532(2) 0.1030(3)
O4 O 0.9028(4) 0.4686(3) 0.1757(3)
O5 O 0.8382(5) 0.3588(3) 0.0485(4)
O8 O 0.8640(5) 0.5435(2) 0.0571(3)
C2 C 0.7972(5) 0.4673(3) 0.1621(3)
C4 C 0.7364(5) 0.4818(3) 0.2185(3)
C7 C 0.6193(5) 0.4821(3) 0.2052(3)
C8 C 0.7994(5) 0.4931(3) 0.2853(3)
H3 H 0.5779 0.4732 0.1609
C11 C 0.5623(5) 0.4955(3) 0.2574(3)
H4 H 0.8779 0.4919 0.2948
C12 C 0.7438(5) 0.5061(3) 0.3375(3)
C15 C 0.6265(5) 0.5083(3) 0.3233(3)
C16 C 0.8087(5) 0.5186(3) 0.4101(3)
H6 H 0.5904 0.5184 0.3583
C18 C 0.4377(5) 0.4955(3) 0.2426(3)
C21 C 0.3807(5) 0.4821(3) 0.2948(3)
C22 C 0.3735(5) 0.5083(3) 0.1767(3)
O13 O 0.7631(4) 0.5457(2) 0.4496(3)
O14 O 0.9083(4) 0.5013(2) 0.4297(2)
C25 C 0.2636(5) 0.4818(3) 0.2815(3)
H9 H 0.4221 0.4732 0.3391
H10 H 0.4096 0.5184 0.1417
C26 C 0.2562(5) 0.5061(3) 0.1625(3)
Nd3 Nd 0.92056(2) 0.550461(14) 0.555232(16)
C30 C 0.2028(5) 0.4673(3) 0.3379(3)
C31 C 0.2006(5) 0.4931(3) 0.2147(3)
C32 C 0.1913(5) 0.5186(3) 0.0899(3)
O19 O 0.2582(4) 0.4532(2) 0.3970(3)
O20 O 0.0972(4) 0.4686(3) 0.3243(3)
H12 H 0.1221 0.4919 0.2052
O21 O 0.2369(4) 0.5457(2) 0.0504(3)
O24 O 0.1618(5) 0.3588(3) 0.4515(4)
O25 O 0.2369(4) 0.4543(2) 0.5504(3)
O27 O 0.0917(4) 0.4987(2) 0.5703(2)
O29 O 0.1360(5) 0.5435(2) 0.4429(3)
O6 O 0.7631(4) 0.4543(2) 0.9496(3)
O11 O 0.9083(4) 0.4987(2) 0.9297(2)
C29 C 0.9625(13) 0.1262(6) 0.9675(10)
O17 O 0.9651(11) 0.0794(6) 0.9625(6)
O18 O 0.8895(7) 0.1589(4) 0.9537(7)
O23 O 0.9403(6) 0.3899(3) 0.3632(4)
O28 O 0.9750(4) 0.3993(2) 0.5162(3)
C29_2 C 0.0375(13) 0.1262(6) 0.5325(10)
O17_2 O 0.0349(11) 0.0794(6) 0.5375(6)
O18_2 O 0.1105(7) 0.1589(4) 0.5463(7)
C1_2 C 0.8877(7) 0.4120(3) 0.5355(5)
C3_2 C 0.7937(11) 0.3708(4) 0.5213(11)
C5_2 C 0.8173(11) 0.3172(4) 0.5136(10)
C6_2 C 0.6754(9) 0.3898(4) 0.5024(7)
C9_2 C 0.7270(13) 0.2818(6) 0.4885(10)
H1_2 H 0.8914 0.3047 0.5247
C10_2 C 0.5842(10) 0.3562(6) 0.4763(11)
H2_2 H 0.6612 0.4261 0.5082
C13_2 C 0.6089(13) 0.3019(6) 0.4689(9)
C14_2 C 0.4625(13) 0.3738(6) 0.4675(10)
H5_2 H 0.5506 0.2780 0.4514
O9_2 O 0.4651(11) 0.4206(6) 0.4625(6)
O10_2 O 0.3895(7) 0.3411(4) 0.4537(7)
O12_2 O 0.8640(5) 0.4565(2) 0.5571(3)
C17_2 C 0.7730(13) 0.2182(6) 0.5115(10)
C19_2 C 0.6827(11) 0.1828(4) 0.4864(10)
C20_2 C 0.8911(13) 0.1981(6) 0.5311(9)
C23_2 C 0.7063(11) 0.1292(4) 0.4787(11)
H7_2 H 0.6086 0.1953 0.4753
C24_2 C 0.9158(10) 0.1438(6) 0.5237(11)
H8_2 H 0.9494 0.2220 0.5486
C27_2 C 0.6123(7) 0.0880(3) 0.4645(5)
C28_2 C 0.8246(9) 0.1102(4) 0.4976(7)
O15_2 O 0.5250(4) 0.1007(2) 0.4838(3)
O16_2 O 0.6360(5) 0.0435(2) 0.4429(3)
H11_2 H 0.8388 0.0739 0.4918
Nd5_2 Nd 0.42056(2) 0.050461(14) 0.555232(16)
Nd6_2 Nd 0.57944(2) 0.949539(14) 0.444768(16)
C14_3 C 0.0375(13) 0.8738(6) 0.0325(10)
O9_3 O 0.0349(11) 0.9206(6) 0.0375(6)
O10_3 O 0.1105(7) 0.8411(4) 0.0463(7)
O7_2 O 0.5917(4) 0.0013(2) 0.0703(2)
C12_2 C 0.2438(5) 0.0061(3) 0.3375(3)
C15_2 C 0.1265(5) 0.0083(3) 0.3233(3)
C16_2 C 0.3087(5) 0.0186(3) 0.4101(3)
H6_2 H 0.0904 0.0184 0.3583
O13_2 O 0.2631(4) 0.0457(2) 0.4496(3)
O14_2 O 0.4083(4) 0.0013(2) 0.4297(2)
O1_2 O 0.5597(6) 0.8899(3) 0.1368(4)
O3_2 O 0.2418(4) 0.9532(2) 0.1030(3)
O4_2 O 0.4028(4) 0.9686(3) 0.1757(3)
O5_2 O 0.3382(5) 0.8588(3) 0.0485(4)
C2_2 C 0.2972(5) 0.9673(3) 0.1621(3)
C4_2 C 0.2364(5) 0.9818(3) 0.2185(3)
C7_2 C 0.1193(5) 0.9821(3) 0.2052(3)
C8_2 C 0.2994(5) 0.9931(3) 0.2853(3)
C9_3 C 0.7730(13) 0.7818(6) 0.0115(10)
C10_3 C 0.9158(10) 0.8562(6) 0.0237(11)
H3_2 H 0.0779 0.9732 0.1609
C11_2 C 0.0623(5) 0.9955(3) 0.2574(3)
H4_2 H 0.3779 0.9919 0.2948
C13_3 C 0.8911(13) 0.8019(6) 0.0311(9)
H5_3 H 0.9494 0.7780 0.0486
C19_3 C 0.8173(11) 0.6828(4) 0.0136(10)
C23_3 C 0.7937(11) 0.6292(4) 0.0213(11)
H7_3 H 0.8914 0.6953 0.0247
C27_3 C 0.8877(7) 0.5880(3) 0.0355(5)
C28_3 C 0.6754(9) 0.6102(4) 0.0024(7)
O15_3 O 0.9750(4) 0.6007(2) 0.0162(3)
H11_3 H 0.6612 0.5739 0.0082
O2_2 O 0.5250(4) 0.8993(2) 0.9838(3)
O6_2 O 0.2631(4) 0.9543(2) 0.9496(3)
C1_3 C 0.6123(7) 0.9120(3) 0.9645(5)
C3_3 C 0.7063(11) 0.8708(4) 0.9787(11)
C5_3 C 0.6827(11) 0.8172(4) 0.9864(10)
C6_3 C 0.8246(9) 0.8898(4) 0.9976(7)
H1_3 H 0.6086 0.8047 0.9753
H2_3 H 0.8388 0.9261 0.9918
O11_2 O 0.4083(4) 0.9987(2) 0.9297(2)
O12_3 O 0.6360(5) 0.9565(2) 0.9429(3)
C17_3 C 0.7270(13) 0.7182(6) 0.9885(10)
C20_3 C 0.6089(13) 0.6981(6) 0.9689(9)
C24_3 C 0.5842(10) 0.6438(6) 0.9763(11)
H8_3 H 0.5506 0.7220 0.9514
C29_3 C 0.4625(13) 0.6262(6) 0.9675(10)
O17_3 O 0.4651(11) 0.5794(6) 0.9625(6)
O18_3 O 0.3895(7) 0.6589(4) 0.9537(7)
C22_2 C 0.8735(5) 0.0083(3) 0.1767(3)
H10_2 H 0.9096 0.0184 0.1417
C26_2 C 0.7562(5) 0.0061(3) 0.1625(3)
C32_2 C 0.6913(5) 0.0186(3) 0.0899(3)
O21_2 O 0.7369(4) 0.0457(2) 0.0504(3)
C18_2 C 0.9377(5) 0.9955(3) 0.2426(3)
C21_2 C 0.8807(5) 0.9821(3) 0.2948(3)
C25_2 C 0.7636(5) 0.9818(3) 0.2815(3)
H9_2 H 0.9221 0.9732 0.3391
C30_2 C 0.7028(5) 0.9673(3) 0.3379(3)
C31_2 C 0.7006(5) 0.9931(3) 0.2147(3)
O19_2 O 0.7582(4) 0.9532(2) 0.3970(3)
O20_2 O 0.5972(4) 0.9686(3) 0.3243(3)
H12_2 H 0.6221 0.9919 0.2052
O23_2 O 0.4403(6) 0.8899(3) 0.3632(4)
O24_2 O 0.6618(5) 0.8588(3) 0.4515(4)
O25_2 O 0.7369(4) 0.9543(2) 0.5504(3)
O27_2 O 0.5917(4) 0.9987(2) 0.5703(2)
O28_2 O 0.4750(4) 0.8993(2) 0.5162(3)
C1_4 C 0.3877(7) 0.9120(3) 0.5355(5)
C3_4 C 0.2937(11) 0.8708(4) 0.5213(11)
C5_4 C 0.3173(11) 0.8172(4) 0.5136(10)
C6_4 C 0.1754(9) 0.8898(4) 0.5024(7)
C9_4 C 0.2270(13) 0.7818(6) 0.4885(10)
H1_4 H 0.3914 0.8047 0.5247
C10_4 C 0.0842(10) 0.8562(6) 0.4763(11)
H2_4 H 0.1612 0.9261 0.5082
C13_4 C 0.1089(13) 0.8019(6) 0.4689(9)
H5_4 H 0.0506 0.7780 0.4514
O12_4 O 0.3640(5) 0.9565(2) 0.5571(3)
C17_4 C 0.2730(13) 0.7182(6) 0.5115(10)
C19_4 C 0.1827(11) 0.6828(4) 0.4864(10)
C20_4 C 0.3911(13) 0.6981(6) 0.5311(9)
C23_4 C 0.2063(11) 0.6292(4) 0.4787(11)
H7_4 H 0.1086 0.6953 0.4753
C24_4 C 0.4158(10) 0.6438(6) 0.5237(11)
H8_4 H 0.4494 0.7220 0.5486
C27_4 C 0.1123(7) 0.5880(3) 0.4645(5)
C28_4 C 0.3246(9) 0.6102(4) 0.4976(7)
C29_4 C 0.5375(13) 0.6262(6) 0.5325(10)
O15_4 O 0.0250(4) 0.6007(2) 0.4838(3)
H11_4 H 0.3388 0.5739 0.4918
O17_4 O 0.5349(11) 0.5794(6) 0.5375(6)
O18_4 O 0.6105(7) 0.6589(4) 0.5463(7)
C14_4 C 0.9625(13) 0.8738(6) 0.4675(10)
O9_4 O 0.9651(11) 0.9206(6) 0.4625(6)
O10_4 O 0.8895(7) 0.8411(4) 0.4537(7)
O23_3 O 0.0597(6) 0.6101(3) 0.6368(4)
O3_3 O 0.2582(4) 0.5468(2) 0.8970(3)
O4_3 O 0.0972(4) 0.5314(3) 0.8243(3)
O5_3 O 0.1618(5) 0.6412(3) 0.9515(4)
C2_3 C 0.2028(5) 0.5327(3) 0.8379(3)
C4_3 C 0.2636(5) 0.5182(3) 0.7815(3)
C7_3 C 0.3807(5) 0.5179(3) 0.7948(3)
C8_3 C 0.2006(5) 0.5069(3) 0.7147(3)
H3_3 H 0.4221 0.5268 0.8391
C11_3 C 0.4377(5) 0.5045(3) 0.7426(3)
H4_3 H 0.1221 0.5081 0.7052
C12_3 C 0.2562(5) 0.4939(3) 0.6625(3)
C15_3 C 0.3735(5) 0.4917(3) 0.6767(3)
C16_3 C 0.1913(5) 0.4814(3) 0.5899(3)
H6_3 H 0.4096 0.4816 0.6417
C18_3 C 0.5623(5) 0.5045(3) 0.7574(3)
C21_3 C 0.6193(5) 0.5179(3) 0.7052(3)
C22_3 C 0.6265(5) 0.4917(3) 0.8233(3)
C25_3 C 0.7364(5) 0.5182(3) 0.7185(3)
H9_3 H 0.5779 0.5268 0.6609
H10_3 H 0.5904 0.4816 0.8583
C26_3 C 0.7438(5) 0.4939(3) 0.8375(3)
C30_3 C 0.7972(5) 0.5327(3) 0.6621(3)
C31_3 C 0.7994(5) 0.5069(3) 0.7853(3)
C32_3 C 0.8087(5) 0.4814(3) 0.9101(3)
O19_3 O 0.7418(4) 0.5468(2) 0.6030(3)
O20_3 O 0.9028(4) 0.5314(3) 0.6757(3)
H12_3 H 0.8779 0.5081 0.7948
O24_3 O 0.8382(5) 0.6412(3) 0.5485(4)
O1_3 O 0.9403(6) 0.6101(3) 0.8632(4)
C18_4 C 0.0623(5) 0.0045(3) 0.7574(3)
C21_4 C 0.1193(5) 0.0179(3) 0.7052(3)
C25_4 C 0.2364(5) 0.0182(3) 0.7185(3)
H9_4 H 0.0779 0.0268 0.6609
C30_4 C 0.2972(5) 0.0327(3) 0.6621(3)
C31_4 C 0.2994(5) 0.0069(3) 0.7853(3)
O19_4 O 0.2418(4) 0.0468(2) 0.6030(3)
O20_4 O 0.4028(4) 0.0314(3) 0.6757(3)
H12_4 H 0.3779 0.0081 0.7948
O23_4 O 0.5597(6) 0.1101(3) 0.6368(4)
O24_4 O 0.3382(5) 0.1412(3) 0.5485(4)
C22_4 C 0.1265(5) 0.9917(3) 0.8233(3)
H10_4 H 0.0904 0.9816 0.8583
C26_4 C 0.2438(5) 0.9939(3) 0.8375(3)
C32_4 C 0.3087(5) 0.9814(3) 0.9101(3)
O1_4 O 0.4403(6) 0.1101(3) 0.8632(4)
O3_4 O 0.7582(4) 0.0468(2) 0.8970(3)
O4_4 O 0.5972(4) 0.0314(3) 0.8243(3)
O5_4 O 0.6618(5) 0.1412(3) 0.9515(4)
C2_4 C 0.7028(5) 0.0327(3) 0.8379(3)
C4_4 C 0.7636(5) 0.0182(3) 0.7815(3)
C7_4 C 0.8807(5) 0.0179(3) 0.7948(3)
C8_4 C 0.7006(5) 0.0069(3) 0.7147(3)
H3_4 H 0.9221 0.0268 0.8391
C11_4 C 0.9377(5) 0.0045(3) 0.7426(3)
H4_4 H 0.6221 0.0081 0.7052
C12_4 C 0.7562(5) 0.9939(3) 0.6625(3)
C15_4 C 0.8735(5) 0.9917(3) 0.6767(3)
C16_4 C 0.6913(5) 0.9814(3) 0.5899(3)
H6_4 H 0.9096 0.9816 0.6417
loop_
_geom_bond_atom_site_label_1
_geom_bond_atom_site_label_2
_geom_bond_site_symmetry_1
_geom_bond_site_symmetry_2
C13 C9 1_555 1_555
C14 C10 1_555 1_555
H5 C13 1_555 1_555
O9 C14 1_555 1_555
O10 C14 1_555 1_555
C23 C19 1_555 1_555
H7 C19 1_555 1_555
C27 C23 1_555 1_555
C28 C23 1_555 1_555
O15 C27 1_555 1_555
O16 C27 1_555 1_555
H11 C28 1_555 1_555
C10 C13 1_555 1_555
C1 O2 1_555 1_555
C3 C1 1_555 1_555
C5 C3 1_555 1_555
C6 C3 1_555 1_555
H1 C5 1_555 1_555
H2 C6 1_555 1_555
O12 C1 1_555 1_555
C20 C17 1_555 1_555
C24 C20 1_555 1_555
H8 C20 1_555 1_555
Nd2 O12 1_555 1_555
O3 Nd1 1_555 1_555
O4 Nd1 1_555 1_555
O5 Nd1 1_555 1_555
O8 Nd1 1_555 1_555
C2 O3 1_555 1_555
C4 C2 1_555 1_555
C7 C4 1_555 1_555
C8 C4 1_555 1_555
H3 C7 1_555 1_555
C11 C7 1_555 1_555
H4 C8 1_555 1_555
C12 C8 1_555 1_555
C15 C11 1_555 1_555
C16 C12 1_555 1_555
H6 C15 1_555 1_555
C18 C11 1_555 1_555
C21 C18 1_555 1_555
C22 C18 1_555 1_555
O13 C16 1_555 1_555
O14 C16 1_555 1_555
C25 C21 1_555 1_555
H9 C21 1_555 1_555
H10 C22 1_555 1_555
C26 C22 1_555 1_555
Nd3 O13 1_555 1_555
C30 C25 1_555 1_555
C31 C25 1_555 1_555
C32 C26 1_555 1_555
O19 C30 1_555 1_555
O20 C30 1_555 1_555
H12 C31 1_555 1_555
O21 C32 1_555 1_555
O7 C32 1_555 1_555
Nd4 O19 1_555 1_555
O24 Nd4 1_555 1_555
O25 Nd4 1_555 1_555
O27 Nd4 1_555 1_555
O29 Nd4 1_555 1_555
O4 C2 1_555 1_555
C12 C15 1_555 1_555
O14 Nd3 1_555 1_555
C26 C31 1_555 1_555
O20 Nd4 1_555 1_555
O17 C29 1_555 1_555
O18 C29 1_555 1_555
O17_2 C29_2 1_555 1_555
O18_2 C29_2 1_555 1_555
C1_2 O28 1_555 1_555
C3_2 C1_2 1_555 1_555
C5_2 C3_2 1_555 1_555
C6_2 C3_2 1_555 1_555
C9_2 C5_2 1_555 1_555
H1_2 C5_2 1_555 1_555
C10_2 C6_2 1_555 1_555
H2_2 C6_2 1_555 1_555
C13_2 C9_2 1_555 1_555
C14_2 C10_2 1_555 1_555
H5_2 C13_2 1_555 1_555
O9_2 C14_2 1_555 1_555
O10_2 C14_2 1_555 1_555
O12_2 C1_2 1_555 1_555
C17_2 C9_2 1_555 1_555
C19_2 C17_2 1_555 1_555
C20_2 C17_2 1_555 1_555
C23_2 C19_2 1_555 1_555
H7_2 C19_2 1_555 1_555
C24_2 C20_2 1_555 1_555
H8_2 C20_2 1_555 1_555
C27_2 C23_2 1_555 1_555
C28_2 C23_2 1_555 1_555
O15_2 C27_2 1_555 1_555
O16_2 C27_2 1_555 1_555
H11_2 C28_2 1_555 1_555
Nd5_2 O15_2 1_555 1_555
C10_2 C13_2 1_555 1_555
Nd3 O12_2 1_555 1_555
C24_2 C28_2 1_555 1_555
O9_3 C14_3 1_555 1_555
O10_3 C14_3 1_555 1_555
C16_2 C12_2 1_555 1_555
H6_2 C15_2 1_555 1_555
O13_2 C16_2 1_555 1_555
O14_2 C16_2 1_555 1_555
Nd5_2 O13_2 1_555 1_555
C12_2 C15_2 1_555 1_555
O14_2 Nd5_2 1_555 1_555
Nd6 O1_2 1_555 1_555
O3_2 Nd6 1_555 1_555
O4_2 Nd6 1_555 1_555
O5_2 Nd6 1_555 1_555
C2_2 O3_2 1_555 1_555
C4_2 C2_2 1_555 1_555
C7_2 C4_2 1_555 1_555
C8_2 C4_2 1_555 1_555
H3_2 C7_2 1_555 1_555
C11_2 C7_2 1_555 1_555
H4_2 C8_2 1_555 1_555
C13_3 C9_3 1_555 1_555
H5_3 C13_3 1_555 1_555
C23_3 C19_3 1_555 1_555
H7_3 C19_3 1_555 1_555
C27_3 C23_3 1_555 1_555
C28_3 C23_3 1_555 1_555
O15_3 C27_3 1_555 1_555
O8 C27_3 1_555 1_555
H11_3 C28_3 1_555 1_555
O4_2 C2_2 1_555 1_555
C10_3 C13_3 1_555 1_555
C1_3 O2_2 1_555 1_555
C3_3 C1_3 1_555 1_555
C5_3 C3_3 1_555 1_555
C6_3 C3_3 1_555 1_555
H1_3 C5_3 1_555 1_555
H2_3 C6_3 1_555 1_555
O12_3 C1_3 1_555 1_555
C20_3 C17_3 1_555 1_555
C24_3 C20_3 1_555 1_555
H8_3 C20_3 1_555 1_555
C29_3 C24_3 1_555 1_555
O17_3 C29_3 1_555 1_555
O18_3 C29_3 1_555 1_555
H10_2 C22_2 1_555 1_555
C26_2 C22_2 1_555 1_555
C32_2 C26_2 1_555 1_555
O21_2 C32_2 1_555 1_555
O7_2 C32_2 1_555 1_555
C21_2 C18_2 1_555 1_555
C25_2 C21_2 1_555 1_555
H9_2 C21_2 1_555 1_555
C30_2 C25_2 1_555 1_555
C31_2 C25_2 1_555 1_555
O19_2 C30_2 1_555 1_555
O20_2 C30_2 1_555 1_555
H12_2 C31_2 1_555 1_555
Nd6_2 O19_2 1_555 1_555
O23_2 Nd6_2 1_555 1_555
O24_2 Nd6_2 1_555 1_555
O25_2 Nd6_2 1_555 1_555
O27_2 Nd6_2 1_555 1_555
O28_2 Nd6_2 1_555 1_555
O20_2 Nd6_2 1_555 1_555
C1_4 O28_2 1_555 1_555
C3_4 C1_4 1_555 1_555
C5_4 C3_4 1_555 1_555
C6_4 C3_4 1_555 1_555
C9_4 C5_4 1_555 1_555
H1_4 C5_4 1_555 1_555
C10_4 C6_4 1_555 1_555
H2_4 C6_4 1_555 1_555
C13_4 C9_4 1_555 1_555
H5_4 C13_4 1_555 1_555
O12_4 C1_4 1_555 1_555
C17_4 C9_4 1_555 1_555
C19_4 C17_4 1_555 1_555
C20_4 C17_4 1_555 1_555
C23_4 C19_4 1_555 1_555
H7_4 C19_4 1_555 1_555
C24_4 C20_4 1_555 1_555
H8_4 C20_4 1_555 1_555
C27_4 C23_4 1_555 1_555
C28_4 C23_4 1_555 1_555
C29_4 C24_4 1_555 1_555
O15_4 C27_4 1_555 1_555
O29 C27_4 1_555 1_555
H11_4 C28_4 1_555 1_555
O17_4 C29_4 1_555 1_555
O18_4 C29_4 1_555 1_555
C10_4 C13_4 1_555 1_555
C24_4 C28_4 1_555 1_555
O9_4 C14_4 1_555 1_555
O10_4 C14_4 1_555 1_555
O3_3 Nd2 1_555 1_555
O4_3 Nd2 1_555 1_555
O5_3 Nd2 1_555 1_555
C2_3 O3_3 1_555 1_555
C4_3 C2_3 1_555 1_555
C7_3 C4_3 1_555 1_555
C8_3 C4_3 1_555 1_555
H3_3 C7_3 1_555 1_555
C11_3 C7_3 1_555 1_555
H4_3 C8_3 1_555 1_555
C12_3 C8_3 1_555 1_555
C15_3 C11_3 1_555 1_555
C16_3 C12_3 1_555 1_555
H6_3 C15_3 1_555 1_555
C18_3 C11_3 1_555 1_555
C21_3 C18_3 1_555 1_555
C22_3 C18_3 1_555 1_555
O25 C16_3 1_555 1_555
O27 C16_3 1_555 1_555
C25_3 C21_3 1_555 1_555
H9_3 C21_3 1_555 1_555
H10_3 C22_3 1_555 1_555
C26_3 C22_3 1_555 1_555
C30_3 C25_3 1_555 1_555
C31_3 C25_3 1_555 1_555
C32_3 C26_3 1_555 1_555
O19_3 C30_3 1_555 1_555
O20_3 C30_3 1_555 1_555
H12_3 C31_3 1_555 1_555
O6 C32_3 1_555 1_555
O11 C32_3 1_555 1_555
Nd3 O19_3 1_555 1_555
O24_3 Nd3 1_555 1_555
O4_3 C2_3 1_555 1_555
C12_3 C15_3 1_555 1_555
C26_3 C31_3 1_555 1_555
O20_3 Nd3 1_555 1_555
C21_4 C18_4 1_555 1_555
C25_4 C21_4 1_555 1_555
H9_4 C21_4 1_555 1_555
C30_4 C25_4 1_555 1_555
C31_4 C25_4 1_555 1_555
O19_4 C30_4 1_555 1_555
O20_4 C30_4 1_555 1_555
H12_4 C31_4 1_555 1_555
Nd5_2 O19_4 1_555 1_555
O23_4 Nd5_2 1_555 1_555
O24_4 Nd5_2 1_555 1_555
O20_4 Nd5_2 1_555 1_555
H10_4 C22_4 1_555 1_555
C26_4 C22_4 1_555 1_555
C32_4 C26_4 1_555 1_555
O6_2 C32_4 1_555 1_555
O11_2 C32_4 1_555 1_555
Nd5 O1_4 1_555 1_555
O3_4 Nd5 1_555 1_555
O4_4 Nd5 1_555 1_555
O5_4 Nd5 1_555 1_555
C2_4 O3_4 1_555 1_555
C4_4 C2_4 1_555 1_555
C7_4 C4_4 1_555 1_555
C8_4 C4_4 1_555 1_555
H3_4 C7_4 1_555 1_555
C11_4 C7_4 1_555 1_555
H4_4 C8_4 1_555 1_555
O4_4 C2_4 1_555 1_555
C16_4 C12_4 1_555 1_555
H6_4 C15_4 1_555 1_555
O25_2 C16_4 1_555 1_555
O27_2 C16_4 1_555 1_555
C12_4 C15_4 1_555 1_555

#END
