
###############################################################################
#
# This file contains modified crystal structure data generated from the
# MOF subset of the Cambridge Structural Database (CSD) v543 
# hosted by the Cambridge Crystallographic Data Centre (CCDC).
#
# This work is licensed under the Creative Commons
# Attribution-NonCommercial-ShareAlike 4.0 International License.
# To view a copy of this license, visit
# http://creativecommons.org/licenses/by-nc-sa/4.0/
# or send a letter to
# Creative Commons, PO Box 1866, Mountain View, CA 94042, USA.
#
# CIF created using the CSD Python API on 29 September 2022
# The structure has been converted into the P1 space group
# The structure has a 3D framework
# The original CSD entry VITZAB is in the triclinic crystal system
# The framework has been calculated to contain at least 10.0% void space
# The void calculation uses a probe of radius 1.32A, grid spacing 0.4
# The framework is charged, counterions have been retained in the structure
# H atom positions have been added when not included in the experimental data
# Generated hydrogen atom positions removed from atoms on special positions
#
###############################################################################

data_VITZAB
_chemical_formula_moiety         '(C48 H26 O26 Tb4 4-)n'
_symmetry_cell_setting           triclinic
_symmetry_space_group_name_H-M   'P 1'
_symmetry_Int_Tables_number      1
_space_group_name_Hall           'P 1'
loop_
_symmetry_equiv_pos_site_id
_symmetry_equiv_pos_as_xyz
1 x,y,z
_cell_length_a                   11.609(2)
_cell_length_b                   12.227(2)
_cell_length_c                   13.554(3)
_cell_angle_alpha                65.00(3)
_cell_angle_beta                 69.14(3)
_cell_angle_gamma                87.75(3)
_cell_volume                     1615.24
loop_
_atom_site_label
_atom_site_type_symbol
_atom_site_fract_x
_atom_site_fract_y
_atom_site_fract_z
H2 H 0.0836 0.0045 0.6460
Tb7 Tb 0.5000 0.0000 0.5000
O4 O 0.2908(4) 0.8067(4) 0.5155(4)
O5 O 0.2891(4) 0.9537(4) 0.5705(4)
C2 C 0.2362(5) 0.8728(5) 0.5605(5)
C3 C 0.0264(5) 0.7785(5) 0.5953(5)
H1 H 0.0657 0.7211 0.5717
C4 C 0.0958(5) 0.8626(5) 0.6043(5)
C5 C 0.0375(5) 0.9487(5) 0.6400(5)
Tb7_2 Tb 0.5000 1.0000 0.5000
Tb10 Tb 0.42632(2) 0.83031(2) 0.32690(2)
Tb14 Tb 0.57368(2) 0.16969(2) 0.67310(2)
O6 O 0.7388(4) 0.0552(4) 0.7088(4)
O7 O 0.9202(4) 0.1299(4) 0.6919(5)
C6 C 0.8496(6) 0.0521(5) 0.6926(5)
O10 O 0.4681(5) 0.0297(4) 0.3129(4)
O12 O 0.5339(6) 0.1856(4) 0.3233(4)
C14 C 0.5023(5) 0.1412(5) 0.2667(5)
C17 C 0.5039(6) 0.2257(5) 0.1487(5)
C19 C 0.5078(6) 0.1854(5) 0.0663(5)
H6 H 0.5078 0.1031 0.0844
C21 C 0.5013(7) 0.3476(6) 0.1220(5)
H8 H 0.4995 0.3733 0.1780
C22 C 0.5011(7) 0.4337(5) 0.0143(5)
O14 O 0.4381(5) 0.8701(4) 0.1306(4)
O15 O 0.5014(5) 0.6994(4) 0.2244(4)
C25 C 0.4762(6) 0.7713(5) 0.1363(5)
C31 C 0.4882(7) 0.7314(6) 0.0432(5)
C32 C 0.4913(7) 0.6095(6) 0.0681(6)
H12 H 0.4883 0.5545 0.1420
O34 O 0.7109(4) 0.0463(4) 0.4295(4)
O37 O 0.4363(4) 0.1547(4) 0.5559(4)
O2 O 0.5619(5) 0.1299(4) 0.8694(4)
O3 O 0.4986(5) 0.3006(4) 0.7756(4)
C1 C 0.5238(6) 0.2287(5) 0.8637(5)
C23 C 0.5118(7) 0.2686(6) 0.9568(5)
C24 C 0.5087(7) 0.3905(6) 0.9319(6)
H9 H 0.5117 0.4455 0.8580
O16 O 0.5319(5) 0.9703(4) 0.6871(4)
O17 O 0.4661(6) 0.8144(4) 0.6767(4)
C26 C 0.4977(5) 0.8588(5) 0.7333(5)
C27 C 0.4961(6) 0.7743(5) 0.8513(5)
C28 C 0.4922(6) 0.8146(5) 0.9337(5)
H10 H 0.4922 0.8969 0.9156
C29 C 0.4987(7) 0.6524(6) 0.8780(5)
H11 H 0.5005 0.6267 0.8220
C30 C 0.4989(7) 0.5663(5) 0.9857(5)
O1 O 0.6410(5) 0.9024(6) 0.2005(5)
C7 C 0.9113(5) 0.9511(5) 0.6665(5)
C8 C 0.8427(5) 0.8671(5) 0.6576(5)
H3 H 0.7576 0.8688 0.6763
C9 C 0.8990(5) 0.7800(5) 0.6211(5)
O8 O 0.7331(4) 0.3220(4) 0.6035(4)
C10 C 0.7892(6) 0.3777(6) 0.6344(6)
C11 C 0.7714(6) 0.5072(5) 0.6086(6)
C12 C 0.6826(6) 0.5559(6) 0.5606(6)
H4 H 0.6341 0.5074 0.5488
C13 C 0.6668(6) 0.6786(5) 0.5304(6)
O9 O 0.5637(4) 0.8453(4) 0.4441(4)
O11 O 0.5213(4) 0.6715(4) 0.4452(4)
O13 O 0.8595(5) 0.3283(4) 0.6910(5)
C15 C 0.5774(5) 0.7330(5) 0.4714(5)
C16 C 0.8254(5) 0.7006(5) 0.6021(5)
C18 C 0.8418(6) 0.5791(5) 0.6290(6)
H5 H 0.9008 0.5456 0.6610
C20 C 0.7380(5) 0.7491(5) 0.5514(6)
H7 H 0.7272 0.8305 0.5311
O18 O 0.3590(5) 0.0976(6) 0.7995(5)
C38 C 0.0887(5) 0.0489(5) 0.3335(5)
C39 C 0.1573(5) 0.1329(5) 0.3424(5)
H15 H 0.2424 0.1312 0.3237
C40 C 0.1010(5) 0.2200(5) 0.3789(5)
O23 O 0.2669(4) 0.6780(4) 0.3965(4)
C41 C 0.2108(6) 0.6223(6) 0.3656(6)
C42 C 0.2286(6) 0.4928(5) 0.3914(6)
C43 C 0.3174(6) 0.4441(6) 0.4394(6)
H16 H 0.3659 0.4926 0.4512
C44 C 0.3332(6) 0.3214(5) 0.4696(6)
O25 O 0.4787(4) 0.3285(4) 0.5548(4)
O26 O 0.1405(5) 0.6717(4) 0.3090(5)
C45 C 0.4226(5) 0.2670(5) 0.5286(5)
C46 C 0.1746(5) 0.2994(5) 0.3979(5)
C47 C 0.1582(6) 0.4209(5) 0.3710(6)
H17 H 0.0992 0.4544 0.3390
C48 C 0.2620(5) 0.2509(5) 0.4486(6)
H18 H 0.2728 0.1695 0.4689
O32 O 0.7092(4) 0.1933(4) 0.4845(4)
O36 O 0.2612(4) 0.9448(4) 0.2912(4)
O22 O 0.0798(4) 0.8701(4) 0.3081(5)
C37 C 0.1504(6) 0.9479(5) 0.3074(5)
C33 C 0.7638(5) 0.1272(5) 0.4395(5)
C34 C 0.9736(5) 0.2215(5) 0.4047(5)
H13 H 0.9343 0.2789 0.4283
C35 C 0.9042(5) 0.1374(5) 0.3957(5)
C36 C 0.9625(5) 0.0513(5) 0.3600(5)
H14 H 0.9164 0.9955 0.3540
loop_
_geom_bond_atom_site_label_1
_geom_bond_atom_site_label_2
_geom_bond_site_symmetry_1
_geom_bond_site_symmetry_2
O4 C2 1_555 1_555
O5 C2 1_555 1_555
C2 C4 1_555 1_555
C3 H1 1_555 1_555
C4 C3 1_555 1_555
C5 C4 1_555 1_555
Tb7_2 O5 1_555 1_555
Tb10 O4 1_555 1_555
O6 C6 1_555 1_555
O7 C6 1_555 1_555
O10 Tb7 1_555 1_555
O12 Tb7 1_555 1_555
C14 O10 1_555 1_555
C17 C14 1_555 1_555
C19 C17 1_555 1_555
H6 C19 1_555 1_555
C21 C17 1_555 1_555
H8 C21 1_555 1_555
C22 C21 1_555 1_555
O14 C25 1_555 1_555
O15 C25 1_555 1_555
C25 C31 1_555 1_555
H12 C32 1_555 1_555
O34 Tb7 1_555 1_555
Tb10 O14 1_555 1_555
Tb14 O6 1_555 1_555
O37 Tb7 1_555 1_555
O12 C14 1_555 1_555
O15 Tb10 1_555 1_555
C31 C32 1_555 1_555
Tb14 O37 1_555 1_555
O2 C1 1_555 1_555
O3 C1 1_555 1_555
C1 C23 1_555 1_555
H9 C24 1_555 1_555
O16 C26 1_555 1_555
O17 C26 1_555 1_555
C26 C27 1_555 1_555
C27 C28 1_555 1_555
C28 H10 1_555 1_555
C29 C27 1_555 1_555
H11 C29 1_555 1_555
Tb7_2 O16 1_555 1_555
Tb14 O2 1_555 1_555
O3 Tb14 1_555 1_555
C23 C24 1_555 1_555
O17 Tb7_2 1_555 1_555
C29 C30 1_555 1_555
O1 Tb10 1_555 1_555
C8 C7 1_555 1_555
H3 C8 1_555 1_555
O8 C10 1_555 1_555
C10 C11 1_555 1_555
C11 C12 1_555 1_555
C12 H4 1_555 1_555
C13 C12 1_555 1_555
Tb7_2 O9 1_555 1_555
Tb10 O9 1_555 1_555
O9 C15 1_555 1_555
O11 Tb10 1_555 1_555
O13 C10 1_555 1_555
C15 C13 1_555 1_555
C16 C9 1_555 1_555
C18 C11 1_555 1_555
H5 C18 1_555 1_555
C20 C13 1_555 1_555
H7 C20 1_555 1_555
O18 Tb14 1_555 1_555
C39 C38 1_555 1_555
H15 C39 1_555 1_555
O23 Tb10 1_555 1_555
C41 O23 1_555 1_555
C42 C41 1_555 1_555
C43 C42 1_555 1_555
H16 C43 1_555 1_555
C44 C43 1_555 1_555
Tb14 O8 1_555 1_555
O25 Tb14 1_555 1_555
O26 C41 1_555 1_555
C45 C44 1_555 1_555
C46 C40 1_555 1_555
C47 C42 1_555 1_555
H17 C47 1_555 1_555
C48 C44 1_555 1_555
H18 C48 1_555 1_555
O32 Tb14 1_555 1_555
O36 Tb10 1_555 1_555
C8 C9 1_555 1_555
O11 C15 1_555 1_555
C16 C18 1_555 1_555
C16 C20 1_555 1_555
C39 C40 1_555 1_555
O37 C45 1_555 1_555
O25 C45 1_555 1_555
C46 C47 1_555 1_555
C46 C48 1_555 1_555
O36 C37 1_555 1_555
O22 C37 1_555 1_555
O32 C33 1_555 1_555
O34 C33 1_555 1_555
C33 C35 1_555 1_555
C34 H13 1_555 1_555
C35 C34 1_555 1_555
C36 C35 1_555 1_555

#END
