
###############################################################################
#
# This file contains modified crystal structure data generated from the
# MOF subset of the Cambridge Structural Database (CSD) v543 
# hosted by the Cambridge Crystallographic Data Centre (CCDC).
#
# This work is licensed under the Creative Commons
# Attribution-NonCommercial-ShareAlike 4.0 International License.
# To view a copy of this license, visit
# http://creativecommons.org/licenses/by-nc-sa/4.0/
# or send a letter to
# Creative Commons, PO Box 1866, Mountain View, CA 94042, USA.
#
# CIF created using the CSD Python API on 29 September 2022
# The structure has been converted into the P1 space group
# The structure has a 3D framework
# The original CSD entry VITZEF is in the triclinic crystal system
# The framework has been calculated to contain at least 10.0% void space
# The void calculation uses a probe of radius 1.32A, grid spacing 0.4
# The framework is charged, counterions have been retained in the structure
# H atom positions have been added when not included in the experimental data
# Generated hydrogen atom positions removed from atoms on special positions
#
###############################################################################

data_VITZEF
_chemical_formula_moiety         '(C48 H26 O26 Sm4 1-)n'
_symmetry_cell_setting           triclinic
_symmetry_space_group_name_H-M   'P 1'
_symmetry_Int_Tables_number      1
_space_group_name_Hall           'P 1'
loop_
_symmetry_equiv_pos_site_id
_symmetry_equiv_pos_as_xyz
1 x,y,z
_cell_length_a                   11.647(2)
_cell_length_b                   12.247(2)
_cell_length_c                   13.604(3)
_cell_angle_alpha                65.01(3)
_cell_angle_beta                 67.88(3)
_cell_angle_gamma                88.32(3)
_cell_volume                     1609.79
loop_
_atom_site_label
_atom_site_type_symbol
_atom_site_fract_x
_atom_site_fract_y
_atom_site_fract_z
C11 C 0.1028(4) 0.2192(3) 0.3796(3)
C12 C 0.0928(4) 0.0486(4) 0.3345(3)
C15 C 0.1608(4) 0.1319(4) 0.3438(4)
C16 C 0.1752(4) 0.2981(3) 0.4005(4)
H6 H 0.2459 0.1303 0.3262
C18 C 0.1585(4) 0.4197(4) 0.3745(4)
C19 C 0.2605(4) 0.2512(4) 0.4508(3)
C20 C 0.2274(4) 0.4899(4) 0.3969(4)
H7 H 0.1009 0.4533 0.3421
C21 C 0.3300(4) 0.3223(4) 0.4725(4)
H8 H 0.2715 0.1702 0.4705
C22 C 0.2083(4) 0.6216(4) 0.3700(4)
C23 C 0.3134(4) 0.4433(4) 0.4439(4)
C24 C 0.4198(4) 0.2680(4) 0.5299(4)
O13 O 0.1420(3) 0.6702(3) 0.3132(3)
H9 H 0.3603 0.4923 0.4566
O25 O 0.2603(3) 0.6745(2) 0.4064(3)
O26 O 0.4327(3) 0.1577(2) 0.5579(2)
O27 O 0.4748(3) 0.3319(3) 0.5556(3)
Sm8 Sm 0.429475(19) 0.828826(17) 0.328142(17)
Sm9 Sm 0.570525(19) 0.171174(17) 0.671858(17)
Sm10 Sm 0.5000 -0.0000 0.5000
C17 C 0.1555(4) 0.9482(3) 0.3088(4)
O12 O 0.0826(3) 0.8689(3) 0.3103(3)
O20 O 0.2648(3) 0.9434(2) 0.2949(3)
Sm10_2 Sm 0.5000 1.0000 0.5000
O1 O 0.4751(3) 0.0307(3) 0.3117(3)
O2 O 0.5403(3) 0.1900(3) 0.3197(3)
C2 C 0.7691(4) 0.1275(4) 0.4322(4)
O5 O 0.7397(3) 0.3255(2) 0.5936(3)
O6 O 0.3524(3) 0.0969(4) 0.8070(3)
O7 O 0.7093(3) 0.1920(3) 0.4779(3)
O8 O 0.5004(3) 0.3023(3) 0.7760(3)
O9 O 0.5600(3) 0.1292(3) 0.8713(3)
O11 O 0.7352(3) 0.0566(2) 0.7051(3)
C4 C 0.9082(4) 0.1373(3) 0.3928(3)
C7 C 0.9760(4) 0.2210(3) 0.4033(3)
C8 C 0.9683(4) 0.0514(4) 0.3575(4)
H3 H 0.9360 0.2783 0.4264
O16 O 0.7176(3) 0.0478(3) 0.4196(3)
C9 C 0.4859(4) 0.7311(4) 0.0422(4)
C13 C 0.4909(5) 0.6090(4) 0.0685(4)
C14 C 0.4752(4) 0.7705(4) 0.1364(4)
H5 H 0.4898 0.5553 0.1418
C25 C 0.5023(4) 0.4355(4) 0.0136(4)
O18 O 0.4400(3) 0.8708(3) 0.1287(3)
O19 O 0.4996(3) 0.6977(3) 0.2240(3)
C27 C 0.5038(4) 0.3500(4) 0.1205(4)
C29 C 0.5077(4) 0.2273(4) 0.1476(3)
H11 H 0.5021 0.3760 0.1761
C30 C 0.5109(4) 0.1852(4) 0.0662(4)
C32 C 0.5090(4) 0.1443(3) 0.2650(4)
H12 H 0.5109 0.1030 0.0843
H14 H 0.0765 0.0038 0.6504
O3 O 0.2824(3) 0.9522(3) 0.5804(3)
O4 O 0.5673(3) 0.8423(2) 0.4421(2)
C1 C 0.4910(4) 0.8557(3) 0.7350(4)
C3 C 0.4923(4) 0.7727(4) 0.8524(3)
C5 C 0.4891(4) 0.8148(4) 0.9338(4)
C6 C 0.4962(4) 0.6500(4) 0.8795(4)
H1 H 0.4891 0.8970 0.9157
C10 C 0.4977(4) 0.5645(4) 0.9864(4)
H2 H 0.4979 0.6240 0.8239
H4 H 0.9235 0.9962 0.3496
O14 O 0.5249(3) 0.9693(3) 0.6883(3)
O15 O 0.4597(3) 0.8100(3) 0.6803(3)
C26 C 0.5091(5) 0.3910(4) 0.9315(4)
H10 H 0.5102 0.4447 0.8582
C28 C 0.5141(4) 0.2689(4) 0.9578(4)
C31 C 0.5248(4) 0.2295(4) 0.8636(4)
O31 O 0.2907(3) 0.8080(3) 0.5221(3)
O32 O 0.6476(3) 0.9031(4) 0.1930(3)
O34 O 0.5252(3) 0.6681(3) 0.4444(3)
C33 C 0.2309(4) 0.8725(4) 0.5678(4)
C34 C 0.0918(4) 0.8627(3) 0.6072(3)
C35 C 0.0240(4) 0.7790(3) 0.5967(3)
C36 C 0.0317(4) 0.9486(4) 0.6425(4)
H13 H 0.0640 0.7217 0.5736
C41 C 0.8445(4) 0.0518(3) 0.6912(4)
O37 O 0.9174(3) 0.1311(3) 0.6897(3)
C37 C 0.8972(4) 0.7808(3) 0.6204(3)
C38 C 0.9072(4) 0.9514(4) 0.6655(3)
C39 C 0.8392(4) 0.8681(4) 0.6562(4)
C40 C 0.8248(4) 0.7019(3) 0.5995(4)
H15 H 0.7541 0.8697 0.6738
C42 C 0.7395(4) 0.7488(4) 0.5492(3)
C43 C 0.8415(4) 0.5803(4) 0.6255(4)
C44 C 0.6700(4) 0.6777(4) 0.5275(4)
H16 H 0.7285 0.8298 0.5295
C45 C 0.7726(4) 0.5101(4) 0.6031(4)
H17 H 0.8991 0.5467 0.6579
C46 C 0.5802(4) 0.7320(4) 0.4701(4)
C47 C 0.6866(4) 0.5567(4) 0.5561(4)
C48 C 0.7917(4) 0.3784(4) 0.6300(4)
H18 H 0.6397 0.5077 0.5434
O41 O 0.8580(3) 0.3298(3) 0.6868(3)
loop_
_geom_bond_atom_site_label_1
_geom_bond_atom_site_label_2
_geom_bond_site_symmetry_1
_geom_bond_site_symmetry_2
C15 C11 1_555 1_555
C16 C11 1_555 1_555
H6 C15 1_555 1_555
C18 C16 1_555 1_555
C19 C16 1_555 1_555
C20 C18 1_555 1_555
H7 C18 1_555 1_555
C21 C19 1_555 1_555
H8 C19 1_555 1_555
C22 C20 1_555 1_555
C23 C20 1_555 1_555
C24 C21 1_555 1_555
O13 C22 1_555 1_555
H9 C23 1_555 1_555
O25 C22 1_555 1_555
O26 C24 1_555 1_555
O27 C24 1_555 1_555
Sm8 O25 1_555 1_555
Sm9 O26 1_555 1_555
Sm10 O26 1_555 1_555
C12 C15 1_555 1_555
C21 C23 1_555 1_555
O27 Sm9 1_555 1_555
O12 C17 1_555 1_555
O20 C17 1_555 1_555
Sm8 O20 1_555 1_555
Sm10 O1 1_555 1_555
O2 Sm10 1_555 1_555
Sm9 O5 1_555 1_555
C2 O7 1_555 1_555
O6 Sm9 1_555 1_555
O7 Sm9 1_555 1_555
O8 Sm9 1_555 1_555
O9 Sm9 1_555 1_555
O11 Sm9 1_555 1_555
C4 C2 1_555 1_555
C7 C4 1_555 1_555
C8 C4 1_555 1_555
H3 C7 1_555 1_555
O16 Sm10 1_555 1_555
C2 O16 1_555 1_555
C9 C13 1_555 1_555
C14 C9 1_555 1_555
H5 C13 1_555 1_555
O18 C14 1_555 1_555
O19 C14 1_555 1_555
C27 C25 1_555 1_555
Sm8 O18 1_555 1_555
C29 C27 1_555 1_555
H11 C27 1_555 1_555
C32 C29 1_555 1_555
H12 C30 1_555 1_555
O2 C32 1_555 1_555
O1 C32 1_555 1_555
O19 Sm8 1_555 1_555
C29 C30 1_555 1_555
O3 Sm10_2 1_555 1_555
O4 Sm10_2 1_555 1_555
C1 C3 1_555 1_555
C3 C5 1_555 1_555
C6 C3 1_555 1_555
H1 C5 1_555 1_555
C10 C6 1_555 1_555
H2 C6 1_555 1_555
O14 Sm10_2 1_555 1_555
O15 Sm10_2 1_555 1_555
H10 C26 1_555 1_555
C28 C26 1_555 1_555
C31 C28 1_555 1_555
O9 C31 1_555 1_555
O8 C31 1_555 1_555
C1 O14 1_555 1_555
C1 O15 1_555 1_555
O31 Sm8 1_555 1_555
O32 Sm8 1_555 1_555
O34 Sm8 1_555 1_555
C33 O3 1_555 1_555
C34 C33 1_555 1_555
C35 C34 1_555 1_555
C36 C34 1_555 1_555
H13 C35 1_555 1_555
Sm8 O4 1_555 1_555
O31 C33 1_555 1_555
O37 C41 1_555 1_555
O11 C41 1_555 1_555
C39 C37 1_555 1_555
C40 C37 1_555 1_555
H15 C39 1_555 1_555
C42 C40 1_555 1_555
C43 C40 1_555 1_555
C44 C42 1_555 1_555
H16 C42 1_555 1_555
C45 C43 1_555 1_555
H17 C43 1_555 1_555
C46 C44 1_555 1_555
C47 C44 1_555 1_555
C48 C45 1_555 1_555
O4 C46 1_555 1_555
O34 C46 1_555 1_555
H18 C47 1_555 1_555
O41 C48 1_555 1_555
O5 C48 1_555 1_555
C38 C39 1_555 1_555
C45 C47 1_555 1_555

#END
