
###############################################################################
#
# This file contains modified crystal structure data generated from the
# MOF subset of the Cambridge Structural Database (CSD) v543 
# hosted by the Cambridge Crystallographic Data Centre (CCDC).
#
# This work is licensed under the Creative Commons
# Attribution-NonCommercial-ShareAlike 4.0 International License.
# To view a copy of this license, visit
# http://creativecommons.org/licenses/by-nc-sa/4.0/
# or send a letter to
# Creative Commons, PO Box 1866, Mountain View, CA 94042, USA.
#
# CIF created using the CSD Python API on 29 September 2022
# The structure has been converted into the P1 space group
# The structure has a 3D framework
# The original CSD entry VITZIJ is in the triclinic crystal system
# The framework has been calculated to contain at least 10.0% void space
# The void calculation uses a probe of radius 1.32A, grid spacing 0.4
# The framework is charged, counterions have been retained in the structure
# H atom positions have been added when not included in the experimental data
# Generated hydrogen atom positions removed from atoms on special positions
#
###############################################################################

data_VITZIJ
_chemical_formula_moiety         '(C48 H26 Dy4 O26 1-)n'
_symmetry_cell_setting           triclinic
_symmetry_space_group_name_H-M   'P 1'
_symmetry_Int_Tables_number      1
_space_group_name_Hall           'P 1'
loop_
_symmetry_equiv_pos_site_id
_symmetry_equiv_pos_as_xyz
1 x,y,z
_cell_length_a                   11.5976(11)
_cell_length_b                   12.2130(11)
_cell_length_c                   13.5187(12)
_cell_angle_alpha                65.039(6)
_cell_angle_beta                 68.351(6)
_cell_angle_gamma                87.858(6)
_cell_volume                     1597.52
loop_
_atom_site_label
_atom_site_type_symbol
_atom_site_fract_x
_atom_site_fract_y
_atom_site_fract_z
Dy6 Dy -0.0000 0.5000 0.5000
Dy9 Dy 0.07124(3) 0.66999(2) 0.67256(2)
C24 C 0.7116(6) 0.1223(5) 0.3654(6)
O13 O 0.6416(5) 0.1716(4) 0.3115(5)
O27 O 0.7662(4) 0.1775(3) 0.3990(4)
Dy10 Dy 0.92876(3) 0.33001(2) 0.32744(2)
O19 O 0.0050(5) 0.2001(4) 0.2244(4)
O2 O 0.0647(4) 0.3448(3) 0.4443(4)
O4 O 0.0393(5) 0.6847(4) 0.3217(4)
C2 C 0.2653(6) 0.6278(5) 0.4378(5)
O5 O 0.2362(4) 0.5572(3) 0.7062(4)
O7 O 0.0580(5) 0.6296(3) 0.8692(4)
O9 O 0.2082(4) 0.6943(4) 0.4830(4)
O11 O 0.2338(4) 0.8225(3) 0.6010(4)
C4 C 0.4060(5) 0.6383(5) 0.3939(5)
C7 C 0.4747(5) 0.7227(5) 0.4030(5)
C8 C 0.4655(6) 0.5533(5) 0.3573(5)
C11 C 0.6013(6) 0.7195(4) 0.3783(5)
H3 H 0.4353 0.7810 0.4257
C12 C 0.5904(6) 0.5498(5) 0.3322(5)
H4 H 0.4199 0.4983 0.3499
C15 C 0.6754(6) 0.8006(5) 0.3974(5)
C16 C 0.6590(6) 0.6343(5) 0.3415(5)
C17 C 0.6543(6) 0.4494(5) 0.3069(5)
C18 C 0.7626(5) 0.7517(5) 0.4488(5)
C19 C 0.6597(6) 0.9215(5) 0.3707(5)
H6 H 0.7446 0.6332 0.3227
O12 O 0.5836(4) 0.3712(4) 0.3048(4)
C20 C 0.8338(6) 0.8222(5) 0.4697(5)
H7 H 0.7728 0.6702 0.4693
H8 H 0.6019 0.9554 0.3376
C21 C 0.7288(6) 0.9928(5) 0.3925(6)
C22 C 0.9227(5) 0.7670(5) 0.5283(5)
C23 C 0.8173(6) 0.9433(5) 0.4404(5)
H9 H 0.8654 0.9919 0.4526
O14 O 0.0285(4) 0.4714(3) 0.6880(4)
O16 O 0.2105(4) 0.5466(4) 0.4280(4)
O20 O 0.7638(4) 0.4428(3) 0.2938(4)
Dy6_2 Dy 1.0000 0.5000 0.5000
O25 O 0.9353(4) 0.6552(3) 0.5557(4)
O26 O 0.9789(4) 0.8278(3) 0.5548(4)
C25 C 0.0017(7) 0.9343(5) 0.0130(5)
C26 C 0.0026(6) 0.8497(5) 0.1206(5)
C28 C 0.0053(6) 0.7252(5) 0.1478(5)
H10 H 0.0014 0.8760 0.1763
C31 C 0.0073(6) 0.6834(5) 0.0662(5)
C32 C 0.0063(6) 0.6409(5) 0.2665(5)
H12 H 0.0058 0.6007 0.0850
O32 O 0.1452(5) 0.4039(5) 0.1975(4)
O35 O 0.0211(4) 0.1722(3) 0.4452(4)
C27 C 0.0058(6) 0.8919(5) 0.9316(5)
C29 C 0.0116(7) 0.7674(5) 0.9563(5)
H11 H 0.0047 0.9465 0.8589
C30 C 0.0209(6) 0.7294(5) 0.8621(5)
C10 C 0.9884(7) 0.2326(5) 0.0437(5)
C13 C 0.9942(6) 0.1081(5) 0.0684(5)
C14 C 0.9791(6) 0.2706(5) 0.1379(5)
H5 H 0.9953 0.0535 0.1411
O18 O 0.9420(5) 0.3704(3) 0.1308(4)
O1 O 0.9715(4) 0.5286(3) 0.3120(4)
O3 O 0.7895(4) 0.4534(4) 0.5720(4)
C1 C 0.9937(6) 0.3591(5) 0.7335(5)
O8 O 0.9950(5) 0.7999(4) 0.7756(4)
O10 O 0.8548(5) 0.5961(5) 0.8025(4)
C3 C 0.9947(6) 0.2748(5) 0.8522(5)
C5 C 0.9974(6) 0.1503(5) 0.8794(5)
C6 C 0.9927(6) 0.3166(5) 0.9338(5)
C9 C 0.9983(7) 0.0657(5) 0.9870(5)
H1 H 0.9986 0.1240 0.8237
H2 H 0.9942 0.3993 0.9150
O17 O 0.9607(5) 0.3153(4) 0.6783(4)
O31 O 0.7918(4) 0.3057(4) 0.5170(4)
C33 C 0.7347(6) 0.3722(5) 0.5622(5)
C34 C 0.5940(5) 0.3617(5) 0.6061(5)
C35 C 0.5345(6) 0.4467(5) 0.6427(5)
C36 C 0.5253(5) 0.2773(5) 0.5970(5)
C37 C 0.4096(6) 0.4502(5) 0.6678(5)
H13 H 0.5801 0.5017 0.6501
C38 C 0.3987(6) 0.2805(4) 0.6217(5)
H14 H 0.5647 0.2190 0.5743
C39 C 0.3457(6) 0.5506(5) 0.6931(5)
C40 C 0.3410(6) 0.3657(5) 0.6585(5)
C41 C 0.3246(6) 0.1994(5) 0.6026(5)
O38 O 0.4164(4) 0.6288(4) 0.6952(4)
H15 H 0.2554 0.3668 0.6773
C42 C 0.3403(6) 0.0785(5) 0.6293(5)
C43 C 0.2374(5) 0.2483(5) 0.5512(5)
C44 C 0.2712(6) 0.0072(5) 0.6075(6)
H16 H 0.3981 0.0446 0.6624
H17 H 0.2272 0.3298 0.5307
C45 C 0.1662(6) 0.1778(5) 0.5303(5)
C47 C 0.1827(6) 0.0567(5) 0.5596(5)
C48 C 0.0773(5) 0.2330(5) 0.4717(5)
H18 H 0.1346 0.0081 0.5474
C46 C 0.2884(6) 0.8777(5) 0.6346(6)
O40 O 0.3584(5) 0.8284(4) 0.6885(5)
loop_
_geom_bond_atom_site_label_1
_geom_bond_atom_site_label_2
_geom_bond_site_symmetry_1
_geom_bond_site_symmetry_2
O13 C24 1_555 1_555
O27 C24 1_555 1_555
Dy10 O27 1_555 1_555
O2 Dy6 1_555 1_555
O4 Dy6 1_555 1_555
Dy9 O5 1_555 1_555
C2 O9 1_555 1_555
O7 Dy9 1_555 1_555
O9 Dy9 1_555 1_555
O11 Dy9 1_555 1_555
C4 C2 1_555 1_555
C7 C4 1_555 1_555
C8 C4 1_555 1_555
C11 C7 1_555 1_555
H3 C7 1_555 1_555
C12 C8 1_555 1_555
H4 C8 1_555 1_555
C15 C11 1_555 1_555
C16 C11 1_555 1_555
C17 C12 1_555 1_555
C18 C15 1_555 1_555
C19 C15 1_555 1_555
H6 C16 1_555 1_555
O12 C17 1_555 1_555
C20 C18 1_555 1_555
H7 C18 1_555 1_555
H8 C19 1_555 1_555
C21 C19 1_555 1_555
C22 C20 1_555 1_555
C23 C20 1_555 1_555
H9 C23 1_555 1_555
O14 Dy6 1_555 1_555
O16 Dy6 1_555 1_555
O20 C17 1_555 1_555
Dy10 O20 1_555 1_555
Dy6_2 O25 1_555 1_555
O25 C22 1_555 1_555
O26 C22 1_555 1_555
Dy9 O14 1_555 1_555
C2 O16 1_555 1_555
C12 C16 1_555 1_555
C21 C23 1_555 1_555
C26 C25 1_555 1_555
C28 C26 1_555 1_555
H10 C26 1_555 1_555
C31 C28 1_555 1_555
C32 C28 1_555 1_555
H12 C31 1_555 1_555
O4 C32 1_555 1_555
O7 C30 1_555 1_555
C29 C27 1_555 1_555
H11 C27 1_555 1_555
C29 C30 1_555 1_555
C13 C10 1_555 1_555
C14 C10 1_555 1_555
H5 C13 1_555 1_555
O18 C14 1_555 1_555
Dy10 O18 1_555 1_555
O1 Dy6_2 1_555 1_555
Dy6_2 O3 1_555 1_555
C1 C3 1_555 1_555
C3 C5 1_555 1_555
C5 C9 1_555 1_555
C6 C3 1_555 1_555
H1 C5 1_555 1_555
H2 C6 1_555 1_555
O17 Dy6_2 1_555 1_555
C1 O17 1_555 1_555
Dy10 O1 1_555 1_555
O31 Dy10 1_555 1_555
C33 O3 1_555 1_555
C34 C33 1_555 1_555
C35 C34 1_555 1_555
C36 C34 1_555 1_555
C37 C35 1_555 1_555
H13 C35 1_555 1_555
C38 C36 1_555 1_555
H14 C36 1_555 1_555
C39 C37 1_555 1_555
C40 C37 1_555 1_555
C41 C38 1_555 1_555
O5 C39 1_555 1_555
O38 C39 1_555 1_555
H15 C40 1_555 1_555
C42 C41 1_555 1_555
C43 C41 1_555 1_555
C44 C42 1_555 1_555
H16 C42 1_555 1_555
H17 C43 1_555 1_555
C45 C43 1_555 1_555
C47 C44 1_555 1_555
C48 C45 1_555 1_555
H18 C47 1_555 1_555
O2 C48 1_555 1_555
O35 C48 1_555 1_555
O31 C33 1_555 1_555
C38 C40 1_555 1_555
C45 C47 1_555 1_555
O11 C46 1_555 1_555
O40 C46 1_555 1_555

#END
