
###############################################################################
#
# This file contains modified crystal structure data generated from the
# MOF subset of the Cambridge Structural Database (CSD) v543 
# hosted by the Cambridge Crystallographic Data Centre (CCDC).
#
# This work is licensed under the Creative Commons
# Attribution-NonCommercial-ShareAlike 4.0 International License.
# To view a copy of this license, visit
# http://creativecommons.org/licenses/by-nc-sa/4.0/
# or send a letter to
# Creative Commons, PO Box 1866, Mountain View, CA 94042, USA.
#
# CIF created using the CSD Python API on 29 September 2022
# The structure has been converted into the P1 space group
# The structure has a 3D framework
# The original CSD entry VITZOP is in the monoclinic crystal system
# The framework has been calculated to contain at least 10.0% void space
# The void calculation uses a probe of radius 1.32A, grid spacing 0.4
# The framework is charged, counterions have been retained in the structure
# H atom positions have been added when not included in the experimental data
#
###############################################################################

data_VITZOP
_chemical_formula_moiety         '(C78 H54 Er8 O56 4-)n'
_symmetry_cell_setting           triclinic
_symmetry_space_group_name_H-M   'P 1'
_symmetry_Int_Tables_number      1
_space_group_name_Hall           'P 1'
loop_
_symmetry_equiv_pos_site_id
_symmetry_equiv_pos_as_xyz
1 x,y,z
_cell_length_a                   19.318(4)
_cell_length_b                   14.082(3)
_cell_length_c                   8.8793(18)
_cell_angle_alpha                90
_cell_angle_beta                 100.31(3)
_cell_angle_gamma                90
_cell_volume                     2376.49
loop_
_atom_site_label
_atom_site_type_symbol
_atom_site_fract_x
_atom_site_fract_y
_atom_site_fract_z
O1 O 0.19967(11) 0.30406(14) 0.1467(2)
O2 O 0.09074(11) 0.25276(15) 0.0893(3)
C1 C 0.13606(16) 0.31634(19) 0.0833(3)
C2 C 0.5000 0.6330(3) 0.2500
O3 O 0.30365(15) 0.62736(16) 0.4930(3)
Er1 Er 0.328467(6) 0.651634(7) 0.241836(13)
O4 O 0.21438(12) 0.66769(15) 0.1335(3)
O6 O 0.31189(14) 0.48837(14) 0.2787(3)
O7 O 0.44270(11) 0.59175(16) 0.2513(3)
C4 C 0.16701(15) 0.66745(18) 0.0168(3)
O8 O 0.32601(15) 0.43818(14) 0.5171(3)
C5 C 0.30864(17) 0.4261(2) 0.3778(3)
C6 C 0.15136(15) 0.49123(19) 0.0460(3)
H1 H 0.1915 0.4903 0.1215
C8 C 0.11385(15) 0.40789(19) 0.0032(3)
O13 O 0.55730(11) 0.59175(16) 0.2487(3)
O18 O 0.30033(11) 0.80406(14) 0.3533(2)
O20 O 0.40926(11) 0.75276(15) 0.4107(3)
Er3 Er 0.671533(6) 0.651634(7) 0.258164(13)
Er5 Er 0.171533(6) 0.151634(7) 0.258164(13)
Er7 Er 0.328467(6) 0.348366(7) 0.741836(13)
O21 O 0.35120(12) 0.76107(13) 0.0656(2)
O25 O 0.32601(15) 0.56182(14) 0.0171(3)
H7 H 0.5 0.710333 0.25
H8 H 0.289081 0.356257 0.338249
H9 H 0.273494 0.57027 0.493187
H10 H 0.348403 0.617961 0.566174
O5 O 0.14880(12) 0.73893(13) 0.9344(2)
C3 C 0.12755(15) 0.57595(18) 0.9734(3)
C7 C 0.06882(15) 0.57657(18) 0.8572(3)
H2 H 0.0543 0.6334 0.8082
C9 C 0.03120(15) 0.49317(19) 0.8125(3)
C10 C 0.05401(16) 0.41034(19) 0.8908(3)
H3 H 0.0283 0.3548 0.8671
Er8 Er 0.171533(6) 0.848366(7) 0.758164(13)
O9 O 0.80033(11) 0.30406(14) 0.3533(2)
O10 O 0.90926(11) 0.25276(15) 0.4107(3)
C11 C 0.86394(16) 0.31634(19) 0.4167(3)
O11 O 0.78562(12) 0.66769(15) 0.3665(3)
C12 C 0.87245(15) 0.57595(18) 0.5266(3)
C13 C 0.83299(15) 0.66745(18) 0.4832(3)
C14 C 0.84864(15) 0.49123(19) 0.4540(3)
H4 H 0.8085 0.4903 0.3785
C15 C 0.93118(15) 0.57657(18) 0.6428(3)
H5 H 0.9457 0.6334 0.6918
C16 C 0.88615(15) 0.40789(19) 0.4968(3)
C17 C 0.96880(15) 0.49317(19) 0.6875(3)
C18 C 0.94599(16) 0.41034(19) 0.6092(3)
H6 H 0.9717 0.3548 0.6329
O12 O 0.85120(12) 0.73893(13) 0.5656(2)
O14 O 0.69635(15) 0.62736(16) 0.0070(3)
O15 O 0.68811(14) 0.48837(14) 0.2213(3)
C19 C 0.69136(17) 0.4261(2) 0.1222(3)
O17 O 0.69967(11) 0.80406(14) 0.1467(2)
O19 O 0.59074(11) 0.75276(15) 0.0893(3)
Er4 Er 0.828467(6) 0.151634(7) 0.241836(13)
Er9 Er 0.828467(6) 0.848366(7) 0.741836(13)
O22 O 0.64880(12) 0.76107(13) 0.4344(2)
O24 O 0.67399(15) 0.56182(14) 0.4829(3)
H11 H 0.710919 0.356257 0.161751
H12 H 0.726506 0.57027 0.00681336
O16 O 0.67399(15) 0.43818(14) 0.9829(3)
Er6 Er 0.671533(6) 0.348366(7) 0.758164(13)
H13 H 0.651597 0.617961 0.933826
C2_2 C -0.0000 0.1330(3) 0.2500
O13_2 O 0.05730(11) 0.09175(16) 0.2487(3)
H7_2 H -1.11022e-16 0.210333 0.25
C2_3 C 1.0000 0.1330(3) 0.2500
O3_2 O 0.80365(15) 0.12736(16) 0.4930(3)
O4_2 O 0.71438(12) 0.16769(15) 0.1335(3)
O7_2 O 0.94270(11) 0.09175(16) 0.2513(3)
C4_2 C 0.66701(15) 0.16745(18) 0.0168(3)
O21_2 O 0.85120(12) 0.26107(13) 0.0656(2)
O25_2 O 0.82601(15) 0.06182(14) 0.0171(3)
H7_3 H 1 0.210333 0.25
H9_2 H 0.773494 0.07027 0.493187
H10_2 H 0.848403 0.117961 0.566174
O5_2 O 0.64880(12) 0.23893(13) 0.9344(2)
C3_2 C 0.62755(15) 0.07595(18) 0.9734(3)
C7_2 C 0.56882(15) 0.07657(18) 0.8572(3)
H2_2 H 0.5543 0.1334 0.8082
O11_2 O 0.28562(12) 0.16769(15) 0.3665(3)
C12_2 C 0.37245(15) 0.07595(18) 0.5266(3)
C13_2 C 0.33299(15) 0.16745(18) 0.4832(3)
C15_2 C 0.43118(15) 0.07657(18) 0.6428(3)
H5_2 H 0.4457 0.1334 0.6918
O12_2 O 0.35120(12) 0.23893(13) 0.5656(2)
O14_2 O 0.19635(15) 0.12736(16) 0.0070(3)
O22_2 O 0.14880(12) 0.26107(13) 0.4344(2)
O24_2 O 0.17399(15) 0.06182(14) 0.4829(3)
H12_2 H 0.226506 0.07027 0.00681336
C1_2 C 0.63606(16) 0.81634(19) 0.0833(3)
O6_2 O 0.81189(14) 0.98837(14) 0.2787(3)
O8_2 O 0.82601(15) 0.93818(14) 0.5171(3)
C5_2 C 0.80864(17) 0.9261(2) 0.3778(3)
C6_2 C 0.65136(15) 0.99123(19) 0.0460(3)
H1_2 H 0.6915 0.9903 0.1215
C8_2 C 0.61385(15) 0.90789(19) 0.0032(3)
H8_2 H 0.789081 0.856257 0.338249
C9_2 C 0.53120(15) 0.99317(19) 0.8125(3)
C10_2 C 0.55401(16) 0.91034(19) 0.8908(3)
H3_2 H 0.5283 0.8548 0.8671
C11_2 C 0.36394(16) 0.81634(19) 0.4167(3)
C14_2 C 0.34864(15) 0.99123(19) 0.4540(3)
H4_2 H 0.3085 0.9903 0.3785
C16_2 C 0.38615(15) 0.90789(19) 0.4968(3)
C17_2 C 0.46880(15) 0.99317(19) 0.6875(3)
C18_2 C 0.44599(16) 0.91034(19) 0.6092(3)
H6_2 H 0.4717 0.8548 0.6329
O15_2 O 0.18811(14) 0.98837(14) 0.2213(3)
C19_2 C 0.19136(17) 0.9261(2) 0.1222(3)
H11_2 H 0.210919 0.856257 0.161751
O16_2 O 0.17399(15) 0.93818(14) 0.9829(3)
H13_2 H 0.348403 0.382039 0.0661745
O9_2 O 0.19967(11) 0.69594(14) 0.6467(2)
O10_2 O 0.09074(11) 0.74724(15) 0.5893(3)
C11_3 C 0.13606(16) 0.68366(19) 0.5833(3)
O11_3 O 0.21438(12) 0.33231(15) 0.6335(3)
C12_3 C 0.12755(15) 0.42405(18) 0.4734(3)
C13_3 C 0.16701(15) 0.33255(18) 0.5168(3)
C14_3 C 0.15136(15) 0.50877(19) 0.5460(3)
H4_3 H 0.1915 0.5097 0.6215
C15_3 C 0.06882(15) 0.42343(18) 0.3572(3)
H5_3 H 0.0543 0.3666 0.3082
C16_3 C 0.11385(15) 0.59211(19) 0.5032(3)
C17_3 C 0.03120(15) 0.50683(19) 0.3125(3)
C18_3 C 0.05401(16) 0.58966(19) 0.3908(3)
H6_3 H 0.0283 0.6452 0.3671
O14_3 O 0.30365(15) 0.37264(16) 0.9930(3)
O15_3 O 0.31189(14) 0.51163(14) 0.7787(3)
C19_3 C 0.30864(17) 0.5739(2) 0.8778(3)
O17_2 O 0.30033(11) 0.19594(14) 0.8533(2)
O19_2 O 0.40926(11) 0.24724(15) 0.9107(3)
O23 O 0.44270(11) 0.40825(16) 0.7513(3)
H11_3 H 0.289081 0.643743 0.838249
H12_3 H 0.273494 0.42973 0.993187
C3_3 C 0.87245(15) 0.42405(18) 0.0266(3)
C7_3 C 0.93118(15) 0.42343(18) 0.1428(3)
H2_3 H 0.9457 0.3666 0.1918
C9_3 C 0.96880(15) 0.50683(19) 0.1875(3)
C10_3 C 0.94599(16) 0.58966(19) 0.1092(3)
H3_3 H 0.9717 0.6452 0.1329
O1_2 O 0.80033(11) 0.69594(14) 0.8533(2)
O2_2 O 0.90926(11) 0.74724(15) 0.9107(3)
C1_3 C 0.86394(16) 0.68366(19) 0.9167(3)
C2_4 C 0.5000 0.3670(3) 0.7500
O3_3 O 0.69635(15) 0.37264(16) 0.5070(3)
O4_3 O 0.78562(12) 0.33231(15) 0.8665(3)
O6_3 O 0.68811(14) 0.51163(14) 0.7213(3)
O7_3 O 0.55730(11) 0.40825(16) 0.7487(3)
C4_3 C 0.83299(15) 0.33255(18) 0.9832(3)
C5_3 C 0.69136(17) 0.5739(2) 0.6222(3)
C6_3 C 0.84864(15) 0.50877(19) 0.9540(3)
H1_3 H 0.8085 0.5097 0.8785
C8_3 C 0.88615(15) 0.59211(19) 0.9968(3)
O18_2 O 0.69967(11) 0.19594(14) 0.6467(2)
O20_2 O 0.59074(11) 0.24724(15) 0.5893(3)
H7_4 H 0.5 0.289667 0.75
H8_3 H 0.710919 0.643743 0.661751
H9_3 H 0.726506 0.42973 0.506813
H10_3 H 0.651597 0.382039 0.433826
C9_4 C 0.46880(15) 0.00683(19) 0.1875(3)
C10_4 C 0.44599(16) 0.08966(19) 0.1092(3)
H3_4 H 0.4717 0.1452 0.1329
C11_4 C 0.63606(16) 0.18366(19) 0.5833(3)
C14_4 C 0.65136(15) 0.00877(19) 0.5460(3)
H4_4 H 0.6915 0.0097 0.6215
C16_4 C 0.61385(15) 0.09211(19) 0.5032(3)
C17_4 C 0.53120(15) 0.00683(19) 0.3125(3)
C18_4 C 0.55401(16) 0.08966(19) 0.3908(3)
H6_4 H 0.5283 0.1452 0.3671
O15_4 O 0.81189(14) 0.01163(14) 0.7787(3)
C19_4 C 0.80864(17) 0.0739(2) 0.8778(3)
H11_4 H 0.789081 0.143743 0.838249
C1_4 C 0.36394(16) 0.18366(19) 0.9167(3)
O6_4 O 0.18811(14) 0.01163(14) 0.7213(3)
C5_4 C 0.19136(17) 0.0739(2) 0.6222(3)
C6_4 C 0.34864(15) 0.00877(19) 0.9540(3)
H1_4 H 0.3085 0.0097 0.8785
C8_4 C 0.38615(15) 0.09211(19) 0.9968(3)
H8_4 H 0.210919 0.143743 0.661751
C3_4 C 0.37245(15) 0.92405(18) 0.0266(3)
C7_4 C 0.43118(15) 0.92343(18) 0.1428(3)
H2_4 H 0.4457 0.8666 0.1918
O11_4 O 0.71438(12) 0.83231(15) 0.6335(3)
C12_4 C 0.62755(15) 0.92405(18) 0.4734(3)
C13_4 C 0.66701(15) 0.83255(18) 0.5168(3)
C15_4 C 0.56882(15) 0.92343(18) 0.3572(3)
H5_4 H 0.5543 0.8666 0.3082
O14_4 O 0.80365(15) 0.87264(16) 0.9930(3)
O23_2 O 0.94270(11) 0.90825(16) 0.7513(3)
H12_4 H 0.773494 0.92973 0.993187
C2_5 C 0.0000 0.8670(3) 0.7500
O3_4 O 0.19635(15) 0.87264(16) 0.5070(3)
O4_4 O 0.28562(12) 0.83231(15) 0.8665(3)
O7_4 O 0.05730(11) 0.90825(16) 0.7487(3)
C4_4 C 0.33299(15) 0.83255(18) 0.9832(3)
H7_5 H 1.249e-16 0.789667 0.75
H9_4 H 0.226506 0.92973 0.506813
H10_4 H 0.151597 0.882039 0.433826
C2_6 C 1.0000 0.8670(3) 0.7500
H7_6 H 1 0.789667 0.75
H13_3 H 0.151597 0.117961 0.933826
H13_4 H 0.848403 0.882039 0.0661745
loop_
_geom_bond_atom_site_label_1
_geom_bond_atom_site_label_2
_geom_bond_site_symmetry_1
_geom_bond_site_symmetry_2
O1 C1 1_555 1_555
O2 C1 1_555 1_555
C1 C8 1_555 1_555
C2 O7 1_555 1_555
O3 Er1 1_555 1_555
Er1 O4 1_555 1_555
O4 C4 1_555 1_555
O6 Er1 1_555 1_555
O7 Er1 1_555 1_555
O8 C5 1_555 1_555
C5 O6 1_555 1_555
H1 C6 1_555 1_555
C8 C6 1_555 1_555
O13 C2 1_555 1_555
O18 Er1 1_555 1_555
O20 Er1 1_555 1_555
Er3 O13 1_555 1_555
Er5 O1 1_555 1_555
Er7 O8 1_555 1_555
O21 Er1 1_555 1_555
O25 Er1 1_555 1_555
O2 Er5 1_555 1_555
C2 H7 1_555 1_555
C5 H8 1_555 1_555
O3 H9 1_555 1_555
O3 H10 1_555 1_555
C7 C3 1_555 1_555
H2 C7 1_555 1_555
C9 C7 1_555 1_555
H3 C10 1_555 1_555
Er8 O5 1_555 1_555
C9 C10 1_555 1_555
O9 C11 1_555 1_555
O10 C11 1_555 1_555
C11 C16 1_555 1_555
O11 C13 1_555 1_555
C12 C13 1_555 1_555
C13 O12 1_555 1_555
C14 C12 1_555 1_555
H4 C14 1_555 1_555
C15 C12 1_555 1_555
H5 C15 1_555 1_555
C16 C14 1_555 1_555
C18 C16 1_555 1_555
H6 C18 1_555 1_555
O12 Er9 1_555 1_555
O14 Er3 1_555 1_555
Er3 O11 1_555 1_555
O15 Er3 1_555 1_555
C19 O15 1_555 1_555
O17 Er3 1_555 1_555
O19 Er3 1_555 1_555
Er4 O9 1_555 1_555
O22 Er3 1_555 1_555
O24 Er3 1_555 1_555
O10 Er4 1_555 1_555
C15 C17 1_555 1_555
C17 C18 1_555 1_555
C19 H11 1_555 1_555
O14 H12 1_555 1_555
Er6 O16 1_555 1_555
O13_2 C2_2 1_555 1_555
Er5 O13_2 1_555 1_555
C2_2 H7_2 1_555 1_555
C2_3 O7_2 1_555 1_555
O3_2 Er4 1_555 1_555
Er4 O4_2 1_555 1_555
O4_2 C4_2 1_555 1_555
O7_2 Er4 1_555 1_555
O21_2 Er4 1_555 1_555
O25_2 Er4 1_555 1_555
C2_3 H7_3 1_555 1_555
O3_2 H9_2 1_555 1_555
O3_2 H10_2 1_555 1_555
C7_2 C3_2 1_555 1_555
H2_2 C7_2 1_555 1_555
O11_2 C13_2 1_555 1_555
C12_2 C13_2 1_555 1_555
C13_2 O12_2 1_555 1_555
C15_2 C12_2 1_555 1_555
H5_2 C15_2 1_555 1_555
O12_2 Er7 1_555 1_555
O14_2 Er5 1_555 1_555
Er5 O11_2 1_555 1_555
Er6 O5_2 1_555 1_555
O22_2 Er5 1_555 1_555
O24_2 Er5 1_555 1_555
O14_2 H12_2 1_555 1_555
O17 C1_2 1_555 1_555
O19 C1_2 1_555 1_555
C1_2 C8_2 1_555 1_555
O8_2 C5_2 1_555 1_555
C5_2 O6_2 1_555 1_555
H1_2 C6_2 1_555 1_555
C8_2 C6_2 1_555 1_555
Er9 O8_2 1_555 1_555
C5_2 H8_2 1_555 1_555
H3_2 C10_2 1_555 1_555
O18 C11_2 1_555 1_555
O20 C11_2 1_555 1_555
C11_2 C16_2 1_555 1_555
H4_2 C14_2 1_555 1_555
C16_2 C14_2 1_555 1_555
C17_2 C9_2 1_555 1_555
C18_2 C16_2 1_555 1_555
H6_2 C18_2 1_555 1_555
C19_2 O15_2 1_555 1_555
C9_2 C10_2 1_555 1_555
C17_2 C18_2 1_555 1_555
C19_2 H11_2 1_555 1_555
Er8 O16_2 1_555 1_555
O9_2 C11_3 1_555 1_555
O10_2 C11_3 1_555 1_555
C11_3 C16_3 1_555 1_555
O11_3 C13_3 1_555 1_555
C12_3 C13_3 1_555 1_555
C13_3 O22_2 1_555 1_555
C14_3 C12_3 1_555 1_555
H4_3 C14_3 1_555 1_555
C15_3 C12_3 1_555 1_555
H5_3 C15_3 1_555 1_555
C16_3 C14_3 1_555 1_555
C18_3 C16_3 1_555 1_555
H6_3 C18_3 1_555 1_555
O14_3 Er7 1_555 1_555
Er7 O11_3 1_555 1_555
O15_3 Er7 1_555 1_555
C19_3 O15_3 1_555 1_555
O17_2 Er7 1_555 1_555
O19_2 Er7 1_555 1_555
Er8 O9_2 1_555 1_555
O23 Er7 1_555 1_555
O10_2 Er8 1_555 1_555
C15_3 C17_3 1_555 1_555
C17_3 C18_3 1_555 1_555
C19_3 H11_3 1_555 1_555
O14_3 H12_3 1_555 1_555
C7_3 C3_3 1_555 1_555
H2_3 C7_3 1_555 1_555
C9_3 C7_3 1_555 1_555
H3_3 C10_3 1_555 1_555
C9_3 C10_3 1_555 1_555
O1_2 C1_3 1_555 1_555
O2_2 C1_3 1_555 1_555
C1_3 C8_3 1_555 1_555
C2_4 O7_3 1_555 1_555
O3_3 Er6 1_555 1_555
Er6 O4_3 1_555 1_555
O4_3 C4_3 1_555 1_555
O6_3 Er6 1_555 1_555
O7_3 Er6 1_555 1_555
O24 C5_3 1_555 1_555
C5_3 O6_3 1_555 1_555
H1_3 C6_3 1_555 1_555
C8_3 C6_3 1_555 1_555
O23 C2_4 1_555 1_555
O18_2 Er6 1_555 1_555
O20_2 Er6 1_555 1_555
Er9 O1_2 1_555 1_555
O2_2 Er9 1_555 1_555
C2_4 H7_4 1_555 1_555
C5_3 H8_3 1_555 1_555
O3_3 H9_3 1_555 1_555
O3_3 H10_3 1_555 1_555
H3_4 C10_4 1_555 1_555
O18_2 C11_4 1_555 1_555
O20_2 C11_4 1_555 1_555
C11_4 C16_4 1_555 1_555
H4_4 C14_4 1_555 1_555
C16_4 C14_4 1_555 1_555
C17_4 C9_4 1_555 1_555
C18_4 C16_4 1_555 1_555
H6_4 C18_4 1_555 1_555
C19_4 O15_4 1_555 1_555
C9_4 C10_4 1_555 1_555
C17_4 C18_4 1_555 1_555
C19_4 H11_4 1_555 1_555
O17_2 C1_4 1_555 1_555
O19_2 C1_4 1_555 1_555
C1_4 C8_4 1_555 1_555
O24_2 C5_4 1_555 1_555
C5_4 O6_4 1_555 1_555
H1_4 C6_4 1_555 1_555
C8_4 C6_4 1_555 1_555
C5_4 H8_4 1_555 1_555
C7_4 C3_4 1_555 1_555
H2_4 C7_4 1_555 1_555
O11_4 C13_4 1_555 1_555
C12_4 C13_4 1_555 1_555
C13_4 O22 1_555 1_555
C15_4 C12_4 1_555 1_555
H5_4 C15_4 1_555 1_555
O14_4 Er9 1_555 1_555
Er9 O11_4 1_555 1_555
O23_2 Er9 1_555 1_555
O14_4 H12_4 1_555 1_555
C2_5 O7_4 1_555 1_555
O3_4 Er8 1_555 1_555
Er8 O4_4 1_555 1_555
O4_4 C4_4 1_555 1_555
O7_4 Er8 1_555 1_555
C2_5 H7_5 1_555 1_555
O3_4 H9_4 1_555 1_555
O3_4 H10_4 1_555 1_555
O23_2 C2_6 1_555 1_555
C2_6 H7_6 1_555 1_555

#END
