
###############################################################################
#
# This file contains modified crystal structure data generated from the
# MOF subset of the Cambridge Structural Database (CSD) v543 
# hosted by the Cambridge Crystallographic Data Centre (CCDC).
#
# This work is licensed under the Creative Commons
# Attribution-NonCommercial-ShareAlike 4.0 International License.
# To view a copy of this license, visit
# http://creativecommons.org/licenses/by-nc-sa/4.0/
# or send a letter to
# Creative Commons, PO Box 1866, Mountain View, CA 94042, USA.
#
# CIF created using the CSD Python API on 29 September 2022
# The structure has been converted into the P1 space group
# The structure has a 3D framework
# The original CSD entry VIVLAP is in the triclinic crystal system
# The framework has been calculated to contain at least 10.0% void space
# The void calculation uses a probe of radius 1.32A, grid spacing 0.4
#
###############################################################################

data_VIVLAP
_chemical_formula_moiety         '(C24 H28 N6 O18 Tb2)n'
_symmetry_cell_setting           triclinic
_symmetry_space_group_name_H-M   'P 1'
_symmetry_Int_Tables_number      1
_space_group_name_Hall           'P 1'
loop_
_symmetry_equiv_pos_site_id
_symmetry_equiv_pos_as_xyz
1 x,y,z
_cell_length_a                   7.9418(5)
_cell_length_b                   12.0870(6)
_cell_length_c                   13.3580(6)
_cell_angle_alpha                112.101(4)
_cell_angle_beta                 105.051(5)
_cell_angle_gamma                91.197(4)
_cell_volume                     1137.17
loop_
_atom_site_label
_atom_site_type_symbol
_atom_site_fract_x
_atom_site_fract_y
_atom_site_fract_z
Tb3 Tb 0.24936(3) 0.980990(19) 0.010698(18)
C3 C 0.0322(8) 0.3824(5) 0.7226(4)
C4 C 0.0017(8) 0.5786(4) 0.7138(5)
H1 H 0.0054 0.6103 0.6575
H2 H 0.1167 0.6003 0.7689
C10 C 0.0728(8) 0.1843(5) 0.7297(5)
H9 H 0.1895 0.2241 0.7775
H10 H 0.0852 0.1068 0.6756
C12 C 0.0529(7) 0.0972(4) 0.8698(4)
O3 O 0.1304(7) 0.4295(4) 0.8153(4)
O6 O 0.0585(5) 0.8153(3) 0.8598(3)
O8 O 0.2132(5) 0.0849(3) 0.8809(3)
Tb6 Tb 0.75064(3) 0.019010(19) 0.989302(18)
C1 C 0.8382(7) 0.3975(5) 0.5557(4)
C2 C 0.8635(8) 0.1991(5) 0.5656(4)
C5 C 0.8660(8) 0.6329(5) 0.7711(6)
H3 H 0.8524 0.5920 0.8192
H4 H 0.7543 0.6172 0.7138
C6 C 0.9048(7) 0.7662(4) 0.8415(4)
C7 C 0.6450(7) 0.2151(5) 0.4072(4)
H5 H 0.5685 0.2745 0.3988
H6 H 0.5763 0.1521 0.4138
C8 C 0.7032(8) 0.1612(6) 0.3030(4)
H7 H 0.7569 0.2250 0.2894
H8 H 0.7911 0.1091 0.3141
C9 C 0.5522(7) 0.0904(5) 0.2029(4)
C11 C 0.9634(8) 0.1651(6) 0.8021(5)
H11 H 0.9445 0.2427 0.8528
H12 H 0.8493 0.1207 0.7537
N1 N 0.9594(6) 0.4470(4) 0.6595(3)
N2 N 0.9889(6) 0.2581(4) 0.6690(4)
N3 N 0.7896(6) 0.2729(4) 0.5125(3)
O1 O 0.7736(7) 0.4568(4) 0.5037(4)
O4 O 0.8222(7) 0.0917(3) 0.5246(4)
O5 O 0.7854(5) 0.8163(3) 0.8794(3)
O7 O 0.9648(5) 0.0526(3) 0.9145(3)
O9 O 0.5553(4) 0.0860(3) 0.1057(3)
O10 O 0.4241(5) 0.0412(4) 0.2140(3)
O11 O 0.2146(5) 0.1837(3) 0.1206(3)
O2 O 0.3478(8) 0.8144(4) 0.0377(5)
H13 H 0.3881 0.8168 0.1081
O14 O 0.0352(5) 0.9474(3) 0.0855(3)
H14 H 0.3459 0.7466 0.9780
O16 O 0.4447(4) 0.9140(3) 0.8943(3)
H14_2 H 0.6541 0.2534 0.0220
O12 O 0.9415(5) 0.1847(3) 0.1402(3)
O2_2 O 0.6522(8) 0.1856(4) 0.9623(5)
H13_2 H 0.6119 0.1832 0.8919
O15 O 0.7868(5) 0.9151(3) 0.1191(3)
C1_2 C 0.1618(7) 0.6025(5) 0.4443(4)
C2_2 C 0.1365(8) 0.8009(5) 0.4344(4)
C5_2 C 0.1340(8) 0.3671(5) 0.2289(6)
H3_2 H 0.1476 0.4080 0.1808
H4_2 H 0.2457 0.3828 0.2862
C6_2 C 0.0952(7) 0.2338(4) 0.1585(4)
C7_2 C 0.3550(7) 0.7849(5) 0.5928(4)
H5_2 H 0.4315 0.7255 0.6012
H6_2 H 0.4237 0.8479 0.5862
C8_2 C 0.2968(8) 0.8388(6) 0.6970(4)
H7_2 H 0.2431 0.7750 0.7106
H8_2 H 0.2089 0.8909 0.6859
C9_2 C 0.4478(7) 0.9096(5) 0.7971(4)
C11_2 C 0.0366(8) 0.8349(6) 0.1979(5)
H11_2 H 0.0555 0.7573 0.1472
H12_2 H 0.1507 0.8793 0.2463
N1_2 N 0.0406(6) 0.5530(4) 0.3405(3)
N2_2 N 0.0111(6) 0.7419(4) 0.3310(4)
N3_2 N 0.2104(6) 0.7271(4) 0.4875(3)
O1_2 O 0.2264(7) 0.5432(4) 0.4963(4)
O4_2 O 0.1778(7) 0.9083(3) 0.4754(4)
O10_2 O 0.5759(5) 0.9588(4) 0.7860(3)
C3_2 C 0.9678(8) 0.6176(5) 0.2774(4)
C4_2 C 0.9983(8) 0.4214(4) 0.2862(5)
H1_2 H 0.9946 0.3897 0.3425
H2_2 H 0.8833 0.3997 0.2311
C10_2 C 0.9272(8) 0.8157(5) 0.2703(5)
H9_2 H 0.8105 0.7759 0.2225
H10_2 H 0.9148 0.8932 0.3244
C12_2 C 0.9471(7) 0.9028(4) 0.1302(4)
O3_2 O 0.8696(7) 0.5705(4) 0.1847(4)
loop_
_geom_bond_atom_site_label_1
_geom_bond_atom_site_label_2
_geom_bond_site_symmetry_1
_geom_bond_site_symmetry_2
C4 H1 1_555 1_555
H2 C4 1_555 1_555
C10 H9 1_555 1_555
H10 C10 1_555 1_555
O3 C3 1_555 1_555
O8 C12 1_555 1_555
C1 N1 1_555 1_555
C2 N2 1_555 1_555
H3 C5 1_555 1_555
H4 C5 1_555 1_555
C6 C5 1_555 1_555
C7 H5 1_555 1_555
H6 C7 1_555 1_555
C8 C7 1_555 1_555
H7 C8 1_555 1_555
H8 C8 1_555 1_555
C9 C8 1_555 1_555
H11 C11 1_555 1_555
H12 C11 1_555 1_555
N3 C1 1_555 1_555
O1 C1 1_555 1_555
O4 C2 1_555 1_555
O5 C6 1_555 1_555
Tb6 O7 1_555 1_555
C2 N3 1_555 1_555
C7 N3 1_555 1_555
C9 O9 1_555 1_555
C9 O10 1_555 1_555
Tb3 O2 1_555 1_555
O2 H13 1_555 1_555
O14 Tb3 1_555 1_555
Tb6 O2_2 1_555 1_555
O2_2 H13_2 1_555 1_555
C1_2 N1_2 1_555 1_555
C2_2 N2_2 1_555 1_555
H3_2 C5_2 1_555 1_555
H4_2 C5_2 1_555 1_555
C6_2 C5_2 1_555 1_555
C7_2 H5_2 1_555 1_555
H6_2 C7_2 1_555 1_555
C8_2 C7_2 1_555 1_555
H7_2 C8_2 1_555 1_555
H8_2 C8_2 1_555 1_555
C9_2 C8_2 1_555 1_555
H11_2 C11_2 1_555 1_555
H12_2 C11_2 1_555 1_555
N3_2 C1_2 1_555 1_555
O1_2 C1_2 1_555 1_555
O4_2 C2_2 1_555 1_555
O11 C6_2 1_555 1_555
C2_2 N3_2 1_555 1_555
C7_2 N3_2 1_555 1_555
C9_2 O16 1_555 1_555
C9_2 O10_2 1_555 1_555
C4_2 H1_2 1_555 1_555
H2_2 C4_2 1_555 1_555
C10_2 H9_2 1_555 1_555
H10_2 C10_2 1_555 1_555
O3_2 C3_2 1_555 1_555
O15 C12_2 1_555 1_555

#END
