
###############################################################################
#
# This file contains modified crystal structure data generated from the
# MOF subset of the Cambridge Structural Database (CSD) v543 
# hosted by the Cambridge Crystallographic Data Centre (CCDC).
#
# This work is licensed under the Creative Commons
# Attribution-NonCommercial-ShareAlike 4.0 International License.
# To view a copy of this license, visit
# http://creativecommons.org/licenses/by-nc-sa/4.0/
# or send a letter to
# Creative Commons, PO Box 1866, Mountain View, CA 94042, USA.
#
# CIF created using the CSD Python API on 29 September 2022
# The structure has been converted into the P1 space group
# The structure has a 3D framework
# The original CSD entry VIVSIE is in the monoclinic crystal system
# The framework has been calculated to contain at least 10.0% void space
# The void calculation uses a probe of radius 1.32A, grid spacing 0.4
#
###############################################################################

data_VIVSIE
_chemical_formula_moiety         '(C320 H192 N16 O80 Zn16)n'
_symmetry_cell_setting           triclinic
_symmetry_space_group_name_H-M   'P 1'
_symmetry_Int_Tables_number      1
_space_group_name_Hall           'P 1'
loop_
_symmetry_equiv_pos_site_id
_symmetry_equiv_pos_as_xyz
1 x,y,z
_cell_length_a                   26.230(5)
_cell_length_b                   10.680(2)
_cell_length_c                   27.040(5)
_cell_angle_alpha                90
_cell_angle_beta                 104.50(3)
_cell_angle_gamma                90
_cell_volume                     7333.61
loop_
_atom_site_label
_atom_site_type_symbol
_atom_site_fract_x
_atom_site_fract_y
_atom_site_fract_z
Zn1 Zn 0.387208(9) 0.28124(3) 0.076818(10)
Zn2 Zn 0.497616(9) 0.15886(3) 0.074435(10)
N1 N 0.32736(7) 0.4080(2) 0.07139(8)
N2 N 0.07357(7) 0.6276(2) 0.07408(7)
O1 O 0.46444(6) 0.31683(19) 0.09494(7)
O2 O 0.46518(7) 0.1911(2) 0.00068(6)
O3 O 0.38442(7) 0.2554(2) 0.00278(7)
O7 O 0.44808(8) 0.4294(3) 0.15808(10)
O8 O 0.71857(8) 0.3841(3) 0.27624(8)
O9 O 0.83646(11) 0.6051(4) 0.07410(9)
O10 O 0.87572(8) 0.7026(3) 0.14266(9)
C16 C 0.47933(9) 0.3802(3) 0.13803(10)
C17 C 0.53751(9) 0.3869(3) 0.16067(10)
C18 C 0.55741(10) 0.3640(4) 0.21264(11)
H9 H 0.5344 0.3459 0.2329
C19 C 0.61109(10) 0.3679(3) 0.23440(11)
H10 H 0.6241 0.3508 0.2690
C20 C 0.64576(9) 0.3975(3) 0.20430(10)
C21 C 0.70307(9) 0.4056(3) 0.23081(10)
C22 C 0.74170(8) 0.4489(3) 0.20168(10)
C23 C 0.77416(9) 0.5474(3) 0.22267(10)
H11 H 0.7729 0.5795 0.2543
C24 C 0.80854(10) 0.5986(3) 0.19679(11)
H12 H 0.8306 0.6641 0.2113
C25 C 0.81014(9) 0.5529(3) 0.14959(10)
C26 C 0.84322(10) 0.6225(4) 0.12040(12)
C27 C 0.77984(11) 0.4514(4) 0.12942(12)
H13 H 0.7823 0.4179 0.0983
C28 C 0.74547(11) 0.3984(3) 0.15532(12)
H14 H 0.7251 0.3294 0.1417
C29 C 0.62561(9) 0.4246(3) 0.15301(10)
H15 H 0.6483 0.4479 0.1331
C30 C 0.57166(9) 0.4171(3) 0.13097(10)
H16 H 0.5586 0.4325 0.0962
C31 C 0.28719(11) 0.4056(4) 0.02990(11)
H17 H 0.2922 0.3685 0.0004
C32 C 0.23823(11) 0.4559(4) 0.02893(11)
C33 C 0.22975(8) 0.5114(3) 0.07251(9)
C34 C 0.27205(10) 0.5183(3) 0.11482(10)
H19 H 0.2686 0.5586 0.1443
C35 C 0.31965(9) 0.4647(3) 0.11297(11)
H20 H 0.3475 0.4683 0.1420
C36 C 0.17589(8) 0.5567(3) 0.07307(9)
C37 C 0.13723(9) 0.5751(3) 0.02773(9)
C38 C 0.08708(9) 0.6104(3) 0.02980(9)
C39 C 0.11048(9) 0.6089(3) 0.11761(9)
H23 H 0.1014 0.6199 0.1484
C40 C 0.16169(9) 0.5739(3) 0.11868(9)
H24 H 0.1863 0.5620 0.1497
Zn3 Zn 0.887208(9) 0.78124(3) 0.076818(10)
N3 N 0.57357(7) 0.1276(2) 0.07408(7)
O11 O 0.45681(8) 0.0037(2) 0.08674(7)
O12 O 0.50530(8) 0.0930(2) 0.15528(8)
O13 O 0.33646(11) 0.1051(4) 0.07410(9)
O14 O 0.37572(8) 0.2026(3) 0.14266(9)
O5 O 0.45681(8) 0.9963(2) 0.58674(7)
O6 O 0.50530(8) 0.9070(2) 0.65528(8)
H4 H 0.4556 0.9367 0.7251
C11 C 0.47105(9) 0.9839(3) 0.63495(10)
Zn5 Zn 0.497616(9) 0.84114(3) 0.574435(10)
Zn4 Zn 0.997616(9) 0.65886(3) 0.074435(10)
C23_2 C 0.27416(9) 0.0474(3) 0.22267(10)
H11_2 H 0.2729 0.0795 0.2543
C24_2 C 0.30854(10) 0.0986(3) 0.19679(11)
H12_2 H 0.3306 0.1641 0.2113
C25_2 C 0.31014(9) 0.0529(3) 0.14959(10)
C26_2 C 0.34322(10) 0.1225(4) 0.12040(12)
O8_2 O 0.21857(8) 0.8841(3) 0.27624(8)
C17_2 C 0.03751(9) 0.8869(3) 0.16067(10)
C18_2 C 0.05741(10) 0.8640(4) 0.21264(11)
H9_2 H 0.0344 0.8459 0.2329
C19_2 C 0.11109(10) 0.8679(3) 0.23440(11)
H10_2 H 0.1241 0.8508 0.2690
C20_2 C 0.14576(9) 0.8975(3) 0.20430(10)
C21_2 C 0.20307(9) 0.9056(3) 0.23081(10)
C22_2 C 0.24170(8) 0.9489(3) 0.20168(10)
C27_2 C 0.27984(11) 0.9514(4) 0.12942(12)
H13_2 H 0.2823 0.9179 0.0983
C28_2 C 0.24547(11) 0.8984(3) 0.15532(12)
H14_2 H 0.2251 0.8294 0.1417
C29_2 C 0.12561(9) 0.9246(3) 0.15301(10)
H15_2 H 0.1483 0.9479 0.1331
C30_2 C 0.07166(9) 0.9171(3) 0.13097(10)
H16_2 H 0.0586 0.9325 0.0962
O12_2 O 0.00530(8) 0.5930(2) 0.15528(8)
O6_2 O 0.00530(8) 0.4070(2) 0.65528(8)
C33_2 C 0.72975(8) 0.0114(3) 0.07251(9)
C34_2 C 0.77205(10) 0.0183(3) 0.11482(10)
H19_2 H 0.7686 0.0586 0.1443
C36_2 C 0.67589(8) 0.0567(3) 0.07307(9)
C37_2 C 0.63723(9) 0.0751(3) 0.02773(9)
C38_2 C 0.58708(9) 0.1104(3) 0.02980(9)
C39_2 C 0.61048(9) 0.1089(3) 0.11761(9)
H23_2 H 0.6014 0.1199 0.1484
C40_2 C 0.66169(9) 0.0739(3) 0.11868(9)
H24_2 H 0.6863 0.0620 0.1497
N1_2 N 0.82736(7) 0.9080(2) 0.07139(8)
O1_2 O 0.96444(6) 0.81683(19) 0.09494(7)
O2_2 O 0.96518(7) 0.6911(2) 0.00068(6)
O3_2 O 0.88442(7) 0.7554(2) 0.00278(7)
O7_2 O 0.94808(8) 0.9294(3) 0.15808(10)
C16_2 C 0.97933(9) 0.8802(3) 0.13803(10)
C31_2 C 0.78719(11) 0.9056(4) 0.02990(11)
H17_2 H 0.7922 0.8685 0.0004
C32_2 C 0.73823(11) 0.9559(4) 0.02893(11)
C35_2 C 0.81965(9) 0.9647(3) 0.11297(11)
H20_2 H 0.8475 0.9683 0.1420
O11_2 O 0.95681(8) 0.5037(2) 0.08674(7)
O4 O 0.82533(9) 0.8330(2) 0.73842(7)
O5_2 O 0.95681(8) 0.4963(2) 0.58674(7)
C1 C 0.91931(9) 0.7278(3) 0.98008(9)
C2 C 0.90450(9) 0.7387(3) 0.92268(9)
C3 C 0.85207(9) 0.7527(3) 0.89580(9)
H1 H 0.8259 0.7573 0.9135
C4 C 0.83858(9) 0.7597(3) 0.84318(9)
H2 H 0.8034 0.7678 0.8255
C5 C 0.87769(10) 0.7545(3) 0.81641(9)
C6 C 0.86224(10) 0.7674(3) 0.75918(9)
C7 C 0.89320(10) 0.6969(3) 0.72868(9)
C8 C 0.91550(10) 0.5816(3) 0.74447(9)
H3 H 0.9134 0.5493 0.7758
C9 C 0.94087(9) 0.5142(3) 0.71416(9)
H4_2 H 0.9556 0.4367 0.7251
C10 C 0.94443(9) 0.5617(3) 0.66734(9)
C11_2 C 0.97105(9) 0.4839(3) 0.63495(10)
C12 C 0.92179(13) 0.6768(3) 0.65114(11)
H5 H 0.9237 0.7089 0.6197
C13 C 0.89652(13) 0.7438(3) 0.68158(11)
H6 H 0.8815 0.8210 0.6705
C14 C 0.93020(10) 0.7420(3) 0.84335(10)
H7 H 0.9564 0.7394 0.8257
C15 C 0.94361(9) 0.7333(3) 0.89601(9)
H8 H 0.9787 0.7239 0.9137
H18 H 0.7112 0.9523 0.9992
Zn5_2 Zn 0.997616(9) 0.34114(3) 0.574435(10)
H4_3 H 0.4556 0.0633 0.2251
C11_3 C 0.47105(9) 0.0161(3) 0.13495(10)
Zn1_2 Zn 0.387208(9) 0.71876(3) 0.576818(10)
N1_3 N 0.32736(7) 0.5920(2) 0.57139(8)
N2_2 N 0.07357(7) 0.3724(2) 0.57408(7)
O1_3 O 0.46444(6) 0.68317(19) 0.59494(7)
O2_3 O 0.46518(7) 0.8089(2) 0.50068(6)
O3_3 O 0.38442(7) 0.7446(2) 0.50278(7)
O4_2 O 0.32533(9) 0.6670(2) 0.23842(7)
O7_3 O 0.44808(8) 0.5706(3) 0.65808(10)
O8_3 O 0.71857(8) 0.6159(3) 0.77624(8)
O9_2 O 0.83646(11) 0.3949(4) 0.57410(9)
O10_2 O 0.87572(8) 0.2974(3) 0.64266(9)
C1_2 C 0.41931(9) 0.7722(3) 0.48008(9)
C2_2 C 0.40450(9) 0.7613(3) 0.42268(9)
C3_2 C 0.35207(9) 0.7473(3) 0.39580(9)
H1_2 H 0.3259 0.7427 0.4135
C4_2 C 0.33858(9) 0.7403(3) 0.34318(9)
H2_2 H 0.3034 0.7322 0.3255
C5_2 C 0.37769(10) 0.7455(3) 0.31641(9)
C6_2 C 0.36224(10) 0.7326(3) 0.25918(9)
C7_2 C 0.39320(10) 0.8031(3) 0.22868(9)
C8_2 C 0.41550(10) 0.9184(3) 0.24447(9)
H3_2 H 0.4134 0.9507 0.2758
C9_2 C 0.44087(9) 0.9858(3) 0.21416(9)
C10_2 C 0.44443(9) 0.9383(3) 0.16734(9)
C12_2 C 0.42179(13) 0.8232(3) 0.15114(11)
H5_2 H 0.4237 0.7911 0.1197
C13_2 C 0.39652(13) 0.7562(3) 0.18158(11)
H6_2 H 0.3815 0.6790 0.1705
C14_2 C 0.43020(10) 0.7580(3) 0.34335(10)
H7_2 H 0.4564 0.7606 0.3257
C15_2 C 0.44361(9) 0.7667(3) 0.39601(9)
H8_2 H 0.4787 0.7761 0.4137
C16_3 C 0.47933(9) 0.6198(3) 0.63803(10)
C17_3 C 0.53751(9) 0.6131(3) 0.66067(10)
C18_3 C 0.55741(10) 0.6360(4) 0.71264(11)
H9_3 H 0.5344 0.6541 0.7329
C19_3 C 0.61109(10) 0.6321(3) 0.73440(11)
H10_3 H 0.6241 0.6492 0.7690
C20_3 C 0.64576(9) 0.6025(3) 0.70430(10)
C21_3 C 0.70307(9) 0.5944(3) 0.73081(10)
C22_3 C 0.74170(8) 0.5511(3) 0.70168(10)
C23_3 C 0.77416(9) 0.4526(3) 0.72267(10)
H11_3 H 0.7729 0.4205 0.7543
C24_3 C 0.80854(10) 0.4014(3) 0.69679(11)
H12_3 H 0.8306 0.3359 0.7113
C25_3 C 0.81014(9) 0.4471(3) 0.64959(10)
C26_3 C 0.84322(10) 0.3775(4) 0.62040(12)
C27_3 C 0.77984(11) 0.5486(4) 0.62942(12)
H13_3 H 0.7823 0.5821 0.5983
C28_3 C 0.74547(11) 0.6016(3) 0.65532(12)
H14_3 H 0.7251 0.6706 0.6417
C29_3 C 0.62561(9) 0.5754(3) 0.65301(10)
H15_3 H 0.6483 0.5521 0.6331
C30_3 C 0.57166(9) 0.5829(3) 0.63097(10)
H16_3 H 0.5586 0.5675 0.5962
C31_3 C 0.28719(11) 0.5944(4) 0.52990(11)
H17_3 H 0.2922 0.6315 0.5004
C32_3 C 0.23823(11) 0.5441(4) 0.52893(11)
H18_2 H 0.2112 0.5477 0.4992
C33_3 C 0.22975(8) 0.4886(3) 0.57251(9)
C34_3 C 0.27205(10) 0.4817(3) 0.61482(10)
H19_3 H 0.2686 0.4414 0.6443
C35_3 C 0.31965(9) 0.5353(3) 0.61297(11)
H20_3 H 0.3475 0.5317 0.6420
C36_3 C 0.17589(8) 0.4433(3) 0.57307(9)
C37_3 C 0.13723(9) 0.4249(3) 0.52773(9)
H21 H 0.1451 0.4361 0.4964
C38_3 C 0.08708(9) 0.3896(3) 0.52980(9)
H22 H 0.0617 0.3774 0.4993
C39_3 C 0.11048(9) 0.3911(3) 0.61761(9)
H23_3 H 0.1014 0.3801 0.6484
C40_3 C 0.16169(9) 0.4261(3) 0.61868(9)
H24_3 H 0.1863 0.4380 0.6497
Zn3_2 Zn 0.887208(9) 0.21876(3) 0.576818(10)
N3_2 N 0.57357(7) 0.8724(2) 0.57408(7)
O13_2 O 0.33646(11) 0.8949(4) 0.57410(9)
O14_2 O 0.37572(8) 0.7974(3) 0.64266(9)
O8_4 O 0.21857(8) 0.1159(3) 0.77624(8)
C17_4 C 0.03751(9) 0.1131(3) 0.66067(10)
C18_4 C 0.05741(10) 0.1360(4) 0.71264(11)
H9_4 H 0.0344 0.1541 0.7329
C19_4 C 0.11109(10) 0.1321(3) 0.73440(11)
H10_4 H 0.1241 0.1492 0.7690
C20_4 C 0.14576(9) 0.1025(3) 0.70430(10)
C21_4 C 0.20307(9) 0.0944(3) 0.73081(10)
C22_4 C 0.24170(8) 0.0511(3) 0.70168(10)
C27_4 C 0.27984(11) 0.0486(4) 0.62942(12)
H13_4 H 0.2823 0.0821 0.5983
C28_4 C 0.24547(11) 0.1016(3) 0.65532(12)
H14_4 H 0.2251 0.1706 0.6417
C29_4 C 0.12561(9) 0.0754(3) 0.65301(10)
H15_4 H 0.1483 0.0521 0.6331
C30_4 C 0.07166(9) 0.0829(3) 0.63097(10)
H16_4 H 0.0586 0.0675 0.5962
C23_4 C 0.27416(9) 0.9526(3) 0.72267(10)
H11_4 H 0.2729 0.9205 0.7543
C24_4 C 0.30854(10) 0.9014(3) 0.69679(11)
H12_4 H 0.3306 0.8359 0.7113
C25_4 C 0.31014(9) 0.9471(3) 0.64959(10)
C26_4 C 0.34322(10) 0.8775(4) 0.62040(12)
N1_4 N 0.82736(7) 0.0920(2) 0.57139(8)
O1_4 O 0.96444(6) 0.18317(19) 0.59494(7)
O2_4 O 0.96518(7) 0.3089(2) 0.50068(6)
O3_4 O 0.88442(7) 0.2446(2) 0.50278(7)
O4_3 O 0.82533(9) 0.1670(2) 0.23842(7)
O7_4 O 0.94808(8) 0.0706(3) 0.65808(10)
C1_3 C 0.91931(9) 0.2722(3) 0.48008(9)
C2_3 C 0.90450(9) 0.2613(3) 0.42268(9)
C3_3 C 0.85207(9) 0.2473(3) 0.39580(9)
H1_3 H 0.8259 0.2427 0.4135
C4_3 C 0.83858(9) 0.2403(3) 0.34318(9)
H2_3 H 0.8034 0.2322 0.3255
C5_3 C 0.87769(10) 0.2455(3) 0.31641(9)
C6_3 C 0.86224(10) 0.2326(3) 0.25918(9)
C7_3 C 0.89320(10) 0.3031(3) 0.22868(9)
C8_3 C 0.91550(10) 0.4184(3) 0.24447(9)
H3_3 H 0.9134 0.4507 0.2758
C9_3 C 0.94087(9) 0.4858(3) 0.21416(9)
H4_4 H 0.9556 0.5633 0.2251
C10_3 C 0.94443(9) 0.4383(3) 0.16734(9)
C11_4 C 0.97105(9) 0.5161(3) 0.13495(10)
C12_3 C 0.92179(13) 0.3232(3) 0.15114(11)
H5_3 H 0.9237 0.2911 0.1197
C13_3 C 0.89652(13) 0.2562(3) 0.18158(11)
H6_3 H 0.8815 0.1790 0.1705
C14_3 C 0.93020(10) 0.2580(3) 0.34335(10)
H7_3 H 0.9564 0.2606 0.3257
C15_3 C 0.94361(9) 0.2667(3) 0.39601(9)
H8_3 H 0.9787 0.2761 0.4137
C16_4 C 0.97933(9) 0.1198(3) 0.63803(10)
C31_4 C 0.78719(11) 0.0944(4) 0.52990(11)
H17_4 H 0.7922 0.1315 0.5004
C32_4 C 0.73823(11) 0.0441(4) 0.52893(11)
H18_3 H 0.7112 0.0477 0.4992
C35_4 C 0.81965(9) 0.0353(3) 0.61297(11)
H20_4 H 0.8475 0.0317 0.6420
C33_4 C 0.72975(8) 0.9886(3) 0.57251(9)
C34_4 C 0.77205(10) 0.9817(3) 0.61482(10)
H19_4 H 0.7686 0.9414 0.6443
C36_4 C 0.67589(8) 0.9433(3) 0.57307(9)
C37_4 C 0.63723(9) 0.9249(3) 0.52773(9)
H21_2 H 0.6451 0.9361 0.4964
C38_4 C 0.58708(9) 0.8896(3) 0.52980(9)
H22_2 H 0.5617 0.8774 0.4993
C39_4 C 0.61048(9) 0.8911(3) 0.61761(9)
H23_4 H 0.6014 0.8801 0.6484
C40_4 C 0.66169(9) 0.9261(3) 0.61868(9)
H24_4 H 0.6863 0.9380 0.6497
O4_4 O 0.32533(9) 0.3330(2) 0.73842(7)
C1_4 C 0.41931(9) 0.2278(3) 0.98008(9)
C2_4 C 0.40450(9) 0.2387(3) 0.92268(9)
C3_4 C 0.35207(9) 0.2527(3) 0.89580(9)
H1_4 H 0.3259 0.2573 0.9135
C4_4 C 0.33858(9) 0.2597(3) 0.84318(9)
H2_4 H 0.3034 0.2678 0.8255
C5_4 C 0.37769(10) 0.2545(3) 0.81641(9)
C6_4 C 0.36224(10) 0.2674(3) 0.75918(9)
C7_4 C 0.39320(10) 0.1969(3) 0.72868(9)
C8_4 C 0.41550(10) 0.0816(3) 0.74447(9)
H3_4 H 0.4134 0.0493 0.7758
C9_4 C 0.44087(9) 0.0142(3) 0.71416(9)
C10_4 C 0.44443(9) 0.0617(3) 0.66734(9)
C12_4 C 0.42179(13) 0.1768(3) 0.65114(11)
H5_4 H 0.4237 0.2089 0.6197
C13_4 C 0.39652(13) 0.2438(3) 0.68158(11)
H6_4 H 0.3815 0.3210 0.6705
C14_4 C 0.43020(10) 0.2420(3) 0.84335(10)
H7_4 H 0.4564 0.2394 0.8257
C15_4 C 0.44361(9) 0.2333(3) 0.89601(9)
H8_4 H 0.4787 0.2239 0.9137
H18_4 H 0.2112 0.4523 0.9992
H21_3 H 0.1451 0.5639 0.9964
H22_3 H 0.0617 0.6226 0.9993
Zn4_2 Zn 0.002384(9) 0.65886(3) 0.425565(10)
Zn1_3 Zn 0.612792(9) 0.28124(3) 0.423182(10)
Zn2_2 Zn 0.502384(9) 0.15886(3) 0.425565(10)
N1_5 N 0.67264(7) 0.4080(2) 0.42861(8)
N2_3 N 0.92643(7) 0.6276(2) 0.42592(7)
O1_5 O 0.53556(6) 0.31683(19) 0.40506(7)
O2_5 O 0.53482(7) 0.1911(2) 0.49932(6)
O3_5 O 0.61558(7) 0.2554(2) 0.49722(7)
O4_5 O 0.67467(9) 0.3330(2) 0.76158(7)
O7_5 O 0.55192(8) 0.4294(3) 0.34192(10)
O8_5 O 0.28143(8) 0.3841(3) 0.22376(8)
O9_3 O 0.16354(11) 0.6051(4) 0.42590(9)
O10_3 O 0.12428(8) 0.7026(3) 0.35734(9)
C1_5 C 0.58069(9) 0.2278(3) 0.51992(9)
C2_5 C 0.59550(9) 0.2387(3) 0.57732(9)
C3_5 C 0.64793(9) 0.2527(3) 0.60420(9)
H1_5 H 0.6741 0.2573 0.5865
C4_5 C 0.66142(9) 0.2597(3) 0.65682(9)
H2_5 H 0.6966 0.2678 0.6745
C5_5 C 0.62231(10) 0.2545(3) 0.68359(9)
C6_5 C 0.63776(10) 0.2674(3) 0.74082(9)
C7_5 C 0.60680(10) 0.1969(3) 0.77132(9)
C8_5 C 0.58450(10) 0.0816(3) 0.75553(9)
H3_5 H 0.5866 0.0493 0.7242
C9_5 C 0.55913(9) 0.0142(3) 0.78584(9)
C10_5 C 0.55557(9) 0.0617(3) 0.83266(9)
C12_5 C 0.57821(13) 0.1768(3) 0.84886(11)
H5_5 H 0.5763 0.2089 0.8803
C13_5 C 0.60348(13) 0.2438(3) 0.81842(11)
H6_5 H 0.6185 0.3210 0.8295
C14_5 C 0.56980(10) 0.2420(3) 0.65665(10)
H7_5 H 0.5436 0.2394 0.6743
C15_5 C 0.55639(9) 0.2333(3) 0.60399(9)
H8_5 H 0.5213 0.2239 0.5863
C16_5 C 0.52067(9) 0.3802(3) 0.36197(10)
C17_5 C 0.46249(9) 0.3869(3) 0.33933(10)
C18_5 C 0.44259(10) 0.3640(4) 0.28736(11)
H9_5 H 0.4656 0.3459 0.2671
C19_5 C 0.38891(10) 0.3679(3) 0.26560(11)
H10_5 H 0.3759 0.3508 0.2310
C20_5 C 0.35424(9) 0.3975(3) 0.29570(10)
C21_5 C 0.29693(9) 0.4056(3) 0.26919(10)
C22_5 C 0.25830(8) 0.4489(3) 0.29832(10)
C23_5 C 0.22584(9) 0.5474(3) 0.27733(10)
H11_5 H 0.2271 0.5795 0.2457
C24_5 C 0.19146(10) 0.5986(3) 0.30321(11)
H12_5 H 0.1694 0.6641 0.2887
C25_5 C 0.18986(9) 0.5529(3) 0.35041(10)
C26_5 C 0.15678(10) 0.6225(4) 0.37960(12)
C27_5 C 0.22016(11) 0.4514(4) 0.37058(12)
H13_5 H 0.2177 0.4179 0.4017
C28_5 C 0.25453(11) 0.3984(3) 0.34468(12)
H14_5 H 0.2749 0.3294 0.3583
C29_5 C 0.37439(9) 0.4246(3) 0.34699(10)
H15_5 H 0.3517 0.4479 0.3669
C30_5 C 0.42834(9) 0.4171(3) 0.36903(10)
H16_5 H 0.4414 0.4325 0.4038
C31_5 C 0.71281(11) 0.4056(4) 0.47010(11)
H17_5 H 0.7078 0.3685 0.4996
C32_5 C 0.76177(11) 0.4559(4) 0.47107(11)
H18_5 H 0.7888 0.4523 0.5008
C33_5 C 0.77025(8) 0.5114(3) 0.42749(9)
C34_5 C 0.72795(10) 0.5183(3) 0.38518(10)
H19_5 H 0.7314 0.5586 0.3557
C35_5 C 0.68035(9) 0.4647(3) 0.38703(11)
H20_5 H 0.6525 0.4683 0.3580
C36_5 C 0.82411(8) 0.5567(3) 0.42693(9)
C37_5 C 0.86277(9) 0.5751(3) 0.47227(9)
H21_4 H 0.8549 0.5639 0.5036
C38_5 C 0.91292(9) 0.6104(3) 0.47020(9)
H22_4 H 0.9383 0.6226 0.5007
C39_5 C 0.88952(9) 0.6089(3) 0.38239(9)
H23_5 H 0.8986 0.6199 0.3516
C40_5 C 0.83831(9) 0.5739(3) 0.38132(9)
H24_5 H 0.8137 0.5620 0.3503
Zn3_3 Zn 0.112792(9) 0.78124(3) 0.423182(10)
N3_3 N 0.42643(7) 0.1276(2) 0.42592(7)
O11_3 O 0.54319(8) 0.0037(2) 0.41326(7)
O12_3 O 0.49470(8) 0.0930(2) 0.34472(8)
O13_3 O 0.66354(11) 0.1051(4) 0.42590(9)
O14_3 O 0.62428(8) 0.2026(3) 0.35734(9)
O5_3 O 0.54319(8) 0.9963(2) 0.91326(7)
O6_3 O 0.49470(8) 0.9070(2) 0.84472(8)
H4_5 H 0.5444 0.9367 0.7749
C11_5 C 0.52895(9) 0.9839(3) 0.86505(10)
Zn5_3 Zn 0.502384(9) 0.84114(3) 0.925565(10)
C33_6 C 0.27025(8) 0.0114(3) 0.42749(9)
C34_6 C 0.22795(10) 0.0183(3) 0.38518(10)
H19_6 H 0.2314 0.0586 0.3557
C36_6 C 0.32411(8) 0.0567(3) 0.42693(9)
C37_6 C 0.36277(9) 0.0751(3) 0.47227(9)
H21_5 H 0.3549 0.0639 0.5036
C38_6 C 0.41292(9) 0.1104(3) 0.47020(9)
H22_5 H 0.4383 0.1226 0.5007
C39_6 C 0.38952(9) 0.1089(3) 0.38239(9)
H23_6 H 0.3986 0.1199 0.3516
C40_6 C 0.33831(9) 0.0739(3) 0.38132(9)
H24_6 H 0.3137 0.0620 0.3503
N1_6 N 0.17264(7) 0.9080(2) 0.42861(8)
O1_6 O 0.03556(6) 0.81683(19) 0.40506(7)
O2_6 O 0.03482(7) 0.6911(2) 0.49932(6)
O3_6 O 0.11558(7) 0.7554(2) 0.49722(7)
O4_6 O 0.17467(9) 0.8330(2) 0.76158(7)
O5_4 O 0.04319(8) 0.4963(2) 0.91326(7)
O7_6 O 0.05192(8) 0.9294(3) 0.34192(10)
C1_6 C 0.08069(9) 0.7278(3) 0.51992(9)
C2_6 C 0.09550(9) 0.7387(3) 0.57732(9)
C3_6 C 0.14793(9) 0.7527(3) 0.60420(9)
H1_6 H 0.1741 0.7573 0.5865
C4_6 C 0.16142(9) 0.7597(3) 0.65682(9)
H2_6 H 0.1966 0.7678 0.6745
C5_6 C 0.12231(10) 0.7545(3) 0.68359(9)
C6_6 C 0.13776(10) 0.7674(3) 0.74082(9)
C7_6 C 0.10680(10) 0.6969(3) 0.77132(9)
C8_6 C 0.08450(10) 0.5816(3) 0.75553(9)
H3_6 H 0.0866 0.5493 0.7242
C9_6 C 0.05913(9) 0.5142(3) 0.78584(9)
H4_6 H 0.0444 0.4367 0.7749
C10_6 C 0.05557(9) 0.5617(3) 0.83266(9)
C11_6 C 0.02895(9) 0.4839(3) 0.86505(10)
C12_6 C 0.07821(13) 0.6768(3) 0.84886(11)
H5_6 H 0.0763 0.7089 0.8803
C13_6 C 0.10348(13) 0.7438(3) 0.81842(11)
H6_6 H 0.1185 0.8210 0.8295
C14_6 C 0.06980(10) 0.7420(3) 0.65665(10)
H7_6 H 0.0436 0.7394 0.6743
C15_6 C 0.05639(9) 0.7333(3) 0.60399(9)
H8_6 H 0.0213 0.7239 0.5863
C16_6 C 0.02067(9) 0.8802(3) 0.36197(10)
C31_6 C 0.21281(11) 0.9056(4) 0.47010(11)
H17_6 H 0.2078 0.8685 0.4996
C32_6 C 0.26177(11) 0.9559(4) 0.47107(11)
H18_6 H 0.2888 0.9523 0.5008
C35_6 C 0.18035(9) 0.9647(3) 0.38703(11)
H20_6 H 0.1525 0.9683 0.3580
Zn5_4 Zn 0.002384(9) 0.34114(3) 0.925565(10)
O11_4 O 0.04319(8) 0.5037(2) 0.41326(7)
C23_6 C 0.72584(9) 0.0474(3) 0.27733(10)
H11_6 H 0.7271 0.0795 0.2457
C24_6 C 0.69146(10) 0.0986(3) 0.30321(11)
H12_6 H 0.6694 0.1641 0.2887
C25_6 C 0.68986(9) 0.0529(3) 0.35041(10)
C26_6 C 0.65678(10) 0.1225(4) 0.37960(12)
O6_4 O 0.99470(8) 0.4070(2) 0.84472(8)
O8_6 O 0.78143(8) 0.8841(3) 0.22376(8)
C17_6 C 0.96249(9) 0.8869(3) 0.33933(10)
C18_6 C 0.94259(10) 0.8640(4) 0.28736(11)
H9_6 H 0.9656 0.8459 0.2671
C19_6 C 0.88891(10) 0.8679(3) 0.26560(11)
H10_6 H 0.8759 0.8508 0.2310
C20_6 C 0.85424(9) 0.8975(3) 0.29570(10)
C21_6 C 0.79693(9) 0.9056(3) 0.26919(10)
C22_6 C 0.75830(8) 0.9489(3) 0.29832(10)
C27_6 C 0.72016(11) 0.9514(4) 0.37058(12)
H13_6 H 0.7177 0.9179 0.4017
C28_6 C 0.75453(11) 0.8984(3) 0.34468(12)
H14_6 H 0.7749 0.8294 0.3583
C29_6 C 0.87439(9) 0.9246(3) 0.34699(10)
H15_6 H 0.8517 0.9479 0.3669
C30_6 C 0.92834(9) 0.9171(3) 0.36903(10)
H16_6 H 0.9414 0.9325 0.4038
O12_4 O 0.99470(8) 0.5930(2) 0.34472(8)
H4_7 H 0.5444 0.0633 0.2749
C11_7 C 0.52895(9) 0.0161(3) 0.36505(10)
Zn1_4 Zn 0.612792(9) 0.71876(3) 0.923182(10)
N1_7 N 0.67264(7) 0.5920(2) 0.92861(8)
N2_4 N 0.92643(7) 0.3724(2) 0.92592(7)
O1_7 O 0.53556(6) 0.68317(19) 0.90506(7)
O2_7 O 0.53482(7) 0.8089(2) 0.99932(6)
O3_7 O 0.61558(7) 0.7446(2) 0.99722(7)
O7_7 O 0.55192(8) 0.5706(3) 0.84192(10)
O8_7 O 0.28143(8) 0.6159(3) 0.72376(8)
O9_4 O 0.16354(11) 0.3949(4) 0.92590(9)
O10_4 O 0.12428(8) 0.2974(3) 0.85734(9)
C16_7 C 0.52067(9) 0.6198(3) 0.86197(10)
C17_7 C 0.46249(9) 0.6131(3) 0.83933(10)
C18_7 C 0.44259(10) 0.6360(4) 0.78736(11)
H9_7 H 0.4656 0.6541 0.7671
C19_7 C 0.38891(10) 0.6321(3) 0.76560(11)
H10_7 H 0.3759 0.6492 0.7310
C20_7 C 0.35424(9) 0.6025(3) 0.79570(10)
C21_7 C 0.29693(9) 0.5944(3) 0.76919(10)
C22_7 C 0.25830(8) 0.5511(3) 0.79832(10)
C23_7 C 0.22584(9) 0.4526(3) 0.77733(10)
H11_7 H 0.2271 0.4205 0.7457
C24_7 C 0.19146(10) 0.4014(3) 0.80321(11)
H12_7 H 0.1694 0.3359 0.7887
C25_7 C 0.18986(9) 0.4471(3) 0.85041(10)
C26_7 C 0.15678(10) 0.3775(4) 0.87960(12)
C27_7 C 0.22016(11) 0.5486(4) 0.87058(12)
H13_7 H 0.2177 0.5821 0.9017
C28_7 C 0.25453(11) 0.6016(3) 0.84468(12)
H14_7 H 0.2749 0.6706 0.8583
C29_7 C 0.37439(9) 0.5754(3) 0.84699(10)
H15_7 H 0.3517 0.5521 0.8669
C30_7 C 0.42834(9) 0.5829(3) 0.86903(10)
H16_7 H 0.4414 0.5675 0.9038
C31_7 C 0.71281(11) 0.5944(4) 0.97010(11)
H17_7 H 0.7078 0.6315 0.9996
C32_7 C 0.76177(11) 0.5441(4) 0.97107(11)
C33_7 C 0.77025(8) 0.4886(3) 0.92749(9)
C34_7 C 0.72795(10) 0.4817(3) 0.88518(10)
H19_7 H 0.7314 0.4414 0.8557
C35_7 C 0.68035(9) 0.5353(3) 0.88703(11)
H20_7 H 0.6525 0.5317 0.8580
C36_7 C 0.82411(8) 0.4433(3) 0.92693(9)
C37_7 C 0.86277(9) 0.4249(3) 0.97227(9)
C38_7 C 0.91292(9) 0.3896(3) 0.97020(9)
C39_7 C 0.88952(9) 0.3911(3) 0.88239(9)
H23_7 H 0.8986 0.3801 0.8516
C40_7 C 0.83831(9) 0.4261(3) 0.88132(9)
H24_7 H 0.8137 0.4380 0.8503
Zn3_4 Zn 0.112792(9) 0.21876(3) 0.923182(10)
N3_4 N 0.42643(7) 0.8724(2) 0.92592(7)
O13_4 O 0.66354(11) 0.8949(4) 0.92590(9)
O14_4 O 0.62428(8) 0.7974(3) 0.85734(9)
O4_7 O 0.17467(9) 0.1670(2) 0.26158(7)
C1_7 C 0.08069(9) 0.2722(3) 0.01992(9)
C2_7 C 0.09550(9) 0.2613(3) 0.07732(9)
C3_7 C 0.14793(9) 0.2473(3) 0.10420(9)
H1_7 H 0.1741 0.2427 0.0865
C4_7 C 0.16142(9) 0.2403(3) 0.15682(9)
H2_7 H 0.1966 0.2322 0.1745
C5_7 C 0.12231(10) 0.2455(3) 0.18359(9)
C6_7 C 0.13776(10) 0.2326(3) 0.24082(9)
C7_7 C 0.10680(10) 0.3031(3) 0.27132(9)
C8_7 C 0.08450(10) 0.4184(3) 0.25553(9)
H3_7 H 0.0866 0.4507 0.2242
C9_7 C 0.05913(9) 0.4858(3) 0.28584(9)
H4_8 H 0.0444 0.5633 0.2749
C10_7 C 0.05557(9) 0.4383(3) 0.33266(9)
C11_8 C 0.02895(9) 0.5161(3) 0.36505(10)
C12_7 C 0.07821(13) 0.3232(3) 0.34886(11)
H5_7 H 0.0763 0.2911 0.3803
C13_7 C 0.10348(13) 0.2562(3) 0.31842(11)
H6_7 H 0.1185 0.1790 0.3295
C14_7 C 0.06980(10) 0.2580(3) 0.15665(10)
H7_7 H 0.0436 0.2606 0.1743
C15_7 C 0.05639(9) 0.2667(3) 0.10399(9)
H8_7 H 0.0213 0.2761 0.0863
H18_7 H 0.2888 0.0477 0.0008
N1_8 N 0.17264(7) 0.0920(2) 0.92861(8)
O1_8 O 0.03556(6) 0.18317(19) 0.90506(7)
O2_8 O 0.03482(7) 0.3089(2) 0.99932(6)
O3_8 O 0.11558(7) 0.2446(2) 0.99722(7)
O7_8 O 0.05192(8) 0.0706(3) 0.84192(10)
C16_8 C 0.02067(9) 0.1198(3) 0.86197(10)
C31_8 C 0.21281(11) 0.0944(4) 0.97010(11)
H17_8 H 0.2078 0.1315 0.9996
C32_8 C 0.26177(11) 0.0441(4) 0.97107(11)
C35_8 C 0.18035(9) 0.0353(3) 0.88703(11)
H20_8 H 0.1525 0.0317 0.8580
C33_8 C 0.27025(8) 0.9886(3) 0.92749(9)
C34_8 C 0.22795(10) 0.9817(3) 0.88518(10)
H19_8 H 0.2314 0.9414 0.8557
C36_8 C 0.32411(8) 0.9433(3) 0.92693(9)
C37_8 C 0.36277(9) 0.9249(3) 0.97227(9)
C38_8 C 0.41292(9) 0.8896(3) 0.97020(9)
C39_8 C 0.38952(9) 0.8911(3) 0.88239(9)
H23_8 H 0.3986 0.8801 0.8516
C40_8 C 0.33831(9) 0.9261(3) 0.88132(9)
H24_8 H 0.3137 0.9380 0.8503
O8_8 O 0.78143(8) 0.1159(3) 0.72376(8)
C17_8 C 0.96249(9) 0.1131(3) 0.83933(10)
C18_8 C 0.94259(10) 0.1360(4) 0.78736(11)
H9_8 H 0.9656 0.1541 0.7671
C19_8 C 0.88891(10) 0.1321(3) 0.76560(11)
H10_8 H 0.8759 0.1492 0.7310
C20_8 C 0.85424(9) 0.1025(3) 0.79570(10)
C21_8 C 0.79693(9) 0.0944(3) 0.76919(10)
C22_8 C 0.75830(8) 0.0511(3) 0.79832(10)
C27_8 C 0.72016(11) 0.0486(4) 0.87058(12)
H13_8 H 0.7177 0.0821 0.9017
C28_8 C 0.75453(11) 0.1016(3) 0.84468(12)
H14_8 H 0.7749 0.1706 0.8583
C29_8 C 0.87439(9) 0.0754(3) 0.84699(10)
H15_8 H 0.8517 0.0521 0.8669
C30_8 C 0.92834(9) 0.0829(3) 0.86903(10)
H16_8 H 0.9414 0.0675 0.9038
C23_8 C 0.72584(9) 0.9526(3) 0.77733(10)
H11_8 H 0.7271 0.9205 0.7457
C24_8 C 0.69146(10) 0.9014(3) 0.80321(11)
H12_8 H 0.6694 0.8359 0.7887
C25_8 C 0.68986(9) 0.9471(3) 0.85041(10)
C26_8 C 0.65678(10) 0.8775(4) 0.87960(12)
H21_6 H 0.6451 0.0639 0.9964
H22_6 H 0.5617 0.1226 0.9993
O4_8 O 0.67467(9) 0.6670(2) 0.26158(7)
C1_8 C 0.58069(9) 0.7722(3) 0.01992(9)
C2_8 C 0.59550(9) 0.7613(3) 0.07732(9)
C3_8 C 0.64793(9) 0.7473(3) 0.10420(9)
H1_8 H 0.6741 0.7427 0.0865
C4_8 C 0.66142(9) 0.7403(3) 0.15682(9)
H2_8 H 0.6966 0.7322 0.1745
C5_8 C 0.62231(10) 0.7455(3) 0.18359(9)
C6_8 C 0.63776(10) 0.7326(3) 0.24082(9)
C7_8 C 0.60680(10) 0.8031(3) 0.27132(9)
C8_8 C 0.58450(10) 0.9184(3) 0.25553(9)
H3_8 H 0.5866 0.9507 0.2242
C9_8 C 0.55913(9) 0.9858(3) 0.28584(9)
C10_8 C 0.55557(9) 0.9383(3) 0.33266(9)
C12_8 C 0.57821(13) 0.8232(3) 0.34886(11)
H5_8 H 0.5763 0.7911 0.3803
C13_8 C 0.60348(13) 0.7562(3) 0.31842(11)
H6_8 H 0.6185 0.6790 0.3295
C14_8 C 0.56980(10) 0.7580(3) 0.15665(10)
H7_8 H 0.5436 0.7606 0.1743
C15_8 C 0.55639(9) 0.7667(3) 0.10399(9)
H8_8 H 0.5213 0.7761 0.0863
H18_8 H 0.7888 0.5477 0.0008
H21_7 H 0.8549 0.4361 0.0036
H22_7 H 0.9383 0.3774 0.0007
H21_8 H 0.3549 0.9361 0.0036
H22_8 H 0.4383 0.8774 0.0007
loop_
_geom_bond_atom_site_label_1
_geom_bond_atom_site_label_2
_geom_bond_site_symmetry_1
_geom_bond_site_symmetry_2
Zn1 N1 1_555 1_555
Zn2 O1 1_555 1_555
N1 C31 1_555 1_555
N2 C38 1_555 1_555
O1 Zn1 1_555 1_555
O2 Zn2 1_555 1_555
O3 Zn1 1_555 1_555
O7 C16 1_555 1_555
O8 C21 1_555 1_555
O9 C26 1_555 1_555
O10 C26 1_555 1_555
C16 O1 1_555 1_555
C17 C16 1_555 1_555
C18 C17 1_555 1_555
H9 C18 1_555 1_555
C19 C18 1_555 1_555
H10 C19 1_555 1_555
C20 C19 1_555 1_555
C21 C20 1_555 1_555
C22 C21 1_555 1_555
C23 C22 1_555 1_555
H11 C23 1_555 1_555
C24 C23 1_555 1_555
H12 C24 1_555 1_555
C25 C24 1_555 1_555
C26 C25 1_555 1_555
C27 C25 1_555 1_555
H13 C27 1_555 1_555
C28 C22 1_555 1_555
H14 C28 1_555 1_555
C29 C20 1_555 1_555
H15 C29 1_555 1_555
C30 C17 1_555 1_555
H16 C30 1_555 1_555
C31 H17 1_555 1_555
C32 C31 1_555 1_555
C33 C32 1_555 1_555
C34 C33 1_555 1_555
H19 C34 1_555 1_555
C35 N1 1_555 1_555
H20 C35 1_555 1_555
C36 C33 1_555 1_555
C37 C36 1_555 1_555
C38 C37 1_555 1_555
C39 N2 1_555 1_555
H23 C39 1_555 1_555
C40 C36 1_555 1_555
H24 C40 1_555 1_555
Zn3 O9 1_555 1_555
N3 Zn2 1_555 1_555
O11 Zn2 1_555 1_555
O12 Zn2 1_555 1_555
O13 Zn1 1_555 1_555
O14 Zn1 1_555 1_555
O10 Zn3 1_555 1_555
C27 C28 1_555 1_555
C29 C30 1_555 1_555
C34 C35 1_555 1_555
C39 C40 1_555 1_555
O5 C11 1_555 1_555
O6 C11 1_555 1_555
Zn5 O5 1_555 1_555
O6 Zn5 1_555 1_555
O13 C26_2 1_555 1_555
O14 C26_2 1_555 1_555
H11_2 C23_2 1_555 1_555
C24_2 C23_2 1_555 1_555
H12_2 C24_2 1_555 1_555
C25_2 C24_2 1_555 1_555
C26_2 C25_2 1_555 1_555
O8_2 C21_2 1_555 1_555
C18_2 C17_2 1_555 1_555
H9_2 C18_2 1_555 1_555
C19_2 C18_2 1_555 1_555
H10_2 C19_2 1_555 1_555
C20_2 C19_2 1_555 1_555
C21_2 C20_2 1_555 1_555
C22_2 C21_2 1_555 1_555
H13_2 C27_2 1_555 1_555
C28_2 C22_2 1_555 1_555
H14_2 C28_2 1_555 1_555
C29_2 C20_2 1_555 1_555
H15_2 C29_2 1_555 1_555
C30_2 C17_2 1_555 1_555
H16_2 C30_2 1_555 1_555
C27_2 C28_2 1_555 1_555
C29_2 C30_2 1_555 1_555
N3 C38_2 1_555 1_555
C34_2 C33_2 1_555 1_555
H19_2 C34_2 1_555 1_555
C36_2 C33_2 1_555 1_555
C37_2 C36_2 1_555 1_555
C38_2 C37_2 1_555 1_555
C39_2 N3 1_555 1_555
H23_2 C39_2 1_555 1_555
C40_2 C36_2 1_555 1_555
H24_2 C40_2 1_555 1_555
C39_2 C40_2 1_555 1_555
Zn3 N1_2 1_555 1_555
Zn4 O1_2 1_555 1_555
N1_2 C31_2 1_555 1_555
O1_2 Zn3 1_555 1_555
O2_2 Zn4 1_555 1_555
O3_2 Zn3 1_555 1_555
O7_2 C16_2 1_555 1_555
C16_2 O1_2 1_555 1_555
C31_2 H17_2 1_555 1_555
C32_2 C31_2 1_555 1_555
C35_2 N1_2 1_555 1_555
H20_2 C35_2 1_555 1_555
O11_2 Zn4 1_555 1_555
O4 C6 1_555 1_555
O5_2 C11_2 1_555 1_555
C2 C1 1_555 1_555
C3 C2 1_555 1_555
H1 C3 1_555 1_555
C4 C3 1_555 1_555
H2 C4 1_555 1_555
C5 C4 1_555 1_555
C6 C5 1_555 1_555
C7 C6 1_555 1_555
C8 C7 1_555 1_555
H3 C8 1_555 1_555
C9 C8 1_555 1_555
H4_2 C9 1_555 1_555
C10 C9 1_555 1_555
C11_2 C10 1_555 1_555
C12 C10 1_555 1_555
H5 C12 1_555 1_555
C13 C7 1_555 1_555
H6 C13 1_555 1_555
C14 C5 1_555 1_555
H7 C14 1_555 1_555
C15 C2 1_555 1_555
H8 C15 1_555 1_555
Zn5_2 O5_2 1_555 1_555
C12 C13 1_555 1_555
C14 C15 1_555 1_555
O11 C11_3 1_555 1_555
O12 C11_3 1_555 1_555
Zn1_2 N1_3 1_555 1_555
Zn5 O1_3 1_555 1_555
N1_3 C31_3 1_555 1_555
N2_2 C38_3 1_555 1_555
O1_3 Zn1_2 1_555 1_555
O2_3 Zn5 1_555 1_555
O3_3 Zn1_2 1_555 1_555
O4_2 C6_2 1_555 1_555
O7_3 C16_3 1_555 1_555
O8_3 C21_3 1_555 1_555
O9_2 C26_3 1_555 1_555
O10_2 C26_3 1_555 1_555
C1_2 O2_3 1_555 1_555
C2_2 C1_2 1_555 1_555
C3_2 C2_2 1_555 1_555
H1_2 C3_2 1_555 1_555
C4_2 C3_2 1_555 1_555
H2_2 C4_2 1_555 1_555
C5_2 C4_2 1_555 1_555
C6_2 C5_2 1_555 1_555
C7_2 C6_2 1_555 1_555
C8_2 C7_2 1_555 1_555
H3_2 C8_2 1_555 1_555
C9_2 C8_2 1_555 1_555
C10_2 C9_2 1_555 1_555
C12_2 C10_2 1_555 1_555
H5_2 C12_2 1_555 1_555
C13_2 C7_2 1_555 1_555
H6_2 C13_2 1_555 1_555
C14_2 C5_2 1_555 1_555
H7_2 C14_2 1_555 1_555
C15_2 C2_2 1_555 1_555
H8_2 C15_2 1_555 1_555
C16_3 O1_3 1_555 1_555
C17_3 C16_3 1_555 1_555
C18_3 C17_3 1_555 1_555
H9_3 C18_3 1_555 1_555
C19_3 C18_3 1_555 1_555
H10_3 C19_3 1_555 1_555
C20_3 C19_3 1_555 1_555
C21_3 C20_3 1_555 1_555
C22_3 C21_3 1_555 1_555
C23_3 C22_3 1_555 1_555
H11_3 C23_3 1_555 1_555
C24_3 C23_3 1_555 1_555
H12_3 C24_3 1_555 1_555
C25_3 C24_3 1_555 1_555
C26_3 C25_3 1_555 1_555
C27_3 C25_3 1_555 1_555
H13_3 C27_3 1_555 1_555
C28_3 C22_3 1_555 1_555
H14_3 C28_3 1_555 1_555
C29_3 C20_3 1_555 1_555
H15_3 C29_3 1_555 1_555
C30_3 C17_3 1_555 1_555
H16_3 C30_3 1_555 1_555
C31_3 H17_3 1_555 1_555
C32_3 C31_3 1_555 1_555
H18_2 C32_3 1_555 1_555
C33_3 C32_3 1_555 1_555
C34_3 C33_3 1_555 1_555
H19_3 C34_3 1_555 1_555
C35_3 N1_3 1_555 1_555
H20_3 C35_3 1_555 1_555
C36_3 C33_3 1_555 1_555
C37_3 C36_3 1_555 1_555
H21 C37_3 1_555 1_555
C38_3 C37_3 1_555 1_555
H22 C38_3 1_555 1_555
C39_3 N2_2 1_555 1_555
H23_3 C39_3 1_555 1_555
C40_3 C36_3 1_555 1_555
H24_3 C40_3 1_555 1_555
Zn3_2 O9_2 1_555 1_555
N3_2 Zn5 1_555 1_555
O13_2 Zn1_2 1_555 1_555
O14_2 Zn1_2 1_555 1_555
O3_3 C1_2 1_555 1_555
O10_2 Zn3_2 1_555 1_555
C12_2 C13_2 1_555 1_555
C14_2 C15_2 1_555 1_555
C27_3 C28_3 1_555 1_555
C29_3 C30_3 1_555 1_555
C34_3 C35_3 1_555 1_555
C39_3 C40_3 1_555 1_555
O8_4 C21_4 1_555 1_555
C18_4 C17_4 1_555 1_555
H9_4 C18_4 1_555 1_555
C19_4 C18_4 1_555 1_555
H10_4 C19_4 1_555 1_555
C20_4 C19_4 1_555 1_555
C21_4 C20_4 1_555 1_555
C22_4 C21_4 1_555 1_555
H13_4 C27_4 1_555 1_555
C28_4 C22_4 1_555 1_555
H14_4 C28_4 1_555 1_555
C29_4 C20_4 1_555 1_555
H15_4 C29_4 1_555 1_555
C30_4 C17_4 1_555 1_555
H16_4 C30_4 1_555 1_555
C27_4 C28_4 1_555 1_555
C29_4 C30_4 1_555 1_555
O13_2 C26_4 1_555 1_555
O14_2 C26_4 1_555 1_555
H11_4 C23_4 1_555 1_555
C24_4 C23_4 1_555 1_555
H12_4 C24_4 1_555 1_555
C25_4 C24_4 1_555 1_555
C26_4 C25_4 1_555 1_555
Zn3_2 N1_4 1_555 1_555
Zn5_2 O1_4 1_555 1_555
N1_4 C31_4 1_555 1_555
O1_4 Zn3_2 1_555 1_555
O2_4 Zn5_2 1_555 1_555
O3_4 Zn3_2 1_555 1_555
O4_3 C6_3 1_555 1_555
O11_2 C11_4 1_555 1_555
O7_4 C16_4 1_555 1_555
C1_3 O2_4 1_555 1_555
C2_3 C1_3 1_555 1_555
C3_3 C2_3 1_555 1_555
H1_3 C3_3 1_555 1_555
C4_3 C3_3 1_555 1_555
H2_3 C4_3 1_555 1_555
C5_3 C4_3 1_555 1_555
C6_3 C5_3 1_555 1_555
C7_3 C6_3 1_555 1_555
C8_3 C7_3 1_555 1_555
H3_3 C8_3 1_555 1_555
C9_3 C8_3 1_555 1_555
H4_4 C9_3 1_555 1_555
C10_3 C9_3 1_555 1_555
C11_4 C10_3 1_555 1_555
C12_3 C10_3 1_555 1_555
H5_3 C12_3 1_555 1_555
C13_3 C7_3 1_555 1_555
H6_3 C13_3 1_555 1_555
C14_3 C5_3 1_555 1_555
H7_3 C14_3 1_555 1_555
C15_3 C2_3 1_555 1_555
H8_3 C15_3 1_555 1_555
C16_4 O1_4 1_555 1_555
C31_4 H17_4 1_555 1_555
C32_4 C31_4 1_555 1_555
H18_3 C32_4 1_555 1_555
C35_4 N1_4 1_555 1_555
H20_4 C35_4 1_555 1_555
O3_4 C1_3 1_555 1_555
C12_3 C13_3 1_555 1_555
C14_3 C15_3 1_555 1_555
N3_2 C38_4 1_555 1_555
C34_4 C33_4 1_555 1_555
H19_4 C34_4 1_555 1_555
C36_4 C33_4 1_555 1_555
C37_4 C36_4 1_555 1_555
H21_2 C37_4 1_555 1_555
C38_4 C37_4 1_555 1_555
H22_2 C38_4 1_555 1_555
C39_4 N3_2 1_555 1_555
H23_4 C39_4 1_555 1_555
C40_4 C36_4 1_555 1_555
H24_4 C40_4 1_555 1_555
C39_4 C40_4 1_555 1_555
O4_4 C6_4 1_555 1_555
C2_4 C1_4 1_555 1_555
C3_4 C2_4 1_555 1_555
H1_4 C3_4 1_555 1_555
C4_4 C3_4 1_555 1_555
H2_4 C4_4 1_555 1_555
C5_4 C4_4 1_555 1_555
C6_4 C5_4 1_555 1_555
C7_4 C6_4 1_555 1_555
C8_4 C7_4 1_555 1_555
H3_4 C8_4 1_555 1_555
C9_4 C8_4 1_555 1_555
C10_4 C9_4 1_555 1_555
C12_4 C10_4 1_555 1_555
H5_4 C12_4 1_555 1_555
C13_4 C7_4 1_555 1_555
H6_4 C13_4 1_555 1_555
C14_4 C5_4 1_555 1_555
H7_4 C14_4 1_555 1_555
C15_4 C2_4 1_555 1_555
H8_4 C15_4 1_555 1_555
C12_4 C13_4 1_555 1_555
C14_4 C15_4 1_555 1_555
Zn1_3 N1_5 1_555 1_555
Zn2_2 O1_5 1_555 1_555
N1_5 C31_5 1_555 1_555
N2_3 C38_5 1_555 1_555
O1_5 Zn1_3 1_555 1_555
O2_5 Zn2_2 1_555 1_555
O3_5 Zn1_3 1_555 1_555
O4_5 C6_5 1_555 1_555
O7_5 C16_5 1_555 1_555
O8_5 C21_5 1_555 1_555
O9_3 C26_5 1_555 1_555
O10_3 C26_5 1_555 1_555
C1_5 O2_5 1_555 1_555
C2_5 C1_5 1_555 1_555
C3_5 C2_5 1_555 1_555
H1_5 C3_5 1_555 1_555
C4_5 C3_5 1_555 1_555
H2_5 C4_5 1_555 1_555
C5_5 C4_5 1_555 1_555
C6_5 C5_5 1_555 1_555
C7_5 C6_5 1_555 1_555
C8_5 C7_5 1_555 1_555
H3_5 C8_5 1_555 1_555
C9_5 C8_5 1_555 1_555
C10_5 C9_5 1_555 1_555
C12_5 C10_5 1_555 1_555
H5_5 C12_5 1_555 1_555
C13_5 C7_5 1_555 1_555
H6_5 C13_5 1_555 1_555
C14_5 C5_5 1_555 1_555
H7_5 C14_5 1_555 1_555
C15_5 C2_5 1_555 1_555
H8_5 C15_5 1_555 1_555
C16_5 O1_5 1_555 1_555
C17_5 C16_5 1_555 1_555
C18_5 C17_5 1_555 1_555
H9_5 C18_5 1_555 1_555
C19_5 C18_5 1_555 1_555
H10_5 C19_5 1_555 1_555
C20_5 C19_5 1_555 1_555
C21_5 C20_5 1_555 1_555
C22_5 C21_5 1_555 1_555
C23_5 C22_5 1_555 1_555
H11_5 C23_5 1_555 1_555
C24_5 C23_5 1_555 1_555
H12_5 C24_5 1_555 1_555
C25_5 C24_5 1_555 1_555
C26_5 C25_5 1_555 1_555
C27_5 C25_5 1_555 1_555
H13_5 C27_5 1_555 1_555
C28_5 C22_5 1_555 1_555
H14_5 C28_5 1_555 1_555
C29_5 C20_5 1_555 1_555
H15_5 C29_5 1_555 1_555
C30_5 C17_5 1_555 1_555
H16_5 C30_5 1_555 1_555
C31_5 H17_5 1_555 1_555
C32_5 C31_5 1_555 1_555
H18_5 C32_5 1_555 1_555
C33_5 C32_5 1_555 1_555
C34_5 C33_5 1_555 1_555
H19_5 C34_5 1_555 1_555
C35_5 N1_5 1_555 1_555
H20_5 C35_5 1_555 1_555
C36_5 C33_5 1_555 1_555
C37_5 C36_5 1_555 1_555
H21_4 C37_5 1_555 1_555
C38_5 C37_5 1_555 1_555
H22_4 C38_5 1_555 1_555
C39_5 N2_3 1_555 1_555
H23_5 C39_5 1_555 1_555
C40_5 C36_5 1_555 1_555
H24_5 C40_5 1_555 1_555
Zn3_3 O9_3 1_555 1_555
N3_3 Zn2_2 1_555 1_555
O11_3 Zn2_2 1_555 1_555
O12_3 Zn2_2 1_555 1_555
O13_3 Zn1_3 1_555 1_555
O14_3 Zn1_3 1_555 1_555
O3_5 C1_5 1_555 1_555
O10_3 Zn3_3 1_555 1_555
C12_5 C13_5 1_555 1_555
C14_5 C15_5 1_555 1_555
C27_5 C28_5 1_555 1_555
C29_5 C30_5 1_555 1_555
C34_5 C35_5 1_555 1_555
C39_5 C40_5 1_555 1_555
O5_3 C11_5 1_555 1_555
O6_3 C11_5 1_555 1_555
Zn5_3 O5_3 1_555 1_555
O6_3 Zn5_3 1_555 1_555
N3_3 C38_6 1_555 1_555
C34_6 C33_6 1_555 1_555
H19_6 C34_6 1_555 1_555
C36_6 C33_6 1_555 1_555
C37_6 C36_6 1_555 1_555
H21_5 C37_6 1_555 1_555
C38_6 C37_6 1_555 1_555
H22_5 C38_6 1_555 1_555
C39_6 N3_3 1_555 1_555
H23_6 C39_6 1_555 1_555
C40_6 C36_6 1_555 1_555
H24_6 C40_6 1_555 1_555
C39_6 C40_6 1_555 1_555
Zn3_3 N1_6 1_555 1_555
Zn4_2 O1_6 1_555 1_555
N1_6 C31_6 1_555 1_555
O1_6 Zn3_3 1_555 1_555
O2_6 Zn4_2 1_555 1_555
O3_6 Zn3_3 1_555 1_555
O4_6 C6_6 1_555 1_555
O5_4 C11_6 1_555 1_555
O7_6 C16_6 1_555 1_555
C1_6 O2_6 1_555 1_555
C2_6 C1_6 1_555 1_555
C3_6 C2_6 1_555 1_555
H1_6 C3_6 1_555 1_555
C4_6 C3_6 1_555 1_555
H2_6 C4_6 1_555 1_555
C5_6 C4_6 1_555 1_555
C6_6 C5_6 1_555 1_555
C7_6 C6_6 1_555 1_555
C8_6 C7_6 1_555 1_555
H3_6 C8_6 1_555 1_555
C9_6 C8_6 1_555 1_555
H4_6 C9_6 1_555 1_555
C10_6 C9_6 1_555 1_555
C11_6 C10_6 1_555 1_555
C12_6 C10_6 1_555 1_555
H5_6 C12_6 1_555 1_555
C13_6 C7_6 1_555 1_555
H6_6 C13_6 1_555 1_555
C14_6 C5_6 1_555 1_555
H7_6 C14_6 1_555 1_555
C15_6 C2_6 1_555 1_555
H8_6 C15_6 1_555 1_555
C16_6 O1_6 1_555 1_555
C31_6 H17_6 1_555 1_555
C32_6 C31_6 1_555 1_555
H18_6 C32_6 1_555 1_555
C35_6 N1_6 1_555 1_555
H20_6 C35_6 1_555 1_555
Zn5_4 O5_4 1_555 1_555
O11_4 Zn4_2 1_555 1_555
O3_6 C1_6 1_555 1_555
C12_6 C13_6 1_555 1_555
C14_6 C15_6 1_555 1_555
O13_3 C26_6 1_555 1_555
O14_3 C26_6 1_555 1_555
H11_6 C23_6 1_555 1_555
C24_6 C23_6 1_555 1_555
H12_6 C24_6 1_555 1_555
C25_6 C24_6 1_555 1_555
C26_6 C25_6 1_555 1_555
O8_6 C21_6 1_555 1_555
C18_6 C17_6 1_555 1_555
H9_6 C18_6 1_555 1_555
C19_6 C18_6 1_555 1_555
H10_6 C19_6 1_555 1_555
C20_6 C19_6 1_555 1_555
C21_6 C20_6 1_555 1_555
C22_6 C21_6 1_555 1_555
H13_6 C27_6 1_555 1_555
C28_6 C22_6 1_555 1_555
H14_6 C28_6 1_555 1_555
C29_6 C20_6 1_555 1_555
H15_6 C29_6 1_555 1_555
C30_6 C17_6 1_555 1_555
H16_6 C30_6 1_555 1_555
C27_6 C28_6 1_555 1_555
C29_6 C30_6 1_555 1_555
O11_3 C11_7 1_555 1_555
O12_3 C11_7 1_555 1_555
Zn1_4 N1_7 1_555 1_555
Zn5_3 O1_7 1_555 1_555
N1_7 C31_7 1_555 1_555
N2_4 C38_7 1_555 1_555
O1_7 Zn1_4 1_555 1_555
O2_7 Zn5_3 1_555 1_555
O3_7 Zn1_4 1_555 1_555
O7_7 C16_7 1_555 1_555
O8_7 C21_7 1_555 1_555
O9_4 C26_7 1_555 1_555
O10_4 C26_7 1_555 1_555
C16_7 O1_7 1_555 1_555
C17_7 C16_7 1_555 1_555
C18_7 C17_7 1_555 1_555
H9_7 C18_7 1_555 1_555
C19_7 C18_7 1_555 1_555
H10_7 C19_7 1_555 1_555
C20_7 C19_7 1_555 1_555
C21_7 C20_7 1_555 1_555
C22_7 C21_7 1_555 1_555
C23_7 C22_7 1_555 1_555
H11_7 C23_7 1_555 1_555
C24_7 C23_7 1_555 1_555
H12_7 C24_7 1_555 1_555
C25_7 C24_7 1_555 1_555
C26_7 C25_7 1_555 1_555
C27_7 C25_7 1_555 1_555
H13_7 C27_7 1_555 1_555
C28_7 C22_7 1_555 1_555
H14_7 C28_7 1_555 1_555
C29_7 C20_7 1_555 1_555
H15_7 C29_7 1_555 1_555
C30_7 C17_7 1_555 1_555
H16_7 C30_7 1_555 1_555
C31_7 H17_7 1_555 1_555
C32_7 C31_7 1_555 1_555
C33_7 C32_7 1_555 1_555
C34_7 C33_7 1_555 1_555
H19_7 C34_7 1_555 1_555
C35_7 N1_7 1_555 1_555
H20_7 C35_7 1_555 1_555
C36_7 C33_7 1_555 1_555
C37_7 C36_7 1_555 1_555
C38_7 C37_7 1_555 1_555
C39_7 N2_4 1_555 1_555
H23_7 C39_7 1_555 1_555
C40_7 C36_7 1_555 1_555
H24_7 C40_7 1_555 1_555
Zn3_4 O9_4 1_555 1_555
N3_4 Zn5_3 1_555 1_555
O13_4 Zn1_4 1_555 1_555
O14_4 Zn1_4 1_555 1_555
O10_4 Zn3_4 1_555 1_555
C27_7 C28_7 1_555 1_555
C29_7 C30_7 1_555 1_555
C34_7 C35_7 1_555 1_555
C39_7 C40_7 1_555 1_555
O4_7 C6_7 1_555 1_555
O11_4 C11_8 1_555 1_555
C2_7 C1_7 1_555 1_555
C3_7 C2_7 1_555 1_555
H1_7 C3_7 1_555 1_555
C4_7 C3_7 1_555 1_555
H2_7 C4_7 1_555 1_555
C5_7 C4_7 1_555 1_555
C6_7 C5_7 1_555 1_555
C7_7 C6_7 1_555 1_555
C8_7 C7_7 1_555 1_555
H3_7 C8_7 1_555 1_555
C9_7 C8_7 1_555 1_555
H4_8 C9_7 1_555 1_555
C10_7 C9_7 1_555 1_555
C11_8 C10_7 1_555 1_555
C12_7 C10_7 1_555 1_555
H5_7 C12_7 1_555 1_555
C13_7 C7_7 1_555 1_555
H6_7 C13_7 1_555 1_555
C14_7 C5_7 1_555 1_555
H7_7 C14_7 1_555 1_555
C15_7 C2_7 1_555 1_555
H8_7 C15_7 1_555 1_555
C12_7 C13_7 1_555 1_555
C14_7 C15_7 1_555 1_555
Zn3_4 N1_8 1_555 1_555
Zn5_4 O1_8 1_555 1_555
N1_8 C31_8 1_555 1_555
O1_8 Zn3_4 1_555 1_555
O2_8 Zn5_4 1_555 1_555
O3_8 Zn3_4 1_555 1_555
O7_8 C16_8 1_555 1_555
C16_8 O1_8 1_555 1_555
C31_8 H17_8 1_555 1_555
C32_8 C31_8 1_555 1_555
C35_8 N1_8 1_555 1_555
H20_8 C35_8 1_555 1_555
N3_4 C38_8 1_555 1_555
C34_8 C33_8 1_555 1_555
H19_8 C34_8 1_555 1_555
C36_8 C33_8 1_555 1_555
C37_8 C36_8 1_555 1_555
C38_8 C37_8 1_555 1_555
C39_8 N3_4 1_555 1_555
H23_8 C39_8 1_555 1_555
C40_8 C36_8 1_555 1_555
H24_8 C40_8 1_555 1_555
C39_8 C40_8 1_555 1_555
O8_8 C21_8 1_555 1_555
C18_8 C17_8 1_555 1_555
H9_8 C18_8 1_555 1_555
C19_8 C18_8 1_555 1_555
H10_8 C19_8 1_555 1_555
C20_8 C19_8 1_555 1_555
C21_8 C20_8 1_555 1_555
C22_8 C21_8 1_555 1_555
H13_8 C27_8 1_555 1_555
C28_8 C22_8 1_555 1_555
H14_8 C28_8 1_555 1_555
C29_8 C20_8 1_555 1_555
H15_8 C29_8 1_555 1_555
C30_8 C17_8 1_555 1_555
H16_8 C30_8 1_555 1_555
C27_8 C28_8 1_555 1_555
C29_8 C30_8 1_555 1_555
O13_4 C26_8 1_555 1_555
O14_4 C26_8 1_555 1_555
H11_8 C23_8 1_555 1_555
C24_8 C23_8 1_555 1_555
H12_8 C24_8 1_555 1_555
C25_8 C24_8 1_555 1_555
C26_8 C25_8 1_555 1_555
O4_8 C6_8 1_555 1_555
C2_8 C1_8 1_555 1_555
C3_8 C2_8 1_555 1_555
H1_8 C3_8 1_555 1_555
C4_8 C3_8 1_555 1_555
H2_8 C4_8 1_555 1_555
C5_8 C4_8 1_555 1_555
C6_8 C5_8 1_555 1_555
C7_8 C6_8 1_555 1_555
C8_8 C7_8 1_555 1_555
H3_8 C8_8 1_555 1_555
C9_8 C8_8 1_555 1_555
C10_8 C9_8 1_555 1_555
C12_8 C10_8 1_555 1_555
H5_8 C12_8 1_555 1_555
C13_8 C7_8 1_555 1_555
H6_8 C13_8 1_555 1_555
C14_8 C5_8 1_555 1_555
H7_8 C14_8 1_555 1_555
C15_8 C2_8 1_555 1_555
H8_8 C15_8 1_555 1_555
C12_8 C13_8 1_555 1_555
C14_8 C15_8 1_555 1_555

#END
