
###############################################################################
#
# This file contains modified crystal structure data generated from the
# MOF subset of the Cambridge Structural Database (CSD) v543 
# hosted by the Cambridge Crystallographic Data Centre (CCDC).
#
# This work is licensed under the Creative Commons
# Attribution-NonCommercial-ShareAlike 4.0 International License.
# To view a copy of this license, visit
# http://creativecommons.org/licenses/by-nc-sa/4.0/
# or send a letter to
# Creative Commons, PO Box 1866, Mountain View, CA 94042, USA.
#
# CIF created using the CSD Python API on 29 September 2022
# The structure has been converted into the P1 space group
# The structure has a 3D framework
# The original CSD entry VIVSEA is in the monoclinic crystal system
# The framework has been calculated to contain at least 10.0% void space
# The void calculation uses a probe of radius 1.32A, grid spacing 0.4
#
###############################################################################

data_VIVSEA
_chemical_formula_moiety         '(C320 H192 N16 O80 Zn16)n'
_symmetry_cell_setting           triclinic
_symmetry_space_group_name_H-M   'P 1'
_symmetry_Int_Tables_number      1
_space_group_name_Hall           'P 1'
loop_
_symmetry_equiv_pos_site_id
_symmetry_equiv_pos_as_xyz
1 x,y,z
_cell_length_a                   21.150(4)
_cell_length_b                   18.850(4)
_cell_length_c                   26.200(5)
_cell_angle_alpha                90
_cell_angle_beta                 102.90(3)
_cell_angle_gamma                90
_cell_volume                     10181.7
loop_
_atom_site_label
_atom_site_type_symbol
_atom_site_fract_x
_atom_site_fract_y
_atom_site_fract_z
Zn1 Zn 0.037230(16) 0.146818(19) 0.410881(12)
Zn2 Zn 0.128541(14) 0.284792(18) 0.428853(12)
N1 N 0.19600(12) 0.36077(14) 0.43445(10)
N2 N 0.45200(13) 0.59510(16) 0.41994(10)
O2 O 0.04731(11) 0.33197(14) 0.39933(11)
O3 O 0.13245(12) 0.26260(14) 0.50288(9)
O4 O 0.06259(11) 0.17195(13) 0.48756(8)
O5 O 0.1739(3) 0.2326(3) 0.76706(13)
C2 C 0.10024(14) 0.21285(16) 0.51722(11)
C3 C 0.10915(15) 0.20399(19) 0.57517(11)
C4 C 0.16568(18) 0.2291(2) 0.60825(14)
H1 H 0.1970 0.2516 0.5942
C5 C 0.1754(2) 0.2207(3) 0.66162(15)
H2 H 0.2137 0.2370 0.6833
C6 C 0.1287(2) 0.1882(2) 0.68354(13)
C7 C 0.1409(3) 0.1867(3) 0.74197(15)
C8 C 0.1155(2) 0.1277(2) 0.77054(13)
C9 C 0.09925(19) 0.0611(2) 0.74875(12)
H3 H 0.1003 0.0528 0.7140
C10 C 0.08151(18) 0.0069(2) 0.77866(13)
C11 C 0.08182(15) 0.01871(19) 0.83104(12)
C13 C 0.0969(2) 0.0856(2) 0.85267(13)
H5 H 0.0956 0.0939 0.8874
C14 C 0.1139(2) 0.1396(2) 0.82293(15)
H6 H 0.1243 0.1841 0.8377
C15 C 0.0721(2) 0.1630(2) 0.65049(14)
H7 H 0.0404 0.1413 0.6647
C16 C 0.06271(17) 0.1702(2) 0.59696(13)
H8 H 0.0252 0.1524 0.5752
C17 C 0.24433(14) 0.37123(18) 0.47649(11)
H9 H 0.2446 0.3450 0.5066
C18 C 0.29396(14) 0.41945(18) 0.47703(11)
H10 H 0.3270 0.4248 0.5068
C19 C 0.29376(14) 0.45979(18) 0.43255(11)
C20 C 0.24129(18) 0.4512(2) 0.38995(13)
H11 H 0.2380 0.4789 0.3601
C21 C 0.19444(18) 0.4014(2) 0.39244(13)
H12 H 0.1602 0.3957 0.3635
C22 C 0.34801(15) 0.50802(18) 0.42860(12)
C23 C 0.3924(2) 0.5301(3) 0.47208(14)
H13 H 0.3881 0.5170 0.5054
C24 C 0.4441(2) 0.5724(3) 0.46562(14)
H14 H 0.4748 0.5853 0.4954
C25 C 0.40905(19) 0.5724(3) 0.37736(14)
H15 H 0.4144 0.5866 0.3446
C26 C 0.35753(19) 0.5292(3) 0.38002(14)
H16 H 0.3292 0.5143 0.3495
Zn4 Zn 0.537230(16) 0.646818(19) 0.410881(12)
O11 O 0.04091(12) 0.09661(14) 0.34148(9)
O12 O 0.08189(13) 0.03667(15) 0.41277(9)
O13 O 0.14715(12) 0.18797(14) 0.40710(10)
O14 O 0.15413(15) 0.25508(15) 0.33968(12)
O6 O 0.04091(12) 0.90339(14) 0.84148(9)
O7 O 0.08189(13) 0.96333(15) 0.91277(9)
H4 H 0.0695 0.9628 0.7637
C12 C 0.06703(15) 0.95885(19) 0.86372(12)
Zn5 Zn 0.037230(16) 0.853182(19) 0.910881(12)
O1 O 0.99171(11) 0.23240(13) 0.37465(10)
O8 O 0.75007(18) 0.4485(2) 0.22707(12)
O9 O 0.64715(12) 0.68797(14) 0.40710(10)
O10 O 0.65413(15) 0.75508(15) 0.33968(12)
C1 C 0.99762(14) 0.29820(19) 0.37581(13)
C27 C 0.94076(15) 0.34221(19) 0.34836(14)
C28 C 0.93390(17) 0.4110(2) 0.36436(17)
H17 H 0.9653 0.4307 0.3912
C29 C 0.88036(19) 0.4508(2) 0.34063(17)
H18 H 0.8756 0.4968 0.3520
C30 C 0.83400(17) 0.4223(2) 0.30014(14)
C31 C 0.77701(18) 0.4647(2) 0.27098(14)
C32 C 0.75265(16) 0.5263(2) 0.29734(13)
C33 C 0.74780(17) 0.5237(2) 0.34964(13)
H19 H 0.7643 0.4851 0.3705
C34 C 0.71810(16) 0.5792(2) 0.37027(13)
H20 H 0.7143 0.5770 0.4049
C35 C 0.69401(14) 0.63778(18) 0.34016(12)
C36 C 0.66278(14) 0.69810(19) 0.36232(13)
C37 C 0.70019(18) 0.6409(2) 0.28837(14)
H21 H 0.6853 0.6806 0.2681
C38 C 0.72846(19) 0.5851(2) 0.26683(13)
H22 H 0.7313 0.5870 0.2319
C39 C 0.8427(2) 0.3546(2) 0.2824(2)
H23 H 0.8131 0.3365 0.2537
C40 C 0.8950(2) 0.3137(2) 0.30676(19)
H24 H 0.8996 0.2675 0.2955
Zn6 Zn 0.628541(14) 0.784792(18) 0.428853(12)
N3 N 0.95200(13) 0.09510(16) 0.41994(10)
C22_2 C 0.84801(15) 0.00802(18) 0.42860(12)
C23_2 C 0.8924(2) 0.0301(3) 0.47208(14)
H13_2 H 0.8881 0.0170 0.5054
C24_2 C 0.9441(2) 0.0724(3) 0.46562(14)
H14_2 H 0.9748 0.0853 0.4954
C25_2 C 0.90905(19) 0.0724(3) 0.37736(14)
H15_2 H 0.9144 0.0866 0.3446
C26_2 C 0.85753(19) 0.0292(3) 0.38002(14)
H16_2 H 0.8292 0.0143 0.3495
C32_2 C 0.25265(16) 0.0263(2) 0.29734(13)
C33_2 C 0.24780(17) 0.0237(2) 0.34964(13)
C34_2 C 0.21810(16) 0.0792(2) 0.37027(13)
H20_2 H 0.2143 0.0770 0.4049
C35_2 C 0.19401(14) 0.13778(18) 0.34016(12)
C36_2 C 0.16278(14) 0.19810(19) 0.36232(13)
C37_2 C 0.20019(18) 0.1409(2) 0.28837(14)
H21_2 H 0.1853 0.1806 0.2681
C38_2 C 0.22846(19) 0.0851(2) 0.26683(13)
H22_2 H 0.2313 0.0870 0.2319
N1_2 N 0.69600(12) 0.86077(14) 0.43445(10)
O1_2 O 0.49171(11) 0.73240(13) 0.37465(10)
O2_2 O 0.54731(11) 0.83197(14) 0.39933(11)
O3_2 O 0.63245(12) 0.76260(14) 0.50288(9)
O4_2 O 0.56259(11) 0.67195(13) 0.48756(8)
O5_2 O 0.6739(3) 0.7326(3) 0.76706(13)
O6_2 O 0.54091(12) 0.40339(14) 0.84148(9)
O7_2 O 0.58189(13) 0.46333(15) 0.91277(9)
O8_2 O 0.25007(18) 0.9485(2) 0.22707(12)
C1_2 C 0.49762(14) 0.79820(19) 0.37581(13)
C2_2 C 0.60024(14) 0.71285(16) 0.51722(11)
C3_2 C 0.60915(15) 0.70399(19) 0.57517(11)
C4_2 C 0.66568(18) 0.7291(2) 0.60825(14)
H1_2 H 0.6970 0.7516 0.5942
C5_2 C 0.6754(2) 0.7207(3) 0.66162(15)
H2_2 H 0.7137 0.7370 0.6833
C6_2 C 0.6287(2) 0.6882(2) 0.68354(13)
C7_2 C 0.6409(3) 0.6867(3) 0.74197(15)
C8_2 C 0.6155(2) 0.6277(2) 0.77054(13)
C9_2 C 0.59925(19) 0.5611(2) 0.74875(12)
H3_2 H 0.6003 0.5528 0.7140
C10_2 C 0.58151(18) 0.5069(2) 0.77866(13)
H4_2 H 0.5695 0.4628 0.7637
C11_2 C 0.58182(15) 0.51871(19) 0.83104(12)
C12_2 C 0.56703(15) 0.45885(19) 0.86372(12)
C13_2 C 0.5969(2) 0.5856(2) 0.85267(13)
H5_2 H 0.5956 0.5939 0.8874
C14_2 C 0.6139(2) 0.6396(2) 0.82293(15)
H6_2 H 0.6243 0.6841 0.8377
C15_2 C 0.5721(2) 0.6630(2) 0.65049(14)
H7_2 H 0.5404 0.6413 0.6647
C16_2 C 0.56271(17) 0.6702(2) 0.59696(13)
H8_2 H 0.5252 0.6524 0.5752
C17_2 C 0.74433(14) 0.87123(18) 0.47649(11)
H9_2 H 0.7446 0.8450 0.5066
C18_2 C 0.79396(14) 0.91945(18) 0.47703(11)
H10_2 H 0.8270 0.9248 0.5068
C19_2 C 0.79376(14) 0.95979(18) 0.43255(11)
C20_2 C 0.74129(18) 0.9512(2) 0.38995(13)
H11_2 H 0.7380 0.9789 0.3601
C21_2 C 0.69444(18) 0.9014(2) 0.39244(13)
H12_2 H 0.6602 0.8957 0.3635
C27_2 C 0.44076(15) 0.84221(19) 0.34836(14)
C28_2 C 0.43390(17) 0.9110(2) 0.36436(17)
H17_2 H 0.4653 0.9307 0.3912
C29_2 C 0.38036(19) 0.9508(2) 0.34063(17)
H18_2 H 0.3756 0.9968 0.3520
C30_2 C 0.33400(17) 0.9223(2) 0.30014(14)
C31_2 C 0.27701(18) 0.9647(2) 0.27098(14)
H19_2 H 0.2643 0.9851 0.3705
C39_2 C 0.3427(2) 0.8546(2) 0.2824(2)
H23_2 H 0.3131 0.8365 0.2537
C40_2 C 0.3950(2) 0.8137(2) 0.30676(19)
H24_2 H 0.3996 0.7675 0.2955
Zn5_2 Zn 0.537230(16) 0.353182(19) 0.910881(12)
O11_2 O 0.54091(12) 0.59661(14) 0.34148(9)
O12_2 O 0.58189(13) 0.53667(15) 0.41277(9)
H4_3 H 0.0695 0.0372 0.2637
C12_3 C 0.06703(15) 0.04115(19) 0.36372(12)
Zn2_2 Zn 0.128541(14) 0.715208(18) 0.928853(12)
N1_3 N 0.19600(12) 0.63923(14) 0.93445(10)
N2_2 N 0.45200(13) 0.40490(16) 0.91994(10)
O2_3 O 0.04731(11) 0.66803(14) 0.89933(11)
O4_3 O 0.06259(11) 0.82805(13) 0.98756(8)
C17_3 C 0.24433(14) 0.62877(18) 0.97649(11)
C18_3 C 0.29396(14) 0.58055(18) 0.97703(11)
C19_3 C 0.29376(14) 0.54021(18) 0.93255(11)
C20_3 C 0.24129(18) 0.5488(2) 0.88995(13)
H11_3 H 0.2380 0.5211 0.8601
C21_3 C 0.19444(18) 0.5986(2) 0.89244(13)
H12_3 H 0.1602 0.6043 0.8635
C22_3 C 0.34801(15) 0.49198(18) 0.92860(12)
C23_3 C 0.3924(2) 0.4699(3) 0.97208(14)
C24_3 C 0.4441(2) 0.4276(3) 0.96562(14)
H14_3 H 0.4748 0.4147 0.9954
C25_3 C 0.40905(19) 0.4276(3) 0.87736(14)
H15_3 H 0.4144 0.4134 0.8446
C26_3 C 0.35753(19) 0.4708(3) 0.88002(14)
H16_3 H 0.3292 0.4857 0.8495
O13_2 O 0.14715(12) 0.81203(14) 0.90710(10)
O14_2 O 0.15413(15) 0.74492(15) 0.83968(12)
O1_3 O 0.99171(11) 0.76760(13) 0.87465(10)
O8_3 O 0.75007(18) 0.5515(2) 0.72707(12)
O9_2 O 0.64715(12) 0.31203(14) 0.90710(10)
O10_2 O 0.65413(15) 0.24492(15) 0.83968(12)
C1_3 C 0.99762(14) 0.70180(19) 0.87581(13)
C27_3 C 0.94076(15) 0.65779(19) 0.84836(14)
C28_3 C 0.93390(17) 0.5890(2) 0.86436(17)
H17_3 H 0.9653 0.5693 0.8912
C29_3 C 0.88036(19) 0.5492(2) 0.84063(17)
H18_3 H 0.8756 0.5032 0.8520
C30_3 C 0.83400(17) 0.5777(2) 0.80014(14)
C31_3 C 0.77701(18) 0.5353(2) 0.77098(14)
C32_3 C 0.75265(16) 0.4737(2) 0.79734(13)
C33_3 C 0.74780(17) 0.4763(2) 0.84964(13)
H19_3 H 0.7643 0.5149 0.8705
C34_3 C 0.71810(16) 0.4208(2) 0.87027(13)
H20_3 H 0.7143 0.4230 0.9049
C35_3 C 0.69401(14) 0.36222(18) 0.84016(12)
C36_3 C 0.66278(14) 0.30190(19) 0.86232(13)
C37_3 C 0.70019(18) 0.3591(2) 0.78837(14)
H21_3 H 0.6853 0.3194 0.7681
C38_3 C 0.72846(19) 0.4149(2) 0.76683(13)
H22_3 H 0.7313 0.4130 0.7319
C39_3 C 0.8427(2) 0.6454(2) 0.7824(2)
H23_3 H 0.8131 0.6635 0.7537
C40_3 C 0.8950(2) 0.6863(2) 0.80676(19)
H24_3 H 0.8996 0.7325 0.7955
Zn6_2 Zn 0.628541(14) 0.215208(18) 0.928853(12)
N3_2 N 0.95200(13) 0.90490(16) 0.91994(10)
O3_3 O 0.63245(12) 0.23740(14) 0.00288(9)
O5_3 O 0.6739(3) 0.2674(3) 0.26706(13)
C2_3 C 0.60024(14) 0.28715(16) 0.01722(11)
C3_3 C 0.60915(15) 0.29601(19) 0.07517(11)
C4_3 C 0.66568(18) 0.2709(2) 0.10825(14)
H1_3 H 0.6970 0.2484 0.0942
C5_3 C 0.6754(2) 0.2793(3) 0.16162(15)
H2_3 H 0.7137 0.2630 0.1833
C6_3 C 0.6287(2) 0.3118(2) 0.18354(13)
C7_3 C 0.6409(3) 0.3133(3) 0.24197(15)
C8_3 C 0.6155(2) 0.3723(2) 0.27054(13)
C9_3 C 0.59925(19) 0.4389(2) 0.24875(12)
H3_3 H 0.6003 0.4472 0.2140
C10_3 C 0.58151(18) 0.4931(2) 0.27866(13)
H4_4 H 0.5695 0.5372 0.2637
C11_3 C 0.58182(15) 0.48129(19) 0.33104(12)
C12_4 C 0.56703(15) 0.54115(19) 0.36372(12)
C13_3 C 0.5969(2) 0.4144(2) 0.35267(13)
H5_3 H 0.5956 0.4061 0.3874
C14_3 C 0.6139(2) 0.3604(2) 0.32293(15)
H6_3 H 0.6243 0.3159 0.3377
C15_3 C 0.5721(2) 0.3370(2) 0.15049(14)
H7_3 H 0.5404 0.3587 0.1647
C16_3 C 0.56271(17) 0.3298(2) 0.09696(13)
H8_3 H 0.5252 0.3476 0.0752
H9_3 H 0.7446 0.1550 0.0066
H10_3 H 0.8270 0.0752 0.0068
N1_4 N 0.69600(12) 0.13923(14) 0.93445(10)
O1_4 O 0.49171(11) 0.26760(13) 0.87465(10)
O2_4 O 0.54731(11) 0.16803(14) 0.89933(11)
O4_4 O 0.56259(11) 0.32805(13) 0.98756(8)
O8_4 O 0.25007(18) 0.0515(2) 0.72707(12)
C1_4 C 0.49762(14) 0.20180(19) 0.87581(13)
C17_4 C 0.74433(14) 0.12877(18) 0.97649(11)
C18_4 C 0.79396(14) 0.08055(18) 0.97703(11)
C19_4 C 0.79376(14) 0.04021(18) 0.93255(11)
C20_4 C 0.74129(18) 0.0488(2) 0.88995(13)
H11_4 H 0.7380 0.0211 0.8601
C21_4 C 0.69444(18) 0.0986(2) 0.89244(13)
H12_4 H 0.6602 0.1043 0.8635
C27_4 C 0.44076(15) 0.15779(19) 0.84836(14)
C28_4 C 0.43390(17) 0.0890(2) 0.86436(17)
H17_4 H 0.4653 0.0693 0.8912
C29_4 C 0.38036(19) 0.0492(2) 0.84063(17)
H18_4 H 0.3756 0.0032 0.8520
C30_4 C 0.33400(17) 0.0777(2) 0.80014(14)
C31_4 C 0.27701(18) 0.0353(2) 0.77098(14)
H19_4 H 0.2643 0.0149 0.8705
C39_4 C 0.3427(2) 0.1454(2) 0.7824(2)
H23_4 H 0.3131 0.1635 0.7537
C40_4 C 0.3950(2) 0.1863(2) 0.80676(19)
H24_4 H 0.3996 0.2325 0.7955
C22_4 C 0.84801(15) 0.99198(18) 0.92860(12)
C23_4 C 0.8924(2) 0.9699(3) 0.97208(14)
C24_4 C 0.9441(2) 0.9276(3) 0.96562(14)
H14_4 H 0.9748 0.9147 0.9954
C25_4 C 0.90905(19) 0.9276(3) 0.87736(14)
H15_4 H 0.9144 0.9134 0.8446
C26_4 C 0.85753(19) 0.9708(3) 0.88002(14)
H16_4 H 0.8292 0.9857 0.8495
C32_4 C 0.25265(16) 0.9737(2) 0.79734(13)
C33_4 C 0.24780(17) 0.9763(2) 0.84964(13)
C34_4 C 0.21810(16) 0.9208(2) 0.87027(13)
H20_4 H 0.2143 0.9230 0.9049
C35_4 C 0.19401(14) 0.86222(18) 0.84016(12)
C36_4 C 0.16278(14) 0.80190(19) 0.86232(13)
C37_4 C 0.20019(18) 0.8591(2) 0.78837(14)
H21_4 H 0.1853 0.8194 0.7681
C38_4 C 0.22846(19) 0.9149(2) 0.76683(13)
H22_4 H 0.2313 0.9130 0.7319
O1_5 O 0.00829(11) 0.23240(13) 0.12535(10)
O8_5 O 0.24993(18) 0.4485(2) 0.27293(12)
O9_3 O 0.35285(12) 0.68797(14) 0.09290(10)
O10_3 O 0.34587(15) 0.75508(15) 0.16032(12)
C1_5 C 0.00238(14) 0.29820(19) 0.12419(13)
C27_5 C 0.05924(15) 0.34221(19) 0.15164(14)
C28_5 C 0.06610(17) 0.4110(2) 0.13564(17)
H17_5 H 0.0347 0.4307 0.1088
C29_5 C 0.11964(19) 0.4508(2) 0.15937(17)
H18_5 H 0.1244 0.4968 0.1480
C30_5 C 0.16600(17) 0.4223(2) 0.19986(14)
C31_5 C 0.22299(18) 0.4647(2) 0.22902(14)
C32_5 C 0.24735(16) 0.5263(2) 0.20266(13)
C33_5 C 0.25220(17) 0.5237(2) 0.15036(13)
H19_5 H 0.2357 0.4851 0.1295
C34_5 C 0.28190(16) 0.5792(2) 0.12973(13)
H20_5 H 0.2857 0.5770 0.0951
C35_5 C 0.30599(14) 0.63778(18) 0.15984(12)
C36_5 C 0.33722(14) 0.69810(19) 0.13768(13)
C37_5 C 0.29981(18) 0.6409(2) 0.21163(14)
H21_5 H 0.3147 0.6806 0.2319
C38_5 C 0.27154(19) 0.5851(2) 0.23317(13)
H22_5 H 0.2687 0.5870 0.2681
C39_5 C 0.1573(2) 0.3546(2) 0.2176(2)
H23_5 H 0.1869 0.3365 0.2463
C40_5 C 0.1050(2) 0.3137(2) 0.19324(19)
H24_5 H 0.1004 0.2675 0.2045
Zn3 Zn 0.462770(16) 0.646818(19) 0.089119(12)
Zn6_3 Zn 0.371459(14) 0.784792(18) 0.071147(12)
N3_3 N 0.04800(13) 0.09510(16) 0.08006(10)
Zn1_2 Zn 0.962770(16) 0.146818(19) 0.089119(12)
Zn2_3 Zn 0.871459(14) 0.284792(18) 0.071147(12)
N1_5 N 0.80400(12) 0.36077(14) 0.06555(10)
N2_3 N 0.54800(13) 0.59510(16) 0.08006(10)
O2_5 O 0.95269(11) 0.33197(14) 0.10067(11)
O4_5 O 0.93741(11) 0.17195(13) 0.01244(8)
C17_5 C 0.75567(14) 0.37123(18) 0.02351(11)
C18_5 C 0.70604(14) 0.41945(18) 0.02297(11)
C19_5 C 0.70624(14) 0.45979(18) 0.06745(11)
C20_5 C 0.75871(18) 0.4512(2) 0.11005(13)
H11_5 H 0.7620 0.4789 0.1399
C21_5 C 0.80556(18) 0.4014(2) 0.10756(13)
H12_5 H 0.8398 0.3957 0.1365
C22_5 C 0.65199(15) 0.50802(18) 0.07140(12)
C23_5 C 0.6076(2) 0.5301(3) 0.02792(14)
C24_5 C 0.5559(2) 0.5724(3) 0.03438(14)
H14_5 H 0.5252 0.5853 0.0046
C25_5 C 0.59095(19) 0.5724(3) 0.12264(14)
H15_5 H 0.5856 0.5866 0.1554
C26_5 C 0.64247(19) 0.5292(3) 0.11998(14)
H16_5 H 0.6708 0.5143 0.1505
O11_3 O 0.95909(12) 0.09661(14) 0.15852(9)
O12_3 O 0.91811(13) 0.03667(15) 0.08723(9)
O13_3 O 0.85285(12) 0.18797(14) 0.09290(10)
O14_3 O 0.84587(15) 0.25508(15) 0.16032(12)
O6_3 O 0.95909(12) 0.90339(14) 0.65852(9)
O7_3 O 0.91811(13) 0.96333(15) 0.58723(9)
H4_5 H 0.9305 0.9628 0.7363
C12_5 C 0.93297(15) 0.95885(19) 0.63628(12)
Zn5_3 Zn 0.962770(16) 0.853182(19) 0.589119(12)
C22_6 C 0.15199(15) 0.00802(18) 0.07140(12)
C23_6 C 0.1076(2) 0.0301(3) 0.02792(14)
C24_6 C 0.0559(2) 0.0724(3) 0.03438(14)
H14_6 H 0.0252 0.0853 0.0046
C25_6 C 0.09095(19) 0.0724(3) 0.12264(14)
H15_6 H 0.0856 0.0866 0.1554
C26_6 C 0.14247(19) 0.0292(3) 0.11998(14)
H16_6 H 0.1708 0.0143 0.1505
C32_6 C 0.74735(16) 0.0263(2) 0.20266(13)
C33_6 C 0.75220(17) 0.0237(2) 0.15036(13)
C34_6 C 0.78190(16) 0.0792(2) 0.12973(13)
H20_6 H 0.7857 0.0770 0.0951
C35_6 C 0.80599(14) 0.13778(18) 0.15984(12)
C36_6 C 0.83722(14) 0.19810(19) 0.13768(13)
C37_6 C 0.79981(18) 0.1409(2) 0.21163(14)
H21_6 H 0.8147 0.1806 0.2319
C38_6 C 0.77154(19) 0.0851(2) 0.23317(13)
H22_6 H 0.7687 0.0870 0.2681
N1_6 N 0.30400(12) 0.86077(14) 0.06555(10)
O1_6 O 0.50829(11) 0.73240(13) 0.12535(10)
O2_6 O 0.45269(11) 0.83197(14) 0.10067(11)
O4_6 O 0.43741(11) 0.67195(13) 0.01244(8)
O8_6 O 0.74993(18) 0.9485(2) 0.27293(12)
C1_6 C 0.50238(14) 0.79820(19) 0.12419(13)
C17_6 C 0.25567(14) 0.87123(18) 0.02351(11)
C18_6 C 0.20604(14) 0.91945(18) 0.02297(11)
C19_6 C 0.20624(14) 0.95979(18) 0.06745(11)
C20_6 C 0.25871(18) 0.9512(2) 0.11005(13)
H11_6 H 0.2620 0.9789 0.1399
C21_6 C 0.30556(18) 0.9014(2) 0.10756(13)
H12_6 H 0.3398 0.8957 0.1365
C27_6 C 0.55924(15) 0.84221(19) 0.15164(14)
C28_6 C 0.56610(17) 0.9110(2) 0.13564(17)
H17_6 H 0.5347 0.9307 0.1088
C29_6 C 0.61964(19) 0.9508(2) 0.15937(17)
H18_6 H 0.6244 0.9968 0.1480
C30_6 C 0.66600(17) 0.9223(2) 0.19986(14)
C31_6 C 0.72299(18) 0.9647(2) 0.22902(14)
H19_6 H 0.7357 0.9851 0.1295
C39_6 C 0.6573(2) 0.8546(2) 0.2176(2)
H23_6 H 0.6869 0.8365 0.2463
C40_6 C 0.6050(2) 0.8137(2) 0.19324(19)
H24_6 H 0.6004 0.7675 0.2045
O11_4 O 0.45909(12) 0.59661(14) 0.15852(9)
O12_4 O 0.41811(13) 0.53667(15) 0.08723(9)
O3_4 O 0.36755(12) 0.76260(14) 0.99712(9)
O5_4 O 0.3261(3) 0.7326(3) 0.73294(13)
O6_4 O 0.45909(12) 0.40339(14) 0.65852(9)
O7_4 O 0.41811(13) 0.46333(15) 0.58723(9)
C2_4 C 0.39976(14) 0.71285(16) 0.98278(11)
C3_4 C 0.39085(15) 0.70399(19) 0.92483(11)
C4_4 C 0.33432(18) 0.7291(2) 0.89175(14)
H1_4 H 0.3030 0.7516 0.9058
C5_4 C 0.3246(2) 0.7207(3) 0.83838(15)
H2_4 H 0.2863 0.7370 0.8167
C6_4 C 0.3713(2) 0.6882(2) 0.81646(13)
C7_4 C 0.3591(3) 0.6867(3) 0.75803(15)
C8_4 C 0.3845(2) 0.6277(2) 0.72946(13)
C9_4 C 0.40075(19) 0.5611(2) 0.75125(12)
H3_4 H 0.3997 0.5528 0.7860
C10_4 C 0.41849(18) 0.5069(2) 0.72134(13)
H4_6 H 0.4305 0.4628 0.7363
C11_4 C 0.41818(15) 0.51871(19) 0.66896(12)
C12_6 C 0.43297(15) 0.45885(19) 0.63628(12)
C13_4 C 0.4031(2) 0.5856(2) 0.64733(13)
H5_4 H 0.4044 0.5939 0.6126
C14_4 C 0.3861(2) 0.6396(2) 0.67707(15)
H6_4 H 0.3757 0.6841 0.6623
C15_4 C 0.4279(2) 0.6630(2) 0.84951(14)
H7_4 H 0.4596 0.6413 0.8353
C16_4 C 0.43729(17) 0.6702(2) 0.90304(13)
H8_4 H 0.4748 0.6524 0.9248
H9_4 H 0.2554 0.8450 0.9934
H10_4 H 0.1730 0.9248 0.9932
Zn5_4 Zn 0.462770(16) 0.353182(19) 0.589119(12)
O1_7 O 0.00829(11) 0.76760(13) 0.62535(10)
O8_7 O 0.24993(18) 0.5515(2) 0.77293(12)
O9_4 O 0.35285(12) 0.31203(14) 0.59290(10)
O10_4 O 0.34587(15) 0.24492(15) 0.66032(12)
C1_7 C 0.00238(14) 0.70180(19) 0.62419(13)
C27_7 C 0.05924(15) 0.65779(19) 0.65164(14)
C28_7 C 0.06610(17) 0.5890(2) 0.63564(17)
H17_7 H 0.0347 0.5693 0.6088
C29_7 C 0.11964(19) 0.5492(2) 0.65937(17)
H18_7 H 0.1244 0.5032 0.6480
C30_7 C 0.16600(17) 0.5777(2) 0.69986(14)
C31_7 C 0.22299(18) 0.5353(2) 0.72902(14)
C32_7 C 0.24735(16) 0.4737(2) 0.70266(13)
C33_7 C 0.25220(17) 0.4763(2) 0.65036(13)
H19_7 H 0.2357 0.5149 0.6295
C34_7 C 0.28190(16) 0.4208(2) 0.62973(13)
H20_7 H 0.2857 0.4230 0.5951
C35_7 C 0.30599(14) 0.36222(18) 0.65984(12)
C36_7 C 0.33722(14) 0.30190(19) 0.63768(13)
C37_7 C 0.29981(18) 0.3591(2) 0.71163(14)
H21_7 H 0.3147 0.3194 0.7319
C38_7 C 0.27154(19) 0.4149(2) 0.73317(13)
H22_7 H 0.2687 0.4130 0.7681
C39_7 C 0.1573(2) 0.6454(2) 0.7176(2)
H23_7 H 0.1869 0.6635 0.7463
C40_7 C 0.1050(2) 0.6863(2) 0.69324(19)
H24_7 H 0.1004 0.7325 0.7045
Zn6_4 Zn 0.371459(14) 0.215208(18) 0.571147(12)
N3_4 N 0.04800(13) 0.90490(16) 0.58006(10)
H4_7 H 0.9305 0.0372 0.2363
C12_7 C 0.93297(15) 0.04115(19) 0.13628(12)
Zn2_4 Zn 0.871459(14) 0.715208(18) 0.571147(12)
N1_7 N 0.80400(12) 0.63923(14) 0.56555(10)
N2_4 N 0.54800(13) 0.40490(16) 0.58006(10)
O2_7 O 0.95269(11) 0.66803(14) 0.60067(11)
O3_5 O 0.86755(12) 0.73740(14) 0.49712(9)
O4_7 O 0.93741(11) 0.82805(13) 0.51244(8)
O5_5 O 0.8261(3) 0.7674(3) 0.23294(13)
C2_5 C 0.89976(14) 0.78715(16) 0.48278(11)
C3_5 C 0.89085(15) 0.79601(19) 0.42483(11)
C4_5 C 0.83432(18) 0.7709(2) 0.39175(14)
H1_5 H 0.8030 0.7484 0.4058
C5_5 C 0.8246(2) 0.7793(3) 0.33838(15)
H2_5 H 0.7863 0.7630 0.3167
C6_5 C 0.8713(2) 0.8118(2) 0.31646(13)
C7_5 C 0.8591(3) 0.8133(3) 0.25803(15)
C8_5 C 0.8845(2) 0.8723(2) 0.22946(13)
C9_5 C 0.90075(19) 0.9389(2) 0.25125(12)
H3_5 H 0.8997 0.9472 0.2860
C10_5 C 0.91849(18) 0.9931(2) 0.22134(13)
C11_5 C 0.91818(15) 0.98129(19) 0.16896(12)
C13_5 C 0.9031(2) 0.9144(2) 0.14733(13)
H5_5 H 0.9044 0.9061 0.1126
C14_5 C 0.8861(2) 0.8604(2) 0.17707(15)
H6_5 H 0.8757 0.8159 0.1623
C15_5 C 0.9279(2) 0.8370(2) 0.34951(14)
H7_5 H 0.9596 0.8587 0.3353
C16_5 C 0.93729(17) 0.8298(2) 0.40304(13)
H8_5 H 0.9748 0.8476 0.4248
C17_7 C 0.75567(14) 0.62877(18) 0.52351(11)
H9_5 H 0.7554 0.6550 0.4934
C18_7 C 0.70604(14) 0.58055(18) 0.52297(11)
H10_5 H 0.6730 0.5752 0.4932
C19_7 C 0.70624(14) 0.54021(18) 0.56745(11)
C20_7 C 0.75871(18) 0.5488(2) 0.61005(13)
H11_7 H 0.7620 0.5211 0.6399
C21_7 C 0.80556(18) 0.5986(2) 0.60756(13)
H12_7 H 0.8398 0.6043 0.6365
C22_7 C 0.65199(15) 0.49198(18) 0.57140(12)
C23_7 C 0.6076(2) 0.4699(3) 0.52792(14)
H13_3 H 0.6119 0.4830 0.4946
C24_7 C 0.5559(2) 0.4276(3) 0.53438(14)
H14_7 H 0.5252 0.4147 0.5046
C25_7 C 0.59095(19) 0.4276(3) 0.62264(14)
H15_7 H 0.5856 0.4134 0.6554
C26_7 C 0.64247(19) 0.4708(3) 0.61998(14)
H16_7 H 0.6708 0.4857 0.6505
O13_4 O 0.85285(12) 0.81203(14) 0.59290(10)
O14_4 O 0.84587(15) 0.74492(15) 0.66032(12)
N1_8 N 0.30400(12) 0.13923(14) 0.56555(10)
O1_8 O 0.50829(11) 0.26760(13) 0.62535(10)
O2_8 O 0.45269(11) 0.16803(14) 0.60067(11)
O3_6 O 0.36755(12) 0.23740(14) 0.49712(9)
O4_8 O 0.43741(11) 0.32805(13) 0.51244(8)
O5_6 O 0.3261(3) 0.2674(3) 0.23294(13)
O8_8 O 0.74993(18) 0.0515(2) 0.77293(12)
C1_8 C 0.50238(14) 0.20180(19) 0.62419(13)
C2_6 C 0.39976(14) 0.28715(16) 0.48278(11)
C3_6 C 0.39085(15) 0.29601(19) 0.42483(11)
C4_6 C 0.33432(18) 0.2709(2) 0.39175(14)
H1_6 H 0.3030 0.2484 0.4058
C5_6 C 0.3246(2) 0.2793(3) 0.33838(15)
H2_6 H 0.2863 0.2630 0.3167
C6_6 C 0.3713(2) 0.3118(2) 0.31646(13)
C7_6 C 0.3591(3) 0.3133(3) 0.25803(15)
C8_6 C 0.3845(2) 0.3723(2) 0.22946(13)
C9_6 C 0.40075(19) 0.4389(2) 0.25125(12)
H3_6 H 0.3997 0.4472 0.2860
C10_6 C 0.41849(18) 0.4931(2) 0.22134(13)
H4_8 H 0.4305 0.5372 0.2363
C11_6 C 0.41818(15) 0.48129(19) 0.16896(12)
C12_8 C 0.43297(15) 0.54115(19) 0.13628(12)
C13_6 C 0.4031(2) 0.4144(2) 0.14733(13)
H5_6 H 0.4044 0.4061 0.1126
C14_6 C 0.3861(2) 0.3604(2) 0.17707(15)
H6_6 H 0.3757 0.3159 0.1623
C15_6 C 0.4279(2) 0.3370(2) 0.34951(14)
H7_6 H 0.4596 0.3587 0.3353
C16_6 C 0.43729(17) 0.3298(2) 0.40304(13)
H8_6 H 0.4748 0.3476 0.4248
C17_8 C 0.25567(14) 0.12877(18) 0.52351(11)
H9_6 H 0.2554 0.1550 0.4934
C18_8 C 0.20604(14) 0.08055(18) 0.52297(11)
H10_6 H 0.1730 0.0752 0.4932
C19_8 C 0.20624(14) 0.04021(18) 0.56745(11)
C20_8 C 0.25871(18) 0.0488(2) 0.61005(13)
H11_8 H 0.2620 0.0211 0.6399
C21_8 C 0.30556(18) 0.0986(2) 0.60756(13)
H12_8 H 0.3398 0.1043 0.6365
C27_8 C 0.55924(15) 0.15779(19) 0.65164(14)
C28_8 C 0.56610(17) 0.0890(2) 0.63564(17)
H17_8 H 0.5347 0.0693 0.6088
C29_8 C 0.61964(19) 0.0492(2) 0.65937(17)
H18_8 H 0.6244 0.0032 0.6480
C30_8 C 0.66600(17) 0.0777(2) 0.69986(14)
C31_8 C 0.72299(18) 0.0353(2) 0.72902(14)
H19_8 H 0.7357 0.0149 0.6295
C39_8 C 0.6573(2) 0.1454(2) 0.7176(2)
H23_8 H 0.6869 0.1635 0.7463
C40_8 C 0.6050(2) 0.1863(2) 0.69324(19)
H24_8 H 0.6004 0.2325 0.7045
C22_8 C 0.15199(15) 0.99198(18) 0.57140(12)
C23_8 C 0.1076(2) 0.9699(3) 0.52792(14)
H13_4 H 0.1119 0.9830 0.4946
C24_8 C 0.0559(2) 0.9276(3) 0.53438(14)
H14_8 H 0.0252 0.9147 0.5046
C25_8 C 0.09095(19) 0.9276(3) 0.62264(14)
H15_8 H 0.0856 0.9134 0.6554
C26_8 C 0.14247(19) 0.9708(3) 0.61998(14)
H16_8 H 0.1708 0.9857 0.6505
C32_8 C 0.74735(16) 0.9737(2) 0.70266(13)
C33_8 C 0.75220(17) 0.9763(2) 0.65036(13)
C34_8 C 0.78190(16) 0.9208(2) 0.62973(13)
H20_8 H 0.7857 0.9230 0.5951
C35_8 C 0.80599(14) 0.86222(18) 0.65984(12)
C36_8 C 0.83722(14) 0.80190(19) 0.63768(13)
C37_8 C 0.79981(18) 0.8591(2) 0.71163(14)
H21_8 H 0.8147 0.8194 0.7319
C38_8 C 0.77154(19) 0.9149(2) 0.73317(13)
H22_8 H 0.7687 0.9130 0.7681
O3_7 O 0.86755(12) 0.26260(14) 0.99712(9)
O5_7 O 0.8261(3) 0.2326(3) 0.73294(13)
C2_7 C 0.89976(14) 0.21285(16) 0.98278(11)
C3_7 C 0.89085(15) 0.20399(19) 0.92483(11)
C4_7 C 0.83432(18) 0.2291(2) 0.89175(14)
H1_7 H 0.8030 0.2516 0.9058
C5_7 C 0.8246(2) 0.2207(3) 0.83838(15)
H2_7 H 0.7863 0.2370 0.8167
C6_7 C 0.8713(2) 0.1882(2) 0.81646(13)
C7_7 C 0.8591(3) 0.1867(3) 0.75803(15)
C8_7 C 0.8845(2) 0.1277(2) 0.72946(13)
C9_7 C 0.90075(19) 0.0611(2) 0.75125(12)
H3_7 H 0.8997 0.0528 0.7860
C10_7 C 0.91849(18) 0.0069(2) 0.72134(13)
C11_7 C 0.91818(15) 0.01871(19) 0.66896(12)
C13_7 C 0.9031(2) 0.0856(2) 0.64733(13)
H5_7 H 0.9044 0.0939 0.6126
C14_7 C 0.8861(2) 0.1396(2) 0.67707(15)
H6_7 H 0.8757 0.1841 0.6623
C15_7 C 0.9279(2) 0.1630(2) 0.84951(14)
H7_7 H 0.9596 0.1413 0.8353
C16_7 C 0.93729(17) 0.1702(2) 0.90304(13)
H8_7 H 0.9748 0.1524 0.9248
H9_7 H 0.7554 0.3450 0.9934
H10_7 H 0.6730 0.4248 0.9932
H13_5 H 0.6119 0.5170 0.9946
H13_6 H 0.1119 0.0170 0.9946
O3_8 O 0.13245(12) 0.73740(14) 0.00288(9)
O5_8 O 0.1739(3) 0.7674(3) 0.26706(13)
C2_8 C 0.10024(14) 0.78715(16) 0.01722(11)
C3_8 C 0.10915(15) 0.79601(19) 0.07517(11)
C4_8 C 0.16568(18) 0.7709(2) 0.10825(14)
H1_8 H 0.1970 0.7484 0.0942
C5_8 C 0.1754(2) 0.7793(3) 0.16162(15)
H2_8 H 0.2137 0.7630 0.1833
C6_8 C 0.1287(2) 0.8118(2) 0.18354(13)
C7_8 C 0.1409(3) 0.8133(3) 0.24197(15)
C8_8 C 0.1155(2) 0.8723(2) 0.27054(13)
C9_8 C 0.09925(19) 0.9389(2) 0.24875(12)
H3_8 H 0.1003 0.9472 0.2140
C10_8 C 0.08151(18) 0.9931(2) 0.27866(13)
C11_8 C 0.08182(15) 0.98129(19) 0.33104(12)
C13_8 C 0.0969(2) 0.9144(2) 0.35267(13)
H5_8 H 0.0956 0.9061 0.3874
C14_8 C 0.1139(2) 0.8604(2) 0.32293(15)
H6_8 H 0.1243 0.8159 0.3377
C15_8 C 0.0721(2) 0.8370(2) 0.15049(14)
H7_8 H 0.0404 0.8587 0.1647
C16_8 C 0.06271(17) 0.8298(2) 0.09696(13)
H8_8 H 0.0252 0.8476 0.0752
H9_8 H 0.2446 0.6550 0.0066
H10_8 H 0.3270 0.5752 0.0068
H13_7 H 0.3881 0.4830 0.0054
H13_8 H 0.8881 0.9830 0.0054
loop_
_geom_bond_atom_site_label_1
_geom_bond_atom_site_label_2
_geom_bond_site_symmetry_1
_geom_bond_site_symmetry_2
Zn2 N1 1_555 1_555
N1 C17 1_555 1_555
N2 C24 1_555 1_555
O2 Zn2 1_555 1_555
O3 Zn2 1_555 1_555
O4 Zn1 1_555 1_555
O5 C7 1_555 1_555
C2 O3 1_555 1_555
C3 C2 1_555 1_555
C4 C3 1_555 1_555
H1 C4 1_555 1_555
C5 C4 1_555 1_555
H2 C5 1_555 1_555
C6 C5 1_555 1_555
C7 C6 1_555 1_555
C8 C7 1_555 1_555
C9 C8 1_555 1_555
H3 C9 1_555 1_555
C10 C9 1_555 1_555
C11 C10 1_555 1_555
C13 C11 1_555 1_555
H5 C13 1_555 1_555
C14 C8 1_555 1_555
H6 C14 1_555 1_555
C15 C6 1_555 1_555
H7 C15 1_555 1_555
C16 C3 1_555 1_555
H8 C16 1_555 1_555
C17 H9 1_555 1_555
C18 C17 1_555 1_555
H10 C18 1_555 1_555
C19 C18 1_555 1_555
C20 C19 1_555 1_555
H11 C20 1_555 1_555
C21 N1 1_555 1_555
H12 C21 1_555 1_555
C22 C19 1_555 1_555
C23 C22 1_555 1_555
H13 C23 1_555 1_555
C24 C23 1_555 1_555
H14 C24 1_555 1_555
C25 N2 1_555 1_555
H15 C25 1_555 1_555
C26 C22 1_555 1_555
H16 C26 1_555 1_555
Zn4 N2 1_555 1_555
O11 Zn1 1_555 1_555
O12 Zn1 1_555 1_555
O13 Zn1 1_555 1_555
O14 Zn2 1_555 1_555
Zn2 O13 1_555 1_555
O4 C2 1_555 1_555
C13 C14 1_555 1_555
C15 C16 1_555 1_555
C20 C21 1_555 1_555
C25 C26 1_555 1_555
O6 C12 1_555 1_555
O7 C12 1_555 1_555
Zn5 O6 1_555 1_555
O7 Zn5 1_555 1_555
O1 C1 1_555 1_555
O8 C31 1_555 1_555
O9 C36 1_555 1_555
O10 C36 1_555 1_555
C27 C1 1_555 1_555
C28 C27 1_555 1_555
H17 C28 1_555 1_555
C29 C28 1_555 1_555
H18 C29 1_555 1_555
C30 C29 1_555 1_555
C31 C30 1_555 1_555
C32 C31 1_555 1_555
C33 C32 1_555 1_555
H19 C33 1_555 1_555
C34 C33 1_555 1_555
H20 C34 1_555 1_555
C35 C34 1_555 1_555
C36 C35 1_555 1_555
C37 C35 1_555 1_555
H21 C37 1_555 1_555
C38 C32 1_555 1_555
H22 C38 1_555 1_555
C39 C30 1_555 1_555
H23 C39 1_555 1_555
C40 C27 1_555 1_555
H24 C40 1_555 1_555
Zn4 O9 1_555 1_555
Zn6 O9 1_555 1_555
O10 Zn6 1_555 1_555
C37 C38 1_555 1_555
C39 C40 1_555 1_555
N3 C24_2 1_555 1_555
O13 C36_2 1_555 1_555
O14 C36_2 1_555 1_555
C23_2 C22_2 1_555 1_555
H13_2 C23_2 1_555 1_555
C24_2 C23_2 1_555 1_555
H14_2 C24_2 1_555 1_555
C25_2 N3 1_555 1_555
H15_2 C25_2 1_555 1_555
C26_2 C22_2 1_555 1_555
H16_2 C26_2 1_555 1_555
C33_2 C32_2 1_555 1_555
C34_2 C33_2 1_555 1_555
H20_2 C34_2 1_555 1_555
C35_2 C34_2 1_555 1_555
C36_2 C35_2 1_555 1_555
C37_2 C35_2 1_555 1_555
H21_2 C37_2 1_555 1_555
C38_2 C32_2 1_555 1_555
H22_2 C38_2 1_555 1_555
C25_2 C26_2 1_555 1_555
C37_2 C38_2 1_555 1_555
Zn4 O1_2 1_555 1_555
Zn6 N1_2 1_555 1_555
N1_2 C17_2 1_555 1_555
O1_2 C1_2 1_555 1_555
O2_2 Zn6 1_555 1_555
O3_2 Zn6 1_555 1_555
O4_2 Zn4 1_555 1_555
O5_2 C7_2 1_555 1_555
O6_2 C12_2 1_555 1_555
O7_2 C12_2 1_555 1_555
O8_2 C31_2 1_555 1_555
C1_2 O2_2 1_555 1_555
C2_2 O3_2 1_555 1_555
C3_2 C2_2 1_555 1_555
C4_2 C3_2 1_555 1_555
H1_2 C4_2 1_555 1_555
C5_2 C4_2 1_555 1_555
H2_2 C5_2 1_555 1_555
C6_2 C5_2 1_555 1_555
C7_2 C6_2 1_555 1_555
C8_2 C7_2 1_555 1_555
C9_2 C8_2 1_555 1_555
H3_2 C9_2 1_555 1_555
C10_2 C9_2 1_555 1_555
H4_2 C10_2 1_555 1_555
C11_2 C10_2 1_555 1_555
C12_2 C11_2 1_555 1_555
C13_2 C11_2 1_555 1_555
H5_2 C13_2 1_555 1_555
C14_2 C8_2 1_555 1_555
H6_2 C14_2 1_555 1_555
C15_2 C6_2 1_555 1_555
H7_2 C15_2 1_555 1_555
C16_2 C3_2 1_555 1_555
H8_2 C16_2 1_555 1_555
C17_2 H9_2 1_555 1_555
C18_2 C17_2 1_555 1_555
H10_2 C18_2 1_555 1_555
C19_2 C18_2 1_555 1_555
C20_2 C19_2 1_555 1_555
H11_2 C20_2 1_555 1_555
C21_2 N1_2 1_555 1_555
H12_2 C21_2 1_555 1_555
C27_2 C1_2 1_555 1_555
C28_2 C27_2 1_555 1_555
H17_2 C28_2 1_555 1_555
C29_2 C28_2 1_555 1_555
H18_2 C29_2 1_555 1_555
C30_2 C29_2 1_555 1_555
C31_2 C30_2 1_555 1_555
C39_2 C30_2 1_555 1_555
H23_2 C39_2 1_555 1_555
C40_2 C27_2 1_555 1_555
H24_2 C40_2 1_555 1_555
Zn5_2 O6_2 1_555 1_555
O11_2 Zn4 1_555 1_555
O12_2 Zn4 1_555 1_555
O4_2 C2_2 1_555 1_555
O7_2 Zn5_2 1_555 1_555
C13_2 C14_2 1_555 1_555
C15_2 C16_2 1_555 1_555
C20_2 C21_2 1_555 1_555
C39_2 C40_2 1_555 1_555
O11 C12_3 1_555 1_555
O12 C12_3 1_555 1_555
Zn2_2 N1_3 1_555 1_555
N1_3 C17_3 1_555 1_555
N2_2 C24_3 1_555 1_555
O2_3 Zn2_2 1_555 1_555
O4_3 Zn5 1_555 1_555
C18_3 C17_3 1_555 1_555
C19_3 C18_3 1_555 1_555
C20_3 C19_3 1_555 1_555
H11_3 C20_3 1_555 1_555
C21_3 N1_3 1_555 1_555
H12_3 C21_3 1_555 1_555
C22_3 C19_3 1_555 1_555
C23_3 C22_3 1_555 1_555
C24_3 C23_3 1_555 1_555
H14_3 C24_3 1_555 1_555
C25_3 N2_2 1_555 1_555
H15_3 C25_3 1_555 1_555
C26_3 C22_3 1_555 1_555
H16_3 C26_3 1_555 1_555
Zn5_2 N2_2 1_555 1_555
O13_2 Zn5 1_555 1_555
O14_2 Zn2_2 1_555 1_555
Zn2_2 O13_2 1_555 1_555
C20_3 C21_3 1_555 1_555
C25_3 C26_3 1_555 1_555
O1_3 C1_3 1_555 1_555
O8_3 C31_3 1_555 1_555
O9_2 C36_3 1_555 1_555
O10_2 C36_3 1_555 1_555
C27_3 C1_3 1_555 1_555
C28_3 C27_3 1_555 1_555
H17_3 C28_3 1_555 1_555
C29_3 C28_3 1_555 1_555
H18_3 C29_3 1_555 1_555
C30_3 C29_3 1_555 1_555
C31_3 C30_3 1_555 1_555
C32_3 C31_3 1_555 1_555
C33_3 C32_3 1_555 1_555
H19_3 C33_3 1_555 1_555
C34_3 C33_3 1_555 1_555
H20_3 C34_3 1_555 1_555
C35_3 C34_3 1_555 1_555
C36_3 C35_3 1_555 1_555
C37_3 C35_3 1_555 1_555
H21_3 C37_3 1_555 1_555
C38_3 C32_3 1_555 1_555
H22_3 C38_3 1_555 1_555
C39_3 C30_3 1_555 1_555
H23_3 C39_3 1_555 1_555
C40_3 C27_3 1_555 1_555
H24_3 C40_3 1_555 1_555
Zn5_2 O9_2 1_555 1_555
Zn6_2 O9_2 1_555 1_555
O10_2 Zn6_2 1_555 1_555
C37_3 C38_3 1_555 1_555
C39_3 C40_3 1_555 1_555
O5_3 C7_3 1_555 1_555
O11_2 C12_4 1_555 1_555
O12_2 C12_4 1_555 1_555
C2_3 O3_3 1_555 1_555
C3_3 C2_3 1_555 1_555
C4_3 C3_3 1_555 1_555
H1_3 C4_3 1_555 1_555
C5_3 C4_3 1_555 1_555
H2_3 C5_3 1_555 1_555
C6_3 C5_3 1_555 1_555
C7_3 C6_3 1_555 1_555
C8_3 C7_3 1_555 1_555
C9_3 C8_3 1_555 1_555
H3_3 C9_3 1_555 1_555
C10_3 C9_3 1_555 1_555
H4_4 C10_3 1_555 1_555
C11_3 C10_3 1_555 1_555
C12_4 C11_3 1_555 1_555
C13_3 C11_3 1_555 1_555
H5_3 C13_3 1_555 1_555
C14_3 C8_3 1_555 1_555
H6_3 C14_3 1_555 1_555
C15_3 C6_3 1_555 1_555
H7_3 C15_3 1_555 1_555
C16_3 C3_3 1_555 1_555
H8_3 C16_3 1_555 1_555
C13_3 C14_3 1_555 1_555
C15_3 C16_3 1_555 1_555
Zn5_2 O1_4 1_555 1_555
Zn6_2 N1_4 1_555 1_555
N1_4 C17_4 1_555 1_555
O1_4 C1_4 1_555 1_555
O2_4 Zn6_2 1_555 1_555
O4_4 Zn5_2 1_555 1_555
O8_4 C31_4 1_555 1_555
C1_4 O2_4 1_555 1_555
C18_4 C17_4 1_555 1_555
C19_4 C18_4 1_555 1_555
C20_4 C19_4 1_555 1_555
H11_4 C20_4 1_555 1_555
C21_4 N1_4 1_555 1_555
H12_4 C21_4 1_555 1_555
C27_4 C1_4 1_555 1_555
C28_4 C27_4 1_555 1_555
H17_4 C28_4 1_555 1_555
C29_4 C28_4 1_555 1_555
H18_4 C29_4 1_555 1_555
C30_4 C29_4 1_555 1_555
C31_4 C30_4 1_555 1_555
C39_4 C30_4 1_555 1_555
H23_4 C39_4 1_555 1_555
C40_4 C27_4 1_555 1_555
H24_4 C40_4 1_555 1_555
C20_4 C21_4 1_555 1_555
C39_4 C40_4 1_555 1_555
N3_2 C24_4 1_555 1_555
O13_2 C36_4 1_555 1_555
O14_2 C36_4 1_555 1_555
C23_4 C22_4 1_555 1_555
C24_4 C23_4 1_555 1_555
H14_4 C24_4 1_555 1_555
C25_4 N3_2 1_555 1_555
H15_4 C25_4 1_555 1_555
C26_4 C22_4 1_555 1_555
H16_4 C26_4 1_555 1_555
C33_4 C32_4 1_555 1_555
C34_4 C33_4 1_555 1_555
H20_4 C34_4 1_555 1_555
C35_4 C34_4 1_555 1_555
C36_4 C35_4 1_555 1_555
C37_4 C35_4 1_555 1_555
H21_4 C37_4 1_555 1_555
C38_4 C32_4 1_555 1_555
H22_4 C38_4 1_555 1_555
C25_4 C26_4 1_555 1_555
C37_4 C38_4 1_555 1_555
O1_5 C1_5 1_555 1_555
O8_5 C31_5 1_555 1_555
O9_3 C36_5 1_555 1_555
O10_3 C36_5 1_555 1_555
C27_5 C1_5 1_555 1_555
C28_5 C27_5 1_555 1_555
H17_5 C28_5 1_555 1_555
C29_5 C28_5 1_555 1_555
H18_5 C29_5 1_555 1_555
C30_5 C29_5 1_555 1_555
C31_5 C30_5 1_555 1_555
C32_5 C31_5 1_555 1_555
C33_5 C32_5 1_555 1_555
H19_5 C33_5 1_555 1_555
C34_5 C33_5 1_555 1_555
H20_5 C34_5 1_555 1_555
C35_5 C34_5 1_555 1_555
C36_5 C35_5 1_555 1_555
C37_5 C35_5 1_555 1_555
H21_5 C37_5 1_555 1_555
C38_5 C32_5 1_555 1_555
H22_5 C38_5 1_555 1_555
C39_5 C30_5 1_555 1_555
H23_5 C39_5 1_555 1_555
C40_5 C27_5 1_555 1_555
H24_5 C40_5 1_555 1_555
Zn3 O9_3 1_555 1_555
Zn6_3 O9_3 1_555 1_555
O10_3 Zn6_3 1_555 1_555
C37_5 C38_5 1_555 1_555
C39_5 C40_5 1_555 1_555
Zn2_3 N1_5 1_555 1_555
N1_5 C17_5 1_555 1_555
N2_3 C24_5 1_555 1_555
O2_5 Zn2_3 1_555 1_555
O4_5 Zn1_2 1_555 1_555
C18_5 C17_5 1_555 1_555
C19_5 C18_5 1_555 1_555
C20_5 C19_5 1_555 1_555
H11_5 C20_5 1_555 1_555
C21_5 N1_5 1_555 1_555
H12_5 C21_5 1_555 1_555
C22_5 C19_5 1_555 1_555
C23_5 C22_5 1_555 1_555
C24_5 C23_5 1_555 1_555
H14_5 C24_5 1_555 1_555
C25_5 N2_3 1_555 1_555
H15_5 C25_5 1_555 1_555
C26_5 C22_5 1_555 1_555
H16_5 C26_5 1_555 1_555
Zn3 N2_3 1_555 1_555
O11_3 Zn1_2 1_555 1_555
O12_3 Zn1_2 1_555 1_555
O13_3 Zn1_2 1_555 1_555
O14_3 Zn2_3 1_555 1_555
Zn2_3 O13_3 1_555 1_555
C20_5 C21_5 1_555 1_555
C25_5 C26_5 1_555 1_555
O6_3 C12_5 1_555 1_555
O7_3 C12_5 1_555 1_555
Zn5_3 O6_3 1_555 1_555
O7_3 Zn5_3 1_555 1_555
N3_3 C24_6 1_555 1_555
O13_3 C36_6 1_555 1_555
O14_3 C36_6 1_555 1_555
C23_6 C22_6 1_555 1_555
C24_6 C23_6 1_555 1_555
H14_6 C24_6 1_555 1_555
C25_6 N3_3 1_555 1_555
H15_6 C25_6 1_555 1_555
C26_6 C22_6 1_555 1_555
H16_6 C26_6 1_555 1_555
C33_6 C32_6 1_555 1_555
C34_6 C33_6 1_555 1_555
H20_6 C34_6 1_555 1_555
C35_6 C34_6 1_555 1_555
C36_6 C35_6 1_555 1_555
C37_6 C35_6 1_555 1_555
H21_6 C37_6 1_555 1_555
C38_6 C32_6 1_555 1_555
H22_6 C38_6 1_555 1_555
C25_6 C26_6 1_555 1_555
C37_6 C38_6 1_555 1_555
Zn3 O1_6 1_555 1_555
Zn6_3 N1_6 1_555 1_555
N1_6 C17_6 1_555 1_555
O1_6 C1_6 1_555 1_555
O2_6 Zn6_3 1_555 1_555
O4_6 Zn3 1_555 1_555
O8_6 C31_6 1_555 1_555
C1_6 O2_6 1_555 1_555
C18_6 C17_6 1_555 1_555
C19_6 C18_6 1_555 1_555
C20_6 C19_6 1_555 1_555
H11_6 C20_6 1_555 1_555
C21_6 N1_6 1_555 1_555
H12_6 C21_6 1_555 1_555
C27_6 C1_6 1_555 1_555
C28_6 C27_6 1_555 1_555
H17_6 C28_6 1_555 1_555
C29_6 C28_6 1_555 1_555
H18_6 C29_6 1_555 1_555
C30_6 C29_6 1_555 1_555
C31_6 C30_6 1_555 1_555
C39_6 C30_6 1_555 1_555
H23_6 C39_6 1_555 1_555
C40_6 C27_6 1_555 1_555
H24_6 C40_6 1_555 1_555
O11_4 Zn3 1_555 1_555
O12_4 Zn3 1_555 1_555
C20_6 C21_6 1_555 1_555
C39_6 C40_6 1_555 1_555
O5_4 C7_4 1_555 1_555
O6_4 C12_6 1_555 1_555
O7_4 C12_6 1_555 1_555
C2_4 O3_4 1_555 1_555
C3_4 C2_4 1_555 1_555
C4_4 C3_4 1_555 1_555
H1_4 C4_4 1_555 1_555
C5_4 C4_4 1_555 1_555
H2_4 C5_4 1_555 1_555
C6_4 C5_4 1_555 1_555
C7_4 C6_4 1_555 1_555
C8_4 C7_4 1_555 1_555
C9_4 C8_4 1_555 1_555
H3_4 C9_4 1_555 1_555
C10_4 C9_4 1_555 1_555
H4_6 C10_4 1_555 1_555
C11_4 C10_4 1_555 1_555
C12_6 C11_4 1_555 1_555
C13_4 C11_4 1_555 1_555
H5_4 C13_4 1_555 1_555
C14_4 C8_4 1_555 1_555
H6_4 C14_4 1_555 1_555
C15_4 C6_4 1_555 1_555
H7_4 C15_4 1_555 1_555
C16_4 C3_4 1_555 1_555
H8_4 C16_4 1_555 1_555
Zn5_4 O6_4 1_555 1_555
O7_4 Zn5_4 1_555 1_555
C13_4 C14_4 1_555 1_555
C15_4 C16_4 1_555 1_555
O1_7 C1_7 1_555 1_555
O8_7 C31_7 1_555 1_555
O9_4 C36_7 1_555 1_555
O10_4 C36_7 1_555 1_555
C27_7 C1_7 1_555 1_555
C28_7 C27_7 1_555 1_555
H17_7 C28_7 1_555 1_555
C29_7 C28_7 1_555 1_555
H18_7 C29_7 1_555 1_555
C30_7 C29_7 1_555 1_555
C31_7 C30_7 1_555 1_555
C32_7 C31_7 1_555 1_555
C33_7 C32_7 1_555 1_555
H19_7 C33_7 1_555 1_555
C34_7 C33_7 1_555 1_555
H20_7 C34_7 1_555 1_555
C35_7 C34_7 1_555 1_555
C36_7 C35_7 1_555 1_555
C37_7 C35_7 1_555 1_555
H21_7 C37_7 1_555 1_555
C38_7 C32_7 1_555 1_555
H22_7 C38_7 1_555 1_555
C39_7 C30_7 1_555 1_555
H23_7 C39_7 1_555 1_555
C40_7 C27_7 1_555 1_555
H24_7 C40_7 1_555 1_555
Zn5_4 O9_4 1_555 1_555
Zn6_4 O9_4 1_555 1_555
O10_4 Zn6_4 1_555 1_555
C37_7 C38_7 1_555 1_555
C39_7 C40_7 1_555 1_555
O11_3 C12_7 1_555 1_555
O12_3 C12_7 1_555 1_555
Zn2_4 N1_7 1_555 1_555
N1_7 C17_7 1_555 1_555
N2_4 C24_7 1_555 1_555
O2_7 Zn2_4 1_555 1_555
O3_5 Zn2_4 1_555 1_555
O4_7 Zn5_3 1_555 1_555
O5_5 C7_5 1_555 1_555
C2_5 O3_5 1_555 1_555
C3_5 C2_5 1_555 1_555
C4_5 C3_5 1_555 1_555
H1_5 C4_5 1_555 1_555
C5_5 C4_5 1_555 1_555
H2_5 C5_5 1_555 1_555
C6_5 C5_5 1_555 1_555
C7_5 C6_5 1_555 1_555
C8_5 C7_5 1_555 1_555
C9_5 C8_5 1_555 1_555
H3_5 C9_5 1_555 1_555
C10_5 C9_5 1_555 1_555
C11_5 C10_5 1_555 1_555
C13_5 C11_5 1_555 1_555
H5_5 C13_5 1_555 1_555
C14_5 C8_5 1_555 1_555
H6_5 C14_5 1_555 1_555
C15_5 C6_5 1_555 1_555
H7_5 C15_5 1_555 1_555
C16_5 C3_5 1_555 1_555
H8_5 C16_5 1_555 1_555
C17_7 H9_5 1_555 1_555
C18_7 C17_7 1_555 1_555
H10_5 C18_7 1_555 1_555
C19_7 C18_7 1_555 1_555
C20_7 C19_7 1_555 1_555
H11_7 C20_7 1_555 1_555
C21_7 N1_7 1_555 1_555
H12_7 C21_7 1_555 1_555
C22_7 C19_7 1_555 1_555
C23_7 C22_7 1_555 1_555
H13_3 C23_7 1_555 1_555
C24_7 C23_7 1_555 1_555
H14_7 C24_7 1_555 1_555
C25_7 N2_4 1_555 1_555
H15_7 C25_7 1_555 1_555
C26_7 C22_7 1_555 1_555
H16_7 C26_7 1_555 1_555
Zn5_4 N2_4 1_555 1_555
O13_4 Zn5_3 1_555 1_555
O14_4 Zn2_4 1_555 1_555
Zn2_4 O13_4 1_555 1_555
O4_7 C2_5 1_555 1_555
C13_5 C14_5 1_555 1_555
C15_5 C16_5 1_555 1_555
C20_7 C21_7 1_555 1_555
C25_7 C26_7 1_555 1_555
Zn5_4 O1_8 1_555 1_555
Zn6_4 N1_8 1_555 1_555
N1_8 C17_8 1_555 1_555
O1_8 C1_8 1_555 1_555
O2_8 Zn6_4 1_555 1_555
O3_6 Zn6_4 1_555 1_555
O4_8 Zn5_4 1_555 1_555
O5_6 C7_6 1_555 1_555
O11_4 C12_8 1_555 1_555
O12_4 C12_8 1_555 1_555
O8_8 C31_8 1_555 1_555
C1_8 O2_8 1_555 1_555
C2_6 O3_6 1_555 1_555
C3_6 C2_6 1_555 1_555
C4_6 C3_6 1_555 1_555
H1_6 C4_6 1_555 1_555
C5_6 C4_6 1_555 1_555
H2_6 C5_6 1_555 1_555
C6_6 C5_6 1_555 1_555
C7_6 C6_6 1_555 1_555
C8_6 C7_6 1_555 1_555
C9_6 C8_6 1_555 1_555
H3_6 C9_6 1_555 1_555
C10_6 C9_6 1_555 1_555
H4_8 C10_6 1_555 1_555
C11_6 C10_6 1_555 1_555
C12_8 C11_6 1_555 1_555
C13_6 C11_6 1_555 1_555
H5_6 C13_6 1_555 1_555
C14_6 C8_6 1_555 1_555
H6_6 C14_6 1_555 1_555
C15_6 C6_6 1_555 1_555
H7_6 C15_6 1_555 1_555
C16_6 C3_6 1_555 1_555
H8_6 C16_6 1_555 1_555
C17_8 H9_6 1_555 1_555
C18_8 C17_8 1_555 1_555
H10_6 C18_8 1_555 1_555
C19_8 C18_8 1_555 1_555
C20_8 C19_8 1_555 1_555
H11_8 C20_8 1_555 1_555
C21_8 N1_8 1_555 1_555
H12_8 C21_8 1_555 1_555
C27_8 C1_8 1_555 1_555
C28_8 C27_8 1_555 1_555
H17_8 C28_8 1_555 1_555
C29_8 C28_8 1_555 1_555
H18_8 C29_8 1_555 1_555
C30_8 C29_8 1_555 1_555
C31_8 C30_8 1_555 1_555
C39_8 C30_8 1_555 1_555
H23_8 C39_8 1_555 1_555
C40_8 C27_8 1_555 1_555
H24_8 C40_8 1_555 1_555
O4_8 C2_6 1_555 1_555
C13_6 C14_6 1_555 1_555
C15_6 C16_6 1_555 1_555
C20_8 C21_8 1_555 1_555
C39_8 C40_8 1_555 1_555
N3_4 C24_8 1_555 1_555
O13_4 C36_8 1_555 1_555
O14_4 C36_8 1_555 1_555
C23_8 C22_8 1_555 1_555
H13_4 C23_8 1_555 1_555
C24_8 C23_8 1_555 1_555
H14_8 C24_8 1_555 1_555
C25_8 N3_4 1_555 1_555
H15_8 C25_8 1_555 1_555
C26_8 C22_8 1_555 1_555
H16_8 C26_8 1_555 1_555
C33_8 C32_8 1_555 1_555
C34_8 C33_8 1_555 1_555
H20_8 C34_8 1_555 1_555
C35_8 C34_8 1_555 1_555
C36_8 C35_8 1_555 1_555
C37_8 C35_8 1_555 1_555
H21_8 C37_8 1_555 1_555
C38_8 C32_8 1_555 1_555
H22_8 C38_8 1_555 1_555
C25_8 C26_8 1_555 1_555
C37_8 C38_8 1_555 1_555
O5_7 C7_7 1_555 1_555
C2_7 O3_7 1_555 1_555
C3_7 C2_7 1_555 1_555
C4_7 C3_7 1_555 1_555
H1_7 C4_7 1_555 1_555
C5_7 C4_7 1_555 1_555
H2_7 C5_7 1_555 1_555
C6_7 C5_7 1_555 1_555
C7_7 C6_7 1_555 1_555
C8_7 C7_7 1_555 1_555
C9_7 C8_7 1_555 1_555
H3_7 C9_7 1_555 1_555
C10_7 C9_7 1_555 1_555
C11_7 C10_7 1_555 1_555
C13_7 C11_7 1_555 1_555
H5_7 C13_7 1_555 1_555
C14_7 C8_7 1_555 1_555
H6_7 C14_7 1_555 1_555
C15_7 C6_7 1_555 1_555
H7_7 C15_7 1_555 1_555
C16_7 C3_7 1_555 1_555
H8_7 C16_7 1_555 1_555
C13_7 C14_7 1_555 1_555
C15_7 C16_7 1_555 1_555
O5_8 C7_8 1_555 1_555
C2_8 O3_8 1_555 1_555
C3_8 C2_8 1_555 1_555
C4_8 C3_8 1_555 1_555
H1_8 C4_8 1_555 1_555
C5_8 C4_8 1_555 1_555
H2_8 C5_8 1_555 1_555
C6_8 C5_8 1_555 1_555
C7_8 C6_8 1_555 1_555
C8_8 C7_8 1_555 1_555
C9_8 C8_8 1_555 1_555
H3_8 C9_8 1_555 1_555
C10_8 C9_8 1_555 1_555
C11_8 C10_8 1_555 1_555
C13_8 C11_8 1_555 1_555
H5_8 C13_8 1_555 1_555
C14_8 C8_8 1_555 1_555
H6_8 C14_8 1_555 1_555
C15_8 C6_8 1_555 1_555
H7_8 C15_8 1_555 1_555
C16_8 C3_8 1_555 1_555
H8_8 C16_8 1_555 1_555
C13_8 C14_8 1_555 1_555
C15_8 C16_8 1_555 1_555

#END
