
###############################################################################
#
# This file contains modified crystal structure data generated from the
# MOF subset of the Cambridge Structural Database (CSD) v543 
# hosted by the Cambridge Crystallographic Data Centre (CCDC).
#
# This work is licensed under the Creative Commons
# Attribution-NonCommercial-ShareAlike 4.0 International License.
# To view a copy of this license, visit
# http://creativecommons.org/licenses/by-nc-sa/4.0/
# or send a letter to
# Creative Commons, PO Box 1866, Mountain View, CA 94042, USA.
#
# CIF created using the CSD Python API on 29 September 2022
# The structure has been converted into the P1 space group
# The structure has a 3D framework
# The original CSD entry VIVXOP is in the monoclinic crystal system
# The framework has been calculated to contain at least 10.0% void space
# The void calculation uses a probe of radius 1.32A, grid spacing 0.4
#
###############################################################################

data_VIVXOP
_chemical_formula_moiety         '(C320 H192 N16 O80 Zn16)n'
_symmetry_cell_setting           triclinic
_symmetry_space_group_name_H-M   'P 1'
_symmetry_Int_Tables_number      1
_space_group_name_Hall           'P 1'
loop_
_symmetry_equiv_pos_site_id
_symmetry_equiv_pos_as_xyz
1 x,y,z
_cell_length_a                   20.5112
_cell_length_b                   19.5795
_cell_length_c                   25.7508
_cell_angle_alpha                90
_cell_angle_beta                 99.1560
_cell_angle_gamma                90
_cell_volume                     10209.7
loop_
_atom_site_label
_atom_site_type_symbol
_atom_site_fract_x
_atom_site_fract_y
_atom_site_fract_z
Zn1 Zn 0.02872 0.15308 0.42056
Zn2 Zn 0.12735 0.28078 0.44159
N1 N 0.19896 0.34998 0.43588
N2 N 0.44143 0.60542 0.42796
O2 O 0.05509 0.32482 0.42775
O6 O 0.05501 0.16455 0.49027
O7 O 0.12735 0.25268 0.50860
O8 O 0.14102 0.20169 0.76736
H1 H 0.01433 0.40942 0.36050
C16 C 0.09202 0.20446 0.52132
C17 C 0.09150 0.19061 0.57768
C18 C 0.09068 0.12261 0.59595
H9 H 0.08655 0.08782 0.57278
C19 C 0.09588 0.10671 0.64814
H10 H 0.09452 0.06115 0.65988
C20 C 0.10318 0.15786 0.68352
C21 C 0.10398 0.22596 0.66530
H11 H 0.10900 0.26065 0.68860
C22 C 0.09759 0.24219 0.61305
H12 H 0.09730 0.28783 0.60126
C23 C 0.11599 0.15060 0.74339
C24 C 0.10551 0.09128 0.77929
C25 C 0.11117 0.10401 0.83232
H13 H 0.12557 0.14802 0.84617
C26 C 0.09542 0.05155 0.86405
H14 H 0.09896 0.06041 0.89922
C29 C 0.08333 0.02546 0.75894
H16 H 0.07954 0.01661 0.72377
C31 C 0.20714 0.37717 0.38963
H17 H 0.18451 0.35771 0.35825
C32 C 0.24768 0.43256 0.38628
H18 H 0.25148 0.45037 0.35323
C33 C 0.28302 0.46177 0.43285
C34 C 0.27255 0.43528 0.48096
H19 H 0.29374 0.45441 0.51291
C35 C 0.23014 0.38008 0.48072
H20 H 0.22304 0.36320 0.51309
C36 C 0.33558 0.51869 0.43100
C37 C 0.33860 0.55513 0.38644
H21 H 0.30515 0.55086 0.35675
C38 C 0.39130 0.59762 0.38654
H22 H 0.39230 0.62211 0.35659
C39 C 0.38720 0.52559 0.47302
H23 H 0.38739 0.50197 0.50362
C40 C 0.43940 0.56846 0.46920
H24 H 0.47488 0.57104 0.49752
Zn5 Zn 0.52872 0.65308 0.42056
O11 O 0.11081 0.19955 0.40642
O12 O 0.01630 0.11827 0.35425
O13 O 0.06939 0.06722 0.42606
O9 O 0.01630 0.88173 0.85425
O10 O 0.06939 0.93278 0.92606
C27 C 0.07439 0.98537 0.84376
C28 C 0.06686 0.97285 0.79090
H15 H 0.05089 0.92933 0.77698
C30 C 0.05150 0.93185 0.87716
Zn3 Zn 0.02872 0.84692 0.92056
O1 O 0.98453 0.23473 0.40522
O3 O 0.82828 0.51210 0.26849
O4 O 0.61081 0.69955 0.40642
O5 O 0.61097 0.74078 0.32697
C1 C 0.99798 0.29907 0.41138
C2 C 0.94593 0.35213 0.39374
C3 C 0.96868 0.40616 0.36440
C4 C 0.92287 0.45482 0.34110
H2 H 0.93805 0.49198 0.32272
C5 C 0.85465 0.44897 0.34496
C6 C 0.83262 0.39614 0.37508
H3 H 0.78703 0.39274 0.37878
C7 C 0.87828 0.34820 0.39976
H4 H 0.86327 0.31320 0.42042
C8 C 0.81175 0.49842 0.31071
C9 C 0.75642 0.53853 0.32227
C10 C 0.74848 0.55282 0.37565
H5 H 0.77226 0.52902 0.40264
C11 C 0.70517 0.60242 0.38871
H6 H 0.69907 0.61086 0.42431
C12 C 0.67078 0.63959 0.34882
C13 C 0.67891 0.62519 0.29586
H7 H 0.65588 0.64970 0.26909
C14 C 0.72086 0.57480 0.28205
H8 H 0.72524 0.56532 0.24629
C15 C 0.62827 0.69631 0.36170
Zn6 Zn 0.62735 0.78078 0.44159
N3 N 0.94143 0.10542 0.42796
O3_2 O 0.32828 0.01210 0.26849
O5_2 O 0.11097 0.24078 0.32697
C9_2 C 0.25642 0.03853 0.32227
C10_2 C 0.24848 0.05282 0.37565
H5_2 H 0.27226 0.02902 0.40264
C11_2 C 0.20517 0.10242 0.38871
H6_2 H 0.19907 0.11086 0.42431
C12_2 C 0.17078 0.13959 0.34882
C13_2 C 0.17891 0.12519 0.29586
H7_2 H 0.15588 0.14970 0.26909
C14_2 C 0.22086 0.07480 0.28205
H8_2 H 0.22524 0.06532 0.24629
C15_2 C 0.12827 0.19631 0.36170
C36_2 C 0.83558 0.01869 0.43100
C37_2 C 0.83860 0.05513 0.38644
H21_2 H 0.80515 0.05086 0.35675
C38_2 C 0.89130 0.09762 0.38654
H22_2 H 0.89230 0.12211 0.35659
C39_2 C 0.88720 0.02559 0.47302
H23_2 H 0.88739 0.00197 0.50362
C40_2 C 0.93940 0.06846 0.46920
H24_2 H 0.97488 0.07104 0.49752
N1_2 N 0.69896 0.84998 0.43588
O1_2 O 0.48453 0.73473 0.40522
O2_2 O 0.55509 0.82482 0.42775
O6_2 O 0.55501 0.66455 0.49027
O7_2 O 0.62735 0.75268 0.50860
O8_2 O 0.64102 0.70169 0.76736
O9_2 O 0.51630 0.38173 0.85425
O10_2 O 0.56939 0.43278 0.92606
C1_2 C 0.49798 0.79907 0.41138
C2_2 C 0.44593 0.85213 0.39374
C3_2 C 0.46868 0.90616 0.36440
H1_2 H 0.51433 0.90942 0.36050
C4_2 C 0.42287 0.95482 0.34110
H2_2 H 0.43805 0.99198 0.32272
C5_2 C 0.35465 0.94897 0.34496
C6_2 C 0.33262 0.89614 0.37508
H3_2 H 0.28703 0.89274 0.37878
C7_2 C 0.37828 0.84820 0.39976
H4_2 H 0.36327 0.81320 0.42042
C8_2 C 0.31175 0.99842 0.31071
C16_2 C 0.59202 0.70446 0.52132
C17_2 C 0.59150 0.69061 0.57768
C18_2 C 0.59068 0.62261 0.59595
H9_2 H 0.58655 0.58782 0.57278
C19_2 C 0.59588 0.60671 0.64814
H10_2 H 0.59452 0.56115 0.65988
C20_2 C 0.60318 0.65786 0.68352
C21_2 C 0.60398 0.72596 0.66530
H11_2 H 0.60900 0.76065 0.68860
C22_2 C 0.59759 0.74219 0.61305
H12_2 H 0.59730 0.78783 0.60126
C23_2 C 0.61599 0.65060 0.74339
C24_2 C 0.60551 0.59128 0.77929
C25_2 C 0.61117 0.60401 0.83232
H13_2 H 0.62557 0.64802 0.84617
C26_2 C 0.59542 0.55155 0.86405
H14_2 H 0.59896 0.56041 0.89922
C27_2 C 0.57439 0.48537 0.84376
C28_2 C 0.56686 0.47285 0.79090
H15_2 H 0.55089 0.42933 0.77698
C29_2 C 0.58333 0.52546 0.75894
H16_2 H 0.57954 0.51661 0.72377
C30_2 C 0.55150 0.43185 0.87716
C31_2 C 0.70714 0.87717 0.38963
H17_2 H 0.68451 0.85771 0.35825
C32_2 C 0.74768 0.93256 0.38628
H18_2 H 0.75148 0.95037 0.35323
C33_2 C 0.78302 0.96177 0.43285
C34_2 C 0.77255 0.93528 0.48096
H19_2 H 0.79374 0.95441 0.51291
C35_2 C 0.73014 0.88008 0.48072
H20_2 H 0.72304 0.86320 0.51309
Zn3_2 Zn 0.52872 0.34692 0.92056
O12_2 O 0.51630 0.61827 0.35425
O13_2 O 0.56939 0.56722 0.42606
C27_3 C 0.07439 0.01463 0.34376
C28_3 C 0.06686 0.02715 0.29090
H15_3 H 0.05089 0.07067 0.27698
C30_3 C 0.05150 0.06815 0.37716
Zn2_2 Zn 0.12735 0.71922 0.94159
N1_3 N 0.19896 0.65002 0.93588
N2_2 N 0.44143 0.39458 0.92796
O2_3 O 0.05509 0.67518 0.92775
O6_3 O 0.05501 0.83545 0.99027
H1_3 H 0.01433 0.59058 0.86050
C31_3 C 0.20714 0.62283 0.88963
H17_3 H 0.18451 0.64229 0.85825
C32_3 C 0.24768 0.56744 0.88628
H18_3 H 0.25148 0.54963 0.85323
C33_3 C 0.28302 0.53823 0.93285
C34_3 C 0.27255 0.56472 0.98096
C35_3 C 0.23014 0.61992 0.98072
C36_3 C 0.33558 0.48131 0.93100
C37_3 C 0.33860 0.44487 0.88644
H21_3 H 0.30515 0.44914 0.85675
C38_3 C 0.39130 0.40238 0.88654
H22_3 H 0.39230 0.37789 0.85659
C39_3 C 0.38720 0.47441 0.97302
C40_3 C 0.43940 0.43154 0.96920
H24_3 H 0.47488 0.42896 0.99752
O11_2 O 0.11081 0.80045 0.90642
O1_3 O 0.98453 0.76527 0.90522
O3_3 O 0.82828 0.48790 0.76849
O4_2 O 0.61081 0.30045 0.90642
O5_3 O 0.61097 0.25922 0.82697
C1_3 C 0.99798 0.70093 0.91138
C2_3 C 0.94593 0.64787 0.89374
C3_3 C 0.96868 0.59384 0.86440
C4_3 C 0.92287 0.54518 0.84110
H2_3 H 0.93805 0.50802 0.82272
C5_3 C 0.85465 0.55103 0.84496
C6_3 C 0.83262 0.60386 0.87508
H3_3 H 0.78703 0.60726 0.87878
C7_3 C 0.87828 0.65180 0.89976
H4_3 H 0.86327 0.68680 0.92042
C8_3 C 0.81175 0.50158 0.81071
C9_3 C 0.75642 0.46147 0.82227
C10_3 C 0.74848 0.44718 0.87565
H5_3 H 0.77226 0.47098 0.90264
C11_3 C 0.70517 0.39758 0.88871
H6_3 H 0.69907 0.38914 0.92431
C12_3 C 0.67078 0.36041 0.84882
C13_3 C 0.67891 0.37481 0.79586
H7_3 H 0.65588 0.35030 0.76909
C14_3 C 0.72086 0.42520 0.78205
H8_3 H 0.72524 0.43468 0.74629
C15_3 C 0.62827 0.30369 0.86170
Zn6_2 Zn 0.62735 0.21922 0.94159
N3_2 N 0.94143 0.89458 0.92796
O7_3 O 0.62735 0.24732 0.00860
O8_3 O 0.64102 0.29831 0.26736
C16_3 C 0.59202 0.29554 0.02132
C17_3 C 0.59150 0.30939 0.07768
C18_3 C 0.59068 0.37739 0.09595
H9_3 H 0.58655 0.41218 0.07278
C19_3 C 0.59588 0.39329 0.14814
H10_3 H 0.59452 0.43885 0.15988
C20_3 C 0.60318 0.34214 0.18352
C21_3 C 0.60398 0.27404 0.16530
H11_3 H 0.60900 0.23935 0.18860
C22_3 C 0.59759 0.25781 0.11305
H12_3 H 0.59730 0.21217 0.10126
C23_3 C 0.61599 0.34940 0.24339
C24_3 C 0.60551 0.40872 0.27929
C25_3 C 0.61117 0.39599 0.33232
H13_3 H 0.62557 0.35198 0.34617
C26_3 C 0.59542 0.44845 0.36405
H14_3 H 0.59896 0.43959 0.39922
C27_4 C 0.57439 0.51463 0.34376
C28_4 C 0.56686 0.52715 0.29090
H15_4 H 0.55089 0.57067 0.27698
C29_3 C 0.58333 0.47454 0.25894
H16_3 H 0.57954 0.48339 0.22377
C30_4 C 0.55150 0.56815 0.37716
H19_3 H 0.79374 0.04559 0.01291
H20_3 H 0.72304 0.13680 0.01309
N1_4 N 0.69896 0.15002 0.93588
O1_4 O 0.48453 0.26527 0.90522
O2_4 O 0.55509 0.17518 0.92775
O6_4 O 0.55501 0.33545 0.99027
C1_4 C 0.49798 0.20093 0.91138
C2_4 C 0.44593 0.14787 0.89374
C3_4 C 0.46868 0.09384 0.86440
H1_4 H 0.51433 0.09058 0.86050
C4_4 C 0.42287 0.04518 0.84110
H2_4 H 0.43805 0.00802 0.82272
C5_4 C 0.35465 0.05103 0.84496
C6_4 C 0.33262 0.10386 0.87508
H3_4 H 0.28703 0.10726 0.87878
C7_4 C 0.37828 0.15180 0.89976
H4_4 H 0.36327 0.18680 0.92042
C8_4 C 0.31175 0.00158 0.81071
C31_4 C 0.70714 0.12283 0.88963
H17_4 H 0.68451 0.14229 0.85825
C32_4 C 0.74768 0.06744 0.88628
H18_4 H 0.75148 0.04963 0.85323
C33_4 C 0.78302 0.03823 0.93285
C34_4 C 0.77255 0.06472 0.98096
C35_4 C 0.73014 0.11992 0.98072
O3_4 O 0.32828 0.98790 0.76849
O5_4 O 0.11097 0.75922 0.82697
C9_4 C 0.25642 0.96147 0.82227
C10_4 C 0.24848 0.94718 0.87565
H5_4 H 0.27226 0.97098 0.90264
C11_4 C 0.20517 0.89758 0.88871
H6_4 H 0.19907 0.88914 0.92431
C12_4 C 0.17078 0.86041 0.84882
C13_4 C 0.17891 0.87481 0.79586
H7_4 H 0.15588 0.85030 0.76909
C14_4 C 0.22086 0.92520 0.78205
H8_4 H 0.22524 0.93468 0.74629
C15_4 C 0.12827 0.80369 0.86170
C36_4 C 0.83558 0.98131 0.93100
C37_4 C 0.83860 0.94487 0.88644
H21_4 H 0.80515 0.94914 0.85675
C38_4 C 0.89130 0.90238 0.88654
H22_4 H 0.89230 0.87789 0.85659
C39_4 C 0.88720 0.97441 0.97302
C40_4 C 0.93940 0.93154 0.96920
H24_4 H 0.97488 0.92896 0.99752
O1_5 O 0.01547 0.23473 0.09478
O3_5 O 0.17172 0.51210 0.23151
O4_3 O 0.38919 0.69955 0.09358
O5_5 O 0.38903 0.74078 0.17303
C1_5 C 0.00202 0.29907 0.08862
C2_5 C 0.05407 0.35213 0.10626
C3_5 C 0.03132 0.40616 0.13560
C4_5 C 0.07713 0.45482 0.15890
H2_5 H 0.06195 0.49198 0.17728
C5_5 C 0.14535 0.44897 0.15504
C6_5 C 0.16738 0.39614 0.12492
H3_5 H 0.21297 0.39274 0.12122
C7_5 C 0.12172 0.34820 0.10024
H4_5 H 0.13673 0.31320 0.07958
C8_5 C 0.18825 0.49842 0.18929
C9_5 C 0.24358 0.53853 0.17773
C10_5 C 0.25152 0.55282 0.12435
H5_5 H 0.22774 0.52902 0.09736
C11_5 C 0.29483 0.60242 0.11129
H6_5 H 0.30093 0.61086 0.07569
C12_5 C 0.32922 0.63959 0.15118
C13_5 C 0.32109 0.62519 0.20414
H7_5 H 0.34412 0.64970 0.23091
C14_5 C 0.27914 0.57480 0.21795
H8_5 H 0.27476 0.56532 0.25371
C15_5 C 0.37173 0.69631 0.13830
Zn4 Zn 0.47128 0.65308 0.07944
Zn6_3 Zn 0.37265 0.78078 0.05841
N3_3 N 0.05857 0.10542 0.07204
Zn1_2 Zn 0.97128 0.15308 0.07944
Zn2_3 Zn 0.87265 0.28078 0.05841
N1_5 N 0.80104 0.34998 0.06412
N2_3 N 0.55857 0.60542 0.07204
O2_5 O 0.94491 0.32482 0.07225
O6_5 O 0.94499 0.16455 0.00973
H1_5 H 0.98567 0.40942 0.13950
C31_5 C 0.79286 0.37717 0.11037
H17_5 H 0.81549 0.35771 0.14175
C32_5 C 0.75232 0.43256 0.11372
H18_5 H 0.74852 0.45037 0.14677
C33_5 C 0.71698 0.46177 0.06715
C34_5 C 0.72745 0.43528 0.01904
C35_5 C 0.76986 0.38008 0.01928
C36_5 C 0.66442 0.51869 0.06900
C37_5 C 0.66140 0.55513 0.11356
H21_5 H 0.69485 0.55086 0.14325
C38_5 C 0.60870 0.59762 0.11346
H22_5 H 0.60770 0.62211 0.14341
C39_5 C 0.61280 0.52559 0.02698
C40_5 C 0.56060 0.56846 0.03080
H24_5 H 0.52512 0.57104 0.00248
O11_3 O 0.88919 0.19955 0.09358
O12_3 O 0.98370 0.11827 0.14575
O13_3 O 0.93061 0.06722 0.07394
O9_3 O 0.98370 0.88173 0.64575
O10_3 O 0.93061 0.93278 0.57394
C27_5 C 0.92561 0.98537 0.65624
C28_5 C 0.93314 0.97285 0.70910
H15_5 H 0.94911 0.92933 0.72302
C30_5 C 0.94850 0.93185 0.62284
Zn3_3 Zn 0.97128 0.84692 0.57944
O3_6 O 0.67172 0.01210 0.23151
O5_6 O 0.88903 0.24078 0.17303
C9_6 C 0.74358 0.03853 0.17773
C10_6 C 0.75152 0.05282 0.12435
H5_6 H 0.72774 0.02902 0.09736
C11_6 C 0.79483 0.10242 0.11129
H6_6 H 0.80093 0.11086 0.07569
C12_6 C 0.82922 0.13959 0.15118
C13_6 C 0.82109 0.12519 0.20414
H7_6 H 0.84412 0.14970 0.23091
C14_6 C 0.77914 0.07480 0.21795
H8_6 H 0.77476 0.06532 0.25371
C15_6 C 0.87173 0.19631 0.13830
C36_6 C 0.16442 0.01869 0.06900
C37_6 C 0.16140 0.05513 0.11356
H21_6 H 0.19485 0.05086 0.14325
C38_6 C 0.10870 0.09762 0.11346
H22_6 H 0.10770 0.12211 0.14341
C39_6 C 0.11280 0.02559 0.02698
C40_6 C 0.06060 0.06846 0.03080
H24_6 H 0.02512 0.07104 0.00248
N1_6 N 0.30104 0.84998 0.06412
O1_6 O 0.51547 0.73473 0.09478
O2_6 O 0.44491 0.82482 0.07225
O6_6 O 0.44499 0.66455 0.00973
C1_6 C 0.50202 0.79907 0.08862
C2_6 C 0.55407 0.85213 0.10626
C3_6 C 0.53132 0.90616 0.13560
H1_6 H 0.48567 0.90942 0.13950
C4_6 C 0.57713 0.95482 0.15890
H2_6 H 0.56195 0.99198 0.17728
C5_6 C 0.64535 0.94897 0.15504
C6_6 C 0.66738 0.89614 0.12492
H3_6 H 0.71297 0.89274 0.12122
C7_6 C 0.62172 0.84820 0.10024
H4_6 H 0.63673 0.81320 0.07958
C8_6 C 0.68825 0.99842 0.18929
C31_6 C 0.29286 0.87717 0.11037
H17_6 H 0.31549 0.85771 0.14175
C32_6 C 0.25232 0.93256 0.11372
H18_6 H 0.24852 0.95037 0.14677
C33_6 C 0.21698 0.96177 0.06715
C34_6 C 0.22745 0.93528 0.01904
C35_6 C 0.26986 0.88008 0.01928
O12_4 O 0.48370 0.61827 0.14575
O13_4 O 0.43061 0.56722 0.07394
O7_4 O 0.37265 0.75268 0.99140
O8_4 O 0.35898 0.70169 0.73264
O9_4 O 0.48370 0.38173 0.64575
O10_4 O 0.43061 0.43278 0.57394
C16_4 C 0.40798 0.70446 0.97868
C17_4 C 0.40850 0.69061 0.92232
C18_4 C 0.40932 0.62261 0.90405
H9_4 H 0.41345 0.58782 0.92722
C19_4 C 0.40412 0.60671 0.85186
H10_4 H 0.40548 0.56115 0.84012
C20_4 C 0.39682 0.65786 0.81648
C21_4 C 0.39602 0.72596 0.83470
H11_4 H 0.39100 0.76065 0.81140
C22_4 C 0.40241 0.74219 0.88695
H12_4 H 0.40270 0.78783 0.89874
C23_4 C 0.38401 0.65060 0.75661
C24_4 C 0.39449 0.59128 0.72071
C25_4 C 0.38883 0.60401 0.66768
H13_4 H 0.37443 0.64802 0.65383
C26_4 C 0.40458 0.55155 0.63595
H14_4 H 0.40104 0.56041 0.60078
C27_6 C 0.42561 0.48537 0.65624
C28_6 C 0.43314 0.47285 0.70910
H15_6 H 0.44911 0.42933 0.72302
C29_4 C 0.41667 0.52546 0.74106
H16_4 H 0.42046 0.51661 0.77623
C30_6 C 0.44850 0.43185 0.62284
H19_4 H 0.20626 0.95441 0.98709
H20_4 H 0.27696 0.86320 0.98691
Zn3_4 Zn 0.47128 0.34692 0.57944
O1_7 O 0.01547 0.76527 0.59478
O3_7 O 0.17172 0.48790 0.73151
O4_4 O 0.38919 0.30045 0.59358
O5_7 O 0.38903 0.25922 0.67303
C1_7 C 0.00202 0.70093 0.58862
C2_7 C 0.05407 0.64787 0.60626
C3_7 C 0.03132 0.59384 0.63560
C4_7 C 0.07713 0.54518 0.65890
H2_7 H 0.06195 0.50802 0.67728
C5_7 C 0.14535 0.55103 0.65504
C6_7 C 0.16738 0.60386 0.62492
H3_7 H 0.21297 0.60726 0.62122
C7_7 C 0.12172 0.65180 0.60024
H4_7 H 0.13673 0.68680 0.57958
C8_7 C 0.18825 0.50158 0.68929
C9_7 C 0.24358 0.46147 0.67773
C10_7 C 0.25152 0.44718 0.62435
H5_7 H 0.22774 0.47098 0.59736
C11_7 C 0.29483 0.39758 0.61129
H6_7 H 0.30093 0.38914 0.57569
C12_7 C 0.32922 0.36041 0.65118
C13_7 C 0.32109 0.37481 0.70414
H7_7 H 0.34412 0.35030 0.73091
C14_7 C 0.27914 0.42520 0.71795
H8_7 H 0.27476 0.43468 0.75371
C15_7 C 0.37173 0.30369 0.63830
Zn6_4 Zn 0.37265 0.21922 0.55841
N3_4 N 0.05857 0.89458 0.57204
C27_7 C 0.92561 0.01463 0.15624
C28_7 C 0.93314 0.02715 0.20910
H15_7 H 0.94911 0.07067 0.22302
C30_7 C 0.94850 0.06815 0.12284
Zn2_4 Zn 0.87265 0.71922 0.55841
N1_7 N 0.80104 0.65002 0.56412
N2_4 N 0.55857 0.39458 0.57204
O2_7 O 0.94491 0.67518 0.57225
O6_7 O 0.94499 0.83545 0.50973
O7_5 O 0.87265 0.74732 0.49140
O8_5 O 0.85898 0.79831 0.23264
H1_7 H 0.98567 0.59058 0.63950
C16_5 C 0.90798 0.79554 0.47868
C17_5 C 0.90850 0.80939 0.42232
C18_5 C 0.90932 0.87739 0.40405
H9_5 H 0.91345 0.91218 0.42722
C19_5 C 0.90412 0.89329 0.35186
H10_5 H 0.90548 0.93885 0.34012
C20_5 C 0.89682 0.84214 0.31648
C21_5 C 0.89602 0.77404 0.33470
H11_5 H 0.89100 0.73935 0.31140
C22_5 C 0.90241 0.75781 0.38695
H12_5 H 0.90270 0.71217 0.39874
C23_5 C 0.88401 0.84940 0.25661
C24_5 C 0.89449 0.90872 0.22071
C25_5 C 0.88883 0.89599 0.16768
H13_5 H 0.87443 0.85198 0.15383
C26_5 C 0.90458 0.94845 0.13595
H14_5 H 0.90104 0.93959 0.10078
C29_5 C 0.91667 0.97454 0.24106
H16_5 H 0.92046 0.98339 0.27623
C31_7 C 0.79286 0.62283 0.61037
H17_7 H 0.81549 0.64229 0.64175
C32_7 C 0.75232 0.56744 0.61372
H18_7 H 0.74852 0.54963 0.64677
C33_7 C 0.71698 0.53823 0.56715
C34_7 C 0.72745 0.56472 0.51904
H19_5 H 0.70626 0.54559 0.48709
C35_7 C 0.76986 0.61992 0.51928
H20_5 H 0.77696 0.63680 0.48691
C36_7 C 0.66442 0.48131 0.56900
C37_7 C 0.66140 0.44487 0.61356
H21_7 H 0.69485 0.44914 0.64325
C38_7 C 0.60870 0.40238 0.61346
H22_7 H 0.60770 0.37789 0.64341
C39_7 C 0.61280 0.47441 0.52698
H23_3 H 0.61261 0.49803 0.49638
C40_7 C 0.56060 0.43154 0.53080
H24_7 H 0.52512 0.42896 0.50248
O11_4 O 0.88919 0.80045 0.59358
N1_8 N 0.30104 0.15002 0.56412
O1_8 O 0.51547 0.26527 0.59478
O2_8 O 0.44491 0.17518 0.57225
O6_8 O 0.44499 0.33545 0.50973
O7_6 O 0.37265 0.24732 0.49140
O8_6 O 0.35898 0.29831 0.23264
C1_8 C 0.50202 0.20093 0.58862
C2_8 C 0.55407 0.14787 0.60626
C3_8 C 0.53132 0.09384 0.63560
H1_8 H 0.48567 0.09058 0.63950
C4_8 C 0.57713 0.04518 0.65890
H2_8 H 0.56195 0.00802 0.67728
C5_8 C 0.64535 0.05103 0.65504
C6_8 C 0.66738 0.10386 0.62492
H3_8 H 0.71297 0.10726 0.62122
C7_8 C 0.62172 0.15180 0.60024
H4_8 H 0.63673 0.18680 0.57958
C8_8 C 0.68825 0.00158 0.68929
C16_6 C 0.40798 0.29554 0.47868
C17_6 C 0.40850 0.30939 0.42232
C18_6 C 0.40932 0.37739 0.40405
H9_6 H 0.41345 0.41218 0.42722
C19_6 C 0.40412 0.39329 0.35186
H10_6 H 0.40548 0.43885 0.34012
C20_6 C 0.39682 0.34214 0.31648
C21_6 C 0.39602 0.27404 0.33470
H11_6 H 0.39100 0.23935 0.31140
C22_6 C 0.40241 0.25781 0.38695
H12_6 H 0.40270 0.21217 0.39874
C23_6 C 0.38401 0.34940 0.25661
C24_6 C 0.39449 0.40872 0.22071
C25_6 C 0.38883 0.39599 0.16768
H13_6 H 0.37443 0.35198 0.15383
C26_6 C 0.40458 0.44845 0.13595
H14_6 H 0.40104 0.43959 0.10078
C27_8 C 0.42561 0.51463 0.15624
C28_8 C 0.43314 0.52715 0.20910
H15_8 H 0.44911 0.57067 0.22302
C29_6 C 0.41667 0.47454 0.24106
H16_6 H 0.42046 0.48339 0.27623
C30_8 C 0.44850 0.56815 0.12284
C31_8 C 0.29286 0.12283 0.61037
H17_8 H 0.31549 0.14229 0.64175
C32_8 C 0.25232 0.06744 0.61372
H18_8 H 0.24852 0.04963 0.64677
C33_8 C 0.21698 0.03823 0.56715
C34_8 C 0.22745 0.06472 0.51904
H19_6 H 0.20626 0.04559 0.48709
C35_8 C 0.26986 0.11992 0.51928
H20_6 H 0.27696 0.13680 0.48691
O3_8 O 0.67172 0.98790 0.73151
O5_8 O 0.88903 0.75922 0.67303
C9_8 C 0.74358 0.96147 0.67773
C10_8 C 0.75152 0.94718 0.62435
H5_8 H 0.72774 0.97098 0.59736
C11_8 C 0.79483 0.89758 0.61129
H6_8 H 0.80093 0.88914 0.57569
C12_8 C 0.82922 0.86041 0.65118
C13_8 C 0.82109 0.87481 0.70414
H7_8 H 0.84412 0.85030 0.73091
C14_8 C 0.77914 0.92520 0.71795
H8_8 H 0.77476 0.93468 0.75371
C15_8 C 0.87173 0.80369 0.63830
C36_8 C 0.16442 0.98131 0.56900
C37_8 C 0.16140 0.94487 0.61356
H21_8 H 0.19485 0.94914 0.64325
C38_8 C 0.10870 0.90238 0.61346
H22_8 H 0.10770 0.87789 0.64341
C39_8 C 0.11280 0.97441 0.52698
H23_4 H 0.11261 0.99803 0.49638
C40_8 C 0.06060 0.93154 0.53080
H24_8 H 0.02512 0.92896 0.50248
O7_7 O 0.87265 0.25268 0.99140
O8_7 O 0.85898 0.20169 0.73264
C16_7 C 0.90798 0.20446 0.97868
C17_7 C 0.90850 0.19061 0.92232
C18_7 C 0.90932 0.12261 0.90405
H9_7 H 0.91345 0.08782 0.92722
C19_7 C 0.90412 0.10671 0.85186
H10_7 H 0.90548 0.06115 0.84012
C20_7 C 0.89682 0.15786 0.81648
C21_7 C 0.89602 0.22596 0.83470
H11_7 H 0.89100 0.26065 0.81140
C22_7 C 0.90241 0.24219 0.88695
H12_7 H 0.90270 0.28783 0.89874
C23_7 C 0.88401 0.15060 0.75661
C24_7 C 0.89449 0.09128 0.72071
C25_7 C 0.88883 0.10401 0.66768
H13_7 H 0.87443 0.14802 0.65383
C26_7 C 0.90458 0.05155 0.63595
H14_7 H 0.90104 0.06041 0.60078
C29_7 C 0.91667 0.02546 0.74106
H16_7 H 0.92046 0.01661 0.77623
H19_7 H 0.70626 0.45441 0.98709
H20_7 H 0.77696 0.36320 0.98691
H23_5 H 0.61261 0.50197 0.99638
H23_6 H 0.11261 0.00197 0.99638
O7_8 O 0.12735 0.74732 0.00860
O8_8 O 0.14102 0.79831 0.26736
C16_8 C 0.09202 0.79554 0.02132
C17_8 C 0.09150 0.80939 0.07768
C18_8 C 0.09068 0.87739 0.09595
H9_8 H 0.08655 0.91218 0.07278
C19_8 C 0.09588 0.89329 0.14814
H10_8 H 0.09452 0.93885 0.15988
C20_8 C 0.10318 0.84214 0.18352
C21_8 C 0.10398 0.77404 0.16530
H11_8 H 0.10900 0.73935 0.18860
C22_8 C 0.09759 0.75781 0.11305
H12_8 H 0.09730 0.71217 0.10126
C23_8 C 0.11599 0.84940 0.24339
C24_8 C 0.10551 0.90872 0.27929
C25_8 C 0.11117 0.89599 0.33232
H13_8 H 0.12557 0.85198 0.34617
C26_8 C 0.09542 0.94845 0.36405
H14_8 H 0.09896 0.93959 0.39922
C29_8 C 0.08333 0.97454 0.25894
H16_8 H 0.07954 0.98339 0.22377
H19_8 H 0.29374 0.54559 0.01291
H20_8 H 0.22304 0.63680 0.01309
H23_7 H 0.38739 0.49803 0.00362
H23_8 H 0.88739 0.99803 0.00362
loop_
_geom_bond_atom_site_label_1
_geom_bond_atom_site_label_2
_geom_bond_site_symmetry_1
_geom_bond_site_symmetry_2
Zn2 N1 1_555 1_555
N1 C31 1_555 1_555
N2 C38 1_555 1_555
O2 Zn2 1_555 1_555
O6 Zn1 1_555 1_555
O7 Zn2 1_555 1_555
O8 C23 1_555 1_555
C16 O6 1_555 1_555
C17 C16 1_555 1_555
C18 C17 1_555 1_555
H9 C18 1_555 1_555
C19 C18 1_555 1_555
H10 C19 1_555 1_555
C20 C19 1_555 1_555
C21 C20 1_555 1_555
H11 C21 1_555 1_555
C22 C17 1_555 1_555
H12 C22 1_555 1_555
C23 C20 1_555 1_555
C24 C23 1_555 1_555
C25 C24 1_555 1_555
H13 C25 1_555 1_555
C26 C25 1_555 1_555
H14 C26 1_555 1_555
C29 C24 1_555 1_555
H16 C29 1_555 1_555
C31 H17 1_555 1_555
C32 C31 1_555 1_555
H18 C32 1_555 1_555
C33 C32 1_555 1_555
C34 C33 1_555 1_555
H19 C34 1_555 1_555
C35 N1 1_555 1_555
H20 C35 1_555 1_555
C36 C33 1_555 1_555
C37 C36 1_555 1_555
H21 C37 1_555 1_555
C38 C37 1_555 1_555
H22 C38 1_555 1_555
C39 C36 1_555 1_555
H23 C39 1_555 1_555
C40 N2 1_555 1_555
H24 C40 1_555 1_555
Zn5 N2 1_555 1_555
O11 Zn1 1_555 1_555
O12 Zn1 1_555 1_555
O13 Zn1 1_555 1_555
Zn2 O11 1_555 1_555
O7 C16 1_555 1_555
C21 C22 1_555 1_555
C34 C35 1_555 1_555
C39 C40 1_555 1_555
O9 C30 1_555 1_555
O10 C30 1_555 1_555
C28 C27 1_555 1_555
H15 C28 1_555 1_555
C30 C27 1_555 1_555
Zn3 O9 1_555 1_555
O10 Zn3 1_555 1_555
O1 C1 1_555 1_555
O3 C8 1_555 1_555
O4 C15 1_555 1_555
O5 C15 1_555 1_555
C2 C1 1_555 1_555
C3 C2 1_555 1_555
C4 C3 1_555 1_555
H2 C4 1_555 1_555
C5 C4 1_555 1_555
C6 C5 1_555 1_555
H3 C6 1_555 1_555
C7 C2 1_555 1_555
H4 C7 1_555 1_555
C8 C5 1_555 1_555
C9 C8 1_555 1_555
C10 C9 1_555 1_555
H5 C10 1_555 1_555
C11 C10 1_555 1_555
H6 C11 1_555 1_555
C12 C11 1_555 1_555
C13 C12 1_555 1_555
H7 C13 1_555 1_555
C14 C9 1_555 1_555
H8 C14 1_555 1_555
C15 C12 1_555 1_555
Zn5 O4 1_555 1_555
Zn6 O4 1_555 1_555
C6 C7 1_555 1_555
C13 C14 1_555 1_555
N3 C38_2 1_555 1_555
O11 C15_2 1_555 1_555
O5_2 C15_2 1_555 1_555
C10_2 C9_2 1_555 1_555
H5_2 C10_2 1_555 1_555
C11_2 C10_2 1_555 1_555
H6_2 C11_2 1_555 1_555
C12_2 C11_2 1_555 1_555
C13_2 C12_2 1_555 1_555
H7_2 C13_2 1_555 1_555
C14_2 C9_2 1_555 1_555
H8_2 C14_2 1_555 1_555
C15_2 C12_2 1_555 1_555
C37_2 C36_2 1_555 1_555
H21_2 C37_2 1_555 1_555
C38_2 C37_2 1_555 1_555
H22_2 C38_2 1_555 1_555
C39_2 C36_2 1_555 1_555
H23_2 C39_2 1_555 1_555
C40_2 N3 1_555 1_555
H24_2 C40_2 1_555 1_555
C13_2 C14_2 1_555 1_555
C39_2 C40_2 1_555 1_555
Zn5 O1_2 1_555 1_555
Zn6 N1_2 1_555 1_555
N1_2 C31_2 1_555 1_555
O1_2 C1_2 1_555 1_555
O2_2 Zn6 1_555 1_555
O6_2 Zn5 1_555 1_555
O7_2 Zn6 1_555 1_555
O8_2 C23_2 1_555 1_555
O9_2 C30_2 1_555 1_555
O10_2 C30_2 1_555 1_555
C1_2 O2_2 1_555 1_555
C2_2 C1_2 1_555 1_555
C3_2 C2_2 1_555 1_555
H1_2 C3_2 1_555 1_555
C4_2 C3_2 1_555 1_555
H2_2 C4_2 1_555 1_555
C5_2 C4_2 1_555 1_555
C6_2 C5_2 1_555 1_555
H3_2 C6_2 1_555 1_555
C7_2 C2_2 1_555 1_555
H4_2 C7_2 1_555 1_555
C8_2 C5_2 1_555 1_555
C16_2 O6_2 1_555 1_555
C17_2 C16_2 1_555 1_555
C18_2 C17_2 1_555 1_555
H9_2 C18_2 1_555 1_555
C19_2 C18_2 1_555 1_555
H10_2 C19_2 1_555 1_555
C20_2 C19_2 1_555 1_555
C21_2 C20_2 1_555 1_555
H11_2 C21_2 1_555 1_555
C22_2 C17_2 1_555 1_555
H12_2 C22_2 1_555 1_555
C23_2 C20_2 1_555 1_555
C24_2 C23_2 1_555 1_555
C25_2 C24_2 1_555 1_555
H13_2 C25_2 1_555 1_555
C26_2 C25_2 1_555 1_555
H14_2 C26_2 1_555 1_555
C27_2 C26_2 1_555 1_555
C28_2 C27_2 1_555 1_555
H15_2 C28_2 1_555 1_555
C29_2 C24_2 1_555 1_555
H16_2 C29_2 1_555 1_555
C30_2 C27_2 1_555 1_555
C31_2 H17_2 1_555 1_555
C32_2 C31_2 1_555 1_555
H18_2 C32_2 1_555 1_555
C33_2 C32_2 1_555 1_555
C34_2 C33_2 1_555 1_555
H19_2 C34_2 1_555 1_555
C35_2 N1_2 1_555 1_555
H20_2 C35_2 1_555 1_555
Zn3_2 O9_2 1_555 1_555
O12_2 Zn5 1_555 1_555
O13_2 Zn5 1_555 1_555
O7_2 C16_2 1_555 1_555
O10_2 Zn3_2 1_555 1_555
C6_2 C7_2 1_555 1_555
C21_2 C22_2 1_555 1_555
C28_2 C29_2 1_555 1_555
C34_2 C35_2 1_555 1_555
O12 C30_3 1_555 1_555
O13 C30_3 1_555 1_555
C28_3 C27_3 1_555 1_555
H15_3 C28_3 1_555 1_555
C30_3 C27_3 1_555 1_555
Zn2_2 N1_3 1_555 1_555
N1_3 C31_3 1_555 1_555
N2_2 C38_3 1_555 1_555
O2_3 Zn2_2 1_555 1_555
O6_3 Zn3 1_555 1_555
C31_3 H17_3 1_555 1_555
C32_3 C31_3 1_555 1_555
H18_3 C32_3 1_555 1_555
C33_3 C32_3 1_555 1_555
C34_3 C33_3 1_555 1_555
C35_3 N1_3 1_555 1_555
C36_3 C33_3 1_555 1_555
C37_3 C36_3 1_555 1_555
H21_3 C37_3 1_555 1_555
C38_3 C37_3 1_555 1_555
H22_3 C38_3 1_555 1_555
C39_3 C36_3 1_555 1_555
C40_3 N2_2 1_555 1_555
H24_3 C40_3 1_555 1_555
Zn3_2 N2_2 1_555 1_555
O11_2 Zn3 1_555 1_555
Zn2_2 O11_2 1_555 1_555
C34_3 C35_3 1_555 1_555
C39_3 C40_3 1_555 1_555
O1_3 C1_3 1_555 1_555
O3_3 C8_3 1_555 1_555
O4_2 C15_3 1_555 1_555
O5_3 C15_3 1_555 1_555
C2_3 C1_3 1_555 1_555
C3_3 C2_3 1_555 1_555
C4_3 C3_3 1_555 1_555
H2_3 C4_3 1_555 1_555
C5_3 C4_3 1_555 1_555
C6_3 C5_3 1_555 1_555
H3_3 C6_3 1_555 1_555
C7_3 C2_3 1_555 1_555
H4_3 C7_3 1_555 1_555
C8_3 C5_3 1_555 1_555
C9_3 C8_3 1_555 1_555
C10_3 C9_3 1_555 1_555
H5_3 C10_3 1_555 1_555
C11_3 C10_3 1_555 1_555
H6_3 C11_3 1_555 1_555
C12_3 C11_3 1_555 1_555
C13_3 C12_3 1_555 1_555
H7_3 C13_3 1_555 1_555
C14_3 C9_3 1_555 1_555
H8_3 C14_3 1_555 1_555
C15_3 C12_3 1_555 1_555
Zn3_2 O4_2 1_555 1_555
Zn6_2 O4_2 1_555 1_555
C6_3 C7_3 1_555 1_555
C13_3 C14_3 1_555 1_555
O8_3 C23_3 1_555 1_555
O12_2 C30_4 1_555 1_555
O13_2 C30_4 1_555 1_555
C17_3 C16_3 1_555 1_555
C18_3 C17_3 1_555 1_555
H9_3 C18_3 1_555 1_555
C19_3 C18_3 1_555 1_555
H10_3 C19_3 1_555 1_555
C20_3 C19_3 1_555 1_555
C21_3 C20_3 1_555 1_555
H11_3 C21_3 1_555 1_555
C22_3 C17_3 1_555 1_555
H12_3 C22_3 1_555 1_555
C23_3 C20_3 1_555 1_555
C24_3 C23_3 1_555 1_555
C25_3 C24_3 1_555 1_555
H13_3 C25_3 1_555 1_555
C26_3 C25_3 1_555 1_555
H14_3 C26_3 1_555 1_555
C27_4 C26_3 1_555 1_555
C28_4 C27_4 1_555 1_555
H15_4 C28_4 1_555 1_555
C29_3 C24_3 1_555 1_555
H16_3 C29_3 1_555 1_555
C30_4 C27_4 1_555 1_555
O7_3 C16_3 1_555 1_555
C21_3 C22_3 1_555 1_555
C28_4 C29_3 1_555 1_555
Zn3_2 O1_4 1_555 1_555
Zn6_2 N1_4 1_555 1_555
N1_4 C31_4 1_555 1_555
O1_4 C1_4 1_555 1_555
O2_4 Zn6_2 1_555 1_555
O6_4 Zn3_2 1_555 1_555
C1_4 O2_4 1_555 1_555
C2_4 C1_4 1_555 1_555
C3_4 C2_4 1_555 1_555
H1_4 C3_4 1_555 1_555
C4_4 C3_4 1_555 1_555
H2_4 C4_4 1_555 1_555
C5_4 C4_4 1_555 1_555
C6_4 C5_4 1_555 1_555
H3_4 C6_4 1_555 1_555
C7_4 C2_4 1_555 1_555
H4_4 C7_4 1_555 1_555
C8_4 C5_4 1_555 1_555
C31_4 H17_4 1_555 1_555
C32_4 C31_4 1_555 1_555
H18_4 C32_4 1_555 1_555
C33_4 C32_4 1_555 1_555
C34_4 C33_4 1_555 1_555
C35_4 N1_4 1_555 1_555
C6_4 C7_4 1_555 1_555
C34_4 C35_4 1_555 1_555
N3_2 C38_4 1_555 1_555
O11_2 C15_4 1_555 1_555
O5_4 C15_4 1_555 1_555
C10_4 C9_4 1_555 1_555
H5_4 C10_4 1_555 1_555
C11_4 C10_4 1_555 1_555
H6_4 C11_4 1_555 1_555
C12_4 C11_4 1_555 1_555
C13_4 C12_4 1_555 1_555
H7_4 C13_4 1_555 1_555
C14_4 C9_4 1_555 1_555
H8_4 C14_4 1_555 1_555
C15_4 C12_4 1_555 1_555
C37_4 C36_4 1_555 1_555
H21_4 C37_4 1_555 1_555
C38_4 C37_4 1_555 1_555
H22_4 C38_4 1_555 1_555
C39_4 C36_4 1_555 1_555
C40_4 N3_2 1_555 1_555
H24_4 C40_4 1_555 1_555
C13_4 C14_4 1_555 1_555
C39_4 C40_4 1_555 1_555
O1_5 C1_5 1_555 1_555
O3_5 C8_5 1_555 1_555
O4_3 C15_5 1_555 1_555
O5_5 C15_5 1_555 1_555
C2_5 C1_5 1_555 1_555
C3_5 C2_5 1_555 1_555
C4_5 C3_5 1_555 1_555
H2_5 C4_5 1_555 1_555
C5_5 C4_5 1_555 1_555
C6_5 C5_5 1_555 1_555
H3_5 C6_5 1_555 1_555
C7_5 C2_5 1_555 1_555
H4_5 C7_5 1_555 1_555
C8_5 C5_5 1_555 1_555
C9_5 C8_5 1_555 1_555
C10_5 C9_5 1_555 1_555
H5_5 C10_5 1_555 1_555
C11_5 C10_5 1_555 1_555
H6_5 C11_5 1_555 1_555
C12_5 C11_5 1_555 1_555
C13_5 C12_5 1_555 1_555
H7_5 C13_5 1_555 1_555
C14_5 C9_5 1_555 1_555
H8_5 C14_5 1_555 1_555
C15_5 C12_5 1_555 1_555
Zn4 O4_3 1_555 1_555
Zn6_3 O4_3 1_555 1_555
C6_5 C7_5 1_555 1_555
C13_5 C14_5 1_555 1_555
Zn2_3 N1_5 1_555 1_555
N1_5 C31_5 1_555 1_555
N2_3 C38_5 1_555 1_555
O2_5 Zn2_3 1_555 1_555
O6_5 Zn1_2 1_555 1_555
C31_5 H17_5 1_555 1_555
C32_5 C31_5 1_555 1_555
H18_5 C32_5 1_555 1_555
C33_5 C32_5 1_555 1_555
C34_5 C33_5 1_555 1_555
C35_5 N1_5 1_555 1_555
C36_5 C33_5 1_555 1_555
C37_5 C36_5 1_555 1_555
H21_5 C37_5 1_555 1_555
C38_5 C37_5 1_555 1_555
H22_5 C38_5 1_555 1_555
C39_5 C36_5 1_555 1_555
C40_5 N2_3 1_555 1_555
H24_5 C40_5 1_555 1_555
Zn4 N2_3 1_555 1_555
O11_3 Zn1_2 1_555 1_555
O12_3 Zn1_2 1_555 1_555
O13_3 Zn1_2 1_555 1_555
Zn2_3 O11_3 1_555 1_555
C34_5 C35_5 1_555 1_555
C39_5 C40_5 1_555 1_555
O9_3 C30_5 1_555 1_555
O10_3 C30_5 1_555 1_555
C28_5 C27_5 1_555 1_555
H15_5 C28_5 1_555 1_555
C30_5 C27_5 1_555 1_555
Zn3_3 O9_3 1_555 1_555
O10_3 Zn3_3 1_555 1_555
N3_3 C38_6 1_555 1_555
O11_3 C15_6 1_555 1_555
O5_6 C15_6 1_555 1_555
C10_6 C9_6 1_555 1_555
H5_6 C10_6 1_555 1_555
C11_6 C10_6 1_555 1_555
H6_6 C11_6 1_555 1_555
C12_6 C11_6 1_555 1_555
C13_6 C12_6 1_555 1_555
H7_6 C13_6 1_555 1_555
C14_6 C9_6 1_555 1_555
H8_6 C14_6 1_555 1_555
C15_6 C12_6 1_555 1_555
C37_6 C36_6 1_555 1_555
H21_6 C37_6 1_555 1_555
C38_6 C37_6 1_555 1_555
H22_6 C38_6 1_555 1_555
C39_6 C36_6 1_555 1_555
C40_6 N3_3 1_555 1_555
H24_6 C40_6 1_555 1_555
C13_6 C14_6 1_555 1_555
C39_6 C40_6 1_555 1_555
Zn4 O1_6 1_555 1_555
Zn6_3 N1_6 1_555 1_555
N1_6 C31_6 1_555 1_555
O1_6 C1_6 1_555 1_555
O2_6 Zn6_3 1_555 1_555
O6_6 Zn4 1_555 1_555
C1_6 O2_6 1_555 1_555
C2_6 C1_6 1_555 1_555
C3_6 C2_6 1_555 1_555
H1_6 C3_6 1_555 1_555
C4_6 C3_6 1_555 1_555
H2_6 C4_6 1_555 1_555
C5_6 C4_6 1_555 1_555
C6_6 C5_6 1_555 1_555
H3_6 C6_6 1_555 1_555
C7_6 C2_6 1_555 1_555
H4_6 C7_6 1_555 1_555
C8_6 C5_6 1_555 1_555
C31_6 H17_6 1_555 1_555
C32_6 C31_6 1_555 1_555
H18_6 C32_6 1_555 1_555
C33_6 C32_6 1_555 1_555
C34_6 C33_6 1_555 1_555
C35_6 N1_6 1_555 1_555
O12_4 Zn4 1_555 1_555
O13_4 Zn4 1_555 1_555
C6_6 C7_6 1_555 1_555
C34_6 C35_6 1_555 1_555
O8_4 C23_4 1_555 1_555
O9_4 C30_6 1_555 1_555
O10_4 C30_6 1_555 1_555
C17_4 C16_4 1_555 1_555
C18_4 C17_4 1_555 1_555
H9_4 C18_4 1_555 1_555
C19_4 C18_4 1_555 1_555
H10_4 C19_4 1_555 1_555
C20_4 C19_4 1_555 1_555
C21_4 C20_4 1_555 1_555
H11_4 C21_4 1_555 1_555
C22_4 C17_4 1_555 1_555
H12_4 C22_4 1_555 1_555
C23_4 C20_4 1_555 1_555
C24_4 C23_4 1_555 1_555
C25_4 C24_4 1_555 1_555
H13_4 C25_4 1_555 1_555
C26_4 C25_4 1_555 1_555
H14_4 C26_4 1_555 1_555
C27_6 C26_4 1_555 1_555
C28_6 C27_6 1_555 1_555
H15_6 C28_6 1_555 1_555
C29_4 C24_4 1_555 1_555
H16_4 C29_4 1_555 1_555
C30_6 C27_6 1_555 1_555
Zn3_4 O9_4 1_555 1_555
O7_4 C16_4 1_555 1_555
O10_4 Zn3_4 1_555 1_555
C21_4 C22_4 1_555 1_555
C28_6 C29_4 1_555 1_555
O1_7 C1_7 1_555 1_555
O3_7 C8_7 1_555 1_555
O4_4 C15_7 1_555 1_555
O5_7 C15_7 1_555 1_555
C2_7 C1_7 1_555 1_555
C3_7 C2_7 1_555 1_555
C4_7 C3_7 1_555 1_555
H2_7 C4_7 1_555 1_555
C5_7 C4_7 1_555 1_555
C6_7 C5_7 1_555 1_555
H3_7 C6_7 1_555 1_555
C7_7 C2_7 1_555 1_555
H4_7 C7_7 1_555 1_555
C8_7 C5_7 1_555 1_555
C9_7 C8_7 1_555 1_555
C10_7 C9_7 1_555 1_555
H5_7 C10_7 1_555 1_555
C11_7 C10_7 1_555 1_555
H6_7 C11_7 1_555 1_555
C12_7 C11_7 1_555 1_555
C13_7 C12_7 1_555 1_555
H7_7 C13_7 1_555 1_555
C14_7 C9_7 1_555 1_555
H8_7 C14_7 1_555 1_555
C15_7 C12_7 1_555 1_555
Zn3_4 O4_4 1_555 1_555
Zn6_4 O4_4 1_555 1_555
C6_7 C7_7 1_555 1_555
C13_7 C14_7 1_555 1_555
O12_3 C30_7 1_555 1_555
O13_3 C30_7 1_555 1_555
C28_7 C27_7 1_555 1_555
H15_7 C28_7 1_555 1_555
C30_7 C27_7 1_555 1_555
Zn2_4 N1_7 1_555 1_555
N1_7 C31_7 1_555 1_555
N2_4 C38_7 1_555 1_555
O2_7 Zn2_4 1_555 1_555
O6_7 Zn3_3 1_555 1_555
O7_5 Zn2_4 1_555 1_555
O8_5 C23_5 1_555 1_555
C16_5 O6_7 1_555 1_555
C17_5 C16_5 1_555 1_555
C18_5 C17_5 1_555 1_555
H9_5 C18_5 1_555 1_555
C19_5 C18_5 1_555 1_555
H10_5 C19_5 1_555 1_555
C20_5 C19_5 1_555 1_555
C21_5 C20_5 1_555 1_555
H11_5 C21_5 1_555 1_555
C22_5 C17_5 1_555 1_555
H12_5 C22_5 1_555 1_555
C23_5 C20_5 1_555 1_555
C24_5 C23_5 1_555 1_555
C25_5 C24_5 1_555 1_555
H13_5 C25_5 1_555 1_555
C26_5 C25_5 1_555 1_555
H14_5 C26_5 1_555 1_555
C29_5 C24_5 1_555 1_555
H16_5 C29_5 1_555 1_555
C31_7 H17_7 1_555 1_555
C32_7 C31_7 1_555 1_555
H18_7 C32_7 1_555 1_555
C33_7 C32_7 1_555 1_555
C34_7 C33_7 1_555 1_555
H19_5 C34_7 1_555 1_555
C35_7 N1_7 1_555 1_555
H20_5 C35_7 1_555 1_555
C36_7 C33_7 1_555 1_555
C37_7 C36_7 1_555 1_555
H21_7 C37_7 1_555 1_555
C38_7 C37_7 1_555 1_555
H22_7 C38_7 1_555 1_555
C39_7 C36_7 1_555 1_555
H23_3 C39_7 1_555 1_555
C40_7 N2_4 1_555 1_555
H24_7 C40_7 1_555 1_555
Zn3_4 N2_4 1_555 1_555
O11_4 Zn3_3 1_555 1_555
Zn2_4 O11_4 1_555 1_555
O7_5 C16_5 1_555 1_555
C21_5 C22_5 1_555 1_555
C34_7 C35_7 1_555 1_555
C39_7 C40_7 1_555 1_555
Zn3_4 O1_8 1_555 1_555
Zn6_4 N1_8 1_555 1_555
N1_8 C31_8 1_555 1_555
O1_8 C1_8 1_555 1_555
O2_8 Zn6_4 1_555 1_555
O6_8 Zn3_4 1_555 1_555
O7_6 Zn6_4 1_555 1_555
O8_6 C23_6 1_555 1_555
O12_4 C30_8 1_555 1_555
O13_4 C30_8 1_555 1_555
C1_8 O2_8 1_555 1_555
C2_8 C1_8 1_555 1_555
C3_8 C2_8 1_555 1_555
H1_8 C3_8 1_555 1_555
C4_8 C3_8 1_555 1_555
H2_8 C4_8 1_555 1_555
C5_8 C4_8 1_555 1_555
C6_8 C5_8 1_555 1_555
H3_8 C6_8 1_555 1_555
C7_8 C2_8 1_555 1_555
H4_8 C7_8 1_555 1_555
C8_8 C5_8 1_555 1_555
C16_6 O6_8 1_555 1_555
C17_6 C16_6 1_555 1_555
C18_6 C17_6 1_555 1_555
H9_6 C18_6 1_555 1_555
C19_6 C18_6 1_555 1_555
H10_6 C19_6 1_555 1_555
C20_6 C19_6 1_555 1_555
C21_6 C20_6 1_555 1_555
H11_6 C21_6 1_555 1_555
C22_6 C17_6 1_555 1_555
H12_6 C22_6 1_555 1_555
C23_6 C20_6 1_555 1_555
C24_6 C23_6 1_555 1_555
C25_6 C24_6 1_555 1_555
H13_6 C25_6 1_555 1_555
C26_6 C25_6 1_555 1_555
H14_6 C26_6 1_555 1_555
C27_8 C26_6 1_555 1_555
C28_8 C27_8 1_555 1_555
H15_8 C28_8 1_555 1_555
C29_6 C24_6 1_555 1_555
H16_6 C29_6 1_555 1_555
C30_8 C27_8 1_555 1_555
C31_8 H17_8 1_555 1_555
C32_8 C31_8 1_555 1_555
H18_8 C32_8 1_555 1_555
C33_8 C32_8 1_555 1_555
C34_8 C33_8 1_555 1_555
H19_6 C34_8 1_555 1_555
C35_8 N1_8 1_555 1_555
H20_6 C35_8 1_555 1_555
O7_6 C16_6 1_555 1_555
C6_8 C7_8 1_555 1_555
C21_6 C22_6 1_555 1_555
C28_8 C29_6 1_555 1_555
C34_8 C35_8 1_555 1_555
N3_4 C38_8 1_555 1_555
O11_4 C15_8 1_555 1_555
O5_8 C15_8 1_555 1_555
C10_8 C9_8 1_555 1_555
H5_8 C10_8 1_555 1_555
C11_8 C10_8 1_555 1_555
H6_8 C11_8 1_555 1_555
C12_8 C11_8 1_555 1_555
C13_8 C12_8 1_555 1_555
H7_8 C13_8 1_555 1_555
C14_8 C9_8 1_555 1_555
H8_8 C14_8 1_555 1_555
C15_8 C12_8 1_555 1_555
C37_8 C36_8 1_555 1_555
H21_8 C37_8 1_555 1_555
C38_8 C37_8 1_555 1_555
H22_8 C38_8 1_555 1_555
C39_8 C36_8 1_555 1_555
H23_4 C39_8 1_555 1_555
C40_8 N3_4 1_555 1_555
H24_8 C40_8 1_555 1_555
C13_8 C14_8 1_555 1_555
C39_8 C40_8 1_555 1_555
O8_7 C23_7 1_555 1_555
C17_7 C16_7 1_555 1_555
C18_7 C17_7 1_555 1_555
H9_7 C18_7 1_555 1_555
C19_7 C18_7 1_555 1_555
H10_7 C19_7 1_555 1_555
C20_7 C19_7 1_555 1_555
C21_7 C20_7 1_555 1_555
H11_7 C21_7 1_555 1_555
C22_7 C17_7 1_555 1_555
H12_7 C22_7 1_555 1_555
C23_7 C20_7 1_555 1_555
C24_7 C23_7 1_555 1_555
C25_7 C24_7 1_555 1_555
H13_7 C25_7 1_555 1_555
C26_7 C25_7 1_555 1_555
H14_7 C26_7 1_555 1_555
C29_7 C24_7 1_555 1_555
H16_7 C29_7 1_555 1_555
O7_7 C16_7 1_555 1_555
C21_7 C22_7 1_555 1_555
O8_8 C23_8 1_555 1_555
C17_8 C16_8 1_555 1_555
C18_8 C17_8 1_555 1_555
H9_8 C18_8 1_555 1_555
C19_8 C18_8 1_555 1_555
H10_8 C19_8 1_555 1_555
C20_8 C19_8 1_555 1_555
C21_8 C20_8 1_555 1_555
H11_8 C21_8 1_555 1_555
C22_8 C17_8 1_555 1_555
H12_8 C22_8 1_555 1_555
C23_8 C20_8 1_555 1_555
C24_8 C23_8 1_555 1_555
C25_8 C24_8 1_555 1_555
H13_8 C25_8 1_555 1_555
C26_8 C25_8 1_555 1_555
H14_8 C26_8 1_555 1_555
C29_8 C24_8 1_555 1_555
H16_8 C29_8 1_555 1_555
O7_8 C16_8 1_555 1_555
C21_8 C22_8 1_555 1_555

#END
