
###############################################################################
#
# This file contains modified crystal structure data generated from the
# MOF subset of the Cambridge Structural Database (CSD) v543 
# hosted by the Cambridge Crystallographic Data Centre (CCDC).
#
# This work is licensed under the Creative Commons
# Attribution-NonCommercial-ShareAlike 4.0 International License.
# To view a copy of this license, visit
# http://creativecommons.org/licenses/by-nc-sa/4.0/
# or send a letter to
# Creative Commons, PO Box 1866, Mountain View, CA 94042, USA.
#
# CIF created using the CSD Python API on 29 September 2022
# The structure has been converted into the P1 space group
# The structure has a 3D framework
# The original CSD entry VIWHUG is in the monoclinic crystal system
# The framework has been calculated to contain at least 10.0% void space
# The void calculation uses a probe of radius 1.32A, grid spacing 0.4
#
###############################################################################

data_VIWHUG
_chemical_formula_moiety         '(C200 H152 N16 O72 Zn14)n'
_symmetry_cell_setting           triclinic
_symmetry_space_group_name_H-M   'P 1'
_symmetry_Int_Tables_number      1
_space_group_name_Hall           'P 1'
loop_
_symmetry_equiv_pos_site_id
_symmetry_equiv_pos_as_xyz
1 x,y,z
_cell_length_a                   35.942(3)
_cell_length_b                   8.2640(10)
_cell_length_c                   19.180(2)
_cell_angle_alpha                90
_cell_angle_beta                 110.6100(10)
_cell_angle_gamma                90
_cell_volume                     5332.32
loop_
_atom_site_label
_atom_site_type_symbol
_atom_site_fract_x
_atom_site_fract_y
_atom_site_fract_z
C35 C 0.41354(18) 0.3452(8) 0.0433(3)
H23 H 0.3945 0.4185 0.0459
C36 C 0.4266(2) 0.2258(8) 0.0954(4)
H24 H 0.4160 0.2180 0.1331
C37 C 0.45533(19) 0.1161(7) 0.0933(3)
C38 C 0.4718(2) 0.1349(8) 0.0402(4)
H25 H 0.4926 0.0678 0.0403
C1 C 0.71816(17) 0.6950(7) 0.6374(3)
C2 C 0.66702(16) 0.4137(6) 0.6367(3)
C3 C 0.67391(17) 0.7051(6) 0.6017(3)
C4 C 0.64965(15) 0.5707(6) 0.6005(3)
C5 C 0.60969(17) 0.5888(7) 0.5668(3)
C6 C 0.5916(2) 0.7309(8) 0.5347(4)
H1 H 0.5641 0.7380 0.5120
C7 C 0.6162(2) 0.8644(9) 0.5376(4)
H2 H 0.6051 0.9619 0.5160
C8 C 0.65624(19) 0.8514(7) 0.5720(4)
H3 H 0.6721 0.9421 0.5757
C9 C 0.57140(16) 0.3566(7) 0.5127(3)
C10 C 0.58646(18) 0.3452(8) 0.4567(3)
H4 H 0.6055 0.4185 0.4541
C11 C 0.5734(2) 0.2258(8) 0.4046(4)
H5 H 0.5840 0.2180 0.3669
C12 C 0.54467(19) 0.1161(7) 0.4067(3)
C13 C 0.5282(2) 0.1349(8) 0.4598(4)
H6 H 0.5074 0.0678 0.4597
C14 C 0.54195(19) 0.2525(7) 0.5141(4)
H7 H 0.5312 0.2611 0.5515
C20 C 0.63153(17) 0.0620(7) 0.7212(4)
H11 H 0.6220 0.1645 0.7039
N1 N 0.67115(14) 0.0415(5) 0.7525(3)
O1 O 0.73686(11) 0.8202(5) 0.6702(2)
O2 O 0.73522(12) 0.5667(5) 0.6368(3)
O3 O 0.67917(11) 0.4128(4) 0.7072(2)
O4 O 0.66728(13) 0.2969(5) 0.5965(2)
O5 O 0.58472(12) 0.4628(5) 0.5717(2)
O8 O 0.73353(12) 0.1498(5) 0.6883(2)
H16 H 0.7263 0.0528 0.6903
H17 H 0.7163 0.1993 0.6527
O9 O 0.68907(13) 0.3061(5) 0.8624(2)
H18 H 0.7105 0.3225 0.8987
H19 H 0.6737 0.2463 0.8755
Zn1 Zn 0.708535(19) 0.23539(7) 0.77248(4)
C26 C 0.28184(17) 0.6950(7) 0.8626(3)
C27 C 0.33298(16) 0.4137(6) 0.8633(3)
C28 C 0.32609(17) 0.7051(6) 0.8983(3)
C29 C 0.35035(15) 0.5707(6) 0.8995(3)
C30 C 0.39031(17) 0.5888(7) 0.9332(3)
C31 C 0.4084(2) 0.7309(8) 0.9653(4)
H20 H 0.4359 0.7380 0.9880
C32 C 0.3838(2) 0.8644(9) 0.9624(4)
H21 H 0.3949 0.9619 0.9840
C33 C 0.34376(19) 0.8514(7) 0.9280(4)
H22 H 0.3279 0.9421 0.9243
C34 C 0.42860(16) 0.3566(7) 0.9873(3)
C39 C 0.45805(19) 0.2525(7) 0.9859(4)
H26 H 0.4688 0.2611 0.9485
C45 C 0.36847(17) 0.0620(7) 0.7788(4)
H30 H 0.3780 0.1645 0.7961
N3 N 0.32885(14) 0.0415(5) 0.7475(3)
O10 O 0.26314(11) 0.8202(5) 0.8298(2)
O11 O 0.26478(12) 0.5667(5) 0.8632(3)
O12 O 0.32083(11) 0.4128(4) 0.7928(2)
O13 O 0.33272(13) 0.2969(5) 0.9035(2)
O14 O 0.41528(12) 0.4628(5) 0.9283(2)
O17 O 0.26647(12) 0.1498(5) 0.8117(2)
H35 H 0.2737 0.0528 0.8097
H36 H 0.2837 0.1993 0.8473
O18 O 0.31093(13) 0.3061(5) 0.6376(2)
H37 H 0.2895 0.3225 0.6013
H38 H 0.3263 0.2463 0.6245
Zn3 Zn 0.291465(19) 0.23539(7) 0.72752(4)
O19 O 0.23686(11) 0.3202(5) 0.6702(2)
O20 O 0.76314(11) 0.3202(5) 0.8298(2)
O21 O 0.23522(12) 0.0667(5) 0.6368(3)
O22 O 0.76478(12) 0.0667(5) 0.8632(3)
Zn4 Zn 0.208535(19) 0.73539(7) 0.77248(4)
Zn5 Zn 0.791465(19) 0.73539(7) 0.72752(4)
C1_2 C 0.21816(17) 0.1950(7) 0.6374(3)
C3_2 C 0.17391(17) 0.2051(6) 0.6017(3)
C4_2 C 0.14965(15) 0.0707(6) 0.6005(3)
C5_2 C 0.10969(17) 0.0888(7) 0.5668(3)
C6_2 C 0.0916(2) 0.2309(8) 0.5347(4)
H1_2 H 0.0641 0.2380 0.5120
C7_2 C 0.1162(2) 0.3644(9) 0.5376(4)
H2_2 H 0.1051 0.4619 0.5160
C8_2 C 0.15624(19) 0.3514(7) 0.5720(4)
H3_2 H 0.1721 0.4421 0.5757
Zn7 Zn -0.0000 0.27502(10) 0.2500
C2_2 C 0.16702(16) 0.9137(6) 0.6367(3)
C9_2 C 0.07140(16) 0.8566(7) 0.5127(3)
C10_2 C 0.08646(18) 0.8452(8) 0.4567(3)
H4_2 H 0.1055 0.9185 0.4541
C11_2 C 0.0734(2) 0.7258(8) 0.4046(4)
H5_2 H 0.0840 0.7180 0.3669
C12_2 C 0.04467(19) 0.6161(7) 0.4067(3)
C13_2 C 0.0282(2) 0.6349(8) 0.4598(4)
H6_2 H 0.0074 0.5678 0.4597
C14_2 C 0.04195(19) 0.7525(7) 0.5141(4)
H7_2 H 0.0312 0.7611 0.5515
C15 C 0.0331(3) 0.4785(9) 0.3522(4)
C16 C 0.18455(16) 0.3932(6) 0.7746(3)
H8 H 0.2118 0.3765 0.7954
C17 C 0.15950(17) 0.2635(6) 0.7678(4)
H9 H 0.1701 0.1612 0.7827
C18 C 0.11847(17) 0.2841(6) 0.7387(3)
C19 C 0.10479(19) 0.4421(7) 0.7135(4)
H10 H 0.0777 0.4629 0.6918
C20_2 C 0.13153(17) 0.5620(7) 0.7212(4)
H11_2 H 0.1220 0.6645 0.7039
C22 C 0.10401(18) 0.0148(7) 0.7809(4)
H13 H 0.1307 0.0058 0.8107
C23 C 0.09096(16) 0.1503(6) 0.7360(3)
C24 C 0.05175(18) 0.1519(8) 0.6924(4)
H14 H 0.0415 0.2386 0.6605
C25 C 0.02704(18) 0.0254(8) 0.6953(4)
H15 H 0.0005 0.0286 0.6644
N1_2 N 0.17115(14) 0.5415(5) 0.7525(3)
O3_2 O 0.17917(11) 0.9128(4) 0.7072(2)
O4_2 O 0.16728(13) 0.7969(5) 0.5965(2)
O5_2 O 0.08472(12) 0.9628(5) 0.5717(2)
O6 O 0.0515(3) 0.4537(8) 0.3105(4)
O7 O 0.0057(2) 0.3947(8) 0.3489(3)
O8_2 O 0.23353(12) 0.6498(5) 0.6883(2)
H16_2 H 0.2263 0.5528 0.6903
H17_2 H 0.2163 0.6993 0.6527
O9_2 O 0.18907(13) 0.8061(5) 0.8624(2)
H18_2 H 0.2105 0.8225 0.8987
H19_2 H 0.1737 0.7463 0.8755
C26_2 C 0.78184(17) 0.1950(7) 0.8626(3)
C28_2 C 0.82609(17) 0.2051(6) 0.8983(3)
C29_2 C 0.85035(15) 0.0707(6) 0.8995(3)
C30_2 C 0.89031(17) 0.0888(7) 0.9332(3)
C31_2 C 0.9084(2) 0.2309(8) 0.9653(4)
H20_2 H 0.9359 0.2380 0.9880
C32_2 C 0.8838(2) 0.3644(9) 0.9624(4)
H21_2 H 0.8949 0.4619 0.9840
C33_2 C 0.84376(19) 0.3514(7) 0.9280(4)
H22_2 H 0.8279 0.4421 0.9243
C35_2 C 0.91354(18) 0.8452(8) 0.0433(3)
H23_2 H 0.8945 0.9185 0.0459
C36_2 C 0.9266(2) 0.7258(8) 0.0954(4)
H24_2 H 0.9160 0.7180 0.1331
C37_2 C 0.95533(19) 0.6161(7) 0.0933(3)
C38_2 C 0.9718(2) 0.6349(8) 0.0402(4)
H25_2 H 0.9926 0.5678 0.0403
C40 C 0.9669(3) 0.4785(9) 0.1478(4)
O15 O 0.9485(3) 0.4537(8) 0.1895(4)
O16 O 0.9943(2) 0.3947(8) 0.1511(3)
Zn7_2 Zn 1.0000 0.27502(10) 0.2500
C27_2 C 0.83298(16) 0.9137(6) 0.8633(3)
C34_2 C 0.92860(16) 0.8566(7) 0.9873(3)
C39_2 C 0.95805(19) 0.7525(7) 0.9859(4)
H26_2 H 0.9688 0.7611 0.9485
C41 C 0.81545(16) 0.3932(6) 0.7254(3)
H27 H 0.7882 0.3765 0.7046
C42 C 0.84050(17) 0.2635(6) 0.7322(4)
H28 H 0.8299 0.1612 0.7173
C43 C 0.88153(17) 0.2841(6) 0.7613(3)
C44 C 0.89521(19) 0.4421(7) 0.7865(4)
H29 H 0.9223 0.4629 0.8082
C45_2 C 0.86847(17) 0.5620(7) 0.7788(4)
H30_2 H 0.8780 0.6645 0.7961
C47 C 0.89599(18) 0.0148(7) 0.7191(4)
H32 H 0.8693 0.0058 0.6893
C48 C 0.90904(16) 0.1503(6) 0.7640(3)
C49 C 0.94825(18) 0.1519(8) 0.8076(4)
H33 H 0.9585 0.2386 0.8395
C50 C 0.97296(18) 0.0254(8) 0.8047(4)
H34 H 0.9995 0.0286 0.8356
N3_2 N 0.82885(14) 0.5415(5) 0.7475(3)
O12_2 O 0.82083(11) 0.9128(4) 0.7928(2)
O13_2 O 0.83272(13) 0.7969(5) 0.9035(2)
O14_2 O 0.91528(12) 0.9628(5) 0.9283(2)
O17_2 O 0.76647(12) 0.6498(5) 0.8117(2)
H35_2 H 0.7737 0.5528 0.8097
H36_2 H 0.7837 0.6993 0.8473
O18_2 O 0.81093(13) 0.8061(5) 0.6376(2)
H37_2 H 0.7895 0.8225 0.6013
H38_2 H 0.8263 0.7463 0.6245
C46 C 0.07807(18) 0.1050(7) 0.2815(4)
H31 H 0.0876 0.1941 0.3122
N4 N 0.03979(14) 0.0997(5) 0.2402(3)
C21 C 0.92193(18) 0.1050(7) 0.2185(4)
H12 H 0.9124 0.1941 0.1878
N2 N 0.96021(14) 0.0997(5) 0.2598(3)
C40_2 C 0.4669(3) 0.9785(9) 0.1478(4)
O15_2 O 0.4485(3) 0.9537(8) 0.1895(4)
O16_2 O 0.4943(2) 0.8947(8) 0.1511(3)
Zn7_3 Zn 0.5000 0.77502(10) 0.2500
C15_2 C 0.5331(3) 0.9785(9) 0.3522(4)
C16_2 C 0.68455(16) 0.8932(6) 0.7746(3)
H8_2 H 0.7118 0.8765 0.7954
C17_2 C 0.65950(17) 0.7635(6) 0.7678(4)
H9_2 H 0.6701 0.6612 0.7827
C18_2 C 0.61847(17) 0.7841(6) 0.7387(3)
C19_2 C 0.60479(19) 0.9421(7) 0.7135(4)
H10_2 H 0.5777 0.9629 0.6918
C21_2 C 0.57807(18) 0.3950(7) 0.7815(4)
H12_2 H 0.5876 0.3059 0.8122
C22_2 C 0.60401(18) 0.5148(7) 0.7809(4)
H13_2 H 0.6307 0.5058 0.8107
C23_2 C 0.59096(16) 0.6503(6) 0.7360(3)
C24_2 C 0.55175(18) 0.6519(8) 0.6924(4)
H14_2 H 0.5415 0.7386 0.6605
C25_2 C 0.52704(18) 0.5254(8) 0.6953(4)
H15_2 H 0.5005 0.5286 0.6644
N2_2 N 0.53979(14) 0.4003(5) 0.7402(3)
O6_2 O 0.5515(3) 0.9537(8) 0.3105(4)
O7_2 O 0.5057(2) 0.8947(8) 0.3489(3)
Zn2 Zn 0.5000 0.22498(10) 0.7500
C41_2 C 0.31545(16) 0.8932(6) 0.7254(3)
H27_2 H 0.2882 0.8765 0.7046
C42_2 C 0.34050(17) 0.7635(6) 0.7322(4)
H28_2 H 0.3299 0.6612 0.7173
C43_2 C 0.38153(17) 0.7841(6) 0.7613(3)
C44_2 C 0.39521(19) 0.9421(7) 0.7865(4)
H29_2 H 0.4223 0.9629 0.8082
C46_2 C 0.42193(18) 0.3950(7) 0.7185(4)
H31_2 H 0.4124 0.3059 0.6878
C47_2 C 0.39599(18) 0.5148(7) 0.7191(4)
H32_2 H 0.3693 0.5058 0.6893
C48_2 C 0.40904(16) 0.6503(6) 0.7640(3)
C49_2 C 0.44825(18) 0.6519(8) 0.8076(4)
H33_2 H 0.4585 0.7386 0.8395
C50_2 C 0.47296(18) 0.5254(8) 0.8047(4)
H34_2 H 0.4995 0.5286 0.8356
N4_2 N 0.46021(14) 0.4003(5) 0.7598(3)
O23 O 0.4485(3) 0.0463(8) 0.6895(4)
O24 O 0.5515(3) 0.0463(8) 0.8105(4)
O25 O 0.4943(2) 0.1053(8) 0.6511(3)
O26 O 0.5057(2) 0.1053(8) 0.8489(3)
C15_3 C 0.4669(3) 0.0215(9) 0.6478(4)
C16_3 C 0.31545(16) 0.1068(6) 0.2254(3)
H8_3 H 0.2882 0.1235 0.2046
C17_3 C 0.34050(17) 0.2365(6) 0.2322(4)
H9_3 H 0.3299 0.3388 0.2173
C18_3 C 0.38153(17) 0.2159(6) 0.2613(3)
C19_3 C 0.39521(19) 0.0579(7) 0.2865(4)
H10_3 H 0.4223 0.0371 0.3082
C21_3 C 0.42193(18) 0.6050(7) 0.2185(4)
H12_3 H 0.4124 0.6941 0.1878
C22_3 C 0.39599(18) 0.4852(7) 0.2191(4)
H13_3 H 0.3693 0.4942 0.1893
C23_3 C 0.40904(16) 0.3497(6) 0.2640(3)
C24_3 C 0.44825(18) 0.3481(8) 0.3076(4)
H14_3 H 0.4585 0.2614 0.3395
C25_3 C 0.47296(18) 0.4746(8) 0.3047(4)
H15_3 H 0.4995 0.4714 0.3356
N2_3 N 0.46021(14) 0.5997(5) 0.2598(3)
C41_3 C 0.68455(16) 0.1068(6) 0.2746(3)
H27_3 H 0.7118 0.1235 0.2954
C42_3 C 0.65950(17) 0.2365(6) 0.2678(4)
H28_3 H 0.6701 0.3388 0.2827
C43_3 C 0.61847(17) 0.2159(6) 0.2387(3)
C44_3 C 0.60479(19) 0.0579(7) 0.2135(4)
H29_3 H 0.5777 0.0371 0.1918
C46_3 C 0.57807(18) 0.6050(7) 0.2815(4)
H31_3 H 0.5876 0.6941 0.3122
C47_3 C 0.60401(18) 0.4852(7) 0.2809(4)
H32_3 H 0.6307 0.4942 0.3107
C48_3 C 0.59096(16) 0.3497(6) 0.2360(3)
C49_3 C 0.55175(18) 0.3481(8) 0.1924(4)
H33_3 H 0.5415 0.2614 0.1605
C50_3 C 0.52704(18) 0.4746(8) 0.1953(4)
H34_3 H 0.5005 0.4714 0.1644
N4_3 N 0.53979(14) 0.5997(5) 0.2402(3)
C40_3 C 0.5331(3) 0.0215(9) 0.8522(4)
C21_4 C 0.07807(18) 0.8950(7) 0.7815(4)
H12_4 H 0.0876 0.8059 0.8122
N2_4 N 0.03979(14) 0.9003(5) 0.7402(3)
Zn2_2 Zn -0.0000 0.72498(10) 0.7500
O24_2 O 0.0515(3) 0.5463(8) 0.8105(4)
O26_2 O 0.0057(2) 0.6053(8) 0.8489(3)
Zn2_3 Zn 1.0000 0.72498(10) 0.7500
C46_4 C 0.92193(18) 0.8950(7) 0.7185(4)
H31_4 H 0.9124 0.8059 0.6878
N4_4 N 0.96021(14) 0.9003(5) 0.7598(3)
O23_2 O 0.9485(3) 0.5463(8) 0.6895(4)
O25_2 O 0.9943(2) 0.6053(8) 0.6511(3)
C1_3 C 0.28184(17) 0.3050(7) 0.3626(3)
C2_3 C 0.33298(16) 0.5863(6) 0.3633(3)
C3_3 C 0.32609(17) 0.2949(6) 0.3983(3)
C4_3 C 0.35035(15) 0.4293(6) 0.3995(3)
C5_3 C 0.39031(17) 0.4112(7) 0.4332(3)
C6_3 C 0.4084(2) 0.2691(8) 0.4653(4)
H1_3 H 0.4359 0.2620 0.4880
C7_3 C 0.3838(2) 0.1356(9) 0.4624(4)
H2_3 H 0.3949 0.0381 0.4840
C8_3 C 0.34376(19) 0.1486(7) 0.4280(4)
H3_3 H 0.3279 0.0579 0.4243
C9_3 C 0.42860(16) 0.6434(7) 0.4873(3)
C10_3 C 0.41354(18) 0.6548(8) 0.5433(3)
H4_3 H 0.3945 0.5815 0.5459
C11_3 C 0.4266(2) 0.7742(8) 0.5954(4)
H5_3 H 0.4160 0.7820 0.6331
C12_3 C 0.45533(19) 0.8839(7) 0.5933(3)
C13_3 C 0.4718(2) 0.8651(8) 0.5402(4)
H6_3 H 0.4926 0.9322 0.5403
C14_3 C 0.45805(19) 0.7475(7) 0.4859(4)
H7_3 H 0.4688 0.7389 0.4485
C20_3 C 0.36847(17) 0.9380(7) 0.2788(4)
H11_3 H 0.3780 0.8355 0.2961
N1_3 N 0.32885(14) 0.9585(5) 0.2475(3)
O1_2 O 0.26314(11) 0.1798(5) 0.3298(2)
O2_2 O 0.26478(12) 0.4333(5) 0.3632(3)
O3_3 O 0.32083(11) 0.5872(4) 0.2928(2)
O4_3 O 0.33272(13) 0.7031(5) 0.4035(2)
O5_3 O 0.41528(12) 0.5372(5) 0.4283(2)
O8_3 O 0.26647(12) 0.8502(5) 0.3117(2)
H16_3 H 0.2737 0.9472 0.3097
H17_3 H 0.2837 0.8007 0.3473
O9_3 O 0.31093(13) 0.6939(5) 0.1376(2)
H18_3 H 0.2895 0.6775 0.1013
H19_3 H 0.3263 0.7537 0.1245
Zn1_2 Zn 0.291465(19) 0.76461(7) 0.22752(4)
C26_3 C 0.71816(17) 0.3050(7) 0.1374(3)
C27_3 C 0.66702(16) 0.5863(6) 0.1367(3)
C28_3 C 0.67391(17) 0.2949(6) 0.1017(3)
C29_3 C 0.64965(15) 0.4293(6) 0.1005(3)
C30_3 C 0.60969(17) 0.4112(7) 0.0668(3)
C31_3 C 0.5916(2) 0.2691(8) 0.0347(4)
H20_3 H 0.5641 0.2620 0.0120
C32_3 C 0.6162(2) 0.1356(9) 0.0376(4)
H21_3 H 0.6051 0.0381 0.0160
C33_3 C 0.65624(19) 0.1486(7) 0.0720(4)
H22_3 H 0.6721 0.0579 0.0757
C34_3 C 0.57140(16) 0.6434(7) 0.0127(3)
C39_3 C 0.54195(19) 0.7475(7) 0.0141(4)
H26_3 H 0.5312 0.7389 0.0515
C45_3 C 0.63153(17) 0.9380(7) 0.2212(4)
H30_3 H 0.6220 0.8355 0.2039
N3_3 N 0.67115(14) 0.9585(5) 0.2525(3)
O10_2 O 0.73686(11) 0.1798(5) 0.1702(2)
O11_2 O 0.73522(12) 0.4333(5) 0.1368(3)
O12_3 O 0.67917(11) 0.5872(4) 0.2072(2)
O13_3 O 0.66728(13) 0.7031(5) 0.0965(2)
O14_3 O 0.58472(12) 0.5372(5) 0.0717(2)
O17_3 O 0.73353(12) 0.8502(5) 0.1883(2)
H35_3 H 0.7263 0.9472 0.1903
H36_3 H 0.7163 0.8007 0.1527
O18_3 O 0.68907(13) 0.6939(5) 0.3624(2)
H37_3 H 0.7105 0.6775 0.3987
H38_3 H 0.6737 0.7537 0.3755
Zn3_2 Zn 0.708535(19) 0.76461(7) 0.27248(4)
O19_2 O 0.76314(11) 0.6798(5) 0.3298(2)
O20_2 O 0.23686(11) 0.6798(5) 0.1702(2)
O21_2 O 0.76478(12) 0.9333(5) 0.3632(3)
O22_2 O 0.23522(12) 0.9333(5) 0.1368(3)
Zn4_2 Zn 0.791465(19) 0.26461(7) 0.22752(4)
Zn5_2 Zn 0.208535(19) 0.26461(7) 0.27248(4)
C27_4 C 0.16702(16) 0.0863(6) 0.1367(3)
C34_4 C 0.07140(16) 0.1434(7) 0.0127(3)
C39_4 C 0.04195(19) 0.2475(7) 0.0141(4)
H26_4 H 0.0312 0.2389 0.0515
C41_4 C 0.18455(16) 0.6068(6) 0.2746(3)
H27_4 H 0.2118 0.6235 0.2954
C42_4 C 0.15950(17) 0.7365(6) 0.2678(4)
H28_4 H 0.1701 0.8388 0.2827
C43_4 C 0.11847(17) 0.7159(6) 0.2387(3)
C44_4 C 0.10479(19) 0.5579(7) 0.2135(4)
H29_4 H 0.0777 0.5371 0.1918
C45_4 C 0.13153(17) 0.4380(7) 0.2212(4)
H30_4 H 0.1220 0.3355 0.2039
C47_4 C 0.10401(18) 0.9852(7) 0.2809(4)
H32_4 H 0.1307 0.9942 0.3107
C48_4 C 0.09096(16) 0.8497(6) 0.2360(3)
C49_4 C 0.05175(18) 0.8481(8) 0.1924(4)
H33_4 H 0.0415 0.7614 0.1605
C50_4 C 0.02704(18) 0.9746(8) 0.1953(4)
H34_4 H 0.0005 0.9714 0.1644
N3_4 N 0.17115(14) 0.4585(5) 0.2525(3)
O12_4 O 0.17917(11) 0.0872(4) 0.2072(2)
O13_4 O 0.16728(13) 0.2031(5) 0.0965(2)
O14_4 O 0.08472(12) 0.0372(5) 0.0717(2)
O17_4 O 0.23353(12) 0.3502(5) 0.1883(2)
H35_4 H 0.2263 0.4472 0.1903
H36_4 H 0.2163 0.3007 0.1527
O18_4 O 0.18907(13) 0.1939(5) 0.3624(2)
H37_4 H 0.2105 0.1775 0.3987
H38_4 H 0.1737 0.2537 0.3755
C35_3 C 0.08646(18) 0.1548(8) 0.9567(3)
H23_3 H 0.1055 0.0815 0.9541
C36_3 C 0.0734(2) 0.2742(8) 0.9046(4)
H24_3 H 0.0840 0.2820 0.8669
C37_3 C 0.04467(19) 0.3839(7) 0.9067(3)
C38_3 C 0.0282(2) 0.3651(8) 0.9598(4)
H25_3 H 0.0074 0.4322 0.9597
C40_4 C 0.0331(3) 0.5215(9) 0.8522(4)
C26_4 C 0.21816(17) 0.8050(7) 0.1374(3)
C28_4 C 0.17391(17) 0.7949(6) 0.1017(3)
C29_4 C 0.14965(15) 0.9293(6) 0.1005(3)
C30_4 C 0.10969(17) 0.9112(7) 0.0668(3)
C31_4 C 0.0916(2) 0.7691(8) 0.0347(4)
H20_4 H 0.0641 0.7620 0.0120
C32_4 C 0.1162(2) 0.6356(9) 0.0376(4)
H21_4 H 0.1051 0.5381 0.0160
C33_4 C 0.15624(19) 0.6486(7) 0.0720(4)
H22_4 H 0.1721 0.5579 0.0757
C2_4 C 0.83298(16) 0.0863(6) 0.3633(3)
C9_4 C 0.92860(16) 0.1434(7) 0.4873(3)
C10_4 C 0.91354(18) 0.1548(8) 0.5433(3)
H4_4 H 0.8945 0.0815 0.5459
C11_4 C 0.9266(2) 0.2742(8) 0.5954(4)
H5_4 H 0.9160 0.2820 0.6331
C12_4 C 0.95533(19) 0.3839(7) 0.5933(3)
C13_4 C 0.9718(2) 0.3651(8) 0.5402(4)
H6_4 H 0.9926 0.4322 0.5403
C14_4 C 0.95805(19) 0.2475(7) 0.4859(4)
H7_4 H 0.9688 0.2389 0.4485
C15_4 C 0.9669(3) 0.5215(9) 0.6478(4)
C16_4 C 0.81545(16) 0.6068(6) 0.2254(3)
H8_4 H 0.7882 0.6235 0.2046
C17_4 C 0.84050(17) 0.7365(6) 0.2322(4)
H9_4 H 0.8299 0.8388 0.2173
C18_4 C 0.88153(17) 0.7159(6) 0.2613(3)
C19_4 C 0.89521(19) 0.5579(7) 0.2865(4)
H10_4 H 0.9223 0.5371 0.3082
C20_4 C 0.86847(17) 0.4380(7) 0.2788(4)
H11_4 H 0.8780 0.3355 0.2961
C22_4 C 0.89599(18) 0.9852(7) 0.2191(4)
H13_4 H 0.8693 0.9942 0.1893
C23_4 C 0.90904(16) 0.8497(6) 0.2640(3)
C24_4 C 0.94825(18) 0.8481(8) 0.3076(4)
H14_4 H 0.9585 0.7614 0.3395
C25_4 C 0.97296(18) 0.9746(8) 0.3047(4)
H15_4 H 0.9995 0.9714 0.3356
N1_4 N 0.82885(14) 0.4585(5) 0.2475(3)
O3_4 O 0.82083(11) 0.0872(4) 0.2928(2)
O4_4 O 0.83272(13) 0.2031(5) 0.4035(2)
O5_4 O 0.91528(12) 0.0372(5) 0.4283(2)
O8_4 O 0.76647(12) 0.3502(5) 0.3117(2)
H16_4 H 0.7737 0.4472 0.3097
H17_4 H 0.7837 0.3007 0.3473
O9_4 O 0.81093(13) 0.1939(5) 0.1376(2)
H18_4 H 0.7895 0.1775 0.1013
H19_4 H 0.8263 0.2537 0.1245
C1_4 C 0.78184(17) 0.8050(7) 0.3626(3)
C3_4 C 0.82609(17) 0.7949(6) 0.3983(3)
C4_4 C 0.85035(15) 0.9293(6) 0.3995(3)
C5_4 C 0.89031(17) 0.9112(7) 0.4332(3)
C6_4 C 0.9084(2) 0.7691(8) 0.4653(4)
H1_4 H 0.9359 0.7620 0.4880
C7_4 C 0.8838(2) 0.6356(9) 0.4624(4)
H2_4 H 0.8949 0.5381 0.4840
C8_4 C 0.84376(19) 0.6486(7) 0.4280(4)
H3_4 H 0.8279 0.5579 0.4243
C35_4 C 0.58646(18) 0.6548(8) 0.9567(3)
H23_4 H 0.6055 0.5815 0.9541
C36_4 C 0.5734(2) 0.7742(8) 0.9046(4)
H24_4 H 0.5840 0.7820 0.8669
C37_4 C 0.54467(19) 0.8839(7) 0.9067(3)
C38_4 C 0.5282(2) 0.8651(8) 0.9598(4)
H25_4 H 0.5074 0.9322 0.9597
loop_
_geom_bond_atom_site_label_1
_geom_bond_atom_site_label_2
_geom_bond_site_symmetry_1
_geom_bond_site_symmetry_2
C35 H23 1_555 1_555
C36 C35 1_555 1_555
H24 C36 1_555 1_555
C37 C36 1_555 1_555
C38 C37 1_555 1_555
H25 C38 1_555 1_555
C1 C3 1_555 1_555
C2 C4 1_555 1_555
C3 C4 1_555 1_555
C4 C5 1_555 1_555
C5 C6 1_555 1_555
C6 H1 1_555 1_555
C7 C6 1_555 1_555
H2 C7 1_555 1_555
C8 C3 1_555 1_555
H3 C8 1_555 1_555
C9 C10 1_555 1_555
C10 H4 1_555 1_555
C11 C10 1_555 1_555
H5 C11 1_555 1_555
C12 C11 1_555 1_555
C13 C12 1_555 1_555
H6 C13 1_555 1_555
C14 C9 1_555 1_555
H7 C14 1_555 1_555
H11 C20 1_555 1_555
O1 C1 1_555 1_555
O2 C1 1_555 1_555
O3 C2 1_555 1_555
O4 C2 1_555 1_555
O5 C5 1_555 1_555
O8 H16 1_555 1_555
H17 O8 1_555 1_555
O9 H18 1_555 1_555
H19 O9 1_555 1_555
Zn1 N1 1_555 1_555
C26 C28 1_555 1_555
C27 C29 1_555 1_555
C28 C29 1_555 1_555
C29 C30 1_555 1_555
C30 C31 1_555 1_555
C31 H20 1_555 1_555
C32 C31 1_555 1_555
H21 C32 1_555 1_555
C33 C28 1_555 1_555
H22 C33 1_555 1_555
C39 C34 1_555 1_555
H26 C39 1_555 1_555
H30 C45 1_555 1_555
O10 C26 1_555 1_555
O11 C26 1_555 1_555
O12 C27 1_555 1_555
O13 C27 1_555 1_555
O14 C30 1_555 1_555
O17 H35 1_555 1_555
H36 O17 1_555 1_555
O18 H37 1_555 1_555
H38 O18 1_555 1_555
Zn3 N3 1_555 1_555
O19 Zn3 1_555 1_555
O20 Zn1 1_555 1_555
O21 Zn3 1_555 1_555
O22 Zn1 1_555 1_555
Zn4 O10 1_555 1_555
Zn5 O1 1_555 1_555
C7 C8 1_555 1_555
C9 O5 1_555 1_555
C13 C14 1_555 1_555
C20 N1 1_555 1_555
O2 Zn5 1_555 1_555
O3 Zn1 1_555 1_555
O8 Zn1 1_555 1_555
O9 Zn1 1_555 1_555
C32 C33 1_555 1_555
C34 O14 1_555 1_555
C45 N3 1_555 1_555
O11 Zn4 1_555 1_555
O12 Zn3 1_555 1_555
O17 Zn3 1_555 1_555
O18 Zn3 1_555 1_555
C1_2 C3_2 1_555 1_555
C3_2 C4_2 1_555 1_555
C4_2 C5_2 1_555 1_555
C5_2 C6_2 1_555 1_555
C6_2 H1_2 1_555 1_555
C7_2 C6_2 1_555 1_555
H2_2 C7_2 1_555 1_555
C8_2 C3_2 1_555 1_555
H3_2 C8_2 1_555 1_555
O19 C1_2 1_555 1_555
O21 C1_2 1_555 1_555
C7_2 C8_2 1_555 1_555
C9_2 C10_2 1_555 1_555
C10_2 H4_2 1_555 1_555
C11_2 C10_2 1_555 1_555
H5_2 C11_2 1_555 1_555
C12_2 C11_2 1_555 1_555
C13_2 C12_2 1_555 1_555
H6_2 C13_2 1_555 1_555
C14_2 C9_2 1_555 1_555
H7_2 C14_2 1_555 1_555
C15 C12_2 1_555 1_555
C16 H8 1_555 1_555
C17 C16 1_555 1_555
H9 C17 1_555 1_555
C18 C17 1_555 1_555
C19 C18 1_555 1_555
H10 C19 1_555 1_555
C20_2 C19 1_555 1_555
H11_2 C20_2 1_555 1_555
H13 C22 1_555 1_555
C23 C18 1_555 1_555
C24 C23 1_555 1_555
H14 C24 1_555 1_555
C25 C24 1_555 1_555
H15 C25 1_555 1_555
N1_2 C16 1_555 1_555
O3_2 C2_2 1_555 1_555
O4_2 C2_2 1_555 1_555
O6 C15 1_555 1_555
O7 C15 1_555 1_555
O8_2 H16_2 1_555 1_555
H17_2 O8_2 1_555 1_555
O9_2 H18_2 1_555 1_555
H19_2 O9_2 1_555 1_555
Zn4 N1_2 1_555 1_555
Zn7 O6 1_555 1_555
C9_2 O5_2 1_555 1_555
C13_2 C14_2 1_555 1_555
C20_2 N1_2 1_555 1_555
C22 C23 1_555 1_555
O3_2 Zn4 1_555 1_555
O7 Zn7 1_555 1_555
O8_2 Zn4 1_555 1_555
O9_2 Zn4 1_555 1_555
C26_2 C28_2 1_555 1_555
C28_2 C29_2 1_555 1_555
C29_2 C30_2 1_555 1_555
C30_2 C31_2 1_555 1_555
C31_2 H20_2 1_555 1_555
C32_2 C31_2 1_555 1_555
H21_2 C32_2 1_555 1_555
C33_2 C28_2 1_555 1_555
H22_2 C33_2 1_555 1_555
O20 C26_2 1_555 1_555
O22 C26_2 1_555 1_555
C32_2 C33_2 1_555 1_555
C35_2 H23_2 1_555 1_555
C36_2 C35_2 1_555 1_555
H24_2 C36_2 1_555 1_555
C37_2 C36_2 1_555 1_555
C38_2 C37_2 1_555 1_555
H25_2 C38_2 1_555 1_555
C40 C37_2 1_555 1_555
O15 C40 1_555 1_555
O16 C40 1_555 1_555
Zn7_2 O15 1_555 1_555
O16 Zn7_2 1_555 1_555
C39_2 C34_2 1_555 1_555
H26_2 C39_2 1_555 1_555
C41 H27 1_555 1_555
C42 C41 1_555 1_555
H28 C42 1_555 1_555
C43 C42 1_555 1_555
C44 C43 1_555 1_555
H29 C44 1_555 1_555
C45_2 C44 1_555 1_555
H30_2 C45_2 1_555 1_555
H32 C47 1_555 1_555
C48 C43 1_555 1_555
C49 C48 1_555 1_555
H33 C49 1_555 1_555
C50 C49 1_555 1_555
H34 C50 1_555 1_555
N3_2 C41 1_555 1_555
O12_2 C27_2 1_555 1_555
O13_2 C27_2 1_555 1_555
O17_2 H35_2 1_555 1_555
H36_2 O17_2 1_555 1_555
O18_2 H37_2 1_555 1_555
H38_2 O18_2 1_555 1_555
Zn5 N3_2 1_555 1_555
C34_2 O14_2 1_555 1_555
C45_2 N3_2 1_555 1_555
C47 C48 1_555 1_555
O12_2 Zn5 1_555 1_555
O17_2 Zn5 1_555 1_555
O18_2 Zn5 1_555 1_555
C46 H31 1_555 1_555
N4 Zn7 1_555 1_555
C46 N4 1_555 1_555
C21 H12 1_555 1_555
N2 C21 1_555 1_555
Zn7_2 N2 1_555 1_555
O15_2 C40_2 1_555 1_555
O16_2 C40_2 1_555 1_555
Zn7_3 O15_2 1_555 1_555
O16_2 Zn7_3 1_555 1_555
C16_2 H8_2 1_555 1_555
C17_2 C16_2 1_555 1_555
H9_2 C17_2 1_555 1_555
C18_2 C17_2 1_555 1_555
C19_2 C18_2 1_555 1_555
H10_2 C19_2 1_555 1_555
C21_2 H12_2 1_555 1_555
C22_2 C21_2 1_555 1_555
H13_2 C22_2 1_555 1_555
C23_2 C18_2 1_555 1_555
C24_2 C23_2 1_555 1_555
H14_2 C24_2 1_555 1_555
C25_2 C24_2 1_555 1_555
H15_2 C25_2 1_555 1_555
N2_2 C21_2 1_555 1_555
O6_2 C15_2 1_555 1_555
O7_2 C15_2 1_555 1_555
Zn2 N2_2 1_555 1_555
C41_2 H27_2 1_555 1_555
C42_2 C41_2 1_555 1_555
H28_2 C42_2 1_555 1_555
C43_2 C42_2 1_555 1_555
C44_2 C43_2 1_555 1_555
H29_2 C44_2 1_555 1_555
C46_2 H31_2 1_555 1_555
C47_2 C46_2 1_555 1_555
H32_2 C47_2 1_555 1_555
C48_2 C43_2 1_555 1_555
C49_2 C48_2 1_555 1_555
H33_2 C49_2 1_555 1_555
C50_2 C49_2 1_555 1_555
H34_2 C50_2 1_555 1_555
N4_2 Zn2 1_555 1_555
O23 Zn2 1_555 1_555
O24 Zn2 1_555 1_555
O25 Zn2 1_555 1_555
O26 Zn2 1_555 1_555
Zn7_3 O6_2 1_555 1_555
C22_2 C23_2 1_555 1_555
C25_2 N2_2 1_555 1_555
O7_2 Zn7_3 1_555 1_555
C46_2 N4_2 1_555 1_555
C47_2 C48_2 1_555 1_555
C50_2 N4_2 1_555 1_555
C16_3 H8_3 1_555 1_555
C17_3 C16_3 1_555 1_555
H9_3 C17_3 1_555 1_555
C18_3 C17_3 1_555 1_555
C19_3 C18_3 1_555 1_555
H10_3 C19_3 1_555 1_555
C21_3 H12_3 1_555 1_555
C22_3 C21_3 1_555 1_555
H13_3 C22_3 1_555 1_555
C23_3 C18_3 1_555 1_555
C24_3 C23_3 1_555 1_555
H14_3 C24_3 1_555 1_555
C25_3 C24_3 1_555 1_555
H15_3 C25_3 1_555 1_555
N2_3 C21_3 1_555 1_555
O23 C15_3 1_555 1_555
O25 C15_3 1_555 1_555
Zn7_3 N2_3 1_555 1_555
C41_3 H27_3 1_555 1_555
C42_3 C41_3 1_555 1_555
H28_3 C42_3 1_555 1_555
C43_3 C42_3 1_555 1_555
C44_3 C43_3 1_555 1_555
H29_3 C44_3 1_555 1_555
C46_3 H31_3 1_555 1_555
C47_3 C46_3 1_555 1_555
H32_3 C47_3 1_555 1_555
C48_3 C43_3 1_555 1_555
C49_3 C48_3 1_555 1_555
H33_3 C49_3 1_555 1_555
C50_3 C49_3 1_555 1_555
H34_3 C50_3 1_555 1_555
N4_3 Zn7_3 1_555 1_555
C22_3 C23_3 1_555 1_555
C25_3 N2_3 1_555 1_555
C46_3 N4_3 1_555 1_555
C47_3 C48_3 1_555 1_555
C50_3 N4_3 1_555 1_555
O24 C40_3 1_555 1_555
O26 C40_3 1_555 1_555
C21_4 H12_4 1_555 1_555
N2_4 C21_4 1_555 1_555
Zn2_2 N2_4 1_555 1_555
O24_2 Zn2_2 1_555 1_555
O26_2 Zn2_2 1_555 1_555
C46_4 H31_4 1_555 1_555
N4_4 Zn2_3 1_555 1_555
O23_2 Zn2_3 1_555 1_555
O25_2 Zn2_3 1_555 1_555
C46_4 N4_4 1_555 1_555
C1_3 C3_3 1_555 1_555
C2_3 C4_3 1_555 1_555
C3_3 C4_3 1_555 1_555
C4_3 C5_3 1_555 1_555
C5_3 C6_3 1_555 1_555
C6_3 H1_3 1_555 1_555
C7_3 C6_3 1_555 1_555
H2_3 C7_3 1_555 1_555
C8_3 C3_3 1_555 1_555
H3_3 C8_3 1_555 1_555
C9_3 C10_3 1_555 1_555
C10_3 H4_3 1_555 1_555
C11_3 C10_3 1_555 1_555
H5_3 C11_3 1_555 1_555
C12_3 C11_3 1_555 1_555
C13_3 C12_3 1_555 1_555
H6_3 C13_3 1_555 1_555
C14_3 C9_3 1_555 1_555
H7_3 C14_3 1_555 1_555
H11_3 C20_3 1_555 1_555
O1_2 C1_3 1_555 1_555
O2_2 C1_3 1_555 1_555
O3_3 C2_3 1_555 1_555
O4_3 C2_3 1_555 1_555
O5_3 C5_3 1_555 1_555
O8_3 H16_3 1_555 1_555
H17_3 O8_3 1_555 1_555
O9_3 H18_3 1_555 1_555
H19_3 O9_3 1_555 1_555
Zn1_2 N1_3 1_555 1_555
C26_3 C28_3 1_555 1_555
C27_3 C29_3 1_555 1_555
C28_3 C29_3 1_555 1_555
C29_3 C30_3 1_555 1_555
C30_3 C31_3 1_555 1_555
C31_3 H20_3 1_555 1_555
C32_3 C31_3 1_555 1_555
H21_3 C32_3 1_555 1_555
C33_3 C28_3 1_555 1_555
H22_3 C33_3 1_555 1_555
C39_3 C34_3 1_555 1_555
H26_3 C39_3 1_555 1_555
H30_3 C45_3 1_555 1_555
O10_2 C26_3 1_555 1_555
O11_2 C26_3 1_555 1_555
O12_3 C27_3 1_555 1_555
O13_3 C27_3 1_555 1_555
O14_3 C30_3 1_555 1_555
O17_3 H35_3 1_555 1_555
H36_3 O17_3 1_555 1_555
O18_3 H37_3 1_555 1_555
H38_3 O18_3 1_555 1_555
Zn3_2 N3_3 1_555 1_555
O19_2 Zn3_2 1_555 1_555
O20_2 Zn1_2 1_555 1_555
O21_2 Zn3_2 1_555 1_555
O22_2 Zn1_2 1_555 1_555
Zn4_2 O10_2 1_555 1_555
Zn5_2 O1_2 1_555 1_555
C7_3 C8_3 1_555 1_555
C9_3 O5_3 1_555 1_555
C13_3 C14_3 1_555 1_555
C20_3 N1_3 1_555 1_555
O2_2 Zn5_2 1_555 1_555
O3_3 Zn1_2 1_555 1_555
O8_3 Zn1_2 1_555 1_555
O9_3 Zn1_2 1_555 1_555
C32_3 C33_3 1_555 1_555
C34_3 O14_3 1_555 1_555
C45_3 N3_3 1_555 1_555
O11_2 Zn4_2 1_555 1_555
O12_3 Zn3_2 1_555 1_555
O17_3 Zn3_2 1_555 1_555
O18_3 Zn3_2 1_555 1_555
C39_4 C34_4 1_555 1_555
H26_4 C39_4 1_555 1_555
C41_4 H27_4 1_555 1_555
C42_4 C41_4 1_555 1_555
H28_4 C42_4 1_555 1_555
C43_4 C42_4 1_555 1_555
C44_4 C43_4 1_555 1_555
H29_4 C44_4 1_555 1_555
C45_4 C44_4 1_555 1_555
H30_4 C45_4 1_555 1_555
H32_4 C47_4 1_555 1_555
C48_4 C43_4 1_555 1_555
C49_4 C48_4 1_555 1_555
H33_4 C49_4 1_555 1_555
C50_4 C49_4 1_555 1_555
H34_4 C50_4 1_555 1_555
N3_4 C41_4 1_555 1_555
O12_4 C27_4 1_555 1_555
O13_4 C27_4 1_555 1_555
O17_4 H35_4 1_555 1_555
H36_4 O17_4 1_555 1_555
O18_4 H37_4 1_555 1_555
H38_4 O18_4 1_555 1_555
Zn5_2 N3_4 1_555 1_555
C34_4 O14_4 1_555 1_555
C45_4 N3_4 1_555 1_555
C47_4 C48_4 1_555 1_555
O12_4 Zn5_2 1_555 1_555
O17_4 Zn5_2 1_555 1_555
O18_4 Zn5_2 1_555 1_555
C35_3 H23_3 1_555 1_555
C36_3 C35_3 1_555 1_555
H24_3 C36_3 1_555 1_555
C37_3 C36_3 1_555 1_555
C38_3 C37_3 1_555 1_555
H25_3 C38_3 1_555 1_555
C40_4 C37_3 1_555 1_555
O24_2 C40_4 1_555 1_555
O26_2 C40_4 1_555 1_555
C26_4 C28_4 1_555 1_555
C28_4 C29_4 1_555 1_555
C29_4 C30_4 1_555 1_555
C30_4 C31_4 1_555 1_555
C31_4 H20_4 1_555 1_555
C32_4 C31_4 1_555 1_555
H21_4 C32_4 1_555 1_555
C33_4 C28_4 1_555 1_555
H22_4 C33_4 1_555 1_555
O20_2 C26_4 1_555 1_555
O22_2 C26_4 1_555 1_555
C32_4 C33_4 1_555 1_555
C9_4 C10_4 1_555 1_555
C10_4 H4_4 1_555 1_555
C11_4 C10_4 1_555 1_555
H5_4 C11_4 1_555 1_555
C12_4 C11_4 1_555 1_555
C13_4 C12_4 1_555 1_555
H6_4 C13_4 1_555 1_555
C14_4 C9_4 1_555 1_555
H7_4 C14_4 1_555 1_555
C15_4 C12_4 1_555 1_555
C16_4 H8_4 1_555 1_555
C17_4 C16_4 1_555 1_555
H9_4 C17_4 1_555 1_555
C18_4 C17_4 1_555 1_555
C19_4 C18_4 1_555 1_555
H10_4 C19_4 1_555 1_555
C20_4 C19_4 1_555 1_555
H11_4 C20_4 1_555 1_555
H13_4 C22_4 1_555 1_555
C23_4 C18_4 1_555 1_555
C24_4 C23_4 1_555 1_555
H14_4 C24_4 1_555 1_555
C25_4 C24_4 1_555 1_555
H15_4 C25_4 1_555 1_555
N1_4 C16_4 1_555 1_555
O3_4 C2_4 1_555 1_555
O4_4 C2_4 1_555 1_555
O23_2 C15_4 1_555 1_555
O25_2 C15_4 1_555 1_555
O8_4 H16_4 1_555 1_555
H17_4 O8_4 1_555 1_555
O9_4 H18_4 1_555 1_555
H19_4 O9_4 1_555 1_555
Zn4_2 N1_4 1_555 1_555
C9_4 O5_4 1_555 1_555
C13_4 C14_4 1_555 1_555
C20_4 N1_4 1_555 1_555
C22_4 C23_4 1_555 1_555
O3_4 Zn4_2 1_555 1_555
O8_4 Zn4_2 1_555 1_555
O9_4 Zn4_2 1_555 1_555
C1_4 C3_4 1_555 1_555
C3_4 C4_4 1_555 1_555
C4_4 C5_4 1_555 1_555
C5_4 C6_4 1_555 1_555
C6_4 H1_4 1_555 1_555
C7_4 C6_4 1_555 1_555
H2_4 C7_4 1_555 1_555
C8_4 C3_4 1_555 1_555
H3_4 C8_4 1_555 1_555
O19_2 C1_4 1_555 1_555
O21_2 C1_4 1_555 1_555
C7_4 C8_4 1_555 1_555
C35_4 H23_4 1_555 1_555
C36_4 C35_4 1_555 1_555
H24_4 C36_4 1_555 1_555
C37_4 C36_4 1_555 1_555
C38_4 C37_4 1_555 1_555
H25_4 C38_4 1_555 1_555

#END
