
###############################################################################
#
# This file contains modified crystal structure data generated from the
# MOF subset of the Cambridge Structural Database (CSD) v543 
# hosted by the Cambridge Crystallographic Data Centre (CCDC).
#
# This work is licensed under the Creative Commons
# Attribution-NonCommercial-ShareAlike 4.0 International License.
# To view a copy of this license, visit
# http://creativecommons.org/licenses/by-nc-sa/4.0/
# or send a letter to
# Creative Commons, PO Box 1866, Mountain View, CA 94042, USA.
#
# CIF created using the CSD Python API on 29 September 2022
# The structure has been converted into the P1 space group
# The structure has a 3D framework
# The original CSD entry VIWJAO is in the triclinic crystal system
# The framework has been calculated to contain at least 10.0% void space
# The void calculation uses a probe of radius 1.32A, grid spacing 0.4
#
###############################################################################

data_VIWJAO
_chemical_formula_moiety         '(C144 H112 N24 O26 Zn6)n'
_symmetry_cell_setting           triclinic
_symmetry_space_group_name_H-M   'P 1'
_symmetry_Int_Tables_number      1
_space_group_name_Hall           'P 1'
loop_
_symmetry_equiv_pos_site_id
_symmetry_equiv_pos_as_xyz
1 x,y,z
_cell_length_a                   10.5680(4)
_cell_length_b                   13.7987(5)
_cell_length_c                   25.5505(8)
_cell_angle_alpha                94.475(3)
_cell_angle_beta                 97.521(3)
_cell_angle_gamma                98.646(3)
_cell_volume                     3633.67
loop_
_atom_site_label
_atom_site_type_symbol
_atom_site_fract_x
_atom_site_fract_y
_atom_site_fract_z
H54 H 0.0145 0.2367 0.3299
C43 C 0.8331(5) 0.0073(4) 0.52305(19)
H27 H 0.8999 0.0608 0.5277
Zn6 Zn 0.67388(5) 0.08944(4) 0.434848(19)
C1 C 0.2231(5) 0.4334(3) 0.24260(16)
C2 C 0.2007(4) 0.5348(3) 0.14381(15)
C3 C 0.1302(4) 0.5050(3) 0.23470(16)
C4 C 0.1241(4) 0.5536(3) 0.18803(15)
C5 C 0.0367(4) 0.6196(3) 0.18124(16)
C8 C 0.0523(4) 0.5251(3) 0.27228(17)
H3 H 0.0550 0.4920 0.3027
C9 C 0.0092(4) 0.7536(3) 0.12758(16)
C10 C 0.0837(4) 0.8277(3) 0.16228(17)
H4 H 0.1390 0.8127 0.1908
C11 C 0.0760(5) 0.9252(4) 0.15446(18)
H5 H 0.1244 0.9758 0.1783
C16 C 0.2921(5) 0.0783(3) 0.30209(17)
C31 C 0.5498(4) 0.4050(4) 0.31267(17)
H15 H 0.5300 0.4518 0.2900
C32 C 0.5406(5) 0.2730(4) 0.35246(17)
H16 H 0.5119 0.2106 0.3619
C33 C 0.6476(5) 0.3328(4) 0.37522(18)
H17 H 0.7065 0.3197 0.4031
C34 C 0.7510(5) 0.5066(4) 0.36392(19)
H18 H 0.7460 0.5479 0.3350
H19 H 0.8366 0.4882 0.3683
C35 C 0.7338(4) 0.5656(3) 0.41437(18)
C36 C 0.8354(5) 0.6352(4) 0.44066(19)
H20 H 0.9165 0.6395 0.4298
C37 C 0.8172(5) 0.6982(4) 0.48284(19)
H21 H 0.8857 0.7454 0.4995
C38 C 0.6988(5) 0.6918(4) 0.50052(19)
C39 C 0.5994(5) 0.6188(4) 0.47648(19)
H22 H 0.5201 0.6118 0.4890
C40 C 0.6167(5) 0.5562(4) 0.4341(2)
H23 H 0.5491 0.5072 0.4185
C41 C 0.6761(5) 0.7662(4) 0.54414(19)
H24 H 0.5851 0.7566 0.5480
H25 H 0.7250 0.7560 0.5776
C42 C 0.6541(5) 0.9088(4) 0.49241(18)
H26 H 0.5748 0.8817 0.4726
C44 C 0.8278(5) 0.9279(4) 0.55118(19)
H28 H 0.8891 0.9176 0.5789
C45 C 0.3426(4) 0.1343(3) 0.17171(16)
H29 H 0.3844 0.0929 0.1925
C46 C 0.2467(5) 0.2533(3) 0.14699(16)
H30 H 0.2097 0.3103 0.1481
C47 C 0.2549(5) 0.1974(3) 0.10281(17)
H31 H 0.2249 0.2080 0.0682
C48 C 0.3545(5) 0.0431(3) 0.08435(18)
H32 H 0.2853 0.0200 0.0552
C49 C 0.4767(4) 0.0797(3) 0.06244(16)
C50 C 0.4706(4) 0.1144(3) 0.01256(17)
C52 C 0.7022(4) 0.1435(3) 0.02008(17)
C53 C 0.7087(5) 0.1090(3) 0.07033(18)
H36 H 0.7888 0.1071 0.0899
C54 C 0.5965(5) 0.0778(3) 0.09104(17)
H37 H 0.6019 0.0553 0.1245
H38 H 0.8960 0.1580 0.0159
C57 C 0.9126(4) 0.3492(3) 0.04860(16)
H41 H 0.9577 0.3284 0.0783
C58 C 0.8989(4) 0.4425(3) 0.04038(16)
H42 H 0.9342 0.4981 0.0637
C59 C 0.4851(4) 0.4665(4) 0.10750(17)
H43 H 0.4632 0.5102 0.1331
C60 C 0.4789(4) 0.3710(3) 0.03584(17)
H44 H 0.4518 0.3364 0.0025
C61 C 0.5921(4) 0.3696(4) 0.06669(17)
H45 H 0.6563 0.3339 0.0588
C62 C 0.7026(4) 0.4560(3) 0.15589(17)
H46 H 0.6765 0.4969 0.1839
H47 H 0.7764 0.4934 0.1436
C63 C 0.7410(4) 0.3638(3) 0.17768(16)
C64 C 0.8649(4) 0.3448(3) 0.17714(16)
H48 H 0.9240 0.3876 0.1625
C65 C 0.9027(4) 0.2617(4) 0.19840(16)
H49 H 0.9868 0.2496 0.1977
C66 C 0.8165(4) 0.1973(3) 0.22038(16)
C67 C 0.6903(5) 0.2165(4) 0.22070(17)
H50 H 0.6311 0.1736 0.2353
C68 C 0.6530(4) 0.2985(4) 0.19946(17)
H51 H 0.5687 0.3104 0.1997
C69 C 0.8585(5) 0.1106(4) 0.24590(17)
H52 H 0.7996 0.0509 0.2313
H53 H 0.9443 0.1032 0.2384
C70 C 0.9433(5) 0.1952(4) 0.33803(18)
C71 C 0.9015(5) 0.1920(4) 0.38603(18)
H55 H 0.9397 0.2315 0.4169
C72 C 0.7714(5) 0.0833(3) 0.33135(17)
H56 H 0.7030 0.0338 0.3171
N1 N 0.4785(4) 0.3185(3) 0.31235(13)
N2 N 0.6551(4) 0.4178(3) 0.34978(14)
N3 N 0.7160(4) 0.8661(3) 0.53137(14)
N4 N 0.7220(4) 0.9952(3) 0.48612(14)
N5 N 0.3013(3) 0.2138(3) 0.19075(13)
N6 N 0.3165(3) 0.1209(3) 0.11852(13)
N7 N 0.8466(3) 0.2909(3) 0.00445(13)
N9 N 0.4104(3) 0.4316(3) 0.06155(13)
N10 N 0.5946(3) 0.4303(3) 0.11140(13)
N11 N 0.8596(4) 0.1249(3) 0.30373(14)
N12 N 0.7928(4) 0.1207(3) 0.38152(14)
O1 O 0.1853(3) 0.3577(2) 0.26682(11)
O2 O 0.3288(3) 0.4489(2) 0.22660(11)
O3 O 0.1592(3) 0.4546(2) 0.11368(10)
O4 O 0.2921(3) 0.5981(2) 0.13772(11)
O5 O 0.0202(3) 0.6547(2) 0.13114(11)
O8 O 0.2256(3) 0.1497(2) 0.30212(12)
O9 O 0.3957(3) 0.0821(2) 0.28395(12)
O10 O 0.4938(3) 0.0457(2) 0.40056(11)
Zn1 Zn 0.22639(5) 0.44296(4) 0.043593(18)
Zn2 Zn 0.30945(5) 0.26182(4) 0.267604(18)
N14 N 0.1755(3) 0.5575(3) 0.00820(13)
O15 O 0.1420(3) 0.3179(2) 0.00013(10)
O16 O 0.6476(3) 0.2070(2) 0.47914(11)
H34 H 0.3905 0.1161 0.9930
C51 C 0.5821(4) 0.1462(3) 0.99192(17)
H35 H 0.5764 0.1698 0.9587
C55 C 0.8226(3) 0.1827(2) 0.99781(12)
H39 H 0.8129 0.1597 0.9604
C56 C 0.7954(3) 0.3500(2) 0.97177(12)
H40 H 0.7455 0.3285 0.9390
N8 N 0.8245(3) 0.4425(3) 0.99180(13)
Zn5 Zn 0.77361(5) 0.55704(4) 0.956407(18)
C17 C 0.4635(5) 0.9693(3) 0.36766(17)
C18 C 0.2372(5) 0.9865(3) 0.32458(16)
C19 C 0.3211(4) 0.9328(3) 0.35291(16)
C20 C 0.2666(5) 0.8439(3) 0.36999(16)
C21 C 0.1358(5) 0.8086(4) 0.35890(19)
H8 H 0.1020 0.7487 0.3700
C22 C 0.0551(5) 0.8633(4) 0.3310(2)
C23 C 0.1058(5) 0.9515(3) 0.31385(18)
H10 H 0.0512 0.9876 0.2949
C24 C 0.3143(4) 0.6971(3) 0.40561(17)
C25 C 0.3313(5) 0.6271(4) 0.36666(18)
H11 H 0.3664 0.6458 0.3368
C26 C 0.2951(6) 0.5289(4) 0.3730(2)
H12 H 0.3074 0.4809 0.3473
C27 C 0.2415(6) 0.5013(4) 0.4164(2)
H13 H 0.2168 0.4348 0.4200
C28 C 0.2239(5) 0.5712(4) 0.45477(19)
H14 H 0.1858 0.5518 0.4839
C29 C 0.2624(4) 0.6708(3) 0.45053(17)
C30 C 0.2479(5) 0.7482(3) 0.49307(18)
H33 H 0.3679 0.9880 0.1046
O11 O 0.5415(4) 0.9231(3) 0.34890(15)
O12 O 0.3542(3) 0.7969(2) 0.40059(11)
O13 O 0.1383(3) 0.7642(3) 0.49888(13)
O14 O 0.3524(3) 0.7930(2) 0.52086(11)
Zn7 Zn 0.32612(5) 0.91056(4) 0.565152(19)
O7 O 0.8580(3) 0.6821(2) 0.99987(10)
C17_2 C 0.5365(5) 0.0307(3) 0.63234(17)
C18_2 C 0.7628(5) 0.0135(3) 0.67542(16)
C19_2 C 0.6789(4) 0.0672(3) 0.64709(16)
C20_2 C 0.7334(5) 0.1561(3) 0.63001(16)
C21_2 C 0.8642(5) 0.1914(4) 0.64110(19)
H8_2 H 0.8980 0.2513 0.6300
C22_2 C 0.9449(5) 0.1367(4) 0.6690(2)
C23_2 C 0.8942(5) 0.0485(3) 0.68615(18)
H10_2 H 0.9488 0.0124 0.7051
C24_2 C 0.6857(4) 0.3029(3) 0.59439(17)
C25_2 C 0.6687(5) 0.3729(4) 0.63334(18)
H11_2 H 0.6336 0.3542 0.6632
C26_2 C 0.7049(6) 0.4711(4) 0.6270(2)
H12_2 H 0.6926 0.5191 0.6527
C27_2 C 0.7585(6) 0.4987(4) 0.5836(2)
H13_2 H 0.7832 0.5652 0.5800
C28_2 C 0.7761(5) 0.4288(4) 0.54523(19)
H14_2 H 0.8142 0.4482 0.5161
C29_2 C 0.7376(4) 0.3292(3) 0.54947(17)
C30_2 C 0.7521(5) 0.2518(3) 0.50693(18)
H33_2 H 0.6321 0.0120 0.8954
O11_2 O 0.4585(4) 0.0769(3) 0.65110(15)
O12_2 O 0.6458(3) 0.2031(2) 0.59941(11)
O13_2 O 0.8617(3) 0.2358(3) 0.50112(13)
N13 N 0.2780(4) 0.0048(3) 0.51388(14)
H34_2 H 0.6095 0.8839 0.0070
C51_2 C 0.4179(4) 0.8538(3) 0.00808(17)
H35_2 H 0.4236 0.8302 0.0413
C55_2 C 0.1774(3) 0.8173(2) 0.00219(12)
H39_2 H 0.1871 0.8403 0.0396
C56_2 C 0.2046(3) 0.6500(2) 0.02823(12)
H40_2 H 0.2545 0.6715 0.0610
C1_2 C 0.7769(5) 0.5666(3) 0.75740(16)
C2_2 C 0.7993(4) 0.4652(3) 0.85619(15)
C3_2 C 0.8698(4) 0.4950(3) 0.76530(16)
C4_2 C 0.8759(4) 0.4464(3) 0.81197(15)
C5_2 C 0.9633(4) 0.3804(3) 0.81876(16)
C8_2 C 0.9477(4) 0.4749(3) 0.72772(17)
H3_2 H 0.9450 0.5080 0.6973
C9_2 C 0.9908(4) 0.2464(3) 0.87242(16)
C10_2 C 0.9163(4) 0.1723(3) 0.83772(17)
H4_2 H 0.8610 0.1873 0.8092
C11_2 C 0.9240(5) 0.0748(4) 0.84554(18)
H5_2 H 0.8756 0.0242 0.8217
C16_2 C 0.7079(5) 0.9217(3) 0.69791(17)
C31_2 C 0.4502(4) 0.5950(4) 0.68733(17)
H15_2 H 0.4700 0.5482 0.7100
C32_2 C 0.4594(5) 0.7270(4) 0.64754(17)
H16_2 H 0.4881 0.7894 0.6381
C33_2 C 0.3524(5) 0.6672(4) 0.62478(18)
H17_2 H 0.2935 0.6803 0.5969
C34_2 C 0.2490(5) 0.4934(4) 0.63608(19)
H18_2 H 0.2540 0.4521 0.6650
H19_2 H 0.1634 0.5118 0.6317
C35_2 C 0.2662(4) 0.4344(3) 0.58563(18)
C36_2 C 0.1646(5) 0.3648(4) 0.55934(19)
H20_2 H 0.0835 0.3605 0.5702
C37_2 C 0.1828(5) 0.3018(4) 0.51716(19)
H21_2 H 0.1143 0.2546 0.5005
C38_2 C 0.3012(5) 0.3082(4) 0.49948(19)
C39_2 C 0.4006(5) 0.3812(4) 0.52352(19)
H22_2 H 0.4799 0.3882 0.5110
C40_2 C 0.3833(5) 0.4438(4) 0.5659(2)
H23_2 H 0.4509 0.4928 0.5815
C41_2 C 0.3239(5) 0.2338(4) 0.45586(19)
H24_2 H 0.4149 0.2434 0.4520
H25_2 H 0.2750 0.2440 0.4224
C42_2 C 0.3459(5) 0.0912(4) 0.50759(18)
H26_2 H 0.4252 0.1183 0.5274
C44_2 C 0.1722(5) 0.0721(4) 0.44882(19)
H28_2 H 0.1109 0.0824 0.4211
C45_2 C 0.6574(4) 0.8657(3) 0.82829(16)
H29_2 H 0.6156 0.9071 0.8075
C46_2 C 0.7533(5) 0.7467(3) 0.85301(16)
H30_2 H 0.7903 0.6897 0.8519
C47_2 C 0.7451(5) 0.8026(3) 0.89719(17)
H31_2 H 0.7751 0.7920 0.9318
C48_2 C 0.6455(5) 0.9569(3) 0.91565(18)
H32_2 H 0.7147 0.9800 0.9448
C49_2 C 0.5233(4) 0.9203(3) 0.93756(16)
C50_2 C 0.5294(4) 0.8856(3) 0.98744(17)
C52_2 C 0.2978(4) 0.8565(3) 0.97992(17)
C53_2 C 0.2913(5) 0.8910(3) 0.92967(18)
H36_2 H 0.2112 0.8929 0.9101
C54_2 C 0.4035(5) 0.9222(3) 0.90896(17)
H37_2 H 0.3981 0.9447 0.8755
H38_2 H 0.1040 0.8420 0.9841
C57_2 C 0.0874(4) 0.6508(3) 0.95140(16)
H41_2 H 0.0423 0.6716 0.9217
C58_2 C 0.1011(4) 0.5575(3) 0.95962(16)
H42_2 H 0.0658 0.5019 0.9363
C59_2 C 0.5149(4) 0.5335(4) 0.89250(17)
H43_2 H 0.5368 0.4898 0.8669
C60_2 C 0.5211(4) 0.6290(3) 0.96416(17)
H44_2 H 0.5482 0.6636 0.9975
C61_2 C 0.4079(4) 0.6304(4) 0.93331(17)
H45_2 H 0.3437 0.6661 0.9412
C62_2 C 0.2974(4) 0.5440(3) 0.84411(17)
H46_2 H 0.3235 0.5031 0.8161
H47_2 H 0.2236 0.5066 0.8564
C63_2 C 0.2590(4) 0.6362(3) 0.82232(16)
C64_2 C 0.1351(4) 0.6552(3) 0.82286(16)
H48_2 H 0.0760 0.6124 0.8375
C65_2 C 0.0973(4) 0.7383(4) 0.80160(16)
H49_2 H 0.0132 0.7504 0.8023
C66_2 C 0.1835(4) 0.8027(3) 0.77962(16)
C67_2 C 0.3097(5) 0.7835(4) 0.77930(17)
H50_2 H 0.3689 0.8264 0.7647
C68_2 C 0.3470(4) 0.7015(4) 0.80054(17)
H51_2 H 0.4313 0.6896 0.8003
C69_2 C 0.1415(5) 0.8894(4) 0.75410(17)
H52_2 H 0.2004 0.9491 0.7687
H53_2 H 0.0557 0.8968 0.7616
C70_2 C 0.0567(5) 0.8048(4) 0.66197(18)
C71_2 C 0.0985(5) 0.8080(4) 0.61397(18)
H55_2 H 0.0603 0.7685 0.5831
C72_2 C 0.2286(5) 0.9167(3) 0.66865(17)
H56_2 H 0.2970 0.9662 0.6829
N1_2 N 0.5215(4) 0.6815(3) 0.68765(13)
N2_2 N 0.3449(4) 0.5822(3) 0.65022(14)
N3_2 N 0.2840(4) 0.1339(3) 0.46863(14)
N5_2 N 0.6987(3) 0.7862(3) 0.80925(13)
N6_2 N 0.6835(3) 0.8791(3) 0.88148(13)
N7_2 N 0.1534(3) 0.7091(3) 0.99555(13)
N9_2 N 0.5896(3) 0.5684(3) 0.93845(13)
N10_2 N 0.4054(3) 0.5697(3) 0.88860(13)
N11_2 N 0.1404(4) 0.8751(3) 0.69627(14)
N12_2 N 0.2072(4) 0.8793(3) 0.61848(14)
O1_2 O 0.8147(3) 0.6423(2) 0.73318(11)
O2_2 O 0.6712(3) 0.5511(2) 0.77340(11)
O3_2 O 0.8408(3) 0.5454(2) 0.88632(10)
O4_2 O 0.7079(3) 0.4019(2) 0.86228(11)
O5_2 O 0.9798(3) 0.3453(2) 0.86886(11)
O8_2 O 0.7744(3) 0.8503(2) 0.69788(12)
O9_2 O 0.6043(3) 0.9179(2) 0.71605(12)
O10_2 O 0.5062(3) 0.9543(2) 0.59944(11)
Zn2_2 Zn 0.69055(5) 0.73818(4) 0.732396(18)
C43_2 C 0.1669(5) 0.9927(4) 0.47695(19)
H27_2 H 0.1001 0.9392 0.4723
H6 H 0.9925 0.0122 0.1056
C6 C 0.9608(4) 0.6414(3) 0.21924(16)
H1 H 0.9047 0.6868 0.2141
C7 C 0.9702(4) 0.5940(3) 0.26525(17)
H2 H 0.9210 0.6086 0.2916
C12 C 0.9964(5) 0.9469(4) 0.11132(19)
C13 C 0.9227(4) 0.8717(3) 0.07670(18)
H7 H 0.8700 0.8872 0.0475
C14 C 0.9250(4) 0.7731(3) 0.08432(15)
C15 C 0.8383(4) 0.6899(3) 0.04859(16)
O6 O 0.7541(3) 0.6358(2) 0.06700(11)
H9 H 0.9666 0.8406 0.3239
H9_2 H 0.0334 0.1594 0.6761
C6_2 C 0.0392(4) 0.3586(3) 0.78076(16)
H1_2 H 0.0953 0.3132 0.7859
C7_2 C 0.0298(4) 0.4060(3) 0.73475(17)
H2_2 H 0.0790 0.3914 0.7084
C12_2 C 0.0036(5) 0.0531(4) 0.88868(19)
C13_2 C 0.0773(4) 0.1283(3) 0.92330(18)
H7_2 H 0.1300 0.1128 0.9525
C14_2 C 0.0750(4) 0.2269(3) 0.91568(15)
C15_2 C 0.1617(4) 0.3101(3) 0.95141(16)
O6_2 O 0.2459(3) 0.3642(2) 0.93300(11)
H6_2 H 0.0075 0.9878 0.8944
H54_2 H 0.9855 0.7633 0.6701
loop_
_geom_bond_atom_site_label_1
_geom_bond_atom_site_label_2
_geom_bond_site_symmetry_1
_geom_bond_site_symmetry_2
C43 H27 1_555 1_555
C1 C3 1_555 1_555
C2 C4 1_555 1_555
C3 C4 1_555 1_555
C4 C5 1_555 1_555
C8 C3 1_555 1_555
H3 C8 1_555 1_555
C9 C10 1_555 1_555
C10 H4 1_555 1_555
C11 C10 1_555 1_555
H5 C11 1_555 1_555
C31 H15 1_555 1_555
C32 H16 1_555 1_555
C33 C32 1_555 1_555
H17 C33 1_555 1_555
C34 H18 1_555 1_555
H19 C34 1_555 1_555
C35 C34 1_555 1_555
C36 C35 1_555 1_555
H20 C36 1_555 1_555
C37 C36 1_555 1_555
H21 C37 1_555 1_555
C38 C37 1_555 1_555
C39 C38 1_555 1_555
H22 C39 1_555 1_555
C40 C35 1_555 1_555
H23 C40 1_555 1_555
C41 C38 1_555 1_555
H24 C41 1_555 1_555
H25 C41 1_555 1_555
C42 H26 1_555 1_555
H28 C44 1_555 1_555
C45 H29 1_555 1_555
C46 H30 1_555 1_555
C47 C46 1_555 1_555
H31 C47 1_555 1_555
C48 H32 1_555 1_555
C49 C48 1_555 1_555
C50 C49 1_555 1_555
C53 C52 1_555 1_555
H36 C53 1_555 1_555
C54 C49 1_555 1_555
H37 C54 1_555 1_555
C57 H41 1_555 1_555
C58 C57 1_555 1_555
H42 C58 1_555 1_555
C59 H43 1_555 1_555
C60 H44 1_555 1_555
C61 C60 1_555 1_555
H45 C61 1_555 1_555
C62 H46 1_555 1_555
H47 C62 1_555 1_555
C63 C62 1_555 1_555
C64 C63 1_555 1_555
H48 C64 1_555 1_555
C65 C64 1_555 1_555
H49 C65 1_555 1_555
C66 C65 1_555 1_555
C67 C66 1_555 1_555
H50 C67 1_555 1_555
C68 C63 1_555 1_555
H51 C68 1_555 1_555
C69 C66 1_555 1_555
H52 C69 1_555 1_555
H53 C69 1_555 1_555
C71 C70 1_555 1_555
H55 C71 1_555 1_555
C72 H56 1_555 1_555
N1 C31 1_555 1_555
N2 C31 1_555 1_555
N3 C41 1_555 1_555
N4 C42 1_555 1_555
N5 C45 1_555 1_555
N6 C45 1_555 1_555
N9 C59 1_555 1_555
N10 C59 1_555 1_555
N11 C69 1_555 1_555
N12 C71 1_555 1_555
O1 C1 1_555 1_555
O2 C1 1_555 1_555
O3 C2 1_555 1_555
O4 C2 1_555 1_555
O5 C5 1_555 1_555
O8 C16 1_555 1_555
O9 C16 1_555 1_555
Zn1 N9 1_555 1_555
Zn2 N1 1_555 1_555
Zn6 N12 1_555 1_555
N14 Zn1 1_555 1_555
O15 Zn1 1_555 1_555
O16 Zn6 1_555 1_555
C9 O5 1_555 1_555
C32 N1 1_555 1_555
C33 N2 1_555 1_555
C34 N2 1_555 1_555
C39 C40 1_555 1_555
C42 N3 1_555 1_555
C44 N3 1_555 1_555
C46 N5 1_555 1_555
C47 N6 1_555 1_555
C48 N6 1_555 1_555
C53 C54 1_555 1_555
C57 N7 1_555 1_555
C60 N9 1_555 1_555
C61 N10 1_555 1_555
C62 N10 1_555 1_555
C67 C68 1_555 1_555
C70 N11 1_555 1_555
C72 N11 1_555 1_555
C72 N12 1_555 1_555
N5 Zn2 1_555 1_555
O1 Zn2 1_555 1_555
O3 Zn1 1_555 1_555
O8 Zn2 1_555 1_555
O10 Zn6 1_555 1_555
H35 C51 1_555 1_555
H39 C55 1_555 1_555
C56 H40 1_555 1_555
N8 C56 1_555 1_555
Zn5 N8 1_555 1_555
C17 C19 1_555 1_555
C18 C19 1_555 1_555
C19 C20 1_555 1_555
C20 C21 1_555 1_555
C21 H8 1_555 1_555
C22 C21 1_555 1_555
C23 C18 1_555 1_555
H10 C23 1_555 1_555
C24 C25 1_555 1_555
C25 H11 1_555 1_555
C26 C25 1_555 1_555
H12 C26 1_555 1_555
C27 C26 1_555 1_555
H13 C27 1_555 1_555
C28 C27 1_555 1_555
H14 C28 1_555 1_555
C29 C24 1_555 1_555
C30 C29 1_555 1_555
O11 C17 1_555 1_555
O12 C20 1_555 1_555
O13 C30 1_555 1_555
O14 C30 1_555 1_555
Zn7 O14 1_555 1_555
C22 C23 1_555 1_555
C24 O12 1_555 1_555
C28 C29 1_555 1_555
Zn5 O7 1_555 1_555
C17_2 C19_2 1_555 1_555
C18_2 C19_2 1_555 1_555
C19_2 C20_2 1_555 1_555
C20_2 C21_2 1_555 1_555
C21_2 H8_2 1_555 1_555
C22_2 C21_2 1_555 1_555
C23_2 C18_2 1_555 1_555
H10_2 C23_2 1_555 1_555
C24_2 C25_2 1_555 1_555
C25_2 H11_2 1_555 1_555
C26_2 C25_2 1_555 1_555
H12_2 C26_2 1_555 1_555
C27_2 C26_2 1_555 1_555
H13_2 C27_2 1_555 1_555
C28_2 C27_2 1_555 1_555
H14_2 C28_2 1_555 1_555
C29_2 C24_2 1_555 1_555
C30_2 C29_2 1_555 1_555
O11_2 C17_2 1_555 1_555
O12_2 C20_2 1_555 1_555
O13_2 C30_2 1_555 1_555
O16 C30_2 1_555 1_555
C22_2 C23_2 1_555 1_555
C24_2 O12_2 1_555 1_555
C28_2 C29_2 1_555 1_555
H35_2 C51_2 1_555 1_555
H39_2 C55_2 1_555 1_555
C56_2 H40_2 1_555 1_555
N14 C56_2 1_555 1_555
C1_2 C3_2 1_555 1_555
C2_2 C4_2 1_555 1_555
C3_2 C4_2 1_555 1_555
C4_2 C5_2 1_555 1_555
C8_2 C3_2 1_555 1_555
H3_2 C8_2 1_555 1_555
C9_2 C10_2 1_555 1_555
C10_2 H4_2 1_555 1_555
C11_2 C10_2 1_555 1_555
H5_2 C11_2 1_555 1_555
C31_2 H15_2 1_555 1_555
C32_2 H16_2 1_555 1_555
C33_2 C32_2 1_555 1_555
H17_2 C33_2 1_555 1_555
C34_2 H18_2 1_555 1_555
H19_2 C34_2 1_555 1_555
C35_2 C34_2 1_555 1_555
C36_2 C35_2 1_555 1_555
H20_2 C36_2 1_555 1_555
C37_2 C36_2 1_555 1_555
H21_2 C37_2 1_555 1_555
C38_2 C37_2 1_555 1_555
C39_2 C38_2 1_555 1_555
H22_2 C39_2 1_555 1_555
C40_2 C35_2 1_555 1_555
H23_2 C40_2 1_555 1_555
C41_2 C38_2 1_555 1_555
H24_2 C41_2 1_555 1_555
H25_2 C41_2 1_555 1_555
C42_2 H26_2 1_555 1_555
H28_2 C44_2 1_555 1_555
C45_2 H29_2 1_555 1_555
C46_2 H30_2 1_555 1_555
C47_2 C46_2 1_555 1_555
H31_2 C47_2 1_555 1_555
C48_2 H32_2 1_555 1_555
C49_2 C48_2 1_555 1_555
C50_2 C49_2 1_555 1_555
C53_2 C52_2 1_555 1_555
H36_2 C53_2 1_555 1_555
C54_2 C49_2 1_555 1_555
H37_2 C54_2 1_555 1_555
C57_2 H41_2 1_555 1_555
C58_2 C57_2 1_555 1_555
H42_2 C58_2 1_555 1_555
C59_2 H43_2 1_555 1_555
C60_2 H44_2 1_555 1_555
C61_2 C60_2 1_555 1_555
H45_2 C61_2 1_555 1_555
C62_2 H46_2 1_555 1_555
H47_2 C62_2 1_555 1_555
C63_2 C62_2 1_555 1_555
C64_2 C63_2 1_555 1_555
H48_2 C64_2 1_555 1_555
C65_2 C64_2 1_555 1_555
H49_2 C65_2 1_555 1_555
C66_2 C65_2 1_555 1_555
C67_2 C66_2 1_555 1_555
H50_2 C67_2 1_555 1_555
C68_2 C63_2 1_555 1_555
H51_2 C68_2 1_555 1_555
C69_2 C66_2 1_555 1_555
H52_2 C69_2 1_555 1_555
H53_2 C69_2 1_555 1_555
C71_2 C70_2 1_555 1_555
H55_2 C71_2 1_555 1_555
C72_2 H56_2 1_555 1_555
N1_2 C31_2 1_555 1_555
N2_2 C31_2 1_555 1_555
N3_2 C41_2 1_555 1_555
N13 C42_2 1_555 1_555
N5_2 C45_2 1_555 1_555
N6_2 C45_2 1_555 1_555
N9_2 C59_2 1_555 1_555
N10_2 C59_2 1_555 1_555
N11_2 C69_2 1_555 1_555
N12_2 C71_2 1_555 1_555
O1_2 C1_2 1_555 1_555
O2_2 C1_2 1_555 1_555
O3_2 C2_2 1_555 1_555
O4_2 C2_2 1_555 1_555
O5_2 C5_2 1_555 1_555
O8_2 C16_2 1_555 1_555
O9_2 C16_2 1_555 1_555
Zn5 N9_2 1_555 1_555
Zn2_2 N1_2 1_555 1_555
Zn7 N12_2 1_555 1_555
C9_2 O5_2 1_555 1_555
C32_2 N1_2 1_555 1_555
C33_2 N2_2 1_555 1_555
C34_2 N2_2 1_555 1_555
C39_2 C40_2 1_555 1_555
C42_2 N3_2 1_555 1_555
C44_2 N3_2 1_555 1_555
C46_2 N5_2 1_555 1_555
C47_2 N6_2 1_555 1_555
C48_2 N6_2 1_555 1_555
C53_2 C54_2 1_555 1_555
C57_2 N7_2 1_555 1_555
C60_2 N9_2 1_555 1_555
C61_2 N10_2 1_555 1_555
C62_2 N10_2 1_555 1_555
C67_2 C68_2 1_555 1_555
C70_2 N11_2 1_555 1_555
C72_2 N11_2 1_555 1_555
C72_2 N12_2 1_555 1_555
N5_2 Zn2_2 1_555 1_555
O1_2 Zn2_2 1_555 1_555
O3_2 Zn5 1_555 1_555
O8_2 Zn2_2 1_555 1_555
O10_2 Zn7 1_555 1_555
C43_2 H27_2 1_555 1_555
C6 H1 1_555 1_555
C7 C6 1_555 1_555
H2 C7 1_555 1_555
C13 C12 1_555 1_555
H7 C13 1_555 1_555
C15 C14 1_555 1_555
O6 C15 1_555 1_555
C13 C14 1_555 1_555
C6_2 H1_2 1_555 1_555
C7_2 C6_2 1_555 1_555
H2_2 C7_2 1_555 1_555
C13_2 C12_2 1_555 1_555
H7_2 C13_2 1_555 1_555
C15_2 C14_2 1_555 1_555
O6_2 C15_2 1_555 1_555
C13_2 C14_2 1_555 1_555

#END
