
###############################################################################
#
# This file contains modified crystal structure data generated from the
# MOF subset of the Cambridge Structural Database (CSD) v543 
# hosted by the Cambridge Crystallographic Data Centre (CCDC).
#
# This work is licensed under the Creative Commons
# Attribution-NonCommercial-ShareAlike 4.0 International License.
# To view a copy of this license, visit
# http://creativecommons.org/licenses/by-nc-sa/4.0/
# or send a letter to
# Creative Commons, PO Box 1866, Mountain View, CA 94042, USA.
#
# CIF created using the CSD Python API on 29 September 2022
# The structure has been converted into the P1 space group
# The structure has a 3D framework
# The original CSD entry VIWKIX is in the monoclinic crystal system
# The framework has been calculated to contain at least 10.0% void space
# The void calculation uses a probe of radius 1.32A, grid spacing 0.4
# The framework is charged, counterions have been retained in the structure
# H atom positions have been added when not included in the experimental data
# Generated hydrogen atom positions removed from atoms on special positions
#
###############################################################################

data_VIWKIX
_chemical_formula_moiety         '(C100 H192 Cu8 La8 O130)n'
_symmetry_cell_setting           triclinic
_symmetry_space_group_name_H-M   'P 1'
_symmetry_Int_Tables_number      1
_space_group_name_Hall           'P 1'
loop_
_symmetry_equiv_pos_site_id
_symmetry_equiv_pos_as_xyz
1 x,y,z
_cell_length_a                   11.006(2)
_cell_length_b                   23.228(5)
_cell_length_c                   19.847(4)
_cell_angle_alpha                90
_cell_angle_beta                 99.91(3)
_cell_angle_gamma                90
_cell_volume                     4998.13
loop_
_atom_site_label
_atom_site_type_symbol
_atom_site_fract_x
_atom_site_fract_y
_atom_site_fract_z
O70 O 0.0066(5) 0.2083(3) 0.0954(3)
O72 O 0.0927(6) 0.1446(3) 0.1707(4)
La8 La 0.03807(4) 0.35561(2) 0.89823(2)
La2 La 0.85114(5) 0.14369(2) 0.14473(3)
C25 C 0.7072(7) 0.2607(4) 0.0335(4)
O19 O 0.7391(6) 0.2164(3) 0.0684(3)
O20 O 0.7229(6) 0.3117(3) 0.0552(3)
O25 O 0.6581(8) 0.1771(4) 0.1942(5)
O26 O 0.8773(15) 0.1067(5) 0.2671(5)
O27 O 0.9172(15) 0.0374(4) 0.1580(6)
O28 O 0.6670(10) 0.0817(6) 0.0970(7)
O29 O 0.8902(11) 0.1035(4) 0.0320(4)
Cu8 Cu 0.80133(9) 0.32008(5) 0.15004(5)
O76 O 0.9098(6) 0.2270(3) 0.2210(3)
Cu1 Cu 0.09015(9) 0.17962(5) 0.89752(5)
Cu2 Cu 0.30133(9) 0.17992(5) 0.65004(5)
C10 C 0.0444(7) 0.1746(4) 0.6634(4)
C13 C 0.0484(8) 0.0484(4) 0.4755(5)
H3 H 0.0805 0.0816 0.4591
C16 C 0.4620(7) 0.2100(4) 0.8890(4)
C17 C 0.4912(7) 0.2407(4) 0.8329(4)
C18 C 0.5911(7) 0.2782(4) 0.8431(4)
H4 H 0.6086 0.2997 0.8064
C19 C 0.6651(7) 0.2842(4) 0.9065(4)
C20 C 0.6363(7) 0.2533(4) 0.9621(4)
C21 C 0.5351(7) 0.2169(4) 0.9531(4)
H5 H 0.5158 0.1967 0.9903
C22 C 0.3485(8) 0.1732(4) 0.8851(4)
C23 C 0.4221(7) 0.2318(4) 0.7618(4)
C24 C 0.7852(7) 0.3169(4) 0.9115(4)
O6 O 0.0070(5) 0.1807(3) 0.8020(3)
O7 O 0.1437(5) 0.2038(3) 0.6776(3)
O8 O 0.0381(6) 0.1226(3) 0.6512(4)
O13 O 0.2464(5) 0.1987(3) 0.8657(3)
O14 O 0.3588(7) 0.1231(3) 0.9047(4)
O15 O 0.3846(6) 0.1817(3) 0.7453(3)
O16 O 0.4098(6) 0.2730(3) 0.7210(3)
O17 O 0.7922(6) 0.3614(3) 0.8765(4)
O18 O 0.8788(5) 0.2960(3) 0.9502(3)
O31 O 0.1053(13) 0.0835(4) 0.9057(6)
O32 O 0.2702(7) 0.0840(3) 0.6488(4)
O33 O 0.4689(5) 0.1797(3) 0.6185(3)
C26 C 0.1271(8) 0.0036(4) 0.4980(5)
C29 C 0.2606(8) 0.0100(4) 0.4918(5)
O34 O 0.3281(6) 0.0397(3) 0.5357(4)
La12 La 0.35114(5) 0.35631(2) 0.64473(3)
O68 O 0.1733(6) 0.1888(3) 0.9920(3)
O82 O 0.2229(6) 0.1883(3) 0.5552(3)
C27 C 0.0770(9) 0.9543(4) 0.5235(6)
C30 C 0.1591(10) 0.9057(5) 0.5539(7)
O35 O 0.2970(6) 0.9871(3) 0.4419(4)
O36 O 0.2710(6) 0.9110(3) 0.5598(4)
O37 O 0.1049(8) 0.8622(5) 0.5713(10)
La3 La 0.46193(4) 0.85561(2) 0.60177(2)
C31 C 0.2481(7) 0.7497(4) 0.4162(4)
C32 C 0.2794(7) 0.7202(4) 0.3589(4)
C33 C 0.2076(7) 0.7260(4) 0.2960(4)
H7 H 0.2282 0.7059 0.2590
C34 C 0.1041(7) 0.7616(4) 0.2859(4)
C35 C 0.0718(7) 0.7912(4) 0.3416(4)
C36 C 0.1434(7) 0.7844(4) 0.4063(4)
H8 H 0.1208 0.8034 0.4435
C37 C 0.3167(7) 0.7405(4) 0.4871(4)
C38 C 0.3986(8) 0.6883(4) 0.3651(5)
C39 C 0.0358(7) 0.7702(4) 0.2150(4)
O38 O 0.3544(6) 0.7831(3) 0.5220(3)
O39 O 0.3267(6) 0.6888(3) 0.5080(3)
O40 O 0.4934(5) 0.7083(3) 0.4046(3)
O41 O 0.4073(6) 0.6446(3) 0.3293(4)
O42 O 0.0262(6) 0.7284(3) 0.1747(3)
O54 O 0.4797(6) 0.8981(3) 0.4823(3)
O55 O 0.5171(8) 0.9629(3) 0.6128(4)
O56 O 0.4804(8) 0.8933(4) 0.7252(4)
O57 O 0.2781(6) 0.8148(3) 0.6549(4)
O63 O 0.0721(6) 0.8182(3) 0.0687(3)
La10 La 0.64886(5) 0.64369(2) 0.35527(3)
Cu5 Cu 0.40985(9) 0.67962(5) 0.60248(5)
O73 O 0.5262(6) 0.7716(3) 0.6747(3)
O77 O 0.7078(6) 0.8614(3) 0.6235(4)
O79 O 0.6212(5) 0.7960(3) 0.5498(3)
La1 La 0.53807(4) 0.14439(2) 0.39823(2)
C1 C 0.7519(7) 0.2503(4) 0.5838(4)
C2 C 0.7206(7) 0.2798(4) 0.6411(4)
C3 C 0.7924(7) 0.2740(4) 0.7040(4)
H1 H 0.7718 0.2941 0.7410
C4 C 0.8959(7) 0.2384(4) 0.7141(4)
C5 C 0.9282(7) 0.2088(4) 0.6584(4)
C6 C 0.8566(7) 0.2156(4) 0.5937(4)
H2 H 0.8792 0.1966 0.5565
C7 C 0.6833(7) 0.2595(4) 0.5129(4)
C8 C 0.6014(8) 0.3117(4) 0.6349(5)
C9 C 0.9642(7) 0.2298(4) 0.7850(4)
C12 C 0.9230(9) 0.0457(4) 0.4765(6)
C15 C 0.8409(10) 0.0943(5) 0.4461(7)
O1 O 0.6456(6) 0.2169(3) 0.4780(3)
O2 O 0.6733(6) 0.3112(3) 0.4920(3)
O3 O 0.5066(5) 0.2917(3) 0.5954(3)
O4 O 0.5927(6) 0.3554(3) 0.6707(4)
O5 O 0.9738(6) 0.2716(3) 0.8253(3)
O10 O 0.7030(6) 0.0129(3) 0.5581(4)
O11 O 0.7290(6) 0.0890(3) 0.4402(4)
O12 O 0.8951(8) 0.1378(5) 0.4287(10)
O21 O 0.5203(6) 0.1019(3) 0.5177(3)
O22 O 0.4829(8) 0.0371(3) 0.3872(4)
O23 O 0.5196(8) 0.1067(4) 0.2748(4)
O24 O 0.7219(6) 0.1852(3) 0.3451(4)
O30 O 0.9279(6) 0.1818(3) 0.9313(3)
Cu6 Cu 0.59015(9) 0.32038(5) 0.39752(5)
O74 O 0.4738(6) 0.2284(3) 0.3253(3)
O78 O 0.2922(6) 0.1386(3) 0.3765(4)
O80 O 0.3788(5) 0.2040(3) 0.4502(3)
C11 C 0.8729(8) 0.9964(4) 0.5020(5)
C14 C 0.7394(8) 0.9900(4) 0.5082(5)
O9 O 0.6719(6) 0.9603(3) 0.4643(4)
C28 C 0.9516(8) 0.9516(4) 0.5245(5)
H6 H 0.9195 0.9184 0.5409
Cu3 Cu 0.90985(9) 0.82038(5) 0.10248(5)
Cu4 Cu 0.69867(9) 0.82008(5) 0.34996(5)
C40 C 0.9556(7) 0.8254(4) 0.3366(4)
C41 C 0.5380(7) 0.7900(4) 0.1110(4)
C42 C 0.5088(7) 0.7593(4) 0.1671(4)
C43 C 0.4089(7) 0.7218(4) 0.1569(4)
H9 H 0.3914 0.7003 0.1936
C44 C 0.3349(7) 0.7158(4) 0.0935(4)
C45 C 0.3637(7) 0.7467(4) 0.0379(4)
C46 C 0.4649(7) 0.7831(4) 0.0469(4)
H10 H 0.4842 0.8033 0.0097
C47 C 0.6515(8) 0.8268(4) 0.1149(4)
C48 C 0.5779(7) 0.7682(4) 0.2382(4)
C49 C 0.2148(7) 0.6831(4) 0.0885(4)
O43 O 0.9930(5) 0.8193(3) 0.1980(3)
O44 O 0.8563(5) 0.7962(3) 0.3224(3)
O45 O 0.9619(6) 0.8774(3) 0.3488(4)
O46 O 0.7536(5) 0.8013(3) 0.1343(3)
O47 O 0.6412(7) 0.8769(3) 0.0953(4)
O48 O 0.6154(6) 0.8183(3) 0.2547(3)
O49 O 0.5902(6) 0.7270(3) 0.2790(3)
O50 O 0.2078(6) 0.6386(3) 0.1235(4)
O51 O 0.1212(5) 0.7040(3) 0.0498(3)
O64 O 0.8947(13) 0.9165(4) 0.0943(6)
O65 O 0.7298(7) 0.9160(3) 0.3512(4)
O66 O 0.5311(5) 0.8203(3) 0.3815(3)
La6 La 0.96193(4) 0.64439(2) 0.10177(2)
O67 O 0.8267(6) 0.8112(3) 0.0080(3)
O81 O 0.7771(6) 0.8117(3) 0.4448(3)
La4 La 0.14886(5) 0.85631(2) 0.85527(3)
C50 C 0.2928(7) 0.7393(4) 0.9665(4)
O52 O 0.2609(6) 0.7836(3) 0.9316(3)
O53 O 0.2771(6) 0.6883(3) 0.9448(3)
O58 O 0.3419(8) 0.8229(4) 0.8058(5)
O59 O 0.1227(15) 0.8933(5) 0.7329(5)
O60 O 0.0828(15) 0.9626(4) 0.8420(6)
O61 O 0.3330(10) 0.9183(6) 0.9030(7)
O62 O 0.1098(11) 0.8965(4) 0.9680(4)
Cu7 Cu 0.19867(9) 0.67992(5) 0.84996(5)
O75 O 0.0902(6) 0.7730(3) 0.7790(3)
O69 O 0.9934(5) 0.7917(3) 0.9046(3)
O71 O 0.9073(6) 0.8554(3) 0.8293(4)
O22_2 O 0.0171(8) 0.5371(3) 0.1128(4)
C43_2 C 0.0911(7) 0.2218(4) 0.3431(4)
H9_2 H 0.1086 0.2003 0.3064
C44_2 C 0.1651(7) 0.2158(4) 0.4065(4)
C45_2 C 0.1363(7) 0.2467(4) 0.4621(4)
C46_2 C 0.0351(7) 0.2831(4) 0.4531(4)
H10_2 H 0.0158 0.3033 0.4903
C49_2 C 0.2852(7) 0.1831(4) 0.4115(4)
C50_2 C 0.2072(7) 0.2393(4) 0.5335(4)
O52_2 O 0.2391(6) 0.2836(3) 0.5684(3)
O58_2 O 0.1581(8) 0.3229(4) 0.6942(5)
O59_2 O 0.3773(15) 0.3933(5) 0.7671(5)
O60_2 O 0.4172(15) 0.4626(4) 0.6580(6)
O61_2 O 0.1670(10) 0.4183(6) 0.5970(7)
O62_2 O 0.3902(11) 0.3965(4) 0.5320(4)
H12 H 0.0408355 0.574601 0.232404
H13 H 0.0248079 0.62941 0.957288
H14 H 0.0252207 0.564833 0.988364
C12_2 C 0.5770(9) 0.5457(4) 0.0235(6)
C13_2 C 0.4516(8) 0.5484(4) 0.0245(5)
H3_2 H 0.4195 0.5816 0.0409
C15_2 C 0.6591(10) 0.5943(5) 0.0539(7)
O1_2 O 0.8544(6) 0.7169(3) 0.0220(3)
O9_2 O 0.8281(6) 0.4603(3) 0.0357(4)
O11_2 O 0.7710(6) 0.5890(3) 0.0598(4)
O12_2 O 0.6049(8) 0.6378(5) 0.0713(10)
O23_2 O 0.9804(8) 0.6067(4) 0.2252(4)
O24_2 O 0.7781(6) 0.6852(3) 0.1549(4)
C26_2 C 0.3729(8) 0.5036(4) 0.0020(5)
C29_2 C 0.2394(8) 0.5100(4) 0.0082(5)
O35_2 O 0.2030(6) 0.4871(3) 0.0581(4)
C31_2 C 0.2519(7) 0.2497(4) 0.0838(4)
C32_2 C 0.2206(7) 0.2202(4) 0.1411(4)
C33_2 C 0.2924(7) 0.2260(4) 0.2040(4)
H7_2 H 0.2718 0.2059 0.2410
C34_2 C 0.3959(7) 0.2616(4) 0.2141(4)
C35_2 C 0.4282(7) 0.2912(4) 0.1584(4)
C36_2 C 0.3566(7) 0.2844(4) 0.0937(4)
H8_2 H 0.3792 0.3034 0.0565
C37_2 C 0.1833(7) 0.2405(4) 0.0129(4)
C38_2 C 0.1014(8) 0.1883(4) 0.1349(5)
C39_2 C 0.4642(7) 0.2702(4) 0.2850(4)
C40_2 C 0.5444(7) 0.3254(4) 0.1634(4)
C41_2 C 0.9620(7) 0.2900(4) 0.3890(4)
C42_2 C 0.9912(7) 0.2593(4) 0.3329(4)
C47_2 C 0.8485(8) 0.3268(4) 0.3851(4)
C48_2 C 0.9221(7) 0.2682(4) 0.2618(4)
O43_2 O 0.5070(5) 0.3193(3) 0.3020(3)
O44_2 O 0.6437(5) 0.2962(3) 0.1776(3)
O45_2 O 0.5381(6) 0.3774(3) 0.1512(4)
O46_2 O 0.7464(5) 0.3013(3) 0.3657(3)
O47_2 O 0.8588(7) 0.3769(3) 0.4047(4)
O48_2 O 0.8846(6) 0.3183(3) 0.2453(3)
O54_2 O 0.0203(6) 0.3981(3) 0.0177(3)
O63_2 O 0.4279(6) 0.3182(3) 0.4313(3)
O64_2 O 0.6053(13) 0.4165(4) 0.4057(6)
O65_2 O 0.7702(7) 0.4160(3) 0.1488(4)
O66_2 O 0.9689(5) 0.3203(3) 0.1185(3)
H11 H 0.898694 0.592672 0.232945
H39 H 0.0249951 0.440752 0.0159433
H47 H 0.960354 0.302581 0.0723913
H48 H 0.998486 0.360549 0.116514
C1_2 C 0.7481(7) 0.7503(4) 0.9162(4)
C2_2 C 0.7794(7) 0.7798(4) 0.8589(4)
C3_2 C 0.7076(7) 0.7740(4) 0.7960(4)
H1_2 H 0.7282 0.7941 0.7590
C4_2 C 0.6041(7) 0.7384(4) 0.7859(4)
C5_2 C 0.5718(7) 0.7088(4) 0.8416(4)
C6_2 C 0.6434(7) 0.7156(4) 0.9063(4)
H2_2 H 0.6208 0.6966 0.9435
C7_2 C 0.8167(7) 0.7595(4) 0.9871(4)
C8_2 C 0.8986(8) 0.8117(4) 0.8651(5)
C9_2 C 0.5358(7) 0.7298(4) 0.7150(4)
C10_2 C 0.4556(7) 0.6746(4) 0.8366(4)
C11_2 C 0.6271(8) 0.4964(4) 0.9980(5)
C14_2 C 0.7606(8) 0.4900(4) 0.9918(5)
C16_2 C 0.0380(7) 0.7100(4) 0.6110(4)
C17_2 C 0.0088(7) 0.7407(4) 0.6671(4)
C22_2 C 0.1515(8) 0.6732(4) 0.6149(4)
C23_2 C 0.0779(7) 0.7318(4) 0.7382(4)
O6_2 O 0.4930(5) 0.6807(3) 0.6980(3)
O7_2 O 0.3563(5) 0.7038(3) 0.8224(3)
O8_2 O 0.4619(6) 0.6226(3) 0.8488(4)
O10_2 O 0.7970(6) 0.5129(3) 0.9419(4)
O13_2 O 0.2536(5) 0.6987(3) 0.6343(3)
O14_2 O 0.1412(7) 0.6231(3) 0.5953(4)
O15_2 O 0.1154(6) 0.6817(3) 0.7547(3)
O21_2 O 0.9797(6) 0.6019(3) 0.9823(3)
O30_2 O 0.5721(6) 0.6818(3) 0.5687(3)
O31_2 O 0.3947(13) 0.5835(4) 0.5943(6)
O32_2 O 0.2298(7) 0.5840(3) 0.8512(4)
O33_2 O 0.0311(5) 0.6797(3) 0.8815(3)
C27_2 C 0.4230(9) 0.4543(4) 0.9765(6)
C28_2 C 0.5484(8) 0.4516(4) 0.9755(5)
H6_2 H 0.5805 0.4184 0.9591
C30_2 C 0.3409(10) 0.4057(5) 0.9461(7)
O34_2 O 0.1719(6) 0.5397(3) 0.9643(4)
O36_2 O 0.2290(6) 0.4110(3) 0.9402(4)
O37_2 O 0.3951(8) 0.3622(5) 0.9287(10)
O38_2 O 0.1456(6) 0.2831(3) 0.9780(3)
O56_2 O 0.0196(8) 0.3933(4) 0.7748(4)
O57_2 O 0.2219(6) 0.3148(3) 0.8451(4)
H30 H 0.0015139 0.639451 0.883486
H41 H 0.0329771 0.481783 0.856391
H51 H 0.0943303 0.382242 0.756061
H40 H 0.940233 0.386498 0.0302044
C18_2 C 0.9089(7) 0.7782(4) 0.6569(4)
H4_2 H 0.8914 0.7997 0.6936
C19_2 C 0.8349(7) 0.7842(4) 0.5935(4)
C20_2 C 0.8637(7) 0.7533(4) 0.5379(4)
C21_2 C 0.9649(7) 0.7169(4) 0.5469(4)
H5_2 H 0.9842 0.6967 0.5097
C24_2 C 0.7148(7) 0.8169(4) 0.5885(4)
C25_2 C 0.7928(7) 0.7607(4) 0.4665(4)
O19_2 O 0.7609(6) 0.7164(3) 0.4316(3)
O25_2 O 0.8419(8) 0.6771(4) 0.3058(5)
O26_2 O 0.6227(15) 0.6067(5) 0.2329(5)
O27_2 O 0.5828(15) 0.5374(4) 0.3420(6)
O28_2 O 0.8330(10) 0.5817(6) 0.4030(7)
O29_2 O 0.6098(11) 0.6035(4) 0.4680(4)
O55_2 O 0.9829(8) 0.4629(3) 0.8872(4)
H29 H 0.970855 0.702124 0.848704
H52 H 0.945509 0.376291 0.746075
H29_2 H 0.0291449 0.297876 0.151296
H52_2 H 0.0544912 0.623709 0.253925
H40_2 H 0.0597675 0.613502 0.969796
H41_2 H 0.967023 0.518217 0.143609
H51_2 H 0.90567 0.617758 0.243939
H11_2 H 0.101306 0.407328 0.767055
H39_2 H 0.975005 0.559248 0.984057
H47_2 H 0.0396465 0.697419 0.927609
H13_2 H 0.975192 0.37059 0.0427119
H14_2 H 0.974779 0.435167 0.0116359
H12_2 H 0.959165 0.425399 0.767596
loop_
_geom_bond_atom_site_label_1
_geom_bond_atom_site_label_2
_geom_bond_site_symmetry_1
_geom_bond_site_symmetry_2
La2 O19 1_555 1_555
O19 C25 1_555 1_555
O20 C25 1_555 1_555
O25 La2 1_555 1_555
O26 La2 1_555 1_555
O27 La2 1_555 1_555
O28 La2 1_555 1_555
O29 La2 1_555 1_555
Cu8 O20 1_555 1_555
O76 La2 1_555 1_555
Cu8 O76 1_555 1_555
Cu2 O7 1_555 1_555
C13 H3 1_555 1_555
C16 C17 1_555 1_555
C17 C18 1_555 1_555
C18 H4 1_555 1_555
C19 C18 1_555 1_555
C20 C19 1_555 1_555
C21 C16 1_555 1_555
H5 C21 1_555 1_555
C22 C16 1_555 1_555
C23 C17 1_555 1_555
C24 C19 1_555 1_555
O6 Cu1 1_555 1_555
O7 C10 1_555 1_555
O8 C10 1_555 1_555
O13 Cu1 1_555 1_555
O14 C22 1_555 1_555
O15 Cu2 1_555 1_555
O16 Cu2 1_555 1_555
O17 C24 1_555 1_555
O18 C24 1_555 1_555
O31 Cu1 1_555 1_555
O32 Cu2 1_555 1_555
O33 Cu2 1_555 1_555
C26 C13 1_555 1_555
C29 C26 1_555 1_555
O34 C29 1_555 1_555
La12 O16 1_555 1_555
O68 Cu1 1_555 1_555
O82 Cu2 1_555 1_555
C20 C21 1_555 1_555
C22 O13 1_555 1_555
C23 O15 1_555 1_555
C23 O16 1_555 1_555
C30 C27 1_555 1_555
O36 C30 1_555 1_555
O37 C30 1_555 1_555
La3 O36 1_555 1_555
C31 C32 1_555 1_555
C32 C33 1_555 1_555
C33 H7 1_555 1_555
C34 C33 1_555 1_555
C35 C34 1_555 1_555
C36 C31 1_555 1_555
H8 C36 1_555 1_555
C37 C31 1_555 1_555
C38 C32 1_555 1_555
C39 C34 1_555 1_555
O38 La3 1_555 1_555
O39 C37 1_555 1_555
O40 C38 1_555 1_555
O41 C38 1_555 1_555
O42 C39 1_555 1_555
O54 La3 1_555 1_555
O55 La3 1_555 1_555
O56 La3 1_555 1_555
O57 La3 1_555 1_555
La10 O40 1_555 1_555
Cu5 O39 1_555 1_555
O73 La3 1_555 1_555
O77 La3 1_555 1_555
O79 La3 1_555 1_555
C35 C36 1_555 1_555
C37 O38 1_555 1_555
O41 La10 1_555 1_555
Cu5 O73 1_555 1_555
La1 O1 1_555 1_555
C1 C2 1_555 1_555
C2 C3 1_555 1_555
C3 H1 1_555 1_555
C4 C3 1_555 1_555
C5 C4 1_555 1_555
C6 C1 1_555 1_555
H2 C6 1_555 1_555
C7 C1 1_555 1_555
C8 C2 1_555 1_555
C9 C4 1_555 1_555
C15 C12 1_555 1_555
O1 C7 1_555 1_555
O2 C7 1_555 1_555
O3 C8 1_555 1_555
O4 C8 1_555 1_555
O5 C9 1_555 1_555
O11 La1 1_555 1_555
O12 C15 1_555 1_555
O21 La1 1_555 1_555
O22 La1 1_555 1_555
O23 La1 1_555 1_555
O24 La1 1_555 1_555
La12 O3 1_555 1_555
Cu6 O2 1_555 1_555
O74 La1 1_555 1_555
O78 La1 1_555 1_555
O80 La1 1_555 1_555
C5 C6 1_555 1_555
C15 O11 1_555 1_555
O4 La12 1_555 1_555
Cu6 O74 1_555 1_555
C14 C11 1_555 1_555
O9 C14 1_555 1_555
C28 C11 1_555 1_555
H6 C28 1_555 1_555
Cu4 O44 1_555 1_555
C41 C42 1_555 1_555
C42 C43 1_555 1_555
C43 H9 1_555 1_555
C44 C43 1_555 1_555
C45 C44 1_555 1_555
C46 C41 1_555 1_555
H10 C46 1_555 1_555
C47 C41 1_555 1_555
C48 C42 1_555 1_555
C49 C44 1_555 1_555
O43 Cu3 1_555 1_555
O44 C40 1_555 1_555
O45 C40 1_555 1_555
O46 Cu3 1_555 1_555
O47 C47 1_555 1_555
O48 Cu4 1_555 1_555
O49 Cu4 1_555 1_555
O50 C49 1_555 1_555
O51 C49 1_555 1_555
O64 Cu3 1_555 1_555
O65 Cu4 1_555 1_555
O66 Cu4 1_555 1_555
La10 O49 1_555 1_555
O67 Cu3 1_555 1_555
O81 Cu4 1_555 1_555
C45 C46 1_555 1_555
C47 O46 1_555 1_555
C48 O48 1_555 1_555
C48 O49 1_555 1_555
La4 O52 1_555 1_555
O52 C50 1_555 1_555
O53 C50 1_555 1_555
O58 La4 1_555 1_555
O59 La4 1_555 1_555
O60 La4 1_555 1_555
O61 La4 1_555 1_555
O62 La4 1_555 1_555
Cu7 O53 1_555 1_555
O75 La4 1_555 1_555
Cu7 O75 1_555 1_555
La12 O52_2 1_555 1_555
C43_2 H9_2 1_555 1_555
C44_2 C43_2 1_555 1_555
C45_2 C44_2 1_555 1_555
H10_2 C46_2 1_555 1_555
C49_2 C44_2 1_555 1_555
C50_2 C45_2 1_555 1_555
O78 C49_2 1_555 1_555
O80 C49_2 1_555 1_555
O52_2 C50_2 1_555 1_555
O82 C50_2 1_555 1_555
O58_2 La12 1_555 1_555
O59_2 La12 1_555 1_555
O60_2 La12 1_555 1_555
O61_2 La12 1_555 1_555
O62_2 La12 1_555 1_555
C45_2 C46_2 1_555 1_555
La6 O1_2 1_555 1_555
C12_2 C13_2 1_555 1_555
C13_2 H3_2 1_555 1_555
C15_2 C12_2 1_555 1_555
O11_2 La6 1_555 1_555
O12_2 C15_2 1_555 1_555
O23_2 La6 1_555 1_555
O24_2 La6 1_555 1_555
C26_2 C13_2 1_555 1_555
C29_2 C26_2 1_555 1_555
O35_2 C29_2 1_555 1_555
Cu8 O44_2 1_555 1_555
C31_2 C32_2 1_555 1_555
C32_2 C33_2 1_555 1_555
C33_2 H7_2 1_555 1_555
C34_2 C33_2 1_555 1_555
C35_2 C34_2 1_555 1_555
C36_2 C31_2 1_555 1_555
H8_2 C36_2 1_555 1_555
C37_2 C31_2 1_555 1_555
C38_2 C32_2 1_555 1_555
C39_2 C34_2 1_555 1_555
C40_2 C35_2 1_555 1_555
C41_2 C42_2 1_555 1_555
C47_2 C41_2 1_555 1_555
C48_2 C42_2 1_555 1_555
O70 C38_2 1_555 1_555
O72 C38_2 1_555 1_555
O74 C39_2 1_555 1_555
O43_2 Cu6 1_555 1_555
O44_2 C40_2 1_555 1_555
O45_2 C40_2 1_555 1_555
O46_2 Cu6 1_555 1_555
O47_2 C47_2 1_555 1_555
O48_2 Cu8 1_555 1_555
O63_2 Cu6 1_555 1_555
O64_2 Cu6 1_555 1_555
O65_2 Cu8 1_555 1_555
O66_2 Cu8 1_555 1_555
C15_2 O11_2 1_555 1_555
C35_2 C36_2 1_555 1_555
C39_2 O43_2 1_555 1_555
C47_2 O46_2 1_555 1_555
C48_2 O48_2 1_555 1_555
C48_2 O76 1_555 1_555
O23_2 H11 1_555 1_555
O54_2 H39 1_555 1_555
O66_2 H47 1_555 1_555
O66_2 H48 1_555 1_555
Cu7 O7_2 1_555 1_555
C1_2 C2_2 1_555 1_555
C2_2 C3_2 1_555 1_555
C3_2 H1_2 1_555 1_555
C4_2 C3_2 1_555 1_555
C5_2 C4_2 1_555 1_555
C6_2 C1_2 1_555 1_555
H2_2 C6_2 1_555 1_555
C7_2 C1_2 1_555 1_555
C8_2 C2_2 1_555 1_555
C9_2 C4_2 1_555 1_555
C10_2 C5_2 1_555 1_555
C14_2 C11_2 1_555 1_555
C16_2 C17_2 1_555 1_555
C22_2 C16_2 1_555 1_555
C23_2 C17_2 1_555 1_555
O69 C8_2 1_555 1_555
O71 C8_2 1_555 1_555
O73 C9_2 1_555 1_555
O6_2 Cu5 1_555 1_555
O7_2 C10_2 1_555 1_555
O8_2 C10_2 1_555 1_555
O10_2 C14_2 1_555 1_555
O13_2 Cu5 1_555 1_555
O14_2 C22_2 1_555 1_555
O15_2 Cu7 1_555 1_555
O30_2 Cu5 1_555 1_555
O31_2 Cu5 1_555 1_555
O32_2 Cu7 1_555 1_555
O33_2 Cu7 1_555 1_555
C28_2 C11_2 1_555 1_555
H6_2 C28_2 1_555 1_555
C30_2 C27_2 1_555 1_555
O36_2 C30_2 1_555 1_555
O37_2 C30_2 1_555 1_555
La8 O36_2 1_555 1_555
O38_2 La8 1_555 1_555
O56_2 La8 1_555 1_555
O57_2 La8 1_555 1_555
C5_2 C6_2 1_555 1_555
C9_2 O6_2 1_555 1_555
C22_2 O13_2 1_555 1_555
C23_2 O15_2 1_555 1_555
C23_2 O75 1_555 1_555
C27_2 C28_2 1_555 1_555
O33_2 H30 1_555 1_555
O56_2 H51 1_555 1_555
La10 O19_2 1_555 1_555
C18_2 H4_2 1_555 1_555
C19_2 C18_2 1_555 1_555
C20_2 C19_2 1_555 1_555
H5_2 C21_2 1_555 1_555
C24_2 C19_2 1_555 1_555
C25_2 C20_2 1_555 1_555
O77 C24_2 1_555 1_555
O79 C24_2 1_555 1_555
O19_2 C25_2 1_555 1_555
O81 C25_2 1_555 1_555
O25_2 La10 1_555 1_555
O26_2 La10 1_555 1_555
O27_2 La10 1_555 1_555
O28_2 La10 1_555 1_555
O29_2 La10 1_555 1_555
C20_2 C21_2 1_555 1_555
O23_2 H51_2 1_555 1_555
O56_2 H11_2 1_555 1_555
O21_2 H39_2 1_555 1_555
O33_2 H47_2 1_555 1_555

#END
