
###############################################################################
#
# This file contains modified crystal structure data generated from the
# MOF subset of the Cambridge Structural Database (CSD) v543 
# hosted by the Cambridge Crystallographic Data Centre (CCDC).
#
# This work is licensed under the Creative Commons
# Attribution-NonCommercial-ShareAlike 4.0 International License.
# To view a copy of this license, visit
# http://creativecommons.org/licenses/by-nc-sa/4.0/
# or send a letter to
# Creative Commons, PO Box 1866, Mountain View, CA 94042, USA.
#
# CIF created using the CSD Python API on 29 September 2022
# The structure has been converted into the P1 space group
# The structure has a 3D framework
# The original CSD entry VIWLEU is in the monoclinic crystal system
# The framework has been calculated to contain at least 10.0% void space
# The void calculation uses a probe of radius 1.32A, grid spacing 0.4
# The framework is charged, counterions have been retained in the structure
# H atom positions have been added when not included in the experimental data
# Generated hydrogen atom positions removed from atoms on special positions
#
###############################################################################

data_VIWLEU
_chemical_formula_moiety         '(C100 H192 Cu8 O130 Sm8)n'
_symmetry_cell_setting           triclinic
_symmetry_space_group_name_H-M   'P 1'
_symmetry_Int_Tables_number      1
_space_group_name_Hall           'P 1'
loop_
_symmetry_equiv_pos_site_id
_symmetry_equiv_pos_as_xyz
1 x,y,z
_cell_length_a                   10.923(2)
_cell_length_b                   22.771(5)
_cell_length_c                   19.758(4)
_cell_angle_alpha                90
_cell_angle_beta                 99.64(3)
_cell_angle_gamma                90
_cell_volume                     4844.97
loop_
_atom_site_label
_atom_site_type_symbol
_atom_site_fract_x
_atom_site_fract_y
_atom_site_fract_z
O70 O 0.0055(4) 0.2091(2) 0.0987(2)
O72 O 0.0888(5) 0.1431(2) 0.1734(3)
Sm8 Sm 0.04079(3) 0.353125(13) 0.900090(15)
Sm2 Sm 0.85334(3) 0.146442(15) 0.147341(18)
C25 C 0.7110(5) 0.2611(3) 0.0369(3)
O19 O 0.7409(4) 0.2166(2) 0.0731(2)
O20 O 0.7279(4) 0.3135(2) 0.0578(2)
O25 O 0.6670(6) 0.1767(3) 0.1977(4)
O26 O 0.8832(11) 0.1049(5) 0.2637(5)
O27 O 0.9249(13) 0.0407(5) 0.1605(6)
O28 O 0.6782(8) 0.0827(4) 0.1036(5)
O29 O 0.8929(7) 0.1043(3) 0.0402(3)
Cu8 Cu 0.80485(6) 0.32279(3) 0.15338(3)
O76 O 0.9124(5) 0.2266(2) 0.2239(2)
Cu1 Cu 0.09079(6) 0.17604(4) 0.89974(4)
Cu2 Cu 0.30485(6) 0.17721(3) 0.65338(3)
C10 C 0.0460(5) 0.1731(3) 0.6652(3)
C13 C 0.0492(6) 0.0488(3) 0.4728(4)
H3 H 0.0818 0.0817 0.4544
C16 C 0.4655(5) 0.2090(3) 0.8923(3)
C17 C 0.4934(5) 0.2409(3) 0.8364(3)
C18 C 0.5943(5) 0.2789(3) 0.8458(3)
H4 H 0.6116 0.3008 0.8088
C19 C 0.6708(5) 0.2850(3) 0.9100(3)
C20 C 0.6412(5) 0.2534(3) 0.9661(3)
C21 C 0.5390(5) 0.2156(3) 0.9567(3)
H5 H 0.5199 0.1945 0.9938
C22 C 0.3523(5) 0.1703(3) 0.8889(3)
C23 C 0.4249(5) 0.2309(3) 0.7651(3)
C24 C 0.7916(5) 0.3177(3) 0.9149(3)
O6 O 0.0067(4) 0.1784(2) 0.8037(2)
O7 O 0.1451(4) 0.2017(2) 0.6803(2)
O8 O 0.0385(5) 0.1195(2) 0.6519(3)
O13 O 0.2496(4) 0.1947(2) 0.8683(2)
O14 O 0.3653(5) 0.1191(3) 0.9089(3)
O15 O 0.3879(4) 0.1797(2) 0.7495(2)
O16 O 0.4124(5) 0.2734(2) 0.7239(2)
O17 O 0.8010(4) 0.3626(2) 0.8796(3)
O18 O 0.8851(4) 0.2955(2) 0.9526(2)
O31 O 0.1134(10) 0.0788(3) 0.9064(5)
O32 O 0.2690(5) 0.0806(2) 0.6529(3)
O33 O 0.4726(4) 0.1765(2) 0.6226(2)
C26 C 0.1268(5) 0.0042(3) 0.4986(3)
C29 C 0.2627(5) 0.0101(3) 0.4926(4)
O34 O 0.3315(4) 0.0395(2) 0.5380(3)
Sm12 Sm 0.35334(3) 0.353558(15) 0.647341(18)
O68 O 0.1725(4) 0.1872(2) 0.9950(2)
O82 O 0.2279(4) 0.1865(2) 0.5578(2)
C27 C 0.0787(6) 0.9542(3) 0.5266(4)
C30 C 0.1584(6) 0.9054(4) 0.5571(5)
O35 O 0.2986(4) 0.9878(3) 0.4405(3)
O36 O 0.2754(4) 0.9097(2) 0.5617(3)
O37 O 0.1075(6) 0.8623(4) 0.5791(8)
Sm3 Sm 0.45921(3) 0.853125(13) 0.599910(15)
C31 C 0.2473(5) 0.7494(3) 0.4139(3)
C32 C 0.2799(5) 0.7195(3) 0.3580(3)
C33 C 0.2073(5) 0.7250(3) 0.2934(3)
H7 H 0.2277 0.7038 0.2566
C34 C 0.1038(5) 0.7620(3) 0.2836(3)
C35 C 0.0712(5) 0.7922(3) 0.3400(3)
C36 C 0.1429(5) 0.7851(3) 0.4047(3)
H8 H 0.1205 0.8045 0.4422
C37 C 0.3158(5) 0.7397(3) 0.4860(3)
C38 C 0.4006(5) 0.6873(3) 0.3626(3)
C39 C 0.0362(5) 0.7706(3) 0.2125(3)
O38 O 0.3509(4) 0.7832(2) 0.5223(2)
O39 O 0.3275(4) 0.6872(2) 0.5050(2)
O40 O 0.4945(4) 0.7091(2) 0.4013(2)
O41 O 0.4112(5) 0.6431(2) 0.3266(3)
O42 O 0.0290(4) 0.7285(2) 0.1712(2)
O54 O 0.4747(4) 0.8956(2) 0.4827(2)
O55 O 0.5122(4) 0.9591(2) 0.6107(3)
O56 O 0.4805(6) 0.8904(3) 0.7190(3)
O57 O 0.2847(4) 0.8118(2) 0.6547(3)
O63 O 0.0722(4) 0.8214(3) 0.0666(3)
Cu5 Cu 0.40921(6) 0.67604(4) 0.60026(4)
Sm10 Sm 0.64666(3) 0.646442(15) 0.352659(18)
O73 O 0.5290(4) 0.7715(2) 0.6712(2)
O77 O 0.6990(4) 0.8626(2) 0.6204(3)
O79 O 0.6149(4) 0.7955(2) 0.5474(2)
Sm1 Sm 0.54079(3) 0.146875(13) 0.400090(15)
C1 C 0.7527(5) 0.2506(3) 0.5861(3)
C2 C 0.7201(5) 0.2805(3) 0.6420(3)
C3 C 0.7927(5) 0.2750(3) 0.7066(3)
H1 H 0.7723 0.2962 0.7434
C4 C 0.8962(5) 0.2380(3) 0.7164(3)
C5 C 0.9288(5) 0.2078(3) 0.6600(3)
C6 C 0.8571(5) 0.2149(3) 0.5953(3)
H2 H 0.8795 0.1955 0.5578
C7 C 0.6842(5) 0.2603(3) 0.5140(3)
C8 C 0.5994(5) 0.3127(3) 0.6374(3)
C9 C 0.9638(5) 0.2294(3) 0.7875(3)
C12 C 0.9213(6) 0.0458(3) 0.4734(4)
C15 C 0.8416(6) 0.0946(4) 0.4429(5)
O1 O 0.6491(4) 0.2168(2) 0.4777(2)
O2 O 0.6725(4) 0.3128(2) 0.4950(2)
O3 O 0.5055(4) 0.2909(2) 0.5987(2)
O4 O 0.5888(5) 0.3569(2) 0.6734(3)
O5 O 0.9710(4) 0.2715(2) 0.8288(2)
O10 O 0.7014(4) 0.0122(3) 0.5595(3)
O11 O 0.7246(4) 0.0903(2) 0.4383(3)
O12 O 0.8925(6) 0.1377(4) 0.4209(8)
O21 O 0.5253(4) 0.1044(2) 0.5173(2)
O22 O 0.4878(4) 0.0409(2) 0.3893(3)
O23 O 0.5195(6) 0.1096(3) 0.2810(3)
O24 O 0.7153(4) 0.1882(2) 0.3453(3)
O30 O 0.9278(4) 0.1786(3) 0.9334(3)
Cu6 Cu 0.59079(6) 0.32396(4) 0.39974(4)
O74 O 0.4710(4) 0.2285(2) 0.3288(2)
O78 O 0.3010(4) 0.1374(2) 0.3796(3)
O80 O 0.3851(4) 0.2045(2) 0.4526(2)
C11 C 0.8732(5) 0.9958(3) 0.5014(3)
C14 C 0.7373(5) 0.9899(3) 0.5074(4)
O9 O 0.6685(4) 0.9605(2) 0.4620(3)
C28 C 0.9508(6) 0.9512(3) 0.5272(4)
H6 H 0.9182 0.9183 0.5456
Cu3 Cu 0.90921(6) 0.82396(4) 0.10026(4)
Cu4 Cu 0.69515(6) 0.82279(3) 0.34662(3)
C40 C 0.9540(5) 0.8269(3) 0.3348(3)
C41 C 0.5345(5) 0.7910(3) 0.1077(3)
C42 C 0.5066(5) 0.7591(3) 0.1636(3)
C43 C 0.4057(5) 0.7211(3) 0.1542(3)
H9 H 0.3884 0.6992 0.1912
C44 C 0.3292(5) 0.7150(3) 0.0900(3)
C45 C 0.3588(5) 0.7466(3) 0.0339(3)
C46 C 0.4610(5) 0.7844(3) 0.0433(3)
H10 H 0.4801 0.8055 0.0062
C47 C 0.6477(5) 0.8297(3) 0.1111(3)
C48 C 0.5751(5) 0.7691(3) 0.2349(3)
C49 C 0.2084(5) 0.6823(3) 0.0851(3)
O43 O 0.9933(4) 0.8216(2) 0.1963(2)
O44 O 0.8549(4) 0.7983(2) 0.3197(2)
O45 O 0.9615(5) 0.8805(2) 0.3481(3)
O46 O 0.7504(4) 0.8053(2) 0.1317(2)
O47 O 0.6347(5) 0.8809(3) 0.0911(3)
O48 O 0.6121(4) 0.8203(2) 0.2505(2)
O49 O 0.5876(5) 0.7266(2) 0.2761(2)
O50 O 0.1990(4) 0.6374(2) 0.1204(3)
O51 O 0.1149(4) 0.7045(2) 0.0474(2)
O64 O 0.8866(10) 0.9212(3) 0.0936(5)
O65 O 0.7310(5) 0.9194(2) 0.3471(3)
O66 O 0.5274(4) 0.8235(2) 0.3774(2)
Sm6 Sm 0.95921(3) 0.646875(13) 0.099910(15)
O67 O 0.8275(4) 0.8128(2) 0.0050(2)
O81 O 0.7721(4) 0.8135(2) 0.4422(2)
Sm4 Sm 0.14666(3) 0.853558(15) 0.852659(18)
C50 C 0.2890(5) 0.7389(3) 0.9631(3)
O52 O 0.2591(4) 0.7834(2) 0.9269(2)
O53 O 0.2721(4) 0.6865(2) 0.9422(2)
O58 O 0.3330(6) 0.8233(3) 0.8023(4)
O59 O 0.1168(11) 0.8951(5) 0.7363(5)
O60 O 0.0751(13) 0.9593(5) 0.8395(6)
O61 O 0.3218(8) 0.9173(4) 0.8964(5)
O62 O 0.1071(7) 0.8957(3) 0.9598(3)
Cu7 Cu 0.19515(6) 0.67721(3) 0.84662(3)
O75 O 0.0876(5) 0.7734(2) 0.7761(2)
O69 O 0.9945(4) 0.7909(2) 0.9013(2)
O71 O 0.9112(5) 0.8569(2) 0.8266(3)
O22_2 O 0.0122(4) 0.5409(2) 0.1107(3)
C43_2 C 0.0943(5) 0.2211(3) 0.3458(3)
H9_2 H 0.1116 0.1992 0.3088
C44_2 C 0.1708(5) 0.2150(3) 0.4100(3)
C45_2 C 0.1412(5) 0.2466(3) 0.4661(3)
C46_2 C 0.0390(5) 0.2844(3) 0.4567(3)
H10_2 H 0.0199 0.3055 0.4938
C49_2 C 0.2916(5) 0.1823(3) 0.4149(3)
C50_2 C 0.2110(5) 0.2389(3) 0.5369(3)
O52_2 O 0.2409(4) 0.2834(2) 0.5731(2)
O58_2 O 0.1670(6) 0.3233(3) 0.6977(4)
O59_2 O 0.3832(11) 0.3951(5) 0.7637(5)
O60_2 O 0.4249(13) 0.4593(5) 0.6605(6)
O61_2 O 0.1782(8) 0.4173(4) 0.6036(5)
O62_2 O 0.3929(7) 0.3957(3) 0.5402(3)
H36 H 0.0433208 0.57769 0.225855
H60 H 0.00244644 0.364605 0.12124
H21 H 0.0183651 0.632702 0.956816
H22 H 0.0217974 0.566931 0.988542
C12_2 C 0.5787(6) 0.5458(3) 0.0266(4)
C13_2 C 0.4508(6) 0.5488(3) 0.0272(4)
H3_2 H 0.4182 0.5817 0.0456
C15_2 C 0.6584(6) 0.5946(4) 0.0571(5)
O1_2 O 0.8509(4) 0.7168(2) 0.0223(2)
O9_2 O 0.8315(4) 0.4605(2) 0.0380(3)
O11_2 O 0.7754(4) 0.5903(2) 0.0617(3)
O12_2 O 0.6075(6) 0.6377(4) 0.0791(8)
O23_2 O 0.9805(6) 0.6096(3) 0.2190(3)
O24_2 O 0.7847(4) 0.6882(2) 0.1547(3)
C26_2 C 0.3732(5) 0.5042(3) 0.0014(3)
C29_2 C 0.2373(5) 0.5101(3) 0.0074(4)
O35_2 O 0.2014(4) 0.4878(3) 0.0595(3)
C31_2 C 0.2527(5) 0.2494(3) 0.0861(3)
C32_2 C 0.2201(5) 0.2195(3) 0.1420(3)
C33_2 C 0.2927(5) 0.2250(3) 0.2066(3)
H7_2 H 0.2723 0.2038 0.2434
C34_2 C 0.3962(5) 0.2620(3) 0.2164(3)
C35_2 C 0.4288(5) 0.2922(3) 0.1600(3)
C36_2 C 0.3571(5) 0.2851(3) 0.0953(3)
H8_2 H 0.3795 0.3045 0.0578
C37_2 C 0.1842(5) 0.2397(3) 0.0140(3)
C38_2 C 0.0994(5) 0.1873(3) 0.1374(3)
C39_2 C 0.4638(5) 0.2706(3) 0.2875(3)
C40_2 C 0.5460(5) 0.3269(3) 0.1652(3)
C41_2 C 0.9655(5) 0.2910(3) 0.3923(3)
C42_2 C 0.9934(5) 0.2591(3) 0.3364(3)
C47_2 C 0.8523(5) 0.3297(3) 0.3889(3)
C48_2 C 0.9249(5) 0.2691(3) 0.2651(3)
O43_2 O 0.5067(4) 0.3216(2) 0.3037(2)
O44_2 O 0.6451(4) 0.2983(2) 0.1803(2)
O45_2 O 0.5385(5) 0.3805(2) 0.1519(3)
O46_2 O 0.7496(4) 0.3053(2) 0.3683(2)
O47_2 O 0.8653(5) 0.3809(3) 0.4089(3)
O48_2 O 0.8879(4) 0.3203(2) 0.2495(2)
O54_2 O 0.0253(4) 0.3956(2) 0.0173(2)
O63_2 O 0.4278(4) 0.3214(3) 0.4334(3)
O64_2 O 0.6134(10) 0.4212(3) 0.4064(5)
O65_2 O 0.7690(5) 0.4194(2) 0.1529(3)
O66_2 O 0.9726(4) 0.3235(2) 0.1226(2)
H35 H 0.899301 0.5941 0.227236
H37 H 0.027978 0.439138 0.0151104
H59 H 0.964847 0.305881 0.0761036
C1_2 C 0.7473(5) 0.7506(3) 0.9139(3)
C2_2 C 0.7799(5) 0.7805(3) 0.8580(3)
C3_2 C 0.7073(5) 0.7750(3) 0.7934(3)
H1_2 H 0.7277 0.7962 0.7566
C4_2 C 0.6038(5) 0.7380(3) 0.7836(3)
C5_2 C 0.5712(5) 0.7078(3) 0.8400(3)
C6_2 C 0.6429(5) 0.7149(3) 0.9047(3)
H2_2 H 0.6205 0.6955 0.9422
C7_2 C 0.8158(5) 0.7603(3) 0.9860(3)
C8_2 C 0.9006(5) 0.8127(3) 0.8626(3)
C9_2 C 0.5362(5) 0.7294(3) 0.7125(3)
C10_2 C 0.4540(5) 0.6731(3) 0.8348(3)
C11_2 C 0.6268(5) 0.4958(3) 0.9986(3)
C14_2 C 0.7627(5) 0.4899(3) 0.9926(4)
C16_2 C 0.0345(5) 0.7090(3) 0.6077(3)
C17_2 C 0.0066(5) 0.7409(3) 0.6636(3)
C22_2 C 0.1477(5) 0.6703(3) 0.6111(3)
C23_2 C 0.0751(5) 0.7309(3) 0.7349(3)
O6_2 O 0.4933(4) 0.6784(2) 0.6963(2)
O7_2 O 0.3549(4) 0.7017(2) 0.8197(2)
O8_2 O 0.4615(5) 0.6195(2) 0.8481(3)
O10_2 O 0.7986(4) 0.5122(3) 0.9405(3)
O13_2 O 0.2504(4) 0.6947(2) 0.6317(2)
O14_2 O 0.1347(5) 0.6191(3) 0.5911(3)
O15_2 O 0.1121(4) 0.6797(2) 0.7505(2)
O21_2 O 0.9747(4) 0.6044(2) 0.9827(2)
O30_2 O 0.5722(4) 0.6786(3) 0.5666(3)
O31_2 O 0.3866(10) 0.5788(3) 0.5936(5)
O32_2 O 0.2310(5) 0.5806(2) 0.8471(3)
O33_2 O 0.0274(4) 0.6765(2) 0.8774(2)
C27_2 C 0.4213(6) 0.4542(3) 0.9734(4)
C28_2 C 0.5492(6) 0.4512(3) 0.9728(4)
H6_2 H 0.5818 0.4183 0.9544
C30_2 C 0.3416(6) 0.4054(4) 0.9429(5)
O34_2 O 0.1685(4) 0.5395(2) 0.9620(3)
O36_2 O 0.2246(4) 0.4097(2) 0.9383(3)
O37_2 O 0.3925(6) 0.3623(4) 0.9209(8)
O38_2 O 0.1491(4) 0.2832(2) 0.9777(2)
O56_2 O 0.0195(6) 0.3904(3) 0.7810(3)
O57_2 O 0.2153(4) 0.3118(2) 0.8453(3)
H45 H 0.0375899 0.478109 0.857722
H57 H 0.0947318 0.3799 0.761542
H38 H 0.945917 0.383021 0.0310158
C18_2 C 0.9057(5) 0.7789(3) 0.6542(3)
H4_2 H 0.8884 0.8008 0.6912
C19_2 C 0.8292(5) 0.7850(3) 0.5900(3)
C20_2 C 0.8588(5) 0.7534(3) 0.5339(3)
C21_2 C 0.9610(5) 0.7156(3) 0.5433(3)
H5_2 H 0.9801 0.6945 0.5062
C24_2 C 0.7084(5) 0.8177(3) 0.5851(3)
C25_2 C 0.7890(5) 0.7611(3) 0.4631(3)
O19_2 O 0.7591(4) 0.7166(2) 0.4269(2)
O25_2 O 0.8330(6) 0.6767(3) 0.3023(4)
O26_2 O 0.6168(11) 0.6049(5) 0.2363(5)
O27_2 O 0.5751(13) 0.5407(5) 0.3395(6)
O28_2 O 0.8218(8) 0.5827(4) 0.3964(5)
O29_2 O 0.6071(7) 0.6043(3) 0.4598(3)
O55_2 O 0.9878(4) 0.4591(2) 0.8893(3)
H13 H 0.967235 0.699638 0.844637
H14 H 0.997554 0.635395 0.87876
H58 H 0.945245 0.372484 0.752641
H13_2 H 0.0327652 0.300362 0.155363
H58_2 H 0.0547555 0.627516 0.247359
H38_2 H 0.0540829 0.616979 0.968984
H45_2 H 0.96241 0.521891 0.142278
H57_2 H 0.905268 0.6201 0.238458
H35_2 H 0.100699 0.4059 0.772764
H37_2 H 0.972022 0.560862 0.98489
H59_2 H 0.0351534 0.694119 0.923896
H21_2 H 0.981635 0.367298 0.0431839
H22_2 H 0.978203 0.433069 0.011458
H36_2 H 0.956679 0.42231 0.774145
loop_
_geom_bond_atom_site_label_1
_geom_bond_atom_site_label_2
_geom_bond_site_symmetry_1
_geom_bond_site_symmetry_2
Sm2 O19 1_555 1_555
O19 C25 1_555 1_555
O20 C25 1_555 1_555
O25 Sm2 1_555 1_555
O26 Sm2 1_555 1_555
O27 Sm2 1_555 1_555
O28 Sm2 1_555 1_555
O29 Sm2 1_555 1_555
Cu8 O20 1_555 1_555
O76 Sm2 1_555 1_555
Cu8 O76 1_555 1_555
Cu2 O7 1_555 1_555
C13 H3 1_555 1_555
C16 C17 1_555 1_555
C17 C18 1_555 1_555
C18 H4 1_555 1_555
C19 C18 1_555 1_555
C20 C19 1_555 1_555
C21 C16 1_555 1_555
H5 C21 1_555 1_555
C22 C16 1_555 1_555
C23 C17 1_555 1_555
C24 C19 1_555 1_555
O6 Cu1 1_555 1_555
O7 C10 1_555 1_555
O8 C10 1_555 1_555
O13 Cu1 1_555 1_555
O14 C22 1_555 1_555
O15 Cu2 1_555 1_555
O16 Cu2 1_555 1_555
O17 C24 1_555 1_555
O18 C24 1_555 1_555
O31 Cu1 1_555 1_555
O32 Cu2 1_555 1_555
O33 Cu2 1_555 1_555
C26 C13 1_555 1_555
C29 C26 1_555 1_555
O34 C29 1_555 1_555
Sm12 O16 1_555 1_555
O68 Cu1 1_555 1_555
O82 Cu2 1_555 1_555
C20 C21 1_555 1_555
C22 O13 1_555 1_555
C23 O15 1_555 1_555
C23 O16 1_555 1_555
C30 C27 1_555 1_555
O36 C30 1_555 1_555
O37 C30 1_555 1_555
Sm3 O36 1_555 1_555
C31 C32 1_555 1_555
C32 C33 1_555 1_555
C33 H7 1_555 1_555
C34 C33 1_555 1_555
C35 C34 1_555 1_555
C36 C31 1_555 1_555
H8 C36 1_555 1_555
C37 C31 1_555 1_555
C38 C32 1_555 1_555
C39 C34 1_555 1_555
O38 Sm3 1_555 1_555
O39 C37 1_555 1_555
O40 C38 1_555 1_555
O41 C38 1_555 1_555
O42 C39 1_555 1_555
O54 Sm3 1_555 1_555
O55 Sm3 1_555 1_555
O56 Sm3 1_555 1_555
O57 Sm3 1_555 1_555
Cu5 O39 1_555 1_555
Sm10 O40 1_555 1_555
O73 Sm3 1_555 1_555
O77 Sm3 1_555 1_555
O79 Sm3 1_555 1_555
C35 C36 1_555 1_555
C37 O38 1_555 1_555
O41 Sm10 1_555 1_555
Cu5 O73 1_555 1_555
Sm1 O1 1_555 1_555
C1 C2 1_555 1_555
C2 C3 1_555 1_555
C3 H1 1_555 1_555
C4 C3 1_555 1_555
C5 C4 1_555 1_555
C6 C1 1_555 1_555
H2 C6 1_555 1_555
C7 C1 1_555 1_555
C8 C2 1_555 1_555
C9 C4 1_555 1_555
C15 C12 1_555 1_555
O1 C7 1_555 1_555
O2 C7 1_555 1_555
O3 C8 1_555 1_555
O4 C8 1_555 1_555
O5 C9 1_555 1_555
O11 Sm1 1_555 1_555
O12 C15 1_555 1_555
O21 Sm1 1_555 1_555
O22 Sm1 1_555 1_555
O23 Sm1 1_555 1_555
O24 Sm1 1_555 1_555
Cu6 O2 1_555 1_555
Sm12 O3 1_555 1_555
O74 Sm1 1_555 1_555
O78 Sm1 1_555 1_555
O80 Sm1 1_555 1_555
C5 C6 1_555 1_555
C15 O11 1_555 1_555
O4 Sm12 1_555 1_555
Cu6 O74 1_555 1_555
C14 C11 1_555 1_555
O9 C14 1_555 1_555
C28 C11 1_555 1_555
H6 C28 1_555 1_555
Cu4 O44 1_555 1_555
C41 C42 1_555 1_555
C42 C43 1_555 1_555
C43 H9 1_555 1_555
C44 C43 1_555 1_555
C45 C44 1_555 1_555
C46 C41 1_555 1_555
H10 C46 1_555 1_555
C47 C41 1_555 1_555
C48 C42 1_555 1_555
C49 C44 1_555 1_555
O43 Cu3 1_555 1_555
O44 C40 1_555 1_555
O45 C40 1_555 1_555
O46 Cu3 1_555 1_555
O47 C47 1_555 1_555
O48 Cu4 1_555 1_555
O49 Cu4 1_555 1_555
O50 C49 1_555 1_555
O51 C49 1_555 1_555
O64 Cu3 1_555 1_555
O65 Cu4 1_555 1_555
O66 Cu4 1_555 1_555
Sm10 O49 1_555 1_555
O67 Cu3 1_555 1_555
O81 Cu4 1_555 1_555
C45 C46 1_555 1_555
C47 O46 1_555 1_555
C48 O48 1_555 1_555
C48 O49 1_555 1_555
Sm4 O52 1_555 1_555
O52 C50 1_555 1_555
O53 C50 1_555 1_555
O58 Sm4 1_555 1_555
O59 Sm4 1_555 1_555
O60 Sm4 1_555 1_555
O61 Sm4 1_555 1_555
O62 Sm4 1_555 1_555
Cu7 O53 1_555 1_555
O75 Sm4 1_555 1_555
Cu7 O75 1_555 1_555
Sm12 O52_2 1_555 1_555
C43_2 H9_2 1_555 1_555
C44_2 C43_2 1_555 1_555
C45_2 C44_2 1_555 1_555
H10_2 C46_2 1_555 1_555
C49_2 C44_2 1_555 1_555
C50_2 C45_2 1_555 1_555
O78 C49_2 1_555 1_555
O80 C49_2 1_555 1_555
O52_2 C50_2 1_555 1_555
O82 C50_2 1_555 1_555
O58_2 Sm12 1_555 1_555
O59_2 Sm12 1_555 1_555
O60_2 Sm12 1_555 1_555
O61_2 Sm12 1_555 1_555
O62_2 Sm12 1_555 1_555
C45_2 C46_2 1_555 1_555
Sm6 O1_2 1_555 1_555
C12_2 C13_2 1_555 1_555
C13_2 H3_2 1_555 1_555
C15_2 C12_2 1_555 1_555
O11_2 Sm6 1_555 1_555
O12_2 C15_2 1_555 1_555
O23_2 Sm6 1_555 1_555
O24_2 Sm6 1_555 1_555
C26_2 C13_2 1_555 1_555
C29_2 C26_2 1_555 1_555
O35_2 C29_2 1_555 1_555
Cu8 O44_2 1_555 1_555
C31_2 C32_2 1_555 1_555
C32_2 C33_2 1_555 1_555
C33_2 H7_2 1_555 1_555
C34_2 C33_2 1_555 1_555
C35_2 C34_2 1_555 1_555
C36_2 C31_2 1_555 1_555
H8_2 C36_2 1_555 1_555
C37_2 C31_2 1_555 1_555
C38_2 C32_2 1_555 1_555
C39_2 C34_2 1_555 1_555
C40_2 C35_2 1_555 1_555
C41_2 C42_2 1_555 1_555
C47_2 C41_2 1_555 1_555
C48_2 C42_2 1_555 1_555
O70 C38_2 1_555 1_555
O72 C38_2 1_555 1_555
O74 C39_2 1_555 1_555
O43_2 Cu6 1_555 1_555
O44_2 C40_2 1_555 1_555
O45_2 C40_2 1_555 1_555
O46_2 Cu6 1_555 1_555
O47_2 C47_2 1_555 1_555
O48_2 Cu8 1_555 1_555
O63_2 Cu6 1_555 1_555
O64_2 Cu6 1_555 1_555
O65_2 Cu8 1_555 1_555
O66_2 Cu8 1_555 1_555
C15_2 O11_2 1_555 1_555
C35_2 C36_2 1_555 1_555
C39_2 O43_2 1_555 1_555
C47_2 O46_2 1_555 1_555
C48_2 O48_2 1_555 1_555
C48_2 O76 1_555 1_555
O23_2 H35 1_555 1_555
O54_2 H37 1_555 1_555
O66_2 H59 1_555 1_555
Cu7 O7_2 1_555 1_555
C1_2 C2_2 1_555 1_555
C2_2 C3_2 1_555 1_555
C3_2 H1_2 1_555 1_555
C4_2 C3_2 1_555 1_555
C5_2 C4_2 1_555 1_555
C6_2 C1_2 1_555 1_555
H2_2 C6_2 1_555 1_555
C7_2 C1_2 1_555 1_555
C8_2 C2_2 1_555 1_555
C9_2 C4_2 1_555 1_555
C10_2 C5_2 1_555 1_555
C14_2 C11_2 1_555 1_555
C16_2 C17_2 1_555 1_555
C22_2 C16_2 1_555 1_555
C23_2 C17_2 1_555 1_555
O69 C8_2 1_555 1_555
O71 C8_2 1_555 1_555
O73 C9_2 1_555 1_555
O6_2 Cu5 1_555 1_555
O7_2 C10_2 1_555 1_555
O8_2 C10_2 1_555 1_555
O10_2 C14_2 1_555 1_555
O13_2 Cu5 1_555 1_555
O14_2 C22_2 1_555 1_555
O15_2 Cu7 1_555 1_555
O30_2 Cu5 1_555 1_555
O31_2 Cu5 1_555 1_555
O32_2 Cu7 1_555 1_555
O33_2 Cu7 1_555 1_555
C28_2 C11_2 1_555 1_555
H6_2 C28_2 1_555 1_555
C30_2 C27_2 1_555 1_555
O36_2 C30_2 1_555 1_555
O37_2 C30_2 1_555 1_555
Sm8 O36_2 1_555 1_555
O38_2 Sm8 1_555 1_555
O56_2 Sm8 1_555 1_555
O57_2 Sm8 1_555 1_555
C5_2 C6_2 1_555 1_555
C9_2 O6_2 1_555 1_555
C22_2 O13_2 1_555 1_555
C23_2 O15_2 1_555 1_555
C23_2 O75 1_555 1_555
C27_2 C28_2 1_555 1_555
O56_2 H57 1_555 1_555
Sm10 O19_2 1_555 1_555
C18_2 H4_2 1_555 1_555
C19_2 C18_2 1_555 1_555
C20_2 C19_2 1_555 1_555
H5_2 C21_2 1_555 1_555
C24_2 C19_2 1_555 1_555
C25_2 C20_2 1_555 1_555
O77 C24_2 1_555 1_555
O79 C24_2 1_555 1_555
O19_2 C25_2 1_555 1_555
O81 C25_2 1_555 1_555
O25_2 Sm10 1_555 1_555
O26_2 Sm10 1_555 1_555
O27_2 Sm10 1_555 1_555
O28_2 Sm10 1_555 1_555
O29_2 Sm10 1_555 1_555
C20_2 C21_2 1_555 1_555
O23_2 H57_2 1_555 1_555
O56_2 H35_2 1_555 1_555
O21_2 H37_2 1_555 1_555
O33_2 H59_2 1_555 1_555

#END
