
###############################################################################
#
# This file contains modified crystal structure data generated from the
# MOF subset of the Cambridge Structural Database (CSD) v543 
# hosted by the Cambridge Crystallographic Data Centre (CCDC).
#
# This work is licensed under the Creative Commons
# Attribution-NonCommercial-ShareAlike 4.0 International License.
# To view a copy of this license, visit
# http://creativecommons.org/licenses/by-nc-sa/4.0/
# or send a letter to
# Creative Commons, PO Box 1866, Mountain View, CA 94042, USA.
#
# CIF created using the CSD Python API on 29 September 2022
# The structure has been converted into the P1 space group
# The structure has a 3D framework
# The original CSD entry VIWMEV is in the monoclinic crystal system
# The framework has been calculated to contain at least 10.0% void space
# The void calculation uses a probe of radius 1.32A, grid spacing 0.4
# The framework is charged, counterions have been retained in the structure
# H atom positions have been added when not included in the experimental data
# Generated hydrogen atom positions removed from atoms on special positions
#
###############################################################################

data_VIWMEV
_chemical_formula_moiety         '(C100 H184 Cu8 O126 Sm8 2+)n'
_symmetry_cell_setting           triclinic
_symmetry_space_group_name_H-M   'P 1'
_symmetry_Int_Tables_number      1
_space_group_name_Hall           'P 1'
loop_
_symmetry_equiv_pos_site_id
_symmetry_equiv_pos_as_xyz
1 x,y,z
_cell_length_a                   10.899(2)
_cell_length_b                   20.334(4)
_cell_length_c                   19.785(4)
_cell_angle_alpha                90
_cell_angle_beta                 99.48(3)
_cell_angle_gamma                90
_cell_volume                     4324.88
loop_
_atom_site_label
_atom_site_type_symbol
_atom_site_fract_x
_atom_site_fract_y
_atom_site_fract_z
O70 O 0.0791(6) 0.1193(3) 0.1065(3)
Sm8 Sm 0.04045(3) 0.370743(18) 0.846133(19)
Sm2 Sm 0.84290(4) 0.127594(19) 0.08190(2)
O19 O 0.7332(5) 0.2085(3) 0.0087(3)
O25 O 0.6674(6) 0.1641(3) 0.1416(3)
O26 O 0.8837(9) 0.0808(4) 0.1992(4)
O27 O 0.8927(9) 0.0074(4) 0.0803(4)
O28 O 0.6526(7) 0.0637(4) 0.0398(5)
Cu8 Cu 0.79906(8) 0.32674(4) 0.09024(4)
O68 O 0.9986(5) 0.1945(3) 0.0327(3)
O74 O 0.9121(5) 0.2176(3) 0.1601(3)
H30 H 0.659762 0.0192462 0.0608586
Cu1 Cu 0.08220(8) 0.17331(5) 0.83157(5)
Cu2 Cu 0.29906(8) 0.17326(4) 0.59024(4)
C10 C 0.0373(7) 0.1715(4) 0.6066(4)
C13 C 0.0493(7) 0.0468(4) 0.4624(4)
H3 H 0.0825 0.0786 0.4368
C16 C 0.4606(6) 0.2082(4) 0.8270(4)
C17 C 0.4903(6) 0.2444(4) 0.7724(4)
C18 C 0.5924(7) 0.2866(4) 0.7833(4)
H4 H 0.6106 0.3125 0.7475
C19 C 0.6675(6) 0.2903(4) 0.8473(4)
C20 C 0.6372(6) 0.2534(4) 0.9016(4)
C21 C 0.5342(6) 0.2123(4) 0.8911(4)
H5 H 0.5144 0.1874 0.9272
C22 C 0.4204(6) 0.2353(4) 0.7005(4)
C23 C 0.7893(7) 0.3272(4) 0.8545(4)
C24 C 0.7064(6) 0.2598(4) 0.9743(4)
O6 O 0.0009(5) 0.1853(3) 0.7374(3)
O7 O 0.1393(5) 0.2040(3) 0.6147(3)
O8 O 0.0271(6) 0.1116(3) 0.6032(4)
O13 O 0.2424(5) 0.1972(3) 0.8042(3)
O14 O 0.3524(6) 0.1085(3) 0.8413(4)
O15 O 0.3789(5) 0.1782(3) 0.6854(3)
O16 O 0.4121(5) 0.2824(3) 0.6601(3)
O17 O 0.7993(5) 0.3802(3) 0.8238(3)
O18 O 0.8825(4) 0.3004(3) 0.8896(3)
O20 O 0.7257(5) 0.3173(3) 0.9946(3)
O29 O 0.8791(8) 0.0854(3) 0.9690(4)
O31 O 0.0811(12) 0.0674(5) 0.8127(5)
O32 O 0.4700(5) 0.1774(3) 0.5625(3)
C25 C 0.3437(7) 0.1662(4) 0.8224(4)
C26 C 0.1273(6) 0.0132(4) 0.5120(4)
C29 C 0.2633(7) 0.0308(4) 0.5238(4)
O33 O 0.3078(5) 0.0640(3) 0.5762(3)
O34 O 0.3233(5) 0.0116(3) 0.4785(3)
Sm12 Sm 0.34290(4) 0.372406(19) 0.58190(2)
O66 O 0.1609(5) 0.1748(3) 0.9276(3)
O80 O 0.2257(5) 0.1827(3) 0.4946(3)
H15 H 0.128687 0.0577671 0.775156
H16 H 0.120126 0.0442614 0.85502
H29 H 0.642369 0.0595217 0.989176
H39 H 0.442697 0.0159505 0.681954
H40 H 0.587227 0.00238408 0.676199
C27 C 0.0771(7) 0.9650(4) 0.5507(4)
C30 C 0.1588(7) 0.9240(4) 0.6035(4)
O35 O 0.2736(4) 0.9244(3) 0.6036(3)
O36 O 0.1073(6) 0.8914(4) 0.6447(4)
Sm3 Sm 0.45955(3) 0.870743(18) 0.653867(19)
C31 C 0.2532(6) 0.7396(4) 0.4788(4)
C32 C 0.2850(7) 0.7037(4) 0.4239(4)
C33 C 0.2111(6) 0.7072(4) 0.3605(4)
H7 H 0.2297 0.6810 0.3250
C34 C 0.1094(6) 0.7490(4) 0.3488(4)
C35 C 0.0774(6) 0.7851(4) 0.4034(4)
C36 C 0.1493(7) 0.7807(4) 0.4675(4)
H8 H 0.1283 0.8052 0.5035
C37 C 0.3232(6) 0.7332(4) 0.5500(4)
C38 C 0.4085(7) 0.6691(4) 0.4294(4)
C39 C 0.0421(6) 0.7579(4) 0.2771(4)
O37 O 0.3567(5) 0.7835(3) 0.5842(3)
O38 O 0.3391(5) 0.6748(3) 0.5724(3)
O39 O 0.5014(5) 0.6945(3) 0.4673(3)
O40 O 0.4209(6) 0.6193(3) 0.3935(3)
O41 O 0.0348(5) 0.7116(3) 0.2362(3)
O53 O 0.4866(5) 0.9097(3) 0.5367(3)
O54 O 0.4997(7) 0.9936(3) 0.6550(4)
O55 O 0.4819(9) 0.9199(4) 0.7704(4)
O56 O 0.2865(5) 0.8287(3) 0.7147(3)
O62 O 0.0851(5) 0.8277(3) 0.1367(3)
Sm10 Sm 0.65710(4) 0.627594(19) 0.41810(2)
Cu5 Cu 0.41780(8) 0.67331(5) 0.66843(5)
O71 O 0.5348(5) 0.7884(3) 0.7362(3)
O75 O 0.7007(5) 0.8802(3) 0.6762(3)
O77 O 0.6175(4) 0.8004(3) 0.6104(3)
H49 H 0.00601294 0.947952 0.20065
Sm1 Sm 0.54045(3) 0.129257(18) 0.346133(19)
C1 C 0.7468(6) 0.2604(4) 0.5212(4)
C2 C 0.7150(7) 0.2963(4) 0.5761(4)
C3 C 0.7889(6) 0.2928(4) 0.6395(4)
H1 H 0.7703 0.3190 0.6750
C4 C 0.8906(6) 0.2510(4) 0.6512(4)
C5 C 0.9226(6) 0.2149(4) 0.5966(4)
C6 C 0.8507(7) 0.2193(4) 0.5325(4)
H2 H 0.8717 0.1948 0.4965
C7 C 0.6768(6) 0.2668(4) 0.4500(4)
C8 C 0.5915(7) 0.3309(4) 0.5706(4)
C9 C 0.9579(6) 0.2421(4) 0.7229(4)
C12 C 0.9229(7) 0.0350(4) 0.4493(4)
C15 C 0.8412(7) 0.0760(4) 0.3965(4)
O1 O 0.6433(5) 0.2165(3) 0.4158(3)
O2 O 0.6609(5) 0.3252(3) 0.4276(3)
O3 O 0.4986(5) 0.3055(3) 0.5327(3)
O4 O 0.5791(6) 0.3807(3) 0.6065(3)
O5 O 0.9652(5) 0.2884(3) 0.7638(3)
O11 O 0.7264(4) 0.0756(3) 0.3964(3)
O12 O 0.8927(6) 0.1086(4) 0.3553(4)
O21 O 0.5134(5) 0.0903(3) 0.4633(3)
O22 O 0.5003(7) 0.0064(3) 0.3450(4)
O23 O 0.5181(9) 0.0801(4) 0.2296(4)
O24 O 0.7135(5) 0.1713(3) 0.2853(3)
O30 O 0.9149(5) 0.1723(3) 0.8633(3)
Cu6 Cu 0.58220(8) 0.32669(5) 0.33157(5)
O72 O 0.4652(5) 0.2116(3) 0.2638(3)
O76 O 0.2993(5) 0.1198(3) 0.3238(3)
O78 O 0.3825(4) 0.1996(3) 0.3896(3)
C11 C 0.8727(6) 0.9868(4) 0.4880(4)
C14 C 0.7367(7) 0.9692(4) 0.4762(4)
O9 O 0.6922(5) 0.9360(3) 0.4238(3)
O10 O 0.6767(5) 0.9884(3) 0.5215(3)
C28 C 0.9507(7) 0.9532(4) 0.5376(4)
H6 H 0.9175 0.9214 0.5632
Cu3 Cu 0.91780(8) 0.82669(5) 0.16843(5)
Cu4 Cu 0.70094(8) 0.82674(4) 0.40976(4)
C40 C 0.9627(7) 0.8285(4) 0.3934(4)
C41 C 0.5394(6) 0.7918(4) 0.1730(4)
C42 C 0.5097(6) 0.7556(4) 0.2276(4)
C43 C 0.4076(7) 0.7134(4) 0.2167(4)
H9 H 0.3894 0.6875 0.2525
C44 C 0.3325(6) 0.7097(4) 0.1527(4)
C45 C 0.3628(6) 0.7466(4) 0.0984(4)
C46 C 0.4658(6) 0.7877(4) 0.1089(4)
H10 H 0.4856 0.8126 0.0728
C47 C 0.5796(6) 0.7647(4) 0.2995(4)
C48 C 0.2107(7) 0.6728(4) 0.1455(4)
C49 C 0.2936(6) 0.7402(4) 0.0257(4)
O42 O 0.9991(5) 0.8147(3) 0.2626(3)
O43 O 0.8607(5) 0.7960(3) 0.3853(3)
O44 O 0.9729(6) 0.8884(3) 0.3968(4)
O45 O 0.7576(5) 0.8028(3) 0.1958(3)
O46 O 0.6476(6) 0.8915(3) 0.1587(4)
O47 O 0.6211(5) 0.8218(3) 0.3146(3)
O48 O 0.5879(5) 0.7176(3) 0.3399(3)
O49 O 0.2007(5) 0.6198(3) 0.1762(3)
O50 O 0.1175(4) 0.6996(3) 0.1104(3)
O52 O 0.2743(5) 0.6827(3) 0.0054(3)
O61 O 0.1209(8) 0.9146(3) 0.0310(4)
O63 O 0.9189(12) 0.9326(5) 0.1873(5)
O64 O 0.5300(5) 0.8226(3) 0.4375(3)
C50 C 0.6563(7) 0.8338(4) 0.1776(4)
Sm6 Sm 0.95955(3) 0.629257(18) 0.153867(19)
O65 O 0.8391(5) 0.8252(3) 0.0724(3)
O79 O 0.7743(5) 0.8173(3) 0.5054(3)
H19 H 0.455822 0.994759 0.383294
H20 H 0.448581 0.993837 0.300778
H50 H 0.879874 0.955739 0.14498
Sm4 Sm 0.15710(4) 0.872406(19) 0.91810(2)
O51 O 0.2668(5) 0.7915(3) 0.9913(3)
O57 O 0.3326(6) 0.8359(3) 0.8584(3)
O58 O 0.1163(9) 0.9192(4) 0.8008(4)
O59 O 0.1073(9) 0.9926(4) 0.9197(4)
O60 O 0.3474(7) 0.9363(4) 0.9602(5)
Cu7 Cu 0.20094(8) 0.67326(4) 0.90976(4)
O67 O 0.0014(5) 0.8055(3) 0.9673(3)
O73 O 0.0879(5) 0.7824(3) 0.8399(3)
H53 H 0.420752 0.913326 0.947541
H54 H 0.340238 0.980754 0.939141
O69 O 0.9209(6) 0.8807(3) 0.8935(3)
C43_2 C 0.0924(7) 0.2134(4) 0.2833(4)
H9_2 H 0.1106 0.1875 0.2475
C44_2 C 0.1675(6) 0.2097(4) 0.3473(4)
C45_2 C 0.1372(6) 0.2466(4) 0.4016(4)
C46_2 C 0.0342(6) 0.2877(4) 0.3911(4)
H10_2 H 0.0144 0.3126 0.4272
C48_2 C 0.2893(7) 0.1728(4) 0.3545(4)
C49_2 C 0.2064(6) 0.2402(4) 0.4743(4)
O51_2 O 0.2332(5) 0.2915(3) 0.5087(3)
O57_2 O 0.1674(6) 0.3359(3) 0.6416(3)
O58_2 O 0.3837(9) 0.4192(4) 0.6992(4)
O59_2 O 0.3927(9) 0.4926(4) 0.5803(4)
O60_2 O 0.1526(7) 0.4363(4) 0.5398(5)
O61_2 O 0.3791(8) 0.4146(3) 0.4690(4)
H19_2 H 0.044178 0.494759 0.116706
H20_2 H 0.0514193 0.493837 0.199222
H21 H 0.0341239 0.62363 0.0149578
H22 H 0.0327018 0.547983 0.040756
H28 H 0.0394859 0.541979 0.273392
H51 H 0.029621 0.348834 0.0951601
H2_2 H 0.6283 0.6948 0.0035
C7_2 C 0.8232(6) 0.7668(4) 0.0500(4)
C11_2 C 0.6273(6) 0.4868(4) 0.0120(4)
C12_2 C 0.5771(7) 0.5350(4) 0.0507(4)
C13_2 C 0.4507(7) 0.5468(4) 0.0376(4)
H3_2 H 0.4175 0.5786 0.0632
C14_2 C 0.7633(7) 0.4692(4) 0.0238(4)
C15_2 C 0.6588(7) 0.5760(4) 0.1035(4)
O1_2 O 0.8567(5) 0.7165(3) 0.0842(3)
O9_2 O 0.8078(5) 0.4360(3) 0.0762(3)
O11_2 O 0.7736(4) 0.5756(3) 0.1036(3)
O12_2 O 0.6073(6) 0.6086(4) 0.1447(4)
O21_2 O 0.9866(5) 0.5903(3) 0.0367(3)
O22_2 O 0.9997(7) 0.5064(3) 0.1550(4)
O23_2 O 0.9819(9) 0.5801(4) 0.2704(4)
O24_2 O 0.7865(5) 0.6713(3) 0.2147(3)
O34_2 O 0.1767(5) 0.5116(3) 0.0215(3)
C31_2 C 0.2468(6) 0.2396(4) 0.0212(4)
C32_2 C 0.2150(7) 0.2037(4) 0.0761(4)
C33_2 C 0.2889(6) 0.2072(4) 0.1395(4)
H7_2 H 0.2703 0.1810 0.1750
C34_2 C 0.3906(6) 0.2490(4) 0.1512(4)
C35_2 C 0.4226(6) 0.2851(4) 0.0966(4)
C36_2 C 0.3507(7) 0.2807(4) 0.0325(4)
C38_2 C 0.0915(7) 0.1691(4) 0.0706(4)
C39_2 C 0.4579(6) 0.2579(4) 0.2229(4)
C40_2 C 0.5373(7) 0.3285(4) 0.1066(4)
C41_2 C 0.9606(6) 0.2918(4) 0.3270(4)
C42_2 C 0.9903(6) 0.2556(4) 0.2724(4)
C47_2 C 0.9204(6) 0.2647(4) 0.2005(4)
O42_2 O 0.5009(5) 0.3147(3) 0.2374(3)
O43_2 O 0.6393(5) 0.2960(3) 0.1147(3)
O44_2 O 0.5271(6) 0.3884(3) 0.1032(4)
O45_2 O 0.7424(5) 0.3028(3) 0.3042(3)
O46_2 O 0.8524(6) 0.3915(3) 0.3413(4)
O47_2 O 0.8789(5) 0.3218(3) 0.1854(3)
O62_2 O 0.4149(5) 0.3277(3) 0.3633(3)
O63_2 O 0.5811(12) 0.4326(5) 0.3127(5)
O64_2 O 0.9700(5) 0.3226(3) 0.0625(3)
C50_2 C 0.8437(7) 0.3338(4) 0.3224(4)
H27 H 0.899272 0.565159 0.279261
H52 H 0.998345 0.276158 0.0631756
C1_2 C 0.7532(6) 0.7604(4) 0.9788(4)
C2_2 C 0.7850(7) 0.7963(4) 0.9239(4)
C3_2 C 0.7111(6) 0.7928(4) 0.8605(4)
H1_2 H 0.7297 0.8190 0.8250
C4_2 C 0.6094(6) 0.7510(4) 0.8488(4)
C5_2 C 0.5774(6) 0.7149(4) 0.9034(4)
C6_2 C 0.6493(7) 0.7193(4) 0.9675(4)
C8_2 C 0.9085(7) 0.8309(4) 0.9294(4)
C9_2 C 0.5421(6) 0.7421(4) 0.7771(4)
C10_2 C 0.4627(7) 0.6715(4) 0.8934(4)
C16_2 C 0.0394(6) 0.7082(4) 0.6730(4)
C17_2 C 0.0097(6) 0.7444(4) 0.7276(4)
C22_2 C 0.0796(6) 0.7353(4) 0.7995(4)
O6_2 O 0.4991(5) 0.6853(3) 0.7626(3)
O7_2 O 0.3607(5) 0.7040(3) 0.8853(3)
O8_2 O 0.4729(6) 0.6116(3) 0.8968(4)
O10_2 O 0.8233(5) 0.4884(3) 0.9785(3)
O13_2 O 0.2576(5) 0.6972(3) 0.6958(3)
O14_2 O 0.1476(6) 0.6085(3) 0.6587(4)
O15_2 O 0.1211(5) 0.6782(3) 0.8146(3)
O30_2 O 0.5851(5) 0.6723(3) 0.6367(3)
O31_2 O 0.4189(12) 0.5674(5) 0.6873(5)
O32_2 O 0.0300(5) 0.6774(3) 0.9375(3)
C25_2 C 0.1563(7) 0.6662(4) 0.6776(4)
C26_2 C 0.3727(6) 0.5132(4) 0.9880(4)
C27_2 C 0.4229(7) 0.4650(4) 0.9493(4)
C28_2 C 0.5493(7) 0.4532(4) 0.9624(4)
H6_2 H 0.5825 0.4214 0.9368
C29_2 C 0.2367(7) 0.5308(4) 0.9762(4)
C30_2 C 0.3412(7) 0.4240(4) 0.8965(4)
O33_2 O 0.1922(5) 0.5640(3) 0.9238(3)
O35_2 O 0.2264(4) 0.4244(3) 0.8964(3)
O36_2 O 0.3927(6) 0.3914(4) 0.8553(4)
H8_2 H 0.3717 0.3052 0.9965
C37_2 C 0.1768(6) 0.2332(4) 0.9500(4)
O37_2 O 0.1433(5) 0.2835(3) 0.9158(3)
O53_2 O 0.0134(5) 0.4097(3) 0.9633(3)
O54_2 O 0.0003(7) 0.4936(3) 0.8450(4)
O55_2 O 0.0181(9) 0.4199(4) 0.7296(4)
O56_2 O 0.2135(5) 0.3287(3) 0.7853(3)
H39_2 H 0.0573026 0.515951 0.818046
H43 H 0.0921208 0.408685 0.708593
H57 H 0.0226774 0.45826 0.965818
C18_2 C 0.9076(7) 0.7866(4) 0.7167(4)
H4_2 H 0.8894 0.8125 0.7525
C19_2 C 0.8325(6) 0.7903(4) 0.6527(4)
C20_2 C 0.8628(6) 0.7534(4) 0.5984(4)
C21_2 C 0.9658(6) 0.7123(4) 0.6089(4)
H5_2 H 0.9856 0.6874 0.5728
C23_2 C 0.7107(7) 0.8272(4) 0.6455(4)
C24_2 C 0.7936(6) 0.7598(4) 0.5257(4)
O19_2 O 0.7668(5) 0.7085(3) 0.4913(3)
O25_2 O 0.8326(6) 0.6641(3) 0.3584(3)
O26_2 O 0.6163(9) 0.5808(4) 0.3008(4)
O27_2 O 0.6073(9) 0.5074(4) 0.4197(4)
O28_2 O 0.8474(7) 0.5637(4) 0.4602(5)
O29_2 O 0.6209(8) 0.5854(3) 0.5310(4)
H33 H 0.972727 0.70255 0.902597
H34 H 0.997464 0.632106 0.940828
H40_2 H 0.912773 0.502384 0.823801
H44 H 0.942146 0.4022 0.700688
H58 H 0.929333 0.397282 0.972093
H53_2 H 0.579248 0.0866738 0.0524588
H19_3 H 0.544178 0.00524111 0.616706
H20_3 H 0.551419 0.00616289 0.699222
H49_2 H 0.993987 0.052048 0.79935
H15_2 H 0.871313 0.942233 0.224844
H29_2 H 0.357631 0.940478 0.0108238
H39_3 H 0.557303 0.984049 0.318046
H40_3 H 0.412773 0.997616 0.323801
H33_2 H 0.0272731 0.29745 0.0974029
H34_2 H 0.00253647 0.367894 0.0591716
H40_4 H 0.0872266 0.497616 0.176199
H44_2 H 0.0578539 0.5978 0.299312
H58_2 H 0.0706675 0.602718 0.0279068
H39_4 H 0.942697 0.484049 0.181954
H43_2 H 0.907879 0.591315 0.291407
H57_2 H 0.977323 0.54174 0.0341819
H27_2 H 0.100728 0.434841 0.720739
H52_2 H 0.00165518 0.723842 0.936824
H19_4 H 0.955822 0.505241 0.883294
H20_4 H 0.948581 0.506163 0.800778
H21_2 H 0.965876 0.37637 0.985042
H22_2 H 0.967298 0.452017 0.959244
H28_2 H 0.960514 0.458021 0.726608
H51_2 H 0.970379 0.651166 0.90484
H17 H 0.939943 0.998215 0.0425035
H18 H 0.943667 0.994702 0.124696
H37 H 0.814232 0.981635 0.0730663
H37_2 H 0.185768 0.0183651 0.926934
H38 H 0.0563332 0.00529804 0.875304
H17_2 H 0.060057 0.00178451 0.957497
loop_
_geom_bond_atom_site_label_1
_geom_bond_atom_site_label_2
_geom_bond_site_symmetry_1
_geom_bond_site_symmetry_2
Sm2 O19 1_555 1_555
O25 Sm2 1_555 1_555
O26 Sm2 1_555 1_555
O27 Sm2 1_555 1_555
O28 Sm2 1_555 1_555
O68 Sm2 1_555 1_555
O74 Sm2 1_555 1_555
Cu8 O74 1_555 1_555
O28 H30 1_555 1_555
Cu1 O6 1_555 1_555
Cu2 O7 1_555 1_555
C13 H3 1_555 1_555
C16 C17 1_555 1_555
C17 C18 1_555 1_555
C18 H4 1_555 1_555
C19 C18 1_555 1_555
C20 C19 1_555 1_555
C21 C16 1_555 1_555
H5 C21 1_555 1_555
C22 C17 1_555 1_555
C23 C19 1_555 1_555
C24 C20 1_555 1_555
O7 C10 1_555 1_555
O8 C10 1_555 1_555
O13 Cu1 1_555 1_555
O14 C25 1_555 1_555
O15 Cu2 1_555 1_555
O16 Cu2 1_555 1_555
O17 C23 1_555 1_555
O18 C23 1_555 1_555
O20 C24 1_555 1_555
O31 Cu1 1_555 1_555
O32 Cu2 1_555 1_555
C25 C16 1_555 1_555
C26 C13 1_555 1_555
C29 C26 1_555 1_555
O33 Cu2 1_555 1_555
O34 C29 1_555 1_555
Sm12 O16 1_555 1_555
O66 Cu1 1_555 1_555
O80 Cu2 1_555 1_555
C20 C21 1_555 1_555
C22 O15 1_555 1_555
C22 O16 1_555 1_555
O13 C25 1_555 1_555
C29 O33 1_555 1_555
O31 H15 1_555 1_555
O31 H16 1_555 1_555
C30 C27 1_555 1_555
O35 C30 1_555 1_555
O36 C30 1_555 1_555
Sm3 O35 1_555 1_555
C31 C32 1_555 1_555
C32 C33 1_555 1_555
C33 H7 1_555 1_555
C34 C33 1_555 1_555
C35 C34 1_555 1_555
C36 C31 1_555 1_555
H8 C36 1_555 1_555
C37 C31 1_555 1_555
C38 C32 1_555 1_555
C39 C34 1_555 1_555
O37 Sm3 1_555 1_555
O38 C37 1_555 1_555
O39 C38 1_555 1_555
O40 C38 1_555 1_555
O41 C39 1_555 1_555
O53 Sm3 1_555 1_555
O54 Sm3 1_555 1_555
O55 Sm3 1_555 1_555
O56 Sm3 1_555 1_555
Sm10 O39 1_555 1_555
Cu5 O38 1_555 1_555
O71 Sm3 1_555 1_555
O75 Sm3 1_555 1_555
O77 Sm3 1_555 1_555
C35 C36 1_555 1_555
C37 O37 1_555 1_555
O40 Sm10 1_555 1_555
Sm1 O1 1_555 1_555
C1 C2 1_555 1_555
C2 C3 1_555 1_555
C3 H1 1_555 1_555
C4 C3 1_555 1_555
C5 C4 1_555 1_555
C6 C1 1_555 1_555
H2 C6 1_555 1_555
C7 C1 1_555 1_555
C8 C2 1_555 1_555
C9 C4 1_555 1_555
C15 C12 1_555 1_555
O1 C7 1_555 1_555
O2 C7 1_555 1_555
O3 C8 1_555 1_555
O4 C8 1_555 1_555
O5 C9 1_555 1_555
O11 Sm1 1_555 1_555
O12 C15 1_555 1_555
O21 Sm1 1_555 1_555
O22 Sm1 1_555 1_555
O23 Sm1 1_555 1_555
O24 Sm1 1_555 1_555
Sm12 O3 1_555 1_555
Cu6 O2 1_555 1_555
O72 Sm1 1_555 1_555
O76 Sm1 1_555 1_555
O78 Sm1 1_555 1_555
C5 C6 1_555 1_555
C15 O11 1_555 1_555
O4 Sm12 1_555 1_555
C14 C11 1_555 1_555
O9 C14 1_555 1_555
O10 C14 1_555 1_555
C28 C11 1_555 1_555
H6 C28 1_555 1_555
Cu3 O42 1_555 1_555
Cu4 O9 1_555 1_555
C41 C42 1_555 1_555
C42 C43 1_555 1_555
C43 H9 1_555 1_555
C44 C43 1_555 1_555
C45 C44 1_555 1_555
C46 C41 1_555 1_555
H10 C46 1_555 1_555
C47 C42 1_555 1_555
C48 C44 1_555 1_555
C49 C45 1_555 1_555
O43 Cu4 1_555 1_555
O44 C40 1_555 1_555
O45 Cu3 1_555 1_555
O46 C50 1_555 1_555
O47 Cu4 1_555 1_555
O48 Cu4 1_555 1_555
O49 C48 1_555 1_555
O50 C48 1_555 1_555
O52 C49 1_555 1_555
O63 Cu3 1_555 1_555
O64 Cu4 1_555 1_555
C50 C41 1_555 1_555
Sm10 O48 1_555 1_555
O65 Cu3 1_555 1_555
O79 Cu4 1_555 1_555
C40 O43 1_555 1_555
C45 C46 1_555 1_555
C47 O47 1_555 1_555
C47 O48 1_555 1_555
O45 C50 1_555 1_555
O63 H50 1_555 1_555
Sm4 O51 1_555 1_555
O57 Sm4 1_555 1_555
O58 Sm4 1_555 1_555
O59 Sm4 1_555 1_555
O60 Sm4 1_555 1_555
O67 Sm4 1_555 1_555
O73 Sm4 1_555 1_555
Cu7 O73 1_555 1_555
O60 H53 1_555 1_555
O60 H54 1_555 1_555
Sm12 O51_2 1_555 1_555
C43_2 H9_2 1_555 1_555
C44_2 C43_2 1_555 1_555
C45_2 C44_2 1_555 1_555
H10_2 C46_2 1_555 1_555
C48_2 C44_2 1_555 1_555
C49_2 C45_2 1_555 1_555
O76 C48_2 1_555 1_555
O78 C48_2 1_555 1_555
O51_2 C49_2 1_555 1_555
O80 C49_2 1_555 1_555
O57_2 Sm12 1_555 1_555
O58_2 Sm12 1_555 1_555
O59_2 Sm12 1_555 1_555
O60_2 Sm12 1_555 1_555
O61_2 Sm12 1_555 1_555
C45_2 C46_2 1_555 1_555
Sm6 O1_2 1_555 1_555
C11_2 C12_2 1_555 1_555
C12_2 C13_2 1_555 1_555
C13_2 H3_2 1_555 1_555
C14_2 C11_2 1_555 1_555
C15_2 C12_2 1_555 1_555
O1_2 C7_2 1_555 1_555
O65 C7_2 1_555 1_555
O9_2 C14_2 1_555 1_555
O11_2 Sm6 1_555 1_555
O12_2 C15_2 1_555 1_555
O21_2 Sm6 1_555 1_555
O22_2 Sm6 1_555 1_555
O23_2 Sm6 1_555 1_555
O24_2 Sm6 1_555 1_555
Cu6 O42_2 1_555 1_555
Cu8 O9_2 1_555 1_555
C31_2 C32_2 1_555 1_555
C32_2 C33_2 1_555 1_555
C33_2 H7_2 1_555 1_555
C34_2 C33_2 1_555 1_555
C35_2 C34_2 1_555 1_555
C36_2 C31_2 1_555 1_555
C38_2 C32_2 1_555 1_555
C39_2 C34_2 1_555 1_555
C40_2 C35_2 1_555 1_555
C41_2 C42_2 1_555 1_555
C47_2 C42_2 1_555 1_555
O70 C38_2 1_555 1_555
O72 C39_2 1_555 1_555
O42_2 C39_2 1_555 1_555
O43_2 Cu8 1_555 1_555
O44_2 C40_2 1_555 1_555
O45_2 Cu6 1_555 1_555
O46_2 C50_2 1_555 1_555
O47_2 Cu8 1_555 1_555
O62_2 Cu6 1_555 1_555
O63_2 Cu6 1_555 1_555
O64_2 Cu8 1_555 1_555
C50_2 C41_2 1_555 1_555
C15_2 O11_2 1_555 1_555
C35_2 C36_2 1_555 1_555
C40_2 O43_2 1_555 1_555
C47_2 O47_2 1_555 1_555
C47_2 O74 1_555 1_555
O45_2 C50_2 1_555 1_555
O23_2 H27 1_555 1_555
O64_2 H52 1_555 1_555
Cu5 O6_2 1_555 1_555
Cu7 O7_2 1_555 1_555
C1_2 C2_2 1_555 1_555
C2_2 C3_2 1_555 1_555
C3_2 H1_2 1_555 1_555
C4_2 C3_2 1_555 1_555
C5_2 C4_2 1_555 1_555
C6_2 C1_2 1_555 1_555
C8_2 C2_2 1_555 1_555
C9_2 C4_2 1_555 1_555
C10_2 C5_2 1_555 1_555
C16_2 C17_2 1_555 1_555
C22_2 C17_2 1_555 1_555
O69 C8_2 1_555 1_555
O71 C9_2 1_555 1_555
O6_2 C9_2 1_555 1_555
O7_2 C10_2 1_555 1_555
O8_2 C10_2 1_555 1_555
O13_2 Cu5 1_555 1_555
O14_2 C25_2 1_555 1_555
O15_2 Cu7 1_555 1_555
O30_2 Cu5 1_555 1_555
O31_2 Cu5 1_555 1_555
O32_2 Cu7 1_555 1_555
C25_2 C16_2 1_555 1_555
C27_2 C26_2 1_555 1_555
H6_2 C28_2 1_555 1_555
C29_2 C26_2 1_555 1_555
C30_2 C27_2 1_555 1_555
O33_2 Cu7 1_555 1_555
O35_2 C30_2 1_555 1_555
O36_2 C30_2 1_555 1_555
Sm8 O35_2 1_555 1_555
O37_2 Sm8 1_555 1_555
O66 C37_2 1_555 1_555
O53_2 Sm8 1_555 1_555
O54_2 Sm8 1_555 1_555
O55_2 Sm8 1_555 1_555
O56_2 Sm8 1_555 1_555
C5_2 C6_2 1_555 1_555
C22_2 O15_2 1_555 1_555
C22_2 O73 1_555 1_555
O13_2 C25_2 1_555 1_555
C27_2 C28_2 1_555 1_555
C29_2 O33_2 1_555 1_555
C37_2 O37_2 1_555 1_555
O54_2 H39_2 1_555 1_555
O55_2 H43 1_555 1_555
O53_2 H57 1_555 1_555
Sm10 O19_2 1_555 1_555
C18_2 H4_2 1_555 1_555
C19_2 C18_2 1_555 1_555
C20_2 C19_2 1_555 1_555
H5_2 C21_2 1_555 1_555
C23_2 C19_2 1_555 1_555
C24_2 C20_2 1_555 1_555
O75 C23_2 1_555 1_555
O77 C23_2 1_555 1_555
O19_2 C24_2 1_555 1_555
O79 C24_2 1_555 1_555
O25_2 Sm10 1_555 1_555
O26_2 Sm10 1_555 1_555
O27_2 Sm10 1_555 1_555
O28_2 Sm10 1_555 1_555
O29_2 Sm10 1_555 1_555
C20_2 C21_2 1_555 1_555
O28 H53_2 1_555 1_555
O63 H15_2 1_555 1_555
O22_2 H39_4 1_555 1_555
O23_2 H43_2 1_555 1_555
O21_2 H57_2 1_555 1_555
O55_2 H27_2 1_555 1_555
O32_2 H52_2 1_555 1_555

#END
