
###############################################################################
#
# This file contains modified crystal structure data generated from the
# MOF subset of the Cambridge Structural Database (CSD) v543 
# hosted by the Cambridge Crystallographic Data Centre (CCDC).
#
# This work is licensed under the Creative Commons
# Attribution-NonCommercial-ShareAlike 4.0 International License.
# To view a copy of this license, visit
# http://creativecommons.org/licenses/by-nc-sa/4.0/
# or send a letter to
# Creative Commons, PO Box 1866, Mountain View, CA 94042, USA.
#
# CIF created using the CSD Python API on 29 September 2022
# The structure has been converted into the P1 space group
# The structure has a 3D framework
# The original CSD entry VIWMAR is in the monoclinic crystal system
# The framework has been calculated to contain at least 10.0% void space
# The void calculation uses a probe of radius 1.32A, grid spacing 0.4
# The framework is charged, counterions have been retained in the structure
# H atom positions have been added when not included in the experimental data
# Generated hydrogen atom positions removed from atoms on special positions
#
###############################################################################

data_VIWMAR
_chemical_formula_moiety         '(C100 H184 Cu8 Nd8 O126 4+)n'
_symmetry_cell_setting           triclinic
_symmetry_space_group_name_H-M   'P 1'
_symmetry_Int_Tables_number      1
_space_group_name_Hall           'P 1'
loop_
_symmetry_equiv_pos_site_id
_symmetry_equiv_pos_as_xyz
1 x,y,z
_cell_length_a                   10.927(2)
_cell_length_b                   20.391(4)
_cell_length_c                   19.807(4)
_cell_angle_alpha                90
_cell_angle_beta                 99.61(3)
_cell_angle_gamma                90
_cell_volume                     4351.31
loop_
_atom_site_label
_atom_site_type_symbol
_atom_site_fract_x
_atom_site_fract_y
_atom_site_fract_z
O72 O 0.0799(5) 0.1195(3) 0.1062(3)
Nd8 Nd 0.03743(4) 0.37212(3) 0.84552(2)
Nd2 Nd 0.84111(4) 0.12698(3) 0.08197(2)
O19 O 0.7305(5) 0.2088(3) 0.0079(3)
O25 O 0.6646(5) 0.1639(3) 0.1422(3)
O26 O 0.8842(8) 0.0804(4) 0.2009(4)
O27 O 0.8880(8) 0.0057(4) 0.0799(4)
O28 O 0.6481(7) 0.0630(4) 0.0373(4)
Cu8 Cu 0.79529(9) 0.32663(5) 0.08979(5)
O70 O 0.9970(5) 0.1942(3) 0.0325(3)
O76 O 0.9087(6) 0.2186(3) 0.1592(3)
H32 H 0.65447 0.01846 0.0578585
Cu1 Cu 0.08014(9) 0.17391(5) 0.83151(5)
Cu2 Cu 0.29529(9) 0.17337(5) 0.58979(5)
C10 C 0.0347(8) 0.1721(5) 0.6055(4)
C13 C 0.0495(8) 0.0470(5) 0.4628(4)
H3 H 0.0828 0.0784 0.4371
C16 C 0.4552(8) 0.2068(5) 0.8274(4)
C17 C 0.4872(7) 0.2439(4) 0.7711(4)
C18 C 0.5882(7) 0.2858(5) 0.7830(4)
H4 H 0.6056 0.3124 0.7476
C19 C 0.6646(7) 0.2891(4) 0.8469(4)
C20 C 0.6343(7) 0.2529(4) 0.9008(4)
C21 C 0.5313(8) 0.2118(5) 0.8905(4)
H5 H 0.5131 0.1870 0.9270
C22 C 0.3398(8) 0.1677(4) 0.8227(4)
C23 C 0.4178(7) 0.2349(5) 0.7006(4)
C24 C 0.7849(8) 0.3279(5) 0.8537(4)
C25 C 0.7023(7) 0.2594(5) 0.9727(4)
O7 O 0.1376(5) 0.2048(3) 0.6143(3)
O8 O 0.0268(6) 0.1125(4) 0.6030(3)
O13 O 0.2407(5) 0.1979(3) 0.8038(3)
O14 O 0.3493(6) 0.1094(3) 0.8424(3)
O15 O 0.3755(5) 0.1779(3) 0.6855(3)
O16 O 0.4087(6) 0.2814(3) 0.6592(3)
O17 O 0.7934(5) 0.3798(3) 0.8223(3)
O18 O 0.8779(5) 0.3010(3) 0.8896(3)
O20 O 0.7214(5) 0.3176(3) 0.9941(3)
O29 O 0.8806(7) 0.0841(3) 0.9683(3)
O31 O 0.0753(10) 0.0668(4) 0.8100(4)
O32 O 0.4663(5) 0.1778(3) 0.5610(3)
C26 C 0.1266(7) 0.0136(4) 0.5131(4)
C29 C 0.2617(7) 0.0319(5) 0.5245(5)
O33 O 0.3079(5) 0.0648(3) 0.5765(3)
O34 O 0.3225(5) 0.0121(3) 0.4791(3)
Nd12 Nd 0.34111(4) 0.37302(3) 0.58197(2)
O66 O 0.1398(6) 0.2832(3) 0.9160(3)
O68 O 0.1594(5) 0.1755(3) 0.9269(3)
O82 O 0.2214(5) 0.1824(3) 0.4941(3)
H31 H 0.638763 0.059334 0.986707
H33 H 0.122319 0.0574766 0.772292
H34 H 0.113568 0.042687 0.851785
H53 H 0.440548 0.01765 0.682247
H54 H 0.585387 0.00561444 0.677088
C27 C 0.0785(7) 0.9654(4) 0.5505(4)
C30 C 0.1600(7) 0.9251(5) 0.6042(5)
O35 O 0.2741(5) 0.9249(3) 0.6031(3)
O36 O 0.1077(6) 0.8917(4) 0.6451(4)
Nd3 Nd 0.46257(4) 0.87212(3) 0.65448(2)
C31 C 0.2549(7) 0.7407(5) 0.4776(4)
C32 C 0.2886(7) 0.7036(4) 0.4239(4)
C33 C 0.2133(7) 0.7079(5) 0.3598(4)
H7 H 0.2317 0.6825 0.3238
C34 C 0.1111(7) 0.7496(4) 0.3493(4)
C35 C 0.0786(8) 0.7861(5) 0.4033(4)
C36 C 0.1518(7) 0.7801(4) 0.4675(4)
H8 H 0.1304 0.8032 0.5043
C37 C 0.3259(7) 0.7328(5) 0.5505(4)
C38 C 0.4093(7) 0.6687(5) 0.4295(4)
C39 C 0.0433(7) 0.7585(5) 0.2785(4)
O37 O 0.3602(6) 0.7832(3) 0.5840(3)
O38 O 0.3406(5) 0.6755(3) 0.5731(3)
O39 O 0.5030(5) 0.6942(3) 0.4675(3)
O40 O 0.4201(5) 0.6195(3) 0.3938(3)
O41 O 0.0367(6) 0.7119(3) 0.2367(3)
O42 O 0.0010(5) 0.8151(3) 0.2630(3)
O53 O 0.4878(5) 0.9106(3) 0.5353(3)
O54 O 0.4985(6) 0.9960(3) 0.6556(3)
O55 O 0.4859(8) 0.9205(4) 0.7735(4)
O56 O 0.2875(5) 0.8290(3) 0.7142(3)
O62 O 0.0863(5) 0.8262(3) 0.1362(3)
Nd10 Nd 0.65889(4) 0.62698(3) 0.41803(2)
Cu5 Cu 0.41986(9) 0.67391(5) 0.66849(5)
O73 O 0.5367(6) 0.7881(3) 0.7367(3)
O77 O 0.7066(5) 0.8798(3) 0.6777(3)
O79 O 0.6221(5) 0.8010(3) 0.6104(3)
H39 H 0.0121473 0.947583 0.203681
Nd1 Nd 0.53743(4) 0.12788(3) 0.34552(2)
C1 C 0.7451(7) 0.2593(5) 0.5224(4)
C2 C 0.7114(7) 0.2964(4) 0.5761(4)
C3 C 0.7867(7) 0.2921(5) 0.6402(4)
H1 H 0.7683 0.3175 0.6762
C4 C 0.8889(7) 0.2504(4) 0.6507(4)
C5 C 0.9214(8) 0.2139(5) 0.5967(4)
C6 C 0.8482(7) 0.2199(4) 0.5325(4)
H2 H 0.8696 0.1968 0.4957
C7 C 0.6741(7) 0.2672(5) 0.4495(4)
C8 C 0.5907(7) 0.3313(5) 0.5705(4)
C9 C 0.9567(7) 0.2415(5) 0.7215(4)
C12 C 0.9215(7) 0.0346(4) 0.4495(4)
C15 C 0.8400(7) 0.0749(5) 0.3958(5)
O1 O 0.6398(6) 0.2168(3) 0.4160(3)
O2 O 0.6594(5) 0.3245(3) 0.4269(3)
O3 O 0.4970(5) 0.3058(3) 0.5325(3)
O4 O 0.5799(5) 0.3805(3) 0.6062(3)
O5 O 0.9633(6) 0.2881(3) 0.7633(3)
O6 O 0.9990(5) 0.1849(3) 0.7370(3)
O11 O 0.7259(5) 0.0751(3) 0.3969(3)
O12 O 0.8923(6) 0.1083(4) 0.3549(4)
O21 O 0.5122(5) 0.0894(3) 0.4647(3)
O22 O 0.5015(6) 0.0040(3) 0.3444(3)
O23 O 0.5141(8) 0.0795(4) 0.2265(4)
O24 O 0.7125(5) 0.1710(3) 0.2858(3)
O30 O 0.9137(5) 0.1738(3) 0.8638(3)
Cu6 Cu 0.58014(9) 0.32609(5) 0.33151(5)
O74 O 0.4633(6) 0.2119(3) 0.2633(3)
O78 O 0.2934(5) 0.1202(3) 0.3223(3)
O80 O 0.3779(5) 0.1990(3) 0.3896(3)
C11 C 0.8734(7) 0.9864(4) 0.4869(4)
C14 C 0.7383(7) 0.9681(5) 0.4755(5)
O9 O 0.6921(5) 0.9352(3) 0.4235(3)
O10 O 0.6775(5) 0.9879(3) 0.5209(3)
C28 C 0.9505(8) 0.9530(5) 0.5372(4)
H6 H 0.9172 0.9216 0.5629
Cu3 Cu 0.91986(9) 0.82609(5) 0.16849(5)
Cu4 Cu 0.70471(9) 0.82663(5) 0.41021(5)
C40 C 0.9653(8) 0.8279(5) 0.3945(4)
C41 C 0.5448(8) 0.7932(5) 0.1726(4)
C42 C 0.5128(7) 0.7561(4) 0.2289(4)
C43 C 0.4118(7) 0.7142(5) 0.2170(4)
H9 H 0.3944 0.6876 0.2524
C44 C 0.3354(7) 0.7109(4) 0.1531(4)
C45 C 0.3657(7) 0.7471(4) 0.0992(4)
C46 C 0.4687(8) 0.7882(5) 0.1095(4)
H10 H 0.4869 0.8130 0.0730
C47 C 0.6602(8) 0.8323(4) 0.1773(4)
C48 C 0.5822(7) 0.7651(5) 0.2994(4)
C49 C 0.2151(8) 0.6721(5) 0.1463(4)
C50 C 0.2977(7) 0.7406(5) 0.0273(4)
O43 O 0.8624(5) 0.7952(3) 0.3857(3)
O44 O 0.9732(6) 0.8875(4) 0.3970(3)
O45 O 0.7593(5) 0.8021(3) 0.1962(3)
O46 O 0.6507(6) 0.8906(3) 0.1576(3)
O47 O 0.6245(5) 0.8221(3) 0.3145(3)
O48 O 0.5913(6) 0.7186(3) 0.3408(3)
O49 O 0.2066(5) 0.6202(3) 0.1777(3)
O50 O 0.1221(5) 0.6990(3) 0.1104(3)
O52 O 0.2786(5) 0.6824(3) 0.0059(3)
O61 O 0.1194(7) 0.9159(3) 0.0317(3)
O63 O 0.9247(10) 0.9332(4) 0.1900(4)
O64 O 0.5337(5) 0.8222(3) 0.4390(3)
Nd6 Nd 0.96257(4) 0.62788(3) 0.15448(2)
O65 O 0.8602(6) 0.7168(3) 0.0840(3)
O67 O 0.8406(5) 0.8245(3) 0.0731(3)
O81 O 0.7786(5) 0.8176(3) 0.5059(3)
H21 H 0.458429 0.991771 0.382931
H22 H 0.449523 0.99113 0.300389
H40 H 0.886432 0.957313 0.148215
Nd4 Nd 0.15889(4) 0.87302(3) 0.91803(2)
O51 O 0.2695(5) 0.7912(3) 0.9921(3)
O57 O 0.3354(5) 0.8361(3) 0.8578(3)
O58 O 0.1158(8) 0.9196(4) 0.7991(4)
O59 O 0.1120(8) 0.9943(4) 0.9201(4)
O60 O 0.3519(7) 0.9370(4) 0.9627(4)
Cu7 Cu 0.20471(9) 0.67337(5) 0.91021(5)
O69 O 0.0030(5) 0.8058(3) 0.9675(3)
O75 O 0.0913(6) 0.7814(3) 0.8408(3)
H41 H 0.425232 0.914086 0.950324
H42 H 0.34553 0.98154 0.942142
O71 O 0.9201(5) 0.8805(3) 0.8938(3)
C43_2 C 0.0882(7) 0.2142(5) 0.2830(4)
H9_2 H 0.1056 0.1876 0.2476
C44_2 C 0.1646(7) 0.2109(4) 0.3469(4)
C45_2 C 0.1343(7) 0.2471(4) 0.4008(4)
C46_2 C 0.0313(8) 0.2882(5) 0.3905(4)
H10_2 H 0.0131 0.3130 0.4270
C49_2 C 0.2849(8) 0.1721(5) 0.3537(4)
C50_2 C 0.2023(7) 0.2406(5) 0.4727(4)
O51_2 O 0.2305(5) 0.2912(3) 0.5079(3)
O57_2 O 0.1646(5) 0.3361(3) 0.6422(3)
O58_2 O 0.3842(8) 0.4196(4) 0.7009(4)
O59_2 O 0.3880(8) 0.4943(4) 0.5799(4)
O60_2 O 0.1481(7) 0.4370(4) 0.5373(4)
O61_2 O 0.3806(7) 0.4159(3) 0.4683(3)
H11 H 0.035688 0.622565 0.0138423
H12 H 0.0328584 0.546923 0.0387973
H18 H 0.0415948 0.540749 0.276595
H21_2 H 0.0415708 0.491771 0.117069
H22_2 H 0.0504769 0.49113 0.199611
H51 H 0.0266688 0.347876 0.0936972
H2_2 H 0.6304 0.6968 0.0043
C7_2 C 0.8259(7) 0.7672(5) 0.0505(4)
C11_2 C 0.6266(7) 0.4864(4) 0.0131(4)
C12_2 C 0.5785(7) 0.5346(4) 0.0505(4)
C13_2 C 0.4505(8) 0.5470(5) 0.0372(4)
H3_2 H 0.4172 0.5784 0.0629
C14_2 C 0.7617(7) 0.4681(5) 0.0245(5)
C15_2 C 0.6600(7) 0.5749(5) 0.1042(5)
O9_2 O 0.8079(5) 0.4352(3) 0.0765(3)
O11_2 O 0.7741(5) 0.5751(3) 0.1031(3)
O12_2 O 0.6077(6) 0.6083(4) 0.1451(4)
O21_2 O 0.9878(5) 0.5894(3) 0.0353(3)
O22_2 O 0.9985(6) 0.5040(3) 0.1556(3)
O23_2 O 0.9859(8) 0.5795(4) 0.2735(4)
O24_2 O 0.7875(5) 0.6710(3) 0.2142(3)
O34_2 O 0.1775(5) 0.5121(3) 0.0209(3)
C31_2 C 0.2451(7) 0.2407(5) 0.0224(4)
C32_2 C 0.2114(7) 0.2036(4) 0.0761(4)
C33_2 C 0.2867(7) 0.2079(5) 0.1402(4)
H7_2 H 0.2683 0.1825 0.1762
C34_2 C 0.3889(7) 0.2496(4) 0.1507(4)
C35_2 C 0.4214(8) 0.2861(5) 0.0967(4)
C36_2 C 0.3482(7) 0.2801(4) 0.0325(4)
C38_2 C 0.0907(7) 0.1687(5) 0.0705(4)
C39_2 C 0.4567(7) 0.2585(5) 0.2215(4)
C40_2 C 0.5347(8) 0.3279(5) 0.1055(4)
C41_2 C 0.9552(8) 0.2932(5) 0.3274(4)
C42_2 C 0.9872(7) 0.2561(4) 0.2711(4)
C47_2 C 0.8398(8) 0.3323(4) 0.3227(4)
C48_2 C 0.9178(7) 0.2651(5) 0.2006(4)
O42_2 O 0.4990(5) 0.3151(3) 0.2370(3)
O43_2 O 0.6376(5) 0.2952(3) 0.1143(3)
O44_2 O 0.5268(6) 0.3875(4) 0.1030(3)
O45_2 O 0.7407(5) 0.3021(3) 0.3038(3)
O46_2 O 0.8493(6) 0.3906(3) 0.3424(3)
O47_2 O 0.8755(5) 0.3221(3) 0.1855(3)
O62_2 O 0.4137(5) 0.3262(3) 0.3638(3)
O63_2 O 0.5753(10) 0.4332(4) 0.3100(4)
O64_2 O 0.9663(5) 0.3222(3) 0.0610(3)
H17 H 0.903226 0.565879 0.283049
H52 H 0.99389 0.275798 0.0610403
C1_2 C 0.7549(7) 0.7593(5) 0.9776(4)
C2_2 C 0.7886(7) 0.7964(4) 0.9239(4)
C3_2 C 0.7133(7) 0.7921(5) 0.8598(4)
H1_2 H 0.7317 0.8175 0.8238
C4_2 C 0.6111(7) 0.7504(4) 0.8493(4)
C5_2 C 0.5786(8) 0.7139(5) 0.9033(4)
C6_2 C 0.6518(7) 0.7199(4) 0.9675(4)
C8_2 C 0.9093(7) 0.8313(5) 0.9295(4)
C9_2 C 0.5433(7) 0.7415(5) 0.7785(4)
C10_2 C 0.4653(8) 0.6721(5) 0.8945(4)
C16_2 C 0.0448(8) 0.7068(5) 0.6726(4)
C17_2 C 0.0128(7) 0.7439(4) 0.7289(4)
C22_2 C 0.1602(8) 0.6677(4) 0.6773(4)
C23_2 C 0.0822(7) 0.7349(5) 0.7994(4)
O6_2 O 0.5010(5) 0.6849(3) 0.7630(3)
O7_2 O 0.3624(5) 0.7048(3) 0.8857(3)
O8_2 O 0.4732(6) 0.6125(4) 0.8970(3)
O10_2 O 0.8225(5) 0.4879(3) 0.9791(3)
O13_2 O 0.2593(5) 0.6979(3) 0.6962(3)
O14_2 O 0.1507(6) 0.6094(3) 0.6576(3)
O15_2 O 0.1245(5) 0.6779(3) 0.8145(3)
O30_2 O 0.5863(5) 0.6738(3) 0.6362(3)
O31_2 O 0.4247(10) 0.5668(4) 0.6900(4)
O32_2 O 0.0337(5) 0.6778(3) 0.9390(3)
C26_2 C 0.3734(7) 0.5136(4) 0.9869(4)
C27_2 C 0.4215(7) 0.4654(4) 0.9495(4)
C28_2 C 0.5495(8) 0.4530(5) 0.9628(4)
H6_2 H 0.5828 0.4216 0.9371
C29_2 C 0.2383(7) 0.5319(5) 0.9755(5)
C30_2 C 0.3400(7) 0.4251(5) 0.8958(5)
O33_2 O 0.1921(5) 0.5648(3) 0.9235(3)
O35_2 O 0.2259(5) 0.4249(3) 0.8969(3)
O36_2 O 0.3923(6) 0.3917(4) 0.8549(4)
H8_2 H 0.3696 0.3032 0.9957
C37_2 C 0.1741(7) 0.2328(5) 0.9495(4)
O53_2 O 0.0122(5) 0.4106(3) 0.9647(3)
O54_2 O 0.0015(6) 0.4960(3) 0.8444(3)
O55_2 O 0.0141(8) 0.4205(4) 0.7265(4)
O56_2 O 0.2125(5) 0.3290(3) 0.7858(3)
H28 H 0.000670902 0.632707 0.941924
H37 H 0.0874517 0.408638 0.705463
H43 H 0.0224561 0.458953 0.967723
H53_2 H 0.0594523 0.51765 0.817753
C18_2 C 0.9118(7) 0.7858(5) 0.7170(4)
H4_2 H 0.8944 0.8124 0.7524
C19_2 C 0.8354(7) 0.7891(4) 0.6531(4)
C20_2 C 0.8657(7) 0.7529(4) 0.5992(4)
C21_2 C 0.9687(8) 0.7118(5) 0.6095(4)
H5_2 H 0.9869 0.6870 0.5730
C24_2 C 0.7151(8) 0.8279(5) 0.6463(4)
C25_2 C 0.7977(7) 0.7594(5) 0.5273(4)
O19_2 O 0.7695(5) 0.7088(3) 0.4921(3)
O25_2 O 0.8354(5) 0.6639(3) 0.3578(3)
O26_2 O 0.6158(8) 0.5804(4) 0.2991(4)
O27_2 O 0.6120(8) 0.5057(4) 0.4201(4)
O28_2 O 0.8519(7) 0.5630(4) 0.4627(4)
O29_2 O 0.6194(7) 0.5841(3) 0.5317(3)
H27 H 0.976381 0.70342 0.904641
H38 H 0.937784 0.402882 0.697993
H44 H 0.92825 0.398551 0.973533
H54_2 H 0.914613 0.505614 0.822912
H41_2 H 0.574768 0.0859139 0.0496757
H21_3 H 0.541571 0.00822865 0.617069
H22_3 H 0.550477 0.0088701 0.699611
H39_2 H 0.987853 0.0524165 0.796319
H31_2 H 0.361237 0.940666 0.0132928
H33_2 H 0.877681 0.942523 0.227708
H53_3 H 0.559452 0.98235 0.317753
H54_3 H 0.414613 0.994386 0.322912
H27_2 H 0.0236191 0.29658 0.0953594
H38_2 H 0.0622157 0.597118 0.302007
H44_2 H 0.0717502 0.601449 0.0264666
H54_4 H 0.0853867 0.494386 0.177088
H28_2 H 0.999329 0.367293 0.0580756
H37_2 H 0.912548 0.591362 0.294537
H43_2 H 0.977544 0.541047 0.032277
H53_4 H 0.940548 0.48235 0.182247
H17_2 H 0.0967738 0.434121 0.716951
H52_2 H 0.00611043 0.724202 0.93896
H11_2 H 0.964312 0.377435 0.986158
H12_2 H 0.967142 0.453077 0.961203
H18_2 H 0.958405 0.459251 0.723405
H21_4 H 0.958429 0.508229 0.882931
H22_4 H 0.949523 0.50887 0.800389
H51_2 H 0.973331 0.652124 0.906303
H15 H 0.933931 0.996173 0.0417857
H16 H 0.939437 0.992705 0.124028
H35 H 0.809056 0.980569 0.0730728
H35_2 H 0.190944 0.0194311 0.926927
H36 H 0.0605633 0.0072949 0.875972
H15_2 H 0.0660693 0.00382684 0.958214
loop_
_geom_bond_atom_site_label_1
_geom_bond_atom_site_label_2
_geom_bond_site_symmetry_1
_geom_bond_site_symmetry_2
Nd2 O19 1_555 1_555
O25 Nd2 1_555 1_555
O26 Nd2 1_555 1_555
O27 Nd2 1_555 1_555
O28 Nd2 1_555 1_555
O70 Nd2 1_555 1_555
O76 Nd2 1_555 1_555
Cu8 O76 1_555 1_555
O28 H32 1_555 1_555
Cu2 O7 1_555 1_555
C13 H3 1_555 1_555
C16 C17 1_555 1_555
C17 C18 1_555 1_555
C18 H4 1_555 1_555
C19 C18 1_555 1_555
C20 C19 1_555 1_555
C21 C16 1_555 1_555
H5 C21 1_555 1_555
C22 C16 1_555 1_555
C23 C17 1_555 1_555
C24 C19 1_555 1_555
C25 C20 1_555 1_555
O7 C10 1_555 1_555
O8 C10 1_555 1_555
O13 Cu1 1_555 1_555
O14 C22 1_555 1_555
O15 Cu2 1_555 1_555
O16 Cu2 1_555 1_555
O17 C24 1_555 1_555
O18 C24 1_555 1_555
O20 C25 1_555 1_555
O31 Cu1 1_555 1_555
O32 Cu2 1_555 1_555
C26 C13 1_555 1_555
C29 C26 1_555 1_555
O33 Cu2 1_555 1_555
O34 C29 1_555 1_555
Nd12 O16 1_555 1_555
O66 Cu1 1_555 1_555
O68 Cu1 1_555 1_555
O82 Cu2 1_555 1_555
C20 C21 1_555 1_555
C22 O13 1_555 1_555
C23 O15 1_555 1_555
C23 O16 1_555 1_555
C29 O33 1_555 1_555
Nd8 O66 1_555 1_555
O31 H33 1_555 1_555
O31 H34 1_555 1_555
C30 C27 1_555 1_555
O35 C30 1_555 1_555
O36 C30 1_555 1_555
Nd3 O35 1_555 1_555
C31 C32 1_555 1_555
C32 C33 1_555 1_555
C33 H7 1_555 1_555
C34 C33 1_555 1_555
C35 C34 1_555 1_555
C36 C31 1_555 1_555
H8 C36 1_555 1_555
C37 C31 1_555 1_555
C38 C32 1_555 1_555
C39 C34 1_555 1_555
O37 Nd3 1_555 1_555
O38 C37 1_555 1_555
O39 C38 1_555 1_555
O40 C38 1_555 1_555
O41 C39 1_555 1_555
O42 C39 1_555 1_555
O53 Nd3 1_555 1_555
O54 Nd3 1_555 1_555
O55 Nd3 1_555 1_555
O56 Nd3 1_555 1_555
Nd10 O39 1_555 1_555
Cu5 O37 1_555 1_555
O73 Nd3 1_555 1_555
O77 Nd3 1_555 1_555
O79 Nd3 1_555 1_555
C35 C36 1_555 1_555
C37 O37 1_555 1_555
O38 Cu5 1_555 1_555
O40 Nd10 1_555 1_555
Nd1 O1 1_555 1_555
C1 C2 1_555 1_555
C2 C3 1_555 1_555
C3 H1 1_555 1_555
C4 C3 1_555 1_555
C5 C4 1_555 1_555
C6 C1 1_555 1_555
H2 C6 1_555 1_555
C7 C1 1_555 1_555
C8 C2 1_555 1_555
C9 C4 1_555 1_555
C15 C12 1_555 1_555
O1 C7 1_555 1_555
O2 C7 1_555 1_555
O3 C8 1_555 1_555
O4 C8 1_555 1_555
O5 C9 1_555 1_555
O6 C9 1_555 1_555
O11 Nd1 1_555 1_555
O12 C15 1_555 1_555
O21 Nd1 1_555 1_555
O22 Nd1 1_555 1_555
O23 Nd1 1_555 1_555
O24 Nd1 1_555 1_555
Nd12 O3 1_555 1_555
Cu6 O1 1_555 1_555
O74 Nd1 1_555 1_555
O78 Nd1 1_555 1_555
O80 Nd1 1_555 1_555
C5 C6 1_555 1_555
C15 O11 1_555 1_555
O2 Cu6 1_555 1_555
O4 Nd12 1_555 1_555
C14 C11 1_555 1_555
O9 C14 1_555 1_555
O10 C14 1_555 1_555
C28 C11 1_555 1_555
H6 C28 1_555 1_555
Cu4 O9 1_555 1_555
C41 C42 1_555 1_555
C42 C43 1_555 1_555
C43 H9 1_555 1_555
C44 C43 1_555 1_555
C45 C44 1_555 1_555
C46 C41 1_555 1_555
H10 C46 1_555 1_555
C47 C41 1_555 1_555
C48 C42 1_555 1_555
C49 C44 1_555 1_555
C50 C45 1_555 1_555
O43 Cu4 1_555 1_555
O44 C40 1_555 1_555
O45 Cu3 1_555 1_555
O46 C47 1_555 1_555
O47 Cu4 1_555 1_555
O48 Cu4 1_555 1_555
O49 C49 1_555 1_555
O50 C49 1_555 1_555
O52 C50 1_555 1_555
O63 Cu3 1_555 1_555
O64 Cu4 1_555 1_555
Nd10 O48 1_555 1_555
O65 Cu3 1_555 1_555
O67 Cu3 1_555 1_555
O81 Cu4 1_555 1_555
C40 O43 1_555 1_555
C45 C46 1_555 1_555
C47 O45 1_555 1_555
C48 O47 1_555 1_555
C48 O48 1_555 1_555
Nd6 O65 1_555 1_555
O63 H40 1_555 1_555
Nd4 O51 1_555 1_555
O57 Nd4 1_555 1_555
O58 Nd4 1_555 1_555
O59 Nd4 1_555 1_555
O60 Nd4 1_555 1_555
O69 Nd4 1_555 1_555
O75 Nd4 1_555 1_555
Cu7 O75 1_555 1_555
O60 H41 1_555 1_555
O60 H42 1_555 1_555
Nd12 O51_2 1_555 1_555
C43_2 H9_2 1_555 1_555
C44_2 C43_2 1_555 1_555
C45_2 C44_2 1_555 1_555
H10_2 C46_2 1_555 1_555
C49_2 C44_2 1_555 1_555
C50_2 C45_2 1_555 1_555
O78 C49_2 1_555 1_555
O80 C49_2 1_555 1_555
O51_2 C50_2 1_555 1_555
O82 C50_2 1_555 1_555
O57_2 Nd12 1_555 1_555
O58_2 Nd12 1_555 1_555
O59_2 Nd12 1_555 1_555
O60_2 Nd12 1_555 1_555
O61_2 Nd12 1_555 1_555
C45_2 C46_2 1_555 1_555
C11_2 C12_2 1_555 1_555
C12_2 C13_2 1_555 1_555
C13_2 H3_2 1_555 1_555
C14_2 C11_2 1_555 1_555
C15_2 C12_2 1_555 1_555
O65 C7_2 1_555 1_555
O67 C7_2 1_555 1_555
O9_2 C14_2 1_555 1_555
O11_2 Nd6 1_555 1_555
O12_2 C15_2 1_555 1_555
O21_2 Nd6 1_555 1_555
O22_2 Nd6 1_555 1_555
O23_2 Nd6 1_555 1_555
O24_2 Nd6 1_555 1_555
Cu6 O42_2 1_555 1_555
Cu8 O9_2 1_555 1_555
C31_2 C32_2 1_555 1_555
C32_2 C33_2 1_555 1_555
C33_2 H7_2 1_555 1_555
C34_2 C33_2 1_555 1_555
C35_2 C34_2 1_555 1_555
C36_2 C31_2 1_555 1_555
C38_2 C32_2 1_555 1_555
C39_2 C34_2 1_555 1_555
C40_2 C35_2 1_555 1_555
C41_2 C42_2 1_555 1_555
C47_2 C41_2 1_555 1_555
C48_2 C42_2 1_555 1_555
O72 C38_2 1_555 1_555
O74 C39_2 1_555 1_555
O42_2 C39_2 1_555 1_555
O43_2 Cu8 1_555 1_555
O44_2 C40_2 1_555 1_555
O45_2 Cu6 1_555 1_555
O46_2 C47_2 1_555 1_555
O47_2 Cu8 1_555 1_555
O62_2 Cu6 1_555 1_555
O63_2 Cu6 1_555 1_555
O64_2 Cu8 1_555 1_555
C15_2 O11_2 1_555 1_555
C35_2 C36_2 1_555 1_555
C40_2 O43_2 1_555 1_555
C47_2 O45_2 1_555 1_555
C48_2 O47_2 1_555 1_555
C48_2 O76 1_555 1_555
O23_2 H17 1_555 1_555
O64_2 H52 1_555 1_555
Cu5 O6_2 1_555 1_555
Cu7 O7_2 1_555 1_555
C1_2 C2_2 1_555 1_555
C2_2 C3_2 1_555 1_555
C3_2 H1_2 1_555 1_555
C4_2 C3_2 1_555 1_555
C5_2 C4_2 1_555 1_555
C6_2 C1_2 1_555 1_555
C8_2 C2_2 1_555 1_555
C9_2 C4_2 1_555 1_555
C10_2 C5_2 1_555 1_555
C16_2 C17_2 1_555 1_555
C22_2 C16_2 1_555 1_555
C23_2 C17_2 1_555 1_555
O71 C8_2 1_555 1_555
O73 C9_2 1_555 1_555
O6_2 C9_2 1_555 1_555
O7_2 C10_2 1_555 1_555
O8_2 C10_2 1_555 1_555
O13_2 Cu5 1_555 1_555
O14_2 C22_2 1_555 1_555
O15_2 Cu7 1_555 1_555
O30_2 Cu5 1_555 1_555
O31_2 Cu5 1_555 1_555
O32_2 Cu7 1_555 1_555
C27_2 C26_2 1_555 1_555
H6_2 C28_2 1_555 1_555
C29_2 C26_2 1_555 1_555
C30_2 C27_2 1_555 1_555
O33_2 Cu7 1_555 1_555
O35_2 C30_2 1_555 1_555
O36_2 C30_2 1_555 1_555
Nd8 O35_2 1_555 1_555
O68 C37_2 1_555 1_555
O53_2 Nd8 1_555 1_555
O54_2 Nd8 1_555 1_555
O55_2 Nd8 1_555 1_555
O56_2 Nd8 1_555 1_555
C5_2 C6_2 1_555 1_555
C22_2 O13_2 1_555 1_555
C23_2 O15_2 1_555 1_555
C23_2 O75 1_555 1_555
C27_2 C28_2 1_555 1_555
C29_2 O33_2 1_555 1_555
C37_2 O66 1_555 1_555
O32_2 H28 1_555 1_555
O55_2 H37 1_555 1_555
O53_2 H43 1_555 1_555
O54_2 H53_2 1_555 1_555
Nd10 O19_2 1_555 1_555
C18_2 H4_2 1_555 1_555
C19_2 C18_2 1_555 1_555
C20_2 C19_2 1_555 1_555
H5_2 C21_2 1_555 1_555
C24_2 C19_2 1_555 1_555
C25_2 C20_2 1_555 1_555
O77 C24_2 1_555 1_555
O79 C24_2 1_555 1_555
O19_2 C25_2 1_555 1_555
O81 C25_2 1_555 1_555
O25_2 Nd10 1_555 1_555
O26_2 Nd10 1_555 1_555
O27_2 Nd10 1_555 1_555
O28_2 Nd10 1_555 1_555
O29_2 Nd10 1_555 1_555
C20_2 C21_2 1_555 1_555
O28 H41_2 1_555 1_555
O63 H33_2 1_555 1_555
O64_2 H28_2 1_555 1_555
O23_2 H37_2 1_555 1_555
O21_2 H43_2 1_555 1_555
O22_2 H53_4 1_555 1_555
O55_2 H17_2 1_555 1_555
O32_2 H52_2 1_555 1_555

#END
