
###############################################################################
#
# This file contains modified crystal structure data generated from the
# MOF subset of the Cambridge Structural Database (CSD) v543 
# hosted by the Cambridge Crystallographic Data Centre (CCDC).
#
# This work is licensed under the Creative Commons
# Attribution-NonCommercial-ShareAlike 4.0 International License.
# To view a copy of this license, visit
# http://creativecommons.org/licenses/by-nc-sa/4.0/
# or send a letter to
# Creative Commons, PO Box 1866, Mountain View, CA 94042, USA.
#
# CIF created using the CSD Python API on 29 September 2022
# The structure has been converted into the P1 space group
# The structure has a 3D framework
# The original CSD entry VIWMIZ is in the cubic crystal system
# The original CSD entry VIWMIZ is in a Sohncke space group
# The framework has been calculated to contain at least 10.0% void space
# The void calculation uses a probe of radius 1.32A, grid spacing 0.4
# The framework is charged, counterions have been retained in the structure
#
###############################################################################

data_VIWMIZ
_chemical_formula_moiety         '(C432 H348 Cd12 N112 O12 12+)n'
_symmetry_cell_setting           triclinic
_symmetry_space_group_name_H-M   'P 1'
_symmetry_Int_Tables_number      1
_space_group_name_Hall           'P 1'
loop_
_symmetry_equiv_pos_site_id
_symmetry_equiv_pos_as_xyz
1 x,y,z
_cell_length_a                   25.3961(9)
_cell_length_b                   25.3961(9)
_cell_length_c                   25.3961(9)
_cell_angle_alpha                90
_cell_angle_beta                 90
_cell_angle_gamma                90
_cell_volume                     16379.5
loop_
_atom_site_label
_atom_site_type_symbol
_atom_site_fract_x
_atom_site_fract_y
_atom_site_fract_z
Cd1 Cd 0.20011(2) 0.29989(2) 0.20011(2)
O1 O 0.2964(3) 0.2964(3) 0.2036(3)
H1 H 0.3192 0.3192 0.1808
C1 C 0.1890(5) 0.4234(4) 0.2379(4)
H2 H 0.1864 0.4126 0.2737
C2 C 0.1960(6) 0.4243(4) 0.1574(4)
H3 H 0.2010 0.4142 0.1217
C3 C 0.1866(5) 0.4723(4) 0.1715(5)
H4 H 0.1824 0.5016 0.1487
C4 C 0.1770(4) 0.5182(3) 0.2536(3)
C5 C 0.1659(4) 0.5659(3) 0.2292(3)
H5 H 0.1652 0.5681 0.1918
C6 C 0.1559(4) 0.6105(3) 0.2593(3)
H6 H 0.1483 0.6431 0.2426
C7 C 0.1569(5) 0.6073(3) 0.3140(3)
C8 C 0.1680(5) 0.5596(3) 0.3384(3)
H7 H 0.1687 0.5574 0.3758
C9 C 0.1780(4) 0.5150(3) 0.3082(3)
H8 H 0.1855 0.4824 0.3249
N1 N 0.1980(4) 0.3893(3) 0.1982(3)
N2 N 0.1841(4) 0.4730(3) 0.2229(4)
N3 N 0.1553(7) 0.6553(7) 0.3447(7)
H11 H 0.0016 0.8513 0.3176
C13 C 0.0182(3) 0.7464(3) 0.3230(4)
C14 C 0.0659(3) 0.7708(3) 0.3341(4)
H12 H 0.0681 0.8082 0.3348
C15 C 0.1105(3) 0.7407(3) 0.3441(4)
H13 H 0.1431 0.7574 0.3517
C16 C 0.1073(3) 0.6860(3) 0.3431(5)
C17 C 0.0596(3) 0.6616(3) 0.3320(5)
H14 H 0.0574 0.6242 0.3313
C18 C 0.0150(3) 0.6918(3) 0.3220(4)
C19 C 0.2621(4) 0.6890(5) 0.5766(4)
H16 H 0.2263 0.6864 0.5874
C20 C 0.3426(4) 0.6960(6) 0.5757(4)
H17 H 0.3783 0.7010 0.5858
C21 C 0.3285(5) 0.6866(5) 0.5277(4)
H18 H 0.3513 0.6824 0.4984
C22 C 0.2464(3) 0.6770(4) 0.4818(3)
C23 C 0.2708(3) 0.6659(4) 0.4341(3)
H19 H 0.3082 0.6652 0.4319
C24 C 0.2407(3) 0.6559(4) 0.3895(3)
H20 H 0.2574 0.6483 0.3569
C25 C 0.1860(3) 0.6569(5) 0.3927(3)
C26 C 0.1616(3) 0.6680(5) 0.4404(3)
H21 H 0.1242 0.6687 0.4426
C27 C 0.1918(3) 0.6780(4) 0.4850(3)
H22 H 0.1751 0.6855 0.5176
N6 N 0.3018(3) 0.6980(4) 0.6107(3)
N7 N 0.2771(4) 0.6841(4) 0.5270(3)
Cd3 Cd 0.29989(2) 0.20011(2) 0.20011(2)
Cd4 Cd 0.29989(2) 0.70011(2) 0.70011(2)
Cd5 Cd 0.29989(2) 0.29989(2) 0.29989(2)
O2 O 0.2036(3) 0.2964(3) 0.2964(3)
O3 O 0.2036(3) 0.2036(3) 0.2036(3)
N8 N 0.1982(3) 0.3020(4) 0.1107(3)
N9 N 0.1107(3) 0.3018(3) 0.1980(4)
C10 C 0.9234(4) 0.7621(4) 0.3110(5)
H9 H 0.9126 0.7263 0.3136
C11 C 0.9243(4) 0.8426(4) 0.3040(6)
H10 H 0.9142 0.8783 0.2990
C12 C 0.9723(4) 0.8285(5) 0.3134(5)
H15 H 0.9824 0.6751 0.3145
N4 N 0.8893(3) 0.8018(3) 0.3020(4)
N5 N 0.9730(3) 0.7771(4) 0.3159(4)
Cd2 Cd 0.79989(2) 0.79989(2) 0.29989(2)
C10_2 C 0.0766(4) 0.2379(4) 0.3110(5)
H9_2 H 0.0874 0.2737 0.3136
C11_2 C 0.0757(4) 0.1574(4) 0.3040(6)
H10_2 H 0.0858 0.1217 0.2990
C12_2 C 0.0277(4) 0.1715(5) 0.3134(5)
H15_2 H 0.0176 0.3249 0.3145
N4_2 N 0.1107(3) 0.1982(3) 0.3020(4)
N5_2 N 0.0270(3) 0.2229(4) 0.3159(4)
Cd2_2 Cd 0.20011(2) 0.20011(2) 0.29989(2)
Cd1_2 Cd 0.79989(2) 0.70011(2) 0.20011(2)
O1_2 O 0.7036(3) 0.7036(3) 0.2036(3)
H1_2 H 0.6808 0.6808 0.1808
C1_2 C 0.8110(5) 0.5766(4) 0.2379(4)
H2_2 H 0.8136 0.5874 0.2737
C2_2 C 0.8040(6) 0.5757(4) 0.1574(4)
H3_2 H 0.7990 0.5858 0.1217
C3_2 C 0.8134(5) 0.5277(4) 0.1715(5)
H4_2 H 0.8176 0.4984 0.1487
C4_2 C 0.8230(4) 0.4818(3) 0.2536(3)
C5_2 C 0.8341(4) 0.4341(3) 0.2292(3)
H5_2 H 0.8348 0.4319 0.1918
C6_2 C 0.8441(4) 0.3895(3) 0.2593(3)
H6_2 H 0.8517 0.3569 0.2426
C7_2 C 0.8431(5) 0.3927(3) 0.3140(3)
C8_2 C 0.8320(5) 0.4404(3) 0.3384(3)
H7_2 H 0.8313 0.4426 0.3758
C9_2 C 0.8220(4) 0.4850(3) 0.3082(3)
H8_2 H 0.8145 0.5176 0.3249
N1_2 N 0.8020(4) 0.6107(3) 0.1982(3)
N2_2 N 0.8159(4) 0.5270(3) 0.2229(4)
N3_2 N 0.8447(7) 0.3447(7) 0.3447(7)
H11_2 H 0.9984 0.1487 0.3176
C13_2 C 0.9818(3) 0.2536(3) 0.3230(4)
C14_2 C 0.9341(3) 0.2292(3) 0.3341(4)
H12_2 H 0.9319 0.1918 0.3348
C15_2 C 0.8895(3) 0.2593(3) 0.3441(4)
H13_2 H 0.8569 0.2426 0.3517
C16_2 C 0.8927(3) 0.3140(3) 0.3431(5)
C17_2 C 0.9404(3) 0.3384(3) 0.3320(5)
H14_2 H 0.9426 0.3758 0.3313
C18_2 C 0.9850(3) 0.3082(3) 0.3220(4)
C19_2 C 0.7379(4) 0.3110(5) 0.5766(4)
H16_2 H 0.7737 0.3136 0.5874
C20_2 C 0.6574(4) 0.3040(6) 0.5757(4)
H17_2 H 0.6217 0.2990 0.5858
C21_2 C 0.6715(5) 0.3134(5) 0.5277(4)
H18_2 H 0.6487 0.3176 0.4984
C22_2 C 0.7536(3) 0.3230(4) 0.4818(3)
C23_2 C 0.7292(3) 0.3341(4) 0.4341(3)
H19_2 H 0.6918 0.3348 0.4319
C24_2 C 0.7593(3) 0.3441(4) 0.3895(3)
H20_2 H 0.7426 0.3517 0.3569
C25_2 C 0.8140(3) 0.3431(5) 0.3927(3)
C26_2 C 0.8384(3) 0.3320(5) 0.4404(3)
H21_2 H 0.8758 0.3313 0.4426
C27_2 C 0.8082(3) 0.3220(4) 0.4850(3)
H22_2 H 0.8249 0.3145 0.5176
N6_2 N 0.6982(3) 0.3020(4) 0.6107(3)
N7_2 N 0.7229(4) 0.3159(4) 0.5270(3)
Cd3_2 Cd 0.70011(2) 0.79989(2) 0.20011(2)
Cd4_2 Cd 0.70011(2) 0.29989(2) 0.70011(2)
Cd5_2 Cd 0.70011(2) 0.70011(2) 0.29989(2)
O2_2 O 0.7964(3) 0.7036(3) 0.2964(3)
O3_2 O 0.7964(3) 0.7964(3) 0.2036(3)
N8_2 N 0.8018(3) 0.6980(4) 0.1107(3)
N9_2 N 0.8893(3) 0.6982(3) 0.1980(4)
C10_3 C 0.0766(4) 0.7621(4) 0.6890(5)
H9_3 H 0.0874 0.7263 0.6864
C11_3 C 0.0757(4) 0.8426(4) 0.6960(6)
H10_3 H 0.0858 0.8783 0.7010
C12_3 C 0.0277(4) 0.8285(5) 0.6866(5)
H15_3 H 0.0176 0.6751 0.6855
N4_3 N 0.1107(3) 0.8018(3) 0.6980(4)
N5_3 N 0.0270(3) 0.7771(4) 0.6841(4)
Cd2_3 Cd 0.20011(2) 0.79989(2) 0.70011(2)
Cd1_3 Cd 0.79989(2) 0.29989(2) 0.79989(2)
O1_3 O 0.7036(3) 0.2964(3) 0.7964(3)
H1_3 H 0.6808 0.3192 0.8192
C1_3 C 0.8110(5) 0.4234(4) 0.7621(4)
H2_3 H 0.8136 0.4126 0.7263
C2_3 C 0.8040(6) 0.4243(4) 0.8426(4)
H3_3 H 0.7990 0.4142 0.8783
C3_3 C 0.8134(5) 0.4723(4) 0.8285(5)
H4_3 H 0.8176 0.5016 0.8513
C4_3 C 0.8230(4) 0.5182(3) 0.7464(3)
C5_3 C 0.8341(4) 0.5659(3) 0.7708(3)
H5_3 H 0.8348 0.5681 0.8082
C6_3 C 0.8441(4) 0.6105(3) 0.7407(3)
H6_3 H 0.8517 0.6431 0.7574
C7_3 C 0.8431(5) 0.6073(3) 0.6860(3)
C8_3 C 0.8320(5) 0.5596(3) 0.6616(3)
H7_3 H 0.8313 0.5574 0.6242
C9_3 C 0.8220(4) 0.5150(3) 0.6918(3)
H8_3 H 0.8145 0.4824 0.6751
N1_3 N 0.8020(4) 0.3893(3) 0.8018(3)
N2_3 N 0.8159(4) 0.4730(3) 0.7771(4)
N3_3 N 0.8447(7) 0.6553(7) 0.6553(7)
H11_3 H 0.9984 0.8513 0.6824
C13_3 C 0.9818(3) 0.7464(3) 0.6770(4)
C14_3 C 0.9341(3) 0.7708(3) 0.6659(4)
H12_3 H 0.9319 0.8082 0.6652
C15_3 C 0.8895(3) 0.7407(3) 0.6559(4)
H13_3 H 0.8569 0.7574 0.6483
C16_3 C 0.8927(3) 0.6860(3) 0.6569(5)
C17_3 C 0.9404(3) 0.6616(3) 0.6680(5)
H14_3 H 0.9426 0.6242 0.6687
C18_3 C 0.9850(3) 0.6918(3) 0.6780(4)
C19_3 C 0.7379(4) 0.6890(5) 0.4234(4)
H16_3 H 0.7737 0.6864 0.4126
C20_3 C 0.6574(4) 0.6960(6) 0.4243(4)
H17_3 H 0.6217 0.7010 0.4142
C21_3 C 0.6715(5) 0.6866(5) 0.4723(4)
H18_3 H 0.6487 0.6824 0.5016
C22_3 C 0.7536(3) 0.6770(4) 0.5182(3)
C23_3 C 0.7292(3) 0.6659(4) 0.5659(3)
H19_3 H 0.6918 0.6652 0.5681
C24_3 C 0.7593(3) 0.6559(4) 0.6105(3)
H20_3 H 0.7426 0.6483 0.6431
C25_3 C 0.8140(3) 0.6569(5) 0.6073(3)
C26_3 C 0.8384(3) 0.6680(5) 0.5596(3)
H21_3 H 0.8758 0.6687 0.5574
C27_3 C 0.8082(3) 0.6780(4) 0.5150(3)
H22_3 H 0.8249 0.6855 0.4824
N6_3 N 0.6982(3) 0.6980(4) 0.3893(3)
N7_3 N 0.7229(4) 0.6841(4) 0.4730(3)
Cd3_3 Cd 0.70011(2) 0.20011(2) 0.79989(2)
O2_3 O 0.7964(3) 0.2964(3) 0.7036(3)
O3_3 O 0.7964(3) 0.2036(3) 0.7964(3)
N8_3 N 0.8018(3) 0.3020(4) 0.8893(3)
N9_3 N 0.8893(3) 0.3018(3) 0.8020(4)
Cd1_4 Cd 0.20011(2) 0.70011(2) 0.79989(2)
O1_4 O 0.2964(3) 0.7036(3) 0.7964(3)
H1_4 H 0.3192 0.6808 0.8192
C1_4 C 0.1890(5) 0.5766(4) 0.7621(4)
H2_4 H 0.1864 0.5874 0.7263
C2_4 C 0.1960(6) 0.5757(4) 0.8426(4)
H3_4 H 0.2010 0.5858 0.8783
C3_4 C 0.1866(5) 0.5277(4) 0.8285(5)
H4_4 H 0.1824 0.4984 0.8513
C4_4 C 0.1770(4) 0.4818(3) 0.7464(3)
C5_4 C 0.1659(4) 0.4341(3) 0.7708(3)
H5_4 H 0.1652 0.4319 0.8082
C6_4 C 0.1559(4) 0.3895(3) 0.7407(3)
H6_4 H 0.1483 0.3569 0.7574
C7_4 C 0.1569(5) 0.3927(3) 0.6860(3)
C8_4 C 0.1680(5) 0.4404(3) 0.6616(3)
H7_4 H 0.1687 0.4426 0.6242
C9_4 C 0.1780(4) 0.4850(3) 0.6918(3)
H8_4 H 0.1855 0.5176 0.6751
N1_4 N 0.1980(4) 0.6107(3) 0.8018(3)
N2_4 N 0.1841(4) 0.5270(3) 0.7771(4)
N3_4 N 0.1553(7) 0.3447(7) 0.6553(7)
H11_4 H 0.0016 0.1487 0.6824
C13_4 C 0.0182(3) 0.2536(3) 0.6770(4)
C14_4 C 0.0659(3) 0.2292(3) 0.6659(4)
H12_4 H 0.0681 0.1918 0.6652
C15_4 C 0.1105(3) 0.2593(3) 0.6559(4)
H13_4 H 0.1431 0.2426 0.6483
C16_4 C 0.1073(3) 0.3140(3) 0.6569(5)
C17_4 C 0.0596(3) 0.3384(3) 0.6680(5)
H14_4 H 0.0574 0.3758 0.6687
C18_4 C 0.0150(3) 0.3082(3) 0.6780(4)
C19_4 C 0.2621(4) 0.3110(5) 0.4234(4)
H16_4 H 0.2263 0.3136 0.4126
C20_4 C 0.3426(4) 0.3040(6) 0.4243(4)
H17_4 H 0.3783 0.2990 0.4142
C21_4 C 0.3285(5) 0.3134(5) 0.4723(4)
H18_4 H 0.3513 0.3176 0.5016
C22_4 C 0.2464(3) 0.3230(4) 0.5182(3)
C23_4 C 0.2708(3) 0.3341(4) 0.5659(3)
H19_4 H 0.3082 0.3348 0.5681
C24_4 C 0.2407(3) 0.3441(4) 0.6105(3)
H20_4 H 0.2574 0.3517 0.6431
C25_4 C 0.1860(3) 0.3431(5) 0.6073(3)
C26_4 C 0.1616(3) 0.3320(5) 0.5596(3)
H21_4 H 0.1242 0.3313 0.5574
C27_4 C 0.1918(3) 0.3220(4) 0.5150(3)
H22_4 H 0.1751 0.3145 0.4824
N6_4 N 0.3018(3) 0.3020(4) 0.3893(3)
N7_4 N 0.2771(4) 0.3159(4) 0.4730(3)
Cd3_4 Cd 0.29989(2) 0.79989(2) 0.79989(2)
O2_4 O 0.2036(3) 0.7036(3) 0.7036(3)
O3_4 O 0.2036(3) 0.7964(3) 0.7964(3)
N8_4 N 0.1982(3) 0.6980(4) 0.8893(3)
N9_4 N 0.1107(3) 0.6982(3) 0.8020(4)
C10_4 C 0.9234(4) 0.2379(4) 0.6890(5)
H9_4 H 0.9126 0.2737 0.6864
C11_4 C 0.9243(4) 0.1574(4) 0.6960(6)
H10_4 H 0.9142 0.1217 0.7010
C12_4 C 0.9723(4) 0.1715(5) 0.6866(5)
H15_4 H 0.9824 0.3249 0.6855
N4_4 N 0.8893(3) 0.1982(3) 0.6980(4)
N5_4 N 0.9730(3) 0.2229(4) 0.6841(4)
Cd2_4 Cd 0.79989(2) 0.20011(2) 0.70011(2)
H1_5 H 0.1808 0.3192 0.3192
C1_5 C 0.2379(4) 0.1890(5) 0.4234(4)
H2_5 H 0.2737 0.1864 0.4126
C2_5 C 0.1574(4) 0.1960(6) 0.4243(4)
H3_5 H 0.1217 0.2010 0.4142
C3_5 C 0.1715(5) 0.1866(5) 0.4723(4)
H4_5 H 0.1487 0.1824 0.5016
C4_5 C 0.2536(3) 0.1770(4) 0.5182(3)
C5_5 C 0.2292(3) 0.1659(4) 0.5659(3)
H5_5 H 0.1918 0.1652 0.5681
C6_5 C 0.2593(3) 0.1559(4) 0.6105(3)
H6_5 H 0.2426 0.1483 0.6431
C7_5 C 0.3140(3) 0.1569(5) 0.6073(3)
C8_5 C 0.3384(3) 0.1680(5) 0.5596(3)
H7_5 H 0.3758 0.1687 0.5574
C9_5 C 0.3082(3) 0.1780(4) 0.5150(3)
H8_5 H 0.3249 0.1855 0.4824
N1_5 N 0.1982(3) 0.1980(4) 0.3893(3)
N2_5 N 0.2229(4) 0.1841(4) 0.4730(3)
N3_5 N 0.3447(7) 0.1553(7) 0.6553(7)
H11_5 H 0.3176 0.0016 0.8513
C13_5 C 0.3230(4) 0.0182(3) 0.7464(3)
C14_5 C 0.3341(4) 0.0659(3) 0.7708(3)
H12_5 H 0.3348 0.0681 0.8082
C15_5 C 0.3441(4) 0.1105(3) 0.7407(3)
H13_5 H 0.3517 0.1431 0.7574
C16_5 C 0.3431(5) 0.1073(3) 0.6860(3)
C17_5 C 0.3320(5) 0.0596(3) 0.6616(3)
H14_5 H 0.3313 0.0574 0.6242
C18_5 C 0.3220(4) 0.0150(3) 0.6918(3)
C19_5 C 0.5766(4) 0.2621(4) 0.6890(5)
H16_5 H 0.5874 0.2263 0.6864
C20_5 C 0.5757(4) 0.3426(4) 0.6960(6)
H17_5 H 0.5858 0.3783 0.7010
C21_5 C 0.5277(4) 0.3285(5) 0.6866(5)
H18_5 H 0.4984 0.3513 0.6824
C22_5 C 0.4818(3) 0.2464(3) 0.6770(4)
C23_5 C 0.4341(3) 0.2708(3) 0.6659(4)
H19_5 H 0.4319 0.3082 0.6652
C24_5 C 0.3895(3) 0.2407(3) 0.6559(4)
H20_5 H 0.3569 0.2574 0.6483
C25_5 C 0.3927(3) 0.1860(3) 0.6569(5)
C26_5 C 0.4404(3) 0.1616(3) 0.6680(5)
H21_5 H 0.4426 0.1242 0.6687
C27_5 C 0.4850(3) 0.1918(3) 0.6780(4)
H22_5 H 0.5176 0.1751 0.6855
N6_5 N 0.6107(3) 0.3018(3) 0.6980(4)
N7_5 N 0.5270(3) 0.2771(4) 0.6841(4)
O2_5 O 0.2964(3) 0.2036(3) 0.2964(3)
N9_5 N 0.1980(4) 0.1107(3) 0.3018(3)
C10_5 C 0.3110(5) 0.9234(4) 0.7621(4)
H9_5 H 0.3136 0.9126 0.7263
C11_5 C 0.3040(6) 0.9243(4) 0.8426(4)
H10_5 H 0.2990 0.9142 0.8783
C12_5 C 0.3134(5) 0.9723(4) 0.8285(5)
H15_5 H 0.3145 0.9824 0.6751
N4_5 N 0.3020(4) 0.8893(3) 0.8018(3)
N5_5 N 0.3159(4) 0.9730(3) 0.7771(4)
C10_6 C 0.3110(5) 0.0766(4) 0.2379(4)
H9_6 H 0.3136 0.0874 0.2737
C11_6 C 0.3040(6) 0.0757(4) 0.1574(4)
H10_6 H 0.2990 0.0858 0.1217
C12_6 C 0.3134(5) 0.0277(4) 0.1715(5)
H15_6 H 0.3145 0.0176 0.3249
N4_6 N 0.3020(4) 0.1107(3) 0.1982(3)
N5_6 N 0.3159(4) 0.0270(3) 0.2229(4)
H1_6 H 0.1808 0.6808 0.6808
C1_6 C 0.2379(4) 0.8110(5) 0.5766(4)
H2_6 H 0.2737 0.8136 0.5874
C2_6 C 0.1574(4) 0.8040(6) 0.5757(4)
H3_6 H 0.1217 0.7990 0.5858
C3_6 C 0.1715(5) 0.8134(5) 0.5277(4)
H4_6 H 0.1487 0.8176 0.4984
C4_6 C 0.2536(3) 0.8230(4) 0.4818(3)
C5_6 C 0.2292(3) 0.8341(4) 0.4341(3)
H5_6 H 0.1918 0.8348 0.4319
C6_6 C 0.2593(3) 0.8441(4) 0.3895(3)
H6_6 H 0.2426 0.8517 0.3569
C7_6 C 0.3140(3) 0.8431(5) 0.3927(3)
C8_6 C 0.3384(3) 0.8320(5) 0.4404(3)
H7_6 H 0.3758 0.8313 0.4426
C9_6 C 0.3082(3) 0.8220(4) 0.4850(3)
H8_6 H 0.3249 0.8145 0.5176
N1_6 N 0.1982(3) 0.8020(4) 0.6107(3)
N2_6 N 0.2229(4) 0.8159(4) 0.5270(3)
N3_6 N 0.3447(7) 0.8447(7) 0.3447(7)
H11_6 H 0.3176 0.9984 0.1487
C13_6 C 0.3230(4) 0.9818(3) 0.2536(3)
C14_6 C 0.3341(4) 0.9341(3) 0.2292(3)
H12_6 H 0.3348 0.9319 0.1918
C15_6 C 0.3441(4) 0.8895(3) 0.2593(3)
H13_6 H 0.3517 0.8569 0.2426
C16_6 C 0.3431(5) 0.8927(3) 0.3140(3)
C17_6 C 0.3320(5) 0.9404(3) 0.3384(3)
H14_6 H 0.3313 0.9426 0.3758
C18_6 C 0.3220(4) 0.9850(3) 0.3082(3)
C19_6 C 0.5766(4) 0.7379(4) 0.3110(5)
H16_6 H 0.5874 0.7737 0.3136
C20_6 C 0.5757(4) 0.6574(4) 0.3040(6)
H17_6 H 0.5858 0.6217 0.2990
C21_6 C 0.5277(4) 0.6715(5) 0.3134(5)
H18_6 H 0.4984 0.6487 0.3176
C22_6 C 0.4818(3) 0.7536(3) 0.3230(4)
C23_6 C 0.4341(3) 0.7292(3) 0.3341(4)
H19_6 H 0.4319 0.6918 0.3348
C24_6 C 0.3895(3) 0.7593(3) 0.3441(4)
H20_6 H 0.3569 0.7426 0.3517
C25_6 C 0.3927(3) 0.8140(3) 0.3431(5)
C26_6 C 0.4404(3) 0.8384(3) 0.3320(5)
H21_6 H 0.4426 0.8758 0.3313
C27_6 C 0.4850(3) 0.8082(3) 0.3220(4)
H22_6 H 0.5176 0.8249 0.3145
N6_6 N 0.6107(3) 0.6982(3) 0.3020(4)
N7_6 N 0.5270(3) 0.7229(4) 0.3159(4)
O2_6 O 0.2964(3) 0.7964(3) 0.7036(3)
N9_6 N 0.1980(4) 0.8893(3) 0.6982(3)
C10_7 C 0.6890(5) 0.0766(4) 0.7621(4)
H9_7 H 0.6864 0.0874 0.7263
C11_7 C 0.6960(6) 0.0757(4) 0.8426(4)
H10_7 H 0.7010 0.0858 0.8783
C12_7 C 0.6866(5) 0.0277(4) 0.8285(5)
H15_7 H 0.6855 0.0176 0.6751
N4_7 N 0.6980(4) 0.1107(3) 0.8018(3)
N5_7 N 0.6841(4) 0.0270(3) 0.7771(4)
H1_7 H 0.8192 0.6808 0.3192
C1_7 C 0.7621(4) 0.8110(5) 0.4234(4)
H2_7 H 0.7263 0.8136 0.4126
C2_7 C 0.8426(4) 0.8040(6) 0.4243(4)
H3_7 H 0.8783 0.7990 0.4142
C3_7 C 0.8285(5) 0.8134(5) 0.4723(4)
H4_7 H 0.8513 0.8176 0.5016
C4_7 C 0.7464(3) 0.8230(4) 0.5182(3)
C5_7 C 0.7708(3) 0.8341(4) 0.5659(3)
H5_7 H 0.8082 0.8348 0.5681
C6_7 C 0.7407(3) 0.8441(4) 0.6105(3)
H6_7 H 0.7574 0.8517 0.6431
C7_7 C 0.6860(3) 0.8431(5) 0.6073(3)
C8_7 C 0.6616(3) 0.8320(5) 0.5596(3)
H7_7 H 0.6242 0.8313 0.5574
C9_7 C 0.6918(3) 0.8220(4) 0.5150(3)
H8_7 H 0.6751 0.8145 0.4824
N1_7 N 0.8018(3) 0.8020(4) 0.3893(3)
N2_7 N 0.7771(4) 0.8159(4) 0.4730(3)
N3_7 N 0.6553(7) 0.8447(7) 0.6553(7)
H11_7 H 0.6824 0.9984 0.8513
C13_7 C 0.6770(4) 0.9818(3) 0.7464(3)
C14_7 C 0.6659(4) 0.9341(3) 0.7708(3)
H12_7 H 0.6652 0.9319 0.8082
C15_7 C 0.6559(4) 0.8895(3) 0.7407(3)
H13_7 H 0.6483 0.8569 0.7574
C16_7 C 0.6569(5) 0.8927(3) 0.6860(3)
C17_7 C 0.6680(5) 0.9404(3) 0.6616(3)
H14_7 H 0.6687 0.9426 0.6242
C18_7 C 0.6780(4) 0.9850(3) 0.6918(3)
C19_7 C 0.4234(4) 0.7379(4) 0.6890(5)
H16_7 H 0.4126 0.7737 0.6864
C20_7 C 0.4243(4) 0.6574(4) 0.6960(6)
H17_7 H 0.4142 0.6217 0.7010
C21_7 C 0.4723(4) 0.6715(5) 0.6866(5)
H18_7 H 0.5016 0.6487 0.6824
C22_7 C 0.5182(3) 0.7536(3) 0.6770(4)
C23_7 C 0.5659(3) 0.7292(3) 0.6659(4)
H19_7 H 0.5681 0.6918 0.6652
C24_7 C 0.6105(3) 0.7593(3) 0.6559(4)
H20_7 H 0.6431 0.7426 0.6483
C25_7 C 0.6073(3) 0.8140(3) 0.6569(5)
C26_7 C 0.5596(3) 0.8384(3) 0.6680(5)
H21_7 H 0.5574 0.8758 0.6687
C27_7 C 0.5150(3) 0.8082(3) 0.6780(4)
H22_7 H 0.4824 0.8249 0.6855
N6_7 N 0.3893(3) 0.6982(3) 0.6980(4)
N7_7 N 0.4730(3) 0.7229(4) 0.6841(4)
O2_7 O 0.7036(3) 0.7964(3) 0.2964(3)
N9_7 N 0.8020(4) 0.8893(3) 0.3018(3)
H1_8 H 0.8192 0.3192 0.6808
C1_8 C 0.7621(4) 0.1890(5) 0.5766(4)
H2_8 H 0.7263 0.1864 0.5874
C2_8 C 0.8426(4) 0.1960(6) 0.5757(4)
H3_8 H 0.8783 0.2010 0.5858
C3_8 C 0.8285(5) 0.1866(5) 0.5277(4)
H4_8 H 0.8513 0.1824 0.4984
C4_8 C 0.7464(3) 0.1770(4) 0.4818(3)
C5_8 C 0.7708(3) 0.1659(4) 0.4341(3)
H5_8 H 0.8082 0.1652 0.4319
C6_8 C 0.7407(3) 0.1559(4) 0.3895(3)
H6_8 H 0.7574 0.1483 0.3569
C7_8 C 0.6860(3) 0.1569(5) 0.3927(3)
C8_8 C 0.6616(3) 0.1680(5) 0.4404(3)
H7_8 H 0.6242 0.1687 0.4426
C9_8 C 0.6918(3) 0.1780(4) 0.4850(3)
H8_8 H 0.6751 0.1855 0.5176
N1_8 N 0.8018(3) 0.1980(4) 0.6107(3)
N2_8 N 0.7771(4) 0.1841(4) 0.5270(3)
N3_8 N 0.6553(7) 0.1553(7) 0.3447(7)
H11_8 H 0.6824 0.0016 0.1487
C13_8 C 0.6770(4) 0.0182(3) 0.2536(3)
C14_8 C 0.6659(4) 0.0659(3) 0.2292(3)
H12_8 H 0.6652 0.0681 0.1918
C15_8 C 0.6559(4) 0.1105(3) 0.2593(3)
H13_8 H 0.6483 0.1431 0.2426
C16_8 C 0.6569(5) 0.1073(3) 0.3140(3)
C17_8 C 0.6680(5) 0.0596(3) 0.3384(3)
H14_8 H 0.6687 0.0574 0.3758
C18_8 C 0.6780(4) 0.0150(3) 0.3082(3)
C19_8 C 0.4234(4) 0.2621(4) 0.3110(5)
H16_8 H 0.4126 0.2263 0.3136
C20_8 C 0.4243(4) 0.3426(4) 0.3040(6)
H17_8 H 0.4142 0.3783 0.2990
C21_8 C 0.4723(4) 0.3285(5) 0.3134(5)
H18_8 H 0.5016 0.3513 0.3176
C22_8 C 0.5182(3) 0.2464(3) 0.3230(4)
C23_8 C 0.5659(3) 0.2708(3) 0.3341(4)
H19_8 H 0.5681 0.3082 0.3348
C24_8 C 0.6105(3) 0.2407(3) 0.3441(4)
H20_8 H 0.6431 0.2574 0.3517
C25_8 C 0.6073(3) 0.1860(3) 0.3431(5)
C26_8 C 0.5596(3) 0.1616(3) 0.3320(5)
H21_8 H 0.5574 0.1242 0.3313
C27_8 C 0.5150(3) 0.1918(3) 0.3220(4)
H22_8 H 0.4824 0.1751 0.3145
N6_8 N 0.3893(3) 0.3018(3) 0.3020(4)
N7_8 N 0.4730(3) 0.2771(4) 0.3159(4)
O2_8 O 0.7036(3) 0.2036(3) 0.7036(3)
N9_8 N 0.8020(4) 0.1107(3) 0.6982(3)
C10_8 C 0.6890(5) 0.9234(4) 0.2379(4)
H9_8 H 0.6864 0.9126 0.2737
C11_8 C 0.6960(6) 0.9243(4) 0.1574(4)
H10_8 H 0.7010 0.9142 0.1217
C12_8 C 0.6866(5) 0.9723(4) 0.1715(5)
H15_8 H 0.6855 0.9824 0.3249
N4_8 N 0.6980(4) 0.8893(3) 0.1982(3)
N5_8 N 0.6841(4) 0.9730(3) 0.2229(4)
H1_9 H 0.3192 0.1808 0.3192
C1_9 C 0.4234(4) 0.2379(4) 0.1890(5)
H2_9 H 0.4126 0.2737 0.1864
C2_9 C 0.4243(4) 0.1574(4) 0.1960(6)
H3_9 H 0.4142 0.1217 0.2010
C3_9 C 0.4723(4) 0.1715(5) 0.1866(5)
H4_9 H 0.5016 0.1487 0.1824
C4_9 C 0.5182(3) 0.2536(3) 0.1770(4)
C5_9 C 0.5659(3) 0.2292(3) 0.1659(4)
H5_9 H 0.5681 0.1918 0.1652
C6_9 C 0.6105(3) 0.2593(3) 0.1559(4)
H6_9 H 0.6431 0.2426 0.1483
C7_9 C 0.6073(3) 0.3140(3) 0.1569(5)
C8_9 C 0.5596(3) 0.3384(3) 0.1680(5)
H7_9 H 0.5574 0.3758 0.1687
C9_9 C 0.5150(3) 0.3082(3) 0.1780(4)
H8_9 H 0.4824 0.3249 0.1855
N1_9 N 0.3893(3) 0.1982(3) 0.1980(4)
N2_9 N 0.4730(3) 0.2229(4) 0.1841(4)
N3_9 N 0.6553(7) 0.3447(7) 0.1553(7)
H11_9 H 0.8513 0.3176 0.0016
C13_9 C 0.7464(3) 0.3230(4) 0.0182(3)
C14_9 C 0.7708(3) 0.3341(4) 0.0659(3)
H12_9 H 0.8082 0.3348 0.0681
C15_9 C 0.7407(3) 0.3441(4) 0.1105(3)
H13_9 H 0.7574 0.3517 0.1431
C16_9 C 0.6860(3) 0.3431(5) 0.1073(3)
C17_9 C 0.6616(3) 0.3320(5) 0.0596(3)
H14_9 H 0.6242 0.3313 0.0574
C18_9 C 0.6918(3) 0.3220(4) 0.0150(3)
C19_9 C 0.6890(5) 0.5766(4) 0.2621(4)
H16_9 H 0.6864 0.5874 0.2263
C20_9 C 0.6960(6) 0.5757(4) 0.3426(4)
H17_9 H 0.7010 0.5858 0.3783
C21_9 C 0.6866(5) 0.5277(4) 0.3285(5)
H18_9 H 0.6824 0.4984 0.3513
C22_9 C 0.6770(4) 0.4818(3) 0.2464(3)
C23_9 C 0.6659(4) 0.4341(3) 0.2708(3)
H19_9 H 0.6652 0.4319 0.3082
C24_9 C 0.6559(4) 0.3895(3) 0.2407(3)
H20_9 H 0.6483 0.3569 0.2574
C25_9 C 0.6569(5) 0.3927(3) 0.1860(3)
C26_9 C 0.6680(5) 0.4404(3) 0.1616(3)
H21_9 H 0.6687 0.4426 0.1242
C27_9 C 0.6780(4) 0.4850(3) 0.1918(3)
H22_9 H 0.6855 0.5176 0.1751
N6_9 N 0.6980(4) 0.6107(3) 0.3018(3)
N7_9 N 0.6841(4) 0.5270(3) 0.2771(4)
N9_9 N 0.3018(3) 0.1980(4) 0.1107(3)
C10_9 C 0.7621(4) 0.3110(5) 0.9234(4)
H9_9 H 0.7263 0.3136 0.9126
C11_9 C 0.8426(4) 0.3040(6) 0.9243(4)
H10_9 H 0.8783 0.2990 0.9142
C12_9 C 0.8285(5) 0.3134(5) 0.9723(4)
H15_9 H 0.6751 0.3145 0.9824
N5_9 N 0.7771(4) 0.3159(4) 0.9730(3)
C10_10 C 0.2379(4) 0.3110(5) 0.0766(4)
H9_10 H 0.2737 0.3136 0.0874
C11_10 C 0.1574(4) 0.3040(6) 0.0757(4)
H10_10 H 0.1217 0.2990 0.0858
C12_10 C 0.1715(5) 0.3134(5) 0.0277(4)
H15_10 H 0.3249 0.3145 0.0176
N5_10 N 0.2229(4) 0.3159(4) 0.0270(3)
H1_10 H 0.6808 0.1808 0.6808
C1_10 C 0.5766(4) 0.2379(4) 0.8110(5)
H2_10 H 0.5874 0.2737 0.8136
C2_10 C 0.5757(4) 0.1574(4) 0.8040(6)
H3_10 H 0.5858 0.1217 0.7990
C3_10 C 0.5277(4) 0.1715(5) 0.8134(5)
H4_10 H 0.4984 0.1487 0.8176
C4_10 C 0.4818(3) 0.2536(3) 0.8230(4)
C5_10 C 0.4341(3) 0.2292(3) 0.8341(4)
H5_10 H 0.4319 0.1918 0.8348
C6_10 C 0.3895(3) 0.2593(3) 0.8441(4)
H6_10 H 0.3569 0.2426 0.8517
C7_10 C 0.3927(3) 0.3140(3) 0.8431(5)
C8_10 C 0.4404(3) 0.3384(3) 0.8320(5)
H7_10 H 0.4426 0.3758 0.8313
C9_10 C 0.4850(3) 0.3082(3) 0.8220(4)
H8_10 H 0.5176 0.3249 0.8145
N1_10 N 0.6107(3) 0.1982(3) 0.8020(4)
N2_10 N 0.5270(3) 0.2229(4) 0.8159(4)
N3_10 N 0.3447(7) 0.3447(7) 0.8447(7)
H11_10 H 0.1487 0.3176 0.9984
C13_10 C 0.2536(3) 0.3230(4) 0.9818(3)
C14_10 C 0.2292(3) 0.3341(4) 0.9341(3)
H12_10 H 0.1918 0.3348 0.9319
C15_10 C 0.2593(3) 0.3441(4) 0.8895(3)
H13_10 H 0.2426 0.3517 0.8569
C16_10 C 0.3140(3) 0.3431(5) 0.8927(3)
C17_10 C 0.3384(3) 0.3320(5) 0.9404(3)
H14_10 H 0.3758 0.3313 0.9426
C18_10 C 0.3082(3) 0.3220(4) 0.9850(3)
C19_10 C 0.3110(5) 0.5766(4) 0.7379(4)
H16_10 H 0.3136 0.5874 0.7737
C20_10 C 0.3040(6) 0.5757(4) 0.6574(4)
H17_10 H 0.2990 0.5858 0.6217
C21_10 C 0.3134(5) 0.5277(4) 0.6715(5)
H18_10 H 0.3176 0.4984 0.6487
C22_10 C 0.3230(4) 0.4818(3) 0.7536(3)
C23_10 C 0.3341(4) 0.4341(3) 0.7292(3)
H19_10 H 0.3348 0.4319 0.6918
C24_10 C 0.3441(4) 0.3895(3) 0.7593(3)
H20_10 H 0.3517 0.3569 0.7426
C25_10 C 0.3431(5) 0.3927(3) 0.8140(3)
C26_10 C 0.3320(5) 0.4404(3) 0.8384(3)
H21_10 H 0.3313 0.4426 0.8758
C27_10 C 0.3220(4) 0.4850(3) 0.8082(3)
H22_10 H 0.3145 0.5176 0.8249
N6_10 N 0.3020(4) 0.6107(3) 0.6982(3)
N7_10 N 0.3159(4) 0.5270(3) 0.7229(4)
N9_10 N 0.6982(3) 0.1980(4) 0.8893(3)
C10_11 C 0.7621(4) 0.6890(5) 0.0766(4)
H9_11 H 0.7263 0.6864 0.0874
C11_11 C 0.8426(4) 0.6960(6) 0.0757(4)
H10_11 H 0.8783 0.7010 0.0858
C12_11 C 0.8285(5) 0.6866(5) 0.0277(4)
H15_11 H 0.6751 0.6855 0.0176
N5_11 N 0.7771(4) 0.6841(4) 0.0270(3)
H1_11 H 0.3192 0.8192 0.6808
C1_11 C 0.4234(4) 0.7621(4) 0.8110(5)
H2_11 H 0.4126 0.7263 0.8136
C2_11 C 0.4243(4) 0.8426(4) 0.8040(6)
H3_11 H 0.4142 0.8783 0.7990
C3_11 C 0.4723(4) 0.8285(5) 0.8134(5)
H4_11 H 0.5016 0.8513 0.8176
C4_11 C 0.5182(3) 0.7464(3) 0.8230(4)
C5_11 C 0.5659(3) 0.7708(3) 0.8341(4)
H5_11 H 0.5681 0.8082 0.8348
C6_11 C 0.6105(3) 0.7407(3) 0.8441(4)
H6_11 H 0.6431 0.7574 0.8517
C7_11 C 0.6073(3) 0.6860(3) 0.8431(5)
C8_11 C 0.5596(3) 0.6616(3) 0.8320(5)
H7_11 H 0.5574 0.6242 0.8313
C9_11 C 0.5150(3) 0.6918(3) 0.8220(4)
H8_11 H 0.4824 0.6751 0.8145
N1_11 N 0.3893(3) 0.8018(3) 0.8020(4)
N2_11 N 0.4730(3) 0.7771(4) 0.8159(4)
N3_11 N 0.6553(7) 0.6553(7) 0.8447(7)
H11_11 H 0.8513 0.6824 0.9984
C13_11 C 0.7464(3) 0.6770(4) 0.9818(3)
C14_11 C 0.7708(3) 0.6659(4) 0.9341(3)
H12_11 H 0.8082 0.6652 0.9319
C15_11 C 0.7407(3) 0.6559(4) 0.8895(3)
H13_11 H 0.7574 0.6483 0.8569
C16_11 C 0.6860(3) 0.6569(5) 0.8927(3)
C17_11 C 0.6616(3) 0.6680(5) 0.9404(3)
H14_11 H 0.6242 0.6687 0.9426
C18_11 C 0.6918(3) 0.6780(4) 0.9850(3)
C19_11 C 0.6890(5) 0.4234(4) 0.7379(4)
H16_11 H 0.6864 0.4126 0.7737
C20_11 C 0.6960(6) 0.4243(4) 0.6574(4)
H17_11 H 0.7010 0.4142 0.6217
C21_11 C 0.6866(5) 0.4723(4) 0.6715(5)
H18_11 H 0.6824 0.5016 0.6487
C22_11 C 0.6770(4) 0.5182(3) 0.7536(3)
C23_11 C 0.6659(4) 0.5659(3) 0.7292(3)
H19_11 H 0.6652 0.5681 0.6918
C24_11 C 0.6559(4) 0.6105(3) 0.7593(3)
H20_11 H 0.6483 0.6431 0.7426
C25_11 C 0.6569(5) 0.6073(3) 0.8140(3)
C26_11 C 0.6680(5) 0.5596(3) 0.8384(3)
H21_11 H 0.6687 0.5574 0.8758
C27_11 C 0.6780(4) 0.5150(3) 0.8082(3)
H22_11 H 0.6855 0.4824 0.8249
N6_11 N 0.6980(4) 0.3893(3) 0.6982(3)
N7_11 N 0.6841(4) 0.4730(3) 0.7229(4)
N9_11 N 0.3018(3) 0.8020(4) 0.8893(3)
H1_12 H 0.6808 0.8192 0.3192
C1_12 C 0.5766(4) 0.7621(4) 0.1890(5)
H2_12 H 0.5874 0.7263 0.1864
C2_12 C 0.5757(4) 0.8426(4) 0.1960(6)
H3_12 H 0.5858 0.8783 0.2010
C3_12 C 0.5277(4) 0.8285(5) 0.1866(5)
H4_12 H 0.4984 0.8513 0.1824
C4_12 C 0.4818(3) 0.7464(3) 0.1770(4)
C5_12 C 0.4341(3) 0.7708(3) 0.1659(4)
H5_12 H 0.4319 0.8082 0.1652
C6_12 C 0.3895(3) 0.7407(3) 0.1559(4)
H6_12 H 0.3569 0.7574 0.1483
C7_12 C 0.3927(3) 0.6860(3) 0.1569(5)
C8_12 C 0.4404(3) 0.6616(3) 0.1680(5)
H7_12 H 0.4426 0.6242 0.1687
C9_12 C 0.4850(3) 0.6918(3) 0.1780(4)
H8_12 H 0.5176 0.6751 0.1855
N1_12 N 0.6107(3) 0.8018(3) 0.1980(4)
N2_12 N 0.5270(3) 0.7771(4) 0.1841(4)
N3_12 N 0.3447(7) 0.6553(7) 0.1553(7)
H11_12 H 0.1487 0.6824 0.0016
C13_12 C 0.2536(3) 0.6770(4) 0.0182(3)
C14_12 C 0.2292(3) 0.6659(4) 0.0659(3)
H12_12 H 0.1918 0.6652 0.0681
C15_12 C 0.2593(3) 0.6559(4) 0.1105(3)
H13_12 H 0.2426 0.6483 0.1431
C16_12 C 0.3140(3) 0.6569(5) 0.1073(3)
C17_12 C 0.3384(3) 0.6680(5) 0.0596(3)
H14_12 H 0.3758 0.6687 0.0574
C18_12 C 0.3082(3) 0.6780(4) 0.0150(3)
C19_12 C 0.3110(5) 0.4234(4) 0.2621(4)
H16_12 H 0.3136 0.4126 0.2263
C20_12 C 0.3040(6) 0.4243(4) 0.3426(4)
H17_12 H 0.2990 0.4142 0.3783
C21_12 C 0.3134(5) 0.4723(4) 0.3285(5)
H18_12 H 0.3176 0.5016 0.3513
C22_12 C 0.3230(4) 0.5182(3) 0.2464(3)
C23_12 C 0.3341(4) 0.5659(3) 0.2708(3)
H19_12 H 0.3348 0.5681 0.3082
C24_12 C 0.3441(4) 0.6105(3) 0.2407(3)
H20_12 H 0.3517 0.6431 0.2574
C25_12 C 0.3431(5) 0.6073(3) 0.1860(3)
C26_12 C 0.3320(5) 0.5596(3) 0.1616(3)
H21_12 H 0.3313 0.5574 0.1242
C27_12 C 0.3220(4) 0.5150(3) 0.1918(3)
H22_12 H 0.3145 0.4824 0.1751
N6_12 N 0.3020(4) 0.3893(3) 0.3018(3)
N7_12 N 0.3159(4) 0.4730(3) 0.2771(4)
N9_12 N 0.6982(3) 0.8020(4) 0.1107(3)
C10_12 C 0.2379(4) 0.6890(5) 0.9234(4)
H9_12 H 0.2737 0.6864 0.9126
C11_12 C 0.1574(4) 0.6960(6) 0.9243(4)
H10_12 H 0.1217 0.7010 0.9142
C12_12 C 0.1715(5) 0.6866(5) 0.9723(4)
H15_12 H 0.3249 0.6855 0.9824
N5_12 N 0.2229(4) 0.6841(4) 0.9730(3)
C19_13 C 0.2621(4) 0.1890(5) 0.0766(4)
H16_13 H 0.2263 0.1864 0.0874
C20_13 C 0.3426(4) 0.1960(6) 0.0757(4)
H17_13 H 0.3783 0.2010 0.0858
C21_13 C 0.3285(5) 0.1866(5) 0.0277(4)
H22_13 H 0.1751 0.1855 0.0176
N7_13 N 0.2771(4) 0.1841(4) 0.0270(3)
C1_13 C 0.1890(5) 0.9234(4) 0.7379(4)
H2_13 H 0.1864 0.9126 0.7737
C2_13 C 0.1960(6) 0.9243(4) 0.6574(4)
H3_13 H 0.2010 0.9142 0.6217
C3_13 C 0.1866(5) 0.9723(4) 0.6715(5)
H8_13 H 0.1855 0.9824 0.8249
N2_13 N 0.1841(4) 0.9730(3) 0.7229(4)
C10_13 C 0.9234(4) 0.2621(4) 0.8110(5)
H9_13 H 0.9126 0.2263 0.8136
C11_13 C 0.9243(4) 0.3426(4) 0.8040(6)
H10_13 H 0.9142 0.3783 0.7990
C12_13 C 0.9723(4) 0.3285(5) 0.8134(5)
H15_13 H 0.9824 0.1751 0.8145
N5_13 N 0.9730(3) 0.2771(4) 0.8159(4)
C10_14 C 0.0766(4) 0.7379(4) 0.8110(5)
H9_14 H 0.0874 0.7737 0.8136
C11_14 C 0.0757(4) 0.6574(4) 0.8040(6)
H10_14 H 0.0858 0.6217 0.7990
C12_14 C 0.0277(4) 0.6715(5) 0.8134(5)
H15_14 H 0.0176 0.8249 0.8145
N5_14 N 0.0270(3) 0.7229(4) 0.8159(4)
C1_14 C 0.8110(5) 0.0766(4) 0.7379(4)
H2_14 H 0.8136 0.0874 0.7737
C2_14 C 0.8040(6) 0.0757(4) 0.6574(4)
H3_14 H 0.7990 0.0858 0.6217
C3_14 C 0.8134(5) 0.0277(4) 0.6715(5)
H8_14 H 0.8145 0.0176 0.8249
N2_14 N 0.8159(4) 0.0270(3) 0.7229(4)
C19_14 C 0.7379(4) 0.8110(5) 0.0766(4)
H16_14 H 0.7737 0.8136 0.0874
C20_14 C 0.6574(4) 0.8040(6) 0.0757(4)
H17_14 H 0.6217 0.7990 0.0858
C21_14 C 0.6715(5) 0.8134(5) 0.0277(4)
H22_14 H 0.8249 0.8145 0.0176
N7_14 N 0.7229(4) 0.8159(4) 0.0270(3)
C10_15 C 0.0766(4) 0.2621(4) 0.1890(5)
H9_15 H 0.0874 0.2263 0.1864
C11_15 C 0.0757(4) 0.3426(4) 0.1960(6)
H10_15 H 0.0858 0.3783 0.2010
C12_15 C 0.0277(4) 0.3285(5) 0.1866(5)
H15_15 H 0.0176 0.1751 0.1855
N5_15 N 0.0270(3) 0.2771(4) 0.1841(4)
C19_15 C 0.7379(4) 0.1890(5) 0.9234(4)
H16_15 H 0.7737 0.1864 0.9126
C20_15 C 0.6574(4) 0.1960(6) 0.9243(4)
H17_15 H 0.6217 0.2010 0.9142
C21_15 C 0.6715(5) 0.1866(5) 0.9723(4)
H22_15 H 0.8249 0.1855 0.9824
N7_15 N 0.7229(4) 0.1841(4) 0.9730(3)
C1_15 C 0.8110(5) 0.9234(4) 0.2621(4)
H2_15 H 0.8136 0.9126 0.2263
C2_15 C 0.8040(6) 0.9243(4) 0.3426(4)
H3_15 H 0.7990 0.9142 0.3783
C3_15 C 0.8134(5) 0.9723(4) 0.3285(5)
H8_15 H 0.8145 0.9824 0.1751
N2_15 N 0.8159(4) 0.9730(3) 0.2771(4)
C1_16 C 0.1890(5) 0.0766(4) 0.2621(4)
H2_16 H 0.1864 0.0874 0.2263
C2_16 C 0.1960(6) 0.0757(4) 0.3426(4)
H3_16 H 0.2010 0.0858 0.3783
C3_16 C 0.1866(5) 0.0277(4) 0.3285(5)
H8_16 H 0.1855 0.0176 0.1751
N2_16 N 0.1841(4) 0.0270(3) 0.2771(4)
C19_16 C 0.2621(4) 0.8110(5) 0.9234(4)
H16_16 H 0.2263 0.8136 0.9126
C20_16 C 0.3426(4) 0.8040(6) 0.9243(4)
H17_16 H 0.3783 0.7990 0.9142
C21_16 C 0.3285(5) 0.8134(5) 0.9723(4)
H22_16 H 0.1751 0.8145 0.9824
N7_16 N 0.2771(4) 0.8159(4) 0.9730(3)
C10_16 C 0.9234(4) 0.7379(4) 0.1890(5)
H9_16 H 0.9126 0.7737 0.1864
C11_16 C 0.9243(4) 0.6574(4) 0.1960(6)
H10_16 H 0.9142 0.6217 0.2010
C12_16 C 0.9723(4) 0.6715(5) 0.1866(5)
H15_16 H 0.9824 0.8249 0.1855
N5_16 N 0.9730(3) 0.7229(4) 0.1841(4)
H1_13 H 0.1808 0.8192 0.8192
H1_14 H 0.1808 0.1808 0.1808
H1_15 H 0.8192 0.1808 0.8192
H1_16 H 0.8192 0.8192 0.1808
H4_13 H 0.1824 0.0016 0.6487
C4_13 C 0.1770(4) 0.0182(3) 0.7536(3)
C5_13 C 0.1659(4) 0.0659(3) 0.7292(3)
H5_13 H 0.1652 0.0681 0.6918
C6_13 C 0.1559(4) 0.1105(3) 0.7593(3)
H6_13 H 0.1483 0.1431 0.7426
C7_13 C 0.1569(5) 0.1073(3) 0.8140(3)
C8_13 C 0.1680(5) 0.0596(3) 0.8384(3)
H7_13 H 0.1687 0.0574 0.8758
C9_13 C 0.1780(4) 0.0150(3) 0.8082(3)
N3_13 N 0.1553(7) 0.1553(7) 0.8447(7)
H11_13 H 0.0016 0.3513 0.8176
C13_13 C 0.0182(3) 0.2464(3) 0.8230(4)
C14_13 C 0.0659(3) 0.2708(3) 0.8341(4)
H12_13 H 0.0681 0.3082 0.8348
C15_13 C 0.1105(3) 0.2407(3) 0.8441(4)
H13_13 H 0.1431 0.2574 0.8517
C16_13 C 0.1073(3) 0.1860(3) 0.8431(5)
C17_13 C 0.0596(3) 0.1616(3) 0.8320(5)
H14_13 H 0.0574 0.1242 0.8313
C18_13 C 0.0150(3) 0.1918(3) 0.8220(4)
H18_13 H 0.3513 0.1824 0.9984
C22_13 C 0.2464(3) 0.1770(4) 0.9818(3)
C23_13 C 0.2708(3) 0.1659(4) 0.9341(3)
H19_13 H 0.3082 0.1652 0.9319
C24_13 C 0.2407(3) 0.1559(4) 0.8895(3)
H20_13 H 0.2574 0.1483 0.8569
C25_13 C 0.1860(3) 0.1569(5) 0.8927(3)
C26_13 C 0.1616(3) 0.1680(5) 0.9404(3)
H21_13 H 0.1242 0.1687 0.9426
C27_13 C 0.1918(3) 0.1780(4) 0.9850(3)
H4_14 H 0.8176 0.9984 0.6487
C4_14 C 0.8230(4) 0.9818(3) 0.7536(3)
C5_14 C 0.8341(4) 0.9341(3) 0.7292(3)
H5_14 H 0.8348 0.9319 0.6918
C6_14 C 0.8441(4) 0.8895(3) 0.7593(3)
H6_14 H 0.8517 0.8569 0.7426
C7_14 C 0.8431(5) 0.8927(3) 0.8140(3)
C8_14 C 0.8320(5) 0.9404(3) 0.8384(3)
H7_14 H 0.8313 0.9426 0.8758
C9_14 C 0.8220(4) 0.9850(3) 0.8082(3)
N3_14 N 0.8447(7) 0.8447(7) 0.8447(7)
H11_14 H 0.9984 0.6487 0.8176
C13_14 C 0.9818(3) 0.7536(3) 0.8230(4)
C14_14 C 0.9341(3) 0.7292(3) 0.8341(4)
H12_14 H 0.9319 0.6918 0.8348
C15_14 C 0.8895(3) 0.7593(3) 0.8441(4)
H13_14 H 0.8569 0.7426 0.8517
C16_14 C 0.8927(3) 0.8140(3) 0.8431(5)
C17_14 C 0.9404(3) 0.8384(3) 0.8320(5)
H14_14 H 0.9426 0.8758 0.8313
C18_14 C 0.9850(3) 0.8082(3) 0.8220(4)
H18_14 H 0.6487 0.8176 0.9984
C22_14 C 0.7536(3) 0.8230(4) 0.9818(3)
C23_14 C 0.7292(3) 0.8341(4) 0.9341(3)
H19_14 H 0.6918 0.8348 0.9319
C24_14 C 0.7593(3) 0.8441(4) 0.8895(3)
H20_14 H 0.7426 0.8517 0.8569
C25_14 C 0.8140(3) 0.8431(5) 0.8927(3)
C26_14 C 0.8384(3) 0.8320(5) 0.9404(3)
H21_14 H 0.8758 0.8313 0.9426
C27_14 C 0.8082(3) 0.8220(4) 0.9850(3)
H4_15 H 0.8176 0.0016 0.3513
C4_15 C 0.8230(4) 0.0182(3) 0.2464(3)
C5_15 C 0.8341(4) 0.0659(3) 0.2708(3)
H5_15 H 0.8348 0.0681 0.3082
C6_15 C 0.8441(4) 0.1105(3) 0.2407(3)
H6_15 H 0.8517 0.1431 0.2574
C7_15 C 0.8431(5) 0.1073(3) 0.1860(3)
C8_15 C 0.8320(5) 0.0596(3) 0.1616(3)
H7_15 H 0.8313 0.0574 0.1242
C9_15 C 0.8220(4) 0.0150(3) 0.1918(3)
N3_15 N 0.8447(7) 0.1553(7) 0.1553(7)
H11_15 H 0.9984 0.3513 0.1824
C13_15 C 0.9818(3) 0.2464(3) 0.1770(4)
C14_15 C 0.9341(3) 0.2708(3) 0.1659(4)
H12_15 H 0.9319 0.3082 0.1652
C15_15 C 0.8895(3) 0.2407(3) 0.1559(4)
H13_15 H 0.8569 0.2574 0.1483
C16_15 C 0.8927(3) 0.1860(3) 0.1569(5)
C17_15 C 0.9404(3) 0.1616(3) 0.1680(5)
H14_15 H 0.9426 0.1242 0.1687
C18_15 C 0.9850(3) 0.1918(3) 0.1780(4)
H18_15 H 0.6487 0.1824 0.0016
C22_15 C 0.7536(3) 0.1770(4) 0.0182(3)
C23_15 C 0.7292(3) 0.1659(4) 0.0659(3)
H19_15 H 0.6918 0.1652 0.0681
C24_15 C 0.7593(3) 0.1559(4) 0.1105(3)
H20_15 H 0.7426 0.1483 0.1431
C25_15 C 0.8140(3) 0.1569(5) 0.1073(3)
C26_15 C 0.8384(3) 0.1680(5) 0.0596(3)
H21_15 H 0.8758 0.1687 0.0574
C27_15 C 0.8082(3) 0.1780(4) 0.0150(3)
H4_16 H 0.1824 0.9984 0.3513
C4_16 C 0.1770(4) 0.9818(3) 0.2464(3)
C5_16 C 0.1659(4) 0.9341(3) 0.2708(3)
H5_16 H 0.1652 0.9319 0.3082
C6_16 C 0.1559(4) 0.8895(3) 0.2407(3)
H6_16 H 0.1483 0.8569 0.2574
C7_16 C 0.1569(5) 0.8927(3) 0.1860(3)
C8_16 C 0.1680(5) 0.9404(3) 0.1616(3)
H7_16 H 0.1687 0.9426 0.1242
C9_16 C 0.1780(4) 0.9850(3) 0.1918(3)
N3_16 N 0.1553(7) 0.8447(7) 0.1553(7)
H11_16 H 0.0016 0.6487 0.1824
C13_16 C 0.0182(3) 0.7536(3) 0.1770(4)
C14_16 C 0.0659(3) 0.7292(3) 0.1659(4)
H12_16 H 0.0681 0.6918 0.1652
C15_16 C 0.1105(3) 0.7593(3) 0.1559(4)
H13_16 H 0.1431 0.7426 0.1483
C16_16 C 0.1073(3) 0.8140(3) 0.1569(5)
C17_16 C 0.0596(3) 0.8384(3) 0.1680(5)
H14_16 H 0.0574 0.8758 0.1687
C18_16 C 0.0150(3) 0.8082(3) 0.1780(4)
H18_16 H 0.3513 0.8176 0.0016
C22_16 C 0.2464(3) 0.8230(4) 0.0182(3)
C23_16 C 0.2708(3) 0.8341(4) 0.0659(3)
H19_16 H 0.3082 0.8348 0.0681
C24_16 C 0.2407(3) 0.8441(4) 0.1105(3)
H20_16 H 0.2574 0.8517 0.1431
C25_16 C 0.1860(3) 0.8431(5) 0.1073(3)
C26_16 C 0.1616(3) 0.8320(5) 0.0596(3)
H21_16 H 0.1242 0.8313 0.0574
C27_16 C 0.1918(3) 0.8220(4) 0.0150(3)
loop_
_geom_bond_atom_site_label_1
_geom_bond_atom_site_label_2
_geom_bond_site_symmetry_1
_geom_bond_site_symmetry_2
Cd1 O1 1_555 1_555
O1 H1 1_555 1_555
C1 H2 1_555 1_555
C2 H3 1_555 1_555
C3 C2 1_555 1_555
H4 C3 1_555 1_555
C4 C5 1_555 1_555
C5 H5 1_555 1_555
C6 C5 1_555 1_555
H6 C6 1_555 1_555
C7 C6 1_555 1_555
C8 C7 1_555 1_555
H7 C8 1_555 1_555
C9 C4 1_555 1_555
H8 C9 1_555 1_555
N1 Cd1 1_555 1_555
N2 C1 1_555 1_555
N3 C7 1_555 1_555
C13 C14 1_555 1_555
C14 H12 1_555 1_555
C15 C14 1_555 1_555
H13 C15 1_555 1_555
C16 N3 1_555 1_555
C17 C16 1_555 1_555
H14 C17 1_555 1_555
C18 C13 1_555 1_555
C19 H16 1_555 1_555
C20 H17 1_555 1_555
C21 C20 1_555 1_555
H18 C21 1_555 1_555
C22 C23 1_555 1_555
C23 H19 1_555 1_555
C24 C23 1_555 1_555
H20 C24 1_555 1_555
C25 N3 1_555 1_555
C26 C25 1_555 1_555
H21 C26 1_555 1_555
C27 C22 1_555 1_555
H22 C27 1_555 1_555
N6 C19 1_555 1_555
N7 C19 1_555 1_555
Cd3 O1 1_555 1_555
Cd4 N6 1_555 1_555
Cd5 O1 1_555 1_555
O2 Cd1 1_555 1_555
O3 Cd1 1_555 1_555
N8 Cd1 1_555 1_555
N9 Cd1 1_555 1_555
C1 N1 1_555 1_555
C2 N1 1_555 1_555
C3 N2 1_555 1_555
C4 N2 1_555 1_555
C8 C9 1_555 1_555
C15 C16 1_555 1_555
C17 C18 1_555 1_555
C20 N6 1_555 1_555
C21 N7 1_555 1_555
C22 N7 1_555 1_555
C24 C25 1_555 1_555
C26 C27 1_555 1_555
Cd3 O3 1_555 1_555
Cd5 O2 1_555 1_555
C10 H9 1_555 1_555
C11 H10 1_555 1_555
C12 C11 1_555 1_555
N4 C10 1_555 1_555
N5 C10 1_555 1_555
Cd2 N4 1_555 1_555
C11 N4 1_555 1_555
C12 N5 1_555 1_555
C10_2 H9_2 1_555 1_555
C11_2 H10_2 1_555 1_555
C12_2 C11_2 1_555 1_555
N4_2 C10_2 1_555 1_555
N5_2 C10_2 1_555 1_555
Cd2_2 N4_2 1_555 1_555
C11_2 N4_2 1_555 1_555
C12_2 N5_2 1_555 1_555
Cd1_2 O1_2 1_555 1_555
O1_2 H1_2 1_555 1_555
C1_2 H2_2 1_555 1_555
C2_2 H3_2 1_555 1_555
C3_2 C2_2 1_555 1_555
H4_2 C3_2 1_555 1_555
C4_2 C5_2 1_555 1_555
C5_2 H5_2 1_555 1_555
C6_2 C5_2 1_555 1_555
H6_2 C6_2 1_555 1_555
C7_2 C6_2 1_555 1_555
C8_2 C7_2 1_555 1_555
H7_2 C8_2 1_555 1_555
C9_2 C4_2 1_555 1_555
H8_2 C9_2 1_555 1_555
N1_2 Cd1_2 1_555 1_555
N2_2 C1_2 1_555 1_555
N3_2 C7_2 1_555 1_555
C13_2 C14_2 1_555 1_555
C14_2 H12_2 1_555 1_555
C15_2 C14_2 1_555 1_555
H13_2 C15_2 1_555 1_555
C16_2 N3_2 1_555 1_555
C17_2 C16_2 1_555 1_555
H14_2 C17_2 1_555 1_555
C18_2 C13_2 1_555 1_555
C19_2 H16_2 1_555 1_555
C20_2 H17_2 1_555 1_555
C21_2 C20_2 1_555 1_555
H18_2 C21_2 1_555 1_555
C22_2 C23_2 1_555 1_555
C23_2 H19_2 1_555 1_555
C24_2 C23_2 1_555 1_555
H20_2 C24_2 1_555 1_555
C25_2 N3_2 1_555 1_555
C26_2 C25_2 1_555 1_555
H21_2 C26_2 1_555 1_555
C27_2 C22_2 1_555 1_555
H22_2 C27_2 1_555 1_555
N6_2 C19_2 1_555 1_555
N7_2 C19_2 1_555 1_555
Cd3_2 O1_2 1_555 1_555
Cd4_2 N6_2 1_555 1_555
Cd5_2 O1_2 1_555 1_555
O2_2 Cd1_2 1_555 1_555
O3_2 Cd1_2 1_555 1_555
N8_2 Cd1_2 1_555 1_555
N9_2 Cd1_2 1_555 1_555
C1_2 N1_2 1_555 1_555
C2_2 N1_2 1_555 1_555
C3_2 N2_2 1_555 1_555
C4_2 N2_2 1_555 1_555
C8_2 C9_2 1_555 1_555
C15_2 C16_2 1_555 1_555
C17_2 C18_2 1_555 1_555
C20_2 N6_2 1_555 1_555
C21_2 N7_2 1_555 1_555
C22_2 N7_2 1_555 1_555
C24_2 C25_2 1_555 1_555
C26_2 C27_2 1_555 1_555
Cd3_2 O3_2 1_555 1_555
Cd5_2 O2_2 1_555 1_555
C10_3 H9_3 1_555 1_555
C11_3 H10_3 1_555 1_555
C12_3 C11_3 1_555 1_555
N4_3 C10_3 1_555 1_555
N5_3 C10_3 1_555 1_555
Cd2_3 N4_3 1_555 1_555
C11_3 N4_3 1_555 1_555
C12_3 N5_3 1_555 1_555
Cd1_3 O1_3 1_555 1_555
O1_3 H1_3 1_555 1_555
C1_3 H2_3 1_555 1_555
C2_3 H3_3 1_555 1_555
C3_3 C2_3 1_555 1_555
H4_3 C3_3 1_555 1_555
C4_3 C5_3 1_555 1_555
C5_3 H5_3 1_555 1_555
C6_3 C5_3 1_555 1_555
H6_3 C6_3 1_555 1_555
C7_3 C6_3 1_555 1_555
C8_3 C7_3 1_555 1_555
H7_3 C8_3 1_555 1_555
C9_3 C4_3 1_555 1_555
H8_3 C9_3 1_555 1_555
N1_3 Cd1_3 1_555 1_555
N2_3 C1_3 1_555 1_555
N3_3 C7_3 1_555 1_555
C13_3 C14_3 1_555 1_555
C14_3 H12_3 1_555 1_555
C15_3 C14_3 1_555 1_555
H13_3 C15_3 1_555 1_555
C16_3 N3_3 1_555 1_555
C17_3 C16_3 1_555 1_555
H14_3 C17_3 1_555 1_555
C18_3 C13_3 1_555 1_555
C19_3 H16_3 1_555 1_555
C20_3 H17_3 1_555 1_555
C21_3 C20_3 1_555 1_555
H18_3 C21_3 1_555 1_555
C22_3 C23_3 1_555 1_555
C23_3 H19_3 1_555 1_555
C24_3 C23_3 1_555 1_555
H20_3 C24_3 1_555 1_555
C25_3 N3_3 1_555 1_555
C26_3 C25_3 1_555 1_555
H21_3 C26_3 1_555 1_555
C27_3 C22_3 1_555 1_555
H22_3 C27_3 1_555 1_555
N6_3 C19_3 1_555 1_555
N7_3 C19_3 1_555 1_555
Cd3_3 O1_3 1_555 1_555
Cd5_2 N6_3 1_555 1_555
Cd4_2 O1_3 1_555 1_555
O2_3 Cd1_3 1_555 1_555
O3_3 Cd1_3 1_555 1_555
N8_3 Cd1_3 1_555 1_555
N9_3 Cd1_3 1_555 1_555
C1_3 N1_3 1_555 1_555
C2_3 N1_3 1_555 1_555
C3_3 N2_3 1_555 1_555
C4_3 N2_3 1_555 1_555
C8_3 C9_3 1_555 1_555
C15_3 C16_3 1_555 1_555
C17_3 C18_3 1_555 1_555
C20_3 N6_3 1_555 1_555
C21_3 N7_3 1_555 1_555
C22_3 N7_3 1_555 1_555
C24_3 C25_3 1_555 1_555
C26_3 C27_3 1_555 1_555
Cd3_3 O3_3 1_555 1_555
Cd4_2 O2_3 1_555 1_555
Cd1_4 O1_4 1_555 1_555
O1_4 H1_4 1_555 1_555
C1_4 H2_4 1_555 1_555
C2_4 H3_4 1_555 1_555
C3_4 C2_4 1_555 1_555
H4_4 C3_4 1_555 1_555
C4_4 C5_4 1_555 1_555
C5_4 H5_4 1_555 1_555
C6_4 C5_4 1_555 1_555
H6_4 C6_4 1_555 1_555
C7_4 C6_4 1_555 1_555
C8_4 C7_4 1_555 1_555
H7_4 C8_4 1_555 1_555
C9_4 C4_4 1_555 1_555
H8_4 C9_4 1_555 1_555
N1_4 Cd1_4 1_555 1_555
N2_4 C1_4 1_555 1_555
N3_4 C7_4 1_555 1_555
C13_4 C14_4 1_555 1_555
C14_4 H12_4 1_555 1_555
C15_4 C14_4 1_555 1_555
H13_4 C15_4 1_555 1_555
C16_4 N3_4 1_555 1_555
C17_4 C16_4 1_555 1_555
H14_4 C17_4 1_555 1_555
C18_4 C13_4 1_555 1_555
C19_4 H16_4 1_555 1_555
C20_4 H17_4 1_555 1_555
C21_4 C20_4 1_555 1_555
H18_4 C21_4 1_555 1_555
C22_4 C23_4 1_555 1_555
C23_4 H19_4 1_555 1_555
C24_4 C23_4 1_555 1_555
H20_4 C24_4 1_555 1_555
C25_4 N3_4 1_555 1_555
C26_4 C25_4 1_555 1_555
H21_4 C26_4 1_555 1_555
C27_4 C22_4 1_555 1_555
H22_4 C27_4 1_555 1_555
N6_4 C19_4 1_555 1_555
N7_4 C19_4 1_555 1_555
Cd3_4 O1_4 1_555 1_555
Cd5 N6_4 1_555 1_555
Cd4 O1_4 1_555 1_555
O2_4 Cd1_4 1_555 1_555
O3_4 Cd1_4 1_555 1_555
N8_4 Cd1_4 1_555 1_555
N9_4 Cd1_4 1_555 1_555
C1_4 N1_4 1_555 1_555
C2_4 N1_4 1_555 1_555
C3_4 N2_4 1_555 1_555
C4_4 N2_4 1_555 1_555
C8_4 C9_4 1_555 1_555
C15_4 C16_4 1_555 1_555
C17_4 C18_4 1_555 1_555
C20_4 N6_4 1_555 1_555
C21_4 N7_4 1_555 1_555
C22_4 N7_4 1_555 1_555
C24_4 C25_4 1_555 1_555
C26_4 C27_4 1_555 1_555
Cd3_4 O3_4 1_555 1_555
Cd4 O2_4 1_555 1_555
C10_4 H9_4 1_555 1_555
C11_4 H10_4 1_555 1_555
C12_4 C11_4 1_555 1_555
N4_4 C10_4 1_555 1_555
N5_4 C10_4 1_555 1_555
Cd2_4 N4_4 1_555 1_555
C11_4 N4_4 1_555 1_555
C12_4 N5_4 1_555 1_555
Cd2_2 O2 1_555 1_555
O2 H1_5 1_555 1_555
C1_5 H2_5 1_555 1_555
C2_5 H3_5 1_555 1_555
C3_5 C2_5 1_555 1_555
H4_5 C3_5 1_555 1_555
C4_5 C5_5 1_555 1_555
C5_5 H5_5 1_555 1_555
C6_5 C5_5 1_555 1_555
H6_5 C6_5 1_555 1_555
C7_5 C6_5 1_555 1_555
C8_5 C7_5 1_555 1_555
H7_5 C8_5 1_555 1_555
C9_5 C4_5 1_555 1_555
H8_5 C9_5 1_555 1_555
N1_5 Cd2_2 1_555 1_555
N2_5 C1_5 1_555 1_555
N3_5 C7_5 1_555 1_555
C13_5 C14_5 1_555 1_555
C14_5 H12_5 1_555 1_555
C15_5 C14_5 1_555 1_555
H13_5 C15_5 1_555 1_555
C16_5 N3_5 1_555 1_555
C17_5 C16_5 1_555 1_555
H14_5 C17_5 1_555 1_555
C18_5 C13_5 1_555 1_555
C19_5 H16_5 1_555 1_555
C20_5 H17_5 1_555 1_555
C21_5 C20_5 1_555 1_555
H18_5 C21_5 1_555 1_555
C22_5 C23_5 1_555 1_555
C23_5 H19_5 1_555 1_555
C24_5 C23_5 1_555 1_555
H20_5 C24_5 1_555 1_555
C25_5 N3_5 1_555 1_555
C26_5 C25_5 1_555 1_555
H21_5 C26_5 1_555 1_555
C27_5 C22_5 1_555 1_555
H22_5 C27_5 1_555 1_555
N6_5 C19_5 1_555 1_555
N7_5 C19_5 1_555 1_555
Cd4_2 N6_5 1_555 1_555
O2_5 Cd2_2 1_555 1_555
O3 Cd2_2 1_555 1_555
N9_5 Cd2_2 1_555 1_555
C1_5 N1_5 1_555 1_555
C2_5 N1_5 1_555 1_555
C3_5 N2_5 1_555 1_555
C4_5 N2_5 1_555 1_555
C8_5 C9_5 1_555 1_555
C15_5 C16_5 1_555 1_555
C17_5 C18_5 1_555 1_555
C20_5 N6_5 1_555 1_555
C21_5 N7_5 1_555 1_555
C22_5 N7_5 1_555 1_555
C24_5 C25_5 1_555 1_555
C26_5 C27_5 1_555 1_555
Cd5 O2_5 1_555 1_555
C10_5 H9_5 1_555 1_555
C11_5 H10_5 1_555 1_555
C12_5 C11_5 1_555 1_555
N4_5 C10_5 1_555 1_555
N5_5 C10_5 1_555 1_555
Cd3_4 N4_5 1_555 1_555
C11_5 N4_5 1_555 1_555
C12_5 N5_5 1_555 1_555
C10_6 H9_6 1_555 1_555
C11_6 H10_6 1_555 1_555
C12_6 C11_6 1_555 1_555
N4_6 C10_6 1_555 1_555
N5_6 C10_6 1_555 1_555
Cd3 N4_6 1_555 1_555
C11_6 N4_6 1_555 1_555
C12_6 N5_6 1_555 1_555
Cd2_3 O2_4 1_555 1_555
O2_4 H1_6 1_555 1_555
C1_6 H2_6 1_555 1_555
C2_6 H3_6 1_555 1_555
C3_6 C2_6 1_555 1_555
H4_6 C3_6 1_555 1_555
C4_6 C5_6 1_555 1_555
C5_6 H5_6 1_555 1_555
C6_6 C5_6 1_555 1_555
H6_6 C6_6 1_555 1_555
C7_6 C6_6 1_555 1_555
C8_6 C7_6 1_555 1_555
H7_6 C8_6 1_555 1_555
C9_6 C4_6 1_555 1_555
H8_6 C9_6 1_555 1_555
N1_6 Cd2_3 1_555 1_555
N2_6 C1_6 1_555 1_555
N3_6 C7_6 1_555 1_555
C13_6 C14_6 1_555 1_555
C14_6 H12_6 1_555 1_555
C15_6 C14_6 1_555 1_555
H13_6 C15_6 1_555 1_555
C16_6 N3_6 1_555 1_555
C17_6 C16_6 1_555 1_555
H14_6 C17_6 1_555 1_555
C18_6 C13_6 1_555 1_555
C19_6 H16_6 1_555 1_555
C20_6 H17_6 1_555 1_555
C21_6 C20_6 1_555 1_555
H18_6 C21_6 1_555 1_555
C22_6 C23_6 1_555 1_555
C23_6 H19_6 1_555 1_555
C24_6 C23_6 1_555 1_555
H20_6 C24_6 1_555 1_555
C25_6 N3_6 1_555 1_555
C26_6 C25_6 1_555 1_555
H21_6 C26_6 1_555 1_555
C27_6 C22_6 1_555 1_555
H22_6 C27_6 1_555 1_555
N6_6 C19_6 1_555 1_555
N7_6 C19_6 1_555 1_555
Cd5_2 N6_6 1_555 1_555
O2_6 Cd2_3 1_555 1_555
O3_4 Cd2_3 1_555 1_555
N9_6 Cd2_3 1_555 1_555
C1_6 N1_6 1_555 1_555
C2_6 N1_6 1_555 1_555
C3_6 N2_6 1_555 1_555
C4_6 N2_6 1_555 1_555
C8_6 C9_6 1_555 1_555
C15_6 C16_6 1_555 1_555
C17_6 C18_6 1_555 1_555
C20_6 N6_6 1_555 1_555
C21_6 N7_6 1_555 1_555
C22_6 N7_6 1_555 1_555
C24_6 C25_6 1_555 1_555
C26_6 C27_6 1_555 1_555
Cd4 O2_6 1_555 1_555
C10_7 H9_7 1_555 1_555
C11_7 H10_7 1_555 1_555
C12_7 C11_7 1_555 1_555
N4_7 C10_7 1_555 1_555
N5_7 C10_7 1_555 1_555
Cd3_3 N4_7 1_555 1_555
C11_7 N4_7 1_555 1_555
C12_7 N5_7 1_555 1_555
Cd2 O2_2 1_555 1_555
O2_2 H1_7 1_555 1_555
C1_7 H2_7 1_555 1_555
C2_7 H3_7 1_555 1_555
C3_7 C2_7 1_555 1_555
H4_7 C3_7 1_555 1_555
C4_7 C5_7 1_555 1_555
C5_7 H5_7 1_555 1_555
C6_7 C5_7 1_555 1_555
H6_7 C6_7 1_555 1_555
C7_7 C6_7 1_555 1_555
C8_7 C7_7 1_555 1_555
H7_7 C8_7 1_555 1_555
C9_7 C4_7 1_555 1_555
H8_7 C9_7 1_555 1_555
N1_7 Cd2 1_555 1_555
N2_7 C1_7 1_555 1_555
N3_7 C7_7 1_555 1_555
C13_7 C14_7 1_555 1_555
C14_7 H12_7 1_555 1_555
C15_7 C14_7 1_555 1_555
H13_7 C15_7 1_555 1_555
C16_7 N3_7 1_555 1_555
C17_7 C16_7 1_555 1_555
H14_7 C17_7 1_555 1_555
C18_7 C13_7 1_555 1_555
C19_7 H16_7 1_555 1_555
C20_7 H17_7 1_555 1_555
C21_7 C20_7 1_555 1_555
H18_7 C21_7 1_555 1_555
C22_7 C23_7 1_555 1_555
C23_7 H19_7 1_555 1_555
C24_7 C23_7 1_555 1_555
H20_7 C24_7 1_555 1_555
C25_7 N3_7 1_555 1_555
C26_7 C25_7 1_555 1_555
H21_7 C26_7 1_555 1_555
C27_7 C22_7 1_555 1_555
H22_7 C27_7 1_555 1_555
N6_7 C19_7 1_555 1_555
N7_7 C19_7 1_555 1_555
Cd4 N6_7 1_555 1_555
O2_7 Cd2 1_555 1_555
O3_2 Cd2 1_555 1_555
N9_7 Cd2 1_555 1_555
C1_7 N1_7 1_555 1_555
C2_7 N1_7 1_555 1_555
C3_7 N2_7 1_555 1_555
C4_7 N2_7 1_555 1_555
C8_7 C9_7 1_555 1_555
C15_7 C16_7 1_555 1_555
C17_7 C18_7 1_555 1_555
C20_7 N6_7 1_555 1_555
C21_7 N7_7 1_555 1_555
C22_7 N7_7 1_555 1_555
C24_7 C25_7 1_555 1_555
C26_7 C27_7 1_555 1_555
Cd5_2 O2_7 1_555 1_555
Cd2_4 O2_3 1_555 1_555
O2_3 H1_8 1_555 1_555
C1_8 H2_8 1_555 1_555
C2_8 H3_8 1_555 1_555
C3_8 C2_8 1_555 1_555
H4_8 C3_8 1_555 1_555
C4_8 C5_8 1_555 1_555
C5_8 H5_8 1_555 1_555
C6_8 C5_8 1_555 1_555
H6_8 C6_8 1_555 1_555
C7_8 C6_8 1_555 1_555
C8_8 C7_8 1_555 1_555
H7_8 C8_8 1_555 1_555
C9_8 C4_8 1_555 1_555
H8_8 C9_8 1_555 1_555
N1_8 Cd2_4 1_555 1_555
N2_8 C1_8 1_555 1_555
N3_8 C7_8 1_555 1_555
C13_8 C14_8 1_555 1_555
C14_8 H12_8 1_555 1_555
C15_8 C14_8 1_555 1_555
H13_8 C15_8 1_555 1_555
C16_8 N3_8 1_555 1_555
C17_8 C16_8 1_555 1_555
H14_8 C17_8 1_555 1_555
C18_8 C13_8 1_555 1_555
C19_8 H16_8 1_555 1_555
C20_8 H17_8 1_555 1_555
C21_8 C20_8 1_555 1_555
H18_8 C21_8 1_555 1_555
C22_8 C23_8 1_555 1_555
C23_8 H19_8 1_555 1_555
C24_8 C23_8 1_555 1_555
H20_8 C24_8 1_555 1_555
C25_8 N3_8 1_555 1_555
C26_8 C25_8 1_555 1_555
H21_8 C26_8 1_555 1_555
C27_8 C22_8 1_555 1_555
H22_8 C27_8 1_555 1_555
N6_8 C19_8 1_555 1_555
N7_8 C19_8 1_555 1_555
Cd5 N6_8 1_555 1_555
O2_8 Cd2_4 1_555 1_555
O3_3 Cd2_4 1_555 1_555
N9_8 Cd2_4 1_555 1_555
C1_8 N1_8 1_555 1_555
C2_8 N1_8 1_555 1_555
C3_8 N2_8 1_555 1_555
C4_8 N2_8 1_555 1_555
C8_8 C9_8 1_555 1_555
C15_8 C16_8 1_555 1_555
C17_8 C18_8 1_555 1_555
C20_8 N6_8 1_555 1_555
C21_8 N7_8 1_555 1_555
C22_8 N7_8 1_555 1_555
C24_8 C25_8 1_555 1_555
C26_8 C27_8 1_555 1_555
Cd4_2 O2_8 1_555 1_555
C10_8 H9_8 1_555 1_555
C11_8 H10_8 1_555 1_555
C12_8 C11_8 1_555 1_555
N4_8 C10_8 1_555 1_555
N5_8 C10_8 1_555 1_555
Cd3_2 N4_8 1_555 1_555
C11_8 N4_8 1_555 1_555
C12_8 N5_8 1_555 1_555
Cd3 O2_5 1_555 1_555
O2_5 H1_9 1_555 1_555
C1_9 H2_9 1_555 1_555
C2_9 H3_9 1_555 1_555
C3_9 C2_9 1_555 1_555
H4_9 C3_9 1_555 1_555
C4_9 C5_9 1_555 1_555
C5_9 H5_9 1_555 1_555
C6_9 C5_9 1_555 1_555
H6_9 C6_9 1_555 1_555
C7_9 C6_9 1_555 1_555
C8_9 C7_9 1_555 1_555
H7_9 C8_9 1_555 1_555
C9_9 C4_9 1_555 1_555
H8_9 C9_9 1_555 1_555
N1_9 Cd3 1_555 1_555
N2_9 C1_9 1_555 1_555
N3_9 C7_9 1_555 1_555
C13_9 C14_9 1_555 1_555
C14_9 H12_9 1_555 1_555
C15_9 C14_9 1_555 1_555
H13_9 C15_9 1_555 1_555
C16_9 N3_9 1_555 1_555
C17_9 C16_9 1_555 1_555
H14_9 C17_9 1_555 1_555
C18_9 C13_9 1_555 1_555
C19_9 H16_9 1_555 1_555
C20_9 H17_9 1_555 1_555
C21_9 C20_9 1_555 1_555
H18_9 C21_9 1_555 1_555
C22_9 C23_9 1_555 1_555
C23_9 H19_9 1_555 1_555
C24_9 C23_9 1_555 1_555
H20_9 C24_9 1_555 1_555
C25_9 N3_9 1_555 1_555
C26_9 C25_9 1_555 1_555
H21_9 C26_9 1_555 1_555
C27_9 C22_9 1_555 1_555
H22_9 C27_9 1_555 1_555
N6_9 C19_9 1_555 1_555
N7_9 C19_9 1_555 1_555
Cd5_2 N6_9 1_555 1_555
N9_9 Cd3 1_555 1_555
C1_9 N1_9 1_555 1_555
C2_9 N1_9 1_555 1_555
C3_9 N2_9 1_555 1_555
C4_9 N2_9 1_555 1_555
C8_9 C9_9 1_555 1_555
C15_9 C16_9 1_555 1_555
C17_9 C18_9 1_555 1_555
C20_9 N6_9 1_555 1_555
C21_9 N7_9 1_555 1_555
C22_9 N7_9 1_555 1_555
C24_9 C25_9 1_555 1_555
C26_9 C27_9 1_555 1_555
C10_9 H9_9 1_555 1_555
C11_9 H10_9 1_555 1_555
C12_9 C11_9 1_555 1_555
N8_3 C10_9 1_555 1_555
N5_9 C10_9 1_555 1_555
C11_9 N8_3 1_555 1_555
C12_9 N5_9 1_555 1_555
C10_10 H9_10 1_555 1_555
C11_10 H10_10 1_555 1_555
C12_10 C11_10 1_555 1_555
N8 C10_10 1_555 1_555
N5_10 C10_10 1_555 1_555
C11_10 N8 1_555 1_555
C12_10 N5_10 1_555 1_555
Cd3_3 O2_8 1_555 1_555
O2_8 H1_10 1_555 1_555
C1_10 H2_10 1_555 1_555
C2_10 H3_10 1_555 1_555
C3_10 C2_10 1_555 1_555
H4_10 C3_10 1_555 1_555
C4_10 C5_10 1_555 1_555
C5_10 H5_10 1_555 1_555
C6_10 C5_10 1_555 1_555
H6_10 C6_10 1_555 1_555
C7_10 C6_10 1_555 1_555
C8_10 C7_10 1_555 1_555
H7_10 C8_10 1_555 1_555
C9_10 C4_10 1_555 1_555
H8_10 C9_10 1_555 1_555
N1_10 Cd3_3 1_555 1_555
N2_10 C1_10 1_555 1_555
N3_10 C7_10 1_555 1_555
C13_10 C14_10 1_555 1_555
C14_10 H12_10 1_555 1_555
C15_10 C14_10 1_555 1_555
H13_10 C15_10 1_555 1_555
C16_10 N3_10 1_555 1_555
C17_10 C16_10 1_555 1_555
H14_10 C17_10 1_555 1_555
C18_10 C13_10 1_555 1_555
C19_10 H16_10 1_555 1_555
C20_10 H17_10 1_555 1_555
C21_10 C20_10 1_555 1_555
H18_10 C21_10 1_555 1_555
C22_10 C23_10 1_555 1_555
C23_10 H19_10 1_555 1_555
C24_10 C23_10 1_555 1_555
H20_10 C24_10 1_555 1_555
C25_10 N3_10 1_555 1_555
C26_10 C25_10 1_555 1_555
H21_10 C26_10 1_555 1_555
C27_10 C22_10 1_555 1_555
H22_10 C27_10 1_555 1_555
N6_10 C19_10 1_555 1_555
N7_10 C19_10 1_555 1_555
Cd4 N6_10 1_555 1_555
N9_10 Cd3_3 1_555 1_555
C1_10 N1_10 1_555 1_555
C2_10 N1_10 1_555 1_555
C3_10 N2_10 1_555 1_555
C4_10 N2_10 1_555 1_555
C8_10 C9_10 1_555 1_555
C15_10 C16_10 1_555 1_555
C17_10 C18_10 1_555 1_555
C20_10 N6_10 1_555 1_555
C21_10 N7_10 1_555 1_555
C22_10 N7_10 1_555 1_555
C24_10 C25_10 1_555 1_555
C26_10 C27_10 1_555 1_555
C10_11 H9_11 1_555 1_555
C11_11 H10_11 1_555 1_555
C12_11 C11_11 1_555 1_555
N8_2 C10_11 1_555 1_555
N5_11 C10_11 1_555 1_555
C11_11 N8_2 1_555 1_555
C12_11 N5_11 1_555 1_555
Cd3_4 O2_6 1_555 1_555
O2_6 H1_11 1_555 1_555
C1_11 H2_11 1_555 1_555
C2_11 H3_11 1_555 1_555
C3_11 C2_11 1_555 1_555
H4_11 C3_11 1_555 1_555
C4_11 C5_11 1_555 1_555
C5_11 H5_11 1_555 1_555
C6_11 C5_11 1_555 1_555
H6_11 C6_11 1_555 1_555
C7_11 C6_11 1_555 1_555
C8_11 C7_11 1_555 1_555
H7_11 C8_11 1_555 1_555
C9_11 C4_11 1_555 1_555
H8_11 C9_11 1_555 1_555
N1_11 Cd3_4 1_555 1_555
N2_11 C1_11 1_555 1_555
N3_11 C7_11 1_555 1_555
C13_11 C14_11 1_555 1_555
C14_11 H12_11 1_555 1_555
C15_11 C14_11 1_555 1_555
H13_11 C15_11 1_555 1_555
C16_11 N3_11 1_555 1_555
C17_11 C16_11 1_555 1_555
H14_11 C17_11 1_555 1_555
C18_11 C13_11 1_555 1_555
C19_11 H16_11 1_555 1_555
C20_11 H17_11 1_555 1_555
C21_11 C20_11 1_555 1_555
H18_11 C21_11 1_555 1_555
C22_11 C23_11 1_555 1_555
C23_11 H19_11 1_555 1_555
C24_11 C23_11 1_555 1_555
H20_11 C24_11 1_555 1_555
C25_11 N3_11 1_555 1_555
C26_11 C25_11 1_555 1_555
H21_11 C26_11 1_555 1_555
C27_11 C22_11 1_555 1_555
H22_11 C27_11 1_555 1_555
N6_11 C19_11 1_555 1_555
N7_11 C19_11 1_555 1_555
Cd4_2 N6_11 1_555 1_555
N9_11 Cd3_4 1_555 1_555
C1_11 N1_11 1_555 1_555
C2_11 N1_11 1_555 1_555
C3_11 N2_11 1_555 1_555
C4_11 N2_11 1_555 1_555
C8_11 C9_11 1_555 1_555
C15_11 C16_11 1_555 1_555
C17_11 C18_11 1_555 1_555
C20_11 N6_11 1_555 1_555
C21_11 N7_11 1_555 1_555
C22_11 N7_11 1_555 1_555
C24_11 C25_11 1_555 1_555
C26_11 C27_11 1_555 1_555
Cd3_2 O2_7 1_555 1_555
O2_7 H1_12 1_555 1_555
C1_12 H2_12 1_555 1_555
C2_12 H3_12 1_555 1_555
C3_12 C2_12 1_555 1_555
H4_12 C3_12 1_555 1_555
C4_12 C5_12 1_555 1_555
C5_12 H5_12 1_555 1_555
C6_12 C5_12 1_555 1_555
H6_12 C6_12 1_555 1_555
C7_12 C6_12 1_555 1_555
C8_12 C7_12 1_555 1_555
H7_12 C8_12 1_555 1_555
C9_12 C4_12 1_555 1_555
H8_12 C9_12 1_555 1_555
N1_12 Cd3_2 1_555 1_555
N2_12 C1_12 1_555 1_555
N3_12 C7_12 1_555 1_555
C13_12 C14_12 1_555 1_555
C14_12 H12_12 1_555 1_555
C15_12 C14_12 1_555 1_555
H13_12 C15_12 1_555 1_555
C16_12 N3_12 1_555 1_555
C17_12 C16_12 1_555 1_555
H14_12 C17_12 1_555 1_555
C18_12 C13_12 1_555 1_555
C19_12 H16_12 1_555 1_555
C20_12 H17_12 1_555 1_555
C21_12 C20_12 1_555 1_555
H18_12 C21_12 1_555 1_555
C22_12 C23_12 1_555 1_555
C23_12 H19_12 1_555 1_555
C24_12 C23_12 1_555 1_555
H20_12 C24_12 1_555 1_555
C25_12 N3_12 1_555 1_555
C26_12 C25_12 1_555 1_555
H21_12 C26_12 1_555 1_555
C27_12 C22_12 1_555 1_555
H22_12 C27_12 1_555 1_555
N6_12 C19_12 1_555 1_555
N7_12 C19_12 1_555 1_555
Cd5 N6_12 1_555 1_555
N9_12 Cd3_2 1_555 1_555
C1_12 N1_12 1_555 1_555
C2_12 N1_12 1_555 1_555
C3_12 N2_12 1_555 1_555
C4_12 N2_12 1_555 1_555
C8_12 C9_12 1_555 1_555
C15_12 C16_12 1_555 1_555
C17_12 C18_12 1_555 1_555
C20_12 N6_12 1_555 1_555
C21_12 N7_12 1_555 1_555
C22_12 N7_12 1_555 1_555
C24_12 C25_12 1_555 1_555
C26_12 C27_12 1_555 1_555
C10_12 H9_12 1_555 1_555
C11_12 H10_12 1_555 1_555
C12_12 C11_12 1_555 1_555
N8_4 C10_12 1_555 1_555
N5_12 C10_12 1_555 1_555
C11_12 N8_4 1_555 1_555
C12_12 N5_12 1_555 1_555
C19_13 H16_13 1_555 1_555
C20_13 H17_13 1_555 1_555
C21_13 C20_13 1_555 1_555
N9_9 C19_13 1_555 1_555
N7_13 C19_13 1_555 1_555
C20_13 N9_9 1_555 1_555
C21_13 N7_13 1_555 1_555
C1_13 H2_13 1_555 1_555
C2_13 H3_13 1_555 1_555
C3_13 C2_13 1_555 1_555
N2_13 C1_13 1_555 1_555
C1_13 N9_6 1_555 1_555
C2_13 N9_6 1_555 1_555
C3_13 N2_13 1_555 1_555
C10_13 H9_13 1_555 1_555
C11_13 H10_13 1_555 1_555
C12_13 C11_13 1_555 1_555
N9_3 C10_13 1_555 1_555
N5_13 C10_13 1_555 1_555
C11_13 N9_3 1_555 1_555
C12_13 N5_13 1_555 1_555
C10_14 H9_14 1_555 1_555
C11_14 H10_14 1_555 1_555
C12_14 C11_14 1_555 1_555
N9_4 C10_14 1_555 1_555
N5_14 C10_14 1_555 1_555
C11_14 N9_4 1_555 1_555
C12_14 N5_14 1_555 1_555
C1_14 H2_14 1_555 1_555
C2_14 H3_14 1_555 1_555
C3_14 C2_14 1_555 1_555
N2_14 C1_14 1_555 1_555
C1_14 N9_8 1_555 1_555
C2_14 N9_8 1_555 1_555
C3_14 N2_14 1_555 1_555
C19_14 H16_14 1_555 1_555
C20_14 H17_14 1_555 1_555
C21_14 C20_14 1_555 1_555
N9_12 C19_14 1_555 1_555
N7_14 C19_14 1_555 1_555
C20_14 N9_12 1_555 1_555
C21_14 N7_14 1_555 1_555
C10_15 H9_15 1_555 1_555
C11_15 H10_15 1_555 1_555
C12_15 C11_15 1_555 1_555
N9 C10_15 1_555 1_555
N5_15 C10_15 1_555 1_555
C11_15 N9 1_555 1_555
C12_15 N5_15 1_555 1_555
C19_15 H16_15 1_555 1_555
C20_15 H17_15 1_555 1_555
C21_15 C20_15 1_555 1_555
N9_10 C19_15 1_555 1_555
N7_15 C19_15 1_555 1_555
C20_15 N9_10 1_555 1_555
C21_15 N7_15 1_555 1_555
C1_15 H2_15 1_555 1_555
C2_15 H3_15 1_555 1_555
C3_15 C2_15 1_555 1_555
N2_15 C1_15 1_555 1_555
C1_15 N9_7 1_555 1_555
C2_15 N9_7 1_555 1_555
C3_15 N2_15 1_555 1_555
C1_16 H2_16 1_555 1_555
C2_16 H3_16 1_555 1_555
C3_16 C2_16 1_555 1_555
N2_16 C1_16 1_555 1_555
C1_16 N9_5 1_555 1_555
C2_16 N9_5 1_555 1_555
C3_16 N2_16 1_555 1_555
C19_16 H16_16 1_555 1_555
C20_16 H17_16 1_555 1_555
C21_16 C20_16 1_555 1_555
N9_11 C19_16 1_555 1_555
N7_16 C19_16 1_555 1_555
C20_16 N9_11 1_555 1_555
C21_16 N7_16 1_555 1_555
C10_16 H9_16 1_555 1_555
C11_16 H10_16 1_555 1_555
C12_16 C11_16 1_555 1_555
N9_2 C10_16 1_555 1_555
N5_16 C10_16 1_555 1_555
C11_16 N9_2 1_555 1_555
C12_16 N5_16 1_555 1_555
O3_4 H1_13 1_555 1_555
O3 H1_14 1_555 1_555
O3_3 H1_15 1_555 1_555
O3_2 H1_16 1_555 1_555
C4_13 C5_13 1_555 1_555
C5_13 H5_13 1_555 1_555
C6_13 C5_13 1_555 1_555
H6_13 C6_13 1_555 1_555
C7_13 C6_13 1_555 1_555
C8_13 C7_13 1_555 1_555
H7_13 C8_13 1_555 1_555
C9_13 C4_13 1_555 1_555
N3_13 C7_13 1_555 1_555
C13_13 C14_13 1_555 1_555
C14_13 H12_13 1_555 1_555
C15_13 C14_13 1_555 1_555
H13_13 C15_13 1_555 1_555
C16_13 N3_13 1_555 1_555
C17_13 C16_13 1_555 1_555
H14_13 C17_13 1_555 1_555
C18_13 C13_13 1_555 1_555
C22_13 C23_13 1_555 1_555
C23_13 H19_13 1_555 1_555
C24_13 C23_13 1_555 1_555
H20_13 C24_13 1_555 1_555
C25_13 N3_13 1_555 1_555
C26_13 C25_13 1_555 1_555
H21_13 C26_13 1_555 1_555
C27_13 C22_13 1_555 1_555
C8_13 C9_13 1_555 1_555
C15_13 C16_13 1_555 1_555
C17_13 C18_13 1_555 1_555
C24_13 C25_13 1_555 1_555
C26_13 C27_13 1_555 1_555
C4_14 C5_14 1_555 1_555
C5_14 H5_14 1_555 1_555
C6_14 C5_14 1_555 1_555
H6_14 C6_14 1_555 1_555
C7_14 C6_14 1_555 1_555
C8_14 C7_14 1_555 1_555
H7_14 C8_14 1_555 1_555
C9_14 C4_14 1_555 1_555
N3_14 C7_14 1_555 1_555
C13_14 C14_14 1_555 1_555
C14_14 H12_14 1_555 1_555
C15_14 C14_14 1_555 1_555
H13_14 C15_14 1_555 1_555
C16_14 N3_14 1_555 1_555
C17_14 C16_14 1_555 1_555
H14_14 C17_14 1_555 1_555
C18_14 C13_14 1_555 1_555
C22_14 C23_14 1_555 1_555
C23_14 H19_14 1_555 1_555
C24_14 C23_14 1_555 1_555
H20_14 C24_14 1_555 1_555
C25_14 N3_14 1_555 1_555
C26_14 C25_14 1_555 1_555
H21_14 C26_14 1_555 1_555
C27_14 C22_14 1_555 1_555
C8_14 C9_14 1_555 1_555
C15_14 C16_14 1_555 1_555
C17_14 C18_14 1_555 1_555
C24_14 C25_14 1_555 1_555
C26_14 C27_14 1_555 1_555
C4_15 C5_15 1_555 1_555
C5_15 H5_15 1_555 1_555
C6_15 C5_15 1_555 1_555
H6_15 C6_15 1_555 1_555
C7_15 C6_15 1_555 1_555
C8_15 C7_15 1_555 1_555
H7_15 C8_15 1_555 1_555
C9_15 C4_15 1_555 1_555
N3_15 C7_15 1_555 1_555
C13_15 C14_15 1_555 1_555
C14_15 H12_15 1_555 1_555
C15_15 C14_15 1_555 1_555
H13_15 C15_15 1_555 1_555
C16_15 N3_15 1_555 1_555
C17_15 C16_15 1_555 1_555
H14_15 C17_15 1_555 1_555
C18_15 C13_15 1_555 1_555
C22_15 C23_15 1_555 1_555
C23_15 H19_15 1_555 1_555
C24_15 C23_15 1_555 1_555
H20_15 C24_15 1_555 1_555
C25_15 N3_15 1_555 1_555
C26_15 C25_15 1_555 1_555
H21_15 C26_15 1_555 1_555
C27_15 C22_15 1_555 1_555
C8_15 C9_15 1_555 1_555
C15_15 C16_15 1_555 1_555
C17_15 C18_15 1_555 1_555
C24_15 C25_15 1_555 1_555
C26_15 C27_15 1_555 1_555
C4_16 C5_16 1_555 1_555
C5_16 H5_16 1_555 1_555
C6_16 C5_16 1_555 1_555
H6_16 C6_16 1_555 1_555
C7_16 C6_16 1_555 1_555
C8_16 C7_16 1_555 1_555
H7_16 C8_16 1_555 1_555
C9_16 C4_16 1_555 1_555
N3_16 C7_16 1_555 1_555
C13_16 C14_16 1_555 1_555
C14_16 H12_16 1_555 1_555
C15_16 C14_16 1_555 1_555
H13_16 C15_16 1_555 1_555
C16_16 N3_16 1_555 1_555
C17_16 C16_16 1_555 1_555
H14_16 C17_16 1_555 1_555
C18_16 C13_16 1_555 1_555
C22_16 C23_16 1_555 1_555
C23_16 H19_16 1_555 1_555
C24_16 C23_16 1_555 1_555
H20_16 C24_16 1_555 1_555
C25_16 N3_16 1_555 1_555
C26_16 C25_16 1_555 1_555
H21_16 C26_16 1_555 1_555
C27_16 C22_16 1_555 1_555
C8_16 C9_16 1_555 1_555
C15_16 C16_16 1_555 1_555
C17_16 C18_16 1_555 1_555
C24_16 C25_16 1_555 1_555
C26_16 C27_16 1_555 1_555

#END
