
###############################################################################
#
# This file contains modified crystal structure data generated from the
# MOF subset of the Cambridge Structural Database (CSD) v543 
# hosted by the Cambridge Crystallographic Data Centre (CCDC).
#
# This work is licensed under the Creative Commons
# Attribution-NonCommercial-ShareAlike 4.0 International License.
# To view a copy of this license, visit
# http://creativecommons.org/licenses/by-nc-sa/4.0/
# or send a letter to
# Creative Commons, PO Box 1866, Mountain View, CA 94042, USA.
#
# CIF created using the CSD Python API on 29 September 2022
# The structure has been converted into the P1 space group
# The structure has a 3D framework
# The original CSD entry VIWREB is in the monoclinic crystal system
# The framework has been calculated to contain at least 10.0% void space
# The void calculation uses a probe of radius 1.32A, grid spacing 0.4
#
###############################################################################

data_VIWREB
_chemical_formula_moiety         '(C216 H144 N56 O29 Zn5)n'
_symmetry_cell_setting           triclinic
_symmetry_space_group_name_H-M   'P 1'
_symmetry_Int_Tables_number      1
_space_group_name_Hall           'P 1'
loop_
_symmetry_equiv_pos_site_id
_symmetry_equiv_pos_as_xyz
1 x,y,z
_cell_length_a                   19.747(3)
_cell_length_b                   16.2693(17)
_cell_length_c                   19.194(2)
_cell_angle_alpha                90
_cell_angle_beta                 111.265(4)
_cell_angle_gamma                90
_cell_volume                     5746.6
loop_
_atom_site_label
_atom_site_type_symbol
_atom_site_fract_x
_atom_site_fract_y
_atom_site_fract_z
N1 N 0.20870(16) 0.06612(15) 0.33784(15)
N2 N 0.24237(15) 0.76619(15) 0.37524(14)
C1 C 0.06511(18) 0.49523(16) 0.48781(18)
C2 C 0.21646(19) 0.70039(17) 0.40947(17)
C3 C 0.16156(18) 0.56245(18) 0.45637(17)
N3 N 0.17874(15) 0.16977(15) 0.39126(15)
N4 N 0.13176(16) 0.48973(14) 0.47439(17)
C4 C 0.14938(17) 0.41052(18) 0.45482(17)
C5 C 0.14165(18) 0.34328(19) 0.49615(18)
H1 H 0.1293 0.3517 0.5380
C6 C 0.2325(2) 0.5636(2) 0.4596(2)
H2 H 0.2619 0.5178 0.4773
C7 C 0.18065(18) 0.3180(2) 0.37362(19)
H3 H 0.1941 0.3091 0.3326
C8 C 0.17070(18) 0.25250(18) 0.41386(18)
C9 C 0.17061(18) 0.39750(18) 0.39419(19)
H4 H 0.1781 0.4420 0.3674
C10 C 0.15196(18) 0.26508(19) 0.47600(18)
H5 H 0.1464 0.2205 0.5038
C11 C 0.21504(19) 0.1449(2) 0.34789(19)
H6 H 0.2410 0.1793 0.3279
C12 C 0.26049(19) 0.63232(19) 0.43678(19)
H7 H 0.3086 0.6328 0.4398
C13 C 0.1482(2) 0.70231(19) 0.41161(19)
H8 H 0.1201 0.7496 0.3972
C14 C 0.06200(19) 0.5377(2) 0.54852(18)
H9 H 0.1035 0.5629 0.5814
N5 N 0.1668(2) 0.03649(18) 0.3750(2)
C15 C 0.1492(2) 0.1008(2) 0.4062(2)
H10 H 0.1200 0.0989 0.4348
C16 C 0.2896(2) 0.7578(2) 0.3393(2)
H11 H 0.3146 0.7096 0.3387
C17 C 0.2197(2) 0.84405(19) 0.3622(2)
H12 H 0.1864 0.8683 0.3799
C18 C 0.12044(19) 0.63388(19) 0.4352(2)
H13 H 0.0740 0.6358 0.4369
N6 N 0.29556(18) 0.82452(17) 0.30620(19)
N7 N 0.25060(16) 0.88129(15) 0.32166(16)
O1 O 0.32719(14) 0.00724(13) 0.25543(15)
O2 O 0.33147(14) 0.14135(15) 0.27577(17)
C19 C 0.35855(18) 0.0773(2) 0.26446(18)
C20 C 0.43207(17) 0.07745(18) 0.25734(18)
C21 C 0.46683(18) 0.15048(19) 0.25411(19)
H14 H 0.4450 0.2002 0.2576
C22 C 0.46624(18) 0.00409(17) 0.25277(19)
O4 O 0.13716(18) 0.0903(2) 0.16691(17)
C24 C 0.1229(2) 0.0198(3) 0.1411(2)
C25 C 0.0594(2) 0.0086(2) 0.0675(2)
C26 C 0.0222(3) 0.0757(2) 0.0296(3)
H17 H 0.0369 0.1278 0.0490
C46 C 0.00302(18) 0.45715(19) 0.43919(18)
H32 H 0.0050 0.4281 0.3982
O5 O 0.67281(14) 0.00724(13) 0.24457(15)
O6 O 0.66853(14) 0.14135(15) 0.22423(17)
C47 C 0.64145(18) 0.0773(2) 0.23554(18)
C48 C 0.56793(17) 0.07745(18) 0.24266(18)
C49 C 0.53317(18) 0.15048(19) 0.24589(19)
H33 H 0.5550 0.2002 0.2424
C50 C 0.53376(18) 0.00409(17) 0.24723(19)
Zn3 Zn 0.23607(2) 0.99235(2) 0.26810(2)
N15 N 0.79130(16) 0.06612(15) 0.16216(15)
H15 H 0.4432 0.9544 0.2535
O3 O 0.15766(16) 0.95858(19) 0.17313(17)
C27 C 0.0370(2) 0.9318(3) 0.0373(3)
H18 H 0.0614 0.8851 0.0616
H34 H 0.5568 0.9544 0.2465
Zn2 Zn 0.76393(2) 0.99235(2) 0.23190(2)
N17 N 0.74940(16) 0.88129(15) 0.17834(16)
O9 O 0.84234(16) 0.95858(19) 0.32687(17)
N2_2 N 0.75763(15) 0.76619(15) 0.12476(14)
C1_2 C 0.93489(18) 0.49523(16) 0.01219(18)
C2_2 C 0.78354(19) 0.70039(17) 0.09053(17)
C3_2 C 0.83844(18) 0.56245(18) 0.04363(17)
N3_2 N 0.82126(15) 0.16977(15) 0.10874(15)
N4_2 N 0.86824(16) 0.48973(14) 0.02561(17)
C4_2 C 0.85062(17) 0.41052(18) 0.04518(17)
C5_2 C 0.85835(18) 0.34328(19) 0.00385(18)
C6_2 C 0.7675(2) 0.5636(2) 0.0404(2)
H2_2 H 0.7381 0.5178 0.0227
C7_2 C 0.81935(18) 0.3180(2) 0.12638(19)
H3_2 H 0.8059 0.3091 0.1674
C8_2 C 0.82930(18) 0.25250(18) 0.08614(18)
C9_2 C 0.82939(18) 0.39750(18) 0.10581(19)
H4_2 H 0.8219 0.4420 0.1326
C10_2 C 0.84804(18) 0.26508(19) 0.02400(18)
C11_2 C 0.78496(19) 0.1449(2) 0.15211(19)
H6_2 H 0.7590 0.1793 0.1721
C12_2 C 0.73951(19) 0.63232(19) 0.06322(19)
H7_2 H 0.6914 0.6328 0.0602
C13_2 C 0.8518(2) 0.70231(19) 0.08839(19)
H8_2 H 0.8799 0.7496 0.1028
N5_2 N 0.8332(2) 0.03649(18) 0.1250(2)
C15_2 C 0.8508(2) 0.1008(2) 0.0938(2)
H10_2 H 0.8800 0.0989 0.0652
C16_2 C 0.7104(2) 0.7578(2) 0.1607(2)
H11_2 H 0.6854 0.7096 0.1613
C17_2 C 0.7803(2) 0.84405(19) 0.1378(2)
H12_2 H 0.8136 0.8683 0.1201
C18_2 C 0.87956(19) 0.63388(19) 0.0648(2)
H13_2 H 0.9260 0.6358 0.0631
N6_2 N 0.70444(18) 0.82452(17) 0.19380(19)
O4_2 O 0.86284(18) 0.0903(2) 0.33309(17)
C24_2 C 0.8771(2) 0.0198(3) 0.3589(2)
C25_2 C 0.9406(2) 0.0086(2) 0.4325(2)
C26_2 C 0.9778(3) 0.0757(2) 0.4704(3)
H17_2 H 0.9631 0.1278 0.4510
C46_2 C 0.99698(18) 0.45715(19) 0.06081(18)
H32_2 H 0.9950 0.4281 0.1018
H1_2 H 0.8707 0.3517 0.9620
H5_2 H 0.8536 0.2205 0.9962
C14_2 C 0.93800(19) 0.5377(2) 0.95148(18)
H9_2 H 0.8965 0.5629 0.9186
C27_2 C 0.9630(2) 0.9318(3) 0.4627(3)
H18_2 H 0.9386 0.8851 0.4384
Zn6 Zn 0.76393(2) 0.00765(2) 0.73190(2)
C23 C 0.99698(18) 0.54285(19) 0.56081(18)
H16 H 0.9950 0.5719 0.6018
N8 N 0.79130(16) 0.93388(15) 0.66216(15)
N9 N 0.75763(15) 0.23381(15) 0.62476(14)
C28 C 0.93489(18) 0.50477(16) 0.51219(18)
C29 C 0.78354(19) 0.29961(17) 0.59053(17)
C30 C 0.83844(18) 0.43755(18) 0.54363(17)
N10 N 0.82126(15) 0.83023(15) 0.60874(15)
N11 N 0.86824(16) 0.51027(14) 0.52561(17)
C31 C 0.85062(17) 0.58948(18) 0.54518(17)
C32 C 0.85835(18) 0.65672(19) 0.50385(18)
H19 H 0.8707 0.6483 0.4620
C33 C 0.7675(2) 0.4364(2) 0.5404(2)
H20 H 0.7381 0.4822 0.5227
C34 C 0.81935(18) 0.6820(2) 0.62638(19)
H21 H 0.8059 0.6909 0.6674
C35 C 0.82930(18) 0.74750(18) 0.58614(18)
C36 C 0.82939(18) 0.60250(18) 0.60581(19)
H22 H 0.8219 0.5580 0.6326
C37 C 0.84804(18) 0.73492(19) 0.52400(18)
H23 H 0.8536 0.7795 0.4962
C38 C 0.78496(19) 0.8551(2) 0.65211(19)
H24 H 0.7590 0.8207 0.6721
C39 C 0.73951(19) 0.36768(19) 0.56322(19)
H25 H 0.6914 0.3672 0.5602
C40 C 0.8518(2) 0.29769(19) 0.58839(19)
H26 H 0.8799 0.2504 0.6028
C41 C 0.93800(19) 0.4623(2) 0.45148(18)
H27 H 0.8965 0.4371 0.4186
N12 N 0.8332(2) 0.96351(18) 0.6250(2)
C42 C 0.8508(2) 0.8992(2) 0.5938(2)
H28 H 0.8800 0.9011 0.5652
C43 C 0.7104(2) 0.2422(2) 0.6607(2)
H29 H 0.6854 0.2904 0.6613
C44 C 0.7803(2) 0.15595(19) 0.6378(2)
H30 H 0.8136 0.1317 0.6201
C45 C 0.87956(19) 0.36612(19) 0.5648(2)
H31 H 0.9260 0.3642 0.5631
N13 N 0.70444(18) 0.17548(17) 0.69380(19)
N14 N 0.74940(16) 0.11871(15) 0.67834(16)
O7 O 0.84234(16) 0.04142(19) 0.82687(17)
C54 C 0.9630(2) 0.0682(3) 0.9627(3)
H36 H 0.9386 0.1149 0.9384
O8 O 0.86284(18) 0.9097(2) 0.83309(17)
C51 C 0.8771(2) 0.9802(3) 0.8589(2)
C52 C 0.9406(2) 0.9914(2) 0.9325(2)
C53 C 0.9778(3) 0.9243(2) 0.9704(3)
H35 H 0.9631 0.8722 0.9510
Zn6_2 Zn 0.23607(2) 0.00765(2) 0.76810(2)
H19_2 H 0.1293 0.6483 0.0380
H23_2 H 0.1464 0.7795 0.0038
C41_2 C 0.06200(19) 0.4623(2) 0.04852(18)
H27_2 H 0.1035 0.4371 0.0814
O7_2 O 0.15766(16) 0.04142(19) 0.67313(17)
C54_2 C 0.0370(2) 0.0682(3) 0.5373(3)
H36_2 H 0.0614 0.1149 0.5616
C23_2 C 0.00302(18) 0.54285(19) 0.93919(18)
H16_2 H 0.0050 0.5719 0.8982
N8_2 N 0.20870(16) 0.93388(15) 0.83784(15)
N9_2 N 0.24237(15) 0.23381(15) 0.87524(14)
C28_2 C 0.06511(18) 0.50477(16) 0.98781(18)
C29_2 C 0.21646(19) 0.29961(17) 0.90947(17)
C30_2 C 0.16156(18) 0.43755(18) 0.95637(17)
N10_2 N 0.17874(15) 0.83023(15) 0.89126(15)
N11_2 N 0.13176(16) 0.51027(14) 0.97439(17)
C31_2 C 0.14938(17) 0.58948(18) 0.95482(17)
C32_2 C 0.14165(18) 0.65672(19) 0.99615(18)
C33_2 C 0.2325(2) 0.4364(2) 0.9596(2)
H20_2 H 0.2619 0.4822 0.9773
C34_2 C 0.18065(18) 0.6820(2) 0.87362(19)
H21_2 H 0.1941 0.6909 0.8326
C35_2 C 0.17070(18) 0.74750(18) 0.91386(18)
C36_2 C 0.17061(18) 0.60250(18) 0.89419(19)
H22_2 H 0.1781 0.5580 0.8674
C37_2 C 0.15196(18) 0.73492(19) 0.97600(18)
C38_2 C 0.21504(19) 0.8551(2) 0.84789(19)
H24_2 H 0.2410 0.8207 0.8279
C39_2 C 0.26049(19) 0.36768(19) 0.93678(19)
H25_2 H 0.3086 0.3672 0.9398
C40_2 C 0.1482(2) 0.29769(19) 0.91161(19)
H26_2 H 0.1201 0.2504 0.8972
N12_2 N 0.1668(2) 0.96351(18) 0.8750(2)
C42_2 C 0.1492(2) 0.8992(2) 0.9062(2)
H28_2 H 0.1200 0.9011 0.9348
C43_2 C 0.2896(2) 0.2422(2) 0.8393(2)
H29_2 H 0.3146 0.2904 0.8387
C44_2 C 0.2197(2) 0.15595(19) 0.8622(2)
H30_2 H 0.1864 0.1317 0.8799
C45_2 C 0.12044(19) 0.36612(19) 0.9352(2)
H31_2 H 0.0740 0.3642 0.9369
N13_2 N 0.29556(18) 0.17548(17) 0.80620(19)
N14_2 N 0.25060(16) 0.11871(15) 0.82166(16)
O8_2 O 0.13716(18) 0.9097(2) 0.66691(17)
C51_2 C 0.1229(2) 0.9802(3) 0.6411(2)
C52_2 C 0.0594(2) 0.9914(2) 0.5675(2)
C53_2 C 0.0222(3) 0.9243(2) 0.5296(3)
H35_2 H 0.0369 0.8722 0.5490
H15_2 H 0.5568 0.0456 0.7465
H34_2 H 0.4432 0.0456 0.7535
O1_2 O 0.67281(14) 0.99276(13) 0.74457(15)
O2_2 O 0.66853(14) 0.85865(15) 0.72423(17)
C19_2 C 0.64145(18) 0.9227(2) 0.73554(18)
C20_2 C 0.56793(17) 0.92255(18) 0.74266(18)
C21_2 C 0.53317(18) 0.84952(19) 0.74589(19)
H14_2 H 0.5550 0.7998 0.7424
C22_2 C 0.53376(18) 0.99591(17) 0.74723(19)
O5_2 O 0.32719(14) 0.99276(13) 0.75543(15)
O6_2 O 0.33147(14) 0.85865(15) 0.77577(17)
C47_2 C 0.35855(18) 0.9227(2) 0.76446(18)
C48_2 C 0.43207(17) 0.92255(18) 0.75734(18)
C49_2 C 0.46683(18) 0.84952(19) 0.75411(19)
H33_2 H 0.4450 0.7998 0.7576
C50_2 C 0.46624(18) 0.99591(17) 0.75277(19)
O5_3 O 0.17281(14) 0.50724(13) 0.24457(15)
O6_3 O 0.16853(14) 0.64135(15) 0.22423(17)
C47_3 C 0.14145(18) 0.5773(2) 0.23554(18)
C48_3 C 0.06793(17) 0.57745(18) 0.24266(18)
C49_3 C 0.03317(18) 0.65048(19) 0.24589(19)
H33_3 H 0.0550 0.7002 0.2424
C50_3 C 0.03376(18) 0.50409(17) 0.24723(19)
H34_3 H 0.0568 0.4544 0.2465
Zn2_2 Zn 0.26393(2) 0.49235(2) 0.23190(2)
N15_2 N 0.29130(16) 0.56612(15) 0.16216(15)
N17_2 N 0.24940(16) 0.38129(15) 0.17834(16)
O9_2 O 0.34234(16) 0.45858(19) 0.32687(17)
N2_3 N 0.25763(15) 0.26619(15) 0.12476(14)
C2_3 C 0.28354(19) 0.20039(17) 0.09053(17)
C3_3 C 0.33844(18) 0.06245(18) 0.04363(17)
C6_3 C 0.2675(2) 0.0636(2) 0.0404(2)
H2_3 H 0.2381 0.0178 0.0227
C12_3 C 0.23951(19) 0.13232(19) 0.06322(19)
H7_3 H 0.1914 0.1328 0.0602
C13_3 C 0.3518(2) 0.20231(19) 0.08839(19)
H8_3 H 0.3799 0.2496 0.1028
C16_3 C 0.2104(2) 0.2578(2) 0.1607(2)
H11_3 H 0.1854 0.2096 0.1613
C17_3 C 0.2803(2) 0.34405(19) 0.1378(2)
H12_3 H 0.3136 0.3683 0.1201
C18_3 C 0.37956(19) 0.13388(19) 0.0648(2)
H13_3 H 0.4260 0.1358 0.0631
N6_3 N 0.20444(18) 0.32452(17) 0.19380(19)
H19_3 H 0.6293 0.1483 0.0380
H23_3 H 0.6464 0.2795 0.0038
C14_3 C 0.43800(19) 0.0377(2) 0.95148(18)
H9_3 H 0.3965 0.0629 0.9186
C23_3 C 0.50302(18) 0.04285(19) 0.93919(18)
H16_3 H 0.5050 0.0719 0.8982
N8_3 N 0.70870(16) 0.43388(15) 0.83784(15)
C28_3 C 0.56511(18) 0.00477(16) 0.98781(18)
N10_3 N 0.67874(15) 0.33023(15) 0.89126(15)
N11_3 N 0.63176(16) 0.01027(14) 0.97439(17)
C31_3 C 0.64938(17) 0.08948(18) 0.95482(17)
C32_3 C 0.64165(18) 0.15672(19) 0.99615(18)
C34_3 C 0.68065(18) 0.1820(2) 0.87362(19)
H21_3 H 0.6941 0.1909 0.8326
C35_3 C 0.67070(18) 0.24750(18) 0.91386(18)
C36_3 C 0.67061(18) 0.10250(18) 0.89419(19)
H22_3 H 0.6781 0.0580 0.8674
C37_3 C 0.65196(18) 0.23492(19) 0.97600(18)
C38_3 C 0.71504(19) 0.3551(2) 0.84789(19)
H24_3 H 0.7410 0.3207 0.8279
N12_3 N 0.6668(2) 0.46351(18) 0.8750(2)
C42_3 C 0.6492(2) 0.3992(2) 0.9062(2)
H28_3 H 0.6200 0.4011 0.9348
Zn6_3 Zn 0.73607(2) 0.50765(2) 0.76810(2)
C1_3 C 0.43489(18) 0.99523(16) 0.01219(18)
N3_3 N 0.32126(15) 0.66977(15) 0.10874(15)
N4_3 N 0.36824(16) 0.98973(14) 0.02561(17)
C4_3 C 0.35062(17) 0.91052(18) 0.04518(17)
C5_3 C 0.35835(18) 0.84328(19) 0.00385(18)
C7_3 C 0.31935(18) 0.8180(2) 0.12638(19)
H3_3 H 0.3059 0.8091 0.1674
C8_3 C 0.32930(18) 0.75250(18) 0.08614(18)
C9_3 C 0.32939(18) 0.89750(18) 0.10581(19)
H4_3 H 0.3219 0.9420 0.1326
C10_3 C 0.34804(18) 0.76508(19) 0.02400(18)
C11_3 C 0.28496(19) 0.6449(2) 0.15211(19)
H6_3 H 0.2590 0.6793 0.1721
N5_3 N 0.3332(2) 0.53649(18) 0.1250(2)
C15_3 C 0.3508(2) 0.6008(2) 0.0938(2)
H10_3 H 0.3800 0.5989 0.0652
O4_3 O 0.36284(18) 0.5903(2) 0.33309(17)
C24_3 C 0.3771(2) 0.5198(3) 0.3589(2)
C25_3 C 0.4406(2) 0.5086(2) 0.4325(2)
C26_3 C 0.4778(3) 0.5757(2) 0.4704(3)
H17_3 H 0.4631 0.6278 0.4510
C27_3 C 0.4630(2) 0.4318(3) 0.4627(3)
H18_3 H 0.4386 0.3851 0.4384
C41_3 C 0.56200(19) 0.9623(2) 0.04852(18)
H27_3 H 0.6035 0.9371 0.0814
C46_3 C 0.49698(18) 0.95715(19) 0.06081(18)
H32_3 H 0.4950 0.9281 0.1018
O7_3 O 0.65766(16) 0.54142(19) 0.67313(17)
O8_3 O 0.63716(18) 0.4097(2) 0.66691(17)
C51_3 C 0.6229(2) 0.4802(3) 0.6411(2)
C52_3 C 0.5594(2) 0.4914(2) 0.5675(2)
C53_3 C 0.5222(3) 0.4243(2) 0.5296(3)
H35_3 H 0.5369 0.3722 0.5490
C54_3 C 0.5370(2) 0.5682(3) 0.5373(3)
H36_3 H 0.5614 0.6149 0.5616
H1_3 H 0.3707 0.8517 0.9620
H5_3 H 0.3536 0.7205 0.9962
N9_3 N 0.74237(15) 0.73381(15) 0.87524(14)
C29_3 C 0.71646(19) 0.79961(17) 0.90947(17)
C30_3 C 0.66156(18) 0.93755(18) 0.95637(17)
C33_3 C 0.7325(2) 0.9364(2) 0.9596(2)
H20_3 H 0.7619 0.9822 0.9773
C39_3 C 0.76049(19) 0.86768(19) 0.93678(19)
H25_3 H 0.8086 0.8672 0.9398
C40_3 C 0.6482(2) 0.79769(19) 0.91161(19)
H26_3 H 0.6201 0.7504 0.8972
C43_3 C 0.7896(2) 0.7422(2) 0.8393(2)
H29_3 H 0.8146 0.7904 0.8387
C44_3 C 0.7197(2) 0.65595(19) 0.8622(2)
H30_3 H 0.6864 0.6317 0.8799
C45_3 C 0.62044(19) 0.86612(19) 0.9352(2)
H31_3 H 0.5740 0.8642 0.9369
N13_3 N 0.79556(18) 0.67548(17) 0.80620(19)
N14_3 N 0.75060(16) 0.61871(15) 0.82166(16)
O5_4 O 0.82719(14) 0.49276(13) 0.75543(15)
O6_4 O 0.83147(14) 0.35865(15) 0.77577(17)
C47_4 C 0.85855(18) 0.4227(2) 0.76446(18)
C48_4 C 0.93207(17) 0.42255(18) 0.75734(18)
C49_4 C 0.96683(18) 0.34952(19) 0.75411(19)
H33_4 H 0.9450 0.2998 0.7576
C50_4 C 0.96624(18) 0.49591(17) 0.75277(19)
H34_4 H 0.9432 0.5456 0.7535
N2_4 N 0.74237(15) 0.26619(15) 0.37524(14)
C2_4 C 0.71646(19) 0.20039(17) 0.40947(17)
C3_4 C 0.66156(18) 0.06245(18) 0.45637(17)
C6_4 C 0.7325(2) 0.0636(2) 0.4596(2)
H2_4 H 0.7619 0.0178 0.4773
C12_4 C 0.76049(19) 0.13232(19) 0.43678(19)
H7_4 H 0.8086 0.1328 0.4398
C13_4 C 0.6482(2) 0.20231(19) 0.41161(19)
H8_4 H 0.6201 0.2496 0.3972
C14_4 C 0.56200(19) 0.0377(2) 0.54852(18)
H9_4 H 0.6035 0.0629 0.5814
C16_4 C 0.7896(2) 0.2578(2) 0.3393(2)
H11_4 H 0.8146 0.2096 0.3387
C17_4 C 0.7197(2) 0.34405(19) 0.3622(2)
H12_4 H 0.6864 0.3683 0.3799
C18_4 C 0.62044(19) 0.13388(19) 0.4352(2)
H13_4 H 0.5740 0.1358 0.4369
N6_4 N 0.79556(18) 0.32452(17) 0.30620(19)
N7_2 N 0.75060(16) 0.38129(15) 0.32166(16)
C23_4 C 0.49698(18) 0.04285(19) 0.56081(18)
H16_4 H 0.4950 0.0719 0.6018
N8_4 N 0.29130(16) 0.43388(15) 0.66216(15)
C28_4 C 0.43489(18) 0.00477(16) 0.51219(18)
N10_4 N 0.32126(15) 0.33023(15) 0.60874(15)
N11_4 N 0.36824(16) 0.01027(14) 0.52561(17)
C31_4 C 0.35062(17) 0.08948(18) 0.54518(17)
C32_4 C 0.35835(18) 0.15672(19) 0.50385(18)
H19_4 H 0.3707 0.1483 0.4620
C34_4 C 0.31935(18) 0.1820(2) 0.62638(19)
H21_4 H 0.3059 0.1909 0.6674
C35_4 C 0.32930(18) 0.24750(18) 0.58614(18)
C36_4 C 0.32939(18) 0.10250(18) 0.60581(19)
H22_4 H 0.3219 0.0580 0.6326
C37_4 C 0.34804(18) 0.23492(19) 0.52400(18)
H23_4 H 0.3536 0.2795 0.4962
C38_4 C 0.28496(19) 0.3551(2) 0.65211(19)
H24_4 H 0.2590 0.3207 0.6721
N12_4 N 0.3332(2) 0.46351(18) 0.6250(2)
C42_4 C 0.3508(2) 0.3992(2) 0.5938(2)
H28_4 H 0.3800 0.4011 0.5652
Zn3_2 Zn 0.73607(2) 0.49235(2) 0.26810(2)
Zn6_4 Zn 0.26393(2) 0.50765(2) 0.73190(2)
N1_2 N 0.70870(16) 0.56612(15) 0.33784(15)
C1_4 C 0.56511(18) 0.99523(16) 0.48781(18)
N3_4 N 0.67874(15) 0.66977(15) 0.39126(15)
N4_4 N 0.63176(16) 0.98973(14) 0.47439(17)
C4_4 C 0.64938(17) 0.91052(18) 0.45482(17)
C5_4 C 0.64165(18) 0.84328(19) 0.49615(18)
H1_4 H 0.6293 0.8517 0.5380
C7_4 C 0.68065(18) 0.8180(2) 0.37362(19)
H3_4 H 0.6941 0.8091 0.3326
C8_4 C 0.67070(18) 0.75250(18) 0.41386(18)
C9_4 C 0.67061(18) 0.89750(18) 0.39419(19)
H4_4 H 0.6781 0.9420 0.3674
C10_4 C 0.65196(18) 0.76508(19) 0.47600(18)
H5_4 H 0.6464 0.7205 0.5038
C11_4 C 0.71504(19) 0.6449(2) 0.34789(19)
H6_4 H 0.7410 0.6793 0.3279
N5_4 N 0.6668(2) 0.53649(18) 0.3750(2)
C15_4 C 0.6492(2) 0.6008(2) 0.4062(2)
H10_4 H 0.6200 0.5989 0.4348
O1_3 O 0.82719(14) 0.50724(13) 0.25543(15)
O2_3 O 0.83147(14) 0.64135(15) 0.27577(17)
C19_3 C 0.85855(18) 0.5773(2) 0.26446(18)
C20_3 C 0.93207(17) 0.57745(18) 0.25734(18)
C21_3 C 0.96683(18) 0.65048(19) 0.25411(19)
H14_3 H 0.9450 0.7002 0.2576
C22_3 C 0.96624(18) 0.50409(17) 0.25277(19)
H15_3 H 0.9432 0.4544 0.2535
O3_2 O 0.65766(16) 0.45858(19) 0.17313(17)
O4_4 O 0.63716(18) 0.5903(2) 0.16691(17)
C24_4 C 0.6229(2) 0.5198(3) 0.1411(2)
C25_4 C 0.5594(2) 0.5086(2) 0.0675(2)
C26_4 C 0.5222(3) 0.5757(2) 0.0296(3)
H17_4 H 0.5369 0.6278 0.0490
C27_4 C 0.5370(2) 0.4318(3) 0.0373(3)
H18_4 H 0.5614 0.3851 0.0616
N9_4 N 0.25763(15) 0.73381(15) 0.62476(14)
C29_4 C 0.28354(19) 0.79961(17) 0.59053(17)
C30_4 C 0.33844(18) 0.93755(18) 0.54363(17)
C33_4 C 0.2675(2) 0.9364(2) 0.5404(2)
H20_4 H 0.2381 0.9822 0.5227
C39_4 C 0.23951(19) 0.86768(19) 0.56322(19)
H25_4 H 0.1914 0.8672 0.5602
C40_4 C 0.3518(2) 0.79769(19) 0.58839(19)
H26_4 H 0.3799 0.7504 0.6028
C41_4 C 0.43800(19) 0.9623(2) 0.45148(18)
H27_4 H 0.3965 0.9371 0.4186
C43_4 C 0.2104(2) 0.7422(2) 0.6607(2)
H29_4 H 0.1854 0.7904 0.6613
C44_4 C 0.2803(2) 0.65595(19) 0.6378(2)
H30_4 H 0.3136 0.6317 0.6201
C45_4 C 0.37956(19) 0.86612(19) 0.5648(2)
H31_4 H 0.4260 0.8642 0.5631
N13_4 N 0.20444(18) 0.67548(17) 0.69380(19)
N14_4 N 0.24940(16) 0.61871(15) 0.67834(16)
C46_4 C 0.50302(18) 0.95715(19) 0.43919(18)
H32_4 H 0.5050 0.9281 0.3982
O7_4 O 0.34234(16) 0.54142(19) 0.82687(17)
O8_4 O 0.36284(18) 0.4097(2) 0.83309(17)
C51_4 C 0.3771(2) 0.4802(3) 0.8589(2)
C52_4 C 0.4406(2) 0.4914(2) 0.9325(2)
C53_4 C 0.4778(3) 0.4243(2) 0.9704(3)
H35_4 H 0.4631 0.3722 0.9510
C54_4 C 0.4630(2) 0.5682(3) 0.9627(3)
H36_4 H 0.4386 0.6149 0.9384
O1_4 O 0.17281(14) 0.49276(13) 0.74457(15)
O2_4 O 0.16853(14) 0.35865(15) 0.72423(17)
C19_4 C 0.14145(18) 0.4227(2) 0.73554(18)
C20_4 C 0.06793(17) 0.42255(18) 0.74266(18)
C21_4 C 0.03317(18) 0.34952(19) 0.74589(19)
H14_4 H 0.0550 0.2998 0.7424
C22_4 C 0.03376(18) 0.49591(17) 0.74723(19)
H15_4 H 0.0568 0.5456 0.7465
loop_
_geom_bond_atom_site_label_1
_geom_bond_atom_site_label_2
_geom_bond_site_symmetry_1
_geom_bond_site_symmetry_2
N1 C11 1_555 1_555
N2 C2 1_555 1_555
C1 N4 1_555 1_555
C2 C12 1_555 1_555
C3 N4 1_555 1_555
N3 C8 1_555 1_555
N4 C4 1_555 1_555
C4 C5 1_555 1_555
C5 H1 1_555 1_555
C6 C3 1_555 1_555
H2 C6 1_555 1_555
C7 H3 1_555 1_555
C8 C7 1_555 1_555
C9 C4 1_555 1_555
H4 C9 1_555 1_555
C10 C5 1_555 1_555
H5 C10 1_555 1_555
C11 N3 1_555 1_555
H6 C11 1_555 1_555
C12 C6 1_555 1_555
H7 C12 1_555 1_555
C13 C2 1_555 1_555
H8 C13 1_555 1_555
C14 C1 1_555 1_555
H9 C14 1_555 1_555
N5 N1 1_555 1_555
C15 N3 1_555 1_555
H10 C15 1_555 1_555
C16 N2 1_555 1_555
H11 C16 1_555 1_555
C17 N2 1_555 1_555
H12 C17 1_555 1_555
C18 C3 1_555 1_555
H13 C18 1_555 1_555
N6 C16 1_555 1_555
N7 C17 1_555 1_555
O2 C19 1_555 1_555
C19 O1 1_555 1_555
C20 C19 1_555 1_555
C21 C20 1_555 1_555
H14 C21 1_555 1_555
C22 C20 1_555 1_555
O4 C24 1_555 1_555
C25 C24 1_555 1_555
C26 C25 1_555 1_555
H17 C26 1_555 1_555
C46 C1 1_555 1_555
H32 C46 1_555 1_555
O5 C47 1_555 1_555
O6 C47 1_555 1_555
C47 C48 1_555 1_555
C48 C49 1_555 1_555
C49 C21 1_555 1_555
H33 C49 1_555 1_555
C50 C22 1_555 1_555
Zn3 N7 1_555 1_555
C7 C9 1_555 1_555
C8 C10 1_555 1_555
C13 C18 1_555 1_555
N5 C15 1_555 1_555
N6 N7 1_555 1_555
C48 C50 1_555 1_555
O3 Zn3 1_555 1_555
H18 C27 1_555 1_555
N17 Zn2 1_555 1_555
O9 Zn2 1_555 1_555
N15 C11_2 1_555 1_555
N2_2 C2_2 1_555 1_555
C1_2 N4_2 1_555 1_555
C2_2 C12_2 1_555 1_555
C3_2 N4_2 1_555 1_555
N3_2 C8_2 1_555 1_555
N4_2 C4_2 1_555 1_555
C4_2 C5_2 1_555 1_555
C6_2 C3_2 1_555 1_555
H2_2 C6_2 1_555 1_555
C7_2 H3_2 1_555 1_555
C8_2 C7_2 1_555 1_555
C9_2 C4_2 1_555 1_555
H4_2 C9_2 1_555 1_555
C10_2 C5_2 1_555 1_555
C11_2 N3_2 1_555 1_555
H6_2 C11_2 1_555 1_555
C12_2 C6_2 1_555 1_555
H7_2 C12_2 1_555 1_555
C13_2 C2_2 1_555 1_555
H8_2 C13_2 1_555 1_555
N5_2 N15 1_555 1_555
C15_2 N3_2 1_555 1_555
H10_2 C15_2 1_555 1_555
C16_2 N2_2 1_555 1_555
H11_2 C16_2 1_555 1_555
C17_2 N2_2 1_555 1_555
H12_2 C17_2 1_555 1_555
C18_2 C3_2 1_555 1_555
H13_2 C18_2 1_555 1_555
N6_2 C16_2 1_555 1_555
N17 C17_2 1_555 1_555
O4_2 C24_2 1_555 1_555
C25_2 C24_2 1_555 1_555
C26_2 C25_2 1_555 1_555
H17_2 C26_2 1_555 1_555
C46_2 C1_2 1_555 1_555
H32_2 C46_2 1_555 1_555
C7_2 C9_2 1_555 1_555
C8_2 C10_2 1_555 1_555
C13_2 C18_2 1_555 1_555
N5_2 C15_2 1_555 1_555
N6_2 N17 1_555 1_555
H9_2 C14_2 1_555 1_555
H18_2 C27_2 1_555 1_555
H16 C23 1_555 1_555
N8 C38 1_555 1_555
N9 C29 1_555 1_555
C28 C23 1_555 1_555
C29 C39 1_555 1_555
C30 N11 1_555 1_555
N10 C35 1_555 1_555
N11 C28 1_555 1_555
C31 N11 1_555 1_555
C32 C31 1_555 1_555
H19 C32 1_555 1_555
C33 C30 1_555 1_555
H20 C33 1_555 1_555
C34 H21 1_555 1_555
C35 C34 1_555 1_555
C36 C31 1_555 1_555
H22 C36 1_555 1_555
C37 C32 1_555 1_555
H23 C37 1_555 1_555
C38 N10 1_555 1_555
H24 C38 1_555 1_555
C39 C33 1_555 1_555
H25 C39 1_555 1_555
C40 C29 1_555 1_555
H26 C40 1_555 1_555
C41 C28 1_555 1_555
H27 C41 1_555 1_555
N12 N8 1_555 1_555
C42 N10 1_555 1_555
H28 C42 1_555 1_555
C43 N9 1_555 1_555
H29 C43 1_555 1_555
C44 N9 1_555 1_555
H30 C44 1_555 1_555
C45 C30 1_555 1_555
H31 C45 1_555 1_555
N13 C43 1_555 1_555
N14 C44 1_555 1_555
Zn6 N14 1_555 1_555
C34 C36 1_555 1_555
C35 C37 1_555 1_555
C40 C45 1_555 1_555
N12 C42 1_555 1_555
N13 N14 1_555 1_555
H36 C54 1_555 1_555
Zn6 O7 1_555 1_555
O8 C51 1_555 1_555
C51 C52 1_555 1_555
C52 C53 1_555 1_555
H35 C53 1_555 1_555
H27_2 C41_2 1_555 1_555
H36_2 C54_2 1_555 1_555
Zn6_2 O7_2 1_555 1_555
H16_2 C23_2 1_555 1_555
N8_2 C38_2 1_555 1_555
N9_2 C29_2 1_555 1_555
C28_2 C23_2 1_555 1_555
C29_2 C39_2 1_555 1_555
C30_2 N11_2 1_555 1_555
N10_2 C35_2 1_555 1_555
N11_2 C28_2 1_555 1_555
C31_2 N11_2 1_555 1_555
C32_2 C31_2 1_555 1_555
C33_2 C30_2 1_555 1_555
H20_2 C33_2 1_555 1_555
C34_2 H21_2 1_555 1_555
C35_2 C34_2 1_555 1_555
C36_2 C31_2 1_555 1_555
H22_2 C36_2 1_555 1_555
C37_2 C32_2 1_555 1_555
C38_2 N10_2 1_555 1_555
H24_2 C38_2 1_555 1_555
C39_2 C33_2 1_555 1_555
H25_2 C39_2 1_555 1_555
C40_2 C29_2 1_555 1_555
H26_2 C40_2 1_555 1_555
N12_2 N8_2 1_555 1_555
C42_2 N10_2 1_555 1_555
H28_2 C42_2 1_555 1_555
C43_2 N9_2 1_555 1_555
H29_2 C43_2 1_555 1_555
C44_2 N9_2 1_555 1_555
H30_2 C44_2 1_555 1_555
C45_2 C30_2 1_555 1_555
H31_2 C45_2 1_555 1_555
N13_2 C43_2 1_555 1_555
N14_2 C44_2 1_555 1_555
Zn6_2 N14_2 1_555 1_555
C34_2 C36_2 1_555 1_555
C35_2 C37_2 1_555 1_555
C40_2 C45_2 1_555 1_555
N12_2 C42_2 1_555 1_555
N13_2 N14_2 1_555 1_555
O8_2 C51_2 1_555 1_555
C51_2 C52_2 1_555 1_555
C52_2 C53_2 1_555 1_555
H35_2 C53_2 1_555 1_555
O2_2 C19_2 1_555 1_555
C19_2 O1_2 1_555 1_555
C20_2 C19_2 1_555 1_555
C21_2 C20_2 1_555 1_555
H14_2 C21_2 1_555 1_555
C22_2 C20_2 1_555 1_555
O5_2 C47_2 1_555 1_555
O6_2 C47_2 1_555 1_555
C47_2 C48_2 1_555 1_555
C48_2 C49_2 1_555 1_555
C49_2 C21_2 1_555 1_555
H33_2 C49_2 1_555 1_555
C50_2 C22_2 1_555 1_555
C48_2 C50_2 1_555 1_555
O5_3 C47_3 1_555 1_555
O6_3 C47_3 1_555 1_555
C47_3 C48_3 1_555 1_555
C48_3 C49_3 1_555 1_555
H33_3 C49_3 1_555 1_555
H34_3 C50_3 1_555 1_555
Zn2_2 O5_3 1_555 1_555
N15_2 Zn2_2 1_555 1_555
N17_2 Zn2_2 1_555 1_555
O9_2 Zn2_2 1_555 1_555
C48_3 C50_3 1_555 1_555
N2_3 C2_3 1_555 1_555
C2_3 C12_3 1_555 1_555
C6_3 C3_3 1_555 1_555
H2_3 C6_3 1_555 1_555
C12_3 C6_3 1_555 1_555
H7_3 C12_3 1_555 1_555
C13_3 C2_3 1_555 1_555
H8_3 C13_3 1_555 1_555
C16_3 N2_3 1_555 1_555
H11_3 C16_3 1_555 1_555
C17_3 N2_3 1_555 1_555
H12_3 C17_3 1_555 1_555
C18_3 C3_3 1_555 1_555
H13_3 C18_3 1_555 1_555
N6_3 C16_3 1_555 1_555
N17_2 C17_3 1_555 1_555
C13_3 C18_3 1_555 1_555
N6_3 N17_2 1_555 1_555
H9_3 C14_3 1_555 1_555
C23_3 C14_3 1_555 1_555
H16_3 C23_3 1_555 1_555
N8_3 C38_3 1_555 1_555
C28_3 C23_3 1_555 1_555
N10_3 C35_3 1_555 1_555
N11_3 C28_3 1_555 1_555
C31_3 N11_3 1_555 1_555
C32_3 C31_3 1_555 1_555
C34_3 H21_3 1_555 1_555
C35_3 C34_3 1_555 1_555
C36_3 C31_3 1_555 1_555
H22_3 C36_3 1_555 1_555
C37_3 C32_3 1_555 1_555
C38_3 N10_3 1_555 1_555
H24_3 C38_3 1_555 1_555
N12_3 N8_3 1_555 1_555
C42_3 N10_3 1_555 1_555
H28_3 C42_3 1_555 1_555
Zn6_3 N8_3 1_555 1_555
C34_3 C36_3 1_555 1_555
C35_3 C37_3 1_555 1_555
N12_3 C42_3 1_555 1_555
N15_2 C11_3 1_555 1_555
C1_3 N4_3 1_555 1_555
N3_3 C8_3 1_555 1_555
N4_3 C4_3 1_555 1_555
C4_3 C5_3 1_555 1_555
C7_3 H3_3 1_555 1_555
C8_3 C7_3 1_555 1_555
C9_3 C4_3 1_555 1_555
H4_3 C9_3 1_555 1_555
C10_3 C5_3 1_555 1_555
C11_3 N3_3 1_555 1_555
H6_3 C11_3 1_555 1_555
N5_3 N15_2 1_555 1_555
C15_3 N3_3 1_555 1_555
H10_3 C15_3 1_555 1_555
O4_3 C24_3 1_555 1_555
C24_3 O9_2 1_555 1_555
C25_3 C24_3 1_555 1_555
C26_3 C25_3 1_555 1_555
H17_3 C26_3 1_555 1_555
C27_3 C25_3 1_555 1_555
H18_3 C27_3 1_555 1_555
H27_3 C41_3 1_555 1_555
C46_3 C1_3 1_555 1_555
H32_3 C46_3 1_555 1_555
O7_3 C51_3 1_555 1_555
O8_3 C51_3 1_555 1_555
C51_3 C52_3 1_555 1_555
C52_3 C53_3 1_555 1_555
C53_3 C27_3 1_555 1_555
H35_3 C53_3 1_555 1_555
C54_3 C26_3 1_555 1_555
H36_3 C54_3 1_555 1_555
Zn6_3 O7_3 1_555 1_555
C7_3 C9_3 1_555 1_555
C8_3 C10_3 1_555 1_555
N5_3 C15_3 1_555 1_555
C41_3 C46_3 1_555 1_555
C52_3 C54_3 1_555 1_555
N9_3 C29_3 1_555 1_555
C29_3 C39_3 1_555 1_555
C33_3 C30_3 1_555 1_555
H20_3 C33_3 1_555 1_555
C39_3 C33_3 1_555 1_555
H25_3 C39_3 1_555 1_555
C40_3 C29_3 1_555 1_555
H26_3 C40_3 1_555 1_555
C43_3 N9_3 1_555 1_555
H29_3 C43_3 1_555 1_555
C44_3 N9_3 1_555 1_555
H30_3 C44_3 1_555 1_555
C45_3 C30_3 1_555 1_555
H31_3 C45_3 1_555 1_555
N13_3 C43_3 1_555 1_555
N14_3 C44_3 1_555 1_555
Zn6_3 N14_3 1_555 1_555
C40_3 C45_3 1_555 1_555
N13_3 N14_3 1_555 1_555
O5_4 C47_4 1_555 1_555
O6_4 C47_4 1_555 1_555
C47_4 C48_4 1_555 1_555
C48_4 C49_4 1_555 1_555
H33_4 C49_4 1_555 1_555
H34_4 C50_4 1_555 1_555
Zn6_3 O5_4 1_555 1_555
C48_4 C50_4 1_555 1_555
N2_4 C2_4 1_555 1_555
C2_4 C12_4 1_555 1_555
C6_4 C3_4 1_555 1_555
H2_4 C6_4 1_555 1_555
C12_4 C6_4 1_555 1_555
H7_4 C12_4 1_555 1_555
C13_4 C2_4 1_555 1_555
H8_4 C13_4 1_555 1_555
H9_4 C14_4 1_555 1_555
C16_4 N2_4 1_555 1_555
H11_4 C16_4 1_555 1_555
C17_4 N2_4 1_555 1_555
H12_4 C17_4 1_555 1_555
C18_4 C3_4 1_555 1_555
H13_4 C18_4 1_555 1_555
N6_4 C16_4 1_555 1_555
N7_2 C17_4 1_555 1_555
C23_4 C14_4 1_555 1_555
H16_4 C23_4 1_555 1_555
N8_4 C38_4 1_555 1_555
C28_4 C23_4 1_555 1_555
N10_4 C35_4 1_555 1_555
N11_4 C28_4 1_555 1_555
C31_4 N11_4 1_555 1_555
C32_4 C31_4 1_555 1_555
H19_4 C32_4 1_555 1_555
C34_4 H21_4 1_555 1_555
C35_4 C34_4 1_555 1_555
C36_4 C31_4 1_555 1_555
H22_4 C36_4 1_555 1_555
C37_4 C32_4 1_555 1_555
H23_4 C37_4 1_555 1_555
C38_4 N10_4 1_555 1_555
H24_4 C38_4 1_555 1_555
N12_4 N8_4 1_555 1_555
C42_4 N10_4 1_555 1_555
H28_4 C42_4 1_555 1_555
Zn3_2 N7_2 1_555 1_555
Zn6_4 N8_4 1_555 1_555
C13_4 C18_4 1_555 1_555
N6_4 N7_2 1_555 1_555
C34_4 C36_4 1_555 1_555
C35_4 C37_4 1_555 1_555
N12_4 C42_4 1_555 1_555
Zn3_2 N1_2 1_555 1_555
N1_2 C11_4 1_555 1_555
C1_4 N4_4 1_555 1_555
N3_4 C8_4 1_555 1_555
N4_4 C4_4 1_555 1_555
C4_4 C5_4 1_555 1_555
C5_4 H1_4 1_555 1_555
C7_4 H3_4 1_555 1_555
C8_4 C7_4 1_555 1_555
C9_4 C4_4 1_555 1_555
H4_4 C9_4 1_555 1_555
C10_4 C5_4 1_555 1_555
H5_4 C10_4 1_555 1_555
C11_4 N3_4 1_555 1_555
H6_4 C11_4 1_555 1_555
N5_4 N1_2 1_555 1_555
C15_4 N3_4 1_555 1_555
H10_4 C15_4 1_555 1_555
O1_3 Zn3_2 1_555 1_555
O2_3 C19_3 1_555 1_555
C19_3 O1_3 1_555 1_555
C20_3 C19_3 1_555 1_555
C21_3 C20_3 1_555 1_555
H14_3 C21_3 1_555 1_555
C22_3 C20_3 1_555 1_555
H15_3 C22_3 1_555 1_555
O3_2 Zn3_2 1_555 1_555
O4_4 C24_4 1_555 1_555
C24_4 O3_2 1_555 1_555
C25_4 C24_4 1_555 1_555
C26_4 C25_4 1_555 1_555
H17_4 C26_4 1_555 1_555
C27_4 C25_4 1_555 1_555
H18_4 C27_4 1_555 1_555
N9_4 C29_4 1_555 1_555
C29_4 C39_4 1_555 1_555
C33_4 C30_4 1_555 1_555
H20_4 C33_4 1_555 1_555
C39_4 C33_4 1_555 1_555
H25_4 C39_4 1_555 1_555
C40_4 C29_4 1_555 1_555
H26_4 C40_4 1_555 1_555
H27_4 C41_4 1_555 1_555
C43_4 N9_4 1_555 1_555
H29_4 C43_4 1_555 1_555
C44_4 N9_4 1_555 1_555
H30_4 C44_4 1_555 1_555
C45_4 C30_4 1_555 1_555
H31_4 C45_4 1_555 1_555
N13_4 C43_4 1_555 1_555
N14_4 C44_4 1_555 1_555
C46_4 C1_4 1_555 1_555
H32_4 C46_4 1_555 1_555
Zn6_4 N14_4 1_555 1_555
C7_4 C9_4 1_555 1_555
C8_4 C10_4 1_555 1_555
N5_4 C15_4 1_555 1_555
C40_4 C45_4 1_555 1_555
C41_4 C46_4 1_555 1_555
N13_4 N14_4 1_555 1_555
O7_4 C51_4 1_555 1_555
O8_4 C51_4 1_555 1_555
C51_4 C52_4 1_555 1_555
C52_4 C53_4 1_555 1_555
H35_4 C53_4 1_555 1_555
H36_4 C54_4 1_555 1_555
Zn6_4 O7_4 1_555 1_555
C52_4 C54_4 1_555 1_555
O1_4 Zn6_4 1_555 1_555
O2_4 C19_4 1_555 1_555
C19_4 O1_4 1_555 1_555
C20_4 C19_4 1_555 1_555
C21_4 C20_4 1_555 1_555
H14_4 C21_4 1_555 1_555
C22_4 C20_4 1_555 1_555
H15_4 C22_4 1_555 1_555

#END
