
###############################################################################
#
# This file contains modified crystal structure data generated from the
# MOF subset of the Cambridge Structural Database (CSD) v543 
# hosted by the Cambridge Crystallographic Data Centre (CCDC).
#
# This work is licensed under the Creative Commons
# Attribution-NonCommercial-ShareAlike 4.0 International License.
# To view a copy of this license, visit
# http://creativecommons.org/licenses/by-nc-sa/4.0/
# or send a letter to
# Creative Commons, PO Box 1866, Mountain View, CA 94042, USA.
#
# CIF created using the CSD Python API on 29 September 2022
# The structure has been converted into the P1 space group
# The structure has a 3D framework
# The original CSD entry VIXPUP01 is in the monoclinic crystal system
# The framework has been calculated to contain at least 10.0% void space
# The void calculation uses a probe of radius 1.32A, grid spacing 0.4
#
###############################################################################

data_VIXPUP01
_chemical_formula_moiety         '(C218 H144 Cu24 N24 O144)n'
_symmetry_cell_setting           triclinic
_symmetry_space_group_name_H-M   'P 1'
_symmetry_Int_Tables_number      1
_space_group_name_Hall           'P 1'
loop_
_symmetry_equiv_pos_site_id
_symmetry_equiv_pos_as_xyz
1 x,y,z
_cell_length_a                   27.9161(6)
_cell_length_b                   18.6627(4)
_cell_length_c                   32.3643(8)
_cell_angle_alpha                90
_cell_angle_beta                 112.655(3)
_cell_angle_gamma                90
_cell_volume                     15560.5
loop_
_atom_site_label
_atom_site_type_symbol
_atom_site_fract_x
_atom_site_fract_y
_atom_site_fract_z
H33 H 0.8850 0.1783 0.0079
O81 O 0.81293(16) 0.2547(3) 0.03758(13)
O83 O 0.74394(15) 0.3202(2) 0.03359(13)
Cu1 Cu 0.29473(2) 0.24459(4) 0.50960(2)
Cu2 Cu 0.20974(3) 0.31411(4) 0.50486(2)
Cu3 Cu 0.20176(3) 0.49803(4) 0.73041(2)
Cu4 Cu 0.28716(3) 0.49285(4) 0.80476(2)
Cu5 Cu 0.70301(3) 0.30913(4) 0.96817(2)
Cu6 Cu 0.78963(3) 0.23832(4) 0.97474(2)
O1 O 0.31716(14) 0.2691(2) 0.57280(13)
O2 O 0.24435(14) 0.3220(2) 0.57036(13)
O3 O 0.23921(14) 0.4303(2) 0.70696(12)
O4 O 0.31160(15) 0.4303(3) 0.76899(13)
O5 O 0.4738(2) 0.2787(6) 0.6804(2)
O6 O 0.5369(3) 0.2718(9) 0.7944(3)
O7 O 0.68719(14) 0.2791(2) 0.90422(12)
O8 O 0.76104(15) 0.2245(2) 0.91075(13)
O9 O 0.76298(14) 0.0768(2) 0.78632(11)
O10 O 0.69269(16) 0.0746(3) 0.72273(14)
N1 N 0.4430(2) 0.2948(6) 0.7334(2)
H1 H 0.4526 0.2933 0.7627
N2 N 0.5663(2) 0.2456(4) 0.74218(19)
H2 H 0.5581 0.2462 0.7131
C1 C 0.2900(2) 0.3020(3) 0.58996(17)
C2 C 0.3148(2) 0.3175(3) 0.63880(19)
C3 C 0.2882(2) 0.3524(3) 0.66053(18)
H3 H 0.2529 0.3651 0.6445
C4 C 0.3123(2) 0.3697(4) 0.7061(2)
C5 C 0.3632(2) 0.3495(5) 0.7290(2)
H4 H 0.3800 0.3605 0.7600
C6 C 0.3898(3) 0.3139(5) 0.7077(3)
C7 C 0.3658(3) 0.2942(4) 0.6625(2)
H5 H 0.3836 0.2661 0.6484
C8 C 0.2858(2) 0.4128(3) 0.73007(19)
C9 C 0.4779(3) 0.2798(6) 0.7180(3)
C10 C 0.5318(3) 0.2630(6) 0.7556(3)
C11 C 0.6185(3) 0.2243(5) 0.7698(2)
C12 C 0.6416(3) 0.2502(4) 0.8147(2)
H6 H 0.6244 0.2839 0.8262
C13 C 0.6924(2) 0.2223(3) 0.8417(2)
C14 C 0.7165(2) 0.1755(3) 0.82383(18)
H7 H 0.7502 0.1585 0.8420
C15 C 0.6932(2) 0.1516(3) 0.77944(18)
C16 C 0.6438(2) 0.1803(4) 0.75233(18)
H8 H 0.6286 0.1681 0.7215
C17 C 0.7141(2) 0.2447(3) 0.8892(2)
C18 C 0.71846(19) 0.0972(3) 0.76160(16)
O11 O 0.25701(14) 0.2311(2) 0.44579(13)
O12 O 0.18690(16) 0.2952(2) 0.44168(14)
O13 O 0.25249(15) 0.0883(2) 0.31891(13)
O14 O 0.17969(14) 0.0825(2) 0.25751(12)
O15 O 0.0306(3) 0.2052(5) 0.2214(2)
N3 N 0.0624(2) 0.2689(5) 0.2837(2)
H9 H 0.0544 0.3065 0.2962
C19 C 0.2135(2) 0.2563(3) 0.42525(18)
C20 C 0.1864(2) 0.2357(3) 0.37616(18)
C21 C 0.2098(2) 0.1883(3) 0.35772(19)
H11 H 0.2440 0.1715 0.3746
C22 C 0.1828(2) 0.1645(3) 0.31347(18)
C23 C 0.1341(2) 0.1903(4) 0.2888(2)
H12 H 0.1158 0.1734 0.2592
C24 C 0.1115(3) 0.2413(4) 0.3072(2)
C25 C 0.1372(3) 0.2635(4) 0.3512(2)
H13 H 0.1216 0.2973 0.3642
C26 C 0.2065(2) 0.1071(3) 0.29553(19)
C27 C 0.0250(3) 0.2480(5) 0.2452(2)
O21 O 0.26098(15) 0.1583(2) 0.52108(15)
O22 O 0.18758(14) 0.2177(2) 0.51309(17)
N5 N 0.0631(2) 0.0368(3) 0.5223(3)
H17 H 0.0537 0.0731 0.5349
C37 C 0.2154(2) 0.1614(3) 0.5196(2)
C38 C 0.1903(2) 0.0925(3) 0.5251(2)
C39 C 0.2171(2) 0.0287(3) 0.5307(2)
H18 H 0.2520 0.0281 0.5327
C42 C 0.1160(3) 0.0333(4) 0.5269(3)
C43 C 0.1405(2) 0.0960(4) 0.5232(3)
H20 H 0.1231 0.1407 0.5194
O26 O 0.31726(15) 0.3399(2) 0.49927(16)
O27 O 0.24697(15) 0.3992(2) 0.49902(15)
O28 O 0.25260(15) 0.6570(2) 0.51902(15)
O29 O 0.32230(15) 0.7179(2) 0.52072(15)
O30 O 0.4625(3) 0.4268(4) 0.4935(5)
N6 N 0.4444(3) 0.5377(3) 0.5034(3)
H21 H 0.4580 0.5810 0.5078
C46 C 0.2919(2) 0.3961(3) 0.49876(19)
C47 C 0.3190(2) 0.4668(3) 0.5000(2)
C48 C 0.2947(2) 0.5292(3) 0.5054(2)
H22 H 0.2610 0.5274 0.5061
C49 C 0.3202(2) 0.5938(3) 0.5098(2)
C50 C 0.3708(2) 0.5959(3) 0.5087(3)
H23 H 0.3888 0.6401 0.5120
C51 C 0.3933(3) 0.5329(4) 0.5026(3)
C52 C 0.3678(2) 0.4662(3) 0.4991(2)
H24 H 0.3839 0.4226 0.4961
C53 C 0.2970(2) 0.6621(3) 0.5177(2)
C54 C 0.4735(3) 0.4881(4) 0.4985(4)
O31 O 0.36496(17) 0.1952(3) 0.5161(2)
H25 H 0.3763 0.1500 0.5283
H26 H 0.3904 0.2146 0.5072
O32 O 0.13814(17) 0.3632(3) 0.49670(17)
H27 H 0.1323 0.4127 0.4984
H28 H 0.1063 0.3394 0.4905
O33 O 0.13131(19) 0.5032(3) 0.67374(15)
H29 H 0.1008 0.4921 0.6735
H30 H 0.1282 0.5167 0.6470
O34 O 0.3592(2) 0.4885(3) 0.86051(17)
H31 H 0.3811 0.5266 0.8725
H32 H 0.3738 0.4481 0.8769
O35 O 0.86097(19) 0.1912(3) 0.98245(19)
H34 H 0.8711 0.1815 0.9607
O36 O 0.62950(16) 0.3556(3) 0.95339(19)
H35 H 0.6095 0.3504 0.9698
H36 H 0.6123 0.3843 0.9294
O42 O 0.68274(15) 0.6601(2) 0.50073(16)
O43 O 0.75303(15) 0.6008(2) 0.50098(15)
O44 O 0.74740(15) 0.3430(2) 0.48098(15)
O45 O 0.67770(15) 0.2821(2) 0.47928(15)
O46 O 0.5375(3) 0.5732(4) 0.5065(5)
N8 N 0.5556(3) 0.4623(3) 0.4966(3)
H41 H 0.5420 0.4190 0.4922
C64 C 0.7081(2) 0.6039(3) 0.50124(19)
C65 C 0.6810(2) 0.5332(3) 0.5000(2)
C66 C 0.7053(2) 0.4708(3) 0.4946(2)
H42 H 0.7390 0.4726 0.4939
C67 C 0.6798(2) 0.4062(3) 0.4902(2)
C68 C 0.6292(2) 0.4041(3) 0.4913(3)
H43 H 0.6112 0.3599 0.4880
C69 C 0.6067(3) 0.4671(4) 0.4974(3)
C70 C 0.6322(2) 0.5338(3) 0.5009(2)
H44 H 0.6161 0.5774 0.5039
C71 C 0.7030(2) 0.3379(3) 0.4823(2)
C72 C 0.5265(3) 0.5119(4) 0.5015(4)
Cu13 Cu 0.70527(2) 0.75541(4) 0.49040(2)
Cu14 Cu 0.79026(3) 0.68589(4) 0.49514(2)
Cu20 Cu 0.20176(3) 0.00197(4) 0.23041(2)
Cu26 Cu 0.28716(3) 0.00715(4) 0.30476(2)
Cu29 Cu 0.29699(3) 0.80913(4) 0.53183(2)
Cu32 Cu 0.70301(3) 0.19087(4) 0.46817(2)
Cu35 Cu 0.21037(3) 0.73832(4) 0.52526(2)
Cu38 Cu 0.78963(3) 0.26168(4) 0.47474(2)
O73 O 0.23702(14) 0.5768(2) 0.71368(11)
O75 O 0.30731(16) 0.5746(3) 0.77727(14)
O78 O 0.25249(15) 0.4117(2) 0.81891(13)
O80 O 0.17969(14) 0.4175(2) 0.75751(12)
O86 O 0.25075(15) 0.5563(2) 0.82998(12)
O88 O 0.18038(15) 0.5646(2) 0.76697(12)
O89 O 0.73493(14) 0.3961(2) 0.95991(14)
O91 O 0.80875(15) 0.3395(2) 0.96710(16)
O95 O 0.74740(15) 0.1570(2) 0.98098(15)
O97 O 0.67770(15) 0.2179(2) 0.97928(15)
Cu30 Cu 0.29699(3) 0.69087(4) 0.03183(2)
Cu36 Cu 0.21037(3) 0.76168(4) 0.02526(2)
O23 O 0.26507(14) 0.8961(2) 0.54009(14)
O24 O 0.19125(15) 0.8395(2) 0.53290(16)
O25 O 0.0322(2) 0.9308(4) 0.4862(4)
C40 C 0.1923(2) 0.9658(3) 0.5332(2)
C41 C 0.1414(2) 0.9668(3) 0.5314(3)
H19 H 0.1243 0.9236 0.5332
C44 C 0.2179(2) 0.8949(3) 0.53661(19)
C45 C 0.0258(3) 0.9871(4) 0.4994(4)
O62 O 0.0268(3) 0.6598(6) 0.7464(3)
O63 O 0.18707(16) 0.7453(3) 0.96242(13)
O64 O 0.25606(15) 0.6798(2) 0.96641(13)
N12 N 0.0599(2) 0.7290(4) 0.8065(2)
H54 H 0.0514 0.7647 0.8201
C100 C 0.0241(3) 0.7083(5) 0.7686(2)
C101 C 0.1101(3) 0.7015(4) 0.8282(2)
C102 C 0.1366(3) 0.7172(4) 0.8729(2)
H58 H 0.1206 0.7464 0.8880
C103 C 0.1861(2) 0.6911(3) 0.89597(19)
C104 C 0.2091(2) 0.6462(3) 0.87553(19)
H59 H 0.2426 0.6268 0.8918
C105 C 0.1825(2) 0.6297(3) 0.83059(18)
C106 C 0.1333(2) 0.6566(3) 0.80627(19)
H60 H 0.1157 0.6450 0.7755
C107 C 0.2128(2) 0.7076(3) 0.94528(19)
C108 C 0.2069(2) 0.5793(3) 0.80758(17)
Cu17 Cu 0.79824(3) 0.99803(4) 0.76959(2)
Cu23 Cu 0.71284(3) 0.99285(4) 0.69524(2)
O16 O 0.9732(3) 0.3402(6) 0.2536(3)
O19 O 0.74925(15) 0.4437(2) 0.17002(12)
O20 O 0.81962(15) 0.4354(2) 0.23303(12)
N4 N 0.9401(2) 0.2710(4) 0.1935(2)
H10 H 0.9486 0.2353 0.1799
C28 C 0.9759(3) 0.2917(5) 0.2314(2)
C29 C 0.8899(3) 0.2985(4) 0.1718(2)
C30 C 0.8634(3) 0.2828(4) 0.1271(2)
H14 H 0.8794 0.2536 0.1120
C31 C 0.8139(2) 0.3089(3) 0.10403(19)
C32 C 0.7909(2) 0.3538(3) 0.12447(19)
H15 H 0.7574 0.3732 0.1082
C33 C 0.8175(2) 0.3703(3) 0.16941(18)
C34 C 0.8667(2) 0.3434(3) 0.19373(19)
H16 H 0.8843 0.3550 0.2245
C35 C 0.7872(2) 0.2924(3) 0.05472(19)
C36 C 0.7931(2) 0.4207(3) 0.19242(17)
O39 O 0.73493(14) 0.1039(2) 0.45991(14)
O40 O 0.80875(15) 0.1605(2) 0.46710(16)
O41 O 0.9678(2) 0.0692(4) 0.5138(4)
C58 C 0.8077(2) 0.0342(3) 0.4668(2)
C59 C 0.8586(2) 0.0332(3) 0.4686(3)
H39 H 0.8757 0.0764 0.4668
C62 C 0.7821(2) 0.1051(3) 0.46339(19)
C63 C 0.9742(3) 0.0129(4) 0.5006(4)
Cu18 Cu 0.79824(3) 0.50197(4) 0.26959(2)
Cu24 Cu 0.71284(3) 0.50715(4) 0.19524(2)
O37 O 0.73902(15) 0.8417(2) 0.47892(15)
O38 O 0.81242(14) 0.7823(2) 0.48691(17)
N7 N 0.9369(2) 0.9632(3) 0.4777(3)
H37 H 0.9463 0.9269 0.4651
C55 C 0.7846(2) 0.8386(3) 0.4804(2)
C56 C 0.8097(2) 0.9075(3) 0.4749(2)
C57 C 0.7829(2) 0.9713(3) 0.4693(2)
H38 H 0.7480 0.9719 0.4673
C60 C 0.8840(3) 0.9667(4) 0.4731(3)
C61 C 0.8595(2) 0.9040(4) 0.4768(3)
H40 H 0.8769 0.8593 0.4806
O47 O 0.68284(14) 0.7309(2) 0.42720(13)
O48 O 0.75565(14) 0.6780(2) 0.42964(13)
O49 O 0.76079(14) 0.5697(2) 0.29304(12)
O50 O 0.68840(15) 0.5697(3) 0.23101(13)
O51 O 0.5262(2) 0.7213(6) 0.3196(2)
O52 O 0.4631(3) 0.7282(9) 0.2056(3)
O53 O 0.31281(14) 0.7209(2) 0.09578(12)
O54 O 0.23896(15) 0.7755(2) 0.08925(13)
O55 O 0.23702(14) 0.9232(2) 0.21368(11)
O56 O 0.30731(16) 0.9254(3) 0.27727(14)
N9 N 0.5570(2) 0.7052(6) 0.2666(2)
H45 H 0.5474 0.7067 0.2373
N10 N 0.4337(2) 0.7544(4) 0.25782(19)
H46 H 0.4419 0.7538 0.2869
C73 C 0.7100(2) 0.6980(3) 0.41004(17)
C74 C 0.6852(2) 0.6825(3) 0.36120(19)
C75 C 0.7118(2) 0.6476(3) 0.33947(18)
H47 H 0.7471 0.6349 0.3555
C76 C 0.6877(2) 0.6303(4) 0.2939(2)
C77 C 0.6368(2) 0.6505(5) 0.2710(2)
H48 H 0.6200 0.6395 0.2400
C78 C 0.6102(3) 0.6861(5) 0.2923(3)
C79 C 0.6342(3) 0.7058(4) 0.3375(2)
H49 H 0.6164 0.7339 0.3516
C80 C 0.7142(2) 0.5872(3) 0.26993(19)
C81 C 0.5221(3) 0.7202(6) 0.2820(3)
C82 C 0.4682(3) 0.7370(6) 0.2444(3)
C83 C 0.3815(3) 0.7757(5) 0.2302(2)
C84 C 0.3584(3) 0.7498(4) 0.1853(2)
H50 H 0.3756 0.7161 0.1738
C85 C 0.3076(2) 0.7777(3) 0.1583(2)
C86 C 0.2835(2) 0.8245(3) 0.17617(18)
H51 H 0.2498 0.8415 0.1580
C87 C 0.3068(2) 0.8484(3) 0.22056(18)
C88 C 0.3562(2) 0.8197(4) 0.24767(18)
H52 H 0.3714 0.8319 0.2785
C89 C 0.2859(2) 0.7553(3) 0.1108(2)
C90 C 0.28154(19) 0.9028(3) 0.23840(16)
O57 O 0.74299(14) 0.7689(2) 0.55421(13)
O58 O 0.81310(16) 0.7048(2) 0.55832(14)
O59 O 0.74751(15) 0.9117(2) 0.68109(13)
O60 O 0.82031(14) 0.9175(2) 0.74249(12)
O61 O 0.9694(3) 0.7948(5) 0.7786(2)
N11 N 0.9376(2) 0.7311(5) 0.7163(2)
H53 H 0.9456 0.6935 0.7038
C91 C 0.7865(2) 0.7437(3) 0.57475(18)
C92 C 0.8136(2) 0.7643(3) 0.62384(18)
C93 C 0.7902(2) 0.8117(3) 0.64228(19)
H55 H 0.7560 0.8285 0.6254
C94 C 0.8172(2) 0.8355(3) 0.68653(18)
C95 C 0.8659(2) 0.8097(4) 0.7112(2)
H56 H 0.8842 0.8266 0.7408
C96 C 0.8885(3) 0.7587(4) 0.6928(2)
C97 C 0.8628(3) 0.7365(4) 0.6488(2)
H57 H 0.8784 0.7027 0.6358
C98 C 0.7935(2) 0.8929(3) 0.70447(19)
C99 C 0.9750(3) 0.7520(5) 0.7548(2)
O67 O 0.63504(17) 0.8048(3) 0.4839(2)
H61 H 0.6237 0.8500 0.4717
H62 H 0.6096 0.7854 0.4928
O68 O 0.86186(17) 0.6368(3) 0.50330(17)
H63 H 0.8677 0.5873 0.5016
H64 H 0.8937 0.6606 0.5095
O69 O 0.86869(19) 0.4968(3) 0.32626(15)
H65 H 0.8992 0.5079 0.3265
H66 H 0.8718 0.4833 0.3530
O70 O 0.6408(2) 0.5115(3) 0.13949(17)
H67 H 0.6189 0.4734 0.1275
H68 H 0.6262 0.5519 0.1231
O71 O 0.13903(19) 0.8088(3) 0.01755(19)
H70 H 0.1289 0.8185 0.0393
O72 O 0.37050(16) 0.6444(3) 0.04661(19)
H71 H 0.3905 0.6496 0.0302
H72 H 0.3877 0.6157 0.0706
O74 O 0.76298(14) 0.4232(2) 0.28632(11)
O76 O 0.69269(16) 0.4254(3) 0.22273(14)
O77 O 0.74751(15) 0.5883(2) 0.18109(13)
O79 O 0.82031(14) 0.5825(2) 0.24249(12)
O90 O 0.26507(14) 0.6039(2) 0.04009(14)
O92 O 0.19125(15) 0.6605(2) 0.03290(16)
O96 O 0.25260(15) 0.8430(2) 0.01902(15)
O98 O 0.32230(15) 0.7821(2) 0.02072(15)
H69 H 0.1150 0.8217 0.9921
O16_2 O 0.0268(3) 0.8402(6) 0.2464(3)
O17 O 0.18707(16) 0.7547(3) 0.46242(13)
O18 O 0.25606(15) 0.8202(2) 0.46641(13)
O19_2 O 0.25075(15) 0.9437(2) 0.32998(12)
O20_2 O 0.18038(15) 0.9354(2) 0.26697(12)
N4_2 N 0.0599(2) 0.7710(4) 0.3065(2)
H10_2 H 0.0514 0.7353 0.3201
C28_2 C 0.0241(3) 0.7917(5) 0.2686(2)
C29_2 C 0.1101(3) 0.7985(4) 0.3282(2)
C30_2 C 0.1366(3) 0.7828(4) 0.3729(2)
H14_2 H 0.1206 0.7536 0.3880
C31_2 C 0.1861(2) 0.8089(3) 0.39597(19)
C32_2 C 0.2091(2) 0.8538(3) 0.37553(19)
H15_2 H 0.2426 0.8732 0.3918
C33_2 C 0.1825(2) 0.8703(3) 0.33059(18)
C34_2 C 0.1333(2) 0.8434(3) 0.30627(19)
H16_2 H 0.1157 0.8550 0.2755
C35_2 C 0.2128(2) 0.7924(3) 0.44528(19)
C36_2 C 0.2069(2) 0.9207(3) 0.30758(17)
O37_2 O 0.26098(15) 0.3417(2) 0.02108(15)
O38_2 O 0.18758(14) 0.2823(2) 0.01309(17)
N7_2 N 0.0631(2) 0.4632(3) 0.0223(3)
H37_2 H 0.0537 0.4269 0.0349
C55_2 C 0.2154(2) 0.3386(3) 0.0196(2)
C56_2 C 0.1903(2) 0.4075(3) 0.0251(2)
C57_2 C 0.2171(2) 0.4713(3) 0.0307(2)
H38_2 H 0.2520 0.4719 0.0327
C58_2 C 0.1923(2) 0.5342(3) 0.0332(2)
C59_2 C 0.1414(2) 0.5332(3) 0.0314(3)
H39_2 H 0.1243 0.5764 0.0332
C60_2 C 0.1160(3) 0.4667(4) 0.0269(3)
C61_2 C 0.1405(2) 0.4040(4) 0.0232(3)
H40_2 H 0.1231 0.3593 0.0194
C62_2 C 0.2179(2) 0.6051(3) 0.03661(19)
Cu7 Cu 0.29473(2) 0.25541(4) 0.00960(2)
Cu8 Cu 0.20974(3) 0.18589(4) 0.00486(2)
O47_2 O 0.31716(14) 0.2309(2) 0.07280(13)
O48_2 O 0.24435(14) 0.1780(2) 0.07036(13)
O49_2 O 0.23921(14) 0.0697(2) 0.20696(12)
O50_2 O 0.31160(15) 0.0697(3) 0.26899(13)
O51_2 O 0.4738(2) 0.2213(6) 0.1804(2)
O52_2 O 0.5369(3) 0.2282(9) 0.2944(3)
O53_2 O 0.68719(14) 0.2209(2) 0.40422(12)
O54_2 O 0.76104(15) 0.2755(2) 0.41075(13)
N9_2 N 0.4430(2) 0.2052(6) 0.2334(2)
H45_2 H 0.4526 0.2067 0.2627
N10_2 N 0.5663(2) 0.2544(4) 0.24218(19)
H46_2 H 0.5581 0.2538 0.2131
C73_2 C 0.2900(2) 0.1980(3) 0.08996(17)
C74_2 C 0.3148(2) 0.1825(3) 0.13880(19)
C75_2 C 0.2882(2) 0.1476(3) 0.16053(18)
H47_2 H 0.2529 0.1349 0.1445
C76_2 C 0.3123(2) 0.1303(4) 0.2061(2)
C77_2 C 0.3632(2) 0.1505(5) 0.2290(2)
H48_2 H 0.3800 0.1395 0.2600
C78_2 C 0.3898(3) 0.1861(5) 0.2077(3)
C79_2 C 0.3658(3) 0.2058(4) 0.1625(2)
H49_2 H 0.3836 0.2339 0.1484
C80_2 C 0.2858(2) 0.0872(3) 0.23007(19)
C81_2 C 0.4779(3) 0.2202(6) 0.2180(3)
C82_2 C 0.5318(3) 0.2370(6) 0.2556(3)
C83_2 C 0.6185(3) 0.2757(5) 0.2698(2)
C84_2 C 0.6416(3) 0.2498(4) 0.3147(2)
H50_2 H 0.6244 0.2161 0.3262
C85_2 C 0.6924(2) 0.2777(3) 0.3417(2)
C86_2 C 0.7165(2) 0.3245(3) 0.32383(18)
H51_2 H 0.7502 0.3415 0.3420
C87_2 C 0.6932(2) 0.3484(3) 0.27944(18)
C88_2 C 0.6438(2) 0.3197(4) 0.25233(18)
H52_2 H 0.6286 0.3319 0.2215
C89_2 C 0.7141(2) 0.2553(3) 0.3892(2)
C90_2 C 0.71846(19) 0.4028(3) 0.26160(16)
O67_2 O 0.36496(17) 0.3048(3) 0.0161(2)
H61_2 H 0.3763 0.3500 0.0283
H62_2 H 0.3904 0.2854 0.0072
H65_2 H 0.1008 0.0079 0.1735
O70_2 O 0.3592(2) 0.0115(3) 0.36051(17)
H68_2 H 0.3738 0.0519 0.3769
O71_2 O 0.86097(19) 0.3088(3) 0.48245(19)
H69_2 H 0.8850 0.3217 0.5079
H70_2 H 0.8711 0.3185 0.4607
O72_2 O 0.62950(16) 0.1444(3) 0.45339(19)
H71_2 H 0.6095 0.1496 0.4698
H72_2 H 0.6123 0.1157 0.4294
O82 O 0.81293(16) 0.2453(3) 0.53758(13)
O84 O 0.74394(15) 0.1798(2) 0.53359(13)
O41_2 O 0.0322(2) 0.5692(4) 0.9862(4)
C63_2 C 0.0258(3) 0.5129(4) 0.9994(4)
O57_2 O 0.25701(14) 0.2689(2) 0.94579(13)
O58_2 O 0.18690(16) 0.2048(2) 0.94168(14)
O61_2 O 0.0306(3) 0.2948(5) 0.7214(2)
N11_2 N 0.0624(2) 0.2311(5) 0.7837(2)
H53_2 H 0.0544 0.1935 0.7962
C91_2 C 0.2135(2) 0.2437(3) 0.92525(18)
C92_2 C 0.1864(2) 0.2643(3) 0.87616(18)
C93_2 C 0.2098(2) 0.3117(3) 0.85772(19)
H55_2 H 0.2440 0.3285 0.8746
C94_2 C 0.1828(2) 0.3355(3) 0.81347(18)
C95_2 C 0.1341(2) 0.3097(4) 0.7888(2)
H56_2 H 0.1158 0.3266 0.7592
C96_2 C 0.1115(3) 0.2587(4) 0.8072(2)
C97_2 C 0.1372(3) 0.2365(4) 0.8512(2)
H57_2 H 0.1216 0.2027 0.8642
C98_2 C 0.2065(2) 0.3929(3) 0.79553(19)
C99_2 C 0.0250(3) 0.2520(5) 0.7452(2)
O68_2 O 0.13814(17) 0.1368(3) 0.99670(17)
H63_2 H 0.1323 0.0873 0.9984
H64_2 H 0.1063 0.1606 0.9905
O93 O 0.31726(15) 0.1601(2) 0.99927(16)
O94 O 0.24697(15) 0.1008(2) 0.99902(15)
O69_2 O 0.13131(19) 0.9968(3) 0.17374(15)
H66_2 H 0.1282 0.9833 0.1470
H67_2 H 0.3811 0.9734 0.3725
C65_2 C 0.3190(2) 0.0332(3) 0.0000(2)
N6_2 N 0.5556(3) 0.0377(3) 0.9966(3)
H21_2 H 0.5420 0.0810 0.9922
C48_2 C 0.7053(2) 0.0292(3) 0.9946(2)
H22_2 H 0.7390 0.0274 0.9939
C49_2 C 0.6798(2) 0.0938(3) 0.9902(2)
C50_2 C 0.6292(2) 0.0959(3) 0.9913(3)
H23_2 H 0.6112 0.1401 0.9880
C51_2 C 0.6067(3) 0.0329(4) 0.9974(3)
C53_2 C 0.7030(2) 0.1621(3) 0.9823(2)
O33_2 O 0.86869(19) 0.0032(3) 0.82626(15)
H30_2 H 0.8718 0.0167 0.8530
H31_2 H 0.6189 0.0266 0.6275
O46_2 O 0.4625(3) 0.0732(4) 0.9935(5)
C64_2 C 0.2919(2) 0.1039(3) 0.99876(19)
C65_3 C 0.3190(2) 0.0332(3) 1.0000(2)
C70_2 C 0.3678(2) 0.0338(3) 0.9991(2)
H44_2 H 0.3839 0.0774 0.9961
C72_2 C 0.4735(3) 0.0119(4) 0.9985(4)
O86_2 O 0.74925(15) 0.0563(2) 0.67002(12)
O88_2 O 0.81962(15) 0.0646(2) 0.73303(12)
O11_2 O 0.74299(14) 0.7311(2) 0.05421(13)
O12_2 O 0.81310(16) 0.7952(2) 0.05832(14)
O15_2 O 0.9694(3) 0.7052(5) 0.2786(2)
N3_2 N 0.9376(2) 0.7689(5) 0.2163(2)
H9_2 H 0.9456 0.8065 0.2038
C19_2 C 0.7865(2) 0.7563(3) 0.07475(18)
C20_2 C 0.8136(2) 0.7357(3) 0.12384(18)
C21_2 C 0.7902(2) 0.6883(3) 0.14228(19)
H11_2 H 0.7560 0.6715 0.1254
C22_2 C 0.8172(2) 0.6645(3) 0.18653(18)
C23_2 C 0.8659(2) 0.6903(4) 0.2112(2)
H12_2 H 0.8842 0.6734 0.2408
C24_2 C 0.8885(3) 0.7413(4) 0.1928(2)
C25_2 C 0.8628(3) 0.7635(4) 0.1488(2)
H13_2 H 0.8784 0.7973 0.1358
C26_2 C 0.7935(2) 0.6071(3) 0.20447(19)
C27_2 C 0.9750(3) 0.7480(5) 0.2548(2)
O25_2 O 0.9678(2) 0.4308(4) 0.0138(4)
C45_2 C 0.9742(3) 0.4871(4) 0.0006(4)
O26_2 O 0.68274(15) 0.8399(2) 0.00073(16)
O27_2 O 0.75303(15) 0.8992(2) 0.00098(15)
O30_2 O 0.5375(3) 0.9268(4) 0.0065(5)
C46_2 C 0.7081(2) 0.8961(3) 0.00124(19)
C47_2 C 0.6810(2) 0.9668(3) 0.0000(2)
C52_2 C 0.6322(2) 0.9662(3) 0.0009(2)
H24_2 H 0.6161 0.9226 0.0039
C54_2 C 0.5265(3) 0.9881(4) 0.0015(4)
O32_2 O 0.86186(17) 0.8632(3) 0.00330(17)
H27_2 H 0.8677 0.9127 0.0016
H28_2 H 0.8937 0.8394 0.0095
N8_2 N 0.4444(3) 0.9623(3) 0.0034(3)
H41_2 H 0.4580 0.9190 0.0078
C66_2 C 0.2947(2) 0.9708(3) 0.0054(2)
H42_2 H 0.2610 0.9726 0.0061
C67_2 C 0.3202(2) 0.9062(3) 0.0098(2)
C68_2 C 0.3708(2) 0.9041(3) 0.0087(3)
H43_2 H 0.3888 0.8599 0.0120
C69_2 C 0.3933(3) 0.9671(4) 0.0026(3)
C71_2 C 0.2970(2) 0.8379(3) 0.0177(2)
Cu1_2 Cu 0.70527(2) 0.74459(4) 0.99040(2)
Cu2_2 Cu 0.79026(3) 0.81411(4) 0.99514(2)
O1_2 O 0.68284(14) 0.7691(2) 0.92720(13)
O2_2 O 0.75565(14) 0.8220(2) 0.92964(13)
O3_2 O 0.76079(14) 0.9303(2) 0.79304(12)
O4_2 O 0.68840(15) 0.9303(3) 0.73101(13)
O5_2 O 0.5262(2) 0.7787(6) 0.8196(2)
O6_2 O 0.4631(3) 0.7718(9) 0.7056(3)
O7_2 O 0.31281(14) 0.7791(2) 0.59578(12)
O8_2 O 0.23896(15) 0.7245(2) 0.58925(13)
N1_2 N 0.5570(2) 0.7948(6) 0.7666(2)
H1_2 H 0.5474 0.7933 0.7373
N2_2 N 0.4337(2) 0.7456(4) 0.75782(19)
H2_2 H 0.4419 0.7462 0.7869
C1_2 C 0.7100(2) 0.8020(3) 0.91004(17)
C2_2 C 0.6852(2) 0.8175(3) 0.86120(19)
C3_2 C 0.7118(2) 0.8524(3) 0.83947(18)
H3_2 H 0.7471 0.8651 0.8555
C4_2 C 0.6877(2) 0.8697(4) 0.7939(2)
C5_2 C 0.6368(2) 0.8495(5) 0.7710(2)
H4_2 H 0.6200 0.8605 0.7400
C6_2 C 0.6102(3) 0.8139(5) 0.7923(3)
C7_2 C 0.6342(3) 0.7942(4) 0.8375(2)
H5_2 H 0.6164 0.7661 0.8516
C8_2 C 0.7142(2) 0.9128(3) 0.76993(19)
C9_2 C 0.5221(3) 0.7798(6) 0.7820(3)
C10_2 C 0.4682(3) 0.7630(6) 0.7444(3)
C11_2 C 0.3815(3) 0.7243(5) 0.7302(2)
C12_2 C 0.3584(3) 0.7502(4) 0.6853(2)
H6_2 H 0.3756 0.7839 0.6738
C13_2 C 0.3076(2) 0.7223(3) 0.6583(2)
C14_2 C 0.2835(2) 0.6755(3) 0.67617(18)
H7_2 H 0.2498 0.6585 0.6580
C15_2 C 0.3068(2) 0.6516(3) 0.72056(18)
C16_2 C 0.3562(2) 0.6803(4) 0.74767(18)
H8_2 H 0.3714 0.6681 0.7785
C17_2 C 0.2859(2) 0.7447(3) 0.6108(2)
C18_2 C 0.28154(19) 0.5972(3) 0.73840(16)
O21_2 O 0.73902(15) 0.6583(2) 0.97892(15)
O22_2 O 0.81242(14) 0.7177(2) 0.98691(17)
N5_2 N 0.9369(2) 0.5368(3) 0.9777(3)
H17_2 H 0.9463 0.5731 0.9651
C37_2 C 0.7846(2) 0.6614(3) 0.9804(2)
C38_2 C 0.8097(2) 0.5925(3) 0.9749(2)
C39_2 C 0.7829(2) 0.5287(3) 0.9693(2)
H18_2 H 0.7480 0.5281 0.9673
C40_2 C 0.8077(2) 0.4658(3) 0.9668(2)
C41_2 C 0.8586(2) 0.4668(3) 0.9686(3)
H19_2 H 0.8757 0.4236 0.9668
C42_2 C 0.8840(3) 0.5333(4) 0.9731(3)
C43_2 C 0.8595(2) 0.5960(4) 0.9768(3)
H20_2 H 0.8769 0.6407 0.9806
C44_2 C 0.7821(2) 0.3949(3) 0.96339(19)
C47_3 C 0.6810(2) 0.9668(3) 1.0000(2)
O31_2 O 0.63504(17) 0.6952(3) 0.9839(2)
H25_2 H 0.6237 0.6500 0.9717
H26_2 H 0.6096 0.7146 0.9928
H29_2 H 0.8992 0.9921 0.8265
O34_2 O 0.6408(2) 0.9885(3) 0.63949(17)
H32_2 H 0.6262 0.9481 0.6231
O35_2 O 0.13903(19) 0.6912(3) 0.51755(19)
H33_2 H 0.1150 0.6783 0.4921
H34_2 H 0.1289 0.6815 0.5393
O36_2 O 0.37050(16) 0.8556(3) 0.54661(19)
H35_2 H 0.3905 0.8504 0.5302
H36_2 H 0.3877 0.8843 0.5706
O62_2 O 0.9732(3) 0.1598(6) 0.7536(3)
N12_2 N 0.9401(2) 0.2290(4) 0.6935(2)
H54_2 H 0.9486 0.2647 0.6799
C100_2 C 0.9759(3) 0.2083(5) 0.7314(2)
C101_2 C 0.8899(3) 0.2015(4) 0.6718(2)
C102_2 C 0.8634(3) 0.2172(4) 0.6271(2)
H58_2 H 0.8794 0.2464 0.6120
C103_2 C 0.8139(2) 0.1911(3) 0.60403(19)
C104_2 C 0.7909(2) 0.1462(3) 0.62447(19)
H59_2 H 0.7574 0.1268 0.6082
C105_2 C 0.8175(2) 0.1297(3) 0.66941(18)
C106_2 C 0.8667(2) 0.1566(3) 0.69373(19)
H60_2 H 0.8843 0.1450 0.7245
C107_2 C 0.7872(2) 0.2076(3) 0.55472(19)
C108_2 C 0.7931(2) 0.0793(3) 0.69242(17)
loop_
_geom_bond_atom_site_label_1
_geom_bond_atom_site_label_2
_geom_bond_site_symmetry_1
_geom_bond_site_symmetry_2
Cu1 O1 1_555 1_555
Cu2 O2 1_555 1_555
Cu3 O3 1_555 1_555
Cu4 O4 1_555 1_555
Cu5 O7 1_555 1_555
Cu6 O8 1_555 1_555
O1 C1 1_555 1_555
O2 C1 1_555 1_555
O3 C8 1_555 1_555
O4 C8 1_555 1_555
O5 C9 1_555 1_555
O6 C10 1_555 1_555
O7 C17 1_555 1_555
O8 C17 1_555 1_555
O9 C18 1_555 1_555
O10 C18 1_555 1_555
N1 H1 1_555 1_555
N2 H2 1_555 1_555
C1 C2 1_555 1_555
C2 C3 1_555 1_555
C3 H3 1_555 1_555
C4 C3 1_555 1_555
C5 C4 1_555 1_555
H4 C5 1_555 1_555
C6 N1 1_555 1_555
C7 C2 1_555 1_555
H5 C7 1_555 1_555
C8 C4 1_555 1_555
C9 N1 1_555 1_555
C10 N2 1_555 1_555
C11 N2 1_555 1_555
C12 C11 1_555 1_555
H6 C12 1_555 1_555
C13 C12 1_555 1_555
C14 C13 1_555 1_555
H7 C14 1_555 1_555
C15 C14 1_555 1_555
C16 C11 1_555 1_555
H8 C16 1_555 1_555
C17 C13 1_555 1_555
C18 C15 1_555 1_555
O11 Cu1 1_555 1_555
O12 Cu2 1_555 1_555
O13 C26 1_555 1_555
O14 C26 1_555 1_555
O15 C27 1_555 1_555
N3 H9 1_555 1_555
C19 O11 1_555 1_555
C20 C19 1_555 1_555
C21 C20 1_555 1_555
H11 C21 1_555 1_555
C22 C21 1_555 1_555
C23 C22 1_555 1_555
H12 C23 1_555 1_555
C24 N3 1_555 1_555
C25 C20 1_555 1_555
H13 C25 1_555 1_555
C26 C22 1_555 1_555
C27 N3 1_555 1_555
O21 Cu1 1_555 1_555
O22 Cu2 1_555 1_555
N5 H17 1_555 1_555
C37 O21 1_555 1_555
C38 C37 1_555 1_555
C39 C38 1_555 1_555
H18 C39 1_555 1_555
C42 N5 1_555 1_555
C43 C38 1_555 1_555
H20 C43 1_555 1_555
O26 Cu1 1_555 1_555
O27 Cu2 1_555 1_555
O28 C53 1_555 1_555
O29 C53 1_555 1_555
O30 C54 1_555 1_555
N6 H21 1_555 1_555
C46 O26 1_555 1_555
C47 C46 1_555 1_555
C48 C47 1_555 1_555
H22 C48 1_555 1_555
C49 C48 1_555 1_555
C50 C49 1_555 1_555
H23 C50 1_555 1_555
C51 N6 1_555 1_555
C52 C47 1_555 1_555
H24 C52 1_555 1_555
C53 C49 1_555 1_555
C54 N6 1_555 1_555
O31 Cu1 1_555 1_555
H25 O31 1_555 1_555
H26 O31 1_555 1_555
O32 Cu2 1_555 1_555
H27 O32 1_555 1_555
H28 O32 1_555 1_555
O33 Cu3 1_555 1_555
H29 O33 1_555 1_555
H30 O33 1_555 1_555
O34 Cu4 1_555 1_555
H31 O34 1_555 1_555
H32 O34 1_555 1_555
O35 Cu6 1_555 1_555
H34 O35 1_555 1_555
O36 Cu5 1_555 1_555
H35 O36 1_555 1_555
H36 O36 1_555 1_555
O42 C64 1_555 1_555
O43 C64 1_555 1_555
O44 C71 1_555 1_555
O45 C71 1_555 1_555
O46 C72 1_555 1_555
N8 H41 1_555 1_555
C64 C65 1_555 1_555
C65 C66 1_555 1_555
C66 H42 1_555 1_555
C67 C66 1_555 1_555
C68 C67 1_555 1_555
H43 C68 1_555 1_555
C69 N8 1_555 1_555
C70 C65 1_555 1_555
H44 C70 1_555 1_555
C71 C67 1_555 1_555
C72 C54 1_555 1_555
Cu13 O42 1_555 1_555
Cu14 O43 1_555 1_555
Cu20 O14 1_555 1_555
Cu26 O13 1_555 1_555
Cu29 O29 1_555 1_555
Cu32 O45 1_555 1_555
Cu35 O28 1_555 1_555
Cu38 O44 1_555 1_555
O73 Cu3 1_555 1_555
O75 Cu4 1_555 1_555
O78 Cu4 1_555 1_555
O80 Cu3 1_555 1_555
O86 Cu4 1_555 1_555
O88 Cu3 1_555 1_555
O89 Cu5 1_555 1_555
O91 Cu6 1_555 1_555
O95 Cu6 1_555 1_555
O97 Cu5 1_555 1_555
C5 C6 1_555 1_555
C6 C7 1_555 1_555
C9 C10 1_555 1_555
C15 C16 1_555 1_555
O12 C19 1_555 1_555
C23 C24 1_555 1_555
C24 C25 1_555 1_555
O22 C37 1_555 1_555
C42 C43 1_555 1_555
O27 C46 1_555 1_555
C50 C51 1_555 1_555
C51 C52 1_555 1_555
N8 C72 1_555 1_555
C68 C69 1_555 1_555
C69 C70 1_555 1_555
O23 C44 1_555 1_555
O24 C44 1_555 1_555
O25 C45 1_555 1_555
C41 C40 1_555 1_555
H19 C41 1_555 1_555
C44 C40 1_555 1_555
O62 C100 1_555 1_555
O63 C107 1_555 1_555
O64 C107 1_555 1_555
O86 C108 1_555 1_555
O88 C108 1_555 1_555
N12 H54 1_555 1_555
C100 N12 1_555 1_555
C101 N12 1_555 1_555
C102 C101 1_555 1_555
H58 C102 1_555 1_555
C103 C102 1_555 1_555
C104 C103 1_555 1_555
H59 C104 1_555 1_555
C105 C104 1_555 1_555
C106 C101 1_555 1_555
H60 C106 1_555 1_555
C107 C103 1_555 1_555
C108 C105 1_555 1_555
Cu29 O23 1_555 1_555
Cu35 O24 1_555 1_555
C105 C106 1_555 1_555
O16 C28 1_555 1_555
O81 C35 1_555 1_555
O83 C35 1_555 1_555
O19 C36 1_555 1_555
O20 C36 1_555 1_555
N4 H10 1_555 1_555
C28 N4 1_555 1_555
C29 N4 1_555 1_555
C30 C29 1_555 1_555
H14 C30 1_555 1_555
C31 C30 1_555 1_555
C32 C31 1_555 1_555
H15 C32 1_555 1_555
C33 C32 1_555 1_555
C34 C29 1_555 1_555
H16 C34 1_555 1_555
C35 C31 1_555 1_555
C36 C33 1_555 1_555
O39 C62 1_555 1_555
O40 C62 1_555 1_555
O41 C63 1_555 1_555
C59 C58 1_555 1_555
H39 C59 1_555 1_555
C62 C58 1_555 1_555
Cu18 O20 1_555 1_555
Cu24 O19 1_555 1_555
Cu32 O39 1_555 1_555
Cu38 O40 1_555 1_555
C33 C34 1_555 1_555
O37 C55 1_555 1_555
O38 C55 1_555 1_555
N7 H37 1_555 1_555
C55 C56 1_555 1_555
C56 C57 1_555 1_555
C57 H38 1_555 1_555
C60 N7 1_555 1_555
C61 C56 1_555 1_555
H40 C61 1_555 1_555
Cu13 O37 1_555 1_555
Cu14 O38 1_555 1_555
Cu18 O49 1_555 1_555
Cu24 O50 1_555 1_555
Cu30 O53 1_555 1_555
Cu36 O54 1_555 1_555
O47 Cu13 1_555 1_555
O48 Cu14 1_555 1_555
O49 C80 1_555 1_555
O50 C80 1_555 1_555
O51 C81 1_555 1_555
O52 C82 1_555 1_555
O53 C89 1_555 1_555
O54 C89 1_555 1_555
O55 C90 1_555 1_555
O56 C90 1_555 1_555
N9 H45 1_555 1_555
N10 H46 1_555 1_555
C73 O47 1_555 1_555
C74 C73 1_555 1_555
C75 C74 1_555 1_555
H47 C75 1_555 1_555
C76 C75 1_555 1_555
C77 C76 1_555 1_555
H48 C77 1_555 1_555
C78 N9 1_555 1_555
C79 C74 1_555 1_555
H49 C79 1_555 1_555
C80 C76 1_555 1_555
C81 N9 1_555 1_555
C82 N10 1_555 1_555
C83 N10 1_555 1_555
C84 C83 1_555 1_555
H50 C84 1_555 1_555
C85 C84 1_555 1_555
C86 C85 1_555 1_555
H51 C86 1_555 1_555
C87 C86 1_555 1_555
C88 C83 1_555 1_555
H52 C88 1_555 1_555
C89 C85 1_555 1_555
C90 C87 1_555 1_555
O57 Cu13 1_555 1_555
O58 Cu14 1_555 1_555
O59 C98 1_555 1_555
O60 C98 1_555 1_555
O61 C99 1_555 1_555
N11 H53 1_555 1_555
C91 O57 1_555 1_555
C92 C91 1_555 1_555
C93 C92 1_555 1_555
H55 C93 1_555 1_555
C94 C93 1_555 1_555
C95 C94 1_555 1_555
H56 C95 1_555 1_555
C96 N11 1_555 1_555
C97 C92 1_555 1_555
H57 C97 1_555 1_555
C98 C94 1_555 1_555
C99 N11 1_555 1_555
O67 Cu13 1_555 1_555
H61 O67 1_555 1_555
H62 O67 1_555 1_555
O68 Cu14 1_555 1_555
H63 O68 1_555 1_555
H64 O68 1_555 1_555
O69 Cu18 1_555 1_555
H65 O69 1_555 1_555
H66 O69 1_555 1_555
O70 Cu24 1_555 1_555
H67 O70 1_555 1_555
H68 O70 1_555 1_555
O71 Cu36 1_555 1_555
H70 O71 1_555 1_555
O72 Cu30 1_555 1_555
H71 O72 1_555 1_555
H72 O72 1_555 1_555
Cu17 O60 1_555 1_555
Cu23 O59 1_555 1_555
O74 Cu18 1_555 1_555
O76 Cu24 1_555 1_555
O77 Cu24 1_555 1_555
O79 Cu18 1_555 1_555
O90 Cu30 1_555 1_555
O92 Cu36 1_555 1_555
O96 Cu36 1_555 1_555
O98 Cu30 1_555 1_555
C60 C61 1_555 1_555
O48 C73 1_555 1_555
C77 C78 1_555 1_555
C78 C79 1_555 1_555
C81 C82 1_555 1_555
C87 C88 1_555 1_555
O58 C91 1_555 1_555
C95 C96 1_555 1_555
C96 C97 1_555 1_555
O16_2 C28_2 1_555 1_555
O17 C35_2 1_555 1_555
O18 C35_2 1_555 1_555
O19_2 C36_2 1_555 1_555
O20_2 C36_2 1_555 1_555
N4_2 H10_2 1_555 1_555
C28_2 N4_2 1_555 1_555
C29_2 N4_2 1_555 1_555
C30_2 C29_2 1_555 1_555
H14_2 C30_2 1_555 1_555
C31_2 C30_2 1_555 1_555
C32_2 C31_2 1_555 1_555
H15_2 C32_2 1_555 1_555
C33_2 C32_2 1_555 1_555
C34_2 C29_2 1_555 1_555
H16_2 C34_2 1_555 1_555
C35_2 C31_2 1_555 1_555
C36_2 C33_2 1_555 1_555
O37_2 C55_2 1_555 1_555
O38_2 C55_2 1_555 1_555
O90 C62_2 1_555 1_555
O92 C62_2 1_555 1_555
N7_2 H37_2 1_555 1_555
C55_2 C56_2 1_555 1_555
C56_2 C57_2 1_555 1_555
C57_2 H38_2 1_555 1_555
C58_2 C57_2 1_555 1_555
C59_2 C58_2 1_555 1_555
H39_2 C59_2 1_555 1_555
C60_2 N7_2 1_555 1_555
C61_2 C56_2 1_555 1_555
H40_2 C61_2 1_555 1_555
C62_2 C58_2 1_555 1_555
Cu7 O37_2 1_555 1_555
Cu8 O38_2 1_555 1_555
Cu20 O49_2 1_555 1_555
Cu26 O50_2 1_555 1_555
Cu32 O53_2 1_555 1_555
Cu38 O54_2 1_555 1_555
O47_2 Cu7 1_555 1_555
O48_2 Cu8 1_555 1_555
O49_2 C80_2 1_555 1_555
O50_2 C80_2 1_555 1_555
O51_2 C81_2 1_555 1_555
O52_2 C82_2 1_555 1_555
O53_2 C89_2 1_555 1_555
O54_2 C89_2 1_555 1_555
O74 C90_2 1_555 1_555
O76 C90_2 1_555 1_555
N9_2 H45_2 1_555 1_555
N10_2 H46_2 1_555 1_555
C73_2 O47_2 1_555 1_555
C74_2 C73_2 1_555 1_555
C75_2 C74_2 1_555 1_555
H47_2 C75_2 1_555 1_555
C76_2 C75_2 1_555 1_555
C77_2 C76_2 1_555 1_555
H48_2 C77_2 1_555 1_555
C78_2 N9_2 1_555 1_555
C79_2 C74_2 1_555 1_555
H49_2 C79_2 1_555 1_555
C80_2 C76_2 1_555 1_555
C81_2 N9_2 1_555 1_555
C82_2 N10_2 1_555 1_555
C83_2 N10_2 1_555 1_555
C84_2 C83_2 1_555 1_555
H50_2 C84_2 1_555 1_555
C85_2 C84_2 1_555 1_555
C86_2 C85_2 1_555 1_555
H51_2 C86_2 1_555 1_555
C87_2 C86_2 1_555 1_555
C88_2 C83_2 1_555 1_555
H52_2 C88_2 1_555 1_555
C89_2 C85_2 1_555 1_555
C90_2 C87_2 1_555 1_555
O67_2 Cu7 1_555 1_555
H61_2 O67_2 1_555 1_555
H62_2 O67_2 1_555 1_555
O70_2 Cu26 1_555 1_555
H68_2 O70_2 1_555 1_555
O71_2 Cu38 1_555 1_555
H69_2 O71_2 1_555 1_555
H70_2 O71_2 1_555 1_555
O72_2 Cu32 1_555 1_555
H71_2 O72_2 1_555 1_555
H72_2 O72_2 1_555 1_555
Cu29 O18 1_555 1_555
Cu35 O17 1_555 1_555
O82 Cu38 1_555 1_555
O84 Cu32 1_555 1_555
C33_2 C34_2 1_555 1_555
C59_2 C60_2 1_555 1_555
C60_2 C61_2 1_555 1_555
O48_2 C73_2 1_555 1_555
C77_2 C78_2 1_555 1_555
C78_2 C79_2 1_555 1_555
C81_2 C82_2 1_555 1_555
C87_2 C88_2 1_555 1_555
O41_2 C63_2 1_555 1_555
O78 C98_2 1_555 1_555
O80 C98_2 1_555 1_555
O61_2 C99_2 1_555 1_555
N11_2 H53_2 1_555 1_555
C91_2 O57_2 1_555 1_555
C92_2 C91_2 1_555 1_555
C93_2 C92_2 1_555 1_555
H55_2 C93_2 1_555 1_555
C94_2 C93_2 1_555 1_555
C95_2 C94_2 1_555 1_555
H56_2 C95_2 1_555 1_555
C96_2 N11_2 1_555 1_555
C97_2 C92_2 1_555 1_555
H57_2 C97_2 1_555 1_555
C98_2 C94_2 1_555 1_555
C99_2 N11_2 1_555 1_555
H63_2 O68_2 1_555 1_555
H64_2 O68_2 1_555 1_555
O58_2 C91_2 1_555 1_555
C95_2 C96_2 1_555 1_555
C96_2 C97_2 1_555 1_555
H66_2 O69_2 1_555 1_555
O95 C53_2 1_555 1_555
O97 C53_2 1_555 1_555
N6_2 H21_2 1_555 1_555
H22_2 C48_2 1_555 1_555
C49_2 C48_2 1_555 1_555
C50_2 C49_2 1_555 1_555
H23_2 C50_2 1_555 1_555
C51_2 N6_2 1_555 1_555
C53_2 C49_2 1_555 1_555
H30_2 O33_2 1_555 1_555
O93 C64_2 1_555 1_555
O94 C64_2 1_555 1_555
O46_2 C72_2 1_555 1_555
C64_2 C65_3 1_555 1_555
C70_2 C65_3 1_555 1_555
H44_2 C70_2 1_555 1_555
C50_2 C51_2 1_555 1_555
O77 C26_2 1_555 1_555
O79 C26_2 1_555 1_555
O15_2 C27_2 1_555 1_555
N3_2 H9_2 1_555 1_555
C19_2 O11_2 1_555 1_555
C20_2 C19_2 1_555 1_555
C21_2 C20_2 1_555 1_555
H11_2 C21_2 1_555 1_555
C22_2 C21_2 1_555 1_555
C23_2 C22_2 1_555 1_555
H12_2 C23_2 1_555 1_555
C24_2 N3_2 1_555 1_555
C25_2 C20_2 1_555 1_555
H13_2 C25_2 1_555 1_555
C26_2 C22_2 1_555 1_555
C27_2 N3_2 1_555 1_555
O25_2 C45_2 1_555 1_555
O30_2 C54_2 1_555 1_555
C46_2 O26_2 1_555 1_555
C47_2 C46_2 1_555 1_555
C52_2 C47_2 1_555 1_555
H24_2 C52_2 1_555 1_555
H27_2 O32_2 1_555 1_555
H28_2 O32_2 1_555 1_555
O96 C71_2 1_555 1_555
O98 C71_2 1_555 1_555
N8_2 H41_2 1_555 1_555
C66_2 H42_2 1_555 1_555
C67_2 C66_2 1_555 1_555
C68_2 C67_2 1_555 1_555
H43_2 C68_2 1_555 1_555
C69_2 N8_2 1_555 1_555
C71_2 C67_2 1_555 1_555
O12_2 C19_2 1_555 1_555
C23_2 C24_2 1_555 1_555
C24_2 C25_2 1_555 1_555
O27_2 C46_2 1_555 1_555
C68_2 C69_2 1_555 1_555
Cu1_2 O1_2 1_555 1_555
Cu2_2 O2_2 1_555 1_555
Cu17 O3_2 1_555 1_555
Cu23 O4_2 1_555 1_555
Cu29 O7_2 1_555 1_555
Cu35 O8_2 1_555 1_555
O1_2 C1_2 1_555 1_555
O2_2 C1_2 1_555 1_555
O3_2 C8_2 1_555 1_555
O4_2 C8_2 1_555 1_555
O5_2 C9_2 1_555 1_555
O6_2 C10_2 1_555 1_555
O7_2 C17_2 1_555 1_555
O8_2 C17_2 1_555 1_555
O73 C18_2 1_555 1_555
O75 C18_2 1_555 1_555
N1_2 H1_2 1_555 1_555
N2_2 H2_2 1_555 1_555
C1_2 C2_2 1_555 1_555
C2_2 C3_2 1_555 1_555
C3_2 H3_2 1_555 1_555
C4_2 C3_2 1_555 1_555
C5_2 C4_2 1_555 1_555
H4_2 C5_2 1_555 1_555
C6_2 N1_2 1_555 1_555
C7_2 C2_2 1_555 1_555
H5_2 C7_2 1_555 1_555
C8_2 C4_2 1_555 1_555
C9_2 N1_2 1_555 1_555
C10_2 N2_2 1_555 1_555
C11_2 N2_2 1_555 1_555
C12_2 C11_2 1_555 1_555
H6_2 C12_2 1_555 1_555
C13_2 C12_2 1_555 1_555
C14_2 C13_2 1_555 1_555
H7_2 C14_2 1_555 1_555
C15_2 C14_2 1_555 1_555
C16_2 C11_2 1_555 1_555
H8_2 C16_2 1_555 1_555
C17_2 C13_2 1_555 1_555
C18_2 C15_2 1_555 1_555
O21_2 Cu1_2 1_555 1_555
O22_2 Cu2_2 1_555 1_555
O89 C44_2 1_555 1_555
O91 C44_2 1_555 1_555
N5_2 H17_2 1_555 1_555
C37_2 O21_2 1_555 1_555
C38_2 C37_2 1_555 1_555
C39_2 C38_2 1_555 1_555
H18_2 C39_2 1_555 1_555
C40_2 C39_2 1_555 1_555
C41_2 C40_2 1_555 1_555
H19_2 C41_2 1_555 1_555
C42_2 N5_2 1_555 1_555
C43_2 C38_2 1_555 1_555
H20_2 C43_2 1_555 1_555
C44_2 C40_2 1_555 1_555
O31_2 Cu1_2 1_555 1_555
H25_2 O31_2 1_555 1_555
H26_2 O31_2 1_555 1_555
O34_2 Cu23 1_555 1_555
H32_2 O34_2 1_555 1_555
O35_2 Cu35 1_555 1_555
H33_2 O35_2 1_555 1_555
H34_2 O35_2 1_555 1_555
O36_2 Cu29 1_555 1_555
H35_2 O36_2 1_555 1_555
H36_2 O36_2 1_555 1_555
O62_2 C100_2 1_555 1_555
O82 C107_2 1_555 1_555
O84 C107_2 1_555 1_555
O86_2 C108_2 1_555 1_555
O88_2 C108_2 1_555 1_555
N12_2 H54_2 1_555 1_555
C100_2 N12_2 1_555 1_555
C101_2 N12_2 1_555 1_555
C102_2 C101_2 1_555 1_555
H58_2 C102_2 1_555 1_555
C103_2 C102_2 1_555 1_555
C104_2 C103_2 1_555 1_555
H59_2 C104_2 1_555 1_555
C105_2 C104_2 1_555 1_555
C106_2 C101_2 1_555 1_555
H60_2 C106_2 1_555 1_555
C107_2 C103_2 1_555 1_555
C108_2 C105_2 1_555 1_555
C5_2 C6_2 1_555 1_555
C6_2 C7_2 1_555 1_555
C9_2 C10_2 1_555 1_555
C15_2 C16_2 1_555 1_555
O22_2 C37_2 1_555 1_555
C41_2 C42_2 1_555 1_555
C42_2 C43_2 1_555 1_555
C105_2 C106_2 1_555 1_555

#END
