
###############################################################################
#
# This file contains modified crystal structure data generated from the
# MOF subset of the Cambridge Structural Database (CSD) v543 
# hosted by the Cambridge Crystallographic Data Centre (CCDC).
#
# This work is licensed under the Creative Commons
# Attribution-NonCommercial-ShareAlike 4.0 International License.
# To view a copy of this license, visit
# http://creativecommons.org/licenses/by-nc-sa/4.0/
# or send a letter to
# Creative Commons, PO Box 1866, Mountain View, CA 94042, USA.
#
# CIF created using the CSD Python API on 29 September 2022
# The structure has been converted into the P1 space group
# The structure has a 3D framework
# The original CSD entry VIXPUP02 is in the monoclinic crystal system
# The framework has been calculated to contain at least 10.0% void space
# The void calculation uses a probe of radius 1.32A, grid spacing 0.4
# H atom positions have been added when not included in the experimental data
# Generated hydrogen atom positions removed from atoms on special positions
#
###############################################################################

data_VIXPUP02
_chemical_formula_moiety         '(C216 H176 Cu24 N24 O144)n'
_symmetry_cell_setting           triclinic
_symmetry_space_group_name_H-M   'P 1'
_symmetry_Int_Tables_number      1
_space_group_name_Hall           'P 1'
loop_
_symmetry_equiv_pos_site_id
_symmetry_equiv_pos_as_xyz
1 x,y,z
_cell_length_a                   28.1588(12)
_cell_length_b                   18.5342(8)
_cell_length_c                   32.102(2)
_cell_angle_alpha                90
_cell_angle_beta                 112.335(5)
_cell_angle_gamma                90
_cell_volume                     15497.1
loop_
_atom_site_label
_atom_site_type_symbol
_atom_site_fract_x
_atom_site_fract_y
_atom_site_fract_z
Cu11 Cu 0.211907(19) 0.68447(3) 0.00806(2)
Cu12 Cu 0.295218(19) 0.75549(3) 0.01133(2)
O71 O 0.14430(16) 0.6269(3) 0.00471(17)
O72 O 0.35939(18) 0.8168(3) 0.01130(19)
O86 O 0.24817(12) 0.68009(19) 0.07406(12)
O88 O 0.32120(12) 0.7311(2) 0.07513(12)
O92 O 0.25155(12) 0.60055(17) 0.00304(12)
O96 O 0.25980(13) 0.83982(18) 0.02414(13)
O98 O 0.18732(12) 0.77865(19) 0.01444(14)
H66 H 0.147766 0.612557 0.0355358
H71 H 0.348227 0.866868 0.00132045
H72 H 0.386279 0.81775 0.0421852
Cu1 Cu 0.29483(2) 0.31082(3) 0.53063(2)
Cu2 Cu 0.20956(2) 0.23742(3) 0.52551(2)
Cu3 Cu 0.286218(19) 0.50621(3) 0.306571(17)
Cu4 Cu 0.202649(18) 0.50263(3) 0.231249(17)
O1 O 0.18590(12) 0.25032(19) 0.46196(12)
O2 O 0.25220(14) 0.3203(2) 0.46446(12)
O3 O 0.17871(12) 0.4356(2) 0.26559(11)
O4 O 0.24766(12) 0.4392(2) 0.32821(11)
O9 O 0.0265(2) 0.3457(5) 0.2467(3)
O11 O 0.31251(13) 0.27992(19) 0.59402(12)
O12 O 0.23992(12) 0.2262(2) 0.59021(12)
O13 O 0.23851(12) 0.07626(19) 0.71498(12)
O14 O 0.30809(13) 0.0738(2) 0.77870(12)
O15 O 0.68659(14) 0.4268(2) 0.72594(12)
O16 O 0.75766(11) 0.42965(19) 0.79043(11)
O17 O 0.75183(12) 0.31991(19) 0.92594(12)
O18 O 0.67880(12) 0.2689(2) 0.92487(12)
O19 O 0.4643(2) 0.2611(7) 0.7030(2)
O20 O 0.5252(2) 0.2785(5) 0.8168(2)
O21 O 0.32107(13) 0.22160(17) 0.51930(13)
O22 O 0.25531(13) 0.15705(17) 0.52033(13)
O26 O 0.26278(12) 0.39713(18) 0.53995(12)
O27 O 0.18920(13) 0.33945(19) 0.53224(14)
O28 O 0.25980(13) 0.66018(18) 0.52414(13)
O29 O 0.18732(12) 0.72135(19) 0.51444(14)
O30 O 0.03358(19) 0.4300(4) 0.4902(4)
C1 C 0.20744(18) 0.2909(2) 0.4455(2)
C2 C 0.18260(19) 0.3075(3) 0.39564(18)
C3 C 0.1338(2) 0.2792(3) 0.3723(2)
H1 H 0.1189 0.2488 0.3870
C4 C 0.1068(2) 0.2963(3) 0.3265(2)
C5 C 0.1311(2) 0.3400(3) 0.30528(18)
H2 H 0.1145 0.3503 0.2748
C6 C 0.18037(18) 0.3688(3) 0.32920(18)
C7 C 0.20543(18) 0.3506(3) 0.37384(18)
H3 H 0.2385 0.3679 0.3895
C8 C 0.20413(17) 0.4209(3) 0.30607(18)
C9 C 0.0215(2) 0.2908(4) 0.2694(2)
C19 C 0.28419(19) 0.2445(3) 0.6098(2)
C20 C 0.30923(19) 0.2236(3) 0.65808(19)
C21 C 0.28418(18) 0.1758(3) 0.67796(18)
H7 H 0.2512 0.1598 0.6608
C22 C 0.30706(19) 0.1531(3) 0.72111(18)
C23 C 0.3568(2) 0.1786(4) 0.74726(19)
H8 H 0.3725 0.1641 0.7771
C24 C 0.3822(2) 0.2240(4) 0.7295(2)
C25 C 0.3585(2) 0.2478(3) 0.6851(2)
H9 H 0.3754 0.2800 0.6733
C26 C 0.2840(2) 0.0936(4) 0.7394(2)
C27 C 0.4680(2) 0.2647(4) 0.7426(2)
C28 C 0.5193(3) 0.2808(5) 0.7789(3)
C29 C 0.6083(2) 0.3121(5) 0.7896(2)
C30 C 0.6333(2) 0.3453(4) 0.7663(2)
H10 H 0.6172 0.3531 0.7355
C31 C 0.6852(2) 0.3682(3) 0.79068(18)
C32 C 0.70916(18) 0.3497(3) 0.83504(17)
H11 H 0.7436 0.3612 0.8505
C33 C 0.6819(2) 0.3134(3) 0.85722(18)
C34 C 0.6295(2) 0.2946(4) 0.8336(2)
H12 H 0.6106 0.2713 0.8479
C35 C 0.70782(19) 0.2999(3) 0.90724(17)
C36 C 0.71244(17) 0.4125(3) 0.76670(16)
C37 C 0.29707(17) 0.1642(2) 0.51685(18)
C38 C 0.32145(19) 0.0953(3) 0.50904(19)
C39 C 0.3700(2) 0.0981(3) 0.5062(2)
H13 H 0.3861 0.1422 0.5073
C40 C 0.3935(2) 0.0352(3) 0.5018(3)
C43 C 0.29725(19) 0.0299(3) 0.50652(18)
H15 H 0.2651 0.0284 0.5084
C46 C 0.21692(19) 0.3945(3) 0.53564(19)
C47 C 0.1908(2) 0.4658(3) 0.5335(2)
C48 C 0.21472(19) 0.5311(3) 0.53134(18)
H16 H 0.2485 0.5315 0.5332
C49 C 0.1878(2) 0.5950(3) 0.5264(2)
C50 C 0.1384(2) 0.5966(3) 0.5222(2)
H17 H 0.1208 0.6401 0.5180
C51 C 0.1144(2) 0.5324(3) 0.5243(3)
C52 C 0.1380(2) 0.4674(3) 0.5288(3)
H18 H 0.1204 0.4250 0.5288
C53 C 0.2135(2) 0.6643(3) 0.5212(2)
C54 C 0.0257(2) 0.4895(3) 0.5026(2)
N1 N 0.0573(2) 0.2682(3) 0.30421(19)
H19 H 0.0505 0.2300 0.3160
N3 N 0.43209(19) 0.2469(4) 0.75612(17)
H21 H 0.4395 0.2491 0.7847
N4 N 0.5564(2) 0.2912(5) 0.7629(2)
H22 H 0.5485 0.2849 0.7345
N5 N 0.0613(2) 0.5384(3) 0.5187(3)
H23 H 0.0522 0.5785 0.5269
N6 N 0.44221(19) 0.0389(3) 0.4992(2)
H24 H 0.4522 0.0818 0.4964
O31 O 0.36691(15) 0.3629(2) 0.54241(17)
O32 O 0.13863(18) 0.1880(3) 0.52007(17)
O33 O 0.35509(17) 0.5065(2) 0.36458(16)
O34 O 0.1374(2) 0.5012(2) 0.16895(17)
O39 O 0.74845(12) 0.10055(17) 0.49696(12)
O40 O 0.68131(12) 0.16073(18) 0.50057(13)
O41 O 0.5355(2) 0.0766(3) 0.5013(3)
C59 C 0.6315(2) 0.0327(3) 0.5006(2)
H26 H 0.6153 0.0752 0.5034
C60 C 0.67924(19) 0.0352(3) 0.49888(19)
C62 C 0.70532(18) 0.1038(3) 0.49939(17)
C63 C 0.5258(3) 0.0113(4) 0.4996(2)
O51 O 0.18779(13) 0.69970(19) 0.94347(12)
O52 O 0.25573(12) 0.76891(18) 0.94747(11)
O53 O 0.24931(12) 0.91263(19) 0.82155(11)
O54 O 0.17989(12) 0.91740(19) 0.75822(11)
O56 O 0.0337(3) 0.7994(4) 0.7235(3)
C82 C 0.0280(3) 0.7484(5) 0.7463(3)
C83 C 0.1124(2) 0.7561(4) 0.8084(2)
C84 C 0.1381(2) 0.7323(3) 0.8522(2)
H36 H 0.1232 0.6974 0.8642
C85 C 0.18640(18) 0.7606(3) 0.87860(18)
C86 C 0.2088(2) 0.8101(3) 0.85918(17)
H37 H 0.2415 0.8275 0.8757
C87 C 0.18219(18) 0.8345(3) 0.81421(17)
C88 C 0.1339(2) 0.8068(3) 0.7895(2)
H38 H 0.1161 0.8223 0.7602
C89 C 0.20661(18) 0.8939(3) 0.79691(16)
C90 C 0.2123(2) 0.7406(3) 0.92596(18)
N10 N 0.0633(2) 0.7274(4) 0.78591(19)
H46 H 0.0548 0.6921 0.7990
Cu18 Cu 0.713782(19) 0.49379(3) 0.693429(17)
Cu20 Cu 0.286218(19) 0.99379(3) 0.806571(17)
Cu24 Cu 0.797351(18) 0.49737(3) 0.768751(17)
Cu26 Cu 0.202649(18) 0.99737(3) 0.731249(17)
Cu27 Cu 0.788093(19) 0.31553(3) 0.99194(2)
Cu29 Cu 0.211907(19) 0.81553(3) 0.50806(2)
Cu32 Cu 0.788093(19) 0.18447(3) 0.49194(2)
Cu33 Cu 0.704782(19) 0.24451(3) 0.98867(2)
Cu35 Cu 0.295218(19) 0.74451(3) 0.51133(2)
Cu38 Cu 0.704782(19) 0.25549(3) 0.48867(2)
O73 O 0.24931(12) 0.58737(19) 0.32155(11)
O75 O 0.17989(12) 0.58260(19) 0.25822(11)
O78 O 0.23851(12) 0.42374(19) 0.21498(12)
O80 O 0.30809(13) 0.4262(2) 0.27870(12)
O82 O 0.31341(14) 0.5732(2) 0.27406(12)
O84 O 0.24234(11) 0.57035(19) 0.20957(11)
O94 O 0.31869(12) 0.66073(18) 0.99943(13)
H65 H 0.140139 0.583096 0.985835
O23 O 0.25155(12) 0.89945(17) 0.50304(12)
O24 O 0.31869(12) 0.83927(18) 0.49943(13)
O25 O 0.4645(2) 0.9234(3) 0.4987(3)
C41 C 0.3685(2) 0.9673(3) 0.4994(2)
H14 H 0.3847 0.9248 0.4966
C42 C 0.32076(19) 0.9648(3) 0.50112(19)
C44 C 0.29468(18) 0.8962(3) 0.50061(17)
C45 C 0.4742(3) 0.9887(4) 0.5004(2)
O37 O 0.67893(13) 0.77840(17) 0.48070(13)
O38 O 0.74469(13) 0.84295(17) 0.47967(13)
C55 C 0.70293(17) 0.8358(2) 0.48315(18)
C56 C 0.67855(19) 0.9047(3) 0.49096(19)
C57 C 0.6300(2) 0.9019(3) 0.4938(2)
H25 H 0.6139 0.8578 0.4927
C58 C 0.6065(2) 0.9648(3) 0.4982(3)
C61 C 0.70275(19) 0.9701(3) 0.49348(18)
H27 H 0.7349 0.9716 0.4916
N7 N 0.55779(19) 0.9611(3) 0.5008(2)
H28 H 0.5478 0.9182 0.5036
Cu13 Cu 0.70517(2) 0.68918(3) 0.46937(2)
Cu14 Cu 0.79044(2) 0.76258(3) 0.47449(2)
Cu17 Cu 0.713782(19) 0.00621(3) 0.193429(17)
Cu23 Cu 0.797351(18) 0.00263(3) 0.268751(17)
O5 O 0.81221(13) 0.30030(19) 0.05653(12)
O6 O 0.74427(12) 0.23109(18) 0.05253(11)
O7 O 0.75069(12) 0.08737(19) 0.17845(11)
O8 O 0.82011(12) 0.08260(19) 0.24178(11)
O10 O 0.9663(3) 0.2006(4) 0.2765(3)
C10 C 0.9720(3) 0.2516(5) 0.2537(3)
C11 C 0.8876(2) 0.2439(4) 0.1916(2)
C12 C 0.8619(2) 0.2677(3) 0.1478(2)
H4 H 0.8768 0.3026 0.1358
C13 C 0.81360(18) 0.2394(3) 0.12140(18)
C14 C 0.7912(2) 0.1899(3) 0.14082(17)
H5 H 0.7585 0.1725 0.1243
C15 C 0.81781(18) 0.1655(3) 0.18579(17)
C16 C 0.8661(2) 0.1932(3) 0.2105(2)
H6 H 0.8839 0.1777 0.2398
C17 C 0.79339(18) 0.1061(3) 0.20309(16)
C18 C 0.7877(2) 0.2594(3) 0.07404(18)
N2 N 0.9367(2) 0.2726(4) 0.21409(19)
H20 H 0.9452 0.3079 0.2010
O42 O 0.73722(12) 0.60287(18) 0.46005(12)
O43 O 0.81080(13) 0.66055(19) 0.46776(14)
O44 O 0.74020(13) 0.33982(18) 0.47586(13)
O45 O 0.81268(12) 0.27865(19) 0.48556(14)
O46 O 0.96642(19) 0.5700(4) 0.5098(4)
C64 C 0.78308(19) 0.6055(3) 0.46436(19)
C65 C 0.8092(2) 0.5342(3) 0.4665(2)
C66 C 0.78528(19) 0.4689(3) 0.46866(18)
H29 H 0.7515 0.4685 0.4668
C67 C 0.8122(2) 0.4050(3) 0.4736(2)
C68 C 0.8616(2) 0.4034(3) 0.4778(2)
H30 H 0.8792 0.3599 0.4820
C69 C 0.8856(2) 0.4676(3) 0.4757(3)
C70 C 0.8620(2) 0.5326(3) 0.4712(3)
H31 H 0.8796 0.5750 0.4712
C71 C 0.7865(2) 0.3357(3) 0.4788(2)
C72 C 0.9743(2) 0.5105(3) 0.4974(2)
N8 N 0.9387(2) 0.4616(3) 0.4813(3)
H32 H 0.9478 0.4215 0.4731
O47 O 0.81410(12) 0.74968(19) 0.53804(12)
O48 O 0.74780(14) 0.6797(2) 0.53554(12)
O49 O 0.82129(12) 0.5644(2) 0.73441(11)
O50 O 0.75234(12) 0.5608(2) 0.67179(11)
O55 O 0.9735(2) 0.6543(5) 0.7533(3)
O57 O 0.68749(13) 0.72008(19) 0.40598(12)
O58 O 0.76008(12) 0.7738(2) 0.40979(12)
O59 O 0.76149(12) 0.92374(19) 0.28502(12)
O60 O 0.69191(13) 0.9262(2) 0.22130(12)
O65 O 0.5357(2) 0.7389(7) 0.2970(2)
O66 O 0.4748(2) 0.7215(5) 0.1832(2)
C73 C 0.79256(18) 0.7091(2) 0.5545(2)
C74 C 0.81740(19) 0.6925(3) 0.60436(18)
C75 C 0.8662(2) 0.7208(3) 0.6277(2)
H33 H 0.8811 0.7512 0.6130
C76 C 0.8932(2) 0.7037(3) 0.6735(2)
C77 C 0.8689(2) 0.6600(3) 0.69472(18)
H34 H 0.8855 0.6497 0.7252
C78 C 0.81963(18) 0.6312(3) 0.67080(18)
C79 C 0.79457(18) 0.6494(3) 0.62616(18)
H35 H 0.7615 0.6321 0.6105
C80 C 0.79587(17) 0.5791(3) 0.69393(18)
C81 C 0.9785(2) 0.7092(4) 0.7306(2)
C91 C 0.71581(19) 0.7555(3) 0.3902(2)
C92 C 0.69077(19) 0.7764(3) 0.34192(19)
C93 C 0.71582(18) 0.8242(3) 0.32204(18)
H39 H 0.7488 0.8402 0.3392
C94 C 0.69294(19) 0.8469(3) 0.27889(18)
C95 C 0.6432(2) 0.8214(4) 0.25274(19)
H40 H 0.6275 0.8359 0.2229
C96 C 0.6178(2) 0.7760(4) 0.2705(2)
C97 C 0.6415(2) 0.7522(3) 0.3149(2)
H41 H 0.6246 0.7200 0.3267
C98 C 0.7160(2) 0.9064(4) 0.2606(2)
C99 C 0.5320(2) 0.7353(4) 0.2574(2)
C100 C 0.4807(3) 0.7192(5) 0.2211(3)
C101 C 0.3917(2) 0.6879(5) 0.2104(2)
C102 C 0.3667(2) 0.6547(4) 0.2337(2)
H42 H 0.3828 0.6469 0.2645
C103 C 0.3148(2) 0.6318(3) 0.20932(18)
C104 C 0.29084(18) 0.6503(3) 0.16496(17)
H43 H 0.2564 0.6388 0.1495
C105 C 0.3181(2) 0.6866(3) 0.14278(18)
C106 C 0.3705(2) 0.7054(4) 0.1664(2)
H44 H 0.3894 0.7287 0.1521
C107 C 0.29218(19) 0.7001(3) 0.09276(17)
C108 C 0.28756(17) 0.5875(3) 0.23330(16)
N9 N 0.9427(2) 0.7318(3) 0.69579(19)
H45 H 0.9495 0.7700 0.6840
N11 N 0.56791(19) 0.7531(4) 0.24388(17)
H47 H 0.5605 0.7509 0.2153
N12 N 0.4436(2) 0.7088(5) 0.2371(2)
H48 H 0.4515 0.7151 0.2655
O67 O 0.63309(15) 0.6371(2) 0.45759(17)
O68 O 0.86137(18) 0.8120(3) 0.47993(17)
O69 O 0.64491(17) 0.4935(2) 0.63542(16)
O70 O 0.8626(2) 0.4988(2) 0.83105(17)
O74 O 0.75069(12) 0.41263(19) 0.67845(11)
O76 O 0.82011(12) 0.41740(19) 0.74178(11)
O77 O 0.76149(12) 0.57626(19) 0.78502(12)
O79 O 0.69191(13) 0.5738(2) 0.72130(12)
O93 O 0.68131(12) 0.33927(18) 0.00057(13)
H53 H 0.626487 0.205701 0.00961957
H59 H 0.886242 0.341553 0.00878843
O35 O 0.85570(16) 0.3731(3) 0.99529(17)
O36 O 0.64061(18) 0.1832(3) 0.98870(19)
O91 O 0.74845(12) 0.39945(17) 0.99696(12)
O95 O 0.74020(13) 0.16018(18) 0.97586(13)
O97 O 0.81268(12) 0.22135(19) 0.98556(14)
H54 H 0.613721 0.18225 0.957815
H60 H 0.852234 0.387443 0.964464
O42_2 O 0.26278(12) 0.10287(18) 0.03995(12)
O43_2 O 0.18920(13) 0.16055(19) 0.03224(14)
C64_2 C 0.21692(19) 0.1055(3) 0.03564(19)
C65_2 C 0.1908(2) 0.0342(3) 0.0335(2)
C70_2 C 0.1380(2) 0.0326(3) 0.0288(3)
H31_2 H 0.1204 0.0750 0.0288
C72_2 C 0.0257(2) 0.0105(3) 0.0026(2)
Cu7 Cu 0.29483(2) 0.18918(3) 0.03063(2)
Cu8 Cu 0.20956(2) 0.26258(3) 0.02551(2)
O57_2 O 0.31251(13) 0.22008(19) 0.09402(12)
O58_2 O 0.23992(12) 0.2738(2) 0.09021(12)
O61 O 0.68659(14) 0.0732(2) 0.22594(12)
O62 O 0.75766(11) 0.07035(19) 0.29043(11)
O63 O 0.75183(12) 0.18009(19) 0.42594(12)
O64 O 0.67880(12) 0.2311(2) 0.42487(12)
O65_2 O 0.4643(2) 0.2389(7) 0.2030(2)
O66_2 O 0.5252(2) 0.2215(5) 0.3168(2)
C91_2 C 0.28419(19) 0.2555(3) 0.1098(2)
C92_2 C 0.30923(19) 0.2764(3) 0.15808(19)
C93_2 C 0.28418(18) 0.3242(3) 0.17796(18)
H39_2 H 0.2512 0.3402 0.1608
C94_2 C 0.30706(19) 0.3469(3) 0.22111(18)
C95_2 C 0.3568(2) 0.3214(4) 0.24726(19)
H40_2 H 0.3725 0.3359 0.2771
C96_2 C 0.3822(2) 0.2760(4) 0.2295(2)
C97_2 C 0.3585(2) 0.2522(3) 0.1851(2)
H41_2 H 0.3754 0.2200 0.1733
C98_2 C 0.2840(2) 0.4064(4) 0.2394(2)
C99_2 C 0.4680(2) 0.2353(4) 0.2426(2)
C100_2 C 0.5193(3) 0.2192(5) 0.2789(3)
C101_2 C 0.6083(2) 0.1879(5) 0.2896(2)
C102_2 C 0.6333(2) 0.1547(4) 0.2663(2)
H42_2 H 0.6172 0.1469 0.2355
C103_2 C 0.6852(2) 0.1318(3) 0.29068(18)
C104_2 C 0.70916(18) 0.1503(3) 0.33504(17)
H43_2 H 0.7436 0.1388 0.3505
C105_2 C 0.6819(2) 0.1866(3) 0.35722(18)
C106_2 C 0.6295(2) 0.2054(4) 0.3336(2)
H44_2 H 0.6106 0.2287 0.3479
C107_2 C 0.70782(19) 0.2001(3) 0.40724(17)
C108_2 C 0.71244(17) 0.0875(3) 0.26670(16)
N11_2 N 0.43209(19) 0.2531(4) 0.25612(17)
H47_2 H 0.4395 0.2509 0.2847
N12_2 N 0.5564(2) 0.2088(5) 0.2629(2)
H48_2 H 0.5485 0.2151 0.2345
O67_2 O 0.36691(15) 0.1371(2) 0.04241(17)
O68_2 O 0.13863(18) 0.3120(3) 0.02007(17)
O89 O 0.32107(13) 0.27840(17) 0.01930(13)
O90 O 0.25531(13) 0.34295(17) 0.02033(13)
O46_2 O 0.03358(19) 0.0700(4) 0.9902(4)
O47_2 O 0.18590(12) 0.24968(19) 0.96196(12)
O48_2 O 0.25220(14) 0.1797(2) 0.96446(12)
O49_2 O 0.17871(12) 0.0644(2) 0.76559(11)
O50_2 O 0.24766(12) 0.0608(2) 0.82821(11)
O55_2 O 0.0265(2) 0.1543(5) 0.7467(3)
C73_2 C 0.20744(18) 0.2091(2) 0.9455(2)
C74_2 C 0.18260(19) 0.1925(3) 0.89564(18)
C75_2 C 0.1338(2) 0.2208(3) 0.8723(2)
H33_2 H 0.1189 0.2512 0.8870
C76_2 C 0.1068(2) 0.2037(3) 0.8265(2)
C77_2 C 0.1311(2) 0.1600(3) 0.80528(18)
H34_2 H 0.1145 0.1497 0.7748
C78_2 C 0.18037(18) 0.1312(3) 0.82920(18)
C79_2 C 0.20543(18) 0.1494(3) 0.87384(18)
H35_2 H 0.2385 0.1321 0.8895
C80_2 C 0.20413(17) 0.0791(3) 0.80607(18)
C81_2 C 0.0215(2) 0.2092(4) 0.7694(2)
N9_2 N 0.0573(2) 0.2318(3) 0.80421(19)
H45_2 H 0.0505 0.2700 0.8160
H69 H 0.131654 0.048679 0.65675
O5_2 O 0.18779(13) 0.80030(19) 0.44347(12)
O6_2 O 0.25573(12) 0.73109(18) 0.44747(11)
O10_2 O 0.0337(3) 0.7006(4) 0.2235(3)
C10_2 C 0.0280(3) 0.7516(5) 0.2463(3)
C11_2 C 0.1124(2) 0.7439(4) 0.3084(2)
C12_2 C 0.1381(2) 0.7677(3) 0.3522(2)
H4_2 H 0.1232 0.8026 0.3642
C13_2 C 0.18640(18) 0.7394(3) 0.37860(18)
C14_2 C 0.2088(2) 0.6899(3) 0.35918(17)
H5_2 H 0.2415 0.6725 0.3757
C15_2 C 0.18219(18) 0.6655(3) 0.31421(17)
C16_2 C 0.1339(2) 0.6932(3) 0.2895(2)
H6_2 H 0.1161 0.6777 0.2602
C17_2 C 0.20661(18) 0.6061(3) 0.29691(16)
C18_2 C 0.2123(2) 0.7594(3) 0.42596(18)
N2_2 N 0.0633(2) 0.7726(4) 0.28591(19)
H20_2 H 0.0548 0.8079 0.2990
O35_2 O 0.14430(16) 0.8731(3) 0.50471(17)
O36_2 O 0.35939(18) 0.6832(3) 0.51130(19)
C66_2 C 0.21472(19) 0.9689(3) 0.03134(18)
H29_2 H 0.2485 0.9685 0.0332
C67_2 C 0.1878(2) 0.9050(3) 0.0264(2)
C68_2 C 0.1384(2) 0.9034(3) 0.0222(2)
H30_2 H 0.1208 0.8599 0.0180
C69_2 C 0.1144(2) 0.9676(3) 0.0243(3)
C71_2 C 0.2135(2) 0.8357(3) 0.0212(2)
N8_2 N 0.0613(2) 0.9616(3) 0.0187(3)
H32_2 H 0.0522 0.9215 0.0269
O85 O 0.24817(12) 0.81991(19) 0.57406(12)
O87 O 0.32120(12) 0.7689(2) 0.57513(12)
O69_2 O 0.35509(17) 0.9935(2) 0.86458(16)
O70_2 O 0.1374(2) 0.9988(2) 0.66895(17)
O81 O 0.31341(14) 0.9268(2) 0.77406(12)
O83 O 0.24234(11) 0.92965(19) 0.70957(11)
H63 H 0.347865 0.9763 0.890874
H64 H 0.380405 0.960887 0.859587
H70 H 0.143694 0.966198 0.647039
O33_2 O 0.64491(17) 0.0065(2) 0.13542(16)
O34_2 O 0.8626(2) 0.0012(2) 0.33105(17)
H50 H 0.619595 0.0391131 0.140413
H55 H 0.893412 0.0178135 0.325835
H56 H 0.856306 0.0338023 0.352961
C48_2 C 0.78528(19) 0.0311(3) 0.96866(18)
H16_2 H 0.7515 0.0315 0.9668
C49_2 C 0.8122(2) 0.0950(3) 0.9736(2)
C50_2 C 0.8616(2) 0.0966(3) 0.9778(2)
H17_2 H 0.8792 0.1401 0.9820
C51_2 C 0.8856(2) 0.0324(3) 0.9757(3)
C53_2 C 0.7865(2) 0.1643(3) 0.9788(2)
N5_2 N 0.9387(2) 0.0384(3) 0.9813(3)
H23_2 H 0.9478 0.0785 0.9731
O51_2 O 0.81221(13) 0.19970(19) 0.55653(12)
O52_2 O 0.74427(12) 0.26891(18) 0.55253(11)
O56_2 O 0.9663(3) 0.2994(4) 0.7765(3)
C82_2 C 0.9720(3) 0.2484(5) 0.7537(3)
C83_2 C 0.8876(2) 0.2561(4) 0.6916(2)
C84_2 C 0.8619(2) 0.2323(3) 0.6478(2)
H36_2 H 0.8768 0.1974 0.6358
C85_2 C 0.81360(18) 0.2606(3) 0.62140(18)
C86_2 C 0.7912(2) 0.3101(3) 0.64082(17)
H37_2 H 0.7585 0.3275 0.6243
C87_2 C 0.81781(18) 0.3345(3) 0.68579(17)
C88_2 C 0.8661(2) 0.3068(3) 0.7105(2)
H38_2 H 0.8839 0.3223 0.7398
C89_2 C 0.79339(18) 0.3939(3) 0.70309(16)
C90_2 C 0.7877(2) 0.2406(3) 0.57404(18)
N10_2 N 0.9367(2) 0.2274(4) 0.71409(19)
H46_2 H 0.9452 0.1921 0.7010
O71_2 O 0.85570(16) 0.1269(3) 0.49529(17)
O72_2 O 0.64061(18) 0.3168(3) 0.48870(19)
O1_2 O 0.81410(12) 0.75032(19) 0.03804(12)
O2_2 O 0.74780(14) 0.8203(2) 0.03554(12)
O3_2 O 0.82129(12) 0.9356(2) 0.23441(11)
O4_2 O 0.75234(12) 0.9392(2) 0.17179(11)
O9_2 O 0.9735(2) 0.8457(5) 0.2533(3)
O25_2 O 0.5355(2) 0.4234(3) 0.0013(3)
O30_2 O 0.96642(19) 0.9300(4) 0.0098(4)
C1_2 C 0.79256(18) 0.7909(2) 0.0545(2)
C2_2 C 0.81740(19) 0.8075(3) 0.10436(18)
C3_2 C 0.8662(2) 0.7792(3) 0.1277(2)
H1_2 H 0.8811 0.7488 0.1130
C4_2 C 0.8932(2) 0.7963(3) 0.1735(2)
C5_2 C 0.8689(2) 0.8400(3) 0.19472(18)
H2_2 H 0.8855 0.8503 0.2252
C6_2 C 0.81963(18) 0.8688(3) 0.17080(18)
C7_2 C 0.79457(18) 0.8506(3) 0.12616(18)
H3_2 H 0.7615 0.8679 0.1105
C8_2 C 0.79587(17) 0.9209(3) 0.19393(18)
C9_2 C 0.9785(2) 0.7908(4) 0.2306(2)
C41_2 C 0.6315(2) 0.4673(3) 0.0006(2)
H14_2 H 0.6153 0.4248 0.0034
N1_2 N 0.9427(2) 0.7682(3) 0.19579(19)
H19_2 H 0.9495 0.7300 0.1840
N6_2 N 0.55779(19) 0.5389(3) 0.0008(2)
H24_2 H 0.5478 0.5818 0.0036
C55_2 C 0.29707(17) 0.3358(2) 0.01685(18)
C56_2 C 0.32145(19) 0.4047(3) 0.00904(19)
C57_2 C 0.3700(2) 0.4019(3) 0.0062(2)
H25_2 H 0.3861 0.3578 0.0073
C58_2 C 0.3935(2) 0.4648(3) 0.0018(3)
C60_2 C 0.32076(19) 0.5352(3) 0.00112(19)
C61_2 C 0.29725(19) 0.4701(3) 0.00652(18)
H27_2 H 0.2651 0.4716 0.0084
C62_2 C 0.29468(18) 0.6038(3) 0.00061(17)
C63_2 C 0.4742(3) 0.5113(4) 0.0004(2)
H49 H 0.630704 0.956823 0.129519
Cu1_2 Cu 0.70517(2) 0.81082(3) 0.96937(2)
Cu2_2 Cu 0.79044(2) 0.73742(3) 0.97449(2)
O11_2 O 0.68749(13) 0.77992(19) 0.90598(12)
O12_2 O 0.76008(12) 0.7262(2) 0.90979(12)
O19_2 O 0.5357(2) 0.7611(7) 0.7970(2)
O20_2 O 0.4748(2) 0.7785(5) 0.6832(2)
O21_2 O 0.67893(13) 0.72160(17) 0.98070(13)
O22_2 O 0.74469(13) 0.65705(17) 0.97967(13)
O26_2 O 0.73722(12) 0.89713(18) 0.96005(12)
O27_2 O 0.81080(13) 0.83945(19) 0.96776(14)
C19_2 C 0.71581(19) 0.7445(3) 0.8902(2)
C20_2 C 0.69077(19) 0.7236(3) 0.84192(19)
C21_2 C 0.71582(18) 0.6758(3) 0.82204(18)
H7_2 H 0.7488 0.6598 0.8392
C22_2 C 0.69294(19) 0.6531(3) 0.77889(18)
C23_2 C 0.6432(2) 0.6786(4) 0.75274(19)
H8_2 H 0.6275 0.6641 0.7229
C24_2 C 0.6178(2) 0.7240(4) 0.7705(2)
C25_2 C 0.6415(2) 0.7478(3) 0.8149(2)
H9_2 H 0.6246 0.7800 0.8267
C26_2 C 0.7160(2) 0.5936(4) 0.7606(2)
C27_2 C 0.5320(2) 0.7647(4) 0.7574(2)
C28_2 C 0.4807(3) 0.7808(5) 0.7211(3)
C29_2 C 0.3917(2) 0.8121(5) 0.7104(2)
C30_2 C 0.3667(2) 0.8453(4) 0.7337(2)
H10_2 H 0.3828 0.8531 0.7645
C31_2 C 0.3148(2) 0.8682(3) 0.70932(18)
C32_2 C 0.29084(18) 0.8497(3) 0.66496(17)
H11_2 H 0.2564 0.8612 0.6495
C33_2 C 0.3181(2) 0.8134(3) 0.64278(18)
C34_2 C 0.3705(2) 0.7946(4) 0.6664(2)
H12_2 H 0.3894 0.7713 0.6521
C35_2 C 0.29218(19) 0.7999(3) 0.59276(17)
C36_2 C 0.28756(17) 0.9125(3) 0.73330(16)
C37_2 C 0.70293(17) 0.6642(2) 0.98315(18)
C38_2 C 0.67855(19) 0.5953(3) 0.99096(19)
C39_2 C 0.6300(2) 0.5981(3) 0.9938(2)
H13_2 H 0.6139 0.6422 0.9927
C40_2 C 0.6065(2) 0.5352(3) 0.9982(3)
C42_2 C 0.67924(19) 0.4648(3) 0.99888(19)
C43_2 C 0.70275(19) 0.5299(3) 0.99348(18)
H15_2 H 0.7349 0.5284 0.9916
C44_2 C 0.70532(18) 0.3962(3) 0.99939(17)
C45_2 C 0.5258(3) 0.4887(4) 0.9996(2)
C46_2 C 0.78308(19) 0.8945(3) 0.96436(19)
C47_2 C 0.8092(2) 0.9658(3) 0.9665(2)
C52_2 C 0.8620(2) 0.9674(3) 0.9712(3)
H18_2 H 0.8796 0.9250 0.9712
C54_2 C 0.9743(2) 0.9895(3) 0.9974(2)
N3_2 N 0.56791(19) 0.7469(4) 0.74388(17)
H21_2 H 0.5605 0.7491 0.7153
N4_2 N 0.4436(2) 0.7912(5) 0.7371(2)
H22_2 H 0.4515 0.7849 0.7655
O31_2 O 0.63309(15) 0.8629(2) 0.95759(17)
O32_2 O 0.86137(18) 0.6880(3) 0.97993(17)
O41_2 O 0.4645(2) 0.5766(3) 0.9987(3)
C59_2 C 0.3685(2) 0.5327(3) 0.9994(2)
H26_2 H 0.3847 0.5752 0.9966
N7_2 N 0.44221(19) 0.4611(3) 0.9992(2)
H28_2 H 0.4522 0.4182 0.9964
H53_2 H 0.373513 0.794299 0.99038
H59_2 H 0.113758 0.658447 0.991212
H65_2 H 0.859861 0.416904 0.0141653
H71_2 H 0.651773 0.133132 0.99868
H49_2 H 0.369296 0.043177 0.870481
H55_2 H 0.106588 0.982187 0.674165
H63_2 H 0.652135 0.0236999 0.109126
H69_2 H 0.868346 0.951321 0.34325
loop_
_geom_bond_atom_site_label_1
_geom_bond_atom_site_label_2
_geom_bond_site_symmetry_1
_geom_bond_site_symmetry_2
O71 Cu11 1_555 1_555
O72 Cu12 1_555 1_555
O86 Cu11 1_555 1_555
O88 Cu12 1_555 1_555
O92 Cu11 1_555 1_555
O96 Cu12 1_555 1_555
O98 Cu11 1_555 1_555
O71 H66 1_555 1_555
O72 H71 1_555 1_555
O72 H72 1_555 1_555
Cu1 O2 1_555 1_555
Cu2 O1 1_555 1_555
Cu3 O4 1_555 1_555
Cu4 O3 1_555 1_555
O1 C1 1_555 1_555
O2 C1 1_555 1_555
O3 C8 1_555 1_555
O4 C8 1_555 1_555
O9 C9 1_555 1_555
O11 Cu1 1_555 1_555
O12 Cu2 1_555 1_555
O13 C26 1_555 1_555
O14 C26 1_555 1_555
O15 C36 1_555 1_555
O16 C36 1_555 1_555
O17 C35 1_555 1_555
O18 C35 1_555 1_555
O19 C27 1_555 1_555
O20 C28 1_555 1_555
O21 Cu1 1_555 1_555
O22 Cu2 1_555 1_555
O26 Cu1 1_555 1_555
O27 Cu2 1_555 1_555
O28 C53 1_555 1_555
O29 C53 1_555 1_555
O30 C54 1_555 1_555
C1 C2 1_555 1_555
C2 C3 1_555 1_555
C3 H1 1_555 1_555
C4 C3 1_555 1_555
C5 C4 1_555 1_555
H2 C5 1_555 1_555
C6 C5 1_555 1_555
C7 C2 1_555 1_555
H3 C7 1_555 1_555
C8 C6 1_555 1_555
C19 O11 1_555 1_555
C20 C19 1_555 1_555
C21 C20 1_555 1_555
H7 C21 1_555 1_555
C22 C21 1_555 1_555
C23 C22 1_555 1_555
H8 C23 1_555 1_555
C24 C23 1_555 1_555
C25 C20 1_555 1_555
H9 C25 1_555 1_555
C26 C22 1_555 1_555
C27 C28 1_555 1_555
C28 N4 1_555 1_555
C29 C30 1_555 1_555
C30 H10 1_555 1_555
C31 C30 1_555 1_555
C32 C31 1_555 1_555
H11 C32 1_555 1_555
C33 C32 1_555 1_555
C34 C29 1_555 1_555
H12 C34 1_555 1_555
C35 C33 1_555 1_555
C36 C31 1_555 1_555
C37 O21 1_555 1_555
C38 C37 1_555 1_555
C39 C38 1_555 1_555
H13 C39 1_555 1_555
C40 C39 1_555 1_555
C43 C38 1_555 1_555
H15 C43 1_555 1_555
C46 O26 1_555 1_555
C47 C46 1_555 1_555
C48 C47 1_555 1_555
H16 C48 1_555 1_555
C49 C48 1_555 1_555
C50 C49 1_555 1_555
H17 C50 1_555 1_555
C51 C50 1_555 1_555
C52 C47 1_555 1_555
H18 C52 1_555 1_555
C53 C49 1_555 1_555
C54 N5 1_555 1_555
N1 C4 1_555 1_555
H19 N1 1_555 1_555
N3 C24 1_555 1_555
H21 N3 1_555 1_555
N4 C29 1_555 1_555
H22 N4 1_555 1_555
N5 C51 1_555 1_555
H23 N5 1_555 1_555
N6 C40 1_555 1_555
H24 N6 1_555 1_555
O31 Cu1 1_555 1_555
O32 Cu2 1_555 1_555
O33 Cu3 1_555 1_555
O34 Cu4 1_555 1_555
O39 C62 1_555 1_555
O40 C62 1_555 1_555
O41 C63 1_555 1_555
H26 C59 1_555 1_555
C60 C59 1_555 1_555
C62 C60 1_555 1_555
O51 C90 1_555 1_555
O52 C90 1_555 1_555
O53 C89 1_555 1_555
O54 C89 1_555 1_555
O56 C82 1_555 1_555
C82 N10 1_555 1_555
C83 C84 1_555 1_555
C84 H36 1_555 1_555
C85 C84 1_555 1_555
C86 C85 1_555 1_555
H37 C86 1_555 1_555
C87 C86 1_555 1_555
C88 C83 1_555 1_555
H38 C88 1_555 1_555
C89 C87 1_555 1_555
C90 C85 1_555 1_555
N10 C83 1_555 1_555
H46 N10 1_555 1_555
Cu18 O15 1_555 1_555
Cu20 O53 1_555 1_555
Cu24 O16 1_555 1_555
Cu26 O54 1_555 1_555
Cu27 O17 1_555 1_555
Cu29 O29 1_555 1_555
Cu32 O39 1_555 1_555
Cu33 O18 1_555 1_555
Cu35 O28 1_555 1_555
Cu38 O40 1_555 1_555
O73 Cu3 1_555 1_555
O75 Cu4 1_555 1_555
O78 Cu4 1_555 1_555
O80 Cu3 1_555 1_555
O82 Cu3 1_555 1_555
O84 Cu4 1_555 1_555
O12 C19 1_555 1_555
O22 C37 1_555 1_555
O27 C46 1_555 1_555
C6 C7 1_555 1_555
C9 N1 1_555 1_555
C24 C25 1_555 1_555
C27 N3 1_555 1_555
C33 C34 1_555 1_555
C51 C52 1_555 1_555
C87 C88 1_555 1_555
O23 C44 1_555 1_555
O24 C44 1_555 1_555
O25 C45 1_555 1_555
H14 C41 1_555 1_555
C42 C41 1_555 1_555
C44 C42 1_555 1_555
O37 C55 1_555 1_555
O38 C55 1_555 1_555
C55 C56 1_555 1_555
C56 C57 1_555 1_555
C57 H25 1_555 1_555
C58 C57 1_555 1_555
C61 C56 1_555 1_555
H27 C61 1_555 1_555
N7 C58 1_555 1_555
H28 N7 1_555 1_555
Cu13 O37 1_555 1_555
Cu14 O38 1_555 1_555
Cu29 O23 1_555 1_555
Cu35 O24 1_555 1_555
O5 C18 1_555 1_555
O6 C18 1_555 1_555
O7 C17 1_555 1_555
O8 C17 1_555 1_555
O10 C10 1_555 1_555
C10 N2 1_555 1_555
C11 C12 1_555 1_555
C12 H4 1_555 1_555
C13 C12 1_555 1_555
C14 C13 1_555 1_555
H5 C14 1_555 1_555
C15 C14 1_555 1_555
C16 C11 1_555 1_555
H6 C16 1_555 1_555
C17 C15 1_555 1_555
C18 C13 1_555 1_555
N2 C11 1_555 1_555
H20 N2 1_555 1_555
O42 C64 1_555 1_555
O43 C64 1_555 1_555
O44 C71 1_555 1_555
O45 C71 1_555 1_555
O46 C72 1_555 1_555
C64 C65 1_555 1_555
C65 C66 1_555 1_555
C66 H29 1_555 1_555
C67 C66 1_555 1_555
C68 C67 1_555 1_555
H30 C68 1_555 1_555
C69 C68 1_555 1_555
C70 C65 1_555 1_555
H31 C70 1_555 1_555
C71 C67 1_555 1_555
N8 C69 1_555 1_555
H32 N8 1_555 1_555
Cu13 O42 1_555 1_555
Cu14 O43 1_555 1_555
Cu18 O50 1_555 1_555
Cu24 O49 1_555 1_555
O47 Cu14 1_555 1_555
O48 Cu13 1_555 1_555
O49 C80 1_555 1_555
O50 C80 1_555 1_555
O55 C81 1_555 1_555
O57 Cu13 1_555 1_555
O58 Cu14 1_555 1_555
O59 C98 1_555 1_555
O60 C98 1_555 1_555
O82 C108 1_555 1_555
O84 C108 1_555 1_555
O86 C107 1_555 1_555
O88 C107 1_555 1_555
O65 C99 1_555 1_555
O66 C100 1_555 1_555
C73 O47 1_555 1_555
C74 C73 1_555 1_555
C75 C74 1_555 1_555
H33 C75 1_555 1_555
C76 C75 1_555 1_555
C77 C76 1_555 1_555
H34 C77 1_555 1_555
C78 C77 1_555 1_555
C79 C74 1_555 1_555
H35 C79 1_555 1_555
C80 C78 1_555 1_555
C91 O57 1_555 1_555
C92 C91 1_555 1_555
C93 C92 1_555 1_555
H39 C93 1_555 1_555
C94 C93 1_555 1_555
C95 C94 1_555 1_555
H40 C95 1_555 1_555
C96 C95 1_555 1_555
C97 C92 1_555 1_555
H41 C97 1_555 1_555
C98 C94 1_555 1_555
C99 C100 1_555 1_555
C100 N12 1_555 1_555
C101 C102 1_555 1_555
C102 H42 1_555 1_555
C103 C102 1_555 1_555
C104 C103 1_555 1_555
H43 C104 1_555 1_555
C105 C104 1_555 1_555
C106 C101 1_555 1_555
H44 C106 1_555 1_555
C107 C105 1_555 1_555
C108 C103 1_555 1_555
N9 C76 1_555 1_555
H45 N9 1_555 1_555
N11 C96 1_555 1_555
H47 N11 1_555 1_555
N12 C101 1_555 1_555
H48 N12 1_555 1_555
O67 Cu13 1_555 1_555
O68 Cu14 1_555 1_555
O69 Cu18 1_555 1_555
O70 Cu24 1_555 1_555
Cu17 O7 1_555 1_555
Cu23 O8 1_555 1_555
Cu32 O45 1_555 1_555
Cu38 O44 1_555 1_555
O74 Cu18 1_555 1_555
O76 Cu24 1_555 1_555
O77 Cu24 1_555 1_555
O79 Cu18 1_555 1_555
C15 C16 1_555 1_555
C69 C70 1_555 1_555
C72 N8 1_555 1_555
O48 C73 1_555 1_555
O58 C91 1_555 1_555
C78 C79 1_555 1_555
C81 N9 1_555 1_555
C96 C97 1_555 1_555
C99 N11 1_555 1_555
C105 C106 1_555 1_555
O35 Cu27 1_555 1_555
O36 Cu33 1_555 1_555
O91 Cu27 1_555 1_555
O95 Cu33 1_555 1_555
O97 Cu27 1_555 1_555
O36 H54 1_555 1_555
O35 H60 1_555 1_555
O42_2 C64_2 1_555 1_555
O43_2 C64_2 1_555 1_555
C64_2 C65_2 1_555 1_555
C70_2 C65_2 1_555 1_555
H31_2 C70_2 1_555 1_555
Cu7 O42_2 1_555 1_555
Cu8 O43_2 1_555 1_555
O57_2 Cu7 1_555 1_555
O58_2 Cu8 1_555 1_555
O78 C98_2 1_555 1_555
O80 C98_2 1_555 1_555
O61 C108_2 1_555 1_555
O62 C108_2 1_555 1_555
O63 C107_2 1_555 1_555
O64 C107_2 1_555 1_555
O65_2 C99_2 1_555 1_555
O66_2 C100_2 1_555 1_555
C91_2 O57_2 1_555 1_555
C92_2 C91_2 1_555 1_555
C93_2 C92_2 1_555 1_555
H39_2 C93_2 1_555 1_555
C94_2 C93_2 1_555 1_555
C95_2 C94_2 1_555 1_555
H40_2 C95_2 1_555 1_555
C96_2 C95_2 1_555 1_555
C97_2 C92_2 1_555 1_555
H41_2 C97_2 1_555 1_555
C98_2 C94_2 1_555 1_555
C99_2 C100_2 1_555 1_555
C100_2 N12_2 1_555 1_555
C101_2 C102_2 1_555 1_555
C102_2 H42_2 1_555 1_555
C103_2 C102_2 1_555 1_555
C104_2 C103_2 1_555 1_555
H43_2 C104_2 1_555 1_555
C105_2 C104_2 1_555 1_555
C106_2 C101_2 1_555 1_555
H44_2 C106_2 1_555 1_555
C107_2 C105_2 1_555 1_555
C108_2 C103_2 1_555 1_555
N11_2 C96_2 1_555 1_555
H47_2 N11_2 1_555 1_555
N12_2 C101_2 1_555 1_555
H48_2 N12_2 1_555 1_555
O67_2 Cu7 1_555 1_555
O68_2 Cu8 1_555 1_555
Cu17 O61 1_555 1_555
Cu23 O62 1_555 1_555
Cu32 O63 1_555 1_555
Cu38 O64 1_555 1_555
O89 Cu7 1_555 1_555
O90 Cu8 1_555 1_555
O58_2 C91_2 1_555 1_555
C96_2 C97_2 1_555 1_555
C99_2 N11_2 1_555 1_555
C105_2 C106_2 1_555 1_555
O49_2 C80_2 1_555 1_555
O50_2 C80_2 1_555 1_555
O55_2 C81_2 1_555 1_555
C73_2 O47_2 1_555 1_555
C74_2 C73_2 1_555 1_555
C75_2 C74_2 1_555 1_555
H33_2 C75_2 1_555 1_555
C76_2 C75_2 1_555 1_555
C77_2 C76_2 1_555 1_555
H34_2 C77_2 1_555 1_555
C78_2 C77_2 1_555 1_555
C79_2 C74_2 1_555 1_555
H35_2 C79_2 1_555 1_555
C80_2 C78_2 1_555 1_555
N9_2 C76_2 1_555 1_555
H45_2 N9_2 1_555 1_555
O48_2 C73_2 1_555 1_555
C78_2 C79_2 1_555 1_555
C81_2 N9_2 1_555 1_555
Cu29 O5_2 1_555 1_555
Cu35 O6_2 1_555 1_555
O5_2 C18_2 1_555 1_555
O6_2 C18_2 1_555 1_555
O73 C17_2 1_555 1_555
O75 C17_2 1_555 1_555
O10_2 C10_2 1_555 1_555
C10_2 N2_2 1_555 1_555
C11_2 C12_2 1_555 1_555
C12_2 H4_2 1_555 1_555
C13_2 C12_2 1_555 1_555
C14_2 C13_2 1_555 1_555
H5_2 C14_2 1_555 1_555
C15_2 C14_2 1_555 1_555
C16_2 C11_2 1_555 1_555
H6_2 C16_2 1_555 1_555
C17_2 C15_2 1_555 1_555
C18_2 C13_2 1_555 1_555
N2_2 C11_2 1_555 1_555
H20_2 N2_2 1_555 1_555
O35_2 Cu29 1_555 1_555
O36_2 Cu35 1_555 1_555
O96 C71_2 1_555 1_555
O98 C71_2 1_555 1_555
C66_2 H29_2 1_555 1_555
C67_2 C66_2 1_555 1_555
C68_2 C67_2 1_555 1_555
H30_2 C68_2 1_555 1_555
C69_2 C68_2 1_555 1_555
C71_2 C67_2 1_555 1_555
N8_2 C69_2 1_555 1_555
H32_2 N8_2 1_555 1_555
O85 Cu29 1_555 1_555
O87 Cu35 1_555 1_555
C15_2 C16_2 1_555 1_555
O69_2 Cu20 1_555 1_555
O70_2 Cu26 1_555 1_555
O81 Cu20 1_555 1_555
O83 Cu26 1_555 1_555
O69_2 H63 1_555 1_555
O69_2 H64 1_555 1_555
O70_2 H70 1_555 1_555
O33_2 Cu17 1_555 1_555
O34_2 Cu23 1_555 1_555
O33_2 H50 1_555 1_555
O34_2 H55 1_555 1_555
O34_2 H56 1_555 1_555
O95 C53_2 1_555 1_555
O97 C53_2 1_555 1_555
H16_2 C48_2 1_555 1_555
C49_2 C48_2 1_555 1_555
C50_2 C49_2 1_555 1_555
H17_2 C50_2 1_555 1_555
C51_2 C50_2 1_555 1_555
C53_2 C49_2 1_555 1_555
N5_2 C51_2 1_555 1_555
H23_2 N5_2 1_555 1_555
Cu32 O51_2 1_555 1_555
Cu38 O52_2 1_555 1_555
O51_2 C90_2 1_555 1_555
O52_2 C90_2 1_555 1_555
O74 C89_2 1_555 1_555
O76 C89_2 1_555 1_555
O56_2 C82_2 1_555 1_555
C82_2 N10_2 1_555 1_555
C83_2 C84_2 1_555 1_555
C84_2 H36_2 1_555 1_555
C85_2 C84_2 1_555 1_555
C86_2 C85_2 1_555 1_555
H37_2 C86_2 1_555 1_555
C87_2 C86_2 1_555 1_555
C88_2 C83_2 1_555 1_555
H38_2 C88_2 1_555 1_555
C89_2 C87_2 1_555 1_555
C90_2 C85_2 1_555 1_555
N10_2 C83_2 1_555 1_555
H46_2 N10_2 1_555 1_555
O71_2 Cu32 1_555 1_555
O72_2 Cu38 1_555 1_555
C87_2 C88_2 1_555 1_555
O1_2 C1_2 1_555 1_555
O2_2 C1_2 1_555 1_555
O3_2 C8_2 1_555 1_555
O4_2 C8_2 1_555 1_555
O9_2 C9_2 1_555 1_555
C1_2 C2_2 1_555 1_555
C2_2 C3_2 1_555 1_555
C3_2 H1_2 1_555 1_555
C4_2 C3_2 1_555 1_555
C5_2 C4_2 1_555 1_555
H2_2 C5_2 1_555 1_555
C6_2 C5_2 1_555 1_555
C7_2 C2_2 1_555 1_555
H3_2 C7_2 1_555 1_555
C8_2 C6_2 1_555 1_555
H14_2 C41_2 1_555 1_555
N1_2 C4_2 1_555 1_555
H19_2 N1_2 1_555 1_555
H24_2 N6_2 1_555 1_555
O89 C55_2 1_555 1_555
O90 C55_2 1_555 1_555
O92 C62_2 1_555 1_555
C55_2 C56_2 1_555 1_555
C56_2 C57_2 1_555 1_555
C57_2 H25_2 1_555 1_555
C58_2 C57_2 1_555 1_555
C61_2 C56_2 1_555 1_555
H27_2 C61_2 1_555 1_555
C62_2 C60_2 1_555 1_555
C6_2 C7_2 1_555 1_555
C9_2 N1_2 1_555 1_555
C60_2 C61_2 1_555 1_555
O11_2 Cu1_2 1_555 1_555
O12_2 Cu2_2 1_555 1_555
O77 C26_2 1_555 1_555
O79 C26_2 1_555 1_555
O81 C36_2 1_555 1_555
O83 C36_2 1_555 1_555
O85 C35_2 1_555 1_555
O87 C35_2 1_555 1_555
O19_2 C27_2 1_555 1_555
O20_2 C28_2 1_555 1_555
O21_2 Cu1_2 1_555 1_555
O22_2 Cu2_2 1_555 1_555
O91 C44_2 1_555 1_555
O26_2 Cu1_2 1_555 1_555
O27_2 Cu2_2 1_555 1_555
C19_2 O11_2 1_555 1_555
C20_2 C19_2 1_555 1_555
C21_2 C20_2 1_555 1_555
H7_2 C21_2 1_555 1_555
C22_2 C21_2 1_555 1_555
C23_2 C22_2 1_555 1_555
H8_2 C23_2 1_555 1_555
C24_2 C23_2 1_555 1_555
C25_2 C20_2 1_555 1_555
H9_2 C25_2 1_555 1_555
C26_2 C22_2 1_555 1_555
C27_2 C28_2 1_555 1_555
C28_2 N4_2 1_555 1_555
C29_2 C30_2 1_555 1_555
C30_2 H10_2 1_555 1_555
C31_2 C30_2 1_555 1_555
C32_2 C31_2 1_555 1_555
H11_2 C32_2 1_555 1_555
C33_2 C32_2 1_555 1_555
C34_2 C29_2 1_555 1_555
H12_2 C34_2 1_555 1_555
C35_2 C33_2 1_555 1_555
C36_2 C31_2 1_555 1_555
C37_2 O21_2 1_555 1_555
C38_2 C37_2 1_555 1_555
C39_2 C38_2 1_555 1_555
H13_2 C39_2 1_555 1_555
C40_2 C39_2 1_555 1_555
C43_2 C38_2 1_555 1_555
H15_2 C43_2 1_555 1_555
C44_2 C42_2 1_555 1_555
C46_2 O26_2 1_555 1_555
C47_2 C46_2 1_555 1_555
C52_2 C47_2 1_555 1_555
H18_2 C52_2 1_555 1_555
N3_2 C24_2 1_555 1_555
H21_2 N3_2 1_555 1_555
N4_2 C29_2 1_555 1_555
H22_2 N4_2 1_555 1_555
O31_2 Cu1_2 1_555 1_555
O32_2 Cu2_2 1_555 1_555
H26_2 C59_2 1_555 1_555
H28_2 N7_2 1_555 1_555
O12_2 C19_2 1_555 1_555
O22_2 C37_2 1_555 1_555
O27_2 C46_2 1_555 1_555
C24_2 C25_2 1_555 1_555
C27_2 N3_2 1_555 1_555
C33_2 C34_2 1_555 1_555
C42_2 C43_2 1_555 1_555
O36 H71_2 1_555 1_555
O70_2 H55_2 1_555 1_555
O33_2 H63_2 1_555 1_555

#END
