
###############################################################################
#
# This file contains modified crystal structure data generated from the
# MOF subset of the Cambridge Structural Database (CSD) v543 
# hosted by the Cambridge Crystallographic Data Centre (CCDC).
#
# This work is licensed under the Creative Commons
# Attribution-NonCommercial-ShareAlike 4.0 International License.
# To view a copy of this license, visit
# http://creativecommons.org/licenses/by-nc-sa/4.0/
# or send a letter to
# Creative Commons, PO Box 1866, Mountain View, CA 94042, USA.
#
# CIF created using the CSD Python API on 29 September 2022
# The structure has been converted into the P1 space group
# The structure has a 3D framework
# The original CSD entry VIXTUT is in the monoclinic crystal system
# The framework has been calculated to contain at least 10.0% void space
# The void calculation uses a probe of radius 1.32A, grid spacing 0.4
#
###############################################################################

data_VIXTUT
_chemical_formula_moiety         '(C64 H64 N6 O16 Zn4)n'
_symmetry_cell_setting           triclinic
_symmetry_space_group_name_H-M   'P 1'
_symmetry_Int_Tables_number      1
_space_group_name_Hall           'P 1'
loop_
_symmetry_equiv_pos_site_id
_symmetry_equiv_pos_as_xyz
1 x,y,z
_cell_length_a                   10.895(2)
_cell_length_b                   13.052(3)
_cell_length_c                   13.536(3)
_cell_angle_alpha                90
_cell_angle_beta                 95.74(3)
_cell_angle_gamma                90
_cell_volume                     1915.19
loop_
_atom_site_label
_atom_site_type_symbol
_atom_site_fract_x
_atom_site_fract_y
_atom_site_fract_z
Zn1 Zn 0.70101(2) 0.119754(16) 0.172661(15)
O1 O 0.55348(14) 0.18921(11) 0.10485(10)
O2 O 0.69802(14) 0.24314(12) 0.01614(11)
N1 N 0.60439(16) 0.02958(12) 0.26353(12)
C1 C 0.5897(2) 0.24413(16) 0.03526(14)
H2 H 0.4234 0.3194 0.0118
H5 H 0.7355 0.0144 0.3747
C9 C 0.4890(2) 0.00106(17) 0.23393(17)
H8 H 0.4514 0.0267 0.1725
O5 O 0.78733(14) 0.22601(11) 0.25484(11)
N3 N 0.77946(15) 0.01334(13) 0.08858(12)
O4 O 0.89965(15) 0.08986(12) 0.29600(12)
C2 C 0.9959(2) 0.19213(18) 0.47447(15)
H2_2 H 0.9234 0.1806 0.5118
C3 C 0.9561(2) 0.24712(17) 0.37773(17)
H4 H 0.9101 0.3098 0.3924
C4 C 0.8766(2) 0.18245(17) 0.30520(15)
C7 C 0.9735(2) 0.60065(16) 0.87807(18)
C8 C 0.9221(2) 0.56344(18) 0.78777(18)
H7 H 0.8406 0.5825 0.7631
C9_2 C 0.9890(2) 0.49894(17) 0.73393(17)
H8_2 H 0.9514 0.4733 0.6725
C10 C 0.9081(3) 0.67586(18) 0.9377(2)
H9 H 0.8182 0.6720 0.9178
C11 C 0.9525(2) 0.78358(18) 0.92235(18)
H11 H 0.9380 0.8006 0.8509
C12 C 0.8908(2) 0.86326(16) 0.98053(17)
C13 C 0.8385(3) 0.94909(18) 0.93577(16)
H13 H 0.8398 0.9583 0.8663
O3 O 0.28733(14) 0.27399(11) 0.75484(11)
O4_2 O 0.39965(15) 0.41014(12) 0.79600(12)
C2_2 C 0.4959(2) 0.30787(18) 0.97447(15)
H1 H 0.5318 0.3754 0.9604
C3_2 C 0.4561(2) 0.25288(17) 0.87773(17)
H3 H 0.5306 0.2315 0.8467
H4_2 H 0.4101 0.1902 0.8924
C4_2 C 0.3766(2) 0.31755(17) 0.80520(15)
Zn3 Zn 0.20101(2) 0.380246(16) 0.672661(15)
N2 N 0.27946(15) 0.48666(13) 0.58858(12)
C5 C 0.6538(2) 0.99447(18) 0.35139(16)
C6 C 0.5908(3) 0.9306(2) 0.40928(18)
H6 H 0.6290 0.9080 0.4716
C7_2 C 0.4735(2) 0.89935(16) 0.37807(18)
C8_2 C 0.4221(2) 0.93656(18) 0.28777(18)
H7_2 H 0.3406 0.9175 0.2631
C10_2 C 0.4081(3) 0.82414(18) 0.4377(2)
H9_2 H 0.3182 0.8280 0.4178
H10 H 0.4226 0.8421 0.5089
C11_2 C 0.4525(2) 0.71642(18) 0.42235(18)
H11_2 H 0.4380 0.6994 0.3509
H12 H 0.5425 0.7136 0.4414
C12_2 C 0.3908(2) 0.63674(16) 0.48053(17)
C13_2 C 0.3385(3) 0.55091(18) 0.43577(16)
H13_2 H 0.3398 0.5417 0.3663
C14 C 0.2842(2) 0.47817(18) 0.49037(16)
H14 H 0.2486 0.4195 0.4572
C15 C 0.3308(2) 0.57013(17) 0.63185(16)
H15 H 0.3286 0.5779 0.7014
C16 C 0.3864(2) 0.64511(18) 0.58163(17)
H16 H 0.4220 0.7029 0.6163
O1_2 O 0.05348(14) 0.31079(11) 0.60485(10)
O2_2 O 0.19802(14) 0.25686(12) 0.51614(11)
N1_2 N 0.10439(16) 0.47042(12) 0.76353(12)
C1_2 C 0.0897(2) 0.25587(16) 0.53526(14)
H1_2 H 0.0318 0.1246 0.4604
H3_2 H 0.0306 0.2685 0.3467
C5_2 C 0.1538(2) 0.50553(18) 0.85139(16)
H5_2 H 0.2355 0.4856 0.8747
C6_2 C 0.0908(3) 0.5694(2) 0.90928(18)
H6_2 H 0.1290 0.5920 0.9716
H12_2 H 0.0425 0.7864 0.9414
O3_2 O 0.21267(14) 0.77399(11) 0.74516(11)
O4_3 O 0.10035(15) 0.91014(12) 0.70400(12)
C2_3 C 0.0041(2) 0.80787(18) 0.52553(15)
H2_3 H 0.0766 0.8194 0.4882
C3_3 C 0.0439(2) 0.75288(17) 0.62227(17)
H4_3 H 0.0899 0.6902 0.6076
C4_3 C 0.1234(2) 0.81755(17) 0.69480(15)
C7_3 C 0.0265(2) 0.39935(16) 0.12193(18)
C8_3 C 0.0779(2) 0.43656(18) 0.21223(18)
H7_3 H 0.1594 0.4175 0.2369
C9_3 C 0.0110(2) 0.50106(17) 0.26607(17)
H8_3 H 0.0486 0.5267 0.3275
C10_3 C 0.0919(3) 0.32414(18) 0.0623(2)
H9_3 H 0.1818 0.3280 0.0822
C11_3 C 0.0475(2) 0.21642(18) 0.07765(18)
H11_3 H 0.0620 0.1994 0.1491
C12_3 C 0.1092(2) 0.13674(16) 0.01947(17)
C13_3 C 0.1615(3) 0.05091(18) 0.06423(16)
H13_3 H 0.1602 0.0417 0.1337
Zn3_2 Zn 0.29899(2) 0.880246(16) 0.827339(15)
N2_2 N 0.22054(15) 0.98666(13) 0.91142(12)
O1_3 O 0.44652(14) 0.81079(11) 0.89515(10)
O2_3 O 0.30198(14) 0.75686(12) 0.98386(11)
N1_3 N 0.39561(16) 0.97042(12) 0.73647(12)
C1_3 C 0.4103(2) 0.75587(16) 0.96474(14)
H2_4 H 0.5766 0.6806 0.9882
H5_3 H 0.2645 0.9856 0.6253
C9_4 C 0.5110(2) 0.99894(17) 0.76607(17)
H8_4 H 0.5486 0.9733 0.8275
H10_2 H 0.0774 0.3421 0.9911
C15_2 C 0.1692(2) 0.07013(17) 0.86815(16)
H15_2 H 0.1714 0.0779 0.7986
C16_2 C 0.1136(2) 0.14511(18) 0.91837(17)
H16_2 H 0.0780 0.2029 0.8837
C14_2 C 0.2158(2) 0.97817(18) 0.00963(16)
H14_2 H 0.2514 0.9195 0.0428
Zn1_2 Zn 0.79899(2) 0.619754(16) 0.327339(15)
O1_4 O 0.94652(14) 0.68921(11) 0.39515(10)
O2_4 O 0.80198(14) 0.74314(12) 0.48386(11)
N1_4 N 0.89561(16) 0.52958(12) 0.23647(12)
C1_4 C 0.9103(2) 0.74413(16) 0.46474(14)
H1_3 H 0.9682 0.8754 0.5396
H3_3 H 0.9694 0.7315 0.6533
C5_3 C 0.8462(2) 0.49447(18) 0.14861(16)
H5_4 H 0.7645 0.5144 0.1253
C6_3 C 0.9092(3) 0.4306(2) 0.09072(18)
H6_3 H 0.8710 0.4080 0.0284
H12_3 H 0.9575 0.2136 0.0586
O5_2 O 0.71267(14) 0.72601(11) 0.24516(11)
N3_2 N 0.72054(15) 0.51334(13) 0.41142(12)
C5_4 C 0.3462(2) 0.00553(18) 0.64861(16)
C6_4 C 0.4092(3) 0.0694(2) 0.59072(18)
H6_4 H 0.3710 0.0920 0.5284
C7_4 C 0.5265(2) 0.10065(16) 0.62193(18)
C8_4 C 0.5779(2) 0.06344(18) 0.71223(18)
H7_4 H 0.6594 0.0825 0.7369
C10_4 C 0.5919(3) 0.17586(18) 0.5623(2)
H9_4 H 0.6818 0.1720 0.5822
H10_3 H 0.5774 0.1579 0.4911
C11_4 C 0.5475(2) 0.28358(18) 0.57765(18)
H11_4 H 0.5620 0.3006 0.6491
H12_4 H 0.4575 0.2864 0.5586
C12_4 C 0.6092(2) 0.36326(16) 0.51947(17)
C13_4 C 0.6615(3) 0.44909(18) 0.56423(16)
H13_4 H 0.6602 0.4583 0.6337
C14_3 C 0.7158(2) 0.52183(18) 0.50963(16)
H14_3 H 0.7514 0.5805 0.5428
C15_3 C 0.6692(2) 0.42987(17) 0.36815(16)
H15_3 H 0.6714 0.4221 0.2986
C16_3 C 0.6136(2) 0.35489(18) 0.41837(17)
H16_3 H 0.5780 0.2971 0.3837
O4_4 O 0.60035(15) 0.58986(12) 0.20400(12)
C2_4 C 0.5041(2) 0.69213(18) 0.02553(15)
H1_4 H 0.4682 0.6246 0.0396
C3_4 C 0.5439(2) 0.74712(17) 0.12227(17)
H3_4 H 0.4694 0.7685 0.1533
H4_4 H 0.5899 0.8098 0.1076
C4_4 C 0.6234(2) 0.68245(17) 0.19480(15)
C14_4 C 0.7842(2) 0.02183(18) 0.99037(16)
H14_4 H 0.7486 0.0805 0.9572
H10_4 H 0.9226 0.6579 0.0089
C15_4 C 0.8308(2) 0.92987(17) 0.13185(16)
H15_4 H 0.8286 0.9221 0.2014
C16_4 C 0.8864(2) 0.85489(18) 0.08163(17)
H16_4 H 0.9220 0.7971 0.1163
loop_
_geom_bond_atom_site_label_1
_geom_bond_atom_site_label_2
_geom_bond_site_symmetry_1
_geom_bond_site_symmetry_2
Zn1 O1 1_555 1_555
O1 C1 1_555 1_555
O2 C1 1_555 1_555
N1 Zn1 1_555 1_555
C9 N1 1_555 1_555
H8 C9 1_555 1_555
O5 Zn1 1_555 1_555
N3 Zn1 1_555 1_555
O5 C4 1_555 1_555
O4 C4 1_555 1_555
H2_2 C2 1_555 1_555
C3 C2 1_555 1_555
H4 C3 1_555 1_555
C4 C3 1_555 1_555
C8 C7 1_555 1_555
H7 C8 1_555 1_555
H8_2 C9_2 1_555 1_555
C10 C7 1_555 1_555
H9 C10 1_555 1_555
C11 C10 1_555 1_555
H11 C11 1_555 1_555
C12 C11 1_555 1_555
C13 C12 1_555 1_555
H13 C13 1_555 1_555
C8 C9_2 1_555 1_555
O3 C4_2 1_555 1_555
O4_2 C4_2 1_555 1_555
C2_2 H1 1_555 1_555
C3_2 C2_2 1_555 1_555
H3 C3_2 1_555 1_555
H4_2 C3_2 1_555 1_555
C4_2 C3_2 1_555 1_555
Zn3 O3 1_555 1_555
N2 C14 1_555 1_555
C6 C5 1_555 1_555
H6 C6 1_555 1_555
C7_2 C6 1_555 1_555
C8_2 C7_2 1_555 1_555
H7_2 C8_2 1_555 1_555
C10_2 C7_2 1_555 1_555
H9_2 C10_2 1_555 1_555
H10 C10_2 1_555 1_555
C11_2 C10_2 1_555 1_555
H11_2 C11_2 1_555 1_555
H12 C11_2 1_555 1_555
C12_2 C11_2 1_555 1_555
C13_2 C12_2 1_555 1_555
H13_2 C13_2 1_555 1_555
C14 C13_2 1_555 1_555
H14 C14 1_555 1_555
C15 N2 1_555 1_555
H15 C15 1_555 1_555
C16 C12_2 1_555 1_555
H16 C16 1_555 1_555
Zn3 N2 1_555 1_555
C15 C16 1_555 1_555
Zn3 O1_2 1_555 1_555
O1_2 C1_2 1_555 1_555
O2_2 C1_2 1_555 1_555
N1_2 Zn3 1_555 1_555
C5_2 N1_2 1_555 1_555
H5_2 C5_2 1_555 1_555
C6_2 C5_2 1_555 1_555
H6_2 C6_2 1_555 1_555
O3_2 C4_3 1_555 1_555
O4_3 C4_3 1_555 1_555
H2_3 C2_3 1_555 1_555
C3_3 C2_3 1_555 1_555
H4_3 C3_3 1_555 1_555
C4_3 C3_3 1_555 1_555
C8_3 C7_3 1_555 1_555
H7_3 C8_3 1_555 1_555
H8_3 C9_3 1_555 1_555
C10_3 C7_3 1_555 1_555
H9_3 C10_3 1_555 1_555
C11_3 C10_3 1_555 1_555
H11_3 C11_3 1_555 1_555
C12_3 C11_3 1_555 1_555
C13_3 C12_3 1_555 1_555
H13_3 C13_3 1_555 1_555
Zn3_2 O3_2 1_555 1_555
C8_3 C9_3 1_555 1_555
Zn3_2 N2_2 1_555 1_555
Zn3_2 O1_3 1_555 1_555
O1_3 C1_3 1_555 1_555
O2_3 C1_3 1_555 1_555
N1_3 Zn3_2 1_555 1_555
C9_4 N1_3 1_555 1_555
H8_4 C9_4 1_555 1_555
H15_2 C15_2 1_555 1_555
H16_2 C16_2 1_555 1_555
C15_2 C16_2 1_555 1_555
H14_2 C14_2 1_555 1_555
Zn1_2 O1_4 1_555 1_555
O1_4 C1_4 1_555 1_555
O2_4 C1_4 1_555 1_555
N1_4 Zn1_2 1_555 1_555
C5_3 N1_4 1_555 1_555
H5_4 C5_3 1_555 1_555
C6_3 C5_3 1_555 1_555
H6_3 C6_3 1_555 1_555
O5_2 Zn1_2 1_555 1_555
N3_2 Zn1_2 1_555 1_555
N3_2 C14_3 1_555 1_555
C6_4 C5_4 1_555 1_555
H6_4 C6_4 1_555 1_555
C7_4 C6_4 1_555 1_555
C8_4 C7_4 1_555 1_555
H7_4 C8_4 1_555 1_555
C10_4 C7_4 1_555 1_555
H9_4 C10_4 1_555 1_555
H10_3 C10_4 1_555 1_555
C11_4 C10_4 1_555 1_555
H11_4 C11_4 1_555 1_555
H12_4 C11_4 1_555 1_555
C12_4 C11_4 1_555 1_555
C13_4 C12_4 1_555 1_555
H13_4 C13_4 1_555 1_555
C14_3 C13_4 1_555 1_555
H14_3 C14_3 1_555 1_555
C15_3 N3_2 1_555 1_555
H15_3 C15_3 1_555 1_555
C16_3 C12_4 1_555 1_555
H16_3 C16_3 1_555 1_555
C15_3 C16_3 1_555 1_555
O5_2 C4_4 1_555 1_555
O4_4 C4_4 1_555 1_555
C2_4 H1_4 1_555 1_555
C3_4 C2_4 1_555 1_555
H3_4 C3_4 1_555 1_555
H4_4 C3_4 1_555 1_555
C4_4 C3_4 1_555 1_555
H14_4 C14_4 1_555 1_555
H15_4 C15_4 1_555 1_555
H16_4 C16_4 1_555 1_555
C15_4 C16_4 1_555 1_555

#END
