
###############################################################################
#
# This file contains modified crystal structure data generated from the
# MOF subset of the Cambridge Structural Database (CSD) v543 
# hosted by the Cambridge Crystallographic Data Centre (CCDC).
#
# This work is licensed under the Creative Commons
# Attribution-NonCommercial-ShareAlike 4.0 International License.
# To view a copy of this license, visit
# http://creativecommons.org/licenses/by-nc-sa/4.0/
# or send a letter to
# Creative Commons, PO Box 1866, Mountain View, CA 94042, USA.
#
# CIF created using the CSD Python API on 29 September 2022
# The structure has been converted into the P1 space group
# The structure has a 3D framework
# The original CSD entry VIXZUZ is in the triclinic crystal system
# The framework has been calculated to contain at least 10.0% void space
# The void calculation uses a probe of radius 1.32A, grid spacing 0.4
# H atom positions have been added when not included in the experimental data
#
###############################################################################

data_VIXZUZ
_chemical_formula_moiety         '(C38 H30 N4 O14 Zn3)n'
_symmetry_cell_setting           triclinic
_symmetry_space_group_name_H-M   'P 1'
_symmetry_Int_Tables_number      1
_space_group_name_Hall           'P 1'
loop_
_symmetry_equiv_pos_site_id
_symmetry_equiv_pos_as_xyz
1 x,y,z
_cell_length_a                   8.4358(18)
_cell_length_b                   10.074(2)
_cell_length_c                   15.079(3)
_cell_angle_alpha                71.071(5)
_cell_angle_beta                 87.931(6)
_cell_angle_gamma                67.631(6)
_cell_volume                     1115.33
loop_
_atom_site_label
_atom_site_type_symbol
_atom_site_fract_x
_atom_site_fract_y
_atom_site_fract_z
O25 O 0.0766(4) 0.1251(4) 0.9985(2)
Zn10 Zn 0.18147(7) 0.78964(6) 0.04176(4)
H1 H 0.7171 0.0082 0.5843
O1 O 0.5753(4) 0.3292(4) 0.1242(2)
O2 O 0.7685(4) 0.1313(4) 0.0905(2)
O5 O 0.8027(4) 0.0913(4) 0.8799(2)
C1 C 0.7235(6) 0.1037(5) 0.2495(3)
C5 C 0.6754(8) 0.0813(9) 0.4096(4)
H4 H 0.6141 0.1240 0.4528
C6 C 0.6369(8) 0.1640(8) 0.3147(4)
H5 H 0.5512 0.2618 0.2948
H8 H 0.8107 0.0220 0.7328
C13 C 0.6855(6) 0.1955(5) 0.1459(3)
O8 O 0.5005(5) 0.6517(4) 0.0708(2)
N2 N 0.6638(6) 0.6875(5) 0.1703(3)
C17 C 0.6126(8) 0.6029(7) 0.1393(3)
C18 C 0.7900(11) 0.6217(9) 0.2524(5)
H9 H 0.8243 0.5131 0.2760
H10 H 0.7398 0.6633 0.3005
H11 H 0.8890 0.6456 0.2347
C19 C 0.5999(8) 0.8529(7) 0.1258(5)
H12 H 0.5178 0.8847 0.0731
H13 H 0.6945 0.8819 0.1046
H14 H 0.5455 0.9009 0.1707
Zn1 Zn 0.5000 0.5000 -0.0000
N3 N 0.2192(7) 0.0875(5) 0.3937(3)
O11 O 0.1678(5) 0.6060(4) 0.1542(2)
O12 O 0.2348(4) 0.5514(4) 0.0256(2)
O15 O 0.0501(8) 0.2926(5) 0.4325(3)
C21 C 0.1508(8) 0.0429(6) 0.7198(4)
H16 H 0.0916 0.0867 0.7631
C22 C 0.1141(10) 0.1235(6) 0.6242(4)
H17 H 0.0301 0.2221 0.6040
C23 C 0.1980(7) 0.0624(6) 0.5583(3)
C26 C 0.1958(7) 0.1595(6) 0.2935(3)
C27 C 0.1931(7) 0.3041(6) 0.2518(3)
H20 H 0.1983 0.3607 0.2888
C28 C 0.1826(6) 0.3653(5) 0.1538(3)
C29 C 0.1647(6) 0.2847(5) 0.0979(3)
H21 H 0.1526 0.3271 0.0325
C30 C 0.1654(6) 0.1391(5) 0.1416(3)
C31 C 0.1843(7) 0.0766(5) 0.2386(3)
C33 C 0.1961(6) 0.5156(5) 0.1094(3)
C34 C 0.1428(5) 0.0532(5) 0.0817(3)
C35 C 0.1490(9) 0.1581(7) 0.4566(4)
Zn7 Zn 0.81853(7) 0.21036(6) 0.95824(4)
H29 H 0.67102 0.48018 0.175259
Zn1_2 Zn 0.5000 0.5000 1.0000
O16 O 0.4995(5) 0.3483(4) 0.9292(2)
N4 N 0.3362(6) 0.3125(5) 0.8297(3)
C36 C 0.3874(8) 0.3971(7) 0.8607(3)
C37 C 0.2100(11) 0.3783(9) 0.7476(5)
H23 H 0.1757 0.4869 0.7240
H24 H 0.2602 0.3367 0.6995
H25 H 0.1110 0.3544 0.7653
C38 C 0.4001(8) 0.1471(7) 0.8742(5)
H26 H 0.4822 0.1153 0.9269
H27 H 0.3055 0.1181 0.8954
H28 H 0.4545 0.0991 0.8293
O17 O 0.4247(4) 0.6708(4) 0.8758(2)
O18 O 0.8322(5) 0.3940(4) 0.8458(2)
O20 O 0.7652(4) 0.4486(4) 0.9744(2)
H30 H 0.32898 0.51982 0.824741
O6 O 0.9234(4) 0.8749(4) 0.0015(2)
O23 O 0.1973(4) 0.9087(4) 0.1201(2)
N1 N 0.7808(7) 0.9125(5) 0.6063(3)
O7 O 0.9499(8) 0.7074(5) 0.5675(3)
C2 C 0.8492(8) 0.9571(6) 0.2802(4)
H2 H 0.9084 0.9133 0.2369
C3 C 0.8859(10) 0.8765(6) 0.3758(4)
H3 H 0.9699 0.7779 0.3960
C4 C 0.8020(7) 0.9376(6) 0.4417(3)
C7 C 0.8042(7) 0.8405(6) 0.7065(3)
C8 C 0.8069(7) 0.6959(6) 0.7482(3)
H6 H 0.8017 0.6393 0.7112
C9 C 0.8174(6) 0.6347(5) 0.8462(3)
C10 C 0.8353(6) 0.7153(5) 0.9021(3)
H7 H 0.8474 0.6729 0.9675
C11 C 0.8346(6) 0.8609(5) 0.8584(3)
C12 C 0.8157(7) 0.9234(5) 0.7614(3)
C14 C 0.8039(6) 0.4844(5) 0.8906(3)
C15 C 0.8572(5) 0.9468(5) 0.9183(3)
C16 C 0.8510(9) 0.8419(7) 0.5434(4)
H15 H 0.2829 0.9918 0.4157
O10 O 0.2315(4) 0.8687(4) 0.9095(2)
C20 C 0.2765(6) 0.8963(5) 0.7505(3)
C24 C 0.3246(8) 0.9187(9) 0.5904(4)
H18 H 0.3859 0.8760 0.5472
C25 C 0.3631(8) 0.8360(8) 0.6853(4)
H19 H 0.4488 0.7382 0.7052
H22 H 0.1893 0.9780 0.2672
C32 C 0.3145(6) 0.8045(5) 0.8541(3)
loop_
_geom_bond_atom_site_label_1
_geom_bond_atom_site_label_2
_geom_bond_site_symmetry_1
_geom_bond_site_symmetry_2
O1 C13 1_555 1_555
O2 C13 1_555 1_555
H4 C5 1_555 1_555
C6 C1 1_555 1_555
H5 C6 1_555 1_555
C13 C1 1_555 1_555
O8 C17 1_555 1_555
N2 C17 1_555 1_555
C18 N2 1_555 1_555
H9 C18 1_555 1_555
H10 C18 1_555 1_555
H11 C18 1_555 1_555
C19 N2 1_555 1_555
H12 C19 1_555 1_555
H13 C19 1_555 1_555
H14 C19 1_555 1_555
Zn1 O1 1_555 1_555
O11 C33 1_555 1_555
O12 Zn1 1_555 1_555
O15 C35 1_555 1_555
C21 H16 1_555 1_555
C22 C21 1_555 1_555
H17 C22 1_555 1_555
C23 C22 1_555 1_555
C26 N3 1_555 1_555
C27 C26 1_555 1_555
H20 C27 1_555 1_555
C28 C27 1_555 1_555
C29 C28 1_555 1_555
H21 C29 1_555 1_555
C30 C29 1_555 1_555
C31 C26 1_555 1_555
C33 O12 1_555 1_555
C34 C30 1_555 1_555
C35 N3 1_555 1_555
Zn7 O5 1_555 1_555
Zn10 O8 1_555 1_555
C5 C6 1_555 1_555
O8 Zn1 1_555 1_555
O11 Zn10 1_555 1_555
O12 Zn10 1_555 1_555
C23 C35 1_555 1_555
C28 C33 1_555 1_555
C30 C31 1_555 1_555
C17 H29 1_555 1_555
O16 Zn1_2 1_555 1_555
N4 C36 1_555 1_555
C36 O16 1_555 1_555
C37 N4 1_555 1_555
H23 C37 1_555 1_555
H24 C37 1_555 1_555
H25 C37 1_555 1_555
C38 N4 1_555 1_555
H26 C38 1_555 1_555
H27 C38 1_555 1_555
H28 C38 1_555 1_555
O17 Zn1_2 1_555 1_555
O18 Zn7 1_555 1_555
O20 Zn1_2 1_555 1_555
Zn7 O16 1_555 1_555
Zn7 O20 1_555 1_555
C36 H30 1_555 1_555
O23 Zn10 1_555 1_555
O18 C14 1_555 1_555
O20 C14 1_555 1_555
O7 C16 1_555 1_555
C2 H2 1_555 1_555
C3 C2 1_555 1_555
H3 C3 1_555 1_555
C4 C3 1_555 1_555
C7 N1 1_555 1_555
C8 C7 1_555 1_555
H6 C8 1_555 1_555
C9 C8 1_555 1_555
C10 C9 1_555 1_555
H7 C10 1_555 1_555
C11 C10 1_555 1_555
C12 C7 1_555 1_555
C14 C9 1_555 1_555
C15 C11 1_555 1_555
C16 N1 1_555 1_555
O17 C32 1_555 1_555
O10 C32 1_555 1_555
H18 C24 1_555 1_555
C25 C20 1_555 1_555
H19 C25 1_555 1_555
C32 C20 1_555 1_555
C4 C16 1_555 1_555
C11 C12 1_555 1_555
C24 C25 1_555 1_555

#END
