
###############################################################################
#
# This file contains modified crystal structure data generated from the
# MOF subset of the Cambridge Structural Database (CSD) v543 
# hosted by the Cambridge Crystallographic Data Centre (CCDC).
#
# This work is licensed under the Creative Commons
# Attribution-NonCommercial-ShareAlike 4.0 International License.
# To view a copy of this license, visit
# http://creativecommons.org/licenses/by-nc-sa/4.0/
# or send a letter to
# Creative Commons, PO Box 1866, Mountain View, CA 94042, USA.
#
# CIF created using the CSD Python API on 29 September 2022
# The structure has been converted into the P1 space group
# The structure has a 3D framework
# The original CSD entry VIYBEN is in the monoclinic crystal system
# The framework has been calculated to contain at least 10.0% void space
# The void calculation uses a probe of radius 1.32A, grid spacing 0.4
# H atom positions have been added when not included in the experimental data
#
###############################################################################

data_VIYBEN
_chemical_formula_moiety         '(C488 H320 Co14 N60 O62)n'
_symmetry_cell_setting           triclinic
_symmetry_space_group_name_H-M   'P 1'
_symmetry_Int_Tables_number      1
_space_group_name_Hall           'P 1'
loop_
_symmetry_equiv_pos_site_id
_symmetry_equiv_pos_as_xyz
1 x,y,z
_cell_length_a                   31.402(6)
_cell_length_b                   21.109(4)
_cell_length_c                   31.916(6)
_cell_angle_alpha                90
_cell_angle_beta                 112.57(3)
_cell_angle_gamma                90
_cell_volume                     19535.7
loop_
_atom_site_label
_atom_site_type_symbol
_atom_site_fract_x
_atom_site_fract_y
_atom_site_fract_z
O18 O 0.00639(8) 0.10743(9) 0.54222(8)
N1 N 0.92026(10) 0.01008(11) 0.52725(10)
N6 N 0.40875(16) 0.17879(14) 0.49554(12)
H19 H 0.857608 0.024810 0.524396
C65 C 0.3756(2) 0.0141(2) 0.36738(17)
H37 H 0.357994 0.049537 0.354210
C78 C 0.3909(3) 0.1789(2) 0.45212(18)
H44 H 0.377449 0.216470 0.437959
C83 C 0.4025(2) 0.01416(17) 0.41351(16)
C97 C 0.4061(2) 0.07178(18) 0.44267(15)
C101 C 0.3900(3) 0.1286(2) 0.42470(18)
H58 H 0.378060 0.133847 0.393371
C109 C 0.4251(4) 0.1230(3) 0.5128(2)
H64 H 0.438647 0.119532 0.544187
C116 C 0.4238(4) 0.0705(3) 0.4880(2)
H68 H 0.435336 0.032593 0.502912
Co6 Co 0.93262(2) 0.10410(2) 0.51365(2)
Co11 Co 0.42204(2) 0.26370(2) 0.53591(2)
Co2 Co 0.92982(2) 0.24056(2) 0.45258(2)
Co3 Co 0.40798(2) 0.39471(2) 0.46690(2)
O3 O 0.93257(9) 0.07921(9) 0.45186(8)
O4 O 0.47285(10) 0.36783(11) 0.47853(10)
O5 O 0.42153(10) 0.42801(11) 0.53078(9)
O6 O 0.37334(8) 0.31105(10) 0.48085(8)
O7 O 0.94553(10) 0.16713(10) 0.41943(9)
O8 O 0.86483(9) 0.12733(11) 0.48878(9)
O9 O 0.40218(11) 0.71082(12) 0.88993(9)
O10 O 0.86523(9) 0.20887(11) 0.44480(9)
O11 O 0.43603(12) 0.34321(12) 0.57564(9)
O12 O 0.47494(10) 0.27721(12) 0.51500(9)
O14 O 0.47547(11) 0.69714(11) 0.93212(10)
N2 N 0.91815(11) 0.31704(12) 0.49045(10)
O15 O 0.33544(10) 0.39860(11) 0.45490(10)
N3 N 0.43348(11) 0.87429(13) 0.08031(11)
N4 N 0.41425(11) 0.48805(12) 0.44744(10)
C1 C 0.00665(12) 0.16477(14) 0.53130(11)
N5 N 0.89188(17) 0.63365(16) 0.89658(13)
C2 C 0.05017(13) 0.19613(16) 0.53598(12)
C3 C 0.90728(13) 0.88982(13) 0.55936(12)
C4 C 0.41176(13) 0.61006(14) 0.41221(12)
C5 C 0.84658(13) 0.17434(15) 0.46383(12)
C6 C 0.49079(14) 0.31571(17) 0.49507(13)
C7 C 0.89532(15) 0.47975(14) 0.56005(12)
C8 C 0.90073(14) 0.82671(14) 0.57617(13)
C9 C 0.40941(14) 0.67316(14) 0.39205(12)
C10 C 0.90178(14) 0.42278(14) 0.53635(12)
C11 C 0.95190(14) 0.96522(14) 0.53704(13)
H1 H 0.979115 0.973906 0.533017
C12 C 0.44340(14) 0.69581(17) 0.37817(13)
H2 H 0.468887 0.670539 0.381986
C13 C 0.93703(14) 0.10845(14) 0.42021(12)
C14 C 0.43129(15) 0.40166(16) 0.56789(14)
C15 C 0.33748(14) 0.34465(17) 0.47203(13)
C16 C 0.92684(17) 0.72018(15) 0.59937(15)
H3 H 0.948575 0.688493 0.603136
N7 N 0.88279(15) 0.64749(11) 0.62652(12)
C17 C 0.41621(16) 0.86516(16) 0.20743(13)
C18 C 0.94671(15) 0.90625(14) 0.55291(16)
H4 H 0.970434 0.876833 0.559409
C19 C 0.93770(16) 0.32227(15) 0.53574(14)
H5 H 0.957137 0.289926 0.551992
C20 C 0.90046(17) 0.47888(15) 0.60496(14)
H6 H 0.906912 0.440759 0.620788
C21 C 0.42271(15) 0.86689(16) 0.16386(13)
C22 C 0.89000(17) 0.70798(14) 0.60947(14)
C23 C 0.93407(16) 0.07099(16) 0.37935(14)
C24 C 0.09102(15) 0.15976(19) 0.54897(15)
H7 H 0.090820 0.117822 0.557821
C25 C 0.4414(2) 0.68830(17) 0.89605(16)
C26 C 0.93324(16) 0.77911(15) 0.58341(15)
H8 H 0.959575 0.786755 0.577518
C27 C 0.88051(16) 0.41506(17) 0.48948(14)
H9 H 0.859587 0.445237 0.472122
C28 C 0.29858(14) 0.32125(19) 0.48375(14)
N8 N 0.16703(16) 0.2848(2) 0.52414(15)
N9 N 0.39973(18) 0.85437(13) 0.33255(12)
C29 C 0.42883(18) 0.91457(16) 0.23768(14)
H10 H 0.441343 0.950728 0.230246
C30 C 0.40257(16) 0.83515(17) 0.08656(14)
H11 H 0.384157 0.810342 0.062293
C31 C 0.89019(16) 0.36356(16) 0.46896(14)
H12 H 0.876075 0.360980 0.437517
C32 C 0.92374(16) 0.00711(17) 0.37598(14)
C33 C 0.88488(16) 0.53791(14) 0.53772(13)
H14 H 0.880921 0.540035 0.507344
C34 C 0.05162(16) 0.25933(17) 0.52495(14)
H15 H 0.025194 0.283969 0.517650
C35 C 0.45638(15) 0.90507(16) 0.15795(13)
H16 H 0.476091 0.929220 0.181926
C36 C 0.44022(18) 0.75503(18) 0.35882(14)
H17 H 0.463606 0.769055 0.350003
C37 C 0.46016(15) 0.90664(16) 0.11607(13)
H18 H 0.482957 0.932137 0.113025
C38 C 0.53403(14) 0.2951(2) 0.48874(14)
C39 C 0.88107(16) 0.99483(17) 0.53206(19)
C40 C 0.93056(16) 0.37329(16) 0.55975(13)
H20 H 0.944858 0.374460 0.591225
C41 C 0.4236(2) 0.91268(16) 0.27903(14)
H21 H 0.433179 0.946815 0.298895
C42 C 0.89622(18) 0.53354(16) 0.62693(14)
H22 H 0.900117 0.531373 0.657285
C43 C 0.86239(16) 0.81420(16) 0.58615(17)
H23 H 0.840576 0.845829 0.582210
C44 C 0.39694(17) 0.83011(18) 0.12670(14)
H24 H 0.375485 0.801576 0.129232
N10 N 0.65692(18) 0.2229(2) 0.47602(17)
C45 C 0.38135(19) 0.59073(19) 0.4309(2)
H25 H 0.359545 0.618872 0.433151
N11 N 0.6681(2) 0.2586(3) 0.4553(2)
N12 N 0.19295(17) 0.24533(18) 0.52411(15)
C46 C 0.88628(16) 0.59168(14) 0.60477(13)
C47 C 0.85599(17) 0.75478(15) 0.60203(17)
H26 H 0.829591 0.746259 0.607619
C48 C 0.88025(18) 0.59266(14) 0.55958(14)
H27 H 0.872978 0.630600 0.543575
C51 C 0.13051(17) 0.2505(2) 0.53409(15)
C52 C 0.13128(16) 0.1859(2) 0.54865(16)
H29 H 0.158293 0.162252 0.557677
C53 C 0.79910(15) 0.18959(18) 0.45887(14)
C54 C 0.40431(18) 0.86007(17) 0.29059(14)
C55 C 0.4033(2) 0.79312(16) 0.35248(15)
C56 C 0.39606(18) 0.81246(17) 0.21908(14)
H30 H 0.386424 0.778425 0.199132
C57 C 0.39031(19) 0.81035(17) 0.25983(14)
H31 H 0.376759 0.774864 0.266820
C58 C 0.8812(2) 0.64675(18) 0.75836(16)
C59 C 0.09117(17) 0.2864(2) 0.52456(15)
H32 H 0.091474 0.329192 0.517815
C60 C 0.87380(16) 0.93635(18) 0.5480(2)
H33 H 0.846001 0.928331 0.551012
C61 C 0.8812(2) 0.64698(14) 0.67117(15)
C62 C 0.44604(16) 0.50850(19) 0.4341(2)
H34 H 0.470396 0.481552 0.436828
C63 C 0.29625(17) 0.2588(2) 0.49587(18)
H35 H 0.319431 0.231194 0.496144
C64 C 0.55356(18) 0.2378(2) 0.50594(19)
H36 H 0.540487 0.212727 0.521802
C66 C 0.47921(19) 0.60103(18) 0.86880(17)
C67 C 0.4386(2) 0.4430(2) 0.60812(15)
C68 C 0.4457(2) 0.6486(2) 0.85886(17)
C69 C 0.3831(2) 0.5301(2) 0.4462(2)
H38 H 0.360454 0.517670 0.456603
C70 C 0.37196(19) 0.71382(19) 0.38556(17)
H39 H 0.348545 0.700289 0.394506
C71 C 0.8832(2) 0.64282(18) 0.80527(16)
C72 C 0.44558(17) 0.5676(2) 0.4162(2)
H40 H 0.468973 0.578861 0.406555
C73 C 0.7137(2) 0.2278(3) 0.4571(2)
C74 C 0.7777(2) 0.2451(3) 0.4370(2)
H41 H 0.792521 0.270992 0.423209
C75 C 0.4010(2) 0.90816(17) 0.35984(16)
C76 C 0.55382(18) 0.3338(2) 0.4668(2)
H42 H 0.541735 0.373629 0.456177
C77 C 0.3687(2) 0.77270(19) 0.36650(19)
H43 H 0.343718 0.798753 0.362962
C79 C 0.61220(18) 0.2542(3) 0.4784(2)
C80 C 0.4437(2) 0.4152(2) 0.65014(17)
C81 C 0.3746(2) 0.96179(19) 0.34056(16)
H45 H 0.356252 0.962440 0.309727
C82 C 0.8467(2) 0.6185(3) 0.72275(18)
H46 H 0.822867 0.598059 0.727741
C84 C 0.5927(2) 0.2171(3) 0.4998(2)
H47 H 0.605216 0.177579 0.510618
C85 C 0.8469(2) 0.6198(3) 0.67963(17)
H48 H 0.822575 0.601338 0.655882
C86 C 0.2312(2) 0.2752(2) 0.51069(18)
C87 C 0.4461(3) 0.4543(3) 0.6862(2)
C88 C 0.5935(2) 0.3105(3) 0.4609(2)
H49 H 0.606884 0.334459 0.444702
C89 C 0.26650(18) 0.3624(3) 0.4865(2)
H50 H 0.267460 0.405027 0.479553
C91 C 0.9440(3) 0.1000(2) 0.34479(17)
H51 H 0.951367 0.142913 0.346839
C92 C 0.4262(3) 0.9087(2) 0.40484(17)
H52 H 0.444438 0.873707 0.418095
C93 C 0.26190(18) 0.2358(3) 0.50738(17)
H53 H 0.260210 0.192776 0.512831
C95 C 0.7325(2) 0.1715(3) 0.4769(2)
H54 H 0.716631 0.146329 0.489924
C96 C 0.9302(2) 0.0034(3) 0.30376(16)
C98 C 0.77509(18) 0.1510(3) 0.4778(2)
H55 H 0.787263 0.112280 0.490782
C99 C 0.4259(3) 0.96020(18) 0.43214(18)
H56 H 0.441770 0.957632 0.463400
C100 C 0.8579(2) 0.6053(4) 0.8626(2)
H57 H 0.836208 0.581972 0.869442
C102 C 0.4827(2) 0.5645(2) 0.83363(19)
N15 N 0.4604(2) 0.5387(2) 0.75542(19)
C103 C 0.7339(2) 0.2621(3) 0.4356(3)
H59 H 0.719086 0.297730 0.419356
C104 C 0.8533(3) 0.6089(4) 0.8173(2)
H60 H 0.829181 0.587535 0.795147
C107 C 0.4396(3) 0.5101(2) 0.6046(2)
C108 C 0.2306(2) 0.3385(3) 0.5006(3)
H63 H 0.207995 0.365225 0.502737
N16 N 0.4459(3) 0.5626(3) 0.7161(2)
C110 C 0.9160(3) 0.6735(3) 0.8832(2)
H65 H 0.936872 0.699771 0.904834
C111 C 0.4545(3) 0.5794(3) 0.7892(2)
C112 C 0.9429(3) 0.0655(3) 0.3075(2)
H66 H 0.950868 0.084544 0.285271
C113 C 0.4164(3) 0.6602(3) 0.8143(2)
C114 C 0.4223(4) 0.6278(4) 0.7798(3)
C117 C 0.4448(3) 0.5201(3) 0.6812(2)
C118 C 0.9148(4) 0.6725(5) 0.7482(3)
H69 H 0.939668 0.690997 0.771292
C119 C 0.9120(3) 0.6786(3) 0.8395(2)
H70 H 0.930247 0.708465 0.832724
C121 C 0.9142(4) 0.6727(5) 0.7049(2)
H72 H 0.938305 0.692000 0.699667
C122 C 0.4417(4) 0.5474(3) 0.6407(3)
Co7 Co 0.43262(2) 0.89590(2) 0.01365(2)
Co9 Co 0.42982(2) 0.75944(2) 0.95258(2)
Co10 Co 0.90798(2) 0.60529(2) 0.96690(2)
O17 O 0.96899(8) 0.19533(9) 0.51447(7)
O19 O 0.90218(11) 0.28918(12) 0.38993(9)
O20 O 0.45612(11) 0.20783(12) 0.59555(9)
O21 O 0.97547(11) 0.30286(11) 0.43212(10)
O22 O 0.38257(12) 0.23017(16) 0.57369(11)
N18 N 0.93348(11) 0.12571(13) 0.58031(11)
N19 N 0.39188(17) 0.36635(16) 0.39658(13)
H73 H 0.502482 0.592464 0.903762
H74 H 0.445724 0.363935 0.654256
H75 H 0.449 0.433448 0.718393
H76 H 0.506995 0.52526 0.84095
H77 H 0.438705 0.531943 0.573361
H78 H 0.440917 0.598775 0.637381
H79 H 0.388827 0.694944 0.806821
H80 H 0.401568 0.640097 0.744708
O13 O 0.95612(11) 0.79217(12) 0.09555(9)
O16 O 0.88257(12) 0.76983(16) 0.07369(11)
H13 H 0.919198 0.987072 0.399887
C49 C 0.9190(2) 0.7941(2) 0.10140(17)
C50 C 0.92001(17) 0.97239(19) 0.33844(15)
H28 H 0.911132 0.930064 0.335699
N13 N 0.9092(2) 0.9275(3) 0.25430(19)
N14 N 0.9325(2) 0.9716(3) 0.26287(19)
C90 C 0.9172(2) 0.8293(3) 0.14153(16)
C94 C 0.9118(3) 0.8939(3) 0.2142(2)
C105 C 0.8775(3) 0.8579(4) 0.1902(2)
H61 H 0.852371 0.853549 0.198553
C106 C 0.8779(3) 0.8261(4) 0.1525(2)
H62 H 0.852276 0.802706 0.134456
C115 C 0.9523(2) 0.8670(4) 0.1657(3)
H67 H 0.977855 0.870701 0.157890
C120 C 0.9507(3) 0.9006(4) 0.2028(3)
H71 H 0.974944 0.927095 0.219649
Co12 Co 0.92204(2) 0.73630(2) 0.03591(2)
H13_2 H 0.419198 0.012928 0.899887
C49_2 C 0.4190(2) 0.2059(2) 0.60140(17)
C50_2 C 0.42001(17) 0.02761(19) 0.83844(15)
H28_2 H 0.411132 0.069936 0.835699
N13_2 N 0.4092(2) 0.0725(3) 0.75430(19)
N14_2 N 0.4325(2) 0.0284(3) 0.76287(19)
C90_2 C 0.4172(2) 0.1707(3) 0.64153(16)
C94_2 C 0.4118(3) 0.1061(3) 0.7142(2)
C105_2 C 0.3775(3) 0.1421(4) 0.6902(2)
H61_2 H 0.352371 0.146451 0.698553
C106_2 C 0.3779(3) 0.1739(4) 0.6525(2)
H62_2 H 0.352276 0.197294 0.634456
C115_2 C 0.4523(2) 0.1330(4) 0.6657(3)
H67_2 H 0.477855 0.129299 0.657890
C120_2 C 0.4507(3) 0.0994(4) 0.7028(3)
H71_2 H 0.474944 0.072905 0.719649
C3_2 C 0.40728(13) 0.11018(13) 0.05936(12)
C7_2 C 0.39532(15) 0.52025(14) 0.06005(12)
C8_2 C 0.40073(14) 0.17329(14) 0.07617(13)
C10_2 C 0.40178(14) 0.57722(14) 0.03635(12)
C11_2 C 0.45190(14) 0.03478(14) 0.03704(13)
H1_2 H 0.479115 0.026094 0.033017
C16_2 C 0.42684(17) 0.27982(15) 0.09937(15)
H3_2 H 0.448575 0.311507 0.103136
N7_2 N 0.38279(15) 0.35251(11) 0.12652(12)
C18_2 C 0.44671(15) 0.09375(14) 0.05291(16)
H4_2 H 0.470434 0.123167 0.059409
C19_2 C 0.43770(16) 0.67773(15) 0.03574(14)
H5_2 H 0.457137 0.710074 0.051992
C20_2 C 0.40046(17) 0.52112(15) 0.10496(14)
H6_2 H 0.406912 0.559241 0.120788
C22_2 C 0.39000(17) 0.29202(14) 0.10947(14)
C26_2 C 0.43324(16) 0.22089(15) 0.08341(15)
H8_2 H 0.459575 0.213245 0.077518
C33_2 C 0.38488(16) 0.46209(14) 0.03772(13)
H14_2 H 0.380921 0.459965 0.007344
C39_2 C 0.38107(16) 0.00517(17) 0.03206(19)
C40_2 C 0.43056(16) 0.62671(16) 0.05975(13)
H20_2 H 0.444858 0.625540 0.091225
C42_2 C 0.39622(18) 0.46646(16) 0.12693(14)
H22_2 H 0.400117 0.468627 0.157285
C43_2 C 0.36239(16) 0.18580(16) 0.08615(17)
H23_2 H 0.340576 0.154171 0.082210
C46_2 C 0.38628(16) 0.40832(14) 0.10477(13)
C47_2 C 0.35599(17) 0.24522(15) 0.10203(17)
H26_2 H 0.329591 0.253741 0.107619
C48_2 C 0.38025(18) 0.40734(14) 0.05958(14)
H27_2 H 0.372978 0.369400 0.043575
C58_2 C 0.3812(2) 0.35325(18) 0.25836(16)
C60_2 C 0.37380(16) 0.06365(18) 0.0480(2)
H33_2 H 0.346001 0.071669 0.051012
C61_2 C 0.3812(2) 0.35302(14) 0.17117(15)
C64_2 C 0.05356(18) 0.7622(2) 0.00594(19)
H36_2 H 0.040487 0.787273 0.021802
C71_2 C 0.3832(2) 0.35718(18) 0.30527(16)
C82_2 C 0.3467(2) 0.3815(3) 0.22275(18)
H46_2 H 0.322867 0.401941 0.227741
H47_2 H 0.105216 0.822421 0.010618
C85_2 C 0.3469(2) 0.3802(3) 0.17963(17)
H48_2 H 0.322575 0.398662 0.155882
C100_2 C 0.3579(2) 0.3947(4) 0.3626(2)
H57_2 H 0.336208 0.418028 0.369442
C104_2 C 0.3533(3) 0.3911(4) 0.3173(2)
H60_2 H 0.329181 0.412465 0.295147
C110_2 C 0.4160(3) 0.3265(3) 0.3832(2)
H65_2 H 0.436872 0.300229 0.404834
C118_2 C 0.4148(4) 0.3275(5) 0.2482(3)
H69_2 H 0.439668 0.309003 0.271292
C119_2 C 0.4120(3) 0.3214(3) 0.3395(2)
H70_2 H 0.430247 0.291535 0.332724
C121_2 C 0.4142(4) 0.3273(5) 0.2049(2)
H72_2 H 0.438305 0.308000 0.199667
O17_2 O 0.46899(8) 0.80467(9) 0.01447(7)
O18_2 O 0.50639(8) 0.89257(9) 0.04222(8)
N17 N 0.42026(10) 0.98992(11) 0.02725(10)
H73_2 H 0.00248226 0.407536 0.403762
H76_2 H 0.006995 0.47474 0.34095
O3_2 O 0.43257(9) 0.92079(9) 0.95186(8)
O7_2 O 0.44553(10) 0.83287(10) 0.91943(9)
O8_2 O 0.36483(9) 0.87267(11) 0.98878(9)
O10_2 O 0.36523(9) 0.79113(11) 0.94480(9)
N2_2 N 0.41815(11) 0.68296(12) 0.99045(10)
C5_2 C 0.34658(13) 0.82566(15) 0.96383(12)
C13_2 C 0.43703(14) 0.89155(14) 0.92021(12)
C23_2 C 0.43407(16) 0.92901(16) 0.87935(14)
C27_2 C 0.38051(16) 0.58494(17) 0.98948(14)
H9_2 H 0.359587 0.554763 0.972122
C31_2 C 0.39019(16) 0.63644(16) 0.96896(14)
H12_2 H 0.376075 0.639020 0.937517
C32_2 C 0.42374(16) 0.99289(17) 0.87598(14)
C38_2 C 0.03403(14) 0.7049(2) 0.98874(14)
N10_2 N 0.15692(18) 0.7771(2) 0.97602(17)
N11_2 N 0.1681(2) 0.7414(3) 0.9553(2)
C53_2 C 0.29910(15) 0.81041(18) 0.95887(14)
C73_2 C 0.2137(2) 0.7722(3) 0.9571(2)
C74_2 C 0.2777(2) 0.7549(3) 0.9370(2)
H41_2 H 0.292521 0.729008 0.923209
C76_2 C 0.05382(18) 0.6662(2) 0.9668(2)
H42_2 H 0.041735 0.626371 0.956177
C79_2 C 0.11220(18) 0.7458(3) 0.9784(2)
C84_2 C 0.0927(2) 0.7829(3) 0.9998(2)
C88_2 C 0.0935(2) 0.6895(3) 0.9609(2)
H49_2 H 0.106884 0.665541 0.944702
C91_2 C 0.4440(3) 0.9000(2) 0.84479(17)
H51_2 H 0.451367 0.857087 0.846839
C95_2 C 0.2325(2) 0.8285(3) 0.9769(2)
H54_2 H 0.216631 0.853671 0.989924
C96_2 C 0.4302(2) 0.9966(3) 0.80376(16)
C98_2 C 0.27509(18) 0.8490(3) 0.9778(2)
H55_2 H 0.287263 0.887720 0.990782
C103_2 C 0.2339(2) 0.7379(3) 0.9356(3)
H59_2 H 0.219086 0.702270 0.919356
C112_2 C 0.4429(3) 0.9345(3) 0.8075(2)
H66_2 H 0.450868 0.915456 0.785271
H19_2 H 0.357608 0.975190 0.024396
O5_2 O 0.92153(10) 0.57199(11) 0.03078(9)
O11_2 O 0.93603(12) 0.65679(12) 0.07564(9)
O12_2 O 0.97494(10) 0.72279(12) 0.01500(9)
C1_2 C 0.50665(12) 0.83523(14) 0.03130(11)
C2_2 C 0.55017(13) 0.80387(16) 0.03598(12)
C14_2 C 0.93129(15) 0.59834(16) 0.06789(14)
C24_2 C 0.59102(15) 0.84024(19) 0.04897(15)
H7_2 H 0.590820 0.882178 0.057821
C25_2 C 0.9414(2) 0.31170(17) 0.39605(16)
N8_2 N 0.66703(16) 0.7152(2) 0.02414(15)
C34_2 C 0.55162(16) 0.74067(17) 0.02495(14)
H15_2 H 0.525194 0.716031 0.017650
N12_2 N 0.69295(17) 0.75467(18) 0.02411(15)
C51_2 C 0.63051(17) 0.7495(2) 0.03409(15)
C52_2 C 0.63128(16) 0.8141(2) 0.04865(16)
H29_2 H 0.658293 0.837748 0.057677
C59_2 C 0.59117(17) 0.7136(2) 0.02456(15)
H32_2 H 0.591474 0.670808 0.017815
C66_2 C 0.97921(19) 0.39897(18) 0.36880(17)
C67_2 C 0.9386(2) 0.5570(2) 0.10812(15)
C68_2 C 0.9457(2) 0.3514(2) 0.35886(17)
C80_2 C 0.9437(2) 0.5848(2) 0.15014(17)
C86_2 C 0.7312(2) 0.7248(2) 0.01069(18)
C87_2 C 0.9461(3) 0.5457(3) 0.1862(2)
C93_2 C 0.76190(18) 0.7642(3) 0.00738(17)
H53_2 H 0.760210 0.807224 0.012831
C102_2 C 0.9827(2) 0.4355(2) 0.33363(19)
N15_2 N 0.9604(2) 0.4613(2) 0.25542(19)
C107_2 C 0.9396(3) 0.4899(2) 0.1046(2)
C108_2 C 0.7306(2) 0.6615(3) 0.0006(3)
H63_2 H 0.707995 0.634775 0.002737
N16_2 N 0.9459(3) 0.4374(3) 0.2161(2)
C111_2 C 0.9545(3) 0.4206(3) 0.2892(2)
C113_2 C 0.9164(3) 0.3398(3) 0.3143(2)
C114_2 C 0.9223(4) 0.3722(4) 0.2798(3)
C117_2 C 0.9448(3) 0.4799(3) 0.1812(2)
C122_2 C 0.9417(4) 0.4526(3) 0.1407(3)
H74_2 H 0.945724 0.636065 0.154256
H75_2 H 0.949 0.566552 0.218393
H77_2 H 0.938705 0.468057 0.0733611
H78_2 H 0.940917 0.401225 0.137381
H79_2 H 0.888827 0.305056 0.306821
H80_2 H 0.901568 0.359903 0.244708
O4_2 O 0.97285(10) 0.63217(11) 0.97853(10)
O6_2 O 0.87334(8) 0.68895(10) 0.98085(8)
O15_2 O 0.83544(10) 0.60140(11) 0.95490(10)
N4_2 N 0.91425(11) 0.51195(12) 0.94744(10)
C4_2 C 0.91176(13) 0.38994(14) 0.91221(12)
C6_2 C 0.99079(14) 0.68429(17) 0.99507(13)
C9_2 C 0.90941(14) 0.32684(14) 0.89205(12)
C12_2 C 0.94340(14) 0.30419(17) 0.87817(13)
H2_2 H 0.968887 0.329461 0.881986
C15_2 C 0.83748(14) 0.65535(17) 0.97203(13)
C17_2 C 0.91621(16) 0.13484(16) 0.70743(13)
C21_2 C 0.92271(15) 0.13311(16) 0.66386(13)
C28_2 C 0.79858(14) 0.67875(19) 0.98375(14)
N9_2 N 0.89973(18) 0.14563(13) 0.83255(12)
C29_2 C 0.92883(18) 0.08543(16) 0.73768(14)
H10_2 H 0.941343 0.049272 0.730246
C30_2 C 0.90257(16) 0.16485(17) 0.58656(14)
H11_2 H 0.884157 0.189658 0.562293
C35_2 C 0.95638(15) 0.09493(16) 0.65795(13)
H16_2 H 0.976091 0.070780 0.681926
C36_2 C 0.94022(18) 0.24497(18) 0.85882(14)
H17_2 H 0.963606 0.230945 0.850003
C37_2 C 0.96016(15) 0.09336(16) 0.61607(13)
H18_2 H 0.982957 0.067863 0.613025
C41_2 C 0.9236(2) 0.08732(16) 0.77903(14)
H21_2 H 0.933179 0.053185 0.798895
C44_2 C 0.89694(17) 0.16989(18) 0.62670(14)
H24_2 H 0.875485 0.198424 0.629232
C45_2 C 0.88135(19) 0.40927(19) 0.9309(2)
H25_2 H 0.859545 0.381128 0.933151
C54_2 C 0.90431(18) 0.13993(17) 0.79059(14)
C55_2 C 0.9033(2) 0.20688(16) 0.85248(15)
C56_2 C 0.89606(18) 0.18754(17) 0.71908(14)
H30_2 H 0.886424 0.221575 0.699132
C57_2 C 0.89031(19) 0.18965(17) 0.75983(14)
H31_2 H 0.876759 0.225136 0.766820
C62_2 C 0.94604(16) 0.49150(19) 0.9341(2)
H34_2 H 0.970396 0.518448 0.936828
C63_2 C 0.79625(17) 0.7412(2) 0.99587(18)
H35_2 H 0.819431 0.768806 0.996144
C69_2 C 0.8831(2) 0.4699(2) 0.9462(2)
H38_2 H 0.860454 0.482330 0.956603
C70_2 C 0.87196(19) 0.28618(19) 0.88556(17)
H39_2 H 0.848545 0.299711 0.894506
C72_2 C 0.94558(17) 0.4324(2) 0.9162(2)
H40_2 H 0.968973 0.421139 0.906555
C75_2 C 0.9010(2) 0.09184(17) 0.85984(16)
C77_2 C 0.8687(2) 0.22730(19) 0.86650(19)
H43_2 H 0.843718 0.201247 0.862962
C81_2 C 0.8746(2) 0.03821(19) 0.84056(16)
H45_2 H 0.856252 0.037560 0.809727
C89_2 C 0.76650(18) 0.6376(3) 0.9865(2)
H50_2 H 0.767460 0.594973 0.979553
C92_2 C 0.9262(3) 0.0913(2) 0.90484(17)
H52_2 H 0.944438 0.126293 0.918095
C99_2 C 0.9259(3) 0.03980(18) 0.93214(18)
H56_2 H 0.941770 0.042368 0.963400
N20 N 0.90875(16) 0.82121(14) 0.99554(12)
C109_2 C 0.9251(4) 0.8770(3) 0.0128(2)
H64_2 H 0.938647 0.880468 0.044187
H68_2 H 0.935336 0.967407 0.002912
C65_2 C 0.8756(2) 0.9859(2) 0.86738(17)
H37_2 H 0.857994 0.950463 0.854210
C78_2 C 0.8909(3) 0.8211(2) 0.95212(18)
H44_2 H 0.877449 0.783530 0.937959
C83_2 C 0.9025(2) 0.98584(17) 0.91351(16)
C97_2 C 0.9061(2) 0.92822(18) 0.94267(15)
C101_2 C 0.8900(3) 0.8714(2) 0.92470(18)
H58_2 H 0.878060 0.866153 0.893371
C116_2 C 0.9238(4) 0.9295(3) 0.9880(2)
N6_2 N 0.09125(16) 0.17879(14) 0.00446(12)
C65_3 C 0.1244(2) 0.0141(2) 0.13262(17)
H37_3 H 0.142006 0.049537 0.145790
C78_3 C 0.1091(3) 0.1789(2) 0.04788(18)
H44_3 H 0.122551 0.216470 0.062041
C83_3 C 0.0975(2) 0.01416(17) 0.08649(16)
C97_3 C 0.0939(2) 0.07178(18) 0.05733(15)
C101_3 C 0.1100(3) 0.1286(2) 0.07530(18)
H58_3 H 0.121940 0.133847 0.106629
C116_3 C 0.0762(4) 0.0705(3) 0.0120(2)
C109_3 C 0.0749(4) 0.1230(3) 0.9872(2)
H64_3 H 0.061353 0.119532 0.955813
H68_3 H 0.064664 0.032593 0.997088
Co11_2 Co 0.07796(2) 0.26370(2) 0.96409(2)
Co3_2 Co 0.09202(2) 0.39471(2) 0.03310(2)
O4_3 O 0.02715(10) 0.36783(11) 0.02147(10)
O6_3 O 0.12666(8) 0.31105(10) 0.01915(8)
O15_3 O 0.16456(10) 0.39860(11) 0.04510(10)
N3_2 N 0.06652(11) 0.87429(13) 0.41969(11)
N4_3 N 0.08575(11) 0.48805(12) 0.05256(10)
C4_3 C 0.08824(13) 0.61006(14) 0.08779(12)
C6_3 C 0.00921(14) 0.31571(17) 0.00493(13)
C9_3 C 0.09059(14) 0.67316(14) 0.10795(12)
C12_3 C 0.05660(14) 0.69581(17) 0.12183(13)
H2_3 H 0.031113 0.670539 0.118014
C15_3 C 0.16252(14) 0.34465(17) 0.02797(13)
C17_3 C 0.08379(16) 0.86516(16) 0.29257(13)
C21_3 C 0.07729(15) 0.86689(16) 0.33614(13)
C28_3 C 0.20142(14) 0.32125(19) 0.01625(14)
N9_3 N 0.10027(18) 0.85437(13) 0.16745(12)
C29_3 C 0.07117(18) 0.91457(16) 0.26232(14)
H10_3 H 0.058657 0.950728 0.269754
C30_3 C 0.09743(16) 0.83515(17) 0.41344(14)
H11_3 H 0.115843 0.810342 0.437707
C35_3 C 0.04362(15) 0.90507(16) 0.34205(13)
H16_3 H 0.023909 0.929220 0.318074
C36_3 C 0.05978(18) 0.75503(18) 0.14118(14)
H17_3 H 0.036394 0.769055 0.149997
C37_3 C 0.03984(15) 0.90664(16) 0.38393(13)
H18_3 H 0.017043 0.932137 0.386975
C41_3 C 0.0764(2) 0.91268(16) 0.22097(14)
H21_3 H 0.066821 0.946815 0.201105
C44_3 C 0.10306(17) 0.83011(18) 0.37330(14)
H24_3 H 0.124515 0.801576 0.370768
C45_3 C 0.11865(19) 0.59073(19) 0.0691(2)
H25_3 H 0.140455 0.618872 0.066849
C54_3 C 0.09569(18) 0.86007(17) 0.20941(14)
C55_3 C 0.0967(2) 0.79312(16) 0.14752(15)
C56_3 C 0.10394(18) 0.81246(17) 0.28092(14)
H30_3 H 0.113576 0.778425 0.300868
C57_3 C 0.10969(19) 0.81035(17) 0.24017(14)
H31_3 H 0.123241 0.774864 0.233180
C62_3 C 0.05396(16) 0.50850(19) 0.0659(2)
H34_3 H 0.029604 0.481552 0.063172
C63_3 C 0.20375(17) 0.2588(2) 0.00413(18)
H35_3 H 0.180569 0.231194 0.003856
C69_3 C 0.1169(2) 0.5301(2) 0.0538(2)
H38_3 H 0.139546 0.517670 0.043397
C70_3 C 0.12804(19) 0.71382(19) 0.11444(17)
H39_3 H 0.151455 0.700289 0.105494
C72_3 C 0.05442(17) 0.5676(2) 0.0838(2)
H40_3 H 0.031027 0.578861 0.093445
C75_3 C 0.0990(2) 0.90816(17) 0.14016(16)
C77_3 C 0.1313(2) 0.77270(19) 0.13350(19)
H43_3 H 0.156282 0.798753 0.137038
C81_3 C 0.1254(2) 0.96179(19) 0.15944(16)
H45_3 H 0.143748 0.962440 0.190273
C89_3 C 0.23350(18) 0.3624(3) 0.0135(2)
H50_3 H 0.232540 0.405027 0.020447
C92_3 C 0.0738(3) 0.9087(2) 0.09516(17)
H52_3 H 0.055562 0.873707 0.081905
C99_3 C 0.0741(3) 0.96020(18) 0.06786(18)
H56_3 H 0.058230 0.957632 0.036600
Co7_2 Co 0.06738(2) 0.89590(2) 0.48635(2)
Co8 Co 0.57018(2) 0.24056(2) 0.04742(2)
N19_2 N 0.10812(17) 0.36635(16) 0.10342(13)
O1 O 0.53101(8) 0.19533(9) 0.98553(7)
O2 O 0.49361(8) 0.10743(9) 0.95778(8)
O5_3 O 0.07847(10) 0.42801(11) 0.96922(9)
O9_2 O 0.09782(11) 0.71082(12) 0.61007(9)
O11_3 O 0.06397(12) 0.34321(12) 0.92436(9)
O12_3 O 0.02506(10) 0.27721(12) 0.98500(9)
O14_2 O 0.02453(11) 0.69714(11) 0.56788(10)
C1_3 C 0.49335(12) 0.16477(14) 0.96870(11)
C2_3 C 0.44983(13) 0.19613(16) 0.96402(12)
C14_3 C 0.06871(15) 0.40166(16) 0.93211(14)
C24_3 C 0.40898(15) 0.15976(19) 0.95103(15)
H7_3 H 0.409180 0.117822 0.942179
C25_3 C 0.0586(2) 0.68830(17) 0.60395(16)
N8_3 N 0.33297(16) 0.2848(2) 0.97586(15)
C34_3 C 0.44838(16) 0.25933(17) 0.97505(14)
H15_3 H 0.474806 0.283969 0.982350
N12_3 N 0.30705(17) 0.24533(18) 0.97589(15)
C51_3 C 0.36949(17) 0.2505(2) 0.96591(15)
C52_3 C 0.36872(16) 0.1859(2) 0.95135(16)
H29_3 H 0.341707 0.162252 0.942323
C59_3 C 0.40883(17) 0.2864(2) 0.97544(15)
H32_3 H 0.408526 0.329192 0.982185
C66_3 C 0.02079(19) 0.60103(18) 0.63120(17)
C67_3 C 0.0614(2) 0.4430(2) 0.89188(15)
C68_3 C 0.0543(2) 0.6486(2) 0.64114(17)
C80_3 C 0.0563(2) 0.4152(2) 0.84986(17)
C86_3 C 0.2688(2) 0.2752(2) 0.98931(18)
C87_3 C 0.0539(3) 0.4543(3) 0.8138(2)
C93_3 C 0.23810(18) 0.2358(3) 0.99262(17)
H53_3 H 0.239790 0.192776 0.987169
C102_3 C 0.0173(2) 0.5645(2) 0.66637(19)
N15_3 N 0.0396(2) 0.5387(2) 0.74458(19)
C107_3 C 0.0604(3) 0.5101(2) 0.8954(2)
C108_3 C 0.2694(2) 0.3385(3) 0.9994(3)
H63_3 H 0.292005 0.365225 0.997263
N16_3 N 0.0541(3) 0.5626(3) 0.7839(2)
C111_3 C 0.0455(3) 0.5794(3) 0.7108(2)
C113_3 C 0.0836(3) 0.6602(3) 0.6857(2)
C114_3 C 0.0777(4) 0.6278(4) 0.7202(3)
C117_3 C 0.0552(3) 0.5201(3) 0.8188(2)
C122_3 C 0.0583(4) 0.5474(3) 0.8593(3)
Co5 Co 0.56738(2) 0.10410(2) 0.98635(2)
Co9_2 Co 0.07018(2) 0.75944(2) 0.54742(2)
O20_2 O 0.04388(11) 0.20783(12) 0.90445(9)
O22_2 O 0.11743(12) 0.23017(16) 0.92631(11)
H74_3 H 0.0542764 0.363935 0.845744
H75_3 H 0.0510001 0.433448 0.781607
H77_3 H 0.0612955 0.531943 0.926639
H78_3 H 0.0590828 0.598775 0.862619
H79_3 H 0.111173 0.694944 0.693179
H80_3 H 0.0984321 0.640097 0.755292
N1_2 N 0.57974(10) 0.01008(11) 0.97275(10)
H19_3 H 0.642392 0.024810 0.975604
O3_3 O 0.56743(9) 0.07921(9) 0.04814(8)
O7_3 O 0.55447(10) 0.16713(10) 0.08057(9)
O8_3 O 0.63517(9) 0.12733(11) 0.01122(9)
O10_3 O 0.63477(9) 0.20887(11) 0.05520(9)
N2_3 N 0.58185(11) 0.31704(12) 0.00955(10)
C5_3 C 0.65342(13) 0.17434(15) 0.03617(12)
C13_3 C 0.56297(14) 0.10845(14) 0.07979(12)
C23_3 C 0.56593(16) 0.07099(16) 0.12065(14)
C27_3 C 0.61949(16) 0.41506(17) 0.01052(14)
H9_3 H 0.640413 0.445237 0.027878
C31_3 C 0.60981(16) 0.36356(16) 0.03104(14)
H12_3 H 0.623925 0.360980 0.062483
C32_3 C 0.57626(16) 0.00711(17) 0.12402(14)
C38_3 C 0.96597(14) 0.2951(2) 0.01126(14)
N10_3 N 0.84308(18) 0.2229(2) 0.02398(17)
N11_3 N 0.8319(2) 0.2586(3) 0.0447(2)
C53_3 C 0.70090(15) 0.18959(18) 0.04113(14)
C73_3 C 0.7863(2) 0.2278(3) 0.0429(2)
C74_3 C 0.7223(2) 0.2451(3) 0.0630(2)
H41_3 H 0.707479 0.270992 0.076791
C76_3 C 0.94618(18) 0.3338(2) 0.0332(2)
H42_3 H 0.958265 0.373629 0.043823
C79_3 C 0.88780(18) 0.2542(3) 0.0216(2)
C84_3 C 0.9073(2) 0.2171(3) 0.0002(2)
C88_3 C 0.9065(2) 0.3105(3) 0.0391(2)
H49_3 H 0.893116 0.334459 0.055298
C91_3 C 0.5560(3) 0.1000(2) 0.15521(17)
H51_3 H 0.548633 0.142913 0.153161
C95_3 C 0.7675(2) 0.1715(3) 0.0231(2)
H54_3 H 0.783369 0.146329 0.010076
C96_3 C 0.5698(2) 0.0034(3) 0.19624(16)
C98_3 C 0.72491(18) 0.1510(3) 0.0222(2)
H55_3 H 0.712737 0.112280 0.009218
C103_3 C 0.7661(2) 0.2621(3) 0.0644(3)
H59_3 H 0.780914 0.297730 0.080644
C112_3 C 0.5571(3) 0.0655(3) 0.1925(2)
H66_3 H 0.549132 0.084544 0.214729
O19_2 O 0.59782(11) 0.28918(12) 0.11007(9)
O21_2 O 0.52453(11) 0.30286(11) 0.06788(10)
N5_2 N 0.60812(17) 0.63365(16) 0.60342(13)
C3_3 C 0.59272(13) 0.88982(13) 0.94064(12)
C7_3 C 0.60468(15) 0.47975(14) 0.93995(12)
C8_3 C 0.59927(14) 0.82671(14) 0.92383(13)
C10_3 C 0.59822(14) 0.42278(14) 0.96365(12)
C11_3 C 0.54810(14) 0.96522(14) 0.96296(13)
H1_3 H 0.520885 0.973906 0.966983
C16_3 C 0.57316(17) 0.72018(15) 0.90063(15)
H3_3 H 0.551425 0.688493 0.896864
N7_3 N 0.61721(15) 0.64749(11) 0.87348(12)
C18_3 C 0.55329(15) 0.90625(14) 0.94709(16)
H4_3 H 0.529566 0.876833 0.940591
C19_3 C 0.56230(16) 0.32227(15) 0.96426(14)
H5_3 H 0.542863 0.289926 0.948008
C20_3 C 0.59954(17) 0.47888(15) 0.89504(14)
H6_3 H 0.593088 0.440759 0.879212
C22_3 C 0.61000(17) 0.70798(14) 0.89053(14)
C26_3 C 0.56676(16) 0.77911(15) 0.91659(15)
H8_3 H 0.540425 0.786755 0.922482
C33_3 C 0.61512(16) 0.53791(14) 0.96228(13)
H14_3 H 0.619079 0.540035 0.992656
C39_3 C 0.61893(16) 0.99483(17) 0.96794(19)
C40_3 C 0.56944(16) 0.37329(16) 0.94025(13)
H20_3 H 0.555142 0.374460 0.908775
C42_3 C 0.60378(18) 0.53354(16) 0.87307(14)
H22_3 H 0.599883 0.531373 0.842715
C43_3 C 0.63761(16) 0.81420(16) 0.91385(17)
H23_3 H 0.659424 0.845829 0.917790
C46_3 C 0.61372(16) 0.59168(14) 0.89523(13)
C47_3 C 0.64401(17) 0.75478(15) 0.89797(17)
H26_3 H 0.670409 0.746259 0.892381
C48_3 C 0.61975(18) 0.59266(14) 0.94042(14)
H27_3 H 0.627022 0.630600 0.956425
C58_3 C 0.6188(2) 0.64675(18) 0.74164(16)
C60_3 C 0.62620(16) 0.93635(18) 0.9520(2)
H33_3 H 0.653999 0.928331 0.948988
C61_3 C 0.6188(2) 0.64698(14) 0.82883(15)
C64_3 C 0.94644(18) 0.2378(2) 0.99406(19)
H36_3 H 0.959513 0.212727 0.978198
C71_3 C 0.6168(2) 0.64282(18) 0.69473(16)
C82_3 C 0.6533(2) 0.6185(3) 0.77725(18)
H46_3 H 0.677133 0.598059 0.772259
H47_3 H 0.894784 0.177579 0.989382
C85_3 C 0.6531(2) 0.6198(3) 0.82037(17)
H48_3 H 0.677425 0.601338 0.844118
C100_3 C 0.6421(2) 0.6053(4) 0.6374(2)
H57_3 H 0.663792 0.581972 0.630558
C104_3 C 0.6467(3) 0.6089(4) 0.6827(2)
H60_3 H 0.670819 0.587535 0.704853
C110_3 C 0.5840(3) 0.6735(3) 0.6168(2)
H65_3 H 0.563128 0.699771 0.595166
C118_3 C 0.5852(4) 0.6725(5) 0.7518(3)
H69_3 H 0.560332 0.690997 0.728708
C119_3 C 0.5880(3) 0.6786(3) 0.6605(2)
H70_3 H 0.569753 0.708465 0.667276
C121_3 C 0.5858(4) 0.6727(5) 0.7951(2)
H72_3 H 0.561695 0.692000 0.800333
Co10_2 Co 0.59202(2) 0.60529(2) 0.53310(2)
N18_2 N 0.56652(11) 0.12571(13) 0.91969(11)
H73_3 H 0.997518 0.592464 0.596238
H76_3 H 0.993005 0.52526 0.65905
O13_2 O 0.54388(11) 0.79217(12) 0.40445(9)
O16_2 O 0.61743(12) 0.76983(16) 0.42631(11)
H13_3 H 0.580802 0.987072 0.100113
C49_3 C 0.5810(2) 0.7941(2) 0.39860(17)
C50_3 C 0.57999(17) 0.97239(19) 0.16156(15)
H28_3 H 0.588868 0.930064 0.164301
N13_3 N 0.5908(2) 0.9275(3) 0.24570(19)
N14_3 N 0.5675(2) 0.9716(3) 0.23713(19)
C90_3 C 0.5828(2) 0.8293(3) 0.35847(16)
C94_3 C 0.5882(3) 0.8939(3) 0.2858(2)
C105_3 C 0.6225(3) 0.8579(4) 0.3098(2)
H61_3 H 0.647629 0.853549 0.301447
C106_3 C 0.6221(3) 0.8261(4) 0.3475(2)
H62_3 H 0.647724 0.802706 0.365544
C115_3 C 0.5477(2) 0.8670(4) 0.3343(3)
H67_3 H 0.522145 0.870701 0.342110
C120_3 C 0.5493(3) 0.9006(4) 0.2972(3)
H71_3 H 0.525056 0.927095 0.280351
Co12_2 Co 0.57796(2) 0.73630(2) 0.46409(2)
O1_2 O 0.03101(8) 0.80467(9) 0.48553(7)
H13_4 H 0.080802 0.012928 0.600113
C49_4 C 0.0810(2) 0.2059(2) 0.89860(17)
C50_4 C 0.07999(17) 0.02761(19) 0.66156(15)
H28_4 H 0.088868 0.069936 0.664301
N13_4 N 0.0908(2) 0.0725(3) 0.74570(19)
N14_4 N 0.0675(2) 0.0284(3) 0.73713(19)
C90_4 C 0.0828(2) 0.1707(3) 0.85847(16)
C94_4 C 0.0882(3) 0.1061(3) 0.7858(2)
C105_4 C 0.1225(3) 0.1421(4) 0.8098(2)
H61_4 H 0.147629 0.146451 0.801447
C106_4 C 0.1221(3) 0.1739(4) 0.8475(2)
H62_4 H 0.147724 0.197294 0.865544
C115_4 C 0.0477(2) 0.1330(4) 0.8343(3)
H67_4 H 0.022145 0.129299 0.842110
C120_4 C 0.0493(3) 0.0994(4) 0.7972(3)
H71_4 H 0.025056 0.072905 0.780351
O2_2 O 0.99361(8) 0.89257(9) 0.45778(8)
O3_4 O 0.06743(9) 0.92079(9) 0.54814(8)
O4_4 O 0.52715(10) 0.63217(11) 0.52147(10)
O5_4 O 0.57847(10) 0.57199(11) 0.46922(9)
O6_4 O 0.62666(8) 0.68895(10) 0.51915(8)
O7_4 O 0.05447(10) 0.83287(10) 0.58057(9)
O8_4 O 0.13517(9) 0.87267(11) 0.51122(9)
O10_4 O 0.13477(9) 0.79113(11) 0.55520(9)
O11_4 O 0.56397(12) 0.65679(12) 0.42436(9)
O12_4 O 0.52506(10) 0.72279(12) 0.48500(9)
N2_4 N 0.08185(11) 0.68296(12) 0.50955(10)
O15_4 O 0.66456(10) 0.60140(11) 0.54510(10)
N4_4 N 0.58575(11) 0.51195(12) 0.55256(10)
C1_4 C 0.99335(12) 0.83523(14) 0.46870(11)
C2_4 C 0.94983(13) 0.80387(16) 0.46402(12)
C3_4 C 0.09272(13) 0.11018(13) 0.44064(12)
C4_4 C 0.58824(13) 0.38994(14) 0.58779(12)
C5_4 C 0.15342(13) 0.82566(15) 0.53617(12)
C6_4 C 0.50921(14) 0.68429(17) 0.50493(13)
C7_4 C 0.10468(15) 0.52025(14) 0.43995(12)
C8_4 C 0.09927(14) 0.17329(14) 0.42383(13)
C9_4 C 0.59059(14) 0.32684(14) 0.60795(12)
C10_4 C 0.09822(14) 0.57722(14) 0.46365(12)
C11_4 C 0.04810(14) 0.03478(14) 0.46296(13)
H1_4 H 0.020885 0.026094 0.466983
C12_4 C 0.55660(14) 0.30419(17) 0.62183(13)
H2_4 H 0.531113 0.329461 0.618014
C13_4 C 0.06297(14) 0.89155(14) 0.57979(12)
C14_4 C 0.56871(15) 0.59834(16) 0.43211(14)
C15_4 C 0.66252(14) 0.65535(17) 0.52797(13)
C16_4 C 0.07316(17) 0.27982(15) 0.40063(15)
H3_4 H 0.051425 0.311507 0.396864
N7_4 N 0.11721(15) 0.35251(11) 0.37348(12)
C17_4 C 0.58379(16) 0.13484(16) 0.79257(13)
C18_4 C 0.05329(15) 0.09375(14) 0.44709(16)
H4_4 H 0.029566 0.123167 0.440591
C19_4 C 0.06230(16) 0.67773(15) 0.46426(14)
H5_4 H 0.042863 0.710074 0.448008
C20_4 C 0.09954(17) 0.52112(15) 0.39504(14)
H6_4 H 0.093088 0.559241 0.379212
C21_4 C 0.57729(15) 0.13311(16) 0.83614(13)
C22_4 C 0.11000(17) 0.29202(14) 0.39053(14)
C23_4 C 0.06593(16) 0.92901(16) 0.62065(14)
C24_4 C 0.90898(15) 0.84024(19) 0.45103(15)
H7_4 H 0.909180 0.882178 0.442179
C25_4 C 0.5586(2) 0.31170(17) 0.10395(16)
C26_4 C 0.06676(16) 0.22089(15) 0.41659(15)
H8_4 H 0.040425 0.213245 0.422482
C27_4 C 0.11949(16) 0.58494(17) 0.51052(14)
H9_4 H 0.140413 0.554763 0.527878
C28_4 C 0.70142(14) 0.67875(19) 0.51625(14)
N8_4 N 0.83297(16) 0.7152(2) 0.47586(15)
N9_4 N 0.60027(18) 0.14563(13) 0.66745(12)
C29_4 C 0.57117(18) 0.08543(16) 0.76232(14)
H10_4 H 0.558657 0.049272 0.769754
C30_4 C 0.59743(16) 0.16485(17) 0.91344(14)
H11_4 H 0.615843 0.189658 0.937707
C31_4 C 0.10981(16) 0.63644(16) 0.53104(14)
H12_4 H 0.123925 0.639020 0.562483
C32_4 C 0.07626(16) 0.99289(17) 0.62402(14)
C33_4 C 0.11512(16) 0.46209(14) 0.46228(13)
H14_4 H 0.119079 0.459965 0.492656
C34_4 C 0.94838(16) 0.74067(17) 0.47505(14)
H15_4 H 0.974806 0.716031 0.482350
C35_4 C 0.54362(15) 0.09493(16) 0.84205(13)
H16_4 H 0.523909 0.070780 0.818074
C36_4 C 0.55978(18) 0.24497(18) 0.64118(14)
H17_4 H 0.536394 0.230945 0.649997
C37_4 C 0.53984(15) 0.09336(16) 0.88393(13)
H18_4 H 0.517043 0.067863 0.886975
C38_4 C 0.46597(14) 0.7049(2) 0.51126(14)
C39_4 C 0.11893(16) 0.00517(17) 0.46794(19)
C40_4 C 0.06944(16) 0.62671(16) 0.44025(13)
H20_4 H 0.055142 0.625540 0.408775
C41_4 C 0.5764(2) 0.08732(16) 0.72097(14)
H21_4 H 0.566821 0.053185 0.701105
C42_4 C 0.10378(18) 0.46646(16) 0.37307(14)
H22_4 H 0.099883 0.468627 0.342715
C43_4 C 0.13761(16) 0.18580(16) 0.41385(17)
H23_4 H 0.159424 0.154171 0.417790
C44_4 C 0.60306(17) 0.16989(18) 0.87330(14)
H24_4 H 0.624515 0.198424 0.870768
N10_4 N 0.34308(18) 0.7771(2) 0.52398(17)
C45_4 C 0.61865(19) 0.40927(19) 0.5691(2)
H25_4 H 0.640455 0.381128 0.566849
N11_4 N 0.3319(2) 0.7414(3) 0.5447(2)
N12_4 N 0.80705(17) 0.75467(18) 0.47589(15)
C46_4 C 0.11372(16) 0.40832(14) 0.39523(13)
C47_4 C 0.14401(17) 0.24522(15) 0.39797(17)
H26_4 H 0.170409 0.253741 0.392381
C48_4 C 0.11975(18) 0.40734(14) 0.44042(14)
H27_4 H 0.127022 0.369400 0.456425
C51_4 C 0.86949(17) 0.7495(2) 0.46591(15)
C52_4 C 0.86872(16) 0.8141(2) 0.45135(16)
H29_4 H 0.841707 0.837748 0.442323
C53_4 C 0.20090(15) 0.81041(18) 0.54113(14)
C54_4 C 0.59569(18) 0.13993(17) 0.70941(14)
C55_4 C 0.5967(2) 0.20688(16) 0.64752(15)
C56_4 C 0.60394(18) 0.18754(17) 0.78092(14)
H30_4 H 0.613576 0.221575 0.800868
C57_4 C 0.60969(19) 0.18965(17) 0.74017(14)
H31_4 H 0.623241 0.225136 0.733180
C58_4 C 0.1188(2) 0.35325(18) 0.24164(16)
C59_4 C 0.90883(17) 0.7136(2) 0.47544(15)
H32_4 H 0.908526 0.670808 0.482185
C60_4 C 0.12620(16) 0.06365(18) 0.4520(2)
H33_4 H 0.153999 0.071669 0.448988
C61_4 C 0.1188(2) 0.35302(14) 0.32883(15)
C62_4 C 0.55396(16) 0.49150(19) 0.5659(2)
H34_4 H 0.529604 0.518448 0.563172
C63_4 C 0.70375(17) 0.7412(2) 0.50413(18)
H35_4 H 0.680569 0.768806 0.503856
C64_4 C 0.44644(18) 0.7622(2) 0.49406(19)
H36_4 H 0.459513 0.787273 0.478198
C66_4 C 0.52079(19) 0.39897(18) 0.13120(17)
C67_4 C 0.5614(2) 0.5570(2) 0.39188(15)
C68_4 C 0.5543(2) 0.3514(2) 0.14114(17)
C69_4 C 0.6169(2) 0.4699(2) 0.5538(2)
H38_4 H 0.639546 0.482330 0.543397
C70_4 C 0.62804(19) 0.28618(19) 0.61444(17)
H39_4 H 0.651455 0.299711 0.605494
C71_4 C 0.1168(2) 0.35718(18) 0.19473(16)
C72_4 C 0.55442(17) 0.4324(2) 0.5838(2)
H40_4 H 0.531027 0.421139 0.593445
C73_4 C 0.2863(2) 0.7722(3) 0.5429(2)
C74_4 C 0.2223(2) 0.7549(3) 0.5630(2)
H41_4 H 0.207479 0.729008 0.576791
C75_4 C 0.5990(2) 0.09184(17) 0.64016(16)
C76_4 C 0.44618(18) 0.6662(2) 0.5332(2)
H42_4 H 0.458265 0.626371 0.543823
C77_4 C 0.6313(2) 0.22730(19) 0.63350(19)
H43_4 H 0.656282 0.201247 0.637038
C79_4 C 0.38780(18) 0.7458(3) 0.5216(2)
C80_4 C 0.5563(2) 0.5848(2) 0.34986(17)
C81_4 C 0.6254(2) 0.03821(19) 0.65944(16)
H45_4 H 0.643748 0.037560 0.690273
C82_4 C 0.1533(2) 0.3815(3) 0.27725(18)
H46_4 H 0.177133 0.401941 0.272259
C84_4 C 0.4073(2) 0.7829(3) 0.5002(2)
H47_4 H 0.394784 0.822421 0.489382
C85_4 C 0.1531(2) 0.3802(3) 0.32037(17)
H48_4 H 0.177425 0.398662 0.344118
C86_4 C 0.7688(2) 0.7248(2) 0.48931(18)
C87_4 C 0.5539(3) 0.5457(3) 0.3138(2)
C88_4 C 0.4065(2) 0.6895(3) 0.5391(2)
H49_4 H 0.393116 0.665541 0.555298
C89_4 C 0.73350(18) 0.6376(3) 0.5135(2)
H50_4 H 0.732540 0.594973 0.520447
C91_4 C 0.0560(3) 0.9000(2) 0.65521(17)
H51_4 H 0.048633 0.857087 0.653161
C92_4 C 0.5738(3) 0.0913(2) 0.59516(17)
H52_4 H 0.555562 0.126293 0.581905
C93_4 C 0.73810(18) 0.7642(3) 0.49262(17)
H53_4 H 0.739790 0.807224 0.487169
C95_4 C 0.2675(2) 0.8285(3) 0.5231(2)
H54_4 H 0.283369 0.853671 0.510076
C96_4 C 0.0698(2) 0.9966(3) 0.69624(16)
C98_4 C 0.22491(18) 0.8490(3) 0.5222(2)
H55_4 H 0.212737 0.887720 0.509218
C99_4 C 0.5741(3) 0.03980(18) 0.56786(18)
H56_4 H 0.558230 0.042368 0.536600
C100_4 C 0.1421(2) 0.3947(4) 0.1374(2)
H57_4 H 0.163792 0.418028 0.130558
C102_4 C 0.5173(2) 0.4355(2) 0.16637(19)
N15_4 N 0.5396(2) 0.4613(2) 0.24458(19)
C103_4 C 0.2661(2) 0.7379(3) 0.5644(3)
H59_4 H 0.280914 0.702270 0.580644
C104_4 C 0.1467(3) 0.3911(4) 0.1827(2)
H60_4 H 0.170819 0.412465 0.204853
C107_4 C 0.5604(3) 0.4899(2) 0.3954(2)
C108_4 C 0.7694(2) 0.6615(3) 0.4994(3)
H63_4 H 0.792005 0.634775 0.497263
N16_4 N 0.5541(3) 0.4374(3) 0.2839(2)
C110_4 C 0.0840(3) 0.3265(3) 0.1168(2)
H65_4 H 0.063128 0.300229 0.095166
C111_4 C 0.5455(3) 0.4206(3) 0.2108(2)
C112_4 C 0.0571(3) 0.9345(3) 0.6925(2)
H66_4 H 0.049132 0.915456 0.714729
C113_4 C 0.5836(3) 0.3398(3) 0.1857(2)
C114_4 C 0.5777(4) 0.3722(4) 0.2202(3)
C117_4 C 0.5552(3) 0.4799(3) 0.3188(2)
C118_4 C 0.0852(4) 0.3275(5) 0.2518(3)
H69_4 H 0.060332 0.309003 0.228708
C119_4 C 0.0880(3) 0.3214(3) 0.1605(2)
H70_4 H 0.069753 0.291535 0.167276
C121_4 C 0.0858(4) 0.3273(5) 0.2951(2)
H72_4 H 0.061695 0.308000 0.300333
C122_4 C 0.5583(4) 0.4526(3) 0.3593(3)
N17_2 N 0.07974(10) 0.98992(11) 0.47275(10)
N20_2 N 0.59125(16) 0.82121(14) 0.50446(12)
H73_4 H 0.497518 0.407536 0.0962377
H74_4 H 0.554276 0.636065 0.345744
H75_4 H 0.551 0.566552 0.281607
H76_4 H 0.493005 0.47474 0.15905
H77_4 H 0.561295 0.468057 0.426639
H78_4 H 0.559083 0.401225 0.362619
H79_4 H 0.611173 0.305056 0.193179
H80_4 H 0.598432 0.359903 0.255292
H19_4 H 0.142392 0.975190 0.475604
C65_4 C 0.6244(2) 0.9859(2) 0.63262(17)
H37_4 H 0.642006 0.950463 0.645790
C78_4 C 0.6091(3) 0.8211(2) 0.54788(18)
H44_4 H 0.622551 0.783530 0.562041
C83_4 C 0.5975(2) 0.98584(17) 0.58649(16)
C97_4 C 0.5939(2) 0.92822(18) 0.55733(15)
C101_4 C 0.6100(3) 0.8714(2) 0.57530(18)
H58_4 H 0.621940 0.866153 0.606629
C109_4 C 0.5749(4) 0.8770(3) 0.4872(2)
H64_4 H 0.561353 0.880468 0.455813
C116_4 C 0.5762(4) 0.9295(3) 0.5120(2)
H68_4 H 0.564664 0.967407 0.497088
loop_
_geom_bond_atom_site_label_1
_geom_bond_atom_site_label_2
_geom_bond_site_symmetry_1
_geom_bond_site_symmetry_2
N6 C78 1_555 1_555
C65 H37 1_555 1_555
C78 H44 1_555 1_555
C83 C65 1_555 1_555
C97 C83 1_555 1_555
C101 C78 1_555 1_555
H58 C101 1_555 1_555
C109 N6 1_555 1_555
H64 C109 1_555 1_555
C116 C97 1_555 1_555
H68 C116 1_555 1_555
Co6 N1 1_555 1_555
Co11 N6 1_555 1_555
C97 C101 1_555 1_555
C109 C116 1_555 1_555
Co6 O3 1_555 1_555
Co2 O7 1_555 1_555
Co3 O4 1_555 1_555
Co11 O6 1_555 1_555
O18 C1 1_555 1_555
O3 C13 1_555 1_555
O4 C6 1_555 1_555
O5 Co3 1_555 1_555
O6 Co3 1_555 1_555
O7 C13 1_555 1_555
O8 Co6 1_555 1_555
O9 C25 1_555 1_555
O10 Co2 1_555 1_555
O11 Co11 1_555 1_555
O12 Co11 1_555 1_555
O14 C25 1_555 1_555
N2 Co2 1_555 1_555
O15 Co3 1_555 1_555
N3 C30 1_555 1_555
N4 Co3 1_555 1_555
C1 C2 1_555 1_555
N5 C100 1_555 1_555
C2 C24 1_555 1_555
C3 C8 1_555 1_555
C4 C9 1_555 1_555
C5 O8 1_555 1_555
C6 O12 1_555 1_555
C7 C10 1_555 1_555
C8 C26 1_555 1_555
C9 C12 1_555 1_555
C10 C27 1_555 1_555
C11 H1 1_555 1_555
C12 H2 1_555 1_555
C13 C23 1_555 1_555
C14 O5 1_555 1_555
C15 O6 1_555 1_555
C16 H3 1_555 1_555
N7 C22 1_555 1_555
C17 C21 1_555 1_555
C18 C3 1_555 1_555
H4 C18 1_555 1_555
C19 N2 1_555 1_555
H5 C19 1_555 1_555
C20 C7 1_555 1_555
H6 C20 1_555 1_555
C21 C35 1_555 1_555
C22 C16 1_555 1_555
C23 C32 1_555 1_555
C24 H7 1_555 1_555
C25 C68 1_555 1_555
C26 C16 1_555 1_555
H8 C26 1_555 1_555
C27 H9 1_555 1_555
C28 C15 1_555 1_555
N8 N12 1_555 1_555
N9 C54 1_555 1_555
C29 C17 1_555 1_555
H10 C29 1_555 1_555
C30 H11 1_555 1_555
C31 N2 1_555 1_555
H12 C31 1_555 1_555
C33 C7 1_555 1_555
H14 C33 1_555 1_555
C34 C2 1_555 1_555
H15 C34 1_555 1_555
C35 H16 1_555 1_555
C36 C12 1_555 1_555
H17 C36 1_555 1_555
C37 N3 1_555 1_555
H18 C37 1_555 1_555
C38 C6 1_555 1_555
C40 C10 1_555 1_555
H20 C40 1_555 1_555
C41 C29 1_555 1_555
H21 C41 1_555 1_555
C42 C20 1_555 1_555
H22 C42 1_555 1_555
C43 C8 1_555 1_555
H23 C43 1_555 1_555
C44 C21 1_555 1_555
H24 C44 1_555 1_555
N10 N11 1_555 1_555
C45 C4 1_555 1_555
H25 C45 1_555 1_555
N11 C73 1_555 1_555
N12 C86 1_555 1_555
C46 N7 1_555 1_555
C47 C22 1_555 1_555
H26 C47 1_555 1_555
C48 C33 1_555 1_555
H27 C48 1_555 1_555
C51 N8 1_555 1_555
C52 C24 1_555 1_555
H29 C52 1_555 1_555
C53 C5 1_555 1_555
C54 C41 1_555 1_555
C55 N9 1_555 1_555
C56 C17 1_555 1_555
H30 C56 1_555 1_555
C57 C54 1_555 1_555
H31 C57 1_555 1_555
C58 C71 1_555 1_555
C59 C34 1_555 1_555
H32 C59 1_555 1_555
C60 C3 1_555 1_555
H33 C60 1_555 1_555
C61 N7 1_555 1_555
C62 N4 1_555 1_555
H34 C62 1_555 1_555
C63 C28 1_555 1_555
H35 C63 1_555 1_555
C64 C38 1_555 1_555
H36 C64 1_555 1_555
C66 C68 1_555 1_555
C67 C14 1_555 1_555
C68 C113 1_555 1_555
C69 N4 1_555 1_555
H38 C69 1_555 1_555
C70 C9 1_555 1_555
H39 C70 1_555 1_555
C71 C104 1_555 1_555
C72 C4 1_555 1_555
H40 C72 1_555 1_555
C73 C95 1_555 1_555
C74 C53 1_555 1_555
H41 C74 1_555 1_555
C75 N9 1_555 1_555
C76 C38 1_555 1_555
H42 C76 1_555 1_555
C77 C55 1_555 1_555
H43 C77 1_555 1_555
C79 N10 1_555 1_555
C80 C67 1_555 1_555
H45 C81 1_555 1_555
C82 C58 1_555 1_555
H46 C82 1_555 1_555
C84 C64 1_555 1_555
H47 C84 1_555 1_555
C85 C61 1_555 1_555
H48 C85 1_555 1_555
C86 C93 1_555 1_555
C87 C80 1_555 1_555
C88 C76 1_555 1_555
H49 C88 1_555 1_555
C89 C28 1_555 1_555
H50 C89 1_555 1_555
C91 C23 1_555 1_555
H51 C91 1_555 1_555
C92 C75 1_555 1_555
H52 C92 1_555 1_555
C93 C63 1_555 1_555
H53 C93 1_555 1_555
C95 H54 1_555 1_555
C98 C53 1_555 1_555
H55 C98 1_555 1_555
H56 C99 1_555 1_555
C100 H57 1_555 1_555
C102 C66 1_555 1_555
N15 N16 1_555 1_555
C103 C73 1_555 1_555
H59 C103 1_555 1_555
C104 C100 1_555 1_555
H60 C104 1_555 1_555
C107 C67 1_555 1_555
C108 C86 1_555 1_555
H63 C108 1_555 1_555
N16 C117 1_555 1_555
C110 N5 1_555 1_555
H65 C110 1_555 1_555
C111 C102 1_555 1_555
C112 C91 1_555 1_555
H66 C112 1_555 1_555
C113 C114 1_555 1_555
C114 C111 1_555 1_555
C117 C87 1_555 1_555
C118 C58 1_555 1_555
H69 C118 1_555 1_555
C119 C71 1_555 1_555
H70 C119 1_555 1_555
C121 C61 1_555 1_555
H72 C121 1_555 1_555
C122 C107 1_555 1_555
Co7 N3 1_555 1_555
Co9 O9 1_555 1_555
Co10 N5 1_555 1_555
O17 Co6 1_555 1_555
O19 Co2 1_555 1_555
O20 Co11 1_555 1_555
O21 Co2 1_555 1_555
O22 Co11 1_555 1_555
N18 Co6 1_555 1_555
N19 Co3 1_555 1_555
Co2 O17 1_555 1_555
O10 C5 1_555 1_555
O11 C14 1_555 1_555
O14 Co9 1_555 1_555
O15 C15 1_555 1_555
C11 C18 1_555 1_555
C19 C40 1_555 1_555
C27 C31 1_555 1_555
C30 C44 1_555 1_555
C35 C37 1_555 1_555
C36 C55 1_555 1_555
C39 C60 1_555 1_555
C42 C46 1_555 1_555
C43 C47 1_555 1_555
C45 C69 1_555 1_555
C46 C48 1_555 1_555
C51 C52 1_555 1_555
C51 C59 1_555 1_555
C56 C57 1_555 1_555
C62 C72 1_555 1_555
C70 C77 1_555 1_555
C74 C103 1_555 1_555
C75 C81 1_555 1_555
C79 C84 1_555 1_555
C79 C88 1_555 1_555
C82 C85 1_555 1_555
C89 C108 1_555 1_555
C92 C99 1_555 1_555
C95 C98 1_555 1_555
C96 C112 1_555 1_555
N15 C111 1_555 1_555
C110 C119 1_555 1_555
C117 C122 1_555 1_555
C118 C121 1_555 1_555
C66 H73 1_555 1_555
C80 H74 1_555 1_555
C87 H75 1_555 1_555
C102 H76 1_555 1_555
C107 H77 1_555 1_555
C122 H78 1_555 1_555
C113 H79 1_555 1_555
C114 H80 1_555 1_555
O13 C49 1_555 1_555
O16 C49 1_555 1_555
C49 C90 1_555 1_555
H28 C50 1_555 1_555
N13 N14 1_555 1_555
C90 C106 1_555 1_555
C94 N13 1_555 1_555
C105 C94 1_555 1_555
H61 C105 1_555 1_555
C106 C105 1_555 1_555
H62 C106 1_555 1_555
C115 C90 1_555 1_555
H67 C115 1_555 1_555
C120 C94 1_555 1_555
H71 C120 1_555 1_555
Co12 O13 1_555 1_555
O16 Co12 1_555 1_555
C115 C120 1_555 1_555
O20 C49_2 1_555 1_555
O22 C49_2 1_555 1_555
C49_2 C90_2 1_555 1_555
H28_2 C50_2 1_555 1_555
N13_2 N14_2 1_555 1_555
C90_2 C106_2 1_555 1_555
C94_2 N13_2 1_555 1_555
C105_2 C94_2 1_555 1_555
H61_2 C105_2 1_555 1_555
C106_2 C105_2 1_555 1_555
H62_2 C106_2 1_555 1_555
C115_2 C90_2 1_555 1_555
H67_2 C115_2 1_555 1_555
C120_2 C94_2 1_555 1_555
H71_2 C120_2 1_555 1_555
C115_2 C120_2 1_555 1_555
N19 C100_2 1_555 1_555
C3_2 C8_2 1_555 1_555
C7_2 C10_2 1_555 1_555
C8_2 C26_2 1_555 1_555
C11_2 H1_2 1_555 1_555
C16_2 H3_2 1_555 1_555
N7_2 C22_2 1_555 1_555
C18_2 C3_2 1_555 1_555
H4_2 C18_2 1_555 1_555
H5_2 C19_2 1_555 1_555
C20_2 C7_2 1_555 1_555
H6_2 C20_2 1_555 1_555
C22_2 C16_2 1_555 1_555
C26_2 C16_2 1_555 1_555
H8_2 C26_2 1_555 1_555
C33_2 C7_2 1_555 1_555
H14_2 C33_2 1_555 1_555
C40_2 C10_2 1_555 1_555
H20_2 C40_2 1_555 1_555
C42_2 C20_2 1_555 1_555
H22_2 C42_2 1_555 1_555
C43_2 C8_2 1_555 1_555
H23_2 C43_2 1_555 1_555
C46_2 N7_2 1_555 1_555
C47_2 C22_2 1_555 1_555
H26_2 C47_2 1_555 1_555
C48_2 C33_2 1_555 1_555
H27_2 C48_2 1_555 1_555
C58_2 C71_2 1_555 1_555
C60_2 C3_2 1_555 1_555
H33_2 C60_2 1_555 1_555
C61_2 N7_2 1_555 1_555
H36_2 C64_2 1_555 1_555
C71_2 C104_2 1_555 1_555
C82_2 C58_2 1_555 1_555
H46_2 C82_2 1_555 1_555
C85_2 C61_2 1_555 1_555
H48_2 C85_2 1_555 1_555
C100_2 H57_2 1_555 1_555
C104_2 C100_2 1_555 1_555
H60_2 C104_2 1_555 1_555
C110_2 N19 1_555 1_555
H65_2 C110_2 1_555 1_555
C118_2 C58_2 1_555 1_555
H69_2 C118_2 1_555 1_555
C119_2 C71_2 1_555 1_555
H70_2 C119_2 1_555 1_555
C121_2 C61_2 1_555 1_555
H72_2 C121_2 1_555 1_555
O17_2 Co7 1_555 1_555
O18_2 Co7 1_555 1_555
N17 Co7 1_555 1_555
C11_2 C18_2 1_555 1_555
C19_2 C40_2 1_555 1_555
C39_2 C60_2 1_555 1_555
C42_2 C46_2 1_555 1_555
C43_2 C47_2 1_555 1_555
C46_2 C48_2 1_555 1_555
C82_2 C85_2 1_555 1_555
C110_2 C119_2 1_555 1_555
C118_2 C121_2 1_555 1_555
Co9 O7_2 1_555 1_555
O3_2 C13_2 1_555 1_555
O7_2 C13_2 1_555 1_555
O10_2 Co9 1_555 1_555
N2_2 Co9 1_555 1_555
C5_2 O8_2 1_555 1_555
C13_2 C23_2 1_555 1_555
C23_2 C32_2 1_555 1_555
C27_2 H9_2 1_555 1_555
C31_2 N2_2 1_555 1_555
H12_2 C31_2 1_555 1_555
N10_2 N11_2 1_555 1_555
N11_2 C73_2 1_555 1_555
C53_2 C5_2 1_555 1_555
C73_2 C95_2 1_555 1_555
C74_2 C53_2 1_555 1_555
H41_2 C74_2 1_555 1_555
C76_2 C38_2 1_555 1_555
H42_2 C76_2 1_555 1_555
C79_2 N10_2 1_555 1_555
C88_2 C76_2 1_555 1_555
H49_2 C88_2 1_555 1_555
C91_2 C23_2 1_555 1_555
H51_2 C91_2 1_555 1_555
C95_2 H54_2 1_555 1_555
C98_2 C53_2 1_555 1_555
H55_2 C98_2 1_555 1_555
C103_2 C73_2 1_555 1_555
H59_2 C103_2 1_555 1_555
C112_2 C91_2 1_555 1_555
H66_2 C112_2 1_555 1_555
O10_2 C5_2 1_555 1_555
C27_2 C31_2 1_555 1_555
C74_2 C103_2 1_555 1_555
C79_2 C84_2 1_555 1_555
C79_2 C88_2 1_555 1_555
C95_2 C98_2 1_555 1_555
C96_2 C112_2 1_555 1_555
O17_2 C1_2 1_555 1_555
O18_2 C1_2 1_555 1_555
O19 C25_2 1_555 1_555
O11_2 Co12 1_555 1_555
O12_2 Co12 1_555 1_555
O21 C25_2 1_555 1_555
C1_2 C2_2 1_555 1_555
C2_2 C24_2 1_555 1_555
C14_2 O5_2 1_555 1_555
C24_2 H7_2 1_555 1_555
C25_2 C68_2 1_555 1_555
N8_2 N12_2 1_555 1_555
C34_2 C2_2 1_555 1_555
H15_2 C34_2 1_555 1_555
N12_2 C86_2 1_555 1_555
C51_2 N8_2 1_555 1_555
C52_2 C24_2 1_555 1_555
H29_2 C52_2 1_555 1_555
C59_2 C34_2 1_555 1_555
H32_2 C59_2 1_555 1_555
C66_2 C68_2 1_555 1_555
C67_2 C14_2 1_555 1_555
C68_2 C113_2 1_555 1_555
C80_2 C67_2 1_555 1_555
C86_2 C93_2 1_555 1_555
C87_2 C80_2 1_555 1_555
H53_2 C93_2 1_555 1_555
C102_2 C66_2 1_555 1_555
N15_2 N16_2 1_555 1_555
C107_2 C67_2 1_555 1_555
C108_2 C86_2 1_555 1_555
H63_2 C108_2 1_555 1_555
N16_2 C117_2 1_555 1_555
C111_2 C102_2 1_555 1_555
C113_2 C114_2 1_555 1_555
C114_2 C111_2 1_555 1_555
C117_2 C87_2 1_555 1_555
C122_2 C107_2 1_555 1_555
O11_2 C14_2 1_555 1_555
C51_2 C52_2 1_555 1_555
C51_2 C59_2 1_555 1_555
N15_2 C111_2 1_555 1_555
C117_2 C122_2 1_555 1_555
C80_2 H74_2 1_555 1_555
C87_2 H75_2 1_555 1_555
C107_2 H77_2 1_555 1_555
C122_2 H78_2 1_555 1_555
C113_2 H79_2 1_555 1_555
C114_2 H80_2 1_555 1_555
Co10 O4_2 1_555 1_555
O4_2 C6_2 1_555 1_555
O6_2 Co10 1_555 1_555
O15_2 Co10 1_555 1_555
N18 C30_2 1_555 1_555
N4_2 Co10 1_555 1_555
C4_2 C9_2 1_555 1_555
C9_2 C12_2 1_555 1_555
C12_2 H2_2 1_555 1_555
C15_2 O6_2 1_555 1_555
C17_2 C21_2 1_555 1_555
C21_2 C35_2 1_555 1_555
C28_2 C15_2 1_555 1_555
N9_2 C54_2 1_555 1_555
C29_2 C17_2 1_555 1_555
H10_2 C29_2 1_555 1_555
C30_2 H11_2 1_555 1_555
C35_2 H16_2 1_555 1_555
C36_2 C12_2 1_555 1_555
H17_2 C36_2 1_555 1_555
C37_2 N18 1_555 1_555
H18_2 C37_2 1_555 1_555
C41_2 C29_2 1_555 1_555
H21_2 C41_2 1_555 1_555
C44_2 C21_2 1_555 1_555
H24_2 C44_2 1_555 1_555
C45_2 C4_2 1_555 1_555
H25_2 C45_2 1_555 1_555
C54_2 C41_2 1_555 1_555
C55_2 N9_2 1_555 1_555
C56_2 C17_2 1_555 1_555
H30_2 C56_2 1_555 1_555
C57_2 C54_2 1_555 1_555
H31_2 C57_2 1_555 1_555
C62_2 N4_2 1_555 1_555
H34_2 C62_2 1_555 1_555
C63_2 C28_2 1_555 1_555
H35_2 C63_2 1_555 1_555
C69_2 N4_2 1_555 1_555
H38_2 C69_2 1_555 1_555
C70_2 C9_2 1_555 1_555
H39_2 C70_2 1_555 1_555
C72_2 C4_2 1_555 1_555
H40_2 C72_2 1_555 1_555
C75_2 N9_2 1_555 1_555
C77_2 C55_2 1_555 1_555
H43_2 C77_2 1_555 1_555
H45_2 C81_2 1_555 1_555
C89_2 C28_2 1_555 1_555
H50_2 C89_2 1_555 1_555
C92_2 C75_2 1_555 1_555
H52_2 C92_2 1_555 1_555
H56_2 C99_2 1_555 1_555
O15_2 C15_2 1_555 1_555
C30_2 C44_2 1_555 1_555
C35_2 C37_2 1_555 1_555
C36_2 C55_2 1_555 1_555
C45_2 C69_2 1_555 1_555
C56_2 C57_2 1_555 1_555
C62_2 C72_2 1_555 1_555
C70_2 C77_2 1_555 1_555
C75_2 C81_2 1_555 1_555
C92_2 C99_2 1_555 1_555
H64_2 C109_2 1_555 1_555
N20 C78_2 1_555 1_555
C65_2 H37_2 1_555 1_555
C78_2 H44_2 1_555 1_555
C83_2 C65_2 1_555 1_555
C97_2 C83_2 1_555 1_555
C101_2 C78_2 1_555 1_555
H58_2 C101_2 1_555 1_555
C116_2 C97_2 1_555 1_555
C97_2 C101_2 1_555 1_555
N6_2 C78_3 1_555 1_555
C65_3 H37_3 1_555 1_555
C78_3 H44_3 1_555 1_555
C83_3 C65_3 1_555 1_555
C97_3 C83_3 1_555 1_555
C101_3 C78_3 1_555 1_555
H58_3 C101_3 1_555 1_555
C116_3 C97_3 1_555 1_555
C97_3 C101_3 1_555 1_555
H64_3 C109_3 1_555 1_555
Co3_2 O4_3 1_555 1_555
O4_3 C6_3 1_555 1_555
O6_3 Co3_2 1_555 1_555
O15_3 Co3_2 1_555 1_555
N3_2 C30_3 1_555 1_555
N4_3 Co3_2 1_555 1_555
C4_3 C9_3 1_555 1_555
C9_3 C12_3 1_555 1_555
C12_3 H2_3 1_555 1_555
C15_3 O6_3 1_555 1_555
C17_3 C21_3 1_555 1_555
C21_3 C35_3 1_555 1_555
C28_3 C15_3 1_555 1_555
N9_3 C54_3 1_555 1_555
C29_3 C17_3 1_555 1_555
H10_3 C29_3 1_555 1_555
C30_3 H11_3 1_555 1_555
C35_3 H16_3 1_555 1_555
C36_3 C12_3 1_555 1_555
H17_3 C36_3 1_555 1_555
C37_3 N3_2 1_555 1_555
H18_3 C37_3 1_555 1_555
C41_3 C29_3 1_555 1_555
H21_3 C41_3 1_555 1_555
C44_3 C21_3 1_555 1_555
H24_3 C44_3 1_555 1_555
C45_3 C4_3 1_555 1_555
H25_3 C45_3 1_555 1_555
C54_3 C41_3 1_555 1_555
C55_3 N9_3 1_555 1_555
C56_3 C17_3 1_555 1_555
H30_3 C56_3 1_555 1_555
C57_3 C54_3 1_555 1_555
H31_3 C57_3 1_555 1_555
C62_3 N4_3 1_555 1_555
H34_3 C62_3 1_555 1_555
C63_3 C28_3 1_555 1_555
H35_3 C63_3 1_555 1_555
C69_3 N4_3 1_555 1_555
H38_3 C69_3 1_555 1_555
C70_3 C9_3 1_555 1_555
H39_3 C70_3 1_555 1_555
C72_3 C4_3 1_555 1_555
H40_3 C72_3 1_555 1_555
C75_3 N9_3 1_555 1_555
C77_3 C55_3 1_555 1_555
H43_3 C77_3 1_555 1_555
H45_3 C81_3 1_555 1_555
C89_3 C28_3 1_555 1_555
H50_3 C89_3 1_555 1_555
C92_3 C75_3 1_555 1_555
H52_3 C92_3 1_555 1_555
H56_3 C99_3 1_555 1_555
Co7_2 N3_2 1_555 1_555
N19_2 Co3_2 1_555 1_555
O15_3 C15_3 1_555 1_555
C30_3 C44_3 1_555 1_555
C35_3 C37_3 1_555 1_555
C36_3 C55_3 1_555 1_555
C45_3 C69_3 1_555 1_555
C56_3 C57_3 1_555 1_555
C62_3 C72_3 1_555 1_555
C70_3 C77_3 1_555 1_555
C75_3 C81_3 1_555 1_555
C92_3 C99_3 1_555 1_555
O1 C1_3 1_555 1_555
O2 C1_3 1_555 1_555
O9_2 C25_3 1_555 1_555
O11_3 Co11_2 1_555 1_555
O12_3 Co11_2 1_555 1_555
O14_2 C25_3 1_555 1_555
C1_3 C2_3 1_555 1_555
C2_3 C24_3 1_555 1_555
C14_3 O5_3 1_555 1_555
C24_3 H7_3 1_555 1_555
C25_3 C68_3 1_555 1_555
N8_3 N12_3 1_555 1_555
C34_3 C2_3 1_555 1_555
H15_3 C34_3 1_555 1_555
N12_3 C86_3 1_555 1_555
C51_3 N8_3 1_555 1_555
C52_3 C24_3 1_555 1_555
H29_3 C52_3 1_555 1_555
C59_3 C34_3 1_555 1_555
H32_3 C59_3 1_555 1_555
C66_3 C68_3 1_555 1_555
C67_3 C14_3 1_555 1_555
C68_3 C113_3 1_555 1_555
C80_3 C67_3 1_555 1_555
C86_3 C93_3 1_555 1_555
C87_3 C80_3 1_555 1_555
H53_3 C93_3 1_555 1_555
C102_3 C66_3 1_555 1_555
N15_3 N16_3 1_555 1_555
C107_3 C67_3 1_555 1_555
C108_3 C86_3 1_555 1_555
H63_3 C108_3 1_555 1_555
N16_3 C117_3 1_555 1_555
C111_3 C102_3 1_555 1_555
C113_3 C114_3 1_555 1_555
C114_3 C111_3 1_555 1_555
C117_3 C87_3 1_555 1_555
C122_3 C107_3 1_555 1_555
Co5 O1 1_555 1_555
Co9_2 O9_2 1_555 1_555
O20_2 Co11_2 1_555 1_555
O22_2 Co11_2 1_555 1_555
O2 Co5 1_555 1_555
O11_3 C14_3 1_555 1_555
O14_2 Co9_2 1_555 1_555
C51_3 C52_3 1_555 1_555
C51_3 C59_3 1_555 1_555
N15_3 C111_3 1_555 1_555
C117_3 C122_3 1_555 1_555
C80_3 H74_3 1_555 1_555
C87_3 H75_3 1_555 1_555
C107_3 H77_3 1_555 1_555
C122_3 H78_3 1_555 1_555
C113_3 H79_3 1_555 1_555
C114_3 H80_3 1_555 1_555
Co5 N1_2 1_555 1_555
Co8 O7_3 1_555 1_555
O3_3 C13_3 1_555 1_555
O7_3 C13_3 1_555 1_555
O10_3 Co8 1_555 1_555
N2_3 Co8 1_555 1_555
C5_3 O8_3 1_555 1_555
C13_3 C23_3 1_555 1_555
C23_3 C32_3 1_555 1_555
C27_3 H9_3 1_555 1_555
C31_3 N2_3 1_555 1_555
H12_3 C31_3 1_555 1_555
N10_3 N11_3 1_555 1_555
N11_3 C73_3 1_555 1_555
C53_3 C5_3 1_555 1_555
C73_3 C95_3 1_555 1_555
C74_3 C53_3 1_555 1_555
H41_3 C74_3 1_555 1_555
C76_3 C38_3 1_555 1_555
H42_3 C76_3 1_555 1_555
C79_3 N10_3 1_555 1_555
C88_3 C76_3 1_555 1_555
H49_3 C88_3 1_555 1_555
C91_3 C23_3 1_555 1_555
H51_3 C91_3 1_555 1_555
C95_3 H54_3 1_555 1_555
C98_3 C53_3 1_555 1_555
H55_3 C98_3 1_555 1_555
C103_3 C73_3 1_555 1_555
H59_3 C103_3 1_555 1_555
C112_3 C91_3 1_555 1_555
H66_3 C112_3 1_555 1_555
O19_2 Co8 1_555 1_555
O21_2 Co8 1_555 1_555
O10_3 C5_3 1_555 1_555
C27_3 C31_3 1_555 1_555
C74_3 C103_3 1_555 1_555
C79_3 C84_3 1_555 1_555
C79_3 C88_3 1_555 1_555
C95_3 C98_3 1_555 1_555
C96_3 C112_3 1_555 1_555
N5_2 C100_3 1_555 1_555
C3_3 C8_3 1_555 1_555
C7_3 C10_3 1_555 1_555
C8_3 C26_3 1_555 1_555
C11_3 H1_3 1_555 1_555
C16_3 H3_3 1_555 1_555
N7_3 C22_3 1_555 1_555
C18_3 C3_3 1_555 1_555
H4_3 C18_3 1_555 1_555
H5_3 C19_3 1_555 1_555
C20_3 C7_3 1_555 1_555
H6_3 C20_3 1_555 1_555
C22_3 C16_3 1_555 1_555
C26_3 C16_3 1_555 1_555
H8_3 C26_3 1_555 1_555
C33_3 C7_3 1_555 1_555
H14_3 C33_3 1_555 1_555
C40_3 C10_3 1_555 1_555
H20_3 C40_3 1_555 1_555
C42_3 C20_3 1_555 1_555
H22_3 C42_3 1_555 1_555
C43_3 C8_3 1_555 1_555
H23_3 C43_3 1_555 1_555
C46_3 N7_3 1_555 1_555
C47_3 C22_3 1_555 1_555
H26_3 C47_3 1_555 1_555
C48_3 C33_3 1_555 1_555
H27_3 C48_3 1_555 1_555
C58_3 C71_3 1_555 1_555
C60_3 C3_3 1_555 1_555
H33_3 C60_3 1_555 1_555
C61_3 N7_3 1_555 1_555
H36_3 C64_3 1_555 1_555
C71_3 C104_3 1_555 1_555
C82_3 C58_3 1_555 1_555
H46_3 C82_3 1_555 1_555
C85_3 C61_3 1_555 1_555
H48_3 C85_3 1_555 1_555
C100_3 H57_3 1_555 1_555
C104_3 C100_3 1_555 1_555
H60_3 C104_3 1_555 1_555
C110_3 N5_2 1_555 1_555
H65_3 C110_3 1_555 1_555
C118_3 C58_3 1_555 1_555
H69_3 C118_3 1_555 1_555
C119_3 C71_3 1_555 1_555
H70_3 C119_3 1_555 1_555
C121_3 C61_3 1_555 1_555
H72_3 C121_3 1_555 1_555
Co10_2 N5_2 1_555 1_555
N18_2 Co5 1_555 1_555
C11_3 C18_3 1_555 1_555
C19_3 C40_3 1_555 1_555
C39_3 C60_3 1_555 1_555
C42_3 C46_3 1_555 1_555
C43_3 C47_3 1_555 1_555
C46_3 C48_3 1_555 1_555
C82_3 C85_3 1_555 1_555
C110_3 C119_3 1_555 1_555
C118_3 C121_3 1_555 1_555
O13_2 C49_3 1_555 1_555
O16_2 C49_3 1_555 1_555
C49_3 C90_3 1_555 1_555
H28_3 C50_3 1_555 1_555
N13_3 N14_3 1_555 1_555
C90_3 C106_3 1_555 1_555
C94_3 N13_3 1_555 1_555
C105_3 C94_3 1_555 1_555
H61_3 C105_3 1_555 1_555
C106_3 C105_3 1_555 1_555
H62_3 C106_3 1_555 1_555
C115_3 C90_3 1_555 1_555
H67_3 C115_3 1_555 1_555
C120_3 C94_3 1_555 1_555
H71_3 C120_3 1_555 1_555
Co12_2 O13_2 1_555 1_555
O16_2 Co12_2 1_555 1_555
C115_3 C120_3 1_555 1_555
Co7_2 O1_2 1_555 1_555
Co9_2 O1_2 1_555 1_555
O20_2 C49_4 1_555 1_555
O22_2 C49_4 1_555 1_555
C49_4 C90_4 1_555 1_555
H28_4 C50_4 1_555 1_555
N13_4 N14_4 1_555 1_555
C90_4 C106_4 1_555 1_555
C94_4 N13_4 1_555 1_555
C105_4 C94_4 1_555 1_555
H61_4 C105_4 1_555 1_555
C106_4 C105_4 1_555 1_555
H62_4 C106_4 1_555 1_555
C115_4 C90_4 1_555 1_555
H67_4 C115_4 1_555 1_555
C120_4 C94_4 1_555 1_555
H71_4 C120_4 1_555 1_555
C115_4 C120_4 1_555 1_555
Co7_2 O3_4 1_555 1_555
Co9_2 O7_4 1_555 1_555
Co10_2 O4_4 1_555 1_555
Co12_2 O6_4 1_555 1_555
O2_2 C1_4 1_555 1_555
O3_4 C13_4 1_555 1_555
O4_4 C6_4 1_555 1_555
O5_4 Co10_2 1_555 1_555
O6_4 Co10_2 1_555 1_555
O7_4 C13_4 1_555 1_555
O8_4 Co7_2 1_555 1_555
O19_2 C25_4 1_555 1_555
O10_4 Co9_2 1_555 1_555
O11_4 Co12_2 1_555 1_555
O12_4 Co12_2 1_555 1_555
O21_2 C25_4 1_555 1_555
N2_4 Co9_2 1_555 1_555
O15_4 Co10_2 1_555 1_555
N18_2 C30_4 1_555 1_555
N4_4 Co10_2 1_555 1_555
C1_4 C2_4 1_555 1_555
N19_2 C100_4 1_555 1_555
C2_4 C24_4 1_555 1_555
C3_4 C8_4 1_555 1_555
C4_4 C9_4 1_555 1_555
C5_4 O8_4 1_555 1_555
C6_4 O12_4 1_555 1_555
C7_4 C10_4 1_555 1_555
C8_4 C26_4 1_555 1_555
C9_4 C12_4 1_555 1_555
C10_4 C27_4 1_555 1_555
C11_4 H1_4 1_555 1_555
C12_4 H2_4 1_555 1_555
C13_4 C23_4 1_555 1_555
C14_4 O5_4 1_555 1_555
C15_4 O6_4 1_555 1_555
C16_4 H3_4 1_555 1_555
N7_4 C22_4 1_555 1_555
C17_4 C21_4 1_555 1_555
C18_4 C3_4 1_555 1_555
H4_4 C18_4 1_555 1_555
C19_4 N2_4 1_555 1_555
H5_4 C19_4 1_555 1_555
C20_4 C7_4 1_555 1_555
H6_4 C20_4 1_555 1_555
C21_4 C35_4 1_555 1_555
C22_4 C16_4 1_555 1_555
C23_4 C32_4 1_555 1_555
C24_4 H7_4 1_555 1_555
C25_4 C68_4 1_555 1_555
C26_4 C16_4 1_555 1_555
H8_4 C26_4 1_555 1_555
C27_4 H9_4 1_555 1_555
C28_4 C15_4 1_555 1_555
N8_4 N12_4 1_555 1_555
N9_4 C54_4 1_555 1_555
C29_4 C17_4 1_555 1_555
H10_4 C29_4 1_555 1_555
C30_4 H11_4 1_555 1_555
C31_4 N2_4 1_555 1_555
H12_4 C31_4 1_555 1_555
C33_4 C7_4 1_555 1_555
H14_4 C33_4 1_555 1_555
C34_4 C2_4 1_555 1_555
H15_4 C34_4 1_555 1_555
C35_4 H16_4 1_555 1_555
C36_4 C12_4 1_555 1_555
H17_4 C36_4 1_555 1_555
C37_4 N18_2 1_555 1_555
H18_4 C37_4 1_555 1_555
C38_4 C6_4 1_555 1_555
C40_4 C10_4 1_555 1_555
H20_4 C40_4 1_555 1_555
C41_4 C29_4 1_555 1_555
H21_4 C41_4 1_555 1_555
C42_4 C20_4 1_555 1_555
H22_4 C42_4 1_555 1_555
C43_4 C8_4 1_555 1_555
H23_4 C43_4 1_555 1_555
C44_4 C21_4 1_555 1_555
H24_4 C44_4 1_555 1_555
N10_4 N11_4 1_555 1_555
C45_4 C4_4 1_555 1_555
H25_4 C45_4 1_555 1_555
N11_4 C73_4 1_555 1_555
N12_4 C86_4 1_555 1_555
C46_4 N7_4 1_555 1_555
C47_4 C22_4 1_555 1_555
H26_4 C47_4 1_555 1_555
C48_4 C33_4 1_555 1_555
H27_4 C48_4 1_555 1_555
C51_4 N8_4 1_555 1_555
C52_4 C24_4 1_555 1_555
H29_4 C52_4 1_555 1_555
C53_4 C5_4 1_555 1_555
C54_4 C41_4 1_555 1_555
C55_4 N9_4 1_555 1_555
C56_4 C17_4 1_555 1_555
H30_4 C56_4 1_555 1_555
C57_4 C54_4 1_555 1_555
H31_4 C57_4 1_555 1_555
C58_4 C71_4 1_555 1_555
C59_4 C34_4 1_555 1_555
H32_4 C59_4 1_555 1_555
C60_4 C3_4 1_555 1_555
H33_4 C60_4 1_555 1_555
C61_4 N7_4 1_555 1_555
C62_4 N4_4 1_555 1_555
H34_4 C62_4 1_555 1_555
C63_4 C28_4 1_555 1_555
H35_4 C63_4 1_555 1_555
C64_4 C38_4 1_555 1_555
H36_4 C64_4 1_555 1_555
C66_4 C68_4 1_555 1_555
C67_4 C14_4 1_555 1_555
C68_4 C113_4 1_555 1_555
C69_4 N4_4 1_555 1_555
H38_4 C69_4 1_555 1_555
C70_4 C9_4 1_555 1_555
H39_4 C70_4 1_555 1_555
C71_4 C104_4 1_555 1_555
C72_4 C4_4 1_555 1_555
H40_4 C72_4 1_555 1_555
C73_4 C95_4 1_555 1_555
C74_4 C53_4 1_555 1_555
H41_4 C74_4 1_555 1_555
C75_4 N9_4 1_555 1_555
C76_4 C38_4 1_555 1_555
H42_4 C76_4 1_555 1_555
C77_4 C55_4 1_555 1_555
H43_4 C77_4 1_555 1_555
C79_4 N10_4 1_555 1_555
C80_4 C67_4 1_555 1_555
H45_4 C81_4 1_555 1_555
C82_4 C58_4 1_555 1_555
H46_4 C82_4 1_555 1_555
C84_4 C64_4 1_555 1_555
H47_4 C84_4 1_555 1_555
C85_4 C61_4 1_555 1_555
H48_4 C85_4 1_555 1_555
C86_4 C93_4 1_555 1_555
C87_4 C80_4 1_555 1_555
C88_4 C76_4 1_555 1_555
H49_4 C88_4 1_555 1_555
C89_4 C28_4 1_555 1_555
H50_4 C89_4 1_555 1_555
C91_4 C23_4 1_555 1_555
H51_4 C91_4 1_555 1_555
C92_4 C75_4 1_555 1_555
H52_4 C92_4 1_555 1_555
C93_4 C63_4 1_555 1_555
H53_4 C93_4 1_555 1_555
C95_4 H54_4 1_555 1_555
C98_4 C53_4 1_555 1_555
H55_4 C98_4 1_555 1_555
H56_4 C99_4 1_555 1_555
C100_4 H57_4 1_555 1_555
C102_4 C66_4 1_555 1_555
N15_4 N16_4 1_555 1_555
C103_4 C73_4 1_555 1_555
H59_4 C103_4 1_555 1_555
C104_4 C100_4 1_555 1_555
H60_4 C104_4 1_555 1_555
C107_4 C67_4 1_555 1_555
C108_4 C86_4 1_555 1_555
H63_4 C108_4 1_555 1_555
N16_4 C117_4 1_555 1_555
C110_4 N19_2 1_555 1_555
H65_4 C110_4 1_555 1_555
C111_4 C102_4 1_555 1_555
C112_4 C91_4 1_555 1_555
H66_4 C112_4 1_555 1_555
C113_4 C114_4 1_555 1_555
C114_4 C111_4 1_555 1_555
C117_4 C87_4 1_555 1_555
C118_4 C58_4 1_555 1_555
H69_4 C118_4 1_555 1_555
C119_4 C71_4 1_555 1_555
H70_4 C119_4 1_555 1_555
C121_4 C61_4 1_555 1_555
H72_4 C121_4 1_555 1_555
C122_4 C107_4 1_555 1_555
N17_2 Co7_2 1_555 1_555
N20_2 Co12_2 1_555 1_555
O10_4 C5_4 1_555 1_555
O11_4 C14_4 1_555 1_555
O15_4 C15_4 1_555 1_555
C11_4 C18_4 1_555 1_555
C19_4 C40_4 1_555 1_555
C27_4 C31_4 1_555 1_555
C30_4 C44_4 1_555 1_555
C35_4 C37_4 1_555 1_555
C36_4 C55_4 1_555 1_555
C39_4 C60_4 1_555 1_555
C42_4 C46_4 1_555 1_555
C43_4 C47_4 1_555 1_555
C45_4 C69_4 1_555 1_555
C46_4 C48_4 1_555 1_555
C51_4 C52_4 1_555 1_555
C51_4 C59_4 1_555 1_555
C56_4 C57_4 1_555 1_555
C62_4 C72_4 1_555 1_555
C70_4 C77_4 1_555 1_555
C74_4 C103_4 1_555 1_555
C75_4 C81_4 1_555 1_555
C79_4 C84_4 1_555 1_555
C79_4 C88_4 1_555 1_555
C82_4 C85_4 1_555 1_555
C89_4 C108_4 1_555 1_555
C92_4 C99_4 1_555 1_555
C95_4 C98_4 1_555 1_555
C96_4 C112_4 1_555 1_555
N15_4 C111_4 1_555 1_555
C110_4 C119_4 1_555 1_555
C117_4 C122_4 1_555 1_555
C118_4 C121_4 1_555 1_555
C66_4 H73_4 1_555 1_555
C80_4 H74_4 1_555 1_555
C87_4 H75_4 1_555 1_555
C102_4 H76_4 1_555 1_555
C107_4 H77_4 1_555 1_555
C122_4 H78_4 1_555 1_555
C113_4 H79_4 1_555 1_555
C114_4 H80_4 1_555 1_555
N20_2 C78_4 1_555 1_555
C65_4 H37_4 1_555 1_555
C78_4 H44_4 1_555 1_555
C83_4 C65_4 1_555 1_555
C97_4 C83_4 1_555 1_555
C101_4 C78_4 1_555 1_555
H58_4 C101_4 1_555 1_555
C109_4 N20_2 1_555 1_555
H64_4 C109_4 1_555 1_555
C116_4 C97_4 1_555 1_555
H68_4 C116_4 1_555 1_555
C97_4 C101_4 1_555 1_555
C109_4 C116_4 1_555 1_555

#END
