
###############################################################################
#
# This file contains modified crystal structure data generated from the
# MOF subset of the Cambridge Structural Database (CSD) v543 
# hosted by the Cambridge Crystallographic Data Centre (CCDC).
#
# This work is licensed under the Creative Commons
# Attribution-NonCommercial-ShareAlike 4.0 International License.
# To view a copy of this license, visit
# http://creativecommons.org/licenses/by-nc-sa/4.0/
# or send a letter to
# Creative Commons, PO Box 1866, Mountain View, CA 94042, USA.
#
# CIF created using the CSD Python API on 29 September 2022
# The structure has been converted into the P1 space group
# The structure has a 3D framework
# The original CSD entry VIYJUL is in the rhombohedral crystal system
# The framework has been calculated to contain at least 10.0% void space
# The void calculation uses a probe of radius 1.32A, grid spacing 0.4
#
###############################################################################

data_VIYJUL
_chemical_formula_moiety         '(C288 H180 N36 O180 Zn36)n'
_symmetry_cell_setting           triclinic
_symmetry_space_group_name_H-M   'P 1'
_symmetry_Int_Tables_number      1
_space_group_name_Hall           'P 1'
loop_
_symmetry_equiv_pos_site_id
_symmetry_equiv_pos_as_xyz
1 x,y,z
_cell_length_a                   19.4629(7)
_cell_length_b                   19.4629(7)
_cell_length_c                   55.9302(18)
_cell_angle_alpha                90
_cell_angle_beta                 90
_cell_angle_gamma                120
_cell_volume                     18348.1
loop_
_atom_site_label
_atom_site_type_symbol
_atom_site_fract_x
_atom_site_fract_y
_atom_site_fract_z
Zn1 Zn 0.87665(4) 0.70970(4) 0.44038(2)
O1 O 0.4496(3) 0.3184(3) 0.40634(8)
O2 O 0.7257(4) 0.5520(3) 0.40877(9)
O3 O 0.7625(3) 0.6257(3) 0.44195(9)
O4 O 0.3809(3) 0.2841(4) 0.44057(8)
N1 N 0.5324(4) 0.5236(4) 0.49511(12)
C1 C 0.5736(4) 0.4528(4) 0.42845(12)
H1 H 0.583039 0.439527 0.412923
C2 C 0.6144(4) 0.5400(4) 0.46191(13)
H2 H 0.652964 0.586890 0.469731
C3 C 0.4379(4) 0.3300(6) 0.42785(11)
C4 C 0.5001(4) 0.4051(6) 0.43928(11)
C5 C 0.5420(4) 0.4942(4) 0.47238(14)
C6 C 0.4859(4) 0.4279(6) 0.46114(14)
H3 H 0.435682 0.396627 0.468547
C7 C 0.6329(4) 0.5190(4) 0.43985(13)
C8 C 0.7121(4) 0.5688(4) 0.42877(13)
O5 O 0.8873(4) 0.7374(4) 0.47368(8)
H4 H 0.880510 0.707578 0.485619
H5 H 0.899670 0.782108 0.479789
O6 O 0.2375(3) 0.3743(3) 0.55805(9)
N2 N 0.4676(4) 0.4764(4) 0.50489(12)
C9 C 0.4264(4) 0.5472(4) 0.57155(12)
H6 H 0.416961 0.560473 0.587077
C10 C 0.3856(4) 0.4600(4) 0.53809(13)
H7 H 0.347036 0.413110 0.530269
C11 C 0.4580(4) 0.5058(4) 0.52762(14)
C12 C 0.3671(4) 0.4810(4) 0.56015(13)
C13 C 0.2879(4) 0.4312(4) 0.57123(13)
O7 O 0.6191(3) 0.7159(4) 0.55943(8)
C14 C 0.5621(4) 0.6700(6) 0.57215(11)
C15 C 0.4999(4) 0.5949(6) 0.56072(11)
C16 C 0.5141(4) 0.5721(6) 0.53886(14)
H8 H 0.564318 0.603373 0.531453
O8 O 0.2743(4) 0.4480(3) 0.59123(9)
O9 O 0.5504(3) 0.6816(3) 0.59366(8)
Zn2 Zn 0.29030(4) 0.16695(6) 0.44038(2)
O10 O 0.2626(4) 0.1499(6) 0.47368(8)
H9 H 0.292422 0.172932 0.485619
H10 H 0.217892 0.117562 0.479789
Zn3 Zn 0.37637(4) 0.20998(4) 0.39295(2)
Zn4 Zn 0.83362(6) 0.62363(4) 0.39295(2)
Zn5 Zn 0.12335(4) 0.29030(4) 0.55962(2)
Zn6 Zn 0.70970(4) 0.83305(6) 0.55962(2)
Zn7 Zn 0.62363(4) 0.79002(4) 0.60705(2)
Zn8 Zn 0.16638(6) 0.37637(4) 0.60705(2)
O11 O 0.9851(3) 0.7829(3) 0.42699(8)
O12 O 0.2171(3) 0.2021(4) 0.42699(8)
O13 O 0.2187(3) 0.0590(4) 0.42456(9)
O14 O 0.8404(5) 0.7813(3) 0.42456(9)
O15 O 0.3743(3) 0.1368(4) 0.44195(9)
O16 O 0.9032(5) 0.6191(3) 0.44057(8)
O1_2 O 0.6816(3) 0.1312(4) 0.40634(8)
O2_2 O 0.4480(3) 0.1737(5) 0.40877(9)
O4_2 O 0.7159(4) 0.0968(5) 0.44057(8)
N1_2 N 0.4764(4) 0.0088(6) 0.49511(12)
C1_2 C 0.5472(4) 0.1208(6) 0.42845(12)
H1_2 H 0.560473 0.143512 0.412923
C2_2 C 0.4600(4) 0.0744(6) 0.46191(13)
H2_2 H 0.413110 0.066074 0.469731
C3_2 C 0.6700(6) 0.1079(7) 0.42785(11)
C4_2 C 0.5949(6) 0.0950(7) 0.43928(11)
C5_2 C 0.5058(4) 0.0478(6) 0.47238(14)
C6_2 C 0.5721(6) 0.0580(7) 0.46114(14)
H3_2 H 0.603373 0.039055 0.468547
C7_2 C 0.4810(4) 0.1139(6) 0.43985(13)
C8_2 C 0.4312(4) 0.1433(6) 0.42877(13)
Zn2_2 Zn 0.83305(6) 0.12335(7) 0.44038(2)
O10_2 O 0.8501(6) 0.1127(7) 0.47368(8)
H9_2 H 0.827068 0.119490 0.485619
H10_2 H 0.882438 0.100330 0.479789
Zn3_2 Zn 0.79002(4) 0.16638(6) 0.39295(2)
O12_2 O 0.7979(4) 0.0149(5) 0.42699(8)
O13_2 O 0.9410(4) 0.1596(5) 0.42456(9)
O15_2 O 0.8632(4) 0.2375(5) 0.44195(9)
O6_2 O 0.6257(3) 0.8632(4) 0.55805(9)
N2_2 N 0.5236(4) 0.9912(6) 0.50489(12)
C9_2 C 0.4528(4) 0.8792(6) 0.57155(12)
H6_2 H 0.439527 0.856488 0.587077
C10_2 C 0.5400(4) 0.9256(6) 0.53809(13)
H7_2 H 0.586890 0.933926 0.530269
C11_2 C 0.4942(4) 0.9522(6) 0.52762(14)
C12_2 C 0.5190(4) 0.8861(6) 0.56015(13)
C13_2 C 0.5688(4) 0.8567(6) 0.57123(13)
O7_2 O 0.2841(4) 0.9032(5) 0.55943(8)
C14_2 C 0.3300(6) 0.8921(7) 0.57215(11)
C15_2 C 0.4051(6) 0.9050(7) 0.56072(11)
C16_2 C 0.4279(6) 0.9420(7) 0.53886(14)
H8_2 H 0.396627 0.960945 0.531453
O8_2 O 0.5520(3) 0.8263(5) 0.59123(9)
O9_2 O 0.3184(3) 0.8688(4) 0.59366(8)
Zn6_2 Zn 0.16695(6) 0.87665(7) 0.55962(2)
Zn7_2 Zn 0.20998(4) 0.83362(6) 0.60705(2)
Zn1_2 Zn 0.70970(4) 0.87665(4) 0.05962(2)
O1_3 O 0.3184(3) 0.4496(3) 0.09366(8)
O2_3 O 0.5520(3) 0.7257(4) 0.09123(9)
O3_2 O 0.6257(3) 0.7625(3) 0.05805(9)
O4_3 O 0.2841(4) 0.3809(3) 0.05943(8)
N1_3 N 0.5236(4) 0.5324(4) 0.00489(12)
C1_3 C 0.4528(4) 0.5736(4) 0.07155(12)
H1_3 H 0.439527 0.583039 0.087077
C2_3 C 0.5400(4) 0.6144(4) 0.03809(13)
H2_3 H 0.586890 0.652964 0.030269
C3_3 C 0.3300(6) 0.4379(4) 0.07215(11)
C4_3 C 0.4051(6) 0.5001(4) 0.06072(11)
C5_3 C 0.4942(4) 0.5420(4) 0.02762(14)
C6_3 C 0.4279(6) 0.4859(4) 0.03886(14)
H3_3 H 0.396627 0.435682 0.031453
C7_3 C 0.5190(4) 0.6329(4) 0.06015(13)
C8_3 C 0.5688(4) 0.7121(4) 0.07123(13)
O5_2 O 0.7374(4) 0.8873(4) 0.02632(8)
H4_2 H 0.707578 0.880510 0.014381
H5_2 H 0.782108 0.899670 0.020211
Zn2_3 Zn 0.16695(6) 0.29030(4) 0.05962(2)
O10_3 O 0.1499(6) 0.2626(4) 0.02632(8)
H9_3 H 0.172932 0.292422 0.014381
H10_3 H 0.117562 0.217892 0.020211
Zn3_3 Zn 0.20998(4) 0.37637(4) 0.10705(2)
Zn4_2 Zn 0.62363(4) 0.83362(6) 0.10705(2)
O11_2 O 0.7829(3) 0.9851(3) 0.07301(8)
O12_3 O 0.2021(4) 0.2171(3) 0.07301(8)
O13_3 O 0.0590(4) 0.2187(3) 0.07544(9)
O14_2 O 0.7813(3) 0.8404(5) 0.07544(9)
O15_3 O 0.1368(4) 0.3743(3) 0.05805(9)
O16_2 O 0.6191(3) 0.9032(5) 0.05943(8)
O6_3 O 0.3743(3) 0.2375(3) 0.94195(9)
N2_3 N 0.4764(4) 0.4676(4) 0.99511(12)
C9_3 C 0.5472(4) 0.4264(4) 0.92845(12)
H6_3 H 0.560473 0.416961 0.912923
C10_3 C 0.4600(4) 0.3856(4) 0.96191(13)
H7_3 H 0.413110 0.347036 0.969731
C11_3 C 0.5058(4) 0.4580(4) 0.97238(14)
C12_3 C 0.4810(4) 0.3671(4) 0.93985(13)
C13_3 C 0.4312(4) 0.2879(4) 0.92877(13)
O7_3 O 0.7159(4) 0.6191(3) 0.94057(8)
C14_3 C 0.6700(6) 0.5621(4) 0.92785(11)
C15_3 C 0.5949(6) 0.4999(4) 0.93928(11)
C16_3 C 0.5721(6) 0.5141(4) 0.96114(14)
H8_3 H 0.603373 0.564318 0.968547
O8_3 O 0.4480(3) 0.2743(4) 0.90877(9)
O9_3 O 0.6816(3) 0.5504(3) 0.90634(8)
Zn5_2 Zn 0.29030(4) 0.12335(4) 0.94038(2)
Zn6_3 Zn 0.83305(6) 0.70970(4) 0.94038(2)
Zn7_3 Zn 0.79002(4) 0.62363(4) 0.89295(2)
Zn8_2 Zn 0.37637(4) 0.16638(6) 0.89295(2)
O6_4 O 0.1368(4) 0.7625(3) 0.55805(9)
N2_4 N 0.0088(6) 0.5324(4) 0.50489(12)
C9_4 C 0.1208(6) 0.5736(4) 0.57155(12)
H6_4 H 0.143512 0.583039 0.587077
C10_4 C 0.0744(6) 0.6144(4) 0.53809(13)
H7_4 H 0.066074 0.652964 0.530269
C11_4 C 0.0478(6) 0.5420(4) 0.52762(14)
C12_4 C 0.1139(6) 0.6329(4) 0.56015(13)
C13_4 C 0.1433(6) 0.7121(4) 0.57123(13)
O7_4 O 0.0968(5) 0.3809(3) 0.55943(8)
C14_4 C 0.1079(7) 0.4379(4) 0.57215(11)
C15_4 C 0.0950(7) 0.5001(4) 0.56072(11)
C16_4 C 0.0580(7) 0.4859(4) 0.53886(14)
H8_4 H 0.039055 0.435682 0.531453
O8_4 O 0.1737(5) 0.7257(4) 0.59123(9)
O9_4 O 0.1312(4) 0.4496(3) 0.59366(8)
O1_4 O 0.8688(4) 0.5504(3) 0.40634(8)
O2_4 O 0.8263(5) 0.2743(4) 0.40877(9)
N1_4 N 0.9912(6) 0.4676(4) 0.49511(12)
C1_4 C 0.8792(6) 0.4264(4) 0.42845(12)
H1_4 H 0.856488 0.416961 0.412923
C2_4 C 0.9256(6) 0.3856(4) 0.46191(13)
H2_4 H 0.933926 0.347036 0.469731
C3_4 C 0.8921(7) 0.5621(4) 0.42785(11)
C4_4 C 0.9050(7) 0.4999(4) 0.43928(11)
C5_4 C 0.9522(6) 0.4580(4) 0.47238(14)
C6_4 C 0.9420(7) 0.5141(4) 0.46114(14)
H3_4 H 0.960945 0.564318 0.468547
C7_4 C 0.8861(6) 0.3671(4) 0.43985(13)
C8_4 C 0.8567(6) 0.2879(4) 0.42877(13)
O1_5 O 0.1312(4) 0.6816(3) 0.09366(8)
O2_5 O 0.1737(5) 0.4480(3) 0.09123(9)
O4_4 O 0.0968(5) 0.7159(4) 0.05943(8)
N1_5 N 0.0088(6) 0.4764(4) 0.00489(12)
C1_5 C 0.1208(6) 0.5472(4) 0.07155(12)
H1_5 H 0.143512 0.560473 0.087077
C2_5 C 0.0744(6) 0.4600(4) 0.03809(13)
H2_5 H 0.066074 0.413110 0.030269
C3_5 C 0.1079(7) 0.6700(6) 0.07215(11)
C4_5 C 0.0950(7) 0.5949(6) 0.06072(11)
C5_5 C 0.0478(6) 0.5058(4) 0.02762(14)
C6_5 C 0.0580(7) 0.5721(6) 0.03886(14)
H3_5 H 0.039055 0.603373 0.031453
C7_5 C 0.1139(6) 0.4810(4) 0.06015(13)
C8_5 C 0.1433(6) 0.4312(4) 0.07123(13)
Zn2_4 Zn 0.12335(7) 0.83305(6) 0.05962(2)
O10_4 O 0.1127(7) 0.8501(6) 0.02632(8)
H9_4 H 0.119490 0.827068 0.014381
H10_4 H 0.100330 0.882438 0.020211
Zn3_4 Zn 0.16638(6) 0.79002(4) 0.10705(2)
O12_4 O 0.0149(5) 0.7979(4) 0.07301(8)
O13_4 O 0.1596(5) 0.9410(4) 0.07544(9)
O15_4 O 0.2375(5) 0.8632(4) 0.05805(9)
O6_5 O 0.8632(4) 0.6257(3) 0.94195(9)
N2_5 N 0.9912(6) 0.5236(4) 0.99511(12)
C9_5 C 0.8792(6) 0.4528(4) 0.92845(12)
H6_5 H 0.856488 0.439527 0.912923
C10_5 C 0.9256(6) 0.5400(4) 0.96191(13)
H7_5 H 0.933926 0.586890 0.969731
C11_5 C 0.9522(6) 0.4942(4) 0.97238(14)
C12_5 C 0.8861(6) 0.5190(4) 0.93985(13)
C13_5 C 0.8567(6) 0.5688(4) 0.92877(13)
O7_5 O 0.9032(5) 0.2841(4) 0.94057(8)
C14_5 C 0.8921(7) 0.3300(6) 0.92785(11)
C15_5 C 0.9050(7) 0.4051(6) 0.93928(11)
C16_5 C 0.9420(7) 0.4279(6) 0.96114(14)
H8_5 H 0.960945 0.396627 0.968547
O8_5 O 0.8263(5) 0.5520(3) 0.90877(9)
O9_5 O 0.8688(4) 0.3184(3) 0.90634(8)
Zn6_4 Zn 0.87665(7) 0.16695(6) 0.94038(2)
Zn7_4 Zn 0.83362(6) 0.20998(4) 0.89295(2)
O6_6 O 0.7625(3) 0.1368(4) 0.94195(9)
N2_6 N 0.5324(4) 0.0088(6) 0.99511(12)
C9_6 C 0.5736(4) 0.1208(6) 0.92845(12)
H6_6 H 0.583039 0.143512 0.912923
C10_6 C 0.6144(4) 0.0744(6) 0.96191(13)
H7_6 H 0.652964 0.066074 0.969731
C11_6 C 0.5420(4) 0.0478(6) 0.97238(14)
C12_6 C 0.6329(4) 0.1139(6) 0.93985(13)
C13_6 C 0.7121(4) 0.1433(6) 0.92877(13)
O7_6 O 0.3809(3) 0.0968(5) 0.94057(8)
C14_6 C 0.4379(4) 0.1079(7) 0.92785(11)
C15_6 C 0.5001(4) 0.0950(7) 0.93928(11)
C16_6 C 0.4859(4) 0.0580(7) 0.96114(14)
H8_6 H 0.435682 0.039055 0.968547
O8_6 O 0.7257(4) 0.1737(5) 0.90877(9)
O9_6 O 0.4496(3) 0.1312(4) 0.90634(8)
O1_6 O 0.5504(3) 0.8688(4) 0.09366(8)
O2_6 O 0.2743(4) 0.8263(5) 0.09123(9)
N1_6 N 0.4676(4) 0.9912(6) 0.00489(12)
C1_6 C 0.4264(4) 0.8792(6) 0.07155(12)
H1_6 H 0.416961 0.856488 0.087077
C2_6 C 0.3856(4) 0.9256(6) 0.03809(13)
H2_6 H 0.347036 0.933926 0.030269
C3_6 C 0.5621(4) 0.8921(7) 0.07215(11)
C4_6 C 0.4999(4) 0.9050(7) 0.06072(11)
C5_6 C 0.4580(4) 0.9522(6) 0.02762(14)
C6_6 C 0.5141(4) 0.9420(7) 0.03886(14)
H3_6 H 0.564318 0.960945 0.031453
C7_6 C 0.3671(4) 0.8861(6) 0.06015(13)
C8_6 C 0.2879(4) 0.8567(6) 0.07123(13)
Zn1_3 Zn 0.54332(4) 0.04303(4) 0.77371(2)
O5_3 O 0.5540(4) 0.0707(4) 0.80701(8)
H4_3 H 0.547177 0.040911 0.818952
H5_3 H 0.566337 0.115441 0.813122
O7_7 O 0.2858(3) 0.0492(4) 0.89276(8)
C14_7 C 0.2288(4) 0.0033(6) 0.90548(11)
O9_7 O 0.2171(3) 0.0149(3) 0.92699(8)
O11_3 O 0.6517(3) 0.1163(3) 0.76033(8)
O14_3 O 0.5070(5) 0.1147(3) 0.75790(9)
O1_7 O 0.1163(3) 0.6517(3) 0.73967(8)
O2_7 O 0.3924(4) 0.8853(3) 0.74210(9)
O3_3 O 0.4292(3) 0.9590(3) 0.77528(9)
O4_5 O 0.0476(3) 0.6174(4) 0.77390(8)
N1_7 N 0.1991(4) 0.8569(4) 0.82844(12)
C1_7 C 0.2403(4) 0.7861(4) 0.76178(12)
H1_7 H 0.249706 0.772860 0.746256
C2_7 C 0.2811(4) 0.8733(4) 0.79524(13)
H2_7 H 0.319631 0.920223 0.803064
C3_7 C 0.1046(4) 0.6633(6) 0.76118(11)
C4_7 C 0.1668(4) 0.7384(6) 0.77261(11)
C5_7 C 0.2087(4) 0.8275(4) 0.80571(14)
C6_7 C 0.1526(4) 0.7612(6) 0.79447(14)
H3_7 H 0.102349 0.729960 0.801880
C7_7 C 0.2996(4) 0.8523(4) 0.77318(13)
C8_7 C 0.3788(4) 0.9021(4) 0.76210(13)
N2_7 N 0.1343(4) 0.8097(4) 0.83822(12)
C9_7 C 0.0931(4) 0.8805(4) 0.90488(12)
H6_7 H 0.083628 0.893806 0.920410
C10_7 C 0.0523(4) 0.7933(4) 0.87142(13)
H7_7 H 0.013703 0.746443 0.863602
C11_7 C 0.1247(4) 0.8391(4) 0.86095(14)
C12_7 C 0.0338(4) 0.8143(4) 0.89348(13)
C15_7 C 0.1666(4) 0.9282(6) 0.89405(11)
C16_7 C 0.1808(4) 0.9054(6) 0.87219(14)
H8_7 H 0.230985 0.936706 0.864786
Zn3_5 Zn 0.04303(4) 0.54332(4) 0.72629(2)
Zn4_3 Zn 0.50028(6) 0.95697(4) 0.72629(2)
O15_5 O 0.0410(3) 0.4701(4) 0.77528(9)
O16_3 O 0.5699(5) 0.9524(3) 0.77390(8)
O6_7 O 0.9042(3) 0.7076(3) 0.89138(9)
C13_7 C 0.9546(4) 0.7645(4) 0.90456(13)
O8_7 O 0.9410(4) 0.7813(3) 0.92456(9)
Zn2_5 Zn 0.95697(4) 0.50028(6) 0.77371(2)
O10_5 O 0.9293(4) 0.4832(6) 0.80701(8)
H9_5 H 0.959089 0.506265 0.818952
H10_5 H 0.884559 0.450895 0.813122
O12_5 O 0.8837(3) 0.5355(4) 0.76033(8)
O13_5 O 0.8853(3) 0.3924(4) 0.75790(9)
O1_8 O 0.3483(3) 0.4645(4) 0.73967(8)
O2_8 O 0.1147(3) 0.5070(5) 0.74210(9)
O4_6 O 0.3826(4) 0.4301(5) 0.77390(8)
N1_8 N 0.1431(4) 0.3421(6) 0.82844(12)
C1_8 C 0.2139(4) 0.4541(6) 0.76178(12)
H1_8 H 0.227140 0.476845 0.746256
C2_8 C 0.1267(4) 0.4077(6) 0.79524(13)
H2_8 H 0.079777 0.399407 0.803064
C3_8 C 0.3367(6) 0.4412(7) 0.76118(11)
C4_8 C 0.2616(6) 0.4283(7) 0.77261(11)
C5_8 C 0.1725(4) 0.3811(6) 0.80571(14)
C6_8 C 0.2388(6) 0.3913(7) 0.79447(14)
H3_8 H 0.270040 0.372388 0.801880
C7_8 C 0.1477(4) 0.4472(6) 0.77318(13)
C8_8 C 0.0979(4) 0.4766(6) 0.76210(13)
O6_8 O 0.2924(3) 0.1965(4) 0.89138(9)
N2_8 N 0.1903(4) 0.3245(6) 0.83822(12)
C9_8 C 0.1195(4) 0.2125(6) 0.90488(12)
H6_8 H 0.106194 0.189821 0.920410
C10_8 C 0.2067(4) 0.2589(6) 0.87142(13)
H7_8 H 0.253557 0.267259 0.863602
C11_8 C 0.1609(4) 0.2855(6) 0.86095(14)
C12_8 C 0.1857(4) 0.2194(6) 0.89348(13)
C13_8 C 0.2355(4) 0.1900(6) 0.90456(13)
C15_8 C 0.0718(6) 0.2383(7) 0.89405(11)
C16_8 C 0.0946(6) 0.2753(7) 0.87219(14)
H8_8 H 0.063294 0.294278 0.864786
O8_8 O 0.2187(3) 0.1596(5) 0.92456(9)
Zn2_6 Zn 0.49972(6) 0.45668(7) 0.77371(2)
O10_6 O 0.5168(6) 0.4460(7) 0.80701(8)
H9_6 H 0.493735 0.452823 0.818952
H10_6 H 0.549105 0.433663 0.813122
Zn3_6 Zn 0.45668(4) 0.49972(6) 0.72629(2)
O12_6 O 0.4645(4) 0.3483(5) 0.76033(8)
O13_6 O 0.6076(4) 0.4930(5) 0.75790(9)
O15_6 O 0.5299(4) 0.5708(5) 0.77528(9)
O7_8 O 0.9508(4) 0.2365(5) 0.89276(8)
C14_8 C 0.9967(6) 0.2254(7) 0.90548(11)
O9_8 O 0.9851(3) 0.2021(4) 0.92699(8)
O3_4 O 0.2924(3) 0.0958(3) 0.39138(9)
C8_9 C 0.2355(4) 0.0454(4) 0.40456(13)
O5_4 O 0.4041(4) 0.2206(4) 0.35965(8)
H4_4 H 0.374245 0.213843 0.347714
H5_4 H 0.448775 0.233003 0.353544
Zn6_5 Zn 0.49972(6) 0.04303(4) 0.27371(2)
O16_4 O 0.2858(3) 0.2365(5) 0.39276(8)
N1_9 N 0.1903(4) 0.8657(4) 0.33822(12)
C1_9 C 0.1195(4) 0.9069(4) 0.40488(12)
H1_9 H 0.106194 0.916372 0.420410
C2_9 C 0.2067(4) 0.9477(4) 0.37142(13)
H2_9 H 0.253557 0.986297 0.363602
C4_9 C 0.0718(6) 0.8334(4) 0.39405(11)
C5_9 C 0.1609(4) 0.8753(4) 0.36095(14)
C6_9 C 0.0946(6) 0.8192(4) 0.37219(14)
H3_9 H 0.063294 0.769015 0.364786
C7_9 C 0.1857(4) 0.9662(4) 0.39348(13)
O6_9 O 0.0410(3) 0.5708(3) 0.27528(9)
N2_9 N 0.1431(4) 0.8009(4) 0.32844(12)
C9_9 C 0.2139(4) 0.7597(4) 0.26178(12)
H6_9 H 0.227140 0.750294 0.246256
C10_9 C 0.1267(4) 0.7189(4) 0.29524(13)
H7_9 H 0.079777 0.680369 0.303064
C11_9 C 0.1725(4) 0.7913(4) 0.30571(14)
C12_9 C 0.1477(4) 0.7004(4) 0.27318(13)
C13_9 C 0.0979(4) 0.6212(4) 0.26210(13)
O7_9 O 0.3826(4) 0.9524(3) 0.27390(8)
C14_9 C 0.3367(6) 0.8954(4) 0.26118(11)
C15_9 C 0.2616(6) 0.8332(4) 0.27261(11)
C16_9 C 0.2388(6) 0.8474(4) 0.29447(14)
H8_9 H 0.270040 0.897651 0.301880
O8_9 O 0.1147(3) 0.6076(4) 0.24210(9)
O9_9 O 0.3483(3) 0.8837(3) 0.23967(8)
Zn7_5 Zn 0.45668(4) 0.95697(4) 0.22629(2)
Zn8_3 Zn 0.04303(4) 0.49972(6) 0.22629(2)
O4_7 O 0.9508(4) 0.7142(3) 0.39276(8)
C3_9 C 0.9967(6) 0.7712(4) 0.40548(11)
O10_7 O 0.8166(6) 0.5959(4) 0.35965(8)
H9_7 H 0.839599 0.625755 0.347714
H10_7 H 0.784229 0.551225 0.353544
Zn5_3 Zn 0.95697(4) 0.45668(4) 0.27371(2)
O15_7 O 0.8035(4) 0.7076(3) 0.39138(9)
O6_10 O 0.8035(4) 0.0958(3) 0.89138(9)
C13_10 C 0.8100(6) 0.0454(4) 0.90456(13)
O8_10 O 0.8404(5) 0.0590(4) 0.92456(9)
O1_9 O 0.5355(4) 0.8837(3) 0.73967(8)
O2_9 O 0.4930(5) 0.6076(4) 0.74210(9)
N1_10 N 0.6579(6) 0.8009(4) 0.82844(12)
C1_10 C 0.5459(6) 0.7597(4) 0.76178(12)
H1_10 H 0.523155 0.750294 0.746256
C2_10 C 0.5923(6) 0.7189(4) 0.79524(13)
H2_10 H 0.600593 0.680369 0.803064
C3_10 C 0.5588(7) 0.8954(4) 0.76118(11)
C4_10 C 0.5717(7) 0.8332(4) 0.77261(11)
C5_10 C 0.6189(6) 0.7913(4) 0.80571(14)
C6_10 C 0.6087(7) 0.8474(4) 0.79447(14)
H3_10 H 0.627612 0.897651 0.801880
C7_10 C 0.5528(6) 0.7004(4) 0.77318(13)
C8_10 C 0.5234(6) 0.6212(4) 0.76210(13)
N2_10 N 0.6755(6) 0.8657(4) 0.83822(12)
C9_10 C 0.7875(6) 0.9069(4) 0.90488(12)
H6_10 H 0.810179 0.916372 0.920410
C10_10 C 0.7411(6) 0.9477(4) 0.87142(13)
H7_10 H 0.732741 0.986297 0.863602
C11_10 C 0.7145(6) 0.8753(4) 0.86095(14)
C12_10 C 0.7806(6) 0.9662(4) 0.89348(13)
O7_10 O 0.7635(5) 0.7142(3) 0.89276(8)
C14_10 C 0.7746(7) 0.7712(4) 0.90548(11)
C15_10 C 0.7617(7) 0.8334(4) 0.89405(11)
C16_10 C 0.7247(7) 0.8192(4) 0.87219(14)
H8_10 H 0.705722 0.769015 0.864786
O9_10 O 0.7979(4) 0.7829(3) 0.92699(8)
O4_8 O 0.7635(5) 0.0492(4) 0.39276(8)
C3_11 C 0.7746(7) 0.0033(6) 0.40548(11)
O10_8 O 0.7794(7) 0.1834(6) 0.35965(8)
H9_8 H 0.786157 0.160401 0.347714
H10_8 H 0.766997 0.215771 0.353544
O15_8 O 0.9042(5) 0.1965(4) 0.39138(9)
N1_11 N 0.6755(6) 0.8097(4) 0.33822(12)
C1_11 C 0.7875(6) 0.8805(4) 0.40488(12)
H1_11 H 0.810179 0.893806 0.420410
C2_11 C 0.7411(6) 0.7933(4) 0.37142(13)
H2_11 H 0.732741 0.746443 0.363602
C4_11 C 0.7617(7) 0.9282(6) 0.39405(11)
C5_11 C 0.7145(6) 0.8391(4) 0.36095(14)
C6_11 C 0.7247(7) 0.9054(6) 0.37219(14)
H3_11 H 0.705722 0.936706 0.364786
C7_11 C 0.7806(6) 0.8143(4) 0.39348(13)
C8_11 C 0.8100(6) 0.7645(4) 0.40456(13)
O6_11 O 0.5299(4) 0.9590(3) 0.27528(9)
N2_11 N 0.6579(6) 0.8569(4) 0.32844(12)
C9_11 C 0.5459(6) 0.7861(4) 0.26178(12)
H6_11 H 0.523155 0.772860 0.246256
C10_11 C 0.5923(6) 0.8733(4) 0.29524(13)
H7_11 H 0.600593 0.920223 0.303064
C11_11 C 0.6189(6) 0.8275(4) 0.30571(14)
C12_11 C 0.5528(6) 0.8523(4) 0.27318(13)
C13_11 C 0.5234(6) 0.9021(4) 0.26210(13)
O7_11 O 0.5699(5) 0.6174(4) 0.27390(8)
C14_11 C 0.5588(7) 0.6633(6) 0.26118(11)
C15_11 C 0.5717(7) 0.7384(6) 0.27261(11)
C16_11 C 0.6087(7) 0.7612(6) 0.29447(14)
H8_11 H 0.627612 0.729960 0.301880
O8_11 O 0.4930(5) 0.8853(3) 0.24210(9)
O9_11 O 0.5355(4) 0.6517(3) 0.23967(8)
Zn6_6 Zn 0.54332(7) 0.50028(6) 0.27371(2)
Zn7_6 Zn 0.50028(6) 0.54332(4) 0.22629(2)
N1_12 N 0.1343(4) 0.3245(6) 0.33822(12)
C1_12 C 0.0931(4) 0.2125(6) 0.40488(12)
H1_12 H 0.083628 0.189821 0.420410
C2_12 C 0.0523(4) 0.2589(6) 0.37142(13)
H2_12 H 0.013703 0.267259 0.363602
C3_12 C 0.2288(4) 0.2254(7) 0.40548(11)
C4_12 C 0.1666(4) 0.2383(7) 0.39405(11)
C5_12 C 0.1247(4) 0.2855(6) 0.36095(14)
C6_12 C 0.1808(4) 0.2753(7) 0.37219(14)
H3_12 H 0.230985 0.294278 0.364786
C7_12 C 0.0338(4) 0.2194(6) 0.39348(13)
O6_12 O 0.4292(3) 0.4701(4) 0.27528(9)
N2_12 N 0.1991(4) 0.3421(6) 0.32844(12)
C9_12 C 0.2403(4) 0.4541(6) 0.26178(12)
H6_12 H 0.249706 0.476845 0.246256
C10_12 C 0.2811(4) 0.4077(6) 0.29524(13)
H7_12 H 0.319631 0.399407 0.303064
C11_12 C 0.2087(4) 0.3811(6) 0.30571(14)
C12_12 C 0.2996(4) 0.4472(6) 0.27318(13)
C13_12 C 0.3788(4) 0.4766(6) 0.26210(13)
O7_12 O 0.0476(3) 0.4301(5) 0.27390(8)
C14_12 C 0.1046(4) 0.4412(7) 0.26118(11)
C15_12 C 0.1668(4) 0.4283(7) 0.27261(11)
C16_12 C 0.1526(4) 0.3913(7) 0.29447(14)
H8_12 H 0.102349 0.372388 0.301880
O8_12 O 0.3924(4) 0.5070(5) 0.24210(9)
O9_12 O 0.1163(3) 0.4645(4) 0.23967(8)
C8_12 C 0.9546(4) 0.1900(6) 0.40456(13)
O3_5 O 0.0958(3) 0.2924(3) 0.10862(9)
C8_13 C 0.0454(4) 0.2355(4) 0.09544(13)
O5_5 O 0.2206(4) 0.4041(4) 0.14035(8)
H4_5 H 0.213843 0.374245 0.152286
H5_5 H 0.233003 0.448775 0.146456
O16_5 O 0.2365(5) 0.2858(3) 0.10724(8)
N1_13 N 0.8657(4) 0.1903(4) 0.16178(12)
C1_13 C 0.9069(4) 0.1195(4) 0.09512(12)
H1_13 H 0.916372 0.106194 0.079590
C2_13 C 0.9477(4) 0.2067(4) 0.12858(13)
H2_13 H 0.986297 0.253557 0.136398
C4_13 C 0.8334(4) 0.0718(6) 0.10595(11)
C5_13 C 0.8753(4) 0.1609(4) 0.13905(14)
C6_13 C 0.8192(4) 0.0946(6) 0.12781(14)
H3_13 H 0.769015 0.063294 0.135214
C7_13 C 0.9662(4) 0.1857(4) 0.10652(13)
O6_13 O 0.5708(3) 0.0410(3) 0.22472(9)
N2_13 N 0.8009(4) 0.1431(4) 0.17156(12)
C9_13 C 0.7597(4) 0.2139(4) 0.23822(12)
H6_13 H 0.750294 0.227140 0.253744
C10_13 C 0.7189(4) 0.1267(4) 0.20476(13)
H7_13 H 0.680369 0.079777 0.196936
C11_13 C 0.7913(4) 0.1725(4) 0.19429(14)
C12_13 C 0.7004(4) 0.1477(4) 0.22682(13)
C13_13 C 0.6212(4) 0.0979(4) 0.23790(13)
O7_13 O 0.9524(3) 0.3826(4) 0.22610(8)
C14_13 C 0.8954(4) 0.3367(6) 0.23882(11)
C15_13 C 0.8332(4) 0.2616(6) 0.22739(11)
C16_13 C 0.8474(4) 0.2388(6) 0.20553(14)
H8_13 H 0.897651 0.270040 0.198120
O8_13 O 0.6076(4) 0.1147(3) 0.25790(9)
O9_13 O 0.8837(3) 0.3483(3) 0.26033(8)
O4_9 O 0.7142(3) 0.9508(4) 0.10724(8)
C3_13 C 0.7712(4) 0.9967(6) 0.09452(11)
O10_9 O 0.5959(4) 0.8166(6) 0.14035(8)
H9_9 H 0.625755 0.839599 0.152286
H10_9 H 0.551225 0.784229 0.146456
O15_9 O 0.7076(3) 0.8035(4) 0.10862(9)
O4_10 O 0.0492(4) 0.7635(5) 0.10724(8)
C3_14 C 0.0033(6) 0.7746(7) 0.09452(11)
O10_10 O 0.1834(6) 0.7794(7) 0.14035(8)
H9_10 H 0.160401 0.786157 0.152286
H10_10 H 0.215771 0.766997 0.146456
O15_10 O 0.1965(4) 0.9042(5) 0.10862(9)
N1_14 N 0.8097(4) 0.6755(6) 0.16178(12)
C1_14 C 0.8805(4) 0.7875(6) 0.09512(12)
H1_14 H 0.893806 0.810179 0.079590
C2_14 C 0.7933(4) 0.7411(6) 0.12858(13)
H2_14 H 0.746443 0.732741 0.136398
C4_14 C 0.9282(6) 0.7617(7) 0.10595(11)
C5_14 C 0.8391(4) 0.7145(6) 0.13905(14)
C6_14 C 0.9054(6) 0.7247(7) 0.12781(14)
H3_14 H 0.936706 0.705722 0.135214
C7_14 C 0.8143(4) 0.7806(6) 0.10652(13)
C8_14 C 0.7645(4) 0.8100(6) 0.09544(13)
O6_14 O 0.9590(3) 0.5299(4) 0.22472(9)
N2_14 N 0.8569(4) 0.6579(6) 0.17156(12)
C9_14 C 0.7861(4) 0.5459(6) 0.23822(12)
H6_14 H 0.772860 0.523155 0.253744
C10_14 C 0.8733(4) 0.5923(6) 0.20476(13)
H7_14 H 0.920223 0.600593 0.196936
C11_14 C 0.8275(4) 0.6189(6) 0.19429(14)
C12_14 C 0.8523(4) 0.5528(6) 0.22682(13)
C13_14 C 0.9021(4) 0.5234(6) 0.23790(13)
O7_14 O 0.6174(4) 0.5699(5) 0.22610(8)
C14_14 C 0.6633(6) 0.5588(7) 0.23882(11)
C15_14 C 0.7384(6) 0.5717(7) 0.22739(11)
C16_14 C 0.7612(6) 0.6087(7) 0.20553(14)
H8_14 H 0.729960 0.627612 0.198120
O8_14 O 0.8853(3) 0.4930(5) 0.25790(9)
O9_14 O 0.6517(3) 0.5355(4) 0.26033(8)
O5_6 O 0.0707(4) 0.5540(4) 0.69299(8)
H4_6 H 0.040911 0.547177 0.681048
H5_6 H 0.115441 0.566337 0.686878
O7_15 O 0.0492(4) 0.2858(3) 0.60724(8)
C14_15 C 0.0033(6) 0.2288(4) 0.59452(11)
O9_15 O 0.0149(3) 0.2171(3) 0.57301(8)
O3_6 O 0.9590(3) 0.4292(3) 0.72472(9)
O4_11 O 0.6174(4) 0.0476(3) 0.72610(8)
N1_15 N 0.8569(4) 0.1991(4) 0.67156(12)
C1_15 C 0.7861(4) 0.2403(4) 0.73822(12)
H1_15 H 0.772860 0.249706 0.753744
C2_15 C 0.8733(4) 0.2811(4) 0.70476(13)
H2_15 H 0.920223 0.319631 0.696936
C3_15 C 0.6633(6) 0.1046(4) 0.73882(11)
C4_15 C 0.7384(6) 0.1668(4) 0.72739(11)
C5_15 C 0.8275(4) 0.2087(4) 0.69429(14)
C6_15 C 0.7612(6) 0.1526(4) 0.70553(14)
H3_15 H 0.729960 0.102349 0.698120
C7_15 C 0.8523(4) 0.2996(4) 0.72682(13)
C8_15 C 0.9021(4) 0.3788(4) 0.73790(13)
N2_15 N 0.8097(4) 0.1343(4) 0.66178(12)
C9_15 C 0.8805(4) 0.0931(4) 0.59512(12)
H6_15 H 0.893806 0.083628 0.579590
C10_15 C 0.7933(4) 0.0523(4) 0.62858(13)
H7_15 H 0.746443 0.013703 0.636398
C11_15 C 0.8391(4) 0.1247(4) 0.63905(14)
C12_15 C 0.8143(4) 0.0338(4) 0.60652(13)
C15_15 C 0.9282(6) 0.1666(4) 0.60595(11)
C16_15 C 0.9054(6) 0.1808(4) 0.62781(14)
H8_15 H 0.936706 0.230985 0.635214
O15_11 O 0.4701(4) 0.0410(3) 0.72472(9)
O16_6 O 0.9524(3) 0.5699(5) 0.72610(8)
O6_15 O 0.7076(3) 0.9042(3) 0.60862(9)
C13_15 C 0.7645(4) 0.9546(4) 0.59544(13)
O8_15 O 0.7813(3) 0.9410(4) 0.57544(9)
O10_11 O 0.4832(6) 0.9293(4) 0.69299(8)
H9_11 H 0.506265 0.959089 0.681048
H10_11 H 0.450895 0.884559 0.686878
N1_16 N 0.3245(6) 0.1343(4) 0.16178(12)
C1_16 C 0.2125(6) 0.0931(4) 0.09512(12)
H1_16 H 0.189821 0.083628 0.079590
C2_16 C 0.2589(6) 0.0523(4) 0.12858(13)
H2_16 H 0.267259 0.013703 0.136398
C3_16 C 0.2254(7) 0.2288(4) 0.09452(11)
C4_16 C 0.2383(7) 0.1666(4) 0.10595(11)
C5_16 C 0.2855(6) 0.1247(4) 0.13905(14)
C6_16 C 0.2753(7) 0.1808(4) 0.12781(14)
H3_16 H 0.294278 0.230985 0.135214
C7_16 C 0.2194(6) 0.0338(4) 0.10652(13)
O6_16 O 0.4701(4) 0.4292(3) 0.22472(9)
N2_16 N 0.3421(6) 0.1991(4) 0.17156(12)
C9_16 C 0.4541(6) 0.2403(4) 0.23822(12)
H6_16 H 0.476845 0.249706 0.253744
C10_16 C 0.4077(6) 0.2811(4) 0.20476(13)
H7_16 H 0.399407 0.319631 0.196936
C11_16 C 0.3811(6) 0.2087(4) 0.19429(14)
C12_16 C 0.4472(6) 0.2996(4) 0.22682(13)
C13_16 C 0.4766(6) 0.3788(4) 0.23790(13)
O7_16 O 0.4301(5) 0.0476(3) 0.22610(8)
C14_16 C 0.4412(7) 0.1046(4) 0.23882(11)
C15_16 C 0.4283(7) 0.1668(4) 0.22739(11)
C16_16 C 0.3913(7) 0.1526(4) 0.20553(14)
H8_16 H 0.372388 0.102349 0.198120
O8_16 O 0.5070(5) 0.3924(4) 0.25790(9)
O9_16 O 0.4645(4) 0.1163(3) 0.26033(8)
C8_16 C 0.1900(6) 0.9546(4) 0.09544(13)
O4_12 O 0.4301(5) 0.3826(4) 0.72610(8)
N1_17 N 0.3421(6) 0.1431(4) 0.67156(12)
C1_17 C 0.4541(6) 0.2139(4) 0.73822(12)
H1_17 H 0.476845 0.227140 0.753744
C2_17 C 0.4077(6) 0.1267(4) 0.70476(13)
H2_17 H 0.399407 0.079777 0.696936
C3_17 C 0.4412(7) 0.3367(6) 0.73882(11)
C4_17 C 0.4283(7) 0.2616(6) 0.72739(11)
C5_17 C 0.3811(6) 0.1725(4) 0.69429(14)
C6_17 C 0.3913(7) 0.2388(6) 0.70553(14)
H3_17 H 0.372388 0.270040 0.698120
C7_17 C 0.4472(6) 0.1477(4) 0.72682(13)
C8_17 C 0.4766(6) 0.0979(4) 0.73790(13)
O6_17 O 0.1965(4) 0.2924(3) 0.60862(9)
N2_17 N 0.3245(6) 0.1903(4) 0.66178(12)
C9_17 C 0.2125(6) 0.1195(4) 0.59512(12)
H6_17 H 0.189821 0.106194 0.579590
C10_17 C 0.2589(6) 0.2067(4) 0.62858(13)
H7_17 H 0.267259 0.253557 0.636398
C11_17 C 0.2855(6) 0.1609(4) 0.63905(14)
C12_17 C 0.2194(6) 0.1857(4) 0.60652(13)
C13_17 C 0.1900(6) 0.2355(4) 0.59544(13)
C15_17 C 0.2383(7) 0.0718(6) 0.60595(11)
C16_17 C 0.2753(7) 0.0946(6) 0.62781(14)
H8_17 H 0.294278 0.063294 0.635214
O8_17 O 0.1596(5) 0.2187(3) 0.57544(9)
O10_12 O 0.4460(7) 0.5168(6) 0.69299(8)
H9_12 H 0.452823 0.493735 0.681048
H10_12 H 0.433663 0.549105 0.686878
O15_12 O 0.5708(5) 0.5299(4) 0.72472(9)
O7_17 O 0.2365(5) 0.9508(4) 0.60724(8)
C14_17 C 0.2254(7) 0.9967(6) 0.59452(11)
O9_17 O 0.2021(4) 0.9851(3) 0.57301(8)
O6_18 O 0.0958(3) 0.8035(4) 0.60862(9)
C13_18 C 0.0454(4) 0.8100(6) 0.59544(13)
O8_18 O 0.0590(4) 0.8404(5) 0.57544(9)
N1_18 N 0.8009(4) 0.6579(6) 0.67156(12)
C1_18 C 0.7597(4) 0.5459(6) 0.73822(12)
H1_18 H 0.750294 0.523155 0.753744
C2_18 C 0.7189(4) 0.5923(6) 0.70476(13)
H2_18 H 0.680369 0.600593 0.696936
C3_18 C 0.8954(4) 0.5588(7) 0.73882(11)
C4_18 C 0.8332(4) 0.5717(7) 0.72739(11)
C5_18 C 0.7913(4) 0.6189(6) 0.69429(14)
C6_18 C 0.8474(4) 0.6087(7) 0.70553(14)
H3_18 H 0.897651 0.627612 0.698120
C7_18 C 0.7004(4) 0.5528(6) 0.72682(13)
C8_18 C 0.6212(4) 0.5234(6) 0.73790(13)
N2_18 N 0.8657(4) 0.6755(6) 0.66178(12)
C9_18 C 0.9069(4) 0.7875(6) 0.59512(12)
H6_18 H 0.916372 0.810179 0.579590
C10_18 C 0.9477(4) 0.7411(6) 0.62858(13)
H7_18 H 0.986297 0.732741 0.636398
C11_18 C 0.8753(4) 0.7145(6) 0.63905(14)
C12_18 C 0.9662(4) 0.7806(6) 0.60652(13)
O7_18 O 0.7142(3) 0.7635(5) 0.60724(8)
C14_18 C 0.7712(4) 0.7746(7) 0.59452(11)
C15_18 C 0.8334(4) 0.7617(7) 0.60595(11)
C16_18 C 0.8192(4) 0.7247(7) 0.62781(14)
H8_18 H 0.769015 0.705722 0.635214
O9_18 O 0.7829(3) 0.7979(4) 0.57301(8)
O5_7 O 0.1127(4) 0.2626(4) 0.52632(8)
H4_7 H 0.119490 0.292422 0.514381
H5_7 H 0.100330 0.217892 0.520211
O10_13 O 0.7374(4) 0.8501(6) 0.52632(8)
H9_13 H 0.707578 0.827068 0.514381
H10_13 H 0.782108 0.882438 0.520211
O10_14 O 0.1499(6) 0.8873(7) 0.52632(8)
H9_14 H 0.172932 0.880510 0.514381
H10_14 H 0.117562 0.899670 0.520211
O5_8 O 0.2626(4) 0.1127(4) 0.97368(8)
H4_8 H 0.292422 0.119490 0.985619
H5_8 H 0.217892 0.100330 0.979789
O10_15 O 0.8501(6) 0.7374(4) 0.97368(8)
H9_15 H 0.827068 0.707578 0.985619
H10_15 H 0.882438 0.782108 0.979789
O10_16 O 0.8873(7) 0.1499(6) 0.97368(8)
H9_16 H 0.880510 0.172932 0.985619
H10_16 H 0.899670 0.117562 0.979789
O10_17 O 0.0707(4) 0.5168(6) 0.19299(8)
H9_17 H 0.040911 0.493735 0.181048
H10_17 H 0.115441 0.549105 0.186878
O5_9 O 0.4460(4) 0.9293(4) 0.19299(8)
H4_9 H 0.452823 0.959089 0.181048
H5_9 H 0.433663 0.884559 0.186878
O10_18 O 0.4832(6) 0.5540(7) 0.19299(8)
H9_18 H 0.506265 0.547177 0.181048
H10_18 H 0.450895 0.566337 0.186878
O10_19 O 0.1834(6) 0.4041(4) 0.64035(8)
H9_19 H 0.160401 0.374245 0.652286
H10_19 H 0.215771 0.448775 0.646456
O5_10 O 0.5959(4) 0.7794(4) 0.64035(8)
H4_10 H 0.625755 0.786157 0.652286
H5_10 H 0.551225 0.766997 0.646456
O10_20 O 0.2206(7) 0.8166(6) 0.64035(8)
H9_20 H 0.213843 0.839599 0.652286
H10_20 H 0.233003 0.784229 0.646456
O10_21 O 0.4041(4) 0.1834(6) 0.85965(8)
H9_21 H 0.374245 0.160401 0.847714
H10_21 H 0.448775 0.215771 0.853544
O5_11 O 0.7794(4) 0.5959(4) 0.85965(8)
H4_11 H 0.786157 0.625755 0.847714
H5_11 H 0.766997 0.551225 0.853544
O10_22 O 0.8166(6) 0.2206(7) 0.85965(8)
H9_22 H 0.839599 0.213843 0.847714
H10_22 H 0.784229 0.233003 0.853544
O10_23 O 0.5168(6) 0.0707(4) 0.30701(8)
H9_23 H 0.493735 0.040911 0.318952
H10_23 H 0.549105 0.115441 0.313122
O5_12 O 0.9293(4) 0.4460(4) 0.30701(8)
H4_12 H 0.959089 0.452823 0.318952
H5_12 H 0.884559 0.433663 0.313122
O10_24 O 0.5540(7) 0.4832(6) 0.30701(8)
H9_24 H 0.547177 0.506265 0.318952
H10_24 H 0.566337 0.450895 0.313122
loop_
_geom_bond_atom_site_label_1
_geom_bond_atom_site_label_2
_geom_bond_site_symmetry_1
_geom_bond_site_symmetry_2
Zn1 O3 1_555 1_555
O1 C3 1_555 1_555
O2 C8 1_555 1_555
O3 C8 1_555 1_555
O4 C3 1_555 1_555
N1 C5 1_555 1_555
C1 H1 1_555 1_555
C2 H2 1_555 1_555
C3 C4 1_555 1_555
C4 C1 1_555 1_555
C5 C2 1_555 1_555
C6 C4 1_555 1_555
H3 C6 1_555 1_555
C7 C1 1_555 1_555
C8 C7 1_555 1_555
O5 Zn1 1_555 1_555
H4 O5 1_555 1_555
H5 O5 1_555 1_555
O6 C13 1_555 1_555
N2 N1 1_555 1_555
C9 H6 1_555 1_555
C10 H7 1_555 1_555
C11 N2 1_555 1_555
C12 C9 1_555 1_555
C13 C12 1_555 1_555
O7 C14 1_555 1_555
C14 C15 1_555 1_555
C15 C9 1_555 1_555
C16 C11 1_555 1_555
H8 C16 1_555 1_555
O8 C13 1_555 1_555
O9 C14 1_555 1_555
Zn2 O4 1_555 1_555
O10 Zn2 1_555 1_555
H9 O10 1_555 1_555
H10 O10 1_555 1_555
Zn3 O1 1_555 1_555
Zn4 O2 1_555 1_555
Zn5 O6 1_555 1_555
Zn6 O7 1_555 1_555
Zn7 O9 1_555 1_555
Zn8 O8 1_555 1_555
O11 Zn1 1_555 1_555
O12 Zn2 1_555 1_555
O13 Zn2 1_555 1_555
O14 Zn1 1_555 1_555
O15 Zn2 1_555 1_555
O16 Zn1 1_555 1_555
C2 C7 1_555 1_555
C5 C6 1_555 1_555
C10 C11 1_555 1_555
C10 C12 1_555 1_555
C15 C16 1_555 1_555
O1_2 C3_2 1_555 1_555
O2_2 C8_2 1_555 1_555
O15 C8_2 1_555 1_555
O4_2 C3_2 1_555 1_555
N1_2 C5_2 1_555 1_555
C1_2 H1_2 1_555 1_555
C2_2 H2_2 1_555 1_555
C3_2 C4_2 1_555 1_555
C4_2 C1_2 1_555 1_555
C5_2 C2_2 1_555 1_555
C6_2 C4_2 1_555 1_555
H3_2 C6_2 1_555 1_555
C7_2 C1_2 1_555 1_555
C8_2 C7_2 1_555 1_555
Zn2_2 O4_2 1_555 1_555
O10_2 Zn2_2 1_555 1_555
H9_2 O10_2 1_555 1_555
H10_2 O10_2 1_555 1_555
Zn3_2 O1_2 1_555 1_555
Zn3 O2_2 1_555 1_555
O12_2 Zn2_2 1_555 1_555
O13_2 Zn2_2 1_555 1_555
O15_2 Zn2_2 1_555 1_555
C2_2 C7_2 1_555 1_555
C5_2 C6_2 1_555 1_555
O6_2 C13_2 1_555 1_555
C9_2 H6_2 1_555 1_555
C10_2 H7_2 1_555 1_555
C11_2 N2_2 1_555 1_555
C12_2 C9_2 1_555 1_555
C13_2 C12_2 1_555 1_555
O7_2 C14_2 1_555 1_555
C14_2 C15_2 1_555 1_555
C15_2 C9_2 1_555 1_555
C16_2 C11_2 1_555 1_555
H8_2 C16_2 1_555 1_555
O8_2 C13_2 1_555 1_555
O9_2 C14_2 1_555 1_555
Zn6 O6_2 1_555 1_555
Zn6_2 O7_2 1_555 1_555
Zn7_2 O9_2 1_555 1_555
Zn7 O8_2 1_555 1_555
C10_2 C11_2 1_555 1_555
C10_2 C12_2 1_555 1_555
C15_2 C16_2 1_555 1_555
Zn1_2 O3_2 1_555 1_555
O1_3 C3_3 1_555 1_555
O2_3 C8_3 1_555 1_555
O3_2 C8_3 1_555 1_555
O4_3 C3_3 1_555 1_555
N1_3 C5_3 1_555 1_555
C1_3 H1_3 1_555 1_555
C2_3 H2_3 1_555 1_555
C3_3 C4_3 1_555 1_555
C4_3 C1_3 1_555 1_555
C5_3 C2_3 1_555 1_555
C6_3 C4_3 1_555 1_555
H3_3 C6_3 1_555 1_555
C7_3 C1_3 1_555 1_555
C8_3 C7_3 1_555 1_555
O5_2 Zn1_2 1_555 1_555
H4_2 O5_2 1_555 1_555
H5_2 O5_2 1_555 1_555
Zn2_3 O4_3 1_555 1_555
O10_3 Zn2_3 1_555 1_555
H9_3 O10_3 1_555 1_555
H10_3 O10_3 1_555 1_555
Zn3_3 O1_3 1_555 1_555
Zn4_2 O2_3 1_555 1_555
O11_2 Zn1_2 1_555 1_555
O12_3 Zn2_3 1_555 1_555
O13_3 Zn2_3 1_555 1_555
O14_2 Zn1_2 1_555 1_555
O15_3 Zn2_3 1_555 1_555
O16_2 Zn1_2 1_555 1_555
C2_3 C7_3 1_555 1_555
C5_3 C6_3 1_555 1_555
O6_3 C13_3 1_555 1_555
C9_3 H6_3 1_555 1_555
C10_3 H7_3 1_555 1_555
C11_3 N2_3 1_555 1_555
C12_3 C9_3 1_555 1_555
C13_3 C12_3 1_555 1_555
O7_3 C14_3 1_555 1_555
C14_3 C15_3 1_555 1_555
C15_3 C9_3 1_555 1_555
C16_3 C11_3 1_555 1_555
H8_3 C16_3 1_555 1_555
O8_3 C13_3 1_555 1_555
O9_3 C14_3 1_555 1_555
Zn5_2 O6_3 1_555 1_555
Zn6_3 O7_3 1_555 1_555
Zn7_3 O9_3 1_555 1_555
Zn8_2 O8_3 1_555 1_555
C10_3 C11_3 1_555 1_555
C10_3 C12_3 1_555 1_555
C15_3 C16_3 1_555 1_555
O6_4 C13_4 1_555 1_555
C9_4 H6_4 1_555 1_555
C10_4 H7_4 1_555 1_555
C11_4 N2_4 1_555 1_555
C12_4 C9_4 1_555 1_555
C13_4 C12_4 1_555 1_555
O7_4 C14_4 1_555 1_555
C14_4 C15_4 1_555 1_555
C15_4 C9_4 1_555 1_555
C16_4 C11_4 1_555 1_555
H8_4 C16_4 1_555 1_555
O8_4 C13_4 1_555 1_555
O9_4 C14_4 1_555 1_555
Zn6_2 O6_4 1_555 1_555
Zn5 O7_4 1_555 1_555
Zn8 O9_4 1_555 1_555
Zn7_2 O8_4 1_555 1_555
C10_4 C11_4 1_555 1_555
C10_4 C12_4 1_555 1_555
C15_4 C16_4 1_555 1_555
O1_4 C3_4 1_555 1_555
O2_4 C8_4 1_555 1_555
O15_2 C8_4 1_555 1_555
O16 C3_4 1_555 1_555
N1_4 C5_4 1_555 1_555
C1_4 H1_4 1_555 1_555
C2_4 H2_4 1_555 1_555
C3_4 C4_4 1_555 1_555
C4_4 C1_4 1_555 1_555
C5_4 C2_4 1_555 1_555
C6_4 C4_4 1_555 1_555
H3_4 C6_4 1_555 1_555
C7_4 C1_4 1_555 1_555
C8_4 C7_4 1_555 1_555
Zn4 O1_4 1_555 1_555
Zn3_2 O2_4 1_555 1_555
C2_4 C7_4 1_555 1_555
C5_4 C6_4 1_555 1_555
O1_5 C3_5 1_555 1_555
O2_5 C8_5 1_555 1_555
O15_3 C8_5 1_555 1_555
O4_4 C3_5 1_555 1_555
N1_5 C5_5 1_555 1_555
C1_5 H1_5 1_555 1_555
C2_5 H2_5 1_555 1_555
C3_5 C4_5 1_555 1_555
C4_5 C1_5 1_555 1_555
C5_5 C2_5 1_555 1_555
C6_5 C4_5 1_555 1_555
H3_5 C6_5 1_555 1_555
C7_5 C1_5 1_555 1_555
C8_5 C7_5 1_555 1_555
Zn2_4 O4_4 1_555 1_555
O10_4 Zn2_4 1_555 1_555
H9_4 O10_4 1_555 1_555
H10_4 O10_4 1_555 1_555
Zn3_4 O1_5 1_555 1_555
Zn3_3 O2_5 1_555 1_555
O12_4 Zn2_4 1_555 1_555
O13_4 Zn2_4 1_555 1_555
O15_4 Zn2_4 1_555 1_555
C2_5 C7_5 1_555 1_555
C5_5 C6_5 1_555 1_555
O6_5 C13_5 1_555 1_555
C9_5 H6_5 1_555 1_555
C10_5 H7_5 1_555 1_555
C11_5 N2_5 1_555 1_555
C12_5 C9_5 1_555 1_555
C13_5 C12_5 1_555 1_555
O7_5 C14_5 1_555 1_555
C14_5 C15_5 1_555 1_555
C15_5 C9_5 1_555 1_555
C16_5 C11_5 1_555 1_555
H8_5 C16_5 1_555 1_555
O8_5 C13_5 1_555 1_555
O9_5 C14_5 1_555 1_555
Zn6_3 O6_5 1_555 1_555
Zn6_4 O7_5 1_555 1_555
Zn7_4 O9_5 1_555 1_555
Zn7_3 O8_5 1_555 1_555
C10_5 C11_5 1_555 1_555
C10_5 C12_5 1_555 1_555
C15_5 C16_5 1_555 1_555
O6_6 C13_6 1_555 1_555
C9_6 H6_6 1_555 1_555
C10_6 H7_6 1_555 1_555
C11_6 N2_6 1_555 1_555
C12_6 C9_6 1_555 1_555
C13_6 C12_6 1_555 1_555
O7_6 C14_6 1_555 1_555
C14_6 C15_6 1_555 1_555
C15_6 C9_6 1_555 1_555
C16_6 C11_6 1_555 1_555
H8_6 C16_6 1_555 1_555
O8_6 C13_6 1_555 1_555
O9_6 C14_6 1_555 1_555
Zn6_4 O6_6 1_555 1_555
Zn5_2 O7_6 1_555 1_555
Zn8_2 O9_6 1_555 1_555
Zn7_4 O8_6 1_555 1_555
C10_6 C11_6 1_555 1_555
C10_6 C12_6 1_555 1_555
C15_6 C16_6 1_555 1_555
O1_6 C3_6 1_555 1_555
O2_6 C8_6 1_555 1_555
O15_4 C8_6 1_555 1_555
O16_2 C3_6 1_555 1_555
N1_6 C5_6 1_555 1_555
C1_6 H1_6 1_555 1_555
C2_6 H2_6 1_555 1_555
C3_6 C4_6 1_555 1_555
C4_6 C1_6 1_555 1_555
C5_6 C2_6 1_555 1_555
C6_6 C4_6 1_555 1_555
H3_6 C6_6 1_555 1_555
C7_6 C1_6 1_555 1_555
C8_6 C7_6 1_555 1_555
Zn4_2 O1_6 1_555 1_555
Zn3_4 O2_6 1_555 1_555
C2_6 C7_6 1_555 1_555
C5_6 C6_6 1_555 1_555
O5_3 Zn1_3 1_555 1_555
H4_3 O5_3 1_555 1_555
H5_3 O5_3 1_555 1_555
O7_7 C14_7 1_555 1_555
O9_7 C14_7 1_555 1_555
Zn8_2 O7_7 1_555 1_555
Zn5_2 O9_7 1_555 1_555
O11_3 Zn1_3 1_555 1_555
O14_3 Zn1_3 1_555 1_555
O1_7 C3_7 1_555 1_555
O2_7 C8_7 1_555 1_555
O3_3 C8_7 1_555 1_555
O4_5 C3_7 1_555 1_555
N1_7 C5_7 1_555 1_555
C1_7 H1_7 1_555 1_555
C2_7 H2_7 1_555 1_555
C3_7 C4_7 1_555 1_555
C4_7 C1_7 1_555 1_555
C5_7 C2_7 1_555 1_555
C6_7 C4_7 1_555 1_555
H3_7 C6_7 1_555 1_555
C7_7 C1_7 1_555 1_555
C8_7 C7_7 1_555 1_555
N2_7 N1_7 1_555 1_555
C9_7 H6_7 1_555 1_555
C10_7 H7_7 1_555 1_555
C11_7 N2_7 1_555 1_555
C12_7 C9_7 1_555 1_555
C15_7 C9_7 1_555 1_555
C16_7 C11_7 1_555 1_555
H8_7 C16_7 1_555 1_555
Zn3_5 O1_7 1_555 1_555
Zn4_3 O2_7 1_555 1_555
C2_7 C7_7 1_555 1_555
C5_7 C6_7 1_555 1_555
C10_7 C11_7 1_555 1_555
C10_7 C12_7 1_555 1_555
C15_7 C16_7 1_555 1_555
O6_7 C13_7 1_555 1_555
O8_7 C13_7 1_555 1_555
O10_5 Zn2_5 1_555 1_555
H9_5 O10_5 1_555 1_555
H10_5 O10_5 1_555 1_555
Zn7_3 O6_7 1_555 1_555
Zn6_3 O8_7 1_555 1_555
O12_5 Zn2_5 1_555 1_555
O13_5 Zn2_5 1_555 1_555
O1_8 C3_8 1_555 1_555
O2_8 C8_8 1_555 1_555
O15_5 C8_8 1_555 1_555
O4_6 C3_8 1_555 1_555
N1_8 C5_8 1_555 1_555
C1_8 H1_8 1_555 1_555
C2_8 H2_8 1_555 1_555
C3_8 C4_8 1_555 1_555
C4_8 C1_8 1_555 1_555
C5_8 C2_8 1_555 1_555
C6_8 C4_8 1_555 1_555
H3_8 C6_8 1_555 1_555
C7_8 C1_8 1_555 1_555
C8_8 C7_8 1_555 1_555
O6_8 C13_8 1_555 1_555
N2_8 N1_8 1_555 1_555
C9_8 H6_8 1_555 1_555
C10_8 H7_8 1_555 1_555
C11_8 N2_8 1_555 1_555
C12_8 C9_8 1_555 1_555
C13_8 C12_8 1_555 1_555
C15_8 C9_8 1_555 1_555
C16_8 C11_8 1_555 1_555
H8_8 C16_8 1_555 1_555
O8_8 C13_8 1_555 1_555
Zn2_6 O4_6 1_555 1_555
O10_6 Zn2_6 1_555 1_555
H9_6 O10_6 1_555 1_555
H10_6 O10_6 1_555 1_555
Zn3_6 O1_8 1_555 1_555
Zn3_5 O2_8 1_555 1_555
Zn8_2 O6_8 1_555 1_555
Zn5_2 O8_8 1_555 1_555
O12_6 Zn2_6 1_555 1_555
O13_6 Zn2_6 1_555 1_555
O15_6 Zn2_6 1_555 1_555
C2_8 C7_8 1_555 1_555
C5_8 C6_8 1_555 1_555
C10_8 C11_8 1_555 1_555
C10_8 C12_8 1_555 1_555
C15_8 C16_8 1_555 1_555
O7_8 C14_8 1_555 1_555
O9_8 C14_8 1_555 1_555
Zn7_4 O7_8 1_555 1_555
Zn6_4 O9_8 1_555 1_555
Zn3 O3_4 1_555 1_555
O13 C8_9 1_555 1_555
O3_4 C8_9 1_555 1_555
O5_4 Zn3 1_555 1_555
H4_4 O5_4 1_555 1_555
H5_4 O5_4 1_555 1_555
O16_4 Zn3 1_555 1_555
N1_9 C5_9 1_555 1_555
C1_9 H1_9 1_555 1_555
C2_9 H2_9 1_555 1_555
C4_9 C1_9 1_555 1_555
C5_9 C2_9 1_555 1_555
C6_9 C4_9 1_555 1_555
H3_9 C6_9 1_555 1_555
C7_9 C1_9 1_555 1_555
O6_9 C13_9 1_555 1_555
N2_9 N1_9 1_555 1_555
C9_9 H6_9 1_555 1_555
C10_9 H7_9 1_555 1_555
C11_9 N2_9 1_555 1_555
C12_9 C9_9 1_555 1_555
C13_9 C12_9 1_555 1_555
O7_9 C14_9 1_555 1_555
C14_9 C15_9 1_555 1_555
C15_9 C9_9 1_555 1_555
C16_9 C11_9 1_555 1_555
H8_9 C16_9 1_555 1_555
O8_9 C13_9 1_555 1_555
O9_9 C14_9 1_555 1_555
Zn7_5 O9_9 1_555 1_555
Zn8_3 O8_9 1_555 1_555
C2_9 C7_9 1_555 1_555
C5_9 C6_9 1_555 1_555
C10_9 C11_9 1_555 1_555
C10_9 C12_9 1_555 1_555
C15_9 C16_9 1_555 1_555
O11 C3_9 1_555 1_555
O4_7 C3_9 1_555 1_555
Zn4 O4_7 1_555 1_555
O10_7 Zn4 1_555 1_555
H9_7 O10_7 1_555 1_555
H10_7 O10_7 1_555 1_555
O15_7 Zn4 1_555 1_555
O6_10 C13_10 1_555 1_555
O8_10 C13_10 1_555 1_555
Zn7_4 O6_10 1_555 1_555
Zn6_4 O8_10 1_555 1_555
O1_9 C3_10 1_555 1_555
O2_9 C8_10 1_555 1_555
O15_6 C8_10 1_555 1_555
O16_3 C3_10 1_555 1_555
N1_10 C5_10 1_555 1_555
C1_10 H1_10 1_555 1_555
C2_10 H2_10 1_555 1_555
C3_10 C4_10 1_555 1_555
C4_10 C1_10 1_555 1_555
C5_10 C2_10 1_555 1_555
C6_10 C4_10 1_555 1_555
H3_10 C6_10 1_555 1_555
C7_10 C1_10 1_555 1_555
C8_10 C7_10 1_555 1_555
N2_10 N1_10 1_555 1_555
C9_10 H6_10 1_555 1_555
C10_10 H7_10 1_555 1_555
C11_10 N2_10 1_555 1_555
C12_10 C9_10 1_555 1_555
O7_10 C14_10 1_555 1_555
C14_10 C15_10 1_555 1_555
C15_10 C9_10 1_555 1_555
C16_10 C11_10 1_555 1_555
H8_10 C16_10 1_555 1_555
O9_10 C14_10 1_555 1_555
Zn4_3 O1_9 1_555 1_555
Zn3_6 O2_9 1_555 1_555
Zn7_3 O7_10 1_555 1_555
Zn6_3 O9_10 1_555 1_555
C2_10 C7_10 1_555 1_555
C5_10 C6_10 1_555 1_555
C10_10 C11_10 1_555 1_555
C10_10 C12_10 1_555 1_555
C15_10 C16_10 1_555 1_555
O12_2 C3_11 1_555 1_555
O4_8 C3_11 1_555 1_555
Zn3_2 O4_8 1_555 1_555
O10_8 Zn3_2 1_555 1_555
H9_8 O10_8 1_555 1_555
H10_8 O10_8 1_555 1_555
O15_8 Zn3_2 1_555 1_555
O14 C8_11 1_555 1_555
O15_7 C8_11 1_555 1_555
N1_11 C5_11 1_555 1_555
C1_11 H1_11 1_555 1_555
C2_11 H2_11 1_555 1_555
C4_11 C1_11 1_555 1_555
C5_11 C2_11 1_555 1_555
C6_11 C4_11 1_555 1_555
H3_11 C6_11 1_555 1_555
C7_11 C1_11 1_555 1_555
C8_11 C7_11 1_555 1_555
O6_11 C13_11 1_555 1_555
N2_11 N1_11 1_555 1_555
C9_11 H6_11 1_555 1_555
C10_11 H7_11 1_555 1_555
C11_11 N2_11 1_555 1_555
C12_11 C9_11 1_555 1_555
C13_11 C12_11 1_555 1_555
O7_11 C14_11 1_555 1_555
C14_11 C15_11 1_555 1_555
C15_11 C9_11 1_555 1_555
C16_11 C11_11 1_555 1_555
H8_11 C16_11 1_555 1_555
O8_11 C13_11 1_555 1_555
O9_11 C14_11 1_555 1_555
Zn6_6 O7_11 1_555 1_555
Zn7_6 O9_11 1_555 1_555
Zn7_5 O8_11 1_555 1_555
C2_11 C7_11 1_555 1_555
C5_11 C6_11 1_555 1_555
C10_11 C11_11 1_555 1_555
C10_11 C12_11 1_555 1_555
C15_11 C16_11 1_555 1_555
O12 C3_12 1_555 1_555
O16_4 C3_12 1_555 1_555
N1_12 C5_12 1_555 1_555
C1_12 H1_12 1_555 1_555
C2_12 H2_12 1_555 1_555
C3_12 C4_12 1_555 1_555
C4_12 C1_12 1_555 1_555
C5_12 C2_12 1_555 1_555
C6_12 C4_12 1_555 1_555
H3_12 C6_12 1_555 1_555
C7_12 C1_12 1_555 1_555
O6_12 C13_12 1_555 1_555
N2_12 N1_12 1_555 1_555
C9_12 H6_12 1_555 1_555
C10_12 H7_12 1_555 1_555
C11_12 N2_12 1_555 1_555
C12_12 C9_12 1_555 1_555
C13_12 C12_12 1_555 1_555
O7_12 C14_12 1_555 1_555
C14_12 C15_12 1_555 1_555
C15_12 C9_12 1_555 1_555
C16_12 C11_12 1_555 1_555
H8_12 C16_12 1_555 1_555
O8_12 C13_12 1_555 1_555
O9_12 C14_12 1_555 1_555
Zn6_6 O6_12 1_555 1_555
Zn8_3 O9_12 1_555 1_555
Zn7_6 O8_12 1_555 1_555
C2_12 C7_12 1_555 1_555
C5_12 C6_12 1_555 1_555
C10_12 C11_12 1_555 1_555
C10_12 C12_12 1_555 1_555
C15_12 C16_12 1_555 1_555
O13_2 C8_12 1_555 1_555
O15_8 C8_12 1_555 1_555
Zn3_3 O3_5 1_555 1_555
O13_3 C8_13 1_555 1_555
O3_5 C8_13 1_555 1_555
O5_5 Zn3_3 1_555 1_555
H4_5 O5_5 1_555 1_555
H5_5 O5_5 1_555 1_555
O16_5 Zn3_3 1_555 1_555
N1_13 C5_13 1_555 1_555
C1_13 H1_13 1_555 1_555
C2_13 H2_13 1_555 1_555
C4_13 C1_13 1_555 1_555
C5_13 C2_13 1_555 1_555
C6_13 C4_13 1_555 1_555
H3_13 C6_13 1_555 1_555
C7_13 C1_13 1_555 1_555
O6_13 C13_13 1_555 1_555
N2_13 N1_13 1_555 1_555
C9_13 H6_13 1_555 1_555
C10_13 H7_13 1_555 1_555
C11_13 N2_13 1_555 1_555
C12_13 C9_13 1_555 1_555
C13_13 C12_13 1_555 1_555
O7_13 C14_13 1_555 1_555
C14_13 C15_13 1_555 1_555
C15_13 C9_13 1_555 1_555
C16_13 C11_13 1_555 1_555
H8_13 C16_13 1_555 1_555
O8_13 C13_13 1_555 1_555
O9_13 C14_13 1_555 1_555
Zn5_3 O9_13 1_555 1_555
Zn6_5 O8_13 1_555 1_555
C2_13 C7_13 1_555 1_555
C5_13 C6_13 1_555 1_555
C10_13 C11_13 1_555 1_555
C10_13 C12_13 1_555 1_555
C15_13 C16_13 1_555 1_555
O11_2 C3_13 1_555 1_555
O4_9 C3_13 1_555 1_555
Zn4_2 O4_9 1_555 1_555
O10_9 Zn4_2 1_555 1_555
H9_9 O10_9 1_555 1_555
H10_9 O10_9 1_555 1_555
O15_9 Zn4_2 1_555 1_555
O12_4 C3_14 1_555 1_555
O4_10 C3_14 1_555 1_555
Zn3_4 O4_10 1_555 1_555
O10_10 Zn3_4 1_555 1_555
H9_10 O10_10 1_555 1_555
H10_10 O10_10 1_555 1_555
O15_10 Zn3_4 1_555 1_555
O14_2 C8_14 1_555 1_555
O15_9 C8_14 1_555 1_555
N1_14 C5_14 1_555 1_555
C1_14 H1_14 1_555 1_555
C2_14 H2_14 1_555 1_555
C4_14 C1_14 1_555 1_555
C5_14 C2_14 1_555 1_555
C6_14 C4_14 1_555 1_555
H3_14 C6_14 1_555 1_555
C7_14 C1_14 1_555 1_555
C8_14 C7_14 1_555 1_555
O6_14 C13_14 1_555 1_555
N2_14 N1_14 1_555 1_555
C9_14 H6_14 1_555 1_555
C10_14 H7_14 1_555 1_555
C11_14 N2_14 1_555 1_555
C12_14 C9_14 1_555 1_555
C13_14 C12_14 1_555 1_555
O7_14 C14_14 1_555 1_555
C14_14 C15_14 1_555 1_555
C15_14 C9_14 1_555 1_555
C16_14 C11_14 1_555 1_555
H8_14 C16_14 1_555 1_555
O8_14 C13_14 1_555 1_555
O9_14 C14_14 1_555 1_555
Zn7_6 O7_14 1_555 1_555
Zn6_6 O9_14 1_555 1_555
Zn5_3 O8_14 1_555 1_555
C2_14 C7_14 1_555 1_555
C5_14 C6_14 1_555 1_555
C10_14 C11_14 1_555 1_555
C10_14 C12_14 1_555 1_555
C15_14 C16_14 1_555 1_555
O5_6 Zn3_5 1_555 1_555
H4_6 O5_6 1_555 1_555
H5_6 O5_6 1_555 1_555
O7_15 C14_15 1_555 1_555
O9_15 C14_15 1_555 1_555
Zn8 O7_15 1_555 1_555
Zn5 O9_15 1_555 1_555
O11_3 C3_15 1_555 1_555
O13_5 C8_15 1_555 1_555
O3_6 C8_15 1_555 1_555
O4_11 C3_15 1_555 1_555
N1_15 C5_15 1_555 1_555
C1_15 H1_15 1_555 1_555
C2_15 H2_15 1_555 1_555
C3_15 C4_15 1_555 1_555
C4_15 C1_15 1_555 1_555
C5_15 C2_15 1_555 1_555
C6_15 C4_15 1_555 1_555
H3_15 C6_15 1_555 1_555
C7_15 C1_15 1_555 1_555
C8_15 C7_15 1_555 1_555
N2_15 N1_15 1_555 1_555
C9_15 H6_15 1_555 1_555
C10_15 H7_15 1_555 1_555
C11_15 N2_15 1_555 1_555
C12_15 C9_15 1_555 1_555
C15_15 C9_15 1_555 1_555
C16_15 C11_15 1_555 1_555
H8_15 C16_15 1_555 1_555
C2_15 C7_15 1_555 1_555
C5_15 C6_15 1_555 1_555
C10_15 C11_15 1_555 1_555
C10_15 C12_15 1_555 1_555
C15_15 C16_15 1_555 1_555
O6_15 C13_15 1_555 1_555
O8_15 C13_15 1_555 1_555
O10_11 Zn4_3 1_555 1_555
H9_11 O10_11 1_555 1_555
H10_11 O10_11 1_555 1_555
Zn7 O6_15 1_555 1_555
Zn6 O8_15 1_555 1_555
O12_3 C3_16 1_555 1_555
O16_5 C3_16 1_555 1_555
N1_16 C5_16 1_555 1_555
C1_16 H1_16 1_555 1_555
C2_16 H2_16 1_555 1_555
C3_16 C4_16 1_555 1_555
C4_16 C1_16 1_555 1_555
C5_16 C2_16 1_555 1_555
C6_16 C4_16 1_555 1_555
H3_16 C6_16 1_555 1_555
C7_16 C1_16 1_555 1_555
O6_16 C13_16 1_555 1_555
N2_16 N1_16 1_555 1_555
C9_16 H6_16 1_555 1_555
C10_16 H7_16 1_555 1_555
C11_16 N2_16 1_555 1_555
C12_16 C9_16 1_555 1_555
C13_16 C12_16 1_555 1_555
O7_16 C14_16 1_555 1_555
C14_16 C15_16 1_555 1_555
C15_16 C9_16 1_555 1_555
C16_16 C11_16 1_555 1_555
H8_16 C16_16 1_555 1_555
O8_16 C13_16 1_555 1_555
O9_16 C14_16 1_555 1_555
Zn7_6 O6_16 1_555 1_555
Zn6_5 O9_16 1_555 1_555
Zn6_6 O8_16 1_555 1_555
C2_16 C7_16 1_555 1_555
C5_16 C6_16 1_555 1_555
C10_16 C11_16 1_555 1_555
C10_16 C12_16 1_555 1_555
C15_16 C16_16 1_555 1_555
O13_4 C8_16 1_555 1_555
O15_10 C8_16 1_555 1_555
O12_6 C3_17 1_555 1_555
O14_3 C8_17 1_555 1_555
O15_11 C8_17 1_555 1_555
O4_12 C3_17 1_555 1_555
N1_17 C5_17 1_555 1_555
C1_17 H1_17 1_555 1_555
C2_17 H2_17 1_555 1_555
C3_17 C4_17 1_555 1_555
C4_17 C1_17 1_555 1_555
C5_17 C2_17 1_555 1_555
C6_17 C4_17 1_555 1_555
H3_17 C6_17 1_555 1_555
C7_17 C1_17 1_555 1_555
C8_17 C7_17 1_555 1_555
O6_17 C13_17 1_555 1_555
N2_17 N1_17 1_555 1_555
C9_17 H6_17 1_555 1_555
C10_17 H7_17 1_555 1_555
C11_17 N2_17 1_555 1_555
C12_17 C9_17 1_555 1_555
C13_17 C12_17 1_555 1_555
C15_17 C9_17 1_555 1_555
C16_17 C11_17 1_555 1_555
H8_17 C16_17 1_555 1_555
O8_17 C13_17 1_555 1_555
Zn3_6 O4_12 1_555 1_555
O10_12 Zn3_6 1_555 1_555
H9_12 O10_12 1_555 1_555
H10_12 O10_12 1_555 1_555
Zn8 O6_17 1_555 1_555
Zn5 O8_17 1_555 1_555
O15_12 Zn3_6 1_555 1_555
C2_17 C7_17 1_555 1_555
C5_17 C6_17 1_555 1_555
C10_17 C11_17 1_555 1_555
C10_17 C12_17 1_555 1_555
C15_17 C16_17 1_555 1_555
O7_17 C14_17 1_555 1_555
O9_17 C14_17 1_555 1_555
Zn7_2 O7_17 1_555 1_555
Zn6_2 O9_17 1_555 1_555
O6_18 C13_18 1_555 1_555
O8_18 C13_18 1_555 1_555
Zn7_2 O6_18 1_555 1_555
Zn6_2 O8_18 1_555 1_555
O12_5 C3_18 1_555 1_555
O13_6 C8_18 1_555 1_555
O15_12 C8_18 1_555 1_555
O16_6 C3_18 1_555 1_555
N1_18 C5_18 1_555 1_555
C1_18 H1_18 1_555 1_555
C2_18 H2_18 1_555 1_555
C3_18 C4_18 1_555 1_555
C4_18 C1_18 1_555 1_555
C5_18 C2_18 1_555 1_555
C6_18 C4_18 1_555 1_555
H3_18 C6_18 1_555 1_555
C7_18 C1_18 1_555 1_555
C8_18 C7_18 1_555 1_555
N2_18 N1_18 1_555 1_555
C9_18 H6_18 1_555 1_555
C10_18 H7_18 1_555 1_555
C11_18 N2_18 1_555 1_555
C12_18 C9_18 1_555 1_555
O7_18 C14_18 1_555 1_555
C14_18 C15_18 1_555 1_555
C15_18 C9_18 1_555 1_555
C16_18 C11_18 1_555 1_555
H8_18 C16_18 1_555 1_555
O9_18 C14_18 1_555 1_555
Zn7 O7_18 1_555 1_555
Zn6 O9_18 1_555 1_555
C2_18 C7_18 1_555 1_555
C5_18 C6_18 1_555 1_555
C10_18 C11_18 1_555 1_555
C10_18 C12_18 1_555 1_555
C15_18 C16_18 1_555 1_555
O5_7 Zn5 1_555 1_555
H4_7 O5_7 1_555 1_555
H5_7 O5_7 1_555 1_555
O10_13 Zn6 1_555 1_555
H9_13 O10_13 1_555 1_555
H10_13 O10_13 1_555 1_555
O10_14 Zn6_2 1_555 1_555
H9_14 O10_14 1_555 1_555
H10_14 O10_14 1_555 1_555
O5_8 Zn5_2 1_555 1_555
H4_8 O5_8 1_555 1_555
H5_8 O5_8 1_555 1_555
O10_15 Zn6_3 1_555 1_555
H9_15 O10_15 1_555 1_555
H10_15 O10_15 1_555 1_555
O10_16 Zn6_4 1_555 1_555
H9_16 O10_16 1_555 1_555
H10_16 O10_16 1_555 1_555
O10_17 Zn8_3 1_555 1_555
H9_17 O10_17 1_555 1_555
H10_17 O10_17 1_555 1_555
O5_9 Zn7_5 1_555 1_555
H4_9 O5_9 1_555 1_555
H5_9 O5_9 1_555 1_555
O10_18 Zn7_6 1_555 1_555
H9_18 O10_18 1_555 1_555
H10_18 O10_18 1_555 1_555
O10_19 Zn8 1_555 1_555
H9_19 O10_19 1_555 1_555
H10_19 O10_19 1_555 1_555
O5_10 Zn7 1_555 1_555
H4_10 O5_10 1_555 1_555
H5_10 O5_10 1_555 1_555
O10_20 Zn7_2 1_555 1_555
H9_20 O10_20 1_555 1_555
H10_20 O10_20 1_555 1_555
O10_21 Zn8_2 1_555 1_555
H9_21 O10_21 1_555 1_555
H10_21 O10_21 1_555 1_555
O5_11 Zn7_3 1_555 1_555
H4_11 O5_11 1_555 1_555
H5_11 O5_11 1_555 1_555
O10_22 Zn7_4 1_555 1_555
H9_22 O10_22 1_555 1_555
H10_22 O10_22 1_555 1_555
O10_23 Zn6_5 1_555 1_555
H9_23 O10_23 1_555 1_555
H10_23 O10_23 1_555 1_555
O5_12 Zn5_3 1_555 1_555
H4_12 O5_12 1_555 1_555
H5_12 O5_12 1_555 1_555
O10_24 Zn6_6 1_555 1_555
H9_24 O10_24 1_555 1_555
H10_24 O10_24 1_555 1_555

#END
