
###############################################################################
#
# This file contains modified crystal structure data generated from the
# MOF subset of the Cambridge Structural Database (CSD) v543 
# hosted by the Cambridge Crystallographic Data Centre (CCDC).
#
# This work is licensed under the Creative Commons
# Attribution-NonCommercial-ShareAlike 4.0 International License.
# To view a copy of this license, visit
# http://creativecommons.org/licenses/by-nc-sa/4.0/
# or send a letter to
# Creative Commons, PO Box 1866, Mountain View, CA 94042, USA.
#
# CIF created using the CSD Python API on 29 September 2022
# The structure has been converted into the P1 space group
# The structure has a 3D framework
# The original CSD entry VIYMAT is in the triclinic crystal system
# The framework has been calculated to contain at least 10.0% void space
# The void calculation uses a probe of radius 1.32A, grid spacing 0.4
#
###############################################################################

data_VIYMAT
_chemical_formula_moiety         '(C48 H48 N4 Nd4 O32 S6)n'
_symmetry_cell_setting           triclinic
_symmetry_space_group_name_H-M   'P 1'
_symmetry_Int_Tables_number      1
_space_group_name_Hall           'P 1'
loop_
_symmetry_equiv_pos_site_id
_symmetry_equiv_pos_as_xyz
1 x,y,z
_cell_length_a                   9.8035(3)
_cell_length_b                   10.9423(4)
_cell_length_c                   19.4289(6)
_cell_angle_alpha                85.596(3)
_cell_angle_beta                 75.686(3)
_cell_angle_gamma                63.622(4)
_cell_volume                     1807.91
loop_
_atom_site_label
_atom_site_type_symbol
_atom_site_fract_x
_atom_site_fract_y
_atom_site_fract_z
H3 H 0.0011 0.1448 0.2625
S1 S 0.2990(3) 0.5263(3) 0.46973(16)
O5 O 0.3145(10) 0.1695(8) 0.4483(5)
O7 O 0.1988(10) 0.8151(8) 0.4759(5)
O11 O 0.4821(10) 0.2306(8) 0.4800(5)
C2 C 0.1019(13) 0.7933(11) 0.4533(6)
C4 C 0.0579(14) 0.5928(12) 0.4188(6)
C10 C 0.1290(14) 0.4488(12) 0.4196(6)
H7 H 0.0915 0.3941 0.4040
C11 C 0.2603(14) 0.3993(11) 0.4463(6)
C12 C 0.1363(13) 0.6491(11) 0.4446(6)
C13 C 0.3608(14) 0.2546(11) 0.4594(6)
Nd3 Nd 0.71004(7) 0.02729(6) 0.50041(3)
Nd6 Nd 0.28996(7) 0.97271(6) 0.49959(3)
O15 O 0.3133(19) 0.4616(17) 0.1120(8)
H16 H 0.3995 0.4689 0.1163
H17 H 0.2660 0.4485 0.1507
O21 O 0.0135(11) 0.6290(9) 0.0731(5)
O22 O 0.1632(11) 0.3184(9) 0.0578(5)
O23 O 0.3278(11) 0.6542(9) 0.0033(5)
Nd2 Nd 0.24949(7) 0.48030(6) 0.99082(3)
S2 S 0.3377(3) 0.2228(3) 0.76153(15)
O1 O 0.5330(10) 0.1132(9) 0.6192(4)
O3 O 0.2342(11) 0.3412(9) 0.9039(5)
O4 O 0.7869(11) 0.1273(9) 0.3821(5)
O8 O 0.4492(11) 0.4680(9) 0.8726(5)
O9 O 0.0888(10) 0.6420(9) 0.9193(5)
C1 C 0.9055(19) 0.2109(19) 0.2514(8)
H1 H 0.9292 0.2648 0.2132
H2 H 0.8528 0.1647 0.2373
C5 C 0.1555(13) 0.2688(12) 0.8172(6)
C7 C 0.4021(14) 0.1120(12) 0.6260(6)
N1 N 0.6146(14) 0.3501(13) 0.7705(6)
C9 C 0.5277(15) 0.3597(14) 0.8350(7)
N2 N 0.8052(17) 0.2989(13) 0.3135(7)
C14 C 0.2869(14) 0.1672(12) 0.6963(6)
C15 C 0.1353(15) 0.1830(13) 0.7171(7)
H8 H 0.0880 0.1571 0.6888
C17 C 0.767(3) 0.443(2) 0.3091(13)
H9 H 0.8122 0.4614 0.2621
H10 H 0.8083 0.4679 0.3429
H11 H 0.6552 0.4962 0.3195
C18 C 0.7556(18) 0.2487(14) 0.3734(7)
C19 C 0.0589(15) 0.2428(13) 0.7863(7)
C20 C 0.1218(14) 0.3324(12) 0.8882(6)
C21 C 0.623(2) 0.4689(19) 0.7347(8)
H13 H 0.6924 0.4415 0.6883
H14 H 0.6629 0.5100 0.7619
H15 H 0.5207 0.5338 0.7304
H18 H 0.1015 0.8861 0.9026
C24 C 0.7040(18) 0.2196(18) 0.7308(9)
H20 H 0.7598 0.2324 0.6849
H21 H 0.6337 0.1840 0.7250
H22 H 0.7773 0.1565 0.7563
O16 O 0.3625(11) 0.0662(9) 0.5824(5)
H23 H 0.530(18) 0.278(16) 0.852(8)
H24 H 0.70(2) 0.314(18) 0.408(10)
O17 O 0.4923(10) 0.2792(9) 0.9885(5)
O19 O 0.8012(10) 0.1849(8) 0.5241(5)
O6 O 0.9808(10) 0.8840(8) 0.4364(5)
O10 O 0.8782(10) 0.9256(9) 0.5893(5)
H4 H 0.8455 0.8986 0.6340
H5 H 0.9347 0.9648 0.5940
H6 H 0.9678 0.6439 0.4025
O18 O 0.6855(10) 0.8305(8) 0.5517(5)
O24 O 0.6375(11) 0.9338(9) 0.4176(5)
Nd9 Nd 0.75051(7) 0.51970(6) 0.00918(3)
C8 C 0.6310(14) 0.2581(11) 0.9841(6)
C16 C 0.7545(14) 0.1173(12) 0.9617(6)
O14 O 0.6722(11) 0.3458(9) 0.9967(5)
C23 C 0.9126(15) 0.0744(13) 0.9354(7)
H19 H 0.9607 0.1324 0.9280
S3 S 0.7044(3) 0.9836(3) 0.96794(17)
O12 O 0.9865(11) 0.3710(9) 0.9269(5)
O13 O 0.8368(11) 0.6816(9) 0.9422(5)
C3 C 0.9443(14) 0.7194(12) 0.9325(6)
C6 C 0.8971(13) 0.8685(12) 0.9365(6)
H12 H 0.9555 0.2622 0.8083
C22 C 0.9937(14) 0.9320(13) 0.9209(7)
S3_2 S 0.2956(3) 0.0164(3) 0.03206(17)
C3_2 C 0.0557(14) 0.2806(12) 0.0675(6)
C6_2 C 0.1029(13) 0.1315(12) 0.0635(6)
H12_2 H 0.0445 0.7378 0.1917
C22_2 C 0.0063(14) 0.0680(13) 0.0791(7)
O2 O 0.5077(10) 0.7208(9) 0.0115(5)
C8_2 C 0.3690(14) 0.7419(11) 0.0159(6)
C16_2 C 0.2455(14) 0.8827(12) 0.0383(6)
C23_2 C 0.0874(15) 0.9256(13) 0.0646(7)
H19_2 H 0.0393 0.8676 0.0720
O6_2 O 0.0192(10) 0.1160(8) 0.5636(5)
O10_2 O 0.1218(10) 0.0744(9) 0.4107(5)
H4_2 H 0.1545 0.1014 0.3660
H5_2 H 0.0653 0.0352 0.4060
H6_2 H 0.0322 0.3561 0.5975
S2_2 S 0.6623(3) 0.7772(3) 0.23847(15)
O1_2 O 0.4670(10) 0.8868(9) 0.3808(4)
O3_2 O 0.7658(11) 0.6588(9) 0.0961(5)
O4_2 O 0.2131(11) 0.8727(9) 0.6179(5)
O8_2 O 0.5508(11) 0.5320(9) 0.1274(5)
O9_2 O 0.9112(10) 0.3580(9) 0.0807(5)
C1_2 C 0.0945(19) 0.7891(19) 0.7486(8)
H1_2 H 0.0708 0.7352 0.7868
H2_2 H 0.1472 0.8353 0.7627
C5_2 C 0.8445(13) 0.7312(12) 0.1828(6)
C7_2 C 0.5979(14) 0.8880(12) 0.3740(6)
N1_2 N 0.3854(14) 0.6499(13) 0.2295(6)
C9_2 C 0.4723(15) 0.6403(14) 0.1650(7)
N2_2 N 0.1948(17) 0.7011(13) 0.6865(7)
C14_2 C 0.7131(14) 0.8328(12) 0.3037(6)
C15_2 C 0.8647(15) 0.8170(13) 0.2829(7)
H8_2 H 0.9120 0.8429 0.3112
C17_2 C 0.233(3) 0.557(2) 0.6909(13)
H9_2 H 0.1878 0.5386 0.7379
H10_2 H 0.1917 0.5321 0.6571
H11_2 H 0.3448 0.5038 0.6805
C18_2 C 0.2444(18) 0.7513(14) 0.6266(7)
C19_2 C 0.9411(15) 0.7572(13) 0.2137(7)
C20_2 C 0.8782(14) 0.6676(12) 0.1118(6)
C21_2 C 0.377(2) 0.5311(19) 0.2653(8)
H13_2 H 0.3076 0.5585 0.3117
H14_2 H 0.3371 0.4900 0.2381
H15_2 H 0.4793 0.4662 0.2696
H18_2 H 0.8985 0.1139 0.0974
C24_2 C 0.2960(18) 0.7804(18) 0.2692(9)
H20_2 H 0.2402 0.7676 0.3151
H21_2 H 0.3663 0.8160 0.2750
H22_2 H 0.2227 0.8435 0.2437
H23_2 H 0.470(18) 0.722(16) 0.148(8)
H24_2 H 0.30(2) 0.686(18) 0.592(10)
O20 O 0.5179(10) 0.7694(8) 0.5200(5)
O15_2 O 0.6867(19) 0.5384(17) 0.8880(8)
H16_2 H 0.6005 0.5311 0.8837
H17_2 H 0.7340 0.5515 0.8493
S1_2 S 0.7010(3) 0.4737(3) 0.53027(16)
C2_2 C 0.8981(13) 0.2067(11) 0.5467(6)
C4_2 C 0.9421(14) 0.4072(12) 0.5812(6)
C10_2 C 0.8710(14) 0.5512(12) 0.5804(6)
H7_2 H 0.9085 0.6059 0.5960
C11_2 C 0.7397(14) 0.6007(11) 0.5537(6)
C12_2 C 0.8637(13) 0.3509(11) 0.5554(6)
C13_2 C 0.6392(14) 0.7454(11) 0.5406(6)
H3_2 H 0.9989 0.8552 0.7375
loop_
_geom_bond_atom_site_label_1
_geom_bond_atom_site_label_2
_geom_bond_site_symmetry_1
_geom_bond_site_symmetry_2
S1 C11 1_555 1_555
O5 C13 1_555 1_555
O7 C2 1_555 1_555
O11 C13 1_555 1_555
C10 C4 1_555 1_555
H7 C10 1_555 1_555
C11 C10 1_555 1_555
C12 S1 1_555 1_555
C13 C11 1_555 1_555
Nd3 O11 1_555 1_555
Nd6 O7 1_555 1_555
C2 C12 1_555 1_555
C4 C12 1_555 1_555
H16 O15 1_555 1_555
H17 O15 1_555 1_555
Nd3 O1 1_555 1_555
Nd2 O3 1_555 1_555
S2 C5 1_555 1_555
O1 C7 1_555 1_555
O3 C20 1_555 1_555
O4 Nd3 1_555 1_555
O8 Nd2 1_555 1_555
O9 Nd2 1_555 1_555
C1 H1 1_555 1_555
H2 C1 1_555 1_555
C5 C19 1_555 1_555
C7 C14 1_555 1_555
N1 C9 1_555 1_555
C9 O8 1_555 1_555
N2 C1 1_555 1_555
C14 S2 1_555 1_555
C15 C14 1_555 1_555
H8 C15 1_555 1_555
C17 N2 1_555 1_555
H9 C17 1_555 1_555
H10 C17 1_555 1_555
H11 C17 1_555 1_555
C18 O4 1_555 1_555
C19 C15 1_555 1_555
C20 C5 1_555 1_555
C21 N1 1_555 1_555
H13 C21 1_555 1_555
H14 C21 1_555 1_555
H15 C21 1_555 1_555
C24 N1 1_555 1_555
H20 C24 1_555 1_555
H21 C24 1_555 1_555
H22 C24 1_555 1_555
O16 C7 1_555 1_555
H23 C9 1_555 1_555
H24 C18 1_555 1_555
O17 Nd2 1_555 1_555
O19 Nd3 1_555 1_555
N2 C18 1_555 1_555
H4 O10 1_555 1_555
H5 O10 1_555 1_555
O17 C8 1_555 1_555
C8 C16 1_555 1_555
O14 C8 1_555 1_555
C23 C16 1_555 1_555
H19 C23 1_555 1_555
S3 C6 1_555 1_555
O13 C3 1_555 1_555
C6 C3 1_555 1_555
C22 C6 1_555 1_555
S3_2 C6_2 1_555 1_555
O22 C3_2 1_555 1_555
C6_2 C3_2 1_555 1_555
C22_2 C6_2 1_555 1_555
O2 C8_2 1_555 1_555
C8_2 C16_2 1_555 1_555
O23 C8_2 1_555 1_555
C23_2 C16_2 1_555 1_555
H19_2 C23_2 1_555 1_555
Nd9 O2 1_555 1_555
H4_2 O10_2 1_555 1_555
H5_2 O10_2 1_555 1_555
Nd6 O1_2 1_555 1_555
Nd9 O3_2 1_555 1_555
S2_2 C5_2 1_555 1_555
O1_2 C7_2 1_555 1_555
O3_2 C20_2 1_555 1_555
O4_2 Nd6 1_555 1_555
O8_2 Nd9 1_555 1_555
O9_2 Nd9 1_555 1_555
C1_2 H1_2 1_555 1_555
H2_2 C1_2 1_555 1_555
C5_2 C19_2 1_555 1_555
C7_2 C14_2 1_555 1_555
N1_2 C9_2 1_555 1_555
C9_2 O8_2 1_555 1_555
N2_2 C1_2 1_555 1_555
C14_2 S2_2 1_555 1_555
C15_2 C14_2 1_555 1_555
H8_2 C15_2 1_555 1_555
C17_2 N2_2 1_555 1_555
H9_2 C17_2 1_555 1_555
H10_2 C17_2 1_555 1_555
H11_2 C17_2 1_555 1_555
C18_2 O4_2 1_555 1_555
C19_2 C15_2 1_555 1_555
C20_2 C5_2 1_555 1_555
C21_2 N1_2 1_555 1_555
H13_2 C21_2 1_555 1_555
H14_2 C21_2 1_555 1_555
H15_2 C21_2 1_555 1_555
C24_2 N1_2 1_555 1_555
H20_2 C24_2 1_555 1_555
H21_2 C24_2 1_555 1_555
H22_2 C24_2 1_555 1_555
O24 C7_2 1_555 1_555
H23_2 C9_2 1_555 1_555
H24_2 C18_2 1_555 1_555
O20 Nd6 1_555 1_555
N2_2 C18_2 1_555 1_555
H16_2 O15_2 1_555 1_555
H17_2 O15_2 1_555 1_555
S1_2 C11_2 1_555 1_555
O18 C13_2 1_555 1_555
O19 C2_2 1_555 1_555
O20 C13_2 1_555 1_555
C10_2 C4_2 1_555 1_555
H7_2 C10_2 1_555 1_555
C11_2 C10_2 1_555 1_555
C12_2 S1_2 1_555 1_555
C13_2 C11_2 1_555 1_555
C2_2 C12_2 1_555 1_555
C4_2 C12_2 1_555 1_555

#END
