
###############################################################################
#
# This file contains modified crystal structure data generated from the
# MOF subset of the Cambridge Structural Database (CSD) v543 
# hosted by the Cambridge Crystallographic Data Centre (CCDC).
#
# This work is licensed under the Creative Commons
# Attribution-NonCommercial-ShareAlike 4.0 International License.
# To view a copy of this license, visit
# http://creativecommons.org/licenses/by-nc-sa/4.0/
# or send a letter to
# Creative Commons, PO Box 1866, Mountain View, CA 94042, USA.
#
# CIF created using the CSD Python API on 29 September 2022
# The structure has been converted into the P1 space group
# The structure has a 3D framework
# The original CSD entry VIYRUT is in the orthorhombic crystal system
# The framework has been calculated to contain at least 10.0% void space
# The void calculation uses a probe of radius 1.32A, grid spacing 0.4
#
###############################################################################

data_VIYRUT
_chemical_formula_moiety         '(C320 H176 In8 N16 O60)n'
_symmetry_cell_setting           triclinic
_symmetry_space_group_name_H-M   'P 1'
_symmetry_Int_Tables_number      1
_space_group_name_Hall           'P 1'
loop_
_symmetry_equiv_pos_site_id
_symmetry_equiv_pos_as_xyz
1 x,y,z
_cell_length_a                   32.0315(3)
_cell_length_b                   28.2049(3)
_cell_length_c                   19.8600(2)
_cell_angle_alpha                90
_cell_angle_beta                 90
_cell_angle_gamma                90
_cell_volume                     17942.4
loop_
_atom_site_label
_atom_site_type_symbol
_atom_site_fract_x
_atom_site_fract_y
_atom_site_fract_z
In1 In 0.53728(2) 0.39158(2) 0.84639(2)
O1 O 0.50223(10) 0.39967(10) 0.75259(16)
O2 O 0.09855(8) 0.42249(10) 0.12136(15)
O3 O 0.44418(11) 0.83241(11) 0.42111(17)
O4 O 0.09679(9) 0.38707(11) 0.21853(16)
O5 O 0.46674(10) 0.81331(12) 0.32328(18)
O8 O 0.52549(12) 0.46604(12) 0.79019(17)
C1 C 0.11675(13) 0.40880(16) 0.1736(2)
C2 C 0.16225(11) 0.41684(15) 0.1813(2)
C3 C 0.45298(14) 0.80080(16) 0.3788(2)
C6 C 0.39218(12) 0.43490(16) 0.0972(2)
C7 C 0.50666(13) 0.44340(16) 0.7470(2)
C8 C 0.44790(14) 0.75012(14) 0.3961(2)
C9 C 0.36376(13) 0.44469(17) 0.1530(2)
C10 C 0.24839(12) 0.43259(18) 0.1939(2)
C11 C 0.48910(14) 0.46771(15) 0.6855(2)
C12 C 0.32141(13) 0.43367(19) 0.1489(2)
H1 H 0.311416 0.419489 0.109848
N1 N 0.36486(17) 0.5011(2) 0.3229(3)
C13 C 0.43660(16) 0.65452(15) 0.4238(2)
C14 C 0.18543(12) 0.43473(17) 0.1278(2)
H2 H 0.172348 0.441872 0.087238
C15 C 0.43740(16) 0.73531(16) 0.4600(2)
H3 H 0.433840 0.757632 0.494000
C16 C 0.42765(14) 0.46299(17) 0.0877(3)
H4 H 0.433170 0.488011 0.116858
C17 C 0.45435(14) 0.45362(18) 0.0352(3)
H5 H 0.477475 0.473067 0.029056
C18 C 0.29348(13) 0.44301(18) 0.2009(2)
C19 C 0.22734(13) 0.44180(18) 0.1347(2)
H6 H 0.242325 0.453290 0.098108
C20 C 0.37769(14) 0.46601(18) 0.2117(2)
H7 H 0.405674 0.474280 0.215910
C21 C 0.43160(19) 0.60323(15) 0.4361(3)
C22 C 0.18283(13) 0.4063(2) 0.2405(2)
H8 H 0.168150 0.393173 0.276306
C23 C 0.43215(17) 0.68830(16) 0.4741(2)
H9 H 0.425560 0.678858 0.517704
C24 C 0.44446(16) 0.58203(15) 0.4969(2)
H10 H 0.455101 0.601066 0.531015
C25 C 0.22509(14) 0.4151(2) 0.2469(2)
H11 H 0.238141 0.409089 0.287857
C26 C 0.45623(16) 0.51089(16) 0.5705(3)
C27 C 0.35049(14) 0.4751(2) 0.2639(2)
C28 C 0.4530(2) 0.71687(19) 0.3465(2)
H12 H 0.460166 0.726431 0.303198
C29 C 0.38511(15) 0.3983(2) 0.0514(3)
H13 H 0.361119 0.379903 0.055406
N2 N 0.3972(2) 0.4968(3) 0.3408(3)
C30 C 0.30892(14) 0.4630(2) 0.2591(3)
H14 H 0.291167 0.468372 0.295341
C31 C 0.41303(15) 0.38870(18) 0.0001(3)
C32 C 0.4476(2) 0.66940(18) 0.3602(2)
H16 H 0.451410 0.647181 0.326169
C33 C 0.44168(17) 0.53376(16) 0.5070(3)
C34 C 0.41398(18) 0.57388(19) 0.3859(2)
H17 H 0.403844 0.586963 0.346187
C35 C 0.4710(2) 0.44284(19) 0.6362(3)
H18 H 0.469104 0.410056 0.640123
C36 C 0.4121(2) 0.5271(2) 0.3963(3)
C37 C 0.4554(2) 0.46433(19) 0.5808(3)
H19 H 0.443335 0.445357 0.547831
C38 C 0.4244(2) 0.50663(18) 0.4553(3)
H20 H 0.421302 0.474105 0.461115
C39 C 0.4886(3) 0.51583(19) 0.6804(3)
H21 H 0.499915 0.534550 0.714373
C40 C 0.4707(3) 0.5368(2) 0.6230(4)
H22 H 0.468717 0.569699 0.620936
In3 In 0.03728(2) 0.39158(2) 0.15361(2)
In4 In 0.46272(2) 0.89158(2) 0.34639(2)
O9 O 0.59855(8) 0.42249(10) 0.87864(15)
O10 O 0.55582(11) 0.33241(11) 0.92111(17)
O11 O 0.59679(9) 0.38707(11) 0.78147(16)
O12 O 0.53326(10) 0.31331(12) 0.82328(18)
O13 O 0.51204(9) 0.43004(10) 0.93573(16)
O14 O 0.47003(10) 0.37742(15) 0.8930(2)
C4 C 0.47791(14) 0.40820(18) 0.9368(2)
C5 C 0.44809(13) 0.41665(16) 0.9918(2)
H15 H 0.408216 0.363393 0.971077
O3_2 O 0.05582(11) 0.33241(11) 0.07889(17)
O5_2 O 0.03326(10) 0.31331(12) 0.17672(18)
C3_2 C 0.04702(14) 0.30080(16) 0.1212(2)
C8_2 C 0.05210(14) 0.25012(14) 0.1039(2)
N1_2 N 0.13514(17) 0.0011(2) 0.1771(3)
C13_2 C 0.06340(16) 0.15452(15) 0.0762(2)
C15_2 C 0.06260(16) 0.23531(16) 0.0400(2)
H3_2 H 0.066160 0.257632 0.006000
C21_2 C 0.06840(19) 0.10323(15) 0.0639(3)
C23_2 C 0.06785(17) 0.18830(16) 0.0259(2)
C24_2 C 0.05554(16) 0.08203(15) 0.0031(2)
C28_2 C 0.0470(2) 0.21687(19) 0.1535(2)
H12_2 H 0.039834 0.226431 0.196802
C32_2 C 0.0524(2) 0.16940(18) 0.1398(2)
H16_2 H 0.048590 0.147181 0.173831
C34_2 C 0.08602(18) 0.07388(19) 0.1141(2)
H17_2 H 0.096156 0.086963 0.153813
C36_2 C 0.0879(2) 0.0271(2) 0.1037(3)
C38_2 C 0.0756(2) 0.00663(18) 0.0447(3)
O2_2 O 0.40145(8) 0.92249(10) 0.37864(15)
O4_2 O 0.40321(9) 0.88707(11) 0.28147(16)
O7 O 0.02997(10) 0.87742(15) 0.6070(2)
C1_2 C 0.38325(13) 0.90880(16) 0.3264(2)
C2_2 C 0.33775(11) 0.91684(15) 0.3187(2)
C4_2 C 0.02209(14) 0.90820(18) 0.5632(2)
C5_2 C 0.05191(13) 0.91665(16) 0.5082(2)
C6_2 C 0.10782(12) 0.93490(16) 0.4028(2)
C9_2 C 0.13624(13) 0.94469(17) 0.3470(2)
C10_2 C 0.25161(12) 0.93259(18) 0.3061(2)
C12_2 C 0.17859(13) 0.93367(19) 0.3511(2)
H1_2 H 0.188584 0.919489 0.390152
C14_2 C 0.31457(12) 0.93473(17) 0.3722(2)
H2_2 H 0.327652 0.941872 0.412762
C16_2 C 0.07235(14) 0.96299(17) 0.4123(3)
H4_2 H 0.066830 0.988011 0.383142
C17_2 C 0.04565(14) 0.95362(18) 0.4648(3)
H5_2 H 0.022525 0.973067 0.470944
C18_2 C 0.20652(13) 0.94301(18) 0.2991(2)
C19_2 C 0.27266(13) 0.94180(18) 0.3653(2)
H6_2 H 0.257675 0.953290 0.401892
C20_2 C 0.12231(14) 0.96601(18) 0.2883(2)
H7_2 H 0.094326 0.974280 0.284090
C22_2 C 0.31717(13) 0.9063(2) 0.2595(2)
H8_2 H 0.331850 0.893173 0.223694
C25_2 C 0.27491(14) 0.9151(2) 0.2531(2)
H11_2 H 0.261859 0.909089 0.212143
C27_2 C 0.14951(14) 0.9751(2) 0.2361(2)
C29_2 C 0.11489(15) 0.8983(2) 0.4486(3)
H13_2 H 0.138881 0.879903 0.444594
N2_2 N 0.1028(2) 0.9968(3) 0.1592(3)
C30_2 C 0.19108(14) 0.9630(2) 0.2409(3)
H14_2 H 0.208833 0.968372 0.204659
C31_2 C 0.08697(15) 0.88870(18) 0.4999(3)
H15_2 H 0.091784 0.863393 0.528923
H20_2 H 0.078698 0.974105 0.038885
C11_2 C 0.01090(14) 0.96771(15) 0.8145(2)
C35_2 C 0.0290(2) 0.94284(19) 0.8638(3)
H18_2 H 0.030896 0.910056 0.859877
C37_2 C 0.0446(2) 0.96433(19) 0.9192(3)
H19_2 H 0.056665 0.945357 0.952169
O6 O 0.98796(9) 0.93004(10) 0.56427(16)
In2 In 0.96272(2) 0.89158(2) 0.65361(2)
O1_2 O 0.99777(10) 0.89967(10) 0.74741(16)
O8_2 O 0.97451(12) 0.96604(12) 0.70981(17)
C7_2 C 0.99334(13) 0.94340(16) 0.7530(2)
O9_2 O 0.90145(8) 0.92249(10) 0.62136(15)
O10_2 O 0.94418(11) 0.83241(11) 0.57889(17)
O11_2 O 0.90321(9) 0.88707(11) 0.71853(16)
O12_2 O 0.96674(10) 0.81331(12) 0.67672(18)
O6_2 O 0.01204(9) 0.43004(10) 0.06427(16)
O1_3 O 0.00223(10) 0.39967(10) 0.24741(16)
O8_3 O 0.02549(12) 0.46604(12) 0.20981(17)
C7_3 C 0.00666(13) 0.44340(16) 0.2530(2)
O7_2 O 0.97003(10) 0.37742(15) 0.1070(2)
C4_3 C 0.97791(14) 0.40820(18) 0.0632(2)
C5_3 C 0.94809(13) 0.41665(16) 0.0082(2)
H15_3 H 0.908216 0.363393 0.028923
C1_3 C 0.61675(13) 0.40880(16) 0.8264(2)
C2_3 C 0.66225(11) 0.41684(15) 0.8187(2)
C3_3 C 0.95298(14) 0.80080(16) 0.6212(2)
C6_3 C 0.89218(12) 0.43490(16) 0.9028(2)
C8_3 C 0.94790(14) 0.75012(14) 0.6039(2)
C9_3 C 0.86376(13) 0.44469(17) 0.8470(2)
C10_3 C 0.74839(12) 0.43259(18) 0.8061(2)
C11_3 C 0.98910(14) 0.46771(15) 0.3145(2)
C12_3 C 0.82141(13) 0.43367(19) 0.8511(2)
H1_3 H 0.811416 0.419489 0.890152
N1_3 N 0.86486(17) 0.5011(2) 0.6771(3)
C13_3 C 0.93660(16) 0.65452(15) 0.5762(2)
C14_3 C 0.68543(12) 0.43473(17) 0.8722(2)
H2_3 H 0.672348 0.441872 0.912762
C15_3 C 0.93740(16) 0.73531(16) 0.5400(2)
H3_3 H 0.933840 0.757632 0.506000
C16_3 C 0.92765(14) 0.46299(17) 0.9123(3)
H4_3 H 0.933170 0.488011 0.883142
C17_3 C 0.95435(14) 0.45362(18) 0.9648(3)
H5_3 H 0.977475 0.473067 0.970944
C18_3 C 0.79348(13) 0.44301(18) 0.7991(2)
C19_3 C 0.72734(13) 0.44180(18) 0.8653(2)
H6_3 H 0.742325 0.453290 0.901892
C20_3 C 0.87769(14) 0.46601(18) 0.7883(2)
H7_3 H 0.905674 0.474280 0.784090
C21_3 C 0.93160(19) 0.60323(15) 0.5639(3)
C22_3 C 0.68283(13) 0.4063(2) 0.7595(2)
H8_3 H 0.668150 0.393173 0.723694
C23_3 C 0.93215(17) 0.68830(16) 0.5259(2)
H9_2 H 0.925560 0.678858 0.482296
C24_3 C 0.94446(16) 0.58203(15) 0.5031(2)
H10_2 H 0.955101 0.601066 0.468985
C25_3 C 0.72509(14) 0.4151(2) 0.7531(2)
H11_3 H 0.738141 0.409089 0.712143
C26_2 C 0.95623(16) 0.51089(16) 0.4295(3)
C27_3 C 0.85049(14) 0.4751(2) 0.7361(2)
C28_3 C 0.9530(2) 0.71687(19) 0.6535(2)
H12_3 H 0.960166 0.726431 0.696802
C29_3 C 0.88511(15) 0.3983(2) 0.9486(3)
H13_3 H 0.861119 0.379903 0.944594
N2_3 N 0.8972(2) 0.4968(3) 0.6592(3)
C30_3 C 0.80892(14) 0.4630(2) 0.7409(3)
H14_3 H 0.791167 0.468372 0.704659
C31_3 C 0.91303(15) 0.38870(18) 0.9999(3)
C32_3 C 0.9476(2) 0.66940(18) 0.6398(2)
H16_3 H 0.951410 0.647181 0.673831
C33_2 C 0.94168(17) 0.53376(16) 0.4930(3)
C34_3 C 0.91398(18) 0.57388(19) 0.6141(2)
H17_3 H 0.903844 0.586963 0.653813
C35_3 C 0.9710(2) 0.44284(19) 0.3638(3)
H18_3 H 0.969104 0.410056 0.359877
C36_3 C 0.9121(2) 0.5271(2) 0.6037(3)
C37_3 C 0.9554(2) 0.46433(19) 0.4192(3)
H19_3 H 0.943335 0.445357 0.452169
C38_3 C 0.9244(2) 0.50663(18) 0.5447(3)
H20_3 H 0.921302 0.474105 0.538885
C39_2 C 0.9886(3) 0.51583(19) 0.3196(3)
H21_2 H 0.999915 0.534550 0.285627
C40_2 C 0.9707(3) 0.5368(2) 0.3770(4)
H22_2 H 0.968717 0.569699 0.379064
C3_4 C 0.54702(14) 0.30080(16) 0.8788(2)
C8_4 C 0.55210(14) 0.25012(14) 0.8961(2)
N1_4 N 0.63514(17) 0.0011(2) 0.8229(3)
C13_4 C 0.56340(16) 0.15452(15) 0.9238(2)
C15_4 C 0.56260(16) 0.23531(16) 0.9600(2)
H3_4 H 0.566160 0.257632 0.994000
C21_4 C 0.56840(19) 0.10323(15) 0.9361(3)
C23_4 C 0.56785(17) 0.18830(16) 0.9741(2)
C24_4 C 0.55554(16) 0.08203(15) 0.9969(2)
C28_4 C 0.5470(2) 0.21687(19) 0.8465(2)
H12_4 H 0.539834 0.226431 0.803198
C32_4 C 0.5524(2) 0.16940(18) 0.8602(2)
H16_4 H 0.548590 0.147181 0.826169
C34_4 C 0.58602(18) 0.07388(19) 0.8859(2)
H17_4 H 0.596156 0.086963 0.846187
C36_4 C 0.5879(2) 0.0271(2) 0.8963(3)
C38_4 C 0.5756(2) 0.00663(18) 0.9553(3)
O1_4 O 0.49777(10) 0.89967(10) 0.25259(16)
O8_4 O 0.47451(12) 0.96604(12) 0.29019(17)
C7_4 C 0.49334(13) 0.94340(16) 0.2470(2)
C11_4 C 0.51090(14) 0.96771(15) 0.1855(2)
C35_4 C 0.5290(2) 0.94284(19) 0.1362(3)
H18_4 H 0.530896 0.910056 0.140123
C37_4 C 0.5446(2) 0.96433(19) 0.0808(3)
H19_4 H 0.556665 0.945357 0.047831
O13_2 O 0.48796(9) 0.93004(10) 0.43573(16)
O14_2 O 0.52997(10) 0.87742(15) 0.3930(2)
C1_4 C 0.88325(13) 0.90880(16) 0.6736(2)
C2_4 C 0.83775(11) 0.91684(15) 0.6813(2)
C4_4 C 0.52209(14) 0.90820(18) 0.4368(2)
C5_4 C 0.55191(13) 0.91665(16) 0.4918(2)
C6_4 C 0.60782(12) 0.93490(16) 0.5972(2)
C9_4 C 0.63624(13) 0.94469(17) 0.6530(2)
C10_4 C 0.75161(12) 0.93259(18) 0.6939(2)
C12_4 C 0.67859(13) 0.93367(19) 0.6489(2)
H1_4 H 0.688584 0.919489 0.609848
C14_4 C 0.81457(12) 0.93473(17) 0.6278(2)
H2_4 H 0.827652 0.941872 0.587238
C16_4 C 0.57235(14) 0.96299(17) 0.5877(3)
H4_4 H 0.566830 0.988011 0.616858
C17_4 C 0.54565(14) 0.95362(18) 0.5352(3)
H5_4 H 0.522525 0.973067 0.529056
C18_4 C 0.70652(13) 0.94301(18) 0.7009(2)
C19_4 C 0.77266(13) 0.94180(18) 0.6347(2)
H6_4 H 0.757675 0.953290 0.598108
C20_4 C 0.62231(14) 0.96601(18) 0.7117(2)
H7_4 H 0.594326 0.974280 0.715910
C22_4 C 0.81717(13) 0.9063(2) 0.7405(2)
H8_4 H 0.831850 0.893173 0.776306
C25_4 C 0.77491(14) 0.9151(2) 0.7469(2)
H11_4 H 0.761859 0.909089 0.787857
C27_4 C 0.64951(14) 0.9751(2) 0.7639(2)
C29_4 C 0.61489(15) 0.8983(2) 0.5514(3)
H13_4 H 0.638881 0.879903 0.555406
N2_4 N 0.6028(2) 0.9968(3) 0.8408(3)
C30_4 C 0.69108(14) 0.9630(2) 0.7591(3)
H14_4 H 0.708833 0.968372 0.795341
C31_4 C 0.58697(15) 0.88870(18) 0.5001(3)
H15_4 H 0.591784 0.863393 0.471077
H20_4 H 0.578698 0.974105 0.961115
O2_3 O 0.40145(8) 0.57751(10) 0.12136(15)
O3_3 O 0.05582(11) 0.16759(11) 0.42111(17)
O4_3 O 0.40321(9) 0.61293(11) 0.21853(16)
O5_3 O 0.03326(10) 0.18669(12) 0.32328(18)
C1_5 C 0.38325(13) 0.59120(16) 0.1736(2)
C2_5 C 0.33775(11) 0.58316(15) 0.1813(2)
C3_5 C 0.04702(14) 0.19920(16) 0.3788(2)
C6_5 C 0.10782(12) 0.56510(16) 0.0972(2)
C8_5 C 0.05210(14) 0.24988(14) 0.3961(2)
C9_5 C 0.13624(13) 0.55531(17) 0.1530(2)
C10_5 C 0.25161(12) 0.56741(18) 0.1939(2)
C11_5 C 0.01090(14) 0.53229(15) 0.6855(2)
C12_5 C 0.17859(13) 0.56633(19) 0.1489(2)
H1_5 H 0.188584 0.580511 0.109848
N1_5 N 0.13514(17) 0.4989(2) 0.3229(3)
C13_5 C 0.06340(16) 0.34548(15) 0.4238(2)
C14_5 C 0.31457(12) 0.56527(17) 0.1278(2)
H2_5 H 0.327652 0.558128 0.087238
C15_5 C 0.06260(16) 0.26469(16) 0.4600(2)
H3_5 H 0.066160 0.242368 0.494000
C16_5 C 0.07235(14) 0.53701(17) 0.0877(3)
H4_5 H 0.066830 0.511989 0.116858
C17_5 C 0.04565(14) 0.54638(18) 0.0352(3)
H5_5 H 0.022525 0.526933 0.029056
C18_5 C 0.20652(13) 0.55699(18) 0.2009(2)
C19_5 C 0.27266(13) 0.55820(18) 0.1347(2)
H6_5 H 0.257675 0.546710 0.098108
C20_5 C 0.12231(14) 0.53399(18) 0.2117(2)
H7_5 H 0.094326 0.525720 0.215910
C21_5 C 0.06840(19) 0.39677(15) 0.4361(3)
C22_5 C 0.31717(13) 0.5937(2) 0.2405(2)
H8_5 H 0.331850 0.606827 0.276306
C23_5 C 0.06785(17) 0.31170(16) 0.4741(2)
H9_3 H 0.074440 0.321142 0.517704
C24_5 C 0.05554(16) 0.41797(15) 0.4969(2)
H10_3 H 0.044899 0.398934 0.531015
C25_5 C 0.27491(14) 0.5849(2) 0.2469(2)
H11_5 H 0.261859 0.590911 0.287857
C26_3 C 0.04377(16) 0.48911(16) 0.5705(3)
C27_5 C 0.14951(14) 0.5249(2) 0.2639(2)
C28_5 C 0.0470(2) 0.28313(19) 0.3465(2)
H12_5 H 0.039834 0.273569 0.303198
C29_5 C 0.11489(15) 0.6017(2) 0.0514(3)
H13_5 H 0.138881 0.620097 0.055406
N2_5 N 0.1028(2) 0.5032(3) 0.3408(3)
C30_5 C 0.19108(14) 0.5370(2) 0.2591(3)
H14_5 H 0.208833 0.531628 0.295341
C31_5 C 0.08697(15) 0.61130(18) 0.0001(3)
C32_5 C 0.0524(2) 0.33060(18) 0.3602(2)
H16_5 H 0.048590 0.352819 0.326169
C33_3 C 0.05832(17) 0.46624(16) 0.5070(3)
C34_5 C 0.08602(18) 0.42612(19) 0.3859(2)
H17_5 H 0.096156 0.413037 0.346187
C35_5 C 0.0290(2) 0.55716(19) 0.6362(3)
H18_5 H 0.030896 0.589944 0.640123
C36_5 C 0.0879(2) 0.4729(2) 0.3963(3)
C37_5 C 0.0446(2) 0.53567(19) 0.5808(3)
H19_5 H 0.056665 0.554643 0.547831
C38_5 C 0.0756(2) 0.49337(18) 0.4553(3)
H20_5 H 0.078698 0.525895 0.461115
C39_3 C 0.0114(3) 0.48417(19) 0.6804(3)
H21_3 H 0.000085 0.465450 0.714373
C40_3 C 0.0293(3) 0.4632(2) 0.6230(4)
H22_3 H 0.031283 0.430301 0.620936
In3_2 In 0.46272(2) 0.60842(2) 0.15361(2)
In4_2 In 0.03728(2) 0.10842(2) 0.34639(2)
O14_3 O 0.02997(10) 0.62258(15) 0.8930(2)
C4_5 C 0.02209(14) 0.59180(18) 0.9368(2)
C5_5 C 0.05191(13) 0.58335(16) 0.9918(2)
H15_5 H 0.091784 0.636607 0.971077
In1_2 In 0.96272(2) 0.60842(2) 0.84639(2)
O1_5 O 0.99777(10) 0.60033(10) 0.75259(16)
O8_5 O 0.97451(12) 0.53396(12) 0.79019(17)
C7_5 C 0.99334(13) 0.55660(16) 0.7470(2)
O9_3 O 0.90145(8) 0.57751(10) 0.87864(15)
O10_3 O 0.94418(11) 0.66759(11) 0.92111(17)
O11_3 O 0.90321(9) 0.61293(11) 0.78147(16)
O12_3 O 0.96674(10) 0.68669(12) 0.82328(18)
O13_3 O 0.98796(9) 0.56996(10) 0.93573(16)
O2_4 O 0.09855(8) 0.07751(10) 0.37864(15)
O4_4 O 0.09679(9) 0.11293(11) 0.28147(16)
O6_3 O 0.51204(9) 0.06996(10) 0.56427(16)
O7_3 O 0.47003(10) 0.12258(15) 0.6070(2)
C1_6 C 0.11675(13) 0.09120(16) 0.3264(2)
C2_6 C 0.16225(11) 0.08316(15) 0.3187(2)
C4_6 C 0.47791(14) 0.09180(18) 0.5632(2)
C5_6 C 0.44809(13) 0.08335(16) 0.5082(2)
C6_6 C 0.39218(12) 0.06510(16) 0.4028(2)
C9_6 C 0.36376(13) 0.05531(17) 0.3470(2)
C10_6 C 0.24839(12) 0.06741(18) 0.3061(2)
C12_6 C 0.32141(13) 0.06633(19) 0.3511(2)
H1_6 H 0.311416 0.080511 0.390152
C14_6 C 0.18543(12) 0.06527(17) 0.3722(2)
H2_6 H 0.172348 0.058128 0.412762
C16_6 C 0.42765(14) 0.03701(17) 0.4123(3)
H4_6 H 0.433170 0.011989 0.383142
C17_6 C 0.45435(14) 0.04638(18) 0.4648(3)
H5_6 H 0.477475 0.026933 0.470944
C18_6 C 0.29348(13) 0.05699(18) 0.2991(2)
C19_6 C 0.22734(13) 0.05820(18) 0.3653(2)
H6_6 H 0.242325 0.046710 0.401892
C20_6 C 0.37769(14) 0.03399(18) 0.2883(2)
H7_6 H 0.405674 0.025720 0.284090
C22_6 C 0.18283(13) 0.0937(2) 0.2595(2)
H8_6 H 0.168150 0.106827 0.223694
C25_6 C 0.22509(14) 0.0849(2) 0.2531(2)
H11_6 H 0.238141 0.090911 0.212143
C27_6 C 0.35049(14) 0.0249(2) 0.2361(2)
C29_6 C 0.38511(15) 0.1017(2) 0.4486(3)
H13_6 H 0.361119 0.120097 0.444594
N2_6 N 0.3972(2) 0.0032(3) 0.1592(3)
C30_6 C 0.30892(14) 0.0370(2) 0.2409(3)
H14_6 H 0.291167 0.031628 0.204659
C31_6 C 0.41303(15) 0.11130(18) 0.4999(3)
H15_6 H 0.408216 0.136607 0.528923
H20_6 H 0.421302 0.025895 0.038885
In2_2 In 0.53728(2) 0.10842(2) 0.65361(2)
O1_6 O 0.50223(10) 0.10033(10) 0.74741(16)
O8_6 O 0.52549(12) 0.03396(12) 0.70981(17)
C7_6 C 0.50666(13) 0.05660(16) 0.7530(2)
C11_6 C 0.48910(14) 0.03229(15) 0.8145(2)
C35_6 C 0.4710(2) 0.05716(19) 0.8638(3)
H18_6 H 0.469104 0.089944 0.859877
C37_6 C 0.4554(2) 0.03567(19) 0.9192(3)
H19_6 H 0.443335 0.054643 0.952169
O9_4 O 0.59855(8) 0.07751(10) 0.62136(15)
O10_4 O 0.55582(11) 0.16759(11) 0.57889(17)
O11_4 O 0.59679(9) 0.11293(11) 0.71853(16)
O12_4 O 0.53326(10) 0.18669(12) 0.67672(18)
O3_4 O 0.44418(11) 0.66759(11) 0.07889(17)
O5_4 O 0.46674(10) 0.68669(12) 0.17672(18)
C3_6 C 0.45298(14) 0.69920(16) 0.1212(2)
C8_6 C 0.44790(14) 0.74988(14) 0.1039(2)
N1_6 N 0.36486(17) 0.9989(2) 0.1771(3)
C13_6 C 0.43660(16) 0.84548(15) 0.0762(2)
C15_6 C 0.43740(16) 0.76469(16) 0.0400(2)
H3_6 H 0.433840 0.742368 0.006000
C21_6 C 0.43160(19) 0.89677(15) 0.0639(3)
C23_6 C 0.43215(17) 0.81170(16) 0.0259(2)
C24_6 C 0.44446(16) 0.91797(15) 0.0031(2)
C28_6 C 0.4530(2) 0.78313(19) 0.1535(2)
H12_6 H 0.460166 0.773569 0.196802
C32_6 C 0.4476(2) 0.83060(18) 0.1398(2)
H16_6 H 0.451410 0.852819 0.173831
C34_6 C 0.41398(18) 0.92612(19) 0.1141(2)
H17_6 H 0.403844 0.913037 0.153813
C36_6 C 0.4121(2) 0.9729(2) 0.1037(3)
C38_6 C 0.4244(2) 0.99337(18) 0.0447(3)
O6_4 O 0.48796(9) 0.56996(10) 0.06427(16)
O7_4 O 0.52997(10) 0.62258(15) 0.1070(2)
C4_7 C 0.52209(14) 0.59180(18) 0.0632(2)
C5_7 C 0.55191(13) 0.58335(16) 0.0082(2)
H15_7 H 0.591784 0.636607 0.028923
O1_7 O 0.49777(10) 0.60033(10) 0.24741(16)
O8_7 O 0.47451(12) 0.53396(12) 0.20981(17)
C1_7 C 0.88325(13) 0.59120(16) 0.8264(2)
C2_7 C 0.83775(11) 0.58316(15) 0.8187(2)
C3_7 C 0.54702(14) 0.19920(16) 0.6212(2)
C6_7 C 0.60782(12) 0.56510(16) 0.9028(2)
C7_7 C 0.49334(13) 0.55660(16) 0.2530(2)
C8_7 C 0.55210(14) 0.24988(14) 0.6039(2)
C9_7 C 0.63624(13) 0.55531(17) 0.8470(2)
C10_7 C 0.75161(12) 0.56741(18) 0.8061(2)
C11_7 C 0.51090(14) 0.53229(15) 0.3145(2)
C12_7 C 0.67859(13) 0.56633(19) 0.8511(2)
H1_7 H 0.688584 0.580511 0.890152
N1_7 N 0.63514(17) 0.4989(2) 0.6771(3)
C13_7 C 0.56340(16) 0.34548(15) 0.5762(2)
C14_7 C 0.81457(12) 0.56527(17) 0.8722(2)
H2_7 H 0.827652 0.558128 0.912762
C15_7 C 0.56260(16) 0.26469(16) 0.5400(2)
H3_7 H 0.566160 0.242368 0.506000
C16_7 C 0.57235(14) 0.53701(17) 0.9123(3)
H4_7 H 0.566830 0.511989 0.883142
C17_7 C 0.54565(14) 0.54638(18) 0.9648(3)
H5_7 H 0.522525 0.526933 0.970944
C18_7 C 0.70652(13) 0.55699(18) 0.7991(2)
C19_7 C 0.77266(13) 0.55820(18) 0.8653(2)
H6_7 H 0.757675 0.546710 0.901892
C20_7 C 0.62231(14) 0.53399(18) 0.7883(2)
H7_7 H 0.594326 0.525720 0.784090
C21_7 C 0.56840(19) 0.39677(15) 0.5639(3)
C22_7 C 0.81717(13) 0.5937(2) 0.7595(2)
H8_7 H 0.831850 0.606827 0.723694
C23_7 C 0.56785(17) 0.31170(16) 0.5259(2)
H9_4 H 0.574440 0.321142 0.482296
C24_7 C 0.55554(16) 0.41797(15) 0.5031(2)
H10_4 H 0.544899 0.398934 0.468985
C25_7 C 0.77491(14) 0.5849(2) 0.7531(2)
H11_7 H 0.761859 0.590911 0.712143
C26_4 C 0.54377(16) 0.48911(16) 0.4295(3)
C27_7 C 0.64951(14) 0.5249(2) 0.7361(2)
C28_7 C 0.5470(2) 0.28313(19) 0.6535(2)
H12_7 H 0.539834 0.273569 0.696802
C29_7 C 0.61489(15) 0.6017(2) 0.9486(3)
H13_7 H 0.638881 0.620097 0.944594
N2_7 N 0.6028(2) 0.5032(3) 0.6592(3)
C30_7 C 0.69108(14) 0.5370(2) 0.7409(3)
H14_7 H 0.708833 0.531628 0.704659
C31_7 C 0.58697(15) 0.61130(18) 0.9999(3)
C32_7 C 0.5524(2) 0.33060(18) 0.6398(2)
H16_7 H 0.548590 0.352819 0.673831
C33_4 C 0.55832(17) 0.46624(16) 0.4930(3)
C34_7 C 0.58602(18) 0.42612(19) 0.6141(2)
H17_7 H 0.596156 0.413037 0.653813
C35_7 C 0.5290(2) 0.55716(19) 0.3638(3)
H18_7 H 0.530896 0.589944 0.359877
C36_7 C 0.5879(2) 0.4729(2) 0.6037(3)
C37_7 C 0.5446(2) 0.53567(19) 0.4192(3)
H19_7 H 0.556665 0.554643 0.452169
C38_7 C 0.5756(2) 0.49337(18) 0.5447(3)
H20_7 H 0.578698 0.525895 0.538885
C39_4 C 0.5114(3) 0.48417(19) 0.3196(3)
H21_4 H 0.500085 0.465450 0.285627
C40_4 C 0.5293(3) 0.4632(2) 0.3770(4)
H22_4 H 0.531283 0.430301 0.379064
O1_8 O 0.00223(10) 0.10033(10) 0.25259(16)
O8_8 O 0.02549(12) 0.03396(12) 0.29019(17)
C7_8 C 0.00666(13) 0.05660(16) 0.2470(2)
O13_4 O 0.01204(9) 0.06996(10) 0.43573(16)
C11_8 C 0.98910(14) 0.03229(15) 0.1855(2)
C35_8 C 0.9710(2) 0.05716(19) 0.1362(3)
H18_8 H 0.969104 0.089944 0.140123
C37_8 C 0.9554(2) 0.03567(19) 0.0808(3)
H19_8 H 0.943335 0.054643 0.047831
O14_4 O 0.97003(10) 0.12258(15) 0.3930(2)
C1_8 C 0.61675(13) 0.09120(16) 0.6736(2)
C2_8 C 0.66225(11) 0.08316(15) 0.6813(2)
C4_8 C 0.97791(14) 0.09180(18) 0.4368(2)
C5_8 C 0.94809(13) 0.08335(16) 0.4918(2)
C6_8 C 0.89218(12) 0.06510(16) 0.5972(2)
C9_8 C 0.86376(13) 0.05531(17) 0.6530(2)
C10_8 C 0.74839(12) 0.06741(18) 0.6939(2)
C12_8 C 0.82141(13) 0.06633(19) 0.6489(2)
H1_8 H 0.811416 0.080511 0.609848
C14_8 C 0.68543(12) 0.06527(17) 0.6278(2)
H2_8 H 0.672348 0.058128 0.587238
C16_8 C 0.92765(14) 0.03701(17) 0.5877(3)
H4_8 H 0.933170 0.011989 0.616858
C17_8 C 0.95435(14) 0.04638(18) 0.5352(3)
H5_8 H 0.977475 0.026933 0.529056
C18_8 C 0.79348(13) 0.05699(18) 0.7009(2)
C19_8 C 0.72734(13) 0.05820(18) 0.6347(2)
H6_8 H 0.742325 0.046710 0.598108
C20_8 C 0.87769(14) 0.03399(18) 0.7117(2)
H7_8 H 0.905674 0.025720 0.715910
C22_8 C 0.68283(13) 0.0937(2) 0.7405(2)
H8_8 H 0.668150 0.106827 0.776306
C25_8 C 0.72509(14) 0.0849(2) 0.7469(2)
H11_8 H 0.738141 0.090911 0.787857
C27_8 C 0.85049(14) 0.0249(2) 0.7639(2)
C29_8 C 0.88511(15) 0.1017(2) 0.5514(3)
H13_8 H 0.861119 0.120097 0.555406
N2_8 N 0.8972(2) 0.0032(3) 0.8408(3)
C30_8 C 0.80892(14) 0.0370(2) 0.7591(3)
H14_8 H 0.791167 0.031628 0.795341
C31_8 C 0.91303(15) 0.11130(18) 0.5001(3)
H15_8 H 0.908216 0.136607 0.471077
H20_8 H 0.921302 0.025895 0.961115
C3_8 C 0.95298(14) 0.69920(16) 0.8788(2)
C8_8 C 0.94790(14) 0.74988(14) 0.8961(2)
N1_8 N 0.86486(17) 0.9989(2) 0.8229(3)
C13_8 C 0.93660(16) 0.84548(15) 0.9238(2)
C15_8 C 0.93740(16) 0.76469(16) 0.9600(2)
H3_8 H 0.933840 0.742368 0.994000
C21_8 C 0.93160(19) 0.89677(15) 0.9361(3)
C23_8 C 0.93215(17) 0.81170(16) 0.9741(2)
C24_8 C 0.94446(16) 0.91797(15) 0.9969(2)
C28_8 C 0.9530(2) 0.78313(19) 0.8465(2)
H12_8 H 0.960166 0.773569 0.803198
C32_8 C 0.9476(2) 0.83060(18) 0.8602(2)
H16_8 H 0.951410 0.852819 0.826169
C34_8 C 0.91398(18) 0.92612(19) 0.8859(2)
H17_8 H 0.903844 0.913037 0.846187
C36_8 C 0.9121(2) 0.9729(2) 0.8963(3)
C38_8 C 0.9244(2) 0.99337(18) 0.9553(3)
H9_5 H 0.074440 0.178858 0.982296
H10_5 H 0.044899 0.101066 0.968985
C26_5 C 0.04377(16) 0.01089(16) 0.9295(3)
C33_5 C 0.05832(17) 0.03376(16) 0.9930(3)
C39_5 C 0.0114(3) 0.01583(19) 0.8196(3)
H21_5 H 0.000085 0.034550 0.785627
C40_5 C 0.0293(3) 0.0368(2) 0.8770(4)
H22_5 H 0.031283 0.069699 0.879064
H9_6 H 0.425560 0.821142 0.982296
H10_6 H 0.455101 0.898934 0.968985
C26_6 C 0.45623(16) 0.98911(16) 0.9295(3)
C33_6 C 0.44168(17) 0.96624(16) 0.9930(3)
C39_6 C 0.4886(3) 0.98417(19) 0.8196(3)
H21_6 H 0.499915 0.965450 0.785627
C40_6 C 0.4707(3) 0.9632(2) 0.8770(4)
H22_6 H 0.468717 0.930301 0.879064
H9_7 H 0.925560 0.821142 0.017704
H10_7 H 0.955101 0.898934 0.031015
C26_7 C 0.95623(16) 0.98911(16) 0.0705(3)
C33_7 C 0.94168(17) 0.96624(16) 0.0070(3)
C39_7 C 0.9886(3) 0.98417(19) 0.1804(3)
H21_7 H 0.999915 0.965450 0.214373
C40_7 C 0.9707(3) 0.9632(2) 0.1230(4)
H22_7 H 0.968717 0.930301 0.120936
H9_8 H 0.574440 0.178858 0.017704
H10_8 H 0.544899 0.101066 0.031015
C26_8 C 0.54377(16) 0.01089(16) 0.0705(3)
C33_8 C 0.55832(17) 0.03376(16) 0.0070(3)
C39_8 C 0.5114(3) 0.01583(19) 0.1804(3)
H21_8 H 0.500085 0.034550 0.214373
C40_8 C 0.5293(3) 0.0368(2) 0.1230(4)
H22_8 H 0.531283 0.069699 0.120936
loop_
_geom_bond_atom_site_label_1
_geom_bond_atom_site_label_2
_geom_bond_site_symmetry_1
_geom_bond_site_symmetry_2
In1 O1 1_555 1_555
O1 C7 1_555 1_555
O2 C1 1_555 1_555
O3 C3 1_555 1_555
O4 C1 1_555 1_555
O5 C3 1_555 1_555
O8 In1 1_555 1_555
C1 C2 1_555 1_555
C2 C14 1_555 1_555
C3 C8 1_555 1_555
C6 C9 1_555 1_555
C7 O8 1_555 1_555
C8 C15 1_555 1_555
C9 C12 1_555 1_555
C10 C18 1_555 1_555
C11 C7 1_555 1_555
C12 H1 1_555 1_555
N1 C27 1_555 1_555
C13 C21 1_555 1_555
C14 H2 1_555 1_555
C15 H3 1_555 1_555
C16 C6 1_555 1_555
H4 C16 1_555 1_555
C17 C16 1_555 1_555
H5 C17 1_555 1_555
C18 C12 1_555 1_555
C19 C10 1_555 1_555
H6 C19 1_555 1_555
C20 C9 1_555 1_555
H7 C20 1_555 1_555
C21 C24 1_555 1_555
C22 C2 1_555 1_555
H8 C22 1_555 1_555
C23 C13 1_555 1_555
H9 C23 1_555 1_555
C24 H10 1_555 1_555
C25 C10 1_555 1_555
H11 C25 1_555 1_555
C26 C33 1_555 1_555
C27 C20 1_555 1_555
C28 C8 1_555 1_555
H12 C28 1_555 1_555
C29 C6 1_555 1_555
H13 C29 1_555 1_555
N2 N1 1_555 1_555
C30 C18 1_555 1_555
H14 C30 1_555 1_555
C32 C13 1_555 1_555
H16 C32 1_555 1_555
C33 C24 1_555 1_555
C34 C21 1_555 1_555
H17 C34 1_555 1_555
C35 C11 1_555 1_555
H18 C35 1_555 1_555
C36 N2 1_555 1_555
C37 C26 1_555 1_555
H19 C37 1_555 1_555
C38 C33 1_555 1_555
H20 C38 1_555 1_555
C39 C11 1_555 1_555
H21 C39 1_555 1_555
C40 C26 1_555 1_555
H22 C40 1_555 1_555
In3 O2 1_555 1_555
In4 O3 1_555 1_555
O9 In1 1_555 1_555
O10 In1 1_555 1_555
O11 In1 1_555 1_555
O12 In1 1_555 1_555
O13 In1 1_555 1_555
O14 In1 1_555 1_555
O4 In3 1_555 1_555
O5 In4 1_555 1_555
C14 C19 1_555 1_555
C15 C23 1_555 1_555
C22 C25 1_555 1_555
C27 C30 1_555 1_555
C28 C32 1_555 1_555
C29 C31 1_555 1_555
C34 C36 1_555 1_555
C35 C37 1_555 1_555
C36 C38 1_555 1_555
C39 C40 1_555 1_555
O13 C4 1_555 1_555
O14 C4 1_555 1_555
C4 C5 1_555 1_555
O3_2 C3_2 1_555 1_555
O5_2 C3_2 1_555 1_555
C3_2 C8_2 1_555 1_555
C8_2 C15_2 1_555 1_555
C13_2 C21_2 1_555 1_555
C15_2 H3_2 1_555 1_555
C21_2 C24_2 1_555 1_555
C23_2 C13_2 1_555 1_555
C28_2 C8_2 1_555 1_555
H12_2 C28_2 1_555 1_555
C32_2 C13_2 1_555 1_555
H16_2 C32_2 1_555 1_555
C34_2 C21_2 1_555 1_555
H17_2 C34_2 1_555 1_555
In3 O3_2 1_555 1_555
O5_2 In3 1_555 1_555
C15_2 C23_2 1_555 1_555
C28_2 C32_2 1_555 1_555
C34_2 C36_2 1_555 1_555
C36_2 C38_2 1_555 1_555
O2_2 C1_2 1_555 1_555
O4_2 C1_2 1_555 1_555
O7 C4_2 1_555 1_555
C1_2 C2_2 1_555 1_555
C2_2 C14_2 1_555 1_555
C4_2 C5_2 1_555 1_555
C5_2 C17_2 1_555 1_555
C6_2 C9_2 1_555 1_555
C9_2 C12_2 1_555 1_555
C10_2 C18_2 1_555 1_555
C12_2 H1_2 1_555 1_555
C14_2 H2_2 1_555 1_555
C16_2 C6_2 1_555 1_555
H4_2 C16_2 1_555 1_555
C17_2 C16_2 1_555 1_555
H5_2 C17_2 1_555 1_555
C18_2 C12_2 1_555 1_555
C19_2 C10_2 1_555 1_555
H6_2 C19_2 1_555 1_555
C20_2 C9_2 1_555 1_555
H7_2 C20_2 1_555 1_555
C22_2 C2_2 1_555 1_555
H8_2 C22_2 1_555 1_555
C25_2 C10_2 1_555 1_555
H11_2 C25_2 1_555 1_555
C27_2 C20_2 1_555 1_555
C29_2 C6_2 1_555 1_555
H13_2 C29_2 1_555 1_555
C30_2 C18_2 1_555 1_555
H14_2 C30_2 1_555 1_555
C31_2 C5_2 1_555 1_555
H15_2 C31_2 1_555 1_555
In4 O2_2 1_555 1_555
O4_2 In4 1_555 1_555
C14_2 C19_2 1_555 1_555
C22_2 C25_2 1_555 1_555
C27_2 C30_2 1_555 1_555
C29_2 C31_2 1_555 1_555
C35_2 C11_2 1_555 1_555
H18_2 C35_2 1_555 1_555
H19_2 C37_2 1_555 1_555
C35_2 C37_2 1_555 1_555
In2 O6 1_555 1_555
In2 O1_2 1_555 1_555
O1_2 C7_2 1_555 1_555
O8_2 In2 1_555 1_555
C7_2 O8_2 1_555 1_555
O9_2 In2 1_555 1_555
O10_2 In2 1_555 1_555
O11_2 In2 1_555 1_555
O12_2 In2 1_555 1_555
In3 O6_2 1_555 1_555
In3 O1_3 1_555 1_555
O1_3 C7_3 1_555 1_555
O8_3 In3 1_555 1_555
C7_3 O8_3 1_555 1_555
O7_2 C4_3 1_555 1_555
C4_3 C5_3 1_555 1_555
O9 C1_3 1_555 1_555
O10_2 C3_3 1_555 1_555
O11 C1_3 1_555 1_555
O12_2 C3_3 1_555 1_555
C1_3 C2_3 1_555 1_555
C2_3 C14_3 1_555 1_555
C3_3 C8_3 1_555 1_555
C6_3 C9_3 1_555 1_555
C8_3 C15_3 1_555 1_555
C9_3 C12_3 1_555 1_555
C10_3 C18_3 1_555 1_555
C12_3 H1_3 1_555 1_555
N1_3 C27_3 1_555 1_555
C13_3 C21_3 1_555 1_555
C14_3 H2_3 1_555 1_555
C15_3 H3_3 1_555 1_555
C16_3 C6_3 1_555 1_555
H4_3 C16_3 1_555 1_555
C17_3 C16_3 1_555 1_555
H5_3 C17_3 1_555 1_555
C18_3 C12_3 1_555 1_555
C19_3 C10_3 1_555 1_555
H6_3 C19_3 1_555 1_555
C20_3 C9_3 1_555 1_555
H7_3 C20_3 1_555 1_555
C21_3 C24_3 1_555 1_555
C22_3 C2_3 1_555 1_555
H8_3 C22_3 1_555 1_555
C23_3 C13_3 1_555 1_555
H9_2 C23_3 1_555 1_555
C24_3 H10_2 1_555 1_555
C25_3 C10_3 1_555 1_555
H11_3 C25_3 1_555 1_555
C26_2 C33_2 1_555 1_555
C27_3 C20_3 1_555 1_555
C28_3 C8_3 1_555 1_555
H12_3 C28_3 1_555 1_555
C29_3 C6_3 1_555 1_555
H13_3 C29_3 1_555 1_555
N2_3 N1_3 1_555 1_555
C30_3 C18_3 1_555 1_555
H14_3 C30_3 1_555 1_555
C32_3 C13_3 1_555 1_555
H16_3 C32_3 1_555 1_555
C33_2 C24_3 1_555 1_555
C34_3 C21_3 1_555 1_555
H17_3 C34_3 1_555 1_555
C35_3 C11_3 1_555 1_555
H18_3 C35_3 1_555 1_555
C36_3 N2_3 1_555 1_555
C37_3 C26_2 1_555 1_555
H19_3 C37_3 1_555 1_555
C38_3 C33_2 1_555 1_555
H20_3 C38_3 1_555 1_555
C39_2 C11_3 1_555 1_555
H21_2 C39_2 1_555 1_555
C40_2 C26_2 1_555 1_555
H22_2 C40_2 1_555 1_555
C14_3 C19_3 1_555 1_555
C15_3 C23_3 1_555 1_555
C22_3 C25_3 1_555 1_555
C27_3 C30_3 1_555 1_555
C28_3 C32_3 1_555 1_555
C29_3 C31_3 1_555 1_555
C34_3 C36_3 1_555 1_555
C35_3 C37_3 1_555 1_555
C36_3 C38_3 1_555 1_555
C39_2 C40_2 1_555 1_555
O10 C3_4 1_555 1_555
O12 C3_4 1_555 1_555
C3_4 C8_4 1_555 1_555
C8_4 C15_4 1_555 1_555
C13_4 C21_4 1_555 1_555
C15_4 H3_4 1_555 1_555
C21_4 C24_4 1_555 1_555
C23_4 C13_4 1_555 1_555
C28_4 C8_4 1_555 1_555
H12_4 C28_4 1_555 1_555
C32_4 C13_4 1_555 1_555
H16_4 C32_4 1_555 1_555
C34_4 C21_4 1_555 1_555
H17_4 C34_4 1_555 1_555
C15_4 C23_4 1_555 1_555
C28_4 C32_4 1_555 1_555
C34_4 C36_4 1_555 1_555
C36_4 C38_4 1_555 1_555
In4 O1_4 1_555 1_555
O1_4 C7_4 1_555 1_555
O8_4 In4 1_555 1_555
C7_4 O8_4 1_555 1_555
C11_4 C7_4 1_555 1_555
C35_4 C11_4 1_555 1_555
H18_4 C35_4 1_555 1_555
H19_4 C37_4 1_555 1_555
O13_2 In4 1_555 1_555
O14_2 In4 1_555 1_555
C35_4 C37_4 1_555 1_555
O9_2 C1_4 1_555 1_555
O11_2 C1_4 1_555 1_555
O13_2 C4_4 1_555 1_555
O14_2 C4_4 1_555 1_555
C1_4 C2_4 1_555 1_555
C2_4 C14_4 1_555 1_555
C4_4 C5_4 1_555 1_555
C5_4 C17_4 1_555 1_555
C6_4 C9_4 1_555 1_555
C9_4 C12_4 1_555 1_555
C10_4 C18_4 1_555 1_555
C12_4 H1_4 1_555 1_555
C14_4 H2_4 1_555 1_555
C16_4 C6_4 1_555 1_555
H4_4 C16_4 1_555 1_555
C17_4 C16_4 1_555 1_555
H5_4 C17_4 1_555 1_555
C18_4 C12_4 1_555 1_555
C19_4 C10_4 1_555 1_555
H6_4 C19_4 1_555 1_555
C20_4 C9_4 1_555 1_555
H7_4 C20_4 1_555 1_555
C22_4 C2_4 1_555 1_555
H8_4 C22_4 1_555 1_555
C25_4 C10_4 1_555 1_555
H11_4 C25_4 1_555 1_555
C27_4 C20_4 1_555 1_555
C29_4 C6_4 1_555 1_555
H13_4 C29_4 1_555 1_555
C30_4 C18_4 1_555 1_555
H14_4 C30_4 1_555 1_555
C31_4 C5_4 1_555 1_555
H15_4 C31_4 1_555 1_555
C14_4 C19_4 1_555 1_555
C22_4 C25_4 1_555 1_555
C27_4 C30_4 1_555 1_555
C29_4 C31_4 1_555 1_555
O2_3 C1_5 1_555 1_555
O3_3 C3_5 1_555 1_555
O4_3 C1_5 1_555 1_555
O5_3 C3_5 1_555 1_555
C1_5 C2_5 1_555 1_555
C2_5 C14_5 1_555 1_555
C3_5 C8_5 1_555 1_555
C6_5 C9_5 1_555 1_555
C8_5 C15_5 1_555 1_555
C9_5 C12_5 1_555 1_555
C10_5 C18_5 1_555 1_555
C12_5 H1_5 1_555 1_555
N1_5 C27_5 1_555 1_555
C13_5 C21_5 1_555 1_555
C14_5 H2_5 1_555 1_555
C15_5 H3_5 1_555 1_555
C16_5 C6_5 1_555 1_555
H4_5 C16_5 1_555 1_555
C17_5 C16_5 1_555 1_555
H5_5 C17_5 1_555 1_555
C18_5 C12_5 1_555 1_555
C19_5 C10_5 1_555 1_555
H6_5 C19_5 1_555 1_555
C20_5 C9_5 1_555 1_555
H7_5 C20_5 1_555 1_555
C21_5 C24_5 1_555 1_555
C22_5 C2_5 1_555 1_555
H8_5 C22_5 1_555 1_555
C23_5 C13_5 1_555 1_555
H9_3 C23_5 1_555 1_555
C24_5 H10_3 1_555 1_555
C25_5 C10_5 1_555 1_555
H11_5 C25_5 1_555 1_555
C26_3 C33_3 1_555 1_555
C27_5 C20_5 1_555 1_555
C28_5 C8_5 1_555 1_555
H12_5 C28_5 1_555 1_555
C29_5 C6_5 1_555 1_555
H13_5 C29_5 1_555 1_555
N2_5 N1_5 1_555 1_555
C30_5 C18_5 1_555 1_555
H14_5 C30_5 1_555 1_555
C32_5 C13_5 1_555 1_555
H16_5 C32_5 1_555 1_555
C33_3 C24_5 1_555 1_555
C34_5 C21_5 1_555 1_555
H17_5 C34_5 1_555 1_555
C35_5 C11_5 1_555 1_555
H18_5 C35_5 1_555 1_555
C36_5 N2_5 1_555 1_555
C37_5 C26_3 1_555 1_555
H19_5 C37_5 1_555 1_555
C38_5 C33_3 1_555 1_555
H20_5 C38_5 1_555 1_555
C39_3 C11_5 1_555 1_555
H21_3 C39_3 1_555 1_555
C40_3 C26_3 1_555 1_555
H22_3 C40_3 1_555 1_555
In3_2 O2_3 1_555 1_555
In4_2 O3_3 1_555 1_555
O4_3 In3_2 1_555 1_555
O5_3 In4_2 1_555 1_555
C14_5 C19_5 1_555 1_555
C15_5 C23_5 1_555 1_555
C22_5 C25_5 1_555 1_555
C27_5 C30_5 1_555 1_555
C28_5 C32_5 1_555 1_555
C29_5 C31_5 1_555 1_555
C34_5 C36_5 1_555 1_555
C35_5 C37_5 1_555 1_555
C36_5 C38_5 1_555 1_555
C39_3 C40_3 1_555 1_555
O14_3 C4_5 1_555 1_555
C4_5 C5_5 1_555 1_555
In1_2 O1_5 1_555 1_555
O1_5 C7_5 1_555 1_555
O8_5 In1_2 1_555 1_555
C7_5 O8_5 1_555 1_555
O9_3 In1_2 1_555 1_555
O10_3 In1_2 1_555 1_555
O11_3 In1_2 1_555 1_555
O12_3 In1_2 1_555 1_555
O13_3 In1_2 1_555 1_555
O2_4 C1_6 1_555 1_555
O4_4 C1_6 1_555 1_555
O6_3 C4_6 1_555 1_555
O7_3 C4_6 1_555 1_555
C1_6 C2_6 1_555 1_555
C2_6 C14_6 1_555 1_555
C4_6 C5_6 1_555 1_555
C5_6 C17_6 1_555 1_555
C6_6 C9_6 1_555 1_555
C9_6 C12_6 1_555 1_555
C10_6 C18_6 1_555 1_555
C12_6 H1_6 1_555 1_555
C14_6 H2_6 1_555 1_555
C16_6 C6_6 1_555 1_555
H4_6 C16_6 1_555 1_555
C17_6 C16_6 1_555 1_555
H5_6 C17_6 1_555 1_555
C18_6 C12_6 1_555 1_555
C19_6 C10_6 1_555 1_555
H6_6 C19_6 1_555 1_555
C20_6 C9_6 1_555 1_555
H7_6 C20_6 1_555 1_555
C22_6 C2_6 1_555 1_555
H8_6 C22_6 1_555 1_555
C25_6 C10_6 1_555 1_555
H11_6 C25_6 1_555 1_555
C27_6 C20_6 1_555 1_555
C29_6 C6_6 1_555 1_555
H13_6 C29_6 1_555 1_555
C30_6 C18_6 1_555 1_555
H14_6 C30_6 1_555 1_555
C31_6 C5_6 1_555 1_555
H15_6 C31_6 1_555 1_555
In2_2 O6_3 1_555 1_555
In4_2 O2_4 1_555 1_555
O4_4 In4_2 1_555 1_555
O7_3 In2_2 1_555 1_555
C14_6 C19_6 1_555 1_555
C22_6 C25_6 1_555 1_555
C27_6 C30_6 1_555 1_555
C29_6 C31_6 1_555 1_555
In2_2 O1_6 1_555 1_555
O1_6 C7_6 1_555 1_555
O8_6 In2_2 1_555 1_555
C7_6 O8_6 1_555 1_555
C11_6 C7_6 1_555 1_555
C35_6 C11_6 1_555 1_555
H18_6 C35_6 1_555 1_555
H19_6 C37_6 1_555 1_555
O9_4 In2_2 1_555 1_555
O10_4 In2_2 1_555 1_555
O11_4 In2_2 1_555 1_555
O12_4 In2_2 1_555 1_555
C35_6 C37_6 1_555 1_555
O3_4 C3_6 1_555 1_555
O5_4 C3_6 1_555 1_555
C3_6 C8_6 1_555 1_555
C8_6 C15_6 1_555 1_555
C13_6 C21_6 1_555 1_555
C15_6 H3_6 1_555 1_555
C21_6 C24_6 1_555 1_555
C23_6 C13_6 1_555 1_555
C28_6 C8_6 1_555 1_555
H12_6 C28_6 1_555 1_555
C32_6 C13_6 1_555 1_555
H16_6 C32_6 1_555 1_555
C34_6 C21_6 1_555 1_555
H17_6 C34_6 1_555 1_555
In3_2 O3_4 1_555 1_555
O5_4 In3_2 1_555 1_555
C15_6 C23_6 1_555 1_555
C28_6 C32_6 1_555 1_555
C34_6 C36_6 1_555 1_555
C36_6 C38_6 1_555 1_555
O6_4 C4_7 1_555 1_555
O7_4 C4_7 1_555 1_555
C4_7 C5_7 1_555 1_555
In3_2 O6_4 1_555 1_555
O7_4 In3_2 1_555 1_555
In3_2 O1_7 1_555 1_555
O1_7 C7_7 1_555 1_555
O9_3 C1_7 1_555 1_555
O10_4 C3_7 1_555 1_555
O11_3 C1_7 1_555 1_555
O12_4 C3_7 1_555 1_555
O8_7 In3_2 1_555 1_555
C1_7 C2_7 1_555 1_555
C2_7 C14_7 1_555 1_555
C3_7 C8_7 1_555 1_555
C6_7 C9_7 1_555 1_555
C7_7 O8_7 1_555 1_555
C8_7 C15_7 1_555 1_555
C9_7 C12_7 1_555 1_555
C10_7 C18_7 1_555 1_555
C11_7 C7_7 1_555 1_555
C12_7 H1_7 1_555 1_555
N1_7 C27_7 1_555 1_555
C13_7 C21_7 1_555 1_555
C14_7 H2_7 1_555 1_555
C15_7 H3_7 1_555 1_555
C16_7 C6_7 1_555 1_555
H4_7 C16_7 1_555 1_555
C17_7 C16_7 1_555 1_555
H5_7 C17_7 1_555 1_555
C18_7 C12_7 1_555 1_555
C19_7 C10_7 1_555 1_555
H6_7 C19_7 1_555 1_555
C20_7 C9_7 1_555 1_555
H7_7 C20_7 1_555 1_555
C21_7 C24_7 1_555 1_555
C22_7 C2_7 1_555 1_555
H8_7 C22_7 1_555 1_555
C23_7 C13_7 1_555 1_555
H9_4 C23_7 1_555 1_555
C24_7 H10_4 1_555 1_555
C25_7 C10_7 1_555 1_555
H11_7 C25_7 1_555 1_555
C26_4 C33_4 1_555 1_555
C27_7 C20_7 1_555 1_555
C28_7 C8_7 1_555 1_555
H12_7 C28_7 1_555 1_555
C29_7 C6_7 1_555 1_555
H13_7 C29_7 1_555 1_555
N2_7 N1_7 1_555 1_555
C30_7 C18_7 1_555 1_555
H14_7 C30_7 1_555 1_555
C32_7 C13_7 1_555 1_555
H16_7 C32_7 1_555 1_555
C33_4 C24_7 1_555 1_555
C34_7 C21_7 1_555 1_555
H17_7 C34_7 1_555 1_555
C35_7 C11_7 1_555 1_555
H18_7 C35_7 1_555 1_555
C36_7 N2_7 1_555 1_555
C37_7 C26_4 1_555 1_555
H19_7 C37_7 1_555 1_555
C38_7 C33_4 1_555 1_555
H20_7 C38_7 1_555 1_555
C39_4 C11_7 1_555 1_555
H21_4 C39_4 1_555 1_555
C40_4 C26_4 1_555 1_555
H22_4 C40_4 1_555 1_555
C14_7 C19_7 1_555 1_555
C15_7 C23_7 1_555 1_555
C22_7 C25_7 1_555 1_555
C27_7 C30_7 1_555 1_555
C28_7 C32_7 1_555 1_555
C29_7 C31_7 1_555 1_555
C34_7 C36_7 1_555 1_555
C35_7 C37_7 1_555 1_555
C36_7 C38_7 1_555 1_555
C39_4 C40_4 1_555 1_555
In4_2 O1_8 1_555 1_555
O1_8 C7_8 1_555 1_555
O8_8 In4_2 1_555 1_555
C7_8 O8_8 1_555 1_555
O13_4 In4_2 1_555 1_555
C35_8 C11_8 1_555 1_555
H18_8 C35_8 1_555 1_555
H19_8 C37_8 1_555 1_555
C35_8 C37_8 1_555 1_555
O9_4 C1_8 1_555 1_555
O11_4 C1_8 1_555 1_555
O14_4 C4_8 1_555 1_555
C1_8 C2_8 1_555 1_555
C2_8 C14_8 1_555 1_555
C4_8 C5_8 1_555 1_555
C5_8 C17_8 1_555 1_555
C6_8 C9_8 1_555 1_555
C9_8 C12_8 1_555 1_555
C10_8 C18_8 1_555 1_555
C12_8 H1_8 1_555 1_555
C14_8 H2_8 1_555 1_555
C16_8 C6_8 1_555 1_555
H4_8 C16_8 1_555 1_555
C17_8 C16_8 1_555 1_555
H5_8 C17_8 1_555 1_555
C18_8 C12_8 1_555 1_555
C19_8 C10_8 1_555 1_555
H6_8 C19_8 1_555 1_555
C20_8 C9_8 1_555 1_555
H7_8 C20_8 1_555 1_555
C22_8 C2_8 1_555 1_555
H8_8 C22_8 1_555 1_555
C25_8 C10_8 1_555 1_555
H11_8 C25_8 1_555 1_555
C27_8 C20_8 1_555 1_555
C29_8 C6_8 1_555 1_555
H13_8 C29_8 1_555 1_555
C30_8 C18_8 1_555 1_555
H14_8 C30_8 1_555 1_555
C31_8 C5_8 1_555 1_555
H15_8 C31_8 1_555 1_555
C14_8 C19_8 1_555 1_555
C22_8 C25_8 1_555 1_555
C27_8 C30_8 1_555 1_555
C29_8 C31_8 1_555 1_555
O10_3 C3_8 1_555 1_555
O12_3 C3_8 1_555 1_555
C3_8 C8_8 1_555 1_555
C8_8 C15_8 1_555 1_555
C13_8 C21_8 1_555 1_555
C15_8 H3_8 1_555 1_555
C21_8 C24_8 1_555 1_555
C23_8 C13_8 1_555 1_555
C28_8 C8_8 1_555 1_555
H12_8 C28_8 1_555 1_555
C32_8 C13_8 1_555 1_555
H16_8 C32_8 1_555 1_555
C34_8 C21_8 1_555 1_555
H17_8 C34_8 1_555 1_555
C15_8 C23_8 1_555 1_555
C28_8 C32_8 1_555 1_555
C34_8 C36_8 1_555 1_555
C36_8 C38_8 1_555 1_555
C26_5 C33_5 1_555 1_555
H21_5 C39_5 1_555 1_555
C40_5 C26_5 1_555 1_555
H22_5 C40_5 1_555 1_555
C39_5 C40_5 1_555 1_555
C26_6 C33_6 1_555 1_555
H21_6 C39_6 1_555 1_555
C40_6 C26_6 1_555 1_555
H22_6 C40_6 1_555 1_555
C39_6 C40_6 1_555 1_555
C26_7 C33_7 1_555 1_555
H21_7 C39_7 1_555 1_555
C40_7 C26_7 1_555 1_555
H22_7 C40_7 1_555 1_555
C39_7 C40_7 1_555 1_555
C26_8 C33_8 1_555 1_555
H21_8 C39_8 1_555 1_555
C40_8 C26_8 1_555 1_555
H22_8 C40_8 1_555 1_555
C39_8 C40_8 1_555 1_555

#END
