
###############################################################################
#
# This file contains modified crystal structure data generated from the
# MOF subset of the Cambridge Structural Database (CSD) v543 
# hosted by the Cambridge Crystallographic Data Centre (CCDC).
#
# This work is licensed under the Creative Commons
# Attribution-NonCommercial-ShareAlike 4.0 International License.
# To view a copy of this license, visit
# http://creativecommons.org/licenses/by-nc-sa/4.0/
# or send a letter to
# Creative Commons, PO Box 1866, Mountain View, CA 94042, USA.
#
# CIF created using the CSD Python API on 29 September 2022
# The structure has been converted into the P1 space group
# The structure has a 3D framework
# The original CSD entry VIYSAA is in the rhombohedral crystal system
# The framework has been calculated to contain at least 10.0% void space
# The void calculation uses a probe of radius 1.32A, grid spacing 0.4
# H atom positions have been added when not included in the experimental data
#
###############################################################################

data_VIYSAA
_chemical_formula_moiety         '(C1440 H936 N72 O399 Zn78)n'
_symmetry_cell_setting           triclinic
_symmetry_space_group_name_H-M   'P 1'
_symmetry_Int_Tables_number      1
_space_group_name_Hall           'P 1'
loop_
_symmetry_equiv_pos_site_id
_symmetry_equiv_pos_as_xyz
1 x,y,z
_cell_length_a                   54.3601(10)
_cell_length_b                   54.3601(10)
_cell_length_c                   42.0659(13)
_cell_angle_alpha                90
_cell_angle_beta                 90
_cell_angle_gamma                120
_cell_volume                     107652
loop_
_atom_site_label
_atom_site_type_symbol
_atom_site_fract_x
_atom_site_fract_y
_atom_site_fract_z
Zn1 Zn 0.333333 0.23361(2) 0.416667
Zn2 Zn 0.36319(2) 0.29111(2) 0.46296(2)
Zn3 Zn 0.07193(2) 0.45607(2) 0.24653(3)
O1 O 0.14153(9) 0.36429(12) 0.58036(11)
O2 O 0.23547(9) 0.33953(11) 0.13465(13)
O3 O 0.36503(10) 0.27631(7) 0.42040(9)
O4 O 0.06588(11) 0.40787(9) 0.30059(11)
O5 O 0.24078(9) 0.30796(10) 0.16376(10)
O6 O 0.09173(9) 0.43643(10) 0.26105(13)
C1 C 0.23369(13) 0.32682(18) 0.1607(2)
O7 O 0.33077(15) 0.29382(12) 0.45378(13)
O8 O 0.14671(9) 0.40139(11) 0.55317(12)
C2 C 0.17653(11) 0.37129(11) 0.26890(12)
H1 H 0.170502 0.373210 0.248833
C3 C 0.08732(18) 0.41871(15) 0.28314(18)
C4 C 0.24518(14) 0.34443(12) 0.44224(16)
N1 N 0.21713(15) 0.35920(13) 0.36712(16)
C5 C 0.20667(11) 0.36498(12) 0.21282(14)
H2 H 0.202182 0.379318 0.210716
C6 C 0.14752(13) 0.38982(13) 0.29238(14)
C7 C 0.19493(12) 0.36073(12) 0.27152(14)
C8 C 0.26487(15) 0.33506(13) 0.44978(15)
C9 C 0.16686(13) 0.37908(12) 0.29544(14)
N2 N 0.20158(12) 0.36570(13) 0.36538(13)
C10 C 0.15098(17) 0.38076(19) 0.5574(2)
C11 C 0.20443(11) 0.35217(14) 0.24236(17)
C12 C 0.12530(15) 0.38191(13) 0.31420(13)
H3 H 0.123664 0.370189 0.331131
C13 C 0.23091(13) 0.35055(12) 0.46505(15)
H4 H 0.234033 0.348141 0.486273
C14 C 0.14965(13) 0.40783(14) 0.26815(15)
H5 H 0.163970 0.413181 0.253107
C15 C 0.21561(11) 0.35605(13) 0.18692(14)
H6 H 0.216581 0.364255 0.167226
C16 C 0.20562(13) 0.35950(13) 0.30231(16)
H7 H 0.219017 0.353778 0.304765
C17 C 0.19683(13) 0.36566(14) 0.48365(17)
C18 C 0.3037(2) 0.31739(18) 0.4632(3)
C19 C 0.3265(3) 0.30972(19) 0.46655(18)
C20 C 0.10919(13) 0.40907(12) 0.28710(17)
C21 C 0.10570(15) 0.39101(14) 0.31133(15)
H8 H 0.090639 0.384966 0.325513
C22 C 0.22327(11) 0.33514(15) 0.18911(17)
C23 C 0.21248(14) 0.35992(13) 0.45838(16)
C24 C 0.19506(17) 0.36728(17) 0.32864(14)
C25 C 0.21052(13) 0.32970(15) 0.24422(15)
H9 H 0.207817 0.320074 0.263327
C26 C 0.2909(3) 0.31122(17) 0.4381(2)
H10 H 0.294491 0.300534 0.423555
C27 C 0.17269(13) 0.35508(15) 0.53478(15)
H11 H 0.165957 0.343213 0.552426
C28 C 0.19135(15) 0.38645(18) 0.48149(18)
H12 H 0.197324 0.397616 0.463259
O9 O 0.34067(16) 0.32016(14) 0.4923(2)
C29 C 0.2216(2) 0.35699(16) 0.40375(14)
C30 C 0.18774(13) 0.34997(14) 0.51117(17)
H13 H 0.191743 0.335384 0.514223
C31 C 0.17759(15) 0.39286(15) 0.5039(3)
H14 H 0.174472 0.408011 0.500678
C32 C 0.24079(16) 0.34851(14) 0.4107(2)
H15 H 0.250704 0.345533 0.394514
C33 C 0.22033(14) 0.32198(15) 0.2182(2)
H16 H 0.225059 0.307797 0.220146
C34 C 0.16791(13) 0.37681(17) 0.5322(2)
C35 C 0.17705(16) 0.37724(15) 0.32481(15)
H17 H 0.171244 0.383093 0.342658
C36 C 0.2711(2) 0.31923(17) 0.42983(16)
H18 H 0.261928 0.313649 0.410288
O10 O 0.23559(13) 0.35607(14) 0.35040(12)
C37 C 0.20780(13) 0.36287(13) 0.42523(18)
H19 H 0.195173 0.368839 0.419144
C38 C 0.13155(15) 0.41793(13) 0.26562(15)
H20 H 0.134000 0.430750 0.249606
C39 C 0.28068(18) 0.34371(15) 0.4773(2)
H21 H 0.277929 0.355260 0.491451
O11 O 0.06710(16) 0.4524(2) 0.19797(18)
C40 C 0.30047(17) 0.33579(16) 0.48449(19)
H22 H 0.311426 0.342344 0.502830
O12 O 0.11246(18) 0.49278(13) 0.2368(2)
Zn4 Zn 0.29111(2) 0.36319(2) 0.03704(2)
Zn5 Zn 0.45607(2) 0.07193(2) 0.25347(3)
O14 O 0.33953(11) 0.23547(9) 0.36535(13)
O15 O 0.27631(7) 0.36503(10) 0.07960(9)
O16 O 0.40787(9) 0.06588(11) 0.19941(11)
O17 O 0.30796(10) 0.24078(9) 0.33624(10)
O18 O 0.43643(10) 0.09173(9) 0.23895(13)
C41 C 0.32682(18) 0.23369(13) 0.3393(2)
O19 O 0.29382(12) 0.33077(15) 0.04622(13)
C42 C 0.37129(11) 0.17653(11) 0.23110(12)
H23 H 0.373210 0.170502 0.251167
C43 C 0.41871(15) 0.08732(18) 0.21686(18)
C44 C 0.34443(12) 0.24518(14) 0.05776(16)
N3 N 0.35920(13) 0.21713(15) 0.13288(16)
C45 C 0.36498(12) 0.20667(11) 0.28718(14)
H24 H 0.379318 0.202182 0.289284
C46 C 0.38982(13) 0.14752(13) 0.20762(14)
C47 C 0.36073(12) 0.19493(12) 0.22848(14)
C48 C 0.33506(13) 0.26487(15) 0.05022(15)
C49 C 0.37908(12) 0.16686(13) 0.20456(14)
N4 N 0.36570(13) 0.20158(12) 0.13462(13)
C51 C 0.35217(14) 0.20443(11) 0.25764(17)
C52 C 0.38191(13) 0.12530(15) 0.18580(13)
H25 H 0.370189 0.123664 0.168869
C53 C 0.35055(12) 0.23091(13) 0.03495(15)
H26 H 0.348141 0.234033 0.013727
C54 C 0.40783(14) 0.14965(13) 0.23185(15)
H27 H 0.413181 0.163970 0.246893
C55 C 0.35605(13) 0.21561(11) 0.31308(14)
H28 H 0.364255 0.216581 0.332774
C56 C 0.35950(13) 0.20562(13) 0.19769(16)
H29 H 0.353778 0.219017 0.195235
C57 C 0.36566(14) 0.19683(13) 0.01635(17)
C58 C 0.31739(18) 0.3037(2) 0.0368(3)
C59 C 0.30972(19) 0.3265(3) 0.03345(18)
C60 C 0.40907(12) 0.10919(13) 0.21290(17)
C61 C 0.39101(14) 0.10570(15) 0.18867(15)
H30 H 0.384966 0.090639 0.174487
C62 C 0.33514(15) 0.22327(11) 0.31089(17)
C63 C 0.35992(13) 0.21248(14) 0.04162(16)
C64 C 0.36728(17) 0.19506(17) 0.17136(14)
C65 C 0.32970(15) 0.21052(13) 0.25578(15)
H31 H 0.320074 0.207817 0.236673
C66 C 0.31122(17) 0.2909(3) 0.0619(2)
H32 H 0.300534 0.294491 0.076445
C68 C 0.38645(18) 0.19135(15) 0.01851(18)
H34 H 0.397616 0.197324 0.036741
O21 O 0.32016(14) 0.34067(16) 0.0077(2)
C69 C 0.35699(16) 0.2216(2) 0.09625(14)
C72 C 0.34851(14) 0.24079(16) 0.0893(2)
H37 H 0.345533 0.250704 0.105486
C73 C 0.32198(15) 0.22033(14) 0.2818(2)
H38 H 0.307797 0.225059 0.279854
C75 C 0.37724(15) 0.17705(16) 0.17519(15)
H39 H 0.383093 0.171244 0.157342
C76 C 0.31923(17) 0.2711(2) 0.07017(16)
H40 H 0.313649 0.261928 0.089712
O22 O 0.35607(14) 0.23559(13) 0.14960(12)
C77 C 0.36287(13) 0.20780(13) 0.07477(18)
H41 H 0.368839 0.195173 0.080856
C78 C 0.41793(13) 0.13155(15) 0.23438(15)
H42 H 0.430750 0.134000 0.250394
C79 C 0.34371(15) 0.28068(18) 0.0227(2)
H43 H 0.355260 0.277929 0.008549
O23 O 0.4524(2) 0.06710(16) 0.30203(18)
C80 C 0.33579(16) 0.30047(17) 0.01551(19)
O24 O 0.49278(13) 0.11246(18) 0.2632(2)
Zn6 Zn 0.23361(2) 0.333333 0.083333
Zn7 Zn 0.099723(20) 0.333333 0.583333
Zn9 Zn 0.30348(2) 0.26125(3) 0.37037(2)
Zn10 Zn 0.26125(3) 0.30348(2) 0.12963(2)
Zn11 Zn 0.02986(2) 0.40541(3) 0.29629(2)
Zn12 Zn 0.40541(3) 0.02986(2) 0.20371(2)
Zn13 Zn 0.12274(2) 0.40526(2) 0.58680(3)
Zn15 Zn 0.28253(3) 0.40526(2) 0.08680(3)
Zn16 Zn 0.40526(2) 0.28253(3) 0.41320(3)
O25 O 0.36429(12) 0.22276(15) 0.41964(11)
O26 O 0.30238(12) 0.19180(9) 0.41369(11)
O27 O 0.32714(11) 0.22927(14) 0.46798(13)
O28 O 0.30164(10) 0.24461(12) 0.41293(9)
O29 O 0.03170(10) 0.42205(12) 0.25373(9)
O30 O 0.42205(12) 0.03170(10) 0.24627(9)
O31 O 0.32468(14) 0.39921(11) 0.03274(11)
O32 O 0.39921(11) 0.32468(14) 0.46726(11)
O33 O 0.35871(10) 0.26615(13) 0.49709(10)
O34 O 0.26615(13) 0.35871(10) 0.00291(10)
O35 O 0.06806(11) 0.48004(9) 0.28016(12)
O36 O 0.48004(9) 0.06806(11) 0.21984(12)
H45 H 0.0558542 0.432009 0.192087
H46 H 0.0570381 0.462392 0.190654
H47 H 0.1228 0.48783 0.220917
H48 H 0.109616 0.508205 0.228249
H49 H 0.48783 0.1228 0.279083
H50 H 0.508205 0.109616 0.271751
H51 H 0.432009 0.0558542 0.307913
H52 H 0.462392 0.0570381 0.309346
O13 O 0.36429(12) 0.14153(9) 0.91964(11)
O20 O 0.40139(11) 0.14671(9) 0.94683(12)
C50 C 0.38076(19) 0.15098(17) 0.9426(2)
C67 C 0.35508(15) 0.17269(13) 0.96522(15)
H33 H 0.343213 0.165957 0.947574
C70 C 0.34997(14) 0.18774(13) 0.98883(17)
H35 H 0.335384 0.191743 0.985777
C71 C 0.39286(15) 0.17759(15) 0.9961(3)
H36 H 0.408011 0.174472 0.999322
C74 C 0.37681(17) 0.16791(13) 0.9678(2)
H44 H 0.342344 0.311426 0.997170
Zn8 Zn 0.333333 0.099723(20) 0.916667
Zn14 Zn 0.40526(2) 0.12274(2) 0.91320(3)
Zn1_2 Zn 0.76639(2) 0.099723(20) 0.416667
Zn2_2 Zn 0.70889(2) 0.07208(3) 0.46296(2)
O3_2 O 0.72369(7) 0.08872(12) 0.42040(9)
O7_2 O 0.70618(12) 0.03695(19) 0.45378(13)
C19_2 C 0.69028(19) 0.01678(36) 0.46655(18)
O9_2 O 0.67984(14) 0.02051(21) 0.4923(2)
Zn5_2 Zn 0.92807(2) 0.38414(3) 0.25347(3)
O14_2 O 0.76453(9) 0.10406(14) 0.36535(13)
O16_2 O 0.93412(11) 0.34199(14) 0.19941(11)
O17_2 O 0.75922(9) 0.06718(13) 0.33624(10)
O18_2 O 0.90827(9) 0.34470(13) 0.23895(13)
C41_2 C 0.76631(13) 0.09313(22) 0.3393(2)
C42_2 C 0.82347(11) 0.19476(16) 0.23110(12)
H23_2 H 0.829498 0.202708 0.251167
C43_2 C 0.91268(18) 0.33139(23) 0.21686(18)
C44_2 C 0.75482(14) 0.09925(18) 0.05776(16)
N3_2 N 0.78287(15) 0.14207(20) 0.13288(16)
C45_2 C 0.79333(11) 0.15831(16) 0.28718(14)
H24_2 H 0.797818 0.177136 0.289284
C46_2 C 0.85248(13) 0.24230(18) 0.20762(14)
C47_2 C 0.80507(12) 0.16580(17) 0.22848(14)
C48_2 C 0.73513(15) 0.07019(20) 0.05022(15)
C49_2 C 0.83314(13) 0.21222(18) 0.20456(14)
N4_2 N 0.79842(12) 0.16412(18) 0.13462(13)
C51_2 C 0.79557(11) 0.14774(18) 0.25764(17)
C52_2 C 0.87470(15) 0.25661(20) 0.18580(13)
H25_2 H 0.876336 0.246525 0.168869
C53_2 C 0.76909(13) 0.11964(18) 0.03495(15)
H26_2 H 0.765967 0.114108 0.013727
C54_2 C 0.85035(13) 0.25818(19) 0.23185(15)
H27_2 H 0.836030 0.249211 0.246893
C55_2 C 0.78439(11) 0.14044(17) 0.31308(14)
H28_2 H 0.783419 0.147674 0.332774
C56_2 C 0.79438(13) 0.15388(18) 0.19769(16)
H29_2 H 0.780983 0.134761 0.195235
C57_2 C 0.80317(13) 0.16883(19) 0.01635(17)
C58_2 C 0.6963(2) 0.01369(27) 0.0368(3)
C60_2 C 0.89081(13) 0.29988(18) 0.21290(17)
C61_2 C 0.89430(15) 0.28531(21) 0.18867(15)
H30_2 H 0.909361 0.294327 0.174487
C62_2 C 0.77673(11) 0.11187(19) 0.31089(17)
C63_2 C 0.78752(14) 0.14744(19) 0.04162(16)
C64_2 C 0.80494(17) 0.17222(24) 0.17136(14)
C65_2 C 0.78948(13) 0.11918(20) 0.25578(15)
H31_2 H 0.792183 0.112257 0.236673
C66_2 C 0.7091(3) 0.02032(34) 0.0619(2)
H32_2 H 0.705509 0.006043 0.076445
C68_2 C 0.80865(15) 0.19510(23) 0.01851(18)
H34_2 H 0.802676 0.200292 0.036741
C69_2 C 0.7784(2) 0.13539(26) 0.09625(14)
C72_2 C 0.75921(16) 0.10772(21) 0.0893(2)
H37_2 H 0.749296 0.094829 0.105486
C73_2 C 0.77967(14) 0.10165(21) 0.2818(2)
H38_2 H 0.774941 0.082738 0.279854
C75_2 C 0.82295(16) 0.20019(22) 0.17519(15)
H39_2 H 0.828756 0.211849 0.157342
C76_2 C 0.7289(2) 0.04813(26) 0.07017(16)
H40_2 H 0.738072 0.051721 0.089712
O22_2 O 0.76441(13) 0.12048(19) 0.14960(12)
C77_2 C 0.79220(13) 0.15507(18) 0.07477(18)
H41_2 H 0.804827 0.173666 0.080856
C78_2 C 0.86845(15) 0.28638(20) 0.23438(15)
H42_2 H 0.866000 0.296750 0.250394
C79_2 C 0.71932(18) 0.06303(23) 0.0227(2)
H43_2 H 0.722071 0.077331 0.008549
O23_2 O 0.93290(16) 0.38530(26) 0.30203(18)
C80_2 C 0.69953(17) 0.03532(23) 0.01551(19)
O24_2 O 0.88754(18) 0.38032(22) 0.2632(2)
Zn9_2 Zn 0.73875(3) 0.04222(4) 0.37037(2)
Zn12_2 Zn 0.97014(2) 0.37556(4) 0.20371(2)
Zn16_2 Zn 0.71747(3) 0.12274(4) 0.41320(3)
O25_2 O 0.77724(15) 0.14153(19) 0.41964(11)
O26_2 O 0.80820(9) 0.11057(15) 0.41369(11)
O27_2 O 0.77073(14) 0.09786(18) 0.46798(13)
O28_2 O 0.75539(12) 0.05702(16) 0.41293(9)
O30_2 O 0.96830(10) 0.39036(16) 0.24627(9)
O32_2 O 0.67532(14) 0.07454(18) 0.46726(11)
O33_2 O 0.73385(13) 0.09255(16) 0.49709(10)
O36_2 O 0.93194(11) 0.41199(14) 0.21984(12)
H49_2 H 0.8772 0.365029 0.279083
H50_2 H 0.890384 0.398589 0.271751
H51_2 H 0.944146 0.376154 0.307913
H52_2 H 0.942962 0.405354 0.309346
O13_2 O 0.85847(9) 0.22276(15) 0.91964(11)
O20_2 O 0.85329(9) 0.25468(14) 0.94683(12)
C50_2 C 0.84902(17) 0.22978(25) 0.9426(2)
C67_2 C 0.82731(13) 0.18239(20) 0.96522(15)
H33_2 H 0.834043 0.177256 0.947574
C70_2 C 0.81226(13) 0.16223(19) 0.98883(17)
H35_2 H 0.808257 0.143641 0.985777
C71_2 C 0.82241(15) 0.21527(21) 0.9961(3)
H36_2 H 0.825528 0.233539 0.999322
C74_2 C 0.83209(13) 0.20890(21) 0.9678(2)
H44_2 H 0.688574 0.030918 0.997170
Zn8_2 Zn 0.900277(20) 0.233610(20) 0.916667
Zn14_2 Zn 0.87726(2) 0.28253(3) 0.91320(3)
Zn3_2 Zn 0.54393(2) 0.61586(3) 0.24653(3)
O1_2 O 0.63571(12) 0.77724(15) 0.58036(11)
O2_2 O 0.66047(11) 0.89594(14) 0.13465(13)
O4_2 O 0.59213(9) 0.65801(14) 0.30059(11)
O5_2 O 0.69204(10) 0.93282(13) 0.16376(10)
O6_2 O 0.56357(10) 0.65530(13) 0.26105(13)
C1_2 C 0.67318(18) 0.90687(22) 0.1607(2)
O8_2 O 0.59861(11) 0.74532(14) 0.55317(12)
C2_2 C 0.62871(11) 0.80524(16) 0.26890(12)
H1_2 H 0.626790 0.797292 0.248833
C3_2 C 0.58129(15) 0.66861(23) 0.28314(18)
C4_2 C 0.65557(12) 0.90075(18) 0.44224(16)
N1_2 N 0.64080(13) 0.85793(20) 0.36712(16)
C5_2 C 0.63502(12) 0.84169(16) 0.21282(14)
H2_2 H 0.620682 0.822864 0.210716
C6_2 C 0.61018(13) 0.75770(18) 0.29238(14)
C7_2 C 0.63927(12) 0.83420(17) 0.27152(14)
C8_2 C 0.66494(13) 0.92981(20) 0.44978(15)
C9_2 C 0.62092(12) 0.78778(18) 0.29544(14)
N2_2 N 0.63430(13) 0.83588(18) 0.36538(13)
C10_2 C 0.61924(19) 0.77022(25) 0.5574(2)
C11_2 C 0.64783(14) 0.85226(18) 0.24236(17)
C12_2 C 0.61809(13) 0.74339(20) 0.31420(13)
H3_2 H 0.629811 0.753475 0.331131
C13_2 C 0.64945(12) 0.88036(18) 0.46505(15)
H4_2 H 0.651859 0.885892 0.486273
C14_2 C 0.59217(14) 0.74182(19) 0.26815(15)
H5_2 H 0.586819 0.750789 0.253107
C15_2 C 0.64395(13) 0.85956(17) 0.18692(14)
H6_2 H 0.635745 0.852326 0.167226
C16_2 C 0.64050(13) 0.84612(18) 0.30231(16)
H7_2 H 0.646222 0.865239 0.304765
C17_2 C 0.63434(14) 0.83117(19) 0.48365(17)
C18_2 C 0.68261(18) 0.98631(27) 0.4632(3)
C20_2 C 0.59093(12) 0.70012(18) 0.28710(17)
C21_2 C 0.60899(14) 0.71469(21) 0.31133(15)
H8_2 H 0.615034 0.705673 0.325513
C22_2 C 0.66486(15) 0.88813(19) 0.18911(17)
C23_2 C 0.64008(13) 0.85256(19) 0.45838(16)
C24_2 C 0.63272(17) 0.82778(24) 0.32864(14)
C25_2 C 0.67030(15) 0.88082(20) 0.24422(15)
H9_2 H 0.679926 0.887743 0.263327
C26_2 C 0.68878(17) 0.97968(34) 0.4381(2)
H10_2 H 0.699466 0.993957 0.423555
C27_2 C 0.64492(15) 0.81761(20) 0.53478(15)
H11_2 H 0.656787 0.822744 0.552426
C28_2 C 0.61355(18) 0.80490(23) 0.48149(18)
H12_2 H 0.602384 0.799708 0.463259
C29_2 C 0.64301(16) 0.86461(26) 0.40375(14)
C30_2 C 0.65003(14) 0.83777(19) 0.51117(17)
H13_2 H 0.664616 0.856359 0.514223
C31_2 C 0.60714(15) 0.78473(21) 0.5039(3)
H14_2 H 0.591989 0.766461 0.500678
C32_2 C 0.65149(14) 0.89228(21) 0.4107(2)
H15_2 H 0.654467 0.905171 0.394514
C33_2 C 0.67802(15) 0.89835(21) 0.2182(2)
H16_2 H 0.692203 0.917262 0.220146
C34_2 C 0.62319(17) 0.79110(21) 0.5322(2)
C35_2 C 0.62276(15) 0.79981(22) 0.32481(15)
H17_2 H 0.616907 0.788151 0.342658
C36_2 C 0.68077(17) 0.95187(26) 0.42983(16)
H18_2 H 0.686351 0.948279 0.410288
O10_2 O 0.64393(14) 0.87952(19) 0.35040(12)
C37_2 C 0.63713(13) 0.84493(18) 0.42523(18)
H19_2 H 0.631161 0.826334 0.419144
C38_2 C 0.58207(13) 0.71362(20) 0.26562(15)
H20_2 H 0.569250 0.703250 0.249606
C39_2 C 0.65629(15) 0.93697(23) 0.4773(2)
H21_2 H 0.644740 0.922669 0.491451
O11_2 O 0.5476(2) 0.61470(26) 0.19797(18)
C40_2 C 0.66421(16) 0.96468(23) 0.48449(19)
H22_2 H 0.657656 0.969082 0.502830
O12_2 O 0.50722(13) 0.61968(22) 0.2368(2)
Zn4_2 Zn 0.63681(2) 0.92792(3) 0.03704(2)
O15_2 O 0.63497(10) 0.91128(12) 0.07960(9)
O19_2 O 0.66923(15) 0.96305(19) 0.04622(13)
C59_2 C 0.6735(3) 0.98322(36) 0.03345(18)
O21_2 O 0.65933(16) 0.97949(21) 0.0077(2)
Zn6_2 Zn 0.666667 0.900277(20) 0.083333
Zn7_2 Zn 0.666667 0.766390(20) 0.583333
Zn10_2 Zn 0.69652(2) 0.95778(4) 0.12963(2)
Zn11_2 Zn 0.59459(3) 0.62444(4) 0.29629(2)
Zn13_2 Zn 0.59474(2) 0.71747(3) 0.58680(3)
Zn15_2 Zn 0.59474(2) 0.87726(4) 0.08680(3)
O29_2 O 0.57795(12) 0.60964(16) 0.25373(9)
O31_2 O 0.60079(11) 0.92546(18) 0.03274(11)
O34_2 O 0.64129(10) 0.90745(16) 0.00291(10)
O35_2 O 0.51996(9) 0.58801(14) 0.28016(12)
H45_2 H 0.567991 0.623846 0.192087
H46_2 H 0.537608 0.594646 0.190654
H47_2 H 0.51217 0.634971 0.220917
H48_2 H 0.491795 0.601411 0.228249
Zn3_3 Zn 0.38414(3) 0.92807(2) 0.24653(3)
O1_3 O 0.22276(15) 0.85847(9) 0.58036(11)
O2_3 O 0.10406(14) 0.76453(9) 0.13465(13)
O4_3 O 0.34199(14) 0.93412(11) 0.30059(11)
O5_3 O 0.06718(13) 0.75922(9) 0.16376(10)
O6_3 O 0.34470(13) 0.90827(9) 0.26105(13)
C1_3 C 0.09313(22) 0.76631(13) 0.1607(2)
O8_3 O 0.25468(14) 0.85329(9) 0.55317(12)
C2_3 C 0.19476(16) 0.82347(11) 0.26890(12)
H1_3 H 0.202708 0.829498 0.248833
C3_3 C 0.33139(23) 0.91268(18) 0.28314(18)
C4_3 C 0.09925(18) 0.75482(14) 0.44224(16)
N1_3 N 0.14207(20) 0.78287(15) 0.36712(16)
C5_3 C 0.15831(16) 0.79333(11) 0.21282(14)
H2_3 H 0.177136 0.797818 0.210716
C6_3 C 0.24230(18) 0.85248(13) 0.29238(14)
C7_3 C 0.16580(17) 0.80507(12) 0.27152(14)
C8_3 C 0.07019(20) 0.73513(15) 0.44978(15)
C9_3 C 0.21222(18) 0.83314(13) 0.29544(14)
N2_3 N 0.16412(18) 0.79842(12) 0.36538(13)
C10_3 C 0.22978(25) 0.84902(17) 0.5574(2)
C11_3 C 0.14774(18) 0.79557(11) 0.24236(17)
C12_3 C 0.25661(20) 0.87470(15) 0.31420(13)
H3_3 H 0.246525 0.876336 0.331131
C13_3 C 0.11964(18) 0.76909(13) 0.46505(15)
H4_3 H 0.114108 0.765967 0.486273
C14_3 C 0.25818(19) 0.85035(13) 0.26815(15)
H5_3 H 0.249211 0.836030 0.253107
C15_3 C 0.14044(17) 0.78439(11) 0.18692(14)
H6_3 H 0.147674 0.783419 0.167226
C16_3 C 0.15388(18) 0.79438(13) 0.30231(16)
H7_3 H 0.134761 0.780983 0.304765
C17_3 C 0.16883(19) 0.80317(13) 0.48365(17)
C18_3 C 0.01369(27) 0.6963(2) 0.4632(3)
C20_3 C 0.29988(18) 0.89081(13) 0.28710(17)
C21_3 C 0.28531(21) 0.89430(15) 0.31133(15)
H8_3 H 0.294327 0.909361 0.325513
C22_3 C 0.11187(19) 0.77673(11) 0.18911(17)
C23_3 C 0.14744(19) 0.78752(14) 0.45838(16)
C24_3 C 0.17222(24) 0.80494(17) 0.32864(14)
C25_3 C 0.11918(20) 0.78948(13) 0.24422(15)
H9_3 H 0.112257 0.792183 0.263327
C26_3 C 0.02032(34) 0.7091(3) 0.4381(2)
H10_3 H 0.006043 0.705509 0.423555
C27_3 C 0.18239(20) 0.82731(13) 0.53478(15)
H11_3 H 0.177256 0.834043 0.552426
C28_3 C 0.19510(23) 0.80865(15) 0.48149(18)
H12_3 H 0.200292 0.802676 0.463259
C29_3 C 0.13539(26) 0.7784(2) 0.40375(14)
C30_3 C 0.16223(19) 0.81226(13) 0.51117(17)
H13_3 H 0.143641 0.808257 0.514223
C31_3 C 0.21527(21) 0.82241(15) 0.5039(3)
H14_3 H 0.233539 0.825528 0.500678
C32_3 C 0.10772(21) 0.75921(16) 0.4107(2)
H15_3 H 0.094829 0.749296 0.394514
C33_3 C 0.10165(21) 0.77967(14) 0.2182(2)
H16_3 H 0.082738 0.774941 0.220146
C34_3 C 0.20890(21) 0.83209(13) 0.5322(2)
C35_3 C 0.20019(22) 0.82295(16) 0.32481(15)
H17_3 H 0.211849 0.828756 0.342658
C36_3 C 0.04813(26) 0.7289(2) 0.42983(16)
H18_3 H 0.051721 0.738072 0.410288
O10_3 O 0.12048(19) 0.76441(13) 0.35040(12)
C37_3 C 0.15507(18) 0.79220(13) 0.42523(18)
H19_3 H 0.173666 0.804827 0.419144
C38_3 C 0.28638(20) 0.86845(15) 0.26562(15)
H20_3 H 0.296750 0.866000 0.249606
C39_3 C 0.06303(23) 0.71932(18) 0.4773(2)
H21_3 H 0.077331 0.722071 0.491451
O11_3 O 0.38530(26) 0.93290(16) 0.19797(18)
C40_3 C 0.03532(23) 0.69953(17) 0.48449(19)
H22_3 H 0.030918 0.688574 0.502830
O12_3 O 0.38032(22) 0.88754(18) 0.2368(2)
Zn4_3 Zn 0.07208(3) 0.70889(2) 0.03704(2)
O15_3 O 0.08872(12) 0.72369(7) 0.07960(9)
O19_3 O 0.03695(19) 0.70618(12) 0.04622(13)
C59_3 C 0.01678(36) 0.69028(19) 0.03345(18)
O21_3 O 0.02051(21) 0.67984(14) 0.0077(2)
Zn6_3 Zn 0.099723(20) 0.76639(2) 0.083333
Zn7_3 Zn 0.233610(20) 0.900277(20) 0.583333
Zn10_3 Zn 0.04222(4) 0.73875(3) 0.12963(2)
Zn11_3 Zn 0.37556(4) 0.97014(2) 0.29629(2)
Zn13_3 Zn 0.28253(3) 0.87726(2) 0.58680(3)
Zn15_3 Zn 0.12274(4) 0.71747(3) 0.08680(3)
O29_3 O 0.39036(16) 0.96830(10) 0.25373(9)
O31_3 O 0.07454(18) 0.67532(14) 0.03274(11)
O34_3 O 0.09255(16) 0.73385(13) 0.00291(10)
O35_3 O 0.41199(14) 0.93194(11) 0.28016(12)
H45_3 H 0.376154 0.944146 0.192087
H46_3 H 0.405354 0.942962 0.190654
H47_3 H 0.365029 0.8772 0.220917
H48_3 H 0.398589 0.890384 0.228249
Zn1_3 Zn 0.900277(20) 0.666667 0.416667
Zn2_3 Zn 0.92792(3) 0.63681(2) 0.46296(2)
O3_3 O 0.91128(12) 0.63497(10) 0.42040(9)
O7_3 O 0.96305(19) 0.66923(15) 0.45378(13)
C19_3 C 0.98322(36) 0.6735(3) 0.46655(18)
O9_3 O 0.97949(21) 0.65933(16) 0.4923(2)
Zn5_3 Zn 0.61586(3) 0.54393(2) 0.25347(3)
O14_3 O 0.89594(14) 0.66047(11) 0.36535(13)
O16_3 O 0.65801(14) 0.59213(9) 0.19941(11)
O17_3 O 0.93282(13) 0.69204(10) 0.33624(10)
O18_3 O 0.65530(13) 0.56357(10) 0.23895(13)
C41_3 C 0.90687(22) 0.67318(18) 0.3393(2)
C42_3 C 0.80524(16) 0.62871(11) 0.23110(12)
H23_3 H 0.797292 0.626790 0.251167
C43_3 C 0.66861(23) 0.58129(15) 0.21686(18)
C44_3 C 0.90075(18) 0.65557(12) 0.05776(16)
N3_3 N 0.85793(20) 0.64080(13) 0.13288(16)
C45_3 C 0.84169(16) 0.63502(12) 0.28718(14)
H24_3 H 0.822864 0.620682 0.289284
C46_3 C 0.75770(18) 0.61018(13) 0.20762(14)
C47_3 C 0.83420(17) 0.63927(12) 0.22848(14)
C48_3 C 0.92981(20) 0.66494(13) 0.05022(15)
C49_3 C 0.78778(18) 0.62092(12) 0.20456(14)
N4_3 N 0.83588(18) 0.63430(13) 0.13462(13)
C51_3 C 0.85226(18) 0.64783(14) 0.25764(17)
C52_3 C 0.74339(20) 0.61809(13) 0.18580(13)
H25_3 H 0.753475 0.629811 0.168869
C53_3 C 0.88036(18) 0.64945(12) 0.03495(15)
H26_3 H 0.885892 0.651859 0.013727
C54_3 C 0.74182(19) 0.59217(14) 0.23185(15)
H27_3 H 0.750789 0.586819 0.246893
C55_3 C 0.85956(17) 0.64395(13) 0.31308(14)
H28_3 H 0.852326 0.635745 0.332774
C56_3 C 0.84612(18) 0.64050(13) 0.19769(16)
H29_3 H 0.865239 0.646222 0.195235
C57_3 C 0.83117(19) 0.63434(14) 0.01635(17)
C58_3 C 0.98631(27) 0.68261(18) 0.0368(3)
C60_3 C 0.70012(18) 0.59093(12) 0.21290(17)
C61_3 C 0.71469(21) 0.60899(14) 0.18867(15)
H30_3 H 0.705673 0.615034 0.174487
C62_3 C 0.88813(19) 0.66486(15) 0.31089(17)
C63_3 C 0.85256(19) 0.64008(13) 0.04162(16)
C64_3 C 0.82778(24) 0.63272(17) 0.17136(14)
C65_3 C 0.88082(20) 0.67030(15) 0.25578(15)
H31_3 H 0.887743 0.679926 0.236673
C66_3 C 0.97968(34) 0.68878(17) 0.0619(2)
H32_3 H 0.993957 0.699466 0.076445
C68_3 C 0.80490(23) 0.61355(18) 0.01851(18)
H34_3 H 0.799708 0.602384 0.036741
C69_3 C 0.86461(26) 0.64301(16) 0.09625(14)
C72_3 C 0.89228(21) 0.65149(14) 0.0893(2)
H37_3 H 0.905171 0.654467 0.105486
C73_3 C 0.89835(21) 0.67802(15) 0.2818(2)
H38_3 H 0.917262 0.692203 0.279854
C75_3 C 0.79981(22) 0.62276(15) 0.17519(15)
H39_3 H 0.788151 0.616907 0.157342
C76_3 C 0.95187(26) 0.68077(17) 0.07017(16)
H40_3 H 0.948279 0.686351 0.089712
O22_3 O 0.87952(19) 0.64393(14) 0.14960(12)
C77_3 C 0.84493(18) 0.63713(13) 0.07477(18)
H41_3 H 0.826334 0.631161 0.080856
C78_3 C 0.71362(20) 0.58207(13) 0.23438(15)
H42_3 H 0.703250 0.569250 0.250394
C79_3 C 0.93697(23) 0.65629(15) 0.0227(2)
H43_3 H 0.922669 0.644740 0.008549
O23_3 O 0.61470(26) 0.5476(2) 0.30203(18)
C80_3 C 0.96468(23) 0.66421(16) 0.01551(19)
O24_3 O 0.61968(22) 0.50722(13) 0.2632(2)
Zn9_3 Zn 0.95778(4) 0.69652(2) 0.37037(2)
Zn12_3 Zn 0.62444(4) 0.59459(3) 0.20371(2)
Zn16_3 Zn 0.87726(4) 0.59474(2) 0.41320(3)
O25_3 O 0.85847(19) 0.63571(12) 0.41964(11)
O26_3 O 0.88943(15) 0.69762(12) 0.41369(11)
O27_3 O 0.90214(18) 0.67286(11) 0.46798(13)
O28_3 O 0.94298(16) 0.69836(10) 0.41293(9)
O30_3 O 0.60964(16) 0.57795(12) 0.24627(9)
O32_3 O 0.92546(18) 0.60079(11) 0.46726(11)
O33_3 O 0.90745(16) 0.64129(10) 0.49709(10)
O36_3 O 0.58801(14) 0.51996(9) 0.21984(12)
H49_3 H 0.634971 0.51217 0.279083
H50_3 H 0.601411 0.491795 0.271751
H51_3 H 0.623846 0.567991 0.307913
H52_3 H 0.594646 0.537608 0.309346
O13_3 O 0.77724(15) 0.63571(12) 0.91964(11)
O20_3 O 0.74532(14) 0.59861(11) 0.94683(12)
C50_3 C 0.77022(25) 0.61924(19) 0.9426(2)
C67_3 C 0.81761(20) 0.64492(15) 0.96522(15)
H33_3 H 0.822744 0.656787 0.947574
C70_3 C 0.83777(19) 0.65003(14) 0.98883(17)
H35_3 H 0.856359 0.664616 0.985777
C71_3 C 0.78473(21) 0.60714(15) 0.9961(3)
H36_3 H 0.766461 0.591989 0.999322
C74_3 C 0.79110(21) 0.62319(17) 0.9678(2)
H44_3 H 0.969082 0.657656 0.997170
Zn8_3 Zn 0.766390(20) 0.666667 0.916667
Zn14_3 Zn 0.71747(3) 0.59474(2) 0.91320(3)
O25_4 O 0.22276(15) 0.36429(12) 0.08036(11)
O26_4 O 0.19180(9) 0.30238(12) 0.08631(11)
O27_4 O 0.22927(14) 0.32714(11) 0.03202(13)
O28_4 O 0.24461(12) 0.30164(10) 0.08707(9)
O25_5 O 0.14153(19) 0.77724(15) 0.08036(11)
O26_5 O 0.11057(15) 0.80820(9) 0.08631(11)
O27_5 O 0.09786(18) 0.77073(14) 0.03202(13)
O28_5 O 0.05702(16) 0.75539(12) 0.08707(9)
O25_6 O 0.63571(12) 0.85847(19) 0.08036(11)
O26_6 O 0.69762(12) 0.88943(15) 0.08631(11)
O27_6 O 0.67286(11) 0.90214(18) 0.03202(13)
O28_6 O 0.69836(10) 0.94298(16) 0.08707(9)
Zn1_4 Zn -0.000000 0.56694(2) 0.750000
Zn2_4 Zn 0.02986(2) 0.62444(2) 0.79629(2)
O3_4 O 0.03170(10) 0.60964(7) 0.75373(9)
O9_4 O 0.00734(16) 0.65349(14) 0.8256(2)
O13_4 O 0.03096(12) 0.47486(9) 0.25297(11)
O14_4 O 0.00620(11) 0.56880(9) 0.69868(13)
O16_4 O 0.07454(9) 0.39921(11) 0.53274(11)
O18_4 O 0.10310(10) 0.42506(9) 0.57228(13)
C42_4 C 0.03796(11) 0.50986(11) 0.56443(12)
H23_4 H 0.039877 0.503835 0.584500
C43_4 C 0.08538(15) 0.42065(18) 0.55019(18)
C44_4 C 0.01110(12) 0.57851(14) 0.39109(16)
N3_4 N 0.02587(13) 0.55046(15) 0.46621(16)
C45_4 C 0.03165(12) 0.54000(11) 0.62051(14)
H24_4 H 0.045985 0.535515 0.622617
C46_4 C 0.05649(13) 0.48085(13) 0.54095(14)
C47_4 C 0.02740(12) 0.52826(12) 0.56181(14)
C48_4 C 0.00173(13) 0.59820(15) 0.38355(15)
C49_4 C 0.04575(12) 0.50019(13) 0.53789(14)
N4_4 N 0.03237(13) 0.53491(12) 0.46795(13)
C50_4 C 0.04743(19) 0.48431(17) 0.2759(2)
C51_4 C 0.01884(14) 0.53776(11) 0.59097(17)
C52_4 C 0.04858(13) 0.45863(15) 0.51913(13)
H25_4 H 0.036856 0.456997 0.502202
C53_4 C 0.01722(12) 0.56424(13) 0.36828(15)
H26_4 H 0.014808 0.567366 0.347060
C54_4 C 0.07450(14) 0.48298(13) 0.56518(15)
H27_4 H 0.079848 0.497303 0.580226
C55_4 C 0.02272(13) 0.54894(11) 0.64641(14)
H28_4 H 0.030922 0.549914 0.666107
C56_4 C 0.02617(13) 0.53895(13) 0.53102(16)
H29_4 H 0.020445 0.552350 0.528568
C57_4 C 0.03233(14) 0.53016(13) 0.34968(17)
C60_4 C 0.07574(12) 0.44252(13) 0.54623(17)
C61_4 C 0.05768(14) 0.43903(15) 0.52200(15)
H30_4 H 0.051633 0.423972 0.507820
C62_4 C 0.00181(15) 0.55660(11) 0.64422(17)
C63_4 C 0.02659(13) 0.54581(14) 0.37495(16)
C64_4 C 0.03395(17) 0.52839(17) 0.50469(14)
C67_4 C 0.02175(15) 0.50602(13) 0.29855(15)
H33_4 H 0.009880 0.499290 0.280907
C68_4 C 0.05312(18) 0.52468(15) 0.35184(18)
H34_4 H 0.064283 0.530657 0.370074
C69_4 C 0.02366(16) 0.5549(2) 0.42958(14)
C70_4 C 0.01664(14) 0.52107(13) 0.32216(17)
H35_4 H 0.002051 0.525076 0.319110
C71_4 C 0.05953(15) 0.51092(15) 0.3294(3)
H36_4 H 0.074678 0.507805 0.332655
C72_4 C 0.01518(14) 0.57412(16) 0.4226(2)
H37_4 H 0.012200 0.584037 0.438819
C74_4 C 0.04348(17) 0.50124(13) 0.3011(2)
C75_4 C 0.04391(15) 0.51038(16) 0.50852(15)
H39_4 H 0.049760 0.504577 0.490675
O22_4 O 0.02274(14) 0.56892(13) 0.48293(12)
C77_4 C 0.02954(13) 0.54113(13) 0.40810(18)
H41_4 H 0.035506 0.528506 0.414189
C78_4 C 0.08460(13) 0.46488(15) 0.56771(15)
H42_4 H 0.097417 0.467333 0.583727
C79_4 C 0.01038(15) 0.61401(18) 0.3560(2)
H43_4 H 0.021927 0.611262 0.341882
O23_4 O 0.1191(2) 0.40043(16) 0.63536(18)
C80_4 C 0.00246(16) 0.63380(17) 0.34884(19)
H44_4 H 0.009011 0.644759 0.330503
O24_4 O 0.15945(13) 0.44579(18) 0.5965(2)
Zn8_4 Zn -0.000000 0.433056(20) 0.250000
Zn12_4 Zn 0.07208(3) 0.36319(2) 0.53704(2)
Zn16_4 Zn 0.07193(2) 0.61586(3) 0.74653(3)
O25_7 O 0.03096(12) 0.55609(15) 0.75297(11)
O30_4 O 0.08872(12) 0.36503(10) 0.57960(9)
O32_4 O 0.06588(11) 0.65801(14) 0.80059(11)
O33_4 O 0.02537(10) 0.59949(13) 0.83043(10)
H49_4 H 0.154496 0.456134 0.612417
H50_4 H 0.174872 0.442949 0.605084
H51_4 H 0.0986753 0.389188 0.641247
H52_4 H 0.129059 0.390371 0.64268
Zn1_5 Zn 1.000000 0.56694(2) 0.750000
Zn3_4 Zn 0.73860(2) 0.78940(2) 0.57986(3)
O1_4 O 0.80820(9) 0.69762(12) 0.91369(11)
O4_4 O 0.73255(11) 0.74120(9) 0.63392(11)
O6_4 O 0.75840(9) 0.76976(10) 0.59438(13)
C1_4 C 0.90036(13) 0.66015(18) 0.4940(2)
O7_4 O 0.99744(15) 0.62715(12) 0.78711(13)
O8_4 O 0.81338(9) 0.73472(11) 0.88650(12)
C2_4 C 0.84320(11) 0.70462(11) 0.60223(12)
H1_4 H 0.837169 0.706543 0.582166
C3_4 C 0.75399(18) 0.75204(15) 0.61647(18)
C4_4 C 0.91185(14) 0.67776(12) 0.77557(16)
N1_4 N 0.88380(15) 0.69253(13) 0.70045(16)
C5_4 C 0.87334(11) 0.69831(12) 0.54615(14)
H2_4 H 0.868849 0.712651 0.544049
C6_4 C 0.81419(13) 0.72315(13) 0.62571(14)
C7_4 C 0.86160(12) 0.69406(12) 0.60485(14)
C8_4 C 0.93154(15) 0.66839(13) 0.78311(15)
C9_4 C 0.83353(13) 0.71241(12) 0.62877(14)
N2_4 N 0.86825(12) 0.69903(13) 0.69871(13)
C10_4 C 0.81765(17) 0.71409(19) 0.8907(2)
C11_4 C 0.87110(11) 0.68550(14) 0.57569(17)
C12_4 C 0.79197(15) 0.71524(13) 0.64753(13)
H3_4 H 0.790331 0.703522 0.664464
C13_4 C 0.89758(13) 0.68388(12) 0.79838(15)
H4_4 H 0.900700 0.681474 0.819606
C14_4 C 0.81632(13) 0.74116(14) 0.60148(15)
H5_4 H 0.830637 0.746514 0.586440
C15_4 C 0.88228(11) 0.68938(13) 0.52025(14)
H6_4 H 0.883248 0.697588 0.500559
C16_4 C 0.87229(13) 0.69283(13) 0.63564(16)
H7_4 H 0.885684 0.687111 0.638098
C17_4 C 0.86350(13) 0.69899(14) 0.81698(17)
C18_4 C 0.9704(2) 0.65072(18) 0.7965(3)
C19_4 C 0.9932(3) 0.64305(19) 0.79988(18)
C20_4 C 0.77586(13) 0.74240(12) 0.62043(17)
C21_4 C 0.77237(15) 0.72434(14) 0.64466(15)
H8_4 H 0.757306 0.718299 0.658846
C22_4 C 0.88994(11) 0.66847(15) 0.52244(17)
C23_4 C 0.87915(14) 0.69325(13) 0.79171(16)
C24_4 C 0.86173(17) 0.70061(17) 0.66197(14)
C25_4 C 0.87719(13) 0.66303(15) 0.57755(15)
H9_4 H 0.874484 0.653407 0.596660
C26_4 C 0.9576(3) 0.64455(17) 0.7714(2)
H10_4 H 0.961158 0.633867 0.756888
C27_4 C 0.83936(13) 0.68841(15) 0.86811(15)
H11_4 H 0.832624 0.676546 0.885759
C28_4 C 0.85802(15) 0.71978(18) 0.81482(18)
H12_4 H 0.863991 0.730949 0.796592
C29_4 C 0.8883(2) 0.69032(16) 0.73708(14)
C30_4 C 0.85441(13) 0.68330(14) 0.84450(17)
H13_4 H 0.858410 0.668717 0.847556
C31_4 C 0.84426(15) 0.72619(15) 0.8372(3)
H14_4 H 0.841139 0.741344 0.834011
C32_4 C 0.90746(16) 0.68184(14) 0.7440(2)
H15_4 H 0.917371 0.678866 0.727847
C33_4 C 0.88700(14) 0.65531(15) 0.5515(2)
H16_4 H 0.891726 0.641130 0.553479
C34_4 C 0.83458(13) 0.71014(17) 0.8655(2)
C35_4 C 0.84372(16) 0.71057(15) 0.65814(15)
H17_4 H 0.837911 0.716426 0.675991
C36_4 C 0.9378(2) 0.65256(17) 0.76316(16)
H18_4 H 0.928595 0.646982 0.743621
O10_4 O 0.90226(13) 0.68940(14) 0.68373(12)
C37_4 C 0.87447(13) 0.69620(13) 0.75856(18)
H19_4 H 0.861840 0.702172 0.752477
C38_4 C 0.79822(15) 0.75126(13) 0.59895(15)
H20_4 H 0.800667 0.764083 0.582939
C39_4 C 0.94735(18) 0.67704(15) 0.8106(2)
H21_4 H 0.944596 0.688593 0.824784
O11_4 O 0.73377(16) 0.7857(2) 0.53130(18)
C40_4 C 0.96714(17) 0.66912(16) 0.81782(19)
H22_4 H 0.978093 0.675677 0.836163
O12_4 O 0.77913(18) 0.82611(13) 0.5701(2)
O17_4 O 0.97463(10) 0.57411(9) 0.66957(10)
C41_4 C 0.99349(18) 0.56702(13) 0.6726(2)
O19_4 O 0.96049(12) 0.66410(15) 0.37955(13)
C58_4 C 0.98406(18) 0.6370(2) 0.3701(3)
C59_4 C 0.97639(19) 0.6598(3) 0.36678(18)
C65_4 C 0.99637(15) 0.54385(13) 0.58911(15)
H31_4 H 0.986741 0.541150 0.570006
C66_4 C 0.97789(17) 0.6242(3) 0.3952(2)
H32_4 H 0.967201 0.627824 0.409778
O21_4 O 0.98683(14) 0.67400(16) 0.3410(2)
C73_4 C 0.98865(15) 0.55366(14) 0.6151(2)
H38_4 H 0.974464 0.558392 0.613187
C76_4 C 0.98590(17) 0.6044(2) 0.40350(16)
H40_4 H 0.980316 0.595261 0.423045
Zn8_5 Zn 1.000000 0.433056(20) 0.250000
Zn9_4 Zn 0.97014(2) 0.59459(3) 0.70371(2)
Zn11_4 Zn 0.69652(2) 0.73875(3) 0.62963(2)
Zn13_4 Zn 0.78940(2) 0.73860(2) 0.92014(3)
Zn15_4 Zn 0.94919(3) 0.73860(2) 0.42014(3)
O26_7 O 0.96904(12) 0.52514(9) 0.74703(11)
O27_7 O 0.99380(11) 0.56261(14) 0.80132(13)
O28_7 O 0.96830(10) 0.57795(12) 0.74627(9)
O29_4 O 0.69836(10) 0.75539(12) 0.58707(9)
O31_4 O 0.99134(14) 0.73255(11) 0.36608(11)
O35_4 O 0.73472(11) 0.81338(9) 0.61350(12)
H45_4 H 0.722521 0.765342 0.52542
H46_4 H 0.723705 0.795726 0.523987
H47_4 H 0.789467 0.821163 0.55425
H48_4 H 0.776283 0.841539 0.561582
Zn1_6 Zn 0.43306(2) 0.433056(20) 0.750000
Zn2_5 Zn 0.37556(2) 0.40541(3) 0.79629(2)
O1_5 O 0.30238(12) 0.11057(15) 0.91369(11)
O3_5 O 0.39036(7) 0.42205(12) 0.75373(9)
C1_5 C 0.33985(18) 0.24020(22) 0.4940(2)
O7_5 O 0.37285(12) 0.37028(19) 0.78711(13)
O8_5 O 0.26528(11) 0.07865(14) 0.88650(12)
C2_5 C 0.29538(11) 0.13857(16) 0.60223(12)
H1_5 H 0.293457 0.130625 0.582166
C3_5 C 0.24796(15) 0.00194(23) 0.61647(18)
C4_5 C 0.32224(12) 0.23408(18) 0.77557(16)
N1_5 N 0.30747(13) 0.19126(20) 0.70045(16)
C5_5 C 0.30169(12) 0.17502(16) 0.54615(14)
H2_5 H 0.287349 0.156197 0.544049
C6_5 C 0.27685(13) 0.09103(18) 0.62571(14)
C7_5 C 0.30594(12) 0.16753(17) 0.60485(14)
C8_5 C 0.33161(13) 0.26314(20) 0.78311(15)
C9_5 C 0.28759(12) 0.12111(18) 0.62877(14)
N2_5 N 0.30097(13) 0.16921(18) 0.69871(13)
C10_5 C 0.28591(19) 0.10355(25) 0.8907(2)
C11_5 C 0.31450(14) 0.18559(18) 0.57569(17)
C12_5 C 0.28476(13) 0.07672(20) 0.64753(13)
H3_5 H 0.296478 0.086808 0.664464
C13_5 C 0.31612(12) 0.21369(18) 0.79838(15)
H4_5 H 0.318526 0.219225 0.819606
C14_5 C 0.25884(14) 0.07515(19) 0.60148(15)
H5_5 H 0.253486 0.084122 0.586440
C15_5 C 0.31062(13) 0.19289(17) 0.52025(14)
H6_5 H 0.302412 0.185659 0.500559
C16_5 C 0.30717(13) 0.17945(18) 0.63564(16)
H7_5 H 0.312889 0.198572 0.638098
C17_5 C 0.30101(14) 0.16450(19) 0.81698(17)
C18_5 C 0.34928(18) 0.31964(27) 0.7965(3)
C19_5 C 0.35695(19) 0.35011(36) 0.79988(18)
C20_5 C 0.25760(12) 0.03345(18) 0.62043(17)
C21_5 C 0.27566(14) 0.04802(21) 0.64466(15)
H8_5 H 0.281701 0.039006 0.658846
C22_5 C 0.33153(15) 0.22146(19) 0.52244(17)
C23_5 C 0.30675(13) 0.18589(19) 0.79171(16)
C24_5 C 0.29939(17) 0.16111(24) 0.66197(14)
C25_5 C 0.33697(15) 0.21415(20) 0.57755(15)
H9_5 H 0.346593 0.221076 0.596660
C26_5 C 0.35545(17) 0.31301(34) 0.7714(2)
H10_5 H 0.366133 0.327290 0.756888
C27_5 C 0.31159(15) 0.15094(20) 0.86811(15)
H11_5 H 0.323454 0.156077 0.885759
C28_5 C 0.28022(18) 0.13823(23) 0.81482(18)
H12_5 H 0.269051 0.133041 0.796592
O9_5 O 0.34651(14) 0.35384(21) 0.8256(2)
C29_5 C 0.30968(16) 0.19794(26) 0.73708(14)
C30_5 C 0.31670(14) 0.17110(19) 0.84450(17)
H13_5 H 0.331283 0.189692 0.847556
C31_5 C 0.27381(15) 0.11806(21) 0.8372(3)
H14_5 H 0.258656 0.099794 0.834011
C32_5 C 0.31816(14) 0.22561(21) 0.7440(2)
H15_5 H 0.321134 0.238504 0.727847
C33_5 C 0.34469(15) 0.23168(21) 0.5515(2)
H16_5 H 0.358870 0.250595 0.553479
C34_5 C 0.28986(17) 0.12443(21) 0.8655(2)
C35_5 C 0.28943(15) 0.13314(22) 0.65814(15)
H17_5 H 0.283574 0.121484 0.675991
C36_5 C 0.34744(17) 0.28520(26) 0.76316(16)
H18_5 H 0.353018 0.281612 0.743621
O10_5 O 0.31060(14) 0.21285(19) 0.68373(12)
C37_5 C 0.30380(13) 0.17826(18) 0.75856(18)
H19_5 H 0.297828 0.159667 0.752477
C38_5 C 0.24874(13) 0.04695(20) 0.59895(15)
H20_5 H 0.235917 0.036583 0.582939
C39_5 C 0.32296(15) 0.27030(23) 0.8106(2)
H21_5 H 0.311407 0.256002 0.824784
C40_5 C 0.33088(16) 0.29801(23) 0.81782(19)
H22_5 H 0.324323 0.302415 0.836163
O13_5 O 0.52514(9) 0.55609(15) 0.25297(11)
O14_5 O 0.43120(9) 0.43739(14) 0.69868(13)
O16_5 O 0.60079(11) 0.67532(14) 0.53274(11)
O17_5 O 0.42589(9) 0.40051(13) 0.66957(10)
O18_5 O 0.57494(9) 0.67803(13) 0.57228(13)
C41_5 C 0.43298(13) 0.42646(22) 0.6726(2)
O19_5 O 0.33590(15) 0.29638(19) 0.37955(13)
C42_5 C 0.49014(11) 0.52809(16) 0.56443(12)
H23_5 H 0.496165 0.536041 0.584500
C43_5 C 0.57935(18) 0.66472(23) 0.55019(18)
C44_5 C 0.42149(14) 0.43258(18) 0.39109(16)
N3_5 N 0.44954(15) 0.47540(20) 0.46621(16)
C45_5 C 0.46000(11) 0.49164(16) 0.62051(14)
H24_5 H 0.464485 0.510469 0.622617
C46_5 C 0.51915(13) 0.57563(18) 0.54095(14)
C47_5 C 0.47174(12) 0.49913(17) 0.56181(14)
C48_5 C 0.40180(15) 0.40352(20) 0.38355(15)
C49_5 C 0.49981(13) 0.54555(18) 0.53789(14)
N4_5 N 0.46509(12) 0.49745(18) 0.46795(13)
C50_5 C 0.51569(17) 0.56311(25) 0.2759(2)
C51_5 C 0.46224(11) 0.48107(18) 0.59097(17)
C52_5 C 0.54137(15) 0.58994(20) 0.51913(13)
H25_5 H 0.543003 0.579858 0.502202
C53_5 C 0.43576(13) 0.45297(18) 0.36828(15)
H26_5 H 0.432634 0.447441 0.347060
C54_5 C 0.51702(13) 0.59151(19) 0.56518(15)
H27_5 H 0.502697 0.582544 0.580226
C55_5 C 0.45106(11) 0.47377(17) 0.64641(14)
H28_5 H 0.450086 0.481007 0.666107
C56_5 C 0.46105(13) 0.48721(18) 0.53102(16)
H29_5 H 0.447650 0.468094 0.528568
C57_5 C 0.46984(13) 0.50216(19) 0.34968(17)
C58_5 C 0.3630(2) 0.34702(27) 0.3701(3)
C59_5 C 0.3402(3) 0.31655(36) 0.36678(18)
C60_5 C 0.55748(13) 0.63321(18) 0.54623(17)
C61_5 C 0.56097(15) 0.61864(21) 0.52200(15)
H30_5 H 0.576028 0.627660 0.507820
C62_5 C 0.44340(11) 0.44520(19) 0.64422(17)
C63_5 C 0.45419(14) 0.48077(19) 0.37495(16)
C64_5 C 0.47161(17) 0.50555(24) 0.50469(14)
C65_5 C 0.45615(13) 0.45251(20) 0.58911(15)
H31_5 H 0.458850 0.445590 0.570006
C66_5 C 0.3758(3) 0.35365(34) 0.3952(2)
H32_5 H 0.372176 0.339376 0.409778
C67_5 C 0.49398(13) 0.51572(20) 0.29855(15)
H33_5 H 0.500710 0.510589 0.280907
C68_5 C 0.47532(15) 0.52843(23) 0.35184(18)
H34_5 H 0.469343 0.533625 0.370074
O21_5 O 0.32600(16) 0.31282(21) 0.3410(2)
C69_5 C 0.4451(2) 0.46872(26) 0.42958(14)
C70_5 C 0.47893(13) 0.49556(19) 0.32216(17)
H35_5 H 0.474924 0.476974 0.319110
C71_5 C 0.48908(15) 0.54860(21) 0.3294(3)
H36_5 H 0.492195 0.566872 0.332655
C72_5 C 0.42588(16) 0.44105(21) 0.4226(2)
H37_5 H 0.415963 0.428162 0.438819
C73_5 C 0.44634(14) 0.43498(21) 0.6151(2)
H38_5 H 0.441608 0.416071 0.613187
C74_5 C 0.49876(13) 0.54223(21) 0.3011(2)
C75_5 C 0.48962(16) 0.53352(22) 0.50852(15)
H39_5 H 0.495423 0.545182 0.490675
C76_5 C 0.3956(2) 0.38146(26) 0.40350(16)
H40_5 H 0.404739 0.385054 0.423045
O22_5 O 0.43108(13) 0.45381(19) 0.48293(12)
C77_5 C 0.45887(13) 0.48840(18) 0.40810(18)
H41_5 H 0.471494 0.506999 0.414189
C78_5 C 0.53512(15) 0.61971(20) 0.56771(15)
H42_5 H 0.532667 0.630083 0.583727
C79_5 C 0.38599(18) 0.39636(23) 0.3560(2)
H43_5 H 0.388738 0.410664 0.341882
O23_5 O 0.59957(16) 0.71863(26) 0.63536(18)
C80_5 C 0.36620(17) 0.36865(23) 0.34884(19)
H44_5 H 0.355241 0.364251 0.330503
O24_5 O 0.55421(18) 0.71365(22) 0.5965(2)
Zn8_6 Zn 0.566944(20) 0.566943(20) 0.250000
Zn9_5 Zn 0.40541(3) 0.37556(4) 0.70371(2)
Zn12_5 Zn 0.63681(2) 0.70889(4) 0.53704(2)
Zn13_5 Zn 0.26140(2) 0.05081(3) 0.92014(3)
Zn15_5 Zn 0.26140(2) 0.21060(4) 0.42014(3)
Zn16_5 Zn 0.38414(3) 0.45607(4) 0.74653(3)
O25_8 O 0.44391(15) 0.47486(19) 0.75297(11)
O26_8 O 0.47486(9) 0.44391(15) 0.74703(11)
O27_8 O 0.43739(14) 0.43120(18) 0.80132(13)
O28_8 O 0.42205(12) 0.39036(16) 0.74627(9)
O30_5 O 0.63497(10) 0.72369(16) 0.57960(9)
O31_5 O 0.26745(11) 0.25880(18) 0.36608(11)
O32_5 O 0.34199(14) 0.40787(18) 0.80059(11)
O33_5 O 0.40051(13) 0.42589(16) 0.83043(10)
H49_5 H 0.543866 0.698363 0.612417
H50_5 H 0.557051 0.731923 0.605084
H51_5 H 0.610812 0.709488 0.641247
H52_5 H 0.609629 0.738688 0.64268
Zn3_5 Zn 0.21060(2) 0.94919(3) 0.57986(3)
O4_5 O 0.25880(9) 0.99134(14) 0.63392(11)
O6_5 O 0.23024(10) 0.98863(13) 0.59438(13)
O11_5 O 0.2143(2) 0.94803(26) 0.53130(18)
O12_5 O 0.17389(13) 0.95301(22) 0.5701(2)
Zn11_5 Zn 0.26125(3) 0.95778(4) 0.62963(2)
O29_5 O 0.24461(12) 0.94298(16) 0.58707(9)
O35_5 O 0.18662(9) 0.92135(14) 0.61350(12)
H45_5 H 0.234658 0.957179 0.52542
H46_5 H 0.204274 0.927979 0.523987
H47_5 H 0.178837 0.968304 0.55425
H48_5 H 0.158461 0.934744 0.561582
Zn3_6 Zn 0.05081(3) 0.26140(2) 0.57986(3)
O4_6 O 0.00866(14) 0.26745(11) 0.63392(11)
O6_6 O 0.01137(13) 0.24160(9) 0.59438(13)
O11_6 O 0.05197(26) 0.26623(16) 0.53130(18)
O12_6 O 0.04699(22) 0.22087(18) 0.5701(2)
Zn11_6 Zn 0.04222(4) 0.30348(2) 0.62963(2)
O29_6 O 0.05702(16) 0.30164(10) 0.58707(9)
O35_6 O 0.07865(14) 0.26528(11) 0.61350(12)
H45_6 H 0.0428211 0.277479 0.52542
H46_6 H 0.0720209 0.276295 0.523987
H47_6 H 0.031696 0.210533 0.55425
H48_6 H 0.065256 0.223717 0.561582
Zn1_7 Zn 0.566944(20) 0.000000 0.750000
O1_6 O 0.88943(15) 0.19180(9) 0.91369(11)
C1_6 C 0.75980(22) 0.09964(13) 0.4940(2)
O7_6 O 0.62972(19) 0.00256(15) 0.78711(13)
O8_6 O 0.92135(14) 0.18662(9) 0.88650(12)
C2_6 C 0.86143(16) 0.15680(11) 0.60223(12)
H1_6 H 0.869375 0.162831 0.582166
C3_6 C 0.99806(23) 0.24601(18) 0.61647(18)
C4_6 C 0.76592(18) 0.08815(14) 0.77557(16)
N1_6 N 0.80874(20) 0.11620(15) 0.70045(16)
C5_6 C 0.82498(16) 0.12666(11) 0.54615(14)
H2_6 H 0.843803 0.131151 0.544049
C6_6 C 0.90897(18) 0.18581(13) 0.62571(14)
C7_6 C 0.83247(17) 0.13840(12) 0.60485(14)
C8_6 C 0.73686(20) 0.06846(15) 0.78311(15)
C9_6 C 0.87889(18) 0.16647(13) 0.62877(14)
N2_6 N 0.83079(18) 0.13175(12) 0.69871(13)
C10_6 C 0.89645(25) 0.18235(17) 0.8907(2)
C11_6 C 0.81441(18) 0.12890(11) 0.57569(17)
C12_6 C 0.92328(20) 0.20803(15) 0.64753(13)
H3_6 H 0.913192 0.209669 0.664464
C13_6 C 0.78631(18) 0.10242(13) 0.79838(15)
H4_6 H 0.780775 0.099300 0.819606
C14_6 C 0.92485(19) 0.18368(13) 0.60148(15)
H5_6 H 0.915878 0.169363 0.586440
C15_6 C 0.80711(17) 0.11772(11) 0.52025(14)
H6_6 H 0.814341 0.116752 0.500559
C16_6 C 0.82055(18) 0.12771(13) 0.63564(16)
H7_6 H 0.801428 0.114316 0.638098
C17_6 C 0.83550(19) 0.13650(13) 0.81698(17)
C18_6 C 0.68036(27) 0.0296(2) 0.7965(3)
C19_6 C 0.64989(36) 0.0068(3) 0.79988(18)
C20_6 C 0.96655(18) 0.22414(13) 0.62043(17)
C21_6 C 0.95198(21) 0.22763(15) 0.64466(15)
H8_6 H 0.960994 0.242694 0.658846
C22_6 C 0.77854(19) 0.11006(11) 0.52244(17)
C23_6 C 0.81411(19) 0.12085(14) 0.79171(16)
C24_6 C 0.83889(24) 0.13827(17) 0.66197(14)
C25_6 C 0.78585(20) 0.12281(13) 0.57755(15)
H9_6 H 0.778924 0.125516 0.596660
C26_6 C 0.68699(34) 0.0424(3) 0.7714(2)
H10_6 H 0.672710 0.038842 0.756888
C27_6 C 0.84906(20) 0.16064(13) 0.86811(15)
H11_6 H 0.843923 0.167376 0.885759
C28_6 C 0.86177(23) 0.14198(15) 0.81482(18)
H12_6 H 0.866959 0.136009 0.796592
C29_6 C 0.80206(26) 0.1117(2) 0.73708(14)
C30_6 C 0.82890(19) 0.14559(13) 0.84450(17)
H13_6 H 0.810308 0.141590 0.847556
C31_6 C 0.88194(21) 0.15574(15) 0.8372(3)
H14_6 H 0.900206 0.158861 0.834011
C32_6 C 0.77439(21) 0.09254(16) 0.7440(2)
H15_6 H 0.761496 0.082629 0.727847
C33_6 C 0.76832(21) 0.11300(14) 0.5515(2)
H16_6 H 0.749405 0.108274 0.553479
C34_6 C 0.87557(21) 0.16542(13) 0.8655(2)
C35_6 C 0.86686(22) 0.15628(16) 0.65814(15)
H17_6 H 0.878516 0.162089 0.675991
C36_6 C 0.71480(26) 0.0622(2) 0.76316(16)
H18_6 H 0.718388 0.071405 0.743621
O10_6 O 0.78715(19) 0.09774(13) 0.68373(12)
C37_6 C 0.82174(18) 0.12553(13) 0.75856(18)
H19_6 H 0.840333 0.138160 0.752477
C38_6 C 0.95305(20) 0.20178(15) 0.59895(15)
H20_6 H 0.963417 0.199333 0.582939
C39_6 C 0.72970(23) 0.05265(18) 0.8106(2)
H21_6 H 0.743998 0.055404 0.824784
C40_6 C 0.70199(23) 0.03286(17) 0.81782(19)
H22_6 H 0.697585 0.021907 0.836163
O17_6 O 0.59949(13) 0.02537(10) 0.66957(10)
C41_6 C 0.57354(22) 0.00651(18) 0.6726(2)
O19_6 O 0.70362(19) 0.03951(12) 0.37955(13)
C58_6 C 0.65298(27) 0.01594(18) 0.3701(3)
C59_6 C 0.68345(36) 0.02361(19) 0.36678(18)
C65_6 C 0.54749(20) 0.00363(15) 0.58911(15)
H31_6 H 0.554410 0.013259 0.570006
C66_6 C 0.64635(34) 0.02211(17) 0.3952(2)
H32_6 H 0.660624 0.032799 0.409778
O21_6 O 0.68718(21) 0.01317(14) 0.3410(2)
C73_6 C 0.56502(21) 0.01135(15) 0.6151(2)
H38_6 H 0.583929 0.025536 0.613187
C76_6 C 0.61854(26) 0.01410(17) 0.40350(16)
H40_6 H 0.614946 0.019684 0.423045
Zn8_7 Zn 0.433057(20) 0.000000 0.250000
Zn9_6 Zn 0.62444(4) 0.02986(2) 0.70371(2)
Zn13_6 Zn 0.94919(3) 0.21060(2) 0.92014(3)
Zn15_6 Zn 0.78940(4) 0.05081(3) 0.42014(3)
O26_9 O 0.55609(15) 0.03096(12) 0.74703(11)
O27_9 O 0.56880(18) 0.00620(11) 0.80132(13)
O28_9 O 0.60964(16) 0.03170(10) 0.74627(9)
O31_6 O 0.74120(18) 0.00866(14) 0.36608(11)
Zn1_8 Zn 0.566944(20) 1.000000 0.750000
Zn2_6 Zn 0.59459(3) 0.97014(2) 0.79629(2)
O3_6 O 0.57795(12) 0.96830(10) 0.75373(9)
O9_6 O 0.64616(21) 0.99266(16) 0.8256(2)
O13_6 O 0.44391(15) 0.96904(12) 0.25297(11)
O14_6 O 0.56261(14) 0.99380(11) 0.69868(13)
O16_6 O 0.32468(14) 0.92546(9) 0.53274(11)
O18_6 O 0.32197(13) 0.89690(10) 0.57228(13)
C42_6 C 0.47191(16) 0.96204(11) 0.56443(12)
H23_6 H 0.463959 0.960123 0.584500
C43_6 C 0.33528(23) 0.91462(15) 0.55019(18)
C44_6 C 0.56742(18) 0.98890(12) 0.39109(16)
N3_6 N 0.52460(20) 0.97413(13) 0.46621(16)
C45_6 C 0.50836(16) 0.96835(12) 0.62051(14)
H24_6 H 0.489531 0.954015 0.622617
C46_6 C 0.42437(18) 0.94351(13) 0.54095(14)
C47_6 C 0.50087(17) 0.97260(12) 0.56181(14)
C48_6 C 0.59648(20) 0.99827(13) 0.38355(15)
C49_6 C 0.45445(18) 0.95425(12) 0.53789(14)
N4_6 N 0.50255(18) 0.96763(13) 0.46795(13)
C50_6 C 0.43689(25) 0.95257(19) 0.2759(2)
C51_6 C 0.51893(18) 0.98116(14) 0.59097(17)
C52_6 C 0.41006(20) 0.95142(13) 0.51913(13)
H25_6 H 0.420142 0.963144 0.502202
C53_6 C 0.54703(18) 0.98278(12) 0.36828(15)
H26_6 H 0.552559 0.985192 0.347060
C54_6 C 0.40849(19) 0.92550(14) 0.56518(15)
H27_6 H 0.417456 0.920152 0.580226
C55_6 C 0.52623(17) 0.97728(13) 0.64641(14)
H28_6 H 0.518993 0.969078 0.666107
C56_6 C 0.51279(18) 0.97383(13) 0.53102(16)
H29_6 H 0.531906 0.979555 0.528568
C57_6 C 0.49784(19) 0.96767(14) 0.34968(17)
C60_6 C 0.36679(18) 0.92426(12) 0.54623(17)
C61_6 C 0.38136(21) 0.94232(14) 0.52200(15)
H30_6 H 0.372340 0.948367 0.507820
C62_6 C 0.55480(19) 0.99819(15) 0.64422(17)
C63_6 C 0.51923(19) 0.97341(13) 0.37495(16)
C64_6 C 0.49445(24) 0.96605(17) 0.50469(14)
C67_6 C 0.48428(20) 0.97825(15) 0.29855(15)
H33_6 H 0.489411 0.990120 0.280907
C68_6 C 0.47157(23) 0.94688(18) 0.35184(18)
H34_6 H 0.466375 0.935717 0.370074
C69_6 C 0.53128(26) 0.97634(16) 0.42958(14)
C70_6 C 0.50444(19) 0.98336(14) 0.32216(17)
H35_6 H 0.523026 0.997949 0.319110
C71_6 C 0.45140(21) 0.94047(15) 0.3294(3)
H36_6 H 0.433128 0.925322 0.332655
C72_6 C 0.55895(21) 0.98482(14) 0.4226(2)
H37_6 H 0.571838 0.987800 0.438819
C74_6 C 0.45777(21) 0.95652(17) 0.3011(2)
C75_6 C 0.46648(22) 0.95609(15) 0.50852(15)
H39_6 H 0.454818 0.950240 0.490675
O22_6 O 0.54619(19) 0.97726(14) 0.48293(12)
C77_6 C 0.51160(18) 0.97046(13) 0.40810(18)
H41_6 H 0.493001 0.964494 0.414189
C78_6 C 0.38029(20) 0.91540(13) 0.56771(15)
H42_6 H 0.369917 0.902583 0.583727
C79_6 C 0.60364(23) 0.98962(15) 0.3560(2)
H43_6 H 0.589336 0.978073 0.341882
O23_6 O 0.28137(26) 0.8809(2) 0.63536(18)
C80_6 C 0.63135(23) 0.99754(16) 0.34884(19)
H44_6 H 0.635749 0.990989 0.330503
O24_6 O 0.28635(22) 0.84055(13) 0.5965(2)
Zn8_8 Zn 0.433057(20) 1.000000 0.250000
Zn12_6 Zn 0.29111(4) 0.92792(3) 0.53704(2)
Zn16_6 Zn 0.54393(4) 0.92807(2) 0.74653(3)
O25_9 O 0.52514(19) 0.96904(12) 0.75297(11)
O30_6 O 0.27631(16) 0.91128(12) 0.57960(9)
O32_6 O 0.59213(18) 0.93412(11) 0.80059(11)
O33_6 O 0.57411(16) 0.97463(10) 0.83043(10)
H49_6 H 0.301637 0.845504 0.612417
H50_6 H 0.268077 0.825128 0.605084
H51_6 H 0.290512 0.901325 0.641247
H52_6 H 0.261312 0.870941 0.64268
O1_7 O 0.47486(9) 0.03096(12) 0.24703(11)
C4_7 C 0.57851(14) 0.01110(12) 0.10891(16)
N1_7 N 0.55046(15) 0.02587(13) 0.03379(16)
C8_7 C 0.59820(15) 0.00173(13) 0.11645(15)
N2_7 N 0.53491(12) 0.03237(13) 0.03205(13)
C10_7 C 0.48431(17) 0.04743(19) 0.2241(2)
C13_7 C 0.56424(13) 0.01722(12) 0.13172(15)
H4_7 H 0.567366 0.014808 0.152940
C17_7 C 0.53016(13) 0.03233(14) 0.15032(17)
C23_7 C 0.54581(14) 0.02659(13) 0.12505(16)
C27_7 C 0.50602(13) 0.02175(15) 0.20145(15)
H11_7 H 0.499290 0.009880 0.219093
C28_7 C 0.52468(15) 0.05312(18) 0.14816(18)
H12_7 H 0.530657 0.064283 0.129926
C29_7 C 0.5549(2) 0.02366(16) 0.07042(14)
C30_7 C 0.52107(13) 0.01664(14) 0.17784(17)
H13_7 H 0.525076 0.002051 0.180890
C31_7 C 0.51092(15) 0.05953(15) 0.1706(3)
H14_7 H 0.507805 0.074678 0.167345
C32_7 C 0.57412(16) 0.01518(14) 0.0774(2)
H15_7 H 0.584037 0.012200 0.061181
C34_7 C 0.50124(13) 0.04348(17) 0.1989(2)
H17_7 H 0.504577 0.049760 0.009325
O10_7 O 0.56892(13) 0.02274(14) 0.01707(12)
C37_7 C 0.54113(13) 0.02954(13) 0.09190(18)
H19_7 H 0.528506 0.035506 0.085811
C39_7 C 0.61401(18) 0.01038(15) 0.1440(2)
H21_7 H 0.611262 0.021927 0.158118
C40_7 C 0.63380(17) 0.00246(16) 0.15116(19)
H22_7 H 0.644759 0.009011 0.169497
O4_7 O 0.39921(11) 0.07454(9) 0.96726(11)
O6_7 O 0.42506(9) 0.10310(10) 0.92772(13)
C2_7 C 0.50986(11) 0.03796(11) 0.93557(12)
H1_7 H 0.503835 0.039877 0.915500
C3_7 C 0.42065(18) 0.08538(15) 0.94981(18)
C5_7 C 0.54000(11) 0.03165(12) 0.87949(14)
H2_7 H 0.535515 0.045985 0.877383
C6_7 C 0.48085(13) 0.05649(13) 0.95905(14)
C7_7 C 0.52826(12) 0.02740(12) 0.93819(14)
C9_7 C 0.50019(13) 0.04575(12) 0.96211(14)
C11_7 C 0.53776(11) 0.01884(14) 0.90903(17)
C12_7 C 0.45863(15) 0.04858(13) 0.98087(13)
H3_7 H 0.456997 0.036856 0.997798
C14_7 C 0.48298(13) 0.07450(14) 0.93482(15)
H5_7 H 0.497303 0.079848 0.919774
C15_7 C 0.54894(11) 0.02272(13) 0.85359(14)
H6_7 H 0.549914 0.030922 0.833893
C16_7 C 0.53895(13) 0.02617(13) 0.96898(16)
H7_7 H 0.552350 0.020445 0.971432
C20_7 C 0.44252(13) 0.07574(12) 0.95377(17)
C21_7 C 0.43903(15) 0.05768(14) 0.97800(15)
H8_7 H 0.423972 0.051633 0.992180
C22_7 C 0.55660(11) 0.00181(15) 0.85578(17)
C24_7 C 0.52839(17) 0.03395(17) 0.99531(14)
C35_7 C 0.51038(16) 0.04391(15) 0.99148(15)
C38_7 C 0.46488(15) 0.08460(13) 0.93229(15)
H20_7 H 0.467333 0.097417 0.916273
O11_7 O 0.40043(16) 0.1191(2) 0.86464(18)
O12_7 O 0.44579(18) 0.15945(13) 0.9035(2)
O21_7 O 0.65349(14) 0.00734(16) 0.6744(2)
Zn11_7 Zn 0.36319(2) 0.07208(3) 0.96296(2)
Zn15_7 Zn 0.61586(3) 0.07193(2) 0.75347(3)
O29_7 O 0.36503(10) 0.08872(12) 0.92040(9)
O31_7 O 0.65801(14) 0.06588(11) 0.69941(11)
H45_7 H 0.389188 0.0986753 0.858753
H46_7 H 0.390371 0.129059 0.85732
H47_7 H 0.456134 0.154496 0.887583
H48_7 H 0.442949 0.174872 0.894916
O7_7 O 0.66410(15) 0.96049(12) 0.12045(13)
C18_7 C 0.6370(2) 0.98406(18) 0.1299(3)
C19_7 C 0.6598(3) 0.97639(19) 0.13322(18)
C26_7 C 0.6242(3) 0.97789(17) 0.1048(2)
H10_7 H 0.627824 0.967201 0.090222
O9_7 O 0.67400(16) 0.98683(14) 0.1590(2)
C36_7 C 0.6044(2) 0.98590(17) 0.09650(16)
H18_7 H 0.595261 0.980316 0.076955
C41_7 C 0.66015(18) 0.90036(13) 0.0060(2)
Zn16_7 Zn 0.73860(2) 0.94919(3) 0.07986(3)
O32_7 O 0.73255(11) 0.99134(14) 0.13392(11)
C1_7 C 0.56702(13) 0.99349(18) 0.8274(2)
C25_7 C 0.54385(13) 0.99637(15) 0.91089(15)
H9_7 H 0.541150 0.986741 0.929994
C33_7 C 0.55366(14) 0.98865(15) 0.8849(2)
H16_7 H 0.558392 0.974464 0.886813
O13_7 O 0.69762(12) 0.80820(9) 0.58631(11)
O16_7 O 0.74120(9) 0.73255(11) 0.86608(11)
O18_7 O 0.76976(10) 0.75840(9) 0.90562(13)
O19_7 O 0.62715(12) 0.99744(15) 0.71289(13)
C42_7 C 0.70462(11) 0.84320(11) 0.89777(12)
H23_7 H 0.706543 0.837169 0.917834
C43_7 C 0.75204(15) 0.75399(18) 0.88353(18)
C44_7 C 0.67776(12) 0.91185(14) 0.72443(16)
N3_7 N 0.69253(13) 0.88380(15) 0.79955(16)
C45_7 C 0.69831(12) 0.87334(11) 0.95385(14)
H24_7 H 0.712651 0.868849 0.955951
C46_7 C 0.72315(13) 0.81419(13) 0.87429(14)
C47_7 C 0.69406(12) 0.86160(12) 0.89515(14)
C48_7 C 0.66839(13) 0.93154(15) 0.71689(15)
C49_7 C 0.71241(12) 0.83353(13) 0.87123(14)
N4_7 N 0.69903(13) 0.86825(12) 0.80129(13)
C50_7 C 0.71409(19) 0.81765(17) 0.6093(2)
C51_7 C 0.68550(14) 0.87110(11) 0.92431(17)
C52_7 C 0.71524(13) 0.79197(15) 0.85247(13)
H25_7 H 0.703522 0.790331 0.835536
C53_7 C 0.68388(12) 0.89758(13) 0.70162(15)
H26_7 H 0.681474 0.900700 0.680394
C54_7 C 0.74116(14) 0.81632(13) 0.89852(15)
H27_7 H 0.746514 0.830637 0.913560
C55_7 C 0.68938(13) 0.88228(11) 0.97975(14)
H28_7 H 0.697588 0.883248 0.999441
C56_7 C 0.69283(13) 0.87229(13) 0.86436(16)
H29_7 H 0.687111 0.885684 0.861902
C57_7 C 0.69899(14) 0.86350(13) 0.68302(17)
C58_7 C 0.65072(18) 0.9704(2) 0.7035(3)
C59_7 C 0.64305(19) 0.9932(3) 0.70012(18)
C60_7 C 0.74240(12) 0.77586(13) 0.87957(17)
C61_7 C 0.72434(14) 0.77237(15) 0.85534(15)
H30_7 H 0.718299 0.757306 0.841154
C62_7 C 0.66847(15) 0.88994(11) 0.97756(17)
C63_7 C 0.69325(13) 0.87915(14) 0.70829(16)
C64_7 C 0.70061(17) 0.86173(17) 0.83803(14)
C65_7 C 0.66303(15) 0.87719(13) 0.92245(15)
H31_7 H 0.653407 0.874484 0.903340
C66_7 C 0.64455(17) 0.9576(3) 0.7286(2)
H32_7 H 0.633867 0.961158 0.743112
C67_7 C 0.68841(15) 0.83936(13) 0.63189(15)
H33_7 H 0.676546 0.832624 0.614241
C68_7 C 0.71978(18) 0.85802(15) 0.68518(18)
H34_7 H 0.730949 0.863991 0.703408
C69_7 C 0.69032(16) 0.8883(2) 0.76292(14)
C70_7 C 0.68330(14) 0.85441(13) 0.65550(17)
H35_7 H 0.668717 0.858410 0.652444
C71_7 C 0.72619(15) 0.84426(15) 0.6628(3)
H36_7 H 0.741344 0.841139 0.665989
C72_7 C 0.68184(14) 0.90746(16) 0.7560(2)
H37_7 H 0.678866 0.917371 0.772153
C73_7 C 0.65531(15) 0.88700(14) 0.9485(2)
H38_7 H 0.641130 0.891726 0.946521
C74_7 C 0.71014(17) 0.83458(13) 0.6345(2)
C75_7 C 0.71057(15) 0.84372(16) 0.84186(15)
H39_7 H 0.716426 0.837911 0.824009
C76_7 C 0.65256(17) 0.9378(2) 0.73684(16)
H40_7 H 0.646982 0.928595 0.756379
O22_7 O 0.68940(14) 0.90226(13) 0.81627(12)
C77_7 C 0.69620(13) 0.87447(13) 0.74144(18)
H41_7 H 0.702172 0.861840 0.747523
C78_7 C 0.75126(13) 0.79822(15) 0.90105(15)
H42_7 H 0.764083 0.800667 0.917061
C79_7 C 0.67704(15) 0.94735(18) 0.6894(2)
H43_7 H 0.688593 0.944596 0.675216
O23_7 O 0.7857(2) 0.73377(16) 0.96870(18)
C80_7 C 0.66912(16) 0.96714(17) 0.68218(19)
H44_7 H 0.675677 0.978093 0.663837
O24_7 O 0.82611(13) 0.77913(18) 0.9299(2)
Zn12_7 Zn 0.73875(3) 0.69652(2) 0.87037(2)
O30_7 O 0.75539(12) 0.69836(10) 0.91293(9)
H49_7 H 0.821163 0.789467 0.94575
H50_7 H 0.841539 0.776283 0.938418
H51_7 H 0.765342 0.722521 0.97458
H52_7 H 0.795726 0.723705 0.976013
O16_8 O 0.26745(11) 0.00866(14) 0.86608(11)
O18_8 O 0.24160(9) 0.01137(13) 0.90562(13)
O23_8 O 0.26623(16) 0.05197(26) 0.96870(18)
O24_8 O 0.22087(18) 0.04699(22) 0.9299(2)
Zn12_8 Zn 0.30348(2) 0.04222(4) 0.87037(2)
O30_8 O 0.30164(10) 0.05702(16) 0.91293(9)
H49_8 H 0.210533 0.031696 0.94575
H50_8 H 0.223717 0.065256 0.938418
H51_8 H 0.277479 0.0428211 0.97458
H52_8 H 0.276295 0.0720209 0.976013
O7_8 O 0.03951(12) 0.70362(19) 0.12045(13)
C18_8 C 0.01594(18) 0.65298(27) 0.1299(3)
C19_8 C 0.02361(19) 0.68345(36) 0.13322(18)
C26_8 C 0.02211(17) 0.64635(34) 0.1048(2)
H10_8 H 0.032799 0.660624 0.090222
O9_8 O 0.01317(14) 0.68718(21) 0.1590(2)
C36_8 C 0.01410(17) 0.61854(26) 0.09650(16)
H18_8 H 0.019684 0.614946 0.076955
C41_8 C 0.09964(13) 0.75980(22) 0.0060(2)
Zn16_8 Zn 0.05081(3) 0.78940(4) 0.07986(3)
O32_8 O 0.00866(14) 0.74120(18) 0.13392(11)
C1_8 C 0.00651(18) 0.57354(22) 0.8274(2)
C25_8 C 0.00363(15) 0.54749(20) 0.91089(15)
H9_8 H 0.013259 0.554410 0.929994
C33_8 C 0.01135(15) 0.56502(21) 0.8849(2)
H16_8 H 0.025536 0.583929 0.886813
O13_8 O 0.19180(9) 0.88943(15) 0.58631(11)
O19_8 O 0.00256(15) 0.62972(19) 0.71289(13)
C42_8 C 0.15680(11) 0.86143(16) 0.89777(12)
H23_8 H 0.162831 0.869375 0.917834
C43_8 C 0.24601(18) 0.99806(23) 0.88353(18)
C44_8 C 0.08815(14) 0.76592(18) 0.72443(16)
N3_8 N 0.11620(15) 0.80874(20) 0.79955(16)
C45_8 C 0.12666(11) 0.82498(16) 0.95385(14)
H24_8 H 0.131151 0.843803 0.955951
C46_8 C 0.18581(13) 0.90897(18) 0.87429(14)
C47_8 C 0.13840(12) 0.83247(17) 0.89515(14)
C48_8 C 0.06846(15) 0.73686(20) 0.71689(15)
C49_8 C 0.16647(13) 0.87889(18) 0.87123(14)
N4_8 N 0.13175(12) 0.83079(18) 0.80129(13)
C50_8 C 0.18235(17) 0.89645(25) 0.6093(2)
C51_8 C 0.12890(11) 0.81441(18) 0.92431(17)
C52_8 C 0.20803(15) 0.92328(20) 0.85247(13)
H25_8 H 0.209669 0.913192 0.835536
C53_8 C 0.10242(13) 0.78631(18) 0.70162(15)
H26_8 H 0.099300 0.780775 0.680394
C54_8 C 0.18368(13) 0.92485(19) 0.89852(15)
H27_8 H 0.169363 0.915878 0.913560
C55_8 C 0.11772(11) 0.80711(17) 0.97975(14)
H28_8 H 0.116752 0.814341 0.999441
C56_8 C 0.12771(13) 0.82055(18) 0.86436(16)
H29_8 H 0.114316 0.801428 0.861902
C57_8 C 0.13650(13) 0.83550(19) 0.68302(17)
C58_8 C 0.0296(2) 0.68036(27) 0.7035(3)
C59_8 C 0.0068(3) 0.64989(36) 0.70012(18)
C60_8 C 0.22414(13) 0.96655(18) 0.87957(17)
C61_8 C 0.22763(15) 0.95198(21) 0.85534(15)
H30_8 H 0.242694 0.960994 0.841154
C62_8 C 0.11006(11) 0.77854(19) 0.97756(17)
C63_8 C 0.12085(14) 0.81411(19) 0.70829(16)
C64_8 C 0.13827(17) 0.83889(24) 0.83803(14)
C65_8 C 0.12281(13) 0.78585(20) 0.92245(15)
H31_8 H 0.125516 0.778924 0.903340
C66_8 C 0.0424(3) 0.68699(34) 0.7286(2)
H32_8 H 0.038842 0.672710 0.743112
C67_8 C 0.16064(13) 0.84906(20) 0.63189(15)
H33_8 H 0.167376 0.843923 0.614241
C68_8 C 0.14198(15) 0.86177(23) 0.68518(18)
H34_8 H 0.136009 0.866959 0.703408
C69_8 C 0.1117(2) 0.80206(26) 0.76292(14)
C70_8 C 0.14559(13) 0.82890(19) 0.65550(17)
H35_8 H 0.141590 0.810308 0.652444
C71_8 C 0.15574(15) 0.88194(21) 0.6628(3)
H36_8 H 0.158861 0.900206 0.665989
C72_8 C 0.09254(16) 0.77439(21) 0.7560(2)
H37_8 H 0.082629 0.761496 0.772153
C73_8 C 0.11300(14) 0.76832(21) 0.9485(2)
H38_8 H 0.108274 0.749405 0.946521
C74_8 C 0.16542(13) 0.87557(21) 0.6345(2)
C75_8 C 0.15628(16) 0.86686(22) 0.84186(15)
H39_8 H 0.162089 0.878516 0.824009
C76_8 C 0.0622(2) 0.71480(26) 0.73684(16)
H40_8 H 0.071405 0.718388 0.756379
O22_8 O 0.09774(13) 0.78715(19) 0.81627(12)
C77_8 C 0.12553(13) 0.82174(18) 0.74144(18)
H41_8 H 0.138160 0.840333 0.747523
C78_8 C 0.20178(15) 0.95305(20) 0.90105(15)
H42_8 H 0.199333 0.963417 0.917061
C79_8 C 0.05265(18) 0.72970(23) 0.6894(2)
H43_8 H 0.055404 0.743998 0.675216
C80_8 C 0.03286(17) 0.70199(23) 0.68218(19)
H44_8 H 0.021907 0.697585 0.663837
O1_8 O 0.96904(12) 0.44391(15) 0.24703(11)
C4_8 C 0.98890(12) 0.56742(18) 0.10891(16)
N1_8 N 0.97413(13) 0.52460(20) 0.03379(16)
C8_8 C 0.99827(13) 0.59648(20) 0.11645(15)
N2_8 N 0.96763(13) 0.50255(18) 0.03205(13)
C10_8 C 0.95257(19) 0.43689(25) 0.2241(2)
C13_8 C 0.98278(12) 0.54703(18) 0.13172(15)
H4_8 H 0.985192 0.552559 0.152940
C17_8 C 0.96767(14) 0.49784(19) 0.15032(17)
C23_8 C 0.97341(13) 0.51923(19) 0.12505(16)
C27_8 C 0.97825(15) 0.48428(20) 0.20145(15)
H11_8 H 0.990120 0.489411 0.219093
C28_8 C 0.94688(18) 0.47157(23) 0.14816(18)
H12_8 H 0.935717 0.466375 0.129926
C29_8 C 0.97634(16) 0.53128(26) 0.07042(14)
C30_8 C 0.98336(14) 0.50444(19) 0.17784(17)
H13_8 H 0.997949 0.523026 0.180890
C31_8 C 0.94047(15) 0.45140(21) 0.1706(3)
H14_8 H 0.925322 0.433128 0.167345
C32_8 C 0.98482(14) 0.55895(21) 0.0774(2)
H15_8 H 0.987800 0.571838 0.061181
C34_8 C 0.95652(17) 0.45777(21) 0.1989(2)
H17_8 H 0.950240 0.454818 0.009325
O10_8 O 0.97726(14) 0.54619(19) 0.01707(12)
C37_8 C 0.97046(13) 0.51160(18) 0.09190(18)
H19_8 H 0.964494 0.493001 0.085811
C39_8 C 0.98962(15) 0.60364(23) 0.1440(2)
H21_8 H 0.978073 0.589336 0.158118
C40_8 C 0.99754(16) 0.63135(23) 0.15116(19)
H22_8 H 0.990989 0.635749 0.169497
O4_8 O 0.92546(9) 0.32468(14) 0.96726(11)
O6_8 O 0.89690(10) 0.32197(13) 0.92772(13)
C2_8 C 0.96204(11) 0.47191(16) 0.93557(12)
H1_8 H 0.960123 0.463959 0.915500
C3_8 C 0.91462(15) 0.33528(23) 0.94981(18)
C5_8 C 0.96835(12) 0.50836(16) 0.87949(14)
H2_8 H 0.954015 0.489531 0.877383
C6_8 C 0.94351(13) 0.42437(18) 0.95905(14)
C7_8 C 0.97260(12) 0.50087(17) 0.93819(14)
C9_8 C 0.95425(12) 0.45445(18) 0.96211(14)
C11_8 C 0.98116(14) 0.51893(18) 0.90903(17)
C12_8 C 0.95142(13) 0.41006(20) 0.98087(13)
H3_8 H 0.963144 0.420142 0.997798
C14_8 C 0.92550(14) 0.40849(19) 0.93482(15)
H5_8 H 0.920152 0.417456 0.919774
C15_8 C 0.97728(13) 0.52623(17) 0.85359(14)
H6_8 H 0.969078 0.518993 0.833893
C16_8 C 0.97383(13) 0.51279(18) 0.96898(16)
H7_8 H 0.979555 0.531906 0.971432
C20_8 C 0.92426(12) 0.36679(18) 0.95377(17)
C21_8 C 0.94232(14) 0.38136(21) 0.97800(15)
H8_8 H 0.948367 0.372340 0.992180
C22_8 C 0.99819(15) 0.55480(19) 0.85578(17)
C24_8 C 0.96605(17) 0.49445(24) 0.99531(14)
C35_8 C 0.95609(15) 0.46648(22) 0.99148(15)
C38_8 C 0.91540(13) 0.38029(20) 0.93229(15)
H20_8 H 0.902583 0.369917 0.916273
O11_8 O 0.8809(2) 0.28137(26) 0.86464(18)
O12_8 O 0.84055(13) 0.28635(22) 0.9035(2)
O21_8 O 0.99266(16) 0.64616(21) 0.6744(2)
Zn11_8 Zn 0.92792(3) 0.29111(4) 0.96296(2)
Zn15_8 Zn 0.92807(2) 0.54393(4) 0.75347(3)
O29_8 O 0.91128(12) 0.27631(16) 0.92040(9)
O31_8 O 0.93412(11) 0.59213(18) 0.69941(11)
H45_8 H 0.901325 0.290512 0.858753
H46_8 H 0.870941 0.261312 0.85732
H47_8 H 0.845504 0.301637 0.887583
H48_8 H 0.825128 0.268077 0.894916
O1_9 O 0.55609(15) 0.52514(9) 0.24703(11)
O7_9 O 0.29638(19) 0.33590(15) 0.12045(13)
C4_9 C 0.43258(18) 0.42149(14) 0.10891(16)
N1_9 N 0.47540(20) 0.44954(15) 0.03379(16)
C8_9 C 0.40352(20) 0.40180(15) 0.11645(15)
N2_9 N 0.49745(18) 0.46509(12) 0.03205(13)
C10_9 C 0.56311(25) 0.51569(17) 0.2241(2)
C13_9 C 0.45297(18) 0.43576(13) 0.13172(15)
H4_9 H 0.447441 0.432634 0.152940
C17_9 C 0.50216(19) 0.46984(13) 0.15032(17)
C18_9 C 0.34702(27) 0.3630(2) 0.1299(3)
C19_9 C 0.31655(36) 0.3402(3) 0.13322(18)
C23_9 C 0.48077(19) 0.45419(14) 0.12505(16)
C26_9 C 0.35365(34) 0.3758(3) 0.1048(2)
H10_9 H 0.339376 0.372176 0.090222
C27_9 C 0.51572(20) 0.49398(13) 0.20145(15)
H11_9 H 0.510589 0.500710 0.219093
C28_9 C 0.52843(23) 0.47532(15) 0.14816(18)
H12_9 H 0.533625 0.469343 0.129926
O9_9 O 0.31282(21) 0.32600(16) 0.1590(2)
C29_9 C 0.46872(26) 0.4451(2) 0.07042(14)
C30_9 C 0.49556(19) 0.47893(13) 0.17784(17)
H13_9 H 0.476974 0.474924 0.180890
C31_9 C 0.54860(21) 0.48908(15) 0.1706(3)
H14_9 H 0.566872 0.492195 0.167345
C32_9 C 0.44105(21) 0.42588(16) 0.0774(2)
H15_9 H 0.428162 0.415963 0.061181
C34_9 C 0.54223(21) 0.49876(13) 0.1989(2)
H17_9 H 0.545182 0.495423 0.009325
C36_9 C 0.38146(26) 0.3956(2) 0.09650(16)
H18_9 H 0.385054 0.404739 0.076955
O10_9 O 0.45381(19) 0.43108(13) 0.01707(12)
C37_9 C 0.48840(18) 0.45887(13) 0.09190(18)
H19_9 H 0.506999 0.471494 0.085811
C39_9 C 0.39636(23) 0.38599(18) 0.1440(2)
H21_9 H 0.410664 0.388738 0.158118
C40_9 C 0.36865(23) 0.36620(17) 0.15116(19)
H22_9 H 0.364251 0.355241 0.169497
C41_9 C 0.24020(22) 0.33985(18) 0.0060(2)
Zn16_9 Zn 0.21060(4) 0.26140(2) 0.07986(3)
O32_9 O 0.25880(18) 0.26745(11) 0.13392(11)
O4_9 O 0.67532(14) 0.60079(11) 0.96726(11)
O6_9 O 0.67803(13) 0.57494(9) 0.92772(13)
C1_9 C 0.42646(22) 0.43298(13) 0.8274(2)
C2_9 C 0.52809(16) 0.49014(11) 0.93557(12)
H1_9 H 0.536041 0.496165 0.915500
C3_9 C 0.66472(23) 0.57935(18) 0.94981(18)
C5_9 C 0.49164(16) 0.46000(11) 0.87949(14)
H2_9 H 0.510469 0.464485 0.877383
C6_9 C 0.57563(18) 0.51915(13) 0.95905(14)
C7_9 C 0.49913(17) 0.47174(12) 0.93819(14)
C9_9 C 0.54555(18) 0.49981(13) 0.96211(14)
C11_9 C 0.48107(18) 0.46224(11) 0.90903(17)
C12_9 C 0.58994(20) 0.54137(15) 0.98087(13)
H3_9 H 0.579858 0.543003 0.997798
C14_9 C 0.59151(19) 0.51702(13) 0.93482(15)
H5_9 H 0.582544 0.502697 0.919774
C15_9 C 0.47377(17) 0.45106(11) 0.85359(14)
H6_9 H 0.481007 0.450086 0.833893
C16_9 C 0.48721(18) 0.46105(13) 0.96898(16)
H7_9 H 0.468094 0.447650 0.971432
C20_9 C 0.63321(18) 0.55748(13) 0.95377(17)
C21_9 C 0.61864(21) 0.56097(15) 0.97800(15)
H8_9 H 0.627660 0.576028 0.992180
C22_9 C 0.44520(19) 0.44340(11) 0.85578(17)
C24_9 C 0.50555(24) 0.47161(17) 0.99531(14)
C25_9 C 0.45251(20) 0.45615(13) 0.91089(15)
H9_9 H 0.445590 0.458850 0.929994
C33_9 C 0.43498(21) 0.44634(14) 0.8849(2)
H16_9 H 0.416071 0.441608 0.886813
C35_9 C 0.53352(22) 0.48962(16) 0.99148(15)
C38_9 C 0.61971(20) 0.53512(15) 0.93229(15)
H20_9 H 0.630083 0.532667 0.916273
O11_9 O 0.71863(26) 0.59957(16) 0.86464(18)
O12_9 O 0.71365(22) 0.55421(18) 0.9035(2)
O13_9 O 0.11057(15) 0.30238(12) 0.58631(11)
O19_9 O 0.37028(19) 0.37285(12) 0.71289(13)
C42_9 C 0.13857(16) 0.29538(11) 0.89777(12)
H23_9 H 0.130625 0.293457 0.917834
C43_9 C 0.00194(23) 0.24796(15) 0.88353(18)
C44_9 C 0.23408(18) 0.32224(12) 0.72443(16)
N3_9 N 0.19126(20) 0.30747(13) 0.79955(16)
C45_9 C 0.17502(16) 0.30169(12) 0.95385(14)
H24_9 H 0.156197 0.287349 0.955951
C46_9 C 0.09103(18) 0.27685(13) 0.87429(14)
C47_9 C 0.16753(17) 0.30594(12) 0.89515(14)
C48_9 C 0.26314(20) 0.33161(13) 0.71689(15)
C49_9 C 0.12111(18) 0.28759(12) 0.87123(14)
N4_9 N 0.16921(18) 0.30097(13) 0.80129(13)
C50_9 C 0.10355(25) 0.28591(19) 0.6093(2)
C51_9 C 0.18559(18) 0.31450(14) 0.92431(17)
C52_9 C 0.07672(20) 0.28476(13) 0.85247(13)
H25_9 H 0.086808 0.296478 0.835536
C53_9 C 0.21369(18) 0.31612(12) 0.70162(15)
H26_9 H 0.219225 0.318526 0.680394
C54_9 C 0.07515(19) 0.25884(14) 0.89852(15)
H27_9 H 0.084122 0.253486 0.913560
C55_9 C 0.19289(17) 0.31062(13) 0.97975(14)
H28_9 H 0.185659 0.302412 0.999441
C56_9 C 0.17945(18) 0.30717(13) 0.86436(16)
H29_9 H 0.198572 0.312889 0.861902
C57_9 C 0.16450(19) 0.30101(14) 0.68302(17)
C58_9 C 0.31964(27) 0.34928(18) 0.7035(3)
C59_9 C 0.35011(36) 0.35695(19) 0.70012(18)
C60_9 C 0.03345(18) 0.25760(12) 0.87957(17)
C61_9 C 0.04802(21) 0.27566(14) 0.85534(15)
H30_9 H 0.039006 0.281701 0.841154
C62_9 C 0.22146(19) 0.33153(15) 0.97756(17)
C63_9 C 0.18589(19) 0.30675(13) 0.70829(16)
C64_9 C 0.16111(24) 0.29939(17) 0.83803(14)
C65_9 C 0.21415(20) 0.33697(15) 0.92245(15)
H31_9 H 0.221076 0.346593 0.903340
C66_9 C 0.31301(34) 0.35545(17) 0.7286(2)
H32_9 H 0.327290 0.366133 0.743112
C67_9 C 0.15094(20) 0.31159(15) 0.63189(15)
H33_9 H 0.156077 0.323454 0.614241
C68_9 C 0.13823(23) 0.28022(18) 0.68518(18)
H34_9 H 0.133041 0.269051 0.703408
O21_9 O 0.35384(21) 0.34651(14) 0.6744(2)
C69_9 C 0.19794(26) 0.30968(16) 0.76292(14)
C70_9 C 0.17110(19) 0.31670(14) 0.65550(17)
H35_9 H 0.189692 0.331283 0.652444
C71_9 C 0.11806(21) 0.27381(15) 0.6628(3)
H36_9 H 0.099794 0.258656 0.665989
C72_9 C 0.22561(21) 0.31816(14) 0.7560(2)
H37_9 H 0.238504 0.321134 0.772153
C73_9 C 0.23168(21) 0.34469(15) 0.9485(2)
H38_9 H 0.250595 0.358870 0.946521
C74_9 C 0.12443(21) 0.28986(17) 0.6345(2)
C75_9 C 0.13314(22) 0.28943(15) 0.84186(15)
H39_9 H 0.121484 0.283574 0.824009
C76_9 C 0.28520(26) 0.34744(17) 0.73684(16)
H40_9 H 0.281612 0.353018 0.756379
O22_9 O 0.21285(19) 0.31060(14) 0.81627(12)
C77_9 C 0.17826(18) 0.30380(13) 0.74144(18)
H41_9 H 0.159667 0.297828 0.747523
C78_9 C 0.04695(20) 0.24874(13) 0.90105(15)
H42_9 H 0.036583 0.235917 0.917061
C79_9 C 0.27030(23) 0.32296(15) 0.6894(2)
H43_9 H 0.256002 0.311407 0.675216
C80_9 C 0.29801(23) 0.33088(16) 0.68218(19)
H44_9 H 0.302415 0.324323 0.663837
Zn11_9 Zn 0.70889(4) 0.63681(2) 0.96296(2)
Zn15_9 Zn 0.45607(4) 0.38414(3) 0.75347(3)
O29_9 O 0.72369(16) 0.63497(10) 0.92040(9)
O31_9 O 0.40787(18) 0.34199(14) 0.69941(11)
H45_9 H 0.709488 0.610812 0.858753
H46_9 H 0.738688 0.609629 0.85732
H47_9 H 0.698363 0.543866 0.887583
H48_9 H 0.731923 0.557051 0.894916
O16_9 O 0.99134(14) 0.25880(9) 0.86608(11)
O18_9 O 0.98863(13) 0.23024(10) 0.90562(13)
O23_9 O 0.94803(26) 0.2143(2) 0.96870(18)
O24_9 O 0.95301(22) 0.17389(13) 0.9299(2)
Zn12_9 Zn 0.95778(4) 0.26125(3) 0.87037(2)
O30_9 O 0.94298(16) 0.24461(12) 0.91293(9)
H49_9 H 0.968304 0.178837 0.94575
H50_9 H 0.934744 0.158461 0.938418
H51_9 H 0.957179 0.234658 0.97458
H52_9 H 0.927979 0.204274 0.976013
O20_4 O 0.59861(11) 0.85329(9) 0.05317(12)
C50_10 C 0.61924(19) 0.84902(17) 0.0574(2)
C67_10 C 0.64492(15) 0.82731(13) 0.03478(15)
H33_10 H 0.656787 0.834043 0.052426
C70_10 C 0.65003(14) 0.81226(13) 0.01117(17)
H35_10 H 0.664616 0.808257 0.014223
C71_10 C 0.60714(15) 0.82241(15) 0.0039(3)
H36_10 H 0.591989 0.825528 0.000678
C74_10 C 0.62319(17) 0.83209(13) 0.0322(2)
H44_10 H 0.657656 0.688574 0.002830
O2_4 O 0.76453(9) 0.66047(11) 0.86535(13)
O5_4 O 0.75922(9) 0.69204(10) 0.83624(10)
O6_10 O 0.90827(9) 0.56357(10) 0.73895(13)
C1_10 C 0.76631(13) 0.67318(18) 0.8393(2)
O7_10 O 0.66923(15) 0.70618(12) 0.54622(13)
O8_7 O 0.85329(9) 0.59861(11) 0.44683(12)
C2_10 C 0.82347(11) 0.62871(11) 0.73110(12)
H1_10 H 0.829498 0.626790 0.751167
C3_10 C 0.91268(18) 0.58129(15) 0.71686(18)
C4_10 C 0.75482(14) 0.65557(12) 0.55776(16)
N1_10 N 0.78287(15) 0.64080(13) 0.63288(16)
C5_10 C 0.79333(11) 0.63502(12) 0.78718(14)
H2_10 H 0.797818 0.620682 0.789284
C6_10 C 0.85248(13) 0.61018(13) 0.70762(14)
C7_10 C 0.80507(12) 0.63927(12) 0.72848(14)
C8_10 C 0.73513(15) 0.66494(13) 0.55022(15)
C9_10 C 0.83314(13) 0.62092(12) 0.70456(14)
N2_10 N 0.79842(12) 0.63430(13) 0.63462(13)
C10_10 C 0.84902(17) 0.61924(19) 0.4426(2)
C11_10 C 0.79557(11) 0.64783(14) 0.75764(17)
C12_10 C 0.87470(15) 0.61809(13) 0.68580(13)
H3_10 H 0.876336 0.629811 0.668869
C13_10 C 0.76909(13) 0.64945(12) 0.53495(15)
H4_10 H 0.765967 0.651859 0.513727
C14_10 C 0.85035(13) 0.59217(14) 0.73185(15)
H5_10 H 0.836030 0.586819 0.746893
C15_10 C 0.78439(11) 0.64395(13) 0.81308(14)
H6_10 H 0.783419 0.635745 0.832774
C16_10 C 0.79438(13) 0.64050(13) 0.69769(16)
H7_10 H 0.780983 0.646222 0.695235
C17_10 C 0.80317(13) 0.63434(14) 0.51635(17)
C18_10 C 0.6963(2) 0.68261(18) 0.5368(3)
C19_10 C 0.6735(3) 0.69028(19) 0.53345(18)
C20_10 C 0.89081(13) 0.59093(12) 0.71290(17)
C21_10 C 0.89430(15) 0.60899(14) 0.68867(15)
H8_10 H 0.909361 0.615034 0.674487
C22_10 C 0.77673(11) 0.66486(15) 0.81089(17)
C23_10 C 0.78752(14) 0.64008(13) 0.54162(16)
C24_10 C 0.80494(17) 0.63272(17) 0.67136(14)
C25_10 C 0.78948(13) 0.67030(15) 0.75578(15)
H9_10 H 0.792183 0.679926 0.736673
C26_10 C 0.7091(3) 0.68878(17) 0.5619(2)
H10_10 H 0.705509 0.699466 0.576445
C27_10 C 0.82731(13) 0.64492(15) 0.46522(15)
H11_10 H 0.834043 0.656787 0.447574
C28_10 C 0.80865(15) 0.61355(18) 0.51851(18)
H12_10 H 0.802676 0.602384 0.536741
O9_10 O 0.65933(16) 0.67984(14) 0.5077(2)
C29_10 C 0.7784(2) 0.64301(16) 0.59625(14)
C30_10 C 0.81226(13) 0.65003(14) 0.48883(17)
H13_10 H 0.808257 0.664616 0.485777
C31_10 C 0.82241(15) 0.60714(15) 0.4961(3)
H14_10 H 0.825528 0.591989 0.499322
C32_10 C 0.75921(16) 0.65149(14) 0.5893(2)
H15_10 H 0.749296 0.654467 0.605486
C33_10 C 0.77967(14) 0.67802(15) 0.7818(2)
H16_10 H 0.774941 0.692203 0.779854
C34_10 C 0.83209(13) 0.62319(17) 0.4678(2)
C35_10 C 0.82295(16) 0.62276(15) 0.67519(15)
H17_10 H 0.828756 0.616907 0.657342
C36_10 C 0.7289(2) 0.68077(17) 0.57017(16)
H18_10 H 0.738072 0.686351 0.589712
O10_10 O 0.76441(13) 0.64393(14) 0.64960(12)
C37_10 C 0.79220(13) 0.63713(13) 0.57477(18)
H19_10 H 0.804827 0.631161 0.580856
C38_10 C 0.86845(15) 0.58207(13) 0.73438(15)
H20_10 H 0.866000 0.569250 0.750394
C39_10 C 0.71932(18) 0.65629(15) 0.5227(2)
H21_10 H 0.722071 0.644740 0.508549
O11_10 O 0.93290(16) 0.5476(2) 0.80203(18)
C40_10 C 0.69953(17) 0.66421(16) 0.51551(19)
H22_10 H 0.688574 0.657656 0.497170
O12_10 O 0.88754(18) 0.50722(13) 0.7632(2)
O14_7 O 0.66047(11) 0.76453(9) 0.63465(13)
O17_7 O 0.69204(10) 0.75922(9) 0.66376(10)
O18_10 O 0.56357(10) 0.90827(9) 0.76105(13)
C41_10 C 0.67318(18) 0.76631(13) 0.6607(2)
O19_10 O 0.70618(12) 0.66923(15) 0.95378(13)
C42_10 C 0.62871(11) 0.82347(11) 0.76890(12)
H23_10 H 0.626790 0.829498 0.748833
C43_10 C 0.58129(15) 0.91268(18) 0.78314(18)
C44_10 C 0.65557(12) 0.75482(14) 0.94224(16)
N3_10 N 0.64080(13) 0.78287(15) 0.86712(16)
C45_10 C 0.63502(12) 0.79333(11) 0.71282(14)
H24_10 H 0.620682 0.797818 0.710716
C46_10 C 0.61018(13) 0.85248(13) 0.79238(14)
C47_10 C 0.63927(12) 0.80507(12) 0.77152(14)
C48_10 C 0.66494(13) 0.73513(15) 0.94978(15)
C49_10 C 0.62092(12) 0.83314(13) 0.79544(14)
N4_10 N 0.63430(13) 0.79842(12) 0.86538(13)
C51_10 C 0.64783(14) 0.79557(11) 0.74236(17)
C52_10 C 0.61809(13) 0.87470(15) 0.81420(13)
H25_10 H 0.629811 0.876336 0.831131
C53_10 C 0.64945(12) 0.76909(13) 0.96505(15)
H26_10 H 0.651859 0.765967 0.986273
C54_10 C 0.59217(14) 0.85035(13) 0.76815(15)
H27_10 H 0.586819 0.836030 0.753107
C55_10 C 0.64395(13) 0.78439(11) 0.68692(14)
H28_10 H 0.635745 0.783419 0.667226
C56_10 C 0.64050(13) 0.79438(13) 0.80231(16)
H29_10 H 0.646222 0.780983 0.804765
C57_10 C 0.63434(14) 0.80317(13) 0.98365(17)
C58_10 C 0.68261(18) 0.6963(2) 0.9632(3)
C59_10 C 0.69028(19) 0.6735(3) 0.96655(18)
C60_10 C 0.59093(12) 0.89081(13) 0.78710(17)
C61_10 C 0.60899(14) 0.89430(15) 0.81133(15)
H30_10 H 0.615034 0.909361 0.825513
C62_10 C 0.66486(15) 0.77673(11) 0.68911(17)
C63_10 C 0.64008(13) 0.78752(14) 0.95838(16)
C64_10 C 0.63272(17) 0.80494(17) 0.82864(14)
C65_10 C 0.67030(15) 0.78948(13) 0.74422(15)
H31_10 H 0.679926 0.792183 0.763327
C66_10 C 0.68878(17) 0.7091(3) 0.9381(2)
H32_10 H 0.699466 0.705509 0.923555
C68_10 C 0.61355(18) 0.80865(15) 0.98149(18)
H34_10 H 0.602384 0.802676 0.963259
O21_10 O 0.67984(14) 0.65933(16) 0.9923(2)
C69_10 C 0.64301(16) 0.7784(2) 0.90375(14)
C72_10 C 0.65149(14) 0.75921(16) 0.9107(2)
H37_10 H 0.654467 0.749296 0.894514
C73_10 C 0.67802(15) 0.77967(14) 0.7182(2)
H38_10 H 0.692203 0.774941 0.720146
C75_10 C 0.62276(15) 0.82295(16) 0.82481(15)
H39_10 H 0.616907 0.828756 0.842658
C76_10 C 0.68077(17) 0.7289(2) 0.92983(16)
H40_10 H 0.686351 0.738072 0.910288
O22_10 O 0.64393(14) 0.76441(13) 0.85040(12)
C77_10 C 0.63713(13) 0.79220(13) 0.92523(18)
H41_10 H 0.631161 0.804827 0.919144
C78_10 C 0.58207(13) 0.86845(15) 0.76562(15)
H42_10 H 0.569250 0.866000 0.749606
C79_10 C 0.65629(15) 0.71932(18) 0.9773(2)
H43_10 H 0.644740 0.722071 0.991451
O23_10 O 0.5476(2) 0.93290(16) 0.69797(18)
C80_10 C 0.66421(16) 0.69953(17) 0.98449(19)
O24_10 O 0.50722(13) 0.88754(18) 0.7368(2)
O27_10 O 0.67286(11) 0.77073(14) 0.53202(13)
O33_7 O 0.64129(10) 0.73385(13) 0.50291(10)
O34_4 O 0.73385(13) 0.64129(10) 0.99709(10)
O35_7 O 0.93194(11) 0.51996(9) 0.71984(12)
O36_4 O 0.51996(9) 0.93194(11) 0.78016(12)
H45_10 H 0.944146 0.567991 0.807913
H46_10 H 0.942962 0.537608 0.809346
H47_10 H 0.8772 0.51217 0.779083
H48_10 H 0.890384 0.491795 0.771751
H49_10 H 0.51217 0.8772 0.720917
H50_10 H 0.491795 0.890384 0.728249
H51_10 H 0.567991 0.944146 0.692087
H52_10 H 0.537608 0.942962 0.690654
O2_5 O 0.33953(11) 0.10406(14) 0.86535(13)
O5_5 O 0.30796(10) 0.06718(13) 0.83624(10)
O6_11 O 0.43643(10) 0.34470(13) 0.73895(13)
C1_11 C 0.32682(18) 0.09313(22) 0.8393(2)
O8_8 O 0.40139(11) 0.25468(14) 0.44683(12)
C2_11 C 0.37129(11) 0.19476(16) 0.73110(12)
H1_11 H 0.373210 0.202708 0.751167
C3_11 C 0.41871(15) 0.33139(23) 0.71686(18)
C4_11 C 0.34443(12) 0.09925(18) 0.55776(16)
N1_11 N 0.35920(13) 0.14207(20) 0.63288(16)
C5_11 C 0.36498(12) 0.15831(16) 0.78718(14)
H2_11 H 0.379318 0.177136 0.789284
C6_11 C 0.38982(13) 0.24230(18) 0.70762(14)
C7_11 C 0.36073(12) 0.16580(17) 0.72848(14)
C8_11 C 0.33506(13) 0.07019(20) 0.55022(15)
C9_11 C 0.37908(12) 0.21222(18) 0.70456(14)
N2_11 N 0.36570(13) 0.16412(18) 0.63462(13)
C10_11 C 0.38076(19) 0.22978(25) 0.4426(2)
C11_11 C 0.35217(14) 0.14774(18) 0.75764(17)
C12_11 C 0.38191(13) 0.25661(20) 0.68580(13)
H3_11 H 0.370189 0.246525 0.668869
C13_11 C 0.35055(12) 0.11964(18) 0.53495(15)
H4_11 H 0.348141 0.114108 0.513727
C14_11 C 0.40783(14) 0.25818(19) 0.73185(15)
H5_11 H 0.413181 0.249211 0.746893
C15_11 C 0.35605(13) 0.14044(17) 0.81308(14)
H6_11 H 0.364255 0.147674 0.832774
C16_11 C 0.35950(13) 0.15388(18) 0.69769(16)
H7_11 H 0.353778 0.134761 0.695235
C17_11 C 0.36566(14) 0.16883(19) 0.51635(17)
C18_11 C 0.31739(18) 0.01369(27) 0.5368(3)
C20_11 C 0.40907(12) 0.29988(18) 0.71290(17)
C21_11 C 0.39101(14) 0.28531(21) 0.68867(15)
H8_11 H 0.384966 0.294327 0.674487
C22_11 C 0.33514(15) 0.11187(19) 0.81089(17)
C23_11 C 0.35992(13) 0.14744(19) 0.54162(16)
C24_11 C 0.36728(17) 0.17222(24) 0.67136(14)
C25_11 C 0.32970(15) 0.11918(20) 0.75578(15)
H9_11 H 0.320074 0.112257 0.736673
C26_11 C 0.31122(17) 0.02032(34) 0.5619(2)
H10_11 H 0.300534 0.006043 0.576445
C27_11 C 0.35508(15) 0.18239(20) 0.46522(15)
H11_11 H 0.343213 0.177256 0.447574
C28_11 C 0.38645(18) 0.19510(23) 0.51851(18)
H12_11 H 0.397616 0.200292 0.536741
C29_11 C 0.35699(16) 0.13539(26) 0.59625(14)
C30_11 C 0.34997(14) 0.16223(19) 0.48883(17)
H13_11 H 0.335384 0.143641 0.485777
C31_11 C 0.39286(15) 0.21527(21) 0.4961(3)
H14_11 H 0.408011 0.233539 0.499322
C32_11 C 0.34851(14) 0.10772(21) 0.5893(2)
H15_11 H 0.345533 0.094829 0.605486
C33_11 C 0.32198(15) 0.10165(21) 0.7818(2)
H16_11 H 0.307797 0.082738 0.779854
C34_11 C 0.37681(17) 0.20890(21) 0.4678(2)
C35_11 C 0.37724(15) 0.20019(22) 0.67519(15)
H17_11 H 0.383093 0.211849 0.657342
C36_11 C 0.31923(17) 0.04813(26) 0.57017(16)
H18_11 H 0.313649 0.051721 0.589712
O10_11 O 0.35607(14) 0.12048(19) 0.64960(12)
C37_11 C 0.36287(13) 0.15507(18) 0.57477(18)
H19_11 H 0.368839 0.173666 0.580856
C38_11 C 0.41793(13) 0.28638(20) 0.73438(15)
H20_11 H 0.430750 0.296750 0.750394
C39_11 C 0.34371(15) 0.06303(23) 0.5227(2)
H21_11 H 0.355260 0.077331 0.508549
O11_11 O 0.4524(2) 0.38530(26) 0.80203(18)
C40_11 C 0.33579(16) 0.03532(23) 0.51551(19)
H22_11 H 0.342344 0.030918 0.497170
O12_11 O 0.49278(13) 0.38032(22) 0.7632(2)
O19_11 O 0.33077(15) 0.03695(19) 0.95378(13)
C59_11 C 0.3265(3) 0.01678(36) 0.96655(18)
O21_11 O 0.34067(16) 0.02051(21) 0.9923(2)
O34_5 O 0.35871(10) 0.09255(16) 0.99709(10)
O35_8 O 0.48004(9) 0.41199(14) 0.71984(12)
H45_11 H 0.432009 0.376154 0.807913
H46_11 H 0.462392 0.405354 0.809346
H47_11 H 0.48783 0.365029 0.779083
H48_11 H 0.508205 0.398589 0.771751
O20_5 O 0.14671(9) 0.74532(14) 0.05317(12)
C50_11 C 0.15098(17) 0.77022(25) 0.0574(2)
C67_11 C 0.17269(13) 0.81761(20) 0.03478(15)
H33_11 H 0.165957 0.822744 0.052426
C70_11 C 0.18774(13) 0.83777(19) 0.01117(17)
H35_11 H 0.191743 0.856359 0.014223
C71_11 C 0.17759(15) 0.78473(21) 0.0039(3)
H36_11 H 0.174472 0.766461 0.000678
C74_11 C 0.16791(13) 0.79110(21) 0.0322(2)
H44_11 H 0.311426 0.969082 0.002830
O7_11 O 0.29382(12) 0.96305(19) 0.54622(13)
C19_11 C 0.30972(19) 0.98322(36) 0.53345(18)
O9_11 O 0.32016(14) 0.97949(21) 0.5077(2)
O14_8 O 0.23547(9) 0.89594(14) 0.63465(13)
O17_8 O 0.24078(9) 0.93282(13) 0.66376(10)
O18_11 O 0.09173(9) 0.65530(13) 0.76105(13)
C41_11 C 0.23369(13) 0.90687(22) 0.6607(2)
C42_11 C 0.17653(11) 0.80524(16) 0.76890(12)
H23_11 H 0.170502 0.797292 0.748833
C43_11 C 0.08732(18) 0.66861(23) 0.78314(18)
C44_11 C 0.24518(14) 0.90075(18) 0.94224(16)
N3_11 N 0.21713(15) 0.85793(20) 0.86712(16)
C45_11 C 0.20667(11) 0.84169(16) 0.71282(14)
H24_11 H 0.202182 0.822864 0.710716
C46_11 C 0.14752(13) 0.75770(18) 0.79238(14)
C47_11 C 0.19493(12) 0.83420(17) 0.77152(14)
C48_11 C 0.26487(15) 0.92981(20) 0.94978(15)
C49_11 C 0.16686(13) 0.78778(18) 0.79544(14)
N4_11 N 0.20158(12) 0.83588(18) 0.86538(13)
C51_11 C 0.20443(11) 0.85226(18) 0.74236(17)
C52_11 C 0.12530(15) 0.74339(20) 0.81420(13)
H25_11 H 0.123664 0.753475 0.831131
C53_11 C 0.23091(13) 0.88036(18) 0.96505(15)
H26_11 H 0.234033 0.885892 0.986273
C54_11 C 0.14965(13) 0.74182(19) 0.76815(15)
H27_11 H 0.163970 0.750789 0.753107
C55_11 C 0.21561(11) 0.85956(17) 0.68692(14)
H28_11 H 0.216581 0.852326 0.667226
C56_11 C 0.20562(13) 0.84612(18) 0.80231(16)
H29_11 H 0.219017 0.865239 0.804765
C57_11 C 0.19683(13) 0.83117(19) 0.98365(17)
C58_11 C 0.3037(2) 0.98631(27) 0.9632(3)
C60_11 C 0.10919(13) 0.70012(18) 0.78710(17)
C61_11 C 0.10570(15) 0.71469(21) 0.81133(15)
H30_11 H 0.090639 0.705673 0.825513
C62_11 C 0.22327(11) 0.88813(19) 0.68911(17)
C63_11 C 0.21248(14) 0.85256(19) 0.95838(16)
C64_11 C 0.19506(17) 0.82778(24) 0.82864(14)
C65_11 C 0.21052(13) 0.88082(20) 0.74422(15)
H31_11 H 0.207817 0.887743 0.763327
C66_11 C 0.2909(3) 0.97968(34) 0.9381(2)
H32_11 H 0.294491 0.993957 0.923555
C68_11 C 0.19135(15) 0.80490(23) 0.98149(18)
H34_11 H 0.197324 0.799708 0.963259
C69_11 C 0.2216(2) 0.86461(26) 0.90375(14)
C72_11 C 0.24079(16) 0.89228(21) 0.9107(2)
H37_11 H 0.250704 0.905171 0.894514
C73_11 C 0.22033(14) 0.89835(21) 0.7182(2)
H38_11 H 0.225059 0.917262 0.720146
C75_11 C 0.17705(16) 0.79981(22) 0.82481(15)
H39_11 H 0.171244 0.788151 0.842658
C76_11 C 0.2711(2) 0.95187(26) 0.92983(16)
H40_11 H 0.261928 0.948279 0.910288
O22_11 O 0.23559(13) 0.87952(19) 0.85040(12)
C77_11 C 0.20780(13) 0.84493(18) 0.92523(18)
H41_11 H 0.195173 0.826334 0.919144
C78_11 C 0.13155(15) 0.71362(20) 0.76562(15)
H42_11 H 0.134000 0.703250 0.749606
C79_11 C 0.28068(18) 0.93697(23) 0.9773(2)
H43_11 H 0.277929 0.922669 0.991451
O23_11 O 0.06710(16) 0.61470(26) 0.69797(18)
C80_11 C 0.30047(17) 0.96468(23) 0.98449(19)
O24_11 O 0.11246(18) 0.61968(22) 0.7368(2)
O27_11 O 0.22927(14) 0.90214(18) 0.53202(13)
O33_8 O 0.26615(13) 0.90745(16) 0.50291(10)
O36_5 O 0.06806(11) 0.58801(14) 0.78016(12)
H49_11 H 0.1228 0.634971 0.720917
H50_11 H 0.109616 0.601411 0.728249
H51_11 H 0.0558542 0.623846 0.692087
H52_11 H 0.0570381 0.594646 0.690654
O20_6 O 0.25468(14) 0.40139(11) 0.05317(12)
C50_12 C 0.22978(25) 0.38076(19) 0.0574(2)
C67_12 C 0.18239(20) 0.35508(15) 0.03478(15)
H33_12 H 0.177256 0.343213 0.052426
C70_12 C 0.16223(19) 0.34997(14) 0.01117(17)
H35_12 H 0.143641 0.335384 0.014223
C71_12 C 0.21527(21) 0.39286(15) 0.0039(3)
H36_12 H 0.233539 0.408011 0.000678
C74_12 C 0.20890(21) 0.37681(17) 0.0322(2)
H44_12 H 0.030918 0.342344 0.002830
O7_12 O 0.03695(19) 0.33077(15) 0.54622(13)
C19_12 C 0.01678(36) 0.3265(3) 0.53345(18)
O9_12 O 0.02051(21) 0.34067(16) 0.5077(2)
O14_9 O 0.10406(14) 0.33953(11) 0.63465(13)
O17_9 O 0.06718(13) 0.30796(10) 0.66376(10)
O18_12 O 0.34470(13) 0.43643(10) 0.76105(13)
C41_12 C 0.09313(22) 0.32682(18) 0.6607(2)
C42_12 C 0.19476(16) 0.37129(11) 0.76890(12)
H23_12 H 0.202708 0.373210 0.748833
C43_12 C 0.33139(23) 0.41871(15) 0.78314(18)
C44_12 C 0.09925(18) 0.34443(12) 0.94224(16)
N3_12 N 0.14207(20) 0.35920(13) 0.86712(16)
C45_12 C 0.15831(16) 0.36498(12) 0.71282(14)
H24_12 H 0.177136 0.379318 0.710716
C46_12 C 0.24230(18) 0.38982(13) 0.79238(14)
C47_12 C 0.16580(17) 0.36073(12) 0.77152(14)
C48_12 C 0.07019(20) 0.33506(13) 0.94978(15)
C49_12 C 0.21222(18) 0.37908(12) 0.79544(14)
N4_12 N 0.16412(18) 0.36570(13) 0.86538(13)
C51_12 C 0.14774(18) 0.35217(14) 0.74236(17)
C52_12 C 0.25661(20) 0.38191(13) 0.81420(13)
H25_12 H 0.246525 0.370189 0.831131
C53_12 C 0.11964(18) 0.35055(12) 0.96505(15)
H26_12 H 0.114108 0.348141 0.986273
C54_12 C 0.25818(19) 0.40783(14) 0.76815(15)
H27_12 H 0.249211 0.413181 0.753107
C55_12 C 0.14044(17) 0.35605(13) 0.68692(14)
H28_12 H 0.147674 0.364255 0.667226
C56_12 C 0.15388(18) 0.35950(13) 0.80231(16)
H29_12 H 0.134761 0.353778 0.804765
C57_12 C 0.16883(19) 0.36566(14) 0.98365(17)
C58_12 C 0.01369(27) 0.31739(18) 0.9632(3)
C60_12 C 0.29988(18) 0.40907(12) 0.78710(17)
C61_12 C 0.28531(21) 0.39101(14) 0.81133(15)
H30_12 H 0.294327 0.384966 0.825513
C62_12 C 0.11187(19) 0.33514(15) 0.68911(17)
C63_12 C 0.14744(19) 0.35992(13) 0.95838(16)
C64_12 C 0.17222(24) 0.36728(17) 0.82864(14)
C65_12 C 0.11918(20) 0.32970(15) 0.74422(15)
H31_12 H 0.112257 0.320074 0.763327
C66_12 C 0.02032(34) 0.31122(17) 0.9381(2)
H32_12 H 0.006043 0.300534 0.923555
C68_12 C 0.19510(23) 0.38645(18) 0.98149(18)
H34_12 H 0.200292 0.397616 0.963259
C69_12 C 0.13539(26) 0.35699(16) 0.90375(14)
C72_12 C 0.10772(21) 0.34851(14) 0.9107(2)
H37_12 H 0.094829 0.345533 0.894514
C73_12 C 0.10165(21) 0.32198(15) 0.7182(2)
H38_12 H 0.082738 0.307797 0.720146
C75_12 C 0.20019(22) 0.37724(15) 0.82481(15)
H39_12 H 0.211849 0.383093 0.842658
C76_12 C 0.04813(26) 0.31923(17) 0.92983(16)
H40_12 H 0.051721 0.313649 0.910288
O22_12 O 0.12048(19) 0.35607(14) 0.85040(12)
C77_12 C 0.15507(18) 0.36287(13) 0.92523(18)
H41_12 H 0.173666 0.368839 0.919144
C78_12 C 0.28638(20) 0.41793(13) 0.76562(15)
H42_12 H 0.296750 0.430750 0.749606
C79_12 C 0.06303(23) 0.34371(15) 0.9773(2)
H43_12 H 0.077331 0.355260 0.991451
O23_12 O 0.38530(26) 0.4524(2) 0.69797(18)
C80_12 C 0.03532(23) 0.33579(16) 0.98449(19)
O24_12 O 0.38032(22) 0.49278(13) 0.7368(2)
O27_12 O 0.09786(18) 0.32714(11) 0.53202(13)
O33_9 O 0.09255(16) 0.35871(10) 0.50291(10)
O36_6 O 0.41199(14) 0.48004(9) 0.78016(12)
H49_12 H 0.365029 0.48783 0.720917
H50_12 H 0.398589 0.508205 0.728249
H51_12 H 0.376154 0.432009 0.692087
H52_12 H 0.405354 0.462392 0.690654
O2_6 O 0.89594(14) 0.23547(9) 0.86535(13)
O5_6 O 0.93282(13) 0.24078(9) 0.83624(10)
O6_12 O 0.65530(13) 0.09173(9) 0.73895(13)
C1_12 C 0.90687(22) 0.23369(13) 0.8393(2)
O8_9 O 0.74532(14) 0.14671(9) 0.44683(12)
C2_12 C 0.80524(16) 0.17653(11) 0.73110(12)
H1_12 H 0.797292 0.170502 0.751167
C3_12 C 0.66861(23) 0.08732(18) 0.71686(18)
C4_12 C 0.90075(18) 0.24518(14) 0.55776(16)
N1_12 N 0.85793(20) 0.21713(15) 0.63288(16)
C5_12 C 0.84169(16) 0.20667(11) 0.78718(14)
H2_12 H 0.822864 0.202182 0.789284
C6_12 C 0.75770(18) 0.14752(13) 0.70762(14)
C7_12 C 0.83420(17) 0.19493(12) 0.72848(14)
C8_12 C 0.92981(20) 0.26487(15) 0.55022(15)
C9_12 C 0.78778(18) 0.16686(13) 0.70456(14)
N2_12 N 0.83588(18) 0.20158(12) 0.63462(13)
C10_12 C 0.77022(25) 0.15098(17) 0.4426(2)
C11_12 C 0.85226(18) 0.20443(11) 0.75764(17)
C12_12 C 0.74339(20) 0.12530(15) 0.68580(13)
H3_12 H 0.753475 0.123664 0.668869
C13_12 C 0.88036(18) 0.23091(13) 0.53495(15)
H4_12 H 0.885892 0.234033 0.513727
C14_12 C 0.74182(19) 0.14965(13) 0.73185(15)
H5_12 H 0.750789 0.163970 0.746893
C15_12 C 0.85956(17) 0.21561(11) 0.81308(14)
H6_12 H 0.852326 0.216581 0.832774
C16_12 C 0.84612(18) 0.20562(13) 0.69769(16)
H7_12 H 0.865239 0.219017 0.695235
C17_12 C 0.83117(19) 0.19683(13) 0.51635(17)
C18_12 C 0.98631(27) 0.3037(2) 0.5368(3)
C20_12 C 0.70012(18) 0.10919(13) 0.71290(17)
C21_12 C 0.71469(21) 0.10570(15) 0.68867(15)
H8_12 H 0.705673 0.090639 0.674487
C22_12 C 0.88813(19) 0.22327(11) 0.81089(17)
C23_12 C 0.85256(19) 0.21248(14) 0.54162(16)
C24_12 C 0.82778(24) 0.19506(17) 0.67136(14)
C25_12 C 0.88082(20) 0.21052(13) 0.75578(15)
H9_12 H 0.887743 0.207817 0.736673
C26_12 C 0.97968(34) 0.2909(3) 0.5619(2)
H10_12 H 0.993957 0.294491 0.576445
C27_12 C 0.81761(20) 0.17269(13) 0.46522(15)
H11_12 H 0.822744 0.165957 0.447574
C28_12 C 0.80490(23) 0.19135(15) 0.51851(18)
H12_12 H 0.799708 0.197324 0.536741
C29_12 C 0.86461(26) 0.2216(2) 0.59625(14)
C30_12 C 0.83777(19) 0.18774(13) 0.48883(17)
H13_12 H 0.856359 0.191743 0.485777
C31_12 C 0.78473(21) 0.17759(15) 0.4961(3)
H14_12 H 0.766461 0.174472 0.499322
C32_12 C 0.89228(21) 0.24079(16) 0.5893(2)
H15_12 H 0.905171 0.250704 0.605486
C33_12 C 0.89835(21) 0.22033(14) 0.7818(2)
H16_12 H 0.917262 0.225059 0.779854
C34_12 C 0.79110(21) 0.16791(13) 0.4678(2)
C35_12 C 0.79981(22) 0.17705(16) 0.67519(15)
H17_12 H 0.788151 0.171244 0.657342
C36_12 C 0.95187(26) 0.2711(2) 0.57017(16)
H18_12 H 0.948279 0.261928 0.589712
O10_12 O 0.87952(19) 0.23559(13) 0.64960(12)
C37_12 C 0.84493(18) 0.20780(13) 0.57477(18)
H19_12 H 0.826334 0.195173 0.580856
C38_12 C 0.71362(20) 0.13155(15) 0.73438(15)
H20_12 H 0.703250 0.134000 0.750394
C39_12 C 0.93697(23) 0.28068(18) 0.5227(2)
H21_12 H 0.922669 0.277929 0.508549
O11_12 O 0.61470(26) 0.06710(16) 0.80203(18)
C40_12 C 0.96468(23) 0.30047(17) 0.51551(19)
H22_12 H 0.969082 0.311426 0.497170
O12_12 O 0.61968(22) 0.11246(18) 0.7632(2)
O19_12 O 0.96305(19) 0.29382(12) 0.95378(13)
C59_12 C 0.98322(36) 0.30972(19) 0.96655(18)
O21_12 O 0.97949(21) 0.32016(14) 0.9923(2)
O34_6 O 0.90745(16) 0.26615(13) 0.99709(10)
O35_9 O 0.58801(14) 0.06806(11) 0.71984(12)
H45_12 H 0.623846 0.0558542 0.807913
H46_12 H 0.594646 0.0570381 0.809346
H47_12 H 0.634971 0.1228 0.779083
H48_12 H 0.601411 0.109616 0.771751
O27_13 O 0.77073(14) 0.67286(11) 0.96798(13)
O27_14 O 0.90214(18) 0.22927(14) 0.96798(13)
O27_15 O 0.32714(11) 0.09786(18) 0.96798(13)
O6_13 O 0.24160(9) 0.23024(10) 0.40562(13)
C1_13 C 0.09964(13) 0.33985(18) 0.5060(2)
O7_13 O 0.00256(15) 0.37285(12) 0.21289(13)
O8_10 O 0.18662(9) 0.26528(11) 0.11350(12)
C2_13 C 0.15680(11) 0.29538(11) 0.39777(12)
H1_13 H 0.162831 0.293457 0.417834
C3_13 C 0.24601(18) 0.24796(15) 0.38353(18)
C4_13 C 0.08815(14) 0.32224(12) 0.22443(16)
N1_13 N 0.11620(15) 0.30747(13) 0.29955(16)
C5_13 C 0.12666(11) 0.30169(12) 0.45385(14)
H2_13 H 0.131151 0.287349 0.455951
C6_13 C 0.18581(13) 0.27685(13) 0.37429(14)
C7_13 C 0.13840(12) 0.30594(12) 0.39515(14)
C8_13 C 0.06846(15) 0.33161(13) 0.21689(15)
C9_13 C 0.16647(13) 0.28759(12) 0.37123(14)
N2_13 N 0.13175(12) 0.30097(13) 0.30129(13)
C10_13 C 0.18235(17) 0.28591(19) 0.1093(2)
C11_13 C 0.12890(11) 0.31450(14) 0.42431(17)
C12_13 C 0.20803(15) 0.28476(13) 0.35247(13)
H3_13 H 0.209669 0.296478 0.335536
C13_13 C 0.10242(13) 0.31612(12) 0.20162(15)
H4_13 H 0.099300 0.318526 0.180394
C14_13 C 0.18368(13) 0.25884(14) 0.39852(15)
H5_13 H 0.169363 0.253486 0.413560
C15_13 C 0.11772(11) 0.31062(13) 0.47975(14)
H6_13 H 0.116752 0.302412 0.499441
C16_13 C 0.12771(13) 0.30717(13) 0.36436(16)
H7_13 H 0.114316 0.312889 0.361902
C17_13 C 0.13650(13) 0.30101(14) 0.18302(17)
C18_13 C 0.0296(2) 0.34928(18) 0.2035(3)
C19_13 C 0.0068(3) 0.35695(19) 0.20012(18)
C20_13 C 0.22414(13) 0.25760(12) 0.37957(17)
C21_13 C 0.22763(15) 0.27566(14) 0.35534(15)
H8_13 H 0.242694 0.281701 0.341154
C22_13 C 0.11006(11) 0.33153(15) 0.47756(17)
C23_13 C 0.12085(14) 0.30675(13) 0.20829(16)
C24_13 C 0.13827(17) 0.29939(17) 0.33803(14)
C25_13 C 0.12281(13) 0.33697(15) 0.42245(15)
H9_13 H 0.125516 0.346593 0.403340
C26_13 C 0.0424(3) 0.35545(17) 0.2286(2)
H10_13 H 0.038842 0.366133 0.243112
C27_13 C 0.16064(13) 0.31159(15) 0.13189(15)
H11_13 H 0.167376 0.323454 0.114241
C28_13 C 0.14198(15) 0.28022(18) 0.18518(18)
H12_13 H 0.136009 0.269051 0.203408
C29_13 C 0.1117(2) 0.30968(16) 0.26292(14)
C30_13 C 0.14559(13) 0.31670(14) 0.15550(17)
H13_13 H 0.141590 0.331283 0.152444
C31_13 C 0.15574(15) 0.27381(15) 0.1628(3)
H14_13 H 0.158861 0.258656 0.165989
C32_13 C 0.09254(16) 0.31816(14) 0.2560(2)
H15_13 H 0.082629 0.321134 0.272153
C33_13 C 0.11300(14) 0.34469(15) 0.4485(2)
H16_13 H 0.108274 0.358870 0.446521
C34_13 C 0.16542(13) 0.28986(17) 0.1345(2)
C35_13 C 0.15628(16) 0.28943(15) 0.34186(15)
H17_13 H 0.162089 0.283574 0.324009
C36_13 C 0.0622(2) 0.34744(17) 0.23684(16)
H18_13 H 0.071405 0.353018 0.256379
O10_13 O 0.09774(13) 0.31060(14) 0.31627(12)
C37_13 C 0.12553(13) 0.30380(13) 0.24144(18)
H19_13 H 0.138160 0.297828 0.247523
C38_13 C 0.20178(15) 0.24874(13) 0.40105(15)
H20_13 H 0.199333 0.235917 0.417061
C39_13 C 0.05265(18) 0.32296(15) 0.1894(2)
H21_13 H 0.055404 0.311407 0.175216
O11_13 O 0.26623(16) 0.2143(2) 0.46870(18)
C40_13 C 0.03286(17) 0.33088(16) 0.18218(19)
H22_13 H 0.021907 0.324323 0.163837
O12_13 O 0.22087(18) 0.17389(13) 0.4299(2)
O17_10 O 0.02537(10) 0.42589(9) 0.33043(10)
C41_13 C 0.00651(18) 0.43298(13) 0.3274(2)
O19_13 O 0.03951(12) 0.33590(15) 0.62045(13)
C58_13 C 0.01594(18) 0.3630(2) 0.6299(3)
C59_13 C 0.02361(19) 0.3402(3) 0.63322(18)
C65_13 C 0.00363(15) 0.45615(13) 0.41089(15)
H31_13 H 0.013259 0.458850 0.429994
C66_13 C 0.02211(17) 0.3758(3) 0.6048(2)
H32_13 H 0.032799 0.372176 0.590222
O21_13 O 0.01317(14) 0.32600(16) 0.6590(2)
C73_13 C 0.01135(15) 0.44634(14) 0.3849(2)
H38_13 H 0.025536 0.441608 0.386813
C76_13 C 0.01410(17) 0.3956(2) 0.59650(16)
H40_13 H 0.019684 0.404739 0.576955
O27_16 O 0.00620(11) 0.43739(14) 0.19868(13)
O35_10 O 0.26528(11) 0.18662(9) 0.38650(12)
H45_13 H 0.277479 0.234658 0.47458
H46_13 H 0.276295 0.204274 0.476013
H47_13 H 0.210533 0.178837 0.44575
H48_13 H 0.223717 0.158461 0.438418
O9_13 O 0.99266(16) 0.34651(14) 0.1744(2)
O14_10 O 0.99380(11) 0.43120(9) 0.30132(13)
O18_13 O 0.89690(10) 0.57494(9) 0.42772(13)
C42_13 C 0.96204(11) 0.49014(11) 0.43557(12)
H23_13 H 0.960123 0.496165 0.415500
C43_13 C 0.91462(15) 0.57935(18) 0.44981(18)
C44_13 C 0.98890(12) 0.42149(14) 0.60891(16)
N3_13 N 0.97413(13) 0.44954(15) 0.53379(16)
C45_13 C 0.96835(12) 0.46000(11) 0.37949(14)
H24_13 H 0.954015 0.464485 0.377383
C46_13 C 0.94351(13) 0.51915(13) 0.45905(14)
C47_13 C 0.97260(12) 0.47174(12) 0.43819(14)
C48_13 C 0.99827(13) 0.40180(15) 0.61645(15)
C49_13 C 0.95425(12) 0.49981(13) 0.46211(14)
N4_13 N 0.96763(13) 0.46509(12) 0.53205(13)
C50_13 C 0.95257(19) 0.51569(17) 0.7241(2)
C51_13 C 0.98116(14) 0.46224(11) 0.40903(17)
C52_13 C 0.95142(13) 0.54137(15) 0.48087(13)
H25_13 H 0.963144 0.543003 0.497798
C53_13 C 0.98278(12) 0.43576(13) 0.63172(15)
H26_13 H 0.985192 0.432634 0.652940
C54_13 C 0.92550(14) 0.51702(13) 0.43482(15)
H27_13 H 0.920152 0.502697 0.419774
C55_13 C 0.97728(13) 0.45106(11) 0.35359(14)
H28_13 H 0.969078 0.450086 0.333893
C56_13 C 0.97383(13) 0.46105(13) 0.46898(16)
H29_13 H 0.979555 0.447650 0.471432
C57_13 C 0.96767(14) 0.46984(13) 0.65032(17)
C60_13 C 0.92426(12) 0.55748(13) 0.45377(17)
C61_13 C 0.94232(14) 0.56097(15) 0.47800(15)
H30_13 H 0.948367 0.576028 0.492180
C62_13 C 0.99819(15) 0.44340(11) 0.35578(17)
C63_13 C 0.97341(13) 0.45419(14) 0.62505(16)
C64_13 C 0.96605(17) 0.47161(17) 0.49531(14)
C67_13 C 0.97825(15) 0.49398(13) 0.70145(15)
H33_13 H 0.990120 0.500710 0.719093
C68_13 C 0.94688(18) 0.47532(15) 0.64816(18)
H34_13 H 0.935717 0.469343 0.629926
C69_13 C 0.97634(16) 0.4451(2) 0.57042(14)
C70_13 C 0.98336(14) 0.47893(13) 0.67784(17)
H35_13 H 0.997949 0.474924 0.680890
C71_13 C 0.94047(15) 0.48908(15) 0.6706(3)
H36_13 H 0.925322 0.492195 0.667345
C72_13 C 0.98482(14) 0.42588(16) 0.5774(2)
H37_13 H 0.987800 0.415963 0.561181
C74_13 C 0.95652(17) 0.49876(13) 0.6989(2)
C75_13 C 0.95609(15) 0.48962(16) 0.49148(15)
H39_13 H 0.950240 0.495423 0.509325
O22_13 O 0.97726(14) 0.43108(13) 0.51707(12)
C77_13 C 0.97046(13) 0.45887(13) 0.59190(18)
H41_13 H 0.964494 0.471494 0.585811
C78_13 C 0.91540(13) 0.53512(15) 0.43229(15)
H42_13 H 0.902583 0.532667 0.416273
C79_13 C 0.98962(15) 0.38599(18) 0.6440(2)
H43_13 H 0.978073 0.388738 0.658118
O23_13 O 0.8809(2) 0.59957(16) 0.36464(18)
C80_13 C 0.99754(16) 0.36620(17) 0.65116(19)
H44_13 H 0.990989 0.355241 0.669497
O24_13 O 0.84055(13) 0.55421(18) 0.4035(2)
O33_10 O 0.97463(10) 0.40051(13) 0.16957(10)
H49_13 H 0.845504 0.543866 0.387583
H50_13 H 0.825128 0.557051 0.394916
H51_13 H 0.901325 0.610812 0.358753
H52_13 H 0.870941 0.609629 0.35732
O6_14 O 0.76976(10) 0.01137(13) 0.40562(13)
O11_14 O 0.7857(2) 0.05197(26) 0.46870(18)
O12_14 O 0.82611(13) 0.04699(22) 0.4299(2)
O35_11 O 0.81338(9) 0.07865(14) 0.38650(12)
H45_14 H 0.765342 0.0428211 0.47458
H46_14 H 0.795726 0.0720209 0.476013
H47_14 H 0.821163 0.031696 0.44575
H48_14 H 0.841539 0.065256 0.438418
C1_14 C 0.66015(18) 0.75980(22) 0.5060(2)
O7_14 O 0.62715(12) 0.62972(19) 0.21289(13)
O8_11 O 0.73472(11) 0.92135(14) 0.11350(12)
C2_14 C 0.70462(11) 0.86143(16) 0.39777(12)
H1_14 H 0.706543 0.869375 0.417834
C3_14 C 0.75204(15) 0.99806(23) 0.38353(18)
C4_14 C 0.67776(12) 0.76592(18) 0.22443(16)
N1_14 N 0.69253(13) 0.80874(20) 0.29955(16)
C5_14 C 0.69831(12) 0.82498(16) 0.45385(14)
H2_14 H 0.712651 0.843803 0.455951
C6_14 C 0.72315(13) 0.90897(18) 0.37429(14)
C7_14 C 0.69406(12) 0.83247(17) 0.39515(14)
C8_14 C 0.66839(13) 0.73686(20) 0.21689(15)
C9_14 C 0.71241(12) 0.87889(18) 0.37123(14)
N2_14 N 0.69903(13) 0.83079(18) 0.30129(13)
C10_14 C 0.71409(19) 0.89645(25) 0.1093(2)
C11_14 C 0.68550(14) 0.81441(18) 0.42431(17)
C12_14 C 0.71524(13) 0.92328(20) 0.35247(13)
H3_14 H 0.703522 0.913192 0.335536
C13_14 C 0.68388(12) 0.78631(18) 0.20162(15)
H4_14 H 0.681474 0.780775 0.180394
C14_14 C 0.74116(14) 0.92485(19) 0.39852(15)
H5_14 H 0.746514 0.915878 0.413560
C15_14 C 0.68938(13) 0.80711(17) 0.47975(14)
H6_14 H 0.697588 0.814341 0.499441
C16_14 C 0.69283(13) 0.82055(18) 0.36436(16)
H7_14 H 0.687111 0.801428 0.361902
C17_14 C 0.69899(14) 0.83550(19) 0.18302(17)
C18_14 C 0.65072(18) 0.68036(27) 0.2035(3)
C19_14 C 0.64305(19) 0.64989(36) 0.20012(18)
C20_14 C 0.74240(12) 0.96655(18) 0.37957(17)
C21_14 C 0.72434(14) 0.95198(21) 0.35534(15)
H8_14 H 0.718299 0.960994 0.341154
C22_14 C 0.66847(15) 0.77854(19) 0.47756(17)
C23_14 C 0.69325(13) 0.81411(19) 0.20829(16)
C24_14 C 0.70061(17) 0.83889(24) 0.33803(14)
C25_14 C 0.66303(15) 0.78585(20) 0.42245(15)
H9_14 H 0.653407 0.778924 0.403340
C26_14 C 0.64455(17) 0.68699(34) 0.2286(2)
H10_14 H 0.633867 0.672710 0.243112
C27_14 C 0.68841(15) 0.84906(20) 0.13189(15)
H11_14 H 0.676546 0.843923 0.114241
C28_14 C 0.71978(18) 0.86177(23) 0.18518(18)
H12_14 H 0.730949 0.866959 0.203408
O9_14 O 0.65349(14) 0.64616(21) 0.1744(2)
C29_14 C 0.69032(16) 0.80206(26) 0.26292(14)
C30_14 C 0.68330(14) 0.82890(19) 0.15550(17)
H13_14 H 0.668717 0.810308 0.152444
C31_14 C 0.72619(15) 0.88194(21) 0.1628(3)
H14_14 H 0.741344 0.900206 0.165989
C32_14 C 0.68184(14) 0.77439(21) 0.2560(2)
H15_14 H 0.678866 0.761496 0.272153
C33_14 C 0.65531(15) 0.76832(21) 0.4485(2)
H16_14 H 0.641130 0.749405 0.446521
C34_14 C 0.71014(17) 0.87557(21) 0.1345(2)
C35_14 C 0.71057(15) 0.86686(22) 0.34186(15)
H17_14 H 0.716426 0.878516 0.324009
C36_14 C 0.65256(17) 0.71480(26) 0.23684(16)
H18_14 H 0.646982 0.718388 0.256379
O10_14 O 0.68940(14) 0.78715(19) 0.31627(12)
C37_14 C 0.69620(13) 0.82174(18) 0.24144(18)
H19_14 H 0.702172 0.840333 0.247523
C38_14 C 0.75126(13) 0.95305(20) 0.40105(15)
H20_14 H 0.764083 0.963417 0.417061
C39_14 C 0.67704(15) 0.72970(23) 0.1894(2)
H21_14 H 0.688593 0.743998 0.175216
C40_14 C 0.66912(16) 0.70199(23) 0.18218(19)
H22_14 H 0.675677 0.697585 0.163837
O14_11 O 0.56880(9) 0.56261(14) 0.30132(13)
O17_11 O 0.57411(9) 0.59949(13) 0.33043(10)
O18_14 O 0.42506(9) 0.32197(13) 0.42772(13)
C41_14 C 0.56702(13) 0.57354(22) 0.3274(2)
O19_14 O 0.66410(15) 0.70362(19) 0.62045(13)
C42_14 C 0.50986(11) 0.47191(16) 0.43557(12)
H23_14 H 0.503835 0.463959 0.415500
C43_14 C 0.42065(18) 0.33528(23) 0.44981(18)
C44_14 C 0.57851(14) 0.56742(18) 0.60891(16)
N3_14 N 0.55046(15) 0.52460(20) 0.53379(16)
C45_14 C 0.54000(11) 0.50836(16) 0.37949(14)
H24_14 H 0.535515 0.489531 0.377383
C46_14 C 0.48085(13) 0.42437(18) 0.45905(14)
C47_14 C 0.52826(12) 0.50087(17) 0.43819(14)
C48_14 C 0.59820(15) 0.59648(20) 0.61645(15)
C49_14 C 0.50019(13) 0.45445(18) 0.46211(14)
N4_14 N 0.53491(12) 0.50255(18) 0.53205(13)
C50_14 C 0.48431(17) 0.43689(25) 0.7241(2)
C51_14 C 0.53776(11) 0.51893(18) 0.40903(17)
C52_14 C 0.45863(15) 0.41006(20) 0.48087(13)
H25_14 H 0.456997 0.420142 0.497798
C53_14 C 0.56424(13) 0.54703(18) 0.63172(15)
H26_14 H 0.567366 0.552559 0.652940
C54_14 C 0.48298(13) 0.40849(19) 0.43482(15)
H27_14 H 0.497303 0.417456 0.419774
C55_14 C 0.54894(11) 0.52623(17) 0.35359(14)
H28_14 H 0.549914 0.518993 0.333893
C56_14 C 0.53895(13) 0.51279(18) 0.46898(16)
H29_14 H 0.552350 0.531906 0.471432
C57_14 C 0.53016(13) 0.49784(19) 0.65032(17)
C58_14 C 0.6370(2) 0.65298(27) 0.6299(3)
C59_14 C 0.6598(3) 0.68345(36) 0.63322(18)
C60_14 C 0.44252(13) 0.36679(18) 0.45377(17)
C61_14 C 0.43903(15) 0.38136(21) 0.47800(15)
H30_14 H 0.423972 0.372340 0.492180
C62_14 C 0.55660(11) 0.55480(19) 0.35578(17)
C63_14 C 0.54581(14) 0.51923(19) 0.62505(16)
C64_14 C 0.52839(17) 0.49445(24) 0.49531(14)
C65_14 C 0.54385(13) 0.54749(20) 0.41089(15)
H31_14 H 0.541150 0.554410 0.429994
C66_14 C 0.6242(3) 0.64635(34) 0.6048(2)
H32_14 H 0.627824 0.660624 0.590222
C67_14 C 0.50602(13) 0.48428(20) 0.70145(15)
H33_14 H 0.499290 0.489411 0.719093
C68_14 C 0.52468(15) 0.47157(23) 0.64816(18)
H34_14 H 0.530657 0.466375 0.629926
O21_14 O 0.67400(16) 0.68718(21) 0.6590(2)
C69_14 C 0.5549(2) 0.53128(26) 0.57042(14)
C70_14 C 0.52107(13) 0.50444(19) 0.67784(17)
H35_14 H 0.525076 0.523026 0.680890
C71_14 C 0.51092(15) 0.45140(21) 0.6706(3)
H36_14 H 0.507805 0.433128 0.667345
C72_14 C 0.57412(16) 0.55895(21) 0.5774(2)
H37_14 H 0.584037 0.571838 0.561181
C73_14 C 0.55366(14) 0.56502(21) 0.3849(2)
H38_14 H 0.558392 0.583929 0.386813
C74_14 C 0.50124(13) 0.45777(21) 0.6989(2)
C75_14 C 0.51038(16) 0.46648(22) 0.49148(15)
H39_14 H 0.504577 0.454818 0.509325
C76_14 C 0.6044(2) 0.61854(26) 0.59650(16)
H40_14 H 0.595261 0.614946 0.576955
O22_14 O 0.56892(13) 0.54619(19) 0.51707(12)
C77_14 C 0.54113(13) 0.51160(18) 0.59190(18)
H41_14 H 0.528506 0.493001 0.585811
C78_14 C 0.46488(15) 0.38029(20) 0.43229(15)
H42_14 H 0.467333 0.369917 0.416273
C79_14 C 0.61401(18) 0.60364(23) 0.6440(2)
H43_14 H 0.611262 0.589336 0.658118
O23_14 O 0.40043(16) 0.28137(26) 0.36464(18)
C80_14 C 0.63380(17) 0.63135(23) 0.65116(19)
H44_14 H 0.644759 0.635749 0.669497
O24_14 O 0.44579(18) 0.28635(22) 0.4035(2)
O27_17 O 0.56261(14) 0.56880(18) 0.19868(13)
O33_11 O 0.59949(13) 0.57411(16) 0.16957(10)
H49_14 H 0.456134 0.301637 0.387583
H50_14 H 0.442949 0.268077 0.394916
H51_14 H 0.389188 0.290512 0.358753
H52_14 H 0.390371 0.261312 0.35732
O9_15 O 0.35384(21) 0.00734(16) 0.1744(2)
O14_12 O 0.43739(14) 0.00620(11) 0.30132(13)
O18_15 O 0.67803(13) 0.10310(10) 0.42772(13)
C42_15 C 0.52809(16) 0.03796(11) 0.43557(12)
H23_15 H 0.536041 0.039877 0.415500
C43_15 C 0.66472(23) 0.08538(15) 0.44981(18)
C44_15 C 0.43258(18) 0.01110(12) 0.60891(16)
N3_15 N 0.47540(20) 0.02587(13) 0.53379(16)
C45_15 C 0.49164(16) 0.03165(12) 0.37949(14)
H24_15 H 0.510469 0.045985 0.377383
C46_15 C 0.57563(18) 0.05649(13) 0.45905(14)
C47_15 C 0.49913(17) 0.02740(12) 0.43819(14)
C48_15 C 0.40352(20) 0.00173(13) 0.61645(15)
C49_15 C 0.54555(18) 0.04575(12) 0.46211(14)
N4_15 N 0.49745(18) 0.03237(13) 0.53205(13)
C50_15 C 0.56311(25) 0.04743(19) 0.7241(2)
C51_15 C 0.48107(18) 0.01884(14) 0.40903(17)
C52_15 C 0.58994(20) 0.04858(13) 0.48087(13)
H25_15 H 0.579858 0.036856 0.497798
C53_15 C 0.45297(18) 0.01722(12) 0.63172(15)
H26_15 H 0.447441 0.014808 0.652940
C54_15 C 0.59151(19) 0.07450(14) 0.43482(15)
H27_15 H 0.582544 0.079848 0.419774
C55_15 C 0.47377(17) 0.02272(13) 0.35359(14)
H28_15 H 0.481007 0.030922 0.333893
C56_15 C 0.48721(18) 0.02617(13) 0.46898(16)
H29_15 H 0.468094 0.020445 0.471432
C57_15 C 0.50216(19) 0.03233(14) 0.65032(17)
C60_15 C 0.63321(18) 0.07574(12) 0.45377(17)
C61_15 C 0.61864(21) 0.05768(14) 0.47800(15)
H30_15 H 0.627660 0.051633 0.492180
C62_15 C 0.44520(19) 0.00181(15) 0.35578(17)
C63_15 C 0.48077(19) 0.02659(13) 0.62505(16)
C64_15 C 0.50555(24) 0.03395(17) 0.49531(14)
C67_15 C 0.51572(20) 0.02175(15) 0.70145(15)
H33_15 H 0.510589 0.009880 0.719093
C68_15 C 0.52843(23) 0.05312(18) 0.64816(18)
H34_15 H 0.533625 0.064283 0.629926
C69_15 C 0.46872(26) 0.02366(16) 0.57042(14)
C70_15 C 0.49556(19) 0.01664(14) 0.67784(17)
H35_15 H 0.476974 0.002051 0.680890
C71_15 C 0.54860(21) 0.05953(15) 0.6706(3)
H36_15 H 0.566872 0.074678 0.667345
C72_15 C 0.44105(21) 0.01518(14) 0.5774(2)
H37_15 H 0.428162 0.012200 0.561181
C74_15 C 0.54223(21) 0.04348(17) 0.6989(2)
C75_15 C 0.53352(22) 0.04391(15) 0.49148(15)
H39_15 H 0.545182 0.049760 0.509325
O22_15 O 0.45381(19) 0.02274(14) 0.51707(12)
C77_15 C 0.48840(18) 0.02954(13) 0.59190(18)
H41_15 H 0.506999 0.035506 0.585811
C78_15 C 0.61971(20) 0.08460(13) 0.43229(15)
H42_15 H 0.630083 0.097417 0.416273
C79_15 C 0.39636(23) 0.01038(15) 0.6440(2)
H43_15 H 0.410664 0.021927 0.658118
O23_15 O 0.71863(26) 0.1191(2) 0.36464(18)
C80_15 C 0.36865(23) 0.00246(16) 0.65116(19)
H44_15 H 0.364251 0.009011 0.669497
O24_15 O 0.71365(22) 0.15945(13) 0.4035(2)
O33_12 O 0.42589(16) 0.02537(10) 0.16957(10)
H49_15 H 0.698363 0.154496 0.387583
H50_15 H 0.731923 0.174872 0.394916
H51_15 H 0.709488 0.0986753 0.358753
H52_15 H 0.738688 0.129059 0.35732
C1_15 C 0.24020(22) 0.90036(13) 0.5060(2)
O7_15 O 0.37028(19) 0.99744(15) 0.21289(13)
O8_12 O 0.07865(14) 0.81338(9) 0.11350(12)
C2_15 C 0.13857(16) 0.84320(11) 0.39777(12)
H1_15 H 0.130625 0.837169 0.417834
C3_15 C 0.00194(23) 0.75399(18) 0.38353(18)
C4_15 C 0.23408(18) 0.91185(14) 0.22443(16)
N1_15 N 0.19126(20) 0.88380(15) 0.29955(16)
C5_15 C 0.17502(16) 0.87334(11) 0.45385(14)
H2_15 H 0.156197 0.868849 0.455951
C6_15 C 0.09103(18) 0.81419(13) 0.37429(14)
C7_15 C 0.16753(17) 0.86160(12) 0.39515(14)
C8_15 C 0.26314(20) 0.93154(15) 0.21689(15)
C9_15 C 0.12111(18) 0.83353(13) 0.37123(14)
N2_15 N 0.16921(18) 0.86825(12) 0.30129(13)
C10_15 C 0.10355(25) 0.81765(17) 0.1093(2)
C11_15 C 0.18559(18) 0.87110(11) 0.42431(17)
C12_15 C 0.07672(20) 0.79197(15) 0.35247(13)
H3_15 H 0.086808 0.790331 0.335536
C13_15 C 0.21369(18) 0.89758(13) 0.20162(15)
H4_15 H 0.219225 0.900700 0.180394
C14_15 C 0.07515(19) 0.81632(13) 0.39852(15)
H5_15 H 0.084122 0.830637 0.413560
C15_15 C 0.19289(17) 0.88228(11) 0.47975(14)
H6_15 H 0.185659 0.883248 0.499441
C16_15 C 0.17945(18) 0.87229(13) 0.36436(16)
H7_15 H 0.198572 0.885684 0.361902
C17_15 C 0.16450(19) 0.86350(13) 0.18302(17)
C18_15 C 0.31964(27) 0.9704(2) 0.2035(3)
C19_15 C 0.35011(36) 0.9932(3) 0.20012(18)
C20_15 C 0.03345(18) 0.77586(13) 0.37957(17)
C21_15 C 0.04802(21) 0.77237(15) 0.35534(15)
H8_15 H 0.039006 0.757306 0.341154
C22_15 C 0.22146(19) 0.88994(11) 0.47756(17)
C23_15 C 0.18589(19) 0.87915(14) 0.20829(16)
C24_15 C 0.16111(24) 0.86173(17) 0.33803(14)
C25_15 C 0.21415(20) 0.87719(13) 0.42245(15)
H9_15 H 0.221076 0.874484 0.403340
C26_15 C 0.31301(34) 0.9576(3) 0.2286(2)
H10_15 H 0.327290 0.961158 0.243112
C27_15 C 0.15094(20) 0.83936(13) 0.13189(15)
H11_15 H 0.156077 0.832624 0.114241
C28_15 C 0.13823(23) 0.85802(15) 0.18518(18)
H12_15 H 0.133041 0.863991 0.203408
C29_15 C 0.19794(26) 0.8883(2) 0.26292(14)
C30_15 C 0.17110(19) 0.85441(13) 0.15550(17)
H13_15 H 0.189692 0.858410 0.152444
C31_15 C 0.11806(21) 0.84426(15) 0.1628(3)
H14_15 H 0.099794 0.841139 0.165989
C32_15 C 0.22561(21) 0.90746(16) 0.2560(2)
H15_15 H 0.238504 0.917371 0.272153
C33_15 C 0.23168(21) 0.88700(14) 0.4485(2)
H16_15 H 0.250595 0.891726 0.446521
C34_15 C 0.12443(21) 0.83458(13) 0.1345(2)
C35_15 C 0.13314(22) 0.84372(16) 0.34186(15)
H17_15 H 0.121484 0.837911 0.324009
C36_15 C 0.28520(26) 0.9378(2) 0.23684(16)
H18_15 H 0.281612 0.928595 0.256379
O10_15 O 0.21285(19) 0.90226(13) 0.31627(12)
C37_15 C 0.17826(18) 0.87447(13) 0.24144(18)
H19_15 H 0.159667 0.861840 0.247523
C38_15 C 0.04695(20) 0.79822(15) 0.40105(15)
H20_15 H 0.036583 0.800667 0.417061
C39_15 C 0.27030(23) 0.94735(18) 0.1894(2)
H21_15 H 0.256002 0.944596 0.175216
C40_15 C 0.29801(23) 0.96714(17) 0.18218(19)
H22_15 H 0.302415 0.978093 0.163837
O17_12 O 0.40051(13) 0.97463(10) 0.33043(10)
C41_15 C 0.42646(22) 0.99349(18) 0.3274(2)
O19_15 O 0.29638(19) 0.96049(12) 0.62045(13)
C58_15 C 0.34702(27) 0.98406(18) 0.6299(3)
C59_15 C 0.31655(36) 0.97639(19) 0.63322(18)
C65_15 C 0.45251(20) 0.99637(15) 0.41089(15)
H31_15 H 0.445590 0.986741 0.429994
C66_15 C 0.35365(34) 0.97789(17) 0.6048(2)
H32_15 H 0.339376 0.967201 0.590222
O21_15 O 0.31282(21) 0.98683(14) 0.6590(2)
C73_15 C 0.43498(21) 0.98865(15) 0.3849(2)
H38_15 H 0.416071 0.974464 0.386813
C76_15 C 0.38146(26) 0.98590(17) 0.59650(16)
H40_15 H 0.385054 0.980316 0.576955
O27_18 O 0.43120(18) 0.99380(11) 0.19868(13)
O6_15 O 0.98863(13) 0.75840(9) 0.40562(13)
O11_15 O 0.94803(26) 0.73377(16) 0.46870(18)
O12_15 O 0.95301(22) 0.77913(18) 0.4299(2)
O35_12 O 0.92135(14) 0.73472(11) 0.38650(12)
H45_15 H 0.957179 0.722521 0.47458
H46_15 H 0.927979 0.723705 0.476013
H47_15 H 0.968304 0.789467 0.44575
H48_15 H 0.934744 0.776283 0.438418
C1_16 C 0.43298(13) 0.00651(18) 0.1726(2)
C25_16 C 0.45615(13) 0.00363(15) 0.08911(15)
H9_16 H 0.458850 0.013259 0.070006
C33_16 C 0.44634(14) 0.01135(15) 0.1151(2)
H16_16 H 0.441608 0.025536 0.113187
O18_16 O 0.23024(10) 0.24160(9) 0.09438(13)
O19_16 O 0.37285(12) 0.00256(15) 0.28711(13)
C42_16 C 0.29538(11) 0.15680(11) 0.10223(12)
H23_16 H 0.293457 0.162831 0.082166
C43_16 C 0.24796(15) 0.24601(18) 0.11647(18)
C44_16 C 0.32224(12) 0.08815(14) 0.27557(16)
N3_16 N 0.30747(13) 0.11620(15) 0.20045(16)
C45_16 C 0.30169(12) 0.12666(11) 0.04615(14)
H24_16 H 0.287349 0.131151 0.044049
C46_16 C 0.27685(13) 0.18581(13) 0.12571(14)
C47_16 C 0.30594(12) 0.13840(12) 0.10485(14)
C48_16 C 0.33161(13) 0.06846(15) 0.28311(15)
C49_16 C 0.28759(12) 0.16647(13) 0.12877(14)
N4_16 N 0.30097(13) 0.13175(12) 0.19871(13)
C50_16 C 0.28591(19) 0.18235(17) 0.3907(2)
C51_16 C 0.31450(14) 0.12890(11) 0.07569(17)
C52_16 C 0.28476(13) 0.20803(15) 0.14753(13)
H25_16 H 0.296478 0.209669 0.164464
C53_16 C 0.31612(12) 0.10242(13) 0.29838(15)
H26_16 H 0.318526 0.099300 0.319606
C54_16 C 0.25884(14) 0.18368(13) 0.10148(15)
H27_16 H 0.253486 0.169363 0.086440
C55_16 C 0.31062(13) 0.11772(11) 0.02025(14)
H28_16 H 0.302412 0.116752 0.000559
C56_16 C 0.30717(13) 0.12771(13) 0.13564(16)
H29_16 H 0.312889 0.114316 0.138098
C57_16 C 0.30101(14) 0.13650(13) 0.31698(17)
C58_16 C 0.34928(18) 0.0296(2) 0.2965(3)
C59_16 C 0.35695(19) 0.0068(3) 0.29988(18)
C60_16 C 0.25760(12) 0.22414(13) 0.12043(17)
C61_16 C 0.27566(14) 0.22763(15) 0.14466(15)
H30_16 H 0.281701 0.242694 0.158846
C62_16 C 0.33153(15) 0.11006(11) 0.02244(17)
C63_16 C 0.30675(13) 0.12085(14) 0.29171(16)
C64_16 C 0.29939(17) 0.13827(17) 0.16197(14)
C65_16 C 0.33697(15) 0.12281(13) 0.07755(15)
H31_16 H 0.346593 0.125516 0.096660
C66_16 C 0.35545(17) 0.0424(3) 0.2714(2)
H32_16 H 0.366133 0.038842 0.256888
C67_16 C 0.31159(15) 0.16064(13) 0.36811(15)
H33_16 H 0.323454 0.167376 0.385759
C68_16 C 0.28022(18) 0.14198(15) 0.31482(18)
H34_16 H 0.269051 0.136009 0.296592
C69_16 C 0.30968(16) 0.1117(2) 0.23708(14)
C70_16 C 0.31670(14) 0.14559(13) 0.34450(17)
H35_16 H 0.331283 0.141590 0.347556
C71_16 C 0.27381(15) 0.15574(15) 0.3372(3)
H36_16 H 0.258656 0.158861 0.334011
C72_16 C 0.31816(14) 0.09254(16) 0.2440(2)
H37_16 H 0.321134 0.082629 0.227847
C73_16 C 0.34469(15) 0.11300(14) 0.0515(2)
H38_16 H 0.358870 0.108274 0.053479
C74_16 C 0.28986(17) 0.16542(13) 0.3655(2)
C75_16 C 0.28943(15) 0.15628(16) 0.15814(15)
H39_16 H 0.283574 0.162089 0.175991
C76_16 C 0.34744(17) 0.0622(2) 0.26316(16)
H40_16 H 0.353018 0.071405 0.243621
O22_16 O 0.31060(14) 0.09774(13) 0.18373(12)
C77_16 C 0.30380(13) 0.12553(13) 0.25856(18)
H41_16 H 0.297828 0.138160 0.252477
C78_16 C 0.24874(13) 0.20178(15) 0.09895(15)
H42_16 H 0.235917 0.199333 0.082939
C79_16 C 0.32296(15) 0.05265(18) 0.3106(2)
H43_16 H 0.311407 0.055404 0.324784
O23_16 O 0.2143(2) 0.26623(16) 0.03130(18)
C80_16 C 0.33088(16) 0.03286(17) 0.31782(19)
H44_16 H 0.324323 0.021907 0.336163
O24_16 O 0.17389(13) 0.22087(18) 0.0701(2)
H49_16 H 0.178837 0.210533 0.0542501
H50_16 H 0.158461 0.223717 0.0615824
H51_16 H 0.234658 0.277479 0.0254201
H52_16 H 0.204274 0.276295 0.0239868
O7_16 O 0.33590(15) 0.03951(12) 0.87955(13)
C18_16 C 0.3630(2) 0.01594(18) 0.8701(3)
C19_16 C 0.3402(3) 0.02361(19) 0.86678(18)
C26_16 C 0.3758(3) 0.02211(17) 0.8952(2)
H10_16 H 0.372176 0.032799 0.909778
O9_16 O 0.32600(16) 0.01317(14) 0.8410(2)
C36_16 C 0.3956(2) 0.01410(17) 0.90350(16)
H18_16 H 0.404739 0.019684 0.923045
C41_16 C 0.33985(18) 0.09964(13) 0.9940(2)
O6_16 O 0.57494(9) 0.89690(10) 0.07228(13)
C2_16 C 0.49014(11) 0.96204(11) 0.06443(12)
H1_16 H 0.496165 0.960123 0.084500
C3_16 C 0.57935(18) 0.91462(15) 0.05019(18)
C5_16 C 0.46000(11) 0.96835(12) 0.12051(14)
H2_16 H 0.464485 0.954015 0.122617
C6_16 C 0.51915(13) 0.94351(13) 0.04095(14)
C7_16 C 0.47174(12) 0.97260(12) 0.06181(14)
C9_16 C 0.49981(13) 0.95425(12) 0.03789(14)
C11_16 C 0.46224(11) 0.98116(14) 0.09097(17)
C12_16 C 0.54137(15) 0.95142(13) 0.01913(13)
H3_16 H 0.543003 0.963144 0.002202
C14_16 C 0.51702(13) 0.92550(14) 0.06518(15)
H5_16 H 0.502697 0.920152 0.080226
C15_16 C 0.45106(11) 0.97728(13) 0.14641(14)
H6_16 H 0.450086 0.969078 0.166107
C16_16 C 0.46105(13) 0.97383(13) 0.03102(16)
H7_16 H 0.447650 0.979555 0.028568
C20_16 C 0.55748(13) 0.92426(12) 0.04623(17)
C21_16 C 0.56097(15) 0.94232(14) 0.02200(15)
H8_16 H 0.576028 0.948367 0.007820
C22_16 C 0.44340(11) 0.99819(15) 0.14422(17)
C24_16 C 0.47161(17) 0.96605(17) 0.00469(14)
C35_16 C 0.48962(16) 0.95609(15) 0.00852(15)
C38_16 C 0.53512(15) 0.91540(13) 0.06771(15)
H20_16 H 0.532667 0.902583 0.083727
O11_16 O 0.59957(16) 0.8809(2) 0.13536(18)
O12_16 O 0.55421(18) 0.84055(13) 0.0965(2)
O21_16 O 0.34651(14) 0.99266(16) 0.3256(2)
H45_16 H 0.610812 0.901325 0.141247
H46_16 H 0.609629 0.870941 0.14268
H47_16 H 0.543866 0.845504 0.112417
H48_16 H 0.557051 0.825128 0.105084
C4_16 C 0.42149(14) 0.98890(12) 0.89109(16)
N1_16 N 0.44954(15) 0.97413(13) 0.96621(16)
C8_16 C 0.40180(15) 0.99827(13) 0.88355(15)
N2_16 N 0.46509(12) 0.96763(13) 0.96795(13)
C10_16 C 0.51569(17) 0.95257(19) 0.7759(2)
C13_16 C 0.43576(13) 0.98278(12) 0.86828(15)
H4_16 H 0.432634 0.985192 0.847060
C17_16 C 0.46984(13) 0.96767(14) 0.84968(17)
C23_16 C 0.45419(14) 0.97341(13) 0.87495(16)
C27_16 C 0.49398(13) 0.97825(15) 0.79855(15)
H11_16 H 0.500710 0.990120 0.780907
C28_16 C 0.47532(15) 0.94688(18) 0.85184(18)
H12_16 H 0.469343 0.935717 0.870074
C29_16 C 0.4451(2) 0.97634(16) 0.92958(14)
C30_16 C 0.47893(13) 0.98336(14) 0.82216(17)
H13_16 H 0.474924 0.997949 0.819110
C31_16 C 0.48908(15) 0.94047(15) 0.8294(3)
H14_16 H 0.492195 0.925322 0.832655
C32_16 C 0.42588(16) 0.98482(14) 0.9226(2)
H15_16 H 0.415963 0.987800 0.938819
C34_16 C 0.49876(13) 0.95652(17) 0.8011(2)
H17_16 H 0.495423 0.950240 0.990675
O10_16 O 0.43108(13) 0.97726(14) 0.98293(12)
C37_16 C 0.45887(13) 0.97046(13) 0.90810(18)
H19_16 H 0.471494 0.964494 0.914189
C39_16 C 0.38599(18) 0.98962(15) 0.8560(2)
H21_16 H 0.388738 0.978073 0.841882
C40_16 C 0.36620(17) 0.99754(16) 0.84884(19)
H22_16 H 0.355241 0.990989 0.830503
O6_17 O 0.10310(10) 0.67803(13) 0.07228(13)
C2_17 C 0.03796(11) 0.52809(16) 0.06443(12)
H1_17 H 0.039877 0.536041 0.084500
C3_17 C 0.08538(15) 0.66472(23) 0.05019(18)
C5_17 C 0.03165(12) 0.49164(16) 0.12051(14)
H2_17 H 0.045985 0.510469 0.122617
C6_17 C 0.05649(13) 0.57563(18) 0.04095(14)
C7_17 C 0.02740(12) 0.49913(17) 0.06181(14)
C9_17 C 0.04575(12) 0.54555(18) 0.03789(14)
C11_17 C 0.01884(14) 0.48107(18) 0.09097(17)
C12_17 C 0.04858(13) 0.58994(20) 0.01913(13)
H3_17 H 0.036856 0.579858 0.002202
C14_17 C 0.07450(14) 0.59151(19) 0.06518(15)
H5_17 H 0.079848 0.582544 0.080226
C15_17 C 0.02272(13) 0.47377(17) 0.14641(14)
H6_17 H 0.030922 0.481007 0.166107
C16_17 C 0.02617(13) 0.48721(18) 0.03102(16)
H7_17 H 0.020445 0.468094 0.028568
C20_17 C 0.07574(12) 0.63321(18) 0.04623(17)
C21_17 C 0.05768(14) 0.61864(21) 0.02200(15)
H8_17 H 0.051633 0.627660 0.007820
C22_17 C 0.00181(15) 0.44520(19) 0.14422(17)
C24_17 C 0.03395(17) 0.50555(24) 0.00469(14)
C35_17 C 0.04391(15) 0.53352(22) 0.00852(15)
C38_17 C 0.08460(13) 0.61971(20) 0.06771(15)
H20_17 H 0.097417 0.630083 0.083727
O11_17 O 0.1191(2) 0.71863(26) 0.13536(18)
O12_17 O 0.15945(13) 0.71365(22) 0.0965(2)
O21_17 O 0.00734(16) 0.35384(21) 0.3256(2)
H45_17 H 0.0986753 0.709488 0.141247
H46_17 H 0.129059 0.738688 0.14268
H47_17 H 0.154496 0.698363 0.112417
H48_17 H 0.174872 0.731923 0.105084
C4_17 C 0.01110(12) 0.43258(18) 0.89109(16)
N1_17 N 0.02587(13) 0.47540(20) 0.96621(16)
C8_17 C 0.00173(13) 0.40352(20) 0.88355(15)
N2_17 N 0.03237(13) 0.49745(18) 0.96795(13)
C10_17 C 0.04743(19) 0.56311(25) 0.7759(2)
C13_17 C 0.01722(12) 0.45297(18) 0.86828(15)
H4_17 H 0.014808 0.447441 0.847060
C17_17 C 0.03233(14) 0.50216(19) 0.84968(17)
C23_17 C 0.02659(13) 0.48077(19) 0.87495(16)
C27_17 C 0.02175(15) 0.51572(20) 0.79855(15)
H11_17 H 0.009880 0.510589 0.780907
C28_17 C 0.05312(18) 0.52843(23) 0.85184(18)
H12_17 H 0.064283 0.533625 0.870074
C29_17 C 0.02366(16) 0.46872(26) 0.92958(14)
C30_17 C 0.01664(14) 0.49556(19) 0.82216(17)
H13_17 H 0.002051 0.476974 0.819110
C31_17 C 0.05953(15) 0.54860(21) 0.8294(3)
H14_17 H 0.074678 0.566872 0.832655
C32_17 C 0.01518(14) 0.44105(21) 0.9226(2)
H15_17 H 0.012200 0.428162 0.938819
C34_17 C 0.04348(17) 0.54223(21) 0.8011(2)
H17_17 H 0.049760 0.545182 0.990675
O10_17 O 0.02274(14) 0.45381(19) 0.98293(12)
C37_17 C 0.02954(13) 0.48840(18) 0.90810(18)
H19_17 H 0.035506 0.506999 0.914189
C39_17 C 0.01038(15) 0.39636(23) 0.8560(2)
H21_17 H 0.021927 0.410664 0.841882
C40_17 C 0.00246(16) 0.36865(23) 0.84884(19)
H22_17 H 0.009011 0.364251 0.830503
C1_17 C 0.99349(18) 0.42646(22) 0.1726(2)
C25_17 C 0.99637(15) 0.45251(20) 0.08911(15)
H9_17 H 0.986741 0.445590 0.070006
C33_17 C 0.98865(15) 0.43498(21) 0.1151(2)
H16_17 H 0.974464 0.416071 0.113187
O19_17 O 0.99744(15) 0.37028(19) 0.28711(13)
C42_17 C 0.84320(11) 0.13857(16) 0.10223(12)
H23_17 H 0.837169 0.130625 0.082166
C43_17 C 0.75399(18) 0.00194(23) 0.11647(18)
C44_17 C 0.91185(14) 0.23408(18) 0.27557(16)
N3_17 N 0.88380(15) 0.19126(20) 0.20045(16)
C45_17 C 0.87334(11) 0.17502(16) 0.04615(14)
H24_17 H 0.868849 0.156197 0.044049
C46_17 C 0.81419(13) 0.09103(18) 0.12571(14)
C47_17 C 0.86160(12) 0.16753(17) 0.10485(14)
C48_17 C 0.93154(15) 0.26314(20) 0.28311(15)
C49_17 C 0.83353(13) 0.12111(18) 0.12877(14)
N4_17 N 0.86825(12) 0.16921(18) 0.19871(13)
C50_17 C 0.81765(17) 0.10355(25) 0.3907(2)
C51_17 C 0.87110(11) 0.18559(18) 0.07569(17)
C52_17 C 0.79197(15) 0.07672(20) 0.14753(13)
H25_17 H 0.790331 0.086808 0.164464
C53_17 C 0.89758(13) 0.21369(18) 0.29838(15)
H26_17 H 0.900700 0.219225 0.319606
C54_17 C 0.81632(13) 0.07515(19) 0.10148(15)
H27_17 H 0.830637 0.084122 0.086440
C55_17 C 0.88228(11) 0.19289(17) 0.02025(14)
H28_17 H 0.883248 0.185659 0.000559
C56_17 C 0.87229(13) 0.17945(18) 0.13564(16)
H29_17 H 0.885684 0.198572 0.138098
C57_17 C 0.86350(13) 0.16450(19) 0.31698(17)
C58_17 C 0.9704(2) 0.31964(27) 0.2965(3)
C59_17 C 0.9932(3) 0.35011(36) 0.29988(18)
C60_17 C 0.77586(13) 0.03345(18) 0.12043(17)
C61_17 C 0.77237(15) 0.04802(21) 0.14466(15)
H30_17 H 0.757306 0.039006 0.158846
C62_17 C 0.88994(11) 0.22146(19) 0.02244(17)
C63_17 C 0.87915(14) 0.18589(19) 0.29171(16)
C64_17 C 0.86173(17) 0.16111(24) 0.16197(14)
C65_17 C 0.87719(13) 0.21415(20) 0.07755(15)
H31_17 H 0.874484 0.221076 0.096660
C66_17 C 0.9576(3) 0.31301(34) 0.2714(2)
H32_17 H 0.961158 0.327290 0.256888
C67_17 C 0.83936(13) 0.15094(20) 0.36811(15)
H33_17 H 0.832624 0.156077 0.385759
C68_17 C 0.85802(15) 0.13823(23) 0.31482(18)
H34_17 H 0.863991 0.133041 0.296592
C69_17 C 0.8883(2) 0.19794(26) 0.23708(14)
C70_17 C 0.85441(13) 0.17110(19) 0.34450(17)
H35_17 H 0.858410 0.189692 0.347556
C71_17 C 0.84426(15) 0.11806(21) 0.3372(3)
H36_17 H 0.841139 0.099794 0.334011
C72_17 C 0.90746(16) 0.22561(21) 0.2440(2)
H37_17 H 0.917371 0.238504 0.227847
C73_17 C 0.88700(14) 0.23168(21) 0.0515(2)
H38_17 H 0.891726 0.250595 0.053479
C74_17 C 0.83458(13) 0.12443(21) 0.3655(2)
C75_17 C 0.84372(16) 0.13314(22) 0.15814(15)
H39_17 H 0.837911 0.121484 0.175991
C76_17 C 0.9378(2) 0.28520(26) 0.26316(16)
H40_17 H 0.928595 0.281612 0.243621
O22_17 O 0.90226(13) 0.21285(19) 0.18373(12)
C77_17 C 0.87447(13) 0.17826(18) 0.25856(18)
H41_17 H 0.861840 0.159667 0.252477
C78_17 C 0.79822(15) 0.04695(20) 0.09895(15)
H42_17 H 0.800667 0.036583 0.082939
C79_17 C 0.94735(18) 0.27030(23) 0.3106(2)
H43_17 H 0.944596 0.256002 0.324784
C80_17 C 0.96714(17) 0.29801(23) 0.31782(19)
H44_17 H 0.978093 0.302415 0.336163
O7_17 O 0.96049(12) 0.29638(19) 0.87955(13)
C18_17 C 0.98406(18) 0.34702(27) 0.8701(3)
C19_17 C 0.97639(19) 0.31655(36) 0.86678(18)
C26_17 C 0.97789(17) 0.35365(34) 0.8952(2)
H10_17 H 0.967201 0.339376 0.909778
O9_17 O 0.98683(14) 0.31282(21) 0.8410(2)
C36_17 C 0.98590(17) 0.38146(26) 0.90350(16)
H18_17 H 0.980316 0.385054 0.923045
C41_17 C 0.90036(13) 0.24020(22) 0.9940(2)
O18_17 O 0.75840(9) 0.98863(13) 0.09438(13)
O23_17 O 0.73377(16) 0.94803(26) 0.03130(18)
O24_17 O 0.77913(18) 0.95301(22) 0.0701(2)
H49_17 H 0.789467 0.968304 0.0542501
H50_17 H 0.776283 0.934744 0.0615824
H51_17 H 0.722521 0.957179 0.0254201
H52_17 H 0.723705 0.927979 0.0239868
O18_18 O 0.01137(13) 0.76976(10) 0.09438(13)
O23_18 O 0.05197(26) 0.7857(2) 0.03130(18)
O24_18 O 0.04699(22) 0.82611(13) 0.0701(2)
H49_18 H 0.031696 0.821163 0.0542501
H50_18 H 0.065256 0.841539 0.0615824
H51_18 H 0.0428211 0.765342 0.0254201
H52_18 H 0.0720209 0.795726 0.0239868
O6_18 O 0.32197(13) 0.42506(9) 0.07228(13)
C1_18 C 0.57354(22) 0.56702(13) 0.1726(2)
C2_18 C 0.47191(16) 0.50986(11) 0.06443(12)
H1_18 H 0.463959 0.503835 0.084500
C3_18 C 0.33528(23) 0.42065(18) 0.05019(18)
C5_18 C 0.50836(16) 0.54000(11) 0.12051(14)
H2_18 H 0.489531 0.535515 0.122617
C6_18 C 0.42437(18) 0.48085(13) 0.04095(14)
C7_18 C 0.50087(17) 0.52826(12) 0.06181(14)
C9_18 C 0.45445(18) 0.50019(13) 0.03789(14)
C11_18 C 0.51893(18) 0.53776(11) 0.09097(17)
C12_18 C 0.41006(20) 0.45863(15) 0.01913(13)
H3_18 H 0.420142 0.456997 0.002202
C14_18 C 0.40849(19) 0.48298(13) 0.06518(15)
H5_18 H 0.417456 0.497303 0.080226
C15_18 C 0.52623(17) 0.54894(11) 0.14641(14)
H6_18 H 0.518993 0.549914 0.166107
C16_18 C 0.51279(18) 0.53895(13) 0.03102(16)
H7_18 H 0.531906 0.552350 0.028568
C20_18 C 0.36679(18) 0.44252(13) 0.04623(17)
C21_18 C 0.38136(21) 0.43903(15) 0.02200(15)
H8_18 H 0.372340 0.423972 0.007820
C22_18 C 0.55480(19) 0.55660(11) 0.14422(17)
C24_18 C 0.49445(24) 0.52839(17) 0.00469(14)
C25_18 C 0.54749(20) 0.54385(13) 0.08911(15)
H9_18 H 0.554410 0.541150 0.070006
C33_18 C 0.56502(21) 0.55366(14) 0.1151(2)
H16_18 H 0.583929 0.558392 0.113187
C35_18 C 0.46648(22) 0.51038(16) 0.00852(15)
C38_18 C 0.38029(20) 0.46488(15) 0.06771(15)
H20_18 H 0.369917 0.467333 0.083727
O11_18 O 0.28137(26) 0.40043(16) 0.13536(18)
O12_18 O 0.28635(22) 0.44579(18) 0.0965(2)
O19_18 O 0.62972(19) 0.62715(12) 0.28711(13)
C42_18 C 0.86143(16) 0.70462(11) 0.10223(12)
H23_18 H 0.869375 0.706543 0.082166
C43_18 C 0.99806(23) 0.75204(15) 0.11647(18)
C44_18 C 0.76592(18) 0.67776(12) 0.27557(16)
N3_18 N 0.80874(20) 0.69253(13) 0.20045(16)
C45_18 C 0.82498(16) 0.69831(12) 0.04615(14)
H24_18 H 0.843803 0.712651 0.044049
C46_18 C 0.90897(18) 0.72315(13) 0.12571(14)
C47_18 C 0.83247(17) 0.69406(12) 0.10485(14)
C48_18 C 0.73686(20) 0.66839(13) 0.28311(15)
C49_18 C 0.87889(18) 0.71241(12) 0.12877(14)
N4_18 N 0.83079(18) 0.69903(13) 0.19871(13)
C50_18 C 0.89645(25) 0.71409(19) 0.3907(2)
C51_18 C 0.81441(18) 0.68550(14) 0.07569(17)
C52_18 C 0.92328(20) 0.71524(13) 0.14753(13)
H25_18 H 0.913192 0.703522 0.164464
C53_18 C 0.78631(18) 0.68388(12) 0.29838(15)
H26_18 H 0.780775 0.681474 0.319606
C54_18 C 0.92485(19) 0.74116(14) 0.10148(15)
H27_18 H 0.915878 0.746514 0.086440
C55_18 C 0.80711(17) 0.68938(13) 0.02025(14)
H28_18 H 0.814341 0.697588 0.000559
C56_18 C 0.82055(18) 0.69283(13) 0.13564(16)
H29_18 H 0.801428 0.687111 0.138098
C57_18 C 0.83550(19) 0.69899(14) 0.31698(17)
C58_18 C 0.68036(27) 0.65072(18) 0.2965(3)
C59_18 C 0.64989(36) 0.64305(19) 0.29988(18)
C60_18 C 0.96655(18) 0.74240(12) 0.12043(17)
C61_18 C 0.95198(21) 0.72434(14) 0.14466(15)
H30_18 H 0.960994 0.718299 0.158846
C62_18 C 0.77854(19) 0.66847(15) 0.02244(17)
C63_18 C 0.81411(19) 0.69325(13) 0.29171(16)
C64_18 C 0.83889(24) 0.70061(17) 0.16197(14)
C65_18 C 0.78585(20) 0.66303(15) 0.07755(15)
H31_18 H 0.778924 0.653407 0.096660
C66_18 C 0.68699(34) 0.64455(17) 0.2714(2)
H32_18 H 0.672710 0.633867 0.256888
C67_18 C 0.84906(20) 0.68841(15) 0.36811(15)
H33_18 H 0.843923 0.676546 0.385759
C68_18 C 0.86177(23) 0.71978(18) 0.31482(18)
H34_18 H 0.866959 0.730949 0.296592
O21_18 O 0.64616(21) 0.65349(14) 0.3256(2)
C69_18 C 0.80206(26) 0.69032(16) 0.23708(14)
C70_18 C 0.82890(19) 0.68330(14) 0.34450(17)
H35_18 H 0.810308 0.668717 0.347556
C71_18 C 0.88194(21) 0.72619(15) 0.3372(3)
H36_18 H 0.900206 0.741344 0.334011
C72_18 C 0.77439(21) 0.68184(14) 0.2440(2)
H37_18 H 0.761496 0.678866 0.227847
C73_18 C 0.76832(21) 0.65531(15) 0.0515(2)
H38_18 H 0.749405 0.641130 0.053479
C74_18 C 0.87557(21) 0.71014(17) 0.3655(2)
C75_18 C 0.86686(22) 0.71057(15) 0.15814(15)
H39_18 H 0.878516 0.716426 0.175991
C76_18 C 0.71480(26) 0.65256(17) 0.26316(16)
H40_18 H 0.718388 0.646982 0.243621
O22_18 O 0.78715(19) 0.68940(14) 0.18373(12)
C77_18 C 0.82174(18) 0.69620(13) 0.25856(18)
H41_18 H 0.840333 0.702172 0.252477
C78_18 C 0.95305(20) 0.75126(13) 0.09895(15)
H42_18 H 0.963417 0.764083 0.082939
C79_18 C 0.72970(23) 0.67704(15) 0.3106(2)
H43_18 H 0.743998 0.688593 0.324784
C80_18 C 0.70199(23) 0.66912(16) 0.31782(19)
H44_18 H 0.697585 0.675677 0.336163
H45_18 H 0.290512 0.389188 0.141247
H46_18 H 0.261312 0.390371 0.14268
H47_18 H 0.301637 0.456134 0.112417
H48_18 H 0.268077 0.442949 0.105084
O7_18 O 0.70362(19) 0.66410(15) 0.87955(13)
C4_18 C 0.56742(18) 0.57851(14) 0.89109(16)
N1_18 N 0.52460(20) 0.55046(15) 0.96621(16)
C8_18 C 0.59648(20) 0.59820(15) 0.88355(15)
N2_18 N 0.50255(18) 0.53491(12) 0.96795(13)
C10_18 C 0.43689(25) 0.48431(17) 0.7759(2)
C13_18 C 0.54703(18) 0.56424(13) 0.86828(15)
H4_18 H 0.552559 0.567366 0.847060
C17_18 C 0.49784(19) 0.53016(13) 0.84968(17)
C18_18 C 0.65298(27) 0.6370(2) 0.8701(3)
C19_18 C 0.68345(36) 0.6598(3) 0.86678(18)
C23_18 C 0.51923(19) 0.54581(14) 0.87495(16)
C26_18 C 0.64635(34) 0.6242(3) 0.8952(2)
H10_18 H 0.660624 0.627824 0.909778
C27_18 C 0.48428(20) 0.50602(13) 0.79855(15)
H11_18 H 0.489411 0.499290 0.780907
C28_18 C 0.47157(23) 0.52468(15) 0.85184(18)
H12_18 H 0.466375 0.530657 0.870074
O9_18 O 0.68718(21) 0.67400(16) 0.8410(2)
C29_18 C 0.53128(26) 0.5549(2) 0.92958(14)
C30_18 C 0.50444(19) 0.52107(13) 0.82216(17)
H13_18 H 0.523026 0.525076 0.819110
C31_18 C 0.45140(21) 0.51092(15) 0.8294(3)
H14_18 H 0.433128 0.507805 0.832655
C32_18 C 0.55895(21) 0.57412(16) 0.9226(2)
H15_18 H 0.571838 0.584037 0.938819
C34_18 C 0.45777(21) 0.50124(13) 0.8011(2)
H17_18 H 0.454818 0.504577 0.990675
C36_18 C 0.61854(26) 0.6044(2) 0.90350(16)
H18_18 H 0.614946 0.595261 0.923045
O10_18 O 0.54619(19) 0.56892(13) 0.98293(12)
C37_18 C 0.51160(18) 0.54113(13) 0.90810(18)
H19_18 H 0.493001 0.528506 0.914189
C39_18 C 0.60364(23) 0.61401(18) 0.8560(2)
H21_18 H 0.589336 0.611262 0.841882
C40_18 C 0.63135(23) 0.63380(17) 0.84884(19)
H22_18 H 0.635749 0.644759 0.830503
C41_18 C 0.75980(22) 0.66015(18) 0.9940(2)
loop_
_geom_bond_atom_site_label_1
_geom_bond_atom_site_label_2
_geom_bond_site_symmetry_1
_geom_bond_site_symmetry_2
Zn1 O3 1_555 1_555
Zn2 O3 1_555 1_555
Zn3 O6 1_555 1_555
O1 C10 1_555 1_555
O2 C1 1_555 1_555
O3 Zn16 1_555 1_555
O4 C3 1_555 1_555
O5 C1 1_555 1_555
O6 C3 1_555 1_555
C1 C22 1_555 1_555
O7 Zn2 1_555 1_555
O8 C10 1_555 1_555
C2 H1 1_555 1_555
C3 C20 1_555 1_555
C4 C8 1_555 1_555
N1 N2 1_555 1_555
C5 H2 1_555 1_555
C6 C9 1_555 1_555
C7 C2 1_555 1_555
C8 C36 1_555 1_555
C9 C2 1_555 1_555
N2 C24 1_555 1_555
C10 C34 1_555 1_555
C11 C5 1_555 1_555
C12 C6 1_555 1_555
H3 C12 1_555 1_555
C13 C4 1_555 1_555
H4 C13 1_555 1_555
C14 C6 1_555 1_555
H5 C14 1_555 1_555
C15 C5 1_555 1_555
H6 C15 1_555 1_555
C16 C7 1_555 1_555
H7 C16 1_555 1_555
C17 C23 1_555 1_555
C18 C19 1_555 1_555
C19 O7 1_555 1_555
C20 C21 1_555 1_555
C21 C12 1_555 1_555
H8 C21 1_555 1_555
C22 C15 1_555 1_555
C23 C13 1_555 1_555
C24 C16 1_555 1_555
C25 C11 1_555 1_555
H9 C25 1_555 1_555
C26 C18 1_555 1_555
H10 C26 1_555 1_555
C27 H11 1_555 1_555
C28 C17 1_555 1_555
H12 C28 1_555 1_555
O9 C19 1_555 1_555
C29 N1 1_555 1_555
C30 C17 1_555 1_555
H13 C30 1_555 1_555
C31 C28 1_555 1_555
H14 C31 1_555 1_555
C32 C4 1_555 1_555
H15 C32 1_555 1_555
C33 C22 1_555 1_555
H16 C33 1_555 1_555
C34 C27 1_555 1_555
C35 C9 1_555 1_555
H17 C35 1_555 1_555
C36 C26 1_555 1_555
H18 C36 1_555 1_555
O10 N1 1_555 1_555
C37 C23 1_555 1_555
H19 C37 1_555 1_555
C38 C14 1_555 1_555
H20 C38 1_555 1_555
C39 C8 1_555 1_555
H21 C39 1_555 1_555
O11 Zn3 1_555 1_555
C40 C18 1_555 1_555
H22 C40 1_555 1_555
O12 Zn3 1_555 1_555
Zn4 O15 1_555 1_555
Zn5 O18 1_555 1_555
O14 Zn1 1_555 1_555
O15 Zn6 1_555 1_555
O16 C43 1_555 1_555
O17 C41 1_555 1_555
O18 C43 1_555 1_555
C41 O14 1_555 1_555
O19 Zn4 1_555 1_555
C42 H23 1_555 1_555
C43 C60 1_555 1_555
C44 C48 1_555 1_555
N3 N4 1_555 1_555
C45 H24 1_555 1_555
C46 C49 1_555 1_555
C47 C42 1_555 1_555
C48 C76 1_555 1_555
C49 C42 1_555 1_555
N4 C64 1_555 1_555
C51 C45 1_555 1_555
C52 C46 1_555 1_555
H25 C52 1_555 1_555
C53 C44 1_555 1_555
H26 C53 1_555 1_555
C54 C46 1_555 1_555
H27 C54 1_555 1_555
C55 C45 1_555 1_555
H28 C55 1_555 1_555
C56 C47 1_555 1_555
H29 C56 1_555 1_555
C57 C63 1_555 1_555
C58 C59 1_555 1_555
C59 O19 1_555 1_555
C60 C61 1_555 1_555
C61 C52 1_555 1_555
H30 C61 1_555 1_555
C62 C41 1_555 1_555
C63 C53 1_555 1_555
C64 C56 1_555 1_555
C65 C51 1_555 1_555
H31 C65 1_555 1_555
C66 C58 1_555 1_555
H32 C66 1_555 1_555
C68 C57 1_555 1_555
H34 C68 1_555 1_555
O21 C59 1_555 1_555
C69 N3 1_555 1_555
C72 C44 1_555 1_555
H37 C72 1_555 1_555
C73 C62 1_555 1_555
H38 C73 1_555 1_555
C75 C49 1_555 1_555
H39 C75 1_555 1_555
C76 C66 1_555 1_555
H40 C76 1_555 1_555
O22 N3 1_555 1_555
C77 C63 1_555 1_555
H41 C77 1_555 1_555
C78 C54 1_555 1_555
H42 C78 1_555 1_555
C79 C48 1_555 1_555
H43 C79 1_555 1_555
O23 Zn5 1_555 1_555
C80 C58 1_555 1_555
O24 Zn5 1_555 1_555
Zn6 O2 1_555 1_555
Zn7 O1 1_555 1_555
Zn9 O17 1_555 1_555
Zn10 O5 1_555 1_555
Zn11 O4 1_555 1_555
Zn12 O16 1_555 1_555
Zn13 O8 1_555 1_555
Zn15 O15 1_555 1_555
O25 Zn1 1_555 1_555
O26 Zn1 1_555 1_555
O27 Zn1 1_555 1_555
O28 Zn1 1_555 1_555
O29 Zn3 1_555 1_555
O30 Zn5 1_555 1_555
O31 Zn4 1_555 1_555
O32 Zn2 1_555 1_555
O33 Zn2 1_555 1_555
O34 Zn4 1_555 1_555
O35 Zn3 1_555 1_555
O36 Zn5 1_555 1_555
C7 C11 1_555 1_555
C20 C38 1_555 1_555
C24 C35 1_555 1_555
C25 C33 1_555 1_555
C27 C30 1_555 1_555
C29 C32 1_555 1_555
C29 C37 1_555 1_555
C31 C34 1_555 1_555
C39 C40 1_555 1_555
C47 C51 1_555 1_555
C55 C62 1_555 1_555
C60 C78 1_555 1_555
C64 C75 1_555 1_555
C65 C73 1_555 1_555
C69 C72 1_555 1_555
C69 C77 1_555 1_555
C79 C80 1_555 1_555
Zn9 O28 1_555 1_555
Zn11 O29 1_555 1_555
Zn12 O30 1_555 1_555
O11 H45 1_555 1_555
O11 H46 1_555 1_555
O12 H47 1_555 1_555
O12 H48 1_555 1_555
O24 H49 1_555 1_555
O24 H50 1_555 1_555
O23 H51 1_555 1_555
O23 H52 1_555 1_555
O13 C50 1_555 1_555
O20 C50 1_555 1_555
C50 C74 1_555 1_555
C67 H33 1_555 1_555
H35 C70 1_555 1_555
H36 C71 1_555 1_555
C74 C67 1_555 1_555
Zn8 O13 1_555 1_555
Zn14 O20 1_555 1_555
C67 C70 1_555 1_555
C71 C74 1_555 1_555
Zn1_2 O3_2 1_555 1_555
Zn2_2 O3_2 1_555 1_555
O3_2 Zn16_2 1_555 1_555
O7_2 Zn2_2 1_555 1_555
C19_2 O7_2 1_555 1_555
O9_2 C19_2 1_555 1_555
Zn5_2 O18_2 1_555 1_555
O14_2 Zn1_2 1_555 1_555
O16_2 C43_2 1_555 1_555
O17_2 C41_2 1_555 1_555
O18_2 C43_2 1_555 1_555
C41_2 O14_2 1_555 1_555
C42_2 H23_2 1_555 1_555
C43_2 C60_2 1_555 1_555
C44_2 C48_2 1_555 1_555
N3_2 N4_2 1_555 1_555
C45_2 H24_2 1_555 1_555
C46_2 C49_2 1_555 1_555
C47_2 C42_2 1_555 1_555
C48_2 C76_2 1_555 1_555
C49_2 C42_2 1_555 1_555
N4_2 C64_2 1_555 1_555
C51_2 C45_2 1_555 1_555
C52_2 C46_2 1_555 1_555
H25_2 C52_2 1_555 1_555
C53_2 C44_2 1_555 1_555
H26_2 C53_2 1_555 1_555
C54_2 C46_2 1_555 1_555
H27_2 C54_2 1_555 1_555
C55_2 C45_2 1_555 1_555
H28_2 C55_2 1_555 1_555
C56_2 C47_2 1_555 1_555
H29_2 C56_2 1_555 1_555
C57_2 C63_2 1_555 1_555
C60_2 C61_2 1_555 1_555
C61_2 C52_2 1_555 1_555
H30_2 C61_2 1_555 1_555
C62_2 C41_2 1_555 1_555
C63_2 C53_2 1_555 1_555
C64_2 C56_2 1_555 1_555
C65_2 C51_2 1_555 1_555
H31_2 C65_2 1_555 1_555
C66_2 C58_2 1_555 1_555
H32_2 C66_2 1_555 1_555
C68_2 C57_2 1_555 1_555
H34_2 C68_2 1_555 1_555
C69_2 N3_2 1_555 1_555
C72_2 C44_2 1_555 1_555
H37_2 C72_2 1_555 1_555
C73_2 C62_2 1_555 1_555
H38_2 C73_2 1_555 1_555
C75_2 C49_2 1_555 1_555
H39_2 C75_2 1_555 1_555
C76_2 C66_2 1_555 1_555
H40_2 C76_2 1_555 1_555
O22_2 N3_2 1_555 1_555
C77_2 C63_2 1_555 1_555
H41_2 C77_2 1_555 1_555
C78_2 C54_2 1_555 1_555
H42_2 C78_2 1_555 1_555
C79_2 C48_2 1_555 1_555
H43_2 C79_2 1_555 1_555
O23_2 Zn5_2 1_555 1_555
C80_2 C58_2 1_555 1_555
O24_2 Zn5_2 1_555 1_555
Zn9_2 O17_2 1_555 1_555
Zn12_2 O16_2 1_555 1_555
O25_2 Zn1_2 1_555 1_555
O26_2 Zn1_2 1_555 1_555
O27_2 Zn1_2 1_555 1_555
O28_2 Zn1_2 1_555 1_555
O30_2 Zn5_2 1_555 1_555
O32_2 Zn2_2 1_555 1_555
O33_2 Zn2_2 1_555 1_555
O36_2 Zn5_2 1_555 1_555
C47_2 C51_2 1_555 1_555
C55_2 C62_2 1_555 1_555
C60_2 C78_2 1_555 1_555
C64_2 C75_2 1_555 1_555
C65_2 C73_2 1_555 1_555
C69_2 C72_2 1_555 1_555
C69_2 C77_2 1_555 1_555
C79_2 C80_2 1_555 1_555
Zn9_2 O28_2 1_555 1_555
Zn12_2 O30_2 1_555 1_555
O24_2 H49_2 1_555 1_555
O24_2 H50_2 1_555 1_555
O23_2 H51_2 1_555 1_555
O23_2 H52_2 1_555 1_555
O13_2 C50_2 1_555 1_555
O20_2 C50_2 1_555 1_555
C50_2 C74_2 1_555 1_555
C67_2 H33_2 1_555 1_555
H35_2 C70_2 1_555 1_555
H36_2 C71_2 1_555 1_555
C74_2 C67_2 1_555 1_555
Zn8_2 O13_2 1_555 1_555
Zn14_2 O20_2 1_555 1_555
C67_2 C70_2 1_555 1_555
C71_2 C74_2 1_555 1_555
Zn3_2 O6_2 1_555 1_555
O1_2 C10_2 1_555 1_555
O2_2 C1_2 1_555 1_555
O4_2 C3_2 1_555 1_555
O5_2 C1_2 1_555 1_555
O6_2 C3_2 1_555 1_555
C1_2 C22_2 1_555 1_555
O8_2 C10_2 1_555 1_555
C2_2 H1_2 1_555 1_555
C3_2 C20_2 1_555 1_555
C4_2 C8_2 1_555 1_555
N1_2 N2_2 1_555 1_555
C5_2 H2_2 1_555 1_555
C6_2 C9_2 1_555 1_555
C7_2 C2_2 1_555 1_555
C8_2 C36_2 1_555 1_555
C9_2 C2_2 1_555 1_555
N2_2 C24_2 1_555 1_555
C10_2 C34_2 1_555 1_555
C11_2 C5_2 1_555 1_555
C12_2 C6_2 1_555 1_555
H3_2 C12_2 1_555 1_555
C13_2 C4_2 1_555 1_555
H4_2 C13_2 1_555 1_555
C14_2 C6_2 1_555 1_555
H5_2 C14_2 1_555 1_555
C15_2 C5_2 1_555 1_555
H6_2 C15_2 1_555 1_555
C16_2 C7_2 1_555 1_555
H7_2 C16_2 1_555 1_555
C17_2 C23_2 1_555 1_555
C20_2 C21_2 1_555 1_555
C21_2 C12_2 1_555 1_555
H8_2 C21_2 1_555 1_555
C22_2 C15_2 1_555 1_555
C23_2 C13_2 1_555 1_555
C24_2 C16_2 1_555 1_555
C25_2 C11_2 1_555 1_555
H9_2 C25_2 1_555 1_555
C26_2 C18_2 1_555 1_555
H10_2 C26_2 1_555 1_555
C27_2 H11_2 1_555 1_555
C28_2 C17_2 1_555 1_555
H12_2 C28_2 1_555 1_555
C29_2 N1_2 1_555 1_555
C30_2 C17_2 1_555 1_555
H13_2 C30_2 1_555 1_555
C31_2 C28_2 1_555 1_555
H14_2 C31_2 1_555 1_555
C32_2 C4_2 1_555 1_555
H15_2 C32_2 1_555 1_555
C33_2 C22_2 1_555 1_555
H16_2 C33_2 1_555 1_555
C34_2 C27_2 1_555 1_555
C35_2 C9_2 1_555 1_555
H17_2 C35_2 1_555 1_555
C36_2 C26_2 1_555 1_555
H18_2 C36_2 1_555 1_555
O10_2 N1_2 1_555 1_555
C37_2 C23_2 1_555 1_555
H19_2 C37_2 1_555 1_555
C38_2 C14_2 1_555 1_555
H20_2 C38_2 1_555 1_555
C39_2 C8_2 1_555 1_555
H21_2 C39_2 1_555 1_555
O11_2 Zn3_2 1_555 1_555
C40_2 C18_2 1_555 1_555
H22_2 C40_2 1_555 1_555
O12_2 Zn3_2 1_555 1_555
Zn4_2 O15_2 1_555 1_555
O15_2 Zn6_2 1_555 1_555
O19_2 Zn4_2 1_555 1_555
C59_2 O19_2 1_555 1_555
O21_2 C59_2 1_555 1_555
Zn6_2 O2_2 1_555 1_555
Zn7_2 O1_2 1_555 1_555
Zn10_2 O5_2 1_555 1_555
Zn11_2 O4_2 1_555 1_555
Zn13_2 O8_2 1_555 1_555
Zn15_2 O15_2 1_555 1_555
O29_2 Zn3_2 1_555 1_555
O31_2 Zn4_2 1_555 1_555
O34_2 Zn4_2 1_555 1_555
O35_2 Zn3_2 1_555 1_555
C7_2 C11_2 1_555 1_555
C20_2 C38_2 1_555 1_555
C24_2 C35_2 1_555 1_555
C25_2 C33_2 1_555 1_555
C27_2 C30_2 1_555 1_555
C29_2 C32_2 1_555 1_555
C29_2 C37_2 1_555 1_555
C31_2 C34_2 1_555 1_555
C39_2 C40_2 1_555 1_555
Zn11_2 O29_2 1_555 1_555
O11_2 H45_2 1_555 1_555
O11_2 H46_2 1_555 1_555
O12_2 H47_2 1_555 1_555
O12_2 H48_2 1_555 1_555
Zn3_3 O6_3 1_555 1_555
O1_3 C10_3 1_555 1_555
O2_3 C1_3 1_555 1_555
O4_3 C3_3 1_555 1_555
O5_3 C1_3 1_555 1_555
O6_3 C3_3 1_555 1_555
C1_3 C22_3 1_555 1_555
O8_3 C10_3 1_555 1_555
C2_3 H1_3 1_555 1_555
C3_3 C20_3 1_555 1_555
C4_3 C8_3 1_555 1_555
N1_3 N2_3 1_555 1_555
C5_3 H2_3 1_555 1_555
C6_3 C9_3 1_555 1_555
C7_3 C2_3 1_555 1_555
C8_3 C36_3 1_555 1_555
C9_3 C2_3 1_555 1_555
N2_3 C24_3 1_555 1_555
C10_3 C34_3 1_555 1_555
C11_3 C5_3 1_555 1_555
C12_3 C6_3 1_555 1_555
H3_3 C12_3 1_555 1_555
C13_3 C4_3 1_555 1_555
H4_3 C13_3 1_555 1_555
C14_3 C6_3 1_555 1_555
H5_3 C14_3 1_555 1_555
C15_3 C5_3 1_555 1_555
H6_3 C15_3 1_555 1_555
C16_3 C7_3 1_555 1_555
H7_3 C16_3 1_555 1_555
C17_3 C23_3 1_555 1_555
C20_3 C21_3 1_555 1_555
C21_3 C12_3 1_555 1_555
H8_3 C21_3 1_555 1_555
C22_3 C15_3 1_555 1_555
C23_3 C13_3 1_555 1_555
C24_3 C16_3 1_555 1_555
C25_3 C11_3 1_555 1_555
H9_3 C25_3 1_555 1_555
C26_3 C18_3 1_555 1_555
H10_3 C26_3 1_555 1_555
C27_3 H11_3 1_555 1_555
C28_3 C17_3 1_555 1_555
H12_3 C28_3 1_555 1_555
C29_3 N1_3 1_555 1_555
C30_3 C17_3 1_555 1_555
H13_3 C30_3 1_555 1_555
C31_3 C28_3 1_555 1_555
H14_3 C31_3 1_555 1_555
C32_3 C4_3 1_555 1_555
H15_3 C32_3 1_555 1_555
C33_3 C22_3 1_555 1_555
H16_3 C33_3 1_555 1_555
C34_3 C27_3 1_555 1_555
C35_3 C9_3 1_555 1_555
H17_3 C35_3 1_555 1_555
C36_3 C26_3 1_555 1_555
H18_3 C36_3 1_555 1_555
O10_3 N1_3 1_555 1_555
C37_3 C23_3 1_555 1_555
H19_3 C37_3 1_555 1_555
C38_3 C14_3 1_555 1_555
H20_3 C38_3 1_555 1_555
C39_3 C8_3 1_555 1_555
H21_3 C39_3 1_555 1_555
O11_3 Zn3_3 1_555 1_555
C40_3 C18_3 1_555 1_555
H22_3 C40_3 1_555 1_555
O12_3 Zn3_3 1_555 1_555
Zn4_3 O15_3 1_555 1_555
O15_3 Zn6_3 1_555 1_555
O19_3 Zn4_3 1_555 1_555
C59_3 O19_3 1_555 1_555
O21_3 C59_3 1_555 1_555
Zn6_3 O2_3 1_555 1_555
Zn7_3 O1_3 1_555 1_555
Zn10_3 O5_3 1_555 1_555
Zn11_3 O4_3 1_555 1_555
Zn13_3 O8_3 1_555 1_555
Zn15_3 O15_3 1_555 1_555
O29_3 Zn3_3 1_555 1_555
O31_3 Zn4_3 1_555 1_555
O34_3 Zn4_3 1_555 1_555
O35_3 Zn3_3 1_555 1_555
C7_3 C11_3 1_555 1_555
C20_3 C38_3 1_555 1_555
C24_3 C35_3 1_555 1_555
C25_3 C33_3 1_555 1_555
C27_3 C30_3 1_555 1_555
C29_3 C32_3 1_555 1_555
C29_3 C37_3 1_555 1_555
C31_3 C34_3 1_555 1_555
C39_3 C40_3 1_555 1_555
Zn11_3 O29_3 1_555 1_555
O11_3 H45_3 1_555 1_555
O11_3 H46_3 1_555 1_555
O12_3 H47_3 1_555 1_555
O12_3 H48_3 1_555 1_555
Zn1_3 O3_3 1_555 1_555
Zn2_3 O3_3 1_555 1_555
O3_3 Zn16_3 1_555 1_555
O7_3 Zn2_3 1_555 1_555
C19_3 O7_3 1_555 1_555
O9_3 C19_3 1_555 1_555
Zn5_3 O18_3 1_555 1_555
O14_3 Zn1_3 1_555 1_555
O16_3 C43_3 1_555 1_555
O17_3 C41_3 1_555 1_555
O18_3 C43_3 1_555 1_555
C41_3 O14_3 1_555 1_555
C42_3 H23_3 1_555 1_555
C43_3 C60_3 1_555 1_555
C44_3 C48_3 1_555 1_555
N3_3 N4_3 1_555 1_555
C45_3 H24_3 1_555 1_555
C46_3 C49_3 1_555 1_555
C47_3 C42_3 1_555 1_555
C48_3 C76_3 1_555 1_555
C49_3 C42_3 1_555 1_555
N4_3 C64_3 1_555 1_555
C51_3 C45_3 1_555 1_555
C52_3 C46_3 1_555 1_555
H25_3 C52_3 1_555 1_555
C53_3 C44_3 1_555 1_555
H26_3 C53_3 1_555 1_555
C54_3 C46_3 1_555 1_555
H27_3 C54_3 1_555 1_555
C55_3 C45_3 1_555 1_555
H28_3 C55_3 1_555 1_555
C56_3 C47_3 1_555 1_555
H29_3 C56_3 1_555 1_555
C57_3 C63_3 1_555 1_555
C60_3 C61_3 1_555 1_555
C61_3 C52_3 1_555 1_555
H30_3 C61_3 1_555 1_555
C62_3 C41_3 1_555 1_555
C63_3 C53_3 1_555 1_555
C64_3 C56_3 1_555 1_555
C65_3 C51_3 1_555 1_555
H31_3 C65_3 1_555 1_555
C66_3 C58_3 1_555 1_555
H32_3 C66_3 1_555 1_555
C68_3 C57_3 1_555 1_555
H34_3 C68_3 1_555 1_555
C69_3 N3_3 1_555 1_555
C72_3 C44_3 1_555 1_555
H37_3 C72_3 1_555 1_555
C73_3 C62_3 1_555 1_555
H38_3 C73_3 1_555 1_555
C75_3 C49_3 1_555 1_555
H39_3 C75_3 1_555 1_555
C76_3 C66_3 1_555 1_555
H40_3 C76_3 1_555 1_555
O22_3 N3_3 1_555 1_555
C77_3 C63_3 1_555 1_555
H41_3 C77_3 1_555 1_555
C78_3 C54_3 1_555 1_555
H42_3 C78_3 1_555 1_555
C79_3 C48_3 1_555 1_555
H43_3 C79_3 1_555 1_555
O23_3 Zn5_3 1_555 1_555
C80_3 C58_3 1_555 1_555
O24_3 Zn5_3 1_555 1_555
Zn9_3 O17_3 1_555 1_555
Zn12_3 O16_3 1_555 1_555
O25_3 Zn1_3 1_555 1_555
O26_3 Zn1_3 1_555 1_555
O27_3 Zn1_3 1_555 1_555
O28_3 Zn1_3 1_555 1_555
O30_3 Zn5_3 1_555 1_555
O32_3 Zn2_3 1_555 1_555
O33_3 Zn2_3 1_555 1_555
O36_3 Zn5_3 1_555 1_555
C47_3 C51_3 1_555 1_555
C55_3 C62_3 1_555 1_555
C60_3 C78_3 1_555 1_555
C64_3 C75_3 1_555 1_555
C65_3 C73_3 1_555 1_555
C69_3 C72_3 1_555 1_555
C69_3 C77_3 1_555 1_555
C79_3 C80_3 1_555 1_555
Zn9_3 O28_3 1_555 1_555
Zn12_3 O30_3 1_555 1_555
O24_3 H49_3 1_555 1_555
O24_3 H50_3 1_555 1_555
O23_3 H51_3 1_555 1_555
O23_3 H52_3 1_555 1_555
O13_3 C50_3 1_555 1_555
O20_3 C50_3 1_555 1_555
C50_3 C74_3 1_555 1_555
C67_3 H33_3 1_555 1_555
H35_3 C70_3 1_555 1_555
H36_3 C71_3 1_555 1_555
C74_3 C67_3 1_555 1_555
Zn8_3 O13_3 1_555 1_555
Zn14_3 O20_3 1_555 1_555
C67_3 C70_3 1_555 1_555
C71_3 C74_3 1_555 1_555
O25_4 Zn6 1_555 1_555
O26_4 Zn6 1_555 1_555
O27_4 Zn6 1_555 1_555
O28_4 Zn6 1_555 1_555
Zn10 O28_4 1_555 1_555
O25_5 Zn6_3 1_555 1_555
O26_5 Zn6_3 1_555 1_555
O27_5 Zn6_3 1_555 1_555
O28_5 Zn6_3 1_555 1_555
Zn10_3 O28_5 1_555 1_555
O25_6 Zn6_2 1_555 1_555
O26_6 Zn6_2 1_555 1_555
O27_6 Zn6_2 1_555 1_555
O28_6 Zn6_2 1_555 1_555
Zn10_2 O28_6 1_555 1_555
Zn1_4 O3_4 1_555 1_555
Zn2_4 O3_4 1_555 1_555
O3_4 Zn16_4 1_555 1_555
Zn13 O18_4 1_555 1_555
O13_4 C50_4 1_555 1_555
O14_4 Zn1_4 1_555 1_555
O16_4 C43_4 1_555 1_555
O18_4 C43_4 1_555 1_555
O35 C50_4 1_555 1_555
C42_4 H23_4 1_555 1_555
C43_4 C60_4 1_555 1_555
C44_4 C48_4 1_555 1_555
N3_4 N4_4 1_555 1_555
C45_4 H24_4 1_555 1_555
C46_4 C49_4 1_555 1_555
C47_4 C42_4 1_555 1_555
C49_4 C42_4 1_555 1_555
N4_4 C64_4 1_555 1_555
C50_4 C74_4 1_555 1_555
C51_4 C45_4 1_555 1_555
C52_4 C46_4 1_555 1_555
H25_4 C52_4 1_555 1_555
C53_4 C44_4 1_555 1_555
H26_4 C53_4 1_555 1_555
C54_4 C46_4 1_555 1_555
H27_4 C54_4 1_555 1_555
C55_4 C45_4 1_555 1_555
H28_4 C55_4 1_555 1_555
C56_4 C47_4 1_555 1_555
H29_4 C56_4 1_555 1_555
C57_4 C63_4 1_555 1_555
C60_4 C61_4 1_555 1_555
C61_4 C52_4 1_555 1_555
H30_4 C61_4 1_555 1_555
C63_4 C53_4 1_555 1_555
C64_4 C56_4 1_555 1_555
C67_4 H33_4 1_555 1_555
C68_4 C57_4 1_555 1_555
H34_4 C68_4 1_555 1_555
C69_4 N3_4 1_555 1_555
C70_4 C57_4 1_555 1_555
H35_4 C70_4 1_555 1_555
C71_4 C68_4 1_555 1_555
H36_4 C71_4 1_555 1_555
C72_4 C44_4 1_555 1_555
H37_4 C72_4 1_555 1_555
C74_4 C67_4 1_555 1_555
C75_4 C49_4 1_555 1_555
H39_4 C75_4 1_555 1_555
O22_4 N3_4 1_555 1_555
C77_4 C63_4 1_555 1_555
H41_4 C77_4 1_555 1_555
C78_4 C54_4 1_555 1_555
H42_4 C78_4 1_555 1_555
C79_4 C48_4 1_555 1_555
H43_4 C79_4 1_555 1_555
O23_4 Zn13 1_555 1_555
H44_4 C80_4 1_555 1_555
O24_4 Zn13 1_555 1_555
Zn8_4 O13_4 1_555 1_555
Zn12_4 O16_4 1_555 1_555
O25_7 Zn1_4 1_555 1_555
O30_4 Zn13 1_555 1_555
O32_4 Zn2_4 1_555 1_555
O33_4 Zn2_4 1_555 1_555
C47_4 C51_4 1_555 1_555
C55_4 C62_4 1_555 1_555
C60_4 C78_4 1_555 1_555
C64_4 C75_4 1_555 1_555
C67_4 C70_4 1_555 1_555
C69_4 C72_4 1_555 1_555
C69_4 C77_4 1_555 1_555
C71_4 C74_4 1_555 1_555
C79_4 C80_4 1_555 1_555
Zn12_4 O30_4 1_555 1_555
O24_4 H49_4 1_555 1_555
O24_4 H50_4 1_555 1_555
O23_4 H51_4 1_555 1_555
O23_4 H52_4 1_555 1_555
Zn3_4 O6_4 1_555 1_555
O1_4 C10_4 1_555 1_555
O27_3 C1_4 1_555 1_555
O4_4 C3_4 1_555 1_555
O33_3 C1_4 1_555 1_555
O6_4 C3_4 1_555 1_555
C1_4 C22_4 1_555 1_555
O8_4 C10_4 1_555 1_555
C2_4 H1_4 1_555 1_555
C3_4 C20_4 1_555 1_555
C4_4 C8_4 1_555 1_555
N1_4 N2_4 1_555 1_555
C5_4 H2_4 1_555 1_555
C6_4 C9_4 1_555 1_555
C7_4 C2_4 1_555 1_555
C8_4 C36_4 1_555 1_555
C9_4 C2_4 1_555 1_555
N2_4 C24_4 1_555 1_555
C10_4 C34_4 1_555 1_555
C11_4 C5_4 1_555 1_555
C12_4 C6_4 1_555 1_555
H3_4 C12_4 1_555 1_555
C13_4 C4_4 1_555 1_555
H4_4 C13_4 1_555 1_555
C14_4 C6_4 1_555 1_555
H5_4 C14_4 1_555 1_555
C15_4 C5_4 1_555 1_555
H6_4 C15_4 1_555 1_555
C16_4 C7_4 1_555 1_555
H7_4 C16_4 1_555 1_555
C17_4 C23_4 1_555 1_555
C18_4 C19_4 1_555 1_555
C19_4 O7_4 1_555 1_555
C20_4 C21_4 1_555 1_555
C21_4 C12_4 1_555 1_555
H8_4 C21_4 1_555 1_555
C22_4 C15_4 1_555 1_555
C23_4 C13_4 1_555 1_555
C24_4 C16_4 1_555 1_555
C25_4 C11_4 1_555 1_555
H9_4 C25_4 1_555 1_555
C26_4 C18_4 1_555 1_555
H10_4 C26_4 1_555 1_555
C27_4 H11_4 1_555 1_555
C28_4 C17_4 1_555 1_555
H12_4 C28_4 1_555 1_555
C29_4 N1_4 1_555 1_555
C30_4 C17_4 1_555 1_555
H13_4 C30_4 1_555 1_555
C31_4 C28_4 1_555 1_555
H14_4 C31_4 1_555 1_555
C32_4 C4_4 1_555 1_555
H15_4 C32_4 1_555 1_555
C33_4 C22_4 1_555 1_555
H16_4 C33_4 1_555 1_555
C34_4 C27_4 1_555 1_555
C35_4 C9_4 1_555 1_555
H17_4 C35_4 1_555 1_555
C36_4 C26_4 1_555 1_555
H18_4 C36_4 1_555 1_555
O10_4 N1_4 1_555 1_555
C37_4 C23_4 1_555 1_555
H19_4 C37_4 1_555 1_555
C38_4 C14_4 1_555 1_555
H20_4 C38_4 1_555 1_555
C39_4 C8_4 1_555 1_555
H21_4 C39_4 1_555 1_555
O11_4 Zn3_4 1_555 1_555
C40_4 C18_4 1_555 1_555
H22_4 C40_4 1_555 1_555
O12_4 Zn3_4 1_555 1_555
O17_4 C41_4 1_555 1_555
O19_4 Zn9_3 1_555 1_555
C58_4 C59_4 1_555 1_555
C59_4 O19_4 1_555 1_555
H31_4 C65_4 1_555 1_555
C66_4 C58_4 1_555 1_555
H32_4 C66_4 1_555 1_555
O21_4 C59_4 1_555 1_555
H38_4 C73_4 1_555 1_555
C76_4 C66_4 1_555 1_555
H40_4 C76_4 1_555 1_555
Zn8_3 O1_4 1_555 1_555
Zn9_4 O17_4 1_555 1_555
Zn11_4 O4_4 1_555 1_555
Zn13_4 O8_4 1_555 1_555
Zn15_4 O28_3 1_555 1_555
O26_7 Zn1_5 1_555 1_555
O27_7 Zn1_5 1_555 1_555
O28_7 Zn1_5 1_555 1_555
O29_4 Zn3_4 1_555 1_555
O31_4 Zn9_3 1_555 1_555
O35_4 Zn3_4 1_555 1_555
C7_4 C11_4 1_555 1_555
C20_4 C38_4 1_555 1_555
C24_4 C35_4 1_555 1_555
C25_4 C33_4 1_555 1_555
C27_4 C30_4 1_555 1_555
C29_4 C32_4 1_555 1_555
C29_4 C37_4 1_555 1_555
C31_4 C34_4 1_555 1_555
C39_4 C40_4 1_555 1_555
C65_4 C73_4 1_555 1_555
Zn9_4 O28_7 1_555 1_555
Zn11_4 O29_4 1_555 1_555
O11_4 H45_4 1_555 1_555
O11_4 H46_4 1_555 1_555
O12_4 H47_4 1_555 1_555
O12_4 H48_4 1_555 1_555
Zn1_6 O3_5 1_555 1_555
Zn2_5 O3_5 1_555 1_555
O1_5 C10_5 1_555 1_555
O27 C1_5 1_555 1_555
O3_5 Zn16_5 1_555 1_555
O33 C1_5 1_555 1_555
C1_5 C22_5 1_555 1_555
O7_5 Zn2_5 1_555 1_555
O8_5 C10_5 1_555 1_555
C2_5 H1_5 1_555 1_555
C3_5 C20_5 1_555 1_555
C4_5 C8_5 1_555 1_555
N1_5 N2_5 1_555 1_555
C5_5 H2_5 1_555 1_555
C6_5 C9_5 1_555 1_555
C7_5 C2_5 1_555 1_555
C8_5 C36_5 1_555 1_555
C9_5 C2_5 1_555 1_555
N2_5 C24_5 1_555 1_555
C10_5 C34_5 1_555 1_555
C11_5 C5_5 1_555 1_555
C12_5 C6_5 1_555 1_555
H3_5 C12_5 1_555 1_555
C13_5 C4_5 1_555 1_555
H4_5 C13_5 1_555 1_555
C14_5 C6_5 1_555 1_555
H5_5 C14_5 1_555 1_555
C15_5 C5_5 1_555 1_555
H6_5 C15_5 1_555 1_555
C16_5 C7_5 1_555 1_555
H7_5 C16_5 1_555 1_555
C17_5 C23_5 1_555 1_555
C18_5 C19_5 1_555 1_555
C19_5 O7_5 1_555 1_555
C20_5 C21_5 1_555 1_555
C21_5 C12_5 1_555 1_555
H8_5 C21_5 1_555 1_555
C22_5 C15_5 1_555 1_555
C23_5 C13_5 1_555 1_555
C24_5 C16_5 1_555 1_555
C25_5 C11_5 1_555 1_555
H9_5 C25_5 1_555 1_555
C26_5 C18_5 1_555 1_555
H10_5 C26_5 1_555 1_555
C27_5 H11_5 1_555 1_555
C28_5 C17_5 1_555 1_555
H12_5 C28_5 1_555 1_555
O9_5 C19_5 1_555 1_555
C29_5 N1_5 1_555 1_555
C30_5 C17_5 1_555 1_555
H13_5 C30_5 1_555 1_555
C31_5 C28_5 1_555 1_555
H14_5 C31_5 1_555 1_555
C32_5 C4_5 1_555 1_555
H15_5 C32_5 1_555 1_555
C33_5 C22_5 1_555 1_555
H16_5 C33_5 1_555 1_555
C34_5 C27_5 1_555 1_555
C35_5 C9_5 1_555 1_555
H17_5 C35_5 1_555 1_555
C36_5 C26_5 1_555 1_555
H18_5 C36_5 1_555 1_555
O10_5 N1_5 1_555 1_555
C37_5 C23_5 1_555 1_555
H19_5 C37_5 1_555 1_555
C38_5 C14_5 1_555 1_555
H20_5 C38_5 1_555 1_555
C39_5 C8_5 1_555 1_555
H21_5 C39_5 1_555 1_555
C40_5 C18_5 1_555 1_555
H22_5 C40_5 1_555 1_555
Zn13_2 O18_5 1_555 1_555
O13_5 C50_5 1_555 1_555
O14_5 Zn1_6 1_555 1_555
O16_5 C43_5 1_555 1_555
O17_5 C41_5 1_555 1_555
O18_5 C43_5 1_555 1_555
C41_5 O14_5 1_555 1_555
O19_5 Zn9 1_555 1_555
O35_2 C50_5 1_555 1_555
C42_5 H23_5 1_555 1_555
C43_5 C60_5 1_555 1_555
C44_5 C48_5 1_555 1_555
N3_5 N4_5 1_555 1_555
C45_5 H24_5 1_555 1_555
C46_5 C49_5 1_555 1_555
C47_5 C42_5 1_555 1_555
C48_5 C76_5 1_555 1_555
C49_5 C42_5 1_555 1_555
N4_5 C64_5 1_555 1_555
C50_5 C74_5 1_555 1_555
C51_5 C45_5 1_555 1_555
C52_5 C46_5 1_555 1_555
H25_5 C52_5 1_555 1_555
C53_5 C44_5 1_555 1_555
H26_5 C53_5 1_555 1_555
C54_5 C46_5 1_555 1_555
H27_5 C54_5 1_555 1_555
C55_5 C45_5 1_555 1_555
H28_5 C55_5 1_555 1_555
C56_5 C47_5 1_555 1_555
H29_5 C56_5 1_555 1_555
C57_5 C63_5 1_555 1_555
C58_5 C59_5 1_555 1_555
C59_5 O19_5 1_555 1_555
C60_5 C61_5 1_555 1_555
C61_5 C52_5 1_555 1_555
H30_5 C61_5 1_555 1_555
C62_5 C41_5 1_555 1_555
C63_5 C53_5 1_555 1_555
C64_5 C56_5 1_555 1_555
C65_5 C51_5 1_555 1_555
H31_5 C65_5 1_555 1_555
C66_5 C58_5 1_555 1_555
H32_5 C66_5 1_555 1_555
C67_5 H33_5 1_555 1_555
C68_5 C57_5 1_555 1_555
H34_5 C68_5 1_555 1_555
O21_5 C59_5 1_555 1_555
C69_5 N3_5 1_555 1_555
C70_5 C57_5 1_555 1_555
H35_5 C70_5 1_555 1_555
C71_5 C68_5 1_555 1_555
H36_5 C71_5 1_555 1_555
C72_5 C44_5 1_555 1_555
H37_5 C72_5 1_555 1_555
C73_5 C62_5 1_555 1_555
H38_5 C73_5 1_555 1_555
C74_5 C67_5 1_555 1_555
C75_5 C49_5 1_555 1_555
H39_5 C75_5 1_555 1_555
C76_5 C66_5 1_555 1_555
H40_5 C76_5 1_555 1_555
O22_5 N3_5 1_555 1_555
C77_5 C63_5 1_555 1_555
H41_5 C77_5 1_555 1_555
C78_5 C54_5 1_555 1_555
H42_5 C78_5 1_555 1_555
C79_5 C48_5 1_555 1_555
H43_5 C79_5 1_555 1_555
O23_5 Zn13_2 1_555 1_555
C80_5 C58_5 1_555 1_555
H44_5 C80_5 1_555 1_555
O24_5 Zn13_2 1_555 1_555
Zn8 O1_5 1_555 1_555
Zn8_6 O13_5 1_555 1_555
Zn9_5 O17_5 1_555 1_555
Zn12_5 O16_5 1_555 1_555
Zn13_5 O8_5 1_555 1_555
Zn15_5 O28 1_555 1_555
O25_8 Zn1_6 1_555 1_555
O26_8 Zn1_6 1_555 1_555
O27_8 Zn1_6 1_555 1_555
O28_8 Zn1_6 1_555 1_555
O30_5 Zn13_2 1_555 1_555
O31_5 Zn9 1_555 1_555
O32_5 Zn2_5 1_555 1_555
O33_5 Zn2_5 1_555 1_555
C7_5 C11_5 1_555 1_555
C20_5 C38_5 1_555 1_555
C24_5 C35_5 1_555 1_555
C25_5 C33_5 1_555 1_555
C27_5 C30_5 1_555 1_555
C29_5 C32_5 1_555 1_555
C29_5 C37_5 1_555 1_555
C31_5 C34_5 1_555 1_555
C39_5 C40_5 1_555 1_555
C47_5 C51_5 1_555 1_555
C55_5 C62_5 1_555 1_555
C60_5 C78_5 1_555 1_555
C64_5 C75_5 1_555 1_555
C65_5 C73_5 1_555 1_555
C67_5 C70_5 1_555 1_555
C69_5 C72_5 1_555 1_555
C69_5 C77_5 1_555 1_555
C71_5 C74_5 1_555 1_555
C79_5 C80_5 1_555 1_555
Zn9_5 O28_8 1_555 1_555
Zn12_5 O30_5 1_555 1_555
O24_5 H49_5 1_555 1_555
O24_5 H50_5 1_555 1_555
O23_5 H51_5 1_555 1_555
O23_5 H52_5 1_555 1_555
Zn3_5 O6_5 1_555 1_555
O11_5 Zn3_5 1_555 1_555
O12_5 Zn3_5 1_555 1_555
Zn11_5 O4_5 1_555 1_555
O29_5 Zn3_5 1_555 1_555
O35_5 Zn3_5 1_555 1_555
Zn11_5 O29_5 1_555 1_555
O11_5 H45_5 1_555 1_555
O11_5 H46_5 1_555 1_555
O12_5 H47_5 1_555 1_555
O12_5 H48_5 1_555 1_555
Zn3_6 O6_6 1_555 1_555
O11_6 Zn3_6 1_555 1_555
O12_6 Zn3_6 1_555 1_555
Zn11_6 O4_6 1_555 1_555
O29_6 Zn3_6 1_555 1_555
O35_6 Zn3_6 1_555 1_555
Zn11_6 O29_6 1_555 1_555
O11_6 H45_6 1_555 1_555
O11_6 H46_6 1_555 1_555
O12_6 H47_6 1_555 1_555
O12_6 H48_6 1_555 1_555
O1_6 C10_6 1_555 1_555
O27_2 C1_6 1_555 1_555
O33_2 C1_6 1_555 1_555
C1_6 C22_6 1_555 1_555
O8_6 C10_6 1_555 1_555
C2_6 H1_6 1_555 1_555
C3_6 C20_6 1_555 1_555
C4_6 C8_6 1_555 1_555
N1_6 N2_6 1_555 1_555
C5_6 H2_6 1_555 1_555
C6_6 C9_6 1_555 1_555
C7_6 C2_6 1_555 1_555
C8_6 C36_6 1_555 1_555
C9_6 C2_6 1_555 1_555
N2_6 C24_6 1_555 1_555
C10_6 C34_6 1_555 1_555
C11_6 C5_6 1_555 1_555
C12_6 C6_6 1_555 1_555
H3_6 C12_6 1_555 1_555
C13_6 C4_6 1_555 1_555
H4_6 C13_6 1_555 1_555
C14_6 C6_6 1_555 1_555
H5_6 C14_6 1_555 1_555
C15_6 C5_6 1_555 1_555
H6_6 C15_6 1_555 1_555
C16_6 C7_6 1_555 1_555
H7_6 C16_6 1_555 1_555
C17_6 C23_6 1_555 1_555
C18_6 C19_6 1_555 1_555
C19_6 O7_6 1_555 1_555
C20_6 C21_6 1_555 1_555
C21_6 C12_6 1_555 1_555
H8_6 C21_6 1_555 1_555
C22_6 C15_6 1_555 1_555
C23_6 C13_6 1_555 1_555
C24_6 C16_6 1_555 1_555
C25_6 C11_6 1_555 1_555
H9_6 C25_6 1_555 1_555
C26_6 C18_6 1_555 1_555
H10_6 C26_6 1_555 1_555
C27_6 H11_6 1_555 1_555
C28_6 C17_6 1_555 1_555
H12_6 C28_6 1_555 1_555
C29_6 N1_6 1_555 1_555
C30_6 C17_6 1_555 1_555
H13_6 C30_6 1_555 1_555
C31_6 C28_6 1_555 1_555
H14_6 C31_6 1_555 1_555
C32_6 C4_6 1_555 1_555
H15_6 C32_6 1_555 1_555
C33_6 C22_6 1_555 1_555
H16_6 C33_6 1_555 1_555
C34_6 C27_6 1_555 1_555
C35_6 C9_6 1_555 1_555
H17_6 C35_6 1_555 1_555
C36_6 C26_6 1_555 1_555
H18_6 C36_6 1_555 1_555
O10_6 N1_6 1_555 1_555
C37_6 C23_6 1_555 1_555
H19_6 C37_6 1_555 1_555
C38_6 C14_6 1_555 1_555
H20_6 C38_6 1_555 1_555
C39_6 C8_6 1_555 1_555
H21_6 C39_6 1_555 1_555
C40_6 C18_6 1_555 1_555
H22_6 C40_6 1_555 1_555
O17_6 C41_6 1_555 1_555
O19_6 Zn9_2 1_555 1_555
C58_6 C59_6 1_555 1_555
C59_6 O19_6 1_555 1_555
H31_6 C65_6 1_555 1_555
C66_6 C58_6 1_555 1_555
H32_6 C66_6 1_555 1_555
O21_6 C59_6 1_555 1_555
H38_6 C73_6 1_555 1_555
C76_6 C66_6 1_555 1_555
H40_6 C76_6 1_555 1_555
Zn8_2 O1_6 1_555 1_555
Zn9_6 O17_6 1_555 1_555
Zn13_6 O8_6 1_555 1_555
Zn15_6 O28_2 1_555 1_555
O26_9 Zn1_7 1_555 1_555
O27_9 Zn1_7 1_555 1_555
O28_9 Zn1_7 1_555 1_555
O31_6 Zn9_2 1_555 1_555
C7_6 C11_6 1_555 1_555
C20_6 C38_6 1_555 1_555
C24_6 C35_6 1_555 1_555
C25_6 C33_6 1_555 1_555
C27_6 C30_6 1_555 1_555
C29_6 C32_6 1_555 1_555
C29_6 C37_6 1_555 1_555
C31_6 C34_6 1_555 1_555
C39_6 C40_6 1_555 1_555
C65_6 C73_6 1_555 1_555
Zn9_6 O28_9 1_555 1_555
Zn1_8 O3_6 1_555 1_555
Zn2_6 O3_6 1_555 1_555
O3_6 Zn16_6 1_555 1_555
Zn13_3 O18_6 1_555 1_555
O13_6 C50_6 1_555 1_555
O14_6 Zn1_8 1_555 1_555
O16_6 C43_6 1_555 1_555
O18_6 C43_6 1_555 1_555
O35_3 C50_6 1_555 1_555
C42_6 H23_6 1_555 1_555
C43_6 C60_6 1_555 1_555
C44_6 C48_6 1_555 1_555
N3_6 N4_6 1_555 1_555
C45_6 H24_6 1_555 1_555
C46_6 C49_6 1_555 1_555
C47_6 C42_6 1_555 1_555
C49_6 C42_6 1_555 1_555
N4_6 C64_6 1_555 1_555
C50_6 C74_6 1_555 1_555
C51_6 C45_6 1_555 1_555
C52_6 C46_6 1_555 1_555
H25_6 C52_6 1_555 1_555
C53_6 C44_6 1_555 1_555
H26_6 C53_6 1_555 1_555
C54_6 C46_6 1_555 1_555
H27_6 C54_6 1_555 1_555
C55_6 C45_6 1_555 1_555
H28_6 C55_6 1_555 1_555
C56_6 C47_6 1_555 1_555
H29_6 C56_6 1_555 1_555
C57_6 C63_6 1_555 1_555
C60_6 C61_6 1_555 1_555
C61_6 C52_6 1_555 1_555
H30_6 C61_6 1_555 1_555
C63_6 C53_6 1_555 1_555
C64_6 C56_6 1_555 1_555
C67_6 H33_6 1_555 1_555
C68_6 C57_6 1_555 1_555
H34_6 C68_6 1_555 1_555
C69_6 N3_6 1_555 1_555
C70_6 C57_6 1_555 1_555
H35_6 C70_6 1_555 1_555
C71_6 C68_6 1_555 1_555
H36_6 C71_6 1_555 1_555
C72_6 C44_6 1_555 1_555
H37_6 C72_6 1_555 1_555
C74_6 C67_6 1_555 1_555
C75_6 C49_6 1_555 1_555
H39_6 C75_6 1_555 1_555
O22_6 N3_6 1_555 1_555
C77_6 C63_6 1_555 1_555
H41_6 C77_6 1_555 1_555
C78_6 C54_6 1_555 1_555
H42_6 C78_6 1_555 1_555
C79_6 C48_6 1_555 1_555
H43_6 C79_6 1_555 1_555
O23_6 Zn13_3 1_555 1_555
H44_6 C80_6 1_555 1_555
O24_6 Zn13_3 1_555 1_555
Zn8_8 O13_6 1_555 1_555
Zn12_6 O16_6 1_555 1_555
O25_9 Zn1_8 1_555 1_555
O30_6 Zn13_3 1_555 1_555
O32_6 Zn2_6 1_555 1_555
O33_6 Zn2_6 1_555 1_555
C47_6 C51_6 1_555 1_555
C55_6 C62_6 1_555 1_555
C60_6 C78_6 1_555 1_555
C64_6 C75_6 1_555 1_555
C67_6 C70_6 1_555 1_555
C69_6 C72_6 1_555 1_555
C69_6 C77_6 1_555 1_555
C71_6 C74_6 1_555 1_555
C79_6 C80_6 1_555 1_555
Zn12_6 O30_6 1_555 1_555
O24_6 H49_6 1_555 1_555
O24_6 H50_6 1_555 1_555
O23_6 H51_6 1_555 1_555
O23_6 H52_6 1_555 1_555
O1_7 C10_7 1_555 1_555
O36 C10_7 1_555 1_555
C4_7 C8_7 1_555 1_555
N1_7 N2_7 1_555 1_555
C10_7 C34_7 1_555 1_555
C13_7 C4_7 1_555 1_555
H4_7 C13_7 1_555 1_555
C17_7 C23_7 1_555 1_555
C23_7 C13_7 1_555 1_555
C27_7 H11_7 1_555 1_555
C28_7 C17_7 1_555 1_555
H12_7 C28_7 1_555 1_555
C29_7 N1_7 1_555 1_555
C30_7 C17_7 1_555 1_555
H13_7 C30_7 1_555 1_555
C31_7 C28_7 1_555 1_555
H14_7 C31_7 1_555 1_555
C32_7 C4_7 1_555 1_555
H15_7 C32_7 1_555 1_555
C34_7 C27_7 1_555 1_555
O10_7 N1_7 1_555 1_555
C37_7 C23_7 1_555 1_555
H19_7 C37_7 1_555 1_555
C39_7 C8_7 1_555 1_555
H21_7 C39_7 1_555 1_555
H22_7 C40_7 1_555 1_555
Zn8_7 O1_7 1_555 1_555
C27_7 C30_7 1_555 1_555
C29_7 C32_7 1_555 1_555
C29_7 C37_7 1_555 1_555
C31_7 C34_7 1_555 1_555
C39_7 C40_7 1_555 1_555
Zn14 O6_7 1_555 1_555
O4_7 C3_7 1_555 1_555
O6_7 C3_7 1_555 1_555
C2_7 H1_7 1_555 1_555
C3_7 C20_7 1_555 1_555
C5_7 H2_7 1_555 1_555
C6_7 C9_7 1_555 1_555
C7_7 C2_7 1_555 1_555
C9_7 C2_7 1_555 1_555
C11_7 C5_7 1_555 1_555
C12_7 C6_7 1_555 1_555
H3_7 C12_7 1_555 1_555
C14_7 C6_7 1_555 1_555
H5_7 C14_7 1_555 1_555
C15_7 C5_7 1_555 1_555
H6_7 C15_7 1_555 1_555
C16_7 C7_7 1_555 1_555
H7_7 C16_7 1_555 1_555
C20_7 C21_7 1_555 1_555
C21_7 C12_7 1_555 1_555
H8_7 C21_7 1_555 1_555
C22_7 C15_7 1_555 1_555
C24_7 C16_7 1_555 1_555
C35_7 C9_7 1_555 1_555
C38_7 C14_7 1_555 1_555
H20_7 C38_7 1_555 1_555
O11_7 Zn14 1_555 1_555
O12_7 Zn14 1_555 1_555
Zn11_7 O4_7 1_555 1_555
Zn15_7 O28_9 1_555 1_555
O29_7 Zn14 1_555 1_555
O31_7 Zn9_6 1_555 1_555
C7_7 C11_7 1_555 1_555
C20_7 C38_7 1_555 1_555
C24_7 C35_7 1_555 1_555
Zn11_7 O29_7 1_555 1_555
O11_7 H45_7 1_555 1_555
O11_7 H46_7 1_555 1_555
O12_7 H47_7 1_555 1_555
O12_7 H48_7 1_555 1_555
O28_6 Zn16_7 1_555 1_555
O7_7 Zn10_2 1_555 1_555
C18_7 C19_7 1_555 1_555
C19_7 O7_7 1_555 1_555
C26_7 C18_7 1_555 1_555
H10_7 C26_7 1_555 1_555
O9_7 C19_7 1_555 1_555
C36_7 C26_7 1_555 1_555
H18_7 C36_7 1_555 1_555
O34_2 C41_7 1_555 1_555
C41_7 O27_6 1_555 1_555
O32_7 Zn10_2 1_555 1_555
O33_6 C1_7 1_555 1_555
H9_7 C25_7 1_555 1_555
H16_7 C33_7 1_555 1_555
Zn13_4 O18_7 1_555 1_555
O13_7 C50_7 1_555 1_555
O16_7 C43_7 1_555 1_555
O18_7 C43_7 1_555 1_555
O35_4 C50_7 1_555 1_555
C42_7 H23_7 1_555 1_555
C43_7 C60_7 1_555 1_555
C44_7 C48_7 1_555 1_555
N3_7 N4_7 1_555 1_555
C45_7 H24_7 1_555 1_555
C46_7 C49_7 1_555 1_555
C47_7 C42_7 1_555 1_555
C48_7 C76_7 1_555 1_555
C49_7 C42_7 1_555 1_555
N4_7 C64_7 1_555 1_555
C50_7 C74_7 1_555 1_555
C51_7 C45_7 1_555 1_555
C52_7 C46_7 1_555 1_555
H25_7 C52_7 1_555 1_555
C53_7 C44_7 1_555 1_555
H26_7 C53_7 1_555 1_555
C54_7 C46_7 1_555 1_555
H27_7 C54_7 1_555 1_555
C55_7 C45_7 1_555 1_555
H28_7 C55_7 1_555 1_555
C56_7 C47_7 1_555 1_555
H29_7 C56_7 1_555 1_555
C57_7 C63_7 1_555 1_555
C58_7 C59_7 1_555 1_555
C59_7 O19_7 1_555 1_555
C60_7 C61_7 1_555 1_555
C61_7 C52_7 1_555 1_555
H30_7 C61_7 1_555 1_555
C63_7 C53_7 1_555 1_555
C64_7 C56_7 1_555 1_555
C65_7 C51_7 1_555 1_555
H31_7 C65_7 1_555 1_555
C66_7 C58_7 1_555 1_555
H32_7 C66_7 1_555 1_555
C67_7 H33_7 1_555 1_555
C68_7 C57_7 1_555 1_555
H34_7 C68_7 1_555 1_555
C69_7 N3_7 1_555 1_555
C70_7 C57_7 1_555 1_555
H35_7 C70_7 1_555 1_555
C71_7 C68_7 1_555 1_555
H36_7 C71_7 1_555 1_555
C72_7 C44_7 1_555 1_555
H37_7 C72_7 1_555 1_555
C73_7 C62_7 1_555 1_555
H38_7 C73_7 1_555 1_555
C74_7 C67_7 1_555 1_555
C75_7 C49_7 1_555 1_555
H39_7 C75_7 1_555 1_555
C76_7 C66_7 1_555 1_555
H40_7 C76_7 1_555 1_555
O22_7 N3_7 1_555 1_555
C77_7 C63_7 1_555 1_555
H41_7 C77_7 1_555 1_555
C78_7 C54_7 1_555 1_555
H42_7 C78_7 1_555 1_555
C79_7 C48_7 1_555 1_555
H43_7 C79_7 1_555 1_555
O23_7 Zn13_4 1_555 1_555
C80_7 C58_7 1_555 1_555
H44_7 C80_7 1_555 1_555
O24_7 Zn13_4 1_555 1_555
Zn7_2 O13_7 1_555 1_555
Zn12_7 O16_7 1_555 1_555
O30_7 Zn13_4 1_555 1_555
C25_7 C33_7 1_555 1_555
C47_7 C51_7 1_555 1_555
C55_7 C62_7 1_555 1_555
C60_7 C78_7 1_555 1_555
C64_7 C75_7 1_555 1_555
C65_7 C73_7 1_555 1_555
C67_7 C70_7 1_555 1_555
C69_7 C72_7 1_555 1_555
C69_7 C77_7 1_555 1_555
C71_7 C74_7 1_555 1_555
C79_7 C80_7 1_555 1_555
Zn12_7 O30_7 1_555 1_555
O24_7 H49_7 1_555 1_555
O24_7 H50_7 1_555 1_555
O23_7 H51_7 1_555 1_555
O23_7 H52_7 1_555 1_555
Zn13_5 O18_8 1_555 1_555
O23_8 Zn13_5 1_555 1_555
O24_8 Zn13_5 1_555 1_555
Zn12_8 O16_8 1_555 1_555
O30_8 Zn13_5 1_555 1_555
Zn12_8 O30_8 1_555 1_555
O24_8 H49_8 1_555 1_555
O24_8 H50_8 1_555 1_555
O23_8 H51_8 1_555 1_555
O23_8 H52_8 1_555 1_555
O28_5 Zn16_8 1_555 1_555
O7_8 Zn10_3 1_555 1_555
C18_8 C19_8 1_555 1_555
C19_8 O7_8 1_555 1_555
C26_8 C18_8 1_555 1_555
H10_8 C26_8 1_555 1_555
O9_8 C19_8 1_555 1_555
C36_8 C26_8 1_555 1_555
H18_8 C36_8 1_555 1_555
O34_3 C41_8 1_555 1_555
C41_8 O27_5 1_555 1_555
O32_8 Zn10_3 1_555 1_555
O33_4 C1_8 1_555 1_555
H9_8 C25_8 1_555 1_555
H16_8 C33_8 1_555 1_555
O13_8 C50_8 1_555 1_555
O35_5 C50_8 1_555 1_555
C42_8 H23_8 1_555 1_555
C43_8 C60_8 1_555 1_555
C44_8 C48_8 1_555 1_555
N3_8 N4_8 1_555 1_555
C45_8 H24_8 1_555 1_555
C46_8 C49_8 1_555 1_555
C47_8 C42_8 1_555 1_555
C48_8 C76_8 1_555 1_555
C49_8 C42_8 1_555 1_555
N4_8 C64_8 1_555 1_555
C50_8 C74_8 1_555 1_555
C51_8 C45_8 1_555 1_555
C52_8 C46_8 1_555 1_555
H25_8 C52_8 1_555 1_555
C53_8 C44_8 1_555 1_555
H26_8 C53_8 1_555 1_555
C54_8 C46_8 1_555 1_555
H27_8 C54_8 1_555 1_555
C55_8 C45_8 1_555 1_555
H28_8 C55_8 1_555 1_555
C56_8 C47_8 1_555 1_555
H29_8 C56_8 1_555 1_555
C57_8 C63_8 1_555 1_555
C58_8 C59_8 1_555 1_555
C59_8 O19_8 1_555 1_555
C60_8 C61_8 1_555 1_555
C61_8 C52_8 1_555 1_555
H30_8 C61_8 1_555 1_555
C63_8 C53_8 1_555 1_555
C64_8 C56_8 1_555 1_555
C65_8 C51_8 1_555 1_555
H31_8 C65_8 1_555 1_555
C66_8 C58_8 1_555 1_555
H32_8 C66_8 1_555 1_555
C67_8 H33_8 1_555 1_555
C68_8 C57_8 1_555 1_555
H34_8 C68_8 1_555 1_555
C69_8 N3_8 1_555 1_555
C70_8 C57_8 1_555 1_555
H35_8 C70_8 1_555 1_555
C71_8 C68_8 1_555 1_555
H36_8 C71_8 1_555 1_555
C72_8 C44_8 1_555 1_555
H37_8 C72_8 1_555 1_555
C73_8 C62_8 1_555 1_555
H38_8 C73_8 1_555 1_555
C74_8 C67_8 1_555 1_555
C75_8 C49_8 1_555 1_555
H39_8 C75_8 1_555 1_555
C76_8 C66_8 1_555 1_555
H40_8 C76_8 1_555 1_555
O22_8 N3_8 1_555 1_555
C77_8 C63_8 1_555 1_555
H41_8 C77_8 1_555 1_555
C78_8 C54_8 1_555 1_555
H42_8 C78_8 1_555 1_555
C79_8 C48_8 1_555 1_555
H43_8 C79_8 1_555 1_555
C80_8 C58_8 1_555 1_555
H44_8 C80_8 1_555 1_555
Zn7_3 O13_8 1_555 1_555
C25_8 C33_8 1_555 1_555
C47_8 C51_8 1_555 1_555
C55_8 C62_8 1_555 1_555
C60_8 C78_8 1_555 1_555
C64_8 C75_8 1_555 1_555
C65_8 C73_8 1_555 1_555
C67_8 C70_8 1_555 1_555
C69_8 C72_8 1_555 1_555
C69_8 C77_8 1_555 1_555
C71_8 C74_8 1_555 1_555
C79_8 C80_8 1_555 1_555
O1_8 C10_8 1_555 1_555
O36_2 C10_8 1_555 1_555
C4_8 C8_8 1_555 1_555
N1_8 N2_8 1_555 1_555
C10_8 C34_8 1_555 1_555
C13_8 C4_8 1_555 1_555
H4_8 C13_8 1_555 1_555
C17_8 C23_8 1_555 1_555
C23_8 C13_8 1_555 1_555
C27_8 H11_8 1_555 1_555
C28_8 C17_8 1_555 1_555
H12_8 C28_8 1_555 1_555
C29_8 N1_8 1_555 1_555
C30_8 C17_8 1_555 1_555
H13_8 C30_8 1_555 1_555
C31_8 C28_8 1_555 1_555
H14_8 C31_8 1_555 1_555
C32_8 C4_8 1_555 1_555
H15_8 C32_8 1_555 1_555
C34_8 C27_8 1_555 1_555
O10_8 N1_8 1_555 1_555
C37_8 C23_8 1_555 1_555
H19_8 C37_8 1_555 1_555
C39_8 C8_8 1_555 1_555
H21_8 C39_8 1_555 1_555
H22_8 C40_8 1_555 1_555
Zn8_5 O1_8 1_555 1_555
C27_8 C30_8 1_555 1_555
C29_8 C32_8 1_555 1_555
C29_8 C37_8 1_555 1_555
C31_8 C34_8 1_555 1_555
C39_8 C40_8 1_555 1_555
Zn14_2 O6_8 1_555 1_555
O4_8 C3_8 1_555 1_555
O6_8 C3_8 1_555 1_555
C2_8 H1_8 1_555 1_555
C3_8 C20_8 1_555 1_555
C5_8 H2_8 1_555 1_555
C6_8 C9_8 1_555 1_555
C7_8 C2_8 1_555 1_555
C9_8 C2_8 1_555 1_555
C11_8 C5_8 1_555 1_555
C12_8 C6_8 1_555 1_555
H3_8 C12_8 1_555 1_555
C14_8 C6_8 1_555 1_555
H5_8 C14_8 1_555 1_555
C15_8 C5_8 1_555 1_555
H6_8 C15_8 1_555 1_555
C16_8 C7_8 1_555 1_555
H7_8 C16_8 1_555 1_555
C20_8 C21_8 1_555 1_555
C21_8 C12_8 1_555 1_555
H8_8 C21_8 1_555 1_555
C22_8 C15_8 1_555 1_555
C24_8 C16_8 1_555 1_555
C35_8 C9_8 1_555 1_555
C38_8 C14_8 1_555 1_555
H20_8 C38_8 1_555 1_555
O11_8 Zn14_2 1_555 1_555
O12_8 Zn14_2 1_555 1_555
Zn11_8 O4_8 1_555 1_555
Zn15_8 O28_7 1_555 1_555
O29_8 Zn14_2 1_555 1_555
O31_8 Zn9_4 1_555 1_555
C7_8 C11_8 1_555 1_555
C20_8 C38_8 1_555 1_555
C24_8 C35_8 1_555 1_555
Zn11_8 O29_8 1_555 1_555
O11_8 H45_8 1_555 1_555
O11_8 H46_8 1_555 1_555
O12_8 H47_8 1_555 1_555
O12_8 H48_8 1_555 1_555
O1_9 C10_9 1_555 1_555
O28_4 Zn16_9 1_555 1_555
O7_9 Zn10 1_555 1_555
O36_3 C10_9 1_555 1_555
C4_9 C8_9 1_555 1_555
N1_9 N2_9 1_555 1_555
C8_9 C36_9 1_555 1_555
C10_9 C34_9 1_555 1_555
C13_9 C4_9 1_555 1_555
H4_9 C13_9 1_555 1_555
C17_9 C23_9 1_555 1_555
C18_9 C19_9 1_555 1_555
C19_9 O7_9 1_555 1_555
C23_9 C13_9 1_555 1_555
C26_9 C18_9 1_555 1_555
H10_9 C26_9 1_555 1_555
C27_9 H11_9 1_555 1_555
C28_9 C17_9 1_555 1_555
H12_9 C28_9 1_555 1_555
O9_9 C19_9 1_555 1_555
C29_9 N1_9 1_555 1_555
C30_9 C17_9 1_555 1_555
H13_9 C30_9 1_555 1_555
C31_9 C28_9 1_555 1_555
H14_9 C31_9 1_555 1_555
C32_9 C4_9 1_555 1_555
H15_9 C32_9 1_555 1_555
C34_9 C27_9 1_555 1_555
C36_9 C26_9 1_555 1_555
H18_9 C36_9 1_555 1_555
O10_9 N1_9 1_555 1_555
C37_9 C23_9 1_555 1_555
H19_9 C37_9 1_555 1_555
C39_9 C8_9 1_555 1_555
H21_9 C39_9 1_555 1_555
C40_9 C18_9 1_555 1_555
H22_9 C40_9 1_555 1_555
O34 C41_9 1_555 1_555
C41_9 O27_4 1_555 1_555
Zn8_6 O1_9 1_555 1_555
O32_9 Zn10 1_555 1_555
C27_9 C30_9 1_555 1_555
C29_9 C32_9 1_555 1_555
C29_9 C37_9 1_555 1_555
C31_9 C34_9 1_555 1_555
C39_9 C40_9 1_555 1_555
Zn14_3 O6_9 1_555 1_555
O27_8 C1_9 1_555 1_555
O4_9 C3_9 1_555 1_555
O33_5 C1_9 1_555 1_555
O6_9 C3_9 1_555 1_555
C1_9 C22_9 1_555 1_555
C2_9 H1_9 1_555 1_555
C3_9 C20_9 1_555 1_555
C5_9 H2_9 1_555 1_555
C6_9 C9_9 1_555 1_555
C7_9 C2_9 1_555 1_555
C9_9 C2_9 1_555 1_555
C11_9 C5_9 1_555 1_555
C12_9 C6_9 1_555 1_555
H3_9 C12_9 1_555 1_555
C14_9 C6_9 1_555 1_555
H5_9 C14_9 1_555 1_555
C15_9 C5_9 1_555 1_555
H6_9 C15_9 1_555 1_555
C16_9 C7_9 1_555 1_555
H7_9 C16_9 1_555 1_555
C20_9 C21_9 1_555 1_555
C21_9 C12_9 1_555 1_555
H8_9 C21_9 1_555 1_555
C22_9 C15_9 1_555 1_555
C24_9 C16_9 1_555 1_555
C25_9 C11_9 1_555 1_555
H9_9 C25_9 1_555 1_555
C33_9 C22_9 1_555 1_555
H16_9 C33_9 1_555 1_555
C35_9 C9_9 1_555 1_555
C38_9 C14_9 1_555 1_555
H20_9 C38_9 1_555 1_555
O11_9 Zn14_3 1_555 1_555
O12_9 Zn14_3 1_555 1_555
O13_9 C50_9 1_555 1_555
O19_9 Zn9_5 1_555 1_555
O35_6 C50_9 1_555 1_555
C42_9 H23_9 1_555 1_555
C43_9 C60_9 1_555 1_555
C44_9 C48_9 1_555 1_555
N3_9 N4_9 1_555 1_555
C45_9 H24_9 1_555 1_555
C46_9 C49_9 1_555 1_555
C47_9 C42_9 1_555 1_555
C48_9 C76_9 1_555 1_555
C49_9 C42_9 1_555 1_555
N4_9 C64_9 1_555 1_555
C50_9 C74_9 1_555 1_555
C51_9 C45_9 1_555 1_555
C52_9 C46_9 1_555 1_555
H25_9 C52_9 1_555 1_555
C53_9 C44_9 1_555 1_555
H26_9 C53_9 1_555 1_555
C54_9 C46_9 1_555 1_555
H27_9 C54_9 1_555 1_555
C55_9 C45_9 1_555 1_555
H28_9 C55_9 1_555 1_555
C56_9 C47_9 1_555 1_555
H29_9 C56_9 1_555 1_555
C57_9 C63_9 1_555 1_555
C58_9 C59_9 1_555 1_555
C59_9 O19_9 1_555 1_555
C60_9 C61_9 1_555 1_555
C61_9 C52_9 1_555 1_555
H30_9 C61_9 1_555 1_555
C63_9 C53_9 1_555 1_555
C64_9 C56_9 1_555 1_555
C65_9 C51_9 1_555 1_555
H31_9 C65_9 1_555 1_555
C66_9 C58_9 1_555 1_555
H32_9 C66_9 1_555 1_555
C67_9 H33_9 1_555 1_555
C68_9 C57_9 1_555 1_555
H34_9 C68_9 1_555 1_555
O21_9 C59_9 1_555 1_555
C69_9 N3_9 1_555 1_555
C70_9 C57_9 1_555 1_555
H35_9 C70_9 1_555 1_555
C71_9 C68_9 1_555 1_555
H36_9 C71_9 1_555 1_555
C72_9 C44_9 1_555 1_555
H37_9 C72_9 1_555 1_555
C73_9 C62_9 1_555 1_555
H38_9 C73_9 1_555 1_555
C74_9 C67_9 1_555 1_555
C75_9 C49_9 1_555 1_555
H39_9 C75_9 1_555 1_555
C76_9 C66_9 1_555 1_555
H40_9 C76_9 1_555 1_555
O22_9 N3_9 1_555 1_555
C77_9 C63_9 1_555 1_555
H41_9 C77_9 1_555 1_555
C78_9 C54_9 1_555 1_555
H42_9 C78_9 1_555 1_555
C79_9 C48_9 1_555 1_555
H43_9 C79_9 1_555 1_555
C80_9 C58_9 1_555 1_555
H44_9 C80_9 1_555 1_555
Zn7 O13_9 1_555 1_555
Zn11_9 O4_9 1_555 1_555
Zn15_9 O28_8 1_555 1_555
O29_9 Zn14_3 1_555 1_555
O31_9 Zn9_5 1_555 1_555
C7_9 C11_9 1_555 1_555
C20_9 C38_9 1_555 1_555
C24_9 C35_9 1_555 1_555
C25_9 C33_9 1_555 1_555
C47_9 C51_9 1_555 1_555
C55_9 C62_9 1_555 1_555
C60_9 C78_9 1_555 1_555
C64_9 C75_9 1_555 1_555
C65_9 C73_9 1_555 1_555
C67_9 C70_9 1_555 1_555
C69_9 C72_9 1_555 1_555
C69_9 C77_9 1_555 1_555
C71_9 C74_9 1_555 1_555
C79_9 C80_9 1_555 1_555
Zn11_9 O29_9 1_555 1_555
O11_9 H45_9 1_555 1_555
O11_9 H46_9 1_555 1_555
O12_9 H47_9 1_555 1_555
O12_9 H48_9 1_555 1_555
Zn13_6 O18_9 1_555 1_555
O23_9 Zn13_6 1_555 1_555
O24_9 Zn13_6 1_555 1_555
Zn12_9 O16_9 1_555 1_555
O30_9 Zn13_6 1_555 1_555
Zn12_9 O30_9 1_555 1_555
O24_9 H49_9 1_555 1_555
O24_9 H50_9 1_555 1_555
O23_9 H51_9 1_555 1_555
O23_9 H52_9 1_555 1_555
O25_6 C50_10 1_555 1_555
O20_4 C50_10 1_555 1_555
C50_10 C74_10 1_555 1_555
C67_10 H33_10 1_555 1_555
H35_10 C70_10 1_555 1_555
H36_10 C71_10 1_555 1_555
C74_10 C67_10 1_555 1_555
Zn15_2 O20_4 1_555 1_555
C67_10 C70_10 1_555 1_555
C71_10 C74_10 1_555 1_555
Zn7_2 O30_5 1_555 1_555
Zn15_8 O6_10 1_555 1_555
O25_3 C10_10 1_555 1_555
O2_4 C1_10 1_555 1_555
O31_8 C3_10 1_555 1_555
O5_4 C1_10 1_555 1_555
O6_10 C3_10 1_555 1_555
C1_10 C22_10 1_555 1_555
O7_10 Zn12_5 1_555 1_555
O8_7 C10_10 1_555 1_555
C2_10 H1_10 1_555 1_555
C3_10 C20_10 1_555 1_555
C4_10 C8_10 1_555 1_555
N1_10 N2_10 1_555 1_555
C5_10 H2_10 1_555 1_555
C6_10 C9_10 1_555 1_555
C7_10 C2_10 1_555 1_555
C8_10 C36_10 1_555 1_555
C9_10 C2_10 1_555 1_555
N2_10 C24_10 1_555 1_555
C10_10 C34_10 1_555 1_555
C11_10 C5_10 1_555 1_555
C12_10 C6_10 1_555 1_555
H3_10 C12_10 1_555 1_555
C13_10 C4_10 1_555 1_555
H4_10 C13_10 1_555 1_555
C14_10 C6_10 1_555 1_555
H5_10 C14_10 1_555 1_555
C15_10 C5_10 1_555 1_555
H6_10 C15_10 1_555 1_555
C16_10 C7_10 1_555 1_555
H7_10 C16_10 1_555 1_555
C17_10 C23_10 1_555 1_555
C18_10 C19_10 1_555 1_555
C19_10 O7_10 1_555 1_555
C20_10 C21_10 1_555 1_555
C21_10 C12_10 1_555 1_555
H8_10 C21_10 1_555 1_555
C22_10 C15_10 1_555 1_555
C23_10 C13_10 1_555 1_555
C24_10 C16_10 1_555 1_555
C25_10 C11_10 1_555 1_555
H9_10 C25_10 1_555 1_555
C26_10 C18_10 1_555 1_555
H10_10 C26_10 1_555 1_555
C27_10 H11_10 1_555 1_555
C28_10 C17_10 1_555 1_555
H12_10 C28_10 1_555 1_555
O9_10 C19_10 1_555 1_555
C29_10 N1_10 1_555 1_555
C30_10 C17_10 1_555 1_555
H13_10 C30_10 1_555 1_555
C31_10 C28_10 1_555 1_555
H14_10 C31_10 1_555 1_555
C32_10 C4_10 1_555 1_555
H15_10 C32_10 1_555 1_555
C33_10 C22_10 1_555 1_555
H16_10 C33_10 1_555 1_555
C34_10 C27_10 1_555 1_555
C35_10 C9_10 1_555 1_555
H17_10 C35_10 1_555 1_555
C36_10 C26_10 1_555 1_555
H18_10 C36_10 1_555 1_555
O10_10 N1_10 1_555 1_555
C37_10 C23_10 1_555 1_555
H19_10 C37_10 1_555 1_555
C38_10 C14_10 1_555 1_555
H20_10 C38_10 1_555 1_555
C39_10 C8_10 1_555 1_555
H21_10 C39_10 1_555 1_555
O11_10 Zn15_8 1_555 1_555
C40_10 C18_10 1_555 1_555
H22_10 C40_10 1_555 1_555
O12_10 Zn15_8 1_555 1_555
Zn16_6 O18_10 1_555 1_555
O14_7 Zn7_2 1_555 1_555
O29_9 Zn8_3 1_555 1_555
O32_6 C43_10 1_555 1_555
O17_7 C41_10 1_555 1_555
O18_10 C43_10 1_555 1_555
C41_10 O14_7 1_555 1_555
O19_10 Zn11_9 1_555 1_555
C42_10 H23_10 1_555 1_555
C43_10 C60_10 1_555 1_555
C44_10 C48_10 1_555 1_555
N3_10 N4_10 1_555 1_555
C45_10 H24_10 1_555 1_555
C46_10 C49_10 1_555 1_555
C47_10 C42_10 1_555 1_555
C48_10 C76_10 1_555 1_555
C49_10 C42_10 1_555 1_555
N4_10 C64_10 1_555 1_555
C51_10 C45_10 1_555 1_555
C52_10 C46_10 1_555 1_555
H25_10 C52_10 1_555 1_555
C53_10 C44_10 1_555 1_555
H26_10 C53_10 1_555 1_555
C54_10 C46_10 1_555 1_555
H27_10 C54_10 1_555 1_555
C55_10 C45_10 1_555 1_555
H28_10 C55_10 1_555 1_555
C56_10 C47_10 1_555 1_555
H29_10 C56_10 1_555 1_555
C57_10 C63_10 1_555 1_555
C58_10 C59_10 1_555 1_555
C59_10 O19_10 1_555 1_555
C60_10 C61_10 1_555 1_555
C61_10 C52_10 1_555 1_555
H30_10 C61_10 1_555 1_555
C62_10 C41_10 1_555 1_555
C63_10 C53_10 1_555 1_555
C64_10 C56_10 1_555 1_555
C65_10 C51_10 1_555 1_555
H31_10 C65_10 1_555 1_555
C66_10 C58_10 1_555 1_555
H32_10 C66_10 1_555 1_555
C68_10 C57_10 1_555 1_555
H34_10 C68_10 1_555 1_555
O21_10 C59_10 1_555 1_555
C69_10 N3_10 1_555 1_555
C72_10 C44_10 1_555 1_555
H37_10 C72_10 1_555 1_555
C73_10 C62_10 1_555 1_555
H38_10 C73_10 1_555 1_555
C75_10 C49_10 1_555 1_555
H39_10 C75_10 1_555 1_555
C76_10 C66_10 1_555 1_555
H40_10 C76_10 1_555 1_555
O22_10 N3_10 1_555 1_555
C77_10 C63_10 1_555 1_555
H41_10 C77_10 1_555 1_555
C78_10 C54_10 1_555 1_555
H42_10 C78_10 1_555 1_555
C79_10 C48_10 1_555 1_555
H43_10 C79_10 1_555 1_555
O23_10 Zn16_6 1_555 1_555
C80_10 C58_10 1_555 1_555
O24_10 Zn16_6 1_555 1_555
Zn8_3 O2_4 1_555 1_555
Zn11_4 O17_7 1_555 1_555
Zn12_7 O5_4 1_555 1_555
Zn16_3 O8_7 1_555 1_555
O27_10 Zn7_2 1_555 1_555
O29_4 Zn7_2 1_555 1_555
O33_7 Zn12_5 1_555 1_555
O34_4 Zn11_9 1_555 1_555
O35_7 Zn15_8 1_555 1_555
O36_4 Zn16_6 1_555 1_555
C7_10 C11_10 1_555 1_555
C20_10 C38_10 1_555 1_555
C24_10 C35_10 1_555 1_555
C25_10 C33_10 1_555 1_555
C27_10 C30_10 1_555 1_555
C29_10 C32_10 1_555 1_555
C29_10 C37_10 1_555 1_555
C31_10 C34_10 1_555 1_555
C39_10 C40_10 1_555 1_555
C47_10 C51_10 1_555 1_555
C55_10 C62_10 1_555 1_555
C60_10 C78_10 1_555 1_555
C64_10 C75_10 1_555 1_555
C65_10 C73_10 1_555 1_555
C69_10 C72_10 1_555 1_555
C69_10 C77_10 1_555 1_555
C79_10 C80_10 1_555 1_555
O11_10 H45_10 1_555 1_555
O11_10 H46_10 1_555 1_555
O12_10 H47_10 1_555 1_555
O12_10 H48_10 1_555 1_555
O24_10 H49_10 1_555 1_555
O24_10 H50_10 1_555 1_555
O23_10 H51_10 1_555 1_555
O23_10 H52_10 1_555 1_555
Zn15_9 O6_11 1_555 1_555
O25 C10_11 1_555 1_555
O2_5 C1_11 1_555 1_555
O31_9 C3_11 1_555 1_555
O5_5 C1_11 1_555 1_555
O6_11 C3_11 1_555 1_555
C1_11 C22_11 1_555 1_555
O8_8 C10_11 1_555 1_555
C2_11 H1_11 1_555 1_555
C3_11 C20_11 1_555 1_555
C4_11 C8_11 1_555 1_555
N1_11 N2_11 1_555 1_555
C5_11 H2_11 1_555 1_555
C6_11 C9_11 1_555 1_555
C7_11 C2_11 1_555 1_555
C8_11 C36_11 1_555 1_555
C9_11 C2_11 1_555 1_555
N2_11 C24_11 1_555 1_555
C10_11 C34_11 1_555 1_555
C11_11 C5_11 1_555 1_555
C12_11 C6_11 1_555 1_555
H3_11 C12_11 1_555 1_555
C13_11 C4_11 1_555 1_555
H4_11 C13_11 1_555 1_555
C14_11 C6_11 1_555 1_555
H5_11 C14_11 1_555 1_555
C15_11 C5_11 1_555 1_555
H6_11 C15_11 1_555 1_555
C16_11 C7_11 1_555 1_555
H7_11 C16_11 1_555 1_555
C17_11 C23_11 1_555 1_555
C20_11 C21_11 1_555 1_555
C21_11 C12_11 1_555 1_555
H8_11 C21_11 1_555 1_555
C22_11 C15_11 1_555 1_555
C23_11 C13_11 1_555 1_555
C24_11 C16_11 1_555 1_555
C25_11 C11_11 1_555 1_555
H9_11 C25_11 1_555 1_555
C26_11 C18_11 1_555 1_555
H10_11 C26_11 1_555 1_555
C27_11 H11_11 1_555 1_555
C28_11 C17_11 1_555 1_555
H12_11 C28_11 1_555 1_555
C29_11 N1_11 1_555 1_555
C30_11 C17_11 1_555 1_555
H13_11 C30_11 1_555 1_555
C31_11 C28_11 1_555 1_555
H14_11 C31_11 1_555 1_555
C32_11 C4_11 1_555 1_555
H15_11 C32_11 1_555 1_555
C33_11 C22_11 1_555 1_555
H16_11 C33_11 1_555 1_555
C34_11 C27_11 1_555 1_555
C35_11 C9_11 1_555 1_555
H17_11 C35_11 1_555 1_555
C36_11 C26_11 1_555 1_555
H18_11 C36_11 1_555 1_555
O10_11 N1_11 1_555 1_555
C37_11 C23_11 1_555 1_555
H19_11 C37_11 1_555 1_555
C38_11 C14_11 1_555 1_555
H20_11 C38_11 1_555 1_555
C39_11 C8_11 1_555 1_555
H21_11 C39_11 1_555 1_555
O11_11 Zn15_9 1_555 1_555
C40_11 C18_11 1_555 1_555
H22_11 C40_11 1_555 1_555
O12_11 Zn15_9 1_555 1_555
O29_7 Zn8 1_555 1_555
O19_11 Zn11_7 1_555 1_555
C59_11 O19_11 1_555 1_555
O21_11 C59_11 1_555 1_555
Zn8 O2_5 1_555 1_555
Zn12_8 O5_5 1_555 1_555
Zn16 O8_8 1_555 1_555
O34_5 Zn11_7 1_555 1_555
O35_8 Zn15_9 1_555 1_555
C7_11 C11_11 1_555 1_555
C20_11 C38_11 1_555 1_555
C24_11 C35_11 1_555 1_555
C25_11 C33_11 1_555 1_555
C27_11 C30_11 1_555 1_555
C29_11 C32_11 1_555 1_555
C29_11 C37_11 1_555 1_555
C31_11 C34_11 1_555 1_555
C39_11 C40_11 1_555 1_555
O11_11 H45_11 1_555 1_555
O11_11 H46_11 1_555 1_555
O12_11 H47_11 1_555 1_555
O12_11 H48_11 1_555 1_555
O25_5 C50_11 1_555 1_555
O20_5 C50_11 1_555 1_555
C50_11 C74_11 1_555 1_555
C67_11 H33_11 1_555 1_555
H35_11 C70_11 1_555 1_555
H36_11 C71_11 1_555 1_555
C74_11 C67_11 1_555 1_555
Zn15_3 O20_5 1_555 1_555
C67_11 C70_11 1_555 1_555
C71_11 C74_11 1_555 1_555
Zn7_3 O30_6 1_555 1_555
O7_11 Zn12_6 1_555 1_555
C19_11 O7_11 1_555 1_555
O9_11 C19_11 1_555 1_555
Zn16_4 O18_11 1_555 1_555
O14_8 Zn7_3 1_555 1_555
O32_4 C43_11 1_555 1_555
O17_8 C41_11 1_555 1_555
O18_11 C43_11 1_555 1_555
C41_11 O14_8 1_555 1_555
C42_11 H23_11 1_555 1_555
C43_11 C60_11 1_555 1_555
C44_11 C48_11 1_555 1_555
N3_11 N4_11 1_555 1_555
C45_11 H24_11 1_555 1_555
C46_11 C49_11 1_555 1_555
C47_11 C42_11 1_555 1_555
C48_11 C76_11 1_555 1_555
C49_11 C42_11 1_555 1_555
N4_11 C64_11 1_555 1_555
C51_11 C45_11 1_555 1_555
C52_11 C46_11 1_555 1_555
H25_11 C52_11 1_555 1_555
C53_11 C44_11 1_555 1_555
H26_11 C53_11 1_555 1_555
C54_11 C46_11 1_555 1_555
H27_11 C54_11 1_555 1_555
C55_11 C45_11 1_555 1_555
H28_11 C55_11 1_555 1_555
C56_11 C47_11 1_555 1_555
H29_11 C56_11 1_555 1_555
C57_11 C63_11 1_555 1_555
C60_11 C61_11 1_555 1_555
C61_11 C52_11 1_555 1_555
H30_11 C61_11 1_555 1_555
C62_11 C41_11 1_555 1_555
C63_11 C53_11 1_555 1_555
C64_11 C56_11 1_555 1_555
C65_11 C51_11 1_555 1_555
H31_11 C65_11 1_555 1_555
C66_11 C58_11 1_555 1_555
H32_11 C66_11 1_555 1_555
C68_11 C57_11 1_555 1_555
H34_11 C68_11 1_555 1_555
C69_11 N3_11 1_555 1_555
C72_11 C44_11 1_555 1_555
H37_11 C72_11 1_555 1_555
C73_11 C62_11 1_555 1_555
H38_11 C73_11 1_555 1_555
C75_11 C49_11 1_555 1_555
H39_11 C75_11 1_555 1_555
C76_11 C66_11 1_555 1_555
H40_11 C76_11 1_555 1_555
O22_11 N3_11 1_555 1_555
C77_11 C63_11 1_555 1_555
H41_11 C77_11 1_555 1_555
C78_11 C54_11 1_555 1_555
H42_11 C78_11 1_555 1_555
C79_11 C48_11 1_555 1_555
H43_11 C79_11 1_555 1_555
O23_11 Zn16_4 1_555 1_555
C80_11 C58_11 1_555 1_555
O24_11 Zn16_4 1_555 1_555
Zn11_5 O17_8 1_555 1_555
O27_11 Zn7_3 1_555 1_555
O29_5 Zn7_3 1_555 1_555
O33_8 Zn12_6 1_555 1_555
O36_5 Zn16_4 1_555 1_555
C47_11 C51_11 1_555 1_555
C55_11 C62_11 1_555 1_555
C60_11 C78_11 1_555 1_555
C64_11 C75_11 1_555 1_555
C65_11 C73_11 1_555 1_555
C69_11 C72_11 1_555 1_555
C69_11 C77_11 1_555 1_555
C79_11 C80_11 1_555 1_555
O24_11 H49_11 1_555 1_555
O24_11 H50_11 1_555 1_555
O23_11 H51_11 1_555 1_555
O23_11 H52_11 1_555 1_555
O25_4 C50_12 1_555 1_555
O20_6 C50_12 1_555 1_555
C50_12 C74_12 1_555 1_555
C67_12 H33_12 1_555 1_555
H35_12 C70_12 1_555 1_555
H36_12 C71_12 1_555 1_555
C74_12 C67_12 1_555 1_555
Zn15 O20_6 1_555 1_555
C67_12 C70_12 1_555 1_555
C71_12 C74_12 1_555 1_555
Zn7 O30_4 1_555 1_555
O7_12 Zn12_4 1_555 1_555
C19_12 O7_12 1_555 1_555
O9_12 C19_12 1_555 1_555
Zn16_5 O18_12 1_555 1_555
O14_9 Zn7 1_555 1_555
O32_5 C43_12 1_555 1_555
O17_9 C41_12 1_555 1_555
O18_12 C43_12 1_555 1_555
C41_12 O14_9 1_555 1_555
C42_12 H23_12 1_555 1_555
C43_12 C60_12 1_555 1_555
C44_12 C48_12 1_555 1_555
N3_12 N4_12 1_555 1_555
C45_12 H24_12 1_555 1_555
C46_12 C49_12 1_555 1_555
C47_12 C42_12 1_555 1_555
C48_12 C76_12 1_555 1_555
C49_12 C42_12 1_555 1_555
N4_12 C64_12 1_555 1_555
C51_12 C45_12 1_555 1_555
C52_12 C46_12 1_555 1_555
H25_12 C52_12 1_555 1_555
C53_12 C44_12 1_555 1_555
H26_12 C53_12 1_555 1_555
C54_12 C46_12 1_555 1_555
H27_12 C54_12 1_555 1_555
C55_12 C45_12 1_555 1_555
H28_12 C55_12 1_555 1_555
C56_12 C47_12 1_555 1_555
H29_12 C56_12 1_555 1_555
C57_12 C63_12 1_555 1_555
C60_12 C61_12 1_555 1_555
C61_12 C52_12 1_555 1_555
H30_12 C61_12 1_555 1_555
C62_12 C41_12 1_555 1_555
C63_12 C53_12 1_555 1_555
C64_12 C56_12 1_555 1_555
C65_12 C51_12 1_555 1_555
H31_12 C65_12 1_555 1_555
C66_12 C58_12 1_555 1_555
H32_12 C66_12 1_555 1_555
C68_12 C57_12 1_555 1_555
H34_12 C68_12 1_555 1_555
C69_12 N3_12 1_555 1_555
C72_12 C44_12 1_555 1_555
H37_12 C72_12 1_555 1_555
C73_12 C62_12 1_555 1_555
H38_12 C73_12 1_555 1_555
C75_12 C49_12 1_555 1_555
H39_12 C75_12 1_555 1_555
C76_12 C66_12 1_555 1_555
H40_12 C76_12 1_555 1_555
O22_12 N3_12 1_555 1_555
C77_12 C63_12 1_555 1_555
H41_12 C77_12 1_555 1_555
C78_12 C54_12 1_555 1_555
H42_12 C78_12 1_555 1_555
C79_12 C48_12 1_555 1_555
H43_12 C79_12 1_555 1_555
O23_12 Zn16_5 1_555 1_555
C80_12 C58_12 1_555 1_555
O24_12 Zn16_5 1_555 1_555
Zn11_6 O17_9 1_555 1_555
O27_12 Zn7 1_555 1_555
O29_6 Zn7 1_555 1_555
O33_9 Zn12_4 1_555 1_555
O36_6 Zn16_5 1_555 1_555
C47_12 C51_12 1_555 1_555
C55_12 C62_12 1_555 1_555
C60_12 C78_12 1_555 1_555
C64_12 C75_12 1_555 1_555
C65_12 C73_12 1_555 1_555
C69_12 C72_12 1_555 1_555
C69_12 C77_12 1_555 1_555
C79_12 C80_12 1_555 1_555
O24_12 H49_12 1_555 1_555
O24_12 H50_12 1_555 1_555
O23_12 H51_12 1_555 1_555
O23_12 H52_12 1_555 1_555
Zn15_7 O6_12 1_555 1_555
O25_2 C10_12 1_555 1_555
O2_6 C1_12 1_555 1_555
O31_7 C3_12 1_555 1_555
O5_6 C1_12 1_555 1_555
O6_12 C3_12 1_555 1_555
C1_12 C22_12 1_555 1_555
O8_9 C10_12 1_555 1_555
C2_12 H1_12 1_555 1_555
C3_12 C20_12 1_555 1_555
C4_12 C8_12 1_555 1_555
N1_12 N2_12 1_555 1_555
C5_12 H2_12 1_555 1_555
C6_12 C9_12 1_555 1_555
C7_12 C2_12 1_555 1_555
C8_12 C36_12 1_555 1_555
C9_12 C2_12 1_555 1_555
N2_12 C24_12 1_555 1_555
C10_12 C34_12 1_555 1_555
C11_12 C5_12 1_555 1_555
C12_12 C6_12 1_555 1_555
H3_12 C12_12 1_555 1_555
C13_12 C4_12 1_555 1_555
H4_12 C13_12 1_555 1_555
C14_12 C6_12 1_555 1_555
H5_12 C14_12 1_555 1_555
C15_12 C5_12 1_555 1_555
H6_12 C15_12 1_555 1_555
C16_12 C7_12 1_555 1_555
H7_12 C16_12 1_555 1_555
C17_12 C23_12 1_555 1_555
C20_12 C21_12 1_555 1_555
C21_12 C12_12 1_555 1_555
H8_12 C21_12 1_555 1_555
C22_12 C15_12 1_555 1_555
C23_12 C13_12 1_555 1_555
C24_12 C16_12 1_555 1_555
C25_12 C11_12 1_555 1_555
H9_12 C25_12 1_555 1_555
C26_12 C18_12 1_555 1_555
H10_12 C26_12 1_555 1_555
C27_12 H11_12 1_555 1_555
C28_12 C17_12 1_555 1_555
H12_12 C28_12 1_555 1_555
C29_12 N1_12 1_555 1_555
C30_12 C17_12 1_555 1_555
H13_12 C30_12 1_555 1_555
C31_12 C28_12 1_555 1_555
H14_12 C31_12 1_555 1_555
C32_12 C4_12 1_555 1_555
H15_12 C32_12 1_555 1_555
C33_12 C22_12 1_555 1_555
H16_12 C33_12 1_555 1_555
C34_12 C27_12 1_555 1_555
C35_12 C9_12 1_555 1_555
H17_12 C35_12 1_555 1_555
C36_12 C26_12 1_555 1_555
H18_12 C36_12 1_555 1_555
O10_12 N1_12 1_555 1_555
C37_12 C23_12 1_555 1_555
H19_12 C37_12 1_555 1_555
C38_12 C14_12 1_555 1_555
H20_12 C38_12 1_555 1_555
C39_12 C8_12 1_555 1_555
H21_12 C39_12 1_555 1_555
O11_12 Zn15_7 1_555 1_555
C40_12 C18_12 1_555 1_555
H22_12 C40_12 1_555 1_555
O12_12 Zn15_7 1_555 1_555
O29_8 Zn8_2 1_555 1_555
O19_12 Zn11_8 1_555 1_555
C59_12 O19_12 1_555 1_555
O21_12 C59_12 1_555 1_555
Zn8_2 O2_6 1_555 1_555
Zn12_9 O5_6 1_555 1_555
Zn16_2 O8_9 1_555 1_555
O34_6 Zn11_8 1_555 1_555
O35_9 Zn15_7 1_555 1_555
C7_12 C11_12 1_555 1_555
C20_12 C38_12 1_555 1_555
C24_12 C35_12 1_555 1_555
C25_12 C33_12 1_555 1_555
C27_12 C30_12 1_555 1_555
C29_12 C32_12 1_555 1_555
C29_12 C37_12 1_555 1_555
C31_12 C34_12 1_555 1_555
C39_12 C40_12 1_555 1_555
O11_12 H45_12 1_555 1_555
O11_12 H46_12 1_555 1_555
O12_12 H47_12 1_555 1_555
O12_12 H48_12 1_555 1_555
O27_13 Zn8_3 1_555 1_555
O30_7 Zn8_3 1_555 1_555
O27_14 Zn8_2 1_555 1_555
O30_9 Zn8_2 1_555 1_555
O27_15 Zn8 1_555 1_555
O30_8 Zn8 1_555 1_555
Zn15_5 O6_13 1_555 1_555
O26_4 C10_13 1_555 1_555
O27_12 C1_13 1_555 1_555
O31_5 C3_13 1_555 1_555
O33_9 C1_13 1_555 1_555
O6_13 C3_13 1_555 1_555
C1_13 C22_13 1_555 1_555
O8_10 C10_13 1_555 1_555
C2_13 H1_13 1_555 1_555
C3_13 C20_13 1_555 1_555
C4_13 C8_13 1_555 1_555
N1_13 N2_13 1_555 1_555
C5_13 H2_13 1_555 1_555
C6_13 C9_13 1_555 1_555
C7_13 C2_13 1_555 1_555
C8_13 C36_13 1_555 1_555
C9_13 C2_13 1_555 1_555
N2_13 C24_13 1_555 1_555
C10_13 C34_13 1_555 1_555
C11_13 C5_13 1_555 1_555
C12_13 C6_13 1_555 1_555
H3_13 C12_13 1_555 1_555
C13_13 C4_13 1_555 1_555
H4_13 C13_13 1_555 1_555
C14_13 C6_13 1_555 1_555
H5_13 C14_13 1_555 1_555
C15_13 C5_13 1_555 1_555
H6_13 C15_13 1_555 1_555
C16_13 C7_13 1_555 1_555
H7_13 C16_13 1_555 1_555
C17_13 C23_13 1_555 1_555
C18_13 C19_13 1_555 1_555
C19_13 O7_13 1_555 1_555
C20_13 C21_13 1_555 1_555
C21_13 C12_13 1_555 1_555
H8_13 C21_13 1_555 1_555
C22_13 C15_13 1_555 1_555
C23_13 C13_13 1_555 1_555
C24_13 C16_13 1_555 1_555
C25_13 C11_13 1_555 1_555
H9_13 C25_13 1_555 1_555
C26_13 C18_13 1_555 1_555
H10_13 C26_13 1_555 1_555
C27_13 H11_13 1_555 1_555
C28_13 C17_13 1_555 1_555
H12_13 C28_13 1_555 1_555
C29_13 N1_13 1_555 1_555
C30_13 C17_13 1_555 1_555
H13_13 C30_13 1_555 1_555
C31_13 C28_13 1_555 1_555
H14_13 C31_13 1_555 1_555
C32_13 C4_13 1_555 1_555
H15_13 C32_13 1_555 1_555
C33_13 C22_13 1_555 1_555
H16_13 C33_13 1_555 1_555
C34_13 C27_13 1_555 1_555
C35_13 C9_13 1_555 1_555
H17_13 C35_13 1_555 1_555
C36_13 C26_13 1_555 1_555
H18_13 C36_13 1_555 1_555
O10_13 N1_13 1_555 1_555
C37_13 C23_13 1_555 1_555
H19_13 C37_13 1_555 1_555
C38_13 C14_13 1_555 1_555
H20_13 C38_13 1_555 1_555
C39_13 C8_13 1_555 1_555
H21_13 C39_13 1_555 1_555
O11_13 Zn15_5 1_555 1_555
C40_13 C18_13 1_555 1_555
H22_13 C40_13 1_555 1_555
O12_13 Zn15_5 1_555 1_555
O17_10 C41_13 1_555 1_555
O19_13 Zn11_6 1_555 1_555
C58_13 C59_13 1_555 1_555
C59_13 O19_13 1_555 1_555
H31_13 C65_13 1_555 1_555
C66_13 C58_13 1_555 1_555
H32_13 C66_13 1_555 1_555
O21_13 C59_13 1_555 1_555
H38_13 C73_13 1_555 1_555
C76_13 C66_13 1_555 1_555
H40_13 C76_13 1_555 1_555
Zn11 O17_10 1_555 1_555
Zn16_9 O8_10 1_555 1_555
O27_16 Zn8_4 1_555 1_555
O29 Zn8_4 1_555 1_555
O35_10 Zn15_5 1_555 1_555
C7_13 C11_13 1_555 1_555
C20_13 C38_13 1_555 1_555
C24_13 C35_13 1_555 1_555
C25_13 C33_13 1_555 1_555
C27_13 C30_13 1_555 1_555
C29_13 C32_13 1_555 1_555
C29_13 C37_13 1_555 1_555
C31_13 C34_13 1_555 1_555
C39_13 C40_13 1_555 1_555
C65_13 C73_13 1_555 1_555
O11_13 H45_13 1_555 1_555
O11_13 H46_13 1_555 1_555
O12_13 H47_13 1_555 1_555
O12_13 H48_13 1_555 1_555
Zn8_5 O30_2 1_555 1_555
Zn16_3 O18_13 1_555 1_555
O26_7 C50_13 1_555 1_555
O14_10 Zn8_5 1_555 1_555
O32_3 C43_13 1_555 1_555
O18_13 C43_13 1_555 1_555
O35_7 C50_13 1_555 1_555
C42_13 H23_13 1_555 1_555
C43_13 C60_13 1_555 1_555
C44_13 C48_13 1_555 1_555
N3_13 N4_13 1_555 1_555
C45_13 H24_13 1_555 1_555
C46_13 C49_13 1_555 1_555
C47_13 C42_13 1_555 1_555
C49_13 C42_13 1_555 1_555
N4_13 C64_13 1_555 1_555
C50_13 C74_13 1_555 1_555
C51_13 C45_13 1_555 1_555
C52_13 C46_13 1_555 1_555
H25_13 C52_13 1_555 1_555
C53_13 C44_13 1_555 1_555
H26_13 C53_13 1_555 1_555
C54_13 C46_13 1_555 1_555
H27_13 C54_13 1_555 1_555
C55_13 C45_13 1_555 1_555
H28_13 C55_13 1_555 1_555
C56_13 C47_13 1_555 1_555
H29_13 C56_13 1_555 1_555
C57_13 C63_13 1_555 1_555
C60_13 C61_13 1_555 1_555
C61_13 C52_13 1_555 1_555
H30_13 C61_13 1_555 1_555
C63_13 C53_13 1_555 1_555
C64_13 C56_13 1_555 1_555
C67_13 H33_13 1_555 1_555
C68_13 C57_13 1_555 1_555
H34_13 C68_13 1_555 1_555
C69_13 N3_13 1_555 1_555
C70_13 C57_13 1_555 1_555
H35_13 C70_13 1_555 1_555
C71_13 C68_13 1_555 1_555
H36_13 C71_13 1_555 1_555
C72_13 C44_13 1_555 1_555
H37_13 C72_13 1_555 1_555
C74_13 C67_13 1_555 1_555
C75_13 C49_13 1_555 1_555
H39_13 C75_13 1_555 1_555
O22_13 N3_13 1_555 1_555
C77_13 C63_13 1_555 1_555
H41_13 C77_13 1_555 1_555
C78_13 C54_13 1_555 1_555
H42_13 C78_13 1_555 1_555
C79_13 C48_13 1_555 1_555
H43_13 C79_13 1_555 1_555
O23_13 Zn16_3 1_555 1_555
H44_13 C80_13 1_555 1_555
O24_13 Zn16_3 1_555 1_555
O33_10 Zn12_2 1_555 1_555
C47_13 C51_13 1_555 1_555
C55_13 C62_13 1_555 1_555
C60_13 C78_13 1_555 1_555
C64_13 C75_13 1_555 1_555
C67_13 C70_13 1_555 1_555
C69_13 C72_13 1_555 1_555
C69_13 C77_13 1_555 1_555
C71_13 C74_13 1_555 1_555
C79_13 C80_13 1_555 1_555
O24_13 H49_13 1_555 1_555
O24_13 H50_13 1_555 1_555
O23_13 H51_13 1_555 1_555
O23_13 H52_13 1_555 1_555
Zn15_6 O6_14 1_555 1_555
O11_14 Zn15_6 1_555 1_555
O12_14 Zn15_6 1_555 1_555
O35_11 Zn15_6 1_555 1_555
O11_14 H45_14 1_555 1_555
O11_14 H46_14 1_555 1_555
O12_14 H47_14 1_555 1_555
O12_14 H48_14 1_555 1_555
Zn8_6 O30_3 1_555 1_555
O26_6 C10_14 1_555 1_555
O27_10 C1_14 1_555 1_555
O33_7 C1_14 1_555 1_555
C1_14 C22_14 1_555 1_555
O7_14 Zn12_3 1_555 1_555
O8_11 C10_14 1_555 1_555
C2_14 H1_14 1_555 1_555
C3_14 C20_14 1_555 1_555
C4_14 C8_14 1_555 1_555
N1_14 N2_14 1_555 1_555
C5_14 H2_14 1_555 1_555
C6_14 C9_14 1_555 1_555
C7_14 C2_14 1_555 1_555
C8_14 C36_14 1_555 1_555
C9_14 C2_14 1_555 1_555
N2_14 C24_14 1_555 1_555
C10_14 C34_14 1_555 1_555
C11_14 C5_14 1_555 1_555
C12_14 C6_14 1_555 1_555
H3_14 C12_14 1_555 1_555
C13_14 C4_14 1_555 1_555
H4_14 C13_14 1_555 1_555
C14_14 C6_14 1_555 1_555
H5_14 C14_14 1_555 1_555
C15_14 C5_14 1_555 1_555
H6_14 C15_14 1_555 1_555
C16_14 C7_14 1_555 1_555
H7_14 C16_14 1_555 1_555
C17_14 C23_14 1_555 1_555
C18_14 C19_14 1_555 1_555
C19_14 O7_14 1_555 1_555
C20_14 C21_14 1_555 1_555
C21_14 C12_14 1_555 1_555
H8_14 C21_14 1_555 1_555
C22_14 C15_14 1_555 1_555
C23_14 C13_14 1_555 1_555
C24_14 C16_14 1_555 1_555
C25_14 C11_14 1_555 1_555
H9_14 C25_14 1_555 1_555
C26_14 C18_14 1_555 1_555
H10_14 C26_14 1_555 1_555
C27_14 H11_14 1_555 1_555
C28_14 C17_14 1_555 1_555
H12_14 C28_14 1_555 1_555
O9_14 C19_14 1_555 1_555
C29_14 N1_14 1_555 1_555
C30_14 C17_14 1_555 1_555
H13_14 C30_14 1_555 1_555
C31_14 C28_14 1_555 1_555
H14_14 C31_14 1_555 1_555
C32_14 C4_14 1_555 1_555
H15_14 C32_14 1_555 1_555
C33_14 C22_14 1_555 1_555
H16_14 C33_14 1_555 1_555
C34_14 C27_14 1_555 1_555
C35_14 C9_14 1_555 1_555
H17_14 C35_14 1_555 1_555
C36_14 C26_14 1_555 1_555
H18_14 C36_14 1_555 1_555
O10_14 N1_14 1_555 1_555
C37_14 C23_14 1_555 1_555
H19_14 C37_14 1_555 1_555
C38_14 C14_14 1_555 1_555
H20_14 C38_14 1_555 1_555
C39_14 C8_14 1_555 1_555
H21_14 C39_14 1_555 1_555
C40_14 C18_14 1_555 1_555
H22_14 C40_14 1_555 1_555
Zn16 O18_14 1_555 1_555
O26_8 C50_14 1_555 1_555
O14_11 Zn8_6 1_555 1_555
O32 C43_14 1_555 1_555
O17_11 C41_14 1_555 1_555
O18_14 C43_14 1_555 1_555
C41_14 O14_11 1_555 1_555
O19_14 Zn11_4 1_555 1_555
O35_8 C50_14 1_555 1_555
C42_14 H23_14 1_555 1_555
C43_14 C60_14 1_555 1_555
C44_14 C48_14 1_555 1_555
N3_14 N4_14 1_555 1_555
C45_14 H24_14 1_555 1_555
C46_14 C49_14 1_555 1_555
C47_14 C42_14 1_555 1_555
C48_14 C76_14 1_555 1_555
C49_14 C42_14 1_555 1_555
N4_14 C64_14 1_555 1_555
C50_14 C74_14 1_555 1_555
C51_14 C45_14 1_555 1_555
C52_14 C46_14 1_555 1_555
H25_14 C52_14 1_555 1_555
C53_14 C44_14 1_555 1_555
H26_14 C53_14 1_555 1_555
C54_14 C46_14 1_555 1_555
H27_14 C54_14 1_555 1_555
C55_14 C45_14 1_555 1_555
H28_14 C55_14 1_555 1_555
C56_14 C47_14 1_555 1_555
H29_14 C56_14 1_555 1_555
C57_14 C63_14 1_555 1_555
C58_14 C59_14 1_555 1_555
C59_14 O19_14 1_555 1_555
C60_14 C61_14 1_555 1_555
C61_14 C52_14 1_555 1_555
H30_14 C61_14 1_555 1_555
C62_14 C41_14 1_555 1_555
C63_14 C53_14 1_555 1_555
C64_14 C56_14 1_555 1_555
C65_14 C51_14 1_555 1_555
H31_14 C65_14 1_555 1_555
C66_14 C58_14 1_555 1_555
H32_14 C66_14 1_555 1_555
C67_14 H33_14 1_555 1_555
C68_14 C57_14 1_555 1_555
H34_14 C68_14 1_555 1_555
O21_14 C59_14 1_555 1_555
C69_14 N3_14 1_555 1_555
C70_14 C57_14 1_555 1_555
H35_14 C70_14 1_555 1_555
C71_14 C68_14 1_555 1_555
H36_14 C71_14 1_555 1_555
C72_14 C44_14 1_555 1_555
H37_14 C72_14 1_555 1_555
C73_14 C62_14 1_555 1_555
H38_14 C73_14 1_555 1_555
C74_14 C67_14 1_555 1_555
C75_14 C49_14 1_555 1_555
H39_14 C75_14 1_555 1_555
C76_14 C66_14 1_555 1_555
H40_14 C76_14 1_555 1_555
O22_14 N3_14 1_555 1_555
C77_14 C63_14 1_555 1_555
H41_14 C77_14 1_555 1_555
C78_14 C54_14 1_555 1_555
H42_14 C78_14 1_555 1_555
C79_14 C48_14 1_555 1_555
H43_14 C79_14 1_555 1_555
O23_14 Zn16 1_555 1_555
C80_14 C58_14 1_555 1_555
H44_14 C80_14 1_555 1_555
O24_14 Zn16 1_555 1_555
Zn11_2 O17_11 1_555 1_555
Zn16_7 O8_11 1_555 1_555
O27_17 Zn8_6 1_555 1_555
O29_2 Zn8_6 1_555 1_555
O33_11 Zn12_3 1_555 1_555
C7_14 C11_14 1_555 1_555
C20_14 C38_14 1_555 1_555
C24_14 C35_14 1_555 1_555
C25_14 C33_14 1_555 1_555
C27_14 C30_14 1_555 1_555
C29_14 C32_14 1_555 1_555
C29_14 C37_14 1_555 1_555
C31_14 C34_14 1_555 1_555
C39_14 C40_14 1_555 1_555
C47_14 C51_14 1_555 1_555
C55_14 C62_14 1_555 1_555
C60_14 C78_14 1_555 1_555
C64_14 C75_14 1_555 1_555
C65_14 C73_14 1_555 1_555
C67_14 C70_14 1_555 1_555
C69_14 C72_14 1_555 1_555
C69_14 C77_14 1_555 1_555
C71_14 C74_14 1_555 1_555
C79_14 C80_14 1_555 1_555
O24_14 H49_14 1_555 1_555
O24_14 H50_14 1_555 1_555
O23_14 H51_14 1_555 1_555
O23_14 H52_14 1_555 1_555
Zn8_7 O30 1_555 1_555
Zn16_2 O18_15 1_555 1_555
O26_9 C50_15 1_555 1_555
O14_12 Zn8_7 1_555 1_555
O32_2 C43_15 1_555 1_555
O18_15 C43_15 1_555 1_555
O35_9 C50_15 1_555 1_555
C42_15 H23_15 1_555 1_555
C43_15 C60_15 1_555 1_555
C44_15 C48_15 1_555 1_555
N3_15 N4_15 1_555 1_555
C45_15 H24_15 1_555 1_555
C46_15 C49_15 1_555 1_555
C47_15 C42_15 1_555 1_555
C49_15 C42_15 1_555 1_555
N4_15 C64_15 1_555 1_555
C50_15 C74_15 1_555 1_555
C51_15 C45_15 1_555 1_555
C52_15 C46_15 1_555 1_555
H25_15 C52_15 1_555 1_555
C53_15 C44_15 1_555 1_555
H26_15 C53_15 1_555 1_555
C54_15 C46_15 1_555 1_555
H27_15 C54_15 1_555 1_555
C55_15 C45_15 1_555 1_555
H28_15 C55_15 1_555 1_555
C56_15 C47_15 1_555 1_555
H29_15 C56_15 1_555 1_555
C57_15 C63_15 1_555 1_555
C60_15 C61_15 1_555 1_555
C61_15 C52_15 1_555 1_555
H30_15 C61_15 1_555 1_555
C63_15 C53_15 1_555 1_555
C64_15 C56_15 1_555 1_555
C67_15 H33_15 1_555 1_555
C68_15 C57_15 1_555 1_555
H34_15 C68_15 1_555 1_555
C69_15 N3_15 1_555 1_555
C70_15 C57_15 1_555 1_555
H35_15 C70_15 1_555 1_555
C71_15 C68_15 1_555 1_555
H36_15 C71_15 1_555 1_555
C72_15 C44_15 1_555 1_555
H37_15 C72_15 1_555 1_555
C74_15 C67_15 1_555 1_555
C75_15 C49_15 1_555 1_555
H39_15 C75_15 1_555 1_555
O22_15 N3_15 1_555 1_555
C77_15 C63_15 1_555 1_555
H41_15 C77_15 1_555 1_555
C78_15 C54_15 1_555 1_555
H42_15 C78_15 1_555 1_555
C79_15 C48_15 1_555 1_555
H43_15 C79_15 1_555 1_555
O23_15 Zn16_2 1_555 1_555
H44_15 C80_15 1_555 1_555
O24_15 Zn16_2 1_555 1_555
O33_12 Zn12 1_555 1_555
C47_15 C51_15 1_555 1_555
C55_15 C62_15 1_555 1_555
C60_15 C78_15 1_555 1_555
C64_15 C75_15 1_555 1_555
C67_15 C70_15 1_555 1_555
C69_15 C72_15 1_555 1_555
C69_15 C77_15 1_555 1_555
C71_15 C74_15 1_555 1_555
C79_15 C80_15 1_555 1_555
O24_15 H49_15 1_555 1_555
O24_15 H50_15 1_555 1_555
O23_15 H51_15 1_555 1_555
O23_15 H52_15 1_555 1_555
O26_5 C10_15 1_555 1_555
O27_11 C1_15 1_555 1_555
O33_8 C1_15 1_555 1_555
C1_15 C22_15 1_555 1_555
O8_12 C10_15 1_555 1_555
C2_15 H1_15 1_555 1_555
C3_15 C20_15 1_555 1_555
C4_15 C8_15 1_555 1_555
N1_15 N2_15 1_555 1_555
C5_15 H2_15 1_555 1_555
C6_15 C9_15 1_555 1_555
C7_15 C2_15 1_555 1_555
C8_15 C36_15 1_555 1_555
C9_15 C2_15 1_555 1_555
N2_15 C24_15 1_555 1_555
C10_15 C34_15 1_555 1_555
C11_15 C5_15 1_555 1_555
C12_15 C6_15 1_555 1_555
H3_15 C12_15 1_555 1_555
C13_15 C4_15 1_555 1_555
H4_15 C13_15 1_555 1_555
C14_15 C6_15 1_555 1_555
H5_15 C14_15 1_555 1_555
C15_15 C5_15 1_555 1_555
H6_15 C15_15 1_555 1_555
C16_15 C7_15 1_555 1_555
H7_15 C16_15 1_555 1_555
C17_15 C23_15 1_555 1_555
C18_15 C19_15 1_555 1_555
C19_15 O7_15 1_555 1_555
C20_15 C21_15 1_555 1_555
C21_15 C12_15 1_555 1_555
H8_15 C21_15 1_555 1_555
C22_15 C15_15 1_555 1_555
C23_15 C13_15 1_555 1_555
C24_15 C16_15 1_555 1_555
C25_15 C11_15 1_555 1_555
H9_15 C25_15 1_555 1_555
C26_15 C18_15 1_555 1_555
H10_15 C26_15 1_555 1_555
C27_15 H11_15 1_555 1_555
C28_15 C17_15 1_555 1_555
H12_15 C28_15 1_555 1_555
C29_15 N1_15 1_555 1_555
C30_15 C17_15 1_555 1_555
H13_15 C30_15 1_555 1_555
C31_15 C28_15 1_555 1_555
H14_15 C31_15 1_555 1_555
C32_15 C4_15 1_555 1_555
H15_15 C32_15 1_555 1_555
C33_15 C22_15 1_555 1_555
H16_15 C33_15 1_555 1_555
C34_15 C27_15 1_555 1_555
C35_15 C9_15 1_555 1_555
H17_15 C35_15 1_555 1_555
C36_15 C26_15 1_555 1_555
H18_15 C36_15 1_555 1_555
O10_15 N1_15 1_555 1_555
C37_15 C23_15 1_555 1_555
H19_15 C37_15 1_555 1_555
C38_15 C14_15 1_555 1_555
H20_15 C38_15 1_555 1_555
C39_15 C8_15 1_555 1_555
H21_15 C39_15 1_555 1_555
C40_15 C18_15 1_555 1_555
H22_15 C40_15 1_555 1_555
O17_12 C41_15 1_555 1_555
O19_15 Zn11_5 1_555 1_555
C58_15 C59_15 1_555 1_555
C59_15 O19_15 1_555 1_555
H31_15 C65_15 1_555 1_555
C66_15 C58_15 1_555 1_555
H32_15 C66_15 1_555 1_555
O21_15 C59_15 1_555 1_555
H38_15 C73_15 1_555 1_555
C76_15 C66_15 1_555 1_555
H40_15 C76_15 1_555 1_555
Zn11_3 O17_12 1_555 1_555
Zn16_8 O8_12 1_555 1_555
O27_18 Zn8_8 1_555 1_555
O29_3 Zn8_8 1_555 1_555
C7_15 C11_15 1_555 1_555
C20_15 C38_15 1_555 1_555
C24_15 C35_15 1_555 1_555
C25_15 C33_15 1_555 1_555
C27_15 C30_15 1_555 1_555
C29_15 C32_15 1_555 1_555
C29_15 C37_15 1_555 1_555
C31_15 C34_15 1_555 1_555
C39_15 C40_15 1_555 1_555
C65_15 C73_15 1_555 1_555
Zn15_4 O6_15 1_555 1_555
O11_15 Zn15_4 1_555 1_555
O12_15 Zn15_4 1_555 1_555
O35_12 Zn15_4 1_555 1_555
O11_15 H45_15 1_555 1_555
O11_15 H46_15 1_555 1_555
O12_15 H47_15 1_555 1_555
O12_15 H48_15 1_555 1_555
O33_12 C1_16 1_555 1_555
H9_16 C25_16 1_555 1_555
H16_16 C33_16 1_555 1_555
Zn16_9 O18_16 1_555 1_555
O26 C50_16 1_555 1_555
O32_9 C43_16 1_555 1_555
O18_16 C43_16 1_555 1_555
O35_10 C50_16 1_555 1_555
C42_16 H23_16 1_555 1_555
C43_16 C60_16 1_555 1_555
C44_16 C48_16 1_555 1_555
N3_16 N4_16 1_555 1_555
C45_16 H24_16 1_555 1_555
C46_16 C49_16 1_555 1_555
C47_16 C42_16 1_555 1_555
C48_16 C76_16 1_555 1_555
C49_16 C42_16 1_555 1_555
N4_16 C64_16 1_555 1_555
C50_16 C74_16 1_555 1_555
C51_16 C45_16 1_555 1_555
C52_16 C46_16 1_555 1_555
H25_16 C52_16 1_555 1_555
C53_16 C44_16 1_555 1_555
H26_16 C53_16 1_555 1_555
C54_16 C46_16 1_555 1_555
H27_16 C54_16 1_555 1_555
C55_16 C45_16 1_555 1_555
H28_16 C55_16 1_555 1_555
C56_16 C47_16 1_555 1_555
H29_16 C56_16 1_555 1_555
C57_16 C63_16 1_555 1_555
C58_16 C59_16 1_555 1_555
C59_16 O19_16 1_555 1_555
C60_16 C61_16 1_555 1_555
C61_16 C52_16 1_555 1_555
H30_16 C61_16 1_555 1_555
C63_16 C53_16 1_555 1_555
C64_16 C56_16 1_555 1_555
C65_16 C51_16 1_555 1_555
H31_16 C65_16 1_555 1_555
C66_16 C58_16 1_555 1_555
H32_16 C66_16 1_555 1_555
C67_16 H33_16 1_555 1_555
C68_16 C57_16 1_555 1_555
H34_16 C68_16 1_555 1_555
C69_16 N3_16 1_555 1_555
C70_16 C57_16 1_555 1_555
H35_16 C70_16 1_555 1_555
C71_16 C68_16 1_555 1_555
H36_16 C71_16 1_555 1_555
C72_16 C44_16 1_555 1_555
H37_16 C72_16 1_555 1_555
C73_16 C62_16 1_555 1_555
H38_16 C73_16 1_555 1_555
C74_16 C67_16 1_555 1_555
C75_16 C49_16 1_555 1_555
H39_16 C75_16 1_555 1_555
C76_16 C66_16 1_555 1_555
H40_16 C76_16 1_555 1_555
O22_16 N3_16 1_555 1_555
C77_16 C63_16 1_555 1_555
H41_16 C77_16 1_555 1_555
C78_16 C54_16 1_555 1_555
H42_16 C78_16 1_555 1_555
C79_16 C48_16 1_555 1_555
H43_16 C79_16 1_555 1_555
O23_16 Zn16_9 1_555 1_555
C80_16 C58_16 1_555 1_555
H44_16 C80_16 1_555 1_555
O24_16 Zn16_9 1_555 1_555
C25_16 C33_16 1_555 1_555
C47_16 C51_16 1_555 1_555
C55_16 C62_16 1_555 1_555
C60_16 C78_16 1_555 1_555
C64_16 C75_16 1_555 1_555
C65_16 C73_16 1_555 1_555
C67_16 C70_16 1_555 1_555
C69_16 C72_16 1_555 1_555
C69_16 C77_16 1_555 1_555
C71_16 C74_16 1_555 1_555
C79_16 C80_16 1_555 1_555
O24_16 H49_16 1_555 1_555
O24_16 H50_16 1_555 1_555
O23_16 H51_16 1_555 1_555
O23_16 H52_16 1_555 1_555
O7_16 Zn12_8 1_555 1_555
C18_16 C19_16 1_555 1_555
C19_16 O7_16 1_555 1_555
C26_16 C18_16 1_555 1_555
H10_16 C26_16 1_555 1_555
O9_16 C19_16 1_555 1_555
C36_16 C26_16 1_555 1_555
H18_16 C36_16 1_555 1_555
O34_5 C41_16 1_555 1_555
C41_16 O27_15 1_555 1_555
Zn15_2 O6_16 1_555 1_555
O31_2 C3_16 1_555 1_555
O6_16 C3_16 1_555 1_555
C2_16 H1_16 1_555 1_555
C3_16 C20_16 1_555 1_555
C5_16 H2_16 1_555 1_555
C6_16 C9_16 1_555 1_555
C7_16 C2_16 1_555 1_555
C9_16 C2_16 1_555 1_555
C11_16 C5_16 1_555 1_555
C12_16 C6_16 1_555 1_555
H3_16 C12_16 1_555 1_555
C14_16 C6_16 1_555 1_555
H5_16 C14_16 1_555 1_555
C15_16 C5_16 1_555 1_555
H6_16 C15_16 1_555 1_555
C16_16 C7_16 1_555 1_555
H7_16 C16_16 1_555 1_555
C20_16 C21_16 1_555 1_555
C21_16 C12_16 1_555 1_555
H8_16 C21_16 1_555 1_555
C22_16 C15_16 1_555 1_555
C24_16 C16_16 1_555 1_555
C35_16 C9_16 1_555 1_555
C38_16 C14_16 1_555 1_555
H20_16 C38_16 1_555 1_555
O11_16 Zn15_2 1_555 1_555
O12_16 Zn15_2 1_555 1_555
C7_16 C11_16 1_555 1_555
C20_16 C38_16 1_555 1_555
C24_16 C35_16 1_555 1_555
O11_16 H45_16 1_555 1_555
O11_16 H46_16 1_555 1_555
O12_16 H47_16 1_555 1_555
O12_16 H48_16 1_555 1_555
O25_9 C10_16 1_555 1_555
O36_4 C10_16 1_555 1_555
C4_16 C8_16 1_555 1_555
N1_16 N2_16 1_555 1_555
C10_16 C34_16 1_555 1_555
C13_16 C4_16 1_555 1_555
H4_16 C13_16 1_555 1_555
C17_16 C23_16 1_555 1_555
C23_16 C13_16 1_555 1_555
C27_16 H11_16 1_555 1_555
C28_16 C17_16 1_555 1_555
H12_16 C28_16 1_555 1_555
C29_16 N1_16 1_555 1_555
C30_16 C17_16 1_555 1_555
H13_16 C30_16 1_555 1_555
C31_16 C28_16 1_555 1_555
H14_16 C31_16 1_555 1_555
C32_16 C4_16 1_555 1_555
H15_16 C32_16 1_555 1_555
C34_16 C27_16 1_555 1_555
O10_16 N1_16 1_555 1_555
C37_16 C23_16 1_555 1_555
H19_16 C37_16 1_555 1_555
C39_16 C8_16 1_555 1_555
H21_16 C39_16 1_555 1_555
H22_16 C40_16 1_555 1_555
C27_16 C30_16 1_555 1_555
C29_16 C32_16 1_555 1_555
C29_16 C37_16 1_555 1_555
C31_16 C34_16 1_555 1_555
C39_16 C40_16 1_555 1_555
Zn15_3 O6_17 1_555 1_555
O31_3 C3_17 1_555 1_555
O6_17 C3_17 1_555 1_555
C2_17 H1_17 1_555 1_555
C3_17 C20_17 1_555 1_555
C5_17 H2_17 1_555 1_555
C6_17 C9_17 1_555 1_555
C7_17 C2_17 1_555 1_555
C9_17 C2_17 1_555 1_555
C11_17 C5_17 1_555 1_555
C12_17 C6_17 1_555 1_555
H3_17 C12_17 1_555 1_555
C14_17 C6_17 1_555 1_555
H5_17 C14_17 1_555 1_555
C15_17 C5_17 1_555 1_555
H6_17 C15_17 1_555 1_555
C16_17 C7_17 1_555 1_555
H7_17 C16_17 1_555 1_555
C20_17 C21_17 1_555 1_555
C21_17 C12_17 1_555 1_555
H8_17 C21_17 1_555 1_555
C22_17 C15_17 1_555 1_555
C24_17 C16_17 1_555 1_555
C35_17 C9_17 1_555 1_555
C38_17 C14_17 1_555 1_555
H20_17 C38_17 1_555 1_555
O11_17 Zn15_3 1_555 1_555
O12_17 Zn15_3 1_555 1_555
C7_17 C11_17 1_555 1_555
C20_17 C38_17 1_555 1_555
C24_17 C35_17 1_555 1_555
O11_17 H45_17 1_555 1_555
O11_17 H46_17 1_555 1_555
O12_17 H47_17 1_555 1_555
O12_17 H48_17 1_555 1_555
O25_7 C10_17 1_555 1_555
O36_5 C10_17 1_555 1_555
C4_17 C8_17 1_555 1_555
N1_17 N2_17 1_555 1_555
C10_17 C34_17 1_555 1_555
C13_17 C4_17 1_555 1_555
H4_17 C13_17 1_555 1_555
C17_17 C23_17 1_555 1_555
C23_17 C13_17 1_555 1_555
C27_17 H11_17 1_555 1_555
C28_17 C17_17 1_555 1_555
H12_17 C28_17 1_555 1_555
C29_17 N1_17 1_555 1_555
C30_17 C17_17 1_555 1_555
H13_17 C30_17 1_555 1_555
C31_17 C28_17 1_555 1_555
H14_17 C31_17 1_555 1_555
C32_17 C4_17 1_555 1_555
H15_17 C32_17 1_555 1_555
C34_17 C27_17 1_555 1_555
O10_17 N1_17 1_555 1_555
C37_17 C23_17 1_555 1_555
H19_17 C37_17 1_555 1_555
C39_17 C8_17 1_555 1_555
H21_17 C39_17 1_555 1_555
H22_17 C40_17 1_555 1_555
C27_17 C30_17 1_555 1_555
C29_17 C32_17 1_555 1_555
C29_17 C37_17 1_555 1_555
C31_17 C34_17 1_555 1_555
C39_17 C40_17 1_555 1_555
O33_10 C1_17 1_555 1_555
H9_17 C25_17 1_555 1_555
H16_17 C33_17 1_555 1_555
O26_2 C50_17 1_555 1_555
O35_11 C50_17 1_555 1_555
C42_17 H23_17 1_555 1_555
C43_17 C60_17 1_555 1_555
C44_17 C48_17 1_555 1_555
N3_17 N4_17 1_555 1_555
C45_17 H24_17 1_555 1_555
C46_17 C49_17 1_555 1_555
C47_17 C42_17 1_555 1_555
C48_17 C76_17 1_555 1_555
C49_17 C42_17 1_555 1_555
N4_17 C64_17 1_555 1_555
C50_17 C74_17 1_555 1_555
C51_17 C45_17 1_555 1_555
C52_17 C46_17 1_555 1_555
H25_17 C52_17 1_555 1_555
C53_17 C44_17 1_555 1_555
H26_17 C53_17 1_555 1_555
C54_17 C46_17 1_555 1_555
H27_17 C54_17 1_555 1_555
C55_17 C45_17 1_555 1_555
H28_17 C55_17 1_555 1_555
C56_17 C47_17 1_555 1_555
H29_17 C56_17 1_555 1_555
C57_17 C63_17 1_555 1_555
C58_17 C59_17 1_555 1_555
C59_17 O19_17 1_555 1_555
C60_17 C61_17 1_555 1_555
C61_17 C52_17 1_555 1_555
H30_17 C61_17 1_555 1_555
C63_17 C53_17 1_555 1_555
C64_17 C56_17 1_555 1_555
C65_17 C51_17 1_555 1_555
H31_17 C65_17 1_555 1_555
C66_17 C58_17 1_555 1_555
H32_17 C66_17 1_555 1_555
C67_17 H33_17 1_555 1_555
C68_17 C57_17 1_555 1_555
H34_17 C68_17 1_555 1_555
C69_17 N3_17 1_555 1_555
C70_17 C57_17 1_555 1_555
H35_17 C70_17 1_555 1_555
C71_17 C68_17 1_555 1_555
H36_17 C71_17 1_555 1_555
C72_17 C44_17 1_555 1_555
H37_17 C72_17 1_555 1_555
C73_17 C62_17 1_555 1_555
H38_17 C73_17 1_555 1_555
C74_17 C67_17 1_555 1_555
C75_17 C49_17 1_555 1_555
H39_17 C75_17 1_555 1_555
C76_17 C66_17 1_555 1_555
H40_17 C76_17 1_555 1_555
O22_17 N3_17 1_555 1_555
C77_17 C63_17 1_555 1_555
H41_17 C77_17 1_555 1_555
C78_17 C54_17 1_555 1_555
H42_17 C78_17 1_555 1_555
C79_17 C48_17 1_555 1_555
H43_17 C79_17 1_555 1_555
C80_17 C58_17 1_555 1_555
H44_17 C80_17 1_555 1_555
C25_17 C33_17 1_555 1_555
C47_17 C51_17 1_555 1_555
C55_17 C62_17 1_555 1_555
C60_17 C78_17 1_555 1_555
C64_17 C75_17 1_555 1_555
C65_17 C73_17 1_555 1_555
C67_17 C70_17 1_555 1_555
C69_17 C72_17 1_555 1_555
C69_17 C77_17 1_555 1_555
C71_17 C74_17 1_555 1_555
C79_17 C80_17 1_555 1_555
O7_17 Zn12_9 1_555 1_555
C18_17 C19_17 1_555 1_555
C19_17 O7_17 1_555 1_555
C26_17 C18_17 1_555 1_555
H10_17 C26_17 1_555 1_555
O9_17 C19_17 1_555 1_555
C36_17 C26_17 1_555 1_555
H18_17 C36_17 1_555 1_555
O34_6 C41_17 1_555 1_555
C41_17 O27_14 1_555 1_555
Zn16_7 O18_17 1_555 1_555
O23_17 Zn16_7 1_555 1_555
O24_17 Zn16_7 1_555 1_555
O24_17 H49_17 1_555 1_555
O24_17 H50_17 1_555 1_555
O23_17 H51_17 1_555 1_555
O23_17 H52_17 1_555 1_555
Zn16_8 O18_18 1_555 1_555
O23_18 Zn16_8 1_555 1_555
O24_18 Zn16_8 1_555 1_555
O24_18 H49_18 1_555 1_555
O24_18 H50_18 1_555 1_555
O23_18 H51_18 1_555 1_555
O23_18 H52_18 1_555 1_555
Zn15 O6_18 1_555 1_555
O27_17 C1_18 1_555 1_555
O31 C3_18 1_555 1_555
O33_11 C1_18 1_555 1_555
O6_18 C3_18 1_555 1_555
C1_18 C22_18 1_555 1_555
C2_18 H1_18 1_555 1_555
C3_18 C20_18 1_555 1_555
C5_18 H2_18 1_555 1_555
C6_18 C9_18 1_555 1_555
C7_18 C2_18 1_555 1_555
C9_18 C2_18 1_555 1_555
C11_18 C5_18 1_555 1_555
C12_18 C6_18 1_555 1_555
H3_18 C12_18 1_555 1_555
C14_18 C6_18 1_555 1_555
H5_18 C14_18 1_555 1_555
C15_18 C5_18 1_555 1_555
H6_18 C15_18 1_555 1_555
C16_18 C7_18 1_555 1_555
H7_18 C16_18 1_555 1_555
C20_18 C21_18 1_555 1_555
C21_18 C12_18 1_555 1_555
H8_18 C21_18 1_555 1_555
C22_18 C15_18 1_555 1_555
C24_18 C16_18 1_555 1_555
C25_18 C11_18 1_555 1_555
H9_18 C25_18 1_555 1_555
C33_18 C22_18 1_555 1_555
H16_18 C33_18 1_555 1_555
C35_18 C9_18 1_555 1_555
C38_18 C14_18 1_555 1_555
H20_18 C38_18 1_555 1_555
O11_18 Zn15 1_555 1_555
O12_18 Zn15 1_555 1_555
O26_3 C50_18 1_555 1_555
O19_18 Zn11_2 1_555 1_555
O35_12 C50_18 1_555 1_555
C42_18 H23_18 1_555 1_555
C43_18 C60_18 1_555 1_555
C44_18 C48_18 1_555 1_555
N3_18 N4_18 1_555 1_555
C45_18 H24_18 1_555 1_555
C46_18 C49_18 1_555 1_555
C47_18 C42_18 1_555 1_555
C48_18 C76_18 1_555 1_555
C49_18 C42_18 1_555 1_555
N4_18 C64_18 1_555 1_555
C50_18 C74_18 1_555 1_555
C51_18 C45_18 1_555 1_555
C52_18 C46_18 1_555 1_555
H25_18 C52_18 1_555 1_555
C53_18 C44_18 1_555 1_555
H26_18 C53_18 1_555 1_555
C54_18 C46_18 1_555 1_555
H27_18 C54_18 1_555 1_555
C55_18 C45_18 1_555 1_555
H28_18 C55_18 1_555 1_555
C56_18 C47_18 1_555 1_555
H29_18 C56_18 1_555 1_555
C57_18 C63_18 1_555 1_555
C58_18 C59_18 1_555 1_555
C59_18 O19_18 1_555 1_555
C60_18 C61_18 1_555 1_555
C61_18 C52_18 1_555 1_555
H30_18 C61_18 1_555 1_555
C63_18 C53_18 1_555 1_555
C64_18 C56_18 1_555 1_555
C65_18 C51_18 1_555 1_555
H31_18 C65_18 1_555 1_555
C66_18 C58_18 1_555 1_555
H32_18 C66_18 1_555 1_555
C67_18 H33_18 1_555 1_555
C68_18 C57_18 1_555 1_555
H34_18 C68_18 1_555 1_555
O21_18 C59_18 1_555 1_555
C69_18 N3_18 1_555 1_555
C70_18 C57_18 1_555 1_555
H35_18 C70_18 1_555 1_555
C71_18 C68_18 1_555 1_555
H36_18 C71_18 1_555 1_555
C72_18 C44_18 1_555 1_555
H37_18 C72_18 1_555 1_555
C73_18 C62_18 1_555 1_555
H38_18 C73_18 1_555 1_555
C74_18 C67_18 1_555 1_555
C75_18 C49_18 1_555 1_555
H39_18 C75_18 1_555 1_555
C76_18 C66_18 1_555 1_555
H40_18 C76_18 1_555 1_555
O22_18 N3_18 1_555 1_555
C77_18 C63_18 1_555 1_555
H41_18 C77_18 1_555 1_555
C78_18 C54_18 1_555 1_555
H42_18 C78_18 1_555 1_555
C79_18 C48_18 1_555 1_555
H43_18 C79_18 1_555 1_555
C80_18 C58_18 1_555 1_555
H44_18 C80_18 1_555 1_555
C7_18 C11_18 1_555 1_555
C20_18 C38_18 1_555 1_555
C24_18 C35_18 1_555 1_555
C25_18 C33_18 1_555 1_555
C47_18 C51_18 1_555 1_555
C55_18 C62_18 1_555 1_555
C60_18 C78_18 1_555 1_555
C64_18 C75_18 1_555 1_555
C65_18 C73_18 1_555 1_555
C67_18 C70_18 1_555 1_555
C69_18 C72_18 1_555 1_555
C69_18 C77_18 1_555 1_555
C71_18 C74_18 1_555 1_555
C79_18 C80_18 1_555 1_555
O11_18 H45_18 1_555 1_555
O11_18 H46_18 1_555 1_555
O12_18 H47_18 1_555 1_555
O12_18 H48_18 1_555 1_555
O25_8 C10_18 1_555 1_555
O7_18 Zn12_7 1_555 1_555
O36_6 C10_18 1_555 1_555
C4_18 C8_18 1_555 1_555
N1_18 N2_18 1_555 1_555
C8_18 C36_18 1_555 1_555
C10_18 C34_18 1_555 1_555
C13_18 C4_18 1_555 1_555
H4_18 C13_18 1_555 1_555
C17_18 C23_18 1_555 1_555
C18_18 C19_18 1_555 1_555
C19_18 O7_18 1_555 1_555
C23_18 C13_18 1_555 1_555
C26_18 C18_18 1_555 1_555
H10_18 C26_18 1_555 1_555
C27_18 H11_18 1_555 1_555
C28_18 C17_18 1_555 1_555
H12_18 C28_18 1_555 1_555
O9_18 C19_18 1_555 1_555
C29_18 N1_18 1_555 1_555
C30_18 C17_18 1_555 1_555
H13_18 C30_18 1_555 1_555
C31_18 C28_18 1_555 1_555
H14_18 C31_18 1_555 1_555
C32_18 C4_18 1_555 1_555
H15_18 C32_18 1_555 1_555
C34_18 C27_18 1_555 1_555
C36_18 C26_18 1_555 1_555
H18_18 C36_18 1_555 1_555
O10_18 N1_18 1_555 1_555
C37_18 C23_18 1_555 1_555
H19_18 C37_18 1_555 1_555
C39_18 C8_18 1_555 1_555
H21_18 C39_18 1_555 1_555
C40_18 C18_18 1_555 1_555
H22_18 C40_18 1_555 1_555
O34_4 C41_18 1_555 1_555
C41_18 O27_13 1_555 1_555
C27_18 C30_18 1_555 1_555
C29_18 C32_18 1_555 1_555
C29_18 C37_18 1_555 1_555
C31_18 C34_18 1_555 1_555
C39_18 C40_18 1_555 1_555

#END
