
###############################################################################
#
# This file contains modified crystal structure data generated from the
# MOF subset of the Cambridge Structural Database (CSD) v543 
# hosted by the Cambridge Crystallographic Data Centre (CCDC).
#
# This work is licensed under the Creative Commons
# Attribution-NonCommercial-ShareAlike 4.0 International License.
# To view a copy of this license, visit
# http://creativecommons.org/licenses/by-nc-sa/4.0/
# or send a letter to
# Creative Commons, PO Box 1866, Mountain View, CA 94042, USA.
#
# CIF created using the CSD Python API on 29 September 2022
# The structure has been converted into the P1 space group
# The structure has a 3D framework
# The original CSD entry VIYXOT is in the triclinic crystal system
# The framework has been calculated to contain at least 10.0% void space
# The void calculation uses a probe of radius 1.32A, grid spacing 0.4
# The framework is charged, counterions have been retained in the structure
#
###############################################################################

data_VIYXOT
_chemical_formula_moiety         '(C48 H38 Eu2 N4 O14)n'
_symmetry_cell_setting           triclinic
_symmetry_space_group_name_H-M   'P 1'
_symmetry_Int_Tables_number      1
_space_group_name_Hall           'P 1'
loop_
_symmetry_equiv_pos_site_id
_symmetry_equiv_pos_as_xyz
1 x,y,z
_cell_length_a                   10.0077(6)
_cell_length_b                   10.3815(5)
_cell_length_c                   15.9271(7)
_cell_angle_alpha                71.109(4)
_cell_angle_beta                 85.541(4)
_cell_angle_gamma                64.379(5)
_cell_volume                     1407.91
loop_
_atom_site_label
_atom_site_type_symbol
_atom_site_fract_x
_atom_site_fract_y
_atom_site_fract_z
N1 N 0.5244(11) 0.2630(14) 0.1448(7)
H1 H 0.5655 0.2451 0.0958
H2 H 0.4521 0.2328 0.1547
C1 C 0.4616(15) 0.4214(18) 0.1305(12)
H3 H 0.3852 0.4734 0.0828
H4 H 0.5377 0.4562 0.1153
H5 H 0.4197 0.4412 0.1838
C2 C 0.643(2) 0.170(2) 0.2237(11)
H6 H 0.7264 0.1932 0.2104
H7 H 0.6739 0.0643 0.2340
H8 H 0.6010 0.1943 0.2760
N1_2 N 0.4756(11) 0.7370(14) 0.8552(7)
H1_2 H 0.4345 0.7549 0.9042
H2_2 H 0.5479 0.7672 0.8453
C1_2 C 0.5384(15) 0.5786(18) 0.8695(12)
H3_2 H 0.6148 0.5266 0.9172
H4_2 H 0.4623 0.5438 0.8847
H5_2 H 0.5803 0.5588 0.8162
C2_2 C 0.357(2) 0.830(2) 0.7763(11)
H6_2 H 0.2736 0.8068 0.7896
H7_2 H 0.3261 0.9357 0.7660
H8_2 H 0.3990 0.8057 0.7240
O8 O 0.0619(5) 0.0914(5) 0.2120(3)
C24 C 0.0297(7) 0.0297(7) 0.1647(4)
Eu6 Eu 0.09230(3) 0.27659(3) 0.08378(2)
O3 O 0.2609(5) 0.3706(5) 0.0040(3)
O1 O 0.0046(4) 0.6120(5) 0.0634(3)
O2 O 0.1593(5) 0.5846(5) 0.8916(3)
O5 O 0.1157(5) 0.4046(5) 0.1777(3)
C3 C 0.0640(6) 0.5464(6) 0.1411(4)
C4 C 0.0762(7) 0.6369(6) 0.1937(4)
C5 C 0.2427(6) 0.4464(6) 0.9221(4)
C6 C 0.0376(7) 0.7885(7) 0.1556(4)
C7 C 0.5035(7) 0.1391(7) 0.8324(4)
C8 C 0.0550(7) 0.8692(7) 0.2056(4)
C9 C 0.3225(7) 0.3652(7) 0.8583(4)
C11 C 0.1471(9) 0.6426(8) 0.3349(4)
C12 C 0.4330(7) 0.2197(7) 0.8907(4)
H10 H 0.4604 0.1754 0.9514
C13 C 0.2830(7) 0.4310(7) 0.7681(4)
H11 H 0.2110 0.5302 0.7466
C14 C 0.3485(8) 0.3523(7) 0.7083(4)
C15 C 0.1315(8) 0.5628(7) 0.2835(4)
H12 H 0.1578 0.4600 0.3087
C16 C 0.1103(8) 0.7938(7) 0.2950(4)
H13 H 0.1223 0.8477 0.3282
C17 C 0.3016(9) 0.4250(8) 0.6119(4)
C18 C 0.2039(9) 0.5642(8) 0.4304(4)
C19 C 0.4592(8) 0.2042(7) 0.7421(4)
H14 H 0.5034 0.1488 0.7037
C20 C 0.2812(16) 0.6199(16) 0.4711(9)
H15 H 0.2990 0.7020 0.4375
C21 C 0.3292(15) 0.5518(14) 0.5604(8)
C22 C 0.2390(18) 0.3676(16) 0.5692(9)
H16 H 0.2294 0.2798 0.6008
C23 C 0.1895(17) 0.4363(15) 0.4803(9)
H17 H 0.1455 0.3951 0.4538
N2 N 0.397(3) 0.621(4) 0.5956(17)
H18 H 0.4053 0.6996 0.5619
H19 H 0.4285 0.5831 0.6508
O22 O 0.2892(5) 0.0426(5) 0.0660(3)
O24 O 0.3417(5) 0.1101(4) 0.1717(3)
H20 H 0.0002 0.1627 0.9034
O26 O 0.0168(5) 0.9003(5) 0.9159(3)
C32 C 0.3692(7) 0.0139(7) 0.1335(4)
O4 O 0.7108(5) 0.9574(5) 0.9340(3)
O6 O 0.6583(5) 0.8899(4) 0.8283(3)
C10 C 0.6308(7) 0.9861(7) 0.8665(4)
Eu10 Eu 0.90770(3) 0.72341(3) 0.91622(2)
O7 O 0.9832(5) 0.0997(5) 0.0841(3)
H9 H 0.9998 0.8373 0.0966
O18 O 0.8407(5) 0.4154(5) 0.1084(3)
O9 O 0.9954(4) 0.3880(5) 0.9366(3)
O13 O 0.8843(5) 0.5954(5) 0.8223(3)
C25 C 0.9360(6) 0.4536(6) 0.8589(4)
C26 C 0.9238(7) 0.3631(6) 0.8063(4)
C27 C 0.7573(6) 0.5536(6) 0.0779(4)
C28 C 0.9624(7) 0.2115(7) 0.8444(4)
C29 C 0.4965(7) 0.8609(7) 0.1676(4)
C30 C 0.9450(7) 0.1308(7) 0.7944(4)
C31 C 0.6775(7) 0.6348(7) 0.1417(4)
C33 C 0.8529(9) 0.3574(8) 0.6651(4)
C34 C 0.5670(7) 0.7803(7) 0.1093(4)
H21 H 0.5396 0.8246 0.0486
C35 C 0.7170(7) 0.5690(7) 0.2319(4)
H22 H 0.7890 0.4698 0.2534
C36 C 0.6515(8) 0.6477(7) 0.2917(4)
C37 C 0.8685(8) 0.4372(7) 0.7165(4)
H23 H 0.8422 0.5400 0.6913
C38 C 0.8897(8) 0.2062(7) 0.7050(4)
H24 H 0.8777 0.1523 0.6718
C39 C 0.6984(9) 0.5750(8) 0.3881(4)
C40 C 0.7961(9) 0.4358(8) 0.5696(4)
C41 C 0.5408(8) 0.7958(7) 0.2579(4)
H25 H 0.4966 0.8512 0.2963
C42 C 0.7188(16) 0.3801(16) 0.5289(9)
H26 H 0.7010 0.2980 0.5625
C43 C 0.6708(15) 0.4482(14) 0.4396(8)
C44 C 0.7610(18) 0.6324(16) 0.4308(9)
H27 H 0.7706 0.7202 0.3992
C45 C 0.8105(17) 0.5637(15) 0.5197(9)
H28 H 0.8545 0.6049 0.5462
N3 N 0.603(3) 0.379(4) 0.4044(17)
H29 H 0.5947 0.3004 0.4381
H30 H 0.5715 0.4169 0.3492
O20 O 0.7391(5) 0.6294(5) 0.9960(3)
O28 O 0.9381(5) 0.9086(5) 0.7880(3)
C46 C 0.9703(7) 0.9703(7) 0.8353(4)
loop_
_geom_bond_atom_site_label_1
_geom_bond_atom_site_label_2
_geom_bond_site_symmetry_1
_geom_bond_site_symmetry_2
N1 H1 1_555 1_555
H2 N1 1_555 1_555
C1 N1 1_555 1_555
H3 C1 1_555 1_555
H4 C1 1_555 1_555
H5 C1 1_555 1_555
C2 N1 1_555 1_555
H6 C2 1_555 1_555
H7 C2 1_555 1_555
H8 C2 1_555 1_555
N1_2 H1_2 1_555 1_555
H2_2 N1_2 1_555 1_555
C1_2 N1_2 1_555 1_555
H3_2 C1_2 1_555 1_555
H4_2 C1_2 1_555 1_555
H5_2 C1_2 1_555 1_555
C2_2 N1_2 1_555 1_555
H6_2 C2_2 1_555 1_555
H7_2 C2_2 1_555 1_555
H8_2 C2_2 1_555 1_555
O8 C24 1_555 1_555
O8 Eu6 1_555 1_555
Eu6 O3 1_555 1_555
Eu6 O5 1_555 1_555
O1 C3 1_555 1_555
O2 C5 1_555 1_555
O5 C3 1_555 1_555
C3 C4 1_555 1_555
C4 C6 1_555 1_555
C5 C9 1_555 1_555
C8 C6 1_555 1_555
C9 C12 1_555 1_555
C11 C15 1_555 1_555
C12 C7 1_555 1_555
H10 C12 1_555 1_555
C13 C9 1_555 1_555
H11 C13 1_555 1_555
C14 C13 1_555 1_555
C15 C4 1_555 1_555
H12 C15 1_555 1_555
C16 C8 1_555 1_555
H13 C16 1_555 1_555
C17 C14 1_555 1_555
C18 C11 1_555 1_555
C19 C7 1_555 1_555
H14 C19 1_555 1_555
C20 C18 1_555 1_555
H15 C20 1_555 1_555
C21 C17 1_555 1_555
C22 C17 1_555 1_555
H16 C22 1_555 1_555
C23 C18 1_555 1_555
H17 C23 1_555 1_555
N2 C21 1_555 1_555
H18 N2 1_555 1_555
H19 N2 1_555 1_555
O22 Eu6 1_555 1_555
O24 Eu6 1_555 1_555
C11 C16 1_555 1_555
C14 C19 1_555 1_555
C20 C21 1_555 1_555
C22 C23 1_555 1_555
O22 C32 1_555 1_555
O24 C32 1_555 1_555
O4 C10 1_555 1_555
O6 C10 1_555 1_555
Eu10 O4 1_555 1_555
O6 Eu10 1_555 1_555
O18 C27 1_555 1_555
O13 C25 1_555 1_555
C25 O9 1_555 1_555
C26 C25 1_555 1_555
C27 C31 1_555 1_555
C28 C26 1_555 1_555
C30 C28 1_555 1_555
C31 C34 1_555 1_555
C33 C37 1_555 1_555
C34 C29 1_555 1_555
H21 C34 1_555 1_555
C35 C31 1_555 1_555
H22 C35 1_555 1_555
C36 C35 1_555 1_555
C37 C26 1_555 1_555
H23 C37 1_555 1_555
C38 C30 1_555 1_555
H24 C38 1_555 1_555
C39 C36 1_555 1_555
C40 C33 1_555 1_555
C41 C29 1_555 1_555
H25 C41 1_555 1_555
C42 C40 1_555 1_555
H26 C42 1_555 1_555
C43 C39 1_555 1_555
C44 C39 1_555 1_555
H27 C44 1_555 1_555
C45 C40 1_555 1_555
H28 C45 1_555 1_555
N3 C43 1_555 1_555
H29 N3 1_555 1_555
H30 N3 1_555 1_555
O20 Eu10 1_555 1_555
O28 Eu10 1_555 1_555
O13 Eu10 1_555 1_555
C33 C38 1_555 1_555
C36 C41 1_555 1_555
C42 C43 1_555 1_555
C44 C45 1_555 1_555
O28 C46 1_555 1_555

#END
