
###############################################################################
#
# This file contains modified crystal structure data generated from the
# MOF subset of the Cambridge Structural Database (CSD) v543 
# hosted by the Cambridge Crystallographic Data Centre (CCDC).
#
# This work is licensed under the Creative Commons
# Attribution-NonCommercial-ShareAlike 4.0 International License.
# To view a copy of this license, visit
# http://creativecommons.org/licenses/by-nc-sa/4.0/
# or send a letter to
# Creative Commons, PO Box 1866, Mountain View, CA 94042, USA.
#
# CIF created using the CSD Python API on 29 September 2022
# The structure has been converted into the P1 space group
# The structure has a 3D framework
# The original CSD entry VIYZIO01 is in the triclinic crystal system
# The framework has been calculated to contain at least 10.0% void space
# The void calculation uses a probe of radius 1.32A, grid spacing 0.4
#
###############################################################################

data_VIYZIO01
_chemical_formula_moiety         '(C68 H40 N4 O16 Zn2)n'
_symmetry_cell_setting           triclinic
_symmetry_space_group_name_H-M   'P 1'
_symmetry_Int_Tables_number      1
_space_group_name_Hall           'P 1'
loop_
_symmetry_equiv_pos_site_id
_symmetry_equiv_pos_as_xyz
1 x,y,z
_cell_length_a                   10.239(2)
_cell_length_b                   12.191(2)
_cell_length_c                   13.910(3)
_cell_angle_alpha                94.60(3)
_cell_angle_beta                 93.75(3)
_cell_angle_gamma                99.87(3)
_cell_volume                     1699.54
loop_
_atom_site_label
_atom_site_type_symbol
_atom_site_fract_x
_atom_site_fract_y
_atom_site_fract_z
O7 O 0.0766(3) 0.8666(3) 0.5628(2)
O8 O 0.1046(3) 0.8958(3) 0.7231(2)
C24 C 0.0329(4) 0.8751(4) 0.6451(4)
Zn5 Zn 0.27797(5) 0.98093(5) 0.77177(4)
Zn6 Zn 0.23890(5) 0.80378(5) 0.53952(4)
O1 O 0.3246(4) 0.1214(3) 0.7161(3)
O2 O 0.1766(4) 0.1518(4) 0.8159(3)
O3 O 0.3945(5) 0.6463(4) 0.5476(3)
O4 O 0.2073(4) 0.6723(3) 0.6071(3)
O5 O 0.4087(3) 0.9020(3) 0.5839(2)
O6 O 0.4305(3) 0.9066(3) 0.7441(2)
N1 N 0.2349(4) 0.8087(3) 0.3960(3)
C1 C 0.2931(5) 0.5111(4) 0.6470(4)
C2 C 0.3285(6) 0.4216(5) 0.5961(4)
H1 H 0.3617 0.4298 0.5360
C3 C 0.3149(5) 0.3176(5) 0.6340(4)
H2 H 0.3390 0.2577 0.5979
C4 C 0.2672(5) 0.3010(4) 0.7226(4)
C5 C 0.1911(6) 0.3867(5) 0.8744(4)
H3 H 0.1807 0.3183 0.9008
C6 C 0.1650(7) 0.4782(6) 0.9269(5)
H4 H 0.1366 0.4711 0.9886
C7 C 0.1797(7) 0.5826(6) 0.8904(4)
H5 H 0.1622 0.6443 0.9279
C8 C 0.2202(6) 0.5938(5) 0.7988(4)
H6 H 0.2296 0.6634 0.7745
C9 C 0.2480(5) 0.5002(4) 0.7407(4)
C10 C 0.2343(5) 0.3942(4) 0.7792(4)
C11 C 0.2556(5) 0.1869(5) 0.7554(4)
C12 C 0.3035(6) 0.6181(5) 0.5974(4)
C13 C 0.6132(4) 0.8711(4) 0.6570(3)
C14 C 0.6790(4) 0.9049(4) 0.5793(3)
H7 H 0.6336 0.9316 0.5287
C15 C 0.8146(4) 0.8999(4) 0.5749(3)
H8 H 0.8570 0.9213 0.5205
C16 C 0.8849(4) 0.8640(4) 0.6493(3)
C17 C 0.8825(5) 0.7709(5) 0.8035(4)
H9 H 0.9730 0.7697 0.8026
C18 C 0.8149(6) 0.7251(5) 0.8759(4)
H10 H 0.8597 0.6950 0.9248
C19 C 0.6781(6) 0.7235(5) 0.8766(4)
H11 H 0.6321 0.6909 0.9255
C20 C 0.6120(5) 0.7688(5) 0.8069(4)
H12 H 0.5207 0.7657 0.8083
C21 C 0.6788(4) 0.8210(4) 0.7316(3)
C22 C 0.8180(4) 0.8200(4) 0.7296(3)
C23 C 0.4733(4) 0.8940(4) 0.6621(3)
C25 C 0.3484(5) 0.8117(4) 0.3520(3)
H13 H 0.4233 0.7976 0.3871
C26 C 0.3586(5) 0.8346(4) 0.2576(3)
H14 H 0.4387 0.8345 0.2296
C27 C 0.2496(5) 0.8579(4) 0.2039(3)
C28 C 0.1317(5) 0.8511(5) 0.2484(4)
H15 H 0.0551 0.8632 0.2143
C29 C 0.1280(5) 0.8266(5) 0.3428(3)
H16 H 0.0478 0.8223 0.3712
C30 C 0.2592(5) 0.8891(4) 0.1039(3)
C31 C 0.3497(6) 0.8527(6) 0.0447(4)
H17 H 0.4064 0.8068 0.0674
C34 C 0.1812(6) 0.9579(6) 0.0658(4)
H20 H 0.1188 0.9845 0.1028
N2 N 0.2778(4) 0.9507(4) 0.9146(3)
C32 C 0.3554(6) 0.8846(6) 0.9522(4)
H18 H 0.4167 0.8588 0.9137
C33 C 0.1944(6) 0.9885(6) 0.9728(4)
H19 H 0.1424 0.0378 0.9499
Zn1 Zn 0.72203(5) 0.01907(5) 0.22823(4)
O9 O 0.5695(3) 0.0934(3) 0.2559(2)
O11 O 0.8954(3) 0.1042(3) 0.2769(2)
N3 N 0.7222(4) 0.0493(4) 0.0854(3)
C32_2 C 0.6446(6) 0.1154(6) 0.0478(4)
H18_2 H 0.5833 0.1412 0.0863
C33_2 C 0.8056(6) 0.0115(6) 0.0272(4)
Zn2 Zn 0.76110(5) 0.19622(5) 0.46048(4)
O1_2 O 0.6754(4) 0.8786(3) 0.2839(3)
O2_2 O 0.8234(4) 0.8482(4) 0.1841(3)
O3_2 O 0.6055(5) 0.3537(4) 0.4524(3)
O4_2 O 0.7927(4) 0.3277(3) 0.3929(3)
O5_2 O 0.5913(3) 0.0980(3) 0.4161(2)
N1_2 N 0.7651(4) 0.1913(3) 0.6040(3)
C1_2 C 0.7069(5) 0.4889(4) 0.3530(4)
C2_2 C 0.6715(6) 0.5784(5) 0.4039(4)
H1_2 H 0.6383 0.5702 0.4640
C3_2 C 0.6851(5) 0.6824(5) 0.3660(4)
H2_2 H 0.6610 0.7423 0.4021
C4_2 C 0.7328(5) 0.6990(4) 0.2774(4)
C5_2 C 0.8089(6) 0.6133(5) 0.1256(4)
H3_2 H 0.8193 0.6817 0.0992
C6_2 C 0.8350(7) 0.5218(6) 0.0731(5)
H4_2 H 0.8634 0.5289 0.0114
C7_2 C 0.8203(7) 0.4174(6) 0.1096(4)
H5_2 H 0.8378 0.3557 0.0721
C8_2 C 0.7798(6) 0.4062(5) 0.2012(4)
H6_2 H 0.7704 0.3366 0.2255
C9_2 C 0.7520(5) 0.4998(4) 0.2593(4)
C10_2 C 0.7657(5) 0.6058(4) 0.2208(4)
C11_2 C 0.7444(5) 0.8131(5) 0.2446(4)
C12_2 C 0.6965(6) 0.3819(5) 0.4026(4)
C13_2 C 0.3868(4) 0.1289(4) 0.3430(3)
C14_2 C 0.3210(4) 0.0951(4) 0.4207(3)
H7_2 H 0.3664 0.0684 0.4713
C15_2 C 0.1854(4) 0.1001(4) 0.4251(3)
H8_2 H 0.1430 0.0787 0.4795
C16_2 C 0.1151(4) 0.1360(4) 0.3507(3)
C17_2 C 0.1175(5) 0.2291(5) 0.1965(4)
H9_2 H 0.0270 0.2303 0.1974
C18_2 C 0.1851(6) 0.2749(5) 0.1241(4)
H10_2 H 0.1403 0.3050 0.0752
C19_2 C 0.3219(6) 0.2765(5) 0.1234(4)
H11_2 H 0.3679 0.3091 0.0745
C20_2 C 0.3880(5) 0.2312(5) 0.1931(4)
H12_2 H 0.4793 0.2343 0.1917
C21_2 C 0.3212(4) 0.1790(4) 0.2684(3)
C22_2 C 0.1820(4) 0.1800(4) 0.2704(3)
C23_2 C 0.5267(4) 0.1060(4) 0.3379(3)
C25_2 C 0.6516(5) 0.1883(4) 0.6480(3)
H13_2 H 0.5767 0.2024 0.6129
C26_2 C 0.6414(5) 0.1654(4) 0.7424(3)
H14_2 H 0.5613 0.1655 0.7704
C27_2 C 0.7504(5) 0.1421(4) 0.7961(3)
C28_2 C 0.8683(5) 0.1489(5) 0.7516(4)
H15_2 H 0.9449 0.1368 0.7857
C29_2 C 0.8720(5) 0.1734(5) 0.6572(3)
H16_2 H 0.9522 0.1777 0.6288
C30_2 C 0.7408(5) 0.1109(4) 0.8961(3)
C31_2 C 0.6503(6) 0.1473(6) 0.9553(4)
H17_2 H 0.5936 0.1932 0.9326
C34_2 C 0.8188(6) 0.0421(6) 0.9342(4)
H20_2 H 0.8812 0.0155 0.8972
O10 O 0.9234(3) 0.1334(3) 0.4372(2)
C24_2 C 0.9671(4) 0.1249(4) 0.3549(4)
H19_2 H 0.8576 0.9622 0.0501
loop_
_geom_bond_atom_site_label_1
_geom_bond_atom_site_label_2
_geom_bond_site_symmetry_1
_geom_bond_site_symmetry_2
O7 C24 1_555 1_555
O8 C24 1_555 1_555
Zn5 O8 1_555 1_555
Zn6 O7 1_555 1_555
Zn6 O4 1_555 1_555
O1 C11 1_555 1_555
O3 C12 1_555 1_555
O4 C12 1_555 1_555
O5 Zn6 1_555 1_555
O6 C23 1_555 1_555
N1 Zn6 1_555 1_555
C1 C2 1_555 1_555
C2 H1 1_555 1_555
C3 C2 1_555 1_555
H2 C3 1_555 1_555
C4 C3 1_555 1_555
C5 H3 1_555 1_555
C6 C5 1_555 1_555
H4 C6 1_555 1_555
C7 C6 1_555 1_555
H5 C7 1_555 1_555
C8 C7 1_555 1_555
H6 C8 1_555 1_555
C9 C1 1_555 1_555
C10 C4 1_555 1_555
C11 O2 1_555 1_555
C12 C1 1_555 1_555
C13 C14 1_555 1_555
C14 H7 1_555 1_555
C15 C14 1_555 1_555
H8 C15 1_555 1_555
C16 C15 1_555 1_555
C17 H9 1_555 1_555
C18 C17 1_555 1_555
H10 C18 1_555 1_555
C19 C18 1_555 1_555
H11 C19 1_555 1_555
C20 C19 1_555 1_555
H12 C20 1_555 1_555
C21 C13 1_555 1_555
C22 C16 1_555 1_555
C23 O5 1_555 1_555
C25 N1 1_555 1_555
H13 C25 1_555 1_555
C26 C25 1_555 1_555
H14 C26 1_555 1_555
C27 C26 1_555 1_555
C28 C27 1_555 1_555
H15 C28 1_555 1_555
C29 N1 1_555 1_555
H16 C29 1_555 1_555
C30 C27 1_555 1_555
C31 C30 1_555 1_555
H17 C31 1_555 1_555
C34 C30 1_555 1_555
H20 C34 1_555 1_555
Zn5 O6 1_555 1_555
C4 C11 1_555 1_555
C5 C10 1_555 1_555
C8 C9 1_555 1_555
C9 C10 1_555 1_555
C13 C23 1_555 1_555
C17 C22 1_555 1_555
C20 C21 1_555 1_555
C21 C22 1_555 1_555
C28 C29 1_555 1_555
N2 C32 1_555 1_555
H18 C32 1_555 1_555
C33 N2 1_555 1_555
Zn5 N2 1_555 1_555
O9 Zn1 1_555 1_555
O11 Zn1 1_555 1_555
N3 Zn1 1_555 1_555
N3 C32_2 1_555 1_555
H18_2 C32_2 1_555 1_555
C33_2 N3 1_555 1_555
Zn2 O4_2 1_555 1_555
O1_2 C11_2 1_555 1_555
O3_2 C12_2 1_555 1_555
O4_2 C12_2 1_555 1_555
O5_2 Zn2 1_555 1_555
O9 C23_2 1_555 1_555
N1_2 Zn2 1_555 1_555
C1_2 C2_2 1_555 1_555
C2_2 H1_2 1_555 1_555
C3_2 C2_2 1_555 1_555
H2_2 C3_2 1_555 1_555
C4_2 C3_2 1_555 1_555
C5_2 H3_2 1_555 1_555
C6_2 C5_2 1_555 1_555
H4_2 C6_2 1_555 1_555
C7_2 C6_2 1_555 1_555
H5_2 C7_2 1_555 1_555
C8_2 C7_2 1_555 1_555
H6_2 C8_2 1_555 1_555
C9_2 C1_2 1_555 1_555
C10_2 C4_2 1_555 1_555
C11_2 O2_2 1_555 1_555
C12_2 C1_2 1_555 1_555
C13_2 C14_2 1_555 1_555
C14_2 H7_2 1_555 1_555
C15_2 C14_2 1_555 1_555
H8_2 C15_2 1_555 1_555
C16_2 C15_2 1_555 1_555
C17_2 H9_2 1_555 1_555
C18_2 C17_2 1_555 1_555
H10_2 C18_2 1_555 1_555
C19_2 C18_2 1_555 1_555
H11_2 C19_2 1_555 1_555
C20_2 C19_2 1_555 1_555
H12_2 C20_2 1_555 1_555
C21_2 C13_2 1_555 1_555
C22_2 C16_2 1_555 1_555
C23_2 O5_2 1_555 1_555
C25_2 N1_2 1_555 1_555
H13_2 C25_2 1_555 1_555
C26_2 C25_2 1_555 1_555
H14_2 C26_2 1_555 1_555
C27_2 C26_2 1_555 1_555
C28_2 C27_2 1_555 1_555
H15_2 C28_2 1_555 1_555
C29_2 N1_2 1_555 1_555
H16_2 C29_2 1_555 1_555
C30_2 C27_2 1_555 1_555
C31_2 C30_2 1_555 1_555
H17_2 C31_2 1_555 1_555
C34_2 C30_2 1_555 1_555
H20_2 C34_2 1_555 1_555
O10 Zn2 1_555 1_555
C4_2 C11_2 1_555 1_555
C5_2 C10_2 1_555 1_555
C8_2 C9_2 1_555 1_555
C9_2 C10_2 1_555 1_555
C13_2 C23_2 1_555 1_555
C17_2 C22_2 1_555 1_555
C20_2 C21_2 1_555 1_555
C21_2 C22_2 1_555 1_555
C28_2 C29_2 1_555 1_555
O10 C24_2 1_555 1_555
O11 C24_2 1_555 1_555

#END
