
###############################################################################
#
# This file contains modified crystal structure data generated from the
# MOF subset of the Cambridge Structural Database (CSD) v543 
# hosted by the Cambridge Crystallographic Data Centre (CCDC).
#
# This work is licensed under the Creative Commons
# Attribution-NonCommercial-ShareAlike 4.0 International License.
# To view a copy of this license, visit
# http://creativecommons.org/licenses/by-nc-sa/4.0/
# or send a letter to
# Creative Commons, PO Box 1866, Mountain View, CA 94042, USA.
#
# CIF created using the CSD Python API on 29 September 2022
# The structure has been converted into the P1 space group
# The structure has a 3D framework
# The original CSD entry VIYZIO is in the triclinic crystal system
# The framework has been calculated to contain at least 10.0% void space
# The void calculation uses a probe of radius 1.32A, grid spacing 0.4
#
###############################################################################

data_VIYZIO
_chemical_formula_moiety         '(C68 H40 N4 O16 Zn4)n'
_symmetry_cell_setting           triclinic
_symmetry_space_group_name_H-M   'P 1'
_symmetry_Int_Tables_number      1
_space_group_name_Hall           'P 1'
loop_
_symmetry_equiv_pos_site_id
_symmetry_equiv_pos_as_xyz
1 x,y,z
_cell_length_a                   10.239(2)
_cell_length_b                   12.191(2)
_cell_length_c                   13.910(3)
_cell_angle_alpha                94.60(3)
_cell_angle_beta                 93.75(3)
_cell_angle_gamma                99.87(3)
_cell_volume                     1699.54
loop_
_atom_site_label
_atom_site_type_symbol
_atom_site_fract_x
_atom_site_fract_y
_atom_site_fract_z
C13 C 0.1133(5) 0.3713(4) 0.6572(4)
C14 C 0.1792(5) 0.4047(4) 0.5788(4)
H7 H 0.1335 0.4306 0.5278
C15 C 0.3147(5) 0.4002(5) 0.5747(4)
H8 H 0.3573 0.4220 0.5205
C16 C 0.3849(5) 0.3643(4) 0.6495(3)
C17 C 0.3824(5) 0.2704(5) 0.8033(4)
H9 H 0.4728 0.2687 0.8023
C18 C 0.3145(6) 0.2254(6) 0.8762(5)
H10 H 0.3592 0.1959 0.9256
C19 C 0.1782(6) 0.2238(6) 0.8767(5)
H11 H 0.1320 0.1911 0.9256
C20 C 0.1118(6) 0.2689(5) 0.8070(4)
H12 H 0.0205 0.2654 0.8082
C21 C 0.1788(5) 0.3215(4) 0.7320(4)
C22 C 0.3178(5) 0.3195(5) 0.7293(4)
C24 C 0.5329(5) 0.3750(4) 0.6449(4)
O7 O 0.5764(3) 0.3670(3) 0.5629(3)
O8 O 0.6046(3) 0.3959(4) 0.7231(3)
Zn5 Zn 0.77798(5) 0.48091(5) 0.77175(4)
Zn6 Zn 0.73892(5) 0.30381(5) 0.53952(4)
C1 C 0.7932(6) 0.0116(5) 0.6472(4)
C7 C 0.6795(8) 0.0820(6) 0.8901(5)
H5 H 0.6619 0.1436 0.9276
C8 C 0.7197(6) 0.0940(6) 0.7991(5)
H6 H 0.7289 0.1637 0.7751
C9 C 0.7478(5) 0.0001(5) 0.7407(4)
C12 C 0.8044(6) 0.1179(5) 0.5970(4)
C23 C 0.9732(5) 0.3938(4) 0.6621(4)
C25 C 0.8484(5) 0.3121(5) 0.3524(4)
H13 H 0.9234 0.2988 0.3878
C26 C 0.8588(5) 0.3345(5) 0.2577(4)
H14 H 0.9387 0.3339 0.2297
C27 C 0.7494(5) 0.3581(5) 0.2038(4)
C28 C 0.6313(5) 0.3506(5) 0.2483(4)
H15 H 0.5544 0.3616 0.2139
C29 C 0.6278(5) 0.3270(5) 0.3427(4)
H16 H 0.5478 0.3236 0.3714
C30 C 0.7588(5) 0.3887(5) 0.1037(4)
C31 C 0.8496(7) 0.3521(6) 0.0445(4)
H17 H 0.9056 0.3055 0.0668
C34 C 0.6815(7) 0.4585(7) 0.0660(4)
H20 H 0.6201 0.4862 0.1033
N1 N 0.7349(4) 0.3086(4) 0.3958(3)
O3 O 0.8946(5) 0.1466(4) 0.5476(3)
O4 O 0.7074(4) 0.1719(4) 0.6069(3)
O5 O 0.9087(3) 0.4020(3) 0.5838(2)
O6 O 0.9306(3) 0.4062(3) 0.7440(2)
C32 C 0.8559(6) 0.3852(6) 0.9527(4)
H18 H 0.9184 0.3606 0.9147
C33 C 0.6945(7) 0.4882(6) 0.9725(4)
H19 H 0.6420 0.5370 0.9493
N2 N 0.7778(4) 0.4506(4) 0.9146(3)
C2 C 0.8287(6) 0.9223(5) 0.5967(4)
H1 H 0.8625 0.9308 0.5367
C3 C 0.8150(6) 0.8179(5) 0.6340(5)
H2 H 0.8387 0.7580 0.5976
C4 C 0.7672(5) 0.8013(5) 0.7231(4)
C5 C 0.6907(7) 0.8875(6) 0.8748(4)
H3 H 0.6799 0.8192 0.9013
C6 C 0.6647(8) 0.9784(6) 0.9268(5)
H4 H 0.6362 0.9715 0.9885
C10 C 0.7346(5) 0.8946(5) 0.7795(4)
C11 C 0.7553(5) 0.6871(5) 0.7555(5)
O1 O 0.8247(4) 0.6216(4) 0.7165(4)
O2 O 0.6763(5) 0.6516(4) 0.8157(4)
C2_2 C 0.1713(6) 0.0777(5) 0.4033(4)
H1_2 H 0.1375 0.0692 0.4633
C3_2 C 0.1850(6) 0.1821(5) 0.3660(5)
H2_2 H 0.1613 0.2420 0.4024
C4_2 C 0.2328(5) 0.1987(5) 0.2769(4)
C5_2 C 0.3093(7) 0.1125(6) 0.1252(4)
H3_2 H 0.3201 0.1808 0.0987
C6_2 C 0.3353(8) 0.0216(6) 0.0732(5)
H4_2 H 0.3638 0.0285 0.0115
C10_2 C 0.2654(5) 0.1054(5) 0.2205(4)
C11_2 C 0.2447(5) 0.3129(5) 0.2445(5)
O1_2 O 0.1753(4) 0.3784(4) 0.2835(4)
O2_2 O 0.3237(5) 0.3484(4) 0.1843(4)
Zn1 Zn 0.22202(5) 0.51909(5) 0.22825(4)
N3 N 0.2222(4) 0.5494(4) 0.0854(3)
O9 O 0.0694(3) 0.5938(3) 0.2560(2)
O11 O 0.3954(3) 0.6041(4) 0.2769(3)
C32_2 C 0.1441(6) 0.6148(6) 0.0473(4)
H18_2 H 0.0816 0.6394 0.0853
C33_2 C 0.3055(7) 0.5118(6) 0.0275(4)
H19_2 H 0.3580 0.4630 0.0507
C1_2 C 0.2068(6) 0.9884(5) 0.3528(4)
C7_2 C 0.3205(8) 0.9180(6) 0.1099(5)
H5_2 H 0.3381 0.8564 0.0724
C8_2 C 0.2803(6) 0.9060(6) 0.2009(5)
H6_2 H 0.2711 0.8363 0.2249
C9_2 C 0.2522(5) 0.9999(5) 0.2593(4)
C12_2 C 0.1956(6) 0.8821(5) 0.4030(4)
C23_2 C 0.0268(5) 0.6062(4) 0.3379(4)
C25_2 C 0.1516(5) 0.6879(5) 0.6476(4)
H13_2 H 0.0766 0.7012 0.6122
C26_2 C 0.1412(5) 0.6655(5) 0.7423(4)
H14_2 H 0.0613 0.6661 0.7703
C27_2 C 0.2506(5) 0.6419(5) 0.7962(4)
C28_2 C 0.3687(5) 0.6494(5) 0.7517(4)
H15_2 H 0.4456 0.6384 0.7861
C29_2 C 0.3722(5) 0.6730(5) 0.6573(4)
H16_2 H 0.4522 0.6764 0.6286
C30_2 C 0.2412(5) 0.6113(5) 0.8963(4)
C31_2 C 0.1504(7) 0.6479(6) 0.9555(4)
H17_2 H 0.0944 0.6945 0.9332
C34_2 C 0.3185(7) 0.5415(7) 0.9340(4)
H20_2 H 0.3799 0.5138 0.8967
N1_2 N 0.2651(4) 0.6914(4) 0.6042(3)
O3_2 O 0.1054(5) 0.8534(4) 0.4524(3)
O4_2 O 0.2926(4) 0.8281(4) 0.3931(3)
O5_2 O 0.0913(3) 0.5980(3) 0.4162(2)
Zn2 Zn 0.26108(5) 0.69619(5) 0.46048(4)
O10 O 0.4236(3) 0.6330(3) 0.4371(3)
C13_2 C 0.8867(5) 0.6287(4) 0.3428(4)
C14_2 C 0.8208(5) 0.5953(4) 0.4212(4)
H7_2 H 0.8665 0.5694 0.4722
C15_2 C 0.6853(5) 0.5998(5) 0.4253(4)
H8_2 H 0.6427 0.5780 0.4795
C16_2 C 0.6151(5) 0.6357(4) 0.3505(3)
C17_2 C 0.6176(5) 0.7296(5) 0.1967(4)
H9_2 H 0.5272 0.7313 0.1977
C18_2 C 0.6855(6) 0.7746(6) 0.1238(5)
H10_2 H 0.6408 0.8041 0.0744
C19_2 C 0.8218(6) 0.7762(6) 0.1233(5)
H11_2 H 0.8680 0.8089 0.0744
C20_2 C 0.8882(6) 0.7311(5) 0.1930(4)
H12_2 H 0.9795 0.7346 0.1918
C21_2 C 0.8212(5) 0.6785(4) 0.2680(4)
C22_2 C 0.6822(5) 0.6805(5) 0.2707(4)
C24_2 C 0.4671(5) 0.6250(4) 0.3551(4)
loop_
_geom_bond_atom_site_label_1
_geom_bond_atom_site_label_2
_geom_bond_site_symmetry_1
_geom_bond_site_symmetry_2
C13 C14 1_555 1_555
C14 H7 1_555 1_555
C15 C14 1_555 1_555
H8 C15 1_555 1_555
C16 C15 1_555 1_555
C17 H9 1_555 1_555
C18 C17 1_555 1_555
H10 C18 1_555 1_555
C19 C18 1_555 1_555
H11 C19 1_555 1_555
C20 C19 1_555 1_555
H12 C20 1_555 1_555
C21 C13 1_555 1_555
C22 C16 1_555 1_555
C24 C16 1_555 1_555
O7 C24 1_555 1_555
O8 C24 1_555 1_555
Zn5 O8 1_555 1_555
Zn6 O7 1_555 1_555
C17 C22 1_555 1_555
C20 C21 1_555 1_555
C21 C22 1_555 1_555
H5 C7 1_555 1_555
C8 C7 1_555 1_555
H6 C8 1_555 1_555
C9 C1 1_555 1_555
C12 C1 1_555 1_555
C25 H13 1_555 1_555
C26 C25 1_555 1_555
H14 C26 1_555 1_555
C27 C26 1_555 1_555
C28 C27 1_555 1_555
H15 C28 1_555 1_555
C29 C28 1_555 1_555
H16 C29 1_555 1_555
C30 C27 1_555 1_555
C31 C30 1_555 1_555
H17 C31 1_555 1_555
C34 C30 1_555 1_555
H20 C34 1_555 1_555
N1 C25 1_555 1_555
O3 C12 1_555 1_555
O4 C12 1_555 1_555
O5 C23 1_555 1_555
O6 C23 1_555 1_555
Zn6 N1 1_555 1_555
Zn5 O6 1_555 1_555
C8 C9 1_555 1_555
C29 N1 1_555 1_555
O4 Zn6 1_555 1_555
O5 Zn6 1_555 1_555
H18 C32 1_555 1_555
C33 H19 1_555 1_555
N2 C32 1_555 1_555
Zn5 N2 1_555 1_555
C33 N2 1_555 1_555
C2 H1 1_555 1_555
C3 C2 1_555 1_555
H2 C3 1_555 1_555
C4 C3 1_555 1_555
C5 H3 1_555 1_555
C6 C5 1_555 1_555
H4 C6 1_555 1_555
C10 C4 1_555 1_555
C11 C4 1_555 1_555
O1 C11 1_555 1_555
O2 C11 1_555 1_555
Zn5 O1 1_555 1_555
C5 C10 1_555 1_555
O2 Zn5 1_555 1_555
C2_2 H1_2 1_555 1_555
C3_2 C2_2 1_555 1_555
H2_2 C3_2 1_555 1_555
C4_2 C3_2 1_555 1_555
C5_2 H3_2 1_555 1_555
C6_2 C5_2 1_555 1_555
H4_2 C6_2 1_555 1_555
C10_2 C4_2 1_555 1_555
C11_2 C4_2 1_555 1_555
O1_2 C11_2 1_555 1_555
O2_2 C11_2 1_555 1_555
Zn1 O1_2 1_555 1_555
N3 Zn1 1_555 1_555
O9 Zn1 1_555 1_555
O11 Zn1 1_555 1_555
C5_2 C10_2 1_555 1_555
O2_2 Zn1 1_555 1_555
H18_2 C32_2 1_555 1_555
C33_2 H19_2 1_555 1_555
N3 C32_2 1_555 1_555
C33_2 N3 1_555 1_555
H5_2 C7_2 1_555 1_555
C8_2 C7_2 1_555 1_555
H6_2 C8_2 1_555 1_555
C9_2 C1_2 1_555 1_555
C12_2 C1_2 1_555 1_555
C25_2 H13_2 1_555 1_555
C26_2 C25_2 1_555 1_555
H14_2 C26_2 1_555 1_555
C27_2 C26_2 1_555 1_555
C28_2 C27_2 1_555 1_555
H15_2 C28_2 1_555 1_555
C29_2 C28_2 1_555 1_555
H16_2 C29_2 1_555 1_555
C30_2 C27_2 1_555 1_555
C31_2 C30_2 1_555 1_555
H17_2 C31_2 1_555 1_555
C34_2 C30_2 1_555 1_555
H20_2 C34_2 1_555 1_555
N1_2 C25_2 1_555 1_555
O3_2 C12_2 1_555 1_555
O4_2 C12_2 1_555 1_555
O5_2 C23_2 1_555 1_555
O9 C23_2 1_555 1_555
Zn2 N1_2 1_555 1_555
O10 Zn2 1_555 1_555
C8_2 C9_2 1_555 1_555
C29_2 N1_2 1_555 1_555
O4_2 Zn2 1_555 1_555
O5_2 Zn2 1_555 1_555
C13_2 C14_2 1_555 1_555
C14_2 H7_2 1_555 1_555
C15_2 C14_2 1_555 1_555
H8_2 C15_2 1_555 1_555
C16_2 C15_2 1_555 1_555
C17_2 H9_2 1_555 1_555
C18_2 C17_2 1_555 1_555
H10_2 C18_2 1_555 1_555
C19_2 C18_2 1_555 1_555
H11_2 C19_2 1_555 1_555
C20_2 C19_2 1_555 1_555
H12_2 C20_2 1_555 1_555
C21_2 C13_2 1_555 1_555
C22_2 C16_2 1_555 1_555
C24_2 C16_2 1_555 1_555
O10 C24_2 1_555 1_555
O11 C24_2 1_555 1_555
C17_2 C22_2 1_555 1_555
C20_2 C21_2 1_555 1_555
C21_2 C22_2 1_555 1_555

#END
