
###############################################################################
#
# This file contains modified crystal structure data generated from the
# MOF subset of the Cambridge Structural Database (CSD) v543 
# hosted by the Cambridge Crystallographic Data Centre (CCDC).
#
# This work is licensed under the Creative Commons
# Attribution-NonCommercial-ShareAlike 4.0 International License.
# To view a copy of this license, visit
# http://creativecommons.org/licenses/by-nc-sa/4.0/
# or send a letter to
# Creative Commons, PO Box 1866, Mountain View, CA 94042, USA.
#
# CIF created using the CSD Python API on 29 September 2022
# The structure has been converted into the P1 space group
# The structure has a 3D framework
# The original CSD entry VIZFOC is in the monoclinic crystal system
# The framework has been calculated to contain at least 10.0% void space
# The void calculation uses a probe of radius 1.32A, grid spacing 0.4
# H atom positions have been added when not included in the experimental data
# Generated hydrogen atom positions removed from atoms on special positions
#
###############################################################################

data_VIZFOC
_chemical_formula_moiety         '(C160 H152 N8 O57 Zr12)n'
_symmetry_cell_setting           triclinic
_symmetry_space_group_name_H-M   'P 1'
_symmetry_Int_Tables_number      1
_space_group_name_Hall           'P 1'
loop_
_symmetry_equiv_pos_site_id
_symmetry_equiv_pos_as_xyz
1 x,y,z
_cell_length_a                   35.346(2)
_cell_length_b                   18.477(4)
_cell_length_c                   18.0998(12)
_cell_angle_alpha                90
_cell_angle_beta                 92.956(7)
_cell_angle_gamma                90
_cell_volume                     11805
loop_
_atom_site_label
_atom_site_type_symbol
_atom_site_fract_x
_atom_site_fract_y
_atom_site_fract_z
Zr2 Zr 0.00232(2) 0.59591(7) 0.59822(4)
O5 O 0.0043(2) 0.5913(5) 0.7197(4)
O6 O 0.0026(2) 0.7154(5) 0.5981(4)
O9 O 0.0348(3) 0.500000 0.6004(7)
O14 O 0.03288(19) 0.5855(3) 0.4935(3)
Zr5 Zr 0.06897(3) 0.500000 0.50067(6)
Zr9 Zr 0.00232(2) 0.40409(7) 0.59822(4)
O23 O 0.06071(19) 0.6292(5) 0.6357(5)
O24 O 0.0286(3) 0.500000 0.4017(7)
O26 O 0.05378(18) 0.6308(5) 0.3631(4)
H23 H 0.0110364 0.733378 0.447611
H24 H 0.0101973 0.733478 0.357951
H26 H 0.0212079 0.602126 0.262546
H28 H 0.0189264 0.733223 0.640549
H30 H 0.0305241 0.601227 0.739416
Zr4 Zr 0.56897(3) 0.000000 0.50067(6)
O17 O 0.59936(16) 0.0737(5) 0.4265(4)
O19 O 0.60270(18) 0.0715(5) 0.5750(4)
O20 O 0.53288(19) 0.0855(3) 0.4935(3)
O25 O 0.5286(3) 0.000000 0.4017(7)
O28 O 0.5348(3) 0.000000 0.6004(7)
O10 O 0.59936(16) 0.9263(5) 0.4265(4)
O11 O 0.89730(18) 0.5715(5) 0.4250(4)
O12 O 0.93929(19) 0.6292(5) 0.3643(5)
C21 C 0.9060(3) 0.6160(8) 0.3778(6)
C22 C 0.6124(3) 0.8169(8) 0.2672(6)
H12 H 0.587650 0.807979 0.249356
C23 C 0.6191(3) 0.8567(9) 0.3350(6)
C24 C 0.5895(3) 0.8856(8) 0.3787(6)
C25 C 0.6785(3) 0.8004(10) 0.2517(6)
C26 C 0.8732(3) 0.6439(9) 0.3327(6)
C27 C 0.8458(3) 0.7161(9) 0.2297(6)
H13 H 0.849372 0.745464 0.188889
N2 N 0.7358(3) 0.7612(10) 0.0165(5)
C28 C 0.8768(3) 0.6882(9) 0.2675(6)
H14 H 0.900799 0.697747 0.251041
C29 C 0.6408(3) 0.7933(9) 0.2306(6)
H15 H 0.634926 0.769580 0.186150
C30 C 0.7439(3) 0.7494(10) 0.2463(6)
H16 H 0.744503 0.744923 0.297481
C31 C 0.7741(3) 0.7322(10) 0.1328(6)
H17 H 0.795358 0.720797 0.106810
C32 C 0.6565(3) 0.8673(9) 0.3586(7)
H18 H 0.662343 0.893060 0.401816
C33 C 0.7119(3) 0.7785(11) 0.2117(6)
C34 C 0.8366(3) 0.6332(10) 0.3550(7)
H19 H 0.833218 0.607670 0.398470
C35 C 0.7743(3) 0.7268(10) 0.2111(6)
C36 C 0.7094(3) 0.7776(10) 0.1339(6)
H20 H 0.687272 0.791811 0.107969
C37 C 0.7405(3) 0.7553(10) 0.0969(5)
C38 C 0.6858(3) 0.8392(10) 0.3172(7)
H21 H 0.710755 0.846637 0.333999
C39 C 0.8093(3) 0.7022(10) 0.2498(6)
C40 C 0.8044(3) 0.6596(10) 0.3142(7)
H22 H 0.780234 0.649222 0.329198
O13 O 0.55378(18) 0.8692(5) 0.3631(4)
Zr4_2 Zr 0.56897(3) 1.000000 0.50067(6)
Zr7 Zr 0.93103(3) 0.500000 0.49933(6)
Zr8 Zr 0.99768(2) 0.59591(7) 0.40178(4)
Zr10 Zr 0.49768(2) 0.90409(7) 0.40178(4)
O1 O 0.90064(16) 0.5737(5) 0.5735(4)
O2 O 0.60270(18) 0.9285(5) 0.5750(4)
O3 O 0.96712(19) 0.5855(3) 0.5065(3)
O4 O 0.56071(19) 0.8708(5) 0.6357(5)
O7 O 0.9714(3) 0.500000 0.5983(7)
C1 C 0.5940(3) 0.8840(8) 0.6222(6)
C2 C 0.8876(3) 0.6831(8) 0.7328(6)
H1 H 0.912350 0.692021 0.750644
C3 C 0.8809(3) 0.6433(9) 0.6650(6)
C4 C 0.9105(3) 0.6144(8) 0.6213(6)
C5 C 0.8215(3) 0.6996(10) 0.7483(6)
C6 C 0.6268(3) 0.8561(9) 0.6673(6)
C7 C 0.6542(3) 0.7839(9) 0.7703(6)
H2 H 0.650628 0.754536 0.811111
N1 N 0.7642(3) 0.7388(10) 0.9835(5)
C8 C 0.6232(3) 0.8118(9) 0.7325(6)
H3 H 0.599201 0.802253 0.748959
C9 C 0.8592(3) 0.7067(9) 0.7694(6)
H4 H 0.865074 0.730420 0.813850
C10 C 0.7561(3) 0.7506(10) 0.7537(6)
H5 H 0.755497 0.755077 0.702519
C11 C 0.7259(3) 0.7678(10) 0.8672(6)
H6 H 0.704642 0.779203 0.893190
C12 C 0.8435(3) 0.6327(9) 0.6414(7)
H7 H 0.837657 0.606940 0.598184
C13 C 0.7881(3) 0.7215(11) 0.7883(6)
C14 C 0.6634(3) 0.8668(10) 0.6450(7)
H8 H 0.666782 0.892330 0.601530
C15 C 0.7257(3) 0.7732(10) 0.7889(6)
C16 C 0.7906(3) 0.7224(10) 0.8661(6)
H9 H 0.812728 0.708189 0.892031
C17 C 0.7595(3) 0.7447(10) 0.9031(5)
C18 C 0.8142(3) 0.6608(10) 0.6828(7)
H10 H 0.789245 0.653363 0.666001
C19 C 0.6907(3) 0.7978(10) 0.7502(6)
C20 C 0.6956(3) 0.8404(10) 0.6858(7)
H11 H 0.719766 0.850778 0.670802
O8 O 0.94622(18) 0.6308(5) 0.6369(4)
O15 O 0.9957(2) 0.5913(5) 0.2803(4)
O16 O 0.9974(2) 0.7154(5) 0.4019(4)
Zr11 Zr 0.50232(2) 0.90409(7) 0.59822(4)
O21 O 0.53288(19) 0.9145(3) 0.4935(3)
O25_2 O 0.5286(3) 1.000000 0.4017(7)
O27 O 0.9652(3) 0.500000 0.3996(7)
O28_2 O 0.5348(3) 1.000000 0.6004(7)
H25 H 0.977248 0.627543 0.259841
H27 H 0.97637 0.733547 0.602527
H29 H 0.996423 0.542423 0.73577
Zr1 Zr 0.43103(3) 0.000000 0.49933(6)
O17_2 O 0.40064(16) 0.0737(5) 0.5735(4)
O19_2 O 0.39730(18) 0.0715(5) 0.4250(4)
O20_2 O 0.46712(19) 0.0855(3) 0.5065(3)
O25_3 O 0.4714(3) 0.000000 0.5983(7)
O28_3 O 0.4652(3) 0.000000 0.3996(7)
Zr1_2 Zr 0.43103(3) 1.000000 0.49933(6)
O1_2 O 0.09936(16) 0.5737(5) 0.4265(4)
O2_2 O 0.39730(18) 0.9285(5) 0.4250(4)
O4_2 O 0.43929(19) 0.8708(5) 0.3643(5)
C1_2 C 0.4060(3) 0.8840(8) 0.3778(6)
C2_2 C 0.1124(3) 0.6831(8) 0.2672(6)
H1_2 H 0.087650 0.692021 0.249356
C3_2 C 0.1191(3) 0.6433(9) 0.3350(6)
C4_2 C 0.0895(3) 0.6144(8) 0.3787(6)
C5_2 C 0.1785(3) 0.6996(10) 0.2517(6)
C6_2 C 0.3732(3) 0.8561(9) 0.3327(6)
C7_2 C 0.3458(3) 0.7839(9) 0.2297(6)
H2_2 H 0.349372 0.754536 0.188889
N1_2 N 0.2358(3) 0.7388(10) 0.0165(5)
C8_2 C 0.3768(3) 0.8118(9) 0.2675(6)
H3_2 H 0.400799 0.802253 0.251041
C9_2 C 0.1408(3) 0.7067(9) 0.2306(6)
H4_2 H 0.134926 0.730420 0.186150
C10_2 C 0.2439(3) 0.7506(10) 0.2463(6)
H5_2 H 0.244503 0.755077 0.297481
C11_2 C 0.2741(3) 0.7678(10) 0.1328(6)
H6_2 H 0.295358 0.779203 0.106810
C12_2 C 0.1565(3) 0.6327(9) 0.3586(7)
H7_2 H 0.162343 0.606940 0.401816
C13_2 C 0.2119(3) 0.7215(11) 0.2117(6)
C14_2 C 0.3366(3) 0.8668(10) 0.3550(7)
H8_2 H 0.333218 0.892330 0.398470
C15_2 C 0.2743(3) 0.7732(10) 0.2111(6)
C16_2 C 0.2094(3) 0.7224(10) 0.1339(6)
H9_2 H 0.187272 0.708189 0.107969
C17_2 C 0.2405(3) 0.7447(10) 0.0969(5)
C18_2 C 0.1858(3) 0.6608(10) 0.3172(7)
H10_2 H 0.210755 0.653363 0.333999
C19_2 C 0.3093(3) 0.7978(10) 0.2498(6)
C20_2 C 0.3044(3) 0.8404(10) 0.3142(7)
H11_2 H 0.280234 0.850778 0.329198
O18 O 0.40064(16) 0.9263(5) 0.5735(4)
O21_2 O 0.46712(19) 0.9145(3) 0.5065(3)
O25_4 O 0.4714(3) 1.000000 0.5983(7)
O28_4 O 0.4652(3) 1.000000 0.3996(7)
H25_2 H 0.0227525 0.627543 0.740159
H27_2 H 0.0236297 0.733547 0.397473
H29_2 H 0.00357654 0.542423 0.26423
O11_2 O 0.10270(18) 0.5715(5) 0.5750(4)
C21_2 C 0.0940(3) 0.6160(8) 0.6222(6)
C22_2 C 0.3876(3) 0.8169(8) 0.7328(6)
H12_2 H 0.412350 0.807979 0.750644
C23_2 C 0.3809(3) 0.8567(9) 0.6650(6)
C24_2 C 0.4105(3) 0.8856(8) 0.6213(6)
C25_2 C 0.3215(3) 0.8004(10) 0.7483(6)
C26_2 C 0.1268(3) 0.6439(9) 0.6673(6)
C27_2 C 0.1542(3) 0.7161(9) 0.7703(6)
H13_2 H 0.150628 0.745464 0.811111
N2_2 N 0.2642(3) 0.7612(10) 0.9835(5)
C28_2 C 0.1232(3) 0.6882(9) 0.7325(6)
H14_2 H 0.099201 0.697747 0.748959
C29_2 C 0.3592(3) 0.7933(9) 0.7694(6)
H15_2 H 0.365074 0.769580 0.813850
C30_2 C 0.2561(3) 0.7494(10) 0.7537(6)
H16_2 H 0.255497 0.744923 0.702519
C31_2 C 0.2259(3) 0.7322(10) 0.8672(6)
H17_2 H 0.204642 0.720797 0.893190
C32_2 C 0.3435(3) 0.8673(9) 0.6414(7)
H18_2 H 0.337657 0.893060 0.598184
C33_2 C 0.2881(3) 0.7785(11) 0.7883(6)
C34_2 C 0.1634(3) 0.6332(10) 0.6450(7)
H19_2 H 0.166782 0.607670 0.601530
C35_2 C 0.2257(3) 0.7268(10) 0.7889(6)
C36_2 C 0.2906(3) 0.7776(10) 0.8661(6)
H20_2 H 0.312728 0.791811 0.892031
C37_2 C 0.2595(3) 0.7553(10) 0.9031(5)
C38_2 C 0.3142(3) 0.8392(10) 0.6828(7)
H21_2 H 0.289245 0.846637 0.666001
C39_2 C 0.1907(3) 0.7022(10) 0.7502(6)
C40_2 C 0.1956(3) 0.6596(10) 0.6858(7)
H22_2 H 0.219766 0.649222 0.670802
O13_2 O 0.44622(18) 0.8692(5) 0.6369(4)
Zr9_2 Zr 0.99768(2) 0.40409(7) 0.40178(4)
H23_2 H 0.988964 0.733378 0.552389
H24_2 H 0.989803 0.733478 0.642049
H26_2 H 0.978792 0.602126 0.737454
H28_2 H 0.981074 0.733223 0.359451
H30_2 H 0.969476 0.601227 0.260584
O10_2 O 0.09936(16) 0.4263(5) 0.4265(4)
O12_2 O 0.43929(19) 0.1292(5) 0.3643(5)
C21_3 C 0.4060(3) 0.1160(8) 0.3778(6)
C22_3 C 0.1124(3) 0.3169(8) 0.2672(6)
H12_3 H 0.087650 0.307979 0.249356
C23_3 C 0.1191(3) 0.3567(9) 0.3350(6)
C24_3 C 0.0895(3) 0.3856(8) 0.3787(6)
C25_3 C 0.1785(3) 0.3004(10) 0.2517(6)
C26_3 C 0.3732(3) 0.1439(9) 0.3327(6)
C27_3 C 0.3458(3) 0.2161(9) 0.2297(6)
H13_3 H 0.349372 0.245464 0.188889
N2_3 N 0.2358(3) 0.2612(10) 0.0165(5)
C28_3 C 0.3768(3) 0.1882(9) 0.2675(6)
H14_3 H 0.400799 0.197747 0.251041
C29_3 C 0.1408(3) 0.2933(9) 0.2306(6)
H15_3 H 0.134926 0.269580 0.186150
C30_3 C 0.2439(3) 0.2494(10) 0.2463(6)
H16_3 H 0.244503 0.244923 0.297481
C31_3 C 0.2741(3) 0.2322(10) 0.1328(6)
H17_3 H 0.295358 0.220797 0.106810
C32_3 C 0.1565(3) 0.3673(9) 0.3586(7)
H18_3 H 0.162343 0.393060 0.401816
C33_3 C 0.2119(3) 0.2785(11) 0.2117(6)
C34_3 C 0.3366(3) 0.1332(10) 0.3550(7)
H19_3 H 0.333218 0.107670 0.398470
C35_3 C 0.2743(3) 0.2268(10) 0.2111(6)
C36_3 C 0.2094(3) 0.2776(10) 0.1339(6)
H20_3 H 0.187272 0.291811 0.107969
C37_3 C 0.2405(3) 0.2553(10) 0.0969(5)
C38_3 C 0.1858(3) 0.3392(10) 0.3172(7)
H21_3 H 0.210755 0.346637 0.333999
C39_3 C 0.3093(3) 0.2022(10) 0.2498(6)
C40_3 C 0.3044(3) 0.1596(10) 0.3142(7)
H22_3 H 0.280234 0.149222 0.329198
O13_3 O 0.05378(18) 0.3692(5) 0.3631(4)
Zr8_2 Zr 0.49768(2) 0.09591(7) 0.40178(4)
Zr2_2 Zr 0.50232(2) 0.09591(7) 0.59822(4)
O2_3 O 0.10270(18) 0.4285(5) 0.5750(4)
O4_3 O 0.06071(19) 0.3708(5) 0.6357(5)
O5_2 O 0.5043(2) 0.0913(5) 0.7197(4)
O6_2 O 0.5026(2) 0.2154(5) 0.5981(4)
C1_3 C 0.0940(3) 0.3840(8) 0.6222(6)
C2_3 C 0.3876(3) 0.1831(8) 0.7328(6)
H1_3 H 0.412350 0.192021 0.750644
C3_3 C 0.3809(3) 0.1433(9) 0.6650(6)
C4_3 C 0.4105(3) 0.1144(8) 0.6213(6)
C5_3 C 0.3215(3) 0.1996(10) 0.7483(6)
C6_3 C 0.1268(3) 0.3561(9) 0.6673(6)
C7_3 C 0.1542(3) 0.2839(9) 0.7703(6)
H2_3 H 0.150628 0.254536 0.811111
N1_3 N 0.2642(3) 0.2388(10) 0.9835(5)
C8_3 C 0.1232(3) 0.3118(9) 0.7325(6)
H3_3 H 0.099201 0.302253 0.748959
C9_3 C 0.3592(3) 0.2067(9) 0.7694(6)
H4_3 H 0.365074 0.230420 0.813850
C10_3 C 0.2561(3) 0.2506(10) 0.7537(6)
H5_3 H 0.255497 0.255077 0.702519
C11_3 C 0.2259(3) 0.2678(10) 0.8672(6)
H6_3 H 0.204642 0.279203 0.893190
C12_3 C 0.3435(3) 0.1327(9) 0.6414(7)
H7_3 H 0.337657 0.106940 0.598184
C13_3 C 0.2881(3) 0.2215(11) 0.7883(6)
C14_3 C 0.1634(3) 0.3668(10) 0.6450(7)
H8_3 H 0.166782 0.392330 0.601530
C15_3 C 0.2257(3) 0.2732(10) 0.7889(6)
C16_3 C 0.2906(3) 0.2224(10) 0.8661(6)
H9_3 H 0.312728 0.208189 0.892031
C17_3 C 0.2595(3) 0.2447(10) 0.9031(5)
C18_3 C 0.3142(3) 0.1608(10) 0.6828(7)
H10_3 H 0.289245 0.153363 0.666001
C19_3 C 0.1907(3) 0.2978(10) 0.7502(6)
C20_3 C 0.1956(3) 0.3404(10) 0.6858(7)
H11_3 H 0.219766 0.350778 0.670802
O8_2 O 0.44622(18) 0.1308(5) 0.6369(4)
O15_2 O 0.4957(2) 0.0913(5) 0.2803(4)
O16_2 O 0.4974(2) 0.2154(5) 0.4019(4)
O21_3 O 0.03288(19) 0.4145(3) 0.4935(3)
O23_2 O 0.56071(19) 0.1292(5) 0.6357(5)
O26_2 O 0.55378(18) 0.1308(5) 0.3631(4)
O2_4 O 0.89730(18) 0.4285(5) 0.4250(4)
O4_4 O 0.93929(19) 0.3708(5) 0.3643(5)
C1_4 C 0.9060(3) 0.3840(8) 0.3778(6)
C2_4 C 0.6124(3) 0.1831(8) 0.2672(6)
H1_4 H 0.587650 0.192021 0.249356
C3_4 C 0.6191(3) 0.1433(9) 0.3350(6)
C4_4 C 0.5895(3) 0.1144(8) 0.3787(6)
C5_4 C 0.6785(3) 0.1996(10) 0.2517(6)
C6_4 C 0.8732(3) 0.3561(9) 0.3327(6)
C7_4 C 0.8458(3) 0.2839(9) 0.2297(6)
H2_4 H 0.849372 0.254536 0.188889
N1_4 N 0.7358(3) 0.2388(10) 0.0165(5)
C8_4 C 0.8768(3) 0.3118(9) 0.2675(6)
H3_4 H 0.900799 0.302253 0.251041
C9_4 C 0.6408(3) 0.2067(9) 0.2306(6)
H4_4 H 0.634926 0.230420 0.186150
C10_4 C 0.7439(3) 0.2506(10) 0.2463(6)
H5_4 H 0.744503 0.255077 0.297481
C11_4 C 0.7741(3) 0.2678(10) 0.1328(6)
H6_4 H 0.795358 0.279203 0.106810
C12_4 C 0.6565(3) 0.1327(9) 0.3586(7)
H7_4 H 0.662343 0.106940 0.401816
C13_4 C 0.7119(3) 0.2215(11) 0.2117(6)
C14_4 C 0.8366(3) 0.3668(10) 0.3550(7)
H8_4 H 0.833218 0.392330 0.398470
C15_4 C 0.7743(3) 0.2732(10) 0.2111(6)
C16_4 C 0.7094(3) 0.2224(10) 0.1339(6)
H9_4 H 0.687272 0.208189 0.107969
C17_4 C 0.7405(3) 0.2447(10) 0.0969(5)
C18_4 C 0.6858(3) 0.1608(10) 0.3172(7)
H10_4 H 0.710755 0.153363 0.333999
C19_4 C 0.8093(3) 0.2978(10) 0.2498(6)
C20_4 C 0.8044(3) 0.3404(10) 0.3142(7)
H11_4 H 0.780234 0.350778 0.329198
O18_2 O 0.90064(16) 0.4263(5) 0.5735(4)
O21_4 O 0.96712(19) 0.4145(3) 0.5065(3)
C21_4 C 0.5940(3) 0.1160(8) 0.6222(6)
C22_4 C 0.8876(3) 0.3169(8) 0.7328(6)
H12_4 H 0.912350 0.307979 0.750644
C23_4 C 0.8809(3) 0.3567(9) 0.6650(6)
C24_4 C 0.9105(3) 0.3856(8) 0.6213(6)
C25_4 C 0.8215(3) 0.3004(10) 0.7483(6)
C26_4 C 0.6268(3) 0.1439(9) 0.6673(6)
C27_4 C 0.6542(3) 0.2161(9) 0.7703(6)
H13_4 H 0.650628 0.245464 0.811111
N2_4 N 0.7642(3) 0.2612(10) 0.9835(5)
C28_4 C 0.6232(3) 0.1882(9) 0.7325(6)
H14_4 H 0.599201 0.197747 0.748959
C29_4 C 0.8592(3) 0.2933(9) 0.7694(6)
H15_4 H 0.865074 0.269580 0.813850
C30_4 C 0.7561(3) 0.2494(10) 0.7537(6)
H16_4 H 0.755497 0.244923 0.702519
C31_4 C 0.7259(3) 0.2322(10) 0.8672(6)
H17_4 H 0.704642 0.220797 0.893190
C32_4 C 0.8435(3) 0.3673(9) 0.6414(7)
H18_4 H 0.837657 0.393060 0.598184
C33_4 C 0.7881(3) 0.2785(11) 0.7883(6)
C34_4 C 0.6634(3) 0.1332(10) 0.6450(7)
H19_4 H 0.666782 0.107670 0.601530
C35_4 C 0.7257(3) 0.2268(10) 0.7889(6)
C36_4 C 0.7906(3) 0.2776(10) 0.8661(6)
H20_4 H 0.812728 0.291811 0.892031
C37_4 C 0.7595(3) 0.2553(10) 0.9031(5)
C38_4 C 0.8142(3) 0.3392(10) 0.6828(7)
H21_4 H 0.789245 0.346637 0.666001
C39_4 C 0.6907(3) 0.2022(10) 0.7502(6)
C40_4 C 0.6956(3) 0.1596(10) 0.6858(7)
H22_4 H 0.719766 0.149222 0.670802
O13_4 O 0.94622(18) 0.3692(5) 0.6369(4)
O15_3 O 0.0043(2) 0.4087(5) 0.7197(4)
O16_3 O 0.0026(2) 0.2846(5) 0.5981(4)
H25_3 H 0.0227525 0.372457 0.740159
H27_3 H 0.0236297 0.266453 0.397473
H29_3 H 0.00357654 0.457577 0.26423
O5_3 O 0.9957(2) 0.4087(5) 0.2803(4)
O6_3 O 0.9974(2) 0.2846(5) 0.4019(4)
H23_3 H 0.988964 0.266622 0.552389
H24_3 H 0.989803 0.266522 0.642049
H26_3 H 0.978792 0.397874 0.737454
H28_3 H 0.981074 0.266777 0.359451
H30_3 H 0.969476 0.398773 0.260584
H23_4 H 0.0110364 0.266622 0.447611
H24_4 H 0.0101973 0.266522 0.357951
H26_4 H 0.0212079 0.397874 0.262546
H28_4 H 0.0189264 0.266777 0.640549
H30_4 H 0.0305241 0.398773 0.739416
H25_4 H 0.977248 0.372457 0.259841
H27_4 H 0.97637 0.266453 0.602527
H29_4 H 0.996423 0.457577 0.73577
O5_4 O 0.4957(2) 0.9087(5) 0.2803(4)
O6_4 O 0.4974(2) 0.7846(5) 0.4019(4)
O15_4 O 0.5043(2) 0.9087(5) 0.7197(4)
O16_4 O 0.5026(2) 0.7846(5) 0.5981(4)
loop_
_geom_bond_atom_site_label_1
_geom_bond_atom_site_label_2
_geom_bond_site_symmetry_1
_geom_bond_site_symmetry_2
O5 Zr2 1_555 1_555
O6 Zr2 1_555 1_555
O9 Zr2 1_555 1_555
O14 Zr2 1_555 1_555
Zr5 O9 1_555 1_555
O23 Zr2 1_555 1_555
O9 Zr9 1_555 1_555
O14 Zr5 1_555 1_555
Zr5 O24 1_555 1_555
O6 H28 1_555 1_555
O5 H30 1_555 1_555
O17 Zr4 1_555 1_555
O19 Zr4 1_555 1_555
O20 Zr4 1_555 1_555
O25 Zr4 1_555 1_555
O28 Zr4 1_555 1_555
O10 C24 1_555 1_555
O11 C21 1_555 1_555
O12 C21 1_555 1_555
C21 C26 1_555 1_555
C22 H12 1_555 1_555
C23 C22 1_555 1_555
C24 C23 1_555 1_555
C25 C29 1_555 1_555
C26 C28 1_555 1_555
C27 H13 1_555 1_555
C28 C27 1_555 1_555
H14 C28 1_555 1_555
C29 C22 1_555 1_555
H15 C29 1_555 1_555
C30 H16 1_555 1_555
C31 H17 1_555 1_555
C32 C23 1_555 1_555
H18 C32 1_555 1_555
C33 C25 1_555 1_555
C34 C26 1_555 1_555
H19 C34 1_555 1_555
C35 C30 1_555 1_555
C36 C33 1_555 1_555
H20 C36 1_555 1_555
C37 N2 1_555 1_555
C38 C25 1_555 1_555
H21 C38 1_555 1_555
C39 C27 1_555 1_555
C40 C34 1_555 1_555
H22 C40 1_555 1_555
O13 C24 1_555 1_555
Zr4_2 O10 1_555 1_555
Zr7 O11 1_555 1_555
Zr8 O12 1_555 1_555
Zr10 O13 1_555 1_555
C30 C33 1_555 1_555
C31 C35 1_555 1_555
C31 C37 1_555 1_555
C32 C38 1_555 1_555
C35 C39 1_555 1_555
C36 C37 1_555 1_555
C39 C40 1_555 1_555
Zr4_2 O2 1_555 1_555
O1 C4 1_555 1_555
O2 C1 1_555 1_555
O3 Zr8 1_555 1_555
O4 C1 1_555 1_555
C1 C6 1_555 1_555
C2 H1 1_555 1_555
C3 C2 1_555 1_555
C4 C3 1_555 1_555
C5 C9 1_555 1_555
C6 C8 1_555 1_555
C7 H2 1_555 1_555
N1 C17 1_555 1_555
C8 C7 1_555 1_555
H3 C8 1_555 1_555
C9 C2 1_555 1_555
H4 C9 1_555 1_555
C10 H5 1_555 1_555
C11 H6 1_555 1_555
C12 C3 1_555 1_555
H7 C12 1_555 1_555
C13 C5 1_555 1_555
C14 C6 1_555 1_555
H8 C14 1_555 1_555
C15 C10 1_555 1_555
C16 C13 1_555 1_555
H9 C16 1_555 1_555
C17 C11 1_555 1_555
C18 C5 1_555 1_555
H10 C18 1_555 1_555
C19 C7 1_555 1_555
C20 C14 1_555 1_555
H11 C20 1_555 1_555
O15 Zr8 1_555 1_555
O16 Zr8 1_555 1_555
Zr7 O1 1_555 1_555
Zr11 O4 1_555 1_555
O21 Zr4_2 1_555 1_555
O25_2 Zr4_2 1_555 1_555
O27 Zr8 1_555 1_555
O28_2 Zr4_2 1_555 1_555
O3 Zr7 1_555 1_555
O7 Zr7 1_555 1_555
C4 O8 1_555 1_555
C10 C13 1_555 1_555
C11 C15 1_555 1_555
C12 C18 1_555 1_555
C15 C19 1_555 1_555
C16 C17 1_555 1_555
C19 C20 1_555 1_555
Zr7 O27 1_555 1_555
Zr11 O21 1_555 1_555
Zr11 O28_2 1_555 1_555
O15 H25 1_555 1_555
O17_2 Zr1 1_555 1_555
O19_2 Zr1 1_555 1_555
O20_2 Zr1 1_555 1_555
O25_3 Zr1 1_555 1_555
O28_3 Zr1 1_555 1_555
Zr1_2 O2_2 1_555 1_555
O1_2 C4_2 1_555 1_555
O2_2 C1_2 1_555 1_555
O4_2 C1_2 1_555 1_555
C1_2 C6_2 1_555 1_555
C2_2 H1_2 1_555 1_555
C3_2 C2_2 1_555 1_555
C4_2 C3_2 1_555 1_555
C5_2 C9_2 1_555 1_555
C6_2 C8_2 1_555 1_555
C7_2 H2_2 1_555 1_555
N1_2 C17_2 1_555 1_555
C8_2 C7_2 1_555 1_555
H3_2 C8_2 1_555 1_555
C9_2 C2_2 1_555 1_555
H4_2 C9_2 1_555 1_555
C10_2 H5_2 1_555 1_555
C11_2 H6_2 1_555 1_555
C12_2 C3_2 1_555 1_555
H7_2 C12_2 1_555 1_555
C13_2 C5_2 1_555 1_555
C14_2 C6_2 1_555 1_555
H8_2 C14_2 1_555 1_555
C15_2 C10_2 1_555 1_555
C16_2 C13_2 1_555 1_555
H9_2 C16_2 1_555 1_555
C17_2 C11_2 1_555 1_555
C18_2 C5_2 1_555 1_555
H10_2 C18_2 1_555 1_555
C19_2 C7_2 1_555 1_555
C20_2 C14_2 1_555 1_555
H11_2 C20_2 1_555 1_555
Zr5 O1_2 1_555 1_555
Zr10 O4_2 1_555 1_555
O18 Zr1_2 1_555 1_555
O21_2 Zr1_2 1_555 1_555
O25_4 Zr1_2 1_555 1_555
O28_4 Zr1_2 1_555 1_555
C4_2 O26 1_555 1_555
C10_2 C13_2 1_555 1_555
C11_2 C15_2 1_555 1_555
C12_2 C18_2 1_555 1_555
C15_2 C19_2 1_555 1_555
C16_2 C17_2 1_555 1_555
C19_2 C20_2 1_555 1_555
Zr10 O21_2 1_555 1_555
Zr10 O28_4 1_555 1_555
O5 H25_2 1_555 1_555
O18 C24_2 1_555 1_555
O11_2 C21_2 1_555 1_555
O23 C21_2 1_555 1_555
C21_2 C26_2 1_555 1_555
C22_2 H12_2 1_555 1_555
C23_2 C22_2 1_555 1_555
C24_2 C23_2 1_555 1_555
C25_2 C29_2 1_555 1_555
C26_2 C28_2 1_555 1_555
C27_2 H13_2 1_555 1_555
C28_2 C27_2 1_555 1_555
H14_2 C28_2 1_555 1_555
C29_2 C22_2 1_555 1_555
H15_2 C29_2 1_555 1_555
C30_2 H16_2 1_555 1_555
C31_2 H17_2 1_555 1_555
C32_2 C23_2 1_555 1_555
H18_2 C32_2 1_555 1_555
C33_2 C25_2 1_555 1_555
C34_2 C26_2 1_555 1_555
H19_2 C34_2 1_555 1_555
C35_2 C30_2 1_555 1_555
C36_2 C33_2 1_555 1_555
H20_2 C36_2 1_555 1_555
C37_2 N2_2 1_555 1_555
C38_2 C25_2 1_555 1_555
H21_2 C38_2 1_555 1_555
C39_2 C27_2 1_555 1_555
C40_2 C34_2 1_555 1_555
H22_2 C40_2 1_555 1_555
O13_2 C24_2 1_555 1_555
Zr5 O11_2 1_555 1_555
Zr11 O13_2 1_555 1_555
C30_2 C33_2 1_555 1_555
C31_2 C35_2 1_555 1_555
C31_2 C37_2 1_555 1_555
C32_2 C38_2 1_555 1_555
C35_2 C39_2 1_555 1_555
C36_2 C37_2 1_555 1_555
C39_2 C40_2 1_555 1_555
O27 Zr9_2 1_555 1_555
O16 H28_2 1_555 1_555
O15 H30_2 1_555 1_555
O10_2 C24_3 1_555 1_555
O19_2 C21_3 1_555 1_555
O12_2 C21_3 1_555 1_555
C21_3 C26_3 1_555 1_555
C22_3 H12_3 1_555 1_555
C23_3 C22_3 1_555 1_555
C24_3 C23_3 1_555 1_555
C25_3 C29_3 1_555 1_555
C26_3 C28_3 1_555 1_555
C27_3 H13_3 1_555 1_555
C28_3 C27_3 1_555 1_555
H14_3 C28_3 1_555 1_555
C29_3 C22_3 1_555 1_555
H15_3 C29_3 1_555 1_555
C30_3 H16_3 1_555 1_555
C31_3 H17_3 1_555 1_555
C32_3 C23_3 1_555 1_555
H18_3 C32_3 1_555 1_555
C33_3 C25_3 1_555 1_555
C34_3 C26_3 1_555 1_555
H19_3 C34_3 1_555 1_555
C35_3 C30_3 1_555 1_555
C36_3 C33_3 1_555 1_555
H20_3 C36_3 1_555 1_555
C37_3 N2_3 1_555 1_555
C38_3 C25_3 1_555 1_555
H21_3 C38_3 1_555 1_555
C39_3 C27_3 1_555 1_555
C40_3 C34_3 1_555 1_555
H22_3 C40_3 1_555 1_555
O13_3 C24_3 1_555 1_555
Zr5 O10_2 1_555 1_555
Zr8_2 O12_2 1_555 1_555
C30_3 C33_3 1_555 1_555
C31_3 C35_3 1_555 1_555
C31_3 C37_3 1_555 1_555
C32_3 C38_3 1_555 1_555
C35_3 C39_3 1_555 1_555
C36_3 C37_3 1_555 1_555
C39_3 C40_3 1_555 1_555
Zr5 O2_3 1_555 1_555
Zr2_2 O20_2 1_555 1_555
O17_2 C4_3 1_555 1_555
O2_3 C1_3 1_555 1_555
O20_2 Zr8_2 1_555 1_555
O4_3 C1_3 1_555 1_555
O5_2 Zr2_2 1_555 1_555
O6_2 Zr2_2 1_555 1_555
O25_3 Zr2_2 1_555 1_555
C1_3 C6_3 1_555 1_555
C2_3 H1_3 1_555 1_555
C3_3 C2_3 1_555 1_555
C4_3 C3_3 1_555 1_555
C5_3 C9_3 1_555 1_555
C6_3 C8_3 1_555 1_555
C7_3 H2_3 1_555 1_555
N1_3 C17_3 1_555 1_555
C8_3 C7_3 1_555 1_555
H3_3 C8_3 1_555 1_555
C9_3 C2_3 1_555 1_555
H4_3 C9_3 1_555 1_555
C10_3 H5_3 1_555 1_555
C11_3 H6_3 1_555 1_555
C12_3 C3_3 1_555 1_555
H7_3 C12_3 1_555 1_555
C13_3 C5_3 1_555 1_555
C14_3 C6_3 1_555 1_555
H8_3 C14_3 1_555 1_555
C15_3 C10_3 1_555 1_555
C16_3 C13_3 1_555 1_555
H9_3 C16_3 1_555 1_555
C17_3 C11_3 1_555 1_555
C18_3 C5_3 1_555 1_555
H10_3 C18_3 1_555 1_555
C19_3 C7_3 1_555 1_555
C20_3 C14_3 1_555 1_555
H11_3 C20_3 1_555 1_555
O8_2 Zr2_2 1_555 1_555
O28 Zr2_2 1_555 1_555
Zr8_2 O20 1_555 1_555
O20 Zr2_2 1_555 1_555
O15_2 Zr8_2 1_555 1_555
O16_2 Zr8_2 1_555 1_555
Zr9 O4_3 1_555 1_555
O21_3 Zr5 1_555 1_555
O23_2 Zr2_2 1_555 1_555
O25 Zr8_2 1_555 1_555
O26_2 Zr8_2 1_555 1_555
O28_3 Zr8_2 1_555 1_555
C4_3 O8_2 1_555 1_555
C10_3 C13_3 1_555 1_555
C11_3 C15_3 1_555 1_555
C12_3 C18_3 1_555 1_555
C15_3 C19_3 1_555 1_555
C16_3 C17_3 1_555 1_555
C19_3 C20_3 1_555 1_555
Zr9 O21_3 1_555 1_555
Zr11 O25_4 1_555 1_555
Zr7 O2_4 1_555 1_555
O17 C4_4 1_555 1_555
O2_4 C1_4 1_555 1_555
O4_4 C1_4 1_555 1_555
C1_4 C6_4 1_555 1_555
C2_4 H1_4 1_555 1_555
C3_4 C2_4 1_555 1_555
C4_4 C3_4 1_555 1_555
C5_4 C9_4 1_555 1_555
C6_4 C8_4 1_555 1_555
C7_4 H2_4 1_555 1_555
N1_4 C17_4 1_555 1_555
C8_4 C7_4 1_555 1_555
H3_4 C8_4 1_555 1_555
C9_4 C2_4 1_555 1_555
H4_4 C9_4 1_555 1_555
C10_4 H5_4 1_555 1_555
C11_4 H6_4 1_555 1_555
C12_4 C3_4 1_555 1_555
H7_4 C12_4 1_555 1_555
C13_4 C5_4 1_555 1_555
C14_4 C6_4 1_555 1_555
H8_4 C14_4 1_555 1_555
C15_4 C10_4 1_555 1_555
C16_4 C13_4 1_555 1_555
H9_4 C16_4 1_555 1_555
C17_4 C11_4 1_555 1_555
C18_4 C5_4 1_555 1_555
H10_4 C18_4 1_555 1_555
C19_4 C7_4 1_555 1_555
C20_4 C14_4 1_555 1_555
H11_4 C20_4 1_555 1_555
Zr9_2 O4_4 1_555 1_555
O18_2 Zr7 1_555 1_555
O21_4 Zr7 1_555 1_555
C4_4 O26_2 1_555 1_555
C10_4 C13_4 1_555 1_555
C11_4 C15_4 1_555 1_555
C12_4 C18_4 1_555 1_555
C15_4 C19_4 1_555 1_555
C16_4 C17_4 1_555 1_555
C19_4 C20_4 1_555 1_555
Zr9_2 O21_4 1_555 1_555
O18_2 C24_4 1_555 1_555
O19 C21_4 1_555 1_555
O23_2 C21_4 1_555 1_555
C21_4 C26_4 1_555 1_555
C22_4 H12_4 1_555 1_555
C23_4 C22_4 1_555 1_555
C24_4 C23_4 1_555 1_555
C25_4 C29_4 1_555 1_555
C26_4 C28_4 1_555 1_555
C27_4 H13_4 1_555 1_555
C28_4 C27_4 1_555 1_555
H14_4 C28_4 1_555 1_555
C29_4 C22_4 1_555 1_555
H15_4 C29_4 1_555 1_555
C30_4 H16_4 1_555 1_555
C31_4 H17_4 1_555 1_555
C32_4 C23_4 1_555 1_555
H18_4 C32_4 1_555 1_555
C33_4 C25_4 1_555 1_555
C34_4 C26_4 1_555 1_555
H19_4 C34_4 1_555 1_555
C35_4 C30_4 1_555 1_555
C36_4 C33_4 1_555 1_555
H20_4 C36_4 1_555 1_555
C37_4 N2_4 1_555 1_555
C38_4 C25_4 1_555 1_555
H21_4 C38_4 1_555 1_555
C39_4 C27_4 1_555 1_555
C40_4 C34_4 1_555 1_555
H22_4 C40_4 1_555 1_555
O13_4 C24_4 1_555 1_555
C30_4 C33_4 1_555 1_555
C31_4 C35_4 1_555 1_555
C31_4 C37_4 1_555 1_555
C32_4 C38_4 1_555 1_555
C35_4 C39_4 1_555 1_555
C36_4 C37_4 1_555 1_555
C39_4 C40_4 1_555 1_555
Zr10 O25_2 1_555 1_555
O15_3 Zr9 1_555 1_555
O16_3 Zr9 1_555 1_555
O15_3 H25_3 1_555 1_555
O5_3 Zr9_2 1_555 1_555
O6_3 Zr9_2 1_555 1_555
O6_3 H28_3 1_555 1_555
O5_3 H30_3 1_555 1_555
O16_3 H28_4 1_555 1_555
O15_3 H30_4 1_555 1_555
O5_3 H25_4 1_555 1_555
Zr10 O21 1_555 1_555
O5_4 Zr10 1_555 1_555
O6_4 Zr10 1_555 1_555
Zr11 O21_2 1_555 1_555
O15_4 Zr11 1_555 1_555
O16_4 Zr11 1_555 1_555

#END
