
###############################################################################
#
# This file contains modified crystal structure data generated from the
# MOF subset of the Cambridge Structural Database (CSD) v543 
# hosted by the Cambridge Crystallographic Data Centre (CCDC).
#
# This work is licensed under the Creative Commons
# Attribution-NonCommercial-ShareAlike 4.0 International License.
# To view a copy of this license, visit
# http://creativecommons.org/licenses/by-nc-sa/4.0/
# or send a letter to
# Creative Commons, PO Box 1866, Mountain View, CA 94042, USA.
#
# CIF created using the CSD Python API on 29 September 2022
# The structure has been converted into the P1 space group
# The structure has a 3D framework
# The original CSD entry VIZQIG is in the tetragonal crystal system
# The framework has been calculated to contain at least 10.0% void space
# The void calculation uses a probe of radius 1.32A, grid spacing 0.4
# H atom positions have been added when not included in the experimental data
#
###############################################################################

data_VIZQIG
_chemical_formula_moiety         '(C256 H192 Co28 N48 O120 S16)n'
_symmetry_cell_setting           triclinic
_symmetry_space_group_name_H-M   'P 1'
_symmetry_Int_Tables_number      1
_space_group_name_Hall           'P 1'
loop_
_symmetry_equiv_pos_site_id
_symmetry_equiv_pos_as_xyz
1 x,y,z
_cell_length_a                   25.087(4)
_cell_length_b                   25.087(4)
_cell_length_c                   15.026(3)
_cell_angle_alpha                90
_cell_angle_beta                 90
_cell_angle_gamma                90
_cell_volume                     9456.73
loop_
_atom_site_label
_atom_site_type_symbol
_atom_site_fract_x
_atom_site_fract_y
_atom_site_fract_z
Co1 Co 0.049257(16) 0.529539(16) 0.04783(3)
O10 O 0.13095(9) 0.52235(9) 0.06185(17)
O12 O 0.03603(11) 0.53636(11) 0.17948(17)
N1 N 0.09302(10) 0.65710(10) 0.88817(19)
N2 N 0.01614(10) 0.62231(10) 0.93207(18)
N3 N 0.05687(10) 0.59828(10) 0.97927(18)
C1 C 0.04000(12) 0.65641(13) 0.8789(2)
H1 H 0.0218 0.6780 0.8388
C2 C 0.10120(13) 0.62046(13) 0.9511(2)
H2 H 0.1348 0.6116 0.9727
Co6 Co 0.154080(16) 0.687594(16) 0.80857(3)
O9 O 0.03585(8) 0.46394(8) 0.97438(14)
O1 O 0.96415(8) 0.53606(8) 0.02562(14)
O2 O 0.91702(11) 0.64597(11) 0.05632(17)
O7 O 0.55157(11) 0.44950(11) 0.31787(17)
O8 O 0.53603(11) 0.53636(11) 0.32052(17)
C10 C 0.58047(13) 0.50153(14) 0.0022(2)
C11 C 0.57153(16) 0.54818(17) 0.0489(3)
H7 H 0.5742 0.5811 0.0208
C12 C 0.55844(16) 0.54494(16) 0.1389(3)
H8 H 0.5522 0.5761 0.1709
C13 C 0.55460(13) 0.49640(14) 0.1812(2)
C14 C 0.56183(16) 0.45030(15) 0.1326(2)
H9 H 0.5579 0.4174 0.1603
C15 C 0.57488(17) 0.45256(16) 0.0428(3)
H10 H 0.5798 0.4214 0.0104
C16 C 0.54614(13) 0.49304(15) 0.2800(2)
Co4 Co 0.549257(16) 0.529539(16) 0.45217(3)
Co5 Co 0.562406(16) 0.404080(16) 0.44143(3)
H11 H 0.949545 0.652903 0.0921606
H12 H 0.902016 0.680329 0.035131
Co2 Co 0.937594(16) 0.595920(16) 0.94143(3)
S1 S 0.60358(3) 0.50518(4) 0.89137(6)
O3 O 0.86077(9) 0.56615(9) 0.94763(17)
O4 O 0.86905(9) 0.47765(9) 0.93815(17)
O5 O 0.58478(10) 0.55421(13) 0.85249(18)
O6 O 0.59184(11) 0.45531(13) 0.84919(18)
C3 C 0.84255(12) 0.52002(13) 0.9379(2)
C4 C 0.78279(12) 0.51579(13) 0.9263(2)
C5 C 0.75235(13) 0.56174(14) 0.9222(2)
H3 H 0.7688 0.5948 0.9272
C6 C 0.69778(13) 0.55887(14) 0.9108(2)
H4 H 0.6774 0.5898 0.9078
C7 C 0.67393(12) 0.50934(15) 0.9041(2)
C8 C 0.70344(14) 0.46334(16) 0.9078(3)
H5 H 0.6868 0.4304 0.9029
C9 C 0.75828(14) 0.46623(15) 0.9188(3)
H6 H 0.7785 0.4352 0.9213
Co3 Co 0.950743(16) 0.470461(16) 0.95217(3)
O11 O 0.94843(11) 0.55050(11) 0.81787(17)
N4 N 0.90710(10) 0.65698(10) 0.86183(19)
Co1_2 Co 0.450743(16) 0.470461(16) 0.54783(3)
S1_2 S 0.89642(3) 0.49482(4) 0.39137(6)
O1_2 O 0.53585(8) 0.46394(8) 0.52562(14)
O2_2 O 0.58298(11) 0.35403(11) 0.55632(17)
O3_2 O 0.63923(9) 0.43385(9) 0.44763(17)
O4_2 O 0.63095(9) 0.52235(9) 0.43815(17)
O5_2 O 0.91522(10) 0.44579(13) 0.35249(18)
O6_2 O 0.90816(11) 0.54469(13) 0.34919(18)
O8_2 O 0.96397(11) 0.46364(11) 0.82052(17)
N1_2 N 0.40698(10) 0.34290(10) 0.38817(19)
N2_2 N 0.48386(10) 0.37769(10) 0.43207(18)
N3_2 N 0.44313(10) 0.40172(10) 0.47927(18)
C1_2 C 0.46000(12) 0.34359(13) 0.3789(2)
H1_2 H 0.4782 0.3220 0.3388
C2_2 C 0.39880(13) 0.37954(13) 0.4511(2)
H2_2 H 0.3652 0.3884 0.4727
C3_2 C 0.65745(12) 0.47998(13) 0.4379(2)
C4_2 C 0.71721(12) 0.48421(13) 0.4263(2)
C5_2 C 0.74765(13) 0.43826(14) 0.4222(2)
H3_2 H 0.7312 0.4052 0.4272
C6_2 C 0.80222(13) 0.44113(14) 0.4108(2)
H4_2 H 0.8226 0.4102 0.4078
C7_2 C 0.82607(12) 0.49066(15) 0.4041(2)
C8_2 C 0.79656(14) 0.53666(16) 0.4078(3)
H5_2 H 0.8132 0.5696 0.4029
C9_2 C 0.74172(14) 0.53377(15) 0.4188(3)
H6_2 H 0.7215 0.5648 0.4213
C10_2 C 0.91953(13) 0.49847(14) 0.5022(2)
C11_2 C 0.92847(16) 0.45182(17) 0.5489(3)
H7_2 H 0.9258 0.4189 0.5208
C12_2 C 0.94156(16) 0.45506(16) 0.6389(3)
H8_2 H 0.9478 0.4239 0.6709
C13_2 C 0.94540(13) 0.50360(14) 0.6812(2)
C14_2 C 0.93817(16) 0.54970(15) 0.6326(2)
H9_2 H 0.9421 0.5826 0.6603
C15_2 C 0.92512(17) 0.54744(16) 0.5428(3)
H10_2 H 0.9202 0.5786 0.5104
C16_2 C 0.95386(13) 0.50696(15) 0.7800(2)
Co6_2 Co 0.345920(16) 0.312406(16) 0.30857(3)
O9_2 O 0.46415(8) 0.53606(8) 0.47438(14)
O10_2 O 0.36905(9) 0.47765(9) 0.56185(17)
O12_2 O 0.46397(11) 0.46364(11) 0.67948(17)
N4_2 N 0.59290(10) 0.34302(10) 0.36183(19)
H11_2 H 0.550455 0.347097 0.592161
H12_2 H 0.597984 0.319671 0.535131
Co1_3 Co 0.220461(16) 0.299257(16) 0.29783(3)
Co2_2 Co 0.154080(16) 0.187594(16) 0.19143(3)
O1_3 O 0.21394(8) 0.21415(8) 0.27562(14)
O2_3 O 0.10403(11) 0.16702(11) 0.30632(17)
O3_3 O 0.18385(9) 0.11077(9) 0.19763(17)
O4_3 O 0.27235(9) 0.11905(9) 0.18815(17)
N1_3 N 0.09290(10) 0.34302(10) 0.13817(19)
N2_3 N 0.12769(10) 0.26614(10) 0.18207(18)
N3_3 N 0.15172(10) 0.30687(10) 0.22927(18)
C1_3 C 0.09359(13) 0.29000(12) 0.1289(2)
H1_3 H 0.0720 0.2718 0.0888
C2_3 C 0.12954(13) 0.35120(13) 0.2011(2)
H2_3 H 0.1384 0.3848 0.2227
C3_3 C 0.22998(13) 0.09255(12) 0.1879(2)
C4_3 C 0.23421(13) 0.03279(12) 0.1763(2)
C5_3 C 0.18826(14) 0.00235(13) 0.1722(2)
H3_3 H 0.1552 0.0188 0.1772
C9_3 C 0.28377(15) 0.00828(14) 0.1688(3)
H6_3 H 0.3148 0.0285 0.1713
Co3_2 Co 0.279539(16) 0.200743(16) 0.20217(3)
Co6_3 Co 0.062406(16) 0.404080(16) 0.05857(3)
O9_3 O 0.28606(8) 0.28585(8) 0.22438(14)
O10_3 O 0.22765(9) 0.38095(9) 0.31185(17)
O11_2 O 0.19950(11) 0.19843(11) 0.06787(17)
O12_3 O 0.21364(11) 0.28603(11) 0.42948(17)
N4_3 N 0.09302(10) 0.15710(10) 0.11183(19)
H11_3 H 0.0970973 0.199545 0.342161
H12_3 H 0.0696707 0.152016 0.285131
S1_3 S 0.24482(4) 0.85358(3) 0.14137(6)
O5_3 O 0.19579(13) 0.83478(10) 0.10249(18)
O6_3 O 0.29469(13) 0.84184(11) 0.09919(18)
O7_2 O 0.30050(11) 0.80157(11) 0.56787(17)
O8_3 O 0.21364(11) 0.78603(11) 0.57052(17)
C6_3 C 0.19113(14) 0.94778(13) 0.1608(2)
H4_3 H 0.1602 0.9274 0.1578
C7_3 C 0.24066(15) 0.92393(12) 0.1541(2)
C8_3 C 0.28666(16) 0.95344(14) 0.1578(3)
H5_3 H 0.3196 0.9368 0.1529
C10_3 C 0.24847(14) 0.83047(13) 0.2522(2)
C11_3 C 0.20182(17) 0.82153(16) 0.2989(3)
H7_3 H 0.1689 0.8242 0.2708
C12_3 C 0.20506(16) 0.80844(16) 0.3889(3)
H8_3 H 0.1739 0.8022 0.4209
C13_3 C 0.25360(14) 0.80460(13) 0.4312(2)
C14_3 C 0.29970(15) 0.81183(16) 0.3826(2)
H9_3 H 0.3326 0.8079 0.4103
C15_3 C 0.29744(16) 0.82488(17) 0.2928(3)
H10_3 H 0.3286 0.8298 0.2604
C16_3 C 0.25696(15) 0.79614(13) 0.5300(2)
Co4_2 Co 0.220461(16) 0.799257(16) 0.70217(3)
Co5_2 Co 0.345920(16) 0.812406(16) 0.69143(3)
O8_4 O 0.28636(11) 0.21397(11) 0.07052(17)
C16_4 C 0.24304(15) 0.20386(13) 0.0300(2)
Co1_4 Co 0.279539(16) 0.700743(16) 0.79783(3)
O1_4 O 0.28606(8) 0.78585(8) 0.77562(14)
O2_4 O 0.39597(11) 0.83298(11) 0.80632(17)
O3_4 O 0.31615(9) 0.88923(9) 0.69763(17)
O4_4 O 0.22765(9) 0.88095(9) 0.68815(17)
N1_4 N 0.40710(10) 0.65698(10) 0.63817(19)
N2_4 N 0.37231(10) 0.73386(10) 0.68207(18)
N3_4 N 0.34828(10) 0.69313(10) 0.72927(18)
C1_4 C 0.40641(13) 0.71000(12) 0.6289(2)
H1_4 H 0.4280 0.7282 0.5888
C2_4 C 0.37046(13) 0.64880(13) 0.7011(2)
H2_4 H 0.3616 0.6152 0.7227
C3_4 C 0.27002(13) 0.90745(12) 0.6879(2)
C4_4 C 0.26579(13) 0.96721(12) 0.6763(2)
C5_4 C 0.31174(14) 0.99765(13) 0.6722(2)
H3_4 H 0.3448 0.9812 0.6772
C9_4 C 0.21623(15) 0.99172(14) 0.6688(3)
H6_4 H 0.1852 0.9715 0.6713
Co6_4 Co 0.437594(16) 0.595920(16) 0.55857(3)
O9_4 O 0.21394(8) 0.71415(8) 0.72438(14)
O10_4 O 0.27235(9) 0.61905(9) 0.81185(17)
O12_4 O 0.28636(11) 0.71397(11) 0.92948(17)
N4_4 N 0.40698(10) 0.84290(10) 0.61183(19)
H11_4 H 0.402903 0.800455 0.842161
H12_4 H 0.430329 0.847984 0.785131
Co1_5 Co 0.549257(16) 0.029539(16) 0.54783(3)
Co2_3 Co 0.437594(16) 0.095920(16) 0.44143(3)
S1_4 S 0.10358(3) 0.00518(4) 0.39137(6)
O1_5 O 0.46415(8) 0.03606(8) 0.52562(14)
O2_5 O 0.41702(11) 0.14597(11) 0.55632(17)
O3_5 O 0.36077(9) 0.06615(9) 0.44763(17)
O5_4 O 0.08478(10) 0.05421(13) 0.35249(18)
O8_5 O 0.03603(11) 0.03636(11) 0.82052(17)
N1_5 N 0.59302(10) 0.15710(10) 0.38817(19)
N2_5 N 0.51614(10) 0.12231(10) 0.43207(18)
N3_5 N 0.55687(10) 0.09828(10) 0.47927(18)
C1_5 C 0.54000(12) 0.15641(13) 0.3789(2)
H1_5 H 0.5218 0.1780 0.3388
C2_5 C 0.60120(13) 0.12046(13) 0.4511(2)
H2_5 H 0.6348 0.1116 0.4727
C3_5 C 0.34255(12) 0.02002(13) 0.4379(2)
C4_5 C 0.28279(12) 0.01579(13) 0.4263(2)
C5_5 C 0.25235(13) 0.06174(14) 0.4222(2)
H3_5 H 0.2688 0.0948 0.4272
C6_4 C 0.19778(13) 0.05887(14) 0.4108(2)
H4_4 H 0.1774 0.0898 0.4078
C7_4 C 0.17393(12) 0.00934(15) 0.4041(2)
C10_4 C 0.08047(13) 0.00153(14) 0.5022(2)
C11_4 C 0.07153(16) 0.04818(17) 0.5489(3)
H7_4 H 0.0742 0.0811 0.5208
C12_4 C 0.05844(16) 0.04494(16) 0.6389(3)
H8_4 H 0.0522 0.0761 0.6709
Co4_3 Co 0.049257(16) 0.029539(16) 0.95217(3)
Co6_5 Co 0.654080(16) 0.187594(16) 0.30857(3)
O10_5 O 0.63095(9) 0.02235(9) 0.56185(17)
O11_3 O 0.44843(11) 0.05050(11) 0.31787(17)
O12_5 O 0.53603(11) 0.03636(11) 0.67948(17)
N4_5 N 0.40710(10) 0.15698(10) 0.36183(19)
H11_5 H 0.449545 0.152903 0.592161
H12_5 H 0.402016 0.180329 0.535131
O4_5 O 0.36905(9) 0.97765(9) 0.43815(17)
O6_4 O 0.09184(11) 0.95531(13) 0.34919(18)
O7_3 O 0.05157(11) 0.94950(11) 0.81787(17)
C8_4 C 0.20344(14) 0.96334(16) 0.4078(3)
H5_4 H 0.1868 0.9304 0.4029
C9_5 C 0.25828(14) 0.96623(15) 0.4188(3)
H6_5 H 0.2785 0.9352 0.4213
C13_4 C 0.05460(13) 0.99640(14) 0.6812(2)
C14_4 C 0.06183(16) 0.95030(15) 0.6326(2)
H9_4 H 0.0579 0.9174 0.6603
C15_4 C 0.07488(17) 0.95256(16) 0.5428(3)
H10_4 H 0.0798 0.9214 0.5104
C16_5 C 0.04614(13) 0.99304(15) 0.7800(2)
Co3_3 Co 0.450743(16) 0.970461(16) 0.45217(3)
Co5_3 Co 0.062406(16) 0.904080(16) 0.94143(3)
O9_5 O 0.53585(8) 0.96394(8) 0.47438(14)
C13_5 C 0.44540(13) 0.00360(14) 0.1812(2)
C14_5 C 0.43817(16) 0.04970(15) 0.1326(2)
H9_5 H 0.4421 0.0826 0.1603
C15_5 C 0.42512(17) 0.04744(16) 0.0428(3)
H10_5 H 0.4202 0.0786 0.0104
C16_6 C 0.45386(13) 0.00696(15) 0.2800(2)
O4_6 O 0.13095(9) 0.02235(9) 0.93815(17)
O6_5 O 0.40816(11) 0.04469(13) 0.84919(18)
C8_5 C 0.29656(14) 0.03666(16) 0.9078(3)
H5_5 H 0.3132 0.0696 0.9029
C9_6 C 0.24172(14) 0.03377(15) 0.9188(3)
H6_6 H 0.2215 0.0648 0.9213
O1_6 O 0.03585(8) 0.96394(8) 0.02562(14)
O2_6 O 0.08298(11) 0.85403(11) 0.05632(17)
O8_6 O 0.46397(11) 0.96364(11) 0.32052(17)
C10_5 C 0.41953(13) 0.99847(14) 0.0022(2)
C11_5 C 0.42847(16) 0.95182(17) 0.0489(3)
H7_5 H 0.4258 0.9189 0.0208
C12_5 C 0.44156(16) 0.95506(16) 0.1389(3)
H8_5 H 0.4478 0.9239 0.1709
H11_6 H 0.0504552 0.847097 0.0921606
H12_6 H 0.0979843 0.819671 0.035131
S1_5 S 0.39642(3) 0.99482(4) 0.89137(6)
O3_6 O 0.13923(9) 0.93385(9) 0.94763(17)
O5_5 O 0.41522(10) 0.94579(13) 0.85249(18)
C3_6 C 0.15745(12) 0.97998(13) 0.9379(2)
C4_6 C 0.21721(12) 0.98421(13) 0.9263(2)
C5_6 C 0.24765(13) 0.93826(14) 0.9222(2)
H3_6 H 0.2312 0.9052 0.9272
C6_5 C 0.30222(13) 0.94113(14) 0.9108(2)
H4_5 H 0.3226 0.9102 0.9078
C7_5 C 0.32607(12) 0.99066(15) 0.9041(2)
N4_6 N 0.09290(10) 0.84302(10) 0.86183(19)
O9_6 O 0.96415(8) 0.03606(8) 0.97438(14)
Co1_6 Co 0.950743(16) 0.970461(16) 0.04783(3)
O10_6 O 0.86905(9) 0.97765(9) 0.06185(17)
O12_6 O 0.96397(11) 0.96364(11) 0.17948(17)
N1_6 N 0.90698(10) 0.84290(10) 0.88817(19)
N2_6 N 0.98386(10) 0.87769(10) 0.93207(18)
N3_6 N 0.94313(10) 0.90172(10) 0.97927(18)
C1_6 C 0.96000(12) 0.84359(13) 0.8789(2)
H1_6 H 0.9782 0.8220 0.8388
C2_6 C 0.89880(13) 0.87954(13) 0.9511(2)
H2_6 H 0.8652 0.8884 0.9727
Co6_6 Co 0.845920(16) 0.812406(16) 0.80857(3)
O7_4 O 0.80050(11) 0.30157(11) 0.06787(17)
O8_7 O 0.71364(11) 0.28603(11) 0.07052(17)
C16_7 C 0.75696(15) 0.29614(13) 0.0300(2)
Co4_4 Co 0.720461(16) 0.299257(16) 0.20217(3)
Co5_4 Co 0.845920(16) 0.312406(16) 0.19143(3)
Co1_7 Co 0.720461(16) 0.799257(16) 0.79783(3)
Co2_4 Co 0.654080(16) 0.687594(16) 0.69143(3)
S1_6 S 0.74482(4) 0.35358(3) 0.64137(6)
O1_7 O 0.71394(8) 0.71415(8) 0.77562(14)
O2_7 O 0.60403(11) 0.66702(11) 0.80632(17)
O3_7 O 0.68385(9) 0.61077(9) 0.69763(17)
O4_7 O 0.77235(9) 0.61905(9) 0.68815(17)
O5_6 O 0.69579(13) 0.33478(10) 0.60249(18)
O6_6 O 0.79469(13) 0.34184(11) 0.59919(18)
N1_7 N 0.59290(10) 0.84302(10) 0.63817(19)
N2_7 N 0.62769(10) 0.76614(10) 0.68207(18)
N3_7 N 0.65172(10) 0.80687(10) 0.72927(18)
C1_7 C 0.59359(13) 0.79000(12) 0.6289(2)
H1_7 H 0.5720 0.7718 0.5888
C2_7 C 0.62954(13) 0.85120(13) 0.7011(2)
H2_7 H 0.6384 0.8848 0.7227
C3_7 C 0.72998(13) 0.59255(12) 0.6879(2)
C4_7 C 0.73421(13) 0.53279(12) 0.6763(2)
C5_7 C 0.68826(14) 0.50235(13) 0.6722(2)
H3_7 H 0.6552 0.5188 0.6772
C6_6 C 0.69113(14) 0.44778(13) 0.6608(2)
H4_6 H 0.6602 0.4274 0.6578
C7_6 C 0.74066(15) 0.42393(12) 0.6541(2)
C8_6 C 0.78666(16) 0.45344(14) 0.6578(3)
H5_6 H 0.8196 0.4368 0.6529
C9_7 C 0.78377(15) 0.50828(14) 0.6688(3)
H6_7 H 0.8148 0.5285 0.6713
C10_6 C 0.74847(14) 0.33047(13) 0.7522(2)
C11_6 C 0.70182(17) 0.32153(16) 0.7989(3)
H7_6 H 0.6689 0.3242 0.7708
C12_6 C 0.70506(16) 0.30844(16) 0.8889(3)
H8_6 H 0.6739 0.3022 0.9209
C13_6 C 0.75360(14) 0.30460(13) 0.9312(2)
C14_6 C 0.79970(15) 0.31183(16) 0.8826(2)
H9_6 H 0.8326 0.3079 0.9103
C15_6 C 0.79744(16) 0.32488(17) 0.7928(3)
H10_6 H 0.8286 0.3298 0.7604
Co3_4 Co 0.779539(16) 0.700743(16) 0.70217(3)
Co6_7 Co 0.562406(16) 0.904080(16) 0.55857(3)
O9_7 O 0.78606(8) 0.78585(8) 0.72438(14)
O10_7 O 0.72765(9) 0.88095(9) 0.81185(17)
O11_4 O 0.69950(11) 0.69843(11) 0.56787(17)
O12_7 O 0.71364(11) 0.78603(11) 0.92948(17)
N4_7 N 0.59302(10) 0.65710(10) 0.61183(19)
H11_7 H 0.597097 0.699545 0.842161
H12_7 H 0.569671 0.652016 0.785131
Co1_8 Co 0.779539(16) 0.200743(16) 0.29783(3)
S1_7 S 0.75518(4) 0.64642(3) 0.14137(6)
O1_8 O 0.78606(8) 0.28585(8) 0.27562(14)
O2_8 O 0.89597(11) 0.33298(11) 0.30632(17)
O3_8 O 0.81615(9) 0.38923(9) 0.19763(17)
O4_8 O 0.72765(9) 0.38095(9) 0.18815(17)
O5_7 O 0.80421(13) 0.66522(10) 0.10249(18)
O6_7 O 0.70531(13) 0.65816(11) 0.09919(18)
O8_8 O 0.78636(11) 0.71397(11) 0.57052(17)
N1_8 N 0.90710(10) 0.15698(10) 0.13817(19)
N2_8 N 0.87231(10) 0.23386(10) 0.18207(18)
N3_8 N 0.84828(10) 0.19313(10) 0.22927(18)
C1_8 C 0.90641(13) 0.21000(12) 0.1289(2)
H1_8 H 0.9280 0.2282 0.0888
C2_8 C 0.87046(13) 0.14880(13) 0.2011(2)
H2_8 H 0.8616 0.1152 0.2227
C3_8 C 0.77002(13) 0.40745(12) 0.1879(2)
C4_8 C 0.76579(13) 0.46721(12) 0.1763(2)
C5_8 C 0.81174(14) 0.49765(13) 0.1722(2)
H3_8 H 0.8448 0.4812 0.1772
C6_7 C 0.80887(14) 0.55222(13) 0.1608(2)
H4_7 H 0.8398 0.5726 0.1578
C7_7 C 0.75934(15) 0.57607(12) 0.1541(2)
C8_7 C 0.71334(16) 0.54656(14) 0.1578(3)
H5_7 H 0.6804 0.5632 0.1529
C9_8 C 0.71623(15) 0.49172(14) 0.1688(3)
H6_8 H 0.6852 0.4715 0.1713
C10_7 C 0.75153(14) 0.66953(13) 0.2522(2)
C11_7 C 0.79818(17) 0.67847(16) 0.2989(3)
H7_7 H 0.8311 0.6758 0.2708
C12_7 C 0.79494(16) 0.69156(16) 0.3889(3)
H8_7 H 0.8261 0.6978 0.4209
C13_7 C 0.74640(14) 0.69540(13) 0.4312(2)
C14_7 C 0.70030(15) 0.68817(16) 0.3826(2)
H9_7 H 0.6674 0.6921 0.4103
C15_7 C 0.70256(16) 0.67512(17) 0.2928(3)
H10_7 H 0.6714 0.6702 0.2604
C16_8 C 0.74304(15) 0.70386(13) 0.5300(2)
Co6_8 Co 0.937594(16) 0.095920(16) 0.05857(3)
O9_8 O 0.71394(8) 0.21415(8) 0.22438(14)
O10_8 O 0.77235(9) 0.11905(9) 0.31185(17)
O12_8 O 0.78636(11) 0.21397(11) 0.42948(17)
N4_8 N 0.90698(10) 0.34290(10) 0.11183(19)
H11_8 H 0.902903 0.300455 0.342161
H12_8 H 0.930329 0.347984 0.285131
S1_8 S 0.39642(3) 0.49482(4) 0.10863(6)
O3_9 O 0.13923(9) 0.43385(9) 0.05237(17)
O5_8 O 0.41522(10) 0.44579(13) 0.14751(18)
O6_8 O 0.40816(11) 0.54469(13) 0.15081(18)
C3_9 C 0.15745(12) 0.47998(13) 0.0621(2)
C4_9 C 0.21721(12) 0.48421(13) 0.0737(2)
C5_9 C 0.24765(13) 0.43826(14) 0.0778(2)
H3_9 H 0.2312 0.4052 0.0728
C6_8 C 0.30222(13) 0.44113(14) 0.0892(2)
H4_8 H 0.3226 0.4102 0.0922
C7_8 C 0.32607(12) 0.49066(15) 0.0959(2)
C8_8 C 0.29656(14) 0.53666(16) 0.0922(3)
H5_8 H 0.3132 0.5696 0.0971
C9_9 C 0.24172(14) 0.53377(15) 0.0812(3)
H6_9 H 0.2215 0.5648 0.0787
O11_5 O 0.05157(11) 0.44950(11) 0.18213(17)
O2_9 O 0.08298(11) 0.35403(11) 0.94368(17)
O7_5 O 0.44843(11) 0.55050(11) 0.68213(17)
C10_8 C 0.41953(13) 0.49847(14) 0.9978(2)
C11_8 C 0.42847(16) 0.45182(17) 0.9511(3)
H7_8 H 0.4258 0.4189 0.9792
C12_8 C 0.44156(16) 0.45506(16) 0.8611(3)
H8_8 H 0.4478 0.4239 0.8291
C13_8 C 0.44540(13) 0.50360(14) 0.8188(2)
C14_8 C 0.43817(16) 0.54970(15) 0.8674(2)
H9_8 H 0.4421 0.5826 0.8397
C15_8 C 0.42512(17) 0.54744(16) 0.9572(3)
H10_8 H 0.4202 0.5786 0.9896
C16_9 C 0.45386(13) 0.50696(15) 0.7200(2)
H11_9 H 0.0504552 0.347097 0.907839
H12_9 H 0.0979843 0.319671 0.964869
N2_9 N 0.98386(10) 0.37769(10) 0.06793(18)
N3_9 N 0.94313(10) 0.40172(10) 0.02073(18)
C1_9 C 0.96000(12) 0.34359(13) 0.1211(2)
H1_9 H 0.9782 0.3220 0.1612
C2_9 C 0.89880(13) 0.37954(13) 0.0489(2)
H2_9 H 0.8652 0.3884 0.0273
S1_9 S 0.10358(3) 0.50518(4) 0.60863(6)
O2_10 O 0.41702(11) 0.64597(11) 0.44368(17)
O3_10 O 0.36077(9) 0.56615(9) 0.55237(17)
O5_9 O 0.08478(10) 0.55421(13) 0.64751(18)
O6_9 O 0.09184(11) 0.45531(13) 0.65081(18)
N2_10 N 0.51614(10) 0.62231(10) 0.56793(18)
N3_10 N 0.55687(10) 0.59828(10) 0.52073(18)
C1_10 C 0.54000(12) 0.65641(13) 0.6211(2)
H1_10 H 0.5218 0.6780 0.6612
C2_10 C 0.60120(13) 0.62046(13) 0.5489(2)
H2_10 H 0.6348 0.6116 0.5273
C3_10 C 0.34255(12) 0.52002(13) 0.5621(2)
C4_10 C 0.28279(12) 0.51579(13) 0.5737(2)
C5_10 C 0.25235(13) 0.56174(14) 0.5778(2)
H3_10 H 0.2688 0.5948 0.5728
C6_9 C 0.19778(13) 0.55887(14) 0.5892(2)
H4_9 H 0.1774 0.5898 0.5922
C7_9 C 0.17393(12) 0.50934(15) 0.5959(2)
C8_9 C 0.20344(14) 0.46334(16) 0.5922(3)
H5_9 H 0.1868 0.4304 0.5971
C9_10 C 0.25828(14) 0.46623(15) 0.5812(3)
H6_10 H 0.2785 0.4352 0.5787
C10_9 C 0.08047(13) 0.50153(14) 0.4978(2)
C11_9 C 0.07153(16) 0.54818(17) 0.4511(3)
H7_9 H 0.0742 0.5811 0.4792
C12_9 C 0.05844(16) 0.54494(16) 0.3611(3)
H8_9 H 0.0522 0.5761 0.3291
C13_9 C 0.05460(13) 0.49640(14) 0.3188(2)
C14_9 C 0.06183(16) 0.45030(15) 0.3674(2)
H9_9 H 0.0579 0.4174 0.3397
C15_9 C 0.07488(17) 0.45256(16) 0.4572(3)
H10_9 H 0.0798 0.4214 0.4896
C16_10 C 0.04614(13) 0.49304(15) 0.2200(2)
H11_10 H 0.449545 0.652903 0.407839
H12_10 H 0.402016 0.680329 0.464869
S1_10 S 0.75518(4) 0.14642(3) 0.85863(6)
O5_10 O 0.80421(13) 0.16522(10) 0.89751(18)
O6_10 O 0.70531(13) 0.15816(11) 0.90081(18)
O7_6 O 0.69950(11) 0.19843(11) 0.43213(17)
C6_10 C 0.80887(14) 0.05222(13) 0.8392(2)
H4_10 H 0.8398 0.0726 0.8422
C7_10 C 0.75934(15) 0.07607(12) 0.8459(2)
C8_10 C 0.71334(16) 0.04656(14) 0.8422(3)
H5_10 H 0.6804 0.0632 0.8471
C10_10 C 0.75153(14) 0.16953(13) 0.7478(2)
C11_10 C 0.79818(17) 0.17847(16) 0.7011(3)
H7_10 H 0.8311 0.1758 0.7292
C12_10 C 0.79494(16) 0.19156(16) 0.6111(3)
H8_10 H 0.8261 0.1978 0.5791
C13_10 C 0.74640(14) 0.19540(13) 0.5688(2)
C14_10 C 0.70030(15) 0.18817(16) 0.6174(2)
H9_10 H 0.6674 0.1921 0.5897
C15_10 C 0.70256(16) 0.17512(17) 0.7072(3)
H10_10 H 0.6714 0.1702 0.7396
C16_11 C 0.74304(15) 0.20386(13) 0.4700(2)
O2_11 O 0.89597(11) 0.83298(11) 0.69368(17)
O3_11 O 0.81615(9) 0.88923(9) 0.80237(17)
N2_11 N 0.87231(10) 0.73386(10) 0.81793(18)
N3_11 N 0.84828(10) 0.69313(10) 0.77073(18)
C1_11 C 0.90641(13) 0.71000(12) 0.8711(2)
H1_11 H 0.9280 0.7282 0.9112
C2_11 C 0.87046(13) 0.64880(13) 0.7989(2)
H2_11 H 0.8616 0.6152 0.7773
C3_11 C 0.77002(13) 0.90745(12) 0.8121(2)
C4_11 C 0.76579(13) 0.96721(12) 0.8237(2)
C5_11 C 0.81174(14) 0.99765(13) 0.8278(2)
H3_11 H 0.8448 0.9812 0.8228
C9_11 C 0.71623(15) 0.99172(14) 0.8312(3)
H6_11 H 0.6852 0.9715 0.8287
O11_6 O 0.80050(11) 0.80157(11) 0.93213(17)
H11_11 H 0.902903 0.800455 0.657839
H12_11 H 0.930329 0.847984 0.714869
O2_12 O 0.60403(11) 0.16702(11) 0.19368(17)
O3_12 O 0.68385(9) 0.11077(9) 0.30237(17)
N2_12 N 0.62769(10) 0.26614(10) 0.31793(18)
N3_12 N 0.65172(10) 0.30687(10) 0.27073(18)
C1_12 C 0.59359(13) 0.29000(12) 0.3711(2)
H1_12 H 0.5720 0.2718 0.4112
C2_12 C 0.62954(13) 0.35120(13) 0.2989(2)
H2_12 H 0.6384 0.3848 0.2773
C3_12 C 0.72998(13) 0.09255(12) 0.3121(2)
C4_12 C 0.73421(13) 0.03279(12) 0.3237(2)
C5_12 C 0.68826(14) 0.00235(13) 0.3278(2)
H3_12 H 0.6552 0.0188 0.3228
C9_12 C 0.78377(15) 0.00828(14) 0.3312(3)
H6_12 H 0.8148 0.0285 0.3287
H11_12 H 0.597097 0.199545 0.157839
H12_12 H 0.569671 0.152016 0.214869
C16_12 C 0.75696(15) 0.79614(13) 0.9700(2)
O6_11 O 0.90816(11) 0.04469(13) 0.65081(18)
O7_7 O 0.94843(11) 0.05050(11) 0.18213(17)
C8_11 C 0.79656(14) 0.03666(16) 0.5922(3)
H5_11 H 0.8132 0.0696 0.5971
C9_13 C 0.74172(14) 0.03377(15) 0.5812(3)
H6_13 H 0.7215 0.0648 0.5787
C13_11 C 0.94540(13) 0.00360(14) 0.3188(2)
C14_11 C 0.93817(16) 0.04970(15) 0.3674(2)
H9_11 H 0.9421 0.0826 0.3397
C15_11 C 0.92512(17) 0.04744(16) 0.4572(3)
H10_11 H 0.9202 0.0786 0.4896
C16_13 C 0.95386(13) 0.00696(15) 0.2200(2)
S1_11 S 0.89642(3) 0.99482(4) 0.60863(6)
O2_13 O 0.58298(11) 0.85403(11) 0.44368(17)
O3_13 O 0.63923(9) 0.93385(9) 0.55237(17)
O5_11 O 0.91522(10) 0.94579(13) 0.64751(18)
N2_13 N 0.48386(10) 0.87769(10) 0.56793(18)
N3_13 N 0.44313(10) 0.90172(10) 0.52073(18)
C1_13 C 0.46000(12) 0.84359(13) 0.6211(2)
H1_13 H 0.4782 0.8220 0.6612
C2_13 C 0.39880(13) 0.87954(13) 0.5489(2)
H2_13 H 0.3652 0.8884 0.5273
C3_13 C 0.65745(12) 0.97998(13) 0.5621(2)
C4_13 C 0.71721(12) 0.98421(13) 0.5737(2)
C5_13 C 0.74765(13) 0.93826(14) 0.5778(2)
H3_13 H 0.7312 0.9052 0.5728
C6_11 C 0.80222(13) 0.94113(14) 0.5892(2)
H4_11 H 0.8226 0.9102 0.5922
C7_11 C 0.82607(12) 0.99066(15) 0.5959(2)
C10_11 C 0.91953(13) 0.99847(14) 0.4978(2)
C11_11 C 0.92847(16) 0.95182(17) 0.4511(3)
H7_11 H 0.9258 0.9189 0.4792
C12_11 C 0.94156(16) 0.95506(16) 0.3611(3)
H8_11 H 0.9478 0.9239 0.3291
O11_7 O 0.55157(11) 0.94950(11) 0.68213(17)
H11_13 H 0.550455 0.847097 0.407839
H12_13 H 0.597984 0.819671 0.464869
N2_14 N 0.01614(10) 0.12231(10) 0.06793(18)
N3_14 N 0.05687(10) 0.09828(10) 0.02073(18)
C1_14 C 0.04000(12) 0.15641(13) 0.1211(2)
H1_14 H 0.0218 0.1780 0.1612
C2_14 C 0.10120(13) 0.12046(13) 0.0489(2)
H2_14 H 0.1348 0.1116 0.0273
S1_12 S 0.60358(3) 0.00518(4) 0.10863(6)
O3_14 O 0.86077(9) 0.06615(9) 0.05237(17)
O5_12 O 0.58478(10) 0.05421(13) 0.14751(18)
C3_14 C 0.84255(12) 0.02002(13) 0.0621(2)
C4_14 C 0.78279(12) 0.01579(13) 0.0737(2)
C5_14 C 0.75235(13) 0.06174(14) 0.0778(2)
H3_14 H 0.7688 0.0948 0.0728
C6_12 C 0.69778(13) 0.05887(14) 0.0892(2)
H4_12 H 0.6774 0.0898 0.0922
C7_12 C 0.67393(12) 0.00934(15) 0.0959(2)
O2_14 O 0.91702(11) 0.14597(11) 0.94368(17)
C10_12 C 0.58047(13) 0.00153(14) 0.9978(2)
C11_12 C 0.57153(16) 0.04818(17) 0.9511(3)
H7_12 H 0.5742 0.0811 0.9792
C12_12 C 0.55844(16) 0.04494(16) 0.8611(3)
H8_12 H 0.5522 0.0761 0.8291
H11_14 H 0.949545 0.152903 0.907839
H12_14 H 0.902016 0.180329 0.964869
O6_12 O 0.59184(11) 0.95531(13) 0.15081(18)
C8_12 C 0.70344(14) 0.96334(16) 0.0922(3)
H5_12 H 0.6868 0.9304 0.0971
C9_14 C 0.75828(14) 0.96623(15) 0.0812(3)
H6_14 H 0.7785 0.9352 0.0787
C13_12 C 0.55460(13) 0.99640(14) 0.8188(2)
C14_12 C 0.56183(16) 0.95030(15) 0.8674(2)
H9_12 H 0.5579 0.9174 0.8397
C15_12 C 0.57488(17) 0.95256(16) 0.9572(3)
H10_12 H 0.5798 0.9214 0.9896
C16_14 C 0.54614(13) 0.99304(15) 0.7200(2)
S1_13 S 0.25518(4) 0.64642(3) 0.35863(6)
O2_15 O 0.39597(11) 0.33298(11) 0.19368(17)
O3_15 O 0.31615(9) 0.38923(9) 0.30237(17)
O5_13 O 0.30421(13) 0.66522(10) 0.39751(18)
O6_13 O 0.20531(13) 0.65816(11) 0.40081(18)
N2_15 N 0.37231(10) 0.23386(10) 0.31793(18)
N3_15 N 0.34828(10) 0.19313(10) 0.27073(18)
C1_15 C 0.40641(13) 0.21000(12) 0.3711(2)
H1_15 H 0.4280 0.2282 0.4112
C2_15 C 0.37046(13) 0.14880(13) 0.2989(2)
H2_15 H 0.3616 0.1152 0.2773
C3_15 C 0.27002(13) 0.40745(12) 0.3121(2)
C4_15 C 0.26579(13) 0.46721(12) 0.3237(2)
C5_15 C 0.31174(14) 0.49765(13) 0.3278(2)
H3_15 H 0.3448 0.4812 0.3228
C6_13 C 0.30887(14) 0.55222(13) 0.3392(2)
H4_13 H 0.3398 0.5726 0.3422
C7_13 C 0.25934(15) 0.57607(12) 0.3459(2)
C8_13 C 0.21334(16) 0.54656(14) 0.3422(3)
H5_13 H 0.1804 0.5632 0.3471
C9_15 C 0.21623(15) 0.49172(14) 0.3312(3)
H6_15 H 0.1852 0.4715 0.3287
C10_13 C 0.25153(14) 0.66953(13) 0.2478(2)
C11_13 C 0.29818(17) 0.67847(16) 0.2011(3)
H7_13 H 0.3311 0.6758 0.2292
C12_13 C 0.29494(16) 0.69156(16) 0.1111(3)
H8_13 H 0.3261 0.6978 0.0791
C13_13 C 0.24640(14) 0.69540(13) 0.0688(2)
C14_13 C 0.20030(15) 0.68817(16) 0.1174(2)
H9_13 H 0.1674 0.6921 0.0897
C15_13 C 0.20256(16) 0.67512(17) 0.2072(3)
H10_13 H 0.1714 0.6702 0.2396
O11_8 O 0.30050(11) 0.30157(11) 0.43213(17)
H11_15 H 0.402903 0.300455 0.157839
H12_15 H 0.430329 0.347984 0.214869
O7_8 O 0.19950(11) 0.69843(11) 0.93213(17)
C16_15 C 0.24304(15) 0.70386(13) 0.9700(2)
S1_14 S 0.24482(4) 0.35358(3) 0.85863(6)
O2_16 O 0.10403(11) 0.66702(11) 0.69368(17)
O3_16 O 0.18385(9) 0.61077(9) 0.80237(17)
O5_14 O 0.19579(13) 0.33478(10) 0.89751(18)
O6_14 O 0.29469(13) 0.34184(11) 0.90081(18)
N2_16 N 0.12769(10) 0.76614(10) 0.81793(18)
N3_16 N 0.15172(10) 0.80687(10) 0.77073(18)
C1_16 C 0.09359(13) 0.79000(12) 0.8711(2)
H1_16 H 0.0720 0.7718 0.9112
C2_16 C 0.12954(13) 0.85120(13) 0.7989(2)
H2_16 H 0.1384 0.8848 0.7773
C3_16 C 0.22998(13) 0.59255(12) 0.8121(2)
C4_16 C 0.23421(13) 0.53279(12) 0.8237(2)
C5_16 C 0.18826(14) 0.50235(13) 0.8278(2)
H3_16 H 0.1552 0.5188 0.8228
C6_14 C 0.19113(14) 0.44778(13) 0.8392(2)
H4_14 H 0.1602 0.4274 0.8422
C7_14 C 0.24066(15) 0.42393(12) 0.8459(2)
C8_14 C 0.28666(16) 0.45344(14) 0.8422(3)
H5_14 H 0.3196 0.4368 0.8471
C9_16 C 0.28377(15) 0.50828(14) 0.8312(3)
H6_16 H 0.3148 0.5285 0.8287
C10_14 C 0.24847(14) 0.33047(13) 0.7478(2)
C11_14 C 0.20182(17) 0.32153(16) 0.7011(3)
H7_14 H 0.1689 0.3242 0.7292
C12_14 C 0.20506(16) 0.30844(16) 0.6111(3)
H8_14 H 0.1739 0.3022 0.5791
C13_14 C 0.25360(14) 0.30460(13) 0.5688(2)
C14_14 C 0.29970(15) 0.31183(16) 0.6174(2)
H9_14 H 0.3326 0.3079 0.5897
C15_14 C 0.29744(16) 0.32488(17) 0.7072(3)
H10_14 H 0.3286 0.3298 0.7396
C16_16 C 0.25696(15) 0.29614(13) 0.4700(2)
H11_16 H 0.0970973 0.699545 0.657839
H12_16 H 0.0696707 0.652016 0.714869
S1_15 S 0.25518(4) 0.14642(3) 0.64137(6)
O5_15 O 0.30421(13) 0.16522(10) 0.60249(18)
O6_15 O 0.20531(13) 0.15816(11) 0.59919(18)
C6_15 C 0.30887(14) 0.05222(13) 0.6608(2)
H4_15 H 0.3398 0.0726 0.6578
C7_15 C 0.25934(15) 0.07607(12) 0.6541(2)
C8_15 C 0.21334(16) 0.04656(14) 0.6578(3)
H5_15 H 0.1804 0.0632 0.6529
C10_15 C 0.25153(14) 0.16953(13) 0.7522(2)
C11_15 C 0.29818(17) 0.17847(16) 0.7989(3)
H7_15 H 0.3311 0.1758 0.7708
C12_15 C 0.29494(16) 0.19156(16) 0.8889(3)
H8_15 H 0.3261 0.1978 0.9209
C13_15 C 0.24640(14) 0.19540(13) 0.9312(2)
C14_15 C 0.20030(15) 0.18817(16) 0.8826(2)
H9_15 H 0.1674 0.1921 0.9103
C15_15 C 0.20256(16) 0.17512(17) 0.7928(3)
H10_15 H 0.1714 0.1702 0.7604
S1_16 S 0.74482(4) 0.85358(3) 0.35863(6)
O5_16 O 0.69579(13) 0.83478(10) 0.39751(18)
O6_16 O 0.79469(13) 0.84184(11) 0.40081(18)
C6_16 C 0.69113(14) 0.94778(13) 0.3392(2)
H4_16 H 0.6602 0.9274 0.3422
C7_16 C 0.74066(15) 0.92393(12) 0.3459(2)
C8_16 C 0.78666(16) 0.95344(14) 0.3422(3)
H5_16 H 0.8196 0.9368 0.3471
C10_16 C 0.74847(14) 0.83047(13) 0.2478(2)
C11_16 C 0.70182(17) 0.82153(16) 0.2011(3)
H7_16 H 0.6689 0.8242 0.2292
C12_16 C 0.70506(16) 0.80844(16) 0.1111(3)
H8_16 H 0.6739 0.8022 0.0791
C13_16 C 0.75360(14) 0.80460(13) 0.0688(2)
C14_16 C 0.79970(15) 0.81183(16) 0.1174(2)
H9_16 H 0.8326 0.8079 0.0897
C15_16 C 0.79744(16) 0.82488(17) 0.2072(3)
H10_16 H 0.8286 0.8298 0.2396
loop_
_geom_bond_atom_site_label_1
_geom_bond_atom_site_label_2
_geom_bond_site_symmetry_1
_geom_bond_site_symmetry_2
O10 Co1 1_555 1_555
O12 Co1 1_555 1_555
N1 C1 1_555 1_555
C1 N2 1_555 1_555
H1 C1 1_555 1_555
C2 N1 1_555 1_555
H2 C2 1_555 1_555
Co6 N1 1_555 1_555
N2 N3 1_555 1_555
N3 C2 1_555 1_555
O7 C16 1_555 1_555
O8 C16 1_555 1_555
C11 C10 1_555 1_555
H7 C11 1_555 1_555
C12 C11 1_555 1_555
H8 C12 1_555 1_555
C13 C12 1_555 1_555
C14 C13 1_555 1_555
H9 C14 1_555 1_555
C15 C10 1_555 1_555
H10 C15 1_555 1_555
C16 C13 1_555 1_555
Co4 O8 1_555 1_555
Co5 O7 1_555 1_555
C14 C15 1_555 1_555
O2 H11 1_555 1_555
O2 H12 1_555 1_555
S1 O5 1_555 1_555
O3 Co2 1_555 1_555
O4 C3 1_555 1_555
O6 S1 1_555 1_555
C3 O3 1_555 1_555
C4 C3 1_555 1_555
C5 C4 1_555 1_555
H3 C5 1_555 1_555
C6 C5 1_555 1_555
H4 C6 1_555 1_555
C7 S1 1_555 1_555
C8 C7 1_555 1_555
H5 C8 1_555 1_555
C9 C4 1_555 1_555
H6 C9 1_555 1_555
Co3 O4 1_555 1_555
O11 Co2 1_555 1_555
N4 Co2 1_555 1_555
C6 C7 1_555 1_555
C8 C9 1_555 1_555
Co1_2 O1_2 1_555 1_555
Co5 O1_2 1_555 1_555
S1_2 O5_2 1_555 1_555
O1_2 Co4 1_555 1_555
O2_2 Co5 1_555 1_555
O3_2 Co5 1_555 1_555
O4_2 C3_2 1_555 1_555
O6_2 S1_2 1_555 1_555
O11 C16_2 1_555 1_555
O8_2 C16_2 1_555 1_555
N1_2 C1_2 1_555 1_555
N2_2 Co5 1_555 1_555
N3_2 Co1_2 1_555 1_555
C1_2 N2_2 1_555 1_555
H1_2 C1_2 1_555 1_555
C2_2 N1_2 1_555 1_555
H2_2 C2_2 1_555 1_555
C3_2 O3_2 1_555 1_555
C4_2 C3_2 1_555 1_555
C5_2 C4_2 1_555 1_555
H3_2 C5_2 1_555 1_555
C6_2 C5_2 1_555 1_555
H4_2 C6_2 1_555 1_555
C7_2 S1_2 1_555 1_555
C8_2 C7_2 1_555 1_555
H5_2 C8_2 1_555 1_555
C9_2 C4_2 1_555 1_555
H6_2 C9_2 1_555 1_555
C10_2 S1_2 1_555 1_555
C11_2 C10_2 1_555 1_555
H7_2 C11_2 1_555 1_555
C12_2 C11_2 1_555 1_555
H8_2 C12_2 1_555 1_555
C13_2 C12_2 1_555 1_555
C14_2 C13_2 1_555 1_555
H9_2 C14_2 1_555 1_555
C15_2 C10_2 1_555 1_555
H10_2 C15_2 1_555 1_555
C16_2 C13_2 1_555 1_555
Co4 O4_2 1_555 1_555
Co3 O8_2 1_555 1_555
Co6_2 N1_2 1_555 1_555
O9_2 Co1_2 1_555 1_555
O10_2 Co1_2 1_555 1_555
O12_2 Co1_2 1_555 1_555
N4_2 Co5 1_555 1_555
N2_2 N3_2 1_555 1_555
N3_2 C2_2 1_555 1_555
C6_2 C7_2 1_555 1_555
C8_2 C9_2 1_555 1_555
C14_2 C15_2 1_555 1_555
Co4 O9_2 1_555 1_555
O2_2 H11_2 1_555 1_555
O2_2 H12_2 1_555 1_555
Co1_3 O1_3 1_555 1_555
Co2_2 O1_3 1_555 1_555
O1_3 Co3_2 1_555 1_555
O2_3 Co2_2 1_555 1_555
O3_3 Co2_2 1_555 1_555
O4_3 C3_3 1_555 1_555
N1_3 C1_3 1_555 1_555
N2_3 Co2_2 1_555 1_555
N3_3 Co1_3 1_555 1_555
C1_3 N2_3 1_555 1_555
H1_3 C1_3 1_555 1_555
C2_3 N1_3 1_555 1_555
H2_3 C2_3 1_555 1_555
C3_3 O3_3 1_555 1_555
C4_3 C3_3 1_555 1_555
C5_3 C4_3 1_555 1_555
H3_3 C5_3 1_555 1_555
C9_3 C4_3 1_555 1_555
H6_3 C9_3 1_555 1_555
Co3_2 O4_3 1_555 1_555
Co6_3 N1_3 1_555 1_555
O9_3 Co1_3 1_555 1_555
O10_3 Co1_3 1_555 1_555
O11_2 Co2_2 1_555 1_555
O12_3 Co1_3 1_555 1_555
N4_3 Co2_2 1_555 1_555
N2_3 N3_3 1_555 1_555
N3_3 C2_3 1_555 1_555
Co3_2 O9_3 1_555 1_555
O2_3 H11_3 1_555 1_555
O2_3 H12_3 1_555 1_555
S1_3 O5_3 1_555 1_555
O6_3 S1_3 1_555 1_555
O7_2 C16_3 1_555 1_555
O8_3 C16_3 1_555 1_555
H4_3 C6_3 1_555 1_555
C7_3 S1_3 1_555 1_555
C8_3 C7_3 1_555 1_555
H5_3 C8_3 1_555 1_555
C10_3 S1_3 1_555 1_555
C11_3 C10_3 1_555 1_555
H7_3 C11_3 1_555 1_555
C12_3 C11_3 1_555 1_555
H8_3 C12_3 1_555 1_555
C13_3 C12_3 1_555 1_555
C14_3 C13_3 1_555 1_555
H9_3 C14_3 1_555 1_555
C15_3 C10_3 1_555 1_555
H10_3 C15_3 1_555 1_555
C16_3 C13_3 1_555 1_555
Co4_2 O8_3 1_555 1_555
Co5_2 O7_2 1_555 1_555
C6_3 C7_3 1_555 1_555
C14_3 C15_3 1_555 1_555
O11_2 C16_4 1_555 1_555
O8_4 C16_4 1_555 1_555
Co3_2 O8_4 1_555 1_555
Co1_4 O1_4 1_555 1_555
Co5_2 O1_4 1_555 1_555
O1_4 Co4_2 1_555 1_555
O2_4 Co5_2 1_555 1_555
O3_4 Co5_2 1_555 1_555
O4_4 C3_4 1_555 1_555
N1_4 C1_4 1_555 1_555
N2_4 Co5_2 1_555 1_555
N3_4 Co1_4 1_555 1_555
C1_4 N2_4 1_555 1_555
H1_4 C1_4 1_555 1_555
C2_4 N1_4 1_555 1_555
H2_4 C2_4 1_555 1_555
C3_4 O3_4 1_555 1_555
C4_4 C3_4 1_555 1_555
C5_4 C4_4 1_555 1_555
H3_4 C5_4 1_555 1_555
C9_4 C4_4 1_555 1_555
H6_4 C9_4 1_555 1_555
Co4_2 O4_4 1_555 1_555
Co6_4 N1_4 1_555 1_555
O9_4 Co1_4 1_555 1_555
O10_4 Co1_4 1_555 1_555
O12_4 Co1_4 1_555 1_555
N4_4 Co5_2 1_555 1_555
N2_4 N3_4 1_555 1_555
N3_4 C2_4 1_555 1_555
Co4_2 O9_4 1_555 1_555
O2_4 H11_4 1_555 1_555
O2_4 H12_4 1_555 1_555
Co1_5 O1_5 1_555 1_555
Co2_3 O1_5 1_555 1_555
S1_4 O5_4 1_555 1_555
O2_5 Co2_3 1_555 1_555
O3_5 Co2_3 1_555 1_555
N1_5 C1_5 1_555 1_555
N2_5 Co2_3 1_555 1_555
N3_5 Co1_5 1_555 1_555
C1_5 N2_5 1_555 1_555
H1_5 C1_5 1_555 1_555
C2_5 N1_5 1_555 1_555
H2_5 C2_5 1_555 1_555
C3_5 O3_5 1_555 1_555
C4_5 C3_5 1_555 1_555
C5_5 C4_5 1_555 1_555
H3_5 C5_5 1_555 1_555
C6_4 C5_5 1_555 1_555
H4_4 C6_4 1_555 1_555
C7_4 S1_4 1_555 1_555
C10_4 S1_4 1_555 1_555
C11_4 C10_4 1_555 1_555
H7_4 C11_4 1_555 1_555
C12_4 C11_4 1_555 1_555
H8_4 C12_4 1_555 1_555
Co4_3 O8_5 1_555 1_555
Co6_5 N1_5 1_555 1_555
O10_5 Co1_5 1_555 1_555
O11_3 Co2_3 1_555 1_555
O12_5 Co1_5 1_555 1_555
N4_5 Co2_3 1_555 1_555
N2_5 N3_5 1_555 1_555
N3_5 C2_5 1_555 1_555
C6_4 C7_4 1_555 1_555
O2_5 H11_5 1_555 1_555
O2_5 H12_5 1_555 1_555
O7_3 C16_5 1_555 1_555
H5_4 C8_4 1_555 1_555
H6_5 C9_5 1_555 1_555
C14_4 C13_4 1_555 1_555
H9_4 C14_4 1_555 1_555
H10_4 C15_4 1_555 1_555
C16_5 C13_4 1_555 1_555
Co3_3 O4_5 1_555 1_555
Co5_3 O7_3 1_555 1_555
C8_4 C9_5 1_555 1_555
C14_4 C15_4 1_555 1_555
Co3_3 O9_5 1_555 1_555
O11_3 C16_6 1_555 1_555
C14_5 C13_5 1_555 1_555
H9_5 C14_5 1_555 1_555
H10_5 C15_5 1_555 1_555
C16_6 C13_5 1_555 1_555
C14_5 C15_5 1_555 1_555
H5_5 C8_5 1_555 1_555
H6_6 C9_6 1_555 1_555
Co4_3 O4_6 1_555 1_555
C8_5 C9_6 1_555 1_555
C11_5 C10_5 1_555 1_555
H7_5 C11_5 1_555 1_555
C12_5 C11_5 1_555 1_555
H8_5 C12_5 1_555 1_555
Co3_3 O8_6 1_555 1_555
O2_6 H11_6 1_555 1_555
O2_6 H12_6 1_555 1_555
S1_5 O5_5 1_555 1_555
O3_6 Co5_3 1_555 1_555
C3_6 O3_6 1_555 1_555
C4_6 C3_6 1_555 1_555
C5_6 C4_6 1_555 1_555
H3_6 C5_6 1_555 1_555
C6_5 C5_6 1_555 1_555
H4_5 C6_5 1_555 1_555
C7_5 S1_5 1_555 1_555
N4_6 Co5_3 1_555 1_555
C6_5 C7_5 1_555 1_555
O10_6 Co1_6 1_555 1_555
O12_6 Co1_6 1_555 1_555
N1_6 C1_6 1_555 1_555
C1_6 N2_6 1_555 1_555
H1_6 C1_6 1_555 1_555
C2_6 N1_6 1_555 1_555
H2_6 C2_6 1_555 1_555
Co6_6 N1_6 1_555 1_555
N2_6 N3_6 1_555 1_555
N3_6 C2_6 1_555 1_555
O7_4 C16_7 1_555 1_555
O8_7 C16_7 1_555 1_555
Co4_4 O8_7 1_555 1_555
Co5_4 O7_4 1_555 1_555
Co1_7 O1_7 1_555 1_555
Co2_4 O1_7 1_555 1_555
S1_6 O5_6 1_555 1_555
O1_7 Co3_4 1_555 1_555
O2_7 Co2_4 1_555 1_555
O3_7 Co2_4 1_555 1_555
O4_7 C3_7 1_555 1_555
O6_6 S1_6 1_555 1_555
N1_7 C1_7 1_555 1_555
N2_7 Co2_4 1_555 1_555
N3_7 Co1_7 1_555 1_555
C1_7 N2_7 1_555 1_555
H1_7 C1_7 1_555 1_555
C2_7 N1_7 1_555 1_555
H2_7 C2_7 1_555 1_555
C3_7 O3_7 1_555 1_555
C4_7 C3_7 1_555 1_555
C5_7 C4_7 1_555 1_555
H3_7 C5_7 1_555 1_555
C6_6 C5_7 1_555 1_555
H4_6 C6_6 1_555 1_555
C7_6 S1_6 1_555 1_555
C8_6 C7_6 1_555 1_555
H5_6 C8_6 1_555 1_555
C9_7 C4_7 1_555 1_555
H6_7 C9_7 1_555 1_555
C10_6 S1_6 1_555 1_555
C11_6 C10_6 1_555 1_555
H7_6 C11_6 1_555 1_555
C12_6 C11_6 1_555 1_555
H8_6 C12_6 1_555 1_555
C13_6 C12_6 1_555 1_555
C14_6 C13_6 1_555 1_555
H9_6 C14_6 1_555 1_555
C15_6 C10_6 1_555 1_555
H10_6 C15_6 1_555 1_555
Co3_4 O4_7 1_555 1_555
Co6_7 N1_7 1_555 1_555
O9_7 Co1_7 1_555 1_555
O10_7 Co1_7 1_555 1_555
O11_4 Co2_4 1_555 1_555
O12_7 Co1_7 1_555 1_555
N4_7 Co2_4 1_555 1_555
N2_7 N3_7 1_555 1_555
N3_7 C2_7 1_555 1_555
C6_6 C7_6 1_555 1_555
C8_6 C9_7 1_555 1_555
C14_6 C15_6 1_555 1_555
Co3_4 O9_7 1_555 1_555
O2_7 H11_7 1_555 1_555
O2_7 H12_7 1_555 1_555
Co1_8 O1_8 1_555 1_555
Co5_4 O1_8 1_555 1_555
S1_7 O5_7 1_555 1_555
O1_8 Co4_4 1_555 1_555
O2_8 Co5_4 1_555 1_555
O3_8 Co5_4 1_555 1_555
O4_8 C3_8 1_555 1_555
O6_7 S1_7 1_555 1_555
O11_4 C16_8 1_555 1_555
O8_8 C16_8 1_555 1_555
N1_8 C1_8 1_555 1_555
N2_8 Co5_4 1_555 1_555
N3_8 Co1_8 1_555 1_555
C1_8 N2_8 1_555 1_555
H1_8 C1_8 1_555 1_555
C2_8 N1_8 1_555 1_555
H2_8 C2_8 1_555 1_555
C3_8 O3_8 1_555 1_555
C4_8 C3_8 1_555 1_555
C5_8 C4_8 1_555 1_555
H3_8 C5_8 1_555 1_555
C6_7 C5_8 1_555 1_555
H4_7 C6_7 1_555 1_555
C7_7 S1_7 1_555 1_555
C8_7 C7_7 1_555 1_555
H5_7 C8_7 1_555 1_555
C9_8 C4_8 1_555 1_555
H6_8 C9_8 1_555 1_555
C10_7 S1_7 1_555 1_555
C11_7 C10_7 1_555 1_555
H7_7 C11_7 1_555 1_555
C12_7 C11_7 1_555 1_555
H8_7 C12_7 1_555 1_555
C13_7 C12_7 1_555 1_555
C14_7 C13_7 1_555 1_555
H9_7 C14_7 1_555 1_555
C15_7 C10_7 1_555 1_555
H10_7 C15_7 1_555 1_555
C16_8 C13_7 1_555 1_555
Co4_4 O4_8 1_555 1_555
Co3_4 O8_8 1_555 1_555
Co6_8 N1_8 1_555 1_555
O9_8 Co1_8 1_555 1_555
O10_8 Co1_8 1_555 1_555
O12_8 Co1_8 1_555 1_555
N4_8 Co5_4 1_555 1_555
N2_8 N3_8 1_555 1_555
N3_8 C2_8 1_555 1_555
C6_7 C7_7 1_555 1_555
C8_7 C9_8 1_555 1_555
C14_7 C15_7 1_555 1_555
Co4_4 O9_8 1_555 1_555
O2_8 H11_8 1_555 1_555
O2_8 H12_8 1_555 1_555
S1_8 O5_8 1_555 1_555
O3_9 Co6_3 1_555 1_555
O10 C3_9 1_555 1_555
O6_8 S1_8 1_555 1_555
C3_9 O3_9 1_555 1_555
C4_9 C3_9 1_555 1_555
C5_9 C4_9 1_555 1_555
H3_9 C5_9 1_555 1_555
C6_8 C5_9 1_555 1_555
H4_8 C6_8 1_555 1_555
C7_8 S1_8 1_555 1_555
C8_8 C7_8 1_555 1_555
H5_8 C8_8 1_555 1_555
C9_9 C4_9 1_555 1_555
H6_9 C9_9 1_555 1_555
O11_5 Co6_3 1_555 1_555
C6_8 C7_8 1_555 1_555
C8_8 C9_9 1_555 1_555
O7_5 C16_9 1_555 1_555
O12_2 C16_9 1_555 1_555
C11_8 C10_8 1_555 1_555
H7_8 C11_8 1_555 1_555
C12_8 C11_8 1_555 1_555
H8_8 C12_8 1_555 1_555
C13_8 C12_8 1_555 1_555
C14_8 C13_8 1_555 1_555
H9_8 C14_8 1_555 1_555
C15_8 C10_8 1_555 1_555
H10_8 C15_8 1_555 1_555
C16_9 C13_8 1_555 1_555
Co6_4 O7_5 1_555 1_555
C14_8 C15_8 1_555 1_555
O2_9 H11_9 1_555 1_555
O2_9 H12_9 1_555 1_555
N4_8 C1_9 1_555 1_555
C1_9 N2_9 1_555 1_555
H1_9 C1_9 1_555 1_555
C2_9 N4_8 1_555 1_555
H2_9 C2_9 1_555 1_555
N2_9 N3_9 1_555 1_555
N3_9 C2_9 1_555 1_555
Co6_4 O9_2 1_555 1_555
S1_9 O5_9 1_555 1_555
O2_10 Co6_4 1_555 1_555
O3_10 Co6_4 1_555 1_555
O10_2 C3_10 1_555 1_555
O6_9 S1_9 1_555 1_555
O11_5 C16_10 1_555 1_555
O12 C16_10 1_555 1_555
N4_7 C1_10 1_555 1_555
N2_10 Co6_4 1_555 1_555
N3_10 Co4 1_555 1_555
C1_10 N2_10 1_555 1_555
H1_10 C1_10 1_555 1_555
C2_10 N4_7 1_555 1_555
H2_10 C2_10 1_555 1_555
C3_10 O3_10 1_555 1_555
C4_10 C3_10 1_555 1_555
C5_10 C4_10 1_555 1_555
H3_10 C5_10 1_555 1_555
C6_9 C5_10 1_555 1_555
H4_9 C6_9 1_555 1_555
C7_9 S1_9 1_555 1_555
C8_9 C7_9 1_555 1_555
H5_9 C8_9 1_555 1_555
C9_10 C4_10 1_555 1_555
H6_10 C9_10 1_555 1_555
C10_9 S1_9 1_555 1_555
C11_9 C10_9 1_555 1_555
H7_9 C11_9 1_555 1_555
C12_9 C11_9 1_555 1_555
H8_9 C12_9 1_555 1_555
C13_9 C12_9 1_555 1_555
C14_9 C13_9 1_555 1_555
H9_9 C14_9 1_555 1_555
C15_9 C10_9 1_555 1_555
H10_9 C15_9 1_555 1_555
C16_10 C13_9 1_555 1_555
N2_10 N3_10 1_555 1_555
N3_10 C2_10 1_555 1_555
C6_9 C7_9 1_555 1_555
C8_9 C9_10 1_555 1_555
C14_9 C15_9 1_555 1_555
O2_10 H11_10 1_555 1_555
O2_10 H12_10 1_555 1_555
S1_10 O5_10 1_555 1_555
O6_10 S1_10 1_555 1_555
O7_6 C16_11 1_555 1_555
O12_8 C16_11 1_555 1_555
H4_10 C6_10 1_555 1_555
C7_10 S1_10 1_555 1_555
C8_10 C7_10 1_555 1_555
H5_10 C8_10 1_555 1_555
C10_10 S1_10 1_555 1_555
C11_10 C10_10 1_555 1_555
H7_10 C11_10 1_555 1_555
C12_10 C11_10 1_555 1_555
H8_10 C12_10 1_555 1_555
C13_10 C12_10 1_555 1_555
C14_10 C13_10 1_555 1_555
H9_10 C14_10 1_555 1_555
C15_10 C10_10 1_555 1_555
H10_10 C15_10 1_555 1_555
C16_11 C13_10 1_555 1_555
Co6_5 O7_6 1_555 1_555
C6_10 C7_10 1_555 1_555
C14_10 C15_10 1_555 1_555
Co6_6 O9_7 1_555 1_555
O2_11 Co6_6 1_555 1_555
O3_11 Co6_6 1_555 1_555
O10_7 C3_11 1_555 1_555
N4 C1_11 1_555 1_555
N2_11 Co6_6 1_555 1_555
N3_11 Co3_4 1_555 1_555
C1_11 N2_11 1_555 1_555
H1_11 C1_11 1_555 1_555
C2_11 N4 1_555 1_555
H2_11 C2_11 1_555 1_555
C3_11 O3_11 1_555 1_555
C4_11 C3_11 1_555 1_555
C5_11 C4_11 1_555 1_555
H3_11 C5_11 1_555 1_555
C9_11 C4_11 1_555 1_555
H6_11 C9_11 1_555 1_555
O11_6 Co6_6 1_555 1_555
N2_11 N3_11 1_555 1_555
N3_11 C2_11 1_555 1_555
O2_11 H11_11 1_555 1_555
O2_11 H12_11 1_555 1_555
Co6_5 O9_8 1_555 1_555
O2_12 Co6_5 1_555 1_555
O3_12 Co6_5 1_555 1_555
O10_8 C3_12 1_555 1_555
N4_2 C1_12 1_555 1_555
N2_12 Co6_5 1_555 1_555
N3_12 Co4_4 1_555 1_555
C1_12 N2_12 1_555 1_555
H1_12 C1_12 1_555 1_555
C2_12 N4_2 1_555 1_555
H2_12 C2_12 1_555 1_555
C3_12 O3_12 1_555 1_555
C4_12 C3_12 1_555 1_555
C5_12 C4_12 1_555 1_555
H3_12 C5_12 1_555 1_555
C9_12 C4_12 1_555 1_555
H6_12 C9_12 1_555 1_555
N2_12 N3_12 1_555 1_555
N3_12 C2_12 1_555 1_555
O2_12 H11_12 1_555 1_555
O2_12 H12_12 1_555 1_555
O11_6 C16_12 1_555 1_555
O12_7 C16_12 1_555 1_555
O7_7 C16_13 1_555 1_555
H5_11 C8_11 1_555 1_555
H6_13 C9_13 1_555 1_555
C14_11 C13_11 1_555 1_555
H9_11 C14_11 1_555 1_555
H10_11 C15_11 1_555 1_555
C16_13 C13_11 1_555 1_555
Co6_8 O7_7 1_555 1_555
C8_11 C9_13 1_555 1_555
C14_11 C15_11 1_555 1_555
Co6_7 O9_5 1_555 1_555
S1_11 O5_11 1_555 1_555
O2_13 Co6_7 1_555 1_555
O3_13 Co6_7 1_555 1_555
N4_4 C1_13 1_555 1_555
N2_13 Co6_7 1_555 1_555
N3_13 Co3_3 1_555 1_555
C1_13 N2_13 1_555 1_555
H1_13 C1_13 1_555 1_555
C2_13 N4_4 1_555 1_555
H2_13 C2_13 1_555 1_555
C3_13 O3_13 1_555 1_555
C4_13 C3_13 1_555 1_555
C5_13 C4_13 1_555 1_555
H3_13 C5_13 1_555 1_555
C6_11 C5_13 1_555 1_555
H4_11 C6_11 1_555 1_555
C7_11 S1_11 1_555 1_555
C10_11 S1_11 1_555 1_555
C11_11 C10_11 1_555 1_555
H7_11 C11_11 1_555 1_555
C12_11 C11_11 1_555 1_555
H8_11 C12_11 1_555 1_555
O11_7 Co6_7 1_555 1_555
N2_13 N3_13 1_555 1_555
N3_13 C2_13 1_555 1_555
C6_11 C7_11 1_555 1_555
O2_13 H11_13 1_555 1_555
O2_13 H12_13 1_555 1_555
N4_3 C1_14 1_555 1_555
C1_14 N2_14 1_555 1_555
H1_14 C1_14 1_555 1_555
C2_14 N4_3 1_555 1_555
H2_14 C2_14 1_555 1_555
N2_14 N3_14 1_555 1_555
N3_14 C2_14 1_555 1_555
S1_12 O5_12 1_555 1_555
O3_14 Co6_8 1_555 1_555
C3_14 O3_14 1_555 1_555
C4_14 C3_14 1_555 1_555
C5_14 C4_14 1_555 1_555
H3_14 C5_14 1_555 1_555
C6_12 C5_14 1_555 1_555
H4_12 C6_12 1_555 1_555
C7_12 S1_12 1_555 1_555
C6_12 C7_12 1_555 1_555
C11_12 C10_12 1_555 1_555
H7_12 C11_12 1_555 1_555
C12_12 C11_12 1_555 1_555
H8_12 C12_12 1_555 1_555
O2_14 H11_14 1_555 1_555
O2_14 H12_14 1_555 1_555
H5_12 C8_12 1_555 1_555
H6_14 C9_14 1_555 1_555
C8_12 C9_14 1_555 1_555
O11_7 C16_14 1_555 1_555
C14_12 C13_12 1_555 1_555
H9_12 C14_12 1_555 1_555
H10_12 C15_12 1_555 1_555
C16_14 C13_12 1_555 1_555
C14_12 C15_12 1_555 1_555
Co6_2 O9_3 1_555 1_555
S1_13 O5_13 1_555 1_555
O2_15 Co6_2 1_555 1_555
O3_15 Co6_2 1_555 1_555
O10_3 C3_15 1_555 1_555
O6_13 S1_13 1_555 1_555
N4_5 C1_15 1_555 1_555
N2_15 Co6_2 1_555 1_555
N3_15 Co3_2 1_555 1_555
C1_15 N2_15 1_555 1_555
H1_15 C1_15 1_555 1_555
C2_15 N4_5 1_555 1_555
H2_15 C2_15 1_555 1_555
C3_15 O3_15 1_555 1_555
C4_15 C3_15 1_555 1_555
C5_15 C4_15 1_555 1_555
H3_15 C5_15 1_555 1_555
C6_13 C5_15 1_555 1_555
H4_13 C6_13 1_555 1_555
C7_13 S1_13 1_555 1_555
C8_13 C7_13 1_555 1_555
H5_13 C8_13 1_555 1_555
C9_15 C4_15 1_555 1_555
H6_15 C9_15 1_555 1_555
C10_13 S1_13 1_555 1_555
C11_13 C10_13 1_555 1_555
H7_13 C11_13 1_555 1_555
C12_13 C11_13 1_555 1_555
H8_13 C12_13 1_555 1_555
C13_13 C12_13 1_555 1_555
C14_13 C13_13 1_555 1_555
H9_13 C14_13 1_555 1_555
C15_13 C10_13 1_555 1_555
H10_13 C15_13 1_555 1_555
O11_8 Co6_2 1_555 1_555
N2_15 N3_15 1_555 1_555
N3_15 C2_15 1_555 1_555
C6_13 C7_13 1_555 1_555
C8_13 C9_15 1_555 1_555
C14_13 C15_13 1_555 1_555
O2_15 H11_15 1_555 1_555
O2_15 H12_15 1_555 1_555
O7_8 C16_15 1_555 1_555
O12_4 C16_15 1_555 1_555
Co6 O7_8 1_555 1_555
Co6 O9_4 1_555 1_555
S1_14 O5_14 1_555 1_555
O2_16 Co6 1_555 1_555
O3_16 Co6 1_555 1_555
O10_4 C3_16 1_555 1_555
O6_14 S1_14 1_555 1_555
O11_8 C16_16 1_555 1_555
O12_3 C16_16 1_555 1_555
N4_6 C1_16 1_555 1_555
N2_16 Co6 1_555 1_555
N3_16 Co4_2 1_555 1_555
C1_16 N2_16 1_555 1_555
H1_16 C1_16 1_555 1_555
C2_16 N4_6 1_555 1_555
H2_16 C2_16 1_555 1_555
C3_16 O3_16 1_555 1_555
C4_16 C3_16 1_555 1_555
C5_16 C4_16 1_555 1_555
H3_16 C5_16 1_555 1_555
C6_14 C5_16 1_555 1_555
H4_14 C6_14 1_555 1_555
C7_14 S1_14 1_555 1_555
C8_14 C7_14 1_555 1_555
H5_14 C8_14 1_555 1_555
C9_16 C4_16 1_555 1_555
H6_16 C9_16 1_555 1_555
C10_14 S1_14 1_555 1_555
C11_14 C10_14 1_555 1_555
H7_14 C11_14 1_555 1_555
C12_14 C11_14 1_555 1_555
H8_14 C12_14 1_555 1_555
C13_14 C12_14 1_555 1_555
C14_14 C13_14 1_555 1_555
H9_14 C14_14 1_555 1_555
C15_14 C10_14 1_555 1_555
H10_14 C15_14 1_555 1_555
C16_16 C13_14 1_555 1_555
N2_16 N3_16 1_555 1_555
N3_16 C2_16 1_555 1_555
C6_14 C7_14 1_555 1_555
C8_14 C9_16 1_555 1_555
C14_14 C15_14 1_555 1_555
O2_16 H11_16 1_555 1_555
O2_16 H12_16 1_555 1_555
S1_15 O5_15 1_555 1_555
O6_15 S1_15 1_555 1_555
H4_15 C6_15 1_555 1_555
C7_15 S1_15 1_555 1_555
C8_15 C7_15 1_555 1_555
H5_15 C8_15 1_555 1_555
C10_15 S1_15 1_555 1_555
C11_15 C10_15 1_555 1_555
H7_15 C11_15 1_555 1_555
C12_15 C11_15 1_555 1_555
H8_15 C12_15 1_555 1_555
C13_15 C12_15 1_555 1_555
C14_15 C13_15 1_555 1_555
H9_15 C14_15 1_555 1_555
C15_15 C10_15 1_555 1_555
H10_15 C15_15 1_555 1_555
C6_15 C7_15 1_555 1_555
C14_15 C15_15 1_555 1_555
S1_16 O5_16 1_555 1_555
O6_16 S1_16 1_555 1_555
H4_16 C6_16 1_555 1_555
C7_16 S1_16 1_555 1_555
C8_16 C7_16 1_555 1_555
H5_16 C8_16 1_555 1_555
C10_16 S1_16 1_555 1_555
C11_16 C10_16 1_555 1_555
H7_16 C11_16 1_555 1_555
C12_16 C11_16 1_555 1_555
H8_16 C12_16 1_555 1_555
C13_16 C12_16 1_555 1_555
C14_16 C13_16 1_555 1_555
H9_16 C14_16 1_555 1_555
C15_16 C10_16 1_555 1_555
H10_16 C15_16 1_555 1_555
C6_16 C7_16 1_555 1_555
C14_16 C15_16 1_555 1_555

#END
