
###############################################################################
#
# This file contains modified crystal structure data generated from the
# MOF subset of the Cambridge Structural Database (CSD) v543 
# hosted by the Cambridge Crystallographic Data Centre (CCDC).
#
# This work is licensed under the Creative Commons
# Attribution-NonCommercial-ShareAlike 4.0 International License.
# To view a copy of this license, visit
# http://creativecommons.org/licenses/by-nc-sa/4.0/
# or send a letter to
# Creative Commons, PO Box 1866, Mountain View, CA 94042, USA.
#
# CIF created using the CSD Python API on 29 September 2022
# The structure has been converted into the P1 space group
# The structure has a 3D framework
# The original CSD entry VIZQEC is in the monoclinic crystal system
# The framework has been calculated to contain at least 10.0% void space
# The void calculation uses a probe of radius 1.32A, grid spacing 0.4
# H atom positions have been added when not included in the experimental data
#
###############################################################################

data_VIZQEC
_chemical_formula_moiety         '(C180 H140 Co12 N4 O84 S12)n'
_symmetry_cell_setting           triclinic
_symmetry_space_group_name_H-M   'P 1'
_symmetry_Int_Tables_number      1
_space_group_name_Hall           'P 1'
loop_
_symmetry_equiv_pos_site_id
_symmetry_equiv_pos_as_xyz
1 x,y,z
_cell_length_a                   16.654(3)
_cell_length_b                   20.426(4)
_cell_length_c                   21.802(7)
_cell_angle_alpha                90
_cell_angle_beta                 128.991(18)
_cell_angle_gamma                90
_cell_volume                     5764.43
loop_
_atom_site_label
_atom_site_type_symbol
_atom_site_fract_x
_atom_site_fract_y
_atom_site_fract_z
O12 O 0.2101(4) 0.1034(3) 0.3617(3)
O13 O 0.1611(4) 0.1329(3) 0.2444(3)
O18 O 0.0916(4) 0.0308(3) 0.4791(3)
C24 C 0.0077(6) 0.0810(4) 0.2988(5)
H14 H 0.0599 0.0780 0.3531
C25 C 0.0329(6) 0.0958(3) 0.2517(4)
C28 C 0.1446(6) 0.1121(4) 0.2881(5)
Co5 Co 0.27903(8) 0.16415(5) 0.24117(5)
Co8 Co 0.34569(8) 0.14265(5) 0.43499(5)
Co1 Co 0.72097(8) 0.66415(5) 0.25883(5)
Co2 Co 0.80623(9) 0.62366(5) 0.44693(6)
Co3 Co 0.65431(8) 0.64265(5) 0.06501(5)
S1 S 0.78063(14) 0.27742(9) 0.22914(11)
O1 O 0.8820(5) 0.5442(3) 0.4447(4)
O2 O 0.7589(5) 0.5844(3) 0.3304(3)
O3 O 0.8638(4) 0.2357(2) 0.2884(3)
O4 O 0.7570(4) 0.2838(3) 0.1537(3)
O5 O 0.3919(4) 0.1888(2) 0.2308(3)
O6 O 0.3135(4) 0.1845(3) 0.1014(3)
O7 O 0.6735(5) 0.7411(3) 0.1823(3)
O8 O 0.6560(5) 0.7388(2) 0.0730(3)
O14 O 0.8289(4) 0.7285(3) 0.3455(3)
O15 O 0.9077(4) 0.6940(3) 0.4688(3)
O16 O 0.6886(10) 0.5480(5) 0.4247(6)
O17 O 0.8666(5) 0.6247(3) 0.5632(3)
N1 N 0.9324(6) 0.6692(4) 0.6806(4)
C1 C 0.8234(7) 0.5388(4) 0.3720(6)
C2 C 0.8208(6) 0.4778(3) 0.3345(4)
C3 C 0.7505(7) 0.4688(4) 0.2538(5)
H1 H 0.7092 0.5037 0.2216
C4 C 0.7404(7) 0.4084(4) 0.2200(5)
H2 H 0.6940 0.4031 0.1656
C5 C 0.8002(6) 0.3565(3) 0.2685(4)
C6 C 0.8745(6) 0.3651(4) 0.3494(5)
H3 H 0.9168 0.3304 0.3814
C7 C 0.8848(6) 0.4260(4) 0.3822(5)
H4 H 0.9347 0.4322 0.4363
C8 C 0.6669(6) 0.2508(3) 0.2119(4)
C9 C 0.6712(6) 0.2385(4) 0.2764(4)
H5 H 0.7331 0.2423 0.3275
C10 C 0.5811(6) 0.2202(4) 0.2628(4)
H6 H 0.5830 0.2117 0.3056
C11 C 0.4889(5) 0.2141(3) 0.1877(4)
C12 C 0.4856(6) 0.2274(3) 0.1237(4)
H7 H 0.4238 0.2233 0.0726
C13 C 0.5757(6) 0.2470(4) 0.1367(4)
H8 H 0.5735 0.2574 0.0941
C14 C 0.3902(6) 0.1942(3) 0.1729(4)
C15 C 0.6659(5) 0.7677(3) 0.1282(4)
C16 C 0.6710(5) 0.8413(3) 0.1294(4)
C17 C 0.7040(7) 0.8741(4) 0.1967(4)
H9 H 0.7217 0.8502 0.2400
C18 C 0.7114(8) 0.9402(4) 0.2017(5)
H10 H 0.7335 0.9610 0.2479
C19 C 0.6863(6) 0.9767(4) 0.1386(5)
C20 C 0.6539(9) 0.9447(4) 0.0717(6)
H11 H 0.6349 0.9688 0.0282
C21 C 0.6487(9) 0.8770(4) 0.0675(5)
H12 H 0.6301 0.8559 0.0224
C29 C 0.8873(7) 0.6721(4) 0.6044(6)
H17 H 0.8703 0.7133 0.5810
C30 C 0.9492(10) 0.7277(6) 0.7252(8)
H18 H 0.8990 0.7296 0.7334
H19 H 0.9425 0.7657 0.6964
C31 C 0.9627(9) 0.6056(6) 0.7204(6)
H21 H 0.9822 0.5769 0.6969
H22 H 0.9056 0.5870 0.7150
C32 C 0.8935(6) 0.7344(4) 0.4184(5)
C33 C 0.9592(5) 0.7947(4) 0.4494(4)
C38 C 0.9516(6) 0.8403(4) 0.3980(4)
H27 H 0.9069 0.8322 0.3440
Co7 Co 0.19377(9) 0.12366(5) 0.05307(6)
O22 O 0.6081(4) 0.6888(2) 0.2692(3)
O23 O 0.6865(4) 0.6845(3) 0.3986(3)
O24 O 0.7899(4) 0.6034(3) 0.1383(3)
O25 O 0.8389(4) 0.6329(3) 0.2556(3)
O26 O 0.5252(5) 0.6014(3) 0.0291(4)
O27 O 0.6106(5) 0.6067(3) 0.1576(4)
H34 H 0.72393 0.51576 0.468553
H35 H 0.633447 0.570551 0.421768
S2 S 0.30030(18) 0.56254(10) 0.35391(17)
O1_2 O 0.1180(5) 0.0442(3) 0.0553(4)
O2_2 O 0.2411(5) 0.0844(3) 0.1696(3)
O7_2 O 0.3265(5) 0.2411(3) 0.3177(3)
O8_2 O 0.3440(5) 0.2388(2) 0.4270(3)
O9 O 0.3634(8) 0.1310(4) 0.5409(6)
O10 O 0.3122(5) 0.5838(3) 0.2962(5)
O11 O 0.3642(5) 0.5875(3) 0.4327(5)
O14_2 O 0.1711(4) 0.2285(3) 0.1545(3)
O15_2 O 0.0923(4) 0.1940(3) 0.0312(3)
O16_2 O 0.3114(10) 0.0480(5) 0.0753(6)
C1_2 C 0.1766(7) 0.0388(4) 0.1280(6)
H1_2 H 0.2908 0.0037 0.2784
C15_2 C 0.3341(5) 0.2677(3) 0.3718(4)
C16_2 C 0.3290(5) 0.3413(3) 0.3706(4)
C17_2 C 0.2960(7) 0.3741(4) 0.3033(4)
H9_2 H 0.2783 0.3502 0.2600
C18_2 C 0.2886(8) 0.4402(4) 0.2983(5)
H10_2 H 0.2665 0.4610 0.2521
C19_2 C 0.3137(6) 0.4767(4) 0.3614(5)
C20_2 C 0.3461(9) 0.4447(4) 0.4283(6)
H11_2 H 0.3651 0.4688 0.4718
C21_2 C 0.3513(9) 0.3770(4) 0.4325(5)
H12_2 H 0.3699 0.3559 0.4776
C22 C 0.1719(6) 0.5744(4) 0.3136(5)
C23 C 0.0933(7) 0.5702(4) 0.2320(5)
H13 H 0.1089 0.5603 0.1989
C26 C 0.0440(8) 0.5995(5) 0.3287(5)
H15 H 0.0275 0.6091 0.3613
C27 C 0.1446(7) 0.5893(5) 0.3605(5)
H16 H 0.1961 0.5923 0.4149
C32_2 C 0.1065(6) 0.2344(4) 0.0816(5)
C33_2 C 0.0408(5) 0.2947(4) 0.0506(4)
C38_2 C 0.0484(6) 0.3403(4) 0.1020(4)
H27_2 H 0.0931 0.3322 0.1560
O26_2 O 0.4748(5) 0.1014(3) 0.4709(4)
O27_2 O 0.3894(5) 0.1067(3) 0.3424(4)
H32 H 0.304189 0.151881 0.533794
H33 H 0.365452 0.0836534 0.552149
H34_2 H 0.27607 0.0157604 0.0314468
H35_2 H 0.366553 0.0705515 0.0782321
S1_2 S 0.21937(14) 0.77742(9) 0.27086(11)
O3_2 O 0.1362(4) 0.7357(2) 0.2116(3)
O4_2 O 0.2430(4) 0.7838(3) 0.3463(3)
C2_2 C 0.1792(6) 0.9778(3) 0.1655(4)
C3_2 C 0.2495(7) 0.9688(4) 0.2462(5)
C4_2 C 0.2596(7) 0.9084(4) 0.2800(5)
H2_2 H 0.3060 0.9031 0.3344
C5_2 C 0.1998(6) 0.8565(3) 0.2315(4)
C6_2 C 0.1255(6) 0.8651(4) 0.1506(5)
H3_2 H 0.0832 0.8304 0.1186
C7_2 C 0.1152(6) 0.9260(4) 0.1178(5)
H4_2 H 0.0653 0.9322 0.0637
C8_2 C 0.3331(6) 0.7508(3) 0.2881(4)
C9_2 C 0.3288(6) 0.7385(4) 0.2236(4)
H5_2 H 0.2669 0.7423 0.1725
C10_2 C 0.4189(6) 0.7202(4) 0.2372(4)
H6_2 H 0.4170 0.7117 0.1944
C11_2 C 0.5111(5) 0.7141(3) 0.3123(4)
C12_2 C 0.5144(6) 0.7274(3) 0.3763(4)
H7_2 H 0.5762 0.7233 0.4274
C13_2 C 0.4243(6) 0.7470(4) 0.3633(4)
H8_2 H 0.4265 0.7574 0.4059
C14_2 C 0.6098(6) 0.6942(3) 0.3271(4)
O18_2 O 0.9084(4) 0.5308(3) 0.0209(3)
C24_2 C 0.9923(6) 0.5810(4) 0.2012(5)
H14_2 H 0.9401 0.5780 0.1469
C25_2 C 0.9671(6) 0.5958(3) 0.2483(4)
C28_2 C 0.8554(6) 0.6121(4) 0.2119(5)
C37 C 0.9913(6) 0.3965(4) 0.0741(4)
H26 H 0.9967 0.4261 0.1089
H30 H 0.6439 0.4566 0.0347
C44 C 0.7356(6) 0.4710(4) 0.0053(5)
H31 H 0.7917 0.4883 0.0534
S3 S 0.85447(15) 0.01700(9) 0.45921(11)
O19 O 0.8271(5) 0.0025(3) 0.3835(3)
H20 H 0.9827 0.2735 0.2247
H23 H 0.9798 0.3887 0.2247
C34 C 0.9734(6) 0.1923(3) 0.4694(4)
H24 H 0.9676 0.2218 0.4344
C35 C 0.9153(6) 0.1355(4) 0.4415(4)
H25 H 0.8696 0.1271 0.3876
C36 C 0.9254(5) 0.0908(3) 0.4941(4)
C37_2 C 0.9913(6) 0.1035(4) 0.5741(4)
H26_2 H 0.9967 0.0739 0.6089
C39 C 0.7398(6) 0.0365(3) 0.4439(4)
C40 C 0.6550(7) 0.0593(4) 0.3703(5)
H28 H 0.6578 0.0630 0.3292
C41 C 0.5654(6) 0.0764(4) 0.3593(5)
H29 H 0.5072 0.0907 0.3102
C42 C 0.5632(6) 0.0721(3) 0.4214(4)
C43 C 0.6471(6) 0.0475(4) 0.4938(5)
H30_2 H 0.6439 0.0434 0.5347
C44_2 C 0.7356(6) 0.0290(4) 0.5053(5)
H31_2 H 0.7917 0.0117 0.5534
C45 C 0.4691(6) 0.0950(4) 0.4108(6)
S3_2 S 0.14553(15) 0.51700(9) 0.04079(11)
O19_2 O 0.1729(5) 0.5025(3) 0.1165(3)
H20_2 H 0.0173 0.7735 0.2753
H23_2 H 0.0202 0.8887 0.2753
C34_2 C 0.0266(6) 0.6923(3) 0.0306(4)
H24_2 H 0.0324 0.7218 0.0656
C35_2 C 0.0847(6) 0.6355(4) 0.0585(4)
H25_2 H 0.1304 0.6271 0.1124
C36_2 C 0.0746(5) 0.5908(3) 0.0059(4)
C39_2 C 0.2602(6) 0.5365(3) 0.0561(4)
C40_2 C 0.3450(7) 0.5593(4) 0.1297(5)
H28_2 H 0.3422 0.5630 0.1708
C41_2 C 0.4346(6) 0.5764(4) 0.1407(5)
H29_2 H 0.4928 0.5907 0.1898
C42_2 C 0.4368(6) 0.5721(3) 0.0786(4)
C43_2 C 0.3529(6) 0.5475(4) 0.0062(5)
C45_2 C 0.5309(6) 0.5950(4) 0.0892(6)
S3_3 S 0.14553(15) 0.98300(9) 0.54079(11)
O19_3 O 0.1729(5) 0.9975(3) 0.6165(3)
O20 O 0.5252(5) 0.8986(3) 0.5291(4)
O21 O 0.6106(5) 0.8933(3) 0.6576(4)
H20_3 H 0.0173 0.7265 0.7753
H23_3 H 0.0202 0.6113 0.7753
C34_3 C 0.0266(6) 0.8077(3) 0.5306(4)
H24_3 H 0.0324 0.7782 0.5656
C35_3 C 0.0847(6) 0.8645(4) 0.5585(4)
H25_3 H 0.1304 0.8729 0.6124
C36_3 C 0.0746(5) 0.9092(3) 0.5059(4)
C37_3 C 0.0087(6) 0.8965(4) 0.4259(4)
H26_3 H 0.0033 0.9261 0.3911
C39_3 C 0.2602(6) 0.9635(3) 0.5561(4)
C40_3 C 0.3450(7) 0.9407(4) 0.6297(5)
H28_3 H 0.3422 0.9370 0.6708
C41_3 C 0.4346(6) 0.9236(4) 0.6407(5)
H29_3 H 0.4928 0.9093 0.6898
C42_3 C 0.4368(6) 0.9279(3) 0.5786(4)
C43_3 C 0.3529(6) 0.9525(4) 0.5062(5)
H30_3 H 0.3561 0.9566 0.4653
C44_3 C 0.2644(6) 0.9710(4) 0.4947(5)
H31_3 H 0.2083 0.9883 0.4466
C45_3 C 0.5309(6) 0.9050(4) 0.5892(6)
Co6 Co 0.72097(8) 0.83585(5) 0.75883(5)
Co9 Co 0.65431(8) 0.85735(5) 0.56501(5)
S3_4 S 0.85447(15) 0.48300(9) 0.95921(11)
O19_4 O 0.8271(5) 0.4975(3) 0.8835(3)
O20_2 O 0.4748(5) 0.3986(3) 0.9709(4)
O21_2 O 0.3894(5) 0.3933(3) 0.8424(4)
H20_4 H 0.9827 0.2265 0.7247
H23_4 H 0.9798 0.1113 0.7247
C34_4 C 0.9734(6) 0.3077(3) 0.9694(4)
H24_4 H 0.9676 0.2782 0.9344
C35_4 C 0.9153(6) 0.3645(4) 0.9415(4)
H25_4 H 0.8696 0.3729 0.8876
C36_4 C 0.9254(5) 0.4092(3) 0.9941(4)
C39_4 C 0.7398(6) 0.4635(3) 0.9439(4)
C40_4 C 0.6550(7) 0.4407(4) 0.8703(5)
H28_4 H 0.6578 0.4370 0.8292
C41_4 C 0.5654(6) 0.4236(4) 0.8593(5)
H29_4 H 0.5072 0.4093 0.8102
C42_4 C 0.5632(6) 0.4279(3) 0.9214(4)
C43_4 C 0.6471(6) 0.4525(4) 0.9938(5)
C45_4 C 0.4691(6) 0.4050(4) 0.9108(6)
Co6_2 Co 0.27903(8) 0.33585(5) 0.74117(5)
Co9_2 Co 0.34569(8) 0.35735(5) 0.93499(5)
Co2_2 Co 0.19377(9) 0.37634(5) 0.55307(6)
S1_3 S 0.21937(14) 0.72258(9) 0.77086(11)
O1_3 O 0.1180(5) 0.4558(3) 0.5553(4)
O2_3 O 0.2411(5) 0.4156(3) 0.6696(3)
O3_3 O 0.1362(4) 0.7643(2) 0.7116(3)
O4_3 O 0.2430(4) 0.7162(3) 0.8463(3)
O5_2 O 0.6081(4) 0.8112(2) 0.7692(3)
O6_2 O 0.6865(4) 0.8155(3) 0.8986(3)
O7_3 O 0.3265(5) 0.2589(3) 0.8177(3)
O8_3 O 0.3440(5) 0.2612(2) 0.9270(3)
O14_3 O 0.1711(4) 0.2715(3) 0.6545(3)
O15_3 O 0.0923(4) 0.3060(3) 0.5312(3)
O16_3 O 0.3114(10) 0.4520(5) 0.5753(6)
O17_2 O 0.1334(5) 0.3753(3) 0.4368(3)
N1_2 N 0.0676(6) 0.3308(4) 0.3194(4)
C1_3 C 0.1766(7) 0.4612(4) 0.6280(6)
C2_3 C 0.1792(6) 0.5222(3) 0.6655(4)
C3_3 C 0.2495(7) 0.5312(4) 0.7462(5)
H1_3 H 0.2908 0.4963 0.7784
C4_3 C 0.2596(7) 0.5916(4) 0.7800(5)
H2_3 H 0.3060 0.5969 0.8344
C5_3 C 0.1998(6) 0.6435(3) 0.7315(4)
C6_3 C 0.1255(6) 0.6349(4) 0.6506(5)
H3_3 H 0.0832 0.6696 0.6186
C7_3 C 0.1152(6) 0.5740(4) 0.6178(5)
H4_3 H 0.0653 0.5678 0.5637
C8_3 C 0.3331(6) 0.7492(3) 0.7881(4)
C9_3 C 0.3288(6) 0.7615(4) 0.7236(4)
H5_3 H 0.2669 0.7577 0.6725
C10_3 C 0.4189(6) 0.7798(4) 0.7372(4)
H6_3 H 0.4170 0.7883 0.6944
C11_3 C 0.5111(5) 0.7859(3) 0.8123(4)
C12_3 C 0.5144(6) 0.7726(3) 0.8763(4)
H7_3 H 0.5762 0.7767 0.9274
C13_3 C 0.4243(6) 0.7530(4) 0.8633(4)
H8_3 H 0.4265 0.7426 0.9059
C14_3 C 0.6098(6) 0.8058(3) 0.8271(4)
C15_3 C 0.3341(5) 0.2323(3) 0.8718(4)
C16_3 C 0.3290(5) 0.1587(3) 0.8706(4)
C17_3 C 0.2960(7) 0.1259(4) 0.8033(4)
H9_3 H 0.2783 0.1498 0.7600
C18_3 C 0.2886(8) 0.0598(4) 0.7983(5)
H10_3 H 0.2665 0.0390 0.7521
C19_3 C 0.3137(6) 0.0233(4) 0.8614(5)
C20_3 C 0.3461(9) 0.0553(4) 0.9283(6)
H11_3 H 0.3651 0.0312 0.9718
C21_3 C 0.3513(9) 0.1230(4) 0.9325(5)
H12_3 H 0.3699 0.1441 0.9776
C29_2 C 0.1127(7) 0.3279(4) 0.3956(6)
H17_2 H 0.1297 0.2867 0.4190
C30_2 C 0.0508(10) 0.2723(6) 0.2748(8)
H18_2 H 0.1010 0.2704 0.2666
H19_2 H 0.0575 0.2343 0.3036
C31_2 C 0.0373(9) 0.3944(6) 0.2796(6)
H21_2 H 0.0178 0.4231 0.3031
H22_2 H 0.0944 0.4130 0.2850
C32_3 C 0.1065(6) 0.2656(4) 0.5816(5)
C33_3 C 0.0408(5) 0.2053(4) 0.5506(4)
C38_3 C 0.0484(6) 0.1597(4) 0.6020(4)
H27_3 H 0.0931 0.1678 0.6560
Co7_2 Co 0.80623(9) 0.87634(5) 0.94693(6)
O22_2 O 0.3919(4) 0.3112(2) 0.7308(3)
O23_2 O 0.3135(4) 0.3155(3) 0.6014(3)
O24_2 O 0.2101(4) 0.3966(3) 0.8617(3)
O25_2 O 0.1611(4) 0.3671(3) 0.7444(3)
H34_3 H 0.27607 0.48424 0.531447
H35_3 H 0.366553 0.429449 0.578232
O12_2 O 0.7899(4) 0.8966(3) 0.6383(3)
O13_2 O 0.8389(4) 0.8671(3) 0.7556(3)
O18_3 O 0.9084(4) 0.9692(3) 0.5209(3)
C24_3 C 0.9923(6) 0.9190(4) 0.7012(5)
H14_3 H 0.9401 0.9220 0.6469
C25_3 C 0.9671(6) 0.9042(3) 0.7483(4)
C28_3 C 0.8554(6) 0.8879(4) 0.7119(5)
O18_4 O 0.0916(4) 0.4692(3) 0.9791(3)
C24_4 C 0.0077(6) 0.4190(4) 0.7988(5)
H14_4 H 0.0599 0.4220 0.8531
C25_4 C 0.0329(6) 0.4042(3) 0.7517(4)
C28_4 C 0.1446(6) 0.3879(4) 0.7881(5)
C37_4 C 0.0087(6) 0.6035(4) 0.9259(4)
H26_4 H 0.0033 0.5739 0.8911
H30_4 H 0.3561 0.5434 0.9653
C44_4 C 0.2644(6) 0.5290(4) 0.9947(5)
H31_4 H 0.2083 0.5117 0.9466
S1_4 S 0.78063(14) 0.22258(9) 0.72914(11)
O3_4 O 0.8638(4) 0.2643(2) 0.7884(3)
O4_4 O 0.7570(4) 0.2162(3) 0.6537(3)
C2_4 C 0.8208(6) 0.0222(3) 0.8345(4)
C3_4 C 0.7505(7) 0.0312(4) 0.7538(5)
C4_4 C 0.7404(7) 0.0916(4) 0.7200(5)
H2_4 H 0.6940 0.0969 0.6656
C5_4 C 0.8002(6) 0.1435(3) 0.7685(4)
C6_4 C 0.8745(6) 0.1349(4) 0.8494(5)
H3_4 H 0.9168 0.1696 0.8814
C7_4 C 0.8848(6) 0.0740(4) 0.8822(5)
H4_4 H 0.9347 0.0678 0.9363
C8_4 C 0.6669(6) 0.2492(3) 0.7119(4)
C9_4 C 0.6712(6) 0.2615(4) 0.7764(4)
H5_4 H 0.7331 0.2577 0.8275
C10_4 C 0.5811(6) 0.2798(4) 0.7628(4)
H6_4 H 0.5830 0.2883 0.8056
C11_4 C 0.4889(5) 0.2859(3) 0.6877(4)
C12_4 C 0.4856(6) 0.2726(3) 0.6237(4)
H7_4 H 0.4238 0.2767 0.5726
C13_4 C 0.5757(6) 0.2530(4) 0.6367(4)
H8_4 H 0.5735 0.2426 0.5941
C14_4 C 0.3902(6) 0.3058(3) 0.6729(4)
S2_2 S 0.69970(18) 0.43746(10) 0.64609(17)
O1_4 O 0.8820(5) 0.9558(3) 0.9447(4)
O2_4 O 0.7589(5) 0.9156(3) 0.8304(3)
O7_4 O 0.6735(5) 0.7589(3) 0.6823(3)
O8_4 O 0.6560(5) 0.7612(2) 0.5730(3)
O9_2 O 0.6366(8) 0.8690(4) 0.4591(6)
O10_2 O 0.6878(5) 0.4162(3) 0.7038(5)
O11_2 O 0.6358(5) 0.4125(3) 0.5673(5)
O14_4 O 0.8289(4) 0.7715(3) 0.8455(3)
O15_4 O 0.9077(4) 0.8060(3) 0.9688(3)
O16_4 O 0.6886(10) 0.9520(5) 0.9247(6)
C1_4 C 0.8234(7) 0.9612(4) 0.8720(6)
H1_4 H 0.7092 0.9963 0.7216
C15_4 C 0.6659(5) 0.7323(3) 0.6282(4)
C16_4 C 0.6710(5) 0.6587(3) 0.6294(4)
C17_4 C 0.7040(7) 0.6259(4) 0.6967(4)
H9_4 H 0.7217 0.6498 0.7400
C18_4 C 0.7114(8) 0.5598(4) 0.7017(5)
H10_4 H 0.7335 0.5390 0.7479
C19_4 C 0.6863(6) 0.5233(4) 0.6386(5)
C20_4 C 0.6539(9) 0.5553(4) 0.5717(6)
H11_4 H 0.6349 0.5312 0.5282
C21_4 C 0.6487(9) 0.6230(4) 0.5675(5)
H12_4 H 0.6301 0.6441 0.5224
C22_2 C 0.8281(6) 0.4256(4) 0.6864(5)
C23_2 C 0.9067(7) 0.4298(4) 0.7680(5)
H13_2 H 0.8911 0.4397 0.8011
C26_2 C 0.9560(8) 0.4005(5) 0.6713(5)
H15_2 H 0.9725 0.3909 0.6387
C27_2 C 0.8554(7) 0.4107(5) 0.6395(5)
H16_2 H 0.8039 0.4077 0.5851
C32_4 C 0.8935(6) 0.7656(4) 0.9184(5)
C33_4 C 0.9592(5) 0.7053(4) 0.9494(4)
C38_4 C 0.9516(6) 0.6597(4) 0.8980(4)
H27_4 H 0.9069 0.6678 0.8440
H32_2 H 0.695811 0.848119 0.466206
H33_2 H 0.634548 0.916347 0.447851
H34_4 H 0.72393 0.98424 0.968553
H35_4 H 0.633447 0.929449 0.921768
S2_3 S 0.69970(18) 0.06254(10) 0.14609(17)
O10_3 O 0.6878(5) 0.0838(3) 0.2038(5)
O11_3 O 0.6358(5) 0.0875(3) 0.0673(5)
C22_3 C 0.8281(6) 0.0744(4) 0.1864(5)
C23_3 C 0.9067(7) 0.0702(4) 0.2680(5)
H13_3 H 0.8911 0.0603 0.3011
C26_3 C 0.9560(8) 0.0995(5) 0.1713(5)
H15_3 H 0.9725 0.1091 0.1387
C27_3 C 0.8554(7) 0.0893(5) 0.1395(5)
H16_3 H 0.8039 0.0923 0.0851
O9_3 O 0.6366(8) 0.6310(4) 0.9591(6)
H32_3 H 0.695811 0.651881 0.966206
H33_3 H 0.634548 0.583653 0.947851
O17_3 O 0.1334(5) 0.1247(3) 0.9368(3)
N1_3 N 0.0676(6) 0.1692(4) 0.8194(4)
C29_3 C 0.1127(7) 0.1721(4) 0.8956(6)
H17_3 H 0.1297 0.2133 0.9190
C30_3 C 0.0508(10) 0.2277(6) 0.7748(8)
H18_3 H 0.1010 0.2296 0.7666
H19_3 H 0.0575 0.2657 0.8036
C31_3 C 0.0373(9) 0.1056(6) 0.7796(6)
H21_3 H 0.0178 0.0769 0.8031
H22_3 H 0.0944 0.0870 0.7850
O9_4 O 0.3634(8) 0.3690(4) 0.0409(6)
H32_4 H 0.304189 0.348119 0.0337938
H33_4 H 0.365452 0.416347 0.0521487
S2_4 S 0.30030(18) 0.93746(10) 0.85391(17)
O10_4 O 0.3122(5) 0.9162(3) 0.7962(5)
O11_4 O 0.3642(5) 0.9125(3) 0.9327(5)
C22_4 C 0.1719(6) 0.9256(4) 0.8136(5)
C23_4 C 0.0933(7) 0.9298(4) 0.7320(5)
H13_4 H 0.1089 0.9397 0.6989
C26_4 C 0.0440(8) 0.9005(5) 0.8287(5)
H15_4 H 0.0275 0.8909 0.8613
C27_4 C 0.1446(7) 0.9107(5) 0.8605(5)
H16_4 H 0.1961 0.9077 0.9149
O17_4 O 0.8666(5) 0.8753(3) 0.0632(3)
N1_4 N 0.9324(6) 0.8308(4) 0.1806(4)
C29_4 C 0.8873(7) 0.8279(4) 0.1044(6)
H17_4 H 0.8703 0.7867 0.0810
C30_4 C 0.9492(10) 0.7723(6) 0.2252(8)
H18_4 H 0.8990 0.7704 0.2334
H19_4 H 0.9425 0.7343 0.1964
C31_4 C 0.9627(9) 0.8944(6) 0.2204(6)
H21_4 H 0.9822 0.9231 0.1969
H22_4 H 0.9056 0.9130 0.2150
loop_
_geom_bond_atom_site_label_1
_geom_bond_atom_site_label_2
_geom_bond_site_symmetry_1
_geom_bond_site_symmetry_2
O12 C28 1_555 1_555
O13 C28 1_555 1_555
H14 C24 1_555 1_555
C25 C24 1_555 1_555
C28 C25 1_555 1_555
Co5 O13 1_555 1_555
Co8 O12 1_555 1_555
Co1 O2 1_555 1_555
Co2 O1 1_555 1_555
Co3 O8 1_555 1_555
S1 O3 1_555 1_555
O1 C1 1_555 1_555
O2 Co2 1_555 1_555
O4 S1 1_555 1_555
O5 C14 1_555 1_555
O6 C14 1_555 1_555
O7 Co1 1_555 1_555
O8 C15 1_555 1_555
O14 Co1 1_555 1_555
O15 Co2 1_555 1_555
O16 Co2 1_555 1_555
O17 Co2 1_555 1_555
N1 C29 1_555 1_555
C1 O2 1_555 1_555
C2 C1 1_555 1_555
C3 C2 1_555 1_555
H1 C3 1_555 1_555
C4 C3 1_555 1_555
H2 C4 1_555 1_555
C5 S1 1_555 1_555
C6 C5 1_555 1_555
H3 C6 1_555 1_555
C7 C2 1_555 1_555
H4 C7 1_555 1_555
C8 S1 1_555 1_555
C9 C8 1_555 1_555
H5 C9 1_555 1_555
C10 C9 1_555 1_555
H6 C10 1_555 1_555
C11 C10 1_555 1_555
C12 C11 1_555 1_555
H7 C12 1_555 1_555
C13 C8 1_555 1_555
H8 C13 1_555 1_555
C14 C11 1_555 1_555
C15 O7 1_555 1_555
C16 C15 1_555 1_555
C17 C16 1_555 1_555
H9 C17 1_555 1_555
C18 C17 1_555 1_555
H10 C18 1_555 1_555
C20 C19 1_555 1_555
H11 C20 1_555 1_555
C21 C16 1_555 1_555
H12 C21 1_555 1_555
C29 O17 1_555 1_555
H17 C29 1_555 1_555
C30 N1 1_555 1_555
H18 C30 1_555 1_555
H19 C30 1_555 1_555
C31 N1 1_555 1_555
H21 C31 1_555 1_555
H22 C31 1_555 1_555
C32 O14 1_555 1_555
C33 C32 1_555 1_555
C38 C33 1_555 1_555
H27 C38 1_555 1_555
Co5 O5 1_555 1_555
Co7 O6 1_555 1_555
O22 Co1 1_555 1_555
O23 Co2 1_555 1_555
O24 Co3 1_555 1_555
O25 Co1 1_555 1_555
O26 Co3 1_555 1_555
O27 Co1 1_555 1_555
O15 C32 1_555 1_555
C4 C5 1_555 1_555
C6 C7 1_555 1_555
C12 C13 1_555 1_555
C18 C19 1_555 1_555
C20 C21 1_555 1_555
O16 H34 1_555 1_555
O16 H35 1_555 1_555
Co5 O2_2 1_555 1_555
Co7 O1_2 1_555 1_555
Co8 O8_2 1_555 1_555
S2 O10 1_555 1_555
O1_2 C1_2 1_555 1_555
O2_2 Co7 1_555 1_555
O7_2 Co5 1_555 1_555
O8_2 C15_2 1_555 1_555
O9 Co8 1_555 1_555
O11 S2 1_555 1_555
O14_2 Co5 1_555 1_555
O15_2 Co7 1_555 1_555
O16_2 Co7 1_555 1_555
C1_2 O2_2 1_555 1_555
C15_2 O7_2 1_555 1_555
C16_2 C15_2 1_555 1_555
C17_2 C16_2 1_555 1_555
H9_2 C17_2 1_555 1_555
C18_2 C17_2 1_555 1_555
H10_2 C18_2 1_555 1_555
C19_2 S2 1_555 1_555
C20_2 C19_2 1_555 1_555
H11_2 C20_2 1_555 1_555
C21_2 C16_2 1_555 1_555
H12_2 C21_2 1_555 1_555
C22 S2 1_555 1_555
C23 C22 1_555 1_555
H13 C23 1_555 1_555
H15 C26 1_555 1_555
C27 C22 1_555 1_555
H16 C27 1_555 1_555
C32_2 O14_2 1_555 1_555
C33_2 C32_2 1_555 1_555
C38_2 C33_2 1_555 1_555
H27_2 C38_2 1_555 1_555
O26_2 Co8 1_555 1_555
O27_2 Co5 1_555 1_555
O15_2 C32_2 1_555 1_555
C18_2 C19_2 1_555 1_555
C20_2 C21_2 1_555 1_555
C26 C27 1_555 1_555
O9 H32 1_555 1_555
O9 H33 1_555 1_555
O16_2 H34_2 1_555 1_555
O16_2 H35_2 1_555 1_555
S1_2 O3_2 1_555 1_555
O4_2 S1_2 1_555 1_555
O22 C14_2 1_555 1_555
O23 C14_2 1_555 1_555
C3_2 C2_2 1_555 1_555
C4_2 C3_2 1_555 1_555
H2_2 C4_2 1_555 1_555
C5_2 S1_2 1_555 1_555
C6_2 C5_2 1_555 1_555
H3_2 C6_2 1_555 1_555
C7_2 C2_2 1_555 1_555
H4_2 C7_2 1_555 1_555
C8_2 S1_2 1_555 1_555
C9_2 C8_2 1_555 1_555
H5_2 C9_2 1_555 1_555
C10_2 C9_2 1_555 1_555
H6_2 C10_2 1_555 1_555
C11_2 C10_2 1_555 1_555
C12_2 C11_2 1_555 1_555
H7_2 C12_2 1_555 1_555
C13_2 C8_2 1_555 1_555
H8_2 C13_2 1_555 1_555
C14_2 C11_2 1_555 1_555
C4_2 C5_2 1_555 1_555
C6_2 C7_2 1_555 1_555
C12_2 C13_2 1_555 1_555
O24 C28_2 1_555 1_555
O25 C28_2 1_555 1_555
H14_2 C24_2 1_555 1_555
C25_2 C24_2 1_555 1_555
C28_2 C25_2 1_555 1_555
H26 C37 1_555 1_555
H31 C44 1_555 1_555
O19 S3 1_555 1_555
O26_2 C45 1_555 1_555
O27_2 C45 1_555 1_555
H24 C34 1_555 1_555
C35 C34 1_555 1_555
H25 C35 1_555 1_555
C36 S3 1_555 1_555
C37_2 C36 1_555 1_555
H26_2 C37_2 1_555 1_555
C39 S3 1_555 1_555
C40 C39 1_555 1_555
H28 C40 1_555 1_555
C41 C40 1_555 1_555
H29 C41 1_555 1_555
C42 C41 1_555 1_555
C43 C42 1_555 1_555
H30_2 C43 1_555 1_555
C44_2 C39 1_555 1_555
H31_2 C44_2 1_555 1_555
C45 C42 1_555 1_555
C35 C36 1_555 1_555
C43 C44_2 1_555 1_555
O19_2 S3_2 1_555 1_555
O26 C45_2 1_555 1_555
O27 C45_2 1_555 1_555
H24_2 C34_2 1_555 1_555
C35_2 C34_2 1_555 1_555
H25_2 C35_2 1_555 1_555
C36_2 S3_2 1_555 1_555
C39_2 S3_2 1_555 1_555
C40_2 C39_2 1_555 1_555
H28_2 C40_2 1_555 1_555
C41_2 C40_2 1_555 1_555
H29_2 C41_2 1_555 1_555
C42_2 C41_2 1_555 1_555
C43_2 C42_2 1_555 1_555
C45_2 C42_2 1_555 1_555
C35_2 C36_2 1_555 1_555
O19_3 S3_3 1_555 1_555
O20 C45_3 1_555 1_555
O21 C45_3 1_555 1_555
H24_3 C34_3 1_555 1_555
C35_3 C34_3 1_555 1_555
H25_3 C35_3 1_555 1_555
C36_3 S3_3 1_555 1_555
C37_3 C36_3 1_555 1_555
H26_3 C37_3 1_555 1_555
C39_3 S3_3 1_555 1_555
C40_3 C39_3 1_555 1_555
H28_3 C40_3 1_555 1_555
C41_3 C40_3 1_555 1_555
H29_3 C41_3 1_555 1_555
C42_3 C41_3 1_555 1_555
C43_3 C42_3 1_555 1_555
H30_3 C43_3 1_555 1_555
C44_3 C39_3 1_555 1_555
H31_3 C44_3 1_555 1_555
C45_3 C42_3 1_555 1_555
Co6 O21 1_555 1_555
Co9 O20 1_555 1_555
C35_3 C36_3 1_555 1_555
C43_3 C44_3 1_555 1_555
O19_4 S3_4 1_555 1_555
O20_2 C45_4 1_555 1_555
O21_2 C45_4 1_555 1_555
H24_4 C34_4 1_555 1_555
C35_4 C34_4 1_555 1_555
H25_4 C35_4 1_555 1_555
C36_4 S3_4 1_555 1_555
C39_4 S3_4 1_555 1_555
C40_4 C39_4 1_555 1_555
H28_4 C40_4 1_555 1_555
C41_4 C40_4 1_555 1_555
H29_4 C41_4 1_555 1_555
C42_4 C41_4 1_555 1_555
C43_4 C42_4 1_555 1_555
C45_4 C42_4 1_555 1_555
Co6_2 O21_2 1_555 1_555
Co9_2 O20_2 1_555 1_555
C35_4 C36_4 1_555 1_555
Co6_2 O2_3 1_555 1_555
Co2_2 O1_3 1_555 1_555
Co9_2 O8_3 1_555 1_555
S1_3 O3_3 1_555 1_555
O1_3 C1_3 1_555 1_555
O2_3 Co2_2 1_555 1_555
O4_3 S1_3 1_555 1_555
O5_2 C14_3 1_555 1_555
O6_2 C14_3 1_555 1_555
O7_3 Co6_2 1_555 1_555
O8_3 C15_3 1_555 1_555
O14_3 Co6_2 1_555 1_555
O15_3 Co2_2 1_555 1_555
O16_3 Co2_2 1_555 1_555
O17_2 Co2_2 1_555 1_555
N1_2 C29_2 1_555 1_555
C1_3 O2_3 1_555 1_555
C2_3 C1_3 1_555 1_555
C3_3 C2_3 1_555 1_555
H1_3 C3_3 1_555 1_555
C4_3 C3_3 1_555 1_555
H2_3 C4_3 1_555 1_555
C5_3 S1_3 1_555 1_555
C6_3 C5_3 1_555 1_555
H3_3 C6_3 1_555 1_555
C7_3 C2_3 1_555 1_555
H4_3 C7_3 1_555 1_555
C8_3 S1_3 1_555 1_555
C9_3 C8_3 1_555 1_555
H5_3 C9_3 1_555 1_555
C10_3 C9_3 1_555 1_555
H6_3 C10_3 1_555 1_555
C11_3 C10_3 1_555 1_555
C12_3 C11_3 1_555 1_555
H7_3 C12_3 1_555 1_555
C13_3 C8_3 1_555 1_555
H8_3 C13_3 1_555 1_555
C14_3 C11_3 1_555 1_555
C15_3 O7_3 1_555 1_555
C16_3 C15_3 1_555 1_555
C17_3 C16_3 1_555 1_555
H9_3 C17_3 1_555 1_555
C18_3 C17_3 1_555 1_555
H10_3 C18_3 1_555 1_555
C20_3 C19_3 1_555 1_555
H11_3 C20_3 1_555 1_555
C21_3 C16_3 1_555 1_555
H12_3 C21_3 1_555 1_555
C29_2 O17_2 1_555 1_555
H17_2 C29_2 1_555 1_555
C30_2 N1_2 1_555 1_555
H18_2 C30_2 1_555 1_555
H19_2 C30_2 1_555 1_555
C31_2 N1_2 1_555 1_555
H21_2 C31_2 1_555 1_555
H22_2 C31_2 1_555 1_555
C32_3 O14_3 1_555 1_555
C33_3 C32_3 1_555 1_555
C38_3 C33_3 1_555 1_555
H27_3 C38_3 1_555 1_555
Co6 O5_2 1_555 1_555
Co7_2 O6_2 1_555 1_555
O22_2 Co6_2 1_555 1_555
O23_2 Co2_2 1_555 1_555
O24_2 Co9_2 1_555 1_555
O25_2 Co6_2 1_555 1_555
O15_3 C32_3 1_555 1_555
C4_3 C5_3 1_555 1_555
C6_3 C7_3 1_555 1_555
C12_3 C13_3 1_555 1_555
C18_3 C19_3 1_555 1_555
C20_3 C21_3 1_555 1_555
O16_3 H34_3 1_555 1_555
O16_3 H35_3 1_555 1_555
O12_2 C28_3 1_555 1_555
O13_2 C28_3 1_555 1_555
H14_3 C24_3 1_555 1_555
C25_3 C24_3 1_555 1_555
C28_3 C25_3 1_555 1_555
Co6 O13_2 1_555 1_555
Co9 O12_2 1_555 1_555
O24_2 C28_4 1_555 1_555
O25_2 C28_4 1_555 1_555
H14_4 C24_4 1_555 1_555
C25_4 C24_4 1_555 1_555
C28_4 C25_4 1_555 1_555
H26_4 C37_4 1_555 1_555
H31_4 C44_4 1_555 1_555
S1_4 O3_4 1_555 1_555
O4_4 S1_4 1_555 1_555
O22_2 C14_4 1_555 1_555
O23_2 C14_4 1_555 1_555
C3_4 C2_4 1_555 1_555
C4_4 C3_4 1_555 1_555
H2_4 C4_4 1_555 1_555
C5_4 S1_4 1_555 1_555
C6_4 C5_4 1_555 1_555
H3_4 C6_4 1_555 1_555
C7_4 C2_4 1_555 1_555
H4_4 C7_4 1_555 1_555
C8_4 S1_4 1_555 1_555
C9_4 C8_4 1_555 1_555
H5_4 C9_4 1_555 1_555
C10_4 C9_4 1_555 1_555
H6_4 C10_4 1_555 1_555
C11_4 C10_4 1_555 1_555
C12_4 C11_4 1_555 1_555
H7_4 C12_4 1_555 1_555
C13_4 C8_4 1_555 1_555
H8_4 C13_4 1_555 1_555
C14_4 C11_4 1_555 1_555
C4_4 C5_4 1_555 1_555
C6_4 C7_4 1_555 1_555
C12_4 C13_4 1_555 1_555
Co6 O2_4 1_555 1_555
Co7_2 O1_4 1_555 1_555
Co9 O8_4 1_555 1_555
S2_2 O10_2 1_555 1_555
O1_4 C1_4 1_555 1_555
O2_4 Co7_2 1_555 1_555
O7_4 Co6 1_555 1_555
O8_4 C15_4 1_555 1_555
O9_2 Co9 1_555 1_555
O11_2 S2_2 1_555 1_555
O14_4 Co6 1_555 1_555
O15_4 Co7_2 1_555 1_555
O16_4 Co7_2 1_555 1_555
C1_4 O2_4 1_555 1_555
C15_4 O7_4 1_555 1_555
C16_4 C15_4 1_555 1_555
C17_4 C16_4 1_555 1_555
H9_4 C17_4 1_555 1_555
C18_4 C17_4 1_555 1_555
H10_4 C18_4 1_555 1_555
C19_4 S2_2 1_555 1_555
C20_4 C19_4 1_555 1_555
H11_4 C20_4 1_555 1_555
C21_4 C16_4 1_555 1_555
H12_4 C21_4 1_555 1_555
C22_2 S2_2 1_555 1_555
C23_2 C22_2 1_555 1_555
H13_2 C23_2 1_555 1_555
H15_2 C26_2 1_555 1_555
C27_2 C22_2 1_555 1_555
H16_2 C27_2 1_555 1_555
C32_4 O14_4 1_555 1_555
C33_4 C32_4 1_555 1_555
C38_4 C33_4 1_555 1_555
H27_4 C38_4 1_555 1_555
O15_4 C32_4 1_555 1_555
C18_4 C19_4 1_555 1_555
C20_4 C21_4 1_555 1_555
C26_2 C27_2 1_555 1_555
O9_2 H32_2 1_555 1_555
O9_2 H33_2 1_555 1_555
O16_4 H34_4 1_555 1_555
O16_4 H35_4 1_555 1_555
S2_3 O10_3 1_555 1_555
O11_3 S2_3 1_555 1_555
C22_3 S2_3 1_555 1_555
C23_3 C22_3 1_555 1_555
H13_3 C23_3 1_555 1_555
H15_3 C26_3 1_555 1_555
C27_3 C22_3 1_555 1_555
H16_3 C27_3 1_555 1_555
C26_3 C27_3 1_555 1_555
O9_3 H32_3 1_555 1_555
O9_3 H33_3 1_555 1_555
N1_3 C29_3 1_555 1_555
C29_3 O17_3 1_555 1_555
H17_3 C29_3 1_555 1_555
C30_3 N1_3 1_555 1_555
H18_3 C30_3 1_555 1_555
H19_3 C30_3 1_555 1_555
C31_3 N1_3 1_555 1_555
H21_3 C31_3 1_555 1_555
H22_3 C31_3 1_555 1_555
O9_4 H32_4 1_555 1_555
O9_4 H33_4 1_555 1_555
S2_4 O10_4 1_555 1_555
O11_4 S2_4 1_555 1_555
C22_4 S2_4 1_555 1_555
C23_4 C22_4 1_555 1_555
H13_4 C23_4 1_555 1_555
H15_4 C26_4 1_555 1_555
C27_4 C22_4 1_555 1_555
H16_4 C27_4 1_555 1_555
C26_4 C27_4 1_555 1_555
N1_4 C29_4 1_555 1_555
C29_4 O17_4 1_555 1_555
H17_4 C29_4 1_555 1_555
C30_4 N1_4 1_555 1_555
H18_4 C30_4 1_555 1_555
H19_4 C30_4 1_555 1_555
C31_4 N1_4 1_555 1_555
H21_4 C31_4 1_555 1_555
H22_4 C31_4 1_555 1_555

#END
