
###############################################################################
#
# This file contains modified crystal structure data generated from the
# MOF subset of the Cambridge Structural Database (CSD) v543 
# hosted by the Cambridge Crystallographic Data Centre (CCDC).
#
# This work is licensed under the Creative Commons
# Attribution-NonCommercial-ShareAlike 4.0 International License.
# To view a copy of this license, visit
# http://creativecommons.org/licenses/by-nc-sa/4.0/
# or send a letter to
# Creative Commons, PO Box 1866, Mountain View, CA 94042, USA.
#
# CIF created using the CSD Python API on 29 September 2022
# The structure has been converted into the P1 space group
# The structure has a 3D framework
# The original CSD entry VIZQOM is in the tetragonal crystal system
# The framework has been calculated to contain at least 10.0% void space
# The void calculation uses a probe of radius 1.32A, grid spacing 0.4
# H atom positions have been added when not included in the experimental data
#
###############################################################################

data_VIZQOM
_chemical_formula_moiety         '(C256 H208 Co32 N64 O124 S16)n'
_symmetry_cell_setting           triclinic
_symmetry_space_group_name_H-M   'P 1'
_symmetry_Int_Tables_number      1
_space_group_name_Hall           'P 1'
loop_
_symmetry_equiv_pos_site_id
_symmetry_equiv_pos_as_xyz
1 x,y,z
_cell_length_a                   25.370(10)
_cell_length_b                   25.370(10)
_cell_length_c                   15.204(3)
_cell_angle_alpha                90
_cell_angle_beta                 90
_cell_angle_gamma                90
_cell_volume                     9785.86
loop_
_atom_site_label
_atom_site_type_symbol
_atom_site_fract_x
_atom_site_fract_y
_atom_site_fract_z
Co1 Co 0.43655(5) 0.09547(5) 0.44319(9)
O1 O 0.3611(3) 0.0643(3) 0.4561(5)
O2 O 0.4643(2) 0.0354(2) 0.5262(4)
O3 O 0.4199(3) 0.1414(3) 0.5644(5)
N1 N 0.5145(3) 0.1186(3) 0.4254(5)
O4 O 0.4415(3) 0.0547(3) 0.3187(5)
N2 N 0.4004(3) 0.1568(3) 0.3753(5)
C1 C 0.3435(4) 0.0177(4) 0.4426(7)
N3 N 0.5558(3) 0.0967(3) 0.4747(6)
C2 C 0.5399(4) 0.1492(4) 0.3674(7)
C3 C 0.2842(4) 0.0154(4) 0.4300(6)
C4 C 0.6006(4) 0.1175(4) 0.4461(7)
N4 N 0.5137(3) 0.1782(4) 0.3024(7)
C5 C 0.2542(4) 0.0613(4) 0.4284(7)
H1 H 0.6332 0.1107 0.4713
H2 H 0.4800 0.1768 0.2985
H3 H 0.5314 0.1974 0.2664
C7 C 0.2001(4) 0.0587(4) 0.4176(7)
H4 H 0.2706 0.0938 0.4346
C9 C 0.1754(4) 0.0111(5) 0.4092(7)
H6 H 0.1804 0.0896 0.4160
S1 S 0.10511(10) 0.00771(14) 0.3976(2)
O7 O 0.0868(3) 0.0570(4) 0.3611(6)
C10 C 0.0829(4) 0.0018(5) 0.5074(7)
C12 C 0.0738(5) 0.0461(5) 0.5534(8)
H9 H 0.0758 0.0788 0.5258
C14 C 0.0609(5) 0.0429(5) 0.6443(8)
H11 H 0.0551 0.0732 0.6773
Co3 Co 0.54910(5) 0.02999(5) 0.54589(9)
N6 N 0.5932(3) 0.1504(3) 0.3747(5)
Co4 Co 0.65453(5) 0.18655(5) 0.30681(9)
O10 O 0.0369(3) 0.0317(3) 0.8240(5)
Co5 Co 0.04910(5) 0.02999(5) 0.95411(9)
H12 H 0.412285 0.116838 0.613638
H13 H 0.451044 0.163337 0.579403
Co2 Co 0.45090(5) 0.97001(5) 0.45411(9)
O5 O 0.3696(3) 0.9767(3) 0.4405(5)
O6 O 0.4631(3) 0.9683(3) 0.3240(5)
C6 C 0.2594(4) 0.9662(4) 0.4242(9)
H5 H 0.2788 0.9352 0.4272
C8 C 0.2037(4) 0.9649(4) 0.4134(8)
H7 H 0.1863 0.9327 0.4093
O8 O 0.0926(3) 0.9604(4) 0.3530(6)
C11 C 0.0776(5) 0.9521(5) 0.5449(8)
C13 C 0.0654(5) 0.9494(4) 0.6324(8)
H8 H 0.0822 0.9217 0.5116
C15 C 0.0571(4) 0.9937(4) 0.6826(7)
H10 H 0.0625 0.9165 0.6588
C16 C 0.0501(4) 0.9879(5) 0.7822(7)
O9 O 0.5357(2) 0.9646(2) 0.4738(4)
N5 N 0.4442(3) 0.9033(3) 0.5253(6)
O11 O 0.0585(3) 0.9453(3) 0.8187(5)
Co6 Co 0.06345(5) 0.90453(5) 0.94319(9)
C16_2 C 0.7621(5) 0.3001(4) 0.0322(7)
O10_2 O 0.7183(3) 0.2869(3) 0.0740(5)
O11_2 O 0.8047(3) 0.3085(3) 0.0687(5)
Co5_2 Co 0.72001(5) 0.29910(5) 0.20411(9)
Co6_2 Co 0.84547(5) 0.31345(5) 0.19319(9)
Co1_2 Co 0.65453(5) 0.68655(5) 0.69319(9)
O1_2 O 0.6857(3) 0.6111(3) 0.7061(5)
O2_2 O 0.7146(2) 0.7143(2) 0.7762(4)
O3_2 O 0.6086(3) 0.6699(3) 0.8144(5)
N1_2 N 0.6314(3) 0.7645(3) 0.6754(5)
O4_2 O 0.6953(3) 0.6915(3) 0.5687(5)
N2_2 N 0.5932(3) 0.6504(3) 0.6253(5)
C1_2 C 0.7323(4) 0.5935(4) 0.6926(7)
Co2_2 Co 0.77999(5) 0.70090(5) 0.70411(9)
N3_2 N 0.6533(3) 0.8058(3) 0.7247(6)
C2_2 C 0.6008(4) 0.7899(4) 0.6174(7)
O5_2 O 0.7733(3) 0.6196(3) 0.6905(5)
C3_2 C 0.7346(4) 0.5342(4) 0.6800(6)
O6_2 O 0.7817(3) 0.7131(3) 0.5740(5)
C4_2 C 0.6325(4) 0.8506(4) 0.6961(7)
N4_2 N 0.5718(4) 0.7637(3) 0.5524(7)
C5_2 C 0.6887(4) 0.5042(4) 0.6784(7)
C6_2 C 0.7838(4) 0.5094(4) 0.6742(9)
H1_2 H 0.6393 0.8832 0.7213
H2_2 H 0.5732 0.7300 0.5485
H3_2 H 0.5526 0.7814 0.5164
C7_2 C 0.6913(4) 0.4501(4) 0.6676(7)
H4_2 H 0.6562 0.5206 0.6846
H5_2 H 0.8148 0.5288 0.6772
C8_2 C 0.7851(4) 0.4537(4) 0.6634(8)
C9_2 C 0.7389(5) 0.4254(4) 0.6592(7)
H6_2 H 0.6604 0.4304 0.6660
H7_2 H 0.8173 0.4363 0.6593
S1_2 S 0.74229(14) 0.35511(10) 0.6476(2)
O7_2 O 0.6930(4) 0.3368(3) 0.6111(6)
O8_2 O 0.7896(4) 0.3426(3) 0.6030(6)
C10_2 C 0.7482(5) 0.3329(4) 0.7574(7)
C11_2 C 0.7979(5) 0.3276(5) 0.7949(8)
C12_2 C 0.7039(5) 0.3238(5) 0.8034(8)
C13_2 C 0.8006(4) 0.3154(5) 0.8824(8)
H8_2 H 0.8283 0.3322 0.7616
H9_2 H 0.6712 0.3258 0.7758
C14_2 C 0.7071(5) 0.3109(5) 0.8943(8)
C15_2 C 0.7563(4) 0.3071(4) 0.9326(7)
H10_2 H 0.8335 0.3125 0.9088
H11_2 H 0.6768 0.3051 0.9273
Co3_2 Co 0.72001(5) 0.79910(5) 0.79589(9)
O9_2 O 0.7854(2) 0.7857(2) 0.7238(4)
N5_2 N 0.8467(3) 0.6942(3) 0.7753(6)
N6_2 N 0.5996(3) 0.8432(3) 0.6247(5)
Co4_2 Co 0.56345(5) 0.90453(5) 0.55681(9)
H12_2 H 0.633162 0.662285 0.863638
H13_2 H 0.586663 0.701044 0.829403
C11_3 C 0.4224(5) 0.0479(5) 0.0449(8)
C13_3 C 0.4346(5) 0.0506(4) 0.1324(8)
H8_3 H 0.4178 0.0783 0.0116
C15_3 C 0.4429(4) 0.0063(4) 0.1826(7)
H10_3 H 0.4375 0.0835 0.1588
C16_3 C 0.4499(4) 0.0121(5) 0.2822(7)
N5_3 N 0.0558(3) 0.0967(3) 0.0253(6)
O5_3 O 0.1304(3) 0.0233(3) 0.9405(5)
C6_3 C 0.2406(4) 0.0338(4) 0.9242(9)
H5_3 H 0.2212 0.0648 0.9272
C8_3 C 0.2963(4) 0.0351(4) 0.9134(8)
H7_3 H 0.3137 0.0673 0.9093
O8_3 O 0.4074(3) 0.0396(4) 0.8530(6)
O2_3 O 0.0357(2) 0.9646(2) 0.0262(4)
O3_3 O 0.0801(3) 0.8586(3) 0.0644(5)
C10_3 C 0.4171(4) 0.9982(5) 0.0074(7)
C12_3 C 0.4262(5) 0.9539(5) 0.0534(8)
H9_3 H 0.4242 0.9212 0.0258
C14_3 C 0.4391(5) 0.9571(5) 0.1443(8)
H11_3 H 0.4449 0.9268 0.1773
H12_3 H 0.0877148 0.883162 0.113638
H13_3 H 0.0489565 0.836663 0.0794026
O1_3 O 0.1389(3) 0.9357(3) 0.9561(5)
N2_3 N 0.0996(3) 0.8432(3) 0.8753(5)
C1_3 C 0.1565(4) 0.9823(4) 0.9426(7)
C3_3 C 0.2158(4) 0.9846(4) 0.9300(6)
C5_3 C 0.2458(4) 0.9387(4) 0.9284(7)
H2_3 H 0.0200 0.8232 0.7985
C7_3 C 0.2999(4) 0.9413(4) 0.9176(7)
H4_3 H 0.2294 0.9062 0.9346
C9_3 C 0.3246(4) 0.9889(5) 0.9092(7)
H6_3 H 0.3196 0.9104 0.9160
S1_3 S 0.39489(10) 0.99229(14) 0.8976(2)
O7_3 O 0.4132(3) 0.9430(4) 0.8611(6)
O9_3 O 0.9643(2) 0.0354(2) 0.9738(4)
Co3_3 Co 0.95090(5) 0.97001(5) 0.04589(9)
N1_3 N 0.9855(3) 0.8814(3) 0.9254(5)
N3_3 N 0.9442(3) 0.9033(3) 0.9747(6)
C2_3 C 0.9601(4) 0.8508(4) 0.8674(7)
C4_3 C 0.8994(4) 0.8825(4) 0.9461(7)
N4_3 N 0.9863(3) 0.8218(4) 0.8024(7)
H1_3 H 0.8668 0.8893 0.9713
H3_3 H 0.9686 0.8026 0.7664
N6_3 N 0.9068(3) 0.8496(3) 0.8747(5)
Co4_3 Co 0.84547(5) 0.81345(5) 0.80681(9)
O1_4 O 0.8143(3) 0.3889(3) 0.2061(5)
O2_4 O 0.7854(2) 0.2857(2) 0.2762(4)
O3_4 O 0.8914(3) 0.3301(3) 0.3144(5)
N1_4 N 0.8686(3) 0.2355(3) 0.1754(5)
N2_4 N 0.9068(3) 0.3496(3) 0.1253(5)
C1_4 C 0.7677(4) 0.4065(4) 0.1926(7)
N3_4 N 0.8467(3) 0.1942(3) 0.2247(6)
C2_4 C 0.8992(4) 0.2101(4) 0.1174(7)
O5_4 O 0.7267(3) 0.3804(3) 0.1905(5)
C3_4 C 0.7654(4) 0.4658(4) 0.1800(6)
C4_4 C 0.8675(4) 0.1494(4) 0.1961(7)
N4_4 N 0.9282(4) 0.2363(3) 0.0524(7)
C5_4 C 0.8113(4) 0.4958(4) 0.1784(7)
C6_4 C 0.7162(4) 0.4906(4) 0.1742(9)
H1_4 H 0.8607 0.1168 0.2213
H2_4 H 0.9268 0.2700 0.0485
H3_4 H 0.9474 0.2186 0.0164
C7_4 C 0.8087(4) 0.5499(4) 0.1676(7)
H4_4 H 0.8438 0.4794 0.1846
H5_4 H 0.6852 0.4712 0.1772
C8_4 C 0.7149(4) 0.5463(4) 0.1634(8)
C9_4 C 0.7611(5) 0.5746(4) 0.1592(7)
H6_4 H 0.8396 0.5696 0.1660
H7_4 H 0.6827 0.5637 0.1593
S1_4 S 0.75771(14) 0.64489(10) 0.1476(2)
O7_4 O 0.8070(4) 0.6632(3) 0.1111(6)
O8_4 O 0.7104(4) 0.6574(3) 0.1030(6)
C10_4 C 0.7518(5) 0.6671(4) 0.2574(7)
C11_4 C 0.7021(5) 0.6724(5) 0.2949(8)
C12_4 C 0.7961(5) 0.6762(5) 0.3034(8)
C13_4 C 0.6994(4) 0.6846(5) 0.3824(8)
H8_4 H 0.6717 0.6678 0.2616
H9_4 H 0.8288 0.6742 0.2758
C14_4 C 0.7929(5) 0.6891(5) 0.3943(8)
C15_4 C 0.7437(4) 0.6929(4) 0.4326(7)
H10_4 H 0.6665 0.6875 0.4088
H11_4 H 0.8232 0.6949 0.4273
C16_4 C 0.7379(5) 0.6999(4) 0.5322(7)
Co3_4 Co 0.77999(5) 0.20090(5) 0.29589(9)
O9_4 O 0.7146(2) 0.2143(2) 0.2238(4)
N5_4 N 0.6533(3) 0.3058(3) 0.2753(6)
N6_4 N 0.9004(3) 0.1568(3) 0.1247(5)
Co4_4 Co 0.93655(5) 0.09547(5) 0.05681(9)
H12_4 H 0.866838 0.337715 0.363638
H13_4 H 0.913337 0.298956 0.329403
Co3_5 Co 0.04910(5) 0.52999(5) 0.04589(9)
N1_5 N 0.0145(3) 0.6186(3) 0.9254(5)
N3_5 N 0.0558(3) 0.5967(3) 0.9747(6)
C2_5 C 0.0399(4) 0.6492(4) 0.8674(7)
C4_5 C 0.1006(4) 0.6175(4) 0.9461(7)
N4_5 N 0.0137(3) 0.6782(4) 0.8024(7)
H1_5 H 0.1332 0.6107 0.9713
H3_5 H 0.0314 0.6974 0.7664
O9_5 O 0.0357(2) 0.4646(2) 0.9738(4)
N6_5 N 0.0932(3) 0.6504(3) 0.8747(5)
Co4_5 Co 0.15453(5) 0.68655(5) 0.80681(9)
O2_5 O 0.9643(2) 0.5354(2) 0.0262(4)
O3_5 O 0.9199(3) 0.6414(3) 0.0644(5)
C10_5 C 0.5829(4) 0.5018(5) 0.0074(7)
C11_5 C 0.5776(5) 0.4521(5) 0.0449(8)
C12_5 C 0.5738(5) 0.5461(5) 0.0534(8)
C13_5 C 0.5654(5) 0.4494(4) 0.1324(8)
H8_5 H 0.5822 0.4217 0.0116
H9_5 H 0.5758 0.5788 0.0258
C14_5 C 0.5609(5) 0.5429(5) 0.1443(8)
C15_5 C 0.5571(4) 0.4937(4) 0.1826(7)
H10_5 H 0.5625 0.4165 0.1588
H11_5 H 0.5551 0.5732 0.1773
C16_5 C 0.5501(4) 0.4879(5) 0.2822(7)
N5_5 N 0.9442(3) 0.4033(3) 0.0253(6)
O10_3 O 0.5369(3) 0.5317(3) 0.3240(5)
O11_3 O 0.5585(3) 0.4453(3) 0.3187(5)
Co5_3 Co 0.54910(5) 0.52999(5) 0.45411(9)
Co6_3 Co 0.56345(5) 0.40453(5) 0.44319(9)
H12_5 H 0.912285 0.616838 0.113638
H13_5 H 0.951044 0.663337 0.0794026
Co1_3 Co 0.93655(5) 0.59547(5) 0.94319(9)
O1_5 O 0.8611(3) 0.5643(3) 0.9561(5)
O4_3 O 0.9415(3) 0.5547(3) 0.8187(5)
N2_5 N 0.9004(3) 0.6568(3) 0.8753(5)
C1_5 C 0.8435(4) 0.5177(4) 0.9426(7)
Co2_3 Co 0.95090(5) 0.47001(5) 0.95411(9)
O5_5 O 0.8696(3) 0.4767(3) 0.9405(5)
C3_5 C 0.7842(4) 0.5154(4) 0.9300(6)
O6_3 O 0.9631(3) 0.4683(3) 0.8240(5)
C5_5 C 0.7542(4) 0.5613(4) 0.9284(7)
C6_5 C 0.7594(4) 0.4662(4) 0.9242(9)
H2_5 H 0.9800 0.6768 0.7985
C7_5 C 0.7001(4) 0.5587(4) 0.9176(7)
H4_5 H 0.7706 0.5938 0.9346
H5_5 H 0.7788 0.4352 0.9272
C8_5 C 0.7037(4) 0.4649(4) 0.9134(8)
C9_5 C 0.6754(4) 0.5111(5) 0.9092(7)
H6_5 H 0.6804 0.5896 0.9160
H7_5 H 0.6863 0.4327 0.9093
S1_5 S 0.60511(10) 0.50771(14) 0.8976(2)
O7_5 O 0.5868(3) 0.5570(4) 0.8611(6)
O8_5 O 0.5926(3) 0.4604(4) 0.8530(6)
Co1_4 Co 0.15453(5) 0.18655(5) 0.19319(9)
O1_6 O 0.1857(3) 0.1111(3) 0.2061(5)
O2_6 O 0.2146(2) 0.2143(2) 0.2762(4)
O3_6 O 0.1086(3) 0.1699(3) 0.3144(5)
N1_6 N 0.1314(3) 0.2645(3) 0.1754(5)
O4_4 O 0.1953(3) 0.1915(3) 0.0687(5)
N2_6 N 0.0932(3) 0.1504(3) 0.1253(5)
C1_6 C 0.2323(4) 0.0935(4) 0.1926(7)
Co2_4 Co 0.27999(5) 0.20090(5) 0.20411(9)
N3_6 N 0.1533(3) 0.3058(3) 0.2247(6)
C2_6 C 0.1008(4) 0.2899(4) 0.1174(7)
O5_6 O 0.2733(3) 0.1196(3) 0.1905(5)
C3_6 C 0.2346(4) 0.0342(4) 0.1800(6)
O6_4 O 0.2817(3) 0.2131(3) 0.0740(5)
C4_6 C 0.1325(4) 0.3506(4) 0.1961(7)
N4_6 N 0.0718(4) 0.2637(3) 0.0524(7)
C5_6 C 0.1887(4) 0.0042(4) 0.1784(7)
C6_6 C 0.2838(4) 0.0094(4) 0.1742(9)
H1_6 H 0.1393 0.3832 0.2213
H2_6 H 0.0732 0.2300 0.0485
H3_6 H 0.0526 0.2814 0.0164
H4_6 H 0.1562 0.0206 0.1846
H5_6 H 0.3148 0.0288 0.1772
Co3_6 Co 0.22001(5) 0.29910(5) 0.29589(9)
O9_6 O 0.2854(2) 0.2857(2) 0.2238(4)
N5_6 N 0.3467(3) 0.1942(3) 0.2753(6)
N6_6 N 0.0996(3) 0.3432(3) 0.1247(5)
Co4_6 Co 0.06345(5) 0.40453(5) 0.05681(9)
H12_6 H 0.133162 0.162285 0.363638
H13_6 H 0.0866628 0.201044 0.329403
C7_6 C 0.1913(4) 0.9501(4) 0.1676(7)
C8_6 C 0.2851(4) 0.9537(4) 0.1634(8)
C9_6 C 0.2389(5) 0.9254(4) 0.1592(7)
H6_6 H 0.1604 0.9304 0.1660
H7_6 H 0.3173 0.9363 0.1593
S1_6 S 0.24229(14) 0.85511(10) 0.1476(2)
O7_6 O 0.1930(4) 0.8368(3) 0.1111(6)
O8_6 O 0.2896(4) 0.8426(3) 0.1030(6)
C10_6 C 0.2482(5) 0.8329(4) 0.2574(7)
C11_6 C 0.2979(5) 0.8276(5) 0.2949(8)
C12_6 C 0.2039(5) 0.8238(5) 0.3034(8)
C13_6 C 0.3006(4) 0.8154(5) 0.3824(8)
H8_6 H 0.3283 0.8322 0.2616
H9_6 H 0.1712 0.8258 0.2758
C14_6 C 0.2071(5) 0.8109(5) 0.3943(8)
C15_6 C 0.2563(4) 0.8071(4) 0.4326(7)
H10_6 H 0.3335 0.8125 0.4088
H11_6 H 0.1768 0.8051 0.4273
C16_6 C 0.2621(5) 0.8001(4) 0.5322(7)
O10_4 O 0.2183(3) 0.7869(3) 0.5740(5)
O11_4 O 0.3047(3) 0.8085(3) 0.5687(5)
Co5_4 Co 0.22001(5) 0.79910(5) 0.70411(9)
Co6_4 Co 0.34547(5) 0.81345(5) 0.69319(9)
O1_7 O 0.6389(3) 0.4357(3) 0.4561(5)
O2_7 O 0.5357(2) 0.4646(2) 0.5262(4)
O3_7 O 0.5801(3) 0.3586(3) 0.5644(5)
N1_7 N 0.4855(3) 0.3814(3) 0.4254(5)
N2_7 N 0.5996(3) 0.3432(3) 0.3753(5)
C1_7 C 0.6565(4) 0.4823(4) 0.4426(7)
N3_7 N 0.4442(3) 0.4033(3) 0.4747(6)
C2_7 C 0.4601(4) 0.3508(4) 0.3674(7)
O5_7 O 0.6304(3) 0.5233(3) 0.4405(5)
C3_7 C 0.7158(4) 0.4846(4) 0.4300(6)
C4_7 C 0.3994(4) 0.3825(4) 0.4461(7)
N4_7 N 0.4863(3) 0.3218(4) 0.3024(7)
C5_7 C 0.7458(4) 0.4387(4) 0.4284(7)
C6_7 C 0.7406(4) 0.5338(4) 0.4242(9)
H1_7 H 0.3668 0.3893 0.4713
H2_7 H 0.5200 0.3232 0.2985
H3_7 H 0.4686 0.3026 0.2664
C7_7 C 0.7999(4) 0.4413(4) 0.4176(7)
H4_7 H 0.7294 0.4062 0.4346
H5_7 H 0.7212 0.5648 0.4272
C8_7 C 0.7963(4) 0.5351(4) 0.4134(8)
C9_7 C 0.8246(4) 0.4889(5) 0.4092(7)
H6_7 H 0.8196 0.4104 0.4160
H7_7 H 0.8137 0.5673 0.4093
S1_7 S 0.89489(10) 0.49229(14) 0.3976(2)
O7_7 O 0.9132(3) 0.4430(4) 0.3611(6)
O8_7 O 0.9074(3) 0.5396(4) 0.3530(6)
C10_7 C 0.9171(4) 0.4982(5) 0.5074(7)
C11_7 C 0.9224(5) 0.5479(5) 0.5449(8)
C12_7 C 0.9262(5) 0.4539(5) 0.5534(8)
C13_7 C 0.9346(5) 0.5506(4) 0.6324(8)
H8_7 H 0.9178 0.5783 0.5116
H9_7 H 0.9242 0.4212 0.5258
C14_7 C 0.9391(5) 0.4571(5) 0.6443(8)
C15_7 C 0.9429(4) 0.5063(4) 0.6826(7)
H10_7 H 0.9375 0.5835 0.6588
H11_7 H 0.9449 0.4268 0.6773
C16_7 C 0.9499(4) 0.5121(5) 0.7822(7)
Co3_7 Co 0.45090(5) 0.47001(5) 0.54589(9)
O9_7 O 0.4643(2) 0.5354(2) 0.4738(4)
N5_7 N 0.5558(3) 0.5967(3) 0.5253(6)
N6_7 N 0.4068(3) 0.3496(3) 0.3747(5)
Co4_7 Co 0.34547(5) 0.31345(5) 0.30681(9)
H12_7 H 0.587715 0.383162 0.613638
H13_7 H 0.548956 0.336663 0.579403
C16_8 C 0.2379(5) 0.1999(4) 0.0322(7)
O1_8 O 0.3143(3) 0.8889(3) 0.7061(5)
O2_8 O 0.2854(2) 0.7857(2) 0.7762(4)
O3_8 O 0.3914(3) 0.8301(3) 0.8144(5)
N1_8 N 0.3686(3) 0.7355(3) 0.6754(5)
N2_8 N 0.4068(3) 0.8496(3) 0.6253(5)
C1_8 C 0.2677(4) 0.9065(4) 0.6926(7)
N3_8 N 0.3467(3) 0.6942(3) 0.7247(6)
C2_8 C 0.3992(4) 0.7101(4) 0.6174(7)
O5_8 O 0.2267(3) 0.8804(3) 0.6905(5)
C3_8 C 0.2654(4) 0.9658(4) 0.6800(6)
C4_8 C 0.3675(4) 0.6494(4) 0.6961(7)
N4_8 N 0.4282(4) 0.7363(3) 0.5524(7)
C5_8 C 0.3113(4) 0.9958(4) 0.6784(7)
C6_8 C 0.2162(4) 0.9906(4) 0.6742(9)
H1_8 H 0.3607 0.6168 0.7213
H2_8 H 0.4268 0.7700 0.5485
H3_8 H 0.4474 0.7186 0.5164
H4_8 H 0.3438 0.9794 0.6846
H5_8 H 0.1852 0.9712 0.6772
Co3_8 Co 0.27999(5) 0.70090(5) 0.79589(9)
O9_8 O 0.2146(2) 0.7143(2) 0.7238(4)
N5_8 N 0.1533(3) 0.8058(3) 0.7753(6)
N6_8 N 0.4004(3) 0.6568(3) 0.6247(5)
Co4_8 Co 0.43655(5) 0.59547(5) 0.55681(9)
H12_8 H 0.366838 0.837715 0.863638
H13_8 H 0.413337 0.798956 0.829403
O5_9 O 0.6304(3) 0.0233(3) 0.5595(5)
O6_5 O 0.5369(3) 0.0317(3) 0.6760(5)
C6_9 C 0.7406(4) 0.0338(4) 0.5758(9)
H5_9 H 0.7212 0.0648 0.5728
C8_8 C 0.7963(4) 0.0351(4) 0.5866(8)
H7_8 H 0.8137 0.0673 0.5907
O8_8 O 0.9074(3) 0.0396(4) 0.6470(6)
C11_8 C 0.9224(5) 0.0479(5) 0.4551(8)
C13_8 C 0.9346(5) 0.0506(4) 0.3676(8)
H8_8 H 0.9178 0.0783 0.4884
C15_8 C 0.9429(4) 0.0063(4) 0.3174(7)
H10_8 H 0.9375 0.0835 0.3412
C16_9 C 0.9499(4) 0.0121(5) 0.2178(7)
O11_5 O 0.9415(3) 0.0547(3) 0.1813(5)
O1_9 O 0.6389(3) 0.9357(3) 0.5439(5)
O3_9 O 0.5801(3) 0.8586(3) 0.4356(5)
N1_9 N 0.4855(3) 0.8814(3) 0.5746(5)
O4_5 O 0.5585(3) 0.9453(3) 0.6813(5)
C1_9 C 0.6565(4) 0.9823(4) 0.5574(7)
C2_9 C 0.4601(4) 0.8508(4) 0.6326(7)
C3_9 C 0.7158(4) 0.9846(4) 0.5700(6)
C4_9 C 0.3994(4) 0.8825(4) 0.5539(7)
N4_9 N 0.4863(3) 0.8218(4) 0.6976(7)
C5_9 C 0.7458(4) 0.9387(4) 0.5716(7)
H1_9 H 0.3668 0.8893 0.5287
H2_9 H 0.5200 0.8232 0.7015
H3_9 H 0.4686 0.8026 0.7336
C7_8 C 0.7999(4) 0.9413(4) 0.5824(7)
H4_9 H 0.7294 0.9062 0.5654
C9_8 C 0.8246(4) 0.9889(5) 0.5908(7)
H6_8 H 0.8196 0.9104 0.5840
S1_8 S 0.89489(10) 0.99229(14) 0.6024(2)
O7_8 O 0.9132(3) 0.9430(4) 0.6389(6)
C10_8 C 0.9171(4) 0.9982(5) 0.4926(7)
C12_8 C 0.9262(5) 0.9539(5) 0.4466(8)
H9_8 H 0.9242 0.9212 0.4742
C14_8 C 0.9391(5) 0.9571(5) 0.3557(8)
H11_8 H 0.9449 0.9268 0.3227
O10_5 O 0.9631(3) 0.9683(3) 0.1760(5)
H12_9 H 0.587715 0.883162 0.386362
H13_9 H 0.548956 0.836663 0.420597
O1_10 O 0.3143(3) 0.3889(3) 0.2939(5)
O3_10 O 0.3914(3) 0.3301(3) 0.1856(5)
N1_10 N 0.3686(3) 0.2355(3) 0.3246(5)
O4_6 O 0.3047(3) 0.3085(3) 0.4313(5)
C1_10 C 0.2677(4) 0.4065(4) 0.3074(7)
C2_10 C 0.3992(4) 0.2101(4) 0.3826(7)
O5_10 O 0.2267(3) 0.3804(3) 0.3095(5)
C3_10 C 0.2654(4) 0.4658(4) 0.3200(6)
O6_6 O 0.2183(3) 0.2869(3) 0.4260(5)
C4_10 C 0.3675(4) 0.1494(4) 0.3039(7)
N4_10 N 0.4282(4) 0.2363(3) 0.4476(7)
C5_10 C 0.3113(4) 0.4958(4) 0.3216(7)
C6_10 C 0.2162(4) 0.4906(4) 0.3258(9)
H1_10 H 0.3607 0.1168 0.2787
H2_10 H 0.4268 0.2700 0.4515
H3_10 H 0.4474 0.2186 0.4836
C7_9 C 0.3087(4) 0.5499(4) 0.3324(7)
H4_10 H 0.3438 0.4794 0.3154
H5_10 H 0.1852 0.4712 0.3228
C8_9 C 0.2149(4) 0.5463(4) 0.3366(8)
C9_9 C 0.2611(5) 0.5746(4) 0.3408(7)
H6_9 H 0.3396 0.5696 0.3340
H7_9 H 0.1827 0.5637 0.3407
S1_9 S 0.25771(14) 0.64489(10) 0.3524(2)
O7_9 O 0.3070(4) 0.6632(3) 0.3889(6)
O8_9 O 0.2104(4) 0.6574(3) 0.3970(6)
C10_9 C 0.2518(5) 0.6671(4) 0.2426(7)
C11_9 C 0.2021(5) 0.6724(5) 0.2051(8)
C12_9 C 0.2961(5) 0.6762(5) 0.1966(8)
C13_9 C 0.1994(4) 0.6846(5) 0.1176(8)
H8_9 H 0.1717 0.6678 0.2384
H9_9 H 0.3288 0.6742 0.2242
C14_9 C 0.2929(5) 0.6891(5) 0.1057(8)
C15_9 C 0.2437(4) 0.6929(4) 0.0674(7)
H10_9 H 0.1665 0.6875 0.0912
H11_9 H 0.3232 0.6949 0.0727
H12_10 H 0.366838 0.337715 0.136362
H13_10 H 0.413337 0.298956 0.170597
C16_10 C 0.2379(5) 0.6999(4) 0.9678(7)
O10_6 O 0.2817(3) 0.7131(3) 0.9260(5)
O11_6 O 0.1953(3) 0.6915(3) 0.9313(5)
N1_11 N 0.0145(3) 0.1186(3) 0.0746(5)
C2_11 C 0.0399(4) 0.1492(4) 0.1326(7)
C4_11 C 0.1006(4) 0.1175(4) 0.0539(7)
N4_11 N 0.0137(3) 0.1782(4) 0.1976(7)
H1_11 H 0.1332 0.1107 0.0287
H3_11 H 0.0314 0.1974 0.2336
O1_11 O 0.8611(3) 0.0643(3) 0.0439(5)
C1_11 C 0.8435(4) 0.0177(4) 0.0574(7)
C3_11 C 0.7842(4) 0.0154(4) 0.0700(6)
C5_11 C 0.7542(4) 0.0613(4) 0.0716(7)
H2_11 H 0.9800 0.1768 0.2015
C7_10 C 0.7001(4) 0.0587(4) 0.0824(7)
H4_11 H 0.7706 0.0938 0.0654
C9_10 C 0.6754(4) 0.0111(5) 0.0908(7)
H6_10 H 0.6804 0.0896 0.0840
S1_10 S 0.60511(10) 0.00771(14) 0.1024(2)
O7_10 O 0.5868(3) 0.0570(4) 0.1389(6)
O3_11 O 0.9199(3) 0.1414(3) 0.9356(5)
C10_10 C 0.5829(4) 0.0018(5) 0.9926(7)
C12_10 C 0.5738(5) 0.0461(5) 0.9466(8)
H9_10 H 0.5758 0.0788 0.9742
C14_10 C 0.5609(5) 0.0429(5) 0.8557(8)
H11_10 H 0.5551 0.0732 0.8227
H12_11 H 0.912285 0.116838 0.886362
H13_11 H 0.951044 0.163337 0.920597
O5_11 O 0.8696(3) 0.9767(3) 0.0595(5)
C6_11 C 0.7594(4) 0.9662(4) 0.0758(9)
H5_11 H 0.7788 0.9352 0.0728
C8_10 C 0.7037(4) 0.9649(4) 0.0866(8)
H7_10 H 0.6863 0.9327 0.0907
O8_10 O 0.5926(3) 0.9604(4) 0.1470(6)
C11_10 C 0.5776(5) 0.9521(5) 0.9551(8)
C13_10 C 0.5654(5) 0.9494(4) 0.8676(8)
H8_10 H 0.5822 0.9217 0.9884
C15_10 C 0.5571(4) 0.9937(4) 0.8174(7)
H10_10 H 0.5625 0.9165 0.8412
C16_11 C 0.5501(4) 0.9879(5) 0.7178(7)
O1_12 O 0.1857(3) 0.6111(3) 0.7939(5)
O3_12 O 0.1086(3) 0.6699(3) 0.6856(5)
N1_12 N 0.1314(3) 0.7645(3) 0.8246(5)
C1_12 C 0.2323(4) 0.5935(4) 0.8074(7)
C2_12 C 0.1008(4) 0.7899(4) 0.8826(7)
O5_12 O 0.2733(3) 0.6196(3) 0.8095(5)
C3_12 C 0.2346(4) 0.5342(4) 0.8200(6)
C4_12 C 0.1325(4) 0.8506(4) 0.8039(7)
N4_12 N 0.0718(4) 0.7637(3) 0.9476(7)
C5_12 C 0.1887(4) 0.5042(4) 0.8216(7)
C6_12 C 0.2838(4) 0.5094(4) 0.8258(9)
H1_12 H 0.1393 0.8832 0.7787
H2_12 H 0.0732 0.7300 0.9515
H3_12 H 0.0526 0.7814 0.9836
C7_11 C 0.1913(4) 0.4501(4) 0.8324(7)
H4_12 H 0.1562 0.5206 0.8154
H5_12 H 0.3148 0.5288 0.8228
C8_11 C 0.2851(4) 0.4537(4) 0.8366(8)
C9_11 C 0.2389(5) 0.4254(4) 0.8408(7)
H6_11 H 0.1604 0.4304 0.8340
H7_11 H 0.3173 0.4363 0.8407
S1_11 S 0.24229(14) 0.35511(10) 0.8524(2)
O7_11 O 0.1930(4) 0.3368(3) 0.8889(6)
O8_11 O 0.2896(4) 0.3426(3) 0.8970(6)
C10_11 C 0.2482(5) 0.3329(4) 0.7426(7)
C11_11 C 0.2979(5) 0.3276(5) 0.7051(8)
C12_11 C 0.2039(5) 0.3238(5) 0.6966(8)
C13_11 C 0.3006(4) 0.3154(5) 0.6176(8)
H8_11 H 0.3283 0.3322 0.7384
H9_11 H 0.1712 0.3258 0.7242
C14_11 C 0.2071(5) 0.3109(5) 0.6057(8)
C15_11 C 0.2563(4) 0.3071(4) 0.5674(7)
H10_11 H 0.3335 0.3125 0.5912
H11_11 H 0.1768 0.3051 0.5727
C16_12 C 0.2621(5) 0.3001(4) 0.4678(7)
H12_12 H 0.133162 0.662285 0.636362
H13_12 H 0.0866628 0.701044 0.670597
O1_13 O 0.1389(3) 0.4357(3) 0.0439(5)
O4_7 O 0.0585(3) 0.4453(3) 0.1813(5)
C1_13 C 0.1565(4) 0.4823(4) 0.0574(7)
O5_13 O 0.1304(3) 0.5233(3) 0.0595(5)
C3_13 C 0.2158(4) 0.4846(4) 0.0700(6)
O6_7 O 0.0369(3) 0.5317(3) 0.1760(5)
C5_13 C 0.2458(4) 0.4387(4) 0.0716(7)
C6_13 C 0.2406(4) 0.5338(4) 0.0758(9)
H2_13 H 0.0200 0.3232 0.2015
C7_12 C 0.2999(4) 0.4413(4) 0.0824(7)
H4_13 H 0.2294 0.4062 0.0654
H5_13 H 0.2212 0.5648 0.0728
C8_12 C 0.2963(4) 0.5351(4) 0.0866(8)
C9_12 C 0.3246(4) 0.4889(5) 0.0908(7)
H6_12 H 0.3196 0.4104 0.0840
H7_12 H 0.3137 0.5673 0.0907
S1_12 S 0.39489(10) 0.49229(14) 0.1024(2)
O7_12 O 0.4132(3) 0.4430(4) 0.1389(6)
O8_12 O 0.4074(3) 0.5396(4) 0.1470(6)
O3_13 O 0.0801(3) 0.3586(3) 0.9356(5)
C10_12 C 0.4171(4) 0.4982(5) 0.9926(7)
C11_12 C 0.4224(5) 0.5479(5) 0.9551(8)
C12_12 C 0.4262(5) 0.4539(5) 0.9466(8)
C13_12 C 0.4346(5) 0.5506(4) 0.8676(8)
H8_12 H 0.4178 0.5783 0.9884
H9_12 H 0.4242 0.4212 0.9742
C14_12 C 0.4391(5) 0.4571(5) 0.8557(8)
C15_12 C 0.4429(4) 0.5063(4) 0.8174(7)
H10_12 H 0.4375 0.5835 0.8412
H11_12 H 0.4449 0.4268 0.8227
C16_13 C 0.4499(4) 0.5121(5) 0.7178(7)
O10_7 O 0.4631(3) 0.4683(3) 0.6760(5)
O11_7 O 0.4415(3) 0.5547(3) 0.6813(5)
H12_13 H 0.0877148 0.383162 0.886362
H13_13 H 0.0489565 0.336663 0.920597
N1_13 N 0.9855(3) 0.3814(3) 0.0746(5)
C2_13 C 0.9601(4) 0.3508(4) 0.1326(7)
C4_13 C 0.8994(4) 0.3825(4) 0.0539(7)
N4_13 N 0.9863(3) 0.3218(4) 0.1976(7)
H1_13 H 0.8668 0.3893 0.0287
H3_13 H 0.9686 0.3026 0.2336
C7_13 C 0.8087(4) 0.0499(4) 0.8324(7)
C8_13 C 0.7149(4) 0.0463(4) 0.8366(8)
C9_13 C 0.7611(5) 0.0746(4) 0.8408(7)
H6_13 H 0.8396 0.0696 0.8340
H7_13 H 0.6827 0.0637 0.8407
S1_13 S 0.75771(14) 0.14489(10) 0.8524(2)
O7_13 O 0.8070(4) 0.1632(3) 0.8889(6)
O8_13 O 0.7104(4) 0.1574(3) 0.8970(6)
C10_13 C 0.7518(5) 0.1671(4) 0.7426(7)
C11_13 C 0.7021(5) 0.1724(5) 0.7051(8)
C12_13 C 0.7961(5) 0.1762(5) 0.6966(8)
C13_13 C 0.6994(4) 0.1846(5) 0.6176(8)
H8_13 H 0.6717 0.1678 0.7384
H9_13 H 0.8288 0.1742 0.7242
C14_13 C 0.7929(5) 0.1891(5) 0.6057(8)
C15_13 C 0.7437(4) 0.1929(4) 0.5674(7)
H10_13 H 0.6665 0.1875 0.5912
H11_13 H 0.8232 0.1949 0.5727
C16_14 C 0.7379(5) 0.1999(4) 0.4678(7)
O10_8 O 0.7817(3) 0.2131(3) 0.4260(5)
O11_8 O 0.6953(3) 0.1915(3) 0.4313(5)
O1_14 O 0.8143(3) 0.8889(3) 0.7939(5)
O3_14 O 0.8914(3) 0.8301(3) 0.6856(5)
N1_14 N 0.8686(3) 0.7355(3) 0.8246(5)
O4_8 O 0.8047(3) 0.8085(3) 0.9313(5)
C1_14 C 0.7677(4) 0.9065(4) 0.8074(7)
C2_14 C 0.8992(4) 0.7101(4) 0.8826(7)
O5_14 O 0.7267(3) 0.8804(3) 0.8095(5)
C3_14 C 0.7654(4) 0.9658(4) 0.8200(6)
O6_8 O 0.7183(3) 0.7869(3) 0.9260(5)
C4_14 C 0.8675(4) 0.6494(4) 0.8039(7)
N4_14 N 0.9282(4) 0.7363(3) 0.9476(7)
C5_14 C 0.8113(4) 0.9958(4) 0.8216(7)
C6_14 C 0.7162(4) 0.9906(4) 0.8258(9)
H1_14 H 0.8607 0.6168 0.7787
H2_14 H 0.9268 0.7700 0.9515
H3_14 H 0.9474 0.7186 0.9836
H4_14 H 0.8438 0.9794 0.8154
H5_14 H 0.6852 0.9712 0.8228
H12_14 H 0.866838 0.837715 0.636362
H13_14 H 0.913337 0.798956 0.670597
O1_15 O 0.3611(3) 0.5643(3) 0.5439(5)
O3_15 O 0.4199(3) 0.6414(3) 0.4356(5)
N1_15 N 0.5145(3) 0.6186(3) 0.5746(5)
C1_15 C 0.3435(4) 0.5177(4) 0.5574(7)
C2_15 C 0.5399(4) 0.6492(4) 0.6326(7)
O5_15 O 0.3696(3) 0.4767(3) 0.5595(5)
C3_15 C 0.2842(4) 0.5154(4) 0.5700(6)
C4_15 C 0.6006(4) 0.6175(4) 0.5539(7)
N4_15 N 0.5137(3) 0.6782(4) 0.6976(7)
C5_15 C 0.2542(4) 0.5613(4) 0.5716(7)
C6_15 C 0.2594(4) 0.4662(4) 0.5758(9)
H1_15 H 0.6332 0.6107 0.5287
H2_15 H 0.4800 0.6768 0.7015
H3_15 H 0.5314 0.6974 0.7336
C7_14 C 0.2001(4) 0.5587(4) 0.5824(7)
H4_15 H 0.2706 0.5938 0.5654
H5_15 H 0.2788 0.4352 0.5728
C8_14 C 0.2037(4) 0.4649(4) 0.5866(8)
C9_14 C 0.1754(4) 0.5111(5) 0.5908(7)
H6_14 H 0.1804 0.5896 0.5840
H7_14 H 0.1863 0.4327 0.5907
S1_14 S 0.10511(10) 0.50771(14) 0.6024(2)
O7_14 O 0.0868(3) 0.5570(4) 0.6389(6)
O8_14 O 0.0926(3) 0.4604(4) 0.6470(6)
C10_14 C 0.0829(4) 0.5018(5) 0.4926(7)
C11_14 C 0.0776(5) 0.4521(5) 0.4551(8)
C12_14 C 0.0738(5) 0.5461(5) 0.4466(8)
C13_14 C 0.0654(5) 0.4494(4) 0.3676(8)
H8_14 H 0.0822 0.4217 0.4884
H9_14 H 0.0758 0.5788 0.4742
C14_14 C 0.0609(5) 0.5429(5) 0.3557(8)
C15_14 C 0.0571(4) 0.4937(4) 0.3174(7)
H10_14 H 0.0625 0.4165 0.3412
H11_14 H 0.0551 0.5732 0.3227
C16_15 C 0.0501(4) 0.4879(5) 0.2178(7)
H12_15 H 0.412285 0.616838 0.386362
H13_15 H 0.451044 0.663337 0.420597
O1_16 O 0.6857(3) 0.1111(3) 0.2939(5)
O3_16 O 0.6086(3) 0.1699(3) 0.1856(5)
N1_16 N 0.6314(3) 0.2645(3) 0.3246(5)
C1_16 C 0.7323(4) 0.0935(4) 0.3074(7)
C2_16 C 0.6008(4) 0.2899(4) 0.3826(7)
O5_16 O 0.7733(3) 0.1196(3) 0.3095(5)
C3_16 C 0.7346(4) 0.0342(4) 0.3200(6)
C4_16 C 0.6325(4) 0.3506(4) 0.3039(7)
N4_16 N 0.5718(4) 0.2637(3) 0.4476(7)
C5_16 C 0.6887(4) 0.0042(4) 0.3216(7)
C6_16 C 0.7838(4) 0.0094(4) 0.3258(9)
H1_16 H 0.6393 0.3832 0.2787
H2_16 H 0.5732 0.2300 0.4515
H3_16 H 0.5526 0.2814 0.4836
H4_16 H 0.6562 0.0206 0.3154
H5_16 H 0.8148 0.0288 0.3228
H12_16 H 0.633162 0.162285 0.136362
H13_16 H 0.586663 0.201044 0.170597
C16_16 C 0.7621(5) 0.8001(4) 0.9678(7)
C7_15 C 0.3087(4) 0.0499(4) 0.6676(7)
C8_15 C 0.2149(4) 0.0463(4) 0.6634(8)
C9_15 C 0.2611(5) 0.0746(4) 0.6592(7)
H6_15 H 0.3396 0.0696 0.6660
H7_15 H 0.1827 0.0637 0.6593
S1_15 S 0.25771(14) 0.14489(10) 0.6476(2)
O7_15 O 0.3070(4) 0.1632(3) 0.6111(6)
O8_15 O 0.2104(4) 0.1574(3) 0.6030(6)
C10_15 C 0.2518(5) 0.1671(4) 0.7574(7)
C11_15 C 0.2021(5) 0.1724(5) 0.7949(8)
C12_15 C 0.2961(5) 0.1762(5) 0.8034(8)
C13_15 C 0.1994(4) 0.1846(5) 0.8824(8)
H8_15 H 0.1717 0.1678 0.7616
H9_15 H 0.3288 0.1742 0.7758
C14_15 C 0.2929(5) 0.1891(5) 0.8943(8)
C15_15 C 0.2437(4) 0.1929(4) 0.9326(7)
H10_15 H 0.1665 0.1875 0.9088
H11_15 H 0.3232 0.1949 0.9273
C7_16 C 0.6913(4) 0.9501(4) 0.3324(7)
C8_16 C 0.7851(4) 0.9537(4) 0.3366(8)
C9_16 C 0.7389(5) 0.9254(4) 0.3408(7)
H6_16 H 0.6604 0.9304 0.3340
H7_16 H 0.8173 0.9363 0.3407
S1_16 S 0.74229(14) 0.85511(10) 0.3524(2)
O7_16 O 0.6930(4) 0.8368(3) 0.3889(6)
O8_16 O 0.7896(4) 0.8426(3) 0.3970(6)
C10_16 C 0.7482(5) 0.8329(4) 0.2426(7)
C11_16 C 0.7979(5) 0.8276(5) 0.2051(8)
C12_16 C 0.7039(5) 0.8238(5) 0.1966(8)
C13_16 C 0.8006(4) 0.8154(5) 0.1176(8)
H8_16 H 0.8283 0.8322 0.2384
H9_16 H 0.6712 0.8258 0.2242
C14_16 C 0.7071(5) 0.8109(5) 0.1057(8)
C15_16 C 0.7563(4) 0.8071(4) 0.0674(7)
H10_16 H 0.8335 0.8125 0.0912
H11_16 H 0.6768 0.8051 0.0727
loop_
_geom_bond_atom_site_label_1
_geom_bond_atom_site_label_2
_geom_bond_site_symmetry_1
_geom_bond_site_symmetry_2
Co1 O1 1_555 1_555
O1 C1 1_555 1_555
O2 Co1 1_555 1_555
O3 Co1 1_555 1_555
N1 Co1 1_555 1_555
O4 Co1 1_555 1_555
N2 Co1 1_555 1_555
N3 N1 1_555 1_555
C2 N1 1_555 1_555
C3 C1 1_555 1_555
C4 N3 1_555 1_555
N4 C2 1_555 1_555
C5 C3 1_555 1_555
H1 C4 1_555 1_555
H2 N4 1_555 1_555
H3 N4 1_555 1_555
C7 C5 1_555 1_555
H4 C5 1_555 1_555
C9 C7 1_555 1_555
H6 C7 1_555 1_555
S1 C9 1_555 1_555
O7 S1 1_555 1_555
C10 S1 1_555 1_555
C12 C10 1_555 1_555
H9 C12 1_555 1_555
C14 C12 1_555 1_555
H11 C14 1_555 1_555
Co3 O2 1_555 1_555
N6 C2 1_555 1_555
Co4 N6 1_555 1_555
Co5 O10 1_555 1_555
N3 Co3 1_555 1_555
C4 N6 1_555 1_555
O3 H12 1_555 1_555
O3 H13 1_555 1_555
O5 Co2 1_555 1_555
O6 Co2 1_555 1_555
H5 C6 1_555 1_555
C8 C6 1_555 1_555
H7 C8 1_555 1_555
C13 C11 1_555 1_555
H8 C11 1_555 1_555
C15 C13 1_555 1_555
H10 C13 1_555 1_555
C16 C15 1_555 1_555
O9 Co2 1_555 1_555
N5 Co2 1_555 1_555
O11 C16 1_555 1_555
Co6 O11 1_555 1_555
O10_2 C16_2 1_555 1_555
O11_2 C16_2 1_555 1_555
Co5_2 O10_2 1_555 1_555
Co6_2 O11_2 1_555 1_555
Co1_2 O1_2 1_555 1_555
O1_2 C1_2 1_555 1_555
O2_2 Co1_2 1_555 1_555
O3_2 Co1_2 1_555 1_555
N1_2 Co1_2 1_555 1_555
O4_2 Co1_2 1_555 1_555
N2_2 Co1_2 1_555 1_555
C1_2 O5_2 1_555 1_555
Co2_2 O2_2 1_555 1_555
N3_2 N1_2 1_555 1_555
C2_2 N1_2 1_555 1_555
O5_2 Co2_2 1_555 1_555
C3_2 C1_2 1_555 1_555
O6_2 Co2_2 1_555 1_555
C4_2 N3_2 1_555 1_555
N4_2 C2_2 1_555 1_555
C5_2 C3_2 1_555 1_555
C6_2 C3_2 1_555 1_555
H1_2 C4_2 1_555 1_555
H2_2 N4_2 1_555 1_555
H3_2 N4_2 1_555 1_555
C7_2 C5_2 1_555 1_555
H4_2 C5_2 1_555 1_555
H5_2 C6_2 1_555 1_555
C8_2 C6_2 1_555 1_555
C9_2 C7_2 1_555 1_555
H6_2 C7_2 1_555 1_555
H7_2 C8_2 1_555 1_555
S1_2 C9_2 1_555 1_555
O7_2 S1_2 1_555 1_555
O8_2 S1_2 1_555 1_555
C10_2 S1_2 1_555 1_555
C11_2 C10_2 1_555 1_555
C12_2 C10_2 1_555 1_555
C13_2 C11_2 1_555 1_555
H8_2 C11_2 1_555 1_555
H9_2 C12_2 1_555 1_555
C14_2 C12_2 1_555 1_555
C15_2 C13_2 1_555 1_555
H10_2 C13_2 1_555 1_555
H11_2 C14_2 1_555 1_555
Co3_2 O2_2 1_555 1_555
O9_2 Co2_2 1_555 1_555
N5_2 Co2_2 1_555 1_555
N6_2 C2_2 1_555 1_555
Co4_2 N6_2 1_555 1_555
N3_2 Co3_2 1_555 1_555
C4_2 N6_2 1_555 1_555
C8_2 C9_2 1_555 1_555
C14_2 C15_2 1_555 1_555
Co3_2 O9_2 1_555 1_555
O3_2 H12_2 1_555 1_555
O3_2 H13_2 1_555 1_555
C13_3 C11_3 1_555 1_555
H8_3 C11_3 1_555 1_555
C15_3 C13_3 1_555 1_555
H10_3 C13_3 1_555 1_555
C16_3 C15_3 1_555 1_555
O4 C16_3 1_555 1_555
O5_3 Co5 1_555 1_555
H5_3 C6_3 1_555 1_555
C8_3 C6_3 1_555 1_555
H7_3 C8_3 1_555 1_555
C12_3 C10_3 1_555 1_555
H9_3 C12_3 1_555 1_555
C14_3 C12_3 1_555 1_555
H11_3 C14_3 1_555 1_555
O3_3 H12_3 1_555 1_555
O3_3 H13_3 1_555 1_555
Co6 O1_3 1_555 1_555
O1_3 C1_3 1_555 1_555
N2_3 Co6 1_555 1_555
C3_3 C1_3 1_555 1_555
C5_3 C3_3 1_555 1_555
C7_3 C5_3 1_555 1_555
H4_3 C5_3 1_555 1_555
C9_3 C7_3 1_555 1_555
H6_3 C7_3 1_555 1_555
S1_3 C9_3 1_555 1_555
O7_3 S1_3 1_555 1_555
N3_3 N1_3 1_555 1_555
C2_3 N1_3 1_555 1_555
C4_3 N3_3 1_555 1_555
N4_3 C2_3 1_555 1_555
H1_3 C4_3 1_555 1_555
H3_3 N4_3 1_555 1_555
N6_3 C2_3 1_555 1_555
Co4_3 N6_3 1_555 1_555
C4_3 N6_3 1_555 1_555
Co6_2 O1_4 1_555 1_555
O1_4 C1_4 1_555 1_555
O2_4 Co6_2 1_555 1_555
O3_4 Co6_2 1_555 1_555
N1_4 Co6_2 1_555 1_555
N2_4 Co6_2 1_555 1_555
C1_4 O5_4 1_555 1_555
Co5_2 O2_4 1_555 1_555
N3_4 N1_4 1_555 1_555
C2_4 N1_4 1_555 1_555
O5_4 Co5_2 1_555 1_555
C3_4 C1_4 1_555 1_555
C4_4 N3_4 1_555 1_555
N4_4 C2_4 1_555 1_555
C5_4 C3_4 1_555 1_555
C6_4 C3_4 1_555 1_555
H1_4 C4_4 1_555 1_555
H2_4 N4_4 1_555 1_555
H3_4 N4_4 1_555 1_555
C7_4 C5_4 1_555 1_555
H4_4 C5_4 1_555 1_555
H5_4 C6_4 1_555 1_555
C8_4 C6_4 1_555 1_555
C9_4 C7_4 1_555 1_555
H6_4 C7_4 1_555 1_555
H7_4 C8_4 1_555 1_555
S1_4 C9_4 1_555 1_555
O7_4 S1_4 1_555 1_555
O8_4 S1_4 1_555 1_555
C10_4 S1_4 1_555 1_555
C11_4 C10_4 1_555 1_555
C12_4 C10_4 1_555 1_555
C13_4 C11_4 1_555 1_555
H8_4 C11_4 1_555 1_555
H9_4 C12_4 1_555 1_555
C14_4 C12_4 1_555 1_555
C15_4 C13_4 1_555 1_555
H10_4 C13_4 1_555 1_555
H11_4 C14_4 1_555 1_555
C16_4 C15_4 1_555 1_555
Co3_4 O2_4 1_555 1_555
O9_4 Co5_2 1_555 1_555
N5_4 Co5_2 1_555 1_555
N6_4 C2_4 1_555 1_555
Co4_4 N6_4 1_555 1_555
O6_2 C16_4 1_555 1_555
O4_2 C16_4 1_555 1_555
N3_4 Co3_4 1_555 1_555
C4_4 N6_4 1_555 1_555
C8_4 C9_4 1_555 1_555
C14_4 C15_4 1_555 1_555
Co3_4 O9_4 1_555 1_555
O3_4 H12_4 1_555 1_555
O3_4 H13_4 1_555 1_555
N3_5 N1_5 1_555 1_555
C2_5 N1_5 1_555 1_555
C4_5 N3_5 1_555 1_555
N4_5 C2_5 1_555 1_555
H1_5 C4_5 1_555 1_555
H3_5 N4_5 1_555 1_555
N6_5 C2_5 1_555 1_555
Co4_5 N6_5 1_555 1_555
C4_5 N6_5 1_555 1_555
C11_5 C10_5 1_555 1_555
C12_5 C10_5 1_555 1_555
C13_5 C11_5 1_555 1_555
H8_5 C11_5 1_555 1_555
H9_5 C12_5 1_555 1_555
C14_5 C12_5 1_555 1_555
C15_5 C13_5 1_555 1_555
H10_5 C13_5 1_555 1_555
H11_5 C14_5 1_555 1_555
C16_5 C15_5 1_555 1_555
O10_3 C16_5 1_555 1_555
O11_3 C16_5 1_555 1_555
Co5_3 O10_3 1_555 1_555
Co6_3 O11_3 1_555 1_555
C14_5 C15_5 1_555 1_555
O3_5 H12_5 1_555 1_555
O3_5 H13_5 1_555 1_555
Co1_3 O1_5 1_555 1_555
O1_5 C1_5 1_555 1_555
O4_3 Co1_3 1_555 1_555
N2_5 Co1_3 1_555 1_555
C1_5 O5_5 1_555 1_555
O5_5 Co2_3 1_555 1_555
C3_5 C1_5 1_555 1_555
O6_3 Co2_3 1_555 1_555
C5_5 C3_5 1_555 1_555
C6_5 C3_5 1_555 1_555
C7_5 C5_5 1_555 1_555
H4_5 C5_5 1_555 1_555
H5_5 C6_5 1_555 1_555
C8_5 C6_5 1_555 1_555
C9_5 C7_5 1_555 1_555
H6_5 C7_5 1_555 1_555
H7_5 C8_5 1_555 1_555
S1_5 C9_5 1_555 1_555
O7_5 S1_5 1_555 1_555
O8_5 S1_5 1_555 1_555
C8_5 C9_5 1_555 1_555
Co1_4 O1_6 1_555 1_555
O1_6 C1_6 1_555 1_555
O2_6 Co1_4 1_555 1_555
O3_6 Co1_4 1_555 1_555
N1_6 Co1_4 1_555 1_555
O4_4 Co1_4 1_555 1_555
N2_6 Co1_4 1_555 1_555
C1_6 O5_6 1_555 1_555
Co2_4 O2_6 1_555 1_555
N3_6 N1_6 1_555 1_555
C2_6 N1_6 1_555 1_555
O5_6 Co2_4 1_555 1_555
C3_6 C1_6 1_555 1_555
O6_4 Co2_4 1_555 1_555
C4_6 N3_6 1_555 1_555
N4_6 C2_6 1_555 1_555
C5_6 C3_6 1_555 1_555
C6_6 C3_6 1_555 1_555
H1_6 C4_6 1_555 1_555
H2_6 N4_6 1_555 1_555
H3_6 N4_6 1_555 1_555
H4_6 C5_6 1_555 1_555
H5_6 C6_6 1_555 1_555
Co3_6 O2_6 1_555 1_555
O9_6 Co2_4 1_555 1_555
N5_6 Co2_4 1_555 1_555
N6_6 C2_6 1_555 1_555
Co4_6 N6_6 1_555 1_555
N3_6 Co3_6 1_555 1_555
C4_6 N6_6 1_555 1_555
Co3_6 O9_6 1_555 1_555
O3_6 H12_6 1_555 1_555
O3_6 H13_6 1_555 1_555
C9_6 C7_6 1_555 1_555
H6_6 C7_6 1_555 1_555
H7_6 C8_6 1_555 1_555
S1_6 C9_6 1_555 1_555
O7_6 S1_6 1_555 1_555
O8_6 S1_6 1_555 1_555
C10_6 S1_6 1_555 1_555
C11_6 C10_6 1_555 1_555
C12_6 C10_6 1_555 1_555
C13_6 C11_6 1_555 1_555
H8_6 C11_6 1_555 1_555
H9_6 C12_6 1_555 1_555
C14_6 C12_6 1_555 1_555
C15_6 C13_6 1_555 1_555
H10_6 C13_6 1_555 1_555
H11_6 C14_6 1_555 1_555
C16_6 C15_6 1_555 1_555
O10_4 C16_6 1_555 1_555
O11_4 C16_6 1_555 1_555
Co5_4 O10_4 1_555 1_555
Co6_4 O11_4 1_555 1_555
C8_6 C9_6 1_555 1_555
C14_6 C15_6 1_555 1_555
Co6_3 O1_7 1_555 1_555
O1_7 C1_7 1_555 1_555
O2_7 Co6_3 1_555 1_555
O3_7 Co6_3 1_555 1_555
N1_7 Co6_3 1_555 1_555
N2_7 Co6_3 1_555 1_555
C1_7 O5_7 1_555 1_555
Co5_3 O2_7 1_555 1_555
N3_7 N1_7 1_555 1_555
C2_7 N1_7 1_555 1_555
O5_7 Co5_3 1_555 1_555
C3_7 C1_7 1_555 1_555
C4_7 N3_7 1_555 1_555
N4_7 C2_7 1_555 1_555
C5_7 C3_7 1_555 1_555
C6_7 C3_7 1_555 1_555
H1_7 C4_7 1_555 1_555
H2_7 N4_7 1_555 1_555
H3_7 N4_7 1_555 1_555
C7_7 C5_7 1_555 1_555
H4_7 C5_7 1_555 1_555
H5_7 C6_7 1_555 1_555
C8_7 C6_7 1_555 1_555
C9_7 C7_7 1_555 1_555
H6_7 C7_7 1_555 1_555
H7_7 C8_7 1_555 1_555
S1_7 C9_7 1_555 1_555
O7_7 S1_7 1_555 1_555
O8_7 S1_7 1_555 1_555
C10_7 S1_7 1_555 1_555
C11_7 C10_7 1_555 1_555
C12_7 C10_7 1_555 1_555
C13_7 C11_7 1_555 1_555
H8_7 C11_7 1_555 1_555
H9_7 C12_7 1_555 1_555
C14_7 C12_7 1_555 1_555
C15_7 C13_7 1_555 1_555
H10_7 C13_7 1_555 1_555
H11_7 C14_7 1_555 1_555
C16_7 C15_7 1_555 1_555
Co3_7 O2_7 1_555 1_555
O9_7 Co5_3 1_555 1_555
N5_7 Co5_3 1_555 1_555
N6_7 C2_7 1_555 1_555
Co4_7 N6_7 1_555 1_555
O6_3 C16_7 1_555 1_555
O4_3 C16_7 1_555 1_555
N3_7 Co3_7 1_555 1_555
C4_7 N6_7 1_555 1_555
C8_7 C9_7 1_555 1_555
C14_7 C15_7 1_555 1_555
Co3_7 O9_7 1_555 1_555
O3_7 H12_7 1_555 1_555
O3_7 H13_7 1_555 1_555
O6_4 C16_8 1_555 1_555
O4_4 C16_8 1_555 1_555
Co6_4 O1_8 1_555 1_555
O1_8 C1_8 1_555 1_555
O2_8 Co6_4 1_555 1_555
O3_8 Co6_4 1_555 1_555
N1_8 Co6_4 1_555 1_555
N2_8 Co6_4 1_555 1_555
C1_8 O5_8 1_555 1_555
Co5_4 O2_8 1_555 1_555
N3_8 N1_8 1_555 1_555
C2_8 N1_8 1_555 1_555
O5_8 Co5_4 1_555 1_555
C3_8 C1_8 1_555 1_555
C4_8 N3_8 1_555 1_555
N4_8 C2_8 1_555 1_555
C5_8 C3_8 1_555 1_555
C6_8 C3_8 1_555 1_555
H1_8 C4_8 1_555 1_555
H2_8 N4_8 1_555 1_555
H3_8 N4_8 1_555 1_555
H4_8 C5_8 1_555 1_555
H5_8 C6_8 1_555 1_555
Co3_8 O2_8 1_555 1_555
O9_8 Co5_4 1_555 1_555
N5_8 Co5_4 1_555 1_555
N6_8 C2_8 1_555 1_555
Co4_8 N6_8 1_555 1_555
N3_8 Co3_8 1_555 1_555
C4_8 N6_8 1_555 1_555
Co3_8 O9_8 1_555 1_555
O3_8 H12_8 1_555 1_555
O3_8 H13_8 1_555 1_555
O5_9 Co3 1_555 1_555
O6_5 Co3 1_555 1_555
H5_9 C6_9 1_555 1_555
C8_8 C6_9 1_555 1_555
H7_8 C8_8 1_555 1_555
C13_8 C11_8 1_555 1_555
H8_8 C11_8 1_555 1_555
C15_8 C13_8 1_555 1_555
H10_8 C13_8 1_555 1_555
C16_9 C15_8 1_555 1_555
O11_5 C16_9 1_555 1_555
Co4_4 O11_5 1_555 1_555
Co4_2 O1_9 1_555 1_555
O1_9 C1_9 1_555 1_555
O9 Co4_2 1_555 1_555
O3_9 Co4_2 1_555 1_555
N1_9 Co4_2 1_555 1_555
O4_5 Co4_2 1_555 1_555
N5 N1_9 1_555 1_555
C2_9 N1_9 1_555 1_555
C3_9 C1_9 1_555 1_555
C4_9 N5 1_555 1_555
N4_9 C2_9 1_555 1_555
C5_9 C3_9 1_555 1_555
H1_9 C4_9 1_555 1_555
H2_9 N4_9 1_555 1_555
H3_9 N4_9 1_555 1_555
C7_8 C5_9 1_555 1_555
H4_9 C5_9 1_555 1_555
C9_8 C7_8 1_555 1_555
H6_8 C7_8 1_555 1_555
S1_8 C9_8 1_555 1_555
O7_8 S1_8 1_555 1_555
C10_8 S1_8 1_555 1_555
C12_8 C10_8 1_555 1_555
H9_8 C12_8 1_555 1_555
C14_8 C12_8 1_555 1_555
H11_8 C14_8 1_555 1_555
N2_8 C2_9 1_555 1_555
Co3_3 O10_5 1_555 1_555
C4_9 N2_8 1_555 1_555
O3_9 H12_9 1_555 1_555
O3_9 H13_9 1_555 1_555
Co4_7 O1_10 1_555 1_555
O1_10 C1_10 1_555 1_555
O9_6 Co4_7 1_555 1_555
O3_10 Co4_7 1_555 1_555
N1_10 Co4_7 1_555 1_555
O4_6 Co4_7 1_555 1_555
C1_10 O5_10 1_555 1_555
N5_6 N1_10 1_555 1_555
C2_10 N1_10 1_555 1_555
O5_10 Co3_6 1_555 1_555
C3_10 C1_10 1_555 1_555
O6_6 Co3_6 1_555 1_555
C4_10 N5_6 1_555 1_555
N4_10 C2_10 1_555 1_555
C5_10 C3_10 1_555 1_555
C6_10 C3_10 1_555 1_555
H1_10 C4_10 1_555 1_555
H2_10 N4_10 1_555 1_555
H3_10 N4_10 1_555 1_555
C7_9 C5_10 1_555 1_555
H4_10 C5_10 1_555 1_555
H5_10 C6_10 1_555 1_555
C8_9 C6_10 1_555 1_555
C9_9 C7_9 1_555 1_555
H6_9 C7_9 1_555 1_555
H7_9 C8_9 1_555 1_555
S1_9 C9_9 1_555 1_555
O7_9 S1_9 1_555 1_555
O8_9 S1_9 1_555 1_555
C10_9 S1_9 1_555 1_555
C11_9 C10_9 1_555 1_555
C12_9 C10_9 1_555 1_555
C13_9 C11_9 1_555 1_555
H8_9 C11_9 1_555 1_555
H9_9 C12_9 1_555 1_555
C14_9 C12_9 1_555 1_555
C15_9 C13_9 1_555 1_555
H10_9 C13_9 1_555 1_555
H11_9 C14_9 1_555 1_555
N2 C2_10 1_555 1_555
C4_10 N2 1_555 1_555
C8_9 C9_9 1_555 1_555
C14_9 C15_9 1_555 1_555
O3_10 H12_10 1_555 1_555
O3_10 H13_10 1_555 1_555
O10_6 C16_10 1_555 1_555
O11_6 C16_10 1_555 1_555
Co3_8 O10_6 1_555 1_555
Co4_5 O11_6 1_555 1_555
N5_3 N1_11 1_555 1_555
C2_11 N1_11 1_555 1_555
C4_11 N5_3 1_555 1_555
N4_11 C2_11 1_555 1_555
H1_11 C4_11 1_555 1_555
H3_11 N4_11 1_555 1_555
N2_6 C2_11 1_555 1_555
C4_11 N2_6 1_555 1_555
Co4_4 O1_11 1_555 1_555
O1_11 C1_11 1_555 1_555
C3_11 C1_11 1_555 1_555
C5_11 C3_11 1_555 1_555
C7_10 C5_11 1_555 1_555
H4_11 C5_11 1_555 1_555
C9_10 C7_10 1_555 1_555
H6_10 C7_10 1_555 1_555
S1_10 C9_10 1_555 1_555
O7_10 S1_10 1_555 1_555
C12_10 C10_10 1_555 1_555
H9_10 C12_10 1_555 1_555
C14_10 C12_10 1_555 1_555
H11_10 C14_10 1_555 1_555
O3_11 H12_11 1_555 1_555
O3_11 H13_11 1_555 1_555
O5_11 Co3_3 1_555 1_555
H5_11 C6_11 1_555 1_555
C8_10 C6_11 1_555 1_555
H7_10 C8_10 1_555 1_555
C13_10 C11_10 1_555 1_555
H8_10 C11_10 1_555 1_555
C15_10 C13_10 1_555 1_555
H10_10 C13_10 1_555 1_555
C16_11 C15_10 1_555 1_555
O4_5 C16_11 1_555 1_555
Co4_5 O1_12 1_555 1_555
O1_12 C1_12 1_555 1_555
O9_8 Co4_5 1_555 1_555
O3_12 Co4_5 1_555 1_555
N1_12 Co4_5 1_555 1_555
C1_12 O5_12 1_555 1_555
N5_8 N1_12 1_555 1_555
C2_12 N1_12 1_555 1_555
O5_12 Co3_8 1_555 1_555
C3_12 C1_12 1_555 1_555
C4_12 N5_8 1_555 1_555
N4_12 C2_12 1_555 1_555
C5_12 C3_12 1_555 1_555
C6_12 C3_12 1_555 1_555
H1_12 C4_12 1_555 1_555
H2_12 N4_12 1_555 1_555
H3_12 N4_12 1_555 1_555
C7_11 C5_12 1_555 1_555
H4_12 C5_12 1_555 1_555
H5_12 C6_12 1_555 1_555
C8_11 C6_12 1_555 1_555
C9_11 C7_11 1_555 1_555
H6_11 C7_11 1_555 1_555
H7_11 C8_11 1_555 1_555
S1_11 C9_11 1_555 1_555
O7_11 S1_11 1_555 1_555
O8_11 S1_11 1_555 1_555
C10_11 S1_11 1_555 1_555
C11_11 C10_11 1_555 1_555
C12_11 C10_11 1_555 1_555
C13_11 C11_11 1_555 1_555
H8_11 C11_11 1_555 1_555
H9_11 C12_11 1_555 1_555
C14_11 C12_11 1_555 1_555
C15_11 C13_11 1_555 1_555
H10_11 C13_11 1_555 1_555
H11_11 C14_11 1_555 1_555
C16_12 C15_11 1_555 1_555
N2_3 C2_12 1_555 1_555
O6_6 C16_12 1_555 1_555
O4_6 C16_12 1_555 1_555
C4_12 N2_3 1_555 1_555
C8_11 C9_11 1_555 1_555
C14_11 C15_11 1_555 1_555
O3_12 H12_12 1_555 1_555
O3_12 H13_12 1_555 1_555
Co4_6 O1_13 1_555 1_555
O1_13 C1_13 1_555 1_555
O4_7 Co4_6 1_555 1_555
C1_13 O5_13 1_555 1_555
O5_13 Co3_5 1_555 1_555
C3_13 C1_13 1_555 1_555
O6_7 Co3_5 1_555 1_555
C5_13 C3_13 1_555 1_555
C6_13 C3_13 1_555 1_555
C7_12 C5_13 1_555 1_555
H4_13 C5_13 1_555 1_555
H5_13 C6_13 1_555 1_555
C8_12 C6_13 1_555 1_555
C9_12 C7_12 1_555 1_555
H6_12 C7_12 1_555 1_555
H7_12 C8_12 1_555 1_555
S1_12 C9_12 1_555 1_555
O7_12 S1_12 1_555 1_555
O8_12 S1_12 1_555 1_555
C8_12 C9_12 1_555 1_555
C11_12 C10_12 1_555 1_555
C12_12 C10_12 1_555 1_555
C13_12 C11_12 1_555 1_555
H8_12 C11_12 1_555 1_555
H9_12 C12_12 1_555 1_555
C14_12 C12_12 1_555 1_555
C15_12 C13_12 1_555 1_555
H10_12 C13_12 1_555 1_555
H11_12 C14_12 1_555 1_555
C16_13 C15_12 1_555 1_555
O10_7 C16_13 1_555 1_555
O11_7 C16_13 1_555 1_555
Co3_7 O10_7 1_555 1_555
Co4_8 O11_7 1_555 1_555
C14_12 C15_12 1_555 1_555
O3_13 H12_13 1_555 1_555
O3_13 H13_13 1_555 1_555
N5_5 N1_13 1_555 1_555
C2_13 N1_13 1_555 1_555
C4_13 N5_5 1_555 1_555
N4_13 C2_13 1_555 1_555
H1_13 C4_13 1_555 1_555
H3_13 N4_13 1_555 1_555
N2_4 C2_13 1_555 1_555
C4_13 N2_4 1_555 1_555
C9_13 C7_13 1_555 1_555
H6_13 C7_13 1_555 1_555
H7_13 C8_13 1_555 1_555
S1_13 C9_13 1_555 1_555
O7_13 S1_13 1_555 1_555
O8_13 S1_13 1_555 1_555
C10_13 S1_13 1_555 1_555
C11_13 C10_13 1_555 1_555
C12_13 C10_13 1_555 1_555
C13_13 C11_13 1_555 1_555
H8_13 C11_13 1_555 1_555
H9_13 C12_13 1_555 1_555
C14_13 C12_13 1_555 1_555
C15_13 C13_13 1_555 1_555
H10_13 C13_13 1_555 1_555
H11_13 C14_13 1_555 1_555
C16_14 C15_13 1_555 1_555
O10_8 C16_14 1_555 1_555
O11_8 C16_14 1_555 1_555
Co3_4 O10_8 1_555 1_555
Co4 O11_8 1_555 1_555
C8_13 C9_13 1_555 1_555
C14_13 C15_13 1_555 1_555
Co4_3 O1_14 1_555 1_555
O1_14 C1_14 1_555 1_555
O9_2 Co4_3 1_555 1_555
O3_14 Co4_3 1_555 1_555
N1_14 Co4_3 1_555 1_555
O4_8 Co4_3 1_555 1_555
C1_14 O5_14 1_555 1_555
N5_2 N1_14 1_555 1_555
C2_14 N1_14 1_555 1_555
O5_14 Co3_2 1_555 1_555
C3_14 C1_14 1_555 1_555
O6_8 Co3_2 1_555 1_555
C4_14 N5_2 1_555 1_555
N4_14 C2_14 1_555 1_555
C5_14 C3_14 1_555 1_555
C6_14 C3_14 1_555 1_555
H1_14 C4_14 1_555 1_555
H2_14 N4_14 1_555 1_555
H3_14 N4_14 1_555 1_555
H4_14 C5_14 1_555 1_555
H5_14 C6_14 1_555 1_555
N2_5 C2_14 1_555 1_555
C4_14 N2_5 1_555 1_555
O3_14 H12_14 1_555 1_555
O3_14 H13_14 1_555 1_555
Co4_8 O1_15 1_555 1_555
O1_15 C1_15 1_555 1_555
O9_7 Co4_8 1_555 1_555
O3_15 Co4_8 1_555 1_555
N1_15 Co4_8 1_555 1_555
C1_15 O5_15 1_555 1_555
N5_7 N1_15 1_555 1_555
C2_15 N1_15 1_555 1_555
O5_15 Co3_7 1_555 1_555
C3_15 C1_15 1_555 1_555
C4_15 N5_7 1_555 1_555
N4_15 C2_15 1_555 1_555
C5_15 C3_15 1_555 1_555
C6_15 C3_15 1_555 1_555
H1_15 C4_15 1_555 1_555
H2_15 N4_15 1_555 1_555
H3_15 N4_15 1_555 1_555
C7_14 C5_15 1_555 1_555
H4_15 C5_15 1_555 1_555
H5_15 C6_15 1_555 1_555
C8_14 C6_15 1_555 1_555
C9_14 C7_14 1_555 1_555
H6_14 C7_14 1_555 1_555
H7_14 C8_14 1_555 1_555
S1_14 C9_14 1_555 1_555
O7_14 S1_14 1_555 1_555
O8_14 S1_14 1_555 1_555
C10_14 S1_14 1_555 1_555
C11_14 C10_14 1_555 1_555
C12_14 C10_14 1_555 1_555
C13_14 C11_14 1_555 1_555
H8_14 C11_14 1_555 1_555
H9_14 C12_14 1_555 1_555
C14_14 C12_14 1_555 1_555
C15_14 C13_14 1_555 1_555
H10_14 C13_14 1_555 1_555
H11_14 C14_14 1_555 1_555
C16_15 C15_14 1_555 1_555
N2_2 C2_15 1_555 1_555
O6_7 C16_15 1_555 1_555
O4_7 C16_15 1_555 1_555
C4_15 N2_2 1_555 1_555
C8_14 C9_14 1_555 1_555
C14_14 C15_14 1_555 1_555
O3_15 H12_15 1_555 1_555
O3_15 H13_15 1_555 1_555
Co4 O1_16 1_555 1_555
O1_16 C1_16 1_555 1_555
O9_4 Co4 1_555 1_555
O3_16 Co4 1_555 1_555
N1_16 Co4 1_555 1_555
C1_16 O5_16 1_555 1_555
N5_4 N1_16 1_555 1_555
C2_16 N1_16 1_555 1_555
O5_16 Co3_4 1_555 1_555
C3_16 C1_16 1_555 1_555
C4_16 N5_4 1_555 1_555
N4_16 C2_16 1_555 1_555
C5_16 C3_16 1_555 1_555
C6_16 C3_16 1_555 1_555
H1_16 C4_16 1_555 1_555
H2_16 N4_16 1_555 1_555
H3_16 N4_16 1_555 1_555
H4_16 C5_16 1_555 1_555
H5_16 C6_16 1_555 1_555
N2_7 C2_16 1_555 1_555
C4_16 N2_7 1_555 1_555
O3_16 H12_16 1_555 1_555
O3_16 H13_16 1_555 1_555
O6_8 C16_16 1_555 1_555
O4_8 C16_16 1_555 1_555
C9_15 C7_15 1_555 1_555
H6_15 C7_15 1_555 1_555
H7_15 C8_15 1_555 1_555
S1_15 C9_15 1_555 1_555
O7_15 S1_15 1_555 1_555
O8_15 S1_15 1_555 1_555
C10_15 S1_15 1_555 1_555
C11_15 C10_15 1_555 1_555
C12_15 C10_15 1_555 1_555
C13_15 C11_15 1_555 1_555
H8_15 C11_15 1_555 1_555
H9_15 C12_15 1_555 1_555
C14_15 C12_15 1_555 1_555
C15_15 C13_15 1_555 1_555
H10_15 C13_15 1_555 1_555
H11_15 C14_15 1_555 1_555
C8_15 C9_15 1_555 1_555
C14_15 C15_15 1_555 1_555
C9_16 C7_16 1_555 1_555
H6_16 C7_16 1_555 1_555
H7_16 C8_16 1_555 1_555
S1_16 C9_16 1_555 1_555
O7_16 S1_16 1_555 1_555
O8_16 S1_16 1_555 1_555
C10_16 S1_16 1_555 1_555
C11_16 C10_16 1_555 1_555
C12_16 C10_16 1_555 1_555
C13_16 C11_16 1_555 1_555
H8_16 C11_16 1_555 1_555
H9_16 C12_16 1_555 1_555
C14_16 C12_16 1_555 1_555
C15_16 C13_16 1_555 1_555
H10_16 C13_16 1_555 1_555
H11_16 C14_16 1_555 1_555
C8_16 C9_16 1_555 1_555
C14_16 C15_16 1_555 1_555

#END
