
###############################################################################
#
# This file contains modified crystal structure data generated from the
# MOF subset of the Cambridge Structural Database (CSD) v543 
# hosted by the Cambridge Crystallographic Data Centre (CCDC).
#
# This work is licensed under the Creative Commons
# Attribution-NonCommercial-ShareAlike 4.0 International License.
# To view a copy of this license, visit
# http://creativecommons.org/licenses/by-nc-sa/4.0/
# or send a letter to
# Creative Commons, PO Box 1866, Mountain View, CA 94042, USA.
#
# CIF created using the CSD Python API on 29 September 2022
# The structure has been converted into the P1 space group
# The structure has a 3D framework
# The original CSD entry VIZRED is in the tetragonal crystal system
# The framework has been calculated to contain at least 10.0% void space
# The void calculation uses a probe of radius 1.32A, grid spacing 0.4
# H atom positions have been added when not included in the experimental data
#
###############################################################################

data_VIZRED
_chemical_formula_moiety         '(C256 H192 Cu32 N48 O124 S16)n'
_symmetry_cell_setting           triclinic
_symmetry_space_group_name_H-M   'P 1'
_symmetry_Int_Tables_number      1
_space_group_name_Hall           'P 1'
loop_
_symmetry_equiv_pos_site_id
_symmetry_equiv_pos_as_xyz
1 x,y,z
_cell_length_a                   24.344(3)
_cell_length_b                   24.344(3)
_cell_length_c                   15.067(3)
_cell_angle_alpha                90
_cell_angle_beta                 90
_cell_angle_gamma                90
_cell_volume                     8929.16
loop_
_atom_site_label
_atom_site_type_symbol
_atom_site_fract_x
_atom_site_fract_y
_atom_site_fract_z
O9 O 0.03298(16) 0.54243(18) 0.0304(3)
N4 N 0.0157(2) 0.3780(2) 0.0737(4)
Cu7 Cu 0.04516(3) 0.46515(3) 0.94599(5)
Cu1 Cu 0.93916(3) 0.40224(3) 0.05186(5)
Cu2 Cu 0.95484(3) 0.53485(3) 0.05401(5)
S1 S 0.60227(7) 0.50374(10) 0.10923(13)
O3 O 0.86493(17) 0.43434(18) 0.0450(3)
O4 O 0.87500(18) 0.52526(19) 0.0634(3)
O5 O 0.5919(2) 0.5578(4) 0.1427(5)
O6 O 0.5825(2) 0.4570(3) 0.1576(4)
N1 N 0.8720(2) 0.2657(2) 0.1763(4)
N2 N 0.9056(2) 0.3437(2) 0.1262(4)
N3 N 0.8455(2) 0.30775(19) 0.2190(4)
C1 C 0.9068(3) 0.2888(3) 0.1212(5)
H1 H 0.9297 0.2693 0.0831
C2 C 0.8672(3) 0.3534(2) 0.1874(4)
H2 H 0.8569 0.3884 0.2058
C3 C 0.8471(2) 0.4820(3) 0.0589(4)
C4 C 0.7860(2) 0.4875(3) 0.0705(4)
C5 C 0.7625(3) 0.5391(3) 0.0798(6)
H3 H 0.7845 0.5703 0.0784
C6 C 0.7061(3) 0.5442(4) 0.0911(6)
H4 H 0.6900 0.5787 0.0957
C7 C 0.6742(2) 0.4972(3) 0.0954(4)
C8 C 0.6973(3) 0.4457(3) 0.0873(5)
H5 H 0.6754 0.4145 0.0904
C9 C 0.7531(3) 0.4409(3) 0.0744(5)
H6 H 0.7688 0.4063 0.0683
Cu4 Cu 0.84776(3) 0.18916(3) 0.19814(5)
Cu6 Cu 0.78485(3) 0.29516(3) 0.30401(5)
O10 O 0.9652(4) 0.5441(6) 0.1935(7)
O11 O 0.9536(5) 0.4627(7) 0.1801(8)
O1 O 0.96702(16) 0.45757(18) 0.9696(3)
O2 O 0.9150(4) 0.3403(4) 0.9243(6)
O7 O 0.5348(4) 0.4559(6) 0.6935(7)
O8 O 0.5464(5) 0.5373(7) 0.6801(8)
C10 C 0.5773(3) 0.5004(3) 0.9995(5)
C11 C 0.5738(4) 0.5469(4) 0.9494(7)
H7 H 0.5807 0.5811 0.9746
C12 C 0.5597(4) 0.5427(5) 0.8594(7)
H8 H 0.5568 0.5744 0.8253
C13 C 0.5504(4) 0.4940(6) 0.8220(7)
C14 C 0.5522(4) 0.4472(5) 0.8726(7)
H9 H 0.5443 0.4133 0.8471
C15 C 0.5659(3) 0.4504(4) 0.9631(6)
H10 H 0.5672 0.4188 0.9977
C16 C 0.5416(6) 0.4952(9) 0.7188(10)
Cu3 Cu 0.56084(3) 0.59776(3) 0.55186(5)
Cu5 Cu 0.54516(3) 0.46515(3) 0.55401(5)
N5 N 0.94225(19) 0.5955(2) 0.9690(4)
H11 H 0.948725 0.331495 0.890066
H12 H 0.898543 0.305828 0.947414
S1_2 S 0.89773(7) 0.49626(10) 0.60923(13)
O1_2 O 0.53298(16) 0.54243(18) 0.4696(3)
O2_2 O 0.5850(4) 0.6597(4) 0.4243(6)
O3_2 O 0.63507(17) 0.56566(18) 0.5450(3)
O4_2 O 0.62500(18) 0.47474(19) 0.5634(3)
O5_2 O 0.9081(2) 0.4422(4) 0.6427(5)
O6_2 O 0.9175(2) 0.5430(3) 0.6576(4)
N1_2 N 0.6280(2) 0.7343(2) 0.6763(4)
N2_2 N 0.5944(2) 0.6563(2) 0.6262(4)
N3_2 N 0.6545(2) 0.69225(19) 0.7190(4)
C1_2 C 0.5932(3) 0.7112(3) 0.6212(5)
H1_2 H 0.5703 0.7307 0.5831
C2_2 C 0.6328(3) 0.6466(2) 0.6874(4)
H2_2 H 0.6431 0.6116 0.7058
C3_2 C 0.6529(2) 0.5180(3) 0.5589(4)
C4_2 C 0.7140(2) 0.5125(3) 0.5705(4)
C5_2 C 0.7375(3) 0.4609(3) 0.5798(6)
H3_2 H 0.7155 0.4297 0.5784
C6_2 C 0.7939(3) 0.4558(4) 0.5911(6)
H4_2 H 0.8100 0.4213 0.5957
C7_2 C 0.8258(2) 0.5028(3) 0.5954(4)
C8_2 C 0.8027(3) 0.5543(3) 0.5873(5)
H5_2 H 0.8246 0.5855 0.5904
C9_2 C 0.7469(3) 0.5591(3) 0.5744(5)
H6_2 H 0.7312 0.5937 0.5683
C10_2 C 0.9227(3) 0.4996(3) 0.4995(5)
C11_2 C 0.9262(4) 0.4531(4) 0.4494(7)
H7_2 H 0.9193 0.4189 0.4746
C12_2 C 0.9403(4) 0.4573(5) 0.3594(7)
H8_2 H 0.9432 0.4256 0.3253
C13_2 C 0.9496(4) 0.5060(6) 0.3220(7)
C14_2 C 0.9478(4) 0.5528(5) 0.3726(7)
H9_2 H 0.9557 0.5867 0.3471
C15_2 C 0.9341(3) 0.5496(4) 0.4631(6)
H10_2 H 0.9328 0.5812 0.4977
C16_2 C 0.9584(6) 0.5048(9) 0.2188(10)
Cu4_2 Cu 0.65224(3) 0.81084(3) 0.69814(5)
Cu6_2 Cu 0.71515(3) 0.70484(3) 0.80401(5)
Cu7_2 Cu 0.45484(3) 0.53485(3) 0.44599(5)
O9_2 O 0.46702(16) 0.45757(18) 0.5304(3)
N4_2 N 0.4843(2) 0.6220(2) 0.5737(4)
N5_2 N 0.55775(19) 0.4045(2) 0.4690(4)
H11_2 H 0.551275 0.668505 0.390066
H12_2 H 0.601457 0.694172 0.447414
Cu1_2 Cu 0.34776(3) 0.18916(3) 0.30186(5)
Cu2_2 Cu 0.21515(3) 0.20484(3) 0.30401(5)
O1_3 O 0.29243(18) 0.21702(16) 0.2196(3)
O2_3 O 0.4097(4) 0.1650(4) 0.1743(6)
O3_3 O 0.31566(18) 0.11493(17) 0.2950(3)
O4_3 O 0.22474(19) 0.12500(18) 0.3134(3)
N1_3 N 0.4843(2) 0.1220(2) 0.4263(4)
N2_3 N 0.4063(2) 0.1556(2) 0.3762(4)
N3_3 N 0.44225(19) 0.0955(2) 0.4690(4)
C1_3 C 0.4612(3) 0.1568(3) 0.3712(5)
H1_3 H 0.4807 0.1797 0.3331
C2_3 C 0.3966(2) 0.1172(3) 0.4374(4)
H2_3 H 0.3616 0.1069 0.4558
C3_3 C 0.2680(3) 0.0971(2) 0.3089(4)
C4_3 C 0.2625(3) 0.0360(2) 0.3205(4)
C5_3 C 0.2109(3) 0.0125(3) 0.3298(6)
H3_3 H 0.1797 0.0345 0.3284
C9_3 C 0.3091(3) 0.0031(3) 0.3244(5)
H6_3 H 0.3437 0.0188 0.3183
Cu4_3 Cu 0.56084(3) 0.09776(3) 0.44814(5)
Cu6_3 Cu 0.45484(3) 0.03485(3) 0.55401(5)
Cu7_3 Cu 0.28485(3) 0.29516(3) 0.19599(5)
O9_3 O 0.20757(18) 0.28298(16) 0.2804(3)
O10_2 O 0.2059(6) 0.2152(4) 0.4435(7)
O11_2 O 0.2873(7) 0.2036(5) 0.4301(8)
N4_3 N 0.3720(2) 0.2657(2) 0.3237(4)
N5_3 N 0.1545(2) 0.19225(19) 0.2190(4)
H11_3 H 0.418505 0.198725 0.140066
H12_3 H 0.444172 0.148543 0.197414
O7_2 O 0.2941(6) 0.7848(4) 0.9435(7)
O8_2 O 0.2127(7) 0.7964(5) 0.9301(8)
C16_3 C 0.2548(9) 0.7916(6) 0.9688(10)
Cu3_2 Cu 0.15224(3) 0.81084(3) 0.80186(5)
Cu5_2 Cu 0.28485(3) 0.79516(3) 0.80401(5)
S1_3 S 0.25374(10) 0.14773(7) 0.85923(13)
O5_3 O 0.3078(4) 0.1581(2) 0.8927(5)
O6_3 O 0.2070(3) 0.1675(2) 0.9076(4)
C6_3 C 0.2942(4) 0.0439(3) 0.8411(6)
H4_3 H 0.3287 0.0600 0.8457
C7_3 C 0.2472(3) 0.0758(2) 0.8454(4)
C8_3 C 0.1957(3) 0.0527(3) 0.8373(5)
H5_3 H 0.1645 0.0746 0.8404
C10_3 C 0.2504(3) 0.1727(3) 0.7495(5)
C11_3 C 0.2969(4) 0.1762(4) 0.6994(7)
H7_3 H 0.3311 0.1693 0.7246
C12_3 C 0.2927(5) 0.1903(4) 0.6094(7)
H8_3 H 0.3244 0.1932 0.5753
C13_3 C 0.2440(6) 0.1996(4) 0.5720(7)
C14_3 C 0.1972(5) 0.1978(4) 0.6226(7)
H9_3 H 0.1633 0.2057 0.5971
C15_3 C 0.2004(4) 0.1841(3) 0.7131(6)
H10_3 H 0.1688 0.1828 0.7477
C16_4 C 0.2452(9) 0.2084(6) 0.4688(10)
Cu6_4 Cu 0.04516(3) 0.96515(3) 0.05401(5)
O1_4 O 0.20757(18) 0.78298(16) 0.7196(3)
O2_4 O 0.0903(4) 0.8350(4) 0.6743(6)
O3_4 O 0.18434(18) 0.88507(17) 0.7950(3)
O4_4 O 0.27526(19) 0.87500(18) 0.8134(3)
N1_4 N 0.0157(2) 0.8780(2) 0.9263(4)
N2_4 N 0.0937(2) 0.8444(2) 0.8762(4)
N3_4 N 0.05775(19) 0.9045(2) 0.9690(4)
C1_4 C 0.0388(3) 0.8432(3) 0.8712(5)
H1_4 H 0.0193 0.8203 0.8331
C2_4 C 0.1034(2) 0.8828(3) 0.9374(4)
H2_4 H 0.1384 0.8931 0.9558
C3_4 C 0.2320(3) 0.9029(2) 0.8089(4)
C4_4 C 0.2375(3) 0.9640(2) 0.8205(4)
C5_4 C 0.2891(3) 0.9875(3) 0.8298(6)
H3_4 H 0.3203 0.9655 0.8284
C9_4 C 0.1909(3) 0.9969(3) 0.8244(5)
H6_4 H 0.1563 0.9812 0.8183
Cu7_4 Cu 0.21515(3) 0.70484(3) 0.69599(5)
O9_4 O 0.29243(18) 0.71702(16) 0.7804(3)
N4_4 N 0.1280(2) 0.7343(2) 0.8237(4)
N5_4 N 0.3455(2) 0.80775(19) 0.7190(4)
H11_4 H 0.0814951 0.801275 0.640066
H12_4 H 0.0558276 0.851457 0.697414
Cu4_4 Cu 0.93916(3) 0.90224(3) 0.94814(5)
S1_4 S 0.10227(7) 0.00374(10) 0.60923(13)
O4_5 O 0.37500(18) 0.02526(19) 0.5634(3)
O5_4 O 0.0919(2) 0.0578(4) 0.6427(5)
O8_3 O 0.0464(5) 0.0373(7) 0.1801(8)
C5_5 C 0.2625(3) 0.0391(3) 0.5798(6)
H3_5 H 0.2845 0.0703 0.5784
C6_4 C 0.2061(3) 0.0442(4) 0.5911(6)
H4_4 H 0.1900 0.0787 0.5957
C10_4 C 0.0773(3) 0.0004(3) 0.4995(5)
C11_4 C 0.0738(4) 0.0469(4) 0.4494(7)
H7_4 H 0.0807 0.0811 0.4746
C12_4 C 0.0597(4) 0.0427(5) 0.3594(7)
H8_4 H 0.0568 0.0744 0.3253
Cu3_3 Cu 0.06084(3) 0.09776(3) 0.05186(5)
O9_5 O 0.53298(16) 0.04243(18) 0.5304(3)
O10_3 O 0.4652(4) 0.0441(6) 0.6935(7)
Cu1_3 Cu 0.43916(3) 0.90224(3) 0.55186(5)
O1_5 O 0.46702(16) 0.95757(18) 0.4696(3)
O2_5 O 0.4150(4) 0.8403(4) 0.4243(6)
O3_5 O 0.36493(17) 0.93434(18) 0.5450(3)
O6_4 O 0.0825(2) 0.9570(3) 0.6576(4)
O7_3 O 0.0348(4) 0.9559(6) 0.1935(7)
N1_5 N 0.3720(2) 0.7657(2) 0.6763(4)
N2_5 N 0.4056(2) 0.8437(2) 0.6262(4)
C1_5 C 0.4068(3) 0.7888(3) 0.6212(5)
H1_5 H 0.4297 0.7693 0.5831
C2_5 C 0.3672(3) 0.8534(2) 0.6874(4)
H2_5 H 0.3569 0.8884 0.7058
C3_5 C 0.3471(2) 0.9820(3) 0.5589(4)
C4_5 C 0.2860(2) 0.9875(3) 0.5705(4)
C7_4 C 0.1742(2) 0.9972(3) 0.5954(4)
C8_4 C 0.1973(3) 0.9457(3) 0.5873(5)
H5_4 H 0.1754 0.9145 0.5904
C9_5 C 0.2531(3) 0.9409(3) 0.5744(5)
H6_5 H 0.2688 0.9063 0.5683
C13_4 C 0.0504(4) 0.9940(6) 0.3220(7)
C14_4 C 0.0522(4) 0.9472(5) 0.3726(7)
H9_4 H 0.0443 0.9133 0.3471
C15_4 C 0.0659(3) 0.9504(4) 0.4631(6)
H10_4 H 0.0672 0.9188 0.4977
C16_5 C 0.0416(6) 0.9952(9) 0.2188(10)
Cu4_5 Cu 0.34776(3) 0.68916(3) 0.69814(5)
Cu7_5 Cu 0.54516(3) 0.96515(3) 0.44599(5)
O11_3 O 0.4536(5) 0.9627(7) 0.6801(8)
N4_5 N 0.5157(2) 0.8780(2) 0.5737(4)
H11_5 H 0.448725 0.831495 0.390066
H12_5 H 0.398543 0.805828 0.447414
O3_6 O 0.13507(17) 0.06566(18) 0.0450(3)
O6_5 O 0.4175(2) 0.0430(3) 0.1576(4)
N1_6 N 0.1280(2) 0.2343(2) 0.1763(4)
N2_6 N 0.0944(2) 0.1563(2) 0.1262(4)
C1_6 C 0.0932(3) 0.2112(3) 0.1212(5)
H1_6 H 0.0703 0.2307 0.0831
C2_6 C 0.1328(3) 0.1466(2) 0.1874(4)
H2_6 H 0.1431 0.1116 0.2058
C3_6 C 0.1529(2) 0.0180(3) 0.0589(4)
C4_6 C 0.2140(2) 0.0125(3) 0.0705(4)
C7_5 C 0.3258(2) 0.0028(3) 0.0954(4)
C8_5 C 0.3027(3) 0.0543(3) 0.0873(5)
H5_5 H 0.3246 0.0855 0.0904
C9_6 C 0.2469(3) 0.0591(3) 0.0744(5)
H6_6 H 0.2312 0.0937 0.0683
Cu4_6 Cu 0.15224(3) 0.31084(3) 0.19814(5)
O1_6 O 0.03298(16) 0.04243(18) 0.9696(3)
O2_6 O 0.0850(4) 0.1597(4) 0.9243(6)
C13_5 C 0.4496(4) 0.0060(6) 0.8220(7)
C14_5 C 0.4478(4) 0.0528(5) 0.8726(7)
H9_5 H 0.4557 0.0867 0.8471
C15_5 C 0.4341(3) 0.0496(4) 0.9631(6)
H10_5 H 0.4328 0.0812 0.9977
C16_6 C 0.4584(6) 0.0048(9) 0.7188(10)
H11_6 H 0.0512749 0.168505 0.890066
H12_6 H 0.101457 0.194172 0.947414
S1_5 S 0.39773(7) 0.99626(10) 0.10923(13)
O4_6 O 0.12500(18) 0.97474(19) 0.0634(3)
O5_5 O 0.4081(2) 0.9422(4) 0.1427(5)
C5_6 C 0.2375(3) 0.9609(3) 0.0798(6)
H3_6 H 0.2155 0.9297 0.0784
C6_5 C 0.2939(3) 0.9558(4) 0.0911(6)
H4_5 H 0.3100 0.9213 0.0957
C10_5 C 0.4227(3) 0.9996(3) 0.9995(5)
C11_5 C 0.4262(4) 0.9531(4) 0.9494(7)
H7_5 H 0.4193 0.9189 0.9746
C12_5 C 0.4403(4) 0.9573(5) 0.8594(7)
H8_5 H 0.4432 0.9256 0.8253
N4_6 N 0.9843(2) 0.1220(2) 0.0737(4)
Cu7_6 Cu 0.95484(3) 0.03485(3) 0.94599(5)
O9_6 O 0.96702(16) 0.95757(18) 0.0304(3)
Cu4_7 Cu 0.06084(3) 0.59776(3) 0.94814(5)
Cu1_4 Cu 0.84776(3) 0.68916(3) 0.80186(5)
S1_6 S 0.74626(10) 0.35227(7) 0.85923(13)
O1_7 O 0.79243(18) 0.71702(16) 0.7196(3)
O2_7 O 0.9097(4) 0.6650(4) 0.6743(6)
O3_7 O 0.81566(18) 0.61493(17) 0.7950(3)
O4_7 O 0.72474(19) 0.62500(18) 0.8134(3)
O5_6 O 0.6922(4) 0.3419(2) 0.8927(5)
O6_6 O 0.7930(3) 0.3325(2) 0.9076(4)
O7_4 O 0.7941(6) 0.2848(4) 0.4435(7)
O8_4 O 0.7127(7) 0.2964(5) 0.4301(8)
N1_7 N 0.9843(2) 0.6220(2) 0.9263(4)
N2_7 N 0.9063(2) 0.6556(2) 0.8762(4)
C1_7 C 0.9612(3) 0.6568(3) 0.8712(5)
H1_7 H 0.9807 0.6797 0.8331
C2_7 C 0.8966(2) 0.6172(3) 0.9374(4)
H2_7 H 0.8616 0.6069 0.9558
C3_7 C 0.7680(3) 0.5971(2) 0.8089(4)
C4_7 C 0.7625(3) 0.5360(2) 0.8205(4)
C5_7 C 0.7109(3) 0.5125(3) 0.8298(6)
H3_7 H 0.6797 0.5345 0.8284
C6_6 C 0.7058(4) 0.4561(3) 0.8411(6)
H4_6 H 0.6713 0.4400 0.8457
C7_6 C 0.7528(3) 0.4242(2) 0.8454(4)
C8_6 C 0.8043(3) 0.4473(3) 0.8373(5)
H5_6 H 0.8355 0.4254 0.8404
C9_7 C 0.8091(3) 0.5031(3) 0.8244(5)
H6_7 H 0.8437 0.5188 0.8183
C10_6 C 0.7496(3) 0.3273(3) 0.7495(5)
C11_6 C 0.7031(4) 0.3238(4) 0.6994(7)
H7_6 H 0.6689 0.3307 0.7246
C12_6 C 0.7073(5) 0.3097(4) 0.6094(7)
H8_6 H 0.6756 0.3068 0.5753
C13_6 C 0.7560(6) 0.3004(4) 0.5720(7)
C14_6 C 0.8028(5) 0.3022(4) 0.6226(7)
H9_6 H 0.8367 0.2943 0.5971
C15_6 C 0.7996(4) 0.3159(3) 0.7131(6)
H10_6 H 0.8312 0.3172 0.7477
C16_7 C 0.7548(9) 0.2916(6) 0.4688(10)
Cu3_4 Cu 0.65224(3) 0.31084(3) 0.30186(5)
Cu7_7 Cu 0.78485(3) 0.79516(3) 0.69599(5)
O9_7 O 0.70757(18) 0.78298(16) 0.7804(3)
O10_4 O 0.7059(6) 0.7152(4) 0.9435(7)
O11_4 O 0.7873(7) 0.7036(5) 0.9301(8)
N4_7 N 0.8720(2) 0.7657(2) 0.8237(4)
H11_7 H 0.918505 0.698725 0.640066
H12_7 H 0.944172 0.648543 0.697414
S1_7 S 0.75374(10) 0.64773(7) 0.35923(13)
O1_8 O 0.70757(18) 0.28298(16) 0.2196(3)
O2_8 O 0.5903(4) 0.3350(4) 0.1743(6)
O3_8 O 0.68434(18) 0.38507(17) 0.2950(3)
O4_8 O 0.77526(19) 0.37500(18) 0.3134(3)
O5_7 O 0.8078(4) 0.6581(2) 0.3927(5)
O6_7 O 0.7070(3) 0.6675(2) 0.4076(4)
N1_8 N 0.5157(2) 0.3780(2) 0.4263(4)
N2_8 N 0.5937(2) 0.3444(2) 0.3762(4)
C1_8 C 0.5388(3) 0.3432(3) 0.3712(5)
H1_8 H 0.5193 0.3203 0.3331
C2_8 C 0.6034(2) 0.3828(3) 0.4374(4)
H2_8 H 0.6384 0.3931 0.4558
C3_8 C 0.7320(3) 0.4029(2) 0.3089(4)
C4_8 C 0.7375(3) 0.4640(2) 0.3205(4)
C5_8 C 0.7891(3) 0.4875(3) 0.3298(6)
H3_8 H 0.8203 0.4655 0.3284
C6_7 C 0.7942(4) 0.5439(3) 0.3411(6)
H4_7 H 0.8287 0.5600 0.3457
C7_7 C 0.7472(3) 0.5758(2) 0.3454(4)
C8_7 C 0.6957(3) 0.5527(3) 0.3373(5)
H5_7 H 0.6645 0.5746 0.3404
C9_8 C 0.6909(3) 0.4969(3) 0.3244(5)
H6_8 H 0.6563 0.4812 0.3183
C10_7 C 0.7504(3) 0.6727(3) 0.2495(5)
C11_7 C 0.7969(4) 0.6762(4) 0.1994(7)
H7_7 H 0.8311 0.6693 0.2246
C12_7 C 0.7927(5) 0.6903(4) 0.1094(7)
H8_7 H 0.8244 0.6932 0.0753
C13_7 C 0.7440(6) 0.6996(4) 0.0720(7)
C14_7 C 0.6972(5) 0.6978(4) 0.1226(7)
H9_7 H 0.6633 0.7057 0.0971
C15_7 C 0.7004(4) 0.6841(3) 0.2131(6)
H10_7 H 0.6688 0.6828 0.2477
Cu4_8 Cu 0.43916(3) 0.40224(3) 0.44814(5)
Cu7_8 Cu 0.71515(3) 0.20484(3) 0.19599(5)
O9_8 O 0.79243(18) 0.21702(16) 0.2804(3)
N4_8 N 0.6280(2) 0.2343(2) 0.3237(4)
H11_8 H 0.581495 0.301275 0.140066
H12_8 H 0.555828 0.351457 0.197414
C16_8 C 0.7452(9) 0.7084(6) 0.9688(10)
O2_9 O 0.0850(4) 0.6597(4) 0.0757(6)
O7_5 O 0.4652(4) 0.5441(6) 0.3065(7)
O8_5 O 0.4536(5) 0.4627(7) 0.3199(8)
C10_8 C 0.4227(3) 0.4996(3) 0.0005(5)
C11_8 C 0.4262(4) 0.4531(4) 0.0506(7)
H7_8 H 0.4193 0.4189 0.0254
C12_8 C 0.4403(4) 0.4573(5) 0.1406(7)
H8_8 H 0.4432 0.4256 0.1747
C13_8 C 0.4496(4) 0.5060(6) 0.1780(7)
C14_8 C 0.4478(4) 0.5528(5) 0.1274(7)
H9_8 H 0.4557 0.5867 0.1529
C15_8 C 0.4341(3) 0.5496(4) 0.0369(6)
H10_8 H 0.4328 0.5812 0.0023
C16_9 C 0.4584(6) 0.5048(9) 0.2812(10)
N5_5 N 0.05775(19) 0.4045(2) 0.0310(4)
H11_9 H 0.0512749 0.668505 0.109934
H12_9 H 0.101457 0.694172 0.0525857
S1_8 S 0.39773(7) 0.49626(10) 0.89077(13)
O3_9 O 0.13507(17) 0.56566(18) 0.9550(3)
O4_9 O 0.12500(18) 0.47474(19) 0.9366(3)
O5_8 O 0.4081(2) 0.4422(4) 0.8573(5)
O6_8 O 0.4175(2) 0.5430(3) 0.8424(4)
N2_9 N 0.0944(2) 0.6563(2) 0.8738(4)
N3_5 N 0.1545(2) 0.69225(19) 0.7810(4)
C1_9 C 0.0932(3) 0.7112(3) 0.8788(5)
H1_9 H 0.0703 0.7307 0.9169
C2_9 C 0.1328(3) 0.6466(2) 0.8126(4)
H2_9 H 0.1431 0.6116 0.7942
C3_9 C 0.1529(2) 0.5180(3) 0.9411(4)
C4_9 C 0.2140(2) 0.5125(3) 0.9295(4)
C5_9 C 0.2375(3) 0.4609(3) 0.9202(6)
H3_9 H 0.2155 0.4297 0.9216
C6_8 C 0.2939(3) 0.4558(4) 0.9089(6)
H4_8 H 0.3100 0.4213 0.9043
C7_8 C 0.3258(2) 0.5028(3) 0.9046(4)
C8_8 C 0.3027(3) 0.5543(3) 0.9127(5)
H5_8 H 0.3246 0.5855 0.9096
C9_9 C 0.2469(3) 0.5591(3) 0.9256(5)
H6_9 H 0.2312 0.5937 0.9317
O10_5 O 0.0348(4) 0.4559(6) 0.8065(7)
O11_5 O 0.0464(5) 0.5373(7) 0.8199(8)
S1_9 S 0.10227(7) 0.50374(10) 0.39077(13)
O2_10 O 0.4150(4) 0.3403(4) 0.5757(6)
O3_10 O 0.36493(17) 0.43434(18) 0.4550(3)
O4_10 O 0.37500(18) 0.52526(19) 0.4366(3)
O5_9 O 0.0919(2) 0.5578(4) 0.3573(5)
O6_9 O 0.0825(2) 0.4570(3) 0.3424(4)
N2_10 N 0.4056(2) 0.3437(2) 0.3738(4)
N3_6 N 0.3455(2) 0.30775(19) 0.2810(4)
C1_10 C 0.4068(3) 0.2888(3) 0.3788(5)
H1_10 H 0.4297 0.2693 0.4169
C2_10 C 0.3672(3) 0.3534(2) 0.3126(4)
H2_10 H 0.3569 0.3884 0.2942
C3_10 C 0.3471(2) 0.4820(3) 0.4411(4)
C4_10 C 0.2860(2) 0.4875(3) 0.4295(4)
C5_10 C 0.2625(3) 0.5391(3) 0.4202(6)
H3_10 H 0.2845 0.5703 0.4216
C6_9 C 0.2061(3) 0.5442(4) 0.4089(6)
H4_9 H 0.1900 0.5787 0.4043
C7_9 C 0.1742(2) 0.4972(3) 0.4046(4)
C8_9 C 0.1973(3) 0.4457(3) 0.4127(5)
H5_9 H 0.1754 0.4145 0.4096
C9_10 C 0.2531(3) 0.4409(3) 0.4256(5)
H6_10 H 0.2688 0.4063 0.4317
C10_9 C 0.0773(3) 0.5004(3) 0.5005(5)
C11_9 C 0.0738(4) 0.5469(4) 0.5506(7)
H7_9 H 0.0807 0.5811 0.5254
C12_9 C 0.0597(4) 0.5427(5) 0.6406(7)
H8_9 H 0.0568 0.5744 0.6747
C13_9 C 0.0504(4) 0.4940(6) 0.6780(7)
C14_9 C 0.0522(4) 0.4472(5) 0.6274(7)
H9_9 H 0.0443 0.4133 0.6529
C15_9 C 0.0659(3) 0.4504(4) 0.5369(6)
H10_9 H 0.0672 0.4188 0.5023
C16_10 C 0.0416(6) 0.4952(9) 0.7812(10)
N5_6 N 0.44225(19) 0.5955(2) 0.5310(4)
H11_10 H 0.448725 0.331495 0.609934
H12_10 H 0.398543 0.305828 0.552586
O7_6 O 0.7059(6) 0.2152(4) 0.0565(7)
O8_6 O 0.7873(7) 0.2036(5) 0.0699(8)
C16_11 C 0.7452(9) 0.2084(6) 0.0312(10)
O2_11 O 0.5903(4) 0.8350(4) 0.8257(6)
O3_11 O 0.68434(18) 0.88507(17) 0.7050(3)
O4_11 O 0.77526(19) 0.87500(18) 0.6866(3)
N2_11 N 0.5937(2) 0.8444(2) 0.6238(4)
N3_7 N 0.55775(19) 0.9045(2) 0.5310(4)
C1_11 C 0.5388(3) 0.8432(3) 0.6288(5)
H1_11 H 0.5193 0.8203 0.6669
C2_11 C 0.6034(2) 0.8828(3) 0.5626(4)
H2_11 H 0.6384 0.8931 0.5442
C3_11 C 0.7320(3) 0.9029(2) 0.6911(4)
C4_11 C 0.7375(3) 0.9640(2) 0.6795(4)
C5_11 C 0.7891(3) 0.9875(3) 0.6702(6)
H3_11 H 0.8203 0.9655 0.6716
C9_11 C 0.6909(3) 0.9969(3) 0.6756(5)
H6_11 H 0.6563 0.9812 0.6817
O10_6 O 0.7941(6) 0.7848(4) 0.5565(7)
O11_6 O 0.7127(7) 0.7964(5) 0.5699(8)
N5_7 N 0.8455(2) 0.80775(19) 0.7810(4)
H11_11 H 0.581495 0.801275 0.859934
H12_11 H 0.555828 0.851457 0.802586
O2_12 O 0.9097(4) 0.1650(4) 0.3257(6)
O3_12 O 0.81566(18) 0.11493(17) 0.2050(3)
O4_12 O 0.72474(19) 0.12500(18) 0.1866(3)
N2_12 N 0.9063(2) 0.1556(2) 0.1238(4)
N3_8 N 0.94225(19) 0.0955(2) 0.0310(4)
C1_12 C 0.9612(3) 0.1568(3) 0.1288(5)
H1_12 H 0.9807 0.1797 0.1669
C2_12 C 0.8966(2) 0.1172(3) 0.0626(4)
H2_12 H 0.8616 0.1069 0.0442
C3_12 C 0.7680(3) 0.0971(2) 0.1911(4)
C4_12 C 0.7625(3) 0.0360(2) 0.1795(4)
C5_12 C 0.7109(3) 0.0125(3) 0.1702(6)
H3_12 H 0.6797 0.0345 0.1716
C9_12 C 0.8091(3) 0.0031(3) 0.1756(5)
H6_12 H 0.8437 0.0188 0.1817
N5_8 N 0.6545(2) 0.19225(19) 0.2810(4)
H11_12 H 0.918505 0.198725 0.359934
H12_12 H 0.944172 0.148543 0.302586
S1_10 S 0.74626(10) 0.85227(7) 0.14077(13)
O5_10 O 0.6922(4) 0.8419(2) 0.1073(5)
O6_10 O 0.7930(3) 0.8325(2) 0.0924(4)
C6_10 C 0.7058(4) 0.9561(3) 0.1589(6)
H4_10 H 0.6713 0.9400 0.1543
C7_10 C 0.7528(3) 0.9242(2) 0.1546(4)
C8_10 C 0.8043(3) 0.9473(3) 0.1627(5)
H5_10 H 0.8355 0.9254 0.1596
C10_10 C 0.7496(3) 0.8273(3) 0.2505(5)
C11_10 C 0.7031(4) 0.8238(4) 0.3006(7)
H7_10 H 0.6689 0.8307 0.2754
C12_10 C 0.7073(5) 0.8097(4) 0.3906(7)
H8_10 H 0.6756 0.8068 0.4247
C13_10 C 0.7560(6) 0.8004(4) 0.4280(7)
C14_10 C 0.8028(5) 0.8022(4) 0.3774(7)
H9_10 H 0.8367 0.7943 0.4029
C15_10 C 0.7996(4) 0.8159(3) 0.2869(6)
H10_10 H 0.8312 0.8172 0.2523
C16_12 C 0.7548(9) 0.7916(6) 0.5312(10)
O2_13 O 0.5850(4) 0.1597(4) 0.5757(6)
O3_13 O 0.63507(17) 0.06566(18) 0.4550(3)
O6_11 O 0.9175(2) 0.0430(3) 0.3424(4)
O7_7 O 0.9652(4) 0.0441(6) 0.8065(7)
N2_13 N 0.5944(2) 0.1563(2) 0.3738(4)
C1_13 C 0.5932(3) 0.2112(3) 0.3788(5)
H1_13 H 0.5703 0.2307 0.4169
C2_13 C 0.6328(3) 0.1466(2) 0.3126(4)
H2_13 H 0.6431 0.1116 0.2942
C3_13 C 0.6529(2) 0.0180(3) 0.4411(4)
C4_13 C 0.7140(2) 0.0125(3) 0.4295(4)
C7_11 C 0.8258(2) 0.0028(3) 0.4046(4)
C8_11 C 0.8027(3) 0.0543(3) 0.4127(5)
H5_11 H 0.8246 0.0855 0.4096
C9_13 C 0.7469(3) 0.0591(3) 0.4256(5)
H6_13 H 0.7312 0.0937 0.4317
C13_11 C 0.9496(4) 0.0060(6) 0.6780(7)
C14_11 C 0.9478(4) 0.0528(5) 0.6274(7)
H9_11 H 0.9557 0.0867 0.6529
C15_11 C 0.9341(3) 0.0496(4) 0.5369(6)
H10_11 H 0.9328 0.0812 0.5023
C16_13 C 0.9584(6) 0.0048(9) 0.7812(10)
O11_7 O 0.5464(5) 0.0373(7) 0.3199(8)
H11_13 H 0.551275 0.168505 0.609934
H12_13 H 0.601457 0.194172 0.552586
S1_11 S 0.89773(7) 0.99626(10) 0.39077(13)
O4_13 O 0.62500(18) 0.97474(19) 0.4366(3)
O5_11 O 0.9081(2) 0.9422(4) 0.3573(5)
O8_7 O 0.9536(5) 0.9627(7) 0.8199(8)
C5_13 C 0.7375(3) 0.9609(3) 0.4202(6)
H3_13 H 0.7155 0.9297 0.4216
C6_11 C 0.7939(3) 0.9558(4) 0.4089(6)
H4_11 H 0.8100 0.9213 0.4043
C10_11 C 0.9227(3) 0.9996(3) 0.5005(5)
C11_11 C 0.9262(4) 0.9531(4) 0.5506(7)
H7_11 H 0.9193 0.9189 0.5254
C12_11 C 0.9403(4) 0.9573(5) 0.6406(7)
H8_11 H 0.9432 0.9256 0.6747
O10_7 O 0.5348(4) 0.9559(6) 0.3065(7)
C10_12 C 0.5773(3) 0.0004(3) 0.0005(5)
C11_12 C 0.5738(4) 0.0469(4) 0.0506(7)
H7_12 H 0.5807 0.0811 0.0254
C12_12 C 0.5597(4) 0.0427(5) 0.1406(7)
H8_12 H 0.5568 0.0744 0.1747
S1_12 S 0.60227(7) 0.00374(10) 0.89077(13)
O4_14 O 0.87500(18) 0.02526(19) 0.9366(3)
O5_12 O 0.5919(2) 0.0578(4) 0.8573(5)
C5_14 C 0.7625(3) 0.0391(3) 0.9202(6)
H3_14 H 0.7845 0.0703 0.9216
C6_12 C 0.7061(3) 0.0442(4) 0.9089(6)
H4_12 H 0.6900 0.0787 0.9043
O2_14 O 0.9150(4) 0.8403(4) 0.0757(6)
C13_12 C 0.5504(4) 0.9940(6) 0.1780(7)
C14_12 C 0.5522(4) 0.9472(5) 0.1274(7)
H9_12 H 0.5443 0.9133 0.1529
C15_12 C 0.5659(3) 0.9504(4) 0.0369(6)
H10_12 H 0.5672 0.9188 0.0023
C16_14 C 0.5416(6) 0.9952(9) 0.2812(10)
H11_14 H 0.948725 0.831495 0.109934
H12_14 H 0.898543 0.805828 0.0525857
O3_14 O 0.86493(17) 0.93434(18) 0.9550(3)
O6_12 O 0.5825(2) 0.9570(3) 0.8424(4)
N2_14 N 0.9056(2) 0.8437(2) 0.8738(4)
C1_14 C 0.9068(3) 0.7888(3) 0.8788(5)
H1_14 H 0.9297 0.7693 0.9169
C2_14 C 0.8672(3) 0.8534(2) 0.8126(4)
H2_14 H 0.8569 0.8884 0.7942
C3_14 C 0.8471(2) 0.9820(3) 0.9411(4)
C4_14 C 0.7860(2) 0.9875(3) 0.9295(4)
C7_12 C 0.6742(2) 0.9972(3) 0.9046(4)
C8_12 C 0.6973(3) 0.9457(3) 0.9127(5)
H5_12 H 0.6754 0.9145 0.9096
C9_14 C 0.7531(3) 0.9409(3) 0.9256(5)
H6_14 H 0.7688 0.9063 0.9317
S1_13 S 0.25374(10) 0.64773(7) 0.14077(13)
O2_15 O 0.0903(4) 0.3350(4) 0.3257(6)
O3_15 O 0.18434(18) 0.38507(17) 0.2050(3)
O4_15 O 0.27526(19) 0.37500(18) 0.1866(3)
O5_13 O 0.3078(4) 0.6581(2) 0.1073(5)
O6_13 O 0.2070(3) 0.6675(2) 0.0924(4)
O7_8 O 0.2059(6) 0.7152(4) 0.5565(7)
O8_8 O 0.2873(7) 0.7036(5) 0.5699(8)
N2_15 N 0.0937(2) 0.3444(2) 0.1238(4)
C1_15 C 0.0388(3) 0.3432(3) 0.1288(5)
H1_15 H 0.0193 0.3203 0.1669
C2_15 C 0.1034(2) 0.3828(3) 0.0626(4)
H2_15 H 0.1384 0.3931 0.0442
C3_15 C 0.2320(3) 0.4029(2) 0.1911(4)
C4_15 C 0.2375(3) 0.4640(2) 0.1795(4)
C5_15 C 0.2891(3) 0.4875(3) 0.1702(6)
H3_15 H 0.3203 0.4655 0.1716
C6_13 C 0.2942(4) 0.5439(3) 0.1589(6)
H4_13 H 0.3287 0.5600 0.1543
C7_13 C 0.2472(3) 0.5758(2) 0.1546(4)
C8_13 C 0.1957(3) 0.5527(3) 0.1627(5)
H5_13 H 0.1645 0.5746 0.1596
C9_15 C 0.1909(3) 0.4969(3) 0.1756(5)
H6_15 H 0.1563 0.4812 0.1817
C10_13 C 0.2504(3) 0.6727(3) 0.2505(5)
C11_13 C 0.2969(4) 0.6762(4) 0.3006(7)
H7_13 H 0.3311 0.6693 0.2754
C12_13 C 0.2927(5) 0.6903(4) 0.3906(7)
H8_13 H 0.3244 0.6932 0.4247
C13_13 C 0.2440(6) 0.6996(4) 0.4280(7)
C14_13 C 0.1972(5) 0.6978(4) 0.3774(7)
H9_13 H 0.1633 0.7057 0.4029
C15_13 C 0.2004(4) 0.6841(3) 0.2869(6)
H10_13 H 0.1688 0.6828 0.2523
C16_15 C 0.2452(9) 0.7084(6) 0.5312(10)
O10_8 O 0.2941(6) 0.2848(4) 0.0565(7)
O11_8 O 0.2127(7) 0.2964(5) 0.0699(8)
H11_15 H 0.0814951 0.301275 0.359934
H12_15 H 0.0558276 0.351457 0.302586
C16_16 C 0.2548(9) 0.2916(6) 0.0312(10)
S1_14 S 0.24626(10) 0.35227(7) 0.64077(13)
O2_16 O 0.4097(4) 0.6650(4) 0.8257(6)
O3_16 O 0.31566(18) 0.61493(17) 0.7050(3)
O4_16 O 0.22474(19) 0.62500(18) 0.6866(3)
O5_14 O 0.1922(4) 0.3419(2) 0.6073(5)
O6_14 O 0.2930(3) 0.3325(2) 0.5924(4)
N2_16 N 0.4063(2) 0.6556(2) 0.6238(4)
C1_16 C 0.4612(3) 0.6568(3) 0.6288(5)
H1_16 H 0.4807 0.6797 0.6669
C2_16 C 0.3966(2) 0.6172(3) 0.5626(4)
H2_16 H 0.3616 0.6069 0.5442
C3_16 C 0.2680(3) 0.5971(2) 0.6911(4)
C4_16 C 0.2625(3) 0.5360(2) 0.6795(4)
C5_16 C 0.2109(3) 0.5125(3) 0.6702(6)
H3_16 H 0.1797 0.5345 0.6716
C6_14 C 0.2058(4) 0.4561(3) 0.6589(6)
H4_14 H 0.1713 0.4400 0.6543
C7_14 C 0.2528(3) 0.4242(2) 0.6546(4)
C8_14 C 0.3043(3) 0.4473(3) 0.6627(5)
H5_14 H 0.3355 0.4254 0.6596
C9_16 C 0.3091(3) 0.5031(3) 0.6756(5)
H6_16 H 0.3437 0.5188 0.6817
C10_14 C 0.2496(3) 0.3273(3) 0.7505(5)
C11_14 C 0.2031(4) 0.3238(4) 0.8006(7)
H7_14 H 0.1689 0.3307 0.7754
C12_14 C 0.2073(5) 0.3097(4) 0.8906(7)
H8_14 H 0.1756 0.3068 0.9247
C13_14 C 0.2560(6) 0.3004(4) 0.9280(7)
C14_14 C 0.3028(5) 0.3022(4) 0.8774(7)
H9_14 H 0.3367 0.2943 0.9029
C15_14 C 0.2996(4) 0.3159(3) 0.7869(6)
H10_14 H 0.3312 0.3172 0.7523
H11_16 H 0.418505 0.698725 0.859934
H12_16 H 0.444172 0.648543 0.802586
S1_15 S 0.24626(10) 0.85227(7) 0.35923(13)
O5_15 O 0.1922(4) 0.8419(2) 0.3927(5)
O6_15 O 0.2930(3) 0.8325(2) 0.4076(4)
C6_15 C 0.2058(4) 0.9561(3) 0.3411(6)
H4_15 H 0.1713 0.9400 0.3457
C7_15 C 0.2528(3) 0.9242(2) 0.3454(4)
C8_15 C 0.3043(3) 0.9473(3) 0.3373(5)
H5_15 H 0.3355 0.9254 0.3404
C10_15 C 0.2496(3) 0.8273(3) 0.2495(5)
C11_15 C 0.2031(4) 0.8238(4) 0.1994(7)
H7_15 H 0.1689 0.8307 0.2246
C12_15 C 0.2073(5) 0.8097(4) 0.1094(7)
H8_15 H 0.1756 0.8068 0.0753
C13_15 C 0.2560(6) 0.8004(4) 0.0720(7)
C14_15 C 0.3028(5) 0.8022(4) 0.1226(7)
H9_15 H 0.3367 0.7943 0.0971
C15_15 C 0.2996(4) 0.8159(3) 0.2131(6)
H10_15 H 0.3312 0.8172 0.2477
S1_16 S 0.75374(10) 0.14773(7) 0.64077(13)
O5_16 O 0.8078(4) 0.1581(2) 0.6073(5)
O6_16 O 0.7070(3) 0.1675(2) 0.5924(4)
C6_16 C 0.7942(4) 0.0439(3) 0.6589(6)
H4_16 H 0.8287 0.0600 0.6543
C7_16 C 0.7472(3) 0.0758(2) 0.6546(4)
C8_16 C 0.6957(3) 0.0527(3) 0.6627(5)
H5_16 H 0.6645 0.0746 0.6596
C10_16 C 0.7504(3) 0.1727(3) 0.7505(5)
C11_16 C 0.7969(4) 0.1762(4) 0.8006(7)
H7_16 H 0.8311 0.1693 0.7754
C12_16 C 0.7927(5) 0.1903(4) 0.8906(7)
H8_16 H 0.8244 0.1932 0.9247
C13_16 C 0.7440(6) 0.1996(4) 0.9280(7)
C14_16 C 0.6972(5) 0.1978(4) 0.8774(7)
H9_16 H 0.6633 0.2057 0.9029
C15_16 C 0.7004(4) 0.1841(3) 0.7869(6)
H10_16 H 0.6688 0.1828 0.7523
loop_
_geom_bond_atom_site_label_1
_geom_bond_atom_site_label_2
_geom_bond_site_symmetry_1
_geom_bond_site_symmetry_2
S1 O5 1_555 1_555
O3 Cu1 1_555 1_555
O4 Cu2 1_555 1_555
O6 S1 1_555 1_555
N1 N3 1_555 1_555
N2 Cu1 1_555 1_555
N3 C2 1_555 1_555
C1 N1 1_555 1_555
H1 C1 1_555 1_555
C2 N2 1_555 1_555
H2 C2 1_555 1_555
C3 O3 1_555 1_555
C4 C3 1_555 1_555
C5 C4 1_555 1_555
H3 C5 1_555 1_555
C6 C5 1_555 1_555
H4 C6 1_555 1_555
C7 S1 1_555 1_555
C8 C7 1_555 1_555
H5 C8 1_555 1_555
C9 C4 1_555 1_555
H6 C9 1_555 1_555
Cu4 N1 1_555 1_555
Cu6 N3 1_555 1_555
O10 Cu2 1_555 1_555
O11 Cu1 1_555 1_555
Cu2 O11 1_555 1_555
O4 C3 1_555 1_555
N2 C1 1_555 1_555
C6 C7 1_555 1_555
C8 C9 1_555 1_555
O7 C16 1_555 1_555
O8 C16 1_555 1_555
C11 C10 1_555 1_555
H7 C11 1_555 1_555
C12 C11 1_555 1_555
H8 C12 1_555 1_555
C13 C12 1_555 1_555
C14 C13 1_555 1_555
H9 C14 1_555 1_555
C15 C10 1_555 1_555
H10 C15 1_555 1_555
C16 C13 1_555 1_555
Cu3 O8 1_555 1_555
Cu5 O7 1_555 1_555
O8 Cu5 1_555 1_555
C14 C15 1_555 1_555
O2 H11 1_555 1_555
O2 H12 1_555 1_555
Cu3 O1_2 1_555 1_555
Cu5 O1_2 1_555 1_555
S1_2 O5_2 1_555 1_555
O1_2 Cu7_2 1_555 1_555
O2_2 Cu3 1_555 1_555
O3_2 Cu3 1_555 1_555
O4_2 Cu5 1_555 1_555
O6_2 S1_2 1_555 1_555
O10 C16_2 1_555 1_555
O11 C16_2 1_555 1_555
N1_2 N3_2 1_555 1_555
N2_2 Cu3 1_555 1_555
N3_2 C2_2 1_555 1_555
C1_2 N1_2 1_555 1_555
H1_2 C1_2 1_555 1_555
C2_2 N2_2 1_555 1_555
H2_2 C2_2 1_555 1_555
C3_2 O3_2 1_555 1_555
C4_2 C3_2 1_555 1_555
C5_2 C4_2 1_555 1_555
H3_2 C5_2 1_555 1_555
C6_2 C5_2 1_555 1_555
H4_2 C6_2 1_555 1_555
C7_2 S1_2 1_555 1_555
C8_2 C7_2 1_555 1_555
H5_2 C8_2 1_555 1_555
C9_2 C4_2 1_555 1_555
H6_2 C9_2 1_555 1_555
C10_2 S1_2 1_555 1_555
C11_2 C10_2 1_555 1_555
H7_2 C11_2 1_555 1_555
C12_2 C11_2 1_555 1_555
H8_2 C12_2 1_555 1_555
C13_2 C12_2 1_555 1_555
C14_2 C13_2 1_555 1_555
H9_2 C14_2 1_555 1_555
C15_2 C10_2 1_555 1_555
H10_2 C15_2 1_555 1_555
C16_2 C13_2 1_555 1_555
Cu4_2 N1_2 1_555 1_555
Cu6_2 N3_2 1_555 1_555
Cu7_2 O9_2 1_555 1_555
O9_2 Cu5 1_555 1_555
N4_2 Cu3 1_555 1_555
N5_2 Cu5 1_555 1_555
O4_2 C3_2 1_555 1_555
N2_2 C1_2 1_555 1_555
C6_2 C7_2 1_555 1_555
C8_2 C9_2 1_555 1_555
C14_2 C15_2 1_555 1_555
O2_2 H11_2 1_555 1_555
O2_2 H12_2 1_555 1_555
Cu1_2 O1_3 1_555 1_555
Cu2_2 O1_3 1_555 1_555
O1_3 Cu7_3 1_555 1_555
O2_3 Cu1_2 1_555 1_555
O3_3 Cu1_2 1_555 1_555
O4_3 Cu2_2 1_555 1_555
N1_3 N3_3 1_555 1_555
N2_3 Cu1_2 1_555 1_555
N3_3 C2_3 1_555 1_555
C1_3 N1_3 1_555 1_555
H1_3 C1_3 1_555 1_555
C2_3 N2_3 1_555 1_555
H2_3 C2_3 1_555 1_555
C3_3 O3_3 1_555 1_555
C4_3 C3_3 1_555 1_555
C5_3 C4_3 1_555 1_555
H3_3 C5_3 1_555 1_555
C9_3 C4_3 1_555 1_555
H6_3 C9_3 1_555 1_555
Cu4_3 N1_3 1_555 1_555
Cu6_3 N3_3 1_555 1_555
Cu7_3 O9_3 1_555 1_555
O9_3 Cu2_2 1_555 1_555
O10_2 Cu2_2 1_555 1_555
O11_2 Cu1_2 1_555 1_555
N4_3 Cu1_2 1_555 1_555
N5_3 Cu2_2 1_555 1_555
Cu2_2 O11_2 1_555 1_555
O4_3 C3_3 1_555 1_555
N2_3 C1_3 1_555 1_555
O2_3 H11_3 1_555 1_555
O2_3 H12_3 1_555 1_555
O7_2 C16_3 1_555 1_555
O8_2 C16_3 1_555 1_555
Cu3_2 O8_2 1_555 1_555
Cu5_2 O7_2 1_555 1_555
O8_2 Cu5_2 1_555 1_555
S1_3 O5_3 1_555 1_555
O6_3 S1_3 1_555 1_555
O10_2 C16_4 1_555 1_555
O11_2 C16_4 1_555 1_555
H4_3 C6_3 1_555 1_555
C7_3 S1_3 1_555 1_555
C8_3 C7_3 1_555 1_555
H5_3 C8_3 1_555 1_555
C10_3 S1_3 1_555 1_555
C11_3 C10_3 1_555 1_555
H7_3 C11_3 1_555 1_555
C12_3 C11_3 1_555 1_555
H8_3 C12_3 1_555 1_555
C13_3 C12_3 1_555 1_555
C14_3 C13_3 1_555 1_555
H9_3 C14_3 1_555 1_555
C15_3 C10_3 1_555 1_555
H10_3 C15_3 1_555 1_555
C16_4 C13_3 1_555 1_555
C6_3 C7_3 1_555 1_555
C14_3 C15_3 1_555 1_555
Cu3_2 O1_4 1_555 1_555
Cu5_2 O1_4 1_555 1_555
O1_4 Cu7_4 1_555 1_555
O2_4 Cu3_2 1_555 1_555
O3_4 Cu3_2 1_555 1_555
O4_4 Cu5_2 1_555 1_555
N1_4 N3_4 1_555 1_555
N2_4 Cu3_2 1_555 1_555
N3_4 C2_4 1_555 1_555
C1_4 N1_4 1_555 1_555
H1_4 C1_4 1_555 1_555
C2_4 N2_4 1_555 1_555
H2_4 C2_4 1_555 1_555
C3_4 O3_4 1_555 1_555
C4_4 C3_4 1_555 1_555
C5_4 C4_4 1_555 1_555
H3_4 C5_4 1_555 1_555
C9_4 C4_4 1_555 1_555
H6_4 C9_4 1_555 1_555
Cu7_4 O9_4 1_555 1_555
O9_4 Cu5_2 1_555 1_555
N4_4 Cu3_2 1_555 1_555
N5_4 Cu5_2 1_555 1_555
O4_4 C3_4 1_555 1_555
N2_4 C1_4 1_555 1_555
O2_4 H11_4 1_555 1_555
O2_4 H12_4 1_555 1_555
S1_4 O5_4 1_555 1_555
O4_5 Cu6_3 1_555 1_555
H3_5 C5_5 1_555 1_555
C6_4 C5_5 1_555 1_555
H4_4 C6_4 1_555 1_555
C10_4 S1_4 1_555 1_555
C11_4 C10_4 1_555 1_555
H7_4 C11_4 1_555 1_555
C12_4 C11_4 1_555 1_555
H8_4 C12_4 1_555 1_555
Cu3_3 O8_3 1_555 1_555
O9_5 Cu6_3 1_555 1_555
O10_3 Cu6_3 1_555 1_555
Cu1_3 O1_5 1_555 1_555
O1_5 Cu7_5 1_555 1_555
O2_5 Cu1_3 1_555 1_555
O3_5 Cu1_3 1_555 1_555
O7_3 C16_5 1_555 1_555
N1_5 N5_4 1_555 1_555
N2_5 Cu1_3 1_555 1_555
N5_4 C2_5 1_555 1_555
C1_5 N1_5 1_555 1_555
H1_5 C1_5 1_555 1_555
C2_5 N2_5 1_555 1_555
H2_5 C2_5 1_555 1_555
C3_5 O3_5 1_555 1_555
C4_5 C3_5 1_555 1_555
C8_4 C7_4 1_555 1_555
H5_4 C8_4 1_555 1_555
C9_5 C4_5 1_555 1_555
H6_5 C9_5 1_555 1_555
C14_4 C13_4 1_555 1_555
H9_4 C14_4 1_555 1_555
H10_4 C15_4 1_555 1_555
C16_5 C13_4 1_555 1_555
Cu4_5 N1_5 1_555 1_555
Cu6_4 O7_3 1_555 1_555
O11_3 Cu1_3 1_555 1_555
N4_5 Cu1_3 1_555 1_555
N2_5 C1_5 1_555 1_555
C8_4 C9_5 1_555 1_555
C14_4 C15_4 1_555 1_555
O2_5 H11_5 1_555 1_555
O2_5 H12_5 1_555 1_555
O3_6 Cu3_3 1_555 1_555
N1_6 N5_3 1_555 1_555
N2_6 Cu3_3 1_555 1_555
N5_3 C2_6 1_555 1_555
C1_6 N1_6 1_555 1_555
H1_6 C1_6 1_555 1_555
C2_6 N2_6 1_555 1_555
H2_6 C2_6 1_555 1_555
C3_6 O3_6 1_555 1_555
C4_6 C3_6 1_555 1_555
C8_5 C7_5 1_555 1_555
H5_5 C8_5 1_555 1_555
C9_6 C4_6 1_555 1_555
H6_6 C9_6 1_555 1_555
Cu4_6 N1_6 1_555 1_555
N2_6 C1_6 1_555 1_555
C8_5 C9_6 1_555 1_555
O10_3 C16_6 1_555 1_555
C14_5 C13_5 1_555 1_555
H9_5 C14_5 1_555 1_555
H10_5 C15_5 1_555 1_555
C16_6 C13_5 1_555 1_555
C14_5 C15_5 1_555 1_555
O2_6 H11_6 1_555 1_555
O2_6 H12_6 1_555 1_555
S1_5 O5_5 1_555 1_555
O4_6 Cu6_4 1_555 1_555
H3_6 C5_6 1_555 1_555
C6_5 C5_6 1_555 1_555
H4_5 C6_5 1_555 1_555
C11_5 C10_5 1_555 1_555
H7_5 C11_5 1_555 1_555
C12_5 C11_5 1_555 1_555
H8_5 C12_5 1_555 1_555
Cu1_4 O1_7 1_555 1_555
Cu6_2 O1_7 1_555 1_555
S1_6 O5_6 1_555 1_555
O1_7 Cu7_7 1_555 1_555
O2_7 Cu1_4 1_555 1_555
O3_7 Cu1_4 1_555 1_555
O4_7 Cu6_2 1_555 1_555
O6_6 S1_6 1_555 1_555
O7_4 C16_7 1_555 1_555
O8_4 C16_7 1_555 1_555
N1_7 N5 1_555 1_555
N2_7 Cu1_4 1_555 1_555
N5 C2_7 1_555 1_555
C1_7 N1_7 1_555 1_555
H1_7 C1_7 1_555 1_555
C2_7 N2_7 1_555 1_555
H2_7 C2_7 1_555 1_555
C3_7 O3_7 1_555 1_555
C4_7 C3_7 1_555 1_555
C5_7 C4_7 1_555 1_555
H3_7 C5_7 1_555 1_555
C6_6 C5_7 1_555 1_555
H4_6 C6_6 1_555 1_555
C7_6 S1_6 1_555 1_555
C8_6 C7_6 1_555 1_555
H5_6 C8_6 1_555 1_555
C9_7 C4_7 1_555 1_555
H6_7 C9_7 1_555 1_555
C10_6 S1_6 1_555 1_555
C11_6 C10_6 1_555 1_555
H7_6 C11_6 1_555 1_555
C12_6 C11_6 1_555 1_555
H8_6 C12_6 1_555 1_555
C13_6 C12_6 1_555 1_555
C14_6 C13_6 1_555 1_555
H9_6 C14_6 1_555 1_555
C15_6 C10_6 1_555 1_555
H10_6 C15_6 1_555 1_555
C16_7 C13_6 1_555 1_555
Cu3_4 O8_4 1_555 1_555
Cu6 O7_4 1_555 1_555
Cu7_7 O9_7 1_555 1_555
O9_7 Cu6_2 1_555 1_555
O10_4 Cu6_2 1_555 1_555
O11_4 Cu1_4 1_555 1_555
N4_7 Cu1_4 1_555 1_555
Cu6_2 O11_4 1_555 1_555
O4_7 C3_7 1_555 1_555
O8_4 Cu6 1_555 1_555
N2_7 C1_7 1_555 1_555
C6_6 C7_6 1_555 1_555
C8_6 C9_7 1_555 1_555
C14_6 C15_6 1_555 1_555
O2_7 H11_7 1_555 1_555
O2_7 H12_7 1_555 1_555
Cu3_4 O1_8 1_555 1_555
Cu6 O1_8 1_555 1_555
S1_7 O5_7 1_555 1_555
O1_8 Cu7_8 1_555 1_555
O2_8 Cu3_4 1_555 1_555
O3_8 Cu3_4 1_555 1_555
O4_8 Cu6 1_555 1_555
O6_7 S1_7 1_555 1_555
N1_8 N5_2 1_555 1_555
N2_8 Cu3_4 1_555 1_555
N5_2 C2_8 1_555 1_555
C1_8 N1_8 1_555 1_555
H1_8 C1_8 1_555 1_555
C2_8 N2_8 1_555 1_555
H2_8 C2_8 1_555 1_555
C3_8 O3_8 1_555 1_555
C4_8 C3_8 1_555 1_555
C5_8 C4_8 1_555 1_555
H3_8 C5_8 1_555 1_555
C6_7 C5_8 1_555 1_555
H4_7 C6_7 1_555 1_555
C7_7 S1_7 1_555 1_555
C8_7 C7_7 1_555 1_555
H5_7 C8_7 1_555 1_555
C9_8 C4_8 1_555 1_555
H6_8 C9_8 1_555 1_555
C10_7 S1_7 1_555 1_555
C11_7 C10_7 1_555 1_555
H7_7 C11_7 1_555 1_555
C12_7 C11_7 1_555 1_555
H8_7 C12_7 1_555 1_555
C13_7 C12_7 1_555 1_555
C14_7 C13_7 1_555 1_555
H9_7 C14_7 1_555 1_555
C15_7 C10_7 1_555 1_555
H10_7 C15_7 1_555 1_555
Cu4_8 N1_8 1_555 1_555
Cu7_8 O9_8 1_555 1_555
O9_8 Cu6 1_555 1_555
N4_8 Cu3_4 1_555 1_555
O4_8 C3_8 1_555 1_555
N2_8 C1_8 1_555 1_555
C6_7 C7_7 1_555 1_555
C8_7 C9_8 1_555 1_555
C14_7 C15_7 1_555 1_555
O2_8 H11_8 1_555 1_555
O2_8 H12_8 1_555 1_555
O10_4 C16_8 1_555 1_555
O11_4 C16_8 1_555 1_555
O7_5 C16_9 1_555 1_555
O8_5 C16_9 1_555 1_555
C11_8 C10_8 1_555 1_555
H7_8 C11_8 1_555 1_555
C12_8 C11_8 1_555 1_555
H8_8 C12_8 1_555 1_555
C13_8 C12_8 1_555 1_555
C14_8 C13_8 1_555 1_555
H9_8 C14_8 1_555 1_555
C15_8 C10_8 1_555 1_555
H10_8 C15_8 1_555 1_555
C16_9 C13_8 1_555 1_555
Cu4_8 O8_5 1_555 1_555
Cu7_2 O7_5 1_555 1_555
O8_5 Cu7_2 1_555 1_555
C14_8 C15_8 1_555 1_555
O2_9 H11_9 1_555 1_555
O2_9 H12_9 1_555 1_555
S1_8 O5_8 1_555 1_555
O3_9 Cu4_7 1_555 1_555
O4_9 Cu7 1_555 1_555
O6_8 S1_8 1_555 1_555
N4_4 N3_5 1_555 1_555
N2_9 Cu4_7 1_555 1_555
N3_5 C2_9 1_555 1_555
C1_9 N4_4 1_555 1_555
H1_9 C1_9 1_555 1_555
C2_9 N2_9 1_555 1_555
H2_9 C2_9 1_555 1_555
C3_9 O3_9 1_555 1_555
C4_9 C3_9 1_555 1_555
C5_9 C4_9 1_555 1_555
H3_9 C5_9 1_555 1_555
C6_8 C5_9 1_555 1_555
H4_8 C6_8 1_555 1_555
C7_8 S1_8 1_555 1_555
C8_8 C7_8 1_555 1_555
H5_8 C8_8 1_555 1_555
C9_9 C4_9 1_555 1_555
H6_9 C9_9 1_555 1_555
Cu7_4 N3_5 1_555 1_555
O10_5 Cu7 1_555 1_555
O11_5 Cu4_7 1_555 1_555
Cu7 O11_5 1_555 1_555
O4_9 C3_9 1_555 1_555
N2_9 C1_9 1_555 1_555
C6_8 C7_8 1_555 1_555
C8_8 C9_9 1_555 1_555
Cu4_8 O9_2 1_555 1_555
S1_9 O5_9 1_555 1_555
O2_10 Cu4_8 1_555 1_555
O3_10 Cu4_8 1_555 1_555
O4_10 Cu7_2 1_555 1_555
O6_9 S1_9 1_555 1_555
O10_5 C16_10 1_555 1_555
O11_5 C16_10 1_555 1_555
N4_3 N3_6 1_555 1_555
N2_10 Cu4_8 1_555 1_555
N3_6 C2_10 1_555 1_555
C1_10 N4_3 1_555 1_555
H1_10 C1_10 1_555 1_555
C2_10 N2_10 1_555 1_555
H2_10 C2_10 1_555 1_555
C3_10 O3_10 1_555 1_555
C4_10 C3_10 1_555 1_555
C5_10 C4_10 1_555 1_555
H3_10 C5_10 1_555 1_555
C6_9 C5_10 1_555 1_555
H4_9 C6_9 1_555 1_555
C7_9 S1_9 1_555 1_555
C8_9 C7_9 1_555 1_555
H5_9 C8_9 1_555 1_555
C9_10 C4_10 1_555 1_555
H6_10 C9_10 1_555 1_555
C10_9 S1_9 1_555 1_555
C11_9 C10_9 1_555 1_555
H7_9 C11_9 1_555 1_555
C12_9 C11_9 1_555 1_555
H8_9 C12_9 1_555 1_555
C13_9 C12_9 1_555 1_555
C14_9 C13_9 1_555 1_555
H9_9 C14_9 1_555 1_555
C15_9 C10_9 1_555 1_555
H10_9 C15_9 1_555 1_555
C16_10 C13_9 1_555 1_555
Cu7_3 N3_6 1_555 1_555
N5_6 Cu7_2 1_555 1_555
O4_10 C3_10 1_555 1_555
N2_10 C1_10 1_555 1_555
C6_9 C7_9 1_555 1_555
C8_9 C9_10 1_555 1_555
C14_9 C15_9 1_555 1_555
O2_10 H11_10 1_555 1_555
O2_10 H12_10 1_555 1_555
O7_6 C16_11 1_555 1_555
O8_6 C16_11 1_555 1_555
Cu4 O8_6 1_555 1_555
Cu7_8 O7_6 1_555 1_555
O8_6 Cu7_8 1_555 1_555
Cu4_2 O9_7 1_555 1_555
O2_11 Cu4_2 1_555 1_555
O3_11 Cu4_2 1_555 1_555
O4_11 Cu7_7 1_555 1_555
N4_5 N3_7 1_555 1_555
N2_11 Cu4_2 1_555 1_555
N3_7 C2_11 1_555 1_555
C1_11 N4_5 1_555 1_555
H1_11 C1_11 1_555 1_555
C2_11 N2_11 1_555 1_555
H2_11 C2_11 1_555 1_555
C3_11 O3_11 1_555 1_555
C4_11 C3_11 1_555 1_555
C5_11 C4_11 1_555 1_555
H3_11 C5_11 1_555 1_555
C9_11 C4_11 1_555 1_555
H6_11 C9_11 1_555 1_555
Cu7_5 N3_7 1_555 1_555
O10_6 Cu7_7 1_555 1_555
O11_6 Cu4_2 1_555 1_555
N5_7 Cu7_7 1_555 1_555
Cu7_7 O11_6 1_555 1_555
O4_11 C3_11 1_555 1_555
N2_11 C1_11 1_555 1_555
O2_11 H11_11 1_555 1_555
O2_11 H12_11 1_555 1_555
Cu4 O9_8 1_555 1_555
O2_12 Cu4 1_555 1_555
O3_12 Cu4 1_555 1_555
O4_12 Cu7_8 1_555 1_555
N4_6 N3_8 1_555 1_555
N2_12 Cu4 1_555 1_555
N3_8 C2_12 1_555 1_555
C1_12 N4_6 1_555 1_555
H1_12 C1_12 1_555 1_555
C2_12 N2_12 1_555 1_555
H2_12 C2_12 1_555 1_555
C3_12 O3_12 1_555 1_555
C4_12 C3_12 1_555 1_555
C5_12 C4_12 1_555 1_555
H3_12 C5_12 1_555 1_555
C9_12 C4_12 1_555 1_555
H6_12 C9_12 1_555 1_555
N5_8 Cu7_8 1_555 1_555
O4_12 C3_12 1_555 1_555
N2_12 C1_12 1_555 1_555
O2_12 H11_12 1_555 1_555
O2_12 H12_12 1_555 1_555
S1_10 O5_10 1_555 1_555
O6_10 S1_10 1_555 1_555
O10_6 C16_12 1_555 1_555
O11_6 C16_12 1_555 1_555
H4_10 C6_10 1_555 1_555
C7_10 S1_10 1_555 1_555
C8_10 C7_10 1_555 1_555
H5_10 C8_10 1_555 1_555
C10_10 S1_10 1_555 1_555
C11_10 C10_10 1_555 1_555
H7_10 C11_10 1_555 1_555
C12_10 C11_10 1_555 1_555
H8_10 C12_10 1_555 1_555
C13_10 C12_10 1_555 1_555
C14_10 C13_10 1_555 1_555
H9_10 C14_10 1_555 1_555
C15_10 C10_10 1_555 1_555
H10_10 C15_10 1_555 1_555
C16_12 C13_10 1_555 1_555
C6_10 C7_10 1_555 1_555
C14_10 C15_10 1_555 1_555
Cu4_3 O9_5 1_555 1_555
O2_13 Cu4_3 1_555 1_555
O3_13 Cu4_3 1_555 1_555
O7_7 C16_13 1_555 1_555
N4_8 N5_8 1_555 1_555
N2_13 Cu4_3 1_555 1_555
N5_8 C2_13 1_555 1_555
C1_13 N4_8 1_555 1_555
H1_13 C1_13 1_555 1_555
C2_13 N2_13 1_555 1_555
H2_13 C2_13 1_555 1_555
C3_13 O3_13 1_555 1_555
C4_13 C3_13 1_555 1_555
C8_11 C7_11 1_555 1_555
H5_11 C8_11 1_555 1_555
C9_13 C4_13 1_555 1_555
H6_13 C9_13 1_555 1_555
C14_11 C13_11 1_555 1_555
H9_11 C14_11 1_555 1_555
H10_11 C15_11 1_555 1_555
C16_13 C13_11 1_555 1_555
Cu7_6 O7_7 1_555 1_555
O11_7 Cu4_3 1_555 1_555
N2_13 C1_13 1_555 1_555
C8_11 C9_13 1_555 1_555
C14_11 C15_11 1_555 1_555
O2_13 H11_13 1_555 1_555
O2_13 H12_13 1_555 1_555
S1_11 O5_11 1_555 1_555
O4_13 Cu7_5 1_555 1_555
H3_13 C5_13 1_555 1_555
C6_11 C5_13 1_555 1_555
H4_11 C6_11 1_555 1_555
C10_11 S1_11 1_555 1_555
C11_11 C10_11 1_555 1_555
H7_11 C11_11 1_555 1_555
C12_11 C11_11 1_555 1_555
H8_11 C12_11 1_555 1_555
Cu4_4 O8_7 1_555 1_555
O10_7 Cu7_5 1_555 1_555
C11_12 C10_12 1_555 1_555
H7_12 C11_12 1_555 1_555
C12_12 C11_12 1_555 1_555
H8_12 C12_12 1_555 1_555
S1_12 O5_12 1_555 1_555
O4_14 Cu7_6 1_555 1_555
H3_14 C5_14 1_555 1_555
C6_12 C5_14 1_555 1_555
H4_12 C6_12 1_555 1_555
O10_7 C16_14 1_555 1_555
C14_12 C13_12 1_555 1_555
H9_12 C14_12 1_555 1_555
H10_12 C15_12 1_555 1_555
C16_14 C13_12 1_555 1_555
C14_12 C15_12 1_555 1_555
O2_14 H11_14 1_555 1_555
O2_14 H12_14 1_555 1_555
O3_14 Cu4_4 1_555 1_555
N4_7 N5_7 1_555 1_555
N2_14 Cu4_4 1_555 1_555
N5_7 C2_14 1_555 1_555
C1_14 N4_7 1_555 1_555
H1_14 C1_14 1_555 1_555
C2_14 N2_14 1_555 1_555
H2_14 C2_14 1_555 1_555
C3_14 O3_14 1_555 1_555
C4_14 C3_14 1_555 1_555
C8_12 C7_12 1_555 1_555
H5_12 C8_12 1_555 1_555
C9_14 C4_14 1_555 1_555
H6_14 C9_14 1_555 1_555
N2_14 C1_14 1_555 1_555
C8_12 C9_14 1_555 1_555
Cu4_6 O9_3 1_555 1_555
S1_13 O5_13 1_555 1_555
O2_15 Cu4_6 1_555 1_555
O3_15 Cu4_6 1_555 1_555
O4_15 Cu7_3 1_555 1_555
O6_13 S1_13 1_555 1_555
O7_8 C16_15 1_555 1_555
O8_8 C16_15 1_555 1_555
N4 N5_5 1_555 1_555
N2_15 Cu4_6 1_555 1_555
N5_5 C2_15 1_555 1_555
C1_15 N4 1_555 1_555
H1_15 C1_15 1_555 1_555
C2_15 N2_15 1_555 1_555
H2_15 C2_15 1_555 1_555
C3_15 O3_15 1_555 1_555
C4_15 C3_15 1_555 1_555
C5_15 C4_15 1_555 1_555
H3_15 C5_15 1_555 1_555
C6_13 C5_15 1_555 1_555
H4_13 C6_13 1_555 1_555
C7_13 S1_13 1_555 1_555
C8_13 C7_13 1_555 1_555
H5_13 C8_13 1_555 1_555
C9_15 C4_15 1_555 1_555
H6_15 C9_15 1_555 1_555
C10_13 S1_13 1_555 1_555
C11_13 C10_13 1_555 1_555
H7_13 C11_13 1_555 1_555
C12_13 C11_13 1_555 1_555
H8_13 C12_13 1_555 1_555
C13_13 C12_13 1_555 1_555
C14_13 C13_13 1_555 1_555
H9_13 C14_13 1_555 1_555
C15_13 C10_13 1_555 1_555
H10_13 C15_13 1_555 1_555
C16_15 C13_13 1_555 1_555
Cu4_5 O8_8 1_555 1_555
Cu7_4 O7_8 1_555 1_555
O10_8 Cu7_3 1_555 1_555
O11_8 Cu4_6 1_555 1_555
Cu7_3 O11_8 1_555 1_555
O4_15 C3_15 1_555 1_555
O8_8 Cu7_4 1_555 1_555
N2_15 C1_15 1_555 1_555
C6_13 C7_13 1_555 1_555
C8_13 C9_15 1_555 1_555
C14_13 C15_13 1_555 1_555
O2_15 H11_15 1_555 1_555
O2_15 H12_15 1_555 1_555
O10_8 C16_16 1_555 1_555
O11_8 C16_16 1_555 1_555
Cu4_5 O9_4 1_555 1_555
S1_14 O5_14 1_555 1_555
O2_16 Cu4_5 1_555 1_555
O3_16 Cu4_5 1_555 1_555
O4_16 Cu7_4 1_555 1_555
O6_14 S1_14 1_555 1_555
N4_2 N5_6 1_555 1_555
N2_16 Cu4_5 1_555 1_555
N5_6 C2_16 1_555 1_555
C1_16 N4_2 1_555 1_555
H1_16 C1_16 1_555 1_555
C2_16 N2_16 1_555 1_555
H2_16 C2_16 1_555 1_555
C3_16 O3_16 1_555 1_555
C4_16 C3_16 1_555 1_555
C5_16 C4_16 1_555 1_555
H3_16 C5_16 1_555 1_555
C6_14 C5_16 1_555 1_555
H4_14 C6_14 1_555 1_555
C7_14 S1_14 1_555 1_555
C8_14 C7_14 1_555 1_555
H5_14 C8_14 1_555 1_555
C9_16 C4_16 1_555 1_555
H6_16 C9_16 1_555 1_555
C10_14 S1_14 1_555 1_555
C11_14 C10_14 1_555 1_555
H7_14 C11_14 1_555 1_555
C12_14 C11_14 1_555 1_555
H8_14 C12_14 1_555 1_555
C13_14 C12_14 1_555 1_555
C14_14 C13_14 1_555 1_555
H9_14 C14_14 1_555 1_555
C15_14 C10_14 1_555 1_555
H10_14 C15_14 1_555 1_555
O4_16 C3_16 1_555 1_555
N2_16 C1_16 1_555 1_555
C6_14 C7_14 1_555 1_555
C8_14 C9_16 1_555 1_555
C14_14 C15_14 1_555 1_555
O2_16 H11_16 1_555 1_555
O2_16 H12_16 1_555 1_555
S1_15 O5_15 1_555 1_555
O6_15 S1_15 1_555 1_555
H4_15 C6_15 1_555 1_555
C7_15 S1_15 1_555 1_555
C8_15 C7_15 1_555 1_555
H5_15 C8_15 1_555 1_555
C10_15 S1_15 1_555 1_555
C11_15 C10_15 1_555 1_555
H7_15 C11_15 1_555 1_555
C12_15 C11_15 1_555 1_555
H8_15 C12_15 1_555 1_555
C13_15 C12_15 1_555 1_555
C14_15 C13_15 1_555 1_555
H9_15 C14_15 1_555 1_555
C15_15 C10_15 1_555 1_555
H10_15 C15_15 1_555 1_555
C6_15 C7_15 1_555 1_555
C14_15 C15_15 1_555 1_555
S1_16 O5_16 1_555 1_555
O6_16 S1_16 1_555 1_555
H4_16 C6_16 1_555 1_555
C7_16 S1_16 1_555 1_555
C8_16 C7_16 1_555 1_555
H5_16 C8_16 1_555 1_555
C10_16 S1_16 1_555 1_555
C11_16 C10_16 1_555 1_555
H7_16 C11_16 1_555 1_555
C12_16 C11_16 1_555 1_555
H8_16 C12_16 1_555 1_555
C13_16 C12_16 1_555 1_555
C14_16 C13_16 1_555 1_555
H9_16 C14_16 1_555 1_555
C15_16 C10_16 1_555 1_555
H10_16 C15_16 1_555 1_555
C6_16 C7_16 1_555 1_555
C14_16 C15_16 1_555 1_555

#END
