
###############################################################################
#
# This file contains modified crystal structure data generated from the
# MOF subset of the Cambridge Structural Database (CSD) v543 
# hosted by the Cambridge Crystallographic Data Centre (CCDC).
#
# This work is licensed under the Creative Commons
# Attribution-NonCommercial-ShareAlike 4.0 International License.
# To view a copy of this license, visit
# http://creativecommons.org/licenses/by-nc-sa/4.0/
# or send a letter to
# Creative Commons, PO Box 1866, Mountain View, CA 94042, USA.
#
# CIF created using the CSD Python API on 29 September 2022
# The structure has been converted into the P1 space group
# The structure has a 3D framework
# The original CSD entry VIZRIH is in the orthorhombic crystal system
# The framework has been calculated to contain at least 10.0% void space
# The void calculation uses a probe of radius 1.32A, grid spacing 0.4
#
###############################################################################

data_VIZRIH
_chemical_formula_moiety         '(C144 H112 N62 O48 S8 Zn16)n'
_symmetry_cell_setting           triclinic
_symmetry_space_group_name_H-M   'P 1'
_symmetry_Int_Tables_number      1
_space_group_name_Hall           'P 1'
loop_
_symmetry_equiv_pos_site_id
_symmetry_equiv_pos_as_xyz
1 x,y,z
_cell_length_a                   30.671(6)
_cell_length_b                   16.577(3)
_cell_length_c                   9.851(2)
_cell_angle_alpha                90
_cell_angle_beta                 90
_cell_angle_gamma                90
_cell_volume                     5008.58
loop_
_atom_site_label
_atom_site_type_symbol
_atom_site_fract_x
_atom_site_fract_y
_atom_site_fract_z
Zn1 Zn 0.349659(17) 0.10776(3) 0.83967(5)
Zn2 Zn 0.251301(17) 0.14181(3) 0.63341(5)
O6 O 0.19866(11) 0.0774(2) 0.6302(3)
N3 N 0.33817(12) 0.0570(2) 0.6610(4)
N4 N 0.30348(12) 0.0788(2) 0.5783(4)
N5 N 0.23545(12) 0.2164(2) 0.4806(4)
N6 N 0.16247(14) 0.2360(3) 0.5490(5)
H3 H 0.1380 0.2602 0.5370
H4 H 0.1654 0.2019 0.6141
N7 N 0.19468(12) 0.3030(2) 0.3631(4)
N8 N 0.23612(12) 0.3007(2) 0.3064(4)
H12 H 0.1492 0.0168 0.4638
C14 C 0.20257(17) 0.0039(3) 0.6721(6)
C16 C 0.30394(16) 0.0287(3) 0.4755(5)
H13 H 0.2839 0.0303 0.4048
C17 C 0.25868(15) 0.2486(3) 0.3768(5)
H14 H 0.2875 0.2350 0.3578
C18 C 0.19634(15) 0.2516(3) 0.4655(5)
Zn3 Zn 0.150341(17) 0.39224(3) 0.33967(5)
Zn6 Zn 0.248699(17) 0.35819(3) 0.13341(5)
O7 O 0.40205(11) 0.1679(2) 0.8901(4)
N9 N 0.33652(12) 0.0252(2) 0.9830(4)
N10 N 0.30532(12) 0.1970(2) 0.8631(4)
N11 N 0.26388(12) 0.1993(2) 0.8064(4)
S1 S 0.10110(5) 0.75256(10) 0.36815(15)
O3 O 0.13162(13) 0.6863(3) 0.3647(5)
O4 O 0.08798(14) 0.7907(3) 0.2445(4)
O5 O 0.22936(14) 0.9815(2) 0.7545(4)
N1 N 0.33652(12) 0.9748(2) 0.4830(4)
N2 N 0.39192(13) 0.9550(3) 0.6490(4)
H1 H 0.4036 0.9703 0.7240
H2 H 0.4026 0.9147 0.6052
C3 C 0.01496(18) 0.6133(3) 0.5605(6)
H5 H 0.0145 0.5620 0.5987
C4 C 0.05274(18) 0.6421(3) 0.5057(6)
H6 H 0.0778 0.6105 0.5056
C5 C 0.05342(16) 0.7178(3) 0.4513(5)
C6 C 0.01663(19) 0.7655(4) 0.4509(8)
H7 H 0.0171 0.8167 0.4126
C8 C 0.12492(17) 0.8288(3) 0.4710(6)
C9 C 0.1467(2) 0.8092(3) 0.5868(6)
H9 H 0.1454 0.7568 0.6202
C10 C 0.1705(2) 0.8669(4) 0.6542(6)
H10 H 0.1855 0.8531 0.7328
C11 C 0.17219(16) 0.9435(3) 0.6073(5)
C12 C 0.1256(2) 0.9062(4) 0.4244(7)
H11 H 0.1103 0.9201 0.3463
C13 C 0.1491(2) 0.9637(4) 0.4942(7)
C15 C 0.35689(15) 0.9940(3) 0.6000(5)
Zn5 Zn 0.349659(17) 0.89224(3) 0.33967(5)
O1 O 0.93513(12) 0.5536(2) 0.6584(4)
O2 O 0.90205(11) 0.6679(2) 0.6099(4)
C1 C 0.93589(17) 0.6229(4) 0.6159(5)
C2 C 0.97793(16) 0.6584(3) 0.5601(5)
C7 C 0.97925(18) 0.7354(4) 0.5086(7)
H8 H 0.9545 0.7676 0.5130
Zn4 Zn 0.849659(17) 0.60776(3) 0.66033(5)
O1_2 O 0.56487(12) 0.9464(2) 0.1584(4)
O2_2 O 0.59795(11) 0.8321(2) 0.1099(4)
O5_2 O 0.27064(14) 0.5185(2) 0.2545(4)
O6_2 O 0.30134(11) 0.4226(2) 0.1302(3)
N2_2 N 0.10808(13) 0.5450(3) 0.1490(4)
H1_2 H 0.0964 0.5297 0.2240
H2_2 H 0.0974 0.5853 0.1052
N3_2 N 0.16183(12) 0.4430(2) 0.1610(4)
N4_2 N 0.19652(12) 0.4212(2) 0.0783(4)
N6_2 N 0.33753(14) 0.2640(3) 0.0490(5)
H3_2 H 0.3620 0.2398 0.0370
H4_2 H 0.3346 0.2981 0.1141
C1_2 C 0.56411(17) 0.8771(4) 0.1159(5)
C2_2 C 0.52207(16) 0.8416(3) 0.0601(5)
C3_2 C 0.48504(18) 0.8867(3) 0.0605(6)
H5_2 H 0.4855 0.9380 0.0987
C4_2 C 0.44726(18) 0.8579(3) 0.0057(6)
H6_2 H 0.4222 0.8895 0.0056
C7_2 C 0.52075(18) 0.7646(4) 0.0086(7)
H8_2 H 0.5455 0.7324 0.0130
C9_2 C 0.3533(2) 0.6908(3) 0.0868(6)
H9_2 H 0.3546 0.7432 0.1202
C10_2 C 0.3295(2) 0.6331(4) 0.1542(6)
H10_2 H 0.3145 0.6469 0.2328
C11_2 C 0.32781(16) 0.5565(3) 0.1073(5)
C14_2 C 0.29743(17) 0.4961(3) 0.1721(6)
C15_2 C 0.14311(15) 0.5060(3) 0.1000(5)
Zn4_2 Zn 0.650341(17) 0.89224(3) 0.16033(5)
O7_2 O 0.09795(11) 0.3321(2) 0.3901(4)
N9_2 N 0.16348(12) 0.4748(2) 0.4830(4)
S1_2 S 0.39890(5) 0.74744(10) 0.86815(15)
O3_2 O 0.36838(13) 0.8137(3) 0.8647(5)
O4_2 O 0.41202(14) 0.7093(3) 0.7445(4)
N1_2 N 0.16348(12) 0.5252(2) 0.9830(4)
N5_2 N 0.26455(12) 0.2836(2) 0.9806(4)
C5_2 C 0.44658(16) 0.7822(3) 0.9513(5)
C6_2 C 0.48337(19) 0.7345(4) 0.9509(8)
H7_2 H 0.4829 0.6833 0.9126
C8_2 C 0.37508(17) 0.6712(3) 0.9710(6)
C12_2 C 0.3744(2) 0.5938(4) 0.9244(7)
H11_2 H 0.3897 0.5799 0.8463
C13_2 C 0.3509(2) 0.5363(4) 0.9942(7)
H12_2 H 0.3508 0.4832 0.9638
C16_2 C 0.19606(16) 0.4713(3) 0.9755(5)
H13_2 H 0.2161 0.4697 0.9048
C17_2 C 0.24132(15) 0.2514(3) 0.8768(5)
H14_2 H 0.2125 0.2650 0.8578
C18_2 C 0.30366(15) 0.2484(3) 0.9655(5)
Zn5_2 Zn 0.150341(17) 0.60776(3) 0.83967(5)
O1_3 O 0.06487(12) 0.5536(2) 0.8416(4)
O2_3 O 0.09795(11) 0.6679(2) 0.8901(4)
C1_3 C 0.06411(17) 0.6229(4) 0.8841(5)
C2_3 C 0.02207(16) 0.6584(3) 0.9399(5)
C7_3 C 0.02075(18) 0.7354(4) 0.9914(7)
H8_3 H 0.0455 0.7676 0.9870
N5_3 N 0.76455(12) 0.2164(2) 0.0194(4)
N7_2 N 0.80532(12) 0.3030(2) 0.1369(4)
N8_2 N 0.76388(12) 0.3007(2) 0.1936(4)
H12_3 H 0.8508 0.0168 0.0362
C16_3 C 0.69606(16) 0.0287(3) 0.0245(5)
H13_3 H 0.7161 0.0303 0.0952
C17_3 C 0.74132(15) 0.2486(3) 0.1232(5)
H14_3 H 0.7125 0.2350 0.1422
C18_3 C 0.80366(15) 0.2516(3) 0.0345(5)
Zn3_2 Zn 0.849659(17) 0.39224(3) 0.16033(5)
Zn6_2 Zn 0.751301(17) 0.35819(3) 0.36659(5)
Zn1_2 Zn 0.650341(17) 0.10776(3) 0.66033(5)
Zn2_2 Zn 0.748699(17) 0.14181(3) 0.86659(5)
O6_3 O 0.80134(11) 0.0774(2) 0.8698(3)
N3_3 N 0.66183(12) 0.0570(2) 0.8390(4)
N4_3 N 0.69652(12) 0.0788(2) 0.9217(4)
N6_3 N 0.83753(14) 0.2360(3) 0.9510(5)
H3_3 H 0.8620 0.2602 0.9630
H4_3 H 0.8346 0.2019 0.8859
C14_3 C 0.79743(17) 0.0039(3) 0.8279(6)
O7_3 O 0.59795(11) 0.1679(2) 0.6099(4)
N9_3 N 0.66348(12) 0.0252(2) 0.5170(4)
N10_2 N 0.69468(12) 0.1970(2) 0.6369(4)
N11_2 N 0.73612(12) 0.1993(2) 0.6936(4)
S1_3 S 0.89890(5) 0.75256(10) 0.13185(15)
O3_3 O 0.86838(13) 0.6863(3) 0.1353(5)
O4_3 O 0.91202(14) 0.7907(3) 0.2555(4)
N1_3 N 0.66348(12) 0.9748(2) 0.0170(4)
C5_3 C 0.94658(16) 0.7178(3) 0.0487(5)
C6_3 C 0.98337(19) 0.7655(4) 0.0491(8)
H7_3 H 0.9829 0.8167 0.0874
C8_3 C 0.87508(17) 0.8288(3) 0.0290(6)
C12_3 C 0.8744(2) 0.9062(4) 0.0756(7)
H11_3 H 0.8897 0.9201 0.1537
C13_3 C 0.8509(2) 0.9637(4) 0.0058(7)
S1_4 S 0.60110(5) 0.74744(10) 0.63185(15)
O1_4 O 0.43513(12) 0.9464(2) 0.3416(4)
O2_4 O 0.40205(11) 0.8321(2) 0.3901(4)
O3_4 O 0.63162(13) 0.8137(3) 0.6353(5)
O4_4 O 0.58798(14) 0.7093(3) 0.7555(4)
O5_3 O 0.72936(14) 0.5185(2) 0.2455(4)
O6_4 O 0.69866(11) 0.4226(2) 0.3698(3)
N1_4 N 0.83652(12) 0.5252(2) 0.5170(4)
N2_3 N 0.89192(13) 0.5450(3) 0.3510(4)
H1_3 H 0.9036 0.5297 0.2760
H2_3 H 0.9026 0.5853 0.3948
N3_4 N 0.83817(12) 0.4430(2) 0.3390(4)
N4_4 N 0.80348(12) 0.4212(2) 0.4217(4)
N5_4 N 0.73545(12) 0.2836(2) 0.5194(4)
N6_4 N 0.66247(14) 0.2640(3) 0.4510(5)
H3_4 H 0.6380 0.2398 0.4630
H4_4 H 0.6654 0.2981 0.3859
C1_4 C 0.43589(17) 0.8771(4) 0.3841(5)
C2_4 C 0.47793(16) 0.8416(3) 0.4399(5)
C3_3 C 0.51496(18) 0.8867(3) 0.4395(6)
H5_3 H 0.5145 0.9380 0.4013
C4_3 C 0.55274(18) 0.8579(3) 0.4943(6)
H6_3 H 0.5778 0.8895 0.4944
C5_4 C 0.55342(16) 0.7822(3) 0.5487(5)
C6_4 C 0.51663(19) 0.7345(4) 0.5491(8)
H7_4 H 0.5171 0.6833 0.5874
C7_4 C 0.47925(18) 0.7646(4) 0.4914(7)
H8_4 H 0.4545 0.7324 0.4870
C8_4 C 0.62492(17) 0.6712(3) 0.5290(6)
C9_3 C 0.6467(2) 0.6908(3) 0.4132(6)
H9_3 H 0.6454 0.7432 0.3798
C10_3 C 0.6705(2) 0.6331(4) 0.3458(6)
H10_3 H 0.6855 0.6469 0.2672
C11_3 C 0.67219(16) 0.5565(3) 0.3927(5)
C12_4 C 0.6256(2) 0.5938(4) 0.5756(7)
H11_4 H 0.6103 0.5799 0.6537
C13_4 C 0.6491(2) 0.5363(4) 0.5058(7)
H12_4 H 0.6492 0.4832 0.5362
C14_4 C 0.70257(17) 0.4961(3) 0.3279(6)
C15_3 C 0.85689(15) 0.5060(3) 0.4000(5)
C16_4 C 0.80394(16) 0.4713(3) 0.5245(5)
H13_4 H 0.7839 0.4697 0.5952
C17_4 C 0.75868(15) 0.2514(3) 0.6232(5)
H14_4 H 0.7875 0.2650 0.6422
C18_4 C 0.69634(15) 0.2484(3) 0.5345(5)
O7_4 O 0.90205(11) 0.3321(2) 0.1099(4)
N9_4 N 0.83652(12) 0.4748(2) 0.0170(4)
O1_5 O 0.06487(12) 0.4464(2) 0.3416(4)
C1_5 C 0.06411(17) 0.3771(4) 0.3841(5)
C2_5 C 0.02207(16) 0.3416(3) 0.4399(5)
C7_5 C 0.02075(18) 0.2646(4) 0.4914(7)
H8_5 H 0.0455 0.2324 0.4870
S1_5 S 0.89890(5) 0.24744(10) 0.63185(15)
O3_5 O 0.86838(13) 0.3137(3) 0.6353(5)
O4_5 O 0.91202(14) 0.2093(3) 0.7555(4)
O5_4 O 0.77064(14) 0.0185(2) 0.2455(4)
N2_4 N 0.60808(13) 0.0450(3) 0.3510(4)
H1_4 H 0.5964 0.0297 0.2760
H2_4 H 0.5974 0.0853 0.3948
C3_4 C 0.98504(18) 0.3867(3) 0.4395(6)
H5_4 H 0.9855 0.4380 0.4013
C4_4 C 0.94726(18) 0.3579(3) 0.4943(6)
H6_4 H 0.9222 0.3895 0.4944
C5_5 C 0.94658(16) 0.2822(3) 0.5487(5)
C6_5 C 0.98337(19) 0.2345(4) 0.5491(8)
H7_5 H 0.9829 0.1833 0.5874
C8_5 C 0.87508(17) 0.1712(3) 0.5290(6)
C9_4 C 0.8533(2) 0.1908(3) 0.4132(6)
H9_4 H 0.8546 0.2432 0.3798
C10_4 C 0.8295(2) 0.1331(4) 0.3458(6)
H10_4 H 0.8145 0.1469 0.2672
C11_4 C 0.82781(16) 0.0565(3) 0.3927(5)
C12_5 C 0.8744(2) 0.0938(4) 0.5756(7)
H11_5 H 0.8897 0.0799 0.6537
C13_5 C 0.8509(2) 0.0363(4) 0.5058(7)
C15_4 C 0.64311(15) 0.0060(3) 0.4000(5)
Zn2_3 Zn 0.748699(17) 0.85819(3) 0.36659(5)
O6_5 O 0.80134(11) 0.9226(2) 0.3698(3)
N3_5 N 0.66183(12) 0.9430(2) 0.3390(4)
N4_5 N 0.69652(12) 0.9212(2) 0.4217(4)
N5_5 N 0.76455(12) 0.7836(2) 0.5194(4)
N6_5 N 0.83753(14) 0.7640(3) 0.4510(5)
H3_5 H 0.8620 0.7398 0.4630
H4_5 H 0.8346 0.7981 0.3859
N7_3 N 0.80532(12) 0.6970(2) 0.6369(4)
N8_3 N 0.76388(12) 0.6993(2) 0.6936(4)
H12_5 H 0.8508 0.9832 0.5362
C14_5 C 0.79743(17) 0.9961(3) 0.3279(6)
C16_5 C 0.69606(16) 0.9713(3) 0.5245(5)
H13_5 H 0.7161 0.9697 0.5952
C17_5 C 0.74132(15) 0.7514(3) 0.6232(5)
H14_5 H 0.7125 0.7650 0.6422
C18_5 C 0.80366(15) 0.7484(3) 0.5345(5)
Zn6_3 Zn 0.751301(17) 0.64181(3) 0.86659(5)
N10_3 N 0.69468(12) 0.8030(2) 0.1369(4)
N11_3 N 0.73612(12) 0.8007(2) 0.1936(4)
S1_6 S 0.60110(5) 0.25256(10) 0.13185(15)
O3_6 O 0.63162(13) 0.1863(3) 0.1353(5)
O4_6 O 0.58798(14) 0.2907(3) 0.2555(4)
N5_6 N 0.73545(12) 0.7164(2) 0.0194(4)
C5_6 C 0.55342(16) 0.2178(3) 0.0487(5)
C6_6 C 0.51663(19) 0.2655(4) 0.0491(8)
H7_6 H 0.5171 0.3167 0.0874
C8_6 C 0.62492(17) 0.3288(3) 0.0290(6)
C12_6 C 0.6256(2) 0.4062(4) 0.0756(7)
H11_6 H 0.6103 0.4201 0.1537
C13_6 C 0.6491(2) 0.4637(4) 0.0058(7)
H12_6 H 0.6492 0.5168 0.0362
C16_6 C 0.80394(16) 0.5287(3) 0.0245(5)
H13_6 H 0.7839 0.5303 0.0952
C17_6 C 0.75868(15) 0.7486(3) 0.1232(5)
H14_6 H 0.7875 0.7350 0.1422
C18_6 C 0.69634(15) 0.7516(3) 0.0345(5)
O1_6 O 0.43513(12) 0.0536(2) 0.8416(4)
O5_5 O 0.72936(14) 0.4815(2) 0.7455(4)
O6_6 O 0.69866(11) 0.5774(2) 0.8698(3)
N2_5 N 0.89192(13) 0.4550(3) 0.8510(4)
H1_5 H 0.9036 0.4703 0.7760
H2_5 H 0.9026 0.4147 0.8948
N3_6 N 0.83817(12) 0.5570(2) 0.8390(4)
N4_6 N 0.80348(12) 0.5788(2) 0.9217(4)
N6_6 N 0.66247(14) 0.7360(3) 0.9510(5)
H3_6 H 0.6380 0.7602 0.9630
H4_6 H 0.6654 0.7019 0.8859
C1_6 C 0.43589(17) 0.1229(4) 0.8841(5)
C2_6 C 0.47793(16) 0.1584(3) 0.9399(5)
C3_5 C 0.51496(18) 0.1133(3) 0.9395(6)
H5_5 H 0.5145 0.0620 0.9013
C4_5 C 0.55274(18) 0.1421(3) 0.9943(6)
H6_5 H 0.5778 0.1105 0.9944
C7_6 C 0.47925(18) 0.2354(4) 0.9914(7)
H8_6 H 0.4545 0.2676 0.9870
C9_5 C 0.6467(2) 0.3092(3) 0.9132(6)
H9_5 H 0.6454 0.2568 0.8798
C10_5 C 0.6705(2) 0.3669(4) 0.8458(6)
H10_5 H 0.6855 0.3531 0.7672
C11_5 C 0.67219(16) 0.4435(3) 0.8927(5)
C14_6 C 0.70257(17) 0.5039(3) 0.8279(6)
C15_5 C 0.85689(15) 0.4940(3) 0.9000(5)
S1_7 S 0.10110(5) 0.24744(10) 0.86815(15)
O3_7 O 0.13162(13) 0.3137(3) 0.8647(5)
O4_7 O 0.08798(14) 0.2093(3) 0.7445(4)
C5_7 C 0.05342(16) 0.2822(3) 0.9513(5)
C6_7 C 0.01663(19) 0.2345(4) 0.9509(8)
H7_7 H 0.0171 0.1833 0.9126
C8_7 C 0.12492(17) 0.1712(3) 0.9710(6)
C12_7 C 0.1256(2) 0.0938(4) 0.9244(7)
H11_7 H 0.1103 0.0799 0.8463
C13_7 C 0.1491(2) 0.0363(4) 0.9942(7)
Zn2_4 Zn 0.251301(17) 0.85819(3) 0.13341(5)
O6_7 O 0.19866(11) 0.9226(2) 0.1302(3)
N3_7 N 0.33817(12) 0.9430(2) 0.1610(4)
N4_7 N 0.30348(12) 0.9212(2) 0.0783(4)
N6_7 N 0.16247(14) 0.7640(3) 0.0490(5)
H3_7 H 0.1380 0.7398 0.0370
H4_7 H 0.1654 0.7981 0.1141
C14_7 C 0.20257(17) 0.9961(3) 0.1721(6)
N10_4 N 0.30532(12) 0.8030(2) 0.3631(4)
N11_4 N 0.26388(12) 0.8007(2) 0.3064(4)
N5_7 N 0.23545(12) 0.7836(2) 0.9806(4)
N7_4 N 0.19468(12) 0.6970(2) 0.8631(4)
N8_4 N 0.23612(12) 0.6993(2) 0.8064(4)
H12_7 H 0.1492 0.9832 0.9638
C16_7 C 0.30394(16) 0.9713(3) 0.9755(5)
H13_7 H 0.2839 0.9697 0.9048
C17_7 C 0.25868(15) 0.7514(3) 0.8768(5)
H14_7 H 0.2875 0.7650 0.8578
C18_7 C 0.19634(15) 0.7484(3) 0.9655(5)
Zn6_4 Zn 0.248699(17) 0.64181(3) 0.63341(5)
O1_7 O 0.93513(12) 0.4464(2) 0.1584(4)
C1_7 C 0.93589(17) 0.3771(4) 0.1159(5)
C2_7 C 0.97793(16) 0.3416(3) 0.0601(5)
C7_7 C 0.97925(18) 0.2646(4) 0.0086(7)
H8_7 H 0.9545 0.2324 0.0130
S1_8 S 0.39890(5) 0.25256(10) 0.36815(15)
O1_8 O 0.56487(12) 0.0536(2) 0.6584(4)
O3_8 O 0.36838(13) 0.1863(3) 0.3647(5)
O4_8 O 0.41202(14) 0.2907(3) 0.2445(4)
O5_6 O 0.27064(14) 0.4815(2) 0.7545(4)
O6_8 O 0.30134(11) 0.5774(2) 0.6302(3)
N2_6 N 0.10808(13) 0.4550(3) 0.6490(4)
H1_6 H 0.0964 0.4703 0.7240
H2_6 H 0.0974 0.4147 0.6052
N3_8 N 0.16183(12) 0.5570(2) 0.6610(4)
N4_8 N 0.19652(12) 0.5788(2) 0.5783(4)
N5_8 N 0.26455(12) 0.7164(2) 0.4806(4)
N6_8 N 0.33753(14) 0.7360(3) 0.5490(5)
H3_8 H 0.3620 0.7602 0.5370
H4_8 H 0.3346 0.7019 0.6141
C1_8 C 0.56411(17) 0.1229(4) 0.6159(5)
C2_8 C 0.52207(16) 0.1584(3) 0.5601(5)
C3_6 C 0.48504(18) 0.1133(3) 0.5605(6)
H5_6 H 0.4855 0.0620 0.5987
C4_6 C 0.44726(18) 0.1421(3) 0.5057(6)
H6_6 H 0.4222 0.1105 0.5056
C5_8 C 0.44658(16) 0.2178(3) 0.4513(5)
C6_8 C 0.48337(19) 0.2655(4) 0.4509(8)
H7_8 H 0.4829 0.3167 0.4126
C7_8 C 0.52075(18) 0.2354(4) 0.5086(7)
H8_8 H 0.5455 0.2676 0.5130
C8_8 C 0.37508(17) 0.3288(3) 0.4710(6)
C9_6 C 0.3533(2) 0.3092(3) 0.5868(6)
H9_6 H 0.3546 0.2568 0.6202
C10_6 C 0.3295(2) 0.3669(4) 0.6542(6)
H10_6 H 0.3145 0.3531 0.7328
C11_6 C 0.32781(16) 0.4435(3) 0.6073(5)
C12_8 C 0.3744(2) 0.4062(4) 0.4244(7)
H11_8 H 0.3897 0.4201 0.3463
C13_8 C 0.3509(2) 0.4637(4) 0.4942(7)
H12_8 H 0.3508 0.5168 0.4638
C14_8 C 0.29743(17) 0.5039(3) 0.6721(6)
C15_6 C 0.14311(15) 0.4940(3) 0.6000(5)
C16_8 C 0.19606(16) 0.5287(3) 0.4755(5)
H13_8 H 0.2161 0.5303 0.4048
C17_8 C 0.24132(15) 0.7486(3) 0.3768(5)
H14_8 H 0.2125 0.7350 0.3578
C18_8 C 0.30366(15) 0.7516(3) 0.4655(5)
O5_7 O 0.77064(14) 0.9815(2) 0.7455(4)
N2_7 N 0.60808(13) 0.9550(3) 0.8510(4)
H1_7 H 0.5964 0.9703 0.7760
H2_7 H 0.5974 0.9147 0.8948
C3_7 C 0.98504(18) 0.6133(3) 0.9395(6)
H5_7 H 0.9855 0.5620 0.9013
C4_7 C 0.94726(18) 0.6421(3) 0.9943(6)
H6_7 H 0.9222 0.6105 0.9944
C9_7 C 0.8533(2) 0.8092(3) 0.9132(6)
H9_7 H 0.8546 0.7568 0.8798
C10_7 C 0.8295(2) 0.8669(4) 0.8458(6)
H10_7 H 0.8145 0.8531 0.7672
C11_7 C 0.82781(16) 0.9435(3) 0.8927(5)
C15_7 C 0.64311(15) 0.9940(3) 0.9000(5)
O5_8 O 0.22936(14) 0.0185(2) 0.2545(4)
N2_8 N 0.39192(13) 0.0450(3) 0.1490(4)
H1_8 H 0.4036 0.0297 0.2240
H2_8 H 0.4026 0.0853 0.1052
C3_8 C 0.01496(18) 0.3867(3) 0.0605(6)
H5_8 H 0.0145 0.4380 0.0987
C4_8 C 0.05274(18) 0.3579(3) 0.0057(6)
H6_8 H 0.0778 0.3895 0.0056
C9_8 C 0.1467(2) 0.1908(3) 0.0868(6)
H9_8 H 0.1454 0.2432 0.1202
C10_8 C 0.1705(2) 0.1331(4) 0.1542(6)
H10_8 H 0.1855 0.1469 0.2328
C11_8 C 0.17219(16) 0.0565(3) 0.1073(5)
C15_8 C 0.35689(15) 0.0060(3) 0.1000(5)
loop_
_geom_bond_atom_site_label_1
_geom_bond_atom_site_label_2
_geom_bond_site_symmetry_1
_geom_bond_site_symmetry_2
Zn1 N3 1_555 1_555
Zn2 O6 1_555 1_555
O6 C14 1_555 1_555
N3 N4 1_555 1_555
N4 Zn2 1_555 1_555
N5 Zn2 1_555 1_555
N6 H3 1_555 1_555
H4 N6 1_555 1_555
N7 N8 1_555 1_555
N8 C17 1_555 1_555
H13 C16 1_555 1_555
C17 N5 1_555 1_555
H14 C17 1_555 1_555
C18 N5 1_555 1_555
Zn3 N7 1_555 1_555
Zn6 N8 1_555 1_555
O7 Zn1 1_555 1_555
N9 Zn1 1_555 1_555
N10 Zn1 1_555 1_555
N11 Zn2 1_555 1_555
N4 C16 1_555 1_555
N6 C18 1_555 1_555
N7 C18 1_555 1_555
N10 N11 1_555 1_555
S1 O3 1_555 1_555
O4 S1 1_555 1_555
N1 C15 1_555 1_555
N2 H1 1_555 1_555
H2 N2 1_555 1_555
C3 H5 1_555 1_555
C4 C3 1_555 1_555
H6 C4 1_555 1_555
C5 S1 1_555 1_555
C6 C5 1_555 1_555
H7 C6 1_555 1_555
C8 S1 1_555 1_555
C9 C8 1_555 1_555
H9 C9 1_555 1_555
C10 C9 1_555 1_555
H10 C10 1_555 1_555
C11 C10 1_555 1_555
C12 C8 1_555 1_555
H11 C12 1_555 1_555
C13 C11 1_555 1_555
C15 N2 1_555 1_555
Zn5 N1 1_555 1_555
C4 C5 1_555 1_555
C12 C13 1_555 1_555
O1 C1 1_555 1_555
O2 C1 1_555 1_555
C1 C2 1_555 1_555
C7 C2 1_555 1_555
H8 C7 1_555 1_555
Zn4 O2 1_555 1_555
Zn3 N3_2 1_555 1_555
Zn6 O6_2 1_555 1_555
O1_2 C1_2 1_555 1_555
O2_2 C1_2 1_555 1_555
O5_2 C14_2 1_555 1_555
O6_2 C14_2 1_555 1_555
N2_2 H1_2 1_555 1_555
H2_2 N2_2 1_555 1_555
N3_2 N4_2 1_555 1_555
N4_2 Zn6 1_555 1_555
N6_2 H3_2 1_555 1_555
H4_2 N6_2 1_555 1_555
C1_2 C2_2 1_555 1_555
C2_2 C3_2 1_555 1_555
C3_2 H5_2 1_555 1_555
C4_2 C3_2 1_555 1_555
H6_2 C4_2 1_555 1_555
C7_2 C2_2 1_555 1_555
H8_2 C7_2 1_555 1_555
H9_2 C9_2 1_555 1_555
C10_2 C9_2 1_555 1_555
H10_2 C10_2 1_555 1_555
C11_2 C10_2 1_555 1_555
C14_2 C11_2 1_555 1_555
C15_2 N2_2 1_555 1_555
Zn4_2 O2_2 1_555 1_555
O7_2 Zn3 1_555 1_555
N9_2 Zn3 1_555 1_555
N3_2 C15_2 1_555 1_555
S1_2 O3_2 1_555 1_555
O4_2 S1_2 1_555 1_555
N11 C17_2 1_555 1_555
C5_2 S1_2 1_555 1_555
C6_2 C5_2 1_555 1_555
H7_2 C6_2 1_555 1_555
C8_2 S1_2 1_555 1_555
C12_2 C8_2 1_555 1_555
H11_2 C12_2 1_555 1_555
H12_2 C13_2 1_555 1_555
C16_2 N1_2 1_555 1_555
H13_2 C16_2 1_555 1_555
C17_2 N5_2 1_555 1_555
H14_2 C17_2 1_555 1_555
C18_2 N5_2 1_555 1_555
Zn5_2 N1_2 1_555 1_555
N10 C18_2 1_555 1_555
C12_2 C13_2 1_555 1_555
O1_3 C1_3 1_555 1_555
O2_3 C1_3 1_555 1_555
C1_3 C2_3 1_555 1_555
C7_3 C2_3 1_555 1_555
H8_3 C7_3 1_555 1_555
Zn5_2 O2_3 1_555 1_555
N7_2 N8_2 1_555 1_555
N8_2 C17_3 1_555 1_555
H13_3 C16_3 1_555 1_555
C17_3 N5_3 1_555 1_555
H14_3 C17_3 1_555 1_555
C18_3 N5_3 1_555 1_555
Zn3_2 N7_2 1_555 1_555
Zn6_2 N8_2 1_555 1_555
N7_2 C18_3 1_555 1_555
Zn1_2 N3_3 1_555 1_555
Zn2_2 O6_3 1_555 1_555
O6_3 C14_3 1_555 1_555
N3_3 N4_3 1_555 1_555
N4_3 Zn2_2 1_555 1_555
N6_3 H3_3 1_555 1_555
H4_3 N6_3 1_555 1_555
O7_3 Zn1_2 1_555 1_555
N9_3 Zn1_2 1_555 1_555
N10_2 Zn1_2 1_555 1_555
N11_2 Zn2_2 1_555 1_555
N10_2 N11_2 1_555 1_555
S1_3 O3_3 1_555 1_555
O4_3 S1_3 1_555 1_555
C5_3 S1_3 1_555 1_555
C6_3 C5_3 1_555 1_555
H7_3 C6_3 1_555 1_555
C8_3 S1_3 1_555 1_555
C12_3 C8_3 1_555 1_555
H11_3 C12_3 1_555 1_555
Zn4_2 N1_3 1_555 1_555
C12_3 C13_3 1_555 1_555
Zn3_2 N3_4 1_555 1_555
Zn6_2 O6_4 1_555 1_555
S1_4 O3_4 1_555 1_555
O1_4 C1_4 1_555 1_555
O2_4 C1_4 1_555 1_555
O4_4 S1_4 1_555 1_555
O5_3 C14_4 1_555 1_555
O6_4 C14_4 1_555 1_555
N1_4 C15_3 1_555 1_555
N2_3 H1_3 1_555 1_555
H2_3 N2_3 1_555 1_555
N3_4 N4_4 1_555 1_555
N4_4 Zn6_2 1_555 1_555
N5_4 Zn6_2 1_555 1_555
N6_4 H3_4 1_555 1_555
H4_4 N6_4 1_555 1_555
N11_2 C17_4 1_555 1_555
C1_4 C2_4 1_555 1_555
C2_4 C3_3 1_555 1_555
C3_3 H5_3 1_555 1_555
C4_3 C3_3 1_555 1_555
H6_3 C4_3 1_555 1_555
C5_4 S1_4 1_555 1_555
C6_4 C5_4 1_555 1_555
H7_4 C6_4 1_555 1_555
C7_4 C2_4 1_555 1_555
H8_4 C7_4 1_555 1_555
C8_4 S1_4 1_555 1_555
C9_3 C8_4 1_555 1_555
H9_3 C9_3 1_555 1_555
C10_3 C9_3 1_555 1_555
H10_3 C10_3 1_555 1_555
C11_3 C10_3 1_555 1_555
C12_4 C8_4 1_555 1_555
H11_4 C12_4 1_555 1_555
C13_4 C11_3 1_555 1_555
H12_4 C13_4 1_555 1_555
C14_4 C11_3 1_555 1_555
C15_3 N2_3 1_555 1_555
C16_4 N1_4 1_555 1_555
H13_4 C16_4 1_555 1_555
C17_4 N5_4 1_555 1_555
H14_4 C17_4 1_555 1_555
C18_4 N5_4 1_555 1_555
Zn5 O2_4 1_555 1_555
Zn4 N1_4 1_555 1_555
O7_4 Zn3_2 1_555 1_555
N9_4 Zn3_2 1_555 1_555
N3_4 C15_3 1_555 1_555
N4_4 C16_4 1_555 1_555
N6_4 C18_4 1_555 1_555
N10_2 C18_4 1_555 1_555
C4_3 C5_4 1_555 1_555
C6_4 C7_4 1_555 1_555
C12_4 C13_4 1_555 1_555
O1_5 C1_5 1_555 1_555
O7_2 C1_5 1_555 1_555
C1_5 C2_5 1_555 1_555
C7_5 C2_5 1_555 1_555
H8_5 C7_5 1_555 1_555
S1_5 O3_5 1_555 1_555
O4_5 S1_5 1_555 1_555
N9_3 C15_4 1_555 1_555
N2_4 H1_4 1_555 1_555
H2_4 N2_4 1_555 1_555
C3_4 H5_4 1_555 1_555
C4_4 C3_4 1_555 1_555
H6_4 C4_4 1_555 1_555
C5_5 S1_5 1_555 1_555
C6_5 C5_5 1_555 1_555
H7_5 C6_5 1_555 1_555
C8_5 S1_5 1_555 1_555
C9_4 C8_5 1_555 1_555
H9_4 C9_4 1_555 1_555
C10_4 C9_4 1_555 1_555
H10_4 C10_4 1_555 1_555
C11_4 C10_4 1_555 1_555
C12_5 C8_5 1_555 1_555
H11_5 C12_5 1_555 1_555
C13_5 C11_4 1_555 1_555
C15_4 N2_4 1_555 1_555
C4_4 C5_5 1_555 1_555
C12_5 C13_5 1_555 1_555
Zn4_2 N3_5 1_555 1_555
Zn2_3 O6_5 1_555 1_555
O6_5 C14_5 1_555 1_555
N3_5 N4_5 1_555 1_555
N4_5 Zn2_3 1_555 1_555
N5_5 Zn2_3 1_555 1_555
N6_5 H3_5 1_555 1_555
H4_5 N6_5 1_555 1_555
N7_3 N8_3 1_555 1_555
N8_3 C17_5 1_555 1_555
H13_5 C16_5 1_555 1_555
C17_5 N5_5 1_555 1_555
H14_5 C17_5 1_555 1_555
C18_5 N5_5 1_555 1_555
Zn4 N7_3 1_555 1_555
Zn6_3 N8_3 1_555 1_555
N10_3 Zn4_2 1_555 1_555
N11_3 Zn2_3 1_555 1_555
N4_5 C16_5 1_555 1_555
N6_5 C18_5 1_555 1_555
N7_3 C18_5 1_555 1_555
N10_3 N11_3 1_555 1_555
S1_6 O3_6 1_555 1_555
O4_6 S1_6 1_555 1_555
N11_3 C17_6 1_555 1_555
C5_6 S1_6 1_555 1_555
C6_6 C5_6 1_555 1_555
H7_6 C6_6 1_555 1_555
C8_6 S1_6 1_555 1_555
C12_6 C8_6 1_555 1_555
H11_6 C12_6 1_555 1_555
H12_6 C13_6 1_555 1_555
C16_6 N9_4 1_555 1_555
H13_6 C16_6 1_555 1_555
C17_6 N5_6 1_555 1_555
H14_6 C17_6 1_555 1_555
C18_6 N5_6 1_555 1_555
N10_3 C18_6 1_555 1_555
C12_6 C13_6 1_555 1_555
Zn4 N3_6 1_555 1_555
Zn6_3 O6_6 1_555 1_555
O1_6 C1_6 1_555 1_555
O7 C1_6 1_555 1_555
O5_5 C14_6 1_555 1_555
O6_6 C14_6 1_555 1_555
N2_5 H1_5 1_555 1_555
H2_5 N2_5 1_555 1_555
N3_6 N4_6 1_555 1_555
N4_6 Zn6_3 1_555 1_555
N6_6 H3_6 1_555 1_555
H4_6 N6_6 1_555 1_555
C1_6 C2_6 1_555 1_555
C2_6 C3_5 1_555 1_555
C3_5 H5_5 1_555 1_555
C4_5 C3_5 1_555 1_555
H6_5 C4_5 1_555 1_555
C7_6 C2_6 1_555 1_555
H8_6 C7_6 1_555 1_555
H9_5 C9_5 1_555 1_555
C10_5 C9_5 1_555 1_555
H10_5 C10_5 1_555 1_555
C11_5 C10_5 1_555 1_555
C14_6 C11_5 1_555 1_555
C15_5 N2_5 1_555 1_555
N3_6 C15_5 1_555 1_555
S1_7 O3_7 1_555 1_555
O4_7 S1_7 1_555 1_555
C5_7 S1_7 1_555 1_555
C6_7 C5_7 1_555 1_555
H7_7 C6_7 1_555 1_555
C8_7 S1_7 1_555 1_555
C12_7 C8_7 1_555 1_555
H11_7 C12_7 1_555 1_555
C12_7 C13_7 1_555 1_555
Zn5 N3_7 1_555 1_555
Zn2_4 O6_7 1_555 1_555
O6_7 C14_7 1_555 1_555
N3_7 N4_7 1_555 1_555
N4_7 Zn2_4 1_555 1_555
N6_7 H3_7 1_555 1_555
H4_7 N6_7 1_555 1_555
N10_4 Zn5 1_555 1_555
N11_4 Zn2_4 1_555 1_555
N10_4 N11_4 1_555 1_555
N7_4 N8_4 1_555 1_555
N8_4 C17_7 1_555 1_555
H13_7 C16_7 1_555 1_555
C17_7 N5_7 1_555 1_555
H14_7 C17_7 1_555 1_555
C18_7 N5_7 1_555 1_555
Zn5_2 N7_4 1_555 1_555
Zn6_4 N8_4 1_555 1_555
N7_4 C18_7 1_555 1_555
O1_7 C1_7 1_555 1_555
O7_4 C1_7 1_555 1_555
C1_7 C2_7 1_555 1_555
C7_7 C2_7 1_555 1_555
H8_7 C7_7 1_555 1_555
Zn5_2 N3_8 1_555 1_555
Zn6_4 O6_8 1_555 1_555
S1_8 O3_8 1_555 1_555
O1_8 C1_8 1_555 1_555
O7_3 C1_8 1_555 1_555
O4_8 S1_8 1_555 1_555
O5_6 C14_8 1_555 1_555
O6_8 C14_8 1_555 1_555
N9_2 C15_6 1_555 1_555
N2_6 H1_6 1_555 1_555
H2_6 N2_6 1_555 1_555
N3_8 N4_8 1_555 1_555
N4_8 Zn6_4 1_555 1_555
N5_8 Zn6_4 1_555 1_555
N6_8 H3_8 1_555 1_555
H4_8 N6_8 1_555 1_555
N11_4 C17_8 1_555 1_555
C1_8 C2_8 1_555 1_555
C2_8 C3_6 1_555 1_555
C3_6 H5_6 1_555 1_555
C4_6 C3_6 1_555 1_555
H6_6 C4_6 1_555 1_555
C5_8 S1_8 1_555 1_555
C6_8 C5_8 1_555 1_555
H7_8 C6_8 1_555 1_555
C7_8 C2_8 1_555 1_555
H8_8 C7_8 1_555 1_555
C8_8 S1_8 1_555 1_555
C9_6 C8_8 1_555 1_555
H9_6 C9_6 1_555 1_555
C10_6 C9_6 1_555 1_555
H10_6 C10_6 1_555 1_555
C11_6 C10_6 1_555 1_555
C12_8 C8_8 1_555 1_555
H11_8 C12_8 1_555 1_555
C13_8 C11_6 1_555 1_555
H12_8 C13_8 1_555 1_555
C14_8 C11_6 1_555 1_555
C15_6 N2_6 1_555 1_555
C16_8 N9_2 1_555 1_555
H13_8 C16_8 1_555 1_555
C17_8 N5_8 1_555 1_555
H14_8 C17_8 1_555 1_555
C18_8 N5_8 1_555 1_555
N3_8 C15_6 1_555 1_555
N4_8 C16_8 1_555 1_555
N6_8 C18_8 1_555 1_555
N10_4 C18_8 1_555 1_555
C4_6 C5_8 1_555 1_555
C6_8 C7_8 1_555 1_555
C12_8 C13_8 1_555 1_555
N2_7 H1_7 1_555 1_555
H2_7 N2_7 1_555 1_555
C3_7 H5_7 1_555 1_555
C4_7 C3_7 1_555 1_555
H6_7 C4_7 1_555 1_555
H9_7 C9_7 1_555 1_555
C10_7 C9_7 1_555 1_555
H10_7 C10_7 1_555 1_555
C11_7 C10_7 1_555 1_555
C15_7 N2_7 1_555 1_555
N2_8 H1_8 1_555 1_555
H2_8 N2_8 1_555 1_555
C3_8 H5_8 1_555 1_555
C4_8 C3_8 1_555 1_555
H6_8 C4_8 1_555 1_555
H9_8 C9_8 1_555 1_555
C10_8 C9_8 1_555 1_555
H10_8 C10_8 1_555 1_555
C11_8 C10_8 1_555 1_555
C15_8 N2_8 1_555 1_555

#END
