
###############################################################################
#
# This file contains modified crystal structure data generated from the
# MOF subset of the Cambridge Structural Database (CSD) v543 
# hosted by the Cambridge Crystallographic Data Centre (CCDC).
#
# This work is licensed under the Creative Commons
# Attribution-NonCommercial-ShareAlike 4.0 International License.
# To view a copy of this license, visit
# http://creativecommons.org/licenses/by-nc-sa/4.0/
# or send a letter to
# Creative Commons, PO Box 1866, Mountain View, CA 94042, USA.
#
# CIF created using the CSD Python API on 29 September 2022
# The structure has been converted into the P1 space group
# The structure has a 3D framework
# The original CSD entry VIZSOO is in the orthorhombic crystal system
# The original CSD entry VIZSOO is in a Sohncke space group
# The framework has been calculated to contain at least 10.0% void space
# The void calculation uses a probe of radius 1.32A, grid spacing 0.4
#
###############################################################################

data_VIZSOO
_chemical_formula_moiety         '(C176 H96 I8 N72 Zn5)n'
_symmetry_cell_setting           triclinic
_symmetry_space_group_name_H-M   'P 1'
_symmetry_Int_Tables_number      1
_space_group_name_Hall           'P 1'
loop_
_symmetry_equiv_pos_site_id
_symmetry_equiv_pos_as_xyz
1 x,y,z
_cell_length_a                   21.500(11)
_cell_length_b                   21.500(11)
_cell_length_c                   22.454(12)
_cell_angle_alpha                90
_cell_angle_beta                 90
_cell_angle_gamma                90
_cell_volume                     10379.4
loop_
_atom_site_label
_atom_site_type_symbol
_atom_site_fract_x
_atom_site_fract_y
_atom_site_fract_z
Zn1 Zn 0.00494(8) 0.01459(10) 0.49376(9)
N10 N 0.0423(6) 0.0530(9) 0.4186(6)
N11 N 0.0794(4) 0.9698(5) 0.5322(4)
N1 N 0.9563(6) 0.9362(8) 0.4628(6)
C1 C 0.9433(8) 0.9347(9) 0.4058(9)
H1 H 0.9514 0.9696 0.3811
C2 C 0.9179(7) 0.8818(11) 0.3830(8)
H2 H 0.9060 0.8811 0.3423
C3 C 0.9087(7) 0.8290(9) 0.4172(8)
C4 C 0.9206(8) 0.8349(11) 0.4767(7)
H3 H 0.9120 0.8017 0.5034
C5 C 0.9461(10) 0.8912(11) 0.4977(9)
H4 H 0.9557 0.8955 0.5388
N2 N 0.9577(6) 0.5530(9) 0.0814(6)
C6 C 0.9215(8) 0.5189(10) 0.1196(8)
H5 H 0.9127 0.4768 0.1100
C7 C 0.8984(7) 0.5425(10) 0.1695(8)
H6 H 0.8741 0.5166 0.1947
C8 C 0.9079(7) 0.6008(10) 0.1855(8)
C9 C 0.9441(7) 0.6394(10) 0.1460(7)
H7 H 0.9532 0.6815 0.1553
C10 C 0.9641(10) 0.6128(12) 0.0959(9)
H8 H 0.9848 0.6388 0.0680
N3 N 0.5794(4) 0.5302(5) 0.4678(4)
C11 C 0.6055(4) 0.5827(5) 0.4939(4)
H9 H 0.5871 0.6003 0.5284
C12 C 0.6586(4) 0.6093(5) 0.4695(5)
H10 H 0.6765 0.6452 0.4873
C13 C 0.6856(4) 0.5835(5) 0.4189(5)
C14 C 0.6594(5) 0.5310(6) 0.3928(4)
H11 H 0.6778 0.5134 0.3583
C15 C 0.6063(5) 0.5044(5) 0.4172(5)
H12 H 0.5884 0.4686 0.3994
C16 C 0.8852(7) 0.7709(9) 0.3900(8)
N4 N 0.9096(6) 0.7531(8) 0.3371(6)
C17 C 0.8883(7) 0.7012(10) 0.3134(7)
N5 N 0.9086(5) 0.6815(7) 0.2636(6)
C18 C 0.8828(8) 0.6263(10) 0.2417(8)
N6 N 0.8363(6) 0.5952(7) 0.2654(6)
C19 C 0.8139(7) 0.6176(9) 0.3162(7)
N7 N 0.7619(6) 0.5888(8) 0.3423(6)
C20 C 0.7436(8) 0.6159(9) 0.3935(8)
N8 N 0.7644(6) 0.6641(7) 0.4233(6)
C21 C 0.8142(7) 0.6914(9) 0.3957(7)
N9 N 0.8380(6) 0.7439(7) 0.4230(6)
C22 C 0.8371(7) 0.6693(9) 0.3428(7)
Zn2 Zn 0.50494(8) 0.48541(10) 0.50624(9)
Zn3 Zn 0.99506(8) 0.51459(10) 0.00624(9)
H3_2 H 0.5880 0.1983 0.0034
H4_2 H 0.5443 0.1045 0.0388
H9_2 H 0.9129 0.3997 0.0284
N11_2 N 0.4206(4) 0.0302(5) 0.0322(4)
N1_2 N 0.5437(6) 0.0638(8) 0.9628(6)
C1_2 C 0.5567(8) 0.0653(9) 0.9058(9)
H1_2 H 0.5486 0.0304 0.8811
C2_2 C 0.5821(7) 0.1182(11) 0.8830(8)
H2_2 H 0.5940 0.1189 0.8423
C3_2 C 0.5913(7) 0.1710(9) 0.9172(8)
C4_2 C 0.5794(8) 0.1651(11) 0.9767(7)
C5_2 C 0.5539(10) 0.1088(11) 0.9977(9)
N2_2 N 0.5423(6) 0.4470(9) 0.5814(6)
C6_2 C 0.5785(8) 0.4811(10) 0.6196(8)
H5_2 H 0.5873 0.5232 0.6100
C7_2 C 0.6016(7) 0.4575(10) 0.6695(8)
H6_2 H 0.6259 0.4834 0.6947
C8_2 C 0.5921(7) 0.3992(10) 0.6855(8)
C9_2 C 0.5559(7) 0.3606(10) 0.6460(7)
H7_2 H 0.5468 0.3185 0.6553
C10_2 C 0.5359(10) 0.3872(12) 0.5959(9)
H8_2 H 0.5152 0.3612 0.5680
N3_2 N 0.9206(4) 0.4698(5) 0.9678(4)
C11_2 C 0.8945(4) 0.4173(5) 0.9939(4)
C12_2 C 0.8414(4) 0.3907(5) 0.9695(5)
H10_2 H 0.8235 0.3548 0.9873
C13_2 C 0.8144(4) 0.4165(5) 0.9189(5)
C14_2 C 0.8406(5) 0.4690(6) 0.8928(4)
H11_2 H 0.8222 0.4866 0.8583
C15_2 C 0.8937(5) 0.4956(5) 0.9172(5)
H12_2 H 0.9116 0.5314 0.8994
C16_2 C 0.6148(7) 0.2291(9) 0.8900(8)
N4_2 N 0.5904(6) 0.2469(8) 0.8371(6)
C17_2 C 0.6117(7) 0.2988(10) 0.8134(7)
N5_2 N 0.5914(5) 0.3185(7) 0.7636(6)
C18_2 C 0.6172(8) 0.3737(10) 0.7417(8)
N6_2 N 0.6637(6) 0.4048(7) 0.7654(6)
C19_2 C 0.6861(7) 0.3824(9) 0.8162(7)
N7_2 N 0.7381(6) 0.4112(8) 0.8423(6)
C20_2 C 0.7564(8) 0.3841(9) 0.8935(8)
N8_2 N 0.7356(6) 0.3359(7) 0.9233(6)
C21_2 C 0.6858(7) 0.3086(9) 0.8957(7)
N9_2 N 0.6620(6) 0.2561(7) 0.9230(6)
C22_2 C 0.6629(7) 0.3307(9) 0.8428(7)
Zn1_2 Zn 0.49506(8) 0.98541(10) 0.99376(9)
N10_2 N 0.4577(6) 0.9470(9) 0.9186(6)
H5_3 H 0.4127 0.0232 0.8900
H12_3 H 0.0884 0.0314 0.6006
I1 I 0.45241(6) 0.41229(8) 0.43526(6)
N1_3 N 0.4563(6) 0.5638(8) 0.5372(6)
C1_3 C 0.4433(8) 0.5653(9) 0.5942(9)
H1_3 H 0.4514 0.5304 0.6189
C2_3 C 0.4179(7) 0.6182(11) 0.6170(8)
H2_3 H 0.4060 0.6189 0.6577
C3_3 C 0.4087(7) 0.6710(9) 0.5828(8)
C4_3 C 0.4206(8) 0.6651(11) 0.5233(7)
H3_3 H 0.4120 0.6983 0.4966
C5_3 C 0.4461(10) 0.6088(11) 0.5023(9)
H4_3 H 0.4557 0.6045 0.4612
C6_3 C 0.4215(8) 0.9811(10) 0.8804(8)
C7_3 C 0.3984(7) 0.9575(10) 0.8305(8)
H6_3 H 0.3741 0.9834 0.8053
C8_3 C 0.4079(7) 0.8992(10) 0.8145(8)
C9_3 C 0.4441(7) 0.8606(10) 0.8540(7)
H7_3 H 0.4532 0.8185 0.8447
C10_3 C 0.4641(10) 0.8872(12) 0.9041(9)
H8_3 H 0.4848 0.8612 0.9320
C11_3 C 0.1055(4) 0.9173(5) 0.5061(4)
H9_3 H 0.0871 0.8997 0.4716
C12_3 C 0.1586(4) 0.8907(5) 0.5305(5)
H10_3 H 0.1765 0.8548 0.5127
C13_3 C 0.1856(4) 0.9165(5) 0.5811(5)
C14_3 C 0.1594(5) 0.9690(6) 0.6072(4)
H11_3 H 0.1778 0.9866 0.6417
C15_3 C 0.1063(5) 0.9956(5) 0.5828(5)
C16_3 C 0.3852(7) 0.7291(9) 0.6100(8)
N4_3 N 0.4096(6) 0.7469(8) 0.6629(6)
C17_3 C 0.3883(7) 0.7988(10) 0.6866(7)
N5_3 N 0.4086(5) 0.8185(7) 0.7364(6)
C18_3 C 0.3828(8) 0.8737(10) 0.7583(8)
N6_3 N 0.3363(6) 0.9048(7) 0.7346(6)
C19_3 C 0.3139(7) 0.8824(9) 0.6838(7)
N7_3 N 0.2619(6) 0.9112(8) 0.6577(6)
C20_3 C 0.2436(8) 0.8841(9) 0.6065(8)
N8_3 N 0.2644(6) 0.8359(7) 0.5767(6)
C21_3 C 0.3142(7) 0.8086(9) 0.6043(7)
N9_3 N 0.3380(6) 0.7561(7) 0.5770(6)
C22_3 C 0.3371(7) 0.8307(9) 0.6572(7)
N1_4 N 0.0437(6) 0.4362(8) 0.0372(6)
C1_4 C 0.0567(8) 0.4347(9) 0.0942(9)
H1_4 H 0.0486 0.4696 0.1189
C2_4 C 0.0821(7) 0.3818(11) 0.1170(8)
H2_4 H 0.0940 0.3811 0.1577
C3_4 C 0.0913(7) 0.3290(9) 0.0828(8)
C4_4 C 0.0794(8) 0.3349(11) 0.0233(7)
C5_4 C 0.0539(10) 0.3912(11) 0.0023(9)
C6_4 C 0.0785(8) 0.0189(10) 0.3804(8)
C7_4 C 0.1016(7) 0.0425(10) 0.3305(8)
H6_4 H 0.1259 0.0166 0.3053
C8_4 C 0.0921(7) 0.1008(10) 0.3145(8)
C9_4 C 0.0559(7) 0.1394(10) 0.3540(7)
H7_4 H 0.0468 0.1815 0.3447
C10_4 C 0.0359(10) 0.1128(12) 0.4041(9)
H8_4 H 0.0152 0.1388 0.4320
C11_4 C 0.3945(4) 0.0827(5) 0.0061(4)
C12_4 C 0.3414(4) 0.1093(5) 0.0305(5)
H10_4 H 0.3235 0.1452 0.0127
C13_4 C 0.3144(4) 0.0835(5) 0.0811(5)
C14_4 C 0.3406(5) 0.0310(6) 0.1072(4)
H11_4 H 0.3222 0.0134 0.1417
C15_4 C 0.3937(5) 0.0044(5) 0.0828(5)
C16_4 C 0.1148(7) 0.2709(9) 0.1100(8)
N4_4 N 0.0904(6) 0.2531(8) 0.1629(6)
C17_4 C 0.1117(7) 0.2012(10) 0.1866(7)
N5_4 N 0.0914(5) 0.1815(7) 0.2364(6)
C18_4 C 0.1172(8) 0.1263(10) 0.2583(8)
N6_4 N 0.1637(6) 0.0952(7) 0.2346(6)
C19_4 C 0.1861(7) 0.1176(9) 0.1838(7)
N7_4 N 0.2381(6) 0.0888(8) 0.1577(6)
C20_4 C 0.2564(8) 0.1159(9) 0.1065(8)
N8_4 N 0.2356(6) 0.1641(7) 0.0767(6)
C21_4 C 0.1858(7) 0.1914(9) 0.1043(7)
N9_4 N 0.1620(6) 0.2439(7) 0.0770(6)
C22_4 C 0.1629(7) 0.1693(9) 0.1572(7)
I1_2 I 0.95241(6) 0.08771(8) 0.56474(6)
I1_3 I 0.54759(6) 0.91229(8) 0.06474(6)
I1_4 I 0.04759(6) 0.58771(8) 0.93526(6)
H3_4 H 0.0880 0.3017 0.9966
H4_4 H 0.0443 0.3955 0.9612
H9_4 H 0.4129 0.1003 0.9716
H5_4 H 0.0873 0.9768 0.3900
H12_4 H 0.4116 0.9686 0.1006
H21 H 0.9201 0.0130 0.1159
Zn5 Zn 0.99328(8) 0.00691(10) 0.00131(8)
N21 N 0.4666(7) 0.0685(8) 0.4612(6)
N22 N 0.5875(6) 0.0287(8) 0.5375(6)
Zn4 Zn 0.50672(8) 0.99309(10) 0.50131(8)
I2 I 0.43107(5) 0.94238(7) 0.57167(6)
N12 N 0.5381(4) 0.9465(5) 0.4292(3)
C23 C 0.4962(3) 0.9302(6) 0.3847(4)
H13 H 0.4528 0.9349 0.3912
C24 C 0.5178(4) 0.9070(6) 0.3308(4)
H14 H 0.4892 0.8959 0.3004
C25 C 0.5813(4) 0.9001(6) 0.3213(4)
C26 C 0.6232(3) 0.9164(6) 0.3658(4)
H15 H 0.6666 0.9117 0.3593
C27 C 0.6016(3) 0.9396(6) 0.4197(4)
H16 H 0.6302 0.9507 0.4502
N13 N 0.5334(7) 0.5685(8) 0.0388(6)
C28 C 0.5837(8) 0.5949(11) 0.0171(8)
C29 C 0.6110(8) 0.6479(10) 0.0399(8)
H18 H 0.6463 0.6656 0.0211
C30 C 0.5863(7) 0.6747(9) 0.0903(7)
C31 C 0.5356(8) 0.6443(11) 0.1186(8)
H19 H 0.5190 0.6589 0.1553
C32 C 0.5108(8) 0.5908(10) 0.0893(8)
H20 H 0.4763 0.5702 0.1070
N14 N 0.9125(6) 0.9713(8) 0.0375(6)
C33 C 0.8945(8) 0.9867(10) 0.0922(8)
C34 C 0.8387(8) 0.9648(10) 0.1150(8)
H22 H 0.8237 0.9809 0.1517
C35 C 0.8057(7) 0.9216(10) 0.0862(7)
C36 C 0.8241(8) 0.9062(10) 0.0282(8)
H23 H 0.8011 0.8773 0.0049
C37 C 0.8779(8) 0.9352(10) 0.0057(9)
C38 C 0.6038(8) 0.8767(11) 0.2596(8)
N15 N 0.5766(6) 0.8267(7) 0.2386(6)
C39 C 0.6035(7) 0.8052(10) 0.1894(7)
N16 N 0.5814(6) 0.7510(7) 0.1652(6)
C40 C 0.6106(7) 0.7326(10) 0.1172(8)
N17 N 0.6589(6) 0.7558(7) 0.0883(5)
C41 C 0.6815(8) 0.8074(10) 0.1133(8)
N18 N 0.7331(6) 0.8379(8) 0.0880(6)
C42 C 0.7487(7) 0.8896(9) 0.1150(8)
N19 N 0.7276(5) 0.9181(8) 0.1632(6)
C43 C 0.6798(9) 0.8879(9) 0.1887(8)
N20 N 0.6546(6) 0.9118(8) 0.2395(5)
C44 C 0.6547(7) 0.8340(9) 0.1630(8)
H17 H 0.6026 0.5763 0.9832
H24 H 0.8892 0.9279 0.9654
Zn6 Zn 0.49328(8) 0.49309(10) 0.99869(8)
C23_2 C 0.0038(3) 0.0698(6) 0.8847(4)
H13_2 H 0.0472 0.0651 0.8912
H14_2 H 0.0108 0.1041 0.8004
H20_2 H 0.0237 0.4298 0.6070
Zn6_2 Zn 0.00672(8) 0.50691(10) 0.49869(8)
N21_2 N 0.0334(7) 0.9315(8) 0.9612(6)
N12_2 N 0.9619(4) 0.0535(5) 0.9292(3)
C24_2 C 0.9822(4) 0.0930(6) 0.8308(4)
C25_2 C 0.9187(4) 0.0999(6) 0.8213(4)
C26_2 C 0.8768(3) 0.0836(6) 0.8658(4)
H15_2 H 0.8334 0.0883 0.8593
C27_2 C 0.8984(3) 0.0604(6) 0.9197(4)
H16_2 H 0.8698 0.0493 0.9502
N13_2 N 0.9666(7) 0.4315(8) 0.5388(6)
C28_2 C 0.9163(8) 0.4051(11) 0.5171(8)
H17_2 H 0.8974 0.4237 0.4832
C29_2 C 0.8890(8) 0.3521(10) 0.5399(8)
H18_2 H 0.8537 0.3344 0.5211
C30_2 C 0.9137(7) 0.3253(9) 0.5903(7)
C31_2 C 0.9644(8) 0.3557(11) 0.6186(8)
H19_2 H 0.9810 0.3411 0.6553
C32_2 C 0.9892(8) 0.4092(10) 0.5893(8)
C33_2 C 0.6055(8) 0.0133(10) 0.5922(8)
C34_2 C 0.6613(8) 0.0352(10) 0.6150(8)
H22_2 H 0.6763 0.0191 0.6517
C35_2 C 0.6943(7) 0.0784(10) 0.5862(7)
C36_2 C 0.6759(8) 0.0938(10) 0.5282(8)
H23_2 H 0.6989 0.1227 0.5049
C37_2 C 0.6221(8) 0.0648(10) 0.5057(9)
H24_2 H 0.6108 0.0721 0.4654
C38_2 C 0.8962(8) 0.1233(11) 0.7596(8)
N15_2 N 0.9234(6) 0.1733(7) 0.7386(6)
C39_2 C 0.8965(7) 0.1948(10) 0.6894(7)
N16_2 N 0.9186(6) 0.2490(7) 0.6652(6)
C40_2 C 0.8894(7) 0.2674(10) 0.6172(8)
N17_2 N 0.8411(6) 0.2442(7) 0.5883(5)
C41_2 C 0.8185(8) 0.1926(10) 0.6133(8)
N18_2 N 0.7669(6) 0.1621(8) 0.5880(6)
C42_2 C 0.7513(7) 0.1104(9) 0.6150(8)
N19_2 N 0.7724(5) 0.0819(8) 0.6632(6)
C43_2 C 0.8202(9) 0.1121(9) 0.6887(8)
N20_2 N 0.8454(6) 0.0882(8) 0.7395(5)
C44_2 C 0.8453(7) 0.1660(9) 0.6630(8)
H21_2 H 0.5799 0.9870 0.6159
N12_3 N 0.0381(4) 0.5535(5) 0.5708(3)
C24_3 C 0.0178(4) 0.5930(6) 0.6692(4)
C25_3 C 0.0813(4) 0.5999(6) 0.6787(4)
C26_3 C 0.1232(3) 0.5836(6) 0.6342(4)
H15_3 H 0.1666 0.5883 0.6407
C27_3 C 0.1016(3) 0.5604(6) 0.5803(4)
H16_3 H 0.1302 0.5493 0.5498
C28_3 C 0.0837(8) 0.9051(11) 0.9829(8)
C29_3 C 0.1110(8) 0.8521(10) 0.9601(8)
H18_3 H 0.1463 0.8344 0.9789
C30_3 C 0.0863(7) 0.8253(9) 0.9097(7)
C31_3 C 0.0356(8) 0.8557(11) 0.8814(8)
H19_3 H 0.0190 0.8411 0.8447
C32_3 C 0.0108(8) 0.9092(10) 0.9107(8)
N14_2 N 0.4125(6) 0.5287(8) 0.9625(6)
C33_3 C 0.3945(8) 0.5133(10) 0.9078(8)
H21_3 H 0.4201 0.4870 0.8841
C34_3 C 0.3387(8) 0.5352(10) 0.8850(8)
H22_3 H 0.3237 0.5191 0.8483
C35_3 C 0.3057(7) 0.5784(10) 0.9138(7)
C36_3 C 0.3241(8) 0.5938(10) 0.9718(8)
H23_3 H 0.3011 0.6227 0.9951
C37_3 C 0.3779(8) 0.5648(10) 0.9943(9)
C38_3 C 0.1038(8) 0.6233(11) 0.7404(8)
N15_3 N 0.0766(6) 0.6733(7) 0.7614(6)
C39_3 C 0.1035(7) 0.6948(10) 0.8106(7)
N16_3 N 0.0814(6) 0.7490(7) 0.8348(6)
C40_3 C 0.1106(7) 0.7674(10) 0.8828(8)
N17_3 N 0.1589(6) 0.7442(7) 0.9117(5)
C41_3 C 0.1815(8) 0.6926(10) 0.8867(8)
N18_3 N 0.2331(6) 0.6621(8) 0.9120(6)
C42_3 C 0.2487(7) 0.6104(9) 0.8850(8)
N19_3 N 0.2276(5) 0.5819(8) 0.8368(6)
C43_3 C 0.1798(9) 0.6121(9) 0.8113(8)
N20_3 N 0.1546(6) 0.5882(8) 0.7605(5)
C44_3 C 0.1547(7) 0.6660(9) 0.8370(8)
N22_2 N 0.0875(6) 0.4713(8) 0.4625(6)
I2_2 I 0.93107(5) 0.55762(7) 0.42833(6)
C23_3 C 0.9962(3) 0.5698(6) 0.6153(4)
H13_3 H 0.9528 0.5651 0.6088
H14_3 H 0.9892 0.6041 0.6996
H20_3 H 0.9763 0.9298 0.8930
N12_4 N 0.4619(4) 0.4465(5) 0.0708(3)
C23_4 C 0.5038(3) 0.4302(6) 0.1153(4)
H13_4 H 0.5472 0.4349 0.1088
C24_4 C 0.4822(4) 0.4070(6) 0.1692(4)
H14_4 H 0.5108 0.3959 0.1996
C25_4 C 0.4187(4) 0.4001(6) 0.1787(4)
C26_4 C 0.3768(3) 0.4164(6) 0.1342(4)
H15_4 H 0.3334 0.4117 0.1407
C27_4 C 0.3984(3) 0.4396(6) 0.0803(4)
H16_4 H 0.3698 0.4507 0.0498
C28_4 C 0.4163(8) 0.0949(11) 0.4829(8)
H17_3 H 0.3974 0.0763 0.5168
C29_4 C 0.3890(8) 0.1479(10) 0.4601(8)
H18_4 H 0.3537 0.1656 0.4789
C30_4 C 0.4137(7) 0.1747(9) 0.4097(7)
C31_4 C 0.4644(8) 0.1443(11) 0.3814(8)
H19_4 H 0.4810 0.1589 0.3447
C32_4 C 0.4892(8) 0.0908(10) 0.4107(8)
H20_4 H 0.5237 0.0702 0.3930
C33_4 C 0.1055(8) 0.4867(10) 0.4078(8)
H21_4 H 0.0799 0.5130 0.3841
C34_4 C 0.1613(8) 0.4648(10) 0.3850(8)
H22_4 H 0.1763 0.4809 0.3483
C35_4 C 0.1943(7) 0.4216(10) 0.4138(7)
C36_4 C 0.1759(8) 0.4062(10) 0.4718(8)
H23_4 H 0.1989 0.3773 0.4951
C37_4 C 0.1221(8) 0.4352(10) 0.4943(9)
H24_3 H 0.1108 0.4279 0.5346
C38_4 C 0.3962(8) 0.3767(11) 0.2404(8)
N15_4 N 0.4234(6) 0.3267(7) 0.2614(6)
C39_4 C 0.3965(7) 0.3052(10) 0.3106(7)
N16_4 N 0.4186(6) 0.2510(7) 0.3348(6)
C40_4 C 0.3894(7) 0.2326(10) 0.3828(8)
N17_4 N 0.3411(6) 0.2558(7) 0.4117(5)
C41_4 C 0.3185(8) 0.3074(10) 0.3867(8)
N18_4 N 0.2669(6) 0.3379(8) 0.4120(6)
C42_4 C 0.2513(7) 0.3896(9) 0.3850(8)
N19_4 N 0.2724(5) 0.4181(8) 0.3368(6)
C43_4 C 0.3202(9) 0.3879(9) 0.3113(8)
N20_4 N 0.3454(6) 0.4118(8) 0.2605(5)
C44_4 C 0.3453(7) 0.3340(9) 0.3370(8)
I2_3 I 0.56893(5) 0.44238(7) 0.92833(6)
I2_4 I 0.06893(5) 0.05762(7) 0.07167(6)
H17_4 H 0.1026 0.9237 0.0168
H24_4 H 0.3892 0.5721 0.0346
loop_
_geom_bond_atom_site_label_1
_geom_bond_atom_site_label_2
_geom_bond_site_symmetry_1
_geom_bond_site_symmetry_2
N10 Zn1 1_555 1_555
C1 N1 1_555 1_555
H1 C1 1_555 1_555
C2 C1 1_555 1_555
H2 C2 1_555 1_555
C3 C2 1_555 1_555
C4 C3 1_555 1_555
H3 C4 1_555 1_555
C5 N1 1_555 1_555
H4 C5 1_555 1_555
N2 C6 1_555 1_555
C6 H5 1_555 1_555
C7 C6 1_555 1_555
H6 C7 1_555 1_555
C8 C7 1_555 1_555
C9 C8 1_555 1_555
H7 C9 1_555 1_555
C10 N2 1_555 1_555
H8 C10 1_555 1_555
N3 C11 1_555 1_555
C11 H9 1_555 1_555
C12 C11 1_555 1_555
H10 C12 1_555 1_555
C13 C12 1_555 1_555
C14 C13 1_555 1_555
H11 C14 1_555 1_555
C15 N3 1_555 1_555
H12 C15 1_555 1_555
C16 C3 1_555 1_555
N4 C16 1_555 1_555
C17 N4 1_555 1_555
N5 C17 1_555 1_555
C18 C8 1_555 1_555
N6 C18 1_555 1_555
C19 N6 1_555 1_555
N7 C19 1_555 1_555
C20 C13 1_555 1_555
N8 C20 1_555 1_555
C21 N8 1_555 1_555
N9 C16 1_555 1_555
C22 C17 1_555 1_555
Zn2 N3 1_555 1_555
Zn3 N2 1_555 1_555
C4 C5 1_555 1_555
C9 C10 1_555 1_555
C14 C15 1_555 1_555
N5 C18 1_555 1_555
C19 C22 1_555 1_555
N7 C20 1_555 1_555
C21 N9 1_555 1_555
C21 C22 1_555 1_555
C1_2 N1_2 1_555 1_555
H1_2 C1_2 1_555 1_555
C2_2 C1_2 1_555 1_555
H2_2 C2_2 1_555 1_555
C3_2 C2_2 1_555 1_555
C4_2 C3_2 1_555 1_555
C5_2 N1_2 1_555 1_555
N2_2 C6_2 1_555 1_555
C6_2 H5_2 1_555 1_555
C7_2 C6_2 1_555 1_555
H6_2 C7_2 1_555 1_555
C8_2 C7_2 1_555 1_555
C9_2 C8_2 1_555 1_555
H7_2 C9_2 1_555 1_555
C10_2 N2_2 1_555 1_555
H8_2 C10_2 1_555 1_555
N3_2 C11_2 1_555 1_555
C12_2 C11_2 1_555 1_555
H10_2 C12_2 1_555 1_555
C13_2 C12_2 1_555 1_555
C14_2 C13_2 1_555 1_555
H11_2 C14_2 1_555 1_555
C15_2 N3_2 1_555 1_555
H12_2 C15_2 1_555 1_555
C16_2 C3_2 1_555 1_555
N4_2 C16_2 1_555 1_555
C17_2 N4_2 1_555 1_555
N5_2 C17_2 1_555 1_555
C18_2 C8_2 1_555 1_555
N6_2 C18_2 1_555 1_555
C19_2 N6_2 1_555 1_555
N7_2 C19_2 1_555 1_555
C20_2 C13_2 1_555 1_555
N8_2 C20_2 1_555 1_555
C21_2 N8_2 1_555 1_555
N9_2 C16_2 1_555 1_555
C22_2 C17_2 1_555 1_555
Zn2 N2_2 1_555 1_555
C4_2 C5_2 1_555 1_555
C9_2 C10_2 1_555 1_555
C14_2 C15_2 1_555 1_555
N5_2 C18_2 1_555 1_555
C19_2 C22_2 1_555 1_555
N7_2 C20_2 1_555 1_555
C21_2 N9_2 1_555 1_555
C21_2 C22_2 1_555 1_555
N10_2 Zn1_2 1_555 1_555
Zn2 I1 1_555 1_555
N1_3 Zn2 1_555 1_555
C1_3 N1_3 1_555 1_555
H1_3 C1_3 1_555 1_555
C2_3 C1_3 1_555 1_555
H2_3 C2_3 1_555 1_555
C3_3 C2_3 1_555 1_555
C4_3 C3_3 1_555 1_555
H3_3 C4_3 1_555 1_555
C5_3 N1_3 1_555 1_555
H4_3 C5_3 1_555 1_555
N10_2 C6_3 1_555 1_555
C7_3 C6_3 1_555 1_555
H6_3 C7_3 1_555 1_555
C8_3 C7_3 1_555 1_555
C9_3 C8_3 1_555 1_555
H7_3 C9_3 1_555 1_555
C10_3 N10_2 1_555 1_555
H8_3 C10_3 1_555 1_555
N11 C11_3 1_555 1_555
C11_3 H9_3 1_555 1_555
C12_3 C11_3 1_555 1_555
H10_3 C12_3 1_555 1_555
C13_3 C12_3 1_555 1_555
C14_3 C13_3 1_555 1_555
H11_3 C14_3 1_555 1_555
C15_3 N11 1_555 1_555
C16_3 C3_3 1_555 1_555
N4_3 C16_3 1_555 1_555
C17_3 N4_3 1_555 1_555
N5_3 C17_3 1_555 1_555
C18_3 C8_3 1_555 1_555
N6_3 C18_3 1_555 1_555
C19_3 N6_3 1_555 1_555
N7_3 C19_3 1_555 1_555
C20_3 C13_3 1_555 1_555
N8_3 C20_3 1_555 1_555
C21_3 N8_3 1_555 1_555
N9_3 C16_3 1_555 1_555
C22_3 C17_3 1_555 1_555
C4_3 C5_3 1_555 1_555
C9_3 C10_3 1_555 1_555
C14_3 C15_3 1_555 1_555
N5_3 C18_3 1_555 1_555
C19_3 C22_3 1_555 1_555
N7_3 C20_3 1_555 1_555
C21_3 N9_3 1_555 1_555
C21_3 C22_3 1_555 1_555
C1_4 N1_4 1_555 1_555
H1_4 C1_4 1_555 1_555
C2_4 C1_4 1_555 1_555
H2_4 C2_4 1_555 1_555
C3_4 C2_4 1_555 1_555
C4_4 C3_4 1_555 1_555
C5_4 N1_4 1_555 1_555
N10 C6_4 1_555 1_555
C7_4 C6_4 1_555 1_555
H6_4 C7_4 1_555 1_555
C8_4 C7_4 1_555 1_555
C9_4 C8_4 1_555 1_555
H7_4 C9_4 1_555 1_555
C10_4 N10 1_555 1_555
H8_4 C10_4 1_555 1_555
N11_2 C11_4 1_555 1_555
C12_4 C11_4 1_555 1_555
H10_4 C12_4 1_555 1_555
C13_4 C12_4 1_555 1_555
C14_4 C13_4 1_555 1_555
H11_4 C14_4 1_555 1_555
C15_4 N11_2 1_555 1_555
C16_4 C3_4 1_555 1_555
N4_4 C16_4 1_555 1_555
C17_4 N4_4 1_555 1_555
N5_4 C17_4 1_555 1_555
C18_4 C8_4 1_555 1_555
N6_4 C18_4 1_555 1_555
C19_4 N6_4 1_555 1_555
N7_4 C19_4 1_555 1_555
C20_4 C13_4 1_555 1_555
N8_4 C20_4 1_555 1_555
C21_4 N8_4 1_555 1_555
N9_4 C16_4 1_555 1_555
C22_4 C17_4 1_555 1_555
C4_4 C5_4 1_555 1_555
C9_4 C10_4 1_555 1_555
C14_4 C15_4 1_555 1_555
N5_4 C18_4 1_555 1_555
C19_4 C22_4 1_555 1_555
N7_4 C20_4 1_555 1_555
C21_4 N9_4 1_555 1_555
C21_4 C22_4 1_555 1_555
Zn4 I2 1_555 1_555
N12 Zn4 1_555 1_555
C23 N12 1_555 1_555
H13 C23 1_555 1_555
C24 C23 1_555 1_555
H14 C24 1_555 1_555
C25 C24 1_555 1_555
C26 C25 1_555 1_555
H15 C26 1_555 1_555
C27 N12 1_555 1_555
H16 C27 1_555 1_555
N13 C28 1_555 1_555
C29 C28 1_555 1_555
H18 C29 1_555 1_555
C30 C29 1_555 1_555
C31 C30 1_555 1_555
H19 C31 1_555 1_555
C32 N13 1_555 1_555
H20 C32 1_555 1_555
N14 C33 1_555 1_555
C34 C33 1_555 1_555
H22 C34 1_555 1_555
C35 C34 1_555 1_555
C36 C35 1_555 1_555
H23 C36 1_555 1_555
C37 N14 1_555 1_555
C38 C25 1_555 1_555
N15 C38 1_555 1_555
C39 N15 1_555 1_555
N16 C39 1_555 1_555
C40 C30 1_555 1_555
N17 C40 1_555 1_555
C41 N17 1_555 1_555
N18 C41 1_555 1_555
C42 C35 1_555 1_555
N19 C42 1_555 1_555
C43 N19 1_555 1_555
N20 C38 1_555 1_555
C44 C39 1_555 1_555
C26 C27 1_555 1_555
C31 C32 1_555 1_555
C36 C37 1_555 1_555
N16 C40 1_555 1_555
C41 C44 1_555 1_555
N18 C42 1_555 1_555
C43 N20 1_555 1_555
C43 C44 1_555 1_555
H13_2 C23_2 1_555 1_555
C25_2 C24_2 1_555 1_555
C26_2 C25_2 1_555 1_555
H15_2 C26_2 1_555 1_555
C27_2 N12_2 1_555 1_555
H16_2 C27_2 1_555 1_555
N13_2 C28_2 1_555 1_555
C28_2 H17_2 1_555 1_555
C29_2 C28_2 1_555 1_555
H18_2 C29_2 1_555 1_555
C30_2 C29_2 1_555 1_555
C31_2 C30_2 1_555 1_555
H19_2 C31_2 1_555 1_555
C32_2 N13_2 1_555 1_555
N22 C33_2 1_555 1_555
C34_2 C33_2 1_555 1_555
H22_2 C34_2 1_555 1_555
C35_2 C34_2 1_555 1_555
C36_2 C35_2 1_555 1_555
H23_2 C36_2 1_555 1_555
C37_2 N22 1_555 1_555
H24_2 C37_2 1_555 1_555
C38_2 C25_2 1_555 1_555
N15_2 C38_2 1_555 1_555
C39_2 N15_2 1_555 1_555
N16_2 C39_2 1_555 1_555
C40_2 C30_2 1_555 1_555
N17_2 C40_2 1_555 1_555
C41_2 N17_2 1_555 1_555
N18_2 C41_2 1_555 1_555
C42_2 C35_2 1_555 1_555
N19_2 C42_2 1_555 1_555
C43_2 N19_2 1_555 1_555
N20_2 C38_2 1_555 1_555
C44_2 C39_2 1_555 1_555
C26_2 C27_2 1_555 1_555
C31_2 C32_2 1_555 1_555
C36_2 C37_2 1_555 1_555
N16_2 C40_2 1_555 1_555
C41_2 C44_2 1_555 1_555
N18_2 C42_2 1_555 1_555
C43_2 N20_2 1_555 1_555
C43_2 C44_2 1_555 1_555
N12_3 Zn6_2 1_555 1_555
C25_3 C24_3 1_555 1_555
C26_3 C25_3 1_555 1_555
H15_3 C26_3 1_555 1_555
C27_3 N12_3 1_555 1_555
H16_3 C27_3 1_555 1_555
N21_2 C28_3 1_555 1_555
C29_3 C28_3 1_555 1_555
H18_3 C29_3 1_555 1_555
C30_3 C29_3 1_555 1_555
C31_3 C30_3 1_555 1_555
H19_3 C31_3 1_555 1_555
C32_3 N21_2 1_555 1_555
N14_2 C33_3 1_555 1_555
C33_3 H21_3 1_555 1_555
C34_3 C33_3 1_555 1_555
H22_3 C34_3 1_555 1_555
C35_3 C34_3 1_555 1_555
C36_3 C35_3 1_555 1_555
H23_3 C36_3 1_555 1_555
C37_3 N14_2 1_555 1_555
C38_3 C25_3 1_555 1_555
N15_3 C38_3 1_555 1_555
C39_3 N15_3 1_555 1_555
N16_3 C39_3 1_555 1_555
C40_3 C30_3 1_555 1_555
N17_3 C40_3 1_555 1_555
C41_3 N17_3 1_555 1_555
N18_3 C41_3 1_555 1_555
C42_3 C35_3 1_555 1_555
N19_3 C42_3 1_555 1_555
C43_3 N19_3 1_555 1_555
N20_3 C38_3 1_555 1_555
C44_3 C39_3 1_555 1_555
Zn6 N14_2 1_555 1_555
N22_2 Zn6_2 1_555 1_555
C26_3 C27_3 1_555 1_555
C31_3 C32_3 1_555 1_555
C36_3 C37_3 1_555 1_555
N16_3 C40_3 1_555 1_555
C41_3 C44_3 1_555 1_555
N18_3 C42_3 1_555 1_555
C43_3 N20_3 1_555 1_555
C43_3 C44_3 1_555 1_555
H13_3 C23_3 1_555 1_555
C23_4 N12_4 1_555 1_555
H13_4 C23_4 1_555 1_555
C24_4 C23_4 1_555 1_555
H14_4 C24_4 1_555 1_555
C25_4 C24_4 1_555 1_555
C26_4 C25_4 1_555 1_555
H15_4 C26_4 1_555 1_555
C27_4 N12_4 1_555 1_555
H16_4 C27_4 1_555 1_555
N21 C28_4 1_555 1_555
C28_4 H17_3 1_555 1_555
C29_4 C28_4 1_555 1_555
H18_4 C29_4 1_555 1_555
C30_4 C29_4 1_555 1_555
C31_4 C30_4 1_555 1_555
H19_4 C31_4 1_555 1_555
C32_4 N21 1_555 1_555
H20_4 C32_4 1_555 1_555
N22_2 C33_4 1_555 1_555
C33_4 H21_4 1_555 1_555
C34_4 C33_4 1_555 1_555
H22_4 C34_4 1_555 1_555
C35_4 C34_4 1_555 1_555
C36_4 C35_4 1_555 1_555
H23_4 C36_4 1_555 1_555
C37_4 N22_2 1_555 1_555
H24_3 C37_4 1_555 1_555
C38_4 C25_4 1_555 1_555
N15_4 C38_4 1_555 1_555
C39_4 N15_4 1_555 1_555
N16_4 C39_4 1_555 1_555
C40_4 C30_4 1_555 1_555
N17_4 C40_4 1_555 1_555
C41_4 N17_4 1_555 1_555
N18_4 C41_4 1_555 1_555
C42_4 C35_4 1_555 1_555
N19_4 C42_4 1_555 1_555
C43_4 N19_4 1_555 1_555
N20_4 C38_4 1_555 1_555
C44_4 C39_4 1_555 1_555
C26_4 C27_4 1_555 1_555
C31_4 C32_4 1_555 1_555
C36_4 C37_4 1_555 1_555
N16_4 C40_4 1_555 1_555
C41_4 C44_4 1_555 1_555
N18_4 C42_4 1_555 1_555
C43_4 N20_4 1_555 1_555
C43_4 C44_4 1_555 1_555
Zn6 I2_3 1_555 1_555

#END
