
###############################################################################
#
# This file contains modified crystal structure data generated from the
# MOF subset of the Cambridge Structural Database (CSD) v543 
# hosted by the Cambridge Crystallographic Data Centre (CCDC).
#
# This work is licensed under the Creative Commons
# Attribution-NonCommercial-ShareAlike 4.0 International License.
# To view a copy of this license, visit
# http://creativecommons.org/licenses/by-nc-sa/4.0/
# or send a letter to
# Creative Commons, PO Box 1866, Mountain View, CA 94042, USA.
#
# CIF created using the CSD Python API on 29 September 2022
# The structure has been converted into the P1 space group
# The structure has a 3D framework
# The original CSD entry VIZSUU is in the rhombohedral crystal system
# The framework has been calculated to contain at least 10.0% void space
# The void calculation uses a probe of radius 1.32A, grid spacing 0.4
#
###############################################################################

data_VIZSUU
_chemical_formula_moiety         '(C792 H432 I36 N324 Zn28)n'
_symmetry_cell_setting           triclinic
_symmetry_space_group_name_H-M   'P 1'
_symmetry_Int_Tables_number      1
_space_group_name_Hall           'P 1'
loop_
_symmetry_equiv_pos_site_id
_symmetry_equiv_pos_as_xyz
1 x,y,z
_cell_length_a                   44.006(1)
_cell_length_b                   44.006(1)
_cell_length_c                   28.267(1)
_cell_angle_alpha                90
_cell_angle_beta                 90
_cell_angle_gamma                120
_cell_volume                     47406.1
loop_
_atom_site_label
_atom_site_type_symbol
_atom_site_fract_x
_atom_site_fract_y
_atom_site_fract_z
N3 N 0.79362(15) 0.83520(13) 0.07889(13)
C11 C 0.7641(2) 0.8069(2) 0.0683(2)
H9 H 0.7541 0.7885 0.0909
C12 C 0.74650(18) 0.80237(17) 0.02634(19)
H10 H 0.7249 0.7813 0.0210
C14 C 0.7898(3) 0.8578(2) 0.0037(2)
C15 C 0.8063(3) 0.8605(2) 0.0475(2)
H12 H 0.8274 0.8815 0.0546
Zn2 Zn 0.819395(25) 0.840496(19) 0.140233(19)
Zn1 Zn 0.492837(19) 0.645565(17) 0.806900(19)
I1 I 0.454047(19) 0.671974(19) 0.80786(2)
N1 N 0.54373(13) 0.68255(11) 0.82110(13)
C1 C 0.55882(18) 0.71303(15) 0.79603(18)
H1 H 0.5453 0.7158 0.7720
C2 C 0.59192(17) 0.73954(16) 0.80345(18)
H2 H 0.6017 0.7602 0.7846
C3 C 0.61129(17) 0.73572(14) 0.83956(16)
C4 C 0.59688(16) 0.70488(14) 0.86444(16)
H3 H 0.6098 0.7016 0.8888
C5 C 0.56288(18) 0.67842(15) 0.85342(17)
H4 H 0.5533 0.6567 0.8698
N2 N 0.79538(13) 0.94234(12) 0.69068(13)
C6 C 0.81080(18) 0.94512(15) 0.73293(17)
H5 H 0.8336 0.9646 0.7382
C7 C 0.79530(16) 0.92122(15) 0.76854(17)
H6 H 0.8069 0.9243 0.7980
C8 C 0.76224(16) 0.89233(14) 0.76104(16)
C9 C 0.74532(17) 0.89022(17) 0.71832(18)
H7 H 0.7221 0.8716 0.7128
C10 C 0.76252(18) 0.91507(16) 0.68475(18)
H8 H 0.7509 0.9132 0.6557
C13 C 0.75936(17) 0.82709(15) 0.99316(16)
H11 H 0.7995 0.8767 0.9819
C16 C 0.64740(15) 0.76556(13) 0.84945(16)
N4 N 0.66181(13) 0.78894(12) 0.81357(13)
C17 C 0.69456(15) 0.81558(13) 0.82149(15)
N5 N 0.71119(13) 0.83996(11) 0.78736(13)
C18 C 0.74365(17) 0.86480(14) 0.79853(16)
N6 N 0.76233(13) 0.86996(12) 0.83834(14)
C19 C 0.74517(17) 0.84583(14) 0.87248(15)
N7 N 0.76101(14) 0.84842(12) 0.91496(13)
C20 C 0.74208(17) 0.82359(15) 0.94635(15)
N8 N 0.70915(14) 0.79542(12) 0.94259(13)
C21 C 0.69314(17) 0.79261(15) 0.89979(16)
N9 N 0.66088(13) 0.76572(12) 0.89212(14)
C22 C 0.71104(16) 0.81812(13) 0.86509(15)
Zn3 Zn 0.819395(25) 0.978898(17) 0.640233(19)
N10 N 0.48029(18) 0.60901(12) 0.85735(13)
N11 N 0.49813(13) 0.62509(20) 0.74556(13)
N3_2 N 0.16480(13) 0.95842(20) 0.07889(13)
C11_2 C 0.1931(2) 0.9572(3) 0.0683(2)
H9_2 H 0.2115 0.9656 0.0909
C12_2 C 0.19763(17) 0.94413(25) 0.02634(19)
H10_2 H 0.2187 0.9436 0.0210
C14_2 C 0.1422(2) 0.9320(4) 0.0037(2)
C15_2 C 0.1395(2) 0.9458(4) 0.0475(2)
H12_2 H 0.1185 0.9459 0.0546
Zn2_2 Zn 0.159504(19) 0.978898(31) 0.140233(19)
Zn1_2 Zn 0.354435(17) 0.847272(25) 0.806900(19)
I1_2 I 0.328026(19) 0.782073(27) 0.80786(2)
N1_2 N 0.31745(11) 0.86118(17) 0.82110(13)
C1_2 C 0.28697(15) 0.84579(23) 0.79603(18)
H1_2 H 0.2842 0.8295 0.7720
C2_2 C 0.26046(16) 0.85238(23) 0.80345(18)
H2_2 H 0.2398 0.8415 0.7846
C3_2 C 0.26428(14) 0.87557(22) 0.83956(16)
C4_2 C 0.29512(14) 0.89200(21) 0.86444(16)
H3_2 H 0.2984 0.9082 0.8888
C5_2 C 0.32158(15) 0.88446(23) 0.85342(17)
H4_2 H 0.3433 0.8966 0.8698
N2_2 N 0.05766(12) 0.85304(18) 0.69068(13)
C6_2 C 0.05488(15) 0.86568(23) 0.73293(17)
H5_2 H 0.0354 0.8690 0.7382
C7_2 C 0.07878(15) 0.87408(22) 0.76854(17)
H6_2 H 0.0757 0.8826 0.7980
C8_2 C 0.10767(14) 0.86991(21) 0.76104(16)
C9_2 C 0.10978(17) 0.85510(24) 0.71832(18)
H7_2 H 0.1284 0.8505 0.7128
C10_2 C 0.08493(16) 0.84745(24) 0.68475(18)
H8_2 H 0.0868 0.8377 0.6557
C13_2 C 0.17291(15) 0.93227(23) 0.99316(16)
H11_2 H 0.1233 0.9228 0.9819
C16_2 C 0.23444(13) 0.88184(20) 0.84945(16)
N4_2 N 0.21106(12) 0.87287(18) 0.81357(13)
C17_2 C 0.18442(13) 0.87898(20) 0.82149(15)
N5_2 N 0.16004(11) 0.87123(17) 0.78736(13)
C18_2 C 0.13520(14) 0.87885(22) 0.79853(16)
N6_2 N 0.13004(12) 0.89237(18) 0.83834(14)
C19_2 C 0.15417(14) 0.89934(22) 0.87248(15)
N7_2 N 0.15158(12) 0.91259(18) 0.91496(13)
C20_2 C 0.17641(15) 0.91849(23) 0.94635(15)
N8_2 N 0.20458(12) 0.91373(18) 0.94259(13)
C21_2 C 0.20739(15) 0.90053(23) 0.89979(16)
N9_2 N 0.23428(12) 0.89516(18) 0.89212(14)
C22_2 C 0.18188(13) 0.89292(21) 0.86509(15)
Zn3_2 Zn 0.021102(17) 0.840496(30) 0.640233(19)
N10_2 N 0.39099(12) 0.87129(22) 0.85735(13)
N11_2 N 0.37491(20) 0.87305(24) 0.74556(13)
N3_3 N 0.04158(20) 0.20638(15) 0.07889(13)
C11_3 C 0.0428(3) 0.2359(2) 0.0683(2)
H9_3 H 0.0344 0.2459 0.0909
C12_3 C 0.05587(25) 0.25350(18) 0.02634(19)
H10_3 H 0.0564 0.2751 0.0210
C14_3 C 0.0680(4) 0.2102(3) 0.0037(2)
C15_3 C 0.0542(4) 0.1937(3) 0.0475(2)
H12_3 H 0.0541 0.1726 0.0546
Zn2_3 Zn 0.021102(31) 0.180605(25) 0.140233(19)
Zn1_3 Zn 0.152728(25) 0.507163(19) 0.806900(19)
I1_3 I 0.217927(27) 0.545953(19) 0.80786(2)
N1_3 N 0.13882(17) 0.45627(13) 0.82110(13)
C1_3 C 0.15421(23) 0.44118(18) 0.79603(18)
H1_3 H 0.1705 0.4547 0.7720
C2_3 C 0.14762(23) 0.40808(17) 0.80345(18)
H2_3 H 0.1585 0.3983 0.7846
C3_3 C 0.12443(22) 0.38871(17) 0.83956(16)
C4_3 C 0.10800(21) 0.40312(16) 0.86444(16)
H3_3 H 0.0918 0.3902 0.8888
C5_3 C 0.11554(23) 0.43712(18) 0.85342(17)
H4_3 H 0.1034 0.4467 0.8698
N2_3 N 0.14696(18) 0.20462(13) 0.69068(13)
C6_3 C 0.13432(23) 0.18920(18) 0.73293(17)
H5_3 H 0.1310 0.1664 0.7382
C7_3 C 0.12592(22) 0.20470(16) 0.76854(17)
H6_3 H 0.1174 0.1931 0.7980
C8_3 C 0.13009(21) 0.23776(16) 0.76104(16)
C9_3 C 0.14490(24) 0.25468(17) 0.71832(18)
H7_3 H 0.1495 0.2779 0.7128
C10_3 C 0.15255(24) 0.23748(18) 0.68475(18)
H8_3 H 0.1623 0.2491 0.6557
C13_3 C 0.06773(23) 0.24064(17) 0.99316(16)
H11_3 H 0.0772 0.2005 0.9819
C16_3 C 0.11816(20) 0.35260(15) 0.84945(16)
N4_3 N 0.12713(18) 0.33819(13) 0.81357(13)
C17_3 C 0.12102(20) 0.30544(15) 0.82149(15)
N5_3 N 0.12877(17) 0.28881(13) 0.78736(13)
C18_3 C 0.12115(22) 0.25635(17) 0.79853(16)
N6_3 N 0.10763(18) 0.23767(13) 0.83834(14)
C19_3 C 0.10066(22) 0.25483(17) 0.87248(15)
N7_3 N 0.08741(18) 0.23899(14) 0.91496(13)
C20_3 C 0.08151(23) 0.25792(17) 0.94635(15)
N8_3 N 0.08627(18) 0.29085(14) 0.94259(13)
C21_3 C 0.09947(23) 0.30686(17) 0.89979(16)
N9_3 N 0.10484(18) 0.33912(13) 0.89212(14)
C22_3 C 0.10708(21) 0.28896(16) 0.86509(15)
Zn3_3 Zn 0.159504(30) 0.180605(25) 0.640233(19)
N10_3 N 0.12871(22) 0.51971(18) 0.85735(13)
N11_3 N 0.12695(24) 0.50187(13) 0.74556(13)
I1_4 I 0.120714(19) 0.005307(19) 0.14119(2)
N1_4 N 0.21040(13) 0.01588(11) 0.15443(13)
C1_4 C 0.22549(18) 0.04636(15) 0.12936(18)
H1_4 H 0.2120 0.0491 0.1053
C2_4 C 0.25859(17) 0.07287(16) 0.13678(18)
H2_4 H 0.2684 0.0935 0.1179
C3_4 C 0.27796(17) 0.06905(14) 0.17289(16)
C4_4 C 0.26355(16) 0.03821(14) 0.19777(16)
H3_4 H 0.2765 0.0349 0.2221
C5_4 C 0.22955(18) 0.01175(15) 0.18675(17)
N2_4 N 0.46205(13) 0.27567(12) 0.02401(13)
C6_4 C 0.47747(18) 0.27845(15) 0.06626(17)
H5_4 H 0.5003 0.2979 0.0715
C7_4 C 0.46197(16) 0.25455(15) 0.10187(17)
H6_4 H 0.4736 0.2576 0.1313
C8_4 C 0.42891(16) 0.22566(14) 0.09437(16)
C9_4 C 0.41199(17) 0.22355(17) 0.05165(18)
H7_4 H 0.3888 0.2049 0.0461
C10_4 C 0.42919(18) 0.24840(16) 0.01808(18)
N3_4 N 0.46029(15) 0.16853(13) 0.41222(13)
C11_4 C 0.4308(2) 0.1402(2) 0.4016(2)
H9_4 H 0.4208 0.1218 0.4242
C12_4 C 0.41317(18) 0.13570(17) 0.35967(19)
H10_4 H 0.3916 0.1146 0.3543
C13_4 C 0.42603(17) 0.16042(15) 0.32649(16)
C14_4 C 0.4565(3) 0.1911(2) 0.3370(2)
H11_4 H 0.4662 0.2100 0.3152
C15_4 C 0.4730(3) 0.1938(2) 0.3808(2)
H12_4 H 0.4941 0.2148 0.3879
C16_4 C 0.31407(15) 0.09889(13) 0.18278(16)
N4_4 N 0.32848(13) 0.12227(12) 0.14690(13)
C17_4 C 0.36123(15) 0.14891(13) 0.15482(15)
N5_4 N 0.37786(13) 0.17329(11) 0.12069(13)
C18_4 C 0.41032(17) 0.19813(14) 0.13186(16)
N6_4 N 0.42900(13) 0.20329(12) 0.17167(14)
C19_4 C 0.41184(17) 0.17916(14) 0.20581(15)
N7_4 N 0.42768(14) 0.18175(12) 0.24829(13)
C20_4 C 0.40875(17) 0.15692(15) 0.27968(15)
N8_4 N 0.37582(14) 0.12875(12) 0.27592(13)
C21_4 C 0.35981(17) 0.12594(15) 0.23312(16)
N9_4 N 0.32755(13) 0.09905(12) 0.22545(14)
C22_4 C 0.37771(16) 0.15145(13) 0.19842(15)
Zn2_4 Zn 0.486061(25) 0.173830(19) 0.473567(19)
H8_4 H 0.4176 0.2465 0.9890
Zn3_4 Zn 0.486061(25) 0.312232(17) 0.973567(19)
H4_4 H 0.2200 0.9900 0.2031
N10_4 N 0.14696(18) 0.94234(12) 0.19068(13)
H4_5 H 0.0100 0.2299 0.2031
N10_5 N 0.05766(12) 0.20462(22) 0.19068(13)
I1_5 I 0.884594(27) 0.879286(19) 0.14119(2)
N1_5 N 0.80549(17) 0.78960(13) 0.15443(13)
C1_5 C 0.82088(23) 0.77451(18) 0.12936(18)
H1_5 H 0.8372 0.7880 0.1053
C2_5 C 0.81429(23) 0.74141(17) 0.13678(18)
H2_5 H 0.8252 0.7316 0.1179
C3_5 C 0.79110(22) 0.72204(17) 0.17289(16)
C4_5 C 0.77467(21) 0.73645(16) 0.19777(16)
H3_5 H 0.7585 0.7235 0.2221
C5_5 C 0.78221(23) 0.77045(18) 0.18675(17)
H4_6 H 0.7701 0.7800 0.2031
N2_5 N 0.81363(18) 0.53795(13) 0.02401(13)
C6_5 C 0.80099(23) 0.52253(18) 0.06626(17)
H5_5 H 0.7977 0.4997 0.0715
C7_5 C 0.79259(22) 0.53803(16) 0.10187(17)
H6_5 H 0.7841 0.5264 0.1313
C8_5 C 0.79676(21) 0.57109(16) 0.09437(16)
C9_5 C 0.81157(24) 0.58801(17) 0.05165(18)
H7_5 H 0.8162 0.6112 0.0461
C10_5 C 0.81922(24) 0.57081(18) 0.01808(18)
N3_5 N 0.70825(20) 0.53971(15) 0.41222(13)
C11_5 C 0.7095(3) 0.5692(2) 0.4016(2)
H9_5 H 0.7011 0.5792 0.4242
C12_5 C 0.72254(25) 0.58683(18) 0.35967(19)
H10_5 H 0.7231 0.6084 0.3543
C13_5 C 0.73440(23) 0.57397(17) 0.32649(16)
C14_5 C 0.7347(4) 0.5435(3) 0.3370(2)
H11_5 H 0.7439 0.5338 0.3152
C15_5 C 0.7209(4) 0.5270(3) 0.3808(2)
H12_5 H 0.7208 0.5059 0.3879
C16_5 C 0.78483(20) 0.68593(15) 0.18278(16)
N4_5 N 0.79380(18) 0.67152(13) 0.14690(13)
C17_5 C 0.78769(20) 0.63877(15) 0.15482(15)
N5_5 N 0.79544(17) 0.62214(13) 0.12069(13)
C18_5 C 0.78782(22) 0.58968(17) 0.13186(16)
N6_5 N 0.77430(18) 0.57100(13) 0.17167(14)
C19_5 C 0.76733(22) 0.58816(17) 0.20581(15)
N7_5 N 0.75408(18) 0.57232(14) 0.24829(13)
C20_5 C 0.74818(23) 0.59125(17) 0.27968(15)
N8_5 N 0.75294(18) 0.62418(14) 0.27592(13)
C21_5 C 0.76614(23) 0.64019(17) 0.23312(16)
N9_5 N 0.77151(18) 0.67245(13) 0.22545(14)
C22_5 C 0.77375(21) 0.62229(16) 0.19842(15)
Zn2_5 Zn 0.687768(31) 0.513939(25) 0.473567(19)
N10_6 N 0.79538(22) 0.85304(18) 0.19068(13)
H8_5 H 0.8290 0.5824 0.9890
Zn3_5 Zn 0.826170(30) 0.513939(25) 0.973567(19)
N2_6 N 0.12871(13) 0.60901(12) 0.35735(13)
C6_6 C 0.14413(18) 0.61179(15) 0.39960(17)
H5_6 H 0.1669 0.6313 0.4049
C7_6 C 0.12863(16) 0.58789(15) 0.43521(17)
H6_6 H 0.1402 0.5910 0.4647
C8_6 C 0.09557(16) 0.55900(14) 0.42771(16)
C9_6 C 0.07865(17) 0.55689(17) 0.38499(18)
H7_6 H 0.0554 0.5383 0.3795
C10_6 C 0.09585(18) 0.58174(16) 0.35142(18)
H8_6 H 0.0842 0.5799 0.3224
C11_6 C 0.0974(2) 0.4736(2) 0.7350(2)
H9_6 H 0.0874 0.4552 0.7576
C12_6 C 0.07983(18) 0.46904(17) 0.69301(19)
H10_6 H 0.0582 0.4480 0.6877
C13_6 C 0.09269(17) 0.49376(15) 0.65983(16)
C14_6 C 0.1231(3) 0.5245(2) 0.6704(2)
H11_6 H 0.1328 0.5434 0.6486
C15_6 C 0.1396(3) 0.5272(2) 0.7142(2)
H12_6 H 0.1607 0.5482 0.7213
C17_6 C 0.02789(15) 0.48225(13) 0.48816(15)
N5_6 N 0.04452(13) 0.50663(11) 0.45403(13)
C18_6 C 0.07698(17) 0.53147(14) 0.46520(16)
N6_6 N 0.09566(13) 0.53663(12) 0.50501(14)
C19_6 C 0.07850(17) 0.51250(14) 0.53915(15)
N7_6 N 0.09434(14) 0.51509(12) 0.58163(13)
C20_6 C 0.07541(17) 0.49026(15) 0.61302(15)
N8_6 N 0.04248(14) 0.46209(12) 0.60926(13)
C21_6 C 0.02647(17) 0.45928(15) 0.56646(16)
C22_6 C 0.04437(16) 0.48479(13) 0.53176(15)
Zn3_6 Zn 0.152728(25) 0.645565(17) 0.306900(19)
I1_6 I 0.661359(19) 0.448740(27) 0.47453(2)
N1_6 N 0.65078(11) 0.52785(17) 0.48777(13)
C1_6 C 0.62030(15) 0.51246(23) 0.46270(18)
H1_6 H 0.6175 0.4962 0.4387
C2_6 C 0.59379(16) 0.51905(23) 0.47012(18)
H2_6 H 0.5731 0.5082 0.4513
C3_6 C 0.59761(14) 0.54224(22) 0.50623(16)
C4_6 C 0.62845(14) 0.55867(21) 0.53111(16)
H3_6 H 0.6317 0.5749 0.5555
C5_6 C 0.65491(15) 0.55113(23) 0.52009(17)
H4_7 H 0.6766 0.5633 0.5365
N2_7 N 0.39099(12) 0.51971(18) 0.35735(13)
C6_7 C 0.38821(15) 0.53235(23) 0.39960(17)
H5_7 H 0.3687 0.5357 0.4049
C7_7 C 0.41211(15) 0.54075(22) 0.43521(17)
H6_7 H 0.4090 0.5493 0.4647
C8_7 C 0.44100(14) 0.53658(21) 0.42771(16)
C9_7 C 0.44311(17) 0.52177(24) 0.38499(18)
H7_7 H 0.4617 0.5172 0.3795
C10_7 C 0.41826(16) 0.51412(24) 0.35142(18)
H8_7 H 0.4201 0.5044 0.3224
C11_7 C 0.5264(2) 0.6239(3) 0.7350(2)
H9_7 H 0.5448 0.6323 0.7576
C12_7 C 0.53096(17) 0.61080(25) 0.69301(19)
H10_7 H 0.5520 0.6103 0.6877
C13_7 C 0.50624(15) 0.59894(23) 0.65983(16)
C14_7 C 0.4755(2) 0.5987(4) 0.6704(2)
H11_7 H 0.4566 0.5895 0.6486
C15_7 C 0.4728(2) 0.6125(4) 0.7142(2)
H12_7 H 0.4518 0.6126 0.7213
C16_6 C 0.56777(13) 0.54851(20) 0.51612(16)
N4_6 N 0.54439(12) 0.53954(18) 0.48024(13)
C17_7 C 0.51775(13) 0.54565(20) 0.48816(15)
N5_7 N 0.49337(11) 0.53790(17) 0.45403(13)
C18_7 C 0.46853(14) 0.54552(22) 0.46520(16)
N6_7 N 0.46337(12) 0.55904(18) 0.50501(14)
C19_7 C 0.48750(14) 0.56601(22) 0.53915(15)
N7_7 N 0.48491(12) 0.57926(18) 0.58163(13)
C20_7 C 0.50974(15) 0.58516(23) 0.61302(15)
N8_7 N 0.53791(12) 0.58040(18) 0.60926(13)
C21_7 C 0.54072(15) 0.56720(23) 0.56646(16)
N9_6 N 0.56761(12) 0.56183(18) 0.55879(14)
C22_7 C 0.51521(13) 0.55959(21) 0.53176(15)
Zn3_7 Zn 0.354435(17) 0.507163(30) 0.306900(19)
N10_7 N 0.72433(12) 0.53795(22) 0.52401(13)
I1_7 I 0.551260(27) 0.212620(19) 0.47453(2)
N1_7 N 0.47215(17) 0.12294(13) 0.48777(13)
C1_7 C 0.48754(23) 0.10785(18) 0.46270(18)
H1_7 H 0.5038 0.1214 0.4387
C2_7 C 0.48095(23) 0.07475(17) 0.47012(18)
H2_7 H 0.4918 0.0650 0.4513
C3_7 C 0.45776(22) 0.05538(17) 0.50623(16)
C4_7 C 0.44133(21) 0.06979(16) 0.53111(16)
H3_7 H 0.4251 0.0569 0.5555
C5_7 C 0.44887(23) 0.10379(18) 0.52009(17)
H4_8 H 0.4367 0.1134 0.5365
C16_7 C 0.45149(20) 0.01927(15) 0.51612(16)
N4_7 N 0.46046(18) 0.00486(13) 0.48024(13)
N9_7 N 0.43817(18) 0.00579(13) 0.55879(14)
N10_8 N 0.46205(22) 0.18637(18) 0.52401(13)
N2_8 N 0.48029(18) 0.87129(13) 0.35735(13)
C6_8 C 0.46765(23) 0.85587(18) 0.39960(17)
H5_8 H 0.4643 0.8331 0.4049
C7_8 C 0.45925(22) 0.87137(16) 0.43521(17)
H6_8 H 0.4507 0.8598 0.4647
C8_8 C 0.46342(21) 0.90443(16) 0.42771(16)
C9_8 C 0.47823(24) 0.92135(17) 0.38499(18)
H7_8 H 0.4828 0.9446 0.3795
C10_8 C 0.48588(24) 0.90415(18) 0.35142(18)
H8_8 H 0.4956 0.9158 0.3224
C11_8 C 0.3761(3) 0.9026(2) 0.7350(2)
H9_8 H 0.3677 0.9126 0.7576
C12_8 C 0.38920(25) 0.92017(18) 0.69301(19)
H10_8 H 0.3897 0.9418 0.6877
C13_8 C 0.40106(23) 0.90731(17) 0.65983(16)
C14_8 C 0.4013(4) 0.8769(3) 0.6704(2)
H11_8 H 0.4105 0.8672 0.6486
C15_8 C 0.3875(4) 0.8604(3) 0.7142(2)
H12_8 H 0.3874 0.8393 0.7213
C17_8 C 0.45435(20) 0.97211(15) 0.48816(15)
N5_8 N 0.46210(17) 0.95548(13) 0.45403(13)
C18_8 C 0.45448(22) 0.92302(17) 0.46520(16)
N6_8 N 0.44096(18) 0.90434(13) 0.50501(14)
C19_8 C 0.43399(22) 0.92150(17) 0.53915(15)
N7_8 N 0.42074(18) 0.90566(14) 0.58163(13)
C20_8 C 0.41484(23) 0.92459(17) 0.61302(15)
N8_8 N 0.41960(18) 0.95752(14) 0.60926(13)
C21_8 C 0.43280(23) 0.97353(17) 0.56646(16)
C22_8 C 0.44041(21) 0.95563(16) 0.53176(15)
Zn3_8 Zn 0.492837(30) 0.847272(25) 0.306900(19)
I1_8 I 0.328026(19) 0.545953(19) 0.30786(2)
N1_8 N 0.31745(11) 0.45627(13) 0.32110(13)
C1_8 C 0.28697(15) 0.44118(18) 0.29603(18)
H1_8 H 0.2842 0.4547 0.2720
C2_8 C 0.26046(16) 0.40808(17) 0.30345(18)
H2_8 H 0.2398 0.3983 0.2846
C3_8 C 0.26428(14) 0.38871(17) 0.33956(16)
C4_8 C 0.29512(14) 0.40312(16) 0.36444(16)
H3_8 H 0.2984 0.3902 0.3888
C5_8 C 0.32158(15) 0.43712(18) 0.35342(17)
H4_9 H 0.3433 0.4467 0.3698
C6_9 C 0.05488(15) 0.18920(18) 0.23293(17)
H5_9 H 0.0354 0.1664 0.2382
C7_9 C 0.07878(15) 0.20470(16) 0.26854(17)
H6_9 H 0.0757 0.1931 0.2980
C8_9 C 0.10767(14) 0.23776(16) 0.26104(16)
C9_9 C 0.10978(17) 0.25468(17) 0.21832(18)
H7_9 H 0.1284 0.2779 0.2128
C10_9 C 0.08493(16) 0.23748(18) 0.18475(18)
H8_9 H 0.0868 0.2491 0.1557
N3_6 N 0.16480(13) 0.20638(15) 0.57889(13)
C11_9 C 0.1931(2) 0.2359(2) 0.5683(2)
H9_9 H 0.2115 0.2459 0.5909
C12_9 C 0.19763(17) 0.25350(18) 0.52634(19)
H10_9 H 0.2187 0.2751 0.5210
C13_9 C 0.17291(15) 0.24064(17) 0.49316(16)
C14_9 C 0.1422(2) 0.2102(3) 0.5037(2)
H11_9 H 0.1233 0.2005 0.4819
C15_9 C 0.1395(2) 0.1937(3) 0.5475(2)
H12_9 H 0.1185 0.1726 0.5546
C16_8 C 0.23444(13) 0.35260(15) 0.34945(16)
N4_8 N 0.21106(12) 0.33819(13) 0.31357(13)
C17_9 C 0.18442(13) 0.30544(15) 0.32149(15)
N5_9 N 0.16004(11) 0.28881(13) 0.28736(13)
C18_9 C 0.13520(14) 0.25635(17) 0.29853(16)
N6_9 N 0.13004(12) 0.23767(13) 0.33834(14)
C19_9 C 0.15417(14) 0.25483(17) 0.37248(15)
N7_9 N 0.15158(12) 0.23899(14) 0.41496(13)
C20_9 C 0.17641(15) 0.25792(17) 0.44635(15)
N8_9 N 0.20458(12) 0.29085(14) 0.44259(13)
C21_9 C 0.20739(15) 0.30686(17) 0.39979(16)
N9_8 N 0.23428(12) 0.33912(13) 0.39212(14)
C22_9 C 0.18188(13) 0.28896(16) 0.36509(15)
N11_4 N 0.37491(20) 0.50187(13) 0.24556(13)
I1_9 I 0.454047(19) 0.782073(27) 0.30786(2)
N1_9 N 0.54373(13) 0.86118(17) 0.32110(13)
C1_9 C 0.55882(18) 0.84579(23) 0.29603(18)
H1_9 H 0.5453 0.8295 0.2720
C2_9 C 0.59192(17) 0.85238(23) 0.30345(18)
H2_9 H 0.6017 0.8415 0.2846
C3_9 C 0.61129(17) 0.87557(22) 0.33956(16)
C4_9 C 0.59688(16) 0.89200(21) 0.36444(16)
H3_9 H 0.6098 0.9082 0.3888
C5_9 C 0.56288(18) 0.88446(23) 0.35342(17)
H4_10 H 0.5533 0.8966 0.3698
C6_10 C 0.81080(18) 0.86568(23) 0.23293(17)
H5_10 H 0.8336 0.8690 0.2382
C7_10 C 0.79530(16) 0.87408(22) 0.26854(17)
H6_10 H 0.8069 0.8826 0.2980
C8_10 C 0.76224(16) 0.86991(21) 0.26104(16)
C9_10 C 0.74532(17) 0.85510(24) 0.21832(18)
H7_10 H 0.7221 0.8505 0.2128
C10_10 C 0.76252(18) 0.84745(24) 0.18475(18)
H8_10 H 0.7509 0.8377 0.1557
N3_7 N 0.79362(15) 0.95842(20) 0.57889(13)
C11_10 C 0.7641(2) 0.9572(3) 0.5683(2)
H9_10 H 0.7541 0.9656 0.5909
C12_10 C 0.74650(18) 0.94413(25) 0.52634(19)
H10_10 H 0.7249 0.9436 0.5210
C13_10 C 0.75936(17) 0.93227(23) 0.49316(16)
C14_10 C 0.7898(3) 0.9320(4) 0.5037(2)
H11_10 H 0.7995 0.9228 0.4819
C15_10 C 0.8063(3) 0.9458(4) 0.5475(2)
H12_10 H 0.8274 0.9459 0.5546
C16_9 C 0.64740(15) 0.88184(20) 0.34945(16)
N4_9 N 0.66181(13) 0.87287(18) 0.31357(13)
C17_10 C 0.69456(15) 0.87898(20) 0.32149(15)
N5_10 N 0.71119(13) 0.87123(17) 0.28736(13)
C18_10 C 0.74365(17) 0.87885(22) 0.29853(16)
N6_10 N 0.76233(13) 0.89237(18) 0.33834(14)
C19_10 C 0.74517(17) 0.89934(22) 0.37248(15)
N7_10 N 0.76101(14) 0.91259(18) 0.41496(13)
C20_10 C 0.74208(17) 0.91849(23) 0.44635(15)
N8_10 N 0.70915(14) 0.91373(18) 0.44259(13)
C21_10 C 0.69314(17) 0.90053(23) 0.39979(16)
N9_9 N 0.66088(13) 0.89516(18) 0.39212(14)
C22_10 C 0.71104(16) 0.89292(21) 0.36509(15)
N11_5 N 0.49813(13) 0.87305(24) 0.24556(13)
I1_10 I 0.217927(27) 0.671974(19) 0.30786(2)
N1_10 N 0.13882(17) 0.68255(11) 0.32110(13)
C1_10 C 0.15421(23) 0.71303(15) 0.29603(18)
H1_10 H 0.1705 0.7158 0.2720
C2_10 C 0.14762(23) 0.73954(16) 0.30345(18)
H2_10 H 0.1585 0.7602 0.2846
C3_10 C 0.12443(22) 0.73572(14) 0.33956(16)
C4_10 C 0.10800(21) 0.70488(14) 0.36444(16)
H3_10 H 0.0918 0.7016 0.3888
C5_10 C 0.11554(23) 0.67842(15) 0.35342(17)
H4_11 H 0.1034 0.6567 0.3698
C6_11 C 0.13432(23) 0.94512(15) 0.23293(17)
H5_11 H 0.1310 0.9646 0.2382
C7_11 C 0.12592(22) 0.92122(15) 0.26854(17)
H6_11 H 0.1174 0.9243 0.2980
C8_11 C 0.13009(21) 0.89233(14) 0.26104(16)
C9_11 C 0.14490(24) 0.89022(17) 0.21832(18)
H7_11 H 0.1495 0.8716 0.2128
C10_11 C 0.15255(24) 0.91507(16) 0.18475(18)
H8_11 H 0.1623 0.9132 0.1557
N3_8 N 0.04158(20) 0.83520(13) 0.57889(13)
C11_11 C 0.0428(3) 0.8069(2) 0.5683(2)
H9_11 H 0.0344 0.7885 0.5909
C12_11 C 0.05587(25) 0.80237(17) 0.52634(19)
H10_11 H 0.0564 0.7813 0.5210
C13_11 C 0.06773(23) 0.82709(15) 0.49316(16)
C14_11 C 0.0680(4) 0.8578(2) 0.5037(2)
H11_11 H 0.0772 0.8767 0.4819
C15_11 C 0.0542(4) 0.8605(2) 0.5475(2)
H12_11 H 0.0541 0.8815 0.5546
C16_10 C 0.11816(20) 0.76556(13) 0.34945(16)
N4_10 N 0.12713(18) 0.78894(12) 0.31357(13)
C17_11 C 0.12102(20) 0.81558(13) 0.32149(15)
N5_11 N 0.12877(17) 0.83996(11) 0.28736(13)
C18_11 C 0.12115(22) 0.86480(14) 0.29853(16)
N6_11 N 0.10763(18) 0.86996(12) 0.33834(14)
C19_11 C 0.10066(22) 0.84583(14) 0.37248(15)
N7_11 N 0.08741(18) 0.84842(12) 0.41496(13)
C20_11 C 0.08151(23) 0.82359(15) 0.44635(15)
N8_11 N 0.08627(18) 0.79542(12) 0.44259(13)
C21_11 C 0.09947(23) 0.79261(15) 0.39979(16)
N9_10 N 0.10484(18) 0.76572(12) 0.39212(14)
C22_11 C 0.10708(21) 0.81812(13) 0.36509(15)
N11_6 N 0.12695(24) 0.62509(20) 0.24556(13)
C11_12 C 0.5264(2) 0.9026(2) 0.2350(2)
H9_12 H 0.5448 0.9126 0.2576
C12_12 C 0.53096(17) 0.92017(18) 0.19301(19)
H10_12 H 0.5520 0.9418 0.1877
C13_12 C 0.50624(15) 0.90731(17) 0.15983(16)
C14_12 C 0.4755(2) 0.8769(3) 0.1704(2)
H11_12 H 0.4566 0.8672 0.1486
C15_12 C 0.4728(2) 0.8604(3) 0.2142(2)
H12_12 H 0.4518 0.8393 0.2213
N6_12 N 0.46337(12) 0.90434(13) 0.00501(14)
C19_12 C 0.48750(14) 0.92150(17) 0.03915(15)
N7_12 N 0.48491(12) 0.90566(14) 0.08163(13)
C20_12 C 0.50974(15) 0.92459(17) 0.11302(15)
N8_12 N 0.53791(12) 0.95752(14) 0.10926(13)
C21_12 C 0.54072(15) 0.97353(17) 0.06646(16)
C22_12 C 0.51521(13) 0.95563(16) 0.03176(15)
C6_12 C 0.38821(15) 0.85587(18) 0.89960(17)
H5_12 H 0.3687 0.8331 0.9049
C7_12 C 0.41211(15) 0.87137(16) 0.93521(17)
H6_12 H 0.4090 0.8598 0.9647
C8_12 C 0.44100(14) 0.90443(16) 0.92771(16)
C9_12 C 0.44311(17) 0.92135(17) 0.88499(18)
H7_12 H 0.4617 0.9446 0.8795
C10_12 C 0.41826(16) 0.90415(18) 0.85142(18)
H8_12 H 0.4201 0.9158 0.8224
C17_12 C 0.51775(13) 0.97211(15) 0.98816(15)
N5_12 N 0.49337(11) 0.95548(13) 0.95403(13)
C18_12 C 0.46853(14) 0.92302(17) 0.96520(16)
C11_13 C 0.0974(2) 0.6239(3) 0.2350(2)
H9_13 H 0.0874 0.6323 0.2576
C12_13 C 0.07983(18) 0.61080(25) 0.19301(19)
H10_13 H 0.0582 0.6103 0.1877
C13_13 C 0.09269(17) 0.59894(23) 0.15983(16)
C14_13 C 0.1231(3) 0.5987(4) 0.1704(2)
H11_13 H 0.1328 0.5895 0.1486
C15_13 C 0.1396(3) 0.6125(4) 0.2142(2)
H12_13 H 0.1607 0.6126 0.2213
N6_13 N 0.09566(13) 0.55904(18) 0.00501(14)
C19_13 C 0.07850(17) 0.56601(22) 0.03915(15)
N7_13 N 0.09434(14) 0.57926(18) 0.08163(13)
C20_13 C 0.07541(17) 0.58516(23) 0.11302(15)
N8_13 N 0.04248(14) 0.58040(18) 0.10926(13)
C21_13 C 0.02647(17) 0.56720(23) 0.06646(16)
C22_13 C 0.04437(16) 0.55959(21) 0.03176(15)
C6_13 C 0.14413(18) 0.53235(23) 0.89960(17)
H5_13 H 0.1669 0.5357 0.9049
C7_13 C 0.12863(16) 0.54075(22) 0.93521(17)
H6_13 H 0.1402 0.5493 0.9647
C8_13 C 0.09557(16) 0.53658(21) 0.92771(16)
C9_13 C 0.07865(17) 0.52177(24) 0.88499(18)
H7_13 H 0.0554 0.5172 0.8795
C10_13 C 0.09585(18) 0.51412(24) 0.85142(18)
H8_13 H 0.0842 0.5044 0.8224
C17_13 C 0.02789(15) 0.54565(20) 0.98816(15)
N5_13 N 0.04452(13) 0.53790(17) 0.95403(13)
C18_13 C 0.07698(17) 0.54552(22) 0.96520(16)
C3_11 C 0.94462(17) 0.54224(22) 0.00623(16)
C4_11 C 0.93021(16) 0.55867(21) 0.03111(16)
H3_11 H 0.9431 0.5749 0.0555
C5_11 C 0.89621(18) 0.55113(23) 0.02009(17)
H4_12 H 0.8866 0.5633 0.0365
C16_11 C 0.98073(15) 0.54851(20) 0.01612(16)
N9_11 N 0.99421(13) 0.56183(18) 0.05879(14)
I1_11 I 0.787380(19) 0.448740(27) 0.97453(2)
N1_11 N 0.87706(13) 0.52785(17) 0.98777(13)
C1_11 C 0.89215(18) 0.51246(23) 0.96270(18)
H1_11 H 0.8786 0.4962 0.9387
C2_11 C 0.92525(17) 0.51905(23) 0.97012(18)
H2_11 H 0.9350 0.5082 0.9513
N4_11 N 0.99514(13) 0.53954(18) 0.98024(13)
N11_7 N 0.83147(13) 0.53971(24) 0.91222(13)
C3_12 C 0.45776(22) 0.40239(14) 0.00623(16)
C4_12 C 0.44133(21) 0.37155(14) 0.03111(16)
H3_12 H 0.4251 0.3683 0.0555
C5_12 C 0.44887(23) 0.34509(15) 0.02009(17)
H4_13 H 0.4367 0.3234 0.0365
C11_14 C 0.3761(3) 0.4736(2) 0.2350(2)
H9_14 H 0.3677 0.4552 0.2576
C12_14 C 0.38920(25) 0.46904(17) 0.19301(19)
H10_14 H 0.3897 0.4480 0.1877
C13_14 C 0.40106(23) 0.49376(15) 0.15983(16)
C14_14 C 0.4013(4) 0.5245(2) 0.1704(2)
H11_14 H 0.4105 0.5434 0.1486
C15_14 C 0.3875(4) 0.5272(2) 0.2142(2)
H12_14 H 0.3874 0.5482 0.2213
C16_12 C 0.45149(20) 0.43223(13) 0.01612(16)
N6_14 N 0.44096(18) 0.53663(12) 0.00501(14)
C19_14 C 0.43399(22) 0.51250(14) 0.03915(15)
N7_14 N 0.42074(18) 0.51509(12) 0.08163(13)
C20_14 C 0.41484(23) 0.49026(15) 0.11302(15)
N8_14 N 0.41960(18) 0.46209(12) 0.10926(13)
C21_14 C 0.43280(23) 0.45928(15) 0.06646(16)
N9_12 N 0.43817(18) 0.43239(12) 0.05879(14)
C22_14 C 0.44041(21) 0.48479(13) 0.03176(15)
I1_12 I 0.551260(27) 0.338641(19) 0.97453(2)
N1_12 N 0.47215(17) 0.34922(11) 0.98777(13)
C1_12 C 0.48754(23) 0.37970(15) 0.96270(18)
H1_12 H 0.5038 0.3825 0.9387
C2_12 C 0.48095(23) 0.40621(16) 0.97012(18)
H2_12 H 0.4918 0.4269 0.9513
C6_14 C 0.46765(23) 0.61179(15) 0.89960(17)
H5_14 H 0.4643 0.6313 0.9049
C7_14 C 0.45925(22) 0.58789(15) 0.93521(17)
H6_14 H 0.4507 0.5910 0.9647
C8_14 C 0.46342(21) 0.55900(14) 0.92771(16)
C9_14 C 0.47823(24) 0.55689(17) 0.88499(18)
H7_14 H 0.4828 0.5383 0.8795
C10_14 C 0.48588(24) 0.58174(16) 0.85142(18)
H8_14 H 0.4956 0.5799 0.8224
N4_12 N 0.46046(18) 0.45561(12) 0.98024(13)
C17_14 C 0.45435(20) 0.48225(13) 0.98816(15)
N5_14 N 0.46210(17) 0.50663(11) 0.95403(13)
C18_14 C 0.45448(22) 0.53147(14) 0.96520(16)
N11_8 N 0.46029(24) 0.29175(20) 0.91222(13)
H4_14 H 0.0100 0.7800 0.7031
I1_13 I 0.994693(19) 0.879286(19) 0.64119(2)
N1_13 N 0.98412(11) 0.78960(13) 0.65443(13)
C1_13 C 0.95364(15) 0.77451(18) 0.62936(18)
H1_13 H 0.9509 0.7880 0.6053
C2_13 C 0.92713(16) 0.74141(17) 0.63678(18)
H2_13 H 0.9065 0.7316 0.6179
C3_13 C 0.93095(14) 0.72204(17) 0.67289(16)
C4_13 C 0.96179(14) 0.73645(16) 0.69777(16)
H3_13 H 0.9651 0.7235 0.7221
C5_13 C 0.98825(15) 0.77045(18) 0.68675(17)
C6_15 C 0.72155(15) 0.52253(18) 0.56626(17)
H5_15 H 0.7021 0.4997 0.5715
C7_15 C 0.74545(15) 0.53803(16) 0.60187(17)
H6_15 H 0.7424 0.5264 0.6313
C8_15 C 0.77434(14) 0.57109(16) 0.59437(16)
C9_15 C 0.77645(17) 0.58801(17) 0.55165(18)
H7_15 H 0.7951 0.6112 0.5461
C10_15 C 0.75160(16) 0.57081(18) 0.51808(18)
H8_15 H 0.7535 0.5824 0.4890
C11_15 C 0.8598(2) 0.5692(2) 0.9016(2)
H9_15 H 0.8782 0.5792 0.9242
C12_15 C 0.86430(17) 0.58683(18) 0.85967(19)
H10_15 H 0.8854 0.6084 0.8543
C13_15 C 0.83958(15) 0.57397(17) 0.82649(16)
C14_15 C 0.8089(2) 0.5435(3) 0.8370(2)
H11_15 H 0.7900 0.5338 0.8152
C15_15 C 0.8062(2) 0.5270(3) 0.8808(2)
H12_15 H 0.7852 0.5059 0.8879
C16_13 C 0.90111(13) 0.68593(15) 0.68278(16)
N4_13 N 0.87773(12) 0.67152(13) 0.64690(13)
C17_15 C 0.85109(13) 0.63877(15) 0.65482(15)
N5_15 N 0.82671(11) 0.62214(13) 0.62069(13)
C18_15 C 0.80187(14) 0.58968(17) 0.63186(16)
N6_15 N 0.79671(12) 0.57100(13) 0.67167(14)
C19_15 C 0.82084(14) 0.58816(17) 0.70581(15)
N7_15 N 0.81825(12) 0.57232(14) 0.74829(13)
C20_15 C 0.84308(15) 0.59125(17) 0.77968(15)
N8_15 N 0.87125(12) 0.62418(14) 0.77592(13)
C21_15 C 0.87406(15) 0.64019(17) 0.73312(16)
N9_13 N 0.90095(12) 0.67245(13) 0.72545(14)
C22_15 C 0.84855(13) 0.62229(16) 0.69842(15)
I1_14 I 0.120714(19) 0.115406(27) 0.64119(2)
N1_14 N 0.21040(13) 0.19451(17) 0.65443(13)
C1_14 C 0.22549(18) 0.17912(23) 0.62936(18)
H1_14 H 0.2120 0.1628 0.6053
C2_14 C 0.25859(17) 0.18571(23) 0.63678(18)
H2_14 H 0.2684 0.1748 0.6179
C3_14 C 0.27796(17) 0.20890(22) 0.67289(16)
C4_14 C 0.26355(16) 0.22533(21) 0.69777(16)
H3_14 H 0.2765 0.2415 0.7221
C5_14 C 0.22955(18) 0.21779(23) 0.68675(17)
H4_15 H 0.2200 0.2299 0.7031
C6_16 C 0.47747(18) 0.19901(23) 0.56626(17)
H5_16 H 0.5003 0.2023 0.5715
C7_16 C 0.46197(16) 0.20741(22) 0.60187(17)
H6_16 H 0.4736 0.2159 0.6313
C8_16 C 0.42891(16) 0.20324(21) 0.59437(16)
C9_16 C 0.41199(17) 0.18843(24) 0.55165(18)
H7_16 H 0.3888 0.1838 0.5461
C10_16 C 0.42919(18) 0.18078(24) 0.51808(18)
H8_16 H 0.4176 0.1710 0.4890
C11_16 C 0.4308(2) 0.2905(3) 0.9016(2)
H9_16 H 0.4208 0.2989 0.9242
C12_16 C 0.41317(18) 0.27746(25) 0.85967(19)
H10_16 H 0.3916 0.2769 0.8543
C13_16 C 0.42603(17) 0.26560(23) 0.82649(16)
C14_16 C 0.4565(3) 0.2653(4) 0.8370(2)
H11_16 H 0.4662 0.2561 0.8152
C15_16 C 0.4730(3) 0.2791(4) 0.8808(2)
H12_16 H 0.4941 0.2792 0.8879
C16_14 C 0.31407(15) 0.21517(20) 0.68278(16)
N4_14 N 0.32848(13) 0.20620(18) 0.64690(13)
C17_16 C 0.36123(15) 0.21231(20) 0.65482(15)
N5_16 N 0.37786(13) 0.20456(17) 0.62069(13)
C18_16 C 0.41032(17) 0.21218(22) 0.63186(16)
N6_16 N 0.42900(13) 0.22570(18) 0.67167(14)
C19_16 C 0.41184(17) 0.23267(22) 0.70581(15)
N7_16 N 0.42768(14) 0.24592(18) 0.74829(13)
C20_16 C 0.40875(17) 0.25182(23) 0.77968(15)
N8_16 N 0.37582(14) 0.24706(18) 0.77592(13)
C21_16 C 0.35981(17) 0.23386(23) 0.73312(16)
N9_14 N 0.32755(13) 0.22849(18) 0.72545(14)
C22_16 C 0.37771(16) 0.22625(21) 0.69842(15)
H4_16 H 0.7701 0.9900 0.7031
Zn1_4 Zn 0.645565(17) 0.492837(19) 0.693100(19)
I1_15 I 0.671974(19) 0.454047(19) 0.69214(2)
N1_15 N 0.68255(11) 0.54373(13) 0.67890(13)
C1_15 C 0.71303(15) 0.55882(18) 0.70397(18)
H1_15 H 0.7158 0.5453 0.7280
C2_15 C 0.73954(16) 0.59192(17) 0.69655(18)
H2_15 H 0.7602 0.6017 0.7154
C3_15 C 0.73572(14) 0.61129(17) 0.66044(16)
C4_15 C 0.70488(14) 0.59688(16) 0.63556(16)
H3_15 H 0.7016 0.6098 0.6112
C5_15 C 0.67842(15) 0.56288(18) 0.64658(17)
H4_17 H 0.6567 0.5533 0.6302
N2_9 N 0.94234(12) 0.79538(13) 0.80932(13)
C6_17 C 0.94512(15) 0.81080(18) 0.76707(17)
H5_17 H 0.9646 0.8336 0.7618
C7_17 C 0.92122(15) 0.79530(16) 0.73146(17)
H6_17 H 0.9243 0.8069 0.7020
C8_17 C 0.89233(14) 0.76224(16) 0.73896(16)
C9_17 C 0.89022(17) 0.74532(17) 0.78168(18)
H7_17 H 0.8716 0.7221 0.7872
C10_17 C 0.91507(16) 0.76252(18) 0.81525(18)
H8_17 H 0.9132 0.7509 0.8443
N3_9 N 0.83520(13) 0.79362(15) 0.42111(13)
C11_17 C 0.8069(2) 0.7641(2) 0.4317(2)
H9_17 H 0.7885 0.7541 0.4091
C12_17 C 0.80237(17) 0.74650(18) 0.47366(19)
H10_17 H 0.7813 0.7249 0.4790
C13_17 C 0.82709(15) 0.75936(17) 0.50684(16)
C14_17 C 0.8578(2) 0.7898(3) 0.4963(2)
H11_17 H 0.8767 0.7995 0.5181
C15_17 C 0.8605(2) 0.8063(3) 0.4525(2)
H12_17 H 0.8815 0.8274 0.4454
C16_15 C 0.76556(13) 0.64740(15) 0.65055(16)
N4_15 N 0.78894(12) 0.66181(13) 0.68643(13)
C17_17 C 0.81558(13) 0.69456(15) 0.67851(15)
N5_17 N 0.83996(11) 0.71119(13) 0.71264(13)
C18_17 C 0.86480(14) 0.74365(17) 0.70147(16)
N6_17 N 0.86996(12) 0.76233(13) 0.66166(14)
C19_17 C 0.84583(14) 0.74517(17) 0.62752(15)
N7_17 N 0.84842(12) 0.76101(14) 0.58504(13)
C20_17 C 0.82359(15) 0.74208(17) 0.55365(15)
N8_17 N 0.79542(12) 0.70915(14) 0.55741(13)
C21_17 C 0.79261(15) 0.69314(17) 0.60021(16)
N9_15 N 0.76572(12) 0.66088(13) 0.60788(14)
C22_17 C 0.81812(13) 0.71104(16) 0.63491(15)
Zn2_6 Zn 0.840496(19) 0.819395(25) 0.359767(19)
Zn3_9 Zn 0.978898(17) 0.819395(25) 0.859767(19)
N10_9 N 0.60901(12) 0.48029(18) 0.64265(13)
N11_9 N 0.62509(20) 0.49813(13) 0.75444(13)
Zn1_5 Zn 0.507163(19) 0.152728(25) 0.693100(19)
I1_16 I 0.545953(19) 0.217927(27) 0.69214(2)
N1_16 N 0.45627(13) 0.13882(17) 0.67890(13)
C1_16 C 0.44118(18) 0.15421(23) 0.70397(18)
H1_16 H 0.4547 0.1705 0.7280
C2_16 C 0.40808(17) 0.14762(23) 0.69655(18)
H2_16 H 0.3983 0.1585 0.7154
C3_16 C 0.38871(17) 0.12443(22) 0.66044(16)
C4_16 C 0.40312(16) 0.10800(21) 0.63556(16)
H3_16 H 0.3902 0.0918 0.6112
C5_16 C 0.43712(18) 0.11554(23) 0.64658(17)
H4_18 H 0.4467 0.1034 0.6302
N2_10 N 0.20462(13) 0.14696(18) 0.80932(13)
C6_18 C 0.18920(18) 0.13432(23) 0.76707(17)
H5_18 H 0.1664 0.1310 0.7618
C7_18 C 0.20470(16) 0.12592(22) 0.73146(17)
H6_18 H 0.1931 0.1174 0.7020
C8_18 C 0.23776(16) 0.13009(21) 0.73896(16)
C9_18 C 0.25468(17) 0.14490(24) 0.78168(18)
H7_18 H 0.2779 0.1495 0.7872
C10_18 C 0.23748(18) 0.15255(24) 0.81525(18)
H8_18 H 0.2491 0.1623 0.8443
N3_10 N 0.20638(15) 0.04158(20) 0.42111(13)
C11_18 C 0.2359(2) 0.0428(3) 0.4317(2)
H9_18 H 0.2459 0.0344 0.4091
C12_18 C 0.25350(18) 0.05587(25) 0.47366(19)
H10_18 H 0.2751 0.0564 0.4790
C13_18 C 0.24064(17) 0.06773(23) 0.50684(16)
C14_18 C 0.2102(3) 0.0680(4) 0.4963(2)
H11_18 H 0.2005 0.0772 0.5181
C15_18 C 0.1937(3) 0.0542(4) 0.4525(2)
H12_18 H 0.1726 0.0541 0.4454
C16_16 C 0.35260(15) 0.11816(20) 0.65055(16)
N4_16 N 0.33819(13) 0.12713(18) 0.68643(13)
C17_18 C 0.30544(15) 0.12102(20) 0.67851(15)
N5_18 N 0.28881(13) 0.12877(17) 0.71264(13)
C18_18 C 0.25635(17) 0.12115(22) 0.70147(16)
N6_18 N 0.23767(13) 0.10763(18) 0.66166(14)
C19_18 C 0.25483(17) 0.10066(22) 0.62752(15)
N7_18 N 0.23899(14) 0.08741(18) 0.58504(13)
C20_18 C 0.25792(17) 0.08151(23) 0.55365(15)
N8_18 N 0.29085(14) 0.08627(18) 0.55741(13)
C21_18 C 0.30686(17) 0.09947(23) 0.60021(16)
N9_16 N 0.33912(13) 0.10484(18) 0.60788(14)
C22_18 C 0.28896(16) 0.10708(21) 0.63491(15)
Zn2_7 Zn 0.180605(25) 0.021102(31) 0.359767(19)
Zn3_10 Zn 0.180605(25) 0.159504(30) 0.859767(19)
N10_10 N 0.51971(18) 0.12871(22) 0.64265(13)
N11_10 N 0.50187(13) 0.12695(24) 0.75444(13)
Zn1_6 Zn 0.847272(25) 0.354435(17) 0.693100(19)
I1_17 I 0.782073(27) 0.328026(19) 0.69214(2)
N1_17 N 0.86118(17) 0.31745(11) 0.67890(13)
C1_17 C 0.84579(23) 0.28697(15) 0.70397(18)
H1_17 H 0.8295 0.2842 0.7280
C2_17 C 0.85238(23) 0.26046(16) 0.69655(18)
H2_17 H 0.8415 0.2398 0.7154
C3_17 C 0.87557(22) 0.26428(14) 0.66044(16)
C4_17 C 0.89200(21) 0.29512(14) 0.63556(16)
H3_17 H 0.9082 0.2984 0.6112
C5_17 C 0.88446(23) 0.32158(15) 0.64658(17)
H4_19 H 0.8966 0.3433 0.6302
N2_11 N 0.85304(18) 0.05766(12) 0.80932(13)
C6_19 C 0.86568(23) 0.05488(15) 0.76707(17)
H5_19 H 0.8690 0.0354 0.7618
C7_19 C 0.87408(22) 0.07878(15) 0.73146(17)
H6_19 H 0.8826 0.0757 0.7020
C8_19 C 0.86991(21) 0.10767(14) 0.73896(16)
C9_19 C 0.85510(24) 0.10978(17) 0.78168(18)
H7_19 H 0.8505 0.1284 0.7872
C10_19 C 0.84745(24) 0.08493(16) 0.81525(18)
H8_19 H 0.8377 0.0868 0.8443
N3_11 N 0.95842(20) 0.16480(13) 0.42111(13)
C11_19 C 0.9572(3) 0.1931(2) 0.4317(2)
H9_19 H 0.9656 0.2115 0.4091
C12_19 C 0.94413(25) 0.19763(17) 0.47366(19)
H10_19 H 0.9436 0.2187 0.4790
C13_19 C 0.93227(23) 0.17291(15) 0.50684(16)
C14_19 C 0.9320(4) 0.1422(2) 0.4963(2)
H11_19 H 0.9228 0.1233 0.5181
C15_19 C 0.9458(4) 0.1395(2) 0.4525(2)
H12_19 H 0.9459 0.1185 0.4454
C16_17 C 0.88184(20) 0.23444(13) 0.65055(16)
N4_17 N 0.87287(18) 0.21106(12) 0.68643(13)
C17_19 C 0.87898(20) 0.18442(13) 0.67851(15)
N5_19 N 0.87123(17) 0.16004(11) 0.71264(13)
C18_19 C 0.87885(22) 0.13520(14) 0.70147(16)
N6_19 N 0.89237(18) 0.13004(12) 0.66166(14)
C19_19 C 0.89934(22) 0.15417(14) 0.62752(15)
N7_19 N 0.91259(18) 0.15158(12) 0.58504(13)
C20_19 C 0.91849(23) 0.17641(15) 0.55365(15)
N8_19 N 0.91373(18) 0.20458(12) 0.55741(13)
C21_19 C 0.90053(23) 0.20739(15) 0.60021(16)
N9_17 N 0.89516(18) 0.23428(12) 0.60788(14)
C22_19 C 0.89292(21) 0.18188(13) 0.63491(15)
Zn2_8 Zn 0.978898(31) 0.159504(19) 0.359767(19)
Zn3_11 Zn 0.840496(30) 0.021102(17) 0.859767(19)
N10_11 N 0.87129(22) 0.39099(12) 0.64265(13)
N11_11 N 0.87305(24) 0.37491(20) 0.75444(13)
N2_12 N 0.60901(12) 0.12871(13) 0.14265(13)
C6_20 C 0.61179(15) 0.14413(18) 0.10040(17)
H5_20 H 0.6313 0.1669 0.0951
C7_20 C 0.58789(15) 0.12863(16) 0.06479(17)
H6_20 H 0.5910 0.1402 0.0353
C8_20 C 0.55900(14) 0.09557(16) 0.07229(16)
C9_20 C 0.55689(17) 0.07865(17) 0.11501(18)
H7_20 H 0.5383 0.0554 0.1205
C10_20 C 0.58174(16) 0.09585(18) 0.14858(18)
H8_20 H 0.5799 0.0842 0.1776
C17_20 C 0.48225(13) 0.02789(15) 0.01184(15)
N5_20 N 0.50663(11) 0.04452(13) 0.04597(13)
C18_20 C 0.53147(14) 0.07698(17) 0.03480(16)
Zn3_12 Zn 0.645565(17) 0.152728(25) 0.193100(19)
C11_20 C 0.4736(2) 0.0974(2) 0.7650(2)
H9_20 H 0.4552 0.0874 0.7424
C12_20 C 0.46904(17) 0.07983(18) 0.80699(19)
H10_20 H 0.4480 0.0582 0.8123
C13_20 C 0.49376(15) 0.09269(17) 0.84017(16)
C14_20 C 0.5245(2) 0.1231(3) 0.8296(2)
H11_20 H 0.5434 0.1328 0.8514
C15_20 C 0.5272(2) 0.1396(3) 0.7858(2)
H12_20 H 0.5482 0.1607 0.7787
N6_20 N 0.53663(12) 0.09566(13) 0.99499(14)
C19_20 C 0.51250(14) 0.07850(17) 0.96085(15)
N7_20 N 0.51509(12) 0.09434(14) 0.91837(13)
C20_20 C 0.49026(15) 0.07541(17) 0.88698(15)
N8_20 N 0.46209(12) 0.04248(14) 0.89074(13)
C21_20 C 0.45928(15) 0.02647(17) 0.93354(16)
C22_20 C 0.48479(13) 0.04437(16) 0.96824(15)
Zn1_7 Zn 0.173830(19) 0.486061(25) 0.026433(19)
I1_18 I 0.212620(19) 0.551260(27) 0.02547(2)
N1_18 N 0.12294(13) 0.47215(17) 0.01223(13)
C1_18 C 0.10785(18) 0.48754(23) 0.03730(18)
H1_18 H 0.1214 0.5038 0.0613
C2_18 C 0.07475(17) 0.48095(23) 0.02988(18)
H2_18 H 0.0650 0.4918 0.0487
N4_18 N 0.00486(13) 0.46046(18) 0.01976(13)
N11_12 N 0.16853(13) 0.46029(24) 0.08778(13)
C3_18 C 0.05538(17) 0.45776(22) 0.99377(16)
C4_18 C 0.06979(16) 0.44133(21) 0.96889(16)
H3_18 H 0.0569 0.4251 0.9445
C5_18 C 0.10379(18) 0.44887(23) 0.97991(17)
H4_20 H 0.1134 0.4367 0.9635
C16_18 C 0.01927(15) 0.45149(20) 0.98388(16)
N9_18 N 0.00579(13) 0.43817(18) 0.94121(14)
N10_12 N 0.18637(18) 0.46205(22) 0.97599(13)
N2_13 N 0.87129(13) 0.48029(18) 0.14265(13)
C6_21 C 0.85587(18) 0.46765(23) 0.10040(17)
H5_21 H 0.8331 0.4643 0.0951
C7_21 C 0.87137(16) 0.45925(22) 0.06479(17)
H6_21 H 0.8598 0.4507 0.0353
C8_21 C 0.90443(16) 0.46342(21) 0.07229(16)
C9_21 C 0.92135(17) 0.47823(24) 0.11501(18)
H7_21 H 0.9446 0.4828 0.1205
C10_21 C 0.90415(18) 0.48588(24) 0.14858(18)
H8_21 H 0.9158 0.4956 0.1776
C17_21 C 0.97211(15) 0.45435(20) 0.01184(15)
N5_21 N 0.95548(13) 0.46210(17) 0.04597(13)
C18_21 C 0.92302(17) 0.45448(22) 0.03480(16)
Zn3_13 Zn 0.847272(25) 0.492837(30) 0.193100(19)
C11_21 C 0.9026(2) 0.3761(3) 0.7650(2)
H9_21 H 0.9126 0.3677 0.7424
C12_21 C 0.92017(18) 0.38920(25) 0.80699(19)
H10_21 H 0.9418 0.3897 0.8123
C13_21 C 0.90731(17) 0.40106(23) 0.84017(16)
C14_21 C 0.8769(3) 0.4013(4) 0.8296(2)
H11_21 H 0.8672 0.4105 0.8514
C15_21 C 0.8604(3) 0.3875(4) 0.7858(2)
H12_21 H 0.8393 0.3874 0.7787
N6_21 N 0.90434(13) 0.44096(18) 0.99499(14)
C19_21 C 0.92150(17) 0.43399(22) 0.96085(15)
N7_21 N 0.90566(14) 0.42074(18) 0.91837(13)
C20_21 C 0.92459(17) 0.41484(23) 0.88698(15)
N8_21 N 0.95752(14) 0.41960(18) 0.89074(13)
C21_21 C 0.97353(17) 0.43280(23) 0.93354(16)
C22_21 C 0.95563(16) 0.44041(21) 0.96824(15)
Zn1_8 Zn 0.513939(25) 0.687768(17) 0.026433(19)
I1_19 I 0.448740(27) 0.661359(19) 0.02547(2)
N1_19 N 0.52785(17) 0.65078(11) 0.01223(13)
C1_19 C 0.51246(23) 0.62030(15) 0.03730(18)
H1_19 H 0.4962 0.6175 0.0613
C2_19 C 0.51905(23) 0.59379(16) 0.02988(18)
H2_19 H 0.5082 0.5731 0.0487
N2_14 N 0.51971(18) 0.39099(12) 0.14265(13)
C6_22 C 0.53235(23) 0.38821(15) 0.10040(17)
H5_22 H 0.5357 0.3687 0.0951
C7_22 C 0.54075(22) 0.41211(15) 0.06479(17)
H6_22 H 0.5493 0.4090 0.0353
C8_22 C 0.53658(21) 0.44100(14) 0.07229(16)
C9_22 C 0.52177(24) 0.44311(17) 0.11501(18)
H7_22 H 0.5172 0.4617 0.1205
C10_22 C 0.51412(24) 0.41826(16) 0.14858(18)
H8_22 H 0.5044 0.4201 0.1776
N4_19 N 0.53954(18) 0.54439(12) 0.01976(13)
C17_22 C 0.54565(20) 0.51775(13) 0.01184(15)
N5_22 N 0.53790(17) 0.49337(11) 0.04597(13)
C18_22 C 0.54552(22) 0.46853(14) 0.03480(16)
Zn3_14 Zn 0.507163(30) 0.354435(17) 0.193100(19)
N11_13 N 0.53971(24) 0.70825(20) 0.08778(13)
C3_19 C 0.54224(22) 0.59761(14) 0.99377(16)
C4_19 C 0.55867(21) 0.62845(14) 0.96889(16)
H3_19 H 0.5749 0.6317 0.9445
C5_19 C 0.55113(23) 0.65491(15) 0.97991(17)
H4_21 H 0.5633 0.6766 0.9635
C11_22 C 0.6239(3) 0.5264(2) 0.7650(2)
H9_22 H 0.6323 0.5448 0.7424
C12_22 C 0.61080(25) 0.53096(17) 0.80699(19)
H10_22 H 0.6103 0.5520 0.8123
C13_22 C 0.59894(23) 0.50624(15) 0.84017(16)
C14_22 C 0.5987(4) 0.4755(2) 0.8296(2)
H11_22 H 0.5895 0.4566 0.8514
C15_22 C 0.6125(4) 0.4728(2) 0.7858(2)
H12_22 H 0.6126 0.4518 0.7787
C16_19 C 0.54851(20) 0.56777(13) 0.98388(16)
N6_22 N 0.55904(18) 0.46337(12) 0.99499(14)
C19_22 C 0.56601(22) 0.48750(14) 0.96085(15)
N7_22 N 0.57926(18) 0.48491(12) 0.91837(13)
C20_22 C 0.58516(23) 0.50974(15) 0.88698(15)
N8_22 N 0.58040(18) 0.53791(12) 0.89074(13)
C21_22 C 0.56720(23) 0.54072(15) 0.93354(16)
N9_19 N 0.56183(18) 0.56761(12) 0.94121(14)
C22_22 C 0.55959(21) 0.51521(13) 0.96824(15)
N10_13 N 0.53795(22) 0.72433(12) 0.97599(13)
I1_20 I 0.005307(19) 0.120714(19) 0.35881(2)
N1_20 N 0.01588(11) 0.21040(13) 0.34557(13)
C1_20 C 0.04636(15) 0.22549(18) 0.37064(18)
H1_20 H 0.0491 0.2120 0.3947
C2_20 C 0.07287(16) 0.25859(17) 0.36322(18)
H2_20 H 0.0935 0.2684 0.3821
C3_20 C 0.06905(14) 0.27796(17) 0.32711(16)
C4_20 C 0.03821(14) 0.26355(16) 0.30223(16)
H3_20 H 0.0349 0.2765 0.2779
C5_20 C 0.01175(15) 0.22955(18) 0.31325(17)
N2_15 N 0.27567(12) 0.46205(13) 0.47599(13)
C6_23 C 0.27845(15) 0.47747(18) 0.43374(17)
H5_23 H 0.2979 0.5003 0.4285
C7_23 C 0.25455(15) 0.46197(16) 0.39813(17)
H6_23 H 0.2576 0.4736 0.3687
C8_23 C 0.22566(14) 0.42891(16) 0.40563(16)
C9_23 C 0.22355(17) 0.41199(17) 0.44835(18)
H7_23 H 0.2049 0.3888 0.4539
C10_23 C 0.24840(16) 0.42919(18) 0.48192(18)
H8_23 H 0.2465 0.4176 0.5110
C11_23 C 0.1402(2) 0.4308(2) 0.0984(2)
H9_23 H 0.1218 0.4208 0.0758
C12_23 C 0.13570(17) 0.41317(18) 0.14033(19)
H10_23 H 0.1146 0.3916 0.1457
C13_23 C 0.16042(15) 0.42603(17) 0.17351(16)
C14_23 C 0.1911(2) 0.4565(3) 0.1630(2)
H11_23 H 0.2100 0.4662 0.1848
C15_23 C 0.1938(2) 0.4730(3) 0.1192(2)
H12_23 H 0.2148 0.4941 0.1121
C16_20 C 0.09889(13) 0.31407(15) 0.31722(16)
N4_20 N 0.12227(12) 0.32848(13) 0.35310(13)
C17_23 C 0.14891(13) 0.36123(15) 0.34518(15)
N5_23 N 0.17329(11) 0.37786(13) 0.37931(13)
C18_23 C 0.19813(14) 0.41032(17) 0.36814(16)
N6_23 N 0.20329(12) 0.42900(13) 0.32833(14)
C19_23 C 0.17916(14) 0.41184(17) 0.29419(15)
N7_23 N 0.18175(12) 0.42768(14) 0.25171(13)
C20_23 C 0.15692(15) 0.40875(17) 0.22032(15)
N8_23 N 0.12875(12) 0.37582(14) 0.22408(13)
C21_23 C 0.12594(15) 0.35981(17) 0.26688(16)
N9_20 N 0.09905(12) 0.32755(13) 0.27455(14)
C22_23 C 0.15145(13) 0.37771(16) 0.30158(15)
Zn3_15 Zn 0.312232(17) 0.486061(25) 0.526433(19)
H4_22 H 0.9900 0.2200 0.2969
N10_14 N 0.94234(12) 0.14696(18) 0.30932(13)
I1_21 I 0.879286(19) 0.884594(27) 0.35881(2)
N1_21 N 0.78960(13) 0.80549(17) 0.34557(13)
C1_21 C 0.77451(18) 0.82088(23) 0.37064(18)
H1_21 H 0.7880 0.8372 0.3947
C2_21 C 0.74141(17) 0.81429(23) 0.36322(18)
H2_21 H 0.7316 0.8252 0.3821
C3_21 C 0.72204(17) 0.79110(22) 0.32711(16)
C4_21 C 0.73645(16) 0.77467(21) 0.30223(16)
H3_21 H 0.7235 0.7585 0.2779
C5_21 C 0.77045(18) 0.78221(23) 0.31325(17)
H4_23 H 0.7800 0.7701 0.2969
N2_16 N 0.53795(13) 0.81363(18) 0.47599(13)
C6_24 C 0.52253(18) 0.80099(23) 0.43374(17)
H5_24 H 0.4997 0.7977 0.4285
C7_24 C 0.53803(16) 0.79259(22) 0.39813(17)
H6_24 H 0.5264 0.7841 0.3687
C8_24 C 0.57109(16) 0.79676(21) 0.40563(16)
C9_24 C 0.58801(17) 0.81157(24) 0.44835(18)
H7_24 H 0.6112 0.8162 0.4539
C10_24 C 0.57081(18) 0.81922(24) 0.48192(18)
H8_24 H 0.5824 0.8290 0.5110
C11_24 C 0.5692(2) 0.7095(3) 0.0984(2)
H9_24 H 0.5792 0.7011 0.0758
C12_24 C 0.58683(18) 0.72254(25) 0.14033(19)
H10_24 H 0.6084 0.7231 0.1457
C13_24 C 0.57397(17) 0.73440(23) 0.17351(16)
C14_24 C 0.5435(3) 0.7347(4) 0.1630(2)
H11_24 H 0.5338 0.7439 0.1848
C15_24 C 0.5270(3) 0.7209(4) 0.1192(2)
H12_24 H 0.5059 0.7208 0.1121
C16_21 C 0.68593(15) 0.78483(20) 0.31722(16)
N4_21 N 0.67152(13) 0.79380(18) 0.35310(13)
C17_24 C 0.63877(15) 0.78769(20) 0.34518(15)
N5_24 N 0.62214(13) 0.79544(17) 0.37931(13)
C18_24 C 0.58968(17) 0.78782(22) 0.36814(16)
N6_24 N 0.57100(13) 0.77430(18) 0.32833(14)
C19_24 C 0.58816(17) 0.76733(22) 0.29419(15)
N7_24 N 0.57232(14) 0.75408(18) 0.25171(13)
C20_24 C 0.59125(17) 0.74818(23) 0.22032(15)
N8_24 N 0.62418(14) 0.75294(18) 0.22408(13)
C21_24 C 0.64019(17) 0.76614(23) 0.26688(16)
N9_21 N 0.67245(13) 0.77151(18) 0.27455(14)
C22_24 C 0.62229(16) 0.77375(21) 0.30158(15)
Zn3_16 Zn 0.513939(25) 0.826170(30) 0.526433(19)
N10_15 N 0.85304(18) 0.79538(22) 0.30932(13)
H4_24 H 0.2299 0.0100 0.2969
N10_16 N 0.20462(22) 0.05766(12) 0.30932(13)
I1_22 I 0.545953(19) 0.328026(19) 0.19214(2)
N1_22 N 0.45627(13) 0.31745(11) 0.17890(13)
C1_22 C 0.44118(18) 0.28697(15) 0.20397(18)
H1_22 H 0.4547 0.2842 0.2280
C2_22 C 0.40808(17) 0.26046(16) 0.19655(18)
H2_22 H 0.3983 0.2398 0.2154
C3_22 C 0.38871(17) 0.26428(14) 0.16044(16)
C4_22 C 0.40312(16) 0.29512(14) 0.13556(16)
H3_22 H 0.3902 0.2984 0.1112
C5_22 C 0.43712(18) 0.32158(15) 0.14658(17)
H4_25 H 0.4467 0.3433 0.1302
C6_25 C 0.18920(18) 0.05488(15) 0.26707(17)
H5_25 H 0.1664 0.0354 0.2618
C7_25 C 0.20470(16) 0.07878(15) 0.23146(17)
H6_25 H 0.1931 0.0757 0.2020
C8_25 C 0.23776(16) 0.10767(14) 0.23896(16)
C9_25 C 0.25468(17) 0.10978(17) 0.28168(18)
H7_25 H 0.2779 0.1284 0.2872
C10_25 C 0.23748(18) 0.08493(16) 0.31525(18)
H8_25 H 0.2491 0.0868 0.3443
C13_25 C 0.24064(17) 0.17291(15) 0.00684(16)
H11_25 H 0.2005 0.1233 0.0181
C16_22 C 0.35260(15) 0.23444(13) 0.15055(16)
N4_22 N 0.33819(13) 0.21106(12) 0.18643(13)
C17_25 C 0.30544(15) 0.18442(13) 0.17851(15)
N5_25 N 0.28881(13) 0.16004(11) 0.21264(13)
C18_25 C 0.25635(17) 0.13520(14) 0.20147(16)
N6_25 N 0.23767(13) 0.13004(12) 0.16166(14)
C19_25 C 0.25483(17) 0.15417(14) 0.12752(15)
N7_25 N 0.23899(14) 0.15158(12) 0.08504(13)
C20_25 C 0.25792(17) 0.17641(15) 0.05365(15)
N8_25 N 0.29085(14) 0.20458(12) 0.05741(13)
C21_25 C 0.30686(17) 0.20739(15) 0.10021(16)
N9_22 N 0.33912(13) 0.23428(12) 0.10788(14)
C22_25 C 0.28896(16) 0.18188(13) 0.13491(15)
N11_14 N 0.50187(13) 0.37491(20) 0.25444(13)
N3_12 N 0.20638(15) 0.16480(13) 0.92111(13)
C11_25 C 0.2359(2) 0.1931(2) 0.9317(2)
H9_25 H 0.2459 0.2115 0.9091
C12_25 C 0.25350(18) 0.19763(17) 0.97366(19)
H10_25 H 0.2751 0.2187 0.9790
C14_25 C 0.2102(3) 0.1422(2) 0.9963(2)
C15_25 C 0.1937(3) 0.1395(2) 0.9525(2)
H12_25 H 0.1726 0.1185 0.9454
I1_23 I 0.671974(19) 0.217927(27) 0.19214(2)
N1_23 N 0.68255(11) 0.13882(17) 0.17890(13)
C1_23 C 0.71303(15) 0.15421(23) 0.20397(18)
H1_23 H 0.7158 0.1705 0.2280
C2_23 C 0.73954(16) 0.14762(23) 0.19655(18)
H2_23 H 0.7602 0.1585 0.2154
C3_23 C 0.73572(14) 0.12443(22) 0.16044(16)
C4_23 C 0.70488(14) 0.10800(21) 0.13556(16)
H3_23 H 0.7016 0.0918 0.1112
C5_23 C 0.67842(15) 0.11554(23) 0.14658(17)
H4_26 H 0.6567 0.1034 0.1302
C6_26 C 0.94512(15) 0.13432(23) 0.26707(17)
H5_26 H 0.9646 0.1310 0.2618
C7_26 C 0.92122(15) 0.12592(22) 0.23146(17)
H6_26 H 0.9243 0.1174 0.2020
C8_26 C 0.89233(14) 0.13009(21) 0.23896(16)
C9_26 C 0.89022(17) 0.14490(24) 0.28168(18)
H7_26 H 0.8716 0.1495 0.2872
C10_26 C 0.91507(16) 0.15255(24) 0.31525(18)
H8_26 H 0.9132 0.1623 0.3443
C13_26 C 0.82709(15) 0.06773(23) 0.00684(16)
H11_26 H 0.8767 0.0772 0.0181
C16_23 C 0.76556(13) 0.11816(20) 0.15055(16)
N4_23 N 0.78894(12) 0.12713(18) 0.18643(13)
C17_26 C 0.81558(13) 0.12102(20) 0.17851(15)
N5_26 N 0.83996(11) 0.12877(17) 0.21264(13)
C18_26 C 0.86480(14) 0.12115(22) 0.20147(16)
N6_26 N 0.86996(12) 0.10763(18) 0.16166(14)
C19_26 C 0.84583(14) 0.10066(22) 0.12752(15)
N7_26 N 0.84842(12) 0.08741(18) 0.08504(13)
C20_26 C 0.82359(15) 0.08151(23) 0.05365(15)
N8_26 N 0.79542(12) 0.08627(18) 0.05741(13)
C21_26 C 0.79261(15) 0.09947(23) 0.10021(16)
N9_23 N 0.76572(12) 0.10484(18) 0.10788(14)
C22_26 C 0.81812(13) 0.10708(21) 0.13491(15)
N11_15 N 0.62509(20) 0.12695(24) 0.25444(13)
N3_13 N 0.83520(13) 0.04158(20) 0.92111(13)
C11_26 C 0.8069(2) 0.0428(3) 0.9317(2)
H9_26 H 0.7885 0.0344 0.9091
C12_26 C 0.80237(17) 0.05587(25) 0.97366(19)
H10_26 H 0.7813 0.0564 0.9790
C14_26 C 0.8578(2) 0.0680(4) 0.9963(2)
C15_26 C 0.8605(2) 0.0542(4) 0.9525(2)
H12_26 H 0.8815 0.0541 0.9454
I1_24 I 0.782073(27) 0.454047(19) 0.19214(2)
N1_24 N 0.86118(17) 0.54373(13) 0.17890(13)
C1_24 C 0.84579(23) 0.55882(18) 0.20397(18)
H1_24 H 0.8295 0.5453 0.2280
C2_24 C 0.85238(23) 0.59192(17) 0.19655(18)
H2_24 H 0.8415 0.6017 0.2154
C3_24 C 0.87557(22) 0.61129(17) 0.16044(16)
C4_24 C 0.89200(21) 0.59688(16) 0.13556(16)
H3_24 H 0.9082 0.6098 0.1112
C5_24 C 0.88446(23) 0.56288(18) 0.14658(17)
H4_27 H 0.8966 0.5533 0.1302
C6_27 C 0.86568(23) 0.81080(18) 0.26707(17)
H5_27 H 0.8690 0.8336 0.2618
C7_27 C 0.87408(22) 0.79530(16) 0.23146(17)
H6_27 H 0.8826 0.8069 0.2020
C8_27 C 0.86991(21) 0.76224(16) 0.23896(16)
C9_27 C 0.85510(24) 0.74532(17) 0.28168(18)
H7_27 H 0.8505 0.7221 0.2872
C10_27 C 0.84745(24) 0.76252(18) 0.31525(18)
H8_27 H 0.8377 0.7509 0.3443
C13_27 C 0.93227(23) 0.75936(17) 0.00684(16)
H11_27 H 0.9228 0.7995 0.0181
C16_24 C 0.88184(20) 0.64740(15) 0.15055(16)
N4_24 N 0.87287(18) 0.66181(13) 0.18643(13)
C17_27 C 0.87898(20) 0.69456(15) 0.17851(15)
N5_27 N 0.87123(17) 0.71119(13) 0.21264(13)
C18_27 C 0.87885(22) 0.74365(17) 0.20147(16)
N6_27 N 0.89237(18) 0.76233(13) 0.16166(14)
C19_27 C 0.89934(22) 0.74517(17) 0.12752(15)
N7_27 N 0.91259(18) 0.76101(14) 0.08504(13)
C20_27 C 0.91849(23) 0.74208(17) 0.05365(15)
N8_27 N 0.91373(18) 0.70915(14) 0.05741(13)
C21_27 C 0.90053(23) 0.69314(17) 0.10021(16)
N9_24 N 0.89516(18) 0.66088(13) 0.10788(14)
C22_27 C 0.89292(21) 0.71104(16) 0.13491(15)
N11_16 N 0.87305(24) 0.49813(13) 0.25444(13)
N3_14 N 0.95842(20) 0.79362(15) 0.92111(13)
C11_27 C 0.9572(3) 0.7641(2) 0.9317(2)
H9_27 H 0.9656 0.7541 0.9091
C12_27 C 0.94413(25) 0.74650(18) 0.97366(19)
H10_27 H 0.9436 0.7249 0.9790
C14_27 C 0.9320(4) 0.7898(3) 0.9963(2)
C15_27 C 0.9458(4) 0.8063(3) 0.9525(2)
H12_27 H 0.9459 0.8274 0.9454
H4_28 H 0.7800 0.0100 0.7969
H8_28 H 0.5824 0.7535 0.0110
I1_25 I 0.879286(19) 0.994693(19) 0.85881(2)
N1_25 N 0.78960(13) 0.98412(11) 0.84557(13)
C1_25 C 0.77451(18) 0.95364(15) 0.87064(18)
H1_25 H 0.7880 0.9509 0.8947
C2_25 C 0.74141(17) 0.92713(16) 0.86322(18)
H2_25 H 0.7316 0.9065 0.8821
C3_25 C 0.72204(17) 0.93095(14) 0.82711(16)
C4_25 C 0.73645(16) 0.96179(14) 0.80223(16)
H3_25 H 0.7235 0.9651 0.7779
C5_25 C 0.77045(18) 0.98825(15) 0.81325(17)
C6_28 C 0.52253(18) 0.72155(15) 0.93374(17)
H5_28 H 0.4997 0.7021 0.9285
C7_28 C 0.53803(16) 0.74545(15) 0.89813(17)
H6_28 H 0.5264 0.7424 0.8687
C8_28 C 0.57109(16) 0.77434(14) 0.90563(16)
C9_28 C 0.58801(17) 0.77645(17) 0.94835(18)
H7_28 H 0.6112 0.7951 0.9539
C10_28 C 0.57081(18) 0.75160(16) 0.98192(18)
N3_15 N 0.53971(15) 0.83147(13) 0.58778(13)
C11_28 C 0.5692(2) 0.8598(2) 0.5984(2)
H9_28 H 0.5792 0.8782 0.5758
C12_28 C 0.58683(18) 0.86430(17) 0.64033(19)
H10_28 H 0.6084 0.8854 0.6457
C13_28 C 0.57397(17) 0.83958(15) 0.67351(16)
C14_28 C 0.5435(3) 0.8089(2) 0.6630(2)
H11_28 H 0.5338 0.7900 0.6848
C15_28 C 0.5270(3) 0.8062(2) 0.6192(2)
H12_28 H 0.5059 0.7852 0.6121
C16_25 C 0.68593(15) 0.90111(13) 0.81722(16)
N4_25 N 0.67152(13) 0.87773(12) 0.85310(13)
C17_28 C 0.63877(15) 0.85109(13) 0.84518(15)
N5_28 N 0.62214(13) 0.82671(11) 0.87931(13)
C18_28 C 0.58968(17) 0.80187(14) 0.86814(16)
N6_28 N 0.57100(13) 0.79671(12) 0.82833(14)
C19_28 C 0.58816(17) 0.82084(14) 0.79419(15)
N7_28 N 0.57232(14) 0.81825(12) 0.75171(13)
C20_28 C 0.59125(17) 0.84308(15) 0.72032(15)
N8_28 N 0.62418(14) 0.87125(12) 0.72408(13)
C21_28 C 0.64019(17) 0.87406(15) 0.76688(16)
N9_25 N 0.67245(13) 0.90095(12) 0.77455(14)
C22_28 C 0.62229(16) 0.84855(13) 0.80158(15)
H4_29 H 0.9900 0.7701 0.7969
H8_29 H 0.1710 0.4176 0.0110
I1_26 I 0.115406(27) 0.120714(19) 0.85881(2)
N1_26 N 0.19451(17) 0.21040(13) 0.84557(13)
C1_26 C 0.17912(23) 0.22549(18) 0.87064(18)
H1_26 H 0.1628 0.2120 0.8947
C2_26 C 0.18571(23) 0.25859(17) 0.86322(18)
H2_26 H 0.1748 0.2684 0.8821
C3_26 C 0.20890(22) 0.27796(17) 0.82711(16)
C4_26 C 0.22533(21) 0.26355(16) 0.80223(16)
H3_26 H 0.2415 0.2765 0.7779
C5_26 C 0.21779(23) 0.22955(18) 0.81325(17)
H4_30 H 0.2299 0.2200 0.7969
C6_29 C 0.19901(23) 0.47747(18) 0.93374(17)
H5_29 H 0.2023 0.5003 0.9285
C7_29 C 0.20741(22) 0.46197(16) 0.89813(17)
H6_29 H 0.2159 0.4736 0.8687
C8_29 C 0.20324(21) 0.42891(16) 0.90563(16)
C9_29 C 0.18843(24) 0.41199(17) 0.94835(18)
H7_29 H 0.1838 0.3888 0.9539
C10_29 C 0.18078(24) 0.42919(18) 0.98192(18)
N3_16 N 0.29175(20) 0.46029(15) 0.58778(13)
C11_29 C 0.2905(3) 0.4308(2) 0.5984(2)
H9_29 H 0.2989 0.4208 0.5758
C12_29 C 0.27746(25) 0.41317(18) 0.64033(19)
H10_29 H 0.2769 0.3916 0.6457
C13_29 C 0.26560(23) 0.42603(17) 0.67351(16)
C14_29 C 0.2653(4) 0.4565(3) 0.6630(2)
H11_29 H 0.2561 0.4662 0.6848
C15_29 C 0.2791(4) 0.4730(3) 0.6192(2)
H12_29 H 0.2792 0.4941 0.6121
C16_26 C 0.21517(20) 0.31407(15) 0.81722(16)
N4_26 N 0.20620(18) 0.32848(13) 0.85310(13)
C17_29 C 0.21231(20) 0.36123(15) 0.84518(15)
N5_29 N 0.20456(17) 0.37786(13) 0.87931(13)
C18_29 C 0.21218(22) 0.41032(17) 0.86814(16)
N6_29 N 0.22570(18) 0.42900(13) 0.82833(14)
C19_29 C 0.23267(22) 0.41184(17) 0.79419(15)
N7_29 N 0.24592(18) 0.42768(14) 0.75171(13)
C20_29 C 0.25182(23) 0.40875(17) 0.72032(15)
N8_29 N 0.24706(18) 0.37582(14) 0.72408(13)
C21_29 C 0.23386(23) 0.35981(17) 0.76688(16)
N9_26 N 0.22849(18) 0.32755(13) 0.77455(14)
C22_29 C 0.22625(21) 0.37771(16) 0.80158(15)
C6_30 C 0.85587(18) 0.38821(15) 0.60040(17)
H5_30 H 0.8331 0.3687 0.5951
C7_30 C 0.87137(16) 0.41211(15) 0.56479(17)
H6_30 H 0.8598 0.4090 0.5353
C8_30 C 0.90443(16) 0.44100(14) 0.57229(16)
C9_30 C 0.92135(17) 0.44311(17) 0.61501(18)
H7_30 H 0.9446 0.4617 0.6205
C10_30 C 0.90415(18) 0.41826(16) 0.64858(18)
H8_30 H 0.9158 0.4201 0.6776
C11_30 C 0.9026(2) 0.5264(2) 0.2650(2)
H9_30 H 0.9126 0.5448 0.2424
C12_30 C 0.92017(18) 0.53096(17) 0.30699(19)
H10_30 H 0.9418 0.5520 0.3123
C13_30 C 0.90731(17) 0.50624(15) 0.34017(16)
C14_30 C 0.8769(3) 0.4755(2) 0.3296(2)
H11_30 H 0.8672 0.4566 0.3514
C15_30 C 0.8604(3) 0.4728(2) 0.2858(2)
H12_30 H 0.8393 0.4518 0.2787
C17_30 C 0.97211(15) 0.51775(13) 0.51184(15)
N5_30 N 0.95548(13) 0.49337(11) 0.54597(13)
C18_30 C 0.92302(17) 0.46853(14) 0.53480(16)
N6_30 N 0.90434(13) 0.46337(12) 0.49499(14)
C19_30 C 0.92150(17) 0.48750(14) 0.46085(15)
N7_30 N 0.90566(14) 0.48491(12) 0.41837(13)
C20_30 C 0.92459(17) 0.50974(15) 0.38698(15)
N8_30 N 0.95752(14) 0.53791(12) 0.39074(13)
C21_30 C 0.97353(17) 0.54072(15) 0.43354(16)
C22_30 C 0.95563(16) 0.51521(13) 0.46824(15)
I1_27 I 0.338641(19) 0.551260(27) 0.52547(2)
N1_27 N 0.34922(11) 0.47215(17) 0.51223(13)
C1_27 C 0.37970(15) 0.48754(23) 0.53730(18)
H1_27 H 0.3825 0.5038 0.5613
C2_27 C 0.40621(16) 0.48095(23) 0.52988(18)
H2_27 H 0.4269 0.4918 0.5487
C3_27 C 0.40239(14) 0.45776(22) 0.49377(16)
C4_27 C 0.37155(14) 0.44133(21) 0.46889(16)
H3_27 H 0.3683 0.4251 0.4445
C5_27 C 0.34509(15) 0.44887(23) 0.47991(17)
H4_31 H 0.3234 0.4367 0.4635
C6_31 C 0.61179(15) 0.46765(23) 0.60040(17)
H5_31 H 0.6313 0.4643 0.5951
C7_31 C 0.58789(15) 0.45925(22) 0.56479(17)
H6_31 H 0.5910 0.4507 0.5353
C8_31 C 0.55900(14) 0.46342(21) 0.57229(16)
C9_31 C 0.55689(17) 0.47823(24) 0.61501(18)
H7_31 H 0.5383 0.4828 0.6205
C10_31 C 0.58174(16) 0.48588(24) 0.64858(18)
H8_31 H 0.5799 0.4956 0.6776
C11_31 C 0.4736(2) 0.3761(3) 0.2650(2)
H9_31 H 0.4552 0.3677 0.2424
C12_31 C 0.46904(17) 0.38920(25) 0.30699(19)
H10_31 H 0.4480 0.3897 0.3123
C13_31 C 0.49376(15) 0.40106(23) 0.34017(16)
C14_31 C 0.5245(2) 0.4013(4) 0.3296(2)
H11_31 H 0.5434 0.4105 0.3514
C15_31 C 0.5272(2) 0.3875(4) 0.2858(2)
H12_31 H 0.5482 0.3874 0.2787
C16_27 C 0.43223(13) 0.45149(20) 0.48388(16)
N4_27 N 0.45561(12) 0.46046(18) 0.51976(13)
C17_31 C 0.48225(13) 0.45435(20) 0.51184(15)
N5_31 N 0.50663(11) 0.46210(17) 0.54597(13)
C18_31 C 0.53147(14) 0.45448(22) 0.53480(16)
N6_31 N 0.53663(12) 0.44096(18) 0.49499(14)
C19_31 C 0.51250(14) 0.43399(22) 0.46085(15)
N7_31 N 0.51509(12) 0.42074(18) 0.41837(13)
C20_31 C 0.49026(15) 0.41484(23) 0.38698(15)
N8_31 N 0.46209(12) 0.41960(18) 0.39074(13)
C21_31 C 0.45928(15) 0.43280(23) 0.43354(16)
N9_27 N 0.43239(12) 0.43817(18) 0.44121(14)
C22_31 C 0.48479(13) 0.44041(21) 0.46824(15)
C6_32 C 0.53235(23) 0.14413(18) 0.60040(17)
H5_32 H 0.5357 0.1669 0.5951
C7_32 C 0.54075(22) 0.12863(16) 0.56479(17)
H6_32 H 0.5493 0.1402 0.5353
C8_32 C 0.53658(21) 0.09557(16) 0.57229(16)
C9_32 C 0.52177(24) 0.07865(17) 0.61501(18)
H7_32 H 0.5172 0.0554 0.6205
C10_32 C 0.51412(24) 0.09585(18) 0.64858(18)
H8_32 H 0.5044 0.0842 0.6776
C11_32 C 0.6239(3) 0.0974(2) 0.2650(2)
H9_32 H 0.6323 0.0874 0.2424
C12_32 C 0.61080(25) 0.07983(18) 0.30699(19)
H10_32 H 0.6103 0.0582 0.3123
C13_32 C 0.59894(23) 0.09269(17) 0.34017(16)
C14_32 C 0.5987(4) 0.1231(3) 0.3296(2)
H11_32 H 0.5895 0.1328 0.3514
C15_32 C 0.6125(4) 0.1396(3) 0.2858(2)
H12_32 H 0.6126 0.1607 0.2787
C17_32 C 0.54565(20) 0.02789(15) 0.51184(15)
N5_32 N 0.53790(17) 0.04452(13) 0.54597(13)
C18_32 C 0.54552(22) 0.07698(17) 0.53480(16)
N6_32 N 0.55904(18) 0.09566(13) 0.49499(14)
C19_32 C 0.56601(22) 0.07850(17) 0.46085(15)
N7_32 N 0.57926(18) 0.09434(14) 0.41837(13)
C20_32 C 0.58516(23) 0.07541(17) 0.38698(15)
N8_32 N 0.58040(18) 0.04248(14) 0.39074(13)
C21_32 C 0.56720(23) 0.02647(17) 0.43354(16)
C22_32 C 0.55959(21) 0.04437(16) 0.46824(15)
I1_28 I 0.448740(27) 0.787380(19) 0.52547(2)
N1_28 N 0.52785(17) 0.87706(13) 0.51223(13)
C1_28 C 0.51246(23) 0.89215(18) 0.53730(18)
H1_28 H 0.4962 0.8786 0.5613
C2_28 C 0.51905(23) 0.92525(17) 0.52988(18)
H2_28 H 0.5082 0.9350 0.5487
C3_28 C 0.54224(22) 0.94462(17) 0.49377(16)
C4_28 C 0.55867(21) 0.93021(16) 0.46889(16)
H3_28 H 0.5749 0.9431 0.4445
C5_28 C 0.55113(23) 0.89621(18) 0.47991(17)
H4_32 H 0.5633 0.8866 0.4635
C16_28 C 0.54851(20) 0.98073(15) 0.48388(16)
N4_28 N 0.53954(18) 0.99514(13) 0.51976(13)
N9_28 N 0.56183(18) 0.99421(13) 0.44121(14)
I1_29 I 0.994693(19) 0.115406(27) 0.14119(2)
N1_29 N 0.98412(11) 0.19451(17) 0.15443(13)
C1_29 C 0.95364(15) 0.17912(23) 0.12936(18)
H1_29 H 0.9509 0.1628 0.1053
C2_29 C 0.92713(16) 0.18571(23) 0.13678(18)
H2_29 H 0.9065 0.1748 0.1179
C3_29 C 0.93095(14) 0.20890(22) 0.17289(16)
C4_29 C 0.96179(14) 0.22533(21) 0.19777(16)
H3_29 H 0.9651 0.2415 0.2221
C5_29 C 0.98825(15) 0.21779(23) 0.18675(17)
N2_17 N 0.72433(12) 0.18637(18) 0.02401(13)
C6_33 C 0.72155(15) 0.19901(23) 0.06626(17)
H5_33 H 0.7021 0.2023 0.0715
C7_33 C 0.74545(15) 0.20741(22) 0.10187(17)
H6_33 H 0.7424 0.2159 0.1313
C8_33 C 0.77434(14) 0.20324(21) 0.09437(16)
C9_33 C 0.77645(17) 0.18843(24) 0.05165(18)
H7_33 H 0.7951 0.1838 0.0461
C10_33 C 0.75160(16) 0.18078(24) 0.01808(18)
N3_17 N 0.83147(13) 0.29175(20) 0.41222(13)
C11_33 C 0.8598(2) 0.2905(3) 0.4016(2)
H9_33 H 0.8782 0.2989 0.4242
C12_33 C 0.86430(17) 0.27746(25) 0.35967(19)
H10_33 H 0.8854 0.2769 0.3543
C13_33 C 0.83958(15) 0.26560(23) 0.32649(16)
C14_33 C 0.8089(2) 0.2653(4) 0.3370(2)
H11_33 H 0.7900 0.2561 0.3152
C15_33 C 0.8062(2) 0.2791(4) 0.3808(2)
H12_33 H 0.7852 0.2792 0.3879
C16_29 C 0.90111(13) 0.21517(20) 0.18278(16)
N4_29 N 0.87773(12) 0.20620(18) 0.14690(13)
C17_33 C 0.85109(13) 0.21231(20) 0.15482(15)
N5_33 N 0.82671(11) 0.20456(17) 0.12069(13)
C18_33 C 0.80187(14) 0.21218(22) 0.13186(16)
N6_33 N 0.79671(12) 0.22570(18) 0.17167(14)
C19_33 C 0.82084(14) 0.23267(22) 0.20581(15)
N7_33 N 0.81825(12) 0.24592(18) 0.24829(13)
C20_33 C 0.84308(15) 0.25182(23) 0.27968(15)
N8_33 N 0.87125(12) 0.24706(18) 0.27592(13)
C21_33 C 0.87406(15) 0.23386(23) 0.23312(16)
N9_29 N 0.90095(12) 0.22849(18) 0.22545(14)
C22_33 C 0.84855(13) 0.22625(21) 0.19842(15)
Zn2_9 Zn 0.826170(19) 0.312232(31) 0.473567(19)
H8_33 H 0.7535 0.1710 0.9890
Zn3_17 Zn 0.687768(17) 0.173830(30) 0.973567(19)
I1_30 I 0.787380(19) 0.338641(19) 0.47453(2)
N1_30 N 0.87706(13) 0.34922(11) 0.48777(13)
C1_30 C 0.89215(18) 0.37970(15) 0.46270(18)
H1_30 H 0.8786 0.3825 0.4387
C2_30 C 0.92525(17) 0.40621(16) 0.47012(18)
H2_30 H 0.9350 0.4269 0.4513
C3_30 C 0.94462(17) 0.40239(14) 0.50623(16)
C4_30 C 0.93021(16) 0.37155(14) 0.53111(16)
H3_30 H 0.9431 0.3683 0.5555
C5_30 C 0.89621(18) 0.34509(15) 0.52009(17)
H4_33 H 0.8866 0.3234 0.5365
C16_30 C 0.98073(15) 0.43223(13) 0.51612(16)
N4_30 N 0.99514(13) 0.45561(12) 0.48024(13)
N9_30 N 0.99421(13) 0.43239(12) 0.55879(14)
N10_17 N 0.81363(18) 0.27567(12) 0.52401(13)
C3_31 C 0.59761(14) 0.05538(17) 0.00623(16)
C4_31 C 0.62845(14) 0.06979(16) 0.03111(16)
H3_31 H 0.6317 0.0569 0.0555
C5_31 C 0.65491(15) 0.10379(18) 0.02009(17)
H4_34 H 0.6766 0.1134 0.0365
C16_31 C 0.56777(13) 0.01927(15) 0.01612(16)
N9_31 N 0.56761(12) 0.00579(13) 0.05879(14)
I1_31 I 0.661359(19) 0.212620(19) 0.97453(2)
N1_31 N 0.65078(11) 0.12294(13) 0.98777(13)
C1_31 C 0.62030(15) 0.10785(18) 0.96270(18)
H1_31 H 0.6175 0.1214 0.9387
C2_31 C 0.59379(16) 0.07475(17) 0.97012(18)
H2_31 H 0.5731 0.0650 0.9513
N4_31 N 0.54439(12) 0.00486(13) 0.98024(13)
N11_17 N 0.70825(20) 0.16853(13) 0.91222(13)
I1_32 I 0.884594(27) 0.005307(19) 0.64119(2)
N1_32 N 0.80549(17) 0.01588(11) 0.65443(13)
C1_32 C 0.82088(23) 0.04636(15) 0.62936(18)
H1_32 H 0.8372 0.0491 0.6053
C2_32 C 0.81429(23) 0.07287(16) 0.63678(18)
H2_32 H 0.8252 0.0935 0.6179
C3_32 C 0.79110(22) 0.06905(14) 0.67289(16)
C4_32 C 0.77467(21) 0.03821(14) 0.69777(16)
H3_32 H 0.7585 0.0349 0.7221
C5_32 C 0.78221(23) 0.01175(15) 0.68675(17)
C6_34 C 0.80099(23) 0.27845(15) 0.56626(17)
H5_34 H 0.7977 0.2979 0.5715
C7_34 C 0.79259(22) 0.25455(15) 0.60187(17)
H6_34 H 0.7841 0.2576 0.6313
C8_34 C 0.79676(21) 0.22566(14) 0.59437(16)
C9_34 C 0.81157(24) 0.22355(17) 0.55165(18)
H7_34 H 0.8162 0.2049 0.5461
C10_34 C 0.81922(24) 0.24840(16) 0.51808(18)
H8_34 H 0.8290 0.2465 0.4890
C11_34 C 0.7095(3) 0.1402(2) 0.9016(2)
H9_34 H 0.7011 0.1218 0.9242
C12_34 C 0.72254(25) 0.13570(17) 0.85967(19)
H10_34 H 0.7231 0.1146 0.8543
C13_34 C 0.73440(23) 0.16042(15) 0.82649(16)
C14_34 C 0.7347(4) 0.1911(2) 0.8370(2)
H11_34 H 0.7439 0.2100 0.8152
C15_34 C 0.7209(4) 0.1938(2) 0.8808(2)
H12_34 H 0.7208 0.2148 0.8879
C16_32 C 0.78483(20) 0.09889(13) 0.68278(16)
N4_32 N 0.79380(18) 0.12227(12) 0.64690(13)
C17_34 C 0.78769(20) 0.14891(13) 0.65482(15)
N5_34 N 0.79544(17) 0.17329(11) 0.62069(13)
C18_34 C 0.78782(22) 0.19813(14) 0.63186(16)
N6_34 N 0.77430(18) 0.20329(12) 0.67167(14)
C19_34 C 0.76733(22) 0.17916(14) 0.70581(15)
N7_34 N 0.75408(18) 0.18175(12) 0.74829(13)
C20_34 C 0.74818(23) 0.15692(15) 0.77968(15)
N8_34 N 0.75294(18) 0.12875(12) 0.77592(13)
C21_34 C 0.76614(23) 0.12594(15) 0.73312(16)
N9_32 N 0.77151(18) 0.09905(12) 0.72545(14)
C22_34 C 0.77375(21) 0.15145(13) 0.69842(15)
Zn1_9 Zn 0.312232(17) 0.826170(19) 0.026433(19)
I1_33 I 0.338641(19) 0.787380(19) 0.02547(2)
N1_33 N 0.34922(11) 0.87706(13) 0.01223(13)
C1_33 C 0.37970(15) 0.89215(18) 0.03730(18)
H1_33 H 0.3825 0.8786 0.0613
C2_33 C 0.40621(16) 0.92525(17) 0.02988(18)
H2_33 H 0.4269 0.9350 0.0487
N4_33 N 0.45561(12) 0.99514(13) 0.01976(13)
N11_18 N 0.29175(20) 0.83147(13) 0.08778(13)
C3_33 C 0.40239(14) 0.94462(17) 0.99377(16)
C4_33 C 0.37155(14) 0.93021(16) 0.96889(16)
H3_33 H 0.3683 0.9431 0.9445
C5_33 C 0.34509(15) 0.89621(18) 0.97991(17)
H4_35 H 0.3234 0.8866 0.9635
C16_33 C 0.43223(13) 0.98073(15) 0.98388(16)
N9_33 N 0.43239(12) 0.99421(13) 0.94121(14)
N10_18 N 0.27567(12) 0.81363(18) 0.97599(13)
I1_34 I 0.115406(27) 0.994693(19) 0.35881(2)
N1_34 N 0.19451(17) 0.98412(11) 0.34557(13)
C1_34 C 0.17912(23) 0.95364(15) 0.37064(18)
H1_34 H 0.1628 0.9509 0.3947
C2_34 C 0.18571(23) 0.92713(16) 0.36322(18)
H2_34 H 0.1748 0.9065 0.3821
C3_34 C 0.20890(22) 0.93095(14) 0.32711(16)
C4_34 C 0.22533(21) 0.96179(14) 0.30223(16)
H3_34 H 0.2415 0.9651 0.2779
C5_34 C 0.21779(23) 0.98825(15) 0.31325(17)
N2_18 N 0.18637(18) 0.72433(12) 0.47599(13)
C6_35 C 0.19901(23) 0.72155(15) 0.43374(17)
H5_35 H 0.2023 0.7021 0.4285
C7_35 C 0.20741(22) 0.74545(15) 0.39813(17)
H6_35 H 0.2159 0.7424 0.3687
C8_35 C 0.20324(21) 0.77434(14) 0.40563(16)
C9_35 C 0.18843(24) 0.77645(17) 0.44835(18)
H7_35 H 0.1838 0.7951 0.4539
C10_35 C 0.18078(24) 0.75160(16) 0.48192(18)
H8_35 H 0.1710 0.7535 0.5110
C11_35 C 0.2905(3) 0.8598(2) 0.0984(2)
H9_35 H 0.2989 0.8782 0.0758
C12_35 C 0.27746(25) 0.86430(17) 0.14033(19)
H10_35 H 0.2769 0.8854 0.1457
C13_35 C 0.26560(23) 0.83958(15) 0.17351(16)
C14_35 C 0.2653(4) 0.8089(2) 0.1630(2)
H11_35 H 0.2561 0.7900 0.1848
C15_35 C 0.2791(4) 0.8062(2) 0.1192(2)
H12_35 H 0.2792 0.7852 0.1121
C16_34 C 0.21517(20) 0.90111(13) 0.31722(16)
N4_34 N 0.20620(18) 0.87773(12) 0.35310(13)
C17_35 C 0.21231(20) 0.85109(13) 0.34518(15)
N5_35 N 0.20456(17) 0.82671(11) 0.37931(13)
C18_35 C 0.21218(22) 0.80187(14) 0.36814(16)
N6_35 N 0.22570(18) 0.79671(12) 0.32833(14)
C19_35 C 0.23267(22) 0.82084(14) 0.29419(15)
N7_35 N 0.24592(18) 0.81825(12) 0.25171(13)
C20_35 C 0.25182(23) 0.84308(15) 0.22032(15)
N8_35 N 0.24706(18) 0.87125(12) 0.22408(13)
C21_35 C 0.23386(23) 0.87406(15) 0.26688(16)
N9_34 N 0.22849(18) 0.90095(12) 0.27455(14)
C22_35 C 0.22625(21) 0.84855(13) 0.30158(15)
Zn3_18 Zn 0.173830(30) 0.687768(17) 0.526433(19)
H8_36 H 0.2465 0.8290 0.0110
I1_35 I 0.005307(19) 0.884594(27) 0.85881(2)
N1_35 N 0.01588(11) 0.80549(17) 0.84557(13)
C1_35 C 0.04636(15) 0.82088(23) 0.87064(18)
H1_35 H 0.0491 0.8372 0.8947
C2_35 C 0.07287(16) 0.81429(23) 0.86322(18)
H2_35 H 0.0935 0.8252 0.8821
C3_35 C 0.06905(14) 0.79110(22) 0.82711(16)
C4_35 C 0.03821(14) 0.77467(21) 0.80223(16)
H3_35 H 0.0349 0.7585 0.7779
C5_35 C 0.01175(15) 0.78221(23) 0.81325(17)
C6_36 C 0.27845(15) 0.80099(23) 0.93374(17)
H5_36 H 0.2979 0.7977 0.9285
C7_36 C 0.25455(15) 0.79259(22) 0.89813(17)
H6_36 H 0.2576 0.7841 0.8687
C8_36 C 0.22566(14) 0.79676(21) 0.90563(16)
C9_36 C 0.22355(17) 0.81157(24) 0.94835(18)
H7_36 H 0.2049 0.8162 0.9539
C10_36 C 0.24840(16) 0.81922(24) 0.98192(18)
N3_18 N 0.16853(13) 0.70825(20) 0.58778(13)
C11_36 C 0.1402(2) 0.7095(3) 0.5984(2)
H9_36 H 0.1218 0.7011 0.5758
C12_36 C 0.13570(17) 0.72254(25) 0.64033(19)
H10_36 H 0.1146 0.7231 0.6457
C13_36 C 0.16042(15) 0.73440(23) 0.67351(16)
C14_36 C 0.1911(2) 0.7347(4) 0.6630(2)
H11_36 H 0.2100 0.7439 0.6848
C15_36 C 0.1938(2) 0.7209(4) 0.6192(2)
H12_36 H 0.2148 0.7208 0.6121
C16_35 C 0.09889(13) 0.78483(20) 0.81722(16)
N4_35 N 0.12227(12) 0.79380(18) 0.85310(13)
C17_36 C 0.14891(13) 0.78769(20) 0.84518(15)
N5_36 N 0.17329(11) 0.79544(17) 0.87931(13)
C18_36 C 0.19813(14) 0.78782(22) 0.86814(16)
N6_36 N 0.20329(12) 0.77430(18) 0.82833(14)
C19_36 C 0.17916(14) 0.76733(22) 0.79419(15)
N7_36 N 0.18175(12) 0.75408(18) 0.75171(13)
C20_36 C 0.15692(15) 0.74818(23) 0.72032(15)
N8_36 N 0.12875(12) 0.75294(18) 0.72408(13)
C21_36 C 0.12594(15) 0.76614(23) 0.76688(16)
N9_35 N 0.09905(12) 0.77151(18) 0.77455(14)
C22_36 C 0.15145(13) 0.77375(21) 0.80158(15)
I1_36 I 0.212620(19) 0.661359(19) 0.52547(2)
N1_36 N 0.12294(13) 0.65078(11) 0.51223(13)
C1_36 C 0.10785(18) 0.62030(15) 0.53730(18)
H1_36 H 0.1214 0.6175 0.5613
C2_36 C 0.07475(17) 0.59379(16) 0.52988(18)
H2_36 H 0.0650 0.5731 0.5487
C3_36 C 0.05538(17) 0.59761(14) 0.49377(16)
C4_36 C 0.06979(16) 0.62845(14) 0.46889(16)
H3_36 H 0.0569 0.6317 0.4445
C5_36 C 0.10379(18) 0.65491(15) 0.47991(17)
H4_36 H 0.1134 0.6766 0.4635
C16_36 C 0.01927(15) 0.56777(13) 0.48388(16)
N4_36 N 0.00486(13) 0.54439(12) 0.51976(13)
N9_36 N 0.00579(13) 0.56761(12) 0.44121(14)
loop_
_geom_bond_atom_site_label_1
_geom_bond_atom_site_label_2
_geom_bond_site_symmetry_1
_geom_bond_site_symmetry_2
N3 C11 1_555 1_555
C11 H9 1_555 1_555
C12 C11 1_555 1_555
H10 C12 1_555 1_555
C15 N3 1_555 1_555
H12 C15 1_555 1_555
Zn2 N3 1_555 1_555
C14 C15 1_555 1_555
Zn1 I1 1_555 1_555
N1 Zn1 1_555 1_555
C1 N1 1_555 1_555
H1 C1 1_555 1_555
C2 C1 1_555 1_555
H2 C2 1_555 1_555
C3 C2 1_555 1_555
C4 C3 1_555 1_555
H3 C4 1_555 1_555
C5 N1 1_555 1_555
H4 C5 1_555 1_555
N2 C6 1_555 1_555
C6 H5 1_555 1_555
C7 C6 1_555 1_555
H6 C7 1_555 1_555
C8 C7 1_555 1_555
C9 C8 1_555 1_555
H7 C9 1_555 1_555
C10 N2 1_555 1_555
H8 C10 1_555 1_555
C16 C3 1_555 1_555
N4 C16 1_555 1_555
C17 N4 1_555 1_555
N5 C17 1_555 1_555
C18 C8 1_555 1_555
N6 C18 1_555 1_555
C19 N6 1_555 1_555
N7 C19 1_555 1_555
C20 C13 1_555 1_555
N8 C20 1_555 1_555
C21 N8 1_555 1_555
N9 C16 1_555 1_555
C22 C17 1_555 1_555
Zn3 N2 1_555 1_555
N10 Zn1 1_555 1_555
N11 Zn1 1_555 1_555
C4 C5 1_555 1_555
C9 C10 1_555 1_555
N5 C18 1_555 1_555
C19 C22 1_555 1_555
N7 C20 1_555 1_555
C21 N9 1_555 1_555
C21 C22 1_555 1_555
N3_2 C11_2 1_555 1_555
C11_2 H9_2 1_555 1_555
C12_2 C11_2 1_555 1_555
H10_2 C12_2 1_555 1_555
C15_2 N3_2 1_555 1_555
H12_2 C15_2 1_555 1_555
Zn2_2 N3_2 1_555 1_555
C14_2 C15_2 1_555 1_555
Zn1_2 I1_2 1_555 1_555
N1_2 Zn1_2 1_555 1_555
C1_2 N1_2 1_555 1_555
H1_2 C1_2 1_555 1_555
C2_2 C1_2 1_555 1_555
H2_2 C2_2 1_555 1_555
C3_2 C2_2 1_555 1_555
C4_2 C3_2 1_555 1_555
H3_2 C4_2 1_555 1_555
C5_2 N1_2 1_555 1_555
H4_2 C5_2 1_555 1_555
N2_2 C6_2 1_555 1_555
C6_2 H5_2 1_555 1_555
C7_2 C6_2 1_555 1_555
H6_2 C7_2 1_555 1_555
C8_2 C7_2 1_555 1_555
C9_2 C8_2 1_555 1_555
H7_2 C9_2 1_555 1_555
C10_2 N2_2 1_555 1_555
H8_2 C10_2 1_555 1_555
C16_2 C3_2 1_555 1_555
N4_2 C16_2 1_555 1_555
C17_2 N4_2 1_555 1_555
N5_2 C17_2 1_555 1_555
C18_2 C8_2 1_555 1_555
N6_2 C18_2 1_555 1_555
C19_2 N6_2 1_555 1_555
N7_2 C19_2 1_555 1_555
C20_2 C13_2 1_555 1_555
N8_2 C20_2 1_555 1_555
C21_2 N8_2 1_555 1_555
N9_2 C16_2 1_555 1_555
C22_2 C17_2 1_555 1_555
Zn3_2 N2_2 1_555 1_555
N10_2 Zn1_2 1_555 1_555
N11_2 Zn1_2 1_555 1_555
C4_2 C5_2 1_555 1_555
C9_2 C10_2 1_555 1_555
N5_2 C18_2 1_555 1_555
C19_2 C22_2 1_555 1_555
N7_2 C20_2 1_555 1_555
C21_2 N9_2 1_555 1_555
C21_2 C22_2 1_555 1_555
N3_3 C11_3 1_555 1_555
C11_3 H9_3 1_555 1_555
C12_3 C11_3 1_555 1_555
H10_3 C12_3 1_555 1_555
C15_3 N3_3 1_555 1_555
H12_3 C15_3 1_555 1_555
Zn2_3 N3_3 1_555 1_555
C14_3 C15_3 1_555 1_555
Zn1_3 I1_3 1_555 1_555
N1_3 Zn1_3 1_555 1_555
C1_3 N1_3 1_555 1_555
H1_3 C1_3 1_555 1_555
C2_3 C1_3 1_555 1_555
H2_3 C2_3 1_555 1_555
C3_3 C2_3 1_555 1_555
C4_3 C3_3 1_555 1_555
H3_3 C4_3 1_555 1_555
C5_3 N1_3 1_555 1_555
H4_3 C5_3 1_555 1_555
N2_3 C6_3 1_555 1_555
C6_3 H5_3 1_555 1_555
C7_3 C6_3 1_555 1_555
H6_3 C7_3 1_555 1_555
C8_3 C7_3 1_555 1_555
C9_3 C8_3 1_555 1_555
H7_3 C9_3 1_555 1_555
C10_3 N2_3 1_555 1_555
H8_3 C10_3 1_555 1_555
C16_3 C3_3 1_555 1_555
N4_3 C16_3 1_555 1_555
C17_3 N4_3 1_555 1_555
N5_3 C17_3 1_555 1_555
C18_3 C8_3 1_555 1_555
N6_3 C18_3 1_555 1_555
C19_3 N6_3 1_555 1_555
N7_3 C19_3 1_555 1_555
C20_3 C13_3 1_555 1_555
N8_3 C20_3 1_555 1_555
C21_3 N8_3 1_555 1_555
N9_3 C16_3 1_555 1_555
C22_3 C17_3 1_555 1_555
Zn3_3 N2_3 1_555 1_555
N10_3 Zn1_3 1_555 1_555
N11_3 Zn1_3 1_555 1_555
C4_3 C5_3 1_555 1_555
C9_3 C10_3 1_555 1_555
N5_3 C18_3 1_555 1_555
C19_3 C22_3 1_555 1_555
N7_3 C20_3 1_555 1_555
C21_3 N9_3 1_555 1_555
C21_3 C22_3 1_555 1_555
C1_4 N1_4 1_555 1_555
H1_4 C1_4 1_555 1_555
C2_4 C1_4 1_555 1_555
H2_4 C2_4 1_555 1_555
C3_4 C2_4 1_555 1_555
C4_4 C3_4 1_555 1_555
H3_4 C4_4 1_555 1_555
C5_4 N1_4 1_555 1_555
N2_4 C6_4 1_555 1_555
C6_4 H5_4 1_555 1_555
C7_4 C6_4 1_555 1_555
H6_4 C7_4 1_555 1_555
C8_4 C7_4 1_555 1_555
C9_4 C8_4 1_555 1_555
H7_4 C9_4 1_555 1_555
C10_4 N2_4 1_555 1_555
N3_4 C11_4 1_555 1_555
C11_4 H9_4 1_555 1_555
C12_4 C11_4 1_555 1_555
H10_4 C12_4 1_555 1_555
C13_4 C12_4 1_555 1_555
C14_4 C13_4 1_555 1_555
H11_4 C14_4 1_555 1_555
C15_4 N3_4 1_555 1_555
H12_4 C15_4 1_555 1_555
C16_4 C3_4 1_555 1_555
N4_4 C16_4 1_555 1_555
C17_4 N4_4 1_555 1_555
N5_4 C17_4 1_555 1_555
C18_4 C8_4 1_555 1_555
N6_4 C18_4 1_555 1_555
C19_4 N6_4 1_555 1_555
N7_4 C19_4 1_555 1_555
C20_4 C13_4 1_555 1_555
N8_4 C20_4 1_555 1_555
C21_4 N8_4 1_555 1_555
N9_4 C16_4 1_555 1_555
C22_4 C17_4 1_555 1_555
Zn2_4 N3_4 1_555 1_555
C4_4 C5_4 1_555 1_555
C9_4 C10_4 1_555 1_555
C14_4 C15_4 1_555 1_555
N5_4 C18_4 1_555 1_555
C19_4 C22_4 1_555 1_555
N7_4 C20_4 1_555 1_555
C21_4 N9_4 1_555 1_555
C21_4 C22_4 1_555 1_555
N10_4 Zn2_2 1_555 1_555
N10_5 Zn2_3 1_555 1_555
Zn2 I1_5 1_555 1_555
N1_5 Zn2 1_555 1_555
C1_5 N1_5 1_555 1_555
H1_5 C1_5 1_555 1_555
C2_5 C1_5 1_555 1_555
H2_5 C2_5 1_555 1_555
C3_5 C2_5 1_555 1_555
C4_5 C3_5 1_555 1_555
H3_5 C4_5 1_555 1_555
C5_5 N1_5 1_555 1_555
H4_6 C5_5 1_555 1_555
N2_5 C6_5 1_555 1_555
C6_5 H5_5 1_555 1_555
C7_5 C6_5 1_555 1_555
H6_5 C7_5 1_555 1_555
C8_5 C7_5 1_555 1_555
C9_5 C8_5 1_555 1_555
H7_5 C9_5 1_555 1_555
C10_5 N2_5 1_555 1_555
N3_5 C11_5 1_555 1_555
C11_5 H9_5 1_555 1_555
C12_5 C11_5 1_555 1_555
H10_5 C12_5 1_555 1_555
C13_5 C12_5 1_555 1_555
C14_5 C13_5 1_555 1_555
H11_5 C14_5 1_555 1_555
C15_5 N3_5 1_555 1_555
H12_5 C15_5 1_555 1_555
C16_5 C3_5 1_555 1_555
N4_5 C16_5 1_555 1_555
C17_5 N4_5 1_555 1_555
N5_5 C17_5 1_555 1_555
C18_5 C8_5 1_555 1_555
N6_5 C18_5 1_555 1_555
C19_5 N6_5 1_555 1_555
N7_5 C19_5 1_555 1_555
C20_5 C13_5 1_555 1_555
N8_5 C20_5 1_555 1_555
C21_5 N8_5 1_555 1_555
N9_5 C16_5 1_555 1_555
C22_5 C17_5 1_555 1_555
Zn2_5 N3_5 1_555 1_555
N10_6 Zn2 1_555 1_555
C4_5 C5_5 1_555 1_555
C9_5 C10_5 1_555 1_555
C14_5 C15_5 1_555 1_555
N5_5 C18_5 1_555 1_555
C19_5 C22_5 1_555 1_555
N7_5 C20_5 1_555 1_555
C21_5 N9_5 1_555 1_555
C21_5 C22_5 1_555 1_555
N2_6 C6_6 1_555 1_555
C6_6 H5_6 1_555 1_555
C7_6 C6_6 1_555 1_555
H6_6 C7_6 1_555 1_555
C8_6 C7_6 1_555 1_555
C9_6 C8_6 1_555 1_555
H7_6 C9_6 1_555 1_555
C10_6 N2_6 1_555 1_555
H8_6 C10_6 1_555 1_555
N11_3 C11_6 1_555 1_555
C11_6 H9_6 1_555 1_555
C12_6 C11_6 1_555 1_555
H10_6 C12_6 1_555 1_555
C13_6 C12_6 1_555 1_555
C14_6 C13_6 1_555 1_555
H11_6 C14_6 1_555 1_555
C15_6 N11_3 1_555 1_555
H12_6 C15_6 1_555 1_555
N5_6 C17_6 1_555 1_555
C18_6 C8_6 1_555 1_555
N6_6 C18_6 1_555 1_555
C19_6 N6_6 1_555 1_555
N7_6 C19_6 1_555 1_555
C20_6 C13_6 1_555 1_555
N8_6 C20_6 1_555 1_555
C21_6 N8_6 1_555 1_555
C22_6 C17_6 1_555 1_555
Zn3_6 N2_6 1_555 1_555
C9_6 C10_6 1_555 1_555
C14_6 C15_6 1_555 1_555
N5_6 C18_6 1_555 1_555
C19_6 C22_6 1_555 1_555
N7_6 C20_6 1_555 1_555
C21_6 C22_6 1_555 1_555
Zn2_5 I1_6 1_555 1_555
N1_6 Zn2_5 1_555 1_555
C1_6 N1_6 1_555 1_555
H1_6 C1_6 1_555 1_555
C2_6 C1_6 1_555 1_555
H2_6 C2_6 1_555 1_555
C3_6 C2_6 1_555 1_555
C4_6 C3_6 1_555 1_555
H3_6 C4_6 1_555 1_555
C5_6 N1_6 1_555 1_555
H4_7 C5_6 1_555 1_555
N2_7 C6_7 1_555 1_555
C6_7 H5_7 1_555 1_555
C7_7 C6_7 1_555 1_555
H6_7 C7_7 1_555 1_555
C8_7 C7_7 1_555 1_555
C9_7 C8_7 1_555 1_555
H7_7 C9_7 1_555 1_555
C10_7 N2_7 1_555 1_555
H8_7 C10_7 1_555 1_555
N11 C11_7 1_555 1_555
C11_7 H9_7 1_555 1_555
C12_7 C11_7 1_555 1_555
H10_7 C12_7 1_555 1_555
C13_7 C12_7 1_555 1_555
C14_7 C13_7 1_555 1_555
H11_7 C14_7 1_555 1_555
C15_7 N11 1_555 1_555
H12_7 C15_7 1_555 1_555
C16_6 C3_6 1_555 1_555
N4_6 C16_6 1_555 1_555
C17_7 N4_6 1_555 1_555
N5_7 C17_7 1_555 1_555
C18_7 C8_7 1_555 1_555
N6_7 C18_7 1_555 1_555
C19_7 N6_7 1_555 1_555
N7_7 C19_7 1_555 1_555
C20_7 C13_7 1_555 1_555
N8_7 C20_7 1_555 1_555
C21_7 N8_7 1_555 1_555
N9_6 C16_6 1_555 1_555
C22_7 C17_7 1_555 1_555
Zn3_7 N2_7 1_555 1_555
N10_7 Zn2_5 1_555 1_555
C4_6 C5_6 1_555 1_555
C9_7 C10_7 1_555 1_555
C14_7 C15_7 1_555 1_555
N5_7 C18_7 1_555 1_555
C19_7 C22_7 1_555 1_555
N7_7 C20_7 1_555 1_555
C21_7 N9_6 1_555 1_555
C21_7 C22_7 1_555 1_555
Zn2_4 I1_7 1_555 1_555
N1_7 Zn2_4 1_555 1_555
C1_7 N1_7 1_555 1_555
H1_7 C1_7 1_555 1_555
C2_7 C1_7 1_555 1_555
H2_7 C2_7 1_555 1_555
C3_7 C2_7 1_555 1_555
C4_7 C3_7 1_555 1_555
H3_7 C4_7 1_555 1_555
C5_7 N1_7 1_555 1_555
H4_8 C5_7 1_555 1_555
C16_7 C3_7 1_555 1_555
N4_7 C16_7 1_555 1_555
N9_7 C16_7 1_555 1_555
N10_8 Zn2_4 1_555 1_555
C4_7 C5_7 1_555 1_555
N2_8 C6_8 1_555 1_555
C6_8 H5_8 1_555 1_555
C7_8 C6_8 1_555 1_555
H6_8 C7_8 1_555 1_555
C8_8 C7_8 1_555 1_555
C9_8 C8_8 1_555 1_555
H7_8 C9_8 1_555 1_555
C10_8 N2_8 1_555 1_555
H8_8 C10_8 1_555 1_555
N11_2 C11_8 1_555 1_555
C11_8 H9_8 1_555 1_555
C12_8 C11_8 1_555 1_555
H10_8 C12_8 1_555 1_555
C13_8 C12_8 1_555 1_555
C14_8 C13_8 1_555 1_555
H11_8 C14_8 1_555 1_555
C15_8 N11_2 1_555 1_555
H12_8 C15_8 1_555 1_555
N5_8 C17_8 1_555 1_555
C18_8 C8_8 1_555 1_555
N6_8 C18_8 1_555 1_555
C19_8 N6_8 1_555 1_555
N7_8 C19_8 1_555 1_555
C20_8 C13_8 1_555 1_555
N8_8 C20_8 1_555 1_555
C21_8 N8_8 1_555 1_555
C22_8 C17_8 1_555 1_555
Zn3_8 N2_8 1_555 1_555
C9_8 C10_8 1_555 1_555
C14_8 C15_8 1_555 1_555
N5_8 C18_8 1_555 1_555
C19_8 C22_8 1_555 1_555
N7_8 C20_8 1_555 1_555
C21_8 C22_8 1_555 1_555
Zn3_7 I1_8 1_555 1_555
N1_8 Zn3_7 1_555 1_555
C1_8 N1_8 1_555 1_555
H1_8 C1_8 1_555 1_555
C2_8 C1_8 1_555 1_555
H2_8 C2_8 1_555 1_555
C3_8 C2_8 1_555 1_555
C4_8 C3_8 1_555 1_555
H3_8 C4_8 1_555 1_555
C5_8 N1_8 1_555 1_555
H4_9 C5_8 1_555 1_555
N10_5 C6_9 1_555 1_555
C6_9 H5_9 1_555 1_555
C7_9 C6_9 1_555 1_555
H6_9 C7_9 1_555 1_555
C8_9 C7_9 1_555 1_555
C9_9 C8_9 1_555 1_555
H7_9 C9_9 1_555 1_555
C10_9 N10_5 1_555 1_555
H8_9 C10_9 1_555 1_555
N3_6 C11_9 1_555 1_555
C11_9 H9_9 1_555 1_555
C12_9 C11_9 1_555 1_555
H10_9 C12_9 1_555 1_555
C13_9 C12_9 1_555 1_555
C14_9 C13_9 1_555 1_555
H11_9 C14_9 1_555 1_555
C15_9 N3_6 1_555 1_555
H12_9 C15_9 1_555 1_555
C16_8 C3_8 1_555 1_555
N4_8 C16_8 1_555 1_555
C17_9 N4_8 1_555 1_555
N5_9 C17_9 1_555 1_555
C18_9 C8_9 1_555 1_555
N6_9 C18_9 1_555 1_555
C19_9 N6_9 1_555 1_555
N7_9 C19_9 1_555 1_555
C20_9 C13_9 1_555 1_555
N8_9 C20_9 1_555 1_555
C21_9 N8_9 1_555 1_555
N9_8 C16_8 1_555 1_555
C22_9 C17_9 1_555 1_555
Zn3_3 N3_6 1_555 1_555
N11_4 Zn3_7 1_555 1_555
C4_8 C5_8 1_555 1_555
C9_9 C10_9 1_555 1_555
C14_9 C15_9 1_555 1_555
N5_9 C18_9 1_555 1_555
C19_9 C22_9 1_555 1_555
N7_9 C20_9 1_555 1_555
C21_9 N9_8 1_555 1_555
C21_9 C22_9 1_555 1_555
Zn3_8 I1_9 1_555 1_555
N1_9 Zn3_8 1_555 1_555
C1_9 N1_9 1_555 1_555
H1_9 C1_9 1_555 1_555
C2_9 C1_9 1_555 1_555
H2_9 C2_9 1_555 1_555
C3_9 C2_9 1_555 1_555
C4_9 C3_9 1_555 1_555
H3_9 C4_9 1_555 1_555
C5_9 N1_9 1_555 1_555
H4_10 C5_9 1_555 1_555
N10_6 C6_10 1_555 1_555
C6_10 H5_10 1_555 1_555
C7_10 C6_10 1_555 1_555
H6_10 C7_10 1_555 1_555
C8_10 C7_10 1_555 1_555
C9_10 C8_10 1_555 1_555
H7_10 C9_10 1_555 1_555
C10_10 N10_6 1_555 1_555
H8_10 C10_10 1_555 1_555
N3_7 C11_10 1_555 1_555
C11_10 H9_10 1_555 1_555
C12_10 C11_10 1_555 1_555
H10_10 C12_10 1_555 1_555
C13_10 C12_10 1_555 1_555
C14_10 C13_10 1_555 1_555
H11_10 C14_10 1_555 1_555
C15_10 N3_7 1_555 1_555
H12_10 C15_10 1_555 1_555
C16_9 C3_9 1_555 1_555
N4_9 C16_9 1_555 1_555
C17_10 N4_9 1_555 1_555
N5_10 C17_10 1_555 1_555
C18_10 C8_10 1_555 1_555
N6_10 C18_10 1_555 1_555
C19_10 N6_10 1_555 1_555
N7_10 C19_10 1_555 1_555
C20_10 C13_10 1_555 1_555
N8_10 C20_10 1_555 1_555
C21_10 N8_10 1_555 1_555
N9_9 C16_9 1_555 1_555
C22_10 C17_10 1_555 1_555
Zn3 N3_7 1_555 1_555
N11_5 Zn3_8 1_555 1_555
C4_9 C5_9 1_555 1_555
C9_10 C10_10 1_555 1_555
C14_10 C15_10 1_555 1_555
N5_10 C18_10 1_555 1_555
C19_10 C22_10 1_555 1_555
N7_10 C20_10 1_555 1_555
C21_10 N9_9 1_555 1_555
C21_10 C22_10 1_555 1_555
Zn3_6 I1_10 1_555 1_555
N1_10 Zn3_6 1_555 1_555
C1_10 N1_10 1_555 1_555
H1_10 C1_10 1_555 1_555
C2_10 C1_10 1_555 1_555
H2_10 C2_10 1_555 1_555
C3_10 C2_10 1_555 1_555
C4_10 C3_10 1_555 1_555
H3_10 C4_10 1_555 1_555
C5_10 N1_10 1_555 1_555
H4_11 C5_10 1_555 1_555
N10_4 C6_11 1_555 1_555
C6_11 H5_11 1_555 1_555
C7_11 C6_11 1_555 1_555
H6_11 C7_11 1_555 1_555
C8_11 C7_11 1_555 1_555
C9_11 C8_11 1_555 1_555
H7_11 C9_11 1_555 1_555
C10_11 N10_4 1_555 1_555
H8_11 C10_11 1_555 1_555
N3_8 C11_11 1_555 1_555
C11_11 H9_11 1_555 1_555
C12_11 C11_11 1_555 1_555
H10_11 C12_11 1_555 1_555
C13_11 C12_11 1_555 1_555
C14_11 C13_11 1_555 1_555
H11_11 C14_11 1_555 1_555
C15_11 N3_8 1_555 1_555
H12_11 C15_11 1_555 1_555
C16_10 C3_10 1_555 1_555
N4_10 C16_10 1_555 1_555
C17_11 N4_10 1_555 1_555
N5_11 C17_11 1_555 1_555
C18_11 C8_11 1_555 1_555
N6_11 C18_11 1_555 1_555
C19_11 N6_11 1_555 1_555
N7_11 C19_11 1_555 1_555
C20_11 C13_11 1_555 1_555
N8_11 C20_11 1_555 1_555
C21_11 N8_11 1_555 1_555
N9_10 C16_10 1_555 1_555
C22_11 C17_11 1_555 1_555
Zn3_2 N3_8 1_555 1_555
N11_6 Zn3_6 1_555 1_555
C4_10 C5_10 1_555 1_555
C9_11 C10_11 1_555 1_555
C14_11 C15_11 1_555 1_555
N5_11 C18_11 1_555 1_555
C19_11 C22_11 1_555 1_555
N7_11 C20_11 1_555 1_555
C21_11 N9_10 1_555 1_555
C21_11 C22_11 1_555 1_555
N11_5 C11_12 1_555 1_555
C11_12 H9_12 1_555 1_555
C12_12 C11_12 1_555 1_555
H10_12 C12_12 1_555 1_555
C13_12 C12_12 1_555 1_555
C14_12 C13_12 1_555 1_555
H11_12 C14_12 1_555 1_555
C15_12 N11_5 1_555 1_555
H12_12 C15_12 1_555 1_555
C19_12 N6_12 1_555 1_555
N7_12 C19_12 1_555 1_555
C20_12 C13_12 1_555 1_555
N8_12 C20_12 1_555 1_555
C21_12 N8_12 1_555 1_555
C14_12 C15_12 1_555 1_555
C19_12 C22_12 1_555 1_555
N7_12 C20_12 1_555 1_555
C21_12 C22_12 1_555 1_555
N10_2 C6_12 1_555 1_555
C6_12 H5_12 1_555 1_555
C7_12 C6_12 1_555 1_555
H6_12 C7_12 1_555 1_555
C8_12 C7_12 1_555 1_555
C9_12 C8_12 1_555 1_555
H7_12 C9_12 1_555 1_555
C10_12 N10_2 1_555 1_555
H8_12 C10_12 1_555 1_555
N5_12 C17_12 1_555 1_555
C18_12 C8_12 1_555 1_555
C9_12 C10_12 1_555 1_555
N5_12 C18_12 1_555 1_555
N11_6 C11_13 1_555 1_555
C11_13 H9_13 1_555 1_555
C12_13 C11_13 1_555 1_555
H10_13 C12_13 1_555 1_555
C13_13 C12_13 1_555 1_555
C14_13 C13_13 1_555 1_555
H11_13 C14_13 1_555 1_555
C15_13 N11_6 1_555 1_555
H12_13 C15_13 1_555 1_555
C19_13 N6_13 1_555 1_555
N7_13 C19_13 1_555 1_555
C20_13 C13_13 1_555 1_555
N8_13 C20_13 1_555 1_555
C21_13 N8_13 1_555 1_555
C14_13 C15_13 1_555 1_555
C19_13 C22_13 1_555 1_555
N7_13 C20_13 1_555 1_555
C21_13 C22_13 1_555 1_555
N10_3 C6_13 1_555 1_555
C6_13 H5_13 1_555 1_555
C7_13 C6_13 1_555 1_555
H6_13 C7_13 1_555 1_555
C8_13 C7_13 1_555 1_555
C9_13 C8_13 1_555 1_555
H7_13 C9_13 1_555 1_555
C10_13 N10_3 1_555 1_555
H8_13 C10_13 1_555 1_555
N5_13 C17_13 1_555 1_555
C18_13 C8_13 1_555 1_555
C9_13 C10_13 1_555 1_555
N5_13 C18_13 1_555 1_555
C4_11 C3_11 1_555 1_555
H3_11 C4_11 1_555 1_555
H4_12 C5_11 1_555 1_555
C16_11 C3_11 1_555 1_555
N9_11 C16_11 1_555 1_555
C4_11 C5_11 1_555 1_555
Zn3_5 I1_11 1_555 1_555
N1_11 Zn3_5 1_555 1_555
C1_11 N1_11 1_555 1_555
H1_11 C1_11 1_555 1_555
C2_11 C1_11 1_555 1_555
H2_11 C2_11 1_555 1_555
N11_7 Zn3_5 1_555 1_555
C4_12 C3_12 1_555 1_555
H3_12 C4_12 1_555 1_555
H4_13 C5_12 1_555 1_555
N11_4 C11_14 1_555 1_555
C11_14 H9_14 1_555 1_555
C12_14 C11_14 1_555 1_555
H10_14 C12_14 1_555 1_555
C13_14 C12_14 1_555 1_555
C14_14 C13_14 1_555 1_555
H11_14 C14_14 1_555 1_555
C15_14 N11_4 1_555 1_555
H12_14 C15_14 1_555 1_555
C16_12 C3_12 1_555 1_555
C19_14 N6_14 1_555 1_555
N7_14 C19_14 1_555 1_555
C20_14 C13_14 1_555 1_555
N8_14 C20_14 1_555 1_555
C21_14 N8_14 1_555 1_555
N9_12 C16_12 1_555 1_555
C4_12 C5_12 1_555 1_555
C14_14 C15_14 1_555 1_555
C19_14 C22_14 1_555 1_555
N7_14 C20_14 1_555 1_555
C21_14 N9_12 1_555 1_555
C21_14 C22_14 1_555 1_555
Zn3_4 I1_12 1_555 1_555
N1_12 Zn3_4 1_555 1_555
C1_12 N1_12 1_555 1_555
H1_12 C1_12 1_555 1_555
C2_12 C1_12 1_555 1_555
H2_12 C2_12 1_555 1_555
N10 C6_14 1_555 1_555
C6_14 H5_14 1_555 1_555
C7_14 C6_14 1_555 1_555
H6_14 C7_14 1_555 1_555
C8_14 C7_14 1_555 1_555
C9_14 C8_14 1_555 1_555
H7_14 C9_14 1_555 1_555
C10_14 N10 1_555 1_555
H8_14 C10_14 1_555 1_555
C17_14 N4_12 1_555 1_555
N5_14 C17_14 1_555 1_555
C18_14 C8_14 1_555 1_555
N11_8 Zn3_4 1_555 1_555
C9_14 C10_14 1_555 1_555
N5_14 C18_14 1_555 1_555
C1_13 N1_13 1_555 1_555
H1_13 C1_13 1_555 1_555
C2_13 C1_13 1_555 1_555
H2_13 C2_13 1_555 1_555
C3_13 C2_13 1_555 1_555
C4_13 C3_13 1_555 1_555
H3_13 C4_13 1_555 1_555
C5_13 N1_13 1_555 1_555
N10_7 C6_15 1_555 1_555
C6_15 H5_15 1_555 1_555
C7_15 C6_15 1_555 1_555
H6_15 C7_15 1_555 1_555
C8_15 C7_15 1_555 1_555
C9_15 C8_15 1_555 1_555
H7_15 C9_15 1_555 1_555
C10_15 N10_7 1_555 1_555
H8_15 C10_15 1_555 1_555
N11_7 C11_15 1_555 1_555
C11_15 H9_15 1_555 1_555
C12_15 C11_15 1_555 1_555
H10_15 C12_15 1_555 1_555
C13_15 C12_15 1_555 1_555
C14_15 C13_15 1_555 1_555
H11_15 C14_15 1_555 1_555
C15_15 N11_7 1_555 1_555
H12_15 C15_15 1_555 1_555
C16_13 C3_13 1_555 1_555
N4_13 C16_13 1_555 1_555
C17_15 N4_13 1_555 1_555
N5_15 C17_15 1_555 1_555
C18_15 C8_15 1_555 1_555
N6_15 C18_15 1_555 1_555
C19_15 N6_15 1_555 1_555
N7_15 C19_15 1_555 1_555
C20_15 C13_15 1_555 1_555
N8_15 C20_15 1_555 1_555
C21_15 N8_15 1_555 1_555
N9_13 C16_13 1_555 1_555
C22_15 C17_15 1_555 1_555
C4_13 C5_13 1_555 1_555
C9_15 C10_15 1_555 1_555
C14_15 C15_15 1_555 1_555
N5_15 C18_15 1_555 1_555
C19_15 C22_15 1_555 1_555
N7_15 C20_15 1_555 1_555
C21_15 N9_13 1_555 1_555
C21_15 C22_15 1_555 1_555
Zn3_3 I1_14 1_555 1_555
N1_14 Zn3_3 1_555 1_555
C1_14 N1_14 1_555 1_555
H1_14 C1_14 1_555 1_555
C2_14 C1_14 1_555 1_555
H2_14 C2_14 1_555 1_555
C3_14 C2_14 1_555 1_555
C4_14 C3_14 1_555 1_555
H3_14 C4_14 1_555 1_555
C5_14 N1_14 1_555 1_555
H4_15 C5_14 1_555 1_555
N10_8 C6_16 1_555 1_555
C6_16 H5_16 1_555 1_555
C7_16 C6_16 1_555 1_555
H6_16 C7_16 1_555 1_555
C8_16 C7_16 1_555 1_555
C9_16 C8_16 1_555 1_555
H7_16 C9_16 1_555 1_555
C10_16 N10_8 1_555 1_555
H8_16 C10_16 1_555 1_555
N11_8 C11_16 1_555 1_555
C11_16 H9_16 1_555 1_555
C12_16 C11_16 1_555 1_555
H10_16 C12_16 1_555 1_555
C13_16 C12_16 1_555 1_555
C14_16 C13_16 1_555 1_555
H11_16 C14_16 1_555 1_555
C15_16 N11_8 1_555 1_555
H12_16 C15_16 1_555 1_555
C16_14 C3_14 1_555 1_555
N4_14 C16_14 1_555 1_555
C17_16 N4_14 1_555 1_555
N5_16 C17_16 1_555 1_555
C18_16 C8_16 1_555 1_555
N6_16 C18_16 1_555 1_555
C19_16 N6_16 1_555 1_555
N7_16 C19_16 1_555 1_555
C20_16 C13_16 1_555 1_555
N8_16 C20_16 1_555 1_555
C21_16 N8_16 1_555 1_555
N9_14 C16_14 1_555 1_555
C22_16 C17_16 1_555 1_555
C4_14 C5_14 1_555 1_555
C9_16 C10_16 1_555 1_555
C14_16 C15_16 1_555 1_555
N5_16 C18_16 1_555 1_555
C19_16 C22_16 1_555 1_555
N7_16 C20_16 1_555 1_555
C21_16 N9_14 1_555 1_555
C21_16 C22_16 1_555 1_555
Zn1_4 I1_15 1_555 1_555
N1_15 Zn1_4 1_555 1_555
C1_15 N1_15 1_555 1_555
H1_15 C1_15 1_555 1_555
C2_15 C1_15 1_555 1_555
H2_15 C2_15 1_555 1_555
C3_15 C2_15 1_555 1_555
C4_15 C3_15 1_555 1_555
H3_15 C4_15 1_555 1_555
C5_15 N1_15 1_555 1_555
H4_17 C5_15 1_555 1_555
N2_9 C6_17 1_555 1_555
C6_17 H5_17 1_555 1_555
C7_17 C6_17 1_555 1_555
H6_17 C7_17 1_555 1_555
C8_17 C7_17 1_555 1_555
C9_17 C8_17 1_555 1_555
H7_17 C9_17 1_555 1_555
C10_17 N2_9 1_555 1_555
H8_17 C10_17 1_555 1_555
N3_9 C11_17 1_555 1_555
C11_17 H9_17 1_555 1_555
C12_17 C11_17 1_555 1_555
H10_17 C12_17 1_555 1_555
C13_17 C12_17 1_555 1_555
C14_17 C13_17 1_555 1_555
H11_17 C14_17 1_555 1_555
C15_17 N3_9 1_555 1_555
H12_17 C15_17 1_555 1_555
C16_15 C3_15 1_555 1_555
N4_15 C16_15 1_555 1_555
C17_17 N4_15 1_555 1_555
N5_17 C17_17 1_555 1_555
C18_17 C8_17 1_555 1_555
N6_17 C18_17 1_555 1_555
C19_17 N6_17 1_555 1_555
N7_17 C19_17 1_555 1_555
C20_17 C13_17 1_555 1_555
N8_17 C20_17 1_555 1_555
C21_17 N8_17 1_555 1_555
N9_15 C16_15 1_555 1_555
C22_17 C17_17 1_555 1_555
Zn2_6 N3_9 1_555 1_555
Zn3_9 N2_9 1_555 1_555
N10_9 Zn1_4 1_555 1_555
N11_9 Zn1_4 1_555 1_555
C4_15 C5_15 1_555 1_555
C9_17 C10_17 1_555 1_555
C14_17 C15_17 1_555 1_555
N5_17 C18_17 1_555 1_555
C19_17 C22_17 1_555 1_555
N7_17 C20_17 1_555 1_555
C21_17 N9_15 1_555 1_555
C21_17 C22_17 1_555 1_555
Zn1_5 I1_16 1_555 1_555
N1_16 Zn1_5 1_555 1_555
C1_16 N1_16 1_555 1_555
H1_16 C1_16 1_555 1_555
C2_16 C1_16 1_555 1_555
H2_16 C2_16 1_555 1_555
C3_16 C2_16 1_555 1_555
C4_16 C3_16 1_555 1_555
H3_16 C4_16 1_555 1_555
C5_16 N1_16 1_555 1_555
H4_18 C5_16 1_555 1_555
N2_10 C6_18 1_555 1_555
C6_18 H5_18 1_555 1_555
C7_18 C6_18 1_555 1_555
H6_18 C7_18 1_555 1_555
C8_18 C7_18 1_555 1_555
C9_18 C8_18 1_555 1_555
H7_18 C9_18 1_555 1_555
C10_18 N2_10 1_555 1_555
H8_18 C10_18 1_555 1_555
N3_10 C11_18 1_555 1_555
C11_18 H9_18 1_555 1_555
C12_18 C11_18 1_555 1_555
H10_18 C12_18 1_555 1_555
C13_18 C12_18 1_555 1_555
C14_18 C13_18 1_555 1_555
H11_18 C14_18 1_555 1_555
C15_18 N3_10 1_555 1_555
H12_18 C15_18 1_555 1_555
C16_16 C3_16 1_555 1_555
N4_16 C16_16 1_555 1_555
C17_18 N4_16 1_555 1_555
N5_18 C17_18 1_555 1_555
C18_18 C8_18 1_555 1_555
N6_18 C18_18 1_555 1_555
C19_18 N6_18 1_555 1_555
N7_18 C19_18 1_555 1_555
C20_18 C13_18 1_555 1_555
N8_18 C20_18 1_555 1_555
C21_18 N8_18 1_555 1_555
N9_16 C16_16 1_555 1_555
C22_18 C17_18 1_555 1_555
Zn2_7 N3_10 1_555 1_555
Zn3_10 N2_10 1_555 1_555
N10_10 Zn1_5 1_555 1_555
N11_10 Zn1_5 1_555 1_555
C4_16 C5_16 1_555 1_555
C9_18 C10_18 1_555 1_555
C14_18 C15_18 1_555 1_555
N5_18 C18_18 1_555 1_555
C19_18 C22_18 1_555 1_555
N7_18 C20_18 1_555 1_555
C21_18 N9_16 1_555 1_555
C21_18 C22_18 1_555 1_555
Zn1_6 I1_17 1_555 1_555
N1_17 Zn1_6 1_555 1_555
C1_17 N1_17 1_555 1_555
H1_17 C1_17 1_555 1_555
C2_17 C1_17 1_555 1_555
H2_17 C2_17 1_555 1_555
C3_17 C2_17 1_555 1_555
C4_17 C3_17 1_555 1_555
H3_17 C4_17 1_555 1_555
C5_17 N1_17 1_555 1_555
H4_19 C5_17 1_555 1_555
N2_11 C6_19 1_555 1_555
C6_19 H5_19 1_555 1_555
C7_19 C6_19 1_555 1_555
H6_19 C7_19 1_555 1_555
C8_19 C7_19 1_555 1_555
C9_19 C8_19 1_555 1_555
H7_19 C9_19 1_555 1_555
C10_19 N2_11 1_555 1_555
H8_19 C10_19 1_555 1_555
N3_11 C11_19 1_555 1_555
C11_19 H9_19 1_555 1_555
C12_19 C11_19 1_555 1_555
H10_19 C12_19 1_555 1_555
C13_19 C12_19 1_555 1_555
C14_19 C13_19 1_555 1_555
H11_19 C14_19 1_555 1_555
C15_19 N3_11 1_555 1_555
H12_19 C15_19 1_555 1_555
C16_17 C3_17 1_555 1_555
N4_17 C16_17 1_555 1_555
C17_19 N4_17 1_555 1_555
N5_19 C17_19 1_555 1_555
C18_19 C8_19 1_555 1_555
N6_19 C18_19 1_555 1_555
C19_19 N6_19 1_555 1_555
N7_19 C19_19 1_555 1_555
C20_19 C13_19 1_555 1_555
N8_19 C20_19 1_555 1_555
C21_19 N8_19 1_555 1_555
N9_17 C16_17 1_555 1_555
C22_19 C17_19 1_555 1_555
Zn2_8 N3_11 1_555 1_555
Zn3_11 N2_11 1_555 1_555
N10_11 Zn1_6 1_555 1_555
N11_11 Zn1_6 1_555 1_555
C4_17 C5_17 1_555 1_555
C9_19 C10_19 1_555 1_555
C14_19 C15_19 1_555 1_555
N5_19 C18_19 1_555 1_555
C19_19 C22_19 1_555 1_555
N7_19 C20_19 1_555 1_555
C21_19 N9_17 1_555 1_555
C21_19 C22_19 1_555 1_555
N2_12 C6_20 1_555 1_555
C6_20 H5_20 1_555 1_555
C7_20 C6_20 1_555 1_555
H6_20 C7_20 1_555 1_555
C8_20 C7_20 1_555 1_555
C9_20 C8_20 1_555 1_555
H7_20 C9_20 1_555 1_555
C10_20 N2_12 1_555 1_555
H8_20 C10_20 1_555 1_555
N5_20 C17_20 1_555 1_555
C18_20 C8_20 1_555 1_555
Zn3_12 N2_12 1_555 1_555
C9_20 C10_20 1_555 1_555
N5_20 C18_20 1_555 1_555
N11_10 C11_20 1_555 1_555
C11_20 H9_20 1_555 1_555
C12_20 C11_20 1_555 1_555
H10_20 C12_20 1_555 1_555
C13_20 C12_20 1_555 1_555
C14_20 C13_20 1_555 1_555
H11_20 C14_20 1_555 1_555
C15_20 N11_10 1_555 1_555
H12_20 C15_20 1_555 1_555
C19_20 N6_20 1_555 1_555
N7_20 C19_20 1_555 1_555
C20_20 C13_20 1_555 1_555
N8_20 C20_20 1_555 1_555
C21_20 N8_20 1_555 1_555
C14_20 C15_20 1_555 1_555
C19_20 C22_20 1_555 1_555
N7_20 C20_20 1_555 1_555
C21_20 C22_20 1_555 1_555
Zn1_7 I1_18 1_555 1_555
N1_18 Zn1_7 1_555 1_555
C1_18 N1_18 1_555 1_555
H1_18 C1_18 1_555 1_555
C2_18 C1_18 1_555 1_555
H2_18 C2_18 1_555 1_555
N11_12 Zn1_7 1_555 1_555
C4_18 C3_18 1_555 1_555
H3_18 C4_18 1_555 1_555
H4_20 C5_18 1_555 1_555
C16_18 C3_18 1_555 1_555
N9_18 C16_18 1_555 1_555
C4_18 C5_18 1_555 1_555
N2_13 C6_21 1_555 1_555
C6_21 H5_21 1_555 1_555
C7_21 C6_21 1_555 1_555
H6_21 C7_21 1_555 1_555
C8_21 C7_21 1_555 1_555
C9_21 C8_21 1_555 1_555
H7_21 C9_21 1_555 1_555
C10_21 N2_13 1_555 1_555
H8_21 C10_21 1_555 1_555
N5_21 C17_21 1_555 1_555
C18_21 C8_21 1_555 1_555
Zn3_13 N2_13 1_555 1_555
C9_21 C10_21 1_555 1_555
N5_21 C18_21 1_555 1_555
N11_11 C11_21 1_555 1_555
C11_21 H9_21 1_555 1_555
C12_21 C11_21 1_555 1_555
H10_21 C12_21 1_555 1_555
C13_21 C12_21 1_555 1_555
C14_21 C13_21 1_555 1_555
H11_21 C14_21 1_555 1_555
C15_21 N11_11 1_555 1_555
H12_21 C15_21 1_555 1_555
C19_21 N6_21 1_555 1_555
N7_21 C19_21 1_555 1_555
C20_21 C13_21 1_555 1_555
N8_21 C20_21 1_555 1_555
C21_21 N8_21 1_555 1_555
C14_21 C15_21 1_555 1_555
C19_21 C22_21 1_555 1_555
N7_21 C20_21 1_555 1_555
C21_21 C22_21 1_555 1_555
Zn1_8 I1_19 1_555 1_555
N1_19 Zn1_8 1_555 1_555
C1_19 N1_19 1_555 1_555
H1_19 C1_19 1_555 1_555
C2_19 C1_19 1_555 1_555
H2_19 C2_19 1_555 1_555
N2_14 C6_22 1_555 1_555
C6_22 H5_22 1_555 1_555
C7_22 C6_22 1_555 1_555
H6_22 C7_22 1_555 1_555
C8_22 C7_22 1_555 1_555
C9_22 C8_22 1_555 1_555
H7_22 C9_22 1_555 1_555
C10_22 N2_14 1_555 1_555
H8_22 C10_22 1_555 1_555
C17_22 N4_19 1_555 1_555
N5_22 C17_22 1_555 1_555
C18_22 C8_22 1_555 1_555
Zn3_14 N2_14 1_555 1_555
N11_13 Zn1_8 1_555 1_555
C9_22 C10_22 1_555 1_555
N5_22 C18_22 1_555 1_555
C4_19 C3_19 1_555 1_555
H3_19 C4_19 1_555 1_555
H4_21 C5_19 1_555 1_555
N11_9 C11_22 1_555 1_555
C11_22 H9_22 1_555 1_555
C12_22 C11_22 1_555 1_555
H10_22 C12_22 1_555 1_555
C13_22 C12_22 1_555 1_555
C14_22 C13_22 1_555 1_555
H11_22 C14_22 1_555 1_555
C15_22 N11_9 1_555 1_555
H12_22 C15_22 1_555 1_555
C16_19 C3_19 1_555 1_555
C19_22 N6_22 1_555 1_555
N7_22 C19_22 1_555 1_555
C20_22 C13_22 1_555 1_555
N8_22 C20_22 1_555 1_555
C21_22 N8_22 1_555 1_555
N9_19 C16_19 1_555 1_555
C4_19 C5_19 1_555 1_555
C14_22 C15_22 1_555 1_555
C19_22 C22_22 1_555 1_555
N7_22 C20_22 1_555 1_555
C21_22 N9_19 1_555 1_555
C21_22 C22_22 1_555 1_555
C1_20 N1_20 1_555 1_555
H1_20 C1_20 1_555 1_555
C2_20 C1_20 1_555 1_555
H2_20 C2_20 1_555 1_555
C3_20 C2_20 1_555 1_555
C4_20 C3_20 1_555 1_555
H3_20 C4_20 1_555 1_555
C5_20 N1_20 1_555 1_555
N2_15 C6_23 1_555 1_555
C6_23 H5_23 1_555 1_555
C7_23 C6_23 1_555 1_555
H6_23 C7_23 1_555 1_555
C8_23 C7_23 1_555 1_555
C9_23 C8_23 1_555 1_555
H7_23 C9_23 1_555 1_555
C10_23 N2_15 1_555 1_555
H8_23 C10_23 1_555 1_555
N11_12 C11_23 1_555 1_555
C11_23 H9_23 1_555 1_555
C12_23 C11_23 1_555 1_555
H10_23 C12_23 1_555 1_555
C13_23 C12_23 1_555 1_555
C14_23 C13_23 1_555 1_555
H11_23 C14_23 1_555 1_555
C15_23 N11_12 1_555 1_555
H12_23 C15_23 1_555 1_555
C16_20 C3_20 1_555 1_555
N4_20 C16_20 1_555 1_555
C17_23 N4_20 1_555 1_555
N5_23 C17_23 1_555 1_555
C18_23 C8_23 1_555 1_555
N6_23 C18_23 1_555 1_555
C19_23 N6_23 1_555 1_555
N7_23 C19_23 1_555 1_555
C20_23 C13_23 1_555 1_555
N8_23 C20_23 1_555 1_555
C21_23 N8_23 1_555 1_555
N9_20 C16_20 1_555 1_555
C22_23 C17_23 1_555 1_555
Zn3_15 N2_15 1_555 1_555
C4_20 C5_20 1_555 1_555
C9_23 C10_23 1_555 1_555
C14_23 C15_23 1_555 1_555
N5_23 C18_23 1_555 1_555
C19_23 C22_23 1_555 1_555
N7_23 C20_23 1_555 1_555
C21_23 N9_20 1_555 1_555
C21_23 C22_23 1_555 1_555
N10_14 Zn2_8 1_555 1_555
Zn2_6 I1_21 1_555 1_555
N1_21 Zn2_6 1_555 1_555
C1_21 N1_21 1_555 1_555
H1_21 C1_21 1_555 1_555
C2_21 C1_21 1_555 1_555
H2_21 C2_21 1_555 1_555
C3_21 C2_21 1_555 1_555
C4_21 C3_21 1_555 1_555
H3_21 C4_21 1_555 1_555
C5_21 N1_21 1_555 1_555
H4_23 C5_21 1_555 1_555
N2_16 C6_24 1_555 1_555
C6_24 H5_24 1_555 1_555
C7_24 C6_24 1_555 1_555
H6_24 C7_24 1_555 1_555
C8_24 C7_24 1_555 1_555
C9_24 C8_24 1_555 1_555
H7_24 C9_24 1_555 1_555
C10_24 N2_16 1_555 1_555
H8_24 C10_24 1_555 1_555
N11_13 C11_24 1_555 1_555
C11_24 H9_24 1_555 1_555
C12_24 C11_24 1_555 1_555
H10_24 C12_24 1_555 1_555
C13_24 C12_24 1_555 1_555
C14_24 C13_24 1_555 1_555
H11_24 C14_24 1_555 1_555
C15_24 N11_13 1_555 1_555
H12_24 C15_24 1_555 1_555
C16_21 C3_21 1_555 1_555
N4_21 C16_21 1_555 1_555
C17_24 N4_21 1_555 1_555
N5_24 C17_24 1_555 1_555
C18_24 C8_24 1_555 1_555
N6_24 C18_24 1_555 1_555
C19_24 N6_24 1_555 1_555
N7_24 C19_24 1_555 1_555
C20_24 C13_24 1_555 1_555
N8_24 C20_24 1_555 1_555
C21_24 N8_24 1_555 1_555
N9_21 C16_21 1_555 1_555
C22_24 C17_24 1_555 1_555
Zn3_16 N2_16 1_555 1_555
N10_15 Zn2_6 1_555 1_555
C4_21 C5_21 1_555 1_555
C9_24 C10_24 1_555 1_555
C14_24 C15_24 1_555 1_555
N5_24 C18_24 1_555 1_555
C19_24 C22_24 1_555 1_555
N7_24 C20_24 1_555 1_555
C21_24 N9_21 1_555 1_555
C21_24 C22_24 1_555 1_555
N10_16 Zn2_7 1_555 1_555
Zn3_14 I1_22 1_555 1_555
N1_22 Zn3_14 1_555 1_555
C1_22 N1_22 1_555 1_555
H1_22 C1_22 1_555 1_555
C2_22 C1_22 1_555 1_555
H2_22 C2_22 1_555 1_555
C3_22 C2_22 1_555 1_555
C4_22 C3_22 1_555 1_555
H3_22 C4_22 1_555 1_555
C5_22 N1_22 1_555 1_555
H4_25 C5_22 1_555 1_555
N10_16 C6_25 1_555 1_555
C6_25 H5_25 1_555 1_555
C7_25 C6_25 1_555 1_555
H6_25 C7_25 1_555 1_555
C8_25 C7_25 1_555 1_555
C9_25 C8_25 1_555 1_555
H7_25 C9_25 1_555 1_555
C10_25 N10_16 1_555 1_555
H8_25 C10_25 1_555 1_555
C16_22 C3_22 1_555 1_555
N4_22 C16_22 1_555 1_555
C17_25 N4_22 1_555 1_555
N5_25 C17_25 1_555 1_555
C18_25 C8_25 1_555 1_555
N6_25 C18_25 1_555 1_555
C19_25 N6_25 1_555 1_555
N7_25 C19_25 1_555 1_555
C20_25 C13_25 1_555 1_555
N8_25 C20_25 1_555 1_555
C21_25 N8_25 1_555 1_555
N9_22 C16_22 1_555 1_555
C22_25 C17_25 1_555 1_555
N11_14 Zn3_14 1_555 1_555
C4_22 C5_22 1_555 1_555
C9_25 C10_25 1_555 1_555
N5_25 C18_25 1_555 1_555
C19_25 C22_25 1_555 1_555
N7_25 C20_25 1_555 1_555
C21_25 N9_22 1_555 1_555
C21_25 C22_25 1_555 1_555
N3_12 C11_25 1_555 1_555
C11_25 H9_25 1_555 1_555
C12_25 C11_25 1_555 1_555
H10_25 C12_25 1_555 1_555
C15_25 N3_12 1_555 1_555
H12_25 C15_25 1_555 1_555
Zn3_10 N3_12 1_555 1_555
C14_25 C15_25 1_555 1_555
Zn3_12 I1_23 1_555 1_555
N1_23 Zn3_12 1_555 1_555
C1_23 N1_23 1_555 1_555
H1_23 C1_23 1_555 1_555
C2_23 C1_23 1_555 1_555
H2_23 C2_23 1_555 1_555
C3_23 C2_23 1_555 1_555
C4_23 C3_23 1_555 1_555
H3_23 C4_23 1_555 1_555
C5_23 N1_23 1_555 1_555
H4_26 C5_23 1_555 1_555
N10_14 C6_26 1_555 1_555
C6_26 H5_26 1_555 1_555
C7_26 C6_26 1_555 1_555
H6_26 C7_26 1_555 1_555
C8_26 C7_26 1_555 1_555
C9_26 C8_26 1_555 1_555
H7_26 C9_26 1_555 1_555
C10_26 N10_14 1_555 1_555
H8_26 C10_26 1_555 1_555
C16_23 C3_23 1_555 1_555
N4_23 C16_23 1_555 1_555
C17_26 N4_23 1_555 1_555
N5_26 C17_26 1_555 1_555
C18_26 C8_26 1_555 1_555
N6_26 C18_26 1_555 1_555
C19_26 N6_26 1_555 1_555
N7_26 C19_26 1_555 1_555
C20_26 C13_26 1_555 1_555
N8_26 C20_26 1_555 1_555
C21_26 N8_26 1_555 1_555
N9_23 C16_23 1_555 1_555
C22_26 C17_26 1_555 1_555
N11_15 Zn3_12 1_555 1_555
C4_23 C5_23 1_555 1_555
C9_26 C10_26 1_555 1_555
N5_26 C18_26 1_555 1_555
C19_26 C22_26 1_555 1_555
N7_26 C20_26 1_555 1_555
C21_26 N9_23 1_555 1_555
C21_26 C22_26 1_555 1_555
N3_13 C11_26 1_555 1_555
C11_26 H9_26 1_555 1_555
C12_26 C11_26 1_555 1_555
H10_26 C12_26 1_555 1_555
C15_26 N3_13 1_555 1_555
H12_26 C15_26 1_555 1_555
Zn3_11 N3_13 1_555 1_555
C14_26 C15_26 1_555 1_555
Zn3_13 I1_24 1_555 1_555
N1_24 Zn3_13 1_555 1_555
C1_24 N1_24 1_555 1_555
H1_24 C1_24 1_555 1_555
C2_24 C1_24 1_555 1_555
H2_24 C2_24 1_555 1_555
C3_24 C2_24 1_555 1_555
C4_24 C3_24 1_555 1_555
H3_24 C4_24 1_555 1_555
C5_24 N1_24 1_555 1_555
H4_27 C5_24 1_555 1_555
N10_15 C6_27 1_555 1_555
C6_27 H5_27 1_555 1_555
C7_27 C6_27 1_555 1_555
H6_27 C7_27 1_555 1_555
C8_27 C7_27 1_555 1_555
C9_27 C8_27 1_555 1_555
H7_27 C9_27 1_555 1_555
C10_27 N10_15 1_555 1_555
H8_27 C10_27 1_555 1_555
C16_24 C3_24 1_555 1_555
N4_24 C16_24 1_555 1_555
C17_27 N4_24 1_555 1_555
N5_27 C17_27 1_555 1_555
C18_27 C8_27 1_555 1_555
N6_27 C18_27 1_555 1_555
C19_27 N6_27 1_555 1_555
N7_27 C19_27 1_555 1_555
C20_27 C13_27 1_555 1_555
N8_27 C20_27 1_555 1_555
C21_27 N8_27 1_555 1_555
N9_24 C16_24 1_555 1_555
C22_27 C17_27 1_555 1_555
N11_16 Zn3_13 1_555 1_555
C4_24 C5_24 1_555 1_555
C9_27 C10_27 1_555 1_555
N5_27 C18_27 1_555 1_555
C19_27 C22_27 1_555 1_555
N7_27 C20_27 1_555 1_555
C21_27 N9_24 1_555 1_555
C21_27 C22_27 1_555 1_555
N3_14 C11_27 1_555 1_555
C11_27 H9_27 1_555 1_555
C12_27 C11_27 1_555 1_555
H10_27 C12_27 1_555 1_555
C15_27 N3_14 1_555 1_555
H12_27 C15_27 1_555 1_555
Zn3_9 N3_14 1_555 1_555
C14_27 C15_27 1_555 1_555
C1_25 N1_25 1_555 1_555
H1_25 C1_25 1_555 1_555
C2_25 C1_25 1_555 1_555
H2_25 C2_25 1_555 1_555
C3_25 C2_25 1_555 1_555
C4_25 C3_25 1_555 1_555
H3_25 C4_25 1_555 1_555
C5_25 N1_25 1_555 1_555
N10_13 C6_28 1_555 1_555
C6_28 H5_28 1_555 1_555
C7_28 C6_28 1_555 1_555
H6_28 C7_28 1_555 1_555
C8_28 C7_28 1_555 1_555
C9_28 C8_28 1_555 1_555
H7_28 C9_28 1_555 1_555
C10_28 N10_13 1_555 1_555
N3_15 C11_28 1_555 1_555
C11_28 H9_28 1_555 1_555
C12_28 C11_28 1_555 1_555
H10_28 C12_28 1_555 1_555
C13_28 C12_28 1_555 1_555
C14_28 C13_28 1_555 1_555
H11_28 C14_28 1_555 1_555
C15_28 N3_15 1_555 1_555
H12_28 C15_28 1_555 1_555
C16_25 C3_25 1_555 1_555
N4_25 C16_25 1_555 1_555
C17_28 N4_25 1_555 1_555
N5_28 C17_28 1_555 1_555
C18_28 C8_28 1_555 1_555
N6_28 C18_28 1_555 1_555
C19_28 N6_28 1_555 1_555
N7_28 C19_28 1_555 1_555
C20_28 C13_28 1_555 1_555
N8_28 C20_28 1_555 1_555
C21_28 N8_28 1_555 1_555
N9_25 C16_25 1_555 1_555
C22_28 C17_28 1_555 1_555
Zn3_16 N3_15 1_555 1_555
C4_25 C5_25 1_555 1_555
C9_28 C10_28 1_555 1_555
C14_28 C15_28 1_555 1_555
N5_28 C18_28 1_555 1_555
C19_28 C22_28 1_555 1_555
N7_28 C20_28 1_555 1_555
C21_28 N9_25 1_555 1_555
C21_28 C22_28 1_555 1_555
Zn3_10 I1_26 1_555 1_555
N1_26 Zn3_10 1_555 1_555
C1_26 N1_26 1_555 1_555
H1_26 C1_26 1_555 1_555
C2_26 C1_26 1_555 1_555
H2_26 C2_26 1_555 1_555
C3_26 C2_26 1_555 1_555
C4_26 C3_26 1_555 1_555
H3_26 C4_26 1_555 1_555
C5_26 N1_26 1_555 1_555
H4_30 C5_26 1_555 1_555
N10_12 C6_29 1_555 1_555
C6_29 H5_29 1_555 1_555
C7_29 C6_29 1_555 1_555
H6_29 C7_29 1_555 1_555
C8_29 C7_29 1_555 1_555
C9_29 C8_29 1_555 1_555
H7_29 C9_29 1_555 1_555
C10_29 N10_12 1_555 1_555
N3_16 C11_29 1_555 1_555
C11_29 H9_29 1_555 1_555
C12_29 C11_29 1_555 1_555
H10_29 C12_29 1_555 1_555
C13_29 C12_29 1_555 1_555
C14_29 C13_29 1_555 1_555
H11_29 C14_29 1_555 1_555
C15_29 N3_16 1_555 1_555
H12_29 C15_29 1_555 1_555
C16_26 C3_26 1_555 1_555
N4_26 C16_26 1_555 1_555
C17_29 N4_26 1_555 1_555
N5_29 C17_29 1_555 1_555
C18_29 C8_29 1_555 1_555
N6_29 C18_29 1_555 1_555
C19_29 N6_29 1_555 1_555
N7_29 C19_29 1_555 1_555
C20_29 C13_29 1_555 1_555
N8_29 C20_29 1_555 1_555
C21_29 N8_29 1_555 1_555
N9_26 C16_26 1_555 1_555
C22_29 C17_29 1_555 1_555
Zn3_15 N3_16 1_555 1_555
C4_26 C5_26 1_555 1_555
C9_29 C10_29 1_555 1_555
C14_29 C15_29 1_555 1_555
N5_29 C18_29 1_555 1_555
C19_29 C22_29 1_555 1_555
N7_29 C20_29 1_555 1_555
C21_29 N9_26 1_555 1_555
C21_29 C22_29 1_555 1_555
N10_11 C6_30 1_555 1_555
C6_30 H5_30 1_555 1_555
C7_30 C6_30 1_555 1_555
H6_30 C7_30 1_555 1_555
C8_30 C7_30 1_555 1_555
C9_30 C8_30 1_555 1_555
H7_30 C9_30 1_555 1_555
C10_30 N10_11 1_555 1_555
H8_30 C10_30 1_555 1_555
N11_16 C11_30 1_555 1_555
C11_30 H9_30 1_555 1_555
C12_30 C11_30 1_555 1_555
H10_30 C12_30 1_555 1_555
C13_30 C12_30 1_555 1_555
C14_30 C13_30 1_555 1_555
H11_30 C14_30 1_555 1_555
C15_30 N11_16 1_555 1_555
H12_30 C15_30 1_555 1_555
N5_30 C17_30 1_555 1_555
C18_30 C8_30 1_555 1_555
N6_30 C18_30 1_555 1_555
C19_30 N6_30 1_555 1_555
N7_30 C19_30 1_555 1_555
C20_30 C13_30 1_555 1_555
N8_30 C20_30 1_555 1_555
C21_30 N8_30 1_555 1_555
C22_30 C17_30 1_555 1_555
C9_30 C10_30 1_555 1_555
C14_30 C15_30 1_555 1_555
N5_30 C18_30 1_555 1_555
C19_30 C22_30 1_555 1_555
N7_30 C20_30 1_555 1_555
C21_30 C22_30 1_555 1_555
Zn3_15 I1_27 1_555 1_555
N1_27 Zn3_15 1_555 1_555
C1_27 N1_27 1_555 1_555
H1_27 C1_27 1_555 1_555
C2_27 C1_27 1_555 1_555
H2_27 C2_27 1_555 1_555
C3_27 C2_27 1_555 1_555
C4_27 C3_27 1_555 1_555
H3_27 C4_27 1_555 1_555
C5_27 N1_27 1_555 1_555
H4_31 C5_27 1_555 1_555
N10_9 C6_31 1_555 1_555
C6_31 H5_31 1_555 1_555
C7_31 C6_31 1_555 1_555
H6_31 C7_31 1_555 1_555
C8_31 C7_31 1_555 1_555
C9_31 C8_31 1_555 1_555
H7_31 C9_31 1_555 1_555
C10_31 N10_9 1_555 1_555
H8_31 C10_31 1_555 1_555
N11_14 C11_31 1_555 1_555
C11_31 H9_31 1_555 1_555
C12_31 C11_31 1_555 1_555
H10_31 C12_31 1_555 1_555
C13_31 C12_31 1_555 1_555
C14_31 C13_31 1_555 1_555
H11_31 C14_31 1_555 1_555
C15_31 N11_14 1_555 1_555
H12_31 C15_31 1_555 1_555
C16_27 C3_27 1_555 1_555
N4_27 C16_27 1_555 1_555
C17_31 N4_27 1_555 1_555
N5_31 C17_31 1_555 1_555
C18_31 C8_31 1_555 1_555
N6_31 C18_31 1_555 1_555
C19_31 N6_31 1_555 1_555
N7_31 C19_31 1_555 1_555
C20_31 C13_31 1_555 1_555
N8_31 C20_31 1_555 1_555
C21_31 N8_31 1_555 1_555
N9_27 C16_27 1_555 1_555
C22_31 C17_31 1_555 1_555
C4_27 C5_27 1_555 1_555
C9_31 C10_31 1_555 1_555
C14_31 C15_31 1_555 1_555
N5_31 C18_31 1_555 1_555
C19_31 C22_31 1_555 1_555
N7_31 C20_31 1_555 1_555
C21_31 N9_27 1_555 1_555
C21_31 C22_31 1_555 1_555
N10_10 C6_32 1_555 1_555
C6_32 H5_32 1_555 1_555
C7_32 C6_32 1_555 1_555
H6_32 C7_32 1_555 1_555
C8_32 C7_32 1_555 1_555
C9_32 C8_32 1_555 1_555
H7_32 C9_32 1_555 1_555
C10_32 N10_10 1_555 1_555
H8_32 C10_32 1_555 1_555
N11_15 C11_32 1_555 1_555
C11_32 H9_32 1_555 1_555
C12_32 C11_32 1_555 1_555
H10_32 C12_32 1_555 1_555
C13_32 C12_32 1_555 1_555
C14_32 C13_32 1_555 1_555
H11_32 C14_32 1_555 1_555
C15_32 N11_15 1_555 1_555
H12_32 C15_32 1_555 1_555
N5_32 C17_32 1_555 1_555
C18_32 C8_32 1_555 1_555
N6_32 C18_32 1_555 1_555
C19_32 N6_32 1_555 1_555
N7_32 C19_32 1_555 1_555
C20_32 C13_32 1_555 1_555
N8_32 C20_32 1_555 1_555
C21_32 N8_32 1_555 1_555
C22_32 C17_32 1_555 1_555
C9_32 C10_32 1_555 1_555
C14_32 C15_32 1_555 1_555
N5_32 C18_32 1_555 1_555
C19_32 C22_32 1_555 1_555
N7_32 C20_32 1_555 1_555
C21_32 C22_32 1_555 1_555
Zn3_16 I1_28 1_555 1_555
N1_28 Zn3_16 1_555 1_555
C1_28 N1_28 1_555 1_555
H1_28 C1_28 1_555 1_555
C2_28 C1_28 1_555 1_555
H2_28 C2_28 1_555 1_555
C3_28 C2_28 1_555 1_555
C4_28 C3_28 1_555 1_555
H3_28 C4_28 1_555 1_555
C5_28 N1_28 1_555 1_555
H4_32 C5_28 1_555 1_555
C16_28 C3_28 1_555 1_555
N4_28 C16_28 1_555 1_555
N9_28 C16_28 1_555 1_555
C4_28 C5_28 1_555 1_555
C1_29 N1_29 1_555 1_555
H1_29 C1_29 1_555 1_555
C2_29 C1_29 1_555 1_555
H2_29 C2_29 1_555 1_555
C3_29 C2_29 1_555 1_555
C4_29 C3_29 1_555 1_555
H3_29 C4_29 1_555 1_555
C5_29 N1_29 1_555 1_555
N2_17 C6_33 1_555 1_555
C6_33 H5_33 1_555 1_555
C7_33 C6_33 1_555 1_555
H6_33 C7_33 1_555 1_555
C8_33 C7_33 1_555 1_555
C9_33 C8_33 1_555 1_555
H7_33 C9_33 1_555 1_555
C10_33 N2_17 1_555 1_555
N3_17 C11_33 1_555 1_555
C11_33 H9_33 1_555 1_555
C12_33 C11_33 1_555 1_555
H10_33 C12_33 1_555 1_555
C13_33 C12_33 1_555 1_555
C14_33 C13_33 1_555 1_555
H11_33 C14_33 1_555 1_555
C15_33 N3_17 1_555 1_555
H12_33 C15_33 1_555 1_555
C16_29 C3_29 1_555 1_555
N4_29 C16_29 1_555 1_555
C17_33 N4_29 1_555 1_555
N5_33 C17_33 1_555 1_555
C18_33 C8_33 1_555 1_555
N6_33 C18_33 1_555 1_555
C19_33 N6_33 1_555 1_555
N7_33 C19_33 1_555 1_555
C20_33 C13_33 1_555 1_555
N8_33 C20_33 1_555 1_555
C21_33 N8_33 1_555 1_555
N9_29 C16_29 1_555 1_555
C22_33 C17_33 1_555 1_555
Zn2_9 N3_17 1_555 1_555
C4_29 C5_29 1_555 1_555
C9_33 C10_33 1_555 1_555
C14_33 C15_33 1_555 1_555
N5_33 C18_33 1_555 1_555
C19_33 C22_33 1_555 1_555
N7_33 C20_33 1_555 1_555
C21_33 N9_29 1_555 1_555
C21_33 C22_33 1_555 1_555
Zn2_9 I1_30 1_555 1_555
N1_30 Zn2_9 1_555 1_555
C1_30 N1_30 1_555 1_555
H1_30 C1_30 1_555 1_555
C2_30 C1_30 1_555 1_555
H2_30 C2_30 1_555 1_555
C3_30 C2_30 1_555 1_555
C4_30 C3_30 1_555 1_555
H3_30 C4_30 1_555 1_555
C5_30 N1_30 1_555 1_555
H4_33 C5_30 1_555 1_555
C16_30 C3_30 1_555 1_555
N4_30 C16_30 1_555 1_555
N9_30 C16_30 1_555 1_555
N10_17 Zn2_9 1_555 1_555
C4_30 C5_30 1_555 1_555
C4_31 C3_31 1_555 1_555
H3_31 C4_31 1_555 1_555
H4_34 C5_31 1_555 1_555
C16_31 C3_31 1_555 1_555
N9_31 C16_31 1_555 1_555
C4_31 C5_31 1_555 1_555
Zn3_17 I1_31 1_555 1_555
N1_31 Zn3_17 1_555 1_555
C1_31 N1_31 1_555 1_555
H1_31 C1_31 1_555 1_555
C2_31 C1_31 1_555 1_555
H2_31 C2_31 1_555 1_555
N11_17 Zn3_17 1_555 1_555
C1_32 N1_32 1_555 1_555
H1_32 C1_32 1_555 1_555
C2_32 C1_32 1_555 1_555
H2_32 C2_32 1_555 1_555
C3_32 C2_32 1_555 1_555
C4_32 C3_32 1_555 1_555
H3_32 C4_32 1_555 1_555
C5_32 N1_32 1_555 1_555
N10_17 C6_34 1_555 1_555
C6_34 H5_34 1_555 1_555
C7_34 C6_34 1_555 1_555
H6_34 C7_34 1_555 1_555
C8_34 C7_34 1_555 1_555
C9_34 C8_34 1_555 1_555
H7_34 C9_34 1_555 1_555
C10_34 N10_17 1_555 1_555
H8_34 C10_34 1_555 1_555
N11_17 C11_34 1_555 1_555
C11_34 H9_34 1_555 1_555
C12_34 C11_34 1_555 1_555
H10_34 C12_34 1_555 1_555
C13_34 C12_34 1_555 1_555
C14_34 C13_34 1_555 1_555
H11_34 C14_34 1_555 1_555
C15_34 N11_17 1_555 1_555
H12_34 C15_34 1_555 1_555
C16_32 C3_32 1_555 1_555
N4_32 C16_32 1_555 1_555
C17_34 N4_32 1_555 1_555
N5_34 C17_34 1_555 1_555
C18_34 C8_34 1_555 1_555
N6_34 C18_34 1_555 1_555
C19_34 N6_34 1_555 1_555
N7_34 C19_34 1_555 1_555
C20_34 C13_34 1_555 1_555
N8_34 C20_34 1_555 1_555
C21_34 N8_34 1_555 1_555
N9_32 C16_32 1_555 1_555
C22_34 C17_34 1_555 1_555
C4_32 C5_32 1_555 1_555
C9_34 C10_34 1_555 1_555
C14_34 C15_34 1_555 1_555
N5_34 C18_34 1_555 1_555
C19_34 C22_34 1_555 1_555
N7_34 C20_34 1_555 1_555
C21_34 N9_32 1_555 1_555
C21_34 C22_34 1_555 1_555
Zn1_9 I1_33 1_555 1_555
N1_33 Zn1_9 1_555 1_555
C1_33 N1_33 1_555 1_555
H1_33 C1_33 1_555 1_555
C2_33 C1_33 1_555 1_555
H2_33 C2_33 1_555 1_555
N11_18 Zn1_9 1_555 1_555
C4_33 C3_33 1_555 1_555
H3_33 C4_33 1_555 1_555
H4_35 C5_33 1_555 1_555
C16_33 C3_33 1_555 1_555
N9_33 C16_33 1_555 1_555
C4_33 C5_33 1_555 1_555
C1_34 N1_34 1_555 1_555
H1_34 C1_34 1_555 1_555
C2_34 C1_34 1_555 1_555
H2_34 C2_34 1_555 1_555
C3_34 C2_34 1_555 1_555
C4_34 C3_34 1_555 1_555
H3_34 C4_34 1_555 1_555
C5_34 N1_34 1_555 1_555
N2_18 C6_35 1_555 1_555
C6_35 H5_35 1_555 1_555
C7_35 C6_35 1_555 1_555
H6_35 C7_35 1_555 1_555
C8_35 C7_35 1_555 1_555
C9_35 C8_35 1_555 1_555
H7_35 C9_35 1_555 1_555
C10_35 N2_18 1_555 1_555
H8_35 C10_35 1_555 1_555
N11_18 C11_35 1_555 1_555
C11_35 H9_35 1_555 1_555
C12_35 C11_35 1_555 1_555
H10_35 C12_35 1_555 1_555
C13_35 C12_35 1_555 1_555
C14_35 C13_35 1_555 1_555
H11_35 C14_35 1_555 1_555
C15_35 N11_18 1_555 1_555
H12_35 C15_35 1_555 1_555
C16_34 C3_34 1_555 1_555
N4_34 C16_34 1_555 1_555
C17_35 N4_34 1_555 1_555
N5_35 C17_35 1_555 1_555
C18_35 C8_35 1_555 1_555
N6_35 C18_35 1_555 1_555
C19_35 N6_35 1_555 1_555
N7_35 C19_35 1_555 1_555
C20_35 C13_35 1_555 1_555
N8_35 C20_35 1_555 1_555
C21_35 N8_35 1_555 1_555
N9_34 C16_34 1_555 1_555
C22_35 C17_35 1_555 1_555
Zn3_18 N2_18 1_555 1_555
C4_34 C5_34 1_555 1_555
C9_35 C10_35 1_555 1_555
C14_35 C15_35 1_555 1_555
N5_35 C18_35 1_555 1_555
C19_35 C22_35 1_555 1_555
N7_35 C20_35 1_555 1_555
C21_35 N9_34 1_555 1_555
C21_35 C22_35 1_555 1_555
C1_35 N1_35 1_555 1_555
H1_35 C1_35 1_555 1_555
C2_35 C1_35 1_555 1_555
H2_35 C2_35 1_555 1_555
C3_35 C2_35 1_555 1_555
C4_35 C3_35 1_555 1_555
H3_35 C4_35 1_555 1_555
C5_35 N1_35 1_555 1_555
N10_18 C6_36 1_555 1_555
C6_36 H5_36 1_555 1_555
C7_36 C6_36 1_555 1_555
H6_36 C7_36 1_555 1_555
C8_36 C7_36 1_555 1_555
C9_36 C8_36 1_555 1_555
H7_36 C9_36 1_555 1_555
C10_36 N10_18 1_555 1_555
N3_18 C11_36 1_555 1_555
C11_36 H9_36 1_555 1_555
C12_36 C11_36 1_555 1_555
H10_36 C12_36 1_555 1_555
C13_36 C12_36 1_555 1_555
C14_36 C13_36 1_555 1_555
H11_36 C14_36 1_555 1_555
C15_36 N3_18 1_555 1_555
H12_36 C15_36 1_555 1_555
C16_35 C3_35 1_555 1_555
N4_35 C16_35 1_555 1_555
C17_36 N4_35 1_555 1_555
N5_36 C17_36 1_555 1_555
C18_36 C8_36 1_555 1_555
N6_36 C18_36 1_555 1_555
C19_36 N6_36 1_555 1_555
N7_36 C19_36 1_555 1_555
C20_36 C13_36 1_555 1_555
N8_36 C20_36 1_555 1_555
C21_36 N8_36 1_555 1_555
N9_35 C16_35 1_555 1_555
C22_36 C17_36 1_555 1_555
Zn3_18 N3_18 1_555 1_555
C4_35 C5_35 1_555 1_555
C9_36 C10_36 1_555 1_555
C14_36 C15_36 1_555 1_555
N5_36 C18_36 1_555 1_555
C19_36 C22_36 1_555 1_555
N7_36 C20_36 1_555 1_555
C21_36 N9_35 1_555 1_555
C21_36 C22_36 1_555 1_555
Zn3_18 I1_36 1_555 1_555
N1_36 Zn3_18 1_555 1_555
C1_36 N1_36 1_555 1_555
H1_36 C1_36 1_555 1_555
C2_36 C1_36 1_555 1_555
H2_36 C2_36 1_555 1_555
C3_36 C2_36 1_555 1_555
C4_36 C3_36 1_555 1_555
H3_36 C4_36 1_555 1_555
C5_36 N1_36 1_555 1_555
H4_36 C5_36 1_555 1_555
C16_36 C3_36 1_555 1_555
N4_36 C16_36 1_555 1_555
N9_36 C16_36 1_555 1_555
C4_36 C5_36 1_555 1_555

#END
