
###############################################################################
#
# This file contains modified crystal structure data generated from the
# MOF subset of the Cambridge Structural Database (CSD) v543 
# hosted by the Cambridge Crystallographic Data Centre (CCDC).
#
# This work is licensed under the Creative Commons
# Attribution-NonCommercial-ShareAlike 4.0 International License.
# To view a copy of this license, visit
# http://creativecommons.org/licenses/by-nc-sa/4.0/
# or send a letter to
# Creative Commons, PO Box 1866, Mountain View, CA 94042, USA.
#
# CIF created using the CSD Python API on 29 September 2022
# The structure has been converted into the P1 space group
# The structure has a 3D framework
# The original CSD entry VOBKAA is in the monoclinic crystal system
# The framework has been calculated to contain at least 10.0% void space
# The void calculation uses a probe of radius 1.32A, grid spacing 0.4
# The framework is charged, counterions have been retained in the structure
#
###############################################################################

data_VOBKAA
_chemical_formula_moiety         '(C76 H92 Cd12 N8 O60)n'
_symmetry_cell_setting           triclinic
_symmetry_space_group_name_H-M   'P 1'
_symmetry_Int_Tables_number      1
_space_group_name_Hall           'P 1'
loop_
_symmetry_equiv_pos_site_id
_symmetry_equiv_pos_as_xyz
1 x,y,z
_cell_length_a                   18.1128(8)
_cell_length_b                   8.7931(3)
_cell_length_c                   19.2053(8)
_cell_angle_alpha                90
_cell_angle_beta                 102.909(4)
_cell_angle_gamma                90
_cell_volume                     2981.48
loop_
_atom_site_label
_atom_site_type_symbol
_atom_site_fract_x
_atom_site_fract_y
_atom_site_fract_z
Cd2 Cd 0.0000 -0.0000 0.0000
C8 C 0.4765(5) 0.0900(9) 0.0482(5)
O7 O 0.3342(3) 0.0239(7) 0.0801(4)
C15 C 0.5439(5) 0.1192(10) 0.0313(5)
O11 O 0.4621(8) 0.1661(18) 0.1010(10)
O14 O 0.5802(8) 0.2493(17) 0.0581(9)
H9 H 0.6181 0.2606 0.0419
H17 H 0.0121 0.3635 0.0508
O32 O 0.1783(3) 0.0658(6) 0.1297(3)
O34 O 0.0536(3) 0.0387(7) 0.1163(3)
Cd2_2 Cd 0.0000 -0.0000 1.0000
O1 O 0.0763(3) 0.1598(6) 0.9552(3)
C1 C 0.1171(4) 0.4196(8) 0.6506(3)
C2 C 0.1293(4) 0.2173(8) 0.8560(3)
O2 O 0.1783(3) 0.4342(6) 0.6297(3)
O3 O 0.1908(3) 0.0665(7) 0.9528(3)
C3 C 0.0586(4) 0.3492(9) 0.7525(4)
O4 O 0.0536(3) 0.4613(7) 0.6163(3)
C4 C 0.0620(4) 0.2826(8) 0.8184(4)
C6 C 0.1886(4) 0.2869(10) 0.7606(4)
C7 C 0.1327(4) 0.1425(8) 0.9267(3)
C10 C 0.1920(4) 0.2181(9) 0.8262(4)
C11 C 0.1220(4) 0.3508(8) 0.7228(3)
O9 O 0.2592(6) 0.1406(17) 0.8550(6)
H5 H 0.2570 0.1049 0.8940
O13 O 0.2551(7) 0.305(2) 0.7398(7)
H8 H 0.2463 0.3232 0.6968
O16 O 0.6831(3) 0.1736(7) 0.9913(4)
C19 C 0.6442(4) 0.0629(10) 0.9624(5)
C20 C 0.5683(4) 0.0300(9) 0.9811(5)
Cd5 Cd 0.79134(3) 0.09297(5) 0.95242(2)
Cd6 Cd 0.20866(3) 0.59297(5) 0.54758(2)
Cd8 Cd 0.0000 0.5000 0.5000
Cd1 Cd 0.20866(3) 0.90703(5) 0.04758(2)
Cd2_3 Cd 0.0000 1.0000 0.0000
O5 O 0.0874(3) 0.8150(6) 0.0054(3)
O6 O 0.3169(3) 0.8264(7) 0.0087(4)
C12 C 0.3558(4) 0.9371(10) 0.0376(5)
C13 C 0.4317(4) 0.9700(9) 0.0189(5)
O8 O 0.2358(4) 0.7337(7) 0.1415(3)
C14 C 0.2013(8) 0.7386(13) 0.1927(7)
H4 H 0.1492 0.7517 0.1778
N1 N 0.2230(5) 0.7296(13) 0.2558(4)
C16 C 0.1819(12) 0.742(2) 0.3113(10)
H10 H 0.2030 0.8228 0.3433
H11 H 0.1854 0.6481 0.3372
H12 H 0.1297 0.7641 0.2905
C17 C 0.3038(10) 0.688(4) 0.2833(14)
H13 H 0.3314 0.7058 0.2469
H14 H 0.3072 0.5822 0.2963
H15 H 0.3248 0.7486 0.3245
O27 O 0.0070(6) 0.5913(17) 0.2778(6)
H22 H 0.0056 0.5600 0.3177
O28 O 0.0077(6) 0.7172(15) 0.1620(6)
H23 H 0.0066 0.7786 0.1297
Cd2_4 Cd 0.0000 1.0000 1.0000
C5 C 0.0979(4) 0.6963(8) 0.9714(4)
C9 C 0.0310(6) 0.6167(11) 0.9291(6)
H2 H 0.0406 0.5093 0.9299
H3 H 0.0208 0.6524 0.8807
O15 O 0.1635(4) 0.6540(8) 0.9722(3)
C18 C 0.5235(5) 0.9100(9) 0.9518(5)
O17 O 0.6658(3) 0.9761(7) 0.9199(4)
C21 C 0.4561(5) 0.8808(10) 0.9687(5)
O18 O 0.5379(8) 0.8339(18) 0.8990(10)
O19 O 0.4198(8) 0.7507(17) 0.9419(9)
H16 H 0.3819 0.7394 0.9581
Cd2_5 Cd 1.0000 -0.0000 0.0000
C26 C 0.9021(4) 0.3037(8) 0.0286(4)
C29 C 0.9690(6) 0.3833(11) 0.0709(6)
H18 H 0.9594 0.4907 0.0701
H19 H 0.9792 0.3476 0.1193
O30 O 0.8365(4) 0.3460(8) 0.0278(3)
Cd2_6 Cd 1.0000 -0.0000 1.0000
O10 O 0.9930(6) 0.4087(17) 0.7222(6)
H6 H 0.9944 0.4400 0.6823
O12 O 0.9923(6) 0.2828(15) 0.8380(6)
H7 H 0.9934 0.2214 0.8703
O24 O 0.9126(3) 0.1850(6) 0.9946(3)
O25 O 0.7642(4) 0.2663(7) 0.8585(3)
C32 C 0.7987(8) 0.2614(13) 0.8073(7)
H20 H 0.8508 0.2483 0.8222
N2 N 0.7770(5) 0.2704(13) 0.7442(4)
C33 C 0.8181(12) 0.258(2) 0.6887(10)
H25 H 0.7970 0.1772 0.6567
H26 H 0.8146 0.3519 0.6628
H27 H 0.8703 0.2359 0.7095
C34 C 0.6962(10) 0.312(4) 0.7167(14)
H28 H 0.6686 0.2942 0.7531
H29 H 0.6928 0.4178 0.7037
H30 H 0.6752 0.2514 0.6755
Cd8_2 Cd 1.0000 0.5000 0.5000
Cd2_7 Cd 1.0000 1.0000 0.0000
O20 O 0.9237(3) 0.8402(6) 0.0448(3)
C22 C 0.8829(4) 0.5804(8) 0.3494(3)
C23 C 0.8707(4) 0.7827(8) 0.1440(3)
O21 O 0.8217(3) 0.5658(6) 0.3703(3)
O22 O 0.8092(3) 0.9335(7) 0.0472(3)
C24 C 0.9414(4) 0.6508(9) 0.2475(4)
O23 O 0.9464(3) 0.5387(7) 0.3837(3)
C25 C 0.9380(4) 0.7174(8) 0.1816(4)
C27 C 0.8114(4) 0.7131(10) 0.2394(4)
C28 C 0.8673(4) 0.8575(8) 0.0733(3)
C30 C 0.8080(4) 0.7819(9) 0.1738(4)
C31 C 0.8780(4) 0.6492(8) 0.2772(3)
O26 O 0.7408(6) 0.8594(17) 0.1450(6)
H21 H 0.7430 0.8951 0.1060
O29 O 0.7449(7) 0.695(2) 0.2602(7)
H24 H 0.7537 0.6768 0.3032
Cd4 Cd 0.79134(3) 0.40703(5) 0.45242(2)
Cd2_8 Cd 1.0000 1.0000 1.0000
H1 H 0.9879 0.6365 0.9492
O31 O 0.8217(3) 0.9342(6) 0.8703(3)
O33 O 0.9464(3) 0.9613(7) 0.8837(3)
H1_2 H 0.0121 0.1365 0.5508
O10_2 O 0.0070(6) 0.9087(17) 0.7778(6)
H6_2 H 0.0056 0.9400 0.8177
O12_2 O 0.0077(6) 0.7828(15) 0.6620(6)
H7_2 H 0.0066 0.7214 0.6297
O20_2 O 0.0763(3) 0.3402(6) 0.4552(3)
C22_2 C 0.1171(4) 0.0804(8) 0.1506(3)
C23_2 C 0.1293(4) 0.2827(8) 0.3560(3)
O22_2 O 0.1908(3) 0.4335(7) 0.4528(3)
C24_2 C 0.0586(4) 0.1508(9) 0.2525(4)
O24_2 O 0.0874(3) 0.6850(6) 0.5054(3)
C25_2 C 0.0620(4) 0.2174(8) 0.3184(4)
C26_2 C 0.0979(4) 0.8037(8) 0.4714(4)
C27_2 C 0.1886(4) 0.2131(10) 0.2606(4)
C28_2 C 0.1327(4) 0.3575(8) 0.4267(3)
C29_2 C 0.0310(6) 0.8833(11) 0.4291(6)
H18_2 H 0.0406 0.9907 0.4299
H19_2 H 0.0208 0.8476 0.3807
C30_2 C 0.1920(4) 0.2819(9) 0.3262(4)
C31_2 C 0.1220(4) 0.1492(8) 0.2228(3)
O25_2 O 0.2358(4) 0.7663(7) 0.6415(3)
C32_2 C 0.2013(8) 0.7614(13) 0.6927(7)
H20_2 H 0.1492 0.7483 0.6778
N2_2 N 0.2230(5) 0.7704(13) 0.7558(4)
O26_2 O 0.2592(6) 0.3594(17) 0.3550(6)
H21_2 H 0.2570 0.3951 0.3940
O29_2 O 0.2551(7) 0.195(2) 0.2398(7)
H24_2 H 0.2463 0.1768 0.1968
C33_2 C 0.1819(12) 0.758(2) 0.8113(10)
H25_2 H 0.2030 0.6772 0.8433
H26_2 H 0.1854 0.8519 0.8372
H27_2 H 0.1297 0.7359 0.7905
C34_2 C 0.3038(10) 0.812(4) 0.7833(14)
H28_2 H 0.3314 0.7942 0.7469
H29_2 H 0.3072 0.9178 0.7963
H30_2 H 0.3248 0.7514 0.8245
O30_2 O 0.1635(4) 0.8460(8) 0.4722(3)
O35 O 0.3169(3) 0.6736(7) 0.5087(4)
O36 O 0.3342(3) 0.4761(7) 0.5801(4)
O1_2 O 0.9237(3) 0.6598(6) 0.5448(3)
C1_2 C 0.8829(4) 0.9196(8) 0.8494(3)
C2_2 C 0.8707(4) 0.7173(8) 0.6440(3)
O3_2 O 0.8092(3) 0.5665(7) 0.5472(3)
C3_2 C 0.9414(4) 0.8492(9) 0.7475(4)
O5_2 O 0.9126(3) 0.3150(6) 0.4946(3)
C4_2 C 0.9380(4) 0.7826(8) 0.6816(4)
C5_2 C 0.9021(4) 0.1963(8) 0.5286(4)
O6_2 O 0.6831(3) 0.3264(7) 0.4913(4)
C6_2 C 0.8114(4) 0.7869(10) 0.7394(4)
C7_2 C 0.8673(4) 0.6425(8) 0.5733(3)
C8_2 C 0.5235(5) 0.5900(9) 0.4518(5)
O7_2 O 0.6658(3) 0.5239(7) 0.4199(4)
C9_2 C 0.9690(6) 0.1167(11) 0.5709(6)
H2_2 H 0.9594 0.0093 0.5701
H3_2 H 0.9792 0.1524 0.6193
C10_2 C 0.8080(4) 0.7181(9) 0.6738(4)
C11_2 C 0.8780(4) 0.8508(8) 0.7772(3)
C12_2 C 0.6442(4) 0.4371(10) 0.4624(5)
C13_2 C 0.5683(4) 0.4700(9) 0.4811(5)
O8_2 O 0.7642(4) 0.2337(7) 0.3585(3)
C14_2 C 0.7987(8) 0.2386(13) 0.3073(7)
H4_2 H 0.8508 0.2517 0.3222
N1_2 N 0.7770(5) 0.2296(13) 0.2442(4)
C15_2 C 0.4561(5) 0.6192(10) 0.4687(5)
O9_2 O 0.7408(6) 0.6406(17) 0.6450(6)
H5_2 H 0.7430 0.6049 0.6060
O11_2 O 0.5379(8) 0.6661(18) 0.3990(10)
O13_2 O 0.7449(7) 0.805(2) 0.7602(7)
H8_2 H 0.7537 0.8232 0.8032
O14_2 O 0.4198(8) 0.7493(17) 0.4419(9)
H9_2 H 0.3819 0.7606 0.4581
C16_2 C 0.8181(12) 0.242(2) 0.1887(10)
H10_2 H 0.7970 0.3228 0.1567
H11_2 H 0.8146 0.1481 0.1628
H12_2 H 0.8703 0.2641 0.2095
C17_2 C 0.6962(10) 0.188(4) 0.2167(14)
H13_2 H 0.6686 0.2058 0.2531
H14_2 H 0.6928 0.0822 0.2037
H15_2 H 0.6752 0.2486 0.1755
O15_2 O 0.8365(4) 0.1540(8) 0.5278(3)
C18_2 C 0.4765(5) 0.4100(9) 0.5482(5)
C19_2 C 0.3558(4) 0.5629(10) 0.5376(5)
C20_2 C 0.4317(4) 0.5300(9) 0.5189(5)
C21_2 C 0.5439(5) 0.3808(10) 0.5313(5)
O18_2 O 0.4621(8) 0.3339(18) 0.6010(10)
O19_2 O 0.5802(8) 0.2507(17) 0.5581(9)
H16_2 H 0.6181 0.2394 0.5419
H17_2 H 0.9879 0.8635 0.4492
O27_2 O 0.9930(6) 0.0913(17) 0.2222(6)
H22_2 H 0.9944 0.0600 0.1823
O28_2 O 0.9923(6) 0.2172(15) 0.3380(6)
H23_2 H 0.9934 0.2786 0.3703
N3 N 0.2858(5) 0.0082(8) 0.5486(4)
C35 C 0.3130(8) 0.0735(14) 0.4888(8)
H34 H 0.3596 0.1268 0.5067
H35 H 0.2758 0.1430 0.4631
C36 C 0.2508(9) 0.1244(12) 0.5847(8)
H36 H 0.2208 0.1908 0.5499
H37 H 0.2896 0.1823 0.6158
H38 H 0.2191 0.0768 0.6122
H31 H 0.2517 0.9346 0.5323
H32 H 0.3248 0.9659 0.5799
H33 H 0.3213 0.9936 0.4574
C35_2 C 0.6870(8) 0.5735(14) 0.0112(8)
H33_2 H 0.6787 0.4936 0.0426
H35_2 H 0.7242 0.6430 0.0369
N3_2 N 0.7142(5) 0.5082(8) 0.9514(4)
H31_2 H 0.7483 0.4346 0.9677
H32_2 H 0.6752 0.4659 0.9201
H34_2 H 0.6404 0.6268 0.9933
C36_2 C 0.7492(9) 0.6244(12) 0.9153(8)
H36_2 H 0.7792 0.6908 0.9501
H37_2 H 0.7104 0.6823 0.8842
H38_2 H 0.7809 0.5768 0.8878
H31_3 H 0.7483 0.0654 0.4677
H32_3 H 0.6752 0.0341 0.4201
H33_3 H 0.6787 0.0064 0.5426
N3_3 N 0.7142(5) 0.9918(8) 0.4514(4)
C35_3 C 0.6870(8) 0.9265(14) 0.5112(8)
H34_3 H 0.6404 0.8732 0.4933
H35_3 H 0.7242 0.8570 0.5369
C36_3 C 0.7492(9) 0.8756(12) 0.4153(8)
H36_3 H 0.7792 0.8092 0.4501
H37_3 H 0.7104 0.8177 0.3842
H38_3 H 0.7809 0.9232 0.3878
N3_4 N 0.2858(5) 0.4918(8) 0.0486(4)
H31_4 H 0.2517 0.5654 0.0323
H32_4 H 0.3248 0.5341 0.0799
H34_4 H 0.3596 0.3732 0.0067
C36_4 C 0.2508(9) 0.3756(12) 0.0847(8)
H36_4 H 0.2208 0.3092 0.0499
H37_4 H 0.2896 0.3177 0.1158
H38_4 H 0.2191 0.4232 0.1122
C35_4 C 0.3130(8) 0.4265(14) 0.9888(8)
H33_4 H 0.3213 0.5064 0.9574
H35_4 H 0.2758 0.3570 0.9631
loop_
_geom_bond_atom_site_label_1
_geom_bond_atom_site_label_2
_geom_bond_site_symmetry_1
_geom_bond_site_symmetry_2
C15 C8 1_555 1_555
O11 C8 1_555 1_555
O14 C15 1_555 1_555
H9 O14 1_555 1_555
O34 Cd2 1_555 1_555
Cd2_2 O1 1_555 1_555
O1 C7 1_555 1_555
C1 O2 1_555 1_555
C2 C4 1_555 1_555
O2 Cd6 1_555 1_555
O3 C7 1_555 1_555
C3 C4 1_555 1_555
O4 C1 1_555 1_555
C6 C10 1_555 1_555
C7 C2 1_555 1_555
C10 C2 1_555 1_555
C11 C1 1_555 1_555
O9 C10 1_555 1_555
H5 O9 1_555 1_555
O13 C6 1_555 1_555
H8 O13 1_555 1_555
O16 C19 1_555 1_555
C19 C20 1_555 1_555
Cd5 O16 1_555 1_555
Cd8 O4 1_555 1_555
C3 C11 1_555 1_555
C6 C11 1_555 1_555
O5 Cd1 1_555 1_555
O6 Cd1 1_555 1_555
C12 O6 1_555 1_555
C13 C12 1_555 1_555
O8 Cd1 1_555 1_555
C14 O8 1_555 1_555
H4 C14 1_555 1_555
N1 C14 1_555 1_555
C16 N1 1_555 1_555
H10 C16 1_555 1_555
H11 C16 1_555 1_555
H12 C16 1_555 1_555
C17 N1 1_555 1_555
H13 C17 1_555 1_555
H14 C17 1_555 1_555
H15 C17 1_555 1_555
H22 O27 1_555 1_555
O28 H23 1_555 1_555
Cd2_3 O5 1_555 1_555
C9 C5 1_555 1_555
H2 C9 1_555 1_555
H3 C9 1_555 1_555
O18 C18 1_555 1_555
O19 C21 1_555 1_555
H16 O19 1_555 1_555
C5 O15 1_555 1_555
C18 C21 1_555 1_555
C29 C26 1_555 1_555
H18 C29 1_555 1_555
H19 C29 1_555 1_555
C26 O30 1_555 1_555
H6 O10 1_555 1_555
O12 H7 1_555 1_555
O24 Cd2_6 1_555 1_555
O25 Cd5 1_555 1_555
C32 O25 1_555 1_555
H20 C32 1_555 1_555
N2 C32 1_555 1_555
C33 N2 1_555 1_555
H25 C33 1_555 1_555
H26 C33 1_555 1_555
H27 C33 1_555 1_555
C34 N2 1_555 1_555
H28 C34 1_555 1_555
H29 C34 1_555 1_555
H30 C34 1_555 1_555
Cd5 O24 1_555 1_555
O20 Cd2_7 1_555 1_555
C22 O21 1_555 1_555
C23 C25 1_555 1_555
O21 Cd4 1_555 1_555
O22 C28 1_555 1_555
C24 C25 1_555 1_555
O23 C22 1_555 1_555
C27 C30 1_555 1_555
C28 O20 1_555 1_555
C30 C23 1_555 1_555
C31 C22 1_555 1_555
O26 C30 1_555 1_555
H21 O26 1_555 1_555
O29 C27 1_555 1_555
H24 O29 1_555 1_555
Cd8_2 O23 1_555 1_555
C23 C28 1_555 1_555
C24 C31 1_555 1_555
C27 C31 1_555 1_555
O33 Cd2_8 1_555 1_555
H6_2 O10_2 1_555 1_555
O12_2 H7_2 1_555 1_555
Cd6 O22_2 1_555 1_555
O20_2 Cd8 1_555 1_555
C22_2 O32 1_555 1_555
C23_2 C25_2 1_555 1_555
O22_2 C28_2 1_555 1_555
C24_2 C25_2 1_555 1_555
O34 C22_2 1_555 1_555
O24_2 Cd8 1_555 1_555
C26_2 O24_2 1_555 1_555
C27_2 C30_2 1_555 1_555
C28_2 O20_2 1_555 1_555
C29_2 C26_2 1_555 1_555
H18_2 C29_2 1_555 1_555
H19_2 C29_2 1_555 1_555
C30_2 C23_2 1_555 1_555
C31_2 C22_2 1_555 1_555
O25_2 Cd6 1_555 1_555
C32_2 O25_2 1_555 1_555
H20_2 C32_2 1_555 1_555
N2_2 C32_2 1_555 1_555
O26_2 C30_2 1_555 1_555
H21_2 O26_2 1_555 1_555
O29_2 C27_2 1_555 1_555
H24_2 O29_2 1_555 1_555
C33_2 N2_2 1_555 1_555
H25_2 C33_2 1_555 1_555
H26_2 C33_2 1_555 1_555
H27_2 C33_2 1_555 1_555
C34_2 N2_2 1_555 1_555
H28_2 C34_2 1_555 1_555
H29_2 C34_2 1_555 1_555
H30_2 C34_2 1_555 1_555
O30_2 Cd6 1_555 1_555
O35 Cd6 1_555 1_555
O36 Cd6 1_555 1_555
Cd6 O24_2 1_555 1_555
C23_2 C28_2 1_555 1_555
C24_2 C31_2 1_555 1_555
C26_2 O30_2 1_555 1_555
C27_2 C31_2 1_555 1_555
Cd4 O3_2 1_555 1_555
Cd8_2 O1_2 1_555 1_555
O1_2 C7_2 1_555 1_555
C1_2 O31 1_555 1_555
C2_2 C4_2 1_555 1_555
O3_2 C7_2 1_555 1_555
C3_2 C4_2 1_555 1_555
O33 C1_2 1_555 1_555
O5_2 Cd4 1_555 1_555
C5_2 O5_2 1_555 1_555
O6_2 Cd4 1_555 1_555
C6_2 C10_2 1_555 1_555
C7_2 C2_2 1_555 1_555
C8_2 C13_2 1_555 1_555
O7_2 Cd4 1_555 1_555
C9_2 C5_2 1_555 1_555
H2_2 C9_2 1_555 1_555
H3_2 C9_2 1_555 1_555
C10_2 C2_2 1_555 1_555
C11_2 C1_2 1_555 1_555
C12_2 O6_2 1_555 1_555
C13_2 C12_2 1_555 1_555
O8_2 Cd4 1_555 1_555
C14_2 O8_2 1_555 1_555
H4_2 C14_2 1_555 1_555
N1_2 C14_2 1_555 1_555
C15_2 C8_2 1_555 1_555
O9_2 C10_2 1_555 1_555
H5_2 O9_2 1_555 1_555
O11_2 C8_2 1_555 1_555
O13_2 C6_2 1_555 1_555
H8_2 O13_2 1_555 1_555
O14_2 C15_2 1_555 1_555
H9_2 O14_2 1_555 1_555
C16_2 N1_2 1_555 1_555
H10_2 C16_2 1_555 1_555
H11_2 C16_2 1_555 1_555
H12_2 C16_2 1_555 1_555
C17_2 N1_2 1_555 1_555
H13_2 C17_2 1_555 1_555
H14_2 C17_2 1_555 1_555
H15_2 C17_2 1_555 1_555
O15_2 Cd4 1_555 1_555
O35 C19_2 1_555 1_555
C18_2 C20_2 1_555 1_555
O36 C19_2 1_555 1_555
C19_2 C20_2 1_555 1_555
C20_2 C15_2 1_555 1_555
C21_2 C13_2 1_555 1_555
O18_2 C18_2 1_555 1_555
O19_2 C21_2 1_555 1_555
H16_2 O19_2 1_555 1_555
H22_2 O27_2 1_555 1_555
O28_2 H23_2 1_555 1_555
Cd8_2 O5_2 1_555 1_555
C3_2 C11_2 1_555 1_555
C5_2 O15_2 1_555 1_555
C6_2 C11_2 1_555 1_555
O7_2 C12_2 1_555 1_555
C18_2 C21_2 1_555 1_555
C35 N3 1_555 1_555
H34 C35 1_555 1_555
H35 C35 1_555 1_555
C36 N3 1_555 1_555
H36 C36 1_555 1_555
H37 C36 1_555 1_555
H38 C36 1_555 1_555
H33_2 C35_2 1_555 1_555
H35_2 C35_2 1_555 1_555
N3_2 H31_2 1_555 1_555
H32_2 N3_2 1_555 1_555
C36_2 N3_2 1_555 1_555
H36_2 C36_2 1_555 1_555
H37_2 C36_2 1_555 1_555
H38_2 C36_2 1_555 1_555
C35_3 N3_3 1_555 1_555
H34_3 C35_3 1_555 1_555
H35_3 C35_3 1_555 1_555
C36_3 N3_3 1_555 1_555
H36_3 C36_3 1_555 1_555
H37_3 C36_3 1_555 1_555
H38_3 C36_3 1_555 1_555
N3_4 H31_4 1_555 1_555
H32_4 N3_4 1_555 1_555
C36_4 N3_4 1_555 1_555
H36_4 C36_4 1_555 1_555
H37_4 C36_4 1_555 1_555
H38_4 C36_4 1_555 1_555
H33_4 C35_4 1_555 1_555
H35_4 C35_4 1_555 1_555

#END
