
###############################################################################
#
# This file contains modified crystal structure data generated from the
# MOF subset of the Cambridge Structural Database (CSD) v543 
# hosted by the Cambridge Crystallographic Data Centre (CCDC).
#
# This work is licensed under the Creative Commons
# Attribution-NonCommercial-ShareAlike 4.0 International License.
# To view a copy of this license, visit
# http://creativecommons.org/licenses/by-nc-sa/4.0/
# or send a letter to
# Creative Commons, PO Box 1866, Mountain View, CA 94042, USA.
#
# CIF created using the CSD Python API on 29 September 2022
# The structure has been converted into the P1 space group
# The structure has a 3D framework
# The original CSD entry VOBTAJ02 is in the hexagonal crystal system
# The original CSD entry VOBTAJ02 is in a Sohncke space group
# The framework has been calculated to contain at least 10.0% void space
# The void calculation uses a probe of radius 1.32A, grid spacing 0.4
#
###############################################################################

data_VOBTAJ02
_chemical_formula_moiety         '(C18 H36 Cu18 N82)n'
_symmetry_cell_setting           triclinic
_symmetry_space_group_name_H-M   'P 1'
_symmetry_Int_Tables_number      1
_space_group_name_Hall           'P 1'
loop_
_symmetry_equiv_pos_site_id
_symmetry_equiv_pos_as_xyz
1 x,y,z
_cell_length_a                   11.4708(6)
_cell_length_b                   11.4708(6)
_cell_length_c                   18.4672(17)
_cell_angle_alpha                90
_cell_angle_beta                 90
_cell_angle_gamma                120
_cell_volume                     2104.36
loop_
_atom_site_label
_atom_site_type_symbol
_atom_site_fract_x
_atom_site_fract_y
_atom_site_fract_z
Cu1 Cu 0.10136(6) 0.41001(6) 0.06108(4)
N2 N 0.2982(3) 0.7018(3) 0.0833
N5 N 0.1979(5) 0.6069(5) 0.0672(3)
N6 N 0.3943(4) 0.3125(5) 0.0972(3)
N8 N 0.1981(6) 0.3117(7) 0.0657(3)
N9 N 0.3004(4) 0.3174(5) 0.0811(2)
N12 N 0.3931(5) 0.8021(5) 0.0995(3)
Cu4 Cu 0.41001(6) 0.30865(8) 0.22775(4)
Cu6 Cu 0.58999(6) 0.89864(6) 0.10559(4)
Cu8 Cu 0.59084(4) 0.40916(4) 0.0833
N18 N 0.0818(6) 0.3943(4) 0.9305(3)
N1 N 0.8988(3) 0.3074(3) 0.0792(2)
N3 N 0.6923(2) 0.3077(2) 0.0833
N4 N 0.8945(3) 0.1055(3) 0.0833
H1 H 0.9849 0.1499 0.0806
C1 C 0.8284(3) 0.1716(3) 0.0833
N7 N 0.8937(4) 0.5034(4) 0.0779(3)
H2 H 0.9802 0.5466 0.0762
H3 H 0.8504 0.5466 0.0782
C2 C 0.8272(4) 0.3701(4) 0.0799(2)
N10 N 0.6926(3) 0.1012(3) 0.0875(2)
H4 H 0.8501 0.0151 0.0861
N11 N 0.4966(4) 0.1063(4) 0.0888(3)
H5 H 0.4534 0.0198 0.0905
H6 H 0.4534 0.1496 0.0885
C3 C 0.6299(4) 0.1728(4) 0.0868(2)
N20 N 0.6875(5) 0.6057(4) 0.0695(3)
N14 N 0.6883(7) 0.8019(6) 0.1010(3)
N15 N 0.6826(5) 0.6996(4) 0.0856(2)
N19 N 0.6057(4) 0.9182(6) 0.2361(3)
Cu5 Cu 0.69135(8) 0.58999(6) 0.93892(4)
N13 N 0.3943(4) 0.0818(6) 0.7361(3)
Cu5_2 Cu 0.41001(6) 0.10136(10) 0.60559(4)
Cu7 Cu 0.59084(4) 0.18168(6) 0.7500
Cu3 Cu 0.10136(6) 0.69135(8) 0.77225(4)
N14_2 N 0.1981(6) 0.8864(9) 0.7676(3)
N15_2 N 0.3004(4) 0.9830(6) 0.7522(2)
N16 N 0.1979(5) 0.5910(7) 0.7661(3)
N19_2 N 0.0818(6) 0.6875(7) 0.9028(3)
N6_2 N 0.6875(5) 0.0818(6) 0.7639(3)
Cu4_2 Cu 0.69135(8) 0.10136(10) 0.89441(4)
Cu1_2 Cu 0.58999(6) 0.69135(8) 0.72775(4)
N1_2 N 0.6926(3) 0.5914(4) 0.7459(2)
N2_2 N 0.2982(3) 0.5964(4) 0.7500
N3_2 N 0.6923(2) 0.3846(3) 0.7500
N4_2 N 0.8945(3) 0.7890(4) 0.7500
H1_2 H 0.8501 0.8350 0.7473
N5_2 N 0.3931(5) 0.5910(7) 0.7339(3)
C1_2 C 0.8284(3) 0.6568(4) 0.7500
N7_2 N 0.4966(4) 0.3903(6) 0.7446(3)
H2_2 H 0.4534 0.4336 0.7429
H3_2 H 0.4534 0.3038 0.7449
C2_2 C 0.6299(4) 0.4571(6) 0.7466(2)
N8_2 N 0.6883(7) 0.8864(9) 0.7324(3)
N9_2 N 0.6826(5) 0.9830(6) 0.7478(2)
N10_2 N 0.8988(3) 0.5914(4) 0.7541(2)
H4_2 H 0.9849 0.8350 0.7527
N11_2 N 0.8937(4) 0.3903(6) 0.7554(3)
H5_2 H 0.9802 0.4336 0.7571
H6_2 H 0.8504 0.3038 0.7551
C3_2 C 0.8272(4) 0.4571(6) 0.7534(2)
N18_2 N 0.6057(4) 0.6875(7) 0.5972(3)
Cu2 Cu 0.81832(6) 0.40916(4) 0.4166
N1_3 N 0.4086(4) 0.1012(3) 0.4125(2)
N3_3 N 0.6154(3) 0.3077(2) 0.4166
N4_3 N 0.2110(4) 0.1055(3) 0.4166
H1_3 H 0.1650 0.0151 0.4139
C1_3 C 0.3432(4) 0.1716(3) 0.4166
N7_3 N 0.6097(6) 0.1063(4) 0.4112(3)
H2_3 H 0.5664 0.0198 0.4095
H3_3 H 0.6962 0.1496 0.4115
C2_3 C 0.5429(6) 0.1728(4) 0.4132(2)
N10_3 N 0.4086(4) 0.3074(3) 0.4208(2)
H4_3 H 0.1650 0.1499 0.4194
N11_3 N 0.6097(6) 0.5034(4) 0.4221(3)
H5_3 H 0.5664 0.5466 0.4238
H6_3 H 0.6962 0.5466 0.4218
C3_3 C 0.5429(6) 0.3701(4) 0.4201(2)
Cu3_2 Cu 0.30865(8) 0.41001(6) 0.43892(4)
N14_3 N 0.1136(9) 0.3117(7) 0.4343(3)
N15_3 N 0.0170(6) 0.3174(5) 0.4189(2)
N16_2 N 0.4090(7) 0.6069(5) 0.4328(3)
N17 N 0.9182(6) 0.6057(4) 0.4305(3)
N19_3 N 0.3125(7) 0.3943(4) 0.5695(3)
N20_2 N 0.9182(6) 0.3125(5) 0.4028(3)
Cu1_3 Cu 0.30865(8) 0.89864(6) 0.39441(4)
N2_3 N 0.4036(4) 0.7018(3) 0.4166
N5_3 N 0.4090(7) 0.8021(5) 0.4005(3)
N8_3 N 0.1136(9) 0.8019(6) 0.3990(3)
N9_3 N 0.0170(6) 0.6996(4) 0.4144(2)
N18_3 N 0.3125(7) 0.9182(6) 0.2639(3)
Cu5_3 Cu 0.89864(10) 0.30865(8) 0.27225(4)
Cu4_3 Cu 0.89864(10) 0.58999(6) 0.56108(4)
N14_4 N 0.3117(7) 0.1981(6) 0.6010(3)
N15_4 N 0.3174(5) 0.3004(4) 0.5856(2)
Cu7_2 Cu 0.40916(4) 0.59084(4) 0.5833
N16_3 N 0.6069(5) 0.1979(5) 0.5995(3)
N1_4 N 0.1012(3) 0.6926(3) 0.5792(2)
N3_4 N 0.3077(2) 0.6923(2) 0.5833
N4_4 N 0.1055(3) 0.8945(3) 0.5833
H1_4 H 0.0151 0.8501 0.5806
C1_4 C 0.1716(3) 0.8284(3) 0.5833
N7_4 N 0.1063(4) 0.4966(4) 0.5779(3)
H2_4 H 0.0198 0.4534 0.5762
H3_4 H 0.1496 0.4534 0.5782
C2_4 C 0.1728(4) 0.6299(4) 0.5799(2)
N10_4 N 0.3074(3) 0.8988(3) 0.5875(2)
H4_4 H 0.1499 0.9849 0.5861
N11_4 N 0.5034(4) 0.8937(4) 0.5888(3)
H5_4 H 0.5466 0.9802 0.5905
H6_4 H 0.5466 0.8504 0.5885
C3_4 C 0.3701(4) 0.8272(4) 0.5868(2)
N2_4 N 0.7018(3) 0.2982(3) 0.5833
N5_4 N 0.8021(5) 0.3931(5) 0.5672(3)
N8_4 N 0.8019(6) 0.6883(7) 0.5657(3)
N9_4 N 0.6996(4) 0.6826(5) 0.5811(2)
Cu2_2 Cu 0.40916(4) 0.81832(6) 0.2500
N1_5 N 0.3074(3) 0.4086(4) 0.2459(2)
N2_5 N 0.7018(3) 0.4036(4) 0.2500
N3_5 N 0.3077(2) 0.6154(3) 0.2500
N4_5 N 0.1055(3) 0.2110(4) 0.2500
H1_5 H 0.1499 0.1650 0.2473
N5_5 N 0.6069(5) 0.4090(7) 0.2339(3)
C1_5 C 0.1716(3) 0.3432(4) 0.2500
N7_5 N 0.5034(4) 0.6097(6) 0.2446(3)
H2_5 H 0.5466 0.5664 0.2429
H3_5 H 0.5466 0.6962 0.2449
C2_5 C 0.3701(4) 0.5429(6) 0.2466(2)
N8_5 N 0.3117(7) 0.1136(9) 0.2324(3)
N9_5 N 0.3174(5) 0.0170(6) 0.2478(2)
N10_5 N 0.1012(3) 0.4086(4) 0.2541(2)
H4_5 H 0.0151 0.1650 0.2527
N11_5 N 0.1063(4) 0.6097(6) 0.2554(3)
H5_5 H 0.0198 0.5664 0.2571
H6_5 H 0.1496 0.6962 0.2551
C3_5 C 0.1728(4) 0.5429(6) 0.2534(2)
N12_2 N 0.8021(5) 0.4090(7) 0.2661(3)
N14_5 N 0.8019(6) 0.1136(9) 0.2676(3)
N15_5 N 0.6996(4) 0.0170(6) 0.2522(2)
Cu8_2 Cu 0.18168(6) 0.59084(4) 0.9166
N2_6 N 0.5964(4) 0.2982(3) 0.9166
N5_6 N 0.5910(7) 0.1979(5) 0.9005(3)
N8_6 N 0.8864(9) 0.1981(6) 0.8990(3)
N9_6 N 0.9830(6) 0.3004(4) 0.9144(2)
N12_3 N 0.5910(7) 0.3931(5) 0.9328(3)
N1_6 N 0.5914(4) 0.8988(3) 0.9125(2)
N3_6 N 0.3846(3) 0.6923(2) 0.9166
N4_6 N 0.7890(4) 0.8945(3) 0.9166
H1_6 H 0.8350 0.9849 0.9139
C1_6 C 0.6568(4) 0.8284(3) 0.9166
N7_6 N 0.3903(6) 0.8937(4) 0.9112(3)
H2_6 H 0.4336 0.9802 0.9095
H3_6 H 0.3038 0.8504 0.9115
C2_6 C 0.4571(6) 0.8272(4) 0.9132(2)
N10_6 N 0.5914(4) 0.6926(3) 0.9208(2)
H4_6 H 0.8350 0.8501 0.9194
N11_6 N 0.3903(6) 0.4966(4) 0.9221(3)
H5_6 H 0.4336 0.4534 0.9238
H6_6 H 0.3038 0.4534 0.9218
C3_6 C 0.4571(6) 0.6299(4) 0.9201(2)
N14_6 N 0.8864(9) 0.6883(7) 0.9343(3)
N15_6 N 0.9830(6) 0.6826(5) 0.9189(2)
loop_
_geom_bond_atom_site_label_1
_geom_bond_atom_site_label_2
_geom_bond_site_symmetry_1
_geom_bond_site_symmetry_2
N2 N5 1_555 1_555
N5 Cu1 1_555 1_555
N6 N9 1_555 1_555
N8 Cu1 1_555 1_555
N9 N8 1_555 1_555
N12 N2 1_555 1_555
Cu4 N6 1_555 1_555
Cu6 N12 1_555 1_555
Cu8 N6 1_555 1_555
Cu8 N3 1_555 1_555
N1 C1 1_555 1_555
N3 C2 1_555 1_555
N4 H1 1_555 1_555
C1 N4 1_555 1_555
N7 H2 1_555 1_555
H3 N7 1_555 1_555
C2 N1 1_555 1_555
N10 C1 1_555 1_555
H4 N4 1_555 1_555
N11 H5 1_555 1_555
H6 N11 1_555 1_555
C3 N3 1_555 1_555
N20 Cu8 1_555 1_555
N7 C2 1_555 1_555
N10 C3 1_555 1_555
N11 C3 1_555 1_555
N20 N15 1_555 1_555
N14 Cu6 1_555 1_555
N15 N14 1_555 1_555
N19 Cu6 1_555 1_555
Cu5_2 N13 1_555 1_555
Cu7 N13 1_555 1_555
N14_2 Cu3 1_555 1_555
N15_2 N14_2 1_555 1_555
N16 Cu3 1_555 1_555
N19_2 Cu3 1_555 1_555
Cu4_2 N6_2 1_555 1_555
Cu7 N6_2 1_555 1_555
Cu1_2 N1_2 1_555 1_555
Cu7 N3_2 1_555 1_555
N1_2 C1_2 1_555 1_555
N2_2 N5_2 1_555 1_555
N3_2 C2_2 1_555 1_555
N4_2 H1_2 1_555 1_555
N5_2 Cu1_2 1_555 1_555
C1_2 N4_2 1_555 1_555
N7_2 H2_2 1_555 1_555
H3_2 N7_2 1_555 1_555
C2_2 N1_2 1_555 1_555
N8_2 Cu1_2 1_555 1_555
N9_2 N8_2 1_555 1_555
N10_2 C1_2 1_555 1_555
H4_2 N4_2 1_555 1_555
N11_2 H5_2 1_555 1_555
H6_2 N11_2 1_555 1_555
C3_2 N3_2 1_555 1_555
N16 N2_2 1_555 1_555
N18_2 Cu1_2 1_555 1_555
N7_2 C2_2 1_555 1_555
N10_2 C3_2 1_555 1_555
N11_2 C3_2 1_555 1_555
Cu2 N3_3 1_555 1_555
N1_3 C1_3 1_555 1_555
N3_3 C2_3 1_555 1_555
N4_3 H1_3 1_555 1_555
C1_3 N4_3 1_555 1_555
N7_3 H2_3 1_555 1_555
H3_3 N7_3 1_555 1_555
C2_3 N1_3 1_555 1_555
N10_3 C1_3 1_555 1_555
H4_3 N4_3 1_555 1_555
N11_3 H5_3 1_555 1_555
H6_3 N11_3 1_555 1_555
C3_3 N3_3 1_555 1_555
Cu3_2 N10_3 1_555 1_555
N14_3 Cu3_2 1_555 1_555
N15_3 N14_3 1_555 1_555
N16_2 Cu3_2 1_555 1_555
N17 Cu2 1_555 1_555
N19_3 Cu3_2 1_555 1_555
N20_2 Cu2 1_555 1_555
N7_3 C2_3 1_555 1_555
N10_3 C3_3 1_555 1_555
N11_3 C3_3 1_555 1_555
N2_3 N5_3 1_555 1_555
N5_3 Cu1_3 1_555 1_555
N8_3 Cu1_3 1_555 1_555
N9_3 N8_3 1_555 1_555
N16_2 N2_3 1_555 1_555
N18_3 Cu1_3 1_555 1_555
Cu5_3 N20_2 1_555 1_555
Cu4_3 N17 1_555 1_555
N19_3 N15_4 1_555 1_555
N14_4 Cu5_2 1_555 1_555
N15_4 N14_4 1_555 1_555
Cu7_2 N19_3 1_555 1_555
N16_3 Cu5_2 1_555 1_555
Cu7_2 N3_4 1_555 1_555
N1_4 C1_4 1_555 1_555
N3_4 C2_4 1_555 1_555
N4_4 H1_4 1_555 1_555
C1_4 N4_4 1_555 1_555
N7_4 H2_4 1_555 1_555
H3_4 N7_4 1_555 1_555
C2_4 N1_4 1_555 1_555
N10_4 C1_4 1_555 1_555
H4_4 N4_4 1_555 1_555
N11_4 H5_4 1_555 1_555
H6_4 N11_4 1_555 1_555
C3_4 N3_4 1_555 1_555
N18_2 Cu7_2 1_555 1_555
N7_4 C2_4 1_555 1_555
N10_4 C3_4 1_555 1_555
N11_4 C3_4 1_555 1_555
N2_4 N5_4 1_555 1_555
N5_4 Cu4_3 1_555 1_555
N18_2 N9_4 1_555 1_555
N8_4 Cu4_3 1_555 1_555
N9_4 N8_4 1_555 1_555
N16_3 N2_4 1_555 1_555
Cu4 N1_5 1_555 1_555
Cu2_2 N3_5 1_555 1_555
N1_5 C1_5 1_555 1_555
N2_5 N5_5 1_555 1_555
N3_5 C2_5 1_555 1_555
N4_5 H1_5 1_555 1_555
N5_5 Cu4 1_555 1_555
C1_5 N4_5 1_555 1_555
N7_5 H2_5 1_555 1_555
H3_5 N7_5 1_555 1_555
C2_5 N1_5 1_555 1_555
N8_5 Cu4 1_555 1_555
N9_5 N8_5 1_555 1_555
N10_5 C1_5 1_555 1_555
H4_5 N4_5 1_555 1_555
N11_5 H5_5 1_555 1_555
H6_5 N11_5 1_555 1_555
C3_5 N3_5 1_555 1_555
N12_2 N2_5 1_555 1_555
Cu5_3 N12_2 1_555 1_555
N18_3 Cu2_2 1_555 1_555
N19 Cu2_2 1_555 1_555
N7_5 C2_5 1_555 1_555
N10_5 C3_5 1_555 1_555
N11_5 C3_5 1_555 1_555
N14_5 Cu5_3 1_555 1_555
N15_5 N14_5 1_555 1_555
Cu8_2 N18 1_555 1_555
Cu8_2 N19_2 1_555 1_555
N2_6 N5_6 1_555 1_555
N5_6 Cu4_2 1_555 1_555
N8_6 Cu4_2 1_555 1_555
N9_6 N8_6 1_555 1_555
N12_3 N2_6 1_555 1_555
Cu5 N12_3 1_555 1_555
Cu8_2 N3_6 1_555 1_555
N1_6 C1_6 1_555 1_555
N3_6 C2_6 1_555 1_555
N4_6 H1_6 1_555 1_555
C1_6 N4_6 1_555 1_555
N7_6 H2_6 1_555 1_555
H3_6 N7_6 1_555 1_555
C2_6 N1_6 1_555 1_555
N10_6 C1_6 1_555 1_555
H4_6 N4_6 1_555 1_555
N11_6 H5_6 1_555 1_555
H6_6 N11_6 1_555 1_555
C3_6 N3_6 1_555 1_555
Cu5 N10_6 1_555 1_555
N14_6 Cu5 1_555 1_555
N15_6 N14_6 1_555 1_555
N7_6 C2_6 1_555 1_555
N10_6 C3_6 1_555 1_555
N11_6 C3_6 1_555 1_555

#END
