
###############################################################################
#
# This file contains modified crystal structure data generated from the
# MOF subset of the Cambridge Structural Database (CSD) v543 
# hosted by the Cambridge Crystallographic Data Centre (CCDC).
#
# This work is licensed under the Creative Commons
# Attribution-NonCommercial-ShareAlike 4.0 International License.
# To view a copy of this license, visit
# http://creativecommons.org/licenses/by-nc-sa/4.0/
# or send a letter to
# Creative Commons, PO Box 1866, Mountain View, CA 94042, USA.
#
# CIF created using the CSD Python API on 29 September 2022
# The structure has been converted into the P1 space group
# The structure has a 3D framework
# The original CSD entry VOCNOQ is in the tetragonal crystal system
# The framework has been calculated to contain at least 10.0% void space
# The void calculation uses a probe of radius 1.32A, grid spacing 0.4
#
###############################################################################

data_VOCNOQ
_chemical_formula_moiety         '(C192 H128 N32 Ni16 O69)n'
_symmetry_cell_setting           triclinic
_symmetry_space_group_name_H-M   'P 1'
_symmetry_Int_Tables_number      1
_space_group_name_Hall           'P 1'
loop_
_symmetry_equiv_pos_site_id
_symmetry_equiv_pos_as_xyz
1 x,y,z
_cell_length_a                   20.0890(5)
_cell_length_b                   20.0890(5)
_cell_length_c                   14.0156(5)
_cell_angle_alpha                90
_cell_angle_beta                 90
_cell_angle_gamma                90
_cell_volume                     5656.25
loop_
_atom_site_label
_atom_site_type_symbol
_atom_site_fract_x
_atom_site_fract_y
_atom_site_fract_z
O19 O 0.02708(13) 0.12399(13) 0.72676(19)
N9 N 0.04734(17) 0.11753(15) 0.9335(2)
Ni9 Ni 0.03349(2) 0.88171(2) 0.15862(3)
Ni1 Ni 0.61829(2) 0.03349(2) 0.15862(3)
O1 O 0.60740(15) 0.09473(15) 0.03994(19)
O2 O 0.6051(3) 0.19520(18) 0.1034(3)
O3 O 0.51460(14) 0.03415(14) 0.15108(18)
O4 O 0.47292(13) 0.12399(13) 0.22676(19)
O5 O 0.61740(13) 0.11740(13) 0.2500
C1 C 0.5962(3) 0.1543(2) 0.0351(3)
C7 C 0.47481(19) 0.08206(19) 0.1595(3)
C8 C 0.42559(19) 0.0920(2) 0.0793(3)
C9 C 0.3878(3) 0.1486(3) 0.0686(4)
H5 H 0.3884 0.1829 0.1153
C12 C 0.42085(18) 0.04311(19) 0.0106(3)
H8 H 0.4466 0.0039 0.0188
O6 O 0.53415(14) 0.01460(14) 0.34892(18)
N4 N 0.72270(17) 0.03795(17) 0.1501(2)
C20 C 0.8183(2) 0.0679(2) 0.0577(3)
C21 C 0.8597(2) 0.0463(3) 0.1300(4)
H13 H 0.9067 0.0481 0.1230
C22 C 0.8320(3) 0.0224(3) 0.2112(4)
H14 H 0.8595 0.0083 0.2624
C23 C 0.7632(2) 0.0185(3) 0.2193(3)
H15 H 0.7446 0.0014 0.2765
C24 C 0.7509(2) 0.0613(2) 0.0702(3)
H16 H 0.7225 0.0740 0.0192
Ni3 Ni 0.53349(2) 0.11829(2) 0.34138(3)
O15 O 0.89260(15) 0.40527(15) 0.03994(19)
O16 O 0.8949(3) 0.30480(18) 0.1034(3)
C37 C 0.9038(3) 0.3457(2) 0.0351(3)
O20 O 0.59473(15) 0.10740(15) 0.46006(19)
N10 N 0.53795(17) 0.22270(17) 0.3499(2)
N11 N 0.45266(17) 0.11753(15) 0.4335(2)
Ni10 Ni 0.88171(2) 0.46651(2) 0.15862(3)
N1 N 0.53795(17) 0.27730(17) 0.8499(2)
N2 N 0.38247(15) 0.04734(17) 0.9335(2)
C2 C 0.5679(2) 0.1817(2) 0.9423(3)
C3 C 0.5463(3) 0.1403(2) 0.8700(4)
H1 H 0.5481 0.0933 0.8770
C4 C 0.5224(3) 0.1680(3) 0.7888(4)
H2 H 0.5083 0.1405 0.7376
C5 C 0.5185(3) 0.2368(2) 0.7807(3)
H3 H 0.5014 0.2554 0.7235
C6 C 0.5613(2) 0.2491(2) 0.9298(3)
H4 H 0.5740 0.2775 0.9808
C10 C 0.3488(4) 0.1540(3) 0.9876(4)
H6 H 0.3222 0.1926 0.9782
C11 C 0.3482(3) 0.1041(3) 0.9208(4)
H7 H 0.3229 0.1098 0.8641
O8 O 0.90527(15) 0.10740(15) 0.96006(19)
O9 O 0.80480(18) 0.1051(3) 0.8966(3)
C19 C 0.8457(2) 0.0962(3) 0.9649(3)
Ni2 Ni 0.96651(2) 0.11829(2) 0.84138(3)
O12 O 0.96585(14) 0.01460(14) 0.84892(18)
O14 O 0.88260(13) 0.11740(13) 0.7500
N7 N 0.96205(17) 0.22270(17) 0.8499(2)
C38 C 0.9321(2) 0.3183(2) 0.9423(3)
C39 C 0.9537(3) 0.3597(2) 0.8700(4)
H25 H 0.9519 0.4067 0.8770
C40 C 0.9776(3) 0.3320(3) 0.7888(4)
H26 H 0.9917 0.3595 0.7376
C41 C 0.9815(3) 0.2632(2) 0.7807(3)
H27 H 0.9986 0.2446 0.7235
C42 C 0.9387(2) 0.2509(2) 0.9298(3)
H28 H 0.9260 0.2225 0.9808
Ni5 Ni 0.53349(2) 0.38171(2) 0.84138(3)
O21 O 0.37601(13) 0.02708(13) 0.72676(19)
Ni8 Ni 0.88171(2) 0.03349(2) 0.65862(3)
O7 O 0.62399(13) 0.97292(13) 0.27324(19)
N3 N 0.54734(17) 0.88247(15) 0.5665(2)
C13 C 0.58206(19) 0.97481(19) 0.3405(3)
C14 C 0.5920(2) 0.92559(19) 0.4207(3)
C15 C 0.6486(3) 0.8878(3) 0.4314(4)
H9 H 0.6829 0.8884 0.3847
C16 C 0.6540(3) 0.8488(4) 0.5124(4)
H10 H 0.6926 0.8222 0.5218
C17 C 0.6041(3) 0.8482(3) 0.5792(4)
H11 H 0.6098 0.8229 0.6359
C18 C 0.54311(19) 0.92085(18) 0.4894(3)
H12 H 0.5039 0.9466 0.4812
N5 N 0.61753(15) 0.95266(17) 0.0665(2)
C28 C 0.6512(4) 0.8460(3) 0.0124(4)
H18 H 0.6778 0.8074 0.0218
C29 C 0.6518(3) 0.8959(3) 0.0792(4)
H19 H 0.6771 0.8902 0.1359
N6 N 0.95266(17) 0.88247(15) 0.0665(2)
C34 C 0.8460(3) 0.8488(4) 0.0124(4)
H22 H 0.8074 0.8222 0.0218
C35 C 0.8959(3) 0.8482(3) 0.0792(4)
H23 H 0.8902 0.8229 0.1359
N8 N 0.46205(17) 0.72270(17) 0.1501(2)
C44 C 0.4321(2) 0.8183(2) 0.0577(3)
C45 C 0.4537(3) 0.8597(2) 0.1300(4)
H29 H 0.4519 0.9067 0.1230
C46 C 0.4776(3) 0.8320(3) 0.2112(4)
H30 H 0.4917 0.8595 0.2624
C47 C 0.4815(3) 0.7632(2) 0.2193(3)
H31 H 0.4986 0.7446 0.2765
C48 C 0.4387(2) 0.7509(2) 0.0702(3)
H32 H 0.4260 0.7225 0.0192
Ni6 Ni 0.46651(2) 0.88171(2) 0.65862(3)
Ni11 Ni 0.46651(2) 0.61829(2) 0.15862(3)
O10 O 0.48540(14) 0.96585(14) 0.84892(18)
O11 O 0.52708(13) 0.87601(13) 0.77324(19)
C25 C 0.52519(19) 0.91794(19) 0.8405(3)
C26 C 0.57441(19) 0.9080(2) 0.9207(3)
C27 C 0.6122(3) 0.8514(3) 0.9314(4)
H17 H 0.6116 0.8171 0.8847
C30 C 0.57915(18) 0.95689(19) 0.9894(3)
H20 H 0.5534 0.9961 0.9812
Ni4 Ni 0.38171(2) 0.96651(2) 0.84138(3)
O13 O 0.87601(13) 0.97292(13) 0.77324(19)
C31 C 0.91794(19) 0.97481(19) 0.8405(3)
C32 C 0.9080(2) 0.92559(19) 0.9207(3)
C33 C 0.8514(3) 0.8878(3) 0.9314(4)
H21 H 0.8171 0.8884 0.8847
C36 C 0.95689(19) 0.92085(18) 0.9894(3)
H24 H 0.9961 0.9466 0.9812
O17 O 0.39260(15) 0.90527(15) 0.96006(19)
O18 O 0.3949(3) 0.80480(18) 0.8966(3)
C43 C 0.4038(3) 0.8457(2) 0.9649(3)
O22 O 0.38260(13) 0.88260(13) 0.7500
N12 N 0.27730(17) 0.96205(17) 0.8499(2)
O1_2 O 0.40527(15) 0.60740(15) 0.03994(19)
O2_2 O 0.30480(18) 0.6051(3) 0.1034(3)
O3_2 O 0.46585(14) 0.51460(14) 0.15108(18)
O4_2 O 0.37601(13) 0.47292(13) 0.22676(19)
O5_2 O 0.38260(13) 0.61740(13) 0.2500
C1_2 C 0.3457(2) 0.5962(3) 0.0351(3)
C7_2 C 0.41794(19) 0.47481(19) 0.1595(3)
C8_2 C 0.4080(2) 0.42559(19) 0.0793(3)
C9_2 C 0.3514(3) 0.3878(3) 0.0686(4)
H5_2 H 0.3171 0.3884 0.1153
C12_2 C 0.45689(19) 0.42085(18) 0.0106(3)
H8_2 H 0.4961 0.4466 0.0188
O6_2 O 0.48540(14) 0.53415(14) 0.34892(18)
O7_2 O 0.52708(13) 0.62399(13) 0.27324(19)
N3_2 N 0.61753(15) 0.54734(17) 0.5665(2)
C13_2 C 0.52519(19) 0.58206(19) 0.3405(3)
C14_2 C 0.57441(19) 0.5920(2) 0.4207(3)
C15_2 C 0.6122(3) 0.6486(3) 0.4314(4)
H9_2 H 0.6116 0.6829 0.3847
C16_2 C 0.6512(4) 0.6540(3) 0.5124(4)
H10_2 H 0.6778 0.6926 0.5218
C17_2 C 0.6518(3) 0.6041(3) 0.5792(4)
H11_2 H 0.6771 0.6098 0.6359
C18_2 C 0.57915(18) 0.54311(19) 0.4894(3)
H12_2 H 0.5534 0.5039 0.4812
N5_2 N 0.54734(17) 0.61753(15) 0.0665(2)
C28_2 C 0.6540(3) 0.6512(4) 0.0124(4)
H18_2 H 0.6926 0.6778 0.0218
C29_2 C 0.6041(3) 0.6518(3) 0.0792(4)
H19_2 H 0.6098 0.6771 0.1359
Ni3_2 Ni 0.38171(2) 0.53349(2) 0.34138(3)
O15_2 O 0.09473(15) 0.89260(15) 0.03994(19)
O16_2 O 0.19520(18) 0.8949(3) 0.1034(3)
C37_2 C 0.1543(2) 0.9038(3) 0.0351(3)
N8_2 N 0.77730(17) 0.46205(17) 0.1501(2)
C44_2 C 0.6817(2) 0.4321(2) 0.0577(3)
C45_2 C 0.6403(2) 0.4537(3) 0.1300(4)
H29_2 H 0.5933 0.4519 0.1230
C46_2 C 0.6680(3) 0.4776(3) 0.2112(4)
H30_2 H 0.6405 0.4917 0.2624
C47_2 C 0.7368(2) 0.4815(3) 0.2193(3)
H31_2 H 0.7554 0.4986 0.2765
C48_2 C 0.7491(2) 0.4387(2) 0.0702(3)
H32_2 H 0.7775 0.4260 0.0192
Ni6_2 Ni 0.61829(2) 0.46651(2) 0.65862(3)
O20_2 O 0.39260(15) 0.59473(15) 0.46006(19)
N10_2 N 0.27730(17) 0.53795(17) 0.3499(2)
N11_2 N 0.38247(15) 0.45266(17) 0.4335(2)
N1_2 N 0.22270(17) 0.53795(17) 0.8499(2)
N2_2 N 0.45266(17) 0.38247(15) 0.9335(2)
C2_2 C 0.3183(2) 0.5679(2) 0.9423(3)
C3_2 C 0.3597(2) 0.5463(3) 0.8700(4)
H1_2 H 0.4067 0.5481 0.8770
C4_2 C 0.3320(3) 0.5224(3) 0.7888(4)
H2_2 H 0.3595 0.5083 0.7376
C5_2 C 0.2632(2) 0.5185(3) 0.7807(3)
H3_2 H 0.2446 0.5014 0.7235
C6_2 C 0.2509(2) 0.5613(2) 0.9298(3)
H4_2 H 0.2225 0.5740 0.9808
C10_2 C 0.3460(3) 0.3488(4) 0.9876(4)
H6_2 H 0.3074 0.3222 0.9782
C11_2 C 0.3959(3) 0.3482(3) 0.9208(4)
H7_2 H 0.3902 0.3229 0.8641
O10_2 O 0.53415(14) 0.48540(14) 0.84892(18)
O11_2 O 0.62399(13) 0.52708(13) 0.77324(19)
C25_2 C 0.58206(19) 0.52519(19) 0.8405(3)
C26_2 C 0.5920(2) 0.57441(19) 0.9207(3)
C27_2 C 0.6486(3) 0.6122(3) 0.9314(4)
H17_2 H 0.6829 0.6116 0.8847
C30_2 C 0.54311(19) 0.57915(18) 0.9894(3)
H20_2 H 0.5039 0.5534 0.9812
C38_2 C 0.1817(2) 0.9321(2) 0.9423(3)
C39_2 C 0.1403(2) 0.9537(3) 0.8700(4)
H25_2 H 0.0933 0.9519 0.8770
C40_2 C 0.1680(3) 0.9776(3) 0.7888(4)
H26_2 H 0.1405 0.9917 0.7376
C41_2 C 0.2368(2) 0.9815(3) 0.7807(3)
H27_2 H 0.2554 0.9986 0.7235
C42_2 C 0.2491(2) 0.9387(2) 0.9298(3)
H28_2 H 0.2775 0.9260 0.9808
O17_2 O 0.59473(15) 0.39260(15) 0.96006(19)
O18_2 O 0.69520(18) 0.3949(3) 0.8966(3)
C43_2 C 0.6543(2) 0.4038(3) 0.9649(3)
Ni5_2 Ni 0.11829(2) 0.53349(2) 0.84138(3)
O21_2 O 0.47292(13) 0.37601(13) 0.72676(19)
O22_2 O 0.61740(13) 0.38260(13) 0.7500
O4_3 O 0.12399(13) 0.02708(13) 0.22676(19)
C7_3 C 0.08206(19) 0.02519(19) 0.1595(3)
C8_3 C 0.0920(2) 0.07441(19) 0.0793(3)
C9_3 C 0.1486(3) 0.1122(3) 0.0686(4)
H5_3 H 0.1829 0.1116 0.1153
C12_3 C 0.04311(19) 0.07915(18) 0.0106(3)
H8_3 H 0.0039 0.0534 0.0188
N11_3 N 0.11753(15) 0.04734(17) 0.4335(2)
C10_3 C 0.1540(3) 0.1512(4) 0.9876(4)
H6_3 H 0.1926 0.1778 0.9782
C11_3 C 0.1041(3) 0.1518(3) 0.9208(4)
H7_3 H 0.1098 0.1771 0.8641
O3_3 O 0.03415(14) 0.98540(14) 0.15108(18)
O5_3 O 0.11740(13) 0.88260(13) 0.2500
O6_3 O 0.01460(14) 0.96585(14) 0.34892(18)
N4_2 N 0.03795(17) 0.77730(17) 0.1501(2)
C20_2 C 0.0679(2) 0.6817(2) 0.0577(3)
C21_2 C 0.0463(3) 0.6403(2) 0.1300(4)
H13_2 H 0.0481 0.5933 0.1230
C22_2 C 0.0224(3) 0.6680(3) 0.2112(4)
H14_2 H 0.0083 0.6405 0.2624
C23_2 C 0.0185(3) 0.7368(2) 0.2193(3)
H15_2 H 0.0014 0.7554 0.2765
C24_2 C 0.0613(2) 0.7491(2) 0.0702(3)
H16_2 H 0.0740 0.7775 0.0192
Ni3_3 Ni 0.11829(2) 0.96651(2) 0.34138(3)
O20_3 O 0.10740(15) 0.90527(15) 0.46006(19)
N10_3 N 0.22270(17) 0.96205(17) 0.3499(2)
O8_2 O 0.10740(15) 0.59473(15) 0.96006(19)
O9_2 O 0.1051(3) 0.69520(18) 0.8966(3)
C19_2 C 0.0962(3) 0.6543(2) 0.9649(3)
O12_2 O 0.01460(14) 0.53415(14) 0.84892(18)
O14_2 O 0.11740(13) 0.61740(13) 0.7500
O19_2 O 0.12399(13) 0.47292(13) 0.72676(19)
N9_2 N 0.11753(15) 0.45266(17) 0.9335(2)
Ni8_2 Ni 0.03349(2) 0.61829(2) 0.65862(3)
O7_3 O 0.97292(13) 0.87601(13) 0.27324(19)
N3_3 N 0.88247(15) 0.95266(17) 0.5665(2)
C13_3 C 0.97481(19) 0.91794(19) 0.3405(3)
C14_3 C 0.92559(19) 0.9080(2) 0.4207(3)
C15_3 C 0.8878(3) 0.8514(3) 0.4314(4)
H9_3 H 0.8884 0.8171 0.3847
C16_3 C 0.8488(4) 0.8460(3) 0.5124(4)
H10_3 H 0.8222 0.8074 0.5218
C17_3 C 0.8482(3) 0.8959(3) 0.5792(4)
H11_3 H 0.8229 0.8902 0.6359
C18_3 C 0.92085(18) 0.95689(19) 0.4894(3)
H12_3 H 0.9466 0.9961 0.4812
N6_2 N 0.88247(15) 0.54734(17) 0.0665(2)
C34_2 C 0.8488(4) 0.6540(3) 0.0124(4)
H22_2 H 0.8222 0.6926 0.0218
C35_2 C 0.8482(3) 0.6041(3) 0.0792(4)
H23_2 H 0.8229 0.6098 0.1359
O13_2 O 0.97292(13) 0.62399(13) 0.77324(19)
C31_2 C 0.97481(19) 0.58206(19) 0.8405(3)
C32_2 C 0.92559(19) 0.5920(2) 0.9207(3)
C33_2 C 0.8878(3) 0.6486(3) 0.9314(4)
H21_2 H 0.8884 0.6829 0.8847
C36_2 C 0.92085(18) 0.54311(19) 0.9894(3)
H24_2 H 0.9466 0.5039 0.9812
O2_3 O 0.69520(18) 0.1051(3) 0.3966(3)
N1_3 N 0.77730(17) 0.03795(17) 0.6501(2)
C1_3 C 0.6543(2) 0.0962(3) 0.4649(3)
C2_3 C 0.6817(2) 0.0679(2) 0.5577(3)
C3_3 C 0.6403(2) 0.0463(3) 0.6300(4)
H1_3 H 0.5933 0.0481 0.6230
C4_3 C 0.6680(3) 0.0224(3) 0.7112(4)
H2_3 H 0.6405 0.0083 0.7624
C5_3 C 0.7368(2) 0.0185(3) 0.7193(3)
H3_3 H 0.7554 0.0014 0.7765
C6_3 C 0.7491(2) 0.0613(2) 0.5702(3)
H4_3 H 0.7775 0.0740 0.5192
O8_3 O 0.60740(15) 0.40527(15) 0.53994(19)
O9_3 O 0.6051(3) 0.30480(18) 0.6034(3)
C19_3 C 0.5962(3) 0.3457(2) 0.5351(3)
C20_3 C 0.5679(2) 0.3183(2) 0.4423(3)
C21_3 C 0.5463(3) 0.3597(2) 0.3700(4)
H13_3 H 0.5481 0.4067 0.3770
C22_3 C 0.5224(3) 0.3320(3) 0.2888(4)
H14_3 H 0.5083 0.3595 0.2376
C23_3 C 0.5185(3) 0.2632(2) 0.2807(3)
H15_3 H 0.5014 0.2446 0.2235
C24_3 C 0.5613(2) 0.2509(2) 0.4298(3)
H16_3 H 0.5740 0.2225 0.4808
C25_3 C 0.41794(19) 0.02519(19) 0.6595(3)
C26_3 C 0.4080(2) 0.07441(19) 0.5793(3)
C27_3 C 0.3514(3) 0.1122(3) 0.5686(4)
H17_3 H 0.3171 0.1116 0.6153
C28_3 C 0.3460(3) 0.1512(4) 0.4876(4)
H18_3 H 0.3074 0.1778 0.4782
C29_3 C 0.3959(3) 0.1518(3) 0.4208(4)
H19_3 H 0.3902 0.1771 0.3641
C30_3 C 0.45689(19) 0.07915(18) 0.5106(3)
H20_3 H 0.4961 0.0534 0.5188
O12_3 O 0.51460(14) 0.46585(14) 0.65108(18)
C31_3 C 0.47481(19) 0.41794(19) 0.6595(3)
C32_3 C 0.42559(19) 0.4080(2) 0.5793(3)
C33_3 C 0.3878(3) 0.3514(3) 0.5686(4)
H21_3 H 0.3884 0.3171 0.6153
C34_3 C 0.3488(4) 0.3460(3) 0.4876(4)
H22_3 H 0.3222 0.3074 0.4782
C35_3 C 0.3482(3) 0.3959(3) 0.4208(4)
H23_3 H 0.3229 0.3902 0.3641
C36_3 C 0.42085(18) 0.45689(19) 0.5106(3)
H24_3 H 0.4466 0.4961 0.5188
O15_3 O 0.90527(15) 0.39260(15) 0.46006(19)
O16_3 O 0.80480(18) 0.3949(3) 0.3966(3)
N7_2 N 0.72270(17) 0.46205(17) 0.6501(2)
C37_3 C 0.8457(2) 0.4038(3) 0.4649(3)
C38_3 C 0.8183(2) 0.4321(2) 0.5577(3)
C39_3 C 0.8597(2) 0.4537(3) 0.6300(4)
H25_3 H 0.9067 0.4519 0.6230
C40_3 C 0.8320(3) 0.4776(3) 0.7112(4)
H26_3 H 0.8595 0.4917 0.7624
C41_3 C 0.7632(2) 0.4815(3) 0.7193(3)
H27_3 H 0.7446 0.4986 0.7765
C42_3 C 0.7509(2) 0.4387(2) 0.5702(3)
H28_3 H 0.7225 0.4260 0.5192
Ni10_2 Ni 0.96651(2) 0.38171(2) 0.34138(3)
O10_3 O 0.46585(14) 0.98540(14) 0.65108(18)
O17_3 O 0.40527(15) 0.89260(15) 0.53994(19)
O18_3 O 0.30480(18) 0.8949(3) 0.6034(3)
C43_3 C 0.3457(2) 0.9038(3) 0.5351(3)
C44_3 C 0.3183(2) 0.9321(2) 0.4423(3)
C45_3 C 0.3597(2) 0.9537(3) 0.3700(4)
H29_3 H 0.4067 0.9519 0.3770
C46_3 C 0.3320(3) 0.9776(3) 0.2888(4)
H30_3 H 0.3595 0.9917 0.2376
C47_3 C 0.2632(2) 0.9815(3) 0.2807(3)
H31_3 H 0.2446 0.9986 0.2235
C48_3 C 0.2509(2) 0.9387(2) 0.4298(3)
H32_3 H 0.2225 0.9260 0.4808
N12_2 N 0.46205(17) 0.77730(17) 0.6501(2)
O11_3 O 0.02708(13) 0.37601(13) 0.22676(19)
C25_4 C 0.02519(19) 0.41794(19) 0.1595(3)
C26_4 C 0.07441(19) 0.4080(2) 0.0793(3)
C27_4 C 0.1122(3) 0.3514(3) 0.0686(4)
H17_4 H 0.1116 0.3171 0.1153
C30_4 C 0.07915(18) 0.45689(19) 0.0106(3)
H20_4 H 0.0534 0.4961 0.0188
O6_4 O 0.03415(14) 0.51460(14) 0.65108(18)
N3_4 N 0.04734(17) 0.38247(15) 0.4335(2)
C13_4 C 0.08206(19) 0.47481(19) 0.6595(3)
C14_4 C 0.0920(2) 0.42559(19) 0.5793(3)
C15_4 C 0.1486(3) 0.3878(3) 0.5686(4)
H9_4 H 0.1829 0.3884 0.6153
C16_4 C 0.1540(3) 0.3488(4) 0.4876(4)
H10_4 H 0.1926 0.3222 0.4782
C17_4 C 0.1041(3) 0.3482(3) 0.4208(4)
H11_4 H 0.1098 0.3229 0.3641
C18_4 C 0.04311(19) 0.42085(18) 0.5106(3)
H12_4 H 0.0039 0.4466 0.5188
C28_4 C 0.1512(4) 0.3460(3) 0.9876(4)
H18_4 H 0.1778 0.3074 0.9782
C29_4 C 0.1518(3) 0.3959(3) 0.9208(4)
H19_4 H 0.1771 0.3902 0.8641
O20_4 O 0.09473(15) 0.60740(15) 0.53994(19)
N10_4 N 0.03795(17) 0.72270(17) 0.6501(2)
O10_4 O 0.98540(14) 0.46585(14) 0.15108(18)
O21_3 O 0.87601(13) 0.52708(13) 0.27324(19)
O22_3 O 0.88260(13) 0.38260(13) 0.2500
N11_4 N 0.95266(17) 0.61753(15) 0.5665(2)
O12_4 O 0.96585(14) 0.48540(14) 0.34892(18)
C31_4 C 0.91794(19) 0.52519(19) 0.3405(3)
C32_4 C 0.9080(2) 0.57441(19) 0.4207(3)
C33_4 C 0.8514(3) 0.6122(3) 0.4314(4)
H21_4 H 0.8171 0.6116 0.3847
C34_4 C 0.8460(3) 0.6512(4) 0.5124(4)
H22_4 H 0.8074 0.6778 0.5218
C35_4 C 0.8959(3) 0.6518(3) 0.5792(4)
H23_4 H 0.8902 0.6771 0.6359
C36_4 C 0.95689(19) 0.57915(18) 0.4894(3)
H24_4 H 0.9961 0.5534 0.4812
O15_4 O 0.89260(15) 0.09473(15) 0.53994(19)
O16_4 O 0.8949(3) 0.19520(18) 0.6034(3)
N7_3 N 0.96205(17) 0.27730(17) 0.3499(2)
C37_4 C 0.9038(3) 0.1543(2) 0.5351(3)
C38_4 C 0.9321(2) 0.1817(2) 0.4423(3)
C39_4 C 0.9537(3) 0.1403(2) 0.3700(4)
H25_4 H 0.9519 0.0933 0.3770
C40_4 C 0.9776(3) 0.1680(3) 0.2888(4)
H26_4 H 0.9917 0.1405 0.2376
C41_4 C 0.9815(3) 0.2368(2) 0.2807(3)
H27_4 H 0.9986 0.2554 0.2235
C42_4 C 0.9387(2) 0.2491(2) 0.4298(3)
H28_4 H 0.9260 0.2775 0.4808
O18_4 O 0.3949(3) 0.69520(18) 0.3966(3)
C43_4 C 0.4038(3) 0.6543(2) 0.4649(3)
C44_4 C 0.4321(2) 0.6817(2) 0.5577(3)
C45_4 C 0.4537(3) 0.6403(2) 0.6300(4)
H29_4 H 0.4519 0.5933 0.6230
C46_4 C 0.4776(3) 0.6680(3) 0.7112(4)
H30_4 H 0.4917 0.6405 0.7624
C47_4 C 0.4815(3) 0.7368(2) 0.7193(3)
H31_4 H 0.4986 0.7554 0.7765
C48_4 C 0.4387(2) 0.7491(2) 0.5702(3)
H32_4 H 0.4260 0.7775 0.5192
C7_4 C 0.02519(19) 0.08206(19) 0.6595(3)
C8_4 C 0.07441(19) 0.0920(2) 0.5793(3)
C9_4 C 0.1122(3) 0.1486(3) 0.5686(4)
H5_4 H 0.1116 0.1829 0.6153
C10_4 C 0.1512(4) 0.1540(3) 0.4876(4)
H6_4 H 0.1778 0.1926 0.4782
C11_4 C 0.1518(3) 0.1041(3) 0.4208(4)
H7_4 H 0.1771 0.1098 0.3641
C12_4 C 0.07915(18) 0.04311(19) 0.5106(3)
H8_4 H 0.0534 0.0039 0.5188
O18_5 O 0.1051(3) 0.80480(18) 0.3966(3)
C43_5 C 0.0962(3) 0.8457(2) 0.4649(3)
C44_5 C 0.0679(2) 0.8183(2) 0.5577(3)
C45_5 C 0.0463(3) 0.8597(2) 0.6300(4)
H29_5 H 0.0481 0.9067 0.6230
C46_5 C 0.0224(3) 0.8320(3) 0.7112(4)
H30_5 H 0.0083 0.8595 0.7624
C47_5 C 0.0185(3) 0.7632(2) 0.7193(3)
H31_5 H 0.0014 0.7446 0.7765
C48_5 C 0.0613(2) 0.7509(2) 0.5702(3)
H32_5 H 0.0740 0.7225 0.5192
O3_4 O 0.98540(14) 0.03415(14) 0.65108(18)
O2_4 O 0.19520(18) 0.6051(3) 0.6034(3)
C1_4 C 0.1543(2) 0.5962(3) 0.5351(3)
C2_4 C 0.1817(2) 0.5679(2) 0.4423(3)
C3_4 C 0.1403(2) 0.5463(3) 0.3700(4)
H1_4 H 0.0933 0.5481 0.3770
C4_4 C 0.1680(3) 0.5224(3) 0.2888(4)
H2_4 H 0.1405 0.5083 0.2376
C5_4 C 0.2368(2) 0.5185(3) 0.2807(3)
H3_4 H 0.2554 0.5014 0.2235
C6_4 C 0.2491(2) 0.5613(2) 0.4298(3)
H4_4 H 0.2775 0.5740 0.4808
loop_
_geom_bond_atom_site_label_1
_geom_bond_atom_site_label_2
_geom_bond_site_symmetry_1
_geom_bond_site_symmetry_2
Ni1 O1 1_555 1_555
O1 C1 1_555 1_555
O2 C1 1_555 1_555
O3 Ni1 1_555 1_555
O4 C7 1_555 1_555
O5 Ni1 1_555 1_555
C7 O3 1_555 1_555
C8 C7 1_555 1_555
C9 C8 1_555 1_555
H5 C9 1_555 1_555
H8 C12 1_555 1_555
N4 Ni1 1_555 1_555
C20 C21 1_555 1_555
C21 H13 1_555 1_555
C22 C21 1_555 1_555
H14 C22 1_555 1_555
C23 N4 1_555 1_555
H15 C23 1_555 1_555
C24 N4 1_555 1_555
H16 C24 1_555 1_555
Ni3 O4 1_555 1_555
O15 C37 1_555 1_555
O16 C37 1_555 1_555
O20 Ni3 1_555 1_555
N10 Ni3 1_555 1_555
N11 Ni3 1_555 1_555
Ni10 O15 1_555 1_555
O5 Ni3 1_555 1_555
C8 C12 1_555 1_555
O6 Ni3 1_555 1_555
C20 C24 1_555 1_555
C22 C23 1_555 1_555
N1 C5 1_555 1_555
N2 C11 1_555 1_555
C2 C3 1_555 1_555
C3 H1 1_555 1_555
C4 C3 1_555 1_555
H2 C4 1_555 1_555
C5 C4 1_555 1_555
H3 C5 1_555 1_555
C6 N1 1_555 1_555
H4 C6 1_555 1_555
H6 C10 1_555 1_555
C11 C10 1_555 1_555
H7 C11 1_555 1_555
O8 C19 1_555 1_555
O9 C19 1_555 1_555
Ni2 O8 1_555 1_555
O12 Ni2 1_555 1_555
O14 Ni2 1_555 1_555
N7 Ni2 1_555 1_555
C38 C39 1_555 1_555
C39 H25 1_555 1_555
C40 C39 1_555 1_555
H26 C40 1_555 1_555
C41 N7 1_555 1_555
H27 C41 1_555 1_555
C42 N7 1_555 1_555
H28 C42 1_555 1_555
Ni5 N1 1_555 1_555
C2 C6 1_555 1_555
O14 Ni8 1_555 1_555
C38 C42 1_555 1_555
C40 C41 1_555 1_555
N3 C17 1_555 1_555
C13 O7 1_555 1_555
C14 C13 1_555 1_555
C15 C14 1_555 1_555
H9 C15 1_555 1_555
C16 C15 1_555 1_555
H10 C16 1_555 1_555
C17 C16 1_555 1_555
H11 C17 1_555 1_555
C18 N3 1_555 1_555
H12 C18 1_555 1_555
H18 C28 1_555 1_555
C29 N5 1_555 1_555
H19 C29 1_555 1_555
N6 C35 1_555 1_555
H22 C34 1_555 1_555
C35 C34 1_555 1_555
H23 C35 1_555 1_555
N8 C47 1_555 1_555
C45 C44 1_555 1_555
H29 C45 1_555 1_555
C46 C45 1_555 1_555
H30 C46 1_555 1_555
C47 C46 1_555 1_555
H31 C47 1_555 1_555
C48 N8 1_555 1_555
H32 C48 1_555 1_555
Ni6 N3 1_555 1_555
Ni11 N8 1_555 1_555
C14 C18 1_555 1_555
C28 C29 1_555 1_555
C44 C48 1_555 1_555
O10 C25 1_555 1_555
O11 C25 1_555 1_555
C25 C26 1_555 1_555
C26 C27 1_555 1_555
C27 H17 1_555 1_555
H20 C30 1_555 1_555
O13 C31 1_555 1_555
C32 C31 1_555 1_555
C33 C32 1_555 1_555
H21 C33 1_555 1_555
H24 C36 1_555 1_555
O17 Ni4 1_555 1_555
O18 C43 1_555 1_555
C43 O17 1_555 1_555
Ni6 O11 1_555 1_555
O22 Ni4 1_555 1_555
N12 Ni4 1_555 1_555
O10 Ni4 1_555 1_555
C26 C30 1_555 1_555
C32 C36 1_555 1_555
Ni6 O22 1_555 1_555
Ni11 O1_2 1_555 1_555
O1_2 C1_2 1_555 1_555
O2_2 C1_2 1_555 1_555
O3_2 Ni11 1_555 1_555
O4_2 C7_2 1_555 1_555
O5_2 Ni11 1_555 1_555
C7_2 O3_2 1_555 1_555
C8_2 C7_2 1_555 1_555
C9_2 C8_2 1_555 1_555
H5_2 C9_2 1_555 1_555
H8_2 C12_2 1_555 1_555
O6_2 C13_2 1_555 1_555
O7_2 Ni11 1_555 1_555
N3_2 C17_2 1_555 1_555
C13_2 O7_2 1_555 1_555
C14_2 C13_2 1_555 1_555
C15_2 C14_2 1_555 1_555
H9_2 C15_2 1_555 1_555
C16_2 C15_2 1_555 1_555
H10_2 C16_2 1_555 1_555
C17_2 C16_2 1_555 1_555
H11_2 C17_2 1_555 1_555
C18_2 N3_2 1_555 1_555
H12_2 C18_2 1_555 1_555
N5_2 Ni11 1_555 1_555
H18_2 C28_2 1_555 1_555
C29_2 N5_2 1_555 1_555
H19_2 C29_2 1_555 1_555
Ni3_2 O4_2 1_555 1_555
O15_2 C37_2 1_555 1_555
O16_2 C37_2 1_555 1_555
N8_2 C47_2 1_555 1_555
C45_2 C44_2 1_555 1_555
H29_2 C45_2 1_555 1_555
C46_2 C45_2 1_555 1_555
H30_2 C46_2 1_555 1_555
C47_2 C46_2 1_555 1_555
H31_2 C47_2 1_555 1_555
C48_2 N8_2 1_555 1_555
H32_2 C48_2 1_555 1_555
Ni6_2 N3_2 1_555 1_555
O20_2 Ni3_2 1_555 1_555
N10_2 Ni3_2 1_555 1_555
N11_2 Ni3_2 1_555 1_555
Ni9 O15_2 1_555 1_555
Ni10 N8_2 1_555 1_555
O5_2 Ni3_2 1_555 1_555
C8_2 C12_2 1_555 1_555
O6_2 Ni3_2 1_555 1_555
C14_2 C18_2 1_555 1_555
C28_2 C29_2 1_555 1_555
C44_2 C48_2 1_555 1_555
N1_2 C5_2 1_555 1_555
N2_2 C11_2 1_555 1_555
C2_2 C3_2 1_555 1_555
C3_2 H1_2 1_555 1_555
C4_2 C3_2 1_555 1_555
H2_2 C4_2 1_555 1_555
C5_2 C4_2 1_555 1_555
H3_2 C5_2 1_555 1_555
C6_2 N1_2 1_555 1_555
H4_2 C6_2 1_555 1_555
H6_2 C10_2 1_555 1_555
C11_2 C10_2 1_555 1_555
H7_2 C11_2 1_555 1_555
O10_2 C25_2 1_555 1_555
O11_2 C25_2 1_555 1_555
C25_2 C26_2 1_555 1_555
C26_2 C27_2 1_555 1_555
C27_2 H17_2 1_555 1_555
H20_2 C30_2 1_555 1_555
Ni5 N2_2 1_555 1_555
C38_2 C39_2 1_555 1_555
C39_2 H25_2 1_555 1_555
C40_2 C39_2 1_555 1_555
H26_2 C40_2 1_555 1_555
C41_2 N12 1_555 1_555
H27_2 C41_2 1_555 1_555
C42_2 N12 1_555 1_555
H28_2 C42_2 1_555 1_555
O17_2 Ni5 1_555 1_555
O18_2 C43_2 1_555 1_555
C43_2 O17_2 1_555 1_555
Ni5_2 N1_2 1_555 1_555
Ni6_2 O11_2 1_555 1_555
O21_2 Ni5 1_555 1_555
O22_2 Ni5 1_555 1_555
C2_2 C6_2 1_555 1_555
O10_2 Ni5 1_555 1_555
C26_2 C30_2 1_555 1_555
C38_2 C42_2 1_555 1_555
C40_2 C41_2 1_555 1_555
Ni6_2 O22_2 1_555 1_555
O4_3 C7_3 1_555 1_555
C8_3 C7_3 1_555 1_555
C9_3 C8_3 1_555 1_555
H5_3 C9_3 1_555 1_555
H8_3 C12_3 1_555 1_555
C8_3 C12_3 1_555 1_555
N9 C11_3 1_555 1_555
H6_3 C10_3 1_555 1_555
C11_3 C10_3 1_555 1_555
H7_3 C11_3 1_555 1_555
O3_3 Ni9 1_555 1_555
O5_3 Ni9 1_555 1_555
N4_2 Ni9 1_555 1_555
C20_2 C21_2 1_555 1_555
C21_2 H13_2 1_555 1_555
C22_2 C21_2 1_555 1_555
H14_2 C22_2 1_555 1_555
C23_2 N4_2 1_555 1_555
H15_2 C23_2 1_555 1_555
C24_2 N4_2 1_555 1_555
H16_2 C24_2 1_555 1_555
O20_3 Ni3_3 1_555 1_555
N10_3 Ni3_3 1_555 1_555
O5_3 Ni3_3 1_555 1_555
O6_3 Ni3_3 1_555 1_555
C20_2 C24_2 1_555 1_555
C22_2 C23_2 1_555 1_555
O8_2 C19_2 1_555 1_555
O9_2 C19_2 1_555 1_555
Ni5_2 O8_2 1_555 1_555
O12_2 Ni5_2 1_555 1_555
O14_2 Ni5_2 1_555 1_555
O19_2 Ni5_2 1_555 1_555
N9_2 Ni5_2 1_555 1_555
O14_2 Ni8_2 1_555 1_555
N3_3 C17_3 1_555 1_555
C13_3 O7_3 1_555 1_555
C14_3 C13_3 1_555 1_555
C15_3 C14_3 1_555 1_555
H9_3 C15_3 1_555 1_555
C16_3 C15_3 1_555 1_555
H10_3 C16_3 1_555 1_555
C17_3 C16_3 1_555 1_555
H11_3 C17_3 1_555 1_555
C18_3 N3_3 1_555 1_555
H12_3 C18_3 1_555 1_555
N6_2 C35_2 1_555 1_555
H22_2 C34_2 1_555 1_555
C35_2 C34_2 1_555 1_555
H23_2 C35_2 1_555 1_555
Ni10 N6_2 1_555 1_555
C14_3 C18_3 1_555 1_555
O13_2 C31_2 1_555 1_555
C32_2 C31_2 1_555 1_555
C33_2 C32_2 1_555 1_555
H21_2 C33_2 1_555 1_555
H24_2 C36_2 1_555 1_555
C32_2 C36_2 1_555 1_555
O20 C1_3 1_555 1_555
O2_3 C1_3 1_555 1_555
N1_3 C5_3 1_555 1_555
C1_3 C2_3 1_555 1_555
C2_3 C3_3 1_555 1_555
C3_3 H1_3 1_555 1_555
C4_3 C3_3 1_555 1_555
H2_3 C4_3 1_555 1_555
C5_3 C4_3 1_555 1_555
H3_3 C5_3 1_555 1_555
C6_3 N1_3 1_555 1_555
H4_3 C6_3 1_555 1_555
O8_3 C19_3 1_555 1_555
O9_3 C19_3 1_555 1_555
C19_3 C20_3 1_555 1_555
C20_3 C21_3 1_555 1_555
C21_3 H13_3 1_555 1_555
C22_3 C21_3 1_555 1_555
H14_3 C22_3 1_555 1_555
C23_3 N10 1_555 1_555
H15_3 C23_3 1_555 1_555
C24_3 N10 1_555 1_555
H16_3 C24_3 1_555 1_555
O21 C25_3 1_555 1_555
C25_3 C26_3 1_555 1_555
C26_3 C27_3 1_555 1_555
C27_3 H17_3 1_555 1_555
C28_3 C27_3 1_555 1_555
H18_3 C28_3 1_555 1_555
C29_3 N11 1_555 1_555
H19_3 C29_3 1_555 1_555
C30_3 N11 1_555 1_555
H20_3 C30_3 1_555 1_555
Ni6_2 O8_3 1_555 1_555
O12_3 Ni6_2 1_555 1_555
O21_2 C31_3 1_555 1_555
N11_2 C35_3 1_555 1_555
C31_3 O12_3 1_555 1_555
C32_3 C31_3 1_555 1_555
C33_3 C32_3 1_555 1_555
H21_3 C33_3 1_555 1_555
C34_3 C33_3 1_555 1_555
H22_3 C34_3 1_555 1_555
C35_3 C34_3 1_555 1_555
H23_3 C35_3 1_555 1_555
C36_3 N11_2 1_555 1_555
H24_3 C36_3 1_555 1_555
O15_3 C37_3 1_555 1_555
O16_3 C37_3 1_555 1_555
N7_2 Ni6_2 1_555 1_555
C37_3 C38_3 1_555 1_555
C38_3 C39_3 1_555 1_555
C39_3 H25_3 1_555 1_555
C40_3 C39_3 1_555 1_555
H26_3 C40_3 1_555 1_555
C41_3 N7_2 1_555 1_555
H27_3 C41_3 1_555 1_555
C42_3 N7_2 1_555 1_555
H28_3 C42_3 1_555 1_555
Ni8 N1_3 1_555 1_555
Ni10_2 O15_3 1_555 1_555
C2_3 C6_3 1_555 1_555
C20_3 C24_3 1_555 1_555
C22_3 C23_3 1_555 1_555
C26_3 C30_3 1_555 1_555
C28_3 C29_3 1_555 1_555
C32_3 C36_3 1_555 1_555
C38_3 C42_3 1_555 1_555
C40_3 C41_3 1_555 1_555
O17_3 Ni6 1_555 1_555
O18_3 C43_3 1_555 1_555
N10_3 C47_3 1_555 1_555
C43_3 O17_3 1_555 1_555
C44_3 C43_3 1_555 1_555
C45_3 C44_3 1_555 1_555
H29_3 C45_3 1_555 1_555
C46_3 C45_3 1_555 1_555
H30_3 C46_3 1_555 1_555
C47_3 C46_3 1_555 1_555
H31_3 C47_3 1_555 1_555
C48_3 N10_3 1_555 1_555
H32_3 C48_3 1_555 1_555
N12_2 Ni6 1_555 1_555
O10_3 Ni6 1_555 1_555
C44_3 C48_3 1_555 1_555
O11_3 C25_4 1_555 1_555
C25_4 C26_4 1_555 1_555
C26_4 C27_4 1_555 1_555
C27_4 H17_4 1_555 1_555
H20_4 C30_4 1_555 1_555
C26_4 C30_4 1_555 1_555
O6_4 C13_4 1_555 1_555
N3_4 C17_4 1_555 1_555
C13_4 O19_2 1_555 1_555
C14_4 C13_4 1_555 1_555
C15_4 C14_4 1_555 1_555
H9_4 C15_4 1_555 1_555
C16_4 C15_4 1_555 1_555
H10_4 C16_4 1_555 1_555
C17_4 C16_4 1_555 1_555
H11_4 C17_4 1_555 1_555
C18_4 N3_4 1_555 1_555
H12_4 C18_4 1_555 1_555
H18_4 C28_4 1_555 1_555
C29_4 N9_2 1_555 1_555
H19_4 C29_4 1_555 1_555
O20_4 Ni8_2 1_555 1_555
N10_4 Ni8_2 1_555 1_555
O6_4 Ni8_2 1_555 1_555
C14_4 C18_4 1_555 1_555
C28_4 C29_4 1_555 1_555
O21_3 Ni10 1_555 1_555
O22_3 Ni10 1_555 1_555
O10_4 Ni10 1_555 1_555
Ni10_2 O22_3 1_555 1_555
O12_4 Ni10_2 1_555 1_555
O21_3 C31_4 1_555 1_555
N11_4 C35_4 1_555 1_555
C31_4 O12_4 1_555 1_555
C32_4 C31_4 1_555 1_555
C33_4 C32_4 1_555 1_555
H21_4 C33_4 1_555 1_555
C34_4 C33_4 1_555 1_555
H22_4 C34_4 1_555 1_555
C35_4 C34_4 1_555 1_555
H23_4 C35_4 1_555 1_555
C36_4 N11_4 1_555 1_555
H24_4 C36_4 1_555 1_555
O15_4 C37_4 1_555 1_555
O16_4 C37_4 1_555 1_555
N7_3 Ni10_2 1_555 1_555
C37_4 C38_4 1_555 1_555
C38_4 C39_4 1_555 1_555
C39_4 H25_4 1_555 1_555
C40_4 C39_4 1_555 1_555
H26_4 C40_4 1_555 1_555
C41_4 N7_3 1_555 1_555
H27_4 C41_4 1_555 1_555
C42_4 N7_3 1_555 1_555
H28_4 C42_4 1_555 1_555
O18_4 C43_4 1_555 1_555
N12_2 C47_4 1_555 1_555
C43_4 O20_2 1_555 1_555
C44_4 C43_4 1_555 1_555
C45_4 C44_4 1_555 1_555
H29_4 C45_4 1_555 1_555
C46_4 C45_4 1_555 1_555
H30_4 C46_4 1_555 1_555
C47_4 C46_4 1_555 1_555
H31_4 C47_4 1_555 1_555
C48_4 N12_2 1_555 1_555
H32_4 C48_4 1_555 1_555
Ni8 O15_4 1_555 1_555
C32_4 C36_4 1_555 1_555
C38_4 C42_4 1_555 1_555
C40_4 C41_4 1_555 1_555
C44_4 C48_4 1_555 1_555
O19 C7_4 1_555 1_555
N11_3 C11_4 1_555 1_555
C8_4 C7_4 1_555 1_555
C9_4 C8_4 1_555 1_555
H5_4 C9_4 1_555 1_555
C10_4 C9_4 1_555 1_555
H6_4 C10_4 1_555 1_555
C11_4 C10_4 1_555 1_555
H7_4 C11_4 1_555 1_555
C12_4 N11_3 1_555 1_555
H8_4 C12_4 1_555 1_555
C8_4 C12_4 1_555 1_555
O18_5 C43_5 1_555 1_555
N10_4 C47_5 1_555 1_555
C43_5 O20_3 1_555 1_555
C44_5 C43_5 1_555 1_555
C45_5 C44_5 1_555 1_555
H29_5 C45_5 1_555 1_555
C46_5 C45_5 1_555 1_555
H30_5 C46_5 1_555 1_555
C47_5 C46_5 1_555 1_555
H31_5 C47_5 1_555 1_555
C48_5 N10_4 1_555 1_555
H32_5 C48_5 1_555 1_555
C44_5 C48_5 1_555 1_555
O3_4 Ni8 1_555 1_555
O20_4 C1_4 1_555 1_555
O2_4 C1_4 1_555 1_555
N10_2 C5_4 1_555 1_555
C1_4 C2_4 1_555 1_555
C2_4 C3_4 1_555 1_555
C3_4 H1_4 1_555 1_555
C4_4 C3_4 1_555 1_555
H2_4 C4_4 1_555 1_555
C5_4 C4_4 1_555 1_555
H3_4 C5_4 1_555 1_555
C6_4 N10_2 1_555 1_555
H4_4 C6_4 1_555 1_555
C2_4 C6_4 1_555 1_555

#END
