
###############################################################################
#
# This file contains modified crystal structure data generated from the
# MOF subset of the Cambridge Structural Database (CSD) v543 
# hosted by the Cambridge Crystallographic Data Centre (CCDC).
#
# This work is licensed under the Creative Commons
# Attribution-NonCommercial-ShareAlike 4.0 International License.
# To view a copy of this license, visit
# http://creativecommons.org/licenses/by-nc-sa/4.0/
# or send a letter to
# Creative Commons, PO Box 1866, Mountain View, CA 94042, USA.
#
# CIF created using the CSD Python API on 29 September 2022
# The structure has been converted into the P1 space group
# The structure has a 3D framework
# The original CSD entry VOCPEK is in the hexagonal crystal system
# The framework has been calculated to contain at least 10.0% void space
# The void calculation uses a probe of radius 1.32A, grid spacing 0.4
#
###############################################################################

data_VOCPEK
_chemical_formula_moiety         '(C124 H132 Cl40 Eu16 N176 O72 Zn61)n'
_symmetry_cell_setting           triclinic
_symmetry_space_group_name_H-M   'P 1'
_symmetry_Int_Tables_number      1
_space_group_name_Hall           'P 1'
loop_
_symmetry_equiv_pos_site_id
_symmetry_equiv_pos_as_xyz
1 x,y,z
_cell_length_a                   18.0330(13)
_cell_length_b                   18.0330(13)
_cell_length_c                   24.743(3)
_cell_angle_alpha                90
_cell_angle_beta                 90
_cell_angle_gamma                120
_cell_volume                     6968.17
loop_
_atom_site_label
_atom_site_type_symbol
_atom_site_fract_x
_atom_site_fract_y
_atom_site_fract_z
C1 C 0.1562(7) 0.2059(7) 0.1112(5)
C2 C 0.0486(12) 0.2619(11) 0.2500
C3 C -0.0000 0.2622(9) 0.0310(6)
H1 H -0.0000 0.2136 0.0185
C4 C -0.0000 0.3570(10) 0.0820(7)
Cl1 Cl -0.0000 0.0000 0.2500
Cl2 Cl 0.0000 0.0000 0.0000
N1 N -0.0000 0.2820(8) 0.0827(5)
N3 N 0.0000 0.3838(6) 0.0323(5)
N4 N -0.0000 0.3990(9) 0.1281(6)
H3 H -0.0000 0.4466 0.1260
H4 H 0.0000 0.3778 0.1593
O1 O 0.0797(5) 0.1648(6) 0.1238(4)
O2 O 0.0865(6) 0.2805(6) 0.2062(4)
Eu1 Eu 0.0000 0.0000 0.12466(5)
Zn1 Zn -0.0000 0.21110(10) 0.14348(7)
Zn3 Zn 0.0000 0.5000 0.0000
O3 O 0.1958(5) 0.2822(5) 0.0983(3)
C7 C 0.2059(7) 0.1562(7) 0.1112(5)
O4 O 0.1648(6) 0.0797(5) 0.1238(4)
O5 O 0.2822(5) 0.1958(5) 0.0983(3)
O7 O 0.0865(6) 0.2805(6) 0.2938(4)
C19 C 0.2622(9) 0.0000 0.0310(6)
H13 H 0.2136 -0.0000 0.0185
C20 C 0.3570(10) -0.0000 0.0820(7)
N17 N 0.2820(8) -0.0000 0.0827(5)
N19 N 0.3838(6) -0.0000 0.0323(5)
N20 N 0.3990(9) 0.0000 0.1281(6)
H15 H 0.4466 0.0000 0.1260
H16 H 0.3778 0.0000 0.1593
Zn8 Zn 0.21110(10) 0.0000 0.14348(7)
Zn10 Zn 0.5000 0.0000 0.0000
C24 C 0.2619(11) 0.0486(12) 0.2500
O22 O 0.2805(6) 0.0865(6) 0.2938(4)
O24 O 0.2805(6) 0.0865(6) 0.2062(4)
C40 C 0.3205(10) 0.4950(7) 0.1154(5)
C41 C 0.4220(11) 0.5884(7) 0.0685(4)
H32 H 0.4615 0.6410 0.0538
N42 N 0.3235(7) 0.3235(7) 0.0006(5)
N45 N 0.4218(7) 0.5195(5) 0.0564(3)
N46 N 0.3613(8) 0.5804(6) 0.1043(4)
N47 N 0.3550(8) 0.4556(6) 0.0871(4)
N48 N 0.2532(11) 0.4566(8) 0.1470(4)
H35 H 0.2274 0.4020 0.1510
H36 H 0.2349 0.4862 0.1637
Cl8 Cl 0.3372(7) 0.3372(7) 0.1806(7)
Zn16 Zn 0.33314(9) 0.33314(9) 0.08593(8)
Zn17 Zn 0.3333 0.6667 0.12746(9)
C45 C 0.4950(7) 0.3205(10) 0.1154(5)
C46 C 0.5884(7) 0.4220(11) 0.0685(4)
H40 H 0.6410 0.4615 0.0538
N53 N 0.5195(5) 0.4218(7) 0.0564(3)
N54 N 0.5804(6) 0.3613(8) 0.1043(4)
N55 N 0.4556(6) 0.3550(8) 0.0871(4)
N56 N 0.4566(8) 0.2532(11) 0.1470(4)
H41 H 0.4020 0.2274 0.1510
H42 H 0.4862 0.2349 0.1637
Zn19 Zn 0.6667 0.3333 0.12746(9)
N77 N 0.0977(5) 0.5782(7) 0.0564(3)
N81 N 0.5782(7) 0.0977(5) 0.0564(3)
N84 N 0.4196(6) 0.7809(6) 0.1043(4)
N85 N 0.2191(6) 0.6387(8) 0.1043(4)
N86 N 0.7809(6) 0.4196(6) 0.1043(4)
N89 N 0.6387(8) 0.2191(6) 0.1043(4)
Eu3 Eu -0.0000 -0.0000 0.37534(5)
Zn21 Zn 0.21110(10) 0.0000 0.35652(7)
Zn22 Zn -0.0000 0.21110(10) 0.35652(7)
Zn24 Zn 0.5000 0.5000 0.0000
C5 C 0.1745(7) 0.4950(7) 0.8846(5)
C6 C 0.1664(8) 0.5884(7) 0.9315(4)
H2 H 0.1795 0.6410 0.9462
Cl2_2 Cl -0.0000 0.0000 1.0000
N2 N -0.0000 0.3235(7) 0.9994(5)
N5 N 0.0977(5) 0.5195(5) 0.9436(3)
N6 N 0.2191(6) 0.5804(6) 0.8957(4)
N7 N 0.1006(6) 0.4556(6) 0.9129(4)
N8 N 0.2034(8) 0.4566(8) 0.8530(4)
H5 H 0.1746 0.4020 0.8490
H6 H 0.2513 0.4862 0.8363
Cl3 Cl -0.0000 0.3372(7) 0.8194(7)
Zn2 Zn 0.0000 0.33314(9) 0.91407(8)
Zn3_2 Zn 0.0000 0.5000 1.0000
Zn4 Zn 0.3333 0.6667 0.87254(9)
N18 N 0.3235(7) -0.0000 0.9994(5)
Cl5 Cl 0.3372(7) 0.0000 0.8194(7)
Zn9 Zn 0.33314(9) 0.0000 0.91407(8)
Zn10_2 Zn 0.5000 0.0000 1.0000
Eu2 Eu 0.0000 0.0000 0.87534(5)
C36 C 0.2059(7) 0.0497(10) 0.8888(5)
O31 O 0.1648(6) 0.0851(8) 0.8762(4)
O32 O 0.2822(5) 0.0864(7) 0.9017(3)
C37 C 0.0497(10) 0.2059(7) 0.8888(5)
C38 C 0.2622(9) 0.2622(9) 0.9690(6)
H31 H 0.2136 0.2136 0.9815
C39 C 0.3570(10) 0.3570(10) 0.9180(7)
N41 N 0.2820(8) 0.2820(8) 0.9173(5)
N43 N 0.3838(6) 0.3838(6) 0.9677(5)
N44 N 0.3990(9) 0.3990(9) 0.8719(6)
H33 H 0.4466 0.4466 0.8740
H34 H 0.3778 0.3778 0.8407
O33 O 0.0851(8) 0.1648(6) 0.8762(4)
Zn15 Zn 0.21110(10) 0.21110(10) 0.85652(7)
O34 O 0.0864(7) 0.2822(5) 0.9017(3)
C49 C 0.4950(7) 0.1745(7) 0.8846(5)
C50 C 0.5884(7) 0.1664(8) 0.9315(4)
H46 H 0.6410 0.1795 0.9462
N61 N 0.5195(5) 0.0977(5) 0.9436(3)
N62 N 0.5804(6) 0.2191(6) 0.8957(4)
N63 N 0.4556(6) 0.1006(6) 0.9129(4)
N64 N 0.4566(8) 0.2034(8) 0.8530(4)
H47 H 0.4020 0.1746 0.8490
H48 H 0.4862 0.2513 0.8363
Cl9 Cl 0.0000 0.0000 0.7500
N73 N 0.6162(6) 0.0000 0.9677(5)
N74 N 0.0000 0.6162(6) 0.9677(5)
N82 N 0.4196(6) 0.6387(8) 0.8957(4)
N83 N 0.3613(8) 0.7809(6) 0.8957(4)
O39 O 0.1940(8) 0.2805(6) 0.7938(4)
O41 O 0.2805(6) 0.1940(8) 0.7938(4)
Zn24_2 Zn 0.5000 0.5000 1.0000
Zn33 Zn 0.6667 0.3333 0.87254(9)
Cl1_2 Cl -0.0000 1.0000 0.2500
Cl2_3 Cl 0.0000 1.0000 0.0000
Eu1_2 Eu -0.0000 1.0000 0.12466(5)
C17 C 0.0497(10) 0.8438(7) 0.1112(5)
C18 C 0.2133(16) 0.9514(12) 0.2500
C19_2 C 0.2622(9) 1.0000 0.0310(6)
H13_2 H 0.2136 1.0000 0.0185
C20_2 C 0.3570(10) 1.0000 0.0820(7)
N17_2 N 0.2820(8) 1.0000 0.0827(5)
N19_2 N 0.3838(6) 1.0000 0.0323(5)
N20_2 N 0.3990(9) 1.0000 0.1281(6)
H15_2 H 0.4466 1.0000 0.1260
H16_2 H 0.3778 1.0000 0.1593
O17 O 0.0851(8) 0.9203(5) 0.1238(4)
O18 O 0.1940(8) 0.9135(6) 0.2062(4)
Zn8_2 Zn 0.21110(10) 1.0000 0.14348(7)
Zn10_3 Zn 0.5000 1.0000 0.0000
O19 O 0.0864(7) 0.8042(5) 0.0983(3)
O23 O 0.1940(8) 0.9135(6) 0.2938(4)
C34 C 0.1745(7) 0.6795(10) 0.1154(5)
C35 C 0.1664(8) 0.5780(11) 0.0685(4)
H26 H 0.1795 0.5385 0.0538
N34 N -0.0000 0.6765(7) 0.0006(5)
N39 N 0.1006(6) 0.6450(8) 0.0871(4)
N40 N 0.2034(8) 0.7468(11) 0.1470(4)
H29 H 0.1746 0.7726 0.1510
H30 H 0.2513 0.7651 0.1637
Cl7 Cl 0.0000 0.6628(7) 0.1806(7)
Zn14 Zn -0.0000 0.66686(9) 0.08593(8)
N76 N 0.4805(5) 0.9023(5) 0.0564(3)
Eu3_2 Eu -0.0000 1.0000 0.37534(5)
Zn21_2 Zn 0.21110(10) 1.0000 0.35652(7)
Cl2_4 Cl -0.0000 1.0000 1.0000
C21 C 0.3205(10) 0.8255(7) 0.8846(5)
C22 C 0.4220(11) 0.8336(8) 0.9315(4)
H14 H 0.4615 0.8205 0.9462
N18_2 N 0.3235(7) 1.0000 0.9994(5)
N21 N 0.4218(7) 0.9023(5) 0.9436(3)
N23 N 0.3550(8) 0.8994(6) 0.9129(4)
N24 N 0.2532(11) 0.7966(8) 0.8530(4)
H17 H 0.2274 0.8254 0.8490
H18 H 0.2349 0.7487 0.8363
Cl5_2 Cl 0.3372(7) 1.0000 0.8194(7)
Zn9_2 Zn 0.33314(9) 1.0000 0.91407(8)
Zn10_4 Zn 0.5000 1.0000 1.0000
Eu2_2 Eu 0.0000 1.0000 0.87534(5)
C31 C 0.1562(7) 0.9503(10) 0.8888(5)
C32 C 0.0000 0.7378(9) 0.9690(6)
H25 H -0.0000 0.7864 0.9815
C33 C 0.0000 0.6430(10) 0.9180(7)
N33 N 0.0000 0.7180(8) 0.9173(5)
N36 N -0.0000 0.6010(9) 0.8719(6)
H27 H -0.0000 0.5534 0.8740
H28 H -0.0000 0.6222 0.8407
O29 O 0.0797(5) 0.9149(8) 0.8762(4)
Zn13 Zn -0.0000 0.78890(10) 0.85652(7)
O30 O 0.1958(5) 0.9136(7) 0.9017(3)
Cl9_2 Cl 0.0000 1.0000 0.7500
N73_2 N 0.6162(6) 1.0000 0.9677(5)
O38 O 0.0865(6) 0.8060(8) 0.7938(4)
C3_2 C 1.0000 0.2622(9) 0.0310(6)
H1_2 H 1.0000 0.2136 0.0185
C4_2 C 1.0000 0.3570(10) 0.0820(7)
Cl1_3 Cl 1.0000 0.0000 0.2500
Cl2_5 Cl 1.0000 0.0000 0.0000
N1_2 N 1.0000 0.2820(8) 0.0827(5)
N3_2 N 1.0000 0.3838(6) 0.0323(5)
N4_2 N 1.0000 0.3990(9) 0.1281(6)
H3_2 H 1.0000 0.4466 0.1260
H4_2 H 1.0000 0.3778 0.1593
Eu1_3 Eu 1.0000 0.0000 0.12466(5)
Zn1_2 Zn 1.0000 0.21110(10) 0.14348(7)
Zn3_3 Zn 1.0000 0.5000 0.0000
C8 C 0.9514(12) 0.2133(16) 0.2500
O6 O 0.9135(6) 0.1940(8) 0.2938(4)
O8 O 0.9135(6) 0.1940(8) 0.2062(4)
C15 C 0.8438(7) 0.0497(10) 0.1112(5)
O12 O 0.9203(5) 0.0851(8) 0.1238(4)
O13 O 0.8042(5) 0.0864(7) 0.0983(3)
N26 N 0.6765(7) 0.0000 0.0006(5)
Cl6 Cl 0.6628(7) -0.0000 0.1806(7)
Zn12 Zn 0.66686(9) 0.0000 0.08593(8)
C47 C 0.6795(10) 0.1745(7) 0.1154(5)
C48 C 0.5780(11) 0.1664(8) 0.0685(4)
H43 H 0.5385 0.1795 0.0538
N59 N 0.6450(8) 0.1006(6) 0.0871(4)
N60 N 0.7468(11) 0.2034(8) 0.1470(4)
H44 H 0.7726 0.1746 0.1510
H45 H 0.7651 0.2513 0.1637
N79 N 0.9023(5) 0.4805(5) 0.0564(3)
Eu3_3 Eu 1.0000 -0.0000 0.37534(5)
Zn22_2 Zn 1.0000 0.21110(10) 0.35652(7)
Cl2_6 Cl 1.0000 0.0000 1.0000
N2_2 N 1.0000 0.3235(7) 0.9994(5)
Cl3_2 Cl 1.0000 0.3372(7) 0.8194(7)
Zn2_2 Zn 1.0000 0.33314(9) 0.91407(8)
Zn3_4 Zn 1.0000 0.5000 1.0000
C26 C 0.7378(9) 0.0000 0.9690(6)
H19 H 0.7864 -0.0000 0.9815
C27 C 0.6430(10) 0.0000 0.9180(7)
N25 N 0.7180(8) 0.0000 0.9173(5)
N28 N 0.6010(9) 0.0000 0.8719(6)
H21 H 0.5534 -0.0000 0.8740
H22 H 0.6222 0.0000 0.8407
Eu2_3 Eu 1.0000 0.0000 0.87534(5)
Zn11 Zn 0.78890(10) -0.0000 0.85652(7)
C42 C 0.9503(10) 0.1562(7) 0.8888(5)
O35 O 0.9149(8) 0.0797(5) 0.8762(4)
O36 O 0.9136(7) 0.1958(5) 0.9017(3)
C51 C 0.8255(7) 0.3205(10) 0.8846(5)
C52 C 0.8336(8) 0.4220(11) 0.9315(4)
H49 H 0.8205 0.4615 0.9462
N65 N 0.9023(5) 0.4218(7) 0.9436(3)
N66 N 0.7809(6) 0.3613(8) 0.8957(4)
N67 N 0.8994(6) 0.3550(8) 0.9129(4)
N68 N 0.7966(8) 0.2532(11) 0.8530(4)
H50 H 0.8254 0.2274 0.8490
H51 H 0.7487 0.2349 0.8363
Cl9_3 Cl 1.0000 0.0000 0.7500
N74_2 N 1.0000 0.6162(6) 0.9677(5)
O42 O 0.8060(8) 0.0865(6) 0.7938(4)
Cl1_4 Cl 1.0000 1.0000 0.2500
Cl2_7 Cl 1.0000 1.0000 0.0000
Eu1_4 Eu 1.0000 1.0000 0.12466(5)
C9 C 0.7941(7) 0.9503(10) 0.1112(5)
C10 C 0.7381(11) 0.7867(16) 0.2500
C11 C 0.7378(9) 0.7378(9) 0.0310(6)
H7 H 0.7864 0.7864 0.0185
C12 C 0.6430(10) 0.6430(10) 0.0820(7)
N9 N 0.7180(8) 0.7180(8) 0.0827(5)
N11 N 0.6162(6) 0.6162(6) 0.0323(5)
N12 N 0.6010(9) 0.6010(9) 0.1281(6)
H9 H 0.5534 0.5534 0.1260
H10 H 0.6222 0.6222 0.1593
O9 O 0.8352(6) 0.9149(8) 0.1238(4)
O10 O 0.7195(6) 0.8060(8) 0.2062(4)
Zn5 Zn 0.78890(10) 0.78890(10) 0.14348(7)
O11 O 0.7178(5) 0.9136(7) 0.0983(3)
C16 C 0.7867(16) 0.7381(11) 0.2500
O14 O 0.8060(8) 0.7195(6) 0.2938(4)
O15 O 0.7195(6) 0.8060(8) 0.2938(4)
O16 O 0.8060(8) 0.7195(6) 0.2062(4)
C23 C 0.9503(10) 0.7941(7) 0.1112(5)
O20 O 0.9149(8) 0.8352(6) 0.1238(4)
O21 O 0.9136(7) 0.7178(5) 0.0983(3)
C28 C 0.5050(7) 0.8255(7) 0.1154(5)
C29 C 0.4116(7) 0.8336(8) 0.0685(4)
H20 H 0.3590 0.8205 0.0538
N26_2 N 0.6765(7) 1.0000 0.0006(5)
N31 N 0.5444(6) 0.8994(6) 0.0871(4)
N32 N 0.5434(8) 0.7966(8) 0.1470(4)
H23 H 0.5980 0.8254 0.1510
H24 H 0.5138 0.7487 0.1637
Cl6_2 Cl 0.6628(7) 1.0000 0.1806(7)
Zn12_2 Zn 0.66686(9) 1.0000 0.08593(8)
N34_2 N 1.0000 0.6765(7) 0.0006(5)
Cl7_2 Cl 1.0000 0.6628(7) 0.1806(7)
Zn14_2 Zn 1.0000 0.66686(9) 0.08593(8)
C43 C 0.8255(7) 0.5050(7) 0.1154(5)
C44 C 0.8336(8) 0.4116(7) 0.0685(4)
H37 H 0.8205 0.3590 0.0538
N51 N 0.8994(6) 0.5444(6) 0.0871(4)
N52 N 0.7966(8) 0.5434(8) 0.1470(4)
H38 H 0.8254 0.5980 0.1510
H39 H 0.7487 0.5138 0.1637
Eu3_4 Eu 1.0000 1.0000 0.37534(5)
Zn20 Zn 0.78890(10) 0.78890(10) 0.35652(7)
Cl2_8 Cl 1.0000 1.0000 1.0000
C13 C 0.5050(7) 0.6795(10) 0.8846(5)
C14 C 0.4116(7) 0.5780(11) 0.9315(4)
H8 H 0.3590 0.5385 0.9462
N10 N 0.6765(7) 0.6765(7) 0.9994(5)
N13 N 0.4805(5) 0.5782(7) 0.9436(3)
N15 N 0.5444(6) 0.6450(8) 0.9129(4)
N16 N 0.5434(8) 0.7468(11) 0.8530(4)
H11 H 0.5980 0.7726 0.8490
H12 H 0.5138 0.7651 0.8363
Cl4 Cl 0.6628(7) 0.6628(7) 0.8194(7)
Zn6 Zn 0.66686(9) 0.66686(9) 0.91407(8)
C25 C 0.7941(7) 0.8438(7) 0.8888(5)
C26_2 C 0.7378(9) 1.0000 0.9690(6)
H19_2 H 0.7864 1.0000 0.9815
C27_2 C 0.6430(10) 1.0000 0.9180(7)
N25_2 N 0.7180(8) 1.0000 0.9173(5)
N28_2 N 0.6010(9) 1.0000 0.8719(6)
H21_2 H 0.5534 1.0000 0.8740
H22_2 H 0.6222 1.0000 0.8407
O25 O 0.8352(6) 0.9203(5) 0.8762(4)
Eu2_4 Eu 1.0000 1.0000 0.87534(5)
Zn11_2 Zn 0.78890(10) 1.0000 0.85652(7)
O26 O 0.7178(5) 0.8042(5) 0.9017(3)
C30 C 0.8438(7) 0.7941(7) 0.8888(5)
O27 O 0.9203(5) 0.8352(6) 0.8762(4)
O28 O 0.8042(5) 0.7178(5) 0.9017(3)
C32_2 C 1.0000 0.7378(9) 0.9690(6)
H25_2 H 1.0000 0.7864 0.9815
C33_2 C 1.0000 0.6430(10) 0.9180(7)
N33_2 N 1.0000 0.7180(8) 0.9173(5)
N36_2 N 1.0000 0.6010(9) 0.8719(6)
H27_2 H 1.0000 0.5534 0.8740
H28_2 H 1.0000 0.6222 0.8407
Zn13_2 Zn 1.0000 0.78890(10) 0.85652(7)
C53 C 0.6795(10) 0.5050(7) 0.8846(5)
C54 C 0.5780(11) 0.4116(7) 0.9315(4)
H52 H 0.5385 0.3590 0.9462
N69 N 0.5782(7) 0.4805(5) 0.9436(3)
N70 N 0.6387(8) 0.4196(6) 0.8957(4)
N71 N 0.6450(8) 0.5444(6) 0.9129(4)
N72 N 0.7468(11) 0.5434(8) 0.8530(4)
H53 H 0.7726 0.5980 0.8490
H54 H 0.7651 0.5138 0.8363
Cl9_4 Cl 1.0000 1.0000 0.7500
O37 O 0.7195(6) 0.9135(6) 0.7938(4)
O40 O 0.9135(6) 0.7195(6) 0.7938(4)
Cl2_9 Cl -0.0000 0.0000 0.5000
Eu1_5 Eu 0.0000 0.0000 0.62466(5)
C7_2 C 0.0497(10) 0.2059(7) 0.6112(5)
O4_2 O 0.0851(8) 0.1648(6) 0.6238(4)
O5_2 O 0.0864(7) 0.2822(5) 0.5983(3)
C17_2 C 0.2059(12) 0.0497(10) 0.6112(5)
C18_2 C 0.2619(20) 0.2133(16) 0.7500
C19_3 C 0.2622(9) 0.2622(9) 0.5310(6)
H13_3 H 0.2136 0.2136 0.5185
C20_3 C 0.3570(10) 0.3570(10) 0.5820(7)
C21_2 C 0.4950(12) 0.3205(10) 0.3846(5)
C22_2 C 0.5884(14) 0.4220(11) 0.4315(4)
H14_2 H 0.6410 0.4615 0.4462
N17_3 N 0.2820(8) 0.2820(8) 0.5827(5)
N18_3 N 0.3235(7) 0.3235(7) 0.4994(5)
N19_3 N 0.3838(6) 0.3838(6) 0.5323(5)
N20_3 N 0.3990(9) 0.3990(9) 0.6281(6)
H15_3 H 0.4466 0.4466 0.6260
H16_3 H 0.3778 0.3778 0.6593
N21_2 N 0.5195(9) 0.4218(7) 0.4436(3)
N22 N 0.5804(10) 0.3613(8) 0.3957(4)
N23_2 N 0.4556(10) 0.3550(8) 0.4129(4)
N24_2 N 0.4566(14) 0.2532(11) 0.3530(4)
H17_2 H 0.4020 0.2274 0.3490
H18_2 H 0.4862 0.2349 0.3363
O17_2 O 0.1648(9) 0.0851(8) 0.6238(4)
O18_2 O 0.2805(10) 0.1940(8) 0.7062(4)
Cl5_3 Cl 0.3372(7) 0.3372(7) 0.3194(7)
Zn8_3 Zn 0.21110(10) 0.21110(10) 0.64348(7)
Zn9_3 Zn 0.33314(9) 0.33314(9) 0.41407(8)
Zn10_5 Zn 0.5000 0.5000 0.5000
O19_2 O 0.2822(9) 0.0864(7) 0.5983(3)
C24_2 C 0.2133(16) 0.2619(11) 0.7500
O24_2 O 0.1940(8) 0.2805(6) 0.7062(4)
C31_2 C 0.2059(12) 0.1562(7) 0.3888(5)
C32_3 C 0.2622(9) 0.0000 0.4690(6)
H25_3 H 0.2136 0.0000 0.4815
C33_3 C 0.3570(10) 0.0000 0.4180(7)
C34_2 C 0.4950(12) 0.1745(7) 0.6154(5)
C35_2 C 0.5884(14) 0.1664(8) 0.5685(4)
H26_2 H 0.6410 0.1795 0.5538
N33_3 N 0.2820(8) 0.0000 0.4173(5)
N34_3 N 0.3235(7) -0.0000 0.5006(5)
N35 N 0.3838(6) -0.0000 0.4677(5)
N36_3 N 0.3990(9) 0.0000 0.3719(6)
H27_3 H 0.4466 0.0000 0.3740
H28_3 H 0.3778 -0.0000 0.3407
N37 N 0.5195(9) 0.0977(5) 0.5564(3)
N38 N 0.5804(10) 0.2191(6) 0.6043(4)
N39_2 N 0.4556(10) 0.1006(6) 0.5871(4)
N40_2 N 0.4566(14) 0.2034(8) 0.6470(4)
H29_2 H 0.4020 0.1746 0.6510
H30_2 H 0.4862 0.2513 0.6637
O29_2 O 0.1648(9) 0.0797(5) 0.3762(4)
Cl7_3 Cl 0.3372(7) 0.0000 0.6806(7)
Zn14_3 Zn 0.33314(9) -0.0000 0.58593(8)
O30_2 O 0.2822(9) 0.1958(5) 0.4017(3)
C36_2 C 0.1562(12) 0.2059(7) 0.3888(5)
O31_2 O 0.0797(10) 0.1648(6) 0.3762(4)
O32_2 O 0.1958(9) 0.2822(5) 0.4017(3)
C38_2 C -0.0000(13) 0.2622(9) 0.4690(6)
H31_2 H -0.0000 0.2136 0.4815
C39_2 C -0.0000(14) 0.3570(10) 0.4180(7)
N41_2 N -0.0000(11) 0.2820(8) 0.4173(5)
N42_2 N -0.0000(10) 0.3235(7) 0.5006(5)
N43_2 N -0.0000(8) 0.3838(6) 0.4677(5)
N44_2 N -0.0000(13) 0.3990(9) 0.3719(6)
H33_2 H -0.0000 0.4466 0.3740
H34_2 H -0.0000 0.3778 0.3407
Cl8_2 Cl -0.0000(10) 0.3372(7) 0.6806(7)
Zn16_2 Zn -0.00000(13) 0.33314(9) 0.58593(8)
C45_2 C 0.1745(12) 0.4950(7) 0.6154(5)
C46_2 C 0.1664(13) 0.5884(7) 0.5685(4)
H40_2 H 0.1795 0.6410 0.5538
N53_2 N 0.0977(9) 0.5195(5) 0.5564(3)
N54_2 N 0.2191(10) 0.5804(6) 0.6043(4)
N55_2 N 0.1006(10) 0.4556(6) 0.5871(4)
N56_2 N 0.2034(14) 0.4566(8) 0.6470(4)
H41_2 H 0.1746 0.4020 0.6510
H42_2 H 0.2513 0.4862 0.6637
Zn19_2 Zn 0.3334 0.6667 0.62746(9)
C49_2 C 0.3205(10) 0.4950(7) 0.3846(5)
C50_2 C 0.4220(11) 0.5884(7) 0.4315(4)
H46_2 H 0.4615 0.6410 0.4462
N61_2 N 0.4218(7) 0.5195(5) 0.4436(3)
N62_2 N 0.3613(8) 0.5804(6) 0.3957(4)
N63_2 N 0.3550(8) 0.4556(6) 0.4129(4)
N64_2 N 0.2532(11) 0.4566(8) 0.3530(4)
H47_2 H 0.2274 0.4020 0.3490
H48_2 H 0.2349 0.4862 0.3363
N73_3 N 0.6162(6) 0.6162(6) 0.4677(5)
N76_2 N 0.5782(7) 0.4805(5) 0.5564(3)
N81_2 N 0.4805(9) 0.5782(7) 0.5564(3)
N86_2 N 0.3613(8) 0.7809(6) 0.6043(4)
N89_2 N 0.4196(10) 0.6387(8) 0.6043(4)
Zn23 Zn 0.5000 0.0000 0.5000
Zn24_3 Zn -0.0000 0.5000 0.5000
Zn27 Zn 0.6666 0.3333 0.37254(9)
Zn29 Zn 0.6666 0.3333 0.62746(9)
Zn33_2 Zn 0.3334 0.6667 0.37254(9)
Cl2_10 Cl -0.0000 1.0000 0.5000
Eu1_6 Eu 0.0000 1.0000 0.62466(5)
C11_2 C -0.0000(13) 0.7378(9) 0.5310(6)
H7_2 H 0.0000 0.7864 0.5185
C12_2 C 0.0000(14) 0.6430(10) 0.5820(7)
N9_2 N 0.0000(11) 0.7180(8) 0.5827(5)
N10_2 N 0.0000(10) 0.6765(7) 0.4994(5)
N11_2 N 0.0000(8) 0.6162(6) 0.5323(5)
N12_2 N 0.0000(13) 0.6010(9) 0.6281(6)
H9_2 H 0.0000 0.5534 0.6260
H10_2 H 0.0000 0.6222 0.6593
Cl4_2 Cl 0.0000(10) 0.6628(7) 0.3194(7)
Zn5_2 Zn 0.00000(14) 0.78890(10) 0.64348(7)
Zn6_2 Zn 0.00000(13) 0.66686(9) 0.41407(8)
C16_2 C 0.0486(19) 0.7867(16) 0.7500
O16_2 O 0.0865(10) 0.8060(8) 0.7062(4)
C23_2 C 0.1562(12) 0.9503(10) 0.6112(5)
O20_2 O 0.0797(10) 0.9149(8) 0.6238(4)
O21_2 O 0.1958(9) 0.9136(7) 0.5983(3)
C30_2 C 0.0497(10) 0.8438(7) 0.3888(5)
O27_2 O 0.0851(8) 0.9203(5) 0.3762(4)
O28_2 O 0.0864(7) 0.8042(5) 0.4017(3)
C32_4 C 0.2622(9) 1.0000 0.4690(6)
H25_4 H 0.2136 1.0000 0.4815
C33_4 C 0.3570(10) 1.0000 0.4180(7)
N33_4 N 0.2820(8) 1.0000 0.4173(5)
N34_4 N 0.3235(7) 1.0000 0.5006(5)
N35_2 N 0.3838(6) 1.0000 0.4677(5)
N36_4 N 0.3990(9) 1.0000 0.3719(6)
H27_4 H 0.4466 1.0000 0.3740
H28_4 H 0.3778 1.0000 0.3407
Cl7_4 Cl 0.3372(7) 1.0000 0.6806(7)
Zn14_4 Zn 0.33314(9) 1.0000 0.58593(8)
C43_2 C 0.3205(10) 0.8255(7) 0.6154(5)
C44_2 C 0.4220(11) 0.8336(8) 0.5685(4)
H37_2 H 0.4615 0.8205 0.5538
N49 N 0.4218(7) 0.9023(5) 0.5564(3)
N51_2 N 0.3550(8) 0.8994(6) 0.5871(4)
N52_2 N 0.2532(11) 0.7966(8) 0.6470(4)
H38_2 H 0.2274 0.8254 0.6510
H39_2 H 0.2349 0.7487 0.6637
C53_2 C 0.1745(12) 0.6795(10) 0.3846(5)
C54_2 C 0.1664(13) 0.5780(11) 0.4315(4)
H52_2 H 0.1795 0.5385 0.4462
N69_2 N 0.0977(9) 0.5782(7) 0.4436(3)
N70_2 N 0.2191(10) 0.6387(8) 0.3957(4)
N71_2 N 0.1006(10) 0.6450(8) 0.4129(4)
N72_2 N 0.2034(14) 0.7468(11) 0.3530(4)
H53_2 H 0.1746 0.7726 0.3490
H54_2 H 0.2513 0.7651 0.3363
Zn23_2 Zn 0.5000 1.0000 0.5000
C1_2 C 0.9503(10) 0.1562(7) 0.6112(5)
C2_2 C 0.7867(16) 0.0486(12) 0.7500
C3_3 C 0.7378(9) -0.0000 0.5310(6)
H1_3 H 0.7864 -0.0000 0.5185
C4_3 C 0.6430(10) -0.0000 0.5820(7)
C5_2 C 0.6795(10) 0.1745(7) 0.3846(5)
C6_2 C 0.5780(11) 0.1664(8) 0.4315(4)
H2_2 H 0.5385 0.1795 0.4462
Cl2_11 Cl 1.0000 0.0000 0.5000
N1_3 N 0.7180(8) -0.0000 0.5827(5)
N2_3 N 0.6765(7) 0.0000 0.4994(5)
N3_3 N 0.6162(6) 0.0000 0.5323(5)
N4_3 N 0.6010(9) -0.0000 0.6281(6)
H3_3 H 0.5534 -0.0000 0.6260
H4_3 H 0.6222 0.0000 0.6593
N5_2 N 0.5782(7) 0.0977(5) 0.4436(3)
N6_2 N 0.6387(8) 0.2191(6) 0.3957(4)
N7_2 N 0.6450(8) 0.1006(6) 0.4129(4)
N8_2 N 0.7468(11) 0.2034(8) 0.3530(4)
H5_2 H 0.7726 0.1746 0.3490
H6_2 H 0.7651 0.2513 0.3363
O1_2 O 0.9149(8) 0.0797(5) 0.6238(4)
O2_2 O 0.8060(8) 0.0865(6) 0.7062(4)
Cl3_3 Cl 0.6628(7) -0.0000 0.3194(7)
Eu1_7 Eu 1.0000 0.0000 0.62466(5)
Zn1_3 Zn 0.78890(10) -0.0000 0.64348(7)
Zn2_3 Zn 0.66686(9) 0.0000 0.41407(8)
O3_2 O 0.9136(7) 0.1958(5) 0.5983(3)
C37_2 C 0.8438(12) 0.0497(10) 0.3888(5)
C38_3 C 1.0000(13) 0.2622(9) 0.4690(6)
H31_3 H 1.0000 0.2136 0.4815
C39_3 C 1.0000(14) 0.3570(10) 0.4180(7)
C40_2 C 0.8255(12) 0.3205(10) 0.6154(5)
C41_2 C 0.8336(13) 0.4220(11) 0.5685(4)
H32_2 H 0.8205 0.4615 0.5538
N41_3 N 1.0000(11) 0.2820(8) 0.4173(5)
N42_3 N 1.0000(10) 0.3235(7) 0.5006(5)
N43_3 N 1.0000(8) 0.3838(6) 0.4677(5)
N44_3 N 1.0000(13) 0.3990(9) 0.3719(6)
H33_3 H 1.0000 0.4466 0.3740
H34_3 H 1.0000 0.3778 0.3407
N45_2 N 0.9023(9) 0.4218(7) 0.5564(3)
N46_2 N 0.7809(10) 0.3613(8) 0.6043(4)
N47_2 N 0.8994(10) 0.3550(8) 0.5871(4)
N48_2 N 0.7966(14) 0.2532(11) 0.6470(4)
H35_2 H 0.8254 0.2274 0.6510
H36_2 H 0.7487 0.2349 0.6637
O33_2 O 0.9203(10) 0.0851(8) 0.3762(4)
Cl8_3 Cl 1.0000(10) 0.3372(7) 0.6806(7)
Zn16_3 Zn 1.00000(13) 0.33314(9) 0.58593(8)
O34_2 O 0.8042(9) 0.0864(7) 0.4017(3)
N82_2 N 0.7809(10) 0.4196(6) 0.3957(4)
N84_2 N 0.6387(8) 0.4196(6) 0.6043(4)
Zn24_4 Zn 1.0000 0.5000 0.5000
C3_4 C 0.7378(9) 1.0000 0.5310(6)
H1_4 H 0.7864 1.0000 0.5185
C4_4 C 0.6430(10) 1.0000 0.5820(7)
Cl2_12 Cl 1.0000 1.0000 0.5000
N1_4 N 0.7180(8) 1.0000 0.5827(5)
N2_4 N 0.6765(7) 1.0000 0.4994(5)
N3_4 N 0.6162(6) 1.0000 0.5323(5)
N4_4 N 0.6010(9) 1.0000 0.6281(6)
H3_4 H 0.5534 1.0000 0.6260
H4_4 H 0.6222 1.0000 0.6593
Cl3_4 Cl 0.6628(7) 1.0000 0.3194(7)
Eu1_8 Eu 1.0000 1.0000 0.62466(5)
Zn1_4 Zn 0.78890(10) 1.0000 0.64348(7)
Zn2_4 Zn 0.66686(9) 1.0000 0.41407(8)
C8_2 C 0.7381(20) 0.9514(12) 0.7500
O8_2 O 0.7195(10) 0.9135(6) 0.7062(4)
C9_2 C 0.8438(12) 0.7941(7) 0.6112(5)
C10_2 C 0.9514(19) 0.7381(11) 0.7500
C11_3 C 1.0000(13) 0.7378(9) 0.5310(6)
H7_3 H 1.0000 0.7864 0.5185
C12_3 C 1.0000(14) 0.6430(10) 0.5820(7)
C13_2 C 0.8255(12) 0.5050(7) 0.3846(5)
C14_2 C 0.8336(13) 0.4116(7) 0.4315(4)
H8_2 H 0.8205 0.3590 0.4462
N9_3 N 1.0000(11) 0.7180(8) 0.5827(5)
N10_3 N 1.0000(10) 0.6765(7) 0.4994(5)
N11_3 N 1.0000(8) 0.6162(6) 0.5323(5)
N12_3 N 1.0000(13) 0.6010(9) 0.6281(6)
H9_3 H 1.0000 0.5534 0.6260
H10_3 H 1.0000 0.6222 0.6593
N13_2 N 0.9023(9) 0.4805(5) 0.4436(3)
N15_2 N 0.8994(10) 0.5444(6) 0.4129(4)
N16_2 N 0.7966(14) 0.5434(8) 0.3530(4)
H11_2 H 0.8254 0.5980 0.3490
H12_2 H 0.7487 0.5138 0.3363
O9_2 O 0.9203(10) 0.8352(6) 0.6238(4)
O10_2 O 0.9135(10) 0.7195(6) 0.7062(4)
Cl4_3 Cl 1.0000(10) 0.6628(7) 0.3194(7)
Zn5_3 Zn 1.00000(14) 0.78890(10) 0.64348(7)
Zn6_3 Zn 1.00000(13) 0.66686(9) 0.41407(8)
O11_2 O 0.8042(9) 0.7178(5) 0.5983(3)
C15_2 C 0.7941(12) 0.8438(7) 0.6112(5)
O12_2 O 0.8352(9) 0.9203(5) 0.6238(4)
O13_2 O 0.7178(9) 0.8042(5) 0.5983(3)
C25_2 C 0.9503(10) 0.7941(7) 0.3888(5)
C26_3 C 0.7378(9) 0.7378(9) 0.4690(6)
H19_3 H 0.7864 0.7864 0.4815
C27_3 C 0.6430(10) 0.6430(10) 0.4180(7)
C28_2 C 0.6795(10) 0.5050(7) 0.6154(5)
C29_2 C 0.5780(11) 0.4116(7) 0.5685(4)
H20_2 H 0.5385 0.3590 0.5538
N25_3 N 0.7180(8) 0.7180(8) 0.4173(5)
N26_3 N 0.6765(7) 0.6765(7) 0.5006(5)
N28_3 N 0.6010(9) 0.6010(9) 0.3719(6)
H21_3 H 0.5534 0.5534 0.3740
H22_3 H 0.6222 0.6222 0.3407
N31_2 N 0.6450(8) 0.5444(6) 0.5871(4)
N32_2 N 0.7468(11) 0.5434(8) 0.6470(4)
H23_2 H 0.7726 0.5980 0.6510
H24_2 H 0.7651 0.5138 0.6637
O25_2 O 0.9149(8) 0.8352(6) 0.3762(4)
Cl6_3 Cl 0.6628(7) 0.6628(7) 0.6806(7)
Zn12_3 Zn 0.66686(9) 0.66686(9) 0.58593(8)
O26_2 O 0.9136(7) 0.7178(5) 0.4017(3)
C42_2 C 0.7941(12) 0.9503(10) 0.3888(5)
O35_2 O 0.8352(9) 0.9149(8) 0.3762(4)
O36_2 O 0.7178(9) 0.9136(7) 0.4017(3)
C47_2 C 0.5050(12) 0.6795(10) 0.6154(5)
C48_2 C 0.4116(14) 0.5780(11) 0.5685(4)
H43_2 H 0.3590 0.5385 0.5538
N59_2 N 0.5444(10) 0.6450(8) 0.5871(4)
N60_2 N 0.5434(14) 0.7468(11) 0.6470(4)
H44_2 H 0.5980 0.7726 0.6510
H45_2 H 0.5138 0.7651 0.6637
C51_2 C 0.5050(12) 0.8255(7) 0.3846(5)
C52_2 C 0.4116(14) 0.8336(8) 0.4315(4)
H49_2 H 0.3590 0.8205 0.4462
N65_2 N 0.4805(9) 0.9023(5) 0.4436(3)
N66_2 N 0.4196(10) 0.7809(6) 0.3957(4)
N67_2 N 0.5444(10) 0.8994(6) 0.4129(4)
N68_2 N 0.5434(14) 0.7966(8) 0.3530(4)
H50_2 H 0.5980 0.8254 0.3490
H51_2 H 0.5138 0.7487 0.3363
loop_
_geom_bond_atom_site_label_1
_geom_bond_atom_site_label_2
_geom_bond_site_symmetry_1
_geom_bond_site_symmetry_2
C1 O1 1_555 1_555
C2 O2 1_555 1_555
C3 H1 1_555 1_555
C4 N1 1_555 1_555
Cl1 Eu1 1_555 1_555
Cl2 Eu1 1_555 1_555
N1 C3 1_555 1_555
N3 C4 1_555 1_555
N4 C4 1_555 1_555
H3 N4 1_555 1_555
H4 N4 1_555 1_555
O1 Eu1 1_555 1_555
O2 Zn1 1_555 1_555
Eu1 O4 1_555 1_555
Zn1 N1 1_555 1_555
Zn3 N3 1_555 1_555
O3 C1 1_555 1_555
C7 C1 1_555 1_555
O4 C7 1_555 1_555
O5 C7 1_555 1_555
O7 C2 1_555 1_555
C19 H13 1_555 1_555
C20 N17 1_555 1_555
N17 C19 1_555 1_555
N19 C20 1_555 1_555
N20 C20 1_555 1_555
H15 N20 1_555 1_555
H16 N20 1_555 1_555
Zn8 O4 1_555 1_555
Zn10 N19 1_555 1_555
O22 C24 1_555 1_555
O24 Zn8 1_555 1_555
C40 N46 1_555 1_555
C41 H32 1_555 1_555
N45 C41 1_555 1_555
N46 C41 1_555 1_555
N47 C40 1_555 1_555
N48 C40 1_555 1_555
H35 N48 1_555 1_555
H36 N48 1_555 1_555
Cl8 Zn16 1_555 1_555
Zn16 O3 1_555 1_555
Zn17 N46 1_555 1_555
C45 N54 1_555 1_555
C46 H40 1_555 1_555
N53 C46 1_555 1_555
N54 C46 1_555 1_555
N55 Zn16 1_555 1_555
N56 C45 1_555 1_555
H41 N56 1_555 1_555
H42 N56 1_555 1_555
Zn19 N54 1_555 1_555
N77 Zn3 1_555 1_555
N81 Zn10 1_555 1_555
N84 Zn17 1_555 1_555
N85 Zn17 1_555 1_555
N86 Zn19 1_555 1_555
N89 Zn19 1_555 1_555
Eu3 Cl1 1_555 1_555
Zn21 O22 1_555 1_555
O1 Zn1 1_555 1_555
O5 Zn16 1_555 1_555
O7 Zn22 1_555 1_555
N17 Zn8 1_555 1_555
C24 O24 1_555 1_555
N42 Zn16 1_555 1_555
N45 N47 1_555 1_555
N45 Zn24 1_555 1_555
N47 Zn16 1_555 1_555
C45 N55 1_555 1_555
N53 N55 1_555 1_555
N53 Zn24 1_555 1_555
C5 N6 1_555 1_555
C6 H2 1_555 1_555
N5 C6 1_555 1_555
N6 C6 1_555 1_555
N7 C5 1_555 1_555
N8 C5 1_555 1_555
H5 N8 1_555 1_555
H6 N8 1_555 1_555
Cl3 Zn2 1_555 1_555
Zn2 N2 1_555 1_555
Zn4 N6 1_555 1_555
Cl5 Zn9 1_555 1_555
Zn9 N18 1_555 1_555
Eu2 Cl2_2 1_555 1_555
O31 Eu2 1_555 1_555
O32 Zn9 1_555 1_555
C37 O33 1_555 1_555
C38 H31 1_555 1_555
C39 N41 1_555 1_555
N41 C38 1_555 1_555
N43 C39 1_555 1_555
N44 C39 1_555 1_555
H33 N44 1_555 1_555
H34 N44 1_555 1_555
O33 Eu2 1_555 1_555
Zn15 O31 1_555 1_555
O34 Zn2 1_555 1_555
C49 N62 1_555 1_555
C50 H46 1_555 1_555
N61 Zn10_2 1_555 1_555
N62 C50 1_555 1_555
N63 Zn9 1_555 1_555
N64 C49 1_555 1_555
H47 N64 1_555 1_555
H48 N64 1_555 1_555
Cl9 Eu2 1_555 1_555
N73 Zn10_2 1_555 1_555
N74 Zn3_2 1_555 1_555
N82 Zn4 1_555 1_555
N83 Zn4 1_555 1_555
O39 Zn15 1_555 1_555
O41 Zn15 1_555 1_555
Zn24_2 N43 1_555 1_555
Zn33 N62 1_555 1_555
N5 N7 1_555 1_555
N5 Zn3_2 1_555 1_555
N7 Zn2 1_555 1_555
C36 O31 1_555 1_555
C36 O32 1_555 1_555
C37 O34 1_555 1_555
N41 Zn15 1_555 1_555
O33 Zn15 1_555 1_555
C49 N63 1_555 1_555
C50 N61 1_555 1_555
N61 N63 1_555 1_555
Cl1_2 Eu1_2 1_555 1_555
Cl2_3 Eu1_2 1_555 1_555
C17 O17 1_555 1_555
C18 O18 1_555 1_555
C19_2 H13_2 1_555 1_555
C20_2 N17_2 1_555 1_555
N17_2 C19_2 1_555 1_555
N19_2 C20_2 1_555 1_555
N20_2 C20_2 1_555 1_555
H15_2 N20_2 1_555 1_555
H16_2 N20_2 1_555 1_555
O17 Eu1_2 1_555 1_555
O18 Zn8_2 1_555 1_555
Zn10_3 N19_2 1_555 1_555
O19 C17 1_555 1_555
O23 C18 1_555 1_555
C34 N85 1_555 1_555
C35 H26 1_555 1_555
N77 C35 1_555 1_555
N85 C35 1_555 1_555
N39 C34 1_555 1_555
N40 C34 1_555 1_555
H29 N40 1_555 1_555
H30 N40 1_555 1_555
Cl7 Zn14 1_555 1_555
Zn14 O19 1_555 1_555
N76 Zn10_3 1_555 1_555
Eu3_2 Cl1_2 1_555 1_555
N17_2 Zn8_2 1_555 1_555
O17 Zn8_2 1_555 1_555
O23 Zn21_2 1_555 1_555
N34 Zn14 1_555 1_555
N77 N39 1_555 1_555
N39 Zn14 1_555 1_555
C21 N83 1_555 1_555
C22 H14 1_555 1_555
N21 C22 1_555 1_555
N83 C22 1_555 1_555
N23 C21 1_555 1_555
N24 C21 1_555 1_555
H17 N24 1_555 1_555
H18 N24 1_555 1_555
Cl5_2 Zn9_2 1_555 1_555
Zn9_2 N18_2 1_555 1_555
Eu2_2 Cl2_4 1_555 1_555
C31 O29 1_555 1_555
C32 H25 1_555 1_555
C33 N33 1_555 1_555
N33 C32 1_555 1_555
N74 C33 1_555 1_555
N36 C33 1_555 1_555
H27 N36 1_555 1_555
H28 N36 1_555 1_555
O29 Eu2_2 1_555 1_555
O30 Zn9_2 1_555 1_555
Cl9_2 Eu2_2 1_555 1_555
N73_2 Zn10_4 1_555 1_555
O38 Zn13 1_555 1_555
N21 N23 1_555 1_555
N21 Zn10_4 1_555 1_555
N23 Zn9_2 1_555 1_555
C31 O30 1_555 1_555
N33 Zn13 1_555 1_555
O29 Zn13 1_555 1_555
C3_2 H1_2 1_555 1_555
C4_2 N1_2 1_555 1_555
Cl1_3 Eu1_3 1_555 1_555
Cl2_5 Eu1_3 1_555 1_555
N1_2 C3_2 1_555 1_555
N3_2 C4_2 1_555 1_555
N4_2 C4_2 1_555 1_555
H3_2 N4_2 1_555 1_555
H4_2 N4_2 1_555 1_555
Zn1_2 N1_2 1_555 1_555
Zn3_3 N3_2 1_555 1_555
O6 C8 1_555 1_555
O8 Zn1_2 1_555 1_555
O12 Eu1_3 1_555 1_555
O13 C15 1_555 1_555
Cl6 Zn12 1_555 1_555
C47 N89 1_555 1_555
C48 H43 1_555 1_555
N81 C48 1_555 1_555
N89 C48 1_555 1_555
N59 Zn12 1_555 1_555
N60 C47 1_555 1_555
H44 N60 1_555 1_555
H45 N60 1_555 1_555
N79 Zn3_3 1_555 1_555
Eu3_3 Cl1_3 1_555 1_555
Zn22_2 O6 1_555 1_555
Zn1_2 O12 1_555 1_555
C8 O8 1_555 1_555
C15 O12 1_555 1_555
O13 Zn12 1_555 1_555
N26 Zn12 1_555 1_555
C47 N59 1_555 1_555
N81 N59 1_555 1_555
Cl3_2 Zn2_2 1_555 1_555
Zn2_2 N2_2 1_555 1_555
C26 H19 1_555 1_555
C27 N25 1_555 1_555
N25 C26 1_555 1_555
N73 C27 1_555 1_555
N28 C27 1_555 1_555
H21 N28 1_555 1_555
H22 N28 1_555 1_555
Eu2_3 Cl2_6 1_555 1_555
Zn11 N25 1_555 1_555
O35 Eu2_3 1_555 1_555
O36 Zn2_2 1_555 1_555
C51 N66 1_555 1_555
C52 H49 1_555 1_555
N65 Zn3_4 1_555 1_555
N66 C52 1_555 1_555
N67 Zn2_2 1_555 1_555
N68 C51 1_555 1_555
H50 N68 1_555 1_555
H51 N68 1_555 1_555
Cl9_3 Eu2_3 1_555 1_555
N74_2 Zn3_4 1_555 1_555
O42 Zn11 1_555 1_555
Zn33 N66 1_555 1_555
Zn11 O35 1_555 1_555
C42 O35 1_555 1_555
C42 O36 1_555 1_555
C51 N67 1_555 1_555
C52 N65 1_555 1_555
N65 N67 1_555 1_555
Cl1_4 Eu1_4 1_555 1_555
Cl2_7 Eu1_4 1_555 1_555
C9 O9 1_555 1_555
C10 O10 1_555 1_555
C11 H7 1_555 1_555
C12 N9 1_555 1_555
N9 C11 1_555 1_555
N11 C12 1_555 1_555
N12 C12 1_555 1_555
H9 N12 1_555 1_555
H10 N12 1_555 1_555
O9 Eu1_4 1_555 1_555
O10 Zn5 1_555 1_555
Zn5 N9 1_555 1_555
Zn24 N11 1_555 1_555
O11 C9 1_555 1_555
C16 C10 1_555 1_555
O14 C16 1_555 1_555
O15 C10 1_555 1_555
O16 Zn5 1_555 1_555
O20 Eu1_4 1_555 1_555
O21 C23 1_555 1_555
C28 N84 1_555 1_555
C29 H20 1_555 1_555
N76 C29 1_555 1_555
N84 C29 1_555 1_555
N31 C28 1_555 1_555
N32 C28 1_555 1_555
H23 N32 1_555 1_555
H24 N32 1_555 1_555
Cl6_2 Zn12_2 1_555 1_555
Zn12_2 O11 1_555 1_555
Cl7_2 Zn14_2 1_555 1_555
C43 N86 1_555 1_555
C44 H37 1_555 1_555
N79 C44 1_555 1_555
N86 C44 1_555 1_555
N51 Zn14_2 1_555 1_555
N52 C43 1_555 1_555
H38 N52 1_555 1_555
H39 N52 1_555 1_555
Eu3_4 Cl1_4 1_555 1_555
Zn20 O14 1_555 1_555
O9 Zn5 1_555 1_555
Zn5 O20 1_555 1_555
C16 O16 1_555 1_555
O15 Zn20 1_555 1_555
C23 O20 1_555 1_555
O21 Zn14_2 1_555 1_555
N26_2 Zn12_2 1_555 1_555
N76 N31 1_555 1_555
N31 Zn12_2 1_555 1_555
N34_2 Zn14_2 1_555 1_555
C43 N51 1_555 1_555
N79 N51 1_555 1_555
C13 N82 1_555 1_555
C14 H8 1_555 1_555
N13 C14 1_555 1_555
N82 C14 1_555 1_555
N15 C13 1_555 1_555
N16 C13 1_555 1_555
H11 N16 1_555 1_555
H12 N16 1_555 1_555
Cl4 Zn6 1_555 1_555
Zn6 N10 1_555 1_555
C25 O25 1_555 1_555
C26_2 H19_2 1_555 1_555
C27_2 N25_2 1_555 1_555
N25_2 C26_2 1_555 1_555
N73_2 C27_2 1_555 1_555
N28_2 C27_2 1_555 1_555
H21_2 N28_2 1_555 1_555
H22_2 N28_2 1_555 1_555
O25 Eu2_4 1_555 1_555
Eu2_4 Cl2_8 1_555 1_555
Zn11_2 N25_2 1_555 1_555
O26 Zn6 1_555 1_555
C30 C25 1_555 1_555
O27 Eu2_4 1_555 1_555
O28 Zn6 1_555 1_555
C32_2 H25_2 1_555 1_555
C33_2 N33_2 1_555 1_555
N33_2 C32_2 1_555 1_555
N74_2 C33_2 1_555 1_555
N36_2 C33_2 1_555 1_555
H27_2 N36_2 1_555 1_555
H28_2 N36_2 1_555 1_555
Zn13_2 O27 1_555 1_555
C53 N70 1_555 1_555
C54 H52 1_555 1_555
N69 Zn24_2 1_555 1_555
N70 C54 1_555 1_555
N71 Zn6 1_555 1_555
N72 C53 1_555 1_555
H53 N72 1_555 1_555
H54 N72 1_555 1_555
Cl9_4 Eu2_4 1_555 1_555
O37 Zn11_2 1_555 1_555
O40 Zn13_2 1_555 1_555
Zn33 N70 1_555 1_555
N13 N15 1_555 1_555
N13 Zn24_2 1_555 1_555
N15 Zn6 1_555 1_555
C25 O26 1_555 1_555
O25 Zn11_2 1_555 1_555
C30 O27 1_555 1_555
C30 O28 1_555 1_555
N33_2 Zn13_2 1_555 1_555
C53 N71 1_555 1_555
C54 N69 1_555 1_555
N69 N71 1_555 1_555
Cl9 Eu1_5 1_555 1_555
Cl2_9 Eu1_5 1_555 1_555
Eu1_5 O4_2 1_555 1_555
O4_2 C7_2 1_555 1_555
O5_2 C7_2 1_555 1_555
C17_2 O17_2 1_555 1_555
C18_2 O18_2 1_555 1_555
C19_3 H13_3 1_555 1_555
C20_3 N17_3 1_555 1_555
C21_2 N22 1_555 1_555
C22_2 H14_2 1_555 1_555
N17_3 C19_3 1_555 1_555
N18_3 C19_3 1_555 1_555
N19_3 C20_3 1_555 1_555
N20_3 C20_3 1_555 1_555
H15_3 N20_3 1_555 1_555
H16_3 N20_3 1_555 1_555
N21_2 C22_2 1_555 1_555
N22 C22_2 1_555 1_555
N23_2 C21_2 1_555 1_555
N24_2 C21_2 1_555 1_555
H17_2 N24_2 1_555 1_555
H18_2 N24_2 1_555 1_555
O17_2 Eu1_5 1_555 1_555
O18_2 Zn8_3 1_555 1_555
Cl5_3 Zn9_3 1_555 1_555
Zn8_3 O4_2 1_555 1_555
Zn9_3 N18_3 1_555 1_555
Zn10_5 N19_3 1_555 1_555
O19_2 C17_2 1_555 1_555
C24_2 C18_2 1_555 1_555
O39 C24_2 1_555 1_555
O41 C18_2 1_555 1_555
O24_2 Zn8_3 1_555 1_555
Eu3 Cl2_9 1_555 1_555
C31_2 O29_2 1_555 1_555
C32_3 H25_3 1_555 1_555
C33_3 N33_3 1_555 1_555
C34_2 N38 1_555 1_555
C35_2 H26_2 1_555 1_555
N33_3 C32_3 1_555 1_555
N34_3 C32_3 1_555 1_555
N35 C33_3 1_555 1_555
N36_3 C33_3 1_555 1_555
H27_3 N36_3 1_555 1_555
H28_3 N36_3 1_555 1_555
N37 C35_2 1_555 1_555
N38 C35_2 1_555 1_555
N39_2 C34_2 1_555 1_555
N40_2 C34_2 1_555 1_555
H29_2 N40_2 1_555 1_555
H30_2 N40_2 1_555 1_555
O29_2 Eu3 1_555 1_555
Cl7_3 Zn14_3 1_555 1_555
Zn14_3 O19_2 1_555 1_555
O30_2 Zn9_3 1_555 1_555
C36_2 C31_2 1_555 1_555
O31_2 Eu3 1_555 1_555
O32_2 Zn9_3 1_555 1_555
C38_2 H31_2 1_555 1_555
C39_2 N41_2 1_555 1_555
N41_2 C38_2 1_555 1_555
N42_2 C38_2 1_555 1_555
N43_2 C39_2 1_555 1_555
N44_2 C39_2 1_555 1_555
H33_2 N44_2 1_555 1_555
H34_2 N44_2 1_555 1_555
Cl8_2 Zn16_2 1_555 1_555
Zn22 O31_2 1_555 1_555
C45_2 N54_2 1_555 1_555
C46_2 H40_2 1_555 1_555
N53_2 C46_2 1_555 1_555
N54_2 C46_2 1_555 1_555
N55_2 Zn16_2 1_555 1_555
N56_2 C45_2 1_555 1_555
H41_2 N56_2 1_555 1_555
H42_2 N56_2 1_555 1_555
Zn19_2 N54_2 1_555 1_555
C49_2 N62_2 1_555 1_555
C50_2 H46_2 1_555 1_555
N61_2 Zn10_5 1_555 1_555
N62_2 C50_2 1_555 1_555
N63_2 Zn9_3 1_555 1_555
N64_2 C49_2 1_555 1_555
H47_2 N64_2 1_555 1_555
H48_2 N64_2 1_555 1_555
N73_3 Zn10_5 1_555 1_555
N76_2 Zn10_5 1_555 1_555
N81_2 Zn10_5 1_555 1_555
N86_2 Zn19_2 1_555 1_555
N89_2 Zn19_2 1_555 1_555
Zn23 N35 1_555 1_555
Zn24_3 N43_2 1_555 1_555
Zn27 N22 1_555 1_555
Zn29 N38 1_555 1_555
Zn33_2 N62_2 1_555 1_555
O5_2 Zn16_2 1_555 1_555
N17_3 Zn8_3 1_555 1_555
N18_3 N19_3 1_555 1_555
N21_2 N23_2 1_555 1_555
N21_2 Zn10_5 1_555 1_555
N23_2 Zn9_3 1_555 1_555
O17_2 Zn8_3 1_555 1_555
C24_2 O24_2 1_555 1_555
C31_2 O30_2 1_555 1_555
N33_3 Zn21 1_555 1_555
N34_3 N35 1_555 1_555
N34_3 Zn14_3 1_555 1_555
N37 N39_2 1_555 1_555
N37 Zn23 1_555 1_555
N39_2 Zn14_3 1_555 1_555
O29_2 Zn21 1_555 1_555
C36_2 O31_2 1_555 1_555
C36_2 O32_2 1_555 1_555
N41_2 Zn22 1_555 1_555
N42_2 N43_2 1_555 1_555
N42_2 Zn16_2 1_555 1_555
C45_2 N55_2 1_555 1_555
N53_2 N55_2 1_555 1_555
N53_2 Zn24_3 1_555 1_555
C49_2 N63_2 1_555 1_555
C50_2 N61_2 1_555 1_555
N61_2 N63_2 1_555 1_555
Cl9_2 Eu1_6 1_555 1_555
Cl2_10 Eu1_6 1_555 1_555
C11_2 H7_2 1_555 1_555
C12_2 N9_2 1_555 1_555
N9_2 C11_2 1_555 1_555
N10_2 C11_2 1_555 1_555
N11_2 C12_2 1_555 1_555
N12_2 C12_2 1_555 1_555
H9_2 N12_2 1_555 1_555
H10_2 N12_2 1_555 1_555
Cl4_2 Zn6_2 1_555 1_555
Zn5_2 N9_2 1_555 1_555
Zn6_2 N10_2 1_555 1_555
Zn24_3 N11_2 1_555 1_555
O38 C16_2 1_555 1_555
O16_2 Zn5_2 1_555 1_555
O20_2 Eu1_6 1_555 1_555
O21_2 C23_2 1_555 1_555
Eu3_2 Cl2_10 1_555 1_555
O27_2 Eu3_2 1_555 1_555
O28_2 Zn6_2 1_555 1_555
C32_4 H25_4 1_555 1_555
C33_4 N33_4 1_555 1_555
N33_4 C32_4 1_555 1_555
N34_4 C32_4 1_555 1_555
N35_2 C33_4 1_555 1_555
N36_4 C33_4 1_555 1_555
H27_4 N36_4 1_555 1_555
H28_4 N36_4 1_555 1_555
Cl7_4 Zn14_4 1_555 1_555
Zn21_2 O27_2 1_555 1_555
C43_2 N86_2 1_555 1_555
C44_2 H37_2 1_555 1_555
N49 C44_2 1_555 1_555
N86_2 C44_2 1_555 1_555
N51_2 Zn14_4 1_555 1_555
N52_2 C43_2 1_555 1_555
H38_2 N52_2 1_555 1_555
H39_2 N52_2 1_555 1_555
C53_2 N70_2 1_555 1_555
C54_2 H52_2 1_555 1_555
N69_2 Zn24_3 1_555 1_555
N70_2 C54_2 1_555 1_555
N71_2 Zn6_2 1_555 1_555
N72_2 C53_2 1_555 1_555
H53_2 N72_2 1_555 1_555
H54_2 N72_2 1_555 1_555
Zn23_2 N35_2 1_555 1_555
Zn33_2 N70_2 1_555 1_555
N10_2 N11_2 1_555 1_555
Zn5_2 O20_2 1_555 1_555
C16_2 O16_2 1_555 1_555
C23_2 O20_2 1_555 1_555
O21_2 Zn14_4 1_555 1_555
C30_2 O27_2 1_555 1_555
C30_2 O28_2 1_555 1_555
N33_4 Zn21_2 1_555 1_555
N34_4 N35_2 1_555 1_555
N34_4 Zn14_4 1_555 1_555
C43_2 N51_2 1_555 1_555
N49 N51_2 1_555 1_555
N49 Zn23_2 1_555 1_555
C53_2 N71_2 1_555 1_555
C54_2 N69_2 1_555 1_555
N69_2 N71_2 1_555 1_555
C1_2 O1_2 1_555 1_555
C2_2 O2_2 1_555 1_555
C3_3 H1_3 1_555 1_555
C4_3 N1_3 1_555 1_555
C5_2 N6_2 1_555 1_555
C6_2 H2_2 1_555 1_555
Cl9_3 Eu1_7 1_555 1_555
Cl2_11 Eu1_7 1_555 1_555
N1_3 C3_3 1_555 1_555
N2_3 C3_3 1_555 1_555
N3_3 C4_3 1_555 1_555
N4_3 C4_3 1_555 1_555
H3_3 N4_3 1_555 1_555
H4_3 N4_3 1_555 1_555
N5_2 C6_2 1_555 1_555
N6_2 C6_2 1_555 1_555
N7_2 C5_2 1_555 1_555
N8_2 C5_2 1_555 1_555
H5_2 N8_2 1_555 1_555
H6_2 N8_2 1_555 1_555
O1_2 Eu1_7 1_555 1_555
O2_2 Zn1_3 1_555 1_555
Cl3_3 Zn2_3 1_555 1_555
Zn1_3 N1_3 1_555 1_555
Zn2_3 N2_3 1_555 1_555
Zn23 N3_3 1_555 1_555
Zn27 N6_2 1_555 1_555
O3_2 C1_2 1_555 1_555
O42 C2_2 1_555 1_555
Eu3_3 Cl2_11 1_555 1_555
C37_2 O33_2 1_555 1_555
C38_3 H31_3 1_555 1_555
C39_3 N41_3 1_555 1_555
C40_2 N46_2 1_555 1_555
C41_2 H32_2 1_555 1_555
N41_3 C38_3 1_555 1_555
N42_3 C38_3 1_555 1_555
N43_3 C39_3 1_555 1_555
N44_3 C39_3 1_555 1_555
H33_3 N44_3 1_555 1_555
H34_3 N44_3 1_555 1_555
N45_2 C41_2 1_555 1_555
N46_2 C41_2 1_555 1_555
N47_2 C40_2 1_555 1_555
N48_2 C40_2 1_555 1_555
H35_2 N48_2 1_555 1_555
H36_2 N48_2 1_555 1_555
O33_2 Eu3_3 1_555 1_555
Cl8_3 Zn16_3 1_555 1_555
Zn16_3 O3_2 1_555 1_555
Zn29 N46_2 1_555 1_555
O34_2 Zn2_3 1_555 1_555
N82_2 Zn27 1_555 1_555
N84_2 Zn29 1_555 1_555
Zn24_4 N43_3 1_555 1_555
N2_3 N3_3 1_555 1_555
N5_2 N7_2 1_555 1_555
N5_2 Zn23 1_555 1_555
N7_2 Zn2_3 1_555 1_555
O1_2 Zn1_3 1_555 1_555
C37_2 O34_2 1_555 1_555
N41_3 Zn22_2 1_555 1_555
N42_3 N43_3 1_555 1_555
N42_3 Zn16_3 1_555 1_555
N45_2 N47_2 1_555 1_555
N45_2 Zn24_4 1_555 1_555
N47_2 Zn16_3 1_555 1_555
O33_2 Zn22_2 1_555 1_555
C3_4 H1_4 1_555 1_555
C4_4 N1_4 1_555 1_555
Cl9_4 Eu1_8 1_555 1_555
Cl2_12 Eu1_8 1_555 1_555
N1_4 C3_4 1_555 1_555
N2_4 C3_4 1_555 1_555
N3_4 C4_4 1_555 1_555
N4_4 C4_4 1_555 1_555
H3_4 N4_4 1_555 1_555
H4_4 N4_4 1_555 1_555
Cl3_4 Zn2_4 1_555 1_555
Zn1_4 N1_4 1_555 1_555
Zn2_4 N2_4 1_555 1_555
Zn23_2 N3_4 1_555 1_555
O37 C8_2 1_555 1_555
O8_2 Zn1_4 1_555 1_555
C9_2 O9_2 1_555 1_555
C10_2 O10_2 1_555 1_555
C11_3 H7_3 1_555 1_555
C12_3 N9_3 1_555 1_555
C13_2 N82_2 1_555 1_555
C14_2 H8_2 1_555 1_555
N9_3 C11_3 1_555 1_555
N10_3 C11_3 1_555 1_555
N11_3 C12_3 1_555 1_555
N12_3 C12_3 1_555 1_555
H9_3 N12_3 1_555 1_555
H10_3 N12_3 1_555 1_555
N13_2 C14_2 1_555 1_555
N82_2 C14_2 1_555 1_555
N15_2 C13_2 1_555 1_555
N16_2 C13_2 1_555 1_555
H11_2 N16_2 1_555 1_555
H12_2 N16_2 1_555 1_555
O9_2 Eu1_8 1_555 1_555
O10_2 Zn5_3 1_555 1_555
Cl4_3 Zn6_3 1_555 1_555
Zn5_3 N9_3 1_555 1_555
Zn6_3 N10_3 1_555 1_555
Zn24_4 N11_3 1_555 1_555
O11_2 C9_2 1_555 1_555
C15_2 C9_2 1_555 1_555
O12_2 Eu1_8 1_555 1_555
O13_2 C15_2 1_555 1_555
O40 C10_2 1_555 1_555
C25_2 O25_2 1_555 1_555
C26_3 H19_3 1_555 1_555
C27_3 N25_3 1_555 1_555
C28_2 N84_2 1_555 1_555
C29_2 H20_2 1_555 1_555
N25_3 C26_3 1_555 1_555
N26_3 C26_3 1_555 1_555
N73_3 C27_3 1_555 1_555
N28_3 C27_3 1_555 1_555
H21_3 N28_3 1_555 1_555
H22_3 N28_3 1_555 1_555
N76_2 C29_2 1_555 1_555
N84_2 C29_2 1_555 1_555
N31_2 C28_2 1_555 1_555
N32_2 C28_2 1_555 1_555
H23_2 N32_2 1_555 1_555
H24_2 N32_2 1_555 1_555
O25_2 Eu3_4 1_555 1_555
Cl6_3 Zn12_3 1_555 1_555
Eu3_4 Cl2_12 1_555 1_555
Zn20 N25_3 1_555 1_555
Zn12_3 O11_2 1_555 1_555
O26_2 Zn6_3 1_555 1_555
O35_2 Eu3_4 1_555 1_555
O36_2 Zn2_4 1_555 1_555
C47_2 N89_2 1_555 1_555
C48_2 H43_2 1_555 1_555
N81_2 C48_2 1_555 1_555
N89_2 C48_2 1_555 1_555
N59_2 Zn12_3 1_555 1_555
N60_2 C47_2 1_555 1_555
H44_2 N60_2 1_555 1_555
H45_2 N60_2 1_555 1_555
C51_2 N66_2 1_555 1_555
C52_2 H49_2 1_555 1_555
N65_2 Zn23_2 1_555 1_555
N66_2 C52_2 1_555 1_555
N67_2 Zn2_4 1_555 1_555
N68_2 C51_2 1_555 1_555
H50_2 N68_2 1_555 1_555
H51_2 N68_2 1_555 1_555
Zn33_2 N66_2 1_555 1_555
N2_4 N3_4 1_555 1_555
Zn1_4 O12_2 1_555 1_555
C8_2 O8_2 1_555 1_555
N10_3 N11_3 1_555 1_555
N13_2 N15_2 1_555 1_555
N13_2 Zn24_4 1_555 1_555
N15_2 Zn6_3 1_555 1_555
O9_2 Zn5_3 1_555 1_555
C15_2 O12_2 1_555 1_555
O13_2 Zn12_3 1_555 1_555
C25_2 O26_2 1_555 1_555
N26_3 N73_3 1_555 1_555
N26_3 Zn12_3 1_555 1_555
N76_2 N31_2 1_555 1_555
N31_2 Zn12_3 1_555 1_555
O25_2 Zn20 1_555 1_555
Zn20 O35_2 1_555 1_555
C42_2 O35_2 1_555 1_555
C42_2 O36_2 1_555 1_555
C47_2 N59_2 1_555 1_555
N81_2 N59_2 1_555 1_555
C51_2 N67_2 1_555 1_555
C52_2 N65_2 1_555 1_555
N65_2 N67_2 1_555 1_555

#END
