
###############################################################################
#
# This file contains modified crystal structure data generated from the
# MOF subset of the Cambridge Structural Database (CSD) v543 
# hosted by the Cambridge Crystallographic Data Centre (CCDC).
#
# This work is licensed under the Creative Commons
# Attribution-NonCommercial-ShareAlike 4.0 International License.
# To view a copy of this license, visit
# http://creativecommons.org/licenses/by-nc-sa/4.0/
# or send a letter to
# Creative Commons, PO Box 1866, Mountain View, CA 94042, USA.
#
# CIF created using the CSD Python API on 29 September 2022
# The structure has been converted into the P1 space group
# The structure has a 3D framework
# The original CSD entry VODPOU is in the orthorhombic crystal system
# The framework has been calculated to contain at least 10.0% void space
# The void calculation uses a probe of radius 1.32A, grid spacing 0.4
# The framework is charged, counterions have been retained in the structure
# H atom positions have been added when not included in the experimental data
#
###############################################################################

data_VODPOU
_chemical_formula_moiety         '(C96 H88 Mn20 N172 O8)n'
_symmetry_cell_setting           triclinic
_symmetry_space_group_name_H-M   'P 1'
_symmetry_Int_Tables_number      1
_space_group_name_Hall           'P 1'
loop_
_symmetry_equiv_pos_site_id
_symmetry_equiv_pos_as_xyz
1 x,y,z
_cell_length_a                   15.2396(3)
_cell_length_b                   13.4770(3)
_cell_length_c                   26.2200(5)
_cell_angle_alpha                90
_cell_angle_beta                 90
_cell_angle_gamma                90
_cell_volume                     5385.17
loop_
_atom_site_label
_atom_site_type_symbol
_atom_site_fract_x
_atom_site_fract_y
_atom_site_fract_z
Mn1 Mn 0.04072(6) 0.69633(8) 0.36018(4)
Mn3 Mn 0.53024(6) 0.42180(7) 0.17424(4)
N2 N 0.1295(5) 0.9416(6) 0.4200(3)
N3 N 0.1254(4) 0.8270(4) 0.3494(2)
N5 N 0.4963(4) 0.4940(4) 0.2509(2)
C1 C 0.4403(4) 0.5959(5) 0.3367(3)
H1 H 0.4213 0.6313 0.3651
C2 C 0.5534(5) 0.5263(5) 0.2855(3)
H2 H 0.6126 0.5120 0.2810
C3 C 0.4117(5) 0.5103(5) 0.2601(3)
H3 H 0.3711 0.4879 0.2362
C4 C 0.3808(4) 0.5578(5) 0.3024(2)
C7 C 0.2836(4) 0.5625(5) 0.3100(2)
C8 C 0.5277(5) 0.5807(6) 0.3282(3)
H5 H 0.5694 0.6062 0.3506
N8 N 0.1267(4) 0.8854(5) 0.3857(3)
N13 N 0.2368(3) 0.6448(4) 0.31722(19)
O1 O 0.1241(3) 0.6684(4) 0.42881(17)
N15 N 0.2349(3) 0.4807(4) 0.31058(18)
N16 N 0.1525(3) 0.5151(4) 0.31906(19)
N22 N 0.1541(3) 0.6115(4) 0.32296(19)
Mn4 Mn 0.24974(7) 0.81094(7) 0.30743(3)
Mn5 Mn 0.25026(7) 0.31094(7) 0.30743(3)
Mn9 Mn 0.03024(6) 0.42180(7) 0.32576(4)
N24 N 0.5979(4) 0.3449(4) 0.1094(2)
N26 N 0.4167(4) 0.3312(5) 0.1726(2)
N28 N 0.6525(3) 0.5151(4) 0.18094(19)
N30 N 0.6119(4) 0.3116(4) 0.2224(2)
N31 N 0.4758(4) 0.5499(4) 0.1347(2)
H10 H 0.119599 0.725671 0.452493
H11 H 0.103614 0.607322 0.446329
Mn2 Mn 0.74974(7) 0.68906(7) 0.69257(3)
N1 N 0.8227(4) 0.6925(4) 0.61673(19)
N4 N 0.7981(4) 0.7418(5) 0.5744(2)
N6 N 0.9260(4) 0.7709(4) 0.2564(2)
C5 C 0.9311(4) 0.6774(5) 0.5633(2)
C6 C 0.9308(5) 0.7366(6) 0.4567(3)
H4 H 0.9706 0.6892 0.4681
N7 N 0.9021(4) 0.6551(4) 0.6094(2)
C9 C 0.8686(5) 0.7703(7) 0.4906(3)
C10 C 0.8151(11) 0.8453(13) 0.4738(5)
H6 H 0.7771 0.8766 0.4964
C11 C 0.8178(12) 0.8742(15) 0.4234(5)
H7 H 0.7767 0.9186 0.4105
N9 N 0.8983(7) 0.5522(6) 0.3725(4)
N10 N 0.7013(5) 0.7083(5) 0.7683(2)
N11 N 0.6414(4) 0.6875(4) 0.7967(3)
N12 N 0.9650(4) 0.7312(5) 0.2894(2)
N14 N 0.5833(4) 0.6688(5) 0.8274(2)
N17 N 0.8881(4) 0.8116(4) 0.2224(2)
N18 N 0.9758(4) 0.5499(4) 0.3653(2)
N19 N 0.8678(5) 0.7292(6) 0.5432(3)
C12 C 0.8813(7) 0.8366(8) 0.3931(4)
H8 H 0.8858 0.8603 0.3599
N20 N 0.8197(7) 0.5556(9) 0.3748(7)
N21 N 0.9374(4) 0.7680(4) 0.4082(2)
Mn6 Mn 0.74974(7) 0.81094(7) 0.19257(3)
Mn7 Mn 0.96976(6) 0.57820(7) 0.67424(4)
Mn8 Mn 0.46976(6) 0.57820(7) 0.82576(4)
Mn10 Mn 0.96976(6) 0.92180(7) 0.17424(4)
N23 N 0.6254(4) 0.6730(4) 0.6506(2)
N25 N 0.7368(3) 0.8552(4) 0.68278(19)
N27 N 0.7651(3) 0.5193(4) 0.68942(18)
N29 N 0.8881(4) 0.6884(4) 0.7224(2)
H9 H 0.993598 0.657109 0.546074
Mn2_2 Mn 0.75026(7) 0.31094(7) 0.19257(3)
N1_2 N 0.6773(4) 0.3075(4) 0.11673(19)
N4_2 N 0.7019(4) 0.2582(5) 0.0744(2)
C5_2 C 0.5689(4) 0.3226(5) 0.0633(2)
N10_2 N 0.7987(5) 0.2917(5) 0.2683(2)
N11_2 N 0.8586(4) 0.3125(4) 0.2967(3)
N14_2 N 0.9167(4) 0.3312(5) 0.3274(2)
N19_2 N 0.6322(5) 0.2708(6) 0.0432(3)
N23_2 N 0.8746(4) 0.3270(4) 0.1506(2)
N25_2 N 0.7632(3) 0.1448(4) 0.18278(19)
N27_2 N 0.7349(3) 0.4807(4) 0.18942(18)
H9_2 H 0.506402 0.342891 0.0460745
Mn1_2 Mn 0.45928(6) 0.30367(8) 0.86018(4)
N2_2 N 0.3705(5) 0.0584(6) 0.9200(3)
N3_2 N 0.3746(4) 0.1730(4) 0.8494(2)
N5_2 N 0.0037(4) 0.5060(4) 0.7509(2)
C1_2 C 0.0597(4) 0.4041(5) 0.8367(3)
H1_2 H 0.0787 0.3687 0.8651
N6_2 N 0.5740(4) 0.2291(4) 0.7564(2)
C3_2 C 0.0883(5) 0.4897(5) 0.7601(3)
H3_2 H 0.1289 0.5121 0.7362
C4_2 C 0.1192(4) 0.4422(5) 0.8024(2)
C6_2 C 0.5692(5) 0.2634(6) 0.9567(3)
H4_2 H 0.5294 0.3108 0.9681
C7_2 C 0.2164(4) 0.4375(5) 0.8100(2)
C9_2 C 0.6314(5) 0.2297(7) 0.9906(3)
N8_2 N 0.3733(4) 0.1146(5) 0.8857(3)
C10_2 C 0.6849(11) 0.1547(13) 0.9738(5)
H6_2 H 0.7229 0.1234 0.9964
C11_2 C 0.6822(12) 0.1258(15) 0.9234(5)
H7_2 H 0.7233 0.0814 0.9105
N9_2 N 0.6017(7) 0.4478(6) 0.8725(4)
N12_2 N 0.5350(4) 0.2688(5) 0.7894(2)
N13_2 N 0.2632(3) 0.3552(4) 0.81722(19)
O1_2 O 0.3759(3) 0.3316(4) 0.92881(17)
N15_2 N 0.2651(3) 0.5193(4) 0.81058(18)
N16_2 N 0.3475(3) 0.4849(4) 0.81906(19)
N17_2 N 0.6119(4) 0.1884(4) 0.7224(2)
N18_2 N 0.5242(4) 0.4501(4) 0.8653(2)
C12_2 C 0.6187(7) 0.1634(8) 0.8931(4)
H8_2 H 0.6142 0.1397 0.8599
N20_2 N 0.6803(7) 0.4444(9) 0.8748(7)
N21_2 N 0.5626(4) 0.2320(4) 0.9082(2)
N22_2 N 0.3459(3) 0.3885(4) 0.82296(19)
Mn4_2 Mn 0.25026(7) 0.18906(7) 0.80743(3)
Mn5_2 Mn 0.24974(7) 0.68906(7) 0.80743(3)
Mn6_2 Mn 0.75026(7) 0.18906(7) 0.69257(3)
Mn10_2 Mn 0.53024(6) 0.07820(7) 0.67424(4)
N26_2 N 0.0833(4) 0.6688(5) 0.6726(2)
N31_2 N 0.0242(4) 0.4501(4) 0.6347(2)
H10_2 H 0.380401 0.274329 0.952493
H11_2 H 0.396386 0.392678 0.946329
C2_2 C 0.9466(5) 0.4737(5) 0.7855(3)
H2_2 H 0.8874 0.4880 0.7810
C8_2 C 0.9723(5) 0.4193(6) 0.8282(3)
H5_2 H 0.9306 0.3938 0.8506
N28_2 N 0.8475(3) 0.4849(4) 0.68094(19)
N6_3 N 0.0740(4) 0.2709(4) 0.2436(2)
C6_3 C 0.0692(5) 0.2366(6) 0.0433(3)
H4_3 H 0.0294 0.1892 0.0319
C9_3 C 0.1314(5) 0.2703(7) 0.0094(3)
C10_3 C 0.1849(11) 0.3453(13) 0.0262(5)
H6_3 H 0.2229 0.3766 0.0036
C11_3 C 0.1822(12) 0.3742(15) 0.0766(5)
H7_3 H 0.2233 0.4186 0.0895
N9_3 N 0.1017(7) 0.0522(6) 0.1275(4)
N12_3 N 0.0350(4) 0.2312(5) 0.2106(2)
N17_3 N 0.1119(4) 0.3116(4) 0.2776(2)
N18_3 N 0.0242(4) 0.0499(4) 0.1347(2)
C12_3 C 0.1187(7) 0.3366(8) 0.1069(4)
H8_3 H 0.1142 0.3603 0.1401
N20_3 N 0.1803(7) 0.0556(9) 0.1252(7)
N21_3 N 0.0626(4) 0.2680(4) 0.0918(2)
N1_3 N 0.1773(4) 0.1925(4) 0.88327(19)
N4_3 N 0.2019(4) 0.2418(5) 0.9256(2)
C5_3 C 0.0689(4) 0.1774(5) 0.9367(2)
N7_2 N 0.0979(4) 0.1551(4) 0.8906(2)
N10_3 N 0.2987(5) 0.2083(5) 0.7317(2)
N11_3 N 0.3586(4) 0.1875(4) 0.7033(3)
N14_3 N 0.4167(4) 0.1688(5) 0.6726(2)
N19_3 N 0.1322(5) 0.2292(6) 0.9568(3)
Mn7_2 Mn 0.03024(6) 0.07820(7) 0.82576(4)
N27_3 N 0.2349(3) 0.0193(4) 0.81058(18)
N29_2 N 0.1119(4) 0.1884(4) 0.7776(2)
H9_3 H 0.00640201 0.157109 0.953926
Mn1_3 Mn 0.95928(6) 0.19633(8) 0.13982(4)
N2_3 N 0.8705(5) 0.4416(6) 0.0800(3)
C1_3 C 0.5597(4) 0.0959(5) 0.1633(3)
H1_3 H 0.5787 0.1313 0.1349
C2_3 C 0.4466(5) 0.0263(5) 0.2145(3)
H2_3 H 0.3874 0.0120 0.2190
C3_3 C 0.5883(5) 0.0103(5) 0.2399(3)
C4_3 C 0.6192(4) 0.0578(5) 0.1976(2)
C7_3 C 0.7164(4) 0.0625(5) 0.1900(2)
C8_3 C 0.4723(5) 0.0807(6) 0.1718(3)
H5_3 H 0.4306 0.1062 0.1494
N8_3 N 0.8733(4) 0.3854(5) 0.1143(3)
O1_3 O 0.8759(3) 0.1684(4) 0.07119(17)
N16_3 N 0.8475(3) 0.0151(4) 0.18094(19)
N22_3 N 0.8459(3) 0.1115(4) 0.17704(19)
N28_3 N 0.3475(3) 0.0151(4) 0.31906(19)
N31_3 N 0.5242(4) 0.0499(4) 0.3653(2)
H10_3 H 0.880401 0.225671 0.0475069
H11_3 H 0.896386 0.107322 0.0536709
Mn3_2 Mn 0.46976(6) 0.92180(7) 0.32576(4)
N5_3 N 0.5037(4) 0.9940(4) 0.2491(2)
H3_3 H 0.6289 0.9879 0.2638
N15_3 N 0.7651(3) 0.9807(4) 0.18942(18)
N24_2 N 0.4021(4) 0.8449(4) 0.3906(2)
N26_3 N 0.5833(4) 0.8312(5) 0.3274(2)
N30_2 N 0.3881(4) 0.8116(4) 0.2776(2)
C2_4 C 0.0534(5) 0.9737(5) 0.7145(3)
H2_4 H 0.1126 0.9880 0.7190
C8_4 C 0.0277(5) 0.9193(6) 0.6718(3)
H5_4 H 0.0694 0.8938 0.6494
N28_4 N 0.1525(3) 0.9849(4) 0.81906(19)
N5_4 N 0.9963(4) 0.0060(4) 0.7491(2)
H3_4 H 0.8711 0.0121 0.7638
N15_4 N 0.7349(3) 0.0193(4) 0.68942(18)
N26_4 N 0.9167(4) 0.1688(5) 0.8274(2)
Mn1_4 Mn 0.54072(6) 0.80367(8) 0.63982(4)
N1_4 N 0.3227(4) 0.8075(4) 0.38327(19)
N2_4 N 0.6295(5) 0.5584(6) 0.5800(3)
N4_4 N 0.2981(4) 0.7582(5) 0.4256(2)
C1_4 C 0.9403(4) 0.9041(5) 0.6633(3)
H1_4 H 0.9213 0.8687 0.6349
N6_4 N 0.4260(4) 0.7291(4) 0.7436(2)
C3_4 C 0.9117(5) 0.9897(5) 0.7399(3)
C4_4 C 0.8808(4) 0.9422(5) 0.6976(2)
C5_4 C 0.4311(4) 0.8226(5) 0.4367(2)
C6_4 C 0.4308(5) 0.7634(6) 0.5433(3)
H4_4 H 0.4706 0.8108 0.5319
C7_4 C 0.7836(4) 0.9375(5) 0.6900(2)
C9_4 C 0.3686(5) 0.7297(7) 0.5094(3)
N8_4 N 0.6267(4) 0.6146(5) 0.6143(3)
C10_4 C 0.3151(11) 0.6547(13) 0.5262(5)
H6_4 H 0.2771 0.6234 0.5036
C11_4 C 0.3178(12) 0.6258(15) 0.5766(5)
H7_4 H 0.2767 0.5814 0.5895
N9_4 N 0.3983(7) 0.9478(6) 0.6275(4)
N10_4 N 0.2013(5) 0.7917(5) 0.2317(2)
N11_4 N 0.1414(4) 0.8125(4) 0.2033(3)
N12_4 N 0.4650(4) 0.7688(5) 0.7106(2)
O1_4 O 0.6241(3) 0.8316(4) 0.57119(17)
N14_4 N 0.0833(4) 0.8312(5) 0.1726(2)
N16_4 N 0.6525(3) 0.9849(4) 0.68094(19)
N17_4 N 0.3881(4) 0.6884(4) 0.7776(2)
N18_4 N 0.4758(4) 0.9501(4) 0.6347(2)
N19_4 N 0.3678(5) 0.7708(6) 0.4568(3)
C12_4 C 0.3813(7) 0.6634(8) 0.6069(4)
H8_4 H 0.3858 0.6397 0.6401
N20_4 N 0.3197(7) 0.9444(9) 0.6252(7)
N21_4 N 0.4374(4) 0.7320(4) 0.5918(2)
N22_4 N 0.6541(3) 0.8885(4) 0.67704(19)
N27_4 N 0.2651(3) 0.9807(4) 0.31058(18)
N31_4 N 0.9758(4) 0.9501(4) 0.8653(2)
H9_4 H 0.493598 0.842891 0.453926
H10_4 H 0.619599 0.774329 0.547507
H11_4 H 0.603614 0.892678 0.553671
N1_5 N 0.1773(4) 0.3075(4) 0.38327(19)
N4_5 N 0.2019(4) 0.2582(5) 0.4256(2)
N6_5 N 0.0740(4) 0.2291(4) 0.7436(2)
C5_5 C 0.0689(4) 0.3226(5) 0.4367(2)
C6_5 C 0.0692(5) 0.2634(6) 0.5433(3)
H4_5 H 0.0294 0.3108 0.5319
N7_3 N 0.0979(4) 0.3449(4) 0.3906(2)
C9_5 C 0.1314(5) 0.2297(7) 0.5094(3)
C10_5 C 0.1849(11) 0.1547(13) 0.5262(5)
H6_5 H 0.2229 0.1234 0.5036
C11_5 C 0.1822(12) 0.1258(15) 0.5766(5)
H7_5 H 0.2233 0.0814 0.5895
N9_5 N 0.1017(7) 0.4478(6) 0.6275(4)
N10_5 N 0.2987(5) 0.2917(5) 0.2317(2)
N11_5 N 0.3586(4) 0.3125(4) 0.2033(3)
N12_5 N 0.0350(4) 0.2688(5) 0.7106(2)
N19_5 N 0.1322(5) 0.2708(6) 0.4568(3)
C12_5 C 0.1187(7) 0.1634(8) 0.6069(4)
H8_5 H 0.1142 0.1397 0.6401
N20_5 N 0.1803(7) 0.4444(9) 0.6252(7)
N21_5 N 0.0626(4) 0.2320(4) 0.5918(2)
N23_3 N 0.3746(4) 0.3270(4) 0.3494(2)
N25_3 N 0.2632(3) 0.1448(4) 0.31722(19)
H9_5 H 0.00640201 0.342891 0.453926
Mn1_5 Mn 0.95928(6) 0.30367(8) 0.63982(4)
N2_5 N 0.8705(5) 0.0584(6) 0.5800(3)
N3_3 N 0.8746(4) 0.1730(4) 0.6506(2)
N5_5 N 0.5037(4) 0.5060(4) 0.7491(2)
C1_5 C 0.5597(4) 0.4041(5) 0.6633(3)
H1_5 H 0.5787 0.3687 0.6349
C2_5 C 0.4466(5) 0.4737(5) 0.7145(3)
H2_5 H 0.3874 0.4880 0.7190
C3_5 C 0.5883(5) 0.4897(5) 0.7399(3)
H3_5 H 0.6289 0.5121 0.7638
C4_5 C 0.6192(4) 0.4422(5) 0.6976(2)
C7_5 C 0.7164(4) 0.4375(5) 0.6900(2)
C8_5 C 0.4723(5) 0.4193(6) 0.6718(3)
H5_5 H 0.4306 0.3938 0.6494
N8_5 N 0.8733(4) 0.1146(5) 0.6143(3)
N13_3 N 0.7632(3) 0.3552(4) 0.68278(19)
O1_5 O 0.8759(3) 0.3316(4) 0.57119(17)
N22_5 N 0.8459(3) 0.3885(4) 0.67704(19)
N24_3 N 0.4021(4) 0.6551(4) 0.8906(2)
H10_5 H 0.880401 0.274329 0.547507
H11_5 H 0.896386 0.392678 0.553671
C2_6 C 0.0534(5) 0.5263(5) 0.2145(3)
H2_6 H 0.1126 0.5120 0.2190
C8_6 C 0.0277(5) 0.5807(6) 0.1718(3)
H5_6 H 0.0694 0.6062 0.1494
Mn1_6 Mn 0.54072(6) 0.69633(8) 0.13982(4)
N2_6 N 0.6295(5) 0.9416(6) 0.0800(3)
N3_4 N 0.6254(4) 0.8270(4) 0.1506(2)
N5_6 N 0.9963(4) 0.4940(4) 0.2491(2)
C1_6 C 0.9403(4) 0.5959(5) 0.1633(3)
H1_6 H 0.9213 0.6313 0.1349
N6_6 N 0.4260(4) 0.7709(4) 0.2436(2)
C3_6 C 0.9117(5) 0.5103(5) 0.2399(3)
H3_6 H 0.8711 0.4879 0.2638
C4_6 C 0.8808(4) 0.5578(5) 0.1976(2)
C6_6 C 0.4308(5) 0.7366(6) 0.0433(3)
H4_6 H 0.4706 0.6892 0.0319
C7_6 C 0.7836(4) 0.5625(5) 0.1900(2)
C9_6 C 0.3686(5) 0.7703(7) 0.0094(3)
N8_6 N 0.6267(4) 0.8854(5) 0.1143(3)
C10_6 C 0.3151(11) 0.8453(13) 0.0262(5)
H6_6 H 0.2771 0.8766 0.0036
C11_6 C 0.3178(12) 0.8742(15) 0.0766(5)
H7_6 H 0.2767 0.9186 0.0895
N9_6 N 0.3983(7) 0.5522(6) 0.1275(4)
N12_6 N 0.4650(4) 0.7312(5) 0.2106(2)
N13_4 N 0.7368(3) 0.6448(4) 0.18278(19)
O1_6 O 0.6241(3) 0.6684(4) 0.07119(17)
C12_6 C 0.3813(7) 0.8366(8) 0.1069(4)
H8_6 H 0.3858 0.8603 0.1401
N20_6 N 0.3197(7) 0.5556(9) 0.1252(7)
N21_6 N 0.4374(4) 0.7680(4) 0.0918(2)
N22_6 N 0.6541(3) 0.6115(4) 0.17704(19)
H10_6 H 0.619599 0.725671 0.0475069
H11_6 H 0.603614 0.607322 0.0536709
N1_6 N 0.3227(4) 0.6925(4) 0.88327(19)
N4_6 N 0.2981(4) 0.7418(5) 0.9256(2)
C5_6 C 0.4311(4) 0.6774(5) 0.9367(2)
N10_6 N 0.2013(5) 0.7083(5) 0.7317(2)
N11_6 N 0.1414(4) 0.6875(4) 0.7033(3)
N19_6 N 0.3678(5) 0.7292(6) 0.9568(3)
N23_4 N 0.1254(4) 0.6730(4) 0.8494(2)
N25_4 N 0.2368(3) 0.8552(4) 0.81722(19)
H9_6 H 0.493598 0.657109 0.953926
N5_7 N 0.4963(4) 0.0060(4) 0.7509(2)
H3_7 H 0.3711 0.0121 0.7362
N24_4 N 0.5979(4) 0.1551(4) 0.6094(2)
Mn1_7 Mn 0.04072(6) 0.80367(8) 0.86018(4)
N2_7 N 0.1295(5) 0.5584(6) 0.9200(3)
C1_7 C 0.4403(4) 0.9041(5) 0.8367(3)
H1_7 H 0.4213 0.8687 0.8651
C2_7 C 0.5534(5) 0.9737(5) 0.7855(3)
H2_7 H 0.6126 0.9880 0.7810
C3_7 C 0.4117(5) 0.9897(5) 0.7601(3)
C4_7 C 0.3808(4) 0.9422(5) 0.8024(2)
C7_7 C 0.2836(4) 0.9375(5) 0.8100(2)
C8_7 C 0.5277(5) 0.9193(6) 0.8282(3)
H5_7 H 0.5694 0.8938 0.8506
N8_7 N 0.1267(4) 0.6146(5) 0.8857(3)
O1_7 O 0.1241(3) 0.8316(4) 0.92881(17)
N22_7 N 0.1541(3) 0.8885(4) 0.82296(19)
H10_7 H 0.119599 0.774329 0.952493
H11_7 H 0.103614 0.892678 0.946329
N1_7 N 0.8227(4) 0.8075(4) 0.11673(19)
N4_7 N 0.7981(4) 0.7582(5) 0.0744(2)
C5_7 C 0.9311(4) 0.8226(5) 0.0633(2)
N7_4 N 0.9021(4) 0.8449(4) 0.1094(2)
N10_7 N 0.7013(5) 0.7917(5) 0.2683(2)
N11_7 N 0.6414(4) 0.8125(4) 0.2967(3)
N19_7 N 0.8678(5) 0.7708(6) 0.0432(3)
H9_7 H 0.993598 0.842891 0.0460745
N6_7 N 0.9260(4) 0.7291(4) 0.7564(2)
C6_7 C 0.9308(5) 0.7634(6) 0.9567(3)
H4_7 H 0.9706 0.8108 0.9681
C9_7 C 0.8686(5) 0.7297(7) 0.9906(3)
C10_7 C 0.8151(11) 0.6547(13) 0.9738(5)
H6_7 H 0.7771 0.6234 0.9964
C11_7 C 0.8178(12) 0.6258(15) 0.9234(5)
H7_7 H 0.7767 0.5814 0.9105
N9_7 N 0.8983(7) 0.9478(6) 0.8725(4)
N12_7 N 0.9650(4) 0.7688(5) 0.7894(2)
C12_7 C 0.8813(7) 0.6634(8) 0.8931(4)
H8_7 H 0.8858 0.6397 0.8599
N20_7 N 0.8197(7) 0.9444(9) 0.8748(7)
N21_7 N 0.9374(4) 0.7320(4) 0.9082(2)
Mn1_8 Mn 0.45928(6) 0.19633(8) 0.36018(4)
N1_8 N 0.6773(4) 0.1925(4) 0.61673(19)
N2_8 N 0.3705(5) 0.4416(6) 0.4200(3)
N4_8 N 0.7019(4) 0.2418(5) 0.5744(2)
C1_8 C 0.0597(4) 0.0959(5) 0.3367(3)
H1_8 H 0.0787 0.1313 0.3651
N6_8 N 0.5740(4) 0.2709(4) 0.2564(2)
C3_8 C 0.0883(5) 0.0103(5) 0.2601(3)
C4_8 C 0.1192(4) 0.0578(5) 0.3024(2)
C5_8 C 0.5689(4) 0.1774(5) 0.5633(2)
C6_8 C 0.5692(5) 0.2366(6) 0.4567(3)
H4_8 H 0.5294 0.1892 0.4681
C7_8 C 0.2164(4) 0.0625(5) 0.3100(2)
C9_8 C 0.6314(5) 0.2703(7) 0.4906(3)
N8_8 N 0.3733(4) 0.3854(5) 0.3857(3)
C10_8 C 0.6849(11) 0.3453(13) 0.4738(5)
H6_8 H 0.7229 0.3766 0.4964
C11_8 C 0.6822(12) 0.3742(15) 0.4234(5)
H7_8 H 0.7233 0.4186 0.4105
N9_8 N 0.6017(7) 0.0522(6) 0.3725(4)
N10_8 N 0.7987(5) 0.2083(5) 0.7683(2)
N11_8 N 0.8586(4) 0.1875(4) 0.7967(3)
N12_8 N 0.5350(4) 0.2312(5) 0.2894(2)
O1_8 O 0.3759(3) 0.1684(4) 0.42881(17)
N19_8 N 0.6322(5) 0.2292(6) 0.5432(3)
C12_8 C 0.6187(7) 0.3366(8) 0.3931(4)
H8_8 H 0.6142 0.3603 0.3599
N20_8 N 0.6803(7) 0.0556(9) 0.3748(7)
N21_8 N 0.5626(4) 0.2680(4) 0.4082(2)
N22_8 N 0.3459(3) 0.1115(4) 0.32296(19)
H9_8 H 0.506402 0.157109 0.546074
H10_8 H 0.380401 0.225671 0.452493
H11_8 H 0.396386 0.107322 0.446329
N5_8 N 0.0037(4) 0.9940(4) 0.2509(2)
H3_8 H 0.1289 0.9879 0.2362
C2_8 C 0.9466(5) 0.0263(5) 0.2855(3)
H2_8 H 0.8874 0.0120 0.2810
C8_8 C 0.9723(5) 0.0807(6) 0.3282(3)
H5_8 H 0.9306 0.1062 0.3506
loop_
_geom_bond_atom_site_label_1
_geom_bond_atom_site_label_2
_geom_bond_site_symmetry_1
_geom_bond_site_symmetry_2
Mn1 N3 1_555 1_555
Mn3 N5 1_555 1_555
N2 N8 1_555 1_555
N3 N8 1_555 1_555
N5 C2 1_555 1_555
C1 H1 1_555 1_555
C2 H2 1_555 1_555
C3 N5 1_555 1_555
H3 C3 1_555 1_555
C4 C1 1_555 1_555
C7 C4 1_555 1_555
C8 C1 1_555 1_555
H5 C8 1_555 1_555
N13 C7 1_555 1_555
O1 Mn1 1_555 1_555
N15 C7 1_555 1_555
N16 N15 1_555 1_555
N22 Mn1 1_555 1_555
Mn4 N3 1_555 1_555
Mn5 N15 1_555 1_555
Mn9 N16 1_555 1_555
N24 Mn3 1_555 1_555
N26 Mn3 1_555 1_555
N28 Mn3 1_555 1_555
N30 Mn3 1_555 1_555
N31 Mn3 1_555 1_555
C2 C8 1_555 1_555
C3 C4 1_555 1_555
N13 N22 1_555 1_555
N13 Mn4 1_555 1_555
N16 N22 1_555 1_555
O1 H10 1_555 1_555
O1 H11 1_555 1_555
Mn2 N1 1_555 1_555
N1 N4 1_555 1_555
N4 N19 1_555 1_555
N6 N12 1_555 1_555
C5 N7 1_555 1_555
C6 H4 1_555 1_555
N7 N1 1_555 1_555
C9 C6 1_555 1_555
C10 C9 1_555 1_555
H6 C10 1_555 1_555
C11 C10 1_555 1_555
H7 C11 1_555 1_555
N9 N18 1_555 1_555
N10 Mn2 1_555 1_555
N11 N10 1_555 1_555
N14 N11 1_555 1_555
N17 N6 1_555 1_555
N19 C5 1_555 1_555
C12 C11 1_555 1_555
H8 C12 1_555 1_555
N20 N9 1_555 1_555
Mn6 N17 1_555 1_555
Mn7 N7 1_555 1_555
Mn8 N14 1_555 1_555
Mn10 N17 1_555 1_555
N23 Mn2 1_555 1_555
N25 Mn2 1_555 1_555
N27 Mn2 1_555 1_555
N29 Mn2 1_555 1_555
C6 N21 1_555 1_555
C9 N19 1_555 1_555
C12 N21 1_555 1_555
Mn7 N29 1_555 1_555
C5 H9 1_555 1_555
Mn2_2 N1_2 1_555 1_555
N1_2 N4_2 1_555 1_555
N4_2 N19_2 1_555 1_555
C5_2 N24 1_555 1_555
N24 N1_2 1_555 1_555
N10_2 Mn2_2 1_555 1_555
N11_2 N10_2 1_555 1_555
N14_2 N11_2 1_555 1_555
N19_2 C5_2 1_555 1_555
N23_2 Mn2_2 1_555 1_555
N25_2 Mn2_2 1_555 1_555
N27_2 Mn2_2 1_555 1_555
N30 Mn2_2 1_555 1_555
C5_2 H9_2 1_555 1_555
Mn1_2 N3_2 1_555 1_555
N2_2 N8_2 1_555 1_555
N3_2 N8_2 1_555 1_555
C1_2 H1_2 1_555 1_555
N6_2 N12_2 1_555 1_555
C3_2 N5_2 1_555 1_555
H3_2 C3_2 1_555 1_555
C4_2 C1_2 1_555 1_555
C6_2 H4_2 1_555 1_555
C7_2 C4_2 1_555 1_555
C9_2 C6_2 1_555 1_555
C10_2 C9_2 1_555 1_555
H6_2 C10_2 1_555 1_555
C11_2 C10_2 1_555 1_555
H7_2 C11_2 1_555 1_555
N9_2 N18_2 1_555 1_555
N12_2 Mn1_2 1_555 1_555
N13_2 C7_2 1_555 1_555
O1_2 Mn1_2 1_555 1_555
N15_2 C7_2 1_555 1_555
N16_2 N15_2 1_555 1_555
N17_2 N6_2 1_555 1_555
N18_2 Mn1_2 1_555 1_555
C12_2 C11_2 1_555 1_555
H8_2 C12_2 1_555 1_555
N20_2 N9_2 1_555 1_555
N21_2 Mn1_2 1_555 1_555
N22_2 Mn1_2 1_555 1_555
Mn4_2 N3_2 1_555 1_555
Mn5_2 N15_2 1_555 1_555
Mn6_2 N17_2 1_555 1_555
Mn8 N16_2 1_555 1_555
Mn10_2 N17_2 1_555 1_555
C3_2 C4_2 1_555 1_555
C6_2 N21_2 1_555 1_555
N13_2 N22_2 1_555 1_555
N13_2 Mn4_2 1_555 1_555
N16_2 N22_2 1_555 1_555
N18_2 Mn8 1_555 1_555
C12_2 N21_2 1_555 1_555
O1_2 H10_2 1_555 1_555
O1_2 H11_2 1_555 1_555
C2_2 H2_2 1_555 1_555
H5_2 C8_2 1_555 1_555
N28_2 Mn7 1_555 1_555
C2_2 C8_2 1_555 1_555
N6_3 N12_3 1_555 1_555
C6_3 H4_3 1_555 1_555
C9_3 C6_3 1_555 1_555
C10_3 C9_3 1_555 1_555
H6_3 C10_3 1_555 1_555
C11_3 C10_3 1_555 1_555
H7_3 C11_3 1_555 1_555
N9_3 N18_3 1_555 1_555
N17_3 N6_3 1_555 1_555
C12_3 C11_3 1_555 1_555
H8_3 C12_3 1_555 1_555
N20_3 N9_3 1_555 1_555
Mn5 N17_3 1_555 1_555
Mn9 N17_3 1_555 1_555
C6_3 N21_3 1_555 1_555
C12_3 N21_3 1_555 1_555
Mn4_2 N1_3 1_555 1_555
N1_3 N4_3 1_555 1_555
N4_3 N19_3 1_555 1_555
C5_3 N7_2 1_555 1_555
N7_2 N1_3 1_555 1_555
N10_3 Mn4_2 1_555 1_555
N11_3 N10_3 1_555 1_555
N14_3 N11_3 1_555 1_555
N19_3 C5_3 1_555 1_555
Mn7_2 N7_2 1_555 1_555
Mn10_2 N14_3 1_555 1_555
N27_3 Mn4_2 1_555 1_555
N29_2 Mn4_2 1_555 1_555
Mn7_2 N29_2 1_555 1_555
C5_3 H9_3 1_555 1_555
Mn1_3 N23_2 1_555 1_555
N2_3 N8_3 1_555 1_555
N23_2 N8_3 1_555 1_555
C1_3 H1_3 1_555 1_555
C2_3 H2_3 1_555 1_555
C4_3 C1_3 1_555 1_555
C7_3 C4_3 1_555 1_555
C8_3 C1_3 1_555 1_555
H5_3 C8_3 1_555 1_555
N25_2 C7_3 1_555 1_555
O1_3 Mn1_3 1_555 1_555
N22_3 Mn1_3 1_555 1_555
C2_3 C8_3 1_555 1_555
C3_3 C4_3 1_555 1_555
N25_2 N22_3 1_555 1_555
N16_3 N22_3 1_555 1_555
O1_3 H10_3 1_555 1_555
O1_3 H11_3 1_555 1_555
Mn3_2 N5_3 1_555 1_555
Mn6 N15_3 1_555 1_555
N24_2 Mn3_2 1_555 1_555
N26_3 Mn3_2 1_555 1_555
N30_2 Mn3_2 1_555 1_555
C2_4 H2_4 1_555 1_555
H5_4 C8_4 1_555 1_555
C2_4 C8_4 1_555 1_555
Mn6_2 N15_4 1_555 1_555
Mn1_4 N23 1_555 1_555
Mn4 N1_4 1_555 1_555
N1_4 N4_4 1_555 1_555
N2_4 N8_4 1_555 1_555
N23 N8_4 1_555 1_555
N4_4 N19_4 1_555 1_555
C1_4 H1_4 1_555 1_555
N6_4 N12_4 1_555 1_555
C4_4 C1_4 1_555 1_555
C5_4 N24_2 1_555 1_555
C6_4 H4_4 1_555 1_555
C7_4 C4_4 1_555 1_555
N24_2 N1_4 1_555 1_555
C9_4 C6_4 1_555 1_555
C10_4 C9_4 1_555 1_555
H6_4 C10_4 1_555 1_555
C11_4 C10_4 1_555 1_555
H7_4 C11_4 1_555 1_555
N9_4 N18_4 1_555 1_555
N10_4 Mn4 1_555 1_555
N11_4 N10_4 1_555 1_555
N12_4 Mn1_4 1_555 1_555
N25 C7_4 1_555 1_555
O1_4 Mn1_4 1_555 1_555
N14_4 N11_4 1_555 1_555
N17_4 N6_4 1_555 1_555
N18_4 Mn1_4 1_555 1_555
N19_4 C5_4 1_555 1_555
C12_4 C11_4 1_555 1_555
H8_4 C12_4 1_555 1_555
N20_4 N9_4 1_555 1_555
N21_4 Mn1_4 1_555 1_555
N22_4 Mn1_4 1_555 1_555
Mn5_2 N17_4 1_555 1_555
Mn8 N17_4 1_555 1_555
N27_4 Mn4 1_555 1_555
N30_2 Mn4 1_555 1_555
C3_4 C4_4 1_555 1_555
C6_4 N21_4 1_555 1_555
C9_4 N19_4 1_555 1_555
N25 N22_4 1_555 1_555
N16_4 N22_4 1_555 1_555
C12_4 N21_4 1_555 1_555
C5_4 H9_4 1_555 1_555
O1_4 H10_4 1_555 1_555
O1_4 H11_4 1_555 1_555
Mn5 N1_5 1_555 1_555
N1_5 N4_5 1_555 1_555
N4_5 N19_5 1_555 1_555
N6_5 N12_5 1_555 1_555
C5_5 N7_3 1_555 1_555
C6_5 H4_5 1_555 1_555
N7_3 N1_5 1_555 1_555
C9_5 C6_5 1_555 1_555
C10_5 C9_5 1_555 1_555
H6_5 C10_5 1_555 1_555
C11_5 C10_5 1_555 1_555
H7_5 C11_5 1_555 1_555
N9_5 N31_2 1_555 1_555
N10_5 Mn5 1_555 1_555
N11_5 N10_5 1_555 1_555
N26 N11_5 1_555 1_555
N29_2 N6_5 1_555 1_555
N19_5 C5_5 1_555 1_555
C12_5 C11_5 1_555 1_555
H8_5 C12_5 1_555 1_555
N20_5 N9_5 1_555 1_555
Mn9 N7_3 1_555 1_555
N23_3 Mn5 1_555 1_555
N25_3 Mn5 1_555 1_555
C6_5 N21_5 1_555 1_555
C9_5 N19_5 1_555 1_555
C12_5 N21_5 1_555 1_555
C5_5 H9_5 1_555 1_555
Mn1_5 N3_3 1_555 1_555
Mn8 N5_5 1_555 1_555
N2_5 N8_5 1_555 1_555
N3_3 N8_5 1_555 1_555
N5_5 C2_5 1_555 1_555
C1_5 H1_5 1_555 1_555
C2_5 H2_5 1_555 1_555
C3_5 N5_5 1_555 1_555
H3_5 C3_5 1_555 1_555
C4_5 C1_5 1_555 1_555
C7_5 C4_5 1_555 1_555
C8_5 C1_5 1_555 1_555
H5_5 C8_5 1_555 1_555
N13_3 C7_5 1_555 1_555
O1_5 Mn1_5 1_555 1_555
N27 C7_5 1_555 1_555
N28_2 N27 1_555 1_555
N22_5 Mn1_5 1_555 1_555
Mn6_2 N3_3 1_555 1_555
N24_3 Mn8 1_555 1_555
C2_5 C8_5 1_555 1_555
C3_5 C4_5 1_555 1_555
N13_3 N22_5 1_555 1_555
N13_3 Mn6_2 1_555 1_555
N28_2 N22_5 1_555 1_555
O1_5 H10_5 1_555 1_555
O1_5 H11_5 1_555 1_555
C2_6 H2_6 1_555 1_555
H5_6 C8_6 1_555 1_555
C2_6 C8_6 1_555 1_555
Mn1_6 N3_4 1_555 1_555
N2_6 N8_6 1_555 1_555
N3_4 N8_6 1_555 1_555
C1_6 H1_6 1_555 1_555
N6_6 N12_6 1_555 1_555
C3_6 N5_6 1_555 1_555
H3_6 C3_6 1_555 1_555
C4_6 C1_6 1_555 1_555
C6_6 H4_6 1_555 1_555
C7_6 C4_6 1_555 1_555
C9_6 C6_6 1_555 1_555
C10_6 C9_6 1_555 1_555
H6_6 C10_6 1_555 1_555
C11_6 C10_6 1_555 1_555
H7_6 C11_6 1_555 1_555
N9_6 N31 1_555 1_555
N12_6 Mn1_6 1_555 1_555
N13_4 C7_6 1_555 1_555
O1_6 Mn1_6 1_555 1_555
N27_2 C7_6 1_555 1_555
N28 N27_2 1_555 1_555
N30_2 N6_6 1_555 1_555
N31 Mn1_6 1_555 1_555
C12_6 C11_6 1_555 1_555
H8_6 C12_6 1_555 1_555
N20_6 N9_6 1_555 1_555
N21_6 Mn1_6 1_555 1_555
N22_6 Mn1_6 1_555 1_555
Mn6 N3_4 1_555 1_555
C3_6 C4_6 1_555 1_555
C6_6 N21_6 1_555 1_555
N13_4 N22_6 1_555 1_555
N13_4 Mn6 1_555 1_555
N28 N22_6 1_555 1_555
C12_6 N21_6 1_555 1_555
O1_6 H10_6 1_555 1_555
O1_6 H11_6 1_555 1_555
Mn5_2 N1_6 1_555 1_555
N1_6 N4_6 1_555 1_555
N4_6 N19_6 1_555 1_555
C5_6 N24_3 1_555 1_555
N24_3 N1_6 1_555 1_555
N10_6 Mn5_2 1_555 1_555
N11_6 N10_6 1_555 1_555
N26_2 N11_6 1_555 1_555
N19_6 C5_6 1_555 1_555
N23_4 Mn5_2 1_555 1_555
N25_4 Mn5_2 1_555 1_555
C5_6 H9_6 1_555 1_555
Mn10_2 N5_7 1_555 1_555
N24_4 Mn10_2 1_555 1_555
Mn1_7 N23_4 1_555 1_555
N2_7 N8_7 1_555 1_555
N23_4 N8_7 1_555 1_555
C1_7 H1_7 1_555 1_555
C2_7 H2_7 1_555 1_555
C4_7 C1_7 1_555 1_555
C7_7 C4_7 1_555 1_555
C8_7 C1_7 1_555 1_555
H5_7 C8_7 1_555 1_555
N25_4 C7_7 1_555 1_555
O1_7 Mn1_7 1_555 1_555
N22_7 Mn1_7 1_555 1_555
C2_7 C8_7 1_555 1_555
C3_7 C4_7 1_555 1_555
N25_4 N22_7 1_555 1_555
N28_4 N22_7 1_555 1_555
O1_7 H10_7 1_555 1_555
O1_7 H11_7 1_555 1_555
Mn6 N1_7 1_555 1_555
N1_7 N4_7 1_555 1_555
N4_7 N19_7 1_555 1_555
C5_7 N7_4 1_555 1_555
N7_4 N1_7 1_555 1_555
N10_7 Mn6 1_555 1_555
N11_7 N10_7 1_555 1_555
N26_3 N11_7 1_555 1_555
N19_7 C5_7 1_555 1_555
Mn10 N7_4 1_555 1_555
C5_7 H9_7 1_555 1_555
N6_7 N12_7 1_555 1_555
C6_7 H4_7 1_555 1_555
C9_7 C6_7 1_555 1_555
C10_7 C9_7 1_555 1_555
H6_7 C10_7 1_555 1_555
C11_7 C10_7 1_555 1_555
H7_7 C11_7 1_555 1_555
N9_7 N31_4 1_555 1_555
N29 N6_7 1_555 1_555
C12_7 C11_7 1_555 1_555
H8_7 C12_7 1_555 1_555
N20_7 N9_7 1_555 1_555
C6_7 N21_7 1_555 1_555
C12_7 N21_7 1_555 1_555
Mn1_8 N23_3 1_555 1_555
Mn6_2 N1_8 1_555 1_555
N1_8 N4_8 1_555 1_555
N2_8 N8_8 1_555 1_555
N23_3 N8_8 1_555 1_555
N4_8 N19_8 1_555 1_555
C1_8 H1_8 1_555 1_555
N6_8 N12_8 1_555 1_555
C4_8 C1_8 1_555 1_555
C5_8 N24_4 1_555 1_555
C6_8 H4_8 1_555 1_555
C7_8 C4_8 1_555 1_555
N24_4 N1_8 1_555 1_555
C9_8 C6_8 1_555 1_555
C10_8 C9_8 1_555 1_555
H6_8 C10_8 1_555 1_555
C11_8 C10_8 1_555 1_555
H7_8 C11_8 1_555 1_555
N9_8 N31_3 1_555 1_555
N10_8 Mn6_2 1_555 1_555
N11_8 N10_8 1_555 1_555
N12_8 Mn1_8 1_555 1_555
N25_3 C7_8 1_555 1_555
O1_8 Mn1_8 1_555 1_555
N26_4 N11_8 1_555 1_555
N30 N6_8 1_555 1_555
N31_3 Mn1_8 1_555 1_555
N19_8 C5_8 1_555 1_555
C12_8 C11_8 1_555 1_555
H8_8 C12_8 1_555 1_555
N20_8 N9_8 1_555 1_555
N21_8 Mn1_8 1_555 1_555
N22_8 Mn1_8 1_555 1_555
C3_8 C4_8 1_555 1_555
C6_8 N21_8 1_555 1_555
C9_8 N19_8 1_555 1_555
N25_3 N22_8 1_555 1_555
N28_3 N22_8 1_555 1_555
C12_8 N21_8 1_555 1_555
C5_8 H9_8 1_555 1_555
O1_8 H10_8 1_555 1_555
O1_8 H11_8 1_555 1_555
C2_8 H2_8 1_555 1_555
H5_8 C8_8 1_555 1_555
C2_8 C8_8 1_555 1_555

#END
