
###############################################################################
#
# This file contains modified crystal structure data generated from the
# MOF subset of the Cambridge Structural Database (CSD) v543 
# hosted by the Cambridge Crystallographic Data Centre (CCDC).
#
# This work is licensed under the Creative Commons
# Attribution-NonCommercial-ShareAlike 4.0 International License.
# To view a copy of this license, visit
# http://creativecommons.org/licenses/by-nc-sa/4.0/
# or send a letter to
# Creative Commons, PO Box 1866, Mountain View, CA 94042, USA.
#
# CIF created using the CSD Python API on 29 September 2022
# The structure has been converted into the P1 space group
# The structure has a 3D framework
# The original CSD entry VODSEM is in the orthorhombic crystal system
# The framework has been calculated to contain at least 10.0% void space
# The void calculation uses a probe of radius 1.32A, grid spacing 0.4
# H atom positions have been added when not included in the experimental data
#
###############################################################################

data_VODSEM
_chemical_formula_moiety         '(C40 H40 La6 O62)n'
_symmetry_cell_setting           triclinic
_symmetry_space_group_name_H-M   'P 1'
_symmetry_Int_Tables_number      1
_space_group_name_Hall           'P 1'
loop_
_symmetry_equiv_pos_site_id
_symmetry_equiv_pos_as_xyz
1 x,y,z
_cell_length_a                   23.984(5)
_cell_length_b                   14.096(3)
_cell_length_c                   6.7240(10)
_cell_angle_alpha                90
_cell_angle_beta                 90
_cell_angle_gamma                90
_cell_volume                     2273.24
loop_
_atom_site_label
_atom_site_type_symbol
_atom_site_fract_x
_atom_site_fract_y
_atom_site_fract_z
O15 O 0.2858(2) 0.1094(4) 0.4941(8)
O16 O 0.1626(2) 0.0206(4) 0.5449(9)
C9 C 0.2662(3) 0.0269(5) 0.4848(9)
La6 La 0.366012(14) 0.20589(3) 0.61769(5)
H5 H 0.376797 0.0098305 0.0561829
La1 La 0.366012(14) 0.79411(3) 0.11769(5)
O4 O 0.3374(2) 0.4794(4) 0.0449(9)
O5 O 0.4708(2) 0.7941(4) 0.0124(8)
O6 O 0.56025(19) 0.8006(4) 0.1057(7)
O7 O 0.3199(2) 0.7027(4) 0.4157(8)
O8 O 0.4045(2) 0.6263(4) 0.1192(11)
O10 O 0.4064(2) 0.9613(4) 0.0386(8)
C4 C 0.2905(3) 0.5129(5) 0.0106(11)
C5 C 0.5086(3) 0.7965(5) 0.1404(10)
C6 C 0.4914(3) 0.7965(5) 0.3596(10)
O11 O 0.5292(2) 0.7941(4) 0.4876(8)
O12 O 0.43975(19) 0.8006(4) 0.3943(7)
O13 O 0.2134(2) 0.8086(4) 0.4752(9)
O14 O 0.3353(2) 0.9035(3) 0.3952(8)
C7 C 0.2325(3) 0.8911(5) 0.4755(10)
C8 C 0.2876(3) 0.9336(5) 0.4434(10)
C10 C 0.2095(3) 0.9871(5) 0.5106(11)
La2 La 0.133988(14) 0.70589(3) 0.61769(5)
La4 La 0.133988(14) 0.29411(3) 0.11769(5)
La5 La 0.633988(14) 0.79411(3) 0.38231(5)
O18 O 0.1647(2) 0.5965(3) 0.8952(8)
O19 O 0.2142(2) 0.6094(4) 0.4941(8)
O20 O 0.0292(2) 0.7059(4) 0.5124(8)
O21 O 0.06025(19) 0.6994(4) 0.8943(7)
O22 O 0.1801(2) 0.7973(4) 0.9157(8)
O23 O 0.0955(2) 0.8737(4) 0.6192(11)
O24 O 0.1210(2) 0.7190(5) 0.2478(9)
O25 O 0.0936(2) 0.5387(4) 0.5386(8)
H3 H 0.323241 0.633305 0.393255
H4 H 0.339133 0.719969 0.541368
H6 H 0.437817 0.975135 0.130306
H8 H 0.443051 0.626801 0.173049
O1 O 0.2866(2) 0.6914(4) 0.9752(9)
O3 O 0.2142(2) 0.3906(4) 0.9941(8)
O9 O 0.3790(2) 0.7810(5) 0.7478(9)
C1 C 0.2675(3) 0.6089(5) 0.9755(10)
C2 C 0.2124(3) 0.5664(5) 0.9434(10)
C3 C 0.2338(3) 0.4731(5) 0.9848(9)
O17 O 0.2858(2) 0.8906(4) 0.9941(8)
H1 H 0.345844 0.807573 0.679103
H2 H 0.412754 0.816987 0.707528
H7 H 0.404931 0.601097 0.981303
H4_2 H 0.160867 0.780031 0.0413676
C6_2 C 0.0086(3) 0.7035(5) 0.8596(10)
H1_2 H 0.154156 0.692427 0.179103
H2_2 H 0.0872456 0.683013 0.207528
H3_2 H 0.176759 0.866695 0.893255
H5_2 H 0.123203 0.49017 0.556183
H6_2 H 0.0621827 0.524865 0.630306
H7_2 H 0.0950693 0.898903 0.481303
H8_2 H 0.056949 0.873199 0.673049
O6_2 O 0.93975(19) 0.6994(4) 0.6057(7)
C5_2 C 0.9914(3) 0.7035(5) 0.6404(10)
O11_2 O 0.9708(2) 0.7059(4) 0.9876(8)
La5_2 La 0.866012(14) 0.70589(3) 0.88231(5)
O15_2 O 0.7142(2) 0.1094(4) 0.0059(8)
C9_2 C 0.7338(3) 0.0269(5) 0.0152(9)
H5_3 H 0.623203 0.0098305 0.443817
O16_2 O 0.8374(2) 0.0206(4) 0.9551(9)
La6_2 La 0.633988(14) 0.20589(3) 0.88231(5)
O1_2 O 0.7134(2) 0.6914(4) 0.5248(9)
O2 O 0.8353(2) 0.5965(3) 0.6048(8)
O3_2 O 0.7858(2) 0.3906(4) 0.5059(8)
O4_2 O 0.6626(2) 0.4794(4) 0.4551(9)
O7_2 O 0.6801(2) 0.7027(4) 0.0843(8)
O8_2 O 0.5955(2) 0.6263(4) 0.3808(11)
O9_2 O 0.6210(2) 0.7810(5) 0.7522(9)
O10_2 O 0.5936(2) 0.9613(4) 0.4614(8)
C1_2 C 0.7325(3) 0.6089(5) 0.5245(10)
C2_2 C 0.7876(3) 0.5664(5) 0.5566(10)
C3_2 C 0.7662(3) 0.4731(5) 0.5152(9)
C4_2 C 0.7095(3) 0.5129(5) 0.4894(11)
O13_2 O 0.7866(2) 0.8086(4) 0.0248(9)
O14_2 O 0.6647(2) 0.9035(3) 0.1048(8)
C7_2 C 0.7675(3) 0.8911(5) 0.0245(10)
C8_2 C 0.7124(3) 0.9336(5) 0.0566(10)
O17_2 O 0.7142(2) 0.8906(4) 0.5059(8)
La4_2 La 0.866012(14) 0.29411(3) 0.38231(5)
O19_2 O 0.7858(2) 0.6094(4) 0.0059(8)
O24_2 O 0.8790(2) 0.7190(5) 0.2522(9)
H1_3 H 0.654156 0.807573 0.820897
H2_3 H 0.587246 0.816987 0.792472
H3_3 H 0.676759 0.633305 0.106745
H6_3 H 0.562183 0.975135 0.369694
H7_3 H 0.595069 0.601097 0.518697
H8_3 H 0.556949 0.626801 0.326951
C10_2 C 0.7905(3) 0.9871(5) 0.9894(11)
O22_2 O 0.8199(2) 0.7973(4) 0.5843(8)
O23_2 O 0.9045(2) 0.8737(4) 0.8808(11)
O25_2 O 0.9064(2) 0.5387(4) 0.9614(8)
H4_3 H 0.660867 0.719969 0.958632
H1_4 H 0.845844 0.692427 0.320897
H2_4 H 0.912754 0.683013 0.292472
H7_4 H 0.904931 0.898903 0.0186966
H3_4 H 0.823241 0.866695 0.606745
H4_4 H 0.839133 0.780031 0.458632
H5_4 H 0.876797 0.49017 0.943817
H6_4 H 0.937817 0.524865 0.869694
H8_4 H 0.943051 0.873199 0.826951
O1_3 O 0.7134(2) 0.3086(4) 0.0248(9)
O2_2 O 0.8353(2) 0.4035(3) 0.1048(8)
O9_3 O 0.6210(2) 0.2190(5) 0.2522(9)
C1_3 C 0.7325(3) 0.3911(5) 0.0245(10)
C2_3 C 0.7876(3) 0.4336(5) 0.0566(10)
C3_3 C 0.7662(3) 0.5269(5) 0.0152(9)
H1_5 H 0.654156 0.192427 0.320897
H2_5 H 0.587246 0.183013 0.292472
H7_5 H 0.595069 0.398903 0.0186966
O4_3 O 0.6626(2) 0.5206(4) 0.9551(9)
O5_2 O 0.5292(2) 0.2059(4) 0.9876(8)
O6_3 O 0.43975(19) 0.1994(4) 0.8943(7)
O7_3 O 0.6801(2) 0.2973(4) 0.5843(8)
O8_3 O 0.5955(2) 0.3737(4) 0.8808(11)
O10_3 O 0.5936(2) 0.0387(4) 0.9614(8)
C4_3 C 0.7095(3) 0.4871(5) 0.9894(11)
C5_3 C 0.4914(3) 0.2035(5) 0.8596(10)
C6_3 C 0.5086(3) 0.2035(5) 0.6404(10)
O11_3 O 0.4708(2) 0.2059(4) 0.5124(8)
O12_2 O 0.56025(19) 0.1994(4) 0.6057(7)
O13_3 O 0.7866(2) 0.1914(4) 0.5248(9)
O14_3 O 0.6647(2) 0.0965(3) 0.6048(8)
C7_3 C 0.7675(3) 0.1089(5) 0.5245(10)
C8_3 C 0.7124(3) 0.0664(5) 0.5566(10)
C10_3 C 0.7905(3) 0.0129(5) 0.4894(11)
O20_2 O 0.9708(2) 0.2941(4) 0.4876(8)
O21_2 O 0.93975(19) 0.3006(4) 0.1057(7)
O22_3 O 0.8199(2) 0.2027(4) 0.0843(8)
O23_3 O 0.9045(2) 0.1263(4) 0.3808(11)
O24_3 O 0.8790(2) 0.2810(5) 0.7522(9)
O25_3 O 0.9064(2) 0.4613(4) 0.4614(8)
H3_5 H 0.676759 0.366695 0.606745
H4_5 H 0.660867 0.280031 0.458632
H6_5 H 0.562183 0.0248653 0.869694
H8_5 H 0.556949 0.373199 0.826951
O16_3 O 0.8374(2) 0.9794(4) 0.4551(9)
C9_3 C 0.7338(3) 0.9731(5) 0.5152(9)
H5_5 H 0.623203 0.99017 0.943817
O6_4 O 0.06025(19) 0.3006(4) 0.3943(7)
C5_4 C 0.0086(3) 0.2965(5) 0.3596(10)
O11_4 O 0.0292(2) 0.2941(4) 0.0124(8)
C6_4 C 0.9914(3) 0.2965(5) 0.1404(10)
H1_6 H 0.845844 0.307573 0.820897
H2_6 H 0.912754 0.316987 0.792472
H3_6 H 0.823241 0.133305 0.106745
H5_6 H 0.876797 0.50983 0.443817
H6_6 H 0.937817 0.475135 0.369694
H7_6 H 0.904931 0.101097 0.518697
H8_6 H 0.943051 0.126801 0.326951
H4_6 H 0.839133 0.219969 0.958632
C10_4 C 0.2095(3) 0.0129(5) 0.0106(11)
O18_2 O 0.1647(2) 0.4035(3) 0.3952(8)
O22_4 O 0.1801(2) 0.2027(4) 0.4157(8)
O23_4 O 0.0955(2) 0.1263(4) 0.1192(11)
O25_4 O 0.0936(2) 0.4613(4) 0.0386(8)
H4_7 H 0.339133 0.280031 0.0413676
O1_4 O 0.2866(2) 0.3086(4) 0.4752(9)
O4_4 O 0.3374(2) 0.5206(4) 0.5449(9)
O7_4 O 0.3199(2) 0.2973(4) 0.9157(8)
O8_4 O 0.4045(2) 0.3737(4) 0.6192(11)
O9_4 O 0.3790(2) 0.2190(5) 0.2478(9)
O10_4 O 0.4064(2) 0.0387(4) 0.5386(8)
C1_4 C 0.2675(3) 0.3911(5) 0.4755(10)
C2_4 C 0.2124(3) 0.4336(5) 0.4434(10)
C3_4 C 0.2338(3) 0.5269(5) 0.4848(9)
C4_4 C 0.2905(3) 0.4871(5) 0.5106(11)
O13_4 O 0.2134(2) 0.1914(4) 0.9752(9)
O14_4 O 0.3353(2) 0.0965(3) 0.8952(8)
C7_4 C 0.2325(3) 0.1089(5) 0.9755(10)
C8_4 C 0.2876(3) 0.0664(5) 0.9434(10)
O24_4 O 0.1210(2) 0.2810(5) 0.7478(9)
H1_7 H 0.345844 0.192427 0.179103
H2_7 H 0.412754 0.183013 0.207528
H3_7 H 0.323241 0.366695 0.893255
H6_7 H 0.437817 0.0248653 0.630306
H7_7 H 0.404931 0.398903 0.481303
H8_7 H 0.443051 0.373199 0.673049
O16_4 O 0.1626(2) 0.9794(4) 0.0449(9)
C9_4 C 0.2662(3) 0.9731(5) 0.9848(9)
H5_7 H 0.376797 0.99017 0.556183
H3_8 H 0.176759 0.133305 0.393255
H4_8 H 0.160867 0.219969 0.541368
H5_8 H 0.123203 0.50983 0.0561829
H6_8 H 0.0621827 0.475135 0.130306
H8_8 H 0.056949 0.126801 0.173049
H1_8 H 0.154156 0.307573 0.679103
H2_8 H 0.0872456 0.316987 0.707528
H7_8 H 0.0950693 0.101097 0.981303
loop_
_geom_bond_atom_site_label_1
_geom_bond_atom_site_label_2
_geom_bond_site_symmetry_1
_geom_bond_site_symmetry_2
O15 C9 1_555 1_555
La6 O15 1_555 1_555
O4 C4 1_555 1_555
O5 La1 1_555 1_555
O6 C5 1_555 1_555
O7 La1 1_555 1_555
O8 La1 1_555 1_555
O10 La1 1_555 1_555
C5 O5 1_555 1_555
C6 C5 1_555 1_555
O11 C6 1_555 1_555
O12 La1 1_555 1_555
O13 C7 1_555 1_555
O14 La1 1_555 1_555
C7 C8 1_555 1_555
C8 O14 1_555 1_555
C10 C7 1_555 1_555
La2 O13 1_555 1_555
La5 O6 1_555 1_555
O18 La2 1_555 1_555
O19 La2 1_555 1_555
O20 La2 1_555 1_555
O21 La2 1_555 1_555
O22 La2 1_555 1_555
O23 La2 1_555 1_555
O24 La2 1_555 1_555
O25 La2 1_555 1_555
C6 O12 1_555 1_555
O11 La5 1_555 1_555
O7 H3 1_555 1_555
O7 H4 1_555 1_555
O10 H6 1_555 1_555
O8 H8 1_555 1_555
O1 C1 1_555 1_555
O18 C2 1_555 1_555
O3 C3 1_555 1_555
C1 C2 1_555 1_555
C2 C3 1_555 1_555
O9 H1 1_555 1_555
O9 H2 1_555 1_555
C6_2 O21 1_555 1_555
O24 H1_2 1_555 1_555
O24 H2_2 1_555 1_555
O22 H3_2 1_555 1_555
O25 H5_2 1_555 1_555
O25 H6_2 1_555 1_555
O23 H7_2 1_555 1_555
O23 H8_2 1_555 1_555
O6_2 C5_2 1_555 1_555
La5_2 O6_2 1_555 1_555
O11_2 La5_2 1_555 1_555
O15_2 C9_2 1_555 1_555
La5 O1_2 1_555 1_555
O1_2 C1_2 1_555 1_555
O2 C2_2 1_555 1_555
O3_2 C3_2 1_555 1_555
O4_2 C4_2 1_555 1_555
O7_2 La5 1_555 1_555
O8_2 La5 1_555 1_555
O9_2 La5 1_555 1_555
O10_2 La5 1_555 1_555
C1_2 C2_2 1_555 1_555
C2_2 C3_2 1_555 1_555
C3_2 C4_2 1_555 1_555
C4_2 C1_2 1_555 1_555
O13_2 C7_2 1_555 1_555
O14_2 La5 1_555 1_555
C7_2 C8_2 1_555 1_555
C8_2 O14_2 1_555 1_555
O17_2 La5 1_555 1_555
La5_2 O2 1_555 1_555
La4_2 O3_2 1_555 1_555
O9_2 H1_3 1_555 1_555
O9_2 H2_3 1_555 1_555
O7_2 H3_3 1_555 1_555
O10_2 H6_3 1_555 1_555
O8_2 H7_3 1_555 1_555
O8_2 H8_3 1_555 1_555
O22_2 La5_2 1_555 1_555
O23_2 La5_2 1_555 1_555
O25_2 La5_2 1_555 1_555
O24_2 H1_4 1_555 1_555
O24_2 H2_4 1_555 1_555
O22_2 H3_4 1_555 1_555
O22_2 H4_4 1_555 1_555
O25_2 H5_4 1_555 1_555
O25_2 H6_4 1_555 1_555
O23_2 H8_4 1_555 1_555
O1_3 C1_3 1_555 1_555
O2_2 C2_3 1_555 1_555
O19_2 C3_3 1_555 1_555
C1_3 C2_3 1_555 1_555
C2_3 C3_3 1_555 1_555
La4_2 O2_2 1_555 1_555
O9_3 H1_5 1_555 1_555
O9_3 H2_5 1_555 1_555
O4_3 C4_3 1_555 1_555
O5_2 La6_2 1_555 1_555
O6_3 C5_3 1_555 1_555
O7_3 La6_2 1_555 1_555
O8_3 La6_2 1_555 1_555
O10_3 La6_2 1_555 1_555
C5_3 O5_2 1_555 1_555
C6_3 C5_3 1_555 1_555
O11_3 C6_3 1_555 1_555
O12_2 La6_2 1_555 1_555
O13_3 C7_3 1_555 1_555
O14_3 La6_2 1_555 1_555
C7_3 C8_3 1_555 1_555
C8_3 O14_3 1_555 1_555
C10_3 C7_3 1_555 1_555
La4_2 O13_3 1_555 1_555
La6 O6_3 1_555 1_555
O20_2 La4_2 1_555 1_555
O21_2 La4_2 1_555 1_555
O22_3 La4_2 1_555 1_555
O23_3 La4_2 1_555 1_555
O24_3 La4_2 1_555 1_555
O25_3 La4_2 1_555 1_555
C6_3 O12_2 1_555 1_555
O11_3 La6 1_555 1_555
O7_3 H3_5 1_555 1_555
O7_3 H4_5 1_555 1_555
O10_3 H6_5 1_555 1_555
O8_3 H8_5 1_555 1_555
O17_2 C9_3 1_555 1_555
O6_4 C5_4 1_555 1_555
La4 O6_4 1_555 1_555
O11_4 La4 1_555 1_555
C6_4 O21_2 1_555 1_555
O24_3 H1_6 1_555 1_555
O24_3 H2_6 1_555 1_555
O22_3 H3_6 1_555 1_555
O25_3 H5_6 1_555 1_555
O25_3 H6_6 1_555 1_555
O23_3 H7_6 1_555 1_555
O23_3 H8_6 1_555 1_555
O18_2 La4 1_555 1_555
O22_4 La4 1_555 1_555
O23_4 La4 1_555 1_555
O25_4 La4 1_555 1_555
La6 O1_4 1_555 1_555
O1_4 C1_4 1_555 1_555
O18_2 C2_4 1_555 1_555
O19 C3_4 1_555 1_555
O4_4 C4_4 1_555 1_555
O7_4 La6 1_555 1_555
O8_4 La6 1_555 1_555
O9_4 La6 1_555 1_555
O10_4 La6 1_555 1_555
C1_4 C2_4 1_555 1_555
C2_4 C3_4 1_555 1_555
C3_4 C4_4 1_555 1_555
C4_4 C1_4 1_555 1_555
O13_4 C7_4 1_555 1_555
O14_4 La6 1_555 1_555
C7_4 C8_4 1_555 1_555
C8_4 O14_4 1_555 1_555
O9_4 H1_7 1_555 1_555
O9_4 H2_7 1_555 1_555
O7_4 H3_7 1_555 1_555
O10_4 H6_7 1_555 1_555
O8_4 H7_7 1_555 1_555
O8_4 H8_7 1_555 1_555
O17 C9_4 1_555 1_555
O22_4 H3_8 1_555 1_555
O22_4 H4_8 1_555 1_555
O25_4 H5_8 1_555 1_555
O25_4 H6_8 1_555 1_555
O23_4 H8_8 1_555 1_555
O24_4 H1_8 1_555 1_555
O24_4 H2_8 1_555 1_555

#END
