
###############################################################################
#
# This file contains modified crystal structure data generated from the
# MOF subset of the Cambridge Structural Database (CSD) v543 
# hosted by the Cambridge Crystallographic Data Centre (CCDC).
#
# This work is licensed under the Creative Commons
# Attribution-NonCommercial-ShareAlike 4.0 International License.
# To view a copy of this license, visit
# http://creativecommons.org/licenses/by-nc-sa/4.0/
# or send a letter to
# Creative Commons, PO Box 1866, Mountain View, CA 94042, USA.
#
# CIF created using the CSD Python API on 29 September 2022
# The structure has been converted into the P1 space group
# The structure has a 3D framework
# The original CSD entry VOFWUL is in the tetragonal crystal system
# The framework has been calculated to contain at least 10.0% void space
# The void calculation uses a probe of radius 1.32A, grid spacing 0.4
#
###############################################################################

data_VOFWUL
_chemical_formula_moiety         '(C544 H352 Cu24 N96 O120)n'
_symmetry_cell_setting           triclinic
_symmetry_space_group_name_H-M   'P 1'
_symmetry_Int_Tables_number      1
_space_group_name_Hall           'P 1'
loop_
_symmetry_equiv_pos_site_id
_symmetry_equiv_pos_as_xyz
1 x,y,z
_cell_length_a                   18.5022(15)
_cell_length_b                   18.5022(15)
_cell_length_c                   43.164(5)
_cell_angle_alpha                90
_cell_angle_beta                 90
_cell_angle_gamma                90
_cell_volume                     14776.4
loop_
_atom_site_label
_atom_site_type_symbol
_atom_site_fract_x
_atom_site_fract_y
_atom_site_fract_z
O1 O 0.0579(3) 0.1465(3) 0.00495(13)
O2 O 0.0902(4) 0.2540(3) 0.02298(14)
O3 O 0.3225(5) 0.1793(6) 0.21095(18)
O4 O 0.4340(4) 0.1673(5) 0.20968(17)
N1 N 0.3852(4) 0.0035(4) 0.05923(15)
C1 C 0.1692(4) 0.1583(4) 0.03002(16)
C2 C 0.1012(5) 0.1877(5) 0.01842(17)
C3 C 0.3754(5) 0.1313(5) 0.16457(18)
C4 C 0.3700(5) 0.0807(4) 0.06658(19)
H1 H 0.4096 0.1102 0.0572
C5 C 0.1783(5) 0.0847(4) 0.03370(19)
H2 H 0.1405 0.0523 0.0282
C6 C 0.3000(4) 0.1057(5) 0.05242(17)
C7 C 0.2913(5) 0.1775(5) 0.0482(2)
H3 H 0.3298 0.2096 0.0529
H4 H 0.4339 0.0088 0.0175
C9 C 0.3717(5) 0.0936(4) 0.10172(19)
C10 C 0.2436(5) 0.0578(4) 0.0457(2)
H5 H 0.2495 0.0075 0.0492
C11 C 0.3774(6) 0.1589(5) 0.1972(2)
C12 C 0.2271(5) 0.2044(5) 0.0371(2)
H6 H 0.2218 0.2550 0.0341
C13 C 0.4361(6) 0.1324(6) 0.1463(2)
H7 H 0.4809 0.1470 0.1550
C15 C 0.4336(6) 0.1128(6) 0.1153(3)
H9 H 0.4769 0.1129 0.1035
C16 C 0.3118(7) 0.1156(7) 0.1512(3)
H10 H 0.2688 0.1174 0.1632
C17 C 0.3081(7) 0.0962(7) 0.1192(3)
H11 H 0.2629 0.0853 0.1098
Cu2 Cu 0.04732(5) 0.33757(5) 0.00100(2)
Cu4 Cu 0.41243(5) 0.20268(5) 0.25100(2)
N2 N 0.4149(4) 0.9090(4) 0.03265(16)
N3 N 0.3585(5) 0.9484(5) 0.0762(2)
C8 C 0.4149(4) 0.9789(5) 0.0334(2)
C14 C 0.3788(7) 0.8917(6) 0.0599(2)
H8 H 0.3697 0.8434 0.0663
Cu3 Cu 0.45268(5) 0.83757(5) 0.00100(2)
Cu1 Cu 0.95268(5) 0.16243(5) 0.00100(2)
O5 O 0.9098(4) 0.2460(3) 0.02298(14)
N4 N 0.9149(4) 0.0910(4) 0.03265(16)
O6 O 0.9293(6) 0.0725(5) 0.96095(18)
O7 O 0.9173(5) 0.1840(4) 0.95968(17)
O3_2 O 0.0707(6) 0.0725(5) 0.46095(18)
O4_2 O 0.0827(5) 0.1840(4) 0.45968(17)
N1_2 N 0.2465(4) 0.1352(4) 0.30923(15)
N2_2 N 0.3410(4) 0.1649(4) 0.28265(16)
C3_2 C 0.1187(5) 0.1254(5) 0.41457(18)
C4_2 C 0.1693(4) 0.1200(5) 0.31658(19)
H1_2 H 0.1398 0.1596 0.3072
N3_2 N 0.3016(5) 0.1085(5) 0.3262(2)
C6_2 C 0.1443(5) 0.0500(4) 0.30242(17)
C7_2 C 0.0725(5) 0.0413(5) 0.2982(2)
H3_2 H 0.0404 0.0798 0.3029
C8_2 C 0.2711(5) 0.1649(4) 0.2834(2)
H4_2 H 0.2412 0.1839 0.2675
C9_2 C 0.1564(4) 0.1217(5) 0.35172(19)
C11_2 C 0.0911(5) 0.1274(6) 0.4472(2)
C13_2 C 0.1176(6) 0.1861(6) 0.3963(2)
H7_2 H 0.1030 0.2309 0.4050
C14_2 C 0.3583(6) 0.1288(7) 0.3099(2)
H8_2 H 0.4066 0.1197 0.3163
C15_2 C 0.1372(6) 0.1836(6) 0.3653(3)
H9_2 H 0.1371 0.2269 0.3535
C16_2 C 0.1344(7) 0.0618(7) 0.4012(3)
H10_2 H 0.1326 0.0188 0.4132
C17_2 C 0.1538(7) 0.0581(7) 0.3692(3)
H11_2 H 0.1647 0.0129 0.3598
Cu4_2 Cu 0.04732(5) 0.16243(5) 0.50100(2)
Cu1_2 Cu 0.08757(5) 0.70268(5) 0.25100(2)
O1_2 O 0.1035(3) 0.8079(3) 0.25495(13)
C1_2 C 0.0917(4) 0.9192(4) 0.28002(16)
C2_2 C 0.0623(5) 0.8512(5) 0.26842(17)
C5_2 C 0.1653(4) 0.9283(5) 0.28370(19)
H2_2 H 0.1977 0.8905 0.2782
C10_2 C 0.1922(4) 0.9936(5) 0.2957(2)
H5_2 H 0.2425 0.9995 0.2992
C12_2 C 0.0456(5) 0.9771(5) 0.2871(2)
O5_2 O 0.0040(3) 0.6598(4) 0.27298(14)
O6_2 O 0.1775(5) 0.6793(6) 0.21095(18)
O7_2 O 0.0660(4) 0.6673(5) 0.20968(17)
N4_2 N 0.1590(4) 0.6649(4) 0.28265(16)
O2_2 O 0.9960(3) 0.8402(4) 0.27298(14)
H6_2 H 0.9950 0.9718 0.2841
Cu2_2 Cu 0.91243(5) 0.79732(5) 0.25100(2)
N2_3 N 0.0851(4) 0.0910(4) 0.53265(16)
N3_3 N 0.1415(5) 0.0516(5) 0.5762(2)
C8_3 C 0.0851(4) 0.0211(5) 0.5334(2)
C14_3 C 0.1212(7) 0.1083(6) 0.5599(2)
H8_3 H 0.1303 0.1566 0.5663
Cu1_3 Cu 0.54732(5) 0.83757(5) 0.50100(2)
O1_3 O 0.4421(3) 0.8535(3) 0.50495(13)
O2_3 O 0.4098(4) 0.7460(3) 0.52298(14)
O3_3 O 0.1775(5) 0.8207(6) 0.71095(18)
O4_3 O 0.0660(4) 0.8327(5) 0.70968(17)
N1_3 N 0.1148(4) 0.9965(4) 0.55923(15)
C1_3 C 0.3308(4) 0.8417(4) 0.53002(16)
C2_3 C 0.3988(5) 0.8123(5) 0.51842(17)
C3_3 C 0.1246(5) 0.8687(5) 0.66457(18)
C4_3 C 0.1300(5) 0.9193(4) 0.56658(19)
H1_3 H 0.0904 0.8898 0.5572
C5_3 C 0.3217(5) 0.9153(4) 0.53370(19)
H2_3 H 0.3595 0.9477 0.5282
C6_3 C 0.2000(4) 0.8943(5) 0.55242(17)
C7_3 C 0.2087(5) 0.8225(5) 0.5482(2)
H3_3 H 0.1702 0.7904 0.5529
H4_3 H 0.0661 0.9912 0.5175
C9_3 C 0.1283(5) 0.9064(4) 0.60172(19)
C10_3 C 0.2564(5) 0.9422(4) 0.5457(2)
H5_3 H 0.2505 0.9925 0.5492
C11_3 C 0.1226(6) 0.8411(5) 0.6972(2)
C12_3 C 0.2729(5) 0.7956(5) 0.5371(2)
H6_3 H 0.2782 0.7450 0.5341
C13_3 C 0.0639(6) 0.8676(6) 0.6463(2)
H7_3 H 0.0191 0.8530 0.6550
C15_3 C 0.0664(6) 0.8872(6) 0.6153(3)
H9_3 H 0.0231 0.8871 0.6035
C16_3 C 0.1882(7) 0.8844(7) 0.6512(3)
H10_3 H 0.2312 0.8826 0.6632
C17_3 C 0.1919(7) 0.9038(7) 0.6192(3)
H11_3 H 0.2371 0.9147 0.6098
Cu2_3 Cu 0.45268(5) 0.66243(5) 0.50100(2)
Cu4_3 Cu 0.08757(5) 0.79732(5) 0.75100(2)
O5_3 O 0.5902(4) 0.7540(3) 0.52298(14)
O6_3 O 0.5707(6) 0.9275(5) 0.46095(18)
O7_3 O 0.5827(5) 0.8160(4) 0.45968(17)
N4_3 N 0.5851(4) 0.9090(4) 0.53265(16)
Cu1_4 Cu 0.41243(5) 0.29732(5) 0.75100(2)
O1_4 O 0.3965(3) 0.1921(3) 0.75495(13)
O2_4 O 0.5040(3) 0.1598(4) 0.77298(14)
C1_4 C 0.4083(4) 0.0808(4) 0.78002(16)
C2_4 C 0.4377(5) 0.1488(5) 0.76842(17)
C5_4 C 0.3347(4) 0.0717(5) 0.78370(19)
H2_4 H 0.3023 0.1095 0.7782
C10_4 C 0.3078(4) 0.0064(5) 0.7957(2)
H5_4 H 0.2575 0.0005 0.7992
C12_4 C 0.4544(5) 0.0229(5) 0.7871(2)
H6_4 H 0.5050 0.0282 0.7841
Cu2_4 Cu 0.58757(5) 0.20268(5) 0.75100(2)
O5_4 O 0.4960(3) 0.3402(4) 0.77298(14)
O6_4 O 0.3225(5) 0.3207(6) 0.71095(18)
O7_4 O 0.4340(4) 0.3327(5) 0.70968(17)
N4_4 N 0.3410(4) 0.3351(4) 0.78265(16)
O3_4 O 0.4293(6) 0.9275(5) 0.96095(18)
O4_4 O 0.4173(5) 0.8160(4) 0.95968(17)
N1_4 N 0.2535(4) 0.8648(4) 0.80923(15)
N2_4 N 0.1590(4) 0.8351(4) 0.78265(16)
C3_4 C 0.3813(5) 0.8746(5) 0.91457(18)
C4_4 C 0.3307(4) 0.8800(5) 0.81658(19)
H1_4 H 0.3602 0.8404 0.8072
N3_4 N 0.1984(5) 0.8915(5) 0.8262(2)
C6_4 C 0.3557(5) 0.9500(4) 0.80242(17)
C7_4 C 0.4275(5) 0.9587(5) 0.7982(2)
H3_4 H 0.4596 0.9202 0.8029
C8_4 C 0.2289(5) 0.8351(4) 0.7834(2)
H4_4 H 0.2588 0.8161 0.7675
C9_4 C 0.3436(4) 0.8783(5) 0.85172(19)
C11_4 C 0.4089(5) 0.8726(6) 0.9472(2)
C13_4 C 0.3824(6) 0.8139(6) 0.8963(2)
H7_4 H 0.3970 0.7691 0.9050
C14_4 C 0.1417(6) 0.8712(7) 0.8099(2)
H8_4 H 0.0934 0.8803 0.8163
C15_4 C 0.3628(6) 0.8164(6) 0.8653(3)
H9_4 H 0.3629 0.7731 0.8535
C16_4 C 0.3656(7) 0.9382(7) 0.9012(3)
H10_4 H 0.3674 0.9812 0.9132
C17_4 C 0.3462(7) 0.9419(7) 0.8692(3)
H11_4 H 0.3353 0.9871 0.8598
O1_5 O 0.5579(3) 0.6465(3) 0.50495(13)
O3_5 O 0.8225(5) 0.6793(6) 0.71095(18)
O4_5 O 0.9340(4) 0.6673(5) 0.70968(17)
N1_5 N 0.8852(4) 0.5035(4) 0.55923(15)
N2_5 N 0.9149(4) 0.4090(4) 0.53265(16)
C1_5 C 0.6692(4) 0.6583(4) 0.53002(16)
C2_5 C 0.6012(5) 0.6877(5) 0.51842(17)
C3_5 C 0.8754(5) 0.6313(5) 0.66457(18)
C4_5 C 0.8700(5) 0.5807(4) 0.56658(19)
H1_5 H 0.9096 0.6102 0.5572
N3_5 N 0.8585(5) 0.4484(5) 0.5762(2)
C5_5 C 0.6783(5) 0.5847(4) 0.53370(19)
H2_5 H 0.6405 0.5523 0.5282
C6_5 C 0.8000(4) 0.6057(5) 0.55242(17)
C7_5 C 0.7913(5) 0.6775(5) 0.5482(2)
H3_5 H 0.8298 0.7096 0.5529
C8_5 C 0.9149(4) 0.4789(5) 0.5334(2)
H4_5 H 0.9339 0.5088 0.5175
C9_5 C 0.8717(5) 0.5936(4) 0.60172(19)
C10_5 C 0.7436(5) 0.5578(4) 0.5457(2)
H5_5 H 0.7495 0.5075 0.5492
C11_5 C 0.8774(6) 0.6589(5) 0.6972(2)
C12_5 C 0.7271(5) 0.7044(5) 0.5371(2)
H6_5 H 0.7218 0.7550 0.5341
C13_5 C 0.9361(6) 0.6324(6) 0.6463(2)
H7_5 H 0.9809 0.6470 0.6550
C14_5 C 0.8788(7) 0.3917(6) 0.5599(2)
H8_5 H 0.8697 0.3434 0.5663
C15_5 C 0.9336(6) 0.6128(6) 0.6153(3)
H9_5 H 0.9769 0.6129 0.6035
C16_5 C 0.8118(7) 0.6156(7) 0.6512(3)
H10_5 H 0.7688 0.6174 0.6632
C17_5 C 0.8081(7) 0.5962(7) 0.6192(3)
H11_5 H 0.7629 0.5853 0.6098
Cu3_2 Cu 0.95268(5) 0.33757(5) 0.50100(2)
Cu4_4 Cu 0.91243(5) 0.70268(5) 0.75100(2)
O6_5 O 0.4293(6) 0.5725(5) 0.46095(18)
O7_5 O 0.4173(5) 0.6840(4) 0.45968(17)
N4_5 N 0.4149(4) 0.5910(4) 0.53265(16)
Cu4_5 Cu 0.54732(5) 0.66243(5) 0.00100(2)
O1_6 O 0.6035(3) 0.3079(3) 0.75495(13)
O3_6 O 0.5707(6) 0.5725(5) 0.96095(18)
O4_6 O 0.5827(5) 0.6840(4) 0.95968(17)
N1_6 N 0.7465(4) 0.6352(4) 0.80923(15)
N2_6 N 0.8410(4) 0.6649(4) 0.78265(16)
C1_6 C 0.5917(4) 0.4192(4) 0.78002(16)
C2_6 C 0.5623(5) 0.3512(5) 0.76842(17)
C3_6 C 0.6187(5) 0.6254(5) 0.91457(18)
C4_6 C 0.6693(4) 0.6200(5) 0.81658(19)
H1_6 H 0.6398 0.6596 0.8072
N3_6 N 0.8016(5) 0.6085(5) 0.8262(2)
C5_6 C 0.6653(4) 0.4283(5) 0.78370(19)
H2_6 H 0.6977 0.3905 0.7782
C6_6 C 0.6443(5) 0.5500(4) 0.80242(17)
C7_6 C 0.5725(5) 0.5413(5) 0.7982(2)
H3_6 H 0.5404 0.5798 0.8029
C8_6 C 0.7711(5) 0.6649(4) 0.7834(2)
H4_6 H 0.7412 0.6839 0.7675
C9_6 C 0.6564(4) 0.6217(5) 0.85172(19)
C10_6 C 0.6922(4) 0.4936(5) 0.7957(2)
H5_6 H 0.7425 0.4995 0.7992
C11_6 C 0.5911(5) 0.6274(6) 0.9472(2)
C12_6 C 0.5456(5) 0.4771(5) 0.7871(2)
H6_6 H 0.4950 0.4718 0.7841
C13_6 C 0.6176(6) 0.6861(6) 0.8963(2)
H7_6 H 0.6030 0.7309 0.9050
C14_6 C 0.8583(6) 0.6288(7) 0.8099(2)
H8_6 H 0.9066 0.6197 0.8163
C15_6 C 0.6372(6) 0.6836(6) 0.8653(3)
H9_6 H 0.6371 0.7269 0.8535
C16_6 C 0.6344(7) 0.5618(7) 0.9012(3)
H10_6 H 0.6326 0.5188 0.9132
C17_6 C 0.6538(7) 0.5581(7) 0.8692(3)
H11_6 H 0.6647 0.5129 0.8598
O6_6 O 0.6775(5) 0.1793(6) 0.71095(18)
O7_6 O 0.5660(4) 0.1673(5) 0.70968(17)
N4_6 N 0.6590(4) 0.1649(4) 0.78265(16)
N4_7 N 0.0851(4) 0.4090(4) 0.03265(16)
O6_7 O 0.0707(6) 0.4275(5) 0.96095(18)
O7_7 O 0.0827(5) 0.3160(4) 0.95968(17)
O1_7 O 0.9421(3) 0.3535(3) 0.00495(13)
O3_7 O 0.6775(5) 0.3207(6) 0.21095(18)
O4_7 O 0.5660(4) 0.3327(5) 0.20968(17)
N1_7 N 0.6148(4) 0.4965(4) 0.05923(15)
N2_7 N 0.5851(4) 0.5910(4) 0.03265(16)
C1_7 C 0.8308(4) 0.3417(4) 0.03002(16)
C2_7 C 0.8988(5) 0.3123(5) 0.01842(17)
C3_7 C 0.6246(5) 0.3687(5) 0.16457(18)
C4_7 C 0.6300(5) 0.4193(4) 0.06658(19)
H1_7 H 0.5904 0.3898 0.0572
N3_7 N 0.6415(5) 0.5516(5) 0.0762(2)
C5_7 C 0.8217(5) 0.4153(4) 0.03370(19)
H2_7 H 0.8595 0.4477 0.0282
C6_7 C 0.7000(4) 0.3943(5) 0.05242(17)
C7_7 C 0.7087(5) 0.3225(5) 0.0482(2)
H3_7 H 0.6702 0.2904 0.0529
C8_7 C 0.5851(4) 0.5211(5) 0.0334(2)
H4_7 H 0.5661 0.4912 0.0175
C9_7 C 0.6283(5) 0.4064(4) 0.10172(19)
C10_7 C 0.7564(5) 0.4422(4) 0.0457(2)
H5_7 H 0.7505 0.4925 0.0492
C11_7 C 0.6226(6) 0.3411(5) 0.1972(2)
C12_7 C 0.7729(5) 0.2956(5) 0.0371(2)
H6_7 H 0.7782 0.2450 0.0341
C13_7 C 0.5639(6) 0.3676(6) 0.1463(2)
H7_7 H 0.5191 0.3530 0.1550
C14_7 C 0.6212(7) 0.6083(6) 0.0599(2)
H8_7 H 0.6303 0.6566 0.0663
C15_7 C 0.5664(6) 0.3872(6) 0.1153(3)
H9_7 H 0.5231 0.3871 0.1035
C16_7 C 0.6882(7) 0.3844(7) 0.1512(3)
H10_7 H 0.7312 0.3826 0.1632
C17_7 C 0.6919(7) 0.4038(7) 0.1192(3)
H11_7 H 0.7371 0.4147 0.1098
Cu4_6 Cu 0.58757(5) 0.29732(5) 0.25100(2)
H6_8 H 0.0050 0.5282 0.2841
O1_8 O 0.8965(3) 0.6921(3) 0.25495(13)
O3_8 O 0.9293(6) 0.4275(5) 0.46095(18)
O4_8 O 0.9173(5) 0.3160(4) 0.45968(17)
N1_8 N 0.7535(4) 0.3648(4) 0.30923(15)
N2_8 N 0.6590(4) 0.3351(4) 0.28265(16)
C1_8 C 0.9083(4) 0.5808(4) 0.28002(16)
C2_8 C 0.9377(5) 0.6488(5) 0.26842(17)
C3_8 C 0.8813(5) 0.3746(5) 0.41457(18)
C4_8 C 0.8307(4) 0.3800(5) 0.31658(19)
H1_8 H 0.8602 0.3404 0.3072
N3_8 N 0.6984(5) 0.3915(5) 0.3262(2)
C5_8 C 0.8347(4) 0.5717(5) 0.28370(19)
H2_8 H 0.8023 0.6095 0.2782
C6_8 C 0.8557(5) 0.4500(4) 0.30242(17)
C7_8 C 0.9275(5) 0.4587(5) 0.2982(2)
H3_8 H 0.9596 0.4202 0.3029
C8_8 C 0.7289(5) 0.3351(4) 0.2834(2)
H4_8 H 0.7588 0.3161 0.2675
C9_8 C 0.8436(4) 0.3783(5) 0.35172(19)
C10_8 C 0.8078(4) 0.5064(5) 0.2957(2)
H5_8 H 0.7575 0.5005 0.2992
C11_8 C 0.9089(5) 0.3726(6) 0.4472(2)
C12_8 C 0.9544(5) 0.5229(5) 0.2871(2)
C13_8 C 0.8824(6) 0.3139(6) 0.3963(2)
H7_8 H 0.8970 0.2691 0.4050
C14_8 C 0.6417(6) 0.3712(7) 0.3099(2)
H8_8 H 0.5934 0.3803 0.3163
C15_8 C 0.8628(6) 0.3164(6) 0.3653(3)
H9_8 H 0.8629 0.2731 0.3535
C16_8 C 0.8656(7) 0.4382(7) 0.4012(3)
H10_8 H 0.8674 0.4812 0.4132
C17_8 C 0.8462(7) 0.4419(7) 0.3692(3)
H11_8 H 0.8353 0.4871 0.3598
O6_8 O 0.8225(5) 0.8207(6) 0.21095(18)
O7_8 O 0.9340(4) 0.8327(5) 0.20968(17)
N4_8 N 0.8410(4) 0.8351(4) 0.28265(16)
O5_5 O 0.0902(4) 0.2460(3) 0.52298(14)
O1_9 O 0.9421(3) 0.1465(3) 0.50495(13)
O2_5 O 0.9098(4) 0.2540(3) 0.52298(14)
N1_9 N 0.6148(4) 0.0035(4) 0.55923(15)
C1_9 C 0.8308(4) 0.1583(4) 0.53002(16)
C2_9 C 0.8988(5) 0.1877(5) 0.51842(17)
C3_9 C 0.6246(5) 0.1313(5) 0.66457(18)
C4_9 C 0.6300(5) 0.0807(4) 0.56658(19)
H1_9 H 0.5904 0.1102 0.5572
C5_9 C 0.8217(5) 0.0847(4) 0.53370(19)
H2_9 H 0.8595 0.0523 0.5282
C6_9 C 0.7000(4) 0.1057(5) 0.55242(17)
C7_9 C 0.7087(5) 0.1775(5) 0.5482(2)
H3_9 H 0.6702 0.2096 0.5529
H4_9 H 0.5661 0.0088 0.5175
C9_9 C 0.6283(5) 0.0936(4) 0.60172(19)
C10_9 C 0.7564(5) 0.0578(4) 0.5457(2)
H5_9 H 0.7505 0.0075 0.5492
C11_9 C 0.6226(6) 0.1589(5) 0.6972(2)
C12_9 C 0.7729(5) 0.2044(5) 0.5371(2)
H6_9 H 0.7782 0.2550 0.5341
C13_9 C 0.5639(6) 0.1324(6) 0.6463(2)
H7_9 H 0.5191 0.1470 0.6550
C15_9 C 0.5664(6) 0.1128(6) 0.6153(3)
H9_9 H 0.5231 0.1129 0.6035
C16_9 C 0.6882(7) 0.1156(7) 0.6512(3)
H10_9 H 0.7312 0.1174 0.6632
C17_9 C 0.6919(7) 0.0962(7) 0.6192(3)
H11_9 H 0.7371 0.0853 0.6098
N3_9 N 0.6415(5) 0.9484(5) 0.5762(2)
C8_9 C 0.5851(4) 0.9789(5) 0.5334(2)
C14_9 C 0.6212(7) 0.8917(6) 0.5599(2)
H8_9 H 0.6303 0.8434 0.5663
O1_10 O 0.6035(3) 0.1921(3) 0.25495(13)
O2_6 O 0.4960(3) 0.1598(4) 0.27298(14)
C1_10 C 0.5917(4) 0.0808(4) 0.28002(16)
C2_10 C 0.5623(5) 0.1488(5) 0.26842(17)
C5_10 C 0.6653(4) 0.0717(5) 0.28370(19)
H2_10 H 0.6977 0.1095 0.2782
C10_10 C 0.6922(4) 0.0064(5) 0.2957(2)
H5_10 H 0.7425 0.0005 0.2992
C12_10 C 0.5456(5) 0.0229(5) 0.2871(2)
H6_10 H 0.4950 0.0282 0.2841
O5_6 O 0.5040(3) 0.3402(4) 0.27298(14)
N1_10 N 0.7465(4) 0.8648(4) 0.30923(15)
C3_10 C 0.6187(5) 0.8746(5) 0.41457(18)
C4_10 C 0.6693(4) 0.8800(5) 0.31658(19)
H1_10 H 0.6398 0.8404 0.3072
N3_10 N 0.8016(5) 0.8915(5) 0.3262(2)
C6_10 C 0.6443(5) 0.9500(4) 0.30242(17)
C7_10 C 0.5725(5) 0.9587(5) 0.2982(2)
H3_10 H 0.5404 0.9202 0.3029
C8_10 C 0.7711(5) 0.8351(4) 0.2834(2)
H4_10 H 0.7412 0.8161 0.2675
C9_10 C 0.6564(4) 0.8783(5) 0.35172(19)
C11_10 C 0.5911(5) 0.8726(6) 0.4472(2)
C13_10 C 0.6176(6) 0.8139(6) 0.3963(2)
H7_10 H 0.6030 0.7691 0.4050
C14_10 C 0.8583(6) 0.8712(7) 0.3099(2)
H8_10 H 0.9066 0.8803 0.3163
C15_10 C 0.6372(6) 0.8164(6) 0.3653(3)
H9_10 H 0.6371 0.7731 0.3535
C16_10 C 0.6344(7) 0.9382(7) 0.4012(3)
H10_10 H 0.6326 0.9812 0.4132
C17_10 C 0.6538(7) 0.9419(7) 0.3692(3)
H11_10 H 0.6647 0.9871 0.3598
N3_11 N 0.8585(5) 0.0516(5) 0.0762(2)
C8_11 C 0.9149(4) 0.0211(5) 0.0334(2)
C14_11 C 0.8788(7) 0.1083(6) 0.0599(2)
H8_11 H 0.8697 0.1566 0.0663
O1_11 O 0.5579(3) 0.8535(3) 0.00495(13)
O2_7 O 0.5902(4) 0.7460(3) 0.02298(14)
N1_11 N 0.8852(4) 0.9965(4) 0.05923(15)
C1_11 C 0.6692(4) 0.8417(4) 0.03002(16)
C2_11 C 0.6012(5) 0.8123(5) 0.01842(17)
C3_11 C 0.8754(5) 0.8687(5) 0.16457(18)
C4_11 C 0.8700(5) 0.9193(4) 0.06658(19)
H1_11 H 0.9096 0.8898 0.0572
C5_11 C 0.6783(5) 0.9153(4) 0.03370(19)
H2_11 H 0.6405 0.9477 0.0282
C6_11 C 0.8000(4) 0.8943(5) 0.05242(17)
C7_11 C 0.7913(5) 0.8225(5) 0.0482(2)
H3_11 H 0.8298 0.7904 0.0529
H4_11 H 0.9339 0.9912 0.0175
C9_11 C 0.8717(5) 0.9064(4) 0.10172(19)
C10_11 C 0.7436(5) 0.9422(4) 0.0457(2)
H5_11 H 0.7495 0.9925 0.0492
C11_11 C 0.8774(6) 0.8411(5) 0.1972(2)
C12_11 C 0.7271(5) 0.7956(5) 0.0371(2)
H6_11 H 0.7218 0.7450 0.0341
C13_11 C 0.9361(6) 0.8676(6) 0.1463(2)
H7_11 H 0.9809 0.8530 0.1550
C15_11 C 0.9336(6) 0.8872(6) 0.1153(3)
H9_11 H 0.9769 0.8871 0.1035
C16_11 C 0.8118(7) 0.8844(7) 0.1512(3)
H10_11 H 0.7688 0.8826 0.1632
C17_11 C 0.8081(7) 0.9038(7) 0.1192(3)
H11_11 H 0.7629 0.9147 0.1098
O5_7 O 0.4098(4) 0.7540(3) 0.02298(14)
O2_8 O 0.0040(3) 0.8402(4) 0.77298(14)
H6_12 H 0.0050 0.9718 0.7841
N1_12 N 0.7535(4) 0.1352(4) 0.80923(15)
C3_12 C 0.8813(5) 0.1254(5) 0.91457(18)
C4_12 C 0.8307(4) 0.1200(5) 0.81658(19)
H1_12 H 0.8602 0.1596 0.8072
N3_12 N 0.6984(5) 0.1085(5) 0.8262(2)
C6_12 C 0.8557(5) 0.0500(4) 0.80242(17)
C7_12 C 0.9275(5) 0.0413(5) 0.7982(2)
H3_12 H 0.9596 0.0798 0.8029
C8_12 C 0.7289(5) 0.1649(4) 0.7834(2)
H4_12 H 0.7588 0.1839 0.7675
C9_12 C 0.8436(4) 0.1217(5) 0.85172(19)
C11_12 C 0.9089(5) 0.1274(6) 0.9472(2)
C13_12 C 0.8824(6) 0.1861(6) 0.8963(2)
H7_12 H 0.8970 0.2309 0.9050
C14_12 C 0.6417(6) 0.1288(7) 0.8099(2)
H8_12 H 0.5934 0.1197 0.8163
C15_12 C 0.8628(6) 0.1836(6) 0.8653(3)
H9_12 H 0.8629 0.2269 0.8535
C16_12 C 0.8656(7) 0.0618(7) 0.9012(3)
H10_12 H 0.8674 0.0188 0.9132
C17_12 C 0.8462(7) 0.0581(7) 0.8692(3)
H11_12 H 0.8353 0.0129 0.8598
O1_12 O 0.8965(3) 0.8079(3) 0.75495(13)
C1_12 C 0.9083(4) 0.9192(4) 0.78002(16)
C2_12 C 0.9377(5) 0.8512(5) 0.76842(17)
C5_12 C 0.8347(4) 0.9283(5) 0.78370(19)
H2_12 H 0.8023 0.8905 0.7782
C10_12 C 0.8078(4) 0.9936(5) 0.7957(2)
H5_12 H 0.7575 0.9995 0.7992
C12_12 C 0.9544(5) 0.9771(5) 0.7871(2)
O5_8 O 0.9960(3) 0.6598(4) 0.77298(14)
O1_13 O 0.4421(3) 0.6465(3) 0.00495(13)
N1_13 N 0.1148(4) 0.5035(4) 0.05923(15)
C1_13 C 0.3308(4) 0.6583(4) 0.03002(16)
C2_13 C 0.3988(5) 0.6877(5) 0.01842(17)
C3_13 C 0.1246(5) 0.6313(5) 0.16457(18)
C4_13 C 0.1300(5) 0.5807(4) 0.06658(19)
H1_13 H 0.0904 0.6102 0.0572
N3_13 N 0.1415(5) 0.4484(5) 0.0762(2)
C5_13 C 0.3217(5) 0.5847(4) 0.03370(19)
H2_13 H 0.3595 0.5523 0.0282
C6_13 C 0.2000(4) 0.6057(5) 0.05242(17)
C7_13 C 0.2087(5) 0.6775(5) 0.0482(2)
H3_13 H 0.1702 0.7096 0.0529
C8_13 C 0.0851(4) 0.4789(5) 0.0334(2)
H4_13 H 0.0661 0.5088 0.0175
C9_13 C 0.1283(5) 0.5936(4) 0.10172(19)
C10_13 C 0.2564(5) 0.5578(4) 0.0457(2)
H5_13 H 0.2505 0.5075 0.0492
C11_13 C 0.1226(6) 0.6589(5) 0.1972(2)
C12_13 C 0.2729(5) 0.7044(5) 0.0371(2)
H6_13 H 0.2782 0.7550 0.0341
C13_13 C 0.0639(6) 0.6324(6) 0.1463(2)
H7_13 H 0.0191 0.6470 0.1550
C14_13 C 0.1212(7) 0.3917(6) 0.0599(2)
H8_13 H 0.1303 0.3434 0.0663
C15_13 C 0.0664(6) 0.6128(6) 0.1153(3)
H9_13 H 0.0231 0.6129 0.1035
C16_13 C 0.1882(7) 0.6156(7) 0.1512(3)
H10_13 H 0.2312 0.6174 0.1632
C17_13 C 0.1919(7) 0.5962(7) 0.1192(3)
H11_13 H 0.2371 0.5853 0.1098
O1_14 O 0.1035(3) 0.6921(3) 0.75495(13)
N1_14 N 0.2465(4) 0.3648(4) 0.80923(15)
C1_14 C 0.0917(4) 0.5808(4) 0.78002(16)
C2_14 C 0.0623(5) 0.6488(5) 0.76842(17)
C3_14 C 0.1187(5) 0.3746(5) 0.91457(18)
C4_14 C 0.1693(4) 0.3800(5) 0.81658(19)
H1_14 H 0.1398 0.3404 0.8072
N3_14 N 0.3016(5) 0.3915(5) 0.8262(2)
C5_14 C 0.1653(4) 0.5717(5) 0.78370(19)
H2_14 H 0.1977 0.6095 0.7782
C6_14 C 0.1443(5) 0.4500(4) 0.80242(17)
C7_14 C 0.0725(5) 0.4587(5) 0.7982(2)
H3_14 H 0.0404 0.4202 0.8029
C8_14 C 0.2711(5) 0.3351(4) 0.7834(2)
H4_14 H 0.2412 0.3161 0.7675
C9_14 C 0.1564(4) 0.3783(5) 0.85172(19)
C10_14 C 0.1922(4) 0.5064(5) 0.7957(2)
H5_14 H 0.2425 0.5005 0.7992
C11_14 C 0.0911(5) 0.3726(6) 0.9472(2)
C12_14 C 0.0456(5) 0.5229(5) 0.7871(2)
C13_14 C 0.1176(6) 0.3139(6) 0.8963(2)
H7_14 H 0.1030 0.2691 0.9050
C14_14 C 0.3583(6) 0.3712(7) 0.8099(2)
H8_14 H 0.4066 0.3803 0.8163
C15_14 C 0.1372(6) 0.3164(6) 0.8653(3)
H9_14 H 0.1371 0.2731 0.8535
C16_14 C 0.1344(7) 0.4382(7) 0.9012(3)
H10_14 H 0.1326 0.4812 0.9132
C17_14 C 0.1538(7) 0.4419(7) 0.8692(3)
H11_14 H 0.1647 0.4871 0.8598
H6_14 H 0.9950 0.5282 0.7841
O1_15 O 0.0579(3) 0.3535(3) 0.50495(13)
N1_15 N 0.3852(4) 0.4965(4) 0.55923(15)
C1_15 C 0.1692(4) 0.3417(4) 0.53002(16)
C2_15 C 0.1012(5) 0.3123(5) 0.51842(17)
C3_15 C 0.3754(5) 0.3687(5) 0.66457(18)
C4_15 C 0.3700(5) 0.4193(4) 0.56658(19)
H1_15 H 0.4096 0.3898 0.5572
N3_15 N 0.3585(5) 0.5516(5) 0.5762(2)
C5_15 C 0.1783(5) 0.4153(4) 0.53370(19)
H2_15 H 0.1405 0.4477 0.5282
C6_15 C 0.3000(4) 0.3943(5) 0.55242(17)
C7_15 C 0.2913(5) 0.3225(5) 0.5482(2)
H3_15 H 0.3298 0.2904 0.5529
C8_15 C 0.4149(4) 0.5211(5) 0.5334(2)
H4_15 H 0.4339 0.4912 0.5175
C9_15 C 0.3717(5) 0.4064(4) 0.60172(19)
C10_15 C 0.2436(5) 0.4422(4) 0.5457(2)
H5_15 H 0.2495 0.4925 0.5492
C11_15 C 0.3774(6) 0.3411(5) 0.6972(2)
C12_15 C 0.2271(5) 0.2956(5) 0.5371(2)
H6_15 H 0.2218 0.2450 0.5341
C13_15 C 0.4361(6) 0.3676(6) 0.6463(2)
H7_15 H 0.4809 0.3530 0.6550
C14_15 C 0.3788(7) 0.6083(6) 0.5599(2)
H8_15 H 0.3697 0.6566 0.5663
C15_15 C 0.4336(6) 0.3872(6) 0.6153(3)
H9_15 H 0.4769 0.3871 0.6035
C16_15 C 0.3118(7) 0.3844(7) 0.6512(3)
H10_15 H 0.2688 0.3826 0.6632
C17_15 C 0.3081(7) 0.4038(7) 0.6192(3)
H11_15 H 0.2629 0.4147 0.6098
O1_16 O 0.3965(3) 0.3079(3) 0.25495(13)
N1_16 N 0.2535(4) 0.6352(4) 0.30923(15)
C1_16 C 0.4083(4) 0.4192(4) 0.28002(16)
C2_16 C 0.4377(5) 0.3512(5) 0.26842(17)
C3_16 C 0.3813(5) 0.6254(5) 0.41457(18)
C4_16 C 0.3307(4) 0.6200(5) 0.31658(19)
H1_16 H 0.3602 0.6596 0.3072
N3_16 N 0.1984(5) 0.6085(5) 0.3262(2)
C5_16 C 0.3347(4) 0.4283(5) 0.28370(19)
H2_16 H 0.3023 0.3905 0.2782
C6_16 C 0.3557(5) 0.5500(4) 0.30242(17)
C7_16 C 0.4275(5) 0.5413(5) 0.2982(2)
H3_16 H 0.4596 0.5798 0.3029
C8_16 C 0.2289(5) 0.6649(4) 0.2834(2)
H4_16 H 0.2588 0.6839 0.2675
C9_16 C 0.3436(4) 0.6217(5) 0.35172(19)
C10_16 C 0.3078(4) 0.4936(5) 0.2957(2)
H5_16 H 0.2575 0.4995 0.2992
C11_16 C 0.4089(5) 0.6274(6) 0.4472(2)
C12_16 C 0.4544(5) 0.4771(5) 0.2871(2)
H6_16 H 0.5050 0.4718 0.2841
C13_16 C 0.3824(6) 0.6861(6) 0.3963(2)
H7_16 H 0.3970 0.7309 0.4050
C14_16 C 0.1417(6) 0.6288(7) 0.3099(2)
H8_16 H 0.0934 0.6197 0.3163
C15_16 C 0.3628(6) 0.6836(6) 0.3653(3)
H9_16 H 0.3629 0.7269 0.3535
C16_16 C 0.3656(7) 0.5618(7) 0.4012(3)
H10_16 H 0.3674 0.5188 0.4132
C17_16 C 0.3462(7) 0.5581(7) 0.3692(3)
H11_16 H 0.3353 0.5129 0.3598
N2_9 N 0.4149(4) 0.0910(4) 0.46735(16)
N3_17 N 0.3585(5) 0.0516(5) 0.4238(2)
C8_17 C 0.4149(4) 0.0211(5) 0.4666(2)
C14_17 C 0.3788(7) 0.1083(6) 0.4401(2)
H8_17 H 0.3697 0.1566 0.4337
Cu3_3 Cu 0.45268(5) 0.16243(5) 0.49900(2)
O1_17 O 0.0579(3) 0.8535(3) 0.49505(13)
O2_9 O 0.0902(4) 0.7460(3) 0.47702(14)
O3_9 O 0.3225(5) 0.8207(6) 0.28905(18)
O4_9 O 0.4340(4) 0.8327(5) 0.29032(17)
N1_17 N 0.3852(4) 0.9965(4) 0.44077(15)
C1_17 C 0.1692(4) 0.8417(4) 0.46998(16)
C2_17 C 0.1012(5) 0.8123(5) 0.48158(17)
C3_17 C 0.3754(5) 0.8687(5) 0.33543(18)
C4_17 C 0.3700(5) 0.9193(4) 0.43342(19)
H1_17 H 0.4096 0.8898 0.4428
C5_17 C 0.1783(5) 0.9153(4) 0.46630(19)
H2_17 H 0.1405 0.9477 0.4718
C6_17 C 0.3000(4) 0.8943(5) 0.44758(17)
C7_17 C 0.2913(5) 0.8225(5) 0.4518(2)
H3_17 H 0.3298 0.7904 0.4471
H4_17 H 0.4339 0.9912 0.4825
C9_17 C 0.3717(5) 0.9064(4) 0.39828(19)
C10_17 C 0.2436(5) 0.9422(4) 0.4543(2)
H5_17 H 0.2495 0.9925 0.4508
C11_17 C 0.3774(6) 0.8411(5) 0.3028(2)
C12_17 C 0.2271(5) 0.7956(5) 0.4629(2)
H6_17 H 0.2218 0.7450 0.4659
C13_17 C 0.4361(6) 0.8676(6) 0.3537(2)
H7_17 H 0.4809 0.8530 0.3450
C15_17 C 0.4336(6) 0.8872(6) 0.3847(3)
H9_17 H 0.4769 0.8871 0.3965
C16_17 C 0.3118(7) 0.8844(7) 0.3488(3)
H10_17 H 0.2688 0.8826 0.3368
C17_17 C 0.3081(7) 0.9038(7) 0.3808(3)
H11_17 H 0.2629 0.9147 0.3902
Cu2_5 Cu 0.04732(5) 0.66243(5) 0.49900(2)
Cu4_7 Cu 0.41243(5) 0.79732(5) 0.24900(2)
Cu1_5 Cu 0.95268(5) 0.83757(5) 0.49900(2)
O5_9 O 0.9098(4) 0.7540(3) 0.47702(14)
O6_9 O 0.9293(6) 0.9275(5) 0.53905(18)
O7_9 O 0.9173(5) 0.8160(4) 0.54032(17)
N4_9 N 0.9149(4) 0.9090(4) 0.46735(16)
O3_10 O 0.4293(6) 0.0725(5) 0.53905(18)
O4_10 O 0.4173(5) 0.1840(4) 0.54032(17)
N1_18 N 0.2535(4) 0.1352(4) 0.69077(15)
N2_10 N 0.1590(4) 0.1649(4) 0.71735(16)
C3_18 C 0.3813(5) 0.1254(5) 0.58543(18)
C4_18 C 0.3307(4) 0.1200(5) 0.68342(19)
H1_18 H 0.3602 0.1596 0.6928
N3_18 N 0.1984(5) 0.1085(5) 0.6738(2)
C6_18 C 0.3557(5) 0.0500(4) 0.69758(17)
C7_18 C 0.4275(5) 0.0413(5) 0.7018(2)
H3_18 H 0.4596 0.0798 0.6971
C8_18 C 0.2289(5) 0.1649(4) 0.7166(2)
H4_18 H 0.2588 0.1839 0.7325
C9_18 C 0.3436(4) 0.1217(5) 0.64828(19)
C11_18 C 0.4089(5) 0.1274(6) 0.5528(2)
C13_18 C 0.3824(6) 0.1861(6) 0.6037(2)
H7_18 H 0.3970 0.2309 0.5950
C14_18 C 0.1417(6) 0.1288(7) 0.6901(2)
H8_18 H 0.0934 0.1197 0.6837
C15_18 C 0.3628(6) 0.1836(6) 0.6347(3)
H9_18 H 0.3629 0.2269 0.6465
C16_18 C 0.3656(7) 0.0618(7) 0.5988(3)
H10_18 H 0.3674 0.0188 0.5868
C17_18 C 0.3462(7) 0.0581(7) 0.6308(3)
H11_18 H 0.3353 0.0129 0.6402
Cu3_4 Cu 0.08757(5) 0.20268(5) 0.74900(2)
Cu1_6 Cu 0.41243(5) 0.70268(5) 0.74900(2)
O1_18 O 0.3965(3) 0.8079(3) 0.74505(13)
O2_10 O 0.5040(3) 0.8402(4) 0.72702(14)
C1_18 C 0.4083(4) 0.9192(4) 0.71998(16)
C2_18 C 0.4377(5) 0.8512(5) 0.73158(17)
C5_18 C 0.3347(4) 0.9283(5) 0.71630(19)
H2_18 H 0.3023 0.8905 0.7218
C10_18 C 0.3078(4) 0.9936(5) 0.7043(2)
H5_18 H 0.2575 0.9995 0.7008
C12_18 C 0.4544(5) 0.9771(5) 0.7129(2)
H6_18 H 0.5050 0.9718 0.7159
Cu2_6 Cu 0.58757(5) 0.79732(5) 0.74900(2)
O5_10 O 0.4960(3) 0.6598(4) 0.72702(14)
O6_10 O 0.3225(5) 0.6793(6) 0.78905(18)
O7_10 O 0.4340(4) 0.6673(5) 0.79032(17)
N4_10 N 0.3410(4) 0.6649(4) 0.71735(16)
O6_11 O 0.5707(6) 0.0725(5) 0.03905(18)
O7_11 O 0.5827(5) 0.1840(4) 0.04032(17)
Cu1_7 Cu 0.54732(5) 0.16243(5) 0.99900(2)
O1_19 O 0.4421(3) 0.1465(3) 0.99505(13)
O2_11 O 0.4098(4) 0.2540(3) 0.97702(14)
O3_11 O 0.1775(5) 0.1793(6) 0.78905(18)
O4_11 O 0.0660(4) 0.1673(5) 0.79032(17)
N1_19 N 0.1148(4) 0.0035(4) 0.94077(15)
C1_19 C 0.3308(4) 0.1583(4) 0.96998(16)
C2_19 C 0.3988(5) 0.1877(5) 0.98158(17)
C3_19 C 0.1246(5) 0.1313(5) 0.83543(18)
C4_19 C 0.1300(5) 0.0807(4) 0.93342(19)
H1_19 H 0.0904 0.1102 0.9428
C5_19 C 0.3217(5) 0.0847(4) 0.96630(19)
H2_19 H 0.3595 0.0523 0.9718
C6_19 C 0.2000(4) 0.1057(5) 0.94758(17)
C7_19 C 0.2087(5) 0.1775(5) 0.9518(2)
H3_19 H 0.1702 0.2096 0.9471
H4_19 H 0.0661 0.0088 0.9825
C9_19 C 0.1283(5) 0.0936(4) 0.89828(19)
C10_19 C 0.2564(5) 0.0578(4) 0.9543(2)
H5_19 H 0.2505 0.0075 0.9508
C11_19 C 0.1226(6) 0.1589(5) 0.8028(2)
C12_19 C 0.2729(5) 0.2044(5) 0.9629(2)
H6_19 H 0.2782 0.2550 0.9659
C13_19 C 0.0639(6) 0.1324(6) 0.8537(2)
H7_19 H 0.0191 0.1470 0.8450
C15_19 C 0.0664(6) 0.1128(6) 0.8847(3)
H9_19 H 0.0231 0.1129 0.8965
C16_19 C 0.1882(7) 0.1156(7) 0.8488(3)
H10_19 H 0.2312 0.1174 0.8368
C17_19 C 0.1919(7) 0.0962(7) 0.8808(3)
H11_19 H 0.2371 0.0853 0.8902
Cu2_7 Cu 0.45268(5) 0.33757(5) 0.99900(2)
O5_11 O 0.5902(4) 0.2460(3) 0.97702(14)
N4_11 N 0.5851(4) 0.0910(4) 0.96735(16)
N2_11 N 0.0851(4) 0.9090(4) 0.96735(16)
N3_19 N 0.1415(5) 0.9484(5) 0.9238(2)
C8_19 C 0.0851(4) 0.9789(5) 0.9666(2)
C14_19 C 0.1212(7) 0.8917(6) 0.9401(2)
H8_19 H 0.1303 0.8434 0.9337
Cu3_5 Cu 0.04732(5) 0.83757(5) 0.99900(2)
Cu1_8 Cu 0.08757(5) 0.29732(5) 0.24900(2)
O1_20 O 0.1035(3) 0.1921(3) 0.24505(13)
C1_20 C 0.0917(4) 0.0808(4) 0.21998(16)
C2_20 C 0.0623(5) 0.1488(5) 0.23158(17)
C5_20 C 0.1653(4) 0.0717(5) 0.21630(19)
H2_20 H 0.1977 0.1095 0.2218
C10_20 C 0.1922(4) 0.0064(5) 0.2043(2)
H5_20 H 0.2425 0.0005 0.2008
C12_20 C 0.0456(5) 0.0229(5) 0.2129(2)
O5_12 O 0.0040(3) 0.3402(4) 0.22702(14)
O6_12 O 0.1775(5) 0.3207(6) 0.28905(18)
O7_12 O 0.0660(4) 0.3327(5) 0.29032(17)
N4_12 N 0.1590(4) 0.3351(4) 0.21735(16)
O3_12 O 0.0707(6) 0.9275(5) 0.03905(18)
O4_12 O 0.0827(5) 0.8160(4) 0.04032(17)
N1_20 N 0.2465(4) 0.8648(4) 0.19077(15)
N2_12 N 0.3410(4) 0.8351(4) 0.21735(16)
C3_20 C 0.1187(5) 0.8746(5) 0.08543(18)
C4_20 C 0.1693(4) 0.8800(5) 0.18342(19)
H1_20 H 0.1398 0.8404 0.1928
N3_20 N 0.3016(5) 0.8915(5) 0.1738(2)
C6_20 C 0.1443(5) 0.9500(4) 0.19758(17)
C7_20 C 0.0725(5) 0.9587(5) 0.2018(2)
H3_20 H 0.0404 0.9202 0.1971
C8_20 C 0.2711(5) 0.8351(4) 0.2166(2)
H4_20 H 0.2412 0.8161 0.2325
C9_20 C 0.1564(4) 0.8783(5) 0.14828(19)
C11_20 C 0.0911(5) 0.8726(6) 0.0528(2)
C13_20 C 0.1176(6) 0.8139(6) 0.1037(2)
H7_20 H 0.1030 0.7691 0.0950
C14_20 C 0.3583(6) 0.8712(7) 0.1901(2)
H8_20 H 0.4066 0.8803 0.1837
C15_20 C 0.1372(6) 0.8164(6) 0.1347(3)
H9_20 H 0.1371 0.7731 0.1465
C16_20 C 0.1344(7) 0.9382(7) 0.0988(3)
H10_20 H 0.1326 0.9812 0.0868
C17_20 C 0.1538(7) 0.9419(7) 0.1308(3)
H11_20 H 0.1647 0.9871 0.1402
O2_12 O 0.9960(3) 0.1598(4) 0.22702(14)
H6_20 H 0.9950 0.0282 0.2159
Cu2_8 Cu 0.91243(5) 0.20268(5) 0.24900(2)
O6_13 O 0.4293(6) 0.4275(5) 0.03905(18)
O7_13 O 0.4173(5) 0.3160(4) 0.04032(17)
O1_21 O 0.5579(3) 0.3535(3) 0.99505(13)
O3_13 O 0.8225(5) 0.3207(6) 0.78905(18)
O4_13 O 0.9340(4) 0.3327(5) 0.79032(17)
N1_21 N 0.8852(4) 0.4965(4) 0.94077(15)
N2_13 N 0.9149(4) 0.5910(4) 0.96735(16)
C1_21 C 0.6692(4) 0.3417(4) 0.96998(16)
C2_21 C 0.6012(5) 0.3123(5) 0.98158(17)
C3_21 C 0.8754(5) 0.3687(5) 0.83543(18)
C4_21 C 0.8700(5) 0.4193(4) 0.93342(19)
H1_21 H 0.9096 0.3898 0.9428
N3_21 N 0.8585(5) 0.5516(5) 0.9238(2)
C5_21 C 0.6783(5) 0.4153(4) 0.96630(19)
H2_21 H 0.6405 0.4477 0.9718
C6_21 C 0.8000(4) 0.3943(5) 0.94758(17)
C7_21 C 0.7913(5) 0.3225(5) 0.9518(2)
H3_21 H 0.8298 0.2904 0.9471
C8_21 C 0.9149(4) 0.5211(5) 0.9666(2)
H4_21 H 0.9339 0.4912 0.9825
C9_21 C 0.8717(5) 0.4064(4) 0.89828(19)
C10_21 C 0.7436(5) 0.4422(4) 0.9543(2)
H5_21 H 0.7495 0.4925 0.9508
C11_21 C 0.8774(6) 0.3411(5) 0.8028(2)
C12_21 C 0.7271(5) 0.2956(5) 0.9629(2)
H6_21 H 0.7218 0.2450 0.9659
C13_21 C 0.9361(6) 0.3676(6) 0.8537(2)
H7_21 H 0.9809 0.3530 0.8450
C14_21 C 0.8788(7) 0.6083(6) 0.9401(2)
H8_21 H 0.8697 0.6566 0.9337
C15_21 C 0.9336(6) 0.3872(6) 0.8847(3)
H9_21 H 0.9769 0.3871 0.8965
C16_21 C 0.8118(7) 0.3844(7) 0.8488(3)
H10_21 H 0.7688 0.3826 0.8368
C17_21 C 0.8081(7) 0.4038(7) 0.8808(3)
H11_21 H 0.7629 0.4147 0.8902
Cu3_6 Cu 0.95268(5) 0.66243(5) 0.99900(2)
Cu4_8 Cu 0.91243(5) 0.29732(5) 0.74900(2)
N4_13 N 0.4149(4) 0.4090(4) 0.96735(16)
H6_22 H 0.0050 0.4718 0.2159
O1_22 O 0.8965(3) 0.3079(3) 0.24505(13)
O3_14 O 0.9293(6) 0.5725(5) 0.03905(18)
O4_14 O 0.9173(5) 0.6840(4) 0.04032(17)
N1_22 N 0.7535(4) 0.6352(4) 0.19077(15)
N2_14 N 0.6590(4) 0.6649(4) 0.21735(16)
C1_22 C 0.9083(4) 0.4192(4) 0.21998(16)
C2_22 C 0.9377(5) 0.3512(5) 0.23158(17)
C3_22 C 0.8813(5) 0.6254(5) 0.08543(18)
C4_22 C 0.8307(4) 0.6200(5) 0.18342(19)
H1_22 H 0.8602 0.6596 0.1928
N3_22 N 0.6984(5) 0.6085(5) 0.1738(2)
C5_22 C 0.8347(4) 0.4283(5) 0.21630(19)
H2_22 H 0.8023 0.3905 0.2218
C6_22 C 0.8557(5) 0.5500(4) 0.19758(17)
C7_22 C 0.9275(5) 0.5413(5) 0.2018(2)
H3_22 H 0.9596 0.5798 0.1971
C8_22 C 0.7289(5) 0.6649(4) 0.2166(2)
H4_22 H 0.7588 0.6839 0.2325
C9_22 C 0.8436(4) 0.6217(5) 0.14828(19)
C10_22 C 0.8078(4) 0.4936(5) 0.2043(2)
H5_22 H 0.7575 0.4995 0.2008
C11_22 C 0.9089(5) 0.6274(6) 0.0528(2)
C12_22 C 0.9544(5) 0.4771(5) 0.2129(2)
C13_22 C 0.8824(6) 0.6861(6) 0.1037(2)
H7_22 H 0.8970 0.7309 0.0950
C14_22 C 0.6417(6) 0.6288(7) 0.1901(2)
H8_22 H 0.5934 0.6197 0.1837
C15_22 C 0.8628(6) 0.6836(6) 0.1347(3)
H9_22 H 0.8629 0.7269 0.1465
C16_22 C 0.8656(7) 0.5618(7) 0.0988(3)
H10_22 H 0.8674 0.5188 0.0868
C17_22 C 0.8462(7) 0.5581(7) 0.1308(3)
H11_22 H 0.8353 0.5129 0.1402
Cu3_7 Cu 0.58757(5) 0.70268(5) 0.24900(2)
O6_14 O 0.8225(5) 0.1793(6) 0.28905(18)
O7_14 O 0.9340(4) 0.1673(5) 0.29032(17)
N4_14 N 0.8410(4) 0.1649(4) 0.21735(16)
O6_15 O 0.0707(6) 0.5725(5) 0.53905(18)
O7_15 O 0.0827(5) 0.6840(4) 0.54032(17)
N4_15 N 0.0851(4) 0.5910(4) 0.46735(16)
O1_23 O 0.9421(3) 0.6465(3) 0.49505(13)
O3_15 O 0.6775(5) 0.6793(6) 0.28905(18)
O4_15 O 0.5660(4) 0.6673(5) 0.29032(17)
N1_23 N 0.6148(4) 0.5035(4) 0.44077(15)
N2_15 N 0.5851(4) 0.4090(4) 0.46735(16)
C1_23 C 0.8308(4) 0.6583(4) 0.46998(16)
C2_23 C 0.8988(5) 0.6877(5) 0.48158(17)
C3_23 C 0.6246(5) 0.6313(5) 0.33543(18)
C4_23 C 0.6300(5) 0.5807(4) 0.43342(19)
H1_23 H 0.5904 0.6102 0.4428
N3_23 N 0.6415(5) 0.4484(5) 0.4238(2)
C5_23 C 0.8217(5) 0.5847(4) 0.46630(19)
H2_23 H 0.8595 0.5523 0.4718
C6_23 C 0.7000(4) 0.6057(5) 0.44758(17)
C7_23 C 0.7087(5) 0.6775(5) 0.4518(2)
H3_23 H 0.6702 0.7096 0.4471
C8_23 C 0.5851(4) 0.4789(5) 0.4666(2)
H4_23 H 0.5661 0.5088 0.4825
C9_23 C 0.6283(5) 0.5936(4) 0.39828(19)
C10_23 C 0.7564(5) 0.5578(4) 0.4543(2)
H5_23 H 0.7505 0.5075 0.4508
C11_23 C 0.6226(6) 0.6589(5) 0.3028(2)
C12_23 C 0.7729(5) 0.7044(5) 0.4629(2)
H6_23 H 0.7782 0.7550 0.4659
C13_23 C 0.5639(6) 0.6324(6) 0.3537(2)
H7_23 H 0.5191 0.6470 0.3450
C14_23 C 0.6212(7) 0.3917(6) 0.4401(2)
H8_23 H 0.6303 0.3434 0.4337
C15_23 C 0.5664(6) 0.6128(6) 0.3847(3)
H9_23 H 0.5231 0.6129 0.3965
C16_23 C 0.6882(7) 0.6156(7) 0.3488(3)
H10_23 H 0.7312 0.6174 0.3368
C17_23 C 0.6919(7) 0.5962(7) 0.3808(3)
H11_23 H 0.7371 0.5853 0.3902
Cu3_8 Cu 0.54732(5) 0.33757(5) 0.49900(2)
O1_24 O 0.6035(3) 0.6921(3) 0.74505(13)
O3_16 O 0.5707(6) 0.4275(5) 0.53905(18)
O4_16 O 0.5827(5) 0.3160(4) 0.54032(17)
N1_24 N 0.7465(4) 0.3648(4) 0.69077(15)
N2_16 N 0.8410(4) 0.3351(4) 0.71735(16)
C1_24 C 0.5917(4) 0.5808(4) 0.71998(16)
C2_24 C 0.5623(5) 0.6488(5) 0.73158(17)
C3_24 C 0.6187(5) 0.3746(5) 0.58543(18)
C4_24 C 0.6693(4) 0.3800(5) 0.68342(19)
H1_24 H 0.6398 0.3404 0.6928
N3_24 N 0.8016(5) 0.3915(5) 0.6738(2)
C5_24 C 0.6653(4) 0.5717(5) 0.71630(19)
H2_24 H 0.6977 0.6095 0.7218
C6_24 C 0.6443(5) 0.4500(4) 0.69758(17)
C7_24 C 0.5725(5) 0.4587(5) 0.7018(2)
H3_24 H 0.5404 0.4202 0.6971
C8_24 C 0.7711(5) 0.3351(4) 0.7166(2)
H4_24 H 0.7412 0.3161 0.7325
C9_24 C 0.6564(4) 0.3783(5) 0.64828(19)
C10_24 C 0.6922(4) 0.5064(5) 0.7043(2)
H5_24 H 0.7425 0.5005 0.7008
C11_24 C 0.5911(5) 0.3726(6) 0.5528(2)
C12_24 C 0.5456(5) 0.5229(5) 0.7129(2)
H6_24 H 0.4950 0.5282 0.7159
C13_24 C 0.6176(6) 0.3139(6) 0.6037(2)
H7_24 H 0.6030 0.2691 0.5950
C14_24 C 0.8583(6) 0.3712(7) 0.6901(2)
H8_24 H 0.9066 0.3803 0.6837
C15_24 C 0.6372(6) 0.3164(6) 0.6347(3)
H9_24 H 0.6371 0.2731 0.6465
C16_24 C 0.6344(7) 0.4382(7) 0.5988(3)
H10_24 H 0.6326 0.4812 0.5868
C17_24 C 0.6538(7) 0.4419(7) 0.6308(3)
H11_24 H 0.6647 0.4871 0.6402
O6_16 O 0.6775(5) 0.8207(6) 0.78905(18)
O7_16 O 0.5660(4) 0.8327(5) 0.79032(17)
N4_16 N 0.6590(4) 0.8351(4) 0.71735(16)
O5_13 O 0.0902(4) 0.7540(3) 0.97702(14)
N3_25 N 0.6415(5) 0.0516(5) 0.9238(2)
C8_25 C 0.5851(4) 0.0211(5) 0.9666(2)
C14_25 C 0.6212(7) 0.1083(6) 0.9401(2)
H8_25 H 0.6303 0.1566 0.9337
O1_25 O 0.9421(3) 0.8535(3) 0.99505(13)
O2_13 O 0.9098(4) 0.7460(3) 0.97702(14)
N1_25 N 0.6148(4) 0.9965(4) 0.94077(15)
C1_25 C 0.8308(4) 0.8417(4) 0.96998(16)
C2_25 C 0.8988(5) 0.8123(5) 0.98158(17)
C3_25 C 0.6246(5) 0.8687(5) 0.83543(18)
C4_25 C 0.6300(5) 0.9193(4) 0.93342(19)
H1_25 H 0.5904 0.8898 0.9428
C5_25 C 0.8217(5) 0.9153(4) 0.96630(19)
H2_25 H 0.8595 0.9477 0.9718
C6_25 C 0.7000(4) 0.8943(5) 0.94758(17)
C7_25 C 0.7087(5) 0.8225(5) 0.9518(2)
H3_25 H 0.6702 0.7904 0.9471
H4_25 H 0.5661 0.9912 0.9825
C9_25 C 0.6283(5) 0.9064(4) 0.89828(19)
C10_25 C 0.7564(5) 0.9422(4) 0.9543(2)
H5_25 H 0.7505 0.9925 0.9508
C11_25 C 0.6226(6) 0.8411(5) 0.8028(2)
C12_25 C 0.7729(5) 0.7956(5) 0.9629(2)
H6_25 H 0.7782 0.7450 0.9659
C13_25 C 0.5639(6) 0.8676(6) 0.8537(2)
H7_25 H 0.5191 0.8530 0.8450
C15_25 C 0.5664(6) 0.8872(6) 0.8847(3)
H9_25 H 0.5231 0.8871 0.8965
C16_25 C 0.6882(7) 0.8844(7) 0.8488(3)
H10_25 H 0.7312 0.8826 0.8368
C17_25 C 0.6919(7) 0.9038(7) 0.8808(3)
H11_25 H 0.7371 0.9147 0.8902
O2_14 O 0.0040(3) 0.1598(4) 0.72702(14)
H6_26 H 0.0050 0.0282 0.7159
O1_26 O 0.8965(3) 0.1921(3) 0.74505(13)
C1_26 C 0.9083(4) 0.0808(4) 0.71998(16)
C2_26 C 0.9377(5) 0.1488(5) 0.73158(17)
C5_26 C 0.8347(4) 0.0717(5) 0.71630(19)
H2_26 H 0.8023 0.1095 0.7218
C10_26 C 0.8078(4) 0.0064(5) 0.7043(2)
H5_26 H 0.7575 0.0005 0.7008
C12_26 C 0.9544(5) 0.0229(5) 0.7129(2)
O5_14 O 0.9960(3) 0.3402(4) 0.72702(14)
N1_26 N 0.7535(4) 0.8648(4) 0.69077(15)
C3_26 C 0.8813(5) 0.8746(5) 0.58543(18)
C4_26 C 0.8307(4) 0.8800(5) 0.68342(19)
H1_26 H 0.8602 0.8404 0.6928
N3_26 N 0.6984(5) 0.8915(5) 0.6738(2)
C6_26 C 0.8557(5) 0.9500(4) 0.69758(17)
C7_26 C 0.9275(5) 0.9587(5) 0.7018(2)
H3_26 H 0.9596 0.9202 0.6971
C8_26 C 0.7289(5) 0.8351(4) 0.7166(2)
H4_26 H 0.7588 0.8161 0.7325
C9_26 C 0.8436(4) 0.8783(5) 0.64828(19)
C11_26 C 0.9089(5) 0.8726(6) 0.5528(2)
C13_26 C 0.8824(6) 0.8139(6) 0.6037(2)
H7_26 H 0.8970 0.7691 0.5950
C14_26 C 0.6417(6) 0.8712(7) 0.6901(2)
H8_26 H 0.5934 0.8803 0.6837
C15_26 C 0.8628(6) 0.8164(6) 0.6347(3)
H9_26 H 0.8629 0.7731 0.6465
C16_26 C 0.8656(7) 0.9382(7) 0.5988(3)
H10_26 H 0.8674 0.9812 0.5868
C17_26 C 0.8462(7) 0.9419(7) 0.6308(3)
H11_26 H 0.8353 0.9871 0.6402
O1_27 O 0.5579(3) 0.1465(3) 0.49505(13)
O2_15 O 0.5902(4) 0.2540(3) 0.47702(14)
N1_27 N 0.8852(4) 0.0035(4) 0.44077(15)
C1_27 C 0.6692(4) 0.1583(4) 0.46998(16)
C2_27 C 0.6012(5) 0.1877(5) 0.48158(17)
C3_27 C 0.8754(5) 0.1313(5) 0.33543(18)
C4_27 C 0.8700(5) 0.0807(4) 0.43342(19)
H1_27 H 0.9096 0.1102 0.4428
C5_27 C 0.6783(5) 0.0847(4) 0.46630(19)
H2_27 H 0.6405 0.0523 0.4718
C6_27 C 0.8000(4) 0.1057(5) 0.44758(17)
C7_27 C 0.7913(5) 0.1775(5) 0.4518(2)
H3_27 H 0.8298 0.2096 0.4471
H4_27 H 0.9339 0.0088 0.4825
C9_27 C 0.8717(5) 0.0936(4) 0.39828(19)
C10_27 C 0.7436(5) 0.0578(4) 0.4543(2)
H5_27 H 0.7495 0.0075 0.4508
C11_27 C 0.8774(6) 0.1589(5) 0.3028(2)
C12_27 C 0.7271(5) 0.2044(5) 0.4629(2)
H6_27 H 0.7218 0.2550 0.4659
C13_27 C 0.9361(6) 0.1324(6) 0.3537(2)
H7_27 H 0.9809 0.1470 0.3450
C15_27 C 0.9336(6) 0.1128(6) 0.3847(3)
H9_27 H 0.9769 0.1129 0.3965
C16_27 C 0.8118(7) 0.1156(7) 0.3488(3)
H10_27 H 0.7688 0.1174 0.3368
C17_27 C 0.8081(7) 0.0962(7) 0.3808(3)
H11_27 H 0.7629 0.0853 0.3902
O5_15 O 0.4098(4) 0.2460(3) 0.47702(14)
N3_27 N 0.8585(5) 0.9484(5) 0.4238(2)
C8_27 C 0.9149(4) 0.9789(5) 0.4666(2)
C14_27 C 0.8788(7) 0.8917(6) 0.4401(2)
H8_27 H 0.8697 0.8434 0.4337
N1_28 N 0.7465(4) 0.1352(4) 0.19077(15)
C3_28 C 0.6187(5) 0.1254(5) 0.08543(18)
C4_28 C 0.6693(4) 0.1200(5) 0.18342(19)
H1_28 H 0.6398 0.1596 0.1928
N3_28 N 0.8016(5) 0.1085(5) 0.1738(2)
C6_28 C 0.6443(5) 0.0500(4) 0.19758(17)
C7_28 C 0.5725(5) 0.0413(5) 0.2018(2)
H3_28 H 0.5404 0.0798 0.1971
C8_28 C 0.7711(5) 0.1649(4) 0.2166(2)
H4_28 H 0.7412 0.1839 0.2325
C9_28 C 0.6564(4) 0.1217(5) 0.14828(19)
C11_28 C 0.5911(5) 0.1274(6) 0.0528(2)
C13_28 C 0.6176(6) 0.1861(6) 0.1037(2)
H7_28 H 0.6030 0.2309 0.0950
C14_28 C 0.8583(6) 0.1288(7) 0.1901(2)
H8_28 H 0.9066 0.1197 0.1837
C15_28 C 0.6372(6) 0.1836(6) 0.1347(3)
H9_28 H 0.6371 0.2269 0.1465
C16_28 C 0.6344(7) 0.0618(7) 0.0988(3)
H10_28 H 0.6326 0.0188 0.0868
C17_28 C 0.6538(7) 0.0581(7) 0.1308(3)
H11_28 H 0.6647 0.0129 0.1402
O1_28 O 0.6035(3) 0.8079(3) 0.24505(13)
O2_16 O 0.4960(3) 0.8402(4) 0.22702(14)
C1_28 C 0.5917(4) 0.9192(4) 0.21998(16)
C2_28 C 0.5623(5) 0.8512(5) 0.23158(17)
C5_28 C 0.6653(4) 0.9283(5) 0.21630(19)
H2_28 H 0.6977 0.8905 0.2218
C10_28 C 0.6922(4) 0.9936(5) 0.2043(2)
H5_28 H 0.7425 0.9995 0.2008
C12_28 C 0.5456(5) 0.9771(5) 0.2129(2)
H6_28 H 0.4950 0.9718 0.2159
O5_16 O 0.5040(3) 0.6598(4) 0.22702(14)
O1_29 O 0.4421(3) 0.3535(3) 0.49505(13)
N1_29 N 0.1148(4) 0.4965(4) 0.44077(15)
C1_29 C 0.3308(4) 0.3417(4) 0.46998(16)
C2_29 C 0.3988(5) 0.3123(5) 0.48158(17)
C3_29 C 0.1246(5) 0.3687(5) 0.33543(18)
C4_29 C 0.1300(5) 0.4193(4) 0.43342(19)
H1_29 H 0.0904 0.3898 0.4428
N3_29 N 0.1415(5) 0.5516(5) 0.4238(2)
C5_29 C 0.3217(5) 0.4153(4) 0.46630(19)
H2_29 H 0.3595 0.4477 0.4718
C6_29 C 0.2000(4) 0.3943(5) 0.44758(17)
C7_29 C 0.2087(5) 0.3225(5) 0.4518(2)
H3_29 H 0.1702 0.2904 0.4471
C8_29 C 0.0851(4) 0.5211(5) 0.4666(2)
H4_29 H 0.0661 0.4912 0.4825
C9_29 C 0.1283(5) 0.4064(4) 0.39828(19)
C10_29 C 0.2564(5) 0.4422(4) 0.4543(2)
H5_29 H 0.2505 0.4925 0.4508
C11_29 C 0.1226(6) 0.3411(5) 0.3028(2)
C12_29 C 0.2729(5) 0.2956(5) 0.4629(2)
H6_29 H 0.2782 0.2450 0.4659
C13_29 C 0.0639(6) 0.3676(6) 0.3537(2)
H7_29 H 0.0191 0.3530 0.3450
C14_29 C 0.1212(7) 0.6083(6) 0.4401(2)
H8_29 H 0.1303 0.6566 0.4337
C15_29 C 0.0664(6) 0.3872(6) 0.3847(3)
H9_29 H 0.0231 0.3871 0.3965
C16_29 C 0.1882(7) 0.3844(7) 0.3488(3)
H10_29 H 0.2312 0.3826 0.3368
C17_29 C 0.1919(7) 0.4038(7) 0.3808(3)
H11_29 H 0.2371 0.4147 0.3902
O1_30 O 0.3965(3) 0.6921(3) 0.24505(13)
N1_30 N 0.2535(4) 0.3648(4) 0.19077(15)
C1_30 C 0.4083(4) 0.5808(4) 0.21998(16)
C2_30 C 0.4377(5) 0.6488(5) 0.23158(17)
C3_30 C 0.3813(5) 0.3746(5) 0.08543(18)
C4_30 C 0.3307(4) 0.3800(5) 0.18342(19)
H1_30 H 0.3602 0.3404 0.1928
N3_30 N 0.1984(5) 0.3915(5) 0.1738(2)
C5_30 C 0.3347(4) 0.5717(5) 0.21630(19)
H2_30 H 0.3023 0.6095 0.2218
C6_30 C 0.3557(5) 0.4500(4) 0.19758(17)
C7_30 C 0.4275(5) 0.4587(5) 0.2018(2)
H3_30 H 0.4596 0.4202 0.1971
C8_30 C 0.2289(5) 0.3351(4) 0.2166(2)
H4_30 H 0.2588 0.3161 0.2325
C9_30 C 0.3436(4) 0.3783(5) 0.14828(19)
C10_30 C 0.3078(4) 0.5064(5) 0.2043(2)
H5_30 H 0.2575 0.5005 0.2008
C11_30 C 0.4089(5) 0.3726(6) 0.0528(2)
C12_30 C 0.4544(5) 0.5229(5) 0.2129(2)
H6_30 H 0.5050 0.5282 0.2159
C13_30 C 0.3824(6) 0.3139(6) 0.1037(2)
H7_30 H 0.3970 0.2691 0.0950
C14_30 C 0.1417(6) 0.3712(7) 0.1901(2)
H8_30 H 0.0934 0.3803 0.1837
C15_30 C 0.3628(6) 0.3164(6) 0.1347(3)
H9_30 H 0.3629 0.2731 0.1465
C16_30 C 0.3656(7) 0.4382(7) 0.0988(3)
H10_30 H 0.3674 0.4812 0.0868
C17_30 C 0.3462(7) 0.4419(7) 0.1308(3)
H11_30 H 0.3353 0.4871 0.1402
O1_31 O 0.0579(3) 0.6465(3) 0.99505(13)
N1_31 N 0.3852(4) 0.5035(4) 0.94077(15)
C1_31 C 0.1692(4) 0.6583(4) 0.96998(16)
C2_31 C 0.1012(5) 0.6877(5) 0.98158(17)
C3_31 C 0.3754(5) 0.6313(5) 0.83543(18)
C4_31 C 0.3700(5) 0.5807(4) 0.93342(19)
H1_31 H 0.4096 0.6102 0.9428
N3_31 N 0.3585(5) 0.4484(5) 0.9238(2)
C5_31 C 0.1783(5) 0.5847(4) 0.96630(19)
H2_31 H 0.1405 0.5523 0.9718
C6_31 C 0.3000(4) 0.6057(5) 0.94758(17)
C7_31 C 0.2913(5) 0.6775(5) 0.9518(2)
H3_31 H 0.3298 0.7096 0.9471
C8_31 C 0.4149(4) 0.4789(5) 0.9666(2)
H4_31 H 0.4339 0.5088 0.9825
C9_31 C 0.3717(5) 0.5936(4) 0.89828(19)
C10_31 C 0.2436(5) 0.5578(4) 0.9543(2)
H5_31 H 0.2495 0.5075 0.9508
C11_31 C 0.3774(6) 0.6589(5) 0.8028(2)
C12_31 C 0.2271(5) 0.7044(5) 0.9629(2)
H6_31 H 0.2218 0.7550 0.9659
C13_31 C 0.4361(6) 0.6324(6) 0.8537(2)
H7_31 H 0.4809 0.6470 0.8450
C14_31 C 0.3788(7) 0.3917(6) 0.9401(2)
H8_31 H 0.3697 0.3434 0.9337
C15_31 C 0.4336(6) 0.6128(6) 0.8847(3)
H9_31 H 0.4769 0.6129 0.8965
C16_31 C 0.3118(7) 0.6156(7) 0.8488(3)
H10_31 H 0.2688 0.6174 0.8368
C17_31 C 0.3081(7) 0.5962(7) 0.8808(3)
H11_31 H 0.2629 0.5853 0.8902
O1_32 O 0.1035(3) 0.3079(3) 0.74505(13)
N1_32 N 0.2465(4) 0.6352(4) 0.69077(15)
C1_32 C 0.0917(4) 0.4192(4) 0.71998(16)
C2_32 C 0.0623(5) 0.3512(5) 0.73158(17)
C3_32 C 0.1187(5) 0.6254(5) 0.58543(18)
C4_32 C 0.1693(4) 0.6200(5) 0.68342(19)
H1_32 H 0.1398 0.6596 0.6928
N3_32 N 0.3016(5) 0.6085(5) 0.6738(2)
C5_32 C 0.1653(4) 0.4283(5) 0.71630(19)
H2_32 H 0.1977 0.3905 0.7218
C6_32 C 0.1443(5) 0.5500(4) 0.69758(17)
C7_32 C 0.0725(5) 0.5413(5) 0.7018(2)
H3_32 H 0.0404 0.5798 0.6971
C8_32 C 0.2711(5) 0.6649(4) 0.7166(2)
H4_32 H 0.2412 0.6839 0.7325
C9_32 C 0.1564(4) 0.6217(5) 0.64828(19)
C10_32 C 0.1922(4) 0.4936(5) 0.7043(2)
H5_32 H 0.2425 0.4995 0.7008
C11_32 C 0.0911(5) 0.6274(6) 0.5528(2)
C12_32 C 0.0456(5) 0.4771(5) 0.7129(2)
C13_32 C 0.1176(6) 0.6861(6) 0.6037(2)
H7_32 H 0.1030 0.7309 0.5950
C14_32 C 0.3583(6) 0.6288(7) 0.6901(2)
H8_32 H 0.4066 0.6197 0.6837
C15_32 C 0.1372(6) 0.6836(6) 0.6347(3)
H9_32 H 0.1371 0.7269 0.6465
C16_32 C 0.1344(7) 0.5618(7) 0.5988(3)
H10_32 H 0.1326 0.5188 0.5868
C17_32 C 0.1538(7) 0.5581(7) 0.6308(3)
H11_32 H 0.1647 0.5129 0.6402
H6_32 H 0.9950 0.4718 0.7159
loop_
_geom_bond_atom_site_label_1
_geom_bond_atom_site_label_2
_geom_bond_site_symmetry_1
_geom_bond_site_symmetry_2
O1 C2 1_555 1_555
O2 C2 1_555 1_555
O3 C11 1_555 1_555
O4 C11 1_555 1_555
N1 C4 1_555 1_555
C1 C2 1_555 1_555
C3 C11 1_555 1_555
C4 H1 1_555 1_555
C5 C1 1_555 1_555
H2 C5 1_555 1_555
C6 C4 1_555 1_555
C7 C6 1_555 1_555
H3 C7 1_555 1_555
C9 C4 1_555 1_555
C10 C5 1_555 1_555
H5 C10 1_555 1_555
C12 C1 1_555 1_555
H6 C12 1_555 1_555
C13 C3 1_555 1_555
H7 C13 1_555 1_555
C15 C9 1_555 1_555
H9 C15 1_555 1_555
C16 C3 1_555 1_555
H10 C16 1_555 1_555
C17 C9 1_555 1_555
H11 C17 1_555 1_555
Cu2 O2 1_555 1_555
Cu4 O3 1_555 1_555
O4 Cu4 1_555 1_555
C6 C10 1_555 1_555
C7 C12 1_555 1_555
C13 C15 1_555 1_555
C16 C17 1_555 1_555
N2 C8 1_555 1_555
C14 N2 1_555 1_555
H8 C14 1_555 1_555
Cu3 N2 1_555 1_555
N3 C14 1_555 1_555
O5 Cu1 1_555 1_555
N4 Cu1 1_555 1_555
O3_2 C11_2 1_555 1_555
O4_2 C11_2 1_555 1_555
N1_2 C4_2 1_555 1_555
N2_2 C8_2 1_555 1_555
C3_2 C11_2 1_555 1_555
C4_2 H1_2 1_555 1_555
N3_2 N1_2 1_555 1_555
C6_2 C4_2 1_555 1_555
C7_2 C6_2 1_555 1_555
H3_2 C7_2 1_555 1_555
C8_2 N1_2 1_555 1_555
H4_2 C8_2 1_555 1_555
C9_2 C4_2 1_555 1_555
C13_2 C3_2 1_555 1_555
H7_2 C13_2 1_555 1_555
C14_2 N2_2 1_555 1_555
H8_2 C14_2 1_555 1_555
C15_2 C9_2 1_555 1_555
H9_2 C15_2 1_555 1_555
C16_2 C3_2 1_555 1_555
H10_2 C16_2 1_555 1_555
C17_2 C9_2 1_555 1_555
H11_2 C17_2 1_555 1_555
Cu4 N2_2 1_555 1_555
Cu4_2 O3_2 1_555 1_555
O4_2 Cu4_2 1_555 1_555
N3_2 C14_2 1_555 1_555
C13_2 C15_2 1_555 1_555
C16_2 C17_2 1_555 1_555
Cu1_2 O1_2 1_555 1_555
O1_2 C2_2 1_555 1_555
C1_2 C2_2 1_555 1_555
C5_2 C1_2 1_555 1_555
H2_2 C5_2 1_555 1_555
C10_2 C5_2 1_555 1_555
H5_2 C10_2 1_555 1_555
C12_2 C1_2 1_555 1_555
O5_2 Cu1_2 1_555 1_555
O6_2 Cu1_2 1_555 1_555
O7_2 Cu1_2 1_555 1_555
N4_2 Cu1_2 1_555 1_555
Cu2_2 O2_2 1_555 1_555
N2_3 C8_3 1_555 1_555
C14_3 N2_3 1_555 1_555
H8_3 C14_3 1_555 1_555
Cu4_2 N2_3 1_555 1_555
N3_3 C14_3 1_555 1_555
Cu1_3 O1_3 1_555 1_555
O1_3 C2_3 1_555 1_555
O2_3 C2_3 1_555 1_555
O3_3 C11_3 1_555 1_555
O4_3 C11_3 1_555 1_555
N1_3 C4_3 1_555 1_555
C1_3 C2_3 1_555 1_555
C3_3 C11_3 1_555 1_555
C4_3 H1_3 1_555 1_555
C5_3 C1_3 1_555 1_555
H2_3 C5_3 1_555 1_555
C6_3 C4_3 1_555 1_555
C7_3 C6_3 1_555 1_555
H3_3 C7_3 1_555 1_555
C9_3 C4_3 1_555 1_555
C10_3 C5_3 1_555 1_555
H5_3 C10_3 1_555 1_555
C12_3 C1_3 1_555 1_555
H6_3 C12_3 1_555 1_555
C13_3 C3_3 1_555 1_555
H7_3 C13_3 1_555 1_555
C15_3 C9_3 1_555 1_555
H9_3 C15_3 1_555 1_555
C16_3 C3_3 1_555 1_555
H10_3 C16_3 1_555 1_555
C17_3 C9_3 1_555 1_555
H11_3 C17_3 1_555 1_555
Cu2_3 O2_3 1_555 1_555
Cu4_3 O3_3 1_555 1_555
O5_3 Cu1_3 1_555 1_555
O6_3 Cu1_3 1_555 1_555
O7_3 Cu1_3 1_555 1_555
N4_3 Cu1_3 1_555 1_555
O4_3 Cu4_3 1_555 1_555
C6_3 C10_3 1_555 1_555
C7_3 C12_3 1_555 1_555
C13_3 C15_3 1_555 1_555
C16_3 C17_3 1_555 1_555
Cu1_4 O1_4 1_555 1_555
O1_4 C2_4 1_555 1_555
O2_4 C2_4 1_555 1_555
C1_4 C2_4 1_555 1_555
C5_4 C1_4 1_555 1_555
H2_4 C5_4 1_555 1_555
C10_4 C5_4 1_555 1_555
H5_4 C10_4 1_555 1_555
C12_4 C1_4 1_555 1_555
H6_4 C12_4 1_555 1_555
Cu2_4 O2_4 1_555 1_555
O5_4 Cu1_4 1_555 1_555
O6_4 Cu1_4 1_555 1_555
O7_4 Cu1_4 1_555 1_555
N4_4 Cu1_4 1_555 1_555
O3_4 C11_4 1_555 1_555
O4_4 C11_4 1_555 1_555
N1_4 C4_4 1_555 1_555
N2_4 C8_4 1_555 1_555
C3_4 C11_4 1_555 1_555
C4_4 H1_4 1_555 1_555
N3_4 N1_4 1_555 1_555
C6_4 C4_4 1_555 1_555
C7_4 C6_4 1_555 1_555
H3_4 C7_4 1_555 1_555
C8_4 N1_4 1_555 1_555
H4_4 C8_4 1_555 1_555
C9_4 C4_4 1_555 1_555
C13_4 C3_4 1_555 1_555
H7_4 C13_4 1_555 1_555
C14_4 N2_4 1_555 1_555
H8_4 C14_4 1_555 1_555
C15_4 C9_4 1_555 1_555
H9_4 C15_4 1_555 1_555
C16_4 C3_4 1_555 1_555
H10_4 C16_4 1_555 1_555
C17_4 C9_4 1_555 1_555
H11_4 C17_4 1_555 1_555
Cu4_3 N2_4 1_555 1_555
N3_4 C14_4 1_555 1_555
C13_4 C15_4 1_555 1_555
C16_4 C17_4 1_555 1_555
Cu2_3 O1_5 1_555 1_555
O1_5 C2_5 1_555 1_555
O5_3 C2_5 1_555 1_555
O3_5 C11_5 1_555 1_555
O4_5 C11_5 1_555 1_555
N1_5 C4_5 1_555 1_555
N2_5 C8_5 1_555 1_555
C1_5 C2_5 1_555 1_555
C3_5 C11_5 1_555 1_555
C4_5 H1_5 1_555 1_555
N3_5 N1_5 1_555 1_555
C5_5 C1_5 1_555 1_555
H2_5 C5_5 1_555 1_555
C6_5 C4_5 1_555 1_555
C7_5 C6_5 1_555 1_555
H3_5 C7_5 1_555 1_555
C8_5 N1_5 1_555 1_555
H4_5 C8_5 1_555 1_555
C9_5 C4_5 1_555 1_555
C10_5 C5_5 1_555 1_555
H5_5 C10_5 1_555 1_555
C12_5 C1_5 1_555 1_555
H6_5 C12_5 1_555 1_555
C13_5 C3_5 1_555 1_555
H7_5 C13_5 1_555 1_555
C14_5 N2_5 1_555 1_555
H8_5 C14_5 1_555 1_555
C15_5 C9_5 1_555 1_555
H9_5 C15_5 1_555 1_555
C16_5 C3_5 1_555 1_555
H10_5 C16_5 1_555 1_555
C17_5 C9_5 1_555 1_555
H11_5 C17_5 1_555 1_555
Cu3_2 N2_5 1_555 1_555
Cu4_4 O3_5 1_555 1_555
O6_5 Cu2_3 1_555 1_555
O7_5 Cu2_3 1_555 1_555
N4_5 Cu2_3 1_555 1_555
O4_5 Cu4_4 1_555 1_555
N3_5 C14_5 1_555 1_555
C6_5 C10_5 1_555 1_555
C7_5 C12_5 1_555 1_555
C13_5 C15_5 1_555 1_555
C16_5 C17_5 1_555 1_555
Cu2_4 O1_6 1_555 1_555
O1_6 C2_6 1_555 1_555
O5_4 C2_6 1_555 1_555
O3_6 C11_6 1_555 1_555
O4_6 C11_6 1_555 1_555
N1_6 C4_6 1_555 1_555
N2_6 C8_6 1_555 1_555
C1_6 C2_6 1_555 1_555
C3_6 C11_6 1_555 1_555
C4_6 H1_6 1_555 1_555
N3_6 N1_6 1_555 1_555
C5_6 C1_6 1_555 1_555
H2_6 C5_6 1_555 1_555
C6_6 C4_6 1_555 1_555
C7_6 C6_6 1_555 1_555
H3_6 C7_6 1_555 1_555
C8_6 N1_6 1_555 1_555
H4_6 C8_6 1_555 1_555
C9_6 C4_6 1_555 1_555
C10_6 C5_6 1_555 1_555
H5_6 C10_6 1_555 1_555
C12_6 C1_6 1_555 1_555
H6_6 C12_6 1_555 1_555
C13_6 C3_6 1_555 1_555
H7_6 C13_6 1_555 1_555
C14_6 N2_6 1_555 1_555
H8_6 C14_6 1_555 1_555
C15_6 C9_6 1_555 1_555
H9_6 C15_6 1_555 1_555
C16_6 C3_6 1_555 1_555
H10_6 C16_6 1_555 1_555
C17_6 C9_6 1_555 1_555
H11_6 C17_6 1_555 1_555
Cu4_4 N2_6 1_555 1_555
O6_6 Cu2_4 1_555 1_555
O7_6 Cu2_4 1_555 1_555
N4_6 Cu2_4 1_555 1_555
N3_6 C14_6 1_555 1_555
C6_6 C10_6 1_555 1_555
C7_6 C12_6 1_555 1_555
C13_6 C15_6 1_555 1_555
C16_6 C17_6 1_555 1_555
N4_7 Cu2 1_555 1_555
O1_7 C2_7 1_555 1_555
O5 C2_7 1_555 1_555
O3_7 C11_7 1_555 1_555
O4_7 C11_7 1_555 1_555
N1_7 C4_7 1_555 1_555
N2_7 C8_7 1_555 1_555
C1_7 C2_7 1_555 1_555
C3_7 C11_7 1_555 1_555
C4_7 H1_7 1_555 1_555
N3_7 N1_7 1_555 1_555
C5_7 C1_7 1_555 1_555
H2_7 C5_7 1_555 1_555
C6_7 C4_7 1_555 1_555
C7_7 C6_7 1_555 1_555
H3_7 C7_7 1_555 1_555
C8_7 N1_7 1_555 1_555
H4_7 C8_7 1_555 1_555
C9_7 C4_7 1_555 1_555
C10_7 C5_7 1_555 1_555
H5_7 C10_7 1_555 1_555
C12_7 C1_7 1_555 1_555
H6_7 C12_7 1_555 1_555
C13_7 C3_7 1_555 1_555
H7_7 C13_7 1_555 1_555
C14_7 N2_7 1_555 1_555
H8_7 C14_7 1_555 1_555
C15_7 C9_7 1_555 1_555
H9_7 C15_7 1_555 1_555
C16_7 C3_7 1_555 1_555
H10_7 C16_7 1_555 1_555
C17_7 C9_7 1_555 1_555
H11_7 C17_7 1_555 1_555
Cu4_5 N2_7 1_555 1_555
Cu4_6 O3_7 1_555 1_555
O4_7 Cu4_6 1_555 1_555
N3_7 C14_7 1_555 1_555
C6_7 C10_7 1_555 1_555
C7_7 C12_7 1_555 1_555
C13_7 C15_7 1_555 1_555
C16_7 C17_7 1_555 1_555
Cu2_2 O1_8 1_555 1_555
O1_8 C2_8 1_555 1_555
O3_8 C11_8 1_555 1_555
O4_8 C11_8 1_555 1_555
N1_8 C4_8 1_555 1_555
N2_8 C8_8 1_555 1_555
C1_8 C2_8 1_555 1_555
C3_8 C11_8 1_555 1_555
C4_8 H1_8 1_555 1_555
N3_8 N1_8 1_555 1_555
C5_8 C1_8 1_555 1_555
H2_8 C5_8 1_555 1_555
C6_8 C4_8 1_555 1_555
C7_8 C6_8 1_555 1_555
H3_8 C7_8 1_555 1_555
C8_8 N1_8 1_555 1_555
H4_8 C8_8 1_555 1_555
C9_8 C4_8 1_555 1_555
C10_8 C5_8 1_555 1_555
H5_8 C10_8 1_555 1_555
C12_8 C1_8 1_555 1_555
C13_8 C3_8 1_555 1_555
H7_8 C13_8 1_555 1_555
C14_8 N2_8 1_555 1_555
H8_8 C14_8 1_555 1_555
C15_8 C9_8 1_555 1_555
H9_8 C15_8 1_555 1_555
C16_8 C3_8 1_555 1_555
H10_8 C16_8 1_555 1_555
C17_8 C9_8 1_555 1_555
H11_8 C17_8 1_555 1_555
Cu4_6 N2_8 1_555 1_555
Cu3_2 O3_8 1_555 1_555
O6_8 Cu2_2 1_555 1_555
O7_8 Cu2_2 1_555 1_555
N4_8 Cu2_2 1_555 1_555
O4_8 Cu3_2 1_555 1_555
N3_8 C14_8 1_555 1_555
C6_8 C10_8 1_555 1_555
C7_8 C12_8 1_555 1_555
C13_8 C15_8 1_555 1_555
C16_8 C17_8 1_555 1_555
O5_5 Cu4_2 1_555 1_555
O1_9 C2_9 1_555 1_555
O2_5 C2_9 1_555 1_555
O6_6 C11_9 1_555 1_555
O7_6 C11_9 1_555 1_555
N1_9 C4_9 1_555 1_555
C1_9 C2_9 1_555 1_555
C3_9 C11_9 1_555 1_555
C4_9 H1_9 1_555 1_555
C5_9 C1_9 1_555 1_555
H2_9 C5_9 1_555 1_555
C6_9 C4_9 1_555 1_555
C7_9 C6_9 1_555 1_555
H3_9 C7_9 1_555 1_555
C9_9 C4_9 1_555 1_555
C10_9 C5_9 1_555 1_555
H5_9 C10_9 1_555 1_555
C12_9 C1_9 1_555 1_555
H6_9 C12_9 1_555 1_555
C13_9 C3_9 1_555 1_555
H7_9 C13_9 1_555 1_555
C15_9 C9_9 1_555 1_555
H9_9 C15_9 1_555 1_555
C16_9 C3_9 1_555 1_555
H10_9 C16_9 1_555 1_555
C17_9 C9_9 1_555 1_555
H11_9 C17_9 1_555 1_555
Cu3_2 O2_5 1_555 1_555
C6_9 C10_9 1_555 1_555
C7_9 C12_9 1_555 1_555
C13_9 C15_9 1_555 1_555
C16_9 C17_9 1_555 1_555
N4_3 C8_9 1_555 1_555
C14_9 N4_3 1_555 1_555
H8_9 C14_9 1_555 1_555
N3_9 C14_9 1_555 1_555
Cu4_6 O1_10 1_555 1_555
O1_10 C2_10 1_555 1_555
O2_6 C2_10 1_555 1_555
C1_10 C2_10 1_555 1_555
C5_10 C1_10 1_555 1_555
H2_10 C5_10 1_555 1_555
C10_10 C5_10 1_555 1_555
H5_10 C10_10 1_555 1_555
C12_10 C1_10 1_555 1_555
H6_10 C12_10 1_555 1_555
Cu4 O2_6 1_555 1_555
O5_6 Cu4_6 1_555 1_555
O6_3 C11_10 1_555 1_555
O7_3 C11_10 1_555 1_555
N1_10 C4_10 1_555 1_555
N4_8 C8_10 1_555 1_555
C3_10 C11_10 1_555 1_555
C4_10 H1_10 1_555 1_555
N3_10 N1_10 1_555 1_555
C6_10 C4_10 1_555 1_555
C7_10 C6_10 1_555 1_555
H3_10 C7_10 1_555 1_555
C8_10 N1_10 1_555 1_555
H4_10 C8_10 1_555 1_555
C9_10 C4_10 1_555 1_555
C13_10 C3_10 1_555 1_555
H7_10 C13_10 1_555 1_555
C14_10 N4_8 1_555 1_555
H8_10 C14_10 1_555 1_555
C15_10 C9_10 1_555 1_555
H9_10 C15_10 1_555 1_555
C16_10 C3_10 1_555 1_555
H10_10 C16_10 1_555 1_555
C17_10 C9_10 1_555 1_555
H11_10 C17_10 1_555 1_555
N3_10 C14_10 1_555 1_555
C13_10 C15_10 1_555 1_555
C16_10 C17_10 1_555 1_555
N4 C8_11 1_555 1_555
C14_11 N4 1_555 1_555
H8_11 C14_11 1_555 1_555
N3_11 C14_11 1_555 1_555
Cu3 O1_11 1_555 1_555
O1_11 C2_11 1_555 1_555
O2_7 C2_11 1_555 1_555
O6_8 C11_11 1_555 1_555
O7_8 C11_11 1_555 1_555
N1_11 C4_11 1_555 1_555
C1_11 C2_11 1_555 1_555
C3_11 C11_11 1_555 1_555
C4_11 H1_11 1_555 1_555
C5_11 C1_11 1_555 1_555
H2_11 C5_11 1_555 1_555
C6_11 C4_11 1_555 1_555
C7_11 C6_11 1_555 1_555
H3_11 C7_11 1_555 1_555
C9_11 C4_11 1_555 1_555
C10_11 C5_11 1_555 1_555
H5_11 C10_11 1_555 1_555
C12_11 C1_11 1_555 1_555
H6_11 C12_11 1_555 1_555
C13_11 C3_11 1_555 1_555
H7_11 C13_11 1_555 1_555
C15_11 C9_11 1_555 1_555
H9_11 C15_11 1_555 1_555
C16_11 C3_11 1_555 1_555
H10_11 C16_11 1_555 1_555
C17_11 C9_11 1_555 1_555
H11_11 C17_11 1_555 1_555
Cu4_5 O2_7 1_555 1_555
O5_7 Cu3 1_555 1_555
C6_11 C10_11 1_555 1_555
C7_11 C12_11 1_555 1_555
C13_11 C15_11 1_555 1_555
C16_11 C17_11 1_555 1_555
Cu4_3 O2_8 1_555 1_555
O6 C11_12 1_555 1_555
O7 C11_12 1_555 1_555
N1_12 C4_12 1_555 1_555
N4_6 C8_12 1_555 1_555
C3_12 C11_12 1_555 1_555
C4_12 H1_12 1_555 1_555
N3_12 N1_12 1_555 1_555
C6_12 C4_12 1_555 1_555
C7_12 C6_12 1_555 1_555
H3_12 C7_12 1_555 1_555
C8_12 N1_12 1_555 1_555
H4_12 C8_12 1_555 1_555
C9_12 C4_12 1_555 1_555
C13_12 C3_12 1_555 1_555
H7_12 C13_12 1_555 1_555
C14_12 N4_6 1_555 1_555
H8_12 C14_12 1_555 1_555
C15_12 C9_12 1_555 1_555
H9_12 C15_12 1_555 1_555
C16_12 C3_12 1_555 1_555
H10_12 C16_12 1_555 1_555
C17_12 C9_12 1_555 1_555
H11_12 C17_12 1_555 1_555
N3_12 C14_12 1_555 1_555
C13_12 C15_12 1_555 1_555
C16_12 C17_12 1_555 1_555
Cu4_4 O1_12 1_555 1_555
O1_12 C2_12 1_555 1_555
C1_12 C2_12 1_555 1_555
C5_12 C1_12 1_555 1_555
H2_12 C5_12 1_555 1_555
C10_12 C5_12 1_555 1_555
H5_12 C10_12 1_555 1_555
C12_12 C1_12 1_555 1_555
O5_8 Cu4_4 1_555 1_555
Cu4_5 O1_13 1_555 1_555
O1_13 C2_13 1_555 1_555
O5_7 C2_13 1_555 1_555
O6_2 C11_13 1_555 1_555
O7_2 C11_13 1_555 1_555
N1_13 C4_13 1_555 1_555
N4_7 C8_13 1_555 1_555
C1_13 C2_13 1_555 1_555
C3_13 C11_13 1_555 1_555
C4_13 H1_13 1_555 1_555
N3_13 N1_13 1_555 1_555
C5_13 C1_13 1_555 1_555
H2_13 C5_13 1_555 1_555
C6_13 C4_13 1_555 1_555
C7_13 C6_13 1_555 1_555
H3_13 C7_13 1_555 1_555
C8_13 N1_13 1_555 1_555
H4_13 C8_13 1_555 1_555
C9_13 C4_13 1_555 1_555
C10_13 C5_13 1_555 1_555
H5_13 C10_13 1_555 1_555
C12_13 C1_13 1_555 1_555
H6_13 C12_13 1_555 1_555
C13_13 C3_13 1_555 1_555
H7_13 C13_13 1_555 1_555
C14_13 N4_7 1_555 1_555
H8_13 C14_13 1_555 1_555
C15_13 C9_13 1_555 1_555
H9_13 C15_13 1_555 1_555
C16_13 C3_13 1_555 1_555
H10_13 C16_13 1_555 1_555
C17_13 C9_13 1_555 1_555
H11_13 C17_13 1_555 1_555
N3_13 C14_13 1_555 1_555
C6_13 C10_13 1_555 1_555
C7_13 C12_13 1_555 1_555
C13_13 C15_13 1_555 1_555
C16_13 C17_13 1_555 1_555
Cu4_3 O1_14 1_555 1_555
O1_14 C2_14 1_555 1_555
O6_7 C11_14 1_555 1_555
O7_7 C11_14 1_555 1_555
N1_14 C4_14 1_555 1_555
N4_4 C8_14 1_555 1_555
C1_14 C2_14 1_555 1_555
C3_14 C11_14 1_555 1_555
C4_14 H1_14 1_555 1_555
N3_14 N1_14 1_555 1_555
C5_14 C1_14 1_555 1_555
H2_14 C5_14 1_555 1_555
C6_14 C4_14 1_555 1_555
C7_14 C6_14 1_555 1_555
H3_14 C7_14 1_555 1_555
C8_14 N1_14 1_555 1_555
H4_14 C8_14 1_555 1_555
C9_14 C4_14 1_555 1_555
C10_14 C5_14 1_555 1_555
H5_14 C10_14 1_555 1_555
C12_14 C1_14 1_555 1_555
C13_14 C3_14 1_555 1_555
H7_14 C13_14 1_555 1_555
C14_14 N4_4 1_555 1_555
H8_14 C14_14 1_555 1_555
C15_14 C9_14 1_555 1_555
H9_14 C15_14 1_555 1_555
C16_14 C3_14 1_555 1_555
H10_14 C16_14 1_555 1_555
C17_14 C9_14 1_555 1_555
H11_14 C17_14 1_555 1_555
N3_14 C14_14 1_555 1_555
C6_14 C10_14 1_555 1_555
C7_14 C12_14 1_555 1_555
C13_14 C15_14 1_555 1_555
C16_14 C17_14 1_555 1_555
O1_15 C2_15 1_555 1_555
O5_5 C2_15 1_555 1_555
O6_4 C11_15 1_555 1_555
O7_4 C11_15 1_555 1_555
N1_15 C4_15 1_555 1_555
N4_5 C8_15 1_555 1_555
C1_15 C2_15 1_555 1_555
C3_15 C11_15 1_555 1_555
C4_15 H1_15 1_555 1_555
N3_15 N1_15 1_555 1_555
C5_15 C1_15 1_555 1_555
H2_15 C5_15 1_555 1_555
C6_15 C4_15 1_555 1_555
C7_15 C6_15 1_555 1_555
H3_15 C7_15 1_555 1_555
C8_15 N1_15 1_555 1_555
H4_15 C8_15 1_555 1_555
C9_15 C4_15 1_555 1_555
C10_15 C5_15 1_555 1_555
H5_15 C10_15 1_555 1_555
C12_15 C1_15 1_555 1_555
H6_15 C12_15 1_555 1_555
C13_15 C3_15 1_555 1_555
H7_15 C13_15 1_555 1_555
C14_15 N4_5 1_555 1_555
H8_15 C14_15 1_555 1_555
C15_15 C9_15 1_555 1_555
H9_15 C15_15 1_555 1_555
C16_15 C3_15 1_555 1_555
H10_15 C16_15 1_555 1_555
C17_15 C9_15 1_555 1_555
H11_15 C17_15 1_555 1_555
N3_15 C14_15 1_555 1_555
C6_15 C10_15 1_555 1_555
C7_15 C12_15 1_555 1_555
C13_15 C15_15 1_555 1_555
C16_15 C17_15 1_555 1_555
Cu4 O1_16 1_555 1_555
O1_16 C2_16 1_555 1_555
O5_6 C2_16 1_555 1_555
O6_5 C11_16 1_555 1_555
O7_5 C11_16 1_555 1_555
N1_16 C4_16 1_555 1_555
N4_2 C8_16 1_555 1_555
C1_16 C2_16 1_555 1_555
C3_16 C11_16 1_555 1_555
C4_16 H1_16 1_555 1_555
N3_16 N1_16 1_555 1_555
C5_16 C1_16 1_555 1_555
H2_16 C5_16 1_555 1_555
C6_16 C4_16 1_555 1_555
C7_16 C6_16 1_555 1_555
H3_16 C7_16 1_555 1_555
C8_16 N1_16 1_555 1_555
H4_16 C8_16 1_555 1_555
C9_16 C4_16 1_555 1_555
C10_16 C5_16 1_555 1_555
H5_16 C10_16 1_555 1_555
C12_16 C1_16 1_555 1_555
H6_16 C12_16 1_555 1_555
C13_16 C3_16 1_555 1_555
H7_16 C13_16 1_555 1_555
C14_16 N4_2 1_555 1_555
H8_16 C14_16 1_555 1_555
C15_16 C9_16 1_555 1_555
H9_16 C15_16 1_555 1_555
C16_16 C3_16 1_555 1_555
H10_16 C16_16 1_555 1_555
C17_16 C9_16 1_555 1_555
H11_16 C17_16 1_555 1_555
N3_16 C14_16 1_555 1_555
C6_16 C10_16 1_555 1_555
C7_16 C12_16 1_555 1_555
C13_16 C15_16 1_555 1_555
C16_16 C17_16 1_555 1_555
N2_9 C8_17 1_555 1_555
C14_17 N2_9 1_555 1_555
H8_17 C14_17 1_555 1_555
Cu3_3 N2_9 1_555 1_555
N3_17 C14_17 1_555 1_555
O1_17 C2_17 1_555 1_555
O2_9 C2_17 1_555 1_555
O3_9 C11_17 1_555 1_555
O4_9 C11_17 1_555 1_555
N1_17 C4_17 1_555 1_555
C1_17 C2_17 1_555 1_555
C3_17 C11_17 1_555 1_555
C4_17 H1_17 1_555 1_555
C5_17 C1_17 1_555 1_555
H2_17 C5_17 1_555 1_555
C6_17 C4_17 1_555 1_555
C7_17 C6_17 1_555 1_555
H3_17 C7_17 1_555 1_555
C9_17 C4_17 1_555 1_555
C10_17 C5_17 1_555 1_555
H5_17 C10_17 1_555 1_555
C12_17 C1_17 1_555 1_555
H6_17 C12_17 1_555 1_555
C13_17 C3_17 1_555 1_555
H7_17 C13_17 1_555 1_555
C15_17 C9_17 1_555 1_555
H9_17 C15_17 1_555 1_555
C16_17 C3_17 1_555 1_555
H10_17 C16_17 1_555 1_555
C17_17 C9_17 1_555 1_555
H11_17 C17_17 1_555 1_555
Cu2_5 O2_9 1_555 1_555
Cu4_7 O3_9 1_555 1_555
O4_9 Cu4_7 1_555 1_555
C6_17 C10_17 1_555 1_555
C7_17 C12_17 1_555 1_555
C13_17 C15_17 1_555 1_555
C16_17 C17_17 1_555 1_555
O5_9 Cu1_5 1_555 1_555
O6_9 Cu1_5 1_555 1_555
O7_9 Cu1_5 1_555 1_555
N4_9 Cu1_5 1_555 1_555
O3_10 C11_18 1_555 1_555
O4_10 C11_18 1_555 1_555
N1_18 C4_18 1_555 1_555
N2_10 C8_18 1_555 1_555
C3_18 C11_18 1_555 1_555
C4_18 H1_18 1_555 1_555
N3_18 N1_18 1_555 1_555
C6_18 C4_18 1_555 1_555
C7_18 C6_18 1_555 1_555
H3_18 C7_18 1_555 1_555
C8_18 N1_18 1_555 1_555
H4_18 C8_18 1_555 1_555
C9_18 C4_18 1_555 1_555
C13_18 C3_18 1_555 1_555
H7_18 C13_18 1_555 1_555
C14_18 N2_10 1_555 1_555
H8_18 C14_18 1_555 1_555
C15_18 C9_18 1_555 1_555
H9_18 C15_18 1_555 1_555
C16_18 C3_18 1_555 1_555
H10_18 C16_18 1_555 1_555
C17_18 C9_18 1_555 1_555
H11_18 C17_18 1_555 1_555
Cu3_4 N2_10 1_555 1_555
Cu3_3 O3_10 1_555 1_555
O4_10 Cu3_3 1_555 1_555
N3_18 C14_18 1_555 1_555
C13_18 C15_18 1_555 1_555
C16_18 C17_18 1_555 1_555
Cu1_6 O1_18 1_555 1_555
O1_18 C2_18 1_555 1_555
O2_10 C2_18 1_555 1_555
C1_18 C2_18 1_555 1_555
C5_18 C1_18 1_555 1_555
H2_18 C5_18 1_555 1_555
C10_18 C5_18 1_555 1_555
H5_18 C10_18 1_555 1_555
C12_18 C1_18 1_555 1_555
H6_18 C12_18 1_555 1_555
Cu2_6 O2_10 1_555 1_555
O5_10 Cu1_6 1_555 1_555
O6_10 Cu1_6 1_555 1_555
O7_10 Cu1_6 1_555 1_555
N4_10 Cu1_6 1_555 1_555
Cu1_7 O1_19 1_555 1_555
O1_19 C2_19 1_555 1_555
O2_11 C2_19 1_555 1_555
O3_11 C11_19 1_555 1_555
O4_11 C11_19 1_555 1_555
N1_19 C4_19 1_555 1_555
C1_19 C2_19 1_555 1_555
C3_19 C11_19 1_555 1_555
C4_19 H1_19 1_555 1_555
C5_19 C1_19 1_555 1_555
H2_19 C5_19 1_555 1_555
C6_19 C4_19 1_555 1_555
C7_19 C6_19 1_555 1_555
H3_19 C7_19 1_555 1_555
C9_19 C4_19 1_555 1_555
C10_19 C5_19 1_555 1_555
H5_19 C10_19 1_555 1_555
C12_19 C1_19 1_555 1_555
H6_19 C12_19 1_555 1_555
C13_19 C3_19 1_555 1_555
H7_19 C13_19 1_555 1_555
C15_19 C9_19 1_555 1_555
H9_19 C15_19 1_555 1_555
C16_19 C3_19 1_555 1_555
H10_19 C16_19 1_555 1_555
C17_19 C9_19 1_555 1_555
H11_19 C17_19 1_555 1_555
Cu2_7 O2_11 1_555 1_555
Cu3_4 O3_11 1_555 1_555
O5_11 Cu1_7 1_555 1_555
N4_11 Cu1_7 1_555 1_555
O4_11 Cu3_4 1_555 1_555
C6_19 C10_19 1_555 1_555
C7_19 C12_19 1_555 1_555
C13_19 C15_19 1_555 1_555
C16_19 C17_19 1_555 1_555
N2_11 C8_19 1_555 1_555
C14_19 N2_11 1_555 1_555
H8_19 C14_19 1_555 1_555
Cu3_5 N2_11 1_555 1_555
N3_19 C14_19 1_555 1_555
Cu1_8 O1_20 1_555 1_555
O1_20 C2_20 1_555 1_555
C1_20 C2_20 1_555 1_555
C5_20 C1_20 1_555 1_555
H2_20 C5_20 1_555 1_555
C10_20 C5_20 1_555 1_555
H5_20 C10_20 1_555 1_555
C12_20 C1_20 1_555 1_555
O5_12 Cu1_8 1_555 1_555
O6_12 Cu1_8 1_555 1_555
O7_12 Cu1_8 1_555 1_555
N4_12 Cu1_8 1_555 1_555
O3_12 C11_20 1_555 1_555
O4_12 C11_20 1_555 1_555
N1_20 C4_20 1_555 1_555
N2_12 C8_20 1_555 1_555
C3_20 C11_20 1_555 1_555
C4_20 H1_20 1_555 1_555
N3_20 N1_20 1_555 1_555
C6_20 C4_20 1_555 1_555
C7_20 C6_20 1_555 1_555
H3_20 C7_20 1_555 1_555
C8_20 N1_20 1_555 1_555
H4_20 C8_20 1_555 1_555
C9_20 C4_20 1_555 1_555
C13_20 C3_20 1_555 1_555
H7_20 C13_20 1_555 1_555
C14_20 N2_12 1_555 1_555
H8_20 C14_20 1_555 1_555
C15_20 C9_20 1_555 1_555
H9_20 C15_20 1_555 1_555
C16_20 C3_20 1_555 1_555
H10_20 C16_20 1_555 1_555
C17_20 C9_20 1_555 1_555
H11_20 C17_20 1_555 1_555
Cu4_7 N2_12 1_555 1_555
N3_20 C14_20 1_555 1_555
C13_20 C15_20 1_555 1_555
C16_20 C17_20 1_555 1_555
Cu2_8 O2_12 1_555 1_555
Cu2_7 O1_21 1_555 1_555
O1_21 C2_21 1_555 1_555
O5_11 C2_21 1_555 1_555
O3_13 C11_21 1_555 1_555
O4_13 C11_21 1_555 1_555
N1_21 C4_21 1_555 1_555
N2_13 C8_21 1_555 1_555
C1_21 C2_21 1_555 1_555
C3_21 C11_21 1_555 1_555
C4_21 H1_21 1_555 1_555
N3_21 N1_21 1_555 1_555
C5_21 C1_21 1_555 1_555
H2_21 C5_21 1_555 1_555
C6_21 C4_21 1_555 1_555
C7_21 C6_21 1_555 1_555
H3_21 C7_21 1_555 1_555
C8_21 N1_21 1_555 1_555
H4_21 C8_21 1_555 1_555
C9_21 C4_21 1_555 1_555
C10_21 C5_21 1_555 1_555
H5_21 C10_21 1_555 1_555
C12_21 C1_21 1_555 1_555
H6_21 C12_21 1_555 1_555
C13_21 C3_21 1_555 1_555
H7_21 C13_21 1_555 1_555
C14_21 N2_13 1_555 1_555
H8_21 C14_21 1_555 1_555
C15_21 C9_21 1_555 1_555
H9_21 C15_21 1_555 1_555
C16_21 C3_21 1_555 1_555
H10_21 C16_21 1_555 1_555
C17_21 C9_21 1_555 1_555
H11_21 C17_21 1_555 1_555
Cu3_6 N2_13 1_555 1_555
Cu4_8 O3_13 1_555 1_555
N4_13 Cu2_7 1_555 1_555
O4_13 Cu4_8 1_555 1_555
N3_21 C14_21 1_555 1_555
C6_21 C10_21 1_555 1_555
C7_21 C12_21 1_555 1_555
C13_21 C15_21 1_555 1_555
C16_21 C17_21 1_555 1_555
Cu2_8 O1_22 1_555 1_555
O1_22 C2_22 1_555 1_555
O3_14 C11_22 1_555 1_555
O4_14 C11_22 1_555 1_555
N1_22 C4_22 1_555 1_555
N2_14 C8_22 1_555 1_555
C1_22 C2_22 1_555 1_555
C3_22 C11_22 1_555 1_555
C4_22 H1_22 1_555 1_555
N3_22 N1_22 1_555 1_555
C5_22 C1_22 1_555 1_555
H2_22 C5_22 1_555 1_555
C6_22 C4_22 1_555 1_555
C7_22 C6_22 1_555 1_555
H3_22 C7_22 1_555 1_555
C8_22 N1_22 1_555 1_555
H4_22 C8_22 1_555 1_555
C9_22 C4_22 1_555 1_555
C10_22 C5_22 1_555 1_555
H5_22 C10_22 1_555 1_555
C12_22 C1_22 1_555 1_555
C13_22 C3_22 1_555 1_555
H7_22 C13_22 1_555 1_555
C14_22 N2_14 1_555 1_555
H8_22 C14_22 1_555 1_555
C15_22 C9_22 1_555 1_555
H9_22 C15_22 1_555 1_555
C16_22 C3_22 1_555 1_555
H10_22 C16_22 1_555 1_555
C17_22 C9_22 1_555 1_555
H11_22 C17_22 1_555 1_555
Cu3_7 N2_14 1_555 1_555
O6_14 Cu2_8 1_555 1_555
O7_14 Cu2_8 1_555 1_555
N4_14 Cu2_8 1_555 1_555
N3_22 C14_22 1_555 1_555
C6_22 C10_22 1_555 1_555
C7_22 C12_22 1_555 1_555
C13_22 C15_22 1_555 1_555
C16_22 C17_22 1_555 1_555
O6_15 Cu2_5 1_555 1_555
O7_15 Cu2_5 1_555 1_555
N4_15 Cu2_5 1_555 1_555
O1_23 C2_23 1_555 1_555
O5_9 C2_23 1_555 1_555
O3_15 C11_23 1_555 1_555
O4_15 C11_23 1_555 1_555
N1_23 C4_23 1_555 1_555
N2_15 C8_23 1_555 1_555
C1_23 C2_23 1_555 1_555
C3_23 C11_23 1_555 1_555
C4_23 H1_23 1_555 1_555
N3_23 N1_23 1_555 1_555
C5_23 C1_23 1_555 1_555
H2_23 C5_23 1_555 1_555
C6_23 C4_23 1_555 1_555
C7_23 C6_23 1_555 1_555
H3_23 C7_23 1_555 1_555
C8_23 N1_23 1_555 1_555
H4_23 C8_23 1_555 1_555
C9_23 C4_23 1_555 1_555
C10_23 C5_23 1_555 1_555
H5_23 C10_23 1_555 1_555
C12_23 C1_23 1_555 1_555
H6_23 C12_23 1_555 1_555
C13_23 C3_23 1_555 1_555
H7_23 C13_23 1_555 1_555
C14_23 N2_15 1_555 1_555
H8_23 C14_23 1_555 1_555
C15_23 C9_23 1_555 1_555
H9_23 C15_23 1_555 1_555
C16_23 C3_23 1_555 1_555
H10_23 C16_23 1_555 1_555
C17_23 C9_23 1_555 1_555
H11_23 C17_23 1_555 1_555
Cu3_8 N2_15 1_555 1_555
Cu3_7 O3_15 1_555 1_555
O4_15 Cu3_7 1_555 1_555
N3_23 C14_23 1_555 1_555
C6_23 C10_23 1_555 1_555
C7_23 C12_23 1_555 1_555
C13_23 C15_23 1_555 1_555
C16_23 C17_23 1_555 1_555
Cu2_6 O1_24 1_555 1_555
O1_24 C2_24 1_555 1_555
O5_10 C2_24 1_555 1_555
O3_16 C11_24 1_555 1_555
O4_16 C11_24 1_555 1_555
N1_24 C4_24 1_555 1_555
N2_16 C8_24 1_555 1_555
C1_24 C2_24 1_555 1_555
C3_24 C11_24 1_555 1_555
C4_24 H1_24 1_555 1_555
N3_24 N1_24 1_555 1_555
C5_24 C1_24 1_555 1_555
H2_24 C5_24 1_555 1_555
C6_24 C4_24 1_555 1_555
C7_24 C6_24 1_555 1_555
H3_24 C7_24 1_555 1_555
C8_24 N1_24 1_555 1_555
H4_24 C8_24 1_555 1_555
C9_24 C4_24 1_555 1_555
C10_24 C5_24 1_555 1_555
H5_24 C10_24 1_555 1_555
C12_24 C1_24 1_555 1_555
H6_24 C12_24 1_555 1_555
C13_24 C3_24 1_555 1_555
H7_24 C13_24 1_555 1_555
C14_24 N2_16 1_555 1_555
H8_24 C14_24 1_555 1_555
C15_24 C9_24 1_555 1_555
H9_24 C15_24 1_555 1_555
C16_24 C3_24 1_555 1_555
H10_24 C16_24 1_555 1_555
C17_24 C9_24 1_555 1_555
H11_24 C17_24 1_555 1_555
Cu4_8 N2_16 1_555 1_555
Cu3_8 O3_16 1_555 1_555
O6_16 Cu2_6 1_555 1_555
O7_16 Cu2_6 1_555 1_555
N4_16 Cu2_6 1_555 1_555
O4_16 Cu3_8 1_555 1_555
N3_24 C14_24 1_555 1_555
C6_24 C10_24 1_555 1_555
C7_24 C12_24 1_555 1_555
C13_24 C15_24 1_555 1_555
C16_24 C17_24 1_555 1_555
O5_13 Cu3_5 1_555 1_555
N4_11 C8_25 1_555 1_555
C14_25 N4_11 1_555 1_555
H8_25 C14_25 1_555 1_555
N3_25 C14_25 1_555 1_555
O1_25 C2_25 1_555 1_555
O2_13 C2_25 1_555 1_555
O6_16 C11_25 1_555 1_555
O7_16 C11_25 1_555 1_555
N1_25 C4_25 1_555 1_555
C1_25 C2_25 1_555 1_555
C3_25 C11_25 1_555 1_555
C4_25 H1_25 1_555 1_555
C5_25 C1_25 1_555 1_555
H2_25 C5_25 1_555 1_555
C6_25 C4_25 1_555 1_555
C7_25 C6_25 1_555 1_555
H3_25 C7_25 1_555 1_555
C9_25 C4_25 1_555 1_555
C10_25 C5_25 1_555 1_555
H5_25 C10_25 1_555 1_555
C12_25 C1_25 1_555 1_555
H6_25 C12_25 1_555 1_555
C13_25 C3_25 1_555 1_555
H7_25 C13_25 1_555 1_555
C15_25 C9_25 1_555 1_555
H9_25 C15_25 1_555 1_555
C16_25 C3_25 1_555 1_555
H10_25 C16_25 1_555 1_555
C17_25 C9_25 1_555 1_555
H11_25 C17_25 1_555 1_555
Cu3_6 O2_13 1_555 1_555
C6_25 C10_25 1_555 1_555
C7_25 C12_25 1_555 1_555
C13_25 C15_25 1_555 1_555
C16_25 C17_25 1_555 1_555
Cu3_4 O2_14 1_555 1_555
Cu4_8 O1_26 1_555 1_555
O1_26 C2_26 1_555 1_555
C1_26 C2_26 1_555 1_555
C5_26 C1_26 1_555 1_555
H2_26 C5_26 1_555 1_555
C10_26 C5_26 1_555 1_555
H5_26 C10_26 1_555 1_555
C12_26 C1_26 1_555 1_555
O5_14 Cu4_8 1_555 1_555
O6_9 C11_26 1_555 1_555
O7_9 C11_26 1_555 1_555
N1_26 C4_26 1_555 1_555
N4_16 C8_26 1_555 1_555
C3_26 C11_26 1_555 1_555
C4_26 H1_26 1_555 1_555
N3_26 N1_26 1_555 1_555
C6_26 C4_26 1_555 1_555
C7_26 C6_26 1_555 1_555
H3_26 C7_26 1_555 1_555
C8_26 N1_26 1_555 1_555
H4_26 C8_26 1_555 1_555
C9_26 C4_26 1_555 1_555
C13_26 C3_26 1_555 1_555
H7_26 C13_26 1_555 1_555
C14_26 N4_16 1_555 1_555
H8_26 C14_26 1_555 1_555
C15_26 C9_26 1_555 1_555
H9_26 C15_26 1_555 1_555
C16_26 C3_26 1_555 1_555
H10_26 C16_26 1_555 1_555
C17_26 C9_26 1_555 1_555
H11_26 C17_26 1_555 1_555
N3_26 C14_26 1_555 1_555
C13_26 C15_26 1_555 1_555
C16_26 C17_26 1_555 1_555
Cu3_3 O1_27 1_555 1_555
O1_27 C2_27 1_555 1_555
O2_15 C2_27 1_555 1_555
O6_14 C11_27 1_555 1_555
O7_14 C11_27 1_555 1_555
N1_27 C4_27 1_555 1_555
C1_27 C2_27 1_555 1_555
C3_27 C11_27 1_555 1_555
C4_27 H1_27 1_555 1_555
C5_27 C1_27 1_555 1_555
H2_27 C5_27 1_555 1_555
C6_27 C4_27 1_555 1_555
C7_27 C6_27 1_555 1_555
H3_27 C7_27 1_555 1_555
C9_27 C4_27 1_555 1_555
C10_27 C5_27 1_555 1_555
H5_27 C10_27 1_555 1_555
C12_27 C1_27 1_555 1_555
H6_27 C12_27 1_555 1_555
C13_27 C3_27 1_555 1_555
H7_27 C13_27 1_555 1_555
C15_27 C9_27 1_555 1_555
H9_27 C15_27 1_555 1_555
C16_27 C3_27 1_555 1_555
H10_27 C16_27 1_555 1_555
C17_27 C9_27 1_555 1_555
H11_27 C17_27 1_555 1_555
Cu3_8 O2_15 1_555 1_555
O5_15 Cu3_3 1_555 1_555
C6_27 C10_27 1_555 1_555
C7_27 C12_27 1_555 1_555
C13_27 C15_27 1_555 1_555
C16_27 C17_27 1_555 1_555
N4_9 C8_27 1_555 1_555
C14_27 N4_9 1_555 1_555
H8_27 C14_27 1_555 1_555
N3_27 C14_27 1_555 1_555
O6_11 C11_28 1_555 1_555
O7_11 C11_28 1_555 1_555
N1_28 C4_28 1_555 1_555
N4_14 C8_28 1_555 1_555
C3_28 C11_28 1_555 1_555
C4_28 H1_28 1_555 1_555
N3_28 N1_28 1_555 1_555
C6_28 C4_28 1_555 1_555
C7_28 C6_28 1_555 1_555
H3_28 C7_28 1_555 1_555
C8_28 N1_28 1_555 1_555
H4_28 C8_28 1_555 1_555
C9_28 C4_28 1_555 1_555
C13_28 C3_28 1_555 1_555
H7_28 C13_28 1_555 1_555
C14_28 N4_14 1_555 1_555
H8_28 C14_28 1_555 1_555
C15_28 C9_28 1_555 1_555
H9_28 C15_28 1_555 1_555
C16_28 C3_28 1_555 1_555
H10_28 C16_28 1_555 1_555
C17_28 C9_28 1_555 1_555
H11_28 C17_28 1_555 1_555
N3_28 C14_28 1_555 1_555
C13_28 C15_28 1_555 1_555
C16_28 C17_28 1_555 1_555
Cu3_7 O1_28 1_555 1_555
O1_28 C2_28 1_555 1_555
O2_16 C2_28 1_555 1_555
C1_28 C2_28 1_555 1_555
C5_28 C1_28 1_555 1_555
H2_28 C5_28 1_555 1_555
C10_28 C5_28 1_555 1_555
H5_28 C10_28 1_555 1_555
C12_28 C1_28 1_555 1_555
H6_28 C12_28 1_555 1_555
Cu4_7 O2_16 1_555 1_555
O5_16 Cu3_7 1_555 1_555
Cu3_8 O1_29 1_555 1_555
O1_29 C2_29 1_555 1_555
O5_15 C2_29 1_555 1_555
O6_12 C11_29 1_555 1_555
O7_12 C11_29 1_555 1_555
N1_29 C4_29 1_555 1_555
N4_15 C8_29 1_555 1_555
C1_29 C2_29 1_555 1_555
C3_29 C11_29 1_555 1_555
C4_29 H1_29 1_555 1_555
N3_29 N1_29 1_555 1_555
C5_29 C1_29 1_555 1_555
H2_29 C5_29 1_555 1_555
C6_29 C4_29 1_555 1_555
C7_29 C6_29 1_555 1_555
H3_29 C7_29 1_555 1_555
C8_29 N1_29 1_555 1_555
H4_29 C8_29 1_555 1_555
C9_29 C4_29 1_555 1_555
C10_29 C5_29 1_555 1_555
H5_29 C10_29 1_555 1_555
C12_29 C1_29 1_555 1_555
H6_29 C12_29 1_555 1_555
C13_29 C3_29 1_555 1_555
H7_29 C13_29 1_555 1_555
C14_29 N4_15 1_555 1_555
H8_29 C14_29 1_555 1_555
C15_29 C9_29 1_555 1_555
H9_29 C15_29 1_555 1_555
C16_29 C3_29 1_555 1_555
H10_29 C16_29 1_555 1_555
C17_29 C9_29 1_555 1_555
H11_29 C17_29 1_555 1_555
N3_29 C14_29 1_555 1_555
C6_29 C10_29 1_555 1_555
C7_29 C12_29 1_555 1_555
C13_29 C15_29 1_555 1_555
C16_29 C17_29 1_555 1_555
Cu4_7 O1_30 1_555 1_555
O1_30 C2_30 1_555 1_555
O5_16 C2_30 1_555 1_555
O6_13 C11_30 1_555 1_555
O7_13 C11_30 1_555 1_555
N1_30 C4_30 1_555 1_555
N4_12 C8_30 1_555 1_555
C1_30 C2_30 1_555 1_555
C3_30 C11_30 1_555 1_555
C4_30 H1_30 1_555 1_555
N3_30 N1_30 1_555 1_555
C5_30 C1_30 1_555 1_555
H2_30 C5_30 1_555 1_555
C6_30 C4_30 1_555 1_555
C7_30 C6_30 1_555 1_555
H3_30 C7_30 1_555 1_555
C8_30 N1_30 1_555 1_555
H4_30 C8_30 1_555 1_555
C9_30 C4_30 1_555 1_555
C10_30 C5_30 1_555 1_555
H5_30 C10_30 1_555 1_555
C12_30 C1_30 1_555 1_555
H6_30 C12_30 1_555 1_555
C13_30 C3_30 1_555 1_555
H7_30 C13_30 1_555 1_555
C14_30 N4_12 1_555 1_555
H8_30 C14_30 1_555 1_555
C15_30 C9_30 1_555 1_555
H9_30 C15_30 1_555 1_555
C16_30 C3_30 1_555 1_555
H10_30 C16_30 1_555 1_555
C17_30 C9_30 1_555 1_555
H11_30 C17_30 1_555 1_555
N3_30 C14_30 1_555 1_555
C6_30 C10_30 1_555 1_555
C7_30 C12_30 1_555 1_555
C13_30 C15_30 1_555 1_555
C16_30 C17_30 1_555 1_555
O1_31 C2_31 1_555 1_555
O5_13 C2_31 1_555 1_555
O6_10 C11_31 1_555 1_555
O7_10 C11_31 1_555 1_555
N1_31 C4_31 1_555 1_555
N4_13 C8_31 1_555 1_555
C1_31 C2_31 1_555 1_555
C3_31 C11_31 1_555 1_555
C4_31 H1_31 1_555 1_555
N3_31 N1_31 1_555 1_555
C5_31 C1_31 1_555 1_555
H2_31 C5_31 1_555 1_555
C6_31 C4_31 1_555 1_555
C7_31 C6_31 1_555 1_555
H3_31 C7_31 1_555 1_555
C8_31 N1_31 1_555 1_555
H4_31 C8_31 1_555 1_555
C9_31 C4_31 1_555 1_555
C10_31 C5_31 1_555 1_555
H5_31 C10_31 1_555 1_555
C12_31 C1_31 1_555 1_555
H6_31 C12_31 1_555 1_555
C13_31 C3_31 1_555 1_555
H7_31 C13_31 1_555 1_555
C14_31 N4_13 1_555 1_555
H8_31 C14_31 1_555 1_555
C15_31 C9_31 1_555 1_555
H9_31 C15_31 1_555 1_555
C16_31 C3_31 1_555 1_555
H10_31 C16_31 1_555 1_555
C17_31 C9_31 1_555 1_555
H11_31 C17_31 1_555 1_555
N3_31 C14_31 1_555 1_555
C6_31 C10_31 1_555 1_555
C7_31 C12_31 1_555 1_555
C13_31 C15_31 1_555 1_555
C16_31 C17_31 1_555 1_555
Cu3_4 O1_32 1_555 1_555
O1_32 C2_32 1_555 1_555
O6_15 C11_32 1_555 1_555
O7_15 C11_32 1_555 1_555
N1_32 C4_32 1_555 1_555
N4_10 C8_32 1_555 1_555
C1_32 C2_32 1_555 1_555
C3_32 C11_32 1_555 1_555
C4_32 H1_32 1_555 1_555
N3_32 N1_32 1_555 1_555
C5_32 C1_32 1_555 1_555
H2_32 C5_32 1_555 1_555
C6_32 C4_32 1_555 1_555
C7_32 C6_32 1_555 1_555
H3_32 C7_32 1_555 1_555
C8_32 N1_32 1_555 1_555
H4_32 C8_32 1_555 1_555
C9_32 C4_32 1_555 1_555
C10_32 C5_32 1_555 1_555
H5_32 C10_32 1_555 1_555
C12_32 C1_32 1_555 1_555
C13_32 C3_32 1_555 1_555
H7_32 C13_32 1_555 1_555
C14_32 N4_10 1_555 1_555
H8_32 C14_32 1_555 1_555
C15_32 C9_32 1_555 1_555
H9_32 C15_32 1_555 1_555
C16_32 C3_32 1_555 1_555
H10_32 C16_32 1_555 1_555
C17_32 C9_32 1_555 1_555
H11_32 C17_32 1_555 1_555
N3_32 C14_32 1_555 1_555
C6_32 C10_32 1_555 1_555
C7_32 C12_32 1_555 1_555
C13_32 C15_32 1_555 1_555
C16_32 C17_32 1_555 1_555

#END
