
###############################################################################
#
# This file contains modified crystal structure data generated from the
# MOF subset of the Cambridge Structural Database (CSD) v543 
# hosted by the Cambridge Crystallographic Data Centre (CCDC).
#
# This work is licensed under the Creative Commons
# Attribution-NonCommercial-ShareAlike 4.0 International License.
# To view a copy of this license, visit
# http://creativecommons.org/licenses/by-nc-sa/4.0/
# or send a letter to
# Creative Commons, PO Box 1866, Mountain View, CA 94042, USA.
#
# CIF created using the CSD Python API on 29 September 2022
# The structure has been converted into the P1 space group
# The structure has a 3D framework
# The original CSD entry VOFXAS is in the tetragonal crystal system
# The framework has been calculated to contain at least 10.0% void space
# The void calculation uses a probe of radius 1.32A, grid spacing 0.4
#
###############################################################################

data_VOFXAS
_chemical_formula_moiety         '(C544 H352 Co24 N96 O120)n'
_symmetry_cell_setting           triclinic
_symmetry_space_group_name_H-M   'P 1'
_symmetry_Int_Tables_number      1
_space_group_name_Hall           'P 1'
loop_
_symmetry_equiv_pos_site_id
_symmetry_equiv_pos_as_xyz
1 x,y,z
_cell_length_a                   18.5190(15)
_cell_length_b                   18.5190(15)
_cell_length_c                   43.075(4)
_cell_angle_alpha                90
_cell_angle_beta                 90
_cell_angle_gamma                90
_cell_volume                     14772.7
loop_
_atom_site_label
_atom_site_type_symbol
_atom_site_fract_x
_atom_site_fract_y
_atom_site_fract_z
O2 O 0.0037(3) 0.3397(3) 0.72641(13)
H6 H 0.0047 0.4704 0.7150
Co3 Co 0.08751(5) 0.29768(5) 0.74813(2)
O5 O 0.0565(3) 0.6470(3) 0.49408(11)
Co1 Co 0.95232(5) 0.66249(5) 0.49813(2)
O1 O 0.8970(3) 0.3065(3) 0.74408(11)
N1 N 0.7537(3) 0.6343(4) 0.69052(13)
C1 C 0.9376(4) 0.3499(4) 0.73105(16)
N2 N 0.6593(3) 0.6634(4) 0.71607(14)
C2 C 0.8345(4) 0.4274(4) 0.71566(17)
H1 H 0.8018 0.3896 0.7207
C3 C 0.9079(4) 0.4182(4) 0.71945(15)
C4 C 0.8562(4) 0.5497(4) 0.69705(16)
O3 O 0.9156(4) 0.6860(4) 0.53980(17)
C5 C 0.8825(4) 0.6263(5) 0.58529(18)
C6 C 0.8315(4) 0.6197(5) 0.68333(17)
H2 H 0.8607 0.6590 0.6931
C7 C 0.8088(4) 0.4935(4) 0.70426(19)
H3 H 0.7584 0.5001 0.7014
C8 C 0.7289(4) 0.6642(4) 0.71612(18)
H4 H 0.7580 0.6836 0.7323
C9 C 0.9283(5) 0.5403(5) 0.7014(2)
H5 H 0.9608 0.5785 0.6968
N3 N 0.7008(4) 0.6090(5) 0.67309(18)
C10 C 0.8450(4) 0.6226(5) 0.64819(18)
O4 O 0.9320(5) 0.5733(5) 0.53852(17)
C11 C 0.9542(5) 0.4762(4) 0.71223(19)
C12 C 0.9097(5) 0.6277(5) 0.5521(2)
C13 C 0.8829(8) 0.6847(5) 0.6037(2)
H7 H 0.8967 0.7297 0.5949
C14 C 0.6444(6) 0.6276(6) 0.6894(2)
H8 H 0.5965 0.6168 0.6831
C15 C 0.8690(7) 0.5587(7) 0.5981(3)
H9 H 0.8725 0.5154 0.5864
C16 C 0.8646(7) 0.6829(5) 0.6345(2)
H10 H 0.8662 0.7263 0.6462
C17 C 0.8494(7) 0.5586(7) 0.6303(3)
H11 H 0.8389 0.5138 0.6401
Co2 Co 0.58751(5) 0.70232(5) 0.74813(2)
Co4 Co 0.91249(5) 0.20232(5) 0.74813(2)
O6 O 0.9103(3) 0.7463(3) 0.47641(13)
N4 N 0.9134(4) 0.5907(3) 0.46607(14)
O1_2 O 0.6030(3) 0.6935(3) 0.24408(11)
O2_2 O 0.4963(3) 0.6603(3) 0.22641(13)
N1_2 N 0.7463(3) 0.3657(4) 0.19052(13)
C1_2 C 0.5624(4) 0.6501(4) 0.23105(16)
N2_2 N 0.8407(3) 0.3366(4) 0.21607(14)
C2_2 C 0.6655(4) 0.5726(4) 0.21566(17)
H1_2 H 0.6982 0.6104 0.2207
C3_2 C 0.5921(4) 0.5818(4) 0.21945(15)
C4_2 C 0.6438(4) 0.4503(4) 0.19705(16)
O3_2 O 0.5844(4) 0.3140(4) 0.03980(17)
C5_2 C 0.6175(4) 0.3737(5) 0.08529(18)
C6_2 C 0.6685(4) 0.3803(5) 0.18333(17)
H2_2 H 0.6393 0.3410 0.1931
C7_2 C 0.6912(4) 0.5065(4) 0.20426(19)
H3_2 H 0.7416 0.4999 0.2014
C8_2 C 0.7711(4) 0.3358(4) 0.21612(18)
H4_2 H 0.7420 0.3164 0.2323
C9_2 C 0.5717(5) 0.4597(5) 0.2014(2)
H5_2 H 0.5392 0.4215 0.1968
N3_2 N 0.7992(4) 0.3910(5) 0.17309(18)
C10_2 C 0.6550(4) 0.3774(5) 0.14819(18)
O4_2 O 0.5680(5) 0.4267(5) 0.03852(17)
C11_2 C 0.5458(5) 0.5238(4) 0.21223(19)
H6_2 H 0.4953 0.5296 0.2150
C12_2 C 0.5903(5) 0.3723(5) 0.0521(2)
C13_2 C 0.6171(8) 0.3153(5) 0.1037(2)
H7_2 H 0.6033 0.2703 0.0949
C14_2 C 0.8556(6) 0.3724(6) 0.1894(2)
H8_2 H 0.9035 0.3832 0.1831
C15_2 C 0.6310(7) 0.4413(7) 0.0981(3)
H9_2 H 0.6275 0.4846 0.0864
C16_2 C 0.6354(7) 0.3171(5) 0.1345(2)
H10_2 H 0.6338 0.2737 0.1462
C17_2 C 0.6506(7) 0.4414(7) 0.1303(3)
H11_2 H 0.6611 0.4862 0.1401
Co2_2 Co 0.91249(5) 0.29768(5) 0.24813(2)
Co3_2 Co 0.41249(5) 0.70232(5) 0.24813(2)
Co4_2 Co 0.58751(5) 0.79768(5) 0.24813(2)
Co1_2 Co 0.54768(5) 0.33751(5) 0.99813(2)
O5_2 O 0.4435(3) 0.3530(3) 0.99408(11)
O6_2 O 0.5897(3) 0.2537(3) 0.97641(13)
N4_2 N 0.5866(4) 0.4093(3) 0.96607(14)
Co4_3 Co 0.04768(5) 0.66249(5) 0.99813(2)
O1_3 O 0.9435(3) 0.6470(3) 0.99408(11)
O2_3 O 0.9103(3) 0.7537(3) 0.97641(13)
N1_3 N 0.6157(4) 0.5037(3) 0.94052(13)
C1_3 C 0.9001(4) 0.6876(4) 0.98105(16)
C2_3 C 0.8226(4) 0.5845(4) 0.96566(17)
H1_3 H 0.8604 0.5518 0.9707
C3_3 C 0.8318(4) 0.6579(4) 0.96945(15)
C4_3 C 0.7003(4) 0.6062(4) 0.94705(16)
O3_3 O 0.5640(4) 0.6656(4) 0.78980(17)
C5_3 C 0.6237(5) 0.6325(4) 0.83529(18)
C6_3 C 0.6303(5) 0.5815(4) 0.93333(17)
H2_3 H 0.5910 0.6107 0.9431
C7_3 C 0.7565(4) 0.5588(4) 0.95426(19)
H3_3 H 0.7499 0.5084 0.9514
C8_3 C 0.5858(4) 0.4789(4) 0.96612(18)
H4_3 H 0.5664 0.5080 0.9823
C9_3 C 0.7097(5) 0.6783(5) 0.9514(2)
H5_3 H 0.6715 0.7108 0.9468
N3_3 N 0.6410(5) 0.4508(4) 0.92309(18)
C10_3 C 0.6274(5) 0.5950(4) 0.89819(18)
O4_3 O 0.6767(5) 0.6820(5) 0.78852(17)
C11_3 C 0.7738(4) 0.7042(5) 0.96223(19)
H6_3 H 0.7796 0.7547 0.9650
C12_3 C 0.6223(5) 0.6597(5) 0.8021(2)
C13_3 C 0.5653(5) 0.6329(8) 0.8537(2)
H7_3 H 0.5203 0.6467 0.8449
C14_3 C 0.6224(6) 0.3944(6) 0.9394(2)
H8_3 H 0.6332 0.3465 0.9331
C15_3 C 0.6913(7) 0.6190(7) 0.8481(3)
H9_3 H 0.7346 0.6225 0.8364
C16_3 C 0.5671(5) 0.6146(7) 0.8845(2)
H10_3 H 0.5237 0.6162 0.8962
C17_3 C 0.6914(7) 0.5994(7) 0.8803(3)
H11_3 H 0.7362 0.5889 0.8901
Co3_3 Co 0.95232(5) 0.83751(5) 0.99813(2)
O5_3 O 0.6030(3) 0.8065(3) 0.74408(11)
O6_3 O 0.5037(3) 0.6603(3) 0.72641(13)
O1_4 O 0.5565(3) 0.3530(3) 0.49408(11)
O2_4 O 0.5897(3) 0.2463(3) 0.47641(13)
N1_4 N 0.8843(4) 0.4963(3) 0.44052(13)
C1_4 C 0.5999(4) 0.3124(4) 0.48105(16)
C2_4 C 0.6774(4) 0.4155(4) 0.46566(17)
H1_4 H 0.6396 0.4482 0.4707
C3_4 C 0.6682(4) 0.3421(4) 0.46945(15)
C4_4 C 0.7997(4) 0.3938(4) 0.44705(16)
O3_4 O 0.9360(4) 0.3344(4) 0.28980(17)
C5_4 C 0.8763(5) 0.3675(4) 0.33529(18)
C6_4 C 0.8697(5) 0.4185(4) 0.43333(17)
H2_4 H 0.9090 0.3893 0.4431
C7_4 C 0.7435(4) 0.4412(4) 0.45426(19)
H3_4 H 0.7501 0.4916 0.4514
C8_4 C 0.9142(4) 0.5211(4) 0.46612(18)
H4_4 H 0.9336 0.4920 0.4823
C9_4 C 0.7903(5) 0.3217(5) 0.4514(2)
H5_4 H 0.8285 0.2892 0.4468
N3_4 N 0.8590(5) 0.5492(4) 0.42309(18)
C10_4 C 0.8726(5) 0.4050(4) 0.39819(18)
O4_4 O 0.8233(5) 0.3180(5) 0.28852(17)
C11_4 C 0.7262(4) 0.2958(5) 0.46223(19)
H6_4 H 0.7204 0.2453 0.4650
C12_4 C 0.8777(5) 0.3403(5) 0.3021(2)
C13_4 C 0.9347(5) 0.3671(8) 0.3537(2)
H7_4 H 0.9797 0.3533 0.3449
C14_4 C 0.8776(6) 0.6056(6) 0.4394(2)
H8_4 H 0.8668 0.6535 0.4331
C15_4 C 0.8087(7) 0.3810(7) 0.3481(3)
H9_4 H 0.7654 0.3775 0.3364
C16_4 C 0.9329(5) 0.3854(7) 0.3845(2)
H10_4 H 0.9763 0.3838 0.3962
C17_4 C 0.8086(7) 0.4006(7) 0.3803(3)
H11_4 H 0.7638 0.4111 0.3901
Co3_4 Co 0.54768(5) 0.16249(5) 0.49813(2)
Co4_4 Co 0.45232(5) 0.33751(5) 0.49813(2)
O5_4 O 0.8970(3) 0.1935(3) 0.24408(11)
O6_4 O 0.9963(3) 0.3397(3) 0.22641(13)
N1_5 N 0.2537(3) 0.1343(4) 0.19052(13)
N2_3 N 0.1593(3) 0.1634(4) 0.21607(14)
C4_5 C 0.3562(4) 0.0497(4) 0.19705(16)
O3_5 O 0.4156(4) 0.1860(4) 0.03980(17)
C5_5 C 0.3825(4) 0.1263(5) 0.08529(18)
C6_5 C 0.3315(4) 0.1197(5) 0.18333(17)
H2_5 H 0.3607 0.1590 0.1931
H3_5 H 0.2584 0.0001 0.2014
C8_5 C 0.2289(4) 0.1642(4) 0.21612(18)
H4_5 H 0.2580 0.1836 0.2323
C9_5 C 0.4283(5) 0.0403(5) 0.2014(2)
H5_5 H 0.4608 0.0785 0.1968
N3_5 N 0.2008(4) 0.1090(5) 0.17309(18)
C10_5 C 0.3450(4) 0.1226(5) 0.14819(18)
O4_5 O 0.4320(5) 0.0733(5) 0.03852(17)
C12_5 C 0.4097(5) 0.1277(5) 0.0521(2)
C13_5 C 0.3829(8) 0.1847(5) 0.1037(2)
H7_5 H 0.3967 0.2297 0.0949
C14_5 C 0.1444(6) 0.1276(6) 0.1894(2)
H8_5 H 0.0965 0.1168 0.1831
C15_5 C 0.3690(7) 0.0587(7) 0.0981(3)
H9_5 H 0.3725 0.0154 0.0864
C16_5 C 0.3646(7) 0.1829(5) 0.1345(2)
H10_5 H 0.3662 0.2263 0.1462
C17_5 C 0.3494(7) 0.0586(7) 0.1303(3)
H11_5 H 0.3389 0.0138 0.1401
Co2_3 Co 0.08751(5) 0.20232(5) 0.24813(2)
Co1_3 Co 0.45232(5) 0.16249(5) 0.99813(2)
O5_5 O 0.5565(3) 0.1470(3) 0.99408(11)
O6_5 O 0.4103(3) 0.2463(3) 0.97641(13)
N4_3 N 0.4134(4) 0.0907(3) 0.96607(14)
O1_5 O 0.3970(3) 0.8065(3) 0.24408(11)
O2_5 O 0.5037(3) 0.8397(3) 0.22641(13)
C1_5 C 0.4376(4) 0.8499(4) 0.23105(16)
C2_5 C 0.3345(4) 0.9274(4) 0.21566(17)
H1_5 H 0.3018 0.8896 0.2207
C3_5 C 0.4079(4) 0.9182(4) 0.21945(15)
C7_5 C 0.3088(4) 0.9935(4) 0.20426(19)
C11_5 C 0.4542(5) 0.9762(4) 0.21223(19)
H6_5 H 0.5047 0.9704 0.2150
O1_6 O 0.1030(3) 0.1935(3) 0.74408(11)
C1_6 C 0.0624(4) 0.1501(4) 0.73105(16)
C2_6 C 0.1655(4) 0.0726(4) 0.71566(17)
H1_6 H 0.1982 0.1104 0.7207
C3_6 C 0.0921(4) 0.0818(4) 0.71945(15)
C7_6 C 0.1912(4) 0.0065(4) 0.70426(19)
C11_6 C 0.0458(5) 0.0238(4) 0.71223(19)
Co1_4 Co 0.04768(5) 0.83751(5) 0.49813(2)
N1_6 N 0.2463(3) 0.8657(4) 0.69052(13)
N2_4 N 0.3407(3) 0.8366(4) 0.71607(14)
C4_6 C 0.1438(4) 0.9503(4) 0.69705(16)
O3_6 O 0.0844(4) 0.8140(4) 0.53980(17)
C5_6 C 0.1175(4) 0.8737(5) 0.58529(18)
C6_6 C 0.1685(4) 0.8803(5) 0.68333(17)
H2_6 H 0.1393 0.8410 0.6931
H3_6 H 0.2416 0.9999 0.7014
C8_6 C 0.2711(4) 0.8358(4) 0.71612(18)
H4_6 H 0.2420 0.8164 0.7323
C9_6 C 0.0717(5) 0.9597(5) 0.7014(2)
H5_6 H 0.0392 0.9215 0.6968
N3_6 N 0.2992(4) 0.8910(5) 0.67309(18)
C10_6 C 0.1550(4) 0.8774(5) 0.64819(18)
O4_6 O 0.0680(5) 0.9267(5) 0.53852(17)
C12_6 C 0.0903(5) 0.8723(5) 0.5521(2)
C13_6 C 0.1171(8) 0.8153(5) 0.6037(2)
H7_6 H 0.1033 0.7703 0.5949
C14_6 C 0.3556(6) 0.8724(6) 0.6894(2)
H8_6 H 0.4035 0.8832 0.6831
C15_6 C 0.1310(7) 0.9413(7) 0.5981(3)
H9_6 H 0.1275 0.9846 0.5864
C16_6 C 0.1354(7) 0.8171(5) 0.6345(2)
H10_6 H 0.1338 0.7737 0.6462
C17_6 C 0.1506(7) 0.9414(7) 0.6303(3)
H11_6 H 0.1611 0.9862 0.6401
Co2_4 Co 0.41249(5) 0.79768(5) 0.74813(2)
O6_6 O 0.0897(3) 0.7537(3) 0.47641(13)
N4_4 N 0.0866(4) 0.9093(3) 0.46607(14)
O2_6 O 0.9963(3) 0.1603(3) 0.72641(13)
H6_6 H 0.9953 0.0296 0.7150
O5_6 O 0.9435(3) 0.8530(3) 0.49408(11)
O1_7 O 0.4435(3) 0.1470(3) 0.49408(11)
O2_7 O 0.4103(3) 0.2537(3) 0.47641(13)
N1_7 N 0.1157(4) 0.0037(3) 0.44052(13)
C1_7 C 0.4001(4) 0.1876(4) 0.48105(16)
C2_7 C 0.3226(4) 0.0845(4) 0.46566(17)
H1_7 H 0.3604 0.0518 0.4707
C3_7 C 0.3318(4) 0.1579(4) 0.46945(15)
C4_7 C 0.2003(4) 0.1062(4) 0.44705(16)
O3_7 O 0.0640(4) 0.1656(4) 0.28980(17)
C5_7 C 0.1237(5) 0.1325(4) 0.33529(18)
C6_7 C 0.1303(5) 0.0815(4) 0.43333(17)
H2_7 H 0.0910 0.1107 0.4431
C7_7 C 0.2565(4) 0.0588(4) 0.45426(19)
H3_7 H 0.2499 0.0084 0.4514
H4_7 H 0.0664 0.0080 0.4823
C9_7 C 0.2097(5) 0.1783(5) 0.4514(2)
H5_7 H 0.1715 0.2108 0.4468
C10_7 C 0.1274(5) 0.0950(4) 0.39819(18)
O4_7 O 0.1767(5) 0.1820(5) 0.28852(17)
C11_7 C 0.2738(4) 0.2042(5) 0.46223(19)
H6_7 H 0.2796 0.2547 0.4650
C12_7 C 0.1223(5) 0.1597(5) 0.3021(2)
C13_7 C 0.0653(5) 0.1329(8) 0.3537(2)
H7_7 H 0.0203 0.1467 0.3449
C15_7 C 0.1913(7) 0.1190(7) 0.3481(3)
H9_7 H 0.2346 0.1225 0.3364
C16_7 C 0.0671(5) 0.1146(7) 0.3845(2)
H10_7 H 0.0237 0.1162 0.3962
C17_7 C 0.1914(7) 0.0994(7) 0.3803(3)
H11_7 H 0.2362 0.0889 0.3901
O5_7 O 0.1030(3) 0.3065(3) 0.24408(11)
O6_7 O 0.0037(3) 0.1603(3) 0.22641(13)
C8_7 C 0.0858(4) 0.9789(4) 0.46612(18)
N3_7 N 0.1410(5) 0.9508(4) 0.42309(18)
C14_7 C 0.1224(6) 0.8944(6) 0.4394(2)
H8_7 H 0.1332 0.8465 0.4331
C8_8 C 0.4142(4) 0.0211(4) 0.96612(18)
N3_8 N 0.3590(5) 0.0492(4) 0.92309(18)
C14_8 C 0.3776(6) 0.1056(6) 0.9394(2)
H8_8 H 0.3668 0.1535 0.9331
O1_8 O 0.0565(3) 0.8530(3) 0.99408(11)
O2_8 O 0.0897(3) 0.7463(3) 0.97641(13)
N1_8 N 0.3843(4) 0.9963(3) 0.94052(13)
C1_8 C 0.0999(4) 0.8124(4) 0.98105(16)
C2_8 C 0.1774(4) 0.9155(4) 0.96566(17)
H1_8 H 0.1396 0.9482 0.9707
C3_8 C 0.1682(4) 0.8421(4) 0.96945(15)
C4_8 C 0.2997(4) 0.8938(4) 0.94705(16)
O3_8 O 0.4360(4) 0.8344(4) 0.78980(17)
C5_8 C 0.3763(5) 0.8675(4) 0.83529(18)
C6_8 C 0.3697(5) 0.9185(4) 0.93333(17)
H2_8 H 0.4090 0.8893 0.9431
C7_8 C 0.2435(4) 0.9412(4) 0.95426(19)
H3_8 H 0.2501 0.9916 0.9514
H4_8 H 0.4336 0.9920 0.9823
C9_8 C 0.2903(5) 0.8217(5) 0.9514(2)
H5_8 H 0.3285 0.7892 0.9468
C10_8 C 0.3726(5) 0.9050(4) 0.89819(18)
O4_8 O 0.3233(5) 0.8180(5) 0.78852(17)
C11_8 C 0.2262(4) 0.7958(5) 0.96223(19)
H6_8 H 0.2204 0.7453 0.9650
C12_8 C 0.3777(5) 0.8403(5) 0.8021(2)
C13_8 C 0.4347(5) 0.8671(8) 0.8537(2)
H7_8 H 0.4797 0.8533 0.8449
C15_8 C 0.3087(7) 0.8810(7) 0.8481(3)
H9_8 H 0.2654 0.8775 0.8364
C16_8 C 0.4329(5) 0.8854(7) 0.8845(2)
H10_8 H 0.4763 0.8838 0.8962
C17_8 C 0.3086(7) 0.9006(7) 0.8803(3)
H11_8 H 0.2638 0.9111 0.8901
O5_8 O 0.3970(3) 0.6935(3) 0.74408(11)
O6_8 O 0.4963(3) 0.8397(3) 0.72641(13)
N1_9 N 0.2537(3) 0.3657(4) 0.69052(13)
C1_9 C 0.4376(4) 0.6501(4) 0.73105(16)
N2_5 N 0.1593(3) 0.3366(4) 0.71607(14)
C2_9 C 0.3345(4) 0.5726(4) 0.71566(17)
H1_9 H 0.3018 0.6104 0.7207
C3_9 C 0.4079(4) 0.5818(4) 0.71945(15)
C4_9 C 0.3562(4) 0.4503(4) 0.69705(16)
O3_9 O 0.4156(4) 0.3140(4) 0.53980(17)
C5_9 C 0.3825(4) 0.3737(5) 0.58529(18)
C6_9 C 0.3315(4) 0.3803(5) 0.68333(17)
H2_9 H 0.3607 0.3410 0.6931
C7_9 C 0.3088(4) 0.5065(4) 0.70426(19)
H3_9 H 0.2584 0.4999 0.7014
C8_9 C 0.2289(4) 0.3358(4) 0.71612(18)
H4_9 H 0.2580 0.3164 0.7323
C9_9 C 0.4283(5) 0.4597(5) 0.7014(2)
H5_9 H 0.4608 0.4215 0.6968
N3_9 N 0.2008(4) 0.3910(5) 0.67309(18)
C10_9 C 0.3450(4) 0.3774(5) 0.64819(18)
O4_9 O 0.4320(5) 0.4267(5) 0.53852(17)
C11_9 C 0.4542(5) 0.5238(4) 0.71223(19)
H6_9 H 0.5047 0.5296 0.7150
C12_9 C 0.4097(5) 0.3723(5) 0.5521(2)
C13_9 C 0.3829(8) 0.3153(5) 0.6037(2)
H7_9 H 0.3967 0.2703 0.5949
C14_9 C 0.1444(6) 0.3724(6) 0.6894(2)
H8_9 H 0.0965 0.3832 0.6831
C15_9 C 0.3690(7) 0.4413(7) 0.5981(3)
H9_9 H 0.3725 0.4846 0.5864
C16_9 C 0.3646(7) 0.3171(5) 0.6345(2)
H10_9 H 0.3662 0.2737 0.6462
C17_9 C 0.3494(7) 0.4414(7) 0.6303(3)
H11_9 H 0.3389 0.4862 0.6401
N4_5 N 0.4134(4) 0.4093(3) 0.46607(14)
N1_10 N 0.2463(3) 0.6343(4) 0.19052(13)
C1_10 C 0.0624(4) 0.3499(4) 0.23105(16)
N2_6 N 0.3407(3) 0.6634(4) 0.21607(14)
C2_10 C 0.1655(4) 0.4274(4) 0.21566(17)
H1_10 H 0.1982 0.3896 0.2207
C3_10 C 0.0921(4) 0.4182(4) 0.21945(15)
C4_10 C 0.1438(4) 0.5497(4) 0.19705(16)
O3_10 O 0.0844(4) 0.6860(4) 0.03980(17)
C5_10 C 0.1175(4) 0.6263(5) 0.08529(18)
C6_10 C 0.1685(4) 0.6197(5) 0.18333(17)
H2_10 H 0.1393 0.6590 0.1931
C7_10 C 0.1912(4) 0.4935(4) 0.20426(19)
H3_10 H 0.2416 0.5001 0.2014
C8_10 C 0.2711(4) 0.6642(4) 0.21612(18)
H4_10 H 0.2420 0.6836 0.2323
C9_10 C 0.0717(5) 0.5403(5) 0.2014(2)
H5_10 H 0.0392 0.5785 0.1968
N3_10 N 0.2992(4) 0.6090(5) 0.17309(18)
C10_10 C 0.1550(4) 0.6226(5) 0.14819(18)
O4_10 O 0.0680(5) 0.5733(5) 0.03852(17)
C11_10 C 0.0458(5) 0.4762(4) 0.21223(19)
C12_10 C 0.0903(5) 0.6277(5) 0.0521(2)
C13_10 C 0.1171(8) 0.6847(5) 0.1037(2)
H7_10 H 0.1033 0.7297 0.0949
C14_10 C 0.3556(6) 0.6276(6) 0.1894(2)
H8_10 H 0.4035 0.6168 0.1831
C15_10 C 0.1310(7) 0.5587(7) 0.0981(3)
H9_10 H 0.1275 0.5154 0.0864
C16_10 C 0.1354(7) 0.6829(5) 0.1345(2)
H10_10 H 0.1338 0.7263 0.1462
C17_10 C 0.1506(7) 0.5586(7) 0.1303(3)
H11_10 H 0.1611 0.5138 0.1401
N4_6 N 0.0866(4) 0.5907(3) 0.96607(14)
H6_10 H 0.9953 0.4704 0.2150
N1_11 N 0.1157(4) 0.4963(3) 0.94052(13)
C1_11 C 0.4001(4) 0.3124(4) 0.98105(16)
C2_11 C 0.3226(4) 0.4155(4) 0.96566(17)
H1_11 H 0.3604 0.4482 0.9707
C3_11 C 0.3318(4) 0.3421(4) 0.96945(15)
C4_11 C 0.2003(4) 0.3938(4) 0.94705(16)
O3_11 O 0.0640(4) 0.3344(4) 0.78980(17)
C5_11 C 0.1237(5) 0.3675(4) 0.83529(18)
C6_11 C 0.1303(5) 0.4185(4) 0.93333(17)
H2_11 H 0.0910 0.3893 0.9431
C7_11 C 0.2565(4) 0.4412(4) 0.95426(19)
H3_11 H 0.2499 0.4916 0.9514
C8_11 C 0.0858(4) 0.5211(4) 0.96612(18)
H4_11 H 0.0664 0.4920 0.9823
C9_11 C 0.2097(5) 0.3217(5) 0.9514(2)
H5_11 H 0.1715 0.2892 0.9468
N3_11 N 0.1410(5) 0.5492(4) 0.92309(18)
C10_11 C 0.1274(5) 0.4050(4) 0.89819(18)
O4_11 O 0.1767(5) 0.3180(5) 0.78852(17)
C11_11 C 0.2738(4) 0.2958(5) 0.96223(19)
H6_11 H 0.2796 0.2453 0.9650
C12_11 C 0.1223(5) 0.3403(5) 0.8021(2)
C13_11 C 0.0653(5) 0.3671(8) 0.8537(2)
H7_11 H 0.0203 0.3533 0.8449
C14_11 C 0.1224(6) 0.6056(6) 0.9394(2)
H8_11 H 0.1332 0.6535 0.9331
C15_11 C 0.1913(7) 0.3810(7) 0.8481(3)
H9_11 H 0.2346 0.3775 0.8364
C16_11 C 0.0671(5) 0.3854(7) 0.8845(2)
H10_11 H 0.0237 0.3838 0.8962
C17_11 C 0.1914(7) 0.4006(7) 0.8803(3)
H11_11 H 0.2362 0.4111 0.8901
N1_12 N 0.3843(4) 0.5037(3) 0.44052(13)
C1_12 C 0.0999(4) 0.6876(4) 0.48105(16)
C2_12 C 0.1774(4) 0.5845(4) 0.46566(17)
H1_12 H 0.1396 0.5518 0.4707
C3_12 C 0.1682(4) 0.6579(4) 0.46945(15)
C4_12 C 0.2997(4) 0.6062(4) 0.44705(16)
O3_12 O 0.4360(4) 0.6656(4) 0.28980(17)
C5_12 C 0.3763(5) 0.6325(4) 0.33529(18)
C6_12 C 0.3697(5) 0.5815(4) 0.43333(17)
H2_12 H 0.4090 0.6107 0.4431
C7_12 C 0.2435(4) 0.5588(4) 0.45426(19)
H3_12 H 0.2501 0.5084 0.4514
C8_12 C 0.4142(4) 0.4789(4) 0.46612(18)
H4_12 H 0.4336 0.5080 0.4823
C9_12 C 0.2903(5) 0.6783(5) 0.4514(2)
H5_12 H 0.3285 0.7108 0.4468
N3_12 N 0.3590(5) 0.4508(4) 0.42309(18)
C10_12 C 0.3726(5) 0.5950(4) 0.39819(18)
O4_12 O 0.3233(5) 0.6820(5) 0.28852(17)
C11_12 C 0.2262(4) 0.7042(5) 0.46223(19)
H6_12 H 0.2204 0.7547 0.4650
C12_12 C 0.3777(5) 0.6597(5) 0.3021(2)
C13_12 C 0.4347(5) 0.6329(8) 0.3537(2)
H7_12 H 0.4797 0.6467 0.3449
C14_12 C 0.3776(6) 0.3944(6) 0.4394(2)
H8_12 H 0.3668 0.3465 0.4331
C15_12 C 0.3087(7) 0.6190(7) 0.3481(3)
H9_12 H 0.2654 0.6225 0.3364
C16_12 C 0.4329(5) 0.6146(7) 0.3845(2)
H10_12 H 0.4763 0.6162 0.3962
C17_12 C 0.3086(7) 0.5994(7) 0.3803(3)
H11_12 H 0.2638 0.5889 0.3901
H6_13 H 0.0047 0.0296 0.2150
C1_13 C 0.9376(4) 0.1501(4) 0.23105(16)
C2_13 C 0.8345(4) 0.0726(4) 0.21566(17)
H1_13 H 0.8018 0.1104 0.2207
C3_13 C 0.9079(4) 0.0818(4) 0.21945(15)
C7_13 C 0.8088(4) 0.0065(4) 0.20426(19)
C11_13 C 0.9542(5) 0.0238(4) 0.21223(19)
N1_13 N 0.7537(3) 0.8657(4) 0.19052(13)
N2_7 N 0.6593(3) 0.8366(4) 0.21607(14)
C4_13 C 0.8562(4) 0.9503(4) 0.19705(16)
O3_13 O 0.9156(4) 0.8140(4) 0.03980(17)
C5_13 C 0.8825(4) 0.8737(5) 0.08529(18)
C6_13 C 0.8315(4) 0.8803(5) 0.18333(17)
H2_13 H 0.8607 0.8410 0.1931
H3_13 H 0.7584 0.9999 0.2014
C8_13 C 0.7289(4) 0.8358(4) 0.21612(18)
H4_13 H 0.7580 0.8164 0.2323
C9_13 C 0.9283(5) 0.9597(5) 0.2014(2)
H5_13 H 0.9608 0.9215 0.1968
N3_13 N 0.7008(4) 0.8910(5) 0.17309(18)
C10_13 C 0.8450(4) 0.8774(5) 0.14819(18)
O4_13 O 0.9320(5) 0.9267(5) 0.03852(17)
C12_13 C 0.9097(5) 0.8723(5) 0.0521(2)
C13_13 C 0.8829(8) 0.8153(5) 0.1037(2)
H7_13 H 0.8967 0.7703 0.0949
C14_13 C 0.6444(6) 0.8724(6) 0.1894(2)
H8_13 H 0.5965 0.8832 0.1831
C15_13 C 0.8690(7) 0.9413(7) 0.0981(3)
H9_13 H 0.8725 0.9846 0.0864
C16_13 C 0.8646(7) 0.8171(5) 0.1345(2)
H10_13 H 0.8662 0.7737 0.1462
C17_13 C 0.8494(7) 0.9414(7) 0.1303(3)
H11_13 H 0.8389 0.9862 0.1401
N4_7 N 0.9134(4) 0.9093(3) 0.96607(14)
N1_14 N 0.7463(3) 0.1343(4) 0.69052(13)
N2_8 N 0.8407(3) 0.1634(4) 0.71607(14)
C4_14 C 0.6438(4) 0.0497(4) 0.69705(16)
O3_14 O 0.5844(4) 0.1860(4) 0.53980(17)
C5_14 C 0.6175(4) 0.1263(5) 0.58529(18)
C6_14 C 0.6685(4) 0.1197(5) 0.68333(17)
H2_14 H 0.6393 0.1590 0.6931
H3_14 H 0.7416 0.0001 0.7014
C8_14 C 0.7711(4) 0.1642(4) 0.71612(18)
H4_14 H 0.7420 0.1836 0.7323
C9_14 C 0.5717(5) 0.0403(5) 0.7014(2)
H5_14 H 0.5392 0.0785 0.6968
N3_14 N 0.7992(4) 0.1090(5) 0.67309(18)
C10_14 C 0.6550(4) 0.1226(5) 0.64819(18)
O4_14 O 0.5680(5) 0.0733(5) 0.53852(17)
C12_14 C 0.5903(5) 0.1277(5) 0.5521(2)
C13_14 C 0.6171(8) 0.1847(5) 0.6037(2)
H7_14 H 0.6033 0.2297 0.5949
C14_14 C 0.8556(6) 0.1276(6) 0.6894(2)
H8_14 H 0.9035 0.1168 0.6831
C15_14 C 0.6310(7) 0.0587(7) 0.5981(3)
H9_14 H 0.6275 0.0154 0.5864
C16_14 C 0.6354(7) 0.1829(5) 0.6345(2)
H10_14 H 0.6338 0.2263 0.6462
C17_14 C 0.6506(7) 0.0586(7) 0.6303(3)
H11_14 H 0.6611 0.0138 0.6401
N4_8 N 0.5866(4) 0.0907(3) 0.46607(14)
C1_14 C 0.5624(4) 0.8499(4) 0.73105(16)
C2_14 C 0.6655(4) 0.9274(4) 0.71566(17)
H1_14 H 0.6982 0.8896 0.7207
C3_14 C 0.5921(4) 0.9182(4) 0.71945(15)
C7_14 C 0.6912(4) 0.9935(4) 0.70426(19)
C11_14 C 0.5458(5) 0.9762(4) 0.71223(19)
H6_14 H 0.4953 0.9704 0.7150
C8_15 C 0.5858(4) 0.0211(4) 0.46612(18)
N3_15 N 0.6410(5) 0.0492(4) 0.42309(18)
C14_15 C 0.6224(6) 0.1056(6) 0.4394(2)
H8_15 H 0.6332 0.1535 0.4331
N1_15 N 0.6157(4) 0.9963(3) 0.44052(13)
C1_15 C 0.9001(4) 0.8124(4) 0.48105(16)
C2_15 C 0.8226(4) 0.9155(4) 0.46566(17)
H1_15 H 0.8604 0.9482 0.4707
C3_15 C 0.8318(4) 0.8421(4) 0.46945(15)
C4_15 C 0.7003(4) 0.8938(4) 0.44705(16)
O3_15 O 0.5640(4) 0.8344(4) 0.28980(17)
C5_15 C 0.6237(5) 0.8675(4) 0.33529(18)
C6_15 C 0.6303(5) 0.9185(4) 0.43333(17)
H2_15 H 0.5910 0.8893 0.4431
C7_15 C 0.7565(4) 0.9412(4) 0.45426(19)
H3_15 H 0.7499 0.9916 0.4514
H4_15 H 0.5664 0.9920 0.4823
C9_15 C 0.7097(5) 0.8217(5) 0.4514(2)
H5_15 H 0.6715 0.7892 0.4468
C10_15 C 0.6274(5) 0.9050(4) 0.39819(18)
O4_15 O 0.6767(5) 0.8180(5) 0.28852(17)
C11_15 C 0.7738(4) 0.7958(5) 0.46223(19)
H6_15 H 0.7796 0.7453 0.4650
C12_15 C 0.6223(5) 0.8403(5) 0.3021(2)
C13_15 C 0.5653(5) 0.8671(8) 0.3537(2)
H7_15 H 0.5203 0.8533 0.3449
C15_15 C 0.6913(7) 0.8810(7) 0.3481(3)
H9_15 H 0.7346 0.8775 0.3364
C16_15 C 0.5671(5) 0.8854(7) 0.3845(2)
H10_15 H 0.5237 0.8838 0.3962
C17_15 C 0.6914(7) 0.9006(7) 0.3803(3)
H11_15 H 0.7362 0.9111 0.3901
N1_16 N 0.8843(4) 0.0037(3) 0.94052(13)
C1_16 C 0.5999(4) 0.1876(4) 0.98105(16)
C2_16 C 0.6774(4) 0.0845(4) 0.96566(17)
H1_16 H 0.6396 0.0518 0.9707
C3_16 C 0.6682(4) 0.1579(4) 0.96945(15)
C4_16 C 0.7997(4) 0.1062(4) 0.94705(16)
O3_16 O 0.9360(4) 0.1656(4) 0.78980(17)
C5_16 C 0.8763(5) 0.1325(4) 0.83529(18)
C6_16 C 0.8697(5) 0.0815(4) 0.93333(17)
H2_16 H 0.9090 0.1107 0.9431
C7_16 C 0.7435(4) 0.0588(4) 0.95426(19)
H3_16 H 0.7501 0.0084 0.9514
H4_16 H 0.9336 0.0080 0.9823
C9_16 C 0.7903(5) 0.1783(5) 0.9514(2)
H5_16 H 0.8285 0.2108 0.9468
C10_16 C 0.8726(5) 0.0950(4) 0.89819(18)
O4_16 O 0.8233(5) 0.1820(5) 0.78852(17)
C11_16 C 0.7262(4) 0.2042(5) 0.96223(19)
H6_16 H 0.7204 0.2547 0.9650
C12_16 C 0.8777(5) 0.1597(5) 0.8021(2)
C13_16 C 0.9347(5) 0.1329(8) 0.8537(2)
H7_16 H 0.9797 0.1467 0.8449
C15_16 C 0.8087(7) 0.1190(7) 0.8481(3)
H9_16 H 0.7654 0.1225 0.8364
C16_16 C 0.9329(5) 0.1146(7) 0.8845(2)
H10_16 H 0.9763 0.1162 0.8962
C17_16 C 0.8086(7) 0.0994(7) 0.8803(3)
H11_16 H 0.7638 0.0889 0.8901
C8_16 C 0.9142(4) 0.9789(4) 0.96612(18)
N3_16 N 0.8590(5) 0.9508(4) 0.92309(18)
C14_16 C 0.8776(6) 0.8944(6) 0.9394(2)
H8_16 H 0.8668 0.8465 0.9331
Co1_5 Co 0.54768(5) 0.66249(5) 0.50187(2)
O1_9 O 0.6030(3) 0.3065(3) 0.25592(11)
O2_9 O 0.4963(3) 0.3397(3) 0.27359(13)
N1_17 N 0.7463(3) 0.6343(4) 0.30948(13)
C1_17 C 0.5624(4) 0.3499(4) 0.26895(16)
N2_9 N 0.8407(3) 0.6634(4) 0.28393(14)
C2_17 C 0.6655(4) 0.4274(4) 0.28434(17)
H1_17 H 0.6982 0.3896 0.2793
C3_17 C 0.5921(4) 0.4182(4) 0.28055(15)
C4_17 C 0.6438(4) 0.5497(4) 0.30295(16)
O3_17 O 0.5844(4) 0.6860(4) 0.46020(17)
C5_17 C 0.6175(4) 0.6263(5) 0.41471(18)
C6_17 C 0.6685(4) 0.6197(5) 0.31667(17)
H2_17 H 0.6393 0.6590 0.3069
C7_17 C 0.6912(4) 0.4935(4) 0.29574(19)
H3_17 H 0.7416 0.5001 0.2986
C8_17 C 0.7711(4) 0.6642(4) 0.28388(18)
H4_17 H 0.7420 0.6836 0.2677
C9_17 C 0.5717(5) 0.5403(5) 0.2986(2)
H5_17 H 0.5392 0.5785 0.3032
N3_17 N 0.7992(4) 0.6090(5) 0.32691(18)
C10_17 C 0.6550(4) 0.6226(5) 0.35181(18)
O4_17 O 0.5680(5) 0.5733(5) 0.46148(17)
C11_17 C 0.5458(5) 0.4762(4) 0.28777(19)
H6_17 H 0.4953 0.4704 0.2850
C12_17 C 0.5903(5) 0.6277(5) 0.4479(2)
C13_17 C 0.6171(8) 0.6847(5) 0.3963(2)
H7_17 H 0.6033 0.7297 0.4051
C14_17 C 0.8556(6) 0.6276(6) 0.3106(2)
H8_17 H 0.9035 0.6168 0.3169
C15_17 C 0.6310(7) 0.5587(7) 0.4019(3)
H9_17 H 0.6275 0.5154 0.4136
C16_17 C 0.6354(7) 0.6829(5) 0.3655(2)
H10_17 H 0.6338 0.7263 0.3538
C17_17 C 0.6506(7) 0.5586(7) 0.3697(3)
H11_17 H 0.6611 0.5138 0.3599
Co2_5 Co 0.91249(5) 0.70232(5) 0.25187(2)
Co3_5 Co 0.41249(5) 0.29768(5) 0.25187(2)
Co4_5 Co 0.58751(5) 0.20232(5) 0.25187(2)
O5_9 O 0.4435(3) 0.6470(3) 0.50592(11)
O6_9 O 0.5897(3) 0.7463(3) 0.52359(13)
N4_9 N 0.5866(4) 0.5907(3) 0.53393(14)
O5_10 O 0.0565(3) 0.3530(3) 0.00592(11)
O2_10 O 0.0037(3) 0.6603(3) 0.77359(13)
H6_18 H 0.0047 0.5296 0.7850
Co3_6 Co 0.08751(5) 0.70232(5) 0.75187(2)
Co1_6 Co 0.95232(5) 0.33751(5) 0.00187(2)
O6_10 O 0.9103(3) 0.2537(3) 0.02359(13)
N4_10 N 0.9134(4) 0.4093(3) 0.03393(14)
O1_10 O 0.8970(3) 0.6935(3) 0.75592(11)
N1_18 N 0.7537(3) 0.3657(4) 0.80948(13)
C1_18 C 0.9376(4) 0.6501(4) 0.76895(16)
N2_10 N 0.6593(3) 0.3366(4) 0.78393(14)
C2_18 C 0.8345(4) 0.5726(4) 0.78434(17)
H1_18 H 0.8018 0.6104 0.7793
C3_18 C 0.9079(4) 0.5818(4) 0.78055(15)
C4_18 C 0.8562(4) 0.4503(4) 0.80295(16)
O3_18 O 0.9156(4) 0.3140(4) 0.96020(17)
C5_18 C 0.8825(4) 0.3737(5) 0.91471(18)
C6_18 C 0.8315(4) 0.3803(5) 0.81667(17)
H2_18 H 0.8607 0.3410 0.8069
C7_18 C 0.8088(4) 0.5065(4) 0.79574(19)
H3_18 H 0.7584 0.4999 0.7986
C8_18 C 0.7289(4) 0.3358(4) 0.78388(18)
H4_18 H 0.7580 0.3164 0.7677
C9_18 C 0.9283(5) 0.4597(5) 0.7986(2)
H5_18 H 0.9608 0.4215 0.8032
N3_18 N 0.7008(4) 0.3910(5) 0.82691(18)
C10_18 C 0.8450(4) 0.3774(5) 0.85181(18)
O4_18 O 0.9320(5) 0.4267(5) 0.96148(17)
C11_18 C 0.9542(5) 0.5238(4) 0.78777(19)
C12_18 C 0.9097(5) 0.3723(5) 0.9479(2)
C13_18 C 0.8829(8) 0.3153(5) 0.8963(2)
H7_18 H 0.8967 0.2703 0.9051
C14_18 C 0.6444(6) 0.3724(6) 0.8106(2)
H8_18 H 0.5965 0.3832 0.8169
C15_18 C 0.8690(7) 0.4413(7) 0.9019(3)
H9_18 H 0.8725 0.4846 0.9136
C16_18 C 0.8646(7) 0.3171(5) 0.8655(2)
H10_18 H 0.8662 0.2737 0.8538
C17_18 C 0.8494(7) 0.4414(7) 0.8697(3)
H11_18 H 0.8389 0.4862 0.8599
Co2_6 Co 0.58751(5) 0.29768(5) 0.75187(2)
Co4_6 Co 0.91249(5) 0.79768(5) 0.75187(2)
O1_11 O 0.5565(3) 0.6470(3) 0.00592(11)
O2_11 O 0.5897(3) 0.7537(3) 0.02359(13)
N1_19 N 0.8843(4) 0.5037(3) 0.05948(13)
C1_19 C 0.5999(4) 0.6876(4) 0.01895(16)
C2_19 C 0.6774(4) 0.5845(4) 0.03434(17)
H1_19 H 0.6396 0.5518 0.0293
C3_19 C 0.6682(4) 0.6579(4) 0.03055(15)
C4_19 C 0.7997(4) 0.6062(4) 0.05295(16)
O3_19 O 0.9360(4) 0.6656(4) 0.21020(17)
C5_19 C 0.8763(5) 0.6325(4) 0.16471(18)
C6_19 C 0.8697(5) 0.5815(4) 0.06667(17)
H2_19 H 0.9090 0.6107 0.0569
C7_19 C 0.7435(4) 0.5588(4) 0.04574(19)
H3_19 H 0.7501 0.5084 0.0486
C8_19 C 0.9142(4) 0.4789(4) 0.03388(18)
H4_19 H 0.9336 0.5080 0.0177
C9_19 C 0.7903(5) 0.6783(5) 0.0486(2)
H5_19 H 0.8285 0.7108 0.0532
N3_19 N 0.8590(5) 0.4508(4) 0.07691(18)
C10_19 C 0.8726(5) 0.5950(4) 0.10181(18)
O4_19 O 0.8233(5) 0.6820(5) 0.21148(17)
C11_19 C 0.7262(4) 0.7042(5) 0.03777(19)
H6_19 H 0.7204 0.7547 0.0350
C12_19 C 0.8777(5) 0.6597(5) 0.1979(2)
C13_19 C 0.9347(5) 0.6329(8) 0.1463(2)
H7_19 H 0.9797 0.6467 0.1551
C14_19 C 0.8776(6) 0.3944(6) 0.0606(2)
H8_19 H 0.8668 0.3465 0.0669
C15_19 C 0.8087(7) 0.6190(7) 0.1519(3)
H9_19 H 0.7654 0.6225 0.1636
C16_19 C 0.9329(5) 0.6146(7) 0.1155(2)
H10_19 H 0.9763 0.6162 0.1038
C17_19 C 0.8086(7) 0.5994(7) 0.1197(3)
H11_19 H 0.7638 0.5889 0.1099
Co3_7 Co 0.54768(5) 0.83751(5) 0.00187(2)
Co4_7 Co 0.45232(5) 0.66249(5) 0.00187(2)
O5_11 O 0.8970(3) 0.8065(3) 0.25592(11)
O6_11 O 0.9963(3) 0.6603(3) 0.27359(13)
Co4_8 Co 0.04768(5) 0.33751(5) 0.50187(2)
O1_12 O 0.9435(3) 0.3530(3) 0.50592(11)
O2_12 O 0.9103(3) 0.2463(3) 0.52359(13)
N1_20 N 0.6157(4) 0.4963(3) 0.55948(13)
C1_20 C 0.9001(4) 0.3124(4) 0.51895(16)
C2_20 C 0.8226(4) 0.4155(4) 0.53434(17)
H1_20 H 0.8604 0.4482 0.5293
C3_20 C 0.8318(4) 0.3421(4) 0.53055(15)
C4_20 C 0.7003(4) 0.3938(4) 0.55295(16)
O3_20 O 0.5640(4) 0.3344(4) 0.71020(17)
C5_20 C 0.6237(5) 0.3675(4) 0.66471(18)
C6_20 C 0.6303(5) 0.4185(4) 0.56667(17)
H2_20 H 0.5910 0.3893 0.5569
C7_20 C 0.7565(4) 0.4412(4) 0.54574(19)
H3_20 H 0.7499 0.4916 0.5486
C8_20 C 0.5858(4) 0.5211(4) 0.53388(18)
H4_20 H 0.5664 0.4920 0.5177
C9_20 C 0.7097(5) 0.3217(5) 0.5486(2)
H5_20 H 0.6715 0.2892 0.5532
N3_20 N 0.6410(5) 0.5492(4) 0.57691(18)
C10_20 C 0.6274(5) 0.4050(4) 0.60181(18)
O4_20 O 0.6767(5) 0.3180(5) 0.71148(17)
C11_20 C 0.7738(4) 0.2958(5) 0.53777(19)
H6_20 H 0.7796 0.2453 0.5350
C12_20 C 0.6223(5) 0.3403(5) 0.6979(2)
C13_20 C 0.5653(5) 0.3671(8) 0.6463(2)
H7_20 H 0.5203 0.3533 0.6551
C14_20 C 0.6224(6) 0.6056(6) 0.5606(2)
H8_20 H 0.6332 0.6535 0.5669
C15_20 C 0.6913(7) 0.3810(7) 0.6519(3)
H9_20 H 0.7346 0.3775 0.6636
C16_20 C 0.5671(5) 0.3854(7) 0.6155(2)
H10_20 H 0.5237 0.3838 0.6038
C17_20 C 0.6914(7) 0.4006(7) 0.6197(3)
H11_20 H 0.7362 0.4111 0.6099
Co3_8 Co 0.95232(5) 0.16249(5) 0.50187(2)
O5_12 O 0.6030(3) 0.1935(3) 0.75592(11)
O6_12 O 0.5037(3) 0.3397(3) 0.77359(13)
Co1_7 Co 0.04768(5) 0.16249(5) 0.00187(2)
O6_13 O 0.0897(3) 0.2463(3) 0.02359(13)
N4_11 N 0.0866(4) 0.0907(3) 0.03393(14)
N1_21 N 0.2463(3) 0.1343(4) 0.80948(13)
N2_11 N 0.3407(3) 0.1634(4) 0.78393(14)
C4_21 C 0.1438(4) 0.0497(4) 0.80295(16)
O3_21 O 0.0844(4) 0.1860(4) 0.96020(17)
C5_21 C 0.1175(4) 0.1263(5) 0.91471(18)
C6_21 C 0.1685(4) 0.1197(5) 0.81667(17)
H2_21 H 0.1393 0.1590 0.8069
H3_21 H 0.2416 0.0001 0.7986
C8_21 C 0.2711(4) 0.1642(4) 0.78388(18)
H4_21 H 0.2420 0.1836 0.7677
C9_21 C 0.0717(5) 0.0403(5) 0.7986(2)
H5_21 H 0.0392 0.0785 0.8032
N3_21 N 0.2992(4) 0.1090(5) 0.82691(18)
C10_21 C 0.1550(4) 0.1226(5) 0.85181(18)
O4_21 O 0.0680(5) 0.0733(5) 0.96148(17)
C12_21 C 0.0903(5) 0.1277(5) 0.9479(2)
C13_21 C 0.1171(8) 0.1847(5) 0.8963(2)
H7_21 H 0.1033 0.2297 0.9051
C14_21 C 0.3556(6) 0.1276(6) 0.8106(2)
H8_21 H 0.4035 0.1168 0.8169
C15_21 C 0.1310(7) 0.0587(7) 0.9019(3)
H9_21 H 0.1275 0.0154 0.9136
C16_21 C 0.1354(7) 0.1829(5) 0.8655(2)
H10_21 H 0.1338 0.2263 0.8538
C17_21 C 0.1506(7) 0.0586(7) 0.8697(3)
H11_21 H 0.1611 0.0138 0.8599
Co2_7 Co 0.41249(5) 0.20232(5) 0.75187(2)
O1_13 O 0.1030(3) 0.8065(3) 0.75592(11)
C1_21 C 0.0624(4) 0.8499(4) 0.76895(16)
C2_21 C 0.1655(4) 0.9274(4) 0.78434(17)
H1_21 H 0.1982 0.8896 0.7793
C3_21 C 0.0921(4) 0.9182(4) 0.78055(15)
C7_21 C 0.1912(4) 0.9935(4) 0.79574(19)
C11_21 C 0.0458(5) 0.9762(4) 0.78777(19)
O5_13 O 0.9435(3) 0.1470(3) 0.00592(11)
O2_13 O 0.9963(3) 0.8397(3) 0.77359(13)
H6_21 H 0.9953 0.9704 0.7850
O1_14 O 0.3970(3) 0.1935(3) 0.25592(11)
O2_14 O 0.5037(3) 0.1603(3) 0.27359(13)
C1_22 C 0.4376(4) 0.1501(4) 0.26895(16)
C2_22 C 0.3345(4) 0.0726(4) 0.28434(17)
H1_22 H 0.3018 0.1104 0.2793
C3_22 C 0.4079(4) 0.0818(4) 0.28055(15)
C7_22 C 0.3088(4) 0.0065(4) 0.29574(19)
C11_22 C 0.4542(5) 0.0238(4) 0.28777(19)
H6_22 H 0.5047 0.0296 0.2850
Co1_8 Co 0.45232(5) 0.83751(5) 0.50187(2)
N1_22 N 0.2537(3) 0.8657(4) 0.30948(13)
N2_12 N 0.1593(3) 0.8366(4) 0.28393(14)
C4_22 C 0.3562(4) 0.9503(4) 0.30295(16)
O3_22 O 0.4156(4) 0.8140(4) 0.46020(17)
C5_22 C 0.3825(4) 0.8737(5) 0.41471(18)
C6_22 C 0.3315(4) 0.8803(5) 0.31667(17)
H2_22 H 0.3607 0.8410 0.3069
H3_22 H 0.2584 0.9999 0.2986
C8_22 C 0.2289(4) 0.8358(4) 0.28388(18)
H4_22 H 0.2580 0.8164 0.2677
C9_22 C 0.4283(5) 0.9597(5) 0.2986(2)
H5_22 H 0.4608 0.9215 0.3032
N3_22 N 0.2008(4) 0.8910(5) 0.32691(18)
C10_22 C 0.3450(4) 0.8774(5) 0.35181(18)
O4_22 O 0.4320(5) 0.9267(5) 0.46148(17)
C12_22 C 0.4097(5) 0.8723(5) 0.4479(2)
C13_22 C 0.3829(8) 0.8153(5) 0.3963(2)
H7_22 H 0.3967 0.7703 0.4051
C14_22 C 0.1444(6) 0.8724(6) 0.3106(2)
H8_22 H 0.0965 0.8832 0.3169
C15_22 C 0.3690(7) 0.9413(7) 0.4019(3)
H9_22 H 0.3725 0.9846 0.4136
C16_22 C 0.3646(7) 0.8171(5) 0.3655(2)
H10_22 H 0.3662 0.7737 0.3538
C17_22 C 0.3494(7) 0.9414(7) 0.3697(3)
H11_22 H 0.3389 0.9862 0.3599
Co2_8 Co 0.08751(5) 0.79768(5) 0.25187(2)
O5_14 O 0.5565(3) 0.8530(3) 0.50592(11)
O6_14 O 0.4103(3) 0.7537(3) 0.52359(13)
N4_12 N 0.4134(4) 0.9093(3) 0.53393(14)
O1_15 O 0.0565(3) 0.1470(3) 0.50592(11)
O2_15 O 0.0897(3) 0.2537(3) 0.52359(13)
N1_23 N 0.3843(4) 0.0037(3) 0.55948(13)
C1_23 C 0.0999(4) 0.1876(4) 0.51895(16)
C2_23 C 0.1774(4) 0.0845(4) 0.53434(17)
H1_23 H 0.1396 0.0518 0.5293
C3_23 C 0.1682(4) 0.1579(4) 0.53055(15)
C4_23 C 0.2997(4) 0.1062(4) 0.55295(16)
O3_23 O 0.4360(4) 0.1656(4) 0.71020(17)
C5_23 C 0.3763(5) 0.1325(4) 0.66471(18)
C6_23 C 0.3697(5) 0.0815(4) 0.56667(17)
H2_23 H 0.4090 0.1107 0.5569
C7_23 C 0.2435(4) 0.0588(4) 0.54574(19)
H3_23 H 0.2501 0.0084 0.5486
H4_23 H 0.4336 0.0080 0.5177
C9_23 C 0.2903(5) 0.1783(5) 0.5486(2)
H5_23 H 0.3285 0.2108 0.5532
C10_23 C 0.3726(5) 0.0950(4) 0.60181(18)
O4_23 O 0.3233(5) 0.1820(5) 0.71148(17)
C11_23 C 0.2262(4) 0.2042(5) 0.53777(19)
H6_23 H 0.2204 0.2547 0.5350
C12_23 C 0.3777(5) 0.1597(5) 0.6979(2)
C13_23 C 0.4347(5) 0.1329(8) 0.6463(2)
H7_23 H 0.4797 0.1467 0.6551
C15_23 C 0.3087(7) 0.1190(7) 0.6519(3)
H9_23 H 0.2654 0.1225 0.6636
C16_23 C 0.4329(5) 0.1146(7) 0.6155(2)
H10_23 H 0.4763 0.1162 0.6038
C17_23 C 0.3086(7) 0.0994(7) 0.6197(3)
H11_23 H 0.2638 0.0889 0.6099
O5_15 O 0.3970(3) 0.3065(3) 0.75592(11)
O6_15 O 0.4963(3) 0.1603(3) 0.77359(13)
C8_23 C 0.4142(4) 0.9789(4) 0.53388(18)
N3_23 N 0.3590(5) 0.9508(4) 0.57691(18)
C14_23 C 0.3776(6) 0.8944(6) 0.5606(2)
H8_23 H 0.3668 0.8465 0.5669
C8_24 C 0.0858(4) 0.0211(4) 0.03388(18)
N3_24 N 0.1410(5) 0.0492(4) 0.07691(18)
C14_24 C 0.1224(6) 0.1056(6) 0.0606(2)
H8_24 H 0.1332 0.1535 0.0669
O1_16 O 0.4435(3) 0.8530(3) 0.00592(11)
O2_16 O 0.4103(3) 0.7463(3) 0.02359(13)
N1_24 N 0.1157(4) 0.9963(3) 0.05948(13)
C1_24 C 0.4001(4) 0.8124(4) 0.01895(16)
C2_24 C 0.3226(4) 0.9155(4) 0.03434(17)
H1_24 H 0.3604 0.9482 0.0293
C3_24 C 0.3318(4) 0.8421(4) 0.03055(15)
C4_24 C 0.2003(4) 0.8938(4) 0.05295(16)
O3_24 O 0.0640(4) 0.8344(4) 0.21020(17)
C5_24 C 0.1237(5) 0.8675(4) 0.16471(18)
C6_24 C 0.1303(5) 0.9185(4) 0.06667(17)
H2_24 H 0.0910 0.8893 0.0569
C7_24 C 0.2565(4) 0.9412(4) 0.04574(19)
H3_24 H 0.2499 0.9916 0.0486
H4_24 H 0.0664 0.9920 0.0177
C9_24 C 0.2097(5) 0.8217(5) 0.0486(2)
H5_24 H 0.1715 0.7892 0.0532
C10_24 C 0.1274(5) 0.9050(4) 0.10181(18)
O4_24 O 0.1767(5) 0.8180(5) 0.21148(17)
C11_24 C 0.2738(4) 0.7958(5) 0.03777(19)
H6_24 H 0.2796 0.7453 0.0350
C12_24 C 0.1223(5) 0.8403(5) 0.1979(2)
C13_24 C 0.0653(5) 0.8671(8) 0.1463(2)
H7_24 H 0.0203 0.8533 0.1551
C15_24 C 0.1913(7) 0.8810(7) 0.1519(3)
H9_24 H 0.2346 0.8775 0.1636
C16_24 C 0.0671(5) 0.8854(7) 0.1155(2)
H10_24 H 0.0237 0.8838 0.1038
C17_24 C 0.1914(7) 0.9006(7) 0.1197(3)
H11_24 H 0.2362 0.9111 0.1099
O5_16 O 0.1030(3) 0.6935(3) 0.25592(11)
O6_16 O 0.0037(3) 0.8397(3) 0.27359(13)
N1_25 N 0.2463(3) 0.3657(4) 0.30948(13)
C1_25 C 0.0624(4) 0.6501(4) 0.26895(16)
N2_13 N 0.3407(3) 0.3366(4) 0.28393(14)
C2_25 C 0.1655(4) 0.5726(4) 0.28434(17)
H1_25 H 0.1982 0.6104 0.2793
C3_25 C 0.0921(4) 0.5818(4) 0.28055(15)
C4_25 C 0.1438(4) 0.4503(4) 0.30295(16)
O3_25 O 0.0844(4) 0.3140(4) 0.46020(17)
C5_25 C 0.1175(4) 0.3737(5) 0.41471(18)
C6_25 C 0.1685(4) 0.3803(5) 0.31667(17)
H2_25 H 0.1393 0.3410 0.3069
C7_25 C 0.1912(4) 0.5065(4) 0.29574(19)
H3_25 H 0.2416 0.4999 0.2986
C8_25 C 0.2711(4) 0.3358(4) 0.28388(18)
H4_25 H 0.2420 0.3164 0.2677
C9_25 C 0.0717(5) 0.4597(5) 0.2986(2)
H5_25 H 0.0392 0.4215 0.3032
N3_25 N 0.2992(4) 0.3910(5) 0.32691(18)
C10_25 C 0.1550(4) 0.3774(5) 0.35181(18)
O4_25 O 0.0680(5) 0.4267(5) 0.46148(17)
C11_25 C 0.0458(5) 0.5238(4) 0.28777(19)
C12_25 C 0.0903(5) 0.3723(5) 0.4479(2)
C13_25 C 0.1171(8) 0.3153(5) 0.3963(2)
H7_25 H 0.1033 0.2703 0.4051
C14_25 C 0.3556(6) 0.3724(6) 0.3106(2)
H8_25 H 0.4035 0.3832 0.3169
C15_25 C 0.1310(7) 0.4413(7) 0.4019(3)
H9_25 H 0.1275 0.4846 0.4136
C16_25 C 0.1354(7) 0.3171(5) 0.3655(2)
H10_25 H 0.1338 0.2737 0.3538
C17_25 C 0.1506(7) 0.4414(7) 0.3697(3)
H11_25 H 0.1611 0.4862 0.3599
N4_13 N 0.0866(4) 0.4093(3) 0.53393(14)
H6_25 H 0.9953 0.5296 0.2850
N4_14 N 0.4134(4) 0.5907(3) 0.03393(14)
N1_26 N 0.2537(3) 0.6343(4) 0.80948(13)
C1_26 C 0.4376(4) 0.3499(4) 0.76895(16)
N2_14 N 0.1593(3) 0.6634(4) 0.78393(14)
C2_26 C 0.3345(4) 0.4274(4) 0.78434(17)
H1_26 H 0.3018 0.3896 0.7793
C3_26 C 0.4079(4) 0.4182(4) 0.78055(15)
C4_26 C 0.3562(4) 0.5497(4) 0.80295(16)
O3_26 O 0.4156(4) 0.6860(4) 0.96020(17)
C5_26 C 0.3825(4) 0.6263(5) 0.91471(18)
C6_26 C 0.3315(4) 0.6197(5) 0.81667(17)
H2_26 H 0.3607 0.6590 0.8069
C7_26 C 0.3088(4) 0.4935(4) 0.79574(19)
H3_26 H 0.2584 0.5001 0.7986
C8_26 C 0.2289(4) 0.6642(4) 0.78388(18)
H4_26 H 0.2580 0.6836 0.7677
C9_26 C 0.4283(5) 0.5403(5) 0.7986(2)
H5_26 H 0.4608 0.5785 0.8032
N3_26 N 0.2008(4) 0.6090(5) 0.82691(18)
C10_26 C 0.3450(4) 0.6226(5) 0.85181(18)
O4_26 O 0.4320(5) 0.5733(5) 0.96148(17)
C11_26 C 0.4542(5) 0.4762(4) 0.78777(19)
H6_26 H 0.5047 0.4704 0.7850
C12_26 C 0.4097(5) 0.6277(5) 0.9479(2)
C13_26 C 0.3829(8) 0.6847(5) 0.8963(2)
H7_26 H 0.3967 0.7297 0.9051
C14_26 C 0.1444(6) 0.6276(6) 0.8106(2)
H8_26 H 0.0965 0.6168 0.8169
C15_26 C 0.3690(7) 0.5587(7) 0.9019(3)
H9_26 H 0.3725 0.5154 0.9136
C16_26 C 0.3646(7) 0.6829(5) 0.8655(2)
H10_26 H 0.3662 0.7263 0.8538
C17_26 C 0.3494(7) 0.5586(7) 0.8697(3)
H11_26 H 0.3389 0.5138 0.8599
N1_27 N 0.3843(4) 0.4963(3) 0.05948(13)
C1_27 C 0.0999(4) 0.3124(4) 0.01895(16)
C2_27 C 0.1774(4) 0.4155(4) 0.03434(17)
H1_27 H 0.1396 0.4482 0.0293
C3_27 C 0.1682(4) 0.3421(4) 0.03055(15)
C4_27 C 0.2997(4) 0.3938(4) 0.05295(16)
O3_27 O 0.4360(4) 0.3344(4) 0.21020(17)
C5_27 C 0.3763(5) 0.3675(4) 0.16471(18)
C6_27 C 0.3697(5) 0.4185(4) 0.06667(17)
H2_27 H 0.4090 0.3893 0.0569
C7_27 C 0.2435(4) 0.4412(4) 0.04574(19)
H3_27 H 0.2501 0.4916 0.0486
C8_27 C 0.4142(4) 0.5211(4) 0.03388(18)
H4_27 H 0.4336 0.4920 0.0177
C9_27 C 0.2903(5) 0.3217(5) 0.0486(2)
H5_27 H 0.3285 0.2892 0.0532
N3_27 N 0.3590(5) 0.5492(4) 0.07691(18)
C10_27 C 0.3726(5) 0.4050(4) 0.10181(18)
O4_27 O 0.3233(5) 0.3180(5) 0.21148(17)
C11_27 C 0.2262(4) 0.2958(5) 0.03777(19)
H6_27 H 0.2204 0.2453 0.0350
C12_27 C 0.3777(5) 0.3403(5) 0.1979(2)
C13_27 C 0.4347(5) 0.3671(8) 0.1463(2)
H7_27 H 0.4797 0.3533 0.1551
C14_27 C 0.3776(6) 0.6056(6) 0.0606(2)
H8_27 H 0.3668 0.6535 0.0669
C15_27 C 0.3087(7) 0.3810(7) 0.1519(3)
H9_27 H 0.2654 0.3775 0.1636
C16_27 C 0.4329(5) 0.3854(7) 0.1155(2)
H10_27 H 0.4763 0.3838 0.1038
C17_27 C 0.3086(7) 0.4006(7) 0.1197(3)
H11_27 H 0.2638 0.4111 0.1099
N1_28 N 0.1157(4) 0.5037(3) 0.55948(13)
C1_28 C 0.4001(4) 0.6876(4) 0.51895(16)
C2_28 C 0.3226(4) 0.5845(4) 0.53434(17)
H1_28 H 0.3604 0.5518 0.5293
C3_28 C 0.3318(4) 0.6579(4) 0.53055(15)
C4_28 C 0.2003(4) 0.6062(4) 0.55295(16)
O3_28 O 0.0640(4) 0.6656(4) 0.71020(17)
C5_28 C 0.1237(5) 0.6325(4) 0.66471(18)
C6_28 C 0.1303(5) 0.5815(4) 0.56667(17)
H2_28 H 0.0910 0.6107 0.5569
C7_28 C 0.2565(4) 0.5588(4) 0.54574(19)
H3_28 H 0.2499 0.5084 0.5486
C8_28 C 0.0858(4) 0.4789(4) 0.53388(18)
H4_28 H 0.0664 0.5080 0.5177
C9_28 C 0.2097(5) 0.6783(5) 0.5486(2)
H5_28 H 0.1715 0.7108 0.5532
N3_28 N 0.1410(5) 0.4508(4) 0.57691(18)
C10_28 C 0.1274(5) 0.5950(4) 0.60181(18)
O4_28 O 0.1767(5) 0.6820(5) 0.71148(17)
C11_28 C 0.2738(4) 0.7042(5) 0.53777(19)
H6_28 H 0.2796 0.7547 0.5350
C12_28 C 0.1223(5) 0.6597(5) 0.6979(2)
C13_28 C 0.0653(5) 0.6329(8) 0.6463(2)
H7_28 H 0.0203 0.6467 0.6551
C14_28 C 0.1224(6) 0.3944(6) 0.5606(2)
H8_28 H 0.1332 0.3465 0.5669
C15_28 C 0.1913(7) 0.6190(7) 0.6519(3)
H9_28 H 0.2346 0.6225 0.6636
C16_28 C 0.0671(5) 0.6146(7) 0.6155(2)
H10_28 H 0.0237 0.6162 0.6038
C17_28 C 0.1914(7) 0.5994(7) 0.6197(3)
H11_28 H 0.2362 0.5889 0.6099
C1_29 C 0.5624(4) 0.1501(4) 0.76895(16)
C2_29 C 0.6655(4) 0.0726(4) 0.78434(17)
H1_29 H 0.6982 0.1104 0.7793
C3_29 C 0.5921(4) 0.0818(4) 0.78055(15)
C7_29 C 0.6912(4) 0.0065(4) 0.79574(19)
C11_29 C 0.5458(5) 0.0238(4) 0.78777(19)
H6_29 H 0.4953 0.0296 0.7850
N4_15 N 0.5866(4) 0.9093(3) 0.03393(14)
N1_29 N 0.7463(3) 0.8657(4) 0.80948(13)
N2_15 N 0.8407(3) 0.8366(4) 0.78393(14)
C4_29 C 0.6438(4) 0.9503(4) 0.80295(16)
O3_29 O 0.5844(4) 0.8140(4) 0.96020(17)
C5_29 C 0.6175(4) 0.8737(5) 0.91471(18)
C6_29 C 0.6685(4) 0.8803(5) 0.81667(17)
H2_29 H 0.6393 0.8410 0.8069
H3_29 H 0.7416 0.9999 0.7986
C8_29 C 0.7711(4) 0.8358(4) 0.78388(18)
H4_29 H 0.7420 0.8164 0.7677
C9_29 C 0.5717(5) 0.9597(5) 0.7986(2)
H5_29 H 0.5392 0.9215 0.8032
N3_29 N 0.7992(4) 0.8910(5) 0.82691(18)
C10_29 C 0.6550(4) 0.8774(5) 0.85181(18)
O4_29 O 0.5680(5) 0.9267(5) 0.96148(17)
C12_29 C 0.5903(5) 0.8723(5) 0.9479(2)
C13_29 C 0.6171(8) 0.8153(5) 0.8963(2)
H7_29 H 0.6033 0.7703 0.9051
C14_29 C 0.8556(6) 0.8724(6) 0.8106(2)
H8_29 H 0.9035 0.8832 0.8169
C15_29 C 0.6310(7) 0.9413(7) 0.9019(3)
H9_29 H 0.6275 0.9846 0.9136
C16_29 C 0.6354(7) 0.8171(5) 0.8655(2)
H10_29 H 0.6338 0.7737 0.8538
C17_29 C 0.6506(7) 0.9414(7) 0.8697(3)
H11_29 H 0.6611 0.9862 0.8599
H6_30 H 0.0047 0.9704 0.2850
N1_30 N 0.7537(3) 0.1343(4) 0.30948(13)
N2_16 N 0.6593(3) 0.1634(4) 0.28393(14)
C4_30 C 0.8562(4) 0.0497(4) 0.30295(16)
O3_30 O 0.9156(4) 0.1860(4) 0.46020(17)
C5_30 C 0.8825(4) 0.1263(5) 0.41471(18)
C6_30 C 0.8315(4) 0.1197(5) 0.31667(17)
H2_30 H 0.8607 0.1590 0.3069
H3_30 H 0.7584 0.0001 0.2986
C8_30 C 0.7289(4) 0.1642(4) 0.28388(18)
H4_30 H 0.7580 0.1836 0.2677
C9_30 C 0.9283(5) 0.0403(5) 0.2986(2)
H5_30 H 0.9608 0.0785 0.3032
N3_30 N 0.7008(4) 0.1090(5) 0.32691(18)
C10_30 C 0.8450(4) 0.1226(5) 0.35181(18)
O4_30 O 0.9320(5) 0.0733(5) 0.46148(17)
C12_30 C 0.9097(5) 0.1277(5) 0.4479(2)
C13_30 C 0.8829(8) 0.1847(5) 0.3963(2)
H7_30 H 0.8967 0.2297 0.4051
C14_30 C 0.6444(6) 0.1276(6) 0.3106(2)
H8_30 H 0.5965 0.1168 0.3169
C15_30 C 0.8690(7) 0.0587(7) 0.4019(3)
H9_30 H 0.8725 0.0154 0.4136
C16_30 C 0.8646(7) 0.1829(5) 0.3655(2)
H10_30 H 0.8662 0.2263 0.3538
C17_30 C 0.8494(7) 0.0586(7) 0.3697(3)
H11_30 H 0.8389 0.0138 0.3599
N4_16 N 0.9134(4) 0.0907(3) 0.53393(14)
C1_30 C 0.9376(4) 0.8499(4) 0.26895(16)
C2_30 C 0.8345(4) 0.9274(4) 0.28434(17)
H1_30 H 0.8018 0.8896 0.2793
C3_30 C 0.9079(4) 0.9182(4) 0.28055(15)
C7_30 C 0.8088(4) 0.9935(4) 0.29574(19)
C11_30 C 0.9542(5) 0.9762(4) 0.28777(19)
C8_31 C 0.9142(4) 0.0211(4) 0.53388(18)
N3_31 N 0.8590(5) 0.0492(4) 0.57691(18)
C14_31 C 0.8776(6) 0.1056(6) 0.5606(2)
H8_31 H 0.8668 0.1535 0.5669
N1_31 N 0.8843(4) 0.9963(3) 0.55948(13)
C1_31 C 0.5999(4) 0.8124(4) 0.51895(16)
C2_31 C 0.6774(4) 0.9155(4) 0.53434(17)
H1_31 H 0.6396 0.9482 0.5293
C3_31 C 0.6682(4) 0.8421(4) 0.53055(15)
C4_31 C 0.7997(4) 0.8938(4) 0.55295(16)
O3_31 O 0.9360(4) 0.8344(4) 0.71020(17)
C5_31 C 0.8763(5) 0.8675(4) 0.66471(18)
C6_31 C 0.8697(5) 0.9185(4) 0.56667(17)
H2_31 H 0.9090 0.8893 0.5569
C7_31 C 0.7435(4) 0.9412(4) 0.54574(19)
H3_31 H 0.7501 0.9916 0.5486
H4_31 H 0.9336 0.9920 0.5177
C9_31 C 0.7903(5) 0.8217(5) 0.5486(2)
H5_31 H 0.8285 0.7892 0.5532
C10_31 C 0.8726(5) 0.9050(4) 0.60181(18)
O4_31 O 0.8233(5) 0.8180(5) 0.71148(17)
C11_31 C 0.7262(4) 0.7958(5) 0.53777(19)
H6_31 H 0.7204 0.7453 0.5350
C12_31 C 0.8777(5) 0.8403(5) 0.6979(2)
C13_31 C 0.9347(5) 0.8671(8) 0.6463(2)
H7_31 H 0.9797 0.8533 0.6551
C15_31 C 0.8087(7) 0.8810(7) 0.6519(3)
H9_31 H 0.7654 0.8775 0.6636
C16_31 C 0.9329(5) 0.8854(7) 0.6155(2)
H10_31 H 0.9763 0.8838 0.6038
C17_31 C 0.8086(7) 0.9006(7) 0.6197(3)
H11_31 H 0.7638 0.9111 0.6099
N1_32 N 0.6157(4) 0.0037(3) 0.05948(13)
C1_32 C 0.9001(4) 0.1876(4) 0.01895(16)
C2_32 C 0.8226(4) 0.0845(4) 0.03434(17)
H1_32 H 0.8604 0.0518 0.0293
C3_32 C 0.8318(4) 0.1579(4) 0.03055(15)
C4_32 C 0.7003(4) 0.1062(4) 0.05295(16)
O3_32 O 0.5640(4) 0.1656(4) 0.21020(17)
C5_32 C 0.6237(5) 0.1325(4) 0.16471(18)
C6_32 C 0.6303(5) 0.0815(4) 0.06667(17)
H2_32 H 0.5910 0.1107 0.0569
C7_32 C 0.7565(4) 0.0588(4) 0.04574(19)
H3_32 H 0.7499 0.0084 0.0486
H4_32 H 0.5664 0.0080 0.0177
C9_32 C 0.7097(5) 0.1783(5) 0.0486(2)
H5_32 H 0.6715 0.2108 0.0532
C10_32 C 0.6274(5) 0.0950(4) 0.10181(18)
O4_32 O 0.6767(5) 0.1820(5) 0.21148(17)
C11_32 C 0.7738(4) 0.2042(5) 0.03777(19)
H6_32 H 0.7796 0.2547 0.0350
C12_32 C 0.6223(5) 0.1597(5) 0.1979(2)
C13_32 C 0.5653(5) 0.1329(8) 0.1463(2)
H7_32 H 0.5203 0.1467 0.1551
C15_32 C 0.6913(7) 0.1190(7) 0.1519(3)
H9_32 H 0.7346 0.1225 0.1636
C16_32 C 0.5671(5) 0.1146(7) 0.1155(2)
H10_32 H 0.5237 0.1162 0.1038
C17_32 C 0.6914(7) 0.0994(7) 0.1197(3)
H11_32 H 0.7362 0.0889 0.1099
C8_32 C 0.5858(4) 0.9789(4) 0.03388(18)
N3_32 N 0.6410(5) 0.9508(4) 0.07691(18)
C14_32 C 0.6224(6) 0.8944(6) 0.0606(2)
H8_32 H 0.6332 0.8465 0.0669
loop_
_geom_bond_atom_site_label_1
_geom_bond_atom_site_label_2
_geom_bond_site_symmetry_1
_geom_bond_site_symmetry_2
Co3 O2 1_555 1_555
Co1 O3 1_555 1_555
O1 C1 1_555 1_555
N1 C6 1_555 1_555
C1 C3 1_555 1_555
N2 C8 1_555 1_555
C2 H1 1_555 1_555
C3 C2 1_555 1_555
C4 C6 1_555 1_555
O3 C12 1_555 1_555
C5 C12 1_555 1_555
C6 H2 1_555 1_555
C7 C2 1_555 1_555
H3 C7 1_555 1_555
C8 N1 1_555 1_555
H4 C8 1_555 1_555
C9 C4 1_555 1_555
H5 C9 1_555 1_555
N3 N1 1_555 1_555
C10 C6 1_555 1_555
O4 Co1 1_555 1_555
C11 C3 1_555 1_555
C12 O4 1_555 1_555
C13 C5 1_555 1_555
H7 C13 1_555 1_555
C14 N2 1_555 1_555
H8 C14 1_555 1_555
C15 C5 1_555 1_555
H9 C15 1_555 1_555
C16 C10 1_555 1_555
H10 C16 1_555 1_555
C17 C10 1_555 1_555
H11 C17 1_555 1_555
Co2 N2 1_555 1_555
Co4 O1 1_555 1_555
O6 Co1 1_555 1_555
N4 Co1 1_555 1_555
C4 C7 1_555 1_555
C9 C11 1_555 1_555
N3 C14 1_555 1_555
C13 C16 1_555 1_555
C15 C17 1_555 1_555
O1_2 C1_2 1_555 1_555
O2_2 C1_2 1_555 1_555
N1_2 C6_2 1_555 1_555
C1_2 C3_2 1_555 1_555
N2_2 C8_2 1_555 1_555
C2_2 H1_2 1_555 1_555
C3_2 C2_2 1_555 1_555
C4_2 C6_2 1_555 1_555
O3_2 C12_2 1_555 1_555
C5_2 C12_2 1_555 1_555
C6_2 H2_2 1_555 1_555
C7_2 C2_2 1_555 1_555
H3_2 C7_2 1_555 1_555
C8_2 N1_2 1_555 1_555
H4_2 C8_2 1_555 1_555
C9_2 C4_2 1_555 1_555
H5_2 C9_2 1_555 1_555
N3_2 N1_2 1_555 1_555
C10_2 C6_2 1_555 1_555
C11_2 C3_2 1_555 1_555
H6_2 C11_2 1_555 1_555
C12_2 O4_2 1_555 1_555
C13_2 C5_2 1_555 1_555
H7_2 C13_2 1_555 1_555
C14_2 N2_2 1_555 1_555
H8_2 C14_2 1_555 1_555
C15_2 C5_2 1_555 1_555
H9_2 C15_2 1_555 1_555
C16_2 C10_2 1_555 1_555
H10_2 C16_2 1_555 1_555
C17_2 C10_2 1_555 1_555
H11_2 C17_2 1_555 1_555
Co2_2 N2_2 1_555 1_555
Co3_2 O2_2 1_555 1_555
Co4_2 O1_2 1_555 1_555
C4_2 C7_2 1_555 1_555
C9_2 C11_2 1_555 1_555
N3_2 C14_2 1_555 1_555
C13_2 C16_2 1_555 1_555
C15_2 C17_2 1_555 1_555
O5_2 Co1_2 1_555 1_555
O6_2 Co1_2 1_555 1_555
N4_2 Co1_2 1_555 1_555
Co2 O3_3 1_555 1_555
O1_3 C1_3 1_555 1_555
O2_3 C1_3 1_555 1_555
N1_3 C6_3 1_555 1_555
C1_3 C3_3 1_555 1_555
N4_2 C8_3 1_555 1_555
C2_3 H1_3 1_555 1_555
C3_3 C2_3 1_555 1_555
C4_3 C6_3 1_555 1_555
O3_3 C12_3 1_555 1_555
C5_3 C12_3 1_555 1_555
C6_3 H2_3 1_555 1_555
C7_3 C2_3 1_555 1_555
H3_3 C7_3 1_555 1_555
C8_3 N1_3 1_555 1_555
H4_3 C8_3 1_555 1_555
C9_3 C4_3 1_555 1_555
H5_3 C9_3 1_555 1_555
N3_3 N1_3 1_555 1_555
C10_3 C6_3 1_555 1_555
O4_3 Co2 1_555 1_555
C11_3 C3_3 1_555 1_555
H6_3 C11_3 1_555 1_555
C12_3 O4_3 1_555 1_555
C13_3 C5_3 1_555 1_555
H7_3 C13_3 1_555 1_555
C14_3 N4_2 1_555 1_555
H8_3 C14_3 1_555 1_555
C15_3 C5_3 1_555 1_555
H9_3 C15_3 1_555 1_555
C16_3 C10_3 1_555 1_555
H10_3 C16_3 1_555 1_555
C17_3 C10_3 1_555 1_555
H11_3 C17_3 1_555 1_555
Co3_3 O2_3 1_555 1_555
O5_3 Co2 1_555 1_555
O6_3 Co2 1_555 1_555
C4_3 C7_3 1_555 1_555
C9_3 C11_3 1_555 1_555
N3_3 C14_3 1_555 1_555
C13_3 C16_3 1_555 1_555
C15_3 C17_3 1_555 1_555
Co2_2 O3_4 1_555 1_555
O1_4 C1_4 1_555 1_555
O2_4 C1_4 1_555 1_555
N1_4 C6_4 1_555 1_555
C1_4 C3_4 1_555 1_555
N4 C8_4 1_555 1_555
C2_4 H1_4 1_555 1_555
C3_4 C2_4 1_555 1_555
C4_4 C6_4 1_555 1_555
O3_4 C12_4 1_555 1_555
C5_4 C12_4 1_555 1_555
C6_4 H2_4 1_555 1_555
C7_4 C2_4 1_555 1_555
H3_4 C7_4 1_555 1_555
C8_4 N1_4 1_555 1_555
H4_4 C8_4 1_555 1_555
C9_4 C4_4 1_555 1_555
H5_4 C9_4 1_555 1_555
N3_4 N1_4 1_555 1_555
C10_4 C6_4 1_555 1_555
O4_4 Co2_2 1_555 1_555
C11_4 C3_4 1_555 1_555
H6_4 C11_4 1_555 1_555
C12_4 O4_4 1_555 1_555
C13_4 C5_4 1_555 1_555
H7_4 C13_4 1_555 1_555
C14_4 N4 1_555 1_555
H8_4 C14_4 1_555 1_555
C15_4 C5_4 1_555 1_555
H9_4 C15_4 1_555 1_555
C16_4 C10_4 1_555 1_555
H10_4 C16_4 1_555 1_555
C17_4 C10_4 1_555 1_555
H11_4 C17_4 1_555 1_555
Co3_4 O2_4 1_555 1_555
Co4_4 O1_4 1_555 1_555
O5_4 Co2_2 1_555 1_555
O6_4 Co2_2 1_555 1_555
C4_4 C7_4 1_555 1_555
C9_4 C11_4 1_555 1_555
N3_4 C14_4 1_555 1_555
C13_4 C16_4 1_555 1_555
C15_4 C17_4 1_555 1_555
N1_5 C6_5 1_555 1_555
N2_3 C8_5 1_555 1_555
C4_5 C6_5 1_555 1_555
O3_5 C12_5 1_555 1_555
C5_5 C12_5 1_555 1_555
C6_5 H2_5 1_555 1_555
C8_5 N1_5 1_555 1_555
H4_5 C8_5 1_555 1_555
C9_5 C4_5 1_555 1_555
H5_5 C9_5 1_555 1_555
N3_5 N1_5 1_555 1_555
C10_5 C6_5 1_555 1_555
C12_5 O4_5 1_555 1_555
C13_5 C5_5 1_555 1_555
H7_5 C13_5 1_555 1_555
C14_5 N2_3 1_555 1_555
H8_5 C14_5 1_555 1_555
C15_5 C5_5 1_555 1_555
H9_5 C15_5 1_555 1_555
C16_5 C10_5 1_555 1_555
H10_5 C16_5 1_555 1_555
C17_5 C10_5 1_555 1_555
H11_5 C17_5 1_555 1_555
Co2_3 N2_3 1_555 1_555
N3_5 C14_5 1_555 1_555
C13_5 C16_5 1_555 1_555
C15_5 C17_5 1_555 1_555
O5_5 Co1_3 1_555 1_555
O6_5 Co1_3 1_555 1_555
N4_3 Co1_3 1_555 1_555
O1_5 C1_5 1_555 1_555
O2_5 C1_5 1_555 1_555
C1_5 C3_5 1_555 1_555
C2_5 H1_5 1_555 1_555
C3_5 C2_5 1_555 1_555
C7_5 C2_5 1_555 1_555
C11_5 C3_5 1_555 1_555
H6_5 C11_5 1_555 1_555
Co4_2 O2_5 1_555 1_555
Co3_2 O1_5 1_555 1_555
O1_6 C1_6 1_555 1_555
C1_6 C3_6 1_555 1_555
C2_6 H1_6 1_555 1_555
C3_6 C2_6 1_555 1_555
C7_6 C2_6 1_555 1_555
C11_6 C3_6 1_555 1_555
Co3 O1_6 1_555 1_555
Co1_4 O3_6 1_555 1_555
N1_6 C6_6 1_555 1_555
N2_4 C8_6 1_555 1_555
C4_6 C6_6 1_555 1_555
O3_6 C12_6 1_555 1_555
C5_6 C12_6 1_555 1_555
C6_6 H2_6 1_555 1_555
C8_6 N1_6 1_555 1_555
H4_6 C8_6 1_555 1_555
C9_6 C4_6 1_555 1_555
H5_6 C9_6 1_555 1_555
N3_6 N1_6 1_555 1_555
C10_6 C6_6 1_555 1_555
O4_6 Co1_4 1_555 1_555
C12_6 O4_6 1_555 1_555
C13_6 C5_6 1_555 1_555
H7_6 C13_6 1_555 1_555
C14_6 N2_4 1_555 1_555
H8_6 C14_6 1_555 1_555
C15_6 C5_6 1_555 1_555
H9_6 C15_6 1_555 1_555
C16_6 C10_6 1_555 1_555
H10_6 C16_6 1_555 1_555
C17_6 C10_6 1_555 1_555
H11_6 C17_6 1_555 1_555
Co2_4 N2_4 1_555 1_555
O6_6 Co1_4 1_555 1_555
N4_4 Co1_4 1_555 1_555
N3_6 C14_6 1_555 1_555
C13_6 C16_6 1_555 1_555
C15_6 C17_6 1_555 1_555
Co4 O2_6 1_555 1_555
Co2_3 O3_7 1_555 1_555
O1_7 C1_7 1_555 1_555
O2_7 C1_7 1_555 1_555
N1_7 C6_7 1_555 1_555
C1_7 C3_7 1_555 1_555
C2_7 H1_7 1_555 1_555
C3_7 C2_7 1_555 1_555
C4_7 C6_7 1_555 1_555
O3_7 C12_7 1_555 1_555
C5_7 C12_7 1_555 1_555
C6_7 H2_7 1_555 1_555
C7_7 C2_7 1_555 1_555
H3_7 C7_7 1_555 1_555
C9_7 C4_7 1_555 1_555
H5_7 C9_7 1_555 1_555
C10_7 C6_7 1_555 1_555
O4_7 Co2_3 1_555 1_555
C11_7 C3_7 1_555 1_555
H6_7 C11_7 1_555 1_555
C12_7 O4_7 1_555 1_555
C13_7 C5_7 1_555 1_555
H7_7 C13_7 1_555 1_555
C15_7 C5_7 1_555 1_555
H9_7 C15_7 1_555 1_555
C16_7 C10_7 1_555 1_555
H10_7 C16_7 1_555 1_555
C17_7 C10_7 1_555 1_555
H11_7 C17_7 1_555 1_555
Co4_4 O2_7 1_555 1_555
Co3_4 O1_7 1_555 1_555
O5_7 Co2_3 1_555 1_555
O6_7 Co2_3 1_555 1_555
C4_7 C7_7 1_555 1_555
C9_7 C11_7 1_555 1_555
C13_7 C16_7 1_555 1_555
C15_7 C17_7 1_555 1_555
N4_4 C8_7 1_555 1_555
C14_7 N4_4 1_555 1_555
H8_7 C14_7 1_555 1_555
N3_7 C14_7 1_555 1_555
N4_3 C8_8 1_555 1_555
C14_8 N4_3 1_555 1_555
H8_8 C14_8 1_555 1_555
N3_8 C14_8 1_555 1_555
Co2_4 O3_8 1_555 1_555
O1_8 C1_8 1_555 1_555
O2_8 C1_8 1_555 1_555
N1_8 C6_8 1_555 1_555
C1_8 C3_8 1_555 1_555
C2_8 H1_8 1_555 1_555
C3_8 C2_8 1_555 1_555
C4_8 C6_8 1_555 1_555
O3_8 C12_8 1_555 1_555
C5_8 C12_8 1_555 1_555
C6_8 H2_8 1_555 1_555
C7_8 C2_8 1_555 1_555
H3_8 C7_8 1_555 1_555
C9_8 C4_8 1_555 1_555
H5_8 C9_8 1_555 1_555
C10_8 C6_8 1_555 1_555
O4_8 Co2_4 1_555 1_555
C11_8 C3_8 1_555 1_555
H6_8 C11_8 1_555 1_555
C12_8 O4_8 1_555 1_555
C13_8 C5_8 1_555 1_555
H7_8 C13_8 1_555 1_555
C15_8 C5_8 1_555 1_555
H9_8 C15_8 1_555 1_555
C16_8 C10_8 1_555 1_555
H10_8 C16_8 1_555 1_555
C17_8 C10_8 1_555 1_555
H11_8 C17_8 1_555 1_555
Co4_3 O2_8 1_555 1_555
O5_8 Co2_4 1_555 1_555
O6_8 Co2_4 1_555 1_555
C4_8 C7_8 1_555 1_555
C9_8 C11_8 1_555 1_555
C13_8 C16_8 1_555 1_555
C15_8 C17_8 1_555 1_555
Co4_4 O3_9 1_555 1_555
O5_8 C1_9 1_555 1_555
O6_3 C1_9 1_555 1_555
N1_9 C6_9 1_555 1_555
C1_9 C3_9 1_555 1_555
N2_5 C8_9 1_555 1_555
C2_9 H1_9 1_555 1_555
C3_9 C2_9 1_555 1_555
C4_9 C6_9 1_555 1_555
O3_9 C12_9 1_555 1_555
C5_9 C12_9 1_555 1_555
C6_9 H2_9 1_555 1_555
C7_9 C2_9 1_555 1_555
H3_9 C7_9 1_555 1_555
C8_9 N1_9 1_555 1_555
H4_9 C8_9 1_555 1_555
C9_9 C4_9 1_555 1_555
H5_9 C9_9 1_555 1_555
N3_9 N1_9 1_555 1_555
C10_9 C6_9 1_555 1_555
O4_9 Co4_4 1_555 1_555
C11_9 C3_9 1_555 1_555
H6_9 C11_9 1_555 1_555
C12_9 O4_9 1_555 1_555
C13_9 C5_9 1_555 1_555
H7_9 C13_9 1_555 1_555
C14_9 N2_5 1_555 1_555
H8_9 C14_9 1_555 1_555
C15_9 C5_9 1_555 1_555
H9_9 C15_9 1_555 1_555
C16_9 C10_9 1_555 1_555
H10_9 C16_9 1_555 1_555
C17_9 C10_9 1_555 1_555
H11_9 C17_9 1_555 1_555
Co3 N2_5 1_555 1_555
N4_5 Co4_4 1_555 1_555
C4_9 C7_9 1_555 1_555
C9_9 C11_9 1_555 1_555
N3_9 C14_9 1_555 1_555
C13_9 C16_9 1_555 1_555
C15_9 C17_9 1_555 1_555
O5_7 C1_10 1_555 1_555
N1_10 C6_10 1_555 1_555
C1_10 C3_10 1_555 1_555
N2_6 C8_10 1_555 1_555
C2_10 H1_10 1_555 1_555
C3_10 C2_10 1_555 1_555
C4_10 C6_10 1_555 1_555
O3_10 C12_10 1_555 1_555
C5_10 C12_10 1_555 1_555
C6_10 H2_10 1_555 1_555
C7_10 C2_10 1_555 1_555
H3_10 C7_10 1_555 1_555
C8_10 N1_10 1_555 1_555
H4_10 C8_10 1_555 1_555
C9_10 C4_10 1_555 1_555
H5_10 C9_10 1_555 1_555
N3_10 N1_10 1_555 1_555
C10_10 C6_10 1_555 1_555
C11_10 C3_10 1_555 1_555
C12_10 O4_10 1_555 1_555
C13_10 C5_10 1_555 1_555
H7_10 C13_10 1_555 1_555
C14_10 N2_6 1_555 1_555
H8_10 C14_10 1_555 1_555
C15_10 C5_10 1_555 1_555
H9_10 C15_10 1_555 1_555
C16_10 C10_10 1_555 1_555
H10_10 C16_10 1_555 1_555
C17_10 C10_10 1_555 1_555
H11_10 C17_10 1_555 1_555
Co3_2 N2_6 1_555 1_555
C4_10 C7_10 1_555 1_555
C9_10 C11_10 1_555 1_555
N3_10 C14_10 1_555 1_555
C13_10 C16_10 1_555 1_555
C15_10 C17_10 1_555 1_555
N4_6 Co4_3 1_555 1_555
Co3 O3_11 1_555 1_555
O5_2 C1_11 1_555 1_555
O6_5 C1_11 1_555 1_555
N1_11 C6_11 1_555 1_555
C1_11 C3_11 1_555 1_555
N4_6 C8_11 1_555 1_555
C2_11 H1_11 1_555 1_555
C3_11 C2_11 1_555 1_555
C4_11 C6_11 1_555 1_555
O3_11 C12_11 1_555 1_555
C5_11 C12_11 1_555 1_555
C6_11 H2_11 1_555 1_555
C7_11 C2_11 1_555 1_555
H3_11 C7_11 1_555 1_555
C8_11 N1_11 1_555 1_555
H4_11 C8_11 1_555 1_555
C9_11 C4_11 1_555 1_555
H5_11 C9_11 1_555 1_555
N3_11 N1_11 1_555 1_555
C10_11 C6_11 1_555 1_555
O4_11 Co3 1_555 1_555
C11_11 C3_11 1_555 1_555
H6_11 C11_11 1_555 1_555
C12_11 O4_11 1_555 1_555
C13_11 C5_11 1_555 1_555
H7_11 C13_11 1_555 1_555
C14_11 N4_6 1_555 1_555
H8_11 C14_11 1_555 1_555
C15_11 C5_11 1_555 1_555
H9_11 C15_11 1_555 1_555
C16_11 C10_11 1_555 1_555
H10_11 C16_11 1_555 1_555
C17_11 C10_11 1_555 1_555
H11_11 C17_11 1_555 1_555
C4_11 C7_11 1_555 1_555
C9_11 C11_11 1_555 1_555
N3_11 C14_11 1_555 1_555
C13_11 C16_11 1_555 1_555
C15_11 C17_11 1_555 1_555
Co3_2 O3_12 1_555 1_555
O5 C1_12 1_555 1_555
O6_6 C1_12 1_555 1_555
N1_12 C6_12 1_555 1_555
C1_12 C3_12 1_555 1_555
N4_5 C8_12 1_555 1_555
C2_12 H1_12 1_555 1_555
C3_12 C2_12 1_555 1_555
C4_12 C6_12 1_555 1_555
O3_12 C12_12 1_555 1_555
C5_12 C12_12 1_555 1_555
C6_12 H2_12 1_555 1_555
C7_12 C2_12 1_555 1_555
H3_12 C7_12 1_555 1_555
C8_12 N1_12 1_555 1_555
H4_12 C8_12 1_555 1_555
C9_12 C4_12 1_555 1_555
H5_12 C9_12 1_555 1_555
N3_12 N1_12 1_555 1_555
C10_12 C6_12 1_555 1_555
O4_12 Co3_2 1_555 1_555
C11_12 C3_12 1_555 1_555
H6_12 C11_12 1_555 1_555
C12_12 O4_12 1_555 1_555
C13_12 C5_12 1_555 1_555
H7_12 C13_12 1_555 1_555
C14_12 N4_5 1_555 1_555
H8_12 C14_12 1_555 1_555
C15_12 C5_12 1_555 1_555
H9_12 C15_12 1_555 1_555
C16_12 C10_12 1_555 1_555
H10_12 C16_12 1_555 1_555
C17_12 C10_12 1_555 1_555
H11_12 C17_12 1_555 1_555
C4_12 C7_12 1_555 1_555
C9_12 C11_12 1_555 1_555
N3_12 C14_12 1_555 1_555
C13_12 C16_12 1_555 1_555
C15_12 C17_12 1_555 1_555
O5_4 C1_13 1_555 1_555
C1_13 C3_13 1_555 1_555
C2_13 H1_13 1_555 1_555
C3_13 C2_13 1_555 1_555
C7_13 C2_13 1_555 1_555
C11_13 C3_13 1_555 1_555
N1_13 C6_13 1_555 1_555
N2_7 C8_13 1_555 1_555
C4_13 C6_13 1_555 1_555
O3_13 C12_13 1_555 1_555
C5_13 C12_13 1_555 1_555
C6_13 H2_13 1_555 1_555
C8_13 N1_13 1_555 1_555
H4_13 C8_13 1_555 1_555
C9_13 C4_13 1_555 1_555
H5_13 C9_13 1_555 1_555
N3_13 N1_13 1_555 1_555
C10_13 C6_13 1_555 1_555
C12_13 O4_13 1_555 1_555
C13_13 C5_13 1_555 1_555
H7_13 C13_13 1_555 1_555
C14_13 N2_7 1_555 1_555
H8_13 C14_13 1_555 1_555
C15_13 C5_13 1_555 1_555
H9_13 C15_13 1_555 1_555
C16_13 C10_13 1_555 1_555
H10_13 C16_13 1_555 1_555
C17_13 C10_13 1_555 1_555
H11_13 C17_13 1_555 1_555
Co4_2 N2_7 1_555 1_555
N3_13 C14_13 1_555 1_555
C13_13 C16_13 1_555 1_555
C15_13 C17_13 1_555 1_555
N4_7 Co3_3 1_555 1_555
Co3_4 O3_14 1_555 1_555
N1_14 C6_14 1_555 1_555
N2_8 C8_14 1_555 1_555
C4_14 C6_14 1_555 1_555
O3_14 C12_14 1_555 1_555
C5_14 C12_14 1_555 1_555
C6_14 H2_14 1_555 1_555
C8_14 N1_14 1_555 1_555
H4_14 C8_14 1_555 1_555
C9_14 C4_14 1_555 1_555
H5_14 C9_14 1_555 1_555
N3_14 N1_14 1_555 1_555
C10_14 C6_14 1_555 1_555
O4_14 Co3_4 1_555 1_555
C12_14 O4_14 1_555 1_555
C13_14 C5_14 1_555 1_555
H7_14 C13_14 1_555 1_555
C14_14 N2_8 1_555 1_555
H8_14 C14_14 1_555 1_555
C15_14 C5_14 1_555 1_555
H9_14 C15_14 1_555 1_555
C16_14 C10_14 1_555 1_555
H10_14 C16_14 1_555 1_555
C17_14 C10_14 1_555 1_555
H11_14 C17_14 1_555 1_555
Co4 N2_8 1_555 1_555
N4_8 Co3_4 1_555 1_555
N3_14 C14_14 1_555 1_555
C13_14 C16_14 1_555 1_555
C15_14 C17_14 1_555 1_555
O5_3 C1_14 1_555 1_555
O6_8 C1_14 1_555 1_555
C1_14 C3_14 1_555 1_555
C2_14 H1_14 1_555 1_555
C3_14 C2_14 1_555 1_555
C7_14 C2_14 1_555 1_555
C11_14 C3_14 1_555 1_555
H6_14 C11_14 1_555 1_555
N4_8 C8_15 1_555 1_555
C14_15 N4_8 1_555 1_555
H8_15 C14_15 1_555 1_555
N3_15 C14_15 1_555 1_555
Co4_2 O3_15 1_555 1_555
O5_6 C1_15 1_555 1_555
O6 C1_15 1_555 1_555
N1_15 C6_15 1_555 1_555
C1_15 C3_15 1_555 1_555
C2_15 H1_15 1_555 1_555
C3_15 C2_15 1_555 1_555
C4_15 C6_15 1_555 1_555
O3_15 C12_15 1_555 1_555
C5_15 C12_15 1_555 1_555
C6_15 H2_15 1_555 1_555
C7_15 C2_15 1_555 1_555
H3_15 C7_15 1_555 1_555
C9_15 C4_15 1_555 1_555
H5_15 C9_15 1_555 1_555
C10_15 C6_15 1_555 1_555
O4_15 Co4_2 1_555 1_555
C11_15 C3_15 1_555 1_555
H6_15 C11_15 1_555 1_555
C12_15 O4_15 1_555 1_555
C13_15 C5_15 1_555 1_555
H7_15 C13_15 1_555 1_555
C15_15 C5_15 1_555 1_555
H9_15 C15_15 1_555 1_555
C16_15 C10_15 1_555 1_555
H10_15 C16_15 1_555 1_555
C17_15 C10_15 1_555 1_555
H11_15 C17_15 1_555 1_555
C4_15 C7_15 1_555 1_555
C9_15 C11_15 1_555 1_555
C13_15 C16_15 1_555 1_555
C15_15 C17_15 1_555 1_555
Co4 O3_16 1_555 1_555
O5_5 C1_16 1_555 1_555
O6_2 C1_16 1_555 1_555
N1_16 C6_16 1_555 1_555
C1_16 C3_16 1_555 1_555
C2_16 H1_16 1_555 1_555
C3_16 C2_16 1_555 1_555
C4_16 C6_16 1_555 1_555
O3_16 C12_16 1_555 1_555
C5_16 C12_16 1_555 1_555
C6_16 H2_16 1_555 1_555
C7_16 C2_16 1_555 1_555
H3_16 C7_16 1_555 1_555
C9_16 C4_16 1_555 1_555
H5_16 C9_16 1_555 1_555
C10_16 C6_16 1_555 1_555
O4_16 Co4 1_555 1_555
C11_16 C3_16 1_555 1_555
H6_16 C11_16 1_555 1_555
C12_16 O4_16 1_555 1_555
C13_16 C5_16 1_555 1_555
H7_16 C13_16 1_555 1_555
C15_16 C5_16 1_555 1_555
H9_16 C15_16 1_555 1_555
C16_16 C10_16 1_555 1_555
H10_16 C16_16 1_555 1_555
C17_16 C10_16 1_555 1_555
H11_16 C17_16 1_555 1_555
C4_16 C7_16 1_555 1_555
C9_16 C11_16 1_555 1_555
C13_16 C16_16 1_555 1_555
C15_16 C17_16 1_555 1_555
N4_7 C8_16 1_555 1_555
C14_16 N4_7 1_555 1_555
H8_16 C14_16 1_555 1_555
N3_16 C14_16 1_555 1_555
Co1_5 O3_17 1_555 1_555
O1_9 C1_17 1_555 1_555
O2_9 C1_17 1_555 1_555
N1_17 C6_17 1_555 1_555
C1_17 C3_17 1_555 1_555
N2_9 C8_17 1_555 1_555
C2_17 H1_17 1_555 1_555
C3_17 C2_17 1_555 1_555
C4_17 C6_17 1_555 1_555
O3_17 C12_17 1_555 1_555
C5_17 C12_17 1_555 1_555
C6_17 H2_17 1_555 1_555
C7_17 C2_17 1_555 1_555
H3_17 C7_17 1_555 1_555
C8_17 N1_17 1_555 1_555
H4_17 C8_17 1_555 1_555
C9_17 C4_17 1_555 1_555
H5_17 C9_17 1_555 1_555
N3_17 N1_17 1_555 1_555
C10_17 C6_17 1_555 1_555
O4_17 Co1_5 1_555 1_555
C11_17 C3_17 1_555 1_555
H6_17 C11_17 1_555 1_555
C12_17 O4_17 1_555 1_555
C13_17 C5_17 1_555 1_555
H7_17 C13_17 1_555 1_555
C14_17 N2_9 1_555 1_555
H8_17 C14_17 1_555 1_555
C15_17 C5_17 1_555 1_555
H9_17 C15_17 1_555 1_555
C16_17 C10_17 1_555 1_555
H10_17 C16_17 1_555 1_555
C17_17 C10_17 1_555 1_555
H11_17 C17_17 1_555 1_555
Co2_5 N2_9 1_555 1_555
Co3_5 O2_9 1_555 1_555
Co4_5 O1_9 1_555 1_555
O5_9 Co1_5 1_555 1_555
O6_9 Co1_5 1_555 1_555
N4_9 Co1_5 1_555 1_555
C4_17 C7_17 1_555 1_555
C9_17 C11_17 1_555 1_555
N3_17 C14_17 1_555 1_555
C13_17 C16_17 1_555 1_555
C15_17 C17_17 1_555 1_555
Co3_6 O2_10 1_555 1_555
O6_10 Co1_6 1_555 1_555
N4_10 Co1_6 1_555 1_555
O1_10 C1_18 1_555 1_555
N1_18 C6_18 1_555 1_555
C1_18 C3_18 1_555 1_555
N2_10 C8_18 1_555 1_555
C2_18 H1_18 1_555 1_555
C3_18 C2_18 1_555 1_555
C4_18 C6_18 1_555 1_555
O3_18 C12_18 1_555 1_555
C5_18 C12_18 1_555 1_555
C6_18 H2_18 1_555 1_555
C7_18 C2_18 1_555 1_555
H3_18 C7_18 1_555 1_555
C8_18 N1_18 1_555 1_555
H4_18 C8_18 1_555 1_555
C9_18 C4_18 1_555 1_555
H5_18 C9_18 1_555 1_555
N3_18 N1_18 1_555 1_555
C10_18 C6_18 1_555 1_555
C11_18 C3_18 1_555 1_555
C12_18 O4_18 1_555 1_555
C13_18 C5_18 1_555 1_555
H7_18 C13_18 1_555 1_555
C14_18 N2_10 1_555 1_555
H8_18 C14_18 1_555 1_555
C15_18 C5_18 1_555 1_555
H9_18 C15_18 1_555 1_555
C16_18 C10_18 1_555 1_555
H10_18 C16_18 1_555 1_555
C17_18 C10_18 1_555 1_555
H11_18 C17_18 1_555 1_555
Co2_6 N2_10 1_555 1_555
Co4_6 O1_10 1_555 1_555
C4_18 C7_18 1_555 1_555
C9_18 C11_18 1_555 1_555
N3_18 C14_18 1_555 1_555
C13_18 C16_18 1_555 1_555
C15_18 C17_18 1_555 1_555
Co2_5 O3_19 1_555 1_555
O1_11 C1_19 1_555 1_555
O2_11 C1_19 1_555 1_555
N1_19 C6_19 1_555 1_555
C1_19 C3_19 1_555 1_555
N4_10 C8_19 1_555 1_555
C2_19 H1_19 1_555 1_555
C3_19 C2_19 1_555 1_555
C4_19 C6_19 1_555 1_555
O3_19 C12_19 1_555 1_555
C5_19 C12_19 1_555 1_555
C6_19 H2_19 1_555 1_555
C7_19 C2_19 1_555 1_555
H3_19 C7_19 1_555 1_555
C8_19 N1_19 1_555 1_555
H4_19 C8_19 1_555 1_555
C9_19 C4_19 1_555 1_555
H5_19 C9_19 1_555 1_555
N3_19 N1_19 1_555 1_555
C10_19 C6_19 1_555 1_555
O4_19 Co2_5 1_555 1_555
C11_19 C3_19 1_555 1_555
H6_19 C11_19 1_555 1_555
C12_19 O4_19 1_555 1_555
C13_19 C5_19 1_555 1_555
H7_19 C13_19 1_555 1_555
C14_19 N4_10 1_555 1_555
H8_19 C14_19 1_555 1_555
C15_19 C5_19 1_555 1_555
H9_19 C15_19 1_555 1_555
C16_19 C10_19 1_555 1_555
H10_19 C16_19 1_555 1_555
C17_19 C10_19 1_555 1_555
H11_19 C17_19 1_555 1_555
Co3_7 O2_11 1_555 1_555
Co4_7 O1_11 1_555 1_555
O5_11 Co2_5 1_555 1_555
O6_11 Co2_5 1_555 1_555
C4_19 C7_19 1_555 1_555
C9_19 C11_19 1_555 1_555
N3_19 C14_19 1_555 1_555
C13_19 C16_19 1_555 1_555
C15_19 C17_19 1_555 1_555
Co2_6 O3_20 1_555 1_555
O1_12 C1_20 1_555 1_555
O2_12 C1_20 1_555 1_555
N1_20 C6_20 1_555 1_555
C1_20 C3_20 1_555 1_555
N4_9 C8_20 1_555 1_555
C2_20 H1_20 1_555 1_555
C3_20 C2_20 1_555 1_555
C4_20 C6_20 1_555 1_555
O3_20 C12_20 1_555 1_555
C5_20 C12_20 1_555 1_555
C6_20 H2_20 1_555 1_555
C7_20 C2_20 1_555 1_555
H3_20 C7_20 1_555 1_555
C8_20 N1_20 1_555 1_555
H4_20 C8_20 1_555 1_555
C9_20 C4_20 1_555 1_555
H5_20 C9_20 1_555 1_555
N3_20 N1_20 1_555 1_555
C10_20 C6_20 1_555 1_555
O4_20 Co2_6 1_555 1_555
C11_20 C3_20 1_555 1_555
H6_20 C11_20 1_555 1_555
C12_20 O4_20 1_555 1_555
C13_20 C5_20 1_555 1_555
H7_20 C13_20 1_555 1_555
C14_20 N4_9 1_555 1_555
H8_20 C14_20 1_555 1_555
C15_20 C5_20 1_555 1_555
H9_20 C15_20 1_555 1_555
C16_20 C10_20 1_555 1_555
H10_20 C16_20 1_555 1_555
C17_20 C10_20 1_555 1_555
H11_20 C17_20 1_555 1_555
Co3_8 O2_12 1_555 1_555
O5_12 Co2_6 1_555 1_555
O6_12 Co2_6 1_555 1_555
C4_20 C7_20 1_555 1_555
C9_20 C11_20 1_555 1_555
N3_20 C14_20 1_555 1_555
C13_20 C16_20 1_555 1_555
C15_20 C17_20 1_555 1_555
O6_13 Co1_7 1_555 1_555
N4_11 Co1_7 1_555 1_555
N1_21 C6_21 1_555 1_555
N2_11 C8_21 1_555 1_555
C4_21 C6_21 1_555 1_555
O3_21 C12_21 1_555 1_555
C5_21 C12_21 1_555 1_555
C6_21 H2_21 1_555 1_555
C8_21 N1_21 1_555 1_555
H4_21 C8_21 1_555 1_555
C9_21 C4_21 1_555 1_555
H5_21 C9_21 1_555 1_555
N3_21 N1_21 1_555 1_555
C10_21 C6_21 1_555 1_555
C12_21 O4_21 1_555 1_555
C13_21 C5_21 1_555 1_555
H7_21 C13_21 1_555 1_555
C14_21 N2_11 1_555 1_555
H8_21 C14_21 1_555 1_555
C15_21 C5_21 1_555 1_555
H9_21 C15_21 1_555 1_555
C16_21 C10_21 1_555 1_555
H10_21 C16_21 1_555 1_555
C17_21 C10_21 1_555 1_555
H11_21 C17_21 1_555 1_555
Co2_7 N2_11 1_555 1_555
N3_21 C14_21 1_555 1_555
C13_21 C16_21 1_555 1_555
C15_21 C17_21 1_555 1_555
O1_13 C1_21 1_555 1_555
C1_21 C3_21 1_555 1_555
C2_21 H1_21 1_555 1_555
C3_21 C2_21 1_555 1_555
C7_21 C2_21 1_555 1_555
C11_21 C3_21 1_555 1_555
Co3_6 O1_13 1_555 1_555
Co4_6 O2_13 1_555 1_555
O1_14 C1_22 1_555 1_555
O2_14 C1_22 1_555 1_555
C1_22 C3_22 1_555 1_555
C2_22 H1_22 1_555 1_555
C3_22 C2_22 1_555 1_555
C7_22 C2_22 1_555 1_555
C11_22 C3_22 1_555 1_555
H6_22 C11_22 1_555 1_555
Co4_5 O2_14 1_555 1_555
Co3_5 O1_14 1_555 1_555
Co1_8 O3_22 1_555 1_555
N1_22 C6_22 1_555 1_555
N2_12 C8_22 1_555 1_555
C4_22 C6_22 1_555 1_555
O3_22 C12_22 1_555 1_555
C5_22 C12_22 1_555 1_555
C6_22 H2_22 1_555 1_555
C8_22 N1_22 1_555 1_555
H4_22 C8_22 1_555 1_555
C9_22 C4_22 1_555 1_555
H5_22 C9_22 1_555 1_555
N3_22 N1_22 1_555 1_555
C10_22 C6_22 1_555 1_555
O4_22 Co1_8 1_555 1_555
C12_22 O4_22 1_555 1_555
C13_22 C5_22 1_555 1_555
H7_22 C13_22 1_555 1_555
C14_22 N2_12 1_555 1_555
H8_22 C14_22 1_555 1_555
C15_22 C5_22 1_555 1_555
H9_22 C15_22 1_555 1_555
C16_22 C10_22 1_555 1_555
H10_22 C16_22 1_555 1_555
C17_22 C10_22 1_555 1_555
H11_22 C17_22 1_555 1_555
Co2_8 N2_12 1_555 1_555
O5_14 Co1_8 1_555 1_555
O6_14 Co1_8 1_555 1_555
N4_12 Co1_8 1_555 1_555
N3_22 C14_22 1_555 1_555
C13_22 C16_22 1_555 1_555
C15_22 C17_22 1_555 1_555
Co2_7 O3_23 1_555 1_555
O1_15 C1_23 1_555 1_555
O2_15 C1_23 1_555 1_555
N1_23 C6_23 1_555 1_555
C1_23 C3_23 1_555 1_555
C2_23 H1_23 1_555 1_555
C3_23 C2_23 1_555 1_555
C4_23 C6_23 1_555 1_555
O3_23 C12_23 1_555 1_555
C5_23 C12_23 1_555 1_555
C6_23 H2_23 1_555 1_555
C7_23 C2_23 1_555 1_555
H3_23 C7_23 1_555 1_555
C9_23 C4_23 1_555 1_555
H5_23 C9_23 1_555 1_555
C10_23 C6_23 1_555 1_555
O4_23 Co2_7 1_555 1_555
C11_23 C3_23 1_555 1_555
H6_23 C11_23 1_555 1_555
C12_23 O4_23 1_555 1_555
C13_23 C5_23 1_555 1_555
H7_23 C13_23 1_555 1_555
C15_23 C5_23 1_555 1_555
H9_23 C15_23 1_555 1_555
C16_23 C10_23 1_555 1_555
H10_23 C16_23 1_555 1_555
C17_23 C10_23 1_555 1_555
H11_23 C17_23 1_555 1_555
Co4_8 O2_15 1_555 1_555
O5_15 Co2_7 1_555 1_555
O6_15 Co2_7 1_555 1_555
C4_23 C7_23 1_555 1_555
C9_23 C11_23 1_555 1_555
C13_23 C16_23 1_555 1_555
C15_23 C17_23 1_555 1_555
N4_12 C8_23 1_555 1_555
C14_23 N4_12 1_555 1_555
H8_23 C14_23 1_555 1_555
N3_23 C14_23 1_555 1_555
N4_11 C8_24 1_555 1_555
C14_24 N4_11 1_555 1_555
H8_24 C14_24 1_555 1_555
N3_24 C14_24 1_555 1_555
Co2_8 O3_24 1_555 1_555
O1_16 C1_24 1_555 1_555
O2_16 C1_24 1_555 1_555
N1_24 C6_24 1_555 1_555
C1_24 C3_24 1_555 1_555
C2_24 H1_24 1_555 1_555
C3_24 C2_24 1_555 1_555
C4_24 C6_24 1_555 1_555
O3_24 C12_24 1_555 1_555
C5_24 C12_24 1_555 1_555
C6_24 H2_24 1_555 1_555
C7_24 C2_24 1_555 1_555
H3_24 C7_24 1_555 1_555
C9_24 C4_24 1_555 1_555
H5_24 C9_24 1_555 1_555
C10_24 C6_24 1_555 1_555
O4_24 Co2_8 1_555 1_555
C11_24 C3_24 1_555 1_555
H6_24 C11_24 1_555 1_555
C12_24 O4_24 1_555 1_555
C13_24 C5_24 1_555 1_555
H7_24 C13_24 1_555 1_555
C15_24 C5_24 1_555 1_555
H9_24 C15_24 1_555 1_555
C16_24 C10_24 1_555 1_555
H10_24 C16_24 1_555 1_555
C17_24 C10_24 1_555 1_555
H11_24 C17_24 1_555 1_555
Co4_7 O2_16 1_555 1_555
Co3_7 O1_16 1_555 1_555
O5_16 Co2_8 1_555 1_555
O6_16 Co2_8 1_555 1_555
C4_24 C7_24 1_555 1_555
C9_24 C11_24 1_555 1_555
C13_24 C16_24 1_555 1_555
C15_24 C17_24 1_555 1_555
Co4_8 O3_25 1_555 1_555
O5_16 C1_25 1_555 1_555
N1_25 C6_25 1_555 1_555
C1_25 C3_25 1_555 1_555
N2_13 C8_25 1_555 1_555
C2_25 H1_25 1_555 1_555
C3_25 C2_25 1_555 1_555
C4_25 C6_25 1_555 1_555
O3_25 C12_25 1_555 1_555
C5_25 C12_25 1_555 1_555
C6_25 H2_25 1_555 1_555
C7_25 C2_25 1_555 1_555
H3_25 C7_25 1_555 1_555
C8_25 N1_25 1_555 1_555
H4_25 C8_25 1_555 1_555
C9_25 C4_25 1_555 1_555
H5_25 C9_25 1_555 1_555
N3_25 N1_25 1_555 1_555
C10_25 C6_25 1_555 1_555
O4_25 Co4_8 1_555 1_555
C11_25 C3_25 1_555 1_555
C12_25 O4_25 1_555 1_555
C13_25 C5_25 1_555 1_555
H7_25 C13_25 1_555 1_555
C14_25 N2_13 1_555 1_555
H8_25 C14_25 1_555 1_555
C15_25 C5_25 1_555 1_555
H9_25 C15_25 1_555 1_555
C16_25 C10_25 1_555 1_555
H10_25 C16_25 1_555 1_555
C17_25 C10_25 1_555 1_555
H11_25 C17_25 1_555 1_555
Co3_5 N2_13 1_555 1_555
N4_13 Co4_8 1_555 1_555
C4_25 C7_25 1_555 1_555
C9_25 C11_25 1_555 1_555
N3_25 C14_25 1_555 1_555
C13_25 C16_25 1_555 1_555
C15_25 C17_25 1_555 1_555
N4_14 Co4_7 1_555 1_555
O5_15 C1_26 1_555 1_555
O6_12 C1_26 1_555 1_555
N1_26 C6_26 1_555 1_555
C1_26 C3_26 1_555 1_555
N2_14 C8_26 1_555 1_555
C2_26 H1_26 1_555 1_555
C3_26 C2_26 1_555 1_555
C4_26 C6_26 1_555 1_555
O3_26 C12_26 1_555 1_555
C5_26 C12_26 1_555 1_555
C6_26 H2_26 1_555 1_555
C7_26 C2_26 1_555 1_555
H3_26 C7_26 1_555 1_555
C8_26 N1_26 1_555 1_555
H4_26 C8_26 1_555 1_555
C9_26 C4_26 1_555 1_555
H5_26 C9_26 1_555 1_555
N3_26 N1_26 1_555 1_555
C10_26 C6_26 1_555 1_555
C11_26 C3_26 1_555 1_555
H6_26 C11_26 1_555 1_555
C12_26 O4_26 1_555 1_555
C13_26 C5_26 1_555 1_555
H7_26 C13_26 1_555 1_555
C14_26 N2_14 1_555 1_555
H8_26 C14_26 1_555 1_555
C15_26 C5_26 1_555 1_555
H9_26 C15_26 1_555 1_555
C16_26 C10_26 1_555 1_555
H10_26 C16_26 1_555 1_555
C17_26 C10_26 1_555 1_555
H11_26 C17_26 1_555 1_555
Co3_6 N2_14 1_555 1_555
C4_26 C7_26 1_555 1_555
C9_26 C11_26 1_555 1_555
N3_26 C14_26 1_555 1_555
C13_26 C16_26 1_555 1_555
C15_26 C17_26 1_555 1_555
Co3_5 O3_27 1_555 1_555
O5_10 C1_27 1_555 1_555
O6_13 C1_27 1_555 1_555
N1_27 C6_27 1_555 1_555
C1_27 C3_27 1_555 1_555
N4_14 C8_27 1_555 1_555
C2_27 H1_27 1_555 1_555
C3_27 C2_27 1_555 1_555
C4_27 C6_27 1_555 1_555
O3_27 C12_27 1_555 1_555
C5_27 C12_27 1_555 1_555
C6_27 H2_27 1_555 1_555
C7_27 C2_27 1_555 1_555
H3_27 C7_27 1_555 1_555
C8_27 N1_27 1_555 1_555
H4_27 C8_27 1_555 1_555
C9_27 C4_27 1_555 1_555
H5_27 C9_27 1_555 1_555
N3_27 N1_27 1_555 1_555
C10_27 C6_27 1_555 1_555
O4_27 Co3_5 1_555 1_555
C11_27 C3_27 1_555 1_555
H6_27 C11_27 1_555 1_555
C12_27 O4_27 1_555 1_555
C13_27 C5_27 1_555 1_555
H7_27 C13_27 1_555 1_555
C14_27 N4_14 1_555 1_555
H8_27 C14_27 1_555 1_555
C15_27 C5_27 1_555 1_555
H9_27 C15_27 1_555 1_555
C16_27 C10_27 1_555 1_555
H10_27 C16_27 1_555 1_555
C17_27 C10_27 1_555 1_555
H11_27 C17_27 1_555 1_555
C4_27 C7_27 1_555 1_555
C9_27 C11_27 1_555 1_555
N3_27 C14_27 1_555 1_555
C13_27 C16_27 1_555 1_555
C15_27 C17_27 1_555 1_555
Co3_6 O3_28 1_555 1_555
O5_9 C1_28 1_555 1_555
O6_14 C1_28 1_555 1_555
N1_28 C6_28 1_555 1_555
C1_28 C3_28 1_555 1_555
N4_13 C8_28 1_555 1_555
C2_28 H1_28 1_555 1_555
C3_28 C2_28 1_555 1_555
C4_28 C6_28 1_555 1_555
O3_28 C12_28 1_555 1_555
C5_28 C12_28 1_555 1_555
C6_28 H2_28 1_555 1_555
C7_28 C2_28 1_555 1_555
H3_28 C7_28 1_555 1_555
C8_28 N1_28 1_555 1_555
H4_28 C8_28 1_555 1_555
C9_28 C4_28 1_555 1_555
H5_28 C9_28 1_555 1_555
N3_28 N1_28 1_555 1_555
C10_28 C6_28 1_555 1_555
O4_28 Co3_6 1_555 1_555
C11_28 C3_28 1_555 1_555
H6_28 C11_28 1_555 1_555
C12_28 O4_28 1_555 1_555
C13_28 C5_28 1_555 1_555
H7_28 C13_28 1_555 1_555
C14_28 N4_13 1_555 1_555
H8_28 C14_28 1_555 1_555
C15_28 C5_28 1_555 1_555
H9_28 C15_28 1_555 1_555
C16_28 C10_28 1_555 1_555
H10_28 C16_28 1_555 1_555
C17_28 C10_28 1_555 1_555
H11_28 C17_28 1_555 1_555
C4_28 C7_28 1_555 1_555
C9_28 C11_28 1_555 1_555
N3_28 C14_28 1_555 1_555
C13_28 C16_28 1_555 1_555
C15_28 C17_28 1_555 1_555
O5_12 C1_29 1_555 1_555
O6_15 C1_29 1_555 1_555
C1_29 C3_29 1_555 1_555
C2_29 H1_29 1_555 1_555
C3_29 C2_29 1_555 1_555
C7_29 C2_29 1_555 1_555
C11_29 C3_29 1_555 1_555
H6_29 C11_29 1_555 1_555
N4_15 Co3_7 1_555 1_555
N1_29 C6_29 1_555 1_555
N2_15 C8_29 1_555 1_555
C4_29 C6_29 1_555 1_555
O3_29 C12_29 1_555 1_555
C5_29 C12_29 1_555 1_555
C6_29 H2_29 1_555 1_555
C8_29 N1_29 1_555 1_555
H4_29 C8_29 1_555 1_555
C9_29 C4_29 1_555 1_555
H5_29 C9_29 1_555 1_555
N3_29 N1_29 1_555 1_555
C10_29 C6_29 1_555 1_555
C12_29 O4_29 1_555 1_555
C13_29 C5_29 1_555 1_555
H7_29 C13_29 1_555 1_555
C14_29 N2_15 1_555 1_555
H8_29 C14_29 1_555 1_555
C15_29 C5_29 1_555 1_555
H9_29 C15_29 1_555 1_555
C16_29 C10_29 1_555 1_555
H10_29 C16_29 1_555 1_555
C17_29 C10_29 1_555 1_555
H11_29 C17_29 1_555 1_555
Co4_6 N2_15 1_555 1_555
N3_29 C14_29 1_555 1_555
C13_29 C16_29 1_555 1_555
C15_29 C17_29 1_555 1_555
Co3_8 O3_30 1_555 1_555
N1_30 C6_30 1_555 1_555
N2_16 C8_30 1_555 1_555
C4_30 C6_30 1_555 1_555
O3_30 C12_30 1_555 1_555
C5_30 C12_30 1_555 1_555
C6_30 H2_30 1_555 1_555
C8_30 N1_30 1_555 1_555
H4_30 C8_30 1_555 1_555
C9_30 C4_30 1_555 1_555
H5_30 C9_30 1_555 1_555
N3_30 N1_30 1_555 1_555
C10_30 C6_30 1_555 1_555
O4_30 Co3_8 1_555 1_555
C12_30 O4_30 1_555 1_555
C13_30 C5_30 1_555 1_555
H7_30 C13_30 1_555 1_555
C14_30 N2_16 1_555 1_555
H8_30 C14_30 1_555 1_555
C15_30 C5_30 1_555 1_555
H9_30 C15_30 1_555 1_555
C16_30 C10_30 1_555 1_555
H10_30 C16_30 1_555 1_555
C17_30 C10_30 1_555 1_555
H11_30 C17_30 1_555 1_555
Co4_5 N2_16 1_555 1_555
N4_16 Co3_8 1_555 1_555
N3_30 C14_30 1_555 1_555
C13_30 C16_30 1_555 1_555
C15_30 C17_30 1_555 1_555
O5_11 C1_30 1_555 1_555
C1_30 C3_30 1_555 1_555
C2_30 H1_30 1_555 1_555
C3_30 C2_30 1_555 1_555
C7_30 C2_30 1_555 1_555
C11_30 C3_30 1_555 1_555
N4_16 C8_31 1_555 1_555
C14_31 N4_16 1_555 1_555
H8_31 C14_31 1_555 1_555
N3_31 C14_31 1_555 1_555
Co4_6 O3_31 1_555 1_555
O5_14 C1_31 1_555 1_555
O6_9 C1_31 1_555 1_555
N1_31 C6_31 1_555 1_555
C1_31 C3_31 1_555 1_555
C2_31 H1_31 1_555 1_555
C3_31 C2_31 1_555 1_555
C4_31 C6_31 1_555 1_555
O3_31 C12_31 1_555 1_555
C5_31 C12_31 1_555 1_555
C6_31 H2_31 1_555 1_555
C7_31 C2_31 1_555 1_555
H3_31 C7_31 1_555 1_555
C9_31 C4_31 1_555 1_555
H5_31 C9_31 1_555 1_555
C10_31 C6_31 1_555 1_555
O4_31 Co4_6 1_555 1_555
C11_31 C3_31 1_555 1_555
H6_31 C11_31 1_555 1_555
C12_31 O4_31 1_555 1_555
C13_31 C5_31 1_555 1_555
H7_31 C13_31 1_555 1_555
C15_31 C5_31 1_555 1_555
H9_31 C15_31 1_555 1_555
C16_31 C10_31 1_555 1_555
H10_31 C16_31 1_555 1_555
C17_31 C10_31 1_555 1_555
H11_31 C17_31 1_555 1_555
C4_31 C7_31 1_555 1_555
C9_31 C11_31 1_555 1_555
C13_31 C16_31 1_555 1_555
C15_31 C17_31 1_555 1_555
Co4_5 O3_32 1_555 1_555
O5_13 C1_32 1_555 1_555
O6_10 C1_32 1_555 1_555
N1_32 C6_32 1_555 1_555
C1_32 C3_32 1_555 1_555
C2_32 H1_32 1_555 1_555
C3_32 C2_32 1_555 1_555
C4_32 C6_32 1_555 1_555
O3_32 C12_32 1_555 1_555
C5_32 C12_32 1_555 1_555
C6_32 H2_32 1_555 1_555
C7_32 C2_32 1_555 1_555
H3_32 C7_32 1_555 1_555
C9_32 C4_32 1_555 1_555
H5_32 C9_32 1_555 1_555
C10_32 C6_32 1_555 1_555
O4_32 Co4_5 1_555 1_555
C11_32 C3_32 1_555 1_555
H6_32 C11_32 1_555 1_555
C12_32 O4_32 1_555 1_555
C13_32 C5_32 1_555 1_555
H7_32 C13_32 1_555 1_555
C15_32 C5_32 1_555 1_555
H9_32 C15_32 1_555 1_555
C16_32 C10_32 1_555 1_555
H10_32 C16_32 1_555 1_555
C17_32 C10_32 1_555 1_555
H11_32 C17_32 1_555 1_555
C4_32 C7_32 1_555 1_555
C9_32 C11_32 1_555 1_555
C13_32 C16_32 1_555 1_555
C15_32 C17_32 1_555 1_555
N4_15 C8_32 1_555 1_555
C14_32 N4_15 1_555 1_555
H8_32 C14_32 1_555 1_555
N3_32 C14_32 1_555 1_555

#END
