
###############################################################################
#
# This file contains modified crystal structure data generated from the
# MOF subset of the Cambridge Structural Database (CSD) v543 
# hosted by the Cambridge Crystallographic Data Centre (CCDC).
#
# This work is licensed under the Creative Commons
# Attribution-NonCommercial-ShareAlike 4.0 International License.
# To view a copy of this license, visit
# http://creativecommons.org/licenses/by-nc-sa/4.0/
# or send a letter to
# Creative Commons, PO Box 1866, Mountain View, CA 94042, USA.
#
# CIF created using the CSD Python API on 29 September 2022
# The structure has been converted into the P1 space group
# The structure has a 3D framework
# The original CSD entry VOGNIR is in the orthorhombic crystal system
# The framework has been calculated to contain at least 10.0% void space
# The void calculation uses a probe of radius 1.32A, grid spacing 0.4
#
###############################################################################

data_VOGNIR
_chemical_formula_moiety         '(C256 H192 Fe10 Hg16 N96 Se64)n'
_symmetry_cell_setting           triclinic
_symmetry_space_group_name_H-M   'P 1'
_symmetry_Int_Tables_number      1
_space_group_name_Hall           'P 1'
loop_
_symmetry_equiv_pos_site_id
_symmetry_equiv_pos_as_xyz
1 x,y,z
_cell_length_a                   13.2273(5)
_cell_length_b                   20.9742(10)
_cell_length_c                   36.5434(10)
_cell_angle_alpha                90
_cell_angle_beta                 90
_cell_angle_gamma                90
_cell_volume                     10138.3
loop_
_atom_site_label
_atom_site_type_symbol
_atom_site_fract_x
_atom_site_fract_y
_atom_site_fract_z
H6 H 0.0620 0.4595 0.0217
H11 H 0.0091 0.5654 0.0095
N4 N 0.2490(5) 0.5429(4) 0.9140(2)
C9 C 0.2634(7) 0.5464(5) 0.9504(2)
H7 H 0.3292 0.5495 0.9591
C10 C 0.1854(8) 0.5457(5) 0.9746(2)
H8 H 0.1994 0.5504 0.9993
C11 C 0.0716(7) 0.5343(6) 0.9272(3)
H9 H 0.0061 0.5299 0.9183
C12 C 0.1523(7) 0.5376(6) 0.9025(3)
H10 H 0.1395 0.5352 0.8775
C13 C 0.0876(8) 0.5381(5) 0.9638(3)
C14 C 0.0015(9) 0.5329(6) 0.9908(3)
Fe4 Fe 0.3750 0.54289(9) 0.8750
Fe1 Fe 0.6250 0.45711(9) 0.1250
Hg1 Hg 0.3750 0.3750 0.00522(2)
Se1 Se 0.44429(11) 0.28657(7) 0.05182(3)
N1 N 0.5525(6) 0.3838(4) 0.0944(2)
N3 N 0.7510(5) 0.4571(4) 0.0860(2)
C1 C 0.5103(7) 0.3468(5) 0.0777(2)
C3 C 0.7366(7) 0.4536(5) 0.0496(2)
H1 H 0.6708 0.4505 0.0409
C4 C 0.8146(8) 0.4543(5) 0.0254(2)
H2 H 0.8006 0.4496 0.0007
C5 C 0.9284(7) 0.4657(6) 0.0728(3)
H3 H 0.9939 0.4701 0.0817
C6 C 0.8477(7) 0.4624(6) 0.0975(3)
H4 H 0.8605 0.4648 0.1225
C7 C 0.9124(8) 0.4619(5) 0.0362(3)
C8 C 0.9985(9) 0.4671(6) 0.0092(3)
Se3 Se 0.30571(11) 0.46343(7) 0.05182(3)
N5 N 0.1975(6) 0.3662(4) 0.0944(2)
C15 C 0.2397(7) 0.4032(5) 0.0777(2)
Fe2 Fe 0.1250 0.29289(9) 0.1250
N7 N 0.6975(6) 0.3838(4) 0.1556(2)
N8 N 0.5534(6) 0.5279(4) 0.0914(2)
N9 N 0.6966(6) 0.5279(4) 0.1586(2)
N10 N 0.4990(5) 0.4571(4) 0.1640(2)
Se2 Se 0.53836(10) 0.39549(8) 0.96753(4)
N2 N 0.4466(6) 0.4721(4) 0.9086(2)
C2 C 0.4803(7) 0.4425(5) 0.9320(3)
H5 H 0.9909 0.4346 0.9905
H12 H 0.9380 0.5405 0.9783
Se4 Se 0.21164(10) 0.35451(8) 0.96753(4)
N6 N 0.3034(6) 0.2779(4) 0.9086(2)
C16 C 0.2697(7) 0.3075(5) 0.9320(3)
Fe5 Fe 0.3750 0.20711(9) 0.8750
C3_2 C 0.0134(7) 0.2964(5) 0.0496(2)
H1_2 H 0.0792 0.2995 0.0409
N7_2 N 0.0525(6) 0.3662(4) 0.1556(2)
N8_2 N 0.1966(6) 0.2221(4) 0.0914(2)
N9_2 N 0.0534(6) 0.2221(4) 0.1586(2)
N10_2 N 0.2510(5) 0.2929(4) 0.1640(2)
N3_2 N 0.9990(5) 0.2929(4) 0.0860(2)
C4_2 C 0.9354(8) 0.2957(5) 0.0254(2)
H2_2 H 0.9494 0.3004 0.0007
C5_2 C 0.8216(7) 0.2843(6) 0.0728(3)
H3_2 H 0.7561 0.2799 0.0817
C6_2 C 0.9023(7) 0.2876(6) 0.0975(3)
H4_2 H 0.8895 0.2852 0.1225
C7_2 C 0.8376(8) 0.2881(5) 0.0362(3)
C8_2 C 0.7515(9) 0.2829(6) 0.0092(3)
H6_2 H 0.6880 0.2905 0.0217
H11_2 H 0.7409 0.1846 0.0095
H5_2 H 0.7591 0.3154 0.9905
N4_2 N 0.5010(5) 0.2071(4) 0.9140(2)
C9_2 C 0.4866(7) 0.2036(5) 0.9504(2)
H7_2 H 0.4208 0.2005 0.9591
C10_2 C 0.5646(8) 0.2043(5) 0.9746(2)
H8_2 H 0.5506 0.1996 0.9993
C11_2 C 0.6784(7) 0.2157(6) 0.9272(3)
H9_2 H 0.7439 0.2201 0.9183
C12_2 C 0.5977(7) 0.2124(6) 0.9025(3)
H10_2 H 0.6105 0.2148 0.8775
C13_2 C 0.6624(8) 0.2119(5) 0.9638(3)
C14_2 C 0.7485(9) 0.2171(6) 0.9908(3)
H12_2 H 0.8120 0.2095 0.9783
Fe1_2 Fe 0.1250 0.45711(9) 0.6250
Hg1_2 Hg 0.3750 0.3750 0.74478(2)
Se1_2 Se 0.30571(11) 0.28657(7) 0.69818(3)
Se2_2 Se 0.21164(10) 0.39549(8) 0.78247(4)
N1_2 N 0.1975(6) 0.3838(4) 0.6556(2)
N2_2 N 0.3034(6) 0.4721(4) 0.8414(2)
C1_2 C 0.2397(7) 0.3468(5) 0.6723(2)
C2_2 C 0.2697(7) 0.4425(5) 0.8180(3)
C3_3 C 0.0134(7) 0.4536(5) 0.7004(2)
H1_3 H 0.0792 0.4505 0.7091
Se3_2 Se 0.44429(11) 0.46343(7) 0.69818(3)
Se4_2 Se 0.53836(10) 0.35451(8) 0.78247(4)
N5_2 N 0.5525(6) 0.3662(4) 0.6556(2)
N6_2 N 0.4466(6) 0.2779(4) 0.8414(2)
C15_2 C 0.5103(7) 0.4032(5) 0.6723(2)
C16_2 C 0.4803(7) 0.3075(5) 0.8180(3)
Fe2_2 Fe 0.6250 0.29289(9) 0.6250
N7_3 N 0.0525(6) 0.3838(4) 0.5944(2)
N8_3 N 0.1966(6) 0.5279(4) 0.6586(2)
N9_3 N 0.0534(6) 0.5279(4) 0.5914(2)
N10_3 N 0.2510(5) 0.4571(4) 0.5860(2)
N3_3 N 0.9990(5) 0.4571(4) 0.6640(2)
C4_3 C 0.9354(8) 0.4543(5) 0.7246(2)
H2_3 H 0.9494 0.4496 0.7493
C5_3 C 0.8216(7) 0.4657(6) 0.6772(3)
H3_3 H 0.7561 0.4701 0.6683
C6_3 C 0.9023(7) 0.4624(6) 0.6525(3)
H4_3 H 0.8895 0.4648 0.6275
C7_3 C 0.8376(8) 0.4619(5) 0.7138(3)
C8_3 C 0.7515(9) 0.4671(6) 0.7408(3)
H5_3 H 0.7591 0.4346 0.7595
H6_3 H 0.6880 0.4595 0.7283
N4_3 N 0.5010(5) 0.5429(4) 0.8360(2)
C9_3 C 0.4866(7) 0.5464(5) 0.7996(2)
H7_3 H 0.4208 0.5495 0.7909
C10_3 C 0.5646(8) 0.5457(5) 0.7754(2)
H8_3 H 0.5506 0.5504 0.7507
C11_3 C 0.6784(7) 0.5343(6) 0.8228(3)
H9_3 H 0.7439 0.5299 0.8317
C12_3 C 0.5977(7) 0.5376(6) 0.8475(3)
H10_3 H 0.6105 0.5352 0.8725
C13_3 C 0.6624(8) 0.5381(5) 0.7862(3)
C14_3 C 0.7485(9) 0.5329(6) 0.7592(3)
H11_3 H 0.7409 0.5654 0.7405
H12_3 H 0.8120 0.5405 0.7717
H6_4 H 0.0620 0.2905 0.7283
N4_4 N 0.2490(5) 0.2071(4) 0.8360(2)
C9_4 C 0.2634(7) 0.2036(5) 0.7996(2)
H7_4 H 0.3292 0.2005 0.7909
C10_4 C 0.1854(8) 0.2043(5) 0.7754(2)
H8_4 H 0.1994 0.1996 0.7507
C11_4 C 0.0716(7) 0.2157(6) 0.8228(3)
H9_4 H 0.0061 0.2201 0.8317
C12_4 C 0.1523(7) 0.2124(6) 0.8475(3)
H10_4 H 0.1395 0.2148 0.8725
C13_4 C 0.0876(8) 0.2119(5) 0.7862(3)
C14_4 C 0.0015(9) 0.2171(6) 0.7592(3)
H11_4 H 0.0091 0.1846 0.7405
N3_4 N 0.7510(5) 0.2929(4) 0.6640(2)
C3_4 C 0.7366(7) 0.2964(5) 0.7004(2)
H1_4 H 0.6708 0.2995 0.7091
C4_4 C 0.8146(8) 0.2957(5) 0.7246(2)
H2_4 H 0.8006 0.3004 0.7493
C5_4 C 0.9284(7) 0.2843(6) 0.6772(3)
H3_4 H 0.9939 0.2799 0.6683
C6_4 C 0.8477(7) 0.2876(6) 0.6525(3)
H4_4 H 0.8605 0.2852 0.6275
C7_4 C 0.9124(8) 0.2881(5) 0.7138(3)
C8_4 C 0.9985(9) 0.2829(6) 0.7408(3)
H5_4 H 0.9909 0.3154 0.7595
H12_4 H 0.9380 0.2095 0.7717
N7_4 N 0.6975(6) 0.3662(4) 0.5944(2)
N8_4 N 0.5534(6) 0.2221(4) 0.6586(2)
N9_4 N 0.6966(6) 0.2221(4) 0.5914(2)
N10_4 N 0.4990(5) 0.2929(4) 0.5860(2)
N4_5 N 0.2490(5) 0.0429(4) 0.4140(2)
C9_5 C 0.2634(7) 0.0464(5) 0.4504(2)
H7_5 H 0.3292 0.0495 0.4591
C10_5 C 0.1854(8) 0.0457(5) 0.4746(2)
H8_5 H 0.1994 0.0504 0.4993
C11_5 C 0.0716(7) 0.0343(6) 0.4272(3)
H9_5 H 0.0061 0.0299 0.4183
C12_5 C 0.1523(7) 0.0376(6) 0.4025(3)
H10_5 H 0.1395 0.0352 0.3775
C13_5 C 0.0876(8) 0.0381(5) 0.4638(3)
C14_5 C 0.0015(9) 0.0329(6) 0.4908(3)
H11_5 H 0.0091 0.0654 0.5095
Fe4_2 Fe 0.3750 0.04289(9) 0.3750
H6_5 H 0.0620 0.9595 0.5217
H12_5 H 0.9380 0.0405 0.4783
N8_5 N 0.5534(6) 0.0279(4) 0.5914(2)
N9_5 N 0.6966(6) 0.0279(4) 0.6586(2)
Fe1_3 Fe 0.6250 0.95711(9) 0.6250
Hg1_3 Hg 0.3750 0.8750 0.50522(2)
Se1_3 Se 0.44429(11) 0.78657(7) 0.55182(3)
Se2_3 Se 0.53836(10) 0.89549(8) 0.46753(4)
N1_3 N 0.5525(6) 0.8838(4) 0.5944(2)
N2_3 N 0.4466(6) 0.9721(4) 0.4086(2)
N3_5 N 0.7510(5) 0.9571(4) 0.5860(2)
C1_3 C 0.5103(7) 0.8468(5) 0.5777(2)
C2_3 C 0.4803(7) 0.9425(5) 0.4320(3)
C3_5 C 0.7366(7) 0.9536(5) 0.5496(2)
H1_5 H 0.6708 0.9505 0.5409
C4_5 C 0.8146(8) 0.9543(5) 0.5254(2)
H2_5 H 0.8006 0.9496 0.5007
C5_5 C 0.9284(7) 0.9657(6) 0.5728(3)
H3_5 H 0.9939 0.9701 0.5817
C6_5 C 0.8477(7) 0.9624(6) 0.5975(3)
H4_5 H 0.8605 0.9648 0.6225
C7_5 C 0.9124(8) 0.9619(5) 0.5362(3)
C8_5 C 0.9985(9) 0.9671(6) 0.5092(3)
H5_5 H 0.9909 0.9346 0.4905
Se3_3 Se 0.30571(11) 0.96343(7) 0.55182(3)
Se4_3 Se 0.21164(10) 0.85451(8) 0.46753(4)
N5_3 N 0.1975(6) 0.8662(4) 0.5944(2)
N6_3 N 0.3034(6) 0.7779(4) 0.4086(2)
C15_3 C 0.2397(7) 0.9032(5) 0.5777(2)
C16_3 C 0.2697(7) 0.8075(5) 0.4320(3)
Fe2_3 Fe 0.1250 0.79289(9) 0.6250
Fe5_2 Fe 0.3750 0.70711(9) 0.3750
N7_5 N 0.6975(6) 0.8838(4) 0.6556(2)
N10_5 N 0.4990(5) 0.9571(4) 0.6640(2)
C3_6 C 0.0134(7) 0.7964(5) 0.5496(2)
H1_6 H 0.0792 0.7995 0.5409
N7_6 N 0.0525(6) 0.8662(4) 0.6556(2)
N8_6 N 0.1966(6) 0.7221(4) 0.5914(2)
N9_6 N 0.0534(6) 0.7221(4) 0.6586(2)
N10_6 N 0.2510(5) 0.7929(4) 0.6640(2)
N3_6 N 0.9990(5) 0.7929(4) 0.5860(2)
C4_6 C 0.9354(8) 0.7957(5) 0.5254(2)
H2_6 H 0.9494 0.8004 0.5007
C5_6 C 0.8216(7) 0.7843(6) 0.5728(3)
H3_6 H 0.7561 0.7799 0.5817
C6_6 C 0.9023(7) 0.7876(6) 0.5975(3)
H4_6 H 0.8895 0.7852 0.6225
C7_6 C 0.8376(8) 0.7881(5) 0.5362(3)
C8_6 C 0.7515(9) 0.7829(6) 0.5092(3)
H5_6 H 0.7591 0.8154 0.4905
H6_6 H 0.6880 0.7905 0.5217
N4_6 N 0.5010(5) 0.7071(4) 0.4140(2)
C9_6 C 0.4866(7) 0.7036(5) 0.4504(2)
H7_6 H 0.4208 0.7005 0.4591
C10_6 C 0.5646(8) 0.7043(5) 0.4746(2)
H8_6 H 0.5506 0.6996 0.4993
C11_6 C 0.6784(7) 0.7157(6) 0.4272(3)
H9_6 H 0.7439 0.7201 0.4183
C12_6 C 0.5977(7) 0.7124(6) 0.4025(3)
H10_6 H 0.6105 0.7148 0.3775
C13_6 C 0.6624(8) 0.7119(5) 0.4638(3)
C14_6 C 0.7485(9) 0.7171(6) 0.4908(3)
H11_6 H 0.7409 0.6846 0.5095
H12_6 H 0.8120 0.7095 0.4783
N8_7 N 0.1966(6) 0.0279(4) 0.1586(2)
N9_7 N 0.0534(6) 0.0279(4) 0.0914(2)
Fe1_4 Fe 0.1250 0.95711(9) 0.1250
Hg1_4 Hg 0.3750 0.8750 0.24478(2)
Se1_4 Se 0.30571(11) 0.78657(7) 0.19818(3)
Se2_4 Se 0.21164(10) 0.89549(8) 0.28247(4)
N1_4 N 0.1975(6) 0.8838(4) 0.1556(2)
N2_4 N 0.3034(6) 0.9721(4) 0.3414(2)
C1_4 C 0.2397(7) 0.8468(5) 0.1723(2)
C2_4 C 0.2697(7) 0.9425(5) 0.3180(3)
C3_7 C 0.0134(7) 0.9536(5) 0.2004(2)
H1_7 H 0.0792 0.9505 0.2091
Se3_4 Se 0.44429(11) 0.96343(7) 0.19818(3)
Se4_4 Se 0.53836(10) 0.85451(8) 0.28247(4)
N5_4 N 0.5525(6) 0.8662(4) 0.1556(2)
N6_4 N 0.4466(6) 0.7779(4) 0.3414(2)
C15_4 C 0.5103(7) 0.9032(5) 0.1723(2)
C16_4 C 0.4803(7) 0.8075(5) 0.3180(3)
Fe2_4 Fe 0.6250 0.79289(9) 0.1250
N7_7 N 0.0525(6) 0.8838(4) 0.0944(2)
N10_7 N 0.2510(5) 0.9571(4) 0.0860(2)
N4_7 N 0.5010(5) 0.0429(4) 0.3360(2)
C9_7 C 0.4866(7) 0.0464(5) 0.2996(2)
H7_7 H 0.4208 0.0495 0.2909
C10_7 C 0.5646(8) 0.0457(5) 0.2754(2)
H8_7 H 0.5506 0.0504 0.2507
C11_7 C 0.6784(7) 0.0343(6) 0.3228(3)
H9_7 H 0.7439 0.0299 0.3317
C12_7 C 0.5977(7) 0.0376(6) 0.3475(3)
H10_7 H 0.6105 0.0352 0.3725
C13_7 C 0.6624(8) 0.0381(5) 0.2862(3)
C14_7 C 0.7485(9) 0.0329(6) 0.2592(3)
H11_7 H 0.7409 0.0654 0.2405
H12_7 H 0.8120 0.0405 0.2717
N3_7 N 0.9990(5) 0.9571(4) 0.1640(2)
C4_7 C 0.9354(8) 0.9543(5) 0.2246(2)
H2_7 H 0.9494 0.9496 0.2493
C5_7 C 0.8216(7) 0.9657(6) 0.1772(3)
H3_7 H 0.7561 0.9701 0.1683
C6_7 C 0.9023(7) 0.9624(6) 0.1525(3)
H4_7 H 0.8895 0.9648 0.1275
C7_7 C 0.8376(8) 0.9619(5) 0.2138(3)
C8_7 C 0.7515(9) 0.9671(6) 0.2408(3)
H5_7 H 0.7591 0.9346 0.2595
H6_7 H 0.6880 0.9595 0.2283
H6_8 H 0.0620 0.7905 0.2283
N4_8 N 0.2490(5) 0.7071(4) 0.3360(2)
C9_8 C 0.2634(7) 0.7036(5) 0.2996(2)
H7_8 H 0.3292 0.7005 0.2909
C10_8 C 0.1854(8) 0.7043(5) 0.2754(2)
H8_8 H 0.1994 0.6996 0.2507
C11_8 C 0.0716(7) 0.7157(6) 0.3228(3)
H9_8 H 0.0061 0.7201 0.3317
C12_8 C 0.1523(7) 0.7124(6) 0.3475(3)
H10_8 H 0.1395 0.7148 0.3725
C13_8 C 0.0876(8) 0.7119(5) 0.2862(3)
C14_8 C 0.0015(9) 0.7171(6) 0.2592(3)
H11_8 H 0.0091 0.6846 0.2405
N3_8 N 0.7510(5) 0.7929(4) 0.1640(2)
C3_8 C 0.7366(7) 0.7964(5) 0.2004(2)
H1_8 H 0.6708 0.7995 0.2091
C4_8 C 0.8146(8) 0.7957(5) 0.2246(2)
H2_8 H 0.8006 0.8004 0.2493
C5_8 C 0.9284(7) 0.7843(6) 0.1772(3)
H3_8 H 0.9939 0.7799 0.1683
C6_8 C 0.8477(7) 0.7876(6) 0.1525(3)
H4_8 H 0.8605 0.7852 0.1275
C7_8 C 0.9124(8) 0.7881(5) 0.2138(3)
C8_8 C 0.9985(9) 0.7829(6) 0.2408(3)
H5_8 H 0.9909 0.8154 0.2595
H12_8 H 0.9380 0.7095 0.2717
N7_8 N 0.6975(6) 0.8662(4) 0.0944(2)
N8_8 N 0.5534(6) 0.7221(4) 0.1586(2)
N9_8 N 0.6966(6) 0.7221(4) 0.0914(2)
N10_8 N 0.4990(5) 0.7929(4) 0.0860(2)
Se2_5 Se 0.03836(10) 0.39549(8) 0.46753(4)
C1_5 C 0.0103(7) 0.3468(5) 0.5777(2)
C3_9 C 0.2366(7) 0.4536(5) 0.5496(2)
H1_9 H 0.1708 0.4505 0.5409
C4_9 C 0.3146(8) 0.4543(5) 0.5254(2)
H2_9 H 0.3006 0.4496 0.5007
C5_9 C 0.4284(7) 0.4657(6) 0.5728(3)
H3_9 H 0.4939 0.4701 0.5817
C6_9 C 0.3477(7) 0.4624(6) 0.5975(3)
H4_9 H 0.3605 0.4648 0.6225
C7_9 C 0.4124(8) 0.4619(5) 0.5362(3)
C8_9 C 0.4985(9) 0.4671(6) 0.5092(3)
H5_9 H 0.4909 0.4346 0.4905
H6_9 H 0.5620 0.4595 0.5217
N4_9 N 0.7490(5) 0.5429(4) 0.4140(2)
C9_9 C 0.7634(7) 0.5464(5) 0.4504(2)
H7_9 H 0.8292 0.5495 0.4591
C10_9 C 0.6854(8) 0.5457(5) 0.4746(2)
H8_9 H 0.6994 0.5504 0.4993
C11_9 C 0.5716(7) 0.5343(6) 0.4272(3)
H9_9 H 0.5061 0.5299 0.4183
C12_9 C 0.6523(7) 0.5376(6) 0.4025(3)
H10_9 H 0.6395 0.5352 0.3775
C13_9 C 0.5876(8) 0.5381(5) 0.4638(3)
C14_9 C 0.5015(9) 0.5329(6) 0.4908(3)
H11_9 H 0.5091 0.5654 0.5095
H12_9 H 0.4380 0.5405 0.4783
Fe4_3 Fe 0.8750 0.54289(9) 0.3750
Hg1_5 Hg 0.8750 0.3750 0.50522(2)
Se1_5 Se 0.94429(11) 0.28657(7) 0.55182(3)
N2_5 N 0.9466(6) 0.4721(4) 0.4086(2)
C2_5 C 0.9803(7) 0.4425(5) 0.4320(3)
Se3_5 Se 0.80571(11) 0.46343(7) 0.55182(3)
Se4_5 Se 0.71164(10) 0.35451(8) 0.46753(4)
N6_5 N 0.8034(6) 0.2779(4) 0.4086(2)
C15_5 C 0.7397(7) 0.4032(5) 0.5777(2)
C16_5 C 0.7697(7) 0.3075(5) 0.4320(3)
Fe5_3 Fe 0.8750 0.20711(9) 0.3750
C3_10 C 0.5134(7) 0.2964(5) 0.5496(2)
H1_10 H 0.5792 0.2995 0.5409
C4_10 C 0.4354(8) 0.2957(5) 0.5254(2)
H2_10 H 0.4494 0.3004 0.5007
C5_10 C 0.3216(7) 0.2843(6) 0.5728(3)
H3_10 H 0.2561 0.2799 0.5817
C6_10 C 0.4023(7) 0.2876(6) 0.5975(3)
H4_10 H 0.3895 0.2852 0.6225
C7_10 C 0.3376(8) 0.2881(5) 0.5362(3)
C8_10 C 0.2515(9) 0.2829(6) 0.5092(3)
H5_10 H 0.2591 0.3154 0.4905
H6_10 H 0.1880 0.2905 0.5217
N4_10 N 0.0010(5) 0.2071(4) 0.4140(2)
C10_10 C 0.0646(8) 0.2043(5) 0.4746(2)
H8_10 H 0.0506 0.1996 0.4993
C11_10 C 0.1784(7) 0.2157(6) 0.4272(3)
H9_10 H 0.2439 0.2201 0.4183
C12_10 C 0.0977(7) 0.2124(6) 0.4025(3)
H10_10 H 0.1105 0.2148 0.3775
C13_10 C 0.1624(8) 0.2119(5) 0.4638(3)
C14_10 C 0.2485(9) 0.2171(6) 0.4908(3)
H11_10 H 0.2409 0.1846 0.5095
H12_10 H 0.3120 0.2095 0.4783
C9_10 C 0.9866(7) 0.2036(5) 0.4504(2)
H7_10 H 0.9208 0.2005 0.4591
Se4_6 Se 0.03836(10) 0.35451(8) 0.28247(4)
C15_6 C 0.0103(7) 0.4032(5) 0.1723(2)
Hg1_6 Hg 0.8750 0.3750 0.24478(2)
Se1_6 Se 0.80571(11) 0.28657(7) 0.19818(3)
Se2_6 Se 0.71164(10) 0.39549(8) 0.28247(4)
N2_6 N 0.8034(6) 0.4721(4) 0.3414(2)
C1_6 C 0.7397(7) 0.3468(5) 0.1723(2)
C2_6 C 0.7697(7) 0.4425(5) 0.3180(3)
C3_11 C 0.5134(7) 0.4536(5) 0.2004(2)
H1_11 H 0.5792 0.4505 0.2091
C4_11 C 0.4354(8) 0.4543(5) 0.2246(2)
H2_11 H 0.4494 0.4496 0.2493
C5_11 C 0.3216(7) 0.4657(6) 0.1772(3)
H3_11 H 0.2561 0.4701 0.1683
C6_11 C 0.4023(7) 0.4624(6) 0.1525(3)
H4_11 H 0.3895 0.4648 0.1275
C7_11 C 0.3376(8) 0.4619(5) 0.2138(3)
C8_11 C 0.2515(9) 0.4671(6) 0.2408(3)
H5_11 H 0.2591 0.4346 0.2595
H6_11 H 0.1880 0.4595 0.2283
N4_11 N 0.0010(5) 0.5429(4) 0.3360(2)
C10_11 C 0.0646(8) 0.5457(5) 0.2754(2)
H8_11 H 0.0506 0.5504 0.2507
C11_11 C 0.1784(7) 0.5343(6) 0.3228(3)
H9_11 H 0.2439 0.5299 0.3317
C12_11 C 0.0977(7) 0.5376(6) 0.3475(3)
H10_11 H 0.1105 0.5352 0.3725
C13_11 C 0.1624(8) 0.5381(5) 0.2862(3)
C14_11 C 0.2485(9) 0.5329(6) 0.2592(3)
H11_11 H 0.2409 0.5654 0.2405
H12_11 H 0.3120 0.5405 0.2717
Se3_6 Se 0.94429(11) 0.46343(7) 0.19818(3)
N6_6 N 0.9466(6) 0.2779(4) 0.3414(2)
C16_6 C 0.9803(7) 0.3075(5) 0.3180(3)
C9_11 C 0.9866(7) 0.5464(5) 0.2996(2)
H7_11 H 0.9208 0.5495 0.2909
C3_12 C 0.2366(7) 0.2964(5) 0.2004(2)
H1_12 H 0.1708 0.2995 0.2091
C4_12 C 0.3146(8) 0.2957(5) 0.2246(2)
H2_12 H 0.3006 0.3004 0.2493
C5_12 C 0.4284(7) 0.2843(6) 0.1772(3)
H3_12 H 0.4939 0.2799 0.1683
C6_12 C 0.3477(7) 0.2876(6) 0.1525(3)
H4_12 H 0.3605 0.2852 0.1275
C7_12 C 0.4124(8) 0.2881(5) 0.2138(3)
C8_12 C 0.4985(9) 0.2829(6) 0.2408(3)
H5_12 H 0.4909 0.3154 0.2595
H6_12 H 0.5620 0.2905 0.2283
N4_12 N 0.7490(5) 0.2071(4) 0.3360(2)
C9_12 C 0.7634(7) 0.2036(5) 0.2996(2)
H7_12 H 0.8292 0.2005 0.2909
C10_12 C 0.6854(8) 0.2043(5) 0.2754(2)
H8_12 H 0.6994 0.1996 0.2507
C11_12 C 0.5716(7) 0.2157(6) 0.3228(3)
H9_12 H 0.5061 0.2201 0.3317
C12_12 C 0.6523(7) 0.2124(6) 0.3475(3)
H10_12 H 0.6395 0.2148 0.3725
C13_12 C 0.5876(8) 0.2119(5) 0.2862(3)
C14_12 C 0.5015(9) 0.2171(6) 0.2592(3)
H11_12 H 0.5091 0.1846 0.2405
H12_12 H 0.4380 0.2095 0.2717
H11_13 H 0.5091 0.0654 0.0095
N4_13 N 0.7490(5) 0.0429(4) 0.9140(2)
C9_13 C 0.7634(7) 0.0464(5) 0.9504(2)
H7_13 H 0.8292 0.0495 0.9591
C10_13 C 0.6854(8) 0.0457(5) 0.9746(2)
H8_13 H 0.6994 0.0504 0.9993
C11_13 C 0.5716(7) 0.0343(6) 0.9272(3)
H9_13 H 0.5061 0.0299 0.9183
C12_13 C 0.6523(7) 0.0376(6) 0.9025(3)
H10_13 H 0.6395 0.0352 0.8775
C13_13 C 0.5876(8) 0.0381(5) 0.9638(3)
C14_13 C 0.5015(9) 0.0329(6) 0.9908(3)
H12_13 H 0.4380 0.0405 0.9783
Fe4_4 Fe 0.8750 0.04289(9) 0.8750
C1_7 C 0.0103(7) 0.8468(5) 0.0777(2)
C3_13 C 0.2366(7) 0.9536(5) 0.0496(2)
H1_13 H 0.1708 0.9505 0.0409
C4_13 C 0.3146(8) 0.9543(5) 0.0254(2)
H2_13 H 0.3006 0.9496 0.0007
C5_13 C 0.4284(7) 0.9657(6) 0.0728(3)
H3_13 H 0.4939 0.9701 0.0817
C6_13 C 0.3477(7) 0.9624(6) 0.0975(3)
H4_13 H 0.3605 0.9648 0.1225
C7_13 C 0.4124(8) 0.9619(5) 0.0362(3)
C8_13 C 0.4985(9) 0.9671(6) 0.0092(3)
H6_13 H 0.5620 0.9595 0.0217
Se2_7 Se 0.03836(10) 0.89549(8) 0.96753(4)
H5_13 H 0.4909 0.9346 0.9905
Hg1_7 Hg 0.8750 0.8750 0.00522(2)
Se1_7 Se 0.94429(11) 0.78657(7) 0.05182(3)
Se3_7 Se 0.80571(11) 0.96343(7) 0.05182(3)
C15_7 C 0.7397(7) 0.9032(5) 0.0777(2)
N2_7 N 0.9466(6) 0.9721(4) 0.9086(2)
C2_7 C 0.9803(7) 0.9425(5) 0.9320(3)
Se4_7 Se 0.71164(10) 0.85451(8) 0.96753(4)
N6_7 N 0.8034(6) 0.7779(4) 0.9086(2)
C16_7 C 0.7697(7) 0.8075(5) 0.9320(3)
Fe5_4 Fe 0.8750 0.70711(9) 0.8750
C3_14 C 0.5134(7) 0.7964(5) 0.0496(2)
H1_14 H 0.5792 0.7995 0.0409
C4_14 C 0.4354(8) 0.7957(5) 0.0254(2)
H2_14 H 0.4494 0.8004 0.0007
C5_14 C 0.3216(7) 0.7843(6) 0.0728(3)
H3_14 H 0.2561 0.7799 0.0817
C6_14 C 0.4023(7) 0.7876(6) 0.0975(3)
H4_14 H 0.3895 0.7852 0.1225
C7_14 C 0.3376(8) 0.7881(5) 0.0362(3)
C8_14 C 0.2515(9) 0.7829(6) 0.0092(3)
H6_14 H 0.1880 0.7905 0.0217
H11_14 H 0.2409 0.6846 0.0095
H5_14 H 0.2591 0.8154 0.9905
N4_14 N 0.0010(5) 0.7071(4) 0.9140(2)
C10_14 C 0.0646(8) 0.7043(5) 0.9746(2)
H8_14 H 0.0506 0.6996 0.9993
C11_14 C 0.1784(7) 0.7157(6) 0.9272(3)
H9_14 H 0.2439 0.7201 0.9183
C12_14 C 0.0977(7) 0.7124(6) 0.9025(3)
H10_14 H 0.1105 0.7148 0.8775
C13_14 C 0.1624(8) 0.7119(5) 0.9638(3)
C14_14 C 0.2485(9) 0.7171(6) 0.9908(3)
H12_14 H 0.3120 0.7095 0.9783
C9_14 C 0.9866(7) 0.7036(5) 0.9504(2)
H7_14 H 0.9208 0.7005 0.9591
Se4_8 Se 0.03836(10) 0.85451(8) 0.78247(4)
C15_8 C 0.0103(7) 0.9032(5) 0.6723(2)
N4_15 N 0.0010(5) 0.0429(4) 0.8360(2)
C10_15 C 0.0646(8) 0.0457(5) 0.7754(2)
H8_15 H 0.0506 0.0504 0.7507
C11_15 C 0.1784(7) 0.0343(6) 0.8228(3)
H9_15 H 0.2439 0.0299 0.8317
C12_15 C 0.0977(7) 0.0376(6) 0.8475(3)
H10_15 H 0.1105 0.0352 0.8725
C13_15 C 0.1624(8) 0.0381(5) 0.7862(3)
C14_15 C 0.2485(9) 0.0329(6) 0.7592(3)
H11_15 H 0.2409 0.0654 0.7405
H12_15 H 0.3120 0.0405 0.7717
Hg1_8 Hg 0.8750 0.8750 0.74478(2)
Se1_8 Se 0.80571(11) 0.78657(7) 0.69818(3)
Se2_8 Se 0.71164(10) 0.89549(8) 0.78247(4)
N2_8 N 0.8034(6) 0.9721(4) 0.8414(2)
C1_8 C 0.7397(7) 0.8468(5) 0.6723(2)
C2_8 C 0.7697(7) 0.9425(5) 0.8180(3)
C3_15 C 0.5134(7) 0.9536(5) 0.7004(2)
H1_15 H 0.5792 0.9505 0.7091
C4_15 C 0.4354(8) 0.9543(5) 0.7246(2)
H2_15 H 0.4494 0.9496 0.7493
C5_15 C 0.3216(7) 0.9657(6) 0.6772(3)
H3_15 H 0.2561 0.9701 0.6683
C6_15 C 0.4023(7) 0.9624(6) 0.6525(3)
H4_15 H 0.3895 0.9648 0.6275
C7_15 C 0.3376(8) 0.9619(5) 0.7138(3)
C8_15 C 0.2515(9) 0.9671(6) 0.7408(3)
H5_15 H 0.2591 0.9346 0.7595
H6_15 H 0.1880 0.9595 0.7283
Se3_8 Se 0.94429(11) 0.96343(7) 0.69818(3)
N6_8 N 0.9466(6) 0.7779(4) 0.8414(2)
C16_8 C 0.9803(7) 0.8075(5) 0.8180(3)
C9_15 C 0.9866(7) 0.0464(5) 0.7996(2)
H7_15 H 0.9208 0.0495 0.7909
C3_16 C 0.2366(7) 0.7964(5) 0.7004(2)
H1_16 H 0.1708 0.7995 0.7091
C4_16 C 0.3146(8) 0.7957(5) 0.7246(2)
H2_16 H 0.3006 0.8004 0.7493
C5_16 C 0.4284(7) 0.7843(6) 0.6772(3)
H3_16 H 0.4939 0.7799 0.6683
C6_16 C 0.3477(7) 0.7876(6) 0.6525(3)
H4_16 H 0.3605 0.7852 0.6275
C7_16 C 0.4124(8) 0.7881(5) 0.7138(3)
C8_16 C 0.4985(9) 0.7829(6) 0.7408(3)
H5_16 H 0.4909 0.8154 0.7595
H6_16 H 0.5620 0.7905 0.7283
N4_16 N 0.7490(5) 0.7071(4) 0.8360(2)
C9_16 C 0.7634(7) 0.7036(5) 0.7996(2)
H7_16 H 0.8292 0.7005 0.7909
C10_16 C 0.6854(8) 0.7043(5) 0.7754(2)
H8_16 H 0.6994 0.6996 0.7507
C11_16 C 0.5716(7) 0.7157(6) 0.8228(3)
H9_16 H 0.5061 0.7201 0.8317
C12_16 C 0.6523(7) 0.7124(6) 0.8475(3)
H10_16 H 0.6395 0.7148 0.8725
C13_16 C 0.5876(8) 0.7119(5) 0.7862(3)
C14_16 C 0.5015(9) 0.7171(6) 0.7592(3)
H11_16 H 0.5091 0.6846 0.7405
H12_16 H 0.4380 0.7095 0.7717
Se2_9 Se 0.46164(10) 0.60451(8) 0.03247(4)
C2_9 C 0.5197(7) 0.5575(5) 0.0680(3)
Se4_9 Se 0.78836(10) 0.64549(8) 0.03247(4)
C16_9 C 0.7303(7) 0.6925(5) 0.0680(3)
Hg1_9 Hg 0.6250 0.6250 0.99478(2)
Se1_9 Se 0.55571(11) 0.71343(7) 0.94818(3)
N1_5 N 0.4475(6) 0.6162(4) 0.9056(2)
C1_9 C 0.4897(7) 0.6532(5) 0.9223(2)
Se3_9 Se 0.69429(11) 0.53657(7) 0.94818(3)
N5_5 N 0.8025(6) 0.6338(4) 0.9056(2)
C15_9 C 0.7603(7) 0.5968(5) 0.9223(2)
N7_9 N 0.3025(6) 0.6162(4) 0.8444(2)
N7_10 N 0.9475(6) 0.6338(4) 0.8444(2)
Hg1_10 Hg 0.6250 0.6250 0.25522(2)
Se1_10 Se 0.69429(11) 0.71343(7) 0.30182(3)
Se2_10 Se 0.78836(10) 0.60451(8) 0.21753(4)
N1_6 N 0.8025(6) 0.6162(4) 0.3444(2)
C1_10 C 0.7603(7) 0.6532(5) 0.3277(2)
C2_10 C 0.7303(7) 0.5575(5) 0.1820(3)
Se3_10 Se 0.55571(11) 0.53657(7) 0.30182(3)
Se4_10 Se 0.46164(10) 0.64549(8) 0.21753(4)
N5_6 N 0.4475(6) 0.6338(4) 0.3444(2)
C15_10 C 0.4897(7) 0.5968(5) 0.3277(2)
C16_10 C 0.5197(7) 0.6925(5) 0.1820(3)
N7_11 N 0.9475(6) 0.6162(4) 0.4056(2)
N7_12 N 0.3025(6) 0.6338(4) 0.4056(2)
Hg1_11 Hg 0.6250 0.1250 0.49478(2)
Se1_11 Se 0.55571(11) 0.21343(7) 0.44818(3)
Se2_11 Se 0.46164(10) 0.10451(8) 0.53247(4)
N1_7 N 0.4475(6) 0.1162(4) 0.4056(2)
C1_11 C 0.4897(7) 0.1532(5) 0.4223(2)
C2_11 C 0.5197(7) 0.0575(5) 0.5680(3)
Se3_11 Se 0.69429(11) 0.03657(7) 0.44818(3)
Se4_11 Se 0.78836(10) 0.14549(8) 0.53247(4)
N5_7 N 0.8025(6) 0.1338(4) 0.4056(2)
C15_11 C 0.7603(7) 0.0968(5) 0.4223(2)
C16_11 C 0.7303(7) 0.1925(5) 0.5680(3)
N7_13 N 0.3025(6) 0.1162(4) 0.3444(2)
N7_14 N 0.9475(6) 0.1338(4) 0.3444(2)
Hg1_12 Hg 0.6250 0.1250 0.75522(2)
Se1_12 Se 0.69429(11) 0.21343(7) 0.80182(3)
Se2_12 Se 0.78836(10) 0.10451(8) 0.71753(4)
N1_8 N 0.8025(6) 0.1162(4) 0.8444(2)
C1_12 C 0.7603(7) 0.1532(5) 0.8277(2)
C2_12 C 0.7303(7) 0.0575(5) 0.6820(3)
Se3_12 Se 0.55571(11) 0.03657(7) 0.80182(3)
Se4_12 Se 0.46164(10) 0.14549(8) 0.71753(4)
N5_8 N 0.4475(6) 0.1338(4) 0.8444(2)
C15_12 C 0.4897(7) 0.0968(5) 0.8277(2)
C16_12 C 0.5197(7) 0.1925(5) 0.6820(3)
N7_15 N 0.9475(6) 0.1162(4) 0.9056(2)
N7_16 N 0.3025(6) 0.1338(4) 0.9056(2)
Hg1_13 Hg 0.1250 0.6250 0.49478(2)
Se1_13 Se 0.05571(11) 0.71343(7) 0.44818(3)
C2_13 C 0.0197(7) 0.5575(5) 0.5680(3)
Se3_13 Se 0.19429(11) 0.53657(7) 0.44818(3)
Se4_13 Se 0.28836(10) 0.64549(8) 0.53247(4)
C15_13 C 0.2603(7) 0.5968(5) 0.4223(2)
C16_13 C 0.2303(7) 0.6925(5) 0.5680(3)
Se2_13 Se 0.96164(10) 0.60451(8) 0.53247(4)
C1_13 C 0.9897(7) 0.6532(5) 0.4223(2)
Hg1_14 Hg 0.1250 0.6250 0.75522(2)
Se1_14 Se 0.19429(11) 0.71343(7) 0.80182(3)
Se2_14 Se 0.28836(10) 0.60451(8) 0.71753(4)
C1_14 C 0.2603(7) 0.6532(5) 0.8277(2)
C2_14 C 0.2303(7) 0.5575(5) 0.6820(3)
Se3_14 Se 0.05571(11) 0.53657(7) 0.80182(3)
C16_14 C 0.0197(7) 0.6925(5) 0.6820(3)
Se4_14 Se 0.96164(10) 0.64549(8) 0.71753(4)
C15_14 C 0.9897(7) 0.5968(5) 0.8277(2)
C2_15 C 0.0197(7) 0.0575(5) 0.0680(3)
Se4_15 Se 0.28836(10) 0.14549(8) 0.03247(4)
C16_15 C 0.2303(7) 0.1925(5) 0.0680(3)
Hg1_15 Hg 0.1250 0.1250 0.99478(2)
Se1_15 Se 0.05571(11) 0.21343(7) 0.94818(3)
Se3_15 Se 0.19429(11) 0.03657(7) 0.94818(3)
C15_15 C 0.2603(7) 0.0968(5) 0.9223(2)
Se2_15 Se 0.96164(10) 0.10451(8) 0.03247(4)
C1_15 C 0.9897(7) 0.1532(5) 0.9223(2)
Hg1_16 Hg 0.1250 0.1250 0.25522(2)
Se1_16 Se 0.19429(11) 0.21343(7) 0.30182(3)
Se2_16 Se 0.28836(10) 0.10451(8) 0.21753(4)
C1_16 C 0.2603(7) 0.1532(5) 0.3277(2)
C2_16 C 0.2303(7) 0.0575(5) 0.1820(3)
Se3_16 Se 0.05571(11) 0.03657(7) 0.30182(3)
C16_16 C 0.0197(7) 0.1925(5) 0.1820(3)
Se4_16 Se 0.96164(10) 0.14549(8) 0.21753(4)
C15_16 C 0.9897(7) 0.0968(5) 0.3277(2)
loop_
_geom_bond_atom_site_label_1
_geom_bond_atom_site_label_2
_geom_bond_site_symmetry_1
_geom_bond_site_symmetry_2
N4 C9 1_555 1_555
C9 H7 1_555 1_555
C10 C9 1_555 1_555
H8 C10 1_555 1_555
C11 H9 1_555 1_555
C12 N4 1_555 1_555
H10 C12 1_555 1_555
C13 C10 1_555 1_555
Fe4 N4 1_555 1_555
C11 C12 1_555 1_555
C11 C13 1_555 1_555
C13 C14 1_555 1_555
Fe1 N1 1_555 1_555
Hg1 Se1 1_555 1_555
Se1 C1 1_555 1_555
N1 C1 1_555 1_555
N3 Fe1 1_555 1_555
C3 N3 1_555 1_555
H1 C3 1_555 1_555
C4 C3 1_555 1_555
H2 C4 1_555 1_555
C5 H3 1_555 1_555
C6 N3 1_555 1_555
H4 C6 1_555 1_555
C7 C4 1_555 1_555
C8 C7 1_555 1_555
Se3 Hg1 1_555 1_555
N5 C15 1_555 1_555
C15 Se3 1_555 1_555
Fe2 N5 1_555 1_555
N7 Fe1 1_555 1_555
N8 Fe1 1_555 1_555
N9 Fe1 1_555 1_555
N10 Fe1 1_555 1_555
C5 C6 1_555 1_555
C5 C7 1_555 1_555
N2 C2 1_555 1_555
C2 Se2 1_555 1_555
N6 C16 1_555 1_555
C16 Se4 1_555 1_555
Fe4 N2 1_555 1_555
Fe5 N6 1_555 1_555
H1_2 C3_2 1_555 1_555
N7_2 Fe2 1_555 1_555
N8_2 Fe2 1_555 1_555
N9_2 Fe2 1_555 1_555
N10_2 Fe2 1_555 1_555
H2_2 C4_2 1_555 1_555
C5_2 H3_2 1_555 1_555
C6_2 N3_2 1_555 1_555
H4_2 C6_2 1_555 1_555
C7_2 C4_2 1_555 1_555
C8_2 C7_2 1_555 1_555
H6_2 C8_2 1_555 1_555
C5_2 C6_2 1_555 1_555
C5_2 C7_2 1_555 1_555
N4_2 C9_2 1_555 1_555
C9_2 H7_2 1_555 1_555
C10_2 C9_2 1_555 1_555
H8_2 C10_2 1_555 1_555
C11_2 H9_2 1_555 1_555
C12_2 N4_2 1_555 1_555
H10_2 C12_2 1_555 1_555
C13_2 C10_2 1_555 1_555
H12_2 C14_2 1_555 1_555
Fe5 N4_2 1_555 1_555
C11_2 C12_2 1_555 1_555
C11_2 C13_2 1_555 1_555
C13_2 C14_2 1_555 1_555
Fe1_2 N1_2 1_555 1_555
Hg1_2 Se1_2 1_555 1_555
Se1_2 C1_2 1_555 1_555
Se2_2 Hg1_2 1_555 1_555
N1_2 C1_2 1_555 1_555
N2_2 C2_2 1_555 1_555
C2_2 Se2_2 1_555 1_555
H1_3 C3_3 1_555 1_555
Se3_2 Hg1_2 1_555 1_555
Se4_2 Hg1_2 1_555 1_555
N5_2 C15_2 1_555 1_555
N6_2 C16_2 1_555 1_555
C15_2 Se3_2 1_555 1_555
C16_2 Se4_2 1_555 1_555
Fe2_2 N5_2 1_555 1_555
Fe4 N2_2 1_555 1_555
Fe5 N6_2 1_555 1_555
N7_3 Fe1_2 1_555 1_555
N8_3 Fe1_2 1_555 1_555
N9_3 Fe1_2 1_555 1_555
N10_3 Fe1_2 1_555 1_555
H2_3 C4_3 1_555 1_555
C5_3 H3_3 1_555 1_555
C6_3 N3_3 1_555 1_555
H4_3 C6_3 1_555 1_555
C7_3 C4_3 1_555 1_555
C8_3 C7_3 1_555 1_555
H5_3 C8_3 1_555 1_555
H6_3 C8_3 1_555 1_555
N4_3 C9_3 1_555 1_555
C9_3 H7_3 1_555 1_555
C10_3 C9_3 1_555 1_555
H8_3 C10_3 1_555 1_555
C11_3 H9_3 1_555 1_555
C12_3 N4_3 1_555 1_555
H10_3 C12_3 1_555 1_555
C13_3 C10_3 1_555 1_555
C14_3 C8_3 1_555 1_555
H11_3 C14_3 1_555 1_555
H12_3 C14_3 1_555 1_555
Fe4 N4_3 1_555 1_555
C5_3 C6_3 1_555 1_555
C5_3 C7_3 1_555 1_555
C11_3 C12_3 1_555 1_555
C11_3 C13_3 1_555 1_555
C13_3 C14_3 1_555 1_555
N4_4 C9_4 1_555 1_555
C9_4 H7_4 1_555 1_555
C10_4 C9_4 1_555 1_555
H8_4 C10_4 1_555 1_555
C11_4 H9_4 1_555 1_555
C12_4 N4_4 1_555 1_555
H10_4 C12_4 1_555 1_555
C13_4 C10_4 1_555 1_555
H11_4 C14_4 1_555 1_555
Fe5 N4_4 1_555 1_555
C11_4 C12_4 1_555 1_555
C11_4 C13_4 1_555 1_555
C13_4 C14_4 1_555 1_555
N3_4 Fe2_2 1_555 1_555
C3_4 N3_4 1_555 1_555
H1_4 C3_4 1_555 1_555
C4_4 C3_4 1_555 1_555
H2_4 C4_4 1_555 1_555
C5_4 H3_4 1_555 1_555
C6_4 N3_4 1_555 1_555
H4_4 C6_4 1_555 1_555
C7_4 C4_4 1_555 1_555
C8_4 C7_4 1_555 1_555
H5_4 C8_4 1_555 1_555
N7_4 Fe2_2 1_555 1_555
N8_4 Fe2_2 1_555 1_555
N9_4 Fe2_2 1_555 1_555
N10_4 Fe2_2 1_555 1_555
C5_4 C6_4 1_555 1_555
C5_4 C7_4 1_555 1_555
N4_5 C9_5 1_555 1_555
C9_5 H7_5 1_555 1_555
C10_5 C9_5 1_555 1_555
H8_5 C10_5 1_555 1_555
C11_5 H9_5 1_555 1_555
C12_5 N4_5 1_555 1_555
H10_5 C12_5 1_555 1_555
C13_5 C10_5 1_555 1_555
H11_5 C14_5 1_555 1_555
Fe4_2 N4_5 1_555 1_555
C11_5 C12_5 1_555 1_555
C11_5 C13_5 1_555 1_555
C13_5 C14_5 1_555 1_555
Fe1_3 N1_3 1_555 1_555
Hg1_3 Se1_3 1_555 1_555
Se1_3 C1_3 1_555 1_555
Se2_3 Hg1_3 1_555 1_555
N1_3 C1_3 1_555 1_555
N2_3 C2_3 1_555 1_555
N3_5 Fe1_3 1_555 1_555
C2_3 Se2_3 1_555 1_555
C3_5 N3_5 1_555 1_555
H1_5 C3_5 1_555 1_555
C4_5 C3_5 1_555 1_555
H2_5 C4_5 1_555 1_555
C5_5 H3_5 1_555 1_555
C6_5 N3_5 1_555 1_555
H4_5 C6_5 1_555 1_555
C7_5 C4_5 1_555 1_555
C8_5 C7_5 1_555 1_555
H5_5 C8_5 1_555 1_555
Se3_3 Hg1_3 1_555 1_555
Se4_3 Hg1_3 1_555 1_555
N5_3 C15_3 1_555 1_555
N6_3 C16_3 1_555 1_555
C15_3 Se3_3 1_555 1_555
C16_3 Se4_3 1_555 1_555
Fe2_3 N5_3 1_555 1_555
Fe5_2 N6_3 1_555 1_555
N7_5 Fe1_3 1_555 1_555
N10_5 Fe1_3 1_555 1_555
C5_5 C6_5 1_555 1_555
C5_5 C7_5 1_555 1_555
H1_6 C3_6 1_555 1_555
N7_6 Fe2_3 1_555 1_555
N8_6 Fe2_3 1_555 1_555
N9_6 Fe2_3 1_555 1_555
N10_6 Fe2_3 1_555 1_555
H2_6 C4_6 1_555 1_555
C5_6 H3_6 1_555 1_555
C6_6 N3_6 1_555 1_555
H4_6 C6_6 1_555 1_555
C7_6 C4_6 1_555 1_555
C8_6 C7_6 1_555 1_555
H5_6 C8_6 1_555 1_555
H6_6 C8_6 1_555 1_555
N4_6 C9_6 1_555 1_555
C9_6 H7_6 1_555 1_555
C10_6 C9_6 1_555 1_555
H8_6 C10_6 1_555 1_555
C11_6 H9_6 1_555 1_555
C12_6 N4_6 1_555 1_555
H10_6 C12_6 1_555 1_555
C13_6 C10_6 1_555 1_555
C14_6 C8_6 1_555 1_555
H11_6 C14_6 1_555 1_555
H12_6 C14_6 1_555 1_555
Fe5_2 N4_6 1_555 1_555
C5_6 C6_6 1_555 1_555
C5_6 C7_6 1_555 1_555
C11_6 C12_6 1_555 1_555
C11_6 C13_6 1_555 1_555
C13_6 C14_6 1_555 1_555
Fe1_4 N1_4 1_555 1_555
Hg1_4 Se1_4 1_555 1_555
Se1_4 C1_4 1_555 1_555
Se2_4 Hg1_4 1_555 1_555
N1_4 C1_4 1_555 1_555
N2_4 C2_4 1_555 1_555
C2_4 Se2_4 1_555 1_555
H1_7 C3_7 1_555 1_555
Se3_4 Hg1_4 1_555 1_555
Se4_4 Hg1_4 1_555 1_555
N5_4 C15_4 1_555 1_555
N6_4 C16_4 1_555 1_555
C15_4 Se3_4 1_555 1_555
C16_4 Se4_4 1_555 1_555
Fe2_4 N5_4 1_555 1_555
Fe5_2 N6_4 1_555 1_555
N7_7 Fe1_4 1_555 1_555
N10_7 Fe1_4 1_555 1_555
N4_7 C9_7 1_555 1_555
C9_7 H7_7 1_555 1_555
C10_7 C9_7 1_555 1_555
H8_7 C10_7 1_555 1_555
C11_7 H9_7 1_555 1_555
C12_7 N4_7 1_555 1_555
H10_7 C12_7 1_555 1_555
C13_7 C10_7 1_555 1_555
H11_7 C14_7 1_555 1_555
H12_7 C14_7 1_555 1_555
Fe4_2 N4_7 1_555 1_555
C11_7 C12_7 1_555 1_555
C11_7 C13_7 1_555 1_555
C13_7 C14_7 1_555 1_555
H2_7 C4_7 1_555 1_555
C5_7 H3_7 1_555 1_555
C6_7 N3_7 1_555 1_555
H4_7 C6_7 1_555 1_555
C7_7 C4_7 1_555 1_555
C8_7 C7_7 1_555 1_555
H5_7 C8_7 1_555 1_555
H6_7 C8_7 1_555 1_555
C5_7 C6_7 1_555 1_555
C5_7 C7_7 1_555 1_555
N4_8 C9_8 1_555 1_555
C9_8 H7_8 1_555 1_555
C10_8 C9_8 1_555 1_555
H8_8 C10_8 1_555 1_555
C11_8 H9_8 1_555 1_555
C12_8 N4_8 1_555 1_555
H10_8 C12_8 1_555 1_555
C13_8 C10_8 1_555 1_555
H11_8 C14_8 1_555 1_555
Fe5_2 N4_8 1_555 1_555
C11_8 C12_8 1_555 1_555
C11_8 C13_8 1_555 1_555
C13_8 C14_8 1_555 1_555
N3_8 Fe2_4 1_555 1_555
C3_8 N3_8 1_555 1_555
H1_8 C3_8 1_555 1_555
C4_8 C3_8 1_555 1_555
H2_8 C4_8 1_555 1_555
C5_8 H3_8 1_555 1_555
C6_8 N3_8 1_555 1_555
H4_8 C6_8 1_555 1_555
C7_8 C4_8 1_555 1_555
C8_8 C7_8 1_555 1_555
H5_8 C8_8 1_555 1_555
N7_8 Fe2_4 1_555 1_555
N8_8 Fe2_4 1_555 1_555
N9_8 Fe2_4 1_555 1_555
N10_8 Fe2_4 1_555 1_555
C5_8 C6_8 1_555 1_555
C5_8 C7_8 1_555 1_555
N7_3 C1_5 1_555 1_555
C3_9 N10_3 1_555 1_555
H1_9 C3_9 1_555 1_555
C4_9 C3_9 1_555 1_555
H2_9 C4_9 1_555 1_555
C5_9 H3_9 1_555 1_555
C6_9 N10_3 1_555 1_555
H4_9 C6_9 1_555 1_555
C7_9 C4_9 1_555 1_555
C8_9 C7_9 1_555 1_555
H5_9 C8_9 1_555 1_555
H6_9 C8_9 1_555 1_555
N4_9 C9_9 1_555 1_555
C9_9 H7_9 1_555 1_555
C10_9 C9_9 1_555 1_555
H8_9 C10_9 1_555 1_555
C11_9 H9_9 1_555 1_555
C12_9 N4_9 1_555 1_555
H10_9 C12_9 1_555 1_555
C13_9 C10_9 1_555 1_555
C14_9 C8_9 1_555 1_555
H11_9 C14_9 1_555 1_555
H12_9 C14_9 1_555 1_555
Fe4_3 N4_9 1_555 1_555
C5_9 C6_9 1_555 1_555
C5_9 C7_9 1_555 1_555
C11_9 C12_9 1_555 1_555
C11_9 C13_9 1_555 1_555
C13_9 C14_9 1_555 1_555
Hg1_5 Se1_5 1_555 1_555
N2_5 C2_5 1_555 1_555
Se3_5 Hg1_5 1_555 1_555
Se4_5 Hg1_5 1_555 1_555
N7_4 C15_5 1_555 1_555
N6_5 C16_5 1_555 1_555
C15_5 Se3_5 1_555 1_555
C16_5 Se4_5 1_555 1_555
Fe4_3 N2_5 1_555 1_555
Fe5_3 N6_5 1_555 1_555
C3_10 N10_4 1_555 1_555
H1_10 C3_10 1_555 1_555
C4_10 C3_10 1_555 1_555
H2_10 C4_10 1_555 1_555
C5_10 H3_10 1_555 1_555
C6_10 N10_4 1_555 1_555
H4_10 C6_10 1_555 1_555
C7_10 C4_10 1_555 1_555
C8_10 C7_10 1_555 1_555
H5_10 C8_10 1_555 1_555
H6_10 C8_10 1_555 1_555
H8_10 C10_10 1_555 1_555
C11_10 H9_10 1_555 1_555
C12_10 N4_10 1_555 1_555
H10_10 C12_10 1_555 1_555
C13_10 C10_10 1_555 1_555
C14_10 C8_10 1_555 1_555
H11_10 C14_10 1_555 1_555
H12_10 C14_10 1_555 1_555
C5_10 C6_10 1_555 1_555
C5_10 C7_10 1_555 1_555
C11_10 C12_10 1_555 1_555
C11_10 C13_10 1_555 1_555
C13_10 C14_10 1_555 1_555
C9_10 H7_10 1_555 1_555
N7_2 C15_6 1_555 1_555
Hg1_6 Se1_6 1_555 1_555
Se1_6 C1_6 1_555 1_555
Se2_6 Hg1_6 1_555 1_555
N7 C1_6 1_555 1_555
N2_6 C2_6 1_555 1_555
C2_6 Se2_6 1_555 1_555
C3_11 N10 1_555 1_555
H1_11 C3_11 1_555 1_555
C4_11 C3_11 1_555 1_555
H2_11 C4_11 1_555 1_555
C5_11 H3_11 1_555 1_555
C6_11 N10 1_555 1_555
H4_11 C6_11 1_555 1_555
C7_11 C4_11 1_555 1_555
C8_11 C7_11 1_555 1_555
H5_11 C8_11 1_555 1_555
H6_11 C8_11 1_555 1_555
H8_11 C10_11 1_555 1_555
C11_11 H9_11 1_555 1_555
C12_11 N4_11 1_555 1_555
H10_11 C12_11 1_555 1_555
C13_11 C10_11 1_555 1_555
C14_11 C8_11 1_555 1_555
H11_11 C14_11 1_555 1_555
H12_11 C14_11 1_555 1_555
Se3_6 Hg1_6 1_555 1_555
N6_6 C16_6 1_555 1_555
Fe4_3 N2_6 1_555 1_555
Fe5_3 N6_6 1_555 1_555
C5_11 C6_11 1_555 1_555
C5_11 C7_11 1_555 1_555
C11_11 C12_11 1_555 1_555
C11_11 C13_11 1_555 1_555
C13_11 C14_11 1_555 1_555
C9_11 H7_11 1_555 1_555
C3_12 N10_2 1_555 1_555
H1_12 C3_12 1_555 1_555
C4_12 C3_12 1_555 1_555
H2_12 C4_12 1_555 1_555
C5_12 H3_12 1_555 1_555
C6_12 N10_2 1_555 1_555
H4_12 C6_12 1_555 1_555
C7_12 C4_12 1_555 1_555
C8_12 C7_12 1_555 1_555
H5_12 C8_12 1_555 1_555
H6_12 C8_12 1_555 1_555
N4_12 C9_12 1_555 1_555
C9_12 H7_12 1_555 1_555
C10_12 C9_12 1_555 1_555
H8_12 C10_12 1_555 1_555
C11_12 H9_12 1_555 1_555
C12_12 N4_12 1_555 1_555
H10_12 C12_12 1_555 1_555
C13_12 C10_12 1_555 1_555
C14_12 C8_12 1_555 1_555
H11_12 C14_12 1_555 1_555
H12_12 C14_12 1_555 1_555
Fe5_3 N4_12 1_555 1_555
C5_12 C6_12 1_555 1_555
C5_12 C7_12 1_555 1_555
C11_12 C12_12 1_555 1_555
C11_12 C13_12 1_555 1_555
C13_12 C14_12 1_555 1_555
N4_13 C9_13 1_555 1_555
C9_13 H7_13 1_555 1_555
C10_13 C9_13 1_555 1_555
H8_13 C10_13 1_555 1_555
C11_13 H9_13 1_555 1_555
C12_13 N4_13 1_555 1_555
H10_13 C12_13 1_555 1_555
C13_13 C10_13 1_555 1_555
H12_13 C14_13 1_555 1_555
Fe4_4 N4_13 1_555 1_555
C11_13 C12_13 1_555 1_555
C11_13 C13_13 1_555 1_555
C13_13 C14_13 1_555 1_555
N7_7 C1_7 1_555 1_555
C3_13 N10_7 1_555 1_555
H1_13 C3_13 1_555 1_555
C4_13 C3_13 1_555 1_555
H2_13 C4_13 1_555 1_555
C5_13 H3_13 1_555 1_555
C6_13 N10_7 1_555 1_555
H4_13 C6_13 1_555 1_555
C7_13 C4_13 1_555 1_555
C8_13 C7_13 1_555 1_555
H6_13 C8_13 1_555 1_555
C5_13 C6_13 1_555 1_555
C5_13 C7_13 1_555 1_555
Hg1_7 Se1_7 1_555 1_555
Se3_7 Hg1_7 1_555 1_555
N7_8 C15_7 1_555 1_555
C15_7 Se3_7 1_555 1_555
N2_7 C2_7 1_555 1_555
N6_7 C16_7 1_555 1_555
C16_7 Se4_7 1_555 1_555
Fe5_4 N6_7 1_555 1_555
C3_14 N10_8 1_555 1_555
H1_14 C3_14 1_555 1_555
C4_14 C3_14 1_555 1_555
H2_14 C4_14 1_555 1_555
C5_14 H3_14 1_555 1_555
C6_14 N10_8 1_555 1_555
H4_14 C6_14 1_555 1_555
C7_14 C4_14 1_555 1_555
C8_14 C7_14 1_555 1_555
H6_14 C8_14 1_555 1_555
C5_14 C6_14 1_555 1_555
C5_14 C7_14 1_555 1_555
H8_14 C10_14 1_555 1_555
C11_14 H9_14 1_555 1_555
C12_14 N4_14 1_555 1_555
H10_14 C12_14 1_555 1_555
C13_14 C10_14 1_555 1_555
H12_14 C14_14 1_555 1_555
C11_14 C12_14 1_555 1_555
C11_14 C13_14 1_555 1_555
C13_14 C14_14 1_555 1_555
C9_14 H7_14 1_555 1_555
N7_6 C15_8 1_555 1_555
H8_15 C10_15 1_555 1_555
C11_15 H9_15 1_555 1_555
C12_15 N4_15 1_555 1_555
H10_15 C12_15 1_555 1_555
C13_15 C10_15 1_555 1_555
H11_15 C14_15 1_555 1_555
H12_15 C14_15 1_555 1_555
C11_15 C12_15 1_555 1_555
C11_15 C13_15 1_555 1_555
C13_15 C14_15 1_555 1_555
Hg1_8 Se1_8 1_555 1_555
Se1_8 C1_8 1_555 1_555
Se2_8 Hg1_8 1_555 1_555
N7_5 C1_8 1_555 1_555
N2_8 C2_8 1_555 1_555
C2_8 Se2_8 1_555 1_555
C3_15 N10_5 1_555 1_555
H1_15 C3_15 1_555 1_555
C4_15 C3_15 1_555 1_555
H2_15 C4_15 1_555 1_555
C5_15 H3_15 1_555 1_555
C6_15 N10_5 1_555 1_555
H4_15 C6_15 1_555 1_555
C7_15 C4_15 1_555 1_555
C8_15 C7_15 1_555 1_555
H5_15 C8_15 1_555 1_555
H6_15 C8_15 1_555 1_555
Se3_8 Hg1_8 1_555 1_555
N6_8 C16_8 1_555 1_555
Fe5_4 N6_8 1_555 1_555
C5_15 C6_15 1_555 1_555
C5_15 C7_15 1_555 1_555
C9_15 H7_15 1_555 1_555
C3_16 N10_6 1_555 1_555
H1_16 C3_16 1_555 1_555
C4_16 C3_16 1_555 1_555
H2_16 C4_16 1_555 1_555
C5_16 H3_16 1_555 1_555
C6_16 N10_6 1_555 1_555
H4_16 C6_16 1_555 1_555
C7_16 C4_16 1_555 1_555
C8_16 C7_16 1_555 1_555
H5_16 C8_16 1_555 1_555
H6_16 C8_16 1_555 1_555
N4_16 C9_16 1_555 1_555
C9_16 H7_16 1_555 1_555
C10_16 C9_16 1_555 1_555
H8_16 C10_16 1_555 1_555
C11_16 H9_16 1_555 1_555
C12_16 N4_16 1_555 1_555
H10_16 C12_16 1_555 1_555
C13_16 C10_16 1_555 1_555
C14_16 C8_16 1_555 1_555
H11_16 C14_16 1_555 1_555
H12_16 C14_16 1_555 1_555
Fe5_4 N4_16 1_555 1_555
C5_16 C6_16 1_555 1_555
C5_16 C7_16 1_555 1_555
C11_16 C12_16 1_555 1_555
C11_16 C13_16 1_555 1_555
C13_16 C14_16 1_555 1_555
N8 C2_9 1_555 1_555
C2_9 Se2_9 1_555 1_555
N9_8 C16_9 1_555 1_555
C16_9 Se4_9 1_555 1_555
Fe4 N1_5 1_555 1_555
Hg1_9 Se1_9 1_555 1_555
Se1_9 C1_9 1_555 1_555
N1_5 C1_9 1_555 1_555
Se3_9 Hg1_9 1_555 1_555
N5_5 C15_9 1_555 1_555
C15_9 Se3_9 1_555 1_555
Fe5_4 N5_5 1_555 1_555
N7_9 Fe4 1_555 1_555
N7_10 Fe5_4 1_555 1_555
Fe4_3 N1_6 1_555 1_555
Hg1_10 Se1_10 1_555 1_555
Se1_10 C1_10 1_555 1_555
Se2_10 Hg1_10 1_555 1_555
N1_6 C1_10 1_555 1_555
N9 C2_10 1_555 1_555
C2_10 Se2_10 1_555 1_555
Se3_10 Hg1_10 1_555 1_555
Se4_10 Hg1_10 1_555 1_555
N5_6 C15_10 1_555 1_555
N8_8 C16_10 1_555 1_555
C15_10 Se3_10 1_555 1_555
C16_10 Se4_10 1_555 1_555
Fe5_2 N5_6 1_555 1_555
N7_11 Fe4_3 1_555 1_555
N7_12 Fe5_2 1_555 1_555
Fe4_2 N1_7 1_555 1_555
Hg1_11 Se1_11 1_555 1_555
Se1_11 C1_11 1_555 1_555
Se2_11 Hg1_11 1_555 1_555
N1_7 C1_11 1_555 1_555
N8_5 C2_11 1_555 1_555
C2_11 Se2_11 1_555 1_555
Se3_11 Hg1_11 1_555 1_555
Se4_11 Hg1_11 1_555 1_555
N5_7 C15_11 1_555 1_555
N9_4 C16_11 1_555 1_555
C15_11 Se3_11 1_555 1_555
C16_11 Se4_11 1_555 1_555
Fe5_3 N5_7 1_555 1_555
N7_13 Fe4_2 1_555 1_555
N7_14 Fe5_3 1_555 1_555
Fe4_4 N1_8 1_555 1_555
Hg1_12 Se1_12 1_555 1_555
Se1_12 C1_12 1_555 1_555
Se2_12 Hg1_12 1_555 1_555
N1_8 C1_12 1_555 1_555
N9_5 C2_12 1_555 1_555
C2_12 Se2_12 1_555 1_555
Se3_12 Hg1_12 1_555 1_555
Se4_12 Hg1_12 1_555 1_555
N5_8 C15_12 1_555 1_555
N8_4 C16_12 1_555 1_555
C15_12 Se3_12 1_555 1_555
C16_12 Se4_12 1_555 1_555
Fe5 N5_8 1_555 1_555
N7_15 Fe4_4 1_555 1_555
N7_16 Fe5 1_555 1_555
Hg1_13 Se1_13 1_555 1_555
N9_3 C2_13 1_555 1_555
Se3_13 Hg1_13 1_555 1_555
Se4_13 Hg1_13 1_555 1_555
N7_12 C15_13 1_555 1_555
N8_6 C16_13 1_555 1_555
C15_13 Se3_13 1_555 1_555
C16_13 Se4_13 1_555 1_555
N7_11 C1_13 1_555 1_555
Hg1_14 Se1_14 1_555 1_555
Se1_14 C1_14 1_555 1_555
Se2_14 Hg1_14 1_555 1_555
N7_9 C1_14 1_555 1_555
N8_3 C2_14 1_555 1_555
C2_14 Se2_14 1_555 1_555
Se3_14 Hg1_14 1_555 1_555
N9_6 C16_14 1_555 1_555
N7_10 C15_14 1_555 1_555
N9_7 C2_15 1_555 1_555
N8_2 C16_15 1_555 1_555
C16_15 Se4_15 1_555 1_555
Hg1_15 Se1_15 1_555 1_555
Se3_15 Hg1_15 1_555 1_555
N7_16 C15_15 1_555 1_555
C15_15 Se3_15 1_555 1_555
N7_15 C1_15 1_555 1_555
Hg1_16 Se1_16 1_555 1_555
Se1_16 C1_16 1_555 1_555
Se2_16 Hg1_16 1_555 1_555
N7_13 C1_16 1_555 1_555
N8_7 C2_16 1_555 1_555
C2_16 Se2_16 1_555 1_555
Se3_16 Hg1_16 1_555 1_555
N9_2 C16_16 1_555 1_555
N7_14 C15_16 1_555 1_555

#END
