
###############################################################################
#
# This file contains modified crystal structure data generated from the
# MOF subset of the Cambridge Structural Database (CSD) v543 
# hosted by the Cambridge Crystallographic Data Centre (CCDC).
#
# This work is licensed under the Creative Commons
# Attribution-NonCommercial-ShareAlike 4.0 International License.
# To view a copy of this license, visit
# http://creativecommons.org/licenses/by-nc-sa/4.0/
# or send a letter to
# Creative Commons, PO Box 1866, Mountain View, CA 94042, USA.
#
# CIF created using the CSD Python API on 29 September 2022
# The structure has been converted into the P1 space group
# The structure has a 3D framework
# The original CSD entry VOJCUV is in the tetragonal crystal system
# The framework has been calculated to contain at least 10.0% void space
# The void calculation uses a probe of radius 1.32A, grid spacing 0.4
# The framework is charged, counterions have been retained in the structure
#
###############################################################################

data_VOJCUV
_chemical_formula_moiety         '(C256 H96 O254 Si12 U48 18-)n'
_symmetry_cell_setting           triclinic
_symmetry_space_group_name_H-M   'P 1'
_symmetry_Int_Tables_number      1
_space_group_name_Hall           'P 1'
loop_
_symmetry_equiv_pos_site_id
_symmetry_equiv_pos_as_xyz
1 x,y,z
_cell_length_a                   21.9739(6)
_cell_length_b                   21.9739(6)
_cell_length_c                   37.455(2)
_cell_angle_alpha                90
_cell_angle_beta                 90
_cell_angle_gamma                90
_cell_volume                     18085.2
loop_
_atom_site_label
_atom_site_type_symbol
_atom_site_fract_x
_atom_site_fract_y
_atom_site_fract_z
O12 O 0.3804(2) 0.0004(2) 0.43603(12)
U5 U 0.33304(2) 0.06753(2) 0.47502(2)
O29 O 0.3510(2) 0.13097(19) 0.44862(13)
O30 O 0.3163(2) 0.0049(2) 0.50304(12)
U6 U 0.27103(2) 0.02103(2) 0.375000
O31 O 0.3279(2) 0.0779(2) 0.375000
O34 O 0.2563(2) 0.0379(2) 0.43422(12)
O36 O 0.19766(19) 0.0959(2) 0.36018(12)
O37 O 0.2879(2) 0.0063(2) 0.31578(12)
O40 O 0.250000 0.1162(3) 0.500000
O43 O 0.37407(19) 0.1226(2) 0.52610(13)
O47 O 0.4368(2) 0.0628(2) 0.49756(13)
U1 U 0.66696(2) 0.43247(2) 0.47502(2)
U2 U 0.72897(2) 0.47897(2) 0.375000
Si1 Si 0.500000 0.750000 0.375000
O1 O 0.6721(2) 0.4221(2) 0.375000
O2 O 0.6541(2) 0.55234(19) 0.38982(12)
O3 O 0.7860(2) 0.5360(2) 0.375000
O4 O 0.7121(2) 0.4937(2) 0.31578(12)
O5 O 0.6490(2) 0.36903(19) 0.44862(13)
O6 O 0.6837(2) 0.4951(2) 0.50304(12)
O7 O 0.6196(2) 0.4996(2) 0.43603(12)
O8 O 0.750000 0.3838(3) 0.500000
O9 O 0.37407(19) 0.6226(2) 0.47390(13)
O10 O 0.4368(2) 0.5628(2) 0.50244(13)
C1 C 0.4257(3) 0.5989(3) 0.47730(19)
C2 C 0.4749(3) 0.6141(3) 0.45058(17)
C3 C 0.4688(3) 0.6662(3) 0.42921(16)
H1 H 0.434482 0.691951 0.432260
C4 C 0.5123(3) 0.6807(3) 0.40361(15)
C5 C 0.6159(3) 0.5438(3) 0.41502(16)
C6 C 0.5227(3) 0.5754(3) 0.44587(17)
H2 H 0.526729 0.540178 0.460402
C7 C 0.5648(3) 0.5878(3) 0.42002(16)
C8 C 0.5610(2) 0.6401(2) 0.39923(16)
H3 H 0.591543 0.648401 0.381965
O11 O 0.3459(2) 0.94766(19) 0.38982(12)
O13 O 0.62593(19) 0.8774(2) 0.47390(13)
O14 O 0.5632(2) 0.9372(2) 0.50244(13)
C9 C 0.5743(3) 0.9011(3) 0.47730(19)
C10 C 0.5251(3) 0.8859(3) 0.45058(17)
C11 C 0.5312(3) 0.8338(3) 0.42921(16)
H4 H 0.565518 0.808049 0.432260
C12 C 0.4877(3) 0.8193(3) 0.40361(15)
C13 C 0.3841(3) 0.9562(3) 0.41502(16)
C14 C 0.4773(3) 0.9246(3) 0.44587(17)
H5 H 0.473271 0.959822 0.460402
C15 C 0.4352(3) 0.9122(3) 0.42002(16)
C16 C 0.4390(2) 0.8599(2) 0.39923(16)
H6 H 0.408457 0.851599 0.381965
O15 O 0.30234(19) 0.5959(2) 0.36018(12)
O16 O 0.2496(2) 0.6304(2) 0.31397(12)
O17 O 0.3726(2) 0.87593(19) 0.27610(13)
O18 O 0.3128(2) 0.8132(2) 0.24756(13)
C17 C 0.3489(3) 0.8243(3) 0.27270(19)
C18 C 0.3641(3) 0.7751(3) 0.29942(17)
C19 C 0.4162(3) 0.7812(3) 0.32079(16)
H7 H 0.441951 0.815518 0.317740
C20 C 0.4307(3) 0.7377(3) 0.34639(15)
C21 C 0.2938(3) 0.6341(3) 0.33498(16)
C22 C 0.3254(3) 0.7273(3) 0.30413(17)
H8 H 0.290178 0.723271 0.289598
C23 C 0.3378(3) 0.6852(3) 0.32998(16)
C24 C 0.3901(2) 0.6890(2) 0.35077(16)
H9 H 0.398401 0.658457 0.368035
O19 O 0.69766(19) 0.9041(2) 0.36018(12)
O20 O 0.7504(2) 0.8696(2) 0.31397(12)
O21 O 0.6274(2) 0.62407(19) 0.27610(13)
O22 O 0.6872(2) 0.6868(2) 0.24756(13)
C25 C 0.6511(3) 0.6757(3) 0.27270(19)
C26 C 0.6359(3) 0.7249(3) 0.29942(17)
C27 C 0.5838(3) 0.7188(3) 0.32079(16)
H10 H 0.558049 0.684482 0.317740
C28 C 0.5693(3) 0.7623(3) 0.34639(15)
C29 C 0.7062(3) 0.8659(3) 0.33498(16)
C30 C 0.6746(3) 0.7727(3) 0.30413(17)
H11 H 0.709822 0.776729 0.289598
C31 C 0.6622(3) 0.8148(3) 0.32998(16)
C32 C 0.6099(2) 0.8110(2) 0.35077(16)
H12 H 0.601599 0.841543 0.368035
U3 U 0.83304(2) 0.43247(2) 0.52498(2)
O23 O 0.8510(2) 0.36903(19) 0.55138(13)
O24 O 0.8163(2) 0.4951(2) 0.49696(12)
U4 U 0.68247(2) 0.41696(2) 0.27498(2)
O25 O 0.7437(2) 0.4621(2) 0.43422(12)
O26 O 0.61903(19) 0.3990(2) 0.30138(13)
O27 O 0.7451(2) 0.4337(2) 0.24696(12)
O28 O 0.6338(3) 0.500000 0.250000
O32 O 0.2140(2) 0.9640(2) 0.375000
O33 O 0.7563(2) 0.4621(2) 0.56578(12)
U7 U 0.68247(2) 0.58304(2) 0.22502(2)
U8 U 0.31753(2) 0.91696(2) 0.22502(2)
U9 U 0.33304(2) 0.56753(2) 0.52498(2)
U10 U 0.18247(2) 0.58304(2) 0.27498(2)
U11 U 0.66696(2) 0.93247(2) 0.52498(2)
U12 U 0.81753(2) 0.91696(2) 0.27498(2)
U13 U 0.77103(2) 0.47897(2) 0.625000
U14 U 0.22897(2) 0.52103(2) 0.375000
U15 U 0.77103(2) 0.97897(2) 0.375000
O35 O 0.80234(19) 0.4041(2) 0.36018(12)
O38 O 0.8804(2) 0.4996(2) 0.56397(12)
O39 O 0.7496(2) 0.3696(2) 0.31397(12)
O41 O 0.62593(19) 0.3774(2) 0.52610(13)
O42 O 0.87407(19) 0.3774(2) 0.47390(13)
O44 O 0.6274(2) 0.37593(19) 0.22390(13)
O45 O 0.5632(2) 0.4372(2) 0.49756(13)
O46 O 0.9368(2) 0.4372(2) 0.50244(13)
O48 O 0.6872(2) 0.3132(2) 0.25244(13)
O10_2 O 0.0632(2) 0.4372(2) 0.00244(13)
U9_2 U 0.16696(2) 0.43247(2) 0.02498(2)
Si1_2 Si -0.000000 0.250000 0.875000
O9_2 O 0.12593(19) 0.3774(2) 0.97390(13)
C1_2 C 0.0743(3) 0.4011(3) 0.97730(19)
C2_2 C 0.0251(3) 0.3859(3) 0.95058(17)
C3_2 C 0.0312(3) 0.3338(3) 0.92921(16)
H1_2 H 0.065518 0.308049 0.932260
O11_2 O 0.1541(2) 0.05234(19) 0.88982(12)
C12_2 C 0.0123(3) 0.1807(3) 0.90361(15)
C13_2 C 0.1159(3) 0.0438(3) 0.91502(16)
C14_2 C 0.0227(3) 0.0754(3) 0.94587(17)
H5_2 H 0.026729 0.040178 0.960402
C15_2 C 0.0648(3) 0.0878(3) 0.92002(16)
C16_2 C 0.0610(2) 0.1401(2) 0.89923(16)
H6_2 H 0.091543 0.148401 0.881965
O15_2 O 0.19766(19) 0.4041(2) 0.86018(12)
O16_2 O 0.2504(2) 0.3696(2) 0.81397(12)
O17_2 O 0.1274(2) 0.12407(19) 0.77610(13)
O18_2 O 0.1872(2) 0.1868(2) 0.74756(13)
C17_2 C 0.1511(3) 0.1757(3) 0.77270(19)
C18_2 C 0.1359(3) 0.2249(3) 0.79942(17)
C19_2 C 0.0838(3) 0.2188(3) 0.82079(16)
H7_2 H 0.058049 0.184482 0.817740
C20_2 C 0.0693(3) 0.2623(3) 0.84639(15)
C21_2 C 0.2062(3) 0.3659(3) 0.83498(16)
C22_2 C 0.1746(3) 0.2727(3) 0.80413(17)
H8_2 H 0.209822 0.276729 0.789598
C23_2 C 0.1622(3) 0.3148(3) 0.82998(16)
C24_2 C 0.1099(2) 0.3110(2) 0.85077(16)
H9_2 H 0.101599 0.341543 0.868035
O32_2 O 0.2860(2) 0.0360(2) 0.875000
U8_2 U 0.18247(2) 0.08304(2) 0.72502(2)
U10_2 U 0.31753(2) 0.41696(2) 0.77498(2)
U14_2 U 0.27103(2) 0.47897(2) 0.875000
O30_2 O 0.1837(2) 0.9951(2) 0.00304(12)
O40_2 O 0.250000 0.8838(3) 0.000000
O43_2 O 0.12593(19) 0.8774(2) 0.02610(13)
O12_2 O 0.1196(2) 0.9996(2) 0.93603(12)
U5_2 U 0.16696(2) 0.93247(2) 0.97502(2)
O29_2 O 0.1490(2) 0.86903(19) 0.94862(13)
U6_2 U 0.22897(2) 0.97897(2) 0.875000
O31_2 O 0.1721(2) 0.9221(2) 0.875000
O34_2 O 0.2437(2) 0.9621(2) 0.93422(12)
O36_2 O 0.30234(19) 0.9041(2) 0.86018(12)
O37_2 O 0.2121(2) 0.9937(2) 0.81578(12)
O40_3 O 0.250000 0.8838(3) 1.000000
O47_2 O 0.0632(2) 0.9372(2) 0.99756(13)
O6_2 O 0.8163(2) 0.5049(2) 0.00304(12)
O8_2 O 0.750000 0.6162(3) 0.000000
O14_2 O 0.9368(2) 0.0628(2) 0.00244(13)
U3_2 U 0.66696(2) 0.56753(2) 0.02498(2)
O23_2 O 0.6490(2) 0.63097(19) 0.05138(13)
O33_2 O 0.7437(2) 0.5379(2) 0.06578(12)
U11_2 U 0.83304(2) 0.06753(2) 0.02498(2)
U13_2 U 0.72897(2) 0.52103(2) 0.125000
O38_2 O 0.6196(2) 0.5004(2) 0.06397(12)
O41_2 O 0.87407(19) 0.6226(2) 0.02610(13)
O46_2 O 0.5632(2) 0.5628(2) 0.00244(13)
U1_2 U 0.83304(2) 0.56753(2) 0.97502(2)
U2_2 U 0.77103(2) 0.52103(2) 0.875000
Si1_3 Si 1.000000 0.250000 0.875000
O1_2 O 0.8279(2) 0.5779(2) 0.875000
O2_2 O 0.8459(2) 0.44766(19) 0.88982(12)
O3_2 O 0.7140(2) 0.4640(2) 0.875000
O4_2 O 0.7879(2) 0.5063(2) 0.81578(12)
O5_2 O 0.8510(2) 0.63097(19) 0.94862(13)
O7_2 O 0.8804(2) 0.5004(2) 0.93603(12)
O8_3 O 0.750000 0.6162(3) 1.000000
C4_2 C 0.9877(3) 0.3193(3) 0.90361(15)
C5_2 C 0.8841(3) 0.4562(3) 0.91502(16)
C6_2 C 0.9773(3) 0.4246(3) 0.94587(17)
H2_2 H 0.973271 0.459822 0.960402
C7_2 C 0.9352(3) 0.4122(3) 0.92002(16)
C8_2 C 0.9390(2) 0.3599(2) 0.89923(16)
H3_2 H 0.908457 0.351599 0.881965
O13_2 O 0.87407(19) 0.1226(2) 0.97390(13)
C9_2 C 0.9257(3) 0.0989(3) 0.97730(19)
C10_2 C 0.9749(3) 0.1141(3) 0.95058(17)
C11_2 C 0.9688(3) 0.1662(3) 0.92921(16)
H4_2 H 0.934482 0.191951 0.932260
O19_2 O 0.80234(19) 0.0959(2) 0.86018(12)
O20_2 O 0.7496(2) 0.1304(2) 0.81397(12)
O21_2 O 0.8726(2) 0.37593(19) 0.77610(13)
O22_2 O 0.8128(2) 0.3132(2) 0.74756(13)
C25_2 C 0.8489(3) 0.3243(3) 0.77270(19)
C26_2 C 0.8641(3) 0.2751(3) 0.79942(17)
C27_2 C 0.9162(3) 0.2812(3) 0.82079(16)
H10_2 H 0.941951 0.315518 0.817740
C28_2 C 0.9307(3) 0.2377(3) 0.84639(15)
C29_2 C 0.7938(3) 0.1341(3) 0.83498(16)
C30_2 C 0.8254(3) 0.2273(3) 0.80413(17)
H11_2 H 0.790178 0.223271 0.789598
C31_2 C 0.8378(3) 0.1852(3) 0.82998(16)
C32_2 C 0.8901(2) 0.1890(2) 0.85077(16)
H12_2 H 0.898401 0.158457 0.868035
O24_2 O 0.6837(2) 0.5049(2) 0.99696(12)
U4_2 U 0.81753(2) 0.58304(2) 0.77498(2)
O25_2 O 0.7563(2) 0.5379(2) 0.93422(12)
O26_2 O 0.88097(19) 0.6010(2) 0.80138(13)
O27_2 O 0.7549(2) 0.5663(2) 0.74696(12)
O28_2 O 0.8662(3) 0.500000 0.750000
U7_2 U 0.81753(2) 0.41696(2) 0.72502(2)
U12_2 U 0.68247(2) 0.08304(2) 0.77498(2)
U15_2 U 0.72897(2) 0.02103(2) 0.875000
O35_2 O 0.69766(19) 0.5959(2) 0.86018(12)
O39_2 O 0.7504(2) 0.6304(2) 0.81397(12)
O42_2 O 0.62593(19) 0.6226(2) 0.97390(13)
O44_2 O 0.8726(2) 0.62407(19) 0.72390(13)
O45_2 O 0.9368(2) 0.5628(2) 0.99756(13)
O48_2 O 0.8128(2) 0.6868(2) 0.75244(13)
Si1_4 Si 0.500000 0.250000 0.625000
O1_3 O 0.8279(2) 0.4221(2) 0.625000
O2_3 O 0.69766(19) 0.4041(2) 0.63982(12)
O3_3 O 0.7140(2) 0.5360(2) 0.625000
O5_3 O 0.88097(19) 0.3990(2) 0.69862(13)
O6_3 O 0.7549(2) 0.4337(2) 0.75304(12)
O7_3 O 0.7504(2) 0.3696(2) 0.68603(12)
O9_3 O 0.6274(2) 0.12407(19) 0.72390(13)
O10_3 O 0.6872(2) 0.1868(2) 0.75244(13)
C1_3 C 0.6511(3) 0.1757(3) 0.72730(19)
C2_3 C 0.6359(3) 0.2249(3) 0.70058(17)
C3_3 C 0.5838(3) 0.2188(3) 0.67921(16)
H1_3 H 0.558049 0.184482 0.682260
C4_3 C 0.5693(3) 0.2623(3) 0.65361(15)
C5_3 C 0.7062(3) 0.3659(3) 0.66502(16)
C6_3 C 0.6746(3) 0.2727(3) 0.69587(17)
H2_3 H 0.709822 0.276729 0.710402
C7_3 C 0.6622(3) 0.3148(3) 0.67002(16)
C8_3 C 0.6099(2) 0.3110(2) 0.64923(16)
H3_3 H 0.601599 0.341543 0.631965
O11_3 O 0.30234(19) 0.0959(2) 0.63982(12)
O12_3 O 0.2496(2) 0.1304(2) 0.68603(12)
O13_3 O 0.3726(2) 0.37593(19) 0.72390(13)
O14_3 O 0.3128(2) 0.3132(2) 0.75244(13)
C9_3 C 0.3489(3) 0.3243(3) 0.72730(19)
C10_3 C 0.3641(3) 0.2751(3) 0.70058(17)
C11_3 C 0.4162(3) 0.2812(3) 0.67921(16)
H4_3 H 0.441951 0.315518 0.682260
C12_3 C 0.4307(3) 0.2377(3) 0.65361(15)
C13_3 C 0.2938(3) 0.1341(3) 0.66502(16)
C14_3 C 0.3254(3) 0.2273(3) 0.69587(17)
H5_3 H 0.290178 0.223271 0.710402
C15_3 C 0.3378(3) 0.1852(3) 0.67002(16)
C16_3 C 0.3901(2) 0.1890(2) 0.64923(16)
H6_3 H 0.398401 0.158457 0.631965
O15_3 O 0.6541(2) 0.05234(19) 0.61018(12)
C17_3 C 0.4257(3) 0.0989(3) 0.52270(19)
C18_3 C 0.4749(3) 0.1141(3) 0.54942(17)
C19_3 C 0.4688(3) 0.1662(3) 0.57079(16)
H7_3 H 0.434482 0.191951 0.567740
C20_3 C 0.5123(3) 0.1807(3) 0.59639(15)
C21_3 C 0.6159(3) 0.0438(3) 0.58498(16)
C22_3 C 0.5227(3) 0.0754(3) 0.55413(17)
H8_3 H 0.526729 0.040178 0.539598
C23_3 C 0.5648(3) 0.0878(3) 0.57998(16)
C24_3 C 0.5610(2) 0.1401(2) 0.60077(16)
H9_3 H 0.591543 0.148401 0.618035
O19_3 O 0.3459(2) 0.44766(19) 0.61018(12)
O20_3 O 0.3804(2) 0.5004(2) 0.56397(12)
C25_3 C 0.5743(3) 0.4011(3) 0.52270(19)
C26_3 C 0.5251(3) 0.3859(3) 0.54942(17)
C27_3 C 0.5312(3) 0.3338(3) 0.57079(16)
H10_3 H 0.565518 0.308049 0.567740
C28_3 C 0.4877(3) 0.3193(3) 0.59639(15)
C29_3 C 0.3841(3) 0.4562(3) 0.58498(16)
C30_3 C 0.4773(3) 0.4246(3) 0.55413(17)
H11_3 H 0.473271 0.459822 0.539598
C31_3 C 0.4352(3) 0.4122(3) 0.57998(16)
C32_3 C 0.4390(2) 0.3599(2) 0.60077(16)
H12_3 H 0.408457 0.351599 0.618035
O25_3 O 0.7879(2) 0.4937(2) 0.68422(12)
O29_3 O 0.11903(19) 0.1010(2) 0.69862(13)
O30_3 O 0.2451(2) 0.0663(2) 0.75304(12)
U6_3 U 0.22897(2) 0.02103(2) 0.625000
O31_3 O 0.1721(2) 0.0779(2) 0.625000
O34_3 O 0.2121(2) 0.0063(2) 0.68422(12)
U15_3 U 0.27103(2) 0.52103(2) 0.625000
O35_3 O 0.8459(2) 0.55234(19) 0.61018(12)
O37_3 O 0.2437(2) 0.0379(2) 0.56578(12)
O40_4 O 0.1338(3) 0.000000 0.750000
O16_3 O 0.6196(2) 0.9996(2) 0.56397(12)
O32_3 O 0.2860(2) 0.9640(2) 0.625000
U14_3 U 0.72897(2) 0.97897(2) 0.625000
O36_3 O 0.1541(2) 0.94766(19) 0.61018(12)
O40_5 O 0.1338(3) 1.000000 0.750000
O32_4 O 0.2140(2) 0.0360(2) 0.125000
O36_4 O 0.3459(2) 0.05234(19) 0.11018(12)
O40_6 O 0.3662(3) -0.000000 0.250000
Si1_5 Si 0.000000 0.750000 0.125000
O11_4 O 0.19766(19) 0.9041(2) 0.13982(12)
O12_4 O 0.2504(2) 0.8696(2) 0.18603(12)
O13_4 O 0.1274(2) 0.62407(19) 0.22390(13)
O14_4 O 0.1872(2) 0.6868(2) 0.25244(13)
C9_4 C 0.1511(3) 0.6757(3) 0.22730(19)
C10_4 C 0.1359(3) 0.7249(3) 0.20058(17)
C11_4 C 0.0838(3) 0.7188(3) 0.17921(16)
H4_4 H 0.058049 0.684482 0.182260
C12_4 C 0.0693(3) 0.7623(3) 0.15361(15)
C13_4 C 0.2062(3) 0.8659(3) 0.16502(16)
C14_4 C 0.1746(3) 0.7727(3) 0.19587(17)
H5_4 H 0.209822 0.776729 0.210402
C15_4 C 0.1622(3) 0.8148(3) 0.17002(16)
C16_4 C 0.1099(2) 0.8110(2) 0.14923(16)
H6_4 H 0.101599 0.841543 0.131965
C17_4 C 0.0743(3) 0.9011(3) 0.02270(19)
C18_4 C 0.0251(3) 0.8859(3) 0.04942(17)
C19_4 C 0.0312(3) 0.8338(3) 0.07079(16)
H7_4 H 0.065518 0.808049 0.067740
O19_4 O 0.1541(2) 0.55234(19) 0.11018(12)
O20_4 O 0.1196(2) 0.4996(2) 0.06397(12)
C28_4 C 0.0123(3) 0.6807(3) 0.09639(15)
C29_4 C 0.1159(3) 0.5438(3) 0.08498(16)
C30_4 C 0.0227(3) 0.5754(3) 0.05413(17)
H11_4 H 0.026729 0.540178 0.039598
C31_4 C 0.0648(3) 0.5878(3) 0.07998(16)
C32_4 C 0.0610(2) 0.6401(2) 0.10077(16)
H12_4 H 0.091543 0.648401 0.118035
O29_4 O 0.38097(19) 0.8990(2) 0.19862(13)
O30_4 O 0.2549(2) 0.9337(2) 0.25304(12)
U6_4 U 0.27103(2) 0.97897(2) 0.125000
O31_4 O 0.3279(2) 0.9221(2) 0.125000
O34_4 O 0.2879(2) 0.9937(2) 0.18422(12)
U15_4 U 0.22897(2) 0.47897(2) 0.125000
O37_4 O 0.2563(2) 0.9621(2) 0.06578(12)
O40_7 O 0.3662(3) 1.000000 0.250000
O16_4 O 0.8804(2) 0.0004(2) 0.06397(12)
U14_4 U 0.77103(2) 0.02103(2) 0.125000
Si1_6 Si 1.000000 0.750000 0.125000
O1_4 O 0.6721(2) 0.5779(2) 0.125000
O2_4 O 0.80234(19) 0.5959(2) 0.13982(12)
O3_4 O 0.7860(2) 0.4640(2) 0.125000
O5_4 O 0.61903(19) 0.6010(2) 0.19862(13)
O6_4 O 0.7451(2) 0.5663(2) 0.25304(12)
O7_4 O 0.7496(2) 0.6304(2) 0.18603(12)
O9_4 O 0.8726(2) 0.87593(19) 0.22390(13)
O10_4 O 0.8128(2) 0.8132(2) 0.25244(13)
C1_4 C 0.8489(3) 0.8243(3) 0.22730(19)
C2_4 C 0.8641(3) 0.7751(3) 0.20058(17)
C3_4 C 0.9162(3) 0.7812(3) 0.17921(16)
H1_4 H 0.941951 0.815518 0.182260
C4_4 C 0.9307(3) 0.7377(3) 0.15361(15)
C5_4 C 0.7938(3) 0.6341(3) 0.16502(16)
C6_4 C 0.8254(3) 0.7273(3) 0.19587(17)
H2_4 H 0.790178 0.723271 0.210402
C7_4 C 0.8378(3) 0.6852(3) 0.17002(16)
C8_4 C 0.8901(2) 0.6890(2) 0.14923(16)
H3_4 H 0.898401 0.658457 0.131965
O15_4 O 0.8459(2) 0.94766(19) 0.11018(12)
C20_4 C 0.9877(3) 0.8193(3) 0.09639(15)
C21_4 C 0.8841(3) 0.9562(3) 0.08498(16)
C22_4 C 0.9773(3) 0.9246(3) 0.05413(17)
H8_4 H 0.973271 0.959822 0.039598
C23_4 C 0.9352(3) 0.9122(3) 0.07998(16)
C24_4 C 0.9390(2) 0.8599(2) 0.10077(16)
H9_4 H 0.908457 0.851599 0.118035
C25_4 C 0.9257(3) 0.5989(3) 0.02270(19)
C26_4 C 0.9749(3) 0.6141(3) 0.04942(17)
C27_4 C 0.9688(3) 0.6662(3) 0.07079(16)
H10_4 H 0.934482 0.691951 0.067740
O25_4 O 0.7121(2) 0.5063(2) 0.18422(12)
O35_4 O 0.6541(2) 0.44766(19) 0.11018(12)
O12_5 O 0.1196(2) 0.0004(2) 0.56397(12)
U5_3 U 0.16696(2) 0.06753(2) 0.52498(2)
O29_5 O 0.1490(2) 0.13097(19) 0.55138(13)
O30_5 O 0.1837(2) 0.0049(2) 0.49696(12)
O43_3 O 0.12593(19) 0.1226(2) 0.47390(13)
O47_3 O 0.0632(2) 0.0628(2) 0.50244(13)
Si1_7 Si -0.000000 0.750000 0.625000
O9_5 O 0.12593(19) 0.6226(2) 0.52610(13)
O10_5 O 0.0632(2) 0.5628(2) 0.49756(13)
C1_5 C 0.0743(3) 0.5989(3) 0.52270(19)
C2_5 C 0.0251(3) 0.6141(3) 0.54942(17)
C3_5 C 0.0312(3) 0.6662(3) 0.57079(16)
H1_5 H 0.065518 0.691951 0.567740
C12_5 C 0.0123(3) 0.8193(3) 0.59639(15)
C13_5 C 0.1159(3) 0.9562(3) 0.58498(16)
C14_5 C 0.0227(3) 0.9246(3) 0.55413(17)
H5_5 H 0.026729 0.959822 0.539598
C15_5 C 0.0648(3) 0.9122(3) 0.57998(16)
C16_5 C 0.0610(2) 0.8599(2) 0.60077(16)
H6_5 H 0.091543 0.851599 0.618035
O15_5 O 0.19766(19) 0.5959(2) 0.63982(12)
O16_5 O 0.2504(2) 0.6304(2) 0.68603(12)
O17_3 O 0.1274(2) 0.87593(19) 0.72390(13)
O18_3 O 0.1872(2) 0.8132(2) 0.75244(13)
C17_5 C 0.1511(3) 0.8243(3) 0.72730(19)
C18_5 C 0.1359(3) 0.7751(3) 0.70058(17)
C19_5 C 0.0838(3) 0.7812(3) 0.67921(16)
H7_5 H 0.058049 0.815518 0.682260
C20_5 C 0.0693(3) 0.7377(3) 0.65361(15)
C21_5 C 0.2062(3) 0.6341(3) 0.66502(16)
C22_5 C 0.1746(3) 0.7273(3) 0.69587(17)
H8_5 H 0.209822 0.723271 0.710402
C23_5 C 0.1622(3) 0.6852(3) 0.67002(16)
C24_5 C 0.1099(2) 0.6890(2) 0.64923(16)
H9_5 H 0.101599 0.658457 0.631965
U8_3 U 0.18247(2) 0.91696(2) 0.77498(2)
U9_3 U 0.16696(2) 0.56753(2) 0.47502(2)
U10_3 U 0.31753(2) 0.58304(2) 0.72502(2)
Si1_8 Si 1.000000 0.750000 0.625000
C4_5 C 0.9877(3) 0.6807(3) 0.59639(15)
C5_5 C 0.8841(3) 0.5438(3) 0.58498(16)
C6_5 C 0.9773(3) 0.5754(3) 0.55413(17)
H2_5 H 0.973271 0.540178 0.539598
C7_5 C 0.9352(3) 0.5878(3) 0.57998(16)
C8_5 C 0.9390(2) 0.6401(2) 0.60077(16)
H3_5 H 0.908457 0.648401 0.618035
O13_5 O 0.87407(19) 0.8774(2) 0.52610(13)
O14_5 O 0.9368(2) 0.9372(2) 0.49756(13)
C9_5 C 0.9257(3) 0.9011(3) 0.52270(19)
C10_5 C 0.9749(3) 0.8859(3) 0.54942(17)
C11_5 C 0.9688(3) 0.8338(3) 0.57079(16)
H4_5 H 0.934482 0.808049 0.567740
O19_5 O 0.80234(19) 0.9041(2) 0.63982(12)
O20_5 O 0.7496(2) 0.8696(2) 0.68603(12)
C25_5 C 0.8489(3) 0.6757(3) 0.72730(19)
C26_5 C 0.8641(3) 0.7249(3) 0.70058(17)
C27_5 C 0.9162(3) 0.7188(3) 0.67921(16)
H10_5 H 0.941951 0.684482 0.682260
C28_5 C 0.9307(3) 0.7623(3) 0.65361(15)
C29_5 C 0.7938(3) 0.8659(3) 0.66502(16)
C30_5 C 0.8254(3) 0.7727(3) 0.69587(17)
H11_5 H 0.790178 0.776729 0.710402
C31_5 C 0.8378(3) 0.8148(3) 0.67002(16)
C32_5 C 0.8901(2) 0.8110(2) 0.64923(16)
H12_5 H 0.898401 0.841543 0.631965
U11_3 U 0.83304(2) 0.93247(2) 0.47502(2)
U12_3 U 0.68247(2) 0.91696(2) 0.72502(2)
Si1_9 Si 0.500000 0.250000 0.125000
O9_6 O 0.37407(19) 0.3774(2) 0.02610(13)
C1_6 C 0.4257(3) 0.4011(3) 0.02270(19)
C2_6 C 0.4749(3) 0.3859(3) 0.04942(17)
C3_6 C 0.4688(3) 0.3338(3) 0.07079(16)
H1_6 H 0.434482 0.308049 0.067740
C4_6 C 0.5123(3) 0.3193(3) 0.09639(15)
C5_6 C 0.6159(3) 0.4562(3) 0.08498(16)
C6_6 C 0.5227(3) 0.4246(3) 0.05413(17)
H2_6 H 0.526729 0.459822 0.039598
C7_6 C 0.5648(3) 0.4122(3) 0.07998(16)
C8_6 C 0.5610(2) 0.3599(2) 0.10077(16)
H3_6 H 0.591543 0.351599 0.118035
O13_6 O 0.62593(19) 0.1226(2) 0.02610(13)
C9_6 C 0.5743(3) 0.0989(3) 0.02270(19)
C10_6 C 0.5251(3) 0.1141(3) 0.04942(17)
C11_6 C 0.5312(3) 0.1662(3) 0.07079(16)
H4_6 H 0.565518 0.191951 0.067740
C12_6 C 0.4877(3) 0.1807(3) 0.09639(15)
C13_6 C 0.3841(3) 0.0438(3) 0.08498(16)
C14_6 C 0.4773(3) 0.0754(3) 0.05413(17)
H5_6 H 0.473271 0.040178 0.039598
C15_6 C 0.4352(3) 0.0878(3) 0.07998(16)
C16_6 C 0.4390(2) 0.1401(2) 0.10077(16)
H6_6 H 0.408457 0.148401 0.118035
O15_6 O 0.30234(19) 0.4041(2) 0.13982(12)
O16_6 O 0.2496(2) 0.3696(2) 0.18603(12)
O17_4 O 0.3726(2) 0.12407(19) 0.22390(13)
O18_4 O 0.3128(2) 0.1868(2) 0.25244(13)
C17_6 C 0.3489(3) 0.1757(3) 0.22730(19)
C18_6 C 0.3641(3) 0.2249(3) 0.20058(17)
C19_6 C 0.4162(3) 0.2188(3) 0.17921(16)
H7_6 H 0.441951 0.184482 0.182260
C20_6 C 0.4307(3) 0.2623(3) 0.15361(15)
C21_6 C 0.2938(3) 0.3659(3) 0.16502(16)
C22_6 C 0.3254(3) 0.2727(3) 0.19587(17)
H8_6 H 0.290178 0.276729 0.210402
C23_6 C 0.3378(3) 0.3148(3) 0.17002(16)
C24_6 C 0.3901(2) 0.3110(2) 0.14923(16)
H9_6 H 0.398401 0.341543 0.131965
O19_6 O 0.69766(19) 0.0959(2) 0.13982(12)
O20_6 O 0.7504(2) 0.1304(2) 0.18603(12)
C25_6 C 0.6511(3) 0.3243(3) 0.22730(19)
C26_6 C 0.6359(3) 0.2751(3) 0.20058(17)
C27_6 C 0.5838(3) 0.2812(3) 0.17921(16)
H10_6 H 0.558049 0.315518 0.182260
C28_6 C 0.5693(3) 0.2377(3) 0.15361(15)
C29_6 C 0.7062(3) 0.1341(3) 0.16502(16)
C30_6 C 0.6746(3) 0.2273(3) 0.19587(17)
H11_6 H 0.709822 0.223271 0.210402
C31_6 C 0.6622(3) 0.1852(3) 0.17002(16)
C32_6 C 0.6099(2) 0.1890(2) 0.14923(16)
H12_6 H 0.601599 0.158457 0.131965
U8_4 U 0.31753(2) 0.08304(2) 0.27498(2)
U10_4 U 0.18247(2) 0.41696(2) 0.22502(2)
U12_4 U 0.81753(2) 0.08304(2) 0.22502(2)
O10_6 O 0.4368(2) 0.4372(2) 0.99756(13)
O14_6 O 0.5632(2) 0.0628(2) 0.99756(13)
U9_4 U 0.33304(2) 0.43247(2) 0.97502(2)
U11_4 U 0.66696(2) 0.06753(2) 0.97502(2)
O12_6 O 0.3804(2) 0.9996(2) 0.06397(12)
U5_4 U 0.33304(2) 0.93247(2) 0.02498(2)
O29_6 O 0.3510(2) 0.86903(19) 0.05138(13)
O47_4 O 0.4368(2) 0.9372(2) 0.00244(13)
O30_6 O 0.3163(2) 0.9951(2) 0.99696(12)
O43_4 O 0.37407(19) 0.8774(2) 0.97390(13)
Si1_10 Si 0.000000 0.250000 0.375000
O12_7 O 0.2504(2) 0.1304(2) 0.31397(12)
O13_7 O 0.1274(2) 0.37593(19) 0.27610(13)
O14_7 O 0.1872(2) 0.3132(2) 0.24756(13)
C9_7 C 0.1511(3) 0.3243(3) 0.27270(19)
C10_7 C 0.1359(3) 0.2751(3) 0.29942(17)
C11_7 C 0.0838(3) 0.2812(3) 0.32079(16)
H4_7 H 0.058049 0.315518 0.317740
C12_7 C 0.0693(3) 0.2377(3) 0.34639(15)
C13_7 C 0.2062(3) 0.1341(3) 0.33498(16)
C14_7 C 0.1746(3) 0.2273(3) 0.30413(17)
H5_7 H 0.209822 0.223271 0.289598
C15_7 C 0.1622(3) 0.1852(3) 0.32998(16)
C16_7 C 0.1099(2) 0.1890(2) 0.35077(16)
H6_7 H 0.101599 0.158457 0.368035
C17_7 C 0.0743(3) 0.0989(3) 0.47730(19)
C18_7 C 0.0251(3) 0.1141(3) 0.45058(17)
C19_7 C 0.0312(3) 0.1662(3) 0.42921(16)
H7_7 H 0.065518 0.191951 0.432260
O19_7 O 0.1541(2) 0.44766(19) 0.38982(12)
O20_7 O 0.1196(2) 0.5004(2) 0.43603(12)
C28_7 C 0.0123(3) 0.3193(3) 0.40361(15)
C29_7 C 0.1159(3) 0.4562(3) 0.41502(16)
C30_7 C 0.0227(3) 0.4246(3) 0.44587(17)
H11_7 H 0.026729 0.459822 0.460402
C31_7 C 0.0648(3) 0.4122(3) 0.42002(16)
C32_7 C 0.0610(2) 0.3599(2) 0.39923(16)
H12_7 H 0.091543 0.351599 0.381965
O29_7 O 0.38097(19) 0.1010(2) 0.30138(13)
O30_7 O 0.2549(2) 0.0663(2) 0.24696(12)
Si1_11 Si 1.000000 0.250000 0.375000
O9_7 O 0.8726(2) 0.12407(19) 0.27610(13)
O10_7 O 0.8128(2) 0.1868(2) 0.24756(13)
C1_7 C 0.8489(3) 0.1757(3) 0.27270(19)
C2_7 C 0.8641(3) 0.2249(3) 0.29942(17)
C3_7 C 0.9162(3) 0.2188(3) 0.32079(16)
H1_7 H 0.941951 0.184482 0.317740
C4_7 C 0.9307(3) 0.2623(3) 0.34639(15)
C5_7 C 0.7938(3) 0.3659(3) 0.33498(16)
C6_7 C 0.8254(3) 0.2727(3) 0.30413(17)
H2_7 H 0.790178 0.276729 0.289598
C7_7 C 0.8378(3) 0.3148(3) 0.32998(16)
C8_7 C 0.8901(2) 0.3110(2) 0.35077(16)
H3_7 H 0.898401 0.341543 0.368035
O15_7 O 0.8459(2) 0.05234(19) 0.38982(12)
C20_7 C 0.9877(3) 0.1807(3) 0.40361(15)
C21_7 C 0.8841(3) 0.0438(3) 0.41502(16)
C22_7 C 0.9773(3) 0.0754(3) 0.44587(17)
H8_7 H 0.973271 0.040178 0.460402
C23_7 C 0.9352(3) 0.0878(3) 0.42002(16)
C24_7 C 0.9390(2) 0.1401(2) 0.39923(16)
H9_7 H 0.908457 0.148401 0.381965
C25_7 C 0.9257(3) 0.4011(3) 0.47730(19)
C26_7 C 0.9749(3) 0.3859(3) 0.45058(17)
C27_7 C 0.9688(3) 0.3338(3) 0.42921(16)
H10_7 H 0.934482 0.308049 0.432260
O16_7 O 0.8804(2) 0.9996(2) 0.43603(12)
O16_8 O 0.6196(2) 0.0004(2) 0.93603(12)
Si1_12 Si 0.500000 0.750000 0.875000
O9_8 O 0.6274(2) 0.87593(19) 0.77610(13)
O10_8 O 0.6872(2) 0.8132(2) 0.74756(13)
C1_8 C 0.6511(3) 0.8243(3) 0.77270(19)
C2_8 C 0.6359(3) 0.7751(3) 0.79942(17)
C3_8 C 0.5838(3) 0.7812(3) 0.82079(16)
H1_8 H 0.558049 0.815518 0.817740
C4_8 C 0.5693(3) 0.7377(3) 0.84639(15)
C5_8 C 0.7062(3) 0.6341(3) 0.83498(16)
C6_8 C 0.6746(3) 0.7273(3) 0.80413(17)
H2_8 H 0.709822 0.723271 0.789598
C7_8 C 0.6622(3) 0.6852(3) 0.82998(16)
C8_8 C 0.6099(2) 0.6890(2) 0.85077(16)
H3_8 H 0.601599 0.658457 0.868035
O12_8 O 0.2496(2) 0.8696(2) 0.81397(12)
O13_8 O 0.3726(2) 0.62407(19) 0.77610(13)
O14_8 O 0.3128(2) 0.6868(2) 0.74756(13)
C9_8 C 0.3489(3) 0.6757(3) 0.77270(19)
C10_8 C 0.3641(3) 0.7249(3) 0.79942(17)
C11_8 C 0.4162(3) 0.7188(3) 0.82079(16)
H4_8 H 0.441951 0.684482 0.817740
C12_8 C 0.4307(3) 0.7623(3) 0.84639(15)
C13_8 C 0.2938(3) 0.8659(3) 0.83498(16)
C14_8 C 0.3254(3) 0.7727(3) 0.80413(17)
H5_8 H 0.290178 0.776729 0.789598
C15_8 C 0.3378(3) 0.8148(3) 0.82998(16)
C16_8 C 0.3901(2) 0.8110(2) 0.85077(16)
H6_8 H 0.398401 0.841543 0.868035
O15_8 O 0.6541(2) 0.94766(19) 0.88982(12)
C17_8 C 0.4257(3) 0.9011(3) 0.97730(19)
C18_8 C 0.4749(3) 0.8859(3) 0.95058(17)
C19_8 C 0.4688(3) 0.8338(3) 0.92921(16)
H7_8 H 0.434482 0.808049 0.932260
C20_8 C 0.5123(3) 0.8193(3) 0.90361(15)
C21_8 C 0.6159(3) 0.9562(3) 0.91502(16)
C22_8 C 0.5227(3) 0.9246(3) 0.94587(17)
H8_8 H 0.526729 0.959822 0.960402
C23_8 C 0.5648(3) 0.9122(3) 0.92002(16)
C24_8 C 0.5610(2) 0.8599(2) 0.89923(16)
H9_8 H 0.591543 0.851599 0.881965
O19_8 O 0.3459(2) 0.55234(19) 0.88982(12)
O20_8 O 0.3804(2) 0.4996(2) 0.93603(12)
C25_8 C 0.5743(3) 0.5989(3) 0.97730(19)
C26_8 C 0.5251(3) 0.6141(3) 0.95058(17)
C27_8 C 0.5312(3) 0.6662(3) 0.92921(16)
H10_8 H 0.565518 0.691951 0.932260
C28_8 C 0.4877(3) 0.6807(3) 0.90361(15)
C29_8 C 0.3841(3) 0.5438(3) 0.91502(16)
C30_8 C 0.4773(3) 0.5754(3) 0.94587(17)
H11_8 H 0.473271 0.540178 0.960402
C31_8 C 0.4352(3) 0.5878(3) 0.92002(16)
C32_8 C 0.4390(2) 0.6401(2) 0.89923(16)
H12_8 H 0.408457 0.648401 0.881965
O29_8 O 0.11903(19) 0.8990(2) 0.80138(13)
O30_8 O 0.2451(2) 0.9337(2) 0.74696(12)
O1_5 O 0.3279(2) 0.5779(2) 0.625000
O3_5 O 0.2140(2) 0.4640(2) 0.625000
O4_3 O 0.2879(2) 0.5063(2) 0.68422(12)
O5_5 O 0.3510(2) 0.63097(19) 0.55138(13)
O6_5 O 0.3163(2) 0.5049(2) 0.49696(12)
O8_4 O 0.250000 0.6162(3) 0.500000
O23_3 O 0.1490(2) 0.63097(19) 0.44862(13)
O24_3 O 0.1837(2) 0.5049(2) 0.50304(12)
O25_5 O 0.2563(2) 0.5379(2) 0.56578(12)
O26_3 O 0.38097(19) 0.6010(2) 0.69862(13)
O27_3 O 0.2549(2) 0.5663(2) 0.75304(12)
O28_3 O 0.3662(3) 0.500000 0.750000
O32_5 O 0.7860(2) 0.0360(2) 0.625000
O33_3 O 0.2437(2) 0.5379(2) 0.43422(12)
O29_9 O 0.6490(2) 0.86903(19) 0.55138(13)
O30_9 O 0.6837(2) 0.9951(2) 0.49696(12)
O31_5 O 0.6721(2) 0.9221(2) 0.625000
O34_5 O 0.7437(2) 0.9621(2) 0.56578(12)
O37_5 O 0.7121(2) 0.9937(2) 0.68422(12)
O40_8 O 0.750000 0.8838(3) 0.500000
O1_6 O 0.1721(2) 0.4221(2) 0.125000
O3_6 O 0.2860(2) 0.5360(2) 0.125000
O4_4 O 0.2121(2) 0.4937(2) 0.18422(12)
O5_6 O 0.1490(2) 0.36903(19) 0.05138(13)
O8_5 O 0.250000 0.3838(3) 0.000000
O24_4 O 0.3163(2) 0.4951(2) 0.00304(12)
O25_6 O 0.2437(2) 0.4621(2) 0.06578(12)
O26_4 O 0.11903(19) 0.3990(2) 0.19862(13)
O27_4 O 0.2451(2) 0.4337(2) 0.25304(12)
O28_4 O 0.1338(3) 0.500000 0.250000
O6_6 O 0.1837(2) 0.4951(2) 0.99696(12)
O8_6 O 0.250000 0.3838(3) 1.000000
O23_4 O 0.3510(2) 0.36903(19) 0.94862(13)
O33_4 O 0.2563(2) 0.4621(2) 0.93422(12)
O29_10 O 0.8510(2) 0.13097(19) 0.05138(13)
O31_6 O 0.8279(2) 0.0779(2) 0.125000
O34_6 O 0.7563(2) 0.0379(2) 0.06578(12)
O37_6 O 0.7879(2) 0.0063(2) 0.18422(12)
O40_9 O 0.750000 0.1162(3) 0.000000
O30_10 O 0.8163(2) 0.0049(2) 0.99696(12)
O40_10 O 0.750000 0.1162(3) 1.000000
O32_6 O 0.7140(2) 0.9640(2) 0.125000
O32_7 O 0.7140(2) 0.0360(2) 0.375000
O40_11 O 0.8662(3) -0.000000 0.250000
O1_7 O 0.1721(2) 0.5779(2) 0.375000
O3_7 O 0.2860(2) 0.4640(2) 0.375000
O5_7 O 0.11903(19) 0.6010(2) 0.30138(13)
O6_7 O 0.2451(2) 0.5663(2) 0.24696(12)
O25_7 O 0.2121(2) 0.5063(2) 0.31578(12)
O29_11 O 0.88097(19) 0.8990(2) 0.30138(13)
O30_11 O 0.7549(2) 0.9337(2) 0.24696(12)
O31_7 O 0.8279(2) 0.9221(2) 0.375000
O34_7 O 0.7879(2) 0.9937(2) 0.31578(12)
O37_7 O 0.7563(2) 0.9621(2) 0.43422(12)
O40_12 O 0.8662(3) 1.000000 0.250000
O1_8 O 0.3279(2) 0.4221(2) 0.875000
O3_8 O 0.2140(2) 0.5360(2) 0.875000
O5_8 O 0.38097(19) 0.3990(2) 0.80138(13)
O6_8 O 0.2549(2) 0.4337(2) 0.74696(12)
O25_8 O 0.2879(2) 0.4937(2) 0.81578(12)
O29_12 O 0.61903(19) 0.1010(2) 0.80138(13)
O30_12 O 0.7451(2) 0.0663(2) 0.74696(12)
O31_8 O 0.6721(2) 0.0779(2) 0.875000
O34_8 O 0.7121(2) 0.0063(2) 0.81578(12)
O37_8 O 0.7437(2) 0.0379(2) 0.93422(12)
O40_13 O 0.6338(3) 0.000000 0.750000
O32_8 O 0.7860(2) 0.9640(2) 0.875000
O40_14 O 0.6338(3) 1.000000 0.750000
O29_13 O 0.8510(2) 0.86903(19) 0.44862(13)
O30_13 O 0.8163(2) 0.9951(2) 0.50304(12)
O30_14 O 0.6837(2) 0.0049(2) 0.00304(12)
O29_14 O 0.6490(2) 0.13097(19) 0.94862(13)
O29_15 O 0.61903(19) 0.8990(2) 0.69862(13)
O30_15 O 0.7451(2) 0.9337(2) 0.75304(12)
O29_16 O 0.88097(19) 0.1010(2) 0.19862(13)
O30_16 O 0.7549(2) 0.0663(2) 0.25304(12)
loop_
_geom_bond_atom_site_label_1
_geom_bond_atom_site_label_2
_geom_bond_site_symmetry_1
_geom_bond_site_symmetry_2
U5 O12 1_555 1_555
O29 U5 1_555 1_555
O30 U5 1_555 1_555
O31 U6 1_555 1_555
O34 U5 1_555 1_555
O36 U6 1_555 1_555
O37 U6 1_555 1_555
O40 U5 1_555 1_555
O43 U5 1_555 1_555
O47 U5 1_555 1_555
U6 O34 1_555 1_555
U1 O5 1_555 1_555
U2 O1 1_555 1_555
Si1 C4 1_555 1_555
O2 U2 1_555 1_555
O3 U2 1_555 1_555
O4 U2 1_555 1_555
O6 U1 1_555 1_555
O7 U1 1_555 1_555
O8 U1 1_555 1_555
O9 C1 1_555 1_555
O10 C1 1_555 1_555
C1 C2 1_555 1_555
C2 C3 1_555 1_555
C3 H1 1_555 1_555
C4 C3 1_555 1_555
C5 O2 1_555 1_555
C6 C2 1_555 1_555
H2 C6 1_555 1_555
C7 C5 1_555 1_555
C8 C4 1_555 1_555
H3 C8 1_555 1_555
O11 C13 1_555 1_555
O13 C9 1_555 1_555
O14 C9 1_555 1_555
C9 C10 1_555 1_555
C10 C11 1_555 1_555
C11 H4 1_555 1_555
C12 Si1 1_555 1_555
C13 C15 1_555 1_555
C14 C10 1_555 1_555
H5 C14 1_555 1_555
C15 C14 1_555 1_555
C16 C12 1_555 1_555
H6 C16 1_555 1_555
O15 C21 1_555 1_555
O16 C21 1_555 1_555
O17 C17 1_555 1_555
O18 C17 1_555 1_555
C17 C18 1_555 1_555
C18 C19 1_555 1_555
C19 H7 1_555 1_555
C20 Si1 1_555 1_555
C21 C23 1_555 1_555
C22 C18 1_555 1_555
H8 C22 1_555 1_555
C23 C22 1_555 1_555
C24 C20 1_555 1_555
H9 C24 1_555 1_555
O19 C29 1_555 1_555
O20 C29 1_555 1_555
O21 C25 1_555 1_555
O22 C25 1_555 1_555
C25 C26 1_555 1_555
C26 C27 1_555 1_555
C27 H10 1_555 1_555
C28 Si1 1_555 1_555
C29 C31 1_555 1_555
C30 C26 1_555 1_555
H11 C30 1_555 1_555
C31 C30 1_555 1_555
C32 C28 1_555 1_555
H12 C32 1_555 1_555
U3 O8 1_555 1_555
O23 U3 1_555 1_555
O24 U3 1_555 1_555
U4 O4 1_555 1_555
O25 U1 1_555 1_555
O26 U4 1_555 1_555
O27 U4 1_555 1_555
O28 U4 1_555 1_555
O33 U3 1_555 1_555
U7 O21 1_555 1_555
U8 O17 1_555 1_555
U9 O9 1_555 1_555
U10 O16 1_555 1_555
U11 O13 1_555 1_555
U12 O20 1_555 1_555
U13 O33 1_555 1_555
U14 O15 1_555 1_555
U15 O19 1_555 1_555
O35 U2 1_555 1_555
O38 U3 1_555 1_555
O39 U4 1_555 1_555
O41 U1 1_555 1_555
O42 U3 1_555 1_555
O44 U4 1_555 1_555
O45 U1 1_555 1_555
O46 U3 1_555 1_555
O48 U4 1_555 1_555
U2 O25 1_555 1_555
O7 C5 1_555 1_555
O10 U9 1_555 1_555
C6 C7 1_555 1_555
C7 C8 1_555 1_555
O14 U11 1_555 1_555
C11 C12 1_555 1_555
C15 C16 1_555 1_555
O18 U8 1_555 1_555
C19 C20 1_555 1_555
C23 C24 1_555 1_555
O22 U7 1_555 1_555
C27 C28 1_555 1_555
C31 C32 1_555 1_555
O28 U7 1_555 1_555
O10_2 U9_2 1_555 1_555
O9_2 C1_2 1_555 1_555
C1_2 C2_2 1_555 1_555
C2_2 C3_2 1_555 1_555
C3_2 H1_2 1_555 1_555
O11_2 C13_2 1_555 1_555
C12_2 Si1_2 1_555 1_555
C13_2 C15_2 1_555 1_555
H5_2 C14_2 1_555 1_555
C15_2 C14_2 1_555 1_555
C16_2 C12_2 1_555 1_555
H6_2 C16_2 1_555 1_555
O15_2 C21_2 1_555 1_555
O16_2 C21_2 1_555 1_555
O17_2 C17_2 1_555 1_555
O18_2 C17_2 1_555 1_555
C17_2 C18_2 1_555 1_555
C18_2 C19_2 1_555 1_555
C19_2 H7_2 1_555 1_555
C20_2 Si1_2 1_555 1_555
C21_2 C23_2 1_555 1_555
C22_2 C18_2 1_555 1_555
H8_2 C22_2 1_555 1_555
C23_2 C22_2 1_555 1_555
C24_2 C20_2 1_555 1_555
H9_2 C24_2 1_555 1_555
U8_2 O17_2 1_555 1_555
U10_2 O16_2 1_555 1_555
U14_2 O15_2 1_555 1_555
C15_2 C16_2 1_555 1_555
O18_2 U8_2 1_555 1_555
C19_2 C20_2 1_555 1_555
C23_2 C24_2 1_555 1_555
U5_2 O12_2 1_555 1_555
O29_2 U5_2 1_555 1_555
O31_2 U6_2 1_555 1_555
O34_2 U5_2 1_555 1_555
O36_2 U6_2 1_555 1_555
O37_2 U6_2 1_555 1_555
O40_3 U5_2 1_555 1_555
O47_2 U5_2 1_555 1_555
U6_2 O34_2 1_555 1_555
U3_2 O8_2 1_555 1_555
O23_2 U3_2 1_555 1_555
O33_2 U3_2 1_555 1_555
U13_2 O33_2 1_555 1_555
O38_2 U3_2 1_555 1_555
O46_2 U3_2 1_555 1_555
O14_2 U11_2 1_555 1_555
U1_2 O5_2 1_555 1_555
U2_2 O1_2 1_555 1_555
Si1_3 C4_2 1_555 1_555
O2_2 U2_2 1_555 1_555
O3_2 U2_2 1_555 1_555
O4_2 U2_2 1_555 1_555
O7_2 U1_2 1_555 1_555
O8_3 U1_2 1_555 1_555
C5_2 O2_2 1_555 1_555
H2_2 C6_2 1_555 1_555
C7_2 C5_2 1_555 1_555
C8_2 C4_2 1_555 1_555
H3_2 C8_2 1_555 1_555
O13_2 C9_2 1_555 1_555
C9_2 C10_2 1_555 1_555
C10_2 C11_2 1_555 1_555
C11_2 H4_2 1_555 1_555
O19_2 C29_2 1_555 1_555
O20_2 C29_2 1_555 1_555
O21_2 C25_2 1_555 1_555
O22_2 C25_2 1_555 1_555
C25_2 C26_2 1_555 1_555
C26_2 C27_2 1_555 1_555
C27_2 H10_2 1_555 1_555
C28_2 Si1_3 1_555 1_555
C29_2 C31_2 1_555 1_555
C30_2 C26_2 1_555 1_555
H11_2 C30_2 1_555 1_555
C31_2 C30_2 1_555 1_555
C32_2 C28_2 1_555 1_555
H12_2 C32_2 1_555 1_555
U4_2 O4_2 1_555 1_555
O25_2 U1_2 1_555 1_555
O26_2 U4_2 1_555 1_555
O27_2 U4_2 1_555 1_555
O28_2 U4_2 1_555 1_555
U7_2 O21_2 1_555 1_555
U12_2 O20_2 1_555 1_555
U15_2 O19_2 1_555 1_555
O35_2 U2_2 1_555 1_555
O39_2 U4_2 1_555 1_555
O44_2 U4_2 1_555 1_555
O45_2 U1_2 1_555 1_555
O48_2 U4_2 1_555 1_555
U2_2 O25_2 1_555 1_555
O7_2 C5_2 1_555 1_555
C6_2 C7_2 1_555 1_555
C7_2 C8_2 1_555 1_555
O22_2 U7_2 1_555 1_555
C27_2 C28_2 1_555 1_555
C31_2 C32_2 1_555 1_555
O28_2 U7_2 1_555 1_555
U7_2 O5_3 1_555 1_555
U13 O1_3 1_555 1_555
Si1_4 C4_3 1_555 1_555
O2_3 U13 1_555 1_555
O3_3 U13 1_555 1_555
O6_3 U7_2 1_555 1_555
O7_3 U7_2 1_555 1_555
O9_3 C1_3 1_555 1_555
O10_3 C1_3 1_555 1_555
C1_3 C2_3 1_555 1_555
C2_3 C3_3 1_555 1_555
C3_3 H1_3 1_555 1_555
C4_3 C3_3 1_555 1_555
C5_3 O2_3 1_555 1_555
C6_3 C2_3 1_555 1_555
H2_3 C6_3 1_555 1_555
C7_3 C5_3 1_555 1_555
C8_3 C4_3 1_555 1_555
H3_3 C8_3 1_555 1_555
O11_3 C13_3 1_555 1_555
O12_3 C13_3 1_555 1_555
O13_3 C9_3 1_555 1_555
O14_3 C9_3 1_555 1_555
C9_3 C10_3 1_555 1_555
C10_3 C11_3 1_555 1_555
C11_3 H4_3 1_555 1_555
C12_3 Si1_4 1_555 1_555
C13_3 C15_3 1_555 1_555
C14_3 C10_3 1_555 1_555
H5_3 C14_3 1_555 1_555
C15_3 C14_3 1_555 1_555
C16_3 C12_3 1_555 1_555
H6_3 C16_3 1_555 1_555
O15_3 C21_3 1_555 1_555
O43 C17_3 1_555 1_555
O47 C17_3 1_555 1_555
C17_3 C18_3 1_555 1_555
C18_3 C19_3 1_555 1_555
C19_3 H7_3 1_555 1_555
C20_3 Si1_4 1_555 1_555
C21_3 C23_3 1_555 1_555
C22_3 C18_3 1_555 1_555
H8_3 C22_3 1_555 1_555
C23_3 C22_3 1_555 1_555
C24_3 C20_3 1_555 1_555
H9_3 C24_3 1_555 1_555
O19_3 C29_3 1_555 1_555
O20_3 C29_3 1_555 1_555
O41 C25_3 1_555 1_555
O45 C25_3 1_555 1_555
C25_3 C26_3 1_555 1_555
C26_3 C27_3 1_555 1_555
C27_3 H10_3 1_555 1_555
C28_3 Si1_4 1_555 1_555
C29_3 C31_3 1_555 1_555
C30_3 C26_3 1_555 1_555
H11_3 C30_3 1_555 1_555
C31_3 C30_3 1_555 1_555
C32_3 C28_3 1_555 1_555
H12_3 C32_3 1_555 1_555
O25_3 U7_2 1_555 1_555
U8_2 O12_3 1_555 1_555
O29_3 U8_2 1_555 1_555
O30_3 U8_2 1_555 1_555
U6_3 O11_3 1_555 1_555
O31_3 U6_3 1_555 1_555
O34_3 U8_2 1_555 1_555
U12_2 O9_3 1_555 1_555
U10_2 O13_3 1_555 1_555
U9 O20_3 1_555 1_555
U15_3 O19_3 1_555 1_555
O35_3 U13 1_555 1_555
O37_3 U6_3 1_555 1_555
O40_4 U8_2 1_555 1_555
U13 O25_3 1_555 1_555
O7_3 C5_3 1_555 1_555
O10_3 U12_2 1_555 1_555
C6_3 C7_3 1_555 1_555
C7_3 C8_3 1_555 1_555
O14_3 U10_2 1_555 1_555
C11_3 C12_3 1_555 1_555
C15_3 C16_3 1_555 1_555
C19_3 C20_3 1_555 1_555
C23_3 C24_3 1_555 1_555
C27_3 C28_3 1_555 1_555
C31_3 C32_3 1_555 1_555
U6_3 O34_3 1_555 1_555
U11 O16_3 1_555 1_555
O11_4 C13_4 1_555 1_555
O12_4 C13_4 1_555 1_555
O13_4 C9_4 1_555 1_555
O14_4 C9_4 1_555 1_555
C9_4 C10_4 1_555 1_555
C10_4 C11_4 1_555 1_555
C11_4 H4_4 1_555 1_555
C12_4 Si1_5 1_555 1_555
C13_4 C15_4 1_555 1_555
C14_4 C10_4 1_555 1_555
H5_4 C14_4 1_555 1_555
C15_4 C14_4 1_555 1_555
C16_4 C12_4 1_555 1_555
H6_4 C16_4 1_555 1_555
O43_2 C17_4 1_555 1_555
C17_4 C18_4 1_555 1_555
C18_4 C19_4 1_555 1_555
C19_4 H7_4 1_555 1_555
O19_4 C29_4 1_555 1_555
O20_4 C29_4 1_555 1_555
C28_4 Si1_5 1_555 1_555
C29_4 C31_4 1_555 1_555
H11_4 C30_4 1_555 1_555
C31_4 C30_4 1_555 1_555
C32_4 C28_4 1_555 1_555
H12_4 C32_4 1_555 1_555
U8 O12_4 1_555 1_555
O29_4 U8 1_555 1_555
O30_4 U8 1_555 1_555
U6_4 O11_4 1_555 1_555
O31_4 U6_4 1_555 1_555
O34_4 U8 1_555 1_555
U10 O13_4 1_555 1_555
U9_2 O20_4 1_555 1_555
U15_4 O19_4 1_555 1_555
O37_4 U6_4 1_555 1_555
O40_7 U8 1_555 1_555
O14_4 U10 1_555 1_555
C11_4 C12_4 1_555 1_555
C15_4 C16_4 1_555 1_555
C31_4 C32_4 1_555 1_555
U6_4 O34_4 1_555 1_555
U11_2 O16_4 1_555 1_555
U7 O5_4 1_555 1_555
U13_2 O1_4 1_555 1_555
Si1_6 C4_4 1_555 1_555
O2_4 U13_2 1_555 1_555
O3_4 U13_2 1_555 1_555
O6_4 U7 1_555 1_555
O7_4 U7 1_555 1_555
O9_4 C1_4 1_555 1_555
O10_4 C1_4 1_555 1_555
C1_4 C2_4 1_555 1_555
C2_4 C3_4 1_555 1_555
C3_4 H1_4 1_555 1_555
C4_4 C3_4 1_555 1_555
C5_4 O2_4 1_555 1_555
C6_4 C2_4 1_555 1_555
H2_4 C6_4 1_555 1_555
C7_4 C5_4 1_555 1_555
C8_4 C4_4 1_555 1_555
H3_4 C8_4 1_555 1_555
O15_4 C21_4 1_555 1_555
C20_4 Si1_6 1_555 1_555
C21_4 C23_4 1_555 1_555
H8_4 C22_4 1_555 1_555
C23_4 C22_4 1_555 1_555
C24_4 C20_4 1_555 1_555
H9_4 C24_4 1_555 1_555
O41_2 C25_4 1_555 1_555
C25_4 C26_4 1_555 1_555
C26_4 C27_4 1_555 1_555
C27_4 H10_4 1_555 1_555
O25_4 U7 1_555 1_555
U12 O9_4 1_555 1_555
O35_4 U13_2 1_555 1_555
U13_2 O25_4 1_555 1_555
O7_4 C5_4 1_555 1_555
O10_4 U12 1_555 1_555
C6_4 C7_4 1_555 1_555
C7_4 C8_4 1_555 1_555
C23_4 C24_4 1_555 1_555
U5_3 O12_5 1_555 1_555
O29_5 U5_3 1_555 1_555
O30_5 U5_3 1_555 1_555
O37_3 U5_3 1_555 1_555
O40 U5_3 1_555 1_555
O43_3 U5_3 1_555 1_555
O47_3 U5_3 1_555 1_555
O9_5 C1_5 1_555 1_555
O10_5 C1_5 1_555 1_555
C1_5 C2_5 1_555 1_555
C2_5 C3_5 1_555 1_555
C3_5 H1_5 1_555 1_555
O36_3 C13_5 1_555 1_555
C12_5 Si1_7 1_555 1_555
C13_5 C15_5 1_555 1_555
H5_5 C14_5 1_555 1_555
C15_5 C14_5 1_555 1_555
C16_5 C12_5 1_555 1_555
H6_5 C16_5 1_555 1_555
O15_5 C21_5 1_555 1_555
O16_5 C21_5 1_555 1_555
O17_3 C17_5 1_555 1_555
O18_3 C17_5 1_555 1_555
C17_5 C18_5 1_555 1_555
C18_5 C19_5 1_555 1_555
C19_5 H7_5 1_555 1_555
C20_5 Si1_7 1_555 1_555
C21_5 C23_5 1_555 1_555
C22_5 C18_5 1_555 1_555
H8_5 C22_5 1_555 1_555
C23_5 C22_5 1_555 1_555
C24_5 C20_5 1_555 1_555
H9_5 C24_5 1_555 1_555
U8_3 O17_3 1_555 1_555
U9_3 O9_5 1_555 1_555
U10_3 O16_5 1_555 1_555
U15_3 O15_5 1_555 1_555
O10_5 U9_3 1_555 1_555
C15_5 C16_5 1_555 1_555
O18_3 U8_3 1_555 1_555
C19_5 C20_5 1_555 1_555
C23_5 C24_5 1_555 1_555
Si1_8 C4_5 1_555 1_555
C5_5 O35_3 1_555 1_555
H2_5 C6_5 1_555 1_555
C7_5 C5_5 1_555 1_555
C8_5 C4_5 1_555 1_555
H3_5 C8_5 1_555 1_555
O13_5 C9_5 1_555 1_555
O14_5 C9_5 1_555 1_555
C9_5 C10_5 1_555 1_555
C10_5 C11_5 1_555 1_555
C11_5 H4_5 1_555 1_555
O19_5 C29_5 1_555 1_555
O20_5 C29_5 1_555 1_555
O44_2 C25_5 1_555 1_555
O48_2 C25_5 1_555 1_555
C25_5 C26_5 1_555 1_555
C26_5 C27_5 1_555 1_555
C27_5 H10_5 1_555 1_555
C28_5 Si1_8 1_555 1_555
C29_5 C31_5 1_555 1_555
C30_5 C26_5 1_555 1_555
H11_5 C30_5 1_555 1_555
C31_5 C30_5 1_555 1_555
C32_5 C28_5 1_555 1_555
H12_5 C32_5 1_555 1_555
U11_3 O13_5 1_555 1_555
U12_3 O20_5 1_555 1_555
U14_3 O19_5 1_555 1_555
O38 C5_5 1_555 1_555
C6_5 C7_5 1_555 1_555
C7_5 C8_5 1_555 1_555
O14_5 U11_3 1_555 1_555
C27_5 C28_5 1_555 1_555
C31_5 C32_5 1_555 1_555
Si1_9 C4_6 1_555 1_555
O9_6 C1_6 1_555 1_555
C1_6 C2_6 1_555 1_555
C2_6 C3_6 1_555 1_555
C3_6 H1_6 1_555 1_555
C4_6 C3_6 1_555 1_555
C5_6 O35_4 1_555 1_555
C6_6 C2_6 1_555 1_555
H2_6 C6_6 1_555 1_555
C7_6 C5_6 1_555 1_555
C8_6 C4_6 1_555 1_555
H3_6 C8_6 1_555 1_555
O36_4 C13_6 1_555 1_555
O13_6 C9_6 1_555 1_555
C9_6 C10_6 1_555 1_555
C10_6 C11_6 1_555 1_555
C11_6 H4_6 1_555 1_555
C12_6 Si1_9 1_555 1_555
C13_6 C15_6 1_555 1_555
C14_6 C10_6 1_555 1_555
H5_6 C14_6 1_555 1_555
C15_6 C14_6 1_555 1_555
C16_6 C12_6 1_555 1_555
H6_6 C16_6 1_555 1_555
O15_6 C21_6 1_555 1_555
O16_6 C21_6 1_555 1_555
O17_4 C17_6 1_555 1_555
O18_4 C17_6 1_555 1_555
C17_6 C18_6 1_555 1_555
C18_6 C19_6 1_555 1_555
C19_6 H7_6 1_555 1_555
C20_6 Si1_9 1_555 1_555
C21_6 C23_6 1_555 1_555
C22_6 C18_6 1_555 1_555
H8_6 C22_6 1_555 1_555
C23_6 C22_6 1_555 1_555
C24_6 C20_6 1_555 1_555
H9_6 C24_6 1_555 1_555
O19_6 C29_6 1_555 1_555
O20_6 C29_6 1_555 1_555
O44 C25_6 1_555 1_555
O48 C25_6 1_555 1_555
C25_6 C26_6 1_555 1_555
C26_6 C27_6 1_555 1_555
C27_6 H10_6 1_555 1_555
C28_6 Si1_9 1_555 1_555
C29_6 C31_6 1_555 1_555
C30_6 C26_6 1_555 1_555
H11_6 C30_6 1_555 1_555
C31_6 C30_6 1_555 1_555
C32_6 C28_6 1_555 1_555
H12_6 C32_6 1_555 1_555
U8_4 O17_4 1_555 1_555
U10_4 O16_6 1_555 1_555
U12_4 O20_6 1_555 1_555
U15_4 O15_6 1_555 1_555
U14_4 O19_6 1_555 1_555
O38_2 C5_6 1_555 1_555
C6_6 C7_6 1_555 1_555
C7_6 C8_6 1_555 1_555
C11_6 C12_6 1_555 1_555
C15_6 C16_6 1_555 1_555
O18_4 U8_4 1_555 1_555
C19_6 C20_6 1_555 1_555
C23_6 C24_6 1_555 1_555
C27_6 C28_6 1_555 1_555
C31_6 C32_6 1_555 1_555
O10_6 U9_4 1_555 1_555
O14_6 U11_4 1_555 1_555
U5_4 O12_6 1_555 1_555
O29_6 U5_4 1_555 1_555
O37_4 U5_4 1_555 1_555
O40_2 U5_4 1_555 1_555
O47_4 U5_4 1_555 1_555
O36 C13_7 1_555 1_555
O12_7 C13_7 1_555 1_555
O13_7 C9_7 1_555 1_555
O14_7 C9_7 1_555 1_555
C9_7 C10_7 1_555 1_555
C10_7 C11_7 1_555 1_555
C11_7 H4_7 1_555 1_555
C12_7 Si1_10 1_555 1_555
C13_7 C15_7 1_555 1_555
C14_7 C10_7 1_555 1_555
H5_7 C14_7 1_555 1_555
C15_7 C14_7 1_555 1_555
C16_7 C12_7 1_555 1_555
H6_7 C16_7 1_555 1_555
O43_3 C17_7 1_555 1_555
O47_3 C17_7 1_555 1_555
C17_7 C18_7 1_555 1_555
C18_7 C19_7 1_555 1_555
C19_7 H7_7 1_555 1_555
O19_7 C29_7 1_555 1_555
O20_7 C29_7 1_555 1_555
C28_7 Si1_10 1_555 1_555
C29_7 C31_7 1_555 1_555
H11_7 C30_7 1_555 1_555
C31_7 C30_7 1_555 1_555
C32_7 C28_7 1_555 1_555
H12_7 C32_7 1_555 1_555
U8_4 O12_7 1_555 1_555
O29_7 U8_4 1_555 1_555
O30_7 U8_4 1_555 1_555
O37 U8_4 1_555 1_555
U10_4 O13_7 1_555 1_555
U9_3 O20_7 1_555 1_555
U14 O19_7 1_555 1_555
O40_6 U8_4 1_555 1_555
O14_7 U10_4 1_555 1_555
C11_7 C12_7 1_555 1_555
C15_7 C16_7 1_555 1_555
C31_7 C32_7 1_555 1_555
Si1_11 C4_7 1_555 1_555
O9_7 C1_7 1_555 1_555
O10_7 C1_7 1_555 1_555
C1_7 C2_7 1_555 1_555
C2_7 C3_7 1_555 1_555
C3_7 H1_7 1_555 1_555
C4_7 C3_7 1_555 1_555
C5_7 O35 1_555 1_555
C6_7 C2_7 1_555 1_555
H2_7 C6_7 1_555 1_555
C7_7 C5_7 1_555 1_555
C8_7 C4_7 1_555 1_555
H3_7 C8_7 1_555 1_555
O15_7 C21_7 1_555 1_555
C20_7 Si1_11 1_555 1_555
C21_7 C23_7 1_555 1_555
H8_7 C22_7 1_555 1_555
C23_7 C22_7 1_555 1_555
C24_7 C20_7 1_555 1_555
H9_7 C24_7 1_555 1_555
O42 C25_7 1_555 1_555
O46 C25_7 1_555 1_555
C25_7 C26_7 1_555 1_555
C26_7 C27_7 1_555 1_555
C27_7 H10_7 1_555 1_555
U12_4 O9_7 1_555 1_555
O39 C5_7 1_555 1_555
O10_7 U12_4 1_555 1_555
C6_7 C7_7 1_555 1_555
C7_7 C8_7 1_555 1_555
C23_7 C24_7 1_555 1_555
U11_3 O16_7 1_555 1_555
U11_4 O16_8 1_555 1_555
Si1_12 C4_8 1_555 1_555
O9_8 C1_8 1_555 1_555
O10_8 C1_8 1_555 1_555
C1_8 C2_8 1_555 1_555
C2_8 C3_8 1_555 1_555
C3_8 H1_8 1_555 1_555
C4_8 C3_8 1_555 1_555
C5_8 O35_2 1_555 1_555
C6_8 C2_8 1_555 1_555
H2_8 C6_8 1_555 1_555
C7_8 C5_8 1_555 1_555
C8_8 C4_8 1_555 1_555
H3_8 C8_8 1_555 1_555
O36_2 C13_8 1_555 1_555
O12_8 C13_8 1_555 1_555
O13_8 C9_8 1_555 1_555
O14_8 C9_8 1_555 1_555
C9_8 C10_8 1_555 1_555
C10_8 C11_8 1_555 1_555
C11_8 H4_8 1_555 1_555
C12_8 Si1_12 1_555 1_555
C13_8 C15_8 1_555 1_555
C14_8 C10_8 1_555 1_555
H5_8 C14_8 1_555 1_555
C15_8 C14_8 1_555 1_555
C16_8 C12_8 1_555 1_555
H6_8 C16_8 1_555 1_555
O15_8 C21_8 1_555 1_555
O43_4 C17_8 1_555 1_555
C17_8 C18_8 1_555 1_555
C18_8 C19_8 1_555 1_555
C19_8 H7_8 1_555 1_555
C20_8 Si1_12 1_555 1_555
C21_8 C23_8 1_555 1_555
C22_8 C18_8 1_555 1_555
H8_8 C22_8 1_555 1_555
C23_8 C22_8 1_555 1_555
C24_8 C20_8 1_555 1_555
H9_8 C24_8 1_555 1_555
O19_8 C29_8 1_555 1_555
O20_8 C29_8 1_555 1_555
O42_2 C25_8 1_555 1_555
C25_8 C26_8 1_555 1_555
C26_8 C27_8 1_555 1_555
C27_8 H10_8 1_555 1_555
C28_8 Si1_12 1_555 1_555
C29_8 C31_8 1_555 1_555
C30_8 C26_8 1_555 1_555
H11_8 C30_8 1_555 1_555
C31_8 C30_8 1_555 1_555
C32_8 C28_8 1_555 1_555
H12_8 C32_8 1_555 1_555
U8_3 O12_8 1_555 1_555
O29_8 U8_3 1_555 1_555
O30_8 U8_3 1_555 1_555
O37_2 U8_3 1_555 1_555
U12_3 O9_8 1_555 1_555
U10_3 O13_8 1_555 1_555
U9_4 O20_8 1_555 1_555
U14_2 O19_8 1_555 1_555
O40_5 U8_3 1_555 1_555
O39_2 C5_8 1_555 1_555
O10_8 U12_3 1_555 1_555
C6_8 C7_8 1_555 1_555
C7_8 C8_8 1_555 1_555
O14_8 U10_3 1_555 1_555
C11_8 C12_8 1_555 1_555
C15_8 C16_8 1_555 1_555
C19_8 C20_8 1_555 1_555
C23_8 C24_8 1_555 1_555
C27_8 C28_8 1_555 1_555
C31_8 C32_8 1_555 1_555
U9 O5_5 1_555 1_555
U15_3 O1_5 1_555 1_555
O3_5 U15_3 1_555 1_555
O4_3 U15_3 1_555 1_555
O6_5 U9 1_555 1_555
O8_4 U9 1_555 1_555
U9_3 O8_4 1_555 1_555
O23_3 U9_3 1_555 1_555
O24_3 U9_3 1_555 1_555
U10_3 O4_3 1_555 1_555
O25_5 U9 1_555 1_555
O26_3 U10_3 1_555 1_555
O27_3 U10_3 1_555 1_555
O28_3 U10_3 1_555 1_555
O33_3 U9_3 1_555 1_555
U14 O33_3 1_555 1_555
U15_3 O25_5 1_555 1_555
O28_3 U10_2 1_555 1_555
O29_9 U11 1_555 1_555
O30_9 U11 1_555 1_555
O31_5 U14_3 1_555 1_555
O34_5 U11 1_555 1_555
O37_5 U14_3 1_555 1_555
O40_8 U11 1_555 1_555
U14_3 O34_5 1_555 1_555
U9_2 O5_6 1_555 1_555
U15_4 O1_6 1_555 1_555
O3_6 U15_4 1_555 1_555
O4_4 U15_4 1_555 1_555
O8_5 U9_2 1_555 1_555
U10_4 O4_4 1_555 1_555
O25_6 U9_2 1_555 1_555
O26_4 U10_4 1_555 1_555
O27_4 U10_4 1_555 1_555
O28_4 U10_4 1_555 1_555
U15_4 O25_6 1_555 1_555
O28_4 U10 1_555 1_555
U9_4 O8_6 1_555 1_555
O23_4 U9_4 1_555 1_555
O33_4 U9_4 1_555 1_555
U14_2 O33_4 1_555 1_555
O29_10 U11_2 1_555 1_555
O31_6 U14_4 1_555 1_555
O34_6 U11_2 1_555 1_555
O37_6 U14_4 1_555 1_555
O40_9 U11_2 1_555 1_555
U14_4 O34_6 1_555 1_555
U10 O5_7 1_555 1_555
U14 O1_7 1_555 1_555
O3_7 U14 1_555 1_555
O6_7 U10 1_555 1_555
O25_7 U10 1_555 1_555
O29_11 U12 1_555 1_555
O30_11 U12 1_555 1_555
O31_7 U15 1_555 1_555
O34_7 U12 1_555 1_555
O37_7 U15 1_555 1_555
O40_12 U12 1_555 1_555
U14 O25_7 1_555 1_555
U15 O34_7 1_555 1_555
U10_2 O5_8 1_555 1_555
U14_2 O1_8 1_555 1_555
O3_8 U14_2 1_555 1_555
O6_8 U10_2 1_555 1_555
O25_8 U10_2 1_555 1_555
U14_2 O25_8 1_555 1_555
O29_12 U12_2 1_555 1_555
O30_12 U12_2 1_555 1_555
O31_8 U15_2 1_555 1_555
O34_8 U12_2 1_555 1_555
O37_8 U15_2 1_555 1_555
O40_13 U12_2 1_555 1_555
U15_2 O34_8 1_555 1_555
O29_13 U11_3 1_555 1_555
O30_13 U11_3 1_555 1_555
O37_7 U11_3 1_555 1_555
O40_8 U11_3 1_555 1_555
O29_14 U11_4 1_555 1_555
O37_8 U11_4 1_555 1_555
O40_10 U11_4 1_555 1_555
O29_15 U12_3 1_555 1_555
O30_15 U12_3 1_555 1_555
O37_5 U12_3 1_555 1_555
O40_14 U12_3 1_555 1_555
O29_16 U12_4 1_555 1_555
O30_16 U12_4 1_555 1_555
O37_6 U12_4 1_555 1_555
O40_11 U12_4 1_555 1_555

#END
