
###############################################################################
#
# This file contains modified crystal structure data generated from the
# MOF subset of the Cambridge Structural Database (CSD) v543 
# hosted by the Cambridge Crystallographic Data Centre (CCDC).
#
# This work is licensed under the Creative Commons
# Attribution-NonCommercial-ShareAlike 4.0 International License.
# To view a copy of this license, visit
# http://creativecommons.org/licenses/by-nc-sa/4.0/
# or send a letter to
# Creative Commons, PO Box 1866, Mountain View, CA 94042, USA.
#
# CIF created using the CSD Python API on 29 September 2022
# The structure has been converted into the P1 space group
# The structure has a 3D framework
# The original CSD entry VOJGOS is in the monoclinic crystal system
# The framework has been calculated to contain at least 10.0% void space
# The void calculation uses a probe of radius 1.32A, grid spacing 0.4
#
###############################################################################

data_VOJGOS
_chemical_formula_moiety         '(C52 H28 N4 O16 Zn4)n'
_symmetry_cell_setting           triclinic
_symmetry_space_group_name_H-M   'P 1'
_symmetry_Int_Tables_number      1
_space_group_name_Hall           'P 1'
loop_
_symmetry_equiv_pos_site_id
_symmetry_equiv_pos_as_xyz
1 x,y,z
_cell_length_a                   11.877(2)
_cell_length_b                   13.855(3)
_cell_length_c                   13.921(3)
_cell_angle_alpha                90
_cell_angle_beta                 114.403(2)
_cell_angle_gamma                90
_cell_volume                     2086.13
loop_
_atom_site_label
_atom_site_type_symbol
_atom_site_fract_x
_atom_site_fract_y
_atom_site_fract_z
O7 O 0.65338(16) 0.05809(12) 0.14682(15)
O5 O 0.62967(16) 0.03607(13) 0.94132(15)
Zn4 Zn 0.38482(2) 0.059750(18) 0.950375(19)
C1 C 0.4282(2) 0.89565(17) 0.11732(18)
C2 C 0.3597(2) 0.83893(16) 0.16884(18)
C3 C 0.4164(2) 0.76581(17) 0.24037(18)
H1 H 0.5001 0.7532 0.2609
C4 C 0.3489(2) 0.71144(17) 0.28141(18)
C5 C 0.2240(2) 0.73120(17) 0.25240(18)
H2 H 0.1783 0.6931 0.2782
C6 C 0.1676(2) 0.80781(17) 0.18492(19)
C7 C 0.2363(2) 0.86013(17) 0.14282(19)
H3 H 0.1989 0.9104 0.0962
C8 C 0.4100(2) 0.63242(17) 0.35957(19)
C9 C 0.0369(2) 0.83539(17) 0.15771(19)
C13 C 0.0014(2) 0.93176(18) 0.1427(2)
H7 H 0.0599 0.9794 0.1513
O1 O 0.37033(16) 0.96393(13) 0.05868(15)
O2 O 0.53649(15) 0.87016(12) 0.13481(14)
O3 O 0.51896(16) 0.64698(12) 0.42483(13)
O4 O 0.34662(16) 0.55809(12) 0.35318(15)
Zn1 Zn 0.61518(2) 0.940250(18) 0.049625(19)
N2 N 0.79181(17) 0.89106(14) 0.10203(15)
Zn3 Zn 0.38482(2) 0.440250(18) 0.450375(19)
Zn5 Zn 0.61518(2) 0.559750(18) 0.549625(19)
O6 O 0.51896(16) 0.85302(12) 0.92483(13)
C10 C 0.9455(2) 0.76882(18) 0.1458(2)
H4 H 0.9650 0.7036 0.1566
C11 C 0.8259(2) 0.79872(18) 0.11797(19)
H5 H 0.7660 0.7524 0.1099
C12 C 0.8808(2) 0.95654(18) 0.1155(2)
C10_2 C 0.0545(2) 0.26882(18) 0.3542(2)
H4_2 H 0.0350 0.2036 0.3434
C11_2 C 0.1741(2) 0.29872(18) 0.38203(19)
H5_2 H 0.2340 0.2524 0.3901
C12_2 C 0.1192(2) 0.45654(18) 0.3845(2)
H6 H 0.1408 0.5215 0.3941
N1 N 0.20819(17) 0.39106(14) 0.39797(15)
C1_2 C 0.5718(2) 0.39565(17) 0.38268(18)
C2_2 C 0.6403(2) 0.33893(16) 0.33116(18)
C3_2 C 0.5836(2) 0.26581(17) 0.25963(18)
H1_2 H 0.4999 0.2532 0.2391
C4_2 C 0.6511(2) 0.21144(17) 0.21859(18)
C5_2 C 0.7760(2) 0.23120(17) 0.24760(18)
H2_2 H 0.8217 0.1931 0.2218
C6_2 C 0.8324(2) 0.30781(17) 0.31508(19)
C7_2 C 0.7637(2) 0.36013(17) 0.35718(19)
H3_2 H 0.8011 0.4104 0.4038
C8_2 C 0.5900(2) 0.13242(17) 0.14043(19)
C9_2 C 0.9631(2) 0.33539(17) 0.34229(19)
C13_2 C 0.9986(2) 0.43176(18) 0.3573(2)
H7_2 H 0.9401 0.4794 0.3487
O1_2 O 0.62967(16) 0.46393(13) 0.44132(15)
O2_2 O 0.46351(15) 0.37016(12) 0.36519(14)
O3_2 O 0.48104(16) 0.14698(12) 0.07517(13)
O5_2 O 0.37033(16) 0.53607(13) 0.55868(15)
O6_2 O 0.48104(16) 0.35302(12) 0.57517(13)
C10_3 C 0.0545(2) 0.23118(18) 0.8542(2)
H4_3 H 0.0350 0.2964 0.8434
C11_3 C 0.1741(2) 0.20128(18) 0.88203(19)
H5_3 H 0.2340 0.2476 0.8901
C12_3 C 0.1192(2) 0.04346(18) 0.8845(2)
N1_2 N 0.20819(17) 0.10894(14) 0.89797(15)
C1_3 C 0.5718(2) 0.10435(17) 0.88268(18)
C2_3 C 0.6403(2) 0.16107(16) 0.83116(18)
C3_3 C 0.5836(2) 0.23419(17) 0.75963(18)
H1_3 H 0.4999 0.2468 0.7391
C4_3 C 0.6511(2) 0.28856(17) 0.71859(18)
C5_3 C 0.7760(2) 0.26880(17) 0.74760(18)
H2_3 H 0.8217 0.3069 0.7218
C6_3 C 0.8324(2) 0.19219(17) 0.81508(19)
C7_3 C 0.7637(2) 0.13987(17) 0.85718(19)
H3_3 H 0.8011 0.0896 0.9038
C8_3 C 0.5900(2) 0.36758(17) 0.64043(19)
C9_3 C 0.9631(2) 0.16461(17) 0.84229(19)
C13_3 C 0.9986(2) 0.06824(18) 0.8573(2)
H7_3 H 0.9401 0.0206 0.8487
O2_3 O 0.46351(15) 0.12984(12) 0.86519(14)
O4_2 O 0.65338(16) 0.44191(12) 0.64682(15)
O7_2 O 0.34662(16) 0.94191(12) 0.85318(15)
C1_4 C 0.4282(2) 0.60435(17) 0.61732(18)
C2_4 C 0.3597(2) 0.66107(16) 0.66884(18)
C3_4 C 0.4164(2) 0.73419(17) 0.74037(18)
H1_4 H 0.5001 0.7468 0.7609
C4_4 C 0.3489(2) 0.78856(17) 0.78141(18)
C5_4 C 0.2240(2) 0.76880(17) 0.75240(18)
H2_4 H 0.1783 0.8069 0.7782
C6_4 C 0.1676(2) 0.69219(17) 0.68492(19)
C7_4 C 0.2363(2) 0.63987(17) 0.64282(19)
H3_4 H 0.1989 0.5896 0.5962
C8_4 C 0.4100(2) 0.86758(17) 0.85957(19)
C9_4 C 0.0369(2) 0.66461(17) 0.65771(19)
C13_4 C 0.0014(2) 0.56824(18) 0.6427(2)
H7_4 H 0.0599 0.5206 0.6513
O2_4 O 0.53649(15) 0.62984(12) 0.63481(14)
N2_2 N 0.79181(17) 0.60894(14) 0.60203(15)
C10_4 C 0.9455(2) 0.73118(18) 0.6458(2)
H4_4 H 0.9650 0.7964 0.6566
C11_4 C 0.8259(2) 0.70128(18) 0.61797(19)
H5_4 H 0.7660 0.7476 0.6099
C12_4 C 0.8808(2) 0.54346(18) 0.6155(2)
H6_2 H 0.8592 0.4785 0.6059
H6_3 H 0.8592 0.0215 0.1059
H6_4 H 0.1408 0.9785 0.8941
loop_
_geom_bond_atom_site_label_1
_geom_bond_atom_site_label_2
_geom_bond_site_symmetry_1
_geom_bond_site_symmetry_2
C1 C2 1_555 1_555
C2 C3 1_555 1_555
C3 H1 1_555 1_555
C4 C3 1_555 1_555
C5 C4 1_555 1_555
H2 C5 1_555 1_555
C6 C5 1_555 1_555
C7 C2 1_555 1_555
H3 C7 1_555 1_555
C8 C4 1_555 1_555
C9 C6 1_555 1_555
C13 C9 1_555 1_555
H7 C13 1_555 1_555
O1 C1 1_555 1_555
O2 C1 1_555 1_555
O3 C8 1_555 1_555
O4 C8 1_555 1_555
Zn1 O2 1_555 1_555
N2 Zn1 1_555 1_555
Zn3 O4 1_555 1_555
Zn5 O3 1_555 1_555
C6 C7 1_555 1_555
H4 C10 1_555 1_555
C11 C10 1_555 1_555
H5 C11 1_555 1_555
N2 C11 1_555 1_555
C12 N2 1_555 1_555
H4_2 C10_2 1_555 1_555
C11_2 C10_2 1_555 1_555
H5_2 C11_2 1_555 1_555
C12_2 H6 1_555 1_555
N1 C11_2 1_555 1_555
Zn3 N1 1_555 1_555
C12_2 N1 1_555 1_555
C1_2 C2_2 1_555 1_555
C2_2 C3_2 1_555 1_555
C3_2 H1_2 1_555 1_555
C4_2 C3_2 1_555 1_555
C5_2 C4_2 1_555 1_555
H2_2 C5_2 1_555 1_555
C6_2 C5_2 1_555 1_555
C7_2 C2_2 1_555 1_555
H3_2 C7_2 1_555 1_555
C8_2 C4_2 1_555 1_555
C9_2 C6_2 1_555 1_555
C13_2 C9_2 1_555 1_555
H7_2 C13_2 1_555 1_555
O1_2 C1_2 1_555 1_555
O2_2 C1_2 1_555 1_555
O3_2 C8_2 1_555 1_555
O7 C8_2 1_555 1_555
Zn3 O2_2 1_555 1_555
O5_2 Zn3 1_555 1_555
O6_2 Zn3 1_555 1_555
Zn5 O1_2 1_555 1_555
C6_2 C7_2 1_555 1_555
H4_3 C10_3 1_555 1_555
C11_3 C10_3 1_555 1_555
H5_3 C11_3 1_555 1_555
N1_2 C11_3 1_555 1_555
Zn4 N1_2 1_555 1_555
C12_3 N1_2 1_555 1_555
C1_3 C2_3 1_555 1_555
C2_3 C3_3 1_555 1_555
C3_3 H1_3 1_555 1_555
C4_3 C3_3 1_555 1_555
C5_3 C4_3 1_555 1_555
H2_3 C5_3 1_555 1_555
C6_3 C5_3 1_555 1_555
C7_3 C2_3 1_555 1_555
H3_3 C7_3 1_555 1_555
C8_3 C4_3 1_555 1_555
C9_3 C6_3 1_555 1_555
C13_3 C9_3 1_555 1_555
H7_3 C13_3 1_555 1_555
O5 C1_3 1_555 1_555
O2_3 C1_3 1_555 1_555
O6_2 C8_3 1_555 1_555
O4_2 C8_3 1_555 1_555
Zn4 O2_3 1_555 1_555
Zn5 O4_2 1_555 1_555
C6_3 C7_3 1_555 1_555
C1_4 C2_4 1_555 1_555
C2_4 C3_4 1_555 1_555
C3_4 H1_4 1_555 1_555
C4_4 C3_4 1_555 1_555
C5_4 C4_4 1_555 1_555
H2_4 C5_4 1_555 1_555
C6_4 C5_4 1_555 1_555
C7_4 C2_4 1_555 1_555
H3_4 C7_4 1_555 1_555
C8_4 C4_4 1_555 1_555
C9_4 C6_4 1_555 1_555
C13_4 C9_4 1_555 1_555
H7_4 C13_4 1_555 1_555
O5_2 C1_4 1_555 1_555
O2_4 C1_4 1_555 1_555
O6 C8_4 1_555 1_555
O7_2 C8_4 1_555 1_555
Zn5 O2_4 1_555 1_555
N2_2 Zn5 1_555 1_555
C6_4 C7_4 1_555 1_555
H4_4 C10_4 1_555 1_555
C11_4 C10_4 1_555 1_555
H5_4 C11_4 1_555 1_555
C12_4 H6_2 1_555 1_555
N2_2 C11_4 1_555 1_555
C12_4 N2_2 1_555 1_555

#END
