
###############################################################################
#
# This file contains modified crystal structure data generated from the
# MOF subset of the Cambridge Structural Database (CSD) v543 
# hosted by the Cambridge Crystallographic Data Centre (CCDC).
#
# This work is licensed under the Creative Commons
# Attribution-NonCommercial-ShareAlike 4.0 International License.
# To view a copy of this license, visit
# http://creativecommons.org/licenses/by-nc-sa/4.0/
# or send a letter to
# Creative Commons, PO Box 1866, Mountain View, CA 94042, USA.
#
# CIF created using the CSD Python API on 29 September 2022
# The structure has been converted into the P1 space group
# The structure has a 3D framework
# The original CSD entry VOKCOP is in the tetragonal crystal system
# The framework has been calculated to contain at least 10.0% void space
# The void calculation uses a probe of radius 1.32A, grid spacing 0.4
#
###############################################################################

data_VOKCOP
_chemical_formula_moiety         '(C640 H608 Ag28 N128 O96)n'
_symmetry_cell_setting           triclinic
_symmetry_space_group_name_H-M   'P 1'
_symmetry_Int_Tables_number      1
_space_group_name_Hall           'P 1'
loop_
_symmetry_equiv_pos_site_id
_symmetry_equiv_pos_as_xyz
1 x,y,z
_cell_length_a                   28.6610(16)
_cell_length_b                   28.6610(16)
_cell_length_c                   22.9776(12)
_cell_angle_alpha                90
_cell_angle_beta                 90
_cell_angle_gamma                90
_cell_volume                     18875
loop_
_atom_site_label
_atom_site_type_symbol
_atom_site_fract_x
_atom_site_fract_y
_atom_site_fract_z
Ag3 Ag 0.451868(17) 0.534191(16) 0.006489(16)
C1 C 0.6220(2) 0.66012(19) 0.7315(2)
C2 C 0.57985(19) 0.63002(18) 0.73473(19)
C3 C 0.57084(19) 0.60331(18) 0.78439(19)
H1 H 0.5910 0.6049 0.8171
C4 C 0.53227(18) 0.57459(18) 0.78532(19)
C5 C 0.50153(19) 0.56967(19) 0.73826(19)
H2 H 0.4755 0.5492 0.7400
C6 C 0.51100(19) 0.59649(19) 0.6884(2)
C7 C 0.54875(19) 0.62696(19) 0.6880(2)
H3 H 0.5536 0.6463 0.6550
C8 C 0.4648(2) 0.6419(2) 0.8802(3)
H4 H 0.4746 0.6425 0.9211
H5 H 0.4396 0.6646 0.8743
H6 H 0.4914 0.6501 0.8554
C9 C 0.4476(2) 0.5934(2) 0.8646(2)
H7 H 0.4200 0.5857 0.8887
H8 H 0.4379 0.5929 0.8233
C10 C 0.48458(19) 0.5579(2) 0.8742(2)
C11 C 0.54964(19) 0.51634(19) 0.8647(2)
C12 C 0.5928(2) 0.4974(2) 0.8383(2)
H9 H 0.6139 0.5238 0.8293
H10 H 0.5845 0.4823 0.8009
C13 C 0.6192(2) 0.4624(2) 0.8755(2)
H11 H 0.6306 0.4778 0.9108
H12 H 0.6457 0.4500 0.8534
H13 H 0.5983 0.4367 0.8863
C14 C 0.4447(2) 0.5713(2) 0.6280(2)
C15 C 0.4231(2) 0.5763(2) 0.5688(2)
C16 C 0.4400(2) 0.6055(3) 0.5269(3)
H14 H 0.4672 0.6233 0.5347
C17 C 0.4183(3) 0.6098(3) 0.4735(3)
H15 H 0.4302 0.6307 0.4450
C18 C 0.3789(2) 0.5833(3) 0.4618(3)
H16 H 0.3633 0.5864 0.4255
C19 C 0.3629(3) 0.5531(3) 0.5025(3)
H17 H 0.3361 0.5346 0.4943
C20 C 0.3847(3) 0.5490(3) 0.5548(3)
H18 H 0.3734 0.5269 0.5824
Ag1 Ag 0.715809(16) 0.701868(17) 0.743511(16)
N1 N 0.48939(16) 0.53156(16) 0.92009(17)
N2 N 0.52998(16) 0.50567(15) 0.91400(17)
N3 N 0.52155(15) 0.54939(16) 0.83805(17)
N4 N 0.48432(17) 0.59397(17) 0.63735(17)
H19 H 0.4954 0.6096 0.6074
O1 O 0.65777(13) 0.64726(14) 0.75917(15)
O2 O 0.61951(15) 0.69722(13) 0.70116(15)
O3 O 0.42640(18) 0.5462(2) 0.66512(18)
Ag2 Ag 0.548132(17) 0.465809(16) 0.993511(16)
N5 N 0.71844(16) 0.73939(16) 0.82991(17)
N6 N 0.75567(15) 0.72002(16) 0.66400(17)
C3_2 C 0.64669(18) 0.32084(19) 0.03439(19)
H1_2 H 0.6451 0.3410 0.0671
C4_2 C 0.67541(18) 0.28227(18) 0.03532(19)
C8_2 C 0.6081(2) 0.2148(2) 0.1302(3)
H4_2 H 0.6075 0.2246 0.1711
H5_2 H 0.5854 0.1896 0.1243
H6_2 H 0.5999 0.2414 0.1054
C9_2 C 0.6566(2) 0.1976(2) 0.1146(2)
H7_2 H 0.6643 0.1700 0.1387
H8_2 H 0.6571 0.1879 0.0733
C10_2 C 0.6921(2) 0.23458(19) 0.1242(2)
C11_2 C 0.73366(19) 0.29964(19) 0.1147(2)
C12_2 C 0.7526(2) 0.3428(2) 0.0883(2)
H9_2 H 0.7262 0.3639 0.0793
H10_2 H 0.7677 0.3345 0.0509
C13_2 C 0.7876(2) 0.3692(2) 0.1255(2)
H11_2 H 0.7722 0.3806 0.1608
H12_2 H 0.8000 0.3957 0.1034
H13_2 H 0.8133 0.3483 0.1363
N1_2 N 0.71844(16) 0.23939(16) 0.17009(17)
N2_2 N 0.74433(15) 0.27998(16) 0.16400(17)
N3_2 N 0.70061(16) 0.27155(15) 0.08805(17)
O1_2 O 0.60274(14) 0.40777(13) 0.00917(15)
Ag2_2 Ag 0.784191(16) 0.298132(17) 0.243511(16)
Ag3_2 Ag 0.715809(16) 0.201868(17) 0.256489(16)
N5_2 N 0.51061(16) 0.46844(16) 0.07991(17)
C1_2 C 0.58988(19) 0.3720(2) 0.9815(2)
C2_2 C 0.61998(18) 0.32985(19) 0.98473(19)
C5_2 C 0.68033(19) 0.25153(19) 0.98826(19)
H2_2 H 0.7008 0.2255 0.9900
C6_2 C 0.65351(19) 0.26100(19) 0.9384(2)
C7_2 C 0.62304(19) 0.29875(19) 0.9380(2)
H3_2 H 0.6037 0.3036 0.9050
C14_2 C 0.6787(2) 0.1947(2) 0.8780(2)
C15_2 C 0.6737(2) 0.1731(2) 0.8188(2)
C16_2 C 0.6445(3) 0.1900(2) 0.7769(3)
H14_2 H 0.6267 0.2172 0.7847
C17_2 C 0.6402(3) 0.1683(3) 0.7235(3)
H15_2 H 0.6193 0.1802 0.6950
C18_2 C 0.6667(3) 0.1289(2) 0.7118(3)
H16_2 H 0.6636 0.1133 0.6755
C19_2 C 0.6969(3) 0.1129(3) 0.7525(3)
H17_2 H 0.7154 0.0861 0.7443
C20_2 C 0.7010(3) 0.1347(3) 0.8048(3)
H18_2 H 0.7231 0.1234 0.8324
N4_2 N 0.65603(17) 0.23432(17) 0.88735(17)
H19_2 H 0.6404 0.2454 0.8574
O2_2 O 0.55278(13) 0.36951(15) 0.95116(15)
O3_2 O 0.7038(2) 0.17640(18) 0.91512(18)
H2_3 H 0.0245 0.4508 0.2400
C8_3 C 0.0352(2) 0.3581(2) 0.3802(3)
H4_3 H 0.0254 0.3575 0.4211
H5_3 H 0.0604 0.3354 0.3743
H6_3 H 0.0086 0.3499 0.3554
C9_3 C 0.0524(2) 0.4066(2) 0.3646(2)
H7_3 H 0.0800 0.4143 0.3887
H8_3 H 0.0621 0.4071 0.3233
C10_3 C 0.01542(19) 0.4421(2) 0.3742(2)
C14_3 C 0.0553(2) 0.4287(2) 0.1280(2)
C15_3 C 0.0769(2) 0.4237(2) 0.0688(2)
C16_3 C 0.0600(2) 0.3945(3) 0.0269(3)
H14_3 H 0.0328 0.3767 0.0347
C19_3 C 0.1371(3) 0.4469(3) 0.0025(3)
C20_3 C 0.1153(3) 0.4510(3) 0.0548(3)
H18_3 H 0.1266 0.4731 0.0824
N1_3 N 0.01061(16) 0.46844(16) 0.42009(17)
N4_3 N 0.01568(17) 0.40603(17) 0.13735(17)
H19_3 H 0.0046 0.3904 0.1074
O3_3 O 0.07360(18) 0.4538(2) 0.16512(18)
Ag3_3 Ag 0.048132(17) 0.465809(16) 0.506489(16)
C1_3 C 0.8780(2) 0.33988(19) 0.2315(2)
C2_3 C 0.92015(19) 0.36998(18) 0.23473(19)
C3_3 C 0.92916(19) 0.39669(18) 0.28439(19)
H1_3 H 0.9090 0.3951 0.3171
C4_3 C 0.96773(18) 0.42541(18) 0.28532(19)
C5_3 C 0.99847(19) 0.43033(19) 0.23826(19)
C6_3 C 0.98900(19) 0.40351(19) 0.1884(2)
C7_3 C 0.95125(19) 0.37304(19) 0.1880(2)
H3_3 H 0.9464 0.3537 0.1550
C11_3 C 0.95036(19) 0.48366(19) 0.3647(2)
C12_3 C 0.9072(2) 0.5026(2) 0.3383(2)
H9_3 H 0.8861 0.4762 0.3293
H10_3 H 0.9155 0.5177 0.3009
C13_3 C 0.8808(2) 0.5376(2) 0.3755(2)
H11_3 H 0.8694 0.5222 0.4108
H12_3 H 0.8543 0.5500 0.3534
H13_3 H 0.9017 0.5633 0.3863
N2_3 N 0.97002(16) 0.49433(15) 0.41400(17)
N3_3 N 0.97845(15) 0.45061(16) 0.33805(17)
O1_3 O 0.84223(13) 0.35274(14) 0.25917(15)
O2_3 O 0.88049(15) 0.30278(13) 0.20116(15)
Ag2_3 Ag 0.951868(17) 0.534191(16) 0.493511(16)
N5_3 N 0.78156(16) 0.26061(16) 0.32991(17)
C1_4 C 0.91012(19) 0.6280(2) 0.4815(2)
C2_4 C 0.88002(18) 0.67015(19) 0.48473(19)
C3_4 C 0.85331(18) 0.67916(19) 0.53439(19)
H1_4 H 0.8549 0.6590 0.5671
C4_4 C 0.82459(18) 0.71773(18) 0.53532(19)
C5_4 C 0.81967(19) 0.74847(19) 0.48826(19)
H2_4 H 0.7992 0.7745 0.4900
C6_4 C 0.84649(19) 0.73900(19) 0.4384(2)
C7_4 C 0.87696(19) 0.70125(19) 0.4380(2)
H3_4 H 0.8963 0.6964 0.4050
C8_4 C 0.8919(2) 0.7852(2) 0.6302(3)
H4_4 H 0.8925 0.7754 0.6711
H5_4 H 0.9146 0.8104 0.6243
H6_4 H 0.9001 0.7586 0.6054
C9_4 C 0.8434(2) 0.8024(2) 0.6146(2)
H7_4 H 0.8357 0.8300 0.6387
H8_4 H 0.8429 0.8121 0.5733
C10_4 C 0.8079(2) 0.76542(19) 0.6242(2)
C11_4 C 0.76634(19) 0.70036(19) 0.6147(2)
C12_4 C 0.7474(2) 0.6572(2) 0.5883(2)
H9_4 H 0.7738 0.6361 0.5793
H10_4 H 0.7323 0.6655 0.5509
C13_4 C 0.7124(2) 0.6308(2) 0.6255(2)
H11_4 H 0.7278 0.6194 0.6608
H12_4 H 0.7000 0.6043 0.6034
H13_4 H 0.6867 0.6517 0.6363
C14_4 C 0.8213(2) 0.8053(2) 0.3780(2)
C15_4 C 0.8263(2) 0.8269(2) 0.3188(2)
C16_4 C 0.8555(3) 0.8100(2) 0.2769(3)
H14_4 H 0.8733 0.7828 0.2847
C17_3 C 0.8598(3) 0.8317(3) 0.2235(3)
H15_3 H 0.8807 0.8198 0.1950
C18_3 C 0.8333(3) 0.8711(2) 0.2118(3)
H16_3 H 0.8364 0.8867 0.1755
C19_4 C 0.8031(3) 0.8871(3) 0.2525(3)
H17_3 H 0.7846 0.9139 0.2443
C20_4 C 0.7990(3) 0.8653(3) 0.3048(3)
H18_4 H 0.7769 0.8766 0.3324
N1_4 N 0.78156(16) 0.76061(16) 0.67009(17)
N3_4 N 0.79939(16) 0.72845(15) 0.58805(17)
N4_4 N 0.84397(17) 0.76568(17) 0.38735(17)
H19_4 H 0.8596 0.7546 0.3574
O1_4 O 0.89726(14) 0.59223(13) 0.50917(15)
O2_4 O 0.94722(13) 0.63049(15) 0.45116(15)
O3_4 O 0.7962(2) 0.82360(18) 0.41512(18)
Ag3_4 Ag 0.784191(16) 0.798132(17) 0.756489(16)
N5_4 N 0.98939(16) 0.53156(16) 0.57991(17)
C1_5 C 0.1220(2) 0.16012(19) 0.2315(2)
C2_5 C 0.07985(19) 0.13002(18) 0.23473(19)
C3_5 C 0.07084(19) 0.10331(18) 0.28439(19)
H1_5 H 0.0910 0.1049 0.3171
C4_5 C 0.03227(18) 0.07459(18) 0.28532(19)
C5_5 C 0.00153(19) 0.06967(19) 0.23826(19)
C6_5 C 0.01100(19) 0.09649(19) 0.1884(2)
C7_5 C 0.04875(19) 0.12696(19) 0.1880(2)
H3_5 H 0.0536 0.1463 0.1550
C11_5 C 0.04964(19) 0.01634(19) 0.3647(2)
H9_5 H 0.1139 0.0238 0.3293
Ag1_2 Ag 0.215809(16) 0.201868(17) 0.243511(16)
N2_4 N 0.02998(16) 0.00567(15) 0.41400(17)
N3_5 N 0.02155(15) 0.04939(16) 0.33805(17)
O1_5 O 0.15777(13) 0.14726(14) 0.25917(15)
O2_5 O 0.11951(15) 0.19722(13) 0.20116(15)
N5_5 N 0.21844(16) 0.23939(16) 0.32991(17)
N6_2 N 0.25567(15) 0.22002(16) 0.16400(17)
C12_5 C 0.0928(2) 0.9974(2) 0.3383(2)
H10_5 H 0.0845 0.9823 0.3009
C13_5 C 0.1192(2) 0.9624(2) 0.3755(2)
H11_5 H 0.1306 0.9778 0.4108
H12_5 H 0.1457 0.9500 0.3534
H13_5 H 0.0983 0.9367 0.3863
Ag2_4 Ag 0.048132(17) 0.965809(16) 0.493511(16)
H2_5 H 0.9755 0.0492 0.2400
C8_5 C 0.9648(2) 0.1419(2) 0.3802(3)
H4_5 H 0.9746 0.1425 0.4211
H5_5 H 0.9396 0.1646 0.3743
H6_5 H 0.9914 0.1501 0.3554
C9_5 C 0.9476(2) 0.0934(2) 0.3646(2)
H7_5 H 0.9200 0.0857 0.3887
H8_5 H 0.9379 0.0929 0.3233
C10_5 C 0.98458(19) 0.0579(2) 0.3742(2)
C14_5 C 0.9447(2) 0.0713(2) 0.1280(2)
C15_5 C 0.9231(2) 0.0763(2) 0.0688(2)
C16_5 C 0.9400(2) 0.1055(3) 0.0269(3)
H14_5 H 0.9672 0.1233 0.0347
C19_5 C 0.8629(3) 0.0531(3) 0.0025(3)
C20_5 C 0.8847(3) 0.0490(3) 0.0548(3)
H18_5 H 0.8734 0.0269 0.0824
N1_5 N 0.98939(16) 0.03156(16) 0.42009(17)
N4_5 N 0.98432(17) 0.09397(17) 0.13735(17)
H19_5 H 0.9954 0.1096 0.1074
O3_5 O 0.92640(18) 0.0462(2) 0.16512(18)
Ag3_5 Ag 0.951868(17) 0.034191(16) 0.506489(16)
C1_6 C 0.08988(19) 0.8720(2) 0.4815(2)
C2_6 C 0.11998(18) 0.82985(19) 0.48473(19)
C3_6 C 0.14669(18) 0.82084(19) 0.53439(19)
H1_6 H 0.1451 0.8410 0.5671
C4_6 C 0.17541(18) 0.78227(18) 0.53532(19)
C5_6 C 0.18033(19) 0.75153(19) 0.48826(19)
H2_6 H 0.2008 0.7255 0.4900
C6_6 C 0.15351(19) 0.76100(19) 0.4384(2)
C7_6 C 0.12304(19) 0.79875(19) 0.4380(2)
H3_6 H 0.1037 0.8036 0.4050
C8_6 C 0.1081(2) 0.7148(2) 0.6302(3)
H4_6 H 0.1075 0.7246 0.6711
H5_6 H 0.0854 0.6896 0.6243
H6_6 H 0.0999 0.7414 0.6054
C9_6 C 0.1566(2) 0.6976(2) 0.6146(2)
H7_6 H 0.1643 0.6700 0.6387
H8_6 H 0.1571 0.6879 0.5733
C10_6 C 0.1921(2) 0.73458(19) 0.6242(2)
C11_6 C 0.23366(19) 0.79964(19) 0.6147(2)
C12_6 C 0.2526(2) 0.8428(2) 0.5883(2)
H9_6 H 0.2262 0.8639 0.5793
H10_6 H 0.2677 0.8345 0.5509
C13_6 C 0.2876(2) 0.8692(2) 0.6255(2)
H11_6 H 0.2722 0.8806 0.6608
H12_6 H 0.3000 0.8957 0.6034
H13_6 H 0.3133 0.8483 0.6363
C14_6 C 0.1787(2) 0.6947(2) 0.3780(2)
C15_6 C 0.1737(2) 0.6731(2) 0.3188(2)
C16_6 C 0.1445(3) 0.6900(2) 0.2769(3)
H14_6 H 0.1267 0.7172 0.2847
C17_4 C 0.1402(3) 0.6683(3) 0.2235(3)
H15_4 H 0.1193 0.6802 0.1950
C18_4 C 0.1667(3) 0.6289(2) 0.2118(3)
H16_4 H 0.1636 0.6133 0.1755
C19_6 C 0.1969(3) 0.6129(3) 0.2525(3)
H17_4 H 0.2154 0.5861 0.2443
C20_6 C 0.2010(3) 0.6347(3) 0.3048(3)
H18_6 H 0.2231 0.6234 0.3324
N1_6 N 0.21844(16) 0.73939(16) 0.67009(17)
N2_5 N 0.24433(15) 0.77998(16) 0.66400(17)
N3_6 N 0.20061(16) 0.77155(15) 0.58805(17)
N4_6 N 0.15603(17) 0.73432(17) 0.38735(17)
H19_6 H 0.1404 0.7454 0.3574
O1_6 O 0.10274(14) 0.90777(13) 0.50917(15)
O2_6 O 0.05278(13) 0.86951(15) 0.45116(15)
O3_6 O 0.2038(2) 0.67640(18) 0.41512(18)
Ag2_5 Ag 0.284191(16) 0.798132(17) 0.743511(16)
Ag3_6 Ag 0.215809(16) 0.701868(17) 0.756489(16)
N5_6 N 0.01061(16) 0.96844(16) 0.57991(17)
C1_7 C 0.3780(2) 0.83988(19) 0.7315(2)
C2_7 C 0.42015(19) 0.86998(18) 0.73473(19)
C3_7 C 0.42916(19) 0.89669(18) 0.78439(19)
H1_7 H 0.4090 0.8951 0.8171
C4_7 C 0.46773(18) 0.92541(18) 0.78532(19)
C5_7 C 0.49847(19) 0.93033(19) 0.73826(19)
H2_7 H 0.5245 0.9508 0.7400
C6_7 C 0.48900(19) 0.90351(19) 0.6884(2)
C7_7 C 0.45125(19) 0.87304(19) 0.6880(2)
H3_7 H 0.4464 0.8537 0.6550
C8_7 C 0.5352(2) 0.8581(2) 0.8802(3)
H4_7 H 0.5254 0.8575 0.9211
H5_7 H 0.5604 0.8354 0.8743
H6_7 H 0.5086 0.8499 0.8554
C9_7 C 0.5524(2) 0.9066(2) 0.8646(2)
H7_7 H 0.5800 0.9143 0.8887
H8_7 H 0.5621 0.9071 0.8233
C10_7 C 0.51542(19) 0.9421(2) 0.8742(2)
C11_7 C 0.45036(19) 0.98366(19) 0.8647(2)
H9_7 H 0.3861 0.9762 0.8293
C14_7 C 0.5553(2) 0.9287(2) 0.6280(2)
C15_7 C 0.5769(2) 0.9237(2) 0.5688(2)
C16_7 C 0.5600(2) 0.8945(3) 0.5269(3)
H14_7 H 0.5328 0.8767 0.5347
C17_5 C 0.5817(3) 0.8902(3) 0.4735(3)
H15_5 H 0.5698 0.8693 0.4450
C18_5 C 0.6211(2) 0.9167(3) 0.4618(3)
H16_5 H 0.6367 0.9136 0.4255
C19_7 C 0.6371(3) 0.9469(3) 0.5025(3)
H17_5 H 0.6639 0.9654 0.4943
C20_7 C 0.6153(3) 0.9510(3) 0.5548(3)
H18_7 H 0.6266 0.9731 0.5824
N1_7 N 0.51061(16) 0.96844(16) 0.92009(17)
N2_6 N 0.47002(16) 0.99433(15) 0.91400(17)
N3_7 N 0.47845(15) 0.95061(16) 0.83805(17)
N4_7 N 0.51568(17) 0.90603(17) 0.63735(17)
H19_7 H 0.5046 0.8904 0.6074
O1_7 O 0.34223(13) 0.85274(14) 0.75917(15)
O2_7 O 0.38049(15) 0.80278(13) 0.70116(15)
O3_7 O 0.57360(18) 0.9538(2) 0.66512(18)
N5_7 N 0.28156(16) 0.76061(16) 0.82991(17)
C3_8 C 0.35331(18) 0.17916(19) 0.03439(19)
H1_8 H 0.3549 0.1590 0.0671
C4_8 C 0.32459(18) 0.21773(18) 0.03532(19)
C8_8 C 0.3919(2) 0.2852(2) 0.1302(3)
H4_8 H 0.3925 0.2754 0.1711
H5_8 H 0.4146 0.3104 0.1243
H6_8 H 0.4001 0.2586 0.1054
C9_8 C 0.3434(2) 0.3024(2) 0.1146(2)
H7_8 H 0.3357 0.3300 0.1387
H8_8 H 0.3429 0.3121 0.0733
C10_8 C 0.3079(2) 0.26542(19) 0.1242(2)
C11_8 C 0.26634(19) 0.20036(19) 0.1147(2)
C12_7 C 0.2474(2) 0.1572(2) 0.0883(2)
H9_8 H 0.2738 0.1361 0.0793
H10_7 H 0.2323 0.1655 0.0509
C13_7 C 0.2124(2) 0.1308(2) 0.1255(2)
H11_7 H 0.2278 0.1194 0.1608
H12_7 H 0.2000 0.1043 0.1034
H13_7 H 0.1867 0.1517 0.1363
N1_8 N 0.28156(16) 0.26061(16) 0.17009(17)
N3_8 N 0.29939(16) 0.22845(15) 0.08805(17)
O1_8 O 0.39726(14) 0.09223(13) 0.00917(15)
Ag3_7 Ag 0.284191(16) 0.298132(17) 0.256489(16)
N5_8 N 0.48939(16) 0.03156(16) 0.07991(17)
C1_8 C 0.3780(2) 0.33988(19) 0.2685(2)
C2_8 C 0.42015(19) 0.36998(18) 0.26527(19)
C3_9 C 0.42916(19) 0.39669(18) 0.21561(19)
H1_9 H 0.4090 0.3951 0.1829
C4_9 C 0.46773(18) 0.42541(18) 0.21468(19)
C5_8 C 0.49847(19) 0.43033(19) 0.26174(19)
H2_8 H 0.5245 0.4508 0.2600
C6_8 C 0.48900(19) 0.40351(19) 0.3116(2)
C7_8 C 0.45125(19) 0.37304(19) 0.3120(2)
H3_8 H 0.4464 0.3537 0.3450
C8_9 C 0.5352(2) 0.3581(2) 0.1198(3)
H4_9 H 0.5254 0.3575 0.0789
H5_9 H 0.5604 0.3354 0.1257
H6_9 H 0.5086 0.3499 0.1446
C9_9 C 0.5524(2) 0.4066(2) 0.1354(2)
H7_9 H 0.5800 0.4143 0.1113
H8_9 H 0.5621 0.4071 0.1767
C10_9 C 0.51542(19) 0.4421(2) 0.1258(2)
C11_9 C 0.45036(19) 0.48366(19) 0.1353(2)
C12_8 C 0.4072(2) 0.5026(2) 0.1617(2)
H9_9 H 0.3861 0.4762 0.1707
H10_8 H 0.4155 0.5177 0.1991
C13_8 C 0.3808(2) 0.5376(2) 0.1245(2)
H11_8 H 0.3694 0.5222 0.0892
H12_8 H 0.3543 0.5500 0.1466
H13_8 H 0.4017 0.5633 0.1137
C14_8 C 0.5553(2) 0.4287(2) 0.3720(2)
C15_8 C 0.5769(2) 0.4237(2) 0.4312(2)
C16_8 C 0.5600(2) 0.3945(3) 0.4731(3)
H14_8 H 0.5328 0.3767 0.4653
C17_6 C 0.5817(3) 0.3902(3) 0.5265(3)
H15_6 H 0.5698 0.3693 0.5550
C18_6 C 0.6211(2) 0.4167(3) 0.5382(3)
H16_6 H 0.6367 0.4136 0.5745
C19_8 C 0.6371(3) 0.4469(3) 0.4975(3)
H17_6 H 0.6639 0.4654 0.5057
C20_8 C 0.6153(3) 0.4510(3) 0.4452(3)
H18_8 H 0.6266 0.4731 0.4176
N2_7 N 0.47002(16) 0.49433(15) 0.08600(17)
N3_9 N 0.47845(15) 0.45061(16) 0.16195(17)
N4_8 N 0.51568(17) 0.40603(17) 0.36265(17)
H19_8 H 0.5046 0.3904 0.3926
O1_9 O 0.34223(13) 0.35274(14) 0.24083(15)
O2_8 O 0.38049(15) 0.30278(13) 0.29884(15)
O3_8 O 0.57360(18) 0.4538(2) 0.33488(18)
N6_3 N 0.24433(15) 0.27998(16) 0.33600(17)
C1_9 C 0.41012(19) 0.6280(2) 0.0185(2)
C2_9 C 0.38002(18) 0.67015(19) 0.01527(19)
C5_9 C 0.31967(19) 0.74847(19) 0.01174(19)
H2_9 H 0.2992 0.7745 0.0100
C6_9 C 0.34649(19) 0.73900(19) 0.0616(2)
C7_9 C 0.37696(19) 0.70125(19) 0.0620(2)
H3_9 H 0.3963 0.6964 0.0950
C14_9 C 0.3213(2) 0.8053(2) 0.1220(2)
C15_9 C 0.3263(2) 0.8269(2) 0.1812(2)
C16_9 C 0.3555(3) 0.8100(2) 0.2231(3)
H14_9 H 0.3733 0.7828 0.2153
C17_7 C 0.3598(3) 0.8317(3) 0.2765(3)
H15_7 H 0.3807 0.8198 0.3050
C18_7 C 0.3333(3) 0.8711(2) 0.2882(3)
H16_7 H 0.3364 0.8867 0.3245
C19_9 C 0.3031(3) 0.8871(3) 0.2475(3)
H17_7 H 0.2846 0.9139 0.2557
C20_9 C 0.2990(3) 0.8653(3) 0.1952(3)
H18_9 H 0.2769 0.8766 0.1676
N4_9 N 0.34397(17) 0.76568(17) 0.11265(17)
H19_9 H 0.3596 0.7546 0.1426
O2_9 O 0.44722(13) 0.63049(15) 0.04884(15)
O3_9 O 0.2962(2) 0.82360(18) 0.08488(18)
C3_10 C 0.35331(18) 0.67916(19) 0.96561(19)
H1_10 H 0.3549 0.6590 0.9329
C4_10 C 0.32459(18) 0.71773(18) 0.96468(19)
C8_10 C 0.3919(2) 0.7852(2) 0.8698(3)
H4_10 H 0.3925 0.7754 0.8289
H5_10 H 0.4146 0.8104 0.8757
H6_10 H 0.4001 0.7586 0.8946
C9_10 C 0.3434(2) 0.8024(2) 0.8854(2)
H7_10 H 0.3357 0.8300 0.8613
H8_10 H 0.3429 0.8121 0.9267
C10_10 C 0.3079(2) 0.76542(19) 0.8758(2)
C11_10 C 0.26634(19) 0.70036(19) 0.8853(2)
C12_9 C 0.2474(2) 0.6572(2) 0.9117(2)
H9_10 H 0.2738 0.6361 0.9207
H10_9 H 0.2323 0.6655 0.9491
C13_9 C 0.2124(2) 0.6308(2) 0.8745(2)
H11_9 H 0.2278 0.6194 0.8392
H12_9 H 0.2000 0.6043 0.8966
H13_9 H 0.1867 0.6517 0.8637
N2_8 N 0.25567(15) 0.72002(16) 0.83600(17)
N3_10 N 0.29939(16) 0.72845(15) 0.91195(17)
O1_10 O 0.39726(14) 0.59223(13) 0.99083(15)
C1_10 C 0.1220(2) 0.66012(19) 0.7685(2)
C2_10 C 0.07985(19) 0.63002(18) 0.76527(19)
C3_11 C 0.07084(19) 0.60331(18) 0.71561(19)
H1_11 H 0.0910 0.6049 0.6829
C4_11 C 0.03227(18) 0.57459(18) 0.71468(19)
C5_10 C 0.00153(19) 0.56967(19) 0.76174(19)
C6_10 C 0.01100(19) 0.59649(19) 0.8116(2)
C7_10 C 0.04875(19) 0.62696(19) 0.8120(2)
H3_10 H 0.0536 0.6463 0.8450
C11_11 C 0.04964(19) 0.51634(19) 0.6353(2)
C12_10 C 0.0928(2) 0.4974(2) 0.6617(2)
H9_11 H 0.1139 0.5238 0.6707
H10_10 H 0.0845 0.4823 0.6991
C13_10 C 0.1192(2) 0.4624(2) 0.6245(2)
H11_10 H 0.1306 0.4778 0.5892
H12_10 H 0.1457 0.4500 0.6466
H13_10 H 0.0983 0.4367 0.6137
N2_9 N 0.02998(16) 0.50567(15) 0.58600(17)
N3_11 N 0.02155(15) 0.54939(16) 0.66195(17)
O1_11 O 0.15777(13) 0.64726(14) 0.74083(15)
O2_10 O 0.11951(15) 0.69722(13) 0.79884(15)
H2_10 H 0.9755 0.5492 0.7600
C8_11 C 0.9648(2) 0.6419(2) 0.6198(3)
H4_11 H 0.9746 0.6425 0.5789
H5_11 H 0.9396 0.6646 0.6257
H6_11 H 0.9914 0.6501 0.6446
C9_11 C 0.9476(2) 0.5934(2) 0.6354(2)
H7_11 H 0.9200 0.5857 0.6113
H8_11 H 0.9379 0.5929 0.6767
C10_11 C 0.98458(19) 0.5579(2) 0.6258(2)
C14_10 C 0.9447(2) 0.5713(2) 0.8720(2)
C15_10 C 0.9231(2) 0.5763(2) 0.9312(2)
C16_10 C 0.9400(2) 0.6055(3) 0.9731(3)
H14_10 H 0.9672 0.6233 0.9653
C19_10 C 0.8629(3) 0.5531(3) 0.9975(3)
C20_10 C 0.8847(3) 0.5490(3) 0.9452(3)
H18_10 H 0.8734 0.5269 0.9176
N4_10 N 0.98432(17) 0.59397(17) 0.86265(17)
H19_10 H 0.9954 0.6096 0.8926
O3_10 O 0.92640(18) 0.5462(2) 0.83488(18)
C1_11 C 0.08988(19) 0.3720(2) 0.5185(2)
C2_11 C 0.11998(18) 0.32985(19) 0.51527(19)
C3_12 C 0.14669(18) 0.32084(19) 0.46561(19)
H1_12 H 0.1451 0.3410 0.4329
C4_12 C 0.17541(18) 0.28227(18) 0.46468(19)
C5_11 C 0.18033(19) 0.25153(19) 0.51174(19)
H2_11 H 0.2008 0.2255 0.5100
C6_11 C 0.15351(19) 0.26100(19) 0.5616(2)
C7_11 C 0.12304(19) 0.29875(19) 0.5620(2)
H3_11 H 0.1037 0.3036 0.5950
C8_12 C 0.1081(2) 0.2148(2) 0.3698(3)
H4_12 H 0.1075 0.2246 0.3289
H5_12 H 0.0854 0.1896 0.3757
H6_12 H 0.0999 0.2414 0.3946
C9_12 C 0.1566(2) 0.1976(2) 0.3854(2)
H7_12 H 0.1643 0.1700 0.3613
H8_12 H 0.1571 0.1879 0.4267
C10_12 C 0.1921(2) 0.23458(19) 0.3758(2)
C11_12 C 0.23366(19) 0.29964(19) 0.3853(2)
C12_11 C 0.2526(2) 0.3428(2) 0.4117(2)
H9_12 H 0.2262 0.3639 0.4207
H10_11 H 0.2677 0.3345 0.4491
C13_11 C 0.2876(2) 0.3692(2) 0.3745(2)
H11_11 H 0.2722 0.3806 0.3392
H12_11 H 0.3000 0.3957 0.3966
H13_11 H 0.3133 0.3483 0.3637
C14_11 C 0.1787(2) 0.1947(2) 0.6220(2)
C15_11 C 0.1737(2) 0.1731(2) 0.6812(2)
C16_11 C 0.1445(3) 0.1900(2) 0.7231(3)
H14_11 H 0.1267 0.2172 0.7153
C17_8 C 0.1402(3) 0.1683(3) 0.7765(3)
H15_8 H 0.1193 0.1802 0.8050
C18_8 C 0.1667(3) 0.1289(2) 0.7882(3)
H16_8 H 0.1636 0.1133 0.8245
C19_11 C 0.1969(3) 0.1129(3) 0.7475(3)
H17_8 H 0.2154 0.0861 0.7557
C20_11 C 0.2010(3) 0.1347(3) 0.6952(3)
H18_11 H 0.2231 0.1234 0.6676
N3_12 N 0.20061(16) 0.27155(15) 0.41195(17)
N4_11 N 0.15603(17) 0.23432(17) 0.61265(17)
H19_11 H 0.1404 0.2454 0.6426
O1_12 O 0.10274(14) 0.40777(13) 0.49083(15)
O2_11 O 0.05278(13) 0.36951(15) 0.54884(15)
O3_11 O 0.2038(2) 0.17640(18) 0.58488(18)
H2_12 H 0.0245 0.9508 0.7600
C8_13 C 0.0352(2) 0.8581(2) 0.6198(3)
H4_13 H 0.0254 0.8575 0.5789
H5_13 H 0.0604 0.8354 0.6257
H6_13 H 0.0086 0.8499 0.6446
C9_13 C 0.0524(2) 0.9066(2) 0.6354(2)
H7_13 H 0.0800 0.9143 0.6113
H8_13 H 0.0621 0.9071 0.6767
C10_13 C 0.01542(19) 0.9421(2) 0.6258(2)
C14_12 C 0.0553(2) 0.9287(2) 0.8720(2)
C15_12 C 0.0769(2) 0.9237(2) 0.9312(2)
C16_12 C 0.0600(2) 0.8945(3) 0.9731(3)
H14_12 H 0.0328 0.8767 0.9653
C19_12 C 0.1371(3) 0.9469(3) 0.9975(3)
C20_12 C 0.1153(3) 0.9510(3) 0.9452(3)
H18_12 H 0.1266 0.9731 0.9176
N4_12 N 0.01568(17) 0.90603(17) 0.86265(17)
H19_12 H 0.0046 0.8904 0.8926
O3_12 O 0.07360(18) 0.9538(2) 0.83488(18)
C12_12 C 0.9072(2) 0.0026(2) 0.6617(2)
H10_12 H 0.9155 0.0177 0.6991
C13_12 C 0.8808(2) 0.0376(2) 0.6245(2)
H11_12 H 0.8694 0.0222 0.5892
H12_12 H 0.8543 0.0500 0.6466
H13_12 H 0.9017 0.0633 0.6137
C1_12 C 0.8780(2) 0.83988(19) 0.7685(2)
C2_12 C 0.92015(19) 0.86998(18) 0.76527(19)
C3_13 C 0.92916(19) 0.89669(18) 0.71561(19)
H1_13 H 0.9090 0.8951 0.6829
C4_13 C 0.96773(18) 0.92541(18) 0.71468(19)
C5_12 C 0.99847(19) 0.93033(19) 0.76174(19)
C6_12 C 0.98900(19) 0.90351(19) 0.8116(2)
C7_12 C 0.95125(19) 0.87304(19) 0.8120(2)
H3_12 H 0.9464 0.8537 0.8450
C11_13 C 0.95036(19) 0.98366(19) 0.6353(2)
H9_13 H 0.8861 0.9762 0.6707
N2_10 N 0.97002(16) 0.99433(15) 0.58600(17)
N3_13 N 0.97845(15) 0.95061(16) 0.66195(17)
O1_13 O 0.84223(13) 0.85274(14) 0.74083(15)
O2_12 O 0.88049(15) 0.80278(13) 0.79884(15)
N6_4 N 0.74433(15) 0.77998(16) 0.83600(17)
C1_13 C 0.91012(19) 0.1280(2) 0.5185(2)
C2_13 C 0.88002(18) 0.17015(19) 0.51527(19)
C3_14 C 0.85331(18) 0.17916(19) 0.46561(19)
H1_14 H 0.8549 0.1590 0.4329
C4_14 C 0.82459(18) 0.21773(18) 0.46468(19)
C5_13 C 0.81967(19) 0.24847(19) 0.51174(19)
H2_13 H 0.7992 0.2745 0.5100
C6_13 C 0.84649(19) 0.23900(19) 0.5616(2)
C7_13 C 0.87696(19) 0.20125(19) 0.5620(2)
H3_13 H 0.8963 0.1964 0.5950
C8_14 C 0.8919(2) 0.2852(2) 0.3698(3)
H4_14 H 0.8925 0.2754 0.3289
H5_14 H 0.9146 0.3104 0.3757
H6_14 H 0.9001 0.2586 0.3946
C9_14 C 0.8434(2) 0.3024(2) 0.3854(2)
H7_14 H 0.8357 0.3300 0.3613
H8_14 H 0.8429 0.3121 0.4267
C10_14 C 0.8079(2) 0.26542(19) 0.3758(2)
C11_14 C 0.76634(19) 0.20036(19) 0.3853(2)
C12_13 C 0.7474(2) 0.1572(2) 0.4117(2)
H9_14 H 0.7738 0.1361 0.4207
H10_13 H 0.7323 0.1655 0.4491
C13_13 C 0.7124(2) 0.1308(2) 0.3745(2)
H11_13 H 0.7278 0.1194 0.3392
H12_13 H 0.7000 0.1043 0.3966
H13_13 H 0.6867 0.1517 0.3637
C14_13 C 0.8213(2) 0.3053(2) 0.6220(2)
C15_13 C 0.8263(2) 0.3269(2) 0.6812(2)
C16_13 C 0.8555(3) 0.3100(2) 0.7231(3)
H14_13 H 0.8733 0.2828 0.7153
C17_9 C 0.8598(3) 0.3317(3) 0.7765(3)
H15_9 H 0.8807 0.3198 0.8050
C18_9 C 0.8333(3) 0.3711(2) 0.7882(3)
H16_9 H 0.8364 0.3867 0.8245
C19_13 C 0.8031(3) 0.3871(3) 0.7475(3)
H17_9 H 0.7846 0.4139 0.7557
C20_13 C 0.7990(3) 0.3653(3) 0.6952(3)
H18_13 H 0.7769 0.3766 0.6676
N2_11 N 0.75567(15) 0.22002(16) 0.33600(17)
N3_14 N 0.79939(16) 0.22845(15) 0.41195(17)
N4_13 N 0.84397(17) 0.26568(17) 0.61265(17)
H19_13 H 0.8596 0.2546 0.6426
O1_14 O 0.89726(14) 0.09223(13) 0.49083(15)
O2_13 O 0.94722(13) 0.13049(15) 0.54884(15)
O3_13 O 0.7962(2) 0.32360(18) 0.58488(18)
C1_14 C 0.6220(2) 0.16012(19) 0.2685(2)
C2_14 C 0.57985(19) 0.13002(18) 0.26527(19)
C3_15 C 0.57084(19) 0.10331(18) 0.21561(19)
H1_15 H 0.5910 0.1049 0.1829
C4_15 C 0.53227(18) 0.07459(18) 0.21468(19)
C5_14 C 0.50153(19) 0.06967(19) 0.26174(19)
H2_14 H 0.4755 0.0492 0.2600
C6_14 C 0.51100(19) 0.09649(19) 0.3116(2)
C7_14 C 0.54875(19) 0.12696(19) 0.3120(2)
H3_14 H 0.5536 0.1463 0.3450
C8_15 C 0.4648(2) 0.1419(2) 0.1198(3)
H4_15 H 0.4746 0.1425 0.0789
H5_15 H 0.4396 0.1646 0.1257
H6_15 H 0.4914 0.1501 0.1446
C9_15 C 0.4476(2) 0.0934(2) 0.1354(2)
H7_15 H 0.4200 0.0857 0.1113
H8_15 H 0.4379 0.0929 0.1767
C10_15 C 0.48458(19) 0.0579(2) 0.1258(2)
C11_15 C 0.54964(19) 0.01634(19) 0.1353(2)
H9_15 H 0.6139 0.0238 0.1707
C14_14 C 0.4447(2) 0.0713(2) 0.3720(2)
C15_14 C 0.4231(2) 0.0763(2) 0.4312(2)
C16_14 C 0.4400(2) 0.1055(3) 0.4731(3)
H14_14 H 0.4672 0.1233 0.4653
C17_10 C 0.4183(3) 0.1098(3) 0.5265(3)
H15_10 H 0.4302 0.1307 0.5550
C18_10 C 0.3789(2) 0.0833(3) 0.5382(3)
H16_10 H 0.3633 0.0864 0.5745
C19_14 C 0.3629(3) 0.0531(3) 0.4975(3)
H17_10 H 0.3361 0.0346 0.5057
C20_14 C 0.3847(3) 0.0490(3) 0.4452(3)
H18_14 H 0.3734 0.0269 0.4176
N2_12 N 0.52998(16) 0.00567(15) 0.08600(17)
N3_15 N 0.52155(15) 0.04939(16) 0.16195(17)
N4_14 N 0.48432(17) 0.09397(17) 0.36265(17)
H19_14 H 0.4954 0.1096 0.3926
O1_15 O 0.65777(13) 0.14726(14) 0.24083(15)
O2_14 O 0.61951(15) 0.19722(13) 0.29884(15)
O3_14 O 0.42640(18) 0.0462(2) 0.33488(18)
C3_16 C 0.64669(18) 0.82084(19) 0.96561(19)
H1_16 H 0.6451 0.8410 0.9329
C4_16 C 0.67541(18) 0.78227(18) 0.96468(19)
C8_16 C 0.6081(2) 0.7148(2) 0.8698(3)
H4_16 H 0.6075 0.7246 0.8289
H5_16 H 0.5854 0.6896 0.8757
H6_16 H 0.5999 0.7414 0.8946
C9_16 C 0.6566(2) 0.6976(2) 0.8854(2)
H7_16 H 0.6643 0.6700 0.8613
H8_16 H 0.6571 0.6879 0.9267
C10_16 C 0.6921(2) 0.73458(19) 0.8758(2)
C11_16 C 0.73366(19) 0.79964(19) 0.8853(2)
C12_14 C 0.7526(2) 0.8428(2) 0.9117(2)
H9_16 H 0.7262 0.8639 0.9207
H10_14 H 0.7677 0.8345 0.9491
C13_14 C 0.7876(2) 0.8692(2) 0.8745(2)
H11_14 H 0.7722 0.8806 0.8392
H12_14 H 0.8000 0.8957 0.8966
H13_14 H 0.8133 0.8483 0.8637
N3_16 N 0.70061(16) 0.77155(15) 0.91195(17)
O1_16 O 0.60274(14) 0.90777(13) 0.99083(15)
C17_11 C 0.0817(3) 0.3902(3) 0.9735(3)
H15_11 H 0.0698 0.3693 0.9450
C18_11 C 0.1211(2) 0.4167(3) 0.9618(3)
H16_11 H 0.1367 0.4136 0.9255
H17_11 H 0.1639 0.4654 0.9943
C17_12 C 0.4183(3) 0.3902(3) 0.0265(3)
H15_12 H 0.4302 0.3693 0.0550
C18_12 C 0.3789(2) 0.4167(3) 0.0382(3)
H16_12 H 0.3633 0.4136 0.0745
H17_12 H 0.3361 0.4654 0.0057
C1_15 C 0.6220(2) 0.33988(19) 0.7685(2)
C2_15 C 0.57985(19) 0.36998(18) 0.76527(19)
C3_17 C 0.57084(19) 0.39669(18) 0.71561(19)
H1_17 H 0.5910 0.3951 0.6829
C4_17 C 0.53227(18) 0.42541(18) 0.71468(19)
C5_15 C 0.50153(19) 0.43033(19) 0.76174(19)
H2_15 H 0.4755 0.4508 0.7600
C6_15 C 0.51100(19) 0.40351(19) 0.8116(2)
C7_15 C 0.54875(19) 0.37304(19) 0.8120(2)
H3_15 H 0.5536 0.3537 0.8450
C8_17 C 0.4648(2) 0.3581(2) 0.6198(3)
H4_17 H 0.4746 0.3575 0.5789
H5_17 H 0.4396 0.3354 0.6257
H6_17 H 0.4914 0.3499 0.6446
C9_17 C 0.4476(2) 0.4066(2) 0.6354(2)
H7_17 H 0.4200 0.4143 0.6113
H8_17 H 0.4379 0.4071 0.6767
C10_17 C 0.48458(19) 0.4421(2) 0.6258(2)
C11_17 C 0.54964(19) 0.48366(19) 0.6353(2)
C12_15 C 0.5928(2) 0.5026(2) 0.6617(2)
H9_17 H 0.6139 0.4762 0.6707
H10_15 H 0.5845 0.5177 0.6991
C13_15 C 0.6192(2) 0.5376(2) 0.6245(2)
H11_15 H 0.6306 0.5222 0.5892
H12_15 H 0.6457 0.5500 0.6466
H13_15 H 0.5983 0.5633 0.6137
C14_15 C 0.4447(2) 0.4287(2) 0.8720(2)
C15_15 C 0.4231(2) 0.4237(2) 0.9312(2)
C16_15 C 0.4400(2) 0.3945(3) 0.9731(3)
H14_15 H 0.4672 0.3767 0.9653
C19_15 C 0.3629(3) 0.4469(3) 0.9975(3)
C20_15 C 0.3847(3) 0.4510(3) 0.9452(3)
H18_15 H 0.3734 0.4731 0.9176
Ag1_3 Ag 0.715809(16) 0.298132(17) 0.756489(16)
N1_9 N 0.48939(16) 0.46844(16) 0.57991(17)
N2_13 N 0.52998(16) 0.49433(15) 0.58600(17)
N3_17 N 0.52155(15) 0.45061(16) 0.66195(17)
N4_15 N 0.48432(17) 0.40603(17) 0.86265(17)
H19_15 H 0.4954 0.3904 0.8926
O1_17 O 0.65777(13) 0.35274(14) 0.74083(15)
O2_15 O 0.61951(15) 0.30278(13) 0.79884(15)
O3_15 O 0.42640(18) 0.4538(2) 0.83488(18)
Ag2_6 Ag 0.548132(17) 0.534191(16) 0.506489(16)
Ag3_8 Ag 0.451868(17) 0.465809(16) 0.493511(16)
N5_9 N 0.71844(16) 0.26061(16) 0.67009(17)
N6_5 N 0.75567(15) 0.27998(16) 0.83600(17)
C1_16 C 0.91012(19) 0.3720(2) 0.0185(2)
C2_16 C 0.88002(18) 0.32985(19) 0.01527(19)
C5_16 C 0.81967(19) 0.25153(19) 0.01174(19)
H2_16 H 0.7992 0.2255 0.0100
C6_16 C 0.84649(19) 0.26100(19) 0.0616(2)
C7_16 C 0.87696(19) 0.29875(19) 0.0620(2)
H3_16 H 0.8963 0.3036 0.0950
C14_16 C 0.8213(2) 0.1947(2) 0.1220(2)
C15_16 C 0.8263(2) 0.1731(2) 0.1812(2)
C16_16 C 0.8555(3) 0.1900(2) 0.2231(3)
H14_16 H 0.8733 0.2172 0.2153
C17_13 C 0.8598(3) 0.1683(3) 0.2765(3)
H15_13 H 0.8807 0.1802 0.3050
C18_13 C 0.8333(3) 0.1289(2) 0.2882(3)
H16_13 H 0.8364 0.1133 0.3245
C19_16 C 0.8031(3) 0.1129(3) 0.2475(3)
H17_13 H 0.7846 0.0861 0.2557
C20_16 C 0.7990(3) 0.1347(3) 0.1952(3)
H18_16 H 0.7769 0.1234 0.1676
Ag1_4 Ag 0.951868(17) 0.465809(16) 0.006489(16)
N4_16 N 0.84397(17) 0.23432(17) 0.11265(17)
H19_16 H 0.8596 0.2454 0.1426
O2_16 O 0.94722(13) 0.36951(15) 0.04884(15)
O3_16 O 0.7962(2) 0.17640(18) 0.08488(18)
N6_6 N 0.97002(16) 0.50567(15) 0.08600(17)
C3_18 C 0.85331(18) 0.32084(19) 0.96561(19)
H1_18 H 0.8549 0.3410 0.9329
C4_18 C 0.82459(18) 0.28227(18) 0.96468(19)
C8_18 C 0.8919(2) 0.2148(2) 0.8698(3)
H4_18 H 0.8925 0.2246 0.8289
H5_18 H 0.9146 0.1896 0.8757
H6_18 H 0.9001 0.2414 0.8946
C9_18 C 0.8434(2) 0.1976(2) 0.8854(2)
H7_18 H 0.8357 0.1700 0.8613
H8_18 H 0.8429 0.1879 0.9267
C10_18 C 0.8079(2) 0.23458(19) 0.8758(2)
C11_18 C 0.76634(19) 0.29964(19) 0.8853(2)
C12_16 C 0.7474(2) 0.3428(2) 0.9117(2)
H9_18 H 0.7738 0.3639 0.9207
H10_16 H 0.7323 0.3345 0.9491
C13_16 C 0.7124(2) 0.3692(2) 0.8745(2)
H11_16 H 0.7278 0.3806 0.8392
H12_16 H 0.7000 0.3957 0.8966
H13_16 H 0.6867 0.3483 0.8637
N1_10 N 0.78156(16) 0.23939(16) 0.82991(17)
N3_18 N 0.79939(16) 0.27155(15) 0.91195(17)
O1_18 O 0.89726(14) 0.40777(13) 0.99083(15)
Ag3_9 Ag 0.784191(16) 0.201868(17) 0.743511(16)
N5_10 N 0.98939(16) 0.46844(16) 0.92009(17)
H2_17 H 0.0245 0.5492 0.2600
C8_19 C 0.0352(2) 0.6419(2) 0.1198(3)
H4_19 H 0.0254 0.6425 0.0789
H5_19 H 0.0604 0.6646 0.1257
H6_19 H 0.0086 0.6501 0.1446
C9_19 C 0.0524(2) 0.5934(2) 0.1354(2)
H7_19 H 0.0800 0.5857 0.1113
H8_19 H 0.0621 0.5929 0.1767
C10_19 C 0.01542(19) 0.5579(2) 0.1258(2)
C14_17 C 0.0553(2) 0.5713(2) 0.3720(2)
C15_17 C 0.0769(2) 0.5763(2) 0.4312(2)
C16_17 C 0.0600(2) 0.6055(3) 0.4731(3)
H14_17 H 0.0328 0.6233 0.4653
C17_14 C 0.0817(3) 0.6098(3) 0.5265(3)
H15_14 H 0.0698 0.6307 0.5550
C18_14 C 0.1211(2) 0.5833(3) 0.5382(3)
H16_14 H 0.1367 0.5864 0.5745
C19_17 C 0.1371(3) 0.5531(3) 0.4975(3)
H17_14 H 0.1639 0.5346 0.5057
C20_17 C 0.1153(3) 0.5490(3) 0.4452(3)
H18_17 H 0.1266 0.5269 0.4176
N1_11 N 0.01061(16) 0.53156(16) 0.07991(17)
N4_17 N 0.01568(17) 0.59397(17) 0.36265(17)
H19_17 H 0.0046 0.6096 0.3926
O3_17 O 0.07360(18) 0.5462(2) 0.33488(18)
Ag3_10 Ag 0.048132(17) 0.534191(16) 0.993511(16)
C1_17 C 0.8780(2) 0.66012(19) 0.2685(2)
C2_17 C 0.92015(19) 0.63002(18) 0.26527(19)
C3_19 C 0.92916(19) 0.60331(18) 0.21561(19)
H1_19 H 0.9090 0.6049 0.1829
C4_19 C 0.96773(18) 0.57459(18) 0.21468(19)
C5_17 C 0.99847(19) 0.56967(19) 0.26174(19)
C6_17 C 0.98900(19) 0.59649(19) 0.3116(2)
C7_17 C 0.95125(19) 0.62696(19) 0.3120(2)
H3_17 H 0.9464 0.6463 0.3450
C11_19 C 0.95036(19) 0.51634(19) 0.1353(2)
C12_17 C 0.9072(2) 0.4974(2) 0.1617(2)
H9_19 H 0.8861 0.5238 0.1707
H10_17 H 0.9155 0.4823 0.1991
C13_17 C 0.8808(2) 0.4624(2) 0.1245(2)
H11_17 H 0.8694 0.4778 0.0892
H12_17 H 0.8543 0.4500 0.1466
H13_17 H 0.9017 0.4367 0.1137
Ag1_5 Ag 0.784191(16) 0.701868(17) 0.256489(16)
N3_19 N 0.97845(15) 0.54939(16) 0.16195(17)
O1_19 O 0.84223(13) 0.64726(14) 0.24083(15)
O2_17 O 0.88049(15) 0.69722(13) 0.29884(15)
N5_11 N 0.78156(16) 0.73939(16) 0.17009(17)
N6_7 N 0.74433(15) 0.72002(16) 0.33600(17)
C1_18 C 0.58988(19) 0.6280(2) 0.5185(2)
C2_18 C 0.61998(18) 0.67015(19) 0.51527(19)
C3_20 C 0.64669(18) 0.67916(19) 0.46561(19)
H1_20 H 0.6451 0.6590 0.4329
C4_20 C 0.67541(18) 0.71773(18) 0.46468(19)
C5_18 C 0.68033(19) 0.74847(19) 0.51174(19)
H2_18 H 0.7008 0.7745 0.5100
C6_18 C 0.65351(19) 0.73900(19) 0.5616(2)
C7_18 C 0.62304(19) 0.70125(19) 0.5620(2)
H3_18 H 0.6037 0.6964 0.5950
C8_20 C 0.6081(2) 0.7852(2) 0.3698(3)
H4_20 H 0.6075 0.7754 0.3289
H5_20 H 0.5854 0.8104 0.3757
H6_20 H 0.5999 0.7586 0.3946
C9_20 C 0.6566(2) 0.8024(2) 0.3854(2)
H7_20 H 0.6643 0.8300 0.3613
H8_20 H 0.6571 0.8121 0.4267
C10_20 C 0.6921(2) 0.76542(19) 0.3758(2)
C11_20 C 0.73366(19) 0.70036(19) 0.3853(2)
C12_18 C 0.7526(2) 0.6572(2) 0.4117(2)
H9_20 H 0.7262 0.6361 0.4207
H10_18 H 0.7677 0.6655 0.4491
C13_18 C 0.7876(2) 0.6308(2) 0.3745(2)
H11_18 H 0.7722 0.6194 0.3392
H12_18 H 0.8000 0.6043 0.3966
H13_18 H 0.8133 0.6517 0.3637
C14_18 C 0.6787(2) 0.8053(2) 0.6220(2)
C15_18 C 0.6737(2) 0.8269(2) 0.6812(2)
C16_18 C 0.6445(3) 0.8100(2) 0.7231(3)
H14_18 H 0.6267 0.7828 0.7153
C17_15 C 0.6402(3) 0.8317(3) 0.7765(3)
H15_15 H 0.6193 0.8198 0.8050
C18_15 C 0.6667(3) 0.8711(2) 0.7882(3)
H16_15 H 0.6636 0.8867 0.8245
C19_18 C 0.6969(3) 0.8871(3) 0.7475(3)
H17_15 H 0.7154 0.9139 0.7557
C20_18 C 0.7010(3) 0.8653(3) 0.6952(3)
H18_18 H 0.7231 0.8766 0.6676
N1_12 N 0.71844(16) 0.76061(16) 0.32991(17)
N3_20 N 0.70061(16) 0.72845(15) 0.41195(17)
N4_18 N 0.65603(17) 0.76568(17) 0.61265(17)
H19_18 H 0.6404 0.7546 0.6426
O1_20 O 0.60274(14) 0.59223(13) 0.49083(15)
O2_18 O 0.55278(13) 0.63049(15) 0.54884(15)
O3_18 O 0.7038(2) 0.82360(18) 0.58488(18)
Ag3_11 Ag 0.715809(16) 0.798132(17) 0.243511(16)
N5_12 N 0.51061(16) 0.53156(16) 0.42009(17)
C1_19 C 0.1220(2) 0.83988(19) 0.2685(2)
C2_19 C 0.07985(19) 0.86998(18) 0.26527(19)
C3_21 C 0.07084(19) 0.89669(18) 0.21561(19)
H1_21 H 0.0910 0.8951 0.1829
C4_21 C 0.03227(18) 0.92541(18) 0.21468(19)
C5_19 C 0.00153(19) 0.93033(19) 0.26174(19)
C6_19 C 0.01100(19) 0.90351(19) 0.3116(2)
C7_19 C 0.04875(19) 0.87304(19) 0.3120(2)
H3_19 H 0.0536 0.8537 0.3450
C11_21 C 0.04964(19) 0.98366(19) 0.1353(2)
H9_21 H 0.1139 0.9762 0.1707
Ag1_6 Ag 0.215809(16) 0.798132(17) 0.256489(16)
N2_14 N 0.02998(16) 0.99433(15) 0.08600(17)
N3_21 N 0.02155(15) 0.95061(16) 0.16195(17)
O1_21 O 0.15777(13) 0.85274(14) 0.24083(15)
O2_19 O 0.11951(15) 0.80278(13) 0.29884(15)
N5_13 N 0.21844(16) 0.76061(16) 0.17009(17)
N6_8 N 0.25567(15) 0.77998(16) 0.33600(17)
H2_19 H 0.9755 0.9508 0.2600
C8_21 C 0.9648(2) 0.8581(2) 0.1198(3)
H4_21 H 0.9746 0.8575 0.0789
H5_21 H 0.9396 0.8354 0.1257
H6_21 H 0.9914 0.8499 0.1446
C9_21 C 0.9476(2) 0.9066(2) 0.1354(2)
H7_21 H 0.9200 0.9143 0.1113
H8_21 H 0.9379 0.9071 0.1767
C10_21 C 0.98458(19) 0.9421(2) 0.1258(2)
C14_19 C 0.9447(2) 0.9287(2) 0.3720(2)
C15_19 C 0.9231(2) 0.9237(2) 0.4312(2)
C16_19 C 0.9400(2) 0.8945(3) 0.4731(3)
H14_19 H 0.9672 0.8767 0.4653
C17_16 C 0.9183(3) 0.8902(3) 0.5265(3)
H15_16 H 0.9302 0.8693 0.5550
C18_16 C 0.8789(2) 0.9167(3) 0.5382(3)
H16_16 H 0.8633 0.9136 0.5745
C19_19 C 0.8629(3) 0.9469(3) 0.4975(3)
H17_16 H 0.8361 0.9654 0.5057
C20_19 C 0.8847(3) 0.9510(3) 0.4452(3)
H18_19 H 0.8734 0.9731 0.4176
N1_13 N 0.98939(16) 0.96844(16) 0.07991(17)
N4_19 N 0.98432(17) 0.90603(17) 0.36265(17)
H19_19 H 0.9954 0.8904 0.3926
O3_19 O 0.92640(18) 0.9538(2) 0.33488(18)
N6_9 N 0.47002(16) 0.00567(15) 0.58600(17)
C1_20 C 0.41012(19) 0.8720(2) 0.5185(2)
C2_20 C 0.38002(18) 0.82985(19) 0.51527(19)
C3_22 C 0.35331(18) 0.82084(19) 0.46561(19)
H1_22 H 0.3549 0.8410 0.4329
C4_22 C 0.32459(18) 0.78227(18) 0.46468(19)
C5_20 C 0.31967(19) 0.75153(19) 0.51174(19)
H2_20 H 0.2992 0.7255 0.5100
C6_20 C 0.34649(19) 0.76100(19) 0.5616(2)
C7_20 C 0.37696(19) 0.79875(19) 0.5620(2)
H3_20 H 0.3963 0.8036 0.5950
C8_22 C 0.3919(2) 0.7148(2) 0.3698(3)
H4_22 H 0.3925 0.7246 0.3289
H5_22 H 0.4146 0.6896 0.3757
H6_22 H 0.4001 0.7414 0.3946
C9_22 C 0.3434(2) 0.6976(2) 0.3854(2)
H7_22 H 0.3357 0.6700 0.3613
H8_22 H 0.3429 0.6879 0.4267
C10_22 C 0.3079(2) 0.73458(19) 0.3758(2)
C11_22 C 0.26634(19) 0.79964(19) 0.3853(2)
C12_19 C 0.2474(2) 0.8428(2) 0.4117(2)
H9_22 H 0.2738 0.8639 0.4207
H10_19 H 0.2323 0.8345 0.4491
C13_19 C 0.2124(2) 0.8692(2) 0.3745(2)
H11_19 H 0.2278 0.8806 0.3392
H12_19 H 0.2000 0.8957 0.3966
H13_19 H 0.1867 0.8483 0.3637
C14_20 C 0.3213(2) 0.6947(2) 0.6220(2)
C15_20 C 0.3263(2) 0.6731(2) 0.6812(2)
C16_20 C 0.3555(3) 0.6900(2) 0.7231(3)
H14_20 H 0.3733 0.7172 0.7153
C17_17 C 0.3598(3) 0.6683(3) 0.7765(3)
H15_17 H 0.3807 0.6802 0.8050
C18_17 C 0.3333(3) 0.6289(2) 0.7882(3)
H16_17 H 0.3364 0.6133 0.8245
C19_20 C 0.3031(3) 0.6129(3) 0.7475(3)
H17_17 H 0.2846 0.5861 0.7557
C20_20 C 0.2990(3) 0.6347(3) 0.6952(3)
H18_20 H 0.2769 0.6234 0.6676
Ag1_7 Ag 0.451868(17) 0.965809(16) 0.506489(16)
N1_14 N 0.28156(16) 0.73939(16) 0.32991(17)
N3_22 N 0.29939(16) 0.77155(15) 0.41195(17)
N4_20 N 0.34397(17) 0.73432(17) 0.61265(17)
H19_20 H 0.3596 0.7454 0.6426
O1_22 O 0.39726(14) 0.90777(13) 0.49083(15)
O2_20 O 0.44722(13) 0.86951(15) 0.54884(15)
O3_20 O 0.2962(2) 0.67640(18) 0.58488(18)
Ag3_12 Ag 0.284191(16) 0.701868(17) 0.243511(16)
N5_14 N 0.48939(16) 0.96844(16) 0.42009(17)
C1_21 C 0.3780(2) 0.16012(19) 0.7685(2)
C2_21 C 0.42015(19) 0.13002(18) 0.76527(19)
C3_23 C 0.42916(19) 0.10331(18) 0.71561(19)
H1_23 H 0.4090 0.1049 0.6829
C4_23 C 0.46773(18) 0.07459(18) 0.71468(19)
C5_21 C 0.49847(19) 0.06967(19) 0.76174(19)
H2_21 H 0.5245 0.0492 0.7600
C6_21 C 0.48900(19) 0.09649(19) 0.8116(2)
C7_21 C 0.45125(19) 0.12696(19) 0.8120(2)
H3_21 H 0.4464 0.1463 0.8450
C8_23 C 0.5352(2) 0.1419(2) 0.6198(3)
H4_23 H 0.5254 0.1425 0.5789
H5_23 H 0.5604 0.1646 0.6257
H6_23 H 0.5086 0.1501 0.6446
C9_23 C 0.5524(2) 0.0934(2) 0.6354(2)
H7_23 H 0.5800 0.0857 0.6113
H8_23 H 0.5621 0.0929 0.6767
C10_23 C 0.51542(19) 0.0579(2) 0.6258(2)
C11_23 C 0.45036(19) 0.01634(19) 0.6353(2)
H9_23 H 0.3861 0.0238 0.6707
C14_21 C 0.5553(2) 0.0713(2) 0.8720(2)
C15_21 C 0.5769(2) 0.0763(2) 0.9312(2)
C16_21 C 0.5600(2) 0.1055(3) 0.9731(3)
H14_21 H 0.5328 0.1233 0.9653
C19_21 C 0.6371(3) 0.0531(3) 0.9975(3)
C20_21 C 0.6153(3) 0.0490(3) 0.9452(3)
H18_21 H 0.6266 0.0269 0.9176
Ag1_8 Ag 0.284191(16) 0.201868(17) 0.756489(16)
N1_15 N 0.51061(16) 0.03156(16) 0.57991(17)
N3_23 N 0.47845(15) 0.04939(16) 0.66195(17)
N4_21 N 0.51568(17) 0.09397(17) 0.86265(17)
H19_21 H 0.5046 0.1096 0.8926
O1_23 O 0.34223(13) 0.14726(14) 0.74083(15)
O2_21 O 0.38049(15) 0.19722(13) 0.79884(15)
O3_21 O 0.57360(18) 0.0462(2) 0.83488(18)
Ag3_13 Ag 0.548132(17) 0.034191(16) 0.493511(16)
N5_15 N 0.28156(16) 0.23939(16) 0.67009(17)
N6_10 N 0.24433(15) 0.22002(16) 0.83600(17)
C12_20 C 0.4072(2) 0.9974(2) 0.6617(2)
H10_20 H 0.4155 0.9823 0.6991
C13_20 C 0.3808(2) 0.9624(2) 0.6245(2)
H11_20 H 0.3694 0.9778 0.5892
H12_20 H 0.3543 0.9500 0.6466
H13_20 H 0.4017 0.9367 0.6137
C3_24 C 0.14669(18) 0.17916(19) 0.96561(19)
H1_24 H 0.1451 0.1590 0.9329
C4_24 C 0.17541(18) 0.21773(18) 0.96468(19)
C8_24 C 0.1081(2) 0.2852(2) 0.8698(3)
H4_24 H 0.1075 0.2754 0.8289
H5_24 H 0.0854 0.3104 0.8757
H6_24 H 0.0999 0.2586 0.8946
C9_24 C 0.1566(2) 0.3024(2) 0.8854(2)
H7_24 H 0.1643 0.3300 0.8613
H8_24 H 0.1571 0.3121 0.9267
C10_24 C 0.1921(2) 0.26542(19) 0.8758(2)
C11_24 C 0.23366(19) 0.20036(19) 0.8853(2)
C12_21 C 0.2526(2) 0.1572(2) 0.9117(2)
H9_24 H 0.2262 0.1361 0.9207
H10_21 H 0.2677 0.1655 0.9491
C13_21 C 0.2876(2) 0.1308(2) 0.8745(2)
H11_21 H 0.2722 0.1194 0.8392
H12_21 H 0.3000 0.1043 0.8966
H13_21 H 0.3133 0.1517 0.8637
N1_16 N 0.21844(16) 0.26061(16) 0.82991(17)
N3_24 N 0.20061(16) 0.22845(15) 0.91195(17)
O1_24 O 0.10274(14) 0.09223(13) 0.99083(15)
Ag3_14 Ag 0.215809(16) 0.298132(17) 0.743511(16)
N5_16 N 0.01061(16) 0.03156(16) 0.92009(17)
C1_22 C 0.3780(2) 0.66012(19) 0.2315(2)
C2_22 C 0.42015(19) 0.63002(18) 0.23473(19)
C3_25 C 0.42916(19) 0.60331(18) 0.28439(19)
H1_25 H 0.4090 0.6049 0.3171
C4_25 C 0.46773(18) 0.57459(18) 0.28532(19)
C5_22 C 0.49847(19) 0.56967(19) 0.23826(19)
H2_22 H 0.5245 0.5492 0.2400
C6_22 C 0.48900(19) 0.59649(19) 0.1884(2)
C7_22 C 0.45125(19) 0.62696(19) 0.1880(2)
H3_22 H 0.4464 0.6463 0.1550
C8_25 C 0.5352(2) 0.6419(2) 0.3802(3)
H4_25 H 0.5254 0.6425 0.4211
H5_25 H 0.5604 0.6646 0.3743
H6_25 H 0.5086 0.6501 0.3554
C9_25 C 0.5524(2) 0.5934(2) 0.3646(2)
H7_25 H 0.5800 0.5857 0.3887
H8_25 H 0.5621 0.5929 0.3233
C10_25 C 0.51542(19) 0.5579(2) 0.3742(2)
C11_25 C 0.45036(19) 0.51634(19) 0.3647(2)
C12_22 C 0.4072(2) 0.4974(2) 0.3383(2)
H9_25 H 0.3861 0.5238 0.3293
H10_22 H 0.4155 0.4823 0.3009
C13_22 C 0.3808(2) 0.4624(2) 0.3755(2)
H11_22 H 0.3694 0.4778 0.4108
H12_22 H 0.3543 0.4500 0.3534
H13_22 H 0.4017 0.4367 0.3863
C14_22 C 0.5553(2) 0.5713(2) 0.1280(2)
C15_22 C 0.5769(2) 0.5763(2) 0.0688(2)
C16_22 C 0.5600(2) 0.6055(3) 0.0269(3)
H14_22 H 0.5328 0.6233 0.0347
C19_22 C 0.6371(3) 0.5531(3) 0.0025(3)
C20_22 C 0.6153(3) 0.5490(3) 0.0548(3)
H18_22 H 0.6266 0.5269 0.0824
N2_15 N 0.47002(16) 0.50567(15) 0.41400(17)
N3_25 N 0.47845(15) 0.54939(16) 0.33805(17)
N4_22 N 0.51568(17) 0.59397(17) 0.13735(17)
H19_22 H 0.5046 0.6096 0.1074
O1_25 O 0.34223(13) 0.64726(14) 0.25917(15)
O2_22 O 0.38049(15) 0.69722(13) 0.20116(15)
O3_22 O 0.57360(18) 0.5462(2) 0.16512(18)
N6_11 N 0.24433(15) 0.72002(16) 0.16400(17)
C3_26 C 0.14669(18) 0.67916(19) 0.03439(19)
H1_26 H 0.1451 0.6590 0.0671
C4_26 C 0.17541(18) 0.71773(18) 0.03532(19)
C8_26 C 0.1081(2) 0.7852(2) 0.1302(3)
H4_26 H 0.1075 0.7754 0.1711
H5_26 H 0.0854 0.8104 0.1243
H6_26 H 0.0999 0.7586 0.1054
C9_26 C 0.1566(2) 0.8024(2) 0.1146(2)
H7_26 H 0.1643 0.8300 0.1387
H8_26 H 0.1571 0.8121 0.0733
C10_26 C 0.1921(2) 0.76542(19) 0.1242(2)
C11_26 C 0.23366(19) 0.70036(19) 0.1147(2)
C12_23 C 0.2526(2) 0.6572(2) 0.0883(2)
H9_26 H 0.2262 0.6361 0.0793
H10_23 H 0.2677 0.6655 0.0509
C13_23 C 0.2876(2) 0.6308(2) 0.1255(2)
H11_23 H 0.2722 0.6194 0.1608
H12_23 H 0.3000 0.6043 0.1034
H13_23 H 0.3133 0.6517 0.1363
N3_26 N 0.20061(16) 0.72845(15) 0.08805(17)
O1_26 O 0.10274(14) 0.59223(13) 0.00917(15)
C1_23 C 0.08988(19) 0.6280(2) 0.9815(2)
C2_23 C 0.11998(18) 0.67015(19) 0.98473(19)
C5_23 C 0.18033(19) 0.74847(19) 0.98826(19)
H2_23 H 0.2008 0.7745 0.9900
C6_23 C 0.15351(19) 0.73900(19) 0.9384(2)
C7_23 C 0.12304(19) 0.70125(19) 0.9380(2)
H3_23 H 0.1037 0.6964 0.9050
C14_23 C 0.1787(2) 0.8053(2) 0.8780(2)
C15_23 C 0.1737(2) 0.8269(2) 0.8188(2)
C16_23 C 0.1445(3) 0.8100(2) 0.7769(3)
H14_23 H 0.1267 0.7828 0.7847
C17_18 C 0.1402(3) 0.8317(3) 0.7235(3)
H15_18 H 0.1193 0.8198 0.6950
C18_18 C 0.1667(3) 0.8711(2) 0.7118(3)
H16_18 H 0.1636 0.8867 0.6755
C19_23 C 0.1969(3) 0.8871(3) 0.7525(3)
H17_18 H 0.2154 0.9139 0.7443
C20_23 C 0.2010(3) 0.8653(3) 0.8048(3)
H18_23 H 0.2231 0.8766 0.8324
N4_23 N 0.15603(17) 0.76568(17) 0.88735(17)
H19_23 H 0.1404 0.7546 0.8574
O2_23 O 0.05278(13) 0.63049(15) 0.95116(15)
O3_23 O 0.2038(2) 0.82360(18) 0.91512(18)
N6_12 N 0.02998(16) 0.49433(15) 0.91400(17)
C1_24 C 0.1220(2) 0.33988(19) 0.7315(2)
C2_24 C 0.07985(19) 0.36998(18) 0.73473(19)
C3_27 C 0.07084(19) 0.39669(18) 0.78439(19)
H1_27 H 0.0910 0.3951 0.8171
C4_27 C 0.03227(18) 0.42541(18) 0.78532(19)
C5_24 C 0.00153(19) 0.43033(19) 0.73826(19)
C6_24 C 0.01100(19) 0.40351(19) 0.6884(2)
C7_24 C 0.04875(19) 0.37304(19) 0.6880(2)
H3_24 H 0.0536 0.3537 0.6550
C11_27 C 0.04964(19) 0.48366(19) 0.8647(2)
C12_24 C 0.0928(2) 0.5026(2) 0.8383(2)
H9_27 H 0.1139 0.4762 0.8293
H10_24 H 0.0845 0.5177 0.8009
C13_24 C 0.1192(2) 0.5376(2) 0.8755(2)
H11_24 H 0.1306 0.5222 0.9108
H12_24 H 0.1457 0.5500 0.8534
H13_24 H 0.0983 0.5633 0.8863
N3_27 N 0.02155(15) 0.45061(16) 0.83805(17)
O1_27 O 0.15777(13) 0.35274(14) 0.75917(15)
O2_24 O 0.11951(15) 0.30278(13) 0.70116(15)
N6_13 N 0.25567(15) 0.27998(16) 0.66400(17)
H2_24 H 0.9755 0.4508 0.7400
C8_27 C 0.9648(2) 0.3581(2) 0.8802(3)
H4_27 H 0.9746 0.3575 0.9211
H5_27 H 0.9396 0.3354 0.8743
H6_27 H 0.9914 0.3499 0.8554
C9_27 C 0.9476(2) 0.4066(2) 0.8646(2)
H7_27 H 0.9200 0.4143 0.8887
H8_27 H 0.9379 0.4071 0.8233
C10_27 C 0.98458(19) 0.4421(2) 0.8742(2)
C14_24 C 0.9447(2) 0.4287(2) 0.6280(2)
C15_24 C 0.9231(2) 0.4237(2) 0.5688(2)
C16_24 C 0.9400(2) 0.3945(3) 0.5269(3)
H14_24 H 0.9672 0.3767 0.5347
C17_19 C 0.9183(3) 0.3902(3) 0.4735(3)
H15_19 H 0.9302 0.3693 0.4450
C18_19 C 0.8789(2) 0.4167(3) 0.4618(3)
H16_19 H 0.8633 0.4136 0.4255
C19_24 C 0.8629(3) 0.4469(3) 0.5025(3)
H17_19 H 0.8361 0.4654 0.4943
C20_24 C 0.8847(3) 0.4510(3) 0.5548(3)
H18_24 H 0.8734 0.4731 0.5824
N4_24 N 0.98432(17) 0.40603(17) 0.63735(17)
H19_24 H 0.9954 0.3904 0.6074
O3_24 O 0.92640(18) 0.4538(2) 0.66512(18)
C1_25 C 0.41012(19) 0.3720(2) 0.4815(2)
C2_25 C 0.38002(18) 0.32985(19) 0.48473(19)
C3_28 C 0.35331(18) 0.32084(19) 0.53439(19)
H1_28 H 0.3549 0.3410 0.5671
C4_28 C 0.32459(18) 0.28227(18) 0.53532(19)
C5_25 C 0.31967(19) 0.25153(19) 0.48826(19)
H2_25 H 0.2992 0.2255 0.4900
C6_25 C 0.34649(19) 0.26100(19) 0.4384(2)
C7_25 C 0.37696(19) 0.29875(19) 0.4380(2)
H3_25 H 0.3963 0.3036 0.4050
C8_28 C 0.3919(2) 0.2148(2) 0.6302(3)
H4_28 H 0.3925 0.2246 0.6711
H5_28 H 0.4146 0.1896 0.6243
H6_28 H 0.4001 0.2414 0.6054
C9_28 C 0.3434(2) 0.1976(2) 0.6146(2)
H7_28 H 0.3357 0.1700 0.6387
H8_28 H 0.3429 0.1879 0.5733
C10_28 C 0.3079(2) 0.23458(19) 0.6242(2)
C11_28 C 0.26634(19) 0.29964(19) 0.6147(2)
C12_25 C 0.2474(2) 0.3428(2) 0.5883(2)
H9_28 H 0.2738 0.3639 0.5793
H10_25 H 0.2323 0.3345 0.5509
C13_25 C 0.2124(2) 0.3692(2) 0.6255(2)
H11_25 H 0.2278 0.3806 0.6608
H12_25 H 0.2000 0.3957 0.6034
H13_25 H 0.1867 0.3483 0.6363
C14_25 C 0.3213(2) 0.1947(2) 0.3780(2)
C15_25 C 0.3263(2) 0.1731(2) 0.3188(2)
C16_25 C 0.3555(3) 0.1900(2) 0.2769(3)
H14_25 H 0.3733 0.2172 0.2847
C17_20 C 0.3598(3) 0.1683(3) 0.2235(3)
H15_20 H 0.3807 0.1802 0.1950
C18_20 C 0.3333(3) 0.1289(2) 0.2118(3)
H16_20 H 0.3364 0.1133 0.1755
C19_25 C 0.3031(3) 0.1129(3) 0.2525(3)
H17_20 H 0.2846 0.0861 0.2443
C20_25 C 0.2990(3) 0.1347(3) 0.3048(3)
H18_25 H 0.2769 0.1234 0.3324
N3_28 N 0.29939(16) 0.27155(15) 0.58805(17)
N4_25 N 0.34397(17) 0.23432(17) 0.38735(17)
H19_25 H 0.3596 0.2454 0.3574
O1_28 O 0.39726(14) 0.40777(13) 0.50917(15)
O2_25 O 0.44722(13) 0.36951(15) 0.45116(15)
O3_25 O 0.2962(2) 0.17640(18) 0.41512(18)
H2_26 H 0.0245 0.0492 0.7400
C8_29 C 0.0352(2) 0.1419(2) 0.8802(3)
H4_29 H 0.0254 0.1425 0.9211
H5_29 H 0.0604 0.1646 0.8743
H6_29 H 0.0086 0.1501 0.8554
C9_29 C 0.0524(2) 0.0934(2) 0.8646(2)
H7_29 H 0.0800 0.0857 0.8887
H8_29 H 0.0621 0.0929 0.8233
C10_29 C 0.01542(19) 0.0579(2) 0.8742(2)
C14_26 C 0.0553(2) 0.0713(2) 0.6280(2)
C15_26 C 0.0769(2) 0.0763(2) 0.5688(2)
C16_26 C 0.0600(2) 0.1055(3) 0.5269(3)
H14_26 H 0.0328 0.1233 0.5347
C17_21 C 0.0817(3) 0.1098(3) 0.4735(3)
H15_21 H 0.0698 0.1307 0.4450
C18_21 C 0.1211(2) 0.0833(3) 0.4618(3)
H16_21 H 0.1367 0.0864 0.4255
C19_26 C 0.1371(3) 0.0531(3) 0.5025(3)
H17_21 H 0.1639 0.0346 0.4943
C20_26 C 0.1153(3) 0.0490(3) 0.5548(3)
H18_26 H 0.1266 0.0269 0.5824
N4_26 N 0.01568(17) 0.09397(17) 0.63735(17)
H19_26 H 0.0046 0.1096 0.6074
O3_26 O 0.07360(18) 0.0462(2) 0.66512(18)
C1_26 C 0.8780(2) 0.16012(19) 0.7315(2)
C2_26 C 0.92015(19) 0.13002(18) 0.73473(19)
C3_29 C 0.92916(19) 0.10331(18) 0.78439(19)
H1_29 H 0.9090 0.1049 0.8171
C4_29 C 0.96773(18) 0.07459(18) 0.78532(19)
C5_26 C 0.99847(19) 0.06967(19) 0.73826(19)
C6_26 C 0.98900(19) 0.09649(19) 0.6884(2)
C7_26 C 0.95125(19) 0.12696(19) 0.6880(2)
H3_26 H 0.9464 0.1463 0.6550
C11_29 C 0.95036(19) 0.01634(19) 0.8647(2)
H9_29 H 0.8861 0.0238 0.8293
N2_16 N 0.97002(16) 0.00567(15) 0.91400(17)
N3_29 N 0.97845(15) 0.04939(16) 0.83805(17)
O1_29 O 0.84223(13) 0.14726(14) 0.75917(15)
O2_26 O 0.88049(15) 0.19722(13) 0.70116(15)
N6_14 N 0.74433(15) 0.22002(16) 0.66400(17)
C1_27 C 0.58988(19) 0.1280(2) 0.4815(2)
C2_27 C 0.61998(18) 0.17015(19) 0.48473(19)
C3_30 C 0.64669(18) 0.17916(19) 0.53439(19)
H1_30 H 0.6451 0.1590 0.5671
C4_30 C 0.67541(18) 0.21773(18) 0.53532(19)
C5_27 C 0.68033(19) 0.24847(19) 0.48826(19)
H2_27 H 0.7008 0.2745 0.4900
C6_27 C 0.65351(19) 0.23900(19) 0.4384(2)
C7_27 C 0.62304(19) 0.20125(19) 0.4380(2)
H3_27 H 0.6037 0.1964 0.4050
C8_30 C 0.6081(2) 0.2852(2) 0.6302(3)
H4_30 H 0.6075 0.2754 0.6711
H5_30 H 0.5854 0.3104 0.6243
H6_30 H 0.5999 0.2586 0.6054
C9_30 C 0.6566(2) 0.3024(2) 0.6146(2)
H7_30 H 0.6643 0.3300 0.6387
H8_30 H 0.6571 0.3121 0.5733
C10_30 C 0.6921(2) 0.26542(19) 0.6242(2)
C11_30 C 0.73366(19) 0.20036(19) 0.6147(2)
C12_26 C 0.7526(2) 0.1572(2) 0.5883(2)
H9_30 H 0.7262 0.1361 0.5793
H10_26 H 0.7677 0.1655 0.5509
C13_26 C 0.7876(2) 0.1308(2) 0.6255(2)
H11_26 H 0.7722 0.1194 0.6608
H12_26 H 0.8000 0.1043 0.6034
H13_26 H 0.8133 0.1517 0.6363
C14_27 C 0.6787(2) 0.3053(2) 0.3780(2)
C15_27 C 0.6737(2) 0.3269(2) 0.3188(2)
C16_27 C 0.6445(3) 0.3100(2) 0.2769(3)
H14_27 H 0.6267 0.2828 0.2847
C17_22 C 0.6402(3) 0.3317(3) 0.2235(3)
H15_22 H 0.6193 0.3198 0.1950
C18_22 C 0.6667(3) 0.3711(2) 0.2118(3)
H16_22 H 0.6636 0.3867 0.1755
C19_27 C 0.6969(3) 0.3871(3) 0.2525(3)
H17_22 H 0.7154 0.4139 0.2443
C20_27 C 0.7010(3) 0.3653(3) 0.3048(3)
H18_27 H 0.7231 0.3766 0.3324
N3_30 N 0.70061(16) 0.22845(15) 0.58805(17)
N4_27 N 0.65603(17) 0.26568(17) 0.38735(17)
H19_27 H 0.6404 0.2546 0.3574
O1_30 O 0.60274(14) 0.09223(13) 0.50917(15)
O2_27 O 0.55278(13) 0.13049(15) 0.45116(15)
O3_27 O 0.7038(2) 0.32360(18) 0.41512(18)
N6_15 N 0.52998(16) 0.99433(15) 0.41400(17)
C12_27 C 0.5928(2) 0.0026(2) 0.3383(2)
H10_27 H 0.5845 0.0177 0.3009
C13_27 C 0.6192(2) 0.0376(2) 0.3755(2)
H11_27 H 0.6306 0.0222 0.4108
H12_27 H 0.6457 0.0500 0.3534
H13_27 H 0.5983 0.0633 0.3863
C1_28 C 0.6220(2) 0.83988(19) 0.2315(2)
C2_28 C 0.57985(19) 0.86998(18) 0.23473(19)
C3_31 C 0.57084(19) 0.89669(18) 0.28439(19)
H1_31 H 0.5910 0.8951 0.3171
C4_31 C 0.53227(18) 0.92541(18) 0.28532(19)
C5_28 C 0.50153(19) 0.93033(19) 0.23826(19)
H2_28 H 0.4755 0.9508 0.2400
C6_28 C 0.51100(19) 0.90351(19) 0.1884(2)
C7_28 C 0.54875(19) 0.87304(19) 0.1880(2)
H3_28 H 0.5536 0.8537 0.1550
C8_31 C 0.4648(2) 0.8581(2) 0.3802(3)
H4_31 H 0.4746 0.8575 0.4211
H5_31 H 0.4396 0.8354 0.3743
H6_31 H 0.4914 0.8499 0.3554
C9_31 C 0.4476(2) 0.9066(2) 0.3646(2)
H7_31 H 0.4200 0.9143 0.3887
H8_31 H 0.4379 0.9071 0.3233
C10_31 C 0.48458(19) 0.9421(2) 0.3742(2)
C11_31 C 0.54964(19) 0.98366(19) 0.3647(2)
H9_31 H 0.6139 0.9762 0.3293
C14_28 C 0.4447(2) 0.9287(2) 0.1280(2)
C15_28 C 0.4231(2) 0.9237(2) 0.0688(2)
C16_28 C 0.4400(2) 0.8945(3) 0.0269(3)
H14_28 H 0.4672 0.8767 0.0347
C19_28 C 0.3629(3) 0.9469(3) 0.0025(3)
C20_28 C 0.3847(3) 0.9510(3) 0.0548(3)
H18_28 H 0.3734 0.9731 0.0824
N3_31 N 0.52155(15) 0.95061(16) 0.33805(17)
N4_28 N 0.48432(17) 0.90603(17) 0.13735(17)
H19_28 H 0.4954 0.8904 0.1074
O1_31 O 0.65777(13) 0.85274(14) 0.25917(15)
O2_28 O 0.61951(15) 0.80278(13) 0.20116(15)
O3_28 O 0.42640(18) 0.9538(2) 0.16512(18)
N6_16 N 0.75567(15) 0.77998(16) 0.16400(17)
C3_32 C 0.85331(18) 0.82084(19) 0.03439(19)
H1_32 H 0.8549 0.8410 0.0671
C4_32 C 0.82459(18) 0.78227(18) 0.03532(19)
C8_32 C 0.8919(2) 0.7148(2) 0.1302(3)
H4_32 H 0.8925 0.7246 0.1711
H5_32 H 0.9146 0.6896 0.1243
H6_32 H 0.9001 0.7414 0.1054
C9_32 C 0.8434(2) 0.6976(2) 0.1146(2)
H7_32 H 0.8357 0.6700 0.1387
H8_32 H 0.8429 0.6879 0.0733
C10_32 C 0.8079(2) 0.73458(19) 0.1242(2)
C11_32 C 0.76634(19) 0.79964(19) 0.1147(2)
C12_28 C 0.7474(2) 0.8428(2) 0.0883(2)
H9_32 H 0.7738 0.8639 0.0793
H10_28 H 0.7323 0.8345 0.0509
C13_28 C 0.7124(2) 0.8692(2) 0.1255(2)
H11_28 H 0.7278 0.8806 0.1608
H12_28 H 0.7000 0.8957 0.1034
H13_28 H 0.6867 0.8483 0.1363
N3_32 N 0.79939(16) 0.77155(15) 0.08805(17)
O1_32 O 0.89726(14) 0.90777(13) 0.00917(15)
C17_23 C 0.9183(3) 0.1098(3) 0.9735(3)
H15_23 H 0.9302 0.1307 0.9450
C18_23 C 0.8789(2) 0.0833(3) 0.9618(3)
H16_23 H 0.8633 0.0864 0.9255
H17_23 H 0.8361 0.0346 0.9943
C12_29 C 0.4072(2) 0.0026(2) 0.8383(2)
H10_29 H 0.4155 0.0177 0.8009
C13_29 C 0.3808(2) 0.0376(2) 0.8755(2)
H11_29 H 0.3694 0.0222 0.9108
H12_29 H 0.3543 0.0500 0.8534
H13_29 H 0.4017 0.0633 0.8863
Ag2_7 Ag 0.451868(17) 0.034191(16) 0.993511(16)
C1_29 C 0.41012(19) 0.1280(2) 0.9815(2)
C2_29 C 0.38002(18) 0.17015(19) 0.98473(19)
C5_29 C 0.31967(19) 0.24847(19) 0.98826(19)
H2_29 H 0.2992 0.2745 0.9900
C6_29 C 0.34649(19) 0.23900(19) 0.9384(2)
C7_29 C 0.37696(19) 0.20125(19) 0.9380(2)
H3_29 H 0.3963 0.1964 0.9050
C14_29 C 0.3213(2) 0.3053(2) 0.8780(2)
C15_29 C 0.3263(2) 0.3269(2) 0.8188(2)
C16_29 C 0.3555(3) 0.3100(2) 0.7769(3)
H14_29 H 0.3733 0.2828 0.7847
C17_24 C 0.3598(3) 0.3317(3) 0.7235(3)
H15_24 H 0.3807 0.3198 0.6950
C18_24 C 0.3333(3) 0.3711(2) 0.7118(3)
H16_24 H 0.3364 0.3867 0.6755
C19_29 C 0.3031(3) 0.3871(3) 0.7525(3)
H17_24 H 0.2846 0.4139 0.7443
C20_29 C 0.2990(3) 0.3653(3) 0.8048(3)
H18_29 H 0.2769 0.3766 0.8324
N4_29 N 0.34397(17) 0.26568(17) 0.88735(17)
H19_29 H 0.3596 0.2546 0.8574
O2_29 O 0.44722(13) 0.13049(15) 0.95116(15)
O3_29 O 0.2962(2) 0.32360(18) 0.91512(18)
Ag3_15 Ag 0.548132(17) 0.965809(16) 0.006489(16)
C12_30 C 0.5928(2) 0.9974(2) 0.1617(2)
H10_30 H 0.5845 0.9823 0.1991
C13_30 C 0.6192(2) 0.9624(2) 0.1245(2)
H11_30 H 0.6306 0.9778 0.0892
H12_30 H 0.6457 0.9500 0.1466
H13_30 H 0.5983 0.9367 0.1137
C1_30 C 0.58988(19) 0.8720(2) 0.0185(2)
C2_30 C 0.61998(18) 0.82985(19) 0.01527(19)
C5_30 C 0.68033(19) 0.75153(19) 0.01174(19)
H2_30 H 0.7008 0.7255 0.0100
C6_30 C 0.65351(19) 0.76100(19) 0.0616(2)
C7_30 C 0.62304(19) 0.79875(19) 0.0620(2)
H3_30 H 0.6037 0.8036 0.0950
C14_30 C 0.6787(2) 0.6947(2) 0.1220(2)
C15_30 C 0.6737(2) 0.6731(2) 0.1812(2)
C16_30 C 0.6445(3) 0.6900(2) 0.2231(3)
H14_30 H 0.6267 0.7172 0.2153
C17_25 C 0.6402(3) 0.6683(3) 0.2765(3)
H15_25 H 0.6193 0.6802 0.3050
C18_25 C 0.6667(3) 0.6289(2) 0.2882(3)
H16_25 H 0.6636 0.6133 0.3245
C19_30 C 0.6969(3) 0.6129(3) 0.2475(3)
H17_25 H 0.7154 0.5861 0.2557
C20_30 C 0.7010(3) 0.6347(3) 0.1952(3)
H18_30 H 0.7231 0.6234 0.1676
N4_30 N 0.65603(17) 0.73432(17) 0.11265(17)
H19_30 H 0.6404 0.7454 0.1426
O2_30 O 0.55278(13) 0.86951(15) 0.04884(15)
O3_30 O 0.7038(2) 0.67640(18) 0.08488(18)
C12_31 C 0.0928(2) 0.0026(2) 0.1617(2)
H10_31 H 0.0845 0.0177 0.1991
C13_31 C 0.1192(2) 0.0376(2) 0.1245(2)
H11_31 H 0.1306 0.0222 0.0892
H12_31 H 0.1457 0.0500 0.1466
H13_31 H 0.0983 0.0633 0.1137
Ag2_8 Ag 0.048132(17) 0.034191(16) 0.006489(16)
C1_31 C 0.08988(19) 0.1280(2) 0.0185(2)
C2_31 C 0.11998(18) 0.17015(19) 0.01527(19)
C5_31 C 0.18033(19) 0.24847(19) 0.01174(19)
H2_31 H 0.2008 0.2745 0.0100
C6_31 C 0.15351(19) 0.23900(19) 0.0616(2)
C7_31 C 0.12304(19) 0.20125(19) 0.0620(2)
H3_31 H 0.1037 0.1964 0.0950
C14_31 C 0.1787(2) 0.3053(2) 0.1220(2)
C15_31 C 0.1737(2) 0.3269(2) 0.1812(2)
C16_31 C 0.1445(3) 0.3100(2) 0.2231(3)
H14_31 H 0.1267 0.2828 0.2153
C17_26 C 0.1402(3) 0.3317(3) 0.2765(3)
H15_26 H 0.1193 0.3198 0.3050
C18_26 C 0.1667(3) 0.3711(2) 0.2882(3)
H16_26 H 0.1636 0.3867 0.3245
C19_31 C 0.1969(3) 0.3871(3) 0.2475(3)
H17_26 H 0.2154 0.4139 0.2557
C20_31 C 0.2010(3) 0.3653(3) 0.1952(3)
H18_31 H 0.2231 0.3766 0.1676
N4_31 N 0.15603(17) 0.26568(17) 0.11265(17)
H19_31 H 0.1404 0.2546 0.1426
O2_31 O 0.05278(13) 0.13049(15) 0.04884(15)
O3_31 O 0.2038(2) 0.32360(18) 0.08488(18)
Ag3_16 Ag 0.951868(17) 0.965809(16) 0.993511(16)
C12_32 C 0.9072(2) 0.9974(2) 0.8383(2)
H10_32 H 0.9155 0.9823 0.8009
C13_32 C 0.8808(2) 0.9624(2) 0.8755(2)
H11_32 H 0.8694 0.9778 0.9108
H12_32 H 0.8543 0.9500 0.8534
H13_32 H 0.9017 0.9367 0.8863
C1_32 C 0.91012(19) 0.8720(2) 0.9815(2)
C2_32 C 0.88002(18) 0.82985(19) 0.98473(19)
C5_32 C 0.81967(19) 0.75153(19) 0.98826(19)
H2_32 H 0.7992 0.7255 0.9900
C6_32 C 0.84649(19) 0.76100(19) 0.9384(2)
C7_32 C 0.87696(19) 0.79875(19) 0.9380(2)
H3_32 H 0.8963 0.8036 0.9050
C14_32 C 0.8213(2) 0.6947(2) 0.8780(2)
C15_32 C 0.8263(2) 0.6731(2) 0.8188(2)
C16_32 C 0.8555(3) 0.6900(2) 0.7769(3)
H14_32 H 0.8733 0.7172 0.7847
C17_27 C 0.8598(3) 0.6683(3) 0.7235(3)
H15_27 H 0.8807 0.6802 0.6950
C18_27 C 0.8333(3) 0.6289(2) 0.7118(3)
H16_27 H 0.8364 0.6133 0.6755
C19_32 C 0.8031(3) 0.6129(3) 0.7525(3)
H17_27 H 0.7846 0.5861 0.7443
C20_32 C 0.7990(3) 0.6347(3) 0.8048(3)
H18_32 H 0.7769 0.6234 0.8324
N4_32 N 0.84397(17) 0.73432(17) 0.88735(17)
H19_32 H 0.8596 0.7454 0.8574
O2_32 O 0.94722(13) 0.86951(15) 0.95116(15)
O3_32 O 0.7962(2) 0.67640(18) 0.91512(18)
C17_28 C 0.5817(3) 0.1098(3) 0.0265(3)
H15_28 H 0.5698 0.1307 0.0550
C18_28 C 0.6211(2) 0.0833(3) 0.0382(3)
H16_28 H 0.6367 0.0864 0.0745
H17_28 H 0.6639 0.0346 0.0057
C17_29 C 0.9183(3) 0.6098(3) 0.0265(3)
H15_29 H 0.9302 0.6307 0.0550
C18_29 C 0.8789(2) 0.5833(3) 0.0382(3)
H16_29 H 0.8633 0.5864 0.0745
H17_29 H 0.8361 0.5346 0.0057
C17_30 C 0.5817(3) 0.6098(3) 0.9735(3)
H15_30 H 0.5698 0.6307 0.9450
C18_30 C 0.6211(2) 0.5833(3) 0.9618(3)
H16_30 H 0.6367 0.5864 0.9255
H17_30 H 0.6639 0.5346 0.9943
C17_31 C 0.0817(3) 0.8902(3) 0.0265(3)
H15_31 H 0.0698 0.8693 0.0550
C18_31 C 0.1211(2) 0.9167(3) 0.0382(3)
H16_31 H 0.1367 0.9136 0.0745
H17_31 H 0.1639 0.9654 0.0057
C17_32 C 0.4183(3) 0.8902(3) 0.9735(3)
H15_32 H 0.4302 0.8693 0.9450
C18_32 C 0.3789(2) 0.9167(3) 0.9618(3)
H16_32 H 0.3633 0.9136 0.9255
H17_32 H 0.3361 0.9654 0.9943
loop_
_geom_bond_atom_site_label_1
_geom_bond_atom_site_label_2
_geom_bond_site_symmetry_1
_geom_bond_site_symmetry_2
C1 C2 1_555 1_555
C2 C3 1_555 1_555
C3 H1 1_555 1_555
C4 C3 1_555 1_555
C5 C4 1_555 1_555
H2 C5 1_555 1_555
C6 C5 1_555 1_555
C7 C2 1_555 1_555
H3 C7 1_555 1_555
C8 H4 1_555 1_555
H5 C8 1_555 1_555
H6 C8 1_555 1_555
C9 C8 1_555 1_555
H7 C9 1_555 1_555
H8 C9 1_555 1_555
C10 C9 1_555 1_555
C11 C12 1_555 1_555
C12 H9 1_555 1_555
H10 C12 1_555 1_555
C13 C12 1_555 1_555
H11 C13 1_555 1_555
H12 C13 1_555 1_555
H13 C13 1_555 1_555
C14 C15 1_555 1_555
C15 C16 1_555 1_555
C16 H14 1_555 1_555
C17 C16 1_555 1_555
H15 C17 1_555 1_555
C18 C17 1_555 1_555
H16 C18 1_555 1_555
C19 C18 1_555 1_555
H17 C19 1_555 1_555
C20 C15 1_555 1_555
H18 C20 1_555 1_555
Ag1 O1 1_555 1_555
N1 C10 1_555 1_555
N2 C11 1_555 1_555
N3 C4 1_555 1_555
N4 C6 1_555 1_555
H19 N4 1_555 1_555
O1 C1 1_555 1_555
O2 C1 1_555 1_555
O3 C14 1_555 1_555
Ag2 N2 1_555 1_555
N5 Ag1 1_555 1_555
N6 Ag1 1_555 1_555
C6 C7 1_555 1_555
C10 N3 1_555 1_555
C11 N3 1_555 1_555
C14 N4 1_555 1_555
C19 C20 1_555 1_555
N1 N2 1_555 1_555
C3_2 H1_2 1_555 1_555
C4_2 C3_2 1_555 1_555
C8_2 H4_2 1_555 1_555
H5_2 C8_2 1_555 1_555
H6_2 C8_2 1_555 1_555
C9_2 C8_2 1_555 1_555
H7_2 C9_2 1_555 1_555
H8_2 C9_2 1_555 1_555
C10_2 C9_2 1_555 1_555
C11_2 C12_2 1_555 1_555
C12_2 H9_2 1_555 1_555
H10_2 C12_2 1_555 1_555
C13_2 C12_2 1_555 1_555
H11_2 C13_2 1_555 1_555
H12_2 C13_2 1_555 1_555
H13_2 C13_2 1_555 1_555
N1_2 C10_2 1_555 1_555
N2_2 C11_2 1_555 1_555
N3_2 C4_2 1_555 1_555
Ag2_2 N2_2 1_555 1_555
Ag3_2 N1_2 1_555 1_555
C10_2 N3_2 1_555 1_555
C11_2 N3_2 1_555 1_555
N1_2 N2_2 1_555 1_555
C1_2 C2_2 1_555 1_555
H2_2 C5_2 1_555 1_555
C6_2 C5_2 1_555 1_555
C7_2 C2_2 1_555 1_555
H3_2 C7_2 1_555 1_555
C14_2 C15_2 1_555 1_555
C15_2 C16_2 1_555 1_555
C16_2 H14_2 1_555 1_555
C17_2 C16_2 1_555 1_555
H15_2 C17_2 1_555 1_555
C18_2 C17_2 1_555 1_555
H16_2 C18_2 1_555 1_555
C19_2 C18_2 1_555 1_555
H17_2 C19_2 1_555 1_555
C20_2 C15_2 1_555 1_555
H18_2 C20_2 1_555 1_555
N4_2 C6_2 1_555 1_555
H19_2 N4_2 1_555 1_555
O2_2 C1_2 1_555 1_555
O3_2 C14_2 1_555 1_555
C6_2 C7_2 1_555 1_555
C14_2 N4_2 1_555 1_555
C19_2 C20_2 1_555 1_555
C8_3 H4_3 1_555 1_555
H5_3 C8_3 1_555 1_555
H6_3 C8_3 1_555 1_555
C9_3 C8_3 1_555 1_555
H7_3 C9_3 1_555 1_555
H8_3 C9_3 1_555 1_555
C10_3 C9_3 1_555 1_555
C14_3 C15_3 1_555 1_555
C15_3 C16_3 1_555 1_555
C16_3 H14_3 1_555 1_555
C20_3 C15_3 1_555 1_555
H18_3 C20_3 1_555 1_555
N1_3 C10_3 1_555 1_555
H19_3 N4_3 1_555 1_555
O3_3 C14_3 1_555 1_555
Ag3_3 N1_3 1_555 1_555
C14_3 N4_3 1_555 1_555
C19_3 C20_3 1_555 1_555
C1_3 C2_3 1_555 1_555
C2_3 C3_3 1_555 1_555
C3_3 H1_3 1_555 1_555
C4_3 C3_3 1_555 1_555
C5_3 C4_3 1_555 1_555
C6_3 C5_3 1_555 1_555
C7_3 C2_3 1_555 1_555
H3_3 C7_3 1_555 1_555
C11_3 C12_3 1_555 1_555
C12_3 H9_3 1_555 1_555
H10_3 C12_3 1_555 1_555
C13_3 C12_3 1_555 1_555
H11_3 C13_3 1_555 1_555
H12_3 C13_3 1_555 1_555
H13_3 C13_3 1_555 1_555
Ag2_2 O1_3 1_555 1_555
N2_3 C11_3 1_555 1_555
N3_3 C4_3 1_555 1_555
O1_3 C1_3 1_555 1_555
O2_3 C1_3 1_555 1_555
Ag2_3 N2_3 1_555 1_555
N5_3 Ag2_2 1_555 1_555
C6_3 C7_3 1_555 1_555
C11_3 N3_3 1_555 1_555
C1_4 C2_4 1_555 1_555
C2_4 C3_4 1_555 1_555
C3_4 H1_4 1_555 1_555
C4_4 C3_4 1_555 1_555
C5_4 C4_4 1_555 1_555
H2_4 C5_4 1_555 1_555
C6_4 C5_4 1_555 1_555
C7_4 C2_4 1_555 1_555
H3_4 C7_4 1_555 1_555
C8_4 H4_4 1_555 1_555
H5_4 C8_4 1_555 1_555
H6_4 C8_4 1_555 1_555
C9_4 C8_4 1_555 1_555
H7_4 C9_4 1_555 1_555
H8_4 C9_4 1_555 1_555
C10_4 C9_4 1_555 1_555
C11_4 C12_4 1_555 1_555
C12_4 H9_4 1_555 1_555
H10_4 C12_4 1_555 1_555
C13_4 C12_4 1_555 1_555
H11_4 C13_4 1_555 1_555
H12_4 C13_4 1_555 1_555
H13_4 C13_4 1_555 1_555
C14_4 C15_4 1_555 1_555
C15_4 C16_4 1_555 1_555
C16_4 H14_4 1_555 1_555
C17_3 C16_4 1_555 1_555
H15_3 C17_3 1_555 1_555
C18_3 C17_3 1_555 1_555
H16_3 C18_3 1_555 1_555
C19_4 C18_3 1_555 1_555
H17_3 C19_4 1_555 1_555
C20_4 C15_4 1_555 1_555
H18_4 C20_4 1_555 1_555
Ag2_3 O1_4 1_555 1_555
N1_4 C10_4 1_555 1_555
N6 C11_4 1_555 1_555
N3_4 C4_4 1_555 1_555
N4_4 C6_4 1_555 1_555
H19_4 N4_4 1_555 1_555
O1_4 C1_4 1_555 1_555
O2_4 C1_4 1_555 1_555
O3_4 C14_4 1_555 1_555
Ag3_4 N1_4 1_555 1_555
N5_4 Ag2_3 1_555 1_555
C6_4 C7_4 1_555 1_555
C10_4 N3_4 1_555 1_555
C11_4 N3_4 1_555 1_555
C14_4 N4_4 1_555 1_555
C19_4 C20_4 1_555 1_555
N1_4 N6 1_555 1_555
C1_5 C2_5 1_555 1_555
C2_5 C3_5 1_555 1_555
C3_5 H1_5 1_555 1_555
C4_5 C3_5 1_555 1_555
C5_5 C4_5 1_555 1_555
C6_5 C5_5 1_555 1_555
C7_5 C2_5 1_555 1_555
H3_5 C7_5 1_555 1_555
Ag1_2 O1_5 1_555 1_555
N2_4 C11_5 1_555 1_555
N3_5 C4_5 1_555 1_555
O1_5 C1_5 1_555 1_555
O2_5 C1_5 1_555 1_555
N5_5 Ag1_2 1_555 1_555
N6_2 Ag1_2 1_555 1_555
C6_5 C7_5 1_555 1_555
C11_5 N3_5 1_555 1_555
H10_5 C12_5 1_555 1_555
C13_5 C12_5 1_555 1_555
H11_5 C13_5 1_555 1_555
H12_5 C13_5 1_555 1_555
H13_5 C13_5 1_555 1_555
C8_5 H4_5 1_555 1_555
H5_5 C8_5 1_555 1_555
H6_5 C8_5 1_555 1_555
C9_5 C8_5 1_555 1_555
H7_5 C9_5 1_555 1_555
H8_5 C9_5 1_555 1_555
C10_5 C9_5 1_555 1_555
C14_5 C15_5 1_555 1_555
C15_5 C16_5 1_555 1_555
C16_5 H14_5 1_555 1_555
C20_5 C15_5 1_555 1_555
H18_5 C20_5 1_555 1_555
N1_5 C10_5 1_555 1_555
H19_5 N4_5 1_555 1_555
O3_5 C14_5 1_555 1_555
Ag3_5 N1_5 1_555 1_555
C14_5 N4_5 1_555 1_555
C19_5 C20_5 1_555 1_555
C1_6 C2_6 1_555 1_555
C2_6 C3_6 1_555 1_555
C3_6 H1_6 1_555 1_555
C4_6 C3_6 1_555 1_555
C5_6 C4_6 1_555 1_555
H2_6 C5_6 1_555 1_555
C6_6 C5_6 1_555 1_555
C7_6 C2_6 1_555 1_555
H3_6 C7_6 1_555 1_555
C8_6 H4_6 1_555 1_555
H5_6 C8_6 1_555 1_555
H6_6 C8_6 1_555 1_555
C9_6 C8_6 1_555 1_555
H7_6 C9_6 1_555 1_555
H8_6 C9_6 1_555 1_555
C10_6 C9_6 1_555 1_555
C11_6 C12_6 1_555 1_555
C12_6 H9_6 1_555 1_555
H10_6 C12_6 1_555 1_555
C13_6 C12_6 1_555 1_555
H11_6 C13_6 1_555 1_555
H12_6 C13_6 1_555 1_555
H13_6 C13_6 1_555 1_555
C14_6 C15_6 1_555 1_555
C15_6 C16_6 1_555 1_555
C16_6 H14_6 1_555 1_555
C17_4 C16_6 1_555 1_555
H15_4 C17_4 1_555 1_555
C18_4 C17_4 1_555 1_555
H16_4 C18_4 1_555 1_555
C19_6 C18_4 1_555 1_555
H17_4 C19_6 1_555 1_555
C20_6 C15_6 1_555 1_555
H18_6 C20_6 1_555 1_555
Ag2_4 O1_6 1_555 1_555
N1_6 C10_6 1_555 1_555
N2_5 C11_6 1_555 1_555
N3_6 C4_6 1_555 1_555
N4_6 C6_6 1_555 1_555
H19_6 N4_6 1_555 1_555
O1_6 C1_6 1_555 1_555
O2_6 C1_6 1_555 1_555
O3_6 C14_6 1_555 1_555
Ag2_5 N2_5 1_555 1_555
Ag3_6 N1_6 1_555 1_555
N5_6 Ag2_4 1_555 1_555
C6_6 C7_6 1_555 1_555
C10_6 N3_6 1_555 1_555
C11_6 N3_6 1_555 1_555
C14_6 N4_6 1_555 1_555
C19_6 C20_6 1_555 1_555
N1_6 N2_5 1_555 1_555
C1_7 C2_7 1_555 1_555
C2_7 C3_7 1_555 1_555
C3_7 H1_7 1_555 1_555
C4_7 C3_7 1_555 1_555
C5_7 C4_7 1_555 1_555
H2_7 C5_7 1_555 1_555
C6_7 C5_7 1_555 1_555
C7_7 C2_7 1_555 1_555
H3_7 C7_7 1_555 1_555
C8_7 H4_7 1_555 1_555
H5_7 C8_7 1_555 1_555
H6_7 C8_7 1_555 1_555
C9_7 C8_7 1_555 1_555
H7_7 C9_7 1_555 1_555
H8_7 C9_7 1_555 1_555
C10_7 C9_7 1_555 1_555
C14_7 C15_7 1_555 1_555
C15_7 C16_7 1_555 1_555
C16_7 H14_7 1_555 1_555
C17_5 C16_7 1_555 1_555
H15_5 C17_5 1_555 1_555
C18_5 C17_5 1_555 1_555
H16_5 C18_5 1_555 1_555
C19_7 C18_5 1_555 1_555
H17_5 C19_7 1_555 1_555
C20_7 C15_7 1_555 1_555
H18_7 C20_7 1_555 1_555
Ag2_5 O1_7 1_555 1_555
N1_7 C10_7 1_555 1_555
N2_6 C11_7 1_555 1_555
N3_7 C4_7 1_555 1_555
N4_7 C6_7 1_555 1_555
H19_7 N4_7 1_555 1_555
O1_7 C1_7 1_555 1_555
O2_7 C1_7 1_555 1_555
O3_7 C14_7 1_555 1_555
N5_7 Ag2_5 1_555 1_555
C6_7 C7_7 1_555 1_555
C10_7 N3_7 1_555 1_555
C11_7 N3_7 1_555 1_555
C14_7 N4_7 1_555 1_555
C19_7 C20_7 1_555 1_555
N1_7 N2_6 1_555 1_555
C3_8 H1_8 1_555 1_555
C4_8 C3_8 1_555 1_555
C8_8 H4_8 1_555 1_555
H5_8 C8_8 1_555 1_555
H6_8 C8_8 1_555 1_555
C9_8 C8_8 1_555 1_555
H7_8 C9_8 1_555 1_555
H8_8 C9_8 1_555 1_555
C10_8 C9_8 1_555 1_555
C11_8 C12_7 1_555 1_555
C12_7 H9_8 1_555 1_555
H10_7 C12_7 1_555 1_555
C13_7 C12_7 1_555 1_555
H11_7 C13_7 1_555 1_555
H12_7 C13_7 1_555 1_555
H13_7 C13_7 1_555 1_555
N1_8 C10_8 1_555 1_555
N6_2 C11_8 1_555 1_555
N3_8 C4_8 1_555 1_555
Ag3_7 N1_8 1_555 1_555
C10_8 N3_8 1_555 1_555
C11_8 N3_8 1_555 1_555
N1_8 N6_2 1_555 1_555
C1_8 C2_8 1_555 1_555
C2_8 C3_9 1_555 1_555
C3_9 H1_9 1_555 1_555
C4_9 C3_9 1_555 1_555
C5_8 C4_9 1_555 1_555
H2_8 C5_8 1_555 1_555
C6_8 C5_8 1_555 1_555
C7_8 C2_8 1_555 1_555
H3_8 C7_8 1_555 1_555
C8_9 H4_9 1_555 1_555
H5_9 C8_9 1_555 1_555
H6_9 C8_9 1_555 1_555
C9_9 C8_9 1_555 1_555
H7_9 C9_9 1_555 1_555
H8_9 C9_9 1_555 1_555
C10_9 C9_9 1_555 1_555
C11_9 C12_8 1_555 1_555
C12_8 H9_9 1_555 1_555
H10_8 C12_8 1_555 1_555
C13_8 C12_8 1_555 1_555
H11_8 C13_8 1_555 1_555
H12_8 C13_8 1_555 1_555
H13_8 C13_8 1_555 1_555
C14_8 C15_8 1_555 1_555
C15_8 C16_8 1_555 1_555
C16_8 H14_8 1_555 1_555
C17_6 C16_8 1_555 1_555
H15_6 C17_6 1_555 1_555
C18_6 C17_6 1_555 1_555
H16_6 C18_6 1_555 1_555
C19_8 C18_6 1_555 1_555
H17_6 C19_8 1_555 1_555
C20_8 C15_8 1_555 1_555
H18_8 C20_8 1_555 1_555
Ag3_7 O1_9 1_555 1_555
N5_2 C10_9 1_555 1_555
N2_7 C11_9 1_555 1_555
N3_9 C4_9 1_555 1_555
N4_8 C6_8 1_555 1_555
H19_8 N4_8 1_555 1_555
O1_9 C1_8 1_555 1_555
O2_8 C1_8 1_555 1_555
O3_8 C14_8 1_555 1_555
Ag3 N2_7 1_555 1_555
N6_3 Ag3_7 1_555 1_555
C6_8 C7_8 1_555 1_555
C10_9 N3_9 1_555 1_555
C11_9 N3_9 1_555 1_555
C14_8 N4_8 1_555 1_555
C19_8 C20_8 1_555 1_555
N5_2 N2_7 1_555 1_555
C1_9 C2_9 1_555 1_555
H2_9 C5_9 1_555 1_555
C6_9 C5_9 1_555 1_555
C7_9 C2_9 1_555 1_555
H3_9 C7_9 1_555 1_555
C14_9 C15_9 1_555 1_555
C15_9 C16_9 1_555 1_555
C16_9 H14_9 1_555 1_555
C17_7 C16_9 1_555 1_555
H15_7 C17_7 1_555 1_555
C18_7 C17_7 1_555 1_555
H16_7 C18_7 1_555 1_555
C19_9 C18_7 1_555 1_555
H17_7 C19_9 1_555 1_555
C20_9 C15_9 1_555 1_555
H18_9 C20_9 1_555 1_555
N4_9 C6_9 1_555 1_555
H19_9 N4_9 1_555 1_555
O2_9 C1_9 1_555 1_555
O3_9 C14_9 1_555 1_555
C6_9 C7_9 1_555 1_555
C14_9 N4_9 1_555 1_555
C19_9 C20_9 1_555 1_555
C3_10 H1_10 1_555 1_555
C4_10 C3_10 1_555 1_555
C8_10 H4_10 1_555 1_555
H5_10 C8_10 1_555 1_555
H6_10 C8_10 1_555 1_555
C9_10 C8_10 1_555 1_555
H7_10 C9_10 1_555 1_555
H8_10 C9_10 1_555 1_555
C10_10 C9_10 1_555 1_555
C11_10 C12_9 1_555 1_555
C12_9 H9_10 1_555 1_555
H10_9 C12_9 1_555 1_555
C13_9 C12_9 1_555 1_555
H11_9 C13_9 1_555 1_555
H12_9 C13_9 1_555 1_555
H13_9 C13_9 1_555 1_555
N5_7 C10_10 1_555 1_555
N2_8 C11_10 1_555 1_555
N3_10 C4_10 1_555 1_555
Ag3_6 N2_8 1_555 1_555
C10_10 N3_10 1_555 1_555
C11_10 N3_10 1_555 1_555
N5_7 N2_8 1_555 1_555
C1_10 C2_10 1_555 1_555
C2_10 C3_11 1_555 1_555
C3_11 H1_11 1_555 1_555
C4_11 C3_11 1_555 1_555
C5_10 C4_11 1_555 1_555
C6_10 C5_10 1_555 1_555
C7_10 C2_10 1_555 1_555
H3_10 C7_10 1_555 1_555
C11_11 C12_10 1_555 1_555
C12_10 H9_11 1_555 1_555
H10_10 C12_10 1_555 1_555
C13_10 C12_10 1_555 1_555
H11_10 C13_10 1_555 1_555
H12_10 C13_10 1_555 1_555
H13_10 C13_10 1_555 1_555
Ag3_6 O1_11 1_555 1_555
N2_9 C11_11 1_555 1_555
N3_11 C4_11 1_555 1_555
O1_11 C1_10 1_555 1_555
O2_10 C1_10 1_555 1_555
Ag3_3 N2_9 1_555 1_555
C6_10 C7_10 1_555 1_555
C11_11 N3_11 1_555 1_555
C8_11 H4_11 1_555 1_555
H5_11 C8_11 1_555 1_555
H6_11 C8_11 1_555 1_555
C9_11 C8_11 1_555 1_555
H7_11 C9_11 1_555 1_555
H8_11 C9_11 1_555 1_555
C10_11 C9_11 1_555 1_555
C14_10 C15_10 1_555 1_555
C15_10 C16_10 1_555 1_555
C16_10 H14_10 1_555 1_555
C20_10 C15_10 1_555 1_555
H18_10 C20_10 1_555 1_555
N5_4 C10_11 1_555 1_555
H19_10 N4_10 1_555 1_555
O3_10 C14_10 1_555 1_555
C14_10 N4_10 1_555 1_555
C19_10 C20_10 1_555 1_555
C1_11 C2_11 1_555 1_555
C2_11 C3_12 1_555 1_555
C3_12 H1_12 1_555 1_555
C4_12 C3_12 1_555 1_555
C5_11 C4_12 1_555 1_555
H2_11 C5_11 1_555 1_555
C6_11 C5_11 1_555 1_555
C7_11 C2_11 1_555 1_555
H3_11 C7_11 1_555 1_555
C8_12 H4_12 1_555 1_555
H5_12 C8_12 1_555 1_555
H6_12 C8_12 1_555 1_555
C9_12 C8_12 1_555 1_555
H7_12 C9_12 1_555 1_555
H8_12 C9_12 1_555 1_555
C10_12 C9_12 1_555 1_555
C11_12 C12_11 1_555 1_555
C12_11 H9_12 1_555 1_555
H10_11 C12_11 1_555 1_555
C13_11 C12_11 1_555 1_555
H11_11 C13_11 1_555 1_555
H12_11 C13_11 1_555 1_555
H13_11 C13_11 1_555 1_555
C14_11 C15_11 1_555 1_555
C15_11 C16_11 1_555 1_555
C16_11 H14_11 1_555 1_555
C17_8 C16_11 1_555 1_555
H15_8 C17_8 1_555 1_555
C18_8 C17_8 1_555 1_555
H16_8 C18_8 1_555 1_555
C19_11 C18_8 1_555 1_555
H17_8 C19_11 1_555 1_555
C20_11 C15_11 1_555 1_555
H18_11 C20_11 1_555 1_555
Ag3_3 O1_12 1_555 1_555
N5_5 C10_12 1_555 1_555
N6_3 C11_12 1_555 1_555
N3_12 C4_12 1_555 1_555
N4_11 C6_11 1_555 1_555
H19_11 N4_11 1_555 1_555
O1_12 C1_11 1_555 1_555
O2_11 C1_11 1_555 1_555
O3_11 C14_11 1_555 1_555
C6_11 C7_11 1_555 1_555
C10_12 N3_12 1_555 1_555
C11_12 N3_12 1_555 1_555
C14_11 N4_11 1_555 1_555
C19_11 C20_11 1_555 1_555
N5_5 N6_3 1_555 1_555
C8_13 H4_13 1_555 1_555
H5_13 C8_13 1_555 1_555
H6_13 C8_13 1_555 1_555
C9_13 C8_13 1_555 1_555
H7_13 C9_13 1_555 1_555
H8_13 C9_13 1_555 1_555
C10_13 C9_13 1_555 1_555
C14_12 C15_12 1_555 1_555
C15_12 C16_12 1_555 1_555
C16_12 H14_12 1_555 1_555
C20_12 C15_12 1_555 1_555
H18_12 C20_12 1_555 1_555
N5_6 C10_13 1_555 1_555
H19_12 N4_12 1_555 1_555
O3_12 C14_12 1_555 1_555
C14_12 N4_12 1_555 1_555
C19_12 C20_12 1_555 1_555
H10_12 C12_12 1_555 1_555
C13_12 C12_12 1_555 1_555
H11_12 C13_12 1_555 1_555
H12_12 C13_12 1_555 1_555
H13_12 C13_12 1_555 1_555
C1_12 C2_12 1_555 1_555
C2_12 C3_13 1_555 1_555
C3_13 H1_13 1_555 1_555
C4_13 C3_13 1_555 1_555
C5_12 C4_13 1_555 1_555
C6_12 C5_12 1_555 1_555
C7_12 C2_12 1_555 1_555
H3_12 C7_12 1_555 1_555
Ag3_4 O1_13 1_555 1_555
N2_10 C11_13 1_555 1_555
N3_13 C4_13 1_555 1_555
O1_13 C1_12 1_555 1_555
O2_12 C1_12 1_555 1_555
N6_4 Ag3_4 1_555 1_555
C6_12 C7_12 1_555 1_555
C11_13 N3_13 1_555 1_555
C1_13 C2_13 1_555 1_555
C2_13 C3_14 1_555 1_555
C3_14 H1_14 1_555 1_555
C4_14 C3_14 1_555 1_555
C5_13 C4_14 1_555 1_555
H2_13 C5_13 1_555 1_555
C6_13 C5_13 1_555 1_555
C7_13 C2_13 1_555 1_555
H3_13 C7_13 1_555 1_555
C8_14 H4_14 1_555 1_555
H5_14 C8_14 1_555 1_555
H6_14 C8_14 1_555 1_555
C9_14 C8_14 1_555 1_555
H7_14 C9_14 1_555 1_555
H8_14 C9_14 1_555 1_555
C10_14 C9_14 1_555 1_555
C11_14 C12_13 1_555 1_555
C12_13 H9_14 1_555 1_555
H10_13 C12_13 1_555 1_555
C13_13 C12_13 1_555 1_555
H11_13 C13_13 1_555 1_555
H12_13 C13_13 1_555 1_555
H13_13 C13_13 1_555 1_555
C14_13 C15_13 1_555 1_555
C15_13 C16_13 1_555 1_555
C16_13 H14_13 1_555 1_555
C17_9 C16_13 1_555 1_555
H15_9 C17_9 1_555 1_555
C18_9 C17_9 1_555 1_555
H16_9 C18_9 1_555 1_555
C19_13 C18_9 1_555 1_555
H17_9 C19_13 1_555 1_555
C20_13 C15_13 1_555 1_555
H18_13 C20_13 1_555 1_555
Ag3_5 O1_14 1_555 1_555
N5_3 C10_14 1_555 1_555
N2_11 C11_14 1_555 1_555
N3_14 C4_14 1_555 1_555
N4_13 C6_13 1_555 1_555
H19_13 N4_13 1_555 1_555
O1_14 C1_13 1_555 1_555
O2_13 C1_13 1_555 1_555
O3_13 C14_13 1_555 1_555
Ag3_2 N2_11 1_555 1_555
C6_13 C7_13 1_555 1_555
C10_14 N3_14 1_555 1_555
C11_14 N3_14 1_555 1_555
C14_13 N4_13 1_555 1_555
C19_13 C20_13 1_555 1_555
N5_3 N2_11 1_555 1_555
C1_14 C2_14 1_555 1_555
C2_14 C3_15 1_555 1_555
C3_15 H1_15 1_555 1_555
C4_15 C3_15 1_555 1_555
C5_14 C4_15 1_555 1_555
H2_14 C5_14 1_555 1_555
C6_14 C5_14 1_555 1_555
C7_14 C2_14 1_555 1_555
H3_14 C7_14 1_555 1_555
C8_15 H4_15 1_555 1_555
H5_15 C8_15 1_555 1_555
H6_15 C8_15 1_555 1_555
C9_15 C8_15 1_555 1_555
H7_15 C9_15 1_555 1_555
H8_15 C9_15 1_555 1_555
C10_15 C9_15 1_555 1_555
C14_14 C15_14 1_555 1_555
C15_14 C16_14 1_555 1_555
C16_14 H14_14 1_555 1_555
C17_10 C16_14 1_555 1_555
H15_10 C17_10 1_555 1_555
C18_10 C17_10 1_555 1_555
H16_10 C18_10 1_555 1_555
C19_14 C18_10 1_555 1_555
H17_10 C19_14 1_555 1_555
C20_14 C15_14 1_555 1_555
H18_14 C20_14 1_555 1_555
Ag3_2 O1_15 1_555 1_555
N5_8 C10_15 1_555 1_555
N2_12 C11_15 1_555 1_555
N3_15 C4_15 1_555 1_555
N4_14 C6_14 1_555 1_555
H19_14 N4_14 1_555 1_555
O1_15 C1_14 1_555 1_555
O2_14 C1_14 1_555 1_555
O3_14 C14_14 1_555 1_555
C6_14 C7_14 1_555 1_555
C10_15 N3_15 1_555 1_555
C11_15 N3_15 1_555 1_555
C14_14 N4_14 1_555 1_555
C19_14 C20_14 1_555 1_555
N5_8 N2_12 1_555 1_555
C3_16 H1_16 1_555 1_555
C4_16 C3_16 1_555 1_555
C8_16 H4_16 1_555 1_555
H5_16 C8_16 1_555 1_555
H6_16 C8_16 1_555 1_555
C9_16 C8_16 1_555 1_555
H7_16 C9_16 1_555 1_555
H8_16 C9_16 1_555 1_555
C10_16 C9_16 1_555 1_555
C11_16 C12_14 1_555 1_555
C12_14 H9_16 1_555 1_555
H10_14 C12_14 1_555 1_555
C13_14 C12_14 1_555 1_555
H11_14 C13_14 1_555 1_555
H12_14 C13_14 1_555 1_555
H13_14 C13_14 1_555 1_555
N5 C10_16 1_555 1_555
N6_4 C11_16 1_555 1_555
N3_16 C4_16 1_555 1_555
C10_16 N3_16 1_555 1_555
C11_16 N3_16 1_555 1_555
N5 N6_4 1_555 1_555
H15_11 C17_11 1_555 1_555
C18_11 C17_11 1_555 1_555
H16_11 C18_11 1_555 1_555
H15_12 C17_12 1_555 1_555
C18_12 C17_12 1_555 1_555
H16_12 C18_12 1_555 1_555
C1_15 C2_15 1_555 1_555
C2_15 C3_17 1_555 1_555
C3_17 H1_17 1_555 1_555
C4_17 C3_17 1_555 1_555
C5_15 C4_17 1_555 1_555
H2_15 C5_15 1_555 1_555
C6_15 C5_15 1_555 1_555
C7_15 C2_15 1_555 1_555
H3_15 C7_15 1_555 1_555
C8_17 H4_17 1_555 1_555
H5_17 C8_17 1_555 1_555
H6_17 C8_17 1_555 1_555
C9_17 C8_17 1_555 1_555
H7_17 C9_17 1_555 1_555
H8_17 C9_17 1_555 1_555
C10_17 C9_17 1_555 1_555
C11_17 C12_15 1_555 1_555
C12_15 H9_17 1_555 1_555
H10_15 C12_15 1_555 1_555
C13_15 C12_15 1_555 1_555
H11_15 C13_15 1_555 1_555
H12_15 C13_15 1_555 1_555
H13_15 C13_15 1_555 1_555
C14_15 C15_15 1_555 1_555
C15_15 C16_15 1_555 1_555
C16_15 H14_15 1_555 1_555
C20_15 C15_15 1_555 1_555
H18_15 C20_15 1_555 1_555
Ag1_3 O1_17 1_555 1_555
N1_9 C10_17 1_555 1_555
N2_13 C11_17 1_555 1_555
N3_17 C4_17 1_555 1_555
N4_15 C6_15 1_555 1_555
H19_15 N4_15 1_555 1_555
O1_17 C1_15 1_555 1_555
O2_15 C1_15 1_555 1_555
O3_15 C14_15 1_555 1_555
Ag2_6 N2_13 1_555 1_555
Ag3_8 N1_9 1_555 1_555
N5_9 Ag1_3 1_555 1_555
N6_5 Ag1_3 1_555 1_555
C6_15 C7_15 1_555 1_555
C10_17 N3_17 1_555 1_555
C11_17 N3_17 1_555 1_555
C14_15 N4_15 1_555 1_555
C19_15 C20_15 1_555 1_555
N1_9 N2_13 1_555 1_555
C1_16 C2_16 1_555 1_555
H2_16 C5_16 1_555 1_555
C6_16 C5_16 1_555 1_555
C7_16 C2_16 1_555 1_555
H3_16 C7_16 1_555 1_555
C14_16 C15_16 1_555 1_555
C15_16 C16_16 1_555 1_555
C16_16 H14_16 1_555 1_555
C17_13 C16_16 1_555 1_555
H15_13 C17_13 1_555 1_555
C18_13 C17_13 1_555 1_555
H16_13 C18_13 1_555 1_555
C19_16 C18_13 1_555 1_555
H17_13 C19_16 1_555 1_555
C20_16 C15_16 1_555 1_555
H18_16 C20_16 1_555 1_555
N4_16 C6_16 1_555 1_555
H19_16 N4_16 1_555 1_555
O2_16 C1_16 1_555 1_555
O3_16 C14_16 1_555 1_555
N6_6 Ag1_4 1_555 1_555
C6_16 C7_16 1_555 1_555
C14_16 N4_16 1_555 1_555
C19_16 C20_16 1_555 1_555
C3_18 H1_18 1_555 1_555
C4_18 C3_18 1_555 1_555
C8_18 H4_18 1_555 1_555
H5_18 C8_18 1_555 1_555
H6_18 C8_18 1_555 1_555
C9_18 C8_18 1_555 1_555
H7_18 C9_18 1_555 1_555
H8_18 C9_18 1_555 1_555
C10_18 C9_18 1_555 1_555
C11_18 C12_16 1_555 1_555
C12_16 H9_18 1_555 1_555
H10_16 C12_16 1_555 1_555
C13_16 C12_16 1_555 1_555
H11_16 C13_16 1_555 1_555
H12_16 C13_16 1_555 1_555
H13_16 C13_16 1_555 1_555
N1_10 C10_18 1_555 1_555
N6_5 C11_18 1_555 1_555
N3_18 C4_18 1_555 1_555
Ag3_9 N1_10 1_555 1_555
C10_18 N3_18 1_555 1_555
C11_18 N3_18 1_555 1_555
N1_10 N6_5 1_555 1_555
C8_19 H4_19 1_555 1_555
H5_19 C8_19 1_555 1_555
H6_19 C8_19 1_555 1_555
C9_19 C8_19 1_555 1_555
H7_19 C9_19 1_555 1_555
H8_19 C9_19 1_555 1_555
C10_19 C9_19 1_555 1_555
C14_17 C15_17 1_555 1_555
C15_17 C16_17 1_555 1_555
C16_17 H14_17 1_555 1_555
C17_14 C16_17 1_555 1_555
H15_14 C17_14 1_555 1_555
C18_14 C17_14 1_555 1_555
H16_14 C18_14 1_555 1_555
C19_17 C18_14 1_555 1_555
H17_14 C19_17 1_555 1_555
C20_17 C15_17 1_555 1_555
H18_17 C20_17 1_555 1_555
N1_11 C10_19 1_555 1_555
H19_17 N4_17 1_555 1_555
O3_17 C14_17 1_555 1_555
C14_17 N4_17 1_555 1_555
C19_17 C20_17 1_555 1_555
C1_17 C2_17 1_555 1_555
C2_17 C3_19 1_555 1_555
C3_19 H1_19 1_555 1_555
C4_19 C3_19 1_555 1_555
C5_17 C4_19 1_555 1_555
C6_17 C5_17 1_555 1_555
C7_17 C2_17 1_555 1_555
H3_17 C7_17 1_555 1_555
C11_19 C12_17 1_555 1_555
C12_17 H9_19 1_555 1_555
H10_17 C12_17 1_555 1_555
C13_17 C12_17 1_555 1_555
H11_17 C13_17 1_555 1_555
H12_17 C13_17 1_555 1_555
H13_17 C13_17 1_555 1_555
Ag1_5 O1_19 1_555 1_555
N6_6 C11_19 1_555 1_555
N3_19 C4_19 1_555 1_555
O1_19 C1_17 1_555 1_555
O2_17 C1_17 1_555 1_555
N5_11 Ag1_5 1_555 1_555
N6_7 Ag1_5 1_555 1_555
C6_17 C7_17 1_555 1_555
C11_19 N3_19 1_555 1_555
C1_18 C2_18 1_555 1_555
C2_18 C3_20 1_555 1_555
C3_20 H1_20 1_555 1_555
C4_20 C3_20 1_555 1_555
C5_18 C4_20 1_555 1_555
H2_18 C5_18 1_555 1_555
C6_18 C5_18 1_555 1_555
C7_18 C2_18 1_555 1_555
H3_18 C7_18 1_555 1_555
C8_20 H4_20 1_555 1_555
H5_20 C8_20 1_555 1_555
H6_20 C8_20 1_555 1_555
C9_20 C8_20 1_555 1_555
H7_20 C9_20 1_555 1_555
H8_20 C9_20 1_555 1_555
C10_20 C9_20 1_555 1_555
C11_20 C12_18 1_555 1_555
C12_18 H9_20 1_555 1_555
H10_18 C12_18 1_555 1_555
C13_18 C12_18 1_555 1_555
H11_18 C13_18 1_555 1_555
H12_18 C13_18 1_555 1_555
H13_18 C13_18 1_555 1_555
C14_18 C15_18 1_555 1_555
C15_18 C16_18 1_555 1_555
C16_18 H14_18 1_555 1_555
C17_15 C16_18 1_555 1_555
H15_15 C17_15 1_555 1_555
C18_15 C17_15 1_555 1_555
H16_15 C18_15 1_555 1_555
C19_18 C18_15 1_555 1_555
H17_15 C19_18 1_555 1_555
C20_18 C15_18 1_555 1_555
H18_18 C20_18 1_555 1_555
Ag2_6 O1_20 1_555 1_555
N1_12 C10_20 1_555 1_555
N6_7 C11_20 1_555 1_555
N3_20 C4_20 1_555 1_555
N4_18 C6_18 1_555 1_555
H19_18 N4_18 1_555 1_555
O1_20 C1_18 1_555 1_555
O2_18 C1_18 1_555 1_555
O3_18 C14_18 1_555 1_555
Ag3_11 N1_12 1_555 1_555
N5_12 Ag2_6 1_555 1_555
C6_18 C7_18 1_555 1_555
C10_20 N3_20 1_555 1_555
C11_20 N3_20 1_555 1_555
C14_18 N4_18 1_555 1_555
C19_18 C20_18 1_555 1_555
N1_12 N6_7 1_555 1_555
C1_19 C2_19 1_555 1_555
C2_19 C3_21 1_555 1_555
C3_21 H1_21 1_555 1_555
C4_21 C3_21 1_555 1_555
C5_19 C4_21 1_555 1_555
C6_19 C5_19 1_555 1_555
C7_19 C2_19 1_555 1_555
H3_19 C7_19 1_555 1_555
Ag1_6 O1_21 1_555 1_555
N2_14 C11_21 1_555 1_555
N3_21 C4_21 1_555 1_555
O1_21 C1_19 1_555 1_555
O2_19 C1_19 1_555 1_555
N5_13 Ag1_6 1_555 1_555
N6_8 Ag1_6 1_555 1_555
C6_19 C7_19 1_555 1_555
C11_21 N3_21 1_555 1_555
C8_21 H4_21 1_555 1_555
H5_21 C8_21 1_555 1_555
H6_21 C8_21 1_555 1_555
C9_21 C8_21 1_555 1_555
H7_21 C9_21 1_555 1_555
H8_21 C9_21 1_555 1_555
C10_21 C9_21 1_555 1_555
C14_19 C15_19 1_555 1_555
C15_19 C16_19 1_555 1_555
C16_19 H14_19 1_555 1_555
C17_16 C16_19 1_555 1_555
H15_16 C17_16 1_555 1_555
C18_16 C17_16 1_555 1_555
H16_16 C18_16 1_555 1_555
C19_19 C18_16 1_555 1_555
H17_16 C19_19 1_555 1_555
C20_19 C15_19 1_555 1_555
H18_19 C20_19 1_555 1_555
N1_13 C10_21 1_555 1_555
H19_19 N4_19 1_555 1_555
O3_19 C14_19 1_555 1_555
C14_19 N4_19 1_555 1_555
C19_19 C20_19 1_555 1_555
C1_20 C2_20 1_555 1_555
C2_20 C3_22 1_555 1_555
C3_22 H1_22 1_555 1_555
C4_22 C3_22 1_555 1_555
C5_20 C4_22 1_555 1_555
H2_20 C5_20 1_555 1_555
C6_20 C5_20 1_555 1_555
C7_20 C2_20 1_555 1_555
H3_20 C7_20 1_555 1_555
C8_22 H4_22 1_555 1_555
H5_22 C8_22 1_555 1_555
H6_22 C8_22 1_555 1_555
C9_22 C8_22 1_555 1_555
H7_22 C9_22 1_555 1_555
H8_22 C9_22 1_555 1_555
C10_22 C9_22 1_555 1_555
C11_22 C12_19 1_555 1_555
C12_19 H9_22 1_555 1_555
H10_19 C12_19 1_555 1_555
C13_19 C12_19 1_555 1_555
H11_19 C13_19 1_555 1_555
H12_19 C13_19 1_555 1_555
H13_19 C13_19 1_555 1_555
C14_20 C15_20 1_555 1_555
C15_20 C16_20 1_555 1_555
C16_20 H14_20 1_555 1_555
C17_17 C16_20 1_555 1_555
H15_17 C17_17 1_555 1_555
C18_17 C17_17 1_555 1_555
H16_17 C18_17 1_555 1_555
C19_20 C18_17 1_555 1_555
H17_17 C19_20 1_555 1_555
C20_20 C15_20 1_555 1_555
H18_20 C20_20 1_555 1_555
Ag1_7 O1_22 1_555 1_555
N1_14 C10_22 1_555 1_555
N6_8 C11_22 1_555 1_555
N3_22 C4_22 1_555 1_555
N4_20 C6_20 1_555 1_555
H19_20 N4_20 1_555 1_555
O1_22 C1_20 1_555 1_555
O2_20 C1_20 1_555 1_555
O3_20 C14_20 1_555 1_555
Ag3_12 N1_14 1_555 1_555
N5_14 Ag1_7 1_555 1_555
C6_20 C7_20 1_555 1_555
C10_22 N3_22 1_555 1_555
C11_22 N3_22 1_555 1_555
C14_20 N4_20 1_555 1_555
C19_20 C20_20 1_555 1_555
N1_14 N6_8 1_555 1_555
C1_21 C2_21 1_555 1_555
C2_21 C3_23 1_555 1_555
C3_23 H1_23 1_555 1_555
C4_23 C3_23 1_555 1_555
C5_21 C4_23 1_555 1_555
H2_21 C5_21 1_555 1_555
C6_21 C5_21 1_555 1_555
C7_21 C2_21 1_555 1_555
H3_21 C7_21 1_555 1_555
C8_23 H4_23 1_555 1_555
H5_23 C8_23 1_555 1_555
H6_23 C8_23 1_555 1_555
C9_23 C8_23 1_555 1_555
H7_23 C9_23 1_555 1_555
H8_23 C9_23 1_555 1_555
C10_23 C9_23 1_555 1_555
C14_21 C15_21 1_555 1_555
C15_21 C16_21 1_555 1_555
C16_21 H14_21 1_555 1_555
C20_21 C15_21 1_555 1_555
H18_21 C20_21 1_555 1_555
Ag1_8 O1_23 1_555 1_555
N1_15 C10_23 1_555 1_555
N6_9 C11_23 1_555 1_555
N3_23 C4_23 1_555 1_555
N4_21 C6_21 1_555 1_555
H19_21 N4_21 1_555 1_555
O1_23 C1_21 1_555 1_555
O2_21 C1_21 1_555 1_555
O3_21 C14_21 1_555 1_555
Ag3_13 N1_15 1_555 1_555
N5_15 Ag1_8 1_555 1_555
N6_10 Ag1_8 1_555 1_555
C6_21 C7_21 1_555 1_555
C10_23 N3_23 1_555 1_555
C11_23 N3_23 1_555 1_555
C14_21 N4_21 1_555 1_555
C19_21 C20_21 1_555 1_555
N1_15 N6_9 1_555 1_555
H10_20 C12_20 1_555 1_555
C13_20 C12_20 1_555 1_555
H11_20 C13_20 1_555 1_555
H12_20 C13_20 1_555 1_555
H13_20 C13_20 1_555 1_555
C3_24 H1_24 1_555 1_555
C4_24 C3_24 1_555 1_555
C8_24 H4_24 1_555 1_555
H5_24 C8_24 1_555 1_555
H6_24 C8_24 1_555 1_555
C9_24 C8_24 1_555 1_555
H7_24 C9_24 1_555 1_555
H8_24 C9_24 1_555 1_555
C10_24 C9_24 1_555 1_555
C11_24 C12_21 1_555 1_555
C12_21 H9_24 1_555 1_555
H10_21 C12_21 1_555 1_555
C13_21 C12_21 1_555 1_555
H11_21 C13_21 1_555 1_555
H12_21 C13_21 1_555 1_555
H13_21 C13_21 1_555 1_555
N1_16 C10_24 1_555 1_555
N6_10 C11_24 1_555 1_555
N3_24 C4_24 1_555 1_555
Ag3_14 N1_16 1_555 1_555
C10_24 N3_24 1_555 1_555
C11_24 N3_24 1_555 1_555
N1_16 N6_10 1_555 1_555
C1_22 C2_22 1_555 1_555
C2_22 C3_25 1_555 1_555
C3_25 H1_25 1_555 1_555
C4_25 C3_25 1_555 1_555
C5_22 C4_25 1_555 1_555
H2_22 C5_22 1_555 1_555
C6_22 C5_22 1_555 1_555
C7_22 C2_22 1_555 1_555
H3_22 C7_22 1_555 1_555
C8_25 H4_25 1_555 1_555
H5_25 C8_25 1_555 1_555
H6_25 C8_25 1_555 1_555
C9_25 C8_25 1_555 1_555
H7_25 C9_25 1_555 1_555
H8_25 C9_25 1_555 1_555
C10_25 C9_25 1_555 1_555
C11_25 C12_22 1_555 1_555
C12_22 H9_25 1_555 1_555
H10_22 C12_22 1_555 1_555
C13_22 C12_22 1_555 1_555
H11_22 C13_22 1_555 1_555
H12_22 C13_22 1_555 1_555
H13_22 C13_22 1_555 1_555
C14_22 C15_22 1_555 1_555
C15_22 C16_22 1_555 1_555
C16_22 H14_22 1_555 1_555
C20_22 C15_22 1_555 1_555
H18_22 C20_22 1_555 1_555
Ag3_12 O1_25 1_555 1_555
N5_12 C10_25 1_555 1_555
N2_15 C11_25 1_555 1_555
N3_25 C4_25 1_555 1_555
N4_22 C6_22 1_555 1_555
H19_22 N4_22 1_555 1_555
O1_25 C1_22 1_555 1_555
O2_22 C1_22 1_555 1_555
O3_22 C14_22 1_555 1_555
Ag3_8 N2_15 1_555 1_555
N6_11 Ag3_12 1_555 1_555
C6_22 C7_22 1_555 1_555
C10_25 N3_25 1_555 1_555
C11_25 N3_25 1_555 1_555
C14_22 N4_22 1_555 1_555
C19_22 C20_22 1_555 1_555
N5_12 N2_15 1_555 1_555
C3_26 H1_26 1_555 1_555
C4_26 C3_26 1_555 1_555
C8_26 H4_26 1_555 1_555
H5_26 C8_26 1_555 1_555
H6_26 C8_26 1_555 1_555
C9_26 C8_26 1_555 1_555
H7_26 C9_26 1_555 1_555
H8_26 C9_26 1_555 1_555
C10_26 C9_26 1_555 1_555
C11_26 C12_23 1_555 1_555
C12_23 H9_26 1_555 1_555
H10_23 C12_23 1_555 1_555
C13_23 C12_23 1_555 1_555
H11_23 C13_23 1_555 1_555
H12_23 C13_23 1_555 1_555
H13_23 C13_23 1_555 1_555
N5_13 C10_26 1_555 1_555
N6_11 C11_26 1_555 1_555
N3_26 C4_26 1_555 1_555
C10_26 N3_26 1_555 1_555
C11_26 N3_26 1_555 1_555
N5_13 N6_11 1_555 1_555
C1_23 C2_23 1_555 1_555
H2_23 C5_23 1_555 1_555
C6_23 C5_23 1_555 1_555
C7_23 C2_23 1_555 1_555
H3_23 C7_23 1_555 1_555
C14_23 C15_23 1_555 1_555
C15_23 C16_23 1_555 1_555
C16_23 H14_23 1_555 1_555
C17_18 C16_23 1_555 1_555
H15_18 C17_18 1_555 1_555
C18_18 C17_18 1_555 1_555
H16_18 C18_18 1_555 1_555
C19_23 C18_18 1_555 1_555
H17_18 C19_23 1_555 1_555
C20_23 C15_23 1_555 1_555
H18_23 C20_23 1_555 1_555
N4_23 C6_23 1_555 1_555
H19_23 N4_23 1_555 1_555
O2_23 C1_23 1_555 1_555
O3_23 C14_23 1_555 1_555
N6_12 Ag3_10 1_555 1_555
C6_23 C7_23 1_555 1_555
C14_23 N4_23 1_555 1_555
C19_23 C20_23 1_555 1_555
C1_24 C2_24 1_555 1_555
C2_24 C3_27 1_555 1_555
C3_27 H1_27 1_555 1_555
C4_27 C3_27 1_555 1_555
C5_24 C4_27 1_555 1_555
C6_24 C5_24 1_555 1_555
C7_24 C2_24 1_555 1_555
H3_24 C7_24 1_555 1_555
C11_27 C12_24 1_555 1_555
C12_24 H9_27 1_555 1_555
H10_24 C12_24 1_555 1_555
C13_24 C12_24 1_555 1_555
H11_24 C13_24 1_555 1_555
H12_24 C13_24 1_555 1_555
H13_24 C13_24 1_555 1_555
Ag3_14 O1_27 1_555 1_555
N6_12 C11_27 1_555 1_555
N3_27 C4_27 1_555 1_555
O1_27 C1_24 1_555 1_555
O2_24 C1_24 1_555 1_555
N6_13 Ag3_14 1_555 1_555
C6_24 C7_24 1_555 1_555
C11_27 N3_27 1_555 1_555
C8_27 H4_27 1_555 1_555
H5_27 C8_27 1_555 1_555
H6_27 C8_27 1_555 1_555
C9_27 C8_27 1_555 1_555
H7_27 C9_27 1_555 1_555
H8_27 C9_27 1_555 1_555
C10_27 C9_27 1_555 1_555
C14_24 C15_24 1_555 1_555
C15_24 C16_24 1_555 1_555
C16_24 H14_24 1_555 1_555
C17_19 C16_24 1_555 1_555
H15_19 C17_19 1_555 1_555
C18_19 C17_19 1_555 1_555
H16_19 C18_19 1_555 1_555
C19_24 C18_19 1_555 1_555
H17_19 C19_24 1_555 1_555
C20_24 C15_24 1_555 1_555
H18_24 C20_24 1_555 1_555
N5_10 C10_27 1_555 1_555
H19_24 N4_24 1_555 1_555
O3_24 C14_24 1_555 1_555
C14_24 N4_24 1_555 1_555
C19_24 C20_24 1_555 1_555
C1_25 C2_25 1_555 1_555
C2_25 C3_28 1_555 1_555
C3_28 H1_28 1_555 1_555
C4_28 C3_28 1_555 1_555
C5_25 C4_28 1_555 1_555
H2_25 C5_25 1_555 1_555
C6_25 C5_25 1_555 1_555
C7_25 C2_25 1_555 1_555
H3_25 C7_25 1_555 1_555
C8_28 H4_28 1_555 1_555
H5_28 C8_28 1_555 1_555
H6_28 C8_28 1_555 1_555
C9_28 C8_28 1_555 1_555
H7_28 C9_28 1_555 1_555
H8_28 C9_28 1_555 1_555
C10_28 C9_28 1_555 1_555
C11_28 C12_25 1_555 1_555
C12_25 H9_28 1_555 1_555
H10_25 C12_25 1_555 1_555
C13_25 C12_25 1_555 1_555
H11_25 C13_25 1_555 1_555
H12_25 C13_25 1_555 1_555
H13_25 C13_25 1_555 1_555
C14_25 C15_25 1_555 1_555
C15_25 C16_25 1_555 1_555
C16_25 H14_25 1_555 1_555
C17_20 C16_25 1_555 1_555
H15_20 C17_20 1_555 1_555
C18_20 C17_20 1_555 1_555
H16_20 C18_20 1_555 1_555
C19_25 C18_20 1_555 1_555
H17_20 C19_25 1_555 1_555
C20_25 C15_25 1_555 1_555
H18_25 C20_25 1_555 1_555
Ag3_8 O1_28 1_555 1_555
N5_15 C10_28 1_555 1_555
N6_13 C11_28 1_555 1_555
N3_28 C4_28 1_555 1_555
N4_25 C6_25 1_555 1_555
H19_25 N4_25 1_555 1_555
O1_28 C1_25 1_555 1_555
O2_25 C1_25 1_555 1_555
O3_25 C14_25 1_555 1_555
C6_25 C7_25 1_555 1_555
C10_28 N3_28 1_555 1_555
C11_28 N3_28 1_555 1_555
C14_25 N4_25 1_555 1_555
C19_25 C20_25 1_555 1_555
N5_15 N6_13 1_555 1_555
C8_29 H4_29 1_555 1_555
H5_29 C8_29 1_555 1_555
H6_29 C8_29 1_555 1_555
C9_29 C8_29 1_555 1_555
H7_29 C9_29 1_555 1_555
H8_29 C9_29 1_555 1_555
C10_29 C9_29 1_555 1_555
C14_26 C15_26 1_555 1_555
C15_26 C16_26 1_555 1_555
C16_26 H14_26 1_555 1_555
C17_21 C16_26 1_555 1_555
H15_21 C17_21 1_555 1_555
C18_21 C17_21 1_555 1_555
H16_21 C18_21 1_555 1_555
C19_26 C18_21 1_555 1_555
H17_21 C19_26 1_555 1_555
C20_26 C15_26 1_555 1_555
H18_26 C20_26 1_555 1_555
N5_16 C10_29 1_555 1_555
H19_26 N4_26 1_555 1_555
O3_26 C14_26 1_555 1_555
C14_26 N4_26 1_555 1_555
C19_26 C20_26 1_555 1_555
C1_26 C2_26 1_555 1_555
C2_26 C3_29 1_555 1_555
C3_29 H1_29 1_555 1_555
C4_29 C3_29 1_555 1_555
C5_26 C4_29 1_555 1_555
C6_26 C5_26 1_555 1_555
C7_26 C2_26 1_555 1_555
H3_26 C7_26 1_555 1_555
Ag3_9 O1_29 1_555 1_555
N2_16 C11_29 1_555 1_555
N3_29 C4_29 1_555 1_555
O1_29 C1_26 1_555 1_555
O2_26 C1_26 1_555 1_555
N6_14 Ag3_9 1_555 1_555
C6_26 C7_26 1_555 1_555
C11_29 N3_29 1_555 1_555
C1_27 C2_27 1_555 1_555
C2_27 C3_30 1_555 1_555
C3_30 H1_30 1_555 1_555
C4_30 C3_30 1_555 1_555
C5_27 C4_30 1_555 1_555
H2_27 C5_27 1_555 1_555
C6_27 C5_27 1_555 1_555
C7_27 C2_27 1_555 1_555
H3_27 C7_27 1_555 1_555
C8_30 H4_30 1_555 1_555
H5_30 C8_30 1_555 1_555
H6_30 C8_30 1_555 1_555
C9_30 C8_30 1_555 1_555
H7_30 C9_30 1_555 1_555
H8_30 C9_30 1_555 1_555
C10_30 C9_30 1_555 1_555
C11_30 C12_26 1_555 1_555
C12_26 H9_30 1_555 1_555
H10_26 C12_26 1_555 1_555
C13_26 C12_26 1_555 1_555
H11_26 C13_26 1_555 1_555
H12_26 C13_26 1_555 1_555
H13_26 C13_26 1_555 1_555
C14_27 C15_27 1_555 1_555
C15_27 C16_27 1_555 1_555
C16_27 H14_27 1_555 1_555
C17_22 C16_27 1_555 1_555
H15_22 C17_22 1_555 1_555
C18_22 C17_22 1_555 1_555
H16_22 C18_22 1_555 1_555
C19_27 C18_22 1_555 1_555
H17_22 C19_27 1_555 1_555
C20_27 C15_27 1_555 1_555
H18_27 C20_27 1_555 1_555
Ag3_13 O1_30 1_555 1_555
N5_9 C10_30 1_555 1_555
N6_14 C11_30 1_555 1_555
N3_30 C4_30 1_555 1_555
N4_27 C6_27 1_555 1_555
H19_27 N4_27 1_555 1_555
O1_30 C1_27 1_555 1_555
O2_27 C1_27 1_555 1_555
O3_27 C14_27 1_555 1_555
C6_27 C7_27 1_555 1_555
C10_30 N3_30 1_555 1_555
C11_30 N3_30 1_555 1_555
C14_27 N4_27 1_555 1_555
C19_27 C20_27 1_555 1_555
N5_9 N6_14 1_555 1_555
H10_27 C12_27 1_555 1_555
C13_27 C12_27 1_555 1_555
H11_27 C13_27 1_555 1_555
H12_27 C13_27 1_555 1_555
H13_27 C13_27 1_555 1_555
C1_28 C2_28 1_555 1_555
C2_28 C3_31 1_555 1_555
C3_31 H1_31 1_555 1_555
C4_31 C3_31 1_555 1_555
C5_28 C4_31 1_555 1_555
H2_28 C5_28 1_555 1_555
C6_28 C5_28 1_555 1_555
C7_28 C2_28 1_555 1_555
H3_28 C7_28 1_555 1_555
C8_31 H4_31 1_555 1_555
H5_31 C8_31 1_555 1_555
H6_31 C8_31 1_555 1_555
C9_31 C8_31 1_555 1_555
H7_31 C9_31 1_555 1_555
H8_31 C9_31 1_555 1_555
C10_31 C9_31 1_555 1_555
C14_28 C15_28 1_555 1_555
C15_28 C16_28 1_555 1_555
C16_28 H14_28 1_555 1_555
C20_28 C15_28 1_555 1_555
H18_28 C20_28 1_555 1_555
Ag3_11 O1_31 1_555 1_555
N5_14 C10_31 1_555 1_555
N6_15 C11_31 1_555 1_555
N3_31 C4_31 1_555 1_555
N4_28 C6_28 1_555 1_555
H19_28 N4_28 1_555 1_555
O1_31 C1_28 1_555 1_555
O2_28 C1_28 1_555 1_555
O3_28 C14_28 1_555 1_555
N6_16 Ag3_11 1_555 1_555
C6_28 C7_28 1_555 1_555
C10_31 N3_31 1_555 1_555
C11_31 N3_31 1_555 1_555
C14_28 N4_28 1_555 1_555
C19_28 C20_28 1_555 1_555
N5_14 N6_15 1_555 1_555
C3_32 H1_32 1_555 1_555
C4_32 C3_32 1_555 1_555
C8_32 H4_32 1_555 1_555
H5_32 C8_32 1_555 1_555
H6_32 C8_32 1_555 1_555
C9_32 C8_32 1_555 1_555
H7_32 C9_32 1_555 1_555
H8_32 C9_32 1_555 1_555
C10_32 C9_32 1_555 1_555
C11_32 C12_28 1_555 1_555
C12_28 H9_32 1_555 1_555
H10_28 C12_28 1_555 1_555
C13_28 C12_28 1_555 1_555
H11_28 C13_28 1_555 1_555
H12_28 C13_28 1_555 1_555
H13_28 C13_28 1_555 1_555
N5_11 C10_32 1_555 1_555
N6_16 C11_32 1_555 1_555
N3_32 C4_32 1_555 1_555
C10_32 N3_32 1_555 1_555
C11_32 N3_32 1_555 1_555
N5_11 N6_16 1_555 1_555
H15_23 C17_23 1_555 1_555
C18_23 C17_23 1_555 1_555
H16_23 C18_23 1_555 1_555
H10_29 C12_29 1_555 1_555
C13_29 C12_29 1_555 1_555
H11_29 C13_29 1_555 1_555
H12_29 C13_29 1_555 1_555
H13_29 C13_29 1_555 1_555
C1_29 C2_29 1_555 1_555
H2_29 C5_29 1_555 1_555
C6_29 C5_29 1_555 1_555
C7_29 C2_29 1_555 1_555
H3_29 C7_29 1_555 1_555
C14_29 C15_29 1_555 1_555
C15_29 C16_29 1_555 1_555
C16_29 H14_29 1_555 1_555
C17_24 C16_29 1_555 1_555
H15_24 C17_24 1_555 1_555
C18_24 C17_24 1_555 1_555
H16_24 C18_24 1_555 1_555
C19_29 C18_24 1_555 1_555
H17_24 C19_29 1_555 1_555
C20_29 C15_29 1_555 1_555
H18_29 C20_29 1_555 1_555
N4_29 C6_29 1_555 1_555
H19_29 N4_29 1_555 1_555
O2_29 C1_29 1_555 1_555
O3_29 C14_29 1_555 1_555
C6_29 C7_29 1_555 1_555
C14_29 N4_29 1_555 1_555
C19_29 C20_29 1_555 1_555
H10_30 C12_30 1_555 1_555
C13_30 C12_30 1_555 1_555
H11_30 C13_30 1_555 1_555
H12_30 C13_30 1_555 1_555
H13_30 C13_30 1_555 1_555
C1_30 C2_30 1_555 1_555
H2_30 C5_30 1_555 1_555
C6_30 C5_30 1_555 1_555
C7_30 C2_30 1_555 1_555
H3_30 C7_30 1_555 1_555
C14_30 C15_30 1_555 1_555
C15_30 C16_30 1_555 1_555
C16_30 H14_30 1_555 1_555
C17_25 C16_30 1_555 1_555
H15_25 C17_25 1_555 1_555
C18_25 C17_25 1_555 1_555
H16_25 C18_25 1_555 1_555
C19_30 C18_25 1_555 1_555
H17_25 C19_30 1_555 1_555
C20_30 C15_30 1_555 1_555
H18_30 C20_30 1_555 1_555
N4_30 C6_30 1_555 1_555
H19_30 N4_30 1_555 1_555
O2_30 C1_30 1_555 1_555
O3_30 C14_30 1_555 1_555
C6_30 C7_30 1_555 1_555
C14_30 N4_30 1_555 1_555
C19_30 C20_30 1_555 1_555
H10_31 C12_31 1_555 1_555
C13_31 C12_31 1_555 1_555
H11_31 C13_31 1_555 1_555
H12_31 C13_31 1_555 1_555
H13_31 C13_31 1_555 1_555
C1_31 C2_31 1_555 1_555
H2_31 C5_31 1_555 1_555
C6_31 C5_31 1_555 1_555
C7_31 C2_31 1_555 1_555
H3_31 C7_31 1_555 1_555
C14_31 C15_31 1_555 1_555
C15_31 C16_31 1_555 1_555
C16_31 H14_31 1_555 1_555
C17_26 C16_31 1_555 1_555
H15_26 C17_26 1_555 1_555
C18_26 C17_26 1_555 1_555
H16_26 C18_26 1_555 1_555
C19_31 C18_26 1_555 1_555
H17_26 C19_31 1_555 1_555
C20_31 C15_31 1_555 1_555
H18_31 C20_31 1_555 1_555
N4_31 C6_31 1_555 1_555
H19_31 N4_31 1_555 1_555
O2_31 C1_31 1_555 1_555
O3_31 C14_31 1_555 1_555
C6_31 C7_31 1_555 1_555
C14_31 N4_31 1_555 1_555
C19_31 C20_31 1_555 1_555
H10_32 C12_32 1_555 1_555
C13_32 C12_32 1_555 1_555
H11_32 C13_32 1_555 1_555
H12_32 C13_32 1_555 1_555
H13_32 C13_32 1_555 1_555
C1_32 C2_32 1_555 1_555
H2_32 C5_32 1_555 1_555
C6_32 C5_32 1_555 1_555
C7_32 C2_32 1_555 1_555
H3_32 C7_32 1_555 1_555
C14_32 C15_32 1_555 1_555
C15_32 C16_32 1_555 1_555
C16_32 H14_32 1_555 1_555
C17_27 C16_32 1_555 1_555
H15_27 C17_27 1_555 1_555
C18_27 C17_27 1_555 1_555
H16_27 C18_27 1_555 1_555
C19_32 C18_27 1_555 1_555
H17_27 C19_32 1_555 1_555
C20_32 C15_32 1_555 1_555
H18_32 C20_32 1_555 1_555
N4_32 C6_32 1_555 1_555
H19_32 N4_32 1_555 1_555
O2_32 C1_32 1_555 1_555
O3_32 C14_32 1_555 1_555
C6_32 C7_32 1_555 1_555
C14_32 N4_32 1_555 1_555
C19_32 C20_32 1_555 1_555
H15_28 C17_28 1_555 1_555
C18_28 C17_28 1_555 1_555
H16_28 C18_28 1_555 1_555
H15_29 C17_29 1_555 1_555
C18_29 C17_29 1_555 1_555
H16_29 C18_29 1_555 1_555
H15_30 C17_30 1_555 1_555
C18_30 C17_30 1_555 1_555
H16_30 C18_30 1_555 1_555
H15_31 C17_31 1_555 1_555
C18_31 C17_31 1_555 1_555
H16_31 C18_31 1_555 1_555
H15_32 C17_32 1_555 1_555
C18_32 C17_32 1_555 1_555
H16_32 C18_32 1_555 1_555

#END
