
###############################################################################
#
# This file contains modified crystal structure data generated from the
# MOF subset of the Cambridge Structural Database (CSD) v543 
# hosted by the Cambridge Crystallographic Data Centre (CCDC).
#
# This work is licensed under the Creative Commons
# Attribution-NonCommercial-ShareAlike 4.0 International License.
# To view a copy of this license, visit
# http://creativecommons.org/licenses/by-nc-sa/4.0/
# or send a letter to
# Creative Commons, PO Box 1866, Mountain View, CA 94042, USA.
#
# CIF created using the CSD Python API on 29 September 2022
# The structure has been converted into the P1 space group
# The structure has a 3D framework
# The original CSD entry VOKJUD is in the monoclinic crystal system
# The framework has been calculated to contain at least 10.0% void space
# The void calculation uses a probe of radius 1.32A, grid spacing 0.4
# The framework is charged, counterions have been retained in the structure
#
###############################################################################

data_VOKJUD
_chemical_formula_moiety         '(C80 H96 Cd12 Cl8 N8 O29)n'
_symmetry_cell_setting           triclinic
_symmetry_space_group_name_H-M   'P 1'
_symmetry_Int_Tables_number      1
_space_group_name_Hall           'P 1'
loop_
_symmetry_equiv_pos_site_id
_symmetry_equiv_pos_as_xyz
1 x,y,z
_cell_length_a                   13.0184(8)
_cell_length_b                   15.4963(7)
_cell_length_c                   15.3062(8)
_cell_angle_alpha                90
_cell_angle_beta                 112.832(7)
_cell_angle_gamma                90
_cell_volume                     2845.89
loop_
_atom_site_label
_atom_site_type_symbol
_atom_site_fract_x
_atom_site_fract_y
_atom_site_fract_z
N1 N 0.2888(4) 0.6280(4) 0.3614(4)
H1 H 0.2152 0.6317 0.3508
H2 H 0.2944 0.6159 0.3052
C1 C 0.3388(7) 0.5593(6) 0.4273(6)
H3 H 0.2952 0.5064 0.4052
H4 H 0.3402 0.5749 0.4898
H5 H 0.4151 0.5496 0.4319
C2 C 0.3426(8) 0.7106(6) 0.3971(7)
H6 H 0.3074 0.7558 0.3502
H7 H 0.4219 0.7068 0.4083
H8 H 0.3347 0.7246 0.4566
N1_2 N 0.7112(4) 0.6280(4) 0.1386(4)
H1_2 H 0.7848 0.6317 0.1492
H2_2 H 0.7056 0.6159 0.1948
C1_2 C 0.6612(7) 0.5593(6) 0.0727(6)
H3_2 H 0.7048 0.5064 0.0948
H4_2 H 0.6598 0.5749 0.0102
H5_2 H 0.5849 0.5496 0.0681
C2_2 C 0.6574(8) 0.7106(6) 0.1029(7)
H6_2 H 0.6926 0.7558 0.1498
H7_2 H 0.5781 0.7068 0.0917
H8_2 H 0.6653 0.7246 0.0434
N1_3 N 0.7888(4) 0.1280(4) 0.3614(4)
H1_3 H 0.7152 0.1317 0.3508
H2_3 H 0.7944 0.1159 0.3052
C1_3 C 0.8388(7) 0.0593(6) 0.4273(6)
H3_3 H 0.7952 0.0064 0.4052
H4_3 H 0.8402 0.0749 0.4898
H5_3 H 0.9151 0.0496 0.4319
C2_3 C 0.8426(8) 0.2106(6) 0.3971(7)
H6_3 H 0.8074 0.2558 0.3502
H7_3 H 0.9219 0.2068 0.4083
H8_3 H 0.8347 0.2246 0.4566
N1_4 N 0.2112(4) 0.1280(4) 0.1386(4)
H1_4 H 0.2848 0.1317 0.1492
H2_4 H 0.2056 0.1159 0.1948
C1_4 C 0.1612(7) 0.0593(6) 0.0727(6)
H3_4 H 0.2048 0.0064 0.0948
H4_4 H 0.1598 0.0749 0.0102
H5_4 H 0.0849 0.0496 0.0681
C2_4 C 0.1574(8) 0.2106(6) 0.1029(7)
H6_4 H 0.1926 0.2558 0.1498
H7_4 H 0.0781 0.2068 0.0917
H8_4 H 0.1653 0.2246 0.0434
N1_5 N 0.7112(4) 0.3720(4) 0.6386(4)
H1_5 H 0.7848 0.3683 0.6492
H2_5 H 0.7056 0.3841 0.6948
C1_5 C 0.6612(7) 0.4407(6) 0.5727(6)
H3_5 H 0.7048 0.4936 0.5948
H4_5 H 0.6598 0.4251 0.5102
H5_5 H 0.5849 0.4504 0.5681
C2_5 C 0.6574(8) 0.2894(6) 0.6029(7)
H6_5 H 0.6926 0.2442 0.6498
H7_5 H 0.5781 0.2932 0.5917
H8_5 H 0.6653 0.2754 0.5434
N1_6 N 0.2888(4) 0.3720(4) 0.8614(4)
H1_6 H 0.2152 0.3683 0.8508
H2_6 H 0.2944 0.3841 0.8052
C1_6 C 0.3388(7) 0.4407(6) 0.9273(6)
H3_6 H 0.2952 0.4936 0.9052
H4_6 H 0.3402 0.4251 0.9898
H5_6 H 0.4151 0.4504 0.9319
C2_6 C 0.3426(8) 0.2894(6) 0.8971(7)
H6_6 H 0.3074 0.2442 0.8502
H7_6 H 0.4219 0.2932 0.9083
H8_6 H 0.3347 0.2754 0.9566
N1_7 N 0.2112(4) 0.8720(4) 0.6386(4)
H1_7 H 0.2848 0.8683 0.6492
H2_7 H 0.2056 0.8841 0.6948
C1_7 C 0.1612(7) 0.9407(6) 0.5727(6)
H3_7 H 0.2048 0.9936 0.5948
H4_7 H 0.1598 0.9251 0.5102
H5_7 H 0.0849 0.9504 0.5681
C2_7 C 0.1574(8) 0.7894(6) 0.6029(7)
H6_7 H 0.1926 0.7442 0.6498
H7_7 H 0.0781 0.7932 0.5917
H8_7 H 0.1653 0.7754 0.5434
N1_8 N 0.7888(4) 0.8720(4) 0.8614(4)
H1_8 H 0.7152 0.8683 0.8508
H2_8 H 0.7944 0.8841 0.8052
C1_8 C 0.8388(7) 0.9407(6) 0.9273(6)
H3_8 H 0.7952 0.9936 0.9052
H4_8 H 0.8402 0.9251 0.9898
H5_8 H 0.9151 0.9504 0.9319
C2_8 C 0.8426(8) 0.7894(6) 0.8971(7)
H6_8 H 0.8074 0.7442 0.8502
H7_8 H 0.9219 0.7932 0.9083
H8_8 H 0.8347 0.7754 0.9566
O7 O 0.4113(3) 0.1543(2) 0.3032(2)
O8 O 0.5852(3) 0.1879(2) 0.3959(2)
C15 C 0.4985(4) 0.1420(3) 0.3764(3)
C16 C 0.4049(4) 0.0172(3) 0.4199(4)
H15 H 0.3397 0.0291 0.3653
C17 C 0.4985(4) 0.0689(3) 0.4414(3)
C18 C 0.5936(4) 0.0515(3) 0.5224(3)
H16 H 0.6575 0.0872 0.5379
Cd4 Cd 0.5000 0.26090(3) 0.2500
O7_2 O 0.5887(3) 0.1543(2) 0.1968(2)
O8_2 O 0.4148(3) 0.1879(2) 0.1041(2)
C15_2 C 0.5015(4) 0.1420(3) 0.1236(3)
C16_2 C 0.5951(4) 0.0172(3) 0.0801(4)
H15_2 H 0.6603 0.0291 0.1347
C17_2 C 0.5015(4) 0.0689(3) 0.0586(3)
O1 O 0.8598(3) 0.8927(2) 0.7086(2)
O2 O 0.9271(3) 0.9376(2) 0.6047(2)
C3 C 0.8674(4) 0.8870(3) 0.6293(4)
C4 C 0.8214(4) 0.8039(3) 0.4776(4)
H9 H 0.8700 0.8409 0.4621
C5 C 0.8053(4) 0.8164(3) 0.5617(3)
C6 C 0.7338(4) 0.7629(3) 0.5836(4)
H10 H 0.7223 0.7716 0.6405
O5 O 0.6402(3) 0.6073(2) 0.2914(2)
O6 O 0.5729(3) 0.5624(2) 0.3953(2)
C11 C 0.6326(4) 0.6130(3) 0.3707(4)
C12 C 0.6786(4) 0.6961(3) 0.5224(4)
H13 H 0.6300 0.6591 0.5379
C13 C 0.6947(4) 0.6836(3) 0.4383(3)
C14 C 0.7662(4) 0.7371(3) 0.4164(4)
H14 H 0.7777 0.7284 0.3595
Cd3 Cd 0.5000 0.49658(3) 0.2500
C4_2 C 0.1786(4) 0.8039(3) 0.0224(4)
H9_2 H 0.1300 0.8409 0.0379
O5_2 O 0.3598(3) 0.6073(2) 0.2086(2)
O6_2 O 0.4271(3) 0.5624(2) 0.1047(2)
C11_2 C 0.3674(4) 0.6130(3) 0.1293(4)
C13_2 C 0.3053(4) 0.6836(3) 0.0617(3)
C14_2 C 0.2338(4) 0.7371(3) 0.0836(4)
H14_2 H 0.2223 0.7284 0.1405
Cl1 Cl 0.63646(10) 0.37872(7) 0.25029(11)
Cl2 Cl 0.36354(10) 0.37872(7) 0.24971(11)
Cd1 Cd 0.5000 0.50342(3) 0.7500
Cd2 Cd 0.5000 0.73910(3) 0.7500
Cl1_2 Cl 0.36354(10) 0.62128(7) 0.74971(11)
O1_2 O 0.3598(3) 0.3927(2) 0.7086(2)
O2_2 O 0.4271(3) 0.4376(2) 0.6047(2)
O3 O 0.5887(3) 0.8457(2) 0.6968(2)
O4 O 0.4148(3) 0.8121(2) 0.6041(2)
C3_2 C 0.3674(4) 0.3870(3) 0.6293(4)
C4_3 C 0.3214(4) 0.3039(3) 0.4776(4)
H9_3 H 0.3700 0.3409 0.4621
C5_2 C 0.3053(4) 0.3164(3) 0.5617(3)
C6_2 C 0.2338(4) 0.2629(3) 0.5836(4)
H10_2 H 0.2223 0.2716 0.6405
C7 C 0.5015(4) 0.8580(3) 0.6236(3)
C8 C 0.5951(4) 0.9828(3) 0.5801(4)
H11 H 0.6603 0.9709 0.6347
C9 C 0.5015(4) 0.9311(3) 0.5586(3)
C10 C 0.4064(4) 0.9485(3) 0.4776(3)
H12 H 0.3425 0.9128 0.4621
O5_3 O 0.1402(3) 0.1073(2) 0.2914(2)
O6_3 O 0.0729(3) 0.0624(2) 0.3953(2)
C11_3 C 0.1326(4) 0.1130(3) 0.3707(4)
C12_2 C 0.1786(4) 0.1961(3) 0.5224(4)
H13_2 H 0.1300 0.1591 0.5379
C13_3 C 0.1947(4) 0.1836(3) 0.4383(3)
C14_3 C 0.2662(4) 0.2371(3) 0.4164(4)
H14_3 H 0.2777 0.2284 0.3595
Cl2_2 Cl 0.63646(10) 0.62128(7) 0.75029(11)
O9 O 0.6402(3) 0.3927(2) 0.7914(2)
O10 O 0.5729(3) 0.4376(2) 0.8953(2)
O11 O 0.4113(3) 0.8457(2) 0.8032(2)
O12 O 0.5852(3) 0.8121(2) 0.8959(2)
C3_3 C 0.6326(4) 0.3870(3) 0.8707(4)
C5_3 C 0.6947(4) 0.3164(3) 0.9383(3)
C6_3 C 0.7662(4) 0.2629(3) 0.9164(4)
H10_3 H 0.7777 0.2716 0.8595
C7_2 C 0.4985(4) 0.8580(3) 0.8764(3)
C8_2 C 0.4049(4) 0.9828(3) 0.9199(4)
H11_2 H 0.3397 0.9709 0.8653
C9_2 C 0.4985(4) 0.9311(3) 0.9414(3)
C12_3 C 0.8214(4) 0.1961(3) 0.9776(4)
H13_3 H 0.8700 0.1591 0.9621
Cd3_2 Cd -0.0000 0.99658(3) 0.2500
Cd1_2 Cd -0.0000 0.00342(3) 0.7500
Cd2_2 Cd -0.0000 0.23910(3) 0.7500
O3_2 O 0.0887(3) 0.3457(2) 0.6968(2)
C7_3 C 0.0015(4) 0.3580(3) 0.6236(3)
C8_3 C 0.0951(4) 0.4828(3) 0.5801(4)
H11_3 H 0.1603 0.4709 0.6347
C9_3 C 0.0015(4) 0.4311(3) 0.5586(3)
O8_3 O 0.0852(3) 0.6879(2) 0.3959(2)
C18_2 C 0.0936(4) 0.5515(3) 0.5224(3)
H16_2 H 0.1575 0.5872 0.5379
Cl2_3 Cl 0.13646(10) 0.12128(7) 0.75029(11)
Cd4_2 Cd -0.0000 0.76090(3) 0.2500
O12_2 O 0.0852(3) 0.3121(2) 0.8959(2)
C10_2 C 0.0936(4) 0.4485(3) 0.0224(3)
H12_2 H 0.1575 0.4128 0.0379
O7_3 O 0.0887(3) 0.6543(2) 0.1968(2)
C15_3 C 0.0015(4) 0.6420(3) 0.1236(3)
C16_3 C 0.0951(4) 0.5172(3) 0.0801(4)
H15_3 H 0.1603 0.5291 0.1347
C17_3 C 0.0015(4) 0.5689(3) 0.0586(3)
Cl1_3 Cl 0.13646(10) 0.87872(7) 0.25029(11)
Cd3_3 Cd 1.0000 0.99658(3) 0.2500
Cd1_3 Cd 1.0000 0.00342(3) 0.7500
Cd2_3 Cd 1.0000 0.23910(3) 0.7500
Cl1_4 Cl 0.86354(10) 0.12128(7) 0.74971(11)
O4_2 O 0.9148(3) 0.3121(2) 0.6041(2)
C10_3 C 0.9064(4) 0.4485(3) 0.4776(3)
H12_3 H 0.8425 0.4128 0.4621
O7_4 O 0.9113(3) 0.6543(2) 0.3032(2)
C15_4 C 0.9985(4) 0.6420(3) 0.3764(3)
C16_4 C 0.9049(4) 0.5172(3) 0.4199(4)
H15_4 H 0.8397 0.5291 0.3653
C17_4 C 0.9985(4) 0.5689(3) 0.4414(3)
Cd4_3 Cd 1.0000 0.76090(3) 0.2500
O11_2 O 0.9113(3) 0.3457(2) 0.8032(2)
O8_4 O 0.9148(3) 0.6879(2) 0.1041(2)
C7_4 C 0.9985(4) 0.3580(3) 0.8764(3)
C8_4 C 0.9049(4) 0.4828(3) 0.9199(4)
H11_4 H 0.8397 0.4709 0.8653
C9_4 C 0.9985(4) 0.4311(3) 0.9414(3)
C18_3 C 0.9064(4) 0.5515(3) 0.9776(3)
H16_3 H 0.8425 0.5872 0.9621
Cl2_4 Cl 0.86354(10) 0.87872(7) 0.24971(11)
C18_4 C 0.4064(4) 0.0515(3) 0.9776(3)
H16_4 H 0.3425 0.0872 0.9621
O9_2 O 0.1402(3) 0.8927(2) 0.7914(2)
O10_2 O 0.0729(3) 0.9376(2) 0.8953(2)
C3_4 C 0.1326(4) 0.8870(3) 0.8707(4)
C5_4 C 0.1947(4) 0.8164(3) 0.9383(3)
C6_4 C 0.2662(4) 0.7629(3) 0.9164(4)
H10_4 H 0.2777 0.7716 0.8595
C12_4 C 0.3214(4) 0.6961(3) 0.9776(4)
H13_4 H 0.3700 0.6591 0.9621
C4_4 C 0.6786(4) 0.3039(3) 0.0224(4)
H9_4 H 0.6300 0.3409 0.0379
C10_4 C 0.5936(4) 0.9485(3) 0.0224(3)
H12_4 H 0.6575 0.9128 0.0379
O5_4 O 0.8598(3) 0.1073(2) 0.2086(2)
O6_4 O 0.9271(3) 0.0624(2) 0.1047(2)
C11_4 C 0.8674(4) 0.1130(3) 0.1293(4)
C13_4 C 0.8053(4) 0.1836(3) 0.0617(3)
C14_4 C 0.7338(4) 0.2371(3) 0.0836(4)
H14_4 H 0.7223 0.2284 0.1405
loop_
_geom_bond_atom_site_label_1
_geom_bond_atom_site_label_2
_geom_bond_site_symmetry_1
_geom_bond_site_symmetry_2
N1 H1 1_555 1_555
H2 N1 1_555 1_555
C1 N1 1_555 1_555
H3 C1 1_555 1_555
H4 C1 1_555 1_555
H5 C1 1_555 1_555
C2 N1 1_555 1_555
H6 C2 1_555 1_555
H7 C2 1_555 1_555
H8 C2 1_555 1_555
N1_2 H1_2 1_555 1_555
H2_2 N1_2 1_555 1_555
C1_2 N1_2 1_555 1_555
H3_2 C1_2 1_555 1_555
H4_2 C1_2 1_555 1_555
H5_2 C1_2 1_555 1_555
C2_2 N1_2 1_555 1_555
H6_2 C2_2 1_555 1_555
H7_2 C2_2 1_555 1_555
H8_2 C2_2 1_555 1_555
N1_3 H1_3 1_555 1_555
H2_3 N1_3 1_555 1_555
C1_3 N1_3 1_555 1_555
H3_3 C1_3 1_555 1_555
H4_3 C1_3 1_555 1_555
H5_3 C1_3 1_555 1_555
C2_3 N1_3 1_555 1_555
H6_3 C2_3 1_555 1_555
H7_3 C2_3 1_555 1_555
H8_3 C2_3 1_555 1_555
N1_4 H1_4 1_555 1_555
H2_4 N1_4 1_555 1_555
C1_4 N1_4 1_555 1_555
H3_4 C1_4 1_555 1_555
H4_4 C1_4 1_555 1_555
H5_4 C1_4 1_555 1_555
C2_4 N1_4 1_555 1_555
H6_4 C2_4 1_555 1_555
H7_4 C2_4 1_555 1_555
H8_4 C2_4 1_555 1_555
N1_5 H1_5 1_555 1_555
H2_5 N1_5 1_555 1_555
C1_5 N1_5 1_555 1_555
H3_5 C1_5 1_555 1_555
H4_5 C1_5 1_555 1_555
H5_5 C1_5 1_555 1_555
C2_5 N1_5 1_555 1_555
H6_5 C2_5 1_555 1_555
H7_5 C2_5 1_555 1_555
H8_5 C2_5 1_555 1_555
N1_6 H1_6 1_555 1_555
H2_6 N1_6 1_555 1_555
C1_6 N1_6 1_555 1_555
H3_6 C1_6 1_555 1_555
H4_6 C1_6 1_555 1_555
H5_6 C1_6 1_555 1_555
C2_6 N1_6 1_555 1_555
H6_6 C2_6 1_555 1_555
H7_6 C2_6 1_555 1_555
H8_6 C2_6 1_555 1_555
N1_7 H1_7 1_555 1_555
H2_7 N1_7 1_555 1_555
C1_7 N1_7 1_555 1_555
H3_7 C1_7 1_555 1_555
H4_7 C1_7 1_555 1_555
H5_7 C1_7 1_555 1_555
C2_7 N1_7 1_555 1_555
H6_7 C2_7 1_555 1_555
H7_7 C2_7 1_555 1_555
H8_7 C2_7 1_555 1_555
N1_8 H1_8 1_555 1_555
H2_8 N1_8 1_555 1_555
C1_8 N1_8 1_555 1_555
H3_8 C1_8 1_555 1_555
H4_8 C1_8 1_555 1_555
H5_8 C1_8 1_555 1_555
C2_8 N1_8 1_555 1_555
H6_8 C2_8 1_555 1_555
H7_8 C2_8 1_555 1_555
H8_8 C2_8 1_555 1_555
O7 C15 1_555 1_555
O8 C15 1_555 1_555
C15 C17 1_555 1_555
H15 C16 1_555 1_555
C17 C16 1_555 1_555
H16 C18 1_555 1_555
Cd4 O7 1_555 1_555
O8 Cd4 1_555 1_555
C17 C18 1_555 1_555
O7_2 C15_2 1_555 1_555
O8_2 C15_2 1_555 1_555
C15_2 C17_2 1_555 1_555
H15_2 C16_2 1_555 1_555
C17_2 C16_2 1_555 1_555
Cd4 O7_2 1_555 1_555
O8_2 Cd4 1_555 1_555
C3 O1 1_555 1_555
C4 H9 1_555 1_555
C5 C3 1_555 1_555
C6 C5 1_555 1_555
H10 C6 1_555 1_555
O5 C11 1_555 1_555
O6 C11 1_555 1_555
C11 C13 1_555 1_555
C12 C6 1_555 1_555
H13 C12 1_555 1_555
C13 C12 1_555 1_555
C14 C4 1_555 1_555
H14 C14 1_555 1_555
Cd3 O5 1_555 1_555
O2 C3 1_555 1_555
C4 C5 1_555 1_555
O6 Cd3 1_555 1_555
C13 C14 1_555 1_555
C4_2 H9_2 1_555 1_555
O5_2 C11_2 1_555 1_555
O6_2 C11_2 1_555 1_555
C11_2 C13_2 1_555 1_555
C14_2 C4_2 1_555 1_555
H14_2 C14_2 1_555 1_555
Cd3 O5_2 1_555 1_555
O6_2 Cd3 1_555 1_555
C13_2 C14_2 1_555 1_555
Cd3 Cl1 1_555 1_555
Cd4 Cl1 1_555 1_555
Cl2 Cd3 1_555 1_555
Cd4 Cl2 1_555 1_555
Cd1 Cl1_2 1_555 1_555
Cd2 Cl1_2 1_555 1_555
O1_2 Cd1 1_555 1_555
O2_2 Cd1 1_555 1_555
O3 Cd2 1_555 1_555
O4 Cd2 1_555 1_555
C3_2 O1_2 1_555 1_555
C4_3 H9_3 1_555 1_555
C5_2 C3_2 1_555 1_555
C6_2 C5_2 1_555 1_555
H10_2 C6_2 1_555 1_555
C7 O3 1_555 1_555
C8 H11 1_555 1_555
C9 C7 1_555 1_555
C10 C9 1_555 1_555
H12 C10 1_555 1_555
O5_3 C11_3 1_555 1_555
O6_3 C11_3 1_555 1_555
C11_3 C13_3 1_555 1_555
C12_2 C6_2 1_555 1_555
H13_2 C12_2 1_555 1_555
C13_3 C12_2 1_555 1_555
C14_3 C4_3 1_555 1_555
H14_3 C14_3 1_555 1_555
Cl2_2 Cd1 1_555 1_555
O9 Cd1 1_555 1_555
O10 Cd1 1_555 1_555
O11 Cd2 1_555 1_555
O12 Cd2 1_555 1_555
Cd2 Cl2_2 1_555 1_555
O2_2 C3_2 1_555 1_555
O4 C7 1_555 1_555
C4_3 C5_2 1_555 1_555
C8 C9 1_555 1_555
C13_3 C14_3 1_555 1_555
C3_3 O9 1_555 1_555
C5_3 C3_3 1_555 1_555
C6_3 C5_3 1_555 1_555
H10_3 C6_3 1_555 1_555
C7_2 O11 1_555 1_555
C8_2 H11_2 1_555 1_555
C9_2 C7_2 1_555 1_555
C12_3 C6_3 1_555 1_555
H13_3 C12_3 1_555 1_555
O10 C3_3 1_555 1_555
O12 C7_2 1_555 1_555
C8_2 C9_2 1_555 1_555
O3_2 Cd2_2 1_555 1_555
C7_3 O3_2 1_555 1_555
C8_3 H11_3 1_555 1_555
C9_3 C7_3 1_555 1_555
C18_2 C8_3 1_555 1_555
H16_2 C18_2 1_555 1_555
Cl2_3 Cd1_2 1_555 1_555
O12_2 Cd2_2 1_555 1_555
Cd2_2 Cl2_3 1_555 1_555
C8_3 C9_3 1_555 1_555
O8_3 Cd4_2 1_555 1_555
H12_2 C10_2 1_555 1_555
O7_3 C15_3 1_555 1_555
C15_3 C17_3 1_555 1_555
C16_3 C10_2 1_555 1_555
H15_3 C16_3 1_555 1_555
C17_3 C16_3 1_555 1_555
Cd4_2 O7_3 1_555 1_555
Cd3_2 Cl1_3 1_555 1_555
Cd4_2 Cl1_3 1_555 1_555
Cd1_3 Cl1_4 1_555 1_555
Cd2_3 Cl1_4 1_555 1_555
O4_2 Cd2_3 1_555 1_555
H12_3 C10_3 1_555 1_555
O7_4 C15_4 1_555 1_555
C15_4 C17_4 1_555 1_555
C16_4 C10_3 1_555 1_555
H15_4 C16_4 1_555 1_555
C17_4 C16_4 1_555 1_555
Cd4_3 O7_4 1_555 1_555
O11_2 Cd2_3 1_555 1_555
O8_4 Cd4_3 1_555 1_555
C7_4 O11_2 1_555 1_555
C8_4 H11_4 1_555 1_555
C9_4 C7_4 1_555 1_555
C18_3 C8_4 1_555 1_555
H16_3 C18_3 1_555 1_555
C8_4 C9_4 1_555 1_555
Cl2_4 Cd3_3 1_555 1_555
Cd4_3 Cl2_4 1_555 1_555
H16_4 C18_4 1_555 1_555
C3_4 O9_2 1_555 1_555
C5_4 C3_4 1_555 1_555
C6_4 C5_4 1_555 1_555
H10_4 C6_4 1_555 1_555
C12_4 C6_4 1_555 1_555
H13_4 C12_4 1_555 1_555
O10_2 C3_4 1_555 1_555
C4_4 H9_4 1_555 1_555
H12_4 C10_4 1_555 1_555
O5_4 C11_4 1_555 1_555
O6_4 C11_4 1_555 1_555
C11_4 C13_4 1_555 1_555
C14_4 C4_4 1_555 1_555
H14_4 C14_4 1_555 1_555
C13_4 C14_4 1_555 1_555

#END
