
###############################################################################
#
# This file contains modified crystal structure data generated from the
# MOF subset of the Cambridge Structural Database (CSD) v543 
# hosted by the Cambridge Crystallographic Data Centre (CCDC).
#
# This work is licensed under the Creative Commons
# Attribution-NonCommercial-ShareAlike 4.0 International License.
# To view a copy of this license, visit
# http://creativecommons.org/licenses/by-nc-sa/4.0/
# or send a letter to
# Creative Commons, PO Box 1866, Mountain View, CA 94042, USA.
#
# CIF created using the CSD Python API on 29 September 2022
# The structure has been converted into the P1 space group
# The structure has a 3D framework
# The original CSD entry VOKLIS is in the triclinic crystal system
# The framework has been calculated to contain at least 10.0% void space
# The void calculation uses a probe of radius 1.32A, grid spacing 0.4
# H atom positions have been added when not included in the experimental data
#
###############################################################################

data_VOKLIS
_chemical_formula_moiety         '(C56 H40 Fe4 N24 O4 Pt4 Se4)n'
_symmetry_cell_setting           triclinic
_symmetry_space_group_name_H-M   'P 1'
_symmetry_Int_Tables_number      1
_space_group_name_Hall           'P 1'
loop_
_symmetry_equiv_pos_site_id
_symmetry_equiv_pos_as_xyz
1 x,y,z
_cell_length_a                   11.3127(18)
_cell_length_b                   14.687(2)
_cell_length_c                   14.766(2)
_cell_angle_alpha                85.881(8)
_cell_angle_beta                 79.811(8)
_cell_angle_gamma                70.300(8)
_cell_volume                     2273.15
loop_
_atom_site_label
_atom_site_type_symbol
_atom_site_fract_x
_atom_site_fract_y
_atom_site_fract_z
Se1 Se 0.08101(7) 0.63685(6) 0.09421(5)
C6 C 0.0225(6) 0.7294(5) 0.9990(4)
C9 C 0.0087(8) 0.7730(5) 0.8399(5)
H7 H 0.0250 0.7539 0.7782
C10 C 0.0469(8) 0.7023(5) 0.9070(5)
H8 H 0.0886 0.6372 0.8905
Fe2 Fe 0.10576(9) 0.02126(6) 0.25236(6)
O1 O 0.2470(7) 0.0809(5) 0.2744(5)
N13 N 0.0507(6) 0.1326(4) 0.1405(4)
H17 H 0.332525 0.0309336 0.26203
H18 H 0.244278 0.137119 0.232241
Pt1 Pt 0.25720(2) 0.75276(2) 0.50498(2)
Pt2 Pt 0.33002(2) 0.75755(2) 0.00565(2)
Fe1 Fe 0.54180(8) 0.50671(6) 0.25200(5)
N1 N 0.7094(5) 0.5539(4) 0.1992(4)
N3 N 0.3752(6) 0.4572(4) 0.3021(4)
N4 N 0.0714(10) 0.1712(7) 0.6492(7)
N5 N 0.4637(6) 0.6156(4) 0.3581(4)
N6 N 0.3528(6) 0.5938(4) 0.6542(4)
N7 N 0.0402(6) 0.8835(4) 0.6508(4)
N8 N 0.1668(7) 0.9156(4) 0.3575(4)
N9 N 0.2404(6) 0.9229(4) 0.1512(4)
N12 N 0.4374(6) 0.6064(4) 0.1575(4)
C1 C 0.7415(8) 0.5708(6) 0.1092(5)
H1 H 0.6896 0.5652 0.0681
C2 C 0.8494(8) 0.5966(6) 0.0743(5)
H2 H 0.8698 0.6073 0.0108
C3 C 0.9267(7) 0.6064(5) 0.1351(5)
C4 C 0.8923(8) 0.5895(6) 0.2268(5)
H3 H 0.9416 0.5956 0.2696
C5 C 0.7837(7) 0.5634(6) 0.2566(5)
H4 H 0.7618 0.5519 0.3198
C7 C 0.9658(8) 0.8251(6) 0.0196(5)
H5 H 0.9515 0.8458 0.0805
C11 C 0.3388(7) 0.4369(6) 0.3909(5)
H9 H 0.3894 0.4405 0.4337
C12 C 0.2314(8) 0.4109(6) 0.4237(5)
H10 H 0.2102 0.3977 0.4865
C13 C 0.1560(7) 0.4048(5) 0.3603(5)
C14 C 0.1949(8) 0.4234(6) 0.2670(6)
H11 H 0.1478 0.4183 0.2222
C15 C 0.3014(8) 0.4489(6) 0.2421(6)
H12 H 0.3253 0.4615 0.1795
C16 C 0.0341(9) 0.2996(6) 0.5005(7)
C19 C 0.1434(13) 0.1455(9) 0.5645(10)
H15 H 0.2053 0.0837 0.5575
C20 C 0.1288(12) 0.2069(9) 0.4884(10)
H16 H 0.1797 0.1878 0.4309
C21 C 0.3902(6) 0.6678(4) 0.4112(4)
C22 C 0.3133(6) 0.6516(4) 0.6015(4)
C23 C 0.1198(6) 0.8364(4) 0.5979(4)
C24 C 0.2013(6) 0.8560(5) 0.4101(4)
C25 C 0.2767(7) 0.8610(4) 0.0990(4)
C28 C 0.3969(6) 0.6606(4) 0.1006(4)
Fe4 Fe 0.45820(8) 0.49329(6) 0.74800(5)
N14 N 0.6472(6) 0.4062(4) 0.3458(4)
N16 N 0.6008(6) 0.4008(4) 0.1460(4)
N2 N 0.9493(6) 0.8674(4) 0.8595(4)
N10 N 0.2338(9) 0.9181(6) 0.8579(6)
N11 N 0.3992(6) 0.5992(4) 0.8540(4)
C8 C 0.9295(8) 0.8918(5) 0.9490(5)
H6 H 0.8889 0.9572 0.9644
C26 C 0.2671(8) 0.8582(5) 0.9115(5)
C27 C 0.3743(6) 0.6560(4) 0.9108(4)
Fe6 Fe 0.89424(9) 0.97874(6) 0.74764(6)
N15 N 0.9598(6) 0.1165(4) 0.3492(4)
H20 H 0.926946 0.00144188 0.171621
Se2 Se 0.99917(9) 0.37894(8) 0.39289(7)
O2 O 0.9702(5) 0.9624(4) 0.2214(4)
C17 C 0.9592(11) 0.3223(7) 0.5828(6)
H13 H 0.8946 0.3827 0.5914
C18 C 0.9782(13) 0.2551(8) 0.6556(7)
H14 H 0.9220 0.2705 0.7116
H19 H 0.906224 0.963603 0.277227
Se2_2 Se 0.00083(9) 0.62106(8) 0.60711(7)
O2_2 O 0.0298(5) 0.0376(4) 0.7786(4)
C17_2 C 0.0408(11) 0.6777(7) 0.4172(6)
H13_2 H 0.1054 0.6173 0.4086
C18_2 C 0.0218(13) 0.7449(8) 0.3444(7)
H14_2 H 0.0780 0.7295 0.2884
H19_2 H 0.0937765 0.0363966 0.722773
H20_2 H 0.073054 0.998558 0.828379
N10_2 N 0.7662(9) 0.0819(6) 0.1421(6)
C8_2 C 0.0705(8) 0.1082(5) 0.0510(5)
H6_2 H 0.1111 0.0428 0.0356
C26_2 C 0.7329(8) 0.1418(5) 0.0885(5)
C27_2 C 0.6257(6) 0.3440(4) 0.0892(4)
Pt1_2 Pt 0.74280(2) 0.24724(2) 0.49502(2)
Pt2_2 Pt 0.66998(2) 0.24245(2) 0.99435(2)
N1_2 N 0.2906(5) 0.4461(4) 0.8008(4)
N3_2 N 0.6248(6) 0.5428(4) 0.6979(4)
N4_2 N 0.9286(10) 0.8288(7) 0.3508(7)
N5_2 N 0.5363(6) 0.3844(4) 0.6419(4)
N8_2 N 0.8332(7) 0.0844(4) 0.6425(4)
N9_2 N 0.7596(6) 0.0771(4) 0.8488(4)
N12_2 N 0.5626(6) 0.3936(4) 0.8425(4)
C1_2 C 0.2585(8) 0.4292(6) 0.8908(5)
H1_2 H 0.3104 0.4348 0.9319
C2_2 C 0.1506(8) 0.4034(6) 0.9257(5)
H2_2 H 0.1302 0.3927 0.9892
C3_2 C 0.0733(7) 0.3936(5) 0.8649(5)
C4_2 C 0.1077(8) 0.4105(6) 0.7732(5)
H3_2 H 0.0584 0.4044 0.7304
C5_2 C 0.2163(7) 0.4366(6) 0.7434(5)
H4_2 H 0.2382 0.4481 0.6802
C7_2 C 0.0342(8) 0.1749(6) 0.9804(5)
H5_2 H 0.0485 0.1542 0.9195
C11_2 C 0.6612(7) 0.5631(6) 0.6091(5)
H9_2 H 0.6106 0.5595 0.5663
C12_2 C 0.7686(8) 0.5891(6) 0.5763(5)
H10_2 H 0.7898 0.6023 0.5135
C13_2 C 0.8440(7) 0.5952(5) 0.6397(5)
C14_2 C 0.8051(8) 0.5766(6) 0.7330(6)
H11_2 H 0.8522 0.5817 0.7778
C15_2 C 0.6986(8) 0.5511(6) 0.7579(6)
H12_2 H 0.6747 0.5385 0.8205
C16_2 C 0.9659(9) 0.7004(6) 0.4995(7)
C19_2 C 0.8566(13) 0.8545(9) 0.4355(10)
H15_2 H 0.7947 0.9163 0.4425
C20_2 C 0.8712(12) 0.7931(9) 0.5116(10)
H16_2 H 0.8203 0.8122 0.5691
C21_2 C 0.6098(6) 0.3322(4) 0.5888(4)
C22_2 C 0.6867(6) 0.3484(4) 0.3985(4)
C23_2 C 0.8802(6) 0.1636(4) 0.4021(4)
C24_2 C 0.7987(6) 0.1440(5) 0.5899(4)
C25_2 C 0.7233(7) 0.1390(4) 0.9010(4)
C28_2 C 0.6031(6) 0.3394(4) 0.8994(4)
O1_2 O 0.7530(7) 0.9191(5) 0.7256(5)
H17_2 H 0.667475 0.969066 0.73797
H18_2 H 0.755722 0.862881 0.767759
C6_2 C 0.9775(6) 0.2706(5) 0.0010(4)
C9_2 C 0.9913(8) 0.2270(5) 0.1601(5)
H7_2 H 0.9750 0.2461 0.2218
C10_2 C 0.9531(8) 0.2977(5) 0.0930(5)
H8_2 H 0.9114 0.3628 0.1095
Se1_2 Se 0.91899(7) 0.36315(6) 0.90579(5)
loop_
_geom_bond_atom_site_label_1
_geom_bond_atom_site_label_2
_geom_bond_site_symmetry_1
_geom_bond_site_symmetry_2
H7 C9 1_555 1_555
C10 C6 1_555 1_555
H8 C10 1_555 1_555
C9 C10 1_555 1_555
O1 Fe2 1_555 1_555
N13 Fe2 1_555 1_555
O1 H17 1_555 1_555
O1 H18 1_555 1_555
Pt1 C21 1_555 1_555
Pt2 C25 1_555 1_555
Fe1 N1 1_555 1_555
N1 C1 1_555 1_555
N3 Fe1 1_555 1_555
N5 Fe1 1_555 1_555
N6 C22 1_555 1_555
N7 C23 1_555 1_555
N8 C24 1_555 1_555
N12 Fe1 1_555 1_555
C1 H1 1_555 1_555
C2 C1 1_555 1_555
H2 C2 1_555 1_555
C3 C2 1_555 1_555
C4 C3 1_555 1_555
H3 C4 1_555 1_555
C5 N1 1_555 1_555
H4 C5 1_555 1_555
H5 C7 1_555 1_555
C11 N3 1_555 1_555
H9 C11 1_555 1_555
C12 C11 1_555 1_555
H10 C12 1_555 1_555
C13 C12 1_555 1_555
C14 C13 1_555 1_555
H11 C14 1_555 1_555
C15 N3 1_555 1_555
H12 C15 1_555 1_555
C19 N4 1_555 1_555
H15 C19 1_555 1_555
C20 C16 1_555 1_555
H16 C20 1_555 1_555
C21 N5 1_555 1_555
C22 Pt1 1_555 1_555
C23 Pt1 1_555 1_555
C24 Pt1 1_555 1_555
C25 N9 1_555 1_555
C28 Pt2 1_555 1_555
Fe4 N6 1_555 1_555
N14 Fe1 1_555 1_555
N16 Fe1 1_555 1_555
N12 C28 1_555 1_555
C4 C5 1_555 1_555
C14 C15 1_555 1_555
C19 C20 1_555 1_555
N2 C8 1_555 1_555
N10 C26 1_555 1_555
N11 C27 1_555 1_555
H6 C8 1_555 1_555
Fe4 N11 1_555 1_555
Fe6 N2 1_555 1_555
H13 C17 1_555 1_555
C18 C17 1_555 1_555
H14 C18 1_555 1_555
O2 H19 1_555 1_555
H13_2 C17_2 1_555 1_555
C18_2 C17_2 1_555 1_555
H14_2 C18_2 1_555 1_555
O2_2 H19_2 1_555 1_555
N13 C8_2 1_555 1_555
N10_2 C26_2 1_555 1_555
N16 C27_2 1_555 1_555
H6_2 C8_2 1_555 1_555
Pt1_2 C21_2 1_555 1_555
Pt2_2 C25_2 1_555 1_555
Fe4 N1_2 1_555 1_555
N1_2 C1_2 1_555 1_555
N3_2 Fe4 1_555 1_555
N5_2 Fe4 1_555 1_555
N14 C22_2 1_555 1_555
N15 C23_2 1_555 1_555
N8_2 C24_2 1_555 1_555
N12_2 Fe4 1_555 1_555
C1_2 H1_2 1_555 1_555
C2_2 C1_2 1_555 1_555
H2_2 C2_2 1_555 1_555
C3_2 C2_2 1_555 1_555
C4_2 C3_2 1_555 1_555
H3_2 C4_2 1_555 1_555
C5_2 N1_2 1_555 1_555
H4_2 C5_2 1_555 1_555
H5_2 C7_2 1_555 1_555
C11_2 N3_2 1_555 1_555
H9_2 C11_2 1_555 1_555
C12_2 C11_2 1_555 1_555
H10_2 C12_2 1_555 1_555
C13_2 C12_2 1_555 1_555
C14_2 C13_2 1_555 1_555
H11_2 C14_2 1_555 1_555
C15_2 N3_2 1_555 1_555
H12_2 C15_2 1_555 1_555
C19_2 N4_2 1_555 1_555
H15_2 C19_2 1_555 1_555
C20_2 C16_2 1_555 1_555
H16_2 C20_2 1_555 1_555
C21_2 N5_2 1_555 1_555
C22_2 Pt1_2 1_555 1_555
C23_2 Pt1_2 1_555 1_555
C24_2 Pt1_2 1_555 1_555
C25_2 N9_2 1_555 1_555
C28_2 Pt2_2 1_555 1_555
N12_2 C28_2 1_555 1_555
C4_2 C5_2 1_555 1_555
C14_2 C15_2 1_555 1_555
C19_2 C20_2 1_555 1_555
O1_2 Fe6 1_555 1_555
O1_2 H17_2 1_555 1_555
O1_2 H18_2 1_555 1_555
H7_2 C9_2 1_555 1_555
C10_2 C6_2 1_555 1_555
H8_2 C10_2 1_555 1_555
C9_2 C10_2 1_555 1_555

#END
