
###############################################################################
#
# This file contains modified crystal structure data generated from the
# MOF subset of the Cambridge Structural Database (CSD) v543 
# hosted by the Cambridge Crystallographic Data Centre (CCDC).
#
# This work is licensed under the Creative Commons
# Attribution-NonCommercial-ShareAlike 4.0 International License.
# To view a copy of this license, visit
# http://creativecommons.org/licenses/by-nc-sa/4.0/
# or send a letter to
# Creative Commons, PO Box 1866, Mountain View, CA 94042, USA.
#
# CIF created using the CSD Python API on 29 September 2022
# The structure has been converted into the P1 space group
# The structure has a 3D framework
# The original CSD entry VOKLIS01 is in the triclinic crystal system
# The framework has been calculated to contain at least 10.0% void space
# The void calculation uses a probe of radius 1.32A, grid spacing 0.4
# H atom positions have been added when not included in the experimental data
#
###############################################################################

data_VOKLIS01
_chemical_formula_moiety         '(C56 H40 Fe4 N24 O4 Pt4 Se4)n'
_symmetry_cell_setting           triclinic
_symmetry_space_group_name_H-M   'P 1'
_symmetry_Int_Tables_number      1
_space_group_name_Hall           'P 1'
loop_
_symmetry_equiv_pos_site_id
_symmetry_equiv_pos_as_xyz
1 x,y,z
_cell_length_a                   10.9555(11)
_cell_length_b                   14.7173(14)
_cell_length_c                   14.4397(15)
_cell_angle_alpha                85.062(5)
_cell_angle_beta                 78.378(5)
_cell_angle_gamma                69.983(5)
_cell_volume                     2142.33
loop_
_atom_site_label
_atom_site_type_symbol
_atom_site_fract_x
_atom_site_fract_y
_atom_site_fract_z
Se1 Se 0.07710(7) 0.63278(5) 0.10032(5)
C6 C 0.0203(7) 0.7279(5) 0.0030(5)
H7 H 0.0131 0.7586 0.7794
C10 C 0.0396(8) 0.7034(5) 0.9096(5)
H8 H 0.0795 0.6378 0.8910
Fe2 Fe 0.10906(11) 0.01654(7) 0.24906(7)
O1 O 0.2570(7) 0.0729(5) 0.2700(5)
N13 N 0.0571(6) 0.1297(4) 0.1355(4)
H19 H 0.242521 0.137401 0.238396
H20 H 0.251472 0.0792161 0.338765
Pt1 Pt 0.26684(3) 0.74616(2) 0.50737(2)
Pt2 Pt 0.33494(3) 0.74723(2) 0.00326(2)
Fe1 Fe 0.53309(10) 0.50532(7) 0.25057(7)
N1 N 0.6907(6) 0.5479(4) 0.2049(4)
N3 N 0.3750(6) 0.4632(4) 0.2942(4)
N4 N 0.0839(8) 0.1639(6) 0.6437(6)
N5 N 0.4598(6) 0.6017(4) 0.3500(4)
N6 N 0.3726(6) 0.5894(4) 0.6618(4)
N7 N 0.0464(6) 0.8860(4) 0.6530(4)
N8 N 0.1695(7) 0.9089(4) 0.3566(4)
N9 N 0.2495(6) 0.9167(4) 0.1456(4)
N12 N 0.4410(6) 0.5988(4) 0.1625(4)
C1 C 0.7340(7) 0.5611(5) 0.1121(5)
H1 H 0.6857 0.5519 0.0681
C2 C 0.8451(7) 0.5875(5) 0.0772(5)
H2 H 0.8717 0.5951 0.0110
C3 C 0.9172(7) 0.6029(5) 0.1400(5)
C4 C 0.8724(7) 0.5897(5) 0.2370(5)
H3 H 0.9185 0.5992 0.2824
C5 C 0.7608(7) 0.5629(5) 0.2663(5)
H4 H 0.7321 0.5546 0.3321
C7 C 0.9634(8) 0.8259(5) 0.0275(5)
H5 H 0.9505 0.8454 0.0908
C11 C 0.3335(7) 0.4426(5) 0.3860(5)
H9 H 0.3833 0.4471 0.4311
C12 C 0.2239(7) 0.4155(5) 0.4176(5)
H10 H 0.1994 0.4016 0.4828
C13 C 0.1491(7) 0.4088(5) 0.3530(5)
C14 C 0.1921(7) 0.4267(5) 0.2576(5)
H11 H 0.1455 0.4201 0.2112
C15 C 0.3030(7) 0.4540(5) 0.2314(5)
H12 H 0.3302 0.4670 0.1664
C16 C 0.0342(8) 0.2931(6) 0.4939(6)
C19 C 0.1521(10) 0.1392(8) 0.5567(8)
H15 H 0.2186 0.0775 0.5477
C20 C 0.1287(9) 0.2016(7) 0.4779(7)
H16 H 0.1756 0.1820 0.4161
C21 C 0.3941(7) 0.6569(5) 0.4076(5)
C22 C 0.3287(7) 0.6468(5) 0.6072(5)
C23 C 0.1300(7) 0.8350(5) 0.6021(5)
C24 C 0.2072(7) 0.8485(5) 0.4094(5)
C25 C 0.2854(7) 0.8533(5) 0.0949(5)
C28 C 0.3976(7) 0.6518(5) 0.1043(5)
Fe4 Fe 0.46691(10) 0.49468(7) 0.74943(7)
N14 N 0.6274(6) 0.4106(4) 0.3382(4)
N16 N 0.5950(6) 0.4103(4) 0.1514(4)
H17 H 0.0137376 0.900194 0.182424
N2 N 0.9429(6) 0.8703(4) 0.8645(4)
N10 N 0.2506(9) 0.9064(6) 0.8462(6)
N11 N 0.4050(6) 0.5897(4) 0.8486(4)
C8 C 0.9267(8) 0.8932(5) 0.9554(5)
H6 H 0.8878 0.9595 0.9715
C9 C 0.9996(8) 0.7763(5) 0.8434(5)
C26 C 0.2804(9) 0.8474(5) 0.9031(6)
C27 C 0.3794(7) 0.6451(5) 0.9077(5)
Fe6 Fe 0.89094(11) 0.98346(7) 0.75094(7)
N15 N 0.9536(6) 0.1140(4) 0.3470(4)
Se2 Se 0.98877(8) 0.37798(6) 0.38748(5)
O2 O 0.9677(5) 0.9613(4) 0.2176(4)
C17 C 0.9615(10) 0.3191(6) 0.5832(6)
H13 H 0.8947 0.3805 0.5945
C18 C 0.9909(11) 0.2509(7) 0.6560(6)
H14 H 0.9419 0.2675 0.7180
H18 H 0.912492 0.94845 0.277356
Se2_2 Se 0.01123(8) 0.62202(6) 0.61252(5)
O2_2 O 0.0323(5) 0.0387(4) 0.7824(4)
C17_2 C 0.0385(10) 0.6809(6) 0.4168(6)
H13_2 H 0.1053 0.6195 0.4055
C18_2 C 0.0091(11) 0.7491(7) 0.3440(6)
H14_2 H 0.0581 0.7325 0.2820
H18_2 H 0.0875078 0.0515495 0.722644
N10_2 N 0.7494(9) 0.0936(6) 0.1538(6)
C8_2 C 0.0733(8) 0.1068(5) 0.0446(5)
H6_2 H 0.1122 0.0405 0.0285
C9_2 C 0.0004(8) 0.2237(5) 0.1566(5)
C26_2 C 0.7196(9) 0.1526(5) 0.0969(6)
C27_2 C 0.6206(7) 0.3549(5) 0.0923(5)
Pt1_2 Pt 0.73316(3) 0.25384(2) 0.49263(2)
Pt2_2 Pt 0.66506(3) 0.25277(2) 0.99674(2)
N1_2 N 0.3093(6) 0.4521(4) 0.7951(4)
N3_2 N 0.6250(6) 0.5368(4) 0.7058(4)
N4_2 N 0.9161(8) 0.8361(6) 0.3563(6)
N5_2 N 0.5402(6) 0.3983(4) 0.6500(4)
N8_2 N 0.8305(7) 0.0911(4) 0.6434(4)
N9_2 N 0.7505(6) 0.0833(4) 0.8544(4)
N12_2 N 0.5590(6) 0.4012(4) 0.8375(4)
C1_2 C 0.2660(7) 0.4389(5) 0.8879(5)
H1_2 H 0.3143 0.4481 0.9319
C2_2 C 0.1549(7) 0.4125(5) 0.9228(5)
H2_2 H 0.1283 0.4049 0.9890
C3_2 C 0.0828(7) 0.3971(5) 0.8600(5)
C4_2 C 0.1276(7) 0.4103(5) 0.7630(5)
H3_2 H 0.0815 0.4008 0.7176
C5_2 C 0.2392(7) 0.4371(5) 0.7337(5)
H4_2 H 0.2679 0.4454 0.6679
C7_2 C 0.0366(8) 0.1741(5) 0.9725(5)
H5_2 H 0.0495 0.1546 0.9092
C11_2 C 0.6665(7) 0.5574(5) 0.6140(5)
H9_2 H 0.6167 0.5529 0.5689
C12_2 C 0.7761(7) 0.5845(5) 0.5824(5)
H10_2 H 0.8006 0.5984 0.5172
C13_2 C 0.8509(7) 0.5912(5) 0.6470(5)
C14_2 C 0.8079(7) 0.5733(5) 0.7424(5)
H11_2 H 0.8545 0.5799 0.7888
C15_2 C 0.6970(7) 0.5460(5) 0.7686(5)
H12_2 H 0.6698 0.5330 0.8336
C16_2 C 0.9658(8) 0.7069(6) 0.5061(6)
C19_2 C 0.8479(10) 0.8608(8) 0.4433(8)
H15_2 H 0.7814 0.9225 0.4523
C20_2 C 0.8713(9) 0.7984(7) 0.5221(7)
H16_2 H 0.8244 0.8180 0.5839
C21_2 C 0.6059(7) 0.3431(5) 0.5924(5)
C22_2 C 0.6713(7) 0.3532(5) 0.3928(5)
C23_2 C 0.8700(7) 0.1650(5) 0.3979(5)
C24_2 C 0.7928(7) 0.1515(5) 0.5906(5)
C25_2 C 0.7146(7) 0.1467(5) 0.9051(5)
C28_2 C 0.6024(7) 0.3482(5) 0.8957(5)
H17_2 H 0.986262 0.0998062 0.817576
O1_2 O 0.7430(7) 0.9271(5) 0.7300(5)
H19_2 H 0.757479 0.862599 0.761604
H20_2 H 0.748528 0.920784 0.661235
H7_2 H 0.9869 0.2414 0.2206
C10_2 C 0.9604(8) 0.2966(5) 0.0904(5)
H8_2 H 0.9205 0.3622 0.1090
Se1_2 Se 0.92290(7) 0.36722(5) 0.89968(5)
C6_2 C 0.9797(7) 0.2721(5) 0.9970(5)
loop_
_geom_bond_atom_site_label_1
_geom_bond_atom_site_label_2
_geom_bond_site_symmetry_1
_geom_bond_site_symmetry_2
C6 Se1 1_555 1_555
H8 C10 1_555 1_555
Fe2 O1 1_555 1_555
N13 Fe2 1_555 1_555
O1 H19 1_555 1_555
O1 H20 1_555 1_555
Pt1 C21 1_555 1_555
Pt2 C25 1_555 1_555
Fe1 N1 1_555 1_555
N1 C1 1_555 1_555
N3 Fe1 1_555 1_555
N5 Fe1 1_555 1_555
N6 C22 1_555 1_555
N7 C23 1_555 1_555
N12 Fe1 1_555 1_555
C1 H1 1_555 1_555
C2 C1 1_555 1_555
H2 C2 1_555 1_555
C3 C2 1_555 1_555
C4 C3 1_555 1_555
H3 C4 1_555 1_555
C5 N1 1_555 1_555
H4 C5 1_555 1_555
H5 C7 1_555 1_555
C11 N3 1_555 1_555
H9 C11 1_555 1_555
C12 C11 1_555 1_555
H10 C12 1_555 1_555
C13 C12 1_555 1_555
C14 C13 1_555 1_555
H11 C14 1_555 1_555
C15 N3 1_555 1_555
H12 C15 1_555 1_555
C19 N4 1_555 1_555
H15 C19 1_555 1_555
C20 C16 1_555 1_555
H16 C20 1_555 1_555
C21 N5 1_555 1_555
C22 Pt1 1_555 1_555
C23 Pt1 1_555 1_555
C24 Pt1 1_555 1_555
C25 N9 1_555 1_555
C28 Pt2 1_555 1_555
Fe4 N6 1_555 1_555
N14 Fe1 1_555 1_555
N16 Fe1 1_555 1_555
N8 C24 1_555 1_555
N12 C28 1_555 1_555
C4 C5 1_555 1_555
C14 C15 1_555 1_555
C19 C20 1_555 1_555
N2 C8 1_555 1_555
N10 C26 1_555 1_555
N11 C27 1_555 1_555
H6 C8 1_555 1_555
C9 N2 1_555 1_555
Fe4 N11 1_555 1_555
Fe6 N2 1_555 1_555
H13 C17 1_555 1_555
C18 C17 1_555 1_555
H14 C18 1_555 1_555
O2 H18 1_555 1_555
H13_2 C17_2 1_555 1_555
C18_2 C17_2 1_555 1_555
H14_2 C18_2 1_555 1_555
O2_2 H18_2 1_555 1_555
N13 C8_2 1_555 1_555
N10_2 C26_2 1_555 1_555
N16 C27_2 1_555 1_555
H6_2 C8_2 1_555 1_555
C9_2 N13 1_555 1_555
Pt1_2 C21_2 1_555 1_555
Pt2_2 C25_2 1_555 1_555
Fe4 N1_2 1_555 1_555
N1_2 C1_2 1_555 1_555
N3_2 Fe4 1_555 1_555
N5_2 Fe4 1_555 1_555
N14 C22_2 1_555 1_555
N15 C23_2 1_555 1_555
N12_2 Fe4 1_555 1_555
C1_2 H1_2 1_555 1_555
C2_2 C1_2 1_555 1_555
H2_2 C2_2 1_555 1_555
C3_2 C2_2 1_555 1_555
C4_2 C3_2 1_555 1_555
H3_2 C4_2 1_555 1_555
C5_2 N1_2 1_555 1_555
H4_2 C5_2 1_555 1_555
H5_2 C7_2 1_555 1_555
C11_2 N3_2 1_555 1_555
H9_2 C11_2 1_555 1_555
C12_2 C11_2 1_555 1_555
H10_2 C12_2 1_555 1_555
C13_2 C12_2 1_555 1_555
C14_2 C13_2 1_555 1_555
H11_2 C14_2 1_555 1_555
C15_2 N3_2 1_555 1_555
H12_2 C15_2 1_555 1_555
C19_2 N4_2 1_555 1_555
H15_2 C19_2 1_555 1_555
C20_2 C16_2 1_555 1_555
H16_2 C20_2 1_555 1_555
C21_2 N5_2 1_555 1_555
C22_2 Pt1_2 1_555 1_555
C23_2 Pt1_2 1_555 1_555
C24_2 Pt1_2 1_555 1_555
C25_2 N9_2 1_555 1_555
C28_2 Pt2_2 1_555 1_555
N8_2 C24_2 1_555 1_555
N12_2 C28_2 1_555 1_555
C4_2 C5_2 1_555 1_555
C14_2 C15_2 1_555 1_555
C19_2 C20_2 1_555 1_555
Fe6 O1_2 1_555 1_555
O1_2 H19_2 1_555 1_555
O1_2 H20_2 1_555 1_555
H8_2 C10_2 1_555 1_555
C6_2 Se1_2 1_555 1_555

#END
