
###############################################################################
#
# This file contains modified crystal structure data generated from the
# MOF subset of the Cambridge Structural Database (CSD) v543 
# hosted by the Cambridge Crystallographic Data Centre (CCDC).
#
# This work is licensed under the Creative Commons
# Attribution-NonCommercial-ShareAlike 4.0 International License.
# To view a copy of this license, visit
# http://creativecommons.org/licenses/by-nc-sa/4.0/
# or send a letter to
# Creative Commons, PO Box 1866, Mountain View, CA 94042, USA.
#
# CIF created using the CSD Python API on 29 September 2022
# The structure has been converted into the P1 space group
# The structure has a 3D framework
# The original CSD entry VOKMAL is in the orthorhombic crystal system
# The framework has been calculated to contain at least 10.0% void space
# The void calculation uses a probe of radius 1.32A, grid spacing 0.4
#
###############################################################################

data_VOKMAL
_chemical_formula_moiety         '(C608 H544 Ag32 N128 O92)n'
_symmetry_cell_setting           triclinic
_symmetry_space_group_name_H-M   'P 1'
_symmetry_Int_Tables_number      1
_space_group_name_Hall           'P 1'
loop_
_symmetry_equiv_pos_site_id
_symmetry_equiv_pos_as_xyz
1 x,y,z
_cell_length_a                   23.407(3)
_cell_length_b                   29.545(4)
_cell_length_c                   29.171(4)
_cell_angle_alpha                90
_cell_angle_beta                 90
_cell_angle_gamma                90
_cell_volume                     20173.5
loop_
_atom_site_label
_atom_site_type_symbol
_atom_site_fract_x
_atom_site_fract_y
_atom_site_fract_z
H27 H 0.0009 0.8979 0.6367
C38 C 0.0014(4) 0.8376(3) 0.5693(4)
H31 H 0.0392 0.8310 0.5821
H32 H 0.0037 0.8644 0.5497
C39 C 0.0288(2) 0.3520(2) 0.6150(2)
C40 C 0.0212(2) 0.38361(17) 0.57481(18)
C43 C 0.0046(2) 0.43938(14) 0.49864(17)
C44 C 0.0602(2) 0.42423(15) 0.50969(16)
C45 C 0.0672(2) 0.39550(16) 0.54758(17)
H35 H 0.1041 0.3840 0.5546
C50 C 0.1136(2) 0.45775(16) 0.44466(17)
C51 C 0.1682(2) 0.45295(17) 0.41955(16)
C52 C 0.2077(2) 0.41821(18) 0.42841(18)
H42 H 0.2011 0.3982 0.4533
C53 C 0.2564(2) 0.4124(2) 0.4015(2)
C54 C 0.2651(3) 0.4423(2) 0.3652(2)
H43 H 0.2977 0.4384 0.3462
C55 C 0.2272(3) 0.4779(2) 0.3559(2)
H44 H 0.2342 0.4978 0.3310
C56 C 0.1796(3) 0.48353(19) 0.3834(2)
H45 H 0.1544 0.5082 0.3779
C57 C 0.2964(3) 0.3737(2) 0.4113(3)
H46 H 0.2946 0.3660 0.4439
H47 H 0.3355 0.3825 0.4032
H48 H 0.2850 0.3473 0.3930
N12 N 0.10946(17) 0.43433(14) 0.48463(14)
H67 H 0.1418 0.4243 0.4961
O8 O 0.07042(19) 0.32511(16) 0.61317(16)
O9 O 0.07334(16) 0.48050(12) 0.42931(13)
Ag7 Ag 0.032847(19) 0.282341(15) 0.679767(16)
N17 N 0.0393(2) 0.23395(14) 0.17146(17)
N18 N 0.04775(17) 0.19951(12) 0.20320(14)
O13 O 0.00512(19) 0.35358(17) 0.14637(16)
C1 C 0.7259(2) 0.37525(18) 0.37370(19)
C2 C 0.7228(2) 0.33570(16) 0.34036(17)
C3 C 0.7721(2) 0.32110(16) 0.31850(19)
H1 H 0.8075 0.3362 0.3230
C4 C 0.7679(2) 0.28388(16) 0.28998(17)
C5 C 0.7169(2) 0.26083(15) 0.28170(17)
H2 H 0.7156 0.2354 0.2618
C6 C 0.6679(2) 0.27651(16) 0.30375(16)
C7 C 0.6725(2) 0.31311(16) 0.33405(17)
H3 H 0.6396 0.3225 0.3507
C8 C 0.8319(2) 0.33397(18) 0.21341(18)
H4 H 0.7966 0.3448 0.2278
H5 H 0.8254 0.3295 0.1805
H6 H 0.8622 0.3564 0.2178
C9 C 0.8493(2) 0.29015(15) 0.23479(15)
C10 C 0.8505(2) 0.22965(15) 0.27777(18)
C11 C 0.8335(3) 0.19578(19) 0.3126(2)
H7 H 0.8641 0.1735 0.3163
H8 H 0.7985 0.1804 0.3025
H9 H 0.8264 0.2110 0.3419
C12 C 0.5996(2) 0.22215(17) 0.27072(17)
C13 C 0.5423(2) 0.19946(16) 0.28058(19)
C14 C 0.5073(2) 0.21242(18) 0.3155(2)
H10 H 0.5174 0.2382 0.3331
C15 C 0.4569(3) 0.1893(2) 0.3264(2)
C16 C 0.4440(3) 0.1513(2) 0.2996(3)
H11 H 0.4112 0.1336 0.3063
C17 C 0.4789(3) 0.1396(2) 0.2635(3)
H12 H 0.4688 0.1145 0.2448
C18 C 0.5270(2) 0.16286(17) 0.2542(2)
H13 H 0.5505 0.1539 0.2293
C19 C 0.4218(3) 0.2036(3) 0.3645(3)
H14 H 0.4464 0.2126 0.3901
H15 H 0.3971 0.1786 0.3740
H16 H 0.3982 0.2294 0.3551
C20 C 0.7585(2) 0.60881(18) 0.57295(18)
C21 C 0.7444(2) 0.65102(18) 0.59867(17)
C22 C 0.6916(2) 0.65723(15) 0.61956(16)
H17 H 0.6638 0.6338 0.6187
C23 C 0.6796(2) 0.69749(16) 0.64158(16)
C24 C 0.7189(2) 0.73204(16) 0.64518(18)
H18 H 0.7102 0.7589 0.6617
C25 C 0.7722(2) 0.72647(17) 0.62362(17)
C26 C 0.7839(2) 0.68653(17) 0.60044(17)
H19 H 0.8196 0.6832 0.5854
C27 C 0.6230(2) 0.64426(18) 0.72231(18)
H20 H 0.5976 0.6361 0.7477
H21 H 0.6602 0.6535 0.7345
H22 H 0.6280 0.6181 0.7020
C28 C 0.5979(2) 0.68179(14) 0.69642(16)
C29 C 0.5857(2) 0.73673(16) 0.64715(19)
C30 C 0.5933(3) 0.7677(2) 0.6074(2)
H23 H 0.5562 0.7734 0.5930
H24 H 0.6191 0.7537 0.5850
H25 H 0.6097 0.7964 0.6179
C31 C 0.8204(2) 0.79572(16) 0.65187(19)
C32 C 0.8713(3) 0.82518(18) 0.6465(2)
C33 C 0.9113(3) 0.8185(2) 0.6111(2)
H26 H 0.9053 0.7951 0.5893
C34 C 0.9601(3) 0.8462(2) 0.6076(3)
C35 C 0.9678(3) 0.8793(2) 0.6388(3)
C36 C 0.9294(4) 0.8869(3) 0.6732(3)
H28 H 0.9357 0.9109 0.6943
C37 C 0.8810(3) 0.8597(2) 0.6775(3)
H29 H 0.8547 0.8648 0.7018
H30 H 0.9883 0.8117 0.5512
C41 C 0.9666(2) 0.39988(18) 0.56408(19)
H33 H 0.9347 0.3932 0.5831
C42 C 0.9604(2) 0.42521(16) 0.52619(16)
H34 H 0.9980 0.4586 0.4731
C46 C 0.8920(3) 0.3988(2) 0.4395(2)
H36 H 0.9092 0.3714 0.4525
H37 H 0.9205 0.4150 0.4212
H38 H 0.8596 0.3904 0.4200
C47 C 0.8715(2) 0.42876(17) 0.47755(17)
C48 C 0.8699(2) 0.46863(15) 0.54011(16)
C49 C 0.8864(3) 0.4906(2) 0.58450(19)
H39 H 0.8534 0.5068 0.5972
H40 H 0.9176 0.5121 0.5791
H41 H 0.8990 0.4674 0.6063
C58 C 0.4979(2) 0.64605(18) 0.3438(2)
C59 C 0.4987(2) 0.61636(15) 0.38598(19)
C60 C 0.5465(2) 0.58923(15) 0.39566(19)
H49 H 0.5780 0.5882 0.3752
C61 C 0.5466(2) 0.56447(15) 0.43491(18)
C62 C 0.5007(2) 0.56365(15) 0.46529(17)
H50 H 0.5013 0.5449 0.4917
C63 C 0.4535(2) 0.59140(16) 0.4556(2)
C64 C 0.4529(2) 0.61692(16) 0.4167(2)
H51 H 0.4207 0.6354 0.4103
C65 C 0.6070(2) 0.48730(17) 0.37974(18)
H52 H 0.6115 0.5103 0.3558
H53 H 0.5669 0.4782 0.3817
H54 H 0.6306 0.4609 0.3723
C66 C 0.6252(2) 0.50605(15) 0.42372(16)
C67 C 0.6280(2) 0.54689(16) 0.48704(17)
C68 C 0.6133(3) 0.5791(2) 0.5237(2)
H55 H 0.5830 0.5663 0.5429
H56 H 0.6000 0.6075 0.5101
H57 H 0.6472 0.5849 0.5426
C69 C 0.3952(2) 0.56932(17) 0.52403(19)
C70 C 0.3408(3) 0.57850(19) 0.5499(2)
C71 C 0.3029(3) 0.6124(2) 0.5384(3)
H58 H 0.3091 0.6307 0.5122
C72 C 0.2538(3) 0.6194(3) 0.5671(3)
C73 C 0.2456(4) 0.5927(3) 0.6029(3)
H59 H 0.2125 0.5970 0.6211
C74 C 0.2819(3) 0.5604(3) 0.6142(3)
H60 H 0.2750 0.5427 0.6407
C75 C 0.3294(3) 0.5522(3) 0.5880(2)
H61 H 0.3546 0.5283 0.5961
C76 C 0.2144(4) 0.6576(3) 0.5530(4)
H62 H 0.1795 0.6451 0.5394
H63 H 0.2337 0.6769 0.5305
H64 H 0.2044 0.6756 0.5801
Ag1 Ag 0.745479(15) 0.450312(13) 0.432200(14)
Ag2 Ag 0.745722(16) 0.514496(13) 0.536337(14)
Ag3 Ag 0.976102(16) 0.185747(12) 0.251328(14)
Ag4 Ag 0.967153(19) 0.282341(15) 0.179767(16)
N1 N 0.89604(17) 0.22892(12) 0.25231(15)
N2 N 0.89398(17) 0.26707(12) 0.22470(13)
N3 N 0.81888(17) 0.26845(12) 0.26737(14)
N4 N 0.61443(18) 0.25564(15) 0.29929(15)
H65 H 0.5873 0.2658 0.3175
N5 N 0.5393(2) 0.73395(14) 0.67146(17)
N6 N 0.54775(17) 0.69951(12) 0.70320(14)
N7 N 0.62389(18) 0.70458(13) 0.66089(14)
N8 N 0.8150(2) 0.76061(16) 0.62415(16)
H66 H 0.8416 0.7580 0.6030
N9 N 0.81997(17) 0.47293(14) 0.51979(13)
N10 N 0.82058(18) 0.44774(13) 0.48007(14)
N11 N 0.90373(18) 0.44164(14) 0.51388(14)
N13 N 0.67268(17) 0.52071(13) 0.48708(14)
N14 N 0.67055(17) 0.49441(12) 0.44690(13)
N15 N 0.59663(17) 0.53936(13) 0.44786(14)
N16 N 0.40495(19) 0.59351(15) 0.48515(19)
H68 H 0.3781 0.6128 0.4772
O1 O 0.76764(18) 0.40238(15) 0.36987(17)
O2 O 0.68905(18) 0.37944(15) 0.40309(15)
O3 O 0.63057(17) 0.21002(14) 0.23888(15)
O4 O 0.73396(17) 0.57364(12) 0.58607(13)
O5 O 0.79329(15) 0.61071(13) 0.54028(13)
O6 O 0.78520(19) 0.80344(14) 0.68311(18)
O7 O 0.99488(19) 0.35358(17) 0.64637(16)
O10 O 0.5314(2) 0.63638(14) 0.31170(16)
O11 O 0.46460(19) 0.67988(15) 0.34422(18)
O12 O 0.42852(17) 0.53995(16) 0.53625(16)
Ag5 Ag 0.476102(16) 0.685747(12) 0.751328(14)
Ag6 Ag 0.523898(16) 0.685747(12) 0.251328(14)
Ag8 Ag 0.467153(19) 0.782341(15) 0.679767(16)
O14 O 0.92958(19) 0.32511(16) 0.11317(16)
O15 O 0.9686(2) 0.13638(14) 0.31170(16)
C20_2 C 0.2415(2) 0.60881(18) 0.07295(18)
C21_2 C 0.2556(2) 0.65102(18) 0.09867(17)
C22_2 C 0.3084(2) 0.65723(15) 0.11956(16)
H17_2 H 0.3362 0.6338 0.1187
C23_2 C 0.3204(2) 0.69749(16) 0.14158(16)
C24_2 C 0.2811(2) 0.73204(16) 0.14518(18)
H18_2 H 0.2898 0.7589 0.1617
C25_2 C 0.2278(2) 0.72647(17) 0.12362(17)
C26_2 C 0.2161(2) 0.68653(17) 0.10044(17)
H19_2 H 0.1804 0.6832 0.0854
C27_2 C 0.3770(2) 0.64426(18) 0.22231(18)
H20_2 H 0.4024 0.6361 0.2477
H21_2 H 0.3398 0.6535 0.2345
H22_2 H 0.3720 0.6181 0.2020
C28_2 C 0.4021(2) 0.68179(14) 0.19642(16)
C29_2 C 0.4143(2) 0.73673(16) 0.14715(19)
C30_2 C 0.4067(3) 0.7677(2) 0.1074(2)
H23_2 H 0.4438 0.7734 0.0930
H24_2 H 0.3809 0.7537 0.0850
H25_2 H 0.3903 0.7964 0.1179
C31_2 C 0.1796(2) 0.79572(16) 0.15187(19)
C32_2 C 0.1287(3) 0.82518(18) 0.1465(2)
C33_2 C 0.0887(3) 0.8185(2) 0.1111(2)
H26_2 H 0.0947 0.7951 0.0893
C34_2 C 0.0399(3) 0.8462(2) 0.1076(3)
C35_2 C 0.0322(3) 0.8793(2) 0.1388(3)
C36_2 C 0.0706(4) 0.8869(3) 0.1732(3)
H28_2 H 0.0643 0.9109 0.1943
C37_2 C 0.1190(3) 0.8597(2) 0.1775(3)
H29_2 H 0.1453 0.8648 0.2018
H30_2 H 0.0117 0.8117 0.0512
C41_2 C 0.0334(2) 0.39988(18) 0.06408(19)
H33_2 H 0.0653 0.3932 0.0831
C42_2 C 0.0396(2) 0.42521(16) 0.02619(16)
C48_2 C 0.1301(2) 0.46863(15) 0.04011(16)
C49_2 C 0.1136(3) 0.4906(2) 0.08450(19)
H39_2 H 0.1466 0.5068 0.0972
H40_2 H 0.0824 0.5121 0.0791
H41_2 H 0.1010 0.4674 0.1063
C68_2 C 0.3867(3) 0.5791(2) 0.0237(2)
H55_2 H 0.4170 0.5663 0.0429
H56_2 H 0.4000 0.6075 0.0101
H57_2 H 0.3528 0.5849 0.0426
C69_2 C 0.6048(2) 0.56932(17) 0.02403(19)
C70_2 C 0.6592(3) 0.57850(19) 0.0499(2)
C71_2 C 0.6971(3) 0.6124(2) 0.0384(3)
H58_2 H 0.6909 0.6307 0.0122
C72_2 C 0.7462(3) 0.6194(3) 0.0671(3)
C73_2 C 0.7544(4) 0.5927(3) 0.1029(3)
H59_2 H 0.7875 0.5970 0.1211
C74_2 C 0.7181(3) 0.5604(3) 0.1142(3)
H60_2 H 0.7250 0.5427 0.1407
C75_2 C 0.6706(3) 0.5522(3) 0.0880(2)
H61_2 H 0.6454 0.5283 0.0961
C76_2 C 0.7856(4) 0.6576(3) 0.0530(4)
H62_2 H 0.8205 0.6451 0.0394
H63_2 H 0.7663 0.6769 0.0305
H64_2 H 0.7956 0.6756 0.0801
Ag2_2 Ag 0.254278(16) 0.514496(13) 0.036337(14)
N5_2 N 0.4607(2) 0.73395(14) 0.17146(17)
N6_2 N 0.45225(17) 0.69951(12) 0.20320(14)
N7_2 N 0.37611(18) 0.70458(13) 0.16089(14)
N8_2 N 0.1850(2) 0.76061(16) 0.12415(16)
H66_2 H 0.1584 0.7580 0.1030
N9_2 N 0.18003(17) 0.47293(14) 0.01979(13)
N11_2 N 0.09627(18) 0.44164(14) 0.01388(14)
O4_2 O 0.26604(17) 0.57364(12) 0.08607(13)
O5_2 O 0.20671(15) 0.61071(13) 0.04028(13)
O6_2 O 0.21480(19) 0.80344(14) 0.18311(18)
O12_2 O 0.57148(17) 0.53995(16) 0.03625(16)
Ag8_2 Ag 0.532847(19) 0.782341(15) 0.179767(16)
C1_2 C 0.2741(2) 0.37525(18) 0.87370(19)
C2_2 C 0.2772(2) 0.33570(16) 0.84036(17)
C3_2 C 0.2279(2) 0.32110(16) 0.81850(19)
H1_2 H 0.1925 0.3362 0.8230
C4_2 C 0.2321(2) 0.28388(16) 0.78998(17)
C5_2 C 0.2831(2) 0.26083(15) 0.78170(17)
H2_2 H 0.2844 0.2354 0.7618
C6_2 C 0.3321(2) 0.27651(16) 0.80375(16)
C7_2 C 0.3275(2) 0.31311(16) 0.83405(17)
H3_2 H 0.3604 0.3225 0.8507
C8_2 C 0.1681(2) 0.33397(18) 0.71341(18)
H4_2 H 0.2034 0.3448 0.7278
H5_2 H 0.1746 0.3295 0.6805
H6_2 H 0.1378 0.3564 0.7178
C9_2 C 0.1507(2) 0.29015(15) 0.73479(15)
C10_2 C 0.1495(2) 0.22965(15) 0.77777(18)
C11_2 C 0.1665(3) 0.19578(19) 0.8126(2)
H7_2 H 0.1359 0.1735 0.8163
H8_2 H 0.2015 0.1804 0.8025
H9_2 H 0.1736 0.2110 0.8419
C12_2 C 0.4004(2) 0.22215(17) 0.77072(17)
C13_2 C 0.4577(2) 0.19946(16) 0.78058(19)
C14_2 C 0.4927(2) 0.21242(18) 0.8155(2)
H10_2 H 0.4826 0.2382 0.8331
C15_2 C 0.5431(3) 0.1893(2) 0.8264(2)
C16_2 C 0.5560(3) 0.1513(2) 0.7996(3)
H11_2 H 0.5888 0.1336 0.8063
C17_2 C 0.5211(3) 0.1396(2) 0.7635(3)
H12_2 H 0.5312 0.1145 0.7448
C18_2 C 0.4730(2) 0.16286(17) 0.7542(2)
H13_2 H 0.4495 0.1539 0.7293
C19_2 C 0.5782(3) 0.2036(3) 0.8645(3)
H14_2 H 0.5536 0.2126 0.8901
H15_2 H 0.6029 0.1786 0.8740
H16_2 H 0.6018 0.2294 0.8551
H34_2 H 0.0020 0.4586 0.9731
C46_2 C 0.1080(3) 0.3988(2) 0.9395(2)
H36_2 H 0.0908 0.3714 0.9525
H37_2 H 0.0795 0.4150 0.9212
H38_2 H 0.1404 0.3904 0.9200
C47_2 C 0.1285(2) 0.42876(17) 0.97755(17)
C58_2 C 0.5021(2) 0.64605(18) 0.8438(2)
C59_2 C 0.5013(2) 0.61636(15) 0.88598(19)
C60_2 C 0.4535(2) 0.58923(15) 0.89566(19)
H49_2 H 0.4220 0.5882 0.8752
C61_2 C 0.4534(2) 0.56447(15) 0.93491(18)
C62_2 C 0.4993(2) 0.56365(15) 0.96529(17)
H50_2 H 0.4987 0.5449 0.9917
C63_2 C 0.5465(2) 0.59140(16) 0.9556(2)
C64_2 C 0.5471(2) 0.61692(16) 0.9167(2)
H51_2 H 0.5793 0.6354 0.9103
C65_2 C 0.3930(2) 0.48730(17) 0.87974(18)
H52_2 H 0.3885 0.5103 0.8558
H53_2 H 0.4331 0.4782 0.8817
H54_2 H 0.3694 0.4609 0.8723
C66_2 C 0.3748(2) 0.50605(15) 0.92372(16)
C67_2 C 0.3720(2) 0.54689(16) 0.98704(17)
Ag1_2 Ag 0.254521(15) 0.450312(13) 0.932200(14)
Ag3_2 Ag 0.023898(16) 0.185747(12) 0.751328(14)
N1_2 N 0.10396(17) 0.22892(12) 0.75231(15)
N2_2 N 0.10602(17) 0.26707(12) 0.72470(13)
N3_2 N 0.18112(17) 0.26845(12) 0.76737(14)
N4_2 N 0.38557(18) 0.25564(15) 0.79929(15)
H65_2 H 0.4127 0.2658 0.8175
N10_2 N 0.17942(18) 0.44774(13) 0.98007(14)
N13_2 N 0.32732(17) 0.52071(13) 0.98708(14)
N14_2 N 0.32945(17) 0.49441(12) 0.94690(13)
N15_2 N 0.40337(17) 0.53936(13) 0.94786(14)
N16_2 N 0.59505(19) 0.59351(15) 0.98515(19)
H68_2 H 0.6219 0.6128 0.9772
O1_2 O 0.23236(18) 0.40238(15) 0.86987(17)
O2_2 O 0.31095(18) 0.37944(15) 0.90309(15)
O3_2 O 0.36943(17) 0.21002(14) 0.73888(15)
O10_2 O 0.4686(2) 0.63638(14) 0.81170(16)
O11_2 O 0.53540(19) 0.67988(15) 0.84422(18)
O15_2 O 0.0314(2) 0.13638(14) 0.81170(16)
H27_2 H 0.9991 0.8979 0.1367
C38_2 C 0.9986(4) 0.8376(3) 0.0693(4)
H31_2 H 0.9608 0.8310 0.0821
H32_2 H 0.9963 0.8644 0.0497
C39_2 C 0.9712(2) 0.3520(2) 0.1150(2)
C40_2 C 0.9788(2) 0.38361(17) 0.07481(18)
C44_2 C 0.9398(2) 0.42423(15) 0.00969(16)
C45_2 C 0.9328(2) 0.39550(16) 0.04758(17)
H35_2 H 0.8959 0.3840 0.0546
C43_2 C 0.9954(2) 0.43938(14) 0.99864(17)
C50_2 C 0.8864(2) 0.45775(16) 0.94466(17)
C51_2 C 0.8318(2) 0.45295(17) 0.91955(16)
C52_2 C 0.7923(2) 0.41821(18) 0.92841(18)
H42_2 H 0.7989 0.3982 0.9533
C53_2 C 0.7436(2) 0.4124(2) 0.9015(2)
C54_2 C 0.7349(3) 0.4423(2) 0.8652(2)
H43_2 H 0.7023 0.4384 0.8462
C55_2 C 0.7728(3) 0.4779(2) 0.8559(2)
H44_2 H 0.7658 0.4978 0.8310
C56_2 C 0.8204(3) 0.48353(19) 0.8834(2)
H45_2 H 0.8456 0.5082 0.8779
C57_2 C 0.7036(3) 0.3737(2) 0.9113(3)
H46_2 H 0.7054 0.3660 0.9439
H47_2 H 0.6645 0.3825 0.9032
H48_2 H 0.7150 0.3473 0.8930
N12_2 N 0.89054(17) 0.43433(14) 0.98463(14)
H67_2 H 0.8582 0.4243 0.9961
O9_2 O 0.92666(16) 0.48050(12) 0.92931(13)
N17_2 N 0.9607(2) 0.23395(14) 0.67146(17)
N18_2 N 0.95225(17) 0.19951(12) 0.70320(14)
C20_3 C 0.2585(2) 0.10881(18) 0.07295(18)
C21_3 C 0.2444(2) 0.15102(18) 0.09867(17)
C22_3 C 0.1916(2) 0.15723(15) 0.11956(16)
H17_3 H 0.1638 0.1338 0.1187
C23_3 C 0.1796(2) 0.19749(16) 0.14158(16)
C24_3 C 0.2189(2) 0.23204(16) 0.14518(18)
H18_3 H 0.2102 0.2589 0.1617
C25_3 C 0.2722(2) 0.22647(17) 0.12362(17)
C26_3 C 0.2839(2) 0.18653(17) 0.10044(17)
H19_3 H 0.3196 0.1832 0.0854
C27_3 C 0.1230(2) 0.14426(18) 0.22231(18)
H20_3 H 0.0976 0.1361 0.2477
H21_3 H 0.1602 0.1535 0.2345
H22_3 H 0.1280 0.1181 0.2020
C28_3 C 0.0979(2) 0.18179(14) 0.19642(16)
C29_3 C 0.0857(2) 0.23673(16) 0.14715(19)
C30_3 C 0.0933(3) 0.2677(2) 0.1074(2)
H23_3 H 0.0562 0.2734 0.0930
H24_3 H 0.1191 0.2537 0.0850
H25_3 H 0.1097 0.2964 0.1179
C31_3 C 0.3204(2) 0.29572(16) 0.15187(19)
C32_3 C 0.3713(3) 0.32518(18) 0.1465(2)
C33_3 C 0.4113(3) 0.3185(2) 0.1111(2)
H26_3 H 0.4053 0.2951 0.0893
C34_3 C 0.4601(3) 0.3462(2) 0.1076(3)
C35_3 C 0.4678(3) 0.3793(2) 0.1388(3)
H27_3 H 0.5009 0.3979 0.1367
C36_3 C 0.4294(4) 0.3869(3) 0.1732(3)
H28_3 H 0.4357 0.4109 0.1943
C37_3 C 0.3810(3) 0.3597(2) 0.1775(3)
H29_3 H 0.3547 0.3648 0.2018
C38_3 C 0.5014(4) 0.3376(3) 0.0693(4)
H30_3 H 0.4883 0.3117 0.0512
H31_3 H 0.5392 0.3310 0.0821
H32_3 H 0.5037 0.3644 0.0497
H39_3 H 0.3534 0.0068 0.0972
H40_3 H 0.4176 0.0121 0.0791
C68_3 C 0.1133(3) 0.0791(2) 0.0237(2)
H55_3 H 0.0830 0.0663 0.0429
H56_3 H 0.1000 0.1075 0.0101
H57_3 H 0.1472 0.0849 0.0426
Ag2_3 Ag 0.245722(16) 0.014496(13) 0.036337(14)
N7_3 N 0.12389(18) 0.20458(13) 0.16089(14)
N8_3 N 0.3150(2) 0.26061(16) 0.12415(16)
H66_3 H 0.3416 0.2580 0.1030
O4_3 O 0.23396(17) 0.07364(12) 0.08607(13)
O5_3 O 0.29329(15) 0.11071(13) 0.04028(13)
O6_3 O 0.28520(19) 0.30344(14) 0.18311(18)
H45_3 H 0.6544 0.0082 0.8779
C60_3 C 0.0465(2) 0.08923(15) 0.89566(19)
H49_3 H 0.0780 0.0882 0.8752
C61_3 C 0.0466(2) 0.06447(15) 0.93491(18)
C62_3 C 0.0007(2) 0.06365(15) 0.96529(17)
H50_3 H 0.0013 0.0449 0.9917
H52_3 H 0.1115 0.0103 0.8558
C66_3 C 0.1252(2) 0.00605(15) 0.92372(16)
C67_3 C 0.1280(2) 0.04689(16) 0.98704(17)
N13_3 N 0.17268(17) 0.02071(13) 0.98708(14)
N15_3 N 0.09663(17) 0.03936(13) 0.94786(14)
C39_3 C 0.5288(2) 0.8520(2) 0.1150(2)
C40_3 C 0.5212(2) 0.88361(17) 0.07481(18)
C41_3 C 0.4666(2) 0.89988(18) 0.06408(19)
H33_3 H 0.4347 0.8932 0.0831
C42_3 C 0.4604(2) 0.92521(16) 0.02619(16)
C44_3 C 0.5602(2) 0.92423(15) 0.00969(16)
C45_3 C 0.5672(2) 0.89550(16) 0.04758(17)
H35_3 H 0.6041 0.8840 0.0546
C48_3 C 0.3699(2) 0.96863(15) 0.04011(16)
C49_3 C 0.3864(3) 0.9906(2) 0.08450(19)
H41_3 H 0.3990 0.9674 0.1063
N9_3 N 0.31997(17) 0.97293(14) 0.01979(13)
N11_3 N 0.40373(18) 0.94164(14) 0.01388(14)
O7_2 O 0.49488(19) 0.85358(17) 0.14637(16)
O8_2 O 0.57042(19) 0.82511(16) 0.11317(16)
C1_3 C 0.2259(2) 0.87525(18) 0.87370(19)
C2_3 C 0.2228(2) 0.83570(16) 0.84036(17)
C3_3 C 0.2721(2) 0.82110(16) 0.81850(19)
H1_3 H 0.3075 0.8362 0.8230
C4_3 C 0.2679(2) 0.78388(16) 0.78998(17)
C5_3 C 0.2169(2) 0.76083(15) 0.78170(17)
H2_3 H 0.2156 0.7354 0.7618
C6_3 C 0.1679(2) 0.77651(16) 0.80375(16)
C7_3 C 0.1725(2) 0.81311(16) 0.83405(17)
H3_3 H 0.1396 0.8225 0.8507
C8_3 C 0.3319(2) 0.83397(18) 0.71341(18)
H4_3 H 0.2966 0.8448 0.7278
H5_3 H 0.3254 0.8295 0.6805
H6_3 H 0.3622 0.8564 0.7178
C9_3 C 0.3493(2) 0.79015(15) 0.73479(15)
C10_3 C 0.3505(2) 0.72965(15) 0.77777(18)
C11_3 C 0.3335(3) 0.69578(19) 0.8126(2)
H7_3 H 0.3641 0.6735 0.8163
H8_3 H 0.2985 0.6804 0.8025
H9_3 H 0.3264 0.7110 0.8419
C12_3 C 0.0996(2) 0.72215(17) 0.77072(17)
C13_3 C 0.0423(2) 0.69946(16) 0.78058(19)
C14_3 C 0.0073(2) 0.71242(18) 0.8155(2)
H10_3 H 0.0174 0.7382 0.8331
C18_3 C 0.0270(2) 0.66286(17) 0.7542(2)
H13_3 H 0.0505 0.6539 0.7293
C43_3 C 0.5046(2) 0.93938(14) 0.99864(17)
H34_3 H 0.4980 0.9586 0.9731
C46_3 C 0.3920(3) 0.8988(2) 0.9395(2)
H36_3 H 0.4092 0.8714 0.9525
H37_3 H 0.4205 0.9150 0.9212
H38_3 H 0.3596 0.8904 0.9200
C47_3 C 0.3715(2) 0.92876(17) 0.97755(17)
C50_3 C 0.6136(2) 0.95775(16) 0.94466(17)
C51_3 C 0.6682(2) 0.95295(17) 0.91955(16)
C52_3 C 0.7077(2) 0.91821(18) 0.92841(18)
H42_3 H 0.7011 0.8982 0.9533
C53_3 C 0.7564(2) 0.9124(2) 0.9015(2)
C54_3 C 0.7651(3) 0.9423(2) 0.8652(2)
H43_3 H 0.7977 0.9384 0.8462
C55_3 C 0.7272(3) 0.9779(2) 0.8559(2)
H44_3 H 0.7342 0.9978 0.8310
C56_3 C 0.6796(3) 0.98353(19) 0.8834(2)
C57_3 C 0.7964(3) 0.8737(2) 0.9113(3)
H46_3 H 0.7946 0.8660 0.9439
H47_3 H 0.8355 0.8825 0.9032
H48_3 H 0.7850 0.8473 0.8930
C65_3 C 0.1070(2) 0.98730(17) 0.87974(18)
H53_3 H 0.0669 0.9782 0.8817
H54_3 H 0.1306 0.9609 0.8723
Ag1_3 Ag 0.245479(15) 0.950312(13) 0.932200(14)
N1_3 N 0.39604(17) 0.72892(12) 0.75231(15)
N2_3 N 0.39398(17) 0.76707(12) 0.72470(13)
N3_3 N 0.31888(17) 0.76845(12) 0.76737(14)
N4_3 N 0.11443(18) 0.75564(15) 0.79929(15)
H65_3 H 0.0873 0.7658 0.8175
N10_3 N 0.32058(18) 0.94774(13) 0.98007(14)
N12_3 N 0.60946(17) 0.93433(14) 0.98463(14)
H67_3 H 0.6418 0.9243 0.9961
N14_3 N 0.17055(17) 0.99441(12) 0.94690(13)
O1_3 O 0.26764(18) 0.90238(15) 0.86987(17)
O2_3 O 0.18905(18) 0.87944(15) 0.90309(15)
O3_3 O 0.13057(17) 0.71002(14) 0.73888(15)
O9_3 O 0.57334(16) 0.98050(12) 0.92931(13)
O13_2 O 0.50512(19) 0.85358(17) 0.64637(16)
O14_2 O 0.42958(19) 0.82511(16) 0.61317(16)
C69_3 C 0.8952(2) 0.06932(17) 0.02403(19)
C70_3 C 0.8408(3) 0.07850(19) 0.0499(2)
C71_3 C 0.8029(3) 0.1124(2) 0.0384(3)
H58_3 H 0.8091 0.1307 0.0122
C72_3 C 0.7538(3) 0.1194(3) 0.0671(3)
C73_3 C 0.7456(4) 0.0927(3) 0.1029(3)
H59_3 H 0.7125 0.0970 0.1211
C74_3 C 0.7819(3) 0.0604(3) 0.1142(3)
H60_3 H 0.7750 0.0427 0.1407
C75_3 C 0.8294(3) 0.0522(3) 0.0880(2)
H61_3 H 0.8546 0.0283 0.0961
C76_3 C 0.7144(4) 0.1576(3) 0.0530(4)
H62_3 H 0.6795 0.1451 0.0394
H63_3 H 0.7337 0.1769 0.0305
H64_3 H 0.7044 0.1756 0.0801
O12_3 O 0.92852(17) 0.03995(16) 0.03625(16)
C58_3 C 0.0021(2) 0.14605(18) 0.3438(2)
C59_3 C 0.0013(2) 0.11636(15) 0.38598(19)
C63_3 C 0.0465(2) 0.09140(16) 0.4556(2)
C64_3 C 0.0471(2) 0.11692(16) 0.4167(2)
H51_3 H 0.0793 0.1354 0.4103
C69_4 C 0.1048(2) 0.06932(17) 0.52403(19)
C70_4 C 0.1592(3) 0.07850(19) 0.5499(2)
C71_4 C 0.1971(3) 0.1124(2) 0.5384(3)
H58_4 H 0.1909 0.1307 0.5122
C72_4 C 0.2462(3) 0.1194(3) 0.5671(3)
C73_4 C 0.2544(4) 0.0927(3) 0.6029(3)
H59_4 H 0.2875 0.0970 0.6211
C74_4 C 0.2181(3) 0.0604(3) 0.6142(3)
H60_4 H 0.2250 0.0427 0.6407
C75_4 C 0.1706(3) 0.0522(3) 0.5880(2)
H61_4 H 0.1454 0.0283 0.5961
C76_4 C 0.2856(4) 0.1576(3) 0.5530(4)
H62_4 H 0.3205 0.1451 0.5394
H63_4 H 0.2663 0.1769 0.5305
H64_4 H 0.2956 0.1756 0.5801
N16_3 N 0.09505(19) 0.09351(15) 0.48515(19)
H68_3 H 0.1219 0.1128 0.4772
O11_3 O 0.03540(19) 0.17988(15) 0.34422(18)
O12_4 O 0.07148(17) 0.03995(16) 0.53625(16)
C20_4 C 0.7415(2) 0.10881(18) 0.57295(18)
C21_4 C 0.7556(2) 0.15102(18) 0.59867(17)
C22_4 C 0.8084(2) 0.15723(15) 0.61956(16)
H17_4 H 0.8362 0.1338 0.6187
C23_4 C 0.8204(2) 0.19749(16) 0.64158(16)
C24_4 C 0.7811(2) 0.23204(16) 0.64518(18)
H18_4 H 0.7898 0.2589 0.6617
C25_4 C 0.7278(2) 0.22647(17) 0.62362(17)
C26_4 C 0.7161(2) 0.18653(17) 0.60044(17)
H19_4 H 0.6804 0.1832 0.5854
C27_4 C 0.8770(2) 0.14426(18) 0.72231(18)
H20_4 H 0.9024 0.1361 0.7477
H21_4 H 0.8398 0.1535 0.7345
H22_4 H 0.8720 0.1181 0.7020
C28_4 C 0.9021(2) 0.18179(14) 0.69642(16)
C29_4 C 0.9143(2) 0.23673(16) 0.64715(19)
C30_4 C 0.9067(3) 0.2677(2) 0.6074(2)
H23_4 H 0.9438 0.2734 0.5930
H24_4 H 0.8809 0.2537 0.5850
H25_4 H 0.8903 0.2964 0.6179
C31_4 C 0.6796(2) 0.29572(16) 0.65187(19)
C32_4 C 0.6287(3) 0.32518(18) 0.6465(2)
C33_4 C 0.5887(3) 0.3185(2) 0.6111(2)
H26_4 H 0.5947 0.2951 0.5893
C34_4 C 0.5399(3) 0.3462(2) 0.6076(3)
C35_4 C 0.5322(3) 0.3793(2) 0.6388(3)
H27_4 H 0.4991 0.3979 0.6367
C36_4 C 0.5706(4) 0.3869(3) 0.6732(3)
H28_4 H 0.5643 0.4109 0.6943
C37_4 C 0.6190(3) 0.3597(2) 0.6775(3)
H29_4 H 0.6453 0.3648 0.7018
C38_4 C 0.4986(4) 0.3376(3) 0.5693(4)
H30_4 H 0.5117 0.3117 0.5512
H31_4 H 0.4608 0.3310 0.5821
H32_4 H 0.4963 0.3644 0.5497
H39_4 H 0.6466 0.0068 0.5972
H40_4 H 0.5824 0.0121 0.5791
H45_4 H 0.3456 0.0082 0.3779
C60_4 C 0.9535(2) 0.08923(15) 0.39566(19)
H49_4 H 0.9220 0.0882 0.3752
C61_4 C 0.9534(2) 0.06447(15) 0.43491(18)
C62_4 C 0.9993(2) 0.06365(15) 0.46529(17)
H50_4 H 0.9987 0.0449 0.4917
H52_4 H 0.8885 0.0103 0.3558
C66_4 C 0.8748(2) 0.00605(15) 0.42372(16)
C67_4 C 0.8720(2) 0.04689(16) 0.48704(17)
C68_4 C 0.8867(3) 0.0791(2) 0.5237(2)
H55_4 H 0.9170 0.0663 0.5429
H56_4 H 0.9000 0.1075 0.5101
H57_4 H 0.8528 0.0849 0.5426
Ag2_4 Ag 0.754278(16) 0.014496(13) 0.536337(14)
N7_4 N 0.87611(18) 0.20458(13) 0.66089(14)
N8_4 N 0.6850(2) 0.26061(16) 0.62415(16)
H66_4 H 0.6584 0.2580 0.6030
N13_4 N 0.82732(17) 0.02071(13) 0.48708(14)
N15_4 N 0.90337(17) 0.03936(13) 0.44786(14)
O4_4 O 0.76604(17) 0.07364(12) 0.58607(13)
O5_4 O 0.70671(15) 0.11071(13) 0.54028(13)
O6_4 O 0.71480(19) 0.30344(14) 0.68311(18)
C1_4 C 0.7741(2) 0.87525(18) 0.37370(19)
C2_4 C 0.7772(2) 0.83570(16) 0.34036(17)
C3_4 C 0.7279(2) 0.82110(16) 0.31850(19)
H1_4 H 0.6925 0.8362 0.3230
C4_4 C 0.7321(2) 0.78388(16) 0.28998(17)
C5_4 C 0.7831(2) 0.76083(15) 0.28170(17)
H2_4 H 0.7844 0.7354 0.2618
C6_4 C 0.8321(2) 0.77651(16) 0.30375(16)
C7_4 C 0.8275(2) 0.81311(16) 0.33405(17)
H3_4 H 0.8604 0.8225 0.3507
C8_4 C 0.6681(2) 0.83397(18) 0.21341(18)
H4_4 H 0.7034 0.8448 0.2278
H5_4 H 0.6746 0.8295 0.1805
H6_4 H 0.6378 0.8564 0.2178
C9_4 C 0.6507(2) 0.79015(15) 0.23479(15)
C10_4 C 0.6495(2) 0.72965(15) 0.27777(18)
C11_4 C 0.6665(3) 0.69578(19) 0.3126(2)
H7_4 H 0.6359 0.6735 0.3163
H8_4 H 0.7015 0.6804 0.3025
H9_4 H 0.6736 0.7110 0.3419
C12_4 C 0.9004(2) 0.72215(17) 0.27072(17)
C13_4 C 0.9577(2) 0.69946(16) 0.28058(19)
C14_4 C 0.9927(2) 0.71242(18) 0.3155(2)
H10_4 H 0.9826 0.7382 0.3331
C18_4 C 0.9730(2) 0.66286(17) 0.2542(2)
H13_4 H 0.9495 0.6539 0.2293
C39_4 C 0.4712(2) 0.8520(2) 0.6150(2)
C40_4 C 0.4788(2) 0.88361(17) 0.57481(18)
C41_4 C 0.5334(2) 0.89988(18) 0.56408(19)
H33_4 H 0.5653 0.8932 0.5831
C42_4 C 0.5396(2) 0.92521(16) 0.52619(16)
C43_4 C 0.4954(2) 0.93938(14) 0.49864(17)
H34_4 H 0.5020 0.9586 0.4731
C44_4 C 0.4398(2) 0.92423(15) 0.50969(16)
C45_4 C 0.4328(2) 0.89550(16) 0.54758(17)
H35_4 H 0.3959 0.8840 0.5546
C46_4 C 0.6080(3) 0.8988(2) 0.4395(2)
H36_4 H 0.5908 0.8714 0.4525
H37_4 H 0.5795 0.9150 0.4212
H38_4 H 0.6404 0.8904 0.4200
C47_4 C 0.6285(2) 0.92876(17) 0.47755(17)
C48_4 C 0.6301(2) 0.96863(15) 0.54011(16)
C49_4 C 0.6136(3) 0.9906(2) 0.58450(19)
H41_4 H 0.6010 0.9674 0.6063
C50_4 C 0.3864(2) 0.95775(16) 0.44466(17)
C51_4 C 0.3318(2) 0.95295(17) 0.41955(16)
C52_4 C 0.2923(2) 0.91821(18) 0.42841(18)
H42_4 H 0.2989 0.8982 0.4533
C53_4 C 0.2436(2) 0.9124(2) 0.4015(2)
C54_4 C 0.2349(3) 0.9423(2) 0.3652(2)
H43_4 H 0.2023 0.9384 0.3462
C55_4 C 0.2728(3) 0.9779(2) 0.3559(2)
H44_4 H 0.2658 0.9978 0.3310
C56_4 C 0.3204(3) 0.98353(19) 0.3834(2)
C57_4 C 0.2036(3) 0.8737(2) 0.4113(3)
H46_4 H 0.2054 0.8660 0.4439
H47_4 H 0.1645 0.8825 0.4032
H48_4 H 0.2150 0.8473 0.3930
C65_4 C 0.8930(2) 0.98730(17) 0.37974(18)
H53_4 H 0.9331 0.9782 0.3817
H54_4 H 0.8694 0.9609 0.3723
Ag1_4 Ag 0.754521(15) 0.950312(13) 0.432200(14)
N1_4 N 0.60396(17) 0.72892(12) 0.25231(15)
N2_4 N 0.60602(17) 0.76707(12) 0.22470(13)
N3_4 N 0.68112(17) 0.76845(12) 0.26737(14)
N4_4 N 0.88557(18) 0.75564(15) 0.29929(15)
H65_4 H 0.9127 0.7658 0.3175
N9_4 N 0.68003(17) 0.97293(14) 0.51979(13)
N10_4 N 0.67942(18) 0.94774(13) 0.48007(14)
N11_4 N 0.59627(18) 0.94164(14) 0.51388(14)
N12_4 N 0.39054(17) 0.93433(14) 0.48463(14)
H67_4 H 0.3582 0.9243 0.4961
N14_4 N 0.82945(17) 0.99441(12) 0.44690(13)
O1_4 O 0.73236(18) 0.90238(15) 0.36987(17)
O2_4 O 0.81095(18) 0.87944(15) 0.40309(15)
O3_4 O 0.86943(17) 0.71002(14) 0.23888(15)
O9_4 O 0.42666(16) 0.98050(12) 0.42931(13)
C1_5 C 0.2741(2) 0.62475(18) 0.37370(19)
C2_5 C 0.2772(2) 0.66430(16) 0.34036(17)
C3_5 C 0.2279(2) 0.67890(16) 0.31850(19)
H1_5 H 0.1925 0.6638 0.3230
C4_5 C 0.2321(2) 0.71612(16) 0.28998(17)
C5_5 C 0.2831(2) 0.73917(15) 0.28170(17)
H2_5 H 0.2844 0.7646 0.2618
C6_5 C 0.3321(2) 0.72349(16) 0.30375(16)
C7_5 C 0.3275(2) 0.68689(16) 0.33405(17)
H3_5 H 0.3604 0.6775 0.3507
C8_5 C 0.1681(2) 0.66603(18) 0.21341(18)
H4_5 H 0.2034 0.6552 0.2278
H5_5 H 0.1746 0.6705 0.1805
H6_5 H 0.1378 0.6436 0.2178
C9_5 C 0.1507(2) 0.70985(15) 0.23479(15)
C10_5 C 0.1495(2) 0.77035(15) 0.27777(18)
C11_5 C 0.1665(3) 0.80422(19) 0.3126(2)
H7_5 H 0.1359 0.8265 0.3163
H8_5 H 0.2015 0.8196 0.3025
H9_5 H 0.1736 0.7890 0.3419
C12_5 C 0.4004(2) 0.77785(17) 0.27072(17)
C13_5 C 0.4577(2) 0.80054(16) 0.28058(19)
C14_5 C 0.4927(2) 0.78758(18) 0.3155(2)
H10_5 H 0.4826 0.7618 0.3331
C15_3 C 0.5431(3) 0.8107(2) 0.3264(2)
C16_3 C 0.5560(3) 0.8487(2) 0.2996(3)
H11_3 H 0.5888 0.8664 0.3063
C17_3 C 0.5211(3) 0.8604(2) 0.2635(3)
H12_3 H 0.5312 0.8855 0.2448
C18_5 C 0.4730(2) 0.83714(17) 0.2542(2)
H13_5 H 0.4495 0.8461 0.2293
C19_3 C 0.5782(3) 0.7964(3) 0.3645(3)
H14_3 H 0.5536 0.7874 0.3901
H15_3 H 0.6029 0.8214 0.3740
H16_3 H 0.6018 0.7706 0.3551
C20_5 C 0.2415(2) 0.39119(18) 0.57295(18)
C21_5 C 0.2556(2) 0.34898(18) 0.59867(17)
C22_5 C 0.3084(2) 0.34277(15) 0.61956(16)
H17_5 H 0.3362 0.3662 0.6187
C23_5 C 0.3204(2) 0.30251(16) 0.64158(16)
C24_5 C 0.2811(2) 0.26796(16) 0.64518(18)
H18_5 H 0.2898 0.2411 0.6617
C25_5 C 0.2278(2) 0.27353(17) 0.62362(17)
C26_5 C 0.2161(2) 0.31347(17) 0.60044(17)
H19_5 H 0.1804 0.3168 0.5854
C27_5 C 0.3770(2) 0.35574(18) 0.72231(18)
H20_5 H 0.4024 0.3639 0.7477
H21_5 H 0.3398 0.3465 0.7345
H22_5 H 0.3720 0.3819 0.7020
C28_5 C 0.4021(2) 0.31821(14) 0.69642(16)
C29_5 C 0.4143(2) 0.26327(16) 0.64715(19)
C30_5 C 0.4067(3) 0.2323(2) 0.6074(2)
H23_5 H 0.4438 0.2266 0.5930
H24_5 H 0.3809 0.2463 0.5850
H25_5 H 0.3903 0.2036 0.6179
C31_5 C 0.1796(2) 0.20428(16) 0.65187(19)
C32_5 C 0.1287(3) 0.17482(18) 0.6465(2)
C33_5 C 0.0887(3) 0.1815(2) 0.6111(2)
H26_5 H 0.0947 0.2049 0.5893
C34_5 C 0.0399(3) 0.1538(2) 0.6076(3)
C35_5 C 0.0322(3) 0.1207(2) 0.6388(3)
C36_5 C 0.0706(4) 0.1131(3) 0.6732(3)
H28_5 H 0.0643 0.0891 0.6943
C37_5 C 0.1190(3) 0.1403(2) 0.6775(3)
H29_5 H 0.1453 0.1352 0.7018
H30_5 H 0.0117 0.1883 0.5512
C41_5 C 0.0334(2) 0.60012(18) 0.56408(19)
H33_5 H 0.0653 0.6068 0.5831
C42_5 C 0.0396(2) 0.57479(16) 0.52619(16)
H34_5 H 0.0020 0.5414 0.4731
C46_5 C 0.1080(3) 0.6012(2) 0.4395(2)
H36_5 H 0.0908 0.6286 0.4525
H37_5 H 0.0795 0.5850 0.4212
H38_5 H 0.1404 0.6096 0.4200
C47_5 C 0.1285(2) 0.57124(17) 0.47755(17)
C48_5 C 0.1301(2) 0.53137(15) 0.54011(16)
C49_5 C 0.1136(3) 0.5094(2) 0.58450(19)
H39_5 H 0.1466 0.4932 0.5972
H40_5 H 0.0824 0.4879 0.5791
H41_5 H 0.1010 0.5326 0.6063
C58_4 C 0.5021(2) 0.35395(18) 0.3438(2)
C59_4 C 0.5013(2) 0.38364(15) 0.38598(19)
C60_5 C 0.4535(2) 0.41077(15) 0.39566(19)
H49_5 H 0.4220 0.4118 0.3752
C61_5 C 0.4534(2) 0.43553(15) 0.43491(18)
C62_5 C 0.4993(2) 0.43635(15) 0.46529(17)
H50_5 H 0.4987 0.4551 0.4917
C63_4 C 0.5465(2) 0.40860(16) 0.4556(2)
C64_4 C 0.5471(2) 0.38308(16) 0.4167(2)
H51_4 H 0.5793 0.3646 0.4103
C65_5 C 0.3930(2) 0.51270(17) 0.37974(18)
H52_5 H 0.3885 0.4897 0.3558
H53_5 H 0.4331 0.5218 0.3817
H54_5 H 0.3694 0.5391 0.3723
C66_5 C 0.3748(2) 0.49395(15) 0.42372(16)
C67_5 C 0.3720(2) 0.45311(16) 0.48704(17)
C68_5 C 0.3867(3) 0.4209(2) 0.5237(2)
H55_5 H 0.4170 0.4337 0.5429
H56_5 H 0.4000 0.3925 0.5101
H57_5 H 0.3528 0.4151 0.5426
C69_5 C 0.6048(2) 0.43068(17) 0.52403(19)
C70_5 C 0.6592(3) 0.42150(19) 0.5499(2)
C71_5 C 0.6971(3) 0.3876(2) 0.5384(3)
H58_5 H 0.6909 0.3693 0.5122
C72_5 C 0.7462(3) 0.3806(3) 0.5671(3)
C73_5 C 0.7544(4) 0.4073(3) 0.6029(3)
H59_5 H 0.7875 0.4030 0.6211
C74_5 C 0.7181(3) 0.4396(3) 0.6142(3)
H60_5 H 0.7250 0.4573 0.6407
C75_5 C 0.6706(3) 0.4478(3) 0.5880(2)
H61_5 H 0.6454 0.4717 0.5961
C76_5 C 0.7856(4) 0.3424(3) 0.5530(4)
H62_5 H 0.8205 0.3549 0.5394
H63_5 H 0.7663 0.3231 0.5305
H64_5 H 0.7956 0.3244 0.5801
Ag1_5 Ag 0.254521(15) 0.549688(13) 0.432200(14)
Ag2_5 Ag 0.254278(16) 0.485504(13) 0.536337(14)
Ag3_3 Ag 0.023898(16) 0.814253(12) 0.251328(14)
Ag4_2 Ag 0.032847(19) 0.717659(15) 0.179767(16)
N1_5 N 0.10396(17) 0.77108(12) 0.25231(15)
N2_5 N 0.10602(17) 0.73293(12) 0.22470(13)
N3_5 N 0.18112(17) 0.73155(12) 0.26737(14)
N4_5 N 0.38557(18) 0.74436(15) 0.29929(15)
H65_5 H 0.4127 0.7342 0.3175
N5_3 N 0.4607(2) 0.26605(14) 0.67146(17)
N6_3 N 0.45225(17) 0.30049(12) 0.70320(14)
N7_5 N 0.37611(18) 0.29542(13) 0.66089(14)
N8_5 N 0.1850(2) 0.23939(16) 0.62415(16)
H66_5 H 0.1584 0.2420 0.6030
N9_5 N 0.18003(17) 0.52707(14) 0.51979(13)
N10_5 N 0.17942(18) 0.55226(13) 0.48007(14)
N11_5 N 0.09627(18) 0.55836(14) 0.51388(14)
N13_5 N 0.32732(17) 0.47929(13) 0.48708(14)
N14_5 N 0.32945(17) 0.50559(12) 0.44690(13)
N15_5 N 0.40337(17) 0.46064(13) 0.44786(14)
N16_4 N 0.59505(19) 0.40649(15) 0.48515(19)
H68_4 H 0.6219 0.3872 0.4772
O1_5 O 0.23236(18) 0.59762(15) 0.36987(17)
O2_5 O 0.31095(18) 0.62056(15) 0.40309(15)
O3_5 O 0.36943(17) 0.78998(14) 0.23888(15)
O4_5 O 0.26604(17) 0.42636(12) 0.58607(13)
O5_5 O 0.20671(15) 0.38929(13) 0.54028(13)
O6_5 O 0.21480(19) 0.19656(14) 0.68311(18)
O7_3 O 0.00512(19) 0.64642(17) 0.64637(16)
O10_3 O 0.4686(2) 0.36362(14) 0.31170(16)
O11_4 O 0.53540(19) 0.32012(15) 0.34422(18)
O12_5 O 0.57148(17) 0.46005(16) 0.53625(16)
Ag5_2 Ag 0.523898(16) 0.314253(12) 0.751328(14)
Ag6_2 Ag 0.476102(16) 0.314253(12) 0.251328(14)
Ag8_3 Ag 0.532847(19) 0.217659(15) 0.679767(16)
O14_3 O 0.07042(19) 0.67489(16) 0.11317(16)
O15_3 O 0.0314(2) 0.86362(14) 0.31170(16)
H27_5 H 0.9991 0.1021 0.6367
C38_5 C 0.9986(4) 0.1624(3) 0.5693(4)
H31_5 H 0.9608 0.1690 0.5821
H32_5 H 0.9963 0.1356 0.5497
C39_5 C 0.9712(2) 0.6480(2) 0.6150(2)
C40_5 C 0.9788(2) 0.61639(17) 0.57481(18)
C43_5 C 0.9954(2) 0.56062(14) 0.49864(17)
C44_5 C 0.9398(2) 0.57577(15) 0.50969(16)
C45_5 C 0.9328(2) 0.60450(16) 0.54758(17)
H35_5 H 0.8959 0.6160 0.5546
C50_5 C 0.8864(2) 0.54225(16) 0.44466(17)
C51_5 C 0.8318(2) 0.54705(17) 0.41955(16)
C52_5 C 0.7923(2) 0.58179(18) 0.42841(18)
H42_5 H 0.7989 0.6018 0.4533
C53_5 C 0.7436(2) 0.5876(2) 0.4015(2)
C54_5 C 0.7349(3) 0.5577(2) 0.3652(2)
H43_5 H 0.7023 0.5616 0.3462
C55_5 C 0.7728(3) 0.5221(2) 0.3559(2)
H44_5 H 0.7658 0.5022 0.3310
C56_5 C 0.8204(3) 0.51647(19) 0.3834(2)
H45_5 H 0.8456 0.4918 0.3779
C57_5 C 0.7036(3) 0.6263(2) 0.4113(3)
H46_5 H 0.7054 0.6340 0.4439
H47_5 H 0.6645 0.6175 0.4032
H48_5 H 0.7150 0.6527 0.3930
N12_5 N 0.89054(17) 0.56567(14) 0.48463(14)
H67_5 H 0.8582 0.5757 0.4961
O8_3 O 0.92958(19) 0.67489(16) 0.61317(16)
O9_5 O 0.92666(16) 0.51950(12) 0.42931(13)
Ag7_2 Ag 0.967153(19) 0.717659(15) 0.679767(16)
N17_3 N 0.9607(2) 0.76605(14) 0.17146(17)
N18_3 N 0.95225(17) 0.80049(12) 0.20320(14)
O13_3 O 0.99488(19) 0.64642(17) 0.14637(16)
H27_6 H 0.0009 0.1021 0.1367
C38_6 C 0.0014(4) 0.1624(3) 0.0693(4)
H31_6 H 0.0392 0.1690 0.0821
H32_6 H 0.0037 0.1356 0.0497
C39_6 C 0.0288(2) 0.6480(2) 0.1150(2)
C40_6 C 0.0212(2) 0.61639(17) 0.07481(18)
C44_6 C 0.0602(2) 0.57577(15) 0.00969(16)
C45_6 C 0.0672(2) 0.60450(16) 0.04758(17)
H35_6 H 0.1041 0.6160 0.0546
C43_6 C 0.0046(2) 0.56062(14) 0.99864(17)
C50_6 C 0.1136(2) 0.54225(16) 0.94466(17)
C51_6 C 0.1682(2) 0.54705(17) 0.91955(16)
C52_6 C 0.2077(2) 0.58179(18) 0.92841(18)
H42_6 H 0.2011 0.6018 0.9533
C53_6 C 0.2564(2) 0.5876(2) 0.9015(2)
C54_6 C 0.2651(3) 0.5577(2) 0.8652(2)
H43_6 H 0.2977 0.5616 0.8462
C55_6 C 0.2272(3) 0.5221(2) 0.8559(2)
H44_6 H 0.2342 0.5022 0.8310
C56_6 C 0.1796(3) 0.51647(19) 0.8834(2)
H45_6 H 0.1544 0.4918 0.8779
C57_6 C 0.2964(3) 0.6263(2) 0.9113(3)
H46_6 H 0.2946 0.6340 0.9439
H47_6 H 0.3355 0.6175 0.9032
H48_6 H 0.2850 0.6527 0.8930
N12_6 N 0.10946(17) 0.56567(14) 0.98463(14)
H67_6 H 0.1418 0.5757 0.9961
O9_6 O 0.07334(16) 0.51950(12) 0.92931(13)
N17_4 N 0.0393(2) 0.76605(14) 0.67146(17)
N18_4 N 0.04775(17) 0.80049(12) 0.70320(14)
C20_6 C 0.7585(2) 0.39119(18) 0.07295(18)
C21_6 C 0.7444(2) 0.34898(18) 0.09867(17)
C22_6 C 0.6916(2) 0.34277(15) 0.11956(16)
H17_6 H 0.6638 0.3662 0.1187
C23_6 C 0.6796(2) 0.30251(16) 0.14158(16)
C24_6 C 0.7189(2) 0.26796(16) 0.14518(18)
H18_6 H 0.7102 0.2411 0.1617
C25_6 C 0.7722(2) 0.27353(17) 0.12362(17)
C26_6 C 0.7839(2) 0.31347(17) 0.10044(17)
H19_6 H 0.8196 0.3168 0.0854
C27_6 C 0.6230(2) 0.35574(18) 0.22231(18)
H20_6 H 0.5976 0.3639 0.2477
H21_6 H 0.6602 0.3465 0.2345
H22_6 H 0.6280 0.3819 0.2020
C28_6 C 0.5979(2) 0.31821(14) 0.19642(16)
C29_6 C 0.5857(2) 0.26327(16) 0.14715(19)
C30_6 C 0.5933(3) 0.2323(2) 0.1074(2)
H23_6 H 0.5562 0.2266 0.0930
H24_6 H 0.6191 0.2463 0.0850
H25_6 H 0.6097 0.2036 0.1179
C31_6 C 0.8204(2) 0.20428(16) 0.15187(19)
C32_6 C 0.8713(3) 0.17482(18) 0.1465(2)
C33_6 C 0.9113(3) 0.1815(2) 0.1111(2)
H26_6 H 0.9053 0.2049 0.0893
C34_6 C 0.9601(3) 0.1538(2) 0.1076(3)
C35_6 C 0.9678(3) 0.1207(2) 0.1388(3)
C36_6 C 0.9294(4) 0.1131(3) 0.1732(3)
H28_6 H 0.9357 0.0891 0.1943
C37_6 C 0.8810(3) 0.1403(2) 0.1775(3)
H29_6 H 0.8547 0.1352 0.2018
H30_6 H 0.9883 0.1883 0.0512
C41_6 C 0.9666(2) 0.60012(18) 0.06408(19)
H33_6 H 0.9347 0.6068 0.0831
C42_6 C 0.9604(2) 0.57479(16) 0.02619(16)
C48_6 C 0.8699(2) 0.53137(15) 0.04011(16)
C49_6 C 0.8864(3) 0.5094(2) 0.08450(19)
H39_6 H 0.8534 0.4932 0.0972
H40_6 H 0.9176 0.4879 0.0791
H41_6 H 0.8990 0.5326 0.1063
C68_6 C 0.6133(3) 0.4209(2) 0.0237(2)
H55_6 H 0.5830 0.4337 0.0429
H56_6 H 0.6000 0.3925 0.0101
H57_6 H 0.6472 0.4151 0.0426
C69_6 C 0.3952(2) 0.43068(17) 0.02403(19)
C70_6 C 0.3408(3) 0.42150(19) 0.0499(2)
C71_6 C 0.3029(3) 0.3876(2) 0.0384(3)
H58_6 H 0.3091 0.3693 0.0122
C72_6 C 0.2538(3) 0.3806(3) 0.0671(3)
C73_6 C 0.2456(4) 0.4073(3) 0.1029(3)
H59_6 H 0.2125 0.4030 0.1211
C74_6 C 0.2819(3) 0.4396(3) 0.1142(3)
H60_6 H 0.2750 0.4573 0.1407
C75_6 C 0.3294(3) 0.4478(3) 0.0880(2)
H61_6 H 0.3546 0.4717 0.0961
C76_6 C 0.2144(4) 0.3424(3) 0.0530(4)
H62_6 H 0.1795 0.3549 0.0394
H63_6 H 0.2337 0.3231 0.0305
H64_6 H 0.2044 0.3244 0.0801
Ag2_6 Ag 0.745722(16) 0.485504(13) 0.036337(14)
N5_4 N 0.5393(2) 0.26605(14) 0.17146(17)
N6_4 N 0.54775(17) 0.30049(12) 0.20320(14)
N7_6 N 0.62389(18) 0.29542(13) 0.16089(14)
N8_6 N 0.8150(2) 0.23939(16) 0.12415(16)
H66_6 H 0.8416 0.2420 0.1030
N9_6 N 0.81997(17) 0.52707(14) 0.01979(13)
N11_6 N 0.90373(18) 0.55836(14) 0.01388(14)
O4_6 O 0.73396(17) 0.42636(12) 0.08607(13)
O5_6 O 0.79329(15) 0.38929(13) 0.04028(13)
O6_6 O 0.78520(19) 0.19656(14) 0.18311(18)
O12_6 O 0.42852(17) 0.46005(16) 0.03625(16)
Ag8_4 Ag 0.467153(19) 0.217659(15) 0.179767(16)
C1_6 C 0.7259(2) 0.62475(18) 0.87370(19)
C2_6 C 0.7228(2) 0.66430(16) 0.84036(17)
C3_6 C 0.7721(2) 0.67890(16) 0.81850(19)
H1_6 H 0.8075 0.6638 0.8230
C4_6 C 0.7679(2) 0.71612(16) 0.78998(17)
C5_6 C 0.7169(2) 0.73917(15) 0.78170(17)
H2_6 H 0.7156 0.7646 0.7618
C6_6 C 0.6679(2) 0.72349(16) 0.80375(16)
C7_6 C 0.6725(2) 0.68689(16) 0.83405(17)
H3_6 H 0.6396 0.6775 0.8507
C8_6 C 0.8319(2) 0.66603(18) 0.71341(18)
H4_6 H 0.7966 0.6552 0.7278
H5_6 H 0.8254 0.6705 0.6805
H6_6 H 0.8622 0.6436 0.7178
C9_6 C 0.8493(2) 0.70985(15) 0.73479(15)
C10_6 C 0.8505(2) 0.77035(15) 0.77777(18)
C11_6 C 0.8335(3) 0.80422(19) 0.8126(2)
H7_6 H 0.8641 0.8265 0.8163
H8_6 H 0.7985 0.8196 0.8025
H9_6 H 0.8264 0.7890 0.8419
C12_6 C 0.5996(2) 0.77785(17) 0.77072(17)
C13_6 C 0.5423(2) 0.80054(16) 0.78058(19)
C14_6 C 0.5073(2) 0.78758(18) 0.8155(2)
H10_6 H 0.5174 0.7618 0.8331
C15_4 C 0.4569(3) 0.8107(2) 0.8264(2)
C16_4 C 0.4440(3) 0.8487(2) 0.7996(3)
H11_4 H 0.4112 0.8664 0.8063
C17_4 C 0.4789(3) 0.8604(2) 0.7635(3)
H12_4 H 0.4688 0.8855 0.7448
C18_6 C 0.5270(2) 0.83714(17) 0.7542(2)
H13_6 H 0.5505 0.8461 0.7293
C19_4 C 0.4218(3) 0.7964(3) 0.8645(3)
H14_4 H 0.4464 0.7874 0.8901
H15_4 H 0.3971 0.8214 0.8740
H16_4 H 0.3982 0.7706 0.8551
H34_6 H 0.9980 0.5414 0.9731
C46_6 C 0.8920(3) 0.6012(2) 0.9395(2)
H36_6 H 0.9092 0.6286 0.9525
H37_6 H 0.9205 0.5850 0.9212
H38_6 H 0.8596 0.6096 0.9200
C47_6 C 0.8715(2) 0.57124(17) 0.97755(17)
C58_5 C 0.4979(2) 0.35395(18) 0.8438(2)
C59_5 C 0.4987(2) 0.38364(15) 0.88598(19)
C60_6 C 0.5465(2) 0.41077(15) 0.89566(19)
H49_6 H 0.5780 0.4118 0.8752
C61_6 C 0.5466(2) 0.43553(15) 0.93491(18)
C62_6 C 0.5007(2) 0.43635(15) 0.96529(17)
H50_6 H 0.5013 0.4551 0.9917
C63_5 C 0.4535(2) 0.40860(16) 0.9556(2)
C64_5 C 0.4529(2) 0.38308(16) 0.9167(2)
H51_5 H 0.4207 0.3646 0.9103
C65_6 C 0.6070(2) 0.51270(17) 0.87974(18)
H52_6 H 0.6115 0.4897 0.8558
H53_6 H 0.5669 0.5218 0.8817
H54_6 H 0.6306 0.5391 0.8723
C66_6 C 0.6252(2) 0.49395(15) 0.92372(16)
C67_6 C 0.6280(2) 0.45311(16) 0.98704(17)
Ag1_6 Ag 0.745479(15) 0.549688(13) 0.932200(14)
Ag3_4 Ag 0.976102(16) 0.814253(12) 0.751328(14)
N1_6 N 0.89604(17) 0.77108(12) 0.75231(15)
N2_6 N 0.89398(17) 0.73293(12) 0.72470(13)
N3_6 N 0.81888(17) 0.73155(12) 0.76737(14)
N4_6 N 0.61443(18) 0.74436(15) 0.79929(15)
H65_6 H 0.5873 0.7342 0.8175
N10_6 N 0.82058(18) 0.55226(13) 0.98007(14)
N13_6 N 0.67268(17) 0.47929(13) 0.98708(14)
N14_6 N 0.67055(17) 0.50559(12) 0.94690(13)
N15_6 N 0.59663(17) 0.46064(13) 0.94786(14)
N16_5 N 0.40495(19) 0.40649(15) 0.98515(19)
H68_5 H 0.3781 0.3872 0.9772
O1_6 O 0.76764(18) 0.59762(15) 0.86987(17)
O2_6 O 0.68905(18) 0.62056(15) 0.90309(15)
O3_6 O 0.63057(17) 0.78998(14) 0.73888(15)
O10_4 O 0.5314(2) 0.36362(14) 0.81170(16)
O11_5 O 0.46460(19) 0.32012(15) 0.84422(18)
O15_4 O 0.9686(2) 0.86362(14) 0.81170(16)
C69_7 C 0.1048(2) 0.93068(17) 0.02403(19)
C70_7 C 0.1592(3) 0.92150(19) 0.0499(2)
C71_7 C 0.1971(3) 0.8876(2) 0.0384(3)
H58_7 H 0.1909 0.8693 0.0122
C72_7 C 0.2462(3) 0.8806(3) 0.0671(3)
C73_7 C 0.2544(4) 0.9073(3) 0.1029(3)
H59_7 H 0.2875 0.9030 0.1211
C74_7 C 0.2181(3) 0.9396(3) 0.1142(3)
H60_7 H 0.2250 0.9573 0.1407
C75_7 C 0.1706(3) 0.9478(3) 0.0880(2)
H61_7 H 0.1454 0.9717 0.0961
C76_7 C 0.2856(4) 0.8424(3) 0.0530(4)
H62_7 H 0.3205 0.8549 0.0394
H63_7 H 0.2663 0.8231 0.0305
H64_7 H 0.2956 0.8244 0.0801
O12_7 O 0.07148(17) 0.96005(16) 0.03625(16)
C39_7 C 0.4712(2) 0.1480(2) 0.1150(2)
C40_7 C 0.4788(2) 0.11639(17) 0.07481(18)
C41_7 C 0.5334(2) 0.10012(18) 0.06408(19)
H33_7 H 0.5653 0.1068 0.0831
C42_7 C 0.5396(2) 0.07479(16) 0.02619(16)
C44_7 C 0.4398(2) 0.07577(15) 0.00969(16)
C45_7 C 0.4328(2) 0.10450(16) 0.04758(17)
H35_7 H 0.3959 0.1160 0.0546
C48_7 C 0.6301(2) 0.03137(15) 0.04011(16)
C49_7 C 0.6136(3) 0.0094(2) 0.08450(19)
H41_7 H 0.6010 0.0326 0.1063
N9_7 N 0.68003(17) 0.02707(14) 0.01979(13)
N11_7 N 0.59627(18) 0.05836(14) 0.01388(14)
O7_4 O 0.50512(19) 0.14642(17) 0.14637(16)
O8_4 O 0.42958(19) 0.17489(16) 0.11317(16)
C1_7 C 0.7741(2) 0.12475(18) 0.87370(19)
C2_7 C 0.7772(2) 0.16430(16) 0.84036(17)
C3_7 C 0.7279(2) 0.17890(16) 0.81850(19)
H1_7 H 0.6925 0.1638 0.8230
C4_7 C 0.7321(2) 0.21612(16) 0.78998(17)
C5_7 C 0.7831(2) 0.23917(15) 0.78170(17)
H2_7 H 0.7844 0.2646 0.7618
C6_7 C 0.8321(2) 0.22349(16) 0.80375(16)
C7_7 C 0.8275(2) 0.18689(16) 0.83405(17)
H3_7 H 0.8604 0.1775 0.8507
C8_7 C 0.6681(2) 0.16603(18) 0.71341(18)
H4_7 H 0.7034 0.1552 0.7278
H5_7 H 0.6746 0.1705 0.6805
H6_7 H 0.6378 0.1436 0.7178
C9_7 C 0.6507(2) 0.20985(15) 0.73479(15)
C10_7 C 0.6495(2) 0.27035(15) 0.77777(18)
C11_7 C 0.6665(3) 0.30422(19) 0.8126(2)
H7_7 H 0.6359 0.3265 0.8163
H8_7 H 0.7015 0.3196 0.8025
H9_7 H 0.6736 0.2890 0.8419
C12_7 C 0.9004(2) 0.27785(17) 0.77072(17)
C13_7 C 0.9577(2) 0.30054(16) 0.78058(19)
C14_7 C 0.9927(2) 0.28758(18) 0.8155(2)
H10_7 H 0.9826 0.2618 0.8331
C18_7 C 0.9730(2) 0.33714(17) 0.7542(2)
H13_7 H 0.9495 0.3461 0.7293
C43_7 C 0.4954(2) 0.06062(14) 0.99864(17)
H34_7 H 0.5020 0.0414 0.9731
C46_7 C 0.6080(3) 0.1012(2) 0.9395(2)
H36_7 H 0.5908 0.1286 0.9525
H37_7 H 0.5795 0.0850 0.9212
H38_7 H 0.6404 0.1096 0.9200
C47_7 C 0.6285(2) 0.07124(17) 0.97755(17)
C50_7 C 0.3864(2) 0.04225(16) 0.94466(17)
C51_7 C 0.3318(2) 0.04705(17) 0.91955(16)
C52_7 C 0.2923(2) 0.08179(18) 0.92841(18)
H42_7 H 0.2989 0.1018 0.9533
C53_7 C 0.2436(2) 0.0876(2) 0.9015(2)
C54_7 C 0.2349(3) 0.0577(2) 0.8652(2)
H43_7 H 0.2023 0.0616 0.8462
C55_7 C 0.2728(3) 0.0221(2) 0.8559(2)
H44_7 H 0.2658 0.0022 0.8310
C56_7 C 0.3204(3) 0.01647(19) 0.8834(2)
C57_7 C 0.2036(3) 0.1263(2) 0.9113(3)
H46_7 H 0.2054 0.1340 0.9439
H47_7 H 0.1645 0.1175 0.9032
H48_7 H 0.2150 0.1527 0.8930
C65_7 C 0.8930(2) 0.01270(17) 0.87974(18)
H53_7 H 0.9331 0.0218 0.8817
H54_7 H 0.8694 0.0391 0.8723
Ag1_7 Ag 0.754521(15) 0.049688(13) 0.932200(14)
N1_7 N 0.60396(17) 0.27108(12) 0.75231(15)
N2_7 N 0.60602(17) 0.23293(12) 0.72470(13)
N3_7 N 0.68112(17) 0.23155(12) 0.76737(14)
N4_7 N 0.88557(18) 0.24436(15) 0.79929(15)
H65_7 H 0.9127 0.2342 0.8175
N10_7 N 0.67942(18) 0.05226(13) 0.98007(14)
N12_7 N 0.39054(17) 0.06567(14) 0.98463(14)
H67_7 H 0.3582 0.0757 0.9961
N14_7 N 0.82945(17) 0.00559(12) 0.94690(13)
O1_7 O 0.73236(18) 0.09762(15) 0.86987(17)
O2_7 O 0.81095(18) 0.12056(15) 0.90309(15)
O3_7 O 0.86943(17) 0.28998(14) 0.73888(15)
O9_7 O 0.42666(16) 0.01950(12) 0.92931(13)
O13_4 O 0.49488(19) 0.14642(17) 0.64637(16)
O14_4 O 0.57042(19) 0.17489(16) 0.61317(16)
C20_7 C 0.7415(2) 0.89119(18) 0.07295(18)
C21_7 C 0.7556(2) 0.84898(18) 0.09867(17)
C22_7 C 0.8084(2) 0.84277(15) 0.11956(16)
H17_7 H 0.8362 0.8662 0.1187
C23_7 C 0.8204(2) 0.80251(16) 0.14158(16)
C24_7 C 0.7811(2) 0.76796(16) 0.14518(18)
H18_7 H 0.7898 0.7411 0.1617
C25_7 C 0.7278(2) 0.77353(17) 0.12362(17)
C26_7 C 0.7161(2) 0.81347(17) 0.10044(17)
H19_7 H 0.6804 0.8168 0.0854
C27_7 C 0.8770(2) 0.85574(18) 0.22231(18)
H20_7 H 0.9024 0.8639 0.2477
H21_7 H 0.8398 0.8465 0.2345
H22_7 H 0.8720 0.8819 0.2020
C28_7 C 0.9021(2) 0.81821(14) 0.19642(16)
C29_7 C 0.9143(2) 0.76327(16) 0.14715(19)
C30_7 C 0.9067(3) 0.7323(2) 0.1074(2)
H23_7 H 0.9438 0.7266 0.0930
H24_7 H 0.8809 0.7463 0.0850
H25_7 H 0.8903 0.7036 0.1179
C31_7 C 0.6796(2) 0.70428(16) 0.15187(19)
C32_7 C 0.6287(3) 0.67482(18) 0.1465(2)
C33_7 C 0.5887(3) 0.6815(2) 0.1111(2)
H26_7 H 0.5947 0.7049 0.0893
C34_7 C 0.5399(3) 0.6538(2) 0.1076(3)
C35_7 C 0.5322(3) 0.6207(2) 0.1388(3)
H27_7 H 0.4991 0.6021 0.1367
C36_7 C 0.5706(4) 0.6131(3) 0.1732(3)
H28_7 H 0.5643 0.5891 0.1943
C37_7 C 0.6190(3) 0.6403(2) 0.1775(3)
H29_7 H 0.6453 0.6352 0.2018
C38_7 C 0.4986(4) 0.6624(3) 0.0693(4)
H30_7 H 0.5117 0.6883 0.0512
H31_7 H 0.4608 0.6690 0.0821
H32_7 H 0.4963 0.6356 0.0497
H39_7 H 0.6466 0.9932 0.0972
H40_7 H 0.5824 0.9879 0.0791
C68_7 C 0.8867(3) 0.9209(2) 0.0237(2)
H55_7 H 0.9170 0.9337 0.0429
H56_7 H 0.9000 0.8925 0.0101
H57_7 H 0.8528 0.9151 0.0426
Ag2_7 Ag 0.754278(16) 0.985504(13) 0.036337(14)
N7_7 N 0.87611(18) 0.79542(13) 0.16089(14)
N8_7 N 0.6850(2) 0.73939(16) 0.12415(16)
H66_7 H 0.6584 0.7420 0.1030
O4_7 O 0.76604(17) 0.92636(12) 0.08607(13)
O5_7 O 0.70671(15) 0.88929(13) 0.04028(13)
O6_7 O 0.71480(19) 0.69656(14) 0.18311(18)
H45_7 H 0.3456 0.9918 0.8779
C60_7 C 0.9535(2) 0.91077(15) 0.89566(19)
H49_7 H 0.9220 0.9118 0.8752
C61_7 C 0.9534(2) 0.93553(15) 0.93491(18)
C62_7 C 0.9993(2) 0.93635(15) 0.96529(17)
H50_7 H 0.9987 0.9551 0.9917
H52_7 H 0.8885 0.9897 0.8558
C66_7 C 0.8748(2) 0.99395(15) 0.92372(16)
C67_7 C 0.8720(2) 0.95311(16) 0.98704(17)
N13_7 N 0.82732(17) 0.97929(13) 0.98708(14)
N15_7 N 0.90337(17) 0.96064(13) 0.94786(14)
C1_8 C 0.2259(2) 0.12475(18) 0.37370(19)
C2_8 C 0.2228(2) 0.16430(16) 0.34036(17)
C3_8 C 0.2721(2) 0.17890(16) 0.31850(19)
H1_8 H 0.3075 0.1638 0.3230
C4_8 C 0.2679(2) 0.21612(16) 0.28998(17)
C5_8 C 0.2169(2) 0.23917(15) 0.28170(17)
H2_8 H 0.2156 0.2646 0.2618
C6_8 C 0.1679(2) 0.22349(16) 0.30375(16)
C7_8 C 0.1725(2) 0.18689(16) 0.33405(17)
H3_8 H 0.1396 0.1775 0.3507
C8_8 C 0.3319(2) 0.16603(18) 0.21341(18)
H4_8 H 0.2966 0.1552 0.2278
H5_8 H 0.3254 0.1705 0.1805
H6_8 H 0.3622 0.1436 0.2178
C9_8 C 0.3493(2) 0.20985(15) 0.23479(15)
C10_8 C 0.3505(2) 0.27035(15) 0.27777(18)
C11_8 C 0.3335(3) 0.30422(19) 0.3126(2)
H7_8 H 0.3641 0.3265 0.3163
H8_8 H 0.2985 0.3196 0.3025
H9_8 H 0.3264 0.2890 0.3419
C12_8 C 0.0996(2) 0.27785(17) 0.27072(17)
C13_8 C 0.0423(2) 0.30054(16) 0.28058(19)
C14_8 C 0.0073(2) 0.28758(18) 0.3155(2)
H10_8 H 0.0174 0.2618 0.3331
C18_8 C 0.0270(2) 0.33714(17) 0.2542(2)
H13_8 H 0.0505 0.3461 0.2293
C39_8 C 0.5288(2) 0.1480(2) 0.6150(2)
C40_8 C 0.5212(2) 0.11639(17) 0.57481(18)
C41_8 C 0.4666(2) 0.10012(18) 0.56408(19)
H33_8 H 0.4347 0.1068 0.5831
C42_8 C 0.4604(2) 0.07479(16) 0.52619(16)
C43_8 C 0.5046(2) 0.06062(14) 0.49864(17)
H34_8 H 0.4980 0.0414 0.4731
C44_8 C 0.5602(2) 0.07577(15) 0.50969(16)
C45_8 C 0.5672(2) 0.10450(16) 0.54758(17)
H35_8 H 0.6041 0.1160 0.5546
C46_8 C 0.3920(3) 0.1012(2) 0.4395(2)
H36_8 H 0.4092 0.1286 0.4525
H37_8 H 0.4205 0.0850 0.4212
H38_8 H 0.3596 0.1096 0.4200
C47_8 C 0.3715(2) 0.07124(17) 0.47755(17)
C48_8 C 0.3699(2) 0.03137(15) 0.54011(16)
C49_8 C 0.3864(3) 0.0094(2) 0.58450(19)
H41_8 H 0.3990 0.0326 0.6063
C50_8 C 0.6136(2) 0.04225(16) 0.44466(17)
C51_8 C 0.6682(2) 0.04705(17) 0.41955(16)
C52_8 C 0.7077(2) 0.08179(18) 0.42841(18)
H42_8 H 0.7011 0.1018 0.4533
C53_8 C 0.7564(2) 0.0876(2) 0.4015(2)
C54_8 C 0.7651(3) 0.0577(2) 0.3652(2)
H43_8 H 0.7977 0.0616 0.3462
C55_8 C 0.7272(3) 0.0221(2) 0.3559(2)
H44_8 H 0.7342 0.0022 0.3310
C56_8 C 0.6796(3) 0.01647(19) 0.3834(2)
C57_8 C 0.7964(3) 0.1263(2) 0.4113(3)
H46_8 H 0.7946 0.1340 0.4439
H47_8 H 0.8355 0.1175 0.4032
H48_8 H 0.7850 0.1527 0.3930
C65_8 C 0.1070(2) 0.01270(17) 0.37974(18)
H53_8 H 0.0669 0.0218 0.3817
H54_8 H 0.1306 0.0391 0.3723
Ag1_8 Ag 0.245479(15) 0.049688(13) 0.432200(14)
N1_8 N 0.39604(17) 0.27108(12) 0.25231(15)
N2_8 N 0.39398(17) 0.23293(12) 0.22470(13)
N3_8 N 0.31888(17) 0.23155(12) 0.26737(14)
N4_8 N 0.11443(18) 0.24436(15) 0.29929(15)
H65_8 H 0.0873 0.2342 0.3175
N9_8 N 0.31997(17) 0.02707(14) 0.51979(13)
N10_8 N 0.32058(18) 0.05226(13) 0.48007(14)
N11_8 N 0.40373(18) 0.05836(14) 0.51388(14)
N12_8 N 0.60946(17) 0.06567(14) 0.48463(14)
H67_8 H 0.6418 0.0757 0.4961
N14_8 N 0.17055(17) 0.00559(12) 0.44690(13)
O1_8 O 0.26764(18) 0.09762(15) 0.36987(17)
O2_8 O 0.18905(18) 0.12056(15) 0.40309(15)
O3_8 O 0.13057(17) 0.28998(14) 0.23888(15)
O9_8 O 0.57334(16) 0.01950(12) 0.42931(13)
C20_8 C 0.2585(2) 0.89119(18) 0.57295(18)
C21_8 C 0.2444(2) 0.84898(18) 0.59867(17)
C22_8 C 0.1916(2) 0.84277(15) 0.61956(16)
H17_8 H 0.1638 0.8662 0.6187
C23_8 C 0.1796(2) 0.80251(16) 0.64158(16)
C24_8 C 0.2189(2) 0.76796(16) 0.64518(18)
H18_8 H 0.2102 0.7411 0.6617
C25_8 C 0.2722(2) 0.77353(17) 0.62362(17)
C26_8 C 0.2839(2) 0.81347(17) 0.60044(17)
H19_8 H 0.3196 0.8168 0.5854
C27_8 C 0.1230(2) 0.85574(18) 0.72231(18)
H20_8 H 0.0976 0.8639 0.7477
H21_8 H 0.1602 0.8465 0.7345
H22_8 H 0.1280 0.8819 0.7020
C28_8 C 0.0979(2) 0.81821(14) 0.69642(16)
C29_8 C 0.0857(2) 0.76327(16) 0.64715(19)
C30_8 C 0.0933(3) 0.7323(2) 0.6074(2)
H23_8 H 0.0562 0.7266 0.5930
H24_8 H 0.1191 0.7463 0.5850
H25_8 H 0.1097 0.7036 0.6179
C31_8 C 0.3204(2) 0.70428(16) 0.65187(19)
C32_8 C 0.3713(3) 0.67482(18) 0.6465(2)
C33_8 C 0.4113(3) 0.6815(2) 0.6111(2)
H26_8 H 0.4053 0.7049 0.5893
C34_8 C 0.4601(3) 0.6538(2) 0.6076(3)
C35_8 C 0.4678(3) 0.6207(2) 0.6388(3)
H27_8 H 0.5009 0.6021 0.6367
C36_8 C 0.4294(4) 0.6131(3) 0.6732(3)
H28_8 H 0.4357 0.5891 0.6943
C37_8 C 0.3810(3) 0.6403(2) 0.6775(3)
H29_8 H 0.3547 0.6352 0.7018
C38_8 C 0.5014(4) 0.6624(3) 0.5693(4)
H30_8 H 0.4883 0.6883 0.5512
H31_8 H 0.5392 0.6690 0.5821
H32_8 H 0.5037 0.6356 0.5497
H39_8 H 0.3534 0.9932 0.5972
H40_8 H 0.4176 0.9879 0.5791
H45_8 H 0.6544 0.9918 0.3779
C60_8 C 0.0465(2) 0.91077(15) 0.39566(19)
H49_8 H 0.0780 0.9118 0.3752
C61_8 C 0.0466(2) 0.93553(15) 0.43491(18)
C62_8 C 0.0007(2) 0.93635(15) 0.46529(17)
H50_8 H 0.0013 0.9551 0.4917
H52_8 H 0.1115 0.9897 0.3558
C66_8 C 0.1252(2) 0.99395(15) 0.42372(16)
C67_8 C 0.1280(2) 0.95311(16) 0.48704(17)
C68_8 C 0.1133(3) 0.9209(2) 0.5237(2)
H55_8 H 0.0830 0.9337 0.5429
H56_8 H 0.1000 0.8925 0.5101
H57_8 H 0.1472 0.9151 0.5426
Ag2_8 Ag 0.245722(16) 0.985504(13) 0.536337(14)
N7_8 N 0.12389(18) 0.79542(13) 0.66089(14)
N8_8 N 0.3150(2) 0.73939(16) 0.62415(16)
H66_8 H 0.3416 0.7420 0.6030
N13_8 N 0.17268(17) 0.97929(13) 0.48708(14)
N15_8 N 0.09663(17) 0.96064(13) 0.44786(14)
O4_8 O 0.23396(17) 0.92636(12) 0.58607(13)
O5_8 O 0.29329(15) 0.88929(13) 0.54028(13)
O6_8 O 0.28520(19) 0.69656(14) 0.68311(18)
C58_6 C 0.9979(2) 0.85395(18) 0.3438(2)
C59_6 C 0.9987(2) 0.88364(15) 0.38598(19)
C63_6 C 0.9535(2) 0.90860(16) 0.4556(2)
C64_6 C 0.9529(2) 0.88308(16) 0.4167(2)
H51_6 H 0.9207 0.8646 0.4103
C69_8 C 0.8952(2) 0.93068(17) 0.52403(19)
C70_8 C 0.8408(3) 0.92150(19) 0.5499(2)
C71_8 C 0.8029(3) 0.8876(2) 0.5384(3)
H58_8 H 0.8091 0.8693 0.5122
C72_8 C 0.7538(3) 0.8806(3) 0.5671(3)
C73_8 C 0.7456(4) 0.9073(3) 0.6029(3)
H59_8 H 0.7125 0.9030 0.6211
C74_8 C 0.7819(3) 0.9396(3) 0.6142(3)
H60_8 H 0.7750 0.9573 0.6407
C75_8 C 0.8294(3) 0.9478(3) 0.5880(2)
H61_8 H 0.8546 0.9717 0.5961
C76_8 C 0.7144(4) 0.8424(3) 0.5530(4)
H62_8 H 0.6795 0.8549 0.5394
H63_8 H 0.7337 0.8231 0.5305
H64_8 H 0.7044 0.8244 0.5801
N16_6 N 0.90495(19) 0.90649(15) 0.48515(19)
H68_6 H 0.8781 0.8872 0.4772
O11_6 O 0.96460(19) 0.82012(15) 0.34422(18)
O12_8 O 0.92852(17) 0.96005(16) 0.53625(16)
C58_7 C 0.9979(2) 0.14605(18) 0.8438(2)
C59_7 C 0.9987(2) 0.11636(15) 0.88598(19)
C63_7 C 0.9535(2) 0.09140(16) 0.9556(2)
C64_7 C 0.9529(2) 0.11692(16) 0.9167(2)
H51_7 H 0.9207 0.1354 0.9103
N16_7 N 0.90495(19) 0.09351(15) 0.98515(19)
H68_7 H 0.8781 0.1128 0.9772
O11_7 O 0.96460(19) 0.17988(15) 0.84422(18)
C15_5 C 0.9569(3) 0.6893(2) 0.8264(2)
C16_5 C 0.9440(3) 0.6513(2) 0.7996(3)
H11_5 H 0.9112 0.6336 0.8063
C17_5 C 0.9789(3) 0.6396(2) 0.7635(3)
H12_5 H 0.9688 0.6145 0.7448
C19_5 C 0.9218(3) 0.7036(3) 0.8645(3)
H14_5 H 0.9464 0.7126 0.8901
H15_5 H 0.8971 0.6786 0.8740
H16_5 H 0.8982 0.7294 0.8551
C15_6 C 0.0431(3) 0.3107(2) 0.8264(2)
C16_6 C 0.0560(3) 0.3487(2) 0.7996(3)
H11_6 H 0.0888 0.3664 0.8063
C17_6 C 0.0211(3) 0.3604(2) 0.7635(3)
H12_6 H 0.0312 0.3855 0.7448
C19_6 C 0.0782(3) 0.2964(3) 0.8645(3)
H14_6 H 0.0536 0.2874 0.8901
H15_6 H 0.1029 0.3214 0.8740
H16_6 H 0.1018 0.2706 0.8551
C58_8 C 0.0021(2) 0.85395(18) 0.8438(2)
C59_8 C 0.0013(2) 0.88364(15) 0.88598(19)
C63_8 C 0.0465(2) 0.90860(16) 0.9556(2)
C64_8 C 0.0471(2) 0.88308(16) 0.9167(2)
H51_8 H 0.0793 0.8646 0.9103
N16_8 N 0.09505(19) 0.90649(15) 0.98515(19)
H68_8 H 0.1219 0.8872 0.9772
O11_8 O 0.03540(19) 0.82012(15) 0.84422(18)
C15_7 C 0.0431(3) 0.6893(2) 0.3264(2)
C16_7 C 0.0560(3) 0.6513(2) 0.2996(3)
H11_7 H 0.0888 0.6336 0.3063
C17_7 C 0.0211(3) 0.6396(2) 0.2635(3)
H12_7 H 0.0312 0.6145 0.2448
C19_7 C 0.0782(3) 0.7036(3) 0.3645(3)
H14_7 H 0.0536 0.7126 0.3901
H15_7 H 0.1029 0.6786 0.3740
H16_7 H 0.1018 0.7294 0.3551
C15_8 C 0.9569(3) 0.3107(2) 0.3264(2)
C16_8 C 0.9440(3) 0.3487(2) 0.2996(3)
H11_8 H 0.9112 0.3664 0.3063
C17_8 C 0.9789(3) 0.3604(2) 0.2635(3)
H12_8 H 0.9688 0.3855 0.2448
C19_8 C 0.9218(3) 0.2964(3) 0.3645(3)
H14_8 H 0.9464 0.2874 0.3901
H15_8 H 0.8971 0.3214 0.3740
H16_8 H 0.8982 0.2706 0.3551
loop_
_geom_bond_atom_site_label_1
_geom_bond_atom_site_label_2
_geom_bond_site_symmetry_1
_geom_bond_site_symmetry_2
H31 C38 1_555 1_555
H32 C38 1_555 1_555
C39 C40 1_555 1_555
C44 C43 1_555 1_555
C45 C40 1_555 1_555
H35 C45 1_555 1_555
C50 C51 1_555 1_555
C51 C52 1_555 1_555
C52 H42 1_555 1_555
C53 C52 1_555 1_555
C54 C53 1_555 1_555
H43 C54 1_555 1_555
C55 C54 1_555 1_555
H44 C55 1_555 1_555
C56 C51 1_555 1_555
H45 C56 1_555 1_555
C57 C53 1_555 1_555
H46 C57 1_555 1_555
H47 C57 1_555 1_555
H48 C57 1_555 1_555
N12 C44 1_555 1_555
H67 N12 1_555 1_555
O8 C39 1_555 1_555
O9 C50 1_555 1_555
C44 C45 1_555 1_555
C50 N12 1_555 1_555
C55 C56 1_555 1_555
O8 Ag7 1_555 1_555
N17 N18 1_555 1_555
C1 C2 1_555 1_555
C2 C3 1_555 1_555
C3 H1 1_555 1_555
C4 C3 1_555 1_555
C5 C4 1_555 1_555
H2 C5 1_555 1_555
C6 C5 1_555 1_555
C7 C2 1_555 1_555
H3 C7 1_555 1_555
C8 H4 1_555 1_555
H5 C8 1_555 1_555
H6 C8 1_555 1_555
C9 C8 1_555 1_555
C10 C11 1_555 1_555
C11 H7 1_555 1_555
H8 C11 1_555 1_555
H9 C11 1_555 1_555
C12 C13 1_555 1_555
C13 C14 1_555 1_555
C14 H10 1_555 1_555
C15 C14 1_555 1_555
C16 C15 1_555 1_555
H11 C16 1_555 1_555
C17 C16 1_555 1_555
H12 C17 1_555 1_555
C18 C13 1_555 1_555
H13 C18 1_555 1_555
C19 C15 1_555 1_555
H14 C19 1_555 1_555
H15 C19 1_555 1_555
H16 C19 1_555 1_555
C20 C21 1_555 1_555
C21 C22 1_555 1_555
C22 H17 1_555 1_555
C23 C22 1_555 1_555
C24 C23 1_555 1_555
H18 C24 1_555 1_555
C25 C24 1_555 1_555
C26 C21 1_555 1_555
H19 C26 1_555 1_555
C27 H20 1_555 1_555
H21 C27 1_555 1_555
H22 C27 1_555 1_555
C28 C27 1_555 1_555
C29 C30 1_555 1_555
C30 H23 1_555 1_555
H24 C30 1_555 1_555
H25 C30 1_555 1_555
C31 C32 1_555 1_555
C32 C33 1_555 1_555
C33 H26 1_555 1_555
C34 C33 1_555 1_555
C35 C34 1_555 1_555
C36 C35 1_555 1_555
H28 C36 1_555 1_555
C37 C32 1_555 1_555
H29 C37 1_555 1_555
C41 H33 1_555 1_555
C42 C41 1_555 1_555
C46 H36 1_555 1_555
H37 C46 1_555 1_555
H38 C46 1_555 1_555
C47 C46 1_555 1_555
C48 C49 1_555 1_555
C49 H39 1_555 1_555
H40 C49 1_555 1_555
H41 C49 1_555 1_555
C58 C59 1_555 1_555
C59 C60 1_555 1_555
C60 H49 1_555 1_555
C61 C60 1_555 1_555
C62 C61 1_555 1_555
H50 C62 1_555 1_555
C63 C62 1_555 1_555
C64 C59 1_555 1_555
H51 C64 1_555 1_555
C65 H52 1_555 1_555
H53 C65 1_555 1_555
H54 C65 1_555 1_555
C66 C65 1_555 1_555
C67 C68 1_555 1_555
C68 H55 1_555 1_555
H56 C68 1_555 1_555
H57 C68 1_555 1_555
C69 C70 1_555 1_555
C70 C71 1_555 1_555
C71 H58 1_555 1_555
C72 C71 1_555 1_555
C73 C72 1_555 1_555
H59 C73 1_555 1_555
C74 C73 1_555 1_555
H60 C74 1_555 1_555
C75 C70 1_555 1_555
H61 C75 1_555 1_555
C76 C72 1_555 1_555
H62 C76 1_555 1_555
H63 C76 1_555 1_555
H64 C76 1_555 1_555
Ag1 N10 1_555 1_555
Ag2 N9 1_555 1_555
Ag3 N1 1_555 1_555
Ag4 N2 1_555 1_555
N1 C10 1_555 1_555
N2 C9 1_555 1_555
N3 C4 1_555 1_555
N4 C6 1_555 1_555
H65 N4 1_555 1_555
N5 C29 1_555 1_555
N6 C28 1_555 1_555
N7 C23 1_555 1_555
N8 C25 1_555 1_555
H66 N8 1_555 1_555
N9 C48 1_555 1_555
N10 C47 1_555 1_555
N11 C42 1_555 1_555
N13 C67 1_555 1_555
N14 C66 1_555 1_555
N15 C61 1_555 1_555
N16 C63 1_555 1_555
H68 N16 1_555 1_555
O1 C1 1_555 1_555
O2 C1 1_555 1_555
O3 C12 1_555 1_555
O4 C20 1_555 1_555
O5 C20 1_555 1_555
O6 C31 1_555 1_555
O10 C58 1_555 1_555
O11 C58 1_555 1_555
O12 C69 1_555 1_555
Ag5 N6 1_555 1_555
Ag6 O10 1_555 1_555
Ag8 N5 1_555 1_555
O14 Ag4 1_555 1_555
O15 Ag3 1_555 1_555
C6 C7 1_555 1_555
C9 N3 1_555 1_555
C10 N3 1_555 1_555
C12 N4 1_555 1_555
C17 C18 1_555 1_555
C25 C26 1_555 1_555
C28 N7 1_555 1_555
C29 N7 1_555 1_555
C31 N8 1_555 1_555
C36 C37 1_555 1_555
C47 N11 1_555 1_555
C48 N11 1_555 1_555
C63 C64 1_555 1_555
C66 N15 1_555 1_555
C67 N15 1_555 1_555
C69 N16 1_555 1_555
C74 C75 1_555 1_555
Ag1 N14 1_555 1_555
Ag1 O1 1_555 1_555
Ag1 O2 1_555 1_555
Ag2 N13 1_555 1_555
Ag2 O4 1_555 1_555
N1 N2 1_555 1_555
N5 N6 1_555 1_555
N9 N10 1_555 1_555
N13 N14 1_555 1_555
C20_2 C21_2 1_555 1_555
C21_2 C22_2 1_555 1_555
C22_2 H17_2 1_555 1_555
C23_2 C22_2 1_555 1_555
C24_2 C23_2 1_555 1_555
H18_2 C24_2 1_555 1_555
C25_2 C24_2 1_555 1_555
C26_2 C21_2 1_555 1_555
H19_2 C26_2 1_555 1_555
C27_2 H20_2 1_555 1_555
H21_2 C27_2 1_555 1_555
H22_2 C27_2 1_555 1_555
C28_2 C27_2 1_555 1_555
C29_2 C30_2 1_555 1_555
C30_2 H23_2 1_555 1_555
H24_2 C30_2 1_555 1_555
H25_2 C30_2 1_555 1_555
C31_2 C32_2 1_555 1_555
C32_2 C33_2 1_555 1_555
C33_2 H26_2 1_555 1_555
C34_2 C33_2 1_555 1_555
C35_2 C34_2 1_555 1_555
C36_2 C35_2 1_555 1_555
H28_2 C36_2 1_555 1_555
C37_2 C32_2 1_555 1_555
H29_2 C37_2 1_555 1_555
C41_2 H33_2 1_555 1_555
C42_2 C41_2 1_555 1_555
C48_2 C49_2 1_555 1_555
C49_2 H39_2 1_555 1_555
H40_2 C49_2 1_555 1_555
H41_2 C49_2 1_555 1_555
C68_2 H55_2 1_555 1_555
H56_2 C68_2 1_555 1_555
H57_2 C68_2 1_555 1_555
C69_2 C70_2 1_555 1_555
C70_2 C71_2 1_555 1_555
C71_2 H58_2 1_555 1_555
C72_2 C71_2 1_555 1_555
C73_2 C72_2 1_555 1_555
H59_2 C73_2 1_555 1_555
C74_2 C73_2 1_555 1_555
H60_2 C74_2 1_555 1_555
C75_2 C70_2 1_555 1_555
H61_2 C75_2 1_555 1_555
C76_2 C72_2 1_555 1_555
H62_2 C76_2 1_555 1_555
H63_2 C76_2 1_555 1_555
H64_2 C76_2 1_555 1_555
Ag2_2 N9_2 1_555 1_555
N5_2 C29_2 1_555 1_555
N6_2 C28_2 1_555 1_555
N7_2 C23_2 1_555 1_555
N8_2 C25_2 1_555 1_555
H66_2 N8_2 1_555 1_555
N9_2 C48_2 1_555 1_555
N11_2 C42_2 1_555 1_555
O4_2 C20_2 1_555 1_555
O5_2 C20_2 1_555 1_555
O6_2 C31_2 1_555 1_555
O12_2 C69_2 1_555 1_555
Ag6 N6_2 1_555 1_555
Ag8_2 N5_2 1_555 1_555
C25_2 C26_2 1_555 1_555
C28_2 N7_2 1_555 1_555
C29_2 N7_2 1_555 1_555
C31_2 N8_2 1_555 1_555
C36_2 C37_2 1_555 1_555
C48_2 N11_2 1_555 1_555
C74_2 C75_2 1_555 1_555
Ag2_2 O4_2 1_555 1_555
N5_2 N6_2 1_555 1_555
C1_2 C2_2 1_555 1_555
C2_2 C3_2 1_555 1_555
C3_2 H1_2 1_555 1_555
C4_2 C3_2 1_555 1_555
C5_2 C4_2 1_555 1_555
H2_2 C5_2 1_555 1_555
C6_2 C5_2 1_555 1_555
C7_2 C2_2 1_555 1_555
H3_2 C7_2 1_555 1_555
C8_2 H4_2 1_555 1_555
H5_2 C8_2 1_555 1_555
H6_2 C8_2 1_555 1_555
C9_2 C8_2 1_555 1_555
C10_2 C11_2 1_555 1_555
C11_2 H7_2 1_555 1_555
H8_2 C11_2 1_555 1_555
H9_2 C11_2 1_555 1_555
C12_2 C13_2 1_555 1_555
C13_2 C14_2 1_555 1_555
C14_2 H10_2 1_555 1_555
C15_2 C14_2 1_555 1_555
C16_2 C15_2 1_555 1_555
H11_2 C16_2 1_555 1_555
C17_2 C16_2 1_555 1_555
H12_2 C17_2 1_555 1_555
C18_2 C13_2 1_555 1_555
H13_2 C18_2 1_555 1_555
C19_2 C15_2 1_555 1_555
H14_2 C19_2 1_555 1_555
H15_2 C19_2 1_555 1_555
H16_2 C19_2 1_555 1_555
C46_2 H36_2 1_555 1_555
H37_2 C46_2 1_555 1_555
H38_2 C46_2 1_555 1_555
C47_2 C46_2 1_555 1_555
C58_2 C59_2 1_555 1_555
C59_2 C60_2 1_555 1_555
C60_2 H49_2 1_555 1_555
C61_2 C60_2 1_555 1_555
C62_2 C61_2 1_555 1_555
H50_2 C62_2 1_555 1_555
C63_2 C62_2 1_555 1_555
C64_2 C59_2 1_555 1_555
H51_2 C64_2 1_555 1_555
C65_2 H52_2 1_555 1_555
H53_2 C65_2 1_555 1_555
H54_2 C65_2 1_555 1_555
C66_2 C65_2 1_555 1_555
Ag1_2 N10_2 1_555 1_555
Ag3_2 N1_2 1_555 1_555
Ag7 N2_2 1_555 1_555
N1_2 C10_2 1_555 1_555
N2_2 C9_2 1_555 1_555
N3_2 C4_2 1_555 1_555
N4_2 C6_2 1_555 1_555
H65_2 N4_2 1_555 1_555
N10_2 C47_2 1_555 1_555
N13_2 C67_2 1_555 1_555
N14_2 C66_2 1_555 1_555
N15_2 C61_2 1_555 1_555
N16_2 C63_2 1_555 1_555
H68_2 N16_2 1_555 1_555
O1_2 C1_2 1_555 1_555
O2_2 C1_2 1_555 1_555
O3_2 C12_2 1_555 1_555
O10_2 C58_2 1_555 1_555
O11_2 C58_2 1_555 1_555
Ag5 O10_2 1_555 1_555
O15_2 Ag3_2 1_555 1_555
C6_2 C7_2 1_555 1_555
C9_2 N3_2 1_555 1_555
C10_2 N3_2 1_555 1_555
C12_2 N4_2 1_555 1_555
C17_2 C18_2 1_555 1_555
C63_2 C64_2 1_555 1_555
C66_2 N15_2 1_555 1_555
C67_2 N15_2 1_555 1_555
Ag1_2 N14_2 1_555 1_555
Ag1_2 O1_2 1_555 1_555
Ag1_2 O2_2 1_555 1_555
N1_2 N2_2 1_555 1_555
N13_2 N14_2 1_555 1_555
H31_2 C38_2 1_555 1_555
H32_2 C38_2 1_555 1_555
C39_2 C40_2 1_555 1_555
C45_2 C40_2 1_555 1_555
H35_2 C45_2 1_555 1_555
O14 C39_2 1_555 1_555
C44_2 C45_2 1_555 1_555
C50_2 C51_2 1_555 1_555
C51_2 C52_2 1_555 1_555
C52_2 H42_2 1_555 1_555
C53_2 C52_2 1_555 1_555
C54_2 C53_2 1_555 1_555
H43_2 C54_2 1_555 1_555
C55_2 C54_2 1_555 1_555
H44_2 C55_2 1_555 1_555
C56_2 C51_2 1_555 1_555
H45_2 C56_2 1_555 1_555
C57_2 C53_2 1_555 1_555
H46_2 C57_2 1_555 1_555
H47_2 C57_2 1_555 1_555
H48_2 C57_2 1_555 1_555
H67_2 N12_2 1_555 1_555
O9_2 C50_2 1_555 1_555
C50_2 N12_2 1_555 1_555
C55_2 C56_2 1_555 1_555
N17_2 N18_2 1_555 1_555
C20_3 C21_3 1_555 1_555
C21_3 C22_3 1_555 1_555
C22_3 H17_3 1_555 1_555
C23_3 C22_3 1_555 1_555
C24_3 C23_3 1_555 1_555
H18_3 C24_3 1_555 1_555
C25_3 C24_3 1_555 1_555
C26_3 C21_3 1_555 1_555
H19_3 C26_3 1_555 1_555
C27_3 H20_3 1_555 1_555
H21_3 C27_3 1_555 1_555
H22_3 C27_3 1_555 1_555
C28_3 C27_3 1_555 1_555
C29_3 C30_3 1_555 1_555
C30_3 H23_3 1_555 1_555
H24_3 C30_3 1_555 1_555
H25_3 C30_3 1_555 1_555
C31_3 C32_3 1_555 1_555
C32_3 C33_3 1_555 1_555
C33_3 H26_3 1_555 1_555
C34_3 C33_3 1_555 1_555
C35_3 C34_3 1_555 1_555
H27_3 C35_3 1_555 1_555
C36_3 C35_3 1_555 1_555
H28_3 C36_3 1_555 1_555
C37_3 C32_3 1_555 1_555
H29_3 C37_3 1_555 1_555
C38_3 C34_3 1_555 1_555
H30_3 C38_3 1_555 1_555
H31_3 C38_3 1_555 1_555
H32_3 C38_3 1_555 1_555
C68_3 H55_3 1_555 1_555
H56_3 C68_3 1_555 1_555
H57_3 C68_3 1_555 1_555
N17 C29_3 1_555 1_555
N18 C28_3 1_555 1_555
N7_3 C23_3 1_555 1_555
N8_3 C25_3 1_555 1_555
H66_3 N8_3 1_555 1_555
O4_3 C20_3 1_555 1_555
O5_3 C20_3 1_555 1_555
O6_3 C31_3 1_555 1_555
C25_3 C26_3 1_555 1_555
C28_3 N7_3 1_555 1_555
C29_3 N7_3 1_555 1_555
C31_3 N8_3 1_555 1_555
C36_3 C37_3 1_555 1_555
Ag2_3 O4_3 1_555 1_555
C60_3 H49_3 1_555 1_555
C61_3 C60_3 1_555 1_555
C62_3 C61_3 1_555 1_555
H50_3 C62_3 1_555 1_555
N13_3 C67_3 1_555 1_555
N15_3 C61_3 1_555 1_555
C66_3 N15_3 1_555 1_555
C67_3 N15_3 1_555 1_555
C39_3 C40_3 1_555 1_555
C40_3 C41_3 1_555 1_555
C41_3 H33_3 1_555 1_555
C42_3 C41_3 1_555 1_555
C45_3 C40_3 1_555 1_555
H35_3 C45_3 1_555 1_555
C48_3 C49_3 1_555 1_555
H41_3 C49_3 1_555 1_555
N9_3 C48_3 1_555 1_555
N11_3 C42_3 1_555 1_555
O7_2 C39_3 1_555 1_555
O8_2 C39_3 1_555 1_555
Ag8_2 O7_2 1_555 1_555
C44_3 C45_3 1_555 1_555
C48_3 N11_3 1_555 1_555
O8_2 Ag8_2 1_555 1_555
C1_3 C2_3 1_555 1_555
C2_3 C3_3 1_555 1_555
C3_3 H1_3 1_555 1_555
C4_3 C3_3 1_555 1_555
C5_3 C4_3 1_555 1_555
H2_3 C5_3 1_555 1_555
C6_3 C5_3 1_555 1_555
C7_3 C2_3 1_555 1_555
H3_3 C7_3 1_555 1_555
C8_3 H4_3 1_555 1_555
H5_3 C8_3 1_555 1_555
H6_3 C8_3 1_555 1_555
C9_3 C8_3 1_555 1_555
C10_3 C11_3 1_555 1_555
C11_3 H7_3 1_555 1_555
H8_3 C11_3 1_555 1_555
H9_3 C11_3 1_555 1_555
C12_3 C13_3 1_555 1_555
C13_3 C14_3 1_555 1_555
C14_3 H10_3 1_555 1_555
C18_3 C13_3 1_555 1_555
H13_3 C18_3 1_555 1_555
H34_3 C43_3 1_555 1_555
C46_3 H36_3 1_555 1_555
H37_3 C46_3 1_555 1_555
H38_3 C46_3 1_555 1_555
C47_3 C46_3 1_555 1_555
C50_3 C51_3 1_555 1_555
C51_3 C52_3 1_555 1_555
C52_3 H42_3 1_555 1_555
C53_3 C52_3 1_555 1_555
C54_3 C53_3 1_555 1_555
H43_3 C54_3 1_555 1_555
C55_3 C54_3 1_555 1_555
H44_3 C55_3 1_555 1_555
C56_3 C51_3 1_555 1_555
C57_3 C53_3 1_555 1_555
H46_3 C57_3 1_555 1_555
H47_3 C57_3 1_555 1_555
H48_3 C57_3 1_555 1_555
H53_3 C65_3 1_555 1_555
H54_3 C65_3 1_555 1_555
Ag1_3 N10_3 1_555 1_555
Ag5 N1_3 1_555 1_555
Ag8 N2_3 1_555 1_555
N1_3 C10_3 1_555 1_555
N2_3 C9_3 1_555 1_555
N3_3 C4_3 1_555 1_555
N4_3 C6_3 1_555 1_555
H65_3 N4_3 1_555 1_555
N10_3 C47_3 1_555 1_555
H67_3 N12_3 1_555 1_555
O1_3 C1_3 1_555 1_555
O2_3 C1_3 1_555 1_555
O3_3 C12_3 1_555 1_555
O9_3 C50_3 1_555 1_555
O13_2 Ag8 1_555 1_555
O14_2 Ag8 1_555 1_555
C6_3 C7_3 1_555 1_555
C9_3 N3_3 1_555 1_555
C10_3 N3_3 1_555 1_555
C12_3 N4_3 1_555 1_555
C50_3 N12_3 1_555 1_555
C55_3 C56_3 1_555 1_555
Ag1_3 N14_3 1_555 1_555
Ag1_3 O1_3 1_555 1_555
Ag1_3 O2_3 1_555 1_555
N1_3 N2_3 1_555 1_555
C69_3 C70_3 1_555 1_555
C70_3 C71_3 1_555 1_555
C71_3 H58_3 1_555 1_555
C72_3 C71_3 1_555 1_555
C73_3 C72_3 1_555 1_555
H59_3 C73_3 1_555 1_555
C74_3 C73_3 1_555 1_555
H60_3 C74_3 1_555 1_555
C75_3 C70_3 1_555 1_555
H61_3 C75_3 1_555 1_555
C76_3 C72_3 1_555 1_555
H62_3 C76_3 1_555 1_555
H63_3 C76_3 1_555 1_555
H64_3 C76_3 1_555 1_555
O12_3 C69_3 1_555 1_555
C74_3 C75_3 1_555 1_555
C58_3 C59_3 1_555 1_555
C64_3 C59_3 1_555 1_555
H51_3 C64_3 1_555 1_555
C69_4 C70_4 1_555 1_555
C70_4 C71_4 1_555 1_555
C71_4 H58_4 1_555 1_555
C72_4 C71_4 1_555 1_555
C73_4 C72_4 1_555 1_555
H59_4 C73_4 1_555 1_555
C74_4 C73_4 1_555 1_555
H60_4 C74_4 1_555 1_555
C75_4 C70_4 1_555 1_555
H61_4 C75_4 1_555 1_555
C76_4 C72_4 1_555 1_555
H62_4 C76_4 1_555 1_555
H63_4 C76_4 1_555 1_555
H64_4 C76_4 1_555 1_555
N16_3 C63_3 1_555 1_555
H68_3 N16_3 1_555 1_555
O11_3 C58_3 1_555 1_555
O12_4 C69_4 1_555 1_555
C63_3 C64_3 1_555 1_555
C69_4 N16_3 1_555 1_555
C74_4 C75_4 1_555 1_555
C20_4 C21_4 1_555 1_555
C21_4 C22_4 1_555 1_555
C22_4 H17_4 1_555 1_555
C23_4 C22_4 1_555 1_555
C24_4 C23_4 1_555 1_555
H18_4 C24_4 1_555 1_555
C25_4 C24_4 1_555 1_555
C26_4 C21_4 1_555 1_555
H19_4 C26_4 1_555 1_555
C27_4 H20_4 1_555 1_555
H21_4 C27_4 1_555 1_555
H22_4 C27_4 1_555 1_555
C28_4 C27_4 1_555 1_555
C29_4 C30_4 1_555 1_555
C30_4 H23_4 1_555 1_555
H24_4 C30_4 1_555 1_555
H25_4 C30_4 1_555 1_555
C31_4 C32_4 1_555 1_555
C32_4 C33_4 1_555 1_555
C33_4 H26_4 1_555 1_555
C34_4 C33_4 1_555 1_555
C35_4 C34_4 1_555 1_555
H27_4 C35_4 1_555 1_555
C36_4 C35_4 1_555 1_555
H28_4 C36_4 1_555 1_555
C37_4 C32_4 1_555 1_555
H29_4 C37_4 1_555 1_555
C38_4 C34_4 1_555 1_555
H30_4 C38_4 1_555 1_555
H31_4 C38_4 1_555 1_555
H32_4 C38_4 1_555 1_555
C60_4 H49_4 1_555 1_555
C61_4 C60_4 1_555 1_555
C62_4 C61_4 1_555 1_555
H50_4 C62_4 1_555 1_555
C67_4 C68_4 1_555 1_555
C68_4 H55_4 1_555 1_555
H56_4 C68_4 1_555 1_555
H57_4 C68_4 1_555 1_555
N17_2 C29_4 1_555 1_555
N18_2 C28_4 1_555 1_555
N7_4 C23_4 1_555 1_555
N8_4 C25_4 1_555 1_555
H66_4 N8_4 1_555 1_555
N13_4 C67_4 1_555 1_555
N15_4 C61_4 1_555 1_555
O4_4 C20_4 1_555 1_555
O5_4 C20_4 1_555 1_555
O6_4 C31_4 1_555 1_555
C25_4 C26_4 1_555 1_555
C28_4 N7_4 1_555 1_555
C29_4 N7_4 1_555 1_555
C31_4 N8_4 1_555 1_555
C36_4 C37_4 1_555 1_555
C66_4 N15_4 1_555 1_555
C67_4 N15_4 1_555 1_555
Ag2_4 N13_4 1_555 1_555
Ag2_4 O4_4 1_555 1_555
C1_4 C2_4 1_555 1_555
C2_4 C3_4 1_555 1_555
C3_4 H1_4 1_555 1_555
C4_4 C3_4 1_555 1_555
C5_4 C4_4 1_555 1_555
H2_4 C5_4 1_555 1_555
C6_4 C5_4 1_555 1_555
C7_4 C2_4 1_555 1_555
H3_4 C7_4 1_555 1_555
C8_4 H4_4 1_555 1_555
H5_4 C8_4 1_555 1_555
H6_4 C8_4 1_555 1_555
C9_4 C8_4 1_555 1_555
C10_4 C11_4 1_555 1_555
C11_4 H7_4 1_555 1_555
H8_4 C11_4 1_555 1_555
H9_4 C11_4 1_555 1_555
C12_4 C13_4 1_555 1_555
C13_4 C14_4 1_555 1_555
C14_4 H10_4 1_555 1_555
C18_4 C13_4 1_555 1_555
H13_4 C18_4 1_555 1_555
C39_4 C40_4 1_555 1_555
C40_4 C41_4 1_555 1_555
C41_4 H33_4 1_555 1_555
C42_4 C41_4 1_555 1_555
C43_4 C42_4 1_555 1_555
H34_4 C43_4 1_555 1_555
C44_4 C43_4 1_555 1_555
C45_4 C40_4 1_555 1_555
H35_4 C45_4 1_555 1_555
C46_4 H36_4 1_555 1_555
H37_4 C46_4 1_555 1_555
H38_4 C46_4 1_555 1_555
C47_4 C46_4 1_555 1_555
C48_4 C49_4 1_555 1_555
H41_4 C49_4 1_555 1_555
C50_4 C51_4 1_555 1_555
C51_4 C52_4 1_555 1_555
C52_4 H42_4 1_555 1_555
C53_4 C52_4 1_555 1_555
C54_4 C53_4 1_555 1_555
H43_4 C54_4 1_555 1_555
C55_4 C54_4 1_555 1_555
H44_4 C55_4 1_555 1_555
C56_4 C51_4 1_555 1_555
C57_4 C53_4 1_555 1_555
H46_4 C57_4 1_555 1_555
H47_4 C57_4 1_555 1_555
H48_4 C57_4 1_555 1_555
H53_4 C65_4 1_555 1_555
H54_4 C65_4 1_555 1_555
Ag1_4 N10_4 1_555 1_555
Ag6 N1_4 1_555 1_555
Ag8_2 N2_4 1_555 1_555
N1_4 C10_4 1_555 1_555
N2_4 C9_4 1_555 1_555
N3_4 C4_4 1_555 1_555
N4_4 C6_4 1_555 1_555
H65_4 N4_4 1_555 1_555
N9_4 C48_4 1_555 1_555
N10_4 C47_4 1_555 1_555
N11_4 C42_4 1_555 1_555
N12_4 C44_4 1_555 1_555
H67_4 N12_4 1_555 1_555
O1_4 C1_4 1_555 1_555
O2_4 C1_4 1_555 1_555
O3_4 C12_4 1_555 1_555
O13_2 C39_4 1_555 1_555
O14_2 C39_4 1_555 1_555
O9_4 C50_4 1_555 1_555
C6_4 C7_4 1_555 1_555
C9_4 N3_4 1_555 1_555
C10_4 N3_4 1_555 1_555
C12_4 N4_4 1_555 1_555
C44_4 C45_4 1_555 1_555
C47_4 N11_4 1_555 1_555
C48_4 N11_4 1_555 1_555
C50_4 N12_4 1_555 1_555
C55_4 C56_4 1_555 1_555
Ag1_4 N14_4 1_555 1_555
Ag1_4 O1_4 1_555 1_555
Ag1_4 O2_4 1_555 1_555
N1_4 N2_4 1_555 1_555
N9_4 N10_4 1_555 1_555
C1_5 C2_5 1_555 1_555
C2_5 C3_5 1_555 1_555
C3_5 H1_5 1_555 1_555
C4_5 C3_5 1_555 1_555
C5_5 C4_5 1_555 1_555
H2_5 C5_5 1_555 1_555
C6_5 C5_5 1_555 1_555
C7_5 C2_5 1_555 1_555
H3_5 C7_5 1_555 1_555
C8_5 H4_5 1_555 1_555
H5_5 C8_5 1_555 1_555
H6_5 C8_5 1_555 1_555
C9_5 C8_5 1_555 1_555
C10_5 C11_5 1_555 1_555
C11_5 H7_5 1_555 1_555
H8_5 C11_5 1_555 1_555
H9_5 C11_5 1_555 1_555
C12_5 C13_5 1_555 1_555
C13_5 C14_5 1_555 1_555
C14_5 H10_5 1_555 1_555
C15_3 C14_5 1_555 1_555
C16_3 C15_3 1_555 1_555
H11_3 C16_3 1_555 1_555
C17_3 C16_3 1_555 1_555
H12_3 C17_3 1_555 1_555
C18_5 C13_5 1_555 1_555
H13_5 C18_5 1_555 1_555
C19_3 C15_3 1_555 1_555
H14_3 C19_3 1_555 1_555
H15_3 C19_3 1_555 1_555
H16_3 C19_3 1_555 1_555
C20_5 C21_5 1_555 1_555
C21_5 C22_5 1_555 1_555
C22_5 H17_5 1_555 1_555
C23_5 C22_5 1_555 1_555
C24_5 C23_5 1_555 1_555
H18_5 C24_5 1_555 1_555
C25_5 C24_5 1_555 1_555
C26_5 C21_5 1_555 1_555
H19_5 C26_5 1_555 1_555
C27_5 H20_5 1_555 1_555
H21_5 C27_5 1_555 1_555
H22_5 C27_5 1_555 1_555
C28_5 C27_5 1_555 1_555
C29_5 C30_5 1_555 1_555
C30_5 H23_5 1_555 1_555
H24_5 C30_5 1_555 1_555
H25_5 C30_5 1_555 1_555
C31_5 C32_5 1_555 1_555
C32_5 C33_5 1_555 1_555
C33_5 H26_5 1_555 1_555
C34_5 C33_5 1_555 1_555
C35_5 C34_5 1_555 1_555
C36_5 C35_5 1_555 1_555
H28_5 C36_5 1_555 1_555
C37_5 C32_5 1_555 1_555
H29_5 C37_5 1_555 1_555
C41_5 H33_5 1_555 1_555
C42_5 C41_5 1_555 1_555
C46_5 H36_5 1_555 1_555
H37_5 C46_5 1_555 1_555
H38_5 C46_5 1_555 1_555
C47_5 C46_5 1_555 1_555
C48_5 C49_5 1_555 1_555
C49_5 H39_5 1_555 1_555
H40_5 C49_5 1_555 1_555
H41_5 C49_5 1_555 1_555
C58_4 C59_4 1_555 1_555
C59_4 C60_5 1_555 1_555
C60_5 H49_5 1_555 1_555
C61_5 C60_5 1_555 1_555
C62_5 C61_5 1_555 1_555
H50_5 C62_5 1_555 1_555
C63_4 C62_5 1_555 1_555
C64_4 C59_4 1_555 1_555
H51_4 C64_4 1_555 1_555
C65_5 H52_5 1_555 1_555
H53_5 C65_5 1_555 1_555
H54_5 C65_5 1_555 1_555
C66_5 C65_5 1_555 1_555
C67_5 C68_5 1_555 1_555
C68_5 H55_5 1_555 1_555
H56_5 C68_5 1_555 1_555
H57_5 C68_5 1_555 1_555
C69_5 C70_5 1_555 1_555
C70_5 C71_5 1_555 1_555
C71_5 H58_5 1_555 1_555
C72_5 C71_5 1_555 1_555
C73_5 C72_5 1_555 1_555
H59_5 C73_5 1_555 1_555
C74_5 C73_5 1_555 1_555
H60_5 C74_5 1_555 1_555
C75_5 C70_5 1_555 1_555
H61_5 C75_5 1_555 1_555
C76_5 C72_5 1_555 1_555
H62_5 C76_5 1_555 1_555
H63_5 C76_5 1_555 1_555
H64_5 C76_5 1_555 1_555
Ag1_5 N10_5 1_555 1_555
Ag2_5 N9_5 1_555 1_555
Ag3_3 N1_5 1_555 1_555
Ag4_2 N2_5 1_555 1_555
N1_5 C10_5 1_555 1_555
N2_5 C9_5 1_555 1_555
N3_5 C4_5 1_555 1_555
N4_5 C6_5 1_555 1_555
H65_5 N4_5 1_555 1_555
N5_3 C29_5 1_555 1_555
N6_3 C28_5 1_555 1_555
N7_5 C23_5 1_555 1_555
N8_5 C25_5 1_555 1_555
H66_5 N8_5 1_555 1_555
N9_5 C48_5 1_555 1_555
N10_5 C47_5 1_555 1_555
N11_5 C42_5 1_555 1_555
N13_5 C67_5 1_555 1_555
N14_5 C66_5 1_555 1_555
N15_5 C61_5 1_555 1_555
N16_4 C63_4 1_555 1_555
H68_4 N16_4 1_555 1_555
O1_5 C1_5 1_555 1_555
O2_5 C1_5 1_555 1_555
O3_5 C12_5 1_555 1_555
O4_5 C20_5 1_555 1_555
O5_5 C20_5 1_555 1_555
O6_5 C31_5 1_555 1_555
O10_3 C58_4 1_555 1_555
O11_4 C58_4 1_555 1_555
O12_5 C69_5 1_555 1_555
Ag5_2 N6_3 1_555 1_555
Ag6_2 O10_3 1_555 1_555
Ag8_3 N5_3 1_555 1_555
O14_3 Ag4_2 1_555 1_555
O15_3 Ag3_3 1_555 1_555
C6_5 C7_5 1_555 1_555
C9_5 N3_5 1_555 1_555
C10_5 N3_5 1_555 1_555
C12_5 N4_5 1_555 1_555
C17_3 C18_5 1_555 1_555
C25_5 C26_5 1_555 1_555
C28_5 N7_5 1_555 1_555
C29_5 N7_5 1_555 1_555
C31_5 N8_5 1_555 1_555
C36_5 C37_5 1_555 1_555
C47_5 N11_5 1_555 1_555
C48_5 N11_5 1_555 1_555
C63_4 C64_4 1_555 1_555
C66_5 N15_5 1_555 1_555
C67_5 N15_5 1_555 1_555
C69_5 N16_4 1_555 1_555
C74_5 C75_5 1_555 1_555
Ag1_5 N14_5 1_555 1_555
Ag1_5 O1_5 1_555 1_555
Ag1_5 O2_5 1_555 1_555
Ag2_5 N13_5 1_555 1_555
Ag2_5 O4_5 1_555 1_555
N1_5 N2_5 1_555 1_555
N5_3 N6_3 1_555 1_555
N9_5 N10_5 1_555 1_555
N13_5 N14_5 1_555 1_555
H31_5 C38_5 1_555 1_555
H32_5 C38_5 1_555 1_555
C39_5 C40_5 1_555 1_555
C44_5 C43_5 1_555 1_555
C45_5 C40_5 1_555 1_555
H35_5 C45_5 1_555 1_555
C50_5 C51_5 1_555 1_555
C51_5 C52_5 1_555 1_555
C52_5 H42_5 1_555 1_555
C53_5 C52_5 1_555 1_555
C54_5 C53_5 1_555 1_555
H43_5 C54_5 1_555 1_555
C55_5 C54_5 1_555 1_555
H44_5 C55_5 1_555 1_555
C56_5 C51_5 1_555 1_555
H45_5 C56_5 1_555 1_555
C57_5 C53_5 1_555 1_555
H46_5 C57_5 1_555 1_555
H47_5 C57_5 1_555 1_555
H48_5 C57_5 1_555 1_555
N12_5 C44_5 1_555 1_555
H67_5 N12_5 1_555 1_555
O8_3 C39_5 1_555 1_555
O9_5 C50_5 1_555 1_555
C44_5 C45_5 1_555 1_555
C50_5 N12_5 1_555 1_555
C55_5 C56_5 1_555 1_555
O8_3 Ag7_2 1_555 1_555
N17_3 N18_3 1_555 1_555
H31_6 C38_6 1_555 1_555
H32_6 C38_6 1_555 1_555
C39_6 C40_6 1_555 1_555
C45_6 C40_6 1_555 1_555
H35_6 C45_6 1_555 1_555
O14_3 C39_6 1_555 1_555
C44_6 C45_6 1_555 1_555
C50_6 C51_6 1_555 1_555
C51_6 C52_6 1_555 1_555
C52_6 H42_6 1_555 1_555
C53_6 C52_6 1_555 1_555
C54_6 C53_6 1_555 1_555
H43_6 C54_6 1_555 1_555
C55_6 C54_6 1_555 1_555
H44_6 C55_6 1_555 1_555
C56_6 C51_6 1_555 1_555
H45_6 C56_6 1_555 1_555
C57_6 C53_6 1_555 1_555
H46_6 C57_6 1_555 1_555
H47_6 C57_6 1_555 1_555
H48_6 C57_6 1_555 1_555
H67_6 N12_6 1_555 1_555
O9_6 C50_6 1_555 1_555
C50_6 N12_6 1_555 1_555
C55_6 C56_6 1_555 1_555
N17_4 N18_4 1_555 1_555
C20_6 C21_6 1_555 1_555
C21_6 C22_6 1_555 1_555
C22_6 H17_6 1_555 1_555
C23_6 C22_6 1_555 1_555
C24_6 C23_6 1_555 1_555
H18_6 C24_6 1_555 1_555
C25_6 C24_6 1_555 1_555
C26_6 C21_6 1_555 1_555
H19_6 C26_6 1_555 1_555
C27_6 H20_6 1_555 1_555
H21_6 C27_6 1_555 1_555
H22_6 C27_6 1_555 1_555
C28_6 C27_6 1_555 1_555
C29_6 C30_6 1_555 1_555
C30_6 H23_6 1_555 1_555
H24_6 C30_6 1_555 1_555
H25_6 C30_6 1_555 1_555
C31_6 C32_6 1_555 1_555
C32_6 C33_6 1_555 1_555
C33_6 H26_6 1_555 1_555
C34_6 C33_6 1_555 1_555
C35_6 C34_6 1_555 1_555
C36_6 C35_6 1_555 1_555
H28_6 C36_6 1_555 1_555
C37_6 C32_6 1_555 1_555
H29_6 C37_6 1_555 1_555
C41_6 H33_6 1_555 1_555
C42_6 C41_6 1_555 1_555
C48_6 C49_6 1_555 1_555
C49_6 H39_6 1_555 1_555
H40_6 C49_6 1_555 1_555
H41_6 C49_6 1_555 1_555
C68_6 H55_6 1_555 1_555
H56_6 C68_6 1_555 1_555
H57_6 C68_6 1_555 1_555
C69_6 C70_6 1_555 1_555
C70_6 C71_6 1_555 1_555
C71_6 H58_6 1_555 1_555
C72_6 C71_6 1_555 1_555
C73_6 C72_6 1_555 1_555
H59_6 C73_6 1_555 1_555
C74_6 C73_6 1_555 1_555
H60_6 C74_6 1_555 1_555
C75_6 C70_6 1_555 1_555
H61_6 C75_6 1_555 1_555
C76_6 C72_6 1_555 1_555
H62_6 C76_6 1_555 1_555
H63_6 C76_6 1_555 1_555
H64_6 C76_6 1_555 1_555
Ag2_6 N9_6 1_555 1_555
N5_4 C29_6 1_555 1_555
N6_4 C28_6 1_555 1_555
N7_6 C23_6 1_555 1_555
N8_6 C25_6 1_555 1_555
H66_6 N8_6 1_555 1_555
N9_6 C48_6 1_555 1_555
N11_6 C42_6 1_555 1_555
O4_6 C20_6 1_555 1_555
O5_6 C20_6 1_555 1_555
O6_6 C31_6 1_555 1_555
O12_6 C69_6 1_555 1_555
Ag6_2 N6_4 1_555 1_555
Ag8_4 N5_4 1_555 1_555
C25_6 C26_6 1_555 1_555
C28_6 N7_6 1_555 1_555
C29_6 N7_6 1_555 1_555
C31_6 N8_6 1_555 1_555
C36_6 C37_6 1_555 1_555
C48_6 N11_6 1_555 1_555
C74_6 C75_6 1_555 1_555
Ag2_6 O4_6 1_555 1_555
N5_4 N6_4 1_555 1_555
C1_6 C2_6 1_555 1_555
C2_6 C3_6 1_555 1_555
C3_6 H1_6 1_555 1_555
C4_6 C3_6 1_555 1_555
C5_6 C4_6 1_555 1_555
H2_6 C5_6 1_555 1_555
C6_6 C5_6 1_555 1_555
C7_6 C2_6 1_555 1_555
H3_6 C7_6 1_555 1_555
C8_6 H4_6 1_555 1_555
H5_6 C8_6 1_555 1_555
H6_6 C8_6 1_555 1_555
C9_6 C8_6 1_555 1_555
C10_6 C11_6 1_555 1_555
C11_6 H7_6 1_555 1_555
H8_6 C11_6 1_555 1_555
H9_6 C11_6 1_555 1_555
C12_6 C13_6 1_555 1_555
C13_6 C14_6 1_555 1_555
C14_6 H10_6 1_555 1_555
C15_4 C14_6 1_555 1_555
C16_4 C15_4 1_555 1_555
H11_4 C16_4 1_555 1_555
C17_4 C16_4 1_555 1_555
H12_4 C17_4 1_555 1_555
C18_6 C13_6 1_555 1_555
H13_6 C18_6 1_555 1_555
C19_4 C15_4 1_555 1_555
H14_4 C19_4 1_555 1_555
H15_4 C19_4 1_555 1_555
H16_4 C19_4 1_555 1_555
C46_6 H36_6 1_555 1_555
H37_6 C46_6 1_555 1_555
H38_6 C46_6 1_555 1_555
C47_6 C46_6 1_555 1_555
C58_5 C59_5 1_555 1_555
C59_5 C60_6 1_555 1_555
C60_6 H49_6 1_555 1_555
C61_6 C60_6 1_555 1_555
C62_6 C61_6 1_555 1_555
H50_6 C62_6 1_555 1_555
C63_5 C62_6 1_555 1_555
C64_5 C59_5 1_555 1_555
H51_5 C64_5 1_555 1_555
C65_6 H52_6 1_555 1_555
H53_6 C65_6 1_555 1_555
H54_6 C65_6 1_555 1_555
C66_6 C65_6 1_555 1_555
Ag1_6 N10_6 1_555 1_555
Ag3_4 N1_6 1_555 1_555
Ag7_2 N2_6 1_555 1_555
N1_6 C10_6 1_555 1_555
N2_6 C9_6 1_555 1_555
N3_6 C4_6 1_555 1_555
N4_6 C6_6 1_555 1_555
H65_6 N4_6 1_555 1_555
N10_6 C47_6 1_555 1_555
N13_6 C67_6 1_555 1_555
N14_6 C66_6 1_555 1_555
N15_6 C61_6 1_555 1_555
N16_5 C63_5 1_555 1_555
H68_5 N16_5 1_555 1_555
O1_6 C1_6 1_555 1_555
O2_6 C1_6 1_555 1_555
O3_6 C12_6 1_555 1_555
O10_4 C58_5 1_555 1_555
O11_5 C58_5 1_555 1_555
Ag5_2 O10_4 1_555 1_555
O15_4 Ag3_4 1_555 1_555
C6_6 C7_6 1_555 1_555
C9_6 N3_6 1_555 1_555
C10_6 N3_6 1_555 1_555
C12_6 N4_6 1_555 1_555
C17_4 C18_6 1_555 1_555
C63_5 C64_5 1_555 1_555
C66_6 N15_6 1_555 1_555
C67_6 N15_6 1_555 1_555
Ag1_6 N14_6 1_555 1_555
Ag1_6 O1_6 1_555 1_555
Ag1_6 O2_6 1_555 1_555
N1_6 N2_6 1_555 1_555
N13_6 N14_6 1_555 1_555
C69_7 C70_7 1_555 1_555
C70_7 C71_7 1_555 1_555
C71_7 H58_7 1_555 1_555
C72_7 C71_7 1_555 1_555
C73_7 C72_7 1_555 1_555
H59_7 C73_7 1_555 1_555
C74_7 C73_7 1_555 1_555
H60_7 C74_7 1_555 1_555
C75_7 C70_7 1_555 1_555
H61_7 C75_7 1_555 1_555
C76_7 C72_7 1_555 1_555
H62_7 C76_7 1_555 1_555
H63_7 C76_7 1_555 1_555
H64_7 C76_7 1_555 1_555
O12_7 C69_7 1_555 1_555
C74_7 C75_7 1_555 1_555
C39_7 C40_7 1_555 1_555
C40_7 C41_7 1_555 1_555
C41_7 H33_7 1_555 1_555
C42_7 C41_7 1_555 1_555
C45_7 C40_7 1_555 1_555
H35_7 C45_7 1_555 1_555
C48_7 C49_7 1_555 1_555
H41_7 C49_7 1_555 1_555
N9_7 C48_7 1_555 1_555
N11_7 C42_7 1_555 1_555
O7_4 C39_7 1_555 1_555
O8_4 C39_7 1_555 1_555
Ag8_4 O7_4 1_555 1_555
C44_7 C45_7 1_555 1_555
C48_7 N11_7 1_555 1_555
O8_4 Ag8_4 1_555 1_555
C1_7 C2_7 1_555 1_555
C2_7 C3_7 1_555 1_555
C3_7 H1_7 1_555 1_555
C4_7 C3_7 1_555 1_555
C5_7 C4_7 1_555 1_555
H2_7 C5_7 1_555 1_555
C6_7 C5_7 1_555 1_555
C7_7 C2_7 1_555 1_555
H3_7 C7_7 1_555 1_555
C8_7 H4_7 1_555 1_555
H5_7 C8_7 1_555 1_555
H6_7 C8_7 1_555 1_555
C9_7 C8_7 1_555 1_555
C10_7 C11_7 1_555 1_555
C11_7 H7_7 1_555 1_555
H8_7 C11_7 1_555 1_555
H9_7 C11_7 1_555 1_555
C12_7 C13_7 1_555 1_555
C13_7 C14_7 1_555 1_555
C14_7 H10_7 1_555 1_555
C18_7 C13_7 1_555 1_555
H13_7 C18_7 1_555 1_555
H34_7 C43_7 1_555 1_555
C46_7 H36_7 1_555 1_555
H37_7 C46_7 1_555 1_555
H38_7 C46_7 1_555 1_555
C47_7 C46_7 1_555 1_555
C50_7 C51_7 1_555 1_555
C51_7 C52_7 1_555 1_555
C52_7 H42_7 1_555 1_555
C53_7 C52_7 1_555 1_555
C54_7 C53_7 1_555 1_555
H43_7 C54_7 1_555 1_555
C55_7 C54_7 1_555 1_555
H44_7 C55_7 1_555 1_555
C56_7 C51_7 1_555 1_555
C57_7 C53_7 1_555 1_555
H46_7 C57_7 1_555 1_555
H47_7 C57_7 1_555 1_555
H48_7 C57_7 1_555 1_555
H53_7 C65_7 1_555 1_555
H54_7 C65_7 1_555 1_555
Ag1_7 N10_7 1_555 1_555
Ag5_2 N1_7 1_555 1_555
Ag8_3 N2_7 1_555 1_555
N1_7 C10_7 1_555 1_555
N2_7 C9_7 1_555 1_555
N3_7 C4_7 1_555 1_555
N4_7 C6_7 1_555 1_555
H65_7 N4_7 1_555 1_555
N10_7 C47_7 1_555 1_555
H67_7 N12_7 1_555 1_555
O1_7 C1_7 1_555 1_555
O2_7 C1_7 1_555 1_555
O3_7 C12_7 1_555 1_555
O9_7 C50_7 1_555 1_555
O13_4 Ag8_3 1_555 1_555
O14_4 Ag8_3 1_555 1_555
C6_7 C7_7 1_555 1_555
C9_7 N3_7 1_555 1_555
C10_7 N3_7 1_555 1_555
C12_7 N4_7 1_555 1_555
C50_7 N12_7 1_555 1_555
C55_7 C56_7 1_555 1_555
Ag1_7 N14_7 1_555 1_555
Ag1_7 O1_7 1_555 1_555
Ag1_7 O2_7 1_555 1_555
N1_7 N2_7 1_555 1_555
C20_7 C21_7 1_555 1_555
C21_7 C22_7 1_555 1_555
C22_7 H17_7 1_555 1_555
C23_7 C22_7 1_555 1_555
C24_7 C23_7 1_555 1_555
H18_7 C24_7 1_555 1_555
C25_7 C24_7 1_555 1_555
C26_7 C21_7 1_555 1_555
H19_7 C26_7 1_555 1_555
C27_7 H20_7 1_555 1_555
H21_7 C27_7 1_555 1_555
H22_7 C27_7 1_555 1_555
C28_7 C27_7 1_555 1_555
C29_7 C30_7 1_555 1_555
C30_7 H23_7 1_555 1_555
H24_7 C30_7 1_555 1_555
H25_7 C30_7 1_555 1_555
C31_7 C32_7 1_555 1_555
C32_7 C33_7 1_555 1_555
C33_7 H26_7 1_555 1_555
C34_7 C33_7 1_555 1_555
C35_7 C34_7 1_555 1_555
H27_7 C35_7 1_555 1_555
C36_7 C35_7 1_555 1_555
H28_7 C36_7 1_555 1_555
C37_7 C32_7 1_555 1_555
H29_7 C37_7 1_555 1_555
C38_7 C34_7 1_555 1_555
H30_7 C38_7 1_555 1_555
H31_7 C38_7 1_555 1_555
H32_7 C38_7 1_555 1_555
C68_7 H55_7 1_555 1_555
H56_7 C68_7 1_555 1_555
H57_7 C68_7 1_555 1_555
N17_3 C29_7 1_555 1_555
N18_3 C28_7 1_555 1_555
N7_7 C23_7 1_555 1_555
N8_7 C25_7 1_555 1_555
H66_7 N8_7 1_555 1_555
O4_7 C20_7 1_555 1_555
O5_7 C20_7 1_555 1_555
O6_7 C31_7 1_555 1_555
C25_7 C26_7 1_555 1_555
C28_7 N7_7 1_555 1_555
C29_7 N7_7 1_555 1_555
C31_7 N8_7 1_555 1_555
C36_7 C37_7 1_555 1_555
Ag2_7 O4_7 1_555 1_555
C60_7 H49_7 1_555 1_555
C61_7 C60_7 1_555 1_555
C62_7 C61_7 1_555 1_555
H50_7 C62_7 1_555 1_555
N13_7 C67_7 1_555 1_555
N15_7 C61_7 1_555 1_555
C66_7 N15_7 1_555 1_555
C67_7 N15_7 1_555 1_555
C1_8 C2_8 1_555 1_555
C2_8 C3_8 1_555 1_555
C3_8 H1_8 1_555 1_555
C4_8 C3_8 1_555 1_555
C5_8 C4_8 1_555 1_555
H2_8 C5_8 1_555 1_555
C6_8 C5_8 1_555 1_555
C7_8 C2_8 1_555 1_555
H3_8 C7_8 1_555 1_555
C8_8 H4_8 1_555 1_555
H5_8 C8_8 1_555 1_555
H6_8 C8_8 1_555 1_555
C9_8 C8_8 1_555 1_555
C10_8 C11_8 1_555 1_555
C11_8 H7_8 1_555 1_555
H8_8 C11_8 1_555 1_555
H9_8 C11_8 1_555 1_555
C12_8 C13_8 1_555 1_555
C13_8 C14_8 1_555 1_555
C14_8 H10_8 1_555 1_555
C18_8 C13_8 1_555 1_555
H13_8 C18_8 1_555 1_555
C39_8 C40_8 1_555 1_555
C40_8 C41_8 1_555 1_555
C41_8 H33_8 1_555 1_555
C42_8 C41_8 1_555 1_555
C43_8 C42_8 1_555 1_555
H34_8 C43_8 1_555 1_555
C44_8 C43_8 1_555 1_555
C45_8 C40_8 1_555 1_555
H35_8 C45_8 1_555 1_555
C46_8 H36_8 1_555 1_555
H37_8 C46_8 1_555 1_555
H38_8 C46_8 1_555 1_555
C47_8 C46_8 1_555 1_555
C48_8 C49_8 1_555 1_555
H41_8 C49_8 1_555 1_555
C50_8 C51_8 1_555 1_555
C51_8 C52_8 1_555 1_555
C52_8 H42_8 1_555 1_555
C53_8 C52_8 1_555 1_555
C54_8 C53_8 1_555 1_555
H43_8 C54_8 1_555 1_555
C55_8 C54_8 1_555 1_555
H44_8 C55_8 1_555 1_555
C56_8 C51_8 1_555 1_555
C57_8 C53_8 1_555 1_555
H46_8 C57_8 1_555 1_555
H47_8 C57_8 1_555 1_555
H48_8 C57_8 1_555 1_555
H53_8 C65_8 1_555 1_555
H54_8 C65_8 1_555 1_555
Ag1_8 N10_8 1_555 1_555
Ag6_2 N1_8 1_555 1_555
Ag8_4 N2_8 1_555 1_555
N1_8 C10_8 1_555 1_555
N2_8 C9_8 1_555 1_555
N3_8 C4_8 1_555 1_555
N4_8 C6_8 1_555 1_555
H65_8 N4_8 1_555 1_555
N9_8 C48_8 1_555 1_555
N10_8 C47_8 1_555 1_555
N11_8 C42_8 1_555 1_555
N12_8 C44_8 1_555 1_555
H67_8 N12_8 1_555 1_555
O1_8 C1_8 1_555 1_555
O2_8 C1_8 1_555 1_555
O3_8 C12_8 1_555 1_555
O13_4 C39_8 1_555 1_555
O14_4 C39_8 1_555 1_555
O9_8 C50_8 1_555 1_555
C6_8 C7_8 1_555 1_555
C9_8 N3_8 1_555 1_555
C10_8 N3_8 1_555 1_555
C12_8 N4_8 1_555 1_555
C44_8 C45_8 1_555 1_555
C47_8 N11_8 1_555 1_555
C48_8 N11_8 1_555 1_555
C50_8 N12_8 1_555 1_555
C55_8 C56_8 1_555 1_555
Ag1_8 N14_8 1_555 1_555
Ag1_8 O1_8 1_555 1_555
Ag1_8 O2_8 1_555 1_555
N1_8 N2_8 1_555 1_555
N9_8 N10_8 1_555 1_555
C20_8 C21_8 1_555 1_555
C21_8 C22_8 1_555 1_555
C22_8 H17_8 1_555 1_555
C23_8 C22_8 1_555 1_555
C24_8 C23_8 1_555 1_555
H18_8 C24_8 1_555 1_555
C25_8 C24_8 1_555 1_555
C26_8 C21_8 1_555 1_555
H19_8 C26_8 1_555 1_555
C27_8 H20_8 1_555 1_555
H21_8 C27_8 1_555 1_555
H22_8 C27_8 1_555 1_555
C28_8 C27_8 1_555 1_555
C29_8 C30_8 1_555 1_555
C30_8 H23_8 1_555 1_555
H24_8 C30_8 1_555 1_555
H25_8 C30_8 1_555 1_555
C31_8 C32_8 1_555 1_555
C32_8 C33_8 1_555 1_555
C33_8 H26_8 1_555 1_555
C34_8 C33_8 1_555 1_555
C35_8 C34_8 1_555 1_555
H27_8 C35_8 1_555 1_555
C36_8 C35_8 1_555 1_555
H28_8 C36_8 1_555 1_555
C37_8 C32_8 1_555 1_555
H29_8 C37_8 1_555 1_555
C38_8 C34_8 1_555 1_555
H30_8 C38_8 1_555 1_555
H31_8 C38_8 1_555 1_555
H32_8 C38_8 1_555 1_555
C60_8 H49_8 1_555 1_555
C61_8 C60_8 1_555 1_555
C62_8 C61_8 1_555 1_555
H50_8 C62_8 1_555 1_555
C67_8 C68_8 1_555 1_555
C68_8 H55_8 1_555 1_555
H56_8 C68_8 1_555 1_555
H57_8 C68_8 1_555 1_555
N17_4 C29_8 1_555 1_555
N18_4 C28_8 1_555 1_555
N7_8 C23_8 1_555 1_555
N8_8 C25_8 1_555 1_555
H66_8 N8_8 1_555 1_555
N13_8 C67_8 1_555 1_555
N15_8 C61_8 1_555 1_555
O4_8 C20_8 1_555 1_555
O5_8 C20_8 1_555 1_555
O6_8 C31_8 1_555 1_555
C25_8 C26_8 1_555 1_555
C28_8 N7_8 1_555 1_555
C29_8 N7_8 1_555 1_555
C31_8 N8_8 1_555 1_555
C36_8 C37_8 1_555 1_555
C66_8 N15_8 1_555 1_555
C67_8 N15_8 1_555 1_555
Ag2_8 N13_8 1_555 1_555
Ag2_8 O4_8 1_555 1_555
C58_6 C59_6 1_555 1_555
C64_6 C59_6 1_555 1_555
H51_6 C64_6 1_555 1_555
C69_8 C70_8 1_555 1_555
C70_8 C71_8 1_555 1_555
C71_8 H58_8 1_555 1_555
C72_8 C71_8 1_555 1_555
C73_8 C72_8 1_555 1_555
H59_8 C73_8 1_555 1_555
C74_8 C73_8 1_555 1_555
H60_8 C74_8 1_555 1_555
C75_8 C70_8 1_555 1_555
H61_8 C75_8 1_555 1_555
C76_8 C72_8 1_555 1_555
H62_8 C76_8 1_555 1_555
H63_8 C76_8 1_555 1_555
H64_8 C76_8 1_555 1_555
N16_6 C63_6 1_555 1_555
H68_6 N16_6 1_555 1_555
O11_6 C58_6 1_555 1_555
O12_8 C69_8 1_555 1_555
C63_6 C64_6 1_555 1_555
C69_8 N16_6 1_555 1_555
C74_8 C75_8 1_555 1_555
C58_7 C59_7 1_555 1_555
C64_7 C59_7 1_555 1_555
H51_7 C64_7 1_555 1_555
N16_7 C63_7 1_555 1_555
H68_7 N16_7 1_555 1_555
O11_7 C58_7 1_555 1_555
C63_7 C64_7 1_555 1_555
C16_5 C15_5 1_555 1_555
H11_5 C16_5 1_555 1_555
C17_5 C16_5 1_555 1_555
H12_5 C17_5 1_555 1_555
C19_5 C15_5 1_555 1_555
H14_5 C19_5 1_555 1_555
H15_5 C19_5 1_555 1_555
H16_5 C19_5 1_555 1_555
C16_6 C15_6 1_555 1_555
H11_6 C16_6 1_555 1_555
C17_6 C16_6 1_555 1_555
H12_6 C17_6 1_555 1_555
C19_6 C15_6 1_555 1_555
H14_6 C19_6 1_555 1_555
H15_6 C19_6 1_555 1_555
H16_6 C19_6 1_555 1_555
C58_8 C59_8 1_555 1_555
C64_8 C59_8 1_555 1_555
H51_8 C64_8 1_555 1_555
N16_8 C63_8 1_555 1_555
H68_8 N16_8 1_555 1_555
O11_8 C58_8 1_555 1_555
C63_8 C64_8 1_555 1_555
C16_7 C15_7 1_555 1_555
H11_7 C16_7 1_555 1_555
C17_7 C16_7 1_555 1_555
H12_7 C17_7 1_555 1_555
C19_7 C15_7 1_555 1_555
H14_7 C19_7 1_555 1_555
H15_7 C19_7 1_555 1_555
H16_7 C19_7 1_555 1_555
C16_8 C15_8 1_555 1_555
H11_8 C16_8 1_555 1_555
C17_8 C16_8 1_555 1_555
H12_8 C17_8 1_555 1_555
C19_8 C15_8 1_555 1_555
H14_8 C19_8 1_555 1_555
H15_8 C19_8 1_555 1_555
H16_8 C19_8 1_555 1_555

#END
