
###############################################################################
#
# This file contains modified crystal structure data generated from the
# MOF subset of the Cambridge Structural Database (CSD) v543 
# hosted by the Cambridge Crystallographic Data Centre (CCDC).
#
# This work is licensed under the Creative Commons
# Attribution-NonCommercial-ShareAlike 4.0 International License.
# To view a copy of this license, visit
# http://creativecommons.org/licenses/by-nc-sa/4.0/
# or send a letter to
# Creative Commons, PO Box 1866, Mountain View, CA 94042, USA.
#
# CIF created using the CSD Python API on 29 September 2022
# The structure has been converted into the P1 space group
# The structure has a 3D framework
# The original CSD entry VOKQET is in the monoclinic crystal system
# The framework has been calculated to contain at least 10.0% void space
# The void calculation uses a probe of radius 1.32A, grid spacing 0.4
# H atom positions have been added when not included in the experimental data
#
###############################################################################

data_VOKQET
_chemical_formula_moiety         '(C60 H40 Cu4 N10 O36 U6)n'
_symmetry_cell_setting           triclinic
_symmetry_space_group_name_H-M   'P 1'
_symmetry_Int_Tables_number      1
_space_group_name_Hall           'P 1'
loop_
_symmetry_equiv_pos_site_id
_symmetry_equiv_pos_as_xyz
1 x,y,z
_cell_length_a                   9.7137(11)
_cell_length_b                   14.5743(16)
_cell_length_c                   14.5114(16)
_cell_angle_alpha                90
_cell_angle_beta                 105.0120(13)
_cell_angle_gamma                90
_cell_volume                     1984.27
loop_
_atom_site_label
_atom_site_type_symbol
_atom_site_fract_x
_atom_site_fract_y
_atom_site_fract_z
C26 C 0.2262(8) 0.0859(5) 0.0162(6)
O18 O 0.2791(6) 0.0760(3) 0.1041(4)
U5 U 0.36076(3) 0.237828(16) 0.133343(17)
C27 C 0.1818(7) 0.0020(5) 0.9555(5)
C30 C 0.1935(8) 0.0013(5) 0.8615(6)
O17 O 0.2120(6) 0.1636(3) 0.9785(4)
H13 H 0.232486 0.0610814 0.830957
H20 H 0.130143 0.9217 0.0677187
Cu1 Cu -0.0000 0.74715(7) 0.7500
C25 C 0.0856(7) 0.8493(5) 0.9327(5)
C28 C 0.1323(8) 0.9241(5) 0.9931(5)
C29 C 0.1538(8) 0.9219(5) 0.8083(5)
N5 N 0.0954(6) 0.8481(4) 0.8416(4)
N6 N 0.0877(6) 0.6489(4) 0.8470(4)
O19 O 0.2155(5) 0.7526(3) 0.6885(3)
Cu4 Cu -0.0000 0.25285(7) 0.2500
H7 H 0.0984412 0.56869 0.681471
H16 H 0.0399408 0.790228 0.960002
H18 H 0.17008 0.91853 0.736897
C3 C 0.7738(8) 0.0859(5) 0.4838(6)
C5 C 0.8182(7) 0.0020(5) 0.5445(5)
C11 C 0.8065(8) 0.0013(5) 0.6385(6)
O5 O 0.7880(6) 0.1636(3) 0.5215(4)
O6 O 0.7209(6) 0.0760(3) 0.3959(4)
U4 U 0.63924(3) 0.237828(16) 0.366657(17)
H3 H 0.767514 0.0610814 0.669043
C1 C 0.9144(7) 0.8493(5) 0.5673(5)
C2 C 0.9862(7) 0.5726(4) 0.6433(5)
C4 C 0.7820(7) 0.5087(5) 0.5340(5)
C6 C 0.7123(8) 0.4304(5) 0.4700(5)
C7 C 0.8677(8) 0.9241(5) 0.5069(5)
C8 C 0.9259(7) 0.5000(5) 0.5875(5)
C9 C 0.7747(7) 0.6563(5) 0.6031(5)
C10 C 0.8462(8) 0.9219(5) 0.6917(5)
C12 C 0.5000 0.7743(7) 0.2500
C13 C 0.5000 0.6712(7) 0.2500
C14 C 0.7079(7) 0.5880(5) 0.5410(5)
C15 C 0.4849(9) 0.8205(6) 0.1639(7)
C16 C 0.4840(9) 0.9167(6) 0.1672(7)
N1 N 0.9046(6) 0.8481(4) 0.6584(4)
N2 N 0.9123(6) 0.6489(4) 0.6530(4)
N3 N 0.5000 0.9633(7) 0.2500
O1 O 0.5000 0.3245(4) 0.2500
O2 O 0.7845(5) 0.2474(3) 0.3115(3)
O3 O 0.5068(5) 0.2294(3) 0.4308(4)
O4 O 0.5000 0.1477(4) 0.2500
O7 O 0.7741(6) 0.3557(4) 0.4759(4)
O8 O 0.5901(6) 0.4449(4) 0.4131(4)
O9 O 0.4697(7) 0.6288(4) 0.1722(4)
O10 O 0.3202(5) 0.4813(4) 0.2557(4)
Cu1_2 Cu 1.0000 0.74715(7) 0.7500
U2 U 0.5000 0.47866(2) 0.2500
C17 C 0.5151(9) 0.8205(6) 0.3361(7)
C18 C 0.5160(9) 0.9167(6) 0.3328(7)
O11 O 0.5303(7) 0.6288(4) 0.3278(4)
C21 C 0.2877(8) 0.4304(5) 0.0300(5)
O12 O 0.2155(5) 0.2474(3) 0.1885(3)
O13 O 0.4932(5) 0.2294(3) 0.0692(4)
O14 O 0.2259(6) 0.3557(4) 0.0241(4)
O15 O 0.4099(6) 0.4449(4) 0.0869(4)
O16 O 0.6798(5) 0.4813(4) 0.2443(4)
O20 O 0.7845(5) 0.7526(3) 0.8115(3)
Cu4_2 Cu 1.0000 0.25285(7) 0.2500
H1 H 0.869857 0.9217 0.432281
H2 H 0.469982 0.955108 0.101039
H4 H 0.474288 0.783651 0.0971374
H5 H 0.960059 0.790228 0.539998
H6 H 0.986353 0.437687 0.584294
H8 H 0.714731 0.717375 0.61183
H9 H 0.82992 0.91853 0.763103
H10 H 0.5986 0.596817 0.498396
H11 H 0.525712 0.783651 0.402863
H12 H 0.530018 0.955108 0.398961
H19 H 0.4014 0.596817 0.00160362
C19 C 0.0138(7) 0.5726(4) 0.8567(5)
C20 C 0.2180(7) 0.5087(5) 0.9660(5)
C22 C 0.0741(7) 0.5000(5) 0.9125(5)
C23 C 0.2253(7) 0.6563(5) 0.8969(5)
C24 C 0.2921(7) 0.5880(5) 0.9590(5)
H14 H 0.285269 0.717375 0.88817
H17 H 0.0136469 0.437687 0.915706
H15 H 0.901559 0.56869 0.818529
H15_2 H 0.0984412 0.43131 0.181471
C19_2 C 0.9862(7) 0.4274(4) 0.1433(5)
C20_2 C 0.7820(7) 0.4913(5) 0.0340(5)
C22_2 C 0.9259(7) 0.5000(5) 0.0875(5)
C23_2 C 0.7747(7) 0.3437(5) 0.1031(5)
C24_2 C 0.7079(7) 0.4120(5) 0.0410(5)
N4 N 0.9123(6) 0.3511(4) 0.1530(4)
O22 O 0.7880(6) 0.8364(3) 0.0215(4)
H14_2 H 0.714731 0.282625 0.11183
H17_2 H 0.986353 0.562313 0.0842943
C1_2 C 0.0856(7) 0.1507(5) 0.4327(5)
C2_2 C 0.0138(7) 0.4274(4) 0.3567(5)
C4_2 C 0.2180(7) 0.4913(5) 0.4660(5)
C6_2 C 0.2877(8) 0.5696(5) 0.5300(5)
C7_2 C 0.1323(8) 0.0759(5) 0.4931(5)
C8_2 C 0.0741(7) 0.5000(5) 0.4125(5)
C9_2 C 0.2253(7) 0.3437(5) 0.3969(5)
C10_2 C 0.1538(8) 0.0781(5) 0.3083(5)
C12_2 C 0.5000 0.2257(7) 0.7500
C13_2 C 0.5000 0.3288(7) 0.7500
C14_2 C 0.2921(7) 0.4120(5) 0.4590(5)
C15_2 C 0.5151(9) 0.1795(6) 0.8361(7)
C16_2 C 0.5160(9) 0.0833(6) 0.8328(7)
N1_2 N 0.0954(6) 0.1519(4) 0.3416(4)
N2_2 N 0.0877(6) 0.3511(4) 0.3470(4)
N3_2 N 0.5000 0.0367(7) 0.7500
O1_2 O 0.5000 0.6755(4) 0.7500
O3_2 O 0.4932(5) 0.7706(3) 0.5692(4)
O4_2 O 0.5000 0.8523(4) 0.7500
O7_2 O 0.2259(6) 0.6443(4) 0.5241(4)
O8_2 O 0.4099(6) 0.5551(4) 0.5869(4)
O9_2 O 0.5303(7) 0.3712(4) 0.8278(4)
O10_2 O 0.6798(5) 0.5187(4) 0.7443(4)
U1 U 0.36076(3) 0.762172(16) 0.633343(17)
U2_2 U 0.5000 0.52134(2) 0.7500
C17_2 C 0.4849(9) 0.1795(6) 0.6639(7)
C18_2 C 0.4840(9) 0.0833(6) 0.6672(7)
O11_2 O 0.4697(7) 0.3712(4) 0.6722(4)
C21_2 C 0.7123(8) 0.5696(5) 0.9700(5)
O13_2 O 0.5068(5) 0.7706(3) 0.9308(4)
O14_2 O 0.7741(6) 0.6443(4) 0.9759(4)
O15_2 O 0.5901(6) 0.5551(4) 0.9131(4)
O16_2 O 0.3202(5) 0.5187(4) 0.7557(4)
U3 U 0.63924(3) 0.762172(16) 0.866657(17)
O21 O 0.2120(6) 0.8364(3) 0.4785(4)
O23 O 0.2791(6) 0.9240(3) 0.6041(4)
O24 O 0.7209(6) 0.9240(3) 0.8959(4)
H1_2 H 0.130143 0.0783003 0.567719
H2_2 H 0.530018 0.0448924 0.898961
H4_2 H 0.525712 0.216349 0.902863
H5_2 H 0.0399408 0.209772 0.460002
H6_2 H 0.0136469 0.562313 0.415706
H8_2 H 0.285269 0.282625 0.38817
H9_2 H 0.17008 0.0814705 0.236897
H10_2 H 0.4014 0.403183 0.501604
H11_2 H 0.474288 0.216349 0.597137
H12_2 H 0.469982 0.0448924 0.601039
H19_2 H 0.5986 0.403183 0.998396
C3_2 C 0.2262(8) 0.9141(5) 0.5162(6)
C5_2 C 0.1818(7) 0.9980(5) 0.4555(5)
C11_2 C 0.1935(8) 0.9987(5) 0.3615(6)
H3_2 H 0.232486 0.938919 0.330957
C25_2 C 0.9144(7) 0.1507(5) 0.0673(5)
C28_2 C 0.8677(8) 0.0759(5) 0.0069(5)
C29_2 C 0.8462(8) 0.0781(5) 0.1917(5)
N5_2 N 0.9046(6) 0.1519(4) 0.1584(4)
H7_2 H 0.901559 0.43131 0.318529
H16_2 H 0.960059 0.209772 0.0399978
H18_2 H 0.82992 0.0814705 0.263103
H20_2 H 0.869857 0.0783003 0.932281
C27_2 C 0.8182(7) 0.9980(5) 0.0445(5)
C30_2 C 0.8065(8) 0.9987(5) 0.1385(6)
H13_2 H 0.767514 0.938919 0.169043
C26_2 C 0.7738(8) 0.9141(5) 0.9838(6)
loop_
_geom_bond_atom_site_label_1
_geom_bond_atom_site_label_2
_geom_bond_site_symmetry_1
_geom_bond_site_symmetry_2
O18 C26 1_555 1_555
O18 U5 1_555 1_555
C30 C27 1_555 1_555
C30 H13 1_555 1_555
C25 C28 1_555 1_555
N5 Cu1 1_555 1_555
N6 Cu1 1_555 1_555
O19 Cu1 1_555 1_555
C25 N5 1_555 1_555
C29 N5 1_555 1_555
C25 H16 1_555 1_555
C29 H18 1_555 1_555
C3 C5 1_555 1_555
C11 C5 1_555 1_555
O5 C3 1_555 1_555
O6 C3 1_555 1_555
U4 O5 1_555 1_555
O6 U4 1_555 1_555
C11 H3 1_555 1_555
C1 C7 1_555 1_555
C2 C8 1_555 1_555
C4 C6 1_555 1_555
C6 O7 1_555 1_555
C8 C4 1_555 1_555
C9 C14 1_555 1_555
C12 C13 1_555 1_555
C13 O9 1_555 1_555
C14 C4 1_555 1_555
C15 C12 1_555 1_555
C16 C15 1_555 1_555
N1 C1 1_555 1_555
N2 C2 1_555 1_555
N3 C16 1_555 1_555
O1 U4 1_555 1_555
O2 U4 1_555 1_555
O3 U4 1_555 1_555
O4 U4 1_555 1_555
O7 U4 1_555 1_555
O8 C6 1_555 1_555
O9 U2 1_555 1_555
O10 U2 1_555 1_555
Cu1_2 N1 1_555 1_555
U2 O1 1_555 1_555
C17 C12 1_555 1_555
C18 N3 1_555 1_555
O11 C13 1_555 1_555
C21 O14 1_555 1_555
O12 U5 1_555 1_555
O13 U5 1_555 1_555
O14 U5 1_555 1_555
O15 U2 1_555 1_555
O16 U2 1_555 1_555
U5 O1 1_555 1_555
O20 Cu1_2 1_555 1_555
Cu4 O12 1_555 1_555
Cu4_2 O2 1_555 1_555
C9 N2 1_555 1_555
C10 N1 1_555 1_555
N2 Cu1_2 1_555 1_555
O4 U5 1_555 1_555
O8 U2 1_555 1_555
U2 O11 1_555 1_555
C17 C18 1_555 1_555
C21 O15 1_555 1_555
C7 H1 1_555 1_555
C16 H2 1_555 1_555
C15 H4 1_555 1_555
C1 H5 1_555 1_555
C8 H6 1_555 1_555
C9 H8 1_555 1_555
C10 H9 1_555 1_555
C14 H10 1_555 1_555
C17 H11 1_555 1_555
C18 H12 1_555 1_555
C19 C22 1_555 1_555
C22 C20 1_555 1_555
C23 C24 1_555 1_555
C24 C20 1_555 1_555
N6 C19 1_555 1_555
C23 N6 1_555 1_555
C23 H14 1_555 1_555
C22 H17 1_555 1_555
C19_2 C22_2 1_555 1_555
C22_2 C20_2 1_555 1_555
C23_2 C24_2 1_555 1_555
C24_2 C20_2 1_555 1_555
N4 C19_2 1_555 1_555
Cu4_2 N4 1_555 1_555
C23_2 N4 1_555 1_555
C23_2 H14_2 1_555 1_555
C22_2 H17_2 1_555 1_555
C1_2 C7_2 1_555 1_555
C2_2 C8_2 1_555 1_555
C4_2 C6_2 1_555 1_555
C6_2 O7_2 1_555 1_555
C8_2 C4_2 1_555 1_555
C9_2 C14_2 1_555 1_555
C12_2 C13_2 1_555 1_555
C13_2 O9_2 1_555 1_555
C14_2 C4_2 1_555 1_555
C15_2 C12_2 1_555 1_555
C16_2 C15_2 1_555 1_555
N1_2 C1_2 1_555 1_555
N2_2 C2_2 1_555 1_555
N3_2 C16_2 1_555 1_555
O1_2 U1 1_555 1_555
O19 U1 1_555 1_555
O3_2 U1 1_555 1_555
O4_2 U1 1_555 1_555
O7_2 U1 1_555 1_555
O8_2 C6_2 1_555 1_555
O9_2 U2_2 1_555 1_555
O10_2 U2_2 1_555 1_555
Cu4 N1_2 1_555 1_555
U1 O21 1_555 1_555
U2_2 O1_2 1_555 1_555
C17_2 C12_2 1_555 1_555
C18_2 N3_2 1_555 1_555
O11_2 C13_2 1_555 1_555
C21_2 O14_2 1_555 1_555
O20 U3 1_555 1_555
O13_2 U3 1_555 1_555
O14_2 U3 1_555 1_555
O15_2 U2_2 1_555 1_555
O16_2 U2_2 1_555 1_555
U3 O1_2 1_555 1_555
O23 U1 1_555 1_555
O24 U3 1_555 1_555
C9_2 N2_2 1_555 1_555
C10_2 N1_2 1_555 1_555
N2_2 Cu4 1_555 1_555
O4_2 U3 1_555 1_555
O8_2 U2_2 1_555 1_555
U2_2 O11_2 1_555 1_555
C17_2 C18_2 1_555 1_555
C21_2 O15_2 1_555 1_555
C7_2 H1_2 1_555 1_555
C16_2 H2_2 1_555 1_555
C15_2 H4_2 1_555 1_555
C1_2 H5_2 1_555 1_555
C8_2 H6_2 1_555 1_555
C9_2 H8_2 1_555 1_555
C10_2 H9_2 1_555 1_555
C14_2 H10_2 1_555 1_555
C17_2 H11_2 1_555 1_555
C18_2 H12_2 1_555 1_555
C3_2 C5_2 1_555 1_555
C11_2 C5_2 1_555 1_555
O21 C3_2 1_555 1_555
O23 C3_2 1_555 1_555
C11_2 H3_2 1_555 1_555
C25_2 C28_2 1_555 1_555
N5_2 Cu4_2 1_555 1_555
C25_2 N5_2 1_555 1_555
C29_2 N5_2 1_555 1_555
C25_2 H16_2 1_555 1_555
C29_2 H18_2 1_555 1_555
C30_2 C27_2 1_555 1_555
C30_2 H13_2 1_555 1_555
O24 C26_2 1_555 1_555

#END
