
###############################################################################
#
# This file contains modified crystal structure data generated from the
# MOF subset of the Cambridge Structural Database (CSD) v543 
# hosted by the Cambridge Crystallographic Data Centre (CCDC).
#
# This work is licensed under the Creative Commons
# Attribution-NonCommercial-ShareAlike 4.0 International License.
# To view a copy of this license, visit
# http://creativecommons.org/licenses/by-nc-sa/4.0/
# or send a letter to
# Creative Commons, PO Box 1866, Mountain View, CA 94042, USA.
#
# CIF created using the CSD Python API on 29 September 2022
# The structure has been converted into the P1 space group
# The structure has a 3D framework
# The original CSD entry VOLPET is in the triclinic crystal system
# The framework has been calculated to contain at least 10.0% void space
# The void calculation uses a probe of radius 1.32A, grid spacing 0.4
#
###############################################################################

data_VOLPET
_chemical_formula_moiety         '(C66 H58 N6 O38 S8 Zn7)n'
_symmetry_cell_setting           triclinic
_symmetry_space_group_name_H-M   'P 1'
_symmetry_Int_Tables_number      1
_space_group_name_Hall           'P 1'
loop_
_symmetry_equiv_pos_site_id
_symmetry_equiv_pos_as_xyz
1 x,y,z
_cell_length_a                   15.5168(7)
_cell_length_b                   16.7790(8)
_cell_length_c                   18.7394(11)
_cell_angle_alpha                94.142(4)
_cell_angle_beta                 113.527(5)
_cell_angle_gamma                110.215(4)
_cell_volume                     4070.64
loop_
_atom_site_label
_atom_site_type_symbol
_atom_site_fract_x
_atom_site_fract_y
_atom_site_fract_z
_atom_site_U_iso_or_equiv
_atom_site_thermal_displace_type
N2 N 0.4847(4) 0.0800(4) 0.5668(4) 0.0961 Uani
C2 C 0.5737(7) 0.1152(7) 0.6472(5) 0.1755 Uani
H4 H 0.5572 0.0830 0.6836 0.2630 Uiso
H5 H 0.5902 0.1759 0.6659 0.2630 Uiso
H6 H 0.6319 0.1097 0.6443 0.2630 Uiso
C8 C 0.4982(5) 0.1218(4) 0.5060(5) 0.0920 Uani
H16 H 0.4361 0.0948 0.4564 0.1380 Uiso
H17 H 0.5540 0.1157 0.4993 0.1380 Uiso
H18 H 0.5137 0.1828 0.5216 0.1380 Uiso
C9 C 0.0999(8) 0.0620(6) 0.6091(5) 0.1512 Uani
H19 H 0.1276 0.0799 0.5725 0.2270 Uiso
H20 H 0.1379 0.1066 0.6584 0.2270 Uiso
H21 H 0.0288 0.0533 0.5858 0.2270 Uiso
C20 C 0.4010(5) 0.0106(5) 0.5521(5) 0.0830 Uani
Zn3 Zn 0.19115(4) 0.87693(4) 0.46624(4) 0.0453 Uani
Zn4 Zn 0.00845(5) 0.80840(4) 0.27560(4) 0.0454 Uani
S3 S 0.29331(11) 0.65218(9) 0.38312(9) 0.0498 Uani
O8 O 0.0563(3) 0.7868(2) 0.4581(2) 0.0568 Uani
O13 O 0.4219(3) 0.5515(2) 0.4095(2) 0.0523 Uani
O14 O 0.3390(3) 0.4693(3) 0.2857(3) 0.0711 Uani
O15 O 0.2089(3) 0.7842(3) 0.3980(3) 0.0570 Uani
O16 O 0.0870(3) 0.7402(3) 0.2703(3) 0.0796 Uani
O17 O 0.3292(3) 0.9737(3) 0.4844(3) 0.0591 Uani
O18 O 0.2750(3) 0.8381(3) 0.5669(2) 0.0633 Uani
O19 O 0.1794(3) 0.9657(3) 0.5422(3) 0.0642 Uani
N1 N 0.3341(6) 0.7374(5) 0.6076(4) 0.1012 Uani
N3 N 0.1077(5) 0.9806(5) 0.6252(4) 0.0920 Uani
C1 C 0.4378(7) 0.7990(8) 0.6599(8) 0.2202 Uani
H1 H 0.4419 0.8575 0.6609 0.3300 Uiso
H2 H 0.4836 0.7907 0.6406 0.3300 Uiso
H3 H 0.4572 0.7900 0.7131 0.3300 Uiso
C3 C 0.3181(10) 0.6487(7) 0.6012(6) 0.2052 Uani
H7 H 0.2475 0.6122 0.5645 0.3080 Uiso
H8 H 0.3335 0.6362 0.6530 0.3080 Uiso
H9 H 0.3624 0.6372 0.5818 0.3080 Uiso
C4 C 0.1675(7) 0.6226(6) 0.2403(5) 0.1385 Uani
H10 H 0.1166 0.6241 0.1931 0.1670 Uiso
C5 C 0.0685(8) 0.9421(7) 0.6802(6) 0.1620 Uani
H11 H 0.0784 0.8891 0.6859 0.2430 Uiso
H13 H 0.1052 0.9829 0.7317 0.2430 Uiso
C6 C 0.2179(7) 0.5659(7) 0.2442(5) 0.1581 Uani
H14 H 0.2034 0.5259 0.1996 0.1890 Uiso
C15 C 0.2012(5) 0.6732(4) 0.3114(4) 0.0639 Uani
C16 C 0.2877(5) 0.5755(4) 0.3178(4) 0.0687 Uani
C19 C 0.2646(5) 0.7632(5) 0.5649(4) 0.0747 Uani
H24 H 0.2005 0.7198 0.5291 0.0900 Uiso
H25 H 0.3959 0.9885 0.5950 0.1000 Uiso
C21 C 0.1465(6) 0.9419(5) 0.5904(5) 0.0787 Uani
H26 H 0.1494 0.8903 0.6038 0.0940 Uiso
C24 C 0.3570(5) 0.5287(4) 0.3408(4) 0.0517 Uani
C28 C 0.1604(5) 0.7381(4) 0.3282(4) 0.0507 Uani
Zn10 Zn 0.5000 0.5000 0.5000 0.0360 Uani
Zn11 Zn 0.42982(5) 0.41057(4) 0.28820(4) 0.0428 Uani
O39 O 0.1095(3) 0.9183(2) 0.3637(2) 0.0516 Uani
O41 O 0.1259(4) 0.9425(3) 0.2549(3) 0.1100 Uani
O20 O 0.8905(3) 0.0817(2) 0.6363(2) 0.0516 Uani
O21 O 0.8741(4) 0.0575(3) 0.7451(3) 0.1100 Uani
C51 C 0.8559(5) 0.0311(4) 0.6742(5) 0.0613 Uani
Zn14 Zn 0.80885(4) 0.12307(4) 0.53376(4) 0.0453 Uani
Zn16 Zn 0.99155(5) 0.19160(4) 0.72440(4) 0.0454 Uani
S1 S 0.26838(13) 0.13098(10) 0.31983(10) 0.0610 Uani
S2 S 0.76722(11) 0.62936(11) 0.35886(10) 0.0603 Uani
O3 O 0.3937(3) 0.3708(2) 0.4424(2) 0.0529 Uani
O4 O 0.3947(3) 0.3105(2) 0.3323(3) 0.0559 Uani
O5 O 0.6024(3) 0.4954(2) 0.4546(2) 0.0504 Uani
O6 O 0.5682(3) 0.5021(3) 0.3279(3) 0.0621 Uani
O7 O 0.9333(3) 0.7457(3) 0.3336(3) 0.0700 Uani
O9 O 0.9056(3) 0.7712(3) 0.1625(3) 0.0765 Uani
O10 O 0.8671(6) 0.8677(5) 0.2099(3) 0.1635 Uani
H12 H 0.9965 0.9293 0.6588 0.2430 Uiso
C7 C 0.6889(9) 0.8194(8) 0.0531(5) 0.1892 Uani
H15 H 0.6827 0.8565 0.0884 0.2270 Uiso
C10 C 0.7653(6) 0.7907(5) 0.0749(4) 0.0997 Uani
C13 C 0.8521(7) 0.8129(6) 0.1556(5) 0.0933 Uani
C14 C 0.8092(5) 0.6274(4) 0.5020(4) 0.0645 Uani
H23 H 0.8043 0.6152 0.5482 0.0770 Uiso
C22 C 0.2208(4) 0.1083(4) 0.4336(4) 0.0566 Uani
H27 H 0.1932 0.0820 0.4661 0.0680 Uiso
C23 C 0.8990(4) 0.6860(4) 0.5022(4) 0.0650 Uani
H28 H 0.9599 0.7170 0.5489 0.0790 Uiso
C25 C 0.2084(4) 0.0642(4) 0.3656(4) 0.0518 Uani
C26 C 0.6243(4) 0.5254(4) 0.4013(4) 0.0476 Uani
C27 C 0.8893(4) 0.6933(3) 0.4294(4) 0.0481 Uani
C29 C 0.3733(4) 0.3093(4) 0.3900(4) 0.0423 Uani
C30 C 0.7310(4) 0.5910(3) 0.4279(4) 0.0447 Uani
C31 C 0.9662(5) 0.7465(4) 0.4070(4) 0.0484 Uani
C32 C 0.3113(4) 0.2196(3) 0.3946(3) 0.0454 Uani
C33 C 0.2793(4) 0.1980(4) 0.4509(4) 0.0531 Uani
H29 H 0.2947 0.2382 0.4957 0.0640 Uiso
S8 S 0.25155(13) 0.27760(12) 0.00409(10) 0.0678 Uani
O30 O 0.3731(3) 0.3603(3) 0.1749(2) 0.0663 Uani
O31 O 0.4915(4) 0.3076(4) 0.1999(3) 0.1242 Uani
C44 C 0.3608(6) 0.2690(5) 0.0691(4) 0.0938 Uani
C45 C 0.3791(8) 0.2134(8) 0.0285(5) 0.1809 Uani
H51 H 0.4338 0.1976 0.0531 0.2170 Uiso
C50 C 0.4134(6) 0.3164(5) 0.1554(4) 0.0794 Uani
O43 O 0.6063(3) 0.6292(2) 0.5576(2) 0.0529 Uani
O44 O 0.3976(3) 0.5046(2) 0.5454(2) 0.0504 Uani
O46 O 0.5781(3) 0.4485(2) 0.5905(2) 0.0523 Uani
S4 S 0.74845(13) 0.72240(12) 0.99591(10) 0.0678 Uani
O11 O 0.6269(3) 0.6397(3) 0.8251(2) 0.0663 Uani
O12 O 0.5085(4) 0.6924(4) 0.8001(3) 0.1242 Uani
C11 C 0.6392(6) 0.7310(5) 0.9309(4) 0.0938 Uani
C12 C 0.6209(8) 0.7866(8) 0.9715(5) 0.1809 Uani
H22 H 0.5662 0.8024 0.9469 0.2170 Uiso
C17 C 0.5866(6) 0.6836(5) 0.8446(4) 0.0794 Uani
Zn5 Zn 0.57018(5) 0.58943(4) 0.71180(4) 0.0428 Uani
S5 S 0.73162(13) 0.86902(10) 0.68017(10) 0.0610 Uani
S6 S 0.23278(11) 0.37064(11) 0.64114(10) 0.0603 Uani
O23 O 0.6053(3) 0.6895(2) 0.6677(3) 0.0559 Uani
O25 O 0.4318(3) 0.4979(3) 0.6721(3) 0.0621 Uani
O26 O 0.0667(3) 0.2543(3) 0.6664(3) 0.0700 Uani
O28 O 0.0944(3) 0.2288(3) 0.8375(3) 0.0765 Uani
O29 O 0.1329(6) 0.1323(5) 0.7901(3) 0.1635 Uani
H41 H 0.0035 0.0707 0.3412 0.2430 Uiso
C40 C 0.3111(9) 0.1806(8) 0.9469(5) 0.1892 Uani
H44 H 0.3173 0.1435 0.9116 0.2270 Uiso
C43 C 0.2347(6) 0.2093(5) 0.9251(4) 0.0997 Uani
C46 C 0.1479(7) 0.1871(6) 0.8444(5) 0.0933 Uani
C47 C 0.1908(5) 0.3726(4) 0.4980(4) 0.0645 Uani
H52 H 0.1957 0.3848 0.4518 0.0770 Uiso
C55 C 0.7792(4) 0.8917(4) 0.5664(4) 0.0566 Uani
H56 H 0.8068 0.9180 0.5339 0.0680 Uiso
C56 C 0.1010(4) 0.3140(4) 0.4978(4) 0.0650 Uani
H57 H 0.0401 0.2830 0.4511 0.0790 Uiso
C58 C 0.7916(4) 0.9358(4) 0.6344(4) 0.0518 Uani
C59 C 0.3757(4) 0.4746(4) 0.5987(4) 0.0476 Uani
C60 C 0.1107(4) 0.3067(3) 0.5706(4) 0.0481 Uani
C62 C 0.6267(4) 0.6907(4) 0.6100(4) 0.0423 Uani
C63 C 0.2690(4) 0.4090(3) 0.5721(4) 0.0447 Uani
C64 C 0.0338(5) 0.2535(4) 0.5930(4) 0.0484 Uani
C65 C 0.6887(4) 0.7804(3) 0.6054(3) 0.0454 Uani
C66 C 0.7207(4) 0.8020(4) 0.5491(4) 0.0531 Uani
H58 H 0.7053 0.7618 0.5043 0.0640 Uiso
O48 O 0.6610(3) 0.5307(3) 0.7143(3) 0.0711 Uani
C18 C 0.1441(5) 0.9689(4) 0.3258(5) 0.0613 Uani
S7 S 0.70669(11) 0.34782(9) 0.61688(9) 0.0498 Uani
O27 O 0.9437(3) 0.2132(2) 0.5419(2) 0.0568 Uani
O34 O 0.7911(3) 0.2158(3) 0.6020(3) 0.0570 Uani
O35 O 0.9130(3) 0.2598(3) 0.7297(3) 0.0796 Uani
O36 O 0.6708(3) 0.0263(3) 0.5156(3) 0.0591 Uani
O37 O 0.7250(3) 0.1619(3) 0.4331(2) 0.0633 Uani
O38 O 0.8206(3) 0.0343(3) 0.4578(3) 0.0642 Uani
N4 N 0.6659(6) 0.2626(5) 0.3924(4) 0.1012 Uani
N6 N 0.8923(5) 0.0194(5) 0.3748(4) 0.0920 Uani
C34 C 0.5622(7) 0.2010(8) 0.3401(8) 0.2202 Uani
H30 H 0.5581 0.1425 0.3391 0.3300 Uiso
H31 H 0.5164 0.2093 0.3594 0.3300 Uiso
H32 H 0.5428 0.2100 0.2869 0.3300 Uiso
C36 C 0.6819(10) 0.3513(7) 0.3988(6) 0.2052 Uani
H36 H 0.7525 0.3878 0.4355 0.3080 Uiso
H37 H 0.6665 0.3638 0.3470 0.3080 Uiso
H38 H 0.6376 0.3628 0.4182 0.3080 Uiso
C37 C 0.8325(7) 0.3774(6) 0.7597(5) 0.1385 Uani
H39 H 0.8834 0.3759 0.8069 0.1670 Uiso
C38 C 0.9315(8) 0.0579(7) 0.3198(6) 0.1620 Uani
H40 H 0.9216 0.1109 0.3141 0.2430 Uiso
H42 H 0.8948 0.0171 0.2683 0.2430 Uiso
C39 C 0.7821(7) 0.4341(7) 0.7558(5) 0.1581 Uani
H43 H 0.7966 0.4741 0.8004 0.1890 Uiso
C48 C 0.7988(5) 0.3268(4) 0.6886(4) 0.0639 Uani
C49 C 0.7123(5) 0.4245(4) 0.6822(4) 0.0687 Uani
C52 C 0.7354(5) 0.2368(5) 0.4351(4) 0.0747 Uani
H53 H 0.7995 0.2802 0.4709 0.0900 Uiso
H54 H 0.6041 0.0115 0.4050 0.1000 Uiso
C54 C 0.8535(6) 0.0581(5) 0.4096(5) 0.0787 Uani
H55 H 0.8506 0.1097 0.3962 0.0940 Uiso
C57 C 0.6430(5) 0.4713(4) 0.6592(4) 0.0517 Uani
C61 C 0.8396(5) 0.2619(4) 0.6718(4) 0.0507 Uani
N5 N 0.5153(4) 0.9200(4) 0.4332(4) 0.0961 Uani
C35 C 0.4263(7) 0.8848(7) 0.3528(5) 0.1755 Uani
H33 H 0.4428 0.9170 0.3164 0.2630 Uiso
H34 H 0.4098 0.8241 0.3341 0.2630 Uiso
H35 H 0.3681 0.8903 0.3557 0.2630 Uiso
C41 C 0.5018(5) 0.8782(4) 0.4940(5) 0.0920 Uani
H45 H 0.5639 0.9052 0.5436 0.1380 Uiso
H46 H 0.4460 0.8843 0.5007 0.1380 Uiso
H47 H 0.4863 0.8172 0.4784 0.1380 Uiso
C42 C 0.9001(8) 0.9380(6) 0.3909(5) 0.1512 Uani
H48 H 0.8724 0.9201 0.4275 0.2270 Uiso
H49 H 0.8621 0.8934 0.3416 0.2270 Uiso
H50 H 0.9712 0.9467 0.4142 0.2270 Uiso
C53 C 0.5990(5) 0.9894(5) 0.4479(5) 0.0830 Uani
loop_
_atom_site_aniso_label
_atom_site_aniso_U_11
_atom_site_aniso_U_22
_atom_site_aniso_U_33
_atom_site_aniso_U_23
_atom_site_aniso_U_13
_atom_site_aniso_U_12
N2 0.049 0.076 0.111 0.004 0.02 -0.009
C2 0.125 0.161 0.119 0.003 0.018 -0.025
C8 0.068 0.07 0.144 0.038 0.062 0.016
C9 0.262 0.161 0.146 0.062 0.127 0.168
C20 0.056 0.073 0.096 0.014 0.033 0.003
Zn3 0.033 0.0319 0.0687 0.0056 0.023 0.0122
Zn4 0.0407 0.0345 0.0585 0.0081 0.0195 0.0168
S3 0.05 0.0408 0.058 0.0054 0.021 0.0234
O8 0.036 0.051 0.071 0.017 0.019 0.01
O13 0.059 0.048 0.048 0.013 0.013 0.033
O14 0.06 0.077 0.066 -0.01 0.005 0.05
O15 0.048 0.051 0.065 -0.001 0.016 0.027
O16 0.068 0.091 0.065 -0.008 -0.005 0.063
O17 0.039 0.044 0.084 0.004 0.027 0.009
O18 0.057 0.051 0.076 0.021 0.018 0.029
O19 0.077 0.048 0.076 0.013 0.046 0.022
N1 0.127 0.102 0.086 0.037 0.026 0.083
N3 0.111 0.097 0.091 0.007 0.061 0.053
C1 0.082 0.276 0.296 0.143 0.048 0.096
C3 0.358 0.167 0.153 0.06 0.077 0.218
C4 0.168 0.163 0.088 -0.008 0.005 0.142
C5 0.199 0.198 0.147 0.05 0.127 0.086
C6 0.2 0.211 0.077 -0.027 0.003 0.182
C15 0.067 0.065 0.071 0 0.031 0.043
C16 0.064 0.075 0.05 -0.007 -0.002 0.047
C19 0.068 0.084 0.077 0.022 0.022 0.049
C21 0.09 0.059 0.084 0.009 0.034 0.035
C24 0.049 0.045 0.061 0.011 0.021 0.024
C28 0.046 0.042 0.057 -0.006 0.023 0.014
Zn10 0.0349 0.024 0.0495 0.007 0.0218 0.0097
Zn11 0.04 0.0372 0.0497 0.0059 0.0196 0.0158
O39 0.05 0.028 0.073 0.017 0.026 0.013
O41 0.162 0.041 0.088 -0.001 0.059 -0.001
O20 0.05 0.028 0.073 0.017 0.026 0.013
O21 0.162 0.041 0.088 -0.001 0.059 -0.001
C51 0.067 0.032 0.068 0.004 0.019 0.017
Zn14 0.033 0.0319 0.0687 0.0056 0.023 0.0122
Zn16 0.0407 0.0345 0.0585 0.0081 0.0195 0.0168
S1 0.0759 0.0291 0.0677 0.0068 0.0321 0.0116
S2 0.0408 0.0604 0.0659 0.0169 0.026 0.0032
O3 0.053 0.029 0.069 -0.004 0.033 0.005
O4 0.066 0.037 0.071 0.01 0.041 0.017
O5 0.04 0.042 0.087 0.011 0.047 0.0157
O6 0.045 0.057 0.065 0.01 0.023 0.003
O7 0.047 0.068 0.07 0.024 0.022 0
O9 0.067 0.088 0.062 0.017 0.02 0.029
O10 0.203 0.191 0.058 -0.031 0.006 0.113
C7 0.246 0.291 0.054 -0.023 0.004 0.224
C10 0.117 0.131 0.055 0.007 0.017 0.084
C13 0.106 0.093 0.06 -0.004 0.02 0.043
C14 0.054 0.077 0.054 0.018 0.027 0.014
C22 0.068 0.028 0.082 0.013 0.049 0.011
C23 0.041 0.069 0.065 0.014 0.023 0.002
C25 0.049 0.027 0.073 0.011 0.029 0.007
C26 0.043 0.039 0.07 0.005 0.037 0.015
C27 0.046 0.039 0.06 0.015 0.028 0.013
C29 0.032 0.036 0.046 0.006 0.007 0.013
C30 0.044 0.032 0.063 0.011 0.032 0.012
C31 0.037 0.035 0.069 0.013 0.024 0.01
C32 0.044 0.029 0.059 0.013 0.019 0.015
C33 0.067 0.033 0.062 0.011 0.033 0.019
S8 0.0726 0.08 0.0529 0.0075 0.0196 0.0458
O30 0.077 0.071 0.057 0.007 0.03 0.039
O31 0.134 0.193 0.053 0.016 0.005 0.122
C44 0.1 0.126 0.046 -0.011 0.001 0.08
C45 0.192 0.271 0.072 -0.031 -0.02 0.195
C50 0.081 0.11 0.031 0.009 0.004 0.048
O43 0.053 0.029 0.069 -0.004 0.033 0.005
O44 0.04 0.042 0.087 0.011 0.047 0.0157
O46 0.059 0.048 0.048 0.013 0.013 0.033
S4 0.0726 0.08 0.0529 0.0075 0.0196 0.0458
O11 0.077 0.071 0.057 0.007 0.03 0.039
O12 0.134 0.193 0.053 0.016 0.005 0.122
C11 0.1 0.126 0.046 -0.011 0.001 0.08
C12 0.192 0.271 0.072 -0.031 -0.02 0.195
C17 0.081 0.11 0.031 0.009 0.004 0.048
Zn5 0.04 0.0372 0.0497 0.0059 0.0196 0.0158
S5 0.0759 0.0291 0.0677 0.0068 0.0321 0.0116
S6 0.0408 0.0604 0.0659 0.0169 0.026 0.0032
O23 0.066 0.037 0.071 0.01 0.041 0.017
O25 0.045 0.057 0.065 0.01 0.023 0.003
O26 0.047 0.068 0.07 0.024 0.022 0
O28 0.067 0.088 0.062 0.017 0.02 0.029
O29 0.203 0.191 0.058 -0.031 0.006 0.113
C40 0.246 0.291 0.054 -0.023 0.004 0.224
C43 0.117 0.131 0.055 0.007 0.017 0.084
C46 0.106 0.093 0.06 -0.004 0.02 0.043
C47 0.054 0.077 0.054 0.018 0.027 0.014
C55 0.068 0.028 0.082 0.013 0.049 0.011
C56 0.041 0.069 0.065 0.014 0.023 0.002
C58 0.049 0.027 0.073 0.011 0.029 0.007
C59 0.043 0.039 0.07 0.005 0.037 0.015
C60 0.046 0.039 0.06 0.015 0.028 0.013
C62 0.032 0.036 0.046 0.006 0.007 0.013
C63 0.044 0.032 0.063 0.011 0.032 0.012
C64 0.037 0.035 0.069 0.013 0.024 0.01
C65 0.044 0.029 0.059 0.013 0.019 0.015
C66 0.067 0.033 0.062 0.011 0.033 0.019
O48 0.06 0.077 0.066 -0.01 0.005 0.05
C18 0.067 0.032 0.068 0.004 0.019 0.017
S7 0.05 0.0408 0.058 0.0054 0.021 0.0234
O27 0.036 0.051 0.071 0.017 0.019 0.01
O34 0.048 0.051 0.065 -0.001 0.016 0.027
O35 0.068 0.091 0.065 -0.008 -0.005 0.063
O36 0.039 0.044 0.084 0.004 0.027 0.009
O37 0.057 0.051 0.076 0.021 0.018 0.029
O38 0.077 0.048 0.076 0.013 0.046 0.022
N4 0.127 0.102 0.086 0.037 0.026 0.083
N6 0.111 0.097 0.091 0.007 0.061 0.053
C34 0.082 0.276 0.296 0.143 0.048 0.096
C36 0.358 0.167 0.153 0.06 0.077 0.218
C37 0.168 0.163 0.088 -0.008 0.005 0.142
C38 0.199 0.198 0.147 0.05 0.127 0.086
C39 0.2 0.211 0.077 -0.027 0.003 0.182
C48 0.067 0.065 0.071 0 0.031 0.043
C49 0.064 0.075 0.05 -0.007 -0.002 0.047
C52 0.068 0.084 0.077 0.022 0.022 0.049
C54 0.09 0.059 0.084 0.009 0.034 0.035
C57 0.049 0.045 0.061 0.011 0.021 0.024
C61 0.046 0.042 0.057 -0.006 0.023 0.014
N5 0.049 0.076 0.111 0.004 0.02 -0.009
C35 0.125 0.161 0.119 0.003 0.018 -0.025
C41 0.068 0.07 0.144 0.038 0.062 0.016
C42 0.262 0.161 0.146 0.062 0.127 0.168
C53 0.056 0.073 0.096 0.014 0.033 0.003
loop_
_geom_bond_atom_site_label_1
_geom_bond_atom_site_label_2
_geom_bond_site_symmetry_1
_geom_bond_site_symmetry_2
N2 C2 1_555 1_555
C2 H4 1_555 1_555
H5 C2 1_555 1_555
H6 C2 1_555 1_555
C8 N2 1_555 1_555
H16 C8 1_555 1_555
H17 C8 1_555 1_555
H18 C8 1_555 1_555
H19 C9 1_555 1_555
H20 C9 1_555 1_555
H21 C9 1_555 1_555
N2 C20 1_555 1_555
Zn3 O8 1_555 1_555
S3 C15 1_555 1_555
O13 C24 1_555 1_555
O14 C24 1_555 1_555
O15 Zn3 1_555 1_555
O16 Zn4 1_555 1_555
O17 Zn3 1_555 1_555
O18 Zn3 1_555 1_555
O19 Zn3 1_555 1_555
N1 C1 1_555 1_555
N3 C5 1_555 1_555
C1 H1 1_555 1_555
H2 C1 1_555 1_555
H3 C1 1_555 1_555
C3 N1 1_555 1_555
H7 C3 1_555 1_555
H8 C3 1_555 1_555
H9 C3 1_555 1_555
C4 H10 1_555 1_555
C5 H11 1_555 1_555
H13 C5 1_555 1_555
C6 C4 1_555 1_555
H14 C6 1_555 1_555
C15 C4 1_555 1_555
C16 S3 1_555 1_555
C19 O18 1_555 1_555
H24 C19 1_555 1_555
C21 O19 1_555 1_555
H26 C21 1_555 1_555
C24 C16 1_555 1_555
C28 O15 1_555 1_555
Zn10 O13 1_555 1_555
Zn11 O14 1_555 1_555
O39 Zn3 1_555 1_555
O41 Zn4 1_555 1_555
Zn4 O39 1_555 1_555
O16 C28 1_555 1_555
N1 C19 1_555 1_555
N3 C21 1_555 1_555
C6 C16 1_555 1_555
C15 C28 1_555 1_555
O20 C51 1_555 1_555
O21 C51 1_555 1_555
Zn14 O20 1_555 1_555
Zn16 O20 1_555 1_555
O21 Zn16 1_555 1_555
Zn10 O3 1_555 1_555
Zn11 O4 1_555 1_555
S1 C25 1_555 1_555
S2 C27 1_555 1_555
O3 C29 1_555 1_555
O4 C29 1_555 1_555
O5 Zn10 1_555 1_555
O6 Zn11 1_555 1_555
O7 C31 1_555 1_555
O10 C13 1_555 1_555
C7 H15 1_555 1_555
C10 C7 1_555 1_555
C13 O9 1_555 1_555
C14 H23 1_555 1_555
C22 H27 1_555 1_555
C23 C14 1_555 1_555
H28 C23 1_555 1_555
C25 C22 1_555 1_555
C26 O5 1_555 1_555
C27 C23 1_555 1_555
C29 C32 1_555 1_555
C30 S2 1_555 1_555
C31 C27 1_555 1_555
C32 S1 1_555 1_555
C33 C22 1_555 1_555
H29 C33 1_555 1_555
O30 Zn11 1_555 1_555
O31 C50 1_555 1_555
C44 S8 1_555 1_555
H51 C45 1_555 1_555
C50 O30 1_555 1_555
O43 Zn10 1_555 1_555
O44 Zn10 1_555 1_555
O46 Zn10 1_555 1_555
O6 C26 1_555 1_555
C10 C13 1_555 1_555
C14 C30 1_555 1_555
C26 C30 1_555 1_555
C32 C33 1_555 1_555
C44 C45 1_555 1_555
C44 C50 1_555 1_555
O11 C17 1_555 1_555
O12 C17 1_555 1_555
C11 S4 1_555 1_555
H22 C12 1_555 1_555
C17 C11 1_555 1_555
Zn5 O11 1_555 1_555
S5 C58 1_555 1_555
S6 C60 1_555 1_555
O43 C62 1_555 1_555
O23 Zn5 1_555 1_555
O44 C59 1_555 1_555
O25 Zn5 1_555 1_555
O26 C64 1_555 1_555
O29 C46 1_555 1_555
C40 H44 1_555 1_555
C43 C40 1_555 1_555
C46 O28 1_555 1_555
C47 H52 1_555 1_555
C55 H56 1_555 1_555
C56 C47 1_555 1_555
H57 C56 1_555 1_555
C58 C55 1_555 1_555
C59 O25 1_555 1_555
C60 C56 1_555 1_555
C62 O23 1_555 1_555
C63 S6 1_555 1_555
C64 C60 1_555 1_555
C65 S5 1_555 1_555
C66 C55 1_555 1_555
H58 C66 1_555 1_555
O48 Zn5 1_555 1_555
C11 C12 1_555 1_555
C43 C46 1_555 1_555
C47 C63 1_555 1_555
C59 C63 1_555 1_555
C62 C65 1_555 1_555
C65 C66 1_555 1_555
O39 C18 1_555 1_555
O41 C18 1_555 1_555
Zn14 O27 1_555 1_555
S7 C48 1_555 1_555
O46 C57 1_555 1_555
O48 C57 1_555 1_555
O34 Zn14 1_555 1_555
O35 Zn16 1_555 1_555
O36 Zn14 1_555 1_555
O37 Zn14 1_555 1_555
O38 Zn14 1_555 1_555
N4 C34 1_555 1_555
N6 C38 1_555 1_555
C34 H30 1_555 1_555
H31 C34 1_555 1_555
H32 C34 1_555 1_555
C36 N4 1_555 1_555
H36 C36 1_555 1_555
H37 C36 1_555 1_555
H38 C36 1_555 1_555
C37 H39 1_555 1_555
C38 H40 1_555 1_555
H42 C38 1_555 1_555
C39 C37 1_555 1_555
H43 C39 1_555 1_555
C48 C37 1_555 1_555
C49 S7 1_555 1_555
C52 O37 1_555 1_555
H53 C52 1_555 1_555
C54 O38 1_555 1_555
H55 C54 1_555 1_555
C57 C49 1_555 1_555
C61 O34 1_555 1_555
O35 C61 1_555 1_555
N4 C52 1_555 1_555
N6 C54 1_555 1_555
C39 C49 1_555 1_555
C48 C61 1_555 1_555
N5 C35 1_555 1_555
C35 H33 1_555 1_555
H34 C35 1_555 1_555
H35 C35 1_555 1_555
C41 N5 1_555 1_555
H45 C41 1_555 1_555
H46 C41 1_555 1_555
H47 C41 1_555 1_555
H48 C42 1_555 1_555
H49 C42 1_555 1_555
H50 C42 1_555 1_555
N5 C53 1_555 1_555

#END
