
###############################################################################
#
# This file contains modified crystal structure data generated from the
# MOF subset of the Cambridge Structural Database (CSD) v543 
# hosted by the Cambridge Crystallographic Data Centre (CCDC).
#
# This work is licensed under the Creative Commons
# Attribution-NonCommercial-ShareAlike 4.0 International License.
# To view a copy of this license, visit
# http://creativecommons.org/licenses/by-nc-sa/4.0/
# or send a letter to
# Creative Commons, PO Box 1866, Mountain View, CA 94042, USA.
#
# CIF created using the CSD Python API on 29 September 2022
# The structure has been converted into the P1 space group
# The structure has a 3D framework
# The original CSD entry VOLQAQ is in the tetragonal crystal system
# The framework has been calculated to contain at least 10.0% void space
# The void calculation uses a probe of radius 1.32A, grid spacing 0.4
# H atom positions have been added when not included in the experimental data
#
###############################################################################

data_VOLQAQ
_chemical_formula_moiety         '(C176 H192 Cu10 F36 N24 O8 Si10)n'
_symmetry_cell_setting           triclinic
_symmetry_space_group_name_H-M   'P 1'
_symmetry_Int_Tables_number      1
_space_group_name_Hall           'P 1'
loop_
_symmetry_equiv_pos_site_id
_symmetry_equiv_pos_as_xyz
1 x,y,z
_cell_length_a                   21.682(11)
_cell_length_b                   21.682(11)
_cell_length_c                   15.696(8)
_cell_angle_alpha                90
_cell_angle_beta                 90
_cell_angle_gamma                90
_cell_volume                     7378.83
loop_
_atom_site_label
_atom_site_type_symbol
_atom_site_fract_x
_atom_site_fract_y
_atom_site_fract_z
F1 F -0.0000 -0.0000 0.5186(5)
F3 F -0.0000 -0.0000 0.3023(6)
Cu1 Cu -0.0000 -0.0000 0.66057(14)
Si1 Si -0.0000 -0.0000 0.4107(4)
F6 F 0.07449(16) 0.02147(19) 0.4087(5)
F7 F -0.0000 -0.0000 0.8023(6)
Cu2 Cu -0.0000 -0.0000 0.16057(14)
N8 N 0.0757(2) 0.0545(2) 0.6586(5)
F1_2 F -0.0000 1.0000 0.5186(5)
F3_2 F -0.0000 1.0000 0.3023(6)
Cu1_2 Cu -0.0000 1.0000 0.66057(14)
Si1_2 Si -0.0000 1.0000 0.4107(4)
F4 F 0.02147(19) 0.92551(16) 0.4087(5)
C23 C 0.0938(4) 0.9123(4) 0.5993(5)
H23 H 0.0940 0.9373 0.5496
C24 C 0.1358(5) 0.8645(5) 0.6051(6)
H24 H 0.1650 0.8590 0.5606
C25 C 0.1367(4) 0.8269(4) 0.6696(7)
C26 C 0.0913(4) 0.8336(4) 0.7326(6)
H25 H 0.0885 0.8052 0.7785
C27 C 0.0494(4) 0.8841(4) 0.7261(5)
H26 H 0.0183 0.8900 0.7680
C28 C 0.1850(5) 0.7760(5) 0.6773(6)
C29 C 0.1822(5) 0.7295(5) 0.6275(7)
H27 H 0.1482 0.7258 0.5895
C30 C 0.2341(5) 0.7801(5) 0.7393(7)
C31 C 0.2472(6) 0.8293(5) 0.8055(7)
C32 C 0.2548(6) 0.8946(5) 0.7721(8)
H28 H 0.2783 0.8938 0.7187
H29 H 0.2770 0.9195 0.8142
H30 H 0.2141 0.9127 0.7617
C33 C 0.2047(5) 0.8305(6) 0.8860(7)
H31 H 0.1677 0.8548 0.8738
H32 H 0.2271 0.8491 0.9338
H33 H 0.1928 0.7882 0.9009
N4 N 0.0545(2) 0.9243(2) 0.6586(5)
N5 N 0.3066(5) 0.8066(5) 0.8412(10)
O2 O 0.3359(6) 0.8359(6) 0.9000(11)
C34 C 0.4123(4) 0.5938(4) 0.5993(5)
H34 H 0.4373 0.5940 0.5496
C35 C 0.3645(5) 0.6358(5) 0.6051(6)
H35 H 0.3590 0.6650 0.5606
C36 C 0.3269(4) 0.6367(4) 0.6696(7)
C37 C 0.3336(4) 0.5913(4) 0.7326(6)
H36 H 0.3052 0.5885 0.7785
C38 C 0.3841(4) 0.5494(4) 0.7261(5)
H37 H 0.3900 0.5183 0.7680
C39 C 0.2760(5) 0.6850(5) 0.6773(6)
C40 C 0.2295(5) 0.6822(5) 0.6275(7)
H38 H 0.2258 0.6482 0.5895
C41 C 0.2801(5) 0.7341(5) 0.7393(7)
C42 C 0.3293(5) 0.7472(6) 0.8055(7)
C43 C 0.3946(5) 0.7548(6) 0.7721(8)
H39 H 0.3938 0.7783 0.7187
H40 H 0.4195 0.7770 0.8142
H41 H 0.4127 0.7141 0.7617
C44 C 0.3305(6) 0.7047(5) 0.8860(7)
H42 H 0.3548 0.6677 0.8738
H43 H 0.3491 0.7271 0.9338
H44 H 0.2882 0.6928 0.9009
N6 N 0.4243(2) 0.5545(2) 0.6586(5)
F7_2 F -0.0000 1.0000 0.8023(6)
Cu2_2 Cu -0.0000 1.0000 0.16057(14)
Cu4 Cu 0.5000 0.5000 0.66057(14)
H46 H 0.30937 0.839383 0.951344
F1_3 F 1.0000 -0.0000 0.5186(5)
F2 F 0.97853(19) 0.07449(16) 0.4087(5)
F3_3 F 1.0000 -0.0000 0.3023(6)
C1 C 0.9062(4) 0.0877(4) 0.5993(5)
H1 H 0.9060 0.0627 0.5496
C2 C 0.8642(5) 0.1355(5) 0.6051(6)
H2 H 0.8350 0.1410 0.5606
C3 C 0.8633(4) 0.1731(4) 0.6696(7)
C4 C 0.9087(4) 0.1664(4) 0.7326(6)
H3 H 0.9115 0.1948 0.7785
C5 C 0.9506(4) 0.1159(4) 0.7261(5)
H4 H 0.9817 0.1100 0.7680
C6 C 0.8150(5) 0.2240(5) 0.6773(6)
C7 C 0.8178(5) 0.2705(5) 0.6275(7)
H5 H 0.8518 0.2742 0.5895
C8 C 0.7659(5) 0.2199(5) 0.7393(7)
C9 C 0.7528(6) 0.1707(5) 0.8055(7)
C10 C 0.7452(6) 0.1054(5) 0.7721(8)
H6 H 0.7217 0.1062 0.7187
H7 H 0.7230 0.0805 0.8142
H8 H 0.7859 0.0873 0.7617
C11 C 0.7953(5) 0.1695(6) 0.8860(7)
H9 H 0.8323 0.1452 0.8738
H10 H 0.7729 0.1509 0.9338
H11 H 0.8072 0.2118 0.9009
Cu1_3 Cu 1.0000 -0.0000 0.66057(14)
Si1_3 Si 1.0000 -0.0000 0.4107(4)
N1 N 0.9455(2) 0.0757(2) 0.6586(5)
N2 N 0.6934(5) 0.1934(5) 0.8412(10)
O1 O 0.6641(6) 0.1641(6) 0.9000(11)
C12 C 0.5877(4) 0.4062(4) 0.5993(5)
H12 H 0.5627 0.4060 0.5496
C13 C 0.6355(5) 0.3642(5) 0.6051(6)
H13 H 0.6410 0.3350 0.5606
C14 C 0.6731(4) 0.3633(4) 0.6696(7)
C15 C 0.6664(4) 0.4087(4) 0.7326(6)
H14 H 0.6948 0.4115 0.7785
C16 C 0.6159(4) 0.4506(4) 0.7261(5)
H15 H 0.6100 0.4817 0.7680
C17 C 0.7240(5) 0.3150(5) 0.6773(6)
C18 C 0.7705(5) 0.3178(5) 0.6275(7)
H16 H 0.7742 0.3518 0.5895
C19 C 0.7199(5) 0.2659(5) 0.7393(7)
C20 C 0.6707(5) 0.2528(6) 0.8055(7)
C21 C 0.6054(5) 0.2452(6) 0.7721(8)
H17 H 0.6062 0.2217 0.7187
H18 H 0.5805 0.2230 0.8142
H19 H 0.5873 0.2859 0.7617
C22 C 0.6695(6) 0.2953(5) 0.8860(7)
H20 H 0.6452 0.3323 0.8738
H21 H 0.6509 0.2729 0.9338
H22 H 0.7118 0.3072 0.9009
N3 N 0.5757(2) 0.4455(2) 0.6586(5)
F7_3 F 1.0000 -0.0000 0.8023(6)
Cu2_3 Cu 1.0000 -0.0000 0.16057(14)
H45 H 0.69063 0.160617 0.951344
F1_4 F 1.0000 1.0000 0.5186(5)
F3_4 F 1.0000 1.0000 0.3023(6)
Cu1_4 Cu 1.0000 1.0000 0.66057(14)
Si1_4 Si 1.0000 1.0000 0.4107(4)
F5 F 0.92551(16) 0.97853(19) 0.4087(5)
F7_4 F 1.0000 1.0000 0.8023(6)
Cu2_4 Cu 1.0000 1.0000 0.16057(14)
N7 N 0.9243(2) 0.9455(2) 0.6586(5)
C23_2 C 0.0877(4) 0.0938(4) 0.5993(5)
H23_2 H 0.0627 0.0940 0.5496
C24_2 C 0.1355(5) 0.1358(5) 0.6051(6)
H24_2 H 0.1410 0.1650 0.5606
C25_2 C 0.1731(4) 0.1367(4) 0.6696(7)
C26_2 C 0.1664(4) 0.0913(4) 0.7326(6)
H25_2 H 0.1948 0.0885 0.7785
C27_2 C 0.1159(4) 0.0494(4) 0.7261(5)
H26_2 H 0.1100 0.0183 0.7680
C28_2 C 0.2240(5) 0.1850(5) 0.6773(6)
C29_2 C 0.2705(5) 0.1822(5) 0.6275(7)
H27_2 H 0.2742 0.1482 0.5895
C30_2 C 0.2199(5) 0.2341(5) 0.7393(7)
C31_2 C 0.1707(5) 0.2472(6) 0.8055(7)
C32_2 C 0.1054(5) 0.2548(6) 0.7721(8)
H28_2 H 0.1062 0.2783 0.7187
H29_2 H 0.0805 0.2770 0.8142
H30_2 H 0.0873 0.2141 0.7617
C33_2 C 0.1695(6) 0.2047(5) 0.8860(7)
H31_2 H 0.1452 0.1677 0.8738
H32_2 H 0.1509 0.2271 0.9338
H33_2 H 0.2118 0.1928 0.9009
N5_2 N 0.1934(5) 0.3066(5) 0.8412(10)
O2_2 O 0.1641(6) 0.3359(6) 0.9000(11)
C34_2 C 0.4062(4) 0.4123(4) 0.5993(5)
H34_2 H 0.4060 0.4373 0.5496
C35_2 C 0.3642(5) 0.3645(5) 0.6051(6)
H35_2 H 0.3350 0.3590 0.5606
C36_2 C 0.3633(4) 0.3269(4) 0.6696(7)
C37_2 C 0.4087(4) 0.3336(4) 0.7326(6)
H36_2 H 0.4115 0.3052 0.7785
C38_2 C 0.4506(4) 0.3841(4) 0.7261(5)
H37_2 H 0.4817 0.3900 0.7680
C39_2 C 0.3150(5) 0.2760(5) 0.6773(6)
C40_2 C 0.3178(5) 0.2295(5) 0.6275(7)
H38_2 H 0.3518 0.2258 0.5895
C41_2 C 0.2659(5) 0.2801(5) 0.7393(7)
C42_2 C 0.2528(6) 0.3293(5) 0.8055(7)
C43_2 C 0.2452(6) 0.3946(5) 0.7721(8)
H39_2 H 0.2217 0.3938 0.7187
H40_2 H 0.2230 0.4195 0.8142
H41_2 H 0.2859 0.4127 0.7617
C44_2 C 0.2953(5) 0.3305(6) 0.8860(7)
H42_2 H 0.3323 0.3548 0.8738
H43_2 H 0.2729 0.3491 0.9338
H44_2 H 0.3072 0.2882 0.9009
N6_2 N 0.4455(2) 0.4243(2) 0.6586(5)
H46_2 H 0.160617 0.30937 0.951344
C1_2 C 0.9123(4) 0.9062(4) 0.5993(5)
H1_2 H 0.9373 0.9060 0.5496
C2_2 C 0.8645(5) 0.8642(5) 0.6051(6)
H2_2 H 0.8590 0.8350 0.5606
C3_2 C 0.8269(4) 0.8633(4) 0.6696(7)
C4_2 C 0.8336(4) 0.9087(4) 0.7326(6)
H3_2 H 0.8052 0.9115 0.7785
C5_2 C 0.8841(4) 0.9506(4) 0.7261(5)
H4_2 H 0.8900 0.9817 0.7680
C6_2 C 0.7760(5) 0.8150(5) 0.6773(6)
C7_2 C 0.7295(5) 0.8178(5) 0.6275(7)
H5_2 H 0.7258 0.8518 0.5895
C8_2 C 0.7801(5) 0.7659(5) 0.7393(7)
C9_2 C 0.8293(5) 0.7528(6) 0.8055(7)
C10_2 C 0.8946(5) 0.7452(6) 0.7721(8)
H6_2 H 0.8938 0.7217 0.7187
H7_2 H 0.9195 0.7230 0.8142
H8_2 H 0.9127 0.7859 0.7617
C11_2 C 0.8305(6) 0.7953(5) 0.8860(7)
H9_2 H 0.8548 0.8323 0.8738
H10_2 H 0.8491 0.7729 0.9338
H11_2 H 0.7882 0.8072 0.9009
N2_2 N 0.8066(5) 0.6934(5) 0.8412(10)
O1_2 O 0.8359(6) 0.6641(6) 0.9000(11)
C12_2 C 0.5938(4) 0.5877(4) 0.5993(5)
H12_2 H 0.5940 0.5627 0.5496
C13_2 C 0.6358(5) 0.6355(5) 0.6051(6)
H13_2 H 0.6650 0.6410 0.5606
C14_2 C 0.6367(4) 0.6731(4) 0.6696(7)
C15_2 C 0.5913(4) 0.6664(4) 0.7326(6)
H14_2 H 0.5885 0.6948 0.7785
C16_2 C 0.5494(4) 0.6159(4) 0.7261(5)
H15_2 H 0.5183 0.6100 0.7680
C17_2 C 0.6850(5) 0.7240(5) 0.6773(6)
C18_2 C 0.6822(5) 0.7705(5) 0.6275(7)
H16_2 H 0.6482 0.7742 0.5895
C19_2 C 0.7341(5) 0.7199(5) 0.7393(7)
C20_2 C 0.7472(6) 0.6707(5) 0.8055(7)
C21_2 C 0.7548(6) 0.6054(5) 0.7721(8)
H17_2 H 0.7783 0.6062 0.7187
H18_2 H 0.7770 0.5805 0.8142
H19_2 H 0.7141 0.5873 0.7617
C22_2 C 0.7047(5) 0.6695(6) 0.8860(7)
H20_2 H 0.6677 0.6452 0.8738
H21_2 H 0.7271 0.6509 0.9338
H22_2 H 0.6928 0.7118 0.9009
N3_2 N 0.5545(2) 0.5757(2) 0.6586(5)
H45_2 H 0.839383 0.69063 0.951344
F1_5 F 0.0000 -0.0000 0.0186(5)
C1_3 C 0.0938(4) 0.0877(4) 0.0993(5)
H1_3 H 0.0940 0.0627 0.0496
C2_3 C 0.1358(5) 0.1355(5) 0.1051(6)
H2_3 H 0.1650 0.1410 0.0606
C3_3 C 0.1367(4) 0.1731(4) 0.1696(7)
C4_3 C 0.0913(4) 0.1664(4) 0.2326(6)
H3_3 H 0.0885 0.1948 0.2785
C5_3 C 0.0494(4) 0.1159(4) 0.2261(5)
H4_3 H 0.0183 0.1100 0.2680
C6_3 C 0.1850(5) 0.2240(5) 0.1773(6)
C7_3 C 0.1822(5) 0.2705(5) 0.1275(7)
H5_3 H 0.1482 0.2742 0.0895
C8_3 C 0.2341(5) 0.2199(5) 0.2393(7)
C9_3 C 0.2472(6) 0.1707(5) 0.3055(7)
C10_3 C 0.2548(6) 0.1054(5) 0.2721(8)
H6_3 H 0.2783 0.1062 0.2187
H7_3 H 0.2770 0.0805 0.3142
H8_3 H 0.2141 0.0873 0.2617
C11_3 C 0.2047(5) 0.1695(6) 0.3860(7)
H9_3 H 0.1677 0.1452 0.3738
H10_3 H 0.2271 0.1509 0.4338
H11_3 H 0.1928 0.2118 0.4009
N1_2 N 0.0545(2) 0.0757(2) 0.1586(5)
N2_3 N 0.3066(5) 0.1934(5) 0.3412(10)
O1_3 O 0.3359(6) 0.1641(6) 0.4000(11)
C12_3 C 0.4123(4) 0.4062(4) 0.0993(5)
H12_3 H 0.4373 0.4060 0.0496
C13_3 C 0.3645(5) 0.3642(5) 0.1051(6)
H13_3 H 0.3590 0.3350 0.0606
C14_3 C 0.3269(4) 0.3633(4) 0.1696(7)
C15_3 C 0.3336(4) 0.4087(4) 0.2326(6)
H14_3 H 0.3052 0.4115 0.2785
C16_3 C 0.3841(4) 0.4506(4) 0.2261(5)
H15_3 H 0.3900 0.4817 0.2680
C17_3 C 0.2760(5) 0.3150(5) 0.1773(6)
C18_3 C 0.2295(5) 0.3178(5) 0.1275(7)
H16_3 H 0.2258 0.3518 0.0895
C19_3 C 0.2801(5) 0.2659(5) 0.2393(7)
C20_3 C 0.3293(5) 0.2528(6) 0.3055(7)
C21_3 C 0.3946(5) 0.2452(6) 0.2721(8)
H17_3 H 0.3938 0.2217 0.2187
H18_3 H 0.4195 0.2230 0.3142
H19_3 H 0.4127 0.2859 0.2617
C22_3 C 0.3305(6) 0.2953(5) 0.3860(7)
H20_3 H 0.3548 0.3323 0.3738
H21_3 H 0.3491 0.2729 0.4338
H22_3 H 0.2882 0.3072 0.4009
N3_3 N 0.4243(2) 0.4455(2) 0.1586(5)
Cu3 Cu 0.5000 0.5000 0.16057(14)
H45_3 H 0.30937 0.160617 0.451344
F2_2 F 0.02147(19) 0.07449(16) 0.9087(5)
Si1_5 Si -0.0000 -0.0000 0.9107(4)
F1_6 F 0.0000 1.0000 0.0186(5)
N7_2 N 0.0757(2) 0.9455(2) 0.1586(5)
Si1_6 Si -0.0000 1.0000 0.9107(4)
F5_2 F 0.07449(16) 0.97853(19) 0.9087(5)
F1_7 F 1.0000 -0.0000 0.0186(5)
N8_2 N 0.9243(2) 0.0545(2) 0.1586(5)
Si1_7 Si 1.0000 -0.0000 0.9107(4)
F6_2 F 0.92551(16) 0.02147(19) 0.9087(5)
F1_8 F 1.0000 1.0000 0.0186(5)
C23_3 C 0.9062(4) 0.9123(4) 0.0993(5)
H23_3 H 0.9060 0.9373 0.0496
C24_3 C 0.8642(5) 0.8645(5) 0.1051(6)
H24_3 H 0.8350 0.8590 0.0606
C25_3 C 0.8633(4) 0.8269(4) 0.1696(7)
C26_3 C 0.9087(4) 0.8336(4) 0.2326(6)
H25_3 H 0.9115 0.8052 0.2785
C27_3 C 0.9506(4) 0.8841(4) 0.2261(5)
H26_3 H 0.9817 0.8900 0.2680
C28_3 C 0.8150(5) 0.7760(5) 0.1773(6)
C29_3 C 0.8178(5) 0.7295(5) 0.1275(7)
H27_3 H 0.8518 0.7258 0.0895
C30_3 C 0.7659(5) 0.7801(5) 0.2393(7)
C31_3 C 0.7528(6) 0.8293(5) 0.3055(7)
C32_3 C 0.7452(6) 0.8946(5) 0.2721(8)
H28_3 H 0.7217 0.8938 0.2187
H29_3 H 0.7230 0.9195 0.3142
H30_3 H 0.7859 0.9127 0.2617
C33_3 C 0.7953(5) 0.8305(6) 0.3860(7)
H31_3 H 0.8323 0.8548 0.3738
H32_3 H 0.7729 0.8491 0.4338
H33_3 H 0.8072 0.7882 0.4009
N4_2 N 0.9455(2) 0.9243(2) 0.1586(5)
N5_3 N 0.6934(5) 0.8066(5) 0.3412(10)
O2_3 O 0.6641(6) 0.8359(6) 0.4000(11)
C34_3 C 0.5877(4) 0.5938(4) 0.0993(5)
H34_3 H 0.5627 0.5940 0.0496
C35_3 C 0.6355(5) 0.6358(5) 0.1051(6)
H35_3 H 0.6410 0.6650 0.0606
C36_3 C 0.6731(4) 0.6367(4) 0.1696(7)
C37_3 C 0.6664(4) 0.5913(4) 0.2326(6)
H36_3 H 0.6948 0.5885 0.2785
C38_3 C 0.6159(4) 0.5494(4) 0.2261(5)
H37_3 H 0.6100 0.5183 0.2680
C39_3 C 0.7240(5) 0.6850(5) 0.1773(6)
C40_3 C 0.7705(5) 0.6822(5) 0.1275(7)
H38_3 H 0.7742 0.6482 0.0895
C41_3 C 0.7199(5) 0.7341(5) 0.2393(7)
C42_3 C 0.6707(5) 0.7472(6) 0.3055(7)
C43_3 C 0.6054(5) 0.7548(6) 0.2721(8)
H39_3 H 0.6062 0.7783 0.2187
H40_3 H 0.5805 0.7770 0.3142
H41_3 H 0.5873 0.7141 0.2617
C44_3 C 0.6695(6) 0.7047(5) 0.3860(7)
H42_3 H 0.6452 0.6677 0.3738
H43_3 H 0.6509 0.7271 0.4338
H44_3 H 0.7118 0.6928 0.4009
N6_3 N 0.5757(2) 0.5545(2) 0.1586(5)
H46_3 H 0.69063 0.839383 0.451344
Si1_8 Si 1.0000 1.0000 0.9107(4)
F4_2 F 0.97853(19) 0.92551(16) 0.9087(5)
C1_4 C 0.0877(4) 0.9062(4) 0.0993(5)
H1_4 H 0.0627 0.9060 0.0496
C2_4 C 0.1355(5) 0.8642(5) 0.1051(6)
H2_4 H 0.1410 0.8350 0.0606
C3_4 C 0.1731(4) 0.8633(4) 0.1696(7)
C4_4 C 0.1664(4) 0.9087(4) 0.2326(6)
H3_4 H 0.1948 0.9115 0.2785
C5_4 C 0.1159(4) 0.9506(4) 0.2261(5)
H4_4 H 0.1100 0.9817 0.2680
C6_4 C 0.2240(5) 0.8150(5) 0.1773(6)
C7_4 C 0.2705(5) 0.8178(5) 0.1275(7)
H5_4 H 0.2742 0.8518 0.0895
C8_4 C 0.2199(5) 0.7659(5) 0.2393(7)
C9_4 C 0.1707(5) 0.7528(6) 0.3055(7)
C10_4 C 0.1054(5) 0.7452(6) 0.2721(8)
H6_4 H 0.1062 0.7217 0.2187
H7_4 H 0.0805 0.7230 0.3142
H8_4 H 0.0873 0.7859 0.2617
C11_4 C 0.1695(6) 0.7953(5) 0.3860(7)
H9_4 H 0.1452 0.8323 0.3738
H10_4 H 0.1509 0.7729 0.4338
H11_4 H 0.2118 0.8072 0.4009
N2_4 N 0.1934(5) 0.6934(5) 0.3412(10)
O1_4 O 0.1641(6) 0.6641(6) 0.4000(11)
C12_4 C 0.4062(4) 0.5877(4) 0.0993(5)
H12_4 H 0.4060 0.5627 0.0496
C13_4 C 0.3642(5) 0.6355(5) 0.1051(6)
H13_4 H 0.3350 0.6410 0.0606
C14_4 C 0.3633(4) 0.6731(4) 0.1696(7)
C15_4 C 0.4087(4) 0.6664(4) 0.2326(6)
H14_4 H 0.4115 0.6948 0.2785
C16_4 C 0.4506(4) 0.6159(4) 0.2261(5)
H15_4 H 0.4817 0.6100 0.2680
C17_4 C 0.3150(5) 0.7240(5) 0.1773(6)
C18_4 C 0.3178(5) 0.7705(5) 0.1275(7)
H16_4 H 0.3518 0.7742 0.0895
C19_4 C 0.2659(5) 0.7199(5) 0.2393(7)
C20_4 C 0.2528(6) 0.6707(5) 0.3055(7)
C21_4 C 0.2452(6) 0.6054(5) 0.2721(8)
H17_4 H 0.2217 0.6062 0.2187
H18_4 H 0.2230 0.5805 0.3142
H19_4 H 0.2859 0.5873 0.2617
C22_4 C 0.2953(5) 0.6695(6) 0.3860(7)
H20_4 H 0.3323 0.6452 0.3738
H21_4 H 0.2729 0.6509 0.4338
H22_4 H 0.3072 0.7118 0.4009
N3_4 N 0.4455(2) 0.5757(2) 0.1586(5)
H45_4 H 0.160617 0.69063 0.451344
C23_4 C 0.9123(4) 0.0938(4) 0.0993(5)
H23_4 H 0.9373 0.0940 0.0496
C24_4 C 0.8645(5) 0.1358(5) 0.1051(6)
H24_4 H 0.8590 0.1650 0.0606
C25_4 C 0.8269(4) 0.1367(4) 0.1696(7)
C26_4 C 0.8336(4) 0.0913(4) 0.2326(6)
H25_4 H 0.8052 0.0885 0.2785
C27_4 C 0.8841(4) 0.0494(4) 0.2261(5)
H26_4 H 0.8900 0.0183 0.2680
C28_4 C 0.7760(5) 0.1850(5) 0.1773(6)
C29_4 C 0.7295(5) 0.1822(5) 0.1275(7)
H27_4 H 0.7258 0.1482 0.0895
C30_4 C 0.7801(5) 0.2341(5) 0.2393(7)
C31_4 C 0.8293(5) 0.2472(6) 0.3055(7)
C32_4 C 0.8946(5) 0.2548(6) 0.2721(8)
H28_4 H 0.8938 0.2783 0.2187
H29_4 H 0.9195 0.2770 0.3142
H30_4 H 0.9127 0.2141 0.2617
C33_4 C 0.8305(6) 0.2047(5) 0.3860(7)
H31_4 H 0.8548 0.1677 0.3738
H32_4 H 0.8491 0.2271 0.4338
H33_4 H 0.7882 0.1928 0.4009
N5_4 N 0.8066(5) 0.3066(5) 0.3412(10)
O2_4 O 0.8359(6) 0.3359(6) 0.4000(11)
C34_4 C 0.5938(4) 0.4123(4) 0.0993(5)
H34_4 H 0.5940 0.4373 0.0496
C35_4 C 0.6358(5) 0.3645(5) 0.1051(6)
H35_4 H 0.6650 0.3590 0.0606
C36_4 C 0.6367(4) 0.3269(4) 0.1696(7)
C37_4 C 0.5913(4) 0.3336(4) 0.2326(6)
H36_4 H 0.5885 0.3052 0.2785
C38_4 C 0.5494(4) 0.3841(4) 0.2261(5)
H37_4 H 0.5183 0.3900 0.2680
C39_4 C 0.6850(5) 0.2760(5) 0.1773(6)
C40_4 C 0.6822(5) 0.2295(5) 0.1275(7)
H38_4 H 0.6482 0.2258 0.0895
C41_4 C 0.7341(5) 0.2801(5) 0.2393(7)
C42_4 C 0.7472(6) 0.3293(5) 0.3055(7)
C43_4 C 0.7548(6) 0.3946(5) 0.2721(8)
H39_4 H 0.7783 0.3938 0.2187
H40_4 H 0.7770 0.4195 0.3142
H41_4 H 0.7141 0.4127 0.2617
C44_4 C 0.7047(5) 0.3305(6) 0.3860(7)
H42_4 H 0.6677 0.3548 0.3738
H43_4 H 0.7271 0.3491 0.4338
H44_4 H 0.6928 0.2882 0.4009
N6_4 N 0.5545(2) 0.4243(2) 0.1586(5)
H46_4 H 0.839383 0.30937 0.451344
F1_9 F 0.5000 0.5000 0.0186(5)
F7_5 F 0.5000 0.5000 0.3023(6)
H45_5 H 0.19063 0.660617 0.451344
H46_5 H 0.80937 0.339383 0.451344
F2_3 F 0.47853(19) 0.57449(16) 0.9087(5)
F3_5 F 0.5000 0.5000 0.8023(6)
Si1_9 Si 0.5000 0.5000 0.9107(4)
F4_3 F 0.52147(19) 0.42551(16) 0.9087(5)
F5_3 F 0.42551(16) 0.47853(19) 0.9087(5)
F6_3 F 0.57449(16) 0.52147(19) 0.9087(5)
H45_6 H 0.339383 0.19063 0.451344
H46_6 H 0.660617 0.80937 0.451344
F1_10 F 0.5000 0.5000 0.5186(5)
F2_4 F 0.52147(19) 0.57449(16) 0.4087(5)
Si1_10 Si 0.5000 0.5000 0.4107(4)
F4_4 F 0.47853(19) 0.42551(16) 0.4087(5)
F5_4 F 0.57449(16) 0.47853(19) 0.4087(5)
F6_4 F 0.42551(16) 0.52147(19) 0.4087(5)
H45_7 H 0.80937 0.660617 0.951344
H46_7 H 0.19063 0.339383 0.951344
H45_8 H 0.660617 0.19063 0.951344
H46_8 H 0.339383 0.80937 0.951344
loop_
_geom_bond_atom_site_label_1
_geom_bond_atom_site_label_2
_geom_bond_site_symmetry_1
_geom_bond_site_symmetry_2
F1 Cu1 1_555 1_555
F3 Si1 1_555 1_555
Si1 F1 1_555 1_555
F6 Si1 1_555 1_555
F7 Cu1 1_555 1_555
Cu2 F3 1_555 1_555
N8 Cu1 1_555 1_555
F1_2 Cu1_2 1_555 1_555
F3_2 Si1_2 1_555 1_555
Si1_2 F1_2 1_555 1_555
F4 Si1_2 1_555 1_555
C23 H23 1_555 1_555
C24 C23 1_555 1_555
H24 C24 1_555 1_555
C25 C24 1_555 1_555
C26 C25 1_555 1_555
H25 C26 1_555 1_555
C27 C26 1_555 1_555
H26 C27 1_555 1_555
C28 C25 1_555 1_555
C29 C28 1_555 1_555
H27 C29 1_555 1_555
C30 C28 1_555 1_555
C31 C30 1_555 1_555
C32 C31 1_555 1_555
H28 C32 1_555 1_555
H29 C32 1_555 1_555
H30 C32 1_555 1_555
C33 C31 1_555 1_555
H31 C33 1_555 1_555
H32 C33 1_555 1_555
H33 C33 1_555 1_555
N4 Cu1_2 1_555 1_555
N5 C31 1_555 1_555
O2 N5 1_555 1_555
C34 H34 1_555 1_555
C35 C34 1_555 1_555
H35 C35 1_555 1_555
C36 C35 1_555 1_555
C37 C36 1_555 1_555
H36 C37 1_555 1_555
C38 C37 1_555 1_555
H37 C38 1_555 1_555
C39 C36 1_555 1_555
C40 C29 1_555 1_555
H38 C40 1_555 1_555
C41 C30 1_555 1_555
C42 N5 1_555 1_555
C43 C42 1_555 1_555
H39 C43 1_555 1_555
H40 C43 1_555 1_555
H41 C43 1_555 1_555
C44 C42 1_555 1_555
H42 C44 1_555 1_555
H43 C44 1_555 1_555
H44 C44 1_555 1_555
N6 C34 1_555 1_555
F7_2 Cu1_2 1_555 1_555
Cu2_2 F3_2 1_555 1_555
Cu4 N6 1_555 1_555
C23 N4 1_555 1_555
C27 N4 1_555 1_555
C38 N6 1_555 1_555
C39 C40 1_555 1_555
C39 C41 1_555 1_555
C41 C42 1_555 1_555
O2 H46 1_555 1_555
F1_3 Cu1_3 1_555 1_555
F2 Si1_3 1_555 1_555
F3_3 Si1_3 1_555 1_555
C1 H1 1_555 1_555
C2 C1 1_555 1_555
H2 C2 1_555 1_555
C3 C2 1_555 1_555
C4 C3 1_555 1_555
H3 C4 1_555 1_555
C5 C4 1_555 1_555
H4 C5 1_555 1_555
C6 C3 1_555 1_555
C7 C6 1_555 1_555
H5 C7 1_555 1_555
C8 C6 1_555 1_555
C9 C8 1_555 1_555
C10 C9 1_555 1_555
H6 C10 1_555 1_555
H7 C10 1_555 1_555
H8 C10 1_555 1_555
C11 C9 1_555 1_555
H9 C11 1_555 1_555
H10 C11 1_555 1_555
H11 C11 1_555 1_555
Cu1_3 N1 1_555 1_555
Si1_3 F1_3 1_555 1_555
N1 C1 1_555 1_555
N2 C9 1_555 1_555
O1 N2 1_555 1_555
C12 H12 1_555 1_555
C13 C12 1_555 1_555
H13 C13 1_555 1_555
C14 C13 1_555 1_555
C15 C14 1_555 1_555
H14 C15 1_555 1_555
C16 C15 1_555 1_555
H15 C16 1_555 1_555
C17 C14 1_555 1_555
C18 C7 1_555 1_555
H16 C18 1_555 1_555
C19 C8 1_555 1_555
C20 N2 1_555 1_555
C21 C20 1_555 1_555
H17 C21 1_555 1_555
H18 C21 1_555 1_555
H19 C21 1_555 1_555
C22 C20 1_555 1_555
H20 C22 1_555 1_555
H21 C22 1_555 1_555
H22 C22 1_555 1_555
N3 C12 1_555 1_555
F7_3 Cu1_3 1_555 1_555
Cu2_3 F3_3 1_555 1_555
Cu4 N3 1_555 1_555
C5 N1 1_555 1_555
C16 N3 1_555 1_555
C17 C18 1_555 1_555
C17 C19 1_555 1_555
C19 C20 1_555 1_555
O1 H45 1_555 1_555
F1_4 Cu1_4 1_555 1_555
F3_4 Si1_4 1_555 1_555
Si1_4 F1_4 1_555 1_555
F5 Si1_4 1_555 1_555
F7_4 Cu1_4 1_555 1_555
Cu2_4 F3_4 1_555 1_555
N7 Cu1_4 1_555 1_555
C23_2 H23_2 1_555 1_555
C24_2 C23_2 1_555 1_555
H24_2 C24_2 1_555 1_555
C25_2 C24_2 1_555 1_555
C26_2 C25_2 1_555 1_555
H25_2 C26_2 1_555 1_555
C27_2 C26_2 1_555 1_555
H26_2 C27_2 1_555 1_555
C28_2 C25_2 1_555 1_555
C29_2 C28_2 1_555 1_555
H27_2 C29_2 1_555 1_555
C30_2 C28_2 1_555 1_555
C31_2 C30_2 1_555 1_555
C32_2 C31_2 1_555 1_555
H28_2 C32_2 1_555 1_555
H29_2 C32_2 1_555 1_555
H30_2 C32_2 1_555 1_555
C33_2 C31_2 1_555 1_555
H31_2 C33_2 1_555 1_555
H32_2 C33_2 1_555 1_555
H33_2 C33_2 1_555 1_555
N5_2 C31_2 1_555 1_555
O2_2 N5_2 1_555 1_555
C34_2 H34_2 1_555 1_555
C35_2 C34_2 1_555 1_555
H35_2 C35_2 1_555 1_555
C36_2 C35_2 1_555 1_555
C37_2 C36_2 1_555 1_555
H36_2 C37_2 1_555 1_555
C38_2 C37_2 1_555 1_555
H37_2 C38_2 1_555 1_555
C39_2 C36_2 1_555 1_555
C40_2 C29_2 1_555 1_555
H38_2 C40_2 1_555 1_555
C41_2 C30_2 1_555 1_555
C42_2 N5_2 1_555 1_555
C43_2 C42_2 1_555 1_555
H39_2 C43_2 1_555 1_555
H40_2 C43_2 1_555 1_555
H41_2 C43_2 1_555 1_555
C44_2 C42_2 1_555 1_555
H42_2 C44_2 1_555 1_555
H43_2 C44_2 1_555 1_555
H44_2 C44_2 1_555 1_555
N6_2 C34_2 1_555 1_555
Cu4 N6_2 1_555 1_555
C23_2 N8 1_555 1_555
C27_2 N8 1_555 1_555
C38_2 N6_2 1_555 1_555
C39_2 C40_2 1_555 1_555
C39_2 C41_2 1_555 1_555
C41_2 C42_2 1_555 1_555
O2_2 H46_2 1_555 1_555
C1_2 H1_2 1_555 1_555
C2_2 C1_2 1_555 1_555
H2_2 C2_2 1_555 1_555
C3_2 C2_2 1_555 1_555
C4_2 C3_2 1_555 1_555
H3_2 C4_2 1_555 1_555
C5_2 C4_2 1_555 1_555
H4_2 C5_2 1_555 1_555
C6_2 C3_2 1_555 1_555
C7_2 C6_2 1_555 1_555
H5_2 C7_2 1_555 1_555
C8_2 C6_2 1_555 1_555
C9_2 C8_2 1_555 1_555
C10_2 C9_2 1_555 1_555
H6_2 C10_2 1_555 1_555
H7_2 C10_2 1_555 1_555
H8_2 C10_2 1_555 1_555
C11_2 C9_2 1_555 1_555
H9_2 C11_2 1_555 1_555
H10_2 C11_2 1_555 1_555
H11_2 C11_2 1_555 1_555
N7 C1_2 1_555 1_555
N2_2 C9_2 1_555 1_555
O1_2 N2_2 1_555 1_555
C12_2 H12_2 1_555 1_555
C13_2 C12_2 1_555 1_555
H13_2 C13_2 1_555 1_555
C14_2 C13_2 1_555 1_555
C15_2 C14_2 1_555 1_555
H14_2 C15_2 1_555 1_555
C16_2 C15_2 1_555 1_555
H15_2 C16_2 1_555 1_555
C17_2 C14_2 1_555 1_555
C18_2 C7_2 1_555 1_555
H16_2 C18_2 1_555 1_555
C19_2 C8_2 1_555 1_555
C20_2 N2_2 1_555 1_555
C21_2 C20_2 1_555 1_555
H17_2 C21_2 1_555 1_555
H18_2 C21_2 1_555 1_555
H19_2 C21_2 1_555 1_555
C22_2 C20_2 1_555 1_555
H20_2 C22_2 1_555 1_555
H21_2 C22_2 1_555 1_555
H22_2 C22_2 1_555 1_555
N3_2 C12_2 1_555 1_555
Cu4 N3_2 1_555 1_555
C5_2 N7 1_555 1_555
C16_2 N3_2 1_555 1_555
C17_2 C18_2 1_555 1_555
C17_2 C19_2 1_555 1_555
C19_2 C20_2 1_555 1_555
O1_2 H45_2 1_555 1_555
F1_5 Cu2 1_555 1_555
C1_3 H1_3 1_555 1_555
C2_3 C1_3 1_555 1_555
H2_3 C2_3 1_555 1_555
C3_3 C2_3 1_555 1_555
C4_3 C3_3 1_555 1_555
H3_3 C4_3 1_555 1_555
C5_3 C4_3 1_555 1_555
H4_3 C5_3 1_555 1_555
C6_3 C3_3 1_555 1_555
C7_3 C6_3 1_555 1_555
H5_3 C7_3 1_555 1_555
C8_3 C6_3 1_555 1_555
C9_3 C8_3 1_555 1_555
C10_3 C9_3 1_555 1_555
H6_3 C10_3 1_555 1_555
H7_3 C10_3 1_555 1_555
H8_3 C10_3 1_555 1_555
C11_3 C9_3 1_555 1_555
H9_3 C11_3 1_555 1_555
H10_3 C11_3 1_555 1_555
H11_3 C11_3 1_555 1_555
Cu2 N1_2 1_555 1_555
N1_2 C1_3 1_555 1_555
N2_3 C9_3 1_555 1_555
O1_3 N2_3 1_555 1_555
C12_3 H12_3 1_555 1_555
C13_3 C12_3 1_555 1_555
H13_3 C13_3 1_555 1_555
C14_3 C13_3 1_555 1_555
C15_3 C14_3 1_555 1_555
H14_3 C15_3 1_555 1_555
C16_3 C15_3 1_555 1_555
H15_3 C16_3 1_555 1_555
C17_3 C14_3 1_555 1_555
C18_3 C7_3 1_555 1_555
H16_3 C18_3 1_555 1_555
C19_3 C8_3 1_555 1_555
C20_3 N2_3 1_555 1_555
C21_3 C20_3 1_555 1_555
H17_3 C21_3 1_555 1_555
H18_3 C21_3 1_555 1_555
H19_3 C21_3 1_555 1_555
C22_3 C20_3 1_555 1_555
H20_3 C22_3 1_555 1_555
H21_3 C22_3 1_555 1_555
H22_3 C22_3 1_555 1_555
N3_3 C12_3 1_555 1_555
Cu3 N3_3 1_555 1_555
C5_3 N1_2 1_555 1_555
C16_3 N3_3 1_555 1_555
C17_3 C18_3 1_555 1_555
C17_3 C19_3 1_555 1_555
C19_3 C20_3 1_555 1_555
O1_3 H45_3 1_555 1_555
F2_2 Si1_5 1_555 1_555
F7 Si1_5 1_555 1_555
F1_6 Cu2_2 1_555 1_555
N7_2 Cu2_2 1_555 1_555
F7_2 Si1_6 1_555 1_555
F5_2 Si1_6 1_555 1_555
F1_7 Cu2_3 1_555 1_555
N8_2 Cu2_3 1_555 1_555
F7_3 Si1_7 1_555 1_555
F6_2 Si1_7 1_555 1_555
F1_8 Cu2_4 1_555 1_555
C23_3 H23_3 1_555 1_555
C24_3 C23_3 1_555 1_555
H24_3 C24_3 1_555 1_555
C25_3 C24_3 1_555 1_555
C26_3 C25_3 1_555 1_555
H25_3 C26_3 1_555 1_555
C27_3 C26_3 1_555 1_555
H26_3 C27_3 1_555 1_555
C28_3 C25_3 1_555 1_555
C29_3 C28_3 1_555 1_555
H27_3 C29_3 1_555 1_555
C30_3 C28_3 1_555 1_555
C31_3 C30_3 1_555 1_555
C32_3 C31_3 1_555 1_555
H28_3 C32_3 1_555 1_555
H29_3 C32_3 1_555 1_555
H30_3 C32_3 1_555 1_555
C33_3 C31_3 1_555 1_555
H31_3 C33_3 1_555 1_555
H32_3 C33_3 1_555 1_555
H33_3 C33_3 1_555 1_555
N4_2 Cu2_4 1_555 1_555
N5_3 C31_3 1_555 1_555
O2_3 N5_3 1_555 1_555
C34_3 H34_3 1_555 1_555
C35_3 C34_3 1_555 1_555
H35_3 C35_3 1_555 1_555
C36_3 C35_3 1_555 1_555
C37_3 C36_3 1_555 1_555
H36_3 C37_3 1_555 1_555
C38_3 C37_3 1_555 1_555
H37_3 C38_3 1_555 1_555
C39_3 C36_3 1_555 1_555
C40_3 C29_3 1_555 1_555
H38_3 C40_3 1_555 1_555
C41_3 C30_3 1_555 1_555
C42_3 N5_3 1_555 1_555
C43_3 C42_3 1_555 1_555
H39_3 C43_3 1_555 1_555
H40_3 C43_3 1_555 1_555
H41_3 C43_3 1_555 1_555
C44_3 C42_3 1_555 1_555
H42_3 C44_3 1_555 1_555
H43_3 C44_3 1_555 1_555
H44_3 C44_3 1_555 1_555
N6_3 C34_3 1_555 1_555
Cu3 N6_3 1_555 1_555
C23_3 N4_2 1_555 1_555
C27_3 N4_2 1_555 1_555
C38_3 N6_3 1_555 1_555
C39_3 C40_3 1_555 1_555
C39_3 C41_3 1_555 1_555
C41_3 C42_3 1_555 1_555
O2_3 H46_3 1_555 1_555
F7_4 Si1_8 1_555 1_555
F4_2 Si1_8 1_555 1_555
C1_4 H1_4 1_555 1_555
C2_4 C1_4 1_555 1_555
H2_4 C2_4 1_555 1_555
C3_4 C2_4 1_555 1_555
C4_4 C3_4 1_555 1_555
H3_4 C4_4 1_555 1_555
C5_4 C4_4 1_555 1_555
H4_4 C5_4 1_555 1_555
C6_4 C3_4 1_555 1_555
C7_4 C6_4 1_555 1_555
H5_4 C7_4 1_555 1_555
C8_4 C6_4 1_555 1_555
C9_4 C8_4 1_555 1_555
C10_4 C9_4 1_555 1_555
H6_4 C10_4 1_555 1_555
H7_4 C10_4 1_555 1_555
H8_4 C10_4 1_555 1_555
C11_4 C9_4 1_555 1_555
H9_4 C11_4 1_555 1_555
H10_4 C11_4 1_555 1_555
H11_4 C11_4 1_555 1_555
N7_2 C1_4 1_555 1_555
N2_4 C9_4 1_555 1_555
O1_4 N2_4 1_555 1_555
C12_4 H12_4 1_555 1_555
C13_4 C12_4 1_555 1_555
H13_4 C13_4 1_555 1_555
C14_4 C13_4 1_555 1_555
C15_4 C14_4 1_555 1_555
H14_4 C15_4 1_555 1_555
C16_4 C15_4 1_555 1_555
H15_4 C16_4 1_555 1_555
C17_4 C14_4 1_555 1_555
C18_4 C7_4 1_555 1_555
H16_4 C18_4 1_555 1_555
C19_4 C8_4 1_555 1_555
C20_4 N2_4 1_555 1_555
C21_4 C20_4 1_555 1_555
H17_4 C21_4 1_555 1_555
H18_4 C21_4 1_555 1_555
H19_4 C21_4 1_555 1_555
C22_4 C20_4 1_555 1_555
H20_4 C22_4 1_555 1_555
H21_4 C22_4 1_555 1_555
H22_4 C22_4 1_555 1_555
N3_4 C12_4 1_555 1_555
Cu3 N3_4 1_555 1_555
C5_4 N7_2 1_555 1_555
C16_4 N3_4 1_555 1_555
C17_4 C18_4 1_555 1_555
C17_4 C19_4 1_555 1_555
C19_4 C20_4 1_555 1_555
O1_4 H45_4 1_555 1_555
C23_4 H23_4 1_555 1_555
C24_4 C23_4 1_555 1_555
H24_4 C24_4 1_555 1_555
C25_4 C24_4 1_555 1_555
C26_4 C25_4 1_555 1_555
H25_4 C26_4 1_555 1_555
C27_4 C26_4 1_555 1_555
H26_4 C27_4 1_555 1_555
C28_4 C25_4 1_555 1_555
C29_4 C28_4 1_555 1_555
H27_4 C29_4 1_555 1_555
C30_4 C28_4 1_555 1_555
C31_4 C30_4 1_555 1_555
C32_4 C31_4 1_555 1_555
H28_4 C32_4 1_555 1_555
H29_4 C32_4 1_555 1_555
H30_4 C32_4 1_555 1_555
C33_4 C31_4 1_555 1_555
H31_4 C33_4 1_555 1_555
H32_4 C33_4 1_555 1_555
H33_4 C33_4 1_555 1_555
N5_4 C31_4 1_555 1_555
O2_4 N5_4 1_555 1_555
C34_4 H34_4 1_555 1_555
C35_4 C34_4 1_555 1_555
H35_4 C35_4 1_555 1_555
C36_4 C35_4 1_555 1_555
C37_4 C36_4 1_555 1_555
H36_4 C37_4 1_555 1_555
C38_4 C37_4 1_555 1_555
H37_4 C38_4 1_555 1_555
C39_4 C36_4 1_555 1_555
C40_4 C29_4 1_555 1_555
H38_4 C40_4 1_555 1_555
C41_4 C30_4 1_555 1_555
C42_4 N5_4 1_555 1_555
C43_4 C42_4 1_555 1_555
H39_4 C43_4 1_555 1_555
H40_4 C43_4 1_555 1_555
H41_4 C43_4 1_555 1_555
C44_4 C42_4 1_555 1_555
H42_4 C44_4 1_555 1_555
H43_4 C44_4 1_555 1_555
H44_4 C44_4 1_555 1_555
N6_4 C34_4 1_555 1_555
Cu3 N6_4 1_555 1_555
C23_4 N8_2 1_555 1_555
C27_4 N8_2 1_555 1_555
C38_4 N6_4 1_555 1_555
C39_4 C40_4 1_555 1_555
C39_4 C41_4 1_555 1_555
C41_4 C42_4 1_555 1_555
O2_4 H46_4 1_555 1_555
F1_9 Cu3 1_555 1_555
F7_5 Cu3 1_555 1_555
O1_4 H45_5 1_555 1_555
O2_4 H46_5 1_555 1_555
F2_3 Si1_9 1_555 1_555
F3_5 Si1_9 1_555 1_555
F4_3 Si1_9 1_555 1_555
F5_3 Si1_9 1_555 1_555
F6_3 Si1_9 1_555 1_555
Cu4 F3_5 1_555 1_555
O1_3 H45_6 1_555 1_555
O2_3 H46_6 1_555 1_555
F1_10 Cu4 1_555 1_555
F2_4 Si1_10 1_555 1_555
F7_5 Si1_10 1_555 1_555
Si1_10 F1_10 1_555 1_555
F4_4 Si1_10 1_555 1_555
F5_4 Si1_10 1_555 1_555
F6_4 Si1_10 1_555 1_555
O1_2 H45_7 1_555 1_555
O2_2 H46_7 1_555 1_555
O1 H45_8 1_555 1_555
O2 H46_8 1_555 1_555

#END
