
###############################################################################
#
# This file contains modified crystal structure data generated from the
# MOF subset of the Cambridge Structural Database (CSD) v543 
# hosted by the Cambridge Crystallographic Data Centre (CCDC).
#
# This work is licensed under the Creative Commons
# Attribution-NonCommercial-ShareAlike 4.0 International License.
# To view a copy of this license, visit
# http://creativecommons.org/licenses/by-nc-sa/4.0/
# or send a letter to
# Creative Commons, PO Box 1866, Mountain View, CA 94042, USA.
#
# CIF created using the CSD Python API on 29 September 2022
# The structure has been converted into the P1 space group
# The structure has a 3D framework
# The original CSD entry VOLQOD is in the monoclinic crystal system
# The framework has been calculated to contain at least 10.0% void space
# The void calculation uses a probe of radius 1.32A, grid spacing 0.4
#
###############################################################################

data_VOLQOD
_chemical_formula_moiety         '(C432 H240 O92 Zn32)n'
_symmetry_cell_setting           triclinic
_symmetry_space_group_name_H-M   'P 1'
_symmetry_Int_Tables_number      1
_space_group_name_Hall           'P 1'
loop_
_symmetry_equiv_pos_site_id
_symmetry_equiv_pos_as_xyz
1 x,y,z
_cell_length_a                   26.3857(14)
_cell_length_b                   28.3859(14)
_cell_length_c                   31.6139(16)
_cell_angle_alpha                90
_cell_angle_beta                 113.567(2)
_cell_angle_gamma                90
_cell_volume                     21703.3
loop_
_atom_site_label
_atom_site_type_symbol
_atom_site_fract_x
_atom_site_fract_y
_atom_site_fract_z
O14 O 0.03073(16) 0.55647(14) 0.40909(16)
O15 O 0.0184(2) 0.60235(17) 0.34759(16)
O18 O 0.01179(19) 0.70760(17) 0.36993(16)
O4 O 0.53073(16) 0.05647(14) 0.40909(16)
O5 O 0.5184(2) 0.10235(17) 0.34759(16)
C1 C 0.5332(3) 0.0647(3) 0.3694(3)
C2 C 0.5542(3) 0.0248(2) 0.3503(2)
C3 C 0.5589(3) 0.0327(2) 0.3098(2)
H1 H 0.5535 0.0633 0.2966
Zn6 Zn 0.47250(4) 0.08129(3) 0.42686(3)
Zn8 Zn 0.46835(4) 0.15222(3) 0.34785(3)
Zn1 Zn 0.85684(4) 0.61180(3) 0.34980(3)
Zn2 Zn 0.97250(4) 0.58129(3) 0.42686(3)
Zn3 Zn 0.96835(4) 0.65222(3) 0.34785(3)
Zn4 Zn 0.92798(4) 0.68391(3) 0.42649(3)
O1 O 0.93196(16) 0.63209(12) 0.38770(13)
O2 O 0.8376(2) 0.55247(15) 0.36846(15)
O3 O 0.9230(2) 0.52783(15) 0.41606(14)
O6 O 0.9179(3) 0.34875(19) 0.78277(17)
O7 O 0.8449(2) 0.38923(17) 0.78472(17)
O8 O 0.51179(19) 0.20760(17) 0.36993(16)
O9 O 0.4759(2) 0.23399(15) 0.41918(17)
O10 O 0.8570(2) 0.71317(16) 0.40635(16)
O11 O 0.80606(17) 0.65940(16) 0.35208(14)
C4 C 0.5721(3) 0.9947(3) 0.2881(2)
H2 H 0.5755 0.9995 0.2596
C5 C 0.5805(3) 0.9498(2) 0.3075(2)
C6 C 0.5779(3) 0.9432(2) 0.3499(2)
H3 H 0.5854 0.9131 0.3641
C7 C 0.5645(3) 0.9804(3) 0.3713(2)
H4 H 0.5623 0.9759 0.4003
C8 C 0.5943(3) 0.9097(2) 0.2826(3)
C9 C 0.5689(3) 0.9085(3) 0.2337(2)
H5 H 0.5440 0.9326 0.2169
C10 C 0.5815(3) 0.8713(3) 0.2109(2)
C11 C 0.6183(3) 0.8369(2) 0.2353(2)
H6 H 0.6268 0.8119 0.2191
C12 C 0.6435(3) 0.8379(3) 0.2835(3)
C13 C 0.6320(3) 0.8743(2) 0.3075(2)
H7 H 0.6492 0.8754 0.3403
C14 C 0.5561(3) 0.8702(3) 0.1594(2)
C15 C 0.5526(3) 0.9124(2) 0.1344(2)
H8 H 0.5647 0.9415 0.1500
C16 C 0.5314(3) 0.9104(2) 0.0869(2)
H9 H 0.5307 0.9384 0.0703
C17 C 0.5114(3) 0.8698(2) 0.0627(2)
C18 C 0.5160(3) 0.8276(3) 0.0882(2)
H10 H 0.5039 0.7986 0.0725
C19 C 0.5373(3) 0.8287(2) 0.1343(2)
H11 H 0.5398 0.8001 0.1506
C20 C 0.6847(3) 0.8010(3) 0.3083(2)
C21 C 0.7332(3) 0.8120(2) 0.3482(2)
H12 H 0.7379 0.8431 0.3603
C22 C 0.7736(3) 0.7785(3) 0.3696(2)
H13 H 0.8053 0.7863 0.3964
C23 C 0.7672(3) 0.7346(2) 0.3519(3)
C24 C 0.7175(3) 0.7223(3) 0.3126(2)
H14 H 0.7122 0.6909 0.3013
C25 C 0.6780(3) 0.7554(3) 0.2915(2)
H15 H 0.6459 0.7471 0.2652
C26 C 0.8700(4) 0.5269(3) 0.4000(3)
C27 C 0.8456(4) 0.4927(2) 0.4226(3)
C28 C 0.8796(3) 0.4682(2) 0.4627(2)
H16 H 0.9186 0.4717 0.4742
C29 C 0.8568(4) 0.4391(2) 0.4853(2)
H17 H 0.8803 0.4224 0.5120
C30 C 0.7989(4) 0.4339(3) 0.4695(3)
C31 C 0.7655(3) 0.4601(3) 0.4283(3)
H18 H 0.7263 0.4579 0.4167
C32 C 0.7894(4) 0.4879(2) 0.4059(2)
H19 H 0.7667 0.5039 0.3785
C33 C 0.7735(4) 0.4042(3) 0.4934(3)
C34 C 0.7969(3) 0.4011(3) 0.5407(3)
H20 H 0.8306 0.4173 0.5572
C35 C 0.7727(4) 0.3749(3) 0.5653(3)
C36 C 0.7243(4) 0.3517(3) 0.5410(3)
H21 H 0.7072 0.3338 0.5571
C37 C 0.6993(4) 0.3541(3) 0.4920(3)
C38 C 0.7252(4) 0.3803(3) 0.4701(3)
H22 H 0.7090 0.3819 0.4373
C39 C 0.6484(4) 0.3261(3) 0.4668(3)
C40 C 0.6051(4) 0.3226(3) 0.4819(3)
H23 H 0.6065 0.3409 0.5075
C41 C 0.5615(3) 0.2937(3) 0.4606(3)
H24 H 0.5332 0.2903 0.4717
C42 C 0.5594(4) 0.2685(3) 0.4211(3)
C43 C 0.6005(4) 0.2726(3) 0.4063(3)
H25 H 0.5986 0.2548 0.3804
C44 C 0.6432(4) 0.3007(4) 0.4268(3)
H26 H 0.6706 0.3038 0.4146
C45 C 0.7964(4) 0.3729(3) 0.6165(3)
C46 C 0.8529(5) 0.3595(3) 0.6393(3)
H27 H 0.8739 0.3518 0.6219
C47 C 0.8770(3) 0.3579(2) 0.6873(3)
H28 H 0.9146 0.3488 0.7024
C48 C 0.8480(4) 0.3689(3) 0.7131(3)
C49 C 0.7932(5) 0.3821(3) 0.6912(3)
H29 H 0.7729 0.3905 0.7091
C50 C 0.7666(4) 0.3833(3) 0.6416(3)
H30 H 0.7286 0.3913 0.6267
C51 C 0.8706(4) 0.3702(3) 0.7646(3)
C52 C 0.5131(4) 0.2354(3) 0.4032(3)
C53 C 0.8154(4) 0.7002(3) 0.3733(3)
C54 C 0.4910(3) 0.8696(3) 0.0115(3)
Zn5 Zn 0.85684(4) 0.38820(3) 0.84980(3)
Zn9 Zn 0.96835(4) 0.34778(3) 0.84785(3)
Zn11 Zn 0.42798(4) 0.18391(3) 0.42649(3)
O16 O 0.9179(3) 0.65125(19) 0.28277(17)
O17 O 0.8449(2) 0.61077(17) 0.28472(17)
O19 O 0.9759(2) 0.73399(15) 0.41918(17)
O20 O 0.99915(19) 0.59572(16) 0.49194(14)
O21 O 0.9645(2) 0.66845(17) 0.49123(14)
O12 O 0.49915(19) 0.90428(16) 0.99194(14)
O13 O 0.4645(2) 0.83155(17) 0.99123(14)
Zn7 Zn 0.47250(4) 0.91871(3) 0.92686(3)
Zn12 Zn 0.42798(4) 0.81609(3) 0.92649(3)
Zn1_2 Zn 0.35684(4) 0.11180(3) 0.34980(3)
O1_2 O 0.43196(16) 0.13209(12) 0.38770(13)
O2_2 O 0.3376(2) 0.05247(15) 0.36846(15)
O3_2 O 0.4230(2) 0.02783(15) 0.41606(14)
O10_2 O 0.3570(2) 0.21317(16) 0.40635(16)
O11_2 O 0.30606(17) 0.15940(16) 0.35208(14)
C1_2 C 0.0332(3) 0.5647(3) 0.3694(3)
C2_2 C 0.0542(3) 0.5248(2) 0.3503(2)
C3_2 C 0.0589(3) 0.5327(2) 0.3098(2)
H1_2 H 0.0535 0.5633 0.2966
C4_2 C 0.0721(3) 0.4947(3) 0.2881(2)
H2_2 H 0.0755 0.4995 0.2596
C5_2 C 0.0805(3) 0.4498(2) 0.3075(2)
C6_2 C 0.0779(3) 0.4432(2) 0.3499(2)
H3_2 H 0.0854 0.4131 0.3641
C7_2 C 0.0645(3) 0.4804(3) 0.3713(2)
H4_2 H 0.0623 0.4759 0.4003
C8_2 C 0.0943(3) 0.4097(2) 0.2826(3)
C9_2 C 0.0689(3) 0.4085(3) 0.2337(2)
H5_2 H 0.0440 0.4326 0.2169
C10_2 C 0.0815(3) 0.3713(3) 0.2109(2)
C11_2 C 0.1183(3) 0.3369(2) 0.2353(2)
H6_2 H 0.1268 0.3119 0.2191
C12_2 C 0.1435(3) 0.3379(3) 0.2835(3)
C13_2 C 0.1320(3) 0.3743(2) 0.3075(2)
H7_2 H 0.1492 0.3754 0.3403
C14_2 C 0.0561(3) 0.3702(3) 0.1594(2)
C15_2 C 0.0526(3) 0.4124(2) 0.1344(2)
H8_2 H 0.0647 0.4415 0.1500
C16_2 C 0.0314(3) 0.4104(2) 0.0869(2)
H9_2 H 0.0307 0.4384 0.0703
C17_2 C 0.0114(3) 0.3698(2) 0.0627(2)
C18_2 C 0.0160(3) 0.3276(3) 0.0882(2)
H10_2 H 0.0039 0.2986 0.0725
C19_2 C 0.0373(3) 0.3287(2) 0.1343(2)
H11_2 H 0.0398 0.3001 0.1506
C20_2 C 0.1847(3) 0.3010(3) 0.3083(2)
C21_2 C 0.2332(3) 0.3120(2) 0.3482(2)
H12_2 H 0.2379 0.3431 0.3603
C22_2 C 0.2736(3) 0.2785(3) 0.3696(2)
H13_2 H 0.3053 0.2863 0.3964
C23_2 C 0.2672(3) 0.2346(2) 0.3519(3)
C24_2 C 0.2175(3) 0.2223(3) 0.3126(2)
H14_2 H 0.2122 0.1909 0.3013
C25_2 C 0.1780(3) 0.2554(3) 0.2915(2)
H15_2 H 0.1459 0.2471 0.2652
C26_2 C 0.3700(4) 0.0269(3) 0.4000(3)
H19_2 H 0.2667 0.0039 0.3785
C53_2 C 0.3154(4) 0.2002(3) 0.3733(3)
O16_2 O 0.4179(3) 0.15125(19) 0.28277(17)
O17_2 O 0.3449(2) 0.11077(17) 0.28472(17)
O20_2 O 0.49915(19) 0.09572(16) 0.49194(14)
O21_2 O 0.4645(2) 0.16845(17) 0.49123(14)
O6_2 O 0.4179(3) 0.84875(19) 0.78277(17)
O7_2 O 0.3449(2) 0.88923(17) 0.78472(17)
C27_2 C 0.3456(4) 0.9927(2) 0.4226(3)
C28_2 C 0.3796(3) 0.9682(2) 0.4627(2)
H16_2 H 0.4186 0.9717 0.4742
C29_2 C 0.3568(4) 0.9391(2) 0.4853(2)
H17_2 H 0.3803 0.9224 0.5120
C30_2 C 0.2989(4) 0.9339(3) 0.4695(3)
C31_2 C 0.2655(3) 0.9601(3) 0.4283(3)
H18_2 H 0.2263 0.9579 0.4167
C32_2 C 0.2894(4) 0.9879(2) 0.4059(2)
C33_2 C 0.2735(4) 0.9042(3) 0.4934(3)
C34_2 C 0.2969(3) 0.9011(3) 0.5407(3)
H20_2 H 0.3306 0.9173 0.5572
C35_2 C 0.2727(4) 0.8749(3) 0.5653(3)
C36_2 C 0.2243(4) 0.8517(3) 0.5410(3)
H21_2 H 0.2072 0.8338 0.5571
C37_2 C 0.1993(4) 0.8541(3) 0.4920(3)
C38_2 C 0.2252(4) 0.8803(3) 0.4701(3)
H22_2 H 0.2090 0.8819 0.4373
C39_2 C 0.1484(4) 0.8261(3) 0.4668(3)
C40_2 C 0.1051(4) 0.8226(3) 0.4819(3)
H23_2 H 0.1065 0.8409 0.5075
C41_2 C 0.0615(3) 0.7937(3) 0.4606(3)
H24_2 H 0.0332 0.7903 0.4717
C42_2 C 0.0594(4) 0.7685(3) 0.4211(3)
C43_2 C 0.1005(4) 0.7726(3) 0.4063(3)
H25_2 H 0.0986 0.7548 0.3804
C44_2 C 0.1432(4) 0.8007(4) 0.4268(3)
H26_2 H 0.1706 0.8038 0.4146
C45_2 C 0.2964(4) 0.8729(3) 0.6165(3)
C46_2 C 0.3529(5) 0.8595(3) 0.6393(3)
H27_2 H 0.3739 0.8518 0.6219
C47_2 C 0.3770(3) 0.8579(2) 0.6873(3)
H28_2 H 0.4146 0.8488 0.7024
C48_2 C 0.3480(4) 0.8689(3) 0.7131(3)
C49_2 C 0.2932(5) 0.8821(3) 0.6912(3)
H29_2 H 0.2729 0.8905 0.7091
C50_2 C 0.2666(4) 0.8833(3) 0.6416(3)
H30_2 H 0.2286 0.8913 0.6267
C51_2 C 0.3706(4) 0.8702(3) 0.7646(3)
C52_2 C 0.0131(4) 0.7354(3) 0.4032(3)
Zn5_2 Zn 0.35684(4) 0.88820(3) 0.84980(3)
Zn9_2 Zn 0.46835(4) 0.84778(3) 0.84785(3)
C54_2 C 0.9910(3) 0.3696(3) 0.0115(3)
O12_2 O 0.99915(19) 0.40428(16) 0.99194(14)
O13_2 O 0.9645(2) 0.33155(17) 0.99123(14)
Zn7_2 Zn 0.97250(4) 0.41871(3) 0.92686(3)
Zn12_2 Zn 0.92798(4) 0.31609(3) 0.92649(3)
O14_2 O 0.03073(16) 0.44353(14) 0.90909(16)
O15_2 O 0.0184(2) 0.39765(17) 0.84759(16)
O18_2 O 0.01179(19) 0.29240(17) 0.86993(16)
H17_3 H 0.8803 0.5776 0.0120
C34_3 C 0.7969(3) 0.5989(3) 0.0407(3)
H20_3 H 0.8306 0.5827 0.0572
C35_3 C 0.7727(4) 0.6251(3) 0.0653(3)
C36_3 C 0.7243(4) 0.6483(3) 0.0410(3)
H21_3 H 0.7072 0.6662 0.0571
H23_3 H 0.6065 0.6591 0.0075
C45_3 C 0.7964(4) 0.6271(3) 0.1165(3)
C46_3 C 0.8529(5) 0.6405(3) 0.1393(3)
H27_3 H 0.8739 0.6482 0.1219
C47_3 C 0.8770(3) 0.6421(2) 0.1873(3)
H28_3 H 0.9146 0.6512 0.2024
C48_3 C 0.8480(4) 0.6311(3) 0.2131(3)
C49_3 C 0.7932(5) 0.6179(3) 0.1912(3)
H29_3 H 0.7729 0.6095 0.2091
C50_3 C 0.7666(4) 0.6167(3) 0.1416(3)
H30_3 H 0.7286 0.6087 0.1267
C51_3 C 0.8706(4) 0.6298(3) 0.2646(3)
O1_3 O 0.93196(16) 0.36791(12) 0.88770(13)
O2_3 O 0.8376(2) 0.44753(15) 0.86846(15)
O3_3 O 0.9230(2) 0.47217(15) 0.91606(14)
O8_2 O 0.51179(19) 0.79240(17) 0.86993(16)
O9_2 O 0.4759(2) 0.76601(15) 0.91918(17)
O10_3 O 0.8570(2) 0.28683(16) 0.90635(16)
O11_3 O 0.80606(17) 0.34060(16) 0.85208(14)
C4_3 C 0.5721(3) 0.0053(3) 0.7881(2)
H2_3 H 0.5755 0.0005 0.7596
C5_3 C 0.5805(3) 0.0502(2) 0.8075(2)
C6_3 C 0.5779(3) 0.0568(2) 0.8499(2)
H3_3 H 0.5854 0.0869 0.8641
C7_3 C 0.5645(3) 0.0196(3) 0.8713(2)
H4_3 H 0.5623 0.0241 0.9003
C8_3 C 0.5943(3) 0.0903(2) 0.7826(3)
C9_3 C 0.5689(3) 0.0915(3) 0.7337(2)
H5_3 H 0.5440 0.0674 0.7169
C10_3 C 0.5815(3) 0.1287(3) 0.7109(2)
C11_3 C 0.6183(3) 0.1631(2) 0.7353(2)
H6_3 H 0.6268 0.1881 0.7191
C12_3 C 0.6435(3) 0.1621(3) 0.7835(3)
C13_3 C 0.6320(3) 0.1257(2) 0.8075(2)
H7_3 H 0.6492 0.1246 0.8403
C14_3 C 0.5561(3) 0.1298(3) 0.6594(2)
C15_3 C 0.5526(3) 0.0876(2) 0.6344(2)
H8_3 H 0.5647 0.0585 0.6500
C16_3 C 0.5314(3) 0.0896(2) 0.5869(2)
H9_3 H 0.5307 0.0616 0.5703
C17_3 C 0.5114(3) 0.1302(2) 0.5627(2)
C18_3 C 0.5160(3) 0.1724(3) 0.5882(2)
H10_3 H 0.5039 0.2014 0.5725
C19_3 C 0.5373(3) 0.1713(2) 0.6343(2)
H11_3 H 0.5398 0.1999 0.6506
C20_3 C 0.6847(3) 0.1990(3) 0.8083(2)
C21_3 C 0.7332(3) 0.1880(2) 0.8482(2)
H12_3 H 0.7379 0.1569 0.8603
C22_3 C 0.7736(3) 0.2215(3) 0.8696(2)
H13_3 H 0.8053 0.2137 0.8964
C23_3 C 0.7672(3) 0.2654(2) 0.8519(3)
C24_3 C 0.7175(3) 0.2777(3) 0.8126(2)
H14_3 H 0.7122 0.3091 0.8013
C25_3 C 0.6780(3) 0.2446(3) 0.7915(2)
H15_3 H 0.6459 0.2529 0.7652
C26_3 C 0.8700(4) 0.4731(3) 0.9000(3)
C27_3 C 0.8456(4) 0.5073(2) 0.9226(3)
C28_3 C 0.8796(3) 0.5318(2) 0.9627(2)
H16_3 H 0.9186 0.5283 0.9742
C29_3 C 0.8568(4) 0.5609(2) 0.9853(2)
C30_3 C 0.7989(4) 0.5661(3) 0.9695(3)
C31_3 C 0.7655(3) 0.5399(3) 0.9283(3)
H18_3 H 0.7263 0.5421 0.9167
C32_3 C 0.7894(4) 0.5121(2) 0.9059(2)
H19_3 H 0.7667 0.4961 0.8785
C33_3 C 0.7735(4) 0.5958(3) 0.9934(3)
C37_3 C 0.6993(4) 0.6459(3) 0.9920(3)
C38_3 C 0.7252(4) 0.6197(3) 0.9701(3)
H22_3 H 0.7090 0.6181 0.9373
C39_3 C 0.6484(4) 0.6739(3) 0.9668(3)
C40_3 C 0.6051(4) 0.6774(3) 0.9819(3)
C41_3 C 0.5615(3) 0.7063(3) 0.9606(3)
H24_3 H 0.5332 0.7097 0.9717
C42_3 C 0.5594(4) 0.7315(3) 0.9211(3)
C43_3 C 0.6005(4) 0.7274(3) 0.9063(3)
H25_3 H 0.5986 0.7452 0.8804
C44_3 C 0.6432(4) 0.6993(4) 0.9268(3)
H26_3 H 0.6706 0.6962 0.9146
C52_3 C 0.5131(4) 0.7646(3) 0.9032(3)
C53_3 C 0.8154(4) 0.2998(3) 0.8733(3)
C54_3 C 0.4910(3) 0.1304(3) 0.5115(3)
O19_2 O 0.9759(2) 0.26601(15) 0.91918(17)
O4_2 O 0.53073(16) 0.94353(14) 0.90909(16)
O5_2 O 0.5184(2) 0.89765(17) 0.84759(16)
C1_3 C 0.5332(3) 0.9353(3) 0.8694(3)
C2_3 C 0.5542(3) 0.9752(2) 0.8503(2)
C3_3 C 0.5589(3) 0.9673(2) 0.8098(2)
H1_3 H 0.5535 0.9367 0.7966
H17_4 H 0.3803 0.0776 0.0120
C34_4 C 0.2969(3) 0.0989(3) 0.0407(3)
H20_4 H 0.3306 0.0827 0.0572
C35_4 C 0.2727(4) 0.1251(3) 0.0653(3)
C36_4 C 0.2243(4) 0.1483(3) 0.0410(3)
H21_4 H 0.2072 0.1662 0.0571
H23_4 H 0.1065 0.1591 0.0075
C45_4 C 0.2964(4) 0.1271(3) 0.1165(3)
C46_4 C 0.3529(5) 0.1405(3) 0.1393(3)
H27_4 H 0.3739 0.1482 0.1219
C47_4 C 0.3770(3) 0.1421(2) 0.1873(3)
H28_4 H 0.4146 0.1512 0.2024
C48_4 C 0.3480(4) 0.1311(3) 0.2131(3)
C49_4 C 0.2932(5) 0.1179(3) 0.1912(3)
H29_4 H 0.2729 0.1095 0.2091
C50_4 C 0.2666(4) 0.1167(3) 0.1416(3)
H30_4 H 0.2286 0.1087 0.1267
C51_4 C 0.3706(4) 0.1298(3) 0.2646(3)
C27_4 C 0.3456(4) 0.0073(2) 0.9226(3)
C28_4 C 0.3796(3) 0.0318(2) 0.9627(2)
H16_4 H 0.4186 0.0283 0.9742
C29_4 C 0.3568(4) 0.0609(2) 0.9853(2)
C30_4 C 0.2989(4) 0.0661(3) 0.9695(3)
C31_4 C 0.2655(3) 0.0399(3) 0.9283(3)
H18_4 H 0.2263 0.0421 0.9167
C32_4 C 0.2894(4) 0.0121(2) 0.9059(2)
C33_4 C 0.2735(4) 0.0958(3) 0.9934(3)
C37_4 C 0.1993(4) 0.1459(3) 0.9920(3)
C38_4 C 0.2252(4) 0.1197(3) 0.9701(3)
H22_4 H 0.2090 0.1181 0.9373
C39_4 C 0.1484(4) 0.1739(3) 0.9668(3)
C40_4 C 0.1051(4) 0.1774(3) 0.9819(3)
C41_4 C 0.0615(3) 0.2063(3) 0.9606(3)
H24_4 H 0.0332 0.2097 0.9717
C42_4 C 0.0594(4) 0.2315(3) 0.9211(3)
C43_4 C 0.1005(4) 0.2274(3) 0.9063(3)
H25_4 H 0.0986 0.2452 0.8804
C44_4 C 0.1432(4) 0.1993(4) 0.9268(3)
H26_4 H 0.1706 0.1962 0.9146
C52_4 C 0.0131(4) 0.2646(3) 0.9032(3)
O1_4 O 0.43196(16) 0.86791(12) 0.88770(13)
O2_4 O 0.3376(2) 0.94753(15) 0.86846(15)
O3_4 O 0.4230(2) 0.97217(15) 0.91606(14)
O10_4 O 0.3570(2) 0.78683(16) 0.90635(16)
O11_4 O 0.30606(17) 0.84060(16) 0.85208(14)
C1_4 C 0.0332(3) 0.4353(3) 0.8694(3)
C2_4 C 0.0542(3) 0.4752(2) 0.8503(2)
C3_4 C 0.0589(3) 0.4673(2) 0.8098(2)
H1_4 H 0.0535 0.4367 0.7966
C4_4 C 0.0721(3) 0.5053(3) 0.7881(2)
H2_4 H 0.0755 0.5005 0.7596
C5_4 C 0.0805(3) 0.5502(2) 0.8075(2)
C6_4 C 0.0779(3) 0.5568(2) 0.8499(2)
H3_4 H 0.0854 0.5869 0.8641
C7_4 C 0.0645(3) 0.5196(3) 0.8713(2)
H4_4 H 0.0623 0.5241 0.9003
C8_4 C 0.0943(3) 0.5903(2) 0.7826(3)
C9_4 C 0.0689(3) 0.5915(3) 0.7337(2)
H5_4 H 0.0440 0.5674 0.7169
C10_4 C 0.0815(3) 0.6287(3) 0.7109(2)
C11_4 C 0.1183(3) 0.6631(2) 0.7353(2)
H6_4 H 0.1268 0.6881 0.7191
C12_4 C 0.1435(3) 0.6621(3) 0.7835(3)
C13_4 C 0.1320(3) 0.6257(2) 0.8075(2)
H7_4 H 0.1492 0.6246 0.8403
C14_4 C 0.0561(3) 0.6298(3) 0.6594(2)
C15_4 C 0.0526(3) 0.5876(2) 0.6344(2)
H8_4 H 0.0647 0.5585 0.6500
C16_4 C 0.0314(3) 0.5896(2) 0.5869(2)
H9_4 H 0.0307 0.5616 0.5703
C17_4 C 0.0114(3) 0.6302(2) 0.5627(2)
C18_4 C 0.0160(3) 0.6724(3) 0.5882(2)
H10_4 H 0.0039 0.7014 0.5725
C19_4 C 0.0373(3) 0.6713(2) 0.6343(2)
H11_4 H 0.0398 0.6999 0.6506
C20_4 C 0.1847(3) 0.6990(3) 0.8083(2)
C21_4 C 0.2332(3) 0.6880(2) 0.8482(2)
H12_4 H 0.2379 0.6569 0.8603
C22_4 C 0.2736(3) 0.7215(3) 0.8696(2)
H13_4 H 0.3053 0.7137 0.8964
C23_4 C 0.2672(3) 0.7654(2) 0.8519(3)
C24_4 C 0.2175(3) 0.7777(3) 0.8126(2)
H14_4 H 0.2122 0.8091 0.8013
C25_4 C 0.1780(3) 0.7446(3) 0.7915(2)
H15_4 H 0.1459 0.7529 0.7652
C26_4 C 0.3700(4) 0.9731(3) 0.9000(3)
H19_4 H 0.2667 0.9961 0.8785
C53_4 C 0.3154(4) 0.7998(3) 0.8733(3)
C54_4 C 0.9910(3) 0.6304(3) 0.5115(3)
O4_3 O 0.46927(16) 0.05647(14) 0.09091(16)
O5_3 O 0.4816(2) 0.10235(17) 0.15241(16)
C1_5 C 0.4668(3) 0.0647(3) 0.1306(3)
C2_5 C 0.4458(3) 0.0248(2) 0.1497(2)
C3_5 C 0.4411(3) 0.0327(2) 0.1902(2)
H1_5 H 0.4465 0.0633 0.2034
Zn6_2 Zn 0.52750(4) 0.08129(3) 0.07314(3)
Zn8_2 Zn 0.53165(4) 0.15222(3) 0.15215(3)
Zn1_3 Zn 0.14316(4) 0.61180(3) 0.15020(3)
Zn2_2 Zn 0.02750(4) 0.58129(3) 0.07314(3)
Zn3_2 Zn 0.03165(4) 0.65222(3) 0.15215(3)
Zn4_2 Zn 0.07202(4) 0.68391(3) 0.07351(3)
O1_5 O 0.06804(16) 0.63209(12) 0.11230(13)
O2_5 O 0.1624(2) 0.55247(15) 0.13154(15)
O3_5 O 0.0770(2) 0.52783(15) 0.08394(14)
O8_3 O 0.48821(19) 0.20760(17) 0.13007(16)
O9_3 O 0.5241(2) 0.23399(15) 0.08082(17)
O10_5 O 0.1430(2) 0.71317(16) 0.09365(16)
O11_5 O 0.19394(17) 0.65940(16) 0.14792(14)
O12_3 O 0.50085(19) 0.90428(16) 0.50806(14)
O13_3 O 0.5355(2) 0.83155(17) 0.50877(14)
C4_5 C 0.4279(3) 0.9947(3) 0.2119(2)
H2_5 H 0.4245 0.9995 0.2404
C5_5 C 0.4195(3) 0.9498(2) 0.1925(2)
C6_5 C 0.4221(3) 0.9432(2) 0.1501(2)
H3_5 H 0.4146 0.9131 0.1359
C7_5 C 0.4355(3) 0.9804(3) 0.1287(2)
H4_5 H 0.4377 0.9759 0.0997
C8_5 C 0.4057(3) 0.9097(2) 0.2174(3)
C9_5 C 0.4311(3) 0.9085(3) 0.2663(2)
H5_5 H 0.4560 0.9326 0.2831
C10_5 C 0.4185(3) 0.8713(3) 0.2891(2)
C11_5 C 0.3817(3) 0.8369(2) 0.2647(2)
H6_5 H 0.3732 0.8119 0.2809
C12_5 C 0.3565(3) 0.8379(3) 0.2165(3)
C13_5 C 0.3680(3) 0.8743(2) 0.1925(2)
H7_5 H 0.3508 0.8754 0.1597
C14_5 C 0.4439(3) 0.8702(3) 0.3406(2)
C15_5 C 0.4474(3) 0.9124(2) 0.3656(2)
H8_5 H 0.4353 0.9415 0.3500
C16_5 C 0.4686(3) 0.9104(2) 0.4131(2)
H9_5 H 0.4693 0.9384 0.4297
C17_5 C 0.4886(3) 0.8698(2) 0.4373(2)
C18_5 C 0.4840(3) 0.8276(3) 0.4118(2)
H10_5 H 0.4961 0.7986 0.4275
C19_5 C 0.4627(3) 0.8287(2) 0.3657(2)
H11_5 H 0.4602 0.8001 0.3494
C20_5 C 0.3153(3) 0.8010(3) 0.1917(2)
C21_5 C 0.2668(3) 0.8120(2) 0.1518(2)
H12_5 H 0.2621 0.8431 0.1397
C22_5 C 0.2264(3) 0.7785(3) 0.1304(2)
H13_5 H 0.1947 0.7863 0.1036
C23_5 C 0.2328(3) 0.7346(2) 0.1481(3)
C24_5 C 0.2825(3) 0.7223(3) 0.1874(2)
H14_5 H 0.2878 0.6909 0.1987
C25_5 C 0.3220(3) 0.7554(3) 0.2085(2)
H15_5 H 0.3541 0.7471 0.2348
C26_5 C 0.1300(4) 0.5269(3) 0.1000(3)
C27_5 C 0.1544(4) 0.4927(2) 0.0774(3)
C28_5 C 0.1204(3) 0.4682(2) 0.0373(2)
H16_5 H 0.0814 0.4717 0.0258
C29_5 C 0.1432(4) 0.4391(2) 0.0147(2)
C30_5 C 0.2011(4) 0.4339(3) 0.0305(3)
C31_5 C 0.2345(3) 0.4601(3) 0.0717(3)
H18_5 H 0.2737 0.4579 0.0833
C32_5 C 0.2106(4) 0.4879(2) 0.0941(2)
H19_5 H 0.2333 0.5039 0.1215
C33_5 C 0.2265(4) 0.4042(3) 0.0066(3)
C37_5 C 0.3007(4) 0.3541(3) 0.0080(3)
C38_5 C 0.2748(4) 0.3803(3) 0.0299(3)
H22_5 H 0.2910 0.3819 0.0627
C39_5 C 0.3516(4) 0.3261(3) 0.0332(3)
C40_5 C 0.3949(4) 0.3226(3) 0.0181(3)
C41_5 C 0.4385(3) 0.2937(3) 0.0394(3)
H24_5 H 0.4668 0.2903 0.0283
C42_5 C 0.4406(4) 0.2685(3) 0.0789(3)
C43_5 C 0.3995(4) 0.2726(3) 0.0937(3)
H25_5 H 0.4014 0.2548 0.1196
C44_5 C 0.3568(4) 0.3007(4) 0.0732(3)
H26_5 H 0.3294 0.3038 0.0854
C52_5 C 0.4869(4) 0.2354(3) 0.0968(3)
C53_5 C 0.1846(4) 0.7002(3) 0.1267(3)
C54_5 C 0.5090(3) 0.8696(3) 0.4885(3)
Zn7_3 Zn 0.52750(4) 0.91871(3) 0.57314(3)
Zn11_2 Zn 0.57202(4) 0.18391(3) 0.07351(3)
Zn12_3 Zn 0.57202(4) 0.81609(3) 0.57351(3)
O16_3 O 0.0821(3) 0.65125(19) 0.21723(17)
O17_3 O 0.1551(2) 0.61077(17) 0.21528(17)
O19_3 O 0.0241(2) 0.73399(15) 0.08082(17)
O20_3 O 0.00085(19) 0.59572(16) 0.00806(14)
O21_3 O 0.0355(2) 0.66845(17) 0.00877(14)
O6_3 O 0.0821(3) 0.34875(19) 0.71723(17)
O7_3 O 0.1551(2) 0.38923(17) 0.71528(17)
H17_5 H 0.1197 0.4224 0.9880
C34_5 C 0.2031(3) 0.4011(3) 0.9593(3)
H20_5 H 0.1694 0.4173 0.9428
C35_5 C 0.2273(4) 0.3749(3) 0.9347(3)
C36_5 C 0.2757(4) 0.3517(3) 0.9590(3)
H21_5 H 0.2928 0.3338 0.9429
H23_5 H 0.3935 0.3409 0.9925
C45_5 C 0.2036(4) 0.3729(3) 0.8835(3)
C46_5 C 0.1471(5) 0.3595(3) 0.8607(3)
H27_5 H 0.1261 0.3518 0.8781
C47_5 C 0.1230(3) 0.3579(2) 0.8127(3)
H28_5 H 0.0854 0.3488 0.7976
C48_5 C 0.1520(4) 0.3689(3) 0.7869(3)
C49_5 C 0.2068(5) 0.3821(3) 0.8088(3)
H29_5 H 0.2271 0.3905 0.7909
C50_5 C 0.2334(4) 0.3833(3) 0.8584(3)
H30_5 H 0.2714 0.3913 0.8733
C51_5 C 0.1294(4) 0.3702(3) 0.7354(3)
Zn5_3 Zn 0.14316(4) 0.38820(3) 0.65020(3)
Zn9_3 Zn 0.03165(4) 0.34778(3) 0.65215(3)
O14_3 O 0.96927(16) 0.55647(14) 0.09091(16)
O15_3 O 0.9816(2) 0.60235(17) 0.15241(16)
O18_3 O 0.98821(19) 0.70760(17) 0.13007(16)
O12_4 O 0.00085(19) 0.40428(16) 0.50806(14)
O13_4 O 0.0355(2) 0.33155(17) 0.50877(14)
C54_6 C 0.0090(3) 0.3696(3) 0.4885(3)
Zn7_4 Zn 0.02750(4) 0.41871(3) 0.57314(3)
Zn12_4 Zn 0.07202(4) 0.31609(3) 0.57351(3)
Zn1_4 Zn 0.64316(4) 0.11180(3) 0.15020(3)
O1_6 O 0.56804(16) 0.13209(12) 0.11230(13)
O2_6 O 0.6624(2) 0.05247(15) 0.13154(15)
O3_6 O 0.5770(2) 0.02783(15) 0.08394(14)
O10_6 O 0.6430(2) 0.21317(16) 0.09365(16)
O11_6 O 0.69394(17) 0.15940(16) 0.14792(14)
C1_6 C 0.9668(3) 0.5647(3) 0.1306(3)
C2_6 C 0.9458(3) 0.5248(2) 0.1497(2)
C3_6 C 0.9411(3) 0.5327(2) 0.1902(2)
H1_6 H 0.9465 0.5633 0.2034
C4_6 C 0.9279(3) 0.4947(3) 0.2119(2)
H2_6 H 0.9245 0.4995 0.2404
C5_6 C 0.9195(3) 0.4498(2) 0.1925(2)
C6_6 C 0.9221(3) 0.4432(2) 0.1501(2)
H3_6 H 0.9146 0.4131 0.1359
C7_6 C 0.9355(3) 0.4804(3) 0.1287(2)
H4_6 H 0.9377 0.4759 0.0997
C8_6 C 0.9057(3) 0.4097(2) 0.2174(3)
C9_6 C 0.9311(3) 0.4085(3) 0.2663(2)
H5_6 H 0.9560 0.4326 0.2831
C10_6 C 0.9185(3) 0.3713(3) 0.2891(2)
C11_6 C 0.8817(3) 0.3369(2) 0.2647(2)
H6_6 H 0.8732 0.3119 0.2809
C12_6 C 0.8565(3) 0.3379(3) 0.2165(3)
C13_6 C 0.8680(3) 0.3743(2) 0.1925(2)
H7_6 H 0.8508 0.3754 0.1597
C14_6 C 0.9439(3) 0.3702(3) 0.3406(2)
C15_6 C 0.9474(3) 0.4124(2) 0.3656(2)
H8_6 H 0.9353 0.4415 0.3500
C16_6 C 0.9686(3) 0.4104(2) 0.4131(2)
H9_6 H 0.9693 0.4384 0.4297
C17_6 C 0.9886(3) 0.3698(2) 0.4373(2)
C18_6 C 0.9840(3) 0.3276(3) 0.4118(2)
H10_6 H 0.9961 0.2986 0.4275
C19_6 C 0.9627(3) 0.3287(2) 0.3657(2)
H11_6 H 0.9602 0.3001 0.3494
C20_6 C 0.8153(3) 0.3010(3) 0.1917(2)
C21_6 C 0.7668(3) 0.3120(2) 0.1518(2)
H12_6 H 0.7621 0.3431 0.1397
C22_6 C 0.7264(3) 0.2785(3) 0.1304(2)
H13_6 H 0.6947 0.2863 0.1036
C23_6 C 0.7328(3) 0.2346(2) 0.1481(3)
C24_6 C 0.7825(3) 0.2223(3) 0.1874(2)
H14_6 H 0.7878 0.1909 0.1987
C25_6 C 0.8220(3) 0.2554(3) 0.2085(2)
H15_6 H 0.8541 0.2471 0.2348
C26_6 C 0.6300(4) 0.0269(3) 0.1000(3)
H19_6 H 0.7333 0.0039 0.1215
C53_6 C 0.6846(4) 0.2002(3) 0.1267(3)
O16_4 O 0.5821(3) 0.15125(19) 0.21723(17)
O17_4 O 0.6551(2) 0.11077(17) 0.21528(17)
O20_4 O 0.50085(19) 0.09572(16) 0.00806(14)
O21_4 O 0.5355(2) 0.16845(17) 0.00877(14)
C27_6 C 0.6544(4) 0.9927(2) 0.0774(3)
C28_6 C 0.6204(3) 0.9682(2) 0.0373(2)
H16_6 H 0.5814 0.9717 0.0258
C29_6 C 0.6432(4) 0.9391(2) 0.0147(2)
C30_6 C 0.7011(4) 0.9339(3) 0.0305(3)
C31_6 C 0.7345(3) 0.9601(3) 0.0717(3)
H18_6 H 0.7737 0.9579 0.0833
C32_6 C 0.7106(4) 0.9879(2) 0.0941(2)
C33_6 C 0.7265(4) 0.9042(3) 0.0066(3)
C37_6 C 0.8007(4) 0.8541(3) 0.0080(3)
C38_6 C 0.7748(4) 0.8803(3) 0.0299(3)
H22_6 H 0.7910 0.8819 0.0627
C39_6 C 0.8516(4) 0.8261(3) 0.0332(3)
C40_6 C 0.8949(4) 0.8226(3) 0.0181(3)
C41_6 C 0.9385(3) 0.7937(3) 0.0394(3)
H24_6 H 0.9668 0.7903 0.0283
C42_6 C 0.9406(4) 0.7685(3) 0.0789(3)
C43_6 C 0.8995(4) 0.7726(3) 0.0937(3)
H25_6 H 0.9014 0.7548 0.1196
C44_6 C 0.8568(4) 0.8007(4) 0.0732(3)
H26_6 H 0.8294 0.8038 0.0854
C52_6 C 0.9869(4) 0.7354(3) 0.0968(3)
O6_4 O 0.5821(3) 0.84875(19) 0.71723(17)
O7_4 O 0.6551(2) 0.88923(17) 0.71528(17)
H17_6 H 0.6197 0.9224 0.9880
C34_6 C 0.7031(3) 0.9011(3) 0.9593(3)
H20_6 H 0.6694 0.9173 0.9428
C35_6 C 0.7273(4) 0.8749(3) 0.9347(3)
C36_6 C 0.7757(4) 0.8517(3) 0.9590(3)
H21_6 H 0.7928 0.8338 0.9429
H23_6 H 0.8935 0.8409 0.9925
C45_6 C 0.7036(4) 0.8729(3) 0.8835(3)
C46_6 C 0.6471(5) 0.8595(3) 0.8607(3)
H27_6 H 0.6261 0.8518 0.8781
C47_6 C 0.6230(3) 0.8579(2) 0.8127(3)
H28_6 H 0.5854 0.8488 0.7976
C48_6 C 0.6520(4) 0.8689(3) 0.7869(3)
C49_6 C 0.7068(5) 0.8821(3) 0.8088(3)
H29_6 H 0.7271 0.8905 0.7909
C50_6 C 0.7334(4) 0.8833(3) 0.8584(3)
H30_6 H 0.7714 0.8913 0.8733
C51_6 C 0.6294(4) 0.8702(3) 0.7354(3)
Zn5_4 Zn 0.64316(4) 0.88820(3) 0.65020(3)
Zn9_4 Zn 0.53165(4) 0.84778(3) 0.65215(3)
O1_7 O 0.06804(16) 0.36791(12) 0.61230(13)
O2_7 O 0.1624(2) 0.44753(15) 0.63154(15)
O3_7 O 0.0770(2) 0.47217(15) 0.58394(14)
O8_4 O 0.48821(19) 0.79240(17) 0.63007(16)
O9_4 O 0.5241(2) 0.76601(15) 0.58082(17)
O10_7 O 0.1430(2) 0.28683(16) 0.59365(16)
O11_7 O 0.19394(17) 0.34060(16) 0.64792(14)
C4_7 C 0.4279(3) 0.0053(3) 0.7119(2)
H2_7 H 0.4245 0.0005 0.7404
C5_7 C 0.4195(3) 0.0502(2) 0.6925(2)
C6_7 C 0.4221(3) 0.0568(2) 0.6501(2)
H3_7 H 0.4146 0.0869 0.6359
C7_7 C 0.4355(3) 0.0196(3) 0.6287(2)
H4_7 H 0.4377 0.0241 0.5997
C8_7 C 0.4057(3) 0.0903(2) 0.7174(3)
C9_7 C 0.4311(3) 0.0915(3) 0.7663(2)
H5_7 H 0.4560 0.0674 0.7831
C10_7 C 0.4185(3) 0.1287(3) 0.7891(2)
C11_7 C 0.3817(3) 0.1631(2) 0.7647(2)
H6_7 H 0.3732 0.1881 0.7809
C12_7 C 0.3565(3) 0.1621(3) 0.7165(3)
C13_7 C 0.3680(3) 0.1257(2) 0.6925(2)
H7_7 H 0.3508 0.1246 0.6597
C14_7 C 0.4439(3) 0.1298(3) 0.8406(2)
C15_7 C 0.4474(3) 0.0876(2) 0.8656(2)
H8_7 H 0.4353 0.0585 0.8500
C16_7 C 0.4686(3) 0.0896(2) 0.9131(2)
H9_7 H 0.4693 0.0616 0.9297
C17_7 C 0.4886(3) 0.1302(2) 0.9373(2)
C18_7 C 0.4840(3) 0.1724(3) 0.9118(2)
H10_7 H 0.4961 0.2014 0.9275
C19_7 C 0.4627(3) 0.1713(2) 0.8657(2)
H11_7 H 0.4602 0.1999 0.8494
C20_7 C 0.3153(3) 0.1990(3) 0.6917(2)
C21_7 C 0.2668(3) 0.1880(2) 0.6518(2)
H12_7 H 0.2621 0.1569 0.6397
C22_7 C 0.2264(3) 0.2215(3) 0.6304(2)
H13_7 H 0.1947 0.2137 0.6036
C23_7 C 0.2328(3) 0.2654(2) 0.6481(3)
C24_7 C 0.2825(3) 0.2777(3) 0.6874(2)
H14_7 H 0.2878 0.3091 0.6987
C25_7 C 0.3220(3) 0.2446(3) 0.7085(2)
H15_7 H 0.3541 0.2529 0.7348
C26_7 C 0.1300(4) 0.4731(3) 0.6000(3)
C27_7 C 0.1544(4) 0.5073(2) 0.5774(3)
C28_7 C 0.1204(3) 0.5318(2) 0.5373(2)
H16_7 H 0.0814 0.5283 0.5258
C29_7 C 0.1432(4) 0.5609(2) 0.5147(2)
H17_7 H 0.1197 0.5776 0.4880
C30_7 C 0.2011(4) 0.5661(3) 0.5305(3)
C31_7 C 0.2345(3) 0.5399(3) 0.5717(3)
H18_7 H 0.2737 0.5421 0.5833
C32_7 C 0.2106(4) 0.5121(2) 0.5941(2)
H19_7 H 0.2333 0.4961 0.6215
C33_7 C 0.2265(4) 0.5958(3) 0.5066(3)
C34_7 C 0.2031(3) 0.5989(3) 0.4593(3)
H20_7 H 0.1694 0.5827 0.4428
C35_7 C 0.2273(4) 0.6251(3) 0.4347(3)
C36_7 C 0.2757(4) 0.6483(3) 0.4590(3)
H21_7 H 0.2928 0.6662 0.4429
C37_7 C 0.3007(4) 0.6459(3) 0.5080(3)
C38_7 C 0.2748(4) 0.6197(3) 0.5299(3)
H22_7 H 0.2910 0.6181 0.5627
C39_7 C 0.3516(4) 0.6739(3) 0.5332(3)
C40_7 C 0.3949(4) 0.6774(3) 0.5181(3)
H23_7 H 0.3935 0.6591 0.4925
C41_7 C 0.4385(3) 0.7063(3) 0.5394(3)
H24_7 H 0.4668 0.7097 0.5283
C42_7 C 0.4406(4) 0.7315(3) 0.5789(3)
C43_7 C 0.3995(4) 0.7274(3) 0.5937(3)
H25_7 H 0.4014 0.7452 0.6196
C44_7 C 0.3568(4) 0.6993(4) 0.5732(3)
H26_7 H 0.3294 0.6962 0.5854
C45_7 C 0.2036(4) 0.6271(3) 0.3835(3)
C46_7 C 0.1471(5) 0.6405(3) 0.3607(3)
H27_7 H 0.1261 0.6482 0.3781
C47_7 C 0.1230(3) 0.6421(2) 0.3127(3)
H28_7 H 0.0854 0.6512 0.2976
C48_7 C 0.1520(4) 0.6311(3) 0.2869(3)
C49_7 C 0.2068(5) 0.6179(3) 0.3088(3)
H29_7 H 0.2271 0.6095 0.2909
C50_7 C 0.2334(4) 0.6167(3) 0.3584(3)
H30_7 H 0.2714 0.6087 0.3733
C51_7 C 0.1294(4) 0.6298(3) 0.2354(3)
C52_7 C 0.4869(4) 0.7646(3) 0.5968(3)
C53_7 C 0.1846(4) 0.2998(3) 0.6267(3)
C54_7 C 0.5090(3) 0.1304(3) 0.9885(3)
O19_4 O 0.0241(2) 0.26601(15) 0.58082(17)
O4_4 O 0.46927(16) 0.94353(14) 0.59091(16)
O5_4 O 0.4816(2) 0.89765(17) 0.65241(16)
C1_7 C 0.4668(3) 0.9353(3) 0.6306(3)
C2_7 C 0.4458(3) 0.9752(2) 0.6497(2)
C3_7 C 0.4411(3) 0.9673(2) 0.6902(2)
H1_7 H 0.4465 0.9367 0.7034
O14_4 O 0.96927(16) 0.44353(14) 0.59091(16)
O15_4 O 0.9816(2) 0.39765(17) 0.65241(16)
O18_4 O 0.98821(19) 0.29240(17) 0.63007(16)
C54_8 C 0.0090(3) 0.6304(3) 0.9885(3)
C27_8 C 0.6544(4) 0.0073(2) 0.5774(3)
C28_8 C 0.6204(3) 0.0318(2) 0.5373(2)
H16_8 H 0.5814 0.0283 0.5258
C29_8 C 0.6432(4) 0.0609(2) 0.5147(2)
H17_8 H 0.6197 0.0776 0.4880
C30_8 C 0.7011(4) 0.0661(3) 0.5305(3)
C31_8 C 0.7345(3) 0.0399(3) 0.5717(3)
H18_8 H 0.7737 0.0421 0.5833
C32_8 C 0.7106(4) 0.0121(2) 0.5941(2)
C33_8 C 0.7265(4) 0.0958(3) 0.5066(3)
C34_8 C 0.7031(3) 0.0989(3) 0.4593(3)
H20_8 H 0.6694 0.0827 0.4428
C35_8 C 0.7273(4) 0.1251(3) 0.4347(3)
C36_8 C 0.7757(4) 0.1483(3) 0.4590(3)
H21_8 H 0.7928 0.1662 0.4429
C37_8 C 0.8007(4) 0.1459(3) 0.5080(3)
C38_8 C 0.7748(4) 0.1197(3) 0.5299(3)
H22_8 H 0.7910 0.1181 0.5627
C39_8 C 0.8516(4) 0.1739(3) 0.5332(3)
C40_8 C 0.8949(4) 0.1774(3) 0.5181(3)
H23_8 H 0.8935 0.1591 0.4925
C41_8 C 0.9385(3) 0.2063(3) 0.5394(3)
H24_8 H 0.9668 0.2097 0.5283
C42_8 C 0.9406(4) 0.2315(3) 0.5789(3)
C43_8 C 0.8995(4) 0.2274(3) 0.5937(3)
H25_8 H 0.9014 0.2452 0.6196
C44_8 C 0.8568(4) 0.1993(4) 0.5732(3)
H26_8 H 0.8294 0.1962 0.5854
C45_8 C 0.7036(4) 0.1271(3) 0.3835(3)
C46_8 C 0.6471(5) 0.1405(3) 0.3607(3)
H27_8 H 0.6261 0.1482 0.3781
C47_8 C 0.6230(3) 0.1421(2) 0.3127(3)
H28_8 H 0.5854 0.1512 0.2976
C48_8 C 0.6520(4) 0.1311(3) 0.2869(3)
C49_8 C 0.7068(5) 0.1179(3) 0.3088(3)
H29_8 H 0.7271 0.1095 0.2909
C50_8 C 0.7334(4) 0.1167(3) 0.3584(3)
H30_8 H 0.7714 0.1087 0.3733
C51_8 C 0.6294(4) 0.1298(3) 0.2354(3)
C52_8 C 0.9869(4) 0.2646(3) 0.5968(3)
O1_8 O 0.56804(16) 0.86791(12) 0.61230(13)
O2_8 O 0.6624(2) 0.94753(15) 0.63154(15)
O3_8 O 0.5770(2) 0.97217(15) 0.58394(14)
O10_8 O 0.6430(2) 0.78683(16) 0.59365(16)
O11_8 O 0.69394(17) 0.84060(16) 0.64792(14)
C1_8 C 0.9668(3) 0.4353(3) 0.6306(3)
C2_8 C 0.9458(3) 0.4752(2) 0.6497(2)
C3_8 C 0.9411(3) 0.4673(2) 0.6902(2)
H1_8 H 0.9465 0.4367 0.7034
C4_8 C 0.9279(3) 0.5053(3) 0.7119(2)
H2_8 H 0.9245 0.5005 0.7404
C5_8 C 0.9195(3) 0.5502(2) 0.6925(2)
C6_8 C 0.9221(3) 0.5568(2) 0.6501(2)
H3_8 H 0.9146 0.5869 0.6359
C7_8 C 0.9355(3) 0.5196(3) 0.6287(2)
H4_8 H 0.9377 0.5241 0.5997
C8_8 C 0.9057(3) 0.5903(2) 0.7174(3)
C9_8 C 0.9311(3) 0.5915(3) 0.7663(2)
H5_8 H 0.9560 0.5674 0.7831
C10_8 C 0.9185(3) 0.6287(3) 0.7891(2)
C11_8 C 0.8817(3) 0.6631(2) 0.7647(2)
H6_8 H 0.8732 0.6881 0.7809
C12_8 C 0.8565(3) 0.6621(3) 0.7165(3)
C13_8 C 0.8680(3) 0.6257(2) 0.6925(2)
H7_8 H 0.8508 0.6246 0.6597
C14_8 C 0.9439(3) 0.6298(3) 0.8406(2)
C15_8 C 0.9474(3) 0.5876(2) 0.8656(2)
H8_8 H 0.9353 0.5585 0.8500
C16_8 C 0.9686(3) 0.5896(2) 0.9131(2)
H9_8 H 0.9693 0.5616 0.9297
C17_8 C 0.9886(3) 0.6302(2) 0.9373(2)
C18_8 C 0.9840(3) 0.6724(3) 0.9118(2)
H10_8 H 0.9961 0.7014 0.9275
C19_8 C 0.9627(3) 0.6713(2) 0.8657(2)
H11_8 H 0.9602 0.6999 0.8494
C20_8 C 0.8153(3) 0.6990(3) 0.6917(2)
C21_8 C 0.7668(3) 0.6880(2) 0.6518(2)
H12_8 H 0.7621 0.6569 0.6397
C22_8 C 0.7264(3) 0.7215(3) 0.6304(2)
H13_8 H 0.6947 0.7137 0.6036
C23_8 C 0.7328(3) 0.7654(2) 0.6481(3)
C24_8 C 0.7825(3) 0.7777(3) 0.6874(2)
H14_8 H 0.7878 0.8091 0.6987
C25_8 C 0.8220(3) 0.7446(3) 0.7085(2)
H15_8 H 0.8541 0.7529 0.7348
C26_8 C 0.6300(4) 0.9731(3) 0.6000(3)
H19_8 H 0.7333 0.9961 0.6215
C53_8 C 0.6846(4) 0.7998(3) 0.6267(3)
loop_
_geom_bond_atom_site_label_1
_geom_bond_atom_site_label_2
_geom_bond_site_symmetry_1
_geom_bond_site_symmetry_2
O4 C1 1_555 1_555
O5 C1 1_555 1_555
C1 C2 1_555 1_555
C2 C3 1_555 1_555
C3 H1 1_555 1_555
Zn6 O4 1_555 1_555
Zn8 O5 1_555 1_555
Zn1 O1 1_555 1_555
Zn2 O1 1_555 1_555
Zn3 O1 1_555 1_555
Zn4 O1 1_555 1_555
O2 Zn1 1_555 1_555
O3 Zn2 1_555 1_555
O6 C51 1_555 1_555
O7 C51 1_555 1_555
O8 C52 1_555 1_555
O9 C52 1_555 1_555
O10 Zn4 1_555 1_555
O11 Zn1 1_555 1_555
H2 C4 1_555 1_555
C5 C4 1_555 1_555
C6 C5 1_555 1_555
H3 C6 1_555 1_555
H4 C7 1_555 1_555
C8 C5 1_555 1_555
C9 C8 1_555 1_555
H5 C9 1_555 1_555
C10 C9 1_555 1_555
C11 C10 1_555 1_555
H6 C11 1_555 1_555
C12 C11 1_555 1_555
C13 C8 1_555 1_555
H7 C13 1_555 1_555
C14 C10 1_555 1_555
C15 C14 1_555 1_555
H8 C15 1_555 1_555
C16 C15 1_555 1_555
H9 C16 1_555 1_555
C17 C16 1_555 1_555
C18 C17 1_555 1_555
H10 C18 1_555 1_555
C19 C14 1_555 1_555
H11 C19 1_555 1_555
C20 C12 1_555 1_555
C21 C20 1_555 1_555
H12 C21 1_555 1_555
C22 C21 1_555 1_555
H13 C22 1_555 1_555
C23 C22 1_555 1_555
C24 C23 1_555 1_555
H14 C24 1_555 1_555
C25 C20 1_555 1_555
H15 C25 1_555 1_555
C26 O2 1_555 1_555
C27 C26 1_555 1_555
C28 C27 1_555 1_555
H16 C28 1_555 1_555
C29 C28 1_555 1_555
H17 C29 1_555 1_555
C30 C29 1_555 1_555
C31 C30 1_555 1_555
H18 C31 1_555 1_555
C32 C27 1_555 1_555
H19 C32 1_555 1_555
C33 C30 1_555 1_555
C34 C33 1_555 1_555
H20 C34 1_555 1_555
C35 C34 1_555 1_555
C36 C35 1_555 1_555
H21 C36 1_555 1_555
C37 C36 1_555 1_555
C38 C33 1_555 1_555
H22 C38 1_555 1_555
C39 C37 1_555 1_555
C40 C39 1_555 1_555
H23 C40 1_555 1_555
C41 C40 1_555 1_555
H24 C41 1_555 1_555
C42 C41 1_555 1_555
C43 C42 1_555 1_555
H25 C43 1_555 1_555
C44 C39 1_555 1_555
H26 C44 1_555 1_555
C45 C35 1_555 1_555
C46 C45 1_555 1_555
H27 C46 1_555 1_555
C47 C46 1_555 1_555
H28 C47 1_555 1_555
C48 C47 1_555 1_555
C49 C48 1_555 1_555
H29 C49 1_555 1_555
C50 C45 1_555 1_555
H30 C50 1_555 1_555
C51 C48 1_555 1_555
C52 C42 1_555 1_555
C53 O10 1_555 1_555
C54 C17 1_555 1_555
Zn5 O7 1_555 1_555
Zn9 O6 1_555 1_555
Zn8 O8 1_555 1_555
Zn11 O9 1_555 1_555
O16 Zn3 1_555 1_555
O17 Zn1 1_555 1_555
O19 Zn4 1_555 1_555
O20 Zn2 1_555 1_555
O21 Zn4 1_555 1_555
O3 C26 1_555 1_555
O11 C53 1_555 1_555
C6 C7 1_555 1_555
C12 C13 1_555 1_555
C18 C19 1_555 1_555
C23 C53 1_555 1_555
C24 C25 1_555 1_555
C31 C32 1_555 1_555
C37 C38 1_555 1_555
C43 C44 1_555 1_555
C49 C50 1_555 1_555
Zn7 O12 1_555 1_555
Zn12 O13 1_555 1_555
Zn1_2 O1_2 1_555 1_555
Zn6 O1_2 1_555 1_555
Zn8 O1_2 1_555 1_555
Zn11 O1_2 1_555 1_555
O2_2 Zn1_2 1_555 1_555
O3_2 Zn6 1_555 1_555
O14 C1_2 1_555 1_555
O15 C1_2 1_555 1_555
O10_2 Zn11 1_555 1_555
O11_2 Zn1_2 1_555 1_555
C1_2 C2_2 1_555 1_555
C2_2 C3_2 1_555 1_555
C3_2 H1_2 1_555 1_555
C4_2 C3_2 1_555 1_555
H2_2 C4_2 1_555 1_555
C5_2 C4_2 1_555 1_555
C6_2 C5_2 1_555 1_555
H3_2 C6_2 1_555 1_555
C7_2 C2_2 1_555 1_555
H4_2 C7_2 1_555 1_555
C8_2 C5_2 1_555 1_555
C9_2 C8_2 1_555 1_555
H5_2 C9_2 1_555 1_555
C10_2 C9_2 1_555 1_555
C11_2 C10_2 1_555 1_555
H6_2 C11_2 1_555 1_555
C12_2 C11_2 1_555 1_555
C13_2 C8_2 1_555 1_555
H7_2 C13_2 1_555 1_555
C14_2 C10_2 1_555 1_555
C15_2 C14_2 1_555 1_555
H8_2 C15_2 1_555 1_555
C16_2 C15_2 1_555 1_555
H9_2 C16_2 1_555 1_555
C17_2 C16_2 1_555 1_555
C18_2 C17_2 1_555 1_555
H10_2 C18_2 1_555 1_555
C19_2 C14_2 1_555 1_555
H11_2 C19_2 1_555 1_555
C20_2 C12_2 1_555 1_555
C21_2 C20_2 1_555 1_555
H12_2 C21_2 1_555 1_555
C22_2 C21_2 1_555 1_555
H13_2 C22_2 1_555 1_555
C23_2 C22_2 1_555 1_555
C24_2 C23_2 1_555 1_555
H14_2 C24_2 1_555 1_555
C25_2 C20_2 1_555 1_555
H15_2 C25_2 1_555 1_555
C26_2 O2_2 1_555 1_555
C53_2 O10_2 1_555 1_555
O16_2 Zn8 1_555 1_555
O17_2 Zn1_2 1_555 1_555
O20_2 Zn6 1_555 1_555
O21_2 Zn11 1_555 1_555
O3_2 C26_2 1_555 1_555
O11_2 C53_2 1_555 1_555
C6_2 C7_2 1_555 1_555
C12_2 C13_2 1_555 1_555
C18_2 C19_2 1_555 1_555
C23_2 C53_2 1_555 1_555
C24_2 C25_2 1_555 1_555
O6_2 C51_2 1_555 1_555
O7_2 C51_2 1_555 1_555
O18 C52_2 1_555 1_555
C28_2 C27_2 1_555 1_555
H16_2 C28_2 1_555 1_555
C29_2 C28_2 1_555 1_555
H17_2 C29_2 1_555 1_555
C30_2 C29_2 1_555 1_555
C31_2 C30_2 1_555 1_555
H18_2 C31_2 1_555 1_555
C32_2 C27_2 1_555 1_555
C33_2 C30_2 1_555 1_555
C34_2 C33_2 1_555 1_555
H20_2 C34_2 1_555 1_555
C35_2 C34_2 1_555 1_555
C36_2 C35_2 1_555 1_555
H21_2 C36_2 1_555 1_555
C37_2 C36_2 1_555 1_555
C38_2 C33_2 1_555 1_555
H22_2 C38_2 1_555 1_555
C39_2 C37_2 1_555 1_555
C40_2 C39_2 1_555 1_555
H23_2 C40_2 1_555 1_555
C41_2 C40_2 1_555 1_555
H24_2 C41_2 1_555 1_555
C42_2 C41_2 1_555 1_555
C43_2 C42_2 1_555 1_555
H25_2 C43_2 1_555 1_555
C44_2 C39_2 1_555 1_555
H26_2 C44_2 1_555 1_555
C45_2 C35_2 1_555 1_555
C46_2 C45_2 1_555 1_555
H27_2 C46_2 1_555 1_555
C47_2 C46_2 1_555 1_555
H28_2 C47_2 1_555 1_555
C48_2 C47_2 1_555 1_555
C49_2 C48_2 1_555 1_555
H29_2 C49_2 1_555 1_555
C50_2 C45_2 1_555 1_555
H30_2 C50_2 1_555 1_555
C51_2 C48_2 1_555 1_555
C52_2 C42_2 1_555 1_555
Zn5_2 O7_2 1_555 1_555
Zn9_2 O6_2 1_555 1_555
C31_2 C32_2 1_555 1_555
C37_2 C38_2 1_555 1_555
C43_2 C44_2 1_555 1_555
C49_2 C50_2 1_555 1_555
Zn7_2 O12_2 1_555 1_555
Zn12_2 O13_2 1_555 1_555
O16 C51_3 1_555 1_555
O17 C51_3 1_555 1_555
H20_3 C34_3 1_555 1_555
C35_3 C34_3 1_555 1_555
C36_3 C35_3 1_555 1_555
H21_3 C36_3 1_555 1_555
C45_3 C35_3 1_555 1_555
C46_3 C45_3 1_555 1_555
H27_3 C46_3 1_555 1_555
C47_3 C46_3 1_555 1_555
H28_3 C47_3 1_555 1_555
C48_3 C47_3 1_555 1_555
C49_3 C48_3 1_555 1_555
H29_3 C49_3 1_555 1_555
C50_3 C45_3 1_555 1_555
H30_3 C50_3 1_555 1_555
C51_3 C48_3 1_555 1_555
C49_3 C50_3 1_555 1_555
Zn5 O1_3 1_555 1_555
Zn7_2 O1_3 1_555 1_555
Zn9 O1_3 1_555 1_555
Zn12_2 O1_3 1_555 1_555
O2_3 Zn5 1_555 1_555
O3_3 Zn7_2 1_555 1_555
O8_2 C52_3 1_555 1_555
O9_2 C52_3 1_555 1_555
O10_3 Zn12_2 1_555 1_555
O11_3 Zn5 1_555 1_555
O20_2 C54_3 1_555 1_555
O21_2 C54_3 1_555 1_555
H2_3 C4_3 1_555 1_555
C5_3 C4_3 1_555 1_555
C6_3 C5_3 1_555 1_555
H3_3 C6_3 1_555 1_555
H4_3 C7_3 1_555 1_555
C8_3 C5_3 1_555 1_555
C9_3 C8_3 1_555 1_555
H5_3 C9_3 1_555 1_555
C10_3 C9_3 1_555 1_555
C11_3 C10_3 1_555 1_555
H6_3 C11_3 1_555 1_555
C12_3 C11_3 1_555 1_555
C13_3 C8_3 1_555 1_555
H7_3 C13_3 1_555 1_555
C14_3 C10_3 1_555 1_555
C15_3 C14_3 1_555 1_555
H8_3 C15_3 1_555 1_555
C16_3 C15_3 1_555 1_555
H9_3 C16_3 1_555 1_555
C17_3 C16_3 1_555 1_555
C18_3 C17_3 1_555 1_555
H10_3 C18_3 1_555 1_555
C19_3 C14_3 1_555 1_555
H11_3 C19_3 1_555 1_555
C20_3 C12_3 1_555 1_555
C21_3 C20_3 1_555 1_555
H12_3 C21_3 1_555 1_555
C22_3 C21_3 1_555 1_555
H13_3 C22_3 1_555 1_555
C23_3 C22_3 1_555 1_555
C24_3 C23_3 1_555 1_555
H14_3 C24_3 1_555 1_555
C25_3 C20_3 1_555 1_555
H15_3 C25_3 1_555 1_555
C26_3 O2_3 1_555 1_555
C27_3 C26_3 1_555 1_555
C28_3 C27_3 1_555 1_555
H16_3 C28_3 1_555 1_555
C29_3 C28_3 1_555 1_555
C30_3 C29_3 1_555 1_555
C31_3 C30_3 1_555 1_555
H18_3 C31_3 1_555 1_555
C32_3 C27_3 1_555 1_555
H19_3 C32_3 1_555 1_555
C33_3 C30_3 1_555 1_555
C38_3 C33_3 1_555 1_555
H22_3 C38_3 1_555 1_555
C39_3 C37_3 1_555 1_555
C40_3 C39_3 1_555 1_555
C41_3 C40_3 1_555 1_555
H24_3 C41_3 1_555 1_555
C42_3 C41_3 1_555 1_555
C43_3 C42_3 1_555 1_555
H25_3 C43_3 1_555 1_555
C44_3 C39_3 1_555 1_555
H26_3 C44_3 1_555 1_555
C52_3 C42_3 1_555 1_555
C53_3 O10_3 1_555 1_555
C54_3 C17_3 1_555 1_555
Zn9_2 O8_2 1_555 1_555
Zn12 O9_2 1_555 1_555
O19_2 Zn12_2 1_555 1_555
O3_3 C26_3 1_555 1_555
O11_3 C53_3 1_555 1_555
C6_3 C7_3 1_555 1_555
C12_3 C13_3 1_555 1_555
C18_3 C19_3 1_555 1_555
C23_3 C53_3 1_555 1_555
C24_3 C25_3 1_555 1_555
C31_3 C32_3 1_555 1_555
C37_3 C38_3 1_555 1_555
C43_3 C44_3 1_555 1_555
O4_2 C1_3 1_555 1_555
O5_2 C1_3 1_555 1_555
C1_3 C2_3 1_555 1_555
C2_3 C3_3 1_555 1_555
C3_3 H1_3 1_555 1_555
Zn7 O4_2 1_555 1_555
Zn9_2 O5_2 1_555 1_555
O16_2 C51_4 1_555 1_555
O17_2 C51_4 1_555 1_555
H20_4 C34_4 1_555 1_555
C35_4 C34_4 1_555 1_555
C36_4 C35_4 1_555 1_555
H21_4 C36_4 1_555 1_555
C45_4 C35_4 1_555 1_555
C46_4 C45_4 1_555 1_555
H27_4 C46_4 1_555 1_555
C47_4 C46_4 1_555 1_555
H28_4 C47_4 1_555 1_555
C48_4 C47_4 1_555 1_555
C49_4 C48_4 1_555 1_555
H29_4 C49_4 1_555 1_555
C50_4 C45_4 1_555 1_555
H30_4 C50_4 1_555 1_555
C51_4 C48_4 1_555 1_555
C49_4 C50_4 1_555 1_555
O18_2 C52_4 1_555 1_555
C28_4 C27_4 1_555 1_555
H16_4 C28_4 1_555 1_555
C29_4 C28_4 1_555 1_555
C30_4 C29_4 1_555 1_555
C31_4 C30_4 1_555 1_555
H18_4 C31_4 1_555 1_555
C32_4 C27_4 1_555 1_555
C33_4 C30_4 1_555 1_555
C38_4 C33_4 1_555 1_555
H22_4 C38_4 1_555 1_555
C39_4 C37_4 1_555 1_555
C40_4 C39_4 1_555 1_555
C41_4 C40_4 1_555 1_555
H24_4 C41_4 1_555 1_555
C42_4 C41_4 1_555 1_555
C43_4 C42_4 1_555 1_555
H25_4 C43_4 1_555 1_555
C44_4 C39_4 1_555 1_555
H26_4 C44_4 1_555 1_555
C52_4 C42_4 1_555 1_555
C31_4 C32_4 1_555 1_555
C37_4 C38_4 1_555 1_555
C43_4 C44_4 1_555 1_555
Zn5_2 O1_4 1_555 1_555
Zn7 O1_4 1_555 1_555
Zn9_2 O1_4 1_555 1_555
Zn12 O1_4 1_555 1_555
O2_4 Zn5_2 1_555 1_555
O3_4 Zn7 1_555 1_555
O14_2 C1_4 1_555 1_555
O15_2 C1_4 1_555 1_555
O10_4 Zn12 1_555 1_555
O11_4 Zn5_2 1_555 1_555
C1_4 C2_4 1_555 1_555
C2_4 C3_4 1_555 1_555
C3_4 H1_4 1_555 1_555
C4_4 C3_4 1_555 1_555
H2_4 C4_4 1_555 1_555
C5_4 C4_4 1_555 1_555
C6_4 C5_4 1_555 1_555
H3_4 C6_4 1_555 1_555
C7_4 C2_4 1_555 1_555
H4_4 C7_4 1_555 1_555
C8_4 C5_4 1_555 1_555
C9_4 C8_4 1_555 1_555
H5_4 C9_4 1_555 1_555
C10_4 C9_4 1_555 1_555
C11_4 C10_4 1_555 1_555
H6_4 C11_4 1_555 1_555
C12_4 C11_4 1_555 1_555
C13_4 C8_4 1_555 1_555
H7_4 C13_4 1_555 1_555
C14_4 C10_4 1_555 1_555
C15_4 C14_4 1_555 1_555
H8_4 C15_4 1_555 1_555
C16_4 C15_4 1_555 1_555
H9_4 C16_4 1_555 1_555
C17_4 C16_4 1_555 1_555
C18_4 C17_4 1_555 1_555
H10_4 C18_4 1_555 1_555
C19_4 C14_4 1_555 1_555
H11_4 C19_4 1_555 1_555
C20_4 C12_4 1_555 1_555
C21_4 C20_4 1_555 1_555
H12_4 C21_4 1_555 1_555
C22_4 C21_4 1_555 1_555
H13_4 C22_4 1_555 1_555
C23_4 C22_4 1_555 1_555
C24_4 C23_4 1_555 1_555
H14_4 C24_4 1_555 1_555
C25_4 C20_4 1_555 1_555
H15_4 C25_4 1_555 1_555
C26_4 O2_4 1_555 1_555
C53_4 O10_4 1_555 1_555
O3_4 C26_4 1_555 1_555
O11_4 C53_4 1_555 1_555
C6_4 C7_4 1_555 1_555
C12_4 C13_4 1_555 1_555
C18_4 C19_4 1_555 1_555
C23_4 C53_4 1_555 1_555
C24_4 C25_4 1_555 1_555
O20 C54_4 1_555 1_555
O21 C54_4 1_555 1_555
O4_3 C1_5 1_555 1_555
O5_3 C1_5 1_555 1_555
C1_5 C2_5 1_555 1_555
C2_5 C3_5 1_555 1_555
C3_5 H1_5 1_555 1_555
Zn6_2 O4_3 1_555 1_555
Zn8_2 O5_3 1_555 1_555
Zn1_3 O1_5 1_555 1_555
Zn2_2 O1_5 1_555 1_555
Zn3_2 O1_5 1_555 1_555
Zn4_2 O1_5 1_555 1_555
O2_5 Zn1_3 1_555 1_555
O3_5 Zn2_2 1_555 1_555
O8_3 C52_5 1_555 1_555
O9_3 C52_5 1_555 1_555
O10_5 Zn4_2 1_555 1_555
O11_5 Zn1_3 1_555 1_555
O12_3 C54_5 1_555 1_555
O13_3 C54_5 1_555 1_555
H2_5 C4_5 1_555 1_555
C5_5 C4_5 1_555 1_555
C6_5 C5_5 1_555 1_555
H3_5 C6_5 1_555 1_555
H4_5 C7_5 1_555 1_555
C8_5 C5_5 1_555 1_555
C9_5 C8_5 1_555 1_555
H5_5 C9_5 1_555 1_555
C10_5 C9_5 1_555 1_555
C11_5 C10_5 1_555 1_555
H6_5 C11_5 1_555 1_555
C12_5 C11_5 1_555 1_555
C13_5 C8_5 1_555 1_555
H7_5 C13_5 1_555 1_555
C14_5 C10_5 1_555 1_555
C15_5 C14_5 1_555 1_555
H8_5 C15_5 1_555 1_555
C16_5 C15_5 1_555 1_555
H9_5 C16_5 1_555 1_555
C17_5 C16_5 1_555 1_555
C18_5 C17_5 1_555 1_555
H10_5 C18_5 1_555 1_555
C19_5 C14_5 1_555 1_555
H11_5 C19_5 1_555 1_555
C20_5 C12_5 1_555 1_555
C21_5 C20_5 1_555 1_555
H12_5 C21_5 1_555 1_555
C22_5 C21_5 1_555 1_555
H13_5 C22_5 1_555 1_555
C23_5 C22_5 1_555 1_555
C24_5 C23_5 1_555 1_555
H14_5 C24_5 1_555 1_555
C25_5 C20_5 1_555 1_555
H15_5 C25_5 1_555 1_555
C26_5 O2_5 1_555 1_555
C27_5 C26_5 1_555 1_555
C28_5 C27_5 1_555 1_555
H16_5 C28_5 1_555 1_555
C29_5 C28_5 1_555 1_555
C30_5 C29_5 1_555 1_555
C31_5 C30_5 1_555 1_555
H18_5 C31_5 1_555 1_555
C32_5 C27_5 1_555 1_555
H19_5 C32_5 1_555 1_555
C33_5 C30_5 1_555 1_555
C38_5 C33_5 1_555 1_555
H22_5 C38_5 1_555 1_555
C39_5 C37_5 1_555 1_555
C40_5 C39_5 1_555 1_555
C41_5 C40_5 1_555 1_555
H24_5 C41_5 1_555 1_555
C42_5 C41_5 1_555 1_555
C43_5 C42_5 1_555 1_555
H25_5 C43_5 1_555 1_555
C44_5 C39_5 1_555 1_555
H26_5 C44_5 1_555 1_555
C52_5 C42_5 1_555 1_555
C53_5 O10_5 1_555 1_555
C54_5 C17_5 1_555 1_555
Zn7_3 O12_3 1_555 1_555
Zn8_2 O8_3 1_555 1_555
Zn11_2 O9_3 1_555 1_555
Zn12_3 O13_3 1_555 1_555
O16_3 Zn3_2 1_555 1_555
O17_3 Zn1_3 1_555 1_555
O19_3 Zn4_2 1_555 1_555
O20_3 Zn2_2 1_555 1_555
O21_3 Zn4_2 1_555 1_555
O3_5 C26_5 1_555 1_555
O11_5 C53_5 1_555 1_555
C6_5 C7_5 1_555 1_555
C12_5 C13_5 1_555 1_555
C18_5 C19_5 1_555 1_555
C23_5 C53_5 1_555 1_555
C24_5 C25_5 1_555 1_555
C31_5 C32_5 1_555 1_555
C37_5 C38_5 1_555 1_555
C43_5 C44_5 1_555 1_555
O6_3 C51_5 1_555 1_555
O7_3 C51_5 1_555 1_555
H20_5 C34_5 1_555 1_555
C35_5 C34_5 1_555 1_555
C36_5 C35_5 1_555 1_555
H21_5 C36_5 1_555 1_555
C45_5 C35_5 1_555 1_555
C46_5 C45_5 1_555 1_555
H27_5 C46_5 1_555 1_555
C47_5 C46_5 1_555 1_555
H28_5 C47_5 1_555 1_555
C48_5 C47_5 1_555 1_555
C49_5 C48_5 1_555 1_555
H29_5 C49_5 1_555 1_555
C50_5 C45_5 1_555 1_555
H30_5 C50_5 1_555 1_555
C51_5 C48_5 1_555 1_555
Zn5_3 O7_3 1_555 1_555
Zn9_3 O6_3 1_555 1_555
C49_5 C50_5 1_555 1_555
O12_4 C54_6 1_555 1_555
O13_4 C54_6 1_555 1_555
Zn7_4 O12_4 1_555 1_555
Zn12_4 O13_4 1_555 1_555
Zn1_4 O1_6 1_555 1_555
Zn6_2 O1_6 1_555 1_555
Zn8_2 O1_6 1_555 1_555
Zn11_2 O1_6 1_555 1_555
O2_6 Zn1_4 1_555 1_555
O3_6 Zn6_2 1_555 1_555
O14_3 C1_6 1_555 1_555
O15_3 C1_6 1_555 1_555
O10_6 Zn11_2 1_555 1_555
O11_6 Zn1_4 1_555 1_555
C1_6 C2_6 1_555 1_555
C2_6 C3_6 1_555 1_555
C3_6 H1_6 1_555 1_555
C4_6 C3_6 1_555 1_555
H2_6 C4_6 1_555 1_555
C5_6 C4_6 1_555 1_555
C6_6 C5_6 1_555 1_555
H3_6 C6_6 1_555 1_555
C7_6 C2_6 1_555 1_555
H4_6 C7_6 1_555 1_555
C8_6 C5_6 1_555 1_555
C9_6 C8_6 1_555 1_555
H5_6 C9_6 1_555 1_555
C10_6 C9_6 1_555 1_555
C11_6 C10_6 1_555 1_555
H6_6 C11_6 1_555 1_555
C12_6 C11_6 1_555 1_555
C13_6 C8_6 1_555 1_555
H7_6 C13_6 1_555 1_555
C14_6 C10_6 1_555 1_555
C15_6 C14_6 1_555 1_555
H8_6 C15_6 1_555 1_555
C16_6 C15_6 1_555 1_555
H9_6 C16_6 1_555 1_555
C17_6 C16_6 1_555 1_555
C18_6 C17_6 1_555 1_555
H10_6 C18_6 1_555 1_555
C19_6 C14_6 1_555 1_555
H11_6 C19_6 1_555 1_555
C20_6 C12_6 1_555 1_555
C21_6 C20_6 1_555 1_555
H12_6 C21_6 1_555 1_555
C22_6 C21_6 1_555 1_555
H13_6 C22_6 1_555 1_555
C23_6 C22_6 1_555 1_555
C24_6 C23_6 1_555 1_555
H14_6 C24_6 1_555 1_555
C25_6 C20_6 1_555 1_555
H15_6 C25_6 1_555 1_555
C26_6 O2_6 1_555 1_555
C53_6 O10_6 1_555 1_555
O16_4 Zn8_2 1_555 1_555
O17_4 Zn1_4 1_555 1_555
O20_4 Zn6_2 1_555 1_555
O21_4 Zn11_2 1_555 1_555
O3_6 C26_6 1_555 1_555
O11_6 C53_6 1_555 1_555
C6_6 C7_6 1_555 1_555
C12_6 C13_6 1_555 1_555
C18_6 C19_6 1_555 1_555
C23_6 C53_6 1_555 1_555
C24_6 C25_6 1_555 1_555
O18_3 C52_6 1_555 1_555
C28_6 C27_6 1_555 1_555
H16_6 C28_6 1_555 1_555
C29_6 C28_6 1_555 1_555
C30_6 C29_6 1_555 1_555
C31_6 C30_6 1_555 1_555
H18_6 C31_6 1_555 1_555
C32_6 C27_6 1_555 1_555
C33_6 C30_6 1_555 1_555
C38_6 C33_6 1_555 1_555
H22_6 C38_6 1_555 1_555
C39_6 C37_6 1_555 1_555
C40_6 C39_6 1_555 1_555
C41_6 C40_6 1_555 1_555
H24_6 C41_6 1_555 1_555
C42_6 C41_6 1_555 1_555
C43_6 C42_6 1_555 1_555
H25_6 C43_6 1_555 1_555
C44_6 C39_6 1_555 1_555
H26_6 C44_6 1_555 1_555
C52_6 C42_6 1_555 1_555
C31_6 C32_6 1_555 1_555
C37_6 C38_6 1_555 1_555
C43_6 C44_6 1_555 1_555
O6_4 C51_6 1_555 1_555
O7_4 C51_6 1_555 1_555
H20_6 C34_6 1_555 1_555
C35_6 C34_6 1_555 1_555
C36_6 C35_6 1_555 1_555
H21_6 C36_6 1_555 1_555
C45_6 C35_6 1_555 1_555
C46_6 C45_6 1_555 1_555
H27_6 C46_6 1_555 1_555
C47_6 C46_6 1_555 1_555
H28_6 C47_6 1_555 1_555
C48_6 C47_6 1_555 1_555
C49_6 C48_6 1_555 1_555
H29_6 C49_6 1_555 1_555
C50_6 C45_6 1_555 1_555
H30_6 C50_6 1_555 1_555
C51_6 C48_6 1_555 1_555
Zn5_4 O7_4 1_555 1_555
Zn9_4 O6_4 1_555 1_555
C49_6 C50_6 1_555 1_555
Zn5_3 O1_7 1_555 1_555
Zn7_4 O1_7 1_555 1_555
Zn9_3 O1_7 1_555 1_555
Zn12_4 O1_7 1_555 1_555
O2_7 Zn5_3 1_555 1_555
O3_7 Zn7_4 1_555 1_555
O16_3 C51_7 1_555 1_555
O17_3 C51_7 1_555 1_555
O8_4 C52_7 1_555 1_555
O9_4 C52_7 1_555 1_555
O10_7 Zn12_4 1_555 1_555
O11_7 Zn5_3 1_555 1_555
H2_7 C4_7 1_555 1_555
C5_7 C4_7 1_555 1_555
C6_7 C5_7 1_555 1_555
H3_7 C6_7 1_555 1_555
H4_7 C7_7 1_555 1_555
C8_7 C5_7 1_555 1_555
C9_7 C8_7 1_555 1_555
H5_7 C9_7 1_555 1_555
C10_7 C9_7 1_555 1_555
C11_7 C10_7 1_555 1_555
H6_7 C11_7 1_555 1_555
C12_7 C11_7 1_555 1_555
C13_7 C8_7 1_555 1_555
H7_7 C13_7 1_555 1_555
C14_7 C10_7 1_555 1_555
C15_7 C14_7 1_555 1_555
H8_7 C15_7 1_555 1_555
C16_7 C15_7 1_555 1_555
H9_7 C16_7 1_555 1_555
C17_7 C16_7 1_555 1_555
C18_7 C17_7 1_555 1_555
H10_7 C18_7 1_555 1_555
C19_7 C14_7 1_555 1_555
H11_7 C19_7 1_555 1_555
C20_7 C12_7 1_555 1_555
C21_7 C20_7 1_555 1_555
H12_7 C21_7 1_555 1_555
C22_7 C21_7 1_555 1_555
H13_7 C22_7 1_555 1_555
C23_7 C22_7 1_555 1_555
C24_7 C23_7 1_555 1_555
H14_7 C24_7 1_555 1_555
C25_7 C20_7 1_555 1_555
H15_7 C25_7 1_555 1_555
C26_7 O2_7 1_555 1_555
C27_7 C26_7 1_555 1_555
C28_7 C27_7 1_555 1_555
H16_7 C28_7 1_555 1_555
C29_7 C28_7 1_555 1_555
H17_7 C29_7 1_555 1_555
C30_7 C29_7 1_555 1_555
C31_7 C30_7 1_555 1_555
H18_7 C31_7 1_555 1_555
C32_7 C27_7 1_555 1_555
H19_7 C32_7 1_555 1_555
C33_7 C30_7 1_555 1_555
C34_7 C33_7 1_555 1_555
H20_7 C34_7 1_555 1_555
C35_7 C34_7 1_555 1_555
C36_7 C35_7 1_555 1_555
H21_7 C36_7 1_555 1_555
C37_7 C36_7 1_555 1_555
C38_7 C33_7 1_555 1_555
H22_7 C38_7 1_555 1_555
C39_7 C37_7 1_555 1_555
C40_7 C39_7 1_555 1_555
H23_7 C40_7 1_555 1_555
C41_7 C40_7 1_555 1_555
H24_7 C41_7 1_555 1_555
C42_7 C41_7 1_555 1_555
C43_7 C42_7 1_555 1_555
H25_7 C43_7 1_555 1_555
C44_7 C39_7 1_555 1_555
H26_7 C44_7 1_555 1_555
C45_7 C35_7 1_555 1_555
C46_7 C45_7 1_555 1_555
H27_7 C46_7 1_555 1_555
C47_7 C46_7 1_555 1_555
H28_7 C47_7 1_555 1_555
C48_7 C47_7 1_555 1_555
C49_7 C48_7 1_555 1_555
H29_7 C49_7 1_555 1_555
C50_7 C45_7 1_555 1_555
H30_7 C50_7 1_555 1_555
C51_7 C48_7 1_555 1_555
C52_7 C42_7 1_555 1_555
C53_7 O10_7 1_555 1_555
C54_7 C17_7 1_555 1_555
Zn9_4 O8_4 1_555 1_555
Zn12_3 O9_4 1_555 1_555
O19_4 Zn12_4 1_555 1_555
O3_7 C26_7 1_555 1_555
O11_7 C53_7 1_555 1_555
C6_7 C7_7 1_555 1_555
C12_7 C13_7 1_555 1_555
C18_7 C19_7 1_555 1_555
C23_7 C53_7 1_555 1_555
C24_7 C25_7 1_555 1_555
C31_7 C32_7 1_555 1_555
C37_7 C38_7 1_555 1_555
C43_7 C44_7 1_555 1_555
C49_7 C50_7 1_555 1_555
O4_4 C1_7 1_555 1_555
O5_4 C1_7 1_555 1_555
C1_7 C2_7 1_555 1_555
C2_7 C3_7 1_555 1_555
C3_7 H1_7 1_555 1_555
Zn7_3 O4_4 1_555 1_555
Zn9_4 O5_4 1_555 1_555
O16_4 C51_8 1_555 1_555
O17_4 C51_8 1_555 1_555
O18_4 C52_8 1_555 1_555
C28_8 C27_8 1_555 1_555
H16_8 C28_8 1_555 1_555
C29_8 C28_8 1_555 1_555
H17_8 C29_8 1_555 1_555
C30_8 C29_8 1_555 1_555
C31_8 C30_8 1_555 1_555
H18_8 C31_8 1_555 1_555
C32_8 C27_8 1_555 1_555
C33_8 C30_8 1_555 1_555
C34_8 C33_8 1_555 1_555
H20_8 C34_8 1_555 1_555
C35_8 C34_8 1_555 1_555
C36_8 C35_8 1_555 1_555
H21_8 C36_8 1_555 1_555
C37_8 C36_8 1_555 1_555
C38_8 C33_8 1_555 1_555
H22_8 C38_8 1_555 1_555
C39_8 C37_8 1_555 1_555
C40_8 C39_8 1_555 1_555
H23_8 C40_8 1_555 1_555
C41_8 C40_8 1_555 1_555
H24_8 C41_8 1_555 1_555
C42_8 C41_8 1_555 1_555
C43_8 C42_8 1_555 1_555
H25_8 C43_8 1_555 1_555
C44_8 C39_8 1_555 1_555
H26_8 C44_8 1_555 1_555
C45_8 C35_8 1_555 1_555
C46_8 C45_8 1_555 1_555
H27_8 C46_8 1_555 1_555
C47_8 C46_8 1_555 1_555
H28_8 C47_8 1_555 1_555
C48_8 C47_8 1_555 1_555
C49_8 C48_8 1_555 1_555
H29_8 C49_8 1_555 1_555
C50_8 C45_8 1_555 1_555
H30_8 C50_8 1_555 1_555
C51_8 C48_8 1_555 1_555
C52_8 C42_8 1_555 1_555
C31_8 C32_8 1_555 1_555
C37_8 C38_8 1_555 1_555
C43_8 C44_8 1_555 1_555
C49_8 C50_8 1_555 1_555
Zn5_4 O1_8 1_555 1_555
Zn7_3 O1_8 1_555 1_555
Zn9_4 O1_8 1_555 1_555
Zn12_3 O1_8 1_555 1_555
O2_8 Zn5_4 1_555 1_555
O3_8 Zn7_3 1_555 1_555
O14_4 C1_8 1_555 1_555
O15_4 C1_8 1_555 1_555
O10_8 Zn12_3 1_555 1_555
O11_8 Zn5_4 1_555 1_555
C1_8 C2_8 1_555 1_555
C2_8 C3_8 1_555 1_555
C3_8 H1_8 1_555 1_555
C4_8 C3_8 1_555 1_555
H2_8 C4_8 1_555 1_555
C5_8 C4_8 1_555 1_555
C6_8 C5_8 1_555 1_555
H3_8 C6_8 1_555 1_555
C7_8 C2_8 1_555 1_555
H4_8 C7_8 1_555 1_555
C8_8 C5_8 1_555 1_555
C9_8 C8_8 1_555 1_555
H5_8 C9_8 1_555 1_555
C10_8 C9_8 1_555 1_555
C11_8 C10_8 1_555 1_555
H6_8 C11_8 1_555 1_555
C12_8 C11_8 1_555 1_555
C13_8 C8_8 1_555 1_555
H7_8 C13_8 1_555 1_555
C14_8 C10_8 1_555 1_555
C15_8 C14_8 1_555 1_555
H8_8 C15_8 1_555 1_555
C16_8 C15_8 1_555 1_555
H9_8 C16_8 1_555 1_555
C17_8 C16_8 1_555 1_555
C18_8 C17_8 1_555 1_555
H10_8 C18_8 1_555 1_555
C19_8 C14_8 1_555 1_555
H11_8 C19_8 1_555 1_555
C20_8 C12_8 1_555 1_555
C21_8 C20_8 1_555 1_555
H12_8 C21_8 1_555 1_555
C22_8 C21_8 1_555 1_555
H13_8 C22_8 1_555 1_555
C23_8 C22_8 1_555 1_555
C24_8 C23_8 1_555 1_555
H14_8 C24_8 1_555 1_555
C25_8 C20_8 1_555 1_555
H15_8 C25_8 1_555 1_555
C26_8 O2_8 1_555 1_555
C53_8 O10_8 1_555 1_555
O3_8 C26_8 1_555 1_555
O11_8 C53_8 1_555 1_555
C6_8 C7_8 1_555 1_555
C12_8 C13_8 1_555 1_555
C18_8 C19_8 1_555 1_555
C23_8 C53_8 1_555 1_555
C24_8 C25_8 1_555 1_555

#END
