
###############################################################################
#
# This file contains modified crystal structure data generated from the
# MOF subset of the Cambridge Structural Database (CSD) v543 
# hosted by the Cambridge Crystallographic Data Centre (CCDC).
#
# This work is licensed under the Creative Commons
# Attribution-NonCommercial-ShareAlike 4.0 International License.
# To view a copy of this license, visit
# http://creativecommons.org/licenses/by-nc-sa/4.0/
# or send a letter to
# Creative Commons, PO Box 1866, Mountain View, CA 94042, USA.
#
# CIF created using the CSD Python API on 29 September 2022
# The structure has been converted into the P1 space group
# The structure has a 3D framework
# The original CSD entry VOLRAQ is in the tetragonal crystal system
# The framework has been calculated to contain at least 10.0% void space
# The void calculation uses a probe of radius 1.32A, grid spacing 0.4
#
###############################################################################

data_VOLRAQ
_chemical_formula_moiety         '(C266 H130 O50 Zn11)n'
_symmetry_cell_setting           triclinic
_symmetry_space_group_name_H-M   'P 1'
_symmetry_Int_Tables_number      1
_space_group_name_Hall           'P 1'
loop_
_symmetry_equiv_pos_site_id
_symmetry_equiv_pos_as_xyz
1 x,y,z
_cell_length_a                   13.9578(4)
_cell_length_b                   13.9578(4)
_cell_length_c                   28.7133(11)
_cell_angle_alpha                90
_cell_angle_beta                 90
_cell_angle_gamma                90
_cell_volume                     5593.93
loop_
_atom_site_label
_atom_site_type_symbol
_atom_site_fract_x
_atom_site_fract_y
_atom_site_fract_z
C9 C 0.0000 0.0000 0.0779(4)
H5 H 0.0000 0.0000 0.0448
C11 C 0.0000 0.0000 0.1770(4)
C12 C 0.0000 0.0000 0.2276(3)
C15 C 0.0000 0.0000 0.3256(4)
C16 C 0.0000 0.0000 0.3759(4)
O4 O 0.0715(7) 0.9676(8) 0.3972(2)
C9_2 C -0.0000 1.0000 0.0779(4)
H5_2 H -0.0000 1.0000 0.0448
C11_2 C 0.0000 1.0000 0.1770(4)
C12_2 C 0.0000 1.0000 0.2276(3)
C13 C 0.0849(6) 0.9796(8) 0.2530(3)
H7 H 0.1431 0.9672 0.2370
C14 C 0.0824(6) 0.9779(7) 0.3009(3)
H8 H 0.1388 0.9611 0.3175
C15_2 C -0.0000 1.0000 0.3256(4)
C16_2 C 0.0000 1.0000 0.3759(4)
Zn3 Zn 0.53434(7) 0.60909(7) 0.03849(3)
Zn7 Zn 0.10909(7) 0.96566(7) 0.46151(3)
O5 O 0.5000 0.5000 0.0000
O7 O 0.4318(4) 0.6997(4) 0.0351(2)
O14 O 0.6375(5) 0.6814(5) 0.0125(3)
O21 O 0.5324(8) 0.5715(7) 0.1028(2)
C17 C 0.3461(6) 0.6935(6) 0.0188(3)
C20 C 0.2752(6) 0.7645(6) 0.0374(3)
C23 C 0.1816(6) 0.7694(7) 0.0191(3)
C26 C 0.1143(6) 0.8303(7) 0.0394(3)
H12 H 0.0522 0.8352 0.0260
C29 C 0.1366(5) 0.8844(6) 0.0791(2)
C32 C 0.2321(5) 0.8790(7) 0.0972(3)
H15 H 0.2490 0.9143 0.1242
C35 C 0.2991(6) 0.8230(8) 0.0755(4)
H18 H 0.3633 0.8238 0.0864
C38 C 0.0678(5) 0.9460(6) 0.1032(2)
C42 C 0.0656(6) 0.9445(6) 0.1505(2)
H22 H 0.1099 0.9046 0.1666
Zn8 Zn 0.39091(7) 0.53434(7) 0.96151(3)
O5_2 O 0.5000 0.5000 1.0000
O10 O 0.3186(5) 0.6375(5) 0.9875(3)
H9 H 0.1644 0.7314 0.9930
Zn1 Zn 0.46566(7) 0.39091(7) 0.03849(3)
O2 O 0.5682(4) 0.3003(4) 0.0351(2)
C1 C 0.6539(6) 0.3065(6) 0.0188(3)
C2 C 0.7248(6) 0.2355(6) 0.0374(3)
C3 C 0.8184(6) 0.2306(7) 0.0191(3)
C4 C 0.8857(6) 0.1697(7) 0.0394(3)
H2 H 0.9478 0.1648 0.0260
C5 C 0.8634(5) 0.1156(6) 0.0791(2)
C6 C 0.7679(5) 0.1210(7) 0.0972(3)
H3 H 0.7510 0.0857 0.1242
C7 C 0.7009(6) 0.1770(8) 0.0755(4)
H4 H 0.6367 0.1762 0.0864
C8 C 0.9322(5) 0.0540(6) 0.1032(2)
C9_3 C 1.0000 0.0000 0.0779(4)
H5_3 H 1.0000 0.0000 0.0448
C10 C 0.9344(6) 0.0555(6) 0.1505(2)
H6 H 0.8901 0.0954 0.1666
C11_3 C 1.0000 0.0000 0.1770(4)
C12_3 C 1.0000 0.0000 0.2276(3)
C15_3 C 1.0000 0.0000 0.3256(4)
C16_3 C 1.0000 0.0000 0.3759(4)
Zn9 Zn 0.89091(7) 0.03434(7) 0.46151(3)
O11 O 0.3625(5) 0.3186(5) 0.0125(3)
O16 O 0.9285(7) 0.0324(8) 0.3972(2)
O19 O 0.4676(8) 0.4285(7) 0.1028(2)
H10 H 0.2686 0.1644 0.0070
C47 C 0.9151(6) 0.0204(8) 0.2530(3)
H25 H 0.8569 0.0328 0.2370
C50 C 0.9176(6) 0.0221(7) 0.3009(3)
H28 H 0.8612 0.0389 0.3175
O3 O 0.6814(5) 0.3625(5) 0.9875(3)
H1 H 0.8356 0.2686 0.9930
Zn6 Zn 0.60909(7) 0.46566(7) 0.96151(3)
Zn12 Zn 0.03434(7) 0.10909(7) 0.53849(3)
O8 O 0.3003(4) 0.4318(4) 0.9649(2)
O18 O 0.0324(8) 0.0715(7) 0.6028(2)
O20 O 0.4285(7) 0.5324(8) 0.8972(2)
C18 C 0.3065(6) 0.3461(6) 0.9812(3)
C21 C 0.2355(6) 0.2752(6) 0.9626(3)
C24 C 0.2306(7) 0.1816(6) 0.9809(3)
C27 C 0.1697(7) 0.1143(6) 0.9606(3)
H13 H 0.1648 0.0522 0.9740
C30 C 0.1156(6) 0.1366(5) 0.9209(2)
C33 C 0.1210(7) 0.2321(5) 0.9028(3)
H16 H 0.0857 0.2490 0.8758
C36 C 0.1770(8) 0.2991(6) 0.9245(4)
H19 H 0.1762 0.3633 0.9136
C39 C 0.0540(6) 0.0678(5) 0.8968(2)
C41 C 0.0000 0.0000 0.9221(4)
H21 H 0.0000 0.0000 0.9552
C43 C 0.0555(6) 0.0656(6) 0.8495(2)
H23 H 0.0954 0.1099 0.8334
C45 C -0.0000 0.0000 0.8230(4)
C46 C 0.0000 0.0000 0.7724(3)
C49 C 0.0204(8) 0.0849(6) 0.7470(3)
H27 H 0.0328 0.1431 0.7630
C52 C 0.0221(7) 0.0824(6) 0.6991(3)
H30 H 0.0389 0.1388 0.6825
C53 C 0.0000 0.0000 0.6744(4)
C54 C 0.0000 0.0000 0.6241(4)
H11 H 0.7314 0.8356 0.0070
Zn10 Zn 0.96566(7) 0.89091(7) 0.53849(3)
O9 O 0.6997(4) 0.5682(4) 0.9649(2)
O17 O 0.9676(8) 0.9285(7) 0.6028(2)
O22 O 0.5715(7) 0.4676(8) 0.8972(2)
C19 C 0.6935(6) 0.6539(6) 0.9812(3)
C22 C 0.7645(6) 0.7248(6) 0.9626(3)
C25 C 0.7694(7) 0.8184(6) 0.9809(3)
C28 C 0.8303(7) 0.8857(6) 0.9606(3)
H14 H 0.8352 0.9478 0.9740
C31 C 0.8844(6) 0.8634(5) 0.9209(2)
C34 C 0.8790(7) 0.7679(5) 0.9028(3)
H17 H 0.9143 0.7510 0.8758
C37 C 0.8230(8) 0.7009(6) 0.9245(4)
H20 H 0.8238 0.6367 0.9136
C40 C 0.9460(6) 0.9322(5) 0.8968(2)
C41_2 C 1.0000 1.0000 0.9221(4)
H21_2 H 1.0000 1.0000 0.9552
C44 C 0.9445(6) 0.9344(6) 0.8495(2)
H24 H 0.9046 0.8901 0.8334
C45_2 C 1.0000 1.0000 0.8230(4)
C46_2 C 1.0000 1.0000 0.7724(3)
C48 C 0.9796(8) 0.9151(6) 0.7470(3)
H26 H 0.9672 0.8569 0.7630
C51 C 0.9779(7) 0.9176(6) 0.6991(3)
H29 H 0.9611 0.8612 0.6825
C53_2 C 1.0000 1.0000 0.6744(4)
C54_2 C 1.0000 1.0000 0.6241(4)
O5_3 O 0.0000 0.0000 0.5000
O14_2 O 0.1375(5) 0.1814(5) 0.5125(3)
O5_4 O 0.0000 1.0000 0.5000
O2_2 O 0.0682(4) 0.8003(4) 0.5351(2)
O3_2 O 0.1814(5) 0.8625(5) 0.4875(3)
C1_2 C 0.1539(6) 0.8065(6) 0.5188(3)
C2_2 C 0.2248(6) 0.7355(6) 0.5374(3)
C3_2 C 0.3184(6) 0.7306(7) 0.5191(3)
H1_2 H 0.3356 0.7686 0.4930
C4_2 C 0.3857(6) 0.6697(7) 0.5394(3)
H2_2 H 0.4478 0.6648 0.5260
C5_2 C 0.3634(5) 0.6156(6) 0.5791(2)
C6_2 C 0.2679(5) 0.6210(7) 0.5972(3)
H3_2 H 0.2510 0.5857 0.6242
C7_2 C 0.2009(6) 0.6770(8) 0.5755(4)
H4_2 H 0.1367 0.6762 0.5864
C8_2 C 0.4322(5) 0.5540(6) 0.6032(2)
C9_4 C 0.5000 0.5000 0.5779(4)
H5_4 H 0.5000 0.5000 0.5448
C10_2 C 0.4344(6) 0.5555(6) 0.6505(2)
H6_2 H 0.3901 0.5954 0.6666
C11_4 C 0.5000 0.5000 0.6770(4)
C12_4 C 0.5000 0.5000 0.7276(3)
C13_2 C 0.5849(6) 0.4796(8) 0.7530(3)
H7_2 H 0.6431 0.4672 0.7370
C14_2 C 0.5824(6) 0.4779(7) 0.8009(3)
H8_2 H 0.6388 0.4611 0.8175
C15_4 C 0.5000 0.5000 0.8256(4)
C16_4 C 0.5000 0.5000 0.8759(4)
O5_5 O 1.0000 0.0000 0.5000
O7_2 O 0.9318(4) 0.1997(4) 0.5351(2)
O10_2 O 0.8186(5) 0.1375(5) 0.4875(3)
C17_2 C 0.8461(6) 0.1935(6) 0.5188(3)
C20_2 C 0.7752(6) 0.2645(6) 0.5374(3)
C23_2 C 0.6816(6) 0.2694(7) 0.5191(3)
H9_2 H 0.6644 0.2314 0.4930
C26_2 C 0.6143(6) 0.3303(7) 0.5394(3)
H12_2 H 0.5522 0.3352 0.5260
C29_2 C 0.6366(5) 0.3844(6) 0.5791(2)
C32_2 C 0.7321(5) 0.3790(7) 0.5972(3)
H15_2 H 0.7490 0.4143 0.6242
C35_2 C 0.7991(6) 0.3230(8) 0.5755(4)
H18_2 H 0.8633 0.3238 0.5864
C38_2 C 0.5678(5) 0.4460(6) 0.6032(2)
C42_2 C 0.5656(6) 0.4445(6) 0.6505(2)
H22_2 H 0.6099 0.4046 0.6666
C47_2 C 0.4151(6) 0.5204(8) 0.7530(3)
H25_2 H 0.3569 0.5328 0.7370
C50_2 C 0.4176(6) 0.5221(7) 0.8009(3)
H28_2 H 0.3612 0.5389 0.8175
O5_6 O 1.0000 1.0000 0.5000
O8_2 O 0.8003(4) 0.9318(4) 0.4649(2)
O9_2 O 0.1997(4) 0.0682(4) 0.4649(2)
O11_2 O 0.8625(5) 0.8186(5) 0.5125(3)
C18_2 C 0.8065(6) 0.8461(6) 0.4812(3)
C19_2 C 0.1935(6) 0.1539(6) 0.4812(3)
C21_2 C 0.7355(6) 0.7752(6) 0.4626(3)
C22_2 C 0.2645(6) 0.2248(6) 0.4626(3)
C24_2 C 0.7306(7) 0.6816(6) 0.4809(3)
C25_2 C 0.2694(7) 0.3184(6) 0.4809(3)
H10_2 H 0.7686 0.6644 0.5070
H11_2 H 0.2314 0.3356 0.5070
C27_2 C 0.6697(7) 0.6143(6) 0.4606(3)
C28_2 C 0.3303(7) 0.3857(6) 0.4606(3)
H13_2 H 0.6648 0.5522 0.4740
H14_2 H 0.3352 0.4478 0.4740
C30_2 C 0.6156(6) 0.6366(5) 0.4209(2)
C31_2 C 0.3844(6) 0.3634(5) 0.4209(2)
C33_2 C 0.6210(7) 0.7321(5) 0.4028(3)
C34_2 C 0.3790(7) 0.2679(5) 0.4028(3)
H16_2 H 0.5857 0.7490 0.3758
H17_2 H 0.4143 0.2510 0.3758
C36_2 C 0.6770(8) 0.7991(6) 0.4245(4)
C37_2 C 0.3230(8) 0.2009(6) 0.4245(4)
H19_2 H 0.6762 0.8633 0.4136
H20_2 H 0.3238 0.1367 0.4136
C39_2 C 0.5540(6) 0.5678(5) 0.3968(2)
C40_2 C 0.4460(6) 0.4322(5) 0.3968(2)
C41_3 C 0.5000 0.5000 0.4221(4)
H21_3 H 0.5000 0.5000 0.4552
C43_2 C 0.5555(6) 0.5656(6) 0.3495(2)
C44_2 C 0.4445(6) 0.4344(6) 0.3495(2)
H23_2 H 0.5954 0.6099 0.3334
H24_2 H 0.4046 0.3901 0.3334
C45_3 C 0.5000 0.5000 0.3230(4)
C46_3 C 0.5000 0.5000 0.2724(3)
C48_2 C 0.4796(8) 0.4151(6) 0.2470(3)
C49_2 C 0.5204(8) 0.5849(6) 0.2470(3)
H26_2 H 0.4672 0.3569 0.2630
H27_2 H 0.5328 0.6431 0.2630
C51_2 C 0.4779(7) 0.4176(6) 0.1991(3)
C52_2 C 0.5221(7) 0.5824(6) 0.1991(3)
H29_2 H 0.4611 0.3612 0.1825
H30_2 H 0.5389 0.6388 0.1825
C53_3 C 0.5000 0.5000 0.1744(4)
C54_3 C 0.5000 0.5000 0.1241(4)
C9_5 C 1.0000 1.0000 0.0779(4)
H5_5 H 1.0000 1.0000 0.0448
C11_5 C 1.0000 1.0000 0.1770(4)
C12_5 C 1.0000 1.0000 0.2276(3)
C15_5 C 1.0000 1.0000 0.3256(4)
C16_5 C 1.0000 1.0000 0.3759(4)
C41_4 C 0.0000 1.0000 0.9221(4)
H21_4 H 0.0000 1.0000 0.9552
C45_4 C 0.0000 1.0000 0.8230(4)
C46_4 C 0.0000 1.0000 0.7724(3)
C53_4 C 0.0000 1.0000 0.6744(4)
C54_4 C -0.0000 1.0000 0.6241(4)
C41_5 C 1.0000 0.0000 0.9221(4)
H21_5 H 1.0000 0.0000 0.9552
C45_5 C 1.0000 0.0000 0.8230(4)
C46_5 C 1.0000 0.0000 0.7724(3)
C53_5 C 1.0000 0.0000 0.6744(4)
C54_5 C 1.0000 0.0000 0.6241(4)
O6 O -0.0000 0.5000 0.7500
Zn12_2 Zn 0.46566(7) 0.10909(7) 0.21151(3)
O18_2 O 0.4676(8) 0.0715(7) 0.1472(2)
C49_3 C 0.4796(8) 0.0849(6) 0.0030(3)
C52_3 C 0.4779(7) 0.0824(6) 0.0509(3)
H30_3 H 0.4611 0.1388 0.0675
C53_6 C 0.5000 -0.0000 0.0756(4)
C54_6 C 0.5000 -0.0000 0.1259(4)
Zn1_2 Zn 0.03434(7) 0.39091(7) 0.71151(3)
Zn2 Zn 0.10909(7) 0.53434(7) 0.78849(3)
O8_3 O 0.1997(4) 0.4318(4) 0.7851(2)
O11_3 O 0.1375(5) 0.3186(5) 0.7375(3)
O13 O 0.1814(5) 0.6375(5) 0.7625(3)
O19_2 O 0.0324(8) 0.4285(7) 0.6472(2)
O20_2 O 0.0715(7) 0.5324(8) 0.8528(2)
C18_3 C 0.1935(6) 0.3461(6) 0.7688(3)
C21_3 C 0.2645(6) 0.2752(6) 0.7874(3)
C24_3 C 0.2694(7) 0.1816(6) 0.7691(3)
H10_3 H 0.2314 0.1644 0.7430
C27_3 C 0.3303(7) 0.1143(6) 0.7894(3)
H13_3 H 0.3352 0.0522 0.7760
C30_3 C 0.3844(6) 0.1366(5) 0.8291(2)
C33_3 C 0.3790(7) 0.2321(5) 0.8472(3)
H16_3 H 0.4143 0.2490 0.8742
C36_3 C 0.3230(8) 0.2991(6) 0.8255(4)
H19_3 H 0.3238 0.3633 0.8364
C39_3 C 0.4460(6) 0.0678(5) 0.8532(2)
C41_6 C 0.5000 0.0000 0.8279(4)
H21_6 H 0.5000 0.0000 0.7948
C43_3 C 0.4445(6) 0.0656(6) 0.9005(2)
H23_3 H 0.4046 0.1099 0.9166
C45_6 C 0.5000 -0.0000 0.9270(4)
C46_6 C 0.5000 0.0000 0.9776(3)
H27_3 H 0.4672 0.1431 0.9870
Zn10_2 Zn 0.53434(7) 0.89091(7) 0.21151(3)
O17_2 O 0.5324(8) 0.9285(7) 0.1472(2)
C48_3 C 0.5204(8) 0.9151(6) 0.0030(3)
C51_3 C 0.5221(7) 0.9176(6) 0.0509(3)
H29_3 H 0.5389 0.8612 0.0675
C53_7 C 0.5000 1.0000 0.0756(4)
C54_7 C 0.5000 1.0000 0.1259(4)
Zn4 Zn 0.89091(7) 0.46566(7) 0.78849(3)
Zn11 Zn 0.96566(7) 0.60909(7) 0.71151(3)
O6_2 O 1.0000 0.5000 0.7500
O9_3 O 0.8003(4) 0.5682(4) 0.7851(2)
O12 O 0.8625(5) 0.6814(5) 0.7375(3)
O15 O 0.8186(5) 0.3625(5) 0.7625(3)
O22_2 O 0.9285(7) 0.4676(8) 0.8528(2)
C19_3 C 0.8065(6) 0.6539(6) 0.7688(3)
C22_3 C 0.7355(6) 0.7248(6) 0.7874(3)
C25_3 C 0.7306(7) 0.8184(6) 0.7691(3)
H11_3 H 0.7686 0.8356 0.7430
C28_3 C 0.6697(7) 0.8857(6) 0.7894(3)
H14_3 H 0.6648 0.9478 0.7760
C31_3 C 0.6156(6) 0.8634(5) 0.8291(2)
C34_3 C 0.6210(7) 0.7679(5) 0.8472(3)
H17_3 H 0.5857 0.7510 0.8742
C37_3 C 0.6770(8) 0.7009(6) 0.8255(4)
H20_3 H 0.6762 0.6367 0.8364
C40_3 C 0.5540(6) 0.9322(5) 0.8532(2)
C41_7 C 0.5000 1.0000 0.8279(4)
H21_7 H 0.5000 1.0000 0.7948
C44_3 C 0.5555(6) 0.9344(6) 0.9005(2)
H24_3 H 0.5954 0.8901 0.9166
C45_7 C 0.5000 1.0000 0.9270(4)
C46_7 C 0.5000 1.0000 0.9776(3)
H26_3 H 0.5328 0.8569 0.9870
O2_3 O 0.9318(4) 0.3003(4) 0.7149(2)
C1_3 C 0.8461(6) 0.3065(6) 0.7312(3)
C2_3 C 0.7752(6) 0.2355(6) 0.7126(3)
C3_3 C 0.6816(6) 0.2306(7) 0.7309(3)
H1_3 H 0.6644 0.2686 0.7570
C4_3 C 0.6143(6) 0.1697(7) 0.7106(3)
H2_3 H 0.5522 0.1648 0.7240
C5_3 C 0.6366(5) 0.1156(6) 0.6709(2)
C6_3 C 0.7321(5) 0.1210(7) 0.6528(3)
H3_3 H 0.7490 0.0857 0.6258
C7_3 C 0.7991(6) 0.1770(8) 0.6745(4)
H4_3 H 0.8633 0.1762 0.6636
C8_3 C 0.5678(5) 0.0540(6) 0.6468(2)
C9_6 C 0.5000 0.0000 0.6721(4)
H5_6 H 0.5000 0.0000 0.7052
C10_3 C 0.5656(6) 0.0555(6) 0.5995(2)
H6_3 H 0.6099 0.0954 0.5834
C11_6 C 0.5000 0.0000 0.5730(4)
C12_6 C 0.5000 0.0000 0.5224(3)
C15_6 C 0.5000 0.0000 0.4244(4)
C16_6 C 0.5000 0.0000 0.3741(4)
Zn9_2 Zn 0.60909(7) 0.03434(7) 0.28849(3)
O16_2 O 0.5715(7) 0.0324(8) 0.3528(2)
C47_3 C 0.5849(6) 0.0204(8) 0.4970(3)
H25_3 H 0.6431 0.0328 0.5130
C50_3 C 0.5824(6) 0.0221(7) 0.4491(3)
H28_3 H 0.6388 0.0389 0.4325
O4_2 O 0.4285(7) 0.9676(8) 0.3528(2)
C9_7 C 0.5000 1.0000 0.6721(4)
H5_7 H 0.5000 1.0000 0.7052
C11_7 C 0.5000 1.0000 0.5730(4)
C12_7 C 0.5000 1.0000 0.5224(3)
C13_3 C 0.4151(6) 0.9796(8) 0.4970(3)
H7_3 H 0.3569 0.9672 0.5130
C14_3 C 0.4176(6) 0.9779(7) 0.4491(3)
H8_3 H 0.3612 0.9611 0.4325
C15_7 C 0.5000 1.0000 0.4244(4)
C16_7 C 0.5000 1.0000 0.3741(4)
Zn7_2 Zn 0.39091(7) 0.96566(7) 0.28849(3)
O7_3 O 0.0682(4) 0.6997(4) 0.7149(2)
C17_3 C 0.1539(6) 0.6935(6) 0.7312(3)
C20_3 C 0.2248(6) 0.7645(6) 0.7126(3)
C23_3 C 0.3184(6) 0.7694(7) 0.7309(3)
H9_3 H 0.3356 0.7314 0.7570
C26_3 C 0.3857(6) 0.8303(7) 0.7106(3)
H12_3 H 0.4478 0.8352 0.7240
C29_3 C 0.3634(5) 0.8844(6) 0.6709(2)
C32_3 C 0.2679(5) 0.8790(7) 0.6528(3)
H15_3 H 0.2510 0.9143 0.6258
C35_3 C 0.2009(6) 0.8230(8) 0.6745(4)
H18_3 H 0.1367 0.8238 0.6636
C38_3 C 0.4322(5) 0.9460(6) 0.6468(2)
C42_3 C 0.4344(6) 0.9445(6) 0.5995(2)
H22_3 H 0.3901 0.9046 0.5834
O21_2 O 0.9676(8) 0.5715(7) 0.6472(2)
O6_3 O 0.5000 0.0000 0.2500
O9_4 O 0.3003(4) 0.0682(4) 0.2851(2)
O12_2 O 0.3625(5) 0.1814(5) 0.2375(3)
C19_4 C 0.3065(6) 0.1539(6) 0.2688(3)
C22_4 C 0.2355(6) 0.2248(6) 0.2874(3)
C25_4 C 0.2306(7) 0.3184(6) 0.2691(3)
H11_4 H 0.2686 0.3356 0.2430
C28_4 C 0.1697(7) 0.3857(6) 0.2894(3)
H14_4 H 0.1648 0.4478 0.2760
C31_4 C 0.1156(6) 0.3634(5) 0.3291(2)
C34_4 C 0.1210(7) 0.2679(5) 0.3472(3)
H17_4 H 0.0857 0.2510 0.3742
C37_4 C 0.1770(8) 0.2009(6) 0.3255(4)
H20_4 H 0.1762 0.1367 0.3364
C40_4 C 0.0540(6) 0.4322(5) 0.3532(2)
C41_8 C 0.0000 0.5000 0.3279(4)
H21_8 H 0.0000 0.5000 0.2948
C44_4 C 0.0555(6) 0.4344(6) 0.4005(2)
H24_4 H 0.0954 0.3901 0.4166
C45_8 C 0.0000 0.5000 0.4270(4)
C46_8 C 0.0000 0.5000 0.4776(3)
C48_4 C 0.0204(8) 0.4151(6) 0.5030(3)
H26_4 H 0.0328 0.3569 0.4870
C51_4 C 0.0221(7) 0.4176(6) 0.5509(3)
H29_4 H 0.0389 0.3612 0.5675
C53_8 C 0.0000 0.5000 0.5756(4)
C54_8 C 0.0000 0.5000 0.6259(4)
O6_4 O 0.5000 1.0000 0.2500
O15_2 O 0.3186(5) 0.8625(5) 0.2625(3)
O13_2 O 0.6814(5) 0.1375(5) 0.2625(3)
O2_4 O 0.4318(4) 0.8003(4) 0.2149(2)
C1_4 C 0.3461(6) 0.8065(6) 0.2312(3)
C2_4 C 0.2752(6) 0.7355(6) 0.2126(3)
C3_4 C 0.1816(6) 0.7306(7) 0.2309(3)
H1_4 H 0.1644 0.7686 0.2570
C4_4 C 0.1143(6) 0.6697(7) 0.2106(3)
H2_4 H 0.0522 0.6648 0.2240
C5_4 C 0.1366(5) 0.6156(6) 0.1709(2)
C6_4 C 0.2321(5) 0.6210(7) 0.1528(3)
H3_4 H 0.2490 0.5857 0.1258
C7_4 C 0.2991(6) 0.6770(8) 0.1745(4)
H4_4 H 0.3633 0.6762 0.1636
C8_4 C 0.0678(5) 0.5540(6) 0.1468(2)
C9_8 C 0.0000 0.5000 0.1721(4)
H5_8 H 0.0000 0.5000 0.2052
C10_4 C 0.0656(6) 0.5555(6) 0.0995(2)
H6_4 H 0.1099 0.5954 0.0834
C11_8 C 0.0000 0.5000 0.0730(4)
C12_8 C -0.0000 0.5000 0.0224(3)
O8_4 O 0.6997(4) 0.9318(4) 0.2851(2)
O11_4 O 0.6375(5) 0.8186(5) 0.2375(3)
C18_4 C 0.6935(6) 0.8461(6) 0.2688(3)
C21_4 C 0.7645(6) 0.7752(6) 0.2874(3)
C24_4 C 0.7694(7) 0.6816(6) 0.2691(3)
H10_4 H 0.7314 0.6644 0.2430
C27_4 C 0.8303(7) 0.6143(6) 0.2894(3)
H13_4 H 0.8352 0.5522 0.2760
C30_4 C 0.8844(6) 0.6366(5) 0.3291(2)
C33_4 C 0.8790(7) 0.7321(5) 0.3472(3)
H16_4 H 0.9143 0.7490 0.3742
C36_4 C 0.8230(8) 0.7991(6) 0.3255(4)
H19_4 H 0.8238 0.8633 0.3364
C39_4 C 0.9460(6) 0.5678(5) 0.3532(2)
C41_9 C 1.0000 0.5000 0.3279(4)
H21_9 H 1.0000 0.5000 0.2948
C43_4 C 0.9445(6) 0.5656(6) 0.4005(2)
H23_4 H 0.9046 0.6099 0.4166
C45_9 C 1.0000 0.5000 0.4270(4)
C46_9 C 1.0000 0.5000 0.4776(3)
C49_4 C 0.9796(8) 0.5849(6) 0.5030(3)
H25_4 H 0.1431 0.5328 0.0130
H27_4 H 0.9672 0.6431 0.4870
C52_4 C 0.9779(7) 0.5824(6) 0.5509(3)
H30_4 H 0.9611 0.6388 0.5675
C53_9 C 1.0000 0.5000 0.5756(4)
C54_9 C 1.0000 0.5000 0.6259(4)
C15_8 C 0.0000 0.5000 0.9244(4)
C16_8 C -0.0000 0.5000 0.8741(4)
C47_4 C 0.0849(6) 0.5204(8) 0.9970(3)
C50_4 C 0.0824(6) 0.5221(7) 0.9491(3)
H28_4 H 0.1388 0.5389 0.9325
C9_9 C 1.0000 0.5000 0.1721(4)
H5_9 H 1.0000 0.5000 0.2052
C11_9 C 1.0000 0.5000 0.0730(4)
C12_9 C 1.0000 0.5000 0.0224(3)
H7_4 H 0.8569 0.4672 0.0130
O7_4 O 0.5682(4) 0.1997(4) 0.2149(2)
C17_4 C 0.6539(6) 0.1935(6) 0.2312(3)
C20_4 C 0.7248(6) 0.2645(6) 0.2126(3)
C23_4 C 0.8184(6) 0.2694(7) 0.2309(3)
H9_4 H 0.8356 0.2314 0.2570
C26_4 C 0.8857(6) 0.3303(7) 0.2106(3)
H12_4 H 0.9478 0.3352 0.2240
C29_4 C 0.8634(5) 0.3844(6) 0.1709(2)
C32_4 C 0.7679(5) 0.3790(7) 0.1528(3)
H15_4 H 0.7510 0.4143 0.1258
C35_4 C 0.7009(6) 0.3230(8) 0.1745(4)
H18_4 H 0.6367 0.3238 0.1636
C38_4 C 0.9322(5) 0.4460(6) 0.1468(2)
C42_4 C 0.9344(6) 0.4445(6) 0.0995(2)
H22_4 H 0.8901 0.4046 0.0834
C13_4 C 0.9151(6) 0.4796(8) 0.9970(3)
C14_4 C 0.9176(6) 0.4779(7) 0.9491(3)
H8_4 H 0.8612 0.4611 0.9325
C15_9 C 1.0000 0.5000 0.9244(4)
C16_9 C 1.0000 0.5000 0.8741(4)
loop_
_geom_bond_atom_site_label_1
_geom_bond_atom_site_label_2
_geom_bond_site_symmetry_1
_geom_bond_site_symmetry_2
H5 C9 1_555 1_555
C12 C11 1_555 1_555
C16 C15 1_555 1_555
O4 C16_2 1_555 1_555
H5_2 C9_2 1_555 1_555
C12_2 C11_2 1_555 1_555
C13 C12_2 1_555 1_555
H7 C13 1_555 1_555
C14 C13 1_555 1_555
H8 C14 1_555 1_555
C15_2 C14 1_555 1_555
C16_2 C15_2 1_555 1_555
Zn3 O5 1_555 1_555
Zn7 O4 1_555 1_555
O7 Zn3 1_555 1_555
O14 Zn3 1_555 1_555
O21 Zn3 1_555 1_555
C17 O7 1_555 1_555
C20 C17 1_555 1_555
C23 C20 1_555 1_555
C26 C23 1_555 1_555
H12 C26 1_555 1_555
C29 C26 1_555 1_555
C32 C29 1_555 1_555
H15 C32 1_555 1_555
C35 C20 1_555 1_555
H18 C35 1_555 1_555
C38 C9_2 1_555 1_555
C42 C11_2 1_555 1_555
H22 C42 1_555 1_555
C29 C38 1_555 1_555
C32 C35 1_555 1_555
C38 C42 1_555 1_555
Zn8 O5_2 1_555 1_555
O10 Zn8 1_555 1_555
Zn1 O5 1_555 1_555
O2 Zn1 1_555 1_555
C1 O2 1_555 1_555
C2 C1 1_555 1_555
C3 C2 1_555 1_555
C4 C3 1_555 1_555
H2 C4 1_555 1_555
C5 C4 1_555 1_555
C6 C5 1_555 1_555
H3 C6 1_555 1_555
C7 C2 1_555 1_555
H4 C7 1_555 1_555
C8 C5 1_555 1_555
C9_3 C8 1_555 1_555
H5_3 C9_3 1_555 1_555
C10 C8 1_555 1_555
H6 C10 1_555 1_555
C11_3 C10 1_555 1_555
C12_3 C11_3 1_555 1_555
C16_3 C15_3 1_555 1_555
Zn9 O16 1_555 1_555
O11 Zn1 1_555 1_555
O16 C16_3 1_555 1_555
O19 Zn1 1_555 1_555
C47 C12_3 1_555 1_555
H25 C47 1_555 1_555
C50 C15_3 1_555 1_555
H28 C50 1_555 1_555
C6 C7 1_555 1_555
C47 C50 1_555 1_555
Zn8 O8 1_555 1_555
Zn6 O5_2 1_555 1_555
Zn12 O18 1_555 1_555
O8 C18 1_555 1_555
O18 C54 1_555 1_555
O20 Zn8 1_555 1_555
C21 C18 1_555 1_555
C24 C21 1_555 1_555
C27 C24 1_555 1_555
H13 C27 1_555 1_555
C30 C27 1_555 1_555
C33 C30 1_555 1_555
H16 C33 1_555 1_555
C36 C21 1_555 1_555
H19 C36 1_555 1_555
C39 C30 1_555 1_555
C41 C39 1_555 1_555
H21 C41 1_555 1_555
C43 C39 1_555 1_555
H23 C43 1_555 1_555
C45 C43 1_555 1_555
C46 C45 1_555 1_555
C49 C46 1_555 1_555
H27 C49 1_555 1_555
C52 C49 1_555 1_555
H30 C52 1_555 1_555
C54 C53 1_555 1_555
O3 Zn6 1_555 1_555
C33 C36 1_555 1_555
C52 C53 1_555 1_555
Zn10 O17 1_555 1_555
O9 Zn6 1_555 1_555
O17 C54_2 1_555 1_555
O22 Zn6 1_555 1_555
C19 O9 1_555 1_555
C22 C19 1_555 1_555
C25 C22 1_555 1_555
C28 C25 1_555 1_555
H14 C28 1_555 1_555
C31 C28 1_555 1_555
C34 C31 1_555 1_555
H17 C34 1_555 1_555
C37 C22 1_555 1_555
H20 C37 1_555 1_555
C40 C31 1_555 1_555
H21_2 C41_2 1_555 1_555
C44 C40 1_555 1_555
H24 C44 1_555 1_555
C46_2 C45_2 1_555 1_555
C48 C46_2 1_555 1_555
H26 C48 1_555 1_555
C51 C48 1_555 1_555
H29 C51 1_555 1_555
C53_2 C51 1_555 1_555
C54_2 C53_2 1_555 1_555
C34 C37 1_555 1_555
C40 C41_2 1_555 1_555
C44 C45_2 1_555 1_555
Zn12 O5_3 1_555 1_555
O14_2 Zn12 1_555 1_555
O3_2 C1_2 1_555 1_555
O22 C16_4 1_555 1_555
C1_2 O2_2 1_555 1_555
C2_2 C1_2 1_555 1_555
C3_2 C2_2 1_555 1_555
H1_2 C3_2 1_555 1_555
C4_2 C3_2 1_555 1_555
H2_2 C4_2 1_555 1_555
C5_2 C4_2 1_555 1_555
C6_2 C5_2 1_555 1_555
H3_2 C6_2 1_555 1_555
C7_2 C2_2 1_555 1_555
H4_2 C7_2 1_555 1_555
C8_2 C5_2 1_555 1_555
C9_4 C8_2 1_555 1_555
H5_4 C9_4 1_555 1_555
C10_2 C8_2 1_555 1_555
H6_2 C10_2 1_555 1_555
C11_4 C10_2 1_555 1_555
C12_4 C11_4 1_555 1_555
C13_2 C12_4 1_555 1_555
H7_2 C13_2 1_555 1_555
C14_2 C13_2 1_555 1_555
H8_2 C14_2 1_555 1_555
C15_4 C14_2 1_555 1_555
C16_4 C15_4 1_555 1_555
Zn7 O5_4 1_555 1_555
Zn9 O5_5 1_555 1_555
O10_2 Zn9 1_555 1_555
O20 C16_4 1_555 1_555
C17_2 O7_2 1_555 1_555
C20_2 C17_2 1_555 1_555
C23_2 C20_2 1_555 1_555
H9_2 C23_2 1_555 1_555
C26_2 C23_2 1_555 1_555
H12_2 C26_2 1_555 1_555
C29_2 C26_2 1_555 1_555
C32_2 C29_2 1_555 1_555
H15_2 C32_2 1_555 1_555
C35_2 C20_2 1_555 1_555
H18_2 C35_2 1_555 1_555
C38_2 C9_4 1_555 1_555
C42_2 C11_4 1_555 1_555
H22_2 C42_2 1_555 1_555
C47_2 C12_4 1_555 1_555
H25_2 C47_2 1_555 1_555
C50_2 C15_4 1_555 1_555
H28_2 C50_2 1_555 1_555
O3_2 Zn7 1_555 1_555
C6_2 C7_2 1_555 1_555
O10_2 C17_2 1_555 1_555
C29_2 C38_2 1_555 1_555
C32_2 C35_2 1_555 1_555
C38_2 C42_2 1_555 1_555
C47_2 C50_2 1_555 1_555
Zn10 O5_6 1_555 1_555
O8_2 C18_2 1_555 1_555
O11_2 Zn10 1_555 1_555
O19 C54_3 1_555 1_555
O21 C54_3 1_555 1_555
C18_2 O11_2 1_555 1_555
C19_2 O9_2 1_555 1_555
C21_2 C18_2 1_555 1_555
C22_2 C19_2 1_555 1_555
C24_2 C21_2 1_555 1_555
C25_2 C22_2 1_555 1_555
H10_2 C24_2 1_555 1_555
H11_2 C25_2 1_555 1_555
C27_2 C24_2 1_555 1_555
C28_2 C25_2 1_555 1_555
H13_2 C27_2 1_555 1_555
H14_2 C28_2 1_555 1_555
C30_2 C27_2 1_555 1_555
C31_2 C28_2 1_555 1_555
C33_2 C30_2 1_555 1_555
C34_2 C31_2 1_555 1_555
H16_2 C33_2 1_555 1_555
H17_2 C34_2 1_555 1_555
C36_2 C21_2 1_555 1_555
C37_2 C22_2 1_555 1_555
H19_2 C36_2 1_555 1_555
H20_2 C37_2 1_555 1_555
C39_2 C30_2 1_555 1_555
C40_2 C31_2 1_555 1_555
C41_3 C39_2 1_555 1_555
H21_3 C41_3 1_555 1_555
C43_2 C39_2 1_555 1_555
C44_2 C40_2 1_555 1_555
H23_2 C43_2 1_555 1_555
H24_2 C44_2 1_555 1_555
C45_3 C43_2 1_555 1_555
C46_3 C45_3 1_555 1_555
C48_2 C46_3 1_555 1_555
C49_2 C46_3 1_555 1_555
H26_2 C48_2 1_555 1_555
H27_2 C49_2 1_555 1_555
C51_2 C48_2 1_555 1_555
C52_2 C49_2 1_555 1_555
H29_2 C51_2 1_555 1_555
H30_2 C52_2 1_555 1_555
C53_3 C51_2 1_555 1_555
C54_3 C53_3 1_555 1_555
O14_2 C19_2 1_555 1_555
C33_2 C36_2 1_555 1_555
C34_2 C37_2 1_555 1_555
C40_2 C41_3 1_555 1_555
C44_2 C45_3 1_555 1_555
C52_2 C53_3 1_555 1_555
H5_5 C9_5 1_555 1_555
C12_5 C11_5 1_555 1_555
C16_5 C15_5 1_555 1_555
H21_4 C41_4 1_555 1_555
C46_4 C45_4 1_555 1_555
C54_4 C53_4 1_555 1_555
H21_5 C41_5 1_555 1_555
C46_5 C45_5 1_555 1_555
C54_5 C53_5 1_555 1_555
Zn12_2 O18_2 1_555 1_555
O18_2 C54_6 1_555 1_555
C52_3 C49_3 1_555 1_555
H30_3 C52_3 1_555 1_555
C54_6 C53_6 1_555 1_555
C52_3 C53_6 1_555 1_555
Zn1_2 O6 1_555 1_555
O6 Zn2 1_555 1_555
Zn2 O8_3 1_555 1_555
O8_3 C18_3 1_555 1_555
O11_3 Zn1_2 1_555 1_555
O13 Zn2 1_555 1_555
O19_2 Zn1_2 1_555 1_555
O20_2 Zn2 1_555 1_555
C18_3 O11_3 1_555 1_555
C21_3 C18_3 1_555 1_555
C24_3 C21_3 1_555 1_555
H10_3 C24_3 1_555 1_555
C27_3 C24_3 1_555 1_555
H13_3 C27_3 1_555 1_555
C30_3 C27_3 1_555 1_555
C33_3 C30_3 1_555 1_555
H16_3 C33_3 1_555 1_555
C36_3 C21_3 1_555 1_555
H19_3 C36_3 1_555 1_555
C39_3 C30_3 1_555 1_555
C41_6 C39_3 1_555 1_555
H21_6 C41_6 1_555 1_555
C43_3 C39_3 1_555 1_555
H23_3 C43_3 1_555 1_555
C45_6 C43_3 1_555 1_555
C46_6 C45_6 1_555 1_555
C33_3 C36_3 1_555 1_555
Zn10_2 O17_2 1_555 1_555
O17_2 C54_7 1_555 1_555
C51_3 C48_3 1_555 1_555
H29_3 C51_3 1_555 1_555
C53_7 C51_3 1_555 1_555
C54_7 C53_7 1_555 1_555
Zn4 O6_2 1_555 1_555
Zn11 O6_2 1_555 1_555
O9_3 Zn4 1_555 1_555
O12 Zn11 1_555 1_555
O15 Zn4 1_555 1_555
O22_2 Zn4 1_555 1_555
C19_3 O9_3 1_555 1_555
C22_3 C19_3 1_555 1_555
C25_3 C22_3 1_555 1_555
H11_3 C25_3 1_555 1_555
C28_3 C25_3 1_555 1_555
H14_3 C28_3 1_555 1_555
C31_3 C28_3 1_555 1_555
C34_3 C31_3 1_555 1_555
H17_3 C34_3 1_555 1_555
C37_3 C22_3 1_555 1_555
H20_3 C37_3 1_555 1_555
C40_3 C31_3 1_555 1_555
H21_7 C41_7 1_555 1_555
C44_3 C40_3 1_555 1_555
H24_3 C44_3 1_555 1_555
C46_7 C45_7 1_555 1_555
O12 C19_3 1_555 1_555
C34_3 C37_3 1_555 1_555
C40_3 C41_7 1_555 1_555
C44_3 C45_7 1_555 1_555
O15 C1_3 1_555 1_555
C1_3 O2_3 1_555 1_555
C2_3 C1_3 1_555 1_555
C3_3 C2_3 1_555 1_555
H1_3 C3_3 1_555 1_555
C4_3 C3_3 1_555 1_555
H2_3 C4_3 1_555 1_555
C5_3 C4_3 1_555 1_555
C6_3 C5_3 1_555 1_555
H3_3 C6_3 1_555 1_555
C7_3 C2_3 1_555 1_555
H4_3 C7_3 1_555 1_555
C8_3 C5_3 1_555 1_555
C9_6 C8_3 1_555 1_555
H5_6 C9_6 1_555 1_555
C10_3 C8_3 1_555 1_555
H6_3 C10_3 1_555 1_555
C11_6 C10_3 1_555 1_555
C12_6 C11_6 1_555 1_555
C16_6 C15_6 1_555 1_555
Zn9_2 O16_2 1_555 1_555
O16_2 C16_6 1_555 1_555
C47_3 C12_6 1_555 1_555
H25_3 C47_3 1_555 1_555
C50_3 C15_6 1_555 1_555
H28_3 C50_3 1_555 1_555
C6_3 C7_3 1_555 1_555
C47_3 C50_3 1_555 1_555
O4_2 C16_7 1_555 1_555
H5_7 C9_7 1_555 1_555
C12_7 C11_7 1_555 1_555
C13_3 C12_7 1_555 1_555
H7_3 C13_3 1_555 1_555
C14_3 C13_3 1_555 1_555
H8_3 C14_3 1_555 1_555
C15_7 C14_3 1_555 1_555
C16_7 C15_7 1_555 1_555
Zn7_2 O4_2 1_555 1_555
C17_3 O7_3 1_555 1_555
C20_3 C17_3 1_555 1_555
C23_3 C20_3 1_555 1_555
H9_3 C23_3 1_555 1_555
C26_3 C23_3 1_555 1_555
H12_3 C26_3 1_555 1_555
C29_3 C26_3 1_555 1_555
C32_3 C29_3 1_555 1_555
H15_3 C32_3 1_555 1_555
C35_3 C20_3 1_555 1_555
H18_3 C35_3 1_555 1_555
C38_3 C9_7 1_555 1_555
C42_3 C11_7 1_555 1_555
H22_3 C42_3 1_555 1_555
O13 C17_3 1_555 1_555
C29_3 C38_3 1_555 1_555
C32_3 C35_3 1_555 1_555
C38_3 C42_3 1_555 1_555
O21_2 Zn11 1_555 1_555
Zn12_2 O6_3 1_555 1_555
O12_2 Zn12_2 1_555 1_555
O19_2 C54_8 1_555 1_555
C19_4 O9_4 1_555 1_555
C22_4 C19_4 1_555 1_555
C25_4 C22_4 1_555 1_555
H11_4 C25_4 1_555 1_555
C28_4 C25_4 1_555 1_555
H14_4 C28_4 1_555 1_555
C31_4 C28_4 1_555 1_555
C34_4 C31_4 1_555 1_555
H17_4 C34_4 1_555 1_555
C37_4 C22_4 1_555 1_555
H20_4 C37_4 1_555 1_555
C40_4 C31_4 1_555 1_555
H21_8 C41_8 1_555 1_555
C44_4 C40_4 1_555 1_555
H24_4 C44_4 1_555 1_555
C46_8 C45_8 1_555 1_555
C48_4 C46_8 1_555 1_555
H26_4 C48_4 1_555 1_555
C51_4 C48_4 1_555 1_555
H29_4 C51_4 1_555 1_555
C53_8 C51_4 1_555 1_555
C54_8 C53_8 1_555 1_555
O12_2 C19_4 1_555 1_555
C34_4 C37_4 1_555 1_555
C40_4 C41_8 1_555 1_555
C44_4 C45_8 1_555 1_555
Zn7_2 O6_4 1_555 1_555
O15_2 Zn7_2 1_555 1_555
O6_3 Zn9_2 1_555 1_555
O13_2 Zn9_2 1_555 1_555
Zn10_2 O6_4 1_555 1_555
O2_4 Zn10_2 1_555 1_555
O15_2 C1_4 1_555 1_555
C1_4 O2_4 1_555 1_555
C2_4 C1_4 1_555 1_555
C3_4 C2_4 1_555 1_555
H1_4 C3_4 1_555 1_555
C4_4 C3_4 1_555 1_555
H2_4 C4_4 1_555 1_555
C5_4 C4_4 1_555 1_555
C6_4 C5_4 1_555 1_555
H3_4 C6_4 1_555 1_555
C7_4 C2_4 1_555 1_555
H4_4 C7_4 1_555 1_555
C8_4 C5_4 1_555 1_555
C9_8 C8_4 1_555 1_555
H5_8 C9_8 1_555 1_555
C10_4 C8_4 1_555 1_555
H6_4 C10_4 1_555 1_555
C11_8 C10_4 1_555 1_555
C12_8 C11_8 1_555 1_555
O8_4 C18_4 1_555 1_555
O11_4 Zn10_2 1_555 1_555
O21_2 C54_9 1_555 1_555
C18_4 O11_4 1_555 1_555
C21_4 C18_4 1_555 1_555
C24_4 C21_4 1_555 1_555
H10_4 C24_4 1_555 1_555
C27_4 C24_4 1_555 1_555
H13_4 C27_4 1_555 1_555
C30_4 C27_4 1_555 1_555
C33_4 C30_4 1_555 1_555
H16_4 C33_4 1_555 1_555
C36_4 C21_4 1_555 1_555
H19_4 C36_4 1_555 1_555
C39_4 C30_4 1_555 1_555
C41_9 C39_4 1_555 1_555
H21_9 C41_9 1_555 1_555
C43_4 C39_4 1_555 1_555
H23_4 C43_4 1_555 1_555
C45_9 C43_4 1_555 1_555
C46_9 C45_9 1_555 1_555
C49_4 C46_9 1_555 1_555
H27_4 C49_4 1_555 1_555
C52_4 C49_4 1_555 1_555
H30_4 C52_4 1_555 1_555
C54_9 C53_9 1_555 1_555
C6_4 C7_4 1_555 1_555
C33_4 C36_4 1_555 1_555
C52_4 C53_9 1_555 1_555
C16_8 C15_8 1_555 1_555
O20_2 C16_8 1_555 1_555
C50_4 C15_8 1_555 1_555
H28_4 C50_4 1_555 1_555
C47_4 C50_4 1_555 1_555
H5_9 C9_9 1_555 1_555
C12_9 C11_9 1_555 1_555
O7_4 Zn12_2 1_555 1_555
C17_4 O7_4 1_555 1_555
C20_4 C17_4 1_555 1_555
C23_4 C20_4 1_555 1_555
H9_4 C23_4 1_555 1_555
C26_4 C23_4 1_555 1_555
H12_4 C26_4 1_555 1_555
C29_4 C26_4 1_555 1_555
C32_4 C29_4 1_555 1_555
H15_4 C32_4 1_555 1_555
C35_4 C20_4 1_555 1_555
H18_4 C35_4 1_555 1_555
C38_4 C9_9 1_555 1_555
C42_4 C11_9 1_555 1_555
H22_4 C42_4 1_555 1_555
O13_2 C17_4 1_555 1_555
C29_4 C38_4 1_555 1_555
C32_4 C35_4 1_555 1_555
C38_4 C42_4 1_555 1_555
O22_2 C16_9 1_555 1_555
C14_4 C13_4 1_555 1_555
H8_4 C14_4 1_555 1_555
C15_9 C14_4 1_555 1_555
C16_9 C15_9 1_555 1_555

#END
