
###############################################################################
#
# This file contains modified crystal structure data generated from the
# MOF subset of the Cambridge Structural Database (CSD) v543 
# hosted by the Cambridge Crystallographic Data Centre (CCDC).
#
# This work is licensed under the Creative Commons
# Attribution-NonCommercial-ShareAlike 4.0 International License.
# To view a copy of this license, visit
# http://creativecommons.org/licenses/by-nc-sa/4.0/
# or send a letter to
# Creative Commons, PO Box 1866, Mountain View, CA 94042, USA.
#
# CIF created using the CSD Python API on 29 September 2022
# The structure has been converted into the P1 space group
# The structure has a 3D framework
# The original CSD entry VOMNIW is in the triclinic crystal system
# The framework has been calculated to contain at least 10.0% void space
# The void calculation uses a probe of radius 1.32A, grid spacing 0.4
#
###############################################################################

data_VOMNIW
_chemical_formula_moiety         '(C44 H32 Ag2 N12 O6 S4)n'
_symmetry_cell_setting           triclinic
_symmetry_space_group_name_H-M   'P 1'
_symmetry_Int_Tables_number      1
_space_group_name_Hall           'P 1'
loop_
_symmetry_equiv_pos_site_id
_symmetry_equiv_pos_as_xyz
1 x,y,z
_cell_length_a                   7.8173(10)
_cell_length_b                   9.3157(11)
_cell_length_c                   18.564(2)
_cell_angle_alpha                95.834(2)
_cell_angle_beta                 96.049(2)
_cell_angle_gamma                92.507(2)
_cell_volume                     1335.38
loop_
_atom_site_label
_atom_site_type_symbol
_atom_site_fract_x
_atom_site_fract_y
_atom_site_fract_z
_atom_site_U_iso_or_equiv
_atom_site_thermal_displace_type
H9 H 0.0227 0.8142 0.4293 0.0730 Uiso
H10 H 0.0757 0.8586 0.5126 0.0730 Uiso
C16 C 0.0329(8) 0.6047(7) 0.5581(4) 0.0577 Uani
H11 H 0.0566 0.6742 0.5979 0.0700 Uiso
C17 C 0.0399(8) 0.4596(7) 0.5683(4) 0.0574 Uani
H12 H 0.0661 0.4332 0.6150 0.0690 Uiso
C23 C 0.1852(7) 0.1302(6) 0.5160(4) 0.0454 Uani
C24 C 0.0101(8) 0.1959(7) 0.5224(4) 0.0602 Uani
C25 C 0.0081(7) 0.3530(6) 0.5097(4) 0.0451 Uani
O5 O 0.2656(6) 0.0956(5) 0.5723(2) 0.0580 Uani
O6 O 0.2338(5) 0.1118(5) 0.4539(3) 0.0584 Uani
Ag9 Ag 0.47886(6) 0.00928(5) 0.42336(2) 0.0493 Uani
Ag12 Ag 0.52114(6) 0.99072(5) 0.57664(2) 0.0493 Uani
H3 H 0.3385 0.0057 0.2464 0.0670 Uiso
N13 N 0.5350(7) 0.2363(5) 0.3711(3) 0.0544 Uani
C1 C 0.2317(8) 0.6299(7) 0.2555(4) 0.0514 Uani
H1 H 0.2012 0.5337 0.2598 0.0620 Uiso
C2 C 0.2290(9) 0.8243(7) 0.1915(4) 0.0563 Uani
H2 H 0.1996 0.8658 0.1487 0.0680 Uiso
C3 C 0.3135(9) 0.9084(7) 0.2501(4) 0.0559 Uani
C4 C 0.3238(7) 0.7144(6) 0.3148(3) 0.0403 Uani
C5 C 0.4806(7) 0.4829(6) 0.3632(3) 0.0428 Uani
C6 C 0.4602(8) 0.3558(6) 0.3941(3) 0.0496 Uani
H4 H 0.3921 0.3532 0.4321 0.0600 Uiso
C7 C 0.6302(8) 0.2441(7) 0.3155(4) 0.0510 Uani
H5 H 0.6826 0.1623 0.2975 0.0620 Uiso
C8 C 0.6519(7) 0.3724(7) 0.2845(3) 0.0444 Uani
C9 C 0.6832(7) 0.4879(6) 0.1570(3) 0.0424 Uani
C10 C 0.5084(8) 0.4659(7) 0.1356(3) 0.0465 Uani
H6 H 0.4472 0.3920 0.1536 0.0560 Uiso
C11 C 0.5179(8) 0.6483(7) 0.0656(4) 0.0599 Uani
H7 H 0.4632 0.7099 0.0353 0.0720 Uiso
C12 C 0.6921(9) 0.6667(8) 0.0829(5) 0.0828 Uani
H8 H 0.7534 0.7373 0.0626 0.0990 Uiso
C13 C 0.8148(7) 0.8698(6) 0.4840(4) 0.0454 Uani
C14 C 0.9899(8) 0.8041(7) 0.4776(4) 0.0602 Uani
C15 C 0.9919(7) 0.6470(6) 0.4903(4) 0.0451 Uani
N1 N 0.1871(6) 0.6841(6) 0.1936(3) 0.0511 Uani
N2 N 0.3618(6) 0.8538(5) 0.3135(3) 0.0444 Uani
N3 N 0.5793(6) 0.4933(5) 0.3084(3) 0.0434 Uani
N5 N 0.4249(6) 0.5474(6) 0.0901(3) 0.0488 Uani
O1 O 0.7344(6) 0.9044(5) 0.4277(2) 0.0580 Uani
O2 O 0.7662(5) 0.8882(5) 0.5461(3) 0.0584 Uani
S1 S 0.3846(2) 0.64030(17) 0.39785(9) 0.0537 Uani
S2 S 0.7948(2) 0.37790(19) 0.21696(9) 0.0538 Uani
Ag1 Ag 0.09496(6) 0.53764(5) 0.07376(3) 0.0509 Uani
N6 N 0.7766(7) 0.5843(7) 0.1289(4) 0.0788 Uani
O3 O 0.0262(6) 0.3043(5) 0.0871(2) 0.0583 Uani
H17 H 0.9773 0.1858 0.5707 0.0730 Uiso
H18 H 0.9243 0.1414 0.4874 0.0730 Uiso
C26 C 0.9671(8) 0.3953(7) 0.4419(4) 0.0577 Uani
H19 H 0.9434 0.3258 0.4021 0.0700 Uiso
C27 C 0.9601(8) 0.5404(7) 0.4317(4) 0.0574 Uani
H20 H 0.9339 0.5668 0.3850 0.0690 Uiso
O13 O 0.1257(6) 0.7464(5) 0.0199(2) 0.0710 Uani
O4 O 0.8743(6) 0.2536(5) 0.9801(2) 0.0710 Uani
Ag6 Ag 0.90504(6) 0.46236(5) 0.92624(3) 0.0509 Uani
O7 O 0.9738(6) 0.6957(5) 0.9129(2) 0.0583 Uani
C33 C 0.7683(8) 0.3701(7) 0.7445(4) 0.0514 Uani
H25 H 0.7988 0.4663 0.7402 0.0620 Uiso
C34 C 0.7710(9) 0.1757(7) 0.8085(4) 0.0563 Uani
H26 H 0.8004 0.1342 0.8513 0.0680 Uiso
C35 C 0.6865(9) 0.0916(7) 0.7499(4) 0.0559 Uani
C36 C 0.6762(7) 0.2856(6) 0.6852(3) 0.0403 Uani
C37 C 0.5194(7) 0.5171(6) 0.6368(3) 0.0428 Uani
C38 C 0.5398(8) 0.6442(6) 0.6059(3) 0.0496 Uani
H28 H 0.6079 0.6468 0.5679 0.0600 Uiso
C39 C 0.3698(8) 0.7559(7) 0.6845(4) 0.0510 Uani
H29 H 0.3174 0.8377 0.7025 0.0620 Uiso
C40 C 0.3481(7) 0.6276(7) 0.7155(3) 0.0444 Uani
C41 C 0.3168(7) 0.5121(6) 0.8430(3) 0.0424 Uani
C42 C 0.4916(8) 0.5341(7) 0.8644(3) 0.0465 Uani
H30 H 0.5528 0.6080 0.8464 0.0560 Uiso
C43 C 0.4821(8) 0.3517(7) 0.9344(4) 0.0599 Uani
H31 H 0.5368 0.2901 0.9647 0.0720 Uiso
C44 C 0.3079(9) 0.3333(8) 0.9171(5) 0.0828 Uani
H32 H 0.2466 0.2627 0.9374 0.0990 Uiso
N7 N 0.8129(6) 0.3159(6) 0.8064(3) 0.0511 Uani
N8 N 0.6382(6) 0.1462(5) 0.6865(3) 0.0444 Uani
N9 N 0.4207(6) 0.5067(5) 0.6916(3) 0.0434 Uani
N10 N 0.4650(7) 0.7637(5) 0.6289(3) 0.0544 Uani
N11 N 0.5751(6) 0.4526(6) 0.9099(3) 0.0488 Uani
S3 S 0.6154(2) 0.35970(17) 0.60215(9) 0.0537 Uani
S4 S 0.2052(2) 0.62210(19) 0.78304(9) 0.0538 Uani
N12 N 0.2234(7) 0.4157(7) 0.8711(4) 0.0788 Uani
H27 H 0.6615 0.9943 0.7536 0.0670 Uiso
C18 C 0.9211(6) 0.2268(6) 0.0431(3) 0.0350 Uani
C19 C 0.8512(6) 0.0856(6) 0.0677(3) 0.0385 Uani
H13 H 0.9280 0.0097 0.0559 0.0460 Uiso
H14 H 0.8512 0.0978 0.1203 0.0460 Uiso
C20 C 0.6691(7) 0.0381(6) 0.0327(3) 0.0354 Uani
C21 C 0.5269(7) 0.0728(6) 0.0691(3) 0.0374 Uani
H15 H 0.5435 0.1217 0.1158 0.0450 Uiso
C32 C 0.3596(7) 0.0349(6) 0.0363(3) 0.0405 Uani
H24 H 0.2662 0.0592 0.0614 0.0490 Uiso
C22 C 0.6404(7) 0.9651(6) 0.9637(3) 0.0405 Uani
H16 H 0.7338 0.9408 0.9386 0.0490 Uiso
C28 C 0.0789(6) 0.7732(6) 0.9569(3) 0.0350 Uani
C29 C 0.1488(6) 0.9144(6) 0.9323(3) 0.0385 Uani
H21 H 0.0720 0.9903 0.9441 0.0460 Uiso
H22 H 0.1488 0.9022 0.8797 0.0460 Uiso
C30 C 0.3309(7) 0.9619(6) 0.9673(3) 0.0354 Uani
C31 C 0.4731(7) 0.9272(6) 0.9309(3) 0.0374 Uani
H23 H 0.4565 0.8783 0.8842 0.0450 Uiso
loop_
_atom_site_aniso_label
_atom_site_aniso_U_11
_atom_site_aniso_U_22
_atom_site_aniso_U_33
_atom_site_aniso_U_23
_atom_site_aniso_U_13
_atom_site_aniso_U_12
C16 0.057 0.038 0.071 -0.006 -0.017 0.007
C17 0.063 0.051 0.059 0.014 -0.003 0.016
C23 0.043 0.023 0.071 0.009 0.004 0.006
C24 0.044 0.042 0.097 0.016 0.008 0.009
C25 0.034 0.027 0.074 0.008 0 0.007
O5 0.056 0.055 0.061 0.002 -0.003 0.014
O6 0.057 0.054 0.069 0.024 0.007 0.016
Ag9 0.0588 0.0414 0.0481 0.0097 -0.0019 0.0138
Ag12 0.0588 0.0414 0.0481 0.0097 -0.0019 0.0138
N13 0.054 0.038 0.076 0.024 0.009 0.012
C1 0.054 0.039 0.06 0.001 0.008 -0.004
C2 0.072 0.043 0.05 0.006 -0.014 0.006
C3 0.075 0.034 0.055 0.007 -0.014 0.006
C4 0.049 0.028 0.046 0.007 0.008 0.011
C5 0.05 0.037 0.042 0.01 0.002 0.004
C6 0.062 0.037 0.052 0.013 0.008 0.003
C7 0.046 0.037 0.071 0.011 0.003 0.011
C8 0.039 0.044 0.051 0.014 0 0.004
C9 0.043 0.038 0.049 0.009 0.011 0.009
C10 0.047 0.045 0.049 0.014 0.006 -0.003
C11 0.055 0.054 0.076 0.026 0.01 0.013
C12 0.054 0.058 0.149 0.061 0.02 0.008
C13 0.043 0.023 0.071 0.009 0.004 0.006
C14 0.044 0.042 0.097 0.016 0.008 0.009
C15 0.034 0.027 0.074 0.008 0 0.007
N1 0.052 0.047 0.05 0.003 -0.012 0.001
N2 0.057 0.03 0.045 0.001 0 0.009
N3 0.046 0.04 0.044 0.01 0 0
N5 0.049 0.048 0.05 0.011 0.002 0.006
O1 0.056 0.055 0.061 0.002 -0.003 0.014
O2 0.057 0.054 0.069 0.024 0.007 0.016
S1 0.0791 0.0398 0.0443 0.0074 0.0118 0.0088
S2 0.044 0.0592 0.0611 0.0159 0.005 0.0161
Ag1 0.0526 0.0395 0.0569 0.0123 -0.0116 -0.0131
N6 0.043 0.061 0.14 0.047 0.012 -0.001
O3 0.069 0.054 0.046 0.014 -0.017 -0.026
C26 0.057 0.038 0.071 -0.006 -0.017 0.007
C27 0.063 0.051 0.059 0.014 -0.003 0.016
O13 0.085 0.061 0.061 0.033 -0.029 -0.035
O4 0.085 0.061 0.061 0.033 -0.029 -0.035
Ag6 0.0526 0.0395 0.0569 0.0123 -0.0116 -0.0131
O7 0.069 0.054 0.046 0.014 -0.017 -0.026
C33 0.054 0.039 0.06 0.001 0.008 -0.004
C34 0.072 0.043 0.05 0.006 -0.014 0.006
C35 0.075 0.034 0.055 0.007 -0.014 0.006
C36 0.049 0.028 0.046 0.007 0.008 0.011
C37 0.05 0.037 0.042 0.01 0.002 0.004
C38 0.062 0.037 0.052 0.013 0.008 0.003
C39 0.046 0.037 0.071 0.011 0.003 0.011
C40 0.039 0.044 0.051 0.014 0 0.004
C41 0.043 0.038 0.049 0.009 0.011 0.009
C42 0.047 0.045 0.049 0.014 0.006 -0.003
C43 0.055 0.054 0.076 0.026 0.01 0.013
C44 0.054 0.058 0.149 0.061 0.02 0.008
N7 0.052 0.047 0.05 0.003 -0.012 0.001
N8 0.057 0.03 0.045 0.001 0 0.009
N9 0.046 0.04 0.044 0.01 0 0
N10 0.054 0.038 0.076 0.024 0.009 0.012
N11 0.049 0.048 0.05 0.011 0.002 0.006
S3 0.0791 0.0398 0.0443 0.0074 0.0118 0.0088
S4 0.044 0.0592 0.0611 0.0159 0.005 0.0161
N12 0.043 0.061 0.14 0.047 0.012 -0.001
C18 0.031 0.028 0.046 0.011 0 -0.006
C19 0.039 0.031 0.047 0.014 0.003 0.001
C20 0.037 0.025 0.045 0.013 0.002 -0.006
C21 0.039 0.031 0.041 0.003 0.002 -0.005
C32 0.036 0.037 0.05 0.005 0.012 0
C22 0.036 0.037 0.05 0.005 0.012 0
C28 0.031 0.028 0.046 0.011 0 -0.006
C29 0.039 0.031 0.047 0.014 0.003 0.001
C30 0.037 0.025 0.045 0.013 0.002 -0.006
C31 0.039 0.031 0.041 0.003 0.002 -0.005
loop_
_geom_bond_atom_site_label_1
_geom_bond_atom_site_label_2
_geom_bond_site_symmetry_1
_geom_bond_site_symmetry_2
H11 C16 1_555 1_555
C17 C16 1_555 1_555
H12 C17 1_555 1_555
C23 C24 1_555 1_555
C25 C17 1_555 1_555
O5 C23 1_555 1_555
O6 C23 1_555 1_555
Ag9 O6 1_555 1_555
C24 C25 1_555 1_555
N13 Ag9 1_555 1_555
C1 H1 1_555 1_555
C2 H2 1_555 1_555
C3 C2 1_555 1_555
C4 C1 1_555 1_555
C5 C6 1_555 1_555
C6 H4 1_555 1_555
C7 H5 1_555 1_555
C8 C7 1_555 1_555
C9 C10 1_555 1_555
C10 H6 1_555 1_555
C11 H7 1_555 1_555
C12 C11 1_555 1_555
H8 C12 1_555 1_555
C13 C14 1_555 1_555
C15 C14 1_555 1_555
N1 C1 1_555 1_555
N2 C3 1_555 1_555
N3 C5 1_555 1_555
N13 C6 1_555 1_555
N5 C10 1_555 1_555
O1 C13 1_555 1_555
O2 C13 1_555 1_555
S1 C4 1_555 1_555
S2 C8 1_555 1_555
Ag1 N1 1_555 1_555
N6 C9 1_555 1_555
O3 Ag1 1_555 1_555
H19 C26 1_555 1_555
C27 C15 1_555 1_555
H20 C27 1_555 1_555
Ag12 O2 1_555 1_555
O13 Ag1 1_555 1_555
C2 N1 1_555 1_555
C4 N2 1_555 1_555
C5 S1 1_555 1_555
C7 N13 1_555 1_555
C8 N3 1_555 1_555
C9 S2 1_555 1_555
C11 N5 1_555 1_555
C12 N6 1_555 1_555
N5 Ag1 1_555 1_555
C26 C27 1_555 1_555
O4 Ag6 1_555 1_555
C33 H25 1_555 1_555
C34 H26 1_555 1_555
C35 C34 1_555 1_555
C36 C33 1_555 1_555
C37 C38 1_555 1_555
C38 H28 1_555 1_555
C39 H29 1_555 1_555
C40 C39 1_555 1_555
C41 C42 1_555 1_555
C42 H30 1_555 1_555
C43 H31 1_555 1_555
C44 C43 1_555 1_555
H32 C44 1_555 1_555
N7 C33 1_555 1_555
N8 C35 1_555 1_555
N9 C37 1_555 1_555
N10 C38 1_555 1_555
N11 C42 1_555 1_555
S3 C36 1_555 1_555
S4 C40 1_555 1_555
Ag6 O7 1_555 1_555
N12 C41 1_555 1_555
Ag12 N10 1_555 1_555
C34 N7 1_555 1_555
C36 N8 1_555 1_555
C37 S3 1_555 1_555
C39 N10 1_555 1_555
C40 N9 1_555 1_555
C41 S4 1_555 1_555
C43 N11 1_555 1_555
C44 N12 1_555 1_555
N7 Ag6 1_555 1_555
N11 Ag6 1_555 1_555
C19 C18 1_555 1_555
H13 C19 1_555 1_555
H14 C19 1_555 1_555
C20 C19 1_555 1_555
C21 C20 1_555 1_555
H15 C21 1_555 1_555
C32 C21 1_555 1_555
H24 C32 1_555 1_555
H16 C22 1_555 1_555
C28 C29 1_555 1_555
C29 H21 1_555 1_555
H22 C29 1_555 1_555
C30 C29 1_555 1_555
C31 C22 1_555 1_555
H23 C31 1_555 1_555
C30 C31 1_555 1_555

#END
