
###############################################################################
#
# This file contains modified crystal structure data generated from the
# MOF subset of the Cambridge Structural Database (CSD) v543 
# hosted by the Cambridge Crystallographic Data Centre (CCDC).
#
# This work is licensed under the Creative Commons
# Attribution-NonCommercial-ShareAlike 4.0 International License.
# To view a copy of this license, visit
# http://creativecommons.org/licenses/by-nc-sa/4.0/
# or send a letter to
# Creative Commons, PO Box 1866, Mountain View, CA 94042, USA.
#
# CIF created using the CSD Python API on 29 September 2022
# The structure has been converted into the P1 space group
# The structure has a 3D framework
# The original CSD entry VOMNOC is in the monoclinic crystal system
# The framework has been calculated to contain at least 10.0% void space
# The void calculation uses a probe of radius 1.32A, grid spacing 0.4
#
###############################################################################

data_VOMNOC
_chemical_formula_moiety         '(C72 H44 Ag4 N24 O8 S8)n'
_symmetry_cell_setting           triclinic
_symmetry_space_group_name_H-M   'P 1'
_symmetry_Int_Tables_number      1
_space_group_name_Hall           'P 1'
loop_
_symmetry_equiv_pos_site_id
_symmetry_equiv_pos_as_xyz
1 x,y,z
_cell_length_a                   13.116(5)
_cell_length_b                   16.111(6)
_cell_length_c                   10.876(4)
_cell_angle_alpha                90
_cell_angle_beta                 112.529(7)
_cell_angle_gamma                90
_cell_volume                     2122.84
loop_
_atom_site_label
_atom_site_type_symbol
_atom_site_fract_x
_atom_site_fract_y
_atom_site_fract_z
Ag1 Ag 0.46040(2) 0.079943(17) 0.56772(2)
O2 O 0.2834(2) 0.0153(2) 0.4419(2)
H2 H 0.6413 0.0326 0.8497
C8 C 0.0038(3) 0.0820(2) 0.1209(3)
C10 C 0.0961(3) 0.0611(2) 0.2270(3)
H5 H 0.1178 0.0930 0.3040
O6 O 0.68184(19) 0.09025(17) 0.6656(2)
N13 N 0.4565(2) 0.19350(17) 0.7404(2)
N16 N 0.4545(2) 0.18079(16) 0.4133(2)
S2 S 0.75965(8) 0.67857(6) 0.86936(8)
O1 O 0.31816(19) 0.90975(17) 0.3344(2)
N1 N 0.75772(19) 0.82269(16) 0.9898(2)
N2 N 0.4936(2) 0.98995(16) 0.7437(2)
C3 C 0.1596(2) 0.99181(19) 0.2220(2)
C5 C 0.5871(2) 0.9956(2) 0.8504(3)
C7 C 0.2627(2) 0.9705(2) 0.3422(3)
N4 N 0.5323(2) 0.89400(18) 0.9703(2)
C9 C 0.8182(2) 0.7576(2) 0.9863(3)
C11 C 0.6055(2) 0.94794(19) 0.9622(2)
C12 C 0.4396(3) 0.8892(2) 0.8629(3)
H6 H 0.3855 0.8520 0.8636
C14 C 0.4193(3) 0.9363(2) 0.7502(3)
H8 H 0.3526 0.9304 0.6779
C15 C 0.6363(3) 0.72517(19) 0.7604(2)
N5 N 0.5435(2) 0.69350(17) 0.7596(2)
C16 C 0.4520(3) 0.7239(2) 0.6689(3)
H9 H 0.3846 0.7024 0.6634
N6 N 0.5455(2) 0.81921(16) 0.5867(2)
C17 C 0.6382(3) 0.7885(2) 0.6752(3)
H10 H 0.7056 0.8097 0.6802
C18 C 0.4519(3) 0.7856(2) 0.5828(3)
H11 H 0.3851 0.8044 0.5204
C21 C 0.1275(2) 0.9454(2) 0.1094(3)
H12 H 0.1695 0.8996 0.1061
Ag4 Ag 0.53960(2) 0.579943(17) 0.93228(2)
Ag5 Ag 0.53960(2) 0.920057(17) 0.43228(2)
C6 C 0.8725(2) 0.0546(2) 0.8906(3)
H3 H 0.8305 0.1004 0.8939
C20 C 0.8404(2) 0.00819(19) 0.7780(2)
C22 C 0.7373(2) 0.0295(2) 0.6578(3)
S4 S 0.24035(8) 0.32143(6) 0.13064(8)
N7 N 0.24228(19) 0.17731(16) 0.0102(2)
N8 N 0.5064(2) 0.01005(16) 0.2563(2)
C27 C 0.4129(2) 0.0044(2) 0.1496(3)
N10 N 0.4677(2) 0.10600(18) 0.0297(2)
C28 C 0.1818(2) 0.2424(2) 0.0137(3)
C29 C 0.3945(2) 0.05206(19) 0.0378(2)
C30 C 0.5604(3) 0.1108(2) 0.1371(3)
H17 H 0.6145 0.1480 0.1364
C32 C 0.5807(3) 0.0637(2) 0.2498(3)
H19 H 0.6474 0.0696 0.3221
C33 C 0.3637(3) 0.27483(19) 0.2396(2)
N11 N 0.4565(2) 0.30650(17) 0.2404(2)
C34 C 0.5480(3) 0.2761(2) 0.3311(3)
H20 H 0.6154 0.2976 0.3366
C35 C 0.3618(3) 0.2115(2) 0.3248(3)
H21 H 0.2944 0.1903 0.3198
C36 C 0.5481(3) 0.2144(2) 0.4172(3)
H22 H 0.6149 0.1956 0.4796
Ag6 Ag 0.46040(2) 0.420057(17) 0.06772(2)
O4 O 0.7166(2) 0.9847(2) 0.5581(2)
C23 C 0.9962(3) 0.9180(2) 0.8791(3)
C24 C 0.9039(3) 0.9389(2) 0.7730(3)
H14 H 0.8822 0.9070 0.6960
H16 H 0.3587 0.9674 0.1503
N14 N 0.5435(2) 0.80650(17) 0.2596(2)
S3 S 0.72961(7) 0.53722(6) 0.60274(7)
S4_2 S 0.75965(8) 0.82143(6) 0.36936(8)
N7_2 N 0.75772(19) 0.67731(16) 0.4898(2)
N8_2 N 0.4936(2) 0.51005(16) 0.2437(2)
C25 C 0.8047(2) 0.6233(2) 0.5869(2)
C26 C 0.9248(3) 0.7529(2) 0.5771(4)
H15 H 0.9652 0.7987 0.5695
C27_2 C 0.5871(2) 0.5044(2) 0.3504(3)
H16_2 H 0.6413 0.4674 0.3497
N9 N 0.9706(2) 0.6991(2) 0.6747(3)
N10_2 N 0.5323(2) 0.60600(18) 0.4703(2)
C28_2 C 0.8182(2) 0.7424(2) 0.4863(3)
C29_2 C 0.6055(2) 0.55206(19) 0.4622(2)
C30_2 C 0.4396(3) 0.6108(2) 0.3629(3)
H17_2 H 0.3855 0.6480 0.3636
C31 C 0.9115(3) 0.6344(2) 0.6805(3)
H18 H 0.9415 0.5956 0.7481
C32_2 C 0.4193(3) 0.5637(2) 0.2502(3)
H19_2 H 0.3526 0.5696 0.1779
C33_2 C 0.6363(3) 0.77483(19) 0.2604(2)
C34_2 C 0.4520(3) 0.7761(2) 0.1689(3)
H20_2 H 0.3846 0.7976 0.1634
N12 N 0.5455(2) 0.68079(16) 0.0867(2)
C35_2 C 0.6382(3) 0.7115(2) 0.1752(3)
H21_2 H 0.7056 0.6903 0.1802
C36_2 C 0.4519(3) 0.7144(2) 0.0828(3)
H22_2 H 0.3851 0.6956 0.0204
O5 O 0.68184(19) 0.40975(17) 0.1656(2)
C2 C 0.0314(2) 0.53458(18) 0.4967(2)
C6_2 C 0.1275(2) 0.5546(2) 0.6094(3)
H3_2 H 0.1695 0.6004 0.6061
H4 H 0.0368 0.6283 0.3740
O3 O 0.31816(19) 0.59025(17) 0.8344(2)
O4_2 O 0.2834(2) 0.4847(2) 0.9419(2)
C20_2 C 0.1596(2) 0.50819(19) 0.7220(2)
C22_2 C 0.2627(2) 0.5295(2) 0.8422(3)
C23_2 C 0.0038(3) 0.4180(2) 0.6209(3)
C24_2 C 0.0961(3) 0.4389(2) 0.7270(3)
H14_2 H 0.1178 0.4070 0.8040
N15 N 0.4545(2) 0.31921(16) 0.9133(2)
O2_2 O 0.7166(2) 0.5153(2) 0.0581(2)
C3_2 C 0.8404(2) 0.49181(19) 0.2780(2)
C7_2 C 0.7373(2) 0.4705(2) 0.1578(3)
C8_2 C 0.9962(3) 0.5820(2) 0.3791(3)
C10_2 C 0.9039(3) 0.5611(2) 0.2730(3)
H5_2 H 0.8822 0.5930 0.1960
C19 C 0.9686(2) 0.46542(18) 0.5033(2)
C21_2 C 0.8725(2) 0.4454(2) 0.3906(3)
H12_2 H 0.8305 0.3996 0.3939
H13 H 0.9632 0.3717 0.6260
S1 S 0.27039(7) 0.46278(6) 0.39726(7)
S2_2 S 0.24035(8) 0.17857(6) 0.63064(8)
N1_2 N 0.24228(19) 0.32269(16) 0.5102(2)
N2_2 N 0.5064(2) 0.48995(16) 0.7563(2)
C1 C 0.1953(2) 0.3767(2) 0.4131(2)
C4 C 0.0752(3) 0.2471(2) 0.4229(4)
H1 H 0.0348 0.2013 0.4305
C5_2 C 0.4129(2) 0.4956(2) 0.6496(3)
H2_2 H 0.3587 0.5326 0.6503
N3 N 0.0294(2) 0.3009(2) 0.3253(3)
N4_2 N 0.4677(2) 0.39400(18) 0.5297(2)
C9_2 C 0.1818(2) 0.2576(2) 0.5137(3)
C11_2 C 0.3945(2) 0.44794(19) 0.5378(2)
C12_2 C 0.5604(3) 0.3892(2) 0.6371(3)
H6_2 H 0.6145 0.3520 0.6364
C13 C 0.0885(3) 0.3656(2) 0.3195(3)
H7 H 0.0585 0.4044 0.2519
C14_2 C 0.5807(3) 0.4363(2) 0.7498(3)
H8_2 H 0.6474 0.4304 0.8221
C15_2 C 0.3637(3) 0.22517(19) 0.7396(2)
C16_2 C 0.5480(3) 0.2239(2) 0.8311(3)
H9_2 H 0.6154 0.2024 0.8366
C17_2 C 0.3618(3) 0.2885(2) 0.8248(3)
H10_2 H 0.2944 0.3097 0.8198
C18_2 C 0.5481(3) 0.2856(2) 0.9172(3)
H11_2 H 0.6149 0.3044 0.9796
S1_2 S 0.72961(7) 0.96278(6) 0.10274(7)
C1_2 C 0.8047(2) 0.8767(2) 0.0869(2)
C4_2 C 0.9248(3) 0.7471(2) 0.0771(4)
H1_2 H 0.9652 0.7013 0.0695
N3_2 N 0.9706(2) 0.8009(2) 0.1747(3)
C13_2 C 0.9115(3) 0.8656(2) 0.1805(3)
H7_2 H 0.9415 0.9044 0.2481
C19_2 C 0.0314(2) 0.96542(18) 0.9967(2)
H13_2 H 0.0368 0.8717 0.8740
C2_2 C 0.9686(2) 0.03458(18) 0.0033(2)
H4_2 H 0.9632 0.1283 0.1260
S3_2 S 0.27039(7) 0.03722(6) 0.89726(7)
C25_2 C 0.1953(2) 0.1233(2) 0.9131(2)
C26_2 C 0.0752(3) 0.2529(2) 0.9229(4)
H15_2 H 0.0348 0.2987 0.9305
N9_2 N 0.0294(2) 0.1991(2) 0.8253(3)
C31_2 C 0.0885(3) 0.1344(2) 0.8195(3)
H18_2 H 0.0585 0.0956 0.7519
loop_
_geom_bond_atom_site_label_1
_geom_bond_atom_site_label_2
_geom_bond_site_symmetry_1
_geom_bond_site_symmetry_2
O2 Ag1 1_555 1_555
H5 C10 1_555 1_555
O6 Ag1 1_555 1_555
N13 Ag1 1_555 1_555
N16 Ag1 1_555 1_555
C8 C10 1_555 1_555
S2 C9 1_555 1_555
O1 C7 1_555 1_555
N2 C5 1_555 1_555
C3 C7 1_555 1_555
N4 C11 1_555 1_555
C9 N1 1_555 1_555
C12 N4 1_555 1_555
H6 C12 1_555 1_555
C14 N2 1_555 1_555
H8 C14 1_555 1_555
C15 S2 1_555 1_555
N5 C15 1_555 1_555
C16 N5 1_555 1_555
H9 C16 1_555 1_555
N6 C17 1_555 1_555
C17 C15 1_555 1_555
H10 C17 1_555 1_555
C18 C16 1_555 1_555
H11 C18 1_555 1_555
C21 C3 1_555 1_555
H12 C21 1_555 1_555
Ag4 N5 1_555 1_555
Ag5 O1 1_555 1_555
C5 C11 1_555 1_555
C12 C14 1_555 1_555
N6 C18 1_555 1_555
N6 Ag5 1_555 1_555
C6 H3 1_555 1_555
O6 C22 1_555 1_555
C20 C6 1_555 1_555
C22 C20 1_555 1_555
S4 C28 1_555 1_555
C27 N8 1_555 1_555
N10 C29 1_555 1_555
C28 N7 1_555 1_555
C30 N10 1_555 1_555
H17 C30 1_555 1_555
C32 N8 1_555 1_555
H19 C32 1_555 1_555
C33 S4 1_555 1_555
N11 C33 1_555 1_555
C34 N11 1_555 1_555
H20 C34 1_555 1_555
N16 C35 1_555 1_555
C35 C33 1_555 1_555
H21 C35 1_555 1_555
C36 C34 1_555 1_555
H22 C36 1_555 1_555
Ag6 N11 1_555 1_555
C27 C29 1_555 1_555
C30 C32 1_555 1_555
N16 C36 1_555 1_555
H14 C24 1_555 1_555
Ag5 O4 1_555 1_555
N14 Ag5 1_555 1_555
C23 C24 1_555 1_555
S3 C25 1_555 1_555
S4_2 C28_2 1_555 1_555
N7_2 C25 1_555 1_555
N8_2 Ag6 1_555 1_555
C25 C31 1_555 1_555
C26 H15 1_555 1_555
C27_2 N8_2 1_555 1_555
H16_2 C27_2 1_555 1_555
N9 C26 1_555 1_555
N10_2 C29_2 1_555 1_555
C28_2 N7_2 1_555 1_555
C29_2 S3 1_555 1_555
C30_2 N10_2 1_555 1_555
H17_2 C30_2 1_555 1_555
C31 N9 1_555 1_555
H18 C31 1_555 1_555
C32_2 N8_2 1_555 1_555
H19_2 C32_2 1_555 1_555
C33_2 S4_2 1_555 1_555
N14 C33_2 1_555 1_555
C34_2 N14 1_555 1_555
H20_2 C34_2 1_555 1_555
N12 C35_2 1_555 1_555
C35_2 C33_2 1_555 1_555
H21_2 C35_2 1_555 1_555
C36_2 C34_2 1_555 1_555
H22_2 C36_2 1_555 1_555
O5 Ag6 1_555 1_555
C26 C28_2 1_555 1_555
C27_2 C29_2 1_555 1_555
C30_2 C32_2 1_555 1_555
N12 C36_2 1_555 1_555
C2 C6_2 1_555 1_555
C6_2 H3_2 1_555 1_555
O3 C22_2 1_555 1_555
O4_2 C22_2 1_555 1_555
C20_2 C6_2 1_555 1_555
C22_2 C20_2 1_555 1_555
C24_2 C20_2 1_555 1_555
H14_2 C24_2 1_555 1_555
Ag4 O3 1_555 1_555
C23_2 C24_2 1_555 1_555
O5 C7_2 1_555 1_555
C3_2 C7_2 1_555 1_555
C7_2 O2_2 1_555 1_555
C10_2 C3_2 1_555 1_555
H5_2 C10_2 1_555 1_555
C21_2 C3_2 1_555 1_555
H12_2 C21_2 1_555 1_555
C8_2 C10_2 1_555 1_555
C19 C21_2 1_555 1_555
Ag4 N2_2 1_555 1_555
S1 C1 1_555 1_555
S2_2 C9_2 1_555 1_555
N1_2 C1 1_555 1_555
N2_2 C5_2 1_555 1_555
C1 C13 1_555 1_555
C4 H1 1_555 1_555
C5_2 H2_2 1_555 1_555
N3 C4 1_555 1_555
N4_2 C11_2 1_555 1_555
C9_2 N1_2 1_555 1_555
C11_2 S1 1_555 1_555
C12_2 N4_2 1_555 1_555
H6_2 C12_2 1_555 1_555
C13 N3 1_555 1_555
H7 C13 1_555 1_555
C14_2 N2_2 1_555 1_555
H8_2 C14_2 1_555 1_555
C15_2 S2_2 1_555 1_555
N13 C15_2 1_555 1_555
C16_2 N13 1_555 1_555
H9_2 C16_2 1_555 1_555
N15 C17_2 1_555 1_555
C17_2 C15_2 1_555 1_555
H10_2 C17_2 1_555 1_555
C18_2 C16_2 1_555 1_555
H11_2 C18_2 1_555 1_555
C4 C9_2 1_555 1_555
C5_2 C11_2 1_555 1_555
C12_2 C14_2 1_555 1_555
N15 C18_2 1_555 1_555
S1_2 C1_2 1_555 1_555
C1_2 C13_2 1_555 1_555
C4_2 H1_2 1_555 1_555
N3_2 C4_2 1_555 1_555
C13_2 N3_2 1_555 1_555
H7_2 C13_2 1_555 1_555
S3_2 C25_2 1_555 1_555
C25_2 C31_2 1_555 1_555
C26_2 H15_2 1_555 1_555
N9_2 C26_2 1_555 1_555
C31_2 N9_2 1_555 1_555
H18_2 C31_2 1_555 1_555

#END
