
###############################################################################
#
# This file contains modified crystal structure data generated from the
# MOF subset of the Cambridge Structural Database (CSD) v543 
# hosted by the Cambridge Crystallographic Data Centre (CCDC).
#
# This work is licensed under the Creative Commons
# Attribution-NonCommercial-ShareAlike 4.0 International License.
# To view a copy of this license, visit
# http://creativecommons.org/licenses/by-nc-sa/4.0/
# or send a letter to
# Creative Commons, PO Box 1866, Mountain View, CA 94042, USA.
#
# CIF created using the CSD Python API on 29 September 2022
# The structure has been converted into the P1 space group
# The structure has a 3D framework
# The original CSD entry VONBIK is in the monoclinic crystal system
# The framework has been calculated to contain at least 10.0% void space
# The void calculation uses a probe of radius 1.32A, grid spacing 0.4
#
###############################################################################

data_VONBIK
_chemical_formula_moiety         '(C192 H144 N24 O40 Zn8)n'
_symmetry_cell_setting           triclinic
_symmetry_space_group_name_H-M   'P 1'
_symmetry_Int_Tables_number      1
_space_group_name_Hall           'P 1'
loop_
_symmetry_equiv_pos_site_id
_symmetry_equiv_pos_as_xyz
1 x,y,z
_cell_length_a                   17.309(3)
_cell_length_b                   16.441(2)
_cell_length_c                   18.128(3)
_cell_angle_alpha                90
_cell_angle_beta                 92.439(3)
_cell_angle_gamma                90
_cell_volume                     5154.14
loop_
_atom_site_label
_atom_site_type_symbol
_atom_site_fract_x
_atom_site_fract_y
_atom_site_fract_z
O5 O 0.49025(19) 0.61755(19) 0.16962(16)
C11 C 0.6369(2) 0.8150(2) 0.2048(2)
C12 C 0.4551(2) 0.5973(3) 0.1020(2)
C20 C 0.5389(2) 0.6848(3) 0.1766(2)
C26 C 0.5705(2) 0.8054(3) 0.2435(2)
H16 H 0.5590 0.8432 0.2796
C27 C 0.5208(2) 0.7413(3) 0.2298(2)
H17 H 0.4759 0.7360 0.2559
C28 C 0.4657(3) 0.6382(3) 0.0378(2)
H18 H 0.4989 0.6826 0.0373
C34 C 0.6535(2) 0.7577(3) 0.1514(2)
H23 H 0.6977 0.7638 0.1244
C39 C 0.6055(3) 0.6916(3) 0.1377(3)
H28 H 0.6178 0.6525 0.1030
C40 C 0.4040(3) 0.5328(3) 0.1029(3)
H29 H 0.3960 0.5055 0.1469
C47 C 0.3651(3) 0.5091(3) 0.0388(3)
H36 H 0.3310 0.4654 0.0398
C48 C 0.6913(3) 0.8838(3) 0.2229(3)
O9 O 0.67600(18) 0.93173(18) 0.2741(2)
O10 O 0.7510(2) 0.8930(2) 0.1879(2)
Zn3 Zn 0.77597(3) 0.99907(3) 0.27244(3)
O5_2 O 0.99025(19) 0.88245(19) 0.66962(16)
O8 O 0.84829(19) 0.9350(2) 0.34456(17)
C12_2 C 0.9551(2) 0.9027(3) 0.6020(2)
C13 C 0.8326(3) 0.9736(3) 0.4027(3)
C23 C 0.8759(2) 0.9507(2) 0.4727(2)
H17_2 H 0.9759 0.7640 0.7559
C28_2 C 0.9657(3) 0.8618(3) 0.5378(2)
H18_2 H 0.9989 0.8174 0.5373
C40_2 C 0.9040(3) 0.9672(3) 0.6029(3)
H29_2 H 0.8960 0.9945 0.6469
C44 C 0.9269(3) 0.8867(3) 0.4729(2)
H33 H 0.9356 0.8596 0.4290
C45 C 0.9325(3) 0.9932(3) 0.1984(3)
H34 H 0.9398 0.9452 0.2250
C47_2 C 0.8651(3) 0.9909(3) 0.5388(3)
Zn1 Zn 0.27597(3) 0.50093(3) 0.77244(3)
N1 N 0.25581(17) 0.20018(18) 0.32783(16)
N2 N 0.25233(18) 0.28462(19) 0.66326(16)
N3 N 0.38405(18) 0.03364(19) 0.27827(17)
C1 C 0.2843(2) 0.3551(2) 0.68756(19)
O7 O 0.2819(2) 0.4728(2) 0.90109(19)
C3 C 0.2641(3) 0.2100(2) 0.4649(2)
H1 H 0.3064 0.1725 0.4753
H2 H 0.2165 0.1788 0.4614
C4 C 0.2759(2) 0.2523(2) 0.39199(19)
H3 H 0.2443 0.3011 0.3893
H4 H 0.3296 0.2688 0.3900
N4 N 0.36715(19) 0.4663(2) 0.70513(19)
O8_2 O 0.34829(19) 0.5650(2) 0.84456(17)
N5 N 0.24076(18) 0.3883(2) 0.73853(16)
C5 C 0.2922(2) 0.1345(2) 0.30074(18)
C6 C 0.1860(2) 0.2724(3) 0.7008(2)
H5 H 0.1523 0.2285 0.6958
N6 N 0.24824(18) 0.10131(19) 0.24682(17)
C7 C 0.2743(2) 0.2311(2) 0.60221(18)
H6 H 0.2448 0.1810 0.6039
H7 H 0.3287 0.2173 0.6086
C8 C 0.3692(2) 0.1008(2) 0.31898(19)
C13_2 C 0.3326(3) 0.5264(3) 0.9027(3)
C16 C 0.4242(2) 0.1311(3) 0.3690(2)
H8 H 0.4135 0.1764 0.3975
C19 C 0.2600(2) 0.2709(2) 0.52759(19)
H11 H 0.2983 0.3132 0.5212
H12 H 0.2094 0.2963 0.5258
C21 C 0.3570(2) 0.3950(2) 0.66881(19)
C22 C 0.1823(2) 0.1468(3) 0.2391(2)
H13 H 0.1413 0.1369 0.2055
C23_2 C 0.3759(2) 0.5493(2) 0.9727(2)
C30 C 0.5106(3) 0.0274(3) 0.3339(3)
H20 H 0.5585 0.0017 0.3380
C31 C 0.4125(2) 0.3655(3) 0.6239(2)
H21 H 0.4050 0.3164 0.5991
C36 C 0.1865(2) 0.2090(3) 0.2886(2)
H25 H 0.1498 0.2494 0.2947
C38 C 0.4797(3) 0.4096(3) 0.6160(3)
H27 H 0.5175 0.3910 0.5852
C42 C 0.4954(3) 0.0935(3) 0.3761(2)
H31 H 0.5330 0.1133 0.4097
C43 C 0.1793(2) 0.3376(3) 0.7469(2)
H32 H 0.1394 0.3460 0.7788
C44_2 C 0.4269(3) 0.6133(3) 0.9729(2)
H33_2 H 0.4356 0.6404 0.9290
C45_2 C 0.4325(3) 0.5068(3) 0.6984(3)
H34_2 H 0.4398 0.5548 0.7250
C46 C 0.4897(3) 0.4812(3) 0.6542(3)
H35 H 0.5346 0.5117 0.6500
O11 O 0.31363(17) 0.01630(18) 0.09543(16)
O13 O 0.17600(18) 0.56827(18) 0.7741(2)
O14 O 0.2510(2) 0.6070(2) 0.6879(2)
C11_2 C 0.1369(2) 0.6850(2) 0.7048(2)
C20_2 C 0.0389(2) 0.8152(3) 0.6766(2)
C26_2 C 0.0705(2) 0.6946(3) 0.7435(2)
H16_2 H 0.0590 0.6568 0.7796
C27_2 C 0.0208(2) 0.7587(3) 0.7298(2)
C34_2 C 0.1535(2) 0.7423(3) 0.6514(2)
H23_2 H 0.1977 0.7362 0.6244
C39_2 C 0.1055(3) 0.8084(3) 0.6377(3)
H28_2 H 0.1178 0.8475 0.6030
H35_2 H 0.0346 0.9883 0.1500
C48_2 C 0.1913(3) 0.6162(3) 0.7229(3)
Zn2 Zn 0.29169(3) 0.99375(3) 0.20914(2)
O4 O 0.18965(18) 0.92603(17) 0.20646(16)
O6 O 0.26470(19) 0.9009(2) 0.30263(19)
C9 C 0.2042(2) 0.8875(2) 0.2657(2)
C10 C 0.1487(2) 0.8241(2) 0.2895(2)
C14 C 0.0488(2) 0.7000(2) 0.3242(2)
C17 C 0.0265(2) 0.7552(3) 0.2700(2)
C24 C 0.0769(2) 0.8161(3) 0.2525(2)
H14 H 0.0628 0.8526 0.2151
H19 H 0.0131 0.7038 0.4635
C33 C 0.1686(2) 0.7689(3) 0.3451(2)
H22 H 0.2159 0.7741 0.3710
C35 C 0.4532(2) 0.9991(3) 0.2848(3)
H24 H 0.4636 0.9544 0.2554
C37 C 0.1189(3) 0.7062(3) 0.3625(2)
H26 H 0.1327 0.6690 0.3993
O12 O 0.36386(18) 0.90861(18) 0.15063(16)
N2_2 N 0.75233(18) 0.21538(19) 0.16326(16)
C1_2 C 0.7843(2) 0.1449(2) 0.18756(19)
O7_2 O 0.7819(2) 0.0272(2) 0.40109(19)
C2 C 0.3561(2) 0.9530(2) 0.0944(2)
N4_2 N 0.86715(19) 0.0337(2) 0.20513(19)
N5_2 N 0.74076(18) 0.1117(2) 0.23853(16)
C6_2 C 0.6860(2) 0.2276(3) 0.2008(2)
H5_2 H 0.6523 0.2715 0.1958
C7_2 C 0.7743(2) 0.2689(2) 0.10221(18)
H6_2 H 0.7448 0.3190 0.1039
H7_2 H 0.8287 0.2827 0.1086
C19_2 C 0.7600(2) 0.2291(2) 0.02759(19)
H11_2 H 0.7983 0.1868 0.0212
H12_2 H 0.7094 0.2037 0.0258
C21_2 C 0.8570(2) 0.1050(2) 0.16881(19)
C31_2 C 0.9125(2) 0.1345(3) 0.1239(2)
H21_2 H 0.9050 0.1836 0.0991
C32 C 0.3966(2) 0.9314(2) 0.0261(2)
C38_2 C 0.9797(3) 0.0904(3) 0.1160(3)
C41 C 0.4440(3) 0.8649(3) 0.0257(2)
H30 H 0.4516 0.8347 0.0688
C43_2 C 0.6793(2) 0.1624(3) 0.2469(2)
H32_2 H 0.6394 0.1540 0.2788
C46_2 C 0.9897(3) 0.0188(3) 0.1542(3)
H36_2 H 0.8310 0.0346 0.5398
O1 O 0.81363(17) 0.48370(18) 0.59543(16)
O2 O 0.99956(19) 0.63356(19) 0.33179(15)
O3 O 0.86386(18) 0.59139(18) 0.65063(16)
C2_2 C 0.8561(2) 0.5470(2) 0.5944(2)
C15 C 0.9694(2) 0.6141(2) 0.3988(2)
H9 H 0.9782 0.7513 0.2458
C18 C 0.8866(3) 0.5240(3) 0.4617(2)
H10 H 0.8550 0.4781 0.4611
C25 C 0.9227(3) 0.5463(3) 0.3979(3)
H15 H 0.9155 0.5157 0.3550
C29 C 0.9809(3) 0.6585(3) 0.4626(2)
C32_2 C 0.8966(2) 0.5686(2) 0.5261(2)
C41_2 C 0.9440(3) 0.6351(3) 0.5257(2)
H30_2 H 0.9516 0.6653 0.5688
Zn4 Zn 0.79169(3) 0.50625(3) 0.70914(2)
N1_2 N 0.75581(17) 0.29982(18) 0.82783(16)
O2_2 O 0.49956(19) 0.86644(19) 0.83179(15)
O4_2 O 0.68965(18) 0.57397(17) 0.70646(16)
N3_2 N 0.88405(18) 0.46636(19) 0.77827(17)
O6_2 O 0.76470(19) 0.5991(2) 0.80263(19)
C3_2 C 0.7641(3) 0.2900(2) 0.9649(2)
H1_2 H 0.8064 0.3275 0.9753
H2_2 H 0.7165 0.3212 0.9614
C4_2 C 0.7759(2) 0.2477(2) 0.89199(19)
H3_2 H 0.7443 0.1989 0.8893
H4_2 H 0.8296 0.2312 0.8900
C5_2 C 0.7922(2) 0.3655(2) 0.80074(18)
N6_2 N 0.74824(18) 0.39869(19) 0.74682(17)
C8_2 C 0.8692(2) 0.3992(2) 0.81898(19)
C9_2 C 0.7042(2) 0.6125(2) 0.7657(2)
C10_2 C 0.6487(2) 0.6759(2) 0.7895(2)
C14_2 C 0.5488(2) 0.8000(2) 0.8242(2)
C15_2 C 0.4694(2) 0.8859(2) 0.8988(2)
C16_2 C 0.9242(2) 0.3689(3) 0.8690(2)
H8_2 H 0.9135 0.3236 0.8975
C17_2 C 0.5265(2) 0.7448(3) 0.7700(2)
H9_2 H 0.4782 0.7487 0.7458
C18_2 C 0.3866(3) 0.9760(3) 0.9617(2)
C22_2 C 0.6823(2) 0.3532(3) 0.7391(2)
H13_2 H 0.6413 0.3631 0.7055
C24_2 C 0.5769(2) 0.6839(3) 0.7525(2)
H14_2 H 0.5628 0.6474 0.7151
C25_2 C 0.4227(3) 0.9537(3) 0.8979(3)
H15_2 H 0.4155 0.9843 0.8550
C29_2 C 0.4809(3) 0.8415(3) 0.9626(2)
H19_2 H 0.5131 0.7962 0.9635
C33_2 C 0.6686(2) 0.7311(3) 0.8451(2)
H22_2 H 0.7159 0.7259 0.8710
C35_2 C 0.9532(2) 0.5009(3) 0.7848(3)
H24_2 H 0.9636 0.5456 0.7554
C36_2 C 0.6865(2) 0.2910(3) 0.7886(2)
H25_2 H 0.6498 0.2506 0.7947
C37_2 C 0.6189(3) 0.7938(3) 0.8625(2)
H26_2 H 0.6327 0.8310 0.8993
C42_2 C 0.9954(3) 0.4065(3) 0.8761(2)
Zn1_2 Zn 0.22403(3) 0.00093(3) 0.72756(3)
O5_3 O 0.00975(19) 0.11755(19) 0.33038(16)
O8_3 O 0.15171(19) 0.0650(2) 0.65544(17)
C12_3 C 0.0449(2) 0.0973(3) 0.3980(2)
C13_3 C 0.1674(3) 0.0264(3) 0.5973(3)
C23_3 C 0.1241(2) 0.0493(2) 0.5273(2)
H17_3 H 0.0241 0.2360 0.2441
C28_3 C 0.0343(3) 0.1382(3) 0.4622(2)
H18_3 H 0.0011 0.1826 0.4627
C40_3 C 0.0960(3) 0.0328(3) 0.3971(3)
H29_3 H 0.1040 0.0055 0.3531
C44_3 C 0.0731(3) 0.1133(3) 0.5271(2)
H33_3 H 0.0644 0.1404 0.5710
C45_3 C 0.0675(3) 0.0068(3) 0.8016(3)
H34_3 H 0.0602 0.0548 0.7750
C47_3 C 0.1349(3) 0.0091(3) 0.4612(3)
O13_2 O 0.32400(18) 0.06827(18) 0.7259(2)
O14_2 O 0.2490(2) 0.1070(2) 0.8121(2)
O5_4 O 0.50975(19) 0.38245(19) 0.83038(16)
C11_3 C 0.3631(2) 0.1850(2) 0.7952(2)
C12_4 C 0.5449(2) 0.4027(3) 0.8980(2)
C20_3 C 0.4611(2) 0.3152(3) 0.8234(2)
C26_3 C 0.4295(2) 0.1946(3) 0.7565(2)
H16_3 H 0.4410 0.1568 0.7204
C27_3 C 0.4792(2) 0.2587(3) 0.7702(2)
H17_4 H 0.5241 0.2640 0.7441
C28_4 C 0.5343(3) 0.3618(3) 0.9622(2)
H18_4 H 0.5011 0.3174 0.9627
C34_3 C 0.3465(2) 0.2423(3) 0.8486(2)
H23_3 H 0.3023 0.2362 0.8756
C39_3 C 0.3945(3) 0.3084(3) 0.8623(3)
H28_3 H 0.3822 0.3475 0.8970
C40_4 C 0.5960(3) 0.4672(3) 0.8971(3)
H29_4 H 0.6040 0.4945 0.8531
C47_4 C 0.6349(3) 0.4909(3) 0.9612(3)
H36_3 H 0.6690 0.5346 0.9602
C48_3 C 0.3087(3) 0.1162(3) 0.7771(3)
Zn2_2 Zn 0.20831(3) 0.49375(3) 0.29086(2)
N1_3 N 0.24419(17) 0.70018(18) 0.17217(16)
O2_3 O 0.50044(19) 0.13356(19) 0.16821(15)
O4_3 O 0.31035(18) 0.42603(17) 0.29354(16)
N3_3 N 0.11595(18) 0.53364(19) 0.22173(17)
O6_3 O 0.23530(19) 0.4009(2) 0.19737(19)
C3_3 C 0.2359(3) 0.7100(2) 0.0351(2)
H1_3 H 0.1936 0.6725 0.0247
H2_3 H 0.2835 0.6788 0.0386
C4_3 C 0.2241(2) 0.7523(2) 0.10801(19)
H3_3 H 0.2557 0.8011 0.1107
H4_3 H 0.1704 0.7688 0.1100
C5_3 C 0.2078(2) 0.6345(2) 0.19926(18)
N6_3 N 0.25176(18) 0.60131(19) 0.25318(17)
C8_3 C 0.1308(2) 0.6008(2) 0.18102(19)
C9_3 C 0.2958(2) 0.3875(2) 0.2343(2)
C10_3 C 0.3513(2) 0.3241(2) 0.2105(2)
C14_3 C 0.4512(2) 0.2000(2) 0.1758(2)
C15_3 C 0.5306(2) 0.1141(2) 0.1012(2)
C16_3 C 0.0758(2) 0.6311(3) 0.1310(2)
H8_3 H 0.0865 0.6764 0.1025
C17_3 C 0.4735(2) 0.2552(3) 0.2300(2)
H9_3 H 0.5218 0.2513 0.2542
C18_3 C 0.6134(3) 0.0240(3) 0.0383(2)
C22_3 C 0.3177(2) 0.6468(3) 0.2609(2)
H13_3 H 0.3587 0.6369 0.2945
C24_3 C 0.4231(2) 0.3161(3) 0.2475(2)
H14_3 H 0.4372 0.3526 0.2849
C25_3 C 0.5773(3) 0.0463(3) 0.1021(3)
H15_3 H 0.5845 0.0157 0.1450
C29_3 C 0.5191(3) 0.1585(3) 0.0374(2)
H19_3 H 0.4869 0.2038 0.0365
C33_3 C 0.3314(2) 0.2689(3) 0.1549(2)
H22_3 H 0.2841 0.2741 0.1290
C35_3 C 0.0468(2) 0.4991(3) 0.2152(3)
H24_3 H 0.0364 0.4544 0.2446
C36_3 C 0.3135(2) 0.7090(3) 0.2114(2)
H25_3 H 0.3502 0.7494 0.2053
C37_3 C 0.3811(3) 0.2062(3) 0.1375(2)
H26_3 H 0.3673 0.1690 0.1007
C42_3 C 0.0046(3) 0.5935(3) 0.1239(2)
O11_2 O 0.18637(17) 0.51630(18) 0.40457(16)
O12_2 O 0.13614(18) 0.40861(18) 0.34937(16)
O2_4 O 0.00044(19) 0.36644(19) 0.66821(15)
C2_3 C 0.1439(2) 0.4530(2) 0.4056(2)
C15_4 C 0.0306(2) 0.3859(2) 0.6012(2)
H9_4 H 0.0218 0.2487 0.7542
C18_4 C 0.1134(3) 0.4760(3) 0.5383(2)
H10_2 H 0.1450 0.5219 0.5389
C25_4 C 0.0773(3) 0.4537(3) 0.6021(3)
H15_4 H 0.0845 0.4843 0.6450
C29_4 C 0.0191(3) 0.3415(3) 0.5374(2)
C32_3 C 0.1034(2) 0.4314(2) 0.4739(2)
C41_3 C 0.0560(3) 0.3649(3) 0.4743(2)
H30_3 H 0.0484 0.3347 0.4312
N2_3 N 0.24767(18) 0.78462(19) 0.83674(16)
O3_2 O 0.63614(18) 0.09139(18) 0.84937(16)
C1_3 C 0.2157(2) 0.8551(2) 0.81244(19)
O7_3 O 0.2181(2) 0.9728(2) 0.59891(19)
C2_4 C 0.6439(2) 0.0470(2) 0.9056(2)
N4_3 N 0.13285(19) 0.9663(2) 0.79487(19)
N5_3 N 0.25924(18) 0.8883(2) 0.76147(16)
C6_3 C 0.3140(2) 0.7724(3) 0.7992(2)
H5_3 H 0.3477 0.7285 0.8042
C7_3 C 0.2257(2) 0.7311(2) 0.89779(18)
H6_3 H 0.2552 0.6810 0.8961
H7_3 H 0.1713 0.7173 0.8914
C19_3 C 0.2400(2) 0.7709(2) 0.97241(19)
H11_3 H 0.2017 0.8132 0.9788
H12_3 H 0.2906 0.7963 0.9742
C21_3 C 0.1430(2) 0.8950(2) 0.83119(19)
C31_3 C 0.0875(2) 0.8655(3) 0.8761(2)
H21_3 H 0.0950 0.8164 0.9009
C32_4 C 0.6034(2) 0.0686(2) 0.9739(2)
C38_3 C 0.0203(3) 0.9096(3) 0.8840(3)
C41_4 C 0.5560(3) 0.1351(3) 0.9743(2)
H30_4 H 0.5484 0.1653 0.9312
C43_3 C 0.3207(2) 0.8376(3) 0.7531(2)
H32_3 H 0.3606 0.8460 0.7212
C46_3 C 0.0103(3) 0.9812(3) 0.8458(3)
H36_4 H 0.1690 0.9654 0.4602
Zn4_2 Zn 0.70831(3) 0.00625(3) 0.79086(2)
O4_4 O 0.81035(18) 0.07397(17) 0.79354(16)
O6_4 O 0.73530(19) 0.0991(2) 0.69737(19)
C9_4 C 0.7958(2) 0.1125(2) 0.7343(2)
C10_4 C 0.8513(2) 0.1759(2) 0.7105(2)
C14_4 C 0.9512(2) 0.3000(2) 0.6758(2)
C17_4 C 0.9735(2) 0.2448(3) 0.7300(2)
C24_4 C 0.9231(2) 0.1839(3) 0.7475(2)
H14_4 H 0.9372 0.1474 0.7849
H19_4 H 0.9869 0.2962 0.5365
C33_4 C 0.8314(2) 0.2311(3) 0.6549(2)
H22_4 H 0.7841 0.2259 0.6290
C35_4 C 0.5468(2) 0.0009(3) 0.7152(3)
H24_4 H 0.5364 0.0456 0.7446
C37_4 C 0.8811(3) 0.2938(3) 0.6375(2)
H26_4 H 0.8673 0.3310 0.6007
H10_3 H 0.6450 0.9781 0.0389
O1_2 O 0.68637(17) 0.98370(18) 0.90457(16)
C11_4 C 0.8631(2) 0.3150(2) 0.2952(2)
C20_4 C 0.9611(2) 0.1848(3) 0.3234(2)
C26_4 C 0.9295(2) 0.3054(3) 0.2565(2)
H16_4 H 0.9410 0.3432 0.2204
C27_4 C 0.9792(2) 0.2413(3) 0.2702(2)
C34_4 C 0.8465(2) 0.2577(3) 0.3486(2)
H23_4 H 0.8023 0.2638 0.3756
C39_4 C 0.8945(3) 0.1916(3) 0.3623(3)
H28_4 H 0.8822 0.1525 0.3970
H35_3 H 0.9654 0.0117 0.8500
C48_4 C 0.8087(3) 0.3838(3) 0.2771(3)
O9_2 O 0.82400(18) 0.43173(18) 0.2259(2)
O10_2 O 0.7490(2) 0.3930(2) 0.3121(2)
Zn3_2 Zn 0.72403(3) 0.49907(3) 0.22756(3)
N1_4 N 0.74419(17) 0.79982(18) 0.67217(16)
N2_4 N 0.74767(18) 0.71538(19) 0.33674(16)
N3_4 N 0.61595(18) 0.96636(19) 0.72173(17)
C1_4 C 0.7157(2) 0.6449(2) 0.31244(19)
O7_4 O 0.7181(2) 0.5272(2) 0.09891(19)
C3_4 C 0.7359(3) 0.7900(2) 0.5351(2)
H1_4 H 0.6936 0.8275 0.5247
H2_4 H 0.7835 0.8212 0.5386
C4_4 C 0.7241(2) 0.7477(2) 0.60801(19)
H3_4 H 0.7557 0.6989 0.6107
H4_4 H 0.6704 0.7312 0.6100
N4_4 N 0.63285(19) 0.5337(2) 0.29487(19)
O8_4 O 0.65171(19) 0.4350(2) 0.15544(17)
N5_4 N 0.75924(18) 0.6117(2) 0.26147(16)
C5_4 C 0.7078(2) 0.8655(2) 0.69926(18)
C6_4 C 0.8140(2) 0.7276(3) 0.2992(2)
H5_4 H 0.8477 0.7715 0.3042
N6_4 N 0.75176(18) 0.89869(19) 0.75318(17)
C7_4 C 0.7257(2) 0.7689(2) 0.39779(18)
H6_4 H 0.7552 0.8190 0.3961
H7_4 H 0.6713 0.7827 0.3914
C8_4 C 0.6308(2) 0.8992(2) 0.68102(19)
C13_4 C 0.6674(3) 0.4736(3) 0.0973(3)
C16_4 C 0.5758(2) 0.8689(3) 0.6310(2)
H8_4 H 0.5865 0.8236 0.6025
C19_4 C 0.7400(2) 0.7291(2) 0.47241(19)
H11_4 H 0.7017 0.6868 0.4788
H12_4 H 0.7906 0.7037 0.4742
C21_4 C 0.6430(2) 0.6050(2) 0.33119(19)
C22_4 C 0.8177(2) 0.8532(3) 0.7609(2)
H13_4 H 0.8587 0.8631 0.7945
C23_4 C 0.6241(2) 0.4507(2) 0.0273(2)
C30_2 C 0.4894(3) 0.9726(3) 0.6661(3)
H20_2 H 0.4415 0.9983 0.6620
C31_4 C 0.5875(2) 0.6345(3) 0.3761(2)
H21_4 H 0.5950 0.6836 0.4009
C36_4 C 0.8135(2) 0.7910(3) 0.7114(2)
H25_4 H 0.8502 0.7506 0.7053
C38_4 C 0.5203(3) 0.5904(3) 0.3840(3)
H27_2 H 0.4825 0.6090 0.4148
C42_4 C 0.5046(3) 0.9065(3) 0.6239(2)
H31_2 H 0.4670 0.8867 0.5903
C43_4 C 0.8207(2) 0.6624(3) 0.2531(2)
H32_4 H 0.8606 0.6540 0.2212
C44_4 C 0.5731(3) 0.3867(3) 0.0271(2)
H33_4 H 0.5644 0.3596 0.0710
C45_4 C 0.5675(3) 0.4932(3) 0.3016(3)
H34_4 H 0.5602 0.4452 0.2750
C46_4 C 0.5103(3) 0.5188(3) 0.3458(3)
H35_4 H 0.4654 0.4883 0.3500
C30_3 C 0.9894(3) 0.5274(3) 0.1661(3)
H20_3 H 0.9415 0.5017 0.1620
H31_3 H 0.9670 0.6133 0.0903
H27_3 H 0.9825 0.8910 0.9148
H27_4 H 0.0175 0.1090 0.0852
C30_4 C 0.0106(3) 0.4726(3) 0.8339(3)
H20_4 H 0.0585 0.4983 0.8380
H31_4 H 0.0330 0.3867 0.9097
H10_4 H 0.3550 0.0219 0.9611
loop_
_geom_bond_atom_site_label_1
_geom_bond_atom_site_label_2
_geom_bond_site_symmetry_1
_geom_bond_site_symmetry_2
O5 C12 1_555 1_555
C11 C26 1_555 1_555
C12 C28 1_555 1_555
C20 O5 1_555 1_555
C26 H16 1_555 1_555
C27 C20 1_555 1_555
H17 C27 1_555 1_555
C28 H18 1_555 1_555
C34 C11 1_555 1_555
H23 C34 1_555 1_555
C39 C20 1_555 1_555
H28 C39 1_555 1_555
C40 C12 1_555 1_555
H29 C40 1_555 1_555
H36 C47 1_555 1_555
C48 C11 1_555 1_555
O9 C48 1_555 1_555
O10 C48 1_555 1_555
Zn3 O9 1_555 1_555
C26 C27 1_555 1_555
C34 C39 1_555 1_555
C40 C47 1_555 1_555
O10 Zn3 1_555 1_555
O5_2 C12_2 1_555 1_555
O8 Zn3 1_555 1_555
C12_2 C28_2 1_555 1_555
C13 O8 1_555 1_555
C23 C13 1_555 1_555
C28_2 H18_2 1_555 1_555
C40_2 C12_2 1_555 1_555
H29_2 C40_2 1_555 1_555
C44 C23 1_555 1_555
H33 C44 1_555 1_555
H34 C45 1_555 1_555
C47_2 C23 1_555 1_555
C28_2 C44 1_555 1_555
C40_2 C47_2 1_555 1_555
Zn1 O7 1_555 1_555
N1 C4 1_555 1_555
N2 C1 1_555 1_555
C1 N5 1_555 1_555
O7 C13_2 1_555 1_555
C3 H1 1_555 1_555
H2 C3 1_555 1_555
C4 C3 1_555 1_555
H3 C4 1_555 1_555
H4 C4 1_555 1_555
N4 Zn1 1_555 1_555
O8_2 Zn1 1_555 1_555
N5 Zn1 1_555 1_555
C5 N1 1_555 1_555
C6 N2 1_555 1_555
H5 C6 1_555 1_555
C7 N2 1_555 1_555
H6 C7 1_555 1_555
H7 C7 1_555 1_555
C8 N3 1_555 1_555
C13_2 O8_2 1_555 1_555
C16 C8 1_555 1_555
H8 C16 1_555 1_555
C19 C3 1_555 1_555
H11 C19 1_555 1_555
H12 C19 1_555 1_555
C21 C1 1_555 1_555
C22 N6 1_555 1_555
H13 C22 1_555 1_555
C23_2 C13_2 1_555 1_555
C30 H20 1_555 1_555
C31 C21 1_555 1_555
H21 C31 1_555 1_555
C36 N1 1_555 1_555
H25 C36 1_555 1_555
C38 C31 1_555 1_555
H27 C38 1_555 1_555
C42 C16 1_555 1_555
H31 C42 1_555 1_555
C43 N5 1_555 1_555
H32 C43 1_555 1_555
C44_2 C23_2 1_555 1_555
H33_2 C44_2 1_555 1_555
C45_2 N4 1_555 1_555
H34_2 C45_2 1_555 1_555
C46 C38 1_555 1_555
H35 C46 1_555 1_555
O13 Zn1 1_555 1_555
O14 Zn1 1_555 1_555
N4 C21 1_555 1_555
C5 N6 1_555 1_555
C5 C8 1_555 1_555
C6 C43 1_555 1_555
C7 C19 1_555 1_555
C22 C36 1_555 1_555
C30 C42 1_555 1_555
C45_2 C46 1_555 1_555
C11_2 C26_2 1_555 1_555
C26_2 H16_2 1_555 1_555
C27_2 C20_2 1_555 1_555
C34_2 C11_2 1_555 1_555
H23_2 C34_2 1_555 1_555
C39_2 C20_2 1_555 1_555
H28_2 C39_2 1_555 1_555
C48_2 C11_2 1_555 1_555
O13 C48_2 1_555 1_555
O14 C48_2 1_555 1_555
C26_2 C27_2 1_555 1_555
C34_2 C39_2 1_555 1_555
Zn2 O4 1_555 1_555
O4 C9 1_555 1_555
O6 Zn2 1_555 1_555
C9 O6 1_555 1_555
C10 C9 1_555 1_555
C14 C17 1_555 1_555
C24 C10 1_555 1_555
H14 C24 1_555 1_555
C33 C10 1_555 1_555
H22 C33 1_555 1_555
H24 C35 1_555 1_555
C37 C14 1_555 1_555
H26 C37 1_555 1_555
O12 Zn2 1_555 1_555
C17 C24 1_555 1_555
C33 C37 1_555 1_555
N2_2 C1_2 1_555 1_555
O12 C2 1_555 1_555
C1_2 N5_2 1_555 1_555
C2 C32 1_555 1_555
C6_2 N2_2 1_555 1_555
H5_2 C6_2 1_555 1_555
C7_2 N2_2 1_555 1_555
H6_2 C7_2 1_555 1_555
H7_2 C7_2 1_555 1_555
H11_2 C19_2 1_555 1_555
H12_2 C19_2 1_555 1_555
C21_2 C1_2 1_555 1_555
C31_2 C21_2 1_555 1_555
H21_2 C31_2 1_555 1_555
C38_2 C31_2 1_555 1_555
H30 C41 1_555 1_555
C43_2 N5_2 1_555 1_555
H32_2 C43_2 1_555 1_555
C46_2 C38_2 1_555 1_555
N4_2 C21_2 1_555 1_555
C6_2 C43_2 1_555 1_555
C7_2 C19_2 1_555 1_555
C32 C41 1_555 1_555
O1 C2_2 1_555 1_555
O3 C2_2 1_555 1_555
C2_2 C32_2 1_555 1_555
C15 O2 1_555 1_555
C18 H10 1_555 1_555
C25 C15 1_555 1_555
H15 C25 1_555 1_555
C29 C15 1_555 1_555
C32_2 C18 1_555 1_555
C41_2 C29 1_555 1_555
H30_2 C41_2 1_555 1_555
Zn4 O1 1_555 1_555
O3 Zn4 1_555 1_555
C18 C25 1_555 1_555
C32_2 C41_2 1_555 1_555
Zn4 O4_2 1_555 1_555
N1_2 C4_2 1_555 1_555
O2_2 C14_2 1_555 1_555
O4_2 C9_2 1_555 1_555
N3_2 Zn4 1_555 1_555
O6_2 Zn4 1_555 1_555
C3_2 H1_2 1_555 1_555
H2_2 C3_2 1_555 1_555
C4_2 C3_2 1_555 1_555
H3_2 C4_2 1_555 1_555
H4_2 C4_2 1_555 1_555
C5_2 N1_2 1_555 1_555
N6_2 Zn4 1_555 1_555
C8_2 N3_2 1_555 1_555
C9_2 O6_2 1_555 1_555
C10_2 C9_2 1_555 1_555
C14_2 C17_2 1_555 1_555
C15_2 O2_2 1_555 1_555
C16_2 C8_2 1_555 1_555
H8_2 C16_2 1_555 1_555
C17_2 H9_2 1_555 1_555
C22_2 N6_2 1_555 1_555
H13_2 C22_2 1_555 1_555
C24_2 C10_2 1_555 1_555
H14_2 C24_2 1_555 1_555
C25_2 C15_2 1_555 1_555
H15_2 C25_2 1_555 1_555
C29_2 C15_2 1_555 1_555
H19_2 C29_2 1_555 1_555
C33_2 C10_2 1_555 1_555
H22_2 C33_2 1_555 1_555
C35_2 N3_2 1_555 1_555
H24_2 C35_2 1_555 1_555
C36_2 N1_2 1_555 1_555
H25_2 C36_2 1_555 1_555
C37_2 C14_2 1_555 1_555
H26_2 C37_2 1_555 1_555
C42_2 C16_2 1_555 1_555
C5_2 N6_2 1_555 1_555
C5_2 C8_2 1_555 1_555
C17_2 C24_2 1_555 1_555
C18_2 C25_2 1_555 1_555
C22_2 C36_2 1_555 1_555
C33_2 C37_2 1_555 1_555
O5_3 C12_3 1_555 1_555
O8_3 Zn1_2 1_555 1_555
C12_3 C28_3 1_555 1_555
C13_3 O8_3 1_555 1_555
C23_3 C13_3 1_555 1_555
C28_3 H18_3 1_555 1_555
C40_3 C12_3 1_555 1_555
H29_3 C40_3 1_555 1_555
C44_3 C23_3 1_555 1_555
H33_3 C44_3 1_555 1_555
H34_3 C45_3 1_555 1_555
C47_3 C23_3 1_555 1_555
O13_2 Zn1_2 1_555 1_555
O14_2 Zn1_2 1_555 1_555
C28_3 C44_3 1_555 1_555
C40_3 C47_3 1_555 1_555
O5_4 C12_4 1_555 1_555
C11_3 C26_3 1_555 1_555
C12_4 C28_4 1_555 1_555
C20_3 O5_4 1_555 1_555
C26_3 H16_3 1_555 1_555
C27_3 C20_3 1_555 1_555
H17_4 C27_3 1_555 1_555
C28_4 H18_4 1_555 1_555
C34_3 C11_3 1_555 1_555
H23_3 C34_3 1_555 1_555
C39_3 C20_3 1_555 1_555
H28_3 C39_3 1_555 1_555
C40_4 C12_4 1_555 1_555
H29_4 C40_4 1_555 1_555
H36_3 C47_4 1_555 1_555
C48_3 C11_3 1_555 1_555
O13_2 C48_3 1_555 1_555
O14_2 C48_3 1_555 1_555
C26_3 C27_3 1_555 1_555
C34_3 C39_3 1_555 1_555
C40_4 C47_4 1_555 1_555
Zn2_2 O4_3 1_555 1_555
N1_3 C4_3 1_555 1_555
O2_3 C14_3 1_555 1_555
O4_3 C9_3 1_555 1_555
N3_3 Zn2_2 1_555 1_555
O6_3 Zn2_2 1_555 1_555
C3_3 H1_3 1_555 1_555
H2_3 C3_3 1_555 1_555
C4_3 C3_3 1_555 1_555
H3_3 C4_3 1_555 1_555
H4_3 C4_3 1_555 1_555
C5_3 N1_3 1_555 1_555
N6_3 Zn2_2 1_555 1_555
C8_3 N3_3 1_555 1_555
C9_3 O6_3 1_555 1_555
C10_3 C9_3 1_555 1_555
C14_3 C17_3 1_555 1_555
C15_3 O2_3 1_555 1_555
C16_3 C8_3 1_555 1_555
H8_3 C16_3 1_555 1_555
C17_3 H9_3 1_555 1_555
C22_3 N6_3 1_555 1_555
H13_3 C22_3 1_555 1_555
C24_3 C10_3 1_555 1_555
H14_3 C24_3 1_555 1_555
C25_3 C15_3 1_555 1_555
H15_3 C25_3 1_555 1_555
C29_3 C15_3 1_555 1_555
H19_3 C29_3 1_555 1_555
C33_3 C10_3 1_555 1_555
H22_3 C33_3 1_555 1_555
C35_3 N3_3 1_555 1_555
H24_3 C35_3 1_555 1_555
C36_3 N1_3 1_555 1_555
H25_3 C36_3 1_555 1_555
C37_3 C14_3 1_555 1_555
H26_3 C37_3 1_555 1_555
C42_3 C16_3 1_555 1_555
O11_2 Zn2_2 1_555 1_555
O12_2 Zn2_2 1_555 1_555
C5_3 N6_3 1_555 1_555
C5_3 C8_3 1_555 1_555
C17_3 C24_3 1_555 1_555
C18_3 C25_3 1_555 1_555
C22_3 C36_3 1_555 1_555
C33_3 C37_3 1_555 1_555
O11_2 C2_3 1_555 1_555
O12_2 C2_3 1_555 1_555
C2_3 C32_3 1_555 1_555
C15_4 O2_4 1_555 1_555
C18_4 H10_2 1_555 1_555
C25_4 C15_4 1_555 1_555
H15_4 C25_4 1_555 1_555
C29_4 C15_4 1_555 1_555
C32_3 C18_4 1_555 1_555
C41_3 C29_4 1_555 1_555
H30_3 C41_3 1_555 1_555
C18_4 C25_4 1_555 1_555
C32_3 C41_3 1_555 1_555
N2_3 C1_3 1_555 1_555
O3_2 C2_4 1_555 1_555
C1_3 N5_3 1_555 1_555
C2_4 C32_4 1_555 1_555
C6_3 N2_3 1_555 1_555
H5_3 C6_3 1_555 1_555
C7_3 N2_3 1_555 1_555
H6_3 C7_3 1_555 1_555
H7_3 C7_3 1_555 1_555
H11_3 C19_3 1_555 1_555
H12_3 C19_3 1_555 1_555
C21_3 C1_3 1_555 1_555
C31_3 C21_3 1_555 1_555
H21_3 C31_3 1_555 1_555
C38_3 C31_3 1_555 1_555
H30_4 C41_4 1_555 1_555
C43_3 N5_3 1_555 1_555
H32_3 C43_3 1_555 1_555
C46_3 C38_3 1_555 1_555
O3_2 Zn4_2 1_555 1_555
N4_3 C21_3 1_555 1_555
C6_3 C43_3 1_555 1_555
C7_3 C19_3 1_555 1_555
C32_4 C41_4 1_555 1_555
Zn4_2 O4_4 1_555 1_555
O4_4 C9_4 1_555 1_555
O6_4 Zn4_2 1_555 1_555
C9_4 O6_4 1_555 1_555
C10_4 C9_4 1_555 1_555
C14_4 C17_4 1_555 1_555
C24_4 C10_4 1_555 1_555
H14_4 C24_4 1_555 1_555
C33_4 C10_4 1_555 1_555
H22_4 C33_4 1_555 1_555
H24_4 C35_4 1_555 1_555
C37_4 C14_4 1_555 1_555
H26_4 C37_4 1_555 1_555
C17_4 C24_4 1_555 1_555
C33_4 C37_4 1_555 1_555
C11_4 C26_4 1_555 1_555
C26_4 H16_4 1_555 1_555
C27_4 C20_4 1_555 1_555
C34_4 C11_4 1_555 1_555
H23_4 C34_4 1_555 1_555
C39_4 C20_4 1_555 1_555
H28_4 C39_4 1_555 1_555
C48_4 C11_4 1_555 1_555
O9_2 C48_4 1_555 1_555
O10_2 C48_4 1_555 1_555
Zn3_2 O9_2 1_555 1_555
C26_4 C27_4 1_555 1_555
C34_4 C39_4 1_555 1_555
O10_2 Zn3_2 1_555 1_555
Zn3_2 O7_4 1_555 1_555
N1_4 C4_4 1_555 1_555
N2_4 C1_4 1_555 1_555
C1_4 N5_4 1_555 1_555
O7_4 C13_4 1_555 1_555
C3_4 H1_4 1_555 1_555
H2_4 C3_4 1_555 1_555
C4_4 C3_4 1_555 1_555
H3_4 C4_4 1_555 1_555
H4_4 C4_4 1_555 1_555
N4_4 Zn3_2 1_555 1_555
O8_4 Zn3_2 1_555 1_555
N5_4 Zn3_2 1_555 1_555
C5_4 N1_4 1_555 1_555
C6_4 N2_4 1_555 1_555
H5_4 C6_4 1_555 1_555
C7_4 N2_4 1_555 1_555
H6_4 C7_4 1_555 1_555
H7_4 C7_4 1_555 1_555
C8_4 N3_4 1_555 1_555
C13_4 O8_4 1_555 1_555
C16_4 C8_4 1_555 1_555
H8_4 C16_4 1_555 1_555
C19_4 C3_4 1_555 1_555
H11_4 C19_4 1_555 1_555
H12_4 C19_4 1_555 1_555
C21_4 C1_4 1_555 1_555
C22_4 N6_4 1_555 1_555
H13_4 C22_4 1_555 1_555
C23_4 C13_4 1_555 1_555
C30_2 H20_2 1_555 1_555
C31_4 C21_4 1_555 1_555
H21_4 C31_4 1_555 1_555
C36_4 N1_4 1_555 1_555
H25_4 C36_4 1_555 1_555
C38_4 C31_4 1_555 1_555
H27_2 C38_4 1_555 1_555
C42_4 C16_4 1_555 1_555
H31_2 C42_4 1_555 1_555
C43_4 N5_4 1_555 1_555
H32_4 C43_4 1_555 1_555
C44_4 C23_4 1_555 1_555
H33_4 C44_4 1_555 1_555
C45_4 N4_4 1_555 1_555
H34_4 C45_4 1_555 1_555
C46_4 C38_4 1_555 1_555
H35_4 C46_4 1_555 1_555
N4_4 C21_4 1_555 1_555
C5_4 N6_4 1_555 1_555
C5_4 C8_4 1_555 1_555
C6_4 C43_4 1_555 1_555
C7_4 C19_4 1_555 1_555
C22_4 C36_4 1_555 1_555
C30_2 C42_4 1_555 1_555
C45_4 C46_4 1_555 1_555
C30_3 H20_3 1_555 1_555
C30_4 H20_4 1_555 1_555

#END
