
###############################################################################
#
# This file contains modified crystal structure data generated from the
# MOF subset of the Cambridge Structural Database (CSD) v543 
# hosted by the Cambridge Crystallographic Data Centre (CCDC).
#
# This work is licensed under the Creative Commons
# Attribution-NonCommercial-ShareAlike 4.0 International License.
# To view a copy of this license, visit
# http://creativecommons.org/licenses/by-nc-sa/4.0/
# or send a letter to
# Creative Commons, PO Box 1866, Mountain View, CA 94042, USA.
#
# CIF created using the CSD Python API on 29 September 2022
# The structure has been converted into the P1 space group
# The structure has a 3D framework
# The original CSD entry VONBUW is in the monoclinic crystal system
# The framework has been calculated to contain at least 10.0% void space
# The void calculation uses a probe of radius 1.32A, grid spacing 0.4
#
###############################################################################

data_VONBUW
_chemical_formula_moiety         '(C264 H176 N24 O62 Zn7)n'
_symmetry_cell_setting           triclinic
_symmetry_space_group_name_H-M   'P 1'
_symmetry_Int_Tables_number      1
_space_group_name_Hall           'P 1'
loop_
_symmetry_equiv_pos_site_id
_symmetry_equiv_pos_as_xyz
1 x,y,z
_cell_length_a                   14.3040(4)
_cell_length_b                   17.4700(4)
_cell_length_c                   25.6360(10)
_cell_angle_alpha                90
_cell_angle_beta                 94.0690(10)
_cell_angle_gamma                90
_cell_volume                     6390.05
loop_
_atom_site_label
_atom_site_type_symbol
_atom_site_fract_x
_atom_site_fract_y
_atom_site_fract_z
Zn8 Zn 0.51393(2) 0.668071(19) 0.494302(12)
N4 N 0.40380(19) 0.72801(16) 0.43637(10)
N6 N 0.23485(17) 0.59757(16) 0.48810(11)
C39 C 0.0046(2) 0.5748(2) 0.51505(14)
H24 H 0.0075 0.6257 0.5256
C40 C 0.3144(2) 0.70731(18) 0.44280(12)
N7 N 0.38562(17) 0.61933(16) 0.50669(10)
C44 C 0.30879(19) 0.64346(18) 0.47910(11)
C46 C 0.0650(2) 0.4718(2) 0.46818(14)
H27 H 0.1088 0.4519 0.4467
C48 C 0.4194(3) 0.7816(2) 0.40088(15)
H29 H 0.4810 0.7945 0.3955
C50 C 0.2676(2) 0.5420(2) 0.52265(14)
H31 H 0.2331 0.5021 0.5357
C57 C 0.2402(3) 0.7440(2) 0.41607(18)
H37 H 0.1788 0.7306 0.4218
C61 C 0.1397(2) 0.6019(2) 0.46147(16)
H40 H 0.1163 0.6536 0.4646
H41 H 0.1440 0.5913 0.4246
C62 C 0.0701(2) 0.5470(2) 0.48289(13)
C63 C 0.3602(2) 0.5566(2) 0.53405(14)
H42 H 0.4000 0.5283 0.5569
C64 C 0.3490(3) 0.8182(3) 0.3721(2)
H43 H 0.3623 0.8543 0.3470
C65 C 0.2581(3) 0.8003(3) 0.3812(2)
H44 H 0.2087 0.8264 0.3635
Zn1 Zn 0.2500 0.2500 0.5000
Zn2 Zn 0.48607(2) 0.331929(19) 0.505698(12)
O1 O 0.34561(16) 0.18157(14) 0.45558(9)
O2 O 0.5000 0.04649(18) 0.2500
O3 O 0.27099(17) 0.34997(14) 0.44487(10)
O4 O 0.2380(2) 0.62324(16) 0.28161(9)
N1 N 0.59620(19) 0.27199(16) 0.56363(10)
N2 N 0.76515(17) 0.40243(16) 0.51190(11)
O5 O 0.48310(17) 0.24315(13) 0.45540(9)
C1 C 0.3523(2) 0.64768(18) 0.13840(11)
C2 C 0.4431(2) 0.15742(18) 0.38732(11)
C3 C 0.2808(2) 0.6290(2) 0.23505(12)
C4 C 0.3087(2) 0.45485(18) 0.39177(11)
C5 C 0.3674(2) 0.5161(2) 0.38577(12)
H1 H 0.4224 0.5203 0.4072
C6 C 0.9954(2) 0.4252(2) 0.48495(14)
H2 H 0.9925 0.3743 0.4744
C7 C 0.6856(2) 0.29269(18) 0.55720(12)
C8 C 0.3325(2) 0.39641(18) 0.43375(11)
C9 C 0.4198(2) 0.05309(19) 0.32692(11)
H3 H 0.3914 0.0067 0.3176
O6 O 0.41445(16) 0.40037(14) 0.45461(9)
N3 N 0.61438(17) 0.38067(16) 0.49331(10)
C10 C 0.4008(2) 0.08863(19) 0.37315(12)
H4 H 0.3593 0.0661 0.3949
C11 C 0.69121(19) 0.35654(18) 0.52090(11)
C12 C 0.4811(2) 0.08661(18) 0.29468(10)
C13 C 0.9350(2) 0.5282(2) 0.53182(14)
H5 H 0.8912 0.5481 0.5533
C14 C 0.3457(3) 0.5717(2) 0.34817(13)
H6 H 0.3853 0.6133 0.3446
C15 C 0.5806(3) 0.2184(2) 0.59912(15)
H7 H 0.5190 0.2055 0.6045
C16 C 0.2946(2) 0.70334(19) 0.15797(11)
H8 H 0.2798 0.7470 0.1383
C17 C 0.7324(2) 0.4580(2) 0.47735(14)
H9 H 0.7669 0.4979 0.4643
C18 C 0.2649(2) 0.5646(2) 0.31638(12)
C19 C 0.3380(3) 0.5735(2) 0.21662(13)
H10 H 0.3525 0.5299 0.2364
C20 C 0.2280(2) 0.4485(2) 0.35875(13)
H11 H 0.1880 0.4071 0.3622
C21 C 0.5052(2) 0.1901(2) 0.35476(12)
H12 H 0.5339 0.2363 0.3642
C22 C 0.3735(3) 0.5833(2) 0.16844(13)
H13 H 0.4125 0.5460 0.1559
C23 C 0.5252(2) 0.1553(2) 0.30851(12)
H14 H 0.5673 0.1775 0.2870
C24 C 0.7598(3) 0.2560(2) 0.58393(18)
H15 H 0.8212 0.2694 0.5782
C25 C 0.2064(3) 0.5031(2) 0.32084(13)
H16 H 0.1526 0.4982 0.2985
C26 C 0.2592(2) 0.6943(2) 0.20611(12)
H17 H 0.2210 0.7318 0.2191
C27 C 0.4214(2) 0.19740(19) 0.43678(11)
C28 C 0.8603(2) 0.3981(2) 0.53853(16)
H18 H 0.8837 0.3464 0.5354
H19 H 0.8560 0.4087 0.5754
C29 C 0.9299(2) 0.4530(2) 0.51711(13)
C30 C 0.6398(2) 0.4434(2) 0.46595(14)
H20 H 0.6000 0.4717 0.4431
C31 C 0.6510(3) 0.1818(3) 0.6279(2)
H21 H 0.6377 0.1457 0.6530
C32 C 0.7419(3) 0.1997(3) 0.6188(2)
H22 H 0.7913 0.1736 0.6365
C33 C 0.3925(2) 0.65681(19) 0.08701(11)
O7 O 0.37338(14) 0.71470(14) 0.05869(8)
O8 O 0.44897(16) 0.60725(14) 0.07298(8)
Zn3 Zn 0.2500 0.7500 0.0000
Zn4 Zn 0.7500 0.2500 0.0000
Zn7 Zn 0.48607(2) 0.668071(19) 0.005698(12)
Zn10 Zn 0.01393(2) 0.168071(19) 0.494302(12)
O9 O 0.65439(16) 0.18157(14) 0.04442(9)
O10 O 0.15439(16) 0.31843(14) 0.54442(9)
O12 O 0.22901(17) 0.15003(14) 0.55513(10)
O13 O 0.2620(2) 0.12324(16) 0.21839(9)
O14 O 0.51690(17) 0.24315(13) 0.04460(9)
C34 C 0.1477(2) 0.14768(18) 0.36160(11)
C35 C 0.5569(2) 0.15742(18) 0.11268(11)
C36 C 0.2192(2) 0.1290(2) 0.26495(12)
C38 C 0.1326(2) 0.0161(2) 0.11423(12)
H23 H 0.0776 0.0203 0.0928
C42 C 0.5802(2) 0.05309(19) 0.17308(11)
H25 H 0.6086 0.0067 0.1824
O16 O 0.58555(16) 0.40037(14) 0.04539(9)
N8 N 0.38562(17) 0.38067(16) 0.00669(10)
C43 C 0.5992(2) 0.08863(19) 0.12685(12)
H26 H 0.6407 0.0661 0.1051
C45 C 0.5189(2) 0.08661(18) 0.20532(10)
C47 C 0.1543(3) 0.0717(2) 0.15183(13)
H28 H 0.1147 0.1133 0.1554
C49 C 0.2054(2) 0.20334(19) 0.34203(11)
H30 H 0.2202 0.2470 0.3617
C51 C 0.2351(2) 0.0646(2) 0.18362(12)
C52 C 0.1620(3) 0.0735(2) 0.28338(13)
H32 H 0.1475 0.0299 0.2636
C54 C 0.4948(2) 0.1901(2) 0.14524(12)
H34 H 0.4661 0.2363 0.1358
C55 C 0.1265(3) 0.0833(2) 0.33156(13)
H35 H 0.0875 0.0460 0.3441
C56 C 0.4748(2) 0.1553(2) 0.19149(12)
H36 H 0.4327 0.1775 0.2130
C58 C 0.2936(3) 0.0031(2) 0.17916(13)
C59 C 0.2408(2) 0.1943(2) 0.29389(12)
H39 H 0.2790 0.2318 0.2809
C60 C 0.5786(2) 0.19740(19) 0.06322(11)
C66 C 0.1075(2) 0.15681(19) 0.41299(11)
O17 O 0.12662(14) 0.21470(14) 0.44131(8)
O18 O 0.37338(14) 0.28530(14) 0.55869(8)
O20 O 0.05103(16) 0.10725(14) 0.42702(8)
O21 O 0.44897(16) 0.39275(14) 0.57298(8)
Zn3_2 Zn 0.2500 0.7500 1.0000
Zn4_2 Zn 0.7500 0.2500 1.0000
Zn6 Zn 0.51393(2) 0.331929(19) 0.994302(12)
N5 N 0.40380(19) 0.27199(16) 0.93637(10)
O19 O 0.62662(14) 0.28530(14) 0.94131(8)
O22 O 0.55103(16) 0.39275(14) 0.92702(8)
O11 O 0.22901(17) 0.84997(14) 0.05513(10)
C37 C 0.1913(2) 0.95485(18) 0.10823(11)
C41 C 0.1675(2) 0.89641(18) 0.06625(11)
O15 O 0.08555(16) 0.90037(14) 0.04539(9)
C53 C 0.2720(2) 0.9485(2) 0.14125(13)
H33 H 0.3120 0.9071 0.1378
H38 H 0.3474 0.9982 0.2015
Zn9 Zn 0.01393(2) 0.831929(19) 0.994302(12)
O3_2 O 0.72901(17) 0.34997(14) 0.05513(10)
O4_2 O 0.7620(2) 0.62324(16) 0.21839(9)
C1_2 C 0.6477(2) 0.64768(18) 0.36160(11)
C3_2 C 0.7192(2) 0.6290(2) 0.26495(12)
C4_2 C 0.6913(2) 0.45485(18) 0.10823(11)
C5_2 C 0.6326(2) 0.5161(2) 0.11423(12)
H1_2 H 0.5776 0.5203 0.0928
C6_2 C 0.0046(2) 0.4252(2) 0.01505(14)
H2_2 H 0.0075 0.3743 0.0256
C8_2 C 0.6675(2) 0.39641(18) 0.06625(11)
C14_2 C 0.6543(3) 0.5717(2) 0.15183(13)
H6_2 H 0.6147 0.6133 0.1554
C16_2 C 0.7054(2) 0.70334(19) 0.34203(11)
H8_2 H 0.7202 0.7470 0.3617
C17_2 C 0.2676(2) 0.4580(2) 0.02265(14)
H9_2 H 0.2331 0.4979 0.0357
C18_2 C 0.7351(2) 0.5646(2) 0.18362(12)
C19_2 C 0.6620(3) 0.5735(2) 0.28338(13)
H10_2 H 0.6475 0.5299 0.2636
C20_2 C 0.7720(2) 0.4485(2) 0.14125(13)
H11_2 H 0.8120 0.4071 0.1378
C22_2 C 0.6265(3) 0.5833(2) 0.33156(13)
H13_2 H 0.5875 0.5460 0.3441
C25_2 C 0.7936(3) 0.5031(2) 0.17916(13)
H16_2 H 0.8474 0.4982 0.2015
C26_2 C 0.7408(2) 0.6943(2) 0.29389(12)
H17_2 H 0.7790 0.7318 0.2809
C30_2 C 0.3602(2) 0.4434(2) 0.03405(14)
H20_2 H 0.4000 0.4717 0.0569
C33_2 C 0.6075(2) 0.65681(19) 0.41299(11)
O7_2 O 0.62662(14) 0.71470(14) 0.44131(8)
O8_2 O 0.55103(16) 0.60725(14) 0.42702(8)
Zn3_3 Zn 0.7500 0.7500 0.5000
Zn10_2 Zn 0.98607(2) 0.168071(19) 0.005698(12)
O13_2 O 0.7380(2) 0.12324(16) 0.28161(9)
C34_2 C 0.8523(2) 0.14768(18) 0.13840(11)
C36_2 C 0.7808(2) 0.1290(2) 0.23505(12)
C38_2 C 0.8674(2) 0.0161(2) 0.38577(12)
H23_2 H 0.9224 0.0203 0.4072
C47_2 C 0.8457(3) 0.0717(2) 0.34817(13)
H28_2 H 0.8853 0.1133 0.3446
C49_2 C 0.7946(2) 0.20334(19) 0.15797(11)
H30_2 H 0.7798 0.2470 0.1383
C51_2 C 0.7649(2) 0.0646(2) 0.31638(12)
C52_2 C 0.8380(3) 0.0735(2) 0.21662(13)
H32_2 H 0.8525 0.0299 0.2364
C55_2 C 0.8735(3) 0.0833(2) 0.16844(13)
H35_2 H 0.9125 0.0460 0.1559
C58_2 C 0.7064(3) 0.0031(2) 0.32084(13)
C59_2 C 0.7592(2) 0.1943(2) 0.20611(12)
H39_2 H 0.7210 0.2318 0.2191
C66_2 C 0.8925(2) 0.15681(19) 0.08701(11)
O17_2 O 0.87338(14) 0.21470(14) 0.05869(8)
O20_2 O 0.94897(16) 0.10725(14) 0.07298(8)
N2_2 N 0.23485(17) 0.40243(16) 0.98810(11)
C7_2 C 0.3144(2) 0.29269(18) 0.94280(12)
C11_2 C 0.30879(19) 0.35654(18) 0.97910(11)
C13_2 C 0.0650(2) 0.5282(2) 0.96818(14)
H5_2 H 0.1088 0.5481 0.9467
C15_2 C 0.4194(3) 0.2184(2) 0.90088(15)
H7_2 H 0.4810 0.2055 0.8955
C24_2 C 0.2402(3) 0.2560(2) 0.91607(18)
H15_2 H 0.1788 0.2694 0.9218
C28_2 C 0.1397(2) 0.3981(2) 0.96147(16)
H18_2 H 0.1163 0.3464 0.9646
H19_2 H 0.1440 0.4087 0.9246
C29_2 C 0.0701(2) 0.4530(2) 0.98289(13)
C31_2 C 0.3490(3) 0.1818(3) 0.8721(2)
H21_2 H 0.3623 0.1457 0.8470
C32_2 C 0.2581(3) 0.1997(3) 0.8812(2)
H22_2 H 0.2087 0.1736 0.8635
O10_2 O 0.84561(16) 0.31843(14) 0.95558(9)
O12_2 O 0.77099(17) 0.15003(14) 0.94487(10)
Zn9_2 Zn 0.98607(2) 0.831929(19) 0.505698(12)
O11_2 O 0.77099(17) 0.84997(14) 0.44487(10)
C37_2 C 0.8087(2) 0.95485(18) 0.39177(11)
C41_2 C 0.8325(2) 0.89641(18) 0.43375(11)
O15_2 O 0.91445(16) 0.90037(14) 0.45461(9)
C53_2 C 0.7280(2) 0.9485(2) 0.35875(13)
H33_2 H 0.6880 0.9071 0.3622
H38_2 H 0.6526 0.9982 0.2985
N4_2 N 0.59620(19) 0.72801(16) 0.06363(10)
N6_2 N 0.76515(17) 0.59757(16) 0.01190(11)
C40_2 C 0.6856(2) 0.70731(18) 0.05720(12)
C44_2 C 0.69121(19) 0.64346(18) 0.02090(11)
C46_2 C 0.9350(2) 0.4718(2) 0.03182(14)
H27_2 H 0.8912 0.4519 0.0533
C48_2 C 0.5806(3) 0.7816(2) 0.09912(15)
H29_2 H 0.5190 0.7945 0.1045
C57_2 C 0.7598(3) 0.7440(2) 0.08393(18)
H37_2 H 0.8212 0.7306 0.0782
C61_2 C 0.8603(2) 0.6019(2) 0.03853(16)
H40_2 H 0.8837 0.6536 0.0354
H41_2 H 0.8560 0.5913 0.0754
C62_2 C 0.9299(2) 0.5470(2) 0.01711(13)
C64_2 C 0.6510(3) 0.8182(3) 0.1279(2)
H43_2 H 0.6377 0.8543 0.1530
C65_2 C 0.7419(3) 0.8003(3) 0.1188(2)
H44_2 H 0.7913 0.8264 0.1365
C39_2 C 0.9954(2) 0.5748(2) 0.98495(14)
H24_2 H 0.9925 0.6257 0.9744
N7_2 N 0.61438(17) 0.61933(16) 0.99331(10)
C50_2 C 0.7324(2) 0.5420(2) 0.97735(14)
H31_2 H 0.7669 0.5021 0.9643
C63_2 C 0.6398(2) 0.5566(2) 0.96595(14)
H42_2 H 0.6000 0.5283 0.9431
C13_3 C 0.4350(2) 0.0282(2) 0.53182(14)
H5_3 H 0.3912 0.0481 0.5533
N4_3 N 0.90380(19) 0.22801(16) 0.43637(10)
N6_3 N 0.73485(17) 0.09757(16) 0.48810(11)
C39_3 C 0.5046(2) 0.0748(2) 0.51505(14)
H24_3 H 0.5075 0.1257 0.5256
C40_3 C 0.8144(2) 0.20731(18) 0.44280(12)
N7_3 N 0.88562(17) 0.11933(16) 0.50669(10)
C44_3 C 0.80879(19) 0.14346(18) 0.47910(11)
C48_3 C 0.9194(3) 0.2816(2) 0.40088(15)
H29_3 H 0.9810 0.2945 0.3955
C50_3 C 0.7676(2) 0.0420(2) 0.52265(14)
H31_3 H 0.7331 0.0021 0.5357
C57_3 C 0.7402(3) 0.2440(2) 0.41607(18)
H37_3 H 0.6788 0.2306 0.4218
C61_3 C 0.6397(2) 0.1019(2) 0.46147(16)
H40_3 H 0.6163 0.1536 0.4646
H41_3 H 0.6440 0.0913 0.4246
C62_3 C 0.5701(2) 0.0470(2) 0.48289(13)
C63_3 C 0.8602(2) 0.0566(2) 0.53405(14)
H42_3 H 0.9000 0.0283 0.5569
C64_3 C 0.8490(3) 0.3182(3) 0.3721(2)
H43_3 H 0.8623 0.3543 0.3470
C65_3 C 0.7581(3) 0.3003(3) 0.3812(2)
H44_3 H 0.7087 0.3264 0.3635
O2_2 O 0.0000 0.54649(18) 0.2500
N1_2 N 0.09620(19) 0.77199(16) 0.56363(10)
N2_3 N 0.26515(17) 0.90243(16) 0.51190(11)
C6_3 C 0.4954(2) 0.9252(2) 0.48495(14)
H2_3 H 0.4925 0.8743 0.4744
C7_3 C 0.1856(2) 0.79269(18) 0.55720(12)
N3_2 N 0.11438(17) 0.88067(16) 0.49331(10)
C11_3 C 0.19121(19) 0.85654(18) 0.52090(11)
C15_3 C 0.0806(3) 0.7184(2) 0.59912(15)
H7_3 H 0.0190 0.7055 0.6045
C17_3 C 0.2324(2) 0.9580(2) 0.47735(14)
H9_3 H 0.2669 0.9979 0.4643
C21_2 C 0.0052(2) 0.6901(2) 0.35476(12)
H12_2 H 0.0339 0.7363 0.3642
C23_2 C 0.0252(2) 0.6553(2) 0.30851(12)
H14_2 H 0.0673 0.6775 0.2870
C24_3 C 0.2598(3) 0.7560(2) 0.58393(18)
H15_3 H 0.3212 0.7694 0.5782
C28_3 C 0.3603(2) 0.8981(2) 0.53853(16)
H18_3 H 0.3837 0.8464 0.5354
H19_3 H 0.3560 0.9087 0.5754
C29_3 C 0.4299(2) 0.9530(2) 0.51711(13)
C30_3 C 0.1398(2) 0.9434(2) 0.46595(14)
H20_3 H 0.1000 0.9717 0.4431
C31_3 C 0.1510(3) 0.6818(3) 0.6279(2)
H21_3 H 0.1377 0.6457 0.6530
C32_3 C 0.2419(3) 0.6997(3) 0.6188(2)
H22_3 H 0.2913 0.6736 0.6365
O9_2 O 0.15439(16) 0.68157(14) 0.04442(9)
O14_2 O 0.01690(17) 0.74315(13) 0.04460(9)
C35_2 C 0.0569(2) 0.65742(18) 0.11268(11)
C42_2 C 0.0802(2) 0.55309(19) 0.17308(11)
H25_2 H 0.1086 0.5067 0.1824
C43_2 C 0.0992(2) 0.58863(19) 0.12685(12)
H26_2 H 0.1407 0.5661 0.1051
C45_2 C 0.0189(2) 0.58661(18) 0.20532(10)
C46_3 C 0.5650(2) 0.9718(2) 0.46818(14)
H27_3 H 0.6088 0.9519 0.4467
C60_2 C 0.0786(2) 0.69740(19) 0.06322(11)
O19_2 O 0.12662(14) 0.78530(14) 0.94131(8)
O22_2 O 0.05103(16) 0.89275(14) 0.92702(8)
O1_2 O 0.84561(16) 0.68157(14) 0.45558(9)
O2_3 O 1.0000 0.54649(18) 0.2500
O5_2 O 0.98310(17) 0.74315(13) 0.45540(9)
C2_2 C 0.9431(2) 0.65742(18) 0.38732(11)
C9_2 C 0.9198(2) 0.55309(19) 0.32692(11)
H3_2 H 0.8914 0.5067 0.3176
C10_2 C 0.9008(2) 0.58863(19) 0.37315(12)
H4_2 H 0.8593 0.5661 0.3949
C12_2 C 0.9811(2) 0.58661(18) 0.29468(10)
C27_2 C 0.9214(2) 0.69740(19) 0.43678(11)
O10_3 O 0.65439(16) 0.81843(14) 0.54442(9)
O12_3 O 0.72901(17) 0.65003(14) 0.55513(10)
N8_2 N 0.88562(17) 0.88067(16) 0.00669(10)
C54_2 C 0.9948(2) 0.6901(2) 0.14524(12)
H34_2 H 0.9661 0.7363 0.1358
C56_2 C 0.9748(2) 0.6553(2) 0.19149(12)
H36_2 H 0.9327 0.6775 0.2130
O18_2 O 0.87338(14) 0.78530(14) 0.55869(8)
O21_2 O 0.94897(16) 0.89275(14) 0.57298(8)
N5_2 N 0.90380(19) 0.77199(16) 0.93637(10)
O10_4 O 0.34561(16) 0.81843(14) 0.95558(9)
O12_4 O 0.27099(17) 0.65003(14) 0.94487(10)
N4_4 N 0.09620(19) 0.22801(16) 0.06363(10)
N6_4 N 0.26515(17) 0.09757(16) 0.01190(11)
C40_4 C 0.1856(2) 0.20731(18) 0.05720(12)
C44_4 C 0.19121(19) 0.14346(18) 0.02090(11)
C48_4 C 0.0806(3) 0.2816(2) 0.09912(15)
H29_4 H 0.0190 0.2945 0.1045
C57_4 C 0.2598(3) 0.2440(2) 0.08393(18)
H37_4 H 0.3212 0.2306 0.0782
C61_4 C 0.3603(2) 0.1019(2) 0.03853(16)
H40_4 H 0.3837 0.1536 0.0354
H41_4 H 0.3560 0.0913 0.0754
C62_4 C 0.4299(2) 0.0470(2) 0.01711(13)
C64_4 C 0.1510(3) 0.3182(3) 0.1279(2)
H43_4 H 0.1377 0.3543 0.1530
C65_4 C 0.2419(3) 0.3003(3) 0.1188(2)
H44_4 H 0.2913 0.3264 0.1365
C13_4 C 0.5650(2) 0.0282(2) 0.96818(14)
H5_4 H 0.6088 0.0481 0.9467
C39_4 C 0.4954(2) 0.0748(2) 0.98495(14)
H24_4 H 0.4925 0.1257 0.9744
N7_4 N 0.11438(17) 0.11933(16) 0.99331(10)
C50_4 C 0.2324(2) 0.0420(2) 0.97735(14)
H31_4 H 0.2669 0.0021 0.9643
C63_4 C 0.1398(2) 0.0566(2) 0.96595(14)
H42_4 H 0.1000 0.0283 0.9431
C6_4 C 0.5046(2) 0.9252(2) 0.01505(14)
H2_4 H 0.5075 0.8743 0.0256
C17_4 C 0.7676(2) 0.9580(2) 0.02265(14)
H9_4 H 0.7331 0.9979 0.0357
C30_4 C 0.8602(2) 0.9434(2) 0.03405(14)
H20_4 H 0.9000 0.9717 0.0569
C46_4 C 0.4350(2) 0.9718(2) 0.03182(14)
H27_4 H 0.3912 0.9519 0.0533
N2_4 N 0.73485(17) 0.90243(16) 0.98810(11)
C7_4 C 0.8144(2) 0.79269(18) 0.94280(12)
C11_4 C 0.80879(19) 0.85654(18) 0.97910(11)
C15_4 C 0.9194(3) 0.7184(2) 0.90088(15)
H7_4 H 0.9810 0.7055 0.8955
C24_4 C 0.7402(3) 0.7560(2) 0.91607(18)
H15_4 H 0.6788 0.7694 0.9218
C28_4 C 0.6397(2) 0.8981(2) 0.96147(16)
H18_4 H 0.6163 0.8464 0.9646
H19_4 H 0.6440 0.9087 0.9246
C29_4 C 0.5701(2) 0.9530(2) 0.98289(13)
C31_4 C 0.8490(3) 0.6818(3) 0.8721(2)
H21_4 H 0.8623 0.6457 0.8470
C32_4 C 0.7581(3) 0.6997(3) 0.8812(2)
H22_4 H 0.7087 0.6736 0.8635
C37_3 C 0.8087(2) 0.04515(18) 0.89177(11)
C41_3 C 0.8325(2) 0.10359(18) 0.93375(11)
O15_3 O 0.91445(16) 0.09963(14) 0.95461(9)
C53_3 C 0.7280(2) 0.0515(2) 0.85875(13)
H33_3 H 0.6880 0.0929 0.8622
H38_3 H 0.6526 0.0018 0.7985
O2_4 O 0.5000 0.95351(18) 0.7500
O4_3 O 0.7620(2) 0.37676(16) 0.71839(9)
O5_3 O 0.51690(17) 0.75685(13) 0.54460(9)
C1_3 C 0.6477(2) 0.35232(18) 0.86160(11)
C2_3 C 0.5569(2) 0.84258(18) 0.61268(11)
C3_3 C 0.7192(2) 0.3710(2) 0.76495(12)
C4_3 C 0.6913(2) 0.54515(18) 0.60823(11)
C5_3 C 0.6326(2) 0.4839(2) 0.61423(12)
H1_3 H 0.5776 0.4797 0.5928
C8_3 C 0.6675(2) 0.60359(18) 0.56625(11)
C9_3 C 0.5802(2) 0.94691(19) 0.67308(11)
H3_3 H 0.6086 0.9933 0.6824
O6_2 O 0.58555(16) 0.59963(14) 0.54539(9)
C10_3 C 0.5992(2) 0.91137(19) 0.62685(12)
H4_3 H 0.6407 0.9339 0.6051
C12_3 C 0.5189(2) 0.91339(18) 0.70532(10)
C14_3 C 0.6543(3) 0.4283(2) 0.65183(13)
H6_3 H 0.6147 0.3867 0.6554
C16_3 C 0.7054(2) 0.29666(19) 0.84203(11)
H8_3 H 0.7202 0.2530 0.8617
C18_3 C 0.7351(2) 0.4354(2) 0.68362(12)
C19_3 C 0.6620(3) 0.4265(2) 0.78338(13)
H10_3 H 0.6475 0.4701 0.7636
C20_3 C 0.7720(2) 0.5515(2) 0.64125(13)
H11_3 H 0.8120 0.5929 0.6378
C21_3 C 0.4948(2) 0.8099(2) 0.64524(12)
H12_3 H 0.4661 0.7637 0.6358
C22_3 C 0.6265(3) 0.4167(2) 0.83156(13)
H13_3 H 0.5875 0.4540 0.8441
C23_3 C 0.4748(2) 0.8447(2) 0.69149(12)
H14_3 H 0.4327 0.8225 0.7130
C25_3 C 0.7936(3) 0.4969(2) 0.67916(13)
H16_3 H 0.8474 0.5018 0.7015
C26_3 C 0.7408(2) 0.3057(2) 0.79389(12)
H17_3 H 0.7790 0.2682 0.7809
C27_3 C 0.5786(2) 0.80260(19) 0.56322(11)
C33_3 C 0.6075(2) 0.34319(19) 0.91299(11)
O13_3 O 0.7380(2) 0.87676(16) 0.78161(9)
O14_3 O 0.48310(17) 0.75685(13) 0.95540(9)
C34_3 C 0.8523(2) 0.85232(18) 0.63840(11)
C35_3 C 0.4431(2) 0.84258(18) 0.88732(11)
C36_3 C 0.7808(2) 0.8710(2) 0.73505(12)
C38_3 C 0.8674(2) 0.9839(2) 0.88577(12)
H23_3 H 0.9224 0.9797 0.9072
C42_3 C 0.4198(2) 0.94691(19) 0.82692(11)
H25_3 H 0.3914 0.9933 0.8176
O16_2 O 0.41445(16) 0.59963(14) 0.95461(9)
C43_3 C 0.4008(2) 0.91137(19) 0.87315(12)
H26_3 H 0.3593 0.9339 0.8949
C45_3 C 0.4811(2) 0.91339(18) 0.79468(10)
C47_3 C 0.8457(3) 0.9283(2) 0.84817(13)
H28_3 H 0.8853 0.8867 0.8446
C49_3 C 0.7946(2) 0.79666(19) 0.65797(11)
H30_3 H 0.7798 0.7530 0.6383
C51_3 C 0.7649(2) 0.9354(2) 0.81638(12)
C52_3 C 0.8380(3) 0.9265(2) 0.71662(13)
H32_3 H 0.8525 0.9701 0.7364
C54_3 C 0.5052(2) 0.8099(2) 0.85476(12)
H34_3 H 0.5339 0.7637 0.8642
C55_3 C 0.8735(3) 0.9167(2) 0.66844(13)
H35_3 H 0.9125 0.9540 0.6559
C56_3 C 0.5252(2) 0.8447(2) 0.80851(12)
H36_3 H 0.5673 0.8225 0.7870
C58_3 C 0.7064(3) 0.9969(2) 0.82084(13)
C59_3 C 0.7592(2) 0.8057(2) 0.70611(12)
H39_3 H 0.7210 0.7682 0.7191
C60_3 C 0.4214(2) 0.80260(19) 0.93678(11)
C66_3 C 0.8925(2) 0.84319(19) 0.58701(11)
C37_4 C 0.1913(2) 0.04515(18) 0.60823(11)
C41_4 C 0.1675(2) 0.10359(18) 0.56625(11)
O15_4 O 0.08555(16) 0.09963(14) 0.54539(9)
C53_4 C 0.2720(2) 0.0515(2) 0.64125(13)
H33_4 H 0.3120 0.0929 0.6378
H38_4 H 0.3474 0.0018 0.7015
O4_4 O 0.2380(2) 0.37676(16) 0.78161(9)
C1_4 C 0.3523(2) 0.35232(18) 0.63840(11)
C3_4 C 0.2808(2) 0.3710(2) 0.73505(12)
C4_4 C 0.3087(2) 0.54515(18) 0.89177(11)
C5_4 C 0.3674(2) 0.4839(2) 0.88577(12)
H1_4 H 0.4224 0.4797 0.9072
C8_4 C 0.3325(2) 0.60359(18) 0.93375(11)
C14_4 C 0.3457(3) 0.4283(2) 0.84817(13)
H6_4 H 0.3853 0.3867 0.8446
C16_4 C 0.2946(2) 0.29666(19) 0.65797(11)
H8_4 H 0.2798 0.2530 0.6383
C18_4 C 0.2649(2) 0.4354(2) 0.81638(12)
C19_4 C 0.3380(3) 0.4265(2) 0.71662(13)
H10_4 H 0.3525 0.4701 0.7364
C20_4 C 0.2280(2) 0.5515(2) 0.85875(13)
H11_4 H 0.1880 0.5929 0.8622
C22_4 C 0.3735(3) 0.4167(2) 0.66844(13)
H13_4 H 0.4125 0.4540 0.6559
C25_4 C 0.2064(3) 0.4969(2) 0.82084(13)
H16_4 H 0.1526 0.5018 0.7985
C26_4 C 0.2592(2) 0.3057(2) 0.70611(12)
H17_4 H 0.2210 0.2682 0.7191
C33_4 C 0.3925(2) 0.34319(19) 0.58701(11)
O13_4 O 0.2620(2) 0.87676(16) 0.71839(9)
C34_4 C 0.1477(2) 0.85232(18) 0.86160(11)
C36_4 C 0.2192(2) 0.8710(2) 0.76495(12)
C38_4 C 0.1326(2) 0.9839(2) 0.61423(12)
H23_4 H 0.0776 0.9797 0.5928
C47_4 C 0.1543(3) 0.9283(2) 0.65183(13)
H28_4 H 0.1147 0.8867 0.6554
C49_4 C 0.2054(2) 0.79666(19) 0.84203(11)
H30_4 H 0.2202 0.7530 0.8617
C51_4 C 0.2351(2) 0.9354(2) 0.68362(12)
C52_4 C 0.1620(3) 0.9265(2) 0.78338(13)
H32_4 H 0.1475 0.9701 0.7636
C55_4 C 0.1265(3) 0.9167(2) 0.83156(13)
H35_4 H 0.0875 0.9540 0.8441
C58_4 C 0.2936(3) 0.9969(2) 0.67916(13)
C59_4 C 0.2408(2) 0.8057(2) 0.79389(12)
H39_4 H 0.2790 0.7682 0.7809
C66_4 C 0.1075(2) 0.84319(19) 0.91299(11)
O2_5 O -0.0000 0.45351(18) 0.7500
O5_4 O 0.01690(17) 0.25685(13) 0.54460(9)
C2_4 C 0.0569(2) 0.34258(18) 0.61268(11)
C9_4 C 0.0802(2) 0.44691(19) 0.67308(11)
H3_4 H 0.1086 0.4933 0.6824
C10_4 C 0.0992(2) 0.41137(19) 0.62685(12)
H4_4 H 0.1407 0.4339 0.6051
C12_4 C 0.0189(2) 0.41339(18) 0.70532(10)
C27_4 C 0.0786(2) 0.30260(19) 0.56322(11)
C54_4 C 0.0052(2) 0.3099(2) 0.85476(12)
H34_4 H 0.0339 0.2637 0.8642
C56_4 C 0.0252(2) 0.3447(2) 0.80851(12)
H36_4 H 0.0673 0.3225 0.7870
O2_6 O 1.0000 0.45351(18) 0.7500
C21_4 C 0.9948(2) 0.3099(2) 0.64524(12)
H12_4 H 0.9661 0.2637 0.6358
C23_4 C 0.9748(2) 0.3447(2) 0.69149(12)
H14_4 H 0.9327 0.3225 0.7130
O14_4 O 0.98310(17) 0.25685(13) 0.95540(9)
C35_4 C 0.9431(2) 0.34258(18) 0.88732(11)
C42_4 C 0.9198(2) 0.44691(19) 0.82692(11)
H25_4 H 0.8914 0.4933 0.8176
C43_4 C 0.9008(2) 0.41137(19) 0.87315(12)
H26_4 H 0.8593 0.4339 0.8949
C45_4 C 0.9811(2) 0.41339(18) 0.79468(10)
C60_4 C 0.9214(2) 0.30260(19) 0.93678(11)
loop_
_geom_bond_atom_site_label_1
_geom_bond_atom_site_label_2
_geom_bond_site_symmetry_1
_geom_bond_site_symmetry_2
Zn8 N4 1_555 1_555
N4 C40 1_555 1_555
N6 C44 1_555 1_555
H24 C39 1_555 1_555
C40 C44 1_555 1_555
N7 Zn8 1_555 1_555
C44 N7 1_555 1_555
H27 C46 1_555 1_555
C48 N4 1_555 1_555
H29 C48 1_555 1_555
C50 N6 1_555 1_555
H31 C50 1_555 1_555
C57 C40 1_555 1_555
H37 C57 1_555 1_555
C61 N6 1_555 1_555
H40 C61 1_555 1_555
H41 C61 1_555 1_555
C62 C39 1_555 1_555
C63 N7 1_555 1_555
H42 C63 1_555 1_555
C64 C48 1_555 1_555
H43 C64 1_555 1_555
C65 C57 1_555 1_555
H44 C65 1_555 1_555
C46 C62 1_555 1_555
C50 C63 1_555 1_555
C61 C62 1_555 1_555
C64 C65 1_555 1_555
Zn1 O1 1_555 1_555
Zn2 N1 1_555 1_555
O1 C27 1_555 1_555
O2 C12 1_555 1_555
O3 Zn1 1_555 1_555
O4 C3 1_555 1_555
N1 C7 1_555 1_555
N2 C11 1_555 1_555
O5 Zn2 1_555 1_555
C1 C16 1_555 1_555
C2 C10 1_555 1_555
C3 C19 1_555 1_555
C4 C5 1_555 1_555
C5 H1 1_555 1_555
C6 H2 1_555 1_555
C7 C11 1_555 1_555
C8 O3 1_555 1_555
C9 H3 1_555 1_555
O6 Zn2 1_555 1_555
N3 Zn2 1_555 1_555
C10 C9 1_555 1_555
H4 C10 1_555 1_555
C11 N3 1_555 1_555
C12 C9 1_555 1_555
C13 H5 1_555 1_555
C14 C5 1_555 1_555
H6 C14 1_555 1_555
C15 N1 1_555 1_555
H7 C15 1_555 1_555
C16 H8 1_555 1_555
C17 N2 1_555 1_555
H9 C17 1_555 1_555
C18 O4 1_555 1_555
C19 H10 1_555 1_555
C20 C4 1_555 1_555
H11 C20 1_555 1_555
C21 C2 1_555 1_555
H12 C21 1_555 1_555
C22 C1 1_555 1_555
H13 C22 1_555 1_555
C23 C12 1_555 1_555
H14 C23 1_555 1_555
C24 C7 1_555 1_555
H15 C24 1_555 1_555
C25 C18 1_555 1_555
H16 C25 1_555 1_555
C26 C3 1_555 1_555
H17 C26 1_555 1_555
C27 O5 1_555 1_555
C28 N2 1_555 1_555
H18 C28 1_555 1_555
H19 C28 1_555 1_555
C29 C6 1_555 1_555
C30 N3 1_555 1_555
H20 C30 1_555 1_555
C31 C15 1_555 1_555
H21 C31 1_555 1_555
C32 C24 1_555 1_555
H22 C32 1_555 1_555
C33 C1 1_555 1_555
O7 C33 1_555 1_555
O8 C33 1_555 1_555
Zn3 O7 1_555 1_555
Zn4 O9 1_555 1_555
Zn7 O7 1_555 1_555
Zn10 O17 1_555 1_555
O9 C60 1_555 1_555
O10 Zn1 1_555 1_555
O12 Zn1 1_555 1_555
O13 C36 1_555 1_555
C34 C49 1_555 1_555
C35 C43 1_555 1_555
C36 C52 1_555 1_555
C38 H23 1_555 1_555
C42 H25 1_555 1_555
C43 C42 1_555 1_555
H26 C43 1_555 1_555
C45 O2 1_555 1_555
C47 C38 1_555 1_555
H28 C47 1_555 1_555
C49 H30 1_555 1_555
C51 O13 1_555 1_555
C52 H32 1_555 1_555
C54 C35 1_555 1_555
H34 C54 1_555 1_555
C55 C34 1_555 1_555
H35 C55 1_555 1_555
C56 C45 1_555 1_555
H36 C56 1_555 1_555
C58 C51 1_555 1_555
C59 C36 1_555 1_555
H39 C59 1_555 1_555
C60 O14 1_555 1_555
C66 C34 1_555 1_555
O17 Zn1 1_555 1_555
O18 Zn1 1_555 1_555
O20 Zn10 1_555 1_555
O21 Zn2 1_555 1_555
Zn2 O18 1_555 1_555
C2 C27 1_555 1_555
C4 C8 1_555 1_555
C8 O6 1_555 1_555
C13 C29 1_555 1_555
C14 C18 1_555 1_555
C16 C26 1_555 1_555
C17 C30 1_555 1_555
C19 C22 1_555 1_555
C20 C25 1_555 1_555
C21 C23 1_555 1_555
C28 C29 1_555 1_555
C31 C32 1_555 1_555
O8 Zn7 1_555 1_555
C35 C60 1_555 1_555
C42 C45 1_555 1_555
C47 C51 1_555 1_555
C49 C59 1_555 1_555
C52 C55 1_555 1_555
C54 C56 1_555 1_555
C66 O17 1_555 1_555
C66 O20 1_555 1_555
Zn6 N5 1_555 1_555
O19 Zn4_2 1_555 1_555
O22 Zn6 1_555 1_555
Zn6 O19 1_555 1_555
Zn3 O11 1_555 1_555
O11 C41 1_555 1_555
C41 C37 1_555 1_555
O15 C41 1_555 1_555
C53 C37 1_555 1_555
H33 C53 1_555 1_555
O3_2 Zn4 1_555 1_555
O4_2 C3_2 1_555 1_555
C1_2 C16_2 1_555 1_555
C3_2 C19_2 1_555 1_555
C4_2 C5_2 1_555 1_555
C5_2 H1_2 1_555 1_555
C6_2 H2_2 1_555 1_555
C8_2 O3_2 1_555 1_555
C14_2 C5_2 1_555 1_555
H6_2 C14_2 1_555 1_555
C16_2 H8_2 1_555 1_555
H9_2 C17_2 1_555 1_555
C18_2 O4_2 1_555 1_555
C19_2 H10_2 1_555 1_555
C20_2 C4_2 1_555 1_555
H11_2 C20_2 1_555 1_555
C22_2 C1_2 1_555 1_555
H13_2 C22_2 1_555 1_555
C25_2 C18_2 1_555 1_555
H16_2 C25_2 1_555 1_555
C26_2 C3_2 1_555 1_555
H17_2 C26_2 1_555 1_555
C30_2 N8 1_555 1_555
H20_2 C30_2 1_555 1_555
C33_2 C1_2 1_555 1_555
O7_2 C33_2 1_555 1_555
O8_2 C33_2 1_555 1_555
Zn3_3 O7_2 1_555 1_555
Zn8 O7_2 1_555 1_555
Zn10_2 O17_2 1_555 1_555
O13_2 C36_2 1_555 1_555
C34_2 C49_2 1_555 1_555
C36_2 C52_2 1_555 1_555
C38_2 H23_2 1_555 1_555
C47_2 C38_2 1_555 1_555
H28_2 C47_2 1_555 1_555
C49_2 H30_2 1_555 1_555
C51_2 O13_2 1_555 1_555
C52_2 H32_2 1_555 1_555
C55_2 C34_2 1_555 1_555
H35_2 C55_2 1_555 1_555
C58_2 C51_2 1_555 1_555
C59_2 C36_2 1_555 1_555
H39_2 C59_2 1_555 1_555
C66_2 C34_2 1_555 1_555
O17_2 Zn4 1_555 1_555
O20_2 Zn10_2 1_555 1_555
C4_2 C8_2 1_555 1_555
C8_2 O16 1_555 1_555
C14_2 C18_2 1_555 1_555
C16_2 C26_2 1_555 1_555
C17_2 C30_2 1_555 1_555
C19_2 C22_2 1_555 1_555
C20_2 C25_2 1_555 1_555
O8_2 Zn8 1_555 1_555
C47_2 C51_2 1_555 1_555
C49_2 C59_2 1_555 1_555
C52_2 C55_2 1_555 1_555
C66_2 O17_2 1_555 1_555
C66_2 O20_2 1_555 1_555
N5 C7_2 1_555 1_555
N2_2 C11_2 1_555 1_555
C7_2 C11_2 1_555 1_555
C13_2 H5_2 1_555 1_555
C15_2 N5 1_555 1_555
H7_2 C15_2 1_555 1_555
C24_2 C7_2 1_555 1_555
H15_2 C24_2 1_555 1_555
C28_2 N2_2 1_555 1_555
H18_2 C28_2 1_555 1_555
H19_2 C28_2 1_555 1_555
C31_2 C15_2 1_555 1_555
H21_2 C31_2 1_555 1_555
C32_2 C24_2 1_555 1_555
H22_2 C32_2 1_555 1_555
O10_2 Zn4_2 1_555 1_555
O12_2 Zn4_2 1_555 1_555
C13_2 C29_2 1_555 1_555
C28_2 C29_2 1_555 1_555
C31_2 C32_2 1_555 1_555
Zn3_3 O11_2 1_555 1_555
Zn9_2 O15_2 1_555 1_555
O11_2 C41_2 1_555 1_555
C41_2 C37_2 1_555 1_555
O15_2 C41_2 1_555 1_555
C53_2 C37_2 1_555 1_555
H33_2 C53_2 1_555 1_555
Zn7 N4_2 1_555 1_555
N4_2 C40_2 1_555 1_555
N6_2 C44_2 1_555 1_555
C40_2 C44_2 1_555 1_555
H27_2 C46_2 1_555 1_555
C48_2 N4_2 1_555 1_555
H29_2 C48_2 1_555 1_555
C57_2 C40_2 1_555 1_555
H37_2 C57_2 1_555 1_555
C61_2 N6_2 1_555 1_555
H40_2 C61_2 1_555 1_555
H41_2 C61_2 1_555 1_555
C64_2 C48_2 1_555 1_555
H43_2 C64_2 1_555 1_555
C65_2 C57_2 1_555 1_555
H44_2 C65_2 1_555 1_555
C46_2 C62_2 1_555 1_555
C61_2 C62_2 1_555 1_555
C64_2 C65_2 1_555 1_555
H24_2 C39_2 1_555 1_555
H31_2 C50_2 1_555 1_555
C63_2 N7_2 1_555 1_555
H42_2 C63_2 1_555 1_555
C50_2 C63_2 1_555 1_555
C13_3 H5_3 1_555 1_555
N4_3 C40_3 1_555 1_555
N6_3 C44_3 1_555 1_555
C39_3 C13_3 1_555 1_555
H24_3 C39_3 1_555 1_555
C40_3 C44_3 1_555 1_555
C44_3 N7_3 1_555 1_555
C48_3 N4_3 1_555 1_555
H29_3 C48_3 1_555 1_555
C50_3 N6_3 1_555 1_555
H31_3 C50_3 1_555 1_555
C57_3 C40_3 1_555 1_555
H37_3 C57_3 1_555 1_555
C61_3 N6_3 1_555 1_555
H40_3 C61_3 1_555 1_555
H41_3 C61_3 1_555 1_555
C62_3 C39_3 1_555 1_555
C63_3 N7_3 1_555 1_555
H42_3 C63_3 1_555 1_555
C64_3 C48_3 1_555 1_555
H43_3 C64_3 1_555 1_555
C65_3 C57_3 1_555 1_555
H44_3 C65_3 1_555 1_555
C50_3 C63_3 1_555 1_555
C61_3 C62_3 1_555 1_555
C64_3 C65_3 1_555 1_555
N1_2 C7_3 1_555 1_555
N2_3 C11_3 1_555 1_555
C6_3 H2_3 1_555 1_555
C7_3 C11_3 1_555 1_555
C11_3 N3_2 1_555 1_555
C15_3 N1_2 1_555 1_555
H7_3 C15_3 1_555 1_555
C17_3 N2_3 1_555 1_555
H9_3 C17_3 1_555 1_555
H12_2 C21_2 1_555 1_555
H14_2 C23_2 1_555 1_555
C24_3 C7_3 1_555 1_555
H15_3 C24_3 1_555 1_555
C28_3 N2_3 1_555 1_555
H18_3 C28_3 1_555 1_555
H19_3 C28_3 1_555 1_555
C29_3 C6_3 1_555 1_555
C30_3 N3_2 1_555 1_555
H20_3 C30_3 1_555 1_555
C31_3 C15_3 1_555 1_555
H21_3 C31_3 1_555 1_555
C32_3 C24_3 1_555 1_555
H22_3 C32_3 1_555 1_555
Zn3 O9_2 1_555 1_555
O9_2 C60_2 1_555 1_555
C35_2 C43_2 1_555 1_555
C42_2 H25_2 1_555 1_555
C43_2 C42_2 1_555 1_555
H26_2 C43_2 1_555 1_555
C45_2 O2_2 1_555 1_555
C46_3 C6_3 1_555 1_555
H27_3 C46_3 1_555 1_555
C60_2 O14_2 1_555 1_555
C17_3 C30_3 1_555 1_555
C21_2 C23_2 1_555 1_555
C28_3 C29_3 1_555 1_555
C31_3 C32_3 1_555 1_555
C35_2 C60_2 1_555 1_555
C42_2 C45_2 1_555 1_555
O19_2 Zn3_2 1_555 1_555
O22_2 Zn9 1_555 1_555
Zn9 O19_2 1_555 1_555
Zn3_3 O1_2 1_555 1_555
O1_2 C27_2 1_555 1_555
O2_3 C12_2 1_555 1_555
O5_2 Zn9_2 1_555 1_555
C2_2 C10_2 1_555 1_555
C9_2 H3_2 1_555 1_555
C10_2 C9_2 1_555 1_555
H4_2 C10_2 1_555 1_555
C12_2 C9_2 1_555 1_555
C27_2 O5_2 1_555 1_555
O10_3 Zn3_3 1_555 1_555
O12_3 Zn3_3 1_555 1_555
H34_2 C54_2 1_555 1_555
H36_2 C56_2 1_555 1_555
O18_2 Zn3_3 1_555 1_555
O21_2 Zn9_2 1_555 1_555
Zn9_2 O18_2 1_555 1_555
C2_2 C27_2 1_555 1_555
C54_2 C56_2 1_555 1_555
O10_4 Zn3_2 1_555 1_555
O12_4 Zn3_2 1_555 1_555
N4_4 C40_4 1_555 1_555
N6_4 C44_4 1_555 1_555
C40_4 C44_4 1_555 1_555
C48_4 N4_4 1_555 1_555
H29_4 C48_4 1_555 1_555
C57_4 C40_4 1_555 1_555
H37_4 C57_4 1_555 1_555
C61_4 N6_4 1_555 1_555
H40_4 C61_4 1_555 1_555
H41_4 C61_4 1_555 1_555
C64_4 C48_4 1_555 1_555
H43_4 C64_4 1_555 1_555
C65_4 C57_4 1_555 1_555
H44_4 C65_4 1_555 1_555
C61_4 C62_4 1_555 1_555
C64_4 C65_4 1_555 1_555
C13_4 H5_4 1_555 1_555
C39_4 C13_4 1_555 1_555
H24_4 C39_4 1_555 1_555
H31_4 C50_4 1_555 1_555
C63_4 N7_4 1_555 1_555
H42_4 C63_4 1_555 1_555
C50_4 C63_4 1_555 1_555
C6_4 H2_4 1_555 1_555
H9_4 C17_4 1_555 1_555
C30_4 N8_2 1_555 1_555
H20_4 C30_4 1_555 1_555
C46_4 C6_4 1_555 1_555
H27_4 C46_4 1_555 1_555
C17_4 C30_4 1_555 1_555
N5_2 C7_4 1_555 1_555
N2_4 C11_4 1_555 1_555
C7_4 C11_4 1_555 1_555
C15_4 N5_2 1_555 1_555
H7_4 C15_4 1_555 1_555
C24_4 C7_4 1_555 1_555
H15_4 C24_4 1_555 1_555
C28_4 N2_4 1_555 1_555
H18_4 C28_4 1_555 1_555
H19_4 C28_4 1_555 1_555
C31_4 C15_4 1_555 1_555
H21_4 C31_4 1_555 1_555
C32_4 C24_4 1_555 1_555
H22_4 C32_4 1_555 1_555
C28_4 C29_4 1_555 1_555
C31_4 C32_4 1_555 1_555
O12_2 C41_3 1_555 1_555
C41_3 C37_3 1_555 1_555
O15_3 C41_3 1_555 1_555
C53_3 C37_3 1_555 1_555
H33_3 C53_3 1_555 1_555
O10_3 C27_3 1_555 1_555
O2_4 C12_3 1_555 1_555
O4_3 C3_3 1_555 1_555
O5_3 Zn8 1_555 1_555
C1_3 C16_3 1_555 1_555
C2_3 C10_3 1_555 1_555
C3_3 C19_3 1_555 1_555
C4_3 C5_3 1_555 1_555
C5_3 H1_3 1_555 1_555
C8_3 O12_3 1_555 1_555
C9_3 H3_3 1_555 1_555
O6_2 Zn8 1_555 1_555
C10_3 C9_3 1_555 1_555
H4_3 C10_3 1_555 1_555
C12_3 C9_3 1_555 1_555
C14_3 C5_3 1_555 1_555
H6_3 C14_3 1_555 1_555
C16_3 H8_3 1_555 1_555
C18_3 O4_3 1_555 1_555
C19_3 H10_3 1_555 1_555
C20_3 C4_3 1_555 1_555
H11_3 C20_3 1_555 1_555
C21_3 C2_3 1_555 1_555
H12_3 C21_3 1_555 1_555
C22_3 C1_3 1_555 1_555
H13_3 C22_3 1_555 1_555
C23_3 C12_3 1_555 1_555
H14_3 C23_3 1_555 1_555
C25_3 C18_3 1_555 1_555
H16_3 C25_3 1_555 1_555
C26_3 C3_3 1_555 1_555
H17_3 C26_3 1_555 1_555
C27_3 O5_3 1_555 1_555
C33_3 C1_3 1_555 1_555
O19 C33_3 1_555 1_555
O22 C33_3 1_555 1_555
O10_4 C60_3 1_555 1_555
O13_3 C36_3 1_555 1_555
C34_3 C49_3 1_555 1_555
C35_3 C43_3 1_555 1_555
C36_3 C52_3 1_555 1_555
C38_3 H23_3 1_555 1_555
C42_3 H25_3 1_555 1_555
C43_3 C42_3 1_555 1_555
H26_3 C43_3 1_555 1_555
C45_3 O2_4 1_555 1_555
C47_3 C38_3 1_555 1_555
H28_3 C47_3 1_555 1_555
C49_3 H30_3 1_555 1_555
C51_3 O13_3 1_555 1_555
C52_3 H32_3 1_555 1_555
C54_3 C35_3 1_555 1_555
H34_3 C54_3 1_555 1_555
C55_3 C34_3 1_555 1_555
H35_3 C55_3 1_555 1_555
C56_3 C45_3 1_555 1_555
H36_3 C56_3 1_555 1_555
C58_3 C51_3 1_555 1_555
C59_3 C36_3 1_555 1_555
H39_3 C59_3 1_555 1_555
C60_3 O14_3 1_555 1_555
C66_3 C34_3 1_555 1_555
C2_3 C27_3 1_555 1_555
C4_3 C8_3 1_555 1_555
C8_3 O6_2 1_555 1_555
C14_3 C18_3 1_555 1_555
C16_3 C26_3 1_555 1_555
C19_3 C22_3 1_555 1_555
C20_3 C25_3 1_555 1_555
C21_3 C23_3 1_555 1_555
C35_3 C60_3 1_555 1_555
C42_3 C45_3 1_555 1_555
C47_3 C51_3 1_555 1_555
C49_3 C59_3 1_555 1_555
C52_3 C55_3 1_555 1_555
C54_3 C56_3 1_555 1_555
C66_3 O18_2 1_555 1_555
C66_3 O21_2 1_555 1_555
Zn10 O15_4 1_555 1_555
O12 C41_4 1_555 1_555
C41_4 C37_4 1_555 1_555
O15_4 C41_4 1_555 1_555
C53_4 C37_4 1_555 1_555
H33_4 C53_4 1_555 1_555
O4_4 C3_4 1_555 1_555
C1_4 C16_4 1_555 1_555
C3_4 C19_4 1_555 1_555
C4_4 C5_4 1_555 1_555
C5_4 H1_4 1_555 1_555
C8_4 O12_4 1_555 1_555
C14_4 C5_4 1_555 1_555
H6_4 C14_4 1_555 1_555
C16_4 H8_4 1_555 1_555
C18_4 O4_4 1_555 1_555
C19_4 H10_4 1_555 1_555
C20_4 C4_4 1_555 1_555
H11_4 C20_4 1_555 1_555
C22_4 C1_4 1_555 1_555
H13_4 C22_4 1_555 1_555
C25_4 C18_4 1_555 1_555
H16_4 C25_4 1_555 1_555
C26_4 C3_4 1_555 1_555
H17_4 C26_4 1_555 1_555
C33_4 C1_4 1_555 1_555
O18 C33_4 1_555 1_555
O21 C33_4 1_555 1_555
O13_4 C36_4 1_555 1_555
C34_4 C49_4 1_555 1_555
C36_4 C52_4 1_555 1_555
C38_4 H23_4 1_555 1_555
C47_4 C38_4 1_555 1_555
H28_4 C47_4 1_555 1_555
C49_4 H30_4 1_555 1_555
C51_4 O13_4 1_555 1_555
C52_4 H32_4 1_555 1_555
C55_4 C34_4 1_555 1_555
H35_4 C55_4 1_555 1_555
C58_4 C51_4 1_555 1_555
C59_4 C36_4 1_555 1_555
H39_4 C59_4 1_555 1_555
C66_4 C34_4 1_555 1_555
C4_4 C8_4 1_555 1_555
C8_4 O16_2 1_555 1_555
C14_4 C18_4 1_555 1_555
C16_4 C26_4 1_555 1_555
C19_4 C22_4 1_555 1_555
C20_4 C25_4 1_555 1_555
C47_4 C51_4 1_555 1_555
C49_4 C59_4 1_555 1_555
C52_4 C55_4 1_555 1_555
C66_4 O19_2 1_555 1_555
C66_4 O22_2 1_555 1_555
O10 C27_4 1_555 1_555
O2_5 C12_4 1_555 1_555
O5_4 Zn10 1_555 1_555
C2_4 C10_4 1_555 1_555
C9_4 H3_4 1_555 1_555
C10_4 C9_4 1_555 1_555
H4_4 C10_4 1_555 1_555
C12_4 C9_4 1_555 1_555
C27_4 O5_4 1_555 1_555
H34_4 C54_4 1_555 1_555
H36_4 C56_4 1_555 1_555
C2_4 C27_4 1_555 1_555
C54_4 C56_4 1_555 1_555
H12_4 C21_4 1_555 1_555
H14_4 C23_4 1_555 1_555
O10_2 C60_4 1_555 1_555
C35_4 C43_4 1_555 1_555
C42_4 H25_4 1_555 1_555
C43_4 C42_4 1_555 1_555
H26_4 C43_4 1_555 1_555
C45_4 O2_6 1_555 1_555
C60_4 O14_4 1_555 1_555
C21_4 C23_4 1_555 1_555
C35_4 C60_4 1_555 1_555
C42_4 C45_4 1_555 1_555

#END
