
###############################################################################
#
# This file contains modified crystal structure data generated from the
# MOF subset of the Cambridge Structural Database (CSD) v543 
# hosted by the Cambridge Crystallographic Data Centre (CCDC).
#
# This work is licensed under the Creative Commons
# Attribution-NonCommercial-ShareAlike 4.0 International License.
# To view a copy of this license, visit
# http://creativecommons.org/licenses/by-nc-sa/4.0/
# or send a letter to
# Creative Commons, PO Box 1866, Mountain View, CA 94042, USA.
#
# CIF created using the CSD Python API on 29 September 2022
# The structure has been converted into the P1 space group
# The structure has a 3D framework
# The original CSD entry VONCOS is in the orthorhombic crystal system
# The framework has been calculated to contain at least 10.0% void space
# The void calculation uses a probe of radius 1.32A, grid spacing 0.4
# H atom positions have been added when not included in the experimental data
# Generated hydrogen atom positions removed from atoms on special positions
#
###############################################################################

data_VONCOS
_chemical_formula_moiety         '(C40 H152 O59 P16 Zn12)n'
_symmetry_cell_setting           triclinic
_symmetry_space_group_name_H-M   'P 1'
_symmetry_Int_Tables_number      1
_space_group_name_Hall           'P 1'
loop_
_symmetry_equiv_pos_site_id
_symmetry_equiv_pos_as_xyz
1 x,y,z
_cell_length_a                   24.408(4)
_cell_length_b                   27.827(5)
_cell_length_c                   5.1509(7)
_cell_angle_alpha                90
_cell_angle_beta                 90
_cell_angle_gamma                90
_cell_volume                     3498.5
loop_
_atom_site_label
_atom_site_type_symbol
_atom_site_fract_x
_atom_site_fract_y
_atom_site_fract_z
Zn8 Zn 0.03509(3) 0.45070(3) 0.28711(14)
Zn1 Zn 0.46491(3) 0.45070(3) 0.28711(14)
Zn2 Zn 0.46138(5) 0.2500 0.3061(2)
P1 P 0.58125(8) 0.50163(8) 0.2240(3)
P2 P 0.41671(8) 0.35413(8) 0.0768(3)
O2 O 0.5417(2) 0.4627(2) 0.3187(9)
O3 O 0.5697(2) 0.54847(19) 0.3722(8)
O4 O 0.46338(19) 0.3825(2) 0.1991(8)
O6 O 0.4211(2) 0.3012(2) 0.1051(10)
O7 O 0.4043(3) 0.2500 0.6218(13)
O8 O 0.5067(2) 0.3020(2) 0.5257(12)
O9 O 0.5262(3) 0.2500 0.0324(16)
C1 C 0.6479(3) 0.4802(3) 0.3142(14)
H2 H 0.6490 0.4775 0.5058
H3 H 0.6523 0.4474 0.2429
C2 C 0.3018(3) 0.3539(4) 0.0712(14)
H5 H 0.3031 0.3186 0.0908
C3 C 0.3524(3) 0.3759(3) 0.1957(13)
H6 H 0.3508 0.3699 0.3850
H7 H 0.3512 0.4111 0.1694
C4 C 0.6968(3) 0.5098(3) 0.2294(13)
H8 H 0.6971 0.5122 0.0376
H9 H 0.6934 0.5428 0.3003
C5 C 0.7500 0.4879(5) 0.321(2)
H10 H 0.7500 0.4537 0.2687
H11 H 0.7500 0.4887 0.5132
C6 C 0.2500 0.3726(5) 0.191(2)
H12 H 0.2500 0.4081 0.1786
H13 H 0.2500 0.3641 0.3778
P3 P 0.91875(8) 0.50163(8) 0.2240(3)
O11 O 0.9583(2) 0.4627(2) 0.3187(9)
O12 O 0.9303(2) 0.54847(19) 0.3722(8)
C7 C 0.8521(3) 0.4802(3) 0.3142(14)
H14 H 0.8510 0.4775 0.5058
H15 H 0.8477 0.4474 0.2429
C8 C 0.8032(3) 0.5098(3) 0.2294(13)
H16 H 0.8029 0.5122 0.0376
H17 H 0.8066 0.5428 0.3003
P4 P 0.08329(8) 0.35413(8) 0.0768(3)
O13 O 0.03662(19) 0.3825(2) 0.1991(8)
O15 O 0.0789(2) 0.3012(2) 0.1051(10)
C9 C 0.1982(3) 0.3539(4) 0.0712(14)
H20 H 0.1969 0.3186 0.0908
C10 C 0.1476(3) 0.3759(3) 0.1957(13)
H21 H 0.1492 0.3699 0.3850
H22 H 0.1488 0.4111 0.1694
O16 O 0.5067(2) 0.1980(2) 0.5257(12)
Zn5 Zn 0.96491(3) 0.54930(3) 0.71289(14)
Zn6 Zn 0.53509(3) 0.54930(3) 0.71289(14)
Zn9 Zn 0.03862(5) 0.2500 0.3061(2)
O17 O 0.42043(19) 0.4903(2) 0.0640(8)
O20 O 0.4303(2) 0.45153(19) 0.6278(8)
O22 O 0.4211(2) 0.1988(2) 0.1051(10)
O1 O 0.57957(19) 0.5097(2) 0.9360(8)
O5 O 0.4159(2) 0.3630(2) 0.7757(8)
H1 H 0.4136 0.3926 0.7462
H4 H 0.3017 0.3614 0.8832
O10 O 0.92043(19) 0.5097(2) 0.9360(8)
O14 O 0.0841(2) 0.3630(2) 0.7757(8)
H18 H 0.0864 0.3926 0.7462
H19 H 0.1983 0.3614 0.8832
O18 O 0.4583(2) 0.5373(2) 0.6813(9)
O21 O 0.53662(19) 0.6175(2) 0.8009(8)
Zn1_2 Zn 0.03509(3) 0.04930(3) 0.28711(14)
P2_2 P 0.08329(8) 0.14587(8) 0.0768(3)
O4_2 O 0.03662(19) 0.1175(2) 0.1991(8)
O6_2 O 0.0789(2) 0.1988(2) 0.1051(10)
O7_2 O 0.0957(3) 0.2500 0.6218(13)
C2_2 C 0.1982(3) 0.1461(4) 0.0712(14)
H5_2 H 0.1969 0.1814 0.0908
C3_2 C 0.1476(3) 0.1241(3) 0.1957(13)
H6_2 H 0.1492 0.1301 0.3850
H7_2 H 0.1488 0.0889 0.1694
C6_2 C 0.2500 0.1274(5) 0.191(2)
H12_2 H 0.2500 0.0919 0.1786
H13_2 H 0.2500 0.1359 0.3778
P4_2 P 0.41671(8) 0.14587(8) 0.0768(3)
O13_2 O 0.46338(19) 0.1175(2) 0.1991(8)
C9_2 C 0.3018(3) 0.1461(4) 0.0712(14)
H20_2 H 0.3031 0.1814 0.0908
C10_2 C 0.3524(3) 0.1241(3) 0.1957(13)
H21_2 H 0.3508 0.1301 0.3850
H22_2 H 0.3512 0.0889 0.1694
Zn7 Zn 0.46491(3) 0.04930(3) 0.28711(14)
O17_2 O 0.07957(19) 0.0097(2) 0.0640(8)
O20_2 O 0.0697(2) 0.04847(19) 0.6278(8)
H23 H 0.0191209 0.177336 0.62435
H30 H 0.0102742 0.334176 0.503796
O18_2 O 0.0417(2) 0.9627(2) 0.6813(9)
O2_2 O 0.9583(2) 0.0373(2) 0.3187(9)
O8_2 O 0.9933(2) 0.1980(2) 0.5257(12)
O9_2 O 0.9738(3) 0.2500 0.0324(16)
C1_2 C 0.8521(3) 0.0198(3) 0.3142(14)
H2_2 H 0.8510 0.0225 0.5058
H3_2 H 0.8477 0.0526 0.2429
C5_2 C 0.7500 0.0121(5) 0.321(2)
H10_2 H 0.7500 0.0463 0.2687
H11_2 H 0.7500 0.0113 0.5132
O11_2 O 0.5417(2) 0.0373(2) 0.3187(9)
C7_2 C 0.6479(3) 0.0198(3) 0.3142(14)
H14_2 H 0.6490 0.0225 0.5058
H15_2 H 0.6523 0.0526 0.2429
O16_2 O 0.9933(2) 0.3020(2) 0.5257(12)
H24 H 0.96849 0.214797 0.648621
H29 H 0.99378 0.292963 0.712183
P1_2 P 0.91875(8) 0.99837(8) 0.2240(3)
O3_2 O 0.9303(2) 0.95153(19) 0.3722(8)
C4_2 C 0.8032(3) 0.9902(3) 0.2294(13)
H8_2 H 0.8029 0.9878 0.0376
H9_2 H 0.8066 0.9572 0.3003
P3_2 P 0.58125(8) 0.99837(8) 0.2240(3)
O12_2 O 0.5697(2) 0.95153(19) 0.3722(8)
C8_2 C 0.6968(3) 0.9902(3) 0.2294(13)
H16_2 H 0.6971 0.9878 0.0376
H17_2 H 0.6934 0.9572 0.3003
Zn5_2 Zn 0.53509(3) 0.95070(3) 0.71289(14)
Zn6_2 Zn 0.96491(3) 0.95070(3) 0.71289(14)
O1_2 O 0.92043(19) 0.9903(2) 0.9360(8)
O10_2 O 0.57957(19) 0.9903(2) 0.9360(8)
O21_2 O 0.96338(19) 0.8825(2) 0.8009(8)
O1_3 O 0.42043(19) 0.0097(2) 0.0640(8)
O19 O 0.4303(2) 0.04847(19) 0.6278(8)
P1_3 P 0.41875(8) 0.00163(8) 0.7760(3)
C4_3 C 0.3032(3) 0.0098(3) 0.7706(13)
H8_3 H 0.3029 0.0122 0.9624
H9_3 H 0.3066 0.0428 0.6997
P3_3 P 0.08125(8) 0.00163(8) 0.7760(3)
C8_3 C 0.1968(3) 0.0098(3) 0.7706(13)
H16_3 H 0.1971 0.0122 0.9624
H17_3 H 0.1934 0.0428 0.6997
Zn2_2 Zn 0.53862(5) 0.7500 0.6939(2)
P2_3 P 0.58329(8) 0.85413(8) 0.9232(3)
O2_3 O 0.4583(2) 0.9627(2) 0.6813(9)
O4_3 O 0.53662(19) 0.8825(2) 0.8009(8)
O6_3 O 0.5789(2) 0.8012(2) 0.8949(10)
O7_3 O 0.5957(3) 0.7500 0.3782(13)
O8_3 O 0.4933(2) 0.8020(2) 0.4743(12)
O9_3 O 0.4738(3) 0.7500 0.9676(16)
C1_3 C 0.3521(3) 0.9802(3) 0.6858(14)
H2_3 H 0.3510 0.9775 0.4942
H3_3 H 0.3477 0.9474 0.7571
C2_3 C 0.6982(3) 0.8539(4) 0.9288(14)
H5_3 H 0.6969 0.8186 0.9092
C3_3 C 0.6476(3) 0.8759(3) 0.8043(13)
H6_3 H 0.6492 0.8699 0.6150
H7_3 H 0.6488 0.9111 0.8306
C5_3 C 0.2500 0.9879(5) 0.679(2)
H10_3 H 0.2500 0.9537 0.7313
H11_3 H 0.2500 0.9887 0.4868
C6_3 C 0.7500 0.8726(5) 0.809(2)
H12_3 H 0.7500 0.9081 0.8214
H13_3 H 0.7500 0.8641 0.6222
C7_3 C 0.1479(3) 0.9802(3) 0.6858(14)
H14_3 H 0.1490 0.9775 0.4942
H15_3 H 0.1523 0.9474 0.7571
P4_3 P 0.91671(8) 0.85413(8) 0.9232(3)
O15_2 O 0.9211(2) 0.8012(2) 0.8949(10)
C9_3 C 0.8018(3) 0.8539(4) 0.9288(14)
H20_3 H 0.8031 0.8186 0.9092
C10_3 C 0.8524(3) 0.8759(3) 0.8043(13)
H21_3 H 0.8508 0.8699 0.6150
H22_3 H 0.8512 0.9111 0.8306
O16_3 O 0.4933(2) 0.6980(2) 0.4743(12)
Zn9_2 Zn 0.96138(5) 0.7500 0.6939(2)
O22_2 O 0.5789(2) 0.6988(2) 0.8949(10)
O1_4 O 0.07957(19) 0.4903(2) 0.0640(8)
O19_2 O 0.0697(2) 0.45153(19) 0.6278(8)
P1_4 P 0.08125(8) 0.49837(8) 0.7760(3)
O2_4 O 0.0417(2) 0.5373(2) 0.6813(9)
O8_4 O 0.0067(2) 0.6980(2) 0.4743(12)
O9_4 O 0.0262(3) 0.7500 0.9676(16)
C1_4 C 0.1479(3) 0.5198(3) 0.6858(14)
H2_4 H 0.1490 0.5225 0.4942
H3_4 H 0.1523 0.5526 0.7571
C4_4 C 0.1968(3) 0.4902(3) 0.7706(13)
H8_4 H 0.1971 0.4878 0.9624
H9_4 H 0.1934 0.4572 0.6997
C5_4 C 0.2500 0.5121(5) 0.679(2)
H10_4 H 0.2500 0.5463 0.7313
H11_4 H 0.2500 0.5113 0.4868
P3_4 P 0.41875(8) 0.49837(8) 0.7760(3)
C7_4 C 0.3521(3) 0.5198(3) 0.6858(14)
H14_4 H 0.3510 0.5225 0.4942
H15_4 H 0.3477 0.5526 0.7571
C8_4 C 0.3032(3) 0.4902(3) 0.7706(13)
H16_4 H 0.3029 0.4878 0.9624
H17_4 H 0.3066 0.4572 0.6997
O16_4 O 0.0067(2) 0.8020(2) 0.4743(12)
H24_2 H 0.0315096 0.714797 0.351379
H29_2 H 0.00622008 0.792963 0.287817
O5_2 O 0.9159(2) 0.6370(2) 0.2243(8)
H1_2 H 0.9136 0.6074 0.2538
H4_2 H 0.8017 0.6386 0.1168
O14_2 O 0.5841(2) 0.6370(2) 0.2243(8)
H18_2 H 0.5864 0.6074 0.2538
H19_2 H 0.6983 0.6386 0.1168
P2_4 P 0.91671(8) 0.64587(8) 0.9232(3)
O4_4 O 0.96338(19) 0.6175(2) 0.8009(8)
O6_4 O 0.9211(2) 0.6988(2) 0.8949(10)
O7_4 O 0.9043(3) 0.7500 0.3782(13)
C2_4 C 0.8018(3) 0.6461(4) 0.9288(14)
H5_4 H 0.8031 0.6814 0.9092
C3_4 C 0.8524(3) 0.6241(3) 0.8043(13)
H6_4 H 0.8508 0.6301 0.6150
H7_4 H 0.8512 0.5889 0.8306
C6_4 C 0.7500 0.6274(5) 0.809(2)
H12_4 H 0.7500 0.5919 0.8214
H13_4 H 0.7500 0.6359 0.6222
P4_4 P 0.58329(8) 0.64587(8) 0.9232(3)
C9_4 C 0.6982(3) 0.6461(4) 0.9288(14)
H20_4 H 0.6969 0.6814 0.9092
C10_4 C 0.6476(3) 0.6241(3) 0.8043(13)
H21_4 H 0.6492 0.6301 0.6150
H22_4 H 0.6488 0.5889 0.8306
H23_2 H 0.980879 0.677336 0.37565
H30_2 H 0.989726 0.834176 0.496204
H24_3 H 0.0315096 0.785203 0.351379
H29_3 H 0.00622008 0.707037 0.287817
H23_3 H 0.980879 0.822664 0.37565
H30_3 H 0.989726 0.665824 0.496204
H23_4 H 0.0191209 0.322664 0.62435
H30_4 H 0.0102742 0.165824 0.503796
H24_4 H 0.96849 0.285203 0.648621
H29_4 H 0.99378 0.207037 0.712183
O5_3 O 0.0841(2) 0.1370(2) 0.7757(8)
H1_3 H 0.0864 0.1074 0.7462
H4_3 H 0.1983 0.1386 0.8832
O14_3 O 0.4159(2) 0.1370(2) 0.7757(8)
H18_3 H 0.4136 0.1074 0.7462
H19_3 H 0.3017 0.1386 0.8832
O5_4 O 0.5841(2) 0.8630(2) 0.2243(8)
H1_4 H 0.5864 0.8926 0.2538
H4_4 H 0.6983 0.8614 0.1168
O14_4 O 0.9159(2) 0.8630(2) 0.2243(8)
H18_4 H 0.9136 0.8926 0.2538
H19_4 H 0.8017 0.8614 0.1168
loop_
_geom_bond_atom_site_label_1
_geom_bond_atom_site_label_2
_geom_bond_site_symmetry_1
_geom_bond_site_symmetry_2
Zn1 O2 1_555 1_555
Zn2 O6 1_555 1_555
P2 O4 1_555 1_555
O2 P1 1_555 1_555
O3 P1 1_555 1_555
O4 Zn1 1_555 1_555
O6 P2 1_555 1_555
O7 Zn2 1_555 1_555
O8 Zn2 1_555 1_555
O9 Zn2 1_555 1_555
C1 P1 1_555 1_555
H2 C1 1_555 1_555
H3 C1 1_555 1_555
H5 C2 1_555 1_555
C3 P2 1_555 1_555
H6 C3 1_555 1_555
H7 C3 1_555 1_555
C4 C1 1_555 1_555
H8 C4 1_555 1_555
H9 C4 1_555 1_555
C5 C4 1_555 1_555
H10 C5 1_555 1_555
H11 C5 1_555 1_555
C6 C2 1_555 1_555
H12 C6 1_555 1_555
H13 C6 1_555 1_555
O11 P3 1_555 1_555
O12 P3 1_555 1_555
C7 P3 1_555 1_555
H14 C7 1_555 1_555
H15 C7 1_555 1_555
C8 C5 1_555 1_555
H16 C8 1_555 1_555
H17 C8 1_555 1_555
P4 O13 1_555 1_555
O13 Zn8 1_555 1_555
O15 P4 1_555 1_555
C9 C6 1_555 1_555
H20 C9 1_555 1_555
C10 P4 1_555 1_555
H21 C10 1_555 1_555
H22 C10 1_555 1_555
O16 Zn2 1_555 1_555
Zn5 O12 1_555 1_555
Zn6 O3 1_555 1_555
Zn9 O15 1_555 1_555
O17 Zn1 1_555 1_555
O20 Zn1 1_555 1_555
O22 Zn2 1_555 1_555
C2 C3 1_555 1_555
C7 C8 1_555 1_555
C9 C10 1_555 1_555
O1 Zn6 1_555 1_555
H1 O5 1_555 1_555
O10 Zn5 1_555 1_555
H18 O14 1_555 1_555
Zn6 O18 1_555 1_555
O21 Zn6 1_555 1_555
Zn9 O6_2 1_555 1_555
P2_2 O4_2 1_555 1_555
O4_2 Zn1_2 1_555 1_555
O6_2 P2_2 1_555 1_555
O7_2 Zn9 1_555 1_555
H5_2 C2_2 1_555 1_555
C3_2 P2_2 1_555 1_555
H6_2 C3_2 1_555 1_555
H7_2 C3_2 1_555 1_555
C6_2 C2_2 1_555 1_555
H12_2 C6_2 1_555 1_555
H13_2 C6_2 1_555 1_555
P4_2 O13_2 1_555 1_555
O13_2 Zn7 1_555 1_555
O22 P4_2 1_555 1_555
C9_2 C6_2 1_555 1_555
H20_2 C9_2 1_555 1_555
C10_2 P4_2 1_555 1_555
H21_2 C10_2 1_555 1_555
H22_2 C10_2 1_555 1_555
O17_2 Zn1_2 1_555 1_555
O20_2 Zn1_2 1_555 1_555
C2_2 C3_2 1_555 1_555
C9_2 C10_2 1_555 1_555
H2_2 C1_2 1_555 1_555
H3_2 C1_2 1_555 1_555
H10_2 C5_2 1_555 1_555
H11_2 C5_2 1_555 1_555
H14_2 C7_2 1_555 1_555
H15_2 C7_2 1_555 1_555
Zn7 O11_2 1_555 1_555
O8_2 H24 1_555 1_555
O16_2 H29 1_555 1_555
O3_2 P1_2 1_555 1_555
H8_2 C4_2 1_555 1_555
H9_2 C4_2 1_555 1_555
O12_2 P3_2 1_555 1_555
H16_2 C8_2 1_555 1_555
H17_2 C8_2 1_555 1_555
Zn5_2 O12_2 1_555 1_555
Zn6_2 O3_2 1_555 1_555
O1_2 Zn6_2 1_555 1_555
O10_2 Zn5_2 1_555 1_555
O21_2 Zn6_2 1_555 1_555
O1_3 Zn7 1_555 1_555
O19 Zn7 1_555 1_555
O19 P1_3 1_555 1_555
H8_3 C4_3 1_555 1_555
H9_3 C4_3 1_555 1_555
O20_2 P3_3 1_555 1_555
H16_3 C8_3 1_555 1_555
H17_3 C8_3 1_555 1_555
Zn5_2 O2_3 1_555 1_555
Zn2_2 O6_3 1_555 1_555
P2_3 O4_3 1_555 1_555
O4_3 Zn5_2 1_555 1_555
O6_3 P2_3 1_555 1_555
O7_3 Zn2_2 1_555 1_555
O8_3 Zn2_2 1_555 1_555
O9_3 Zn2_2 1_555 1_555
H2_3 C1_3 1_555 1_555
H3_3 C1_3 1_555 1_555
H5_3 C2_3 1_555 1_555
C3_3 P2_3 1_555 1_555
H6_3 C3_3 1_555 1_555
H7_3 C3_3 1_555 1_555
H10_3 C5_3 1_555 1_555
H11_3 C5_3 1_555 1_555
C6_3 C2_3 1_555 1_555
H12_3 C6_3 1_555 1_555
H13_3 C6_3 1_555 1_555
H14_3 C7_3 1_555 1_555
H15_3 C7_3 1_555 1_555
P4_3 O21_2 1_555 1_555
O15_2 P4_3 1_555 1_555
C9_3 C6_3 1_555 1_555
H20_3 C9_3 1_555 1_555
C10_3 P4_3 1_555 1_555
H21_3 C10_3 1_555 1_555
H22_3 C10_3 1_555 1_555
O16_3 Zn2_2 1_555 1_555
Zn9_2 O15_2 1_555 1_555
O22_2 Zn2_2 1_555 1_555
C2_3 C3_3 1_555 1_555
C9_3 C10_3 1_555 1_555
O1_4 Zn8 1_555 1_555
O19_2 Zn8 1_555 1_555
O2_4 P1_4 1_555 1_555
O19_2 P1_4 1_555 1_555
C1_4 P1_4 1_555 1_555
H2_4 C1_4 1_555 1_555
H3_4 C1_4 1_555 1_555
C4_4 C1_4 1_555 1_555
H8_4 C4_4 1_555 1_555
H9_4 C4_4 1_555 1_555
C5_4 C4_4 1_555 1_555
H10_4 C5_4 1_555 1_555
H11_4 C5_4 1_555 1_555
O18 P3_4 1_555 1_555
O20 P3_4 1_555 1_555
C7_4 P3_4 1_555 1_555
H14_4 C7_4 1_555 1_555
H15_4 C7_4 1_555 1_555
C8_4 C5_4 1_555 1_555
H16_4 C8_4 1_555 1_555
H17_4 C8_4 1_555 1_555
C7_4 C8_4 1_555 1_555
O8_4 H24_2 1_555 1_555
O16_4 H29_2 1_555 1_555
H1_2 O5_2 1_555 1_555
H18_2 O14_2 1_555 1_555
Zn9_2 O6_4 1_555 1_555
P2_4 O4_4 1_555 1_555
O4_4 Zn5 1_555 1_555
O6_4 P2_4 1_555 1_555
O7_4 Zn9_2 1_555 1_555
H5_4 C2_4 1_555 1_555
C3_4 P2_4 1_555 1_555
H6_4 C3_4 1_555 1_555
H7_4 C3_4 1_555 1_555
C6_4 C2_4 1_555 1_555
H12_4 C6_4 1_555 1_555
H13_4 C6_4 1_555 1_555
P4_4 O21 1_555 1_555
O22_2 P4_4 1_555 1_555
C9_4 C6_4 1_555 1_555
H20_4 C9_4 1_555 1_555
C10_4 P4_4 1_555 1_555
H21_4 C10_4 1_555 1_555
H22_4 C10_4 1_555 1_555
C2_4 C3_4 1_555 1_555
C9_4 C10_4 1_555 1_555
O16_4 H24_3 1_555 1_555
O8_4 H29_3 1_555 1_555
O16_2 H24_4 1_555 1_555
O8_2 H29_4 1_555 1_555
H1_3 O5_3 1_555 1_555
H18_3 O14_3 1_555 1_555
H1_4 O5_4 1_555 1_555
H18_4 O14_4 1_555 1_555

#END
