
###############################################################################
#
# This file contains modified crystal structure data generated from the
# MOF subset of the Cambridge Structural Database (CSD) v543 
# hosted by the Cambridge Crystallographic Data Centre (CCDC).
#
# This work is licensed under the Creative Commons
# Attribution-NonCommercial-ShareAlike 4.0 International License.
# To view a copy of this license, visit
# http://creativecommons.org/licenses/by-nc-sa/4.0/
# or send a letter to
# Creative Commons, PO Box 1866, Mountain View, CA 94042, USA.
#
# CIF created using the CSD Python API on 29 September 2022
# The structure has been converted into the P1 space group
# The structure has a 3D framework
# The original CSD entry VONDEJ is in the monoclinic crystal system
# The framework has been calculated to contain at least 10.0% void space
# The void calculation uses a probe of radius 1.32A, grid spacing 0.4
#
###############################################################################

data_VONDEJ
_chemical_formula_moiety         '(C24 H76 O46 P12 Zn16 12+)n'
_symmetry_cell_setting           triclinic
_symmetry_space_group_name_H-M   'P 1'
_symmetry_Int_Tables_number      1
_space_group_name_Hall           'P 1'
loop_
_symmetry_equiv_pos_site_id
_symmetry_equiv_pos_as_xyz
1 x,y,z
_cell_length_a                   10.5536(9)
_cell_length_b                   17.3130(11)
_cell_length_c                   10.3937(7)
_cell_angle_alpha                90
_cell_angle_beta                 99.502(5)
_cell_angle_gamma                90
_cell_volume                     1873.02
loop_
_atom_site_label
_atom_site_type_symbol
_atom_site_fract_x
_atom_site_fract_y
_atom_site_fract_z
Zn10 Zn 0.15130(14) 0.33481(8) 0.32231(14)
P1 P 0.8700(3) 0.28625(19) 0.3260(3)
P2 P 0.2256(3) 0.2267(2) 0.1000(3)
O1 O 0.1359(9) 0.1597(5) 0.1234(9)
O2 O 0.9672(9) 0.3500(5) 0.3032(10)
O3 O 0.9096(9) 0.2072(5) 0.2790(9)
O6 O 0.8543(9) 0.2817(5) 0.4688(9)
O7 O 0.1801(9) 0.3034(5) 0.1504(9)
C1 C 0.4862(14) 0.2661(9) 0.1653(18)
H1 H 0.5015 0.2629 0.0740
H2 H 0.4550 0.3189 0.1793
C2 C 0.3815(14) 0.2078(8) 0.1847(15)
H3 H 0.3773 0.2051 0.2790
H4 H 0.4082 0.1562 0.1578
C3 C 0.6110(13) 0.2534(9) 0.2552(15)
H5 H 0.6403 0.1999 0.2441
H6 H 0.5965 0.2591 0.3464
C4 C 0.7176(14) 0.3097(8) 0.2313(14)
H7 H 0.7251 0.3088 0.1376
H8 H 0.6934 0.3628 0.2532
Zn11 Zn 0.94998(14) 0.16724(8) 0.11638(14)
Zn14 Zn 0.94998(14) 0.33276(8) 0.61638(14)
Zn1 Zn 0.15130(14) 0.16519(8) 0.82231(14)
O5 O 0.2318(10) 0.2361(6) 0.9560(10)
O26 O 0.1801(9) 0.1966(5) 0.6504(9)
O28 O 0.2239(9) 0.0611(5) 0.8516(9)
O4 O 0.9037(9) 0.0570(5) 0.1177(9)
P3 P 0.7892(4) 0.0090(2) 0.0634(4)
C6 C 0.6478(15) 0.0683(9) 0.0507(17)
H12 H 0.6293 0.0776 0.1397
H13 H 0.6671 0.1189 0.0141
O11 O 0.2039(10) 0.0154(6) 0.0798(10)
H14 H 0.1814 0.0619 0.0811
C5 C 0.5266(15) 0.0358(9) 0.9673(17)
H10 H 0.5464 0.0207 0.8809
H11 H 0.4599 0.0765 0.9535
O20 O 0.9672(9) 0.1500(5) 0.8032(10)
O24 O 0.8543(9) 0.2183(5) 0.9688(9)
O8 O 0.7761(9) 0.9389(5) 0.1484(9)
C7 C 0.4734(15) 0.9642(9) 0.0327(17)
H15 H 0.4536 0.9793 0.1191
H16 H 0.5401 0.9235 0.0465
Zn8 Zn 0.84870(14) 0.83481(8) 0.17769(14)
O19 O 0.0328(9) 0.8500(5) 0.1968(10)
O23 O 0.1457(9) 0.7817(5) 0.0312(9)
O9 O 0.7961(10) 0.9846(6) 0.9202(10)
H9 H 0.8186 0.9381 0.9189
O10 O 0.0963(9) 0.9430(5) 0.8823(9)
P4 P 0.2108(4) 0.9910(2) 0.9366(4)
C8 C 0.3522(15) 0.9317(9) 0.9493(17)
H17 H 0.3707 0.9224 0.8603
H18 H 0.3329 0.8811 0.9859
Zn4 Zn 0.05002(14) 0.83276(8) 0.88362(14)
O22 O 0.0904(9) 0.7928(5) 0.7210(9)
O16 O 0.7682(10) 0.7639(6) 0.0440(10)
O25 O 0.8199(9) 0.8034(5) 0.3496(9)
P5 P 0.1300(3) 0.71375(19) 0.6740(3)
P6 P 0.7744(3) 0.7733(2) 0.9000(3)
O13 O 0.8641(9) 0.8403(5) 0.8766(9)
O14 O 0.0328(9) 0.6500(5) 0.6968(10)
O17 O 0.1457(9) 0.7183(5) 0.5312(9)
O18 O 0.8199(9) 0.6966(5) 0.8496(9)
C9 C 0.5138(14) 0.7339(9) 0.8347(18)
H19 H 0.4985 0.7371 0.9260
H20 H 0.5450 0.6811 0.8207
C10 C 0.6185(14) 0.7922(8) 0.8153(15)
H21 H 0.6227 0.7949 0.7210
H22 H 0.5918 0.8438 0.8422
C11 C 0.3890(13) 0.7466(9) 0.7448(15)
H23 H 0.3597 0.8001 0.7559
H24 H 0.4035 0.7409 0.6536
C12 C 0.2824(14) 0.6903(8) 0.7687(14)
H25 H 0.2749 0.6912 0.8624
H26 H 0.3066 0.6372 0.7468
Zn7 Zn 0.84870(14) 0.66519(8) 0.67769(14)
Zn12 Zn 0.05002(14) 0.66724(8) 0.38362(14)
P5_2 P 0.8700(3) 0.21375(19) 0.8260(3)
P6_2 P 0.2256(3) 0.2733(2) 0.6000(3)
O13_2 O 0.1359(9) 0.3403(5) 0.6234(9)
O15 O 0.9096(9) 0.2928(5) 0.7790(9)
O16_2 O 0.2318(10) 0.2639(6) 0.4560(10)
C9_2 C 0.4862(14) 0.2339(9) 0.6653(18)
H19_2 H 0.5015 0.2371 0.5740
H20_2 H 0.4550 0.1811 0.6793
C10_2 C 0.3815(14) 0.2922(8) 0.6847(15)
H21_2 H 0.3773 0.2949 0.7790
H22_2 H 0.4082 0.3438 0.6578
C11_2 C 0.6110(13) 0.2466(9) 0.7552(15)
H23_2 H 0.6403 0.3001 0.7441
H24_2 H 0.5965 0.2409 0.8464
C12_2 C 0.7176(14) 0.1903(8) 0.7313(14)
H25_2 H 0.7251 0.1912 0.6376
H26_2 H 0.6934 0.1372 0.7532
O27 O 0.2239(9) 0.4389(5) 0.3516(9)
O4_2 O 0.0963(9) 0.5570(5) 0.3823(9)
P3_2 P 0.2108(4) 0.5090(2) 0.4366(4)
O9_2 O 0.2039(10) 0.4846(6) 0.5798(10)
H9_2 H 0.1814 0.4381 0.5811
C5_2 C 0.4734(15) 0.5358(9) 0.5327(17)
H10_2 H 0.4536 0.5207 0.6191
H11_2 H 0.5401 0.5765 0.5465
C6_2 C 0.3522(15) 0.5683(9) 0.4493(17)
H12_2 H 0.3707 0.5776 0.3603
H13_2 H 0.3329 0.6189 0.4859
O10_2 O 0.9037(9) 0.4430(5) 0.6177(9)
P4_2 P 0.7892(4) 0.4910(2) 0.5634(4)
O11_2 O 0.7961(10) 0.5154(6) 0.4202(10)
H14_2 H 0.8186 0.5619 0.4189
C7_2 C 0.5266(15) 0.4642(9) 0.4673(17)
H15_2 H 0.5464 0.4793 0.3809
H16_2 H 0.4599 0.4235 0.4535
C8_2 C 0.6478(15) 0.4317(9) 0.5507(17)
H17_2 H 0.6293 0.4224 0.6397
H18_2 H 0.6671 0.3811 0.5141
O12 O 0.7761(9) 0.5611(5) 0.6484(9)
O21 O 0.0904(9) 0.7072(5) 0.2210(9)
P1_2 P 0.1300(3) 0.78625(19) 0.1740(3)
P2_2 P 0.7744(3) 0.7267(2) 0.4000(3)
O1_2 O 0.8641(9) 0.6597(5) 0.3766(9)
O5_2 O 0.7682(10) 0.7361(6) 0.5440(10)
C1_2 C 0.5138(14) 0.7661(9) 0.3347(18)
H1_2 H 0.4985 0.7629 0.4260
H2_2 H 0.5450 0.8189 0.3207
C2_2 C 0.6185(14) 0.7078(8) 0.3153(15)
H3_2 H 0.6227 0.7051 0.2210
H4_2 H 0.5918 0.6562 0.3422
C3_2 C 0.3890(13) 0.7534(9) 0.2448(15)
H5_2 H 0.3597 0.6999 0.2559
H6_2 H 0.4035 0.7591 0.1536
C4_2 C 0.2824(14) 0.8097(8) 0.2687(14)
H7_2 H 0.2749 0.8088 0.3624
H8_2 H 0.3066 0.8628 0.2468
Zn15 Zn 0.0000 0.0000 0.5000
H27 H 0.0463 0.0313 0.2693
O30 O 0.1936(13) 0.0025(8) 0.5941(13)
H30 H 0.2576 0.0051 0.5351
H37 H 0.0791 0.1336 0.4776
Zn15_2 Zn 0.0000 1.0000 0.5000
O29 O 0.0610(11) 0.9876(6) 0.3189(11)
H28 H 0.1471 0.9775 0.3279
H29 H 0.2225 0.9572 0.6496
O31 O 0.0011(16) 0.8848(7) 0.5185(12)
H32 H 0.0282 0.8604 0.4500
Zn15_3 Zn 1.0000 0.0000 0.5000
O32 O 0.9390(11) 0.0124(6) 0.6811(11)
H34 H 0.8529 0.0225 0.6721
H35 H 0.7775 0.0428 0.3504
O34 O 0.9989(16) 0.1152(7) 0.4815(12)
H38 H 0.9718 0.1396 0.5500
Zn15_4 Zn 1.0000 1.0000 0.5000
H31 H 0.9209 0.8664 0.5224
H33 H 0.9537 0.9687 0.7307
O33 O 0.8064(13) 0.9975(8) 0.4059(13)
H36 H 0.7424 0.9949 0.4649
Zn15_5 Zn -0.0000 0.5000 0.0000
O33_2 O 0.1936(13) 0.4975(8) 0.0941(13)
H35_2 H 0.2225 0.5428 0.1496
H36_2 H 0.2576 0.4949 0.0351
O34_2 O 0.0011(16) 0.6152(7) 0.0185(12)
Zn15_6 Zn -0.0000 0.5000 1.0000
H31_2 H 0.0791 0.3664 0.9776
O32_2 O 0.0610(11) 0.5124(6) 0.8189(11)
H33_2 H 0.0463 0.4687 0.7693
H34_2 H 0.1471 0.5225 0.8279
H38_2 H 0.0282 0.6396 0.9500
Zn15_7 Zn 1.0000 0.5000 0.0000
O29_2 O 0.9390(11) 0.4876(6) 0.1811(11)
H27_2 H 0.9537 0.5313 0.2307
H28_2 H 0.8529 0.4775 0.1721
H32_2 H 0.9718 0.3604 0.0500
H37_2 H 0.9209 0.6336 0.0224
Zn15_8 Zn 1.0000 0.5000 1.0000
O30_2 O 0.8064(13) 0.5025(8) 0.9059(13)
H29_2 H 0.7775 0.4572 0.8504
H30_2 H 0.7424 0.5051 0.9649
O31_2 O 0.9989(16) 0.3848(7) 0.9815(12)
loop_
_geom_bond_atom_site_label_1
_geom_bond_atom_site_label_2
_geom_bond_site_symmetry_1
_geom_bond_site_symmetry_2
P1 O2 1_555 1_555
P2 O1 1_555 1_555
O3 P1 1_555 1_555
O6 P1 1_555 1_555
O7 P2 1_555 1_555
C1 H1 1_555 1_555
H2 C1 1_555 1_555
C2 P2 1_555 1_555
H3 C2 1_555 1_555
H4 C2 1_555 1_555
C3 C1 1_555 1_555
H5 C3 1_555 1_555
H6 C3 1_555 1_555
C4 P1 1_555 1_555
H7 C4 1_555 1_555
H8 C4 1_555 1_555
Zn10 O7 1_555 1_555
Zn11 O3 1_555 1_555
Zn14 O6 1_555 1_555
C1 C2 1_555 1_555
C3 C4 1_555 1_555
Zn1 O5 1_555 1_555
O26 Zn1 1_555 1_555
O28 Zn1 1_555 1_555
O4 Zn11 1_555 1_555
P3 O4 1_555 1_555
C6 P3 1_555 1_555
H12 C6 1_555 1_555
H13 C6 1_555 1_555
O11 H14 1_555 1_555
C5 H10 1_555 1_555
H11 C5 1_555 1_555
H15 C7 1_555 1_555
H16 C7 1_555 1_555
Zn8 O8 1_555 1_555
H9 O9 1_555 1_555
O10 P4 1_555 1_555
C8 P4 1_555 1_555
H17 C8 1_555 1_555
H18 C8 1_555 1_555
Zn4 O10 1_555 1_555
O22 Zn4 1_555 1_555
Zn8 O16 1_555 1_555
O25 Zn8 1_555 1_555
P5 O14 1_555 1_555
P6 O13 1_555 1_555
O22 P5 1_555 1_555
O17 P5 1_555 1_555
O18 P6 1_555 1_555
C9 H19 1_555 1_555
H20 C9 1_555 1_555
C10 P6 1_555 1_555
H21 C10 1_555 1_555
H22 C10 1_555 1_555
C11 C9 1_555 1_555
H23 C11 1_555 1_555
H24 C11 1_555 1_555
C12 P5 1_555 1_555
H25 C12 1_555 1_555
H26 C12 1_555 1_555
Zn7 O18 1_555 1_555
Zn12 O17 1_555 1_555
C9 C10 1_555 1_555
C11 C12 1_555 1_555
Zn10 O16_2 1_555 1_555
P5_2 O20 1_555 1_555
P6_2 O13_2 1_555 1_555
O15 P5_2 1_555 1_555
O16_2 P6_2 1_555 1_555
O24 P5_2 1_555 1_555
O26 P6_2 1_555 1_555
C9_2 H19_2 1_555 1_555
H20_2 C9_2 1_555 1_555
C10_2 P6_2 1_555 1_555
H21_2 C10_2 1_555 1_555
H22_2 C10_2 1_555 1_555
C11_2 C9_2 1_555 1_555
H23_2 C11_2 1_555 1_555
H24_2 C11_2 1_555 1_555
C12_2 P5_2 1_555 1_555
H25_2 C12_2 1_555 1_555
H26_2 C12_2 1_555 1_555
Zn14 O15 1_555 1_555
O27 Zn10 1_555 1_555
C9_2 C10_2 1_555 1_555
C11_2 C12_2 1_555 1_555
O4_2 Zn12 1_555 1_555
O27 P3_2 1_555 1_555
P3_2 O4_2 1_555 1_555
O9_2 P3_2 1_555 1_555
H9_2 O9_2 1_555 1_555
C5_2 H10_2 1_555 1_555
H11_2 C5_2 1_555 1_555
C6_2 P3_2 1_555 1_555
H12_2 C6_2 1_555 1_555
H13_2 C6_2 1_555 1_555
O10_2 P4_2 1_555 1_555
P4_2 O11_2 1_555 1_555
O11_2 H14_2 1_555 1_555
C7_2 C5_2 1_555 1_555
H15_2 C7_2 1_555 1_555
H16_2 C7_2 1_555 1_555
C8_2 P4_2 1_555 1_555
H17_2 C8_2 1_555 1_555
H18_2 C8_2 1_555 1_555
O12 P4_2 1_555 1_555
Zn14 O10_2 1_555 1_555
Zn7 O12 1_555 1_555
O21 Zn12 1_555 1_555
C5_2 C6_2 1_555 1_555
C7_2 C8_2 1_555 1_555
Zn7 O5_2 1_555 1_555
P1_2 O19 1_555 1_555
P2_2 O1_2 1_555 1_555
O21 P1_2 1_555 1_555
O5_2 P2_2 1_555 1_555
O23 P1_2 1_555 1_555
O25 P2_2 1_555 1_555
C1_2 H1_2 1_555 1_555
H2_2 C1_2 1_555 1_555
C2_2 P2_2 1_555 1_555
H3_2 C2_2 1_555 1_555
H4_2 C2_2 1_555 1_555
C3_2 C1_2 1_555 1_555
H5_2 C3_2 1_555 1_555
H6_2 C3_2 1_555 1_555
C4_2 P1_2 1_555 1_555
H7_2 C4_2 1_555 1_555
H8_2 C4_2 1_555 1_555
C1_2 C2_2 1_555 1_555
C3_2 C4_2 1_555 1_555
O30 Zn15 1_555 1_555
H30 O30 1_555 1_555
Zn15_2 O29 1_555 1_555
H28 O29 1_555 1_555
O31 Zn15_2 1_555 1_555
H32 O31 1_555 1_555
O32 Zn15_3 1_555 1_555
H34 O32 1_555 1_555
O34 Zn15_3 1_555 1_555
H38 O34 1_555 1_555
O33 Zn15_4 1_555 1_555
H36 O33 1_555 1_555
O33_2 Zn15_5 1_555 1_555
H35_2 O33_2 1_555 1_555
H36_2 O33_2 1_555 1_555
O34_2 Zn15_5 1_555 1_555
O32_2 Zn15_6 1_555 1_555
H33_2 O32_2 1_555 1_555
H34_2 O32_2 1_555 1_555
Zn15_7 O29_2 1_555 1_555
O29_2 H27_2 1_555 1_555
H28_2 O29_2 1_555 1_555
O30_2 Zn15_8 1_555 1_555
H29_2 O30_2 1_555 1_555
H30_2 O30_2 1_555 1_555
O31_2 Zn15_8 1_555 1_555

#END
