
###############################################################################
#
# This file contains modified crystal structure data generated from the
# MOF subset of the Cambridge Structural Database (CSD) v543 
# hosted by the Cambridge Crystallographic Data Centre (CCDC).
#
# This work is licensed under the Creative Commons
# Attribution-NonCommercial-ShareAlike 4.0 International License.
# To view a copy of this license, visit
# http://creativecommons.org/licenses/by-nc-sa/4.0/
# or send a letter to
# Creative Commons, PO Box 1866, Mountain View, CA 94042, USA.
#
# CIF created using the CSD Python API on 29 September 2022
# The structure has been converted into the P1 space group
# The structure has a 3D framework
# The original CSD entry VOPCEK is in the monoclinic crystal system
# The framework has been calculated to contain at least 10.0% void space
# The void calculation uses a probe of radius 1.32A, grid spacing 0.4
#
###############################################################################

data_VOPCEK
_chemical_formula_moiety         '(C168 H136 Ce8 N32 O56)n'
_symmetry_cell_setting           triclinic
_symmetry_space_group_name_H-M   'P 1'
_symmetry_Int_Tables_number      1
_space_group_name_Hall           'P 1'
loop_
_symmetry_equiv_pos_site_id
_symmetry_equiv_pos_as_xyz
1 x,y,z
_cell_length_a                   27.541(6)
_cell_length_b                   11.126(2)
_cell_length_c                   16.991(3)
_cell_angle_alpha                90
_cell_angle_beta                 99.01(3)
_cell_angle_gamma                90
_cell_volume                     5142.16
loop_
_atom_site_label
_atom_site_type_symbol
_atom_site_fract_x
_atom_site_fract_y
_atom_site_fract_z
N4 N 0.0601(6) 0.007(3) 0.0609(10)
C63 C 0.0803(7) 0.004(2) 0.2615(10)
H45 H 0.0915 0.0251 0.2144
N12 N 0.0332(7) 0.027(2) 0.2661(9)
H3 H 0.1119 0.0265 0.5489
N1 N 0.0534(5) 0.0265(16) 0.5998(8)
C23 C 0.1061(7) 0.973(2) 0.0582(11)
H12 H 0.1303 0.9954 0.1001
H21 H 0.2372 0.0953 0.0133
C39 C 0.3183(8) 0.239(2) 0.0252(18)
H23 H 0.3205 0.2365 0.0821
H24 H 0.3368 0.3063 0.0105
H25 H 0.3313 0.1660 0.0069
O8 O 0.2012(4) 0.8672(13) 0.0590(7)
O14 O 0.2702(5) 0.4549(11) 0.0001(8)
C61 C 0.0168(7) 0.990(2) 0.3335(10)
C62 C 0.0473(6) 0.9394(19) 0.3953(10)
H44 H 0.0351 0.9165 0.4412
C64 C 0.1136(6) 0.9533(19) 0.3204(10)
C65 C 0.0949(6) 0.9227(19) 0.3900(10)
H46 H 0.1158 0.8903 0.4331
C66 C 0.1657(6) 0.9345(19) 0.3120(10)
O22 O 0.1767(4) 0.9201(12) 0.2454(6)
O23 O 0.1968(4) 0.9372(12) 0.3759(6)
Ce9 Ce 0.25216(3) 0.86790(10) 0.19040(5)
Ce14 Ce 0.74881(3) 0.32611(10) 0.02665(5)
Ce16 Ce 0.25119(3) 0.82611(10) 0.47335(5)
O32 O 0.1880(4) 0.6041(12) 0.0560(7)
O44 O 0.2982(4) 0.6747(11) 0.1087(6)
Ce1 Ce 0.25216(3) 0.63210(10) 0.69040(5)
Ce2 Ce 0.25119(3) 0.67389(10) 0.97335(5)
C1 C 0.1769(6) 0.8750(19) 0.6251(11)
C2 C 0.1281(7) 0.914(2) 0.6398(10)
C3 C 0.1086(7) 0.872(2) 0.7046(11)
H1 H 0.1269 0.8204 0.7412
C4 C 0.0624(7) 0.905(2) 0.7145(11)
H2 H 0.0492 0.8761 0.7580
C5 C 0.0348(7) 0.981(2) 0.6613(10)
C6 C 0.0988(6) 0.9933(19) 0.5912(10)
C13 C 0.3290(6) 0.5879(16) 0.5481(10)
C14 C 0.3803(6) 0.5580(16) 0.5334(9)
C15 C 0.4100(6) 0.4737(16) 0.5777(9)
H7 H 0.3974 0.4327 0.6178
C16 C 0.4462(6) 0.5911(15) 0.4594(9)
H8 H 0.4586 0.6317 0.4190
C17 C 0.4743(6) 0.5108(15) 0.5055(9)
C18 C 0.3996(6) 0.6120(16) 0.4725(9)
H9 H 0.3800 0.6649 0.4390
C19 C 0.0254(7) 0.980(2) 0.9981(11)
C20 C 0.0366(7) 0.918(2) 0.9331(11)
H10 H 0.0119 0.8989 0.8912
C21 C 0.0841(7) 0.884(2) 0.9301(11)
H11 H 0.0922 0.8470 0.8847
C22 C 0.1202(7) 0.905(2) 0.9963(10)
C24 C 0.1706(7) 0.864(2) 0.9967(10)
C25 C 0.3381(6) 0.5872(17) 0.8583(9)
C26 C 0.3914(6) 0.5781(17) 0.8523(9)
C27 C 0.4282(6) 0.5967(17) 0.9160(10)
H13 H 0.4202 0.6198 0.9649
C28 C 0.4765(6) 0.5816(17) 0.9079(10)
H14 H 0.5011 0.5924 0.9515
C29 C 0.4884(6) 0.5505(18) 0.8353(10)
C30 C 0.4069(6) 0.5588(17) 0.7791(10)
H15 H 0.3832 0.5560 0.7336
C31 C 0.5389(6) 0.5141(18) 0.8273(10)
C32 C 0.5495(6) 0.4736(18) 0.7561(10)
H16 H 0.5275 0.4853 0.7093
C33 C 0.5934(6) 0.4150(18) 0.7549(10)
H17 H 0.6001 0.3805 0.7079
C34 C 0.6279(6) 0.4076(17) 0.8248(10)
C35 C 0.6161(6) 0.4645(17) 0.8924(10)
H18 H 0.6395 0.4665 0.9382
C36 C 0.6741(6) 0.3356(17) 0.8265(10)
C37 C 0.2492(9) 0.3609(18) 0.9790(12)
H19 H 0.2170 0.3664 0.9530
C38 C 0.2378(8) 0.1450(17) 0.9672(12)
H20 H 0.2050 0.1697 0.9461
H22 H 0.2514 0.1003 0.9275
C40 C 0.2621(9) 0.3344(18) 0.6976(12)
H26 H 0.2947 0.3479 0.7198
C41 C 0.1946(11) 0.195(3) 0.6637(19)
H27 H 0.1762 0.2687 0.6584
H28 H 0.1816 0.1429 0.7003
H29 H 0.1920 0.1566 0.6127
C42 C 0.2764(12) 0.111(3) 0.7146(19)
H30 H 0.2756 0.0625 0.6677
H31 H 0.2625 0.0663 0.7541
H32 H 0.3097 0.1317 0.7353
N3 N 0.4562(5) 0.4480(15) 0.5655(8)
N5 N 0.4541(5) 0.5442(18) 0.7706(9)
N6 N 0.5726(5) 0.5162(15) 0.8940(8)
N7 N 0.2683(8) 0.2516(16) 0.9900(11)
N8 N 0.2473(8) 0.2219(16) 0.6944(11)
O1 O 0.2046(4) 0.8207(12) 0.6814(7)
O2 O 0.1880(4) 0.8959(12) 0.5560(7)
O5 O 0.3179(4) 0.5611(11) 0.6138(6)
O6 O 0.3009(4) 0.6424(11) 0.4917(6)
O7 O 0.1806(4) 0.8117(13) 0.9345(7)
O9 O 0.3071(4) 0.5493(11) 0.8013(6)
O10 O 0.3271(4) 0.6260(11) 0.9216(6)
O11 O 0.7018(4) 0.3253(11) 0.8913(6)
O12 O 0.6816(4) 0.2861(11) 0.7631(7)
O13 O 0.2389(5) 0.4196(12) 0.6758(8)
O15 O 0.2509(4) 0.7751(12) 0.8327(7)
H33 H 0.2791 0.8281 0.8377
H34 H 0.2219 0.8258 0.8228
C43 C 0.6710(6) 0.4121(16) 0.4519(10)
C44 C 0.6197(6) 0.4420(16) 0.4666(9)
C45 C 0.5900(6) 0.5263(16) 0.4223(9)
H35 H 0.6026 0.5673 0.3822
C46 C 0.5538(6) 0.4089(15) 0.5406(9)
H36 H 0.5414 0.3683 0.5810
C47 C 0.5257(6) 0.4892(15) 0.4945(9)
C48 C 0.6004(6) 0.3880(16) 0.5275(9)
H37 H 0.6200 0.3351 0.5610
N9 N 0.5438(5) 0.5520(15) 0.4345(8)
O16 O 0.6821(4) 0.4389(11) 0.3862(6)
O17 O 0.6991(4) 0.3576(11) 0.5083(6)
Ce6 Ce 0.74784(3) 0.13210(10) 0.80960(5)
Ce7 Ce 0.74784(3) 0.36790(10) 0.30960(5)
Ce13 Ce 0.74881(3) 0.17389(10) 0.52665(5)
O33 O 0.1767(4) 0.5799(12) 0.7454(6)
O35 O 0.1968(4) 0.5628(12) 0.8759(6)
O39 O 0.3009(4) 0.8576(11) 0.9917(6)
O41 O 0.2012(4) 0.6328(13) 0.5590(7)
O43 O 0.2982(4) 0.8253(11) 0.6087(6)
O46 O 0.3184(4) 0.7861(11) 0.7369(7)
C49 C 0.9746(7) 0.020(2) 0.0019(11)
C50 C 0.9634(7) 0.082(2) 0.0669(11)
H38 H 0.9881 0.1011 0.1088
C51 C 0.9159(7) 0.116(2) 0.0699(11)
H39 H 0.9078 0.1530 0.1153
C52 C 0.8798(7) 0.095(2) 0.0037(10)
C54 C 0.8294(7) 0.136(2) 0.0033(10)
O18 O 0.8194(4) 0.1883(13) 0.0655(7)
C55 C 0.8231(6) 0.1250(19) 0.3749(11)
C56 C 0.8719(7) 0.086(2) 0.3602(10)
C57 C 0.8914(7) 0.128(2) 0.2954(11)
H41 H 0.8731 0.1796 0.2588
C58 C 0.9376(7) 0.095(2) 0.2855(11)
H42 H 0.9508 0.1239 0.2420
C59 C 0.9652(7) 0.019(2) 0.3387(10)
C60 C 0.9012(6) 0.0067(19) 0.4088(10)
C67 C 0.6619(6) 0.4128(17) 0.1417(9)
C68 C 0.6086(6) 0.4219(17) 0.1477(9)
C69 C 0.5718(6) 0.4033(17) 0.0840(10)
H47 H 0.5798 0.3802 0.0351
C70 C 0.5235(6) 0.4184(17) 0.0921(10)
H48 H 0.4989 0.4076 0.0485
C71 C 0.5116(6) 0.4495(18) 0.1647(10)
C72 C 0.5931(6) 0.4412(17) 0.2209(10)
H49 H 0.6168 0.4440 0.2664
C73 C 0.4611(6) 0.4859(18) 0.1727(10)
C74 C 0.4505(6) 0.5264(18) 0.2439(10)
H50 H 0.4725 0.5147 0.2907
C75 C 0.4066(6) 0.5850(18) 0.2451(10)
H51 H 0.3999 0.6195 0.2921
C76 C 0.3721(6) 0.5924(17) 0.1752(10)
C77 C 0.3839(6) 0.5355(17) 0.1076(10)
H52 H 0.3605 0.5335 0.0618
C78 C 0.3259(6) 0.6644(17) 0.1735(10)
C79 C 0.7508(9) 0.6391(18) 0.0210(12)
H53 H 0.7830 0.6336 0.0470
C80 C 0.7622(8) 0.8550(17) 0.0328(12)
H54 H 0.7950 0.8303 0.0539
H56 H 0.7486 0.8997 0.0725
C82 C 0.7379(9) 0.6656(18) 0.3024(12)
H60 H 0.7053 0.6521 0.2802
C83 C 0.8054(11) 0.805(3) 0.3363(19)
H61 H 0.8238 0.7313 0.3416
H62 H 0.8184 0.8571 0.2997
H63 H 0.8080 0.8434 0.3873
C84 C 0.7236(12) 0.889(3) 0.2854(19)
H64 H 0.7244 0.9375 0.3323
H65 H 0.7375 0.9337 0.2459
H66 H 0.6903 0.8683 0.2647
N13 N 0.5459(5) 0.4558(18) 0.2294(9)
N14 N 0.4274(5) 0.4838(15) 0.1060(8)
N15 N 0.7317(8) 0.7484(16) 0.0100(11)
N16 N 0.7527(8) 0.7781(16) 0.3056(11)
O20 O 0.7954(4) 0.1793(12) 0.3186(7)
O21 O 0.8120(4) 0.1041(12) 0.4440(7)
O24 O 0.6929(4) 0.4507(11) 0.1987(6)
O25 O 0.6729(4) 0.3740(11) 0.0784(6)
O27 O 0.3184(4) 0.7139(11) 0.2369(7)
O28 O 0.7611(5) 0.5804(12) 0.3242(8)
O30 O 0.7491(4) 0.2249(12) 0.1673(7)
H67 H 0.7209 0.1719 0.1623
H68 H 0.7781 0.1742 0.1772
O34 O 0.8233(4) 0.4201(12) 0.2546(6)
O36 O 0.8032(4) 0.4372(12) 0.1241(6)
O38 O 0.6991(4) 0.1424(11) 0.0083(6)
O40 O 0.7988(4) 0.3672(13) 0.4410(7)
O45 O 0.7018(4) 0.1747(11) 0.3913(6)
O47 O 0.6816(4) 0.2139(11) 0.2631(7)
C7 C 0.9832(7) 0.010(2) 0.6665(10)
C8 C 0.9527(6) 0.0606(19) 0.6047(10)
H4 H 0.9649 0.0835 0.5588
C10 C 0.8864(6) 0.0467(19) 0.6796(10)
C11 C 0.9051(6) 0.0773(19) 0.6100(10)
H6 H 0.8842 0.1097 0.5669
C12 C 0.8343(6) 0.0655(19) 0.6880(10)
O3 O 0.8233(4) 0.0799(12) 0.7546(6)
O4 O 0.8032(4) 0.0628(12) 0.6241(6)
C53 C 0.8939(7) 0.027(2) 0.9418(11)
H40 H 0.8697 0.0046 0.8999
O19 O 0.7988(4) 0.1328(13) 0.9410(7)
H55 H 0.7628 0.9047 0.9867
C81 C 0.6817(8) 0.761(2) 0.9748(18)
H57 H 0.6795 0.7635 0.9179
H58 H 0.6632 0.6937 0.9895
H59 H 0.6687 0.8340 0.9931
O29 O 0.7298(5) 0.5451(11) 0.9999(8)
O31 O 0.8120(4) 0.3959(12) 0.9440(7)
C74_2 C 0.5495(6) 0.0264(18) 0.2561(10)
H50_2 H 0.5275 0.0147 0.2093
C75_2 C 0.5934(6) 0.0850(18) 0.2549(10)
H51_2 H 0.6001 0.1195 0.2079
C76_2 C 0.6279(6) 0.0924(17) 0.3248(10)
C77_2 C 0.6161(6) 0.0355(17) 0.3924(10)
H52_2 H 0.6395 0.0335 0.4382
C78_2 C 0.6741(6) 0.1644(17) 0.3265(10)
C79_2 C 0.2492(9) 0.1391(18) 0.4790(12)
H53_2 H 0.2170 0.1336 0.4530
C80_2 C 0.2378(8) 0.3550(17) 0.4672(12)
H54_2 H 0.2050 0.3303 0.4461
H55_2 H 0.2372 0.4047 0.5133
H56_2 H 0.2514 0.3997 0.4275
C81_2 C 0.3183(8) 0.261(2) 0.5252(18)
H57_2 H 0.3205 0.2635 0.5821
H58_2 H 0.3368 0.1937 0.5105
H59_2 H 0.3313 0.3340 0.5069
C82_2 C 0.2621(9) 0.1656(18) 0.1976(12)
H60_2 H 0.2947 0.1521 0.2198
C83_2 C 0.1946(11) 0.305(3) 0.1637(19)
H61_2 H 0.1762 0.2313 0.1584
H62_2 H 0.1816 0.3571 0.2003
H63_2 H 0.1920 0.3434 0.1127
C84_2 C 0.2764(12) 0.389(3) 0.2146(19)
H64_2 H 0.2756 0.4375 0.1677
H65_2 H 0.2625 0.4337 0.2541
H66_2 H 0.3097 0.3683 0.2353
N15_2 N 0.2683(8) 0.2484(16) 0.4900(11)
N16_2 N 0.2473(8) 0.2781(16) 0.1944(11)
O28_2 O 0.2389(5) 0.0804(12) 0.1758(8)
O29_2 O 0.2702(5) 0.0451(11) 0.5001(8)
C7_2 C 0.0168(7) 0.510(2) 0.8335(10)
C8_2 C 0.0473(6) 0.5606(19) 0.8953(10)
H4_2 H 0.0351 0.5835 0.9412
C9 C 0.0803(7) 0.496(2) 0.7615(10)
H5 H 0.0915 0.4749 0.7144
C10_2 C 0.1136(6) 0.5467(19) 0.8204(10)
C11_2 C 0.0949(6) 0.5773(19) 0.8900(10)
H6_2 H 0.1158 0.6097 0.9331
C12_2 C 0.1657(6) 0.5655(19) 0.8120(10)
N2 N 0.0332(7) 0.473(2) 0.7661(9)
C49_2 C 0.0254(7) 0.520(2) 0.4981(11)
C50_2 C 0.0366(7) 0.582(2) 0.4331(11)
H38_2 H 0.0119 0.6011 0.3912
C51_2 C 0.0841(7) 0.616(2) 0.4301(11)
H39_2 H 0.0922 0.6530 0.3847
C52_2 C 0.1202(7) 0.595(2) 0.4963(10)
C53_2 C 0.1061(7) 0.527(2) 0.5582(11)
H40_2 H 0.1303 0.5046 0.6001
C54_2 C 0.1706(7) 0.636(2) 0.4967(10)
N10 N 0.0601(6) 0.493(3) 0.5609(10)
O18_2 O 0.1806(4) 0.6883(13) 0.4345(7)
C55_2 C 0.1769(6) 0.6250(19) 0.1251(11)
C56_2 C 0.1281(7) 0.586(2) 0.1398(10)
C57_2 C 0.1086(7) 0.628(2) 0.2046(11)
H41_2 H 0.1269 0.6796 0.2412
C58_2 C 0.0624(7) 0.595(2) 0.2145(11)
H42_2 H 0.0492 0.6239 0.2580
C59_2 C 0.0348(7) 0.519(2) 0.1613(10)
C60_2 C 0.0988(6) 0.5067(19) 0.0912(10)
H43 H 0.1119 0.4735 0.0489
C67_2 C 0.3381(6) 0.9128(17) 0.3583(9)
C68_2 C 0.3914(6) 0.9219(17) 0.3523(9)
C69_2 C 0.4282(6) 0.9033(17) 0.4160(10)
H47_2 H 0.4202 0.8802 0.4649
C70_2 C 0.4765(6) 0.9184(17) 0.4079(10)
H48_2 H 0.5011 0.9076 0.4515
C71_2 C 0.4884(6) 0.9495(18) 0.3353(10)
C72_2 C 0.4069(6) 0.9412(17) 0.2791(10)
H49_2 H 0.3832 0.9440 0.2336
C73_2 C 0.5389(6) 0.9859(18) 0.3273(10)
N11 N 0.0534(5) 0.4735(16) 0.0998(8)
N13_2 N 0.4541(5) 0.9558(18) 0.2706(9)
N14_2 N 0.5726(5) 0.9838(15) 0.3940(8)
O20_2 O 0.2046(4) 0.6793(12) 0.1814(7)
O24_2 O 0.3071(4) 0.9507(11) 0.3013(6)
O25_2 O 0.3271(4) 0.8740(11) 0.4216(6)
O30_2 O 0.2509(4) 0.7249(12) 0.3327(7)
H67_2 H 0.2791 0.6719 0.3377
H68_2 H 0.2219 0.6742 0.3228
O37 O 0.3179(4) 0.9389(11) 0.1138(6)
C16_2 C 0.5538(6) 0.0911(15) 0.0406(9)
H8_2 H 0.5414 0.1317 0.0810
C18_2 C 0.6004(6) 0.1120(16) 0.0275(9)
H9_2 H 0.6200 0.1649 0.0610
C45_2 C 0.4100(6) 0.0263(16) 0.0777(9)
H35_2 H 0.3974 0.0673 0.1178
N9_2 N 0.4562(5) 0.0520(15) 0.0655(8)
C1_2 C 0.8231(6) 0.3750(19) 0.8749(11)
C2_2 C 0.8719(7) 0.414(2) 0.8602(10)
C3_2 C 0.8914(7) 0.372(2) 0.7954(11)
H1_2 H 0.8731 0.3204 0.7588
C4_2 C 0.9376(7) 0.405(2) 0.7855(11)
H2_2 H 0.9508 0.3761 0.7420
C5_2 C 0.9652(7) 0.481(2) 0.8387(10)
C6_2 C 0.9012(6) 0.4933(19) 0.9088(10)
H3_2 H 0.8881 0.5265 0.9511
C13_2 C 0.6710(6) 0.0879(16) 0.9519(10)
C14_2 C 0.6197(6) 0.0580(16) 0.9666(9)
C17_2 C 0.5257(6) 0.0108(15) 0.9945(9)
C19_2 C 0.9746(7) 0.480(2) 0.5019(11)
C20_2 C 0.9634(7) 0.418(2) 0.5669(11)
H10_2 H 0.9881 0.3989 0.6088
C21_2 C 0.9159(7) 0.384(2) 0.5699(11)
H11_2 H 0.9078 0.3470 0.6153
C22_2 C 0.8798(7) 0.405(2) 0.5037(10)
C23_2 C 0.8939(7) 0.473(2) 0.4418(11)
H12_2 H 0.8697 0.4954 0.3999
C24_2 C 0.8294(7) 0.364(2) 0.5033(10)
C25_2 C 0.6619(6) 0.0872(17) 0.6417(9)
C26_2 C 0.6086(6) 0.0781(17) 0.6477(9)
C27_2 C 0.5718(6) 0.0967(17) 0.5840(10)
H13_2 H 0.5798 0.1198 0.5351
C28_2 C 0.5235(6) 0.0816(17) 0.5921(10)
H14_2 H 0.4989 0.0924 0.5485
C29_2 C 0.5116(6) 0.0505(18) 0.6647(10)
C30_2 C 0.5931(6) 0.0588(17) 0.7209(10)
H15_2 H 0.6168 0.0560 0.7664
C31_2 C 0.4611(6) 0.0141(18) 0.6727(10)
N1_2 N 0.9466(5) 0.5265(16) 0.9002(8)
N4_2 N 0.9399(6) 0.507(3) 0.4391(10)
N5_2 N 0.5459(5) 0.0442(18) 0.7294(9)
N6_2 N 0.4274(5) 0.0162(15) 0.6060(8)
O1_2 O 0.7954(4) 0.3207(12) 0.8186(7)
O5_2 O 0.6821(4) 0.0611(11) 0.8862(6)
O7_2 O 0.8194(4) 0.3117(13) 0.5655(7)
O9_2 O 0.6929(4) 0.0493(11) 0.6987(6)
O10_2 O 0.6729(4) 0.1260(11) 0.5784(6)
O15_2 O 0.7491(4) 0.2751(12) 0.6673(7)
H33_2 H 0.7209 0.3281 0.6623
H34_2 H 0.7781 0.3258 0.6772
C61_2 C 0.9832(7) 0.490(2) 0.1665(10)
C62_2 C 0.9527(6) 0.4394(19) 0.1047(10)
H44_2 H 0.9649 0.4165 0.0588
C63_2 C 0.9197(7) 0.504(2) 0.2385(10)
H45_2 H 0.9085 0.5251 0.2856
C64_2 C 0.8864(6) 0.4533(19) 0.1796(10)
C65_2 C 0.9051(6) 0.4227(19) 0.1100(10)
H46_2 H 0.8842 0.3903 0.0669
C66_2 C 0.8343(6) 0.4345(19) 0.1880(10)
N12_2 N 0.9668(7) 0.527(2) 0.2339(9)
C43_2 C 0.3290(6) 0.9121(16) 0.0481(10)
C44_2 C 0.3803(6) 0.9420(16) 0.0334(9)
C47_2 C 0.4743(6) 0.9892(15) 0.0055(9)
C15_2 C 0.5900(6) 0.9737(16) 0.9223(9)
H7_2 H 0.6026 0.9327 0.8822
C32_2 C 0.4505(6) 0.9736(18) 0.7439(10)
H16_2 H 0.4725 0.9853 0.7907
C33_2 C 0.4066(6) 0.9150(18) 0.7451(10)
H17_2 H 0.3999 0.8805 0.7921
C34_2 C 0.3721(6) 0.9076(17) 0.6752(10)
C35_2 C 0.3839(6) 0.9645(17) 0.6076(10)
H18_2 H 0.3605 0.9665 0.5618
C36_2 C 0.3259(6) 0.8356(17) 0.6735(10)
C37_2 C 0.7508(9) 0.8609(18) 0.5210(12)
H19_2 H 0.7830 0.8664 0.5470
C38_2 C 0.7622(8) 0.6450(17) 0.5328(12)
H20_2 H 0.7950 0.6697 0.5539
H21_2 H 0.7628 0.5953 0.4867
H22_2 H 0.7486 0.6003 0.5725
C39_2 C 0.6817(8) 0.739(2) 0.4748(18)
H23_2 H 0.6795 0.7365 0.4179
H24_2 H 0.6632 0.8063 0.4895
H25_2 H 0.6687 0.6660 0.4931
C40_2 C 0.7379(9) 0.8344(18) 0.8024(12)
H26_2 H 0.7053 0.8479 0.7802
C41_2 C 0.8054(11) 0.695(3) 0.8363(19)
H27_2 H 0.8238 0.7687 0.8416
H28_2 H 0.8184 0.6429 0.7997
H29_2 H 0.8080 0.6566 0.8873
C42_2 C 0.7236(12) 0.611(3) 0.7854(19)
H30_2 H 0.7244 0.5625 0.8323
H31_2 H 0.7375 0.5663 0.7459
H32_2 H 0.6903 0.6317 0.7647
N3_2 N 0.5438(5) 0.9480(15) 0.9345(8)
N7_2 N 0.7317(8) 0.7516(16) 0.5100(11)
N8_2 N 0.7527(8) 0.7219(16) 0.8056(11)
O13_2 O 0.7611(5) 0.9196(12) 0.8242(8)
O14_2 O 0.7298(5) 0.9549(11) 0.4999(8)
C46_2 C 0.4462(6) 0.9089(15) 0.9594(9)
H36_2 H 0.4586 0.8683 0.9190
C48_2 C 0.3996(6) 0.8880(16) 0.9725(9)
H37_2 H 0.3800 0.8351 0.9390
H43_2 H 0.8881 0.9735 0.4511
N11_2 N 0.9466(5) 0.9735(16) 0.4002(8)
C9_2 C 0.9197(7) 0.996(2) 0.7385(10)
H5_2 H 0.9085 0.9749 0.7856
N2_2 N 0.9668(7) 0.973(2) 0.7339(9)
N10_2 N 0.9399(6) 0.993(3) 0.9391(10)
loop_
_geom_bond_atom_site_label_1
_geom_bond_atom_site_label_2
_geom_bond_site_symmetry_1
_geom_bond_site_symmetry_2
C63 H45 1_555 1_555
C63 N12 1_555 1_555
H12 C23 1_555 1_555
C39 H23 1_555 1_555
H24 C39 1_555 1_555
H25 C39 1_555 1_555
C62 C61 1_555 1_555
H44 C62 1_555 1_555
C65 C62 1_555 1_555
H46 C65 1_555 1_555
C66 C64 1_555 1_555
O22 C66 1_555 1_555
O23 C66 1_555 1_555
Ce9 O8 1_555 1_555
Ce16 O23 1_555 1_555
C64 C65 1_555 1_555
O22 Ce9 1_555 1_555
Ce9 O44 1_555 1_555
Ce1 O1 1_555 1_555
Ce2 O7 1_555 1_555
C1 C2 1_555 1_555
C2 C3 1_555 1_555
C3 H1 1_555 1_555
C4 C3 1_555 1_555
H2 C4 1_555 1_555
C5 C4 1_555 1_555
C6 C2 1_555 1_555
C13 C14 1_555 1_555
C14 C15 1_555 1_555
C15 H7 1_555 1_555
C16 H8 1_555 1_555
C17 C16 1_555 1_555
C18 C14 1_555 1_555
H9 C18 1_555 1_555
C19 C20 1_555 1_555
C20 H10 1_555 1_555
C21 C20 1_555 1_555
H11 C21 1_555 1_555
C22 C21 1_555 1_555
C24 C22 1_555 1_555
C25 C26 1_555 1_555
C26 C27 1_555 1_555
C27 H13 1_555 1_555
C28 C27 1_555 1_555
H14 C28 1_555 1_555
C29 C28 1_555 1_555
C30 C26 1_555 1_555
H15 C30 1_555 1_555
C31 C29 1_555 1_555
C32 C31 1_555 1_555
H16 C32 1_555 1_555
C33 C32 1_555 1_555
H17 C33 1_555 1_555
C34 C33 1_555 1_555
C35 C34 1_555 1_555
H18 C35 1_555 1_555
C36 C34 1_555 1_555
C37 H19 1_555 1_555
C38 H20 1_555 1_555
H22 C38 1_555 1_555
C40 H26 1_555 1_555
C41 H27 1_555 1_555
H28 C41 1_555 1_555
H29 C41 1_555 1_555
C42 H30 1_555 1_555
H31 C42 1_555 1_555
H32 C42 1_555 1_555
N3 C15 1_555 1_555
N5 C29 1_555 1_555
N6 C31 1_555 1_555
N7 C37 1_555 1_555
N8 C40 1_555 1_555
O1 C1 1_555 1_555
O2 C1 1_555 1_555
O5 Ce1 1_555 1_555
O6 C13 1_555 1_555
O7 C24 1_555 1_555
O9 Ce1 1_555 1_555
O10 Ce2 1_555 1_555
O11 C36 1_555 1_555
O12 C36 1_555 1_555
O13 Ce1 1_555 1_555
O15 Ce1 1_555 1_555
H33 O15 1_555 1_555
H34 O15 1_555 1_555
C43 C44 1_555 1_555
C44 C45 1_555 1_555
C45 H35 1_555 1_555
C46 H36 1_555 1_555
C47 C17 1_555 1_555
C48 C44 1_555 1_555
H37 C48 1_555 1_555
N9 C45 1_555 1_555
O16 C43 1_555 1_555
O17 C43 1_555 1_555
Ce6 O11 1_555 1_555
Ce7 O16 1_555 1_555
Ce13 O17 1_555 1_555
Ce16 O2 1_555 1_555
O33 Ce1 1_555 1_555
O35 Ce2 1_555 1_555
O39 Ce2 1_555 1_555
O41 Ce1 1_555 1_555
O43 Ce1 1_555 1_555
O46 Ce1 1_555 1_555
Ce2 O15 1_555 1_555
C13 O5 1_555 1_555
C16 C18 1_555 1_555
C17 N3 1_555 1_555
C25 O9 1_555 1_555
C25 O10 1_555 1_555
C30 N5 1_555 1_555
C35 N6 1_555 1_555
C38 N7 1_555 1_555
C40 O13 1_555 1_555
C41 N8 1_555 1_555
C42 N8 1_555 1_555
O6 Ce16 1_555 1_555
O12 Ce6 1_555 1_555
C46 C47 1_555 1_555
C46 C48 1_555 1_555
C47 N9 1_555 1_555
Ce16 O43 1_555 1_555
C50 C49 1_555 1_555
H38 C50 1_555 1_555
C51 C50 1_555 1_555
H39 C51 1_555 1_555
C52 C51 1_555 1_555
C54 C52 1_555 1_555
O18 C54 1_555 1_555
Ce7 O20 1_555 1_555
Ce14 O18 1_555 1_555
C55 C56 1_555 1_555
C56 C57 1_555 1_555
C57 H41 1_555 1_555
C58 C57 1_555 1_555
H42 C58 1_555 1_555
C59 C58 1_555 1_555
C60 C56 1_555 1_555
C67 C68 1_555 1_555
C68 C69 1_555 1_555
C69 H47 1_555 1_555
C70 C69 1_555 1_555
H48 C70 1_555 1_555
C71 C70 1_555 1_555
C72 C68 1_555 1_555
H49 C72 1_555 1_555
C73 C71 1_555 1_555
C74 C73 1_555 1_555
H50 C74 1_555 1_555
C75 C74 1_555 1_555
H51 C75 1_555 1_555
C76 C75 1_555 1_555
C77 C76 1_555 1_555
H52 C77 1_555 1_555
C78 C76 1_555 1_555
C79 H53 1_555 1_555
C80 H54 1_555 1_555
H56 C80 1_555 1_555
C82 H60 1_555 1_555
C83 H61 1_555 1_555
H62 C83 1_555 1_555
H63 C83 1_555 1_555
C84 H64 1_555 1_555
H65 C84 1_555 1_555
H66 C84 1_555 1_555
N13 C71 1_555 1_555
N14 C73 1_555 1_555
N15 C79 1_555 1_555
N16 C82 1_555 1_555
O20 C55 1_555 1_555
O21 C55 1_555 1_555
O24 Ce7 1_555 1_555
O25 Ce14 1_555 1_555
O44 C78 1_555 1_555
O27 C78 1_555 1_555
O28 Ce7 1_555 1_555
O30 Ce7 1_555 1_555
H67 O30 1_555 1_555
H68 O30 1_555 1_555
Ce13 O21 1_555 1_555
O34 Ce7 1_555 1_555
O36 Ce14 1_555 1_555
O38 Ce14 1_555 1_555
O40 Ce7 1_555 1_555
O45 Ce7 1_555 1_555
O47 Ce7 1_555 1_555
Ce14 O30 1_555 1_555
C67 O24 1_555 1_555
C67 O25 1_555 1_555
C72 N13 1_555 1_555
C77 N14 1_555 1_555
C80 N15 1_555 1_555
C82 O28 1_555 1_555
C83 N16 1_555 1_555
C84 N16 1_555 1_555
O27 Ce9 1_555 1_555
Ce13 O45 1_555 1_555
C8 C7 1_555 1_555
H4 C8 1_555 1_555
C11 C8 1_555 1_555
H6 C11 1_555 1_555
C12 C10 1_555 1_555
O3 C12 1_555 1_555
O4 C12 1_555 1_555
H40 C53 1_555 1_555
C81 H57 1_555 1_555
H58 C81 1_555 1_555
H59 C81 1_555 1_555
Ce6 O3 1_555 1_555
Ce13 O4 1_555 1_555
C10 C11 1_555 1_555
O19 Ce6 1_555 1_555
H50_2 C74_2 1_555 1_555
C75_2 C74_2 1_555 1_555
H51_2 C75_2 1_555 1_555
C76_2 C75_2 1_555 1_555
C77_2 C76_2 1_555 1_555
H52_2 C77_2 1_555 1_555
C78_2 C76_2 1_555 1_555
C79_2 H53_2 1_555 1_555
C80_2 H54_2 1_555 1_555
H55_2 C80_2 1_555 1_555
H56_2 C80_2 1_555 1_555
C81_2 H57_2 1_555 1_555
H58_2 C81_2 1_555 1_555
H59_2 C81_2 1_555 1_555
C82_2 H60_2 1_555 1_555
C83_2 H61_2 1_555 1_555
H62_2 C83_2 1_555 1_555
H63_2 C83_2 1_555 1_555
C84_2 H64_2 1_555 1_555
H65_2 C84_2 1_555 1_555
H66_2 C84_2 1_555 1_555
N15_2 C79_2 1_555 1_555
N16_2 C82_2 1_555 1_555
O45 C78_2 1_555 1_555
O47 C78_2 1_555 1_555
C79_2 O29_2 1_555 1_555
C80_2 N15_2 1_555 1_555
C81_2 N15_2 1_555 1_555
C82_2 O28_2 1_555 1_555
C83_2 N16_2 1_555 1_555
C84_2 N16_2 1_555 1_555
C8_2 C7_2 1_555 1_555
H4_2 C8_2 1_555 1_555
C9 H5 1_555 1_555
C10_2 C9 1_555 1_555
C11_2 C8_2 1_555 1_555
H6_2 C11_2 1_555 1_555
C12_2 C10_2 1_555 1_555
N2 C7_2 1_555 1_555
O33 C12_2 1_555 1_555
O35 C12_2 1_555 1_555
C50_2 C49_2 1_555 1_555
H38_2 C50_2 1_555 1_555
C51_2 C50_2 1_555 1_555
H39_2 C51_2 1_555 1_555
C52_2 C51_2 1_555 1_555
C53_2 C52_2 1_555 1_555
H40_2 C53_2 1_555 1_555
C54_2 C52_2 1_555 1_555
N10 C49_2 1_555 1_555
O18_2 C54_2 1_555 1_555
O41 C54_2 1_555 1_555
Ce9 O20_2 1_555 1_555
Ce16 O18_2 1_555 1_555
C55_2 C56_2 1_555 1_555
C56_2 C57_2 1_555 1_555
C57_2 H41_2 1_555 1_555
C58_2 C57_2 1_555 1_555
H42_2 C58_2 1_555 1_555
C59_2 C58_2 1_555 1_555
C60_2 C56_2 1_555 1_555
H43 C60_2 1_555 1_555
C67_2 C68_2 1_555 1_555
C68_2 C69_2 1_555 1_555
C69_2 H47_2 1_555 1_555
C70_2 C69_2 1_555 1_555
H48_2 C70_2 1_555 1_555
C71_2 C70_2 1_555 1_555
C72_2 C68_2 1_555 1_555
H49_2 C72_2 1_555 1_555
C73_2 C71_2 1_555 1_555
N11 C59_2 1_555 1_555
N13_2 C71_2 1_555 1_555
N14_2 C73_2 1_555 1_555
O20_2 C55_2 1_555 1_555
O32 C55_2 1_555 1_555
O24_2 Ce9 1_555 1_555
O25_2 Ce16 1_555 1_555
O30_2 Ce9 1_555 1_555
H67_2 O30_2 1_555 1_555
H68_2 O30_2 1_555 1_555
O37 Ce9 1_555 1_555
C9 N2 1_555 1_555
C10_2 C11_2 1_555 1_555
C53_2 N10 1_555 1_555
Ce16 O30_2 1_555 1_555
C60_2 N11 1_555 1_555
C67_2 O24_2 1_555 1_555
C67_2 O25_2 1_555 1_555
C72_2 N13_2 1_555 1_555
C16_2 H8_2 1_555 1_555
H9_2 C18_2 1_555 1_555
C45_2 H35_2 1_555 1_555
N9_2 C45_2 1_555 1_555
C16_2 C18_2 1_555 1_555
Ce6 O1_2 1_555 1_555
Ce13 O7_2 1_555 1_555
C1_2 C2_2 1_555 1_555
C2_2 C3_2 1_555 1_555
C3_2 H1_2 1_555 1_555
C4_2 C3_2 1_555 1_555
H2_2 C4_2 1_555 1_555
C5_2 C4_2 1_555 1_555
C6_2 C2_2 1_555 1_555
H3_2 C6_2 1_555 1_555
C13_2 C14_2 1_555 1_555
C19_2 C20_2 1_555 1_555
C20_2 H10_2 1_555 1_555
C21_2 C20_2 1_555 1_555
H11_2 C21_2 1_555 1_555
C22_2 C21_2 1_555 1_555
C23_2 C22_2 1_555 1_555
H12_2 C23_2 1_555 1_555
C24_2 C22_2 1_555 1_555
C25_2 C26_2 1_555 1_555
C26_2 C27_2 1_555 1_555
C27_2 H13_2 1_555 1_555
C28_2 C27_2 1_555 1_555
H14_2 C28_2 1_555 1_555
C29_2 C28_2 1_555 1_555
C30_2 C26_2 1_555 1_555
H15_2 C30_2 1_555 1_555
C31_2 C29_2 1_555 1_555
N1_2 C5_2 1_555 1_555
N4_2 C19_2 1_555 1_555
N5_2 C29_2 1_555 1_555
N6_2 C31_2 1_555 1_555
O1_2 C1_2 1_555 1_555
O31 C1_2 1_555 1_555
O5_2 Ce6 1_555 1_555
O7_2 C24_2 1_555 1_555
O40 C24_2 1_555 1_555
O9_2 Ce6 1_555 1_555
O10_2 Ce13 1_555 1_555
O15_2 Ce6 1_555 1_555
H33_2 O15_2 1_555 1_555
H34_2 O15_2 1_555 1_555
C62_2 C61_2 1_555 1_555
H44_2 C62_2 1_555 1_555
C63_2 H45_2 1_555 1_555
C64_2 C63_2 1_555 1_555
C65_2 C62_2 1_555 1_555
H46_2 C65_2 1_555 1_555
C66_2 C64_2 1_555 1_555
N12_2 C61_2 1_555 1_555
O34 C66_2 1_555 1_555
O36 C66_2 1_555 1_555
Ce13 O15_2 1_555 1_555
C6_2 N1_2 1_555 1_555
C13_2 O5_2 1_555 1_555
C23_2 N4_2 1_555 1_555
C25_2 O9_2 1_555 1_555
C25_2 O10_2 1_555 1_555
C30_2 N5_2 1_555 1_555
C63_2 N12_2 1_555 1_555
C64_2 C65_2 1_555 1_555
C43_2 C44_2 1_555 1_555
O37 C43_2 1_555 1_555
C15_2 H7_2 1_555 1_555
H16_2 C32_2 1_555 1_555
C33_2 C32_2 1_555 1_555
H17_2 C33_2 1_555 1_555
C34_2 C33_2 1_555 1_555
C35_2 C34_2 1_555 1_555
H18_2 C35_2 1_555 1_555
C36_2 C34_2 1_555 1_555
C37_2 H19_2 1_555 1_555
C38_2 H20_2 1_555 1_555
H21_2 C38_2 1_555 1_555
H22_2 C38_2 1_555 1_555
C39_2 H23_2 1_555 1_555
H24_2 C39_2 1_555 1_555
H25_2 C39_2 1_555 1_555
C40_2 H26_2 1_555 1_555
C41_2 H27_2 1_555 1_555
H28_2 C41_2 1_555 1_555
H29_2 C41_2 1_555 1_555
C42_2 H30_2 1_555 1_555
H31_2 C42_2 1_555 1_555
H32_2 C42_2 1_555 1_555
N3_2 C15_2 1_555 1_555
N7_2 C37_2 1_555 1_555
N8_2 C40_2 1_555 1_555
O43 C36_2 1_555 1_555
O46 C36_2 1_555 1_555
C46_2 H36_2 1_555 1_555
H37_2 C48_2 1_555 1_555
C37_2 O14_2 1_555 1_555
C38_2 N7_2 1_555 1_555
C39_2 N7_2 1_555 1_555
C40_2 O13_2 1_555 1_555
C41_2 N8_2 1_555 1_555
C42_2 N8_2 1_555 1_555
C46_2 C48_2 1_555 1_555
C9_2 H5_2 1_555 1_555
C9_2 N2_2 1_555 1_555

#END
