
###############################################################################
#
# This file contains modified crystal structure data generated from the
# MOF subset of the Cambridge Structural Database (CSD) v543 
# hosted by the Cambridge Crystallographic Data Centre (CCDC).
#
# This work is licensed under the Creative Commons
# Attribution-NonCommercial-ShareAlike 4.0 International License.
# To view a copy of this license, visit
# http://creativecommons.org/licenses/by-nc-sa/4.0/
# or send a letter to
# Creative Commons, PO Box 1866, Mountain View, CA 94042, USA.
#
# CIF created using the CSD Python API on 29 September 2022
# The structure has been converted into the P1 space group
# The structure has a 3D framework
# The original CSD entry VOPCIO is in the monoclinic crystal system
# The framework has been calculated to contain at least 10.0% void space
# The void calculation uses a probe of radius 1.32A, grid spacing 0.4
#
###############################################################################

data_VOPCIO
_chemical_formula_moiety         '(C600 H403 Ce32 N104 O238)n'
_symmetry_cell_setting           triclinic
_symmetry_space_group_name_H-M   'P 1'
_symmetry_Int_Tables_number      1
_space_group_name_Hall           'P 1'
loop_
_symmetry_equiv_pos_site_id
_symmetry_equiv_pos_as_xyz
1 x,y,z
_cell_length_a                   52.533(4)
_cell_length_b                   28.740(2)
_cell_length_c                   16.9133(14)
_cell_angle_alpha                90
_cell_angle_beta                 98.4720(10)
_cell_angle_gamma                90
_cell_volume                     25257
loop_
_atom_site_label
_atom_site_type_symbol
_atom_site_fract_x
_atom_site_fract_y
_atom_site_fract_z
O4 O 0.52887(12) 0.2143(3) 0.0142(4)
C4 C 0.54486(17) 0.2135(4) 0.0786(6)
C5 C 0.46811(18) 0.1793(4) 0.0330(6)
O10 O 0.53005(12) 0.3190(2) 0.0388(4)
C9 C 0.5700(2) 0.1885(5) 0.0810(7)
O11 O 0.54047(13) 0.2324(3) 0.1411(4)
C10 C 0.44364(19) 0.1581(4) 0.0523(6)
O12 O 0.48124(13) 0.2001(2) 0.0880(4)
Ce2 Ce 0.49970(2) 0.27623(2) 0.11927(3)
C17 C 0.5868(2) 0.1850(6) 0.1489(8)
C18 C 0.5750(3) 0.1656(6) 0.0139(8)
C19 C 0.4315(2) 0.1762(5) 0.1113(7)
C20 C 0.43147(19) 0.1197(4) 0.0111(6)
H5 H 0.4447 0.3421 0.0277
O13 O 0.45519(13) 0.2826(3) 0.1553(4)
O14 O 0.5000 0.2244(3) 0.2500
O15 O 0.48766(13) 0.3594(3) 0.1120(5)
O16 O 0.52777(12) 0.3134(2) 0.2276(4)
H9 H 0.5649 0.3839 0.0346
H10 H 0.5821 0.1964 0.1975
C24 C 0.6103(3) 0.1655(6) 0.1492(8)
N4 N 0.5976(2) 0.1434(6) 0.0133(7)
H12 H 0.4392 0.2012 0.1432
C25 C 0.4080(2) 0.1585(5) 0.1252(7)
N5 N 0.40892(16) 0.1020(3) 0.0252(5)
C27 C 0.45370(18) 0.3038(3) 0.2187(6)
H15 H 0.4899 0.1885 0.2516
C28 C 0.5023(3) 0.3894(5) 0.1266(9)
H18 H 0.6230 0.1663 0.1955
C31 C 0.6151(3) 0.1441(6) 0.0784(8)
H19 H 0.3993 0.1720 0.1649
C32 C 0.3976(2) 0.1219(4) 0.0816(7)
C34 C 0.42769(19) 0.3220(4) 0.2302(6)
N6 N 0.5054(3) 0.4216(5) 0.0650(9)
H20 H 0.5119 0.3924 0.1784
C37 C 0.6404(3) 0.1208(7) 0.0738(8)
C38 C 0.3717(2) 0.1040(5) 0.0926(7)
C40 C 0.4238(2) 0.3428(5) 0.3001(7)
C41 C 0.40782(19) 0.3210(4) 0.1693(6)
C43 C 0.5219(5) 0.4629(8) 0.0868(15)
C46 C 0.6439(3) 0.1002(7) 0.0045(8)
N10 N 0.6566(2) 0.1173(6) 0.1397(7)
C47 C 0.3586(2) 0.0727(5) 0.0386(8)
N11 N 0.36141(19) 0.1213(4) 0.1544(6)
H21 H 0.3794 0.4241 0.0151
H22 H 0.4371 0.3433 0.3447
C50 C 0.4000(2) 0.3631(5) 0.3051(7)
H23 H 0.4103 0.3051 0.1218
N12 N 0.38471(16) 0.3412(4) 0.1716(5)
H27 H 0.5274 0.4760 0.0386
H28 H 0.5370 0.4536 0.1243
H29 H 0.5121 0.4863 0.1119
H31 H 0.6387 0.4302 0.0106
C55 C 0.6676(3) 0.0789(7) 0.0022(8)
C56 C 0.6789(3) 0.0956(7) 0.1368(8)
C57 C 0.3336(2) 0.0604(5) 0.0465(7)
C58 C 0.3373(2) 0.1077(5) 0.1612(7)
H34 H 0.3383 0.4538 0.0244
H36 H 0.3968 0.3771 0.3534
C60 C 0.3814(2) 0.3626(5) 0.2389(7)
C63 C 0.6854(2) 0.0756(6) 0.0700(7)
H42 H 0.6910 0.0940 0.1845
H43 H 0.3239 0.0406 0.0083
C64 C 0.3230(2) 0.0770(5) 0.1094(7)
H44 H 0.3297 0.1199 0.2043
C66 C 0.3566(2) 0.3884(5) 0.2382(7)
C69 C 0.7104(2) 0.0515(5) 0.0671(7)
C70 C 0.2952(2) 0.0671(5) 0.1184(7)
C71 C 0.3395(2) 0.3919(5) 0.1705(7)
N13 N 0.3531(2) 0.4105(5) 0.3052(6)
O23 O 0.72596(14) 0.0485(3) 0.1292(5)
O24 O 0.71312(16) 0.0320(4) 0.0036(5)
O25 O 0.28918(15) 0.0662(4) 0.1868(5)
O26 O 0.28054(15) 0.0601(4) 0.0578(5)
Ce4 Ce 0.25016(2) 0.47900(2) 0.04046(3)
H45 H 0.3425 0.3761 0.1235
C72 C 0.3177(2) 0.4182(5) 0.1697(7)
C73 C 0.3320(2) 0.4362(5) 0.3038(8)
O28 O 0.27434(12) 0.4766(2) 0.1779(4)
O29 O 0.25891(18) 0.3928(3) 0.0565(6)
H46 H 0.3054 0.4200 0.1228
C74 C 0.31396(19) 0.4420(4) 0.2370(7)
H47 H 0.3293 0.4515 0.3517
C75 C 0.29093(18) 0.4722(4) 0.2391(6)
H48 H 0.2755 0.3864 0.0359
H49 H 0.2598 0.3836 0.1078
O30 O 0.28947(13) 0.4938(3) 0.3039(4)
O31 O 0.2444(2) 0.6302(3) 0.2478(7)
H50 H 0.2590 0.6503 0.2603
H51 H 0.2332 0.6556 0.2600
H57 H 0.5101 0.1885 0.2484
Ce6 Ce 0.50030(2) 0.27623(2) 0.38073(3)
O43 O 0.47223(12) 0.3134(2) 0.2724(4)
Ce13 Ce 0.75085(2) 0.04494(2) 0.26294(4)
Ce15 Ce 0.24915(2) 0.04494(2) 0.23706(4)
O52 O 0.21825(13) 0.4479(3) 0.1221(4)
O53 O 0.27799(13) 0.5488(3) 0.0640(5)
O54 O 0.22596(14) 0.5485(3) 0.1292(5)
O55 O 0.21312(16) 0.5320(4) 0.0036(5)
Ce18 Ce 0.25085(2) 0.54494(2) 0.26294(4)
O65 O 0.27533(14) 0.5748(3) 0.3832(5)
O66 O 0.22370(14) 0.4757(3) 0.2476(5)
O67 O 0.28526(15) 0.5770(3) 0.1888(5)
O68 O 0.21082(15) 0.5662(4) 0.3132(5)
O69 O 0.25179(14) 0.4823(4) 0.4003(5)
Ce1 Ce 0.50273(2) 0.21667(2) 0.88153(3)
O1 O 0.46232(12) 0.2614(3) 0.8600(4)
O2 O 0.47234(11) 0.1796(2) 0.7767(4)
O3 O 0.52260(13) 0.2926(3) 0.9128(4)
O5 O 0.47301(12) 0.1743(2) 0.9628(4)
O6 O 0.5000 0.2677(3) 0.7500
O7 O 0.51497(14) 0.1334(3) 0.8862(5)
O8 O 0.54601(13) 0.2106(3) 0.8388(4)
C1 C 0.45893(17) 0.2834(4) 0.9227(6)
C2 C 0.45275(16) 0.1906(4) 0.7263(6)
C3 C 0.53607(17) 0.3129(4) 0.9683(6)
H1 H 0.4874 0.3024 0.7436
H2 H 0.5030 0.1038 0.8694
H3 H 0.5100 0.1274 0.9383
C6 C 0.43536(18) 0.3112(4) 0.9188(6)
O9 O 0.47508(12) 0.2809(3) 0.9867(4)
C7 C 0.42646(18) 0.1764(5) 0.7431(6)
C8 C 0.56143(18) 0.3333(4) 0.9517(6)
C11 C 0.4170(2) 0.3094(6) 0.8525(8)
C12 C 0.43174(18) 0.3403(4) 0.9823(6)
C13 C 0.4065(2) 0.1738(6) 0.6819(7)
C14 C 0.4226(2) 0.1641(5) 0.8188(7)
C15 C 0.5737(2) 0.3140(4) 0.8931(7)
C16 C 0.57335(19) 0.3703(4) 0.9943(6)
H4 H 0.4196 0.2907 0.8081
C21 C 0.3950(2) 0.3342(6) 0.8503(8)
N1 N 0.41030(17) 0.3658(4) 0.9800(6)
H6 H 0.4093 0.1846 0.6307
N2 N 0.38300(18) 0.1566(5) 0.6901(6)
C22 C 0.3987(2) 0.1482(5) 0.8302(7)
H7 H 0.4361 0.1664 0.8625
H8 H 0.5658 0.2895 0.8606
C23 C 0.5975(2) 0.3304(5) 0.8819(7)
N3 N 0.59625(16) 0.3884(3) 0.9825(5)
H11 H 0.5624 0.1653 0.9675
H13 H 0.4397 0.1055 0.9708
H14 H 0.3822 0.3335 0.8043
C26 C 0.3916(2) 0.3604(5) 0.9155(7)
C29 C 0.3798(2) 0.1426(6) 0.7648(7)
H16 H 0.3952 0.1412 0.8824
H17 H 0.6065 0.3162 0.8437
C30 C 0.60825(19) 0.3679(4) 0.9268(6)
C33 C 0.3670(2) 0.3849(5) 0.9177(7)
C35 C 0.3545(2) 0.1214(6) 0.7709(7)
C36 C 0.6342(2) 0.3866(4) 0.9172(6)
C39 C 0.3649(2) 0.4154(5) 0.9776(7)
N7 N 0.3471(2) 0.3749(5) 0.8593(6)
C42 C 0.4919(5) 0.4151(8) 0.9834(14)
C44 C 0.3417(2) 0.0957(6) 0.7091(8)
N8 N 0.3469(2) 0.1239(5) 0.8418(6)
C45 C 0.6467(2) 0.4184(4) 0.9679(7)
N9 N 0.64453(18) 0.3685(4) 0.8557(6)
C48 C 0.3407(2) 0.4333(5) 0.9820(8)
C49 C 0.3244(2) 0.3925(6) 0.8657(8)
H24 H 0.5042 0.4173 0.9454
H25 H 0.4787 0.4393 0.9713
H26 H 0.4837 0.3844 0.9788
H30 H 0.3479 0.0947 0.6591
C51 C 0.3195(3) 0.0708(6) 0.7198(8)
C52 C 0.3245(2) 0.1019(6) 0.8506(7)
C53 C 0.6711(2) 0.4339(4) 0.9580(7)
C54 C 0.6679(2) 0.3842(5) 0.8457(7)
H32 H 0.6309 0.1003 0.9592
H33 H 0.3666 0.0598 0.9969
C59 C 0.3202(2) 0.4219(5) 0.9259(7)
H35 H 0.3102 0.3843 0.8266
H37 H 0.3106 0.0523 0.6780
C61 C 0.3110(2) 0.0740(6) 0.7926(7)
H38 H 0.3178 0.1060 0.8994
C62 C 0.6823(2) 0.4165(4) 0.8924(7)
H39 H 0.6800 0.4556 0.9942
H40 H 0.6752 0.3718 0.8020
H41 H 0.6715 0.0666 0.9532
C65 C 0.29366(19) 0.4375(4) 0.9332(7)
C67 C 0.28725(19) 0.0480(5) 0.8087(7)
C68 C 0.7082(2) 0.4318(4) 0.8786(6)
O17 O 0.27533(14) 0.4252(3) 0.8832(5)
O18 O 0.29170(13) 0.4633(3) 0.9939(5)
O19 O 0.27630(14) 0.0243(3) 0.7524(5)
O20 O 0.28175(13) 0.0521(3) 0.8779(4)
O21 O 0.71474(15) 0.4230(3) 0.8112(5)
O22 O 0.72201(13) 0.4512(3) 0.9360(5)
Ce3 Ce 0.25085(2) 0.45506(2) 0.76294(4)
O27 O 0.25179(14) 0.5177(4) 0.9003(5)
H52 H 0.5126 0.3024 0.7564
Ce5 Ce 0.49727(2) 0.21667(2) 0.61847(3)
C76 C 0.54725(16) 0.1906(4) 0.7737(6)
O32 O 0.45399(13) 0.2106(3) 0.6612(4)
O33 O 0.53768(12) 0.2614(3) 0.6400(4)
O34 O 0.52766(11) 0.1796(2) 0.7233(4)
O35 O 0.47740(13) 0.2926(3) 0.5872(4)
O36 O 0.47113(12) 0.2143(3) 0.4858(4)
O37 O 0.52699(12) 0.1743(2) 0.5372(4)
O38 O 0.48503(14) 0.1334(3) 0.6138(5)
C77 C 0.57354(18) 0.1764(5) 0.7569(6)
C78 C 0.54107(17) 0.2834(4) 0.5773(6)
C79 C 0.46393(17) 0.3129(4) 0.5317(6)
C80 C 0.45514(17) 0.2135(4) 0.4214(6)
C81 C 0.53189(18) 0.1793(4) 0.4670(6)
H53 H 0.4970 0.1038 0.6306
H54 H 0.4900 0.1274 0.5617
C82 C 0.5935(2) 0.1738(6) 0.8181(7)
C83 C 0.5774(2) 0.1641(5) 0.6812(7)
C84 C 0.56464(18) 0.3112(4) 0.5812(6)
O39 O 0.52492(12) 0.2809(3) 0.5133(4)
C85 C 0.43857(18) 0.3333(4) 0.5483(6)
O40 O 0.46995(12) 0.3190(2) 0.4612(4)
C86 C 0.4300(2) 0.1885(5) 0.4190(7)
O41 O 0.45953(13) 0.2324(3) 0.3589(4)
C87 C 0.55636(19) 0.1581(4) 0.4477(6)
O42 O 0.51876(13) 0.2001(2) 0.4120(4)
H55 H 0.5907 0.1846 0.8693
N14 N 0.61700(18) 0.1566(5) 0.8099(6)
C88 C 0.6013(2) 0.1482(5) 0.6698(7)
H56 H 0.5639 0.1664 0.6375
C89 C 0.5830(2) 0.3094(6) 0.6475(8)
C90 C 0.56826(18) 0.3403(4) 0.5177(6)
C91 C 0.4263(2) 0.3140(4) 0.6069(7)
C92 C 0.42665(19) 0.3703(4) 0.5057(6)
C93 C 0.4132(2) 0.1850(6) 0.3511(8)
C94 C 0.4250(3) 0.1656(6) 0.4861(8)
C95 C 0.5685(2) 0.1762(5) 0.3887(7)
C96 C 0.56853(19) 0.1197(4) 0.4889(6)
C97 C 0.6202(2) 0.1426(6) 0.7352(7)
H58 H 0.6048 0.1412 0.6176
H59 H 0.5804 0.2907 0.6919
C98 C 0.6050(2) 0.3342(6) 0.6497(8)
H60 H 0.5553 0.3421 0.4723
N15 N 0.58970(17) 0.3658(4) 0.5200(6)
O44 O 0.54481(13) 0.2826(3) 0.3447(4)
O45 O 0.51234(13) 0.3594(3) 0.3880(5)
H61 H 0.4342 0.2895 0.6394
C99 C 0.4025(2) 0.3304(5) 0.6181(7)
H62 H 0.4351 0.3839 0.4654
N16 N 0.40375(16) 0.3884(3) 0.5175(5)
H63 H 0.4179 0.1964 0.3025
C100 C 0.3897(3) 0.1655(6) 0.3508(8)
H64 H 0.4376 0.1653 0.5325
N17 N 0.4024(2) 0.1434(6) 0.4867(7)
H65 H 0.5608 0.2012 0.3568
C101 C 0.5920(2) 0.1585(5) 0.3748(7)
H66 H 0.5603 0.1055 0.5292
N18 N 0.59108(16) 0.1020(3) 0.4748(5)
C102 C 0.6455(2) 0.1214(6) 0.7291(7)
H67 H 0.6178 0.3335 0.6957
C103 C 0.6084(2) 0.3604(5) 0.5845(7)
C104 C 0.54630(18) 0.3038(3) 0.2813(6)
C105 C 0.4977(3) 0.3894(5) 0.3734(9)
H68 H 0.3935 0.3162 0.6563
C106 C 0.39175(19) 0.3679(4) 0.5732(6)
H69 H 0.3770 0.1663 0.3045
C107 C 0.3849(3) 0.1441(6) 0.4216(8)
H70 H 0.6007 0.1720 0.3351
C108 C 0.6024(2) 0.1219(4) 0.4184(7)
C109 C 0.6583(2) 0.0957(6) 0.7909(8)
N19 N 0.6531(2) 0.1239(5) 0.6582(6)
C110 C 0.6330(2) 0.3849(5) 0.5823(7)
C111 C 0.57231(19) 0.3220(4) 0.2698(6)
N20 N 0.4946(3) 0.4216(5) 0.4350(9)
H71 H 0.4881 0.3924 0.3216
C112 C 0.3658(2) 0.3866(4) 0.5828(6)
C113 C 0.3596(3) 0.1208(7) 0.4262(8)
C114 C 0.6283(2) 0.1040(5) 0.4074(7)
H72 H 0.6521 0.0947 0.8409
C115 C 0.6805(3) 0.0708(6) 0.7802(8)
C116 C 0.6755(2) 0.1019(6) 0.6494(7)
C117 C 0.6351(2) 0.4154(5) 0.5224(7)
N21 N 0.6529(2) 0.3749(5) 0.6407(6)
C118 C 0.5762(2) 0.3428(5) 0.1999(7)
C119 C 0.59218(19) 0.3210(4) 0.3307(6)
C120 C 0.5081(5) 0.4151(8) 0.5166(14)
C121 C 0.4781(5) 0.4629(8) 0.4132(15)
C122 C 0.3533(2) 0.4184(4) 0.5321(7)
N22 N 0.35547(18) 0.3685(4) 0.6443(6)
C123 C 0.3561(3) 0.1002(7) 0.4955(8)
N23 N 0.3434(2) 0.1173(6) 0.3603(7)
C124 C 0.6414(2) 0.0727(5) 0.4614(8)
N24 N 0.63859(19) 0.1213(4) 0.3456(6)
H73 H 0.6894 0.0523 0.8220
C125 C 0.6890(2) 0.0740(6) 0.7074(7)
H74 H 0.6822 0.1060 0.6006
C126 C 0.6593(2) 0.4333(5) 0.5180(8)
H75 H 0.6206 0.4241 0.4849
C127 C 0.6756(2) 0.3925(6) 0.6343(8)
H76 H 0.5629 0.3433 0.1553
C128 C 0.6000(2) 0.3631(5) 0.1949(7)
H77 H 0.5897 0.3051 0.3782
N25 N 0.61529(16) 0.3412(4) 0.3284(5)
H78 H 0.4958 0.4173 0.5546
H79 H 0.5213 0.4393 0.5287
H80 H 0.5163 0.3844 0.5212
H81 H 0.4726 0.4760 0.4614
H82 H 0.4630 0.4536 0.3757
H83 H 0.4879 0.4863 0.3881
C129 C 0.3289(2) 0.4339(4) 0.5420(7)
H84 H 0.3613 0.4302 0.4894
C130 C 0.3321(2) 0.3842(5) 0.6543(7)
H85 H 0.3691 0.1003 0.5408
C131 C 0.3324(3) 0.0789(7) 0.4978(8)
C132 C 0.3211(3) 0.0956(7) 0.3632(8)
H86 H 0.6334 0.0598 0.5031
C133 C 0.6664(2) 0.0604(5) 0.4535(7)
C134 C 0.6627(2) 0.1077(5) 0.3388(7)
C135 C 0.71275(19) 0.0480(5) 0.6913(7)
C136 C 0.6798(2) 0.4219(5) 0.5741(7)
H87 H 0.6617 0.4538 0.4756
H88 H 0.6898 0.3843 0.6734
H89 H 0.6032 0.3771 0.1466
C137 C 0.6186(2) 0.3626(5) 0.2611(7)
C138 C 0.3177(2) 0.4165(4) 0.6076(7)
H90 H 0.3200 0.4556 0.5058
H91 H 0.3248 0.3718 0.6980
H92 H 0.3285 0.0666 0.5468
C139 C 0.3146(2) 0.0756(6) 0.4300(7)
H93 H 0.3090 0.0940 0.3155
H94 H 0.6761 0.0406 0.4917
C140 C 0.6770(2) 0.0770(5) 0.3906(7)
H95 H 0.6703 0.1199 0.2957
O49 O 0.72370(14) 0.0243(3) 0.7476(5)
O50 O 0.71825(13) 0.0521(3) 0.6221(4)
Ce10 Ce 0.24984(2) 0.02100(2) 0.95954(3)
Ce11 Ce 0.74915(2) 0.45506(2) 0.73706(4)
Ce12 Ce 0.74984(2) 0.52100(2) 0.95954(3)
C141 C 0.70634(19) 0.4375(4) 0.5668(7)
C142 C 0.6434(2) 0.3884(5) 0.2618(7)
C143 C 0.2918(2) 0.4318(4) 0.6214(6)
C144 C 0.2896(2) 0.0515(5) 0.4329(7)
C145 C 0.7048(2) 0.0671(5) 0.3816(7)
Ce17 Ce 0.75016(2) 0.02100(2) 0.54046(3)
O51 O 0.28526(15) 0.4230(3) 0.6888(5)
O56 O 0.21946(15) 0.4399(4) 0.9422(5)
O57 O 0.72467(14) 0.4252(3) 0.6168(5)
O58 O 0.74821(14) 0.5177(4) 0.5997(5)
O59 O 0.70830(13) 0.4633(3) 0.5061(5)
C146 C 0.6605(2) 0.3919(5) 0.3295(7)
N26 N 0.6469(2) 0.4105(5) 0.1948(6)
O60 O 0.27799(13) 0.4512(3) 0.5640(5)
O61 O 0.27404(14) 0.0485(3) 0.3708(5)
O62 O 0.28688(16) 0.0320(4) 0.4964(5)
O63 O 0.71082(15) 0.0662(4) 0.3132(5)
O64 O 0.71946(15) 0.0601(4) 0.4422(5)
Ce19 Ce 0.74984(2) 0.47900(2) 0.45954(3)
H96 H 0.6575 0.3761 0.3765
C147 C 0.6823(2) 0.4182(5) 0.3303(7)
C148 C 0.6680(2) 0.4362(5) 0.1962(8)
Ce20 Ce 0.25016(2) 0.52100(2) 0.54046(3)
O70 O 0.72566(12) 0.4766(2) 0.3221(4)
O71 O 0.74109(18) 0.3928(3) 0.4435(6)
O72 O 0.78175(13) 0.4479(3) 0.3779(4)
O73 O 0.72201(13) 0.5488(3) 0.4360(5)
O74 O 0.77404(14) 0.5485(3) 0.3708(5)
O75 O 0.78688(16) 0.5320(4) 0.4964(5)
O76 O 0.78054(15) 0.4399(4) 0.5578(5)
H97 H 0.6946 0.4200 0.3772
C149 C 0.68604(19) 0.4420(4) 0.2630(7)
H98 H 0.6707 0.4515 0.1483
Ce24 Ce 0.74915(2) 0.54494(2) 0.23706(4)
C150 C 0.70907(18) 0.4722(4) 0.2609(6)
H99 H 0.7245 0.3864 0.4641
H100 H 0.7402 0.3836 0.3922
O77 O 0.71053(13) 0.4938(3) 0.1961(4)
O78 O 0.7556(2) 0.6302(3) 0.2522(7)
O79 O 0.72467(14) 0.5748(3) 0.1168(5)
O80 O 0.77630(14) 0.4757(3) 0.2524(5)
O81 O 0.71474(15) 0.5770(3) 0.3112(5)
O82 O 0.78918(15) 0.5662(4) 0.1868(5)
O83 O 0.74821(14) 0.4823(4) 0.0997(5)
H101 H 0.7410 0.6503 0.2397
H102 H 0.7668 0.6556 0.2400
Ce14 Ce 0.75016(2) 0.97900(2) 0.04046(3)
Ce9 Ce 0.24915(2) 0.95506(2) 0.73706(4)
Ce16 Ce 0.75085(2) 0.95506(2) 0.76294(4)
Ce22 Ce 0.24984(2) 0.97900(2) 0.45954(3)
O58_2 O 0.24821(14) 0.0177(4) 0.5997(5)
O73_2 O 0.22201(13) 0.0488(3) 0.4360(5)
O78_2 O 0.2556(2) 0.1302(3) 0.2522(7)
O79_2 O 0.22467(14) 0.0748(3) 0.1168(5)
O81_2 O 0.21474(15) 0.0770(3) 0.3112(5)
H101_2 H 0.2410 0.1503 0.2397
H102_2 H 0.2668 0.1556 0.2400
O4_2 O 0.02887(12) 0.7143(3) 0.0142(4)
C4_2 C 0.04486(17) 0.7135(4) 0.0786(6)
O10_2 O 0.03005(12) 0.8190(2) 0.0388(4)
C9_2 C 0.0700(2) 0.6885(5) 0.0810(7)
O11_2 O 0.04047(13) 0.7324(3) 0.1411(4)
C17_2 C 0.0868(2) 0.6850(6) 0.1489(8)
C18_2 C 0.0750(3) 0.6656(6) 0.0139(8)
O14_2 O 0.0000 0.7244(3) 0.2500
O16_2 O 0.02777(12) 0.8134(2) 0.2276(4)
H9_2 H 0.0649 0.8839 0.0346
H10_2 H 0.0821 0.6964 0.1975
C24_2 C 0.1103(3) 0.6655(6) 0.1492(8)
N4_2 N 0.0976(2) 0.6434(6) 0.0133(7)
C28_2 C 0.0023(3) 0.8894(5) 0.1266(9)
H18_2 H 0.1230 0.6663 0.1955
C31_2 C 0.1151(3) 0.6441(6) 0.0784(8)
N6_2 N 0.0054(3) 0.9216(5) 0.0650(9)
H20_2 H 0.0119 0.8924 0.1784
C37_2 C 0.1404(3) 0.6208(7) 0.0738(8)
C43_2 C 0.0219(5) 0.9629(8) 0.0868(15)
C46_2 C 0.1439(3) 0.6002(7) 0.0045(8)
N10_2 N 0.1566(2) 0.6173(6) 0.1397(7)
H27_2 H 0.0274 0.9760 0.0386
H28_2 H 0.0370 0.9536 0.1243
H29_2 H 0.0121 0.9863 0.1119
H31_2 H 0.1387 0.9302 0.0106
C55_2 C 0.1676(3) 0.5789(7) 0.0022(8)
C56_2 C 0.1789(3) 0.5956(7) 0.1368(8)
C63_2 C 0.1854(2) 0.5756(6) 0.0700(7)
H42_2 H 0.1910 0.5940 0.1845
C69_2 C 0.2104(2) 0.5515(5) 0.0671(7)
H57_2 H 0.0101 0.6885 0.2484
Ce6_2 Ce 0.00030(2) 0.77623(2) 0.38073(3)
Ce1_2 Ce 0.00273(2) 0.71667(2) 0.88153(3)
O3_2 O 0.02260(13) 0.7926(3) 0.9128(4)
O6_2 O 0.0000 0.7677(3) 0.7500
O7_2 O 0.01497(14) 0.6334(3) 0.8862(5)
O8_2 O 0.04601(13) 0.7106(3) 0.8388(4)
C3_2 C 0.03607(17) 0.8129(4) 0.9683(6)
H2_2 H 0.0030 0.6038 0.8694
H3_2 H 0.0100 0.6274 0.9383
C8_2 C 0.06143(18) 0.8333(4) 0.9517(6)
C15_2 C 0.0737(2) 0.8140(4) 0.8931(7)
C16_2 C 0.07335(19) 0.8703(4) 0.9943(6)
H8_2 H 0.0658 0.7895 0.8606
C23_2 C 0.0975(2) 0.8304(5) 0.8819(7)
N3_2 N 0.09625(16) 0.8884(3) 0.9825(5)
H11_2 H 0.0624 0.6653 0.9675
H17_2 H 0.1065 0.8162 0.8437
C30_2 C 0.10825(19) 0.8679(4) 0.9268(6)
C36_2 C 0.1342(2) 0.8866(4) 0.9172(6)
C45_2 C 0.1467(2) 0.9184(4) 0.9679(7)
N9_2 N 0.14453(18) 0.8685(4) 0.8557(6)
H24_2 H 0.0042 0.9173 0.9454
C53_2 C 0.1711(2) 0.9339(4) 0.9580(7)
C54_2 C 0.1679(2) 0.8842(5) 0.8457(7)
H32_2 H 0.1309 0.6003 0.9592
C62_2 C 0.1823(2) 0.9165(4) 0.8924(7)
H39_2 H 0.1800 0.9556 0.9942
H40_2 H 0.1752 0.8718 0.8020
H41_2 H 0.1715 0.5666 0.9532
C68_2 C 0.2082(2) 0.9318(4) 0.8786(6)
O21_2 O 0.21474(15) 0.9230(3) 0.8112(5)
O22_2 O 0.22201(13) 0.9512(3) 0.9360(5)
H52_2 H 0.0126 0.8024 0.7564
C76_2 C 0.04725(16) 0.6906(4) 0.7737(6)
O33_2 O 0.03768(12) 0.7614(3) 0.6400(4)
O34_2 O 0.02766(11) 0.6796(2) 0.7233(4)
O37_2 O 0.02699(12) 0.6743(2) 0.5372(4)
C77_2 C 0.07354(18) 0.6764(5) 0.7569(6)
C78_2 C 0.04107(17) 0.7834(4) 0.5773(6)
C81_2 C 0.03189(18) 0.6793(4) 0.4670(6)
C82_2 C 0.0935(2) 0.6738(6) 0.8181(7)
C83_2 C 0.0774(2) 0.6641(5) 0.6812(7)
C84_2 C 0.06464(18) 0.8112(4) 0.5812(6)
O39_2 O 0.02492(12) 0.7809(3) 0.5133(4)
C87_2 C 0.05636(19) 0.6581(4) 0.4477(6)
O42_2 O 0.01876(13) 0.7001(2) 0.4120(4)
H55_2 H 0.0907 0.6846 0.8693
N14_2 N 0.11700(18) 0.6566(5) 0.8099(6)
C88_2 C 0.1013(2) 0.6482(5) 0.6698(7)
H56_2 H 0.0639 0.6664 0.6375
C89_2 C 0.0830(2) 0.8094(6) 0.6475(8)
C90_2 C 0.06826(18) 0.8403(4) 0.5177(6)
C95_2 C 0.0685(2) 0.6762(5) 0.3887(7)
C96_2 C 0.06853(19) 0.6197(4) 0.4889(6)
C97_2 C 0.1202(2) 0.6426(6) 0.7352(7)
H58_2 H 0.1048 0.6412 0.6176
H59_2 H 0.0804 0.7907 0.6919
C98_2 C 0.1050(2) 0.8342(6) 0.6497(8)
H60_2 H 0.0553 0.8421 0.4723
N15_2 N 0.08970(17) 0.8658(4) 0.5200(6)
O44_2 O 0.04481(13) 0.7826(3) 0.3447(4)
O45_2 O 0.01234(13) 0.8594(3) 0.3880(5)
H65_2 H 0.0608 0.7012 0.3568
C101_2 C 0.0920(2) 0.6585(5) 0.3748(7)
H66_2 H 0.0603 0.6055 0.5292
N18_2 N 0.09108(16) 0.6020(3) 0.4748(5)
C102_2 C 0.1455(2) 0.6214(6) 0.7291(7)
H67_2 H 0.1178 0.8335 0.6957
C103_2 C 0.1084(2) 0.8604(5) 0.5845(7)
C104_2 C 0.04630(18) 0.8038(3) 0.2813(6)
H70_2 H 0.1007 0.6720 0.3351
C108_2 C 0.1024(2) 0.6219(4) 0.4184(7)
C109_2 C 0.1583(2) 0.5957(6) 0.7909(8)
N19_2 N 0.1531(2) 0.6239(5) 0.6582(6)
C110_2 C 0.1330(2) 0.8849(5) 0.5823(7)
C111_2 C 0.07231(19) 0.8220(4) 0.2698(6)
C114_2 C 0.1283(2) 0.6040(5) 0.4074(7)
H72_2 H 0.1521 0.5947 0.8409
C115_2 C 0.1805(3) 0.5708(6) 0.7802(8)
C116_2 C 0.1755(2) 0.6019(6) 0.6494(7)
C117_2 C 0.1351(2) 0.9154(5) 0.5224(7)
N21_2 N 0.1529(2) 0.8749(5) 0.6407(6)
C118_2 C 0.0762(2) 0.8428(5) 0.1999(7)
C119_2 C 0.09218(19) 0.8210(4) 0.3307(6)
C120_2 C 0.0081(5) 0.9151(8) 0.5166(14)
C124_2 C 0.1414(2) 0.5727(5) 0.4614(8)
N24_2 N 0.13859(19) 0.6213(4) 0.3456(6)
H73_2 H 0.1894 0.5523 0.8220
C125_2 C 0.1890(2) 0.5740(6) 0.7074(7)
H74_2 H 0.1822 0.6060 0.6006
C126_2 C 0.1593(2) 0.9333(5) 0.5180(8)
H75_2 H 0.1206 0.9241 0.4849
C127_2 C 0.1756(2) 0.8925(6) 0.6343(8)
H76_2 H 0.0629 0.8433 0.1553
C128_2 C 0.1000(2) 0.8631(5) 0.1949(7)
H77_2 H 0.0897 0.8051 0.3782
N25_2 N 0.11529(16) 0.8412(4) 0.3284(5)
H79_2 H 0.0213 0.9393 0.5287
H80_2 H 0.0163 0.8844 0.5212
H86_2 H 0.1334 0.5598 0.5031
C133_2 C 0.1664(2) 0.5604(5) 0.4535(7)
C134_2 C 0.1627(2) 0.6077(5) 0.3388(7)
C135_2 C 0.21275(19) 0.5480(5) 0.6913(7)
C136_2 C 0.1798(2) 0.9219(5) 0.5741(7)
H87_2 H 0.1617 0.9538 0.4756
H88_2 H 0.1898 0.8843 0.6734
H89_2 H 0.1032 0.8771 0.1466
C137_2 C 0.1186(2) 0.8626(5) 0.2611(7)
H94_2 H 0.1761 0.5406 0.4917
C140_2 C 0.1770(2) 0.5770(5) 0.3906(7)
H95_2 H 0.1703 0.6199 0.2957
O49_2 O 0.22370(14) 0.5243(3) 0.7476(5)
O50_2 O 0.21825(13) 0.5521(3) 0.6221(4)
C141_2 C 0.20634(19) 0.9375(4) 0.5668(7)
C142_2 C 0.1434(2) 0.8884(5) 0.2618(7)
C145_2 C 0.2048(2) 0.5671(5) 0.3816(7)
O57_2 O 0.22467(14) 0.9252(3) 0.6168(5)
O59_2 O 0.20830(13) 0.9633(3) 0.5061(5)
C146_2 C 0.1605(2) 0.8919(5) 0.3295(7)
N26_2 N 0.1469(2) 0.9105(5) 0.1948(6)
O64_2 O 0.21946(15) 0.5601(4) 0.4422(5)
H96_2 H 0.1575 0.8761 0.3765
C147_2 C 0.1823(2) 0.9182(5) 0.3303(7)
C148_2 C 0.1680(2) 0.9362(5) 0.1962(8)
O70_2 O 0.22566(12) 0.9766(2) 0.3221(4)
O71_2 O 0.24109(18) 0.8928(3) 0.4435(6)
O72_2 O 0.28175(13) 0.9479(3) 0.3779(4)
O76_2 O 0.28054(15) 0.9399(4) 0.5578(5)
H97_2 H 0.1946 0.9200 0.3772
C149_2 C 0.18604(19) 0.9420(4) 0.2630(7)
H98_2 H 0.1707 0.9515 0.1483
C150_2 C 0.20907(18) 0.9722(4) 0.2609(6)
H99_2 H 0.2245 0.8864 0.4641
H100_2 H 0.2402 0.8836 0.3922
O77_2 O 0.21053(13) 0.9938(3) 0.1961(4)
O80_2 O 0.27630(14) 0.9757(3) 0.2524(5)
O83_2 O 0.24821(14) 0.9823(4) 0.0997(5)
O31_2 O 0.7444(2) 0.1302(3) 0.2478(7)
H50_2 H 0.7590 0.1503 0.2603
H51_2 H 0.7332 0.1556 0.2600
O53_2 O 0.77799(13) 0.0488(3) 0.0640(5)
O65_2 O 0.77533(14) 0.0748(3) 0.3832(5)
O67_2 O 0.78526(15) 0.0770(3) 0.1888(5)
O27_2 O 0.75179(14) 0.0177(4) 0.9003(5)
C5_2 C 0.96811(18) 0.6793(4) 0.0330(6)
C10_2 C 0.94364(19) 0.6581(4) 0.0523(6)
O12_2 O 0.98124(13) 0.7001(2) 0.0880(4)
Ce2_2 Ce 0.99970(2) 0.77623(2) 0.11927(3)
C19_2 C 0.9315(2) 0.6762(5) 0.1113(7)
C20_2 C 0.93147(19) 0.6197(4) 0.0111(6)
H5_2 H 0.9447 0.8421 0.0277
O13_2 O 0.95519(13) 0.7826(3) 0.1553(4)
O14_3 O 1.0000 0.7244(3) 0.2500
O15_2 O 0.98766(13) 0.8594(3) 0.1120(5)
H12_2 H 0.9392 0.7012 0.1432
C25_2 C 0.9080(2) 0.6585(5) 0.1252(7)
N5_2 N 0.90892(16) 0.6020(3) 0.0252(5)
C27_2 C 0.95370(18) 0.8038(3) 0.2187(6)
H15_2 H 0.9899 0.6885 0.2516
H19_2 H 0.8993 0.6720 0.1649
C32_2 C 0.8976(2) 0.6219(4) 0.0816(7)
C34_2 C 0.92769(19) 0.8220(4) 0.2302(6)
C38_2 C 0.8717(2) 0.6040(5) 0.0926(7)
C40_2 C 0.9238(2) 0.8428(5) 0.3001(7)
C41_2 C 0.90782(19) 0.8210(4) 0.1693(6)
C47_2 C 0.8586(2) 0.5727(5) 0.0386(8)
N11_2 N 0.86141(19) 0.6213(4) 0.1544(6)
H21_2 H 0.8794 0.9241 0.0151
H22_2 H 0.9371 0.8433 0.3447
C50_2 C 0.9000(2) 0.8631(5) 0.3051(7)
H23_2 H 0.9103 0.8051 0.1218
N12_2 N 0.88471(16) 0.8412(4) 0.1716(5)
C57_2 C 0.8336(2) 0.5604(5) 0.0465(7)
C58_2 C 0.8373(2) 0.6077(5) 0.1612(7)
H34_2 H 0.8383 0.9538 0.0244
H36_2 H 0.8968 0.8771 0.3534
C60_2 C 0.8814(2) 0.8626(5) 0.2389(7)
H43_2 H 0.8239 0.5406 0.0083
C64_2 C 0.8230(2) 0.5770(5) 0.1094(7)
H44_2 H 0.8297 0.6199 0.2043
C66_2 C 0.8566(2) 0.8884(5) 0.2382(7)
C70_2 C 0.7952(2) 0.5671(5) 0.1184(7)
C71_2 C 0.8395(2) 0.8919(5) 0.1705(7)
N13_2 N 0.8531(2) 0.9105(5) 0.3052(6)
O26_2 O 0.78054(15) 0.5601(4) 0.0578(5)
H45_2 H 0.8425 0.8761 0.1235
C72_2 C 0.8177(2) 0.9182(5) 0.1697(7)
C73_2 C 0.8320(2) 0.9362(5) 0.3038(8)
O28_2 O 0.77434(12) 0.9766(2) 0.1779(4)
O29_2 O 0.75891(18) 0.8928(3) 0.0565(6)
H46_2 H 0.8054 0.9200 0.1228
C74_2 C 0.81396(19) 0.9420(4) 0.2370(7)
H47_2 H 0.8293 0.9515 0.3517
C75_2 C 0.79093(18) 0.9722(4) 0.2391(6)
H48_2 H 0.7755 0.8864 0.0359
H49_2 H 0.7598 0.8836 0.1078
O30_2 O 0.78947(13) 0.9938(3) 0.3039(4)
O43_2 O 0.97223(12) 0.8134(2) 0.2724(4)
O52_2 O 0.71825(13) 0.9479(3) 0.1221(4)
O66_2 O 0.72370(14) 0.9757(3) 0.2476(5)
O69_2 O 0.75179(14) 0.9823(4) 0.4003(5)
O1_2 O 0.96232(12) 0.7614(3) 0.8600(4)
O2_2 O 0.97234(11) 0.6796(2) 0.7767(4)
O5_2 O 0.97301(12) 0.6743(2) 0.9628(4)
O6_3 O 1.0000 0.7677(3) 0.7500
C1_2 C 0.95893(17) 0.7834(4) 0.9227(6)
C2_2 C 0.95275(16) 0.6906(4) 0.7263(6)
H1_2 H 0.9874 0.8024 0.7436
C6_2 C 0.93536(18) 0.8112(4) 0.9188(6)
O9_2 O 0.97508(12) 0.7809(3) 0.9867(4)
C7_2 C 0.92646(18) 0.6764(5) 0.7431(6)
C11_2 C 0.9170(2) 0.8094(6) 0.8525(8)
C12_2 C 0.93174(18) 0.8403(4) 0.9823(6)
C13_2 C 0.9065(2) 0.6738(6) 0.6819(7)
C14_2 C 0.9226(2) 0.6641(5) 0.8188(7)
H4_2 H 0.9196 0.7907 0.8081
C21_2 C 0.8950(2) 0.8342(6) 0.8503(8)
N1_2 N 0.91030(17) 0.8658(4) 0.9800(6)
H6_2 H 0.9093 0.6846 0.6307
N2_2 N 0.88300(18) 0.6566(5) 0.6901(6)
C22_2 C 0.8987(2) 0.6482(5) 0.8302(7)
H7_2 H 0.9361 0.6664 0.8625
H13_2 H 0.9397 0.6055 0.9708
H14_2 H 0.8822 0.8335 0.8043
C26_2 C 0.8916(2) 0.8604(5) 0.9155(7)
C29_2 C 0.8798(2) 0.6426(6) 0.7648(7)
H16_2 H 0.8952 0.6412 0.8824
C33_2 C 0.8670(2) 0.8849(5) 0.9177(7)
C35_2 C 0.8545(2) 0.6214(6) 0.7709(7)
C39_2 C 0.8649(2) 0.9154(5) 0.9776(7)
N7_2 N 0.8471(2) 0.8749(5) 0.8593(6)
C42_2 C 0.9919(5) 0.9151(8) 0.9834(14)
C44_2 C 0.8417(2) 0.5957(6) 0.7091(8)
N8_2 N 0.8469(2) 0.6239(5) 0.8418(6)
C48_2 C 0.8407(2) 0.9333(5) 0.9820(8)
C49_2 C 0.8244(2) 0.8925(6) 0.8657(8)
H25_2 H 0.9787 0.9393 0.9713
H26_2 H 0.9837 0.8844 0.9788
H30_2 H 0.8479 0.5947 0.6591
C51_2 C 0.8195(3) 0.5708(6) 0.7198(8)
C52_2 C 0.8245(2) 0.6019(6) 0.8506(7)
H33_2 H 0.8666 0.5598 0.9969
C59_2 C 0.8202(2) 0.9219(5) 0.9259(7)
H35_2 H 0.8102 0.8843 0.8266
H37_2 H 0.8106 0.5523 0.6780
C61_2 C 0.8110(2) 0.5740(6) 0.7926(7)
H38_2 H 0.8178 0.6060 0.8994
C65_2 C 0.79366(19) 0.9375(4) 0.9332(7)
C67_2 C 0.78725(19) 0.5480(5) 0.8087(7)
O17_2 O 0.77533(14) 0.9252(3) 0.8832(5)
O18_2 O 0.79170(13) 0.9633(3) 0.9939(5)
O19_2 O 0.77630(14) 0.5243(3) 0.7524(5)
O20_2 O 0.78175(13) 0.5521(3) 0.8779(4)
Ce5_2 Ce 0.99727(2) 0.71667(2) 0.61847(3)
O32_2 O 0.95399(13) 0.7106(3) 0.6612(4)
O35_2 O 0.97740(13) 0.7926(3) 0.5872(4)
O36_2 O 0.97113(12) 0.7143(3) 0.4858(4)
O38_2 O 0.98503(14) 0.6334(3) 0.6138(5)
C79_2 C 0.96393(17) 0.8129(4) 0.5317(6)
C80_2 C 0.95514(17) 0.7135(4) 0.4214(6)
H53_2 H 0.9970 0.6038 0.6306
H54_2 H 0.9900 0.6274 0.5617
C85_2 C 0.93857(18) 0.8333(4) 0.5483(6)
O40_2 O 0.96995(12) 0.8190(2) 0.4612(4)
C86_2 C 0.9300(2) 0.6885(5) 0.4190(7)
O41_2 O 0.95953(13) 0.7324(3) 0.3589(4)
C91_2 C 0.9263(2) 0.8140(4) 0.6069(7)
C92_2 C 0.92665(19) 0.8703(4) 0.5057(6)
C93_2 C 0.9132(2) 0.6850(6) 0.3511(8)
C94_2 C 0.9250(3) 0.6656(6) 0.4861(8)
H61_2 H 0.9342 0.7895 0.6394
C99_2 C 0.9025(2) 0.8304(5) 0.6181(7)
H62_2 H 0.9351 0.8839 0.4654
N16_2 N 0.90375(16) 0.8884(3) 0.5175(5)
H63_2 H 0.9179 0.6964 0.3025
C100_2 C 0.8897(3) 0.6655(6) 0.3508(8)
H64_2 H 0.9376 0.6653 0.5325
N17_2 N 0.9024(2) 0.6434(6) 0.4867(7)
C105_2 C 0.9977(3) 0.8894(5) 0.3734(9)
H68_2 H 0.8935 0.8162 0.6563
C106_2 C 0.89175(19) 0.8679(4) 0.5732(6)
H69_2 H 0.8770 0.6663 0.3045
C107_2 C 0.8849(3) 0.6441(6) 0.4216(8)
N20_2 N 0.9946(3) 0.9216(5) 0.4350(9)
H71_2 H 0.9881 0.8924 0.3216
C112_2 C 0.8658(2) 0.8866(4) 0.5828(6)
C113_2 C 0.8596(3) 0.6208(7) 0.4262(8)
C121_2 C 0.9781(5) 0.9629(8) 0.4132(15)
C122_2 C 0.8533(2) 0.9184(4) 0.5321(7)
N22_2 N 0.85547(18) 0.8685(4) 0.6443(6)
C123_2 C 0.8561(3) 0.6002(7) 0.4955(8)
N23_2 N 0.8434(2) 0.6173(6) 0.3603(7)
H78_2 H 0.9958 0.9173 0.5546
H81_2 H 0.9726 0.9760 0.4614
H82_2 H 0.9630 0.9536 0.3757
H83_2 H 0.9879 0.9863 0.3881
C129_2 C 0.8289(2) 0.9339(4) 0.5420(7)
H84_2 H 0.8613 0.9302 0.4894
C130_2 C 0.8321(2) 0.8842(5) 0.6543(7)
H85_2 H 0.8691 0.6003 0.5408
C131_2 C 0.8324(3) 0.5789(7) 0.4978(8)
C132_2 C 0.8211(3) 0.5956(7) 0.3632(8)
C138_2 C 0.8177(2) 0.9165(4) 0.6076(7)
H90_2 H 0.8200 0.9556 0.5058
H91_2 H 0.8248 0.8718 0.6980
H92_2 H 0.8285 0.5666 0.5468
C139_2 C 0.8146(2) 0.5756(6) 0.4300(7)
H93_2 H 0.8090 0.5940 0.3155
C143_2 C 0.7918(2) 0.9318(4) 0.6214(6)
C144_2 C 0.7896(2) 0.5515(5) 0.4329(7)
O51_2 O 0.78526(15) 0.9230(3) 0.6888(5)
O56_2 O 0.71946(15) 0.9399(4) 0.9422(5)
O60_2 O 0.77799(13) 0.9512(3) 0.5640(5)
Ce1_3 Ce 0.49727(2) 0.78333(2) 0.11847(3)
O1_3 O 0.53768(12) 0.7386(3) 0.1400(4)
O2_3 O 0.52766(11) 0.8204(2) 0.2233(4)
O3_3 O 0.47740(13) 0.7074(3) 0.0872(4)
O5_3 O 0.52699(12) 0.8257(2) 0.0372(4)
O6_4 O 0.5000 0.7323(3) 0.2500
O7_3 O 0.48503(14) 0.8666(3) 0.1138(5)
O8_3 O 0.45399(13) 0.7894(3) 0.1612(4)
C1_3 C 0.54107(17) 0.7166(4) 0.0773(6)
C2_3 C 0.54725(16) 0.8094(4) 0.2737(6)
C3_3 C 0.46393(17) 0.6871(4) 0.0317(6)
H1_3 H 0.5126 0.6976 0.2564
H2_3 H 0.4970 0.8962 0.1306
H3_3 H 0.4900 0.8726 0.0617
C6_3 C 0.56464(18) 0.6888(4) 0.0812(6)
O9_3 O 0.52492(12) 0.7191(3) 0.0133(4)
C7_3 C 0.57354(18) 0.8236(5) 0.2569(6)
C8_3 C 0.43857(18) 0.6667(4) 0.0483(6)
C11_3 C 0.5830(2) 0.6906(6) 0.1475(8)
C12_3 C 0.56826(18) 0.6597(4) 0.0177(6)
C13_3 C 0.5935(2) 0.8262(6) 0.3181(7)
C14_3 C 0.5774(2) 0.8359(5) 0.1812(7)
C15_3 C 0.4263(2) 0.6860(4) 0.1069(7)
C16_3 C 0.42665(19) 0.6297(4) 0.0057(6)
H4_3 H 0.5804 0.7093 0.1919
C21_3 C 0.6050(2) 0.6658(6) 0.1497(8)
N1_3 N 0.58970(17) 0.6342(4) 0.0200(6)
H6_3 H 0.5907 0.8154 0.3693
N2_3 N 0.61700(18) 0.8434(5) 0.3099(6)
C22_3 C 0.6013(2) 0.8518(5) 0.1698(7)
H7_3 H 0.5639 0.8336 0.1375
H8_3 H 0.4342 0.7105 0.1394
C23_3 C 0.4025(2) 0.6696(5) 0.1181(7)
N3_3 N 0.40375(16) 0.6116(3) 0.0175(5)
H11_3 H 0.4376 0.8347 0.0325
H13_3 H 0.5603 0.8945 0.0292
H14_3 H 0.6178 0.6665 0.1957
C26_3 C 0.6084(2) 0.6396(5) 0.0845(7)
C29_3 C 0.6202(2) 0.8574(6) 0.2352(7)
H16_3 H 0.6048 0.8588 0.1176
H17_3 H 0.3935 0.6838 0.1563
C30_3 C 0.39175(19) 0.6321(4) 0.0732(6)
C33_3 C 0.6330(2) 0.6151(5) 0.0823(7)
C35_3 C 0.6455(2) 0.8786(6) 0.2291(7)
C36_3 C 0.3658(2) 0.6134(4) 0.0828(6)
C39_3 C 0.6351(2) 0.5846(5) 0.0224(7)
N7_3 N 0.6529(2) 0.6251(5) 0.1407(6)
C42_3 C 0.5081(5) 0.5849(8) 0.0166(14)
C44_3 C 0.6583(2) 0.9043(6) 0.2909(8)
N8_3 N 0.6531(2) 0.8761(5) 0.1582(6)
C45_3 C 0.3533(2) 0.5816(4) 0.0321(7)
N9_3 N 0.35547(18) 0.6315(4) 0.1443(6)
C48_3 C 0.6593(2) 0.5667(5) 0.0180(8)
C49_3 C 0.6756(2) 0.6075(6) 0.1343(8)
H24_3 H 0.4958 0.5827 0.0546
H25_3 H 0.5213 0.5607 0.0287
H26_3 H 0.5163 0.6156 0.0212
H30_3 H 0.6521 0.9053 0.3409
C51_3 C 0.6805(3) 0.9292(6) 0.2802(8)
C52_3 C 0.6755(2) 0.8981(6) 0.1494(7)
C53_3 C 0.3289(2) 0.5661(4) 0.0420(7)
C54_3 C 0.3321(2) 0.6158(5) 0.1543(7)
H32_3 H 0.3691 0.8997 0.0408
H33_3 H 0.6334 0.9402 0.0031
C59_3 C 0.6798(2) 0.5781(5) 0.0741(7)
H35_3 H 0.6898 0.6157 0.1734
H37_3 H 0.6894 0.9477 0.3220
C61_3 C 0.6890(2) 0.9260(6) 0.2074(7)
H38_3 H 0.6822 0.8940 0.1006
C62_3 C 0.3177(2) 0.5835(4) 0.1076(7)
H39_3 H 0.3200 0.5444 0.0058
H40_3 H 0.3248 0.6282 0.1980
H41_3 H 0.3285 0.9334 0.0468
C65_3 C 0.70634(19) 0.5625(4) 0.0668(7)
C67_3 C 0.71275(19) 0.9520(5) 0.1913(7)
C68_3 C 0.2918(2) 0.5682(4) 0.1214(6)
O18_3 O 0.70830(13) 0.5367(3) 0.0061(5)
H52_3 H 0.4874 0.6976 0.2436
Ce5_3 Ce 0.50273(2) 0.78333(2) 0.38153(3)
C76_3 C 0.45275(16) 0.8094(4) 0.2263(6)
O32_3 O 0.54601(13) 0.7894(3) 0.3388(4)
O33_3 O 0.46232(12) 0.7386(3) 0.3600(4)
O34_3 O 0.47234(11) 0.8204(2) 0.2767(4)
O35_3 O 0.52260(13) 0.7074(3) 0.4128(4)
O36_3 O 0.52887(12) 0.7857(3) 0.5142(4)
O37_3 O 0.47301(12) 0.8257(2) 0.4628(4)
O38_3 O 0.51497(14) 0.8666(3) 0.3862(5)
C77_3 C 0.42646(18) 0.8236(5) 0.2431(6)
C78_3 C 0.45893(17) 0.7166(4) 0.4227(6)
C79_3 C 0.53607(17) 0.6871(4) 0.4683(6)
C80_3 C 0.54486(17) 0.7865(4) 0.5786(6)
C81_3 C 0.46811(18) 0.8207(4) 0.5330(6)
H53_3 H 0.5030 0.8962 0.3694
H54_3 H 0.5100 0.8726 0.4383
C82_3 C 0.4065(2) 0.8262(6) 0.1819(7)
C83_3 C 0.4226(2) 0.8359(5) 0.3188(7)
C84_3 C 0.43536(18) 0.6888(4) 0.4188(6)
O39_3 O 0.47508(12) 0.7191(3) 0.4867(4)
C85_3 C 0.56143(18) 0.6667(4) 0.4517(6)
O40_3 O 0.53005(12) 0.6810(2) 0.5388(4)
C86_3 C 0.5700(2) 0.8115(5) 0.5810(7)
O41_3 O 0.54047(13) 0.7676(3) 0.6411(4)
C87_3 C 0.44364(19) 0.8419(4) 0.5523(6)
O42_3 O 0.48124(13) 0.7999(2) 0.5880(4)
H55_3 H 0.4093 0.8154 0.1307
N14_3 N 0.38300(18) 0.8434(5) 0.1901(6)
C88_3 C 0.3987(2) 0.8518(5) 0.3302(7)
H56_3 H 0.4361 0.8336 0.3625
C89_3 C 0.4170(2) 0.6906(6) 0.3525(8)
C90_3 C 0.43174(18) 0.6597(4) 0.4823(6)
Ce7 Ce 0.49970(2) 0.72377(2) 0.61927(3)
C91_3 C 0.5737(2) 0.6860(4) 0.3931(7)
C92_3 C 0.57335(19) 0.6297(4) 0.4943(6)
C93_3 C 0.5868(2) 0.8150(6) 0.6489(8)
C94_3 C 0.5750(3) 0.8344(6) 0.5139(8)
C95_3 C 0.4315(2) 0.8238(5) 0.6113(7)
C96_3 C 0.43147(19) 0.8803(4) 0.5111(6)
C97_3 C 0.3798(2) 0.8574(6) 0.2648(7)
H58_3 H 0.3952 0.8588 0.3824
H59_3 H 0.4196 0.7093 0.3081
C98_3 C 0.3950(2) 0.6658(6) 0.3503(8)
H60_3 H 0.4447 0.6579 0.5277
N15_3 N 0.41030(17) 0.6342(4) 0.4800(6)
O44_3 O 0.45519(13) 0.7174(3) 0.6553(4)
O45_3 O 0.48766(13) 0.6406(3) 0.6120(5)
O46 O 0.52777(12) 0.6866(2) 0.7276(4)
O47 O 0.5000 0.7756(3) 0.7500
H61_3 H 0.5658 0.7105 0.3606
C99_3 C 0.5975(2) 0.6696(5) 0.3819(7)
H62_3 H 0.5649 0.6161 0.5346
N16_3 N 0.59625(16) 0.6116(3) 0.4825(5)
H63_3 H 0.5821 0.8036 0.6975
C100_3 C 0.6103(3) 0.8345(6) 0.6492(8)
H64_3 H 0.5624 0.8347 0.4675
N17_3 N 0.5976(2) 0.8566(6) 0.5133(7)
H65_3 H 0.4392 0.7988 0.6432
C101_3 C 0.4080(2) 0.8415(5) 0.6252(7)
H66_3 H 0.4397 0.8945 0.4708
N18_3 N 0.40892(16) 0.8980(3) 0.5252(5)
C102_3 C 0.3545(2) 0.8786(6) 0.2709(7)
H67_3 H 0.3822 0.6665 0.3043
C103_3 C 0.3916(2) 0.6396(5) 0.4155(7)
C104_3 C 0.45370(18) 0.6962(3) 0.7187(6)
C105_3 C 0.5023(3) 0.6106(5) 0.6266(9)
Ce8 Ce 0.50030(2) 0.72377(2) 0.88073(3)
H68_3 H 0.6065 0.6838 0.3437
C106_3 C 0.60825(19) 0.6321(4) 0.4268(6)
H69_3 H 0.6230 0.8337 0.6955
C107_3 C 0.6151(3) 0.8559(6) 0.5784(8)
H70_3 H 0.3993 0.8280 0.6649
C108_3 C 0.3976(2) 0.8781(4) 0.5816(7)
C109_3 C 0.3417(2) 0.9043(6) 0.2091(8)
N19_3 N 0.3469(2) 0.8761(5) 0.3418(6)
C110_3 C 0.3670(2) 0.6151(5) 0.4177(7)
C111_3 C 0.42769(19) 0.6780(4) 0.7302(6)
O48 O 0.47223(12) 0.6866(2) 0.7724(4)
N20_3 N 0.5054(3) 0.5784(5) 0.5650(9)
H71_3 H 0.5119 0.6076 0.6784
C112_3 C 0.6342(2) 0.6134(4) 0.4172(6)
C113_3 C 0.6404(3) 0.8792(7) 0.5738(8)
C114_3 C 0.3717(2) 0.8960(5) 0.5926(7)
H72_3 H 0.3479 0.9053 0.1591
C115_3 C 0.3195(3) 0.9292(6) 0.2198(8)
C116_3 C 0.3245(2) 0.8981(6) 0.3506(7)
C117_3 C 0.3649(2) 0.5846(5) 0.4776(7)
N21_3 N 0.3471(2) 0.6251(5) 0.3593(6)
C118_3 C 0.4238(2) 0.6572(5) 0.8001(7)
C119_3 C 0.40782(19) 0.6790(4) 0.6693(6)
C120_3 C 0.4919(5) 0.5849(8) 0.4834(14)
C121_3 C 0.5219(5) 0.5371(8) 0.5868(15)
C122_3 C 0.6467(2) 0.5816(4) 0.4679(7)
N22_3 N 0.64453(18) 0.6315(4) 0.3557(6)
C123_3 C 0.6439(3) 0.8998(7) 0.5045(8)
N23_3 N 0.6566(2) 0.8827(6) 0.6397(7)
C124_3 C 0.3586(2) 0.9273(5) 0.5386(8)
N24_3 N 0.36141(19) 0.8787(4) 0.6544(6)
H73_3 H 0.3106 0.9477 0.1780
C125_3 C 0.3110(2) 0.9260(6) 0.2926(7)
H74_3 H 0.3178 0.8940 0.3994
C126_3 C 0.3407(2) 0.5667(5) 0.4820(8)
H75_3 H 0.3794 0.5759 0.5151
C127_3 C 0.3244(2) 0.6075(6) 0.3657(8)
H76_3 H 0.4371 0.6567 0.8447
C128_3 C 0.4000(2) 0.6369(5) 0.8051(7)
H77_3 H 0.4103 0.6949 0.6218
N25_3 N 0.38471(16) 0.6588(4) 0.6716(5)
H78_3 H 0.5042 0.5827 0.4454
H79_3 H 0.4787 0.5607 0.4713
H80_3 H 0.4837 0.6156 0.4788
H81_3 H 0.5274 0.5240 0.5386
H82_3 H 0.5370 0.5464 0.6243
H83_3 H 0.5121 0.5137 0.6119
C129_3 C 0.6711(2) 0.5661(4) 0.4580(7)
H84_3 H 0.6387 0.5698 0.5106
C130_3 C 0.6679(2) 0.6158(5) 0.3457(7)
H85_3 H 0.6309 0.8997 0.4592
C131_3 C 0.6676(3) 0.9211(7) 0.5022(8)
C132_3 C 0.6789(3) 0.9044(7) 0.6368(8)
H86_3 H 0.3666 0.9402 0.4969
C133_3 C 0.3336(2) 0.9396(5) 0.5465(7)
C134_3 C 0.3373(2) 0.8923(5) 0.6612(7)
C135_3 C 0.28725(19) 0.9520(5) 0.3087(7)
C136_3 C 0.3202(2) 0.5781(5) 0.4259(7)
H87_3 H 0.3383 0.5462 0.5244
H88_3 H 0.3102 0.6157 0.3266
H89_3 H 0.3968 0.6229 0.8534
C137_3 C 0.3814(2) 0.6374(5) 0.7389(7)
C138_3 C 0.6823(2) 0.5835(4) 0.3924(7)
H90_3 H 0.6800 0.5444 0.4942
H91_3 H 0.6752 0.6282 0.3020
H92_3 H 0.6715 0.9334 0.4532
C139_3 C 0.6854(2) 0.9244(6) 0.5700(7)
H93_3 H 0.6910 0.9060 0.6845
H94_3 H 0.3239 0.9594 0.5083
C140_3 C 0.3230(2) 0.9230(5) 0.6094(7)
H95_3 H 0.3297 0.8801 0.7043
C141_3 C 0.29366(19) 0.5625(4) 0.4332(7)
C142_3 C 0.3566(2) 0.6116(5) 0.7382(7)
C143_3 C 0.7082(2) 0.5682(4) 0.3786(6)
C144_3 C 0.7104(2) 0.9485(5) 0.5671(7)
C145_3 C 0.2952(2) 0.9329(5) 0.6184(7)
O59_3 O 0.29170(13) 0.5367(3) 0.4939(5)
C146_3 C 0.3395(2) 0.6081(5) 0.6705(7)
N26_3 N 0.3531(2) 0.5895(5) 0.8052(6)
O61_2 O 0.72596(14) 0.9515(3) 0.6292(5)
O62_2 O 0.71312(16) 0.9680(4) 0.5036(5)
O63_2 O 0.28918(15) 0.9338(4) 0.6868(5)
H96_3 H 0.3425 0.6239 0.6235
C147_3 C 0.3177(2) 0.5818(5) 0.6697(7)
C148_3 C 0.3320(2) 0.5638(5) 0.8038(8)
O70_3 O 0.27434(12) 0.5234(2) 0.6779(4)
O71_3 O 0.25891(18) 0.6072(3) 0.5565(6)
O74_2 O 0.22596(14) 0.4515(3) 0.6292(5)
O75_2 O 0.21312(16) 0.4680(4) 0.5036(5)
H97_3 H 0.3054 0.5800 0.6228
C149_3 C 0.31396(19) 0.5580(4) 0.7370(7)
H98_3 H 0.3293 0.5485 0.8517
C150_3 C 0.29093(18) 0.5278(4) 0.7391(6)
H99_3 H 0.2755 0.6136 0.5359
H100_3 H 0.2598 0.6164 0.6078
O77_3 O 0.28947(13) 0.5062(3) 0.8039(4)
O78_3 O 0.2444(2) 0.3698(3) 0.7478(7)
O82_2 O 0.21082(15) 0.4338(4) 0.8132(5)
H101_3 H 0.2590 0.3497 0.7603
H102_3 H 0.2332 0.3444 0.7600
O4_3 O 0.47113(12) 0.7857(3) 0.9858(4)
C4_3 C 0.45514(17) 0.7865(4) 0.9214(6)
C5_3 C 0.53189(18) 0.8207(4) 0.9670(6)
O10_3 O 0.46995(12) 0.6810(2) 0.9612(4)
C9_3 C 0.4300(2) 0.8115(5) 0.9190(7)
O11_3 O 0.45953(13) 0.7676(3) 0.8589(4)
C10_3 C 0.55636(19) 0.8419(4) 0.9477(6)
O12_3 O 0.51876(13) 0.7999(2) 0.9120(4)
C17_3 C 0.4132(2) 0.8150(6) 0.8511(8)
C18_3 C 0.4250(3) 0.8344(6) 0.9861(8)
C19_3 C 0.5685(2) 0.8238(5) 0.8887(7)
C20_3 C 0.56853(19) 0.8803(4) 0.9889(6)
H5_3 H 0.5553 0.6579 0.9723
O13_3 O 0.54481(13) 0.7174(3) 0.8447(4)
O15_3 O 0.51234(13) 0.6406(3) 0.8880(5)
H9_3 H 0.4351 0.6161 0.9654
H10_3 H 0.4179 0.8036 0.8025
C24_3 C 0.3897(3) 0.8345(6) 0.8508(8)
N4_3 N 0.4024(2) 0.8566(6) 0.9867(7)
H12_3 H 0.5608 0.7988 0.8568
C25_3 C 0.5920(2) 0.8415(5) 0.8748(7)
N5_3 N 0.59108(16) 0.8980(3) 0.9748(5)
C27_3 C 0.54630(18) 0.6962(3) 0.7813(6)
H15_3 H 0.5101 0.8115 0.7484
C28_3 C 0.4977(3) 0.6106(5) 0.8734(9)
H18_3 H 0.3770 0.8337 0.8045
C31_3 C 0.3849(3) 0.8559(6) 0.9216(8)
H19_3 H 0.6007 0.8280 0.8351
C32_3 C 0.6024(2) 0.8781(4) 0.9184(7)
C34_3 C 0.57231(19) 0.6780(4) 0.7698(6)
N6_3 N 0.4946(3) 0.5784(5) 0.9350(9)
H20_3 H 0.4881 0.6076 0.8216
C37_3 C 0.3596(3) 0.8792(7) 0.9262(8)
C38_3 C 0.6283(2) 0.8960(5) 0.9074(7)
C40_3 C 0.5762(2) 0.6572(5) 0.6999(7)
C41_3 C 0.59218(19) 0.6790(4) 0.8307(6)
C43_3 C 0.4781(5) 0.5371(8) 0.9132(15)
C46_3 C 0.3561(3) 0.8998(7) 0.9955(8)
N10_3 N 0.3434(2) 0.8827(6) 0.8603(7)
C47_3 C 0.6414(2) 0.9273(5) 0.9614(8)
N11_3 N 0.63859(19) 0.8787(4) 0.8456(6)
H21_3 H 0.6206 0.5759 0.9849
H22_3 H 0.5629 0.6567 0.6553
C50_3 C 0.6000(2) 0.6369(5) 0.6949(7)
H23_3 H 0.5897 0.6949 0.8782
N12_3 N 0.61529(16) 0.6588(4) 0.8284(5)
H27_3 H 0.4726 0.5240 0.9614
H28_3 H 0.4630 0.5464 0.8757
H29_3 H 0.4879 0.5137 0.8881
H31_3 H 0.3613 0.5698 0.9894
C55_3 C 0.3324(3) 0.9211(7) 0.9978(8)
C56_3 C 0.3211(3) 0.9044(7) 0.8632(8)
C57_3 C 0.6664(2) 0.9396(5) 0.9535(7)
C58_3 C 0.6627(2) 0.8923(5) 0.8388(7)
H34_3 H 0.6617 0.5462 0.9756
H36_3 H 0.6032 0.6229 0.6466
C60_3 C 0.6186(2) 0.6374(5) 0.7611(7)
C63_3 C 0.3146(2) 0.9244(6) 0.9300(7)
H42_3 H 0.3090 0.9060 0.8155
H43_3 H 0.6761 0.9594 0.9917
C64_3 C 0.6770(2) 0.9230(5) 0.8906(7)
H44_3 H 0.6703 0.8801 0.7957
C66_3 C 0.6434(2) 0.6116(5) 0.7618(7)
C69_3 C 0.2896(2) 0.9485(5) 0.9329(7)
C70_3 C 0.7048(2) 0.9329(5) 0.8816(7)
C71_3 C 0.6605(2) 0.6081(5) 0.8295(7)
N13_3 N 0.6469(2) 0.5895(5) 0.6948(6)
O23_2 O 0.27404(14) 0.9515(3) 0.8708(5)
O24_2 O 0.28688(16) 0.9680(4) 0.9964(5)
O25_2 O 0.71082(15) 0.9338(4) 0.8132(5)
H45_3 H 0.6575 0.6239 0.8765
C72_3 C 0.6823(2) 0.5818(5) 0.8303(7)
C73_3 C 0.6680(2) 0.5638(5) 0.6962(8)
O28_3 O 0.72566(12) 0.5234(2) 0.8221(4)
O29_3 O 0.74109(18) 0.6072(3) 0.9435(6)
H46_3 H 0.6946 0.5800 0.8772
C74_3 C 0.68604(19) 0.5580(4) 0.7630(7)
H47_3 H 0.6707 0.5485 0.6483
C75_3 C 0.70907(18) 0.5278(4) 0.7609(6)
H48_3 H 0.7245 0.6136 0.9641
H49_3 H 0.7402 0.6164 0.8922
O30_3 O 0.71053(13) 0.5062(3) 0.6961(4)
O31_3 O 0.7556(2) 0.3698(3) 0.7522(7)
H50_3 H 0.7410 0.3497 0.7397
H51_3 H 0.7668 0.3444 0.7400
H57_3 H 0.4899 0.8115 0.7516
O54_2 O 0.77404(14) 0.4515(3) 0.8708(5)
O55_2 O 0.78688(16) 0.4680(4) 0.9964(5)
O68_2 O 0.78918(15) 0.4338(4) 0.6868(5)
O1_4 O 0.03768(12) 0.2386(3) 0.1400(4)
O2_4 O 0.02766(11) 0.3204(2) 0.2233(4)
O5_4 O 0.02699(12) 0.3257(2) 0.0372(4)
O6_5 O -0.0000 0.2323(3) 0.2500
C1_4 C 0.04107(17) 0.2166(4) 0.0773(6)
C2_4 C 0.04725(16) 0.3094(4) 0.2737(6)
H1_4 H 0.0126 0.1976 0.2564
C6_4 C 0.06464(18) 0.1888(4) 0.0812(6)
O9_4 O 0.02492(12) 0.2191(3) 0.0133(4)
C7_4 C 0.07354(18) 0.3236(5) 0.2569(6)
C11_4 C 0.0830(2) 0.1906(6) 0.1475(8)
C12_4 C 0.06826(18) 0.1597(4) 0.0177(6)
C13_4 C 0.0935(2) 0.3262(6) 0.3181(7)
C14_4 C 0.0774(2) 0.3359(5) 0.1812(7)
H4_4 H 0.0804 0.2093 0.1919
C21_4 C 0.1050(2) 0.1658(6) 0.1497(8)
N1_4 N 0.08970(17) 0.1342(4) 0.0200(6)
H6_4 H 0.0907 0.3154 0.3693
N2_4 N 0.11700(18) 0.3434(5) 0.3099(6)
C22_4 C 0.1013(2) 0.3518(5) 0.1698(7)
H7_4 H 0.0639 0.3336 0.1375
H13_4 H 0.0603 0.3945 0.0292
H14_4 H 0.1178 0.1665 0.1957
C26_4 C 0.1084(2) 0.1396(5) 0.0845(7)
C29_4 C 0.1202(2) 0.3574(6) 0.2352(7)
H16_4 H 0.1048 0.3588 0.1176
C33_4 C 0.1330(2) 0.1151(5) 0.0823(7)
C35_4 C 0.1455(2) 0.3786(6) 0.2291(7)
C39_4 C 0.1351(2) 0.0846(5) 0.0224(7)
N7_4 N 0.1529(2) 0.1251(5) 0.1407(6)
C42_4 C 0.0081(5) 0.0849(8) 0.0166(14)
C44_4 C 0.1583(2) 0.4043(6) 0.2909(8)
N8_4 N 0.1531(2) 0.3761(5) 0.1582(6)
C48_4 C 0.1593(2) 0.0667(5) 0.0180(8)
C49_4 C 0.1756(2) 0.1075(6) 0.1343(8)
H25_4 H 0.0213 0.0607 0.0287
H26_4 H 0.0163 0.1156 0.0212
H30_4 H 0.1521 0.4053 0.3409
C51_4 C 0.1805(3) 0.4292(6) 0.2802(8)
C52_4 C 0.1755(2) 0.3981(6) 0.1494(7)
H33_4 H 0.1334 0.4402 0.0031
C59_4 C 0.1798(2) 0.0781(5) 0.0741(7)
H35_4 H 0.1898 0.1157 0.1734
H37_4 H 0.1894 0.4477 0.3220
C61_4 C 0.1890(2) 0.4260(6) 0.2074(7)
H38_4 H 0.1822 0.3940 0.1006
C65_4 C 0.20634(19) 0.0625(4) 0.0668(7)
C67_4 C 0.21275(19) 0.4520(5) 0.1913(7)
O18_4 O 0.20830(13) 0.0367(3) 0.0061(5)
Ce5_4 Ce 0.00273(2) 0.28333(2) 0.38153(3)
O32_4 O 0.04601(13) 0.2894(3) 0.3388(4)
O35_4 O 0.02260(13) 0.2074(3) 0.4128(4)
O36_4 O 0.02887(12) 0.2857(3) 0.5142(4)
O38_4 O 0.01497(14) 0.3666(3) 0.3862(5)
C79_4 C 0.03607(17) 0.1871(4) 0.4683(6)
C80_4 C 0.04486(17) 0.2865(4) 0.5786(6)
H53_4 H 0.0030 0.3962 0.3694
H54_4 H 0.0100 0.3726 0.4383
C85_4 C 0.06143(18) 0.1667(4) 0.4517(6)
O40_4 O 0.03005(12) 0.1810(2) 0.5388(4)
C86_4 C 0.0700(2) 0.3115(5) 0.5810(7)
O41_4 O 0.04047(13) 0.2676(3) 0.6411(4)
C91_4 C 0.0737(2) 0.1860(4) 0.3931(7)
C92_4 C 0.07335(19) 0.1297(4) 0.4943(6)
C93_4 C 0.0868(2) 0.3150(6) 0.6489(8)
C94_4 C 0.0750(3) 0.3344(6) 0.5139(8)
O46_2 O 0.02777(12) 0.1866(2) 0.7276(4)
O47_2 O -0.0000 0.2756(3) 0.7500
H61_4 H 0.0658 0.2105 0.3606
C99_4 C 0.0975(2) 0.1696(5) 0.3819(7)
H62_4 H 0.0649 0.1161 0.5346
N16_4 N 0.09625(16) 0.1116(3) 0.4825(5)
H63_4 H 0.0821 0.3036 0.6975
C100_4 C 0.1103(3) 0.3345(6) 0.6492(8)
H64_4 H 0.0624 0.3347 0.4675
N17_4 N 0.0976(2) 0.3566(6) 0.5133(7)
C105_4 C 0.0023(3) 0.1106(5) 0.6266(9)
Ce8_2 Ce 0.00030(2) 0.22377(2) 0.88073(3)
H68_4 H 0.1065 0.1838 0.3437
C106_4 C 0.10825(19) 0.1321(4) 0.4268(6)
H69_4 H 0.1230 0.3337 0.6955
C107_4 C 0.1151(3) 0.3559(6) 0.5784(8)
N20_4 N 0.0054(3) 0.0784(5) 0.5650(9)
H71_4 H 0.0119 0.1076 0.6784
C112_4 C 0.1342(2) 0.1134(4) 0.4172(6)
C113_4 C 0.1404(3) 0.3792(7) 0.5738(8)
C121_4 C 0.0219(5) 0.0371(8) 0.5868(15)
C122_4 C 0.1467(2) 0.0816(4) 0.4679(7)
N22_4 N 0.14453(18) 0.1315(4) 0.3557(6)
C123_4 C 0.1439(3) 0.3998(7) 0.5045(8)
N23_4 N 0.1566(2) 0.3827(6) 0.6397(7)
H78_4 H 0.0042 0.0827 0.4454
H81_4 H 0.0274 0.0240 0.5386
H82_4 H 0.0370 0.0464 0.6243
H83_4 H 0.0121 0.0137 0.6119
C129_4 C 0.1711(2) 0.0661(4) 0.4580(7)
H84_4 H 0.1387 0.0698 0.5106
C130_4 C 0.1679(2) 0.1158(5) 0.3457(7)
H85_4 H 0.1309 0.3997 0.4592
C131_4 C 0.1676(3) 0.4211(7) 0.5022(8)
C132_4 C 0.1789(3) 0.4044(7) 0.6368(8)
C138_4 C 0.1823(2) 0.0835(4) 0.3924(7)
H90_4 H 0.1800 0.0444 0.4942
H91_4 H 0.1752 0.1282 0.3020
H92_4 H 0.1715 0.4334 0.4532
C139_4 C 0.1854(2) 0.4244(6) 0.5700(7)
H93_4 H 0.1910 0.4060 0.6845
C143_4 C 0.2082(2) 0.0682(4) 0.3786(6)
C144_4 C 0.2104(2) 0.4485(5) 0.5671(7)
C5_4 C 0.03189(18) 0.3207(4) 0.9670(6)
C10_4 C 0.05636(19) 0.3419(4) 0.9477(6)
O12_4 O 0.01876(13) 0.2999(2) 0.9120(4)
C19_4 C 0.0685(2) 0.3238(5) 0.8887(7)
C20_4 C 0.06853(19) 0.3803(4) 0.9889(6)
H5_4 H 0.0553 0.1579 0.9723
O13_4 O 0.04481(13) 0.2174(3) 0.8447(4)
O15_4 O 0.01234(13) 0.1406(3) 0.8880(5)
H12_4 H 0.0608 0.2988 0.8568
C25_4 C 0.0920(2) 0.3415(5) 0.8748(7)
N5_4 N 0.09108(16) 0.3980(3) 0.9748(5)
C27_4 C 0.04630(18) 0.1962(3) 0.7813(6)
H15_4 H 0.0101 0.3115 0.7484
H19_4 H 0.1007 0.3280 0.8351
C32_4 C 0.1024(2) 0.3781(4) 0.9184(7)
C34_4 C 0.07231(19) 0.1780(4) 0.7698(6)
C38_4 C 0.1283(2) 0.3960(5) 0.9074(7)
C40_4 C 0.0762(2) 0.1572(5) 0.6999(7)
C41_4 C 0.09218(19) 0.1790(4) 0.8307(6)
C47_4 C 0.1414(2) 0.4273(5) 0.9614(8)
N11_4 N 0.13859(19) 0.3787(4) 0.8456(6)
H21_4 H 0.1206 0.0759 0.9849
H22_4 H 0.0629 0.1567 0.6553
C50_4 C 0.1000(2) 0.1369(5) 0.6949(7)
H23_4 H 0.0897 0.1949 0.8782
N12_4 N 0.11529(16) 0.1588(4) 0.8284(5)
C57_4 C 0.1664(2) 0.4396(5) 0.9535(7)
C58_4 C 0.1627(2) 0.3923(5) 0.8388(7)
H34_4 H 0.1617 0.0462 0.9756
H36_4 H 0.1032 0.1229 0.6466
C60_4 C 0.1186(2) 0.1374(5) 0.7611(7)
H43_4 H 0.1761 0.4594 0.9917
C64_4 C 0.1770(2) 0.4230(5) 0.8906(7)
H44_4 H 0.1703 0.3801 0.7957
C66_4 C 0.1434(2) 0.1116(5) 0.7618(7)
C70_4 C 0.2048(2) 0.4329(5) 0.8816(7)
C71_4 C 0.1605(2) 0.1081(5) 0.8295(7)
N13_4 N 0.1469(2) 0.0895(5) 0.6948(6)
H45_4 H 0.1575 0.1239 0.8765
C72_4 C 0.1823(2) 0.0818(5) 0.8303(7)
C73_4 C 0.1680(2) 0.0638(5) 0.6962(8)
O28_4 O 0.22566(12) 0.0234(2) 0.8221(4)
O29_4 O 0.24109(18) 0.1072(3) 0.9435(6)
H46_4 H 0.1946 0.0800 0.8772
C74_4 C 0.18604(19) 0.0580(4) 0.7630(7)
H47_4 H 0.1707 0.0485 0.6483
C75_4 C 0.20907(18) 0.0278(4) 0.7609(6)
H48_4 H 0.2245 0.1136 0.9641
H49_4 H 0.2402 0.1164 0.8922
O30_4 O 0.21053(13) 0.0062(3) 0.6961(4)
O31_4 O 0.2556(2) 0.8698(3) 0.7522(7)
H50_4 H 0.2410 0.8497 0.7397
H51_4 H 0.2668 0.8444 0.7400
Ce1_4 Ce 0.99727(2) 0.28333(2) 0.11847(3)
O3_4 O 0.97740(13) 0.2074(3) 0.0872(4)
O6_6 O 1.0000 0.2323(3) 0.2500
O7_4 O 0.98503(14) 0.3666(3) 0.1138(5)
O8_4 O 0.95399(13) 0.2894(3) 0.1612(4)
C3_4 C 0.96393(17) 0.1871(4) 0.0317(6)
H2_4 H 0.9970 0.3962 0.1306
H3_4 H 0.9900 0.3726 0.0617
C8_4 C 0.93857(18) 0.1667(4) 0.0483(6)
C15_4 C 0.9263(2) 0.1860(4) 0.1069(7)
C16_4 C 0.92665(19) 0.1297(4) 0.0057(6)
H8_4 H 0.9342 0.2105 0.1394
C23_4 C 0.9025(2) 0.1696(5) 0.1181(7)
N3_4 N 0.90375(16) 0.1116(3) 0.0175(5)
H11_4 H 0.9376 0.3347 0.0325
H17_4 H 0.8935 0.1838 0.1563
C30_4 C 0.89175(19) 0.1321(4) 0.0732(6)
C36_4 C 0.8658(2) 0.1134(4) 0.0828(6)
C45_4 C 0.8533(2) 0.0816(4) 0.0321(7)
N9_4 N 0.85547(18) 0.1315(4) 0.1443(6)
H24_4 H 0.9958 0.0827 0.0546
C53_4 C 0.8289(2) 0.0661(4) 0.0420(7)
C54_4 C 0.8321(2) 0.1158(5) 0.1543(7)
H32_4 H 0.8691 0.3997 0.0408
C62_4 C 0.8177(2) 0.0835(4) 0.1076(7)
H39_4 H 0.8200 0.0444 0.0058
H40_4 H 0.8248 0.1282 0.1980
H41_4 H 0.8285 0.4334 0.0468
C68_4 C 0.7918(2) 0.0682(4) 0.1214(6)
H52_4 H 0.9874 0.1976 0.2436
C76_4 C 0.95275(16) 0.3094(4) 0.2263(6)
O33_4 O 0.96232(12) 0.2386(3) 0.3600(4)
O34_4 O 0.97234(11) 0.3204(2) 0.2767(4)
O37_4 O 0.97301(12) 0.3257(2) 0.4628(4)
C77_4 C 0.92646(18) 0.3236(5) 0.2431(6)
C78_4 C 0.95893(17) 0.2166(4) 0.4227(6)
C81_4 C 0.96811(18) 0.3207(4) 0.5330(6)
C82_4 C 0.9065(2) 0.3262(6) 0.1819(7)
C83_4 C 0.9226(2) 0.3359(5) 0.3188(7)
C84_4 C 0.93536(18) 0.1888(4) 0.4188(6)
O39_4 O 0.97508(12) 0.2191(3) 0.4867(4)
C87_4 C 0.94364(19) 0.3419(4) 0.5523(6)
O42_4 O 0.98124(13) 0.2999(2) 0.5880(4)
H55_4 H 0.9093 0.3154 0.1307
N14_4 N 0.88300(18) 0.3434(5) 0.1901(6)
C88_4 C 0.8987(2) 0.3518(5) 0.3302(7)
H56_4 H 0.9361 0.3336 0.3625
C89_4 C 0.9170(2) 0.1906(6) 0.3525(8)
C90_4 C 0.93174(18) 0.1597(4) 0.4823(6)
Ce7_2 Ce 0.99970(2) 0.22377(2) 0.61927(3)
C95_4 C 0.9315(2) 0.3238(5) 0.6113(7)
C96_4 C 0.93147(19) 0.3803(4) 0.5111(6)
C97_4 C 0.8798(2) 0.3574(6) 0.2648(7)
H58_4 H 0.8952 0.3588 0.3824
H59_4 H 0.9196 0.2093 0.3081
C98_4 C 0.8950(2) 0.1658(6) 0.3503(8)
H60_4 H 0.9447 0.1579 0.5277
N15_4 N 0.91030(17) 0.1342(4) 0.4800(6)
O44_4 O 0.95519(13) 0.2174(3) 0.6553(4)
O45_4 O 0.98766(13) 0.1406(3) 0.6120(5)
O47_3 O 1.0000 0.2756(3) 0.7500
H65_4 H 0.9392 0.2988 0.6432
C101_4 C 0.9080(2) 0.3415(5) 0.6252(7)
H66_4 H 0.9397 0.3945 0.4708
N18_4 N 0.90892(16) 0.3980(3) 0.5252(5)
C102_4 C 0.8545(2) 0.3786(6) 0.2709(7)
H67_4 H 0.8822 0.1665 0.3043
C103_4 C 0.8916(2) 0.1396(5) 0.4155(7)
C104_4 C 0.95370(18) 0.1962(3) 0.7187(6)
H70_4 H 0.8993 0.3280 0.6649
C108_4 C 0.8976(2) 0.3781(4) 0.5816(7)
C109_4 C 0.8417(2) 0.4043(6) 0.2091(8)
N19_4 N 0.8469(2) 0.3761(5) 0.3418(6)
C110_4 C 0.8670(2) 0.1151(5) 0.4177(7)
C111_4 C 0.92769(19) 0.1780(4) 0.7302(6)
O48_2 O 0.97223(12) 0.1866(2) 0.7724(4)
C114_4 C 0.8717(2) 0.3960(5) 0.5926(7)
H72_4 H 0.8479 0.4053 0.1591
C115_4 C 0.8195(3) 0.4292(6) 0.2198(8)
C116_4 C 0.8245(2) 0.3981(6) 0.3506(7)
C117_4 C 0.8649(2) 0.0846(5) 0.4776(7)
N21_4 N 0.8471(2) 0.1251(5) 0.3593(6)
C118_4 C 0.9238(2) 0.1572(5) 0.8001(7)
C119_4 C 0.90782(19) 0.1790(4) 0.6693(6)
C120_4 C 0.9919(5) 0.0849(8) 0.4834(14)
C124_4 C 0.8586(2) 0.4273(5) 0.5386(8)
N24_4 N 0.86141(19) 0.3787(4) 0.6544(6)
H73_4 H 0.8106 0.4477 0.1780
C125_4 C 0.8110(2) 0.4260(6) 0.2926(7)
H74_4 H 0.8178 0.3940 0.3994
C126_4 C 0.8407(2) 0.0667(5) 0.4820(8)
H75_4 H 0.8794 0.0759 0.5151
C127_4 C 0.8244(2) 0.1075(6) 0.3657(8)
H76_4 H 0.9371 0.1567 0.8447
C128_4 C 0.9000(2) 0.1369(5) 0.8051(7)
H77_4 H 0.9103 0.1949 0.6218
N25_4 N 0.88471(16) 0.1588(4) 0.6716(5)
H79_4 H 0.9787 0.0607 0.4713
H80_4 H 0.9837 0.1156 0.4788
H86_4 H 0.8666 0.4402 0.4969
C133_4 C 0.8336(2) 0.4396(5) 0.5465(7)
C134_4 C 0.8373(2) 0.3923(5) 0.6612(7)
C135_4 C 0.78725(19) 0.4520(5) 0.3087(7)
C136_4 C 0.8202(2) 0.0781(5) 0.4259(7)
H87_4 H 0.8383 0.0462 0.5244
H88_4 H 0.8102 0.1157 0.3266
H89_4 H 0.8968 0.1229 0.8534
C137_4 C 0.8814(2) 0.1374(5) 0.7389(7)
H94_4 H 0.8239 0.4594 0.5083
C140_4 C 0.8230(2) 0.4230(5) 0.6094(7)
H95_4 H 0.8297 0.3801 0.7043
C141_4 C 0.79366(19) 0.0625(4) 0.4332(7)
C142_4 C 0.8566(2) 0.1116(5) 0.7382(7)
C145_4 C 0.7952(2) 0.4329(5) 0.6184(7)
O59_4 O 0.79170(13) 0.0367(3) 0.4939(5)
C146_4 C 0.8395(2) 0.1081(5) 0.6705(7)
N26_4 N 0.8531(2) 0.0895(5) 0.8052(6)
H96_4 H 0.8425 0.1239 0.6235
C147_4 C 0.8177(2) 0.0818(5) 0.6697(7)
C148_4 C 0.8320(2) 0.0638(5) 0.8038(8)
O70_4 O 0.77434(12) 0.0234(2) 0.6779(4)
O71_4 O 0.75891(18) 0.1072(3) 0.5565(6)
H97_4 H 0.8054 0.0800 0.6228
C149_4 C 0.81396(19) 0.0580(4) 0.7370(7)
H98_4 H 0.8293 0.0485 0.8517
C150_4 C 0.79093(18) 0.0278(4) 0.7391(6)
H99_4 H 0.7755 0.1136 0.5359
H100_4 H 0.7598 0.1164 0.6078
O77_4 O 0.78947(13) 0.0062(3) 0.8039(4)
O4_4 O 0.97113(12) 0.2857(3) 0.9858(4)
C4_4 C 0.95514(17) 0.2865(4) 0.9214(6)
O10_4 O 0.96995(12) 0.1810(2) 0.9612(4)
C9_4 C 0.9300(2) 0.3115(5) 0.9190(7)
O11_4 O 0.95953(13) 0.2676(3) 0.8589(4)
C17_4 C 0.9132(2) 0.3150(6) 0.8511(8)
C18_4 C 0.9250(3) 0.3344(6) 0.9861(8)
H9_4 H 0.9351 0.1161 0.9654
H10_4 H 0.9179 0.3036 0.8025
C24_4 C 0.8897(3) 0.3345(6) 0.8508(8)
N4_4 N 0.9024(2) 0.3566(6) 0.9867(7)
C28_4 C 0.9977(3) 0.1106(5) 0.8734(9)
H18_4 H 0.8770 0.3337 0.8045
C31_4 C 0.8849(3) 0.3559(6) 0.9216(8)
N6_4 N 0.9946(3) 0.0784(5) 0.9350(9)
H20_4 H 0.9881 0.1076 0.8216
C37_4 C 0.8596(3) 0.3792(7) 0.9262(8)
C43_4 C 0.9781(5) 0.0371(8) 0.9132(15)
C46_4 C 0.8561(3) 0.3998(7) 0.9955(8)
N10_4 N 0.8434(2) 0.3827(6) 0.8603(7)
H27_4 H 0.9726 0.0240 0.9614
H28_4 H 0.9630 0.0464 0.8757
H29_4 H 0.9879 0.0137 0.8881
H31_4 H 0.8613 0.0698 0.9894
C55_4 C 0.8324(3) 0.4211(7) 0.9978(8)
C56_4 C 0.8211(3) 0.4044(7) 0.8632(8)
C63_4 C 0.8146(2) 0.4244(6) 0.9300(7)
H42_4 H 0.8090 0.4060 0.8155
C69_4 C 0.7896(2) 0.4485(5) 0.9329(7)
H57_4 H 0.9899 0.3115 0.7516
O78_4 O 0.7444(2) 0.8698(3) 0.7478(7)
H101_4 H 0.7590 0.8497 0.7603
H102_4 H 0.7332 0.8444 0.7600
loop_
_geom_bond_atom_site_label_1
_geom_bond_atom_site_label_2
_geom_bond_site_symmetry_1
_geom_bond_site_symmetry_2
C4 O4 1_555 1_555
C9 C4 1_555 1_555
O11 C4 1_555 1_555
C10 C5 1_555 1_555
O12 C5 1_555 1_555
C17 C9 1_555 1_555
C18 C9 1_555 1_555
C19 C10 1_555 1_555
C20 C10 1_555 1_555
O13 Ce2 1_555 1_555
O14 Ce2 1_555 1_555
O15 Ce2 1_555 1_555
O16 Ce2 1_555 1_555
H10 C17 1_555 1_555
C24 C17 1_555 1_555
N4 C18 1_555 1_555
H12 C19 1_555 1_555
C25 C19 1_555 1_555
N5 C20 1_555 1_555
C27 O13 1_555 1_555
H15 O14 1_555 1_555
C28 O15 1_555 1_555
H18 C24 1_555 1_555
C31 C24 1_555 1_555
H19 C25 1_555 1_555
C32 C25 1_555 1_555
C34 C27 1_555 1_555
N6 C28 1_555 1_555
H20 C28 1_555 1_555
C37 C31 1_555 1_555
C38 C32 1_555 1_555
C40 C34 1_555 1_555
C41 C34 1_555 1_555
C43 N6 1_555 1_555
C46 C37 1_555 1_555
N10 C37 1_555 1_555
C47 C38 1_555 1_555
N11 C38 1_555 1_555
H22 C40 1_555 1_555
C50 C40 1_555 1_555
H23 C41 1_555 1_555
N12 C41 1_555 1_555
H27 C43 1_555 1_555
H28 C43 1_555 1_555
H29 C43 1_555 1_555
C55 C46 1_555 1_555
C56 N10 1_555 1_555
C57 C47 1_555 1_555
C58 N11 1_555 1_555
H36 C50 1_555 1_555
C60 C50 1_555 1_555
C63 C55 1_555 1_555
H42 C56 1_555 1_555
H43 C57 1_555 1_555
C64 C57 1_555 1_555
H44 C58 1_555 1_555
C66 C60 1_555 1_555
C69 C63 1_555 1_555
C70 C64 1_555 1_555
C71 C66 1_555 1_555
N13 C66 1_555 1_555
O23 C69 1_555 1_555
O24 C69 1_555 1_555
O25 C70 1_555 1_555
O26 C70 1_555 1_555
H45 C71 1_555 1_555
C72 C71 1_555 1_555
C73 N13 1_555 1_555
O28 Ce4 1_555 1_555
O29 Ce4 1_555 1_555
H46 C72 1_555 1_555
C74 C72 1_555 1_555
H47 C73 1_555 1_555
C75 O28 1_555 1_555
H48 O29 1_555 1_555
H49 O29 1_555 1_555
O30 C75 1_555 1_555
O31 H50 1_555 1_555
H51 O31 1_555 1_555
H57 O14 1_555 1_555
Ce6 O14 1_555 1_555
O43 C27 1_555 1_555
Ce13 O23 1_555 1_555
Ce15 O25 1_555 1_555
O52 Ce4 1_555 1_555
O53 Ce4 1_555 1_555
O54 Ce4 1_555 1_555
O55 Ce4 1_555 1_555
Ce18 O28 1_555 1_555
O65 Ce18 1_555 1_555
O66 Ce18 1_555 1_555
O67 Ce18 1_555 1_555
O68 Ce18 1_555 1_555
O69 Ce18 1_555 1_555
O10 Ce2 1_555 1_555
O11 Ce2 1_555 1_555
O12 Ce2 1_555 1_555
N4 C31 1_555 1_555
N5 C32 1_555 1_555
N12 C60 1_555 1_555
C56 C63 1_555 1_555
C58 C64 1_555 1_555
C73 C74 1_555 1_555
C74 C75 1_555 1_555
O30 Ce18 1_555 1_555
O31 Ce18 1_555 1_555
Ce6 O43 1_555 1_555
O54 Ce18 1_555 1_555
Ce1 O1 1_555 1_555
O1 C1 1_555 1_555
O2 Ce1 1_555 1_555
O3 Ce1 1_555 1_555
O5 Ce1 1_555 1_555
O6 Ce1 1_555 1_555
O7 Ce1 1_555 1_555
O8 Ce1 1_555 1_555
C1 C6 1_555 1_555
C2 O2 1_555 1_555
C3 O3 1_555 1_555
H1 O6 1_555 1_555
H2 O7 1_555 1_555
H3 O7 1_555 1_555
C6 C11 1_555 1_555
O9 C1 1_555 1_555
C7 C2 1_555 1_555
C8 C3 1_555 1_555
C11 H4 1_555 1_555
C12 C6 1_555 1_555
C13 C7 1_555 1_555
C14 C7 1_555 1_555
C15 C8 1_555 1_555
C16 C8 1_555 1_555
C21 C11 1_555 1_555
N1 C12 1_555 1_555
H6 C13 1_555 1_555
N2 C13 1_555 1_555
C22 C14 1_555 1_555
H7 C14 1_555 1_555
H8 C15 1_555 1_555
C23 C15 1_555 1_555
N3 C16 1_555 1_555
H14 C21 1_555 1_555
C26 C21 1_555 1_555
C29 N2 1_555 1_555
H16 C22 1_555 1_555
H17 C23 1_555 1_555
C30 C23 1_555 1_555
C33 C26 1_555 1_555
C35 C29 1_555 1_555
C36 C30 1_555 1_555
C39 C33 1_555 1_555
N7 C33 1_555 1_555
C44 C35 1_555 1_555
N8 C35 1_555 1_555
C45 C36 1_555 1_555
N9 C36 1_555 1_555
C48 C39 1_555 1_555
C49 N7 1_555 1_555
H24 C42 1_555 1_555
H25 C42 1_555 1_555
H26 C42 1_555 1_555
H30 C44 1_555 1_555
C51 C44 1_555 1_555
C52 N8 1_555 1_555
C53 C45 1_555 1_555
C54 N9 1_555 1_555
C59 C48 1_555 1_555
H35 C49 1_555 1_555
H37 C51 1_555 1_555
C61 C51 1_555 1_555
H38 C52 1_555 1_555
C62 C53 1_555 1_555
H39 C53 1_555 1_555
H40 C54 1_555 1_555
C65 C59 1_555 1_555
C67 C61 1_555 1_555
C68 C62 1_555 1_555
O17 C65 1_555 1_555
O18 C65 1_555 1_555
O19 C67 1_555 1_555
O20 C67 1_555 1_555
O21 C68 1_555 1_555
O22 C68 1_555 1_555
Ce3 O17 1_555 1_555
O27 Ce3 1_555 1_555
H52 O6 1_555 1_555
Ce5 O6 1_555 1_555
C76 O8 1_555 1_555
O32 C2 1_555 1_555
O33 Ce5 1_555 1_555
O34 Ce5 1_555 1_555
O35 Ce5 1_555 1_555
O36 Ce5 1_555 1_555
O37 Ce5 1_555 1_555
O38 Ce5 1_555 1_555
C77 C76 1_555 1_555
C78 O33 1_555 1_555
C79 O35 1_555 1_555
C80 O36 1_555 1_555
C81 O37 1_555 1_555
H53 O38 1_555 1_555
H54 O38 1_555 1_555
C82 C77 1_555 1_555
C83 C77 1_555 1_555
C84 C78 1_555 1_555
O39 C78 1_555 1_555
C85 C79 1_555 1_555
O40 C79 1_555 1_555
C86 C80 1_555 1_555
O41 C80 1_555 1_555
C87 C81 1_555 1_555
O42 C81 1_555 1_555
H55 C82 1_555 1_555
N14 C82 1_555 1_555
C88 C83 1_555 1_555
H56 C83 1_555 1_555
C89 C84 1_555 1_555
C90 C84 1_555 1_555
Ce6 O39 1_555 1_555
C91 C85 1_555 1_555
C92 C85 1_555 1_555
C93 C86 1_555 1_555
C94 C86 1_555 1_555
C95 C87 1_555 1_555
C96 C87 1_555 1_555
C97 N14 1_555 1_555
H58 C88 1_555 1_555
H59 C89 1_555 1_555
C98 C89 1_555 1_555
H60 C90 1_555 1_555
N15 C90 1_555 1_555
O44 Ce6 1_555 1_555
O45 Ce6 1_555 1_555
H61 C91 1_555 1_555
C99 C91 1_555 1_555
H62 C92 1_555 1_555
N16 C92 1_555 1_555
H63 C93 1_555 1_555
C100 C93 1_555 1_555
H64 C94 1_555 1_555
N17 C94 1_555 1_555
H65 C95 1_555 1_555
C101 C95 1_555 1_555
H66 C96 1_555 1_555
N18 C96 1_555 1_555
C102 C97 1_555 1_555
H67 C98 1_555 1_555
C103 C98 1_555 1_555
C104 O44 1_555 1_555
C105 O45 1_555 1_555
H68 C99 1_555 1_555
C106 C99 1_555 1_555
H69 C100 1_555 1_555
C107 C100 1_555 1_555
H70 C101 1_555 1_555
C108 C101 1_555 1_555
C109 C102 1_555 1_555
N19 C102 1_555 1_555
C110 C103 1_555 1_555
C111 C104 1_555 1_555
O16 C104 1_555 1_555
N20 C105 1_555 1_555
H71 C105 1_555 1_555
C112 C106 1_555 1_555
C113 C107 1_555 1_555
C114 C108 1_555 1_555
H72 C109 1_555 1_555
C115 C109 1_555 1_555
C116 N19 1_555 1_555
C117 C110 1_555 1_555
N21 C110 1_555 1_555
C118 C111 1_555 1_555
C119 C111 1_555 1_555
C120 N20 1_555 1_555
C121 N20 1_555 1_555
C122 C112 1_555 1_555
N22 C112 1_555 1_555
C123 C113 1_555 1_555
N23 C113 1_555 1_555
C124 C114 1_555 1_555
N24 C114 1_555 1_555
H73 C115 1_555 1_555
C125 C115 1_555 1_555
H74 C116 1_555 1_555
C126 C117 1_555 1_555
H75 C117 1_555 1_555
C127 N21 1_555 1_555
H76 C118 1_555 1_555
C128 C118 1_555 1_555
H77 C119 1_555 1_555
N25 C119 1_555 1_555
H78 C120 1_555 1_555
H79 C120 1_555 1_555
H80 C120 1_555 1_555
H81 C121 1_555 1_555
H82 C121 1_555 1_555
H83 C121 1_555 1_555
C129 C122 1_555 1_555
H84 C122 1_555 1_555
C130 N22 1_555 1_555
H85 C123 1_555 1_555
C131 C123 1_555 1_555
C132 N23 1_555 1_555
H86 C124 1_555 1_555
C133 C124 1_555 1_555
C134 N24 1_555 1_555
C135 C125 1_555 1_555
C136 C126 1_555 1_555
H87 C126 1_555 1_555
H88 C127 1_555 1_555
H89 C128 1_555 1_555
C137 C128 1_555 1_555
C138 C129 1_555 1_555
H90 C129 1_555 1_555
H91 C130 1_555 1_555
H92 C131 1_555 1_555
C139 C131 1_555 1_555
H93 C132 1_555 1_555
H94 C133 1_555 1_555
C140 C133 1_555 1_555
H95 C134 1_555 1_555
O49 C135 1_555 1_555
O50 C135 1_555 1_555
Ce10 O20 1_555 1_555
Ce11 O21 1_555 1_555
Ce12 O22 1_555 1_555
C141 C136 1_555 1_555
C142 C137 1_555 1_555
C143 C138 1_555 1_555
C144 C139 1_555 1_555
C145 C140 1_555 1_555
Ce17 O50 1_555 1_555
O51 Ce3 1_555 1_555
O57 Ce11 1_555 1_555
O58 Ce11 1_555 1_555
O59 C141 1_555 1_555
C146 C142 1_555 1_555
N26 C142 1_555 1_555
O60 C143 1_555 1_555
O61 C144 1_555 1_555
O62 C144 1_555 1_555
O63 C145 1_555 1_555
O64 C145 1_555 1_555
Ce19 O58 1_555 1_555
H96 C146 1_555 1_555
C147 C146 1_555 1_555
C148 N26 1_555 1_555
Ce20 O60 1_555 1_555
Ce15 O61 1_555 1_555
Ce13 O63 1_555 1_555
O70 Ce19 1_555 1_555
O71 Ce19 1_555 1_555
O72 Ce19 1_555 1_555
O73 Ce19 1_555 1_555
O74 Ce19 1_555 1_555
O75 Ce19 1_555 1_555
O76 Ce19 1_555 1_555
H97 C147 1_555 1_555
C149 C147 1_555 1_555
H98 C148 1_555 1_555
Ce24 O70 1_555 1_555
C150 O70 1_555 1_555
H99 O71 1_555 1_555
H100 O71 1_555 1_555
O77 Ce24 1_555 1_555
O78 Ce24 1_555 1_555
O79 Ce24 1_555 1_555
O80 Ce24 1_555 1_555
O81 Ce24 1_555 1_555
O82 Ce24 1_555 1_555
O83 Ce24 1_555 1_555
H101 O78 1_555 1_555
H102 O78 1_555 1_555
N1 C26 1_555 1_555
C22 C29 1_555 1_555
N3 C30 1_555 1_555
C49 C59 1_555 1_555
C52 C61 1_555 1_555
C54 C62 1_555 1_555
Ce5 O32 1_555 1_555
C76 O34 1_555 1_555
O40 Ce6 1_555 1_555
O41 Ce6 1_555 1_555
O42 Ce6 1_555 1_555
C88 C97 1_555 1_555
N15 C103 1_555 1_555
N16 C106 1_555 1_555
N17 C107 1_555 1_555
N18 C108 1_555 1_555
C116 C125 1_555 1_555
C127 C136 1_555 1_555
N25 C137 1_555 1_555
C130 C138 1_555 1_555
C132 C139 1_555 1_555
C134 C140 1_555 1_555
C141 O57 1_555 1_555
C143 O51 1_555 1_555
Ce17 O64 1_555 1_555
O59 Ce19 1_555 1_555
C148 C149 1_555 1_555
O74 Ce24 1_555 1_555
C149 C150 1_555 1_555
C150 O77 1_555 1_555
O78_2 Ce15 1_555 1_555
O79_2 Ce15 1_555 1_555
O81_2 Ce15 1_555 1_555
H101_2 O78_2 1_555 1_555
H102_2 O78_2 1_555 1_555
C4_2 O4_2 1_555 1_555
C9_2 C4_2 1_555 1_555
O11_2 C4_2 1_555 1_555
C17_2 C9_2 1_555 1_555
C18_2 C9_2 1_555 1_555
H10_2 C17_2 1_555 1_555
C24_2 C17_2 1_555 1_555
N4_2 C18_2 1_555 1_555
H18_2 C24_2 1_555 1_555
C31_2 C24_2 1_555 1_555
N6_2 C28_2 1_555 1_555
H20_2 C28_2 1_555 1_555
C37_2 C31_2 1_555 1_555
C43_2 N6_2 1_555 1_555
C46_2 C37_2 1_555 1_555
N10_2 C37_2 1_555 1_555
H27_2 C43_2 1_555 1_555
H28_2 C43_2 1_555 1_555
H29_2 C43_2 1_555 1_555
C55_2 C46_2 1_555 1_555
C56_2 N10_2 1_555 1_555
C63_2 C55_2 1_555 1_555
H42_2 C56_2 1_555 1_555
C69_2 C63_2 1_555 1_555
O54 C69_2 1_555 1_555
O55 C69_2 1_555 1_555
H57_2 O14_2 1_555 1_555
Ce6_2 O14_2 1_555 1_555
N4_2 C31_2 1_555 1_555
C56_2 C63_2 1_555 1_555
O3_2 Ce1_2 1_555 1_555
O6_2 Ce1_2 1_555 1_555
O7_2 Ce1_2 1_555 1_555
O8_2 Ce1_2 1_555 1_555
C3_2 O3_2 1_555 1_555
H2_2 O7_2 1_555 1_555
H3_2 O7_2 1_555 1_555
C8_2 C3_2 1_555 1_555
C15_2 C8_2 1_555 1_555
C16_2 C8_2 1_555 1_555
H8_2 C15_2 1_555 1_555
C23_2 C15_2 1_555 1_555
N3_2 C16_2 1_555 1_555
H17_2 C23_2 1_555 1_555
C30_2 C23_2 1_555 1_555
C36_2 C30_2 1_555 1_555
C45_2 C36_2 1_555 1_555
N9_2 C36_2 1_555 1_555
C53_2 C45_2 1_555 1_555
C54_2 N9_2 1_555 1_555
C62_2 C53_2 1_555 1_555
H39_2 C53_2 1_555 1_555
H40_2 C54_2 1_555 1_555
C68_2 C62_2 1_555 1_555
O21_2 C68_2 1_555 1_555
O22_2 C68_2 1_555 1_555
H52_2 O6_2 1_555 1_555
C76_2 O8_2 1_555 1_555
C77_2 C76_2 1_555 1_555
C78_2 O33_2 1_555 1_555
C81_2 O37_2 1_555 1_555
C82_2 C77_2 1_555 1_555
C83_2 C77_2 1_555 1_555
C84_2 C78_2 1_555 1_555
O39_2 C78_2 1_555 1_555
C87_2 C81_2 1_555 1_555
O42_2 C81_2 1_555 1_555
H55_2 C82_2 1_555 1_555
N14_2 C82_2 1_555 1_555
C88_2 C83_2 1_555 1_555
H56_2 C83_2 1_555 1_555
C89_2 C84_2 1_555 1_555
C90_2 C84_2 1_555 1_555
Ce6_2 O39_2 1_555 1_555
C95_2 C87_2 1_555 1_555
C96_2 C87_2 1_555 1_555
C97_2 N14_2 1_555 1_555
H58_2 C88_2 1_555 1_555
H59_2 C89_2 1_555 1_555
C98_2 C89_2 1_555 1_555
H60_2 C90_2 1_555 1_555
N15_2 C90_2 1_555 1_555
O44_2 Ce6_2 1_555 1_555
O45_2 Ce6_2 1_555 1_555
H65_2 C95_2 1_555 1_555
C101_2 C95_2 1_555 1_555
H66_2 C96_2 1_555 1_555
N18_2 C96_2 1_555 1_555
C102_2 C97_2 1_555 1_555
H67_2 C98_2 1_555 1_555
C103_2 C98_2 1_555 1_555
C104_2 O44_2 1_555 1_555
H70_2 C101_2 1_555 1_555
C108_2 C101_2 1_555 1_555
C109_2 C102_2 1_555 1_555
N19_2 C102_2 1_555 1_555
C110_2 C103_2 1_555 1_555
C111_2 C104_2 1_555 1_555
O16_2 C104_2 1_555 1_555
C114_2 C108_2 1_555 1_555
H72_2 C109_2 1_555 1_555
C115_2 C109_2 1_555 1_555
C116_2 N19_2 1_555 1_555
C117_2 C110_2 1_555 1_555
N21_2 C110_2 1_555 1_555
C118_2 C111_2 1_555 1_555
C119_2 C111_2 1_555 1_555
C124_2 C114_2 1_555 1_555
N24_2 C114_2 1_555 1_555
H73_2 C115_2 1_555 1_555
C125_2 C115_2 1_555 1_555
H74_2 C116_2 1_555 1_555
C126_2 C117_2 1_555 1_555
H75_2 C117_2 1_555 1_555
C127_2 N21_2 1_555 1_555
H76_2 C118_2 1_555 1_555
C128_2 C118_2 1_555 1_555
H77_2 C119_2 1_555 1_555
N25_2 C119_2 1_555 1_555
H79_2 C120_2 1_555 1_555
H80_2 C120_2 1_555 1_555
H86_2 C124_2 1_555 1_555
C133_2 C124_2 1_555 1_555
C134_2 N24_2 1_555 1_555
C135_2 C125_2 1_555 1_555
C136_2 C126_2 1_555 1_555
H87_2 C126_2 1_555 1_555
H88_2 C127_2 1_555 1_555
H89_2 C128_2 1_555 1_555
C137_2 C128_2 1_555 1_555
H94_2 C133_2 1_555 1_555
C140_2 C133_2 1_555 1_555
H95_2 C134_2 1_555 1_555
O49_2 C135_2 1_555 1_555
O50_2 C135_2 1_555 1_555
Ce9 O21_2 1_555 1_555
C141_2 C136_2 1_555 1_555
C142_2 C137_2 1_555 1_555
C145_2 C140_2 1_555 1_555
Ce3 O49_2 1_555 1_555
Ce20 O50_2 1_555 1_555
O57_2 Ce9 1_555 1_555
O59_2 C141_2 1_555 1_555
C146_2 C142_2 1_555 1_555
N26_2 C142_2 1_555 1_555
O68 C145_2 1_555 1_555
O64_2 C145_2 1_555 1_555
H96_2 C146_2 1_555 1_555
C147_2 C146_2 1_555 1_555
C148_2 N26_2 1_555 1_555
O70_2 Ce22 1_555 1_555
O71_2 Ce22 1_555 1_555
O72_2 Ce22 1_555 1_555
O76_2 Ce22 1_555 1_555
H97_2 C147_2 1_555 1_555
C149_2 C147_2 1_555 1_555
H98_2 C148_2 1_555 1_555
C150_2 O70_2 1_555 1_555
H99_2 O71_2 1_555 1_555
H100_2 O71_2 1_555 1_555
N3_2 C30_2 1_555 1_555
C54_2 C62_2 1_555 1_555
C76_2 O34_2 1_555 1_555
O42_2 Ce6_2 1_555 1_555
C88_2 C97_2 1_555 1_555
N15_2 C103_2 1_555 1_555
N18_2 C108_2 1_555 1_555
C116_2 C125_2 1_555 1_555
C127_2 C136_2 1_555 1_555
N25_2 C137_2 1_555 1_555
C134_2 C140_2 1_555 1_555
C141_2 O57_2 1_555 1_555
Ce20 O64_2 1_555 1_555
O59_2 Ce22 1_555 1_555
C148_2 C149_2 1_555 1_555
C149_2 C150_2 1_555 1_555
C150_2 O77_2 1_555 1_555
O31_2 H50_2 1_555 1_555
H51_2 O31_2 1_555 1_555
O65_2 Ce13 1_555 1_555
O67_2 Ce13 1_555 1_555
O31_2 Ce13 1_555 1_555
C10_2 C5_2 1_555 1_555
O12_2 C5_2 1_555 1_555
C19_2 C10_2 1_555 1_555
C20_2 C10_2 1_555 1_555
O13_2 Ce2_2 1_555 1_555
O14_3 Ce2_2 1_555 1_555
O15_2 Ce2_2 1_555 1_555
H12_2 C19_2 1_555 1_555
C25_2 C19_2 1_555 1_555
N5_2 C20_2 1_555 1_555
C27_2 O13_2 1_555 1_555
H15_2 O14_3 1_555 1_555
H19_2 C25_2 1_555 1_555
C32_2 C25_2 1_555 1_555
C34_2 C27_2 1_555 1_555
C38_2 C32_2 1_555 1_555
C40_2 C34_2 1_555 1_555
C41_2 C34_2 1_555 1_555
C47_2 C38_2 1_555 1_555
N11_2 C38_2 1_555 1_555
H22_2 C40_2 1_555 1_555
C50_2 C40_2 1_555 1_555
H23_2 C41_2 1_555 1_555
N12_2 C41_2 1_555 1_555
C57_2 C47_2 1_555 1_555
C58_2 N11_2 1_555 1_555
H36_2 C50_2 1_555 1_555
C60_2 C50_2 1_555 1_555
H43_2 C57_2 1_555 1_555
C64_2 C57_2 1_555 1_555
H44_2 C58_2 1_555 1_555
C66_2 C60_2 1_555 1_555
C70_2 C64_2 1_555 1_555
C71_2 C66_2 1_555 1_555
N13_2 C66_2 1_555 1_555
O82 C70_2 1_555 1_555
O26_2 C70_2 1_555 1_555
H45_2 C71_2 1_555 1_555
C72_2 C71_2 1_555 1_555
C73_2 N13_2 1_555 1_555
O28_2 Ce14 1_555 1_555
O29_2 Ce14 1_555 1_555
H46_2 C72_2 1_555 1_555
C74_2 C72_2 1_555 1_555
H47_2 C73_2 1_555 1_555
C75_2 O28_2 1_555 1_555
H48_2 O29_2 1_555 1_555
H49_2 O29_2 1_555 1_555
O30_2 C75_2 1_555 1_555
O43_2 C27_2 1_555 1_555
O52_2 Ce14 1_555 1_555
O12_2 Ce2_2 1_555 1_555
N5_2 C32_2 1_555 1_555
N12_2 C60_2 1_555 1_555
C58_2 C64_2 1_555 1_555
C73_2 C74_2 1_555 1_555
C74_2 C75_2 1_555 1_555
O1_2 C1_2 1_555 1_555
C1_2 C6_2 1_555 1_555
C2_2 O2_2 1_555 1_555
H1_2 O6_3 1_555 1_555
C6_2 C11_2 1_555 1_555
O9_2 C1_2 1_555 1_555
C7_2 C2_2 1_555 1_555
C11_2 H4_2 1_555 1_555
C12_2 C6_2 1_555 1_555
C13_2 C7_2 1_555 1_555
C14_2 C7_2 1_555 1_555
C21_2 C11_2 1_555 1_555
N1_2 C12_2 1_555 1_555
H6_2 C13_2 1_555 1_555
N2_2 C13_2 1_555 1_555
C22_2 C14_2 1_555 1_555
H7_2 C14_2 1_555 1_555
H14_2 C21_2 1_555 1_555
C26_2 C21_2 1_555 1_555
C29_2 N2_2 1_555 1_555
H16_2 C22_2 1_555 1_555
C33_2 C26_2 1_555 1_555
C35_2 C29_2 1_555 1_555
C39_2 C33_2 1_555 1_555
N7_2 C33_2 1_555 1_555
C44_2 C35_2 1_555 1_555
N8_2 C35_2 1_555 1_555
C48_2 C39_2 1_555 1_555
C49_2 N7_2 1_555 1_555
H25_2 C42_2 1_555 1_555
H26_2 C42_2 1_555 1_555
H30_2 C44_2 1_555 1_555
C51_2 C44_2 1_555 1_555
C52_2 N8_2 1_555 1_555
C59_2 C48_2 1_555 1_555
H35_2 C49_2 1_555 1_555
H37_2 C51_2 1_555 1_555
C61_2 C51_2 1_555 1_555
H38_2 C52_2 1_555 1_555
C65_2 C59_2 1_555 1_555
C67_2 C61_2 1_555 1_555
O17_2 C65_2 1_555 1_555
O18_2 C65_2 1_555 1_555
O19_2 C67_2 1_555 1_555
O20_2 C67_2 1_555 1_555
Ce16 O17_2 1_555 1_555
Ce5_2 O6_3 1_555 1_555
O32_2 C2_2 1_555 1_555
O35_2 Ce5_2 1_555 1_555
O36_2 Ce5_2 1_555 1_555
O38_2 Ce5_2 1_555 1_555
C79_2 O35_2 1_555 1_555
C80_2 O36_2 1_555 1_555
H53_2 O38_2 1_555 1_555
H54_2 O38_2 1_555 1_555
C85_2 C79_2 1_555 1_555
O40_2 C79_2 1_555 1_555
C86_2 C80_2 1_555 1_555
O41_2 C80_2 1_555 1_555
C91_2 C85_2 1_555 1_555
C92_2 C85_2 1_555 1_555
C93_2 C86_2 1_555 1_555
C94_2 C86_2 1_555 1_555
H61_2 C91_2 1_555 1_555
C99_2 C91_2 1_555 1_555
H62_2 C92_2 1_555 1_555
N16_2 C92_2 1_555 1_555
H63_2 C93_2 1_555 1_555
C100_2 C93_2 1_555 1_555
H64_2 C94_2 1_555 1_555
N17_2 C94_2 1_555 1_555
H68_2 C99_2 1_555 1_555
C106_2 C99_2 1_555 1_555
H69_2 C100_2 1_555 1_555
C107_2 C100_2 1_555 1_555
N20_2 C105_2 1_555 1_555
H71_2 C105_2 1_555 1_555
C112_2 C106_2 1_555 1_555
C113_2 C107_2 1_555 1_555
C121_2 N20_2 1_555 1_555
C122_2 C112_2 1_555 1_555
N22_2 C112_2 1_555 1_555
C123_2 C113_2 1_555 1_555
N23_2 C113_2 1_555 1_555
H81_2 C121_2 1_555 1_555
H82_2 C121_2 1_555 1_555
H83_2 C121_2 1_555 1_555
C129_2 C122_2 1_555 1_555
H84_2 C122_2 1_555 1_555
C130_2 N22_2 1_555 1_555
H85_2 C123_2 1_555 1_555
C131_2 C123_2 1_555 1_555
C132_2 N23_2 1_555 1_555
C138_2 C129_2 1_555 1_555
H90_2 C129_2 1_555 1_555
H91_2 C130_2 1_555 1_555
H92_2 C131_2 1_555 1_555
C139_2 C131_2 1_555 1_555
H93_2 C132_2 1_555 1_555
Ce11 O19_2 1_555 1_555
Ce12 O20_2 1_555 1_555
C143_2 C138_2 1_555 1_555
C144_2 C139_2 1_555 1_555
O51_2 Ce16 1_555 1_555
O60_2 C143_2 1_555 1_555
O74 C144_2 1_555 1_555
O75 C144_2 1_555 1_555
N1_2 C26_2 1_555 1_555
C22_2 C29_2 1_555 1_555
C49_2 C59_2 1_555 1_555
C52_2 C61_2 1_555 1_555
Ce5_2 O32_2 1_555 1_555
N16_2 C106_2 1_555 1_555
N17_2 C107_2 1_555 1_555
C130_2 C138_2 1_555 1_555
C132_2 C139_2 1_555 1_555
C143_2 O51_2 1_555 1_555
Ce1_3 O1_3 1_555 1_555
O1_3 C1_3 1_555 1_555
O2_3 Ce1_3 1_555 1_555
O3_3 Ce1_3 1_555 1_555
O5_3 Ce1_3 1_555 1_555
O6_4 Ce1_3 1_555 1_555
O7_3 Ce1_3 1_555 1_555
O8_3 Ce1_3 1_555 1_555
C1_3 C6_3 1_555 1_555
C2_3 O2_3 1_555 1_555
C3_3 O3_3 1_555 1_555
H1_3 O6_4 1_555 1_555
H2_3 O7_3 1_555 1_555
H3_3 O7_3 1_555 1_555
C6_3 C11_3 1_555 1_555
O9_3 C1_3 1_555 1_555
C7_3 C2_3 1_555 1_555
C8_3 C3_3 1_555 1_555
C11_3 H4_3 1_555 1_555
C12_3 C6_3 1_555 1_555
C13_3 C7_3 1_555 1_555
C14_3 C7_3 1_555 1_555
C15_3 C8_3 1_555 1_555
C16_3 C8_3 1_555 1_555
C21_3 C11_3 1_555 1_555
N1_3 C12_3 1_555 1_555
H6_3 C13_3 1_555 1_555
N2_3 C13_3 1_555 1_555
C22_3 C14_3 1_555 1_555
H7_3 C14_3 1_555 1_555
H8_3 C15_3 1_555 1_555
C23_3 C15_3 1_555 1_555
N3_3 C16_3 1_555 1_555
H14_3 C21_3 1_555 1_555
C26_3 C21_3 1_555 1_555
C29_3 N2_3 1_555 1_555
H16_3 C22_3 1_555 1_555
H17_3 C23_3 1_555 1_555
C30_3 C23_3 1_555 1_555
C33_3 C26_3 1_555 1_555
C35_3 C29_3 1_555 1_555
C36_3 C30_3 1_555 1_555
C39_3 C33_3 1_555 1_555
N7_3 C33_3 1_555 1_555
C44_3 C35_3 1_555 1_555
N8_3 C35_3 1_555 1_555
C45_3 C36_3 1_555 1_555
N9_3 C36_3 1_555 1_555
C48_3 C39_3 1_555 1_555
C49_3 N7_3 1_555 1_555
H24_3 C42_3 1_555 1_555
H25_3 C42_3 1_555 1_555
H26_3 C42_3 1_555 1_555
H30_3 C44_3 1_555 1_555
C51_3 C44_3 1_555 1_555
C52_3 N8_3 1_555 1_555
C53_3 C45_3 1_555 1_555
C54_3 N9_3 1_555 1_555
C59_3 C48_3 1_555 1_555
H35_3 C49_3 1_555 1_555
H37_3 C51_3 1_555 1_555
C61_3 C51_3 1_555 1_555
H38_3 C52_3 1_555 1_555
C62_3 C53_3 1_555 1_555
H39_3 C53_3 1_555 1_555
H40_3 C54_3 1_555 1_555
C65_3 C59_3 1_555 1_555
C67_3 C61_3 1_555 1_555
C68_3 C62_3 1_555 1_555
O79 C65_3 1_555 1_555
O18_3 C65_3 1_555 1_555
O66_2 C67_3 1_555 1_555
O52_2 C67_3 1_555 1_555
O67 C68_3 1_555 1_555
O53 C68_3 1_555 1_555
H52_3 O6_4 1_555 1_555
Ce5_3 O6_4 1_555 1_555
C76_3 O8_3 1_555 1_555
O32_3 C2_3 1_555 1_555
O33_3 Ce5_3 1_555 1_555
O34_3 Ce5_3 1_555 1_555
O35_3 Ce5_3 1_555 1_555
O36_3 Ce5_3 1_555 1_555
O37_3 Ce5_3 1_555 1_555
O38_3 Ce5_3 1_555 1_555
C77_3 C76_3 1_555 1_555
C78_3 O33_3 1_555 1_555
C79_3 O35_3 1_555 1_555
C80_3 O36_3 1_555 1_555
C81_3 O37_3 1_555 1_555
H53_3 O38_3 1_555 1_555
H54_3 O38_3 1_555 1_555
C82_3 C77_3 1_555 1_555
C83_3 C77_3 1_555 1_555
C84_3 C78_3 1_555 1_555
O39_3 C78_3 1_555 1_555
C85_3 C79_3 1_555 1_555
O40_3 C79_3 1_555 1_555
C86_3 C80_3 1_555 1_555
O41_3 C80_3 1_555 1_555
C87_3 C81_3 1_555 1_555
O42_3 C81_3 1_555 1_555
H55_3 C82_3 1_555 1_555
N14_3 C82_3 1_555 1_555
C88_3 C83_3 1_555 1_555
H56_3 C83_3 1_555 1_555
C89_3 C84_3 1_555 1_555
C90_3 C84_3 1_555 1_555
Ce7 O39_3 1_555 1_555
C91_3 C85_3 1_555 1_555
C92_3 C85_3 1_555 1_555
C93_3 C86_3 1_555 1_555
C94_3 C86_3 1_555 1_555
C95_3 C87_3 1_555 1_555
C96_3 C87_3 1_555 1_555
C97_3 N14_3 1_555 1_555
H58_3 C88_3 1_555 1_555
H59_3 C89_3 1_555 1_555
C98_3 C89_3 1_555 1_555
H60_3 C90_3 1_555 1_555
N15_3 C90_3 1_555 1_555
O44_3 Ce7 1_555 1_555
O45_3 Ce7 1_555 1_555
O46 Ce7 1_555 1_555
O47 Ce7 1_555 1_555
H61_3 C91_3 1_555 1_555
C99_3 C91_3 1_555 1_555
H62_3 C92_3 1_555 1_555
N16_3 C92_3 1_555 1_555
H63_3 C93_3 1_555 1_555
C100_3 C93_3 1_555 1_555
H64_3 C94_3 1_555 1_555
N17_3 C94_3 1_555 1_555
H65_3 C95_3 1_555 1_555
C101_3 C95_3 1_555 1_555
H66_3 C96_3 1_555 1_555
N18_3 C96_3 1_555 1_555
C102_3 C97_3 1_555 1_555
H67_3 C98_3 1_555 1_555
C103_3 C98_3 1_555 1_555
C104_3 O44_3 1_555 1_555
C105_3 O45_3 1_555 1_555
Ce8 O47 1_555 1_555
H68_3 C99_3 1_555 1_555
C106_3 C99_3 1_555 1_555
H69_3 C100_3 1_555 1_555
C107_3 C100_3 1_555 1_555
H70_3 C101_3 1_555 1_555
C108_3 C101_3 1_555 1_555
C109_3 C102_3 1_555 1_555
N19_3 C102_3 1_555 1_555
C110_3 C103_3 1_555 1_555
C111_3 C104_3 1_555 1_555
O48 C104_3 1_555 1_555
N20_3 C105_3 1_555 1_555
H71_3 C105_3 1_555 1_555
C112_3 C106_3 1_555 1_555
C113_3 C107_3 1_555 1_555
C114_3 C108_3 1_555 1_555
H72_3 C109_3 1_555 1_555
C115_3 C109_3 1_555 1_555
C116_3 N19_3 1_555 1_555
C117_3 C110_3 1_555 1_555
N21_3 C110_3 1_555 1_555
C118_3 C111_3 1_555 1_555
C119_3 C111_3 1_555 1_555
C120_3 N20_3 1_555 1_555
C121_3 N20_3 1_555 1_555
C122_3 C112_3 1_555 1_555
N22_3 C112_3 1_555 1_555
C123_3 C113_3 1_555 1_555
N23_3 C113_3 1_555 1_555
C124_3 C114_3 1_555 1_555
N24_3 C114_3 1_555 1_555
H73_3 C115_3 1_555 1_555
C125_3 C115_3 1_555 1_555
H74_3 C116_3 1_555 1_555
C126_3 C117_3 1_555 1_555
H75_3 C117_3 1_555 1_555
C127_3 N21_3 1_555 1_555
H76_3 C118_3 1_555 1_555
C128_3 C118_3 1_555 1_555
H77_3 C119_3 1_555 1_555
N25_3 C119_3 1_555 1_555
H78_3 C120_3 1_555 1_555
H79_3 C120_3 1_555 1_555
H80_3 C120_3 1_555 1_555
H81_3 C121_3 1_555 1_555
H82_3 C121_3 1_555 1_555
H83_3 C121_3 1_555 1_555
C129_3 C122_3 1_555 1_555
H84_3 C122_3 1_555 1_555
C130_3 N22_3 1_555 1_555
H85_3 C123_3 1_555 1_555
C131_3 C123_3 1_555 1_555
C132_3 N23_3 1_555 1_555
H86_3 C124_3 1_555 1_555
C133_3 C124_3 1_555 1_555
C134_3 N24_3 1_555 1_555
C135_3 C125_3 1_555 1_555
C136_3 C126_3 1_555 1_555
H87_3 C126_3 1_555 1_555
H88_3 C127_3 1_555 1_555
H89_3 C128_3 1_555 1_555
C137_3 C128_3 1_555 1_555
C138_3 C129_3 1_555 1_555
H90_3 C129_3 1_555 1_555
H91_3 C130_3 1_555 1_555
H92_3 C131_3 1_555 1_555
C139_3 C131_3 1_555 1_555
H93_3 C132_3 1_555 1_555
H94_3 C133_3 1_555 1_555
C140_3 C133_3 1_555 1_555
H95_3 C134_3 1_555 1_555
O80_2 C135_3 1_555 1_555
O72_2 C135_3 1_555 1_555
C141_3 C136_3 1_555 1_555
C142_3 C137_3 1_555 1_555
C143_3 C138_3 1_555 1_555
C144_3 C139_3 1_555 1_555
C145_3 C140_3 1_555 1_555
O59_3 C141_3 1_555 1_555
C146_3 C142_3 1_555 1_555
N26_3 C142_3 1_555 1_555
O73 C143_3 1_555 1_555
O61_2 C144_3 1_555 1_555
O62_2 C144_3 1_555 1_555
O63_2 C145_3 1_555 1_555
O76_2 C145_3 1_555 1_555
Ce20 O69 1_555 1_555
H96_3 C146_3 1_555 1_555
C147_3 C146_3 1_555 1_555
C148_3 N26_3 1_555 1_555
Ce16 O61_2 1_555 1_555
Ce9 O63_2 1_555 1_555
O70_3 Ce20 1_555 1_555
O71_3 Ce20 1_555 1_555
O74_2 Ce20 1_555 1_555
O75_2 Ce20 1_555 1_555
H97_3 C147_3 1_555 1_555
C149_3 C147_3 1_555 1_555
H98_3 C148_3 1_555 1_555
Ce3 O70_3 1_555 1_555
C150_3 O70_3 1_555 1_555
H99_3 O71_3 1_555 1_555
H100_3 O71_3 1_555 1_555
O77_3 Ce3 1_555 1_555
O78_3 Ce3 1_555 1_555
O82_2 Ce3 1_555 1_555
H101_3 O78_3 1_555 1_555
H102_3 O78_3 1_555 1_555
N1_3 C26_3 1_555 1_555
C22_3 C29_3 1_555 1_555
N3_3 C30_3 1_555 1_555
C49_3 C59_3 1_555 1_555
C52_3 C61_3 1_555 1_555
C54_3 C62_3 1_555 1_555
Ce5_3 O32_3 1_555 1_555
C76_3 O34_3 1_555 1_555
O40_3 Ce7 1_555 1_555
O41_3 Ce7 1_555 1_555
O42_3 Ce7 1_555 1_555
C88_3 C97_3 1_555 1_555
N15_3 C103_3 1_555 1_555
N16_3 C106_3 1_555 1_555
N17_3 C107_3 1_555 1_555
N18_3 C108_3 1_555 1_555
Ce8 O48 1_555 1_555
C116_3 C125_3 1_555 1_555
C127_3 C136_3 1_555 1_555
N25_3 C137_3 1_555 1_555
C130_3 C138_3 1_555 1_555
C132_3 C139_3 1_555 1_555
C134_3 C140_3 1_555 1_555
C141_3 O65 1_555 1_555
C143_3 O81 1_555 1_555
O59_3 Ce20 1_555 1_555
C148_3 C149_3 1_555 1_555
O74_2 Ce3 1_555 1_555
C149_3 C150_3 1_555 1_555
C150_3 O77_3 1_555 1_555
C4_3 O4_3 1_555 1_555
C9_3 C4_3 1_555 1_555
O11_3 C4_3 1_555 1_555
C10_3 C5_3 1_555 1_555
O12_3 C5_3 1_555 1_555
C17_3 C9_3 1_555 1_555
C18_3 C9_3 1_555 1_555
C19_3 C10_3 1_555 1_555
C20_3 C10_3 1_555 1_555
O13_3 Ce8 1_555 1_555
O15_3 Ce8 1_555 1_555
H10_3 C17_3 1_555 1_555
C24_3 C17_3 1_555 1_555
N4_3 C18_3 1_555 1_555
H12_3 C19_3 1_555 1_555
C25_3 C19_3 1_555 1_555
N5_3 C20_3 1_555 1_555
C27_3 O13_3 1_555 1_555
H15_3 O47 1_555 1_555
C28_3 O15_3 1_555 1_555
H18_3 C24_3 1_555 1_555
C31_3 C24_3 1_555 1_555
H19_3 C25_3 1_555 1_555
C32_3 C25_3 1_555 1_555
C34_3 C27_3 1_555 1_555
N6_3 C28_3 1_555 1_555
H20_3 C28_3 1_555 1_555
C37_3 C31_3 1_555 1_555
C38_3 C32_3 1_555 1_555
C40_3 C34_3 1_555 1_555
C41_3 C34_3 1_555 1_555
C43_3 N6_3 1_555 1_555
C46_3 C37_3 1_555 1_555
N10_3 C37_3 1_555 1_555
C47_3 C38_3 1_555 1_555
N11_3 C38_3 1_555 1_555
H22_3 C40_3 1_555 1_555
C50_3 C40_3 1_555 1_555
H23_3 C41_3 1_555 1_555
N12_3 C41_3 1_555 1_555
H27_3 C43_3 1_555 1_555
H28_3 C43_3 1_555 1_555
H29_3 C43_3 1_555 1_555
C55_3 C46_3 1_555 1_555
C56_3 N10_3 1_555 1_555
C57_3 C47_3 1_555 1_555
C58_3 N11_3 1_555 1_555
H36_3 C50_3 1_555 1_555
C60_3 C50_3 1_555 1_555
C63_3 C55_3 1_555 1_555
H42_3 C56_3 1_555 1_555
H43_3 C57_3 1_555 1_555
C64_3 C57_3 1_555 1_555
H44_3 C58_3 1_555 1_555
C66_3 C60_3 1_555 1_555
C69_3 C63_3 1_555 1_555
C70_3 C64_3 1_555 1_555
C71_3 C66_3 1_555 1_555
N13_3 C66_3 1_555 1_555
O23_2 C69_3 1_555 1_555
O24_2 C69_3 1_555 1_555
O25_2 C70_3 1_555 1_555
O56_2 C70_3 1_555 1_555
H45_3 C71_3 1_555 1_555
C72_3 C71_3 1_555 1_555
C73_3 N13_3 1_555 1_555
O28_3 Ce12 1_555 1_555
O29_3 Ce12 1_555 1_555
H46_3 C72_3 1_555 1_555
C74_3 C72_3 1_555 1_555
H47_3 C73_3 1_555 1_555
C75_3 O28_3 1_555 1_555
H48_3 O29_3 1_555 1_555
H49_3 O29_3 1_555 1_555
O30_3 C75_3 1_555 1_555
O31_3 H50_3 1_555 1_555
H51_3 O31_3 1_555 1_555
H57_3 O47 1_555 1_555
O46 C27_3 1_555 1_555
Ce9 O23_2 1_555 1_555
Ce16 O25_2 1_555 1_555
O54_2 Ce12 1_555 1_555
O55_2 Ce12 1_555 1_555
Ce11 O28_3 1_555 1_555
O68_2 Ce11 1_555 1_555
O10_3 Ce8 1_555 1_555
O11_3 Ce8 1_555 1_555
O12_3 Ce8 1_555 1_555
N4_3 C31_3 1_555 1_555
N5_3 C32_3 1_555 1_555
N12_3 C60_3 1_555 1_555
C56_3 C63_3 1_555 1_555
C58_3 C64_3 1_555 1_555
C73_3 C74_3 1_555 1_555
C74_3 C75_3 1_555 1_555
O30_3 Ce11 1_555 1_555
O31_3 Ce11 1_555 1_555
O54_2 Ce11 1_555 1_555
O1_4 C1_4 1_555 1_555
C1_4 C6_4 1_555 1_555
C2_4 O2_4 1_555 1_555
H1_4 O6_5 1_555 1_555
C6_4 C11_4 1_555 1_555
O9_4 C1_4 1_555 1_555
C7_4 C2_4 1_555 1_555
C11_4 H4_4 1_555 1_555
C12_4 C6_4 1_555 1_555
C13_4 C7_4 1_555 1_555
C14_4 C7_4 1_555 1_555
C21_4 C11_4 1_555 1_555
N1_4 C12_4 1_555 1_555
H6_4 C13_4 1_555 1_555
N2_4 C13_4 1_555 1_555
C22_4 C14_4 1_555 1_555
H7_4 C14_4 1_555 1_555
H14_4 C21_4 1_555 1_555
C26_4 C21_4 1_555 1_555
C29_4 N2_4 1_555 1_555
H16_4 C22_4 1_555 1_555
C33_4 C26_4 1_555 1_555
C35_4 C29_4 1_555 1_555
C39_4 C33_4 1_555 1_555
N7_4 C33_4 1_555 1_555
C44_4 C35_4 1_555 1_555
N8_4 C35_4 1_555 1_555
C48_4 C39_4 1_555 1_555
C49_4 N7_4 1_555 1_555
H25_4 C42_4 1_555 1_555
H26_4 C42_4 1_555 1_555
H30_4 C44_4 1_555 1_555
C51_4 C44_4 1_555 1_555
C52_4 N8_4 1_555 1_555
C59_4 C48_4 1_555 1_555
H35_4 C49_4 1_555 1_555
H37_4 C51_4 1_555 1_555
C61_4 C51_4 1_555 1_555
H38_4 C52_4 1_555 1_555
C65_4 C59_4 1_555 1_555
C67_4 C61_4 1_555 1_555
O79_2 C65_4 1_555 1_555
O18_4 C65_4 1_555 1_555
O66 C67_4 1_555 1_555
O52 C67_4 1_555 1_555
Ce5_4 O6_5 1_555 1_555
O32_4 C2_4 1_555 1_555
O35_4 Ce5_4 1_555 1_555
O36_4 Ce5_4 1_555 1_555
O38_4 Ce5_4 1_555 1_555
C79_4 O35_4 1_555 1_555
C80_4 O36_4 1_555 1_555
H53_4 O38_4 1_555 1_555
H54_4 O38_4 1_555 1_555
C85_4 C79_4 1_555 1_555
O40_4 C79_4 1_555 1_555
C86_4 C80_4 1_555 1_555
O41_4 C80_4 1_555 1_555
C91_4 C85_4 1_555 1_555
C92_4 C85_4 1_555 1_555
C93_4 C86_4 1_555 1_555
C94_4 C86_4 1_555 1_555
H61_4 C91_4 1_555 1_555
C99_4 C91_4 1_555 1_555
H62_4 C92_4 1_555 1_555
N16_4 C92_4 1_555 1_555
H63_4 C93_4 1_555 1_555
C100_4 C93_4 1_555 1_555
H64_4 C94_4 1_555 1_555
N17_4 C94_4 1_555 1_555
Ce8_2 O47_2 1_555 1_555
H68_4 C99_4 1_555 1_555
C106_4 C99_4 1_555 1_555
H69_4 C100_4 1_555 1_555
C107_4 C100_4 1_555 1_555
N20_4 C105_4 1_555 1_555
H71_4 C105_4 1_555 1_555
C112_4 C106_4 1_555 1_555
C113_4 C107_4 1_555 1_555
C121_4 N20_4 1_555 1_555
C122_4 C112_4 1_555 1_555
N22_4 C112_4 1_555 1_555
C123_4 C113_4 1_555 1_555
N23_4 C113_4 1_555 1_555
H81_4 C121_4 1_555 1_555
H82_4 C121_4 1_555 1_555
H83_4 C121_4 1_555 1_555
C129_4 C122_4 1_555 1_555
H84_4 C122_4 1_555 1_555
C130_4 N22_4 1_555 1_555
H85_4 C123_4 1_555 1_555
C131_4 C123_4 1_555 1_555
C132_4 N23_4 1_555 1_555
C138_4 C129_4 1_555 1_555
H90_4 C129_4 1_555 1_555
H91_4 C130_4 1_555 1_555
H92_4 C131_4 1_555 1_555
C139_4 C131_4 1_555 1_555
H93_4 C132_4 1_555 1_555
C143_4 C138_4 1_555 1_555
C144_4 C139_4 1_555 1_555
O73_2 C143_4 1_555 1_555
O74_2 C144_4 1_555 1_555
O75_2 C144_4 1_555 1_555
N1_4 C26_4 1_555 1_555
C22_4 C29_4 1_555 1_555
C49_4 C59_4 1_555 1_555
C52_4 C61_4 1_555 1_555
Ce5_4 O32_4 1_555 1_555
N16_4 C106_4 1_555 1_555
N17_4 C107_4 1_555 1_555
C130_4 C138_4 1_555 1_555
C132_4 C139_4 1_555 1_555
C143_4 O81_2 1_555 1_555
C10_4 C5_4 1_555 1_555
O12_4 C5_4 1_555 1_555
C19_4 C10_4 1_555 1_555
C20_4 C10_4 1_555 1_555
O13_4 Ce8_2 1_555 1_555
O15_4 Ce8_2 1_555 1_555
H12_4 C19_4 1_555 1_555
C25_4 C19_4 1_555 1_555
N5_4 C20_4 1_555 1_555
C27_4 O13_4 1_555 1_555
H15_4 O47_2 1_555 1_555
H19_4 C25_4 1_555 1_555
C32_4 C25_4 1_555 1_555
C34_4 C27_4 1_555 1_555
C38_4 C32_4 1_555 1_555
C40_4 C34_4 1_555 1_555
C41_4 C34_4 1_555 1_555
C47_4 C38_4 1_555 1_555
N11_4 C38_4 1_555 1_555
H22_4 C40_4 1_555 1_555
C50_4 C40_4 1_555 1_555
H23_4 C41_4 1_555 1_555
N12_4 C41_4 1_555 1_555
C57_4 C47_4 1_555 1_555
C58_4 N11_4 1_555 1_555
H36_4 C50_4 1_555 1_555
C60_4 C50_4 1_555 1_555
H43_4 C57_4 1_555 1_555
C64_4 C57_4 1_555 1_555
H44_4 C58_4 1_555 1_555
C66_4 C60_4 1_555 1_555
C70_4 C64_4 1_555 1_555
C71_4 C66_4 1_555 1_555
N13_4 C66_4 1_555 1_555
O82_2 C70_4 1_555 1_555
O56 C70_4 1_555 1_555
H45_4 C71_4 1_555 1_555
C72_4 C71_4 1_555 1_555
C73_4 N13_4 1_555 1_555
O28_4 Ce10 1_555 1_555
O29_4 Ce10 1_555 1_555
H46_4 C72_4 1_555 1_555
C74_4 C72_4 1_555 1_555
H47_4 C73_4 1_555 1_555
C75_4 O28_4 1_555 1_555
H48_4 O29_4 1_555 1_555
H49_4 O29_4 1_555 1_555
O30_4 C75_4 1_555 1_555
O46_2 C27_4 1_555 1_555
O12_4 Ce8_2 1_555 1_555
N5_4 C32_4 1_555 1_555
N12_4 C60_4 1_555 1_555
C58_4 C64_4 1_555 1_555
C73_4 C74_4 1_555 1_555
C74_4 C75_4 1_555 1_555
O31_4 H50_4 1_555 1_555
H51_4 O31_4 1_555 1_555
O31_4 Ce9 1_555 1_555
O3_4 Ce1_4 1_555 1_555
O6_6 Ce1_4 1_555 1_555
O7_4 Ce1_4 1_555 1_555
O8_4 Ce1_4 1_555 1_555
C3_4 O3_4 1_555 1_555
H2_4 O7_4 1_555 1_555
H3_4 O7_4 1_555 1_555
C8_4 C3_4 1_555 1_555
C15_4 C8_4 1_555 1_555
C16_4 C8_4 1_555 1_555
H8_4 C15_4 1_555 1_555
C23_4 C15_4 1_555 1_555
N3_4 C16_4 1_555 1_555
H17_4 C23_4 1_555 1_555
C30_4 C23_4 1_555 1_555
C36_4 C30_4 1_555 1_555
C45_4 C36_4 1_555 1_555
N9_4 C36_4 1_555 1_555
C53_4 C45_4 1_555 1_555
C54_4 N9_4 1_555 1_555
C62_4 C53_4 1_555 1_555
H39_4 C53_4 1_555 1_555
H40_4 C54_4 1_555 1_555
C68_4 C62_4 1_555 1_555
O67_2 C68_4 1_555 1_555
O53_2 C68_4 1_555 1_555
H52_4 O6_6 1_555 1_555
C76_4 O8_4 1_555 1_555
C77_4 C76_4 1_555 1_555
C78_4 O33_4 1_555 1_555
C81_4 O37_4 1_555 1_555
C82_4 C77_4 1_555 1_555
C83_4 C77_4 1_555 1_555
C84_4 C78_4 1_555 1_555
O39_4 C78_4 1_555 1_555
C87_4 C81_4 1_555 1_555
O42_4 C81_4 1_555 1_555
H55_4 C82_4 1_555 1_555
N14_4 C82_4 1_555 1_555
C88_4 C83_4 1_555 1_555
H56_4 C83_4 1_555 1_555
C89_4 C84_4 1_555 1_555
C90_4 C84_4 1_555 1_555
Ce7_2 O39_4 1_555 1_555
C95_4 C87_4 1_555 1_555
C96_4 C87_4 1_555 1_555
C97_4 N14_4 1_555 1_555
H58_4 C88_4 1_555 1_555
H59_4 C89_4 1_555 1_555
C98_4 C89_4 1_555 1_555
H60_4 C90_4 1_555 1_555
N15_4 C90_4 1_555 1_555
O44_4 Ce7_2 1_555 1_555
O45_4 Ce7_2 1_555 1_555
O47_3 Ce7_2 1_555 1_555
H65_4 C95_4 1_555 1_555
C101_4 C95_4 1_555 1_555
H66_4 C96_4 1_555 1_555
N18_4 C96_4 1_555 1_555
C102_4 C97_4 1_555 1_555
H67_4 C98_4 1_555 1_555
C103_4 C98_4 1_555 1_555
C104_4 O44_4 1_555 1_555
H70_4 C101_4 1_555 1_555
C108_4 C101_4 1_555 1_555
C109_4 C102_4 1_555 1_555
N19_4 C102_4 1_555 1_555
C110_4 C103_4 1_555 1_555
C111_4 C104_4 1_555 1_555
O48_2 C104_4 1_555 1_555
C114_4 C108_4 1_555 1_555
H72_4 C109_4 1_555 1_555
C115_4 C109_4 1_555 1_555
C116_4 N19_4 1_555 1_555
C117_4 C110_4 1_555 1_555
N21_4 C110_4 1_555 1_555
C118_4 C111_4 1_555 1_555
C119_4 C111_4 1_555 1_555
C124_4 C114_4 1_555 1_555
N24_4 C114_4 1_555 1_555
H73_4 C115_4 1_555 1_555
C125_4 C115_4 1_555 1_555
H74_4 C116_4 1_555 1_555
C126_4 C117_4 1_555 1_555
H75_4 C117_4 1_555 1_555
C127_4 N21_4 1_555 1_555
H76_4 C118_4 1_555 1_555
C128_4 C118_4 1_555 1_555
H77_4 C119_4 1_555 1_555
N25_4 C119_4 1_555 1_555
H79_4 C120_4 1_555 1_555
H80_4 C120_4 1_555 1_555
H86_4 C124_4 1_555 1_555
C133_4 C124_4 1_555 1_555
C134_4 N24_4 1_555 1_555
C135_4 C125_4 1_555 1_555
C136_4 C126_4 1_555 1_555
H87_4 C126_4 1_555 1_555
H88_4 C127_4 1_555 1_555
H89_4 C128_4 1_555 1_555
C137_4 C128_4 1_555 1_555
H94_4 C133_4 1_555 1_555
C140_4 C133_4 1_555 1_555
H95_4 C134_4 1_555 1_555
O80 C135_4 1_555 1_555
O72 C135_4 1_555 1_555
C141_4 C136_4 1_555 1_555
C142_4 C137_4 1_555 1_555
C145_4 C140_4 1_555 1_555
O59_4 C141_4 1_555 1_555
C146_4 C142_4 1_555 1_555
N26_4 C142_4 1_555 1_555
O68_2 C145_4 1_555 1_555
O76 C145_4 1_555 1_555
H96_4 C146_4 1_555 1_555
C147_4 C146_4 1_555 1_555
C148_4 N26_4 1_555 1_555
O70_4 Ce17 1_555 1_555
O71_4 Ce17 1_555 1_555
H97_4 C147_4 1_555 1_555
C149_4 C147_4 1_555 1_555
H98_4 C148_4 1_555 1_555
C150_4 O70_4 1_555 1_555
H99_4 O71_4 1_555 1_555
H100_4 O71_4 1_555 1_555
N3_4 C30_4 1_555 1_555
C54_4 C62_4 1_555 1_555
C76_4 O34_4 1_555 1_555
O42_4 Ce7_2 1_555 1_555
C88_4 C97_4 1_555 1_555
N15_4 C103_4 1_555 1_555
N18_4 C108_4 1_555 1_555
C116_4 C125_4 1_555 1_555
C127_4 C136_4 1_555 1_555
N25_4 C137_4 1_555 1_555
C134_4 C140_4 1_555 1_555
C141_4 O65_2 1_555 1_555
O59_4 Ce17 1_555 1_555
C148_4 C149_4 1_555 1_555
C149_4 C150_4 1_555 1_555
C150_4 O77_4 1_555 1_555
C4_4 O4_4 1_555 1_555
C9_4 C4_4 1_555 1_555
O11_4 C4_4 1_555 1_555
C17_4 C9_4 1_555 1_555
C18_4 C9_4 1_555 1_555
H10_4 C17_4 1_555 1_555
C24_4 C17_4 1_555 1_555
N4_4 C18_4 1_555 1_555
H18_4 C24_4 1_555 1_555
C31_4 C24_4 1_555 1_555
N6_4 C28_4 1_555 1_555
H20_4 C28_4 1_555 1_555
C37_4 C31_4 1_555 1_555
C43_4 N6_4 1_555 1_555
C46_4 C37_4 1_555 1_555
N10_4 C37_4 1_555 1_555
H27_4 C43_4 1_555 1_555
H28_4 C43_4 1_555 1_555
H29_4 C43_4 1_555 1_555
C55_4 C46_4 1_555 1_555
C56_4 N10_4 1_555 1_555
C63_4 C55_4 1_555 1_555
H42_4 C56_4 1_555 1_555
C69_4 C63_4 1_555 1_555
O54_2 C69_4 1_555 1_555
O55_2 C69_4 1_555 1_555
H57_4 O47_3 1_555 1_555
N4_4 C31_4 1_555 1_555
C56_4 C63_4 1_555 1_555
O78_4 Ce16 1_555 1_555
H101_4 O78_4 1_555 1_555
H102_4 O78_4 1_555 1_555

#END
