
###############################################################################
#
# This file contains modified crystal structure data generated from the
# MOF subset of the Cambridge Structural Database (CSD) v543 
# hosted by the Cambridge Crystallographic Data Centre (CCDC).
#
# This work is licensed under the Creative Commons
# Attribution-NonCommercial-ShareAlike 4.0 International License.
# To view a copy of this license, visit
# http://creativecommons.org/licenses/by-nc-sa/4.0/
# or send a letter to
# Creative Commons, PO Box 1866, Mountain View, CA 94042, USA.
#
# CIF created using the CSD Python API on 29 September 2022
# The structure has been converted into the P1 space group
# The structure has a 3D framework
# The original CSD entry VOPHUF is in the triclinic crystal system
# The framework has been calculated to contain at least 10.0% void space
# The void calculation uses a probe of radius 1.32A, grid spacing 0.4
#
###############################################################################

data_VOPHUF
_chemical_formula_moiety         '(C88 H72 Co4 N16 O24)n'
_symmetry_cell_setting           triclinic
_symmetry_space_group_name_H-M   'P 1'
_symmetry_Int_Tables_number      1
_space_group_name_Hall           'P 1'
loop_
_symmetry_equiv_pos_site_id
_symmetry_equiv_pos_as_xyz
1 x,y,z
_cell_length_a                   10.1112(19)
_cell_length_b                   15.943(3)
_cell_length_c                   16.764(3)
_cell_angle_alpha                111.325(3)
_cell_angle_beta                 103.680(4)
_cell_angle_gamma                102.598(3)
_cell_volume                     2303.76
loop_
_atom_site_label
_atom_site_type_symbol
_atom_site_fract_x
_atom_site_fract_y
_atom_site_fract_z
N4 N 0.5959(4) 0.1449(2) 0.4454(3)
C10 C 0.4098(5) 0.0379(3) 0.2999(3)
C11 C 0.4910(6) 0.0739(4) 0.2555(4)
H13 H 0.4571 0.0510 0.1923
C12 C 0.6242(6) 0.1451(4) 0.3091(4)
H14 H 0.6812 0.1700 0.2814
C13 C 0.6720(5) 0.1789(3) 0.4012(4)
H15 H 0.7609 0.2275 0.4352
C14 C 0.4678(5) 0.0755(3) 0.3940(3)
H16 H 0.4144 0.0510 0.4236
Co6 Co 0.67789(6) 0.20604(4) 0.59281(4)
O7 O 0.2064(3) 0.3669(2) 0.5901(2)
O8 O 0.3499(3) 0.5017(2) 0.6112(2)
H19 H 0.0505 0.4411 0.9018
C31 C 0.1098(5) 0.4947(3) 0.6104(3)
C32 C 0.1297(5) 0.5867(3) 0.6191(3)
H30 H 0.2182 0.6234 0.6228
C33 C 0.0191(5) 0.6250(3) 0.6222(4)
H31 H 0.0333 0.6870 0.6284
C35 C 0.2279(4) 0.4517(3) 0.6044(3)
Co4 Co 0.42436(6) 0.37657(4) 0.59235(4)
O1 O 0.7664(4) 0.7050(3) 0.0673(3)
O3 O 0.7880(6) 0.3922(4) 0.0817(3)
O4 O 0.3656(5) 0.1921(3) 0.1136(3)
C6 C 0.8360(6) 0.7097(4) 0.0174(4)
N7 N 0.4619(4) 0.3120(3) 0.2580(3)
H8 H 0.5283 0.3668 0.2919
C7 C 0.9653(6) 0.7955(4) 0.0443(4)
H10 H 0.9341 0.8360 0.0181
N8 N 0.3424(4) 0.3054(2) 0.4448(3)
H12 H 0.9783 0.8864 0.1709
C20 C 0.6829(7) 0.3235(5) 0.0263(4)
C21 C 0.5640(8) 0.2762(5) 0.0523(4)
H21 H 0.4731 0.2770 0.0174
H22 H 0.5571 0.2098 0.0339
C22 C 0.5810(6) 0.3195(4) 0.1497(4)
H23 H 0.5867 0.3857 0.1686
H24 H 0.6713 0.3187 0.1852
C23 C 0.4584(6) 0.2684(4) 0.1709(4)
C24 C 0.3712(5) 0.2792(3) 0.2997(3)
C25 C 0.2407(5) 0.2039(3) 0.2542(3)
H25 H 0.2052 0.1702 0.1909
C26 C 0.1645(5) 0.1808(3) 0.3077(4)
H26 H 0.0772 0.1305 0.2797
C27 C 0.2173(5) 0.2315(3) 0.3997(3)
H27 H 0.1647 0.2143 0.4333
C28 C 0.4168(5) 0.3280(3) 0.3941(3)
H28 H 0.5032 0.3791 0.4241
N1 N 0.5104(4) 0.4356(3) 0.7402(3)
C1 C 0.6267(5) 0.5139(3) 0.7918(3)
H1 H 0.6736 0.5435 0.7626
N2 N 0.8035(5) 0.6381(3) 0.9328(3)
H2 H 0.8635 0.6449 0.9050
C2 C 0.6815(6) 0.5538(4) 0.8863(4)
C3 C 0.6159(7) 0.5066(4) 0.9296(4)
H4 H 0.6528 0.5286 0.9926
C4 C 0.4945(7) 0.4263(4) 0.8764(4)
H5 H 0.4477 0.3940 0.9037
O5 O 0.6199(3) 0.4503(2) 0.5964(2)
N5 N 0.7620(4) 0.2808(3) 0.7412(3)
C5 C 0.4432(6) 0.3940(4) 0.7835(4)
H6 H 0.3588 0.3416 0.7492
N6 N 0.6618(5) 0.2819(3) 0.9364(3)
H7 H 0.5855 0.2323 0.9036
O6 O 0.7071(4) 0.3346(2) 0.5924(3)
O9 O 0.4882(3) 0.1365(2) 0.5987(2)
O10 O 0.3918(3) 0.2442(2) 0.5864(3)
C15 C 0.6920(6) 0.2613(4) 0.7942(4)
H17 H 0.6017 0.2138 0.7665
C16 C 0.7484(6) 0.3088(4) 0.8885(4)
C17 C 0.8856(6) 0.3766(4) 0.9313(4)
H18 H 0.9272 0.4082 0.9946
C18 C 0.9586(6) 0.3955(4) 0.8758(4)
C19 C 0.8944(6) 0.3467(4) 0.7821(4)
H20 H 0.9449 0.3601 0.7460
C29 C 0.8657(5) 0.4770(3) 0.6080(3)
C30 C 0.9776(4) 0.4398(3) 0.6056(3)
H29 H 0.9644 0.3784 0.6008
C34 C 0.8866(5) 0.5694(3) 0.6159(3)
H32 H 0.8114 0.5941 0.6169
C36 C 0.7201(5) 0.4160(3) 0.5986(3)
C37 C 0.2417(5) 0.0352(3) 0.6179(3)
H33 H 0.3190 0.0124 0.6209
C38 C 0.2525(4) 0.1187(3) 0.6061(3)
C39 C 0.1376(4) 0.1527(3) 0.6031(3)
H34 H 0.1438 0.2086 0.5961
C40 C 0.0112(5) 0.1029(3) 0.6105(3)
C41 C 0.0029(5) 0.0209(3) 0.6209(3)
C43 C 0.3867(5) 0.1712(3) 0.5961(3)
O15 O 0.8918(3) 0.2111(2) 0.5870(2)
O16 O 0.7723(3) 0.0970(2) 0.6105(2)
C44 C 0.8857(5) 0.1392(3) 0.6024(3)
O2 O 0.2145(5) 0.9539(3) 0.1138(3)
N3 N 0.2736(4) 0.9656(3) 0.2569(3)
H3 H 0.2437 0.9418 0.2905
H9 H 0.0342 0.7737 0.0180
C8 C 0.0406(6) 0.8545(4) 0.1458(4)
H11 H 0.0569 0.8124 0.1740
C9 C 0.1839(6) 0.9288(4) 0.1697(4)
C42 C 0.1184(5) 0.9864(3) 0.6250(4)
H36 H 0.1121 0.9308 0.6325
H35 H 0.9191 0.9878 0.6253
H35_2 H 0.0809 0.0122 0.3747
O11 O 0.1082(3) 0.7889(2) 0.4130(2)
O12 O 0.2277(3) 0.9030(2) 0.3895(2)
C44_2 C 0.1143(5) 0.8608(3) 0.3976(3)
Co5 Co 0.32211(6) 0.79396(4) 0.40719(4)
Co1 Co 0.57564(6) 0.62343(4) 0.40765(4)
N1_2 N 0.4896(4) 0.5644(3) 0.2598(3)
C1_2 C 0.3733(5) 0.4861(3) 0.2082(3)
H1_2 H 0.3264 0.4565 0.2374
N2_2 N 0.1965(5) 0.3619(3) 0.0672(3)
H2_2 H 0.1365 0.3551 0.0950
C2_2 C 0.3185(6) 0.4462(4) 0.1137(4)
C3_2 C 0.3841(7) 0.4934(4) 0.0704(4)
H4_2 H 0.3472 0.4714 0.0074
C4_2 C 0.5055(7) 0.5737(4) 0.1236(4)
H5_2 H 0.5523 0.6060 0.0963
O5_2 O 0.3801(3) 0.5497(2) 0.4036(2)
N5_2 N 0.2380(4) 0.7192(3) 0.2588(3)
C5_2 C 0.5568(6) 0.6060(4) 0.2165(4)
H6_2 H 0.6412 0.6584 0.2508
N6_2 N 0.3382(5) 0.7181(3) 0.0636(3)
H7_2 H 0.4145 0.7677 0.0964
O6_2 O 0.2929(4) 0.6654(2) 0.4076(3)
O9_2 O 0.5118(3) 0.8635(2) 0.4013(2)
O10_2 O 0.6082(3) 0.7558(2) 0.4136(3)
C15_2 C 0.3080(6) 0.7387(4) 0.2058(4)
H17_2 H 0.3983 0.7862 0.2335
C16_2 C 0.2516(6) 0.6912(4) 0.1115(4)
C17_2 C 0.1144(6) 0.6234(4) 0.0687(4)
H18_2 H 0.0728 0.5918 0.0054
C18_2 C 0.0414(6) 0.6045(4) 0.1242(4)
C19_2 C 0.1056(6) 0.6533(4) 0.2179(4)
H20_2 H 0.0551 0.6399 0.2540
C29_2 C 0.1343(5) 0.5230(3) 0.3920(3)
C30_2 C 0.0224(4) 0.5602(3) 0.3944(3)
H29_2 H 0.0356 0.6216 0.3992
C34_2 C 0.1134(5) 0.4306(3) 0.3841(3)
H32_2 H 0.1886 0.4059 0.3831
C36_2 C 0.2799(5) 0.5840(3) 0.4014(3)
C37_2 C 0.7583(5) 0.9648(3) 0.3821(3)
H33_2 H 0.6810 0.9876 0.3791
C38_2 C 0.7475(4) 0.8813(3) 0.3939(3)
C39_2 C 0.8624(4) 0.8473(3) 0.3969(3)
H34_2 H 0.8562 0.7914 0.4039
C40_2 C 0.9888(5) 0.8971(3) 0.3895(3)
C41_2 C 0.9971(5) 0.9791(3) 0.3791(3)
C43_2 C 0.6133(5) 0.8288(3) 0.4039(3)
N9 N 0.4041(4) 0.8551(2) 0.5546(3)
O13 O 0.7936(3) 0.6331(2) 0.4099(2)
O14 O 0.6501(3) 0.4983(2) 0.3888(2)
N10 N 0.6576(4) 0.6946(2) 0.5552(3)
O1_2 O 0.2336(4) 0.2950(3) 0.9327(3)
O3_2 O 0.2120(6) 0.6078(4) 0.9183(3)
O4_2 O 0.6344(5) 0.8079(3) 0.8864(3)
C6_2 C 0.1640(6) 0.2903(4) 0.9826(4)
N7_2 N 0.5381(4) 0.6880(3) 0.7420(3)
H8_2 H 0.4717 0.6332 0.7081
C7_2 C 0.0347(6) 0.2045(4) 0.9557(4)
H10_2 H 0.0659 0.1640 0.9819
H12_2 H 0.0217 0.1136 0.8291
C20_2 C 0.3171(7) 0.6765(5) 0.9737(4)
C21_2 C 0.4360(8) 0.7238(5) 0.9477(4)
H21_2 H 0.5269 0.7230 0.9826
H22_2 H 0.4429 0.7902 0.9661
C22_2 C 0.4190(6) 0.6805(4) 0.8503(4)
H23_2 H 0.4133 0.6143 0.8314
H24_2 H 0.3287 0.6813 0.8148
C23_2 C 0.5416(6) 0.7316(4) 0.8291(4)
C24_2 C 0.6288(5) 0.7208(3) 0.7003(3)
C25_2 C 0.7593(5) 0.7961(3) 0.7458(3)
H25_2 H 0.7948 0.8298 0.8091
C26_2 C 0.8355(5) 0.8192(3) 0.6923(4)
H26_2 H 0.9228 0.8695 0.7203
C27_2 C 0.7827(5) 0.7685(3) 0.6003(3)
H27_2 H 0.8353 0.7857 0.5667
C28_2 C 0.5832(5) 0.6720(3) 0.6059(3)
H28_2 H 0.4968 0.6209 0.5759
H19_2 H 0.9495 0.5589 0.0982
C31_2 C 0.8902(5) 0.5053(3) 0.3896(3)
C32_2 C 0.8703(5) 0.4133(3) 0.3809(3)
H30_2 H 0.7818 0.3766 0.3772
C33_2 C 0.9809(5) 0.3750(3) 0.3778(4)
H31_2 H 0.9667 0.3130 0.3716
C35_2 C 0.7721(4) 0.5483(3) 0.3956(3)
C10_2 C 0.5902(5) 0.9621(3) 0.7001(3)
C11_2 C 0.5090(6) 0.9261(4) 0.7445(4)
H13_2 H 0.5429 0.9490 0.8077
C12_2 C 0.3758(6) 0.8549(4) 0.6909(4)
H14_2 H 0.3188 0.8300 0.7186
C13_2 C 0.3280(5) 0.8211(3) 0.5988(4)
H15_2 H 0.2391 0.7725 0.5648
C14_2 C 0.5322(5) 0.9245(3) 0.6060(3)
H16_2 H 0.5856 0.9490 0.5764
C42_2 C 0.8816(5) 0.0136(3) 0.3750(4)
H36_2 H 0.8879 0.0692 0.3675
O2_2 O 0.7855(5) 0.0461(3) 0.8862(3)
N3_2 N 0.7264(4) 0.0344(3) 0.7431(3)
H3_2 H 0.7563 0.0582 0.7095
H9_2 H 0.9658 0.2263 0.9820
C8_2 C 0.9594(6) 0.1455(4) 0.8542(4)
H11_2 H 0.9431 0.1876 0.8260
C9_2 C 0.8161(6) 0.0712(4) 0.8303(4)
loop_
_geom_bond_atom_site_label_1
_geom_bond_atom_site_label_2
_geom_bond_site_symmetry_1
_geom_bond_site_symmetry_2
N4 C13 1_555 1_555
C11 C10 1_555 1_555
H13 C11 1_555 1_555
C12 C11 1_555 1_555
H14 C12 1_555 1_555
C13 C12 1_555 1_555
H15 C13 1_555 1_555
C14 N4 1_555 1_555
H16 C14 1_555 1_555
Co6 N4 1_555 1_555
C10 C14 1_555 1_555
O7 C35 1_555 1_555
O8 C35 1_555 1_555
C32 C31 1_555 1_555
H30 C32 1_555 1_555
C33 C32 1_555 1_555
H31 C33 1_555 1_555
C35 C31 1_555 1_555
Co4 O7 1_555 1_555
O8 Co4 1_555 1_555
O1 C6 1_555 1_555
O3 C20 1_555 1_555
O4 C23 1_555 1_555
N7 H8 1_555 1_555
C7 C6 1_555 1_555
H10 C7 1_555 1_555
N8 C27 1_555 1_555
C21 C20 1_555 1_555
H21 C21 1_555 1_555
H22 C21 1_555 1_555
C22 C21 1_555 1_555
H23 C22 1_555 1_555
H24 C22 1_555 1_555
C23 N7 1_555 1_555
C24 N7 1_555 1_555
C25 C24 1_555 1_555
H25 C25 1_555 1_555
C26 C25 1_555 1_555
H26 C26 1_555 1_555
C27 C26 1_555 1_555
H27 C27 1_555 1_555
C28 N8 1_555 1_555
H28 C28 1_555 1_555
Co4 N8 1_555 1_555
C22 C23 1_555 1_555
C24 C28 1_555 1_555
Co4 N1 1_555 1_555
N1 C1 1_555 1_555
C1 H1 1_555 1_555
Co6 N5 1_555 1_555
N2 H2 1_555 1_555
C2 C1 1_555 1_555
C3 C2 1_555 1_555
H4 C3 1_555 1_555
C4 C3 1_555 1_555
H5 C4 1_555 1_555
O5 Co4 1_555 1_555
N5 C15 1_555 1_555
C5 N1 1_555 1_555
H6 C5 1_555 1_555
N6 H7 1_555 1_555
O6 Co6 1_555 1_555
O9 Co6 1_555 1_555
O10 Co4 1_555 1_555
C15 H17 1_555 1_555
C16 N6 1_555 1_555
C17 C16 1_555 1_555
H18 C17 1_555 1_555
C18 C17 1_555 1_555
C19 N5 1_555 1_555
H20 C19 1_555 1_555
C29 C30 1_555 1_555
C30 H29 1_555 1_555
C34 C29 1_555 1_555
H32 C34 1_555 1_555
C36 O5 1_555 1_555
C37 H33 1_555 1_555
C38 C37 1_555 1_555
C39 C38 1_555 1_555
H34 C39 1_555 1_555
C40 C39 1_555 1_555
C41 C40 1_555 1_555
C43 O9 1_555 1_555
O15 Co6 1_555 1_555
O16 Co6 1_555 1_555
N2 C2 1_555 1_555
C4 C5 1_555 1_555
O6 C36 1_555 1_555
O10 C43 1_555 1_555
C15 C16 1_555 1_555
C18 C19 1_555 1_555
C29 C36 1_555 1_555
C38 C43 1_555 1_555
O15 C44 1_555 1_555
O16 C44 1_555 1_555
O2 C9 1_555 1_555
N3 H3 1_555 1_555
H11 C8 1_555 1_555
C9 N3 1_555 1_555
C8 C9 1_555 1_555
H36 C42 1_555 1_555
O11 C44_2 1_555 1_555
O12 C44_2 1_555 1_555
Co5 O11 1_555 1_555
O12 Co5 1_555 1_555
Co1 N1_2 1_555 1_555
N1_2 C1_2 1_555 1_555
C1_2 H1_2 1_555 1_555
Co5 N5_2 1_555 1_555
N2_2 H2_2 1_555 1_555
C2_2 C1_2 1_555 1_555
C3_2 C2_2 1_555 1_555
H4_2 C3_2 1_555 1_555
C4_2 C3_2 1_555 1_555
H5_2 C4_2 1_555 1_555
O5_2 Co1 1_555 1_555
N5_2 C15_2 1_555 1_555
C5_2 N1_2 1_555 1_555
H6_2 C5_2 1_555 1_555
N6_2 H7_2 1_555 1_555
O6_2 Co5 1_555 1_555
O9_2 Co5 1_555 1_555
O10_2 Co1 1_555 1_555
C15_2 H17_2 1_555 1_555
C16_2 N6_2 1_555 1_555
C17_2 C16_2 1_555 1_555
H18_2 C17_2 1_555 1_555
C18_2 C17_2 1_555 1_555
C19_2 N5_2 1_555 1_555
H20_2 C19_2 1_555 1_555
C29_2 C30_2 1_555 1_555
C30_2 H29_2 1_555 1_555
C34_2 C29_2 1_555 1_555
H32_2 C34_2 1_555 1_555
C36_2 O5_2 1_555 1_555
C37_2 H33_2 1_555 1_555
C38_2 C37_2 1_555 1_555
C39_2 C38_2 1_555 1_555
H34_2 C39_2 1_555 1_555
C40_2 C39_2 1_555 1_555
C41_2 C40_2 1_555 1_555
C43_2 O9_2 1_555 1_555
N9 Co5 1_555 1_555
O13 Co1 1_555 1_555
O14 Co1 1_555 1_555
N10 Co1 1_555 1_555
N2_2 C2_2 1_555 1_555
C4_2 C5_2 1_555 1_555
O6_2 C36_2 1_555 1_555
O10_2 C43_2 1_555 1_555
C15_2 C16_2 1_555 1_555
C18_2 C19_2 1_555 1_555
C29_2 C36_2 1_555 1_555
C38_2 C43_2 1_555 1_555
O1_2 C6_2 1_555 1_555
O3_2 C20_2 1_555 1_555
O4_2 C23_2 1_555 1_555
N7_2 H8_2 1_555 1_555
C7_2 C6_2 1_555 1_555
H10_2 C7_2 1_555 1_555
N10 C27_2 1_555 1_555
C21_2 C20_2 1_555 1_555
H21_2 C21_2 1_555 1_555
H22_2 C21_2 1_555 1_555
C22_2 C21_2 1_555 1_555
H23_2 C22_2 1_555 1_555
H24_2 C22_2 1_555 1_555
C23_2 N7_2 1_555 1_555
C24_2 N7_2 1_555 1_555
C25_2 C24_2 1_555 1_555
H25_2 C25_2 1_555 1_555
C26_2 C25_2 1_555 1_555
H26_2 C26_2 1_555 1_555
C27_2 C26_2 1_555 1_555
H27_2 C27_2 1_555 1_555
C28_2 N10 1_555 1_555
H28_2 C28_2 1_555 1_555
C22_2 C23_2 1_555 1_555
C24_2 C28_2 1_555 1_555
O13 C35_2 1_555 1_555
O14 C35_2 1_555 1_555
C32_2 C31_2 1_555 1_555
H30_2 C32_2 1_555 1_555
C33_2 C32_2 1_555 1_555
H31_2 C33_2 1_555 1_555
C35_2 C31_2 1_555 1_555
N9 C13_2 1_555 1_555
C11_2 C10_2 1_555 1_555
H13_2 C11_2 1_555 1_555
C12_2 C11_2 1_555 1_555
H14_2 C12_2 1_555 1_555
C13_2 C12_2 1_555 1_555
H15_2 C13_2 1_555 1_555
C14_2 N9 1_555 1_555
H16_2 C14_2 1_555 1_555
C10_2 C14_2 1_555 1_555
H36_2 C42_2 1_555 1_555
O2_2 C9_2 1_555 1_555
N3_2 H3_2 1_555 1_555
H11_2 C8_2 1_555 1_555
C9_2 N3_2 1_555 1_555
C8_2 C9_2 1_555 1_555

#END
