
###############################################################################
#
# This file contains modified crystal structure data generated from the
# MOF subset of the Cambridge Structural Database (CSD) v543 
# hosted by the Cambridge Crystallographic Data Centre (CCDC).
#
# This work is licensed under the Creative Commons
# Attribution-NonCommercial-ShareAlike 4.0 International License.
# To view a copy of this license, visit
# http://creativecommons.org/licenses/by-nc-sa/4.0/
# or send a letter to
# Creative Commons, PO Box 1866, Mountain View, CA 94042, USA.
#
# CIF created using the CSD Python API on 29 September 2022
# The structure has been converted into the P1 space group
# The structure has a 3D framework
# The original CSD entry VOQWUV is in the triclinic crystal system
# The framework has been calculated to contain at least 10.0% void space
# The void calculation uses a probe of radius 1.32A, grid spacing 0.4
#
###############################################################################

data_VOQWUV
_chemical_formula_moiety         '(C252 H156 Cd6 N48 O24)n'
_symmetry_cell_setting           triclinic
_symmetry_space_group_name_H-M   'P 1'
_symmetry_Int_Tables_number      1
_space_group_name_Hall           'P 1'
loop_
_symmetry_equiv_pos_site_id
_symmetry_equiv_pos_as_xyz
1 x,y,z
_cell_length_a                   18.224(5)
_cell_length_b                   18.239(5)
_cell_length_c                   20.808(5)
_cell_angle_alpha                85.942(5)
_cell_angle_beta                 83.558(5)
_cell_angle_gamma                63.398(5)
_cell_volume                     6143.46
loop_
_atom_site_label
_atom_site_type_symbol
_atom_site_fract_x
_atom_site_fract_y
_atom_site_fract_z
C61 C 0.0008(5) 0.0268(5) 0.3782(5)
H34 H 0.0440 0.0171 0.3463
C93 C 0.0357(5) 0.0311(5) 0.2037(5)
H56 H 0.0894 0.0209 0.2094
O13 O 0.1356(3) 0.1001(3) 0.2603(3)
O14 O 0.0809(3) 0.2267(3) 0.2943(3)
N28 N 0.0052(5) 0.2695(5) 0.1621(4)
H35 H 0.0352 0.9091 0.4075
C100 C 0.0735(5) 0.8955(6) 0.1554(5)
C101 C 0.0524(5) 0.8327(6) 0.1678(4)
H61 H 0.0042 0.8411 0.1934
C102 C 0.1030(6) 0.7563(5) 0.1424(4)
C103 C 0.1766(5) 0.7436(5) 0.1055(4)
H62 H 0.2106 0.6928 0.0875
C104 C 0.1978(5) 0.8068(5) 0.0961(5)
C105 C 0.1478(6) 0.8838(6) 0.1189(5)
H63 H 0.1623 0.9266 0.1106
C106 C 0.1380(7) 0.6091(6) 0.1601(5)
H64 H 0.1948 0.5908 0.1545
C107 C 0.0185(7) 0.6110(7) 0.1769(4)
C112 C 0.0040(6) 0.6924(6) 0.1654(4)
C113 C 0.3338(8) 0.8105(10) 0.0800(9)
H69 H 0.3269 0.8379 0.1179
C121 C 0.0392(5) 0.6878(7) 0.8887(4)
C122 C 0.1217(6) 0.6607(8) 0.8974(5)
H75 H 0.1569 0.6711 0.8663
C123 C 0.1495(7) 0.6183(9) 0.9533(6)
H76 H 0.2042 0.6014 0.9608
C124 C 0.0987(7) 0.5996(10) 0.9991(6)
C125 C 0.0171(7) 0.6247(10) 0.9927(5)
N18 N 0.0173(5) 0.9755(5) 0.1784(4)
N19 N 0.1036(6) 0.5595(5) 0.1743(4)
N20 N 0.0829(5) 0.6904(4) 0.1543(4)
N21 N 0.4009(7) 0.7852(7) 0.0425(6)
N22 N 0.2737(5) 0.7946(5) 0.0609(4)
Cd8 Cd 0.02692(3) 0.78578(3) 0.74092(3)
Cd1 Cd 0.42341(3) 0.17257(3) 0.71522(3)
Cd3 Cd 0.97308(3) 0.21422(3) 0.25908(3)
O1 O 0.4901(3) 0.0284(3) 0.6930(3)
O2 O 0.5580(3) 0.0751(3) 0.7463(3)
O7 O 0.4630(4) 0.2843(3) 0.7483(3)
O8 O 0.3353(4) 0.3184(4) 0.7282(3)
O9 O 0.5533(3) 0.5030(3) 0.7472(3)
O10 O 0.4658(3) 0.6334(3) 0.7342(3)
O11 O 0.1630(3) 0.7052(4) 0.7496(3)
O12 O 0.1317(4) 0.6163(5) 0.7106(4)
C1 C 0.5541(5) 0.0172(4) 0.7179(4)
C10 C 0.3911(5) 0.3377(5) 0.7399(4)
C11 C 0.3706(4) 0.4265(4) 0.7408(4)
C12 C 0.4313(5) 0.4516(5) 0.7433(4)
H4 H 0.4855 0.4123 0.7462
C13 C 0.4132(4) 0.5341(5) 0.7417(4)
C14 C 0.4802(5) 0.5598(5) 0.7409(4)
C15 C 0.3310(4) 0.5935(5) 0.7392(4)
H5 H 0.3180 0.6490 0.7390
C16 C 0.2694(4) 0.5689(5) 0.7372(4)
C17 C 0.1825(5) 0.6337(6) 0.7333(5)
C18 C 0.2890(5) 0.4859(5) 0.7374(4)
H6 H 0.2476 0.4697 0.7352
C19 C 0.2438(4) 0.2558(4) 0.6633(4)
H7 H 0.2489 0.3042 0.6634
C20 C 0.2705(4) 0.1275(4) 0.6717(4)
C21 C 0.3061(5) 0.0431(5) 0.6807(5)
H8 H 0.3608 0.0143 0.6899
C22 C 0.2593(6) 0.0037(5) 0.6759(5)
C23 C 0.1764(5) 0.0467(5) 0.6612(5)
H10 H 0.1455 0.0181 0.6590
C24 C 0.1408(5) 0.1304(5) 0.6503(5)
H11 H 0.0867 0.1587 0.6395
C25 C 0.1887(4) 0.1707(4) 0.6559(4)
C26 C 0.1007(4) 0.3249(4) 0.6367(4)
C27 C 0.0247(4) 0.3287(4) 0.6612(4)
H12 H 0.0207 0.2858 0.6857
C30 C 0.0357(5) 0.4619(5) 0.5921(4)
C31 C 0.1060(5) 0.3902(4) 0.6019(4)
H14 H 0.1572 0.3859 0.5851
C39 C 0.1153(6) 0.5307(7) 0.5352(8)
H20 H 0.1658 0.4847 0.5376
C40 C 0.0256(6) 0.6535(6) 0.5183(6)
H21 H 0.0163 0.7622 0.4833
C46 C 0.5329(5) 0.2314(5) 0.6096(4)
H25 H 0.5420 0.2561 0.6435
C47 C 0.4910(4) 0.1635(4) 0.5548(4)
C48 C 0.4542(5) 0.1178(5) 0.5336(5)
H26 H 0.4225 0.0994 0.5619
C49 C 0.4675(5) 0.1014(5) 0.4677(4)
H27 H 0.4440 0.0712 0.4518
C50 C 0.5151(5) 0.1292(5) 0.4249(4)
H28 H 0.5222 0.1172 0.3813
C51 C 0.5521(5) 0.1741(5) 0.4455(4)
H29 H 0.5836 0.1928 0.4171
C52 C 0.5393(5) 0.1895(4) 0.5108(4)
C53 C 0.6210(5) 0.2662(5) 0.5281(4)
C54 C 0.6946(5) 0.2197(5) 0.4926(4)
H30 H 0.7066 0.1675 0.4796
C55 C 0.7507(5) 0.2522(5) 0.4764(4)
C56 C 0.7336(5) 0.3296(5) 0.4950(4)
H31 H 0.7722 0.3500 0.4854
C57 C 0.6584(5) 0.3765(4) 0.5281(4)
C58 C 0.6008(5) 0.3460(5) 0.5446(4)
H32 H 0.5498 0.3783 0.5662
C59 C 0.8637(5) 0.2364(5) 0.3928(4)
H33 H 0.8435 0.2923 0.3833
C60 C 0.9394(5) 0.1062(5) 0.3902(4)
C64 C 0.8699(5) 0.0550(5) 0.4773(5)
H37 H 0.8275 0.0643 0.5098
C65 C 0.8756(5) 0.1185(5) 0.4388(4)
C73 C 0.6189(5) 0.4826(5) 0.6090(4)
H43 H 0.6071 0.4524 0.6429
C74 C 0.6380(5) 0.5780(5) 0.5546(4)
C75 C 0.6441(5) 0.6494(5) 0.5335(4)
H44 H 0.6343 0.6903 0.5622
C76 C 0.6651(5) 0.6572(5) 0.4685(5)
H45 H 0.6706 0.7039 0.4532
C77 C 0.6784(5) 0.5965(5) 0.4253(5)
H46 H 0.6922 0.6041 0.3818
C78 C 0.6718(5) 0.5254(5) 0.4447(4)
H47 H 0.6793 0.4856 0.4157
C79 C 0.6534(5) 0.5179(5) 0.5098(4)
C94 C 0.9041(5) 0.0906(6) 0.2023(6)
C95 C 0.8209(6) 0.1435(8) 0.2082(8)
H57 H 0.8008 0.1943 0.2273
C96 C 0.7689(7) 0.1172(10) 0.1845(9)
H58 H 0.7126 0.1518 0.1866
C97 C 0.7990(7) 0.0401(9) 0.1574(9)
H59 H 0.7618 0.0239 0.1436
C99 C 0.9326(5) 0.0133(6) 0.1755(5)
N1 N 0.3037(4) 0.1835(4) 0.6760(3)
N2 N 0.1738(4) 0.2535(4) 0.6499(3)
N5 N 0.1093(7) 0.6010(7) 0.5096(6)
N6 N 0.0426(5) 0.5301(5) 0.5580(4)
N7 N 0.4878(4) 0.1902(4) 0.6176(3)
N8 N 0.5644(4) 0.2341(4) 0.5482(3)
N9 N 0.9302(4) 0.1808(4) 0.3623(3)
N10 N 0.8268(4) 0.2045(4) 0.4401(3)
N13 N 0.6164(4) 0.5545(4) 0.6162(3)
N14 N 0.6403(4) 0.4568(4) 0.5470(3)
N17 N 0.9721(4) 0.1001(4) 0.2195(4)
Cd6 Cd 0.61851(3) 0.58806(3) 0.72310(3)
O17 O 0.8370(3) 0.2948(4) 0.2504(3)
N26 N 0.3747(5) 0.1577(5) 0.8194(4)
C66 C 0.6596(6) 0.7812(8) 0.1405(4)
H38 H 0.6626 0.7297 0.1514
C67 C 0.6316(6) 0.9100(9) 0.1458(6)
C68 C 0.6021(7) 0.9902(9) 0.1639(7)
C71 C 0.6829(11) 0.9355(16) 0.0389(9)
C72 C 0.6728(6) 0.8766(12) 0.0844(5)
C84 C 0.6215(12) 0.4902(17) 0.0080(11)
H51 H 0.6181 0.4678 0.0491
C85 C 0.6515(9) 0.5457(14) 0.0004(8)
H52 H 0.6683 0.5618 0.0352
C88 C 0.6878(6) 0.7144(10) 0.0008(5)
H53 H 0.6378 0.7178 0.0201
C89 C 0.7288(6) 0.7511(11) 0.0274(4)
C90 C 0.8040(7) 0.7459(11) 0.0005(5)
H54 H 0.8308 0.7705 0.0197
H78 H 0.9829 0.6130 0.0239
N11 N 0.6253(5) 0.8423(5) 0.1806(4)
N12 N 0.6904(7) 0.7979(7) 0.0822(6)
Cd4 Cd 0.57659(3) 0.82743(3) 0.28478(3)
O3 O 0.8644(3) 0.8999(3) 0.7397(3)
O4 O 0.9191(3) 0.7733(3) 0.7057(3)
O5 O 0.7263(4) 0.6512(4) 0.6700(5)
O6 O 0.5978(4) 0.7198(3) 0.7114(3)
C2 C 0.6255(5) 0.9347(4) 0.7148(4)
C3 C 0.7047(5) 0.9249(5) 0.7215(4)
H1 H 0.7119 0.9700 0.7314
C4 C 0.7729(4) 0.8496(4) 0.7136(4)
C5 C 0.8574(4) 0.8405(4) 0.7190(4)
C6 C 0.7611(4) 0.7806(4) 0.7007(4)
H2 H 0.8062 0.7298 0.6937
C7 C 0.6816(4) 0.7895(4) 0.6987(4)
C8 C 0.6700(6) 0.7153(5) 0.6912(5)
C9 C 0.6143(4) 0.8669(4) 0.7043(4)
H3 H 0.5615 0.8726 0.7010
H9 H 0.2822 0.9471 0.6824
C62 C 0.9956(5) 0.9627(5) 0.4151(5)
C63 C 0.9314(5) 0.9777(6) 0.4636(5)
H36 H 0.9301 0.9334 0.4879
H42 H 0.7086 0.9190 0.9977
C80 C 0.6740(7) 0.6418(8) 0.8485(4)
H48 H 0.6891 0.6752 0.8199
C81 C 0.6313(6) 0.5548(7) 0.8866(6)
C82 C 0.5998(6) 0.4971(8) 0.8956(7)
H49 H 0.5821 0.4806 0.8615
C83 C 0.5964(10) 0.4654(13) 0.9593(11)
H50 H 0.5763 0.4266 0.9675
C86 C 0.6562(6) 0.5781(9) 0.9389(6)
C87 C 0.7245(6) 0.6720(10) 0.9437(5)
C91 C 0.8381(6) 0.7028(11) 0.9437(5)
C92 C 0.7989(7) 0.6662(10) 0.9140(5)
H55 H 0.8217 0.6387 0.8754
C98 C 0.8798(7) 0.9885(8) 0.1507(7)
H60 H 0.8995 0.9386 0.1305
C108 C 0.9532(7) 0.5903(7) 0.1901(5)
H65 H 0.9626 0.5360 0.1976
C109 C 0.8734(7) 0.6536(8) 0.1918(5)
H66 H 0.8287 0.6417 0.2010
C110 C 0.8600(7) 0.7338(7) 0.1798(5)
H67 H 0.8060 0.7747 0.1811
C111 C 0.9236(6) 0.7557(7) 0.1661(5)
H68 H 0.9135 0.8101 0.1578
C120 C 0.9195(6) 0.7369(9) 0.8549(4)
H74 H 0.8758 0.7635 0.8293
C126 C 0.9887(6) 0.6689(9) 0.9362(5)
N15 N 0.6413(5) 0.5970(5) 0.8311(4)
N16 N 0.6841(6) 0.6353(6) 0.9123(5)
N23 N 0.9948(5) 0.7305(5) 0.8379(4)
N24 N 0.9126(6) 0.7011(6) 0.9126(5)
N25 N 0.7459(5) 0.4693(5) 0.7163(4)
C28 C 0.9555(5) 0.3999(5) 0.6473(5)
C29 C 0.9596(5) 0.4650(5) 0.6134(6)
H13 H 0.9115 0.5112 0.6046
C32 C 0.8120(4) 0.4771(5) 0.6925(5)
H15 H 0.8146 0.5270 0.6901
C33 C 0.7689(5) 0.3861(5) 0.7106(6)
C34 C 0.7227(5) 0.3421(5) 0.7291(6)
H16 H 0.6692 0.3682 0.7485
C35 C 0.7588(5) 0.2602(5) 0.7176(5)
H17 H 0.7297 0.2300 0.7304
C36 C 0.8387(6) 0.2204(5) 0.6870(5)
H18 H 0.8606 0.1649 0.6784
C37 C 0.8854(5) 0.2615(5) 0.6696(5)
H19 H 0.9387 0.2349 0.6497
C38 C 0.8495(5) 0.3452(5) 0.6828(5)
C41 C 0.9865(6) 0.7347(6) 0.5019(5)
C42 C 0.9027(7) 0.7750(5) 0.5132(5)
H22 H 0.8750 0.8300 0.5011
C43 C 0.8581(6) 0.7339(6) 0.5429(5)
H23 H 0.8012 0.7625 0.5508
C44 C 0.8974(6) 0.6511(5) 0.5607(4)
H24 H 0.8677 0.6237 0.5799
C45 C 0.9817(6) 0.6114(5) 0.5488(4)
N4 N 0.8761(5) 0.4060(5) 0.6717(4)
C28_2 C 0.0445(5) 0.6001(5) 0.3527(5)
C29_2 C 0.0404(5) 0.5350(5) 0.3866(6)
H13_2 H 0.0885 0.4888 0.3954
C32_2 C 0.1880(4) 0.5229(5) 0.3075(5)
H15_2 H 0.1854 0.4730 0.3099
C33_2 C 0.2311(5) 0.6139(5) 0.2894(6)
C34_2 C 0.2773(5) 0.6579(5) 0.2709(6)
H16_2 H 0.3308 0.6318 0.2515
C35_2 C 0.2412(5) 0.7398(5) 0.2824(5)
H17_2 H 0.2703 0.7700 0.2696
C36_2 C 0.1613(6) 0.7796(5) 0.3130(5)
H18_2 H 0.1394 0.8351 0.3216
C37_2 C 0.1146(5) 0.7385(5) 0.3304(5)
H19_2 H 0.0613 0.7651 0.3503
C38_2 C 0.1505(5) 0.6548(5) 0.3172(5)
C41_2 C 0.0135(6) 0.2653(6) 0.4981(5)
C42_2 C 0.0973(7) 0.2250(5) 0.4868(5)
H22_2 H 0.1250 0.1700 0.4989
C43_2 C 0.1419(6) 0.2661(6) 0.4571(5)
H23_2 H 0.1988 0.2375 0.4492
C44_2 C 0.1026(6) 0.3489(5) 0.4393(4)
H24_2 H 0.1323 0.3763 0.4201
C45_2 C 0.0183(6) 0.3886(5) 0.4512(4)
N3 N 0.2541(5) 0.5307(5) 0.2837(4)
N4_2 N 0.1239(5) 0.5940(5) 0.3283(4)
Cd5 Cd 0.38149(3) 0.41194(3) 0.27690(3)
O5_2 O 0.2737(4) 0.3488(4) 0.3300(5)
O6_2 O 0.4022(4) 0.2802(3) 0.2886(3)
C2_2 C 0.3745(5) 0.0653(4) 0.2852(4)
C3_2 C 0.2953(5) 0.0751(5) 0.2785(4)
H1_2 H 0.2881 0.0300 0.2686
C4_2 C 0.2271(4) 0.1504(4) 0.2864(4)
C5_2 C 0.1426(4) 0.1595(4) 0.2810(4)
C6_2 C 0.2389(4) 0.2194(4) 0.2993(4)
H2_2 H 0.1938 0.2702 0.3063
C7_2 C 0.3184(4) 0.2105(4) 0.3013(4)
C8_2 C 0.3300(6) 0.2847(5) 0.3088(5)
C9_2 C 0.3857(4) 0.1331(4) 0.2957(4)
H3_2 H 0.4385 0.1274 0.2990
H9_2 H 0.7178 0.0529 0.3176
C62_2 C 0.0044(5) 0.0373(5) 0.5849(5)
C63_2 C 0.0686(5) 0.0223(6) 0.5364(5)
H36_2 H 0.0699 0.0666 0.5121
H42_2 H 0.2914 0.0810 0.0023
C80_2 C 0.3260(7) 0.3582(8) 0.1515(4)
H48_2 H 0.3109 0.3248 0.1801
C81_2 C 0.3687(6) 0.4452(7) 0.1134(6)
C82_2 C 0.4002(6) 0.5029(8) 0.1044(7)
H49_2 H 0.4179 0.5194 0.1385
C83_2 C 0.4036(10) 0.5346(13) 0.0407(11)
H50_2 H 0.4237 0.5734 0.0325
C86_2 C 0.3438(6) 0.4219(9) 0.0611(6)
C87_2 C 0.2755(6) 0.3280(10) 0.0563(5)
C91_2 C 0.1619(6) 0.2972(11) 0.0563(5)
C92_2 C 0.2011(7) 0.3338(10) 0.0860(5)
H55_2 H 0.1783 0.3613 0.1246
C98_2 C 0.1202(7) 0.0115(8) 0.8493(7)
H60_2 H 0.1005 0.0614 0.8695
C108_2 C 0.0468(7) 0.4097(7) 0.8099(5)
H65_2 H 0.0374 0.4640 0.8024
C109_2 C 0.1266(7) 0.3464(8) 0.8082(5)
H66_2 H 0.1713 0.3583 0.7990
C110_2 C 0.1400(7) 0.2662(7) 0.8202(5)
H67_2 H 0.1940 0.2253 0.8189
C111_2 C 0.0764(6) 0.2443(7) 0.8339(5)
H68_2 H 0.0865 0.1899 0.8422
C120_2 C 0.0805(6) 0.2631(9) 0.1451(4)
H74_2 H 0.1242 0.2365 0.1707
C126_2 C 0.0113(6) 0.3311(9) 0.0638(5)
N15_2 N 0.3587(5) 0.4030(5) 0.1689(4)
N16_2 N 0.3159(6) 0.3647(6) 0.0877(5)
N24_2 N 0.0874(6) 0.2989(6) 0.0874(5)
O15 O 0.4467(3) 0.4970(3) 0.2528(3)
O16 O 0.5342(3) 0.3666(3) 0.2658(3)
N27 N 0.3836(4) 0.4455(4) 0.3838(3)
C66_2 C 0.3404(6) 0.2188(8) 0.8595(4)
H38_2 H 0.3374 0.2703 0.8486
C67_2 C 0.3684(6) 0.0900(9) 0.8542(6)
C68_2 C 0.3979(7) 0.0098(9) 0.8361(7)
C71_2 C 0.3171(11) 0.0645(16) 0.9611(9)
C72_2 C 0.3272(6) 0.1234(12) 0.9156(5)
C84_2 C 0.3785(12) 0.5098(17) 0.9920(11)
H51_2 H 0.3819 0.5322 0.9509
C85_2 C 0.3485(9) 0.4543(14) 0.9996(8)
H52_2 H 0.3317 0.4382 0.9648
C88_2 C 0.3122(6) 0.2856(10) 0.9992(5)
H53_2 H 0.3622 0.2822 0.9799
C89_2 C 0.2712(6) 0.2489(11) 0.9726(4)
C90_2 C 0.1960(7) 0.2541(11) 0.9995(5)
H54_2 H 0.1692 0.2295 0.9803
H78_2 H 0.0171 0.3870 0.9761
N12_2 N 0.3096(7) 0.2021(7) 0.9178(6)
O1_2 O 0.5099(3) 0.9716(3) 0.3070(3)
O2_2 O 0.4420(3) 0.9249(3) 0.2537(3)
O7_2 O 0.5370(4) 0.7157(3) 0.2517(3)
O8_2 O 0.6647(4) 0.6816(4) 0.2718(3)
O12_2 O 0.8683(4) 0.3837(5) 0.2894(4)
C1_2 C 0.4459(5) 0.9828(4) 0.2821(4)
C10_2 C 0.6089(5) 0.6623(5) 0.2601(4)
C11_2 C 0.6294(4) 0.5735(4) 0.2592(4)
C12_2 C 0.5687(5) 0.5484(5) 0.2567(4)
H4_2 H 0.5145 0.5877 0.2538
C13_2 C 0.5868(4) 0.4659(5) 0.2583(4)
C14_2 C 0.5198(5) 0.4402(5) 0.2591(4)
C15_2 C 0.6690(4) 0.4065(5) 0.2608(4)
H5_2 H 0.6820 0.3510 0.2610
C16_2 C 0.7306(4) 0.4311(5) 0.2628(4)
C17_2 C 0.8175(5) 0.3663(6) 0.2667(5)
C18_2 C 0.7110(5) 0.5141(5) 0.2626(4)
H6_2 H 0.7524 0.5303 0.2648
C19_2 C 0.7562(4) 0.7442(4) 0.3367(4)
H7_2 H 0.7511 0.6958 0.3366
C20_2 C 0.7295(4) 0.8725(4) 0.3283(4)
C21_2 C 0.6939(5) 0.9569(5) 0.3193(5)
H8_2 H 0.6392 0.9857 0.3101
C22_2 C 0.7407(6) 0.9963(5) 0.3241(5)
C23_2 C 0.8236(5) 0.9533(5) 0.3388(5)
H10_2 H 0.8545 0.9819 0.3410
C24_2 C 0.8592(5) 0.8696(5) 0.3497(5)
H11_2 H 0.9133 0.8413 0.3605
C25_2 C 0.8113(4) 0.8293(4) 0.3441(4)
C26_2 C 0.8993(4) 0.6751(4) 0.3633(4)
C27_2 C 0.9753(4) 0.6713(4) 0.3388(4)
H12_2 H 0.9793 0.7142 0.3143
C30_2 C 0.9643(5) 0.5381(5) 0.4079(4)
C31_2 C 0.8940(5) 0.6098(4) 0.3981(4)
H14_2 H 0.8428 0.6141 0.4149
C39_2 C 0.8847(6) 0.4693(7) 0.4648(8)
H20_2 H 0.8342 0.5153 0.4624
C40_2 C 0.9744(6) 0.3465(6) 0.4817(6)
H21_2 H 0.9837 0.2378 0.5167
C46_2 C 0.4671(5) 0.7686(5) 0.3904(4)
H25_2 H 0.4580 0.7439 0.3565
C47_2 C 0.5090(4) 0.8365(4) 0.4452(4)
C48_2 C 0.5458(5) 0.8822(5) 0.4664(5)
H26_2 H 0.5775 0.9006 0.4381
C49_2 C 0.5325(5) 0.8986(5) 0.5323(4)
H27_2 H 0.5560 0.9288 0.5482
C50_2 C 0.4849(5) 0.8708(5) 0.5751(4)
H28_2 H 0.4778 0.8828 0.6187
C51_2 C 0.4479(5) 0.8259(5) 0.5545(4)
H29_2 H 0.4164 0.8072 0.5829
C52_2 C 0.4607(5) 0.8105(4) 0.4892(4)
C53_2 C 0.3790(5) 0.7338(5) 0.4719(4)
C54_2 C 0.3054(5) 0.7803(5) 0.5074(4)
H30_2 H 0.2934 0.8325 0.5204
C55_2 C 0.2493(5) 0.7478(5) 0.5236(4)
C56_2 C 0.2664(5) 0.6704(5) 0.5050(4)
H31_2 H 0.2278 0.6500 0.5146
C57_2 C 0.3416(5) 0.6235(4) 0.4719(4)
C58_2 C 0.3992(5) 0.6540(5) 0.4554(4)
H32_2 H 0.4502 0.6217 0.4338
C59_2 C 0.1363(5) 0.7636(5) 0.6072(4)
H33_2 H 0.1565 0.7077 0.6167
C60_2 C 0.0606(5) 0.8938(5) 0.6098(4)
C64_2 C 0.1301(5) 0.9450(5) 0.5227(5)
H37_2 H 0.1725 0.9357 0.4902
C65_2 C 0.1244(5) 0.8815(5) 0.5612(4)
C73_2 C 0.3811(5) 0.5174(5) 0.3910(4)
H43_2 H 0.3929 0.5476 0.3571
C74_2 C 0.3620(5) 0.4220(5) 0.4454(4)
C75_2 C 0.3559(5) 0.3506(5) 0.4665(4)
H44_2 H 0.3657 0.3097 0.4378
C76_2 C 0.3349(5) 0.3428(5) 0.5315(5)
H45_2 H 0.3294 0.2961 0.5468
C77_2 C 0.3216(5) 0.4035(5) 0.5747(5)
H46_2 H 0.3078 0.3959 0.6182
C78_2 C 0.3282(5) 0.4746(5) 0.5553(4)
H47_2 H 0.3207 0.5144 0.5843
C79_2 C 0.3466(5) 0.4821(5) 0.4902(4)
C94_2 C 0.0959(5) 0.9094(6) 0.7977(6)
C95_2 C 0.1791(6) 0.8565(8) 0.7918(8)
H57_2 H 0.1992 0.8057 0.7727
C96_2 C 0.2311(7) 0.8828(10) 0.8155(9)
H58_2 H 0.2874 0.8482 0.8134
C97_2 C 0.2010(7) 0.9599(9) 0.8426(9)
H59_2 H 0.2382 0.9761 0.8564
C99_2 C 0.0674(5) 0.9867(6) 0.8245(5)
N1_2 N 0.6963(4) 0.8165(4) 0.3240(3)
N2_2 N 0.8262(4) 0.7465(4) 0.3501(3)
N5_2 N 0.8907(7) 0.3990(7) 0.4904(6)
N6_2 N 0.9574(5) 0.4699(5) 0.4420(4)
N7_2 N 0.5122(4) 0.8098(4) 0.3824(3)
N8_2 N 0.4356(4) 0.7659(4) 0.4518(3)
N9_2 N 0.0698(4) 0.8192(4) 0.6377(3)
N10_2 N 0.1732(4) 0.7955(4) 0.5599(3)
N14_2 N 0.3597(4) 0.5432(4) 0.4530(3)
N17_2 N 0.0279(4) 0.8999(4) 0.7805(4)
H35_2 H 0.9648 0.0909 0.5925
C100_2 C 0.9265(5) 0.1045(6) 0.8446(5)
C101_2 C 0.9476(5) 0.1673(6) 0.8322(4)
H61_2 H 0.9958 0.1589 0.8066
C102_2 C 0.8970(6) 0.2437(5) 0.8576(4)
C103_2 C 0.8234(5) 0.2564(5) 0.8945(4)
H62_2 H 0.7894 0.3072 0.9125
C104_2 C 0.8022(5) 0.1932(5) 0.9039(5)
C105_2 C 0.8522(6) 0.1162(6) 0.8811(5)
H63_2 H 0.8377 0.0734 0.8894
C106_2 C 0.8620(7) 0.3909(6) 0.8399(5)
H64_2 H 0.8052 0.4092 0.8455
C107_2 C 0.9815(7) 0.3890(7) 0.8231(4)
C112_2 C 0.9960(6) 0.3076(6) 0.8346(4)
C113_2 C 0.6662(8) 0.1895(10) 0.9200(9)
H69_2 H 0.6731 0.1621 0.8821
C121_2 C 0.9608(5) 0.3122(7) 0.1113(4)
C122_2 C 0.8783(6) 0.3393(8) 0.1026(5)
H75_2 H 0.8431 0.3289 0.1337
C123_2 C 0.8505(7) 0.3817(9) 0.0467(6)
H76_2 H 0.7958 0.3986 0.0392
C124_2 C 0.9013(7) 0.4004(10) 0.0009(6)
C125_2 C 0.9829(7) 0.3753(10) 0.0073(5)
N18_2 N 0.9827(5) 0.0245(5) 0.8216(4)
N19_2 N 0.8964(6) 0.4405(5) 0.8257(4)
N20_2 N 0.9171(5) 0.3096(4) 0.8457(4)
N21_2 N 0.5991(7) 0.2148(7) 0.9575(6)
N22_2 N 0.7263(5) 0.2054(5) 0.9391(4)
C61_2 C 0.9992(5) 0.9732(5) 0.6218(5)
H34_2 H 0.9560 0.9829 0.6537
C93_2 C 0.9643(5) 0.9689(5) 0.7963(5)
H56_2 H 0.9106 0.9791 0.7906
H77 H 0.1211 0.5688 0.0356
C114 C 0.3821(6) 0.7554(5) 0.9882(5)
C115 C 0.4301(6) 0.7242(6) 0.9305(6)
H70 H 0.4819 0.7228 0.9216
C116 C 0.3990(8) 0.6971(9) 0.8894(5)
H71 H 0.4305 0.6741 0.8512
C117 C 0.3217(9) 0.7016(13) 0.9009(6)
H72 H 0.3016 0.6841 0.8691
C118 C 0.2725(7) 0.7308(9) 0.9572(5)
H73 H 0.2211 0.7311 0.9656
C119 C 0.3050(5) 0.7591(5) 0.9995(4)
H39 H 0.5750 0.0077 0.2045
C69 C 0.6148(8) 0.0434(10) 0.1184(8)
H40 H 0.5972 0.0980 0.1281
C70 C 0.6560(13) 0.0126(17) 0.0551(11)
H41 H 0.6638 0.0490 0.0246
H39_2 H 0.4250 0.9923 0.7955
C69_2 C 0.3852(8) 0.9566(10) 0.8816(8)
H40_2 H 0.4028 0.9020 0.8719
C70_2 C 0.3440(13) 0.9874(17) 0.9449(11)
H41_2 H 0.3362 0.9510 0.9754
C114_2 C 0.6179(6) 0.2446(5) 0.0118(5)
C115_2 C 0.5699(6) 0.2758(6) 0.0695(6)
H70_2 H 0.5181 0.2772 0.0784
C116_2 C 0.6010(8) 0.3029(9) 0.1106(5)
H71_2 H 0.5695 0.3259 0.1488
C117_2 C 0.6783(9) 0.2984(13) 0.0991(6)
H72_2 H 0.6984 0.3159 0.1309
C118_2 C 0.7275(7) 0.2692(9) 0.0428(5)
H73_2 H 0.7789 0.2689 0.0344
C119_2 C 0.6950(5) 0.2409(5) 0.0005(4)
H77_2 H 0.8789 0.4312 0.9644
loop_
_geom_bond_atom_site_label_1
_geom_bond_atom_site_label_2
_geom_bond_site_symmetry_1
_geom_bond_site_symmetry_2
C61 H34 1_555 1_555
C93 H56 1_555 1_555
C100 C101 1_555 1_555
C101 H61 1_555 1_555
C102 C101 1_555 1_555
C103 C102 1_555 1_555
H62 C103 1_555 1_555
C104 C103 1_555 1_555
C105 C100 1_555 1_555
H63 C105 1_555 1_555
C106 H64 1_555 1_555
C112 C107 1_555 1_555
C113 H69 1_555 1_555
C121 C122 1_555 1_555
C122 H75 1_555 1_555
C123 C122 1_555 1_555
H76 C123 1_555 1_555
C124 C123 1_555 1_555
C125 C124 1_555 1_555
N19 C106 1_555 1_555
N20 C102 1_555 1_555
N21 C113 1_555 1_555
N22 C104 1_555 1_555
C100 N18 1_555 1_555
C104 C105 1_555 1_555
C106 N20 1_555 1_555
C107 N19 1_555 1_555
C112 N20 1_555 1_555
C113 N22 1_555 1_555
Cd1 O1 1_555 1_555
Cd3 N9 1_555 1_555
O1 C1 1_555 1_555
O2 Cd1 1_555 1_555
O7 Cd1 1_555 1_555
O8 Cd1 1_555 1_555
O9 C14 1_555 1_555
O10 C14 1_555 1_555
O11 C17 1_555 1_555
O12 C17 1_555 1_555
C1 O2 1_555 1_555
C10 O7 1_555 1_555
C11 C10 1_555 1_555
C12 C11 1_555 1_555
H4 C12 1_555 1_555
C13 C12 1_555 1_555
C14 C13 1_555 1_555
C15 C13 1_555 1_555
H5 C15 1_555 1_555
C16 C15 1_555 1_555
C17 C16 1_555 1_555
C18 C11 1_555 1_555
H6 C18 1_555 1_555
C19 H7 1_555 1_555
C20 C21 1_555 1_555
C21 H8 1_555 1_555
C22 C21 1_555 1_555
C23 C22 1_555 1_555
H10 C23 1_555 1_555
C24 C23 1_555 1_555
H11 C24 1_555 1_555
C25 C20 1_555 1_555
C26 C27 1_555 1_555
C27 H12 1_555 1_555
C31 C26 1_555 1_555
H14 C31 1_555 1_555
C39 H20 1_555 1_555
C46 H25 1_555 1_555
C47 C48 1_555 1_555
C48 H26 1_555 1_555
C49 C48 1_555 1_555
H27 C49 1_555 1_555
C50 C49 1_555 1_555
H28 C50 1_555 1_555
C51 C50 1_555 1_555
H29 C51 1_555 1_555
C52 C47 1_555 1_555
C53 C54 1_555 1_555
C54 H30 1_555 1_555
C55 C54 1_555 1_555
C56 C55 1_555 1_555
H31 C56 1_555 1_555
C57 C56 1_555 1_555
C58 C53 1_555 1_555
H32 C58 1_555 1_555
C59 H33 1_555 1_555
H37 C64 1_555 1_555
C65 C60 1_555 1_555
C73 H43 1_555 1_555
C74 C75 1_555 1_555
C75 H44 1_555 1_555
C76 C75 1_555 1_555
H45 C76 1_555 1_555
C77 C76 1_555 1_555
H46 C77 1_555 1_555
C78 C77 1_555 1_555
H47 C78 1_555 1_555
C79 C74 1_555 1_555
C94 C95 1_555 1_555
C95 H57 1_555 1_555
C96 C95 1_555 1_555
H58 C96 1_555 1_555
C97 C96 1_555 1_555
H59 C97 1_555 1_555
C99 C94 1_555 1_555
N1 Cd1 1_555 1_555
N2 C19 1_555 1_555
N5 C39 1_555 1_555
N6 C30 1_555 1_555
N7 Cd1 1_555 1_555
N8 C46 1_555 1_555
N9 C59 1_555 1_555
N10 C55 1_555 1_555
N13 C73 1_555 1_555
N14 C57 1_555 1_555
N17 Cd3 1_555 1_555
Cd6 O9 1_555 1_555
Cd8 O11 1_555 1_555
O17 Cd3 1_555 1_555
N26 Cd1 1_555 1_555
O8 C10 1_555 1_555
O10 Cd6 1_555 1_555
C16 C18 1_555 1_555
C19 N1 1_555 1_555
C20 N1 1_555 1_555
C24 C25 1_555 1_555
C25 N2 1_555 1_555
C26 N2 1_555 1_555
C30 C31 1_555 1_555
C39 N6 1_555 1_555
C40 N5 1_555 1_555
C46 N7 1_555 1_555
C47 N7 1_555 1_555
C51 C52 1_555 1_555
C52 N8 1_555 1_555
C53 N8 1_555 1_555
C57 C58 1_555 1_555
C59 N10 1_555 1_555
C60 N9 1_555 1_555
C64 C65 1_555 1_555
C65 N10 1_555 1_555
C73 N14 1_555 1_555
C74 N13 1_555 1_555
C78 C79 1_555 1_555
C79 N14 1_555 1_555
C94 N17 1_555 1_555
N13 Cd6 1_555 1_555
C66 H38 1_555 1_555
C67 C68 1_555 1_555
C72 C67 1_555 1_555
H51 C84 1_555 1_555
C85 C84 1_555 1_555
H52 C85 1_555 1_555
C88 H53 1_555 1_555
C89 C88 1_555 1_555
C90 C89 1_555 1_555
H54 C90 1_555 1_555
N11 C66 1_555 1_555
N12 C66 1_555 1_555
Cd4 N11 1_555 1_555
C67 N11 1_555 1_555
C71 C72 1_555 1_555
C72 N12 1_555 1_555
C89 N12 1_555 1_555
Cd6 O5 1_555 1_555
O3 C5 1_555 1_555
O4 C5 1_555 1_555
O5 C8 1_555 1_555
O6 Cd6 1_555 1_555
C3 C2 1_555 1_555
H1 C3 1_555 1_555
C4 C3 1_555 1_555
C5 C4 1_555 1_555
C6 C4 1_555 1_555
H2 C6 1_555 1_555
C7 C6 1_555 1_555
C8 O6 1_555 1_555
C9 C2 1_555 1_555
H3 C9 1_555 1_555
C63 C62 1_555 1_555
H36 C63 1_555 1_555
C80 H48 1_555 1_555
C81 C82 1_555 1_555
C82 H49 1_555 1_555
C83 C82 1_555 1_555
H50 C83 1_555 1_555
C86 C81 1_555 1_555
C92 C87 1_555 1_555
H55 C92 1_555 1_555
H60 C98 1_555 1_555
C108 H65 1_555 1_555
C109 C108 1_555 1_555
H66 C109 1_555 1_555
C110 C109 1_555 1_555
H67 C110 1_555 1_555
C111 C110 1_555 1_555
H68 C111 1_555 1_555
C120 H74 1_555 1_555
N15 Cd6 1_555 1_555
N16 C80 1_555 1_555
N23 C120 1_555 1_555
N24 C91 1_555 1_555
N25 Cd6 1_555 1_555
C7 C8 1_555 1_555
C7 C9 1_555 1_555
C80 N15 1_555 1_555
C81 N15 1_555 1_555
C86 N16 1_555 1_555
C87 N16 1_555 1_555
C91 C92 1_555 1_555
C120 N24 1_555 1_555
C126 N24 1_555 1_555
C29 C28 1_555 1_555
H13 C29 1_555 1_555
C32 H15 1_555 1_555
C33 C34 1_555 1_555
C34 H16 1_555 1_555
C35 C34 1_555 1_555
H17 C35 1_555 1_555
C36 C35 1_555 1_555
H18 C36 1_555 1_555
C37 C36 1_555 1_555
H19 C37 1_555 1_555
C38 C33 1_555 1_555
C42 C41 1_555 1_555
H22 C42 1_555 1_555
C43 C42 1_555 1_555
H23 C43 1_555 1_555
C44 C43 1_555 1_555
H24 C44 1_555 1_555
N25 C32 1_555 1_555
N4 C28 1_555 1_555
C32 N4 1_555 1_555
C33 N25 1_555 1_555
C37 C38 1_555 1_555
C38 N4 1_555 1_555
C44 C45 1_555 1_555
C29_2 C28_2 1_555 1_555
H13_2 C29_2 1_555 1_555
C32_2 H15_2 1_555 1_555
C33_2 C34_2 1_555 1_555
C34_2 H16_2 1_555 1_555
C35_2 C34_2 1_555 1_555
H17_2 C35_2 1_555 1_555
C36_2 C35_2 1_555 1_555
H18_2 C36_2 1_555 1_555
C37_2 C36_2 1_555 1_555
H19_2 C37_2 1_555 1_555
C38_2 C33_2 1_555 1_555
C42_2 C41_2 1_555 1_555
H22_2 C42_2 1_555 1_555
C43_2 C42_2 1_555 1_555
H23_2 C43_2 1_555 1_555
C44_2 C43_2 1_555 1_555
H24_2 C44_2 1_555 1_555
N3 C32_2 1_555 1_555
N4_2 C28_2 1_555 1_555
Cd5 N3 1_555 1_555
C32_2 N4_2 1_555 1_555
C33_2 N3 1_555 1_555
C37_2 C38_2 1_555 1_555
C38_2 N4_2 1_555 1_555
C44_2 C45_2 1_555 1_555
Cd5 O5_2 1_555 1_555
O13 C5_2 1_555 1_555
O14 C5_2 1_555 1_555
O5_2 C8_2 1_555 1_555
O6_2 Cd5 1_555 1_555
C3_2 C2_2 1_555 1_555
H1_2 C3_2 1_555 1_555
C4_2 C3_2 1_555 1_555
C5_2 C4_2 1_555 1_555
C6_2 C4_2 1_555 1_555
H2_2 C6_2 1_555 1_555
C7_2 C6_2 1_555 1_555
C8_2 O6_2 1_555 1_555
C9_2 C2_2 1_555 1_555
H3_2 C9_2 1_555 1_555
C63_2 C62_2 1_555 1_555
H36_2 C63_2 1_555 1_555
C80_2 H48_2 1_555 1_555
C81_2 C82_2 1_555 1_555
C82_2 H49_2 1_555 1_555
C83_2 C82_2 1_555 1_555
H50_2 C83_2 1_555 1_555
C86_2 C81_2 1_555 1_555
C92_2 C87_2 1_555 1_555
H55_2 C92_2 1_555 1_555
H60_2 C98_2 1_555 1_555
C108_2 H65_2 1_555 1_555
C109_2 C108_2 1_555 1_555
H66_2 C109_2 1_555 1_555
C110_2 C109_2 1_555 1_555
H67_2 C110_2 1_555 1_555
C111_2 C110_2 1_555 1_555
H68_2 C111_2 1_555 1_555
C120_2 H74_2 1_555 1_555
N15_2 Cd5 1_555 1_555
N16_2 C80_2 1_555 1_555
N28 C120_2 1_555 1_555
N24_2 C91_2 1_555 1_555
O15 Cd5 1_555 1_555
O16 Cd5 1_555 1_555
N27 Cd5 1_555 1_555
C7_2 C8_2 1_555 1_555
C7_2 C9_2 1_555 1_555
C80_2 N15_2 1_555 1_555
C81_2 N15_2 1_555 1_555
C86_2 N16_2 1_555 1_555
C87_2 N16_2 1_555 1_555
C91_2 C92_2 1_555 1_555
C120_2 N24_2 1_555 1_555
C126_2 N24_2 1_555 1_555
C66_2 H38_2 1_555 1_555
C67_2 C68_2 1_555 1_555
C72_2 C67_2 1_555 1_555
H51_2 C84_2 1_555 1_555
C85_2 C84_2 1_555 1_555
H52_2 C85_2 1_555 1_555
C88_2 H53_2 1_555 1_555
C89_2 C88_2 1_555 1_555
C90_2 C89_2 1_555 1_555
H54_2 C90_2 1_555 1_555
N26 C66_2 1_555 1_555
N12_2 C66_2 1_555 1_555
C67_2 N26 1_555 1_555
C71_2 C72_2 1_555 1_555
C72_2 N12_2 1_555 1_555
C89_2 N12_2 1_555 1_555
Cd4 O1_2 1_555 1_555
Cd8 N9_2 1_555 1_555
O1_2 C1_2 1_555 1_555
O2_2 Cd4 1_555 1_555
O7_2 Cd4 1_555 1_555
O8_2 Cd4 1_555 1_555
O15 C14_2 1_555 1_555
O16 C14_2 1_555 1_555
O17 C17_2 1_555 1_555
O12_2 C17_2 1_555 1_555
C1_2 O2_2 1_555 1_555
C10_2 O7_2 1_555 1_555
C11_2 C10_2 1_555 1_555
C12_2 C11_2 1_555 1_555
H4_2 C12_2 1_555 1_555
C13_2 C12_2 1_555 1_555
C14_2 C13_2 1_555 1_555
C15_2 C13_2 1_555 1_555
H5_2 C15_2 1_555 1_555
C16_2 C15_2 1_555 1_555
C17_2 C16_2 1_555 1_555
C18_2 C11_2 1_555 1_555
H6_2 C18_2 1_555 1_555
C19_2 H7_2 1_555 1_555
C20_2 C21_2 1_555 1_555
C21_2 H8_2 1_555 1_555
C22_2 C21_2 1_555 1_555
C23_2 C22_2 1_555 1_555
H10_2 C23_2 1_555 1_555
C24_2 C23_2 1_555 1_555
H11_2 C24_2 1_555 1_555
C25_2 C20_2 1_555 1_555
C26_2 C27_2 1_555 1_555
C27_2 H12_2 1_555 1_555
C31_2 C26_2 1_555 1_555
H14_2 C31_2 1_555 1_555
C39_2 H20_2 1_555 1_555
C46_2 H25_2 1_555 1_555
C47_2 C48_2 1_555 1_555
C48_2 H26_2 1_555 1_555
C49_2 C48_2 1_555 1_555
H27_2 C49_2 1_555 1_555
C50_2 C49_2 1_555 1_555
H28_2 C50_2 1_555 1_555
C51_2 C50_2 1_555 1_555
H29_2 C51_2 1_555 1_555
C52_2 C47_2 1_555 1_555
C53_2 C54_2 1_555 1_555
C54_2 H30_2 1_555 1_555
C55_2 C54_2 1_555 1_555
C56_2 C55_2 1_555 1_555
H31_2 C56_2 1_555 1_555
C57_2 C56_2 1_555 1_555
C58_2 C53_2 1_555 1_555
H32_2 C58_2 1_555 1_555
C59_2 H33_2 1_555 1_555
H37_2 C64_2 1_555 1_555
C65_2 C60_2 1_555 1_555
C73_2 H43_2 1_555 1_555
C74_2 C75_2 1_555 1_555
C75_2 H44_2 1_555 1_555
C76_2 C75_2 1_555 1_555
H45_2 C76_2 1_555 1_555
C77_2 C76_2 1_555 1_555
H46_2 C77_2 1_555 1_555
C78_2 C77_2 1_555 1_555
H47_2 C78_2 1_555 1_555
C79_2 C74_2 1_555 1_555
C94_2 C95_2 1_555 1_555
C95_2 H57_2 1_555 1_555
C96_2 C95_2 1_555 1_555
H58_2 C96_2 1_555 1_555
C97_2 C96_2 1_555 1_555
H59_2 C97_2 1_555 1_555
C99_2 C94_2 1_555 1_555
N1_2 Cd4 1_555 1_555
N2_2 C19_2 1_555 1_555
N5_2 C39_2 1_555 1_555
N6_2 C30_2 1_555 1_555
N7_2 Cd4 1_555 1_555
N8_2 C46_2 1_555 1_555
N9_2 C59_2 1_555 1_555
N10_2 C55_2 1_555 1_555
N27 C73_2 1_555 1_555
N14_2 C57_2 1_555 1_555
N17_2 Cd8 1_555 1_555
O8_2 C10_2 1_555 1_555
C16_2 C18_2 1_555 1_555
C19_2 N1_2 1_555 1_555
C20_2 N1_2 1_555 1_555
C24_2 C25_2 1_555 1_555
C25_2 N2_2 1_555 1_555
C26_2 N2_2 1_555 1_555
C30_2 C31_2 1_555 1_555
C39_2 N6_2 1_555 1_555
C40_2 N5_2 1_555 1_555
C46_2 N7_2 1_555 1_555
C47_2 N7_2 1_555 1_555
C51_2 C52_2 1_555 1_555
C52_2 N8_2 1_555 1_555
C53_2 N8_2 1_555 1_555
C57_2 C58_2 1_555 1_555
C59_2 N10_2 1_555 1_555
C60_2 N9_2 1_555 1_555
C64_2 C65_2 1_555 1_555
C65_2 N10_2 1_555 1_555
C73_2 N14_2 1_555 1_555
C74_2 N27 1_555 1_555
C78_2 C79_2 1_555 1_555
C79_2 N14_2 1_555 1_555
C94_2 N17_2 1_555 1_555
C100_2 C101_2 1_555 1_555
C101_2 H61_2 1_555 1_555
C102_2 C101_2 1_555 1_555
C103_2 C102_2 1_555 1_555
H62_2 C103_2 1_555 1_555
C104_2 C103_2 1_555 1_555
C105_2 C100_2 1_555 1_555
H63_2 C105_2 1_555 1_555
C106_2 H64_2 1_555 1_555
C112_2 C107_2 1_555 1_555
C113_2 H69_2 1_555 1_555
C121_2 C122_2 1_555 1_555
C122_2 H75_2 1_555 1_555
C123_2 C122_2 1_555 1_555
H76_2 C123_2 1_555 1_555
C124_2 C123_2 1_555 1_555
C125_2 C124_2 1_555 1_555
N19_2 C106_2 1_555 1_555
N20_2 C102_2 1_555 1_555
N21_2 C113_2 1_555 1_555
N22_2 C104_2 1_555 1_555
C100_2 N18_2 1_555 1_555
C104_2 C105_2 1_555 1_555
C106_2 N20_2 1_555 1_555
C107_2 N19_2 1_555 1_555
C112_2 N20_2 1_555 1_555
C113_2 N22_2 1_555 1_555
C61_2 H34_2 1_555 1_555
C93_2 H56_2 1_555 1_555
C114 C115 1_555 1_555
C115 H70 1_555 1_555
C116 C115 1_555 1_555
H71 C116 1_555 1_555
C117 C116 1_555 1_555
H72 C117 1_555 1_555
C118 C117 1_555 1_555
H73 C118 1_555 1_555
C119 C114 1_555 1_555
C118 C119 1_555 1_555
H40 C69 1_555 1_555
C70 C69 1_555 1_555
H41 C70 1_555 1_555
H40_2 C69_2 1_555 1_555
C70_2 C69_2 1_555 1_555
H41_2 C70_2 1_555 1_555
C114_2 C115_2 1_555 1_555
C115_2 H70_2 1_555 1_555
C116_2 C115_2 1_555 1_555
H71_2 C116_2 1_555 1_555
C117_2 C116_2 1_555 1_555
H72_2 C117_2 1_555 1_555
C118_2 C117_2 1_555 1_555
H73_2 C118_2 1_555 1_555
C119_2 C114_2 1_555 1_555
C118_2 C119_2 1_555 1_555

#END
