
###############################################################################
#
# This file contains modified crystal structure data generated from the
# MOF subset of the Cambridge Structural Database (CSD) v543 
# hosted by the Cambridge Crystallographic Data Centre (CCDC).
#
# This work is licensed under the Creative Commons
# Attribution-NonCommercial-ShareAlike 4.0 International License.
# To view a copy of this license, visit
# http://creativecommons.org/licenses/by-nc-sa/4.0/
# or send a letter to
# Creative Commons, PO Box 1866, Mountain View, CA 94042, USA.
#
# CIF created using the CSD Python API on 29 September 2022
# The structure has been converted into the P1 space group
# The structure has a 3D framework
# The original CSD entry VORSEC is in the rhombohedral crystal system
# The framework has been calculated to contain at least 10.0% void space
# The void calculation uses a probe of radius 1.32A, grid spacing 0.4
#
###############################################################################

data_VORSEC
_chemical_formula_moiety         '(C234 H126 Cd18 N18 O60)n'
_symmetry_cell_setting           triclinic
_symmetry_space_group_name_H-M   'P 1'
_symmetry_Int_Tables_number      1
_space_group_name_Hall           'P 1'
loop_
_symmetry_equiv_pos_site_id
_symmetry_equiv_pos_as_xyz
1 x,y,z
_cell_length_a                   30.00(3)
_cell_length_b                   30.00(3)
_cell_length_c                   7.554(13)
_cell_angle_alpha                90
_cell_angle_beta                 90
_cell_angle_gamma                120
_cell_volume                     5887.76
loop_
_atom_site_label
_atom_site_type_symbol
_atom_site_fract_x
_atom_site_fract_y
_atom_site_fract_z
O1 O 0.2164(4) 0.7925(6) 0.0717(17)
O2 O 0.2886(4) 0.7928(5) 0.049(2)
N1 N 0.1808(6) 0.9200(6) 0.2416(17)
C9 C 0.2261(6) 0.9208(7) 0.2854(17)
H4 H 0.2401 0.9309 0.3982
C10 C 0.2507(6) 0.9064(8) 0.161(2)
H5 H 0.2810 0.9069 0.1902
C13 C 0.1600(6) 0.9049(7) 0.073(2)
H7 H 0.1296 0.9045 0.0438
Cd2 Cd 0.38641(5) 0.84948(6) 0.10986(16)
Cd3 Cd 0.12974(8) 0.94692(5) 0.44319(16)
Cd4 Cd 0.20360(8) 0.71974(5) 0.22347(16)
O3 O 0.3492(4) 0.8289(4) 0.4101(15)
O4 O 0.3494(5) 0.8934(5) 0.2804(15)
C1 C 0.2622(3) 0.8836(4) 0.8505(9)
C2 C 0.2738(4) 0.8441(4) 0.8507(9)
C3 C 0.3000(5) 0.8385(5) 0.7086(11)
H1 H 0.3077 0.8121 0.7088
C4 C 0.3147(5) 0.8723(4) 0.5664(11)
C5 C 0.3031(5) 0.9118(4) 0.5662(10)
H2 H 0.3130 0.9344 0.4710
C6 C 0.2769(5) 0.9174(4) 0.7082(11)
H3 H 0.2692 0.9438 0.7081
C7 C 0.2600(4) 0.8101(6) 0.999(2)
C8 C 0.3385(4) 0.8645(3) 0.4143(18)
C11 C 0.2299(8) 0.8913(7) 0.992(2)
C12 C 0.1845(7) 0.8905(7) 0.9485(16)
H6 H 0.1706 0.8804 0.8358
O5 O 0.4592(6) 0.9094(7) 0.2616(17)
O7 O 0.4595(5) 0.8375(6) 0.284(2)
O1_2 O 0.2075(6) 0.4239(7) 0.0717(17)
O2_2 O 0.2072(5) 0.4958(6) 0.049(2)
N1_2 N 0.0800(6) 0.2608(8) 0.2416(17)
C9_2 C 0.0792(7) 0.3053(9) 0.2854(17)
H4_2 H 0.0691 0.3092 0.3982
C10_2 C 0.0936(8) 0.3443(10) 0.161(2)
H5_2 H 0.0931 0.3741 0.1902
C13_2 C 0.0951(7) 0.2551(9) 0.073(2)
H7_2 H 0.0955 0.2251 0.0438
Cd2_2 Cd 0.15052(6) 0.53693(8) 0.10986(16)
Cd3_2 Cd 0.05308(5) 0.18281(9) 0.44319(16)
Cd4_2 Cd 0.28026(5) 0.48385(9) 0.22347(16)
O3_2 O 0.1711(4) 0.5203(6) 0.4101(15)
O4_2 O 0.1066(5) 0.4560(7) 0.2804(15)
C1_2 C 0.1164(4) 0.3786(5) 0.8505(9)
C2_2 C 0.1559(4) 0.4297(6) 0.8507(9)
C3_2 C 0.1615(5) 0.4615(7) 0.7086(11)
H1_2 H 0.1879 0.4956 0.7088
C4_2 C 0.1277(4) 0.4424(6) 0.5664(11)
C5_2 C 0.0882(4) 0.3913(6) 0.5662(10)
H2_2 H 0.0656 0.3786 0.4710
C6_2 C 0.0826(4) 0.3595(6) 0.7082(11)
H3_2 H 0.0562 0.3254 0.7081
C7_2 C 0.1899(6) 0.4499(7) 0.999(2)
C8_2 C 0.1355(3) 0.4740(5) 0.4143(18)
C11_2 C 0.1087(7) 0.3386(11) 0.992(2)
C12_2 C 0.1095(7) 0.2940(10) 0.9485(16)
H6_2 H 0.1196 0.2902 0.8358
O5_2 O 0.0906(7) 0.5497(9) 0.2616(17)
O7_2 O 0.1625(6) 0.6219(8) 0.284(2)
O1_3 O 0.5761(7) 0.7836(4) 0.0717(17)
O2_3 O 0.5042(6) 0.7114(4) 0.049(2)
N1_3 N 0.7392(8) 0.8192(6) 0.2416(17)
C9_3 C 0.6947(9) 0.7739(6) 0.2854(17)
H4_3 H 0.6908 0.7599 0.3982
C10_3 C 0.6557(10) 0.7493(6) 0.161(2)
H5_3 H 0.6259 0.7190 0.1902
C13_3 C 0.7449(9) 0.8400(6) 0.073(2)
H7_3 H 0.7749 0.8704 0.0438
Cd2_3 Cd 0.46307(8) 0.61359(5) 0.10986(16)
Cd3_3 Cd 0.81719(9) 0.87026(8) 0.44319(16)
Cd4_3 Cd 0.51615(9) 0.79640(8) 0.22347(16)
O3_3 O 0.4797(6) 0.6508(4) 0.4101(15)
O4_3 O 0.5440(7) 0.6506(5) 0.2804(15)
C1_3 C 0.6214(5) 0.7378(3) 0.8505(9)
C2_3 C 0.5703(6) 0.7262(4) 0.8507(9)
C3_3 C 0.5385(7) 0.7000(5) 0.7086(11)
H1_3 H 0.5044 0.6923 0.7088
C4_3 C 0.5576(6) 0.6853(5) 0.5664(11)
C5_3 C 0.6087(6) 0.6969(5) 0.5662(10)
H2_3 H 0.6214 0.6870 0.4710
C6_3 C 0.6405(6) 0.7231(5) 0.7082(11)
H3_3 H 0.6746 0.7308 0.7081
C7_3 C 0.5501(7) 0.7400(4) 0.999(2)
C8_3 C 0.5260(5) 0.6615(4) 0.4143(18)
C11_3 C 0.6614(11) 0.7701(8) 0.992(2)
C12_3 C 0.7060(10) 0.8155(7) 0.9485(16)
H6_3 H 0.7098 0.8294 0.8358
O5_3 O 0.4503(9) 0.5408(6) 0.2616(17)
O7_3 O 0.3781(8) 0.5405(5) 0.284(2)
N2 N 0.5141(10) 0.5867(6) 0.9083(17)
O3_4 O 0.0159(4) 0.1622(4) 0.7434(15)
O4_4 O 0.0161(5) 0.2267(5) 0.6137(15)
C8_4 C 0.0052(4) 0.1978(3) 0.7476(18)
O5_4 O 0.1258(6) 0.2428(7) 0.5950(17)
O7_4 O 0.1261(5) 0.1709(6) 0.618(2)
O1_4 O 0.8831(4) 0.1258(6) 0.4050(17)
O2_4 O 0.9553(4) 0.1261(5) 0.382(2)
C1_4 C 0.9289(3) 0.2169(4) 0.1838(9)
C2_4 C 0.9405(4) 0.1774(4) 0.1840(9)
C3_4 C 0.9667(5) 0.1718(5) 0.0419(11)
H1_4 H 0.9744 0.1454 0.0421
C6_4 C 0.9436(5) 0.2507(4) 0.0415(11)
H3_4 H 0.9359 0.2771 0.0414
C7_4 C 0.9267(4) 0.1434(6) 0.332(2)
N1_4 N 0.8475(6) 0.2533(6) 0.5749(17)
C9_4 C 0.8928(6) 0.2541(7) 0.6187(17)
H4_4 H 0.9068 0.2642 0.7315
C10_4 C 0.9174(6) 0.2397(8) 0.494(2)
H5_4 H 0.9477 0.2402 0.5235
C11_4 C 0.8966(8) 0.2246(7) 0.325(2)
C12_4 C 0.8512(7) 0.2238(7) 0.2818(16)
H6_4 H 0.8373 0.2137 0.1691
C13_4 C 0.8267(6) 0.2382(7) 0.406(2)
H7_4 H 0.7963 0.2378 0.3771
Cd3_4 Cd 0.79640(8) 0.28026(5) 0.77653(16)
Cd4_4 Cd 0.87026(8) 0.05308(5) 0.55681(16)
C4_4 C 0.9814(5) 0.2056(4) 0.8997(11)
C5_4 C 0.9698(5) 0.2451(4) 0.8995(10)
H2_4 H 0.9797 0.2677 0.8043
O1_5 O 0.8742(6) 0.7572(7) 0.4050(17)
O2_5 O 0.8739(5) 0.8291(6) 0.382(2)
C1_5 C 0.7831(4) 0.7119(5) 0.1838(9)
C2_5 C 0.8226(4) 0.7630(6) 0.1840(9)
C3_5 C 0.8282(5) 0.7948(7) 0.0419(11)
H1_5 H 0.8546 0.8289 0.0421
C6_5 C 0.7493(4) 0.6928(6) 0.0415(11)
H3_5 H 0.7229 0.6587 0.0414
C7_5 C 0.8566(6) 0.7832(7) 0.332(2)
N1_5 N 0.7467(6) 0.5941(8) 0.5749(17)
C9_5 C 0.7459(7) 0.6386(9) 0.6187(17)
H4_5 H 0.7358 0.6425 0.7315
C10_5 C 0.7603(8) 0.6776(10) 0.494(2)
H5_5 H 0.7598 0.7074 0.5235
C11_5 C 0.7754(7) 0.6719(11) 0.325(2)
C12_5 C 0.7762(7) 0.6273(10) 0.2818(16)
H6_5 H 0.7863 0.6235 0.1691
C13_5 C 0.7618(7) 0.5884(9) 0.406(2)
H7_5 H 0.7622 0.5584 0.3771
Cd3_5 Cd 0.71974(5) 0.51615(9) 0.77653(16)
Cd4_5 Cd 0.94692(5) 0.81719(9) 0.55681(16)
O3_5 O 0.8378(4) 0.8536(6) 0.7434(15)
O4_5 O 0.7733(5) 0.7893(7) 0.6137(15)
C4_5 C 0.7944(4) 0.7757(6) 0.8997(11)
C5_5 C 0.7549(4) 0.7246(6) 0.8995(10)
H2_5 H 0.7323 0.7119 0.8043
C8_5 C 0.8022(3) 0.8073(5) 0.7476(18)
O5_5 O 0.7572(7) 0.8831(9) 0.5950(17)
O7_5 O 0.8291(6) 0.9553(8) 0.618(2)
O1_6 O 0.2428(7) 0.1169(4) 0.4050(17)
O2_6 O 0.1709(6) 0.0447(4) 0.382(2)
C1_6 C 0.2881(5) 0.0711(3) 0.1838(9)
C2_6 C 0.2370(6) 0.0595(4) 0.1840(9)
C3_6 C 0.2052(7) 0.0333(5) 0.0419(11)
H1_6 H 0.1711 0.0256 0.0421
C6_6 C 0.3072(6) 0.0564(5) 0.0415(11)
H3_6 H 0.3413 0.0641 0.0414
C7_6 C 0.2168(7) 0.0733(4) 0.332(2)
N1_6 N 0.4059(8) 0.1525(6) 0.5749(17)
C9_6 C 0.3614(9) 0.1072(6) 0.6187(17)
H4_6 H 0.3575 0.0932 0.7315
C10_6 C 0.3224(10) 0.0826(6) 0.494(2)
H5_6 H 0.2926 0.0523 0.5235
C11_6 C 0.3281(11) 0.1034(8) 0.325(2)
C12_6 C 0.3727(10) 0.1488(7) 0.2818(16)
H6_6 H 0.3765 0.1627 0.1691
C13_6 C 0.4116(9) 0.1733(6) 0.406(2)
H7_6 H 0.4416 0.2037 0.3771
Cd3_6 Cd 0.48385(9) 0.20360(8) 0.77653(16)
Cd4_6 Cd 0.18281(9) 0.12974(8) 0.55681(16)
C4_6 C 0.2243(6) 0.0186(5) 0.8997(11)
C5_6 C 0.2754(6) 0.0302(5) 0.8995(10)
H2_6 H 0.2881 0.0203 0.8043
O3_6 O 0.1464(6) 0.9841(4) 0.7434(15)
O4_6 O 0.2107(7) 0.9839(5) 0.6137(15)
C8_6 C 0.1927(5) 0.9948(4) 0.7476(18)
O5_6 O 0.1169(9) 0.8742(6) 0.5950(17)
O7_6 O 0.0447(8) 0.8739(5) 0.618(2)
H4_7 H 0.5734 0.5976 0.0649
O1_7 O 0.5497(4) 0.4592(6) 0.7384(17)
O2_7 O 0.6219(4) 0.4595(5) 0.716(2)
O3_7 O 0.6825(4) 0.4956(4) 0.0768(15)
C1_7 C 0.5955(3) 0.5503(4) 0.5172(9)
C2_7 C 0.6071(4) 0.5108(4) 0.5174(9)
C3_7 C 0.6333(5) 0.5052(5) 0.3753(11)
H1_7 H 0.6410 0.4788 0.3755
C4_7 C 0.6480(5) 0.5390(4) 0.2331(11)
C5_7 C 0.6364(5) 0.5785(4) 0.2329(10)
H2_7 H 0.6463 0.6011 0.1377
C6_7 C 0.6102(5) 0.5841(4) 0.3749(11)
H3_7 H 0.6025 0.6105 0.3748
C7_7 C 0.5933(4) 0.4768(6) 0.666(2)
C8_7 C 0.6718(4) 0.5312(3) 0.0810(18)
C9_7 C 0.5594(6) 0.5875(7) 0.9521(17)
C10_7 C 0.5840(6) 0.5731(8) 0.828(2)
H5_7 H 0.6143 0.5736 0.8569
C11_7 C 0.5632(8) 0.5580(7) 0.659(2)
C12_7 C 0.5178(7) 0.5572(7) 0.6152(16)
H6_7 H 0.5039 0.5471 0.5025
C13_7 C 0.4933(6) 0.5716(7) 0.740(2)
H7_7 H 0.4629 0.5712 0.7105
Cd4_7 Cd 0.53693(8) 0.38641(5) 0.89014(16)
O4_7 O 0.6827(5) 0.5601(5) 0.9471(15)
O5_7 O 0.7925(6) 0.5761(7) 0.9283(17)
O7_7 O 0.7928(5) 0.5042(6) 0.951(2)
O1_8 O 0.5408(6) 0.0906(7) 0.7384(17)
O2_8 O 0.5405(5) 0.1625(6) 0.716(2)
O3_8 O 0.5044(4) 0.1870(6) 0.0768(15)
C1_8 C 0.4497(4) 0.0453(5) 0.5172(9)
C2_8 C 0.4892(4) 0.0964(6) 0.5174(9)
C3_8 C 0.4948(5) 0.1282(7) 0.3753(11)
H1_8 H 0.5212 0.1623 0.3755
C4_8 C 0.4610(4) 0.1091(6) 0.2331(11)
C5_8 C 0.4215(4) 0.0580(6) 0.2329(10)
H2_8 H 0.3989 0.0453 0.1377
C6_8 C 0.4159(4) 0.0262(6) 0.3749(11)
C7_8 C 0.5232(6) 0.1166(7) 0.666(2)
C8_8 C 0.4688(3) 0.1407(5) 0.0810(18)
C10_8 C 0.4269(8) 0.0110(10) 0.828(2)
H5_8 H 0.4264 0.0408 0.8569
C11_8 C 0.4420(7) 0.0053(11) 0.659(2)
Cd4_8 Cd 0.61359(5) 0.15052(9) 0.89014(16)
O4_8 O 0.4399(5) 0.1227(7) 0.9471(15)
O5_8 O 0.4239(7) 0.2164(9) 0.9283(17)
O7_8 O 0.4958(6) 0.2886(8) 0.951(2)
H4_8 H 0.4024 0.9759 0.0649
H4_9 H 0.0241 0.4266 0.0649
O1_9 O 0.9094(7) 0.4503(4) 0.7384(17)
O2_9 O 0.8375(6) 0.3781(4) 0.716(2)
O3_9 O 0.8130(6) 0.3175(4) 0.0768(15)
C1_9 C 0.9547(5) 0.4045(3) 0.5172(9)
C2_9 C 0.9036(6) 0.3929(4) 0.5174(9)
C3_9 C 0.8718(7) 0.3667(5) 0.3753(11)
H1_9 H 0.8377 0.3590 0.3755
C4_9 C 0.8909(6) 0.3520(5) 0.2331(11)
C5_9 C 0.9420(6) 0.3636(5) 0.2329(10)
H2_9 H 0.9547 0.3537 0.1377
C6_9 C 0.9738(6) 0.3898(5) 0.3749(11)
C7_9 C 0.8834(7) 0.4067(4) 0.666(2)
C8_9 C 0.8593(5) 0.3282(4) 0.0810(18)
C10_9 C 0.9890(10) 0.4160(6) 0.828(2)
H5_9 H 0.9592 0.3857 0.8569
C11_9 C 0.9947(11) 0.4368(8) 0.659(2)
Cd4_9 Cd 0.84948(9) 0.46307(8) 0.89014(16)
O4_9 O 0.8773(7) 0.3173(5) 0.9471(15)
O5_9 O 0.7836(9) 0.2075(6) 0.9283(17)
O7_9 O 0.7114(8) 0.2072(5) 0.951(2)
O3_10 O 0.6508(4) 0.1711(4) 0.5899(15)
O4_10 O 0.6506(5) 0.1066(5) 0.7196(15)
C1_10 C 0.7378(3) 0.1164(4) 0.1495(9)
C2_10 C 0.7262(4) 0.1559(4) 0.1493(9)
C3_10 C 0.7000(5) 0.1615(5) 0.2914(11)
H1_10 H 0.6923 0.1879 0.2912
C4_10 C 0.6853(5) 0.1277(4) 0.4336(11)
C5_10 C 0.6969(5) 0.0882(4) 0.4338(10)
H2_10 H 0.6870 0.0656 0.5290
C6_10 C 0.7231(5) 0.0826(4) 0.2918(11)
H3_8 H 0.7308 0.0562 0.2919
C7_10 C 0.7400(4) 0.1899(6) 0.001(2)
C8_10 C 0.6615(4) 0.1355(3) 0.5857(18)
C11_10 C 0.7701(8) 0.1087(7) 0.008(2)
C12_8 C 0.8155(7) 0.1095(7) 0.0515(16)
H6_8 H 0.8294 0.1196 0.1642
N1_7 N 0.8192(6) 0.0800(6) 0.7584(17)
C9_8 C 0.7739(6) 0.0792(7) 0.7146(17)
H4_10 H 0.7599 0.0691 0.6018
C10_10 C 0.7493(6) 0.0936(8) 0.839(2)
H5_10 H 0.7190 0.0931 0.8098
C13_8 C 0.8400(6) 0.0951(7) 0.927(2)
H7_8 H 0.8704 0.0955 0.9562
O3_11 O 0.8289(4) 0.4797(6) 0.5899(15)
O4_11 O 0.8934(5) 0.5440(7) 0.7196(15)
C1_11 C 0.8836(4) 0.6214(5) 0.1495(9)
C2_11 C 0.8441(4) 0.5703(6) 0.1493(9)
C3_11 C 0.8385(5) 0.5385(7) 0.2914(11)
H1_11 H 0.8121 0.5044 0.2912
C4_11 C 0.8723(4) 0.5576(6) 0.4336(11)
C5_11 C 0.9118(4) 0.6087(6) 0.4338(10)
H2_11 H 0.9344 0.6214 0.5290
C6_11 C 0.9174(4) 0.6405(6) 0.2918(11)
H3_9 H 0.9438 0.6746 0.2919
C7_11 C 0.8101(6) 0.5501(7) 0.001(2)
C8_11 C 0.8645(3) 0.5260(5) 0.5857(18)
C11_11 C 0.8913(7) 0.6614(11) 0.008(2)
C12_9 C 0.8905(7) 0.7060(10) 0.0515(16)
H6_9 H 0.8804 0.7098 0.1642
N1_8 N 0.9200(6) 0.7392(8) 0.7584(17)
C9_9 C 0.9208(7) 0.6947(9) 0.7146(17)
H4_11 H 0.9309 0.6908 0.6018
C10_11 C 0.9064(8) 0.6557(10) 0.839(2)
H5_11 H 0.9069 0.6259 0.8098
C13_9 C 0.9049(7) 0.7449(9) 0.927(2)
H7_9 H 0.9045 0.7749 0.9562
N2_2 N 0.4859(10) 0.4133(6) 0.0917(17)
O3_12 O 0.5203(6) 0.3492(4) 0.5899(15)
O4_12 O 0.4560(7) 0.3494(5) 0.7196(15)
C1_12 C 0.3786(5) 0.2622(3) 0.1495(9)
C2_12 C 0.4297(6) 0.2738(4) 0.1493(9)
C3_12 C 0.4615(7) 0.3000(5) 0.2914(11)
H1_12 H 0.4956 0.3077 0.2912
C4_12 C 0.4424(6) 0.3147(5) 0.4336(11)
C5_12 C 0.3913(6) 0.3031(5) 0.4338(10)
H2_12 H 0.3786 0.3130 0.5290
C6_12 C 0.3595(6) 0.2769(5) 0.2918(11)
H3_10 H 0.3254 0.2692 0.2919
C7_12 C 0.4499(7) 0.2600(4) 0.001(2)
C8_12 C 0.4740(5) 0.3385(4) 0.5857(18)
C11_12 C 0.3386(11) 0.2299(8) 0.008(2)
C12_10 C 0.2940(10) 0.1845(7) 0.0515(16)
H6_10 H 0.2902 0.1706 0.1642
N1_9 N 0.2608(8) 0.1808(6) 0.7584(17)
C9_10 C 0.3053(9) 0.2261(6) 0.7146(17)
H4_12 H 0.3092 0.2401 0.6018
C10_12 C 0.3443(10) 0.2507(6) 0.839(2)
H5_12 H 0.3741 0.2810 0.8098
C13_10 C 0.2551(9) 0.1600(6) 0.927(2)
H7_10 H 0.2251 0.1296 0.9562
C4_13 C 0.0186(5) 0.7944(4) 0.1003(11)
C5_13 C 0.0302(5) 0.7549(4) 0.1005(10)
H2_13 H 0.0203 0.7323 0.1957
C1_13 C 0.0711(3) 0.7831(4) 0.8162(9)
C2_13 C 0.0595(4) 0.8226(4) 0.8160(9)
C3_13 C 0.0333(5) 0.8282(5) 0.9581(11)
H1_13 H 0.0256 0.8546 0.9579
C6_13 C 0.0564(5) 0.7493(4) 0.9585(11)
H3_11 H 0.0641 0.7229 0.9586
C7_13 C 0.0733(4) 0.8566(6) 0.668(2)
N1_10 N 0.1525(6) 0.7467(6) 0.4251(17)
C9_11 C 0.1072(6) 0.7459(7) 0.3813(17)
H4_13 H 0.0932 0.7358 0.2685
C10_13 C 0.0826(6) 0.7603(8) 0.506(2)
H5_13 H 0.0523 0.7598 0.4765
C11_13 C 0.1034(8) 0.7754(7) 0.675(2)
C12_11 C 0.1488(7) 0.7762(7) 0.7182(16)
H6_11 H 0.1627 0.7863 0.8309
C13_11 C 0.1733(6) 0.7618(7) 0.594(2)
H7_11 H 0.2037 0.7622 0.6229
O3_13 O 0.9841(4) 0.8378(4) 0.2566(15)
O4_13 O 0.9839(5) 0.7733(5) 0.3863(15)
C8_13 C 0.9948(4) 0.8022(3) 0.2524(18)
O3_14 O 0.1622(4) 0.1464(6) 0.2566(15)
O4_14 O 0.2267(5) 0.2107(7) 0.3863(15)
C4_14 C 0.2056(4) 0.2243(6) 0.1003(11)
C5_14 C 0.2451(4) 0.2754(6) 0.1005(10)
H2_14 H 0.2677 0.2881 0.1957
C8_14 C 0.1978(3) 0.1927(5) 0.2524(18)
C1_14 C 0.2169(4) 0.2881(5) 0.8162(9)
C2_14 C 0.1774(4) 0.2370(6) 0.8160(9)
C3_14 C 0.1718(5) 0.2052(7) 0.9581(11)
H1_14 H 0.1454 0.1711 0.9579
C6_14 C 0.2507(4) 0.3072(6) 0.9585(11)
H3_12 H 0.2771 0.3413 0.9586
C7_14 C 0.1434(6) 0.2168(7) 0.668(2)
N1_11 N 0.2533(6) 0.4059(8) 0.4251(17)
C9_12 C 0.2541(7) 0.3614(9) 0.3813(17)
H4_14 H 0.2642 0.3575 0.2685
C10_14 C 0.2397(8) 0.3224(10) 0.506(2)
H5_14 H 0.2402 0.2926 0.4765
C11_14 C 0.2246(7) 0.3281(11) 0.675(2)
C12_12 C 0.2238(7) 0.3727(10) 0.7182(16)
H6_12 H 0.2137 0.3765 0.8309
C13_12 C 0.2382(7) 0.4116(9) 0.594(2)
H7_12 H 0.2378 0.4416 0.6229
O3_15 O 0.8536(6) 0.0159(4) 0.2566(15)
O4_15 O 0.7893(7) 0.0161(5) 0.3863(15)
C8_15 C 0.8073(5) 0.0052(4) 0.2524(18)
C4_15 C 0.7757(6) 0.9814(5) 0.1003(11)
C5_15 C 0.7246(6) 0.9698(5) 0.1005(10)
H2_15 H 0.7119 0.9797 0.1957
C1_15 C 0.7119(5) 0.9289(3) 0.8162(9)
C2_15 C 0.7630(6) 0.9405(4) 0.8160(9)
C3_15 C 0.7948(7) 0.9667(5) 0.9581(11)
H1_15 H 0.8289 0.9744 0.9579
C6_15 C 0.6928(6) 0.9436(5) 0.9585(11)
H3_13 H 0.6587 0.9359 0.9586
C7_15 C 0.7832(7) 0.9267(4) 0.668(2)
N1_12 N 0.5941(8) 0.8475(6) 0.4251(17)
C9_13 C 0.6386(9) 0.8928(6) 0.3813(17)
H4_15 H 0.6425 0.9068 0.2685
C10_15 C 0.6776(10) 0.9174(6) 0.506(2)
H5_15 H 0.7074 0.9477 0.4765
C11_15 C 0.6719(11) 0.8966(8) 0.675(2)
C12_13 C 0.6273(10) 0.8512(7) 0.7182(16)
H6_13 H 0.6235 0.8373 0.8309
C13_13 C 0.5884(9) 0.8267(6) 0.594(2)
H7_13 H 0.5584 0.7963 0.6229
O4_16 O 0.3173(5) 0.4399(5) 0.0529(15)
O3_16 O 0.3175(4) 0.5044(4) 0.9232(15)
C1_16 C 0.4045(3) 0.4497(4) 0.4828(9)
C2_16 C 0.3929(4) 0.4892(4) 0.4826(9)
C3_16 C 0.3667(5) 0.4948(5) 0.6247(11)
H1_16 H 0.3590 0.5212 0.6245
C4_16 C 0.3520(5) 0.4610(4) 0.7669(11)
C5_16 C 0.3636(5) 0.4215(4) 0.7671(10)
H2_16 H 0.3537 0.3989 0.8623
C6_16 C 0.3898(5) 0.4159(4) 0.6251(11)
H3_14 H 0.3975 0.3895 0.6252
C7_16 C 0.4067(4) 0.5232(6) 0.334(2)
C8_16 C 0.3282(4) 0.4688(3) 0.9190(18)
C9_14 C 0.4406(6) 0.4125(7) 0.0479(17)
C10_16 C 0.4160(6) 0.4269(8) 0.172(2)
H5_16 H 0.3857 0.4264 0.1431
C11_16 C 0.4368(8) 0.4420(7) 0.341(2)
C12_14 C 0.4822(7) 0.4428(7) 0.3848(16)
H6_14 H 0.4961 0.4529 0.4975
C13_14 C 0.5067(6) 0.4284(7) 0.260(2)
H7_14 H 0.5371 0.4288 0.2895
H4_16 H 0.4266 0.4024 0.9351
H4_17 H 0.5976 0.0241 0.9351
O4_17 O 0.5601(5) 0.8773(7) 0.0529(15)
O3_17 O 0.4956(4) 0.8130(6) 0.9232(15)
C1_17 C 0.5503(4) 0.9547(5) 0.4828(9)
C2_17 C 0.5108(4) 0.9036(6) 0.4826(9)
C3_17 C 0.5052(5) 0.8718(7) 0.6247(11)
H1_17 H 0.4788 0.8377 0.6245
C4_17 C 0.5390(4) 0.8909(6) 0.7669(11)
C5_17 C 0.5785(4) 0.9420(6) 0.7671(10)
H2_17 H 0.6011 0.9547 0.8623
C6_17 C 0.5841(4) 0.9738(6) 0.6251(11)
C7_17 C 0.4768(6) 0.8834(7) 0.334(2)
C8_17 C 0.5312(3) 0.8593(5) 0.9190(18)
C10_17 C 0.5731(8) 0.9890(10) 0.172(2)
H5_17 H 0.5736 0.9592 0.1431
C11_17 C 0.5580(7) 0.9947(11) 0.341(2)
O4_18 O 0.1227(7) 0.6827(5) 0.0529(15)
O3_18 O 0.1870(6) 0.6825(4) 0.9232(15)
C1_18 C 0.0453(5) 0.5955(3) 0.4828(9)
C2_18 C 0.0964(6) 0.6071(4) 0.4826(9)
C3_18 C 0.1282(7) 0.6333(5) 0.6247(11)
H1_18 H 0.1623 0.6410 0.6245
C4_18 C 0.1091(6) 0.6480(5) 0.7669(11)
C5_18 C 0.0580(6) 0.6364(5) 0.7671(10)
H2_18 H 0.0453 0.6463 0.8623
C6_18 C 0.0262(6) 0.6102(5) 0.6251(11)
C7_18 C 0.1166(7) 0.5933(4) 0.334(2)
C8_18 C 0.1407(5) 0.6718(4) 0.9190(18)
C10_18 C 0.0110(10) 0.5840(6) 0.172(2)
H5_18 H 0.0408 0.6143 0.1431
C11_18 C 0.0053(11) 0.5632(8) 0.341(2)
H4_18 H 0.9759 0.5734 0.9351
N2_3 N 0.4133(6) 0.9275(8) 0.9083(17)
H3_15 H 0.3895 0.9921 0.3748
C9_15 C 0.4125(7) 0.9720(9) 0.9521(17)
C12_15 C 0.4428(7) 0.9607(10) 0.6152(16)
H6_15 H 0.4529 0.9569 0.5025
C13_15 C 0.4284(7) 0.9218(9) 0.740(2)
H7_15 H 0.4288 0.8918 0.7105
N2_4 N 0.0725(8) 0.4859(10) 0.9083(17)
H3_16 H 0.0079 0.3975 0.3748
C9_16 C 0.0280(9) 0.4406(6) 0.9521(17)
C12_16 C 0.0393(10) 0.4822(7) 0.6152(16)
H6_16 H 0.0431 0.4961 0.5025
C13_16 C 0.0782(9) 0.5067(6) 0.740(2)
H7_16 H 0.1082 0.5371 0.7105
N2_5 N 0.5867(6) 0.0725(8) 0.0917(17)
H3_17 H 0.6105 0.0079 0.6252
C9_17 C 0.5875(7) 0.0280(9) 0.0479(17)
C12_17 C 0.5572(7) 0.0393(10) 0.3848(16)
H6_17 H 0.5471 0.0431 0.4975
C13_17 C 0.5716(7) 0.0782(9) 0.260(2)
H7_17 H 0.5712 0.1082 0.2895
N2_6 N 0.9275(8) 0.5141(10) 0.0917(17)
H3_18 H 0.9921 0.6025 0.6252
C9_18 C 0.9720(9) 0.5594(6) 0.0479(17)
C12_18 C 0.9607(10) 0.5178(7) 0.3848(16)
H6_18 H 0.9569 0.5039 0.4975
C13_18 C 0.9218(9) 0.4933(6) 0.260(2)
H7_18 H 0.8918 0.4629 0.2895
loop_
_geom_bond_atom_site_label_1
_geom_bond_atom_site_label_2
_geom_bond_site_symmetry_1
_geom_bond_site_symmetry_2
N1 C9 1_555 1_555
C9 H4 1_555 1_555
C10 C9 1_555 1_555
H5 C10 1_555 1_555
C13 N1 1_555 1_555
H7 C13 1_555 1_555
Cd2 O2 1_555 1_555
Cd3 N1 1_555 1_555
Cd4 O1 1_555 1_555
O2 Cd4 1_555 1_555
Cd2 O3 1_555 1_555
O3 C8 1_555 1_555
O4 Cd2 1_555 1_555
C1 C2 1_555 1_555
C2 C3 1_555 1_555
C3 H1 1_555 1_555
C4 C3 1_555 1_555
C5 C4 1_555 1_555
H2 C5 1_555 1_555
C6 C1 1_555 1_555
H3 C6 1_555 1_555
C7 C2 1_555 1_555
C8 O4 1_555 1_555
C11 C1 1_555 1_555
C12 C11 1_555 1_555
H6 C12 1_555 1_555
O5 Cd2 1_555 1_555
O7 Cd2 1_555 1_555
C4 C8 1_555 1_555
C5 C6 1_555 1_555
N1_2 C9_2 1_555 1_555
C9_2 H4_2 1_555 1_555
C10_2 C9_2 1_555 1_555
H5_2 C10_2 1_555 1_555
C13_2 N1_2 1_555 1_555
H7_2 C13_2 1_555 1_555
Cd2_2 O2_2 1_555 1_555
Cd3_2 N1_2 1_555 1_555
Cd4_2 O1_2 1_555 1_555
O2_2 Cd4_2 1_555 1_555
Cd2_2 O3_2 1_555 1_555
O3_2 C8_2 1_555 1_555
O4_2 Cd2_2 1_555 1_555
C1_2 C2_2 1_555 1_555
C2_2 C3_2 1_555 1_555
C3_2 H1_2 1_555 1_555
C4_2 C3_2 1_555 1_555
C5_2 C4_2 1_555 1_555
H2_2 C5_2 1_555 1_555
C6_2 C1_2 1_555 1_555
H3_2 C6_2 1_555 1_555
C7_2 C2_2 1_555 1_555
C8_2 O4_2 1_555 1_555
C11_2 C1_2 1_555 1_555
C12_2 C11_2 1_555 1_555
H6_2 C12_2 1_555 1_555
O5_2 Cd2_2 1_555 1_555
O7_2 Cd2_2 1_555 1_555
C4_2 C8_2 1_555 1_555
C5_2 C6_2 1_555 1_555
N1_3 C9_3 1_555 1_555
C9_3 H4_3 1_555 1_555
C10_3 C9_3 1_555 1_555
H5_3 C10_3 1_555 1_555
C13_3 N1_3 1_555 1_555
H7_3 C13_3 1_555 1_555
Cd2_3 O2_3 1_555 1_555
Cd3_3 N1_3 1_555 1_555
Cd4_3 O1_3 1_555 1_555
O2_3 Cd4_3 1_555 1_555
Cd2_3 O3_3 1_555 1_555
O3_3 C8_3 1_555 1_555
O4_3 Cd2_3 1_555 1_555
C1_3 C2_3 1_555 1_555
C2_3 C3_3 1_555 1_555
C3_3 H1_3 1_555 1_555
C4_3 C3_3 1_555 1_555
C5_3 C4_3 1_555 1_555
H2_3 C5_3 1_555 1_555
C6_3 C1_3 1_555 1_555
H3_3 C6_3 1_555 1_555
C7_3 C2_3 1_555 1_555
C8_3 O4_3 1_555 1_555
C11_3 C1_3 1_555 1_555
C12_3 C11_3 1_555 1_555
H6_3 C12_3 1_555 1_555
O5_3 Cd2_3 1_555 1_555
O7_3 Cd2_3 1_555 1_555
C4_3 C8_3 1_555 1_555
C5_3 C6_3 1_555 1_555
Cd3_2 O3_4 1_555 1_555
O3_4 C8_4 1_555 1_555
O4_4 Cd3_2 1_555 1_555
C8_4 O4_4 1_555 1_555
O5_4 Cd3_2 1_555 1_555
O7_4 Cd3_2 1_555 1_555
O1_4 C7_4 1_555 1_555
O2_4 C7_4 1_555 1_555
C1_4 C2_4 1_555 1_555
C2_4 C3_4 1_555 1_555
C3_4 H1_4 1_555 1_555
C6_4 C1_4 1_555 1_555
H3_4 C6_4 1_555 1_555
C7_4 C2_4 1_555 1_555
N1_4 C9_4 1_555 1_555
C9_4 H4_4 1_555 1_555
C10_4 C9_4 1_555 1_555
H5_4 C10_4 1_555 1_555
C11_4 C1_4 1_555 1_555
C12_4 C11_4 1_555 1_555
H6_4 C12_4 1_555 1_555
C13_4 N1_4 1_555 1_555
H7_4 C13_4 1_555 1_555
Cd3_4 N1_4 1_555 1_555
Cd4_4 O1_4 1_555 1_555
O2_4 Cd4_4 1_555 1_555
C10_4 C11_4 1_555 1_555
C12_4 C13_4 1_555 1_555
C5_4 C4_4 1_555 1_555
H2_4 C5_4 1_555 1_555
O1_5 C7_5 1_555 1_555
O2_5 C7_5 1_555 1_555
C1_5 C2_5 1_555 1_555
C2_5 C3_5 1_555 1_555
C3_5 H1_5 1_555 1_555
C6_5 C1_5 1_555 1_555
H3_5 C6_5 1_555 1_555
C7_5 C2_5 1_555 1_555
N1_5 C9_5 1_555 1_555
C9_5 H4_5 1_555 1_555
C10_5 C9_5 1_555 1_555
H5_5 C10_5 1_555 1_555
C11_5 C1_5 1_555 1_555
C12_5 C11_5 1_555 1_555
H6_5 C12_5 1_555 1_555
C13_5 N1_5 1_555 1_555
H7_5 C13_5 1_555 1_555
Cd3_3 O2_5 1_555 1_555
Cd3_5 N1_5 1_555 1_555
Cd4_5 O1_5 1_555 1_555
O2_5 Cd4_5 1_555 1_555
C10_5 C11_5 1_555 1_555
C12_5 C13_5 1_555 1_555
Cd3_3 O3_5 1_555 1_555
O3_5 C8_5 1_555 1_555
O4_5 Cd3_3 1_555 1_555
C5_5 C4_5 1_555 1_555
H2_5 C5_5 1_555 1_555
C8_5 O4_5 1_555 1_555
O5_5 Cd3_3 1_555 1_555
O7_5 Cd3_3 1_555 1_555
C4_5 C8_5 1_555 1_555
O1_6 C7_6 1_555 1_555
O2_6 C7_6 1_555 1_555
C1_6 C2_6 1_555 1_555
C2_6 C3_6 1_555 1_555
C3_6 H1_6 1_555 1_555
C6_6 C1_6 1_555 1_555
H3_6 C6_6 1_555 1_555
C7_6 C2_6 1_555 1_555
N1_6 C9_6 1_555 1_555
C9_6 H4_6 1_555 1_555
C10_6 C9_6 1_555 1_555
H5_6 C10_6 1_555 1_555
C11_6 C1_6 1_555 1_555
C12_6 C11_6 1_555 1_555
H6_6 C12_6 1_555 1_555
C13_6 N1_6 1_555 1_555
H7_6 C13_6 1_555 1_555
Cd3_6 N1_6 1_555 1_555
Cd4_6 O1_6 1_555 1_555
O2_6 Cd4_6 1_555 1_555
C10_6 C11_6 1_555 1_555
C12_6 C13_6 1_555 1_555
C5_6 C4_6 1_555 1_555
H2_6 C5_6 1_555 1_555
Cd3 O3_6 1_555 1_555
O3_6 C8_6 1_555 1_555
O4_6 Cd3 1_555 1_555
C8_6 O4_6 1_555 1_555
O5_6 Cd3 1_555 1_555
O7_6 Cd3 1_555 1_555
O1_7 C7_7 1_555 1_555
O2_7 C7_7 1_555 1_555
O3_7 C8_7 1_555 1_555
C1_7 C2_7 1_555 1_555
C2_7 C3_7 1_555 1_555
C3_7 H1_7 1_555 1_555
C4_7 C3_7 1_555 1_555
C5_7 C4_7 1_555 1_555
H2_7 C5_7 1_555 1_555
C6_7 C1_7 1_555 1_555
H3_7 C6_7 1_555 1_555
C7_7 C2_7 1_555 1_555
N2 C9_7 1_555 1_555
C10_7 C9_7 1_555 1_555
H5_7 C10_7 1_555 1_555
C11_7 C1_7 1_555 1_555
C12_7 C11_7 1_555 1_555
H6_7 C12_7 1_555 1_555
C13_7 N2 1_555 1_555
H7_7 C13_7 1_555 1_555
Cd3_5 O2_7 1_555 1_555
Cd4_7 O1_7 1_555 1_555
O2_7 Cd4_7 1_555 1_555
C4_7 C8_7 1_555 1_555
C5_7 C6_7 1_555 1_555
C10_7 C11_7 1_555 1_555
C12_7 C13_7 1_555 1_555
O4_7 Cd3_5 1_555 1_555
O5_7 Cd3_5 1_555 1_555
O7_7 Cd3_5 1_555 1_555
O1_8 C7_8 1_555 1_555
O2_8 C7_8 1_555 1_555
O3_8 C8_8 1_555 1_555
C1_8 C2_8 1_555 1_555
C2_8 C3_8 1_555 1_555
C3_8 H1_8 1_555 1_555
C4_8 C3_8 1_555 1_555
C5_8 C4_8 1_555 1_555
H2_8 C5_8 1_555 1_555
C6_8 C1_8 1_555 1_555
C7_8 C2_8 1_555 1_555
H5_8 C10_8 1_555 1_555
C11_8 C1_8 1_555 1_555
Cd3_6 O2_8 1_555 1_555
Cd4_8 O1_8 1_555 1_555
O2_8 Cd4_8 1_555 1_555
C4_8 C8_8 1_555 1_555
C5_8 C6_8 1_555 1_555
C10_8 C11_8 1_555 1_555
O4_8 Cd3_6 1_555 1_555
O5_8 Cd3_6 1_555 1_555
O7_8 Cd3_6 1_555 1_555
O1_9 C7_9 1_555 1_555
O2_9 C7_9 1_555 1_555
O3_9 C8_9 1_555 1_555
C1_9 C2_9 1_555 1_555
C2_9 C3_9 1_555 1_555
C3_9 H1_9 1_555 1_555
C4_9 C3_9 1_555 1_555
C5_9 C4_9 1_555 1_555
H2_9 C5_9 1_555 1_555
C6_9 C1_9 1_555 1_555
C7_9 C2_9 1_555 1_555
H5_9 C10_9 1_555 1_555
C11_9 C1_9 1_555 1_555
Cd3_4 O2_9 1_555 1_555
Cd4_9 O1_9 1_555 1_555
O2_9 Cd4_9 1_555 1_555
C4_9 C8_9 1_555 1_555
C5_9 C6_9 1_555 1_555
C10_9 C11_9 1_555 1_555
O4_9 Cd3_4 1_555 1_555
O5_9 Cd3_4 1_555 1_555
O7_9 Cd3_4 1_555 1_555
Cd4_8 O3_10 1_555 1_555
O3_10 C8_10 1_555 1_555
O4_10 Cd4_8 1_555 1_555
C1_10 C2_10 1_555 1_555
C2_10 C3_10 1_555 1_555
C3_10 H1_10 1_555 1_555
C4_10 C3_10 1_555 1_555
C5_10 C4_10 1_555 1_555
H2_10 C5_10 1_555 1_555
C6_10 C1_10 1_555 1_555
H3_8 C6_10 1_555 1_555
C7_10 C2_10 1_555 1_555
C8_10 O4_10 1_555 1_555
C11_10 C1_10 1_555 1_555
C12_8 C11_10 1_555 1_555
H6_8 C12_8 1_555 1_555
O7_9 Cd4_8 1_555 1_555
C4_10 C8_10 1_555 1_555
C5_10 C6_10 1_555 1_555
N1_7 C9_8 1_555 1_555
C9_8 H4_10 1_555 1_555
C10_10 C9_8 1_555 1_555
H5_10 C10_10 1_555 1_555
C13_8 N1_7 1_555 1_555
H7_8 C13_8 1_555 1_555
Cd4_4 N1_7 1_555 1_555
Cd4_9 O3_11 1_555 1_555
O3_11 C8_11 1_555 1_555
O4_11 Cd4_9 1_555 1_555
C1_11 C2_11 1_555 1_555
C2_11 C3_11 1_555 1_555
C3_11 H1_11 1_555 1_555
C4_11 C3_11 1_555 1_555
C5_11 C4_11 1_555 1_555
H2_11 C5_11 1_555 1_555
C6_11 C1_11 1_555 1_555
H3_9 C6_11 1_555 1_555
C7_11 C2_11 1_555 1_555
C8_11 O4_11 1_555 1_555
C11_11 C1_11 1_555 1_555
C12_9 C11_11 1_555 1_555
H6_9 C12_9 1_555 1_555
O7_7 Cd4_9 1_555 1_555
C4_11 C8_11 1_555 1_555
C5_11 C6_11 1_555 1_555
N1_8 C9_9 1_555 1_555
C9_9 H4_11 1_555 1_555
C10_11 C9_9 1_555 1_555
H5_11 C10_11 1_555 1_555
C13_9 N1_8 1_555 1_555
H7_9 C13_9 1_555 1_555
Cd4_5 N1_8 1_555 1_555
Cd4_7 O3_12 1_555 1_555
O3_12 C8_12 1_555 1_555
O4_12 Cd4_7 1_555 1_555
C1_12 C2_12 1_555 1_555
C2_12 C3_12 1_555 1_555
C3_12 H1_12 1_555 1_555
C4_12 C3_12 1_555 1_555
C5_12 C4_12 1_555 1_555
H2_12 C5_12 1_555 1_555
C6_12 C1_12 1_555 1_555
H3_10 C6_12 1_555 1_555
C7_12 C2_12 1_555 1_555
C8_12 O4_12 1_555 1_555
C11_12 C1_12 1_555 1_555
C12_10 C11_12 1_555 1_555
H6_10 C12_10 1_555 1_555
O7_8 Cd4_7 1_555 1_555
C4_12 C8_12 1_555 1_555
C5_12 C6_12 1_555 1_555
N1_9 C9_10 1_555 1_555
C9_10 H4_12 1_555 1_555
C10_12 C9_10 1_555 1_555
H5_12 C10_12 1_555 1_555
C13_10 N1_9 1_555 1_555
H7_10 C13_10 1_555 1_555
Cd4_6 N1_9 1_555 1_555
C5_13 C4_13 1_555 1_555
H2_13 C5_13 1_555 1_555
O5_6 C7_13 1_555 1_555
O7_6 C7_13 1_555 1_555
C1_13 C2_13 1_555 1_555
C2_13 C3_13 1_555 1_555
C3_13 H1_13 1_555 1_555
C6_13 C1_13 1_555 1_555
H3_11 C6_13 1_555 1_555
C7_13 C2_13 1_555 1_555
N1_10 C9_11 1_555 1_555
C9_11 H4_13 1_555 1_555
C10_13 C9_11 1_555 1_555
H5_13 C10_13 1_555 1_555
C11_13 C1_13 1_555 1_555
C12_11 C11_13 1_555 1_555
H6_11 C12_11 1_555 1_555
C13_11 N1_10 1_555 1_555
H7_11 C13_11 1_555 1_555
Cd4 N1_10 1_555 1_555
C10_13 C11_13 1_555 1_555
C12_11 C13_11 1_555 1_555
Cd4_5 O3_13 1_555 1_555
O3_13 C8_13 1_555 1_555
O4_13 Cd4_5 1_555 1_555
C8_13 O4_13 1_555 1_555
Cd4_6 O3_14 1_555 1_555
O3_14 C8_14 1_555 1_555
O4_14 Cd4_6 1_555 1_555
C5_14 C4_14 1_555 1_555
H2_14 C5_14 1_555 1_555
C8_14 O4_14 1_555 1_555
O7_4 Cd4_6 1_555 1_555
C4_14 C8_14 1_555 1_555
O5_4 C7_14 1_555 1_555
O7_4 C7_14 1_555 1_555
C1_14 C2_14 1_555 1_555
C2_14 C3_14 1_555 1_555
C3_14 H1_14 1_555 1_555
C6_14 C1_14 1_555 1_555
H3_12 C6_14 1_555 1_555
C7_14 C2_14 1_555 1_555
N1_11 C9_12 1_555 1_555
C9_12 H4_14 1_555 1_555
C10_14 C9_12 1_555 1_555
H5_14 C10_14 1_555 1_555
C11_14 C1_14 1_555 1_555
C12_12 C11_14 1_555 1_555
H6_12 C12_12 1_555 1_555
C13_12 N1_11 1_555 1_555
H7_12 C13_12 1_555 1_555
Cd4_2 N1_11 1_555 1_555
C10_14 C11_14 1_555 1_555
C12_12 C13_12 1_555 1_555
Cd4_4 O3_15 1_555 1_555
O3_15 C8_15 1_555 1_555
O4_15 Cd4_4 1_555 1_555
C8_15 O4_15 1_555 1_555
C5_15 C4_15 1_555 1_555
H2_15 C5_15 1_555 1_555
O5_5 C7_15 1_555 1_555
O7_5 C7_15 1_555 1_555
C1_15 C2_15 1_555 1_555
C2_15 C3_15 1_555 1_555
C3_15 H1_15 1_555 1_555
C6_15 C1_15 1_555 1_555
H3_13 C6_15 1_555 1_555
C7_15 C2_15 1_555 1_555
N1_12 C9_13 1_555 1_555
C9_13 H4_15 1_555 1_555
C10_15 C9_13 1_555 1_555
H5_15 C10_15 1_555 1_555
C11_15 C1_15 1_555 1_555
C12_13 C11_15 1_555 1_555
H6_13 C12_13 1_555 1_555
C13_13 N1_12 1_555 1_555
H7_13 C13_13 1_555 1_555
Cd4_3 N1_12 1_555 1_555
C10_15 C11_15 1_555 1_555
C12_13 C13_13 1_555 1_555
O4_16 Cd4_2 1_555 1_555
O7_3 Cd4_2 1_555 1_555
O5_3 C7_16 1_555 1_555
O7_3 C7_16 1_555 1_555
O3_16 C8_16 1_555 1_555
C1_16 C2_16 1_555 1_555
C2_16 C3_16 1_555 1_555
C3_16 H1_16 1_555 1_555
C4_16 C3_16 1_555 1_555
C5_16 C4_16 1_555 1_555
H2_16 C5_16 1_555 1_555
C6_16 C1_16 1_555 1_555
H3_14 C6_16 1_555 1_555
C7_16 C2_16 1_555 1_555
N2_2 C9_14 1_555 1_555
C10_16 C9_14 1_555 1_555
H5_16 C10_16 1_555 1_555
C11_16 C1_16 1_555 1_555
C12_14 C11_16 1_555 1_555
H6_14 C12_14 1_555 1_555
C13_14 N2_2 1_555 1_555
H7_14 C13_14 1_555 1_555
C4_16 C8_16 1_555 1_555
C5_16 C6_16 1_555 1_555
C10_16 C11_16 1_555 1_555
C12_14 C13_14 1_555 1_555
O4_17 Cd4_3 1_555 1_555
O7 Cd4_3 1_555 1_555
O5 C7_17 1_555 1_555
O7 C7_17 1_555 1_555
O3_17 C8_17 1_555 1_555
C1_17 C2_17 1_555 1_555
C2_17 C3_17 1_555 1_555
C3_17 H1_17 1_555 1_555
C4_17 C3_17 1_555 1_555
C5_17 C4_17 1_555 1_555
H2_17 C5_17 1_555 1_555
C6_17 C1_17 1_555 1_555
C7_17 C2_17 1_555 1_555
H5_17 C10_17 1_555 1_555
C11_17 C1_17 1_555 1_555
C4_17 C8_17 1_555 1_555
C5_17 C6_17 1_555 1_555
C10_17 C11_17 1_555 1_555
O4_18 Cd4 1_555 1_555
O7_2 Cd4 1_555 1_555
O5_2 C7_18 1_555 1_555
O7_2 C7_18 1_555 1_555
O3_18 C8_18 1_555 1_555
C1_18 C2_18 1_555 1_555
C2_18 C3_18 1_555 1_555
C3_18 H1_18 1_555 1_555
C4_18 C3_18 1_555 1_555
C5_18 C4_18 1_555 1_555
H2_18 C5_18 1_555 1_555
C6_18 C1_18 1_555 1_555
C7_18 C2_18 1_555 1_555
H5_18 C10_18 1_555 1_555
C11_18 C1_18 1_555 1_555
C4_18 C8_18 1_555 1_555
C5_18 C6_18 1_555 1_555
C10_18 C11_18 1_555 1_555
N2_3 C9_15 1_555 1_555
H6_15 C12_15 1_555 1_555
C13_15 N2_3 1_555 1_555
H7_15 C13_15 1_555 1_555
C12_15 C13_15 1_555 1_555
N2_4 C9_16 1_555 1_555
H6_16 C12_16 1_555 1_555
C13_16 N2_4 1_555 1_555
H7_16 C13_16 1_555 1_555
C12_16 C13_16 1_555 1_555
N2_5 C9_17 1_555 1_555
H6_17 C12_17 1_555 1_555
C13_17 N2_5 1_555 1_555
H7_17 C13_17 1_555 1_555
C12_17 C13_17 1_555 1_555
N2_6 C9_18 1_555 1_555
H6_18 C12_18 1_555 1_555
C13_18 N2_6 1_555 1_555
H7_18 C13_18 1_555 1_555
C12_18 C13_18 1_555 1_555

#END
