
###############################################################################
#
# This file contains modified crystal structure data generated from the
# MOF subset of the Cambridge Structural Database (CSD) v543 
# hosted by the Cambridge Crystallographic Data Centre (CCDC).
#
# This work is licensed under the Creative Commons
# Attribution-NonCommercial-ShareAlike 4.0 International License.
# To view a copy of this license, visit
# http://creativecommons.org/licenses/by-nc-sa/4.0/
# or send a letter to
# Creative Commons, PO Box 1866, Mountain View, CA 94042, USA.
#
# CIF created using the CSD Python API on 29 September 2022
# The structure has been converted into the P1 space group
# The structure has a 3D framework
# The original CSD entry VORSAY is in the rhombohedral crystal system
# The framework has been calculated to contain at least 10.0% void space
# The void calculation uses a probe of radius 1.32A, grid spacing 0.4
#
###############################################################################

data_VORSAY
_chemical_formula_moiety         '(C234 H162 Cd18 N18 O90)n'
_symmetry_cell_setting           triclinic
_symmetry_space_group_name_H-M   'P 1'
_symmetry_Int_Tables_number      1
_space_group_name_Hall           'P 1'
loop_
_symmetry_equiv_pos_site_id
_symmetry_equiv_pos_as_xyz
1 x,y,z
_cell_length_a                   30.515(5)
_cell_length_b                   30.515(5)
_cell_length_c                   7.574(2)
_cell_angle_alpha                90
_cell_angle_beta                 90
_cell_angle_gamma                120
_cell_volume                     6107.77
loop_
_atom_site_label
_atom_site_type_symbol
_atom_site_fract_x
_atom_site_fract_y
_atom_site_fract_z
O6 O 0.0396(5) 0.1713(6) 0.1149(15)
Cd1 Cd 0.94640(3) 0.13316(4) 0.05939(11)
N1 N 0.7501(5) 0.1556(5) 0.0732(16)
O1 O 0.9318(10) 0.0761(10) 0.208(4)
H1 H 0.9605 0.0890 0.2580
H2 H 0.9194 0.0443 0.2036
H5 H 0.7577 0.0557 0.0196
C5 C 0.7474(8) 0.1119(8) 0.109(3)
H6 H 0.7367 0.0980 0.2205
Cd4 Cd 0.72027(3) 0.20017(4) 0.27394(11)
N2 N 0.9166(5) 0.1777(5) 0.2601(16)
O2 O 0.8683(4) 0.0396(5) 0.8851(15)
O3 O 0.8729(4) 0.1138(4) 0.9067(14)
C1 C 0.7649(6) 0.1727(6) 0.909(2)
H3 H 0.7674 0.2034 0.8781
C2 C 0.7765(6) 0.1484(5) 0.785(2)
H4 H 0.7861 0.1622 0.6730
C3 C 0.7742(5) 0.1030(5) 0.8238(18)
C4 C 0.7597(8) 0.0860(8) 0.986(3)
C6 C 0.7827(5) 0.0725(5) 0.6864(18)
C7 C 0.7513(6) 0.0600(6) 0.539(2)
H7 H 0.7263 0.0689 0.5337
C8 C 0.7580(6) 0.0339(5) 0.3970(19)
H8 H 0.7381 0.0273 0.2964
C9 C 0.7925(5) 0.0181(5) 0.4031(19)
C10 C 0.8215(6) 0.0303(5) 0.5514(18)
H9 H 0.8455 0.0201 0.5575
C11 C 0.8180(5) 0.0568(5) 0.6934(18)
C12 C 0.8546(6) 0.0702(6) 0.8367(19)
O7 O 0.9811(4) 0.1473(6) 0.7526(14)
O8 O 0.9832(4) 0.2127(6) 0.8817(14)
O4 O 0.8338(4) 0.9811(4) 0.2474(14)
O5 O 0.7705(4) 0.9832(4) 0.1183(14)
C13 C 0.7993(6) 0.9925(6) 0.249(2)
Cd3 Cd 0.81324(5) 0.94640(3) 0.94061(11)
O4_2 O 0.0189(4) 0.8527(6) 0.2474(14)
O5_2 O 0.0168(4) 0.7873(6) 0.1183(14)
C13_2 C 0.0075(6) 0.8068(8) 0.249(2)
Cd3_2 Cd 0.05360(3) 0.86684(6) 0.94061(11)
Cd1_2 Cd 0.86684(4) 0.81324(5) 0.05939(11)
N1_2 N 0.8444(5) 0.5945(7) 0.0732(16)
O1_2 O 0.9239(10) 0.8557(14) 0.208(4)
H1_2 H 0.9110 0.8715 0.2580
H2_2 H 0.9557 0.8751 0.2036
H5_2 H 0.9443 0.7020 0.0196
C5_2 C 0.8881(8) 0.6355(11) 0.109(3)
H6_2 H 0.9020 0.6387 0.2205
Cd4_2 Cd 0.79983(4) 0.52009(5) 0.27394(11)
N2_2 N 0.8223(5) 0.7388(7) 0.2601(16)
O6_2 O 0.8287(6) 0.8683(8) 0.1149(15)
O2_2 O 0.9604(5) 0.8287(6) 0.8851(15)
O3_2 O 0.8862(4) 0.7591(6) 0.9067(14)
C1_2 C 0.8273(6) 0.5922(8) 0.909(2)
H3_2 H 0.7966 0.5640 0.8781
C2_2 C 0.8516(5) 0.6281(8) 0.785(2)
H4_2 H 0.8378 0.6239 0.6730
C3_2 C 0.8970(5) 0.6712(7) 0.8238(18)
C4_2 C 0.9140(8) 0.6737(11) 0.986(3)
C6_2 C 0.9275(5) 0.7102(7) 0.6864(18)
C7_2 C 0.9400(6) 0.6913(8) 0.539(2)
H7_2 H 0.9311 0.6574 0.5337
C8_2 C 0.9661(5) 0.7241(8) 0.3970(19)
H8_2 H 0.9727 0.7108 0.2964
C9_2 C 0.9819(5) 0.7744(7) 0.4031(19)
C10_2 C 0.9697(5) 0.7912(8) 0.5514(18)
H9_2 H 0.9799 0.8254 0.5575
C11_2 C 0.9432(5) 0.7612(7) 0.6934(18)
C12_2 C 0.9298(6) 0.7844(8) 0.8367(19)
O7_2 O 0.8527(6) 0.8338(7) 0.7526(14)
O8_2 O 0.7873(6) 0.7705(7) 0.8817(14)
Cd1_3 Cd 0.18676(5) 0.05360(3) 0.05939(11)
N1_3 N 0.4055(7) 0.2499(5) 0.0732(16)
O1_3 O 0.1443(14) 0.0682(10) 0.208(4)
H1_3 H 0.1285 0.0395 0.2580
H2_3 H 0.1249 0.0806 0.2036
H5_3 H 0.2980 0.2423 0.0196
C5_3 C 0.3645(11) 0.2526(8) 0.109(3)
H6_3 H 0.3613 0.2633 0.2205
Cd4_3 Cd 0.47991(5) 0.27973(3) 0.27394(11)
N2_3 N 0.2612(7) 0.0834(5) 0.2601(16)
O2_3 O 0.1713(6) 0.1317(4) 0.8851(15)
O3_3 O 0.2409(6) 0.1271(4) 0.9067(14)
O4_3 O 0.1473(6) 0.1662(4) 0.2474(14)
O5_3 O 0.2127(6) 0.2295(4) 0.1183(14)
C1_3 C 0.4078(8) 0.2351(6) 0.909(2)
H3_3 H 0.4360 0.2326 0.8781
C2_3 C 0.3719(8) 0.2235(6) 0.785(2)
H4_3 H 0.3761 0.2139 0.6730
C3_3 C 0.3288(7) 0.2258(5) 0.8238(18)
C4_3 C 0.3263(11) 0.2403(8) 0.986(3)
C6_3 C 0.2898(7) 0.2173(5) 0.6864(18)
C7_3 C 0.3087(8) 0.2487(6) 0.539(2)
H7_3 H 0.3426 0.2737 0.5337
C8_3 C 0.2759(8) 0.2420(6) 0.3970(19)
H8_3 H 0.2892 0.2619 0.2964
C9_3 C 0.2256(7) 0.2075(5) 0.4031(19)
C10_3 C 0.2088(8) 0.1785(6) 0.5514(18)
H9_3 H 0.1746 0.1545 0.5575
C11_3 C 0.2388(7) 0.1820(5) 0.6934(18)
C12_3 C 0.2156(8) 0.1454(6) 0.8367(19)
C13_3 C 0.1932(8) 0.2007(6) 0.249(2)
Cd3_3 Cd 0.13316(6) 0.18676(5) 0.94061(11)
O7_3 O 0.1662(7) 0.0189(4) 0.7526(14)
O8_3 O 0.2295(7) 0.0168(4) 0.8817(14)
O6_3 O 0.1317(8) 0.9604(5) 0.1149(15)
Cd1_4 Cd 0.61307(3) 0.46649(4) 0.39272(11)
N1_4 N 0.4168(5) 0.4889(5) 0.4065(16)
O1_4 O 0.5985(10) 0.4094(10) 0.541(4)
H1_4 H 0.6272 0.4223 0.5913
H2_4 H 0.5861 0.3776 0.5369
O2_4 O 0.5350(4) 0.3729(5) 0.2184(15)
O3_4 O 0.5396(4) 0.4471(4) 0.2400(14)
C1_4 C 0.4316(6) 0.5060(6) 0.242(2)
H3_4 H 0.4341 0.5367 0.2114
C2_4 C 0.4432(6) 0.4817(5) 0.118(2)
H4_4 H 0.4528 0.4955 0.0063
C3_4 C 0.4409(5) 0.4363(5) 0.1571(18)
C4_4 C 0.4264(8) 0.4193(8) 0.319(3)
H5_4 H 0.4244 0.3890 0.3529
C5_4 C 0.4141(8) 0.4452(8) 0.442(3)
H6_4 H 0.4034 0.4313 0.5538
C6_4 C 0.4494(5) 0.4058(5) 0.0197(18)
C11_4 C 0.4847(5) 0.3901(5) 0.0267(18)
C12_4 C 0.5213(6) 0.4035(6) 0.1700(19)
Cd4_4 Cd 0.38693(3) 0.53351(4) 0.60728(11)
N2_4 N 0.5832(5) 0.5111(5) 0.5935(16)
O6_4 O 0.7063(5) 0.5046(6) 0.4482(15)
O7_4 O 0.6478(4) 0.4806(6) 0.0859(14)
O8_4 O 0.6499(4) 0.5460(6) 0.2150(14)
O4_4 O 0.5005(4) 0.3144(4) 0.5807(14)
O5_4 O 0.4372(4) 0.3165(4) 0.4516(14)
C7_4 C 0.4180(6) 0.3933(6) 0.872(2)
H7_4 H 0.3930 0.4022 0.8670
C8_4 C 0.4247(6) 0.3672(5) 0.7303(19)
H8_4 H 0.4048 0.3606 0.6297
C9_4 C 0.4592(5) 0.3514(5) 0.7364(19)
C10_4 C 0.4882(6) 0.3636(5) 0.8847(18)
H9_4 H 0.5122 0.3534 0.8908
C13_4 C 0.4660(6) 0.3258(6) 0.582(2)
Cd1_5 Cd 0.53351(4) 0.14657(5) 0.39272(11)
O1_5 O 0.5906(10) 0.1890(14) 0.541(4)
H1_5 H 0.5777 0.2048 0.5913
H2_5 H 0.6224 0.2084 0.5369
O2_5 O 0.6271(5) 0.1620(6) 0.2184(15)
O3_5 O 0.5529(4) 0.0924(6) 0.2400(14)
C3_5 C 0.5637(5) 0.0045(7) 0.1571(18)
C4_5 C 0.5807(8) 0.0070(11) 0.319(3)
H5_5 H 0.6110 0.0353 0.3529
C6_5 C 0.5942(5) 0.0435(7) 0.0197(18)
C11_5 C 0.6099(5) 0.0945(7) 0.0267(18)
C12_5 C 0.5965(6) 0.1177(8) 0.1700(19)
N2_5 N 0.4889(5) 0.0722(7) 0.5935(16)
O6_5 O 0.4954(6) 0.2016(8) 0.4482(15)
O7_5 O 0.5194(6) 0.1671(7) 0.0859(14)
O8_5 O 0.4540(6) 0.1038(7) 0.2150(14)
O4_5 O 0.6856(4) 0.1860(6) 0.5807(14)
O5_5 O 0.6835(4) 0.1206(6) 0.4516(14)
C7_5 C 0.6067(6) 0.0246(8) 0.872(2)
C8_5 C 0.6328(5) 0.0574(8) 0.7303(19)
H8_5 H 0.6394 0.0441 0.6297
C9_5 C 0.6486(5) 0.1077(7) 0.7364(19)
C10_5 C 0.6364(5) 0.1245(8) 0.8847(18)
H9_5 H 0.6466 0.1587 0.8908
C13_5 C 0.6742(6) 0.1401(8) 0.582(2)
N1_5 N 0.5111(5) 0.9278(7) 0.4065(16)
C1_5 C 0.4940(6) 0.9255(8) 0.242(2)
H3_5 H 0.4633 0.8973 0.2114
C2_5 C 0.5183(5) 0.9614(8) 0.118(2)
H4_5 H 0.5045 0.9572 0.0063
C5_5 C 0.5548(8) 0.9688(11) 0.442(3)
H6_5 H 0.5687 0.9720 0.5538
Cd4_5 Cd 0.46649(4) 0.85343(5) 0.60728(11)
N1_6 N 0.0722(7) 0.5832(5) 0.4065(16)
C1_6 C 0.0745(8) 0.5684(6) 0.242(2)
H3_6 H 0.1027 0.5659 0.2114
C2_6 C 0.0386(8) 0.5568(6) 0.118(2)
H4_6 H 0.0428 0.5472 0.0063
C5_6 C 0.0312(11) 0.5859(8) 0.442(3)
H6_6 H 0.0280 0.5966 0.5538
Cd4_6 Cd 0.14657(5) 0.61307(3) 0.60728(11)
Cd1_6 Cd 0.85343(5) 0.38693(3) 0.39272(11)
O1_6 O 0.8110(14) 0.4015(10) 0.541(4)
H1_6 H 0.7952 0.3728 0.5913
H2_6 H 0.7916 0.4139 0.5369
O2_6 O 0.8380(6) 0.4650(4) 0.2184(15)
O3_6 O 0.9076(6) 0.4604(4) 0.2400(14)
C3_6 C 0.9955(7) 0.5591(5) 0.1571(18)
C4_6 C 0.9930(11) 0.5736(8) 0.319(3)
H5_6 H 0.9647 0.5756 0.3529
C6_6 C 0.9565(7) 0.5506(5) 0.0197(18)
C11_6 C 0.9055(7) 0.5153(5) 0.0267(18)
C12_6 C 0.8823(8) 0.4787(6) 0.1700(19)
N2_6 N 0.9278(7) 0.4168(5) 0.5935(16)
O6_6 O 0.7984(8) 0.2937(5) 0.4482(15)
O7_6 O 0.8329(7) 0.3522(4) 0.0859(14)
O8_6 O 0.8962(7) 0.3501(4) 0.2150(14)
O4_6 O 0.8140(6) 0.4995(4) 0.5807(14)
O5_6 O 0.8794(6) 0.5628(4) 0.4516(14)
C7_6 C 0.9754(8) 0.5820(6) 0.872(2)
C8_6 C 0.9426(8) 0.5753(6) 0.7303(19)
H8_6 H 0.9559 0.5952 0.6297
C9_6 C 0.8923(7) 0.5408(5) 0.7364(19)
C10_6 C 0.8755(8) 0.5118(6) 0.8847(18)
H9_6 H 0.8413 0.4878 0.8908
C13_6 C 0.8599(8) 0.5340(6) 0.582(2)
Cd1_7 Cd 0.27973(3) 0.79983(4) 0.72606(11)
N1_7 N 0.0834(5) 0.8223(5) 0.7399(16)
O1_7 O 0.2651(10) 0.7428(10) 0.875(4)
H1_7 H 0.2938 0.7557 0.9247
H2_7 H 0.2527 0.7110 0.8703
O2_7 O 0.2016(4) 0.7063(5) 0.5518(15)
O3_7 O 0.2062(4) 0.7805(4) 0.5734(14)
C1_7 C 0.0982(6) 0.8394(6) 0.576(2)
H3_7 H 0.1007 0.8701 0.5448
C2_7 C 0.1098(6) 0.8151(5) 0.452(2)
H4_7 H 0.1194 0.8289 0.3397
C3_7 C 0.1075(5) 0.7697(5) 0.4905(18)
C4_7 C 0.0930(8) 0.7527(8) 0.653(3)
H5_7 H 0.0910 0.7224 0.6863
C5_7 C 0.0807(8) 0.7786(8) 0.776(3)
H6_7 H 0.0700 0.7647 0.8872
C6_7 C 0.1160(5) 0.7392(5) 0.3531(18)
C7_7 C 0.0846(6) 0.7267(6) 0.206(2)
H7_5 H 0.0596 0.7356 0.2004
C8_7 C 0.0913(6) 0.7006(5) 0.0637(19)
C9_7 C 0.1258(5) 0.6848(5) 0.0698(19)
C10_7 C 0.1548(6) 0.6970(5) 0.2181(18)
H9_7 H 0.1788 0.6868 0.2242
C11_7 C 0.1513(5) 0.7235(5) 0.3601(18)
C12_7 C 0.1879(6) 0.7369(6) 0.5034(19)
N2_7 N 0.2499(5) 0.8444(5) 0.9268(16)
O6_7 O 0.3729(5) 0.8380(6) 0.7816(15)
O7_7 O 0.3144(4) 0.8140(6) 0.4193(14)
O8_7 O 0.3165(4) 0.8794(6) 0.5484(14)
O4_7 O 0.1671(4) 0.6478(4) 0.9141(14)
O5_7 O 0.1038(4) 0.6499(4) 0.7850(14)
H8_7 H 0.0714 0.6940 0.9631
C13_7 C 0.1326(6) 0.6592(6) 0.916(2)
Cd1_8 Cd 0.20017(4) 0.47991(5) 0.72606(11)
N1_8 N 0.1777(5) 0.2612(7) 0.7399(16)
O1_8 O 0.2572(10) 0.5224(14) 0.875(4)
H1_8 H 0.2443 0.5382 0.9247
H2_8 H 0.2890 0.5418 0.8703
O2_8 O 0.2937(5) 0.4954(6) 0.5518(15)
O3_8 O 0.2195(4) 0.4258(6) 0.5734(14)
C1_8 C 0.1606(6) 0.2589(8) 0.576(2)
H3_8 H 0.1299 0.2307 0.5448
C2_8 C 0.1849(5) 0.2948(8) 0.452(2)
H4_8 H 0.1711 0.2906 0.3397
C3_8 C 0.2303(5) 0.3379(7) 0.4905(18)
C4_8 C 0.2473(8) 0.3404(11) 0.653(3)
H5_8 H 0.2776 0.3687 0.6863
C5_8 C 0.2214(8) 0.3022(11) 0.776(3)
H6_8 H 0.2353 0.3054 0.8872
C6_8 C 0.2608(5) 0.3769(7) 0.3531(18)
C7_8 C 0.2733(6) 0.3580(8) 0.206(2)
H7_6 H 0.2644 0.3241 0.2004
C8_8 C 0.2994(5) 0.3908(8) 0.0637(19)
C9_8 C 0.3152(5) 0.4411(7) 0.0698(19)
C10_8 C 0.3030(5) 0.4579(8) 0.2181(18)
H9_8 H 0.3132 0.4921 0.2242
C11_8 C 0.2765(5) 0.4279(7) 0.3601(18)
C12_8 C 0.2631(6) 0.4511(8) 0.5034(19)
N2_8 N 0.1556(5) 0.4055(7) 0.9268(16)
O6_8 O 0.1620(6) 0.5350(8) 0.7816(15)
O7_8 O 0.1860(6) 0.5005(7) 0.4193(14)
O8_8 O 0.1206(6) 0.4372(7) 0.5484(14)
O4_8 O 0.3522(4) 0.5194(6) 0.9141(14)
O5_8 O 0.3501(4) 0.4540(6) 0.7850(14)
H8_8 H 0.3060 0.3775 0.9631
C13_8 C 0.3408(6) 0.4735(8) 0.916(2)
Cd1_9 Cd 0.52009(5) 0.72027(3) 0.72606(11)
N1_9 N 0.7388(7) 0.9166(5) 0.7399(16)
O1_9 O 0.4776(14) 0.7349(10) 0.875(4)
H1_9 H 0.4618 0.7062 0.9247
H2_9 H 0.4582 0.7473 0.8703
O2_9 O 0.5046(6) 0.7984(4) 0.5518(15)
O3_9 O 0.5742(6) 0.7938(4) 0.5734(14)
C1_9 C 0.7411(8) 0.9018(6) 0.576(2)
H3_9 H 0.7693 0.8993 0.5448
C2_9 C 0.7052(8) 0.8902(6) 0.452(2)
H4_9 H 0.7094 0.8806 0.3397
C3_9 C 0.6621(7) 0.8925(5) 0.4905(18)
C4_9 C 0.6596(11) 0.9070(8) 0.653(3)
H5_9 H 0.6313 0.9090 0.6863
C5_9 C 0.6978(11) 0.9193(8) 0.776(3)
H6_9 H 0.6946 0.9300 0.8872
C6_9 C 0.6231(7) 0.8840(5) 0.3531(18)
C7_9 C 0.6420(8) 0.9154(6) 0.206(2)
H7_7 H 0.6759 0.9404 0.2004
C8_9 C 0.6092(8) 0.9087(6) 0.0637(19)
C9_9 C 0.5589(7) 0.8742(5) 0.0698(19)
C10_9 C 0.5421(8) 0.8452(6) 0.2181(18)
H9_9 H 0.5079 0.8212 0.2242
C11_9 C 0.5721(7) 0.8487(5) 0.3601(18)
C12_9 C 0.5489(8) 0.8121(6) 0.5034(19)
N2_9 N 0.5945(7) 0.7501(5) 0.9268(16)
O6_9 O 0.4650(8) 0.6271(5) 0.7816(15)
O7_9 O 0.4995(7) 0.6856(4) 0.4193(14)
O8_9 O 0.5628(7) 0.6835(4) 0.5484(14)
O4_9 O 0.4806(6) 0.8329(4) 0.9141(14)
O5_9 O 0.5460(6) 0.8962(4) 0.7850(14)
H8_9 H 0.6225 0.9286 0.9631
C13_9 C 0.5265(8) 0.8674(6) 0.916(2)
C13_10 C 0.2007(6) 0.0075(6) 0.751(2)
O3_10 O 0.1271(4) 0.8862(4) 0.0933(14)
C1_10 C 0.2351(6) 0.8273(6) 0.091(2)
H3_10 H 0.2326 0.7966 0.1219
C2_10 C 0.2235(6) 0.8516(5) 0.215(2)
H4_10 H 0.2139 0.8378 0.3270
C3_10 C 0.2258(5) 0.8970(5) 0.1762(18)
C4_10 C 0.2403(8) 0.9140(8) 0.014(3)
C6_10 C 0.2173(5) 0.9275(5) 0.3136(18)
C7_10 C 0.2487(6) 0.9400(6) 0.461(2)
H7_8 H 0.2737 0.9311 0.4663
C8_10 C 0.2420(6) 0.9661(5) 0.6030(19)
H8_10 H 0.2619 0.9727 0.7036
C9_10 C 0.2075(5) 0.9819(5) 0.5969(19)
C10_10 C 0.1785(6) 0.9697(5) 0.4486(18)
H9_10 H 0.1545 0.9799 0.4425
C11_10 C 0.1820(5) 0.9432(5) 0.3066(18)
C12_10 C 0.1454(6) 0.9298(6) 0.1633(19)
O1_10 O 0.0682(10) 0.9239(10) 0.792(4)
H1_10 H 0.0395 0.9110 0.7420
H2_10 H 0.0806 0.9557 0.7964
H5_10 H 0.2423 0.9443 0.9804
C5_10 C 0.2526(8) 0.8881(8) 0.891(3)
H6_10 H 0.2633 0.9020 0.7795
O3_11 O 0.1138(4) 0.2409(6) 0.0933(14)
C1_11 C 0.1727(6) 0.4078(8) 0.091(2)
H3_11 H 0.2034 0.4360 0.1219
C2_11 C 0.1484(5) 0.3719(8) 0.215(2)
H4_11 H 0.1622 0.3761 0.3270
C3_11 C 0.1030(5) 0.3288(7) 0.1762(18)
C4_11 C 0.0860(8) 0.3263(11) 0.014(3)
C6_11 C 0.0725(5) 0.2898(7) 0.3136(18)
C7_11 C 0.0600(6) 0.3087(8) 0.461(2)
H7_9 H 0.0689 0.3426 0.4663
C8_11 C 0.0339(5) 0.2759(8) 0.6030(19)
H8_11 H 0.0273 0.2892 0.7036
C9_11 C 0.0181(5) 0.2256(7) 0.5969(19)
C10_11 C 0.0303(5) 0.2088(8) 0.4486(18)
H9_11 H 0.0201 0.1746 0.4425
C11_11 C 0.0568(5) 0.2388(7) 0.3066(18)
C12_11 C 0.0702(6) 0.2156(8) 0.1633(19)
O1_11 O 0.0761(10) 0.1443(14) 0.792(4)
H1_11 H 0.0890 0.1285 0.7420
H2_11 H 0.0443 0.1249 0.7964
H5_11 H 0.0557 0.2980 0.9804
C5_11 C 0.1119(8) 0.3645(11) 0.891(3)
H6_11 H 0.0980 0.3613 0.7795
C13_11 C 0.9925(6) 0.1932(8) 0.751(2)
O3_12 O 0.7591(6) 0.8729(4) 0.0933(14)
C1_12 C 0.5922(8) 0.7649(6) 0.091(2)
H3_12 H 0.5640 0.7674 0.1219
C2_12 C 0.6281(8) 0.7765(6) 0.215(2)
H4_12 H 0.6239 0.7861 0.3270
C3_12 C 0.6712(7) 0.7742(5) 0.1762(18)
C4_12 C 0.6737(11) 0.7597(8) 0.014(3)
C6_12 C 0.7102(7) 0.7827(5) 0.3136(18)
C7_12 C 0.6913(8) 0.7513(6) 0.461(2)
H7_10 H 0.6574 0.7263 0.4663
C8_12 C 0.7241(8) 0.7580(6) 0.6030(19)
H8_12 H 0.7108 0.7381 0.7036
C9_12 C 0.7744(7) 0.7925(5) 0.5969(19)
C10_12 C 0.7912(8) 0.8215(6) 0.4486(18)
H9_12 H 0.8254 0.8455 0.4425
C11_12 C 0.7612(7) 0.8180(5) 0.3066(18)
C12_12 C 0.7844(8) 0.8546(6) 0.1633(19)
C13_12 C 0.8068(8) 0.7993(6) 0.751(2)
O1_12 O 0.8557(14) 0.9318(10) 0.792(4)
H1_12 H 0.8715 0.9605 0.7420
H2_12 H 0.8751 0.9194 0.7964
H5_12 H 0.7020 0.7577 0.9804
C5_12 C 0.6355(11) 0.7474(8) 0.891(3)
H6_12 H 0.6387 0.7367 0.7795
C7_13 C 0.5820(6) 0.6067(6) 0.128(2)
H7_11 H 0.6070 0.5978 0.1330
C8_13 C 0.5753(6) 0.6328(5) 0.2697(19)
H8_13 H 0.5952 0.6394 0.3703
C9_13 C 0.5408(5) 0.6486(5) 0.2636(19)
C10_13 C 0.5118(6) 0.6364(5) 0.1153(18)
H9_13 H 0.4878 0.6466 0.1092
C13_13 C 0.5340(6) 0.6742(6) 0.418(2)
O1_13 O 0.4015(10) 0.5906(10) 0.459(4)
H1_13 H 0.3728 0.5777 0.4087
H2_13 H 0.4139 0.6224 0.4631
O3_13 O 0.4604(4) 0.5529(4) 0.7600(14)
C1_13 C 0.5684(6) 0.4940(6) 0.758(2)
H3_13 H 0.5659 0.4633 0.7886
C2_13 C 0.5568(6) 0.5183(5) 0.882(2)
H4_13 H 0.5472 0.5045 0.9937
C3_13 C 0.5591(5) 0.5637(5) 0.8429(18)
C4_13 C 0.5736(8) 0.5807(8) 0.681(3)
H5_13 H 0.5756 0.6110 0.6471
C5_13 C 0.5859(8) 0.5548(8) 0.558(3)
H6_13 H 0.5966 0.5687 0.4462
C6_13 C 0.5506(5) 0.5942(5) 0.9803(18)
C11_13 C 0.5153(5) 0.6099(5) 0.9733(18)
C12_13 C 0.4787(6) 0.5965(6) 0.8300(19)
C1_14 C 0.5060(6) 0.0745(8) 0.758(2)
H3_14 H 0.5367 0.1027 0.7886
C2_14 C 0.4817(5) 0.0386(8) 0.882(2)
H4_14 H 0.4955 0.0428 0.9937
C5_14 C 0.4452(8) 0.0312(11) 0.558(3)
H6_14 H 0.4313 0.0280 0.4462
C7_14 C 0.3933(6) 0.9754(8) 0.128(2)
C8_14 C 0.3672(5) 0.9426(8) 0.2697(19)
H8_14 H 0.3606 0.9559 0.3703
C9_14 C 0.3514(5) 0.8923(7) 0.2636(19)
C10_14 C 0.3636(5) 0.8755(8) 0.1153(18)
H9_14 H 0.3534 0.8413 0.1092
C13_14 C 0.3258(6) 0.8599(8) 0.418(2)
O1_14 O 0.4094(10) 0.8110(14) 0.459(4)
H1_14 H 0.4223 0.7952 0.4087
H2_14 H 0.3776 0.7916 0.4631
O3_14 O 0.4471(4) 0.9076(6) 0.7600(14)
C3_14 C 0.4363(5) 0.9955(7) 0.8429(18)
C4_14 C 0.4193(8) 0.9930(11) 0.681(3)
H5_14 H 0.3890 0.9647 0.6471
C6_14 C 0.4058(5) 0.9565(7) 0.9803(18)
C11_14 C 0.3901(5) 0.9055(7) 0.9733(18)
C12_14 C 0.4035(6) 0.8823(8) 0.8300(19)
C7_15 C 0.0246(8) 0.4180(6) 0.128(2)
C8_15 C 0.0574(8) 0.4247(6) 0.2697(19)
H8_15 H 0.0441 0.4048 0.3703
C9_15 C 0.1077(7) 0.4592(5) 0.2636(19)
C10_15 C 0.1245(8) 0.4882(6) 0.1153(18)
H9_15 H 0.1587 0.5122 0.1092
C13_15 C 0.1401(8) 0.4660(6) 0.418(2)
O1_15 O 0.1890(14) 0.5985(10) 0.459(4)
H1_15 H 0.2048 0.6272 0.4087
H2_15 H 0.2084 0.5861 0.4631
O3_15 O 0.0924(6) 0.5396(4) 0.7600(14)
C3_15 C 0.0045(7) 0.4409(5) 0.8429(18)
C4_15 C 0.0070(11) 0.4264(8) 0.681(3)
H5_15 H 0.0353 0.4244 0.6471
C6_15 C 0.0435(7) 0.4494(5) 0.9803(18)
C11_15 C 0.0945(7) 0.4847(5) 0.9733(18)
C12_15 C 0.1177(8) 0.5213(6) 0.8300(19)
C1_15 C 0.9255(8) 0.4316(6) 0.758(2)
H3_15 H 0.8973 0.4341 0.7886
C2_15 C 0.9614(8) 0.4432(6) 0.882(2)
H4_15 H 0.9572 0.4528 0.9937
C5_15 C 0.9688(11) 0.4141(8) 0.558(3)
H6_15 H 0.9720 0.4034 0.4462
H8_16 H 0.9286 0.3060 0.0369
C13_16 C 0.8674(6) 0.3408(6) 0.084(2)
O1_16 O 0.7349(10) 0.2572(10) 0.125(4)
H1_16 H 0.7062 0.2443 0.0753
H2_16 H 0.7473 0.2890 0.1297
O3_16 O 0.7938(4) 0.2195(4) 0.4266(14)
C1_16 C 0.9018(6) 0.1606(6) 0.424(2)
H3_16 H 0.8993 0.1299 0.4552
C2_16 C 0.8902(6) 0.1849(5) 0.548(2)
H4_16 H 0.8806 0.1711 0.6603
C3_16 C 0.8925(5) 0.2303(5) 0.5095(18)
C4_16 C 0.9070(8) 0.2473(8) 0.347(3)
H5_16 H 0.9090 0.2776 0.3137
C5_16 C 0.9193(8) 0.2214(8) 0.224(3)
H6_16 H 0.9300 0.2353 0.1128
C6_16 C 0.8840(5) 0.2608(5) 0.6469(18)
C7_16 C 0.9154(6) 0.2733(6) 0.794(2)
H7_12 H 0.9404 0.2644 0.7996
C8_16 C 0.9087(6) 0.2994(5) 0.9363(19)
C9_16 C 0.8742(5) 0.3152(5) 0.9302(19)
C10_16 C 0.8452(6) 0.3030(5) 0.7819(18)
H9_16 H 0.8212 0.3132 0.7758
C11_16 C 0.8487(5) 0.2765(5) 0.6399(18)
C12_16 C 0.8121(6) 0.2631(6) 0.4966(19)
H8_17 H 0.6940 0.6225 0.0369
C13_17 C 0.6592(6) 0.5265(8) 0.084(2)
O1_17 O 0.7428(10) 0.4776(14) 0.125(4)
H1_17 H 0.7557 0.4618 0.0753
H2_17 H 0.7110 0.4582 0.1297
O3_17 O 0.7805(4) 0.5742(6) 0.4266(14)
C1_17 C 0.8394(6) 0.7411(8) 0.424(2)
H3_17 H 0.8701 0.7693 0.4552
C2_17 C 0.8151(5) 0.7052(8) 0.548(2)
H4_17 H 0.8289 0.7094 0.6603
C3_17 C 0.7697(5) 0.6621(7) 0.5095(18)
C4_17 C 0.7527(8) 0.6596(11) 0.347(3)
H5_17 H 0.7224 0.6313 0.3137
C5_17 C 0.7786(8) 0.6978(11) 0.224(3)
H6_17 H 0.7647 0.6946 0.1128
C6_17 C 0.7392(5) 0.6231(7) 0.6469(18)
C7_17 C 0.7267(6) 0.6420(8) 0.794(2)
H7_13 H 0.7356 0.6759 0.7996
C8_17 C 0.7006(5) 0.6092(8) 0.9363(19)
C9_17 C 0.6848(5) 0.5589(7) 0.9302(19)
C10_17 C 0.6970(5) 0.5421(8) 0.7819(18)
H9_17 H 0.6868 0.5079 0.7758
C11_17 C 0.7235(5) 0.5721(7) 0.6399(18)
C12_17 C 0.7369(6) 0.5489(8) 0.4966(19)
H8_18 H 0.3775 0.0714 0.0369
C13_18 C 0.4735(8) 0.1326(6) 0.084(2)
O1_18 O 0.5224(14) 0.2651(10) 0.125(4)
H1_18 H 0.5382 0.2938 0.0753
H2_18 H 0.5418 0.2527 0.1297
O3_18 O 0.4258(6) 0.2062(4) 0.4266(14)
C1_18 C 0.2589(8) 0.0982(6) 0.424(2)
H3_18 H 0.2307 0.1007 0.4552
C2_18 C 0.2948(8) 0.1098(6) 0.548(2)
H4_18 H 0.2906 0.1194 0.6603
C3_18 C 0.3379(7) 0.1075(5) 0.5095(18)
C4_18 C 0.3404(11) 0.0930(8) 0.347(3)
H5_18 H 0.3687 0.0910 0.3137
C5_18 C 0.3022(11) 0.0807(8) 0.224(3)
H6_18 H 0.3054 0.0700 0.1128
C6_18 C 0.3769(7) 0.1160(5) 0.6469(18)
C7_18 C 0.3580(8) 0.0846(6) 0.794(2)
H7_14 H 0.3241 0.0596 0.7996
C8_18 C 0.3908(8) 0.0913(6) 0.9363(19)
C9_18 C 0.4411(7) 0.1258(5) 0.9302(19)
C10_18 C 0.4579(8) 0.1548(6) 0.7819(18)
H9_18 H 0.4921 0.1788 0.7758
C11_18 C 0.4279(7) 0.1513(5) 0.6399(18)
C12_18 C 0.4511(8) 0.1879(6) 0.4966(19)
H7_15 H 0.5978 0.9907 0.8670
H7_16 H 0.0093 0.6070 0.8670
H7_17 H 0.4022 0.0093 0.1330
H7_18 H 0.9907 0.3930 0.1330
loop_
_geom_bond_atom_site_label_1
_geom_bond_atom_site_label_2
_geom_bond_site_symmetry_1
_geom_bond_site_symmetry_2
Cd1 O1 1_555 1_555
O1 H1 1_555 1_555
H2 O1 1_555 1_555
C5 N1 1_555 1_555
H6 C5 1_555 1_555
Cd4 N1 1_555 1_555
N2 Cd1 1_555 1_555
O2 C12 1_555 1_555
C1 H3 1_555 1_555
C2 C1 1_555 1_555
H4 C2 1_555 1_555
C3 C2 1_555 1_555
C4 C3 1_555 1_555
C6 C3 1_555 1_555
C7 C6 1_555 1_555
H7 C7 1_555 1_555
C8 C7 1_555 1_555
H8 C8 1_555 1_555
C9 C8 1_555 1_555
C10 C9 1_555 1_555
H9 C10 1_555 1_555
C11 C6 1_555 1_555
C12 O3 1_555 1_555
C10 C11 1_555 1_555
C11 C12 1_555 1_555
O4 C13 1_555 1_555
O5 C13 1_555 1_555
O4_2 C13_2 1_555 1_555
O5_2 C13_2 1_555 1_555
Cd1_2 O1_2 1_555 1_555
O1_2 H1_2 1_555 1_555
H2_2 O1_2 1_555 1_555
C5_2 N1_2 1_555 1_555
H6_2 C5_2 1_555 1_555
Cd4_2 N1_2 1_555 1_555
N2_2 Cd1_2 1_555 1_555
O6_2 Cd1_2 1_555 1_555
O2_2 C12_2 1_555 1_555
C1_2 H3_2 1_555 1_555
C2_2 C1_2 1_555 1_555
H4_2 C2_2 1_555 1_555
C3_2 C2_2 1_555 1_555
C4_2 C3_2 1_555 1_555
C6_2 C3_2 1_555 1_555
C7_2 C6_2 1_555 1_555
H7_2 C7_2 1_555 1_555
C8_2 C7_2 1_555 1_555
H8_2 C8_2 1_555 1_555
C9_2 C8_2 1_555 1_555
C10_2 C9_2 1_555 1_555
H9_2 C10_2 1_555 1_555
C11_2 C6_2 1_555 1_555
C12_2 O3_2 1_555 1_555
C10_2 C11_2 1_555 1_555
C11_2 C12_2 1_555 1_555
Cd1_3 O1_3 1_555 1_555
O1_3 H1_3 1_555 1_555
H2_3 O1_3 1_555 1_555
C5_3 N1_3 1_555 1_555
H6_3 C5_3 1_555 1_555
Cd4_3 N1_3 1_555 1_555
N2_3 Cd1_3 1_555 1_555
O2_3 C12_3 1_555 1_555
O4_3 C13_3 1_555 1_555
O5_3 C13_3 1_555 1_555
C1_3 H3_3 1_555 1_555
C2_3 C1_3 1_555 1_555
H4_3 C2_3 1_555 1_555
C3_3 C2_3 1_555 1_555
C4_3 C3_3 1_555 1_555
C6_3 C3_3 1_555 1_555
C7_3 C6_3 1_555 1_555
H7_3 C7_3 1_555 1_555
C8_3 C7_3 1_555 1_555
H8_3 C8_3 1_555 1_555
C9_3 C8_3 1_555 1_555
C10_3 C9_3 1_555 1_555
H9_3 C10_3 1_555 1_555
C11_3 C6_3 1_555 1_555
C12_3 O3_3 1_555 1_555
C13_3 C9_3 1_555 1_555
Cd3_3 O2_3 1_555 1_555
C10_3 C11_3 1_555 1_555
C11_3 C12_3 1_555 1_555
Cd1_4 O1_4 1_555 1_555
N1_4 C1_4 1_555 1_555
O1_4 H1_4 1_555 1_555
H2_4 O1_4 1_555 1_555
O2_4 C12_4 1_555 1_555
O3_4 Cd1_4 1_555 1_555
C1_4 H3_4 1_555 1_555
C2_4 C1_4 1_555 1_555
H4_4 C2_4 1_555 1_555
C3_4 C2_4 1_555 1_555
C4_4 C3_4 1_555 1_555
H5_4 C4_4 1_555 1_555
C5_4 N1_4 1_555 1_555
H6_4 C5_4 1_555 1_555
C6_4 C3_4 1_555 1_555
C11_4 C6_4 1_555 1_555
C12_4 O3_4 1_555 1_555
Cd4_3 O2_4 1_555 1_555
Cd4_4 N1_4 1_555 1_555
N2_4 Cd1_4 1_555 1_555
O6_4 Cd1_4 1_555 1_555
O7_4 Cd1_4 1_555 1_555
O8_4 Cd1_4 1_555 1_555
C4_4 C5_4 1_555 1_555
C11_4 C12_4 1_555 1_555
O4_4 C13_4 1_555 1_555
O5_4 C13_4 1_555 1_555
H7_4 C7_4 1_555 1_555
C8_4 C7_4 1_555 1_555
H8_4 C8_4 1_555 1_555
C9_4 C8_4 1_555 1_555
C10_4 C9_4 1_555 1_555
H9_4 C10_4 1_555 1_555
C13_4 C9_4 1_555 1_555
Cd4_3 O4_4 1_555 1_555
O5_4 Cd4_3 1_555 1_555
Cd1_5 O1_5 1_555 1_555
O1_5 H1_5 1_555 1_555
H2_5 O1_5 1_555 1_555
O2_5 C12_5 1_555 1_555
O3_5 Cd1_5 1_555 1_555
C4_5 C3_5 1_555 1_555
H5_5 C4_5 1_555 1_555
C6_5 C3_5 1_555 1_555
C11_5 C6_5 1_555 1_555
C12_5 O3_5 1_555 1_555
Cd4 O2_5 1_555 1_555
N2_5 Cd1_5 1_555 1_555
O6_5 Cd1_5 1_555 1_555
O7_5 Cd1_5 1_555 1_555
O8_5 Cd1_5 1_555 1_555
C11_5 C12_5 1_555 1_555
O4_5 C13_5 1_555 1_555
O5_5 C13_5 1_555 1_555
C8_5 C7_5 1_555 1_555
H8_5 C8_5 1_555 1_555
C9_5 C8_5 1_555 1_555
C10_5 C9_5 1_555 1_555
H9_5 C10_5 1_555 1_555
C13_5 C9_5 1_555 1_555
Cd4 O4_5 1_555 1_555
O5_5 Cd4 1_555 1_555
N1_5 C1_5 1_555 1_555
C1_5 H3_5 1_555 1_555
C2_5 C1_5 1_555 1_555
H4_5 C2_5 1_555 1_555
C5_5 N1_5 1_555 1_555
H6_5 C5_5 1_555 1_555
Cd4_5 N1_5 1_555 1_555
N1_6 C1_6 1_555 1_555
C1_6 H3_6 1_555 1_555
C2_6 C1_6 1_555 1_555
H4_6 C2_6 1_555 1_555
C5_6 N1_6 1_555 1_555
H6_6 C5_6 1_555 1_555
Cd4_6 N1_6 1_555 1_555
Cd1_6 O1_6 1_555 1_555
O1_6 H1_6 1_555 1_555
H2_6 O1_6 1_555 1_555
O2_6 C12_6 1_555 1_555
O3_6 Cd1_6 1_555 1_555
C4_6 C3_6 1_555 1_555
H5_6 C4_6 1_555 1_555
C6_6 C3_6 1_555 1_555
C11_6 C6_6 1_555 1_555
C12_6 O3_6 1_555 1_555
Cd4_2 O2_6 1_555 1_555
N2_6 Cd1_6 1_555 1_555
O6_6 Cd1_6 1_555 1_555
O7_6 Cd1_6 1_555 1_555
O8_6 Cd1_6 1_555 1_555
C11_6 C12_6 1_555 1_555
O4_6 C13_6 1_555 1_555
O5_6 C13_6 1_555 1_555
C8_6 C7_6 1_555 1_555
H8_6 C8_6 1_555 1_555
C9_6 C8_6 1_555 1_555
C10_6 C9_6 1_555 1_555
H9_6 C10_6 1_555 1_555
C13_6 C9_6 1_555 1_555
Cd4_2 O4_6 1_555 1_555
O5_6 Cd4_2 1_555 1_555
Cd1_7 O1_7 1_555 1_555
N1_7 C1_7 1_555 1_555
O1_7 H1_7 1_555 1_555
H2_7 O1_7 1_555 1_555
O2_7 C12_7 1_555 1_555
O3_7 Cd1_7 1_555 1_555
C1_7 H3_7 1_555 1_555
C2_7 C1_7 1_555 1_555
H4_7 C2_7 1_555 1_555
C3_7 C2_7 1_555 1_555
C4_7 C3_7 1_555 1_555
H5_7 C4_7 1_555 1_555
C5_7 N1_7 1_555 1_555
H6_7 C5_7 1_555 1_555
C6_7 C3_7 1_555 1_555
C7_7 C6_7 1_555 1_555
H7_5 C7_7 1_555 1_555
C8_7 C7_7 1_555 1_555
C9_7 C8_7 1_555 1_555
C10_7 C9_7 1_555 1_555
H9_7 C10_7 1_555 1_555
C11_7 C6_7 1_555 1_555
C12_7 O3_7 1_555 1_555
Cd4_6 O2_7 1_555 1_555
Cd3_2 N1_7 1_555 1_555
N2_7 Cd1_7 1_555 1_555
O6_7 Cd1_7 1_555 1_555
O7_7 Cd1_7 1_555 1_555
O8_7 Cd1_7 1_555 1_555
C4_7 C5_7 1_555 1_555
C10_7 C11_7 1_555 1_555
C11_7 C12_7 1_555 1_555
O4_7 C13_7 1_555 1_555
O5_7 C13_7 1_555 1_555
Cd4_6 O4_7 1_555 1_555
O5_7 Cd4_6 1_555 1_555
Cd1_8 O1_8 1_555 1_555
N1_8 C1_8 1_555 1_555
O1_8 H1_8 1_555 1_555
H2_8 O1_8 1_555 1_555
O2_8 C12_8 1_555 1_555
O3_8 Cd1_8 1_555 1_555
C1_8 H3_8 1_555 1_555
C2_8 C1_8 1_555 1_555
H4_8 C2_8 1_555 1_555
C3_8 C2_8 1_555 1_555
C4_8 C3_8 1_555 1_555
H5_8 C4_8 1_555 1_555
C5_8 N1_8 1_555 1_555
H6_8 C5_8 1_555 1_555
C6_8 C3_8 1_555 1_555
C7_8 C6_8 1_555 1_555
H7_6 C7_8 1_555 1_555
C8_8 C7_8 1_555 1_555
C9_8 C8_8 1_555 1_555
C10_8 C9_8 1_555 1_555
H9_8 C10_8 1_555 1_555
C11_8 C6_8 1_555 1_555
C12_8 O3_8 1_555 1_555
Cd4_4 O2_8 1_555 1_555
Cd3_3 N1_8 1_555 1_555
N2_8 Cd1_8 1_555 1_555
O6_8 Cd1_8 1_555 1_555
O7_8 Cd1_8 1_555 1_555
O8_8 Cd1_8 1_555 1_555
C4_8 C5_8 1_555 1_555
C10_8 C11_8 1_555 1_555
C11_8 C12_8 1_555 1_555
O4_8 C13_8 1_555 1_555
O5_8 C13_8 1_555 1_555
Cd4_4 O4_8 1_555 1_555
O5_8 Cd4_4 1_555 1_555
Cd1_9 O1_9 1_555 1_555
N1_9 C1_9 1_555 1_555
O1_9 H1_9 1_555 1_555
H2_9 O1_9 1_555 1_555
O2_9 C12_9 1_555 1_555
O3_9 Cd1_9 1_555 1_555
C1_9 H3_9 1_555 1_555
C2_9 C1_9 1_555 1_555
H4_9 C2_9 1_555 1_555
C3_9 C2_9 1_555 1_555
C4_9 C3_9 1_555 1_555
H5_9 C4_9 1_555 1_555
C5_9 N1_9 1_555 1_555
H6_9 C5_9 1_555 1_555
C6_9 C3_9 1_555 1_555
C7_9 C6_9 1_555 1_555
H7_7 C7_9 1_555 1_555
C8_9 C7_9 1_555 1_555
C9_9 C8_9 1_555 1_555
C10_9 C9_9 1_555 1_555
H9_9 C10_9 1_555 1_555
C11_9 C6_9 1_555 1_555
C12_9 O3_9 1_555 1_555
Cd4_5 O2_9 1_555 1_555
Cd3 N1_9 1_555 1_555
N2_9 Cd1_9 1_555 1_555
O6_9 Cd1_9 1_555 1_555
O7_9 Cd1_9 1_555 1_555
O8_9 Cd1_9 1_555 1_555
C4_9 C5_9 1_555 1_555
C10_9 C11_9 1_555 1_555
C11_9 C12_9 1_555 1_555
O4_9 C13_9 1_555 1_555
O5_9 C13_9 1_555 1_555
Cd4_5 O4_9 1_555 1_555
O5_9 Cd4_5 1_555 1_555
O7_3 C13_10 1_555 1_555
O8_3 C13_10 1_555 1_555
O6_3 C12_10 1_555 1_555
C1_10 H3_10 1_555 1_555
C2_10 C1_10 1_555 1_555
H4_10 C2_10 1_555 1_555
C3_10 C2_10 1_555 1_555
C4_10 C3_10 1_555 1_555
C6_10 C3_10 1_555 1_555
C7_10 C6_10 1_555 1_555
H7_8 C7_10 1_555 1_555
C8_10 C7_10 1_555 1_555
H8_10 C8_10 1_555 1_555
C9_10 C8_10 1_555 1_555
C10_10 C9_10 1_555 1_555
H9_10 C10_10 1_555 1_555
C11_10 C6_10 1_555 1_555
C12_10 O3_10 1_555 1_555
C10_10 C11_10 1_555 1_555
C11_10 C12_10 1_555 1_555
Cd3_2 O1_10 1_555 1_555
O1_10 H1_10 1_555 1_555
H2_10 O1_10 1_555 1_555
C5_10 N2_7 1_555 1_555
H6_10 C5_10 1_555 1_555
O6 C12_11 1_555 1_555
C1_11 H3_11 1_555 1_555
C2_11 C1_11 1_555 1_555
H4_11 C2_11 1_555 1_555
C3_11 C2_11 1_555 1_555
C4_11 C3_11 1_555 1_555
C6_11 C3_11 1_555 1_555
C7_11 C6_11 1_555 1_555
H7_9 C7_11 1_555 1_555
C8_11 C7_11 1_555 1_555
H8_11 C8_11 1_555 1_555
C9_11 C8_11 1_555 1_555
C10_11 C9_11 1_555 1_555
H9_11 C10_11 1_555 1_555
C11_11 C6_11 1_555 1_555
C12_11 O3_11 1_555 1_555
C10_11 C11_11 1_555 1_555
C11_11 C12_11 1_555 1_555
Cd3_3 O1_11 1_555 1_555
O1_11 H1_11 1_555 1_555
H2_11 O1_11 1_555 1_555
C5_11 N2_8 1_555 1_555
H6_11 C5_11 1_555 1_555
O7 C13_11 1_555 1_555
O8 C13_11 1_555 1_555
O6_2 C12_12 1_555 1_555
O7_2 C13_12 1_555 1_555
O8_2 C13_12 1_555 1_555
C1_12 H3_12 1_555 1_555
C2_12 C1_12 1_555 1_555
H4_12 C2_12 1_555 1_555
C3_12 C2_12 1_555 1_555
C4_12 C3_12 1_555 1_555
C6_12 C3_12 1_555 1_555
C7_12 C6_12 1_555 1_555
H7_10 C7_12 1_555 1_555
C8_12 C7_12 1_555 1_555
H8_12 C8_12 1_555 1_555
C9_12 C8_12 1_555 1_555
C10_12 C9_12 1_555 1_555
H9_12 C10_12 1_555 1_555
C11_12 C6_12 1_555 1_555
C12_12 O3_12 1_555 1_555
C13_12 C9_12 1_555 1_555
C10_12 C11_12 1_555 1_555
C11_12 C12_12 1_555 1_555
Cd3 O1_12 1_555 1_555
O1_12 H1_12 1_555 1_555
H2_12 O1_12 1_555 1_555
C5_12 N2_9 1_555 1_555
H6_12 C5_12 1_555 1_555
O7_9 C13_13 1_555 1_555
O8_9 C13_13 1_555 1_555
H7_11 C7_13 1_555 1_555
C8_13 C7_13 1_555 1_555
H8_13 C8_13 1_555 1_555
C9_13 C8_13 1_555 1_555
C10_13 C9_13 1_555 1_555
H9_13 C10_13 1_555 1_555
C13_13 C9_13 1_555 1_555
Cd4_4 O1_13 1_555 1_555
N2_4 C1_13 1_555 1_555
O1_13 H1_13 1_555 1_555
H2_13 O1_13 1_555 1_555
O6_9 C12_13 1_555 1_555
O3_13 Cd4_4 1_555 1_555
C1_13 H3_13 1_555 1_555
C2_13 C1_13 1_555 1_555
H4_13 C2_13 1_555 1_555
C3_13 C2_13 1_555 1_555
C4_13 C3_13 1_555 1_555
H5_13 C4_13 1_555 1_555
C5_13 N2_4 1_555 1_555
H6_13 C5_13 1_555 1_555
C6_13 C3_13 1_555 1_555
C11_13 C6_13 1_555 1_555
C12_13 O3_13 1_555 1_555
C4_13 C5_13 1_555 1_555
C11_13 C12_13 1_555 1_555
N2_5 C1_14 1_555 1_555
C1_14 H3_14 1_555 1_555
C2_14 C1_14 1_555 1_555
H4_14 C2_14 1_555 1_555
C5_14 N2_5 1_555 1_555
H6_14 C5_14 1_555 1_555
O7_7 C13_14 1_555 1_555
O8_7 C13_14 1_555 1_555
C8_14 C7_14 1_555 1_555
H8_14 C8_14 1_555 1_555
C9_14 C8_14 1_555 1_555
C10_14 C9_14 1_555 1_555
H9_14 C10_14 1_555 1_555
C13_14 C9_14 1_555 1_555
Cd4_5 O1_14 1_555 1_555
O1_14 H1_14 1_555 1_555
H2_14 O1_14 1_555 1_555
O6_7 C12_14 1_555 1_555
O3_14 Cd4_5 1_555 1_555
C4_14 C3_14 1_555 1_555
H5_14 C4_14 1_555 1_555
C6_14 C3_14 1_555 1_555
C11_14 C6_14 1_555 1_555
C12_14 O3_14 1_555 1_555
C11_14 C12_14 1_555 1_555
O7_8 C13_15 1_555 1_555
O8_8 C13_15 1_555 1_555
C8_15 C7_15 1_555 1_555
H8_15 C8_15 1_555 1_555
C9_15 C8_15 1_555 1_555
C10_15 C9_15 1_555 1_555
H9_15 C10_15 1_555 1_555
C13_15 C9_15 1_555 1_555
Cd4_6 O1_15 1_555 1_555
O1_15 H1_15 1_555 1_555
H2_15 O1_15 1_555 1_555
O6_8 C12_15 1_555 1_555
O3_15 Cd4_6 1_555 1_555
C4_15 C3_15 1_555 1_555
H5_15 C4_15 1_555 1_555
C6_15 C3_15 1_555 1_555
C11_15 C6_15 1_555 1_555
C12_15 O3_15 1_555 1_555
C11_15 C12_15 1_555 1_555
N2_6 C1_15 1_555 1_555
C1_15 H3_15 1_555 1_555
C2_15 C1_15 1_555 1_555
H4_15 C2_15 1_555 1_555
C5_15 N2_6 1_555 1_555
H6_15 C5_15 1_555 1_555
O7_6 C13_16 1_555 1_555
O8_6 C13_16 1_555 1_555
Cd4 O1_16 1_555 1_555
N2 C1_16 1_555 1_555
O1_16 H1_16 1_555 1_555
H2_16 O1_16 1_555 1_555
O6_6 C12_16 1_555 1_555
O3_16 Cd4 1_555 1_555
C1_16 H3_16 1_555 1_555
C2_16 C1_16 1_555 1_555
H4_16 C2_16 1_555 1_555
C3_16 C2_16 1_555 1_555
C4_16 C3_16 1_555 1_555
H5_16 C4_16 1_555 1_555
C5_16 N2 1_555 1_555
H6_16 C5_16 1_555 1_555
C6_16 C3_16 1_555 1_555
C7_16 C6_16 1_555 1_555
H7_12 C7_16 1_555 1_555
C8_16 C7_16 1_555 1_555
C9_16 C8_16 1_555 1_555
C10_16 C9_16 1_555 1_555
H9_16 C10_16 1_555 1_555
C11_16 C6_16 1_555 1_555
C12_16 O3_16 1_555 1_555
C4_16 C5_16 1_555 1_555
C10_16 C11_16 1_555 1_555
C11_16 C12_16 1_555 1_555
O7_4 C13_17 1_555 1_555
O8_4 C13_17 1_555 1_555
Cd4_2 O1_17 1_555 1_555
N2_2 C1_17 1_555 1_555
O1_17 H1_17 1_555 1_555
H2_17 O1_17 1_555 1_555
O6_4 C12_17 1_555 1_555
O3_17 Cd4_2 1_555 1_555
C1_17 H3_17 1_555 1_555
C2_17 C1_17 1_555 1_555
H4_17 C2_17 1_555 1_555
C3_17 C2_17 1_555 1_555
C4_17 C3_17 1_555 1_555
H5_17 C4_17 1_555 1_555
C5_17 N2_2 1_555 1_555
H6_17 C5_17 1_555 1_555
C6_17 C3_17 1_555 1_555
C7_17 C6_17 1_555 1_555
H7_13 C7_17 1_555 1_555
C8_17 C7_17 1_555 1_555
C9_17 C8_17 1_555 1_555
C10_17 C9_17 1_555 1_555
H9_17 C10_17 1_555 1_555
C11_17 C6_17 1_555 1_555
C12_17 O3_17 1_555 1_555
C4_17 C5_17 1_555 1_555
C10_17 C11_17 1_555 1_555
C11_17 C12_17 1_555 1_555
O7_5 C13_18 1_555 1_555
O8_5 C13_18 1_555 1_555
Cd4_3 O1_18 1_555 1_555
N2_3 C1_18 1_555 1_555
O1_18 H1_18 1_555 1_555
H2_18 O1_18 1_555 1_555
O6_5 C12_18 1_555 1_555
O3_18 Cd4_3 1_555 1_555
C1_18 H3_18 1_555 1_555
C2_18 C1_18 1_555 1_555
H4_18 C2_18 1_555 1_555
C3_18 C2_18 1_555 1_555
C4_18 C3_18 1_555 1_555
H5_18 C4_18 1_555 1_555
C5_18 N2_3 1_555 1_555
H6_18 C5_18 1_555 1_555
C6_18 C3_18 1_555 1_555
C7_18 C6_18 1_555 1_555
H7_14 C7_18 1_555 1_555
C8_18 C7_18 1_555 1_555
C9_18 C8_18 1_555 1_555
C10_18 C9_18 1_555 1_555
H9_18 C10_18 1_555 1_555
C11_18 C6_18 1_555 1_555
C12_18 O3_18 1_555 1_555
C4_18 C5_18 1_555 1_555
C10_18 C11_18 1_555 1_555
C11_18 C12_18 1_555 1_555

#END
