
###############################################################################
#
# This file contains modified crystal structure data generated from the
# MOF subset of the Cambridge Structural Database (CSD) v543 
# hosted by the Cambridge Crystallographic Data Centre (CCDC).
#
# This work is licensed under the Creative Commons
# Attribution-NonCommercial-ShareAlike 4.0 International License.
# To view a copy of this license, visit
# http://creativecommons.org/licenses/by-nc-sa/4.0/
# or send a letter to
# Creative Commons, PO Box 1866, Mountain View, CA 94042, USA.
#
# CIF created using the CSD Python API on 29 September 2022
# The structure has been converted into the P1 space group
# The structure has a 3D framework
# The original CSD entry VOSTUU is in the orthorhombic crystal system
# The framework has been calculated to contain at least 10.0% void space
# The void calculation uses a probe of radius 1.32A, grid spacing 0.4
#
###############################################################################

data_VOSTUU
_chemical_formula_moiety         '(C232 H160 Co4 N36 O24)n'
_symmetry_cell_setting           triclinic
_symmetry_space_group_name_H-M   'P 1'
_symmetry_Int_Tables_number      1
_space_group_name_Hall           'P 1'
loop_
_symmetry_equiv_pos_site_id
_symmetry_equiv_pos_as_xyz
1 x,y,z
_cell_length_a                   20.7677(15)
_cell_length_b                   11.7553(9)
_cell_length_c                   28.509(2)
_cell_angle_alpha                90
_cell_angle_beta                 90
_cell_angle_gamma                90
_cell_volume                     6959.92
loop_
_atom_site_label
_atom_site_type_symbol
_atom_site_fract_x
_atom_site_fract_y
_atom_site_fract_z
O6 O 0.01830(8) 0.57589(13) 0.7500
O3 O 0.74358(7) 0.03489(12) 0.7500
H6 H 0.7033 0.3365 0.0085
C12 C 0.51745(11) 0.2500 0.0000
C15 C 0.38345(11) 0.2500 0.0000
C16 C 0.31170(11) 0.2500 0.0000
C17 C 0.27817(7) 0.27053(13) 0.04129(5)
H11 H 0.3006 0.2839 0.0690
H12 H 0.1888 0.2857 0.0688
C18 C 0.21127(7) 0.27110(13) 0.04137(5)
C19 C 0.17756(12) 0.2500 0.0000
N2 N 0.58873(9) 0.2500 0.0000
N3 N 0.10831(9) 0.2500 0.0000
C34 C 0.79719(6) 0.01846(12) 0.14688(5)
H23 H 0.8170 0.0843 0.1360
C36 C 0.69676(7) 0.05825(13) 0.09649(5)
C37 C 0.72211(7) 0.08329(13) 0.05250(5)
H25 H 0.7629 0.0575 0.0443
C38 C 0.68652(7) 0.14659(13) 0.02097(5)
C39 C 0.62522(8) 0.18521(14) 0.03341(6)
C40 C 0.59991(7) 0.15987(12) 0.07745(5)
H27 H 0.5589 0.1850 0.0856
C41 C 0.63577(7) 0.09739(13) 0.10896(5)
H28 H 0.6193 0.0814 0.1386
C42 C 0.48408(7) 0.34326(12) 0.01787(5)
H29 H 0.5064 0.4045 0.0306
C43 C 0.41704(7) 0.34411(13) 0.01653(5)
H30 H 0.3946 0.4080 0.0267
C46 C 0.07328(8) 0.32252(14) 0.03464(5)
C47 C 0.01847(7) 0.28055(14) 0.05720(5)
H33 H 0.0042 0.2069 0.0514
C49 C 0.00584(7) 0.45993(13) 0.09673(5)
C50 C 0.06024(7) 0.50143(14) 0.07437(5)
H35 H 0.0742 0.5753 0.0802
C51 C 0.09398(8) 0.43255(12) 0.04318(6)
H36 H 0.1304 0.4604 0.0281
H39 H 0.0374 0.6585 0.1362
C1 C 0.73777(7) 0.67835(13) 0.82101(5)
H1 H 0.7182 0.7445 0.8102
C2 C 0.70597(7) 0.60903(13) 0.85276(5)
H2 H 0.6650 0.6283 0.8633
C3 C 0.73579(7) 0.51023(13) 0.86881(5)
C4 C 0.79719(6) 0.48154(12) 0.85312(5)
H3 H 0.8170 0.4157 0.8640
C5 C 0.82863(8) 0.55058(13) 0.82142(5)
H4 H 0.8696 0.5313 0.8109
C6 C 0.69676(7) 0.44175(13) 0.90351(5)
C7 C 0.72211(7) 0.41671(13) 0.94750(5)
H5 H 0.7629 0.4425 0.9557
C8 C 0.68652(7) 0.35341(13) 0.97903(5)
C9 C 0.62522(8) 0.31479(14) 0.96659(6)
C10 C 0.59991(7) 0.34013(12) 0.92255(5)
H7 H 0.5589 0.3150 0.9144
C11 C 0.63577(7) 0.40261(13) 0.89104(5)
H8 H 0.6193 0.4186 0.8614
C12_2 C 0.51745(11) 0.2500 1.0000
C13 C 0.48408(7) 0.15674(12) 0.98213(5)
H9 H 0.5064 0.0955 0.9694
C14 C 0.41704(7) 0.15589(13) 0.98347(5)
H10 H 0.3946 0.0920 0.9733
C15_2 C 0.38345(11) 0.2500 1.0000
C16_2 C 0.31170(11) 0.2500 1.0000
C19_2 C 0.17756(12) 0.2500 1.0000
C20 C 0.07328(8) 0.17748(14) 0.96536(5)
C21 C 0.01847(7) 0.21945(14) 0.94280(5)
H13 H 0.0042 0.2931 0.9486
C23 C 0.00584(7) 0.04007(13) 0.90327(5)
C25 C 0.09398(8) 0.06745(12) 0.95682(6)
H16 H 0.1304 0.0396 0.9719
Co1 Co 0.848071(14) 0.74539(2) 0.7500
N1 N 0.79894(6) 0.64903(12) 0.80530(5)
N2_2 N 0.58873(9) 0.2500 1.0000
N3_2 N 0.10831(9) 0.2500 1.0000
N5 N 0.73157(9) 0.93298(15) 0.7500
N6 N 0.96078(10) 0.54962(17) 0.7500
O1 O 0.77609(7) 0.86111(13) 0.7500
O2 O 0.67449(7) 0.90229(13) 0.7500
O4 O 0.91762(8) 0.62461(13) 0.7500
O5 O 0.94867(7) 0.44579(14) 0.7500
H26 H 0.7033 0.1635 0.9915
C44 C 0.27817(7) 0.22947(13) 0.95871(5)
H31 H 0.3006 0.2161 0.9310
H32 H 0.1888 0.2143 0.9312
C45 C 0.21127(7) 0.22890(13) 0.95863(5)
N9 N 0.79894(6) 0.64903(12) 0.69470(5)
N10 N 0.90687(6) 0.83436(11) 0.80210(4)
N11 N 0.90687(6) 0.83436(11) 0.69790(4)
C26 C 0.87956(8) 0.93505(12) 0.81830(5)
H17 H 0.8402 0.9607 0.8068
C27 C 0.91334(7) 0.99648(13) 0.85246(5)
C28 C 0.97172(7) 0.96335(14) 0.86965(5)
C29 C 0.99739(8) 0.86496(12) 0.85272(5)
C30 C 0.96599(7) 0.79806(14) 0.81950(5)
H20 H 0.9842 0.7303 0.8091
O5_2 O 0.94867(7) 0.05421(14) 0.2500
C1_2 C 0.73777(7) 0.67835(13) 0.67899(5)
H1_2 H 0.7182 0.7445 0.6898
C2_2 C 0.70597(7) 0.60903(13) 0.64724(5)
H2_2 H 0.6650 0.6283 0.6367
C3_2 C 0.73579(7) 0.51023(13) 0.63119(5)
C4_2 C 0.79719(6) 0.48154(12) 0.64688(5)
H3_2 H 0.8170 0.4157 0.6360
C5_2 C 0.82863(8) 0.55058(13) 0.67858(5)
H4_2 H 0.8696 0.5313 0.6891
C6_2 C 0.69676(7) 0.44175(13) 0.59649(5)
C7_2 C 0.72211(7) 0.41671(13) 0.55250(5)
H5_2 H 0.7629 0.4425 0.5443
C8_2 C 0.68652(7) 0.35341(13) 0.52097(5)
H6_2 H 0.7033 0.3365 0.4915
C9_2 C 0.62522(8) 0.31479(14) 0.53341(6)
C10_2 C 0.59991(7) 0.34013(12) 0.57745(5)
H7_2 H 0.5589 0.3150 0.5856
C11_2 C 0.63577(7) 0.40261(13) 0.60896(5)
H8_2 H 0.6193 0.4186 0.6386
C12_3 C 0.51745(11) 0.2500 0.5000
C13_2 C 0.48408(7) 0.15674(12) 0.51787(5)
H9_2 H 0.5064 0.0955 0.5306
C14_2 C 0.41704(7) 0.15589(13) 0.51653(5)
H10_2 H 0.3946 0.0920 0.5267
C15_3 C 0.38345(11) 0.2500 0.5000
C16_3 C 0.31170(11) 0.2500 0.5000
C17_2 C 0.27817(7) 0.27053(13) 0.45871(5)
H11_2 H 0.3006 0.2839 0.4310
H12_2 H 0.1888 0.2857 0.4312
C18_2 C 0.21127(7) 0.27110(13) 0.45863(5)
C19_3 C 0.17756(12) 0.2500 0.5000
C20_2 C 0.07328(8) 0.17748(14) 0.53464(5)
C21_2 C 0.01847(7) 0.21945(14) 0.55720(5)
H13_2 H 0.0042 0.2931 0.5514
C23_2 C 0.00584(7) 0.04007(13) 0.59673(5)
C25_2 C 0.09398(8) 0.06745(12) 0.54318(6)
H16_2 H 0.1304 0.0396 0.5281
N2_3 N 0.58873(9) 0.2500 0.5000
N3_3 N 0.10831(9) 0.2500 0.5000
C34_2 C 0.79719(6) 0.01846(12) 0.35312(5)
H23_2 H 0.8170 0.0843 0.3640
C36_2 C 0.69676(7) 0.05825(13) 0.40351(5)
C37_2 C 0.72211(7) 0.08329(13) 0.44750(5)
H25_2 H 0.7629 0.0575 0.4557
C38_2 C 0.68652(7) 0.14659(13) 0.47903(5)
H26_2 H 0.7033 0.1635 0.5085
C39_2 C 0.62522(8) 0.18521(14) 0.46659(6)
C40_2 C 0.59991(7) 0.15987(12) 0.42255(5)
H27_2 H 0.5589 0.1850 0.4144
C41_2 C 0.63577(7) 0.09739(13) 0.39104(5)
H28_2 H 0.6193 0.0814 0.3614
C42_2 C 0.48408(7) 0.34326(12) 0.48213(5)
H29_2 H 0.5064 0.4045 0.4694
C43_2 C 0.41704(7) 0.34411(13) 0.48347(5)
H30_2 H 0.3946 0.4080 0.4733
C44_2 C 0.27817(7) 0.22947(13) 0.54129(5)
H31_2 H 0.3006 0.2161 0.5690
H32_2 H 0.1888 0.2143 0.5688
C45_2 C 0.21127(7) 0.22890(13) 0.54137(5)
C46_2 C 0.07328(8) 0.32252(14) 0.46536(5)
C47_2 C 0.01847(7) 0.28055(14) 0.44280(5)
H33_2 H 0.0042 0.2069 0.4486
C49_2 C 0.00584(7) 0.45993(13) 0.40327(5)
C50_2 C 0.06024(7) 0.50143(14) 0.42563(5)
H35_2 H 0.0742 0.5753 0.4198
C51_2 C 0.09398(8) 0.43255(12) 0.45682(6)
H36_2 H 0.1304 0.4604 0.4719
H39_2 H 0.0374 0.6585 0.3638
C26_2 C 0.87956(8) 0.93505(12) 0.68170(5)
H17_2 H 0.8402 0.9607 0.6932
C27_2 C 0.91334(7) 0.99648(13) 0.64754(5)
C28_2 C 0.97172(7) 0.96335(14) 0.63035(5)
C29_2 C 0.99739(8) 0.86496(12) 0.64728(5)
C30_2 C 0.96599(7) 0.79806(14) 0.68050(5)
H20_2 H 0.9842 0.7303 0.6909
C31 C 0.73777(7) 0.82165(13) 0.17899(5)
H21 H 0.7182 0.7555 0.1898
C32 C 0.70597(7) 0.89097(13) 0.14724(5)
H22 H 0.6650 0.8717 0.1367
C33 C 0.73579(7) 0.98977(13) 0.13119(5)
C35 C 0.82863(8) 0.94942(13) 0.17858(5)
H24 H 0.8696 0.9687 0.1891
N7 N 0.79894(6) 0.85097(12) 0.19470(5)
Co4 Co 0.848071(14) 0.75461(2) 0.2500
C48 C 0.98618(8) 0.34937(13) 0.08794(5)
H34 H 0.9501 0.3212 0.1033
C52 C 0.87956(8) 0.56495(12) 0.18170(5)
H37 H 0.8402 0.5393 0.1932
C53 C 0.91334(7) 0.50352(13) 0.14754(5)
H38 H 0.8951 0.4369 0.1360
C54 C 0.97172(7) 0.53665(14) 0.13035(5)
C55 C 0.99739(8) 0.63504(12) 0.14728(5)
C56 C 0.96599(7) 0.70194(14) 0.18050(5)
H40 H 0.9842 0.7697 0.1909
N8 N 0.90687(6) 0.66564(11) 0.19790(4)
N5_2 N 0.73157(9) 0.56702(15) 0.2500
N6_2 N 0.96078(10) 0.95038(17) 0.2500
O1_2 O 0.77609(7) 0.63889(13) 0.2500
O2_2 O 0.67449(7) 0.59771(13) 0.2500
O3_2 O 0.74358(7) 0.46511(12) 0.2500
O4_2 O 0.91762(8) 0.87539(13) 0.2500
N9_2 N 0.79894(6) 0.85097(12) 0.30530(5)
N11_2 N 0.90687(6) 0.66564(11) 0.30210(4)
C24 C 0.06024(7) 0.99857(14) 0.57437(5)
H15 H 0.0742 0.9247 0.5802
H19 H 0.0374 0.8415 0.6362
C31_2 C 0.73777(7) 0.82165(13) 0.32101(5)
H21_2 H 0.7182 0.7555 0.3102
C32_2 C 0.70597(7) 0.89097(13) 0.35276(5)
H22_2 H 0.6650 0.8717 0.3633
C33_2 C 0.73579(7) 0.98977(13) 0.36881(5)
C35_2 C 0.82863(8) 0.94942(13) 0.32142(5)
H24_2 H 0.8696 0.9687 0.3109
C22 C 0.98618(8) 0.15063(13) 0.58794(5)
H14 H 0.9501 0.1788 0.6033
H18 H 0.8951 0.0631 0.6360
C48_2 C 0.98618(8) 0.34937(13) 0.41206(5)
H34_2 H 0.9501 0.3212 0.3967
C52_2 C 0.87956(8) 0.56495(12) 0.31830(5)
H37_2 H 0.8402 0.5393 0.3068
C53_2 C 0.91334(7) 0.50352(13) 0.35246(5)
H38_2 H 0.8951 0.4369 0.3640
C54_2 C 0.97172(7) 0.53665(14) 0.36965(5)
C55_2 C 0.99739(8) 0.63504(12) 0.35272(5)
C56_2 C 0.96599(7) 0.70194(14) 0.31950(5)
H40_2 H 0.9842 0.7697 0.3091
C24_2 C 0.06024(7) 0.99857(14) 0.92563(5)
H15_2 H 0.0742 0.9247 0.9198
H19_2 H 0.0374 0.8415 0.8638
C22_2 C 0.98618(8) 0.15063(13) 0.91206(5)
H14_2 H 0.9501 0.1788 0.8967
H18_2 H 0.8951 0.0631 0.8640
C26_3 C 0.12044(8) 0.06495(12) 0.31830(5)
H17_3 H 0.1598 0.0393 0.3068
C27_3 C 0.08666(7) 0.00352(13) 0.35246(5)
C28_3 C 0.02828(7) 0.03665(14) 0.36965(5)
C29_3 C 0.00261(8) 0.13504(12) 0.35272(5)
C30_3 C 0.03401(7) 0.20194(14) 0.31950(5)
H20_3 H 0.0158 0.2697 0.3091
N4 N 0.09313(6) 0.16564(11) 0.30210(4)
Co2 Co 0.151929(14) 0.25461(2) 0.2500
C1_3 C 0.26223(7) 0.32165(13) 0.32101(5)
H1_3 H 0.2818 0.2555 0.3102
C2_3 C 0.29403(7) 0.39097(13) 0.35276(5)
H2_3 H 0.3350 0.3717 0.3633
C3_3 C 0.26421(7) 0.48977(13) 0.36881(5)
C4_3 C 0.20281(6) 0.51846(12) 0.35312(5)
H3_3 H 0.1830 0.5843 0.3640
C5_3 C 0.17137(8) 0.44942(13) 0.32142(5)
H4_3 H 0.1304 0.4687 0.3109
C6_3 C 0.30324(7) 0.55825(13) 0.40351(5)
C7_3 C 0.27789(7) 0.58329(13) 0.44750(5)
H5_3 H 0.2371 0.5575 0.4557
C8_3 C 0.31348(7) 0.64659(13) 0.47903(5)
H6_3 H 0.2967 0.6635 0.5085
C9_3 C 0.37478(8) 0.68521(14) 0.46659(6)
C10_3 C 0.40009(7) 0.65987(12) 0.42255(5)
H7_3 H 0.4411 0.6850 0.4144
C11_3 C 0.36423(7) 0.59739(13) 0.39104(5)
H8_3 H 0.3807 0.5814 0.3614
C12_4 C 0.48255(11) 0.7500 0.5000
C13_3 C 0.51592(7) 0.84326(12) 0.48213(5)
H9_3 H 0.4936 0.9045 0.4694
C14_3 C 0.58296(7) 0.84411(13) 0.48347(5)
H10_3 H 0.6054 0.9080 0.4733
C15_4 C 0.61655(11) 0.7500 0.5000
C16_4 C 0.68830(11) 0.7500 0.5000
C17_3 C 0.72183(7) 0.72947(13) 0.54129(5)
H11_3 H 0.6994 0.7161 0.5690
H12_3 H 0.8112 0.7143 0.5688
C18_3 C 0.78873(7) 0.72890(13) 0.54137(5)
C19_4 C 0.82244(12) 0.7500 0.5000
C20_3 C 0.92672(8) 0.82252(14) 0.46536(5)
C21_3 C 0.98153(7) 0.78055(14) 0.44280(5)
H13_3 H 0.9958 0.7069 0.4486
C23_3 C 0.99416(7) 0.95993(13) 0.40327(5)
C25_3 C 0.90602(8) 0.93255(12) 0.45682(6)
H16_3 H 0.8696 0.9604 0.4719
N1_2 N 0.20106(6) 0.35097(12) 0.30530(5)
N2_4 N 0.41127(9) 0.7500 0.5000
N3_4 N 0.89169(9) 0.7500 0.5000
N5_3 N 0.26843(9) 0.06702(15) 0.2500
N6_3 N 0.03922(10) 0.45038(17) 0.2500
O1_3 O 0.22391(7) 0.13889(13) 0.2500
O2_3 O 0.32551(7) 0.09771(13) 0.2500
O4_3 O 0.08238(8) 0.37539(13) 0.2500
O5_3 O 0.05133(7) 0.55421(14) 0.2500
C34_3 C 0.20281(6) 0.98154(12) 0.64688(5)
H23_3 H 0.1830 0.9157 0.6360
C36_3 C 0.30324(7) 0.94175(13) 0.59649(5)
C37_3 C 0.27789(7) 0.91671(13) 0.55250(5)
H25_3 H 0.2371 0.9425 0.5443
C38_3 C 0.31348(7) 0.85341(13) 0.52097(5)
H26_3 H 0.2967 0.8365 0.4915
C39_3 C 0.37478(8) 0.81479(14) 0.53341(6)
C40_3 C 0.40009(7) 0.84013(12) 0.57745(5)
H27_3 H 0.4411 0.8150 0.5856
C41_3 C 0.36423(7) 0.90261(13) 0.60896(5)
H28_3 H 0.3807 0.9186 0.6386
C42_3 C 0.51592(7) 0.65674(12) 0.51787(5)
H29_3 H 0.4936 0.5955 0.5306
C43_3 C 0.58296(7) 0.65589(13) 0.51653(5)
H30_3 H 0.6054 0.5920 0.5267
C44_3 C 0.72183(7) 0.77053(13) 0.45871(5)
H31_3 H 0.6994 0.7839 0.4310
H32_3 H 0.8112 0.7857 0.4312
C45_3 C 0.78873(7) 0.77110(13) 0.45863(5)
C46_3 C 0.92672(8) 0.67748(14) 0.53464(5)
C47_3 C 0.98153(7) 0.71945(14) 0.55720(5)
H33_3 H 0.9958 0.7931 0.5514
C49_3 C 0.99416(7) 0.54007(13) 0.59673(5)
C50_3 C 0.93976(7) 0.49857(14) 0.57437(5)
H35_3 H 0.9258 0.4247 0.5802
C51_3 C 0.90602(8) 0.56745(12) 0.54318(6)
H36_3 H 0.8696 0.5396 0.5281
H39_3 H 0.9626 0.3415 0.6362
N9_3 N 0.20106(6) 0.35097(12) 0.19470(5)
N11_3 N 0.09313(6) 0.16564(11) 0.19790(4)
O5_4 O 0.05133(7) 0.94579(14) 0.7500
C26_4 C 0.12044(8) 0.06495(12) 0.18170(5)
H17_4 H 0.1598 0.0393 0.1932
C27_4 C 0.08666(7) 0.00352(13) 0.14754(5)
C28_4 C 0.02828(7) 0.03665(14) 0.13035(5)
C29_4 C 0.00261(8) 0.13504(12) 0.14728(5)
C30_4 C 0.03401(7) 0.20194(14) 0.18050(5)
H20_4 H 0.0158 0.2697 0.1909
C1_4 C 0.26223(7) 0.32165(13) 0.17899(5)
H1_4 H 0.2818 0.2555 0.1898
C2_4 C 0.29403(7) 0.39097(13) 0.14724(5)
H2_4 H 0.3350 0.3717 0.1367
C3_4 C 0.26421(7) 0.48977(13) 0.13119(5)
C4_4 C 0.20281(6) 0.51846(12) 0.14688(5)
H3_4 H 0.1830 0.5843 0.1360
C5_4 C 0.17137(8) 0.44942(13) 0.17858(5)
H4_4 H 0.1304 0.4687 0.1891
C6_4 C 0.30324(7) 0.55825(13) 0.09649(5)
C7_4 C 0.27789(7) 0.58329(13) 0.05250(5)
H5_4 H 0.2371 0.5575 0.0443
C8_4 C 0.31348(7) 0.64659(13) 0.02097(5)
C9_4 C 0.37478(8) 0.68521(14) 0.03341(6)
C10_4 C 0.40009(7) 0.65987(12) 0.07745(5)
H7_4 H 0.4411 0.6850 0.0856
C11_4 C 0.36423(7) 0.59739(13) 0.10896(5)
H8_4 H 0.3807 0.5814 0.1386
C12_5 C 0.48255(11) 0.7500 -0.0000
C13_4 C 0.51592(7) 0.84326(12) 0.01787(5)
H9_4 H 0.4936 0.9045 0.0306
C14_4 C 0.58296(7) 0.84411(13) 0.01653(5)
H10_4 H 0.6054 0.9080 0.0267
C15_5 C 0.61655(11) 0.7500 -0.0000
C16_5 C 0.68830(11) 0.7500 -0.0000
C19_5 C 0.82244(12) 0.7500 -0.0000
C20_4 C 0.92672(8) 0.82252(14) 0.03464(5)
C21_4 C 0.98153(7) 0.78055(14) 0.05720(5)
H13_4 H 0.9958 0.7069 0.0514
C23_4 C 0.99416(7) 0.95993(13) 0.09673(5)
C25_4 C 0.90602(8) 0.93255(12) 0.04318(6)
H16_4 H 0.8696 0.9604 0.0281
N2_5 N 0.41127(9) 0.7500 -0.0000
N3_5 N 0.89169(9) 0.7500 -0.0000
H26_4 H 0.2967 0.8365 0.0085
C44_4 C 0.72183(7) 0.77053(13) 0.04129(5)
H31_4 H 0.6994 0.7839 0.0690
H32_4 H 0.8112 0.7857 0.0688
C45_4 C 0.78873(7) 0.77110(13) 0.04137(5)
H6_4 H 0.2967 0.6635 0.9915
C12_6 C 0.48255(11) 0.7500 1.0000
C15_6 C 0.61655(11) 0.7500 1.0000
C16_6 C 0.68830(11) 0.7500 1.0000
C17_4 C 0.72183(7) 0.72947(13) 0.95871(5)
H11_4 H 0.6994 0.7161 0.9310
H12_4 H 0.8112 0.7143 0.9312
C18_4 C 0.78873(7) 0.72890(13) 0.95863(5)
C19_6 C 0.82244(12) 0.7500 1.0000
N2_6 N 0.41127(9) 0.7500 1.0000
N3_6 N 0.89169(9) 0.7500 1.0000
C34_4 C 0.20281(6) 0.98154(12) 0.85312(5)
H23_4 H 0.1830 0.9157 0.8640
C36_4 C 0.30324(7) 0.94175(13) 0.90351(5)
C37_4 C 0.27789(7) 0.91671(13) 0.94750(5)
H25_4 H 0.2371 0.9425 0.9557
C38_4 C 0.31348(7) 0.85341(13) 0.97903(5)
C39_4 C 0.37478(8) 0.81479(14) 0.96659(6)
C40_4 C 0.40009(7) 0.84013(12) 0.92255(5)
H27_4 H 0.4411 0.8150 0.9144
C41_4 C 0.36423(7) 0.90261(13) 0.89104(5)
H28_4 H 0.3807 0.9186 0.8614
C42_4 C 0.51592(7) 0.65674(12) 0.98213(5)
H29_4 H 0.4936 0.5955 0.9694
C43_4 C 0.58296(7) 0.65589(13) 0.98347(5)
H30_4 H 0.6054 0.5920 0.9733
C46_4 C 0.92672(8) 0.67748(14) 0.96536(5)
C47_4 C 0.98153(7) 0.71945(14) 0.94280(5)
H33_4 H 0.9958 0.7931 0.9486
C49_4 C 0.99416(7) 0.54007(13) 0.90327(5)
C50_4 C 0.93976(7) 0.49857(14) 0.92563(5)
H35_4 H 0.9258 0.4247 0.9198
C51_4 C 0.90602(8) 0.56745(12) 0.95682(6)
H36_4 H 0.8696 0.5396 0.9719
H39_4 H 0.9626 0.3415 0.8638
C22_3 C 0.01382(8) 0.84937(13) 0.41206(5)
H14_3 H 0.0499 0.8212 0.3967
H18_3 H 0.1049 0.9369 0.3640
C48_3 C 0.01382(8) 0.65063(13) 0.58794(5)
H34_3 H 0.0499 0.6788 0.6033
C52_3 C 0.12044(8) 0.43505(12) 0.68170(5)
H37_3 H 0.1598 0.4607 0.6932
C53_3 C 0.08666(7) 0.49648(13) 0.64754(5)
H38_3 H 0.1049 0.5631 0.6360
C54_3 C 0.02828(7) 0.46335(14) 0.63035(5)
C55_3 C 0.00261(8) 0.36496(12) 0.64728(5)
C56_3 C 0.03401(7) 0.29806(14) 0.68050(5)
H40_3 H 0.0158 0.2303 0.6909
N8_2 N 0.09313(6) 0.33436(11) 0.69790(4)
Co3 Co 0.151929(14) 0.24539(2) 0.7500
C24_3 C 0.93976(7) 0.00143(14) 0.42563(5)
H15_3 H 0.9258 0.0753 0.4198
H19_3 H 0.9626 0.1585 0.3638
C31_3 C 0.26223(7) 0.17835(13) 0.67899(5)
H21_3 H 0.2818 0.2445 0.6898
C32_3 C 0.29403(7) 0.10903(13) 0.64724(5)
H22_3 H 0.3350 0.1283 0.6367
C33_3 C 0.26421(7) 0.01023(13) 0.63119(5)
C35_3 C 0.17137(8) 0.05058(13) 0.67858(5)
H24_3 H 0.1304 0.0313 0.6891
N7_2 N 0.20106(6) 0.14903(12) 0.69470(5)
N5_4 N 0.26843(9) 0.43298(15) 0.7500
N6_4 N 0.03922(10) 0.04962(17) 0.7500
O1_4 O 0.22391(7) 0.36111(13) 0.7500
O2_4 O 0.32551(7) 0.40229(13) 0.7500
O3_3 O 0.25642(7) 0.53489(12) 0.7500
O4_4 O 0.08238(8) 0.12461(13) 0.7500
N9_4 N 0.20106(6) 0.14903(12) 0.80530(5)
N11_4 N 0.09313(6) 0.33436(11) 0.80210(4)
C48_4 C 0.01382(8) 0.65063(13) 0.91206(5)
H34_4 H 0.0499 0.6788 0.8967
C52_4 C 0.12044(8) 0.43505(12) 0.81830(5)
H37_4 H 0.1598 0.4607 0.8068
C53_4 C 0.08666(7) 0.49648(13) 0.85246(5)
H38_4 H 0.1049 0.5631 0.8640
C54_4 C 0.02828(7) 0.46335(14) 0.86965(5)
C55_4 C 0.00261(8) 0.36496(12) 0.85272(5)
C56_4 C 0.03401(7) 0.29806(14) 0.81950(5)
H40_4 H 0.0158 0.2303 0.8091
C31_4 C 0.26223(7) 0.17835(13) 0.82101(5)
H21_4 H 0.2818 0.2445 0.8102
C32_4 C 0.29403(7) 0.10903(13) 0.85276(5)
H22_4 H 0.3350 0.1283 0.8633
C33_4 C 0.26421(7) 0.01023(13) 0.86881(5)
C35_4 C 0.17137(8) 0.05058(13) 0.82142(5)
H24_4 H 0.1304 0.0313 0.8109
O3_4 O 0.25642(7) 0.96511(12) 0.2500
O6_2 O 0.98170(8) 0.42411(13) 0.2500
O6_3 O 0.01830(8) 0.92411(13) 0.2500
O6_4 O 0.98170(8) 0.07589(13) 0.7500
C22_4 C 0.01382(8) 0.84937(13) 0.08794(5)
H14_4 H 0.0499 0.8212 0.1033
H18_4 H 0.1049 0.9369 0.1360
C24_4 C 0.93976(7) 0.00143(14) 0.07437(5)
H15_4 H 0.9258 0.0753 0.0802
H19_4 H 0.9626 0.1585 0.1362
loop_
_geom_bond_atom_site_label_1
_geom_bond_atom_site_label_2
_geom_bond_site_symmetry_1
_geom_bond_site_symmetry_2
C16 C15 1_555 1_555
C17 C16 1_555 1_555
H11 C17 1_555 1_555
H12 C18 1_555 1_555
C18 C17 1_555 1_555
C19 C18 1_555 1_555
N3 C19 1_555 1_555
H23 C34 1_555 1_555
C37 C36 1_555 1_555
H25 C37 1_555 1_555
C38 C37 1_555 1_555
C39 N2 1_555 1_555
C40 C39 1_555 1_555
H27 C40 1_555 1_555
C41 C36 1_555 1_555
H28 C41 1_555 1_555
C42 C12 1_555 1_555
H29 C42 1_555 1_555
C43 C15 1_555 1_555
H30 C43 1_555 1_555
C46 N3 1_555 1_555
C47 C46 1_555 1_555
H33 C47 1_555 1_555
C50 C49 1_555 1_555
H35 C50 1_555 1_555
C51 C46 1_555 1_555
H36 C51 1_555 1_555
C12 N2 1_555 1_555
C38 C39 1_555 1_555
C40 C41 1_555 1_555
C42 C43 1_555 1_555
C50 C51 1_555 1_555
C1 H1 1_555 1_555
C2 C1 1_555 1_555
H2 C2 1_555 1_555
C3 C2 1_555 1_555
C4 C3 1_555 1_555
H3 C4 1_555 1_555
C5 C4 1_555 1_555
H4 C5 1_555 1_555
C6 C3 1_555 1_555
C7 C6 1_555 1_555
H5 C7 1_555 1_555
C8 C7 1_555 1_555
C9 C8 1_555 1_555
C10 C9 1_555 1_555
H7 C10 1_555 1_555
C11 C6 1_555 1_555
H8 C11 1_555 1_555
C12_2 C13 1_555 1_555
C13 H9 1_555 1_555
C14 C13 1_555 1_555
H10 C14 1_555 1_555
C15_2 C14 1_555 1_555
C16_2 C15_2 1_555 1_555
C20 C21 1_555 1_555
C21 H13 1_555 1_555
C25 C20 1_555 1_555
H16 C25 1_555 1_555
Co1 N1 1_555 1_555
N1 C1 1_555 1_555
N2_2 C9 1_555 1_555
N3_2 C19_2 1_555 1_555
N5 O1 1_555 1_555
N6 O4 1_555 1_555
O1 Co1 1_555 1_555
O2 N5 1_555 1_555
O4 Co1 1_555 1_555
O5 N6 1_555 1_555
C44 C16_2 1_555 1_555
H31 C44 1_555 1_555
H32 C45 1_555 1_555
C45 C19_2 1_555 1_555
N9 Co1 1_555 1_555
N10 Co1 1_555 1_555
N11 Co1 1_555 1_555
C5 N1 1_555 1_555
C10 C11 1_555 1_555
C12_2 N2_2 1_555 1_555
C20 N3_2 1_555 1_555
C44 C45 1_555 1_555
C26 H17 1_555 1_555
C27 C26 1_555 1_555
C29 C28 1_555 1_555
C30 C29 1_555 1_555
H20 C30 1_555 1_555
N10 C26 1_555 1_555
C27 C28 1_555 1_555
C30 N10 1_555 1_555
C1_2 H1_2 1_555 1_555
C2_2 C1_2 1_555 1_555
H2_2 C2_2 1_555 1_555
C3_2 C2_2 1_555 1_555
C4_2 C3_2 1_555 1_555
H3_2 C4_2 1_555 1_555
C5_2 C4_2 1_555 1_555
H4_2 C5_2 1_555 1_555
C6_2 C3_2 1_555 1_555
C7_2 C6_2 1_555 1_555
H5_2 C7_2 1_555 1_555
C8_2 C7_2 1_555 1_555
H6_2 C8_2 1_555 1_555
C9_2 C8_2 1_555 1_555
C10_2 C9_2 1_555 1_555
H7_2 C10_2 1_555 1_555
C11_2 C6_2 1_555 1_555
H8_2 C11_2 1_555 1_555
C12_3 C13_2 1_555 1_555
C13_2 H9_2 1_555 1_555
C14_2 C13_2 1_555 1_555
H10_2 C14_2 1_555 1_555
C15_3 C14_2 1_555 1_555
C16_3 C15_3 1_555 1_555
C17_2 C16_3 1_555 1_555
H11_2 C17_2 1_555 1_555
H12_2 C18_2 1_555 1_555
C18_2 C17_2 1_555 1_555
C19_3 C18_2 1_555 1_555
C20_2 C21_2 1_555 1_555
C21_2 H13_2 1_555 1_555
C25_2 C20_2 1_555 1_555
H16_2 C25_2 1_555 1_555
N9 C1_2 1_555 1_555
N2_3 C9_2 1_555 1_555
N3_3 C19_3 1_555 1_555
H23_2 C34_2 1_555 1_555
C37_2 C36_2 1_555 1_555
H25_2 C37_2 1_555 1_555
C38_2 C37_2 1_555 1_555
H26_2 C38_2 1_555 1_555
C39_2 N2_3 1_555 1_555
C40_2 C39_2 1_555 1_555
H27_2 C40_2 1_555 1_555
C41_2 C36_2 1_555 1_555
H28_2 C41_2 1_555 1_555
C42_2 C12_3 1_555 1_555
H29_2 C42_2 1_555 1_555
C43_2 C15_3 1_555 1_555
H30_2 C43_2 1_555 1_555
C44_2 C16_3 1_555 1_555
H31_2 C44_2 1_555 1_555
H32_2 C45_2 1_555 1_555
C45_2 C19_3 1_555 1_555
C46_2 N3_3 1_555 1_555
C47_2 C46_2 1_555 1_555
H33_2 C47_2 1_555 1_555
C50_2 C49_2 1_555 1_555
H35_2 C50_2 1_555 1_555
C51_2 C46_2 1_555 1_555
H36_2 C51_2 1_555 1_555
C5_2 N9 1_555 1_555
C10_2 C11_2 1_555 1_555
C12_3 N2_3 1_555 1_555
C20_2 N3_3 1_555 1_555
C38_2 C39_2 1_555 1_555
C40_2 C41_2 1_555 1_555
C42_2 C43_2 1_555 1_555
C44_2 C45_2 1_555 1_555
C50_2 C51_2 1_555 1_555
C26_2 H17_2 1_555 1_555
C27_2 C26_2 1_555 1_555
C29_2 C28_2 1_555 1_555
C30_2 C29_2 1_555 1_555
H20_2 C30_2 1_555 1_555
N11 C26_2 1_555 1_555
C27_2 C28_2 1_555 1_555
C30_2 N11 1_555 1_555
C31 H21 1_555 1_555
C32 C31 1_555 1_555
H22 C32 1_555 1_555
C33 C32 1_555 1_555
H24 C35 1_555 1_555
N7 C31 1_555 1_555
Co4 N7 1_555 1_555
C35 N7 1_555 1_555
H34 C48 1_555 1_555
C52 H37 1_555 1_555
C53 C52 1_555 1_555
H38 C53 1_555 1_555
C55 C54 1_555 1_555
C56 C55 1_555 1_555
H40 C56 1_555 1_555
N8 C52 1_555 1_555
Co4 N8 1_555 1_555
C53 C54 1_555 1_555
C56 N8 1_555 1_555
N5_2 O1_2 1_555 1_555
N6_2 O4_2 1_555 1_555
O1_2 Co4 1_555 1_555
O2_2 N5_2 1_555 1_555
O3_2 N5_2 1_555 1_555
O4_2 Co4 1_555 1_555
N9_2 Co4 1_555 1_555
N11_2 Co4 1_555 1_555
H15 C24 1_555 1_555
C31_2 H21_2 1_555 1_555
C32_2 C31_2 1_555 1_555
H22_2 C32_2 1_555 1_555
C33_2 C32_2 1_555 1_555
H24_2 C35_2 1_555 1_555
N9_2 C31_2 1_555 1_555
C35_2 N9_2 1_555 1_555
H14 C22 1_555 1_555
H34_2 C48_2 1_555 1_555
C52_2 H37_2 1_555 1_555
C53_2 C52_2 1_555 1_555
H38_2 C53_2 1_555 1_555
C55_2 C54_2 1_555 1_555
C56_2 C55_2 1_555 1_555
H40_2 C56_2 1_555 1_555
N11_2 C52_2 1_555 1_555
C53_2 C54_2 1_555 1_555
C56_2 N11_2 1_555 1_555
H15_2 C24_2 1_555 1_555
H14_2 C22_2 1_555 1_555
C26_3 H17_3 1_555 1_555
C27_3 C26_3 1_555 1_555
C29_3 C28_3 1_555 1_555
C30_3 C29_3 1_555 1_555
H20_3 C30_3 1_555 1_555
N4 C26_3 1_555 1_555
Co2 N4 1_555 1_555
C27_3 C28_3 1_555 1_555
C30_3 N4 1_555 1_555
C1_3 H1_3 1_555 1_555
C2_3 C1_3 1_555 1_555
H2_3 C2_3 1_555 1_555
C3_3 C2_3 1_555 1_555
C4_3 C3_3 1_555 1_555
H3_3 C4_3 1_555 1_555
C5_3 C4_3 1_555 1_555
H4_3 C5_3 1_555 1_555
C6_3 C3_3 1_555 1_555
C7_3 C6_3 1_555 1_555
H5_3 C7_3 1_555 1_555
C8_3 C7_3 1_555 1_555
H6_3 C8_3 1_555 1_555
C9_3 C8_3 1_555 1_555
C10_3 C9_3 1_555 1_555
H7_3 C10_3 1_555 1_555
C11_3 C6_3 1_555 1_555
H8_3 C11_3 1_555 1_555
C12_4 C13_3 1_555 1_555
C13_3 H9_3 1_555 1_555
C14_3 C13_3 1_555 1_555
H10_3 C14_3 1_555 1_555
C15_4 C14_3 1_555 1_555
C16_4 C15_4 1_555 1_555
C17_3 C16_4 1_555 1_555
H11_3 C17_3 1_555 1_555
H12_3 C18_3 1_555 1_555
C18_3 C17_3 1_555 1_555
C19_4 C18_3 1_555 1_555
C20_3 C21_3 1_555 1_555
C21_3 H13_3 1_555 1_555
C25_3 C20_3 1_555 1_555
H16_3 C25_3 1_555 1_555
Co2 N1_2 1_555 1_555
N1_2 C1_3 1_555 1_555
N2_4 C9_3 1_555 1_555
N3_4 C19_4 1_555 1_555
N5_3 O1_3 1_555 1_555
N6_3 O4_3 1_555 1_555
O1_3 Co2 1_555 1_555
O2_3 N5_3 1_555 1_555
O4_3 Co2 1_555 1_555
O5_3 N6_3 1_555 1_555
H23_3 C34_3 1_555 1_555
C37_3 C36_3 1_555 1_555
H25_3 C37_3 1_555 1_555
C38_3 C37_3 1_555 1_555
H26_3 C38_3 1_555 1_555
C39_3 N2_4 1_555 1_555
C40_3 C39_3 1_555 1_555
H27_3 C40_3 1_555 1_555
C41_3 C36_3 1_555 1_555
H28_3 C41_3 1_555 1_555
C42_3 C12_4 1_555 1_555
H29_3 C42_3 1_555 1_555
C43_3 C15_4 1_555 1_555
H30_3 C43_3 1_555 1_555
C44_3 C16_4 1_555 1_555
H31_3 C44_3 1_555 1_555
H32_3 C45_3 1_555 1_555
C45_3 C19_4 1_555 1_555
C46_3 N3_4 1_555 1_555
C47_3 C46_3 1_555 1_555
H33_3 C47_3 1_555 1_555
C50_3 C49_3 1_555 1_555
H35_3 C50_3 1_555 1_555
C51_3 C46_3 1_555 1_555
H36_3 C51_3 1_555 1_555
N9_3 Co2 1_555 1_555
N11_3 Co2 1_555 1_555
C5_3 N1_2 1_555 1_555
C10_3 C11_3 1_555 1_555
C12_4 N2_4 1_555 1_555
C20_3 N3_4 1_555 1_555
C38_3 C39_3 1_555 1_555
C40_3 C41_3 1_555 1_555
C42_3 C43_3 1_555 1_555
C44_3 C45_3 1_555 1_555
C50_3 C51_3 1_555 1_555
C26_4 H17_4 1_555 1_555
C27_4 C26_4 1_555 1_555
C29_4 C28_4 1_555 1_555
C30_4 C29_4 1_555 1_555
H20_4 C30_4 1_555 1_555
N11_3 C26_4 1_555 1_555
C27_4 C28_4 1_555 1_555
C30_4 N11_3 1_555 1_555
C1_4 H1_4 1_555 1_555
C2_4 C1_4 1_555 1_555
H2_4 C2_4 1_555 1_555
C3_4 C2_4 1_555 1_555
C4_4 C3_4 1_555 1_555
H3_4 C4_4 1_555 1_555
C5_4 C4_4 1_555 1_555
H4_4 C5_4 1_555 1_555
C6_4 C3_4 1_555 1_555
C7_4 C6_4 1_555 1_555
H5_4 C7_4 1_555 1_555
C8_4 C7_4 1_555 1_555
C9_4 C8_4 1_555 1_555
C10_4 C9_4 1_555 1_555
H7_4 C10_4 1_555 1_555
C11_4 C6_4 1_555 1_555
H8_4 C11_4 1_555 1_555
C12_5 C13_4 1_555 1_555
C13_4 H9_4 1_555 1_555
C14_4 C13_4 1_555 1_555
H10_4 C14_4 1_555 1_555
C15_5 C14_4 1_555 1_555
C16_5 C15_5 1_555 1_555
C20_4 C21_4 1_555 1_555
C21_4 H13_4 1_555 1_555
C25_4 C20_4 1_555 1_555
H16_4 C25_4 1_555 1_555
N9_3 C1_4 1_555 1_555
N2_5 C9_4 1_555 1_555
N3_5 C19_5 1_555 1_555
C44_4 C16_5 1_555 1_555
H31_4 C44_4 1_555 1_555
H32_4 C45_4 1_555 1_555
C45_4 C19_5 1_555 1_555
C5_4 N9_3 1_555 1_555
C10_4 C11_4 1_555 1_555
C12_5 N2_5 1_555 1_555
C20_4 N3_5 1_555 1_555
C44_4 C45_4 1_555 1_555
C16_6 C15_6 1_555 1_555
C17_4 C16_6 1_555 1_555
H11_4 C17_4 1_555 1_555
H12_4 C18_4 1_555 1_555
C18_4 C17_4 1_555 1_555
C19_6 C18_4 1_555 1_555
N3_6 C19_6 1_555 1_555
H23_4 C34_4 1_555 1_555
C37_4 C36_4 1_555 1_555
H25_4 C37_4 1_555 1_555
C38_4 C37_4 1_555 1_555
C39_4 N2_6 1_555 1_555
C40_4 C39_4 1_555 1_555
H27_4 C40_4 1_555 1_555
C41_4 C36_4 1_555 1_555
H28_4 C41_4 1_555 1_555
C42_4 C12_6 1_555 1_555
H29_4 C42_4 1_555 1_555
C43_4 C15_6 1_555 1_555
H30_4 C43_4 1_555 1_555
C46_4 N3_6 1_555 1_555
C47_4 C46_4 1_555 1_555
H33_4 C47_4 1_555 1_555
C50_4 C49_4 1_555 1_555
H35_4 C50_4 1_555 1_555
C51_4 C46_4 1_555 1_555
H36_4 C51_4 1_555 1_555
C12_6 N2_6 1_555 1_555
C38_4 C39_4 1_555 1_555
C40_4 C41_4 1_555 1_555
C42_4 C43_4 1_555 1_555
C50_4 C51_4 1_555 1_555
H14_3 C22_3 1_555 1_555
H34_3 C48_3 1_555 1_555
C52_3 H37_3 1_555 1_555
C53_3 C52_3 1_555 1_555
H38_3 C53_3 1_555 1_555
C55_3 C54_3 1_555 1_555
C56_3 C55_3 1_555 1_555
H40_3 C56_3 1_555 1_555
N8_2 C52_3 1_555 1_555
Co3 N8_2 1_555 1_555
C53_3 C54_3 1_555 1_555
C56_3 N8_2 1_555 1_555
H15_3 C24_3 1_555 1_555
C31_3 H21_3 1_555 1_555
C32_3 C31_3 1_555 1_555
H22_3 C32_3 1_555 1_555
C33_3 C32_3 1_555 1_555
H24_3 C35_3 1_555 1_555
N7_2 C31_3 1_555 1_555
Co3 N7_2 1_555 1_555
C35_3 N7_2 1_555 1_555
N5_4 O1_4 1_555 1_555
N6_4 O4_4 1_555 1_555
O1_4 Co3 1_555 1_555
O2_4 N5_4 1_555 1_555
O3_3 N5_4 1_555 1_555
O4_4 Co3 1_555 1_555
N9_4 Co3 1_555 1_555
N11_4 Co3 1_555 1_555
H34_4 C48_4 1_555 1_555
C52_4 H37_4 1_555 1_555
C53_4 C52_4 1_555 1_555
H38_4 C53_4 1_555 1_555
C55_4 C54_4 1_555 1_555
C56_4 C55_4 1_555 1_555
H40_4 C56_4 1_555 1_555
N11_4 C52_4 1_555 1_555
C53_4 C54_4 1_555 1_555
C56_4 N11_4 1_555 1_555
C31_4 H21_4 1_555 1_555
C32_4 C31_4 1_555 1_555
H22_4 C32_4 1_555 1_555
C33_4 C32_4 1_555 1_555
H24_4 C35_4 1_555 1_555
N9_4 C31_4 1_555 1_555
C35_4 N9_4 1_555 1_555
H14_4 C22_4 1_555 1_555
H15_4 C24_4 1_555 1_555

#END
