
###############################################################################
#
# This file contains modified crystal structure data generated from the
# MOF subset of the Cambridge Structural Database (CSD) v543 
# hosted by the Cambridge Crystallographic Data Centre (CCDC).
#
# This work is licensed under the Creative Commons
# Attribution-NonCommercial-ShareAlike 4.0 International License.
# To view a copy of this license, visit
# http://creativecommons.org/licenses/by-nc-sa/4.0/
# or send a letter to
# Creative Commons, PO Box 1866, Mountain View, CA 94042, USA.
#
# CIF created using the CSD Python API on 29 September 2022
# The structure has been converted into the P1 space group
# The structure has a 3D framework
# The original CSD entry VOSWIL is in the monoclinic crystal system
# The framework has been calculated to contain at least 10.0% void space
# The void calculation uses a probe of radius 1.32A, grid spacing 0.4
# The framework is charged, counterions have been retained in the structure
# H atom positions have been added when not included in the experimental data
# Generated hydrogen atom positions removed from atoms on special positions
#
###############################################################################

data_VOSWIL
_chemical_formula_moiety         '(C192 H112 O112 Zn20 8-)n'
_symmetry_cell_setting           triclinic
_symmetry_space_group_name_H-M   'P 1'
_symmetry_Int_Tables_number      1
_space_group_name_Hall           'P 1'
loop_
_symmetry_equiv_pos_site_id
_symmetry_equiv_pos_as_xyz
1 x,y,z
_cell_length_a                   15.4272(2)
_cell_length_b                   29.4160(4)
_cell_length_c                   16.3560(2)
_cell_angle_alpha                90
_cell_angle_beta                 94.5950(10)
_cell_angle_gamma                90
_cell_volume                     7398.6
loop_
_atom_site_label
_atom_site_type_symbol
_atom_site_fract_x
_atom_site_fract_y
_atom_site_fract_z
Zn9 Zn 0.0000 0.34098(2) 0.2500
Zn1 Zn 0.5000 0.15902(2) 0.2500
Zn2 Zn 0.28095(3) 0.15656(2) 0.32783(3)
Zn3 Zn 0.27459(5) 0.48553(3) 0.79747(5)
O1 O 0.4548(2) 0.20908(12) 0.3201(2)
O2 O 0.31824(18) 0.21801(9) 0.35085(19)
O3 O 0.6603(2) 0.33478(11) 0.3525(2)
O4 O 0.6082(2) 0.40551(12) 0.3469(3)
O5 O 0.22792(17) 0.36718(9) 0.28459(17)
O6 O 0.10714(19) 0.34235(9) 0.33872(18)
O7 O 0.3676(2) 0.47806(14) 0.6448(2)
O8 O 0.2564(2) 0.44726(11) 0.7026(2)
O11 O 0.0544(2) 0.60786(12) 0.6853(3)
O12 O 0.16978(19) 0.60370(9) 0.61148(18)
O13 O 0.2939(3) 0.54884(14) 0.7566(3)
O14 O 0.3615(9) 0.4591(6) 0.8736(8)
C1 C 0.3937(2) 0.23223(13) 0.3424(2)
C2 C 0.4941(2) 0.29915(14) 0.3514(2)
H1 H 0.5377 0.2805 0.3307
C3 C 0.5114(3) 0.34428(13) 0.3694(3)
C4 C 0.5998(3) 0.36369(16) 0.3555(3)
C5 C 0.4479(3) 0.37196(13) 0.3997(3)
H2 H 0.4600 0.4031 0.4110
C6 C 0.3670(2) 0.35407(13) 0.4135(3)
C7 C 0.3488(2) 0.30846(12) 0.3936(2)
H3 H 0.2929 0.2962 0.4008
C8 C 0.4129(2) 0.28106(13) 0.3634(2)
C9 C 0.3007(2) 0.38205(12) 0.4509(2)
C10 C 0.2129(2) 0.38270(12) 0.4232(2)
C11 C 0.1786(2) 0.36170(12) 0.3434(2)
C12 C 0.1537(2) 0.40792(13) 0.4649(2)
H4 H 0.0939 0.4072 0.4457
C13 C 0.1791(3) 0.43386(13) 0.5333(3)
C14 C 0.2672(3) 0.43243(13) 0.5629(3)
C15 C 0.3263(3) 0.40701(13) 0.5217(3)
H5 H 0.3857 0.4066 0.5423
C16 C 0.2999(3) 0.45458(15) 0.6420(3)
C17 C 0.1164(3) 0.46434(13) 0.5702(2)
C18 C 0.0343(3) 0.44870(15) 0.5875(3)
H6 H 0.0178 0.4182 0.5751
C22 C 0.0804(3) 0.53884(13) 0.6216(2)
C23 C 0.1028(3) 0.58700(13) 0.6402(3)
C24 C 0.1381(2) 0.51021(13) 0.5855(2)
H8 H 0.1924 0.5217 0.5711
H9 H 0.3514 0.5535 0.7779
H10 H 0.2763 0.5779 0.7604
O23 O 0.1322(3) 0.42186(17) 0.8642(3)
O24 O 0.1678(3) 0.49431(17) 0.8470(3)
C43 C 0.0237(3) 0.47795(16) 0.8770(3)
C44 C 0.1137(4) 0.46328(18) 0.8616(4)
C45 C 0.0003(3) 0.52251(14) 0.8592(3)
H17 H 0.0393 0.5420 0.8338
Zn7 Zn -0.0000 0.65902(2) 0.7500
Zn11 Zn 0.21905(3) 0.65656(2) 0.67217(3)
Zn13 Zn 0.21905(3) 0.34344(2) 0.17217(3)
Zn15 Zn 0.78095(3) 0.34344(2) 0.32783(3)
O29 O 0.5452(2) 0.20908(12) 0.1799(2)
O31 O 0.1603(2) 0.16522(11) 0.3525(2)
O32 O 0.27208(17) 0.13282(9) 0.21541(17)
O34 O 0.39286(19) 0.15765(9) 0.16128(18)
O35 O 0.60714(19) 0.15765(9) 0.33872(18)
O36 O 0.5544(2) 0.10786(12) 0.1853(3)
O37 O 0.4456(2) 0.10786(12) 0.3147(3)
O39 O 0.33022(19) 0.10370(9) 0.38852(18)
Zn4 Zn 0.71905(3) 0.15656(2) 0.17217(3)
O16 O 0.68176(18) 0.21801(9) 0.14915(19)
O17 O 0.3397(2) 0.33478(11) 0.1475(2)
O18 O 0.3918(2) 0.40551(12) 0.1531(3)
O19 O 0.77208(17) 0.36718(9) 0.21541(17)
O20 O 0.89286(19) 0.34235(9) 0.16128(18)
C25 C 0.6063(2) 0.23223(13) 0.1576(2)
C26 C 0.5059(2) 0.29915(14) 0.1486(2)
H11 H 0.4623 0.2805 0.1693
C27 C 0.4886(3) 0.34428(13) 0.1306(3)
C28 C 0.4002(3) 0.36369(16) 0.1445(3)
C29 C 0.5521(3) 0.37196(13) 0.1003(3)
H12 H 0.5400 0.4031 0.0890
C30 C 0.6330(2) 0.35407(13) 0.0865(3)
C31 C 0.6512(2) 0.30846(12) 0.1064(2)
H13 H 0.7071 0.2962 0.0992
C32 C 0.5871(2) 0.28106(13) 0.1366(2)
C33 C 0.6993(2) 0.38205(12) 0.0491(2)
C34 C 0.7871(2) 0.38270(12) 0.0768(2)
C35 C 0.8214(2) 0.36170(12) 0.1566(2)
C36 C 0.8463(2) 0.40792(13) 0.0351(2)
H14 H 0.9061 0.4072 0.0543
Zn9_2 Zn 1.0000 0.34098(2) 0.2500
O30 O 0.8397(2) 0.16522(11) 0.1475(2)
O33 O 0.72792(17) 0.13282(9) 0.28459(17)
O38 O 0.66978(19) 0.10370(9) 0.11148(18)
O9 O 0.8678(3) 0.42186(17) 0.6358(3)
O10 O 0.8322(3) 0.49431(17) 0.6530(3)
C19 C 0.9763(3) 0.47795(16) 0.6230(3)
C20 C 0.8863(4) 0.46328(18) 0.6384(4)
C21 C 0.9997(3) 0.52251(14) 0.6408(3)
H7 H 0.9607 0.5420 0.6662
Zn5 Zn 0.72541(5) 0.48553(3) 0.70253(5)
O21 O 0.6324(2) 0.47806(14) 0.8552(2)
O22 O 0.7436(2) 0.44726(11) 0.7974(2)
O25 O 0.9456(2) 0.60786(12) 0.8147(3)
O26 O 0.83022(19) 0.60370(9) 0.88852(18)
O27 O 0.7061(3) 0.54884(14) 0.7434(3)
O28 O 0.6385(9) 0.4591(6) 0.6264(8)
C37 C 0.8209(3) 0.43386(13) 0.9667(3)
C38 C 0.7328(3) 0.43243(13) 0.9371(3)
C39 C 0.6737(3) 0.40701(13) 0.9783(3)
H15 H 0.6143 0.4066 0.9577
C40 C 0.7001(3) 0.45458(15) 0.8580(3)
C41 C 0.8836(3) 0.46434(13) 0.9298(2)
C42 C 0.9657(3) 0.44870(15) 0.9125(3)
H16 H 0.9822 0.4182 0.9249
C46 C 0.9196(3) 0.53884(13) 0.8784(2)
C47 C 0.8972(3) 0.58700(13) 0.8598(3)
C48 C 0.8619(2) 0.51021(13) 0.9145(2)
H18 H 0.8076 0.5217 0.9289
H19 H 0.6486 0.5535 0.7221
H20 H 0.7237 0.5779 0.7396
Zn7_2 Zn 1.0000 0.65902(2) 0.7500
Zn10 Zn 0.78095(3) 0.65656(2) 0.82783(3)
O3_2 O 0.1603(2) 0.83478(11) 0.8525(2)
O4_2 O 0.1082(2) 0.90551(12) 0.8469(3)
H1_2 H 0.0377 0.7805 0.8307
C3_2 C 0.0114(3) 0.84428(13) 0.8694(3)
C4_2 C 0.0998(3) 0.86369(16) 0.8555(3)
Zn15_2 Zn 0.28095(3) 0.84344(2) 0.82783(3)
O29_2 O 0.0452(2) 0.70908(12) 0.6799(2)
O35_2 O 0.10714(19) 0.65765(9) 0.83872(18)
O13_2 O 0.7939(3) 0.04884(14) 0.2566(3)
C21_2 C 0.4997(3) 0.02251(14) 0.1408(3)
H7_2 H 0.4607 0.0420 0.1662
C22_2 C 0.5804(3) 0.03884(13) 0.1216(2)
C23_2 C 0.6028(3) 0.08700(13) 0.1402(3)
C24_2 C 0.6381(2) 0.01021(13) 0.0855(2)
H8_2 H 0.6924 0.0217 0.0711
H9_2 H 0.8514 0.0535 0.2779
H10_2 H 0.7763 0.0779 0.2604
O27_2 O 0.2061(3) 0.04884(14) 0.2434(3)
C45_2 C 0.5003(3) 0.02251(14) 0.3592(3)
H17_2 H 0.5393 0.0420 0.3338
C46_2 C 0.4196(3) 0.03884(13) 0.3784(2)
C47_2 C 0.3972(3) 0.08700(13) 0.3598(3)
C48_2 C 0.3619(2) 0.01021(13) 0.4145(2)
H18_2 H 0.3076 0.0217 0.4289
H19_2 H 0.1486 0.0535 0.2221
H20_2 H 0.2237 0.0779 0.2396
Zn3_2 Zn 0.77459(5) 0.98553(3) 0.29747(5)
O7_2 O 0.8676(2) 0.97806(14) 0.1448(2)
O8_2 O 0.7564(2) 0.94726(11) 0.2026(2)
O9_2 O 0.3678(3) 0.92186(17) 0.1358(3)
O10_2 O 0.3322(3) 0.99431(17) 0.1530(3)
O14_2 O 0.8615(9) 0.9591(6) 0.3736(8)
C13_2 C 0.6791(3) 0.93386(13) 0.0333(3)
C14_2 C 0.7672(3) 0.93243(13) 0.0629(3)
C15_2 C 0.8263(3) 0.90701(13) 0.0217(3)
H5_2 H 0.8857 0.9066 0.0423
C16_2 C 0.7999(3) 0.95458(15) 0.1420(3)
C17_2 C 0.6164(3) 0.96434(13) 0.0702(2)
C18_2 C 0.5343(3) 0.94870(15) 0.0875(3)
H6_2 H 0.5178 0.9182 0.0751
C19_2 C 0.4763(3) 0.97795(16) 0.1230(3)
C20_2 C 0.3863(4) 0.96328(18) 0.1384(4)
Zn5_2 Zn 0.22541(5) 0.98553(3) 0.20253(5)
O16_2 O 0.18176(18) 0.71801(9) 0.64915(19)
O19_2 O 0.27208(17) 0.86718(9) 0.71541(17)
O20_2 O 0.39286(19) 0.84235(9) 0.66128(18)
O21_2 O 0.1324(2) 0.97806(14) 0.3552(2)
O22_2 O 0.2436(2) 0.94726(11) 0.2974(2)
O23_2 O 0.6322(3) 0.92186(17) 0.3642(3)
O24_2 O 0.6678(3) 0.99431(17) 0.3470(3)
O28_2 O 0.1385(9) 0.9591(6) 0.1264(8)
C25_2 C 0.1063(2) 0.73223(13) 0.6576(2)
C26_2 C 0.0059(2) 0.79915(14) 0.6486(2)
C29_2 C 0.0521(3) 0.87196(13) 0.6003(3)
H12_2 H 0.0400 0.9031 0.5890
C30_2 C 0.1330(2) 0.85407(13) 0.5865(3)
C31_2 C 0.1512(2) 0.80846(12) 0.6064(2)
H13_2 H 0.2071 0.7962 0.5992
C32_2 C 0.0871(2) 0.78106(13) 0.6366(2)
C33_2 C 0.1993(2) 0.88205(12) 0.5491(2)
C34_2 C 0.2871(2) 0.88270(12) 0.5768(2)
C35_2 C 0.3214(2) 0.86170(12) 0.6566(2)
C36_2 C 0.3463(2) 0.90792(13) 0.5351(2)
H14_2 H 0.4061 0.9072 0.5543
C37_2 C 0.3209(3) 0.93386(13) 0.4667(3)
C38_2 C 0.2328(3) 0.93243(13) 0.4371(3)
C39_2 C 0.1737(3) 0.90701(13) 0.4783(3)
H15_2 H 0.1143 0.9066 0.4577
C40_2 C 0.2001(3) 0.95458(15) 0.3580(3)
C41_2 C 0.3836(3) 0.96434(13) 0.4298(2)
C42_2 C 0.4657(3) 0.94870(15) 0.4125(3)
H16_2 H 0.4822 0.9182 0.4249
C43_2 C 0.5237(3) 0.97795(16) 0.3770(3)
C44_2 C 0.6137(4) 0.96328(18) 0.3616(4)
Zn9_3 Zn 0.5000 0.84098(2) 0.7500
O30_2 O 0.3397(2) 0.66522(11) 0.6475(2)
O33_2 O 0.22792(17) 0.63282(9) 0.78459(17)
O1_2 O 0.9548(2) 0.70908(12) 0.8201(2)
O2_2 O 0.81824(18) 0.71801(9) 0.85085(19)
O5_2 O 0.72792(17) 0.86718(9) 0.78459(17)
O6_2 O 0.60714(19) 0.84235(9) 0.83872(18)
C1_2 C 0.8937(2) 0.73223(13) 0.8424(2)
C2_2 C 0.9941(2) 0.79915(14) 0.8514(2)
C5_2 C 0.9479(3) 0.87196(13) 0.8997(3)
H2_2 H 0.9600 0.9031 0.9110
C6_2 C 0.8670(2) 0.85407(13) 0.9135(3)
C7_2 C 0.8488(2) 0.80846(12) 0.8936(2)
H3_2 H 0.7929 0.7962 0.9008
C8_2 C 0.9129(2) 0.78106(13) 0.8634(2)
C9_2 C 0.8007(2) 0.88205(12) 0.9509(2)
C10_2 C 0.7129(2) 0.88270(12) 0.9232(2)
C11_2 C 0.6786(2) 0.86170(12) 0.8434(2)
C12_2 C 0.6537(2) 0.90792(13) 0.9649(2)
H4_2 H 0.5939 0.9072 0.9457
Zn13_2 Zn 0.71905(3) 0.84344(2) 0.67217(3)
O31_2 O 0.6603(2) 0.66522(11) 0.8525(2)
O32_2 O 0.77208(17) 0.63282(9) 0.71541(17)
O34_2 O 0.89286(19) 0.65765(9) 0.66128(18)
O17_2 O 0.8397(2) 0.83478(11) 0.6475(2)
O18_2 O 0.8918(2) 0.90551(12) 0.6531(3)
H11_2 H 0.9623 0.7805 0.6693
C27_2 C 0.9886(3) 0.84428(13) 0.6306(3)
C28_2 C 0.9002(3) 0.86369(16) 0.6445(3)
O9_3 O 0.1322(3) 0.57814(17) 0.3642(3)
O10_3 O 0.1678(3) 0.50569(17) 0.3470(3)
C19_3 C 0.0237(3) 0.52205(16) 0.3770(3)
C20_3 C 0.1137(4) 0.53672(18) 0.3616(4)
C21_3 C 0.0003(3) 0.47749(14) 0.3592(3)
H7_3 H 0.0393 0.4580 0.3338
Zn5_3 Zn 0.27459(5) 0.51447(3) 0.29747(5)
O21_3 O 0.3676(2) 0.52194(14) 0.1448(2)
O22_3 O 0.2564(2) 0.55274(11) 0.2026(2)
O25_2 O 0.0544(2) 0.39214(12) 0.1853(3)
O26_2 O 0.16978(19) 0.39630(9) 0.11148(18)
O27_3 O 0.2939(3) 0.45116(14) 0.2566(3)
O28_3 O 0.3615(9) 0.5409(6) 0.3736(8)
C37_3 C 0.1791(3) 0.56614(13) 0.0333(3)
C38_3 C 0.2672(3) 0.56757(13) 0.0629(3)
C39_3 C 0.3263(3) 0.59299(13) 0.0217(3)
H15_3 H 0.3857 0.5934 0.0423
C40_3 C 0.2999(3) 0.54542(15) 0.1420(3)
C41_3 C 0.1164(3) 0.53566(13) 0.0702(2)
C42_3 C 0.0343(3) 0.55130(15) 0.0875(3)
H16_3 H 0.0178 0.5818 0.0751
C46_3 C 0.0804(3) 0.46116(13) 0.1216(2)
C47_3 C 0.1028(3) 0.41300(13) 0.1402(3)
C48_3 C 0.1381(2) 0.48979(13) 0.0855(2)
H18_3 H 0.1924 0.4783 0.0711
H19_3 H 0.3514 0.4465 0.2779
H20_3 H 0.2763 0.4221 0.2604
O15 O 0.4548(2) 0.79092(12) 0.8201(2)
O16_3 O 0.31824(18) 0.78199(9) 0.85085(19)
O18_3 O 0.6082(2) 0.59449(12) 0.8469(3)
C25_3 C 0.3937(2) 0.76777(13) 0.8424(2)
C26_3 C 0.4941(2) 0.70085(14) 0.8514(2)
H11_3 H 0.5377 0.7195 0.8307
C27_3 C 0.5114(3) 0.65572(13) 0.8694(3)
C28_3 C 0.5998(3) 0.63631(16) 0.8555(3)
C29_3 C 0.4479(3) 0.62804(13) 0.8997(3)
H12_3 H 0.4600 0.5969 0.9110
C30_3 C 0.3670(2) 0.64593(13) 0.9135(3)
C31_3 C 0.3488(2) 0.69154(12) 0.8936(2)
H13_3 H 0.2929 0.7038 0.9008
C32_3 C 0.4129(2) 0.71894(13) 0.8634(2)
C33_3 C 0.3007(2) 0.61795(12) 0.9509(2)
C34_3 C 0.2129(2) 0.61730(12) 0.9232(2)
C35_3 C 0.1786(2) 0.63830(12) 0.8434(2)
C36_3 C 0.1537(2) 0.59208(13) 0.9649(2)
H14_3 H 0.0939 0.5928 0.9457
O38_2 O 0.33022(19) 0.89630(9) 0.88852(18)
Zn3_3 Zn 0.72541(5) 0.51447(3) 0.20253(5)
O1_3 O 0.5452(2) 0.79092(12) 0.6799(2)
O2_3 O 0.68176(18) 0.78199(9) 0.64915(19)
O4_3 O 0.3918(2) 0.59449(12) 0.6531(3)
O7_3 O 0.6324(2) 0.52194(14) 0.3552(2)
O8_3 O 0.7436(2) 0.55274(11) 0.2974(2)
O11_2 O 0.9456(2) 0.39214(12) 0.3147(3)
O12_2 O 0.83022(19) 0.39630(9) 0.38852(18)
O13_3 O 0.7061(3) 0.45116(14) 0.2434(3)
O14_3 O 0.6385(9) 0.5409(6) 0.1264(8)
C1_3 C 0.6063(2) 0.76777(13) 0.6576(2)
C2_3 C 0.5059(2) 0.70085(14) 0.6486(2)
H1_3 H 0.4623 0.7195 0.6693
C3_3 C 0.4886(3) 0.65572(13) 0.6306(3)
C4_3 C 0.4002(3) 0.63631(16) 0.6445(3)
C5_3 C 0.5521(3) 0.62804(13) 0.6003(3)
H2_3 H 0.5400 0.5969 0.5890
C6_3 C 0.6330(2) 0.64593(13) 0.5865(3)
C7_3 C 0.6512(2) 0.69154(12) 0.6064(2)
H3_3 H 0.7071 0.7038 0.5992
C8_3 C 0.5871(2) 0.71894(13) 0.6366(2)
C9_3 C 0.6993(2) 0.61795(12) 0.5491(2)
C10_3 C 0.7871(2) 0.61730(12) 0.5768(2)
C11_3 C 0.8214(2) 0.63830(12) 0.6566(2)
C12_3 C 0.8463(2) 0.59208(13) 0.5351(2)
H4_3 H 0.9061 0.5928 0.5543
C13_3 C 0.8209(3) 0.56614(13) 0.4667(3)
C14_3 C 0.7328(3) 0.56757(13) 0.4371(3)
C15_3 C 0.6737(3) 0.59299(13) 0.4783(3)
H5_3 H 0.6143 0.5934 0.4577
C16_3 C 0.7001(3) 0.54542(15) 0.3580(3)
C17_3 C 0.8836(3) 0.53566(13) 0.4298(2)
C18_3 C 0.9657(3) 0.55130(15) 0.4125(3)
H6_3 H 0.9822 0.5818 0.4249
C22_3 C 0.9196(3) 0.46116(13) 0.3784(2)
C23_3 C 0.8972(3) 0.41300(13) 0.3598(3)
C24_3 C 0.8619(2) 0.48979(13) 0.4145(2)
H8_3 H 0.8076 0.4783 0.4289
H9_3 H 0.6486 0.4465 0.2221
H10_3 H 0.7237 0.4221 0.2396
O23_3 O 0.8678(3) 0.57814(17) 0.1358(3)
O24_3 O 0.8322(3) 0.50569(17) 0.1530(3)
C43_3 C 0.9763(3) 0.52205(16) 0.1230(3)
C44_3 C 0.8863(4) 0.53672(18) 0.1384(4)
C45_3 C 0.9997(3) 0.47749(14) 0.1408(3)
H17_3 H 0.9607 0.4580 0.1662
O36_2 O 0.4456(2) 0.89214(12) 0.8147(3)
O37_2 O 0.5544(2) 0.89214(12) 0.6853(3)
O39_2 O 0.66978(19) 0.89630(9) 0.61148(18)
O18_4 O 0.1082(2) 0.09449(12) 0.3469(3)
H11_4 H 0.0377 0.2195 0.3307
C27_4 C 0.0114(3) 0.15572(13) 0.3694(3)
C28_4 C 0.0998(3) 0.13631(16) 0.3555(3)
O1_4 O 0.0452(2) 0.29092(12) 0.1799(2)
O2_4 O 0.18176(18) 0.28199(9) 0.14915(19)
C1_4 C 0.1063(2) 0.26777(13) 0.1576(2)
C2_4 C 0.0059(2) 0.20085(14) 0.1486(2)
C5_4 C 0.0521(3) 0.12804(13) 0.1003(3)
H2_4 H 0.0400 0.0969 0.0890
C6_4 C 0.1330(2) 0.14593(13) 0.0865(3)
C7_4 C 0.1512(2) 0.19154(12) 0.1064(2)
H3_4 H 0.2071 0.2038 0.0992
C8_4 C 0.0871(2) 0.21894(13) 0.1366(2)
C9_4 C 0.1993(2) 0.11795(12) 0.0491(2)
C10_4 C 0.2871(2) 0.11730(12) 0.0768(2)
C11_4 C 0.3214(2) 0.13830(12) 0.1566(2)
C12_4 C 0.3463(2) 0.09208(13) 0.0351(2)
H4_4 H 0.4061 0.0928 0.0543
Zn3_4 Zn 0.22541(5) 0.01447(3) 0.70253(5)
O7_4 O 0.1324(2) 0.02194(14) 0.8552(2)
O8_4 O 0.2436(2) 0.05274(11) 0.7974(2)
O9_4 O 0.6322(3) 0.07814(17) 0.8642(3)
O10_4 O 0.6678(3) 0.00569(17) 0.8470(3)
O14_4 O 0.1385(9) 0.0409(6) 0.6264(8)
C13_4 C 0.3209(3) 0.06614(13) 0.9667(3)
C14_4 C 0.2328(3) 0.06757(13) 0.9371(3)
C15_4 C 0.1737(3) 0.09299(13) 0.9783(3)
H5_4 H 0.1143 0.0934 0.9577
C16_4 C 0.2001(3) 0.04542(15) 0.8580(3)
C17_4 C 0.3836(3) 0.03566(13) 0.9298(2)
C18_4 C 0.4657(3) 0.05130(15) 0.9125(3)
H6_4 H 0.4822 0.0818 0.9249
C19_4 C 0.5237(3) 0.02205(16) 0.8770(3)
C20_4 C 0.6137(4) 0.03672(18) 0.8616(4)
Zn5_4 Zn 0.77459(5) 0.01447(3) 0.79747(5)
O15_2 O 0.9548(2) 0.29092(12) 0.3201(2)
O16_4 O 0.81824(18) 0.28199(9) 0.35085(19)
O21_4 O 0.8676(2) 0.02194(14) 0.6448(2)
O22_4 O 0.7564(2) 0.05274(11) 0.7026(2)
O23_4 O 0.3678(3) 0.07814(17) 0.6358(3)
O24_4 O 0.3322(3) 0.00569(17) 0.6530(3)
O28_4 O 0.8615(9) 0.0409(6) 0.8736(8)
C25_4 C 0.8937(2) 0.26777(13) 0.3424(2)
C26_4 C 0.9941(2) 0.20085(14) 0.3514(2)
C29_4 C 0.9479(3) 0.12804(13) 0.3997(3)
H12_4 H 0.9600 0.0969 0.4110
C30_4 C 0.8670(2) 0.14593(13) 0.4135(3)
C31_4 C 0.8488(2) 0.19154(12) 0.3936(2)
H13_4 H 0.7929 0.2038 0.4008
C32_4 C 0.9129(2) 0.21894(13) 0.3634(2)
C33_4 C 0.8007(2) 0.11795(12) 0.4509(2)
C34_4 C 0.7129(2) 0.11730(12) 0.4232(2)
C35_4 C 0.6786(2) 0.13830(12) 0.3434(2)
C36_4 C 0.6537(2) 0.09208(13) 0.4649(2)
H14_4 H 0.5939 0.0928 0.4457
C37_4 C 0.6791(3) 0.06614(13) 0.5333(3)
C38_4 C 0.7672(3) 0.06757(13) 0.5629(3)
C39_4 C 0.8263(3) 0.09299(13) 0.5217(3)
H15_4 H 0.8857 0.0934 0.5423
C40_4 C 0.7999(3) 0.04542(15) 0.6420(3)
C41_4 C 0.6164(3) 0.03566(13) 0.5702(2)
C42_4 C 0.5343(3) 0.05130(15) 0.5875(3)
H16_4 H 0.5178 0.0818 0.5751
C43_4 C 0.4763(3) 0.02205(16) 0.6230(3)
C44_4 C 0.3863(4) 0.03672(18) 0.6384(4)
O13_4 O 0.2061(3) 0.95116(14) 0.7434(3)
C21_4 C 0.5003(3) 0.97749(14) 0.8592(3)
H7_4 H 0.5393 0.9580 0.8338
C22_4 C 0.4196(3) 0.96116(13) 0.8784(2)
C23_4 C 0.3972(3) 0.91300(13) 0.8598(3)
C24_4 C 0.3619(2) 0.98979(13) 0.9145(2)
H8_4 H 0.3076 0.9783 0.9289
H9_4 H 0.1486 0.9465 0.7221
H10_4 H 0.2237 0.9221 0.7396
O27_4 O 0.7939(3) 0.95116(14) 0.7566(3)
C45_4 C 0.4997(3) 0.97749(14) 0.6408(3)
H17_4 H 0.4607 0.9580 0.6662
C46_4 C 0.5804(3) 0.96116(13) 0.6216(2)
C47_4 C 0.6028(3) 0.91300(13) 0.6402(3)
C48_4 C 0.6381(2) 0.98979(13) 0.5855(2)
H18_4 H 0.6924 0.9783 0.5711
H19_4 H 0.8514 0.9465 0.7779
H20_4 H 0.7763 0.9221 0.7604
O4_4 O 0.8918(2) 0.09449(12) 0.1531(3)
H1_4 H 0.9623 0.2195 0.1693
C3_4 C 0.9886(3) 0.15572(13) 0.1306(3)
C4_4 C 0.9002(3) 0.13631(16) 0.1445(3)
loop_
_geom_bond_atom_site_label_1
_geom_bond_atom_site_label_2
_geom_bond_site_symmetry_1
_geom_bond_site_symmetry_2
Zn1 O1 1_555 1_555
Zn2 O2 1_555 1_555
Zn3 O8 1_555 1_555
O1 C1 1_555 1_555
O2 C1 1_555 1_555
O3 C4 1_555 1_555
O4 C4 1_555 1_555
O5 C11 1_555 1_555
O6 C11 1_555 1_555
O7 C16 1_555 1_555
O8 C16 1_555 1_555
O11 C23 1_555 1_555
O12 C23 1_555 1_555
O13 Zn3 1_555 1_555
O14 Zn3 1_555 1_555
C1 C8 1_555 1_555
C2 H1 1_555 1_555
C3 C2 1_555 1_555
C4 C3 1_555 1_555
C5 C3 1_555 1_555
H2 C5 1_555 1_555
C6 C5 1_555 1_555
C7 C6 1_555 1_555
H3 C7 1_555 1_555
C8 C2 1_555 1_555
C9 C6 1_555 1_555
C10 C9 1_555 1_555
C11 C10 1_555 1_555
C12 C10 1_555 1_555
H4 C12 1_555 1_555
C13 C12 1_555 1_555
C14 C13 1_555 1_555
C15 C9 1_555 1_555
H5 C15 1_555 1_555
C16 C14 1_555 1_555
C17 C13 1_555 1_555
C18 C17 1_555 1_555
H6 C18 1_555 1_555
C23 C22 1_555 1_555
C24 C17 1_555 1_555
H8 C24 1_555 1_555
H9 O13 1_555 1_555
H10 O13 1_555 1_555
O23 C44 1_555 1_555
O24 Zn3 1_555 1_555
C44 O24 1_555 1_555
C45 C43 1_555 1_555
H17 C45 1_555 1_555
Zn7 O11 1_555 1_555
Zn9 O6 1_555 1_555
Zn11 O12 1_555 1_555
Zn13 O5 1_555 1_555
Zn15 O3 1_555 1_555
O29 Zn1 1_555 1_555
O31 Zn2 1_555 1_555
O32 Zn2 1_555 1_555
O34 Zn1 1_555 1_555
O35 Zn1 1_555 1_555
O36 Zn1 1_555 1_555
O37 Zn1 1_555 1_555
O39 Zn2 1_555 1_555
C7 C8 1_555 1_555
C14 C15 1_555 1_555
C22 C24 1_555 1_555
C43 C44 1_555 1_555
Zn4 O16 1_555 1_555
O29 C25 1_555 1_555
O16 C25 1_555 1_555
O17 C28 1_555 1_555
O18 C28 1_555 1_555
O19 C35 1_555 1_555
O20 C35 1_555 1_555
C25 C32 1_555 1_555
C26 H11 1_555 1_555
C27 C26 1_555 1_555
C28 C27 1_555 1_555
C29 C27 1_555 1_555
H12 C29 1_555 1_555
C30 C29 1_555 1_555
C31 C30 1_555 1_555
H13 C31 1_555 1_555
C32 C26 1_555 1_555
C33 C30 1_555 1_555
C34 C33 1_555 1_555
C35 C34 1_555 1_555
C36 C34 1_555 1_555
H14 C36 1_555 1_555
Zn9_2 O20 1_555 1_555
Zn13 O17 1_555 1_555
Zn15 O19 1_555 1_555
O30 Zn4 1_555 1_555
O33 Zn4 1_555 1_555
O38 Zn4 1_555 1_555
C31 C32 1_555 1_555
O9 C20 1_555 1_555
O10 C20 1_555 1_555
C20 C19 1_555 1_555
C21 C19 1_555 1_555
H7 C21 1_555 1_555
Zn5 O10 1_555 1_555
O21 C40 1_555 1_555
O22 Zn5 1_555 1_555
O25 C47 1_555 1_555
O26 C47 1_555 1_555
O27 Zn5 1_555 1_555
O28 Zn5 1_555 1_555
C38 C37 1_555 1_555
H15 C39 1_555 1_555
C40 O22 1_555 1_555
C41 C37 1_555 1_555
C42 C41 1_555 1_555
H16 C42 1_555 1_555
C47 C46 1_555 1_555
C48 C41 1_555 1_555
H18 C48 1_555 1_555
H19 O27 1_555 1_555
H20 O27 1_555 1_555
Zn10 O26 1_555 1_555
O25 Zn7_2 1_555 1_555
C38 C39 1_555 1_555
C38 C40 1_555 1_555
C46 C48 1_555 1_555
O3_2 C4_2 1_555 1_555
O4_2 C4_2 1_555 1_555
C4_2 C3_2 1_555 1_555
Zn15_2 O3_2 1_555 1_555
O29_2 Zn7 1_555 1_555
O35_2 Zn7 1_555 1_555
O36 C23_2 1_555 1_555
O38 C23_2 1_555 1_555
H7_2 C21_2 1_555 1_555
C22_2 C21_2 1_555 1_555
C23_2 C22_2 1_555 1_555
H8_2 C24_2 1_555 1_555
H9_2 O13_2 1_555 1_555
H10_2 O13_2 1_555 1_555
O37 C47_2 1_555 1_555
O39 C47_2 1_555 1_555
H17_2 C45_2 1_555 1_555
C46_2 C45_2 1_555 1_555
C47_2 C46_2 1_555 1_555
H18_2 C48_2 1_555 1_555
H19_2 O27_2 1_555 1_555
H20_2 O27_2 1_555 1_555
C22_2 C24_2 1_555 1_555
C46_2 C48_2 1_555 1_555
Zn3_2 O8_2 1_555 1_555
O7_2 C16_2 1_555 1_555
O8_2 C16_2 1_555 1_555
O9_2 C20_2 1_555 1_555
O10_2 C20_2 1_555 1_555
O14_2 Zn3_2 1_555 1_555
C14_2 C13_2 1_555 1_555
H5_2 C15_2 1_555 1_555
C16_2 C14_2 1_555 1_555
C17_2 C13_2 1_555 1_555
C18_2 C17_2 1_555 1_555
H6_2 C18_2 1_555 1_555
C19_2 C18_2 1_555 1_555
C20_2 C19_2 1_555 1_555
Zn11 O16_2 1_555 1_555
Zn5_2 O10_2 1_555 1_555
O29_2 C25_2 1_555 1_555
O16_2 C25_2 1_555 1_555
O19_2 C35_2 1_555 1_555
O20_2 C35_2 1_555 1_555
O21_2 C40_2 1_555 1_555
O22_2 Zn5_2 1_555 1_555
O23_2 C44_2 1_555 1_555
O24_2 Zn3_2 1_555 1_555
O28_2 Zn5_2 1_555 1_555
C25_2 C32_2 1_555 1_555
H12_2 C29_2 1_555 1_555
C30_2 C29_2 1_555 1_555
C31_2 C30_2 1_555 1_555
H13_2 C31_2 1_555 1_555
C32_2 C26_2 1_555 1_555
C33_2 C30_2 1_555 1_555
C34_2 C33_2 1_555 1_555
C35_2 C34_2 1_555 1_555
C36_2 C34_2 1_555 1_555
H14_2 C36_2 1_555 1_555
C37_2 C36_2 1_555 1_555
C38_2 C37_2 1_555 1_555
C39_2 C33_2 1_555 1_555
H15_2 C39_2 1_555 1_555
C40_2 O22_2 1_555 1_555
C41_2 C37_2 1_555 1_555
C42_2 C41_2 1_555 1_555
H16_2 C42_2 1_555 1_555
C43_2 C42_2 1_555 1_555
C44_2 O24_2 1_555 1_555
Zn9_3 O20_2 1_555 1_555
Zn15_2 O19_2 1_555 1_555
O30_2 Zn11 1_555 1_555
O33_2 Zn11 1_555 1_555
C14_2 C15_2 1_555 1_555
C31_2 C32_2 1_555 1_555
C38_2 C39_2 1_555 1_555
C38_2 C40_2 1_555 1_555
C43_2 C44_2 1_555 1_555
Zn7_2 O1_2 1_555 1_555
Zn10 O2_2 1_555 1_555
O1_2 C1_2 1_555 1_555
O2_2 C1_2 1_555 1_555
O5_2 C11_2 1_555 1_555
O6_2 C11_2 1_555 1_555
C1_2 C8_2 1_555 1_555
H2_2 C5_2 1_555 1_555
C6_2 C5_2 1_555 1_555
C7_2 C6_2 1_555 1_555
H3_2 C7_2 1_555 1_555
C8_2 C2_2 1_555 1_555
C9_2 C6_2 1_555 1_555
C10_2 C9_2 1_555 1_555
C11_2 C10_2 1_555 1_555
C12_2 C10_2 1_555 1_555
H4_2 C12_2 1_555 1_555
Zn9_3 O6_2 1_555 1_555
Zn13_2 O5_2 1_555 1_555
O31_2 Zn10 1_555 1_555
O32_2 Zn10 1_555 1_555
O34_2 Zn7_2 1_555 1_555
C7_2 C8_2 1_555 1_555
O17_2 C28_2 1_555 1_555
O18_2 C28_2 1_555 1_555
C28_2 C27_2 1_555 1_555
Zn13_2 O17_2 1_555 1_555
O9_3 C20_3 1_555 1_555
O10_3 C20_3 1_555 1_555
C20_3 C19_3 1_555 1_555
C21_3 C19_3 1_555 1_555
H7_3 C21_3 1_555 1_555
Zn5_3 O10_3 1_555 1_555
O21_3 C40_3 1_555 1_555
O22_3 Zn5_3 1_555 1_555
O25_2 C47_3 1_555 1_555
O26_2 C47_3 1_555 1_555
O27_3 Zn5_3 1_555 1_555
O28_3 Zn5_3 1_555 1_555
C38_3 C37_3 1_555 1_555
H15_3 C39_3 1_555 1_555
C40_3 O22_3 1_555 1_555
C41_3 C37_3 1_555 1_555
C42_3 C41_3 1_555 1_555
H16_3 C42_3 1_555 1_555
C47_3 C46_3 1_555 1_555
C48_3 C41_3 1_555 1_555
H18_3 C48_3 1_555 1_555
H19_3 O27_3 1_555 1_555
H20_3 O27_3 1_555 1_555
Zn13 O26_2 1_555 1_555
O25_2 Zn9 1_555 1_555
C38_3 C39_3 1_555 1_555
C38_3 C40_3 1_555 1_555
C46_3 C48_3 1_555 1_555
Zn15_2 O16_3 1_555 1_555
O15 C25_3 1_555 1_555
O16_3 C25_3 1_555 1_555
O31_2 C28_3 1_555 1_555
O18_3 C28_3 1_555 1_555
O33_2 C35_3 1_555 1_555
O35_2 C35_3 1_555 1_555
C25_3 C32_3 1_555 1_555
C26_3 H11_3 1_555 1_555
C27_3 C26_3 1_555 1_555
C28_3 C27_3 1_555 1_555
C29_3 C27_3 1_555 1_555
H12_3 C29_3 1_555 1_555
C30_3 C29_3 1_555 1_555
C31_3 C30_3 1_555 1_555
H13_3 C31_3 1_555 1_555
C32_3 C26_3 1_555 1_555
C33_3 C30_3 1_555 1_555
C34_3 C33_3 1_555 1_555
C35_3 C34_3 1_555 1_555
C36_3 C34_3 1_555 1_555
H14_3 C36_3 1_555 1_555
Zn9_3 O15 1_555 1_555
O38_2 Zn15_2 1_555 1_555
C31_3 C32_3 1_555 1_555
Zn9_3 O1_3 1_555 1_555
Zn13_2 O2_3 1_555 1_555
Zn3_3 O8_3 1_555 1_555
O1_3 C1_3 1_555 1_555
O2_3 C1_3 1_555 1_555
O30_2 C4_3 1_555 1_555
O4_3 C4_3 1_555 1_555
O32_2 C11_3 1_555 1_555
O34_2 C11_3 1_555 1_555
O7_3 C16_3 1_555 1_555
O8_3 C16_3 1_555 1_555
O11_2 C23_3 1_555 1_555
O12_2 C23_3 1_555 1_555
O13_3 Zn3_3 1_555 1_555
O14_3 Zn3_3 1_555 1_555
C1_3 C8_3 1_555 1_555
C2_3 H1_3 1_555 1_555
C3_3 C2_3 1_555 1_555
C4_3 C3_3 1_555 1_555
C5_3 C3_3 1_555 1_555
H2_3 C5_3 1_555 1_555
C6_3 C5_3 1_555 1_555
C7_3 C6_3 1_555 1_555
H3_3 C7_3 1_555 1_555
C8_3 C2_3 1_555 1_555
C9_3 C6_3 1_555 1_555
C10_3 C9_3 1_555 1_555
C11_3 C10_3 1_555 1_555
C12_3 C10_3 1_555 1_555
H4_3 C12_3 1_555 1_555
C13_3 C12_3 1_555 1_555
C14_3 C13_3 1_555 1_555
C15_3 C9_3 1_555 1_555
H5_3 C15_3 1_555 1_555
C16_3 C14_3 1_555 1_555
C17_3 C13_3 1_555 1_555
C18_3 C17_3 1_555 1_555
H6_3 C18_3 1_555 1_555
C23_3 C22_3 1_555 1_555
C24_3 C17_3 1_555 1_555
H8_3 C24_3 1_555 1_555
H9_3 O13_3 1_555 1_555
H10_3 O13_3 1_555 1_555
O23_3 C44_3 1_555 1_555
O24_3 Zn3_3 1_555 1_555
C44_3 O24_3 1_555 1_555
C45_3 C43_3 1_555 1_555
H17_3 C45_3 1_555 1_555
Zn9_2 O11_2 1_555 1_555
Zn15 O12_2 1_555 1_555
O36_2 Zn9_3 1_555 1_555
O37_2 Zn9_3 1_555 1_555
O39_2 Zn13_2 1_555 1_555
C7_3 C8_3 1_555 1_555
C14_3 C15_3 1_555 1_555
C22_3 C24_3 1_555 1_555
C43_3 C44_3 1_555 1_555
O31 C28_4 1_555 1_555
O18_4 C28_4 1_555 1_555
C28_4 C27_4 1_555 1_555
Zn9 O1_4 1_555 1_555
Zn13 O2_4 1_555 1_555
O1_4 C1_4 1_555 1_555
O2_4 C1_4 1_555 1_555
O32 C11_4 1_555 1_555
O34 C11_4 1_555 1_555
C1_4 C8_4 1_555 1_555
H2_4 C5_4 1_555 1_555
C6_4 C5_4 1_555 1_555
C7_4 C6_4 1_555 1_555
H3_4 C7_4 1_555 1_555
C8_4 C2_4 1_555 1_555
C9_4 C6_4 1_555 1_555
C10_4 C9_4 1_555 1_555
C11_4 C10_4 1_555 1_555
C12_4 C10_4 1_555 1_555
H4_4 C12_4 1_555 1_555
C7_4 C8_4 1_555 1_555
Zn3_4 O8_4 1_555 1_555
O7_4 C16_4 1_555 1_555
O8_4 C16_4 1_555 1_555
O9_4 C20_4 1_555 1_555
O10_4 C20_4 1_555 1_555
O14_4 Zn3_4 1_555 1_555
C14_4 C13_4 1_555 1_555
H5_4 C15_4 1_555 1_555
C16_4 C14_4 1_555 1_555
C17_4 C13_4 1_555 1_555
C18_4 C17_4 1_555 1_555
H6_4 C18_4 1_555 1_555
C19_4 C18_4 1_555 1_555
C20_4 C19_4 1_555 1_555
Zn15 O16_4 1_555 1_555
Zn5_4 O10_4 1_555 1_555
O15_2 C25_4 1_555 1_555
O16_4 C25_4 1_555 1_555
O33 C35_4 1_555 1_555
O35 C35_4 1_555 1_555
O21_4 C40_4 1_555 1_555
O22_4 Zn5_4 1_555 1_555
O23_4 C44_4 1_555 1_555
O24_4 Zn3_4 1_555 1_555
O28_4 Zn5_4 1_555 1_555
C25_4 C32_4 1_555 1_555
H12_4 C29_4 1_555 1_555
C30_4 C29_4 1_555 1_555
C31_4 C30_4 1_555 1_555
H13_4 C31_4 1_555 1_555
C32_4 C26_4 1_555 1_555
C33_4 C30_4 1_555 1_555
C34_4 C33_4 1_555 1_555
C35_4 C34_4 1_555 1_555
C36_4 C34_4 1_555 1_555
H14_4 C36_4 1_555 1_555
C37_4 C36_4 1_555 1_555
C38_4 C37_4 1_555 1_555
C39_4 C33_4 1_555 1_555
H15_4 C39_4 1_555 1_555
C40_4 O22_4 1_555 1_555
C41_4 C37_4 1_555 1_555
C42_4 C41_4 1_555 1_555
H16_4 C42_4 1_555 1_555
C43_4 C42_4 1_555 1_555
C44_4 O24_4 1_555 1_555
Zn9_2 O15_2 1_555 1_555
C14_4 C15_4 1_555 1_555
C31_4 C32_4 1_555 1_555
C38_4 C39_4 1_555 1_555
C38_4 C40_4 1_555 1_555
C43_4 C44_4 1_555 1_555
O36_2 C23_4 1_555 1_555
O38_2 C23_4 1_555 1_555
H7_4 C21_4 1_555 1_555
C22_4 C21_4 1_555 1_555
C23_4 C22_4 1_555 1_555
H8_4 C24_4 1_555 1_555
H9_4 O13_4 1_555 1_555
H10_4 O13_4 1_555 1_555
O37_2 C47_4 1_555 1_555
O39_2 C47_4 1_555 1_555
H17_4 C45_4 1_555 1_555
C46_4 C45_4 1_555 1_555
C47_4 C46_4 1_555 1_555
H18_4 C48_4 1_555 1_555
H19_4 O27_4 1_555 1_555
H20_4 O27_4 1_555 1_555
C22_4 C24_4 1_555 1_555
C46_4 C48_4 1_555 1_555
O30 C4_4 1_555 1_555
O4_4 C4_4 1_555 1_555
C4_4 C3_4 1_555 1_555

#END
