
###############################################################################
#
# This file contains modified crystal structure data generated from the
# MOF subset of the Cambridge Structural Database (CSD) v543 
# hosted by the Cambridge Crystallographic Data Centre (CCDC).
#
# This work is licensed under the Creative Commons
# Attribution-NonCommercial-ShareAlike 4.0 International License.
# To view a copy of this license, visit
# http://creativecommons.org/licenses/by-nc-sa/4.0/
# or send a letter to
# Creative Commons, PO Box 1866, Mountain View, CA 94042, USA.
#
# CIF created using the CSD Python API on 29 September 2022
# The structure has been converted into the P1 space group
# The structure has a 3D framework
# The original CSD entry VOSWOR is in the monoclinic crystal system
# The framework has been calculated to contain at least 10.0% void space
# The void calculation uses a probe of radius 1.32A, grid spacing 0.4
# The framework is charged, counterions have been retained in the structure
#
###############################################################################

data_VOSWOR
_chemical_formula_moiety         '(C96 H32 O48 Zn8 8-)n'
_symmetry_cell_setting           triclinic
_symmetry_space_group_name_H-M   'P 1'
_symmetry_Int_Tables_number      1
_space_group_name_Hall           'P 1'
loop_
_symmetry_equiv_pos_site_id
_symmetry_equiv_pos_as_xyz
1 x,y,z
_cell_length_a                   15.0872(5)
_cell_length_b                   9.0103(3)
_cell_length_c                   24.9822(8)
_cell_angle_alpha                90
_cell_angle_beta                 98.240(3)
_cell_angle_gamma                90
_cell_volume                     3361.03
loop_
_atom_site_label
_atom_site_type_symbol
_atom_site_fract_x
_atom_site_fract_y
_atom_site_fract_z
O9 O 0.7186(2) 0.0589(4) 0.08337(12)
O12 O 0.61304(18) 0.0631(3) 0.13589(10)
C1 C 0.6403(3) 0.0436(4) 0.09048(16)
C20 C 0.5682(3) 0.0152(4) 0.04364(15)
Zn6 Zn 0.68064(3) 0.18085(5) 0.19303(2)
O19 O 0.69117(17) 0.1834(3) 0.80837(10)
O20 O 0.63155(16) 0.3766(3) 0.75922(10)
O21 O 0.37134(18) 0.6227(3) 0.81433(11)
O22 O 0.28619(19) 0.5151(3) 0.86908(12)
C38 C 0.5669(3) 0.1040(4) 0.99843(15)
H13 H 0.6133 0.1746 0.9970
C39 C 0.4956(2) 0.1979(4) 0.90869(15)
C40 C 0.6327(3) 0.2866(4) 0.79758(15)
C41 C 0.4922(2) 0.3966(4) 0.82288(15)
H14 H 0.4909 0.4639 0.7935
C42 C 0.5619(3) 0.2949(4) 0.83314(14)
C43 C 0.4974(2) 0.0913(4) 0.95427(14)
C44 C 0.3525(3) 0.5215(4) 0.84619(14)
C45 C 0.5639(3) 0.1974(4) 0.87711(14)
H15 H 0.6127 0.1305 0.8853
C47 C 0.4237(2) 0.4010(4) 0.85545(14)
C48 C 0.4251(3) 0.3002(4) 0.89664(15)
H16 H 0.3772 0.2994 0.9176
Zn7 Zn 0.68064(3) 0.31915(5) 0.69303(2)
Zn9 Zn 0.31936(3) 0.81915(5) 0.80697(2)
Zn12 Zn 0.81827(3) 0.19097(5) 0.80930(2)
Zn1 Zn 0.31936(3) 0.68085(5) 0.30697(2)
Zn2 Zn 0.18173(3) 0.80903(5) 0.19070(2)
O1 O 0.18991(17) 0.6702(3) 0.30097(10)
O2 O 0.30883(17) 0.8166(3) 0.19163(10)
O5 O 0.36845(16) 0.6234(3) 0.24078(10)
O6 O 0.62866(18) 0.3773(3) 0.18567(11)
O7 O 0.13444(17) 0.8730(3) 0.25683(10)
O8 O 0.71381(19) 0.4849(3) 0.13092(12)
C3 C 0.1358(2) 0.7780(4) 0.29399(14)
C5 C 0.0695(2) 0.6885(4) 0.37420(15)
H2 H 0.1190 0.6232 0.3827
C6 C 0.4331(3) 0.8960(4) 0.00157(15)
H3 H 0.3867 0.8254 0.0030
C7 C 0.5044(2) 0.8021(4) 0.09131(15)
C9 C 0.0007(3) 0.6886(4) 0.40590(14)
C11 C 0.3673(3) 0.7134(4) 0.20242(15)
C12 C 0.0657(3) 0.7845(4) 0.32986(15)
C13 C 0.5078(2) 0.6034(4) 0.17712(15)
H4 H 0.5091 0.5361 0.2065
C14 C 0.4381(3) 0.7051(4) 0.16686(14)
C16 C 0.5026(2) 0.9087(4) 0.04573(14)
C17 C 0.6475(3) 0.4785(4) 0.15381(14)
C19 C 0.4361(3) 0.8026(4) 0.12289(14)
H6 H 0.3873 0.8695 0.1147
C21 C 0.5763(2) 0.5990(4) 0.14455(14)
C22 C 0.0732(3) 0.5884(4) 0.49583(15)
H7 H 0.1243 0.6478 0.4929
C23 C 0.5749(3) 0.6998(4) 0.10336(15)
H8 H 0.6228 0.7006 0.0824
C24 C 0.0037(2) 0.5887(4) 0.45416(14)
O14 O 0.22253(19) 0.4817(3) 0.58408(11)
O15 O 0.21568(19) 0.0127(3) 0.63892(12)
O17 O 0.12001(18) 0.5692(3) 0.63269(10)
C25 C 0.1463(3) 0.5207(4) 0.59014(15)
C27 C 0.0044(2) 0.1137(4) 0.68070(14)
H9 H 0.0065 0.0468 0.7103
C29 C 0.0715(3) 0.5040(4) 0.54234(15)
C33 C 0.0714(3) 0.1109(4) 0.64744(15)
C34 C 0.0687(3) 0.2125(4) 0.60471(15)
H11 H 0.1153 0.2127 0.5829
Zn14 Zn 0.18173(3) 0.69097(5) 0.69070(2)
O27 O 0.37134(18) 0.8773(3) 0.31433(11)
O29 O 0.12001(18) 0.9308(3) 0.13269(10)
O31 O 0.12047(19) 0.6231(3) 0.17854(11)
O33 O 0.38696(18) 0.5631(3) 0.36411(10)
O23 O 0.2814(2) 0.9411(4) 0.91663(12)
O24 O 0.38696(18) 0.9369(3) 0.86411(10)
C37 C 0.3597(3) 0.9564(4) 0.90952(16)
C46 C 0.4318(3) 0.9848(4) 0.95636(15)
O18 O 0.12047(19) 0.8769(3) 0.67854(11)
C31 C 0.1430(3) 0.9927(4) 0.65501(14)
O11 O 0.87953(19) 0.1231(3) 0.32146(11)
C10 C 0.8570(3) 0.0073(4) 0.34499(14)
Zn11 Zn 0.81827(3) 0.30903(5) 0.30930(2)
O3 O 0.77747(19) 0.5183(3) 0.41592(11)
O4 O 0.78432(19) 0.9873(3) 0.36108(12)
O10 O 0.87999(18) 0.4308(3) 0.36731(10)
C2 C 0.8537(3) 0.4793(4) 0.40986(15)
C4 C 0.9956(2) 0.8863(4) 0.31930(14)
H1 H 0.9935 0.9532 0.2897
C8 C 0.9285(3) 0.4960(4) 0.45766(15)
C15 C 0.9286(3) 0.8891(4) 0.35256(15)
C18 C 0.9313(3) 0.7875(4) 0.39529(15)
H5 H 0.8847 0.7873 0.4171
O13 O 0.81009(17) 0.3298(3) 0.69903(10)
O16 O 0.86556(17) 0.1270(3) 0.74317(10)
C26 C 0.8642(2) 0.2220(4) 0.70601(14)
C28 C 0.9305(2) 0.3115(4) 0.62580(15)
H10 H 0.8810 0.3768 0.6173
C30 C 0.9993(3) 0.3114(4) 0.59410(14)
C32 C 0.9343(3) 0.2155(4) 0.67014(15)
C35 C 0.9268(3) 0.4116(4) 0.50417(15)
H12 H 0.8757 0.3522 0.5071
C36 C 0.9963(2) 0.4113(4) 0.54584(14)
O28 O 0.62866(18) 0.1227(3) 0.68567(11)
O30 O 0.87999(18) 0.0692(3) 0.86731(10)
O32 O 0.87953(19) 0.3769(3) 0.82146(11)
O34 O 0.61304(18) 0.4369(3) 0.63589(10)
O3_2 O 0.22253(19) 0.0183(3) 0.08408(11)
O4_2 O 0.21568(19) 0.4873(3) 0.13892(12)
C4_2 C 0.0044(2) 0.3863(4) 0.18070(14)
H1_2 H 0.0065 0.4532 0.2103
C10_2 C 0.1430(3) 0.5073(4) 0.15501(14)
C15_2 C 0.0714(3) 0.3891(4) 0.14744(15)
C18_2 C 0.0687(3) 0.2875(4) 0.10471(15)
H5_2 H 0.1153 0.2873 0.0829
C2_2 C 0.1463(3) 0.9793(4) 0.09014(15)
C8_2 C 0.0715(3) 0.9960(4) 0.04234(15)
O13_2 O 0.18991(17) 0.8298(3) 0.80097(10)
O16_2 O 0.13444(17) 0.6270(3) 0.75683(10)
C26_2 C 0.1358(2) 0.7220(4) 0.79399(14)
C28_2 C 0.0695(2) 0.8115(4) 0.87420(15)
H10_2 H 0.1190 0.8768 0.8827
C30_2 C 0.0007(3) 0.8114(4) 0.90590(14)
C32_2 C 0.0657(3) 0.7155(4) 0.82986(15)
C35_2 C 0.0732(3) 0.9116(4) 0.99583(15)
H12_2 H 0.1243 0.8522 0.9929
C36_2 C 0.0037(2) 0.9113(4) 0.95416(14)
O25 O 0.30883(17) 0.6834(3) 0.69163(10)
O26 O 0.36845(16) 0.8766(3) 0.74078(10)
O22_2 O 0.71381(19) 0.0151(3) 0.63092(12)
C44_2 C 0.6475(3) 0.0215(4) 0.65381(14)
O1_2 O 0.81009(17) 0.1702(3) 0.19903(10)
O2_2 O 0.69117(17) 0.3166(3) 0.30837(10)
O5_2 O 0.63155(16) 0.1234(3) 0.25922(10)
O7_2 O 0.86556(17) 0.3730(3) 0.24317(10)
O9_2 O 0.2814(2) 0.5589(4) 0.41663(12)
C1_2 C 0.3597(3) 0.5436(4) 0.40952(16)
C3_2 C 0.8642(2) 0.2780(4) 0.20601(14)
C5_2 C 0.9305(2) 0.1885(4) 0.12580(15)
H2_2 H 0.8810 0.1232 0.1173
C6_2 C 0.5669(3) 0.3960(4) 0.49843(15)
H3_2 H 0.6133 0.3254 0.4970
C7_2 C 0.4956(2) 0.3021(4) 0.40869(15)
C9_2 C 0.9993(3) 0.1886(4) 0.09410(14)
C11_2 C 0.6327(3) 0.2134(4) 0.29758(15)
C12_2 C 0.9343(3) 0.2845(4) 0.17014(15)
C13_2 C 0.4922(2) 0.1034(4) 0.32288(15)
H4_2 H 0.4909 0.0361 0.2935
C14_2 C 0.5619(3) 0.2051(4) 0.33314(14)
C16_2 C 0.4974(2) 0.4087(4) 0.45427(14)
C19_2 C 0.5639(3) 0.3026(4) 0.37711(14)
H6_2 H 0.6127 0.3695 0.3853
C20_2 C 0.4318(3) 0.5152(4) 0.45636(15)
C21_2 C 0.4237(2) 0.0990(4) 0.35545(14)
C22_2 C 0.9268(3) 0.0884(4) 0.00417(15)
H7_2 H 0.8757 0.1478 0.0071
C23_2 C 0.4251(3) 0.1998(4) 0.39664(15)
H8_2 H 0.3772 0.2006 0.4176
C24_2 C 0.9963(2) 0.0887(4) 0.04584(14)
O23_2 O 0.7186(2) 0.4411(4) 0.58337(12)
C37_2 C 0.6403(3) 0.4564(4) 0.59048(16)
C38_2 C 0.4331(3) 0.6040(4) 0.50157(15)
H13_2 H 0.3867 0.6746 0.5030
C39_2 C 0.5044(2) 0.6979(4) 0.59131(15)
C40_2 C 0.3673(3) 0.7866(4) 0.70242(15)
C41_2 C 0.5078(2) 0.8966(4) 0.67712(15)
H14_2 H 0.5091 0.9639 0.7065
C42_2 C 0.4381(3) 0.7949(4) 0.66686(14)
C43_2 C 0.5026(2) 0.5913(4) 0.54573(14)
C45_2 C 0.4361(3) 0.6974(4) 0.62289(14)
H15_2 H 0.3873 0.6305 0.6147
C46_2 C 0.5682(3) 0.4848(4) 0.54364(15)
C47_2 C 0.5763(2) 0.9010(4) 0.64455(14)
C48_2 C 0.5749(3) 0.8002(4) 0.60336(15)
H16_2 H 0.6228 0.7994 0.5824
C25_2 C 0.8537(3) 0.0207(4) 0.90986(15)
C29_2 C 0.9285(3) 0.0040(4) 0.95766(15)
O8_2 O 0.28619(19) 0.9849(3) 0.36908(12)
C17_2 C 0.3525(3) 0.9785(4) 0.34619(14)
O14_2 O 0.77747(19) 0.9817(3) 0.91592(11)
O15_2 O 0.78432(19) 0.5127(3) 0.86108(12)
C27_2 C 0.9956(2) 0.6137(4) 0.81930(14)
H9_2 H 0.9935 0.5468 0.7897
C31_2 C 0.8570(3) 0.4927(4) 0.84499(14)
C33_2 C 0.9286(3) 0.6109(4) 0.85256(15)
C34_2 C 0.9313(3) 0.7125(4) 0.89529(15)
H11_2 H 0.8847 0.7127 0.9171
loop_
_geom_bond_atom_site_label_1
_geom_bond_atom_site_label_2
_geom_bond_site_symmetry_1
_geom_bond_site_symmetry_2
O9 C1 1_555 1_555
O12 C1 1_555 1_555
C1 C20 1_555 1_555
Zn6 O12 1_555 1_555
O19 C40 1_555 1_555
O20 C40 1_555 1_555
O21 C44 1_555 1_555
O22 C44 1_555 1_555
H13 C38 1_555 1_555
C39 C43 1_555 1_555
C40 C42 1_555 1_555
C41 H14 1_555 1_555
C42 C41 1_555 1_555
C43 C38 1_555 1_555
C44 C47 1_555 1_555
C45 C39 1_555 1_555
H15 C45 1_555 1_555
C47 C41 1_555 1_555
C48 C39 1_555 1_555
H16 C48 1_555 1_555
Zn7 O20 1_555 1_555
Zn9 O21 1_555 1_555
Zn12 O19 1_555 1_555
C42 C45 1_555 1_555
C47 C48 1_555 1_555
Zn1 O1 1_555 1_555
Zn2 O2 1_555 1_555
O1 C3 1_555 1_555
O2 C11 1_555 1_555
O5 Zn1 1_555 1_555
O6 C17 1_555 1_555
O7 Zn2 1_555 1_555
O8 C17 1_555 1_555
C3 O7 1_555 1_555
C5 H2 1_555 1_555
C6 H3 1_555 1_555
C7 C16 1_555 1_555
C9 C5 1_555 1_555
C11 O5 1_555 1_555
C12 C3 1_555 1_555
C13 H4 1_555 1_555
C14 C11 1_555 1_555
C16 C6 1_555 1_555
C17 C21 1_555 1_555
C19 C7 1_555 1_555
H6 C19 1_555 1_555
C21 C13 1_555 1_555
C22 H7 1_555 1_555
C23 C7 1_555 1_555
H8 C23 1_555 1_555
C24 C9 1_555 1_555
O14 C25 1_555 1_555
O17 C25 1_555 1_555
C25 C29 1_555 1_555
C27 H9 1_555 1_555
C29 C22 1_555 1_555
C33 C27 1_555 1_555
H11 C34 1_555 1_555
Zn6 O6 1_555 1_555
Zn14 O17 1_555 1_555
O27 Zn1 1_555 1_555
O29 Zn2 1_555 1_555
O31 Zn2 1_555 1_555
O33 Zn1 1_555 1_555
C5 C12 1_555 1_555
C13 C14 1_555 1_555
C14 C19 1_555 1_555
C21 C23 1_555 1_555
C22 C24 1_555 1_555
C33 C34 1_555 1_555
O23 C37 1_555 1_555
O24 C37 1_555 1_555
C37 C46 1_555 1_555
Zn9 O24 1_555 1_555
O18 C31 1_555 1_555
Zn14 O18 1_555 1_555
O11 C10 1_555 1_555
Zn11 O11 1_555 1_555
O3 C2 1_555 1_555
O10 C2 1_555 1_555
C2 C8 1_555 1_555
C4 H1 1_555 1_555
C15 C4 1_555 1_555
H5 C18 1_555 1_555
O13 C26 1_555 1_555
O16 C26 1_555 1_555
C26 C32 1_555 1_555
C28 H10 1_555 1_555
C30 C28 1_555 1_555
C35 C8 1_555 1_555
H12 C35 1_555 1_555
Zn7 O13 1_555 1_555
Zn12 O16 1_555 1_555
Zn11 O10 1_555 1_555
O28 Zn7 1_555 1_555
O30 Zn12 1_555 1_555
O32 Zn12 1_555 1_555
O34 Zn7 1_555 1_555
C15 C18 1_555 1_555
C28 C32 1_555 1_555
C30 C36 1_555 1_555
C35 C36 1_555 1_555
O4_2 C10_2 1_555 1_555
O31 C10_2 1_555 1_555
C4_2 H1_2 1_555 1_555
C10_2 C15_2 1_555 1_555
C15_2 C4_2 1_555 1_555
H5_2 C18_2 1_555 1_555
C15_2 C18_2 1_555 1_555
O29 C2_2 1_555 1_555
C2_2 C8_2 1_555 1_555
O13_2 C26_2 1_555 1_555
O16_2 C26_2 1_555 1_555
C26_2 C32_2 1_555 1_555
C28_2 H10_2 1_555 1_555
C30_2 C28_2 1_555 1_555
H12_2 C35_2 1_555 1_555
Zn9 O13_2 1_555 1_555
Zn14 O16_2 1_555 1_555
O25 Zn14 1_555 1_555
O26 Zn9 1_555 1_555
C28_2 C32_2 1_555 1_555
C30_2 C36_2 1_555 1_555
C35_2 C36_2 1_555 1_555
O28 C44_2 1_555 1_555
O22_2 C44_2 1_555 1_555
Zn6 O1_2 1_555 1_555
Zn11 O2_2 1_555 1_555
O1_2 C3_2 1_555 1_555
O2_2 C11_2 1_555 1_555
O5_2 Zn6 1_555 1_555
O7_2 Zn11 1_555 1_555
O9_2 C1_2 1_555 1_555
O33 C1_2 1_555 1_555
C1_2 C20_2 1_555 1_555
C3_2 O7_2 1_555 1_555
C5_2 H2_2 1_555 1_555
C6_2 H3_2 1_555 1_555
C7_2 C16_2 1_555 1_555
C9_2 C5_2 1_555 1_555
C11_2 O5_2 1_555 1_555
C12_2 C3_2 1_555 1_555
C13_2 H4_2 1_555 1_555
C14_2 C11_2 1_555 1_555
C16_2 C6_2 1_555 1_555
C19_2 C7_2 1_555 1_555
H6_2 C19_2 1_555 1_555
C20_2 C16_2 1_555 1_555
C21_2 C13_2 1_555 1_555
C22_2 H7_2 1_555 1_555
C23_2 C7_2 1_555 1_555
H8_2 C23_2 1_555 1_555
C24_2 C9_2 1_555 1_555
O25 C40_2 1_555 1_555
O26 C40_2 1_555 1_555
O23_2 C37_2 1_555 1_555
O34 C37_2 1_555 1_555
C37_2 C46_2 1_555 1_555
C38_2 C20_2 1_555 1_555
H13_2 C38_2 1_555 1_555
C39_2 C43_2 1_555 1_555
C40_2 C42_2 1_555 1_555
C41_2 H14_2 1_555 1_555
C42_2 C41_2 1_555 1_555
C43_2 C38_2 1_555 1_555
C45_2 C39_2 1_555 1_555
H15_2 C45_2 1_555 1_555
C46_2 C6_2 1_555 1_555
C47_2 C41_2 1_555 1_555
C48_2 C39_2 1_555 1_555
H16_2 C48_2 1_555 1_555
C5_2 C12_2 1_555 1_555
C13_2 C14_2 1_555 1_555
C14_2 C19_2 1_555 1_555
C21_2 C23_2 1_555 1_555
C22_2 C24_2 1_555 1_555
C42_2 C45_2 1_555 1_555
C43_2 C46_2 1_555 1_555
C47_2 C48_2 1_555 1_555
O30 C25_2 1_555 1_555
C25_2 C29_2 1_555 1_555
O27 C17_2 1_555 1_555
O8_2 C17_2 1_555 1_555
O15_2 C31_2 1_555 1_555
O32 C31_2 1_555 1_555
C27_2 H9_2 1_555 1_555
C31_2 C33_2 1_555 1_555
C33_2 C27_2 1_555 1_555
H11_2 C34_2 1_555 1_555
C33_2 C34_2 1_555 1_555

#END
