
###############################################################################
#
# This file contains modified crystal structure data generated from the
# MOF subset of the Cambridge Structural Database (CSD) v543 
# hosted by the Cambridge Crystallographic Data Centre (CCDC).
#
# This work is licensed under the Creative Commons
# Attribution-NonCommercial-ShareAlike 4.0 International License.
# To view a copy of this license, visit
# http://creativecommons.org/licenses/by-nc-sa/4.0/
# or send a letter to
# Creative Commons, PO Box 1866, Mountain View, CA 94042, USA.
#
# CIF created using the CSD Python API on 29 September 2022
# The structure has been converted into the P1 space group
# The structure has a 3D framework
# The original CSD entry VOVKUO is in the orthorhombic crystal system
# The framework has been calculated to contain at least 10.0% void space
# The void calculation uses a probe of radius 1.32A, grid spacing 0.4
# The framework is charged, counterions have been retained in the structure
# H atom positions have been added when not included in the experimental data
#
###############################################################################

data_VOVKUO
_chemical_formula_moiety         '(C44 H44 N8 O104 U24)n'
_symmetry_cell_setting           triclinic
_symmetry_space_group_name_H-M   'P 1'
_symmetry_Int_Tables_number      1
_space_group_name_Hall           'P 1'
loop_
_symmetry_equiv_pos_site_id
_symmetry_equiv_pos_as_xyz
1 x,y,z
_cell_length_a                   12.647(3)
_cell_length_b                   13.284(3)
_cell_length_c                   24.926(5)
_cell_angle_alpha                90
_cell_angle_beta                 90
_cell_angle_gamma                90
_cell_volume                     4187.64
loop_
_atom_site_label
_atom_site_type_symbol
_atom_site_fract_x
_atom_site_fract_y
_atom_site_fract_z
O14 O 0.0326(11) 0.3913(11) 0.6308(5)
O21 O 0.1262(10) 0.6582(11) 0.6030(5)
C14 C 0.0428(15) 0.6068(16) 0.5990(8)
C15 C 0.0260(15) 0.5469(15) 0.5488(7)
C16 C 0.051(2) 0.591(2) 0.5000
H4 H 0.0862 0.6529 0.5000
O23 O 0.1262(10) 0.6582(11) 0.3970(5)
C17 C 0.0428(15) 0.6068(16) 0.4010(8)
C18 C 0.0260(15) 0.5469(15) 0.4512(7)
O26 O 0.0326(11) 0.3913(11) 0.3692(5)
O57 O 0.0925(11) 0.1642(11) 0.7728(6)
O60 O 0.0925(11) 0.1642(11) 0.2272(6)
U13 U 0.11111(6) 0.28808(6) 0.69747(3)
U18 U 0.11111(6) 0.28808(6) 0.30253(3)
U19 U 0.23894(6) 0.69273(6) 0.67798(3)
U20 U 0.23894(6) 0.69273(6) 0.32202(3)
O1 O 0.5925(11) 0.3358(11) 0.7272(6)
U1 U 0.61111(6) 0.21192(6) 0.80253(3)
O2 O 0.5785(13) 0.1148(12) 0.7565(6)
O3 O 0.6376(13) 0.3138(13) 0.8475(7)
U2 U 0.76106(6) 0.30727(6) 0.67798(3)
O4 O 0.7183(13) 0.1964(12) 0.6479(6)
O5 O 0.8032(12) 0.4222(12) 0.7055(6)
U3 U 0.90564(6) 0.17151(6) 0.79409(3)
O6 O 0.8909(12) 0.0496(12) 0.7636(6)
O7 O 0.9260(14) 0.2872(14) 0.8243(7)
O8 O 0.7565(11) 0.1279(13) 0.8472(6)
O9 O 0.9331(10) 0.2283(11) 0.7005(5)
O10 O 0.7582(12) 0.2371(15) 0.7569(6)
O11 O 0.6581(13) 0.3965(14) 0.6120(6)
O12 O 0.4848(13) 0.3935(15) 0.6299(6)
O13 O 0.8738(10) 0.3418(11) 0.6030(5)
C1 C 0.5631(18) 0.4142(19) 0.6002(8)
C2 C 0.5357(16) 0.4607(17) 0.5478(8)
C3 C 0.573(2) 0.421(2) 0.5000
H1 H 0.6216 0.3689 0.5000
C4 C 0.9572(15) 0.3932(16) 0.5990(8)
C5 C 0.9740(15) 0.4531(15) 0.5488(7)
C6 C 0.949(2) 0.409(2) 0.5000
H2 H 0.9138 0.3471 0.5000
O15 O 0.3419(13) 0.6035(14) 0.6120(6)
O16 O 0.5152(13) 0.6065(15) 0.6299(6)
C7 C 0.4369(18) 0.5858(19) 0.6002(8)
C8 C 0.4643(16) 0.5393(17) 0.5478(8)
C9 C 0.427(2) 0.579(2) 0.5000
H3 H 0.3784 0.6311 0.5000
O17 O 0.3419(13) 0.6035(14) 0.3880(6)
O18 O 0.5152(13) 0.6065(15) 0.3701(6)
C10 C 0.4369(18) 0.5858(19) 0.3998(8)
C11 C 0.4643(16) 0.5393(17) 0.4522(8)
O19 O 0.6581(13) 0.3965(14) 0.3880(6)
O20 O 0.4848(13) 0.3935(15) 0.3701(6)
C12 C 0.5631(18) 0.4142(19) 0.3998(8)
C13 C 0.5357(16) 0.4607(17) 0.4522(8)
O22 O 0.9674(11) 0.6087(11) 0.6308(5)
O24 O 0.9674(11) 0.6087(11) 0.3692(5)
O25 O 0.8738(10) 0.3418(11) 0.3970(5)
C19 C 0.9572(15) 0.3932(16) 0.4010(8)
C20 C 0.9740(15) 0.4531(15) 0.4512(7)
O27 O 0.4075(11) 0.6642(11) 0.7272(6)
U4 U 0.38889(6) 0.78808(6) 0.80253(3)
O28 O 0.4215(13) 0.8852(12) 0.7565(6)
O29 O 0.3624(13) 0.6862(13) 0.8475(7)
O30 O 0.2817(13) 0.8036(12) 0.6479(6)
O31 O 0.1968(12) 0.5778(12) 0.7055(6)
U6 U 0.09436(6) 0.82849(6) 0.79409(3)
O32 O 0.1091(12) 0.9504(12) 0.7636(6)
O33 O 0.0740(14) 0.7128(14) 0.8243(7)
O34 O 0.2435(11) 0.8721(13) 0.8472(6)
O35 O 0.0669(10) 0.7717(11) 0.7005(5)
O36 O 0.2418(12) 0.7629(15) 0.7569(6)
O37 O 0.4075(11) 0.6642(11) 0.2728(6)
U7 U 0.38889(6) 0.78808(6) 0.19747(3)
O38 O 0.4215(13) 0.8852(12) 0.2435(6)
O39 O 0.3624(13) 0.6862(13) 0.1525(7)
O40 O 0.2817(13) 0.8036(12) 0.3521(6)
O41 O 0.1968(12) 0.5778(12) 0.2945(6)
U9 U 0.09436(6) 0.82849(6) 0.20591(3)
O42 O 0.1091(12) 0.9504(12) 0.2364(6)
O43 O 0.0740(14) 0.7128(14) 0.1757(7)
O44 O 0.2435(11) 0.8721(13) 0.1528(6)
O45 O 0.0669(10) 0.7717(11) 0.2995(5)
O46 O 0.2418(12) 0.7629(15) 0.2431(6)
O47 O 0.5925(11) 0.3358(11) 0.2728(6)
U10 U 0.61111(6) 0.21192(6) 0.19747(3)
O48 O 0.5785(13) 0.1148(12) 0.2435(6)
O49 O 0.6376(13) 0.3138(13) 0.1525(7)
U11 U 0.76106(6) 0.30727(6) 0.32202(3)
O50 O 0.7183(13) 0.1964(12) 0.3521(6)
O51 O 0.8032(12) 0.4222(12) 0.2945(6)
U12 U 0.90564(6) 0.17151(6) 0.20591(3)
O52 O 0.8909(12) 0.0496(12) 0.2364(6)
O53 O 0.9260(14) 0.2872(14) 0.1757(7)
O54 O 0.7565(11) 0.1279(13) 0.1528(6)
O55 O 0.9331(10) 0.2283(11) 0.2995(5)
O56 O 0.7582(12) 0.2371(15) 0.2431(6)
U15 U 0.88889(6) 0.71192(6) 0.69747(3)
U17 U 0.88889(6) 0.71192(6) 0.30253(3)
U21 U 0.40564(6) 0.32849(6) 0.70591(3)
U22 U 0.59436(6) 0.67151(6) 0.70591(3)
U23 U 0.59436(6) 0.67151(6) 0.29409(3)
U24 U 0.40564(6) 0.32849(6) 0.29409(3)
O61 O 0.4331(10) 0.2717(11) 0.7995(5)
O62 O 0.5669(10) 0.7283(11) 0.7995(5)
O63 O 0.5669(10) 0.7283(11) 0.2005(5)
O64 O 0.4331(10) 0.2717(11) 0.2005(5)
O65 O 0.9848(13) 0.1065(15) 0.8701(6)
O66 O 0.0152(13) 0.8935(15) 0.8701(6)
O67 O 0.0152(13) 0.8935(15) 0.1299(6)
O68 O 0.9848(13) 0.1065(15) 0.1299(6)
O71 O 0.5326(11) 0.1087(11) 0.8692(5)
O72 O 0.4674(11) 0.8913(11) 0.8692(5)
O73 O 0.4674(11) 0.8913(11) 0.1308(5)
O74 O 0.5326(11) 0.1087(11) 0.1308(5)
O58 O 0.9075(11) 0.8358(11) 0.7728(6)
O59 O 0.9075(11) 0.8358(11) 0.2272(6)
C3_2 C 0.073(2) 0.079(2) 0.0000
H1_2 H 0.1216 0.1311 0.0000
C6_2 C 0.449(2) 0.091(2) 0.0000
H2_2 H 0.4138 0.1529 0.0000
O19_2 O 0.1581(13) 0.1035(14) 0.1120(6)
C12_2 C 0.0631(18) 0.0858(19) 0.1002(8)
C13_2 C 0.0357(16) 0.0393(17) 0.0478(8)
O25_2 O 0.3738(10) 0.1582(11) 0.1030(5)
C19_2 C 0.4572(15) 0.1068(16) 0.0990(8)
C20_2 C 0.4740(15) 0.0469(15) 0.0488(7)
O48_2 O 0.0785(13) 0.3852(12) 0.2565(6)
O49_2 O 0.1376(13) 0.1862(13) 0.3475(7)
U11_2 U 0.26106(6) 0.19273(6) 0.17798(3)
O50_2 O 0.2183(13) 0.3036(12) 0.1479(6)
O51_2 O 0.3032(12) 0.0778(12) 0.2055(6)
O52_2 O 0.3909(12) 0.4504(12) 0.2636(6)
O53_2 O 0.4260(14) 0.2128(14) 0.3243(7)
O54_2 O 0.2565(11) 0.3721(13) 0.3472(6)
O56_2 O 0.2582(12) 0.2629(15) 0.2569(6)
O2_2 O 0.0785(13) 0.3852(12) 0.7435(6)
O3_2 O 0.1376(13) 0.1862(13) 0.6525(7)
U2_2 U 0.26106(6) 0.19273(6) 0.82202(3)
O4_2 O 0.2183(13) 0.3036(12) 0.8521(6)
O5_2 O 0.3032(12) 0.0778(12) 0.7945(6)
O6_2 O 0.3909(12) 0.4504(12) 0.7364(6)
O7_2 O 0.4260(14) 0.2128(14) 0.6757(7)
O8_2 O 0.2565(11) 0.3721(13) 0.6528(6)
O10_2 O 0.2582(12) 0.2629(15) 0.7431(6)
O11_2 O 0.1581(13) 0.1035(14) 0.8880(6)
O13_2 O 0.3738(10) 0.1582(11) 0.8970(5)
C1_2 C 0.0631(18) 0.0858(19) 0.8998(8)
C2_2 C 0.0357(16) 0.0393(17) 0.9522(8)
C3_3 C 0.073(2) 0.079(2) 1.0000
H1_3 H 0.1216 0.1311 1.0000
C4_2 C 0.4572(15) 0.1068(16) 0.9010(8)
C5_2 C 0.4740(15) 0.0469(15) 0.9512(7)
C6_3 C 0.449(2) 0.091(2) 1.0000
H2_3 H 0.4138 0.1529 1.0000
C16_2 C 0.551(2) 0.909(2) 0.0000
H4_2 H 0.5862 0.8471 0.0000
O23_2 O 0.6262(10) 0.8418(11) 0.1030(5)
C17_2 C 0.5428(15) 0.8932(16) 0.0990(8)
C18_2 C 0.5260(15) 0.9531(15) 0.0488(7)
U20_2 U 0.73894(6) 0.80727(6) 0.17798(3)
O21_2 O 0.6262(10) 0.8418(11) 0.8970(5)
C14_2 C 0.5428(15) 0.8932(16) 0.9010(8)
C15_2 C 0.5260(15) 0.9531(15) 0.9512(7)
C16_3 C 0.551(2) 0.909(2) 1.0000
H4_3 H 0.5862 0.8471 1.0000
U19_2 U 0.73894(6) 0.80727(6) 0.82202(3)
C9_2 C 0.927(2) 0.921(2) 0.0000
H3_2 H 0.8784 0.8689 0.0000
O17_2 O 0.8419(13) 0.8965(14) 0.1120(6)
C10_2 C 0.9369(18) 0.9142(19) 0.1002(8)
C11_2 C 0.9643(16) 0.9607(17) 0.0478(8)
O38_2 O 0.9215(13) 0.6148(12) 0.2565(6)
O39_2 O 0.8624(13) 0.8138(13) 0.3475(7)
O40_2 O 0.7817(13) 0.6964(12) 0.1479(6)
O41_2 O 0.6968(12) 0.9222(12) 0.2055(6)
O42_2 O 0.6091(12) 0.5496(12) 0.2636(6)
O43_2 O 0.5740(14) 0.7872(14) 0.3243(7)
O44_2 O 0.7435(11) 0.6279(13) 0.3472(6)
O46_2 O 0.7418(12) 0.7371(15) 0.2569(6)
O15_2 O 0.8419(13) 0.8965(14) 0.8880(6)
C7_2 C 0.9369(18) 0.9142(19) 0.8998(8)
C8_2 C 0.9643(16) 0.9607(17) 0.9522(8)
C9_3 C 0.927(2) 0.921(2) 1.0000
H3_3 H 0.8784 0.8689 1.0000
O28_2 O 0.9215(13) 0.6148(12) 0.7435(6)
O29_2 O 0.8624(13) 0.8138(13) 0.6525(7)
O30_2 O 0.7817(13) 0.6964(12) 0.8521(6)
O31_2 O 0.6968(12) 0.9222(12) 0.7945(6)
O32_2 O 0.6091(12) 0.5496(12) 0.7364(6)
O33_2 O 0.5740(14) 0.7872(14) 0.6757(7)
O34_2 O 0.7435(11) 0.6279(13) 0.6528(6)
O36_2 O 0.7418(12) 0.7371(15) 0.7431(6)
N1 N 0.793(3) 0.4829(19) 0.1810(9)
H5 H 0.873256 0.4829 0.181
H6 H 0.766248 0.545287 0.161804
H7 H 0.766248 0.420513 0.161804
H8 H 0.766248 0.4829 0.219392
N1_2 N 0.207(3) 0.5171(19) 0.1810(9)
H5_2 H 0.126744 0.5171 0.181
H6_2 H 0.233752 0.454713 0.161804
H7_2 H 0.233752 0.579487 0.161804
H8_2 H 0.233752 0.5171 0.219392
N1_3 N 0.293(3) 0.0171(19) 0.3190(9)
H5_3 H 0.373256 0.0171 0.319
H7_3 H 0.266248 0.0794866 0.338196
H8_3 H 0.266248 0.0171 0.280608
H6_3 H 0.266248 0.954713 0.338196
H6_4 H 0.733752 0.0452866 0.338196
N1_4 N 0.707(3) 0.9829(19) 0.3190(9)
H5_4 H 0.626744 0.9829 0.319
H7_4 H 0.733752 0.920513 0.338196
H8_4 H 0.733752 0.9829 0.280608
N1_5 N 0.207(3) 0.5171(19) 0.8190(9)
H5_5 H 0.126744 0.5171 0.819
H6_5 H 0.233752 0.454713 0.838196
H7_5 H 0.233752 0.579487 0.838196
H8_5 H 0.233752 0.5171 0.780608
N1_6 N 0.793(3) 0.4829(19) 0.8190(9)
H5_6 H 0.873256 0.4829 0.819
H6_6 H 0.766248 0.545287 0.838196
H7_6 H 0.766248 0.420513 0.838196
H8_6 H 0.766248 0.4829 0.780608
H6_7 H 0.733752 0.0452866 0.661804
N1_7 N 0.707(3) 0.9829(19) 0.6810(9)
H5_7 H 0.626744 0.9829 0.681
H7_7 H 0.733752 0.920513 0.661804
H8_7 H 0.733752 0.9829 0.719392
N1_8 N 0.293(3) 0.0171(19) 0.6810(9)
H5_8 H 0.373256 0.0171 0.681
H7_8 H 0.266248 0.0794866 0.661804
H8_8 H 0.266248 0.0171 0.719392
H6_8 H 0.266248 0.954713 0.661804
loop_
_geom_bond_atom_site_label_1
_geom_bond_atom_site_label_2
_geom_bond_site_symmetry_1
_geom_bond_site_symmetry_2
O21 C14 1_555 1_555
C14 C15 1_555 1_555
C16 C15 1_555 1_555
H4 C16 1_555 1_555
O23 C17 1_555 1_555
C17 C18 1_555 1_555
C18 C16 1_555 1_555
U18 O26 1_555 1_555
U19 O21 1_555 1_555
U20 O23 1_555 1_555
O14 U13 1_555 1_555
O57 U13 1_555 1_555
O60 U18 1_555 1_555
O1 U1 1_555 1_555
U1 O2 1_555 1_555
O3 U1 1_555 1_555
U2 O1 1_555 1_555
O4 U2 1_555 1_555
O5 U2 1_555 1_555
U3 O6 1_555 1_555
O7 U3 1_555 1_555
O8 U1 1_555 1_555
O9 U2 1_555 1_555
O10 U1 1_555 1_555
O11 U2 1_555 1_555
O12 C1 1_555 1_555
O13 U2 1_555 1_555
C1 O11 1_555 1_555
C2 C1 1_555 1_555
C3 C2 1_555 1_555
H1 C3 1_555 1_555
C4 O13 1_555 1_555
C5 C4 1_555 1_555
C6 C5 1_555 1_555
H2 C6 1_555 1_555
O15 C7 1_555 1_555
O16 C7 1_555 1_555
C7 C8 1_555 1_555
C8 C2 1_555 1_555
C9 C8 1_555 1_555
H3 C9 1_555 1_555
O17 C10 1_555 1_555
O18 C10 1_555 1_555
C10 C11 1_555 1_555
C11 C9 1_555 1_555
O19 C12 1_555 1_555
O20 C12 1_555 1_555
C12 C13 1_555 1_555
C13 C3 1_555 1_555
O25 C19 1_555 1_555
C19 C20 1_555 1_555
C20 C6 1_555 1_555
O27 U4 1_555 1_555
U4 O28 1_555 1_555
O29 U4 1_555 1_555
U19 O15 1_555 1_555
O30 U19 1_555 1_555
O31 U19 1_555 1_555
U6 O32 1_555 1_555
O33 U6 1_555 1_555
O34 U4 1_555 1_555
O35 U19 1_555 1_555
O36 U4 1_555 1_555
O37 U7 1_555 1_555
U7 O38 1_555 1_555
O39 U7 1_555 1_555
U20 O17 1_555 1_555
O40 U20 1_555 1_555
O41 U20 1_555 1_555
U9 O42 1_555 1_555
O43 U9 1_555 1_555
O44 U7 1_555 1_555
O45 U20 1_555 1_555
O46 U7 1_555 1_555
O47 U10 1_555 1_555
U10 O48 1_555 1_555
O49 U10 1_555 1_555
U11 O19 1_555 1_555
O50 U11 1_555 1_555
O51 U11 1_555 1_555
U12 O52 1_555 1_555
O53 U12 1_555 1_555
O54 U10 1_555 1_555
O55 U11 1_555 1_555
O56 U10 1_555 1_555
U15 O22 1_555 1_555
U17 O24 1_555 1_555
U21 O1 1_555 1_555
U22 O16 1_555 1_555
U23 O18 1_555 1_555
U24 O20 1_555 1_555
O61 U1 1_555 1_555
O62 U4 1_555 1_555
O63 U7 1_555 1_555
O64 U10 1_555 1_555
O65 U3 1_555 1_555
O66 U6 1_555 1_555
O67 U9 1_555 1_555
O68 U12 1_555 1_555
O71 U1 1_555 1_555
O72 U4 1_555 1_555
O73 U7 1_555 1_555
O74 U10 1_555 1_555
U2 O10 1_555 1_555
U3 O8 1_555 1_555
U3 O9 1_555 1_555
U3 O10 1_555 1_555
O12 U21 1_555 1_555
C11 C13 1_555 1_555
O25 U11 1_555 1_555
O27 U19 1_555 1_555
O27 U22 1_555 1_555
U19 O36 1_555 1_555
U6 O34 1_555 1_555
U6 O35 1_555 1_555
U6 O36 1_555 1_555
O37 U20 1_555 1_555
O37 U23 1_555 1_555
U20 O46 1_555 1_555
U9 O44 1_555 1_555
U9 O45 1_555 1_555
U9 O46 1_555 1_555
O47 U11 1_555 1_555
O47 U24 1_555 1_555
U11 O56 1_555 1_555
U12 O54 1_555 1_555
U12 O55 1_555 1_555
U12 O56 1_555 1_555
U21 O61 1_555 1_555
U22 O62 1_555 1_555
U23 O63 1_555 1_555
U24 O64 1_555 1_555
O58 U15 1_555 1_555
O59 U17 1_555 1_555
H1_2 C3_2 1_555 1_555
H2_2 C6_2 1_555 1_555
O19_2 C12_2 1_555 1_555
C12_2 C13_2 1_555 1_555
C13_2 C3_2 1_555 1_555
O25_2 C19_2 1_555 1_555
O74 C19_2 1_555 1_555
C19_2 C20_2 1_555 1_555
C20_2 C6_2 1_555 1_555
U18 O48_2 1_555 1_555
O49_2 U18 1_555 1_555
U11_2 O19_2 1_555 1_555
O50_2 U11_2 1_555 1_555
O51_2 U11_2 1_555 1_555
U24 O52_2 1_555 1_555
O53_2 U24 1_555 1_555
O54_2 U18 1_555 1_555
O64 U11_2 1_555 1_555
O56_2 U18 1_555 1_555
O25_2 U11_2 1_555 1_555
O60 U11_2 1_555 1_555
U11_2 O56_2 1_555 1_555
U24 O54_2 1_555 1_555
U24 O56_2 1_555 1_555
U13 O2_2 1_555 1_555
O3_2 U13 1_555 1_555
U2_2 O57 1_555 1_555
O4_2 U2_2 1_555 1_555
O5_2 U2_2 1_555 1_555
U21 O6_2 1_555 1_555
O7_2 U21 1_555 1_555
O8_2 U13 1_555 1_555
O61 U2_2 1_555 1_555
O10_2 U13 1_555 1_555
O11_2 U2_2 1_555 1_555
O13_2 U2_2 1_555 1_555
O71 C4_2 1_555 1_555
C1_2 O11_2 1_555 1_555
C2_2 C1_2 1_555 1_555
C3_3 C2_2 1_555 1_555
H1_3 C3_3 1_555 1_555
C4_2 O13_2 1_555 1_555
C5_2 C4_2 1_555 1_555
C6_3 C5_2 1_555 1_555
H2_3 C6_3 1_555 1_555
U2_2 O10_2 1_555 1_555
U21 O8_2 1_555 1_555
U21 O10_2 1_555 1_555
H4_2 C16_2 1_555 1_555
O23_2 C17_2 1_555 1_555
O73 C17_2 1_555 1_555
C17_2 C18_2 1_555 1_555
C18_2 C16_2 1_555 1_555
U20_2 O23_2 1_555 1_555
O21_2 C14_2 1_555 1_555
O72 C14_2 1_555 1_555
C14_2 C15_2 1_555 1_555
C16_3 C15_2 1_555 1_555
H4_3 C16_3 1_555 1_555
U19_2 O21_2 1_555 1_555
H3_2 C9_2 1_555 1_555
O17_2 C10_2 1_555 1_555
C10_2 C11_2 1_555 1_555
C11_2 C9_2 1_555 1_555
U17 O38_2 1_555 1_555
O39_2 U17 1_555 1_555
U20_2 O17_2 1_555 1_555
O40_2 U20_2 1_555 1_555
O41_2 U20_2 1_555 1_555
U23 O42_2 1_555 1_555
O43_2 U23 1_555 1_555
O44_2 U17 1_555 1_555
O63 U20_2 1_555 1_555
O46_2 U17 1_555 1_555
O59 U20_2 1_555 1_555
U20_2 O46_2 1_555 1_555
U23 O44_2 1_555 1_555
U23 O46_2 1_555 1_555
O15_2 C7_2 1_555 1_555
C7_2 C8_2 1_555 1_555
C9_3 C8_2 1_555 1_555
H3_3 C9_3 1_555 1_555
U15 O28_2 1_555 1_555
O29_2 U15 1_555 1_555
U19_2 O15_2 1_555 1_555
O30_2 U19_2 1_555 1_555
O31_2 U19_2 1_555 1_555
U22 O32_2 1_555 1_555
O33_2 U22 1_555 1_555
O34_2 U15 1_555 1_555
O62 U19_2 1_555 1_555
O36_2 U15 1_555 1_555
O58 U19_2 1_555 1_555
U19_2 O36_2 1_555 1_555
U22 O34_2 1_555 1_555
U22 O36_2 1_555 1_555
N1 H5 1_555 1_555
N1 H6 1_555 1_555
N1 H7 1_555 1_555
N1 H8 1_555 1_555
N1_2 H5_2 1_555 1_555
N1_2 H6_2 1_555 1_555
N1_2 H7_2 1_555 1_555
N1_2 H8_2 1_555 1_555
N1_3 H5_3 1_555 1_555
N1_3 H7_3 1_555 1_555
N1_3 H8_3 1_555 1_555
N1_4 H5_4 1_555 1_555
N1_4 H7_4 1_555 1_555
N1_4 H8_4 1_555 1_555
N1_5 H5_5 1_555 1_555
N1_5 H6_5 1_555 1_555
N1_5 H7_5 1_555 1_555
N1_5 H8_5 1_555 1_555
N1_6 H5_6 1_555 1_555
N1_6 H6_6 1_555 1_555
N1_6 H7_6 1_555 1_555
N1_6 H8_6 1_555 1_555
N1_7 H5_7 1_555 1_555
N1_7 H7_7 1_555 1_555
N1_7 H8_7 1_555 1_555
N1_8 H5_8 1_555 1_555
N1_8 H7_8 1_555 1_555
N1_8 H8_8 1_555 1_555

#END
