
###############################################################################
#
# This file contains modified crystal structure data generated from the
# MOF subset of the Cambridge Structural Database (CSD) v543 
# hosted by the Cambridge Crystallographic Data Centre (CCDC).
#
# This work is licensed under the Creative Commons
# Attribution-NonCommercial-ShareAlike 4.0 International License.
# To view a copy of this license, visit
# http://creativecommons.org/licenses/by-nc-sa/4.0/
# or send a letter to
# Creative Commons, PO Box 1866, Mountain View, CA 94042, USA.
#
# CIF created using the CSD Python API on 29 September 2022
# The structure has been converted into the P1 space group
# The structure has a 3D framework
# The original CSD entry VOWCIV is in the monoclinic crystal system
# The framework has been calculated to contain at least 10.0% void space
# The void calculation uses a probe of radius 1.32A, grid spacing 0.4
#
###############################################################################

data_VOWCIV
_chemical_formula_moiety         '(C96 H72 N16 Ni8 O34)n'
_symmetry_cell_setting           triclinic
_symmetry_space_group_name_H-M   'P 1'
_symmetry_Int_Tables_number      1
_space_group_name_Hall           'P 1'
loop_
_symmetry_equiv_pos_site_id
_symmetry_equiv_pos_as_xyz
1 x,y,z
_cell_length_a                   10.7170(5)
_cell_length_b                   18.7732(8)
_cell_length_c                   13.9105(6)
_cell_angle_alpha                90
_cell_angle_beta                 103.0500(10)
_cell_angle_gamma                90
_cell_volume                     2726.41
loop_
_atom_site_label
_atom_site_type_symbol
_atom_site_fract_x
_atom_site_fract_y
_atom_site_fract_z
N4 N 0.7456(2) 0.06366(13) 0.09552(17)
C22 C 0.8361(3) 0.15343(18) 0.0091(2)
H14 H 0.9045 0.1854 0.0082
C23 C 0.8399(3) 0.10987(16) 0.0896(2)
H15 H 0.9123 0.1126 0.1434
C24 C 0.6451(3) 0.06102(16) 0.0181(2)
H16 H 0.5778 0.0288 0.0210
Ni1 Ni 0.40027(4) 0.11747(2) 0.64278(3)
Ni2 Ni 0.24468(4) 0.01782(2) 0.79929(3)
O1 O 0.43897(19) 0.00770(11) 0.65116(14)
O5 O 0.2254(2) 0.30898(12) 0.34936(15)
O6 O 0.2133(2) 0.41840(11) 0.41114(14)
O7 O 0.43766(19) 0.04631(11) 0.85915(14)
O8 O 0.51484(19) 0.13289(10) 0.77625(14)
O9 O 0.2362(2) 0.10595(11) 0.70299(14)
N2 N 0.0461(2) 0.00373(13) 0.74384(17)
N3 N 0.3650(2) 0.22658(13) 0.62867(17)
C13 C 0.2391(3) 0.35309(17) 0.4193(2)
C14 C 0.2910(3) 0.32593(16) 0.5222(2)
C15 C 0.3180(4) 0.37174(18) 0.6028(2)
H9 H 0.3023 0.4214 0.5944
C16 C 0.3679(4) 0.34389(19) 0.6951(2)
H10 H 0.3870 0.3742 0.7512
C17 C 0.3898(3) 0.27169(18) 0.7054(2)
H11 H 0.4240 0.2531 0.7694
C18 C 0.3180(3) 0.25426(16) 0.5390(2)
H12 H 0.3023 0.2230 0.4839
C19 C 0.5176(3) 0.09292(16) 0.8495(2)
C20 C 0.6334(3) 0.10261(15) 0.9337(2)
C21 C 0.7317(3) 0.15009(17) 0.9294(2)
H13 H 0.7274 0.1795 0.8732
H17 H 0.181(3) 0.110(2) 0.6439(16)
H18 H 0.219(4) 0.1395(17) 0.744(3)
Ni6 Ni 0.24468(4) 0.48218(2) 0.29929(3)
O10 O 0.28937(19) 0.09131(11) 0.50640(14)
O11 O 0.2133(2) 0.08160(11) 0.91114(14)
N5 N 0.5540(2) 0.12795(13) 0.57668(17)
Ni5 Ni 0.75532(4) 0.98218(2) 0.20071(3)
O2 O 0.27682(19) 0.94945(11) 0.69411(14)
N1 N 0.4460(2) 0.87205(13) 0.42332(17)
C1 C 0.3560(3) 0.95949(16) 0.6406(2)
C2 C 0.3468(3) 0.91030(16) 0.5535(2)
C3 C 0.2412(3) 0.86765(17) 0.5162(2)
H1 H 0.1713 0.8657 0.5477
C4 C 0.2399(3) 0.82784(18) 0.4316(2)
H2 H 0.1681 0.7989 0.4038
C5 C 0.3440(3) 0.83071(17) 0.3881(2)
H3 H 0.3430 0.8024 0.3313
C6 C 0.4456(3) 0.91110(16) 0.5042(2)
H4 H 0.5172 0.9410 0.5290
C12 C 0.0002(3) 0.97029(16) 0.6578(2)
H8 H 0.0598 0.9535 0.6218
Ni4 Ni 0.59973(4) 0.88253(2) 0.35722(3)
N6 N 0.2544(2) 0.93634(13) 0.90448(17)
O3 O 0.9124(2) 0.89977(13) 0.47786(15)
O4 O 0.71063(19) 0.90869(11) 0.49360(14)
C7 C 0.8297(3) 0.91964(16) 0.5220(2)
C8 C 0.8712(3) 0.95891(15) 0.6186(2)
C9 C 0.7839(3) 0.98530(17) 0.6700(2)
H5 H 0.6945 0.9789 0.6454
O3_2 O 0.0876(2) 0.39977(13) 0.02214(15)
O4_2 O 0.28937(19) 0.40869(11) 0.00640(14)
Ni3 Ni 0.40027(4) 0.38253(2) 0.14278(3)
O5_2 O 0.7746(2) 0.80898(12) 0.15064(15)
O6_2 O 0.7867(2) 0.91840(11) 0.08886(14)
N1_2 N 0.5540(2) 0.37205(13) 0.07668(17)
C4_2 C 0.7601(3) 0.32784(18) 0.0684(2)
H2_2 H 0.8319 0.2989 0.0962
C5_2 C 0.6560(3) 0.33071(17) 0.1119(2)
H3_2 H 0.6570 0.3024 0.1687
C13_2 C 0.7609(3) 0.85309(17) 0.0807(2)
H12_2 H 0.6977 0.7230 0.0161
Ni1_2 Ni 0.59973(4) 0.61747(2) 0.85722(3)
Ni2_2 Ni 0.75532(4) 0.51782(2) 0.70071(3)
O1_2 O 0.56103(19) 0.50770(11) 0.84884(14)
O2_2 O 0.72318(19) 0.44945(11) 0.80589(14)
O7_2 O 0.56234(19) 0.54631(11) 0.64085(14)
O8_2 O 0.48516(19) 0.63289(10) 0.72375(14)
O9_2 O 0.7638(2) 0.60595(11) 0.79701(14)
N2_2 N 0.9539(2) 0.50373(13) 0.75616(17)
N3_2 N 0.6350(2) 0.72658(13) 0.87133(17)
N4_2 N 0.2544(2) 0.56366(13) 0.40448(17)
C1_2 C 0.6440(3) 0.45949(16) 0.8594(2)
C2_2 C 0.6532(3) 0.41030(16) 0.9465(2)
C3_2 C 0.7588(3) 0.36765(17) 0.9838(2)
H1_2 H 0.8287 0.3657 0.9523
C6_2 C 0.5544(3) 0.41110(16) 0.9958(2)
H4_2 H 0.4828 0.4410 0.9710
C12_2 C 0.9998(3) 0.47029(16) 0.8422(2)
H8_2 H 0.9402 0.4535 0.8782
C14_2 C 0.7090(3) 0.82593(16) 0.9778(2)
C15_2 C 0.6820(4) 0.87174(18) 0.8972(2)
H9_2 H 0.6977 0.9214 0.9056
C16_2 C 0.6321(4) 0.84389(19) 0.8049(2)
H10_2 H 0.6130 0.8742 0.7488
C17_2 C 0.6102(3) 0.77169(18) 0.7946(2)
H11_2 H 0.5760 0.7531 0.7306
C18_2 C 0.6820(3) 0.75426(16) 0.9610(2)
C19_2 C 0.4824(3) 0.59292(16) 0.6505(2)
C20_2 C 0.3666(3) 0.60261(15) 0.5663(2)
C21_2 C 0.2683(3) 0.65009(17) 0.5706(2)
H13_2 H 0.2726 0.6795 0.6268
C22_2 C 0.1639(3) 0.65343(18) 0.4909(2)
H14_2 H 0.0955 0.6854 0.4918
C23_2 C 0.1601(3) 0.60987(16) 0.4104(2)
H15_2 H 0.0877 0.6126 0.3566
C24_2 C 0.3549(3) 0.56102(16) 0.4819(2)
H16_2 H 0.4222 0.5288 0.4790
H17_2 H 0.819(3) 0.610(2) 0.8561(16)
H18_2 H 0.781(4) 0.6395(17) 0.756(3)
O10_2 O 0.71063(19) 0.59131(11) 0.99360(14)
O11_2 O 0.7867(2) 0.58160(11) 0.58886(14)
N5_2 N 0.4460(2) 0.62795(13) 0.92332(17)
N6_2 N 0.7456(2) 0.43634(13) 0.59552(17)
O3_3 O 0.0876(2) 0.10023(13) 0.52214(15)
C7_2 C 0.1703(3) 0.08036(16) 0.4780(2)
C8_2 C 0.1288(3) 0.04109(15) 0.3814(2)
C9_2 C 0.2161(3) 0.01470(17) 0.3300(2)
H5_2 H 0.3055 0.0211 0.3546
O2_3 O 0.72318(19) 0.05055(11) 0.30589(14)
C1_3 C 0.6440(3) 0.04051(16) 0.3594(2)
C2_3 C 0.6532(3) 0.08970(16) 0.4465(2)
C3_3 C 0.7588(3) 0.13235(17) 0.4838(2)
H1_3 H 0.8287 0.1343 0.4523
C4_3 C 0.7601(3) 0.17216(18) 0.5684(2)
H2_3 H 0.8319 0.2011 0.5962
C5_3 C 0.6560(3) 0.16929(17) 0.6119(2)
H3_3 H 0.6570 0.1976 0.6687
C6_3 C 0.5544(3) 0.08890(16) 0.4958(2)
H4_3 H 0.4828 0.0590 0.4710
C12_3 C 0.9998(3) 0.02971(16) 0.3422(2)
H8_3 H 0.9402 0.0465 0.3782
O1_3 O 0.56103(19) 0.99230(11) 0.34884(14)
O5_3 O 0.7746(2) 0.69102(12) 0.65064(15)
O7_3 O 0.56234(19) 0.95369(11) 0.14085(14)
O8_3 O 0.48516(19) 0.86711(10) 0.22375(14)
O9_3 O 0.7638(2) 0.89405(11) 0.29701(14)
N2_3 N 0.9539(2) 0.99627(13) 0.25616(17)
N3_3 N 0.6350(2) 0.77342(13) 0.37133(17)
C13_3 C 0.7609(3) 0.64691(17) 0.5807(2)
C14_3 C 0.7090(3) 0.67407(16) 0.4778(2)
C15_3 C 0.6820(4) 0.62826(18) 0.3972(2)
H9_3 H 0.6977 0.5786 0.4056
C16_3 C 0.6321(4) 0.65611(19) 0.3049(2)
H10_3 H 0.6130 0.6258 0.2488
C17_3 C 0.6102(3) 0.72831(18) 0.2946(2)
H11_3 H 0.5760 0.7469 0.2306
C18_3 C 0.6820(3) 0.74574(16) 0.4610(2)
H12_3 H 0.6977 0.7770 0.5161
C19_3 C 0.4824(3) 0.90708(16) 0.1505(2)
C20_3 C 0.3666(3) 0.89739(15) 0.0663(2)
C21_3 C 0.2683(3) 0.84991(17) 0.0706(2)
H13_3 H 0.2726 0.8205 0.1268
H17_3 H 0.819(3) 0.890(2) 0.3561(16)
H18_3 H 0.781(4) 0.8605(17) 0.256(3)
C22_3 C 0.1639(3) 0.84657(18) 0.9909(2)
H14_3 H 0.0955 0.8146 0.9918
C23_3 C 0.1601(3) 0.89013(16) 0.9104(2)
H15_3 H 0.0877 0.8874 0.8566
C24_3 C 0.3549(3) 0.93898(16) 0.9819(2)
H16_3 H 0.4222 0.9712 0.9790
O1_4 O 0.43897(19) 0.49230(11) 0.15116(14)
O2_4 O 0.27682(19) 0.55055(11) 0.19411(14)
O7_4 O 0.43766(19) 0.45369(11) 0.35915(14)
O8_4 O 0.51484(19) 0.36711(10) 0.27625(14)
O9_4 O 0.2362(2) 0.39405(11) 0.20299(14)
N2_4 N 0.0461(2) 0.49627(13) 0.24384(17)
N3_4 N 0.3650(2) 0.27342(13) 0.12867(17)
C1_4 C 0.3560(3) 0.54051(16) 0.1406(2)
C2_4 C 0.3468(3) 0.58970(16) 0.0535(2)
C3_4 C 0.2412(3) 0.63235(17) 0.0162(2)
H1_4 H 0.1713 0.6343 0.0477
C6_4 C 0.4456(3) 0.58890(16) 0.0042(2)
H4_4 H 0.5172 0.5590 0.0290
C12_4 C 0.0002(3) 0.52971(16) 0.1578(2)
H8_4 H 0.0598 0.5465 0.1218
C14_4 C 0.2910(3) 0.17407(16) 0.0222(2)
C15_4 C 0.3180(4) 0.12826(18) 0.1028(2)
H9_4 H 0.3023 0.0786 0.0944
C16_4 C 0.3679(4) 0.15611(19) 0.1951(2)
H10_4 H 0.3870 0.1258 0.2512
C17_4 C 0.3898(3) 0.22831(18) 0.2054(2)
H11_4 H 0.4240 0.2469 0.2694
C18_4 C 0.3180(3) 0.24574(16) 0.0390(2)
C19_4 C 0.5176(3) 0.40708(16) 0.3495(2)
C20_4 C 0.6334(3) 0.39739(15) 0.4337(2)
C21_4 C 0.7317(3) 0.34991(17) 0.4294(2)
H13_4 H 0.7274 0.3205 0.3732
C22_4 C 0.8361(3) 0.34657(18) 0.5091(2)
H14_4 H 0.9045 0.3146 0.5082
C23_4 C 0.8399(3) 0.39013(16) 0.5896(2)
H15_4 H 0.9123 0.3874 0.6434
C24_4 C 0.6451(3) 0.43898(16) 0.5181(2)
H16_4 H 0.5778 0.4712 0.5210
H17_4 H 0.181(3) 0.390(2) 0.1439(16)
H18_4 H 0.219(4) 0.3605(17) 0.244(3)
O5_4 O 0.2254(2) 0.19102(12) 0.84936(15)
C4_4 C 0.2399(3) 0.67216(18) 0.9316(2)
H2_4 H 0.1681 0.7011 0.9038
C5_4 C 0.3440(3) 0.66929(17) 0.8881(2)
H3_4 H 0.3430 0.6976 0.8313
C13_4 C 0.2391(3) 0.14691(17) 0.9193(2)
H12_4 H 0.3023 0.2770 0.9839
O3_4 O 0.9124(2) 0.60023(13) 0.97786(15)
C10 C 0.8300(3) 0.02107(19) 0.7576(2)
H6 H 0.7723 0.0402 0.7936
C11 C 0.9602(3) 0.02888(17) 0.7923(2)
H7 H 0.9906 0.0530 0.8531
C7_3 C 0.1703(3) 0.41964(16) 0.9780(2)
C8_3 C 0.1288(3) 0.45891(15) 0.8814(2)
C9_3 C 0.2161(3) 0.48530(17) 0.8300(2)
H5_3 H 0.3055 0.4789 0.8546
C10_2 C 0.1700(3) 0.52107(19) 0.7424(2)
H6_2 H 0.2277 0.5402 0.7064
C11_2 C 0.0398(3) 0.52888(17) 0.7077(2)
H7_2 H 0.0094 0.5530 0.6469
C10_3 C 0.1700(3) 0.97893(19) 0.2424(2)
H6_3 H 0.2277 0.9598 0.2064
C11_3 C 0.0398(3) 0.97112(17) 0.2077(2)
H7_3 H 0.0094 0.9470 0.1469
C7_4 C 0.8297(3) 0.58036(16) 0.0220(2)
C8_4 C 0.8712(3) 0.54109(15) 0.1186(2)
C9_4 C 0.7839(3) 0.51470(17) 0.1700(2)
H5_4 H 0.6945 0.5211 0.1454
C10_4 C 0.8300(3) 0.47893(19) 0.2576(2)
H6_4 H 0.7723 0.4598 0.2936
C11_4 C 0.9602(3) 0.47112(17) 0.2923(2)
H7_4 H 0.9906 0.4470 0.3531
loop_
_geom_bond_atom_site_label_1
_geom_bond_atom_site_label_2
_geom_bond_site_symmetry_1
_geom_bond_site_symmetry_2
N4 C23 1_555 1_555
H14 C22 1_555 1_555
C23 C22 1_555 1_555
H15 C23 1_555 1_555
C24 N4 1_555 1_555
H16 C24 1_555 1_555
Ni1 O1 1_555 1_555
O5 C13 1_555 1_555
O6 C13 1_555 1_555
O7 Ni2 1_555 1_555
O8 Ni1 1_555 1_555
O9 Ni1 1_555 1_555
N2 Ni2 1_555 1_555
N3 Ni1 1_555 1_555
C13 C14 1_555 1_555
C14 C15 1_555 1_555
C15 H9 1_555 1_555
C16 C15 1_555 1_555
H10 C16 1_555 1_555
C17 N3 1_555 1_555
H11 C17 1_555 1_555
C18 N3 1_555 1_555
H12 C18 1_555 1_555
C19 O7 1_555 1_555
C20 C19 1_555 1_555
C21 C20 1_555 1_555
H13 C21 1_555 1_555
H17 O9 1_555 1_555
H18 O9 1_555 1_555
Ni6 O6 1_555 1_555
O10 Ni1 1_555 1_555
O11 Ni2 1_555 1_555
N5 Ni1 1_555 1_555
Ni2 O9 1_555 1_555
O8 C19 1_555 1_555
C14 C18 1_555 1_555
C16 C17 1_555 1_555
O2 C1 1_555 1_555
N1 C5 1_555 1_555
C1 C2 1_555 1_555
C2 C3 1_555 1_555
C3 H1 1_555 1_555
C4 C3 1_555 1_555
H2 C4 1_555 1_555
C5 C4 1_555 1_555
H3 C5 1_555 1_555
C6 N1 1_555 1_555
H4 C6 1_555 1_555
H8 C12 1_555 1_555
Ni4 N1 1_555 1_555
C2 C6 1_555 1_555
O3 C7 1_555 1_555
O4 C7 1_555 1_555
C7 C8 1_555 1_555
C8 C9 1_555 1_555
C9 H5 1_555 1_555
Ni4 O4 1_555 1_555
Ni3 O4_2 1_555 1_555
O5_2 C13_2 1_555 1_555
O6_2 C13_2 1_555 1_555
N1_2 C5_2 1_555 1_555
H2_2 C4_2 1_555 1_555
C5_2 C4_2 1_555 1_555
H3_2 C5_2 1_555 1_555
Ni3 N1_2 1_555 1_555
Ni5 O6_2 1_555 1_555
Ni1_2 O1_2 1_555 1_555
Ni2_2 O2_2 1_555 1_555
O1_2 C1_2 1_555 1_555
O2_2 C1_2 1_555 1_555
O7_2 Ni2_2 1_555 1_555
O8_2 Ni1_2 1_555 1_555
O9_2 Ni1_2 1_555 1_555
N2_2 Ni2_2 1_555 1_555
N3_2 Ni1_2 1_555 1_555
N4_2 C23_2 1_555 1_555
C1_2 C2_2 1_555 1_555
C2_2 C3_2 1_555 1_555
C3_2 H1_2 1_555 1_555
H4_2 C6_2 1_555 1_555
C12_2 N2_2 1_555 1_555
H8_2 C12_2 1_555 1_555
C14_2 C15_2 1_555 1_555
C15_2 H9_2 1_555 1_555
C16_2 C15_2 1_555 1_555
H10_2 C16_2 1_555 1_555
C17_2 N3_2 1_555 1_555
H11_2 C17_2 1_555 1_555
C18_2 N3_2 1_555 1_555
C19_2 O7_2 1_555 1_555
C20_2 C19_2 1_555 1_555
C21_2 C20_2 1_555 1_555
H13_2 C21_2 1_555 1_555
C22_2 C21_2 1_555 1_555
H14_2 C22_2 1_555 1_555
C23_2 C22_2 1_555 1_555
H15_2 C23_2 1_555 1_555
C24_2 N4_2 1_555 1_555
H16_2 C24_2 1_555 1_555
H17_2 O9_2 1_555 1_555
H18_2 O9_2 1_555 1_555
Ni6 N4_2 1_555 1_555
O10_2 Ni1_2 1_555 1_555
O11_2 Ni2_2 1_555 1_555
N5_2 Ni1_2 1_555 1_555
N6_2 Ni2_2 1_555 1_555
Ni2_2 O9_2 1_555 1_555
O8_2 C19_2 1_555 1_555
C2_2 C6_2 1_555 1_555
C14_2 C18_2 1_555 1_555
C16_2 C17_2 1_555 1_555
C20_2 C24_2 1_555 1_555
O3_3 C7_2 1_555 1_555
O10 C7_2 1_555 1_555
C7_2 C8_2 1_555 1_555
C8_2 C9_2 1_555 1_555
C9_2 H5_2 1_555 1_555
O2_3 C1_3 1_555 1_555
N5 C5_3 1_555 1_555
C1_3 C2_3 1_555 1_555
C2_3 C3_3 1_555 1_555
C3_3 H1_3 1_555 1_555
C4_3 C3_3 1_555 1_555
H2_3 C4_3 1_555 1_555
C5_3 C4_3 1_555 1_555
H3_3 C5_3 1_555 1_555
C6_3 N5 1_555 1_555
H4_3 C6_3 1_555 1_555
H8_3 C12_3 1_555 1_555
C2_3 C6_3 1_555 1_555
Ni4 O1_3 1_555 1_555
O5_3 C13_3 1_555 1_555
O11_2 C13_3 1_555 1_555
O7_3 Ni5 1_555 1_555
O8_3 Ni4 1_555 1_555
O9_3 Ni4 1_555 1_555
N2_3 Ni5 1_555 1_555
N3_3 Ni4 1_555 1_555
C13_3 C14_3 1_555 1_555
C14_3 C15_3 1_555 1_555
C15_3 H9_3 1_555 1_555
C16_3 C15_3 1_555 1_555
H10_3 C16_3 1_555 1_555
C17_3 N3_3 1_555 1_555
H11_3 C17_3 1_555 1_555
C18_3 N3_3 1_555 1_555
H12_3 C18_3 1_555 1_555
C19_3 O7_3 1_555 1_555
C20_3 C19_3 1_555 1_555
C21_3 C20_3 1_555 1_555
H13_3 C21_3 1_555 1_555
H17_3 O9_3 1_555 1_555
H18_3 O9_3 1_555 1_555
Ni5 O9_3 1_555 1_555
O8_3 C19_3 1_555 1_555
C14_3 C18_3 1_555 1_555
C16_3 C17_3 1_555 1_555
N6 C23_3 1_555 1_555
H14_3 C22_3 1_555 1_555
C23_3 C22_3 1_555 1_555
H15_3 C23_3 1_555 1_555
C24_3 N6 1_555 1_555
H16_3 C24_3 1_555 1_555
Ni3 O1_4 1_555 1_555
Ni6 O2_4 1_555 1_555
O1_4 C1_4 1_555 1_555
O2_4 C1_4 1_555 1_555
O7_4 Ni6 1_555 1_555
O8_4 Ni3 1_555 1_555
O9_4 Ni3 1_555 1_555
N2_4 Ni6 1_555 1_555
N3_4 Ni3 1_555 1_555
N6_2 C23_4 1_555 1_555
C1_4 C2_4 1_555 1_555
C2_4 C3_4 1_555 1_555
C3_4 H1_4 1_555 1_555
H4_4 C6_4 1_555 1_555
C12_4 N2_4 1_555 1_555
H8_4 C12_4 1_555 1_555
C14_4 C15_4 1_555 1_555
C15_4 H9_4 1_555 1_555
C16_4 C15_4 1_555 1_555
H10_4 C16_4 1_555 1_555
C17_4 N3_4 1_555 1_555
H11_4 C17_4 1_555 1_555
C18_4 N3_4 1_555 1_555
C19_4 O7_4 1_555 1_555
C20_4 C19_4 1_555 1_555
C21_4 C20_4 1_555 1_555
H13_4 C21_4 1_555 1_555
C22_4 C21_4 1_555 1_555
H14_4 C22_4 1_555 1_555
C23_4 C22_4 1_555 1_555
H15_4 C23_4 1_555 1_555
C24_4 N6_2 1_555 1_555
H16_4 C24_4 1_555 1_555
H17_4 O9_4 1_555 1_555
H18_4 O9_4 1_555 1_555
Ni6 O9_4 1_555 1_555
O8_4 C19_4 1_555 1_555
C2_4 C6_4 1_555 1_555
C14_4 C18_4 1_555 1_555
C16_4 C17_4 1_555 1_555
C20_4 C24_4 1_555 1_555
O5_4 C13_4 1_555 1_555
O11 C13_4 1_555 1_555
N5_2 C5_4 1_555 1_555
H2_4 C4_4 1_555 1_555
C5_4 C4_4 1_555 1_555
H3_4 C5_4 1_555 1_555
H6 C10 1_555 1_555
H7 C11 1_555 1_555
C10 C11 1_555 1_555
C7_3 C8_3 1_555 1_555
C8_3 C9_3 1_555 1_555
C9_3 H5_3 1_555 1_555
C10_2 C9_3 1_555 1_555
H6_2 C10_2 1_555 1_555
H7_2 C11_2 1_555 1_555
C10_2 C11_2 1_555 1_555
H6_3 C10_3 1_555 1_555
H7_3 C11_3 1_555 1_555
C10_3 C11_3 1_555 1_555
C7_4 C8_4 1_555 1_555
C8_4 C9_4 1_555 1_555
C9_4 H5_4 1_555 1_555
C10_4 C9_4 1_555 1_555
H6_4 C10_4 1_555 1_555
H7_4 C11_4 1_555 1_555
C10_4 C11_4 1_555 1_555

#END
