
###############################################################################
#
# This file contains modified crystal structure data generated from the
# MOF subset of the Cambridge Structural Database (CSD) v543 
# hosted by the Cambridge Crystallographic Data Centre (CCDC).
#
# This work is licensed under the Creative Commons
# Attribution-NonCommercial-ShareAlike 4.0 International License.
# To view a copy of this license, visit
# http://creativecommons.org/licenses/by-nc-sa/4.0/
# or send a letter to
# Creative Commons, PO Box 1866, Mountain View, CA 94042, USA.
#
# CIF created using the CSD Python API on 29 September 2022
# The structure has been converted into the P1 space group
# The structure has a 3D framework
# The original CSD entry VOXFEW is in the monoclinic crystal system
# The framework has been calculated to contain at least 10.0% void space
# The void calculation uses a probe of radius 1.32A, grid spacing 0.4
#
###############################################################################

data_VOXFEW
_chemical_formula_moiety         '(C96 H120 Fe4 O48 P24)n'
_symmetry_cell_setting           triclinic
_symmetry_space_group_name_H-M   'P 1'
_symmetry_Int_Tables_number      1
_space_group_name_Hall           'P 1'
loop_
_symmetry_equiv_pos_site_id
_symmetry_equiv_pos_as_xyz
1 x,y,z
_cell_length_a                   30.0
_cell_length_b                   17.3
_cell_length_c                   9.41
_cell_angle_alpha                90
_cell_angle_beta                 94.3
_cell_angle_gamma                90
_cell_volume                     4870.04
loop_
_atom_site_label
_atom_site_type_symbol
_atom_site_fract_x
_atom_site_fract_y
_atom_site_fract_z
_atom_site_U_iso_or_equiv
_atom_site_thermal_displace_type
C17 C 0.7253(5) 0.0276(15) 0.2267(14) 0.0180 Uiso
H21 H 0.711187 0.025487 0.328853 0.0358 Uiso
H22 H 0.742411 0.081915 0.216096 0.0358 Uiso
H23 H 0.698944 0.022332 0.142729 0.0358 Uiso
C2 C 0.2747(5) 0.0276(15) 0.2733(14) 0.0180 Uiso
H4 H 0.288813 0.025487 0.171147 0.0358 Uiso
H5 H 0.257589 0.081915 0.283904 0.0358 Uiso
H6 H 0.301056 0.022332 0.357271 0.0358 Uiso
Fe9 Fe 0.16450(19) 0.0031(6) 0.5104(6) 0.0010 Uiso
Fe10 Fe 0.83550(19) 0.0031(6) 0.9896(6) 0.0010 Uiso
Fe2 Fe 0.66450(19) 0.4969(6) 0.0104(6) 0.0010 Uiso
O9 O 0.7834(5) 0.9450(16) 0.0742(16) 0.0280 Uiso
O10 O 0.7963(5) 0.9564(13) 0.3424(14) 0.0010 Uiso
O11 O 0.6557(5) 0.5975(11) 0.1239(15) 0.0150 Uiso
O12 O 0.6756(5) 0.5885(15) 0.3798(13) 0.0050 Uiso
C18 C 0.5982(4) 0.6562(5) 0.2894(14) 0.0610 Uiso
H24 H 0.596985 0.685076 0.39068 0.1215 Uiso
H25 H 0.579525 0.602905 0.290805 0.1215 Uiso
H26 H 0.58373 0.692988 0.205516 0.1215 Uiso
P5 P 0.6548(3) 0.6356(5) 0.2582(9) 0.0010 Uiso
P6 P 0.7630(3) 0.9520(5) 0.2147(9) 0.0010 Uiso
C19 C 0.6861(2) 0.7272(6) 0.2516(11) 0.0150 Uiso
C20 C 0.7317(2) 0.8604(6) 0.2212(11) 0.0150 Uiso
C21 C 0.6997(3) 0.7663(7) 0.3706(11) 0.0140 Uiso
C22 C 0.7181(3) 0.8213(7) 0.1022(11) 0.0140 Uiso
C23 C 0.6945(3) 0.7521(7) 0.1155(11) 0.0120 Uiso
C24 C 0.7233(3) 0.8354(7) 0.3573(11) 0.0120 Uiso
H27 H 0.69254 0.744937 0.474259 0.0284 Uiso
H29 H 0.683058 0.719101 0.022501 0.0237 Uiso
H30 H 0.73478 0.868477 0.450331 0.0237 Uiso
Fe4 Fe 0.66450(19) 0.5031(6) 0.5104(6) 0.0010 Uiso
Fe7 Fe 0.83550(19) 0.9969(6) 0.4896(6) 0.0010 Uiso
O13 O 0.6125(5) 0.4431(14) 0.0869(16) 0.0160 Uiso
O17 O 0.7037(5) 0.4564(13) 0.1576(14) 0.0010 Uiso
Fe1 Fe 0.33550(19) 0.4969(6) 0.4896(6) 0.0010 Uiso
O1 O 0.3875(5) 0.5569(14) 0.9131(16) 0.0160 Uiso
O2 O 0.3760(5) 0.5399(16) 0.6492(17) 0.0260 Uiso
O3 O 0.2166(5) 0.9450(16) 0.4258(16) 0.0280 Uiso
O4 O 0.2037(5) 0.9564(13) 0.1576(14) 0.0010 Uiso
O5 O 0.3443(5) 0.5975(11) 0.3761(15) 0.0150 Uiso
O6 O 0.3244(5) 0.5885(15) 0.1202(13) 0.0050 Uiso
C1 C 0.3775(6) 0.6822(16) 0.7525(16) 0.0470 Uiso
C3 C 0.4018(4) 0.6562(5) 0.2106(14) 0.0610 Uiso
H1 H 0.382803 0.702455 0.646669 0.0934 Uiso
H2 H 0.342496 0.6872 0.770713 0.0934 Uiso
H3 H 0.396986 0.716526 0.830076 0.0934 Uiso
H7 H 0.403015 0.685076 0.10932 0.1215 Uiso
H8 H 0.420475 0.602905 0.209195 0.1215 Uiso
H9 H 0.41627 0.692988 0.294484 0.1215 Uiso
P1 P 0.3941(2) 0.5840(7) 0.7693(13) 0.0010 Uiso
C4 C 0.4554(4) 0.5840(7) 0.7642(11) 0.0150 Uiso
C5 C 0.4829(4) 0.5840(7) 0.8840(10) 0.0140 Uiso
C6 C 0.4708(4) 0.5840(7) 0.6282(10) 0.0120 Uiso
H10 H 0.469592 0.584008 0.987437 0.0284 Uiso
H11 H 0.447747 0.584008 0.534566 0.0237 Uiso
P2 P 0.3452(3) 0.6356(5) 0.2418(9) 0.0010 Uiso
P3 P 0.2370(3) 0.9520(5) 0.2853(9) 0.0010 Uiso
C7 C 0.3139(2) 0.7272(6) 0.2484(11) 0.0150 Uiso
C8 C 0.2683(2) 0.8604(6) 0.2788(11) 0.0150 Uiso
C9 C 0.3003(3) 0.7663(7) 0.1294(11) 0.0140 Uiso
C10 C 0.2819(3) 0.8213(7) 0.3978(11) 0.0140 Uiso
C11 C 0.3055(3) 0.7521(7) 0.3845(11) 0.0120 Uiso
C12 C 0.2767(3) 0.8354(7) 0.1427(11) 0.0120 Uiso
H12 H 0.30746 0.744937 0.025741 0.0284 Uiso
H13 H 0.274702 0.842641 0.501427 0.0284 Uiso
H14 H 0.316942 0.719101 0.477499 0.0237 Uiso
H15 H 0.26522 0.868477 0.049669 0.0237 Uiso
O7 O 0.6125(5) 0.5569(14) 0.5869(16) 0.0160 Uiso
O8 O 0.6240(5) 0.5399(16) 0.8508(17) 0.0260 Uiso
C13 C 0.6225(6) 0.6822(16) 0.7475(16) 0.0470 Uiso
H16 H 0.617197 0.702455 0.853331 0.0934 Uiso
H17 H 0.657504 0.6872 0.729287 0.0934 Uiso
H18 H 0.603014 0.716526 0.669924 0.0934 Uiso
P4 P 0.6059(2) 0.5840(7) 0.7307(13) 0.0010 Uiso
C14 C 0.5446(4) 0.5840(7) 0.7358(11) 0.0150 Uiso
C15 C 0.5171(4) 0.5840(7) 0.6160(10) 0.0140 Uiso
C16 C 0.5292(4) 0.5840(7) 0.8718(10) 0.0120 Uiso
H19 H 0.530408 0.584008 0.512563 0.0284 Uiso
H20 H 0.552253 0.584008 0.965434 0.0237 Uiso
H28 H 0.725298 0.842641 0.998573 0.0284 Uiso
Fe6 Fe 0.33550(19) 0.5031(6) 0.9896(6) 0.0010 Uiso
Fe8 Fe 0.16450(19) 0.9969(6) 0.0104(6) 0.0010 Uiso
O14 O 0.3875(5) 0.4431(14) 0.4131(16) 0.0160 Uiso
O15 O 0.2834(5) 0.5550(16) 0.5742(16) 0.0280 Uiso
O16 O 0.7166(5) 0.5550(16) 0.9258(16) 0.0280 Uiso
O18 O 0.2963(5) 0.4564(13) 0.3424(14) 0.0010 Uiso
O19 O 0.6756(5) 0.4115(15) 0.8798(13) 0.0050 Uiso
O20 O 0.3244(5) 0.4115(15) 0.6202(13) 0.0050 Uiso
O9_2 O 0.2834(5) 0.4450(16) 0.0742(16) 0.0280 Uiso
O11_2 O 0.1557(5) 0.0975(11) 0.1239(15) 0.0150 Uiso
O12_2 O 0.1756(5) 0.0885(15) 0.3798(13) 0.0050 Uiso
C17_2 C 0.2253(5) 0.5276(15) 0.2267(14) 0.0180 Uiso
C18_2 C 0.0982(4) 0.1562(5) 0.2894(14) 0.0610 Uiso
H21_2 H 0.211187 0.525487 0.328853 0.0358 Uiso
H22_2 H 0.242411 0.581915 0.216096 0.0358 Uiso
H23_2 H 0.198944 0.522332 0.142729 0.0358 Uiso
H24_2 H 0.096985 0.185076 0.39068 0.1215 Uiso
H25_2 H 0.079525 0.102905 0.290805 0.1215 Uiso
H26_2 H 0.08373 0.192988 0.205516 0.1215 Uiso
P5_2 P 0.1548(3) 0.1356(5) 0.2582(9) 0.0010 Uiso
P6_2 P 0.2630(3) 0.4520(5) 0.2147(9) 0.0010 Uiso
C19_2 C 0.1861(2) 0.2272(6) 0.2516(11) 0.0150 Uiso
C20_2 C 0.2317(2) 0.3604(6) 0.2212(11) 0.0150 Uiso
C21_2 C 0.1997(3) 0.2663(7) 0.3706(11) 0.0140 Uiso
C22_2 C 0.2181(3) 0.3213(7) 0.1022(11) 0.0140 Uiso
C23_2 C 0.1945(3) 0.2521(7) 0.1155(11) 0.0120 Uiso
C24_2 C 0.2233(3) 0.3354(7) 0.3573(11) 0.0120 Uiso
H27_2 H 0.19254 0.244937 0.474259 0.0284 Uiso
H29_2 H 0.183058 0.219101 0.022501 0.0237 Uiso
H30_2 H 0.23478 0.368477 0.450331 0.0237 Uiso
O7_2 O 0.1125(5) 0.0569(14) 0.5869(16) 0.0160 Uiso
O8_2 O 0.1240(5) 0.0399(16) 0.8508(17) 0.0260 Uiso
C13_2 C 0.1225(6) 0.1822(16) 0.7475(16) 0.0470 Uiso
H16_2 H 0.117197 0.202455 0.853331 0.0934 Uiso
H17_2 H 0.157504 0.1872 0.729287 0.0934 Uiso
H18_2 H 0.103014 0.216526 0.669924 0.0934 Uiso
P4_2 P 0.1059(2) 0.0840(7) 0.7307(13) 0.0010 Uiso
C14_2 C 0.0446(4) 0.0840(7) 0.7358(11) 0.0150 Uiso
C15_2 C 0.0171(4) 0.0840(7) 0.6160(10) 0.0140 Uiso
C16_2 C 0.0292(4) 0.0840(7) 0.8718(10) 0.0120 Uiso
H19_2 H 0.030408 0.084008 0.512563 0.0284 Uiso
H20_2 H 0.052253 0.084008 0.965434 0.0237 Uiso
H28_2 H 0.225298 0.342641 0.998573 0.0284 Uiso
O16_2 O 0.2166(5) 0.0550(16) 0.9258(16) 0.0280 Uiso
O13_2 O 0.1125(5) 0.9431(14) 0.0869(16) 0.0160 Uiso
O19_2 O 0.1756(5) 0.9115(15) 0.8798(13) 0.0050 Uiso
O1_2 O 0.8875(5) 0.0569(14) 0.9131(16) 0.0160 Uiso
O2_2 O 0.8760(5) 0.0399(16) 0.6492(17) 0.0260 Uiso
O3_2 O 0.7166(5) 0.4450(16) 0.4258(16) 0.0280 Uiso
O5_2 O 0.8443(5) 0.0975(11) 0.3761(15) 0.0150 Uiso
O6_2 O 0.8244(5) 0.0885(15) 0.1202(13) 0.0050 Uiso
C1_2 C 0.8775(6) 0.1822(16) 0.7525(16) 0.0470 Uiso
C2_2 C 0.7747(5) 0.5276(15) 0.2733(14) 0.0180 Uiso
C3_2 C 0.9018(4) 0.1562(5) 0.2106(14) 0.0610 Uiso
H1_2 H 0.882803 0.202455 0.646669 0.0934 Uiso
H2_2 H 0.842496 0.1872 0.770713 0.0934 Uiso
H3_2 H 0.896986 0.216526 0.830076 0.0934 Uiso
H4_2 H 0.788813 0.525487 0.171147 0.0358 Uiso
H5_2 H 0.757589 0.581915 0.283904 0.0358 Uiso
H6_2 H 0.801056 0.522332 0.357271 0.0358 Uiso
H7_2 H 0.903015 0.185076 0.10932 0.1215 Uiso
H8_2 H 0.920475 0.102905 0.209195 0.1215 Uiso
H9_2 H 0.91627 0.192988 0.294484 0.1215 Uiso
P1_2 P 0.8941(2) 0.0840(7) 0.7693(13) 0.0010 Uiso
C4_2 C 0.9554(4) 0.0840(7) 0.7642(11) 0.0150 Uiso
C5_2 C 0.9829(4) 0.0840(7) 0.8840(10) 0.0140 Uiso
C6_2 C 0.9708(4) 0.0840(7) 0.6282(10) 0.0120 Uiso
H10_2 H 0.969592 0.084008 0.987437 0.0284 Uiso
H11_2 H 0.947747 0.084008 0.534566 0.0237 Uiso
P2_2 P 0.8452(3) 0.1356(5) 0.2418(9) 0.0010 Uiso
P3_2 P 0.7370(3) 0.4520(5) 0.2853(9) 0.0010 Uiso
C7_2 C 0.8139(2) 0.2272(6) 0.2484(11) 0.0150 Uiso
C8_2 C 0.7683(2) 0.3604(6) 0.2788(11) 0.0150 Uiso
C9_2 C 0.8003(3) 0.2663(7) 0.1294(11) 0.0140 Uiso
C10_2 C 0.7819(3) 0.3213(7) 0.3978(11) 0.0140 Uiso
C11_2 C 0.8055(3) 0.2521(7) 0.3845(11) 0.0120 Uiso
C12_2 C 0.7767(3) 0.3354(7) 0.1427(11) 0.0120 Uiso
H12_2 H 0.80746 0.244937 0.025741 0.0284 Uiso
H13_2 H 0.774702 0.342641 0.501427 0.0284 Uiso
H14_2 H 0.816942 0.219101 0.477499 0.0237 Uiso
H15_2 H 0.76522 0.368477 0.049669 0.0237 Uiso
O15_2 O 0.7834(5) 0.0550(16) 0.5742(16) 0.0280 Uiso
O14_2 O 0.8875(5) 0.9431(14) 0.4131(16) 0.0160 Uiso
O20_2 O 0.8244(5) 0.9115(15) 0.6202(13) 0.0050 Uiso
O2_3 O 0.6240(5) 0.4601(16) 0.3508(17) 0.0260 Uiso
O4_2 O 0.7963(5) 0.0436(13) 0.8424(14) 0.0010 Uiso
O5_3 O 0.6557(5) 0.4025(11) 0.6239(15) 0.0150 Uiso
C1_3 C 0.6225(6) 0.3178(16) 0.2475(16) 0.0470 Uiso
C3_3 C 0.5982(4) 0.3438(5) 0.7894(14) 0.0610 Uiso
H1_3 H 0.617197 0.297545 0.353331 0.0934 Uiso
H2_3 H 0.657504 0.3128 0.229287 0.0934 Uiso
H3_3 H 0.603014 0.283474 0.169924 0.0934 Uiso
H7_3 H 0.596985 0.314924 0.89068 0.1215 Uiso
H8_3 H 0.579525 0.397095 0.790805 0.1215 Uiso
H9_3 H 0.58373 0.307012 0.705516 0.1215 Uiso
P1_3 P 0.6059(2) 0.4160(7) 0.2307(13) 0.0010 Uiso
C4_3 C 0.5446(4) 0.4160(7) 0.2358(11) 0.0150 Uiso
C5_3 C 0.5171(4) 0.4160(7) 0.1160(10) 0.0140 Uiso
C6_3 C 0.5292(4) 0.4160(7) 0.3718(10) 0.0120 Uiso
H10_3 H 0.530408 0.415992 0.012563 0.0284 Uiso
H11_3 H 0.552253 0.415992 0.465434 0.0237 Uiso
P2_3 P 0.6548(3) 0.3644(5) 0.7582(9) 0.0010 Uiso
P3_3 P 0.7630(3) 0.0480(5) 0.7147(9) 0.0010 Uiso
C7_3 C 0.6861(2) 0.2728(6) 0.7516(11) 0.0150 Uiso
C8_3 C 0.7317(2) 0.1396(6) 0.7212(11) 0.0150 Uiso
C9_3 C 0.6997(3) 0.2337(7) 0.8706(11) 0.0140 Uiso
C10_3 C 0.7181(3) 0.1787(7) 0.6022(11) 0.0140 Uiso
C11_3 C 0.6945(3) 0.2479(7) 0.6155(11) 0.0120 Uiso
C12_3 C 0.7233(3) 0.1646(7) 0.8573(11) 0.0120 Uiso
H12_3 H 0.69254 0.255063 0.974259 0.0284 Uiso
H13_3 H 0.725298 0.157359 0.498573 0.0284 Uiso
H14_3 H 0.683058 0.280899 0.522501 0.0237 Uiso
H15_3 H 0.73478 0.131523 0.950331 0.0237 Uiso
O8_3 O 0.3760(5) 0.4601(16) 0.1492(17) 0.0260 Uiso
C13_3 C 0.3775(6) 0.3178(16) 0.2525(16) 0.0470 Uiso
H16_3 H 0.382803 0.297545 0.146669 0.0934 Uiso
H17_3 H 0.342496 0.3128 0.270713 0.0934 Uiso
H18_3 H 0.396986 0.283474 0.330076 0.0934 Uiso
P4_3 P 0.3941(2) 0.4160(7) 0.2693(13) 0.0010 Uiso
C14_3 C 0.4554(4) 0.4160(7) 0.2642(11) 0.0150 Uiso
C15_3 C 0.4829(4) 0.4160(7) 0.3840(10) 0.0140 Uiso
C16_3 C 0.4708(4) 0.4160(7) 0.1282(10) 0.0120 Uiso
H19_3 H 0.469592 0.415992 0.487437 0.0284 Uiso
H20_3 H 0.447747 0.415992 0.034566 0.0237 Uiso
H28_3 H 0.274702 0.157359 0.001427 0.0284 Uiso
O18_2 O 0.7037(5) 0.5436(13) 0.6576(14) 0.0010 Uiso
O10_2 O 0.2037(5) 0.0436(13) 0.6576(14) 0.0010 Uiso
O11_3 O 0.3443(5) 0.4025(11) 0.8761(15) 0.0150 Uiso
C18_3 C 0.4018(4) 0.3438(5) 0.7106(14) 0.0610 Uiso
H24_3 H 0.403015 0.314924 0.60932 0.1215 Uiso
H25_3 H 0.420475 0.397095 0.709195 0.1215 Uiso
H26_3 H 0.41627 0.307012 0.794484 0.1215 Uiso
P5_3 P 0.3452(3) 0.3644(5) 0.7418(9) 0.0010 Uiso
P6_3 P 0.2370(3) 0.0480(5) 0.7853(9) 0.0010 Uiso
C19_3 C 0.3139(2) 0.2728(6) 0.7484(11) 0.0150 Uiso
C20_3 C 0.2683(2) 0.1396(6) 0.7788(11) 0.0150 Uiso
C21_3 C 0.3003(3) 0.2337(7) 0.6294(11) 0.0140 Uiso
C22_3 C 0.2819(3) 0.1787(7) 0.8978(11) 0.0140 Uiso
C23_3 C 0.3055(3) 0.2479(7) 0.8845(11) 0.0120 Uiso
C24_3 C 0.2767(3) 0.1646(7) 0.6427(11) 0.0120 Uiso
H27_3 H 0.30746 0.255063 0.525741 0.0284 Uiso
H29_3 H 0.316942 0.280899 0.977499 0.0237 Uiso
H30_3 H 0.26522 0.131523 0.549669 0.0237 Uiso
O17_2 O 0.2963(5) 0.5436(13) 0.8424(14) 0.0010 Uiso
C2_3 C 0.7253(5) 0.9724(15) 0.7267(14) 0.0180 Uiso
H4_3 H 0.711187 0.974513 0.828853 0.0358 Uiso
H5_3 H 0.742411 0.918085 0.716096 0.0358 Uiso
H6_3 H 0.698944 0.977668 0.642729 0.0358 Uiso
O2_4 O 0.1240(5) 0.9601(16) 0.3508(17) 0.0260 Uiso
O5_4 O 0.1557(5) 0.9025(11) 0.6239(15) 0.0150 Uiso
C1_4 C 0.1225(6) 0.8178(16) 0.2475(16) 0.0470 Uiso
C2_4 C 0.2253(5) 0.4724(15) 0.7267(14) 0.0180 Uiso
C3_4 C 0.0982(4) 0.8438(5) 0.7894(14) 0.0610 Uiso
H1_4 H 0.117197 0.797545 0.353331 0.0934 Uiso
H2_4 H 0.157504 0.8128 0.229287 0.0934 Uiso
H3_4 H 0.103014 0.783474 0.169924 0.0934 Uiso
H4_4 H 0.211187 0.474513 0.828853 0.0358 Uiso
H5_4 H 0.242411 0.418085 0.716096 0.0358 Uiso
H6_4 H 0.198944 0.477668 0.642729 0.0358 Uiso
H7_4 H 0.096985 0.814924 0.89068 0.1215 Uiso
H8_4 H 0.079525 0.897095 0.790805 0.1215 Uiso
H9_4 H 0.08373 0.807012 0.705516 0.1215 Uiso
P1_4 P 0.1059(2) 0.9160(7) 0.2307(13) 0.0010 Uiso
C4_4 C 0.0446(4) 0.9160(7) 0.2358(11) 0.0150 Uiso
C5_4 C 0.0171(4) 0.9160(7) 0.1160(10) 0.0140 Uiso
C6_4 C 0.0292(4) 0.9160(7) 0.3718(10) 0.0120 Uiso
H10_4 H 0.030408 0.915992 0.012563 0.0284 Uiso
H11_4 H 0.052253 0.915992 0.465434 0.0237 Uiso
P2_4 P 0.1548(3) 0.8644(5) 0.7582(9) 0.0010 Uiso
P3_4 P 0.2630(3) 0.5480(5) 0.7147(9) 0.0010 Uiso
C7_4 C 0.1861(2) 0.7728(6) 0.7516(11) 0.0150 Uiso
C8_4 C 0.2317(2) 0.6396(6) 0.7212(11) 0.0150 Uiso
C9_4 C 0.1997(3) 0.7337(7) 0.8706(11) 0.0140 Uiso
C10_4 C 0.2181(3) 0.6787(7) 0.6022(11) 0.0140 Uiso
C11_4 C 0.1945(3) 0.7479(7) 0.6155(11) 0.0120 Uiso
C12_4 C 0.2233(3) 0.6646(7) 0.8573(11) 0.0120 Uiso
H12_4 H 0.19254 0.755063 0.974259 0.0284 Uiso
H13_4 H 0.225298 0.657359 0.498573 0.0284 Uiso
H14_4 H 0.183058 0.780899 0.522501 0.0237 Uiso
H15_4 H 0.23478 0.631523 0.950331 0.0237 Uiso
O8_4 O 0.8760(5) 0.9601(16) 0.1492(17) 0.0260 Uiso
C13_4 C 0.8775(6) 0.8178(16) 0.2525(16) 0.0470 Uiso
H16_4 H 0.882803 0.797545 0.146669 0.0934 Uiso
H17_4 H 0.842496 0.8128 0.270713 0.0934 Uiso
H18_4 H 0.896986 0.783474 0.330076 0.0934 Uiso
P4_4 P 0.8941(2) 0.9160(7) 0.2693(13) 0.0010 Uiso
C14_4 C 0.9554(4) 0.9160(7) 0.2642(11) 0.0150 Uiso
C15_4 C 0.9829(4) 0.9160(7) 0.3840(10) 0.0140 Uiso
C16_4 C 0.9708(4) 0.9160(7) 0.1282(10) 0.0120 Uiso
H19_4 H 0.969592 0.915992 0.487437 0.0284 Uiso
H20_4 H 0.947747 0.915992 0.034566 0.0237 Uiso
H28_4 H 0.774702 0.657359 0.001427 0.0284 Uiso
O11_4 O 0.8443(5) 0.9025(11) 0.8761(15) 0.0150 Uiso
C17_3 C 0.7747(5) 0.4724(15) 0.7733(14) 0.0180 Uiso
C18_4 C 0.9018(4) 0.8438(5) 0.7106(14) 0.0610 Uiso
H21_3 H 0.788813 0.474513 0.671147 0.0358 Uiso
H22_3 H 0.757589 0.418085 0.783904 0.0358 Uiso
H23_3 H 0.801056 0.477668 0.857271 0.0358 Uiso
H24_4 H 0.903015 0.814924 0.60932 0.1215 Uiso
H25_4 H 0.920475 0.897095 0.709195 0.1215 Uiso
H26_4 H 0.91627 0.807012 0.794484 0.1215 Uiso
P5_4 P 0.8452(3) 0.8644(5) 0.7418(9) 0.0010 Uiso
P6_4 P 0.7370(3) 0.5480(5) 0.7853(9) 0.0010 Uiso
C19_4 C 0.8139(2) 0.7728(6) 0.7484(11) 0.0150 Uiso
C20_4 C 0.7683(2) 0.6396(6) 0.7788(11) 0.0150 Uiso
C21_4 C 0.8003(3) 0.7337(7) 0.6294(11) 0.0140 Uiso
C22_4 C 0.7819(3) 0.6787(7) 0.8978(11) 0.0140 Uiso
C23_4 C 0.8055(3) 0.7479(7) 0.8845(11) 0.0120 Uiso
C24_4 C 0.7767(3) 0.6646(7) 0.6427(11) 0.0120 Uiso
H27_4 H 0.80746 0.755063 0.525741 0.0284 Uiso
H29_4 H 0.816942 0.780899 0.977499 0.0237 Uiso
H30_4 H 0.76522 0.631523 0.549669 0.0237 Uiso
C17_4 C 0.2747(5) 0.9724(15) 0.7733(14) 0.0180 Uiso
H21_4 H 0.288813 0.974513 0.671147 0.0358 Uiso
H22_4 H 0.257589 0.918085 0.783904 0.0358 Uiso
H23_4 H 0.301056 0.977668 0.857271 0.0358 Uiso
loop_
_geom_bond_atom_site_label_1
_geom_bond_atom_site_label_2
_geom_bond_site_symmetry_1
_geom_bond_site_symmetry_2
C17 H21 1_555 1_555
H22 C17 1_555 1_555
H23 C17 1_555 1_555
C2 H4 1_555 1_555
H5 C2 1_555 1_555
H6 C2 1_555 1_555
O9 P6 1_555 1_555
O10 P6 1_555 1_555
O11 Fe2 1_555 1_555
O12 P5 1_555 1_555
C18 H24 1_555 1_555
H25 C18 1_555 1_555
H26 C18 1_555 1_555
P5 O11 1_555 1_555
C19 P5 1_555 1_555
C20 P6 1_555 1_555
C21 C19 1_555 1_555
C22 C20 1_555 1_555
C23 C19 1_555 1_555
C24 C20 1_555 1_555
H27 C21 1_555 1_555
H29 C23 1_555 1_555
H30 C24 1_555 1_555
Fe4 O12 1_555 1_555
Fe7 O10 1_555 1_555
O13 Fe2 1_555 1_555
O17 Fe2 1_555 1_555
C18 P5 1_555 1_555
C21 C24 1_555 1_555
C22 C23 1_555 1_555
Fe1 O2 1_555 1_555
O1 P1 1_555 1_555
O2 P1 1_555 1_555
O3 P3 1_555 1_555
O4 P3 1_555 1_555
O5 Fe1 1_555 1_555
O6 P2 1_555 1_555
C1 H1 1_555 1_555
C3 H7 1_555 1_555
H2 C1 1_555 1_555
H3 C1 1_555 1_555
H8 C3 1_555 1_555
H9 C3 1_555 1_555
P1 C1 1_555 1_555
C4 P1 1_555 1_555
C5 C4 1_555 1_555
C6 C4 1_555 1_555
H10 C5 1_555 1_555
H11 C6 1_555 1_555
P2 O5 1_555 1_555
C7 P2 1_555 1_555
C8 P3 1_555 1_555
C9 C7 1_555 1_555
C10 C8 1_555 1_555
C11 C7 1_555 1_555
C12 C8 1_555 1_555
H12 C9 1_555 1_555
H13 C10 1_555 1_555
H14 C11 1_555 1_555
H15 C12 1_555 1_555
O7 P4 1_555 1_555
O8 P4 1_555 1_555
C13 H16 1_555 1_555
H17 C13 1_555 1_555
H18 C13 1_555 1_555
P4 C13 1_555 1_555
C14 P4 1_555 1_555
C15 C6 1_555 1_555
C16 C5 1_555 1_555
H19 C15 1_555 1_555
H20 C16 1_555 1_555
Fe4 O7 1_555 1_555
Fe6 O1 1_555 1_555
Fe8 O4 1_555 1_555
O14 Fe1 1_555 1_555
O15 Fe1 1_555 1_555
O18 Fe1 1_555 1_555
O20 Fe1 1_555 1_555
C3 P2 1_555 1_555
C9 C12 1_555 1_555
C10 C11 1_555 1_555
C14 C15 1_555 1_555
C14 C16 1_555 1_555
O9_2 P6_2 1_555 1_555
O18 P6_2 1_555 1_555
O12_2 P5_2 1_555 1_555
C17_2 H21_2 1_555 1_555
C18_2 H24_2 1_555 1_555
H22_2 C17_2 1_555 1_555
H23_2 C17_2 1_555 1_555
H25_2 C18_2 1_555 1_555
H26_2 C18_2 1_555 1_555
P5_2 O11_2 1_555 1_555
P6_2 C17_2 1_555 1_555
C19_2 P5_2 1_555 1_555
C20_2 P6_2 1_555 1_555
C21_2 C19_2 1_555 1_555
C22_2 C20_2 1_555 1_555
C23_2 C19_2 1_555 1_555
C24_2 C20_2 1_555 1_555
H27_2 C21_2 1_555 1_555
H29_2 C23_2 1_555 1_555
H30_2 C24_2 1_555 1_555
Fe9 O12_2 1_555 1_555
C18_2 P5_2 1_555 1_555
C21_2 C24_2 1_555 1_555
C22_2 C23_2 1_555 1_555
O7_2 P4_2 1_555 1_555
O8_2 P4_2 1_555 1_555
C13_2 H16_2 1_555 1_555
H17_2 C13_2 1_555 1_555
H18_2 C13_2 1_555 1_555
P4_2 C13_2 1_555 1_555
C14_2 P4_2 1_555 1_555
H19_2 C15_2 1_555 1_555
H20_2 C16_2 1_555 1_555
Fe9 O7_2 1_555 1_555
C14_2 C15_2 1_555 1_555
C14_2 C16_2 1_555 1_555
O13_2 Fe8 1_555 1_555
O1_2 P1_2 1_555 1_555
O2_2 P1_2 1_555 1_555
O3_2 P3_2 1_555 1_555
O17 P3_2 1_555 1_555
O6_2 P2_2 1_555 1_555
C1_2 H1_2 1_555 1_555
C2_2 H4_2 1_555 1_555
C3_2 H7_2 1_555 1_555
H2_2 C1_2 1_555 1_555
H3_2 C1_2 1_555 1_555
H5_2 C2_2 1_555 1_555
H6_2 C2_2 1_555 1_555
H8_2 C3_2 1_555 1_555
H9_2 C3_2 1_555 1_555
P1_2 C1_2 1_555 1_555
C4_2 P1_2 1_555 1_555
C5_2 C4_2 1_555 1_555
C6_2 C4_2 1_555 1_555
H10_2 C5_2 1_555 1_555
H11_2 C6_2 1_555 1_555
P2_2 O5_2 1_555 1_555
P3_2 C2_2 1_555 1_555
C7_2 P2_2 1_555 1_555
C8_2 P3_2 1_555 1_555
C9_2 C7_2 1_555 1_555
C10_2 C8_2 1_555 1_555
C11_2 C7_2 1_555 1_555
C12_2 C8_2 1_555 1_555
H12_2 C9_2 1_555 1_555
H13_2 C10_2 1_555 1_555
H14_2 C11_2 1_555 1_555
H15_2 C12_2 1_555 1_555
Fe10 O1_2 1_555 1_555
Fe4 O3_2 1_555 1_555
C3_2 P2_2 1_555 1_555
C9_2 C12_2 1_555 1_555
C10_2 C11_2 1_555 1_555
O14_2 Fe7 1_555 1_555
O20_2 Fe7 1_555 1_555
Fe4 O2_3 1_555 1_555
O13 P1_3 1_555 1_555
O2_3 P1_3 1_555 1_555
O15_2 P3_3 1_555 1_555
O4_2 P3_3 1_555 1_555
O5_3 Fe4 1_555 1_555
O19 P2_3 1_555 1_555
C1_3 H1_3 1_555 1_555
C3_3 H7_3 1_555 1_555
H2_3 C1_3 1_555 1_555
H3_3 C1_3 1_555 1_555
H8_3 C3_3 1_555 1_555
H9_3 C3_3 1_555 1_555
P1_3 C1_3 1_555 1_555
C4_3 P1_3 1_555 1_555
C5_3 C4_3 1_555 1_555
C6_3 C4_3 1_555 1_555
H10_3 C5_3 1_555 1_555
H11_3 C6_3 1_555 1_555
P2_3 O5_3 1_555 1_555
C7_3 P2_3 1_555 1_555
C8_3 P3_3 1_555 1_555
C9_3 C7_3 1_555 1_555
C10_3 C8_3 1_555 1_555
C11_3 C7_3 1_555 1_555
C12_3 C8_3 1_555 1_555
H12_3 C9_3 1_555 1_555
H13_3 C10_3 1_555 1_555
H14_3 C11_3 1_555 1_555
H15_3 C12_3 1_555 1_555
O14 P4_3 1_555 1_555
O8_3 P4_3 1_555 1_555
C13_3 H16_3 1_555 1_555
H17_3 C13_3 1_555 1_555
H18_3 C13_3 1_555 1_555
P4_3 C13_3 1_555 1_555
C14_3 P4_3 1_555 1_555
C15_3 C6_3 1_555 1_555
C16_3 C5_3 1_555 1_555
H19_3 C15_3 1_555 1_555
H20_3 C16_3 1_555 1_555
Fe10 O4_2 1_555 1_555
O18_2 Fe4 1_555 1_555
C3_3 P2_3 1_555 1_555
C9_3 C12_3 1_555 1_555
C10_3 C11_3 1_555 1_555
C14_3 C15_3 1_555 1_555
C14_3 C16_3 1_555 1_555
O16_2 P6_3 1_555 1_555
O10_2 P6_3 1_555 1_555
O11_3 Fe6 1_555 1_555
O20 P5_3 1_555 1_555
C18_3 H24_3 1_555 1_555
H25_3 C18_3 1_555 1_555
H26_3 C18_3 1_555 1_555
P5_3 O11_3 1_555 1_555
C19_3 P5_3 1_555 1_555
C20_3 P6_3 1_555 1_555
C21_3 C19_3 1_555 1_555
C22_3 C20_3 1_555 1_555
C23_3 C19_3 1_555 1_555
C24_3 C20_3 1_555 1_555
H27_3 C21_3 1_555 1_555
H29_3 C23_3 1_555 1_555
H30_3 C24_3 1_555 1_555
Fe9 O10_2 1_555 1_555
O17_2 Fe6 1_555 1_555
C18_3 P5_3 1_555 1_555
C21_3 C24_3 1_555 1_555
C22_3 C23_3 1_555 1_555
C2_3 H4_3 1_555 1_555
H5_3 C2_3 1_555 1_555
H6_3 C2_3 1_555 1_555
O13_2 P1_4 1_555 1_555
O2_4 P1_4 1_555 1_555
O15 P3_4 1_555 1_555
O17_2 P3_4 1_555 1_555
O19_2 P2_4 1_555 1_555
C1_4 H1_4 1_555 1_555
C2_4 H4_4 1_555 1_555
C3_4 H7_4 1_555 1_555
H2_4 C1_4 1_555 1_555
H3_4 C1_4 1_555 1_555
H5_4 C2_4 1_555 1_555
H6_4 C2_4 1_555 1_555
H8_4 C3_4 1_555 1_555
H9_4 C3_4 1_555 1_555
P1_4 C1_4 1_555 1_555
C4_4 P1_4 1_555 1_555
C5_4 C4_4 1_555 1_555
C6_4 C4_4 1_555 1_555
H10_4 C5_4 1_555 1_555
H11_4 C6_4 1_555 1_555
P2_4 O5_4 1_555 1_555
P3_4 C2_4 1_555 1_555
C7_4 P2_4 1_555 1_555
C8_4 P3_4 1_555 1_555
C9_4 C7_4 1_555 1_555
C10_4 C8_4 1_555 1_555
C11_4 C7_4 1_555 1_555
C12_4 C8_4 1_555 1_555
H12_4 C9_4 1_555 1_555
H13_4 C10_4 1_555 1_555
H14_4 C11_4 1_555 1_555
H15_4 C12_4 1_555 1_555
C3_4 P2_4 1_555 1_555
C9_4 C12_4 1_555 1_555
C10_4 C11_4 1_555 1_555
O14_2 P4_4 1_555 1_555
O8_4 P4_4 1_555 1_555
C13_4 H16_4 1_555 1_555
H17_4 C13_4 1_555 1_555
H18_4 C13_4 1_555 1_555
P4_4 C13_4 1_555 1_555
C14_4 P4_4 1_555 1_555
H19_4 C15_4 1_555 1_555
H20_4 C16_4 1_555 1_555
C14_4 C15_4 1_555 1_555
C14_4 C16_4 1_555 1_555
O16 P6_4 1_555 1_555
O18_2 P6_4 1_555 1_555
O20_2 P5_4 1_555 1_555
C17_3 H21_3 1_555 1_555
C18_4 H24_4 1_555 1_555
H22_3 C17_3 1_555 1_555
H23_3 C17_3 1_555 1_555
H25_4 C18_4 1_555 1_555
H26_4 C18_4 1_555 1_555
P5_4 O11_4 1_555 1_555
P6_4 C17_3 1_555 1_555
C19_4 P5_4 1_555 1_555
C20_4 P6_4 1_555 1_555
C21_4 C19_4 1_555 1_555
C22_4 C20_4 1_555 1_555
C23_4 C19_4 1_555 1_555
C24_4 C20_4 1_555 1_555
H27_4 C21_4 1_555 1_555
H29_4 C23_4 1_555 1_555
H30_4 C24_4 1_555 1_555
C18_4 P5_4 1_555 1_555
C21_4 C24_4 1_555 1_555
C22_4 C23_4 1_555 1_555
C17_4 H21_4 1_555 1_555
H22_4 C17_4 1_555 1_555
H23_4 C17_4 1_555 1_555

#END
