
###############################################################################
#
# This file contains modified crystal structure data generated from the
# MOF subset of the Cambridge Structural Database (CSD) v543 
# hosted by the Cambridge Crystallographic Data Centre (CCDC).
#
# This work is licensed under the Creative Commons
# Attribution-NonCommercial-ShareAlike 4.0 International License.
# To view a copy of this license, visit
# http://creativecommons.org/licenses/by-nc-sa/4.0/
# or send a letter to
# Creative Commons, PO Box 1866, Mountain View, CA 94042, USA.
#
# CIF created using the CSD Python API on 29 September 2022
# The structure has been converted into the P1 space group
# The structure has a 3D framework
# The original CSD entry VOXZEP is in the cubic crystal system
# The framework has been calculated to contain at least 10.0% void space
# The void calculation uses a probe of radius 1.32A, grid spacing 0.4
#
###############################################################################

data_VOXZEP
_chemical_formula_moiety         '(C1920 H384 O768 Pb192 S384)n'
_symmetry_cell_setting           triclinic
_symmetry_space_group_name_H-M   'P 1'
_symmetry_Int_Tables_number      1
_space_group_name_Hall           'P 1'
loop_
_symmetry_equiv_pos_site_id
_symmetry_equiv_pos_as_xyz
1 x,y,z
_cell_length_a                   40.110(5)
_cell_length_b                   40.110(5)
_cell_length_c                   40.110(5)
_cell_angle_alpha                90
_cell_angle_beta                 90
_cell_angle_gamma                90
_cell_volume                     64529.5
loop_
_atom_site_label
_atom_site_type_symbol
_atom_site_fract_x
_atom_site_fract_y
_atom_site_fract_z
C1 C 0.17954(17) 0.46515(19) 0.35325(18)
C2 C 0.20840(17) 0.46729(17) 0.33018(17)
C3 C 0.21448(12) 0.44175(15) 0.30278(12)
H1 H 0.2028 0.4225 0.2973
C4 C 0.2456(2) 0.4573(2) 0.2869(2)
C5 C 0.25866(19) 0.4873(2) 0.30331(17)
C6 C 0.0692(2) 0.4591(3) 0.3535(3)
C7 C 0.0415(2) 0.4639(2) 0.33018(19)
C8 C 0.01720(15) 0.49347(17) 0.33309(15)
H2 H 0.0170 0.5120 0.3471
C10 C 0.0020(2) 0.4554(2) 0.2849(2)
O1 O 0.17382(15) 0.48558(16) 0.37400(14)
O2 O 0.16163(16) 0.43791(16) 0.34960(16)
O3 O 0.08746(15) 0.43418(16) 0.34954(16)
O4 O 0.07226(17) 0.47981(18) 0.37647(16)
Pb1 Pb 0.124096(8) 0.447185(9) 0.397441(10)
S1 S 0.23433(6) 0.49940(7) 0.33571(6)
S2 S 0.03636(8) 0.43449(9) 0.29908(7)
C11 C 0.28485(19) 0.39675(18) 0.17954(17)
C12 C 0.28271(17) 0.41982(17) 0.20840(17)
C13 C 0.30825(15) 0.44722(12) 0.21448(12)
H3 H 0.3275 0.4527 0.2028
C14 C 0.2927(2) 0.4631(2) 0.2456(2)
C15 C 0.2627(2) 0.44669(17) 0.25866(19)
O5 O 0.26442(16) 0.37600(14) 0.17382(15)
O6 O 0.31209(16) 0.40040(16) 0.16163(16)
S3 S 0.25060(7) 0.41429(6) 0.23433(6)
C16 C 0.35325(18) 0.57046(17) 0.28485(19)
C17 C 0.33018(17) 0.54160(17) 0.28271(17)
C18 C 0.30278(12) 0.53552(12) 0.30825(15)
H4 H 0.2973 0.5472 0.3275
C19 C 0.2869(2) 0.5044(2) 0.2927(2)
C20 C 0.30331(17) 0.49134(19) 0.2627(2)
O7 O 0.37400(14) 0.57618(15) 0.26442(16)
O8 O 0.34960(16) 0.58837(16) 0.31209(16)
S4 S 0.33571(6) 0.51567(6) 0.25060(7)
H5 H 0.0120 0.4029 0.2330
O13 O 0.01442(16) 0.32618(15) 0.12600(14)
O17 O 0.12400(14) 0.51442(16) 0.42382(15)
O21 O 0.08837(16) 0.40040(16) 0.43791(16)
O24 O 0.16254(15) 0.40046(16) 0.43418(16)
Pb4 Pb 0.374096(8) 0.602559(10) 0.197185(9)
Pb5 Pb 0.302815(9) 0.352559(10) 0.124096(8)
Pb6 Pb 0.147441(10) 0.552815(9) 0.374096(8)
Pb7 Pb 0.397441(10) 0.625904(8) 0.302815(9)
Pb8 Pb 0.197185(9) 0.375904(8) 0.147441(10)
Pb9 Pb 0.352559(10) 0.447185(9) 0.125904(8)
Pb10 Pb 0.302815(9) 0.624096(8) 0.352559(10)
Pb12 Pb 0.125904(8) 0.397441(10) 0.302815(9)
C9 C 0.9944(2) 0.4827(2) 0.3065(2)
C21 C 0.9591(3) 0.3965(3) 0.1808(2)
C22 C 0.9639(2) 0.41982(19) 0.2085(2)
C23 C 0.99347(17) 0.41691(15) 0.23280(15)
C24 C 0.9827(2) 0.4435(2) 0.2556(2)
C25 C 0.9554(2) 0.4651(2) 0.2480(2)
O9 O 0.93418(16) 0.40046(16) 0.16254(15)
O10 O 0.97981(18) 0.37353(16) 0.17774(17)
S5 S 0.93449(9) 0.45092(7) 0.21364(8)
C26 C 0.8965(3) 0.5692(2) 0.2909(3)
C27 C 0.91982(19) 0.5415(2) 0.2861(2)
C28 C 0.91691(15) 0.51720(15) 0.25653(17)
H6 H 0.9029 0.5170 0.2380
C29 C 0.9435(2) 0.4944(2) 0.2673(2)
C30 C 0.9651(2) 0.5020(2) 0.2946(2)
O11 O 0.90046(16) 0.58746(15) 0.31582(16)
O12 O 0.87353(16) 0.57226(17) 0.27019(18)
S6 S 0.95092(7) 0.53636(8) 0.31551(9)
Pb2 Pb 0.947185(9) 0.352559(10) 0.125904(8)
Pb3 Pb 0.852559(10) 0.624096(8) 0.302815(9)
O14 O 0.98558(16) 0.37600(14) 0.07618(15)
O15 O 0.82618(15) 0.62400(14) 0.23558(16)
O16 O 0.87600(14) 0.67382(15) 0.26442(16)
O18 O 0.93791(16) 0.40040(16) 0.08837(16)
O19 O 0.90040(16) 0.66163(16) 0.31209(16)
O20 O 0.81209(16) 0.58837(16) 0.34960(16)
O22 O 0.90040(16) 0.31209(16) 0.16163(16)
O23 O 0.81582(16) 0.66254(15) 0.34954(16)
O25 O 0.90046(16) 0.31582(16) 0.08746(15)
Pb11 Pb 0.897441(10) 0.447185(9) 0.124096(8)
Pb13 Pb 0.947185(9) 0.625904(8) 0.352559(10)
C1_2 C 0.07046(17) 0.28485(19) 0.85325(18)
C2_2 C 0.04160(17) 0.28271(17) 0.83018(17)
C3_2 C 0.03552(12) 0.30825(15) 0.80278(12)
H1_2 H 0.0472 0.3275 0.7973
C4_2 C 0.0044(2) 0.2927(2) 0.7869(2)
C6_2 C 0.1808(2) 0.2909(3) 0.8535(3)
C7_2 C 0.2085(2) 0.2861(2) 0.83018(19)
C8_2 C 0.23280(15) 0.25653(17) 0.83309(15)
H2_2 H 0.2330 0.2380 0.8471
C9_2 C 0.2556(2) 0.2673(2) 0.8065(2)
C10_2 C 0.2480(2) 0.2946(2) 0.7849(2)
O1_2 O 0.07618(15) 0.26442(16) 0.87400(14)
O2_2 O 0.08837(16) 0.31209(16) 0.84960(16)
O3_2 O 0.16254(15) 0.31582(16) 0.84954(16)
O4_2 O 0.17774(17) 0.27019(18) 0.87647(16)
Pb1_2 Pb 0.125904(8) 0.302815(9) 0.897441(10)
S1_2 S 0.01567(6) 0.25060(7) 0.83571(6)
S2_2 S 0.21364(8) 0.31551(9) 0.79908(7)
C21_2 C 0.2909(3) 0.3535(3) 0.6808(2)
C22_2 C 0.2861(2) 0.33018(19) 0.7085(2)
C23_2 C 0.25653(17) 0.33309(15) 0.73280(15)
H5_2 H 0.2380 0.3471 0.7330
C24_2 C 0.2673(2) 0.3065(2) 0.7556(2)
C25_2 C 0.2946(2) 0.2849(2) 0.7480(2)
O9_2 O 0.31582(16) 0.34954(16) 0.66254(15)
O10_2 O 0.27019(18) 0.37647(16) 0.67774(17)
S5_2 S 0.31551(9) 0.29908(7) 0.71364(8)
C26_2 C 0.3535(3) 0.1808(2) 0.7909(3)
C27_2 C 0.33018(19) 0.2085(2) 0.7861(2)
C28_2 C 0.33309(15) 0.23280(15) 0.75653(17)
H6_2 H 0.3471 0.2330 0.7380
C29_2 C 0.3065(2) 0.2556(2) 0.7673(2)
C30_2 C 0.2849(2) 0.2480(2) 0.7946(2)
O11_2 O 0.34954(16) 0.16254(15) 0.81582(16)
O12_2 O 0.37647(16) 0.17774(17) 0.77019(18)
S6_2 S 0.29908(7) 0.21364(8) 0.81551(9)
Pb2_2 Pb 0.302815(9) 0.397441(10) 0.625904(8)
Pb3_2 Pb 0.397441(10) 0.125904(8) 0.802815(9)
O13_2 O 0.23558(16) 0.42382(15) 0.62600(14)
O14_2 O 0.26442(16) 0.37400(14) 0.57618(15)
O15_2 O 0.42382(15) 0.12600(14) 0.73558(16)
O16_2 O 0.37400(14) 0.07618(15) 0.76442(16)
O17_2 O 0.12600(14) 0.23558(16) 0.92382(15)
O18_2 O 0.31209(16) 0.34960(16) 0.58837(16)
O19_2 O 0.34960(16) 0.08837(16) 0.81209(16)
O20_2 O 0.43791(16) 0.16163(16) 0.84960(16)
O21_2 O 0.16163(16) 0.34960(16) 0.93791(16)
O22_2 O 0.34960(16) 0.43791(16) 0.66163(16)
O23_2 O 0.43418(16) 0.08746(15) 0.84954(16)
O24_2 O 0.08746(15) 0.34954(16) 0.93418(16)
O25_2 O 0.34954(16) 0.43418(16) 0.58746(15)
Pb6_2 Pb 0.102559(10) 0.197185(9) 0.874096(8)
Pb8_2 Pb 0.052815(9) 0.374096(8) 0.647441(10)
Pb11_2 Pb 0.352559(10) 0.302815(9) 0.624096(8)
Pb12_2 Pb 0.124096(8) 0.352559(10) 0.802815(9)
Pb13_2 Pb 0.302815(9) 0.124096(8) 0.852559(10)
C5_2 C 0.99134(19) 0.2627(2) 0.80331(17)
C11_2 C 0.96515(19) 0.35325(18) 0.67954(17)
C12_2 C 0.96729(17) 0.33018(17) 0.70840(17)
C13_2 C 0.94175(15) 0.30278(12) 0.71448(12)
H3_2 H 0.9225 0.2973 0.7028
C14_2 C 0.9573(2) 0.2869(2) 0.7456(2)
C15_2 C 0.9873(2) 0.30331(17) 0.75866(19)
O5_2 O 0.98558(16) 0.37400(14) 0.67382(15)
O6_2 O 0.93791(16) 0.34960(16) 0.66163(16)
S3_2 S 0.99940(7) 0.33571(6) 0.73433(6)
C16_2 C 0.89675(18) 0.17954(17) 0.78485(19)
C17_2 C 0.91982(17) 0.20840(17) 0.78271(17)
C18_2 C 0.94722(12) 0.21448(12) 0.80825(15)
H4_2 H 0.9527 0.2028 0.8275
C19_2 C 0.9631(2) 0.2456(2) 0.7927(2)
C20_2 C 0.94669(17) 0.25866(19) 0.7627(2)
O7_2 O 0.87600(14) 0.17382(15) 0.76442(16)
O8_2 O 0.90040(16) 0.16163(16) 0.81209(16)
S4_2 S 0.91429(6) 0.23433(6) 0.75060(7)
Pb4_2 Pb 0.875904(8) 0.147441(10) 0.697185(9)
Pb5_2 Pb 0.947185(9) 0.397441(10) 0.624096(8)
Pb7_2 Pb 0.852559(10) 0.124096(8) 0.802815(9)
Pb9_2 Pb 0.897441(10) 0.302815(9) 0.625904(8)
Pb10_2 Pb 0.947185(9) 0.125904(8) 0.852559(10)
H6_3 H 0.8471 0.0170 0.0120
O15_3 O 0.92382(15) 0.12400(14) 0.01442(16)
Pb4_3 Pb 0.375904(8) 0.102559(10) 0.052815(9)
H2_3 H 0.7330 0.0120 0.9029
C16_3 C 0.39675(18) 0.07046(17) 0.96515(19)
C17_3 C 0.41982(17) 0.04160(17) 0.96729(17)
C18_3 C 0.44722(12) 0.03552(12) 0.94175(15)
H4_3 H 0.4527 0.0472 0.9225
C19_3 C 0.4631(2) 0.0044(2) 0.9573(2)
O7_3 O 0.37600(14) 0.07618(15) 0.98558(16)
O8_3 O 0.40040(16) 0.08837(16) 0.93791(16)
S4_3 S 0.41429(6) 0.01567(6) 0.99940(7)
C26_3 C 0.8535(3) 0.0692(2) 0.9591(3)
C27_3 C 0.83018(19) 0.0415(2) 0.9639(2)
C28_3 C 0.83309(15) 0.01720(15) 0.99347(17)
C30_3 C 0.7849(2) 0.0020(2) 0.9554(2)
O11_3 O 0.84954(16) 0.08746(15) 0.93418(16)
O12_3 O 0.87647(16) 0.07226(17) 0.97981(18)
S6_3 S 0.79908(7) 0.03636(8) 0.93449(9)
Pb3_3 Pb 0.897441(10) 0.124096(8) 0.947185(9)
O16_3 O 0.87400(14) 0.17382(15) 0.98558(16)
O17_3 O 0.62600(14) 0.01442(16) 0.82618(15)
O19_3 O 0.84960(16) 0.16163(16) 0.93791(16)
O20_3 O 0.93791(16) 0.08837(16) 0.90040(16)
O23_3 O 0.93418(16) 0.16254(15) 0.90046(16)
Pb6_3 Pb 0.602559(10) 0.052815(9) 0.875904(8)
Pb7_3 Pb 0.352559(10) 0.125904(8) 0.947185(9)
Pb10_3 Pb 0.447185(9) 0.124096(8) 0.897441(10)
Pb13_3 Pb 0.802815(9) 0.125904(8) 0.897441(10)
C11_3 C 0.46515(19) 0.89675(18) 0.07046(17)
C12_3 C 0.46729(17) 0.91982(17) 0.04160(17)
C13_3 C 0.44175(15) 0.94722(12) 0.03552(12)
H3_3 H 0.4225 0.9527 0.0472
C14_3 C 0.4573(2) 0.9631(2) 0.0044(2)
O5_3 O 0.48558(16) 0.87600(14) 0.07618(15)
O6_3 O 0.43791(16) 0.90040(16) 0.08837(16)
S3_3 S 0.49940(7) 0.91429(6) 0.01567(6)
C21_3 C 0.7909(3) 0.8965(3) 0.0692(2)
C22_3 C 0.7861(2) 0.91982(19) 0.0415(2)
C23_3 C 0.75653(17) 0.91691(15) 0.01720(15)
H5_3 H 0.7380 0.9029 0.0170
C25_3 C 0.7946(2) 0.9651(2) 0.0020(2)
O9_3 O 0.81582(16) 0.90046(16) 0.08746(15)
O10_3 O 0.77019(18) 0.87353(16) 0.07226(17)
S5_3 S 0.81551(9) 0.95092(7) 0.03636(8)
Pb2_3 Pb 0.802815(9) 0.852559(10) 0.124096(8)
O13_3 O 0.73558(16) 0.82618(15) 0.12400(14)
O14_3 O 0.76442(16) 0.87600(14) 0.17382(15)
O18_3 O 0.81209(16) 0.90040(16) 0.16163(16)
O22_3 O 0.84960(16) 0.81209(16) 0.08837(16)
O25_3 O 0.84954(16) 0.81582(16) 0.16254(15)
Pb5_3 Pb 0.447185(9) 0.852559(10) 0.125904(8)
Pb8_3 Pb 0.552815(9) 0.875904(8) 0.102559(10)
Pb9_3 Pb 0.397441(10) 0.947185(9) 0.124096(8)
Pb11_3 Pb 0.852559(10) 0.947185(9) 0.125904(8)
C1_3 C 0.57046(17) 0.96515(19) 0.89675(18)
C2_3 C 0.54160(17) 0.96729(17) 0.91982(17)
C3_3 C 0.53552(12) 0.94175(15) 0.94722(12)
H1_3 H 0.5472 0.9225 0.9527
C4_3 C 0.5044(2) 0.9573(2) 0.9631(2)
C5_3 C 0.49134(19) 0.9873(2) 0.94669(17)
C6_3 C 0.6808(2) 0.9591(3) 0.8965(3)
C7_3 C 0.7085(2) 0.9639(2) 0.91982(19)
C8_3 C 0.73280(15) 0.99347(17) 0.91691(15)
C9_3 C 0.7556(2) 0.9827(2) 0.9435(2)
C10_3 C 0.7480(2) 0.9554(2) 0.9651(2)
O1_3 O 0.57618(15) 0.98558(16) 0.87600(14)
O2_3 O 0.58837(16) 0.93791(16) 0.90040(16)
O3_3 O 0.66254(15) 0.93418(16) 0.90046(16)
O4_3 O 0.67774(17) 0.97981(18) 0.87353(16)
Pb1_3 Pb 0.625904(8) 0.947185(9) 0.852559(10)
S1_3 S 0.51567(6) 0.99940(7) 0.91429(6)
S2_3 S 0.71364(8) 0.93449(9) 0.95092(7)
C15_3 C 0.4873(2) 0.94669(17) 0.99134(19)
C20_3 C 0.44669(17) 0.99134(19) 0.9873(2)
C24_3 C 0.7673(2) 0.9435(2) 0.9944(2)
C29_3 C 0.8065(2) 0.9944(2) 0.9827(2)
O21_3 O 0.66163(16) 0.90040(16) 0.81209(16)
O24_3 O 0.58746(15) 0.90046(16) 0.81582(16)
Pb12_3 Pb 0.624096(8) 0.897441(10) 0.947185(9)
C1_4 C 0.67954(17) 0.78485(19) 0.39675(18)
C2_4 C 0.70840(17) 0.78271(17) 0.41982(17)
C3_4 C 0.71448(12) 0.80825(15) 0.44722(12)
H1_4 H 0.7028 0.8275 0.4527
C4_4 C 0.7456(2) 0.7927(2) 0.4631(2)
C5_4 C 0.75866(19) 0.7627(2) 0.44669(17)
C6_4 C 0.5692(2) 0.7909(3) 0.3965(3)
C7_4 C 0.5415(2) 0.7861(2) 0.41982(19)
C8_4 C 0.51720(15) 0.75653(17) 0.41691(15)
H2_4 H 0.5170 0.7380 0.4029
C9_4 C 0.4944(2) 0.7673(2) 0.4435(2)
C10_4 C 0.5020(2) 0.7946(2) 0.4651(2)
O1_4 O 0.67382(15) 0.76442(16) 0.37600(14)
O2_4 O 0.66163(16) 0.81209(16) 0.40040(16)
O3_4 O 0.58746(15) 0.81582(16) 0.40046(16)
O4_4 O 0.57226(17) 0.77019(18) 0.37353(16)
Pb1_4 Pb 0.624096(8) 0.802815(9) 0.352559(10)
S1_4 S 0.73433(6) 0.75060(7) 0.41429(6)
S2_4 S 0.53636(8) 0.81551(9) 0.45092(7)
C11_4 C 0.78485(19) 0.85325(18) 0.57046(17)
C12_4 C 0.78271(17) 0.83018(17) 0.54160(17)
C13_4 C 0.80825(15) 0.80278(12) 0.53552(12)
H3_4 H 0.8275 0.7973 0.5472
C14_4 C 0.7927(2) 0.7869(2) 0.5044(2)
C15_4 C 0.7627(2) 0.80331(17) 0.49134(19)
O5_4 O 0.76442(16) 0.87400(14) 0.57618(15)
O6_4 O 0.81209(16) 0.84960(16) 0.58837(16)
S3_4 S 0.75060(7) 0.83571(6) 0.51567(6)
C16_4 C 0.85325(18) 0.67954(17) 0.46515(19)
C17_4 C 0.83018(17) 0.70840(17) 0.46729(17)
C18_4 C 0.80278(12) 0.71448(12) 0.44175(15)
H4_4 H 0.7973 0.7028 0.4225
C19_4 C 0.7869(2) 0.7456(2) 0.4573(2)
C20_4 C 0.80331(17) 0.75866(19) 0.4873(2)
O7_4 O 0.87400(14) 0.67382(15) 0.48558(16)
O8_4 O 0.84960(16) 0.66163(16) 0.43791(16)
S4_4 S 0.83571(6) 0.73433(6) 0.49940(7)
C21_4 C 0.4591(3) 0.8535(3) 0.5692(2)
C22_4 C 0.4639(2) 0.83018(19) 0.5415(2)
C23_4 C 0.49347(17) 0.83309(15) 0.51720(15)
H5_4 H 0.5120 0.8471 0.5170
C24_4 C 0.4827(2) 0.8065(2) 0.4944(2)
C25_4 C 0.4554(2) 0.7849(2) 0.5020(2)
O9_4 O 0.43418(16) 0.84954(16) 0.58746(15)
O10_4 O 0.47981(18) 0.87647(16) 0.57226(17)
S5_4 S 0.43449(9) 0.79908(7) 0.53636(8)
C26_4 C 0.3965(3) 0.6808(2) 0.4591(3)
C27_4 C 0.41982(19) 0.7085(2) 0.4639(2)
C28_4 C 0.41691(15) 0.73280(15) 0.49347(17)
H6_4 H 0.4029 0.7330 0.5120
C29_4 C 0.4435(2) 0.7556(2) 0.4827(2)
C30_4 C 0.4651(2) 0.7480(2) 0.4554(2)
O11_4 O 0.40046(16) 0.66254(15) 0.43418(16)
O12_4 O 0.37353(16) 0.67774(17) 0.47981(18)
S6_4 S 0.45092(7) 0.71364(8) 0.43449(9)
Pb2_4 Pb 0.447185(9) 0.897441(10) 0.624096(8)
Pb3_4 Pb 0.352559(10) 0.625904(8) 0.447185(9)
O13_4 O 0.51442(16) 0.92382(15) 0.62400(14)
O14_4 O 0.48558(16) 0.87400(14) 0.67382(15)
O15_4 O 0.32618(15) 0.62600(14) 0.51442(16)
O16_4 O 0.37600(14) 0.57618(15) 0.48558(16)
O17_4 O 0.62400(14) 0.73558(16) 0.32618(15)
O18_4 O 0.43791(16) 0.84960(16) 0.66163(16)
O19_4 O 0.40040(16) 0.58837(16) 0.43791(16)
O20_4 O 0.31209(16) 0.66163(16) 0.40040(16)
O21_4 O 0.58837(16) 0.84960(16) 0.31209(16)
O22_4 O 0.40040(16) 0.93791(16) 0.58837(16)
O23_4 O 0.31582(16) 0.58746(15) 0.40046(16)
O24_4 O 0.66254(15) 0.84954(16) 0.31582(16)
O25_4 O 0.40046(16) 0.93418(16) 0.66254(15)
Pb4_4 Pb 0.874096(8) 0.647441(10) 0.552815(9)
Pb5_4 Pb 0.802815(9) 0.897441(10) 0.625904(8)
Pb6_4 Pb 0.647441(10) 0.697185(9) 0.375904(8)
Pb7_4 Pb 0.897441(10) 0.624096(8) 0.447185(9)
Pb8_4 Pb 0.697185(9) 0.874096(8) 0.602559(10)
Pb9_4 Pb 0.852559(10) 0.802815(9) 0.624096(8)
Pb10_4 Pb 0.802815(9) 0.625904(8) 0.397441(10)
Pb11_4 Pb 0.397441(10) 0.802815(9) 0.625904(8)
Pb12_4 Pb 0.625904(8) 0.852559(10) 0.447185(9)
Pb13_4 Pb 0.447185(9) 0.624096(8) 0.397441(10)
C1_5 C 0.35325(18) 0.17954(17) 0.46515(19)
C2_5 C 0.33018(17) 0.20840(17) 0.46729(17)
C3_5 C 0.30278(12) 0.21448(12) 0.44175(15)
H1_5 H 0.2973 0.2028 0.4225
C4_5 C 0.2869(2) 0.2456(2) 0.4573(2)
C5_5 C 0.30331(17) 0.25866(19) 0.4873(2)
C6_5 C 0.3535(3) 0.0692(2) 0.4591(3)
C7_5 C 0.33018(19) 0.0415(2) 0.4639(2)
C8_5 C 0.33309(15) 0.01720(15) 0.49347(17)
H2_5 H 0.3471 0.0170 0.5120
C10_5 C 0.2849(2) 0.0020(2) 0.4554(2)
O1_5 O 0.37400(14) 0.17382(15) 0.48558(16)
O2_5 O 0.34960(16) 0.16163(16) 0.43791(16)
O3_5 O 0.34954(16) 0.08746(15) 0.43418(16)
O4_5 O 0.37647(16) 0.07226(17) 0.47981(18)
Pb1_5 Pb 0.397441(10) 0.124096(8) 0.447185(9)
S1_5 S 0.33571(6) 0.23433(6) 0.49940(7)
S2_5 S 0.29908(7) 0.03636(8) 0.43449(9)
C11_5 C 0.17954(17) 0.28485(19) 0.39675(18)
C12_5 C 0.20840(17) 0.28271(17) 0.41982(17)
C13_5 C 0.21448(12) 0.30825(15) 0.44722(12)
H3_5 H 0.2028 0.3275 0.4527
C14_5 C 0.2456(2) 0.2927(2) 0.4631(2)
C15_5 C 0.25866(19) 0.2627(2) 0.44669(17)
O5_5 O 0.17382(15) 0.26442(16) 0.37600(14)
O6_5 O 0.16163(16) 0.31209(16) 0.40040(16)
S3_5 S 0.23433(6) 0.25060(7) 0.41429(6)
C16_5 C 0.28485(19) 0.35325(18) 0.57046(17)
C17_5 C 0.28271(17) 0.33018(17) 0.54160(17)
C18_5 C 0.30825(15) 0.30278(12) 0.53552(12)
H4_5 H 0.3275 0.2973 0.5472
C19_5 C 0.2927(2) 0.2869(2) 0.5044(2)
C20_5 C 0.2627(2) 0.30331(17) 0.49134(19)
S4_5 S 0.25060(7) 0.33571(6) 0.51567(6)
H5_5 H 0.2330 0.0120 0.4029
O13_5 O 0.12600(14) 0.01442(16) 0.32618(15)
O17_5 O 0.42382(15) 0.12400(14) 0.51442(16)
O21_5 O 0.43791(16) 0.08837(16) 0.40040(16)
O24_5 O 0.43418(16) 0.16254(15) 0.40046(16)
Pb4_5 Pb 0.197185(9) 0.374096(8) 0.602559(10)
Pb5_5 Pb 0.124096(8) 0.302815(9) 0.352559(10)
Pb6_5 Pb 0.374096(8) 0.147441(10) 0.552815(9)
Pb8_5 Pb 0.147441(10) 0.197185(9) 0.375904(8)
Pb9_5 Pb 0.125904(8) 0.352559(10) 0.447185(9)
Pb12_5 Pb 0.302815(9) 0.125904(8) 0.397441(10)
C9_5 C 0.3065(2) 0.9944(2) 0.4827(2)
C21_5 C 0.1808(2) 0.9591(3) 0.3965(3)
C22_5 C 0.2085(2) 0.9639(2) 0.41982(19)
C23_5 C 0.23280(15) 0.99347(17) 0.41691(15)
C24_5 C 0.2556(2) 0.9827(2) 0.4435(2)
C25_5 C 0.2480(2) 0.9554(2) 0.4651(2)
O9_5 O 0.16254(15) 0.93418(16) 0.40046(16)
O10_5 O 0.17774(17) 0.97981(18) 0.37353(16)
S5_5 S 0.21364(8) 0.93449(9) 0.45092(7)
C26_5 C 0.2909(3) 0.8965(3) 0.5692(2)
C27_5 C 0.2861(2) 0.91982(19) 0.5415(2)
C28_5 C 0.25653(17) 0.91691(15) 0.51720(15)
H6_5 H 0.2380 0.9029 0.5170
C29_5 C 0.2673(2) 0.9435(2) 0.4944(2)
C30_5 C 0.2946(2) 0.9651(2) 0.5020(2)
O11_5 O 0.31582(16) 0.90046(16) 0.58746(15)
O12_5 O 0.27019(18) 0.87353(16) 0.57226(17)
S6_5 S 0.31551(9) 0.95092(7) 0.53636(8)
Pb2_5 Pb 0.125904(8) 0.947185(9) 0.352559(10)
Pb3_5 Pb 0.302815(9) 0.852559(10) 0.624096(8)
O14_5 O 0.07618(15) 0.98558(16) 0.37600(14)
O15_5 O 0.23558(16) 0.82618(15) 0.62400(14)
O16_5 O 0.26442(16) 0.87600(14) 0.67382(15)
O18_5 O 0.08837(16) 0.93791(16) 0.40040(16)
O19_5 O 0.31209(16) 0.90040(16) 0.66163(16)
O20_5 O 0.34960(16) 0.81209(16) 0.58837(16)
O22_5 O 0.16163(16) 0.90040(16) 0.31209(16)
O23_5 O 0.34954(16) 0.81582(16) 0.66254(15)
O25_5 O 0.08746(15) 0.90046(16) 0.31582(16)
Pb11_5 Pb 0.124096(8) 0.897441(10) 0.447185(9)
Pb13_5 Pb 0.352559(10) 0.947185(9) 0.625904(8)
C1_6 C 0.85325(18) 0.07046(17) 0.28485(19)
C2_6 C 0.83018(17) 0.04160(17) 0.28271(17)
C3_6 C 0.80278(12) 0.03552(12) 0.30825(15)
H1_6 H 0.7973 0.0472 0.3275
C4_6 C 0.7869(2) 0.0044(2) 0.2927(2)
C6_6 C 0.8535(3) 0.1808(2) 0.2909(3)
C7_6 C 0.83018(19) 0.2085(2) 0.2861(2)
C8_6 C 0.83309(15) 0.23280(15) 0.25653(17)
H2_6 H 0.8471 0.2330 0.2380
C9_6 C 0.8065(2) 0.2556(2) 0.2673(2)
C10_6 C 0.7849(2) 0.2480(2) 0.2946(2)
O1_6 O 0.87400(14) 0.07618(15) 0.26442(16)
O2_6 O 0.84960(16) 0.08837(16) 0.31209(16)
O3_6 O 0.84954(16) 0.16254(15) 0.31582(16)
O4_6 O 0.87647(16) 0.17774(17) 0.27019(18)
Pb1_6 Pb 0.897441(10) 0.125904(8) 0.302815(9)
S1_6 S 0.83571(6) 0.01567(6) 0.25060(7)
S2_6 S 0.79908(7) 0.21364(8) 0.31551(9)
C21_6 C 0.6808(2) 0.2909(3) 0.3535(3)
C22_6 C 0.7085(2) 0.2861(2) 0.33018(19)
C23_6 C 0.73280(15) 0.25653(17) 0.33309(15)
H5_6 H 0.7330 0.2380 0.3471
C24_6 C 0.7556(2) 0.2673(2) 0.3065(2)
C25_6 C 0.7480(2) 0.2946(2) 0.2849(2)
O9_6 O 0.66254(15) 0.31582(16) 0.34954(16)
O10_6 O 0.67774(17) 0.27019(18) 0.37647(16)
S5_6 S 0.71364(8) 0.31551(9) 0.29908(7)
C26_6 C 0.7909(3) 0.3535(3) 0.1808(2)
C27_6 C 0.7861(2) 0.33018(19) 0.2085(2)
C28_6 C 0.75653(17) 0.33309(15) 0.23280(15)
H6_6 H 0.7380 0.3471 0.2330
C29_6 C 0.7673(2) 0.3065(2) 0.2556(2)
C30_6 C 0.7946(2) 0.2849(2) 0.2480(2)
O11_6 O 0.81582(16) 0.34954(16) 0.16254(15)
O12_6 O 0.77019(18) 0.37647(16) 0.17774(17)
S6_6 S 0.81551(9) 0.29908(7) 0.21364(8)
Pb2_6 Pb 0.625904(8) 0.302815(9) 0.397441(10)
Pb3_6 Pb 0.802815(9) 0.397441(10) 0.125904(8)
O13_6 O 0.62600(14) 0.23558(16) 0.42382(15)
O14_6 O 0.57618(15) 0.26442(16) 0.37400(14)
O15_6 O 0.73558(16) 0.42382(15) 0.12600(14)
O16_6 O 0.76442(16) 0.37400(14) 0.07618(15)
O17_6 O 0.92382(15) 0.12600(14) 0.23558(16)
O18_6 O 0.58837(16) 0.31209(16) 0.34960(16)
O19_6 O 0.81209(16) 0.34960(16) 0.08837(16)
O20_6 O 0.84960(16) 0.43791(16) 0.16163(16)
O21_6 O 0.93791(16) 0.16163(16) 0.34960(16)
O22_6 O 0.66163(16) 0.34960(16) 0.43791(16)
O23_6 O 0.84954(16) 0.43418(16) 0.08746(15)
O24_6 O 0.93418(16) 0.08746(15) 0.34954(16)
O25_6 O 0.58746(15) 0.34954(16) 0.43418(16)
Pb6_6 Pb 0.874096(8) 0.102559(10) 0.197185(9)
Pb8_6 Pb 0.647441(10) 0.052815(9) 0.374096(8)
Pb11_6 Pb 0.624096(8) 0.352559(10) 0.302815(9)
Pb12_6 Pb 0.802815(9) 0.124096(8) 0.352559(10)
Pb13_6 Pb 0.852559(10) 0.302815(9) 0.124096(8)
C5_6 C 0.80331(17) 0.99134(19) 0.2627(2)
C11_6 C 0.67954(17) 0.96515(19) 0.35325(18)
C12_6 C 0.70840(17) 0.96729(17) 0.33018(17)
C13_6 C 0.71448(12) 0.94175(15) 0.30278(12)
H3_6 H 0.7028 0.9225 0.2973
C14_6 C 0.7456(2) 0.9573(2) 0.2869(2)
C15_6 C 0.75866(19) 0.9873(2) 0.30331(17)
O5_6 O 0.67382(15) 0.98558(16) 0.37400(14)
O6_6 O 0.66163(16) 0.93791(16) 0.34960(16)
S3_6 S 0.73433(6) 0.99940(7) 0.33571(6)
C16_6 C 0.78485(19) 0.89675(18) 0.17954(17)
C17_6 C 0.78271(17) 0.91982(17) 0.20840(17)
C18_6 C 0.80825(15) 0.94722(12) 0.21448(12)
H4_6 H 0.8275 0.9527 0.2028
C19_6 C 0.7927(2) 0.9631(2) 0.2456(2)
C20_6 C 0.7627(2) 0.94669(17) 0.25866(19)
S4_6 S 0.75060(7) 0.91429(6) 0.23433(6)
Pb4_6 Pb 0.697185(9) 0.875904(8) 0.147441(10)
Pb5_6 Pb 0.624096(8) 0.947185(9) 0.397441(10)
Pb9_6 Pb 0.625904(8) 0.897441(10) 0.302815(9)
H6_7 H 0.0120 0.8471 0.0170
O15_7 O 0.01442(16) 0.92382(15) 0.12400(14)
Pb4_7 Pb 0.052815(9) 0.375904(8) 0.102559(10)
C11_7 C 0.07046(17) 0.46515(19) 0.89675(18)
C12_7 C 0.04160(17) 0.46729(17) 0.91982(17)
C13_7 C 0.03552(12) 0.44175(15) 0.94722(12)
H3_7 H 0.0472 0.4225 0.9527
C14_7 C 0.0044(2) 0.4573(2) 0.9631(2)
O5_7 O 0.07618(15) 0.48558(16) 0.87600(14)
O6_7 O 0.08837(16) 0.43791(16) 0.90040(16)
S3_7 S 0.01567(6) 0.49940(7) 0.91429(6)
C21_7 C 0.0692(2) 0.7909(3) 0.8965(3)
C22_7 C 0.0415(2) 0.7861(2) 0.91982(19)
C23_7 C 0.01720(15) 0.75653(17) 0.91691(15)
H5_7 H 0.0170 0.7380 0.9029
C25_7 C 0.0020(2) 0.7946(2) 0.9651(2)
O9_7 O 0.08746(15) 0.81582(16) 0.90046(16)
O10_7 O 0.07226(17) 0.77019(18) 0.87353(16)
S5_7 S 0.03636(8) 0.81551(9) 0.95092(7)
Pb2_7 Pb 0.124096(8) 0.802815(9) 0.852559(10)
O13_7 O 0.12400(14) 0.73558(16) 0.82618(15)
O14_7 O 0.17382(15) 0.76442(16) 0.87600(14)
O18_7 O 0.16163(16) 0.81209(16) 0.90040(16)
O22_7 O 0.08837(16) 0.84960(16) 0.81209(16)
O25_7 O 0.16254(15) 0.84954(16) 0.81582(16)
Pb5_7 Pb 0.125904(8) 0.447185(9) 0.852559(10)
Pb8_7 Pb 0.102559(10) 0.552815(9) 0.875904(8)
Pb9_7 Pb 0.124096(8) 0.397441(10) 0.947185(9)
Pb11_7 Pb 0.125904(8) 0.852559(10) 0.947185(9)
H2_7 H 0.9029 0.7330 0.0120
C16_7 C 0.96515(19) 0.39675(18) 0.07046(17)
C17_7 C 0.96729(17) 0.41982(17) 0.04160(17)
C18_7 C 0.94175(15) 0.44722(12) 0.03552(12)
H4_7 H 0.9225 0.4527 0.0472
C19_7 C 0.9573(2) 0.4631(2) 0.0044(2)
S4_7 S 0.99940(7) 0.41429(6) 0.01567(6)
C26_7 C 0.9591(3) 0.8535(3) 0.0692(2)
C27_7 C 0.9639(2) 0.83018(19) 0.0415(2)
C28_7 C 0.99347(17) 0.83309(15) 0.01720(15)
C30_7 C 0.9554(2) 0.7849(2) 0.0020(2)
O11_7 O 0.93418(16) 0.84954(16) 0.08746(15)
O12_7 O 0.97981(18) 0.87647(16) 0.07226(17)
S6_7 S 0.93449(9) 0.79908(7) 0.03636(8)
Pb3_7 Pb 0.947185(9) 0.897441(10) 0.124096(8)
O16_7 O 0.98558(16) 0.87400(14) 0.17382(15)
O17_7 O 0.82618(15) 0.62600(14) 0.01442(16)
O19_7 O 0.93791(16) 0.84960(16) 0.16163(16)
O20_7 O 0.90040(16) 0.93791(16) 0.08837(16)
O23_7 O 0.90046(16) 0.93418(16) 0.16254(15)
Pb6_7 Pb 0.875904(8) 0.602559(10) 0.052815(9)
Pb13_7 Pb 0.897441(10) 0.802815(9) 0.125904(8)
C1_7 C 0.89675(18) 0.57046(17) 0.96515(19)
C2_7 C 0.91982(17) 0.54160(17) 0.96729(17)
C3_7 C 0.94722(12) 0.53552(12) 0.94175(15)
H1_7 H 0.9527 0.5472 0.9225
C4_7 C 0.9631(2) 0.5044(2) 0.9573(2)
C5_7 C 0.94669(17) 0.49134(19) 0.9873(2)
C6_7 C 0.8965(3) 0.6808(2) 0.9591(3)
C7_7 C 0.91982(19) 0.7085(2) 0.9639(2)
C8_7 C 0.91691(15) 0.73280(15) 0.99347(17)
C9_7 C 0.9435(2) 0.7556(2) 0.9827(2)
C10_7 C 0.9651(2) 0.7480(2) 0.9554(2)
O1_7 O 0.87600(14) 0.57618(15) 0.98558(16)
O2_7 O 0.90040(16) 0.58837(16) 0.93791(16)
O3_7 O 0.90046(16) 0.66254(15) 0.93418(16)
O4_7 O 0.87353(16) 0.67774(17) 0.97981(18)
Pb1_7 Pb 0.852559(10) 0.625904(8) 0.947185(9)
S1_7 S 0.91429(6) 0.51567(6) 0.99940(7)
S2_7 S 0.95092(7) 0.71364(8) 0.93449(9)
C15_7 C 0.99134(19) 0.4873(2) 0.94669(17)
C20_7 C 0.9873(2) 0.44669(17) 0.99134(19)
C24_7 C 0.9944(2) 0.7673(2) 0.9435(2)
C29_7 C 0.9827(2) 0.8065(2) 0.9944(2)
O21_7 O 0.81209(16) 0.66163(16) 0.90040(16)
O24_7 O 0.81582(16) 0.58746(15) 0.90046(16)
Pb12_7 Pb 0.947185(9) 0.624096(8) 0.897441(10)
C1_8 C 0.39675(18) 0.67954(17) 0.78485(19)
C2_8 C 0.41982(17) 0.70840(17) 0.78271(17)
C3_8 C 0.44722(12) 0.71448(12) 0.80825(15)
H1_8 H 0.4527 0.7028 0.8275
C4_8 C 0.4631(2) 0.7456(2) 0.7927(2)
C5_8 C 0.44669(17) 0.75866(19) 0.7627(2)
C6_8 C 0.3965(3) 0.5692(2) 0.7909(3)
C7_8 C 0.41982(19) 0.5415(2) 0.7861(2)
C8_8 C 0.41691(15) 0.51720(15) 0.75653(17)
H2_8 H 0.4029 0.5170 0.7380
C9_8 C 0.4435(2) 0.4944(2) 0.7673(2)
C10_8 C 0.4651(2) 0.5020(2) 0.7946(2)
O1_8 O 0.37600(14) 0.67382(15) 0.76442(16)
O2_8 O 0.40040(16) 0.66163(16) 0.81209(16)
O3_8 O 0.40046(16) 0.58746(15) 0.81582(16)
O4_8 O 0.37353(16) 0.57226(17) 0.77019(18)
Pb1_8 Pb 0.352559(10) 0.624096(8) 0.802815(9)
S1_8 S 0.41429(6) 0.73433(6) 0.75060(7)
S2_8 S 0.45092(7) 0.53636(8) 0.81551(9)
C11_8 C 0.57046(17) 0.78485(19) 0.85325(18)
C12_8 C 0.54160(17) 0.78271(17) 0.83018(17)
C13_8 C 0.53552(12) 0.80825(15) 0.80278(12)
H3_8 H 0.5472 0.8275 0.7973
C14_8 C 0.5044(2) 0.7927(2) 0.7869(2)
C15_8 C 0.49134(19) 0.7627(2) 0.80331(17)
O5_8 O 0.57618(15) 0.76442(16) 0.87400(14)
O6_8 O 0.58837(16) 0.81209(16) 0.84960(16)
S3_8 S 0.51567(6) 0.75060(7) 0.83571(6)
C16_8 C 0.46515(19) 0.85325(18) 0.67954(17)
C17_8 C 0.46729(17) 0.83018(17) 0.70840(17)
C18_8 C 0.44175(15) 0.80278(12) 0.71448(12)
H4_8 H 0.4225 0.7973 0.7028
C19_8 C 0.4573(2) 0.7869(2) 0.7456(2)
C20_8 C 0.4873(2) 0.80331(17) 0.75866(19)
S4_8 S 0.49940(7) 0.83571(6) 0.73433(6)
C21_8 C 0.5692(2) 0.4591(3) 0.8535(3)
C22_8 C 0.5415(2) 0.4639(2) 0.83018(19)
C23_8 C 0.51720(15) 0.49347(17) 0.83309(15)
H5_8 H 0.5170 0.5120 0.8471
C24_8 C 0.4944(2) 0.4827(2) 0.8065(2)
C25_8 C 0.5020(2) 0.4554(2) 0.7849(2)
O9_8 O 0.58746(15) 0.43418(16) 0.84954(16)
O10_8 O 0.57226(17) 0.47981(18) 0.87647(16)
S5_8 S 0.53636(8) 0.43449(9) 0.79908(7)
C26_8 C 0.4591(3) 0.3965(3) 0.6808(2)
C27_8 C 0.4639(2) 0.41982(19) 0.7085(2)
C28_8 C 0.49347(17) 0.41691(15) 0.73280(15)
H6_8 H 0.5120 0.4029 0.7330
C29_8 C 0.4827(2) 0.4435(2) 0.7556(2)
C30_8 C 0.4554(2) 0.4651(2) 0.7480(2)
O11_8 O 0.43418(16) 0.40046(16) 0.66254(15)
O12_8 O 0.47981(18) 0.37353(16) 0.67774(17)
S6_8 S 0.43449(9) 0.45092(7) 0.71364(8)
Pb2_8 Pb 0.624096(8) 0.447185(9) 0.897441(10)
Pb3_8 Pb 0.447185(9) 0.352559(10) 0.625904(8)
O13_8 O 0.62400(14) 0.51442(16) 0.92382(15)
O14_8 O 0.67382(15) 0.48558(16) 0.87400(14)
O15_8 O 0.51442(16) 0.32618(15) 0.62600(14)
O16_8 O 0.48558(16) 0.37600(14) 0.57618(15)
O17_8 O 0.32618(15) 0.62400(14) 0.73558(16)
O18_8 O 0.66163(16) 0.43791(16) 0.84960(16)
O19_8 O 0.43791(16) 0.40040(16) 0.58837(16)
O20_8 O 0.40040(16) 0.31209(16) 0.66163(16)
O21_8 O 0.31209(16) 0.58837(16) 0.84960(16)
O22_8 O 0.58837(16) 0.40040(16) 0.93791(16)
O23_8 O 0.40046(16) 0.31582(16) 0.58746(15)
O24_8 O 0.31582(16) 0.66254(15) 0.84954(16)
O25_8 O 0.66254(15) 0.40046(16) 0.93418(16)
Pb4_8 Pb 0.552815(9) 0.874096(8) 0.647441(10)
Pb5_8 Pb 0.625904(8) 0.802815(9) 0.897441(10)
Pb6_8 Pb 0.375904(8) 0.647441(10) 0.697185(9)
Pb8_8 Pb 0.602559(10) 0.697185(9) 0.874096(8)
Pb9_8 Pb 0.624096(8) 0.852559(10) 0.802815(9)
Pb11_8 Pb 0.625904(8) 0.397441(10) 0.802815(9)
Pb12_8 Pb 0.447185(9) 0.625904(8) 0.852559(10)
Pb13_8 Pb 0.397441(10) 0.447185(9) 0.624096(8)
C1_9 C 0.46515(19) 0.35325(18) 0.17954(17)
C2_9 C 0.46729(17) 0.33018(17) 0.20840(17)
C3_9 C 0.44175(15) 0.30278(12) 0.21448(12)
H1_9 H 0.4225 0.2973 0.2028
C4_9 C 0.4573(2) 0.2869(2) 0.2456(2)
C5_9 C 0.4873(2) 0.30331(17) 0.25866(19)
C6_9 C 0.4591(3) 0.3535(3) 0.0692(2)
C7_9 C 0.4639(2) 0.33018(19) 0.0415(2)
C8_9 C 0.49347(17) 0.33309(15) 0.01720(15)
H2_9 H 0.5120 0.3471 0.0170
C10_9 C 0.4554(2) 0.2849(2) 0.0020(2)
O1_9 O 0.48558(16) 0.37400(14) 0.17382(15)
O2_9 O 0.43791(16) 0.34960(16) 0.16163(16)
O3_9 O 0.43418(16) 0.34954(16) 0.08746(15)
O4_9 O 0.47981(18) 0.37647(16) 0.07226(17)
Pb1_9 Pb 0.447185(9) 0.397441(10) 0.124096(8)
S1_9 S 0.49940(7) 0.33571(6) 0.23433(6)
S2_9 S 0.43449(9) 0.29908(7) 0.03636(8)
C11_9 C 0.39675(18) 0.17954(17) 0.28485(19)
C12_9 C 0.41982(17) 0.20840(17) 0.28271(17)
C13_9 C 0.44722(12) 0.21448(12) 0.30825(15)
H3_9 H 0.4527 0.2028 0.3275
C14_9 C 0.4631(2) 0.2456(2) 0.2927(2)
C15_9 C 0.44669(17) 0.25866(19) 0.2627(2)
O5_9 O 0.37600(14) 0.17382(15) 0.26442(16)
O6_9 O 0.40040(16) 0.16163(16) 0.31209(16)
S3_9 S 0.41429(6) 0.23433(6) 0.25060(7)
C16_9 C 0.57046(17) 0.28485(19) 0.35325(18)
C17_9 C 0.54160(17) 0.28271(17) 0.33018(17)
C18_9 C 0.53552(12) 0.30825(15) 0.30278(12)
H4_9 H 0.5472 0.3275 0.2973
C19_9 C 0.5044(2) 0.2927(2) 0.2869(2)
C20_9 C 0.49134(19) 0.2627(2) 0.30331(17)
S4_9 S 0.51567(6) 0.25060(7) 0.33571(6)
H5_9 H 0.4029 0.2330 0.0120
O13_9 O 0.32618(15) 0.12600(14) 0.01442(16)
O17_9 O 0.51442(16) 0.42382(15) 0.12400(14)
O21_9 O 0.40040(16) 0.43791(16) 0.08837(16)
O24_9 O 0.40046(16) 0.43418(16) 0.16254(15)
Pb4_9 Pb 0.602559(10) 0.197185(9) 0.374096(8)
Pb5_9 Pb 0.352559(10) 0.124096(8) 0.302815(9)
Pb6_9 Pb 0.552815(9) 0.374096(8) 0.147441(10)
Pb8_9 Pb 0.375904(8) 0.147441(10) 0.197185(9)
Pb9_9 Pb 0.447185(9) 0.125904(8) 0.352559(10)
Pb12_9 Pb 0.397441(10) 0.302815(9) 0.125904(8)
C9_9 C 0.4827(2) 0.3065(2) 0.9944(2)
C21_9 C 0.3965(3) 0.1808(2) 0.9591(3)
C22_9 C 0.41982(19) 0.2085(2) 0.9639(2)
C23_9 C 0.41691(15) 0.23280(15) 0.99347(17)
C24_9 C 0.4435(2) 0.2556(2) 0.9827(2)
C25_9 C 0.4651(2) 0.2480(2) 0.9554(2)
O9_9 O 0.40046(16) 0.16254(15) 0.93418(16)
O10_9 O 0.37353(16) 0.17774(17) 0.97981(18)
S5_9 S 0.45092(7) 0.21364(8) 0.93449(9)
C26_9 C 0.5692(2) 0.2909(3) 0.8965(3)
C27_9 C 0.5415(2) 0.2861(2) 0.91982(19)
C28_9 C 0.51720(15) 0.25653(17) 0.91691(15)
H6_9 H 0.5170 0.2380 0.9029
C29_9 C 0.4944(2) 0.2673(2) 0.9435(2)
C30_9 C 0.5020(2) 0.2946(2) 0.9651(2)
O11_9 O 0.58746(15) 0.31582(16) 0.90046(16)
O12_9 O 0.57226(17) 0.27019(18) 0.87353(16)
S6_9 S 0.53636(8) 0.31551(9) 0.95092(7)
Pb3_9 Pb 0.624096(8) 0.302815(9) 0.852559(10)
O15_9 O 0.62400(14) 0.23558(16) 0.82618(15)
O16_9 O 0.67382(15) 0.26442(16) 0.87600(14)
O19_9 O 0.66163(16) 0.31209(16) 0.90040(16)
O20_9 O 0.58837(16) 0.34960(16) 0.81209(16)
O22_9 O 0.31209(16) 0.16163(16) 0.90040(16)
O23_9 O 0.66254(15) 0.34954(16) 0.81582(16)
O25_9 O 0.31582(16) 0.08746(15) 0.90046(16)
Pb13_9 Pb 0.625904(8) 0.352559(10) 0.947185(9)
C1_10 C 0.28485(19) 0.85325(18) 0.07046(17)
C2_10 C 0.28271(17) 0.83018(17) 0.04160(17)
C3_10 C 0.30825(15) 0.80278(12) 0.03552(12)
H1_10 H 0.3275 0.7973 0.0472
C4_10 C 0.2927(2) 0.7869(2) 0.0044(2)
C6_10 C 0.2909(3) 0.8535(3) 0.1808(2)
C7_10 C 0.2861(2) 0.83018(19) 0.2085(2)
C8_10 C 0.25653(17) 0.83309(15) 0.23280(15)
H2_10 H 0.2380 0.8471 0.2330
C9_10 C 0.2673(2) 0.8065(2) 0.2556(2)
C10_10 C 0.2946(2) 0.7849(2) 0.2480(2)
O1_10 O 0.26442(16) 0.87400(14) 0.07618(15)
O2_10 O 0.31209(16) 0.84960(16) 0.08837(16)
O3_10 O 0.31582(16) 0.84954(16) 0.16254(15)
O4_10 O 0.27019(18) 0.87647(16) 0.17774(17)
Pb1_10 Pb 0.302815(9) 0.897441(10) 0.125904(8)
S1_10 S 0.25060(7) 0.83571(6) 0.01567(6)
S2_10 S 0.31551(9) 0.79908(7) 0.21364(8)
C21_10 C 0.3535(3) 0.6808(2) 0.2909(3)
C22_10 C 0.33018(19) 0.7085(2) 0.2861(2)
C23_10 C 0.33309(15) 0.73280(15) 0.25653(17)
H5_10 H 0.3471 0.7330 0.2380
C24_10 C 0.3065(2) 0.7556(2) 0.2673(2)
C25_10 C 0.2849(2) 0.7480(2) 0.2946(2)
O9_10 O 0.34954(16) 0.66254(15) 0.31582(16)
O10_10 O 0.37647(16) 0.67774(17) 0.27019(18)
S5_10 S 0.29908(7) 0.71364(8) 0.31551(9)
C26_10 C 0.1808(2) 0.7909(3) 0.3535(3)
C27_10 C 0.2085(2) 0.7861(2) 0.33018(19)
C28_10 C 0.23280(15) 0.75653(17) 0.33309(15)
H6_10 H 0.2330 0.7380 0.3471
C29_10 C 0.2556(2) 0.7673(2) 0.3065(2)
C30_10 C 0.2480(2) 0.7946(2) 0.2849(2)
O11_10 O 0.16254(15) 0.81582(16) 0.34954(16)
O12_10 O 0.17774(17) 0.77019(18) 0.37647(16)
S6_10 S 0.21364(8) 0.81551(9) 0.29908(7)
Pb3_10 Pb 0.125904(8) 0.802815(9) 0.397441(10)
O13_10 O 0.42382(15) 0.62600(14) 0.23558(16)
O15_10 O 0.12600(14) 0.73558(16) 0.42382(15)
O16_10 O 0.07618(15) 0.76442(16) 0.37400(14)
O17_10 O 0.23558(16) 0.92382(15) 0.12600(14)
O19_10 O 0.08837(16) 0.81209(16) 0.34960(16)
O20_10 O 0.16163(16) 0.84960(16) 0.43791(16)
O21_10 O 0.34960(16) 0.93791(16) 0.16163(16)
O22_10 O 0.43791(16) 0.66163(16) 0.34960(16)
O23_10 O 0.08746(15) 0.84954(16) 0.43418(16)
O24_10 O 0.34954(16) 0.93418(16) 0.08746(15)
O25_10 O 0.43418(16) 0.58746(15) 0.34954(16)
Pb6_10 Pb 0.197185(9) 0.874096(8) 0.102559(10)
Pb8_10 Pb 0.374096(8) 0.647441(10) 0.052815(9)
Pb12_10 Pb 0.352559(10) 0.802815(9) 0.124096(8)
Pb13_10 Pb 0.124096(8) 0.852559(10) 0.302815(9)
C5_10 C 0.2627(2) 0.80331(17) 0.99134(19)
C11_10 C 0.35325(18) 0.67954(17) 0.96515(19)
C12_10 C 0.33018(17) 0.70840(17) 0.96729(17)
C13_10 C 0.30278(12) 0.71448(12) 0.94175(15)
H3_10 H 0.2973 0.7028 0.9225
C14_10 C 0.2869(2) 0.7456(2) 0.9573(2)
C15_10 C 0.30331(17) 0.75866(19) 0.9873(2)
O5_10 O 0.37400(14) 0.67382(15) 0.98558(16)
O6_10 O 0.34960(16) 0.66163(16) 0.93791(16)
S3_10 S 0.33571(6) 0.73433(6) 0.99940(7)
C16_10 C 0.17954(17) 0.78485(19) 0.89675(18)
C17_10 C 0.20840(17) 0.78271(17) 0.91982(17)
C18_10 C 0.21448(12) 0.80825(15) 0.94722(12)
H4_10 H 0.2028 0.8275 0.9527
C19_10 C 0.2456(2) 0.7927(2) 0.9631(2)
C20_10 C 0.25866(19) 0.7627(2) 0.94669(17)
S4_10 S 0.23433(6) 0.75060(7) 0.91429(6)
Pb4_10 Pb 0.147441(10) 0.697185(9) 0.875904(8)
Pb5_10 Pb 0.397441(10) 0.624096(8) 0.947185(9)
Pb9_10 Pb 0.302815(9) 0.625904(8) 0.897441(10)
H6_11 H 0.0170 0.0120 0.8471
O15_11 O 0.12400(14) 0.01442(16) 0.92382(15)
Pb4_11 Pb 0.102559(10) 0.052815(9) 0.375904(8)
H2_11 H 0.0120 0.9029 0.7330
C16_11 C 0.07046(17) 0.96515(19) 0.39675(18)
C17_11 C 0.04160(17) 0.96729(17) 0.41982(17)
C18_11 C 0.03552(12) 0.94175(15) 0.44722(12)
H4_11 H 0.0472 0.9225 0.4527
C19_11 C 0.0044(2) 0.9573(2) 0.4631(2)
S4_11 S 0.01567(6) 0.99940(7) 0.41429(6)
C26_11 C 0.0692(2) 0.9591(3) 0.8535(3)
C27_11 C 0.0415(2) 0.9639(2) 0.83018(19)
C28_11 C 0.01720(15) 0.99347(17) 0.83309(15)
C30_11 C 0.0020(2) 0.9554(2) 0.7849(2)
O11_11 O 0.08746(15) 0.93418(16) 0.84954(16)
O12_11 O 0.07226(17) 0.97981(18) 0.87647(16)
S6_11 S 0.03636(8) 0.93449(9) 0.79908(7)
Pb3_11 Pb 0.124096(8) 0.947185(9) 0.897441(10)
O16_11 O 0.17382(15) 0.98558(16) 0.87400(14)
O17_11 O 0.01442(16) 0.82618(15) 0.62600(14)
O19_11 O 0.16163(16) 0.93791(16) 0.84960(16)
O20_11 O 0.08837(16) 0.90040(16) 0.93791(16)
O23_11 O 0.16254(15) 0.90046(16) 0.93418(16)
Pb6_11 Pb 0.052815(9) 0.875904(8) 0.602559(10)
Pb13_11 Pb 0.125904(8) 0.897441(10) 0.802815(9)
C11_11 C 0.89675(18) 0.07046(17) 0.46515(19)
C12_11 C 0.91982(17) 0.04160(17) 0.46729(17)
C13_11 C 0.94722(12) 0.03552(12) 0.44175(15)
H3_11 H 0.9527 0.0472 0.4225
C14_11 C 0.9631(2) 0.0044(2) 0.4573(2)
O5_11 O 0.87600(14) 0.07618(15) 0.48558(16)
O6_11 O 0.90040(16) 0.08837(16) 0.43791(16)
S3_11 S 0.91429(6) 0.01567(6) 0.49940(7)
C21_11 C 0.8965(3) 0.0692(2) 0.7909(3)
C22_11 C 0.91982(19) 0.0415(2) 0.7861(2)
C23_11 C 0.91691(15) 0.01720(15) 0.75653(17)
H5_11 H 0.9029 0.0170 0.7380
C25_11 C 0.9651(2) 0.0020(2) 0.7946(2)
O9_11 O 0.90046(16) 0.08746(15) 0.81582(16)
O10_11 O 0.87353(16) 0.07226(17) 0.77019(18)
S5_11 S 0.95092(7) 0.03636(8) 0.81551(9)
O13_11 O 0.82618(15) 0.12400(14) 0.73558(16)
O22_11 O 0.81209(16) 0.08837(16) 0.84960(16)
O25_11 O 0.81582(16) 0.16254(15) 0.84954(16)
Pb5_11 Pb 0.852559(10) 0.125904(8) 0.447185(9)
Pb8_11 Pb 0.875904(8) 0.102559(10) 0.552815(9)
Pb9_11 Pb 0.947185(9) 0.124096(8) 0.397441(10)
C1_11 C 0.96515(19) 0.89675(18) 0.57046(17)
C2_11 C 0.96729(17) 0.91982(17) 0.54160(17)
C3_11 C 0.94175(15) 0.94722(12) 0.53552(12)
H1_11 H 0.9225 0.9527 0.5472
C4_11 C 0.9573(2) 0.9631(2) 0.5044(2)
C5_11 C 0.9873(2) 0.94669(17) 0.49134(19)
C6_11 C 0.9591(3) 0.8965(3) 0.6808(2)
C7_11 C 0.9639(2) 0.91982(19) 0.7085(2)
C8_11 C 0.99347(17) 0.91691(15) 0.73280(15)
C9_11 C 0.9827(2) 0.9435(2) 0.7556(2)
C10_11 C 0.9554(2) 0.9651(2) 0.7480(2)
O1_11 O 0.98558(16) 0.87600(14) 0.57618(15)
O2_11 O 0.93791(16) 0.90040(16) 0.58837(16)
O3_11 O 0.93418(16) 0.90046(16) 0.66254(15)
O4_11 O 0.97981(18) 0.87353(16) 0.67774(17)
Pb1_11 Pb 0.947185(9) 0.852559(10) 0.625904(8)
S1_11 S 0.99940(7) 0.91429(6) 0.51567(6)
S2_11 S 0.93449(9) 0.95092(7) 0.71364(8)
C15_11 C 0.94669(17) 0.99134(19) 0.4873(2)
C20_11 C 0.99134(19) 0.9873(2) 0.44669(17)
C24_11 C 0.9435(2) 0.9944(2) 0.7673(2)
C29_11 C 0.9944(2) 0.9827(2) 0.8065(2)
O21_11 O 0.90040(16) 0.81209(16) 0.66163(16)
O24_11 O 0.90046(16) 0.81582(16) 0.58746(15)
Pb12_11 Pb 0.897441(10) 0.947185(9) 0.624096(8)
C1_12 C 0.78485(19) 0.39675(18) 0.67954(17)
C2_12 C 0.78271(17) 0.41982(17) 0.70840(17)
C3_12 C 0.80825(15) 0.44722(12) 0.71448(12)
H1_12 H 0.8275 0.4527 0.7028
C4_12 C 0.7927(2) 0.4631(2) 0.7456(2)
C5_12 C 0.7627(2) 0.44669(17) 0.75866(19)
C6_12 C 0.7909(3) 0.3965(3) 0.5692(2)
C7_12 C 0.7861(2) 0.41982(19) 0.5415(2)
C8_12 C 0.75653(17) 0.41691(15) 0.51720(15)
H2_12 H 0.7380 0.4029 0.5170
C9_12 C 0.7673(2) 0.4435(2) 0.4944(2)
C10_12 C 0.7946(2) 0.4651(2) 0.5020(2)
O1_12 O 0.76442(16) 0.37600(14) 0.67382(15)
O2_12 O 0.81209(16) 0.40040(16) 0.66163(16)
O3_12 O 0.81582(16) 0.40046(16) 0.58746(15)
O4_12 O 0.77019(18) 0.37353(16) 0.57226(17)
Pb1_12 Pb 0.802815(9) 0.352559(10) 0.624096(8)
S1_12 S 0.75060(7) 0.41429(6) 0.73433(6)
S2_12 S 0.81551(9) 0.45092(7) 0.53636(8)
C11_12 C 0.85325(18) 0.57046(17) 0.78485(19)
C12_12 C 0.83018(17) 0.54160(17) 0.78271(17)
C13_12 C 0.80278(12) 0.53552(12) 0.80825(15)
H3_12 H 0.7973 0.5472 0.8275
C14_12 C 0.7869(2) 0.5044(2) 0.7927(2)
C15_12 C 0.80331(17) 0.49134(19) 0.7627(2)
O5_12 O 0.87400(14) 0.57618(15) 0.76442(16)
O6_12 O 0.84960(16) 0.58837(16) 0.81209(16)
S3_12 S 0.83571(6) 0.51567(6) 0.75060(7)
C16_12 C 0.67954(17) 0.46515(19) 0.85325(18)
C17_12 C 0.70840(17) 0.46729(17) 0.83018(17)
C18_12 C 0.71448(12) 0.44175(15) 0.80278(12)
H4_12 H 0.7028 0.4225 0.7973
C19_12 C 0.7456(2) 0.4573(2) 0.7869(2)
C20_12 C 0.75866(19) 0.4873(2) 0.80331(17)
S4_12 S 0.73433(6) 0.49940(7) 0.83571(6)
C21_12 C 0.8535(3) 0.5692(2) 0.4591(3)
C22_12 C 0.83018(19) 0.5415(2) 0.4639(2)
C23_12 C 0.83309(15) 0.51720(15) 0.49347(17)
H5_12 H 0.8471 0.5170 0.5120
C24_12 C 0.8065(2) 0.4944(2) 0.4827(2)
C25_12 C 0.7849(2) 0.5020(2) 0.4554(2)
O9_12 O 0.84954(16) 0.58746(15) 0.43418(16)
O10_12 O 0.87647(16) 0.57226(17) 0.47981(18)
S5_12 S 0.79908(7) 0.53636(8) 0.43449(9)
C26_12 C 0.6808(2) 0.4591(3) 0.3965(3)
C27_12 C 0.7085(2) 0.4639(2) 0.41982(19)
C28_12 C 0.73280(15) 0.49347(17) 0.41691(15)
H6_12 H 0.7330 0.5120 0.4029
C29_12 C 0.7556(2) 0.4827(2) 0.4435(2)
C30_12 C 0.7480(2) 0.4554(2) 0.4651(2)
O11_12 O 0.66254(15) 0.43418(16) 0.40046(16)
O12_12 O 0.67774(17) 0.47981(18) 0.37353(16)
S6_12 S 0.71364(8) 0.43449(9) 0.45092(7)
Pb3_12 Pb 0.625904(8) 0.447185(9) 0.352559(10)
O13_12 O 0.92382(15) 0.62400(14) 0.51442(16)
O15_12 O 0.62600(14) 0.51442(16) 0.32618(15)
O16_12 O 0.57618(15) 0.48558(16) 0.37600(14)
O17_12 O 0.73558(16) 0.32618(15) 0.62400(14)
O19_12 O 0.58837(16) 0.43791(16) 0.40040(16)
O20_12 O 0.66163(16) 0.40040(16) 0.31209(16)
O21_12 O 0.84960(16) 0.31209(16) 0.58837(16)
O22_12 O 0.93791(16) 0.58837(16) 0.40040(16)
O23_12 O 0.58746(15) 0.40046(16) 0.31582(16)
O24_12 O 0.84954(16) 0.31582(16) 0.66254(15)
O25_12 O 0.93418(16) 0.66254(15) 0.40046(16)
Pb4_12 Pb 0.647441(10) 0.552815(9) 0.874096(8)
Pb5_12 Pb 0.897441(10) 0.625904(8) 0.802815(9)
Pb6_12 Pb 0.697185(9) 0.375904(8) 0.647441(10)
Pb8_12 Pb 0.874096(8) 0.602559(10) 0.697185(9)
Pb9_12 Pb 0.802815(9) 0.624096(8) 0.852559(10)
Pb12_12 Pb 0.852559(10) 0.447185(9) 0.625904(8)
Pb13_12 Pb 0.624096(8) 0.397441(10) 0.447185(9)
C1_13 C 0.21515(19) 0.42954(17) 0.64675(18)
C2_13 C 0.21729(17) 0.45840(17) 0.66982(17)
C3_13 C 0.19175(15) 0.46448(12) 0.69722(12)
H1_13 H 0.1725 0.4528 0.7027
C4_13 C 0.2073(2) 0.4956(2) 0.7131(2)
C5_13 C 0.2373(2) 0.50866(19) 0.69669(17)
C6_13 C 0.2091(3) 0.3192(2) 0.6465(3)
C7_13 C 0.2139(2) 0.2915(2) 0.66982(19)
C8_13 C 0.24347(17) 0.26720(15) 0.66691(15)
H2_13 H 0.2620 0.2670 0.6529
C9_13 C 0.2327(2) 0.2444(2) 0.6935(2)
C10_13 C 0.2054(2) 0.2520(2) 0.7151(2)
O2_13 O 0.18791(16) 0.41163(16) 0.65040(16)
O3_13 O 0.18418(16) 0.33746(15) 0.65046(16)
O4_13 O 0.22981(18) 0.32226(17) 0.62353(16)
S1_13 S 0.24940(7) 0.48433(6) 0.66429(6)
S2_13 S 0.18449(9) 0.28636(8) 0.70092(7)
C11_13 C 0.14675(18) 0.53485(19) 0.82046(17)
C12_13 C 0.16982(17) 0.53271(17) 0.79160(17)
C13_13 C 0.19722(12) 0.55825(15) 0.78552(12)
H3_13 H 0.2027 0.5775 0.7972
C14_13 C 0.2131(2) 0.5427(2) 0.7544(2)
C15_13 C 0.19669(17) 0.5127(2) 0.74134(19)
O5_13 O 0.12600(14) 0.51442(16) 0.82618(15)
O6_13 O 0.15040(16) 0.56209(16) 0.83837(16)
S3_13 S 0.16429(6) 0.50060(7) 0.76567(6)
C16_13 C 0.32046(17) 0.60325(18) 0.71515(19)
C17_13 C 0.29160(17) 0.58018(17) 0.71729(17)
C18_13 C 0.28552(12) 0.55278(12) 0.69175(15)
H4_13 H 0.2972 0.5473 0.6725
C19_13 C 0.2544(2) 0.5369(2) 0.7073(2)
C20_13 C 0.24134(19) 0.55331(17) 0.7373(2)
O8_5 O 0.33837(16) 0.59960(16) 0.68791(16)
S4_13 S 0.26567(6) 0.58571(6) 0.74940(7)
C21_13 C 0.1465(3) 0.2091(3) 0.8192(2)
C22_13 C 0.16982(19) 0.2139(2) 0.7915(2)
C23_13 C 0.16691(15) 0.24347(17) 0.76720(15)
H5_13 H 0.1529 0.2620 0.7670
C24_13 C 0.1935(2) 0.2327(2) 0.7444(2)
C25_13 C 0.2151(2) 0.2054(2) 0.7520(2)
O9_13 O 0.15046(16) 0.18418(16) 0.83746(15)
O10_13 O 0.12353(16) 0.22981(18) 0.82226(17)
S5_13 S 0.20092(7) 0.18449(9) 0.78636(8)
C26_13 C 0.3192(2) 0.1465(3) 0.7091(3)
C27_13 C 0.2915(2) 0.16982(19) 0.7139(2)
C28_13 C 0.26720(15) 0.16691(15) 0.74347(17)
H6_13 H 0.2670 0.1529 0.7620
C29_13 C 0.2444(2) 0.1935(2) 0.7327(2)
C30_13 C 0.2520(2) 0.2151(2) 0.7054(2)
O11_13 O 0.33746(15) 0.15046(16) 0.68418(16)
O12_13 O 0.32226(17) 0.12353(16) 0.72981(18)
S6_13 S 0.28636(8) 0.20092(7) 0.68449(9)
Pb3_13 Pb 0.374096(8) 0.102559(10) 0.697185(9)
O18_9 O 0.15040(16) 0.18791(16) 0.91163(16)
O19_13 O 0.41163(16) 0.15040(16) 0.68791(16)
O20_13 O 0.33837(16) 0.06209(16) 0.65040(16)
O21_13 O 0.15040(16) 0.33837(16) 0.56209(16)
O22_13 O 0.06209(16) 0.15040(16) 0.83837(16)
O23_13 O 0.41254(15) 0.06582(16) 0.65046(16)
O24_13 O 0.15046(16) 0.41254(15) 0.56582(16)
O25_13 O 0.06582(16) 0.15046(16) 0.91254(15)
Pb9_13 Pb 0.197185(9) 0.602559(10) 0.874096(8)
Pb10_5 Pb 0.374096(8) 0.552815(9) 0.647441(10)
Pb11_9 Pb 0.197185(9) 0.147441(10) 0.875904(8)
Pb12_13 Pb 0.147441(10) 0.375904(8) 0.697185(9)
Pb13_13 Pb 0.375904(8) 0.197185(9) 0.647441(10)
C1_14 C 0.03485(19) 0.32046(17) 0.14675(18)
C2_14 C 0.03271(17) 0.29160(17) 0.16982(17)
C3_14 C 0.05825(15) 0.28552(12) 0.19722(12)
H1_14 H 0.0775 0.2972 0.2027
C4_14 C 0.0427(2) 0.2544(2) 0.2131(2)
C5_14 C 0.0127(2) 0.24134(19) 0.19669(17)
C6_14 C 0.0409(3) 0.4308(2) 0.1465(3)
C7_14 C 0.0361(2) 0.4585(2) 0.16982(19)
C8_14 C 0.00653(17) 0.48280(15) 0.16691(15)
C9_14 C 0.0173(2) 0.5056(2) 0.1935(2)
C10_14 C 0.0446(2) 0.4980(2) 0.2151(2)
O2_14 O 0.06209(16) 0.33837(16) 0.15040(16)
O3_14 O 0.06582(16) 0.41254(15) 0.15046(16)
O4_14 O 0.02019(18) 0.42774(17) 0.12353(16)
S1_14 S 0.00060(7) 0.26567(6) 0.16429(6)
S2_14 S 0.06551(9) 0.46364(8) 0.20092(7)
C11_14 C 0.10325(18) 0.21515(19) 0.32046(17)
C12_14 C 0.08018(17) 0.21729(17) 0.29160(17)
C13_14 C 0.05278(12) 0.19175(15) 0.28552(12)
H3_14 H 0.0473 0.1725 0.2972
C14_14 C 0.0369(2) 0.2073(2) 0.2544(2)
C15_14 C 0.05331(17) 0.2373(2) 0.24134(19)
O5_14 O 0.12400(14) 0.23558(16) 0.32618(15)
O6_14 O 0.09960(16) 0.18791(16) 0.33837(16)
S3_14 S 0.08571(6) 0.24940(7) 0.26567(6)
C20_14 C 0.00866(19) 0.19669(17) 0.2373(2)
C21_14 C 0.1035(3) 0.5409(3) 0.3192(2)
C22_14 C 0.08018(19) 0.5361(2) 0.2915(2)
C23_14 C 0.08309(15) 0.50653(17) 0.26720(15)
H5_14 H 0.0971 0.4880 0.2670
C24_14 C 0.0565(2) 0.5173(2) 0.2444(2)
C25_14 C 0.0349(2) 0.5446(2) 0.2520(2)
O9_14 O 0.09954(16) 0.56582(16) 0.33746(15)
O10_14 O 0.12647(16) 0.52019(18) 0.32226(17)
S5_14 S 0.04908(7) 0.56551(9) 0.28636(8)
C29_14 C 0.0056(2) 0.5565(2) 0.2327(2)
O18_10 O 0.09960(16) 0.56209(16) 0.41163(16)
O21_14 O 0.09960(16) 0.41163(16) 0.06209(16)
O22_14 O 0.18791(16) 0.59960(16) 0.33837(16)
O24_14 O 0.09954(16) 0.33746(15) 0.06582(16)
O25_14 O 0.18418(16) 0.59954(16) 0.41254(15)
Pb9_14 Pb 0.052815(9) 0.147441(10) 0.374096(8)
Pb11_10 Pb 0.052815(9) 0.602559(10) 0.375904(8)
Pb12_14 Pb 0.102559(10) 0.374096(8) 0.197185(9)
H2_14 H 0.9880 0.4830 0.1529
C16_14 C 0.92954(17) 0.14675(18) 0.21515(19)
C17_14 C 0.95840(17) 0.16982(17) 0.21729(17)
C18_14 C 0.96448(12) 0.19722(12) 0.19175(15)
H4_14 H 0.9528 0.2027 0.1725
C19_14 C 0.9956(2) 0.2131(2) 0.2073(2)
O8_6 O 0.91163(16) 0.15040(16) 0.18791(16)
S4_14 S 0.98433(6) 0.16429(6) 0.24940(7)
C26_14 C 0.9308(2) 0.6035(3) 0.2091(3)
C27_14 C 0.9585(2) 0.58018(19) 0.2139(2)
C28_14 C 0.98280(15) 0.58309(15) 0.24347(17)
H6_14 H 0.9830 0.5971 0.2620
C30_14 C 0.9980(2) 0.5349(2) 0.2054(2)
O11_14 O 0.91254(15) 0.59954(16) 0.18418(16)
O12_14 O 0.92774(17) 0.62647(16) 0.22981(18)
S6_14 S 0.96364(8) 0.54908(7) 0.18449(9)
Pb3_14 Pb 0.875904(8) 0.647441(10) 0.197185(9)
O19_14 O 0.83837(16) 0.59960(16) 0.18791(16)
O20_14 O 0.91163(16) 0.68791(16) 0.15040(16)
O23_14 O 0.83746(15) 0.68418(16) 0.15046(16)
Pb10_6 Pb 0.875904(8) 0.197185(9) 0.147441(10)
Pb13_14 Pb 0.874096(8) 0.552815(9) 0.147441(10)
C9_15 C 0.7327(2) 0.0056(2) 0.0565(2)
C24_15 C 0.6935(2) 0.0173(2) 0.0056(2)
C26_15 C 0.8192(2) 0.1035(3) 0.0409(3)
C27_15 C 0.7915(2) 0.08018(19) 0.0361(2)
C28_15 C 0.76720(15) 0.08309(15) 0.00653(17)
C29_15 C 0.7444(2) 0.0565(2) 0.0173(2)
C30_15 C 0.7520(2) 0.0349(2) 0.0446(2)
O11_15 O 0.83746(15) 0.09954(16) 0.06582(16)
O12_15 O 0.82226(17) 0.12647(16) 0.02019(18)
S6_15 S 0.78636(8) 0.04908(7) 0.06551(9)
Pb3_15 Pb 0.874096(8) 0.147441(10) 0.052815(9)
O19_15 O 0.91163(16) 0.09960(16) 0.06209(16)
O20_15 O 0.83837(16) 0.18791(16) 0.09960(16)
O23_15 O 0.91254(15) 0.18418(16) 0.09954(16)
Pb13_15 Pb 0.875904(8) 0.052815(9) 0.102559(10)
C21_15 C 0.6465(3) 0.0409(3) 0.9308(2)
C22_15 C 0.66982(19) 0.0361(2) 0.9585(2)
C23_15 C 0.66691(15) 0.00653(17) 0.98280(15)
C25_15 C 0.7151(2) 0.0446(2) 0.9980(2)
O9_15 O 0.65046(16) 0.06582(16) 0.91254(15)
O10_15 O 0.62353(16) 0.02019(18) 0.92774(17)
S5_15 S 0.70092(7) 0.06551(9) 0.96364(8)
H6_15 H 0.7670 0.0971 0.9880
O18_11 O 0.65040(16) 0.06209(16) 0.83837(16)
O22_15 O 0.56209(16) 0.09960(16) 0.91163(16)
O25_15 O 0.56582(16) 0.09954(16) 0.83746(15)
Pb11_11 Pb 0.697185(9) 0.102559(10) 0.874096(8)
C1_15 C 0.71515(19) 0.82046(17) 0.10325(18)
C2_15 C 0.71729(17) 0.79160(17) 0.08018(17)
C3_15 C 0.69175(15) 0.78552(12) 0.05278(12)
H1_15 H 0.6725 0.7972 0.0473
C4_15 C 0.7073(2) 0.7544(2) 0.0369(2)
C5_15 C 0.7373(2) 0.74134(19) 0.05331(17)
C6_15 C 0.7091(3) 0.9308(2) 0.1035(3)
C7_15 C 0.7139(2) 0.9585(2) 0.08018(19)
C8_15 C 0.74347(17) 0.98280(15) 0.08309(15)
H2_15 H 0.7620 0.9830 0.0971
C10_15 C 0.7054(2) 0.9980(2) 0.0349(2)
O2_15 O 0.68791(16) 0.83837(16) 0.09960(16)
O3_15 O 0.68418(16) 0.91254(15) 0.09954(16)
O4_15 O 0.72981(18) 0.92774(17) 0.12647(16)
S1_15 S 0.74940(7) 0.76567(6) 0.08571(6)
S2_15 S 0.68449(9) 0.96364(8) 0.04908(7)
C15_15 C 0.69669(17) 0.7373(2) 0.00866(19)
C16_15 C 0.82046(17) 0.64675(18) 0.03485(19)
C17_15 C 0.79160(17) 0.66982(17) 0.03271(17)
C18_15 C 0.78552(12) 0.69722(12) 0.05825(15)
H4_15 H 0.7972 0.7027 0.0775
C19_15 C 0.7544(2) 0.7131(2) 0.0427(2)
C20_15 C 0.74134(19) 0.69669(17) 0.0127(2)
O8_7 O 0.83837(16) 0.65040(16) 0.06209(16)
S4_15 S 0.76567(6) 0.66429(6) 0.00060(7)
O21_15 O 0.65040(16) 0.91163(16) 0.18791(16)
O24_15 O 0.65046(16) 0.83746(15) 0.18418(16)
Pb10_7 Pb 0.874096(8) 0.697185(9) 0.102559(10)
Pb12_15 Pb 0.647441(10) 0.874096(8) 0.052815(9)
C11_15 C 0.64675(18) 0.71515(19) 0.92954(17)
C12_15 C 0.66982(17) 0.71729(17) 0.95840(17)
C13_15 C 0.69722(12) 0.69175(15) 0.96448(12)
H3_15 H 0.7027 0.6725 0.9528
C14_15 C 0.7131(2) 0.7073(2) 0.9956(2)
O5_15 O 0.62600(14) 0.73558(16) 0.92382(15)
O6_15 O 0.65040(16) 0.68791(16) 0.91163(16)
S3_15 S 0.66429(6) 0.74940(7) 0.98433(6)
H5_15 H 0.6529 0.9880 0.9830
Pb9_15 Pb 0.697185(9) 0.647441(10) 0.875904(8)
C5_16 C 0.5127(2) 0.00866(19) 0.55331(17)
C11_16 C 0.60325(18) 0.03485(19) 0.42954(17)
C12_16 C 0.58018(17) 0.03271(17) 0.45840(17)
C13_16 C 0.55278(12) 0.05825(15) 0.46448(12)
H3_16 H 0.5473 0.0775 0.4528
C14_16 C 0.5369(2) 0.0427(2) 0.4956(2)
C15_16 C 0.55331(17) 0.0127(2) 0.50866(19)
O5_16 O 0.62400(14) 0.01442(16) 0.42382(15)
O6_16 O 0.59960(16) 0.06209(16) 0.41163(16)
S3_16 S 0.58571(6) 0.00060(7) 0.48433(6)
C16_16 C 0.42954(17) 0.10325(18) 0.53485(19)
C17_16 C 0.45840(17) 0.08018(17) 0.53271(17)
C18_16 C 0.46448(12) 0.05278(12) 0.55825(15)
H4_16 H 0.4528 0.0473 0.5775
C19_16 C 0.4956(2) 0.0369(2) 0.5427(2)
C20_16 C 0.50866(19) 0.05331(17) 0.5127(2)
O8_8 O 0.41163(16) 0.09960(16) 0.56209(16)
S4_16 S 0.48433(6) 0.08571(6) 0.50060(7)
Pb9_16 Pb 0.552815(9) 0.102559(10) 0.375904(8)
Pb10_8 Pb 0.375904(8) 0.052815(9) 0.602559(10)
C1_16 C 0.53485(19) 0.92954(17) 0.60325(18)
C2_16 C 0.53271(17) 0.95840(17) 0.58018(17)
C3_16 C 0.55825(15) 0.96448(12) 0.55278(12)
H1_16 H 0.5775 0.9528 0.5473
C4_16 C 0.5427(2) 0.9956(2) 0.5369(2)
C6_16 C 0.5409(3) 0.8192(2) 0.6035(3)
C7_16 C 0.5361(2) 0.7915(2) 0.58018(19)
C8_16 C 0.50653(17) 0.76720(15) 0.58309(15)
H2_16 H 0.4880 0.7670 0.5971
C9_16 C 0.5173(2) 0.7444(2) 0.5565(2)
C10_16 C 0.5446(2) 0.7520(2) 0.5349(2)
O2_16 O 0.56209(16) 0.91163(16) 0.59960(16)
O3_16 O 0.56582(16) 0.83746(15) 0.59954(16)
O4_16 O 0.52019(18) 0.82226(17) 0.62647(16)
S1_16 S 0.50060(7) 0.98433(6) 0.58571(6)
S2_16 S 0.56551(9) 0.78636(8) 0.54908(7)
C21_16 C 0.6035(3) 0.7091(3) 0.4308(2)
C22_16 C 0.58018(19) 0.7139(2) 0.4585(2)
C23_16 C 0.58309(15) 0.74347(17) 0.48280(15)
H5_16 H 0.5971 0.7620 0.4830
C24_16 C 0.5565(2) 0.7327(2) 0.5056(2)
C25_16 C 0.5349(2) 0.7054(2) 0.4980(2)
O9_16 O 0.59954(16) 0.68418(16) 0.41254(15)
O10_16 O 0.62647(16) 0.72981(18) 0.42774(17)
S5_16 S 0.54908(7) 0.68449(9) 0.46364(8)
C26_16 C 0.4308(2) 0.6465(3) 0.5409(3)
C27_16 C 0.4585(2) 0.66982(19) 0.5361(2)
C28_16 C 0.48280(15) 0.66691(15) 0.50653(17)
H6_16 H 0.4830 0.6529 0.4880
C29_16 C 0.5056(2) 0.6935(2) 0.5173(2)
C30_16 C 0.4980(2) 0.7151(2) 0.5446(2)
O11_16 O 0.41254(15) 0.65046(16) 0.56582(16)
O12_16 O 0.42774(17) 0.62353(16) 0.52019(18)
S6_16 S 0.46364(8) 0.70092(7) 0.56551(9)
Pb3_16 Pb 0.375904(8) 0.602559(10) 0.552815(9)
O18_12 O 0.59960(16) 0.68791(16) 0.33837(16)
O19_16 O 0.33837(16) 0.65040(16) 0.56209(16)
O20_16 O 0.41163(16) 0.56209(16) 0.59960(16)
O21_16 O 0.59960(16) 0.83837(16) 0.68791(16)
O22_16 O 0.68791(16) 0.65040(16) 0.41163(16)
O23_16 O 0.33746(15) 0.56582(16) 0.59954(16)
O24_16 O 0.59954(16) 0.91254(15) 0.68418(16)
O25_16 O 0.68418(16) 0.65046(16) 0.33746(15)
Pb11_12 Pb 0.552815(9) 0.647441(10) 0.374096(8)
Pb12_16 Pb 0.602559(10) 0.875904(8) 0.552815(9)
Pb13_16 Pb 0.374096(8) 0.697185(9) 0.602559(10)
C5_17 C 0.00866(19) 0.55331(17) 0.5127(2)
C11_17 C 0.03485(19) 0.42954(17) 0.60325(18)
C12_17 C 0.03271(17) 0.45840(17) 0.58018(17)
C13_17 C 0.05825(15) 0.46448(12) 0.55278(12)
H3_17 H 0.0775 0.4528 0.5473
C14_17 C 0.0427(2) 0.4956(2) 0.5369(2)
C15_17 C 0.0127(2) 0.50866(19) 0.55331(17)
O5_17 O 0.01442(16) 0.42382(15) 0.62400(14)
O6_17 O 0.06209(16) 0.41163(16) 0.59960(16)
S3_17 S 0.00060(7) 0.48433(6) 0.58571(6)
C16_17 C 0.10325(18) 0.53485(19) 0.42954(17)
C17_17 C 0.08018(17) 0.53271(17) 0.45840(17)
C18_17 C 0.05278(12) 0.55825(15) 0.46448(12)
H4_17 H 0.0473 0.5775 0.4528
C19_17 C 0.0369(2) 0.5427(2) 0.4956(2)
C20_17 C 0.05331(17) 0.5127(2) 0.50866(19)
S4_17 S 0.08571(6) 0.50060(7) 0.48433(6)
Pb9_17 Pb 0.102559(10) 0.375904(8) 0.552815(9)
C1_17 C 0.92954(17) 0.60325(18) 0.53485(19)
C2_17 C 0.95840(17) 0.58018(17) 0.53271(17)
C3_17 C 0.96448(12) 0.55278(12) 0.55825(15)
H1_17 H 0.9528 0.5473 0.5775
C4_17 C 0.9956(2) 0.5369(2) 0.5427(2)
C6_17 C 0.8192(2) 0.6035(3) 0.5409(3)
C7_17 C 0.7915(2) 0.58018(19) 0.5361(2)
C8_17 C 0.76720(15) 0.58309(15) 0.50653(17)
H2_17 H 0.7670 0.5971 0.4880
C9_17 C 0.7444(2) 0.5565(2) 0.5173(2)
C10_17 C 0.7520(2) 0.5349(2) 0.5446(2)
O2_17 O 0.91163(16) 0.59960(16) 0.56209(16)
O3_17 O 0.83746(15) 0.59954(16) 0.56582(16)
O4_17 O 0.82226(17) 0.62647(16) 0.52019(18)
S1_17 S 0.98433(6) 0.58571(6) 0.50060(7)
S2_17 S 0.78636(8) 0.54908(7) 0.56551(9)
C21_17 C 0.7091(3) 0.4308(2) 0.6035(3)
C22_17 C 0.7139(2) 0.4585(2) 0.58018(19)
C23_17 C 0.74347(17) 0.48280(15) 0.58309(15)
H5_17 H 0.7620 0.4830 0.5971
C24_17 C 0.7327(2) 0.5056(2) 0.5565(2)
C25_17 C 0.7054(2) 0.4980(2) 0.5349(2)
O9_17 O 0.68418(16) 0.41254(15) 0.59954(16)
O10_17 O 0.72981(18) 0.42774(17) 0.62647(16)
S5_17 S 0.68449(9) 0.46364(8) 0.54908(7)
C26_17 C 0.6465(3) 0.5409(3) 0.4308(2)
C27_17 C 0.66982(19) 0.5361(2) 0.4585(2)
C28_17 C 0.66691(15) 0.50653(17) 0.48280(15)
H6_17 H 0.6529 0.4880 0.4830
C29_17 C 0.6935(2) 0.5173(2) 0.5056(2)
C30_17 C 0.7151(2) 0.5446(2) 0.4980(2)
O11_17 O 0.65046(16) 0.56582(16) 0.41254(15)
O12_17 O 0.62353(16) 0.52019(18) 0.42774(17)
S6_17 S 0.70092(7) 0.56551(9) 0.46364(8)
Pb3_17 Pb 0.602559(10) 0.552815(9) 0.375904(8)
O18_13 O 0.68791(16) 0.33837(16) 0.59960(16)
O19_17 O 0.65040(16) 0.56209(16) 0.33837(16)
O20_17 O 0.56209(16) 0.59960(16) 0.41163(16)
O21_17 O 0.83837(16) 0.68791(16) 0.59960(16)
O22_17 O 0.65040(16) 0.41163(16) 0.68791(16)
O23_17 O 0.56582(16) 0.59954(16) 0.33746(15)
O24_17 O 0.91254(15) 0.68418(16) 0.59954(16)
O25_17 O 0.65046(16) 0.33746(15) 0.68418(16)
Pb11_13 Pb 0.647441(10) 0.374096(8) 0.552815(9)
Pb12_17 Pb 0.875904(8) 0.552815(9) 0.602559(10)
Pb13_17 Pb 0.697185(9) 0.602559(10) 0.374096(8)
C9_18 C 0.0056(2) 0.0565(2) 0.7327(2)
C24_18 C 0.0173(2) 0.0056(2) 0.6935(2)
C26_18 C 0.1035(3) 0.0409(3) 0.8192(2)
C27_18 C 0.08018(19) 0.0361(2) 0.7915(2)
C28_18 C 0.08309(15) 0.00653(17) 0.76720(15)
C29_18 C 0.0565(2) 0.0173(2) 0.7444(2)
C30_18 C 0.0349(2) 0.0446(2) 0.7520(2)
O11_18 O 0.09954(16) 0.06582(16) 0.83746(15)
O12_18 O 0.12647(16) 0.02019(18) 0.82226(17)
S6_18 S 0.04908(7) 0.06551(9) 0.78636(8)
Pb3_18 Pb 0.147441(10) 0.052815(9) 0.874096(8)
O19_18 O 0.09960(16) 0.06209(16) 0.91163(16)
O20_18 O 0.18791(16) 0.09960(16) 0.83837(16)
O23_18 O 0.18418(16) 0.09954(16) 0.91254(15)
Pb13_18 Pb 0.052815(9) 0.102559(10) 0.875904(8)
C21_18 C 0.0409(3) 0.9308(2) 0.6465(3)
C22_18 C 0.0361(2) 0.9585(2) 0.66982(19)
C23_18 C 0.00653(17) 0.98280(15) 0.66691(15)
C25_18 C 0.0446(2) 0.9980(2) 0.7151(2)
O9_18 O 0.06582(16) 0.91254(15) 0.65046(16)
O10_18 O 0.02019(18) 0.92774(17) 0.62353(16)
S5_18 S 0.06551(9) 0.96364(8) 0.70092(7)
H6_18 H 0.0971 0.9880 0.7670
O18_14 O 0.06209(16) 0.83837(16) 0.65040(16)
O22_18 O 0.09960(16) 0.91163(16) 0.56209(16)
O25_18 O 0.09954(16) 0.83746(15) 0.56582(16)
Pb11_14 Pb 0.102559(10) 0.874096(8) 0.697185(9)
C1_18 C 0.82046(17) 0.10325(18) 0.71515(19)
C2_18 C 0.79160(17) 0.08018(17) 0.71729(17)
C3_18 C 0.78552(12) 0.05278(12) 0.69175(15)
H1_18 H 0.7972 0.0473 0.6725
C4_18 C 0.7544(2) 0.0369(2) 0.7073(2)
C5_18 C 0.74134(19) 0.05331(17) 0.7373(2)
C6_18 C 0.9308(2) 0.1035(3) 0.7091(3)
C7_18 C 0.9585(2) 0.08018(19) 0.7139(2)
C8_18 C 0.98280(15) 0.08309(15) 0.74347(17)
H2_18 H 0.9830 0.0971 0.7620
C10_18 C 0.9980(2) 0.0349(2) 0.7054(2)
O2_18 O 0.83837(16) 0.09960(16) 0.68791(16)
O3_18 O 0.91254(15) 0.09954(16) 0.68418(16)
O4_18 O 0.92774(17) 0.12647(16) 0.72981(18)
S1_18 S 0.76567(6) 0.08571(6) 0.74940(7)
S2_18 S 0.96364(8) 0.04908(7) 0.68449(9)
C15_18 C 0.7373(2) 0.00866(19) 0.69669(17)
C16_18 C 0.64675(18) 0.03485(19) 0.82046(17)
C17_18 C 0.66982(17) 0.03271(17) 0.79160(17)
C18_18 C 0.69722(12) 0.05825(15) 0.78552(12)
H4_18 H 0.7027 0.0775 0.7972
C19_18 C 0.7131(2) 0.0427(2) 0.7544(2)
C20_18 C 0.69669(17) 0.0127(2) 0.74134(19)
S4_18 S 0.66429(6) 0.00060(7) 0.76567(6)
O21_18 O 0.91163(16) 0.18791(16) 0.65040(16)
O24_18 O 0.83746(15) 0.18418(16) 0.65046(16)
Pb12_18 Pb 0.874096(8) 0.052815(9) 0.647441(10)
C11_18 C 0.71515(19) 0.92954(17) 0.64675(18)
C12_18 C 0.71729(17) 0.95840(17) 0.66982(17)
C13_18 C 0.69175(15) 0.96448(12) 0.69722(12)
H3_18 H 0.6725 0.9528 0.7027
C14_18 C 0.7073(2) 0.9956(2) 0.7131(2)
O5_18 O 0.73558(16) 0.92382(15) 0.62600(14)
O6_18 O 0.68791(16) 0.91163(16) 0.65040(16)
S3_18 S 0.74940(7) 0.98433(6) 0.66429(6)
H5_18 H 0.9880 0.9830 0.6529
Pb9_18 Pb 0.647441(10) 0.875904(8) 0.697185(9)
C1_19 C 0.32046(17) 0.14675(18) 0.03485(19)
C2_19 C 0.29160(17) 0.16982(17) 0.03271(17)
C3_19 C 0.28552(12) 0.19722(12) 0.05825(15)
H1_19 H 0.2972 0.2027 0.0775
C4_19 C 0.2544(2) 0.2131(2) 0.0427(2)
C5_19 C 0.24134(19) 0.19669(17) 0.0127(2)
C6_19 C 0.4308(2) 0.1465(3) 0.0409(3)
C7_19 C 0.4585(2) 0.16982(19) 0.0361(2)
C8_19 C 0.48280(15) 0.16691(15) 0.00653(17)
C9_19 C 0.5056(2) 0.1935(2) 0.0173(2)
C10_19 C 0.4980(2) 0.2151(2) 0.0446(2)
O2_19 O 0.33837(16) 0.15040(16) 0.06209(16)
O3_19 O 0.41254(15) 0.15046(16) 0.06582(16)
O4_19 O 0.42774(17) 0.12353(16) 0.02019(18)
S1_19 S 0.26567(6) 0.16429(6) 0.00060(7)
S2_19 S 0.46364(8) 0.20092(7) 0.06551(9)
C11_19 C 0.21515(19) 0.32046(17) 0.10325(18)
C12_19 C 0.21729(17) 0.29160(17) 0.08018(17)
C13_19 C 0.19175(15) 0.28552(12) 0.05278(12)
H3_19 H 0.1725 0.2972 0.0473
C14_19 C 0.2073(2) 0.2544(2) 0.0369(2)
C15_19 C 0.2373(2) 0.24134(19) 0.05331(17)
O5_19 O 0.23558(16) 0.32618(15) 0.12400(14)
O6_19 O 0.18791(16) 0.33837(16) 0.09960(16)
S3_19 S 0.24940(7) 0.26567(6) 0.08571(6)
C20_19 C 0.19669(17) 0.2373(2) 0.00866(19)
C21_19 C 0.5409(3) 0.3192(2) 0.1035(3)
C22_19 C 0.5361(2) 0.2915(2) 0.08018(19)
C23_19 C 0.50653(17) 0.26720(15) 0.08309(15)
H5_19 H 0.4880 0.2670 0.0971
C24_19 C 0.5173(2) 0.2444(2) 0.0565(2)
C25_19 C 0.5446(2) 0.2520(2) 0.0349(2)
O9_19 O 0.56582(16) 0.33746(15) 0.09954(16)
O10_19 O 0.52019(18) 0.32226(17) 0.12647(16)
S5_19 S 0.56551(9) 0.28636(8) 0.04908(7)
C29_19 C 0.5565(2) 0.2327(2) 0.0056(2)
O18_15 O 0.56209(16) 0.41163(16) 0.09960(16)
O21_19 O 0.41163(16) 0.06209(16) 0.09960(16)
O22_19 O 0.59960(16) 0.33837(16) 0.18791(16)
O24_19 O 0.33746(15) 0.06582(16) 0.09954(16)
O25_19 O 0.59954(16) 0.41254(15) 0.18418(16)
Pb9_19 Pb 0.147441(10) 0.374096(8) 0.052815(9)
Pb11_15 Pb 0.602559(10) 0.375904(8) 0.052815(9)
Pb12_19 Pb 0.374096(8) 0.197185(9) 0.102559(10)
H2_19 H 0.4830 0.1529 0.9880
C16_19 C 0.14675(18) 0.21515(19) 0.92954(17)
C17_19 C 0.16982(17) 0.21729(17) 0.95840(17)
C18_19 C 0.19722(12) 0.19175(15) 0.96448(12)
H4_19 H 0.2027 0.1725 0.9528
C19_19 C 0.2131(2) 0.2073(2) 0.9956(2)
S4_19 S 0.16429(6) 0.24940(7) 0.98433(6)
C26_19 C 0.6035(3) 0.2091(3) 0.9308(2)
C27_19 C 0.58018(19) 0.2139(2) 0.9585(2)
C28_19 C 0.58309(15) 0.24347(17) 0.98280(15)
H6_19 H 0.5971 0.2620 0.9830
C30_19 C 0.5349(2) 0.2054(2) 0.9980(2)
O11_19 O 0.59954(16) 0.18418(16) 0.91254(15)
O12_19 O 0.62647(16) 0.22981(18) 0.92774(17)
S6_19 S 0.54908(7) 0.18449(9) 0.96364(8)
Pb3_19 Pb 0.647441(10) 0.197185(9) 0.875904(8)
O19_19 O 0.59960(16) 0.18791(16) 0.83837(16)
O20_19 O 0.68791(16) 0.15040(16) 0.91163(16)
O23_19 O 0.68418(16) 0.15046(16) 0.83746(15)
Pb13_19 Pb 0.552815(9) 0.147441(10) 0.874096(8)
C1_20 C 0.42954(17) 0.64675(18) 0.21515(19)
C2_20 C 0.45840(17) 0.66982(17) 0.21729(17)
C3_20 C 0.46448(12) 0.69722(12) 0.19175(15)
H1_20 H 0.4528 0.7027 0.1725
C4_20 C 0.4956(2) 0.7131(2) 0.2073(2)
C5_20 C 0.50866(19) 0.69669(17) 0.2373(2)
C6_20 C 0.3192(2) 0.6465(3) 0.2091(3)
C7_20 C 0.2915(2) 0.66982(19) 0.2139(2)
C8_20 C 0.26720(15) 0.66691(15) 0.24347(17)
H2_20 H 0.2670 0.6529 0.2620
C9_20 C 0.2444(2) 0.6935(2) 0.2327(2)
C10_20 C 0.2520(2) 0.7151(2) 0.2054(2)
O2_20 O 0.41163(16) 0.65040(16) 0.18791(16)
O3_20 O 0.33746(15) 0.65046(16) 0.18418(16)
O4_20 O 0.32226(17) 0.62353(16) 0.22981(18)
S1_20 S 0.48433(6) 0.66429(6) 0.24940(7)
S2_20 S 0.28636(8) 0.70092(7) 0.18449(9)
C11_20 C 0.53485(19) 0.82046(17) 0.14675(18)
C12_20 C 0.53271(17) 0.79160(17) 0.16982(17)
C13_20 C 0.55825(15) 0.78552(12) 0.19722(12)
H3_20 H 0.5775 0.7972 0.2027
C14_20 C 0.5427(2) 0.7544(2) 0.2131(2)
C15_20 C 0.5127(2) 0.74134(19) 0.19669(17)
O5_20 O 0.51442(16) 0.82618(15) 0.12600(14)
O6_20 O 0.56209(16) 0.83837(16) 0.15040(16)
S3_20 S 0.50060(7) 0.76567(6) 0.16429(6)
C16_20 C 0.60325(18) 0.71515(19) 0.32046(17)
C17_20 C 0.58018(17) 0.71729(17) 0.29160(17)
C18_20 C 0.55278(12) 0.69175(15) 0.28552(12)
H4_20 H 0.5473 0.6725 0.2972
C19_20 C 0.5369(2) 0.7073(2) 0.2544(2)
C20_20 C 0.55331(17) 0.7373(2) 0.24134(19)
S4_20 S 0.58571(6) 0.74940(7) 0.26567(6)
C21_20 C 0.2091(3) 0.8192(2) 0.1465(3)
C22_20 C 0.2139(2) 0.7915(2) 0.16982(19)
C23_20 C 0.24347(17) 0.76720(15) 0.16691(15)
H5_20 H 0.2620 0.7670 0.1529
C24_20 C 0.2327(2) 0.7444(2) 0.1935(2)
C25_20 C 0.2054(2) 0.7520(2) 0.2151(2)
O9_20 O 0.18418(16) 0.83746(15) 0.15046(16)
O10_20 O 0.22981(18) 0.82226(17) 0.12353(16)
S5_20 S 0.18449(9) 0.78636(8) 0.20092(7)
C26_20 C 0.1465(3) 0.7091(3) 0.3192(2)
C27_20 C 0.16982(19) 0.7139(2) 0.2915(2)
C28_20 C 0.16691(15) 0.74347(17) 0.26720(15)
H6_20 H 0.1529 0.7620 0.2670
C29_20 C 0.1935(2) 0.7327(2) 0.2444(2)
C30_20 C 0.2151(2) 0.7054(2) 0.2520(2)
O11_20 O 0.15046(16) 0.68418(16) 0.33746(15)
O12_20 O 0.12353(16) 0.72981(18) 0.32226(17)
S6_20 S 0.20092(7) 0.68449(9) 0.28636(8)
Pb3_20 Pb 0.102559(10) 0.697185(9) 0.374096(8)
O18_16 O 0.18791(16) 0.91163(16) 0.15040(16)
O19_20 O 0.15040(16) 0.68791(16) 0.41163(16)
O20_20 O 0.06209(16) 0.65040(16) 0.33837(16)
O21_20 O 0.33837(16) 0.56209(16) 0.15040(16)
O22_20 O 0.15040(16) 0.83837(16) 0.06209(16)
O23_20 O 0.06582(16) 0.65046(16) 0.41254(15)
O24_20 O 0.41254(15) 0.56582(16) 0.15046(16)
O25_20 O 0.15046(16) 0.91254(15) 0.06582(16)
Pb9_20 Pb 0.602559(10) 0.874096(8) 0.197185(9)
Pb11_16 Pb 0.147441(10) 0.875904(8) 0.197185(9)
Pb12_20 Pb 0.375904(8) 0.697185(9) 0.147441(10)
Pb13_20 Pb 0.197185(9) 0.647441(10) 0.375904(8)
C9_21 C 0.0565(2) 0.7327(2) 0.0056(2)
C24_21 C 0.0056(2) 0.6935(2) 0.0173(2)
C26_21 C 0.0409(3) 0.8192(2) 0.1035(3)
C27_21 C 0.0361(2) 0.7915(2) 0.08018(19)
C28_21 C 0.00653(17) 0.76720(15) 0.08309(15)
C29_21 C 0.0173(2) 0.7444(2) 0.0565(2)
C30_21 C 0.0446(2) 0.7520(2) 0.0349(2)
O11_21 O 0.06582(16) 0.83746(15) 0.09954(16)
O12_21 O 0.02019(18) 0.82226(17) 0.12647(16)
S6_21 S 0.06551(9) 0.78636(8) 0.04908(7)
Pb3_21 Pb 0.052815(9) 0.874096(8) 0.147441(10)
O19_21 O 0.06209(16) 0.91163(16) 0.09960(16)
O20_21 O 0.09960(16) 0.83837(16) 0.18791(16)
O23_21 O 0.09954(16) 0.91254(15) 0.18418(16)
Pb13_21 Pb 0.102559(10) 0.875904(8) 0.052815(9)
C1_21 C 0.10325(18) 0.71515(19) 0.82046(17)
C2_21 C 0.08018(17) 0.71729(17) 0.79160(17)
C3_21 C 0.05278(12) 0.69175(15) 0.78552(12)
H1_21 H 0.0473 0.6725 0.7972
C4_21 C 0.0369(2) 0.7073(2) 0.7544(2)
C5_21 C 0.05331(17) 0.7373(2) 0.74134(19)
C6_21 C 0.1035(3) 0.7091(3) 0.9308(2)
C7_21 C 0.08018(19) 0.7139(2) 0.9585(2)
C8_21 C 0.08309(15) 0.74347(17) 0.98280(15)
H2_21 H 0.0971 0.7620 0.9830
C10_21 C 0.0349(2) 0.7054(2) 0.9980(2)
O2_21 O 0.09960(16) 0.68791(16) 0.83837(16)
O3_21 O 0.09954(16) 0.68418(16) 0.91254(15)
O4_21 O 0.12647(16) 0.72981(18) 0.92774(17)
S1_21 S 0.08571(6) 0.74940(7) 0.76567(6)
S2_21 S 0.04908(7) 0.68449(9) 0.96364(8)
C15_21 C 0.00866(19) 0.69669(17) 0.7373(2)
C16_21 C 0.03485(19) 0.82046(17) 0.64675(18)
C17_21 C 0.03271(17) 0.79160(17) 0.66982(17)
C18_21 C 0.05825(15) 0.78552(12) 0.69722(12)
H4_21 H 0.0775 0.7972 0.7027
C19_21 C 0.0427(2) 0.7544(2) 0.7131(2)
C20_21 C 0.0127(2) 0.74134(19) 0.69669(17)
S4_21 S 0.00060(7) 0.76567(6) 0.66429(6)
O21_21 O 0.18791(16) 0.65040(16) 0.91163(16)
O24_21 O 0.18418(16) 0.65046(16) 0.83746(15)
Pb12_21 Pb 0.052815(9) 0.647441(10) 0.874096(8)
C21_21 C 0.9308(2) 0.6465(3) 0.0409(3)
C22_21 C 0.9585(2) 0.66982(19) 0.0361(2)
C23_21 C 0.98280(15) 0.66691(15) 0.00653(17)
C25_21 C 0.9980(2) 0.7151(2) 0.0446(2)
O9_21 O 0.91254(15) 0.65046(16) 0.06582(16)
O10_21 O 0.92774(17) 0.62353(16) 0.02019(18)
S5_21 S 0.96364(8) 0.70092(7) 0.06551(9)
H6_21 H 0.9880 0.7670 0.0971
O22_21 O 0.91163(16) 0.56209(16) 0.09960(16)
O25_21 O 0.83746(15) 0.56582(16) 0.09954(16)
C11_21 C 0.92954(17) 0.64675(18) 0.71515(19)
C12_21 C 0.95840(17) 0.66982(17) 0.71729(17)
C13_21 C 0.96448(12) 0.69722(12) 0.69175(15)
H3_21 H 0.9528 0.7027 0.6725
C14_21 C 0.9956(2) 0.7131(2) 0.7073(2)
O5_21 O 0.92382(15) 0.62600(14) 0.73558(16)
O6_21 O 0.91163(16) 0.65040(16) 0.68791(16)
S3_21 S 0.98433(6) 0.66429(6) 0.74940(7)
H5_21 H 0.9830 0.6529 0.9880
Pb9_21 Pb 0.875904(8) 0.697185(9) 0.647441(10)
C5_22 C 0.55331(17) 0.5127(2) 0.00866(19)
C11_22 C 0.42954(17) 0.60325(18) 0.03485(19)
C12_22 C 0.45840(17) 0.58018(17) 0.03271(17)
C13_22 C 0.46448(12) 0.55278(12) 0.05825(15)
H3_22 H 0.4528 0.5473 0.0775
C14_22 C 0.4956(2) 0.5369(2) 0.0427(2)
C15_22 C 0.50866(19) 0.55331(17) 0.0127(2)
O5_22 O 0.42382(15) 0.62400(14) 0.01442(16)
O6_22 O 0.41163(16) 0.59960(16) 0.06209(16)
S3_22 S 0.48433(6) 0.58571(6) 0.00060(7)
C16_22 C 0.53485(19) 0.42954(17) 0.10325(18)
C17_22 C 0.53271(17) 0.45840(17) 0.08018(17)
C18_22 C 0.55825(15) 0.46448(12) 0.05278(12)
H4_22 H 0.5775 0.4528 0.0473
C19_22 C 0.5427(2) 0.4956(2) 0.0369(2)
C20_22 C 0.5127(2) 0.50866(19) 0.05331(17)
S4_22 S 0.50060(7) 0.48433(6) 0.08571(6)
Pb9_22 Pb 0.375904(8) 0.552815(9) 0.102559(10)
C1_22 C 0.60325(18) 0.53485(19) 0.92954(17)
C2_22 C 0.58018(17) 0.53271(17) 0.95840(17)
C3_22 C 0.55278(12) 0.55825(15) 0.96448(12)
H1_22 H 0.5473 0.5775 0.9528
C4_22 C 0.5369(2) 0.5427(2) 0.9956(2)
C6_22 C 0.6035(3) 0.5409(3) 0.8192(2)
C7_22 C 0.58018(19) 0.5361(2) 0.7915(2)
C8_22 C 0.58309(15) 0.50653(17) 0.76720(15)
H2_22 H 0.5971 0.4880 0.7670
C9_22 C 0.5565(2) 0.5173(2) 0.7444(2)
C10_22 C 0.5349(2) 0.5446(2) 0.7520(2)
O2_22 O 0.59960(16) 0.56209(16) 0.91163(16)
O3_22 O 0.59954(16) 0.56582(16) 0.83746(15)
O4_22 O 0.62647(16) 0.52019(18) 0.82226(17)
S1_22 S 0.58571(6) 0.50060(7) 0.98433(6)
S2_22 S 0.54908(7) 0.56551(9) 0.78636(8)
C21_22 C 0.4308(2) 0.6035(3) 0.7091(3)
C22_22 C 0.4585(2) 0.58018(19) 0.7139(2)
C23_22 C 0.48280(15) 0.58309(15) 0.74347(17)
H5_22 H 0.4830 0.5971 0.7620
C24_22 C 0.5056(2) 0.5565(2) 0.7327(2)
C25_22 C 0.4980(2) 0.5349(2) 0.7054(2)
O9_22 O 0.41254(15) 0.59954(16) 0.68418(16)
O10_22 O 0.42774(17) 0.62647(16) 0.72981(18)
S5_22 S 0.46364(8) 0.54908(7) 0.68449(9)
C26_22 C 0.5409(3) 0.4308(2) 0.6465(3)
C27_22 C 0.5361(2) 0.4585(2) 0.66982(19)
C28_22 C 0.50653(17) 0.48280(15) 0.66691(15)
H6_22 H 0.4880 0.4830 0.6529
C29_22 C 0.5173(2) 0.5056(2) 0.6935(2)
C30_22 C 0.5446(2) 0.4980(2) 0.7151(2)
O11_22 O 0.56582(16) 0.41254(15) 0.65046(16)
O12_22 O 0.52019(18) 0.42774(17) 0.62353(16)
S6_22 S 0.56551(9) 0.46364(8) 0.70092(7)
Pb3_22 Pb 0.552815(9) 0.375904(8) 0.602559(10)
O19_22 O 0.56209(16) 0.33837(16) 0.65040(16)
O20_22 O 0.59960(16) 0.41163(16) 0.56209(16)
O21_22 O 0.68791(16) 0.59960(16) 0.83837(16)
O22_22 O 0.41163(16) 0.68791(16) 0.65040(16)
O23_22 O 0.59954(16) 0.33746(15) 0.56582(16)
O24_22 O 0.68418(16) 0.59954(16) 0.91254(15)
O25_22 O 0.33746(15) 0.68418(16) 0.65046(16)
Pb12_22 Pb 0.552815(9) 0.602559(10) 0.875904(8)
Pb13_22 Pb 0.602559(10) 0.374096(8) 0.697185(9)
C1_23 C 0.64675(18) 0.21515(19) 0.42954(17)
C2_23 C 0.66982(17) 0.21729(17) 0.45840(17)
C3_23 C 0.69722(12) 0.19175(15) 0.46448(12)
H1_23 H 0.7027 0.1725 0.4528
C4_23 C 0.7131(2) 0.2073(2) 0.4956(2)
C5_23 C 0.69669(17) 0.2373(2) 0.50866(19)
C6_23 C 0.6465(3) 0.2091(3) 0.3192(2)
C7_23 C 0.66982(19) 0.2139(2) 0.2915(2)
C8_23 C 0.66691(15) 0.24347(17) 0.26720(15)
H2_23 H 0.6529 0.2620 0.2670
C9_23 C 0.6935(2) 0.2327(2) 0.2444(2)
C10_23 C 0.7151(2) 0.2054(2) 0.2520(2)
O2_23 O 0.65040(16) 0.18791(16) 0.41163(16)
O3_23 O 0.65046(16) 0.18418(16) 0.33746(15)
O4_23 O 0.62353(16) 0.22981(18) 0.32226(17)
S1_23 S 0.66429(6) 0.24940(7) 0.48433(6)
S2_23 S 0.70092(7) 0.18449(9) 0.28636(8)
C11_23 C 0.82046(17) 0.14675(18) 0.53485(19)
C12_23 C 0.79160(17) 0.16982(17) 0.53271(17)
C13_23 C 0.78552(12) 0.19722(12) 0.55825(15)
H3_23 H 0.7972 0.2027 0.5775
C14_23 C 0.7544(2) 0.2131(2) 0.5427(2)
C15_23 C 0.74134(19) 0.19669(17) 0.5127(2)
O5_23 O 0.82618(15) 0.12600(14) 0.51442(16)
O6_23 O 0.83837(16) 0.15040(16) 0.56209(16)
S3_23 S 0.76567(6) 0.16429(6) 0.50060(7)
C16_23 C 0.71515(19) 0.32046(17) 0.60325(18)
C17_23 C 0.71729(17) 0.29160(17) 0.58018(17)
C18_23 C 0.69175(15) 0.28552(12) 0.55278(12)
H4_23 H 0.6725 0.2972 0.5473
C19_23 C 0.7073(2) 0.2544(2) 0.5369(2)
C20_23 C 0.7373(2) 0.24134(19) 0.55331(17)
S4_23 S 0.74940(7) 0.26567(6) 0.58571(6)
C21_23 C 0.8192(2) 0.1465(3) 0.2091(3)
C22_23 C 0.7915(2) 0.16982(19) 0.2139(2)
C23_23 C 0.76720(15) 0.16691(15) 0.24347(17)
H5_23 H 0.7670 0.1529 0.2620
C24_23 C 0.7444(2) 0.1935(2) 0.2327(2)
C25_23 C 0.7520(2) 0.2151(2) 0.2054(2)
O9_23 O 0.83746(15) 0.15046(16) 0.18418(16)
O10_23 O 0.82226(17) 0.12353(16) 0.22981(18)
S5_23 S 0.78636(8) 0.20092(7) 0.18449(9)
C26_23 C 0.7091(3) 0.3192(2) 0.1465(3)
C27_23 C 0.7139(2) 0.2915(2) 0.16982(19)
C28_23 C 0.74347(17) 0.26720(15) 0.16691(15)
H6_23 H 0.7620 0.2670 0.1529
C29_23 C 0.7327(2) 0.2444(2) 0.1935(2)
C30_23 C 0.7054(2) 0.2520(2) 0.2151(2)
O11_23 O 0.68418(16) 0.33746(15) 0.15046(16)
O12_23 O 0.72981(18) 0.32226(17) 0.12353(16)
S6_23 S 0.68449(9) 0.28636(8) 0.20092(7)
Pb3_23 Pb 0.697185(9) 0.374096(8) 0.102559(10)
O19_23 O 0.68791(16) 0.41163(16) 0.15040(16)
O20_23 O 0.65040(16) 0.33837(16) 0.06209(16)
O21_23 O 0.56209(16) 0.15040(16) 0.33837(16)
O22_23 O 0.83837(16) 0.06209(16) 0.15040(16)
O23_23 O 0.65046(16) 0.41254(15) 0.06582(16)
O24_23 O 0.56582(16) 0.15046(16) 0.41254(15)
O25_23 O 0.91254(15) 0.06582(16) 0.15046(16)
Pb9_23 Pb 0.874096(8) 0.197185(9) 0.602559(10)
Pb12_23 Pb 0.697185(9) 0.147441(10) 0.375904(8)
Pb13_23 Pb 0.647441(10) 0.375904(8) 0.197185(9)
C1_24 C 0.14675(18) 0.03485(19) 0.32046(17)
C2_24 C 0.16982(17) 0.03271(17) 0.29160(17)
C3_24 C 0.19722(12) 0.05825(15) 0.28552(12)
H1_24 H 0.2027 0.0775 0.2972
C4_24 C 0.2131(2) 0.0427(2) 0.2544(2)
C5_24 C 0.19669(17) 0.0127(2) 0.24134(19)
C6_24 C 0.1465(3) 0.0409(3) 0.4308(2)
C7_24 C 0.16982(19) 0.0361(2) 0.4585(2)
C8_24 C 0.16691(15) 0.00653(17) 0.48280(15)
C9_24 C 0.1935(2) 0.0173(2) 0.5056(2)
C10_24 C 0.2151(2) 0.0446(2) 0.4980(2)
O2_24 O 0.15040(16) 0.06209(16) 0.33837(16)
O3_24 O 0.15046(16) 0.06582(16) 0.41254(15)
O4_24 O 0.12353(16) 0.02019(18) 0.42774(17)
S1_24 S 0.16429(6) 0.00060(7) 0.26567(6)
S2_24 S 0.20092(7) 0.06551(9) 0.46364(8)
C11_24 C 0.32046(17) 0.10325(18) 0.21515(19)
C12_24 C 0.29160(17) 0.08018(17) 0.21729(17)
C13_24 C 0.28552(12) 0.05278(12) 0.19175(15)
H3_24 H 0.2972 0.0473 0.1725
C14_24 C 0.2544(2) 0.0369(2) 0.2073(2)
C15_24 C 0.24134(19) 0.05331(17) 0.2373(2)
O5_24 O 0.32618(15) 0.12400(14) 0.23558(16)
O6_24 O 0.33837(16) 0.09960(16) 0.18791(16)
S3_24 S 0.26567(6) 0.08571(6) 0.24940(7)
C20_24 C 0.2373(2) 0.00866(19) 0.19669(17)
C21_24 C 0.3192(2) 0.1035(3) 0.5409(3)
C22_24 C 0.2915(2) 0.08018(19) 0.5361(2)
C23_24 C 0.26720(15) 0.08309(15) 0.50653(17)
H5_24 H 0.2670 0.0971 0.4880
C24_24 C 0.2444(2) 0.0565(2) 0.5173(2)
C25_24 C 0.2520(2) 0.0349(2) 0.5446(2)
O9_24 O 0.33746(15) 0.09954(16) 0.56582(16)
O10_24 O 0.32226(17) 0.12647(16) 0.52019(18)
S5_24 S 0.28636(8) 0.04908(7) 0.56551(9)
C29_24 C 0.2327(2) 0.0056(2) 0.5565(2)
O21_24 O 0.06209(16) 0.09960(16) 0.41163(16)
O22_24 O 0.33837(16) 0.18791(16) 0.59960(16)
O24_24 O 0.06582(16) 0.09954(16) 0.33746(15)
O25_24 O 0.41254(15) 0.18418(16) 0.59954(16)
Pb9_24 Pb 0.374096(8) 0.052815(9) 0.147441(10)
Pb12_24 Pb 0.197185(9) 0.102559(10) 0.374096(8)
H2_24 H 0.1529 0.9880 0.4830
C16_24 C 0.21515(19) 0.92954(17) 0.14675(18)
C17_24 C 0.21729(17) 0.95840(17) 0.16982(17)
C18_24 C 0.19175(15) 0.96448(12) 0.19722(12)
H4_24 H 0.1725 0.9528 0.2027
C19_24 C 0.2073(2) 0.9956(2) 0.2131(2)
S4_24 S 0.24940(7) 0.98433(6) 0.16429(6)
C26_24 C 0.2091(3) 0.9308(2) 0.6035(3)
C27_24 C 0.2139(2) 0.9585(2) 0.58018(19)
C28_24 C 0.24347(17) 0.98280(15) 0.58309(15)
H6_24 H 0.2620 0.9830 0.5971
C30_24 C 0.2054(2) 0.9980(2) 0.5349(2)
O11_24 O 0.18418(16) 0.91254(15) 0.59954(16)
O12_24 O 0.22981(18) 0.92774(17) 0.62647(16)
S6_24 S 0.18449(9) 0.96364(8) 0.54908(7)
Pb3_24 Pb 0.197185(9) 0.875904(8) 0.647441(10)
O19_24 O 0.18791(16) 0.83837(16) 0.59960(16)
O20_24 O 0.15040(16) 0.91163(16) 0.68791(16)
O23_24 O 0.15046(16) 0.83746(15) 0.68418(16)
Pb13_24 Pb 0.147441(10) 0.874096(8) 0.552815(9)
C16_25 C 0.35325(18) 0.07046(17) 0.78485(19)
C17_25 C 0.33018(17) 0.04160(17) 0.78271(17)
C18_25 C 0.30278(12) 0.03552(12) 0.80825(15)
H4_25 H 0.2973 0.0472 0.8275
C19_25 C 0.2869(2) 0.0044(2) 0.7927(2)
S4_25 S 0.33571(6) 0.01567(6) 0.75060(7)
C1_25 C 0.17954(17) 0.96515(19) 0.85325(18)
C2_25 C 0.20840(17) 0.96729(17) 0.83018(17)
C3_25 C 0.21448(12) 0.94175(15) 0.80278(12)
H1_25 H 0.2028 0.9225 0.7973
C4_25 C 0.2456(2) 0.9573(2) 0.7869(2)
C5_25 C 0.25866(19) 0.9873(2) 0.80331(17)
S1_25 S 0.23433(6) 0.99940(7) 0.83571(6)
C11_25 C 0.28485(19) 0.89675(18) 0.67954(17)
C12_25 C 0.28271(17) 0.91982(17) 0.70840(17)
C13_25 C 0.30825(15) 0.94722(12) 0.71448(12)
H3_25 H 0.3275 0.9527 0.7028
C14_25 C 0.2927(2) 0.9631(2) 0.7456(2)
C15_25 C 0.2627(2) 0.94669(17) 0.75866(19)
S3_25 S 0.25060(7) 0.91429(6) 0.73433(6)
C20_25 C 0.30331(17) 0.99134(19) 0.7627(2)
C1_26 C 0.07046(17) 0.78485(19) 0.35325(18)
C2_26 C 0.04160(17) 0.78271(17) 0.33018(17)
C3_26 C 0.03552(12) 0.80825(15) 0.30278(12)
H1_26 H 0.0472 0.8275 0.2973
C4_26 C 0.0044(2) 0.7927(2) 0.2869(2)
S1_26 S 0.01567(6) 0.75060(7) 0.33571(6)
C5_26 C 0.99134(19) 0.7627(2) 0.30331(17)
C11_26 C 0.96515(19) 0.85325(18) 0.17954(17)
C12_26 C 0.96729(17) 0.83018(17) 0.20840(17)
C13_26 C 0.94175(15) 0.80278(12) 0.21448(12)
H3_26 H 0.9225 0.7973 0.2028
C14_26 C 0.9573(2) 0.7869(2) 0.2456(2)
C15_26 C 0.9873(2) 0.80331(17) 0.25866(19)
S3_26 S 0.99940(7) 0.83571(6) 0.23433(6)
C16_26 C 0.89675(18) 0.67954(17) 0.28485(19)
C17_26 C 0.91982(17) 0.70840(17) 0.28271(17)
C18_26 C 0.94722(12) 0.71448(12) 0.30825(15)
H4_26 H 0.9527 0.7028 0.3275
C19_26 C 0.9631(2) 0.7456(2) 0.2927(2)
C20_26 C 0.94669(17) 0.75866(19) 0.2627(2)
S4_26 S 0.91429(6) 0.73433(6) 0.25060(7)
C1_27 C 0.57046(17) 0.46515(19) 0.39675(18)
C2_27 C 0.54160(17) 0.46729(17) 0.41982(17)
C3_27 C 0.53552(12) 0.44175(15) 0.44722(12)
H1_27 H 0.5472 0.4225 0.4527
C4_27 C 0.5044(2) 0.4573(2) 0.4631(2)
C5_27 C 0.49134(19) 0.4873(2) 0.44669(17)
S1_27 S 0.51567(6) 0.49940(7) 0.41429(6)
C11_27 C 0.46515(19) 0.39675(18) 0.57046(17)
C12_27 C 0.46729(17) 0.41982(17) 0.54160(17)
C13_27 C 0.44175(15) 0.44722(12) 0.53552(12)
H3_27 H 0.4225 0.4527 0.5472
C14_27 C 0.4573(2) 0.4631(2) 0.5044(2)
C15_27 C 0.4873(2) 0.44669(17) 0.49134(19)
S3_27 S 0.49940(7) 0.41429(6) 0.51567(6)
C16_27 C 0.39675(18) 0.57046(17) 0.46515(19)
C17_27 C 0.41982(17) 0.54160(17) 0.46729(17)
C18_27 C 0.44722(12) 0.53552(12) 0.44175(15)
H4_27 H 0.4527 0.5472 0.4225
C19_27 C 0.4631(2) 0.5044(2) 0.4573(2)
C20_27 C 0.44669(17) 0.49134(19) 0.4873(2)
S4_27 S 0.41429(6) 0.51567(6) 0.49940(7)
C11_28 C 0.78485(19) 0.35325(18) 0.07046(17)
C12_28 C 0.78271(17) 0.33018(17) 0.04160(17)
C13_28 C 0.80825(15) 0.30278(12) 0.03552(12)
H3_28 H 0.8275 0.2973 0.0472
C14_28 C 0.7927(2) 0.2869(2) 0.0044(2)
S3_28 S 0.75060(7) 0.33571(6) 0.01567(6)
C1_28 C 0.67954(17) 0.28485(19) 0.89675(18)
C2_28 C 0.70840(17) 0.28271(17) 0.91982(17)
C3_28 C 0.71448(12) 0.30825(15) 0.94722(12)
H1_28 H 0.7028 0.3275 0.9527
C4_28 C 0.7456(2) 0.2927(2) 0.9631(2)
C5_28 C 0.75866(19) 0.2627(2) 0.94669(17)
S1_28 S 0.73433(6) 0.25060(7) 0.91429(6)
C15_28 C 0.7627(2) 0.30331(17) 0.99134(19)
C16_28 C 0.85325(18) 0.17954(17) 0.96515(19)
C17_28 C 0.83018(17) 0.20840(17) 0.96729(17)
C18_28 C 0.80278(12) 0.21448(12) 0.94175(15)
H4_28 H 0.7973 0.2028 0.9225
C19_28 C 0.7869(2) 0.2456(2) 0.9573(2)
C20_28 C 0.80331(17) 0.25866(19) 0.9873(2)
S4_28 S 0.83571(6) 0.23433(6) 0.99940(7)
H2_25 H 0.3471 0.5170 0.0120
C26_25 C 0.2909(3) 0.3965(3) 0.0692(2)
C27_25 C 0.2861(2) 0.41982(19) 0.0415(2)
C28_25 C 0.25653(17) 0.41691(15) 0.01720(15)
H6_25 H 0.2380 0.4029 0.0170
C30_25 C 0.2946(2) 0.4651(2) 0.0020(2)
O11_25 O 0.31582(16) 0.40046(16) 0.08746(15)
O12_25 O 0.27019(18) 0.37353(16) 0.07226(17)
S6_25 S 0.31551(9) 0.45092(7) 0.03636(8)
O20_25 O 0.34960(16) 0.31209(16) 0.08837(16)
O23_25 O 0.34954(16) 0.31582(16) 0.16254(15)
C6_25 C 0.3535(3) 0.5692(2) 0.9591(3)
C7_25 C 0.33018(19) 0.5415(2) 0.9639(2)
C8_25 C 0.33309(15) 0.51720(15) 0.99347(17)
C9_25 C 0.3065(2) 0.4944(2) 0.9827(2)
C10_25 C 0.2849(2) 0.5020(2) 0.9554(2)
O3_25 O 0.34954(16) 0.58746(15) 0.93418(16)
O4_25 O 0.37647(16) 0.57226(17) 0.97981(18)
S2_25 S 0.29908(7) 0.53636(8) 0.93449(9)
C21_25 C 0.1808(2) 0.4591(3) 0.8965(3)
C22_25 C 0.2085(2) 0.4639(2) 0.91982(19)
C23_25 C 0.23280(15) 0.49347(17) 0.91691(15)
H5_25 H 0.2330 0.5120 0.9029
C24_25 C 0.2556(2) 0.4827(2) 0.9435(2)
C25_25 C 0.2480(2) 0.4554(2) 0.9651(2)
O9_25 O 0.16254(15) 0.43418(16) 0.90046(16)
O10_25 O 0.17774(17) 0.47981(18) 0.87353(16)
S5_25 S 0.21364(8) 0.43449(9) 0.95092(7)
C29_25 C 0.2673(2) 0.4435(2) 0.9944(2)
O21_25 O 0.43791(16) 0.58837(16) 0.90040(16)
O22_25 O 0.16163(16) 0.40040(16) 0.81209(16)
O24_25 O 0.43418(16) 0.66254(15) 0.90046(16)
O25_25 O 0.08746(15) 0.40046(16) 0.81582(16)
C6_26 C 0.8535(3) 0.6808(2) 0.7909(3)
C7_26 C 0.83018(19) 0.7085(2) 0.7861(2)
C8_26 C 0.83309(15) 0.73280(15) 0.75653(17)
H2_26 H 0.8471 0.7330 0.7380
C9_26 C 0.8065(2) 0.7556(2) 0.7673(2)
C10_26 C 0.7849(2) 0.7480(2) 0.7946(2)
O3_26 O 0.84954(16) 0.66254(15) 0.81582(16)
O4_26 O 0.87647(16) 0.67774(17) 0.77019(18)
S2_26 S 0.79908(7) 0.71364(8) 0.81551(9)
C21_26 C 0.6808(2) 0.7909(3) 0.8535(3)
C22_26 C 0.7085(2) 0.7861(2) 0.83018(19)
C23_26 C 0.73280(15) 0.75653(17) 0.83309(15)
H5_26 H 0.7330 0.7380 0.8471
C24_26 C 0.7556(2) 0.7673(2) 0.8065(2)
C25_26 C 0.7480(2) 0.7946(2) 0.7849(2)
O9_26 O 0.66254(15) 0.81582(16) 0.84954(16)
O10_26 O 0.67774(17) 0.77019(18) 0.87647(16)
S5_26 S 0.71364(8) 0.81551(9) 0.79908(7)
C26_26 C 0.7909(3) 0.8535(3) 0.6808(2)
C27_26 C 0.7861(2) 0.83018(19) 0.7085(2)
C28_26 C 0.75653(17) 0.83309(15) 0.73280(15)
H6_26 H 0.7380 0.8471 0.7330
C29_26 C 0.7673(2) 0.8065(2) 0.7556(2)
C30_26 C 0.7946(2) 0.7849(2) 0.7480(2)
O11_26 O 0.81582(16) 0.84954(16) 0.66254(15)
O12_26 O 0.77019(18) 0.87647(16) 0.67774(17)
S6_26 S 0.81551(9) 0.79908(7) 0.71364(8)
O20_26 O 0.84960(16) 0.93791(16) 0.66163(16)
O21_26 O 0.93791(16) 0.66163(16) 0.84960(16)
O22_26 O 0.66163(16) 0.84960(16) 0.93791(16)
O23_26 O 0.84954(16) 0.93418(16) 0.58746(15)
O24_26 O 0.93418(16) 0.58746(15) 0.84954(16)
O25_26 O 0.58746(15) 0.84954(16) 0.93418(16)
C21_27 C 0.0692(2) 0.2909(3) 0.3965(3)
C22_27 C 0.0415(2) 0.2861(2) 0.41982(19)
C23_27 C 0.01720(15) 0.25653(17) 0.41691(15)
H5_27 H 0.0170 0.2380 0.4029
C25_27 C 0.0020(2) 0.2946(2) 0.4651(2)
O9_27 O 0.08746(15) 0.31582(16) 0.40046(16)
O10_27 O 0.07226(17) 0.27019(18) 0.37353(16)
S5_27 S 0.03636(8) 0.31551(9) 0.45092(7)
H6_27 H 0.0120 0.3471 0.5170
O22_27 O 0.08837(16) 0.34960(16) 0.31209(16)
O25_27 O 0.16254(15) 0.34954(16) 0.31582(16)
C6_27 C 0.8965(3) 0.1808(2) 0.4591(3)
C7_27 C 0.91982(19) 0.2085(2) 0.4639(2)
C8_27 C 0.91691(15) 0.23280(15) 0.49347(17)
H2_27 H 0.9029 0.2330 0.5120
C9_27 C 0.9435(2) 0.2556(2) 0.4827(2)
C10_27 C 0.9651(2) 0.2480(2) 0.4554(2)
O3_27 O 0.90046(16) 0.16254(15) 0.43418(16)
O4_27 O 0.87353(16) 0.17774(17) 0.47981(18)
S2_27 S 0.95092(7) 0.21364(8) 0.43449(9)
C24_27 C 0.9944(2) 0.2673(2) 0.4435(2)
C26_27 C 0.9591(3) 0.3535(3) 0.5692(2)
C27_27 C 0.9639(2) 0.33018(19) 0.5415(2)
C28_27 C 0.99347(17) 0.33309(15) 0.51720(15)
C29_27 C 0.9827(2) 0.3065(2) 0.4944(2)
C30_27 C 0.9554(2) 0.2849(2) 0.5020(2)
O11_27 O 0.93418(16) 0.34954(16) 0.58746(15)
O12_27 O 0.97981(18) 0.37647(16) 0.57226(17)
S6_27 S 0.93449(9) 0.29908(7) 0.53636(8)
O20_27 O 0.90040(16) 0.43791(16) 0.58837(16)
O21_27 O 0.81209(16) 0.16163(16) 0.40040(16)
O23_27 O 0.90046(16) 0.43418(16) 0.66254(15)
O24_27 O 0.81582(16) 0.08746(15) 0.40046(16)
C6_28 C 0.3965(3) 0.0692(2) 0.2909(3)
C7_28 C 0.41982(19) 0.0415(2) 0.2861(2)
C8_28 C 0.41691(15) 0.01720(15) 0.25653(17)
H2_28 H 0.4029 0.0170 0.2380
C10_28 C 0.4651(2) 0.0020(2) 0.2946(2)
O3_28 O 0.40046(16) 0.08746(15) 0.31582(16)
O4_28 O 0.37353(16) 0.07226(17) 0.27019(18)
S2_28 S 0.45092(7) 0.03636(8) 0.31551(9)
H5_28 H 0.5170 0.0120 0.3471
O21_28 O 0.31209(16) 0.08837(16) 0.34960(16)
O24_28 O 0.31582(16) 0.16254(15) 0.34954(16)
C9_28 C 0.4435(2) 0.9944(2) 0.2673(2)
C21_28 C 0.5692(2) 0.9591(3) 0.3535(3)
C22_28 C 0.5415(2) 0.9639(2) 0.33018(19)
C23_28 C 0.51720(15) 0.99347(17) 0.33309(15)
C24_28 C 0.4944(2) 0.9827(2) 0.3065(2)
C25_28 C 0.5020(2) 0.9554(2) 0.2849(2)
O9_28 O 0.58746(15) 0.93418(16) 0.34954(16)
O10_28 O 0.57226(17) 0.97981(18) 0.37647(16)
S5_28 S 0.53636(8) 0.93449(9) 0.29908(7)
C26_28 C 0.4591(3) 0.8965(3) 0.1808(2)
C27_28 C 0.4639(2) 0.91982(19) 0.2085(2)
C28_28 C 0.49347(17) 0.91691(15) 0.23280(15)
H6_28 H 0.5120 0.9029 0.2330
C29_28 C 0.4827(2) 0.9435(2) 0.2556(2)
C30_28 C 0.4554(2) 0.9651(2) 0.2480(2)
O11_28 O 0.43418(16) 0.90046(16) 0.16254(15)
O12_28 O 0.47981(18) 0.87353(16) 0.17774(17)
S6_28 S 0.43449(9) 0.95092(7) 0.21364(8)
O20_28 O 0.40040(16) 0.81209(16) 0.16163(16)
O22_28 O 0.58837(16) 0.90040(16) 0.43791(16)
O23_28 O 0.40046(16) 0.81582(16) 0.08746(15)
O25_28 O 0.66254(15) 0.90046(16) 0.43418(16)
C16_29 C 0.10325(18) 0.03485(19) 0.92954(17)
C17_29 C 0.08018(17) 0.03271(17) 0.95840(17)
C18_29 C 0.05278(12) 0.05825(15) 0.96448(12)
H4_29 H 0.0473 0.0775 0.9528
C19_29 C 0.0369(2) 0.0427(2) 0.9956(2)
S4_29 S 0.08571(6) 0.00060(7) 0.98433(6)
C11_29 C 0.03485(19) 0.92954(17) 0.10325(18)
C12_29 C 0.03271(17) 0.95840(17) 0.08018(17)
C13_29 C 0.05825(15) 0.96448(12) 0.05278(12)
H3_29 H 0.0775 0.9528 0.0473
C14_29 C 0.0427(2) 0.9956(2) 0.0369(2)
S3_29 S 0.00060(7) 0.98433(6) 0.08571(6)
C1_29 C 0.92954(17) 0.10325(18) 0.03485(19)
C2_29 C 0.95840(17) 0.08018(17) 0.03271(17)
C3_29 C 0.96448(12) 0.05278(12) 0.05825(15)
H1_29 H 0.9528 0.0473 0.0775
C4_29 C 0.9956(2) 0.0369(2) 0.0427(2)
S1_29 S 0.98433(6) 0.08571(6) 0.00060(7)
C1_30 C 0.82046(17) 0.60325(18) 0.21515(19)
C2_30 C 0.79160(17) 0.58018(17) 0.21729(17)
C3_30 C 0.78552(12) 0.55278(12) 0.19175(15)
H1_30 H 0.7972 0.5473 0.1725
C4_30 C 0.7544(2) 0.5369(2) 0.2073(2)
C5_29 C 0.74134(19) 0.55331(17) 0.2373(2)
S1_30 S 0.76567(6) 0.58571(6) 0.24940(7)
C11_30 C 0.71515(19) 0.42954(17) 0.14675(18)
C12_30 C 0.71729(17) 0.45840(17) 0.16982(17)
C13_30 C 0.69175(15) 0.46448(12) 0.19722(12)
H3_30 H 0.6725 0.4528 0.2027
C14_30 C 0.7073(2) 0.4956(2) 0.2131(2)
C15_29 C 0.7373(2) 0.50866(19) 0.19669(17)
S3_30 S 0.74940(7) 0.48433(6) 0.16429(6)
C16_30 C 0.64675(18) 0.53485(19) 0.32046(17)
C17_30 C 0.66982(17) 0.53271(17) 0.29160(17)
C18_30 C 0.69722(12) 0.55825(15) 0.28552(12)
H4_30 H 0.7027 0.5775 0.2972
C19_30 C 0.7131(2) 0.5427(2) 0.2544(2)
C20_29 C 0.69669(17) 0.5127(2) 0.24134(19)
S4_30 S 0.66429(6) 0.50060(7) 0.26567(6)
C1_31 C 0.32046(17) 0.64675(18) 0.53485(19)
C2_31 C 0.29160(17) 0.66982(17) 0.53271(17)
C3_31 C 0.28552(12) 0.69722(12) 0.55825(15)
H1_31 H 0.2972 0.7027 0.5775
C4_31 C 0.2544(2) 0.7131(2) 0.5427(2)
C5_30 C 0.24134(19) 0.69669(17) 0.5127(2)
S1_31 S 0.26567(6) 0.66429(6) 0.50060(7)
C11_31 C 0.21515(19) 0.82046(17) 0.60325(18)
C12_31 C 0.21729(17) 0.79160(17) 0.58018(17)
C13_31 C 0.19175(15) 0.78552(12) 0.55278(12)
H3_31 H 0.1725 0.7972 0.5473
C14_31 C 0.2073(2) 0.7544(2) 0.5369(2)
C15_30 C 0.2373(2) 0.74134(19) 0.55331(17)
S3_31 S 0.24940(7) 0.76567(6) 0.58571(6)
C16_31 C 0.14675(18) 0.71515(19) 0.42954(17)
C17_31 C 0.16982(17) 0.71729(17) 0.45840(17)
C18_31 C 0.19722(12) 0.69175(15) 0.46448(12)
H4_31 H 0.2027 0.6725 0.4528
C19_31 C 0.2131(2) 0.7073(2) 0.4956(2)
C20_30 C 0.19669(17) 0.7373(2) 0.50866(19)
S4_31 S 0.16429(6) 0.74940(7) 0.48433(6)
C1_32 C 0.42954(17) 0.14675(18) 0.71515(19)
C2_32 C 0.45840(17) 0.16982(17) 0.71729(17)
C3_32 C 0.46448(12) 0.19722(12) 0.69175(15)
H1_32 H 0.4528 0.2027 0.6725
C4_32 C 0.4956(2) 0.2131(2) 0.7073(2)
C5_31 C 0.50866(19) 0.19669(17) 0.7373(2)
S1_32 S 0.48433(6) 0.16429(6) 0.74940(7)
C11_32 C 0.53485(19) 0.32046(17) 0.64675(18)
C12_32 C 0.53271(17) 0.29160(17) 0.66982(17)
C13_32 C 0.55825(15) 0.28552(12) 0.69722(12)
H3_32 H 0.5775 0.2972 0.7027
C14_32 C 0.5427(2) 0.2544(2) 0.7131(2)
C15_31 C 0.5127(2) 0.24134(19) 0.69669(17)
S3_32 S 0.50060(7) 0.26567(6) 0.66429(6)
C16_32 C 0.60325(18) 0.21515(19) 0.82046(17)
C17_32 C 0.58018(17) 0.21729(17) 0.79160(17)
C18_32 C 0.55278(12) 0.19175(15) 0.78552(12)
H4_32 H 0.5473 0.1725 0.7972
C19_32 C 0.5369(2) 0.2073(2) 0.7544(2)
C20_31 C 0.55331(17) 0.2373(2) 0.74134(19)
S4_32 S 0.58571(6) 0.24940(7) 0.76567(6)
C6_29 C 0.1035(3) 0.2091(3) 0.4308(2)
C7_29 C 0.08018(19) 0.2139(2) 0.4585(2)
C8_29 C 0.08309(15) 0.24347(17) 0.48280(15)
H2_29 H 0.0971 0.2620 0.4830
C9_29 C 0.0565(2) 0.2327(2) 0.5056(2)
C10_29 C 0.0349(2) 0.2054(2) 0.4980(2)
O3_29 O 0.09954(16) 0.18418(16) 0.41254(15)
O4_29 O 0.12647(16) 0.22981(18) 0.42774(17)
S2_29 S 0.04908(7) 0.18449(9) 0.46364(8)
C24_29 C 0.0056(2) 0.1935(2) 0.5173(2)
C26_29 C 0.0409(3) 0.3192(2) 0.6035(3)
C27_29 C 0.0361(2) 0.2915(2) 0.58018(19)
C28_29 C 0.00653(17) 0.26720(15) 0.58309(15)
C29_29 C 0.0173(2) 0.2444(2) 0.5565(2)
C30_29 C 0.0446(2) 0.2520(2) 0.5349(2)
O11_29 O 0.06582(16) 0.33746(15) 0.59954(16)
O12_29 O 0.02019(18) 0.32226(17) 0.62647(16)
S6_29 S 0.06551(9) 0.28636(8) 0.54908(7)
O20_29 O 0.09960(16) 0.33837(16) 0.68791(16)
O21_29 O 0.18791(16) 0.15040(16) 0.41163(16)
O23_29 O 0.09954(16) 0.41254(15) 0.68418(16)
O24_29 O 0.18418(16) 0.15046(16) 0.33746(15)
C21_29 C 0.9308(2) 0.1465(3) 0.5409(3)
C22_29 C 0.9585(2) 0.16982(19) 0.5361(2)
C23_29 C 0.98280(15) 0.16691(15) 0.50653(17)
H5_29 H 0.9830 0.1529 0.4880
C25_29 C 0.9980(2) 0.2151(2) 0.5446(2)
O9_29 O 0.91254(15) 0.15046(16) 0.56582(16)
O10_29 O 0.92774(17) 0.12353(16) 0.52019(18)
S5_29 S 0.96364(8) 0.20092(7) 0.56551(9)
H6_29 H 0.9880 0.2670 0.5971
O22_29 O 0.91163(16) 0.06209(16) 0.59960(16)
O25_29 O 0.83746(15) 0.06582(16) 0.59954(16)
C6_30 C 0.6035(3) 0.0409(3) 0.3192(2)
C7_30 C 0.58018(19) 0.0361(2) 0.2915(2)
C8_30 C 0.58309(15) 0.00653(17) 0.26720(15)
C9_30 C 0.5565(2) 0.0173(2) 0.2444(2)
C10_30 C 0.5349(2) 0.0446(2) 0.2520(2)
O3_30 O 0.59954(16) 0.06582(16) 0.33746(15)
O4_30 O 0.62647(16) 0.02019(18) 0.32226(17)
S2_30 S 0.54908(7) 0.06551(9) 0.28636(8)
C21_30 C 0.4308(2) 0.1035(3) 0.2091(3)
C22_30 C 0.4585(2) 0.08018(19) 0.2139(2)
C23_30 C 0.48280(15) 0.08309(15) 0.24347(17)
H5_30 H 0.4830 0.0971 0.2620
C24_30 C 0.5056(2) 0.0565(2) 0.2327(2)
C25_30 C 0.4980(2) 0.0349(2) 0.2054(2)
O9_30 O 0.41254(15) 0.09954(16) 0.18418(16)
O10_30 O 0.42774(17) 0.12647(16) 0.22981(18)
S5_30 S 0.46364(8) 0.04908(7) 0.18449(9)
C29_30 C 0.5173(2) 0.0056(2) 0.1935(2)
O21_30 O 0.68791(16) 0.09960(16) 0.33837(16)
O22_30 O 0.41163(16) 0.18791(16) 0.15040(16)
O24_30 O 0.68418(16) 0.09954(16) 0.41254(15)
O25_30 O 0.33746(15) 0.18418(16) 0.15046(16)
H2_30 H 0.5971 0.9880 0.2670
C26_30 C 0.5409(3) 0.9308(2) 0.1465(3)
C27_30 C 0.5361(2) 0.9585(2) 0.16982(19)
C28_30 C 0.50653(17) 0.98280(15) 0.16691(15)
H6_30 H 0.4880 0.9830 0.1529
C30_30 C 0.5446(2) 0.9980(2) 0.2151(2)
O11_30 O 0.56582(16) 0.91254(15) 0.15046(16)
O12_30 O 0.52019(18) 0.92774(17) 0.12353(16)
S6_30 S 0.56551(9) 0.96364(8) 0.20092(7)
O20_30 O 0.59960(16) 0.91163(16) 0.06209(16)
O23_30 O 0.59954(16) 0.83746(15) 0.06582(16)
C6_31 C 0.6465(3) 0.7091(3) 0.8192(2)
C7_31 C 0.66982(19) 0.7139(2) 0.7915(2)
C8_31 C 0.66691(15) 0.74347(17) 0.76720(15)
H2_31 H 0.6529 0.7620 0.7670
C9_31 C 0.6935(2) 0.7327(2) 0.7444(2)
C10_31 C 0.7151(2) 0.7054(2) 0.7520(2)
O3_31 O 0.65046(16) 0.68418(16) 0.83746(15)
O4_31 O 0.62353(16) 0.72981(18) 0.82226(17)
S2_31 S 0.70092(7) 0.68449(9) 0.78636(8)
C21_31 C 0.8192(2) 0.6465(3) 0.7091(3)
C22_31 C 0.7915(2) 0.66982(19) 0.7139(2)
C23_31 C 0.76720(15) 0.66691(15) 0.74347(17)
H5_31 H 0.7670 0.6529 0.7620
C24_31 C 0.7444(2) 0.6935(2) 0.7327(2)
C25_31 C 0.7520(2) 0.7151(2) 0.7054(2)
O9_31 O 0.83746(15) 0.65046(16) 0.68418(16)
O10_31 O 0.82226(17) 0.62353(16) 0.72981(18)
S5_31 S 0.78636(8) 0.70092(7) 0.68449(9)
C26_31 C 0.7091(3) 0.8192(2) 0.6465(3)
C27_31 C 0.7139(2) 0.7915(2) 0.66982(19)
C28_31 C 0.74347(17) 0.76720(15) 0.66691(15)
H6_31 H 0.7620 0.7670 0.6529
C29_31 C 0.7327(2) 0.7444(2) 0.6935(2)
C30_31 C 0.7054(2) 0.7520(2) 0.7151(2)
O11_31 O 0.68418(16) 0.83746(15) 0.65046(16)
O12_31 O 0.72981(18) 0.82226(17) 0.62353(16)
S6_31 S 0.68449(9) 0.78636(8) 0.70092(7)
O20_31 O 0.65040(16) 0.83837(16) 0.56209(16)
O21_31 O 0.56209(16) 0.65040(16) 0.83837(16)
O22_31 O 0.83837(16) 0.56209(16) 0.65040(16)
O23_31 O 0.65046(16) 0.91254(15) 0.56582(16)
O24_31 O 0.56582(16) 0.65046(16) 0.91254(15)
O25_31 O 0.91254(15) 0.56582(16) 0.65046(16)
C9_32 C 0.1935(2) 0.5173(2) 0.0056(2)
C21_32 C 0.3192(2) 0.6035(3) 0.0409(3)
C22_32 C 0.2915(2) 0.58018(19) 0.0361(2)
C23_32 C 0.26720(15) 0.58309(15) 0.00653(17)
C24_32 C 0.2444(2) 0.5565(2) 0.0173(2)
C25_32 C 0.2520(2) 0.5349(2) 0.0446(2)
O9_32 O 0.33746(15) 0.59954(16) 0.06582(16)
O10_32 O 0.32226(17) 0.62647(16) 0.02019(18)
S5_32 S 0.28636(8) 0.54908(7) 0.06551(9)
C26_32 C 0.2091(3) 0.4308(2) 0.1035(3)
C27_32 C 0.2139(2) 0.4585(2) 0.08018(19)
C28_32 C 0.24347(17) 0.48280(15) 0.08309(15)
H6_32 H 0.2620 0.4830 0.0971
C29_32 C 0.2327(2) 0.5056(2) 0.0565(2)
C30_32 C 0.2054(2) 0.4980(2) 0.0349(2)
O11_32 O 0.18418(16) 0.41254(15) 0.09954(16)
O12_32 O 0.22981(18) 0.42774(17) 0.12647(16)
S6_32 S 0.18449(9) 0.46364(8) 0.04908(7)
O20_32 O 0.15040(16) 0.41163(16) 0.18791(16)
O22_32 O 0.33837(16) 0.68791(16) 0.09960(16)
O23_32 O 0.15046(16) 0.33746(15) 0.18418(16)
O25_32 O 0.41254(15) 0.68418(16) 0.09954(16)
C6_32 C 0.1465(3) 0.5409(3) 0.9308(2)
C7_32 C 0.16982(19) 0.5361(2) 0.9585(2)
C8_32 C 0.16691(15) 0.50653(17) 0.98280(15)
H2_32 H 0.1529 0.4880 0.9830
C10_32 C 0.2151(2) 0.5446(2) 0.9980(2)
O3_32 O 0.15046(16) 0.56582(16) 0.91254(15)
O4_32 O 0.12353(16) 0.52019(18) 0.92774(17)
S2_32 S 0.20092(7) 0.56551(9) 0.96364(8)
H5_32 H 0.2670 0.5971 0.9880
O21_32 O 0.06209(16) 0.59960(16) 0.91163(16)
O24_32 O 0.06582(16) 0.59954(16) 0.83746(15)
C9_33 C 0.0056(2) 0.5173(2) 0.6935(2)
C21_33 C 0.0409(3) 0.6035(3) 0.8192(2)
C22_33 C 0.0361(2) 0.58018(19) 0.7915(2)
C23_33 C 0.00653(17) 0.58309(15) 0.76720(15)
C24_33 C 0.0173(2) 0.5565(2) 0.7444(2)
C25_33 C 0.0446(2) 0.5349(2) 0.7520(2)
O10_33 O 0.02019(18) 0.62647(16) 0.82226(17)
S5_33 S 0.06551(9) 0.54908(7) 0.78636(8)
C26_33 C 0.1035(3) 0.4308(2) 0.7091(3)
C27_33 C 0.08018(19) 0.4585(2) 0.7139(2)
C28_33 C 0.08309(15) 0.48280(15) 0.74347(17)
H6_33 H 0.0971 0.4830 0.7620
C29_33 C 0.0565(2) 0.5056(2) 0.7327(2)
C30_33 C 0.0349(2) 0.4980(2) 0.7054(2)
O12_33 O 0.12647(16) 0.42774(17) 0.72981(18)
S6_33 S 0.04908(7) 0.46364(8) 0.68449(9)
O14_9 O 0.01442(16) 0.62400(14) 0.92382(15)
O15_13 O 0.17382(15) 0.37600(14) 0.76442(16)
O16_13 O 0.12400(14) 0.32618(15) 0.73558(16)
C1_33 C 0.82046(17) 0.53485(19) 0.64675(18)
C2_33 C 0.79160(17) 0.53271(17) 0.66982(17)
C3_33 C 0.78552(12) 0.55825(15) 0.69722(12)
H1_33 H 0.7972 0.5775 0.7027
C4_33 C 0.7544(2) 0.5427(2) 0.7131(2)
C5_32 C 0.74134(19) 0.5127(2) 0.69669(17)
C6_33 C 0.9308(2) 0.5409(3) 0.6465(3)
C7_33 C 0.9585(2) 0.5361(2) 0.66982(19)
C8_33 C 0.98280(15) 0.50653(17) 0.66691(15)
H2_33 H 0.9830 0.4880 0.6529
C10_33 C 0.9980(2) 0.5446(2) 0.7151(2)
O1_13 O 0.82618(15) 0.51442(16) 0.62600(14)
O4_33 O 0.92774(17) 0.52019(18) 0.62353(16)
S1_33 S 0.76567(6) 0.50060(7) 0.66429(6)
S2_33 S 0.96364(8) 0.56551(9) 0.70092(7)
C11_33 C 0.71515(19) 0.60325(18) 0.82046(17)
C12_33 C 0.71729(17) 0.58018(17) 0.79160(17)
C13_33 C 0.69175(15) 0.55278(12) 0.78552(12)
H3_33 H 0.6725 0.5473 0.7972
C14_33 C 0.7073(2) 0.5369(2) 0.7544(2)
C15_32 C 0.7373(2) 0.55331(17) 0.74134(19)
O5_25 O 0.73558(16) 0.62400(14) 0.82618(15)
S3_33 S 0.74940(7) 0.58571(6) 0.76567(6)
C16_33 C 0.64675(18) 0.42954(17) 0.71515(19)
C17_33 C 0.66982(17) 0.45840(17) 0.71729(17)
C18_33 C 0.69722(12) 0.46448(12) 0.69175(15)
H4_33 H 0.7027 0.4528 0.6725
C19_33 C 0.7131(2) 0.4956(2) 0.7073(2)
C20_32 C 0.69669(17) 0.50866(19) 0.7373(2)
O7_5 O 0.62600(14) 0.42382(15) 0.73558(16)
S4_33 S 0.66429(6) 0.48433(6) 0.74940(7)
H5_33 H 0.9880 0.5971 0.7670
O13_13 O 0.98558(16) 0.67382(15) 0.87400(14)
O17_13 O 0.87600(14) 0.48558(16) 0.57618(15)
C5_33 C 0.00866(19) 0.7373(2) 0.19669(17)
C11_34 C 0.03485(19) 0.64675(18) 0.32046(17)
C12_34 C 0.03271(17) 0.66982(17) 0.29160(17)
C13_34 C 0.05825(15) 0.69722(12) 0.28552(12)
H3_34 H 0.0775 0.7027 0.2972
C14_34 C 0.0427(2) 0.7131(2) 0.2544(2)
C15_33 C 0.0127(2) 0.69669(17) 0.24134(19)
O5_26 O 0.01442(16) 0.62600(14) 0.32618(15)
S3_34 S 0.00060(7) 0.66429(6) 0.26567(6)
C16_34 C 0.10325(18) 0.82046(17) 0.21515(19)
C17_34 C 0.08018(17) 0.79160(17) 0.21729(17)
C18_34 C 0.05278(12) 0.78552(12) 0.19175(15)
H4_34 H 0.0473 0.7972 0.1725
C19_34 C 0.0369(2) 0.7544(2) 0.2073(2)
C20_33 C 0.05331(17) 0.74134(19) 0.2373(2)
O7_6 O 0.12400(14) 0.82618(15) 0.23558(16)
S4_34 S 0.08571(6) 0.76567(6) 0.24940(7)
C1_34 C 0.92954(17) 0.71515(19) 0.14675(18)
C2_34 C 0.95840(17) 0.71729(17) 0.16982(17)
C3_34 C 0.96448(12) 0.69175(15) 0.19722(12)
H1_34 H 0.9528 0.6725 0.2027
C4_34 C 0.9956(2) 0.7073(2) 0.2131(2)
C6_34 C 0.8192(2) 0.7091(3) 0.1465(3)
C7_34 C 0.7915(2) 0.7139(2) 0.16982(19)
C8_34 C 0.76720(15) 0.74347(17) 0.16691(15)
H2_34 H 0.7670 0.7620 0.1529
C9_34 C 0.7444(2) 0.7327(2) 0.1935(2)
C10_34 C 0.7520(2) 0.7054(2) 0.2151(2)
O1_14 O 0.92382(15) 0.73558(16) 0.12600(14)
O4_34 O 0.82226(17) 0.72981(18) 0.12353(16)
S1_34 S 0.98433(6) 0.74940(7) 0.16429(6)
S2_34 S 0.78636(8) 0.68449(9) 0.20092(7)
C21_34 C 0.7091(3) 0.6465(3) 0.3192(2)
C22_34 C 0.7139(2) 0.66982(19) 0.2915(2)
C23_34 C 0.74347(17) 0.66691(15) 0.26720(15)
H5_34 H 0.7620 0.6529 0.2670
C24_34 C 0.7327(2) 0.6935(2) 0.2444(2)
C25_34 C 0.7054(2) 0.7151(2) 0.2520(2)
O10_34 O 0.72981(18) 0.62353(16) 0.32226(17)
S5_34 S 0.68449(9) 0.70092(7) 0.28636(8)
C26_34 C 0.6465(3) 0.8192(2) 0.2091(3)
C27_34 C 0.66982(19) 0.7915(2) 0.2139(2)
C28_34 C 0.66691(15) 0.76720(15) 0.24347(17)
H6_34 H 0.6529 0.7670 0.2620
C29_34 C 0.6935(2) 0.7444(2) 0.2327(2)
C30_34 C 0.7151(2) 0.7520(2) 0.2054(2)
O12_34 O 0.62353(16) 0.82226(17) 0.22981(18)
S6_34 S 0.70092(7) 0.78636(8) 0.18449(9)
O13_14 O 0.76442(16) 0.57618(15) 0.37400(14)
O14_10 O 0.73558(16) 0.62600(14) 0.42382(15)
O15_14 O 0.57618(15) 0.87400(14) 0.26442(16)
O16_14 O 0.62600(14) 0.92382(15) 0.23558(16)
O17_14 O 0.87400(14) 0.76442(16) 0.07618(15)
C1_35 C 0.42954(17) 0.03485(19) 0.10325(18)
C2_35 C 0.45840(17) 0.03271(17) 0.08018(17)
C3_35 C 0.46448(12) 0.05825(15) 0.05278(12)
H1_35 H 0.4528 0.0775 0.0473
C4_35 C 0.4956(2) 0.0427(2) 0.0369(2)
C5_34 C 0.50866(19) 0.0127(2) 0.05331(17)
C6_35 C 0.3192(2) 0.0409(3) 0.1035(3)
C7_35 C 0.2915(2) 0.0361(2) 0.08018(19)
C8_35 C 0.26720(15) 0.00653(17) 0.08309(15)
C9_35 C 0.2444(2) 0.0173(2) 0.0565(2)
C10_35 C 0.2520(2) 0.0446(2) 0.0349(2)
O1_15 O 0.42382(15) 0.01442(16) 0.12400(14)
O4_35 O 0.32226(17) 0.02019(18) 0.12647(16)
S1_35 S 0.48433(6) 0.00060(7) 0.08571(6)
S2_35 S 0.28636(8) 0.06551(9) 0.04908(7)
C15_34 C 0.5127(2) 0.05331(17) 0.00866(19)
C20_34 C 0.55331(17) 0.00866(19) 0.0127(2)
C24_35 C 0.2327(2) 0.0565(2) 0.0056(2)
C29_35 C 0.1935(2) 0.0056(2) 0.0173(2)
C11_35 C 0.53485(19) 0.10325(18) 0.92954(17)
C12_35 C 0.53271(17) 0.08018(17) 0.95840(17)
C13_35 C 0.55825(15) 0.05278(12) 0.96448(12)
H3_35 H 0.5775 0.0473 0.9528
C14_35 C 0.5427(2) 0.0369(2) 0.9956(2)
O5_27 O 0.51442(16) 0.12400(14) 0.92382(15)
S3_35 S 0.50060(7) 0.08571(6) 0.98433(6)
C21_35 C 0.2091(3) 0.1035(3) 0.9308(2)
C22_35 C 0.2139(2) 0.08018(19) 0.9585(2)
C23_35 C 0.24347(17) 0.08309(15) 0.98280(15)
H5_35 H 0.2620 0.0971 0.9830
C25_35 C 0.2054(2) 0.0349(2) 0.9980(2)
O10_35 O 0.22981(18) 0.12647(16) 0.92774(17)
S5_35 S 0.18449(9) 0.04908(7) 0.96364(8)
O13_15 O 0.26442(16) 0.17382(15) 0.87600(14)
O14_11 O 0.23558(16) 0.12400(14) 0.82618(15)
H2_35 H 0.2670 0.9880 0.0971
C16_35 C 0.60325(18) 0.92954(17) 0.03485(19)
C17_35 C 0.58018(17) 0.95840(17) 0.03271(17)
C18_35 C 0.55278(12) 0.96448(12) 0.05825(15)
H4_35 H 0.5473 0.9528 0.0775
C19_35 C 0.5369(2) 0.9956(2) 0.0427(2)
O7_7 O 0.62400(14) 0.92382(15) 0.01442(16)
S4_35 S 0.58571(6) 0.98433(6) 0.00060(7)
C26_35 C 0.1465(3) 0.9308(2) 0.0409(3)
C27_35 C 0.16982(19) 0.9585(2) 0.0361(2)
C28_35 C 0.16691(15) 0.98280(15) 0.00653(17)
C30_35 C 0.2151(2) 0.9980(2) 0.0446(2)
O12_35 O 0.12353(16) 0.92774(17) 0.02019(18)
S6_35 S 0.20092(7) 0.96364(8) 0.06551(9)
O16_15 O 0.12600(14) 0.82618(15) 0.01442(16)
O17_15 O 0.37400(14) 0.98558(16) 0.17382(15)
H6_35 H 0.1529 0.9830 0.9880
O15_15 O 0.07618(15) 0.87600(14) 0.98558(16)
C1_36 C 0.32046(17) 0.21515(19) 0.60325(18)
C2_36 C 0.29160(17) 0.21729(17) 0.58018(17)
C3_36 C 0.28552(12) 0.19175(15) 0.55278(12)
H1_36 H 0.2972 0.1725 0.5473
C4_36 C 0.2544(2) 0.2073(2) 0.5369(2)
C5_35 C 0.24134(19) 0.2373(2) 0.55331(17)
C6_36 C 0.4308(2) 0.2091(3) 0.6035(3)
C7_36 C 0.4585(2) 0.2139(2) 0.58018(19)
C8_36 C 0.48280(15) 0.24347(17) 0.58309(15)
H2_36 H 0.4830 0.2620 0.5971
C9_36 C 0.5056(2) 0.2327(2) 0.5565(2)
C10_36 C 0.4980(2) 0.2054(2) 0.5349(2)
O1_16 O 0.32618(15) 0.23558(16) 0.62400(14)
O4_36 O 0.42774(17) 0.22981(18) 0.62647(16)
S1_36 S 0.26567(6) 0.24940(7) 0.58571(6)
S2_36 S 0.46364(8) 0.18449(9) 0.54908(7)
C11_36 C 0.21515(19) 0.14675(18) 0.42954(17)
C12_36 C 0.21729(17) 0.16982(17) 0.45840(17)
C13_36 C 0.19175(15) 0.19722(12) 0.46448(12)
H3_36 H 0.1725 0.2027 0.4528
C14_36 C 0.2073(2) 0.2131(2) 0.4956(2)
C15_35 C 0.2373(2) 0.19669(17) 0.50866(19)
O5_28 O 0.23558(16) 0.12600(14) 0.42382(15)
S3_36 S 0.24940(7) 0.16429(6) 0.48433(6)
C16_36 C 0.14675(18) 0.32046(17) 0.53485(19)
C17_36 C 0.16982(17) 0.29160(17) 0.53271(17)
C18_36 C 0.19722(12) 0.28552(12) 0.55825(15)
H4_36 H 0.2027 0.2972 0.5775
C19_36 C 0.2131(2) 0.2544(2) 0.5427(2)
C20_35 C 0.19669(17) 0.24134(19) 0.5127(2)
O7_8 O 0.12600(14) 0.32618(15) 0.51442(16)
S4_36 S 0.16429(6) 0.26567(6) 0.50060(7)
C21_36 C 0.5409(3) 0.1465(3) 0.4308(2)
C22_36 C 0.5361(2) 0.16982(19) 0.4585(2)
C23_36 C 0.50653(17) 0.16691(15) 0.48280(15)
H5_36 H 0.4880 0.1529 0.4830
C24_36 C 0.5173(2) 0.1935(2) 0.5056(2)
C25_36 C 0.5446(2) 0.2151(2) 0.4980(2)
O10_36 O 0.52019(18) 0.12353(16) 0.42774(17)
S5_36 S 0.56551(9) 0.20092(7) 0.46364(8)
C26_36 C 0.6035(3) 0.3192(2) 0.5409(3)
C27_36 C 0.58018(19) 0.2915(2) 0.5361(2)
C28_36 C 0.58309(15) 0.26720(15) 0.50653(17)
H6_36 H 0.5971 0.2670 0.4880
C29_36 C 0.5565(2) 0.2444(2) 0.5173(2)
C30_36 C 0.5349(2) 0.2520(2) 0.5446(2)
O12_36 O 0.62647(16) 0.32226(17) 0.52019(18)
S6_36 S 0.54908(7) 0.28636(8) 0.56551(9)
O13_16 O 0.48558(16) 0.07618(15) 0.37600(14)
O14_12 O 0.51442(16) 0.12600(14) 0.32618(15)
O15_16 O 0.67382(15) 0.37400(14) 0.48558(16)
O16_16 O 0.62400(14) 0.42382(15) 0.51442(16)
O17_16 O 0.37600(14) 0.26442(16) 0.67382(15)
C9_37 C 0.6935(2) 0.0056(2) 0.5173(2)
C21_37 C 0.8192(2) 0.0409(3) 0.6035(3)
C22_37 C 0.7915(2) 0.0361(2) 0.58018(19)
C23_37 C 0.76720(15) 0.00653(17) 0.58309(15)
C24_37 C 0.7444(2) 0.0173(2) 0.5565(2)
C25_37 C 0.7520(2) 0.0446(2) 0.5349(2)
O10_37 O 0.82226(17) 0.02019(18) 0.62647(16)
S5_37 S 0.78636(8) 0.06551(9) 0.54908(7)
C26_37 C 0.7091(3) 0.1035(3) 0.4308(2)
C27_37 C 0.7139(2) 0.08018(19) 0.4585(2)
C28_37 C 0.74347(17) 0.08309(15) 0.48280(15)
H6_37 H 0.7620 0.0971 0.4830
C29_37 C 0.7327(2) 0.0565(2) 0.5056(2)
C30_37 C 0.7054(2) 0.0349(2) 0.4980(2)
O12_37 O 0.72981(18) 0.12647(16) 0.42774(17)
S6_37 S 0.68449(9) 0.04908(7) 0.46364(8)
O14_13 O 0.92382(15) 0.01442(16) 0.62400(14)
O15_17 O 0.76442(16) 0.17382(15) 0.37600(14)
O16_17 O 0.73558(16) 0.12400(14) 0.32618(15)
C1_37 C 0.64675(18) 0.82046(17) 0.53485(19)
C2_37 C 0.66982(17) 0.79160(17) 0.53271(17)
C3_37 C 0.69722(12) 0.78552(12) 0.55825(15)
H1_37 H 0.7027 0.7972 0.5775
C4_37 C 0.7131(2) 0.7544(2) 0.5427(2)
C5_36 C 0.69669(17) 0.74134(19) 0.5127(2)
C6_37 C 0.6465(3) 0.9308(2) 0.5409(3)
C7_37 C 0.66982(19) 0.9585(2) 0.5361(2)
C8_37 C 0.66691(15) 0.98280(15) 0.50653(17)
H2_37 H 0.6529 0.9830 0.4880
C10_37 C 0.7151(2) 0.9980(2) 0.5446(2)
O1_17 O 0.62600(14) 0.82618(15) 0.51442(16)
O4_37 O 0.62353(16) 0.92774(17) 0.52019(18)
S1_37 S 0.66429(6) 0.76567(6) 0.50060(7)
S2_37 S 0.70092(7) 0.96364(8) 0.56551(9)
C11_37 C 0.82046(17) 0.71515(19) 0.60325(18)
C12_37 C 0.79160(17) 0.71729(17) 0.58018(17)
C13_37 C 0.78552(12) 0.69175(15) 0.55278(12)
H3_37 H 0.7972 0.6725 0.5473
C14_37 C 0.7544(2) 0.7073(2) 0.5369(2)
C15_36 C 0.74134(19) 0.7373(2) 0.55331(17)
O5_29 O 0.82618(15) 0.73558(16) 0.62400(14)
S3_37 S 0.76567(6) 0.74940(7) 0.58571(6)
C16_37 C 0.71515(19) 0.64675(18) 0.42954(17)
C17_37 C 0.71729(17) 0.66982(17) 0.45840(17)
C18_37 C 0.69175(15) 0.69722(12) 0.46448(12)
H4_37 H 0.6725 0.7027 0.4528
C19_37 C 0.7073(2) 0.7131(2) 0.4956(2)
C20_36 C 0.7373(2) 0.69669(17) 0.50866(19)
S4_37 S 0.74940(7) 0.66429(6) 0.48433(6)
H5_37 H 0.7670 0.9880 0.5971
O13_17 O 0.87400(14) 0.98558(16) 0.67382(15)
O17_17 O 0.57618(15) 0.87600(14) 0.48558(16)
C5_37 C 0.19669(17) 0.00866(19) 0.7373(2)
C11_38 C 0.32046(17) 0.03485(19) 0.64675(18)
C12_38 C 0.29160(17) 0.03271(17) 0.66982(17)
C13_38 C 0.28552(12) 0.05825(15) 0.69722(12)
H3_38 H 0.2972 0.0775 0.7027
C14_38 C 0.2544(2) 0.0427(2) 0.7131(2)
C15_37 C 0.24134(19) 0.0127(2) 0.69669(17)
O5_30 O 0.32618(15) 0.01442(16) 0.62600(14)
S3_38 S 0.26567(6) 0.00060(7) 0.66429(6)
C16_38 C 0.21515(19) 0.10325(18) 0.82046(17)
C17_38 C 0.21729(17) 0.08018(17) 0.79160(17)
C18_38 C 0.19175(15) 0.05278(12) 0.78552(12)
H4_38 H 0.1725 0.0473 0.7972
C19_38 C 0.2073(2) 0.0369(2) 0.7544(2)
C20_37 C 0.2373(2) 0.05331(17) 0.74134(19)
S4_38 S 0.24940(7) 0.08571(6) 0.76567(6)
C1_38 C 0.14675(18) 0.92954(17) 0.71515(19)
C2_38 C 0.16982(17) 0.95840(17) 0.71729(17)
C3_38 C 0.19722(12) 0.96448(12) 0.69175(15)
H1_38 H 0.2027 0.9528 0.6725
C4_38 C 0.2131(2) 0.9956(2) 0.7073(2)
C6_38 C 0.1465(3) 0.8192(2) 0.7091(3)
C7_38 C 0.16982(19) 0.7915(2) 0.7139(2)
C8_38 C 0.16691(15) 0.76720(15) 0.74347(17)
H2_38 H 0.1529 0.7670 0.7620
C9_38 C 0.1935(2) 0.7444(2) 0.7327(2)
C10_38 C 0.2151(2) 0.7520(2) 0.7054(2)
O1_18 O 0.12600(14) 0.92382(15) 0.73558(16)
O4_38 O 0.12353(16) 0.82226(17) 0.72981(18)
S1_38 S 0.16429(6) 0.98433(6) 0.74940(7)
S2_38 S 0.20092(7) 0.78636(8) 0.68449(9)
C21_38 C 0.3192(2) 0.7091(3) 0.6465(3)
C22_38 C 0.2915(2) 0.7139(2) 0.66982(19)
C23_38 C 0.26720(15) 0.74347(17) 0.66691(15)
H5_38 H 0.2670 0.7620 0.6529
C24_38 C 0.2444(2) 0.7327(2) 0.6935(2)
C25_38 C 0.2520(2) 0.7054(2) 0.7151(2)
O10_38 O 0.32226(17) 0.72981(18) 0.62353(16)
S5_38 S 0.28636(8) 0.68449(9) 0.70092(7)
C26_38 C 0.2091(3) 0.6465(3) 0.8192(2)
C27_38 C 0.2139(2) 0.66982(19) 0.7915(2)
C28_38 C 0.24347(17) 0.66691(15) 0.76720(15)
H6_38 H 0.2620 0.6529 0.7670
C29_38 C 0.2327(2) 0.6935(2) 0.7444(2)
C30_38 C 0.2054(2) 0.7151(2) 0.7520(2)
O12_38 O 0.22981(18) 0.62353(16) 0.82226(17)
S6_38 S 0.18449(9) 0.70092(7) 0.78636(8)
O13_18 O 0.37400(14) 0.76442(16) 0.57618(15)
O14_14 O 0.42382(15) 0.73558(16) 0.62600(14)
O15_18 O 0.26442(16) 0.57618(15) 0.87400(14)
O16_18 O 0.23558(16) 0.62600(14) 0.92382(15)
O17_18 O 0.07618(15) 0.87400(14) 0.76442(16)
C1_39 C 0.10325(18) 0.42954(17) 0.03485(19)
C2_39 C 0.08018(17) 0.45840(17) 0.03271(17)
C3_39 C 0.05278(12) 0.46448(12) 0.05825(15)
H1_39 H 0.0473 0.4528 0.0775
C4_39 C 0.0369(2) 0.4956(2) 0.0427(2)
C5_38 C 0.05331(17) 0.50866(19) 0.0127(2)
C6_39 C 0.1035(3) 0.3192(2) 0.0409(3)
C7_39 C 0.08018(19) 0.2915(2) 0.0361(2)
C8_39 C 0.08309(15) 0.26720(15) 0.00653(17)
C9_39 C 0.0565(2) 0.2444(2) 0.0173(2)
C10_39 C 0.0349(2) 0.2520(2) 0.0446(2)
O1_19 O 0.12400(14) 0.42382(15) 0.01442(16)
O4_39 O 0.12647(16) 0.32226(17) 0.02019(18)
S1_39 S 0.08571(6) 0.48433(6) 0.00060(7)
S2_39 S 0.04908(7) 0.28636(8) 0.06551(9)
C15_38 C 0.00866(19) 0.5127(2) 0.05331(17)
C20_38 C 0.0127(2) 0.55331(17) 0.00866(19)
C24_39 C 0.0056(2) 0.2327(2) 0.0565(2)
C29_39 C 0.0173(2) 0.1935(2) 0.0056(2)
H2_39 H 0.0971 0.2670 0.9880
C16_39 C 0.03485(19) 0.60325(18) 0.92954(17)
C17_39 C 0.03271(17) 0.58018(17) 0.95840(17)
C18_39 C 0.05825(15) 0.55278(12) 0.96448(12)
H4_39 H 0.0775 0.5473 0.9528
C19_39 C 0.0427(2) 0.5369(2) 0.9956(2)
S4_39 S 0.00060(7) 0.58571(6) 0.98433(6)
C26_39 C 0.0409(3) 0.1465(3) 0.9308(2)
C27_39 C 0.0361(2) 0.16982(19) 0.9585(2)
C28_39 C 0.00653(17) 0.16691(15) 0.98280(15)
C30_39 C 0.0446(2) 0.2151(2) 0.9980(2)
O12_39 O 0.02019(18) 0.12353(16) 0.92774(17)
S6_39 S 0.06551(9) 0.20092(7) 0.96364(8)
O16_19 O 0.01442(16) 0.12600(14) 0.82618(15)
O17_19 O 0.17382(15) 0.37400(14) 0.98558(16)
C11_39 C 0.92954(17) 0.53485(19) 0.10325(18)
C12_39 C 0.95840(17) 0.53271(17) 0.08018(17)
C13_39 C 0.96448(12) 0.55825(15) 0.05278(12)
H3_39 H 0.9528 0.5775 0.0473
C14_39 C 0.9956(2) 0.5427(2) 0.0369(2)
O5_31 O 0.92382(15) 0.51442(16) 0.12400(14)
S3_39 S 0.98433(6) 0.50060(7) 0.08571(6)
C21_39 C 0.9308(2) 0.2091(3) 0.1035(3)
C22_39 C 0.9585(2) 0.2139(2) 0.08018(19)
C23_39 C 0.98280(15) 0.24347(17) 0.08309(15)
H5_39 H 0.9830 0.2620 0.0971
C25_39 C 0.9980(2) 0.2054(2) 0.0349(2)
O10_39 O 0.92774(17) 0.22981(18) 0.12647(16)
S5_39 S 0.96364(8) 0.18449(9) 0.04908(7)
O13_19 O 0.87600(14) 0.26442(16) 0.17382(15)
O14_15 O 0.82618(15) 0.23558(16) 0.12400(14)
H6_39 H 0.9880 0.1529 0.9830
O15_19 O 0.98558(16) 0.07618(15) 0.87600(14)
C1_40 C 0.60325(18) 0.32046(17) 0.21515(19)
C2_40 C 0.58018(17) 0.29160(17) 0.21729(17)
C3_40 C 0.55278(12) 0.28552(12) 0.19175(15)
H1_40 H 0.5473 0.2972 0.1725
C4_40 C 0.5369(2) 0.2544(2) 0.2073(2)
C5_39 C 0.55331(17) 0.24134(19) 0.2373(2)
C6_40 C 0.6035(3) 0.4308(2) 0.2091(3)
C7_40 C 0.58018(19) 0.4585(2) 0.2139(2)
C8_40 C 0.58309(15) 0.48280(15) 0.24347(17)
H2_40 H 0.5971 0.4830 0.2620
C9_40 C 0.5565(2) 0.5056(2) 0.2327(2)
C10_40 C 0.5349(2) 0.4980(2) 0.2054(2)
O1_20 O 0.62400(14) 0.32618(15) 0.23558(16)
O4_40 O 0.62647(16) 0.42774(17) 0.22981(18)
S1_40 S 0.58571(6) 0.26567(6) 0.24940(7)
S2_40 S 0.54908(7) 0.46364(8) 0.18449(9)
C11_40 C 0.42954(17) 0.21515(19) 0.14675(18)
C12_40 C 0.45840(17) 0.21729(17) 0.16982(17)
C13_40 C 0.46448(12) 0.19175(15) 0.19722(12)
H3_40 H 0.4528 0.1725 0.2027
C14_40 C 0.4956(2) 0.2073(2) 0.2131(2)
C15_39 C 0.50866(19) 0.2373(2) 0.19669(17)
O5_32 O 0.42382(15) 0.23558(16) 0.12600(14)
S3_40 S 0.48433(6) 0.24940(7) 0.16429(6)
C16_40 C 0.53485(19) 0.14675(18) 0.32046(17)
C17_40 C 0.53271(17) 0.16982(17) 0.29160(17)
C18_40 C 0.55825(15) 0.19722(12) 0.28552(12)
H4_40 H 0.5775 0.2027 0.2972
C19_40 C 0.5427(2) 0.2131(2) 0.2544(2)
C20_39 C 0.5127(2) 0.19669(17) 0.24134(19)
S4_40 S 0.50060(7) 0.16429(6) 0.26567(6)
C21_40 C 0.4308(2) 0.5409(3) 0.1465(3)
C22_40 C 0.4585(2) 0.5361(2) 0.16982(19)
C23_40 C 0.48280(15) 0.50653(17) 0.16691(15)
H5_40 H 0.4830 0.4880 0.1529
C24_40 C 0.5056(2) 0.5173(2) 0.1935(2)
C25_40 C 0.4980(2) 0.5446(2) 0.2151(2)
O10_40 O 0.42774(17) 0.52019(18) 0.12353(16)
S5_40 S 0.46364(8) 0.56551(9) 0.20092(7)
C26_40 C 0.5409(3) 0.6035(3) 0.3192(2)
C27_40 C 0.5361(2) 0.58018(19) 0.2915(2)
C28_40 C 0.50653(17) 0.58309(15) 0.26720(15)
H6_40 H 0.4880 0.5971 0.2670
C29_40 C 0.5173(2) 0.5565(2) 0.2444(2)
C30_40 C 0.5446(2) 0.5349(2) 0.2520(2)
O12_40 O 0.52019(18) 0.62647(16) 0.32226(17)
S6_40 S 0.56551(9) 0.54908(7) 0.28636(8)
O13_20 O 0.37600(14) 0.48558(16) 0.07618(15)
O14_16 O 0.32618(15) 0.51442(16) 0.12600(14)
O15_20 O 0.48558(16) 0.67382(15) 0.37400(14)
O16_20 O 0.51442(16) 0.62400(14) 0.42382(15)
O17_20 O 0.67382(15) 0.37600(14) 0.26442(16)
C9_41 C 0.5173(2) 0.6935(2) 0.0056(2)
C21_41 C 0.6035(3) 0.8192(2) 0.0409(3)
C22_41 C 0.58018(19) 0.7915(2) 0.0361(2)
C23_41 C 0.58309(15) 0.76720(15) 0.00653(17)
C24_41 C 0.5565(2) 0.7444(2) 0.0173(2)
C25_41 C 0.5349(2) 0.7520(2) 0.0446(2)
O10_41 O 0.62647(16) 0.82226(17) 0.02019(18)
S5_41 S 0.54908(7) 0.78636(8) 0.06551(9)
C26_41 C 0.4308(2) 0.7091(3) 0.1035(3)
C27_41 C 0.4585(2) 0.7139(2) 0.08018(19)
C28_41 C 0.48280(15) 0.74347(17) 0.08309(15)
H6_41 H 0.4830 0.7620 0.0971
C29_41 C 0.5056(2) 0.7327(2) 0.0565(2)
C30_41 C 0.4980(2) 0.7054(2) 0.0349(2)
O12_41 O 0.42774(17) 0.72981(18) 0.12647(16)
S6_41 S 0.46364(8) 0.68449(9) 0.04908(7)
O15_21 O 0.37600(14) 0.76442(16) 0.17382(15)
O16_21 O 0.32618(15) 0.73558(16) 0.12400(14)
C1_41 C 0.53485(19) 0.64675(18) 0.82046(17)
C2_41 C 0.53271(17) 0.66982(17) 0.79160(17)
C3_41 C 0.55825(15) 0.69722(12) 0.78552(12)
H1_41 H 0.5775 0.7027 0.7972
C4_41 C 0.5427(2) 0.7131(2) 0.7544(2)
C5_40 C 0.5127(2) 0.69669(17) 0.74134(19)
C6_41 C 0.5409(3) 0.6465(3) 0.9308(2)
C7_41 C 0.5361(2) 0.66982(19) 0.9585(2)
C8_41 C 0.50653(17) 0.66691(15) 0.98280(15)
H2_41 H 0.4880 0.6529 0.9830
C10_41 C 0.5446(2) 0.7151(2) 0.9980(2)
O1_21 O 0.51442(16) 0.62600(14) 0.82618(15)
O4_41 O 0.52019(18) 0.62353(16) 0.92774(17)
S1_41 S 0.50060(7) 0.66429(6) 0.76567(6)
S2_41 S 0.56551(9) 0.70092(7) 0.96364(8)
C11_41 C 0.60325(18) 0.82046(17) 0.71515(19)
C12_41 C 0.58018(17) 0.79160(17) 0.71729(17)
C13_41 C 0.55278(12) 0.78552(12) 0.69175(15)
H3_41 H 0.5473 0.7972 0.6725
C14_41 C 0.5369(2) 0.7544(2) 0.7073(2)
C15_40 C 0.55331(17) 0.74134(19) 0.7373(2)
O5_33 O 0.62400(14) 0.82618(15) 0.73558(16)
S3_41 S 0.58571(6) 0.76567(6) 0.74940(7)
C16_41 C 0.42954(17) 0.71515(19) 0.64675(18)
C17_41 C 0.45840(17) 0.71729(17) 0.66982(17)
C18_41 C 0.46448(12) 0.69175(15) 0.69722(12)
H4_41 H 0.4528 0.6725 0.7027
C19_41 C 0.4956(2) 0.7073(2) 0.7131(2)
C20_40 C 0.50866(19) 0.7373(2) 0.69669(17)
S4_41 S 0.48433(6) 0.74940(7) 0.66429(6)
H5_41 H 0.5971 0.7670 0.9880
O13_21 O 0.67382(15) 0.87400(14) 0.98558(16)
O17_21 O 0.48558(16) 0.57618(15) 0.87600(14)
C5_41 C 0.7373(2) 0.19669(17) 0.00866(19)
C11_42 C 0.64675(18) 0.32046(17) 0.03485(19)
C12_42 C 0.66982(17) 0.29160(17) 0.03271(17)
C13_42 C 0.69722(12) 0.28552(12) 0.05825(15)
H3_42 H 0.7027 0.2972 0.0775
C14_42 C 0.7131(2) 0.2544(2) 0.0427(2)
C15_41 C 0.69669(17) 0.24134(19) 0.0127(2)
O5_34 O 0.62600(14) 0.32618(15) 0.01442(16)
S3_42 S 0.66429(6) 0.26567(6) 0.00060(7)
C16_42 C 0.82046(17) 0.21515(19) 0.10325(18)
C17_42 C 0.79160(17) 0.21729(17) 0.08018(17)
C18_42 C 0.78552(12) 0.19175(15) 0.05278(12)
H4_42 H 0.7972 0.1725 0.0473
C19_42 C 0.7544(2) 0.2073(2) 0.0369(2)
C20_41 C 0.74134(19) 0.2373(2) 0.05331(17)
S4_42 S 0.76567(6) 0.24940(7) 0.08571(6)
C1_42 C 0.71515(19) 0.14675(18) 0.92954(17)
C2_42 C 0.71729(17) 0.16982(17) 0.95840(17)
C3_42 C 0.69175(15) 0.19722(12) 0.96448(12)
H1_42 H 0.6725 0.2027 0.9528
C4_42 C 0.7073(2) 0.2131(2) 0.9956(2)
C6_42 C 0.7091(3) 0.1465(3) 0.8192(2)
C7_42 C 0.7139(2) 0.16982(19) 0.7915(2)
C8_42 C 0.74347(17) 0.16691(15) 0.76720(15)
H2_42 H 0.7620 0.1529 0.7670
C9_42 C 0.7327(2) 0.1935(2) 0.7444(2)
C10_42 C 0.7054(2) 0.2151(2) 0.7520(2)
O1_22 O 0.73558(16) 0.12600(14) 0.92382(15)
O4_42 O 0.72981(18) 0.12353(16) 0.82226(17)
S1_42 S 0.74940(7) 0.16429(6) 0.98433(6)
S2_42 S 0.68449(9) 0.20092(7) 0.78636(8)
C21_42 C 0.6465(3) 0.3192(2) 0.7091(3)
C22_42 C 0.66982(19) 0.2915(2) 0.7139(2)
C23_42 C 0.66691(15) 0.26720(15) 0.74347(17)
H5_42 H 0.6529 0.2670 0.7620
C24_42 C 0.6935(2) 0.2444(2) 0.7327(2)
C25_42 C 0.7151(2) 0.2520(2) 0.7054(2)
O10_42 O 0.62353(16) 0.32226(17) 0.72981(18)
S5_42 S 0.70092(7) 0.28636(8) 0.68449(9)
C26_42 C 0.8192(2) 0.2091(3) 0.6465(3)
C27_42 C 0.7915(2) 0.2139(2) 0.66982(19)
C28_42 C 0.76720(15) 0.24347(17) 0.66691(15)
H6_42 H 0.7670 0.2620 0.6529
C29_42 C 0.7444(2) 0.2327(2) 0.6935(2)
C30_42 C 0.7520(2) 0.2054(2) 0.7151(2)
O12_42 O 0.82226(17) 0.22981(18) 0.62353(16)
S6_42 S 0.78636(8) 0.18449(9) 0.70092(7)
O13_22 O 0.57618(15) 0.37400(14) 0.76442(16)
O15_22 O 0.87400(14) 0.26442(16) 0.57618(15)
O16_22 O 0.92382(15) 0.23558(16) 0.62600(14)
O17_22 O 0.76442(16) 0.07618(15) 0.87400(14)
C1_43 C 0.03485(19) 0.10325(18) 0.42954(17)
C2_43 C 0.03271(17) 0.08018(17) 0.45840(17)
C3_43 C 0.05825(15) 0.05278(12) 0.46448(12)
H1_43 H 0.0775 0.0473 0.4528
C4_43 C 0.0427(2) 0.0369(2) 0.4956(2)
C5_42 C 0.0127(2) 0.05331(17) 0.50866(19)
C6_43 C 0.0409(3) 0.1035(3) 0.3192(2)
C7_43 C 0.0361(2) 0.08018(19) 0.2915(2)
C8_43 C 0.00653(17) 0.08309(15) 0.26720(15)
C9_43 C 0.0173(2) 0.0565(2) 0.2444(2)
C10_43 C 0.0446(2) 0.0349(2) 0.2520(2)
O1_23 O 0.01442(16) 0.12400(14) 0.42382(15)
O4_43 O 0.02019(18) 0.12647(16) 0.32226(17)
S1_43 S 0.00060(7) 0.08571(6) 0.48433(6)
S2_43 S 0.06551(9) 0.04908(7) 0.28636(8)
C15_42 C 0.05331(17) 0.00866(19) 0.5127(2)
C20_42 C 0.00866(19) 0.0127(2) 0.55331(17)
C24_43 C 0.0565(2) 0.0056(2) 0.2327(2)
C29_43 C 0.0056(2) 0.0173(2) 0.1935(2)
C11_43 C 0.10325(18) 0.92954(17) 0.53485(19)
C12_43 C 0.08018(17) 0.95840(17) 0.53271(17)
C13_43 C 0.05278(12) 0.96448(12) 0.55825(15)
H3_43 H 0.0473 0.9528 0.5775
C14_43 C 0.0369(2) 0.9956(2) 0.5427(2)
O5_35 O 0.12400(14) 0.92382(15) 0.51442(16)
S3_43 S 0.08571(6) 0.98433(6) 0.50060(7)
C21_43 C 0.1035(3) 0.9308(2) 0.2091(3)
C22_43 C 0.08018(19) 0.9585(2) 0.2139(2)
C23_43 C 0.08309(15) 0.98280(15) 0.24347(17)
H5_43 H 0.0971 0.9830 0.2620
C25_43 C 0.0349(2) 0.9980(2) 0.2054(2)
O10_43 O 0.12647(16) 0.92774(17) 0.22981(18)
S5_43 S 0.04908(7) 0.96364(8) 0.18449(9)
O13_23 O 0.17382(15) 0.87600(14) 0.26442(16)
H2_43 H 0.9880 0.0971 0.2670
C16_43 C 0.92954(17) 0.03485(19) 0.60325(18)
C17_43 C 0.95840(17) 0.03271(17) 0.58018(17)
C18_43 C 0.96448(12) 0.05825(15) 0.55278(12)
H4_43 H 0.9528 0.0775 0.5473
C19_43 C 0.9956(2) 0.0427(2) 0.5369(2)
S4_43 S 0.98433(6) 0.00060(7) 0.58571(6)
C26_43 C 0.9308(2) 0.0409(3) 0.1465(3)
C27_43 C 0.9585(2) 0.0361(2) 0.16982(19)
C28_43 C 0.98280(15) 0.00653(17) 0.16691(15)
C30_43 C 0.9980(2) 0.0446(2) 0.2151(2)
O12_43 O 0.92774(17) 0.02019(18) 0.12353(16)
S6_43 S 0.96364(8) 0.06551(9) 0.20092(7)
O16_23 O 0.82618(15) 0.01442(16) 0.12600(14)
O17_23 O 0.98558(16) 0.17382(15) 0.37400(14)
H6_43 H 0.9830 0.9880 0.1529
O15_23 O 0.87600(14) 0.98558(16) 0.07618(15)
C1_44 C 0.21515(19) 0.60325(18) 0.32046(17)
C2_44 C 0.21729(17) 0.58018(17) 0.29160(17)
C3_44 C 0.19175(15) 0.55278(12) 0.28552(12)
H1_44 H 0.1725 0.5473 0.2972
C4_44 C 0.2073(2) 0.5369(2) 0.2544(2)
C5_43 C 0.2373(2) 0.55331(17) 0.24134(19)
C6_44 C 0.2091(3) 0.6035(3) 0.4308(2)
C7_44 C 0.2139(2) 0.58018(19) 0.4585(2)
C8_44 C 0.24347(17) 0.58309(15) 0.48280(15)
H2_44 H 0.2620 0.5971 0.4830
C9_44 C 0.2327(2) 0.5565(2) 0.5056(2)
C10_44 C 0.2054(2) 0.5349(2) 0.4980(2)
O1_24 O 0.23558(16) 0.62400(14) 0.32618(15)
O4_44 O 0.22981(18) 0.62647(16) 0.42774(17)
S1_44 S 0.24940(7) 0.58571(6) 0.26567(6)
S2_44 S 0.18449(9) 0.54908(7) 0.46364(8)
C11_44 C 0.14675(18) 0.42954(17) 0.21515(19)
C12_44 C 0.16982(17) 0.45840(17) 0.21729(17)
C13_44 C 0.19722(12) 0.46448(12) 0.19175(15)
H3_44 H 0.2027 0.4528 0.1725
C14_44 C 0.2131(2) 0.4956(2) 0.2073(2)
C15_43 C 0.19669(17) 0.50866(19) 0.2373(2)
O5_36 O 0.12600(14) 0.42382(15) 0.23558(16)
S3_44 S 0.16429(6) 0.48433(6) 0.24940(7)
C16_44 C 0.32046(17) 0.53485(19) 0.14675(18)
C17_44 C 0.29160(17) 0.53271(17) 0.16982(17)
C18_44 C 0.28552(12) 0.55825(15) 0.19722(12)
H4_44 H 0.2972 0.5775 0.2027
C19_44 C 0.2544(2) 0.5427(2) 0.2131(2)
C20_43 C 0.24134(19) 0.5127(2) 0.19669(17)
S4_44 S 0.26567(6) 0.50060(7) 0.16429(6)
C21_44 C 0.1465(3) 0.4308(2) 0.5409(3)
C22_44 C 0.16982(19) 0.4585(2) 0.5361(2)
C23_44 C 0.16691(15) 0.48280(15) 0.50653(17)
H5_44 H 0.1529 0.4830 0.4880
C24_44 C 0.1935(2) 0.5056(2) 0.5173(2)
C25_44 C 0.2151(2) 0.4980(2) 0.5446(2)
O10_44 O 0.12353(16) 0.42774(17) 0.52019(18)
S5_44 S 0.20092(7) 0.46364(8) 0.56551(9)
C26_44 C 0.3192(2) 0.5409(3) 0.6035(3)
C27_44 C 0.2915(2) 0.5361(2) 0.58018(19)
C28_44 C 0.26720(15) 0.50653(17) 0.58309(15)
H6_44 H 0.2670 0.4880 0.5971
C29_44 C 0.2444(2) 0.5173(2) 0.5565(2)
C30_44 C 0.2520(2) 0.5446(2) 0.5349(2)
O12_44 O 0.32226(17) 0.52019(18) 0.62647(16)
S6_44 S 0.28636(8) 0.56551(9) 0.54908(7)
O13_24 O 0.07618(15) 0.37600(14) 0.48558(16)
O15_24 O 0.37400(14) 0.48558(16) 0.67382(15)
O16_24 O 0.42382(15) 0.51442(16) 0.62400(14)
O17_24 O 0.26442(16) 0.67382(15) 0.37600(14)
C1_45 C 0.78485(19) 0.57046(17) 0.35325(18)
C2_45 C 0.78271(17) 0.54160(17) 0.33018(17)
C3_45 C 0.80825(15) 0.53552(12) 0.30278(12)
H1_45 H 0.8275 0.5472 0.2973
C4_45 C 0.7927(2) 0.5044(2) 0.2869(2)
C5_44 C 0.7627(2) 0.49134(19) 0.30331(17)
C6_45 C 0.7909(3) 0.6808(2) 0.3535(3)
C7_45 C 0.7861(2) 0.7085(2) 0.33018(19)
C8_45 C 0.75653(17) 0.73280(15) 0.33309(15)
H2_45 H 0.7380 0.7330 0.3471
C9_45 C 0.7673(2) 0.7556(2) 0.3065(2)
C10_45 C 0.7946(2) 0.7480(2) 0.2849(2)
O4_45 O 0.77019(18) 0.67774(17) 0.37647(16)
S1_45 S 0.75060(7) 0.51567(6) 0.33571(6)
S2_45 S 0.81551(9) 0.71364(8) 0.29908(7)
C11_45 C 0.85325(18) 0.46515(19) 0.17954(17)
C12_45 C 0.83018(17) 0.46729(17) 0.20840(17)
C13_45 C 0.80278(12) 0.44175(15) 0.21448(12)
H3_45 H 0.7973 0.4225 0.2028
C14_45 C 0.7869(2) 0.4573(2) 0.2456(2)
C15_44 C 0.80331(17) 0.4873(2) 0.25866(19)
O5_37 O 0.87400(14) 0.48558(16) 0.17382(15)
S3_45 S 0.83571(6) 0.49940(7) 0.23433(6)
C16_45 C 0.67954(17) 0.39675(18) 0.28485(19)
C17_45 C 0.70840(17) 0.41982(17) 0.28271(17)
C18_45 C 0.71448(12) 0.44722(12) 0.30825(15)
H4_45 H 0.7028 0.4527 0.3275
C19_45 C 0.7456(2) 0.4631(2) 0.2927(2)
C20_44 C 0.75866(19) 0.44669(17) 0.2627(2)
S4_45 S 0.73433(6) 0.41429(6) 0.25060(7)
C21_45 C 0.8535(3) 0.7909(3) 0.1808(2)
C22_45 C 0.83018(19) 0.7861(2) 0.2085(2)
C23_45 C 0.83309(15) 0.75653(17) 0.23280(15)
H5_45 H 0.8471 0.7380 0.2330
C24_45 C 0.8065(2) 0.7673(2) 0.2556(2)
C25_45 C 0.7849(2) 0.7946(2) 0.2480(2)
O10_45 O 0.87647(16) 0.77019(18) 0.17774(17)
S5_45 S 0.79908(7) 0.81551(9) 0.21364(8)
C26_45 C 0.6808(2) 0.8535(3) 0.2909(3)
C27_45 C 0.7085(2) 0.83018(19) 0.2861(2)
C28_45 C 0.73280(15) 0.83309(15) 0.25653(17)
H6_45 H 0.7330 0.8471 0.2380
C29_45 C 0.7556(2) 0.8065(2) 0.2673(2)
C30_45 C 0.7480(2) 0.7849(2) 0.2946(2)
O12_45 O 0.67774(17) 0.87647(16) 0.27019(18)
S6_45 S 0.71364(8) 0.79908(7) 0.31551(9)
H2_46 H 0.0120 0.5170 0.8471
C16_46 C 0.07046(17) 0.85325(18) 0.78485(19)
C17_46 C 0.04160(17) 0.83018(17) 0.78271(17)
C18_46 C 0.03552(12) 0.80278(12) 0.80825(15)
H4_46 H 0.0472 0.7973 0.8275
C19_46 C 0.0044(2) 0.7869(2) 0.7927(2)
S4_46 S 0.01567(6) 0.83571(6) 0.75060(7)
C26_46 C 0.0692(2) 0.3965(3) 0.7909(3)
C27_46 C 0.0415(2) 0.41982(19) 0.7861(2)
C28_46 C 0.01720(15) 0.41691(15) 0.75653(17)
H6_46 H 0.0170 0.4029 0.7380
C30_46 C 0.0020(2) 0.4651(2) 0.7946(2)
O12_46 O 0.07226(17) 0.37353(16) 0.77019(18)
S6_46 S 0.03636(8) 0.45092(7) 0.81551(9)
C1_46 C 0.96515(19) 0.67954(17) 0.85325(18)
C2_46 C 0.96729(17) 0.70840(17) 0.83018(17)
C3_46 C 0.94175(15) 0.71448(12) 0.80278(12)
H1_46 H 0.9225 0.7028 0.7973
C4_46 C 0.9573(2) 0.7456(2) 0.7869(2)
C5_45 C 0.9873(2) 0.75866(19) 0.80331(17)
C6_46 C 0.9591(3) 0.5692(2) 0.8535(3)
C7_46 C 0.9639(2) 0.5415(2) 0.83018(19)
C8_46 C 0.99347(17) 0.51720(15) 0.83309(15)
C9_46 C 0.9827(2) 0.4944(2) 0.8065(2)
C10_46 C 0.9554(2) 0.5020(2) 0.7849(2)
O4_46 O 0.97981(18) 0.57226(17) 0.87647(16)
S1_46 S 0.99940(7) 0.73433(6) 0.83571(6)
S2_46 S 0.93449(9) 0.53636(8) 0.79908(7)
C11_46 C 0.89675(18) 0.78485(19) 0.67954(17)
C12_46 C 0.91982(17) 0.78271(17) 0.70840(17)
C13_46 C 0.94722(12) 0.80825(15) 0.71448(12)
H3_46 H 0.9527 0.8275 0.7028
C14_46 C 0.9631(2) 0.7927(2) 0.7456(2)
C15_45 C 0.94669(17) 0.7627(2) 0.75866(19)
O5_38 O 0.87600(14) 0.76442(16) 0.67382(15)
S3_46 S 0.91429(6) 0.75060(7) 0.73433(6)
C20_45 C 0.99134(19) 0.80331(17) 0.7627(2)
C21_46 C 0.8965(3) 0.4591(3) 0.6808(2)
C22_46 C 0.91982(19) 0.4639(2) 0.7085(2)
C23_46 C 0.91691(15) 0.49347(17) 0.73280(15)
H5_46 H 0.9029 0.5120 0.7330
C24_46 C 0.9435(2) 0.4827(2) 0.7556(2)
C25_46 C 0.9651(2) 0.4554(2) 0.7480(2)
O10_46 O 0.87353(16) 0.47981(18) 0.67774(17)
S5_46 S 0.95092(7) 0.43449(9) 0.71364(8)
C29_46 C 0.9944(2) 0.4435(2) 0.7673(2)
C11_47 C 0.35325(18) 0.28485(19) 0.07046(17)
C12_47 C 0.33018(17) 0.28271(17) 0.04160(17)
C13_47 C 0.30278(12) 0.30825(15) 0.03552(12)
H3_47 H 0.2973 0.3275 0.0472
C14_47 C 0.2869(2) 0.2927(2) 0.0044(2)
O5_39 O 0.37400(14) 0.26442(16) 0.07618(15)
S3_47 S 0.33571(6) 0.25060(7) 0.01567(6)
H5_47 H 0.3471 0.0120 0.0170
C1_47 C 0.28485(19) 0.17954(17) 0.89675(18)
C2_47 C 0.28271(17) 0.20840(17) 0.91982(17)
C3_47 C 0.30825(15) 0.21448(12) 0.94722(12)
H1_47 H 0.3275 0.2028 0.9527
C4_47 C 0.2927(2) 0.2456(2) 0.9631(2)
C5_46 C 0.2627(2) 0.25866(19) 0.94669(17)
C6_47 C 0.2909(3) 0.0692(2) 0.8965(3)
C7_47 C 0.2861(2) 0.0415(2) 0.91982(19)
C8_47 C 0.25653(17) 0.01720(15) 0.91691(15)
H2_47 H 0.2380 0.0170 0.9029
C10_47 C 0.2946(2) 0.0020(2) 0.9651(2)
O4_47 O 0.27019(18) 0.07226(17) 0.87353(16)
S1_47 S 0.25060(7) 0.23433(6) 0.91429(6)
S2_47 S 0.31551(9) 0.03636(8) 0.95092(7)
C15_46 C 0.30331(17) 0.2627(2) 0.99134(19)
C16_47 C 0.17954(17) 0.35325(18) 0.96515(19)
C17_47 C 0.20840(17) 0.33018(17) 0.96729(17)
C18_47 C 0.21448(12) 0.30278(12) 0.94175(15)
H4_47 H 0.2028 0.2973 0.9225
C19_47 C 0.2456(2) 0.2869(2) 0.9573(2)
C20_46 C 0.25866(19) 0.30331(17) 0.9873(2)
S4_47 S 0.23433(6) 0.33571(6) 0.99940(7)
C21_47 C 0.3535(3) 0.9591(3) 0.0692(2)
C22_47 C 0.33018(19) 0.9639(2) 0.0415(2)
C23_47 C 0.33309(15) 0.99347(17) 0.01720(15)
C25_47 C 0.2849(2) 0.9554(2) 0.0020(2)
O10_47 O 0.37647(16) 0.97981(18) 0.07226(17)
S5_47 S 0.29908(7) 0.93449(9) 0.03636(8)
H6_47 H 0.2330 0.9029 0.0120
C9_47 C 0.2673(2) 0.9944(2) 0.9435(2)
C24_47 C 0.3065(2) 0.9827(2) 0.9944(2)
C26_47 C 0.1808(2) 0.8965(3) 0.9591(3)
C27_47 C 0.2085(2) 0.91982(19) 0.9639(2)
C28_47 C 0.23280(15) 0.91691(15) 0.99347(17)
C29_47 C 0.2556(2) 0.9435(2) 0.9827(2)
C30_47 C 0.2480(2) 0.9651(2) 0.9554(2)
O12_47 O 0.17774(17) 0.87353(16) 0.97981(18)
S6_47 S 0.21364(8) 0.95092(7) 0.93449(9)
C1_48 C 0.46515(19) 0.07046(17) 0.39675(18)
C2_48 C 0.46729(17) 0.04160(17) 0.41982(17)
C3_48 C 0.44175(15) 0.03552(12) 0.44722(12)
H1_48 H 0.4225 0.0472 0.4527
C4_48 C 0.4573(2) 0.0044(2) 0.4631(2)
C6_48 C 0.4591(3) 0.1808(2) 0.3965(3)
C7_48 C 0.4639(2) 0.2085(2) 0.41982(19)
C8_48 C 0.49347(17) 0.23280(15) 0.41691(15)
H2_48 H 0.5120 0.2330 0.4029
C9_48 C 0.4827(2) 0.2556(2) 0.4435(2)
C10_48 C 0.4554(2) 0.2480(2) 0.4651(2)
O4_48 O 0.47981(18) 0.17774(17) 0.37353(16)
S1_48 S 0.49940(7) 0.01567(6) 0.41429(6)
S2_48 S 0.43449(9) 0.21364(8) 0.45092(7)
C21_48 C 0.3965(3) 0.2909(3) 0.5692(2)
C22_48 C 0.41982(19) 0.2861(2) 0.5415(2)
C23_48 C 0.41691(15) 0.25653(17) 0.51720(15)
H5_48 H 0.4029 0.2380 0.5170
C24_48 C 0.4435(2) 0.2673(2) 0.4944(2)
C25_48 C 0.4651(2) 0.2946(2) 0.5020(2)
O10_48 O 0.37353(16) 0.27019(18) 0.57226(17)
S5_48 S 0.45092(7) 0.31551(9) 0.53636(8)
C26_48 C 0.5692(2) 0.3535(3) 0.4591(3)
C27_48 C 0.5415(2) 0.33018(19) 0.4639(2)
C28_48 C 0.51720(15) 0.33309(15) 0.49347(17)
H6_48 H 0.5170 0.3471 0.5120
C29_48 C 0.4944(2) 0.3065(2) 0.4827(2)
C30_48 C 0.5020(2) 0.2849(2) 0.4554(2)
O12_48 O 0.57226(17) 0.37647(16) 0.47981(18)
S6_48 S 0.53636(8) 0.29908(7) 0.43449(9)
C5_47 C 0.4873(2) 0.99134(19) 0.44669(17)
C11_48 C 0.39675(18) 0.96515(19) 0.57046(17)
C12_48 C 0.41982(17) 0.96729(17) 0.54160(17)
C13_48 C 0.44722(12) 0.94175(15) 0.53552(12)
H3_48 H 0.4527 0.9225 0.5472
C14_48 C 0.4631(2) 0.9573(2) 0.5044(2)
C15_47 C 0.44669(17) 0.9873(2) 0.49134(19)
O5_40 O 0.37600(14) 0.98558(16) 0.57618(15)
S3_48 S 0.41429(6) 0.99940(7) 0.51567(6)
C16_48 C 0.57046(17) 0.89675(18) 0.46515(19)
C17_48 C 0.54160(17) 0.91982(17) 0.46729(17)
C18_48 C 0.53552(12) 0.94722(12) 0.44175(15)
H4_48 H 0.5472 0.9527 0.4225
C19_48 C 0.5044(2) 0.9631(2) 0.4573(2)
C20_47 C 0.49134(19) 0.94669(17) 0.4873(2)
S4_48 S 0.51567(6) 0.91429(6) 0.49940(7)
C1_49 C 0.07046(17) 0.39675(18) 0.46515(19)
C2_49 C 0.04160(17) 0.41982(17) 0.46729(17)
C3_49 C 0.03552(12) 0.44722(12) 0.44175(15)
H1_49 H 0.0472 0.4527 0.4225
C4_49 C 0.0044(2) 0.4631(2) 0.4573(2)
C6_49 C 0.1808(2) 0.3965(3) 0.4591(3)
C7_49 C 0.2085(2) 0.41982(19) 0.4639(2)
C8_49 C 0.23280(15) 0.41691(15) 0.49347(17)
H2_49 H 0.2330 0.4029 0.5120
C9_49 C 0.2556(2) 0.4435(2) 0.4827(2)
C10_49 C 0.2480(2) 0.4651(2) 0.4554(2)
O4_49 O 0.17774(17) 0.37353(16) 0.47981(18)
S1_49 S 0.01567(6) 0.41429(6) 0.49940(7)
S2_49 S 0.21364(8) 0.45092(7) 0.43449(9)
C21_49 C 0.2909(3) 0.5692(2) 0.3965(3)
C22_49 C 0.2861(2) 0.5415(2) 0.41982(19)
C23_49 C 0.25653(17) 0.51720(15) 0.41691(15)
H5_49 H 0.2380 0.5170 0.4029
C24_49 C 0.2673(2) 0.4944(2) 0.4435(2)
C25_49 C 0.2946(2) 0.5020(2) 0.4651(2)
O10_49 O 0.27019(18) 0.57226(17) 0.37353(16)
S5_49 S 0.31551(9) 0.53636(8) 0.45092(7)
C26_49 C 0.3535(3) 0.4591(3) 0.5692(2)
C27_49 C 0.33018(19) 0.4639(2) 0.5415(2)
C28_49 C 0.33309(15) 0.49347(17) 0.51720(15)
H6_49 H 0.3471 0.5120 0.5170
C29_49 C 0.3065(2) 0.4827(2) 0.4944(2)
C30_49 C 0.2849(2) 0.4554(2) 0.5020(2)
O12_49 O 0.37647(16) 0.47981(18) 0.57226(17)
S6_49 S 0.29908(7) 0.43449(9) 0.53636(8)
C5_48 C 0.99134(19) 0.44669(17) 0.4873(2)
C11_49 C 0.96515(19) 0.57046(17) 0.39675(18)
C12_49 C 0.96729(17) 0.54160(17) 0.41982(17)
C13_49 C 0.94175(15) 0.53552(12) 0.44722(12)
H3_49 H 0.9225 0.5472 0.4527
C14_49 C 0.9573(2) 0.5044(2) 0.4631(2)
C15_48 C 0.9873(2) 0.49134(19) 0.44669(17)
O5_41 O 0.98558(16) 0.57618(15) 0.37600(14)
S3_49 S 0.99940(7) 0.51567(6) 0.41429(6)
C16_49 C 0.89675(18) 0.46515(19) 0.57046(17)
C17_49 C 0.91982(17) 0.46729(17) 0.54160(17)
C18_49 C 0.94722(12) 0.44175(15) 0.53552(12)
H4_49 H 0.9527 0.4225 0.5472
C19_49 C 0.9631(2) 0.4573(2) 0.5044(2)
C20_48 C 0.94669(17) 0.4873(2) 0.49134(19)
S4_49 S 0.91429(6) 0.49940(7) 0.51567(6)
C11_50 C 0.28485(19) 0.07046(17) 0.35325(18)
C12_50 C 0.28271(17) 0.04160(17) 0.33018(17)
C13_50 C 0.30825(15) 0.03552(12) 0.30278(12)
H3_50 H 0.3275 0.0472 0.2973
C14_50 C 0.2927(2) 0.0044(2) 0.2869(2)
O5_42 O 0.26442(16) 0.07618(15) 0.37400(14)
S3_50 S 0.25060(7) 0.01567(6) 0.33571(6)
H5_50 H 0.0120 0.0170 0.3471
C1_50 C 0.17954(17) 0.89675(18) 0.28485(19)
C2_50 C 0.20840(17) 0.91982(17) 0.28271(17)
C3_50 C 0.21448(12) 0.94722(12) 0.30825(15)
H1_50 H 0.2028 0.9527 0.3275
C4_50 C 0.2456(2) 0.9631(2) 0.2927(2)
C5_49 C 0.25866(19) 0.94669(17) 0.2627(2)
C6_50 C 0.0692(2) 0.8965(3) 0.2909(3)
C7_50 C 0.0415(2) 0.91982(19) 0.2861(2)
C8_50 C 0.01720(15) 0.91691(15) 0.25653(17)
H2_50 H 0.0170 0.9029 0.2380
C10_50 C 0.0020(2) 0.9651(2) 0.2946(2)
O4_50 O 0.07226(17) 0.87353(16) 0.27019(18)
S1_50 S 0.23433(6) 0.91429(6) 0.25060(7)
S2_50 S 0.03636(8) 0.95092(7) 0.31551(9)
C15_49 C 0.2627(2) 0.99134(19) 0.30331(17)
C16_50 C 0.35325(18) 0.96515(19) 0.17954(17)
C17_50 C 0.33018(17) 0.96729(17) 0.20840(17)
C18_50 C 0.30278(12) 0.94175(15) 0.21448(12)
H4_50 H 0.2973 0.9225 0.2028
C19_50 C 0.2869(2) 0.9573(2) 0.2456(2)
C20_49 C 0.30331(17) 0.9873(2) 0.25866(19)
S4_50 S 0.33571(6) 0.99940(7) 0.23433(6)
C21_50 C 0.9591(3) 0.0692(2) 0.3535(3)
C22_50 C 0.9639(2) 0.0415(2) 0.33018(19)
C23_50 C 0.99347(17) 0.01720(15) 0.33309(15)
C25_50 C 0.9554(2) 0.0020(2) 0.2849(2)
O10_50 O 0.97981(18) 0.07226(17) 0.37647(16)
S5_50 S 0.93449(9) 0.03636(8) 0.29908(7)
H6_50 H 0.9029 0.0120 0.2330
C9_50 C 0.9944(2) 0.9435(2) 0.2673(2)
C24_50 C 0.9827(2) 0.9944(2) 0.3065(2)
C26_50 C 0.8965(3) 0.9591(3) 0.1808(2)
C27_50 C 0.91982(19) 0.9639(2) 0.2085(2)
C28_50 C 0.91691(15) 0.99347(17) 0.23280(15)
C29_50 C 0.9435(2) 0.9827(2) 0.2556(2)
C30_50 C 0.9651(2) 0.9554(2) 0.2480(2)
O12_50 O 0.87353(16) 0.97981(18) 0.17774(17)
S6_50 S 0.95092(7) 0.93449(9) 0.21364(8)
H2_51 H 0.5170 0.8471 0.0120
C16_51 C 0.85325(18) 0.78485(19) 0.07046(17)
C17_51 C 0.83018(17) 0.78271(17) 0.04160(17)
C18_51 C 0.80278(12) 0.80825(15) 0.03552(12)
H4_51 H 0.7973 0.8275 0.0472
C19_51 C 0.7869(2) 0.7927(2) 0.0044(2)
S4_51 S 0.83571(6) 0.75060(7) 0.01567(6)
C26_51 C 0.3965(3) 0.7909(3) 0.0692(2)
C27_51 C 0.41982(19) 0.7861(2) 0.0415(2)
C28_51 C 0.41691(15) 0.75653(17) 0.01720(15)
H6_51 H 0.4029 0.7380 0.0170
C30_51 C 0.4651(2) 0.7946(2) 0.0020(2)
O12_51 O 0.37353(16) 0.77019(18) 0.07226(17)
S6_51 S 0.45092(7) 0.81551(9) 0.03636(8)
C1_51 C 0.67954(17) 0.85325(18) 0.96515(19)
C2_51 C 0.70840(17) 0.83018(17) 0.96729(17)
C3_51 C 0.71448(12) 0.80278(12) 0.94175(15)
H1_51 H 0.7028 0.7973 0.9225
C4_51 C 0.7456(2) 0.7869(2) 0.9573(2)
C5_50 C 0.75866(19) 0.80331(17) 0.9873(2)
C6_51 C 0.5692(2) 0.8535(3) 0.9591(3)
C7_51 C 0.5415(2) 0.83018(19) 0.9639(2)
C8_51 C 0.51720(15) 0.83309(15) 0.99347(17)
C9_51 C 0.4944(2) 0.8065(2) 0.9827(2)
C10_51 C 0.5020(2) 0.7849(2) 0.9554(2)
O4_51 O 0.57226(17) 0.87647(16) 0.97981(18)
S1_51 S 0.73433(6) 0.83571(6) 0.99940(7)
S2_51 S 0.53636(8) 0.79908(7) 0.93449(9)
C11_51 C 0.78485(19) 0.67954(17) 0.89675(18)
C12_51 C 0.78271(17) 0.70840(17) 0.91982(17)
C13_51 C 0.80825(15) 0.71448(12) 0.94722(12)
H3_51 H 0.8275 0.7028 0.9527
C14_51 C 0.7927(2) 0.7456(2) 0.9631(2)
C15_50 C 0.7627(2) 0.75866(19) 0.94669(17)
O5_43 O 0.76442(16) 0.67382(15) 0.87600(14)
S3_51 S 0.75060(7) 0.73433(6) 0.91429(6)
C20_50 C 0.80331(17) 0.7627(2) 0.99134(19)
C21_51 C 0.4591(3) 0.6808(2) 0.8965(3)
C22_51 C 0.4639(2) 0.7085(2) 0.91982(19)
C23_51 C 0.49347(17) 0.73280(15) 0.91691(15)
H5_51 H 0.5120 0.7330 0.9029
C24_51 C 0.4827(2) 0.7556(2) 0.9435(2)
C25_51 C 0.4554(2) 0.7480(2) 0.9651(2)
O10_51 O 0.47981(18) 0.67774(17) 0.87353(16)
S5_51 S 0.43449(9) 0.71364(8) 0.95092(7)
C29_51 C 0.4435(2) 0.7673(2) 0.9944(2)
C1_52 C 0.57046(17) 0.35325(18) 0.78485(19)
C2_52 C 0.54160(17) 0.33018(17) 0.78271(17)
C3_52 C 0.53552(12) 0.30278(12) 0.80825(15)
H1_52 H 0.5472 0.2973 0.8275
C4_52 C 0.5044(2) 0.2869(2) 0.7927(2)
C5_51 C 0.49134(19) 0.30331(17) 0.7627(2)
C6_52 C 0.6808(2) 0.3535(3) 0.7909(3)
C7_52 C 0.7085(2) 0.33018(19) 0.7861(2)
C8_52 C 0.73280(15) 0.33309(15) 0.75653(17)
H2_52 H 0.7330 0.3471 0.7380
C9_52 C 0.7556(2) 0.3065(2) 0.7673(2)
C10_52 C 0.7480(2) 0.2849(2) 0.7946(2)
O4_52 O 0.67774(17) 0.37647(16) 0.77019(18)
S1_52 S 0.51567(6) 0.33571(6) 0.75060(7)
S2_52 S 0.71364(8) 0.29908(7) 0.81551(9)
C11_52 C 0.46515(19) 0.17954(17) 0.85325(18)
C12_52 C 0.46729(17) 0.20840(17) 0.83018(17)
C13_52 C 0.44175(15) 0.21448(12) 0.80278(12)
H3_52 H 0.4225 0.2028 0.7973
C14_52 C 0.4573(2) 0.2456(2) 0.7869(2)
C15_51 C 0.4873(2) 0.25866(19) 0.80331(17)
O5_44 O 0.48558(16) 0.17382(15) 0.87400(14)
S3_52 S 0.49940(7) 0.23433(6) 0.83571(6)
C16_52 C 0.39675(18) 0.28485(19) 0.67954(17)
C17_52 C 0.41982(17) 0.28271(17) 0.70840(17)
C18_52 C 0.44722(12) 0.30825(15) 0.71448(12)
H4_52 H 0.4527 0.3275 0.7028
C19_52 C 0.4631(2) 0.2927(2) 0.7456(2)
C20_51 C 0.44669(17) 0.2627(2) 0.75866(19)
S4_52 S 0.41429(6) 0.25060(7) 0.73433(6)
C21_52 C 0.7909(3) 0.1808(2) 0.8535(3)
C22_52 C 0.7861(2) 0.2085(2) 0.83018(19)
C23_52 C 0.75653(17) 0.23280(15) 0.83309(15)
H5_52 H 0.7380 0.2330 0.8471
C24_52 C 0.7673(2) 0.2556(2) 0.8065(2)
C25_52 C 0.7946(2) 0.2480(2) 0.7849(2)
O10_52 O 0.77019(18) 0.17774(17) 0.87647(16)
S5_52 S 0.81551(9) 0.21364(8) 0.79908(7)
C26_52 C 0.8535(3) 0.2909(3) 0.6808(2)
C27_52 C 0.83018(19) 0.2861(2) 0.7085(2)
C28_52 C 0.83309(15) 0.25653(17) 0.73280(15)
H6_52 H 0.8471 0.2380 0.7330
C29_52 C 0.8065(2) 0.2673(2) 0.7556(2)
C30_52 C 0.7849(2) 0.2946(2) 0.7480(2)
O12_52 O 0.87647(16) 0.27019(18) 0.67774(17)
S6_52 S 0.79908(7) 0.31551(9) 0.71364(8)
C11_53 C 0.07046(17) 0.35325(18) 0.28485(19)
C12_53 C 0.04160(17) 0.33018(17) 0.28271(17)
C13_53 C 0.03552(12) 0.30278(12) 0.30825(15)
H3_53 H 0.0472 0.2973 0.3275
C14_53 C 0.0044(2) 0.2869(2) 0.2927(2)
O5_45 O 0.07618(15) 0.37400(14) 0.26442(16)
S3_53 S 0.01567(6) 0.33571(6) 0.25060(7)
H5_53 H 0.0170 0.3471 0.0120
C21_53 C 0.0692(2) 0.3535(3) 0.9591(3)
C22_53 C 0.0415(2) 0.33018(19) 0.9639(2)
C23_53 C 0.01720(15) 0.33309(15) 0.99347(17)
C25_53 C 0.0020(2) 0.2849(2) 0.9554(2)
O10_53 O 0.07226(17) 0.37647(16) 0.97981(18)
S5_53 S 0.03636(8) 0.29908(7) 0.93449(9)
H6_53 H 0.0120 0.2330 0.9029
C1_53 C 0.89675(18) 0.28485(19) 0.17954(17)
C2_53 C 0.91982(17) 0.28271(17) 0.20840(17)
C3_53 C 0.94722(12) 0.30825(15) 0.21448(12)
H1_53 H 0.9527 0.3275 0.2028
C4_53 C 0.9631(2) 0.2927(2) 0.2456(2)
C5_52 C 0.94669(17) 0.2627(2) 0.25866(19)
C6_53 C 0.8965(3) 0.2909(3) 0.0692(2)
C7_53 C 0.91982(19) 0.2861(2) 0.0415(2)
C8_53 C 0.91691(15) 0.25653(17) 0.01720(15)
H2_53 H 0.9029 0.2380 0.0170
C10_53 C 0.9651(2) 0.2946(2) 0.0020(2)
O4_53 O 0.87353(16) 0.27019(18) 0.07226(17)
S1_53 S 0.91429(6) 0.25060(7) 0.23433(6)
S2_53 S 0.95092(7) 0.31551(9) 0.03636(8)
C15_52 C 0.99134(19) 0.30331(17) 0.2627(2)
C16_53 C 0.96515(19) 0.17954(17) 0.35325(18)
C17_53 C 0.96729(17) 0.20840(17) 0.33018(17)
C18_53 C 0.94175(15) 0.21448(12) 0.30278(12)
H4_53 H 0.9225 0.2028 0.2973
C19_53 C 0.9573(2) 0.2456(2) 0.2869(2)
C20_52 C 0.9873(2) 0.25866(19) 0.30331(17)
S4_53 S 0.99940(7) 0.23433(6) 0.33571(6)
C9_53 C 0.9435(2) 0.2673(2) 0.9944(2)
C24_53 C 0.9944(2) 0.3065(2) 0.9827(2)
C26_53 C 0.9591(3) 0.1808(2) 0.8965(3)
C27_53 C 0.9639(2) 0.2085(2) 0.91982(19)
C28_53 C 0.99347(17) 0.23280(15) 0.91691(15)
C29_53 C 0.9827(2) 0.2556(2) 0.9435(2)
C30_53 C 0.9554(2) 0.2480(2) 0.9651(2)
O12_53 O 0.97981(18) 0.17774(17) 0.87353(16)
S6_53 S 0.93449(9) 0.21364(8) 0.95092(7)
C1_54 C 0.39675(18) 0.46515(19) 0.07046(17)
C2_54 C 0.41982(17) 0.46729(17) 0.04160(17)
C3_54 C 0.44722(12) 0.44175(15) 0.03552(12)
H1_54 H 0.4527 0.4225 0.0472
C4_54 C 0.4631(2) 0.4573(2) 0.0044(2)
C6_54 C 0.3965(3) 0.4591(3) 0.1808(2)
C7_54 C 0.41982(19) 0.4639(2) 0.2085(2)
C8_54 C 0.41691(15) 0.49347(17) 0.23280(15)
H2_54 H 0.4029 0.5120 0.2330
C9_54 C 0.4435(2) 0.4827(2) 0.2556(2)
C10_54 C 0.4651(2) 0.4554(2) 0.2480(2)
O4_54 O 0.37353(16) 0.47981(18) 0.17774(17)
S1_54 S 0.41429(6) 0.49940(7) 0.01567(6)
S2_54 S 0.45092(7) 0.43449(9) 0.21364(8)
C21_54 C 0.5692(2) 0.3965(3) 0.2909(3)
C22_54 C 0.5415(2) 0.41982(19) 0.2861(2)
C23_54 C 0.51720(15) 0.41691(15) 0.25653(17)
H5_54 H 0.5170 0.4029 0.2380
C24_54 C 0.4944(2) 0.4435(2) 0.2673(2)
C25_54 C 0.5020(2) 0.4651(2) 0.2946(2)
O10_54 O 0.57226(17) 0.37353(16) 0.27019(18)
S5_54 S 0.53636(8) 0.45092(7) 0.31551(9)
C26_54 C 0.4591(3) 0.5692(2) 0.3535(3)
C27_54 C 0.4639(2) 0.5415(2) 0.33018(19)
C28_54 C 0.49347(17) 0.51720(15) 0.33309(15)
H6_54 H 0.5120 0.5170 0.3471
C29_54 C 0.4827(2) 0.4944(2) 0.3065(2)
C30_54 C 0.4554(2) 0.5020(2) 0.2849(2)
O12_54 O 0.47981(18) 0.57226(17) 0.37647(16)
S6_54 S 0.43449(9) 0.53636(8) 0.29908(7)
C5_53 C 0.44669(17) 0.4873(2) 0.99134(19)
C11_54 C 0.57046(17) 0.39675(18) 0.96515(19)
C12_54 C 0.54160(17) 0.41982(17) 0.96729(17)
C13_54 C 0.53552(12) 0.44722(12) 0.94175(15)
H3_54 H 0.5472 0.4527 0.9225
C14_54 C 0.5044(2) 0.4631(2) 0.9573(2)
C15_53 C 0.49134(19) 0.44669(17) 0.9873(2)
O5_46 O 0.57618(15) 0.37600(14) 0.98558(16)
S3_54 S 0.51567(6) 0.41429(6) 0.99940(7)
C16_54 C 0.46515(19) 0.57046(17) 0.89675(18)
C17_54 C 0.46729(17) 0.54160(17) 0.91982(17)
C18_54 C 0.44175(15) 0.53552(12) 0.94722(12)
H4_54 H 0.4225 0.5472 0.9527
C19_54 C 0.4573(2) 0.5044(2) 0.9631(2)
C20_53 C 0.4873(2) 0.49134(19) 0.94669(17)
S4_54 S 0.49940(7) 0.51567(6) 0.91429(6)
C1_55 C 0.35325(18) 0.78485(19) 0.57046(17)
C2_55 C 0.33018(17) 0.78271(17) 0.54160(17)
C3_55 C 0.30278(12) 0.80825(15) 0.53552(12)
H1_55 H 0.2973 0.8275 0.5472
C4_55 C 0.2869(2) 0.7927(2) 0.5044(2)
C5_54 C 0.30331(17) 0.7627(2) 0.49134(19)
C6_55 C 0.3535(3) 0.7909(3) 0.6808(2)
C7_55 C 0.33018(19) 0.7861(2) 0.7085(2)
C8_55 C 0.33309(15) 0.75653(17) 0.73280(15)
H2_55 H 0.3471 0.7380 0.7330
C9_55 C 0.3065(2) 0.7673(2) 0.7556(2)
C10_55 C 0.2849(2) 0.7946(2) 0.7480(2)
O4_55 O 0.37647(16) 0.77019(18) 0.67774(17)
S1_55 S 0.33571(6) 0.75060(7) 0.51567(6)
S2_55 S 0.29908(7) 0.81551(9) 0.71364(8)
C11_55 C 0.17954(17) 0.85325(18) 0.46515(19)
C12_55 C 0.20840(17) 0.83018(17) 0.46729(17)
C13_55 C 0.21448(12) 0.80278(12) 0.44175(15)
H3_55 H 0.2028 0.7973 0.4225
C14_55 C 0.2456(2) 0.7869(2) 0.4573(2)
C15_54 C 0.25866(19) 0.80331(17) 0.4873(2)
O5_47 O 0.17382(15) 0.87400(14) 0.48558(16)
S3_55 S 0.23433(6) 0.83571(6) 0.49940(7)
C16_55 C 0.28485(19) 0.67954(17) 0.39675(18)
C17_55 C 0.28271(17) 0.70840(17) 0.41982(17)
C18_55 C 0.30825(15) 0.71448(12) 0.44722(12)
H4_55 H 0.3275 0.7028 0.4527
C19_55 C 0.2927(2) 0.7456(2) 0.4631(2)
C20_54 C 0.2627(2) 0.75866(19) 0.44669(17)
S4_55 S 0.25060(7) 0.73433(6) 0.41429(6)
C21_55 C 0.1808(2) 0.8535(3) 0.7909(3)
C22_55 C 0.2085(2) 0.83018(19) 0.7861(2)
C23_55 C 0.23280(15) 0.83309(15) 0.75653(17)
H5_55 H 0.2330 0.8471 0.7380
C24_55 C 0.2556(2) 0.8065(2) 0.7673(2)
C25_55 C 0.2480(2) 0.7849(2) 0.7946(2)
O10_55 O 0.17774(17) 0.87647(16) 0.77019(18)
S5_55 S 0.21364(8) 0.79908(7) 0.81551(9)
C26_55 C 0.2909(3) 0.6808(2) 0.8535(3)
C27_55 C 0.2861(2) 0.7085(2) 0.83018(19)
C28_55 C 0.25653(17) 0.73280(15) 0.83309(15)
H6_55 H 0.2380 0.7330 0.8471
C29_55 C 0.2673(2) 0.7556(2) 0.8065(2)
C30_55 C 0.2946(2) 0.7480(2) 0.7849(2)
O12_55 O 0.27019(18) 0.67774(17) 0.87647(16)
S6_55 S 0.31551(9) 0.71364(8) 0.79908(7)
H2_56 H 0.8471 0.0120 0.5170
C16_56 C 0.78485(19) 0.07046(17) 0.85325(18)
C17_56 C 0.78271(17) 0.04160(17) 0.83018(17)
C18_56 C 0.80825(15) 0.03552(12) 0.80278(12)
H4_56 H 0.8275 0.0472 0.7973
C19_56 C 0.7927(2) 0.0044(2) 0.7869(2)
S4_56 S 0.75060(7) 0.01567(6) 0.83571(6)
C26_56 C 0.7909(3) 0.0692(2) 0.3965(3)
C27_56 C 0.7861(2) 0.0415(2) 0.41982(19)
C28_56 C 0.75653(17) 0.01720(15) 0.41691(15)
H6_56 H 0.7380 0.0170 0.4029
C30_56 C 0.7946(2) 0.0020(2) 0.4651(2)
O12_56 O 0.77019(18) 0.07226(17) 0.37353(16)
S6_56 S 0.81551(9) 0.03636(8) 0.45092(7)
C1_56 C 0.85325(18) 0.96515(19) 0.67954(17)
C2_56 C 0.83018(17) 0.96729(17) 0.70840(17)
C3_56 C 0.80278(12) 0.94175(15) 0.71448(12)
H1_56 H 0.7973 0.9225 0.7028
C4_56 C 0.7869(2) 0.9573(2) 0.7456(2)
C5_55 C 0.80331(17) 0.9873(2) 0.75866(19)
C6_56 C 0.8535(3) 0.9591(3) 0.5692(2)
C7_56 C 0.83018(19) 0.9639(2) 0.5415(2)
C8_56 C 0.83309(15) 0.99347(17) 0.51720(15)
C9_56 C 0.8065(2) 0.9827(2) 0.4944(2)
C10_56 C 0.7849(2) 0.9554(2) 0.5020(2)
O4_56 O 0.87647(16) 0.97981(18) 0.57226(17)
S1_56 S 0.83571(6) 0.99940(7) 0.73433(6)
S2_56 S 0.79908(7) 0.93449(9) 0.53636(8)
C11_56 C 0.67954(17) 0.89675(18) 0.78485(19)
C12_56 C 0.70840(17) 0.91982(17) 0.78271(17)
C13_56 C 0.71448(12) 0.94722(12) 0.80825(15)
H3_56 H 0.7028 0.9527 0.8275
C14_56 C 0.7456(2) 0.9631(2) 0.7927(2)
C15_55 C 0.75866(19) 0.94669(17) 0.7627(2)
O5_48 O 0.67382(15) 0.87600(14) 0.76442(16)
S3_56 S 0.73433(6) 0.91429(6) 0.75060(7)
C20_55 C 0.7627(2) 0.99134(19) 0.80331(17)
C21_56 C 0.6808(2) 0.8965(3) 0.4591(3)
C22_56 C 0.7085(2) 0.91982(19) 0.4639(2)
C23_56 C 0.73280(15) 0.91691(15) 0.49347(17)
H5_56 H 0.7330 0.9029 0.5120
C24_56 C 0.7556(2) 0.9435(2) 0.4827(2)
C25_56 C 0.7480(2) 0.9651(2) 0.4554(2)
O10_56 O 0.67774(17) 0.87353(16) 0.47981(18)
S5_56 S 0.71364(8) 0.95092(7) 0.43449(9)
C29_56 C 0.7673(2) 0.9944(2) 0.4435(2)
C1_57 C 0.82046(17) 0.03485(19) 0.14675(18)
C2_57 C 0.79160(17) 0.03271(17) 0.16982(17)
C3_57 C 0.78552(12) 0.05825(15) 0.19722(12)
H1_57 H 0.7972 0.0775 0.2027
C4_57 C 0.7544(2) 0.0427(2) 0.2131(2)
C5_56 C 0.74134(19) 0.0127(2) 0.19669(17)
S1_57 S 0.76567(6) 0.00060(7) 0.16429(6)
C11_57 C 0.71515(19) 0.10325(18) 0.32046(17)
C12_57 C 0.71729(17) 0.08018(17) 0.29160(17)
C13_57 C 0.69175(15) 0.05278(12) 0.28552(12)
H3_57 H 0.6725 0.0473 0.2972
C14_57 C 0.7073(2) 0.0369(2) 0.2544(2)
C15_56 C 0.7373(2) 0.05331(17) 0.24134(19)
S3_57 S 0.74940(7) 0.08571(6) 0.26567(6)
C20_56 C 0.69669(17) 0.00866(19) 0.2373(2)
C16_57 C 0.64675(18) 0.92954(17) 0.21515(19)
C17_57 C 0.66982(17) 0.95840(17) 0.21729(17)
C18_57 C 0.69722(12) 0.96448(12) 0.19175(15)
H4_57 H 0.7027 0.9528 0.1725
C19_57 C 0.7131(2) 0.9956(2) 0.2073(2)
S4_57 S 0.66429(6) 0.98433(6) 0.24940(7)
C5_57 C 0.00866(19) 0.2373(2) 0.69669(17)
C11_58 C 0.03485(19) 0.14675(18) 0.82046(17)
C12_58 C 0.03271(17) 0.16982(17) 0.79160(17)
C13_58 C 0.05825(15) 0.19722(12) 0.78552(12)
H3_58 H 0.0775 0.2027 0.7972
C14_58 C 0.0427(2) 0.2131(2) 0.7544(2)
C15_57 C 0.0127(2) 0.19669(17) 0.74134(19)
S3_58 S 0.00060(7) 0.16429(6) 0.76567(6)
C16_58 C 0.10325(18) 0.32046(17) 0.71515(19)
C17_58 C 0.08018(17) 0.29160(17) 0.71729(17)
C18_58 C 0.05278(12) 0.28552(12) 0.69175(15)
H4_58 H 0.0473 0.2972 0.6725
C19_58 C 0.0369(2) 0.2544(2) 0.7073(2)
C20_57 C 0.05331(17) 0.24134(19) 0.7373(2)
S4_58 S 0.08571(6) 0.26567(6) 0.74940(7)
C1_58 C 0.92954(17) 0.21515(19) 0.64675(18)
C2_58 C 0.95840(17) 0.21729(17) 0.66982(17)
C3_58 C 0.96448(12) 0.19175(15) 0.69722(12)
H1_58 H 0.9528 0.1725 0.7027
C4_58 C 0.9956(2) 0.2073(2) 0.7131(2)
S1_58 S 0.98433(6) 0.24940(7) 0.66429(6)
C1_59 C 0.42954(17) 0.53485(19) 0.60325(18)
C2_59 C 0.45840(17) 0.53271(17) 0.58018(17)
C3_59 C 0.46448(12) 0.55825(15) 0.55278(12)
H1_59 H 0.4528 0.5775 0.5473
C4_59 C 0.4956(2) 0.5427(2) 0.5369(2)
C5_58 C 0.50866(19) 0.5127(2) 0.55331(17)
S1_59 S 0.48433(6) 0.50060(7) 0.58571(6)
C11_59 C 0.53485(19) 0.60325(18) 0.42954(17)
C12_59 C 0.53271(17) 0.58018(17) 0.45840(17)
C13_59 C 0.55825(15) 0.55278(12) 0.46448(12)
H3_59 H 0.5775 0.5473 0.4528
C14_59 C 0.5427(2) 0.5369(2) 0.4956(2)
C15_58 C 0.5127(2) 0.55331(17) 0.50866(19)
S3_59 S 0.50060(7) 0.58571(6) 0.48433(6)
C16_59 C 0.60325(18) 0.42954(17) 0.53485(19)
C17_59 C 0.58018(17) 0.45840(17) 0.53271(17)
C18_59 C 0.55278(12) 0.46448(12) 0.55825(15)
H4_59 H 0.5473 0.4528 0.5775
C19_59 C 0.5369(2) 0.4956(2) 0.5427(2)
C20_58 C 0.55331(17) 0.50866(19) 0.5127(2)
S4_59 S 0.58571(6) 0.48433(6) 0.50060(7)
C1_60 C 0.32046(17) 0.71515(19) 0.10325(18)
C2_60 C 0.29160(17) 0.71729(17) 0.08018(17)
C3_60 C 0.28552(12) 0.69175(15) 0.05278(12)
H1_60 H 0.2972 0.6725 0.0473
C4_60 C 0.2544(2) 0.7073(2) 0.0369(2)
C5_59 C 0.24134(19) 0.7373(2) 0.05331(17)
S1_60 S 0.26567(6) 0.74940(7) 0.08571(6)
C15_59 C 0.2373(2) 0.69669(17) 0.00866(19)
C16_60 C 0.14675(18) 0.82046(17) 0.03485(19)
C17_60 C 0.16982(17) 0.79160(17) 0.03271(17)
C18_60 C 0.19722(12) 0.78552(12) 0.05825(15)
H4_60 H 0.2027 0.7972 0.0775
C19_60 C 0.2131(2) 0.7544(2) 0.0427(2)
C20_59 C 0.19669(17) 0.74134(19) 0.0127(2)
S4_60 S 0.16429(6) 0.76567(6) 0.00060(7)
C11_60 C 0.21515(19) 0.64675(18) 0.92954(17)
C12_60 C 0.21729(17) 0.66982(17) 0.95840(17)
C13_60 C 0.19175(15) 0.69722(12) 0.96448(12)
H3_60 H 0.1725 0.7027 0.9528
C14_60 C 0.2073(2) 0.7131(2) 0.9956(2)
S3_60 S 0.24940(7) 0.66429(6) 0.98433(6)
C6_57 C 0.6465(3) 0.4308(2) 0.0409(3)
C7_57 C 0.66982(19) 0.4585(2) 0.0361(2)
C8_57 C 0.66691(15) 0.48280(15) 0.00653(17)
C9_57 C 0.6935(2) 0.5056(2) 0.0173(2)
C10_57 C 0.7151(2) 0.4980(2) 0.0446(2)
O4_57 O 0.62353(16) 0.42774(17) 0.02019(18)
S2_57 S 0.70092(7) 0.46364(8) 0.06551(9)
C21_57 C 0.8192(2) 0.5409(3) 0.1035(3)
C22_57 C 0.7915(2) 0.5361(2) 0.08018(19)
C23_57 C 0.76720(15) 0.50653(17) 0.08309(15)
H5_57 H 0.7670 0.4880 0.0971
C24_57 C 0.7444(2) 0.5173(2) 0.0565(2)
C25_57 C 0.7520(2) 0.5446(2) 0.0349(2)
O10_57 O 0.82226(17) 0.52019(18) 0.12647(16)
S5_57 S 0.78636(8) 0.56551(9) 0.04908(7)
C29_57 C 0.7327(2) 0.5565(2) 0.0056(2)
H2_57 H 0.6529 0.4830 0.9880
C26_57 C 0.7091(3) 0.6035(3) 0.9308(2)
C27_57 C 0.7139(2) 0.58018(19) 0.9585(2)
C28_57 C 0.74347(17) 0.58309(15) 0.98280(15)
H6_57 H 0.7620 0.5971 0.9830
C30_57 C 0.7054(2) 0.5349(2) 0.9980(2)
O12_57 O 0.72981(18) 0.62647(16) 0.92774(17)
S6_57 S 0.68449(9) 0.54908(7) 0.96364(8)
C6_58 C 0.1465(3) 0.3192(2) 0.2091(3)
C7_58 C 0.16982(19) 0.2915(2) 0.2139(2)
C8_58 C 0.16691(15) 0.26720(15) 0.24347(17)
H2_58 H 0.1529 0.2670 0.2620
C9_58 C 0.1935(2) 0.2444(2) 0.2327(2)
C10_58 C 0.2151(2) 0.2520(2) 0.2054(2)
O4_58 O 0.12353(16) 0.32226(17) 0.22981(18)
S2_58 S 0.20092(7) 0.28636(8) 0.18449(9)
C21_58 C 0.3192(2) 0.2091(3) 0.1465(3)
C22_58 C 0.2915(2) 0.2139(2) 0.16982(19)
C23_58 C 0.26720(15) 0.24347(17) 0.16691(15)
H5_58 H 0.2670 0.2620 0.1529
C24_58 C 0.2444(2) 0.2327(2) 0.1935(2)
C25_58 C 0.2520(2) 0.2054(2) 0.2151(2)
O10_58 O 0.32226(17) 0.22981(18) 0.12353(16)
S5_58 S 0.28636(8) 0.18449(9) 0.20092(7)
C26_58 C 0.2091(3) 0.1465(3) 0.3192(2)
C27_58 C 0.2139(2) 0.16982(19) 0.2915(2)
C28_58 C 0.24347(17) 0.16691(15) 0.26720(15)
H6_58 H 0.2620 0.1529 0.2670
C29_58 C 0.2327(2) 0.1935(2) 0.2444(2)
C30_58 C 0.2054(2) 0.2151(2) 0.2520(2)
O12_58 O 0.22981(18) 0.12353(16) 0.32226(17)
S6_58 S 0.18449(9) 0.20092(7) 0.28636(8)
C6_59 C 0.1035(3) 0.8192(2) 0.5409(3)
C7_59 C 0.08018(19) 0.7915(2) 0.5361(2)
C8_59 C 0.08309(15) 0.76720(15) 0.50653(17)
H2_59 H 0.0971 0.7670 0.4880
C9_59 C 0.0565(2) 0.7444(2) 0.5173(2)
C10_59 C 0.0349(2) 0.7520(2) 0.5446(2)
O4_59 O 0.12647(16) 0.82226(17) 0.52019(18)
S2_59 S 0.04908(7) 0.78636(8) 0.56551(9)
C24_59 C 0.0056(2) 0.7327(2) 0.5565(2)
C26_59 C 0.0409(3) 0.6465(3) 0.4308(2)
C27_59 C 0.0361(2) 0.66982(19) 0.4585(2)
C28_59 C 0.00653(17) 0.66691(15) 0.48280(15)
C29_59 C 0.0173(2) 0.6935(2) 0.5056(2)
C30_59 C 0.0446(2) 0.7151(2) 0.4980(2)
O12_59 O 0.02019(18) 0.62353(16) 0.42774(17)
S6_59 S 0.06551(9) 0.70092(7) 0.46364(8)
C21_59 C 0.9308(2) 0.7091(3) 0.6035(3)
C22_59 C 0.9585(2) 0.7139(2) 0.58018(19)
C23_59 C 0.98280(15) 0.74347(17) 0.58309(15)
H5_59 H 0.9830 0.7620 0.5971
C25_59 C 0.9980(2) 0.7054(2) 0.5349(2)
O10_59 O 0.92774(17) 0.72981(18) 0.62647(16)
S5_59 S 0.96364(8) 0.68449(9) 0.54908(7)
H6_59 H 0.9880 0.6529 0.4830
C9_60 C 0.5565(2) 0.0056(2) 0.7327(2)
C21_60 C 0.4308(2) 0.0409(3) 0.6465(3)
C22_60 C 0.4585(2) 0.0361(2) 0.66982(19)
C23_60 C 0.48280(15) 0.00653(17) 0.66691(15)
C24_60 C 0.5056(2) 0.0173(2) 0.6935(2)
C25_60 C 0.4980(2) 0.0446(2) 0.7151(2)
O10_60 O 0.42774(17) 0.02019(18) 0.62353(16)
S5_60 S 0.46364(8) 0.06551(9) 0.70092(7)
C26_60 C 0.5409(3) 0.1035(3) 0.8192(2)
C27_60 C 0.5361(2) 0.08018(19) 0.7915(2)
C28_60 C 0.50653(17) 0.08309(15) 0.76720(15)
H6_60 H 0.4880 0.0971 0.7670
C29_60 C 0.5173(2) 0.0565(2) 0.7444(2)
C30_60 C 0.5446(2) 0.0349(2) 0.7520(2)
O12_60 O 0.52019(18) 0.12647(16) 0.82226(17)
S6_60 S 0.56551(9) 0.04908(7) 0.78636(8)
C6_60 C 0.6035(3) 0.9308(2) 0.7091(3)
C7_60 C 0.58018(19) 0.9585(2) 0.7139(2)
C8_60 C 0.58309(15) 0.98280(15) 0.74347(17)
H2_60 H 0.5971 0.9830 0.7620
C10_60 C 0.5349(2) 0.9980(2) 0.7054(2)
O4_60 O 0.62647(16) 0.92774(17) 0.72981(18)
S2_60 S 0.54908(7) 0.96364(8) 0.68449(9)
H5_60 H 0.4830 0.9880 0.6529
C1_61 C 0.07046(17) 0.89675(18) 0.96515(19)
C2_61 C 0.04160(17) 0.91982(17) 0.96729(17)
C3_61 C 0.03552(12) 0.94722(12) 0.94175(15)
H1_61 H 0.0472 0.9527 0.9225
C4_61 C 0.0044(2) 0.9631(2) 0.9573(2)
S1_61 S 0.01567(6) 0.91429(6) 0.99940(7)
C11_61 C 0.96515(19) 0.07046(17) 0.89675(18)
C12_61 C 0.96729(17) 0.04160(17) 0.91982(17)
C13_61 C 0.94175(15) 0.03552(12) 0.94722(12)
H3_61 H 0.9225 0.0472 0.9527
C14_61 C 0.9573(2) 0.0044(2) 0.9631(2)
S3_61 S 0.99940(7) 0.01567(6) 0.91429(6)
C16_61 C 0.89675(18) 0.96515(19) 0.07046(17)
C17_61 C 0.91982(17) 0.96729(17) 0.04160(17)
C18_61 C 0.94722(12) 0.94175(15) 0.03552(12)
H4_61 H 0.9527 0.9225 0.0472
C19_61 C 0.9631(2) 0.9573(2) 0.0044(2)
S4_61 S 0.91429(6) 0.99940(7) 0.01567(6)
C1_62 C 0.17954(17) 0.39675(18) 0.78485(19)
C2_62 C 0.20840(17) 0.41982(17) 0.78271(17)
C3_62 C 0.21448(12) 0.44722(12) 0.80825(15)
H1_62 H 0.2028 0.4527 0.8275
C4_62 C 0.2456(2) 0.4631(2) 0.7927(2)
C5_60 C 0.25866(19) 0.44669(17) 0.7627(2)
S1_62 S 0.23433(6) 0.41429(6) 0.75060(7)
C11_62 C 0.28485(19) 0.57046(17) 0.85325(18)
C12_62 C 0.28271(17) 0.54160(17) 0.83018(17)
C13_62 C 0.30825(15) 0.53552(12) 0.80278(12)
H3_62 H 0.3275 0.5472 0.7973
C14_62 C 0.2927(2) 0.5044(2) 0.7869(2)
C15_60 C 0.2627(2) 0.49134(19) 0.80331(17)
S3_62 S 0.25060(7) 0.51567(6) 0.83571(6)
C16_62 C 0.35325(18) 0.46515(19) 0.67954(17)
C17_62 C 0.33018(17) 0.46729(17) 0.70840(17)
C18_62 C 0.30278(12) 0.44175(15) 0.71448(12)
H4_62 H 0.2973 0.4225 0.7028
C19_62 C 0.2869(2) 0.4573(2) 0.7456(2)
C20_60 C 0.30331(17) 0.4873(2) 0.75866(19)
S4_62 S 0.33571(6) 0.49940(7) 0.73433(6)
C1_63 C 0.67954(17) 0.35325(18) 0.46515(19)
C2_63 C 0.70840(17) 0.33018(17) 0.46729(17)
C3_63 C 0.71448(12) 0.30278(12) 0.44175(15)
H1_63 H 0.7028 0.2973 0.4225
C4_63 C 0.7456(2) 0.2869(2) 0.4573(2)
C5_61 C 0.75866(19) 0.30331(17) 0.4873(2)
S1_63 S 0.73433(6) 0.33571(6) 0.49940(7)
C11_63 C 0.78485(19) 0.17954(17) 0.39675(18)
C12_63 C 0.78271(17) 0.20840(17) 0.41982(17)
C13_63 C 0.80825(15) 0.21448(12) 0.44722(12)
H3_63 H 0.8275 0.2028 0.4527
C14_63 C 0.7927(2) 0.2456(2) 0.4631(2)
C15_61 C 0.7627(2) 0.25866(19) 0.44669(17)
S3_63 S 0.75060(7) 0.23433(6) 0.41429(6)
C16_63 C 0.85325(18) 0.28485(19) 0.57046(17)
C17_63 C 0.83018(17) 0.28271(17) 0.54160(17)
C18_63 C 0.80278(12) 0.30825(15) 0.53552(12)
H4_63 H 0.7973 0.3275 0.5472
C19_63 C 0.7869(2) 0.2927(2) 0.5044(2)
C20_61 C 0.80331(17) 0.2627(2) 0.49134(19)
S4_63 S 0.83571(6) 0.25060(7) 0.51567(6)
C1_64 C 0.57046(17) 0.85325(18) 0.28485(19)
C2_64 C 0.54160(17) 0.83018(17) 0.28271(17)
C3_64 C 0.53552(12) 0.80278(12) 0.30825(15)
H1_64 H 0.5472 0.7973 0.3275
C4_64 C 0.5044(2) 0.7869(2) 0.2927(2)
C5_62 C 0.49134(19) 0.80331(17) 0.2627(2)
S1_64 S 0.51567(6) 0.83571(6) 0.25060(7)
C11_64 C 0.46515(19) 0.67954(17) 0.35325(18)
C12_64 C 0.46729(17) 0.70840(17) 0.33018(17)
C13_64 C 0.44175(15) 0.71448(12) 0.30278(12)
H3_64 H 0.4225 0.7028 0.2973
C14_64 C 0.4573(2) 0.7456(2) 0.2869(2)
C15_62 C 0.4873(2) 0.75866(19) 0.30331(17)
S3_64 S 0.49940(7) 0.73433(6) 0.33571(6)
C16_64 C 0.39675(18) 0.78485(19) 0.17954(17)
C17_64 C 0.41982(17) 0.78271(17) 0.20840(17)
C18_64 C 0.44722(12) 0.80825(15) 0.21448(12)
H4_64 H 0.4527 0.8275 0.2028
C19_64 C 0.4631(2) 0.7927(2) 0.2456(2)
C20_62 C 0.44669(17) 0.7627(2) 0.25866(19)
S4_64 S 0.41429(6) 0.75060(7) 0.23433(6)
C21_61 C 0.0692(2) 0.8535(3) 0.4591(3)
C22_61 C 0.0415(2) 0.83018(19) 0.4639(2)
C23_61 C 0.01720(15) 0.83309(15) 0.49347(17)
H5_61 H 0.0170 0.8471 0.5120
C25_61 C 0.0020(2) 0.7849(2) 0.4554(2)
O10_61 O 0.07226(17) 0.87647(16) 0.47981(18)
S5_61 S 0.03636(8) 0.79908(7) 0.43449(9)
H6_61 H 0.0120 0.7330 0.4029
C6_61 C 0.8965(3) 0.7909(3) 0.5692(2)
C7_61 C 0.91982(19) 0.7861(2) 0.5415(2)
C8_61 C 0.91691(15) 0.75653(17) 0.51720(15)
H2_61 H 0.9029 0.7380 0.5170
C9_61 C 0.9435(2) 0.7673(2) 0.4944(2)
C10_61 C 0.9651(2) 0.7946(2) 0.5020(2)
O4_61 O 0.87353(16) 0.77019(18) 0.57226(17)
S2_61 S 0.95092(7) 0.81551(9) 0.53636(8)
C24_61 C 0.9944(2) 0.8065(2) 0.4827(2)
C26_61 C 0.9591(3) 0.6808(2) 0.3965(3)
C27_61 C 0.9639(2) 0.7085(2) 0.41982(19)
C28_61 C 0.99347(17) 0.73280(15) 0.41691(15)
C29_61 C 0.9827(2) 0.7556(2) 0.4435(2)
C30_61 C 0.9554(2) 0.7480(2) 0.4651(2)
O12_61 O 0.97981(18) 0.67774(17) 0.37353(16)
S6_61 S 0.93449(9) 0.71364(8) 0.45092(7)
H2_62 H 0.4029 0.0120 0.7330
C26_62 C 0.4591(3) 0.0692(2) 0.8535(3)
C27_62 C 0.4639(2) 0.0415(2) 0.83018(19)
C28_62 C 0.49347(17) 0.01720(15) 0.83309(15)
H6_62 H 0.5120 0.0170 0.8471
C30_62 C 0.4554(2) 0.0020(2) 0.7849(2)
O12_62 O 0.47981(18) 0.07226(17) 0.87647(16)
S6_62 S 0.43449(9) 0.03636(8) 0.79908(7)
C6_62 C 0.3965(3) 0.9591(3) 0.6808(2)
C7_62 C 0.41982(19) 0.9639(2) 0.7085(2)
C8_62 C 0.41691(15) 0.99347(17) 0.73280(15)
C9_62 C 0.4435(2) 0.9827(2) 0.7556(2)
C10_62 C 0.4651(2) 0.9554(2) 0.7480(2)
O4_62 O 0.37353(16) 0.97981(18) 0.67774(17)
S2_62 S 0.45092(7) 0.93449(9) 0.71364(8)
C21_62 C 0.5692(2) 0.8965(3) 0.7909(3)
C22_62 C 0.5415(2) 0.91982(19) 0.7861(2)
C23_62 C 0.51720(15) 0.91691(15) 0.75653(17)
H5_62 H 0.5170 0.9029 0.7380
C24_62 C 0.4944(2) 0.9435(2) 0.7673(2)
C25_62 C 0.5020(2) 0.9651(2) 0.7946(2)
O10_62 O 0.57226(17) 0.87353(16) 0.77019(18)
S5_62 S 0.53636(8) 0.95092(7) 0.81551(9)
C29_62 C 0.4827(2) 0.9944(2) 0.8065(2)
C6_63 C 0.3535(3) 0.2909(3) 0.1808(2)
C7_63 C 0.33018(19) 0.2861(2) 0.2085(2)
C8_63 C 0.33309(15) 0.25653(17) 0.23280(15)
H2_63 H 0.3471 0.2380 0.2330
C9_63 C 0.3065(2) 0.2673(2) 0.2556(2)
C10_63 C 0.2849(2) 0.2946(2) 0.2480(2)
O4_63 O 0.37647(16) 0.27019(18) 0.17774(17)
S2_63 S 0.29908(7) 0.31551(9) 0.21364(8)
C21_63 C 0.1808(2) 0.3535(3) 0.2909(3)
C22_63 C 0.2085(2) 0.33018(19) 0.2861(2)
C23_63 C 0.23280(15) 0.33309(15) 0.25653(17)
H5_63 H 0.2330 0.3471 0.2380
C24_63 C 0.2556(2) 0.3065(2) 0.2673(2)
C25_63 C 0.2480(2) 0.2849(2) 0.2946(2)
O10_63 O 0.17774(17) 0.37647(16) 0.27019(18)
S5_63 S 0.21364(8) 0.29908(7) 0.31551(9)
C26_63 C 0.2909(3) 0.1808(2) 0.3535(3)
C27_63 C 0.2861(2) 0.2085(2) 0.33018(19)
C28_63 C 0.25653(17) 0.23280(15) 0.33309(15)
H6_63 H 0.2380 0.2330 0.3471
C29_63 C 0.2673(2) 0.2556(2) 0.3065(2)
C30_63 C 0.2946(2) 0.2480(2) 0.2849(2)
O12_63 O 0.27019(18) 0.17774(17) 0.37647(16)
S6_63 S 0.31551(9) 0.21364(8) 0.29908(7)
C6_64 C 0.8535(3) 0.4591(3) 0.0692(2)
C7_64 C 0.83018(19) 0.4639(2) 0.0415(2)
C8_64 C 0.83309(15) 0.49347(17) 0.01720(15)
H2_64 H 0.8471 0.5120 0.0170
C10_64 C 0.7849(2) 0.4554(2) 0.0020(2)
O4_64 O 0.87647(16) 0.47981(18) 0.07226(17)
S2_64 S 0.79908(7) 0.43449(9) 0.03636(8)
H5_64 H 0.7330 0.4029 0.0120
C9_64 C 0.8065(2) 0.4827(2) 0.9944(2)
C21_64 C 0.6808(2) 0.3965(3) 0.9591(3)
C22_64 C 0.7085(2) 0.41982(19) 0.9639(2)
C23_64 C 0.73280(15) 0.41691(15) 0.99347(17)
C24_64 C 0.7556(2) 0.4435(2) 0.9827(2)
C25_64 C 0.7480(2) 0.4651(2) 0.9554(2)
O10_64 O 0.67774(17) 0.37353(16) 0.97981(18)
S5_64 S 0.71364(8) 0.45092(7) 0.93449(9)
C26_64 C 0.7909(3) 0.5692(2) 0.8965(3)
C27_64 C 0.7861(2) 0.5415(2) 0.91982(19)
C28_64 C 0.75653(17) 0.51720(15) 0.91691(15)
H6_64 H 0.7380 0.5170 0.9029
C29_64 C 0.7673(2) 0.4944(2) 0.9435(2)
C30_64 C 0.7946(2) 0.5020(2) 0.9651(2)
O12_64 O 0.77019(18) 0.57226(17) 0.87353(16)
S6_64 S 0.81551(9) 0.53636(8) 0.95092(7)
C5_63 C 0.00866(19) 0.05331(17) 0.0127(2)
C15_63 C 0.0127(2) 0.00866(19) 0.05331(17)
C20_63 C 0.05331(17) 0.0127(2) 0.00866(19)
C5_64 C 0.99134(19) 0.94669(17) 0.9873(2)
C15_64 C 0.9873(2) 0.99134(19) 0.94669(17)
C20_64 C 0.94669(17) 0.9873(2) 0.99134(19)
loop_
_geom_bond_atom_site_label_1
_geom_bond_atom_site_label_2
_geom_bond_site_symmetry_1
_geom_bond_site_symmetry_2
C1 C2 1_555 1_555
C2 C3 1_555 1_555
C3 H1 1_555 1_555
C4 C3 1_555 1_555
C5 C4 1_555 1_555
C6 C7 1_555 1_555
C7 C8 1_555 1_555
C8 H2 1_555 1_555
O1 C1 1_555 1_555
O2 C1 1_555 1_555
O3 C6 1_555 1_555
O4 C6 1_555 1_555
Pb1 O1 1_555 1_555
S1 C2 1_555 1_555
S2 C7 1_555 1_555
C11 C12 1_555 1_555
C12 C13 1_555 1_555
C13 H3 1_555 1_555
C14 C13 1_555 1_555
C15 C4 1_555 1_555
O5 C11 1_555 1_555
O6 C11 1_555 1_555
S3 C12 1_555 1_555
C16 C17 1_555 1_555
C17 C18 1_555 1_555
C18 H4 1_555 1_555
C19 C5 1_555 1_555
C20 C14 1_555 1_555
O7 C16 1_555 1_555
O8 C16 1_555 1_555
S4 C17 1_555 1_555
O17 Pb1 1_555 1_555
O21 Pb1 1_555 1_555
O24 Pb1 1_555 1_555
Pb4 O7 1_555 1_555
Pb5 O5 1_555 1_555
Pb6 O1 1_555 1_555
Pb7 O7 1_555 1_555
Pb8 O5 1_555 1_555
Pb9 O6 1_555 1_555
Pb10 O8 1_555 1_555
Pb12 O2 1_555 1_555
C5 S1 1_555 1_555
C10 S2 1_555 1_555
O2 Pb1 1_555 1_555
O3 Pb1 1_555 1_555
O3 Pb12 1_555 1_555
O4 Pb1 1_555 1_555
C14 C15 1_555 1_555
C15 S3 1_555 1_555
O6 Pb5 1_555 1_555
C18 C19 1_555 1_555
C19 C20 1_555 1_555
C20 S4 1_555 1_555
O8 Pb7 1_555 1_555
O17 Pb6 1_555 1_555
C21 C22 1_555 1_555
C22 C23 1_555 1_555
C25 C24 1_555 1_555
O9 C21 1_555 1_555
O10 C21 1_555 1_555
S5 C22 1_555 1_555
C26 C27 1_555 1_555
C27 C28 1_555 1_555
C28 H6 1_555 1_555
C29 C25 1_555 1_555
C30 C9 1_555 1_555
O11 C26 1_555 1_555
O12 C26 1_555 1_555
S6 C27 1_555 1_555
Pb2 O9 1_555 1_555
Pb3 O11 1_555 1_555
O14 Pb2 1_555 1_555
O15 Pb3 1_555 1_555
O16 Pb3 1_555 1_555
O18 Pb2 1_555 1_555
O19 Pb3 1_555 1_555
O20 Pb3 1_555 1_555
O22 Pb2 1_555 1_555
O23 Pb3 1_555 1_555
O25 Pb2 1_555 1_555
Pb11 O9 1_555 1_555
Pb13 O11 1_555 1_555
C23 C24 1_555 1_555
C25 S5 1_555 1_555
O10 Pb2 1_555 1_555
C28 C29 1_555 1_555
C29 C30 1_555 1_555
C30 S6 1_555 1_555
O12 Pb3 1_555 1_555
O18 Pb11 1_555 1_555
O19 Pb13 1_555 1_555
C1_2 C2_2 1_555 1_555
C2_2 C3_2 1_555 1_555
C3_2 H1_2 1_555 1_555
C4_2 C3_2 1_555 1_555
C6_2 C7_2 1_555 1_555
C7_2 C8_2 1_555 1_555
C8_2 H2_2 1_555 1_555
C9_2 C8_2 1_555 1_555
C10_2 C9_2 1_555 1_555
O1_2 C1_2 1_555 1_555
O2_2 C1_2 1_555 1_555
O3_2 C6_2 1_555 1_555
O4_2 C6_2 1_555 1_555
Pb1_2 O1_2 1_555 1_555
S1_2 C2_2 1_555 1_555
S2_2 C7_2 1_555 1_555
C21_2 C22_2 1_555 1_555
C22_2 C23_2 1_555 1_555
C23_2 H5_2 1_555 1_555
C24_2 C10_2 1_555 1_555
C25_2 C24_2 1_555 1_555
O9_2 C21_2 1_555 1_555
O10_2 C21_2 1_555 1_555
S5_2 C22_2 1_555 1_555
C26_2 C27_2 1_555 1_555
C27_2 C28_2 1_555 1_555
C28_2 H6_2 1_555 1_555
C29_2 C25_2 1_555 1_555
C30_2 C9_2 1_555 1_555
O11_2 C26_2 1_555 1_555
O12_2 C26_2 1_555 1_555
S6_2 C27_2 1_555 1_555
Pb2_2 O9_2 1_555 1_555
Pb3_2 O11_2 1_555 1_555
O13_2 Pb2_2 1_555 1_555
O14_2 Pb2_2 1_555 1_555
O15_2 Pb3_2 1_555 1_555
O16_2 Pb3_2 1_555 1_555
O17_2 Pb1_2 1_555 1_555
O18_2 Pb2_2 1_555 1_555
O19_2 Pb3_2 1_555 1_555
O20_2 Pb3_2 1_555 1_555
O21_2 Pb1_2 1_555 1_555
O22_2 Pb2_2 1_555 1_555
O23_2 Pb3_2 1_555 1_555
O24_2 Pb1_2 1_555 1_555
O25_2 Pb2_2 1_555 1_555
Pb6_2 O1_2 1_555 1_555
Pb11_2 O9_2 1_555 1_555
Pb12_2 O2_2 1_555 1_555
Pb13_2 O11_2 1_555 1_555
C10_2 S2_2 1_555 1_555
O2_2 Pb1_2 1_555 1_555
O3_2 Pb1_2 1_555 1_555
O3_2 Pb12_2 1_555 1_555
O4_2 Pb1_2 1_555 1_555
C23_2 C24_2 1_555 1_555
C25_2 S5_2 1_555 1_555
O10_2 Pb2_2 1_555 1_555
C28_2 C29_2 1_555 1_555
C29_2 C30_2 1_555 1_555
C30_2 S6_2 1_555 1_555
O12_2 Pb3_2 1_555 1_555
O17_2 Pb6_2 1_555 1_555
O18_2 Pb11_2 1_555 1_555
O19_2 Pb13_2 1_555 1_555
C11_2 C12_2 1_555 1_555
C12_2 C13_2 1_555 1_555
C13_2 H3_2 1_555 1_555
C14_2 C13_2 1_555 1_555
O5_2 C11_2 1_555 1_555
O6_2 C11_2 1_555 1_555
S3_2 C12_2 1_555 1_555
C16_2 C17_2 1_555 1_555
C17_2 C18_2 1_555 1_555
C18_2 H4_2 1_555 1_555
C19_2 C5_2 1_555 1_555
C20_2 C14_2 1_555 1_555
O7_2 C16_2 1_555 1_555
O8_2 C16_2 1_555 1_555
S4_2 C17_2 1_555 1_555
Pb4_2 O7_2 1_555 1_555
Pb5_2 O5_2 1_555 1_555
Pb7_2 O7_2 1_555 1_555
Pb9_2 O6_2 1_555 1_555
Pb10_2 O8_2 1_555 1_555
C14_2 C15_2 1_555 1_555
C15_2 S3_2 1_555 1_555
O6_2 Pb5_2 1_555 1_555
C18_2 C19_2 1_555 1_555
C19_2 C20_2 1_555 1_555
C20_2 S4_2 1_555 1_555
O8_2 Pb7_2 1_555 1_555
C16_3 C17_3 1_555 1_555
C17_3 C18_3 1_555 1_555
C18_3 H4_3 1_555 1_555
O7_3 C16_3 1_555 1_555
O8_3 C16_3 1_555 1_555
S4_3 C17_3 1_555 1_555
C26_3 C27_3 1_555 1_555
C27_3 C28_3 1_555 1_555
O11_3 C26_3 1_555 1_555
O12_3 C26_3 1_555 1_555
S6_3 C27_3 1_555 1_555
Pb3_3 O11_3 1_555 1_555
O16_3 Pb3_3 1_555 1_555
O19_3 Pb3_3 1_555 1_555
O20_3 Pb3_3 1_555 1_555
O23_3 Pb3_3 1_555 1_555
Pb7_3 O7_3 1_555 1_555
Pb10_3 O8_3 1_555 1_555
Pb13_3 O11_3 1_555 1_555
C18_3 C19_3 1_555 1_555
O8_3 Pb7_3 1_555 1_555
C30_3 S6_3 1_555 1_555
O12_3 Pb3_3 1_555 1_555
O17_3 Pb6_3 1_555 1_555
O19_3 Pb13_3 1_555 1_555
C11_3 C12_3 1_555 1_555
C12_3 C13_3 1_555 1_555
C13_3 H3_3 1_555 1_555
C14_3 C13_3 1_555 1_555
O5_3 C11_3 1_555 1_555
O6_3 C11_3 1_555 1_555
S3_3 C12_3 1_555 1_555
C21_3 C22_3 1_555 1_555
C22_3 C23_3 1_555 1_555
C23_3 H5_3 1_555 1_555
O9_3 C21_3 1_555 1_555
O10_3 C21_3 1_555 1_555
S5_3 C22_3 1_555 1_555
Pb2_3 O9_3 1_555 1_555
O13_3 Pb2_3 1_555 1_555
O14_3 Pb2_3 1_555 1_555
O18_3 Pb2_3 1_555 1_555
O22_3 Pb2_3 1_555 1_555
O25_3 Pb2_3 1_555 1_555
Pb5_3 O5_3 1_555 1_555
Pb8_3 O5_3 1_555 1_555
Pb9_3 O6_3 1_555 1_555
Pb11_3 O9_3 1_555 1_555
O6_3 Pb5_3 1_555 1_555
C25_3 S5_3 1_555 1_555
O10_3 Pb2_3 1_555 1_555
O18_3 Pb11_3 1_555 1_555
C1_3 C2_3 1_555 1_555
C2_3 C3_3 1_555 1_555
C3_3 H1_3 1_555 1_555
C4_3 C3_3 1_555 1_555
C5_3 C4_3 1_555 1_555
C6_3 C7_3 1_555 1_555
C7_3 C8_3 1_555 1_555
C9_3 C8_3 1_555 1_555
C10_3 C9_3 1_555 1_555
O1_3 C1_3 1_555 1_555
O2_3 C1_3 1_555 1_555
O3_3 C6_3 1_555 1_555
O4_3 C6_3 1_555 1_555
Pb1_3 O1_3 1_555 1_555
S1_3 C2_3 1_555 1_555
S2_3 C7_3 1_555 1_555
C15_3 C4_3 1_555 1_555
C24_3 C10_3 1_555 1_555
O21_3 Pb1_3 1_555 1_555
O24_3 Pb1_3 1_555 1_555
Pb12_3 O2_3 1_555 1_555
C5_3 S1_3 1_555 1_555
C10_3 S2_3 1_555 1_555
O2_3 Pb1_3 1_555 1_555
O3_3 Pb1_3 1_555 1_555
O3_3 Pb12_3 1_555 1_555
O4_3 Pb1_3 1_555 1_555
C1_4 C2_4 1_555 1_555
C2_4 C3_4 1_555 1_555
C3_4 H1_4 1_555 1_555
C4_4 C3_4 1_555 1_555
C5_4 C4_4 1_555 1_555
C6_4 C7_4 1_555 1_555
C7_4 C8_4 1_555 1_555
C8_4 H2_4 1_555 1_555
C9_4 C8_4 1_555 1_555
C10_4 C9_4 1_555 1_555
O1_4 C1_4 1_555 1_555
O2_4 C1_4 1_555 1_555
O3_4 C6_4 1_555 1_555
O4_4 C6_4 1_555 1_555
Pb1_4 O1_4 1_555 1_555
S1_4 C2_4 1_555 1_555
S2_4 C7_4 1_555 1_555
C11_4 C12_4 1_555 1_555
C12_4 C13_4 1_555 1_555
C13_4 H3_4 1_555 1_555
C14_4 C13_4 1_555 1_555
C15_4 C4_4 1_555 1_555
O5_4 C11_4 1_555 1_555
O6_4 C11_4 1_555 1_555
S3_4 C12_4 1_555 1_555
C16_4 C17_4 1_555 1_555
C17_4 C18_4 1_555 1_555
C18_4 H4_4 1_555 1_555
C19_4 C5_4 1_555 1_555
C20_4 C14_4 1_555 1_555
O7_4 C16_4 1_555 1_555
O8_4 C16_4 1_555 1_555
S4_4 C17_4 1_555 1_555
C21_4 C22_4 1_555 1_555
C22_4 C23_4 1_555 1_555
C23_4 H5_4 1_555 1_555
C24_4 C10_4 1_555 1_555
C25_4 C24_4 1_555 1_555
O9_4 C21_4 1_555 1_555
O10_4 C21_4 1_555 1_555
S5_4 C22_4 1_555 1_555
C26_4 C27_4 1_555 1_555
C27_4 C28_4 1_555 1_555
C28_4 H6_4 1_555 1_555
C29_4 C25_4 1_555 1_555
C30_4 C9_4 1_555 1_555
O11_4 C26_4 1_555 1_555
O12_4 C26_4 1_555 1_555
S6_4 C27_4 1_555 1_555
Pb2_4 O9_4 1_555 1_555
Pb3_4 O11_4 1_555 1_555
O13_4 Pb2_4 1_555 1_555
O14_4 Pb2_4 1_555 1_555
O15_4 Pb3_4 1_555 1_555
O16_4 Pb3_4 1_555 1_555
O17_4 Pb1_4 1_555 1_555
O18_4 Pb2_4 1_555 1_555
O19_4 Pb3_4 1_555 1_555
O20_4 Pb3_4 1_555 1_555
O21_4 Pb1_4 1_555 1_555
O22_4 Pb2_4 1_555 1_555
O23_4 Pb3_4 1_555 1_555
O24_4 Pb1_4 1_555 1_555
O25_4 Pb2_4 1_555 1_555
Pb4_4 O7_4 1_555 1_555
Pb5_4 O5_4 1_555 1_555
Pb6_4 O1_4 1_555 1_555
Pb7_4 O7_4 1_555 1_555
Pb8_4 O5_4 1_555 1_555
Pb9_4 O6_4 1_555 1_555
Pb10_4 O8_4 1_555 1_555
Pb11_4 O9_4 1_555 1_555
Pb12_4 O2_4 1_555 1_555
Pb13_4 O11_4 1_555 1_555
C5_4 S1_4 1_555 1_555
C10_4 S2_4 1_555 1_555
O2_4 Pb1_4 1_555 1_555
O3_4 Pb1_4 1_555 1_555
O3_4 Pb12_4 1_555 1_555
O4_4 Pb1_4 1_555 1_555
C14_4 C15_4 1_555 1_555
C15_4 S3_4 1_555 1_555
O6_4 Pb5_4 1_555 1_555
C18_4 C19_4 1_555 1_555
C19_4 C20_4 1_555 1_555
C20_4 S4_4 1_555 1_555
O8_4 Pb7_4 1_555 1_555
C23_4 C24_4 1_555 1_555
C25_4 S5_4 1_555 1_555
O10_4 Pb2_4 1_555 1_555
C28_4 C29_4 1_555 1_555
C29_4 C30_4 1_555 1_555
C30_4 S6_4 1_555 1_555
O12_4 Pb3_4 1_555 1_555
O17_4 Pb6_4 1_555 1_555
O18_4 Pb11_4 1_555 1_555
O19_4 Pb13_4 1_555 1_555
C1_5 C2_5 1_555 1_555
C2_5 C3_5 1_555 1_555
C3_5 H1_5 1_555 1_555
C4_5 C3_5 1_555 1_555
C5_5 C4_5 1_555 1_555
C6_5 C7_5 1_555 1_555
C7_5 C8_5 1_555 1_555
C8_5 H2_5 1_555 1_555
O1_5 C1_5 1_555 1_555
O2_5 C1_5 1_555 1_555
O3_5 C6_5 1_555 1_555
O4_5 C6_5 1_555 1_555
Pb1_5 O1_5 1_555 1_555
S1_5 C2_5 1_555 1_555
S2_5 C7_5 1_555 1_555
C11_5 C12_5 1_555 1_555
C12_5 C13_5 1_555 1_555
C13_5 H3_5 1_555 1_555
C14_5 C13_5 1_555 1_555
C15_5 C4_5 1_555 1_555
O5_5 C11_5 1_555 1_555
O6_5 C11_5 1_555 1_555
S3_5 C12_5 1_555 1_555
C16_5 C17_5 1_555 1_555
C17_5 C18_5 1_555 1_555
C18_5 H4_5 1_555 1_555
C19_5 C5_5 1_555 1_555
C20_5 C14_5 1_555 1_555
O14_2 C16_5 1_555 1_555
O18_2 C16_5 1_555 1_555
S4_5 C17_5 1_555 1_555
O17_5 Pb1_5 1_555 1_555
O21_5 Pb1_5 1_555 1_555
O24_5 Pb1_5 1_555 1_555
Pb4_5 O14_2 1_555 1_555
Pb5_5 O5_5 1_555 1_555
Pb6_5 O1_5 1_555 1_555
Pb8_5 O5_5 1_555 1_555
Pb9_5 O6_5 1_555 1_555
Pb12_5 O2_5 1_555 1_555
C5_5 S1_5 1_555 1_555
C10_5 S2_5 1_555 1_555
O2_5 Pb1_5 1_555 1_555
O3_5 Pb1_5 1_555 1_555
O3_5 Pb12_5 1_555 1_555
O4_5 Pb1_5 1_555 1_555
C14_5 C15_5 1_555 1_555
C15_5 S3_5 1_555 1_555
O6_5 Pb5_5 1_555 1_555
C18_5 C19_5 1_555 1_555
C19_5 C20_5 1_555 1_555
C20_5 S4_5 1_555 1_555
O17_5 Pb6_5 1_555 1_555
C21_5 C22_5 1_555 1_555
C22_5 C23_5 1_555 1_555
C25_5 C24_5 1_555 1_555
O9_5 C21_5 1_555 1_555
O10_5 C21_5 1_555 1_555
S5_5 C22_5 1_555 1_555
C26_5 C27_5 1_555 1_555
C27_5 C28_5 1_555 1_555
C28_5 H6_5 1_555 1_555
C29_5 C25_5 1_555 1_555
C30_5 C9_5 1_555 1_555
O11_5 C26_5 1_555 1_555
O12_5 C26_5 1_555 1_555
S6_5 C27_5 1_555 1_555
Pb2_5 O9_5 1_555 1_555
Pb3_5 O11_5 1_555 1_555
O14_5 Pb2_5 1_555 1_555
O15_5 Pb3_5 1_555 1_555
O16_5 Pb3_5 1_555 1_555
O18_5 Pb2_5 1_555 1_555
O19_5 Pb3_5 1_555 1_555
O20_5 Pb3_5 1_555 1_555
O22_5 Pb2_5 1_555 1_555
O23_5 Pb3_5 1_555 1_555
O25_5 Pb2_5 1_555 1_555
Pb11_5 O9_5 1_555 1_555
Pb13_5 O11_5 1_555 1_555
C23_5 C24_5 1_555 1_555
C25_5 S5_5 1_555 1_555
O10_5 Pb2_5 1_555 1_555
C28_5 C29_5 1_555 1_555
C29_5 C30_5 1_555 1_555
C30_5 S6_5 1_555 1_555
O12_5 Pb3_5 1_555 1_555
O18_5 Pb11_5 1_555 1_555
O19_5 Pb13_5 1_555 1_555
C1_6 C2_6 1_555 1_555
C2_6 C3_6 1_555 1_555
C3_6 H1_6 1_555 1_555
C4_6 C3_6 1_555 1_555
C6_6 C7_6 1_555 1_555
C7_6 C8_6 1_555 1_555
C8_6 H2_6 1_555 1_555
C9_6 C8_6 1_555 1_555
C10_6 C9_6 1_555 1_555
O1_6 C1_6 1_555 1_555
O2_6 C1_6 1_555 1_555
O3_6 C6_6 1_555 1_555
O4_6 C6_6 1_555 1_555
Pb1_6 O1_6 1_555 1_555
S1_6 C2_6 1_555 1_555
S2_6 C7_6 1_555 1_555
C21_6 C22_6 1_555 1_555
C22_6 C23_6 1_555 1_555
C23_6 H5_6 1_555 1_555
C24_6 C10_6 1_555 1_555
C25_6 C24_6 1_555 1_555
O9_6 C21_6 1_555 1_555
O10_6 C21_6 1_555 1_555
S5_6 C22_6 1_555 1_555
C26_6 C27_6 1_555 1_555
C27_6 C28_6 1_555 1_555
C28_6 H6_6 1_555 1_555
C29_6 C25_6 1_555 1_555
C30_6 C9_6 1_555 1_555
O11_6 C26_6 1_555 1_555
O12_6 C26_6 1_555 1_555
S6_6 C27_6 1_555 1_555
Pb2_6 O9_6 1_555 1_555
Pb3_6 O11_6 1_555 1_555
O13_6 Pb2_6 1_555 1_555
O14_6 Pb2_6 1_555 1_555
O15_6 Pb3_6 1_555 1_555
O16_6 Pb3_6 1_555 1_555
O17_6 Pb1_6 1_555 1_555
O18_6 Pb2_6 1_555 1_555
O19_6 Pb3_6 1_555 1_555
O20_6 Pb3_6 1_555 1_555
O21_6 Pb1_6 1_555 1_555
O22_6 Pb2_6 1_555 1_555
O23_6 Pb3_6 1_555 1_555
O24_6 Pb1_6 1_555 1_555
O25_6 Pb2_6 1_555 1_555
Pb6_6 O1_6 1_555 1_555
Pb11_6 O9_6 1_555 1_555
Pb12_6 O2_6 1_555 1_555
Pb13_6 O11_6 1_555 1_555
C10_6 S2_6 1_555 1_555
O2_6 Pb1_6 1_555 1_555
O3_6 Pb1_6 1_555 1_555
O3_6 Pb12_6 1_555 1_555
O4_6 Pb1_6 1_555 1_555
C23_6 C24_6 1_555 1_555
C25_6 S5_6 1_555 1_555
O10_6 Pb2_6 1_555 1_555
C28_6 C29_6 1_555 1_555
C29_6 C30_6 1_555 1_555
C30_6 S6_6 1_555 1_555
O12_6 Pb3_6 1_555 1_555
O17_6 Pb6_6 1_555 1_555
O18_6 Pb11_6 1_555 1_555
O19_6 Pb13_6 1_555 1_555
C11_6 C12_6 1_555 1_555
C12_6 C13_6 1_555 1_555
C13_6 H3_6 1_555 1_555
C14_6 C13_6 1_555 1_555
O5_6 C11_6 1_555 1_555
O6_6 C11_6 1_555 1_555
S3_6 C12_6 1_555 1_555
C16_6 C17_6 1_555 1_555
C17_6 C18_6 1_555 1_555
C18_6 H4_6 1_555 1_555
C19_6 C5_6 1_555 1_555
C20_6 C14_6 1_555 1_555
O14_3 C16_6 1_555 1_555
O18_3 C16_6 1_555 1_555
S4_6 C17_6 1_555 1_555
Pb4_6 O14_3 1_555 1_555
Pb5_6 O5_6 1_555 1_555
Pb9_6 O6_6 1_555 1_555
C14_6 C15_6 1_555 1_555
C15_6 S3_6 1_555 1_555
O6_6 Pb5_6 1_555 1_555
C18_6 C19_6 1_555 1_555
C19_6 C20_6 1_555 1_555
C20_6 S4_6 1_555 1_555
C11_7 C12_7 1_555 1_555
C12_7 C13_7 1_555 1_555
C13_7 H3_7 1_555 1_555
C14_7 C13_7 1_555 1_555
O5_7 C11_7 1_555 1_555
O6_7 C11_7 1_555 1_555
S3_7 C12_7 1_555 1_555
C21_7 C22_7 1_555 1_555
C22_7 C23_7 1_555 1_555
C23_7 H5_7 1_555 1_555
O9_7 C21_7 1_555 1_555
O10_7 C21_7 1_555 1_555
S5_7 C22_7 1_555 1_555
Pb2_7 O9_7 1_555 1_555
O13_7 Pb2_7 1_555 1_555
O14_7 Pb2_7 1_555 1_555
O18_7 Pb2_7 1_555 1_555
O22_7 Pb2_7 1_555 1_555
O25_7 Pb2_7 1_555 1_555
Pb5_7 O5_7 1_555 1_555
Pb8_7 O5_7 1_555 1_555
Pb9_7 O6_7 1_555 1_555
Pb11_7 O9_7 1_555 1_555
O6_7 Pb5_7 1_555 1_555
C25_7 S5_7 1_555 1_555
O10_7 Pb2_7 1_555 1_555
O18_7 Pb11_7 1_555 1_555
C16_7 C17_7 1_555 1_555
C17_7 C18_7 1_555 1_555
C18_7 H4_7 1_555 1_555
O14 C16_7 1_555 1_555
O18 C16_7 1_555 1_555
S4_7 C17_7 1_555 1_555
C26_7 C27_7 1_555 1_555
C27_7 C28_7 1_555 1_555
O11_7 C26_7 1_555 1_555
O12_7 C26_7 1_555 1_555
S6_7 C27_7 1_555 1_555
Pb3_7 O11_7 1_555 1_555
O16_7 Pb3_7 1_555 1_555
O19_7 Pb3_7 1_555 1_555
O20_7 Pb3_7 1_555 1_555
O23_7 Pb3_7 1_555 1_555
Pb13_7 O11_7 1_555 1_555
C18_7 C19_7 1_555 1_555
C30_7 S6_7 1_555 1_555
O12_7 Pb3_7 1_555 1_555
O17_7 Pb6_7 1_555 1_555
O19_7 Pb13_7 1_555 1_555
C1_7 C2_7 1_555 1_555
C2_7 C3_7 1_555 1_555
C3_7 H1_7 1_555 1_555
C4_7 C3_7 1_555 1_555
C5_7 C4_7 1_555 1_555
C6_7 C7_7 1_555 1_555
C7_7 C8_7 1_555 1_555
C9_7 C8_7 1_555 1_555
C10_7 C9_7 1_555 1_555
O1_7 C1_7 1_555 1_555
O2_7 C1_7 1_555 1_555
O3_7 C6_7 1_555 1_555
O4_7 C6_7 1_555 1_555
Pb1_7 O1_7 1_555 1_555
S1_7 C2_7 1_555 1_555
S2_7 C7_7 1_555 1_555
C15_7 C4_7 1_555 1_555
C24_7 C10_7 1_555 1_555
O21_7 Pb1_7 1_555 1_555
O24_7 Pb1_7 1_555 1_555
Pb12_7 O2_7 1_555 1_555
C5_7 S1_7 1_555 1_555
C10_7 S2_7 1_555 1_555
O2_7 Pb1_7 1_555 1_555
O3_7 Pb1_7 1_555 1_555
O3_7 Pb12_7 1_555 1_555
O4_7 Pb1_7 1_555 1_555
C1_8 C2_8 1_555 1_555
C2_8 C3_8 1_555 1_555
C3_8 H1_8 1_555 1_555
C4_8 C3_8 1_555 1_555
C5_8 C4_8 1_555 1_555
C6_8 C7_8 1_555 1_555
C7_8 C8_8 1_555 1_555
C8_8 H2_8 1_555 1_555
C9_8 C8_8 1_555 1_555
C10_8 C9_8 1_555 1_555
O1_8 C1_8 1_555 1_555
O2_8 C1_8 1_555 1_555
O3_8 C6_8 1_555 1_555
O4_8 C6_8 1_555 1_555
Pb1_8 O1_8 1_555 1_555
S1_8 C2_8 1_555 1_555
S2_8 C7_8 1_555 1_555
C11_8 C12_8 1_555 1_555
C12_8 C13_8 1_555 1_555
C13_8 H3_8 1_555 1_555
C14_8 C13_8 1_555 1_555
C15_8 C4_8 1_555 1_555
O5_8 C11_8 1_555 1_555
O6_8 C11_8 1_555 1_555
S3_8 C12_8 1_555 1_555
C16_8 C17_8 1_555 1_555
C17_8 C18_8 1_555 1_555
C18_8 H4_8 1_555 1_555
C19_8 C5_8 1_555 1_555
C20_8 C14_8 1_555 1_555
O14_4 C16_8 1_555 1_555
O18_4 C16_8 1_555 1_555
S4_8 C17_8 1_555 1_555
C21_8 C22_8 1_555 1_555
C22_8 C23_8 1_555 1_555
C23_8 H5_8 1_555 1_555
C24_8 C10_8 1_555 1_555
C25_8 C24_8 1_555 1_555
O9_8 C21_8 1_555 1_555
O10_8 C21_8 1_555 1_555
S5_8 C22_8 1_555 1_555
C26_8 C27_8 1_555 1_555
C27_8 C28_8 1_555 1_555
C28_8 H6_8 1_555 1_555
C29_8 C25_8 1_555 1_555
C30_8 C9_8 1_555 1_555
O11_8 C26_8 1_555 1_555
O12_8 C26_8 1_555 1_555
S6_8 C27_8 1_555 1_555
Pb2_8 O9_8 1_555 1_555
Pb3_8 O11_8 1_555 1_555
O13_8 Pb2_8 1_555 1_555
O14_8 Pb2_8 1_555 1_555
O15_8 Pb3_8 1_555 1_555
O16_8 Pb3_8 1_555 1_555
O17_8 Pb1_8 1_555 1_555
O18_8 Pb2_8 1_555 1_555
O19_8 Pb3_8 1_555 1_555
O20_8 Pb3_8 1_555 1_555
O21_8 Pb1_8 1_555 1_555
O22_8 Pb2_8 1_555 1_555
O23_8 Pb3_8 1_555 1_555
O24_8 Pb1_8 1_555 1_555
O25_8 Pb2_8 1_555 1_555
Pb4_8 O14_4 1_555 1_555
Pb5_8 O5_8 1_555 1_555
Pb6_8 O1_8 1_555 1_555
Pb8_8 O5_8 1_555 1_555
Pb9_8 O6_8 1_555 1_555
Pb11_8 O9_8 1_555 1_555
Pb12_8 O2_8 1_555 1_555
Pb13_8 O11_8 1_555 1_555
C5_8 S1_8 1_555 1_555
C10_8 S2_8 1_555 1_555
O2_8 Pb1_8 1_555 1_555
O3_8 Pb1_8 1_555 1_555
O3_8 Pb12_8 1_555 1_555
O4_8 Pb1_8 1_555 1_555
C14_8 C15_8 1_555 1_555
C15_8 S3_8 1_555 1_555
O6_8 Pb5_8 1_555 1_555
C18_8 C19_8 1_555 1_555
C19_8 C20_8 1_555 1_555
C20_8 S4_8 1_555 1_555
C23_8 C24_8 1_555 1_555
C25_8 S5_8 1_555 1_555
O10_8 Pb2_8 1_555 1_555
C28_8 C29_8 1_555 1_555
C29_8 C30_8 1_555 1_555
C30_8 S6_8 1_555 1_555
O12_8 Pb3_8 1_555 1_555
O17_8 Pb6_8 1_555 1_555
O18_8 Pb11_8 1_555 1_555
O19_8 Pb13_8 1_555 1_555
C1_9 C2_9 1_555 1_555
C2_9 C3_9 1_555 1_555
C3_9 H1_9 1_555 1_555
C4_9 C3_9 1_555 1_555
C5_9 C4_9 1_555 1_555
C6_9 C7_9 1_555 1_555
C7_9 C8_9 1_555 1_555
C8_9 H2_9 1_555 1_555
O1_9 C1_9 1_555 1_555
O2_9 C1_9 1_555 1_555
O3_9 C6_9 1_555 1_555
O4_9 C6_9 1_555 1_555
Pb1_9 O1_9 1_555 1_555
S1_9 C2_9 1_555 1_555
S2_9 C7_9 1_555 1_555
C11_9 C12_9 1_555 1_555
C12_9 C13_9 1_555 1_555
C13_9 H3_9 1_555 1_555
C14_9 C13_9 1_555 1_555
C15_9 C4_9 1_555 1_555
O5_9 C11_9 1_555 1_555
O6_9 C11_9 1_555 1_555
S3_9 C12_9 1_555 1_555
C16_9 C17_9 1_555 1_555
C17_9 C18_9 1_555 1_555
C18_9 H4_9 1_555 1_555
C19_9 C5_9 1_555 1_555
C20_9 C14_9 1_555 1_555
O14_6 C16_9 1_555 1_555
O18_6 C16_9 1_555 1_555
S4_9 C17_9 1_555 1_555
O17_9 Pb1_9 1_555 1_555
O21_9 Pb1_9 1_555 1_555
O24_9 Pb1_9 1_555 1_555
Pb4_9 O14_6 1_555 1_555
Pb5_9 O5_9 1_555 1_555
Pb6_9 O1_9 1_555 1_555
Pb8_9 O5_9 1_555 1_555
Pb9_9 O6_9 1_555 1_555
Pb12_9 O2_9 1_555 1_555
C5_9 S1_9 1_555 1_555
C10_9 S2_9 1_555 1_555
O2_9 Pb1_9 1_555 1_555
O3_9 Pb1_9 1_555 1_555
O3_9 Pb12_9 1_555 1_555
O4_9 Pb1_9 1_555 1_555
C14_9 C15_9 1_555 1_555
C15_9 S3_9 1_555 1_555
O6_9 Pb5_9 1_555 1_555
C18_9 C19_9 1_555 1_555
C19_9 C20_9 1_555 1_555
C20_9 S4_9 1_555 1_555
O17_9 Pb6_9 1_555 1_555
C21_9 C22_9 1_555 1_555
C22_9 C23_9 1_555 1_555
C25_9 C24_9 1_555 1_555
O9_9 C21_9 1_555 1_555
O10_9 C21_9 1_555 1_555
S5_9 C22_9 1_555 1_555
C26_9 C27_9 1_555 1_555
C27_9 C28_9 1_555 1_555
C28_9 H6_9 1_555 1_555
C29_9 C25_9 1_555 1_555
C30_9 C9_9 1_555 1_555
O11_9 C26_9 1_555 1_555
O12_9 C26_9 1_555 1_555
S6_9 C27_9 1_555 1_555
Pb7_3 O9_9 1_555 1_555
Pb3_9 O11_9 1_555 1_555
O15_9 Pb3_9 1_555 1_555
O16_9 Pb3_9 1_555 1_555
O19_9 Pb3_9 1_555 1_555
O20_9 Pb3_9 1_555 1_555
O22_9 Pb7_3 1_555 1_555
O23_9 Pb3_9 1_555 1_555
O25_9 Pb7_3 1_555 1_555
Pb10_3 O9_9 1_555 1_555
Pb13_9 O11_9 1_555 1_555
C23_9 C24_9 1_555 1_555
C25_9 S5_9 1_555 1_555
O10_9 Pb7_3 1_555 1_555
C28_9 C29_9 1_555 1_555
C29_9 C30_9 1_555 1_555
C30_9 S6_9 1_555 1_555
O12_9 Pb3_9 1_555 1_555
O19_9 Pb13_9 1_555 1_555
C1_10 C2_10 1_555 1_555
C2_10 C3_10 1_555 1_555
C3_10 H1_10 1_555 1_555
C4_10 C3_10 1_555 1_555
C6_10 C7_10 1_555 1_555
C7_10 C8_10 1_555 1_555
C8_10 H2_10 1_555 1_555
C9_10 C8_10 1_555 1_555
C10_10 C9_10 1_555 1_555
O1_10 C1_10 1_555 1_555
O2_10 C1_10 1_555 1_555
O3_10 C6_10 1_555 1_555
O4_10 C6_10 1_555 1_555
Pb1_10 O1_10 1_555 1_555
S1_10 C2_10 1_555 1_555
S2_10 C7_10 1_555 1_555
C21_10 C22_10 1_555 1_555
C22_10 C23_10 1_555 1_555
C23_10 H5_10 1_555 1_555
C24_10 C10_10 1_555 1_555
C25_10 C24_10 1_555 1_555
O9_10 C21_10 1_555 1_555
O10_10 C21_10 1_555 1_555
S5_10 C22_10 1_555 1_555
C26_10 C27_10 1_555 1_555
C27_10 C28_10 1_555 1_555
C28_10 H6_10 1_555 1_555
C29_10 C25_10 1_555 1_555
C30_10 C9_10 1_555 1_555
O11_10 C26_10 1_555 1_555
O12_10 C26_10 1_555 1_555
S6_10 C27_10 1_555 1_555
Pb7 O9_10 1_555 1_555
Pb3_10 O11_10 1_555 1_555
O13_10 Pb7 1_555 1_555
O15_10 Pb3_10 1_555 1_555
O16_10 Pb3_10 1_555 1_555
O17_10 Pb1_10 1_555 1_555
O19_10 Pb3_10 1_555 1_555
O20_10 Pb3_10 1_555 1_555
O21_10 Pb1_10 1_555 1_555
O22_10 Pb7 1_555 1_555
O23_10 Pb3_10 1_555 1_555
O24_10 Pb1_10 1_555 1_555
O25_10 Pb7 1_555 1_555
Pb6_10 O1_10 1_555 1_555
Pb10 O9_10 1_555 1_555
Pb12_10 O2_10 1_555 1_555
Pb13_10 O11_10 1_555 1_555
C10_10 S2_10 1_555 1_555
O2_10 Pb1_10 1_555 1_555
O3_10 Pb1_10 1_555 1_555
O3_10 Pb12_10 1_555 1_555
O4_10 Pb1_10 1_555 1_555
C23_10 C24_10 1_555 1_555
C25_10 S5_10 1_555 1_555
O10_10 Pb7 1_555 1_555
C28_10 C29_10 1_555 1_555
C29_10 C30_10 1_555 1_555
C30_10 S6_10 1_555 1_555
O12_10 Pb3_10 1_555 1_555
O17_10 Pb6_10 1_555 1_555
O19_10 Pb13_10 1_555 1_555
C11_10 C12_10 1_555 1_555
C12_10 C13_10 1_555 1_555
C13_10 H3_10 1_555 1_555
C14_10 C13_10 1_555 1_555
O5_10 C11_10 1_555 1_555
O6_10 C11_10 1_555 1_555
S3_10 C12_10 1_555 1_555
C16_10 C17_10 1_555 1_555
C17_10 C18_10 1_555 1_555
C18_10 H4_10 1_555 1_555
C19_10 C5_10 1_555 1_555
C20_10 C14_10 1_555 1_555
O14_7 C16_10 1_555 1_555
O18_7 C16_10 1_555 1_555
S4_10 C17_10 1_555 1_555
Pb4_10 O14_7 1_555 1_555
Pb5_10 O5_10 1_555 1_555
Pb9_10 O6_10 1_555 1_555
C14_10 C15_10 1_555 1_555
C15_10 S3_10 1_555 1_555
O6_10 Pb5_10 1_555 1_555
C18_10 C19_10 1_555 1_555
C19_10 C20_10 1_555 1_555
C20_10 S4_10 1_555 1_555
C16_11 C17_11 1_555 1_555
C17_11 C18_11 1_555 1_555
C18_11 H4_11 1_555 1_555
O14_5 C16_11 1_555 1_555
O18_5 C16_11 1_555 1_555
S4_11 C17_11 1_555 1_555
C26_11 C27_11 1_555 1_555
C27_11 C28_11 1_555 1_555
O11_11 C26_11 1_555 1_555
O12_11 C26_11 1_555 1_555
S6_11 C27_11 1_555 1_555
Pb3_11 O11_11 1_555 1_555
O16_11 Pb3_11 1_555 1_555
O19_11 Pb3_11 1_555 1_555
O20_11 Pb3_11 1_555 1_555
O23_11 Pb3_11 1_555 1_555
Pb13_11 O11_11 1_555 1_555
C18_11 C19_11 1_555 1_555
C30_11 S6_11 1_555 1_555
O12_11 Pb3_11 1_555 1_555
O17_11 Pb6_11 1_555 1_555
O19_11 Pb13_11 1_555 1_555
C11_11 C12_11 1_555 1_555
C12_11 C13_11 1_555 1_555
C13_11 H3_11 1_555 1_555
C14_11 C13_11 1_555 1_555
O5_11 C11_11 1_555 1_555
O6_11 C11_11 1_555 1_555
S3_11 C12_11 1_555 1_555
C21_11 C22_11 1_555 1_555
C22_11 C23_11 1_555 1_555
C23_11 H5_11 1_555 1_555
O9_11 C21_11 1_555 1_555
O10_11 C21_11 1_555 1_555
S5_11 C22_11 1_555 1_555
Pb7_2 O9_11 1_555 1_555
O13_11 Pb7_2 1_555 1_555
O22_11 Pb7_2 1_555 1_555
O25_11 Pb7_2 1_555 1_555
Pb5_11 O5_11 1_555 1_555
Pb8_11 O5_11 1_555 1_555
Pb9_11 O6_11 1_555 1_555
Pb10_2 O9_11 1_555 1_555
O6_11 Pb5_11 1_555 1_555
C25_11 S5_11 1_555 1_555
O10_11 Pb7_2 1_555 1_555
C1_11 C2_11 1_555 1_555
C2_11 C3_11 1_555 1_555
C3_11 H1_11 1_555 1_555
C4_11 C3_11 1_555 1_555
C5_11 C4_11 1_555 1_555
C6_11 C7_11 1_555 1_555
C7_11 C8_11 1_555 1_555
C9_11 C8_11 1_555 1_555
C10_11 C9_11 1_555 1_555
O1_11 C1_11 1_555 1_555
O2_11 C1_11 1_555 1_555
O3_11 C6_11 1_555 1_555
O4_11 C6_11 1_555 1_555
Pb1_11 O1_11 1_555 1_555
S1_11 C2_11 1_555 1_555
S2_11 C7_11 1_555 1_555
C15_11 C4_11 1_555 1_555
C24_11 C10_11 1_555 1_555
O21_11 Pb1_11 1_555 1_555
O24_11 Pb1_11 1_555 1_555
Pb12_11 O2_11 1_555 1_555
C5_11 S1_11 1_555 1_555
C10_11 S2_11 1_555 1_555
O2_11 Pb1_11 1_555 1_555
O3_11 Pb1_11 1_555 1_555
O3_11 Pb12_11 1_555 1_555
O4_11 Pb1_11 1_555 1_555
C1_12 C2_12 1_555 1_555
C2_12 C3_12 1_555 1_555
C3_12 H1_12 1_555 1_555
C4_12 C3_12 1_555 1_555
C5_12 C4_12 1_555 1_555
C6_12 C7_12 1_555 1_555
C7_12 C8_12 1_555 1_555
C8_12 H2_12 1_555 1_555
C9_12 C8_12 1_555 1_555
C10_12 C9_12 1_555 1_555
O1_12 C1_12 1_555 1_555
O2_12 C1_12 1_555 1_555
O3_12 C6_12 1_555 1_555
O4_12 C6_12 1_555 1_555
Pb1_12 O1_12 1_555 1_555
S1_12 C2_12 1_555 1_555
S2_12 C7_12 1_555 1_555
C11_12 C12_12 1_555 1_555
C12_12 C13_12 1_555 1_555
C13_12 H3_12 1_555 1_555
C14_12 C13_12 1_555 1_555
C15_12 C4_12 1_555 1_555
O5_12 C11_12 1_555 1_555
O6_12 C11_12 1_555 1_555
S3_12 C12_12 1_555 1_555
C16_12 C17_12 1_555 1_555
C17_12 C18_12 1_555 1_555
C18_12 H4_12 1_555 1_555
C19_12 C5_12 1_555 1_555
C20_12 C14_12 1_555 1_555
O14_8 C16_12 1_555 1_555
O18_8 C16_12 1_555 1_555
S4_12 C17_12 1_555 1_555
C21_12 C22_12 1_555 1_555
C22_12 C23_12 1_555 1_555
C23_12 H5_12 1_555 1_555
C24_12 C10_12 1_555 1_555
C25_12 C24_12 1_555 1_555
O9_12 C21_12 1_555 1_555
O10_12 C21_12 1_555 1_555
S5_12 C22_12 1_555 1_555
C26_12 C27_12 1_555 1_555
C27_12 C28_12 1_555 1_555
C28_12 H6_12 1_555 1_555
C29_12 C25_12 1_555 1_555
C30_12 C9_12 1_555 1_555
O11_12 C26_12 1_555 1_555
O12_12 C26_12 1_555 1_555
S6_12 C27_12 1_555 1_555
Pb7_4 O9_12 1_555 1_555
Pb3_12 O11_12 1_555 1_555
O13_12 Pb7_4 1_555 1_555
O15_12 Pb3_12 1_555 1_555
O16_12 Pb3_12 1_555 1_555
O17_12 Pb1_12 1_555 1_555
O19_12 Pb3_12 1_555 1_555
O20_12 Pb3_12 1_555 1_555
O21_12 Pb1_12 1_555 1_555
O22_12 Pb7_4 1_555 1_555
O23_12 Pb3_12 1_555 1_555
O24_12 Pb1_12 1_555 1_555
O25_12 Pb7_4 1_555 1_555
Pb4_12 O14_8 1_555 1_555
Pb5_12 O5_12 1_555 1_555
Pb6_12 O1_12 1_555 1_555
Pb8_12 O5_12 1_555 1_555
Pb9_12 O6_12 1_555 1_555
Pb10_4 O9_12 1_555 1_555
Pb12_12 O2_12 1_555 1_555
Pb13_12 O11_12 1_555 1_555
C5_12 S1_12 1_555 1_555
C10_12 S2_12 1_555 1_555
O2_12 Pb1_12 1_555 1_555
O3_12 Pb1_12 1_555 1_555
O3_12 Pb12_12 1_555 1_555
O4_12 Pb1_12 1_555 1_555
C14_12 C15_12 1_555 1_555
C15_12 S3_12 1_555 1_555
O6_12 Pb5_12 1_555 1_555
C18_12 C19_12 1_555 1_555
C19_12 C20_12 1_555 1_555
C20_12 S4_12 1_555 1_555
C23_12 C24_12 1_555 1_555
C25_12 S5_12 1_555 1_555
O10_12 Pb7_4 1_555 1_555
C28_12 C29_12 1_555 1_555
C29_12 C30_12 1_555 1_555
C30_12 S6_12 1_555 1_555
O12_12 Pb3_12 1_555 1_555
O17_12 Pb6_12 1_555 1_555
O19_12 Pb13_12 1_555 1_555
C1_13 C2_13 1_555 1_555
C2_13 C3_13 1_555 1_555
C3_13 H1_13 1_555 1_555
C4_13 C3_13 1_555 1_555
C5_13 C4_13 1_555 1_555
C6_13 C7_13 1_555 1_555
C7_13 C8_13 1_555 1_555
C8_13 H2_13 1_555 1_555
C9_13 C8_13 1_555 1_555
C10_13 C9_13 1_555 1_555
O13_2 C1_13 1_555 1_555
O2_13 C1_13 1_555 1_555
O3_13 C6_13 1_555 1_555
O4_13 C6_13 1_555 1_555
Pb4_5 O13_2 1_555 1_555
S1_13 C2_13 1_555 1_555
S2_13 C7_13 1_555 1_555
C11_13 C12_13 1_555 1_555
C12_13 C13_13 1_555 1_555
C13_13 H3_13 1_555 1_555
C14_13 C13_13 1_555 1_555
C15_13 C4_13 1_555 1_555
O5_13 C11_13 1_555 1_555
O6_13 C11_13 1_555 1_555
S3_13 C12_13 1_555 1_555
C16_13 C17_13 1_555 1_555
C17_13 C18_13 1_555 1_555
C18_13 H4_13 1_555 1_555
C19_13 C5_13 1_555 1_555
C20_13 C14_13 1_555 1_555
O17_8 C16_13 1_555 1_555
O8_5 C16_13 1_555 1_555
S4_13 C17_13 1_555 1_555
C21_13 C22_13 1_555 1_555
C22_13 C23_13 1_555 1_555
C23_13 H5_13 1_555 1_555
C24_13 C10_13 1_555 1_555
C25_13 C24_13 1_555 1_555
O9_13 C21_13 1_555 1_555
O10_13 C21_13 1_555 1_555
S5_13 C22_13 1_555 1_555
C26_13 C27_13 1_555 1_555
C27_13 C28_13 1_555 1_555
C28_13 H6_13 1_555 1_555
C29_13 C25_13 1_555 1_555
C30_13 C9_13 1_555 1_555
O11_13 C26_13 1_555 1_555
O12_13 C26_13 1_555 1_555
S6_13 C27_13 1_555 1_555
Pb6_2 O9_13 1_555 1_555
Pb3_13 O11_13 1_555 1_555
O16_2 Pb3_13 1_555 1_555
O15_2 Pb3_13 1_555 1_555
O18_9 Pb6_2 1_555 1_555
O19_13 Pb3_13 1_555 1_555
O20_13 Pb3_13 1_555 1_555
O21_13 Pb4_5 1_555 1_555
O22_13 Pb6_2 1_555 1_555
O23_13 Pb3_13 1_555 1_555
O24_13 Pb4_5 1_555 1_555
O25_13 Pb6_2 1_555 1_555
Pb8_7 O5_13 1_555 1_555
Pb5_7 O5_13 1_555 1_555
Pb9_13 O6_13 1_555 1_555
Pb10_5 O8_5 1_555 1_555
Pb11_9 O9_13 1_555 1_555
Pb12_13 O2_13 1_555 1_555
Pb13_13 O11_13 1_555 1_555
C5_13 S1_13 1_555 1_555
C10_13 S2_13 1_555 1_555
O2_13 Pb4_5 1_555 1_555
O3_13 Pb4_5 1_555 1_555
O3_13 Pb12_13 1_555 1_555
O4_13 Pb4_5 1_555 1_555
C14_13 C15_13 1_555 1_555
C15_13 S3_13 1_555 1_555
O6_13 Pb8_7 1_555 1_555
C18_13 C19_13 1_555 1_555
C19_13 C20_13 1_555 1_555
C20_13 S4_13 1_555 1_555
O8_5 Pb6_8 1_555 1_555
C23_13 C24_13 1_555 1_555
C25_13 S5_13 1_555 1_555
O10_13 Pb6_2 1_555 1_555
C28_13 C29_13 1_555 1_555
C29_13 C30_13 1_555 1_555
C30_13 S6_13 1_555 1_555
O12_13 Pb3_13 1_555 1_555
O18_9 Pb11_9 1_555 1_555
O19_13 Pb13_13 1_555 1_555
C1_14 C2_14 1_555 1_555
C2_14 C3_14 1_555 1_555
C3_14 H1_14 1_555 1_555
C4_14 C3_14 1_555 1_555
C5_14 C4_14 1_555 1_555
C6_14 C7_14 1_555 1_555
C7_14 C8_14 1_555 1_555
C9_14 C8_14 1_555 1_555
C10_14 C9_14 1_555 1_555
O13 C1_14 1_555 1_555
O2_14 C1_14 1_555 1_555
O3_14 C6_14 1_555 1_555
O4_14 C6_14 1_555 1_555
Pb4_7 O13 1_555 1_555
S1_14 C2_14 1_555 1_555
S2_14 C7_14 1_555 1_555
C11_14 C12_14 1_555 1_555
C12_14 C13_14 1_555 1_555
C13_14 H3_14 1_555 1_555
C14_14 C13_14 1_555 1_555
C15_14 C4_14 1_555 1_555
O5_14 C11_14 1_555 1_555
O6_14 C11_14 1_555 1_555
S3_14 C12_14 1_555 1_555
C20_14 C14_14 1_555 1_555
C21_14 C22_14 1_555 1_555
C22_14 C23_14 1_555 1_555
C23_14 H5_14 1_555 1_555
C24_14 C10_14 1_555 1_555
C25_14 C24_14 1_555 1_555
O9_14 C21_14 1_555 1_555
O10_14 C21_14 1_555 1_555
S5_14 C22_14 1_555 1_555
C29_14 C25_14 1_555 1_555
Pb6 O9_14 1_555 1_555
O18_10 Pb6 1_555 1_555
O21_14 Pb4_7 1_555 1_555
O22_14 Pb6 1_555 1_555
O24_14 Pb4_7 1_555 1_555
O25_14 Pb6 1_555 1_555
Pb8_5 O5_14 1_555 1_555
Pb5_5 O5_14 1_555 1_555
Pb9_14 O6_14 1_555 1_555
Pb11_10 O9_14 1_555 1_555
Pb12_14 O2_14 1_555 1_555
C5_14 S1_14 1_555 1_555
C10_14 S2_14 1_555 1_555
O2_14 Pb4_7 1_555 1_555
O3_14 Pb4_7 1_555 1_555
O3_14 Pb12_14 1_555 1_555
O4_14 Pb4_7 1_555 1_555
C14_14 C15_14 1_555 1_555
C15_14 S3_14 1_555 1_555
O6_14 Pb8_5 1_555 1_555
C23_14 C24_14 1_555 1_555
C25_14 S5_14 1_555 1_555
O10_14 Pb6 1_555 1_555
O18_10 Pb11_10 1_555 1_555
C16_14 C17_14 1_555 1_555
C17_14 C18_14 1_555 1_555
C18_14 H4_14 1_555 1_555
O17_6 C16_14 1_555 1_555
O8_6 C16_14 1_555 1_555
S4_14 C17_14 1_555 1_555
C26_14 C27_14 1_555 1_555
C27_14 C28_14 1_555 1_555
C28_14 H6_14 1_555 1_555
O11_14 C26_14 1_555 1_555
O12_14 C26_14 1_555 1_555
S6_14 C27_14 1_555 1_555
Pb3_14 O11_14 1_555 1_555
O16 Pb3_14 1_555 1_555
O15 Pb3_14 1_555 1_555
O19_14 Pb3_14 1_555 1_555
O20_14 Pb3_14 1_555 1_555
O23_14 Pb3_14 1_555 1_555
Pb10_6 O8_6 1_555 1_555
Pb13_14 O11_14 1_555 1_555
C18_14 C19_14 1_555 1_555
O8_6 Pb6_6 1_555 1_555
C30_14 S6_14 1_555 1_555
O12_14 Pb3_14 1_555 1_555
O19_14 Pb13_14 1_555 1_555
C26_15 C27_15 1_555 1_555
C27_15 C28_15 1_555 1_555
C30_15 C9_15 1_555 1_555
O11_15 C26_15 1_555 1_555
O12_15 C26_15 1_555 1_555
S6_15 C27_15 1_555 1_555
Pb3_15 O11_15 1_555 1_555
O15_3 Pb3_15 1_555 1_555
O19_15 Pb3_15 1_555 1_555
O20_15 Pb3_15 1_555 1_555
O23_15 Pb3_15 1_555 1_555
Pb13_15 O11_15 1_555 1_555
C28_15 C29_15 1_555 1_555
C29_15 C30_15 1_555 1_555
C30_15 S6_15 1_555 1_555
O12_15 Pb3_15 1_555 1_555
O19_15 Pb13_15 1_555 1_555
C21_15 C22_15 1_555 1_555
C22_15 C23_15 1_555 1_555
O9_15 C21_15 1_555 1_555
O10_15 C21_15 1_555 1_555
S5_15 C22_15 1_555 1_555
Pb6_3 O9_15 1_555 1_555
O18_11 Pb6_3 1_555 1_555
O22_15 Pb6_3 1_555 1_555
O25_15 Pb6_3 1_555 1_555
Pb11_11 O9_15 1_555 1_555
C25_15 S5_15 1_555 1_555
O10_15 Pb6_3 1_555 1_555
O18_11 Pb11_11 1_555 1_555
C1_15 C2_15 1_555 1_555
C2_15 C3_15 1_555 1_555
C3_15 H1_15 1_555 1_555
C4_15 C3_15 1_555 1_555
C5_15 C4_15 1_555 1_555
C6_15 C7_15 1_555 1_555
C7_15 C8_15 1_555 1_555
C8_15 H2_15 1_555 1_555
O13_3 C1_15 1_555 1_555
O2_15 C1_15 1_555 1_555
O3_15 C6_15 1_555 1_555
O4_15 C6_15 1_555 1_555
Pb4_6 O13_3 1_555 1_555
S1_15 C2_15 1_555 1_555
S2_15 C7_15 1_555 1_555
C15_15 C4_15 1_555 1_555
C16_15 C17_15 1_555 1_555
C17_15 C18_15 1_555 1_555
C18_15 H4_15 1_555 1_555
C19_15 C5_15 1_555 1_555
O17_7 C16_15 1_555 1_555
O8_7 C16_15 1_555 1_555
S4_15 C17_15 1_555 1_555
O21_15 Pb4_6 1_555 1_555
O24_15 Pb4_6 1_555 1_555
Pb10_7 O8_7 1_555 1_555
Pb12_15 O2_15 1_555 1_555
C5_15 S1_15 1_555 1_555
C10_15 S2_15 1_555 1_555
O2_15 Pb4_6 1_555 1_555
O3_15 Pb4_6 1_555 1_555
O3_15 Pb12_15 1_555 1_555
O4_15 Pb4_6 1_555 1_555
C18_15 C19_15 1_555 1_555
C19_15 C20_15 1_555 1_555
C20_15 S4_15 1_555 1_555
O8_7 Pb6_7 1_555 1_555
C11_15 C12_15 1_555 1_555
C12_15 C13_15 1_555 1_555
C13_15 H3_15 1_555 1_555
C14_15 C13_15 1_555 1_555
O5_15 C11_15 1_555 1_555
O6_15 C11_15 1_555 1_555
S3_15 C12_15 1_555 1_555
Pb8_8 O5_15 1_555 1_555
Pb5_8 O5_15 1_555 1_555
Pb9_15 O6_15 1_555 1_555
O6_15 Pb8_8 1_555 1_555
C11_16 C12_16 1_555 1_555
C12_16 C13_16 1_555 1_555
C13_16 H3_16 1_555 1_555
C14_16 C13_16 1_555 1_555
O5_16 C11_16 1_555 1_555
O6_16 C11_16 1_555 1_555
S3_16 C12_16 1_555 1_555
C16_16 C17_16 1_555 1_555
C17_16 C18_16 1_555 1_555
C18_16 H4_16 1_555 1_555
C19_16 C5_16 1_555 1_555
C20_16 C14_16 1_555 1_555
O17_5 C16_16 1_555 1_555
O8_8 C16_16 1_555 1_555
S4_16 C17_16 1_555 1_555
Pb8_6 O5_16 1_555 1_555
Pb9_16 O6_16 1_555 1_555
Pb10_8 O8_8 1_555 1_555
C14_16 C15_16 1_555 1_555
C15_16 S3_16 1_555 1_555
O6_16 Pb8_6 1_555 1_555
C18_16 C19_16 1_555 1_555
C19_16 C20_16 1_555 1_555
C20_16 S4_16 1_555 1_555
O8_8 Pb6_5 1_555 1_555
C1_16 C2_16 1_555 1_555
C2_16 C3_16 1_555 1_555
C3_16 H1_16 1_555 1_555
C4_16 C3_16 1_555 1_555
C6_16 C7_16 1_555 1_555
C7_16 C8_16 1_555 1_555
C8_16 H2_16 1_555 1_555
C9_16 C8_16 1_555 1_555
C10_16 C9_16 1_555 1_555
O13_4 C1_16 1_555 1_555
O2_16 C1_16 1_555 1_555
O3_16 C6_16 1_555 1_555
O4_16 C6_16 1_555 1_555
Pb4_8 O13_4 1_555 1_555
S1_16 C2_16 1_555 1_555
S2_16 C7_16 1_555 1_555
C21_16 C22_16 1_555 1_555
C22_16 C23_16 1_555 1_555
C23_16 H5_16 1_555 1_555
C24_16 C10_16 1_555 1_555
C25_16 C24_16 1_555 1_555
O9_16 C21_16 1_555 1_555
O10_16 C21_16 1_555 1_555
S5_16 C22_16 1_555 1_555
C26_16 C27_16 1_555 1_555
C27_16 C28_16 1_555 1_555
C28_16 H6_16 1_555 1_555
C29_16 C25_16 1_555 1_555
C30_16 C9_16 1_555 1_555
O11_16 C26_16 1_555 1_555
O12_16 C26_16 1_555 1_555
S6_16 C27_16 1_555 1_555
Pb6_4 O9_16 1_555 1_555
Pb3_16 O11_16 1_555 1_555
O16_4 Pb3_16 1_555 1_555
O15_4 Pb3_16 1_555 1_555
O18_12 Pb6_4 1_555 1_555
O19_16 Pb3_16 1_555 1_555
O20_16 Pb3_16 1_555 1_555
O21_16 Pb4_8 1_555 1_555
O22_16 Pb6_4 1_555 1_555
O23_16 Pb3_16 1_555 1_555
O24_16 Pb4_8 1_555 1_555
O25_16 Pb6_4 1_555 1_555
Pb11_12 O9_16 1_555 1_555
Pb12_16 O2_16 1_555 1_555
Pb13_16 O11_16 1_555 1_555
C10_16 S2_16 1_555 1_555
O2_16 Pb4_8 1_555 1_555
O3_16 Pb4_8 1_555 1_555
O3_16 Pb12_16 1_555 1_555
O4_16 Pb4_8 1_555 1_555
C23_16 C24_16 1_555 1_555
C25_16 S5_16 1_555 1_555
O10_16 Pb6_4 1_555 1_555
C28_16 C29_16 1_555 1_555
C29_16 C30_16 1_555 1_555
C30_16 S6_16 1_555 1_555
O12_16 Pb3_16 1_555 1_555
O18_12 Pb11_12 1_555 1_555
O19_16 Pb13_16 1_555 1_555
C11_17 C12_17 1_555 1_555
C12_17 C13_17 1_555 1_555
C13_17 H3_17 1_555 1_555
C14_17 C13_17 1_555 1_555
O5_17 C11_17 1_555 1_555
O6_17 C11_17 1_555 1_555
S3_17 C12_17 1_555 1_555
C16_17 C17_17 1_555 1_555
C17_17 C18_17 1_555 1_555
C18_17 H4_17 1_555 1_555
C19_17 C5_17 1_555 1_555
C20_17 C14_17 1_555 1_555
O17 C16_17 1_555 1_555
O18_10 C16_17 1_555 1_555
S4_17 C17_17 1_555 1_555
Pb8_2 O5_17 1_555 1_555
Pb9_17 O6_17 1_555 1_555
C14_17 C15_17 1_555 1_555
C15_17 S3_17 1_555 1_555
O6_17 Pb8_2 1_555 1_555
C18_17 C19_17 1_555 1_555
C19_17 C20_17 1_555 1_555
C20_17 S4_17 1_555 1_555
C1_17 C2_17 1_555 1_555
C2_17 C3_17 1_555 1_555
C3_17 H1_17 1_555 1_555
C4_17 C3_17 1_555 1_555
C6_17 C7_17 1_555 1_555
C7_17 C8_17 1_555 1_555
C8_17 H2_17 1_555 1_555
C9_17 C8_17 1_555 1_555
C10_17 C9_17 1_555 1_555
O13_12 C1_17 1_555 1_555
O2_17 C1_17 1_555 1_555
O3_17 C6_17 1_555 1_555
O4_17 C6_17 1_555 1_555
Pb4_4 O13_12 1_555 1_555
S1_17 C2_17 1_555 1_555
S2_17 C7_17 1_555 1_555
C21_17 C22_17 1_555 1_555
C22_17 C23_17 1_555 1_555
C23_17 H5_17 1_555 1_555
C24_17 C10_17 1_555 1_555
C25_17 C24_17 1_555 1_555
O9_17 C21_17 1_555 1_555
O10_17 C21_17 1_555 1_555
S5_17 C22_17 1_555 1_555
C26_17 C27_17 1_555 1_555
C27_17 C28_17 1_555 1_555
C28_17 H6_17 1_555 1_555
C29_17 C25_17 1_555 1_555
C30_17 C9_17 1_555 1_555
O11_17 C26_17 1_555 1_555
O12_17 C26_17 1_555 1_555
S6_17 C27_17 1_555 1_555
Pb6_12 O9_17 1_555 1_555
Pb3_17 O11_17 1_555 1_555
O16_12 Pb3_17 1_555 1_555
O15_12 Pb3_17 1_555 1_555
O18_13 Pb6_12 1_555 1_555
O19_17 Pb3_17 1_555 1_555
O20_17 Pb3_17 1_555 1_555
O21_17 Pb4_4 1_555 1_555
O22_17 Pb6_12 1_555 1_555
O23_17 Pb3_17 1_555 1_555
O24_17 Pb4_4 1_555 1_555
O25_17 Pb6_12 1_555 1_555
Pb11_13 O9_17 1_555 1_555
Pb12_17 O2_17 1_555 1_555
Pb13_17 O11_17 1_555 1_555
C10_17 S2_17 1_555 1_555
O2_17 Pb4_4 1_555 1_555
O3_17 Pb4_4 1_555 1_555
O3_17 Pb12_17 1_555 1_555
O4_17 Pb4_4 1_555 1_555
C23_17 C24_17 1_555 1_555
C25_17 S5_17 1_555 1_555
O10_17 Pb6_12 1_555 1_555
C28_17 C29_17 1_555 1_555
C29_17 C30_17 1_555 1_555
C30_17 S6_17 1_555 1_555
O12_17 Pb3_17 1_555 1_555
O18_13 Pb11_13 1_555 1_555
O19_17 Pb13_17 1_555 1_555
C26_18 C27_18 1_555 1_555
C27_18 C28_18 1_555 1_555
C30_18 C9_18 1_555 1_555
O11_18 C26_18 1_555 1_555
O12_18 C26_18 1_555 1_555
S6_18 C27_18 1_555 1_555
Pb3_18 O11_18 1_555 1_555
O15_11 Pb3_18 1_555 1_555
O19_18 Pb3_18 1_555 1_555
O20_18 Pb3_18 1_555 1_555
O23_18 Pb3_18 1_555 1_555
Pb13_18 O11_18 1_555 1_555
C28_18 C29_18 1_555 1_555
C29_18 C30_18 1_555 1_555
C30_18 S6_18 1_555 1_555
O12_18 Pb3_18 1_555 1_555
O19_18 Pb13_18 1_555 1_555
C21_18 C22_18 1_555 1_555
C22_18 C23_18 1_555 1_555
O9_18 C21_18 1_555 1_555
O10_18 C21_18 1_555 1_555
S5_18 C22_18 1_555 1_555
Pb6_11 O9_18 1_555 1_555
O18_14 Pb6_11 1_555 1_555
O22_18 Pb6_11 1_555 1_555
O25_18 Pb6_11 1_555 1_555
Pb11_14 O9_18 1_555 1_555
C25_18 S5_18 1_555 1_555
O10_18 Pb6_11 1_555 1_555
O18_14 Pb11_14 1_555 1_555
C1_18 C2_18 1_555 1_555
C2_18 C3_18 1_555 1_555
C3_18 H1_18 1_555 1_555
C4_18 C3_18 1_555 1_555
C5_18 C4_18 1_555 1_555
C6_18 C7_18 1_555 1_555
C7_18 C8_18 1_555 1_555
C8_18 H2_18 1_555 1_555
O13_11 C1_18 1_555 1_555
O2_18 C1_18 1_555 1_555
O3_18 C6_18 1_555 1_555
O4_18 C6_18 1_555 1_555
Pb4_2 O13_11 1_555 1_555
S1_18 C2_18 1_555 1_555
S2_18 C7_18 1_555 1_555
C15_18 C4_18 1_555 1_555
C16_18 C17_18 1_555 1_555
C17_18 C18_18 1_555 1_555
C18_18 H4_18 1_555 1_555
C19_18 C5_18 1_555 1_555
O17_3 C16_18 1_555 1_555
O18_11 C16_18 1_555 1_555
S4_18 C17_18 1_555 1_555
O21_18 Pb4_2 1_555 1_555
O24_18 Pb4_2 1_555 1_555
Pb12_18 O2_18 1_555 1_555
C5_18 S1_18 1_555 1_555
C10_18 S2_18 1_555 1_555
O2_18 Pb4_2 1_555 1_555
O3_18 Pb4_2 1_555 1_555
O3_18 Pb12_18 1_555 1_555
O4_18 Pb4_2 1_555 1_555
C18_18 C19_18 1_555 1_555
C19_18 C20_18 1_555 1_555
C20_18 S4_18 1_555 1_555
C11_18 C12_18 1_555 1_555
C12_18 C13_18 1_555 1_555
C13_18 H3_18 1_555 1_555
C14_18 C13_18 1_555 1_555
O5_18 C11_18 1_555 1_555
O6_18 C11_18 1_555 1_555
S3_18 C12_18 1_555 1_555
Pb8_4 O5_18 1_555 1_555
Pb5_4 O5_18 1_555 1_555
Pb9_18 O6_18 1_555 1_555
O6_18 Pb8_4 1_555 1_555
C1_19 C2_19 1_555 1_555
C2_19 C3_19 1_555 1_555
C3_19 H1_19 1_555 1_555
C4_19 C3_19 1_555 1_555
C5_19 C4_19 1_555 1_555
C6_19 C7_19 1_555 1_555
C7_19 C8_19 1_555 1_555
C9_19 C8_19 1_555 1_555
C10_19 C9_19 1_555 1_555
O13_9 C1_19 1_555 1_555
O2_19 C1_19 1_555 1_555
O3_19 C6_19 1_555 1_555
O4_19 C6_19 1_555 1_555
Pb4_3 O13_9 1_555 1_555
S1_19 C2_19 1_555 1_555
S2_19 C7_19 1_555 1_555
C11_19 C12_19 1_555 1_555
C12_19 C13_19 1_555 1_555
C13_19 H3_19 1_555 1_555
C14_19 C13_19 1_555 1_555
C15_19 C4_19 1_555 1_555
O5_19 C11_19 1_555 1_555
O6_19 C11_19 1_555 1_555
S3_19 C12_19 1_555 1_555
C20_19 C14_19 1_555 1_555
C21_19 C22_19 1_555 1_555
C22_19 C23_19 1_555 1_555
C23_19 H5_19 1_555 1_555
C24_19 C10_19 1_555 1_555
C25_19 C24_19 1_555 1_555
O9_19 C21_19 1_555 1_555
O10_19 C21_19 1_555 1_555
S5_19 C22_19 1_555 1_555
C29_19 C25_19 1_555 1_555
Pb6_9 O9_19 1_555 1_555
O18_15 Pb6_9 1_555 1_555
O21_19 Pb4_3 1_555 1_555
O22_19 Pb6_9 1_555 1_555
O24_19 Pb4_3 1_555 1_555
O25_19 Pb6_9 1_555 1_555
Pb8 O5_19 1_555 1_555
Pb5 O5_19 1_555 1_555
Pb9_19 O6_19 1_555 1_555
Pb11_15 O9_19 1_555 1_555
Pb12_19 O2_19 1_555 1_555
C5_19 S1_19 1_555 1_555
C10_19 S2_19 1_555 1_555
O2_19 Pb4_3 1_555 1_555
O3_19 Pb4_3 1_555 1_555
O3_19 Pb12_19 1_555 1_555
O4_19 Pb4_3 1_555 1_555
C14_19 C15_19 1_555 1_555
C15_19 S3_19 1_555 1_555
O6_19 Pb8 1_555 1_555
C23_19 C24_19 1_555 1_555
C25_19 S5_19 1_555 1_555
O10_19 Pb6_9 1_555 1_555
O18_15 Pb11_15 1_555 1_555
C16_19 C17_19 1_555 1_555
C17_19 C18_19 1_555 1_555
C18_19 H4_19 1_555 1_555
O17_2 C16_19 1_555 1_555
O18_9 C16_19 1_555 1_555
S4_19 C17_19 1_555 1_555
C26_19 C27_19 1_555 1_555
C27_19 C28_19 1_555 1_555
C28_19 H6_19 1_555 1_555
O11_19 C26_19 1_555 1_555
O12_19 C26_19 1_555 1_555
S6_19 C27_19 1_555 1_555
Pb3_19 O11_19 1_555 1_555
O16_9 Pb3_19 1_555 1_555
O15_9 Pb3_19 1_555 1_555
O19_19 Pb3_19 1_555 1_555
O20_19 Pb3_19 1_555 1_555
O23_19 Pb3_19 1_555 1_555
Pb13_19 O11_19 1_555 1_555
C18_19 C19_19 1_555 1_555
C30_19 S6_19 1_555 1_555
O12_19 Pb3_19 1_555 1_555
O19_19 Pb13_19 1_555 1_555
C1_20 C2_20 1_555 1_555
C2_20 C3_20 1_555 1_555
C3_20 H1_20 1_555 1_555
C4_20 C3_20 1_555 1_555
C5_20 C4_20 1_555 1_555
C6_20 C7_20 1_555 1_555
C7_20 C8_20 1_555 1_555
C8_20 H2_20 1_555 1_555
C9_20 C8_20 1_555 1_555
C10_20 C9_20 1_555 1_555
O13_10 C1_20 1_555 1_555
O2_20 C1_20 1_555 1_555
O3_20 C6_20 1_555 1_555
O4_20 C6_20 1_555 1_555
Pb4 O13_10 1_555 1_555
S1_20 C2_20 1_555 1_555
S2_20 C7_20 1_555 1_555
C11_20 C12_20 1_555 1_555
C12_20 C13_20 1_555 1_555
C13_20 H3_20 1_555 1_555
C14_20 C13_20 1_555 1_555
C15_20 C4_20 1_555 1_555
O5_20 C11_20 1_555 1_555
O6_20 C11_20 1_555 1_555
S3_20 C12_20 1_555 1_555
C16_20 C17_20 1_555 1_555
C17_20 C18_20 1_555 1_555
C18_20 H4_20 1_555 1_555
C19_20 C5_20 1_555 1_555
C20_20 C14_20 1_555 1_555
O17_4 C16_20 1_555 1_555
O18_12 C16_20 1_555 1_555
S4_20 C17_20 1_555 1_555
C21_20 C22_20 1_555 1_555
C22_20 C23_20 1_555 1_555
C23_20 H5_20 1_555 1_555
C24_20 C10_20 1_555 1_555
C25_20 C24_20 1_555 1_555
O9_20 C21_20 1_555 1_555
O10_20 C21_20 1_555 1_555
S5_20 C22_20 1_555 1_555
C26_20 C27_20 1_555 1_555
C27_20 C28_20 1_555 1_555
C28_20 H6_20 1_555 1_555
C29_20 C25_20 1_555 1_555
C30_20 C9_20 1_555 1_555
O11_20 C26_20 1_555 1_555
O12_20 C26_20 1_555 1_555
S6_20 C27_20 1_555 1_555
Pb6_10 O9_20 1_555 1_555
Pb3_20 O11_20 1_555 1_555
O16_10 Pb3_20 1_555 1_555
O15_10 Pb3_20 1_555 1_555
O18_16 Pb6_10 1_555 1_555
O19_20 Pb3_20 1_555 1_555
O20_20 Pb3_20 1_555 1_555
O21_20 Pb4 1_555 1_555
O22_20 Pb6_10 1_555 1_555
O23_20 Pb3_20 1_555 1_555
O24_20 Pb4 1_555 1_555
O25_20 Pb6_10 1_555 1_555
Pb8_3 O5_20 1_555 1_555
Pb5_3 O5_20 1_555 1_555
Pb9_20 O6_20 1_555 1_555
Pb11_16 O9_20 1_555 1_555
Pb12_20 O2_20 1_555 1_555
Pb13_20 O11_20 1_555 1_555
C5_20 S1_20 1_555 1_555
C10_20 S2_20 1_555 1_555
O2_20 Pb4 1_555 1_555
O3_20 Pb4 1_555 1_555
O3_20 Pb12_20 1_555 1_555
O4_20 Pb4 1_555 1_555
C14_20 C15_20 1_555 1_555
C15_20 S3_20 1_555 1_555
O6_20 Pb8_3 1_555 1_555
C18_20 C19_20 1_555 1_555
C19_20 C20_20 1_555 1_555
C20_20 S4_20 1_555 1_555
C23_20 C24_20 1_555 1_555
C25_20 S5_20 1_555 1_555
O10_20 Pb6_10 1_555 1_555
C28_20 C29_20 1_555 1_555
C29_20 C30_20 1_555 1_555
C30_20 S6_20 1_555 1_555
O12_20 Pb3_20 1_555 1_555
O18_16 Pb11_16 1_555 1_555
O19_20 Pb13_20 1_555 1_555
C26_21 C27_21 1_555 1_555
C27_21 C28_21 1_555 1_555
C30_21 C9_21 1_555 1_555
O11_21 C26_21 1_555 1_555
O12_21 C26_21 1_555 1_555
S6_21 C27_21 1_555 1_555
Pb3_21 O11_21 1_555 1_555
O15_7 Pb3_21 1_555 1_555
O19_21 Pb3_21 1_555 1_555
O20_21 Pb3_21 1_555 1_555
O23_21 Pb3_21 1_555 1_555
Pb13_21 O11_21 1_555 1_555
C28_21 C29_21 1_555 1_555
C29_21 C30_21 1_555 1_555
C30_21 S6_21 1_555 1_555
O12_21 Pb3_21 1_555 1_555
O19_21 Pb13_21 1_555 1_555
C1_21 C2_21 1_555 1_555
C2_21 C3_21 1_555 1_555
C3_21 H1_21 1_555 1_555
C4_21 C3_21 1_555 1_555
C5_21 C4_21 1_555 1_555
C6_21 C7_21 1_555 1_555
C7_21 C8_21 1_555 1_555
C8_21 H2_21 1_555 1_555
O13_7 C1_21 1_555 1_555
O2_21 C1_21 1_555 1_555
O3_21 C6_21 1_555 1_555
O4_21 C6_21 1_555 1_555
Pb4_10 O13_7 1_555 1_555
S1_21 C2_21 1_555 1_555
S2_21 C7_21 1_555 1_555
C15_21 C4_21 1_555 1_555
C16_21 C17_21 1_555 1_555
C17_21 C18_21 1_555 1_555
C18_21 H4_21 1_555 1_555
C19_21 C5_21 1_555 1_555
O17_11 C16_21 1_555 1_555
O18_14 C16_21 1_555 1_555
S4_21 C17_21 1_555 1_555
O21_21 Pb4_10 1_555 1_555
O24_21 Pb4_10 1_555 1_555
Pb12_21 O2_21 1_555 1_555
C5_21 S1_21 1_555 1_555
C10_21 S2_21 1_555 1_555
O2_21 Pb4_10 1_555 1_555
O3_21 Pb4_10 1_555 1_555
O3_21 Pb12_21 1_555 1_555
O4_21 Pb4_10 1_555 1_555
C18_21 C19_21 1_555 1_555
C19_21 C20_21 1_555 1_555
C20_21 S4_21 1_555 1_555
C21_21 C22_21 1_555 1_555
C22_21 C23_21 1_555 1_555
O9_21 C21_21 1_555 1_555
O10_21 C21_21 1_555 1_555
S5_21 C22_21 1_555 1_555
Pb6_7 O9_21 1_555 1_555
O22_21 Pb6_7 1_555 1_555
O25_21 Pb6_7 1_555 1_555
Pb10_7 O9_21 1_555 1_555
C25_21 S5_21 1_555 1_555
O10_21 Pb6_7 1_555 1_555
C11_21 C12_21 1_555 1_555
C12_21 C13_21 1_555 1_555
C13_21 H3_21 1_555 1_555
C14_21 C13_21 1_555 1_555
O5_21 C11_21 1_555 1_555
O6_21 C11_21 1_555 1_555
S3_21 C12_21 1_555 1_555
Pb8_12 O5_21 1_555 1_555
Pb5_12 O5_21 1_555 1_555
Pb9_21 O6_21 1_555 1_555
O6_21 Pb8_12 1_555 1_555
C11_22 C12_22 1_555 1_555
C12_22 C13_22 1_555 1_555
C13_22 H3_22 1_555 1_555
C14_22 C13_22 1_555 1_555
O5_22 C11_22 1_555 1_555
O6_22 C11_22 1_555 1_555
S3_22 C12_22 1_555 1_555
C16_22 C17_22 1_555 1_555
C17_22 C18_22 1_555 1_555
C18_22 H4_22 1_555 1_555
C19_22 C5_22 1_555 1_555
C20_22 C14_22 1_555 1_555
O17_9 C16_22 1_555 1_555
O18_15 C16_22 1_555 1_555
S4_22 C17_22 1_555 1_555
Pb8_10 O5_22 1_555 1_555
Pb9_22 O6_22 1_555 1_555
C14_22 C15_22 1_555 1_555
C15_22 S3_22 1_555 1_555
O6_22 Pb8_10 1_555 1_555
C18_22 C19_22 1_555 1_555
C19_22 C20_22 1_555 1_555
C20_22 S4_22 1_555 1_555
C1_22 C2_22 1_555 1_555
C2_22 C3_22 1_555 1_555
C3_22 H1_22 1_555 1_555
C4_22 C3_22 1_555 1_555
C6_22 C7_22 1_555 1_555
C7_22 C8_22 1_555 1_555
C8_22 H2_22 1_555 1_555
C9_22 C8_22 1_555 1_555
C10_22 C9_22 1_555 1_555
O13_8 C1_22 1_555 1_555
O2_22 C1_22 1_555 1_555
O3_22 C6_22 1_555 1_555
O4_22 C6_22 1_555 1_555
Pb4_12 O13_8 1_555 1_555
S1_22 C2_22 1_555 1_555
S2_22 C7_22 1_555 1_555
C21_22 C22_22 1_555 1_555
C22_22 C23_22 1_555 1_555
C23_22 H5_22 1_555 1_555
C24_22 C10_22 1_555 1_555
C25_22 C24_22 1_555 1_555
O9_22 C21_22 1_555 1_555
O10_22 C21_22 1_555 1_555
S5_22 C22_22 1_555 1_555
C26_22 C27_22 1_555 1_555
C27_22 C28_22 1_555 1_555
C28_22 H6_22 1_555 1_555
C29_22 C25_22 1_555 1_555
C30_22 C9_22 1_555 1_555
O11_22 C26_22 1_555 1_555
O12_22 C26_22 1_555 1_555
S6_22 C27_22 1_555 1_555
Pb6_8 O9_22 1_555 1_555
Pb3_22 O11_22 1_555 1_555
O16_8 Pb3_22 1_555 1_555
O15_8 Pb3_22 1_555 1_555
O19_22 Pb3_22 1_555 1_555
O20_22 Pb3_22 1_555 1_555
O21_22 Pb4_12 1_555 1_555
O22_22 Pb6_8 1_555 1_555
O23_22 Pb3_22 1_555 1_555
O24_22 Pb4_12 1_555 1_555
O25_22 Pb6_8 1_555 1_555
Pb10_5 O9_22 1_555 1_555
Pb12_22 O2_22 1_555 1_555
Pb13_22 O11_22 1_555 1_555
C10_22 S2_22 1_555 1_555
O2_22 Pb4_12 1_555 1_555
O3_22 Pb4_12 1_555 1_555
O3_22 Pb12_22 1_555 1_555
O4_22 Pb4_12 1_555 1_555
C23_22 C24_22 1_555 1_555
C25_22 S5_22 1_555 1_555
O10_22 Pb6_8 1_555 1_555
C28_22 C29_22 1_555 1_555
C29_22 C30_22 1_555 1_555
C30_22 S6_22 1_555 1_555
O12_22 Pb3_22 1_555 1_555
O19_22 Pb13_22 1_555 1_555
C1_23 C2_23 1_555 1_555
C2_23 C3_23 1_555 1_555
C3_23 H1_23 1_555 1_555
C4_23 C3_23 1_555 1_555
C5_23 C4_23 1_555 1_555
C6_23 C7_23 1_555 1_555
C7_23 C8_23 1_555 1_555
C8_23 H2_23 1_555 1_555
C9_23 C8_23 1_555 1_555
C10_23 C9_23 1_555 1_555
O13_6 C1_23 1_555 1_555
O2_23 C1_23 1_555 1_555
O3_23 C6_23 1_555 1_555
O4_23 C6_23 1_555 1_555
Pb4_9 O13_6 1_555 1_555
S1_23 C2_23 1_555 1_555
S2_23 C7_23 1_555 1_555
C11_23 C12_23 1_555 1_555
C12_23 C13_23 1_555 1_555
C13_23 H3_23 1_555 1_555
C14_23 C13_23 1_555 1_555
C15_23 C4_23 1_555 1_555
O5_23 C11_23 1_555 1_555
O6_23 C11_23 1_555 1_555
S3_23 C12_23 1_555 1_555
C16_23 C17_23 1_555 1_555
C17_23 C18_23 1_555 1_555
C18_23 H4_23 1_555 1_555
C19_23 C5_23 1_555 1_555
C20_23 C14_23 1_555 1_555
O17_12 C16_23 1_555 1_555
O18_13 C16_23 1_555 1_555
S4_23 C17_23 1_555 1_555
C21_23 C22_23 1_555 1_555
C22_23 C23_23 1_555 1_555
C23_23 H5_23 1_555 1_555
C24_23 C10_23 1_555 1_555
C25_23 C24_23 1_555 1_555
O9_23 C21_23 1_555 1_555
O10_23 C21_23 1_555 1_555
S5_23 C22_23 1_555 1_555
C26_23 C27_23 1_555 1_555
C27_23 C28_23 1_555 1_555
C28_23 H6_23 1_555 1_555
C29_23 C25_23 1_555 1_555
C30_23 C9_23 1_555 1_555
O11_23 C26_23 1_555 1_555
O12_23 C26_23 1_555 1_555
S6_23 C27_23 1_555 1_555
Pb6_6 O9_23 1_555 1_555
Pb3_23 O11_23 1_555 1_555
O16_6 Pb3_23 1_555 1_555
O15_6 Pb3_23 1_555 1_555
O19_23 Pb3_23 1_555 1_555
O20_23 Pb3_23 1_555 1_555
O21_23 Pb4_9 1_555 1_555
O22_23 Pb6_6 1_555 1_555
O23_23 Pb3_23 1_555 1_555
O24_23 Pb4_9 1_555 1_555
O25_23 Pb6_6 1_555 1_555
Pb8_11 O5_23 1_555 1_555
Pb5_11 O5_23 1_555 1_555
Pb9_23 O6_23 1_555 1_555
Pb10_6 O9_23 1_555 1_555
Pb12_23 O2_23 1_555 1_555
Pb13_23 O11_23 1_555 1_555
C5_23 S1_23 1_555 1_555
C10_23 S2_23 1_555 1_555
O2_23 Pb4_9 1_555 1_555
O3_23 Pb4_9 1_555 1_555
O3_23 Pb12_23 1_555 1_555
O4_23 Pb4_9 1_555 1_555
C14_23 C15_23 1_555 1_555
C15_23 S3_23 1_555 1_555
O6_23 Pb8_11 1_555 1_555
C18_23 C19_23 1_555 1_555
C19_23 C20_23 1_555 1_555
C20_23 S4_23 1_555 1_555
C23_23 C24_23 1_555 1_555
C25_23 S5_23 1_555 1_555
O10_23 Pb6_6 1_555 1_555
C28_23 C29_23 1_555 1_555
C29_23 C30_23 1_555 1_555
C30_23 S6_23 1_555 1_555
O12_23 Pb3_23 1_555 1_555
O19_23 Pb13_23 1_555 1_555
C1_24 C2_24 1_555 1_555
C2_24 C3_24 1_555 1_555
C3_24 H1_24 1_555 1_555
C4_24 C3_24 1_555 1_555
C5_24 C4_24 1_555 1_555
C6_24 C7_24 1_555 1_555
C7_24 C8_24 1_555 1_555
C9_24 C8_24 1_555 1_555
C10_24 C9_24 1_555 1_555
O13_5 C1_24 1_555 1_555
O2_24 C1_24 1_555 1_555
O3_24 C6_24 1_555 1_555
O4_24 C6_24 1_555 1_555
Pb4_11 O13_5 1_555 1_555
S1_24 C2_24 1_555 1_555
S2_24 C7_24 1_555 1_555
C11_24 C12_24 1_555 1_555
C12_24 C13_24 1_555 1_555
C13_24 H3_24 1_555 1_555
C14_24 C13_24 1_555 1_555
C15_24 C4_24 1_555 1_555
O5_24 C11_24 1_555 1_555
O6_24 C11_24 1_555 1_555
S3_24 C12_24 1_555 1_555
C20_24 C14_24 1_555 1_555
C21_24 C22_24 1_555 1_555
C22_24 C23_24 1_555 1_555
C23_24 H5_24 1_555 1_555
C24_24 C10_24 1_555 1_555
C25_24 C24_24 1_555 1_555
O9_24 C21_24 1_555 1_555
O10_24 C21_24 1_555 1_555
S5_24 C22_24 1_555 1_555
C29_24 C25_24 1_555 1_555
Pb6_5 O9_24 1_555 1_555
O21_24 Pb4_11 1_555 1_555
O22_24 Pb6_5 1_555 1_555
O24_24 Pb4_11 1_555 1_555
O25_24 Pb6_5 1_555 1_555
Pb8_9 O5_24 1_555 1_555
Pb5_9 O5_24 1_555 1_555
Pb9_24 O6_24 1_555 1_555
Pb10_8 O9_24 1_555 1_555
Pb12_24 O2_24 1_555 1_555
C5_24 S1_24 1_555 1_555
C10_24 S2_24 1_555 1_555
O2_24 Pb4_11 1_555 1_555
O3_24 Pb4_11 1_555 1_555
O3_24 Pb12_24 1_555 1_555
O4_24 Pb4_11 1_555 1_555
C14_24 C15_24 1_555 1_555
C15_24 S3_24 1_555 1_555
O6_24 Pb8_9 1_555 1_555
C23_24 C24_24 1_555 1_555
C25_24 S5_24 1_555 1_555
O10_24 Pb6_5 1_555 1_555
C16_24 C17_24 1_555 1_555
C17_24 C18_24 1_555 1_555
C18_24 H4_24 1_555 1_555
O17_10 C16_24 1_555 1_555
O18_16 C16_24 1_555 1_555
S4_24 C17_24 1_555 1_555
C26_24 C27_24 1_555 1_555
C27_24 C28_24 1_555 1_555
C28_24 H6_24 1_555 1_555
O11_24 C26_24 1_555 1_555
O12_24 C26_24 1_555 1_555
S6_24 C27_24 1_555 1_555
Pb3_24 O11_24 1_555 1_555
O16_5 Pb3_24 1_555 1_555
O15_5 Pb3_24 1_555 1_555
O19_24 Pb3_24 1_555 1_555
O20_24 Pb3_24 1_555 1_555
O23_24 Pb3_24 1_555 1_555
Pb13_24 O11_24 1_555 1_555
C18_24 C19_24 1_555 1_555
C30_24 S6_24 1_555 1_555
O12_24 Pb3_24 1_555 1_555
O19_24 Pb13_24 1_555 1_555
C16_25 C17_25 1_555 1_555
C17_25 C18_25 1_555 1_555
C18_25 H4_25 1_555 1_555
O16_2 C16_25 1_555 1_555
O19_2 C16_25 1_555 1_555
S4_25 C17_25 1_555 1_555
C18_25 C19_25 1_555 1_555
C1_25 C2_25 1_555 1_555
C2_25 C3_25 1_555 1_555
C3_25 H1_25 1_555 1_555
C4_25 C3_25 1_555 1_555
C5_25 C4_25 1_555 1_555
O16_11 C1_25 1_555 1_555
O19_11 C1_25 1_555 1_555
S1_25 C2_25 1_555 1_555
C11_25 C12_25 1_555 1_555
C12_25 C13_25 1_555 1_555
C13_25 H3_25 1_555 1_555
C14_25 C13_25 1_555 1_555
C15_25 C4_25 1_555 1_555
O16_5 C11_25 1_555 1_555
O19_5 C11_25 1_555 1_555
S3_25 C12_25 1_555 1_555
C20_25 C14_25 1_555 1_555
C5_25 S1_25 1_555 1_555
C14_25 C15_25 1_555 1_555
C15_25 S3_25 1_555 1_555
C1_26 C2_26 1_555 1_555
C2_26 C3_26 1_555 1_555
C3_26 H1_26 1_555 1_555
C4_26 C3_26 1_555 1_555
O16_10 C1_26 1_555 1_555
O19_10 C1_26 1_555 1_555
S1_26 C2_26 1_555 1_555
C11_26 C12_26 1_555 1_555
C12_26 C13_26 1_555 1_555
C13_26 H3_26 1_555 1_555
C14_26 C13_26 1_555 1_555
O16_7 C11_26 1_555 1_555
O19_7 C11_26 1_555 1_555
S3_26 C12_26 1_555 1_555
C16_26 C17_26 1_555 1_555
C17_26 C18_26 1_555 1_555
C18_26 H4_26 1_555 1_555
C19_26 C5_26 1_555 1_555
C20_26 C14_26 1_555 1_555
O16 C16_26 1_555 1_555
O19 C16_26 1_555 1_555
S4_26 C17_26 1_555 1_555
C14_26 C15_26 1_555 1_555
C15_26 S3_26 1_555 1_555
C18_26 C19_26 1_555 1_555
C19_26 C20_26 1_555 1_555
C20_26 S4_26 1_555 1_555
C1_27 C2_27 1_555 1_555
C2_27 C3_27 1_555 1_555
C3_27 H1_27 1_555 1_555
C4_27 C3_27 1_555 1_555
C5_27 C4_27 1_555 1_555
O16_12 C1_27 1_555 1_555
O19_12 C1_27 1_555 1_555
S1_27 C2_27 1_555 1_555
C11_27 C12_27 1_555 1_555
C12_27 C13_27 1_555 1_555
C13_27 H3_27 1_555 1_555
C14_27 C13_27 1_555 1_555
C15_27 C4_27 1_555 1_555
O16_8 C11_27 1_555 1_555
O19_8 C11_27 1_555 1_555
S3_27 C12_27 1_555 1_555
C16_27 C17_27 1_555 1_555
C17_27 C18_27 1_555 1_555
C18_27 H4_27 1_555 1_555
C19_27 C5_27 1_555 1_555
C20_27 C14_27 1_555 1_555
O16_4 C16_27 1_555 1_555
O19_4 C16_27 1_555 1_555
S4_27 C17_27 1_555 1_555
C5_27 S1_27 1_555 1_555
C14_27 C15_27 1_555 1_555
C15_27 S3_27 1_555 1_555
C18_27 C19_27 1_555 1_555
C19_27 C20_27 1_555 1_555
C20_27 S4_27 1_555 1_555
C11_28 C12_28 1_555 1_555
C12_28 C13_28 1_555 1_555
C13_28 H3_28 1_555 1_555
C14_28 C13_28 1_555 1_555
O16_6 C11_28 1_555 1_555
O19_6 C11_28 1_555 1_555
S3_28 C12_28 1_555 1_555
C1_28 C2_28 1_555 1_555
C2_28 C3_28 1_555 1_555
C3_28 H1_28 1_555 1_555
C4_28 C3_28 1_555 1_555
C5_28 C4_28 1_555 1_555
O16_9 C1_28 1_555 1_555
O19_9 C1_28 1_555 1_555
S1_28 C2_28 1_555 1_555
C15_28 C4_28 1_555 1_555
C16_28 C17_28 1_555 1_555
C17_28 C18_28 1_555 1_555
C18_28 H4_28 1_555 1_555
C19_28 C5_28 1_555 1_555
O16_3 C16_28 1_555 1_555
O19_3 C16_28 1_555 1_555
S4_28 C17_28 1_555 1_555
C5_28 S1_28 1_555 1_555
C18_28 C19_28 1_555 1_555
C19_28 C20_28 1_555 1_555
C20_28 S4_28 1_555 1_555
C26_25 C27_25 1_555 1_555
C27_25 C28_25 1_555 1_555
C28_25 H6_25 1_555 1_555
O11_25 C26_25 1_555 1_555
O12_25 C26_25 1_555 1_555
S6_25 C27_25 1_555 1_555
Pb5 O11_25 1_555 1_555
O20_25 Pb5 1_555 1_555
O23_25 Pb5 1_555 1_555
Pb9 O11_25 1_555 1_555
C30_25 S6_25 1_555 1_555
O12_25 Pb5 1_555 1_555
C6_25 C7_25 1_555 1_555
C7_25 C8_25 1_555 1_555
C9_25 C8_25 1_555 1_555
C10_25 C9_25 1_555 1_555
O3_25 C6_25 1_555 1_555
O4_25 C6_25 1_555 1_555
S2_25 C7_25 1_555 1_555
C21_25 C22_25 1_555 1_555
C22_25 C23_25 1_555 1_555
C23_25 H5_25 1_555 1_555
C24_25 C10_25 1_555 1_555
C25_25 C24_25 1_555 1_555
O9_25 C21_25 1_555 1_555
O10_25 C21_25 1_555 1_555
S5_25 C22_25 1_555 1_555
C29_25 C25_25 1_555 1_555
Pb5_7 O9_25 1_555 1_555
O21_25 Pb5_10 1_555 1_555
O22_25 Pb5_7 1_555 1_555
O24_25 Pb5_10 1_555 1_555
O25_25 Pb5_7 1_555 1_555
Pb9_7 O9_25 1_555 1_555
C10_25 S2_25 1_555 1_555
O3_25 Pb5_10 1_555 1_555
O3_25 Pb9_10 1_555 1_555
O4_25 Pb5_10 1_555 1_555
C23_25 C24_25 1_555 1_555
C25_25 S5_25 1_555 1_555
O10_25 Pb5_7 1_555 1_555
C6_26 C7_26 1_555 1_555
C7_26 C8_26 1_555 1_555
C8_26 H2_26 1_555 1_555
C9_26 C8_26 1_555 1_555
C10_26 C9_26 1_555 1_555
O3_26 C6_26 1_555 1_555
O4_26 C6_26 1_555 1_555
S2_26 C7_26 1_555 1_555
C21_26 C22_26 1_555 1_555
C22_26 C23_26 1_555 1_555
C23_26 H5_26 1_555 1_555
C24_26 C10_26 1_555 1_555
C25_26 C24_26 1_555 1_555
O9_26 C21_26 1_555 1_555
O10_26 C21_26 1_555 1_555
S5_26 C22_26 1_555 1_555
C26_26 C27_26 1_555 1_555
C27_26 C28_26 1_555 1_555
C28_26 H6_26 1_555 1_555
C29_26 C25_26 1_555 1_555
C30_26 C9_26 1_555 1_555
O11_26 C26_26 1_555 1_555
O12_26 C26_26 1_555 1_555
S6_26 C27_26 1_555 1_555
Pb5_8 O9_26 1_555 1_555
Pb5_4 O11_26 1_555 1_555
O20_26 Pb5_4 1_555 1_555
O21_26 Pb5_12 1_555 1_555
O22_26 Pb5_8 1_555 1_555
O23_26 Pb5_4 1_555 1_555
O24_26 Pb5_12 1_555 1_555
O25_26 Pb5_8 1_555 1_555
Pb9_8 O9_26 1_555 1_555
Pb9_4 O11_26 1_555 1_555
C10_26 S2_26 1_555 1_555
O3_26 Pb5_12 1_555 1_555
O3_26 Pb9_12 1_555 1_555
O4_26 Pb5_12 1_555 1_555
C23_26 C24_26 1_555 1_555
C25_26 S5_26 1_555 1_555
O10_26 Pb5_8 1_555 1_555
C28_26 C29_26 1_555 1_555
C29_26 C30_26 1_555 1_555
C30_26 S6_26 1_555 1_555
O12_26 Pb5_4 1_555 1_555
C21_27 C22_27 1_555 1_555
C22_27 C23_27 1_555 1_555
C23_27 H5_27 1_555 1_555
O9_27 C21_27 1_555 1_555
O10_27 C21_27 1_555 1_555
S5_27 C22_27 1_555 1_555
Pb5_5 O9_27 1_555 1_555
O22_27 Pb5_5 1_555 1_555
O25_27 Pb5_5 1_555 1_555
Pb9_5 O9_27 1_555 1_555
C25_27 S5_27 1_555 1_555
O10_27 Pb5_5 1_555 1_555
C6_27 C7_27 1_555 1_555
C7_27 C8_27 1_555 1_555
C8_27 H2_27 1_555 1_555
C9_27 C8_27 1_555 1_555
C10_27 C9_27 1_555 1_555
O3_27 C6_27 1_555 1_555
O4_27 C6_27 1_555 1_555
S2_27 C7_27 1_555 1_555
C24_27 C10_27 1_555 1_555
C26_27 C27_27 1_555 1_555
C27_27 C28_27 1_555 1_555
C30_27 C9_27 1_555 1_555
O11_27 C26_27 1_555 1_555
O12_27 C26_27 1_555 1_555
S6_27 C27_27 1_555 1_555
Pb5_2 O11_27 1_555 1_555
O20_27 Pb5_2 1_555 1_555
O21_27 Pb5_11 1_555 1_555
O23_27 Pb5_2 1_555 1_555
O24_27 Pb5_11 1_555 1_555
Pb9_2 O11_27 1_555 1_555
C10_27 S2_27 1_555 1_555
O3_27 Pb5_11 1_555 1_555
O3_27 Pb9_11 1_555 1_555
O4_27 Pb5_11 1_555 1_555
C28_27 C29_27 1_555 1_555
C29_27 C30_27 1_555 1_555
C30_27 S6_27 1_555 1_555
O12_27 Pb5_2 1_555 1_555
C6_28 C7_28 1_555 1_555
C7_28 C8_28 1_555 1_555
C8_28 H2_28 1_555 1_555
O3_28 C6_28 1_555 1_555
O4_28 C6_28 1_555 1_555
S2_28 C7_28 1_555 1_555
O21_28 Pb5_9 1_555 1_555
O24_28 Pb5_9 1_555 1_555
C10_28 S2_28 1_555 1_555
O3_28 Pb5_9 1_555 1_555
O3_28 Pb9_9 1_555 1_555
O4_28 Pb5_9 1_555 1_555
C21_28 C22_28 1_555 1_555
C22_28 C23_28 1_555 1_555
C25_28 C24_28 1_555 1_555
O9_28 C21_28 1_555 1_555
O10_28 C21_28 1_555 1_555
S5_28 C22_28 1_555 1_555
C26_28 C27_28 1_555 1_555
C27_28 C28_28 1_555 1_555
C28_28 H6_28 1_555 1_555
C29_28 C25_28 1_555 1_555
C30_28 C9_28 1_555 1_555
O11_28 C26_28 1_555 1_555
O12_28 C26_28 1_555 1_555
S6_28 C27_28 1_555 1_555
Pb5_6 O9_28 1_555 1_555
Pb5_3 O11_28 1_555 1_555
O20_28 Pb5_3 1_555 1_555
O22_28 Pb5_6 1_555 1_555
O23_28 Pb5_3 1_555 1_555
O25_28 Pb5_6 1_555 1_555
Pb9_6 O9_28 1_555 1_555
Pb9_3 O11_28 1_555 1_555
C23_28 C24_28 1_555 1_555
C25_28 S5_28 1_555 1_555
O10_28 Pb5_6 1_555 1_555
C28_28 C29_28 1_555 1_555
C29_28 C30_28 1_555 1_555
C30_28 S6_28 1_555 1_555
O12_28 Pb5_3 1_555 1_555
C16_29 C17_29 1_555 1_555
C17_29 C18_29 1_555 1_555
C18_29 H4_29 1_555 1_555
O15_11 C16_29 1_555 1_555
O19_18 C16_29 1_555 1_555
S4_29 C17_29 1_555 1_555
C18_29 C19_29 1_555 1_555
C11_29 C12_29 1_555 1_555
C12_29 C13_29 1_555 1_555
C13_29 H3_29 1_555 1_555
C14_29 C13_29 1_555 1_555
O15_7 C11_29 1_555 1_555
O19_21 C11_29 1_555 1_555
S3_29 C12_29 1_555 1_555
C1_29 C2_29 1_555 1_555
C2_29 C3_29 1_555 1_555
C3_29 H1_29 1_555 1_555
C4_29 C3_29 1_555 1_555
O15_3 C1_29 1_555 1_555
O19_15 C1_29 1_555 1_555
S1_29 C2_29 1_555 1_555
C1_30 C2_30 1_555 1_555
C2_30 C3_30 1_555 1_555
C3_30 H1_30 1_555 1_555
C4_30 C3_30 1_555 1_555
C5_29 C4_30 1_555 1_555
O15 C1_30 1_555 1_555
O19_14 C1_30 1_555 1_555
S1_30 C2_30 1_555 1_555
C11_30 C12_30 1_555 1_555
C12_30 C13_30 1_555 1_555
C13_30 H3_30 1_555 1_555
C14_30 C13_30 1_555 1_555
C15_29 C4_30 1_555 1_555
O15_6 C11_30 1_555 1_555
O19_23 C11_30 1_555 1_555
S3_30 C12_30 1_555 1_555
C16_30 C17_30 1_555 1_555
C17_30 C18_30 1_555 1_555
C18_30 H4_30 1_555 1_555
C19_30 C5_29 1_555 1_555
C20_29 C14_30 1_555 1_555
O15_12 C16_30 1_555 1_555
O19_17 C16_30 1_555 1_555
S4_30 C17_30 1_555 1_555
C5_29 S1_30 1_555 1_555
C14_30 C15_29 1_555 1_555
C15_29 S3_30 1_555 1_555
C18_30 C19_30 1_555 1_555
C19_30 C20_29 1_555 1_555
C20_29 S4_30 1_555 1_555
C1_31 C2_31 1_555 1_555
C2_31 C3_31 1_555 1_555
C3_31 H1_31 1_555 1_555
C4_31 C3_31 1_555 1_555
C5_30 C4_31 1_555 1_555
O15_4 C1_31 1_555 1_555
O19_16 C1_31 1_555 1_555
S1_31 C2_31 1_555 1_555
C11_31 C12_31 1_555 1_555
C12_31 C13_31 1_555 1_555
C13_31 H3_31 1_555 1_555
C14_31 C13_31 1_555 1_555
C15_30 C4_31 1_555 1_555
O15_5 C11_31 1_555 1_555
O19_24 C11_31 1_555 1_555
S3_31 C12_31 1_555 1_555
C16_31 C17_31 1_555 1_555
C17_31 C18_31 1_555 1_555
C18_31 H4_31 1_555 1_555
C19_31 C5_30 1_555 1_555
C20_30 C14_31 1_555 1_555
O15_10 C16_31 1_555 1_555
O19_20 C16_31 1_555 1_555
S4_31 C17_31 1_555 1_555
C5_30 S1_31 1_555 1_555
C14_31 C15_30 1_555 1_555
C15_30 S3_31 1_555 1_555
C18_31 C19_31 1_555 1_555
C19_31 C20_30 1_555 1_555
C20_30 S4_31 1_555 1_555
C1_32 C2_32 1_555 1_555
C2_32 C3_32 1_555 1_555
C3_32 H1_32 1_555 1_555
C4_32 C3_32 1_555 1_555
C5_31 C4_32 1_555 1_555
O15_2 C1_32 1_555 1_555
O19_13 C1_32 1_555 1_555
S1_32 C2_32 1_555 1_555
C11_32 C12_32 1_555 1_555
C12_32 C13_32 1_555 1_555
C13_32 H3_32 1_555 1_555
C14_32 C13_32 1_555 1_555
C15_31 C4_32 1_555 1_555
O15_8 C11_32 1_555 1_555
O19_22 C11_32 1_555 1_555
S3_32 C12_32 1_555 1_555
C16_32 C17_32 1_555 1_555
C17_32 C18_32 1_555 1_555
C18_32 H4_32 1_555 1_555
C19_32 C5_31 1_555 1_555
C20_31 C14_32 1_555 1_555
O15_9 C16_32 1_555 1_555
O19_19 C16_32 1_555 1_555
S4_32 C17_32 1_555 1_555
C5_31 S1_32 1_555 1_555
C14_32 C15_31 1_555 1_555
C15_31 S3_32 1_555 1_555
C18_32 C19_32 1_555 1_555
C19_32 C20_31 1_555 1_555
C20_31 S4_32 1_555 1_555
C6_29 C7_29 1_555 1_555
C7_29 C8_29 1_555 1_555
C8_29 H2_29 1_555 1_555
C9_29 C8_29 1_555 1_555
C10_29 C9_29 1_555 1_555
O3_29 C6_29 1_555 1_555
O4_29 C6_29 1_555 1_555
S2_29 C7_29 1_555 1_555
C24_29 C10_29 1_555 1_555
C26_29 C27_29 1_555 1_555
C27_29 C28_29 1_555 1_555
C30_29 C9_29 1_555 1_555
O11_29 C26_29 1_555 1_555
O12_29 C26_29 1_555 1_555
S6_29 C27_29 1_555 1_555
Pb8_2 O11_29 1_555 1_555
O20_29 Pb8_2 1_555 1_555
O21_29 Pb8_5 1_555 1_555
O23_29 Pb8_2 1_555 1_555
O24_29 Pb8_5 1_555 1_555
Pb9_17 O11_29 1_555 1_555
C10_29 S2_29 1_555 1_555
O3_29 Pb8_5 1_555 1_555
O3_29 Pb9_14 1_555 1_555
O4_29 Pb8_5 1_555 1_555
C28_29 C29_29 1_555 1_555
C29_29 C30_29 1_555 1_555
C30_29 S6_29 1_555 1_555
O12_29 Pb8_2 1_555 1_555
C21_29 C22_29 1_555 1_555
C22_29 C23_29 1_555 1_555
C23_29 H5_29 1_555 1_555
O9_29 C21_29 1_555 1_555
O10_29 C21_29 1_555 1_555
S5_29 C22_29 1_555 1_555
Pb8_11 O9_29 1_555 1_555
O22_29 Pb8_11 1_555 1_555
O25_29 Pb8_11 1_555 1_555
Pb9_23 O9_29 1_555 1_555
C25_29 S5_29 1_555 1_555
O10_29 Pb8_11 1_555 1_555
C6_30 C7_30 1_555 1_555
C7_30 C8_30 1_555 1_555
C9_30 C8_30 1_555 1_555
C10_30 C9_30 1_555 1_555
O3_30 C6_30 1_555 1_555
O4_30 C6_30 1_555 1_555
S2_30 C7_30 1_555 1_555
C21_30 C22_30 1_555 1_555
C22_30 C23_30 1_555 1_555
C23_30 H5_30 1_555 1_555
C24_30 C10_30 1_555 1_555
C25_30 C24_30 1_555 1_555
O9_30 C21_30 1_555 1_555
O10_30 C21_30 1_555 1_555
S5_30 C22_30 1_555 1_555
C29_30 C25_30 1_555 1_555
Pb8_9 O9_30 1_555 1_555
O21_30 Pb8_6 1_555 1_555
O22_30 Pb8_9 1_555 1_555
O24_30 Pb8_6 1_555 1_555
O25_30 Pb8_9 1_555 1_555
Pb9_24 O9_30 1_555 1_555
C10_30 S2_30 1_555 1_555
O3_30 Pb8_6 1_555 1_555
O3_30 Pb9_16 1_555 1_555
O4_30 Pb8_6 1_555 1_555
C23_30 C24_30 1_555 1_555
C25_30 S5_30 1_555 1_555
O10_30 Pb8_9 1_555 1_555
C26_30 C27_30 1_555 1_555
C27_30 C28_30 1_555 1_555
C28_30 H6_30 1_555 1_555
O11_30 C26_30 1_555 1_555
O12_30 C26_30 1_555 1_555
S6_30 C27_30 1_555 1_555
Pb8_3 O11_30 1_555 1_555
O20_30 Pb8_3 1_555 1_555
O23_30 Pb8_3 1_555 1_555
Pb9_20 O11_30 1_555 1_555
C30_30 S6_30 1_555 1_555
O12_30 Pb8_3 1_555 1_555
C6_31 C7_31 1_555 1_555
C7_31 C8_31 1_555 1_555
C8_31 H2_31 1_555 1_555
C9_31 C8_31 1_555 1_555
C10_31 C9_31 1_555 1_555
O3_31 C6_31 1_555 1_555
O4_31 C6_31 1_555 1_555
S2_31 C7_31 1_555 1_555
C21_31 C22_31 1_555 1_555
C22_31 C23_31 1_555 1_555
C23_31 H5_31 1_555 1_555
C24_31 C10_31 1_555 1_555
C25_31 C24_31 1_555 1_555
O9_31 C21_31 1_555 1_555
O10_31 C21_31 1_555 1_555
S5_31 C22_31 1_555 1_555
C26_31 C27_31 1_555 1_555
C27_31 C28_31 1_555 1_555
C28_31 H6_31 1_555 1_555
C29_31 C25_31 1_555 1_555
C30_31 C9_31 1_555 1_555
O11_31 C26_31 1_555 1_555
O12_31 C26_31 1_555 1_555
S6_31 C27_31 1_555 1_555
Pb8_12 O9_31 1_555 1_555
Pb8_4 O11_31 1_555 1_555
O20_31 Pb8_4 1_555 1_555
O21_31 Pb8_8 1_555 1_555
O22_31 Pb8_12 1_555 1_555
O23_31 Pb8_4 1_555 1_555
O24_31 Pb8_8 1_555 1_555
O25_31 Pb8_12 1_555 1_555
Pb9_21 O9_31 1_555 1_555
Pb9_18 O11_31 1_555 1_555
C10_31 S2_31 1_555 1_555
O3_31 Pb8_8 1_555 1_555
O3_31 Pb9_15 1_555 1_555
O4_31 Pb8_8 1_555 1_555
C23_31 C24_31 1_555 1_555
C25_31 S5_31 1_555 1_555
O10_31 Pb8_12 1_555 1_555
C28_31 C29_31 1_555 1_555
C29_31 C30_31 1_555 1_555
C30_31 S6_31 1_555 1_555
O12_31 Pb8_4 1_555 1_555
C21_32 C22_32 1_555 1_555
C22_32 C23_32 1_555 1_555
C25_32 C24_32 1_555 1_555
O9_32 C21_32 1_555 1_555
O10_32 C21_32 1_555 1_555
S5_32 C22_32 1_555 1_555
C26_32 C27_32 1_555 1_555
C27_32 C28_32 1_555 1_555
C28_32 H6_32 1_555 1_555
C29_32 C25_32 1_555 1_555
C30_32 C9_32 1_555 1_555
O11_32 C26_32 1_555 1_555
O12_32 C26_32 1_555 1_555
S6_32 C27_32 1_555 1_555
Pb8_10 O9_32 1_555 1_555
Pb8 O11_32 1_555 1_555
O20_32 Pb8 1_555 1_555
O22_32 Pb8_10 1_555 1_555
O23_32 Pb8 1_555 1_555
O25_32 Pb8_10 1_555 1_555
Pb9_22 O9_32 1_555 1_555
Pb9_19 O11_32 1_555 1_555
C23_32 C24_32 1_555 1_555
C25_32 S5_32 1_555 1_555
O10_32 Pb8_10 1_555 1_555
C28_32 C29_32 1_555 1_555
C29_32 C30_32 1_555 1_555
C30_32 S6_32 1_555 1_555
O12_32 Pb8 1_555 1_555
C6_32 C7_32 1_555 1_555
C7_32 C8_32 1_555 1_555
C8_32 H2_32 1_555 1_555
O3_32 C6_32 1_555 1_555
O4_32 C6_32 1_555 1_555
S2_32 C7_32 1_555 1_555
O21_32 Pb8_7 1_555 1_555
O24_32 Pb8_7 1_555 1_555
C10_32 S2_32 1_555 1_555
O3_32 Pb8_7 1_555 1_555
O3_32 Pb9_13 1_555 1_555
O4_32 Pb8_7 1_555 1_555
C21_33 C22_33 1_555 1_555
C22_33 C23_33 1_555 1_555
C25_33 C24_33 1_555 1_555
O24_32 C21_33 1_555 1_555
O10_33 C21_33 1_555 1_555
S5_33 C22_33 1_555 1_555
C26_33 C27_33 1_555 1_555
C27_33 C28_33 1_555 1_555
C28_33 H6_33 1_555 1_555
C29_33 C25_33 1_555 1_555
C30_33 C9_33 1_555 1_555
O23_29 C26_33 1_555 1_555
O12_33 C26_33 1_555 1_555
S6_33 C27_33 1_555 1_555
Pb12_21 O24_32 1_555 1_555
Pb12_13 O23_29 1_555 1_555
O14_9 Pb12_21 1_555 1_555
O15_13 Pb12_13 1_555 1_555
O16_13 Pb12_13 1_555 1_555
O21_32 Pb12_21 1_555 1_555
O20_29 Pb12_13 1_555 1_555
C23_33 C24_33 1_555 1_555
C25_33 S5_33 1_555 1_555
O10_33 Pb12_21 1_555 1_555
C28_33 C29_33 1_555 1_555
C29_33 C30_33 1_555 1_555
C30_33 S6_33 1_555 1_555
O12_33 Pb12_13 1_555 1_555
C1_33 C2_33 1_555 1_555
C2_33 C3_33 1_555 1_555
C3_33 H1_33 1_555 1_555
C4_33 C3_33 1_555 1_555
C5_32 C4_33 1_555 1_555
C6_33 C7_33 1_555 1_555
C7_33 C8_33 1_555 1_555
C8_33 H2_33 1_555 1_555
O1_13 C1_33 1_555 1_555
O22_31 C1_33 1_555 1_555
O25_31 C6_33 1_555 1_555
O4_33 C6_33 1_555 1_555
Pb12_17 O1_13 1_555 1_555
S1_33 C2_33 1_555 1_555
S2_33 C7_33 1_555 1_555
C11_33 C12_33 1_555 1_555
C12_33 C13_33 1_555 1_555
C13_33 H3_33 1_555 1_555
C14_33 C13_33 1_555 1_555
C15_32 C4_33 1_555 1_555
O5_25 C11_33 1_555 1_555
O21_22 C11_33 1_555 1_555
S3_33 C12_33 1_555 1_555
C16_33 C17_33 1_555 1_555
C17_33 C18_33 1_555 1_555
C18_33 H4_33 1_555 1_555
C19_33 C5_32 1_555 1_555
C20_32 C14_33 1_555 1_555
O7_5 C16_33 1_555 1_555
O22_17 C16_33 1_555 1_555
S4_33 C17_33 1_555 1_555
O17_13 Pb12_17 1_555 1_555
Pb11_8 O7_5 1_555 1_555
Pb9_15 O5_25 1_555 1_555
Pb12_12 O1_13 1_555 1_555
Pb13_22 O7_5 1_555 1_555
Pb9_12 O5_25 1_555 1_555
C5_32 S1_33 1_555 1_555
C10_33 S2_33 1_555 1_555
O22_31 Pb12_17 1_555 1_555
O25_31 Pb12_17 1_555 1_555
O4_33 Pb12_17 1_555 1_555
C14_33 C15_32 1_555 1_555
C15_32 S3_33 1_555 1_555
O21_22 Pb9_15 1_555 1_555
C18_33 C19_33 1_555 1_555
C19_33 C20_32 1_555 1_555
C20_32 S4_33 1_555 1_555
O22_17 Pb13_22 1_555 1_555
O17_13 Pb12_12 1_555 1_555
C11_34 C12_34 1_555 1_555
C12_34 C13_34 1_555 1_555
C13_34 H3_34 1_555 1_555
C14_34 C13_34 1_555 1_555
O5_26 C11_34 1_555 1_555
O20_20 C11_34 1_555 1_555
S3_34 C12_34 1_555 1_555
C16_34 C17_34 1_555 1_555
C17_34 C18_34 1_555 1_555
C18_34 H4_34 1_555 1_555
C19_34 C5_33 1_555 1_555
C20_33 C14_34 1_555 1_555
O7_6 C16_34 1_555 1_555
O20_21 C16_34 1_555 1_555
S4_34 C17_34 1_555 1_555
Pb13_10 O7_6 1_555 1_555
Pb11_10 O5_26 1_555 1_555
Pb11_16 O7_6 1_555 1_555
C14_34 C15_33 1_555 1_555
C15_33 S3_34 1_555 1_555
O20_20 Pb11_10 1_555 1_555
C18_34 C19_34 1_555 1_555
C19_34 C20_33 1_555 1_555
C20_33 S4_34 1_555 1_555
O20_21 Pb11_16 1_555 1_555
C1_34 C2_34 1_555 1_555
C2_34 C3_34 1_555 1_555
C3_34 H1_34 1_555 1_555
C4_34 C3_34 1_555 1_555
C6_34 C7_34 1_555 1_555
C7_34 C8_34 1_555 1_555
C8_34 H2_34 1_555 1_555
C9_34 C8_34 1_555 1_555
C10_34 C9_34 1_555 1_555
O1_14 C1_34 1_555 1_555
O20_14 C1_34 1_555 1_555
O23_14 C6_34 1_555 1_555
O4_34 C6_34 1_555 1_555
Pb10_7 O1_14 1_555 1_555
S1_34 C2_34 1_555 1_555
S2_34 C7_34 1_555 1_555
C21_34 C22_34 1_555 1_555
C22_34 C23_34 1_555 1_555
C23_34 H5_34 1_555 1_555
C24_34 C10_34 1_555 1_555
C25_34 C24_34 1_555 1_555
O25_16 C21_34 1_555 1_555
O10_34 C21_34 1_555 1_555
S5_34 C22_34 1_555 1_555
C26_34 C27_34 1_555 1_555
C27_34 C28_34 1_555 1_555
C28_34 H6_34 1_555 1_555
C29_34 C25_34 1_555 1_555
C30_34 C9_34 1_555 1_555
O24_15 C26_34 1_555 1_555
O12_34 C26_34 1_555 1_555
S6_34 C27_34 1_555 1_555
Pb13_17 O25_16 1_555 1_555
Pb9_20 O24_15 1_555 1_555
O13_14 Pb13_17 1_555 1_555
O14_10 Pb13_17 1_555 1_555
O15_14 Pb9_20 1_555 1_555
O16_14 Pb9_20 1_555 1_555
O17_14 Pb10_7 1_555 1_555
O22_16 Pb13_17 1_555 1_555
O21_15 Pb9_20 1_555 1_555
Pb13_7 O1_14 1_555 1_555
C10_34 S2_34 1_555 1_555
O20_14 Pb10_7 1_555 1_555
O23_14 Pb10_7 1_555 1_555
O4_34 Pb10_7 1_555 1_555
C23_34 C24_34 1_555 1_555
C25_34 S5_34 1_555 1_555
O10_34 Pb13_17 1_555 1_555
C28_34 C29_34 1_555 1_555
C29_34 C30_34 1_555 1_555
C30_34 S6_34 1_555 1_555
O12_34 Pb9_20 1_555 1_555
O17_14 Pb13_7 1_555 1_555
C1_35 C2_35 1_555 1_555
C2_35 C3_35 1_555 1_555
C3_35 H1_35 1_555 1_555
C4_35 C3_35 1_555 1_555
C5_34 C4_35 1_555 1_555
C6_35 C7_35 1_555 1_555
C7_35 C8_35 1_555 1_555
C9_35 C8_35 1_555 1_555
C10_35 C9_35 1_555 1_555
O1_15 C1_35 1_555 1_555
O21_19 C1_35 1_555 1_555
O24_19 C6_35 1_555 1_555
O4_35 C6_35 1_555 1_555
Pb9_24 O1_15 1_555 1_555
S1_35 C2_35 1_555 1_555
S2_35 C7_35 1_555 1_555
C15_34 C4_35 1_555 1_555
C24_35 C10_35 1_555 1_555
C5_34 S1_35 1_555 1_555
C10_35 S2_35 1_555 1_555
O21_19 Pb9_24 1_555 1_555
O24_19 Pb9_24 1_555 1_555
O4_35 Pb9_24 1_555 1_555
C11_35 C12_35 1_555 1_555
C12_35 C13_35 1_555 1_555
C13_35 H3_35 1_555 1_555
C14_35 C13_35 1_555 1_555
O5_27 C11_35 1_555 1_555
O22_15 C11_35 1_555 1_555
S3_35 C12_35 1_555 1_555
C21_35 C22_35 1_555 1_555
C22_35 C23_35 1_555 1_555
C23_35 H5_35 1_555 1_555
O23_18 C21_35 1_555 1_555
O10_35 C21_35 1_555 1_555
S5_35 C22_35 1_555 1_555
Pb11_9 O23_18 1_555 1_555
O13_15 Pb11_9 1_555 1_555
O14_11 Pb11_9 1_555 1_555
O20_18 Pb11_9 1_555 1_555
Pb13_19 O5_27 1_555 1_555
Pb10_3 O5_27 1_555 1_555
O22_15 Pb13_19 1_555 1_555
C25_35 S5_35 1_555 1_555
O10_35 Pb11_9 1_555 1_555
C16_35 C17_35 1_555 1_555
C17_35 C18_35 1_555 1_555
C18_35 H4_35 1_555 1_555
O7_7 C16_35 1_555 1_555
O20_30 C16_35 1_555 1_555
S4_35 C17_35 1_555 1_555
C26_35 C27_35 1_555 1_555
C27_35 C28_35 1_555 1_555
O25_20 C26_35 1_555 1_555
O12_35 C26_35 1_555 1_555
S6_35 C27_35 1_555 1_555
Pb13_21 O25_20 1_555 1_555
O16_15 Pb13_21 1_555 1_555
O22_20 Pb13_21 1_555 1_555
Pb12_15 O7_7 1_555 1_555
C18_35 C19_35 1_555 1_555
O20_30 Pb12_15 1_555 1_555
C30_35 S6_35 1_555 1_555
O12_35 Pb13_21 1_555 1_555
O17_15 Pb9_3 1_555 1_555
C1_36 C2_36 1_555 1_555
C2_36 C3_36 1_555 1_555
C3_36 H1_36 1_555 1_555
C4_36 C3_36 1_555 1_555
C5_35 C4_36 1_555 1_555
C6_36 C7_36 1_555 1_555
C7_36 C8_36 1_555 1_555
C8_36 H2_36 1_555 1_555
C9_36 C8_36 1_555 1_555
C10_36 C9_36 1_555 1_555
O1_16 C1_36 1_555 1_555
O22_24 C1_36 1_555 1_555
O25_24 C6_36 1_555 1_555
O4_36 C6_36 1_555 1_555
Pb13_13 O1_16 1_555 1_555
S1_36 C2_36 1_555 1_555
S2_36 C7_36 1_555 1_555
C11_36 C12_36 1_555 1_555
C12_36 C13_36 1_555 1_555
C13_36 H3_36 1_555 1_555
C14_36 C13_36 1_555 1_555
C15_35 C4_36 1_555 1_555
O5_28 C11_36 1_555 1_555
O21_29 C11_36 1_555 1_555
S3_36 C12_36 1_555 1_555
C16_36 C17_36 1_555 1_555
C17_36 C18_36 1_555 1_555
C18_36 H4_36 1_555 1_555
C19_36 C5_35 1_555 1_555
C20_35 C14_36 1_555 1_555
O7_8 C16_36 1_555 1_555
O21_13 C16_36 1_555 1_555
S4_36 C17_36 1_555 1_555
C21_36 C22_36 1_555 1_555
C22_36 C23_36 1_555 1_555
C23_36 H5_36 1_555 1_555
C24_36 C10_36 1_555 1_555
C25_36 C24_36 1_555 1_555
O24_23 C21_36 1_555 1_555
O10_36 C21_36 1_555 1_555
S5_36 C22_36 1_555 1_555
C26_36 C27_36 1_555 1_555
C27_36 C28_36 1_555 1_555
C28_36 H6_36 1_555 1_555
C29_36 C25_36 1_555 1_555
C30_36 C9_36 1_555 1_555
O23_22 C26_36 1_555 1_555
O12_36 C26_36 1_555 1_555
S6_36 C27_36 1_555 1_555
Pb9_16 O24_23 1_555 1_555
Pb11_13 O23_22 1_555 1_555
O13_16 Pb9_16 1_555 1_555
O14_12 Pb9_16 1_555 1_555
O15_16 Pb11_13 1_555 1_555
O16_16 Pb11_13 1_555 1_555
O17_16 Pb13_13 1_555 1_555
O21_23 Pb9_16 1_555 1_555
O20_22 Pb11_13 1_555 1_555
Pb9_5 O7_8 1_555 1_555
Pb12_24 O5_28 1_555 1_555
Pb11_2 O1_16 1_555 1_555
Pb9_17 O7_8 1_555 1_555
Pb12_5 O5_28 1_555 1_555
C5_35 S1_36 1_555 1_555
C10_36 S2_36 1_555 1_555
O22_24 Pb13_13 1_555 1_555
O25_24 Pb13_13 1_555 1_555
O4_36 Pb13_13 1_555 1_555
C14_36 C15_35 1_555 1_555
C15_35 S3_36 1_555 1_555
O21_29 Pb12_24 1_555 1_555
C18_36 C19_36 1_555 1_555
C19_36 C20_35 1_555 1_555
C20_35 S4_36 1_555 1_555
O21_13 Pb9_17 1_555 1_555
C23_36 C24_36 1_555 1_555
C25_36 S5_36 1_555 1_555
O10_36 Pb9_16 1_555 1_555
C28_36 C29_36 1_555 1_555
C29_36 C30_36 1_555 1_555
C30_36 S6_36 1_555 1_555
O12_36 Pb11_13 1_555 1_555
O17_16 Pb11_2 1_555 1_555
C21_37 C22_37 1_555 1_555
C22_37 C23_37 1_555 1_555
C25_37 C24_37 1_555 1_555
O25_29 C21_37 1_555 1_555
O10_37 C21_37 1_555 1_555
S5_37 C22_37 1_555 1_555
C26_37 C27_37 1_555 1_555
C27_37 C28_37 1_555 1_555
C28_37 H6_37 1_555 1_555
C29_37 C25_37 1_555 1_555
C30_37 C9_37 1_555 1_555
O24_30 C26_37 1_555 1_555
O12_37 C26_37 1_555 1_555
S6_37 C27_37 1_555 1_555
Pb12_18 O25_29 1_555 1_555
Pb12_23 O24_30 1_555 1_555
O14_13 Pb12_18 1_555 1_555
O15_17 Pb12_23 1_555 1_555
O16_17 Pb12_23 1_555 1_555
O22_29 Pb12_18 1_555 1_555
O21_30 Pb12_23 1_555 1_555
C23_37 C24_37 1_555 1_555
C25_37 S5_37 1_555 1_555
O10_37 Pb12_18 1_555 1_555
C28_37 C29_37 1_555 1_555
C29_37 C30_37 1_555 1_555
C30_37 S6_37 1_555 1_555
O12_37 Pb12_23 1_555 1_555
C1_37 C2_37 1_555 1_555
C2_37 C3_37 1_555 1_555
C3_37 H1_37 1_555 1_555
C4_37 C3_37 1_555 1_555
C5_36 C4_37 1_555 1_555
C6_37 C7_37 1_555 1_555
C7_37 C8_37 1_555 1_555
C8_37 H2_37 1_555 1_555
O1_17 C1_37 1_555 1_555
O20_31 C1_37 1_555 1_555
O23_31 C6_37 1_555 1_555
O4_37 C6_37 1_555 1_555
Pb12_16 O1_17 1_555 1_555
S1_37 C2_37 1_555 1_555
S2_37 C7_37 1_555 1_555
C11_37 C12_37 1_555 1_555
C12_37 C13_37 1_555 1_555
C13_37 H3_37 1_555 1_555
C14_37 C13_37 1_555 1_555
C15_36 C4_37 1_555 1_555
O5_29 C11_37 1_555 1_555
O21_17 C11_37 1_555 1_555
S3_37 C12_37 1_555 1_555
C16_37 C17_37 1_555 1_555
C17_37 C18_37 1_555 1_555
C18_37 H4_37 1_555 1_555
C19_37 C5_36 1_555 1_555
C20_36 C14_37 1_555 1_555
O14_10 C16_37 1_555 1_555
O22_16 C16_37 1_555 1_555
S4_37 C17_37 1_555 1_555
O17_17 Pb12_16 1_555 1_555
Pb10_4 O14_10 1_555 1_555
Pb9_21 O5_29 1_555 1_555
Pb12_4 O1_17 1_555 1_555
Pb9_4 O5_29 1_555 1_555
C5_36 S1_37 1_555 1_555
C10_37 S2_37 1_555 1_555
O20_31 Pb12_16 1_555 1_555
O23_31 Pb12_16 1_555 1_555
O4_37 Pb12_16 1_555 1_555
C14_37 C15_36 1_555 1_555
C15_36 S3_37 1_555 1_555
O21_17 Pb9_21 1_555 1_555
C18_37 C19_37 1_555 1_555
C19_37 C20_36 1_555 1_555
C20_36 S4_37 1_555 1_555
O17_17 Pb12_4 1_555 1_555
C11_38 C12_38 1_555 1_555
C12_38 C13_38 1_555 1_555
C13_38 H3_38 1_555 1_555
C14_38 C13_38 1_555 1_555
O5_30 C11_38 1_555 1_555
O20_13 C11_38 1_555 1_555
S3_38 C12_38 1_555 1_555
C16_38 C17_38 1_555 1_555
C17_38 C18_38 1_555 1_555
C18_38 H4_38 1_555 1_555
C19_38 C5_37 1_555 1_555
C20_37 C14_38 1_555 1_555
O14_11 C16_38 1_555 1_555
O20_18 C16_38 1_555 1_555
S4_38 C17_38 1_555 1_555
Pb13_2 O14_11 1_555 1_555
Pb10_8 O5_30 1_555 1_555
C14_38 C15_37 1_555 1_555
C15_37 S3_38 1_555 1_555
O20_13 Pb10_8 1_555 1_555
C18_38 C19_38 1_555 1_555
C19_38 C20_37 1_555 1_555
C20_37 S4_38 1_555 1_555
C1_38 C2_38 1_555 1_555
C2_38 C3_38 1_555 1_555
C3_38 H1_38 1_555 1_555
C4_38 C3_38 1_555 1_555
C6_38 C7_38 1_555 1_555
C7_38 C8_38 1_555 1_555
C8_38 H2_38 1_555 1_555
C9_38 C8_38 1_555 1_555
C10_38 C9_38 1_555 1_555
O1_18 C1_38 1_555 1_555
O20_24 C1_38 1_555 1_555
O23_24 C6_38 1_555 1_555
O4_38 C6_38 1_555 1_555
Pb11_14 O1_18 1_555 1_555
S1_38 C2_38 1_555 1_555
S2_38 C7_38 1_555 1_555
C21_38 C22_38 1_555 1_555
C22_38 C23_38 1_555 1_555
C23_38 H5_38 1_555 1_555
C24_38 C10_38 1_555 1_555
C25_38 C24_38 1_555 1_555
O25_22 C21_38 1_555 1_555
O10_38 C21_38 1_555 1_555
S5_38 C22_38 1_555 1_555
C26_38 C27_38 1_555 1_555
C27_38 C28_38 1_555 1_555
C28_38 H6_38 1_555 1_555
C29_38 C25_38 1_555 1_555
C30_38 C9_38 1_555 1_555
O24_21 C26_38 1_555 1_555
O12_38 C26_38 1_555 1_555
S6_38 C27_38 1_555 1_555
Pb13_16 O25_22 1_555 1_555
Pb9_13 O24_21 1_555 1_555
O13_18 Pb13_16 1_555 1_555
O14_14 Pb13_16 1_555 1_555
O15_18 Pb9_13 1_555 1_555
O16_18 Pb9_13 1_555 1_555
O17_18 Pb11_14 1_555 1_555
O22_22 Pb13_16 1_555 1_555
O21_21 Pb9_13 1_555 1_555
Pb13_11 O1_18 1_555 1_555
C10_38 S2_38 1_555 1_555
O20_24 Pb11_14 1_555 1_555
O23_24 Pb11_14 1_555 1_555
O4_38 Pb11_14 1_555 1_555
C23_38 C24_38 1_555 1_555
C25_38 S5_38 1_555 1_555
O10_38 Pb13_16 1_555 1_555
C28_38 C29_38 1_555 1_555
C29_38 C30_38 1_555 1_555
C30_38 S6_38 1_555 1_555
O12_38 Pb9_13 1_555 1_555
O17_18 Pb13_11 1_555 1_555
C1_39 C2_39 1_555 1_555
C2_39 C3_39 1_555 1_555
C3_39 H1_39 1_555 1_555
C4_39 C3_39 1_555 1_555
C5_38 C4_39 1_555 1_555
C6_39 C7_39 1_555 1_555
C7_39 C8_39 1_555 1_555
C9_39 C8_39 1_555 1_555
C10_39 C9_39 1_555 1_555
O1_19 C1_39 1_555 1_555
O21_14 C1_39 1_555 1_555
O24_14 C6_39 1_555 1_555
O4_39 C6_39 1_555 1_555
Pb9_19 O1_19 1_555 1_555
S1_39 C2_39 1_555 1_555
S2_39 C7_39 1_555 1_555
C15_38 C4_39 1_555 1_555
C24_39 C10_39 1_555 1_555
C5_38 S1_39 1_555 1_555
C10_39 S2_39 1_555 1_555
O21_14 Pb9_19 1_555 1_555
O24_14 Pb9_19 1_555 1_555
O4_39 Pb9_19 1_555 1_555
C16_39 C17_39 1_555 1_555
C17_39 C18_39 1_555 1_555
C18_39 H4_39 1_555 1_555
O14_9 C16_39 1_555 1_555
O21_32 C16_39 1_555 1_555
S4_39 C17_39 1_555 1_555
C26_39 C27_39 1_555 1_555
C27_39 C28_39 1_555 1_555
O25_13 C26_39 1_555 1_555
O12_39 C26_39 1_555 1_555
S6_39 C27_39 1_555 1_555
Pb13_18 O25_13 1_555 1_555
O16_19 Pb13_18 1_555 1_555
O22_13 Pb13_18 1_555 1_555
C18_39 C19_39 1_555 1_555
C30_39 S6_39 1_555 1_555
O12_39 Pb13_18 1_555 1_555
O17_19 Pb9_7 1_555 1_555
C11_39 C12_39 1_555 1_555
C12_39 C13_39 1_555 1_555
C13_39 H3_39 1_555 1_555
C14_39 C13_39 1_555 1_555
O5_31 C11_39 1_555 1_555
O22_21 C11_39 1_555 1_555
S3_39 C12_39 1_555 1_555
C21_39 C22_39 1_555 1_555
C22_39 C23_39 1_555 1_555
C23_39 H5_39 1_555 1_555
O23_15 C21_39 1_555 1_555
O10_39 C21_39 1_555 1_555
S5_39 C22_39 1_555 1_555
Pb10_6 O23_15 1_555 1_555
O13_19 Pb10_6 1_555 1_555
O14_15 Pb10_6 1_555 1_555
O20_15 Pb10_6 1_555 1_555
Pb13_14 O5_31 1_555 1_555
Pb11 O5_31 1_555 1_555
O22_21 Pb13_14 1_555 1_555
C25_39 S5_39 1_555 1_555
O10_39 Pb10_6 1_555 1_555
C1_40 C2_40 1_555 1_555
C2_40 C3_40 1_555 1_555
C3_40 H1_40 1_555 1_555
C4_40 C3_40 1_555 1_555
C5_39 C4_40 1_555 1_555
C6_40 C7_40 1_555 1_555
C7_40 C8_40 1_555 1_555
C8_40 H2_40 1_555 1_555
C9_40 C8_40 1_555 1_555
C10_40 C9_40 1_555 1_555
O1_20 C1_40 1_555 1_555
O22_19 C1_40 1_555 1_555
O25_19 C6_40 1_555 1_555
O4_40 C6_40 1_555 1_555
Pb13_23 O1_20 1_555 1_555
S1_40 C2_40 1_555 1_555
S2_40 C7_40 1_555 1_555
C11_40 C12_40 1_555 1_555
C12_40 C13_40 1_555 1_555
C13_40 H3_40 1_555 1_555
C14_40 C13_40 1_555 1_555
C15_39 C4_40 1_555 1_555
O5_32 C11_40 1_555 1_555
O22_30 C11_40 1_555 1_555
S3_40 C12_40 1_555 1_555
C16_40 C17_40 1_555 1_555
C17_40 C18_40 1_555 1_555
C18_40 H4_40 1_555 1_555
C19_40 C5_39 1_555 1_555
C20_39 C14_40 1_555 1_555
O14_12 C16_40 1_555 1_555
O21_23 C16_40 1_555 1_555
S4_40 C17_40 1_555 1_555
C21_40 C22_40 1_555 1_555
C22_40 C23_40 1_555 1_555
C23_40 H5_40 1_555 1_555
C24_40 C10_40 1_555 1_555
C25_40 C24_40 1_555 1_555
O24_20 C21_40 1_555 1_555
O10_40 C21_40 1_555 1_555
S5_40 C22_40 1_555 1_555
C26_40 C27_40 1_555 1_555
C27_40 C28_40 1_555 1_555
C28_40 H6_40 1_555 1_555
C29_40 C25_40 1_555 1_555
C30_40 C9_40 1_555 1_555
O23_17 C26_40 1_555 1_555
O12_40 C26_40 1_555 1_555
S6_40 C27_40 1_555 1_555
Pb9_22 O24_20 1_555 1_555
Pb11_12 O23_17 1_555 1_555
O13_20 Pb9_22 1_555 1_555
O14_16 Pb9_22 1_555 1_555
O15_20 Pb11_12 1_555 1_555
O16_20 Pb11_12 1_555 1_555
O17_20 Pb13_23 1_555 1_555
O21_20 Pb9_22 1_555 1_555
O20_17 Pb11_12 1_555 1_555
Pb9_9 O14_12 1_555 1_555
Pb12_19 O5_32 1_555 1_555
Pb11_6 O1_20 1_555 1_555
Pb12_9 O5_32 1_555 1_555
C5_39 S1_40 1_555 1_555
C10_40 S2_40 1_555 1_555
O22_19 Pb13_23 1_555 1_555
O25_19 Pb13_23 1_555 1_555
O4_40 Pb13_23 1_555 1_555
C14_40 C15_39 1_555 1_555
C15_39 S3_40 1_555 1_555
O22_30 Pb12_19 1_555 1_555
C18_40 C19_40 1_555 1_555
C19_40 C20_39 1_555 1_555
C20_39 S4_40 1_555 1_555
C23_40 C24_40 1_555 1_555
C25_40 S5_40 1_555 1_555
O10_40 Pb9_22 1_555 1_555
C28_40 C29_40 1_555 1_555
C29_40 C30_40 1_555 1_555
C30_40 S6_40 1_555 1_555
O12_40 Pb11_12 1_555 1_555
O17_20 Pb11_6 1_555 1_555
C21_41 C22_41 1_555 1_555
C22_41 C23_41 1_555 1_555
C25_41 C24_41 1_555 1_555
O23_30 C21_41 1_555 1_555
O10_41 C21_41 1_555 1_555
S5_41 C22_41 1_555 1_555
C26_41 C27_41 1_555 1_555
C27_41 C28_41 1_555 1_555
C28_41 H6_41 1_555 1_555
C29_41 C25_41 1_555 1_555
C30_41 C9_41 1_555 1_555
O25_32 C26_41 1_555 1_555
O12_41 C26_41 1_555 1_555
S6_41 C27_41 1_555 1_555
Pb12_15 O23_30 1_555 1_555
Pb12_20 O25_32 1_555 1_555
O15_21 Pb12_20 1_555 1_555
O16_21 Pb12_20 1_555 1_555
O22_32 Pb12_20 1_555 1_555
C23_41 C24_41 1_555 1_555
C25_41 S5_41 1_555 1_555
O10_41 Pb12_15 1_555 1_555
C28_41 C29_41 1_555 1_555
C29_41 C30_41 1_555 1_555
C30_41 S6_41 1_555 1_555
O12_41 Pb12_20 1_555 1_555
C1_41 C2_41 1_555 1_555
C2_41 C3_41 1_555 1_555
C3_41 H1_41 1_555 1_555
C4_41 C3_41 1_555 1_555
C5_40 C4_41 1_555 1_555
C6_41 C7_41 1_555 1_555
C7_41 C8_41 1_555 1_555
C8_41 H2_41 1_555 1_555
O1_21 C1_41 1_555 1_555
O21_31 C1_41 1_555 1_555
O24_31 C6_41 1_555 1_555
O4_41 C6_41 1_555 1_555
Pb12_22 O1_21 1_555 1_555
S1_41 C2_41 1_555 1_555
S2_41 C7_41 1_555 1_555
C11_41 C12_41 1_555 1_555
C12_41 C13_41 1_555 1_555
C13_41 H3_41 1_555 1_555
C14_41 C13_41 1_555 1_555
C15_40 C4_41 1_555 1_555
O5_33 C11_41 1_555 1_555
O21_16 C11_41 1_555 1_555
S3_41 C12_41 1_555 1_555
C16_41 C17_41 1_555 1_555
C17_41 C18_41 1_555 1_555
C18_41 H4_41 1_555 1_555
C19_41 C5_40 1_555 1_555
C20_40 C14_41 1_555 1_555
O14_14 C16_41 1_555 1_555
O22_22 C16_41 1_555 1_555
S4_41 C17_41 1_555 1_555
O17_21 Pb12_22 1_555 1_555
Pb11_4 O14_14 1_555 1_555
Pb9_18 O5_33 1_555 1_555
Pb12_8 O1_21 1_555 1_555
Pb9_8 O5_33 1_555 1_555
C5_40 S1_41 1_555 1_555
C10_41 S2_41 1_555 1_555
O21_31 Pb12_22 1_555 1_555
O24_31 Pb12_22 1_555 1_555
O4_41 Pb12_22 1_555 1_555
C14_41 C15_40 1_555 1_555
C15_40 S3_41 1_555 1_555
O21_16 Pb9_18 1_555 1_555
C18_41 C19_41 1_555 1_555
C19_41 C20_40 1_555 1_555
C20_40 S4_41 1_555 1_555
O17_21 Pb12_8 1_555 1_555
C11_42 C12_42 1_555 1_555
C12_42 C13_42 1_555 1_555
C13_42 H3_42 1_555 1_555
C14_42 C13_42 1_555 1_555
O5_34 C11_42 1_555 1_555
O20_23 C11_42 1_555 1_555
S3_42 C12_42 1_555 1_555
C16_42 C17_42 1_555 1_555
C17_42 C18_42 1_555 1_555
C18_42 H4_42 1_555 1_555
C19_42 C5_41 1_555 1_555
C20_41 C14_42 1_555 1_555
O14_15 C16_42 1_555 1_555
O20_15 C16_42 1_555 1_555
S4_42 C17_42 1_555 1_555
Pb13_6 O14_15 1_555 1_555
Pb11_15 O5_34 1_555 1_555
C14_42 C15_41 1_555 1_555
C15_41 S3_42 1_555 1_555
O20_23 Pb11_15 1_555 1_555
C18_42 C19_42 1_555 1_555
C19_42 C20_41 1_555 1_555
C20_41 S4_42 1_555 1_555
C1_42 C2_42 1_555 1_555
C2_42 C3_42 1_555 1_555
C3_42 H1_42 1_555 1_555
C4_42 C3_42 1_555 1_555
C6_42 C7_42 1_555 1_555
C7_42 C8_42 1_555 1_555
C8_42 H2_42 1_555 1_555
C9_42 C8_42 1_555 1_555
C10_42 C9_42 1_555 1_555
O1_22 C1_42 1_555 1_555
O20_19 C1_42 1_555 1_555
O23_19 C6_42 1_555 1_555
O4_42 C6_42 1_555 1_555
Pb11_11 O1_22 1_555 1_555
S1_42 C2_42 1_555 1_555
S2_42 C7_42 1_555 1_555
C21_42 C22_42 1_555 1_555
C22_42 C23_42 1_555 1_555
C23_42 H5_42 1_555 1_555
C24_42 C10_42 1_555 1_555
C25_42 C24_42 1_555 1_555
O25_17 C21_42 1_555 1_555
O10_42 C21_42 1_555 1_555
S5_42 C22_42 1_555 1_555
C26_42 C27_42 1_555 1_555
C27_42 C28_42 1_555 1_555
C28_42 H6_42 1_555 1_555
C29_42 C25_42 1_555 1_555
C30_42 C9_42 1_555 1_555
O24_18 C26_42 1_555 1_555
O12_42 C26_42 1_555 1_555
S6_42 C27_42 1_555 1_555
Pb13_22 O25_17 1_555 1_555
Pb9_23 O24_18 1_555 1_555
O13_22 Pb13_22 1_555 1_555
O15_22 Pb9_23 1_555 1_555
O16_22 Pb9_23 1_555 1_555
O17_22 Pb11_11 1_555 1_555
O21_18 Pb9_23 1_555 1_555
Pb13_3 O1_22 1_555 1_555
C10_42 S2_42 1_555 1_555
O20_19 Pb11_11 1_555 1_555
O23_19 Pb11_11 1_555 1_555
O4_42 Pb11_11 1_555 1_555
C23_42 C24_42 1_555 1_555
C25_42 S5_42 1_555 1_555
O10_42 Pb13_22 1_555 1_555
C28_42 C29_42 1_555 1_555
C29_42 C30_42 1_555 1_555
C30_42 S6_42 1_555 1_555
O12_42 Pb9_23 1_555 1_555
O17_22 Pb13_3 1_555 1_555
C1_43 C2_43 1_555 1_555
C2_43 C3_43 1_555 1_555
C3_43 H1_43 1_555 1_555
C4_43 C3_43 1_555 1_555
C5_42 C4_43 1_555 1_555
C6_43 C7_43 1_555 1_555
C7_43 C8_43 1_555 1_555
C9_43 C8_43 1_555 1_555
C10_43 C9_43 1_555 1_555
O1_23 C1_43 1_555 1_555
O21_24 C1_43 1_555 1_555
O24_24 C6_43 1_555 1_555
O4_43 C6_43 1_555 1_555
Pb9_14 O1_23 1_555 1_555
S1_43 C2_43 1_555 1_555
S2_43 C7_43 1_555 1_555
C15_42 C4_43 1_555 1_555
C24_43 C10_43 1_555 1_555
C5_42 S1_43 1_555 1_555
C10_43 S2_43 1_555 1_555
O21_24 Pb9_14 1_555 1_555
O24_24 Pb9_14 1_555 1_555
O4_43 Pb9_14 1_555 1_555
C11_43 C12_43 1_555 1_555
C12_43 C13_43 1_555 1_555
C13_43 H3_43 1_555 1_555
C14_43 C13_43 1_555 1_555
O5_35 C11_43 1_555 1_555
O22_18 C11_43 1_555 1_555
S3_43 C12_43 1_555 1_555
C21_43 C22_43 1_555 1_555
C22_43 C23_43 1_555 1_555
C23_43 H5_43 1_555 1_555
O23_21 C21_43 1_555 1_555
O10_43 C21_43 1_555 1_555
S5_43 C22_43 1_555 1_555
Pb11_16 O23_21 1_555 1_555
O13_23 Pb11_16 1_555 1_555
Pb13_24 O5_35 1_555 1_555
Pb11_5 O5_35 1_555 1_555
O22_18 Pb13_24 1_555 1_555
C25_43 S5_43 1_555 1_555
O10_43 Pb11_16 1_555 1_555
C16_43 C17_43 1_555 1_555
C17_43 C18_43 1_555 1_555
C18_43 H4_43 1_555 1_555
O14_13 C16_43 1_555 1_555
O22_29 C16_43 1_555 1_555
S4_43 C17_43 1_555 1_555
C26_43 C27_43 1_555 1_555
C27_43 C28_43 1_555 1_555
O25_23 C26_43 1_555 1_555
O12_43 C26_43 1_555 1_555
S6_43 C27_43 1_555 1_555
Pb13_15 O25_23 1_555 1_555
O16_23 Pb13_15 1_555 1_555
O22_23 Pb13_15 1_555 1_555
C18_43 C19_43 1_555 1_555
C30_43 S6_43 1_555 1_555
O12_43 Pb13_15 1_555 1_555
O17_23 Pb9_11 1_555 1_555
C1_44 C2_44 1_555 1_555
C2_44 C3_44 1_555 1_555
C3_44 H1_44 1_555 1_555
C4_44 C3_44 1_555 1_555
C5_43 C4_44 1_555 1_555
C6_44 C7_44 1_555 1_555
C7_44 C8_44 1_555 1_555
C8_44 H2_44 1_555 1_555
C9_44 C8_44 1_555 1_555
C10_44 C9_44 1_555 1_555
O1_24 C1_44 1_555 1_555
O22_14 C1_44 1_555 1_555
O25_14 C6_44 1_555 1_555
O4_44 C6_44 1_555 1_555
Pb13_20 O1_24 1_555 1_555
S1_44 C2_44 1_555 1_555
S2_44 C7_44 1_555 1_555
C11_44 C12_44 1_555 1_555
C12_44 C13_44 1_555 1_555
C13_44 H3_44 1_555 1_555
C14_44 C13_44 1_555 1_555
C15_43 C4_44 1_555 1_555
O5_36 C11_44 1_555 1_555
O20_32 C11_44 1_555 1_555
S3_44 C12_44 1_555 1_555
C16_44 C17_44 1_555 1_555
C17_44 C18_44 1_555 1_555
C18_44 H4_44 1_555 1_555
C19_44 C5_43 1_555 1_555
C20_43 C14_44 1_555 1_555
O14_16 C16_44 1_555 1_555
O21_20 C16_44 1_555 1_555
S4_44 C17_44 1_555 1_555
C21_44 C22_44 1_555 1_555
C22_44 C23_44 1_555 1_555
C23_44 H5_44 1_555 1_555
C24_44 C10_44 1_555 1_555
C25_44 C24_44 1_555 1_555
O24_13 C21_44 1_555 1_555
O10_44 C21_44 1_555 1_555
S5_44 C22_44 1_555 1_555
C26_44 C27_44 1_555 1_555
C27_44 C28_44 1_555 1_555
C28_44 H6_44 1_555 1_555
C29_44 C25_44 1_555 1_555
C30_44 C9_44 1_555 1_555
O23_16 C26_44 1_555 1_555
O12_44 C26_44 1_555 1_555
S6_44 C27_44 1_555 1_555
Pb9_17 O24_13 1_555 1_555
Pb10_5 O23_16 1_555 1_555
O13_24 Pb9_17 1_555 1_555
O15_24 Pb10_5 1_555 1_555
O16_24 Pb10_5 1_555 1_555
O17_24 Pb13_20 1_555 1_555
O20_16 Pb10_5 1_555 1_555
Pb9 O14_16 1_555 1_555
Pb12_14 O5_36 1_555 1_555
Pb10 O1_24 1_555 1_555
Pb12 O5_36 1_555 1_555
C5_43 S1_44 1_555 1_555
C10_44 S2_44 1_555 1_555
O22_14 Pb13_20 1_555 1_555
O25_14 Pb13_20 1_555 1_555
O4_44 Pb13_20 1_555 1_555
C14_44 C15_43 1_555 1_555
C15_43 S3_44 1_555 1_555
O20_32 Pb12_14 1_555 1_555
C18_44 C19_44 1_555 1_555
C19_44 C20_43 1_555 1_555
C20_43 S4_44 1_555 1_555
C23_44 C24_44 1_555 1_555
C25_44 S5_44 1_555 1_555
O10_44 Pb9_17 1_555 1_555
C28_44 C29_44 1_555 1_555
C29_44 C30_44 1_555 1_555
C30_44 S6_44 1_555 1_555
O12_44 Pb10_5 1_555 1_555
O17_24 Pb10 1_555 1_555
C1_45 C2_45 1_555 1_555
C2_45 C3_45 1_555 1_555
C3_45 H1_45 1_555 1_555
C4_45 C3_45 1_555 1_555
C5_44 C4_45 1_555 1_555
C6_45 C7_45 1_555 1_555
C7_45 C8_45 1_555 1_555
C8_45 H2_45 1_555 1_555
C9_45 C8_45 1_555 1_555
C10_45 C9_45 1_555 1_555
O13_14 C1_45 1_555 1_555
O20 C1_45 1_555 1_555
O23 C6_45 1_555 1_555
O4_45 C6_45 1_555 1_555
Pb10_4 O13_14 1_555 1_555
S1_45 C2_45 1_555 1_555
S2_45 C7_45 1_555 1_555
C11_45 C12_45 1_555 1_555
C12_45 C13_45 1_555 1_555
C13_45 H3_45 1_555 1_555
C14_45 C13_45 1_555 1_555
C15_44 C4_45 1_555 1_555
O5_37 C11_45 1_555 1_555
O20_6 C11_45 1_555 1_555
S3_45 C12_45 1_555 1_555
C16_45 C17_45 1_555 1_555
C17_45 C18_45 1_555 1_555
C18_45 H4_45 1_555 1_555
C19_45 C5_44 1_555 1_555
C20_44 C14_45 1_555 1_555
O17_20 C16_45 1_555 1_555
O20_12 C16_45 1_555 1_555
S4_45 C17_45 1_555 1_555
C21_45 C22_45 1_555 1_555
C22_45 C23_45 1_555 1_555
C23_45 H5_45 1_555 1_555
C24_45 C10_45 1_555 1_555
C25_45 C24_45 1_555 1_555
O25_3 C21_45 1_555 1_555
O10_45 C21_45 1_555 1_555
S5_45 C22_45 1_555 1_555
C26_45 C27_45 1_555 1_555
C27_45 C28_45 1_555 1_555
C28_45 H6_45 1_555 1_555
C29_45 C25_45 1_555 1_555
C30_45 C9_45 1_555 1_555
O24_4 C26_45 1_555 1_555
O12_45 C26_45 1_555 1_555
S6_45 C27_45 1_555 1_555
Pb13_7 O25_3 1_555 1_555
Pb9_6 O24_4 1_555 1_555
O16_14 Pb9_6 1_555 1_555
O15_14 Pb9_6 1_555 1_555
O22_3 Pb13_7 1_555 1_555
O21_4 Pb9_6 1_555 1_555
Pb11 O5_37 1_555 1_555
Pb13_14 O5_37 1_555 1_555
C5_44 S1_45 1_555 1_555
C10_45 S2_45 1_555 1_555
O20 Pb10_4 1_555 1_555
O23 Pb10_4 1_555 1_555
O4_45 Pb10_4 1_555 1_555
C14_45 C15_44 1_555 1_555
C15_44 S3_45 1_555 1_555
O20_6 Pb11 1_555 1_555
C18_45 C19_45 1_555 1_555
C19_45 C20_44 1_555 1_555
C20_44 S4_45 1_555 1_555
O20_12 Pb11_6 1_555 1_555
C23_45 C24_45 1_555 1_555
C25_45 S5_45 1_555 1_555
O10_45 Pb13_7 1_555 1_555
C28_45 C29_45 1_555 1_555
C29_45 C30_45 1_555 1_555
C30_45 S6_45 1_555 1_555
O12_45 Pb9_6 1_555 1_555
C16_46 C17_46 1_555 1_555
C17_46 C18_46 1_555 1_555
C18_46 H4_46 1_555 1_555
O17_18 C16_46 1_555 1_555
O22_7 C16_46 1_555 1_555
S4_46 C17_46 1_555 1_555
C26_46 C27_46 1_555 1_555
C27_46 C28_46 1_555 1_555
C28_46 H6_46 1_555 1_555
O25_25 C26_46 1_555 1_555
O12_46 C26_46 1_555 1_555
S6_46 C27_46 1_555 1_555
Pb12_2 O25_25 1_555 1_555
O16_13 Pb12_2 1_555 1_555
O15_13 Pb12_2 1_555 1_555
O22_25 Pb12_2 1_555 1_555
C18_46 C19_46 1_555 1_555
O22_7 Pb13_11 1_555 1_555
C30_46 S6_46 1_555 1_555
O12_46 Pb12_2 1_555 1_555
C1_46 C2_46 1_555 1_555
C2_46 C3_46 1_555 1_555
C3_46 H1_46 1_555 1_555
C4_46 C3_46 1_555 1_555
C5_45 C4_46 1_555 1_555
C6_46 C7_46 1_555 1_555
C7_46 C8_46 1_555 1_555
C9_46 C8_46 1_555 1_555
C10_46 C9_46 1_555 1_555
O13_13 C1_46 1_555 1_555
O21_26 C1_46 1_555 1_555
O24_26 C6_46 1_555 1_555
O4_46 C6_46 1_555 1_555
Pb12_7 O13_13 1_555 1_555
S1_46 C2_46 1_555 1_555
S2_46 C7_46 1_555 1_555
C11_46 C12_46 1_555 1_555
C12_46 C13_46 1_555 1_555
C13_46 H3_46 1_555 1_555
C14_46 C13_46 1_555 1_555
C15_45 C4_46 1_555 1_555
O5_38 C11_46 1_555 1_555
O21_11 C11_46 1_555 1_555
S3_46 C12_46 1_555 1_555
C20_45 C14_46 1_555 1_555
C21_46 C22_46 1_555 1_555
C22_46 C23_46 1_555 1_555
C23_46 H5_46 1_555 1_555
C24_46 C10_46 1_555 1_555
C25_46 C24_46 1_555 1_555
O23_27 C21_46 1_555 1_555
O10_46 C21_46 1_555 1_555
S5_46 C22_46 1_555 1_555
C29_46 C25_46 1_555 1_555
Pb12_12 O23_27 1_555 1_555
O20_27 Pb12_12 1_555 1_555
Pb9_4 O5_38 1_555 1_555
Pb9_21 O5_38 1_555 1_555
C5_45 S1_46 1_555 1_555
C10_46 S2_46 1_555 1_555
O21_26 Pb12_7 1_555 1_555
O24_26 Pb12_7 1_555 1_555
O4_46 Pb12_7 1_555 1_555
C14_46 C15_45 1_555 1_555
C15_45 S3_46 1_555 1_555
O21_11 Pb9_4 1_555 1_555
C23_46 C24_46 1_555 1_555
C25_46 S5_46 1_555 1_555
O10_46 Pb12_12 1_555 1_555
C11_47 C12_47 1_555 1_555
C12_47 C13_47 1_555 1_555
C13_47 H3_47 1_555 1_555
C14_47 C13_47 1_555 1_555
O5_39 C11_47 1_555 1_555
O20_25 C11_47 1_555 1_555
S3_47 C12_47 1_555 1_555
Pb12_9 O5_39 1_555 1_555
Pb12_19 O5_39 1_555 1_555
O20_25 Pb12_9 1_555 1_555
C1_47 C2_47 1_555 1_555
C2_47 C3_47 1_555 1_555
C3_47 H1_47 1_555 1_555
C4_47 C3_47 1_555 1_555
C5_46 C4_47 1_555 1_555
C6_47 C7_47 1_555 1_555
C7_47 C8_47 1_555 1_555
C8_47 H2_47 1_555 1_555
O13_15 C1_47 1_555 1_555
O22_9 C1_47 1_555 1_555
O25_9 C6_47 1_555 1_555
O4_47 C6_47 1_555 1_555
Pb13_2 O13_15 1_555 1_555
S1_47 C2_47 1_555 1_555
S2_47 C7_47 1_555 1_555
C15_46 C4_47 1_555 1_555
C16_47 C17_47 1_555 1_555
C17_47 C18_47 1_555 1_555
C18_47 H4_47 1_555 1_555
C19_47 C5_46 1_555 1_555
O17_19 C16_47 1_555 1_555
O21_2 C16_47 1_555 1_555
S4_47 C17_47 1_555 1_555
C5_46 S1_47 1_555 1_555
C10_47 S2_47 1_555 1_555
O22_9 Pb13_2 1_555 1_555
O25_9 Pb13_2 1_555 1_555
O4_47 Pb13_2 1_555 1_555
C18_47 C19_47 1_555 1_555
C19_47 C20_46 1_555 1_555
C20_46 S4_47 1_555 1_555
O21_2 Pb9_7 1_555 1_555
C21_47 C22_47 1_555 1_555
C22_47 C23_47 1_555 1_555
O24_10 C21_47 1_555 1_555
O10_47 C21_47 1_555 1_555
S5_47 C22_47 1_555 1_555
Pb9_3 O24_10 1_555 1_555
O21_10 Pb9_3 1_555 1_555
C25_47 S5_47 1_555 1_555
O10_47 Pb9_3 1_555 1_555
C26_47 C27_47 1_555 1_555
C27_47 C28_47 1_555 1_555
C30_47 C9_47 1_555 1_555
O23_11 C26_47 1_555 1_555
O12_47 C26_47 1_555 1_555
S6_47 C27_47 1_555 1_555
Pb11_7 O23_11 1_555 1_555
O15_15 Pb11_7 1_555 1_555
O20_11 Pb11_7 1_555 1_555
C28_47 C29_47 1_555 1_555
C29_47 C30_47 1_555 1_555
C30_47 S6_47 1_555 1_555
O12_47 Pb11_7 1_555 1_555
C1_48 C2_48 1_555 1_555
C2_48 C3_48 1_555 1_555
C3_48 H1_48 1_555 1_555
C4_48 C3_48 1_555 1_555
C6_48 C7_48 1_555 1_555
C7_48 C8_48 1_555 1_555
C8_48 H2_48 1_555 1_555
C9_48 C8_48 1_555 1_555
C10_48 C9_48 1_555 1_555
O13_16 C1_48 1_555 1_555
O21_5 C1_48 1_555 1_555
O24_5 C6_48 1_555 1_555
O4_48 C6_48 1_555 1_555
Pb9_9 O13_16 1_555 1_555
S1_48 C2_48 1_555 1_555
S2_48 C7_48 1_555 1_555
C21_48 C22_48 1_555 1_555
C22_48 C23_48 1_555 1_555
C23_48 H5_48 1_555 1_555
C24_48 C10_48 1_555 1_555
C25_48 C24_48 1_555 1_555
O23_8 C21_48 1_555 1_555
O10_48 C21_48 1_555 1_555
S5_48 C22_48 1_555 1_555
C26_48 C27_48 1_555 1_555
C27_48 C28_48 1_555 1_555
C28_48 H6_48 1_555 1_555
C29_48 C25_48 1_555 1_555
C30_48 C9_48 1_555 1_555
O25_6 C26_48 1_555 1_555
O12_48 C26_48 1_555 1_555
S6_48 C27_48 1_555 1_555
Pb11_2 O23_8 1_555 1_555
Pb13_12 O25_6 1_555 1_555
O16_16 Pb13_12 1_555 1_555
O15_16 Pb13_12 1_555 1_555
O20_8 Pb11_2 1_555 1_555
O22_6 Pb13_12 1_555 1_555
C10_48 S2_48 1_555 1_555
O21_5 Pb9_9 1_555 1_555
O24_5 Pb9_9 1_555 1_555
O4_48 Pb9_9 1_555 1_555
C23_48 C24_48 1_555 1_555
C25_48 S5_48 1_555 1_555
O10_48 Pb11_2 1_555 1_555
C28_48 C29_48 1_555 1_555
C29_48 C30_48 1_555 1_555
C30_48 S6_48 1_555 1_555
O12_48 Pb13_12 1_555 1_555
C11_48 C12_48 1_555 1_555
C12_48 C13_48 1_555 1_555
C13_48 H3_48 1_555 1_555
C14_48 C13_48 1_555 1_555
O5_40 C11_48 1_555 1_555
O22_4 C11_48 1_555 1_555
S3_48 C12_48 1_555 1_555
C16_48 C17_48 1_555 1_555
C17_48 C18_48 1_555 1_555
C18_48 H4_48 1_555 1_555
C19_48 C5_47 1_555 1_555
C20_47 C14_48 1_555 1_555
O17_17 C16_48 1_555 1_555
O22_28 C16_48 1_555 1_555
S4_48 C17_48 1_555 1_555
Pb13_5 O5_40 1_555 1_555
C14_48 C15_47 1_555 1_555
C15_47 S3_48 1_555 1_555
O22_4 Pb13_5 1_555 1_555
C18_48 C19_48 1_555 1_555
C19_48 C20_47 1_555 1_555
C20_47 S4_48 1_555 1_555
O22_28 Pb12_4 1_555 1_555
C1_49 C2_49 1_555 1_555
C2_49 C3_49 1_555 1_555
C3_49 H1_49 1_555 1_555
C4_49 C3_49 1_555 1_555
C6_49 C7_49 1_555 1_555
C7_49 C8_49 1_555 1_555
C8_49 H2_49 1_555 1_555
C9_49 C8_49 1_555 1_555
C10_49 C9_49 1_555 1_555
O13_24 C1_49 1_555 1_555
O21 C1_49 1_555 1_555
O24 C6_49 1_555 1_555
O4_49 C6_49 1_555 1_555
Pb9_5 O13_24 1_555 1_555
S1_49 C2_49 1_555 1_555
S2_49 C7_49 1_555 1_555
C21_49 C22_49 1_555 1_555
C22_49 C23_49 1_555 1_555
C23_49 H5_49 1_555 1_555
C24_49 C10_49 1_555 1_555
C25_49 C24_49 1_555 1_555
O23_4 C21_49 1_555 1_555
O10_49 C21_49 1_555 1_555
S5_49 C22_49 1_555 1_555
C26_49 C27_49 1_555 1_555
C27_49 C28_49 1_555 1_555
C28_49 H6_49 1_555 1_555
C29_49 C25_49 1_555 1_555
C30_49 C9_49 1_555 1_555
O25_2 C26_49 1_555 1_555
O12_49 C26_49 1_555 1_555
S6_49 C27_49 1_555 1_555
Pb10 O23_4 1_555 1_555
Pb13_8 O25_2 1_555 1_555
O16_24 Pb13_8 1_555 1_555
O15_24 Pb13_8 1_555 1_555
O20_4 Pb10 1_555 1_555
O22_2 Pb13_8 1_555 1_555
C10_49 S2_49 1_555 1_555
O21 Pb9_5 1_555 1_555
O24 Pb9_5 1_555 1_555
O4_49 Pb9_5 1_555 1_555
C23_49 C24_49 1_555 1_555
C25_49 S5_49 1_555 1_555
O10_49 Pb10 1_555 1_555
C28_49 C29_49 1_555 1_555
C29_49 C30_49 1_555 1_555
C30_49 S6_49 1_555 1_555
O12_49 Pb13_8 1_555 1_555
C11_49 C12_49 1_555 1_555
C12_49 C13_49 1_555 1_555
C13_49 H3_49 1_555 1_555
C14_49 C13_49 1_555 1_555
O5_41 C11_49 1_555 1_555
O22_12 C11_49 1_555 1_555
S3_49 C12_49 1_555 1_555
C16_49 C17_49 1_555 1_555
C17_49 C18_49 1_555 1_555
C18_49 H4_49 1_555 1_555
C19_49 C5_48 1_555 1_555
C20_48 C14_49 1_555 1_555
O17_13 C16_49 1_555 1_555
O20_27 C16_49 1_555 1_555
S4_49 C17_49 1_555 1_555
Pb13 O5_41 1_555 1_555
C14_49 C15_48 1_555 1_555
C15_48 S3_49 1_555 1_555
O22_12 Pb13 1_555 1_555
C18_49 C19_49 1_555 1_555
C19_49 C20_48 1_555 1_555
C20_48 S4_49 1_555 1_555
C11_50 C12_50 1_555 1_555
C12_50 C13_50 1_555 1_555
C13_50 H3_50 1_555 1_555
C14_50 C13_50 1_555 1_555
O5_42 C11_50 1_555 1_555
O21_28 C11_50 1_555 1_555
S3_50 C12_50 1_555 1_555
Pb12_5 O5_42 1_555 1_555
Pb12_24 O5_42 1_555 1_555
O21_28 Pb12_5 1_555 1_555
C1_50 C2_50 1_555 1_555
C2_50 C3_50 1_555 1_555
C3_50 H1_50 1_555 1_555
C4_50 C3_50 1_555 1_555
C5_49 C4_50 1_555 1_555
C6_50 C7_50 1_555 1_555
C7_50 C8_50 1_555 1_555
C8_50 H2_50 1_555 1_555
O13_23 C1_50 1_555 1_555
O22_5 C1_50 1_555 1_555
O25_5 C6_50 1_555 1_555
O4_50 C6_50 1_555 1_555
Pb13_10 O13_23 1_555 1_555
S1_50 C2_50 1_555 1_555
S2_50 C7_50 1_555 1_555
C15_49 C4_50 1_555 1_555
C16_50 C17_50 1_555 1_555
C17_50 C18_50 1_555 1_555
C18_50 H4_50 1_555 1_555
C19_50 C5_49 1_555 1_555
O17_15 C16_50 1_555 1_555
O21_10 C16_50 1_555 1_555
S4_50 C17_50 1_555 1_555
C5_49 S1_50 1_555 1_555
C10_50 S2_50 1_555 1_555
O22_5 Pb13_10 1_555 1_555
O25_5 Pb13_10 1_555 1_555
O4_50 Pb13_10 1_555 1_555
C18_50 C19_50 1_555 1_555
C19_50 C20_49 1_555 1_555
C20_49 S4_50 1_555 1_555
C21_50 C22_50 1_555 1_555
C22_50 C23_50 1_555 1_555
O24_6 C21_50 1_555 1_555
O10_50 C21_50 1_555 1_555
S5_50 C22_50 1_555 1_555
Pb9_11 O24_6 1_555 1_555
O21_6 Pb9_11 1_555 1_555
C25_50 S5_50 1_555 1_555
O10_50 Pb9_11 1_555 1_555
C26_50 C27_50 1_555 1_555
C27_50 C28_50 1_555 1_555
C30_50 C9_50 1_555 1_555
O23_7 C26_50 1_555 1_555
O12_50 C26_50 1_555 1_555
S6_50 C27_50 1_555 1_555
Pb11_3 O23_7 1_555 1_555
O15_23 Pb11_3 1_555 1_555
O20_7 Pb11_3 1_555 1_555
C28_50 C29_50 1_555 1_555
C29_50 C30_50 1_555 1_555
C30_50 S6_50 1_555 1_555
O12_50 Pb11_3 1_555 1_555
C16_51 C17_51 1_555 1_555
C17_51 C18_51 1_555 1_555
C18_51 H4_51 1_555 1_555
O17_14 C16_51 1_555 1_555
O22_3 C16_51 1_555 1_555
S4_51 C17_51 1_555 1_555
C26_51 C27_51 1_555 1_555
C27_51 C28_51 1_555 1_555
C28_51 H6_51 1_555 1_555
O23_28 C26_51 1_555 1_555
O12_51 C26_51 1_555 1_555
S6_51 C27_51 1_555 1_555
Pb12_10 O23_28 1_555 1_555
O16_21 Pb12_10 1_555 1_555
O15_21 Pb12_10 1_555 1_555
O20_28 Pb12_10 1_555 1_555
C18_51 C19_51 1_555 1_555
C30_51 S6_51 1_555 1_555
O12_51 Pb12_10 1_555 1_555
C1_51 C2_51 1_555 1_555
C2_51 C3_51 1_555 1_555
C3_51 H1_51 1_555 1_555
C4_51 C3_51 1_555 1_555
C5_50 C4_51 1_555 1_555
C6_51 C7_51 1_555 1_555
C7_51 C8_51 1_555 1_555
C9_51 C8_51 1_555 1_555
C10_51 C9_51 1_555 1_555
O13_21 C1_51 1_555 1_555
O22_26 C1_51 1_555 1_555
O25_26 C6_51 1_555 1_555
O4_51 C6_51 1_555 1_555
Pb12_3 O13_21 1_555 1_555
S1_51 C2_51 1_555 1_555
S2_51 C7_51 1_555 1_555
C11_51 C12_51 1_555 1_555
C12_51 C13_51 1_555 1_555
C13_51 H3_51 1_555 1_555
C14_51 C13_51 1_555 1_555
C15_50 C4_51 1_555 1_555
O5_43 C11_51 1_555 1_555
O21_7 C11_51 1_555 1_555
S3_51 C12_51 1_555 1_555
C20_50 C14_51 1_555 1_555
C21_51 C22_51 1_555 1_555
C22_51 C23_51 1_555 1_555
C23_51 H5_51 1_555 1_555
C24_51 C10_51 1_555 1_555
C25_51 C24_51 1_555 1_555
O24_25 C21_51 1_555 1_555
O10_51 C21_51 1_555 1_555
S5_51 C22_51 1_555 1_555
C29_51 C25_51 1_555 1_555
Pb12_8 O24_25 1_555 1_555
O21_25 Pb12_8 1_555 1_555
Pb9_12 O5_43 1_555 1_555
Pb9_15 O5_43 1_555 1_555
C5_50 S1_51 1_555 1_555
C10_51 S2_51 1_555 1_555
O22_26 Pb12_3 1_555 1_555
O25_26 Pb12_3 1_555 1_555
O4_51 Pb12_3 1_555 1_555
C14_51 C15_50 1_555 1_555
C15_50 S3_51 1_555 1_555
O21_7 Pb9_12 1_555 1_555
C23_51 C24_51 1_555 1_555
C25_51 S5_51 1_555 1_555
O10_51 Pb12_8 1_555 1_555
C1_52 C2_52 1_555 1_555
C2_52 C3_52 1_555 1_555
C3_52 H1_52 1_555 1_555
C4_52 C3_52 1_555 1_555
C5_51 C4_52 1_555 1_555
C6_52 C7_52 1_555 1_555
C7_52 C8_52 1_555 1_555
C8_52 H2_52 1_555 1_555
C9_52 C8_52 1_555 1_555
C10_52 C9_52 1_555 1_555
O13_22 C1_52 1_555 1_555
O20_9 C1_52 1_555 1_555
O23_9 C6_52 1_555 1_555
O4_52 C6_52 1_555 1_555
Pb11_8 O13_22 1_555 1_555
S1_52 C2_52 1_555 1_555
S2_52 C7_52 1_555 1_555
C11_52 C12_52 1_555 1_555
C12_52 C13_52 1_555 1_555
C13_52 H3_52 1_555 1_555
C14_52 C13_52 1_555 1_555
C15_51 C4_52 1_555 1_555
O5_44 C11_52 1_555 1_555
O20_2 C11_52 1_555 1_555
S3_52 C12_52 1_555 1_555
C16_52 C17_52 1_555 1_555
C17_52 C18_52 1_555 1_555
C18_52 H4_52 1_555 1_555
C19_52 C5_51 1_555 1_555
C20_51 C14_52 1_555 1_555
O17_16 C16_52 1_555 1_555
O20_8 C16_52 1_555 1_555
S4_52 C17_52 1_555 1_555
C21_52 C22_52 1_555 1_555
C22_52 C23_52 1_555 1_555
C23_52 H5_52 1_555 1_555
C24_52 C10_52 1_555 1_555
C25_52 C24_52 1_555 1_555
O25_11 C21_52 1_555 1_555
O10_52 C21_52 1_555 1_555
S5_52 C22_52 1_555 1_555
C26_52 C27_52 1_555 1_555
C27_52 C28_52 1_555 1_555
C28_52 H6_52 1_555 1_555
C29_52 C25_52 1_555 1_555
C30_52 C9_52 1_555 1_555
O24_12 C26_52 1_555 1_555
O12_52 C26_52 1_555 1_555
S6_52 C27_52 1_555 1_555
Pb13_3 O25_11 1_555 1_555
Pb9_2 O24_12 1_555 1_555
O16_22 Pb9_2 1_555 1_555
O15_22 Pb9_2 1_555 1_555
O22_11 Pb13_3 1_555 1_555
O21_12 Pb9_2 1_555 1_555
Pb10_3 O5_44 1_555 1_555
Pb13_19 O5_44 1_555 1_555
C5_51 S1_52 1_555 1_555
C10_52 S2_52 1_555 1_555
O20_9 Pb11_8 1_555 1_555
O23_9 Pb11_8 1_555 1_555
O4_52 Pb11_8 1_555 1_555
C14_52 C15_51 1_555 1_555
C15_51 S3_52 1_555 1_555
O20_2 Pb10_3 1_555 1_555
C18_52 C19_52 1_555 1_555
C19_52 C20_51 1_555 1_555
C20_51 S4_52 1_555 1_555
C23_52 C24_52 1_555 1_555
C25_52 S5_52 1_555 1_555
O10_52 Pb13_3 1_555 1_555
C28_52 C29_52 1_555 1_555
C29_52 C30_52 1_555 1_555
C30_52 S6_52 1_555 1_555
O12_52 Pb9_2 1_555 1_555
C11_53 C12_53 1_555 1_555
C12_53 C13_53 1_555 1_555
C13_53 H3_53 1_555 1_555
C14_53 C13_53 1_555 1_555
O5_45 C11_53 1_555 1_555
O22_27 C11_53 1_555 1_555
S3_53 C12_53 1_555 1_555
Pb12 O5_45 1_555 1_555
Pb12_14 O5_45 1_555 1_555
O22_27 Pb12 1_555 1_555
C21_53 C22_53 1_555 1_555
C22_53 C23_53 1_555 1_555
O24_2 C21_53 1_555 1_555
O10_53 C21_53 1_555 1_555
S5_53 C22_53 1_555 1_555
Pb9_7 O24_2 1_555 1_555
C25_53 S5_53 1_555 1_555
O10_53 Pb9_7 1_555 1_555
C1_53 C2_53 1_555 1_555
C2_53 C3_53 1_555 1_555
C3_53 H1_53 1_555 1_555
C4_53 C3_53 1_555 1_555
C5_52 C4_53 1_555 1_555
C6_53 C7_53 1_555 1_555
C7_53 C8_53 1_555 1_555
C8_53 H2_53 1_555 1_555
O13_19 C1_53 1_555 1_555
O22 C1_53 1_555 1_555
O25 C6_53 1_555 1_555
O4_53 C6_53 1_555 1_555
Pb13_6 O13_19 1_555 1_555
S1_53 C2_53 1_555 1_555
S2_53 C7_53 1_555 1_555
C15_52 C4_53 1_555 1_555
C16_53 C17_53 1_555 1_555
C17_53 C18_53 1_555 1_555
C18_53 H4_53 1_555 1_555
C19_53 C5_52 1_555 1_555
O17_23 C16_53 1_555 1_555
O21_6 C16_53 1_555 1_555
S4_53 C17_53 1_555 1_555
C5_52 S1_53 1_555 1_555
C10_53 S2_53 1_555 1_555
O22 Pb13_6 1_555 1_555
O25 Pb13_6 1_555 1_555
O4_53 Pb13_6 1_555 1_555
C18_53 C19_53 1_555 1_555
C19_53 C20_52 1_555 1_555
C20_52 S4_53 1_555 1_555
C26_53 C27_53 1_555 1_555
C27_53 C28_53 1_555 1_555
C30_53 C9_53 1_555 1_555
O23_3 C26_53 1_555 1_555
O12_53 C26_53 1_555 1_555
S6_53 C27_53 1_555 1_555
Pb10_2 O23_3 1_555 1_555
O15_19 Pb10_2 1_555 1_555
O20_3 Pb10_2 1_555 1_555
C28_53 C29_53 1_555 1_555
C29_53 C30_53 1_555 1_555
C30_53 S6_53 1_555 1_555
O12_53 Pb10_2 1_555 1_555
C1_54 C2_54 1_555 1_555
C2_54 C3_54 1_555 1_555
C3_54 H1_54 1_555 1_555
C4_54 C3_54 1_555 1_555
C6_54 C7_54 1_555 1_555
C7_54 C8_54 1_555 1_555
C8_54 H2_54 1_555 1_555
C9_54 C8_54 1_555 1_555
C10_54 C9_54 1_555 1_555
O13_20 C1_54 1_555 1_555
O21_9 C1_54 1_555 1_555
O24_9 C6_54 1_555 1_555
O4_54 C6_54 1_555 1_555
Pb9 O13_20 1_555 1_555
S1_54 C2_54 1_555 1_555
S2_54 C7_54 1_555 1_555
C21_54 C22_54 1_555 1_555
C22_54 C23_54 1_555 1_555
C23_54 H5_54 1_555 1_555
C24_54 C10_54 1_555 1_555
C25_54 C24_54 1_555 1_555
O23_12 C21_54 1_555 1_555
O10_54 C21_54 1_555 1_555
S5_54 C22_54 1_555 1_555
C26_54 C27_54 1_555 1_555
C27_54 C28_54 1_555 1_555
C28_54 H6_54 1_555 1_555
C29_54 C25_54 1_555 1_555
C30_54 C9_54 1_555 1_555
O25_10 C26_54 1_555 1_555
O12_54 C26_54 1_555 1_555
S6_54 C27_54 1_555 1_555
Pb11_6 O23_12 1_555 1_555
Pb13_4 O25_10 1_555 1_555
O16_20 Pb13_4 1_555 1_555
O15_20 Pb13_4 1_555 1_555
O22_10 Pb13_4 1_555 1_555
C10_54 S2_54 1_555 1_555
O21_9 Pb9 1_555 1_555
O24_9 Pb9 1_555 1_555
O4_54 Pb9 1_555 1_555
C23_54 C24_54 1_555 1_555
C25_54 S5_54 1_555 1_555
O10_54 Pb11_6 1_555 1_555
C28_54 C29_54 1_555 1_555
C29_54 C30_54 1_555 1_555
C30_54 S6_54 1_555 1_555
O12_54 Pb13_4 1_555 1_555
C11_54 C12_54 1_555 1_555
C12_54 C13_54 1_555 1_555
C13_54 H3_54 1_555 1_555
C14_54 C13_54 1_555 1_555
O5_46 C11_54 1_555 1_555
O22_8 C11_54 1_555 1_555
S3_54 C12_54 1_555 1_555
C16_54 C17_54 1_555 1_555
C17_54 C18_54 1_555 1_555
C18_54 H4_54 1_555 1_555
C19_54 C5_53 1_555 1_555
C20_53 C14_54 1_555 1_555
O17_21 C16_54 1_555 1_555
O21_25 C16_54 1_555 1_555
S4_54 C17_54 1_555 1_555
Pb13_9 O5_46 1_555 1_555
C14_54 C15_53 1_555 1_555
C15_53 S3_54 1_555 1_555
O22_8 Pb13_9 1_555 1_555
C18_54 C19_54 1_555 1_555
C19_54 C20_53 1_555 1_555
C20_53 S4_54 1_555 1_555
C1_55 C2_55 1_555 1_555
C2_55 C3_55 1_555 1_555
C3_55 H1_55 1_555 1_555
C4_55 C3_55 1_555 1_555
C5_54 C4_55 1_555 1_555
C6_55 C7_55 1_555 1_555
C7_55 C8_55 1_555 1_555
C8_55 H2_55 1_555 1_555
C9_55 C8_55 1_555 1_555
C10_55 C9_55 1_555 1_555
O13_18 C1_55 1_555 1_555
O20_5 C1_55 1_555 1_555
O23_5 C6_55 1_555 1_555
O4_55 C6_55 1_555 1_555
Pb11_4 O13_18 1_555 1_555
S1_55 C2_55 1_555 1_555
S2_55 C7_55 1_555 1_555
C11_55 C12_55 1_555 1_555
C12_55 C13_55 1_555 1_555
C13_55 H3_55 1_555 1_555
C14_55 C13_55 1_555 1_555
C15_54 C4_55 1_555 1_555
O5_47 C11_55 1_555 1_555
O20_10 C11_55 1_555 1_555
S3_55 C12_55 1_555 1_555
C16_55 C17_55 1_555 1_555
C17_55 C18_55 1_555 1_555
C18_55 H4_55 1_555 1_555
C19_55 C5_54 1_555 1_555
C20_54 C14_55 1_555 1_555
O17_24 C16_55 1_555 1_555
O20_4 C16_55 1_555 1_555
S4_55 C17_55 1_555 1_555
C21_55 C22_55 1_555 1_555
C22_55 C23_55 1_555 1_555
C23_55 H5_55 1_555 1_555
C24_55 C10_55 1_555 1_555
C25_55 C24_55 1_555 1_555
O25_7 C21_55 1_555 1_555
O10_55 C21_55 1_555 1_555
S5_55 C22_55 1_555 1_555
C26_55 C27_55 1_555 1_555
C27_55 C28_55 1_555 1_555
C28_55 H6_55 1_555 1_555
C29_55 C25_55 1_555 1_555
C30_55 C9_55 1_555 1_555
O24_8 C26_55 1_555 1_555
O12_55 C26_55 1_555 1_555
S6_55 C27_55 1_555 1_555
Pb13_11 O25_7 1_555 1_555
Pb9_10 O24_8 1_555 1_555
O16_18 Pb9_10 1_555 1_555
O15_18 Pb9_10 1_555 1_555
O21_8 Pb9_10 1_555 1_555
Pb11_5 O5_47 1_555 1_555
Pb13_24 O5_47 1_555 1_555
C5_54 S1_55 1_555 1_555
C10_55 S2_55 1_555 1_555
O20_5 Pb11_4 1_555 1_555
O23_5 Pb11_4 1_555 1_555
O4_55 Pb11_4 1_555 1_555
C14_55 C15_54 1_555 1_555
C15_54 S3_55 1_555 1_555
O20_10 Pb11_5 1_555 1_555
C18_55 C19_55 1_555 1_555
C19_55 C20_54 1_555 1_555
C20_54 S4_55 1_555 1_555
C23_55 C24_55 1_555 1_555
C25_55 S5_55 1_555 1_555
O10_55 Pb13_11 1_555 1_555
C28_55 C29_55 1_555 1_555
C29_55 C30_55 1_555 1_555
C30_55 S6_55 1_555 1_555
O12_55 Pb9_10 1_555 1_555
C16_56 C17_56 1_555 1_555
C17_56 C18_56 1_555 1_555
C18_56 H4_56 1_555 1_555
O17_22 C16_56 1_555 1_555
O22_11 C16_56 1_555 1_555
S4_56 C17_56 1_555 1_555
C26_56 C27_56 1_555 1_555
C27_56 C28_56 1_555 1_555
C28_56 H6_56 1_555 1_555
O24_27 C26_56 1_555 1_555
O12_56 C26_56 1_555 1_555
S6_56 C27_56 1_555 1_555
Pb12_6 O24_27 1_555 1_555
O16_17 Pb12_6 1_555 1_555
O15_17 Pb12_6 1_555 1_555
O21_27 Pb12_6 1_555 1_555
C18_56 C19_56 1_555 1_555
C30_56 S6_56 1_555 1_555
O12_56 Pb12_6 1_555 1_555
C1_56 C2_56 1_555 1_555
C2_56 C3_56 1_555 1_555
C3_56 H1_56 1_555 1_555
C4_56 C3_56 1_555 1_555
C5_55 C4_56 1_555 1_555
C6_56 C7_56 1_555 1_555
C7_56 C8_56 1_555 1_555
C9_56 C8_56 1_555 1_555
C10_56 C9_56 1_555 1_555
O13_17 C1_56 1_555 1_555
O20_26 C1_56 1_555 1_555
O23_26 C6_56 1_555 1_555
O4_56 C6_56 1_555 1_555
Pb12_11 O13_17 1_555 1_555
S1_56 C2_56 1_555 1_555
S2_56 C7_56 1_555 1_555
C11_56 C12_56 1_555 1_555
C12_56 C13_56 1_555 1_555
C13_56 H3_56 1_555 1_555
C14_56 C13_56 1_555 1_555
C15_55 C4_56 1_555 1_555
O5_48 C11_56 1_555 1_555
O21_3 C11_56 1_555 1_555
S3_56 C12_56 1_555 1_555
C20_55 C14_56 1_555 1_555
C21_56 C22_56 1_555 1_555
C22_56 C23_56 1_555 1_555
C23_56 H5_56 1_555 1_555
C24_56 C10_56 1_555 1_555
C25_56 C24_56 1_555 1_555
O25_28 C21_56 1_555 1_555
O10_56 C21_56 1_555 1_555
S5_56 C22_56 1_555 1_555
C29_56 C25_56 1_555 1_555
Pb12_4 O25_28 1_555 1_555
Pb9_8 O5_48 1_555 1_555
Pb9_18 O5_48 1_555 1_555
C5_55 S1_56 1_555 1_555
C10_56 S2_56 1_555 1_555
O20_26 Pb12_11 1_555 1_555
O23_26 Pb12_11 1_555 1_555
O4_56 Pb12_11 1_555 1_555
C14_56 C15_55 1_555 1_555
C15_55 S3_56 1_555 1_555
O21_3 Pb9_8 1_555 1_555
C23_56 C24_56 1_555 1_555
C25_56 S5_56 1_555 1_555
O10_56 Pb12_4 1_555 1_555
C1_57 C2_57 1_555 1_555
C2_57 C3_57 1_555 1_555
C3_57 H1_57 1_555 1_555
C4_57 C3_57 1_555 1_555
C5_56 C4_57 1_555 1_555
O16_23 C1_57 1_555 1_555
O22_23 C1_57 1_555 1_555
S1_57 C2_57 1_555 1_555
C11_57 C12_57 1_555 1_555
C12_57 C13_57 1_555 1_555
C13_57 H3_57 1_555 1_555
C14_57 C13_57 1_555 1_555
C15_56 C4_57 1_555 1_555
O16_17 C11_57 1_555 1_555
O21_30 C11_57 1_555 1_555
S3_57 C12_57 1_555 1_555
C20_56 C14_57 1_555 1_555
C5_56 S1_57 1_555 1_555
C14_57 C15_56 1_555 1_555
C15_56 S3_57 1_555 1_555
C16_57 C17_57 1_555 1_555
C17_57 C18_57 1_555 1_555
C18_57 H4_57 1_555 1_555
O16_14 C16_57 1_555 1_555
O21_15 C16_57 1_555 1_555
S4_57 C17_57 1_555 1_555
C18_57 C19_57 1_555 1_555
C11_58 C12_58 1_555 1_555
C12_58 C13_58 1_555 1_555
C13_58 H3_58 1_555 1_555
C14_58 C13_58 1_555 1_555
O16_19 C11_58 1_555 1_555
O22_13 C11_58 1_555 1_555
S3_58 C12_58 1_555 1_555
C16_58 C17_58 1_555 1_555
C17_58 C18_58 1_555 1_555
C18_58 H4_58 1_555 1_555
C19_58 C5_57 1_555 1_555
C20_57 C14_58 1_555 1_555
O16_13 C16_58 1_555 1_555
O20_29 C16_58 1_555 1_555
S4_58 C17_58 1_555 1_555
C14_58 C15_57 1_555 1_555
C15_57 S3_58 1_555 1_555
C18_58 C19_58 1_555 1_555
C19_58 C20_57 1_555 1_555
C20_57 S4_58 1_555 1_555
C1_58 C2_58 1_555 1_555
C2_58 C3_58 1_555 1_555
C3_58 H1_58 1_555 1_555
C4_58 C3_58 1_555 1_555
O16_22 C1_58 1_555 1_555
O21_18 C1_58 1_555 1_555
S1_58 C2_58 1_555 1_555
C1_59 C2_59 1_555 1_555
C2_59 C3_59 1_555 1_555
C3_59 H1_59 1_555 1_555
C4_59 C3_59 1_555 1_555
C5_58 C4_59 1_555 1_555
O16_24 C1_59 1_555 1_555
O20_16 C1_59 1_555 1_555
S1_59 C2_59 1_555 1_555
C11_59 C12_59 1_555 1_555
C12_59 C13_59 1_555 1_555
C13_59 H3_59 1_555 1_555
C14_59 C13_59 1_555 1_555
C15_58 C4_59 1_555 1_555
O16_20 C11_59 1_555 1_555
O20_17 C11_59 1_555 1_555
S3_59 C12_59 1_555 1_555
C16_59 C17_59 1_555 1_555
C17_59 C18_59 1_555 1_555
C18_59 H4_59 1_555 1_555
C19_59 C5_58 1_555 1_555
C20_58 C14_59 1_555 1_555
O16_16 C16_59 1_555 1_555
O20_22 C16_59 1_555 1_555
S4_59 C17_59 1_555 1_555
C5_58 S1_59 1_555 1_555
C14_59 C15_58 1_555 1_555
C15_58 S3_59 1_555 1_555
C18_59 C19_59 1_555 1_555
C19_59 C20_58 1_555 1_555
C20_58 S4_59 1_555 1_555
C1_60 C2_60 1_555 1_555
C2_60 C3_60 1_555 1_555
C3_60 H1_60 1_555 1_555
C4_60 C3_60 1_555 1_555
C5_59 C4_60 1_555 1_555
O16_21 C1_60 1_555 1_555
O22_32 C1_60 1_555 1_555
S1_60 C2_60 1_555 1_555
C15_59 C4_60 1_555 1_555
C16_60 C17_60 1_555 1_555
C17_60 C18_60 1_555 1_555
C18_60 H4_60 1_555 1_555
C19_60 C5_59 1_555 1_555
O16_15 C16_60 1_555 1_555
O22_20 C16_60 1_555 1_555
S4_60 C17_60 1_555 1_555
C5_59 S1_60 1_555 1_555
C18_60 C19_60 1_555 1_555
C19_60 C20_59 1_555 1_555
C20_59 S4_60 1_555 1_555
C11_60 C12_60 1_555 1_555
C12_60 C13_60 1_555 1_555
C13_60 H3_60 1_555 1_555
C14_60 C13_60 1_555 1_555
O16_18 C11_60 1_555 1_555
O21_21 C11_60 1_555 1_555
S3_60 C12_60 1_555 1_555
C6_57 C7_57 1_555 1_555
C7_57 C8_57 1_555 1_555
C9_57 C8_57 1_555 1_555
C10_57 C9_57 1_555 1_555
O23_23 C6_57 1_555 1_555
O4_57 C6_57 1_555 1_555
S2_57 C7_57 1_555 1_555
C21_57 C22_57 1_555 1_555
C22_57 C23_57 1_555 1_555
C23_57 H5_57 1_555 1_555
C24_57 C10_57 1_555 1_555
C25_57 C24_57 1_555 1_555
O25_21 C21_57 1_555 1_555
O10_57 C21_57 1_555 1_555
S5_57 C22_57 1_555 1_555
C29_57 C25_57 1_555 1_555
Pb13_14 O25_21 1_555 1_555
C10_57 S2_57 1_555 1_555
O23_23 Pb11_15 1_555 1_555
O4_57 Pb11_15 1_555 1_555
C23_57 C24_57 1_555 1_555
C25_57 S5_57 1_555 1_555
O10_57 Pb13_14 1_555 1_555
C26_57 C27_57 1_555 1_555
C27_57 C28_57 1_555 1_555
C28_57 H6_57 1_555 1_555
O24_22 C26_57 1_555 1_555
O12_57 C26_57 1_555 1_555
S6_57 C27_57 1_555 1_555
Pb9_15 O24_22 1_555 1_555
C30_57 S6_57 1_555 1_555
O12_57 Pb9_15 1_555 1_555
C6_58 C7_58 1_555 1_555
C7_58 C8_58 1_555 1_555
C8_58 H2_58 1_555 1_555
C9_58 C8_58 1_555 1_555
C10_58 C9_58 1_555 1_555
O23_32 C6_58 1_555 1_555
O4_58 C6_58 1_555 1_555
S2_58 C7_58 1_555 1_555
C21_58 C22_58 1_555 1_555
C22_58 C23_58 1_555 1_555
C23_58 H5_58 1_555 1_555
C24_58 C10_58 1_555 1_555
C25_58 C24_58 1_555 1_555
O25_30 C21_58 1_555 1_555
O10_58 C21_58 1_555 1_555
S5_58 C22_58 1_555 1_555
C26_58 C27_58 1_555 1_555
C27_58 C28_58 1_555 1_555
C28_58 H6_58 1_555 1_555
C29_58 C25_58 1_555 1_555
C30_58 C9_58 1_555 1_555
O24_29 C26_58 1_555 1_555
O12_58 C26_58 1_555 1_555
S6_58 C27_58 1_555 1_555
Pb12_19 O25_30 1_555 1_555
Pb12_24 O24_29 1_555 1_555
C10_58 S2_58 1_555 1_555
O23_32 Pb12_14 1_555 1_555
O4_58 Pb12_14 1_555 1_555
C23_58 C24_58 1_555 1_555
C25_58 S5_58 1_555 1_555
O10_58 Pb12_19 1_555 1_555
C28_58 C29_58 1_555 1_555
C29_58 C30_58 1_555 1_555
C30_58 S6_58 1_555 1_555
O12_58 Pb12_24 1_555 1_555
C6_59 C7_59 1_555 1_555
C7_59 C8_59 1_555 1_555
C8_59 H2_59 1_555 1_555
C9_59 C8_59 1_555 1_555
C10_59 C9_59 1_555 1_555
O25_18 C6_59 1_555 1_555
O4_59 C6_59 1_555 1_555
S2_59 C7_59 1_555 1_555
C24_59 C10_59 1_555 1_555
C26_59 C27_59 1_555 1_555
C27_59 C28_59 1_555 1_555
C30_59 C9_59 1_555 1_555
O23_20 C26_59 1_555 1_555
O12_59 C26_59 1_555 1_555
S6_59 C27_59 1_555 1_555
Pb11_10 O23_20 1_555 1_555
C10_59 S2_59 1_555 1_555
O25_18 Pb13_24 1_555 1_555
O4_59 Pb13_24 1_555 1_555
C28_59 C29_59 1_555 1_555
C29_59 C30_59 1_555 1_555
C30_59 S6_59 1_555 1_555
O12_59 Pb11_10 1_555 1_555
C21_59 C22_59 1_555 1_555
C22_59 C23_59 1_555 1_555
C23_59 H5_59 1_555 1_555
O24_17 C21_59 1_555 1_555
O10_59 C21_59 1_555 1_555
S5_59 C22_59 1_555 1_555
Pb9_21 O24_17 1_555 1_555
C25_59 S5_59 1_555 1_555
O10_59 Pb9_21 1_555 1_555
C21_60 C22_60 1_555 1_555
C22_60 C23_60 1_555 1_555
C25_60 C24_60 1_555 1_555
O23_13 C21_60 1_555 1_555
O10_60 C21_60 1_555 1_555
S5_60 C22_60 1_555 1_555
C26_60 C27_60 1_555 1_555
C27_60 C28_60 1_555 1_555
C28_60 H6_60 1_555 1_555
C29_60 C25_60 1_555 1_555
C30_60 C9_60 1_555 1_555
O25_15 C26_60 1_555 1_555
O12_60 C26_60 1_555 1_555
S6_60 C27_60 1_555 1_555
Pb10_8 O23_13 1_555 1_555
Pb13_19 O25_15 1_555 1_555
C23_60 C24_60 1_555 1_555
C25_60 S5_60 1_555 1_555
O10_60 Pb10_8 1_555 1_555
C28_60 C29_60 1_555 1_555
C29_60 C30_60 1_555 1_555
C30_60 S6_60 1_555 1_555
O12_60 Pb13_19 1_555 1_555
C6_60 C7_60 1_555 1_555
C7_60 C8_60 1_555 1_555
C8_60 H2_60 1_555 1_555
O24_16 C6_60 1_555 1_555
O4_60 C6_60 1_555 1_555
S2_60 C7_60 1_555 1_555
C10_60 S2_60 1_555 1_555
O24_16 Pb9_18 1_555 1_555
O4_60 Pb9_18 1_555 1_555
C1_61 C2_61 1_555 1_555
C2_61 C3_61 1_555 1_555
C3_61 H1_61 1_555 1_555
C4_61 C3_61 1_555 1_555
O15_15 C1_61 1_555 1_555
O20_11 C1_61 1_555 1_555
S1_61 C2_61 1_555 1_555
C11_61 C12_61 1_555 1_555
C12_61 C13_61 1_555 1_555
C13_61 H3_61 1_555 1_555
C14_61 C13_61 1_555 1_555
O15_19 C11_61 1_555 1_555
O20_3 C11_61 1_555 1_555
S3_61 C12_61 1_555 1_555
C16_61 C17_61 1_555 1_555
C17_61 C18_61 1_555 1_555
C18_61 H4_61 1_555 1_555
O15_23 C16_61 1_555 1_555
O20_7 C16_61 1_555 1_555
S4_61 C17_61 1_555 1_555
C18_61 C19_61 1_555 1_555
C1_62 C2_62 1_555 1_555
C2_62 C3_62 1_555 1_555
C3_62 H1_62 1_555 1_555
C4_62 C3_62 1_555 1_555
C5_60 C4_62 1_555 1_555
O15_13 C1_62 1_555 1_555
O22_25 C1_62 1_555 1_555
S1_62 C2_62 1_555 1_555
C11_62 C12_62 1_555 1_555
C12_62 C13_62 1_555 1_555
C13_62 H3_62 1_555 1_555
C14_62 C13_62 1_555 1_555
C15_60 C4_62 1_555 1_555
O15_18 C11_62 1_555 1_555
O21_8 C11_62 1_555 1_555
S3_62 C12_62 1_555 1_555
C16_62 C17_62 1_555 1_555
C17_62 C18_62 1_555 1_555
C18_62 H4_62 1_555 1_555
C19_62 C5_60 1_555 1_555
C20_60 C14_62 1_555 1_555
O15_24 C16_62 1_555 1_555
O22_2 C16_62 1_555 1_555
S4_62 C17_62 1_555 1_555
C5_60 S1_62 1_555 1_555
C14_62 C15_60 1_555 1_555
C15_60 S3_62 1_555 1_555
C18_62 C19_62 1_555 1_555
C19_62 C20_60 1_555 1_555
C20_60 S4_62 1_555 1_555
C1_63 C2_63 1_555 1_555
C2_63 C3_63 1_555 1_555
C3_63 H1_63 1_555 1_555
C4_63 C3_63 1_555 1_555
C5_61 C4_63 1_555 1_555
O15_16 C1_63 1_555 1_555
O22_6 C1_63 1_555 1_555
S1_63 C2_63 1_555 1_555
C11_63 C12_63 1_555 1_555
C12_63 C13_63 1_555 1_555
C13_63 H3_63 1_555 1_555
C14_63 C13_63 1_555 1_555
C15_61 C4_63 1_555 1_555
O15_17 C11_63 1_555 1_555
O21_27 C11_63 1_555 1_555
S3_63 C12_63 1_555 1_555
C16_63 C17_63 1_555 1_555
C17_63 C18_63 1_555 1_555
C18_63 H4_63 1_555 1_555
C19_63 C5_61 1_555 1_555
C20_61 C14_63 1_555 1_555
O15_22 C16_63 1_555 1_555
O21_12 C16_63 1_555 1_555
S4_63 C17_63 1_555 1_555
C5_61 S1_63 1_555 1_555
C14_63 C15_61 1_555 1_555
C15_61 S3_63 1_555 1_555
C18_63 C19_63 1_555 1_555
C19_63 C20_61 1_555 1_555
C20_61 S4_63 1_555 1_555
C1_64 C2_64 1_555 1_555
C2_64 C3_64 1_555 1_555
C3_64 H1_64 1_555 1_555
C4_64 C3_64 1_555 1_555
C5_62 C4_64 1_555 1_555
O15_14 C1_64 1_555 1_555
O21_4 C1_64 1_555 1_555
S1_64 C2_64 1_555 1_555
C11_64 C12_64 1_555 1_555
C12_64 C13_64 1_555 1_555
C13_64 H3_64 1_555 1_555
C14_64 C13_64 1_555 1_555
C15_62 C4_64 1_555 1_555
O15_20 C11_64 1_555 1_555
O22_10 C11_64 1_555 1_555
S3_64 C12_64 1_555 1_555
C16_64 C17_64 1_555 1_555
C17_64 C18_64 1_555 1_555
C18_64 H4_64 1_555 1_555
C19_64 C5_62 1_555 1_555
C20_62 C14_64 1_555 1_555
O15_21 C16_64 1_555 1_555
O20_28 C16_64 1_555 1_555
S4_64 C17_64 1_555 1_555
C5_62 S1_64 1_555 1_555
C14_64 C15_62 1_555 1_555
C15_62 S3_64 1_555 1_555
C18_64 C19_64 1_555 1_555
C19_64 C20_62 1_555 1_555
C20_62 S4_64 1_555 1_555
C21_61 C22_61 1_555 1_555
C22_61 C23_61 1_555 1_555
C23_61 H5_61 1_555 1_555
O23_10 C21_61 1_555 1_555
O10_61 C21_61 1_555 1_555
S5_61 C22_61 1_555 1_555
Pb11_5 O23_10 1_555 1_555
C25_61 S5_61 1_555 1_555
O10_61 Pb11_5 1_555 1_555
C6_61 C7_61 1_555 1_555
C7_61 C8_61 1_555 1_555
C8_61 H2_61 1_555 1_555
C9_61 C8_61 1_555 1_555
C10_61 C9_61 1_555 1_555
O24_11 C6_61 1_555 1_555
O4_61 C6_61 1_555 1_555
S2_61 C7_61 1_555 1_555
C24_61 C10_61 1_555 1_555
C26_61 C27_61 1_555 1_555
C27_61 C28_61 1_555 1_555
C30_61 C9_61 1_555 1_555
O25_12 C26_61 1_555 1_555
O12_61 C26_61 1_555 1_555
S6_61 C27_61 1_555 1_555
Pb13 O25_12 1_555 1_555
C10_61 S2_61 1_555 1_555
O24_11 Pb9_4 1_555 1_555
O4_61 Pb9_4 1_555 1_555
C28_61 C29_61 1_555 1_555
C29_61 C30_61 1_555 1_555
C30_61 S6_61 1_555 1_555
O12_61 Pb13 1_555 1_555
C26_62 C27_62 1_555 1_555
C27_62 C28_62 1_555 1_555
C28_62 H6_62 1_555 1_555
O23_2 C26_62 1_555 1_555
O12_62 C26_62 1_555 1_555
S6_62 C27_62 1_555 1_555
Pb10_3 O23_2 1_555 1_555
C30_62 S6_62 1_555 1_555
O12_62 Pb10_3 1_555 1_555
C6_62 C7_62 1_555 1_555
C7_62 C8_62 1_555 1_555
C9_62 C8_62 1_555 1_555
C10_62 C9_62 1_555 1_555
O25_4 C6_62 1_555 1_555
O4_62 C6_62 1_555 1_555
S2_62 C7_62 1_555 1_555
C21_62 C22_62 1_555 1_555
C22_62 C23_62 1_555 1_555
C23_62 H5_62 1_555 1_555
C24_62 C10_62 1_555 1_555
C25_62 C24_62 1_555 1_555
O24_3 C21_62 1_555 1_555
O10_62 C21_62 1_555 1_555
S5_62 C22_62 1_555 1_555
C29_62 C25_62 1_555 1_555
Pb9_8 O24_3 1_555 1_555
C10_62 S2_62 1_555 1_555
O25_4 Pb13_5 1_555 1_555
O4_62 Pb13_5 1_555 1_555
C23_62 C24_62 1_555 1_555
C25_62 S5_62 1_555 1_555
O10_62 Pb9_8 1_555 1_555
C6_63 C7_63 1_555 1_555
C7_63 C8_63 1_555 1_555
C8_63 H2_63 1_555 1_555
C9_63 C8_63 1_555 1_555
C10_63 C9_63 1_555 1_555
O23_25 C6_63 1_555 1_555
O4_63 C6_63 1_555 1_555
S2_63 C7_63 1_555 1_555
C21_63 C22_63 1_555 1_555
C22_63 C23_63 1_555 1_555
C23_63 H5_63 1_555 1_555
C24_63 C10_63 1_555 1_555
C25_63 C24_63 1_555 1_555
O25_27 C21_63 1_555 1_555
O10_63 C21_63 1_555 1_555
S5_63 C22_63 1_555 1_555
C26_63 C27_63 1_555 1_555
C27_63 C28_63 1_555 1_555
C28_63 H6_63 1_555 1_555
C29_63 C25_63 1_555 1_555
C30_63 C9_63 1_555 1_555
O24_28 C26_63 1_555 1_555
O12_63 C26_63 1_555 1_555
S6_63 C27_63 1_555 1_555
Pb12 O25_27 1_555 1_555
Pb12_5 O24_28 1_555 1_555
C10_63 S2_63 1_555 1_555
O23_25 Pb12_9 1_555 1_555
O4_63 Pb12_9 1_555 1_555
C23_63 C24_63 1_555 1_555
C25_63 S5_63 1_555 1_555
O10_63 Pb12 1_555 1_555
C28_63 C29_63 1_555 1_555
C29_63 C30_63 1_555 1_555
C30_63 S6_63 1_555 1_555
O12_63 Pb12_5 1_555 1_555
C6_64 C7_64 1_555 1_555
C7_64 C8_64 1_555 1_555
C8_64 H2_64 1_555 1_555
O23_6 C6_64 1_555 1_555
O4_64 C6_64 1_555 1_555
S2_64 C7_64 1_555 1_555
C10_64 S2_64 1_555 1_555
O23_6 Pb11 1_555 1_555
O4_64 Pb11 1_555 1_555
C21_64 C22_64 1_555 1_555
C22_64 C23_64 1_555 1_555
C25_64 C24_64 1_555 1_555
O25_8 C21_64 1_555 1_555
O10_64 C21_64 1_555 1_555
S5_64 C22_64 1_555 1_555
C26_64 C27_64 1_555 1_555
C27_64 C28_64 1_555 1_555
C28_64 H6_64 1_555 1_555
C29_64 C25_64 1_555 1_555
C30_64 C9_64 1_555 1_555
O24_7 C26_64 1_555 1_555
O12_64 C26_64 1_555 1_555
S6_64 C27_64 1_555 1_555
Pb13_9 O25_8 1_555 1_555
Pb9_12 O24_7 1_555 1_555
C23_64 C24_64 1_555 1_555
C25_64 S5_64 1_555 1_555
O10_64 Pb13_9 1_555 1_555
C28_64 C29_64 1_555 1_555
C29_64 C30_64 1_555 1_555
C30_64 S6_64 1_555 1_555
O12_64 Pb9_12 1_555 1_555

#END
