
###############################################################################
#
# This file contains modified crystal structure data generated from the
# MOF subset of the Cambridge Structural Database (CSD) v543 
# hosted by the Cambridge Crystallographic Data Centre (CCDC).
#
# This work is licensed under the Creative Commons
# Attribution-NonCommercial-ShareAlike 4.0 International License.
# To view a copy of this license, visit
# http://creativecommons.org/licenses/by-nc-sa/4.0/
# or send a letter to
# Creative Commons, PO Box 1866, Mountain View, CA 94042, USA.
#
# CIF created using the CSD Python API on 29 September 2022
# The structure has been converted into the P1 space group
# The structure has a 3D framework
# The original CSD entry VOYBOC is in the monoclinic crystal system
# The framework has been calculated to contain at least 10.0% void space
# The void calculation uses a probe of radius 1.32A, grid spacing 0.4
#
###############################################################################

data_VOYBOC
_chemical_formula_moiety         '(C160 H128 O64 Zn18)n'
_symmetry_cell_setting           triclinic
_symmetry_space_group_name_H-M   'P 1'
_symmetry_Int_Tables_number      1
_space_group_name_Hall           'P 1'
loop_
_symmetry_equiv_pos_site_id
_symmetry_equiv_pos_as_xyz
1 x,y,z
_cell_length_a                   13.006(3)
_cell_length_b                   31.084(4)
_cell_length_c                   17.660(4)
_cell_angle_alpha                90
_cell_angle_beta                 108.39(3)
_cell_angle_gamma                90
_cell_volume                     6774.95
loop_
_atom_site_label
_atom_site_type_symbol
_atom_site_fract_x
_atom_site_fract_y
_atom_site_fract_z
O9 O 0.0053(3) 0.34308(12) 0.1622(2)
O10 O 0.1710(3) 0.32108(11) 0.16099(19)
C27 C 0.0712(4) 0.26568(16) 0.0385(3)
H20 H 0.1474 0.2658 0.0635
C28 C 0.0145(4) 0.29308(17) 0.0665(3)
C29 C 0.0627(4) 0.32128(17) 0.1345(3)
Zn9 Zn 0.0000 0.38583(2) 0.2500
Zn12 Zn 0.25019(3) 0.36089(2) 0.24310(2)
Zn1 Zn 0.0000 0.10775(2) 0.7500
Zn2 Zn 0.5000 0.11417(2) 0.7500
Zn3 Zn 0.24981(3) 0.13911(2) 0.75690(2)
O3 O 0.2250(3) 0.19451(11) 0.6710(2)
O4 O 0.0915(2) 0.14551(9) 0.70989(17)
C2 C 0.0832(4) 0.23188(16) 0.5680(3)
H1 H 0.1325 0.2503 0.5539
C3 C 0.1213(4) 0.20166(16) 0.6288(3)
C4 C 0.0494(4) 0.17381(16) 0.6493(3)
H5 H 0.0616 0.2945 0.4590
C10 C 0.3049(4) 0.22587(19) 0.6660(4)
H6 H 0.3066 0.2273 0.6110
H7 H 0.3764 0.2174 0.7015
H8 H 0.2857 0.2542 0.6821
O7 O 0.4716(3) 0.05898(12) 0.6650(2)
O8 O 0.3368(2) 0.10595(10) 0.70851(18)
C11 C 0.2177(4) 0.01704(16) 0.5250(3)
C12 C 0.3314(4) 0.02093(16) 0.5638(3)
H9 H 0.3814 0.0032 0.5490
C13 C 0.3669(4) 0.05138(16) 0.6237(3)
C14 C 0.2961(4) 0.07774(15) 0.6473(3)
C15 C 0.1855(4) 0.07292(18) 0.6097(3)
H10 H 0.1353 0.0898 0.6261
C16 C 0.1485(4) 0.04324(18) 0.5479(3)
H11 H 0.0729 0.0412 0.5208
C20 C 0.5515(4) 0.02638(17) 0.6612(3)
H15 H 0.6232 0.0347 0.6966
H16 H 0.5534 0.0242 0.6063
C21 C 0.0286(4) 0.23485(18) 0.9724(3)
C25 C 0.0607(4) 0.17797(18) 0.8899(3)
H18 H 0.1109 0.1601 0.8755
C26 C 0.0974(4) 0.20803(18) 0.9499(3)
H19 H 0.1731 0.2102 0.9766
O17 O 0.5053(3) 0.15692(12) 0.6622(2)
O18 O 0.4947(3) 0.15692(12) 0.8378(2)
O20 O 0.3290(3) 0.17892(11) 0.83901(19)
O22 O 0.2419(3) 0.09311(13) 0.8383(2)
O24 O 0.0760(3) 0.06956(11) 0.8355(2)
O25 O 0.5284(3) 0.05898(12) 0.8350(2)
O26 O 0.6632(2) 0.10595(10) 0.79149(18)
Zn6 Zn 0.0000 0.89225(2) 0.2500
O5 O 0.2419(3) 0.90689(13) 0.3383(2)
O6 O 0.0760(3) 0.93044(11) 0.3355(2)
C17 C 0.1767(4) 0.98599(17) 0.4586(3)
H12 H 0.1008 0.9863 0.4321
C18 C 0.2334(4) 0.95800(16) 0.4320(3)
H13 H 0.3094 0.9562 0.4579
C19 C 0.1832(4) 0.92933(17) 0.3632(3)
H14 H 0.5311 0.9985 0.6781
Zn11 Zn 0.24981(3) 0.86089(2) 0.25690(2)
H21 H 0.9384 0.2945 0.0410
Zn9_2 Zn 1.0000 0.38583(2) 0.2500
Zn1_2 Zn 1.0000 0.10775(2) 0.7500
O1 O 0.9947(3) 0.34308(12) 0.3378(2)
O2 O 0.8290(3) 0.32108(11) 0.33901(19)
C1 C 0.9714(4) 0.23485(18) 0.5276(3)
C5 C 0.9393(4) 0.17797(18) 0.6101(3)
H2 H 0.8891 0.1601 0.6245
C6 C 0.9026(4) 0.20803(18) 0.5501(3)
H3 H 0.8269 0.2102 0.5234
C7 C 0.9288(4) 0.26568(16) 0.4615(3)
H4 H 0.8526 0.2658 0.4365
C8 C 0.9855(4) 0.29308(17) 0.4335(3)
C9 C 0.9373(4) 0.32128(17) 0.3655(3)
Zn4 Zn 0.75019(3) 0.13911(2) 0.74310(2)
O11 O 0.7750(3) 0.19451(11) 0.8290(2)
O12 O 0.9085(2) 0.14551(9) 0.79011(17)
C22 C 0.9168(4) 0.23188(16) 0.9320(3)
H17 H 0.8675 0.2503 0.9461
C23 C 0.8787(4) 0.20166(16) 0.8712(3)
C24 C 0.9506(4) 0.17381(16) 0.8507(3)
C30 C 0.6951(4) 0.22587(19) 0.8340(4)
H22 H 0.6934 0.2273 0.8890
H23 H 0.6236 0.2174 0.7985
H24 H 0.7143 0.2542 0.8179
C31 C 0.7823(4) 0.01704(16) 0.9750(3)
C32 C 0.6686(4) 0.02093(16) 0.9362(3)
H25 H 0.6186 0.0032 0.9510
C33 C 0.6331(4) 0.05138(16) 0.8763(3)
C34 C 0.7039(4) 0.07774(15) 0.8527(3)
C35 C 0.8145(4) 0.07292(18) 0.8903(3)
H26 H 0.8647 0.0898 0.8739
C36 C 0.8515(4) 0.04324(18) 0.9521(3)
H27 H 0.9271 0.0412 0.9792
C40 C 0.4485(4) 0.02638(17) 0.8388(3)
H31 H 0.3768 0.0347 0.8034
H32 H 0.4466 0.0242 0.8937
Zn13 Zn 0.74981(3) 0.36089(2) 0.25690(2)
O19 O 0.6710(3) 0.17892(11) 0.66099(19)
O21 O 0.7581(3) 0.09311(13) 0.6617(2)
O23 O 0.9240(3) 0.06956(11) 0.6645(2)
O13 O 0.7581(3) 0.90689(13) 0.1617(2)
O14 O 0.9240(3) 0.93044(11) 0.1645(2)
C37 C 0.8233(4) 0.98599(17) 0.0414(3)
H28 H 0.8992 0.9863 0.0679
C38 C 0.7666(4) 0.95800(16) 0.0680(3)
H29 H 0.6906 0.9562 0.0421
C39 C 0.8168(4) 0.92933(17) 0.1368(3)
Zn6_2 Zn 1.0000 0.89225(2) 0.2500
Zn10 Zn 0.75019(3) 0.86089(2) 0.24310(2)
H30 H 0.4689 0.9985 0.8219
Zn2_2 Zn -0.0000 0.61417(2) 0.7500
C20_2 C 0.0515(4) 0.52638(17) 0.6612(3)
H14_2 H 0.0311 0.4985 0.6781
H15_2 H 0.1232 0.5347 0.6966
H16_2 H 0.0534 0.5242 0.6063
O17_2 O 0.0053(3) 0.65692(12) 0.6622(2)
O25_2 O 0.0284(3) 0.55898(12) 0.8350(2)
O26_2 O 0.1632(2) 0.60595(10) 0.79149(18)
O9_2 O 0.5053(3) 0.84308(12) 0.1622(2)
O10_2 O 0.6710(3) 0.82108(11) 0.16099(19)
C27_2 C 0.5712(4) 0.76568(16) 0.0385(3)
H20_2 H 0.6474 0.7658 0.0635
C28_2 C 0.5145(4) 0.79308(17) 0.0665(3)
H21_2 H 0.4384 0.7945 0.0410
C29_2 C 0.5627(4) 0.82128(17) 0.1345(3)
O13_2 O 0.2581(3) 0.40689(13) 0.1617(2)
O14_2 O 0.4240(3) 0.43044(11) 0.1645(2)
C37_2 C 0.3233(4) 0.48599(17) 0.0414(3)
H28_2 H 0.3992 0.4863 0.0679
C38_2 C 0.2666(4) 0.45800(16) 0.0680(3)
H29_2 H 0.1906 0.4562 0.0421
C39_2 C 0.3168(4) 0.42933(17) 0.1368(3)
Zn6_3 Zn 0.5000 0.39225(2) 0.2500
Zn9_3 Zn 0.5000 0.88583(2) 0.2500
Zn1_3 Zn 0.5000 0.60775(2) 0.7500
Zn2_3 Zn 1.0000 0.61417(2) 0.7500
Zn3_2 Zn 0.74981(3) 0.63911(2) 0.75690(2)
O1_2 O 0.4947(3) 0.84308(12) 0.3378(2)
O2_2 O 0.3290(3) 0.82108(11) 0.33901(19)
O3_2 O 0.7250(3) 0.69451(11) 0.6710(2)
O4_2 O 0.5915(2) 0.64551(9) 0.70989(17)
C1_2 C 0.4714(4) 0.73485(18) 0.5276(3)
C2_2 C 0.5832(4) 0.73188(16) 0.5680(3)
H1_2 H 0.6325 0.7503 0.5539
C3_2 C 0.6213(4) 0.70166(16) 0.6288(3)
C4_2 C 0.5494(4) 0.67381(16) 0.6493(3)
C5_2 C 0.4393(4) 0.67797(18) 0.6101(3)
H2_2 H 0.3891 0.6601 0.6245
C6_2 C 0.4026(4) 0.70803(18) 0.5501(3)
H3_2 H 0.3269 0.7102 0.5234
C7_2 C 0.4288(4) 0.76568(16) 0.4615(3)
H4_2 H 0.3526 0.7658 0.4365
C8_2 C 0.4855(4) 0.79308(17) 0.4335(3)
H5_2 H 0.5616 0.7945 0.4590
C9_2 C 0.4373(4) 0.82128(17) 0.3655(3)
C10_2 C 0.8049(4) 0.72587(19) 0.6660(4)
H6_2 H 0.8066 0.7273 0.6110
H7_2 H 0.8764 0.7174 0.7015
H8_2 H 0.7857 0.7542 0.6821
O5_2 O 0.7419(3) 0.40689(13) 0.3383(2)
O6_2 O 0.5760(3) 0.43044(11) 0.3355(2)
O7_2 O 0.9716(3) 0.55898(12) 0.6650(2)
O8_2 O 0.8368(2) 0.60595(10) 0.70851(18)
C11_2 C 0.7177(4) 0.51704(16) 0.5250(3)
C12_2 C 0.8314(4) 0.52093(16) 0.5638(3)
H9_2 H 0.8814 0.5032 0.5490
C13_2 C 0.8669(4) 0.55138(16) 0.6237(3)
C14_2 C 0.7961(4) 0.57774(15) 0.6473(3)
C15_2 C 0.6855(4) 0.57292(18) 0.6097(3)
H10_2 H 0.6353 0.5898 0.6261
C16_2 C 0.6485(4) 0.54324(18) 0.5479(3)
H11_2 H 0.5729 0.5412 0.5208
C17_2 C 0.6767(4) 0.48599(17) 0.4586(3)
H12_2 H 0.6008 0.4863 0.4321
C18_2 C 0.7334(4) 0.45800(16) 0.4320(3)
H13_2 H 0.8094 0.4562 0.4579
C19_2 C 0.6832(4) 0.42933(17) 0.3632(3)
Zn4_2 Zn 0.25019(3) 0.63911(2) 0.74310(2)
O11_2 O 0.2750(3) 0.69451(11) 0.8290(2)
O12_2 O 0.4085(2) 0.64551(9) 0.79011(17)
C21_2 C 0.5286(4) 0.73485(18) 0.9724(3)
C22_2 C 0.4168(4) 0.73188(16) 0.9320(3)
H17_2 H 0.3675 0.7503 0.9461
C23_2 C 0.3787(4) 0.70166(16) 0.8712(3)
C24_2 C 0.4506(4) 0.67381(16) 0.8507(3)
C25_2 C 0.5607(4) 0.67797(18) 0.8899(3)
H18_2 H 0.6109 0.6601 0.8755
C26_2 C 0.5974(4) 0.70803(18) 0.9499(3)
H19_2 H 0.6731 0.7102 0.9766
C30_2 C 0.1951(4) 0.72587(19) 0.8340(4)
H22_2 H 0.1934 0.7273 0.8890
H23_2 H 0.1236 0.7174 0.7985
H24_2 H 0.2143 0.7542 0.8179
C31_2 C 0.2823(4) 0.51704(16) 0.9750(3)
C32_2 C 0.1686(4) 0.52093(16) 0.9362(3)
H25_2 H 0.1186 0.5032 0.9510
C33_2 C 0.1331(4) 0.55138(16) 0.8763(3)
C34_2 C 0.2039(4) 0.57774(15) 0.8527(3)
C35_2 C 0.3145(4) 0.57292(18) 0.8903(3)
H26_2 H 0.3647 0.5898 0.8739
C36_2 C 0.3515(4) 0.54324(18) 0.9521(3)
H27_2 H 0.4271 0.5412 0.9792
O18_2 O 0.9947(3) 0.65692(12) 0.8378(2)
O19_2 O 0.1710(3) 0.67892(11) 0.66099(19)
O20_2 O 0.8290(3) 0.67892(11) 0.83901(19)
O21_2 O 0.2581(3) 0.59311(13) 0.6617(2)
O22_2 O 0.7419(3) 0.59311(13) 0.8383(2)
O23_2 O 0.4240(3) 0.56956(11) 0.6645(2)
O24_2 O 0.5760(3) 0.56956(11) 0.8355(2)
C40_2 C 0.9485(4) 0.52638(17) 0.8388(3)
H30_2 H 0.9689 0.4985 0.8219
H31_2 H 0.8768 0.5347 0.8034
H32_2 H 0.9466 0.5242 0.8937
H30_3 H 0.5311 0.0015 0.1781
C37_3 C 0.1767(4) 0.01401(17) 0.9586(3)
H28_3 H 0.1008 0.0137 0.9321
C38_3 C 0.2334(4) 0.04200(16) 0.9320(3)
H29_3 H 0.3094 0.0438 0.9579
C39_3 C 0.1832(4) 0.07067(17) 0.8632(3)
C1_3 C 0.0286(4) 0.76515(18) 0.4724(3)
C5_3 C 0.0607(4) 0.82203(18) 0.3899(3)
H2_3 H 0.1109 0.8399 0.3755
C6_3 C 0.0974(4) 0.79197(18) 0.4499(3)
H3_3 H 0.1731 0.7898 0.4766
C7_3 C 0.0712(4) 0.73432(16) 0.5385(3)
H4_3 H 0.1474 0.7342 0.5635
C8_3 C 0.0145(4) 0.70692(17) 0.5665(3)
C9_3 C 0.0627(4) 0.67872(17) 0.6345(3)
O11_3 O 0.2250(3) 0.80549(11) 0.1710(2)
O12_3 O 0.0915(2) 0.85449(9) 0.20989(17)
C22_3 C 0.0832(4) 0.76812(16) 0.0680(3)
H17_3 H 0.1325 0.7497 0.0539
C23_3 C 0.1213(4) 0.79834(16) 0.1288(3)
C24_3 C 0.0494(4) 0.82619(16) 0.1493(3)
C30_3 C 0.3049(4) 0.77413(19) 0.1660(4)
H22_3 H 0.3066 0.7727 0.1110
H23_3 H 0.3764 0.7826 0.2015
H24_3 H 0.2857 0.7458 0.1821
O15 O 0.4716(3) 0.94102(12) 0.1650(2)
O16 O 0.3368(2) 0.89405(10) 0.20851(18)
C31_3 C 0.2177(4) 0.98296(16) 0.0250(3)
C32_3 C 0.3314(4) 0.97907(16) 0.0638(3)
H25_3 H 0.3814 0.9968 0.0490
C33_3 C 0.3669(4) 0.94862(16) 0.1237(3)
C34_3 C 0.2961(4) 0.92226(15) 0.1473(3)
C35_3 C 0.1855(4) 0.92708(18) 0.1097(3)
H26_3 H 0.1353 0.9102 0.1261
C36_3 C 0.1485(4) 0.95676(18) 0.0479(3)
H27_3 H 0.0729 0.9588 0.0208
C40_3 C 0.5515(4) 0.97362(17) 0.1612(3)
H31_3 H 0.6232 0.9653 0.1966
H32_3 H 0.5534 0.9758 0.1063
H21_3 H 0.0616 0.7055 0.9590
C17_3 C 0.8233(4) 0.01401(17) 0.5414(3)
H12_3 H 0.8992 0.0137 0.5679
C18_3 C 0.7666(4) 0.04200(16) 0.5680(3)
H13_3 H 0.6906 0.0438 0.5421
C19_3 C 0.8168(4) 0.07067(17) 0.6368(3)
H14_3 H 0.4689 0.0015 0.3219
O3_3 O 0.7750(3) 0.80549(11) 0.3290(2)
O4_3 O 0.9085(2) 0.85449(9) 0.29011(17)
C2_3 C 0.9168(4) 0.76812(16) 0.4320(3)
H1_3 H 0.8675 0.7497 0.4461
C3_3 C 0.8787(4) 0.79834(16) 0.3712(3)
C4_3 C 0.9506(4) 0.82619(16) 0.3507(3)
H5_3 H 0.9384 0.7055 0.5410
C10_3 C 0.6951(4) 0.77413(19) 0.3340(4)
H6_3 H 0.6934 0.7727 0.3890
H7_3 H 0.6236 0.7826 0.2985
H8_3 H 0.7143 0.7458 0.3179
O7_3 O 0.5284(3) 0.94102(12) 0.3350(2)
O8_3 O 0.6632(2) 0.89405(10) 0.29149(18)
C11_3 C 0.7823(4) 0.98296(16) 0.4750(3)
C12_3 C 0.6686(4) 0.97907(16) 0.4362(3)
H9_3 H 0.6186 0.9968 0.4510
C13_3 C 0.6331(4) 0.94862(16) 0.3763(3)
C14_3 C 0.7039(4) 0.92226(15) 0.3527(3)
C15_3 C 0.8145(4) 0.92708(18) 0.3903(3)
H10_3 H 0.8647 0.9102 0.3739
C16_3 C 0.8515(4) 0.95676(18) 0.4521(3)
H11_3 H 0.9271 0.9588 0.4792
C20_3 C 0.4485(4) 0.97362(17) 0.3388(3)
H15_3 H 0.3768 0.9653 0.3034
H16_3 H 0.4466 0.9758 0.3937
C21_3 C 0.9714(4) 0.76515(18) 0.0276(3)
C25_3 C 0.9393(4) 0.82203(18) 0.1101(3)
H18_3 H 0.8891 0.8399 0.1245
C26_3 C 0.9026(4) 0.79197(18) 0.0501(3)
H19_3 H 0.8269 0.7898 0.0234
C27_3 C 0.9288(4) 0.73432(16) 0.9615(3)
H20_3 H 0.8526 0.7342 0.9365
C28_3 C 0.9855(4) 0.70692(17) 0.9335(3)
C29_3 C 0.9373(4) 0.67872(17) 0.8655(3)
C40_4 C 0.0515(4) 0.47362(17) 0.1612(3)
H30_4 H 0.0311 0.5015 0.1781
H31_4 H 0.1232 0.4653 0.1966
H32_4 H 0.0534 0.4758 0.1063
O3_4 O 0.2750(3) 0.30549(11) 0.3290(2)
O4_4 O 0.4085(2) 0.35449(9) 0.29011(17)
C1_4 C 0.5286(4) 0.26515(18) 0.4724(3)
C2_4 C 0.4168(4) 0.26812(16) 0.4320(3)
H1_4 H 0.3675 0.2497 0.4461
C3_4 C 0.3787(4) 0.29834(16) 0.3712(3)
C4_4 C 0.4506(4) 0.32619(16) 0.3507(3)
C5_4 C 0.5607(4) 0.32203(18) 0.3899(3)
H2_4 H 0.6109 0.3399 0.3755
C6_4 C 0.5974(4) 0.29197(18) 0.4499(3)
H3_4 H 0.6731 0.2898 0.4766
C7_4 C 0.5712(4) 0.23432(16) 0.5385(3)
H4_4 H 0.6474 0.2342 0.5635
C8_4 C 0.5145(4) 0.20692(17) 0.5665(3)
H5_4 H 0.4384 0.2055 0.5410
C9_4 C 0.5627(4) 0.17872(17) 0.6345(3)
C10_4 C 0.1951(4) 0.27413(19) 0.3340(4)
H6_4 H 0.1934 0.2727 0.3890
H7_4 H 0.1236 0.2826 0.2985
H8_4 H 0.2143 0.2458 0.3179
O7_4 O 0.0284(3) 0.44102(12) 0.3350(2)
O8_4 O 0.1632(2) 0.39405(10) 0.29149(18)
C11_4 C 0.2823(4) 0.48296(16) 0.4750(3)
C12_4 C 0.1686(4) 0.47907(16) 0.4362(3)
H9_4 H 0.1186 0.4968 0.4510
C13_4 C 0.1331(4) 0.44862(16) 0.3763(3)
C14_4 C 0.2039(4) 0.42226(15) 0.3527(3)
C15_4 C 0.3145(4) 0.42708(18) 0.3903(3)
H10_4 H 0.3647 0.4102 0.3739
C16_4 C 0.3515(4) 0.45676(18) 0.4521(3)
H11_4 H 0.4271 0.4588 0.4792
C17_4 C 0.3233(4) 0.51401(17) 0.5414(3)
H12_4 H 0.3992 0.5137 0.5679
C18_4 C 0.2666(4) 0.54200(16) 0.5680(3)
H13_4 H 0.1906 0.5438 0.5421
C19_4 C 0.3168(4) 0.57067(17) 0.6368(3)
O11_4 O 0.7250(3) 0.30549(11) 0.1710(2)
O12_4 O 0.5915(2) 0.35449(9) 0.20989(17)
C21_4 C 0.4714(4) 0.26515(18) 0.0276(3)
C22_4 C 0.5832(4) 0.26812(16) 0.0680(3)
H17_4 H 0.6325 0.2497 0.0539
C23_4 C 0.6213(4) 0.29834(16) 0.1288(3)
C24_4 C 0.5494(4) 0.32619(16) 0.1493(3)
C25_4 C 0.4393(4) 0.32203(18) 0.1101(3)
H18_4 H 0.3891 0.3399 0.1245
C26_4 C 0.4026(4) 0.29197(18) 0.0501(3)
H19_4 H 0.3269 0.2898 0.0234
C30_4 C 0.8049(4) 0.27413(19) 0.1660(4)
H22_4 H 0.8066 0.2727 0.1110
H23_4 H 0.8764 0.2826 0.2015
H24_4 H 0.7857 0.2458 0.1821
O15_2 O 0.9716(3) 0.44102(12) 0.1650(2)
O16_2 O 0.8368(2) 0.39405(10) 0.20851(18)
C31_4 C 0.7177(4) 0.48296(16) 0.0250(3)
C32_4 C 0.8314(4) 0.47907(16) 0.0638(3)
H25_4 H 0.8814 0.4968 0.0490
C33_4 C 0.8669(4) 0.44862(16) 0.1237(3)
C34_4 C 0.7961(4) 0.42226(15) 0.1473(3)
C35_4 C 0.6855(4) 0.42708(18) 0.1097(3)
H26_4 H 0.6353 0.4102 0.1261
C36_4 C 0.6485(4) 0.45676(18) 0.0479(3)
H27_4 H 0.5729 0.4588 0.0208
C27_4 C 0.4288(4) 0.23432(16) 0.9615(3)
H20_4 H 0.3526 0.2342 0.9365
C28_4 C 0.4855(4) 0.20692(17) 0.9335(3)
H21_4 H 0.5616 0.2055 0.9590
C29_4 C 0.4373(4) 0.17872(17) 0.8655(3)
C37_4 C 0.6767(4) 0.51401(17) 0.9586(3)
H28_4 H 0.6008 0.5137 0.9321
C38_4 C 0.7334(4) 0.54200(16) 0.9320(3)
H29_4 H 0.8094 0.5438 0.9579
C39_4 C 0.6832(4) 0.57067(17) 0.8632(3)
C20_4 C 0.9485(4) 0.47362(17) 0.3388(3)
H14_4 H 0.9689 0.5015 0.3219
H15_4 H 0.8768 0.4653 0.3034
H16_4 H 0.9466 0.4758 0.3937
loop_
_geom_bond_atom_site_label_1
_geom_bond_atom_site_label_2
_geom_bond_site_symmetry_1
_geom_bond_site_symmetry_2
O9 C29 1_555 1_555
O10 C29 1_555 1_555
H20 C27 1_555 1_555
C28 C27 1_555 1_555
C29 C28 1_555 1_555
Zn9 O9 1_555 1_555
Zn12 O10 1_555 1_555
Zn1 O4 1_555 1_555
Zn2 O7 1_555 1_555
Zn3 O3 1_555 1_555
O3 C3 1_555 1_555
O4 Zn3 1_555 1_555
C2 H1 1_555 1_555
C3 C2 1_555 1_555
C4 O4 1_555 1_555
C10 O3 1_555 1_555
H6 C10 1_555 1_555
H7 C10 1_555 1_555
H8 C10 1_555 1_555
O7 C13 1_555 1_555
O8 Zn2 1_555 1_555
C11 C12 1_555 1_555
C12 H9 1_555 1_555
C13 C12 1_555 1_555
C14 O8 1_555 1_555
C15 C14 1_555 1_555
H10 C15 1_555 1_555
C16 C11 1_555 1_555
H11 C16 1_555 1_555
C20 O7 1_555 1_555
H15 C20 1_555 1_555
H16 C20 1_555 1_555
H18 C25 1_555 1_555
C26 C21 1_555 1_555
H19 C26 1_555 1_555
O17 Zn2 1_555 1_555
O18 Zn2 1_555 1_555
O20 Zn3 1_555 1_555
O22 Zn3 1_555 1_555
O24 Zn1 1_555 1_555
O25 Zn2 1_555 1_555
O26 Zn2 1_555 1_555
Zn3 O8 1_555 1_555
C3 C4 1_555 1_555
C13 C14 1_555 1_555
C15 C16 1_555 1_555
C25 C26 1_555 1_555
O5 C19 1_555 1_555
O6 C19 1_555 1_555
H12 C17 1_555 1_555
C18 C17 1_555 1_555
H13 C18 1_555 1_555
C19 C18 1_555 1_555
Zn6 O6 1_555 1_555
Zn11 O5 1_555 1_555
O1 C9 1_555 1_555
O2 C9 1_555 1_555
H2 C5 1_555 1_555
C6 C1 1_555 1_555
H3 C6 1_555 1_555
C7 C1 1_555 1_555
H4 C7 1_555 1_555
C8 C7 1_555 1_555
C9 C8 1_555 1_555
Zn4 O11 1_555 1_555
O11 C23 1_555 1_555
O12 Zn1_2 1_555 1_555
C22 H17 1_555 1_555
C23 C22 1_555 1_555
C24 O12 1_555 1_555
C30 O11 1_555 1_555
H22 C30 1_555 1_555
H23 C30 1_555 1_555
H24 C30 1_555 1_555
O25 C33 1_555 1_555
O26 Zn4 1_555 1_555
C31 C32 1_555 1_555
C32 H25 1_555 1_555
C33 C32 1_555 1_555
C34 O26 1_555 1_555
C35 C34 1_555 1_555
H26 C35 1_555 1_555
C36 C31 1_555 1_555
H27 C36 1_555 1_555
C40 O25 1_555 1_555
H31 C40 1_555 1_555
H32 C40 1_555 1_555
Zn9_2 O1 1_555 1_555
Zn13 O2 1_555 1_555
O19 Zn4 1_555 1_555
O21 Zn4 1_555 1_555
O23 Zn1_2 1_555 1_555
C5 C6 1_555 1_555
Zn4 O12 1_555 1_555
C23 C24 1_555 1_555
C33 C34 1_555 1_555
C35 C36 1_555 1_555
O13 C39 1_555 1_555
O14 C39 1_555 1_555
H28 C37 1_555 1_555
C38 C37 1_555 1_555
H29 C38 1_555 1_555
C39 C38 1_555 1_555
Zn6_2 O14 1_555 1_555
Zn10 O13 1_555 1_555
H14_2 C20_2 1_555 1_555
H15_2 C20_2 1_555 1_555
H16_2 C20_2 1_555 1_555
O17_2 Zn2_2 1_555 1_555
O25_2 Zn2_2 1_555 1_555
O26_2 Zn2_2 1_555 1_555
O9_2 C29_2 1_555 1_555
O10_2 C29_2 1_555 1_555
H20_2 C27_2 1_555 1_555
C28_2 C27_2 1_555 1_555
H21_2 C28_2 1_555 1_555
C29_2 C28_2 1_555 1_555
O13_2 C39_2 1_555 1_555
O14_2 C39_2 1_555 1_555
H28_2 C37_2 1_555 1_555
C38_2 C37_2 1_555 1_555
H29_2 C38_2 1_555 1_555
C39_2 C38_2 1_555 1_555
Zn6_3 O14_2 1_555 1_555
Zn9_3 O9_2 1_555 1_555
Zn12 O13_2 1_555 1_555
Zn10 O10_2 1_555 1_555
Zn1_3 O4_2 1_555 1_555
Zn2_3 O7_2 1_555 1_555
Zn3_2 O3_2 1_555 1_555
O1_2 C9_2 1_555 1_555
O2_2 C9_2 1_555 1_555
O3_2 C3_2 1_555 1_555
O4_2 Zn3_2 1_555 1_555
C1_2 C2_2 1_555 1_555
C2_2 H1_2 1_555 1_555
C3_2 C2_2 1_555 1_555
C4_2 O4_2 1_555 1_555
C5_2 C4_2 1_555 1_555
H2_2 C5_2 1_555 1_555
C6_2 C1_2 1_555 1_555
H3_2 C6_2 1_555 1_555
C7_2 C1_2 1_555 1_555
H4_2 C7_2 1_555 1_555
C8_2 C7_2 1_555 1_555
H5_2 C8_2 1_555 1_555
C9_2 C8_2 1_555 1_555
C10_2 O3_2 1_555 1_555
H6_2 C10_2 1_555 1_555
H7_2 C10_2 1_555 1_555
H8_2 C10_2 1_555 1_555
O5_2 C19_2 1_555 1_555
O6_2 C19_2 1_555 1_555
O7_2 C13_2 1_555 1_555
O8_2 Zn2_3 1_555 1_555
C11_2 C12_2 1_555 1_555
C12_2 H9_2 1_555 1_555
C13_2 C12_2 1_555 1_555
C14_2 O8_2 1_555 1_555
C15_2 C14_2 1_555 1_555
H10_2 C15_2 1_555 1_555
C16_2 C11_2 1_555 1_555
H11_2 C16_2 1_555 1_555
C17_2 C11_2 1_555 1_555
H12_2 C17_2 1_555 1_555
C18_2 C17_2 1_555 1_555
H13_2 C18_2 1_555 1_555
C19_2 C18_2 1_555 1_555
Zn4_2 O11_2 1_555 1_555
O11_2 C23_2 1_555 1_555
O12_2 Zn1_3 1_555 1_555
C21_2 C22_2 1_555 1_555
C22_2 H17_2 1_555 1_555
C23_2 C22_2 1_555 1_555
C24_2 O12_2 1_555 1_555
C25_2 C24_2 1_555 1_555
H18_2 C25_2 1_555 1_555
C26_2 C21_2 1_555 1_555
H19_2 C26_2 1_555 1_555
C30_2 O11_2 1_555 1_555
H22_2 C30_2 1_555 1_555
H23_2 C30_2 1_555 1_555
H24_2 C30_2 1_555 1_555
O25_2 C33_2 1_555 1_555
O26_2 Zn4_2 1_555 1_555
C31_2 C32_2 1_555 1_555
C32_2 H25_2 1_555 1_555
C33_2 C32_2 1_555 1_555
C34_2 O26_2 1_555 1_555
C35_2 C34_2 1_555 1_555
H26_2 C35_2 1_555 1_555
C36_2 C31_2 1_555 1_555
H27_2 C36_2 1_555 1_555
Zn6_3 O6_2 1_555 1_555
Zn9_3 O1_2 1_555 1_555
Zn13 O5_2 1_555 1_555
Zn11 O2_2 1_555 1_555
O18_2 Zn2_3 1_555 1_555
O19_2 Zn4_2 1_555 1_555
O20_2 Zn3_2 1_555 1_555
O21_2 Zn4_2 1_555 1_555
O22_2 Zn3_2 1_555 1_555
O23_2 Zn1_3 1_555 1_555
O24_2 Zn1_3 1_555 1_555
Zn3_2 O8_2 1_555 1_555
C3_2 C4_2 1_555 1_555
C5_2 C6_2 1_555 1_555
C13_2 C14_2 1_555 1_555
C15_2 C16_2 1_555 1_555
Zn4_2 O12_2 1_555 1_555
C23_2 C24_2 1_555 1_555
C25_2 C26_2 1_555 1_555
C33_2 C34_2 1_555 1_555
C35_2 C36_2 1_555 1_555
H30_2 C40_2 1_555 1_555
H31_2 C40_2 1_555 1_555
H32_2 C40_2 1_555 1_555
O22 C39_3 1_555 1_555
O24 C39_3 1_555 1_555
H28_3 C37_3 1_555 1_555
C38_3 C37_3 1_555 1_555
H29_3 C38_3 1_555 1_555
C39_3 C38_3 1_555 1_555
O17_2 C9_3 1_555 1_555
O19_2 C9_3 1_555 1_555
H2_3 C5_3 1_555 1_555
C6_3 C1_3 1_555 1_555
H3_3 C6_3 1_555 1_555
C7_3 C1_3 1_555 1_555
H4_3 C7_3 1_555 1_555
C8_3 C7_3 1_555 1_555
C9_3 C8_3 1_555 1_555
Zn11 O11_3 1_555 1_555
O11_3 C23_3 1_555 1_555
O12_3 Zn6 1_555 1_555
C22_3 H17_3 1_555 1_555
C23_3 C22_3 1_555 1_555
C24_3 O12_3 1_555 1_555
C30_3 O11_3 1_555 1_555
H22_3 C30_3 1_555 1_555
H23_3 C30_3 1_555 1_555
H24_3 C30_3 1_555 1_555
O15 C33_3 1_555 1_555
O16 Zn11 1_555 1_555
C31_3 C32_3 1_555 1_555
C32_3 H25_3 1_555 1_555
C33_3 C32_3 1_555 1_555
C34_3 O16 1_555 1_555
C35_3 C34_3 1_555 1_555
H26_3 C35_3 1_555 1_555
C36_3 C31_3 1_555 1_555
H27_3 C36_3 1_555 1_555
C40_3 O15 1_555 1_555
H31_3 C40_3 1_555 1_555
H32_3 C40_3 1_555 1_555
Zn9_3 O15 1_555 1_555
C5_3 C6_3 1_555 1_555
Zn11 O12_3 1_555 1_555
C23_3 C24_3 1_555 1_555
O16 Zn9_3 1_555 1_555
C33_3 C34_3 1_555 1_555
C35_3 C36_3 1_555 1_555
O21 C19_3 1_555 1_555
O23 C19_3 1_555 1_555
H12_3 C17_3 1_555 1_555
C18_3 C17_3 1_555 1_555
H13_3 C18_3 1_555 1_555
C19_3 C18_3 1_555 1_555
Zn6_2 O4_3 1_555 1_555
Zn9_3 O7_3 1_555 1_555
Zn10 O3_3 1_555 1_555
O3_3 C3_3 1_555 1_555
O4_3 Zn10 1_555 1_555
C2_3 H1_3 1_555 1_555
C3_3 C2_3 1_555 1_555
C4_3 O4_3 1_555 1_555
C10_3 O3_3 1_555 1_555
H6_3 C10_3 1_555 1_555
H7_3 C10_3 1_555 1_555
H8_3 C10_3 1_555 1_555
O7_3 C13_3 1_555 1_555
O8_3 Zn9_3 1_555 1_555
C11_3 C12_3 1_555 1_555
C12_3 H9_3 1_555 1_555
C13_3 C12_3 1_555 1_555
C14_3 O8_3 1_555 1_555
C15_3 C14_3 1_555 1_555
H10_3 C15_3 1_555 1_555
C16_3 C11_3 1_555 1_555
H11_3 C16_3 1_555 1_555
C20_3 O7_3 1_555 1_555
H15_3 C20_3 1_555 1_555
H16_3 C20_3 1_555 1_555
H18_3 C25_3 1_555 1_555
C26_3 C21_3 1_555 1_555
H19_3 C26_3 1_555 1_555
Zn10 O8_3 1_555 1_555
C3_3 C4_3 1_555 1_555
C13_3 C14_3 1_555 1_555
C15_3 C16_3 1_555 1_555
C25_3 C26_3 1_555 1_555
O18_2 C29_3 1_555 1_555
O20_2 C29_3 1_555 1_555
H20_3 C27_3 1_555 1_555
C28_3 C27_3 1_555 1_555
C29_3 C28_3 1_555 1_555
H30_4 C40_4 1_555 1_555
H31_4 C40_4 1_555 1_555
H32_4 C40_4 1_555 1_555
Zn6_3 O4_4 1_555 1_555
Zn9 O7_4 1_555 1_555
Zn12 O3_4 1_555 1_555
O17 C9_4 1_555 1_555
O19 C9_4 1_555 1_555
O3_4 C3_4 1_555 1_555
O4_4 Zn12 1_555 1_555
C1_4 C2_4 1_555 1_555
C2_4 H1_4 1_555 1_555
C3_4 C2_4 1_555 1_555
C4_4 O4_4 1_555 1_555
C5_4 C4_4 1_555 1_555
H2_4 C5_4 1_555 1_555
C6_4 C1_4 1_555 1_555
H3_4 C6_4 1_555 1_555
C7_4 C1_4 1_555 1_555
H4_4 C7_4 1_555 1_555
C8_4 C7_4 1_555 1_555
H5_4 C8_4 1_555 1_555
C9_4 C8_4 1_555 1_555
C10_4 O3_4 1_555 1_555
H6_4 C10_4 1_555 1_555
H7_4 C10_4 1_555 1_555
H8_4 C10_4 1_555 1_555
O21_2 C19_4 1_555 1_555
O23_2 C19_4 1_555 1_555
O7_4 C13_4 1_555 1_555
O8_4 Zn9 1_555 1_555
C11_4 C12_4 1_555 1_555
C12_4 H9_4 1_555 1_555
C13_4 C12_4 1_555 1_555
C14_4 O8_4 1_555 1_555
C15_4 C14_4 1_555 1_555
H10_4 C15_4 1_555 1_555
C16_4 C11_4 1_555 1_555
H11_4 C16_4 1_555 1_555
C17_4 C11_4 1_555 1_555
H12_4 C17_4 1_555 1_555
C18_4 C17_4 1_555 1_555
H13_4 C18_4 1_555 1_555
C19_4 C18_4 1_555 1_555
Zn13 O11_4 1_555 1_555
O11_4 C23_4 1_555 1_555
O12_4 Zn6_3 1_555 1_555
C21_4 C22_4 1_555 1_555
C22_4 H17_4 1_555 1_555
C23_4 C22_4 1_555 1_555
C24_4 O12_4 1_555 1_555
C25_4 C24_4 1_555 1_555
H18_4 C25_4 1_555 1_555
C26_4 C21_4 1_555 1_555
H19_4 C26_4 1_555 1_555
C30_4 O11_4 1_555 1_555
H22_4 C30_4 1_555 1_555
H23_4 C30_4 1_555 1_555
H24_4 C30_4 1_555 1_555
O15_2 C33_4 1_555 1_555
O16_2 Zn13 1_555 1_555
C31_4 C32_4 1_555 1_555
C32_4 H25_4 1_555 1_555
C33_4 C32_4 1_555 1_555
C34_4 O16_2 1_555 1_555
C35_4 C34_4 1_555 1_555
H26_4 C35_4 1_555 1_555
C36_4 C31_4 1_555 1_555
H27_4 C36_4 1_555 1_555
Zn9_2 O15_2 1_555 1_555
Zn12 O8_4 1_555 1_555
C3_4 C4_4 1_555 1_555
C5_4 C6_4 1_555 1_555
C13_4 C14_4 1_555 1_555
C15_4 C16_4 1_555 1_555
Zn13 O12_4 1_555 1_555
C23_4 C24_4 1_555 1_555
C25_4 C26_4 1_555 1_555
O16_2 Zn9_2 1_555 1_555
C33_4 C34_4 1_555 1_555
C35_4 C36_4 1_555 1_555
O18 C29_4 1_555 1_555
O20 C29_4 1_555 1_555
H20_4 C27_4 1_555 1_555
C28_4 C27_4 1_555 1_555
H21_4 C28_4 1_555 1_555
C29_4 C28_4 1_555 1_555
O22_2 C39_4 1_555 1_555
O24_2 C39_4 1_555 1_555
H28_4 C37_4 1_555 1_555
C38_4 C37_4 1_555 1_555
H29_4 C38_4 1_555 1_555
C39_4 C38_4 1_555 1_555
H14_4 C20_4 1_555 1_555
H15_4 C20_4 1_555 1_555
H16_4 C20_4 1_555 1_555

#END
