
###############################################################################
#
# This file contains modified crystal structure data generated from the
# MOF subset of the Cambridge Structural Database (CSD) v543 
# hosted by the Cambridge Crystallographic Data Centre (CCDC).
#
# This work is licensed under the Creative Commons
# Attribution-NonCommercial-ShareAlike 4.0 International License.
# To view a copy of this license, visit
# http://creativecommons.org/licenses/by-nc-sa/4.0/
# or send a letter to
# Creative Commons, PO Box 1866, Mountain View, CA 94042, USA.
#
# CIF created using the CSD Python API on 29 September 2022
# The structure has been converted into the P1 space group
# The structure has a 3D framework
# The original CSD entry VOYLUS is in the monoclinic crystal system
# The framework has been calculated to contain at least 10.0% void space
# The void calculation uses a probe of radius 1.32A, grid spacing 0.4
# The framework is charged, counterions have been retained in the structure
#
###############################################################################

data_VOYLUS
_chemical_formula_moiety         '(C184 H128 Ag4 F24 N16 P4)n'
_symmetry_cell_setting           triclinic
_symmetry_space_group_name_H-M   'P 1'
_symmetry_Int_Tables_number      1
_space_group_name_Hall           'P 1'
loop_
_symmetry_equiv_pos_site_id
_symmetry_equiv_pos_as_xyz
1 x,y,z
_cell_length_a                   16.0971(10)
_cell_length_b                   19.5272(13)
_cell_length_c                   14.4098(9)
_cell_angle_alpha                90
_cell_angle_beta                 101.346(2)
_cell_angle_gamma                90
_cell_volume                     4440.93
loop_
_atom_site_label
_atom_site_type_symbol
_atom_site_fract_x
_atom_site_fract_y
_atom_site_fract_z
H18 H 0.2464 0.0206 0.0424
H25 H 0.3373 0.1158 0.0189
C31 C 0.2533(2) 0.01793(18) 0.9032(3)
C35 C 0.2643(2) 0.09239(18) 0.8906(3)
C38 C 0.2260(2) 0.12369(19) 0.8069(3)
C39 C 0.3099(3) 0.1344(2) 0.9599(3)
H24 H 0.1936 0.0957 0.7591
C43 C 0.3152(3) 0.2038(2) 0.9423(3)
C45 C 0.2760(3) 0.2298(2) 0.8569(3)
H29 H 0.3459 0.2332 0.9894
H31 H 0.2806 0.2775 0.8458
N6 N 0.2314(2) 0.19107(16) 0.7883(2)
Ag3 Ag 0.205072(19) 0.213842(16) 0.62341(2)
Ag1 Ag 0.205072(19) 0.286158(16) 0.12341(2)
N1 N 0.10621(19) 0.38208(15) 0.0817(2)
N2 N 0.33412(19) 0.33840(16) 0.1165(2)
N3 N 0.2314(2) 0.30893(16) 0.2883(2)
N4 N 0.12526(18) 0.20976(15) 0.0331(2)
C1 C 0.1364(2) 0.44374(18) 0.0656(3)
C2 C 0.0420(2) 0.3800(2) 0.1285(3)
H1 H 0.1803 0.4458 0.0302
C3 C 0.1080(2) 0.50540(18) 0.0972(2)
C4 C 0.0078(2) 0.4377(2) 0.1602(3)
H2 H 0.0193 0.3367 0.1402
C5 C 0.0421(2) 0.5002(2) 0.1456(3)
C6 C 0.1449(2) 0.57117(17) 0.0768(2)
H4 H 0.0203 0.5404 0.1691
C7 C 0.0957(2) 0.62982(18) 0.0645(2)
C8 C 0.2292(2) 0.57707(18) 0.0677(2)
H5 H 0.0386 0.6277 0.0727
C9 C 0.1280(2) 0.69106(18) 0.0406(2)
C10 C 0.2618(2) 0.63909(19) 0.0470(3)
H6 H 0.2646 0.5377 0.0759
H7 H 0.0923 0.7302 0.0307
C11 C 0.2116(2) 0.69687(18) 0.0307(2)
H8 H 0.3201 0.6422 0.0438
C12 C 0.2447(2) 0.76509(18) 0.0102(2)
C13 C 0.3180(2) 0.78914(17) 0.0848(2)
C15 C 0.3898(2) 0.8184(2) 0.0632(3)
C16 C 0.3130(2) 0.78048(19) 0.1782(3)
C19 C 0.4558(2) 0.8386(2) 0.1354(3)
H10 H 0.2644 0.7593 0.1936
C20 C 0.3778(2) 0.8021(2) 0.2503(3)
C22 C 0.2289(2) 0.92189(18) 0.0003(3)
C25 C 0.4495(2) 0.8314(2) 0.2294(3)
H11 H 0.5059 0.8574 0.1201
H12 H 0.3726 0.7967 0.3144
H14 H 0.2216 0.9049 0.0599
C30 C 0.5195(2) 0.8515(2) 0.3086(3)
C33 C 0.6000(2) 0.82692(19) 0.3126(3)
C34 C 0.5061(3) 0.8921(2) 0.3825(3)
H21 H 0.6097 0.7997 0.2611
H22 H 0.4517 0.9108 0.3828
C37 C 0.5737(3) 0.9050(3) 0.4567(3)
C42 C 0.6506(3) 0.8776(2) 0.4544(3)
H23 H 0.5661 0.9328 0.5085
H28 H 0.6961 0.8867 0.5059
N5 N 0.66588(19) 0.83840(16) 0.3835(2)
Ag2 Ag 0.794928(19) 0.786158(16) 0.37659(2)
H20 H 0.9591 0.7981 0.7194
C36 C 0.9769(2) 0.68843(18) 0.6110(2)
C40 C 0.9231(2) 0.73083(18) 0.5489(2)
C41 C 0.9800(2) 0.62043(18) 0.5839(3)
H26 H 0.9202 0.7777 0.5655
C44 C 0.9324(2) 0.59829(19) 0.4997(3)
C46 C 0.8803(2) 0.64398(19) 0.4434(3)
H30 H 0.9354 0.5520 0.4805
H32 H 0.8469 0.6282 0.3856
N7 N 0.87474(18) 0.70976(15) 0.4669(2)
C44_2 C 0.0676(2) 0.09829(19) 0.0003(3)
C46_2 C 0.1197(2) 0.14398(19) 0.0566(3)
H30_2 H 0.0646 0.0520 0.0195
H32_2 H 0.1531 0.1282 0.1144
C3_2 C 0.8920(2) 0.00540(18) 0.4028(2)
C5_2 C 0.9579(2) 0.0002(2) 0.3544(3)
C6_2 C 0.8551(2) 0.07117(17) 0.4232(2)
H4_2 H 0.9797 0.0404 0.3309
C7_2 C 0.9043(2) 0.12982(18) 0.4355(2)
C8_2 C 0.7708(2) 0.07707(18) 0.4323(2)
H5_2 H 0.9614 0.1277 0.4273
C9_2 C 0.8720(2) 0.19106(18) 0.4594(2)
C10_2 C 0.7382(2) 0.13909(19) 0.4530(3)
H6_2 H 0.7354 0.0377 0.4241
H7_2 H 0.9077 0.2302 0.4693
C11_2 C 0.7884(2) 0.19687(18) 0.4693(2)
H8_2 H 0.6799 0.1422 0.4562
C12_2 C 0.7553(2) 0.26509(18) 0.4898(2)
C13_2 C 0.6820(2) 0.28914(17) 0.4152(2)
C14 C 0.7930(2) 0.30285(18) 0.5650(2)
C15_2 C 0.6102(2) 0.3184(2) 0.4368(3)
C16_2 C 0.6870(2) 0.28048(19) 0.3218(3)
C17 C 0.7750(2) 0.37739(18) 0.5749(2)
C18 C 0.8557(2) 0.27226(18) 0.6440(2)
C19_2 C 0.5442(2) 0.3386(2) 0.3646(3)
H9 H 0.6059 0.3248 0.5011
H10_2 H 0.7356 0.2593 0.3064
C20_2 C 0.6222(2) 0.3021(2) 0.2497(3)
C21 C 0.7648(2) 0.40425(18) 0.6615(3)
C22_2 C 0.7711(2) 0.42189(18) 0.4997(3)
C23 C 0.8381(2) 0.21084(17) 0.6856(2)
C24 C 0.9325(2) 0.30399(18) 0.6818(3)
C25_2 C 0.5505(2) 0.3314(2) 0.2706(3)
H11_2 H 0.4941 0.3574 0.3799
H12_2 H 0.6274 0.2967 0.1856
C26 C 0.7501(2) 0.47274(18) 0.6721(3)
H13 H 0.7682 0.3745 0.7143
H14_2 H 0.7784 0.4049 0.4401
C27 C 0.7568(2) 0.49089(19) 0.5105(3)
C28 C 0.8919(2) 0.18419(18) 0.7639(2)
H15 H 0.7878 0.1867 0.6594
H16 H 0.9469 0.3456 0.6547
C29 C 0.9881(2) 0.27627(17) 0.7580(2)
C30_2 C 0.4805(2) 0.3515(2) 0.1914(3)
C31_2 C 0.7467(2) 0.51793(18) 0.5968(3)
H17 H 0.7420 0.4895 0.7316
H18_2 H 0.7536 0.5206 0.4576
C32 C 0.9678(2) 0.21655(17) 0.8022(2)
H19 H 0.8768 0.1432 0.7919
C33_2 C 0.4000(2) 0.32692(19) 0.1874(3)
C34_2 C 0.4939(3) 0.3921(2) 0.1175(3)
C35_2 C 0.7357(2) 0.59239(18) 0.6094(3)
H21_2 H 0.3903 0.2997 0.2389
H22_2 H 0.5483 0.4108 0.1172
C37_2 C 0.4263(3) 0.4050(3) 0.0433(3)
C38_2 C 0.7740(2) 0.62369(19) 0.6931(3)
C39_2 C 0.6901(3) 0.6344(2) 0.5401(3)
C42_2 C 0.3494(3) 0.3776(2) 0.0456(3)
H24_2 H 0.8064 0.5957 0.7409
H25_2 H 0.6627 0.6158 0.4811
C43_2 C 0.6848(3) 0.7038(2) 0.5577(3)
H27 H 0.9847 0.0890 0.8761
C45_2 C 0.7240(3) 0.7298(2) 0.6431(3)
H29_2 H 0.6541 0.7332 0.5106
H31_2 H 0.7194 0.7775 0.6542
N6_2 N 0.7686(2) 0.69107(16) 0.7117(2)
Ag3_2 Ag 0.794928(19) 0.713842(16) 0.87659(2)
N1_2 N 0.89379(19) 0.88208(15) 0.4183(2)
N3_2 N 0.7686(2) 0.80893(16) 0.2117(2)
C1_2 C 0.8636(2) 0.94374(18) 0.4344(3)
C2_2 C 0.9580(2) 0.8800(2) 0.3715(3)
H1_2 H 0.8197 0.9458 0.4698
C4_2 C 0.9922(2) 0.9377(2) 0.3398(3)
H2_2 H 0.9807 0.8367 0.3598
H20_2 H 0.0409 0.2019 0.2806
C36_2 C 0.0231(2) 0.31157(18) 0.3890(2)
C40_2 C 0.0769(2) 0.26917(18) 0.4511(2)
C41_2 C 0.0200(2) 0.37957(18) 0.4161(3)
H26_2 H 0.0798 0.2223 0.4345
C44_3 C 0.0676(2) 0.40171(19) 0.5003(3)
C46_3 C 0.1197(2) 0.35602(19) 0.5566(3)
H30_3 H 0.0646 0.4480 0.5195
H32_3 H 0.1531 0.3718 0.6144
N7_2 N 0.12526(18) 0.29024(15) 0.5331(2)
N1_3 N 0.89379(19) 0.61792(15) 0.9183(2)
N2_2 N 0.66588(19) 0.66160(16) 0.8835(2)
N4_2 N 0.87474(18) 0.79024(15) 0.9669(2)
C1_3 C 0.8636(2) 0.55626(18) 0.9344(3)
C2_3 C 0.9580(2) 0.6200(2) 0.8715(3)
H1_3 H 0.8197 0.5542 0.9698
C3_3 C 0.8920(2) 0.49460(18) 0.9028(2)
C4_3 C 0.9922(2) 0.5623(2) 0.8398(3)
H2_3 H 0.9807 0.6633 0.8598
C5_3 C 0.9579(2) 0.4998(2) 0.8544(3)
C6_3 C 0.8551(2) 0.42883(17) 0.9232(2)
H4_3 H 0.9797 0.4596 0.8309
C7_3 C 0.9043(2) 0.37018(18) 0.9355(2)
C8_3 C 0.7708(2) 0.42293(18) 0.9323(2)
H5_3 H 0.9614 0.3723 0.9273
C9_3 C 0.8720(2) 0.30894(18) 0.9594(2)
C10_3 C 0.7382(2) 0.36091(19) 0.9530(3)
H6_3 H 0.7354 0.4623 0.9241
H7_3 H 0.9077 0.2698 0.9693
C11_3 C 0.7884(2) 0.30313(18) 0.9693(2)
H8_3 H 0.6799 0.3578 0.9562
C12_3 C 0.7553(2) 0.23491(18) 0.9898(2)
C13_3 C 0.6820(2) 0.21086(17) 0.9152(2)
C15_3 C 0.6102(2) 0.1816(2) 0.9368(3)
C16_3 C 0.6870(2) 0.21952(19) 0.8218(3)
C19_3 C 0.5442(2) 0.1614(2) 0.8646(3)
H10_3 H 0.7356 0.2407 0.8064
C20_3 C 0.6222(2) 0.1979(2) 0.7497(3)
C22_3 C 0.7711(2) 0.07811(18) 0.9997(3)
C25_3 C 0.5505(2) 0.1686(2) 0.7706(3)
H11_3 H 0.4941 0.1426 0.8799
H12_3 H 0.6274 0.2033 0.6856
H14_3 H 0.7784 0.0951 0.9401
C30_3 C 0.4805(2) 0.1485(2) 0.6914(3)
C33_3 C 0.4000(2) 0.17308(19) 0.6874(3)
C34_3 C 0.4939(3) 0.1079(2) 0.6175(3)
H21_3 H 0.3903 0.2003 0.7389
H22_3 H 0.5483 0.0892 0.6172
C37_3 C 0.4263(3) 0.0950(3) 0.5433(3)
C42_3 C 0.3494(3) 0.1224(2) 0.5456(3)
H23_2 H 0.4339 0.0672 0.4915
H28_2 H 0.3039 0.1133 0.4941
N5_2 N 0.33412(19) 0.16160(16) 0.6165(2)
C31_3 C 0.7467(2) 0.98207(18) 0.0968(3)
C35_3 C 0.7357(2) 0.90761(18) 0.1094(3)
C38_3 C 0.7740(2) 0.87631(19) 0.1931(3)
C39_3 C 0.6901(3) 0.8656(2) 0.0401(3)
H24_3 H 0.8064 0.9043 0.2409
C43_3 C 0.6848(3) 0.7962(2) 0.0577(3)
C45_3 C 0.7240(3) 0.7702(2) 0.1431(3)
H29_3 H 0.6541 0.7668 0.0106
H31_3 H 0.7194 0.7225 0.1542
N1_4 N 0.10621(19) 0.11792(15) 0.5817(2)
C1_4 C 0.1364(2) 0.05626(18) 0.5656(3)
C2_4 C 0.0420(2) 0.1200(2) 0.6285(3)
H1_4 H 0.1803 0.0542 0.5302
C4_4 C 0.0078(2) 0.0623(2) 0.6602(3)
H2_4 H 0.0193 0.1633 0.6402
C3_4 C 0.1080(2) 0.99460(18) 0.5972(2)
C5_4 C 0.0421(2) 0.9998(2) 0.6456(3)
C6_4 C 0.1449(2) 0.92883(17) 0.5768(2)
H4_4 H 0.0203 0.9596 0.6691
C7_4 C 0.0957(2) 0.87018(18) 0.5645(2)
C8_4 C 0.2292(2) 0.92293(18) 0.5677(2)
H5_4 H 0.0386 0.8723 0.5727
C9_4 C 0.1280(2) 0.80894(18) 0.5406(2)
C10_4 C 0.2618(2) 0.86091(19) 0.5470(3)
H6_4 H 0.2646 0.9623 0.5759
H7_4 H 0.0923 0.7698 0.5307
C11_4 C 0.2116(2) 0.80313(18) 0.5307(2)
H8_4 H 0.3201 0.8578 0.5438
C12_4 C 0.2447(2) 0.73491(18) 0.5102(2)
C13_4 C 0.3180(2) 0.71086(17) 0.5848(2)
C14_2 C 0.2070(2) 0.69715(18) 0.4350(2)
C15_4 C 0.3898(2) 0.6816(2) 0.5632(3)
C16_4 C 0.3130(2) 0.71952(19) 0.6782(3)
C17_2 C 0.2250(2) 0.62261(18) 0.4251(2)
C18_2 C 0.1443(2) 0.72774(18) 0.3560(2)
C19_4 C 0.4558(2) 0.6614(2) 0.6354(3)
H9_2 H 0.3941 0.6752 0.4989
H10_4 H 0.2644 0.7407 0.6936
C20_4 C 0.3778(2) 0.6979(2) 0.7503(3)
C21_2 C 0.2352(2) 0.59575(18) 0.3385(3)
C22_4 C 0.2289(2) 0.57811(18) 0.5003(3)
C23_2 C 0.1619(2) 0.78916(17) 0.3144(2)
C24_2 C 0.0675(2) 0.69601(18) 0.3182(3)
C25_4 C 0.4495(2) 0.6686(2) 0.7294(3)
H11_4 H 0.5059 0.6426 0.6201
H12_4 H 0.3726 0.7033 0.8144
C26_2 C 0.2499(2) 0.52726(18) 0.3279(3)
H13_2 H 0.2318 0.6255 0.2857
H14_4 H 0.2216 0.5951 0.5599
C27_2 C 0.2432(2) 0.50911(19) 0.4895(3)
C28_2 C 0.1081(2) 0.81581(18) 0.2361(2)
H15_2 H 0.2122 0.8133 0.3406
H16_2 H 0.0531 0.6544 0.3453
C29_2 C 0.0119(2) 0.72373(17) 0.2420(2)
C30_4 C 0.5195(2) 0.6485(2) 0.8086(3)
C31_4 C 0.2533(2) 0.48207(18) 0.4032(3)
H17_2 H 0.2580 0.5105 0.2684
H18_3 H 0.2464 0.4794 0.5424
C32_2 C 0.0322(2) 0.78345(17) 0.1978(2)
H19_2 H 0.1232 0.8568 0.2081
C33_4 C 0.6000(2) 0.67308(19) 0.8126(3)
C34_4 C 0.5061(3) 0.6079(2) 0.8825(3)
C35_4 C 0.2643(2) 0.40761(18) 0.3906(3)
H21_4 H 0.6097 0.7003 0.7611
H22_4 H 0.4517 0.5892 0.8828
C37_4 C 0.5737(3) 0.5950(3) 0.9567(3)
C38_4 C 0.2260(2) 0.37631(19) 0.3069(3)
C39_4 C 0.3099(3) 0.3656(2) 0.4599(3)
C42_4 C 0.6506(3) 0.6224(2) 0.9544(3)
H24_4 H 0.1936 0.4043 0.2591
H25_3 H 0.3373 0.3842 0.5189
C43_4 C 0.3152(3) 0.2962(2) 0.4423(3)
H27_2 H 0.0153 0.9110 0.1239
C45_4 C 0.2760(3) 0.2702(2) 0.3569(3)
H29_4 H 0.3459 0.2668 0.4894
H31_4 H 0.2806 0.2225 0.3458
C44_4 C 0.9324(2) 0.90171(19) 0.9997(3)
C46_4 C 0.8803(2) 0.85602(19) 0.9434(3)
H30_4 H 0.9354 0.9480 0.9805
H32_4 H 0.8469 0.8718 0.8856
C14_3 C 0.2070(2) 0.80285(18) 0.9350(2)
C17_3 C 0.2250(2) 0.87739(18) 0.9251(2)
C18_3 C 0.1443(2) 0.77226(18) 0.8560(2)
H9_3 H 0.3941 0.8248 0.9989
C21_3 C 0.2352(2) 0.90425(18) 0.8385(3)
C23_3 C 0.1619(2) 0.71084(17) 0.8144(2)
C24_3 C 0.0675(2) 0.80399(18) 0.8182(3)
C26_3 C 0.2499(2) 0.97274(18) 0.8279(3)
H13_3 H 0.2318 0.8745 0.7857
C27_3 C 0.2432(2) 0.99089(19) 0.9895(3)
C28_3 C 0.1081(2) 0.68419(18) 0.7361(2)
H15_3 H 0.2122 0.6867 0.8406
H16_3 H 0.0531 0.8456 0.8453
C29_3 C 0.0119(2) 0.77627(17) 0.7420(2)
H17_3 H 0.2580 0.9895 0.7684
C32_3 C 0.0322(2) 0.71655(17) 0.6978(2)
H19_3 H 0.1232 0.6432 0.7081
H27_3 H 0.0153 0.5890 0.6239
H3 H 0.9613 0.4345 0.1917
H20_3 H 0.0409 0.2981 0.7806
C36_3 C 0.0231(2) 0.18843(18) 0.8890(2)
C40_3 C 0.0769(2) 0.23083(18) 0.9511(2)
C41_3 C 0.0200(2) 0.12043(18) 0.9161(3)
H26_3 H 0.0798 0.2777 0.9345
H3_2 H 0.0387 0.9345 0.3083
H23_3 H 0.4339 0.4328 0.9915
H28_3 H 0.3039 0.3867 0.9941
H3_3 H 0.0387 0.5655 0.8083
C14_4 C 0.7930(2) 0.19715(18) 0.0650(2)
C17_4 C 0.7750(2) 0.12261(18) 0.0749(2)
C18_4 C 0.8557(2) 0.22774(18) 0.1440(2)
H9_4 H 0.6059 0.1752 0.0011
C21_4 C 0.7648(2) 0.09575(18) 0.1615(3)
C23_4 C 0.8381(2) 0.28916(17) 0.1856(2)
C24_4 C 0.9325(2) 0.19601(18) 0.1818(3)
C26_4 C 0.7501(2) 0.02726(18) 0.1721(3)
H13_4 H 0.7682 0.1255 0.2143
C27_4 C 0.7568(2) 0.00911(19) 0.0105(3)
C28_4 C 0.8919(2) 0.31581(18) 0.2639(2)
H15_4 H 0.7878 0.3133 0.1594
H16_4 H 0.9469 0.1544 0.1547
C29_4 C 0.9881(2) 0.22373(17) 0.2580(2)
H17_4 H 0.7420 0.0105 0.2316
C32_4 C 0.9678(2) 0.28345(17) 0.3022(2)
H19_4 H 0.8768 0.3568 0.2919
H27_4 H 0.9847 0.4110 0.3761
H18_4 H 0.7536 0.9794 0.9576
H25_4 H 0.6627 0.8842 0.9811
H23_4 H 0.5661 0.5672 0.0085
H28_4 H 0.6961 0.6133 0.0059
H3_4 H 0.9613 0.0655 0.6917
H20_4 H 0.9591 0.7019 0.2194
C36_4 C 0.9769(2) 0.81157(18) 0.1110(2)
C40_4 C 0.9231(2) 0.76917(18) 0.0489(2)
C41_4 C 0.9800(2) 0.87957(18) 0.0839(3)
H26_4 H 0.9202 0.7223 0.0655
P1 P 0.22941(9) 0.02183(7) 0.28699(9)
F2 F 0.1452(2) 0.01636(19) 0.2107(2)
F3 F 0.1973(3) 0.0868(3) 0.3264(4)
F4 F 0.3128(2) 0.02580(19) 0.3629(2)
F6 F 0.2660(2) 0.0666(3) 0.2173(3)
F1 F 0.1886(3) 0.9802(3) 0.3540(3)
F5 F 0.2618(4) 0.9569(3) 0.2476(4)
P1_2 P 0.77059(9) 0.52183(7) 0.21301(9)
F1_2 F 0.8114(3) 0.4802(3) 0.1460(3)
F2_2 F 0.8548(2) 0.51636(19) 0.2893(2)
F3_2 F 0.8027(3) 0.5868(3) 0.1736(4)
F4_2 F 0.6872(2) 0.52580(19) 0.1371(2)
F5_2 F 0.7382(4) 0.4569(3) 0.2524(4)
F6_2 F 0.7340(2) 0.5666(3) 0.2827(3)
F1_3 F 0.8114(3) 0.0198(3) 0.6460(3)
F5_3 F 0.7382(4) 0.0431(3) 0.7524(4)
P1_3 P 0.77059(9) 0.97817(7) 0.71301(9)
F2_3 F 0.8548(2) 0.98364(19) 0.7893(2)
F3_3 F 0.8027(3) 0.9132(3) 0.6736(4)
F4_3 F 0.6872(2) 0.97420(19) 0.6371(2)
F6_3 F 0.7340(2) 0.9334(3) 0.7827(3)
P1_4 P 0.22941(9) 0.47817(7) 0.78699(9)
F1_4 F 0.1886(3) 0.5198(3) 0.8540(3)
F2_4 F 0.1452(2) 0.48364(19) 0.7107(2)
F3_4 F 0.1973(3) 0.4132(3) 0.8264(4)
F4_4 F 0.3128(2) 0.47420(19) 0.8629(2)
F5_4 F 0.2618(4) 0.5431(3) 0.7476(4)
F6_4 F 0.2660(2) 0.4334(3) 0.7173(3)
loop_
_geom_bond_atom_site_label_1
_geom_bond_atom_site_label_2
_geom_bond_site_symmetry_1
_geom_bond_site_symmetry_2
C35 C31 1_555 1_555
C38 C35 1_555 1_555
C39 C35 1_555 1_555
H24 C38 1_555 1_555
C43 C39 1_555 1_555
C45 C43 1_555 1_555
H29 C43 1_555 1_555
H31 C45 1_555 1_555
N6 C38 1_555 1_555
Ag3 N6 1_555 1_555
C45 N6 1_555 1_555
Ag1 N1 1_555 1_555
N1 C1 1_555 1_555
N2 Ag1 1_555 1_555
N3 Ag1 1_555 1_555
N4 Ag1 1_555 1_555
C1 H1 1_555 1_555
C2 N1 1_555 1_555
C3 C1 1_555 1_555
C4 C2 1_555 1_555
H2 C2 1_555 1_555
C5 C3 1_555 1_555
C6 C3 1_555 1_555
H4 C5 1_555 1_555
C7 C6 1_555 1_555
C8 C6 1_555 1_555
H5 C7 1_555 1_555
C9 C7 1_555 1_555
C10 C8 1_555 1_555
H6 C8 1_555 1_555
H7 C9 1_555 1_555
C11 C9 1_555 1_555
H8 C10 1_555 1_555
C12 C11 1_555 1_555
C13 C12 1_555 1_555
C15 C13 1_555 1_555
C16 C13 1_555 1_555
C19 C15 1_555 1_555
H10 C16 1_555 1_555
C20 C16 1_555 1_555
C25 C19 1_555 1_555
H11 C19 1_555 1_555
H12 C20 1_555 1_555
H14 C22 1_555 1_555
C30 C25 1_555 1_555
C33 C30 1_555 1_555
C34 C30 1_555 1_555
H21 C33 1_555 1_555
H22 C34 1_555 1_555
C37 C34 1_555 1_555
C42 C37 1_555 1_555
H23 C37 1_555 1_555
H28 C42 1_555 1_555
N5 C33 1_555 1_555
Ag2 N5 1_555 1_555
C4 C5 1_555 1_555
C10 C11 1_555 1_555
C20 C25 1_555 1_555
C42 N5 1_555 1_555
C40 C36 1_555 1_555
C41 C36 1_555 1_555
H26 C40 1_555 1_555
C44 C41 1_555 1_555
C46 C44 1_555 1_555
H30 C44 1_555 1_555
H32 C46 1_555 1_555
N7 C40 1_555 1_555
Ag2 N7 1_555 1_555
C46 N7 1_555 1_555
C46_2 C44_2 1_555 1_555
H30_2 C44_2 1_555 1_555
H32_2 C46_2 1_555 1_555
C46_2 N4 1_555 1_555
C5_2 C3_2 1_555 1_555
C6_2 C3_2 1_555 1_555
H4_2 C5_2 1_555 1_555
C7_2 C6_2 1_555 1_555
C8_2 C6_2 1_555 1_555
H5_2 C7_2 1_555 1_555
C9_2 C7_2 1_555 1_555
C10_2 C8_2 1_555 1_555
H6_2 C8_2 1_555 1_555
H7_2 C9_2 1_555 1_555
C11_2 C9_2 1_555 1_555
H8_2 C10_2 1_555 1_555
C12_2 C11_2 1_555 1_555
C13_2 C12_2 1_555 1_555
C14 C12_2 1_555 1_555
C15_2 C13_2 1_555 1_555
C16_2 C13_2 1_555 1_555
C17 C14 1_555 1_555
C18 C14 1_555 1_555
C19_2 C15_2 1_555 1_555
H9 C15_2 1_555 1_555
H10_2 C16_2 1_555 1_555
C20_2 C16_2 1_555 1_555
C21 C17 1_555 1_555
C22_2 C17 1_555 1_555
C23 C18 1_555 1_555
C24 C18 1_555 1_555
C25_2 C19_2 1_555 1_555
H11_2 C19_2 1_555 1_555
H12_2 C20_2 1_555 1_555
C26 C21 1_555 1_555
H13 C21 1_555 1_555
H14_2 C22_2 1_555 1_555
C27 C22_2 1_555 1_555
C28 C23 1_555 1_555
H15 C23 1_555 1_555
H16 C24 1_555 1_555
C29 C24 1_555 1_555
C30_2 C25_2 1_555 1_555
C31_2 C26 1_555 1_555
H17 C26 1_555 1_555
H18_2 C27 1_555 1_555
C32 C28 1_555 1_555
H19 C28 1_555 1_555
C33_2 C30_2 1_555 1_555
C34_2 C30_2 1_555 1_555
C35_2 C31_2 1_555 1_555
H21_2 C33_2 1_555 1_555
H22_2 C34_2 1_555 1_555
C37_2 C34_2 1_555 1_555
C38_2 C35_2 1_555 1_555
C39_2 C35_2 1_555 1_555
C42_2 C37_2 1_555 1_555
H24_2 C38_2 1_555 1_555
H25_2 C39_2 1_555 1_555
C43_2 C39_2 1_555 1_555
C45_2 C43_2 1_555 1_555
H29_2 C43_2 1_555 1_555
H31_2 C45_2 1_555 1_555
N2 C33_2 1_555 1_555
N6_2 C38_2 1_555 1_555
Ag3_2 N6_2 1_555 1_555
C10_2 C11_2 1_555 1_555
C20_2 C25_2 1_555 1_555
C27 C31_2 1_555 1_555
C29 C32 1_555 1_555
C42_2 N2 1_555 1_555
C45_2 N6_2 1_555 1_555
Ag2 N1_2 1_555 1_555
N1_2 C1_2 1_555 1_555
N3_2 Ag2 1_555 1_555
C1_2 H1_2 1_555 1_555
C2_2 N1_2 1_555 1_555
C4_2 C2_2 1_555 1_555
H2_2 C2_2 1_555 1_555
C40_2 C36_2 1_555 1_555
C41_2 C36_2 1_555 1_555
H26_2 C40_2 1_555 1_555
C44_3 C41_2 1_555 1_555
C46_3 C44_3 1_555 1_555
H30_3 C44_3 1_555 1_555
H32_3 C46_3 1_555 1_555
N7_2 C40_2 1_555 1_555
Ag3 N7_2 1_555 1_555
C46_3 N7_2 1_555 1_555
Ag3_2 N1_3 1_555 1_555
N1_3 C1_3 1_555 1_555
N2_2 Ag3_2 1_555 1_555
N4_2 Ag3_2 1_555 1_555
C1_3 H1_3 1_555 1_555
C2_3 N1_3 1_555 1_555
C3_3 C1_3 1_555 1_555
C4_3 C2_3 1_555 1_555
H2_3 C2_3 1_555 1_555
C5_3 C3_3 1_555 1_555
C6_3 C3_3 1_555 1_555
H4_3 C5_3 1_555 1_555
C7_3 C6_3 1_555 1_555
C8_3 C6_3 1_555 1_555
H5_3 C7_3 1_555 1_555
C9_3 C7_3 1_555 1_555
C10_3 C8_3 1_555 1_555
H6_3 C8_3 1_555 1_555
H7_3 C9_3 1_555 1_555
C11_3 C9_3 1_555 1_555
H8_3 C10_3 1_555 1_555
C12_3 C11_3 1_555 1_555
C13_3 C12_3 1_555 1_555
C15_3 C13_3 1_555 1_555
C16_3 C13_3 1_555 1_555
C19_3 C15_3 1_555 1_555
H10_3 C16_3 1_555 1_555
C20_3 C16_3 1_555 1_555
C25_3 C19_3 1_555 1_555
H11_3 C19_3 1_555 1_555
H12_3 C20_3 1_555 1_555
H14_3 C22_3 1_555 1_555
C30_3 C25_3 1_555 1_555
C33_3 C30_3 1_555 1_555
C34_3 C30_3 1_555 1_555
H21_3 C33_3 1_555 1_555
H22_3 C34_3 1_555 1_555
C37_3 C34_3 1_555 1_555
C42_3 C37_3 1_555 1_555
H23_2 C37_3 1_555 1_555
H28_2 C42_3 1_555 1_555
N5_2 C33_3 1_555 1_555
Ag3 N5_2 1_555 1_555
C4_3 C5_3 1_555 1_555
C10_3 C11_3 1_555 1_555
C20_3 C25_3 1_555 1_555
C42_3 N5_2 1_555 1_555
C35_3 C31_3 1_555 1_555
C38_3 C35_3 1_555 1_555
C39_3 C35_3 1_555 1_555
H24_3 C38_3 1_555 1_555
C43_3 C39_3 1_555 1_555
C45_3 C43_3 1_555 1_555
H29_3 C43_3 1_555 1_555
H31_3 C45_3 1_555 1_555
N3_2 C38_3 1_555 1_555
C45_3 N3_2 1_555 1_555
Ag3 N1_4 1_555 1_555
N1_4 C1_4 1_555 1_555
C1_4 H1_4 1_555 1_555
C2_4 N1_4 1_555 1_555
C4_4 C2_4 1_555 1_555
H2_4 C2_4 1_555 1_555
C5_4 C3_4 1_555 1_555
C6_4 C3_4 1_555 1_555
H4_4 C5_4 1_555 1_555
C7_4 C6_4 1_555 1_555
C8_4 C6_4 1_555 1_555
H5_4 C7_4 1_555 1_555
C9_4 C7_4 1_555 1_555
C10_4 C8_4 1_555 1_555
H6_4 C8_4 1_555 1_555
H7_4 C9_4 1_555 1_555
C11_4 C9_4 1_555 1_555
H8_4 C10_4 1_555 1_555
C12_4 C11_4 1_555 1_555
C13_4 C12_4 1_555 1_555
C14_2 C12_4 1_555 1_555
C15_4 C13_4 1_555 1_555
C16_4 C13_4 1_555 1_555
C17_2 C14_2 1_555 1_555
C18_2 C14_2 1_555 1_555
C19_4 C15_4 1_555 1_555
H9_2 C15_4 1_555 1_555
H10_4 C16_4 1_555 1_555
C20_4 C16_4 1_555 1_555
C21_2 C17_2 1_555 1_555
C22_4 C17_2 1_555 1_555
C23_2 C18_2 1_555 1_555
C24_2 C18_2 1_555 1_555
C25_4 C19_4 1_555 1_555
H11_4 C19_4 1_555 1_555
H12_4 C20_4 1_555 1_555
C26_2 C21_2 1_555 1_555
H13_2 C21_2 1_555 1_555
H14_4 C22_4 1_555 1_555
C27_2 C22_4 1_555 1_555
C28_2 C23_2 1_555 1_555
H15_2 C23_2 1_555 1_555
H16_2 C24_2 1_555 1_555
C29_2 C24_2 1_555 1_555
C30_4 C25_4 1_555 1_555
C31_4 C26_2 1_555 1_555
H17_2 C26_2 1_555 1_555
H18_3 C27_2 1_555 1_555
C32_2 C28_2 1_555 1_555
H19_2 C28_2 1_555 1_555
C33_4 C30_4 1_555 1_555
C34_4 C30_4 1_555 1_555
C35_4 C31_4 1_555 1_555
H21_4 C33_4 1_555 1_555
H22_4 C34_4 1_555 1_555
C37_4 C34_4 1_555 1_555
C38_4 C35_4 1_555 1_555
C39_4 C35_4 1_555 1_555
C42_4 C37_4 1_555 1_555
H24_4 C38_4 1_555 1_555
H25_3 C39_4 1_555 1_555
C43_4 C39_4 1_555 1_555
C45_4 C43_4 1_555 1_555
H29_4 C43_4 1_555 1_555
H31_4 C45_4 1_555 1_555
N2_2 C33_4 1_555 1_555
N3 C38_4 1_555 1_555
C10_4 C11_4 1_555 1_555
C20_4 C25_4 1_555 1_555
C27_2 C31_4 1_555 1_555
C29_2 C32_2 1_555 1_555
C42_4 N2_2 1_555 1_555
C45_4 N3 1_555 1_555
C46_4 C44_4 1_555 1_555
H30_4 C44_4 1_555 1_555
H32_4 C46_4 1_555 1_555
C46_4 N4_2 1_555 1_555
C17_3 C14_3 1_555 1_555
C18_3 C14_3 1_555 1_555
C21_3 C17_3 1_555 1_555
C23_3 C18_3 1_555 1_555
C24_3 C18_3 1_555 1_555
C26_3 C21_3 1_555 1_555
H13_3 C21_3 1_555 1_555
C28_3 C23_3 1_555 1_555
H15_3 C23_3 1_555 1_555
H16_3 C24_3 1_555 1_555
C29_3 C24_3 1_555 1_555
H17_3 C26_3 1_555 1_555
C32_3 C28_3 1_555 1_555
H19_3 C28_3 1_555 1_555
C29_3 C32_3 1_555 1_555
C40_3 C36_3 1_555 1_555
C41_3 C36_3 1_555 1_555
H26_3 C40_3 1_555 1_555
C17_4 C14_4 1_555 1_555
C18_4 C14_4 1_555 1_555
C21_4 C17_4 1_555 1_555
C23_4 C18_4 1_555 1_555
C24_4 C18_4 1_555 1_555
C26_4 C21_4 1_555 1_555
H13_4 C21_4 1_555 1_555
C28_4 C23_4 1_555 1_555
H15_4 C23_4 1_555 1_555
H16_4 C24_4 1_555 1_555
C29_4 C24_4 1_555 1_555
H17_4 C26_4 1_555 1_555
C32_4 C28_4 1_555 1_555
H19_4 C28_4 1_555 1_555
C29_4 C32_4 1_555 1_555
C40_4 C36_4 1_555 1_555
C41_4 C36_4 1_555 1_555
H26_4 C40_4 1_555 1_555
F2 P1 1_555 1_555
F3 P1 1_555 1_555
F4 P1 1_555 1_555
F6 P1 1_555 1_555
P1_2 F1_2 1_555 1_555
F2_2 P1_2 1_555 1_555
F3_2 P1_2 1_555 1_555
F4_2 P1_2 1_555 1_555
F5_2 P1_2 1_555 1_555
F6_2 P1_2 1_555 1_555
F2_3 P1_3 1_555 1_555
F3_3 P1_3 1_555 1_555
F4_3 P1_3 1_555 1_555
F6_3 P1_3 1_555 1_555
P1_4 F1_4 1_555 1_555
F2_4 P1_4 1_555 1_555
F3_4 P1_4 1_555 1_555
F4_4 P1_4 1_555 1_555
F5_4 P1_4 1_555 1_555
F6_4 P1_4 1_555 1_555

#END
