
###############################################################################
#
# This file contains modified crystal structure data generated from the
# MOF subset of the Cambridge Structural Database (CSD) v543 
# hosted by the Cambridge Crystallographic Data Centre (CCDC).
#
# This work is licensed under the Creative Commons
# Attribution-NonCommercial-ShareAlike 4.0 International License.
# To view a copy of this license, visit
# http://creativecommons.org/licenses/by-nc-sa/4.0/
# or send a letter to
# Creative Commons, PO Box 1866, Mountain View, CA 94042, USA.
#
# CIF created using the CSD Python API on 29 September 2022
# The structure has been converted into the P1 space group
# The structure has a 3D framework
# The original CSD entry VOYLOM is in the monoclinic crystal system
# The framework has been calculated to contain at least 10.0% void space
# The void calculation uses a probe of radius 1.32A, grid spacing 0.4
#
###############################################################################

data_VOYLOM
_chemical_formula_moiety         '(C184 H128 Ag5 I6 N16)n'
_symmetry_cell_setting           triclinic
_symmetry_space_group_name_H-M   'P 1'
_symmetry_Int_Tables_number      1
_space_group_name_Hall           'P 1'
loop_
_symmetry_equiv_pos_site_id
_symmetry_equiv_pos_as_xyz
1 x,y,z
_cell_length_a                   13.5847(8)
_cell_length_b                   9.5136(5)
_cell_length_c                   34.789(2)
_cell_angle_alpha                90
_cell_angle_beta                 93.3820(10)
_cell_angle_gamma                90
_cell_volume                     4488.28
loop_
_atom_site_label
_atom_site_type_symbol
_atom_site_fract_x
_atom_site_fract_y
_atom_site_fract_z
H3 H 0.1814 0.0588 0.0412
N2 N 0.3566(3) 0.1811(6) 0.68199(16)
C3 C 0.1184(3) 0.0229(6) 0.98769(14)
H2 H 0.1067 0.1188 0.9812
C10 C 0.0214(3) 0.0965(5) 0.86684(14)
H7 H 0.0403 0.1779 0.8533
C11 C 0.0664(3) 0.0683(5) 0.90280(14)
H8 H 0.1146 0.1315 0.9136
C16 C 0.0397(3) 0.2589(6) 0.73933(15)
H10 H 0.0336 0.3481 0.7272
C17 C 0.1188(3) 0.1704(6) 0.73165(14)
C18 C 0.1260(4) 0.0431(6) 0.75046(15)
C19 C 0.0587(3) 0.0023(5) 0.77626(14)
C20 C 0.1912(4) 0.2096(6) 0.70316(15)
C21 C 0.2888(4) 0.1594(6) 0.70768(17)
H13 H 0.3074 0.1072 0.7302
C22 C 0.3282(5) 0.2555(8) 0.65059(19)
H14 H 0.3750 0.2699 0.6317
C23 C 0.2364(5) 0.3120(9) 0.6439(2)
H15 H 0.2199 0.3654 0.6213
C24 C 0.1677(4) 0.2885(9) 0.67142(19)
H16 H 0.1036 0.3281 0.6679
Ag1 Ag 0.23191(3) 0.52281(5) 0.022590(12)
Ag2 Ag 0.58804(3) 0.46717(4) 0.025013(12)
I1 I 0.42127(2) 0.59296(4) 0.058698(10)
N1 N 0.1539(3) 0.7454(5) 0.00731(11)
C4 C 0.1618(3) 0.9878(6) 0.02309(14)
C5 C 0.1762(4) 0.8491(6) 0.03184(15)
H4 H 0.2035 0.8256 0.0568
I4 I 0.75277(2) 0.63312(4) 0.042201(11)
N5 N 0.1400(3) 0.5058(5) 0.07654(12)
N6 N 0.5684(3) 0.2438(5) 0.04856(13)
I2 I 0.24723(2) 0.36688(4) 0.957799(11)
C1 C 0.1127(3) 0.7801(6) 0.97243(13)
H1 H 0.0972 0.7069 0.9545
C2 C 0.0917(3) 0.9179(5) 0.96141(13)
C6 C 0.0422(3) 0.9495(5) 0.92318(13)
H11 H 0.1790 0.9818 0.7455
H12 H 0.0668 0.9151 0.7893
Ag5 Ag 0.41196(3) 0.53283(4) 0.974987(12)
I3 I 0.57873(2) 0.40704(4) 0.941302(10)
N3 N 0.6400(3) 0.9942(5) 0.57654(12)
N4 N 0.4316(3) 0.7562(5) 0.95144(13)
C7 C 0.9696(3) 0.8607(5) 0.90658(12)
H5 H 0.9511 0.7790 0.9201
C8 C 0.9242(3) 0.8898(5) 0.87092(13)
H6 H 0.8750 0.8279 0.8603
C29 C 0.7718(3) 0.9621(5) 0.69229(13)
H19 H 0.8058 0.9196 0.6722
C30 C 0.8148(3) 0.9644(5) 0.72919(13)
H20 H 0.8778 0.9227 0.7342
C33 C 0.5429(4) 0.9718(5) 0.57273(15)
H22 H 0.5129 0.9572 0.5477
C34 C 0.4843(4) 0.9691(6) 0.60398(16)
H23 H 0.4153 0.9544 0.6002
C35 C 0.5270(3) 0.9878(5) 0.64054(14)
H24 H 0.4877 0.9871 0.6622
C36 C 0.7341(3) 0.9902(5) 0.82899(12)
C39 C 0.5924(3) 0.9403(5) 0.88299(13)
C40 C 0.6086(3) 0.8428(5) 0.85394(14)
H27 H 0.5723 0.7574 0.8527
C41 C 0.6771(3) 0.8697(5) 0.82699(14)
H28 H 0.6851 0.8044 0.8068
C42 C 0.5167(3) 0.9172(5) 0.91176(15)
C43 C 0.4967(4) 0.7838(6) 0.92495(15)
H29 H 0.5312 0.7070 0.9146
C44 C 0.3835(4) 0.8667(6) 0.96551(17)
H30 H 0.3377 0.8491 0.9845
Ag3 Ag 0.73191(3) 0.97719(5) 0.522590(12)
N4_2 N 0.0684(3) 0.2562(5) 0.54856(13)
C34_2 C 0.0157(4) 0.4691(6) 0.89602(16)
H23_2 H 0.0847 0.4544 0.8998
H24_2 H 0.0123 0.4871 0.8378
C43_2 C 0.0033(4) 0.2838(6) 0.57505(15)
C44_2 C 0.1165(4) 0.3667(6) 0.53449(17)
H30_2 H 0.1623 0.3491 0.5155
C45 C 0.1037(4) 0.5011(6) 0.54573(18)
H31 H 0.1403 0.5752 0.5351
C46 C 0.0358(4) 0.5287(6) 0.57319(17)
H32 H 0.0253 0.6222 0.5816
Ag4 Ag 0.08804(3) 0.03283(4) 0.525013(12)
Ag1_2 Ag 0.26809(3) 0.02281(5) 0.477410(12)
I1_2 I 0.07873(2) 0.09296(4) 0.441302(10)
N1_2 N 0.3461(3) 0.2454(5) 0.49269(11)
N2_2 N 0.1434(3) 0.6811(6) 0.81801(16)
N3_2 N 0.8600(3) 0.4942(5) 0.92346(12)
C1_2 C 0.3873(3) 0.2801(6) 0.52757(13)
H1_2 H 0.4028 0.2069 0.5455
C2_2 C 0.4083(3) 0.4179(5) 0.53859(13)
C3_2 C 0.3816(3) 0.5229(6) 0.51231(14)
H2_2 H 0.3933 0.6188 0.5188
C4_2 C 0.3382(3) 0.4878(6) 0.47691(14)
H3_2 H 0.3186 0.5588 0.4588
C5_2 C 0.3238(4) 0.3491(6) 0.46816(15)
H4_2 H 0.2965 0.3256 0.4432
C6_2 C 0.4578(3) 0.4495(5) 0.57682(13)
C7_2 C 0.5304(3) 0.3607(5) 0.59342(12)
H5_2 H 0.5489 0.2790 0.5799
C8_2 C 0.5758(3) 0.3898(5) 0.62908(13)
H6_2 H 0.6250 0.3279 0.6397
C9 C 0.5504(3) 0.5088(5) 0.64974(12)
C10_2 C 0.4786(3) 0.5965(5) 0.63316(14)
H7_2 H 0.4597 0.6779 0.6467
C11_2 C 0.4336(3) 0.5683(5) 0.59720(14)
H8_2 H 0.3854 0.6315 0.5864
C12 C 0.5947(3) 0.5380(5) 0.68922(12)
C13 C 0.6913(3) 0.5201(5) 0.70000(13)
C14 C 0.5211(3) 0.5881(5) 0.71666(12)
C15 C 0.5300(3) 0.7160(5) 0.73513(13)
H9 H 0.5841 0.7756 0.7304
C16_2 C 0.4603(3) 0.7589(6) 0.76067(15)
H10_2 H 0.4664 0.8481 0.7728
C17_2 C 0.3812(3) 0.6704(6) 0.76835(14)
C18_2 C 0.3740(4) 0.5431(6) 0.74954(15)
H11_2 H 0.3210 0.4818 0.7545
C19_2 C 0.4413(3) 0.5023(5) 0.72374(14)
H12_2 H 0.4332 0.4151 0.7107
C20_2 C 0.3088(4) 0.7096(6) 0.79684(15)
C21_2 C 0.2112(4) 0.6594(6) 0.79232(17)
H13_2 H 0.1926 0.6072 0.7698
C22_2 C 0.1718(5) 0.7555(8) 0.84941(19)
H14_2 H 0.1250 0.7699 0.8683
C23_2 C 0.2636(5) 0.8120(9) 0.8561(2)
H15_2 H 0.2801 0.8654 0.8787
C24_2 C 0.3323(4) 0.7885(9) 0.82858(19)
H16_2 H 0.3964 0.8281 0.8321
C25 C 0.7326(3) 0.5269(5) 0.74054(13)
C26 C 0.8248(3) 0.5884(5) 0.74899(13)
H17 H 0.8585 0.6318 0.7290
C27 C 0.8680(3) 0.5872(5) 0.78613(13)
H18 H 0.9301 0.6313 0.7913
C28 C 0.8209(3) 0.5215(5) 0.81597(13)
C29_2 C 0.7282(3) 0.4621(5) 0.80771(13)
H19_2 H 0.6942 0.4196 0.8278
C30_2 C 0.6852(3) 0.4644(5) 0.77081(13)
H20_2 H 0.6222 0.4227 0.7658
C31 C 0.8718(3) 0.5077(5) 0.85471(13)
C32 C 0.8199(3) 0.5118(5) 0.88813(14)
H21 H 0.7509 0.5283 0.8854
C33_2 C 0.9571(4) 0.4718(5) 0.92727(15)
H22_2 H 0.9871 0.4572 0.9523
C35_2 C 0.9730(3) 0.4878(5) 0.85946(14)
C36_2 C 0.7659(3) 0.4902(5) 0.67101(12)
C37 C 0.7805(3) 0.5878(5) 0.64169(13)
H25 H 0.7416 0.6708 0.6397
C38 C 0.8521(3) 0.5629(5) 0.61539(14)
H26 H 0.8630 0.6308 0.5961
C39_2 C 0.9076(3) 0.4403(5) 0.61701(13)
C40_2 C 0.8914(3) 0.3428(5) 0.64606(14)
H27_2 H 0.9277 0.2574 0.6473
C41_2 C 0.8229(3) 0.3697(5) 0.67301(14)
H28_2 H 0.8149 0.3044 0.6932
C42_2 C 0.9833(3) 0.4172(5) 0.58824(15)
H29_2 H 0.9688 0.2070 0.5854
Ag3_2 Ag 0.76809(3) 0.47719(5) 0.977410(12)
N5_2 N 0.3600(3) 0.0058(5) 0.42346(12)
Ag2_2 Ag 0.91196(3) 0.96717(4) 0.474987(12)
I3_2 I 0.92127(2) 0.90704(4) 0.558698(10)
N6_2 N 0.9316(3) 0.7438(5) 0.45144(13)
C7_3 C 0.0304(3) 0.1393(5) 0.09342(12)
H5_3 H 0.0489 0.2210 0.0799
C8_3 C 0.0758(3) 0.1102(5) 0.12908(13)
H6_3 H 0.1250 0.1721 0.1397
C29_3 C 0.2282(3) 0.0379(5) 0.30771(13)
H19_3 H 0.1942 0.0804 0.3278
C30_3 C 0.1852(3) 0.0356(5) 0.27081(13)
H20_3 H 0.1222 0.0773 0.2658
C33_3 C 0.4571(4) 0.0282(5) 0.42727(15)
H22_3 H 0.4871 0.0428 0.4523
C34_3 C 0.5157(4) 0.0309(6) 0.39602(16)
H23_3 H 0.5847 0.0456 0.3998
C35_3 C 0.4730(3) 0.0122(5) 0.35946(14)
H24_3 H 0.5123 0.0129 0.3378
C36_3 C 0.2659(3) 0.0098(5) 0.17101(12)
C39_3 C 0.4076(3) 0.0597(5) 0.11701(13)
C40_3 C 0.3914(3) 0.1572(5) 0.14606(14)
H27_3 H 0.4277 0.2426 0.1473
C41_3 C 0.3229(3) 0.1303(5) 0.17301(14)
H28_3 H 0.3149 0.1956 0.1932
C42_3 C 0.4833(3) 0.0828(5) 0.08824(15)
C43_3 C 0.5033(4) 0.2162(6) 0.07505(15)
H29_3 H 0.4688 0.2930 0.0854
C44_3 C 0.6165(4) 0.1333(6) 0.03449(17)
H30_3 H 0.6623 0.1509 0.0155
C1_3 C 0.8873(3) 0.2199(6) 0.02757(13)
H1_3 H 0.9028 0.2931 0.0455
C2_3 C 0.9083(3) 0.0821(5) 0.03859(13)
C6_3 C 0.9578(3) 0.0505(5) 0.07682(13)
H11_3 H 0.8210 0.0182 0.2545
H12_3 H 0.9332 0.0849 0.2107
N1_3 N 0.8461(3) 0.2546(5) 0.99269(11)
C4_3 C 0.8382(3) 0.0122(6) 0.97691(14)
C5_3 C 0.8238(4) 0.1509(6) 0.96816(15)
H4_3 H 0.7965 0.1744 0.9432
N1_4 N 0.6539(3) 0.7546(5) 0.50731(11)
N2_3 N 0.8566(3) 0.3189(6) 0.18199(16)
C1_4 C 0.6127(3) 0.7199(6) 0.47243(13)
H1_4 H 0.5972 0.7931 0.4545
C2_4 C 0.5917(3) 0.5821(5) 0.46141(13)
C3_3 C 0.6184(3) 0.4771(6) 0.48769(14)
H2_3 H 0.6067 0.3812 0.4812
C4_4 C 0.6618(3) 0.5122(6) 0.52309(14)
H3_3 H 0.6814 0.4412 0.5412
C5_4 C 0.6762(4) 0.6509(6) 0.53184(15)
H4_4 H 0.7035 0.6744 0.5568
C6_4 C 0.5422(3) 0.5505(5) 0.42318(13)
C7_4 C 0.4696(3) 0.6393(5) 0.40658(12)
H5_4 H 0.4511 0.7210 0.4201
C8_4 C 0.4242(3) 0.6102(5) 0.37092(13)
H6_4 H 0.3750 0.6721 0.3603
C9_2 C 0.4496(3) 0.4912(5) 0.35026(12)
C10_3 C 0.5214(3) 0.4035(5) 0.36684(14)
H7_3 H 0.5403 0.3221 0.3533
C11_3 C 0.5664(3) 0.4317(5) 0.40280(14)
H8_3 H 0.6146 0.3685 0.4136
C12_2 C 0.4053(3) 0.4620(5) 0.31078(12)
C13_2 C 0.3087(3) 0.4799(5) 0.30000(13)
C14_2 C 0.4789(3) 0.4119(5) 0.28334(12)
C15_2 C 0.4700(3) 0.2840(5) 0.26487(13)
H9_2 H 0.4159 0.2244 0.2696
C16_3 C 0.5397(3) 0.2411(6) 0.23933(15)
H10_3 H 0.5336 0.1519 0.2272
C17_3 C 0.6188(3) 0.3296(6) 0.23165(14)
C18_3 C 0.6260(4) 0.4569(6) 0.25046(15)
H11_4 H 0.6790 0.5182 0.2455
C19_3 C 0.5587(3) 0.4977(5) 0.27626(14)
H12_4 H 0.5668 0.5849 0.2893
C20_3 C 0.6912(4) 0.2904(6) 0.20316(15)
C21_3 C 0.7888(4) 0.3406(6) 0.20768(17)
H13_3 H 0.8074 0.3928 0.2302
C22_3 C 0.8282(5) 0.2445(8) 0.15059(19)
H14_3 H 0.8750 0.2301 0.1317
C23_3 C 0.7364(5) 0.1880(9) 0.1439(2)
H15_3 H 0.7199 0.1346 0.1213
C24_3 C 0.6677(4) 0.2115(9) 0.17142(19)
H16_3 H 0.6036 0.1719 0.1679
C25_2 C 0.2674(3) 0.4731(5) 0.25946(13)
C26_2 C 0.1752(3) 0.4116(5) 0.25101(13)
H17_2 H 0.1415 0.3682 0.2710
C27_2 C 0.1320(3) 0.4128(5) 0.21387(13)
H18_2 H 0.0699 0.3687 0.2087
C28_2 C 0.1791(3) 0.4785(5) 0.18403(13)
C29_4 C 0.2718(3) 0.5379(5) 0.19229(13)
H19_4 H 0.3058 0.5804 0.1722
C30_4 C 0.3148(3) 0.5356(5) 0.22919(13)
H20_4 H 0.3778 0.5773 0.2342
C31_2 C 0.1282(3) 0.4923(5) 0.14529(13)
C32_2 C 0.1801(3) 0.4882(5) 0.11187(14)
H21_2 H 0.2491 0.4717 0.1146
C33_4 C 0.0429(4) 0.5282(5) 0.07273(15)
H22_4 H 0.0129 0.5428 0.0477
C35_4 C 0.0270(3) 0.5122(5) 0.14054(14)
C36_4 C 0.2341(3) 0.5098(5) 0.32899(12)
C37_2 C 0.2195(3) 0.4122(5) 0.35831(13)
H25_2 H 0.2584 0.3292 0.3603
C38_2 C 0.1479(3) 0.4371(5) 0.38461(14)
H26_2 H 0.1370 0.3692 0.4039
C39_4 C 0.0924(3) 0.5597(5) 0.38299(13)
C40_4 C 0.1086(3) 0.6572(5) 0.35394(14)
H27_4 H 0.0723 0.7426 0.3527
C41_4 C 0.1771(3) 0.6303(5) 0.32699(14)
H28_4 H 0.1851 0.6956 0.3068
C42_4 C 0.0167(3) 0.5828(5) 0.41176(15)
H29_4 H 0.0312 0.7930 0.4146
C34_4 C 0.9843(4) 0.5309(6) 0.10398(16)
H23_4 H 0.9153 0.5456 0.1002
H24_4 H 0.9877 0.5129 0.1622
C43_4 C 0.9967(4) 0.7162(6) 0.42495(15)
C44_4 C 0.8835(4) 0.6333(6) 0.46551(17)
H30_4 H 0.8377 0.6509 0.4845
C45_2 C 0.8963(4) 0.4989(6) 0.45427(18)
H31_2 H 0.8597 0.4248 0.4649
C46_2 C 0.9642(4) 0.4713(6) 0.42681(17)
H32_2 H 0.9747 0.3778 0.4184
C9_3 C 0.9496(3) 0.0088(5) 0.85026(12)
C12_3 C 0.9053(3) 0.0380(5) 0.81078(12)
C13_3 C 0.8087(3) 0.0201(5) 0.80000(13)
C14_3 C 0.9789(3) 0.0881(5) 0.78334(12)
C15_3 C 0.9700(3) 0.2160(5) 0.76487(13)
H9_3 H 0.9159 0.2756 0.7696
C25_3 C 0.7674(3) 0.0269(5) 0.75946(13)
C26_3 C 0.6752(3) 0.0884(5) 0.75101(13)
H17_3 H 0.6415 0.1318 0.7710
C27_3 C 0.6320(3) 0.0872(5) 0.71387(13)
H18_3 H 0.5699 0.1313 0.7087
C28_3 C 0.6791(3) 0.0215(5) 0.68403(13)
C31_3 C 0.6282(3) 0.0077(5) 0.64529(13)
C32_3 C 0.6801(3) 0.0118(5) 0.61187(14)
H21_3 H 0.7491 0.0283 0.6146
C37_3 C 0.7195(3) 0.0878(5) 0.85831(13)
H25_3 H 0.7584 0.1708 0.8603
C38_3 C 0.6479(3) 0.0629(5) 0.88461(14)
H26_3 H 0.6370 0.1308 0.9039
C45_3 C 0.3963(4) 0.0011(6) 0.95427(18)
H31_3 H 0.3597 0.0752 0.9649
C46_3 C 0.4642(4) 0.0287(6) 0.92681(17)
H32_3 H 0.4747 0.1222 0.9184
I2_2 I 0.25277(2) 0.86688(4) 0.542201(11)
I4_2 I 0.74723(2) 0.13312(4) 0.457799(11)
C9_4 C 0.0504(3) 0.9912(5) 0.14974(12)
C12_4 C 0.0947(3) 0.9620(5) 0.18922(12)
C13_4 C 0.1913(3) 0.9799(5) 0.20000(13)
C14_4 C 0.0211(3) 0.9119(5) 0.21666(12)
C15_4 C 0.0300(3) 0.7840(5) 0.23513(13)
H9_4 H 0.0841 0.7244 0.2304
C25_4 C 0.2326(3) 0.9731(5) 0.24054(13)
C26_4 C 0.3248(3) 0.9116(5) 0.24899(13)
H17_4 H 0.3585 0.8682 0.2290
C27_4 C 0.3680(3) 0.9128(5) 0.28613(13)
H18_4 H 0.4301 0.8687 0.2913
C28_4 C 0.3209(3) 0.9785(5) 0.31597(13)
C31_4 C 0.3718(3) 0.9923(5) 0.35471(13)
C32_4 C 0.3199(3) 0.9882(5) 0.38813(14)
H21_4 H 0.2509 0.9717 0.3854
C37_4 C 0.2805(3) 0.9122(5) 0.14169(13)
H25_4 H 0.2416 0.8292 0.1397
C38_4 C 0.3521(3) 0.9371(5) 0.11539(14)
H26_4 H 0.3630 0.8692 0.0961
C45_4 C 0.6037(4) 0.9989(6) 0.04573(18)
H31_4 H 0.6403 0.9248 0.0351
C46_4 C 0.5358(4) 0.9713(6) 0.07319(17)
H32_4 H 0.5253 0.8778 0.0816
N2_4 N 0.6434(3) 0.8189(6) 0.31801(16)
C3_4 C 0.8816(3) 0.9771(6) 0.01231(14)
H2_4 H 0.8933 0.8812 0.0188
C10_4 C 0.9786(3) 0.9035(5) 0.13316(14)
H7_4 H 0.9597 0.8221 0.1467
C11_4 C 0.9336(3) 0.9317(5) 0.09720(14)
H8_4 H 0.8854 0.8685 0.0864
C16_4 C 0.9603(3) 0.7411(6) 0.26067(15)
H10_4 H 0.9664 0.6519 0.2728
C17_4 C 0.8812(3) 0.8296(6) 0.26835(14)
C18_4 C 0.8740(4) 0.9569(6) 0.24954(15)
C19_4 C 0.9413(3) 0.9977(5) 0.22374(14)
C20_4 C 0.8088(4) 0.7904(6) 0.29684(15)
C21_4 C 0.7112(4) 0.8406(6) 0.29232(17)
H13_4 H 0.6926 0.8928 0.2698
C22_4 C 0.6718(5) 0.7445(8) 0.34941(19)
H14_4 H 0.6250 0.7301 0.3683
C23_4 C 0.7636(5) 0.6880(9) 0.3561(2)
H15_4 H 0.7801 0.6346 0.3787
C24_4 C 0.8323(4) 0.7115(9) 0.32858(19)
H16_4 H 0.8964 0.6719 0.3321
H3_4 H 0.8186 0.9412 0.9588
loop_
_geom_bond_atom_site_label_1
_geom_bond_atom_site_label_2
_geom_bond_site_symmetry_1
_geom_bond_site_symmetry_2
N2 C21 1_555 1_555
H2 C3 1_555 1_555
H7 C10 1_555 1_555
H8 C11 1_555 1_555
H10 C16 1_555 1_555
C17 C16 1_555 1_555
C18 C17 1_555 1_555
C20 C17 1_555 1_555
C21 C20 1_555 1_555
H13 C21 1_555 1_555
C22 N2 1_555 1_555
H14 C22 1_555 1_555
C23 C22 1_555 1_555
H15 C23 1_555 1_555
C24 C20 1_555 1_555
H16 C24 1_555 1_555
C10 C11 1_555 1_555
C18 C19 1_555 1_555
C23 C24 1_555 1_555
Ag1 I1 1_555 1_555
Ag2 I1 1_555 1_555
N1 Ag1 1_555 1_555
C5 N1 1_555 1_555
H4 C5 1_555 1_555
I4 Ag2 1_555 1_555
N5 Ag1 1_555 1_555
N6 Ag2 1_555 1_555
C4 C5 1_555 1_555
H1 C1 1_555 1_555
C2 C1 1_555 1_555
C6 C2 1_555 1_555
Ag5 I2 1_555 1_555
Ag5 I3 1_555 1_555
N4 C43 1_555 1_555
H5 C7 1_555 1_555
C8 C7 1_555 1_555
H6 C8 1_555 1_555
H19 C29 1_555 1_555
H20 C30 1_555 1_555
C33 N3 1_555 1_555
H22 C33 1_555 1_555
C34 C33 1_555 1_555
H23 C34 1_555 1_555
H24 C35 1_555 1_555
C40 C39 1_555 1_555
H27 C40 1_555 1_555
C41 C36 1_555 1_555
H28 C41 1_555 1_555
C42 C39 1_555 1_555
C43 C42 1_555 1_555
H29 C43 1_555 1_555
C44 N4 1_555 1_555
H30 C44 1_555 1_555
Ag3 N3 1_555 1_555
Ag5 N4 1_555 1_555
C29 C30 1_555 1_555
C34 C35 1_555 1_555
C40 C41 1_555 1_555
N4_2 C43_2 1_555 1_555
H23_2 C34_2 1_555 1_555
C44_2 N4_2 1_555 1_555
H30_2 C44_2 1_555 1_555
C45 C44_2 1_555 1_555
H31 C45 1_555 1_555
H32 C46 1_555 1_555
Ag4 N4_2 1_555 1_555
C45 C46 1_555 1_555
Ag1_2 I1_2 1_555 1_555
I1_2 Ag4 1_555 1_555
N1_2 Ag1_2 1_555 1_555
N2_2 C21_2 1_555 1_555
N3_2 C32 1_555 1_555
C1_2 N1_2 1_555 1_555
H1_2 C1_2 1_555 1_555
C2_2 C1_2 1_555 1_555
C3_2 C2_2 1_555 1_555
H2_2 C3_2 1_555 1_555
C4_2 C3_2 1_555 1_555
H3_2 C4_2 1_555 1_555
C5_2 N1_2 1_555 1_555
H4_2 C5_2 1_555 1_555
C6_2 C2_2 1_555 1_555
C7_2 C6_2 1_555 1_555
H5_2 C7_2 1_555 1_555
C8_2 C7_2 1_555 1_555
H6_2 C8_2 1_555 1_555
C9 C8_2 1_555 1_555
C10_2 C9 1_555 1_555
H7_2 C10_2 1_555 1_555
C11_2 C6_2 1_555 1_555
H8_2 C11_2 1_555 1_555
C12 C9 1_555 1_555
C13 C12 1_555 1_555
C14 C12 1_555 1_555
C15 C14 1_555 1_555
H9 C15 1_555 1_555
C16_2 C15 1_555 1_555
H10_2 C16_2 1_555 1_555
C17_2 C16_2 1_555 1_555
C18_2 C17_2 1_555 1_555
H11_2 C18_2 1_555 1_555
C19_2 C14 1_555 1_555
H12_2 C19_2 1_555 1_555
C20_2 C17_2 1_555 1_555
C21_2 C20_2 1_555 1_555
H13_2 C21_2 1_555 1_555
C22_2 N2_2 1_555 1_555
H14_2 C22_2 1_555 1_555
C23_2 C22_2 1_555 1_555
H15_2 C23_2 1_555 1_555
C24_2 C20_2 1_555 1_555
H16_2 C24_2 1_555 1_555
C25 C13 1_555 1_555
C26 C25 1_555 1_555
H17 C26 1_555 1_555
C27 C26 1_555 1_555
H18 C27 1_555 1_555
C28 C27 1_555 1_555
C29_2 C28 1_555 1_555
H19_2 C29_2 1_555 1_555
C30_2 C25 1_555 1_555
H20_2 C30_2 1_555 1_555
C31 C28 1_555 1_555
C32 C31 1_555 1_555
H21 C32 1_555 1_555
C33_2 N3_2 1_555 1_555
H22_2 C33_2 1_555 1_555
C35_2 C31 1_555 1_555
C36_2 C13 1_555 1_555
C37 C36_2 1_555 1_555
H25 C37 1_555 1_555
C38 C37 1_555 1_555
H26 C38 1_555 1_555
C39_2 C38 1_555 1_555
C40_2 C39_2 1_555 1_555
H27_2 C40_2 1_555 1_555
C41_2 C36_2 1_555 1_555
H28_2 C41_2 1_555 1_555
C42_2 C39_2 1_555 1_555
Ag3_2 N3_2 1_555 1_555
N5_2 Ag1_2 1_555 1_555
C4_2 C5_2 1_555 1_555
C10_2 C11_2 1_555 1_555
C18_2 C19_2 1_555 1_555
C23_2 C24_2 1_555 1_555
C29_2 C30_2 1_555 1_555
C40_2 C41_2 1_555 1_555
I3_2 Ag2_2 1_555 1_555
N6_2 Ag2_2 1_555 1_555
N6 C43_3 1_555 1_555
H5_3 C7_3 1_555 1_555
C8_3 C7_3 1_555 1_555
H6_3 C8_3 1_555 1_555
H19_3 C29_3 1_555 1_555
H20_3 C30_3 1_555 1_555
C33_3 N5_2 1_555 1_555
H22_3 C33_3 1_555 1_555
C34_3 C33_3 1_555 1_555
H23_3 C34_3 1_555 1_555
H24_3 C35_3 1_555 1_555
C40_3 C39_3 1_555 1_555
H27_3 C40_3 1_555 1_555
C41_3 C36_3 1_555 1_555
H28_3 C41_3 1_555 1_555
C42_3 C39_3 1_555 1_555
C43_3 C42_3 1_555 1_555
H29_3 C43_3 1_555 1_555
C44_3 N6 1_555 1_555
H30_3 C44_3 1_555 1_555
C29_3 C30_3 1_555 1_555
C34_3 C35_3 1_555 1_555
C40_3 C41_3 1_555 1_555
H1_3 C1_3 1_555 1_555
C2_3 C1_3 1_555 1_555
C6_3 C2_3 1_555 1_555
Ag3_2 I3 1_555 1_555
N1_3 Ag3_2 1_555 1_555
C5_3 N1_3 1_555 1_555
H4_3 C5_3 1_555 1_555
C4_3 C5_3 1_555 1_555
Ag3 I3_2 1_555 1_555
N1_4 Ag3 1_555 1_555
N2_3 C21_3 1_555 1_555
N5 C32_2 1_555 1_555
C1_4 N1_4 1_555 1_555
H1_4 C1_4 1_555 1_555
C2_4 C1_4 1_555 1_555
C3_3 C2_4 1_555 1_555
H2_3 C3_3 1_555 1_555
C4_4 C3_3 1_555 1_555
H3_3 C4_4 1_555 1_555
C5_4 N1_4 1_555 1_555
H4_4 C5_4 1_555 1_555
C6_4 C2_4 1_555 1_555
C7_4 C6_4 1_555 1_555
H5_4 C7_4 1_555 1_555
C8_4 C7_4 1_555 1_555
H6_4 C8_4 1_555 1_555
C9_2 C8_4 1_555 1_555
C10_3 C9_2 1_555 1_555
H7_3 C10_3 1_555 1_555
C11_3 C6_4 1_555 1_555
H8_3 C11_3 1_555 1_555
C12_2 C9_2 1_555 1_555
C13_2 C12_2 1_555 1_555
C14_2 C12_2 1_555 1_555
C15_2 C14_2 1_555 1_555
H9_2 C15_2 1_555 1_555
C16_3 C15_2 1_555 1_555
H10_3 C16_3 1_555 1_555
C17_3 C16_3 1_555 1_555
C18_3 C17_3 1_555 1_555
H11_4 C18_3 1_555 1_555
C19_3 C14_2 1_555 1_555
H12_4 C19_3 1_555 1_555
C20_3 C17_3 1_555 1_555
C21_3 C20_3 1_555 1_555
H13_3 C21_3 1_555 1_555
C22_3 N2_3 1_555 1_555
H14_3 C22_3 1_555 1_555
C23_3 C22_3 1_555 1_555
H15_3 C23_3 1_555 1_555
C24_3 C20_3 1_555 1_555
H16_3 C24_3 1_555 1_555
C25_2 C13_2 1_555 1_555
C26_2 C25_2 1_555 1_555
H17_2 C26_2 1_555 1_555
C27_2 C26_2 1_555 1_555
H18_2 C27_2 1_555 1_555
C28_2 C27_2 1_555 1_555
C29_4 C28_2 1_555 1_555
H19_4 C29_4 1_555 1_555
C30_4 C25_2 1_555 1_555
H20_4 C30_4 1_555 1_555
C31_2 C28_2 1_555 1_555
C32_2 C31_2 1_555 1_555
H21_2 C32_2 1_555 1_555
C33_4 N5 1_555 1_555
H22_4 C33_4 1_555 1_555
C35_4 C31_2 1_555 1_555
C36_4 C13_2 1_555 1_555
C37_2 C36_4 1_555 1_555
H25_2 C37_2 1_555 1_555
C38_2 C37_2 1_555 1_555
H26_2 C38_2 1_555 1_555
C39_4 C38_2 1_555 1_555
C40_4 C39_4 1_555 1_555
H27_4 C40_4 1_555 1_555
C41_4 C36_4 1_555 1_555
H28_4 C41_4 1_555 1_555
C42_4 C39_4 1_555 1_555
C4_4 C5_4 1_555 1_555
C10_3 C11_3 1_555 1_555
C18_3 C19_3 1_555 1_555
C23_3 C24_3 1_555 1_555
C29_4 C30_4 1_555 1_555
C40_4 C41_4 1_555 1_555
N6_2 C43_4 1_555 1_555
H23_4 C34_4 1_555 1_555
C44_4 N6_2 1_555 1_555
H30_4 C44_4 1_555 1_555
C45_2 C44_4 1_555 1_555
H31_2 C45_2 1_555 1_555
H32_2 C46_2 1_555 1_555
C45_2 C46_2 1_555 1_555
C12_3 C9_3 1_555 1_555
C13_3 C12_3 1_555 1_555
C14_3 C12_3 1_555 1_555
C15_3 C14_3 1_555 1_555
H9_3 C15_3 1_555 1_555
C25_3 C13_3 1_555 1_555
C26_3 C25_3 1_555 1_555
H17_3 C26_3 1_555 1_555
C27_3 C26_3 1_555 1_555
H18_3 C27_3 1_555 1_555
C28_3 C27_3 1_555 1_555
C31_3 C28_3 1_555 1_555
C32_3 C31_3 1_555 1_555
H21_3 C32_3 1_555 1_555
H25_3 C37_3 1_555 1_555
C38_3 C37_3 1_555 1_555
H26_3 C38_3 1_555 1_555
H31_3 C45_3 1_555 1_555
H32_3 C46_3 1_555 1_555
C45_3 C46_3 1_555 1_555
C12_4 C9_4 1_555 1_555
C13_4 C12_4 1_555 1_555
C14_4 C12_4 1_555 1_555
C15_4 C14_4 1_555 1_555
H9_4 C15_4 1_555 1_555
C25_4 C13_4 1_555 1_555
C26_4 C25_4 1_555 1_555
H17_4 C26_4 1_555 1_555
C27_4 C26_4 1_555 1_555
H18_4 C27_4 1_555 1_555
C28_4 C27_4 1_555 1_555
C31_4 C28_4 1_555 1_555
C32_4 C31_4 1_555 1_555
H21_4 C32_4 1_555 1_555
H25_4 C37_4 1_555 1_555
C38_4 C37_4 1_555 1_555
H26_4 C38_4 1_555 1_555
H31_4 C45_4 1_555 1_555
H32_4 C46_4 1_555 1_555
C45_4 C46_4 1_555 1_555
N2_4 C21_4 1_555 1_555
H2_4 C3_4 1_555 1_555
H7_4 C10_4 1_555 1_555
H8_4 C11_4 1_555 1_555
H10_4 C16_4 1_555 1_555
C17_4 C16_4 1_555 1_555
C18_4 C17_4 1_555 1_555
C20_4 C17_4 1_555 1_555
C21_4 C20_4 1_555 1_555
H13_4 C21_4 1_555 1_555
C22_4 N2_4 1_555 1_555
H14_4 C22_4 1_555 1_555
C23_4 C22_4 1_555 1_555
H15_4 C23_4 1_555 1_555
C24_4 C20_4 1_555 1_555
H16_4 C24_4 1_555 1_555
C10_4 C11_4 1_555 1_555
C18_4 C19_4 1_555 1_555
C23_4 C24_4 1_555 1_555

#END
