
###############################################################################
#
# This file contains modified crystal structure data generated from the
# MOF subset of the Cambridge Structural Database (CSD) v543 
# hosted by the Cambridge Crystallographic Data Centre (CCDC).
#
# This work is licensed under the Creative Commons
# Attribution-NonCommercial-ShareAlike 4.0 International License.
# To view a copy of this license, visit
# http://creativecommons.org/licenses/by-nc-sa/4.0/
# or send a letter to
# Creative Commons, PO Box 1866, Mountain View, CA 94042, USA.
#
# CIF created using the CSD Python API on 29 September 2022
# The structure has been converted into the P1 space group
# The structure has a 3D framework
# The original CSD entry VOYTAH is in the monoclinic crystal system
# The framework has been calculated to contain at least 10.0% void space
# The void calculation uses a probe of radius 1.32A, grid spacing 0.4
#
###############################################################################

data_VOYTAH
_chemical_formula_moiety         '(C464 H352 Cd16 N32 O62)n'
_symmetry_cell_setting           triclinic
_symmetry_space_group_name_H-M   'P 1'
_symmetry_Int_Tables_number      1
_space_group_name_Hall           'P 1'
loop_
_symmetry_equiv_pos_site_id
_symmetry_equiv_pos_as_xyz
1 x,y,z
_cell_length_a                   30.7125(11)
_cell_length_b                   27.1396(13)
_cell_length_c                   15.0810(6)
_cell_angle_alpha                90
_cell_angle_beta                 112.086(4)
_cell_angle_gamma                90
_cell_volume                     11648
loop_
_atom_site_label
_atom_site_type_symbol
_atom_site_fract_x
_atom_site_fract_y
_atom_site_fract_z
C49 C 0.00654(8) 0.00556(10) 0.09612(18)
H40 H 0.011022 0.009205 0.160284
C88 C 0.58109(12) 0.27286(14) 0.1205(2)
H67 H 0.609510 0.260223 0.121957
C89 C 0.54738(12) 0.24007(14) 0.1235(3)
H68 H 0.553593 0.206425 0.127628
C90 C 0.50419(12) 0.25708(15) 0.1204(2)
C91 C 0.49887(11) 0.30776(16) 0.1143(2)
H69 H 0.470613 0.321420 0.111494
C92 C 0.53371(10) 0.33829(14) 0.1122(2)
H70 H 0.528283 0.372080 0.108261
C93 C 0.46992(12) 0.22185(18) 0.1255(3)
H71 H 0.476981 0.188759 0.122136
C94 C 0.43069(16) 0.2314(2) 0.1343(3)
H72 H 0.422813 0.264372 0.135379
C95 C 0.39524(15) 0.1926(2) 0.1433(3)
C96 C 0.4055(2) 0.1426(2) 0.1389(4)
H73 H 0.432959 0.130397 0.134586
C97 C 0.36512(17) 0.1110(3) 0.1421(4)
H74 H 0.367663 0.076966 0.138592
C98 C 0.32789(16) 0.1285(2) 0.1494(4)
C99 C 0.32240(19) 0.1804(3) 0.1656(5)
C100 C 0.35504(14) 0.2130(3) 0.1543(4)
H75 H 0.350609 0.246901 0.153958
C101 C 0.2787(3) 0.2040(4) 0.1936(8)
H76 H 0.289601 0.233203 0.231479
H77 H 0.252701 0.212188 0.135942
H78 H 0.268931 0.180202 0.229329
C102 C 0.29191(18) 0.09360(16) 0.1564(4)
H79 H 0.264927 0.108156 0.158591
C103 C 0.29272(17) 0.04811(14) 0.1597(3)
H80 H 0.320945 0.033928 0.163608
C104 C 0.25578(12) 0.01246(15) 0.1584(2)
C108 C 0.21077(12) 0.02224(15) 0.1507(3)
H84 H 0.200282 0.054631 0.146387
N8 N 0.57530(8) 0.32186(10) 0.11547(17)
Cd7 Cd 0.63975(2) 0.37374(2) 0.14036(2)
C69 C 0.25255(11) 0.00316(14) 0.9095(2)
C70 C 0.21010(12) 0.01825(14) 0.9025(3)
H51 H 0.204804 0.051876 0.904818
C72 C 0.29016(15) 0.03361(13) 0.9113(3)
H53 H 0.318507 0.017265 0.924273
C73 C 0.29147(16) 0.07701(16) 0.8990(4)
H54 H 0.263155 0.092884 0.888774
C74 C 0.32949(8) 0.11109(12) 0.89657(15)
C75 C 0.37253(9) 0.09306(14) 0.9004(2)
H55 H 0.378676 0.059429 0.907352
C76 C 0.40637(9) 0.12530(19) 0.8939(3)
H56 H 0.435166 0.113231 0.896501
C77 C 0.39718(14) 0.17556(18) 0.8836(3)
C78 C 0.35415(16) 0.19360(13) 0.8797(3)
H57 H 0.347997 0.227230 0.872784
C79 C 0.32030(11) 0.16136(12) 0.8862(2)
C80 C 0.27259(17) 0.1841(3) 0.8912(6)
H58 H 0.277554 0.218102 0.909829
H59 H 0.247675 0.181583 0.829438
H60 H 0.264218 0.166107 0.937265
C81 C 0.43218(16) 0.2110(2) 0.8747(4)
H61 H 0.421342 0.243279 0.865111
C82 C 0.47277(14) 0.2065(2) 0.8773(3)
H62 H 0.484747 0.174662 0.882123
C83 C 0.50373(11) 0.24733(16) 0.8735(2)
C84 C 0.49265(11) 0.29448(14) 0.8709(2)
H63 H 0.463835 0.303275 0.873185
C85 C 0.52188(9) 0.33019(14) 0.8648(2)
H64 H 0.511790 0.362699 0.861435
C86 C 0.57663(12) 0.27538(14) 0.8674(2)
H65 H 0.606122 0.268493 0.866499
C87 C 0.54899(13) 0.23618(16) 0.8728(3)
H66 H 0.559482 0.203841 0.875873
N6 N 0.56376(8) 0.32188(10) 0.86351(16)
Cd12 Cd 0.61380(2) 0.38554(2) 0.86161(2)
C59 C 0.03804(8) 0.97849(10) 0.07032(17)
H45 H 0.063765 0.963873 0.117495
O10 O 0.09558(6) 0.91797(8) 0.00574(13)
C105 C 0.26764(12) 0.96377(16) 0.1648(3)
H81 H 0.297791 0.955114 0.169942
C106 C 0.23712(10) 0.92755(14) 0.1640(3)
H82 H 0.247142 0.894969 0.169198
C107 C 0.18122(12) 0.98423(13) 0.1493(2)
H83 H 0.150718 0.991838 0.143349
C109 C 0.13497(10) 0.88049(12) 0.31602(19)
C110 C 0.15647(11) 0.84578(14) 0.4798(2)
H85 H 0.177612 0.825289 0.466819
C111 C 0.12911(9) 0.87874(12) 0.41100(19)
C112 C 0.09679(10) 0.90725(12) 0.42958(19)
H86 H 0.077777 0.928694 0.382992
C113 C 0.09220(9) 0.90436(12) 0.51749(18)
H87 H 0.070071 0.923901 0.529233
C114 C 0.12043(9) 0.87242(11) 0.58868(18)
C115 C 0.15206(10) 0.84352(13) 0.56937(19)
H88 H 0.170989 0.822016 0.615945
C116 C 0.11681(10) 0.87177(12) 0.6840(2)
Cd3 Cd 0.13975(2) 0.87374(2) 0.14036(2)
N7 N 0.19371(8) 0.93693(10) 0.15609(16)
O13 O 0.11118(7) 0.91043(8) 0.25506(13)
O14 O 0.16373(7) 0.85216(10) 0.30319(14)
O15 O 0.08766(8) 0.89856(10) 0.69892(14)
O16 O 0.14161(7) 0.84242(9) 0.74667(14)
Cd10 Cd 0.11380(2) 0.88554(2) 0.86161(2)
N12 N 0.07530(8) 0.82186(10) 0.11547(17)
O18 O 0.19069(7) 0.80985(8) 0.13975(14)
C60 C 0.03167(8) 0.97285(10) 0.97419(17)
C62 C 0.06592(8) 0.94422(11) 0.94618(19)
O9 O 0.06304(6) 0.94668(8) 0.86139(13)
C67 C 0.22072(10) 0.92021(15) 0.9008(3)
H49 H 0.225683 0.886408 0.900849
C68 C 0.25722(11) 0.95204(18) 0.9113(3)
H50 H 0.286470 0.938765 0.920157
C71 C 0.17333(11) 0.98586(13) 0.8918(3)
H52 H 0.144255 0.998821 0.885332
N5 N 0.17797(8) 0.93730(10) 0.89056(17)
N10 N 0.06376(8) 0.82188(10) 0.86351(16)
O17 O 0.16399(7) 0.84303(8) 0.99880(15)
C1 C 0.77928(10) 0.07979(15) 0.0992(3)
H1 H 0.774317 0.113592 0.099151
C2 C 0.74278(11) 0.04796(18) 0.0887(3)
H2 H 0.713530 0.061235 0.079843
C5 C 0.82667(11) 0.01414(13) 0.1082(3)
H4 H 0.855745 0.001179 0.114668
C48 C 0.96833(8) 0.02715(10) 0.02581(17)
C54 C 0.93408(8) 0.05578(11) 0.05382(19)
C57 C 0.75479(9) 0.25268(11) 0.09513(18)
H43 H 0.758100 0.254117 0.158962
C58 C 0.78420(9) 0.22248(11) 0.06757(19)
H44 H 0.807395 0.204127 0.113547
Cd2 Cd 0.88620(2) 0.11446(2) 0.13839(2)
N1 N 0.82203(8) 0.06270(10) 0.10944(17)
O1 O 0.83601(7) 0.15697(8) 0.00120(15)
O5 O 0.93696(6) 0.05332(8) 0.13861(13)
C63 C 0.68968(8) 0.31314(11) 0.05696(19)
C64 C 0.72062(8) 0.28054(10) 0.02698(17)
O12 O 0.69069(7) 0.30985(8) 0.13975(14)
N9 N 0.93624(8) 0.17812(10) 0.13649(16)
O19 O 0.91234(8) 0.10144(10) 0.30108(14)
O21 O 0.85839(7) 0.15758(9) 0.25333(14)
C39 C 0.73236(12) 0.03623(16) 0.8352(3)
H33 H 0.702209 0.044886 0.830058
C40 C 0.76288(10) 0.07245(14) 0.8360(3)
H34 H 0.752858 0.105031 0.830802
C41 C 0.81878(12) 0.01577(13) 0.8507(2)
H35 H 0.849282 0.008162 0.856651
C43 C 0.86503(10) 0.11951(12) 0.68398(19)
C44 C 0.84353(11) 0.15422(14) 0.5202(2)
H37 H 0.822388 0.174711 0.533181
C45 C 0.87089(9) 0.12126(12) 0.58900(19)
C46 C 0.90321(10) 0.09275(12) 0.57042(19)
H38 H 0.922223 0.071306 0.617008
C47 C 0.96196(8) 0.02151(10) 0.92968(17)
H39 H 0.936235 0.036127 0.882505
C50 C 0.90780(9) 0.09564(12) 0.48251(18)
H41 H 0.929929 0.076099 0.470767
C51 C 0.87957(9) 0.12758(11) 0.41132(18)
C52 C 0.84794(10) 0.15648(13) 0.43063(19)
H42 H 0.829011 0.177984 0.384055
C53 C 0.88319(10) 0.12823(12) 0.3160(2)
C55 C 0.81032(8) 0.18686(11) 0.94304(19)
C56 C 0.77938(8) 0.21946(10) 0.97302(17)
Cd1 Cd 0.86025(2) 0.12626(2) 0.85964(2)
N3 N 0.80629(8) 0.06307(10) 0.84391(16)
O2 O 0.80931(7) 0.19015(8) 0.86025(14)
O3 O 0.88882(7) 0.08957(8) 0.74494(13)
O4 O 0.83627(7) 0.14784(10) 0.69681(14)
O6 O 0.90442(6) 0.08203(8) 0.99426(13)
C65 C 0.74521(9) 0.24732(11) 0.90487(18)
H47 H 0.741900 0.245883 0.841038
C66 C 0.71580(9) 0.27752(11) 0.93243(19)
H48 H 0.692605 0.295873 0.886453
O11 O 0.66399(7) 0.34303(8) 0.99880(15)
N11 N 0.92470(8) 0.17814(10) 0.88453(17)
C3 C 0.74745(11) 0.99684(14) 0.0905(2)
C4 C 0.78990(12) 0.98175(14) 0.0975(3)
H3 H 0.795196 0.948124 0.095182
C6 C 0.70984(15) 0.96639(13) 0.0887(3)
H5 H 0.681493 0.982735 0.075727
C7 C 0.70853(16) 0.92299(16) 0.1010(4)
H6 H 0.736845 0.907116 0.111226
C8 C 0.67051(8) 0.88891(12) 0.10343(15)
C9 C 0.62747(9) 0.90694(14) 0.0996(2)
H7 H 0.621324 0.940571 0.092648
C10 C 0.59363(9) 0.87470(19) 0.1061(3)
H8 H 0.564834 0.886769 0.103499
C11 C 0.60282(14) 0.82444(18) 0.1164(3)
C12 C 0.64585(16) 0.80640(13) 0.1203(3)
H9 H 0.652003 0.772770 0.127216
C13 C 0.67970(11) 0.83864(12) 0.1138(2)
C14 C 0.72741(17) 0.8159(3) 0.1088(6)
H10 H 0.722446 0.781898 0.090171
H11 H 0.752325 0.818417 0.170562
H12 H 0.735782 0.833893 0.062735
C15 C 0.56782(16) 0.7890(2) 0.1253(4)
H13 H 0.578658 0.756721 0.134889
C16 C 0.52723(14) 0.7935(2) 0.1227(3)
H14 H 0.515253 0.825338 0.117877
C17 C 0.49627(11) 0.75267(16) 0.1265(2)
C18 C 0.50735(11) 0.70552(14) 0.1291(2)
H15 H 0.536165 0.696725 0.126815
C19 C 0.47812(9) 0.66981(14) 0.1352(2)
H16 H 0.488210 0.637301 0.138565
C20 C 0.42337(12) 0.72462(14) 0.1326(2)
H17 H 0.393878 0.731507 0.133501
C21 C 0.45101(13) 0.76382(16) 0.1272(3)
H18 H 0.440518 0.796159 0.124127
N2 N 0.43624(8) 0.67812(10) 0.13649(16)
Cd9 Cd 0.38620(2) 0.61446(2) 0.13839(2)
C22 C 0.41891(12) 0.72714(14) 0.8795(2)
H19 H 0.390490 0.739777 0.878043
C23 C 0.45262(12) 0.75993(14) 0.8765(3)
H20 H 0.446407 0.793575 0.872372
C24 C 0.49581(12) 0.74292(15) 0.8796(2)
C25 C 0.50113(11) 0.69224(16) 0.8857(2)
H21 H 0.529387 0.678580 0.888506
C26 C 0.46629(10) 0.66171(14) 0.8878(2)
H22 H 0.471717 0.627920 0.891739
C27 C 0.53008(12) 0.77815(18) 0.8745(3)
H23 H 0.523019 0.811241 0.877864
C28 C 0.56931(16) 0.7686(2) 0.8657(3)
H24 H 0.577187 0.735628 0.864621
C29 C 0.60476(15) 0.8074(2) 0.8567(3)
C30 C 0.5945(2) 0.8574(2) 0.8611(4)
H25 H 0.567041 0.869603 0.865414
C31 C 0.63488(17) 0.8890(3) 0.8579(4)
H26 H 0.632337 0.923034 0.861408
C32 C 0.67211(16) 0.8715(2) 0.8506(4)
C33 C 0.67760(19) 0.8196(3) 0.8344(5)
C34 C 0.64496(14) 0.7870(3) 0.8457(4)
H27 H 0.649391 0.753099 0.846042
C35 C 0.7213(3) 0.7960(4) 0.8064(8)
H28 H 0.710399 0.766797 0.768521
H29 H 0.747299 0.787812 0.864058
H30 H 0.731069 0.819798 0.770671
C36 C 0.70809(18) 0.90640(16) 0.8436(4)
H31 H 0.735073 0.891844 0.841409
C37 C 0.70728(17) 0.95189(14) 0.8403(3)
H32 H 0.679055 0.966072 0.836392
C38 C 0.74422(12) 0.98754(15) 0.8416(2)
C42 C 0.78923(12) 0.97776(15) 0.8493(3)
H36 H 0.799718 0.945369 0.853613
N4 N 0.42470(8) 0.67814(10) 0.88453(17)
C61 C 0.99346(8) 0.99444(10) 0.90388(18)
H46 H 0.988978 0.990795 0.839716
Cd5 Cd 0.36025(2) 0.62626(2) 0.85964(2)
C88_2 C 0.08109(12) 0.77286(14) 0.1205(2)
H67_2 H 0.109510 0.760223 0.121957
C89_2 C 0.04738(12) 0.74007(14) 0.1235(3)
H68_2 H 0.053593 0.706425 0.127628
C90_2 C 0.00419(12) 0.75708(15) 0.1204(2)
C92_2 C 0.03371(10) 0.83829(14) 0.1122(2)
H70_2 H 0.028283 0.872080 0.108261
C83_2 C 0.00373(11) 0.74733(16) 0.8735(2)
C85_2 C 0.02188(9) 0.83019(14) 0.8648(2)
H64_2 H 0.011790 0.862699 0.861435
C86_2 C 0.07663(12) 0.77538(14) 0.8674(2)
H65_2 H 0.106122 0.768493 0.866499
C87_2 C 0.04899(13) 0.73618(16) 0.8728(3)
H66_2 H 0.059482 0.703841 0.875873
C1_2 C 0.27928(10) 0.57979(15) 0.0992(3)
H1_2 H 0.274317 0.613592 0.099151
C2_2 C 0.24278(11) 0.54796(18) 0.0887(3)
H2_2 H 0.213530 0.561235 0.079843
C3_2 C 0.24745(11) 0.49684(14) 0.0905(2)
C4_2 C 0.28990(12) 0.48175(14) 0.0975(3)
H3_2 H 0.295196 0.448124 0.095182
C5_2 C 0.32667(11) 0.51414(13) 0.1082(3)
H4_2 H 0.355745 0.501179 0.114668
C6_2 C 0.20984(15) 0.46639(13) 0.0887(3)
H5_2 H 0.181493 0.482735 0.075727
C7_2 C 0.20853(16) 0.42299(16) 0.1010(4)
H6_2 H 0.236845 0.407116 0.111226
C8_2 C 0.17051(8) 0.38891(12) 0.10343(15)
C9_2 C 0.12747(9) 0.40694(14) 0.0996(2)
H7_2 H 0.121324 0.440571 0.092648
C10_2 C 0.09363(9) 0.37470(19) 0.1061(3)
H8_2 H 0.064834 0.386769 0.103499
C11_2 C 0.10282(14) 0.32444(18) 0.1164(3)
C12_2 C 0.14585(16) 0.30640(13) 0.1203(3)
H9_2 H 0.152003 0.272770 0.127216
C13_2 C 0.17970(11) 0.33864(12) 0.1138(2)
C14_2 C 0.22741(17) 0.3159(3) 0.1088(6)
H10_2 H 0.222446 0.281898 0.090171
H11_2 H 0.252325 0.318417 0.170562
H12_2 H 0.235782 0.333893 0.062735
C15_2 C 0.06782(16) 0.2890(2) 0.1253(4)
H13_2 H 0.078658 0.256721 0.134889
C16_2 C 0.02723(14) 0.2935(2) 0.1227(3)
H14_2 H 0.015253 0.325338 0.117877
C18_2 C 0.00735(11) 0.20552(14) 0.1291(2)
H15_2 H 0.036165 0.196725 0.126815
C48_2 C 0.46833(8) 0.52715(10) 0.02581(17)
C49_2 C 0.50654(8) 0.50556(10) 0.09612(18)
H40_2 H 0.511022 0.509205 0.160284
C54_2 C 0.43408(8) 0.55578(11) 0.05382(19)
C57_2 C 0.25479(9) 0.75268(11) 0.09513(18)
H43_2 H 0.258100 0.754117 0.158962
C58_2 C 0.28420(9) 0.72248(11) 0.06757(19)
H44_2 H 0.307395 0.704127 0.113547
N1_2 N 0.32203(8) 0.56270(10) 0.10944(17)
O1_2 O 0.33601(7) 0.65697(8) 0.00120(15)
O5_2 O 0.43696(6) 0.55332(8) 0.13861(13)
C59_2 C 0.53804(8) 0.47849(10) 0.07032(17)
H45_2 H 0.563765 0.463873 0.117495
O10_2 O 0.59558(6) 0.41797(8) 0.00574(13)
C63_2 C 0.18968(8) 0.81314(11) 0.05696(19)
C64_2 C 0.22062(8) 0.78054(10) 0.02698(17)
C91_2 C 0.99887(11) 0.80776(16) 0.1143(2)
H69_2 H 0.970613 0.821420 0.111494
C93_2 C 0.96992(12) 0.72185(18) 0.1255(3)
H71_2 H 0.976981 0.688759 0.122136
C94_2 C 0.93069(16) 0.7314(2) 0.1343(3)
H72_2 H 0.922813 0.764372 0.135379
C95_2 C 0.89524(15) 0.6926(2) 0.1433(3)
C96_2 C 0.9055(2) 0.6426(2) 0.1389(4)
H73_2 H 0.932959 0.630397 0.134586
C97_2 C 0.86512(17) 0.6110(3) 0.1421(4)
H74_2 H 0.867663 0.576966 0.138592
C98_2 C 0.82789(16) 0.6285(2) 0.1494(4)
C99_2 C 0.82240(19) 0.6804(3) 0.1656(5)
C100_2 C 0.85504(14) 0.7130(3) 0.1543(4)
H75_2 H 0.850609 0.746901 0.153958
C101_2 C 0.7787(3) 0.7040(4) 0.1936(8)
H76_2 H 0.789601 0.733203 0.231479
H77_2 H 0.752701 0.712188 0.135942
H78_2 H 0.768931 0.680202 0.229329
C102_2 C 0.79191(18) 0.59360(16) 0.1564(4)
H79_2 H 0.764927 0.608156 0.158591
C103_2 C 0.79272(17) 0.54811(14) 0.1597(3)
H80_2 H 0.820945 0.533928 0.163608
C104_2 C 0.75578(12) 0.51246(15) 0.1584(2)
C105_2 C 0.76764(12) 0.46377(16) 0.1648(3)
H81_2 H 0.797791 0.455114 0.169942
C106_2 C 0.73712(10) 0.42755(14) 0.1640(3)
H82_2 H 0.747142 0.394969 0.169198
C107_2 C 0.68122(12) 0.48423(13) 0.1493(2)
H83_2 H 0.650718 0.491838 0.143349
C108_2 C 0.71077(12) 0.52224(15) 0.1507(3)
H84_2 H 0.700282 0.554631 0.146387
C109_2 C 0.63497(10) 0.38049(12) 0.31602(19)
C110_2 C 0.65647(11) 0.34578(14) 0.4798(2)
H85_2 H 0.677612 0.325289 0.466819
C111_2 C 0.62911(9) 0.37874(12) 0.41100(19)
C112_2 C 0.59679(10) 0.40725(12) 0.42958(19)
H86_2 H 0.577777 0.428694 0.382992
C113_2 C 0.59220(9) 0.40436(12) 0.51749(18)
H87_2 H 0.570071 0.423901 0.529233
C114_2 C 0.62043(9) 0.37242(11) 0.58868(18)
C115_2 C 0.65206(10) 0.34352(13) 0.56937(19)
H88_2 H 0.670989 0.322016 0.615945
C116_2 C 0.61681(10) 0.37177(12) 0.6840(2)
N7_2 N 0.69371(8) 0.43693(10) 0.15609(16)
O13_2 O 0.61118(7) 0.41043(8) 0.25506(13)
O14_2 O 0.66373(7) 0.35216(10) 0.30319(14)
O15_2 O 0.58766(8) 0.39856(10) 0.69892(14)
O16_2 O 0.64161(7) 0.34242(9) 0.74667(14)
O19_2 O 0.41234(8) 0.60144(10) 0.30108(14)
O21_2 O 0.35839(7) 0.65758(9) 0.25333(14)
C25_2 C 0.00113(11) 0.19224(16) 0.8857(2)
H21_2 H 0.029387 0.178580 0.888506
C27_2 C 0.03008(12) 0.27815(18) 0.8745(3)
H23_2 H 0.023019 0.311241 0.877864
C28_2 C 0.06931(16) 0.2686(2) 0.8657(3)
H24_2 H 0.077187 0.235628 0.864621
C29_2 C 0.10476(15) 0.3074(2) 0.8567(3)
C30_2 C 0.0945(2) 0.3574(2) 0.8611(4)
H25_2 H 0.067041 0.369603 0.865414
C31_2 C 0.13488(17) 0.3890(3) 0.8579(4)
H26_2 H 0.132337 0.423034 0.861408
C32_2 C 0.17211(16) 0.3715(2) 0.8506(4)
C33_2 C 0.17760(19) 0.3196(3) 0.8344(5)
C34_2 C 0.14496(14) 0.2870(3) 0.8457(4)
H27_2 H 0.149391 0.253099 0.846042
C35_2 C 0.2213(3) 0.2960(4) 0.8064(8)
H28_2 H 0.210399 0.266797 0.768521
H29_2 H 0.247299 0.287812 0.864058
H30_2 H 0.231069 0.319798 0.770671
C36_2 C 0.20809(18) 0.40640(16) 0.8436(4)
H31_2 H 0.235073 0.391844 0.841409
C37_2 C 0.20728(17) 0.45189(14) 0.8403(3)
H32_2 H 0.179055 0.466072 0.836392
C38_2 C 0.24422(12) 0.48754(15) 0.8416(2)
C39_2 C 0.23236(12) 0.53623(16) 0.8352(3)
H33_2 H 0.202209 0.544886 0.830058
C40_2 C 0.26288(10) 0.57245(14) 0.8360(3)
H34_2 H 0.252858 0.605031 0.830802
C41_2 C 0.31878(12) 0.51577(13) 0.8507(2)
H35_2 H 0.349282 0.508162 0.856651
C42_2 C 0.28923(12) 0.47776(15) 0.8493(3)
H36_2 H 0.299718 0.445369 0.853613
C43_2 C 0.36503(10) 0.61951(12) 0.68398(19)
C44_2 C 0.34353(11) 0.65422(14) 0.5202(2)
H37_2 H 0.322388 0.674711 0.533181
C45_2 C 0.37089(9) 0.62126(12) 0.58900(19)
C46_2 C 0.40321(10) 0.59275(12) 0.57042(19)
H38_2 H 0.422223 0.571306 0.617008
C47_2 C 0.46196(8) 0.52151(10) 0.92968(17)
H39_2 H 0.436235 0.536127 0.882505
C50_2 C 0.40780(9) 0.59564(12) 0.48251(18)
H41_2 H 0.429929 0.576099 0.470767
C51_2 C 0.37957(9) 0.62758(11) 0.41132(18)
C52_2 C 0.34794(10) 0.65648(13) 0.43063(19)
H42_2 H 0.329011 0.677984 0.384055
C53_2 C 0.38319(10) 0.62823(12) 0.3160(2)
C55_2 C 0.31032(8) 0.68686(11) 0.94304(19)
C56_2 C 0.27938(8) 0.71946(10) 0.97302(17)
N3_2 N 0.30629(8) 0.56307(10) 0.84391(16)
O2_2 O 0.30931(7) 0.69015(8) 0.86025(14)
O3_2 O 0.38882(7) 0.58957(8) 0.74494(13)
O4_2 O 0.33627(7) 0.64784(10) 0.69681(14)
O6_2 O 0.40442(6) 0.58203(8) 0.99426(13)
C60_2 C 0.53167(8) 0.47285(10) 0.97419(17)
C61_2 C 0.49346(8) 0.49444(10) 0.90388(18)
H46_2 H 0.488978 0.490795 0.839716
C62_2 C 0.56592(8) 0.44422(11) 0.94618(19)
O9_2 O 0.56304(6) 0.44668(8) 0.86139(13)
C65_2 C 0.24521(9) 0.74732(11) 0.90487(18)
H47_2 H 0.241900 0.745883 0.841038
C66_2 C 0.21580(9) 0.77752(11) 0.93243(19)
H48_2 H 0.192605 0.795873 0.886453
C67_2 C 0.72072(10) 0.42021(15) 0.9008(3)
H49_2 H 0.725683 0.386408 0.900849
C68_2 C 0.75722(11) 0.45204(18) 0.9113(3)
H50_2 H 0.786470 0.438765 0.920157
C69_2 C 0.75255(11) 0.50316(14) 0.9095(2)
C70_2 C 0.71010(12) 0.51825(14) 0.9025(3)
H51_2 H 0.704804 0.551876 0.904818
C71_2 C 0.67333(11) 0.48586(13) 0.8918(3)
H52_2 H 0.644255 0.498821 0.885332
C72_2 C 0.79016(15) 0.53361(13) 0.9113(3)
H53_2 H 0.818507 0.517265 0.924273
C73_2 C 0.79147(16) 0.57701(16) 0.8990(4)
H54_2 H 0.763155 0.592884 0.888774
C74_2 C 0.82949(8) 0.61109(12) 0.89657(15)
C75_2 C 0.87253(9) 0.59306(14) 0.9004(2)
H55_2 H 0.878676 0.559429 0.907352
C76_2 C 0.90637(9) 0.62530(19) 0.8939(3)
H56_2 H 0.935166 0.613231 0.896501
C77_2 C 0.89718(14) 0.67556(18) 0.8836(3)
C78_2 C 0.85415(16) 0.69360(13) 0.8797(3)
H57_2 H 0.847997 0.727230 0.872784
C79_2 C 0.82030(11) 0.66136(12) 0.8862(2)
C80_2 C 0.77259(17) 0.6841(3) 0.8912(6)
H58_2 H 0.777554 0.718102 0.909829
H59_2 H 0.747675 0.681583 0.829438
H60_2 H 0.764218 0.666107 0.937265
C81_2 C 0.93218(16) 0.7110(2) 0.8747(4)
H61_2 H 0.921342 0.743279 0.865111
C82_2 C 0.97277(14) 0.7065(2) 0.8773(3)
H62_2 H 0.984747 0.674662 0.882123
C84_2 C 0.99265(11) 0.79448(14) 0.8709(2)
H63_2 H 0.963835 0.803275 0.873185
N5_2 N 0.67797(8) 0.43730(10) 0.89056(17)
C17_2 C 0.99627(11) 0.25267(16) 0.1265(2)
C19_2 C 0.97812(9) 0.16981(14) 0.1352(2)
H16_2 H 0.988210 0.137301 0.138565
C20_2 C 0.92337(12) 0.22462(14) 0.1326(2)
H17_2 H 0.893878 0.231507 0.133501
C21_2 C 0.95101(13) 0.26382(16) 0.1272(3)
H18_2 H 0.940518 0.296159 0.124127
C22_2 C 0.91891(12) 0.22714(14) 0.8795(2)
H19_2 H 0.890490 0.239777 0.878043
C23_2 C 0.95262(12) 0.25993(14) 0.8765(3)
H20_2 H 0.946407 0.293575 0.872372
C24_2 C 0.99581(12) 0.24292(15) 0.8796(2)
C26_2 C 0.96629(10) 0.16171(14) 0.8878(2)
H22_2 H 0.971717 0.127920 0.891739
C50_3 C 0.09220(9) 0.09564(12) 0.01749(18)
H41_3 H 0.070071 0.076099 0.029233
C51_3 C 0.12043(9) 0.12758(11) 0.08868(18)
C52_3 C 0.15206(10) 0.15648(13) 0.06937(19)
H42_3 H 0.170989 0.177984 0.115945
C53_3 C 0.11681(10) 0.12823(12) 0.1840(2)
O7 O 0.08766(8) 0.10144(10) 0.19892(14)
O8 O 0.14161(7) 0.15758(9) 0.24667(14)
Cd8 Cd 0.11380(2) 0.11446(2) 0.36161(2)
C1_3 C 0.22072(10) 0.07979(15) 0.4008(3)
H1_3 H 0.225683 0.113592 0.400849
C2_3 C 0.25722(11) 0.04796(18) 0.4113(3)
H2_3 H 0.286470 0.061235 0.420157
C5_3 C 0.17333(11) 0.01414(13) 0.3918(3)
H4_3 H 0.144255 0.001179 0.385332
C39_3 C 0.26764(12) 0.03623(16) 0.6648(3)
H33_3 H 0.297791 0.044886 0.669942
C40_3 C 0.23712(10) 0.07245(14) 0.6640(3)
H34_3 H 0.247142 0.105031 0.669198
C41_3 C 0.18122(12) 0.01577(13) 0.6493(2)
H35_3 H 0.150718 0.008162 0.643349
C43_3 C 0.13497(10) 0.11951(12) 0.81602(19)
C44_3 C 0.15647(11) 0.15422(14) 0.9798(2)
H37_3 H 0.177612 0.174711 0.966819
C45_3 C 0.12911(9) 0.12126(12) 0.91100(19)
C46_3 C 0.09679(10) 0.09275(12) 0.92958(19)
H38_3 H 0.077777 0.071306 0.882992
C47_3 C 0.03804(8) 0.02151(10) 0.57032(17)
H39_3 H 0.063765 0.036127 0.617495
C48_3 C 0.03167(8) 0.02715(10) 0.47419(17)
C54_3 C 0.06592(8) 0.05578(11) 0.44618(19)
C55_3 C 0.18968(8) 0.18686(11) 0.55696(19)
C56_3 C 0.22062(8) 0.21946(10) 0.52698(17)
C57_3 C 0.24521(9) 0.25268(11) 0.40487(18)
H43_3 H 0.241900 0.254117 0.341038
C58_3 C 0.21580(9) 0.22248(11) 0.43243(19)
H44_3 H 0.192605 0.204127 0.386453
Cd1_2 Cd 0.13975(2) 0.12626(2) 0.64036(2)
N1_3 N 0.17797(8) 0.06270(10) 0.39056(17)
N3_3 N 0.19371(8) 0.06307(10) 0.65609(16)
O1_3 O 0.16399(7) 0.15697(8) 0.49880(15)
O2_3 O 0.19069(7) 0.19015(8) 0.63975(14)
O3_3 O 0.11118(7) 0.08957(8) 0.75506(13)
O4_3 O 0.16373(7) 0.14784(10) 0.80319(14)
O5_3 O 0.06304(6) 0.05332(8) 0.36139(13)
O6_3 O 0.09558(6) 0.08203(8) 0.50574(13)
C63_3 C 0.31032(8) 0.31314(11) 0.44304(19)
C64_3 C 0.27938(8) 0.28054(10) 0.47302(17)
C65_3 C 0.25479(9) 0.24732(11) 0.59513(18)
H47_3 H 0.258100 0.245883 0.658962
C66_3 C 0.28420(9) 0.27752(11) 0.56757(19)
H48_3 H 0.307395 0.295873 0.613547
O11_2 O 0.33601(7) 0.34303(8) 0.50120(15)
O12_2 O 0.30931(7) 0.30985(8) 0.36025(14)
Cd6 Cd 0.36025(2) 0.37374(2) 0.35964(2)
Cd11 Cd 0.38620(2) 0.38554(2) 0.63839(2)
N9_2 N 0.06376(8) 0.17812(10) 0.36351(16)
N11_2 N 0.07530(8) 0.17814(10) 0.61547(17)
C3_3 C 0.25255(11) 0.99684(14) 0.4095(2)
C4_3 C 0.21010(12) 0.98175(14) 0.4025(3)
H3_3 H 0.204804 0.948124 0.404818
C6_3 C 0.29016(15) 0.96639(13) 0.4113(3)
H5_3 H 0.318507 0.982735 0.424273
C7_3 C 0.29147(16) 0.92299(16) 0.3990(4)
H6_3 H 0.263155 0.907116 0.388774
C8_3 C 0.32949(8) 0.88891(12) 0.39657(15)
C9_3 C 0.37253(9) 0.90694(14) 0.4004(2)
H7_3 H 0.378676 0.940571 0.407352
C10_3 C 0.40637(9) 0.87470(19) 0.3939(3)
H8_3 H 0.435166 0.886769 0.396501
C11_3 C 0.39718(14) 0.82444(18) 0.3836(3)
C12_3 C 0.35415(16) 0.80640(13) 0.3797(3)
H9_3 H 0.347997 0.772770 0.372784
C13_3 C 0.32030(11) 0.83864(12) 0.3862(2)
C14_3 C 0.27259(17) 0.8159(3) 0.3912(6)
H10_3 H 0.277554 0.781898 0.409829
H11_3 H 0.247675 0.818417 0.329438
H12_3 H 0.264218 0.833893 0.437265
C15_3 C 0.43218(16) 0.7890(2) 0.3747(4)
H13_3 H 0.421342 0.756721 0.365111
C16_3 C 0.47277(14) 0.7935(2) 0.3773(3)
H14_3 H 0.484747 0.825338 0.382123
C17_3 C 0.50373(11) 0.75267(16) 0.3735(2)
C18_3 C 0.49265(11) 0.70552(14) 0.3709(2)
H15_3 H 0.463835 0.696725 0.373185
C19_3 C 0.52188(9) 0.66981(14) 0.3648(2)
H16_3 H 0.511790 0.637301 0.361435
C20_3 C 0.57663(12) 0.72462(14) 0.3674(2)
H17_3 H 0.606122 0.731507 0.366499
C21_3 C 0.54899(13) 0.76382(16) 0.3728(3)
H18_3 H 0.559482 0.796159 0.375873
C22_3 C 0.58109(12) 0.72714(14) 0.6205(2)
H19_3 H 0.609510 0.739777 0.621957
C23_3 C 0.54738(12) 0.75993(14) 0.6235(3)
H20_3 H 0.553593 0.793575 0.627628
C24_3 C 0.50419(12) 0.74292(15) 0.6204(2)
C25_3 C 0.49887(11) 0.69224(16) 0.6143(2)
H21_3 H 0.470613 0.678580 0.611494
C26_3 C 0.53371(10) 0.66171(14) 0.6122(2)
H22_3 H 0.528283 0.627920 0.608261
C27_3 C 0.46992(12) 0.77815(18) 0.6255(3)
H23_3 H 0.476981 0.811241 0.622136
C28_3 C 0.43069(16) 0.7686(2) 0.6343(3)
H24_3 H 0.422813 0.735628 0.635379
C29_3 C 0.39524(15) 0.8074(2) 0.6433(3)
C30_3 C 0.4055(2) 0.8574(2) 0.6389(4)
H25_3 H 0.432959 0.869603 0.634586
C31_3 C 0.36512(17) 0.8890(3) 0.6421(4)
H26_3 H 0.367663 0.923034 0.638592
C32_3 C 0.32789(16) 0.8715(2) 0.6494(4)
C33_3 C 0.32240(19) 0.8196(3) 0.6656(5)
C34_3 C 0.35504(14) 0.7870(3) 0.6543(4)
H27_3 H 0.350609 0.753099 0.653958
C35_3 C 0.2787(3) 0.7960(4) 0.6936(8)
H28_3 H 0.289601 0.766797 0.731479
H29_3 H 0.252701 0.787812 0.635942
H30_3 H 0.268931 0.819798 0.729329
C36_3 C 0.29191(18) 0.90640(16) 0.6564(4)
H31_3 H 0.264927 0.891844 0.658591
C37_3 C 0.29272(17) 0.95189(14) 0.6597(3)
H32_3 H 0.320945 0.966072 0.663608
C38_3 C 0.25578(12) 0.98754(15) 0.6584(2)
C42_3 C 0.21077(12) 0.97776(15) 0.6507(3)
H36_3 H 0.200282 0.945369 0.646387
N2_2 N 0.56376(8) 0.67812(10) 0.36351(16)
N4_2 N 0.57530(8) 0.67814(10) 0.61547(17)
C61_3 C 0.00654(8) 0.99444(10) 0.59612(18)
H46_3 H 0.011022 0.990795 0.660284
Cd5_2 Cd 0.63975(2) 0.62626(2) 0.64036(2)
Cd9_2 Cd 0.61380(2) 0.61446(2) 0.36161(2)
C49_3 C 0.99346(8) 0.00556(10) 0.40388(18)
H40_3 H 0.988978 0.009205 0.339716
C69_3 C 0.74745(11) 0.00316(14) 0.5905(2)
C70_3 C 0.78990(12) 0.01825(14) 0.5975(3)
H51_3 H 0.795196 0.051876 0.595182
C72_3 C 0.70984(15) 0.03361(13) 0.5887(3)
H53_3 H 0.681493 0.017265 0.575727
C73_3 C 0.70853(16) 0.07701(16) 0.6010(4)
H54_3 H 0.736845 0.092884 0.611226
C74_3 C 0.67051(8) 0.11109(12) 0.60343(15)
C75_3 C 0.62747(9) 0.09306(14) 0.5996(2)
H55_3 H 0.621324 0.059429 0.592648
C76_3 C 0.59363(9) 0.12530(19) 0.6061(3)
H56_3 H 0.564834 0.113231 0.603499
C77_3 C 0.60282(14) 0.17556(18) 0.6164(3)
C78_3 C 0.64585(16) 0.19360(13) 0.6203(3)
H57_3 H 0.652003 0.227230 0.627216
C79_3 C 0.67970(11) 0.16136(12) 0.6138(2)
C80_3 C 0.72741(17) 0.1841(3) 0.6088(6)
H58_3 H 0.722446 0.218102 0.590171
H59_3 H 0.752325 0.181583 0.670562
H60_3 H 0.735782 0.166107 0.562735
C81_3 C 0.56782(16) 0.2110(2) 0.6253(4)
H61_3 H 0.578658 0.243279 0.634889
C82_3 C 0.52723(14) 0.2065(2) 0.6227(3)
H62_3 H 0.515253 0.174662 0.617877
C83_3 C 0.49627(11) 0.24733(16) 0.6265(2)
C84_3 C 0.50735(11) 0.29448(14) 0.6291(2)
H63_3 H 0.536165 0.303275 0.626815
C85_3 C 0.47812(9) 0.33019(14) 0.6352(2)
H64_3 H 0.488210 0.362699 0.638565
C86_3 C 0.42337(12) 0.27538(14) 0.6326(2)
H65_3 H 0.393878 0.268493 0.633501
C87_3 C 0.45101(13) 0.23618(16) 0.6272(3)
H66_3 H 0.440518 0.203841 0.624127
C88_3 C 0.41891(12) 0.27286(14) 0.3795(2)
H67_3 H 0.390490 0.260223 0.378043
C89_3 C 0.45262(12) 0.24007(14) 0.3765(3)
H68_3 H 0.446407 0.206425 0.372372
C90_3 C 0.49581(12) 0.25708(15) 0.3796(2)
C91_3 C 0.50113(11) 0.30776(16) 0.3857(2)
H69_3 H 0.529387 0.321420 0.388506
C92_3 C 0.46629(10) 0.33829(14) 0.3878(2)
H70_3 H 0.471717 0.372080 0.391739
C93_3 C 0.53008(12) 0.22185(18) 0.3745(3)
H71_3 H 0.523019 0.188759 0.377864
C94_3 C 0.56931(16) 0.2314(2) 0.3657(3)
H72_3 H 0.577187 0.264372 0.364621
C95_3 C 0.60476(15) 0.1926(2) 0.3567(3)
C96_3 C 0.5945(2) 0.1426(2) 0.3611(4)
H73_3 H 0.567041 0.130397 0.365414
C97_3 C 0.63488(17) 0.1110(3) 0.3579(4)
H74_3 H 0.632337 0.076966 0.361408
C98_3 C 0.67211(16) 0.1285(2) 0.3506(4)
C99_3 C 0.67760(19) 0.1804(3) 0.3344(5)
C100_3 C 0.64496(14) 0.2130(3) 0.3457(4)
H75_3 H 0.649391 0.246901 0.346042
C101_3 C 0.7213(3) 0.2040(4) 0.3064(8)
H76_3 H 0.710399 0.233203 0.268521
H77_3 H 0.747299 0.212188 0.364058
H78_3 H 0.731069 0.180202 0.270671
C102_3 C 0.70809(18) 0.09360(16) 0.3436(4)
H79_3 H 0.735073 0.108156 0.341409
C103_3 C 0.70728(17) 0.04811(14) 0.3403(3)
H80_3 H 0.679055 0.033928 0.336392
C104_3 C 0.74422(12) 0.01246(15) 0.3416(2)
C108_3 C 0.78923(12) 0.02224(15) 0.3493(3)
H84_3 H 0.799718 0.054631 0.353613
N6_2 N 0.43624(8) 0.32188(10) 0.63649(16)
N8_2 N 0.42470(8) 0.32186(10) 0.38453(17)
C59_3 C 0.96196(8) 0.97849(10) 0.42968(17)
H45_3 H 0.936235 0.963873 0.382505
C60_3 C 0.96833(8) 0.97285(10) 0.52581(17)
C62_3 C 0.93408(8) 0.94422(11) 0.55382(19)
O9_3 O 0.93696(6) 0.94668(8) 0.63861(13)
O10_3 O 0.90442(6) 0.91797(8) 0.49426(13)
C67_3 C 0.77928(10) 0.92021(15) 0.5992(3)
H49_3 H 0.774317 0.886408 0.599151
C68_3 C 0.74278(11) 0.95204(18) 0.5887(3)
H50_3 H 0.713530 0.938765 0.579843
C71_3 C 0.82667(11) 0.98586(13) 0.6082(3)
H52_3 H 0.855745 0.998821 0.614668
C105_3 C 0.73236(12) 0.96377(16) 0.3352(3)
H81_3 H 0.702209 0.955114 0.330058
C106_3 C 0.76288(10) 0.92755(14) 0.3360(3)
H82_3 H 0.752858 0.894969 0.330802
C107_3 C 0.81878(12) 0.98423(13) 0.3507(2)
H83_3 H 0.849282 0.991838 0.356651
C109_3 C 0.86503(10) 0.88049(12) 0.18398(19)
C110_3 C 0.84353(11) 0.84578(14) 0.0202(2)
H85_3 H 0.822388 0.825289 0.033181
C111_3 C 0.87089(9) 0.87874(12) 0.08900(19)
C112_3 C 0.90321(10) 0.90725(12) 0.07042(19)
H86_3 H 0.922223 0.928694 0.117008
Cd3_2 Cd 0.86025(2) 0.87374(2) 0.35964(2)
Cd4 Cd 0.88620(2) 0.88554(2) 0.63839(2)
N5_3 N 0.82203(8) 0.93730(10) 0.60944(17)
N7_3 N 0.80629(8) 0.93693(10) 0.34391(16)
O13_3 O 0.88882(7) 0.91043(8) 0.24494(13)
O14_3 O 0.83627(7) 0.85216(10) 0.19681(14)
N10_2 N 0.93624(8) 0.82188(10) 0.63649(16)
N12_2 N 0.92470(8) 0.82186(10) 0.38453(17)
O17_2 O 0.83601(7) 0.84303(8) 0.50120(15)
O18_2 O 0.80931(7) 0.80985(8) 0.36025(14)
O20 O 0.91234(8) 0.89856(10) 0.80108(14)
O22 O 0.85839(7) 0.84242(9) 0.75333(14)
C113_3 C 0.90780(9) 0.90436(12) 0.98251(18)
H87_3 H 0.929929 0.923901 0.970767
C114_3 C 0.87957(9) 0.87242(11) 0.91132(18)
C115_3 C 0.84794(10) 0.84352(13) 0.93063(19)
H88_3 H 0.829011 0.822016 0.884055
C116_3 C 0.88319(10) 0.87177(12) 0.8160(2)
C17_4 C 0.00373(11) 0.25267(16) 0.3735(2)
C19_4 C 0.02188(9) 0.16981(14) 0.3648(2)
H16_4 H 0.011790 0.137301 0.361435
C20_4 C 0.07663(12) 0.22462(14) 0.3674(2)
H17_4 H 0.106122 0.231507 0.366499
C21_4 C 0.04899(13) 0.26382(16) 0.3728(3)
H18_4 H 0.059482 0.296159 0.375873
C22_4 C 0.08109(12) 0.22714(14) 0.6205(2)
H19_4 H 0.109510 0.239777 0.621957
C23_4 C 0.04738(12) 0.25993(14) 0.6235(3)
H20_4 H 0.053593 0.293575 0.627628
C24_4 C 0.00419(12) 0.24292(15) 0.6204(2)
C26_4 C 0.03371(10) 0.16171(14) 0.6122(2)
H22_4 H 0.028283 0.127920 0.608261
C50_4 C 0.59220(9) 0.59564(12) 0.01749(18)
H41_4 H 0.570071 0.576099 0.029233
C51_4 C 0.62043(9) 0.62758(11) 0.08868(18)
C52_4 C 0.65206(10) 0.65648(13) 0.06937(19)
H42_4 H 0.670989 0.677984 0.115945
C53_4 C 0.61681(10) 0.62823(12) 0.1840(2)
O7_2 O 0.58766(8) 0.60144(10) 0.19892(14)
O8_2 O 0.64161(7) 0.65758(9) 0.24667(14)
C1_4 C 0.72072(10) 0.57979(15) 0.4008(3)
H1_4 H 0.725683 0.613592 0.400849
C2_4 C 0.75722(11) 0.54796(18) 0.4113(3)
H2_4 H 0.786470 0.561235 0.420157
C3_4 C 0.75255(11) 0.49684(14) 0.4095(2)
C4_4 C 0.71010(12) 0.48175(14) 0.4025(3)
H3_4 H 0.704804 0.448124 0.404818
C5_4 C 0.67333(11) 0.51414(13) 0.3918(3)
H4_4 H 0.644255 0.501179 0.385332
C6_4 C 0.79016(15) 0.46639(13) 0.4113(3)
H5_4 H 0.818507 0.482735 0.424273
C7_4 C 0.79147(16) 0.42299(16) 0.3990(4)
H6_4 H 0.763155 0.407116 0.388774
C8_4 C 0.82949(8) 0.38891(12) 0.39657(15)
C9_4 C 0.87253(9) 0.40694(14) 0.4004(2)
H7_4 H 0.878676 0.440571 0.407352
C10_4 C 0.90637(9) 0.37470(19) 0.3939(3)
H8_4 H 0.935166 0.386769 0.396501
C11_4 C 0.89718(14) 0.32444(18) 0.3836(3)
C12_4 C 0.85415(16) 0.30640(13) 0.3797(3)
H9_4 H 0.847997 0.272770 0.372784
C13_4 C 0.82030(11) 0.33864(12) 0.3862(2)
C14_4 C 0.77259(17) 0.3159(3) 0.3912(6)
H10_4 H 0.777554 0.281898 0.409829
H11_4 H 0.747675 0.318417 0.329438
H12_4 H 0.764218 0.333893 0.437265
C15_4 C 0.93218(16) 0.2890(2) 0.3747(4)
H13_4 H 0.921342 0.256721 0.365111
C16_4 C 0.97277(14) 0.2935(2) 0.3773(3)
H14_4 H 0.984747 0.325338 0.382123
C18_4 C 0.99265(11) 0.20552(14) 0.3709(2)
H15_4 H 0.963835 0.196725 0.373185
C25_4 C 0.99887(11) 0.19224(16) 0.6143(2)
H21_4 H 0.970613 0.178580 0.611494
C27_4 C 0.96992(12) 0.27815(18) 0.6255(3)
H23_4 H 0.976981 0.311241 0.622136
C28_4 C 0.93069(16) 0.2686(2) 0.6343(3)
H24_4 H 0.922813 0.235628 0.635379
C29_4 C 0.89524(15) 0.3074(2) 0.6433(3)
C30_4 C 0.9055(2) 0.3574(2) 0.6389(4)
H25_4 H 0.932959 0.369603 0.634586
C31_4 C 0.86512(17) 0.3890(3) 0.6421(4)
H26_4 H 0.867663 0.423034 0.638592
C32_4 C 0.82789(16) 0.3715(2) 0.6494(4)
C33_4 C 0.82240(19) 0.3196(3) 0.6656(5)
C34_4 C 0.85504(14) 0.2870(3) 0.6543(4)
H27_4 H 0.850609 0.253099 0.653958
C35_4 C 0.7787(3) 0.2960(4) 0.6936(8)
H28_4 H 0.789601 0.266797 0.731479
H29_4 H 0.752701 0.287812 0.635942
H30_4 H 0.768931 0.319798 0.729329
C36_4 C 0.79191(18) 0.40640(16) 0.6564(4)
H31_4 H 0.764927 0.391844 0.658591
C37_4 C 0.79272(17) 0.45189(14) 0.6597(3)
H32_4 H 0.820945 0.466072 0.663608
C38_4 C 0.75578(12) 0.48754(15) 0.6584(2)
C39_4 C 0.76764(12) 0.53623(16) 0.6648(3)
H33_4 H 0.797791 0.544886 0.669942
C40_4 C 0.73712(10) 0.57245(14) 0.6640(3)
H34_4 H 0.747142 0.605031 0.669198
C41_4 C 0.68122(12) 0.51577(13) 0.6493(2)
H35_4 H 0.650718 0.508162 0.643349
C42_4 C 0.71077(12) 0.47776(15) 0.6507(3)
H36_4 H 0.700282 0.445369 0.646387
C43_4 C 0.63497(10) 0.61951(12) 0.81602(19)
C44_4 C 0.65647(11) 0.65422(14) 0.9798(2)
H37_4 H 0.677612 0.674711 0.966819
C45_4 C 0.62911(9) 0.62126(12) 0.91100(19)
C46_4 C 0.59679(10) 0.59275(12) 0.92958(19)
H38_4 H 0.577777 0.571306 0.882992
C47_4 C 0.53804(8) 0.52151(10) 0.57032(17)
H39_4 H 0.563765 0.536127 0.617495
C48_4 C 0.53167(8) 0.52715(10) 0.47419(17)
C49_4 C 0.49346(8) 0.50556(10) 0.40388(18)
H40_4 H 0.488978 0.509205 0.339716
C54_4 C 0.56592(8) 0.55578(11) 0.44618(19)
C55_4 C 0.68968(8) 0.68686(11) 0.55696(19)
C56_4 C 0.72062(8) 0.71946(10) 0.52698(17)
C57_4 C 0.74521(9) 0.75268(11) 0.40487(18)
H43_4 H 0.741900 0.754117 0.341038
C58_4 C 0.71580(9) 0.72248(11) 0.43243(19)
H44_4 H 0.692605 0.704127 0.386453
N1_4 N 0.67797(8) 0.56270(10) 0.39056(17)
N3_4 N 0.69371(8) 0.56307(10) 0.65609(16)
O1_4 O 0.66399(7) 0.65697(8) 0.49880(15)
O2_4 O 0.69069(7) 0.69015(8) 0.63975(14)
O3_4 O 0.61118(7) 0.58957(8) 0.75506(13)
O4_4 O 0.66373(7) 0.64784(10) 0.80319(14)
O5_4 O 0.56304(6) 0.55332(8) 0.36139(13)
O6_4 O 0.59558(6) 0.58203(8) 0.50574(13)
C59_4 C 0.46196(8) 0.47849(10) 0.42968(17)
H45_4 H 0.436235 0.463873 0.382505
C60_4 C 0.46833(8) 0.47285(10) 0.52581(17)
C61_4 C 0.50654(8) 0.49444(10) 0.59612(18)
H46_4 H 0.511022 0.490795 0.660284
C62_4 C 0.43408(8) 0.44422(11) 0.55382(19)
O9_4 O 0.43696(6) 0.44668(8) 0.63861(13)
O10_4 O 0.40442(6) 0.41797(8) 0.49426(13)
C63_4 C 0.81032(8) 0.81314(11) 0.44304(19)
C64_4 C 0.77938(8) 0.78054(10) 0.47302(17)
C65_4 C 0.75479(9) 0.74732(11) 0.59513(18)
H47_4 H 0.758100 0.745883 0.658962
C66_4 C 0.78420(9) 0.77752(11) 0.56757(19)
H48_4 H 0.807395 0.795873 0.613547
C67_4 C 0.27928(10) 0.42021(15) 0.5992(3)
H49_4 H 0.274317 0.386408 0.599151
C68_4 C 0.24278(11) 0.45204(18) 0.5887(3)
H50_4 H 0.213530 0.438765 0.579843
C69_4 C 0.24745(11) 0.50316(14) 0.5905(2)
C70_4 C 0.28990(12) 0.51825(14) 0.5975(3)
H51_4 H 0.295196 0.551876 0.595182
C71_4 C 0.32667(11) 0.48586(13) 0.6082(3)
H52_4 H 0.355745 0.498821 0.614668
C72_4 C 0.20984(15) 0.53361(13) 0.5887(3)
H53_4 H 0.181493 0.517265 0.575727
C73_4 C 0.20853(16) 0.57701(16) 0.6010(4)
H54_4 H 0.236845 0.592884 0.611226
C74_4 C 0.17051(8) 0.61109(12) 0.60343(15)
C75_4 C 0.12747(9) 0.59306(14) 0.5996(2)
H55_4 H 0.121324 0.559429 0.592648
C76_4 C 0.09363(9) 0.62530(19) 0.6061(3)
H56_4 H 0.064834 0.613231 0.603499
C77_4 C 0.10282(14) 0.67556(18) 0.6164(3)
C78_4 C 0.14585(16) 0.69360(13) 0.6203(3)
H57_4 H 0.152003 0.727230 0.627216
C79_4 C 0.17970(11) 0.66136(12) 0.6138(2)
C80_4 C 0.22741(17) 0.6841(3) 0.6088(6)
H58_4 H 0.222446 0.718102 0.590171
H59_4 H 0.252325 0.681583 0.670562
H60_4 H 0.235782 0.666107 0.562735
C81_4 C 0.06782(16) 0.7110(2) 0.6253(4)
H61_4 H 0.078658 0.743279 0.634889
C82_4 C 0.02723(14) 0.7065(2) 0.6227(3)
H62_4 H 0.015253 0.674662 0.617877
C84_4 C 0.00735(11) 0.79448(14) 0.6291(2)
H63_4 H 0.036165 0.803275 0.626815
C91_4 C 0.00113(11) 0.80776(16) 0.3857(2)
H69_4 H 0.029387 0.821420 0.388506
C93_4 C 0.03008(12) 0.72185(18) 0.3745(3)
H71_4 H 0.023019 0.688759 0.377864
C94_4 C 0.06931(16) 0.7314(2) 0.3657(3)
H72_4 H 0.077187 0.764372 0.364621
C95_4 C 0.10476(15) 0.6926(2) 0.3567(3)
C96_4 C 0.0945(2) 0.6426(2) 0.3611(4)
H73_4 H 0.067041 0.630397 0.365414
C97_4 C 0.13488(17) 0.6110(3) 0.3579(4)
H74_4 H 0.132337 0.576966 0.361408
C98_4 C 0.17211(16) 0.6285(2) 0.3506(4)
C99_4 C 0.17760(19) 0.6804(3) 0.3344(5)
C100_4 C 0.14496(14) 0.7130(3) 0.3457(4)
H75_4 H 0.149391 0.746901 0.346042
C101_4 C 0.2213(3) 0.7040(4) 0.3064(8)
H76_4 H 0.210399 0.733203 0.268521
H77_4 H 0.247299 0.712188 0.364058
H78_4 H 0.231069 0.680202 0.270671
C102_4 C 0.20809(18) 0.59360(16) 0.3436(4)
H79_4 H 0.235073 0.608156 0.341409
C103_4 C 0.20728(17) 0.54811(14) 0.3403(3)
H80_4 H 0.179055 0.533928 0.336392
C104_4 C 0.24422(12) 0.51246(15) 0.3416(2)
C105_4 C 0.23236(12) 0.46377(16) 0.3352(3)
H81_4 H 0.202209 0.455114 0.330058
C106_4 C 0.26288(10) 0.42755(14) 0.3360(3)
H82_4 H 0.252858 0.394969 0.330802
C107_4 C 0.31878(12) 0.48423(13) 0.3507(2)
H83_4 H 0.349282 0.491838 0.356651
C108_4 C 0.28923(12) 0.52224(15) 0.3493(3)
H84_4 H 0.299718 0.554631 0.353613
C109_4 C 0.36503(10) 0.38049(12) 0.18398(19)
C110_4 C 0.34353(11) 0.34578(14) 0.0202(2)
H85_4 H 0.322388 0.325289 0.033181
C111_4 C 0.37089(9) 0.37874(12) 0.08900(19)
C112_4 C 0.40321(10) 0.40725(12) 0.07042(19)
H86_4 H 0.422223 0.428694 0.117008
N5_4 N 0.32203(8) 0.43730(10) 0.60944(17)
N7_4 N 0.30629(8) 0.43693(10) 0.34391(16)
O13_4 O 0.38882(7) 0.41043(8) 0.24494(13)
O14_4 O 0.33627(7) 0.35216(10) 0.19681(14)
O20_2 O 0.41234(8) 0.39856(10) 0.80108(14)
O22_2 O 0.35839(7) 0.34242(9) 0.75333(14)
C113_4 C 0.40780(9) 0.40436(12) 0.98251(18)
H87_4 H 0.429929 0.423901 0.970767
C114_4 C 0.37957(9) 0.37242(11) 0.91132(18)
C115_4 C 0.34794(10) 0.34352(13) 0.93063(19)
H88_4 H 0.329011 0.322016 0.884055
C116_4 C 0.38319(10) 0.37177(12) 0.8160(2)
C83_4 C 0.99627(11) 0.74733(16) 0.6265(2)
C85_4 C 0.97812(9) 0.83019(14) 0.6352(2)
H64_4 H 0.988210 0.862699 0.638565
C86_4 C 0.92337(12) 0.77538(14) 0.6326(2)
H65_4 H 0.893878 0.768493 0.633501
C87_4 C 0.95101(13) 0.73618(16) 0.6272(3)
H66_4 H 0.940518 0.703841 0.624127
C88_4 C 0.91891(12) 0.77286(14) 0.3795(2)
H67_4 H 0.890490 0.760223 0.378043
C89_4 C 0.95262(12) 0.74007(14) 0.3765(3)
H68_4 H 0.946407 0.706425 0.372372
C90_4 C 0.99581(12) 0.75708(15) 0.3796(2)
C92_4 C 0.96629(10) 0.83829(14) 0.3878(2)
H70_4 H 0.971717 0.872080 0.391739
loop_
_geom_bond_atom_site_label_1
_geom_bond_atom_site_label_2
_geom_bond_site_symmetry_1
_geom_bond_site_symmetry_2
H40 C49 1_555 1_555
C88 H67 1_555 1_555
C89 C88 1_555 1_555
H68 C89 1_555 1_555
C90 C89 1_555 1_555
C91 C90 1_555 1_555
H69 C91 1_555 1_555
C92 C91 1_555 1_555
H70 C92 1_555 1_555
C93 C90 1_555 1_555
H71 C93 1_555 1_555
C94 C93 1_555 1_555
H72 C94 1_555 1_555
C95 C94 1_555 1_555
C96 C95 1_555 1_555
H73 C96 1_555 1_555
C97 C96 1_555 1_555
H74 C97 1_555 1_555
C98 C97 1_555 1_555
C99 C98 1_555 1_555
C100 C95 1_555 1_555
H75 C100 1_555 1_555
C101 C99 1_555 1_555
H76 C101 1_555 1_555
H77 C101 1_555 1_555
H78 C101 1_555 1_555
C102 C98 1_555 1_555
H79 C102 1_555 1_555
C103 C102 1_555 1_555
H80 C103 1_555 1_555
C104 C103 1_555 1_555
C108 C104 1_555 1_555
H84 C108 1_555 1_555
N8 C88 1_555 1_555
Cd7 N8 1_555 1_555
C92 N8 1_555 1_555
C99 C100 1_555 1_555
C70 C69 1_555 1_555
H51 C70 1_555 1_555
C72 C69 1_555 1_555
H53 C72 1_555 1_555
C73 C72 1_555 1_555
H54 C73 1_555 1_555
C74 C73 1_555 1_555
C75 C74 1_555 1_555
H55 C75 1_555 1_555
C76 C75 1_555 1_555
H56 C76 1_555 1_555
C77 C76 1_555 1_555
C78 C77 1_555 1_555
H57 C78 1_555 1_555
C79 C74 1_555 1_555
C80 C79 1_555 1_555
H58 C80 1_555 1_555
H59 C80 1_555 1_555
H60 C80 1_555 1_555
C81 C77 1_555 1_555
H61 C81 1_555 1_555
C82 C81 1_555 1_555
H62 C82 1_555 1_555
C83 C82 1_555 1_555
C84 C83 1_555 1_555
H63 C84 1_555 1_555
C85 C84 1_555 1_555
H64 C85 1_555 1_555
C86 H65 1_555 1_555
C87 C83 1_555 1_555
H66 C87 1_555 1_555
N6 C85 1_555 1_555
Cd12 N6 1_555 1_555
C78 C79 1_555 1_555
C86 C87 1_555 1_555
C86 N6 1_555 1_555
H45 C59 1_555 1_555
H81 C105 1_555 1_555
C106 C105 1_555 1_555
H82 C106 1_555 1_555
C107 H83 1_555 1_555
C109 C111 1_555 1_555
C110 H85 1_555 1_555
C111 C110 1_555 1_555
C112 C111 1_555 1_555
H86 C112 1_555 1_555
C113 C112 1_555 1_555
H87 C113 1_555 1_555
C114 C113 1_555 1_555
C115 C110 1_555 1_555
H88 C115 1_555 1_555
C116 C114 1_555 1_555
Cd3 O10 1_555 1_555
N7 C106 1_555 1_555
O13 C109 1_555 1_555
O14 C109 1_555 1_555
O15 C116 1_555 1_555
O16 C116 1_555 1_555
Cd10 O15 1_555 1_555
N12 Cd3 1_555 1_555
O18 Cd3 1_555 1_555
C107 N7 1_555 1_555
C114 C115 1_555 1_555
Cd3 N7 1_555 1_555
Cd3 O13 1_555 1_555
Cd3 O14 1_555 1_555
O16 Cd10 1_555 1_555
C62 C60 1_555 1_555
O9 C62 1_555 1_555
C67 H49 1_555 1_555
C68 C67 1_555 1_555
H50 C68 1_555 1_555
H52 C71 1_555 1_555
Cd10 O9 1_555 1_555
N5 C67 1_555 1_555
N10 Cd10 1_555 1_555
C71 N5 1_555 1_555
Cd10 N5 1_555 1_555
Cd10 O17 1_555 1_555
C1 H1 1_555 1_555
C2 C1 1_555 1_555
H2 C2 1_555 1_555
H4 C5 1_555 1_555
C54 C48 1_555 1_555
C57 H43 1_555 1_555
C58 C57 1_555 1_555
H44 C58 1_555 1_555
Cd2 N1 1_555 1_555
N1 C1 1_555 1_555
O5 C54 1_555 1_555
C63 C64 1_555 1_555
C64 C57 1_555 1_555
O12 C63 1_555 1_555
N9 Cd2 1_555 1_555
O19 Cd2 1_555 1_555
O21 Cd2 1_555 1_555
C5 N1 1_555 1_555
Cd2 O1 1_555 1_555
Cd2 O5 1_555 1_555
O12 Cd7 1_555 1_555
H33 C39 1_555 1_555
C40 C39 1_555 1_555
H34 C40 1_555 1_555
C41 H35 1_555 1_555
C43 C45 1_555 1_555
C44 H37 1_555 1_555
C45 C44 1_555 1_555
C46 C45 1_555 1_555
H38 C46 1_555 1_555
C47 H39 1_555 1_555
C50 C46 1_555 1_555
H41 C50 1_555 1_555
C51 C50 1_555 1_555
C52 C44 1_555 1_555
H42 C52 1_555 1_555
C53 C51 1_555 1_555
C55 C56 1_555 1_555
Cd1 N3 1_555 1_555
N3 C40 1_555 1_555
O2 C55 1_555 1_555
O3 C43 1_555 1_555
O4 C43 1_555 1_555
O19 C53 1_555 1_555
O21 C53 1_555 1_555
C65 C56 1_555 1_555
H47 C65 1_555 1_555
H48 C66 1_555 1_555
Cd12 O11 1_555 1_555
N11 Cd1 1_555 1_555
C41 N3 1_555 1_555
C51 C52 1_555 1_555
Cd1 O2 1_555 1_555
Cd1 O3 1_555 1_555
Cd1 O4 1_555 1_555
Cd1 O6 1_555 1_555
C65 C66 1_555 1_555
C4 C3 1_555 1_555
H3 C4 1_555 1_555
C6 C3 1_555 1_555
H5 C6 1_555 1_555
C7 C6 1_555 1_555
H6 C7 1_555 1_555
C8 C7 1_555 1_555
C9 C8 1_555 1_555
H7 C9 1_555 1_555
C10 C9 1_555 1_555
H8 C10 1_555 1_555
C11 C10 1_555 1_555
C12 C11 1_555 1_555
H9 C12 1_555 1_555
C13 C8 1_555 1_555
C14 C13 1_555 1_555
H10 C14 1_555 1_555
H11 C14 1_555 1_555
H12 C14 1_555 1_555
C15 C11 1_555 1_555
H13 C15 1_555 1_555
C16 C15 1_555 1_555
H14 C16 1_555 1_555
C17 C16 1_555 1_555
C18 C17 1_555 1_555
H15 C18 1_555 1_555
C19 C18 1_555 1_555
H16 C19 1_555 1_555
C20 H17 1_555 1_555
C21 C17 1_555 1_555
H18 C21 1_555 1_555
N2 C19 1_555 1_555
Cd9 N2 1_555 1_555
C12 C13 1_555 1_555
C20 C21 1_555 1_555
C20 N2 1_555 1_555
C22 H19 1_555 1_555
C23 C22 1_555 1_555
H20 C23 1_555 1_555
C24 C23 1_555 1_555
C25 C24 1_555 1_555
H21 C25 1_555 1_555
C26 C25 1_555 1_555
H22 C26 1_555 1_555
C27 C24 1_555 1_555
H23 C27 1_555 1_555
C28 C27 1_555 1_555
H24 C28 1_555 1_555
C29 C28 1_555 1_555
C30 C29 1_555 1_555
H25 C30 1_555 1_555
C31 C30 1_555 1_555
H26 C31 1_555 1_555
C32 C31 1_555 1_555
C33 C32 1_555 1_555
C34 C29 1_555 1_555
H27 C34 1_555 1_555
C35 C33 1_555 1_555
H28 C35 1_555 1_555
H29 C35 1_555 1_555
H30 C35 1_555 1_555
C36 C32 1_555 1_555
H31 C36 1_555 1_555
C37 C36 1_555 1_555
H32 C37 1_555 1_555
C38 C37 1_555 1_555
C42 C38 1_555 1_555
H36 C42 1_555 1_555
N4 C22 1_555 1_555
H46 C61 1_555 1_555
Cd5 N4 1_555 1_555
C26 N4 1_555 1_555
C33 C34 1_555 1_555
C88_2 H67_2 1_555 1_555
C89_2 C88_2 1_555 1_555
H68_2 C89_2 1_555 1_555
C90_2 C89_2 1_555 1_555
H70_2 C92_2 1_555 1_555
N12 C88_2 1_555 1_555
C92_2 N12 1_555 1_555
H64_2 C85_2 1_555 1_555
C86_2 H65_2 1_555 1_555
C87_2 C83_2 1_555 1_555
H66_2 C87_2 1_555 1_555
N10 C85_2 1_555 1_555
C86_2 C87_2 1_555 1_555
C86_2 N10 1_555 1_555
C1_2 H1_2 1_555 1_555
C2_2 C1_2 1_555 1_555
H2_2 C2_2 1_555 1_555
C3_2 C2_2 1_555 1_555
C4_2 C3_2 1_555 1_555
H3_2 C4_2 1_555 1_555
C5_2 C4_2 1_555 1_555
H4_2 C5_2 1_555 1_555
C6_2 C3_2 1_555 1_555
H5_2 C6_2 1_555 1_555
C7_2 C6_2 1_555 1_555
H6_2 C7_2 1_555 1_555
C8_2 C7_2 1_555 1_555
C9_2 C8_2 1_555 1_555
H7_2 C9_2 1_555 1_555
C10_2 C9_2 1_555 1_555
H8_2 C10_2 1_555 1_555
C11_2 C10_2 1_555 1_555
C12_2 C11_2 1_555 1_555
H9_2 C12_2 1_555 1_555
C13_2 C8_2 1_555 1_555
C14_2 C13_2 1_555 1_555
H10_2 C14_2 1_555 1_555
H11_2 C14_2 1_555 1_555
H12_2 C14_2 1_555 1_555
C15_2 C11_2 1_555 1_555
H13_2 C15_2 1_555 1_555
C16_2 C15_2 1_555 1_555
H14_2 C16_2 1_555 1_555
H15_2 C18_2 1_555 1_555
C49_2 C48_2 1_555 1_555
H40_2 C49_2 1_555 1_555
C54_2 C48_2 1_555 1_555
C57_2 H43_2 1_555 1_555
C58_2 C57_2 1_555 1_555
H44_2 C58_2 1_555 1_555
Cd9 N1_2 1_555 1_555
N1_2 C1_2 1_555 1_555
O5_2 C54_2 1_555 1_555
C59_2 C49_2 1_555 1_555
H45_2 C59_2 1_555 1_555
C63_2 C64_2 1_555 1_555
C64_2 C57_2 1_555 1_555
O18 C63_2 1_555 1_555
H69_2 C91_2 1_555 1_555
H71_2 C93_2 1_555 1_555
C94_2 C93_2 1_555 1_555
H72_2 C94_2 1_555 1_555
C95_2 C94_2 1_555 1_555
C96_2 C95_2 1_555 1_555
H73_2 C96_2 1_555 1_555
C97_2 C96_2 1_555 1_555
H74_2 C97_2 1_555 1_555
C98_2 C97_2 1_555 1_555
C99_2 C98_2 1_555 1_555
C100_2 C95_2 1_555 1_555
H75_2 C100_2 1_555 1_555
C101_2 C99_2 1_555 1_555
H76_2 C101_2 1_555 1_555
H77_2 C101_2 1_555 1_555
H78_2 C101_2 1_555 1_555
C102_2 C98_2 1_555 1_555
H79_2 C102_2 1_555 1_555
C103_2 C102_2 1_555 1_555
H80_2 C103_2 1_555 1_555
C104_2 C103_2 1_555 1_555
C105_2 C104_2 1_555 1_555
H81_2 C105_2 1_555 1_555
C106_2 C105_2 1_555 1_555
H82_2 C106_2 1_555 1_555
C107_2 H83_2 1_555 1_555
C108_2 C104_2 1_555 1_555
H84_2 C108_2 1_555 1_555
C109_2 C111_2 1_555 1_555
C110_2 H85_2 1_555 1_555
C111_2 C110_2 1_555 1_555
C112_2 C111_2 1_555 1_555
H86_2 C112_2 1_555 1_555
C113_2 C112_2 1_555 1_555
H87_2 C113_2 1_555 1_555
C114_2 C113_2 1_555 1_555
C115_2 C110_2 1_555 1_555
H88_2 C115_2 1_555 1_555
C116_2 C114_2 1_555 1_555
Cd7 O10_2 1_555 1_555
N7_2 C106_2 1_555 1_555
O13_2 C109_2 1_555 1_555
O14_2 C109_2 1_555 1_555
O15_2 C116_2 1_555 1_555
O16_2 C116_2 1_555 1_555
Cd12 O15_2 1_555 1_555
O19_2 Cd9 1_555 1_555
O21_2 Cd9 1_555 1_555
C5_2 N1_2 1_555 1_555
C12_2 C13_2 1_555 1_555
Cd9 O1_2 1_555 1_555
Cd9 O5_2 1_555 1_555
C99_2 C100_2 1_555 1_555
C107_2 C108_2 1_555 1_555
C107_2 N7_2 1_555 1_555
C114_2 C115_2 1_555 1_555
Cd7 N7_2 1_555 1_555
Cd7 O13_2 1_555 1_555
Cd7 O14_2 1_555 1_555
O16_2 Cd12 1_555 1_555
H21_2 C25_2 1_555 1_555
H23_2 C27_2 1_555 1_555
C28_2 C27_2 1_555 1_555
H24_2 C28_2 1_555 1_555
C29_2 C28_2 1_555 1_555
C30_2 C29_2 1_555 1_555
H25_2 C30_2 1_555 1_555
C31_2 C30_2 1_555 1_555
H26_2 C31_2 1_555 1_555
C32_2 C31_2 1_555 1_555
C33_2 C32_2 1_555 1_555
C34_2 C29_2 1_555 1_555
H27_2 C34_2 1_555 1_555
C35_2 C33_2 1_555 1_555
H28_2 C35_2 1_555 1_555
H29_2 C35_2 1_555 1_555
H30_2 C35_2 1_555 1_555
C36_2 C32_2 1_555 1_555
H31_2 C36_2 1_555 1_555
C37_2 C36_2 1_555 1_555
H32_2 C37_2 1_555 1_555
C38_2 C37_2 1_555 1_555
C39_2 C38_2 1_555 1_555
H33_2 C39_2 1_555 1_555
C40_2 C39_2 1_555 1_555
H34_2 C40_2 1_555 1_555
C41_2 H35_2 1_555 1_555
C42_2 C38_2 1_555 1_555
H36_2 C42_2 1_555 1_555
C43_2 C45_2 1_555 1_555
C44_2 H37_2 1_555 1_555
C45_2 C44_2 1_555 1_555
C46_2 C45_2 1_555 1_555
H38_2 C46_2 1_555 1_555
C47_2 H39_2 1_555 1_555
C50_2 C46_2 1_555 1_555
H41_2 C50_2 1_555 1_555
C51_2 C50_2 1_555 1_555
C52_2 C44_2 1_555 1_555
H42_2 C52_2 1_555 1_555
C53_2 C51_2 1_555 1_555
C55_2 C56_2 1_555 1_555
Cd5 N3_2 1_555 1_555
N3_2 C40_2 1_555 1_555
O2_2 C55_2 1_555 1_555
O3_2 C43_2 1_555 1_555
O4_2 C43_2 1_555 1_555
O19_2 C53_2 1_555 1_555
O21_2 C53_2 1_555 1_555
C61_2 C47_2 1_555 1_555
H46_2 C61_2 1_555 1_555
C62_2 C60_2 1_555 1_555
O9_2 C62_2 1_555 1_555
C65_2 C56_2 1_555 1_555
H47_2 C65_2 1_555 1_555
H48_2 C66_2 1_555 1_555
C67_2 H49_2 1_555 1_555
C68_2 C67_2 1_555 1_555
H50_2 C68_2 1_555 1_555
C69_2 C68_2 1_555 1_555
C70_2 C69_2 1_555 1_555
H51_2 C70_2 1_555 1_555
C71_2 C70_2 1_555 1_555
H52_2 C71_2 1_555 1_555
C72_2 C69_2 1_555 1_555
H53_2 C72_2 1_555 1_555
C73_2 C72_2 1_555 1_555
H54_2 C73_2 1_555 1_555
C74_2 C73_2 1_555 1_555
C75_2 C74_2 1_555 1_555
H55_2 C75_2 1_555 1_555
C76_2 C75_2 1_555 1_555
H56_2 C76_2 1_555 1_555
C77_2 C76_2 1_555 1_555
C78_2 C77_2 1_555 1_555
H57_2 C78_2 1_555 1_555
C79_2 C74_2 1_555 1_555
C80_2 C79_2 1_555 1_555
H58_2 C80_2 1_555 1_555
H59_2 C80_2 1_555 1_555
H60_2 C80_2 1_555 1_555
C81_2 C77_2 1_555 1_555
H61_2 C81_2 1_555 1_555
C82_2 C81_2 1_555 1_555
H62_2 C82_2 1_555 1_555
H63_2 C84_2 1_555 1_555
Cd12 O9_2 1_555 1_555
N5_2 C67_2 1_555 1_555
C33_2 C34_2 1_555 1_555
C41_2 C42_2 1_555 1_555
C41_2 N3_2 1_555 1_555
C51_2 C52_2 1_555 1_555
Cd5 O2_2 1_555 1_555
Cd5 O3_2 1_555 1_555
Cd5 O4_2 1_555 1_555
Cd5 O6_2 1_555 1_555
C60_2 C61_2 1_555 1_555
C65_2 C66_2 1_555 1_555
C71_2 N5_2 1_555 1_555
C78_2 C79_2 1_555 1_555
Cd12 N5_2 1_555 1_555
H16_2 C19_2 1_555 1_555
C20_2 H17_2 1_555 1_555
C21_2 C17_2 1_555 1_555
H18_2 C21_2 1_555 1_555
N9 C19_2 1_555 1_555
C20_2 C21_2 1_555 1_555
C20_2 N9 1_555 1_555
C22_2 H19_2 1_555 1_555
C23_2 C22_2 1_555 1_555
H20_2 C23_2 1_555 1_555
C24_2 C23_2 1_555 1_555
H22_2 C26_2 1_555 1_555
N11 C22_2 1_555 1_555
C26_2 N11 1_555 1_555
H41_3 C50_3 1_555 1_555
C51_3 C50_3 1_555 1_555
H42_3 C52_3 1_555 1_555
C53_3 C51_3 1_555 1_555
O7 C53_3 1_555 1_555
O8 C53_3 1_555 1_555
Cd8 O7 1_555 1_555
C51_3 C52_3 1_555 1_555
O8 Cd8 1_555 1_555
C1_3 H1_3 1_555 1_555
C2_3 C1_3 1_555 1_555
H2_3 C2_3 1_555 1_555
H4_3 C5_3 1_555 1_555
H33_3 C39_3 1_555 1_555
C40_3 C39_3 1_555 1_555
H34_3 C40_3 1_555 1_555
C41_3 H35_3 1_555 1_555
C43_3 C45_3 1_555 1_555
C44_3 H37_3 1_555 1_555
C45_3 C44_3 1_555 1_555
C46_3 C45_3 1_555 1_555
H38_3 C46_3 1_555 1_555
C47_3 H39_3 1_555 1_555
C48_3 C47_3 1_555 1_555
C54_3 C48_3 1_555 1_555
C55_3 C56_3 1_555 1_555
C56_3 C58_3 1_555 1_555
C57_3 H43_3 1_555 1_555
C58_3 C57_3 1_555 1_555
H44_3 C58_3 1_555 1_555
Cd1_2 N3_3 1_555 1_555
Cd8 N1_3 1_555 1_555
N1_3 C1_3 1_555 1_555
N3_3 C40_3 1_555 1_555
O1_3 C55_3 1_555 1_555
O2_3 C55_3 1_555 1_555
O3_3 C43_3 1_555 1_555
O4_3 C43_3 1_555 1_555
O5_3 C54_3 1_555 1_555
O6_3 C54_3 1_555 1_555
C63_3 C64_3 1_555 1_555
C64_3 C57_3 1_555 1_555
C65_3 C56_3 1_555 1_555
H47_3 C65_3 1_555 1_555
C66_3 C64_3 1_555 1_555
H48_3 C66_3 1_555 1_555
O11_2 C63_3 1_555 1_555
O12_2 C63_3 1_555 1_555
Cd6 O11_2 1_555 1_555
Cd11 O11_2 1_555 1_555
N9_2 Cd8 1_555 1_555
N11_2 Cd1_2 1_555 1_555
C5_3 N1_3 1_555 1_555
C41_3 N3_3 1_555 1_555
Cd1_2 O1_3 1_555 1_555
Cd1_2 O2_3 1_555 1_555
Cd1_2 O3_3 1_555 1_555
Cd1_2 O4_3 1_555 1_555
Cd1_2 O6_3 1_555 1_555
Cd8 O1_3 1_555 1_555
Cd8 O5_3 1_555 1_555
Cd8 O6_3 1_555 1_555
C65_3 C66_3 1_555 1_555
O12_2 Cd6 1_555 1_555
C4_3 C3_3 1_555 1_555
H3_3 C4_3 1_555 1_555
C6_3 C3_3 1_555 1_555
H5_3 C6_3 1_555 1_555
C7_3 C6_3 1_555 1_555
H6_3 C7_3 1_555 1_555
C8_3 C7_3 1_555 1_555
C9_3 C8_3 1_555 1_555
H7_3 C9_3 1_555 1_555
C10_3 C9_3 1_555 1_555
H8_3 C10_3 1_555 1_555
C11_3 C10_3 1_555 1_555
C12_3 C11_3 1_555 1_555
H9_3 C12_3 1_555 1_555
C13_3 C8_3 1_555 1_555
C14_3 C13_3 1_555 1_555
H10_3 C14_3 1_555 1_555
H11_3 C14_3 1_555 1_555
H12_3 C14_3 1_555 1_555
C15_3 C11_3 1_555 1_555
H13_3 C15_3 1_555 1_555
C16_3 C15_3 1_555 1_555
H14_3 C16_3 1_555 1_555
C17_3 C16_3 1_555 1_555
C18_3 C17_3 1_555 1_555
H15_3 C18_3 1_555 1_555
C19_3 C18_3 1_555 1_555
H16_3 C19_3 1_555 1_555
C20_3 H17_3 1_555 1_555
C21_3 C17_3 1_555 1_555
H18_3 C21_3 1_555 1_555
C22_3 H19_3 1_555 1_555
C23_3 C22_3 1_555 1_555
H20_3 C23_3 1_555 1_555
C24_3 C23_3 1_555 1_555
C25_3 C24_3 1_555 1_555
H21_3 C25_3 1_555 1_555
C26_3 C25_3 1_555 1_555
H22_3 C26_3 1_555 1_555
C27_3 C24_3 1_555 1_555
H23_3 C27_3 1_555 1_555
C28_3 C27_3 1_555 1_555
H24_3 C28_3 1_555 1_555
C29_3 C28_3 1_555 1_555
C30_3 C29_3 1_555 1_555
H25_3 C30_3 1_555 1_555
C31_3 C30_3 1_555 1_555
H26_3 C31_3 1_555 1_555
C32_3 C31_3 1_555 1_555
C33_3 C32_3 1_555 1_555
C34_3 C29_3 1_555 1_555
H27_3 C34_3 1_555 1_555
C35_3 C33_3 1_555 1_555
H28_3 C35_3 1_555 1_555
H29_3 C35_3 1_555 1_555
H30_3 C35_3 1_555 1_555
C36_3 C32_3 1_555 1_555
H31_3 C36_3 1_555 1_555
C37_3 C36_3 1_555 1_555
H32_3 C37_3 1_555 1_555
C38_3 C37_3 1_555 1_555
C42_3 C38_3 1_555 1_555
H36_3 C42_3 1_555 1_555
N2_2 C19_3 1_555 1_555
N4_2 C22_3 1_555 1_555
H46_3 C61_3 1_555 1_555
Cd5_2 N4_2 1_555 1_555
Cd9_2 N2_2 1_555 1_555
C12_3 C13_3 1_555 1_555
C20_3 C21_3 1_555 1_555
C20_3 N2_2 1_555 1_555
C26_3 N4_2 1_555 1_555
C33_3 C34_3 1_555 1_555
H40_3 C49_3 1_555 1_555
C70_3 C69_3 1_555 1_555
H51_3 C70_3 1_555 1_555
C72_3 C69_3 1_555 1_555
H53_3 C72_3 1_555 1_555
C73_3 C72_3 1_555 1_555
H54_3 C73_3 1_555 1_555
C74_3 C73_3 1_555 1_555
C75_3 C74_3 1_555 1_555
H55_3 C75_3 1_555 1_555
C76_3 C75_3 1_555 1_555
H56_3 C76_3 1_555 1_555
C77_3 C76_3 1_555 1_555
C78_3 C77_3 1_555 1_555
H57_3 C78_3 1_555 1_555
C79_3 C74_3 1_555 1_555
C80_3 C79_3 1_555 1_555
H58_3 C80_3 1_555 1_555
H59_3 C80_3 1_555 1_555
H60_3 C80_3 1_555 1_555
C81_3 C77_3 1_555 1_555
H61_3 C81_3 1_555 1_555
C82_3 C81_3 1_555 1_555
H62_3 C82_3 1_555 1_555
C83_3 C82_3 1_555 1_555
C84_3 C83_3 1_555 1_555
H63_3 C84_3 1_555 1_555
C85_3 C84_3 1_555 1_555
H64_3 C85_3 1_555 1_555
C86_3 H65_3 1_555 1_555
C87_3 C83_3 1_555 1_555
H66_3 C87_3 1_555 1_555
C88_3 H67_3 1_555 1_555
C89_3 C88_3 1_555 1_555
H68_3 C89_3 1_555 1_555
C90_3 C89_3 1_555 1_555
C91_3 C90_3 1_555 1_555
H69_3 C91_3 1_555 1_555
C92_3 C91_3 1_555 1_555
H70_3 C92_3 1_555 1_555
C93_3 C90_3 1_555 1_555
H71_3 C93_3 1_555 1_555
C94_3 C93_3 1_555 1_555
H72_3 C94_3 1_555 1_555
C95_3 C94_3 1_555 1_555
C96_3 C95_3 1_555 1_555
H73_3 C96_3 1_555 1_555
C97_3 C96_3 1_555 1_555
H74_3 C97_3 1_555 1_555
C98_3 C97_3 1_555 1_555
C99_3 C98_3 1_555 1_555
C100_3 C95_3 1_555 1_555
H75_3 C100_3 1_555 1_555
C101_3 C99_3 1_555 1_555
H76_3 C101_3 1_555 1_555
H77_3 C101_3 1_555 1_555
H78_3 C101_3 1_555 1_555
C102_3 C98_3 1_555 1_555
H79_3 C102_3 1_555 1_555
C103_3 C102_3 1_555 1_555
H80_3 C103_3 1_555 1_555
C104_3 C103_3 1_555 1_555
C108_3 C104_3 1_555 1_555
H84_3 C108_3 1_555 1_555
N6_2 C85_3 1_555 1_555
N8_2 C88_3 1_555 1_555
Cd6 N8_2 1_555 1_555
Cd11 N6_2 1_555 1_555
C78_3 C79_3 1_555 1_555
C86_3 C87_3 1_555 1_555
C86_3 N6_2 1_555 1_555
C92_3 N8_2 1_555 1_555
C99_3 C100_3 1_555 1_555
H45_3 C59_3 1_555 1_555
C60_3 C59_3 1_555 1_555
C62_3 C60_3 1_555 1_555
O9_3 C62_3 1_555 1_555
O10_3 C62_3 1_555 1_555
C67_3 H49_3 1_555 1_555
C68_3 C67_3 1_555 1_555
H50_3 C68_3 1_555 1_555
H52_3 C71_3 1_555 1_555
H81_3 C105_3 1_555 1_555
C106_3 C105_3 1_555 1_555
H82_3 C106_3 1_555 1_555
C107_3 H83_3 1_555 1_555
C109_3 C111_3 1_555 1_555
C110_3 H85_3 1_555 1_555
C111_3 C110_3 1_555 1_555
C112_3 C111_3 1_555 1_555
H86_3 C112_3 1_555 1_555
Cd3_2 O10_3 1_555 1_555
Cd4 O9_3 1_555 1_555
N5_3 C67_3 1_555 1_555
N7_3 C106_3 1_555 1_555
O13_3 C109_3 1_555 1_555
O14_3 C109_3 1_555 1_555
N10_2 Cd4 1_555 1_555
N12_2 Cd3_2 1_555 1_555
O17_2 Cd3_2 1_555 1_555
O18_2 Cd3_2 1_555 1_555
O20 Cd4 1_555 1_555
O22 Cd4 1_555 1_555
O10_3 Cd4 1_555 1_555
C71_3 N5_3 1_555 1_555
C107_3 N7_3 1_555 1_555
Cd3_2 N7_3 1_555 1_555
Cd3_2 O13_3 1_555 1_555
Cd3_2 O14_3 1_555 1_555
Cd4 N5_3 1_555 1_555
Cd4 O17_2 1_555 1_555
H87_3 C113_3 1_555 1_555
C114_3 C113_3 1_555 1_555
H88_3 C115_3 1_555 1_555
C116_3 C114_3 1_555 1_555
O20 C116_3 1_555 1_555
O22 C116_3 1_555 1_555
C114_3 C115_3 1_555 1_555
H16_4 C19_4 1_555 1_555
C20_4 H17_4 1_555 1_555
C21_4 C17_4 1_555 1_555
H18_4 C21_4 1_555 1_555
C22_4 H19_4 1_555 1_555
C23_4 C22_4 1_555 1_555
H20_4 C23_4 1_555 1_555
C24_4 C23_4 1_555 1_555
H22_4 C26_4 1_555 1_555
N9_2 C19_4 1_555 1_555
N11_2 C22_4 1_555 1_555
C20_4 C21_4 1_555 1_555
C20_4 N9_2 1_555 1_555
C26_4 N11_2 1_555 1_555
H41_4 C50_4 1_555 1_555
C51_4 C50_4 1_555 1_555
H42_4 C52_4 1_555 1_555
C53_4 C51_4 1_555 1_555
O7_2 C53_4 1_555 1_555
O8_2 C53_4 1_555 1_555
Cd9_2 O7_2 1_555 1_555
C51_4 C52_4 1_555 1_555
O8_2 Cd9_2 1_555 1_555
C1_4 H1_4 1_555 1_555
C2_4 C1_4 1_555 1_555
H2_4 C2_4 1_555 1_555
C3_4 C2_4 1_555 1_555
C4_4 C3_4 1_555 1_555
H3_4 C4_4 1_555 1_555
C5_4 C4_4 1_555 1_555
H4_4 C5_4 1_555 1_555
C6_4 C3_4 1_555 1_555
H5_4 C6_4 1_555 1_555
C7_4 C6_4 1_555 1_555
H6_4 C7_4 1_555 1_555
C8_4 C7_4 1_555 1_555
C9_4 C8_4 1_555 1_555
H7_4 C9_4 1_555 1_555
C10_4 C9_4 1_555 1_555
H8_4 C10_4 1_555 1_555
C11_4 C10_4 1_555 1_555
C12_4 C11_4 1_555 1_555
H9_4 C12_4 1_555 1_555
C13_4 C8_4 1_555 1_555
C14_4 C13_4 1_555 1_555
H10_4 C14_4 1_555 1_555
H11_4 C14_4 1_555 1_555
H12_4 C14_4 1_555 1_555
C15_4 C11_4 1_555 1_555
H13_4 C15_4 1_555 1_555
C16_4 C15_4 1_555 1_555
H14_4 C16_4 1_555 1_555
H15_4 C18_4 1_555 1_555
H21_4 C25_4 1_555 1_555
H23_4 C27_4 1_555 1_555
C28_4 C27_4 1_555 1_555
H24_4 C28_4 1_555 1_555
C29_4 C28_4 1_555 1_555
C30_4 C29_4 1_555 1_555
H25_4 C30_4 1_555 1_555
C31_4 C30_4 1_555 1_555
H26_4 C31_4 1_555 1_555
C32_4 C31_4 1_555 1_555
C33_4 C32_4 1_555 1_555
C34_4 C29_4 1_555 1_555
H27_4 C34_4 1_555 1_555
C35_4 C33_4 1_555 1_555
H28_4 C35_4 1_555 1_555
H29_4 C35_4 1_555 1_555
H30_4 C35_4 1_555 1_555
C36_4 C32_4 1_555 1_555
H31_4 C36_4 1_555 1_555
C37_4 C36_4 1_555 1_555
H32_4 C37_4 1_555 1_555
C38_4 C37_4 1_555 1_555
C39_4 C38_4 1_555 1_555
H33_4 C39_4 1_555 1_555
C40_4 C39_4 1_555 1_555
H34_4 C40_4 1_555 1_555
C41_4 H35_4 1_555 1_555
C42_4 C38_4 1_555 1_555
H36_4 C42_4 1_555 1_555
C43_4 C45_4 1_555 1_555
C44_4 H37_4 1_555 1_555
C45_4 C44_4 1_555 1_555
C46_4 C45_4 1_555 1_555
H38_4 C46_4 1_555 1_555
C47_4 H39_4 1_555 1_555
C48_4 C47_4 1_555 1_555
C49_4 C48_4 1_555 1_555
H40_4 C49_4 1_555 1_555
C54_4 C48_4 1_555 1_555
C55_4 C56_4 1_555 1_555
C56_4 C58_4 1_555 1_555
C57_4 H43_4 1_555 1_555
C58_4 C57_4 1_555 1_555
H44_4 C58_4 1_555 1_555
Cd5_2 N3_4 1_555 1_555
Cd9_2 N1_4 1_555 1_555
N1_4 C1_4 1_555 1_555
N3_4 C40_4 1_555 1_555
O1_4 C55_4 1_555 1_555
O2_4 C55_4 1_555 1_555
O3_4 C43_4 1_555 1_555
O4_4 C43_4 1_555 1_555
O5_4 C54_4 1_555 1_555
O6_4 C54_4 1_555 1_555
C59_4 C49_4 1_555 1_555
H45_4 C59_4 1_555 1_555
C60_4 C59_4 1_555 1_555
C61_4 C47_4 1_555 1_555
H46_4 C61_4 1_555 1_555
C62_4 C60_4 1_555 1_555
O9_4 C62_4 1_555 1_555
O10_4 C62_4 1_555 1_555
C63_4 C64_4 1_555 1_555
C64_4 C57_4 1_555 1_555
C65_4 C56_4 1_555 1_555
H47_4 C65_4 1_555 1_555
C66_4 C64_4 1_555 1_555
H48_4 C66_4 1_555 1_555
O17_2 C63_4 1_555 1_555
O18_2 C63_4 1_555 1_555
C67_4 H49_4 1_555 1_555
C68_4 C67_4 1_555 1_555
H50_4 C68_4 1_555 1_555
C69_4 C68_4 1_555 1_555
C70_4 C69_4 1_555 1_555
H51_4 C70_4 1_555 1_555
C71_4 C70_4 1_555 1_555
H52_4 C71_4 1_555 1_555
C72_4 C69_4 1_555 1_555
H53_4 C72_4 1_555 1_555
C73_4 C72_4 1_555 1_555
H54_4 C73_4 1_555 1_555
C74_4 C73_4 1_555 1_555
C75_4 C74_4 1_555 1_555
H55_4 C75_4 1_555 1_555
C76_4 C75_4 1_555 1_555
H56_4 C76_4 1_555 1_555
C77_4 C76_4 1_555 1_555
C78_4 C77_4 1_555 1_555
H57_4 C78_4 1_555 1_555
C79_4 C74_4 1_555 1_555
C80_4 C79_4 1_555 1_555
H58_4 C80_4 1_555 1_555
H59_4 C80_4 1_555 1_555
H60_4 C80_4 1_555 1_555
C81_4 C77_4 1_555 1_555
H61_4 C81_4 1_555 1_555
C82_4 C81_4 1_555 1_555
H62_4 C82_4 1_555 1_555
H63_4 C84_4 1_555 1_555
H69_4 C91_4 1_555 1_555
H71_4 C93_4 1_555 1_555
C94_4 C93_4 1_555 1_555
H72_4 C94_4 1_555 1_555
C95_4 C94_4 1_555 1_555
C96_4 C95_4 1_555 1_555
H73_4 C96_4 1_555 1_555
C97_4 C96_4 1_555 1_555
H74_4 C97_4 1_555 1_555
C98_4 C97_4 1_555 1_555
C99_4 C98_4 1_555 1_555
C100_4 C95_4 1_555 1_555
H75_4 C100_4 1_555 1_555
C101_4 C99_4 1_555 1_555
H76_4 C101_4 1_555 1_555
H77_4 C101_4 1_555 1_555
H78_4 C101_4 1_555 1_555
C102_4 C98_4 1_555 1_555
H79_4 C102_4 1_555 1_555
C103_4 C102_4 1_555 1_555
H80_4 C103_4 1_555 1_555
C104_4 C103_4 1_555 1_555
C105_4 C104_4 1_555 1_555
H81_4 C105_4 1_555 1_555
C106_4 C105_4 1_555 1_555
H82_4 C106_4 1_555 1_555
C107_4 H83_4 1_555 1_555
C108_4 C104_4 1_555 1_555
H84_4 C108_4 1_555 1_555
C109_4 C111_4 1_555 1_555
C110_4 H85_4 1_555 1_555
C111_4 C110_4 1_555 1_555
C112_4 C111_4 1_555 1_555
H86_4 C112_4 1_555 1_555
Cd6 O10_4 1_555 1_555
Cd11 O9_4 1_555 1_555
N5_4 C67_4 1_555 1_555
N7_4 C106_4 1_555 1_555
O13_4 C109_4 1_555 1_555
O14_4 C109_4 1_555 1_555
O20_2 Cd11 1_555 1_555
O22_2 Cd11 1_555 1_555
C5_4 N1_4 1_555 1_555
C12_4 C13_4 1_555 1_555
C33_4 C34_4 1_555 1_555
C41_4 C42_4 1_555 1_555
C41_4 N3_4 1_555 1_555
Cd5_2 O1_4 1_555 1_555
Cd5_2 O2_4 1_555 1_555
Cd5_2 O3_4 1_555 1_555
Cd5_2 O4_4 1_555 1_555
Cd5_2 O6_4 1_555 1_555
Cd9_2 O1_4 1_555 1_555
Cd9_2 O5_4 1_555 1_555
Cd9_2 O6_4 1_555 1_555
C60_4 C61_4 1_555 1_555
O10_4 Cd11 1_555 1_555
C65_4 C66_4 1_555 1_555
C71_4 N5_4 1_555 1_555
C78_4 C79_4 1_555 1_555
C99_4 C100_4 1_555 1_555
C107_4 C108_4 1_555 1_555
C107_4 N7_4 1_555 1_555
Cd6 N7_4 1_555 1_555
Cd6 O13_4 1_555 1_555
Cd6 O14_4 1_555 1_555
Cd11 N5_4 1_555 1_555
H87_4 C113_4 1_555 1_555
C114_4 C113_4 1_555 1_555
H88_4 C115_4 1_555 1_555
C116_4 C114_4 1_555 1_555
O20_2 C116_4 1_555 1_555
O22_2 C116_4 1_555 1_555
C114_4 C115_4 1_555 1_555
H64_4 C85_4 1_555 1_555
C86_4 H65_4 1_555 1_555
C87_4 C83_4 1_555 1_555
H66_4 C87_4 1_555 1_555
C88_4 H67_4 1_555 1_555
C89_4 C88_4 1_555 1_555
H68_4 C89_4 1_555 1_555
C90_4 C89_4 1_555 1_555
H70_4 C92_4 1_555 1_555
N10_2 C85_4 1_555 1_555
N12_2 C88_4 1_555 1_555
C86_4 C87_4 1_555 1_555
C86_4 N10_2 1_555 1_555
C92_4 N12_2 1_555 1_555

#END
