
###############################################################################
#
# This file contains modified crystal structure data generated from the
# MOF subset of the Cambridge Structural Database (CSD) v543 
# hosted by the Cambridge Crystallographic Data Centre (CCDC).
#
# This work is licensed under the Creative Commons
# Attribution-NonCommercial-ShareAlike 4.0 International License.
# To view a copy of this license, visit
# http://creativecommons.org/licenses/by-nc-sa/4.0/
# or send a letter to
# Creative Commons, PO Box 1866, Mountain View, CA 94042, USA.
#
# CIF created using the CSD Python API on 29 September 2022
# The structure has been converted into the P1 space group
# The structure has a 3D framework
# The original CSD entry VOZQAF is in the triclinic crystal system
# The framework has been calculated to contain at least 10.0% void space
# The void calculation uses a probe of radius 1.32A, grid spacing 0.4
#
###############################################################################

data_VOZQAF
_chemical_formula_moiety         '(C76 H60 O30 Y4)n'
_symmetry_cell_setting           triclinic
_symmetry_space_group_name_H-M   'P 1'
_symmetry_Int_Tables_number      1
_space_group_name_Hall           'P 1'
loop_
_symmetry_equiv_pos_site_id
_symmetry_equiv_pos_as_xyz
1 x,y,z
_cell_length_a                   12.4262(5)
_cell_length_b                   12.6835(5)
_cell_length_c                   18.0111(5)
_cell_angle_alpha                74.078(3)
_cell_angle_beta                 83.157(3)
_cell_angle_gamma                65.184(4)
_cell_volume                     2477.69
loop_
_atom_site_label
_atom_site_type_symbol
_atom_site_fract_x
_atom_site_fract_y
_atom_site_fract_z
_atom_site_U_iso_or_equiv
_atom_site_thermal_displace_type
O3 O 0.3513(5) 0.7773(5) 0.6607(3) 0.0199 Uani
O4 O 0.4124(5) 0.6851(5) 0.7814(3) 0.0228 Uani
C5 C 0.0076(7) 0.7999(7) 0.7186(4) 0.0211 Uani
C8 C 0.0841(7) 0.6623(7) 0.8452(5) 0.0232 Uani
H11 H 0.072025 0.618606 0.893602 0.0280 Uiso
C9 C 0.1941(7) 0.6608(7) 0.8251(4) 0.0215 Uani
H12 H 0.256451 0.615097 0.859722 0.0260 Uiso
C10 C 0.2143(7) 0.7288(7) 0.7516(4) 0.0203 Uani
C11 C 0.1221(7) 0.7962(7) 0.7002(4) 0.0210 Uani
H13 H 0.135891 0.840171 0.652275 0.0250 Uiso
C12 C 0.3348(7) 0.7290(7) 0.7302(4) 0.0197 Uani
H21 H 0.022511 0.350086 0.637632 0.0310 Uiso
C29 C 0.0308(7) 0.4444(7) 0.5274(4) 0.0203 Uani
O17 O 0.3705(5) 0.3358(5) 0.3634(3) 0.0229 Uani
O18 O 0.3306(4) 0.1892(5) 0.4400(3) 0.0192 Uani
C39 C 0.3025(6) 0.2968(7) 0.4103(4) 0.0164 Uani
C40 C 0.1867(6) 0.3886(7) 0.4316(5) 0.0208 Uani
C41 C 0.1258(8) 0.4989(7) 0.3782(5) 0.0265 Uani
H31 H 0.158253 0.517253 0.329614 0.0320 Uiso
C42 C 0.0185(7) 0.5789(8) 0.3984(5) 0.0264 Uani
C44 C 0.1408(7) 0.3622(7) 0.5034(5) 0.0232 Uani
H33 H 0.181848 0.289105 0.537612 0.0280 Uiso
Y6 Y 0.47635(5) 0.87356(6) 0.61916(4) 0.0163 Uani
Y9 Y 0.52365(5) 0.12644(6) 0.38084(4) 0.0163 Uani
Y12 Y 0.53113(5) 0.62866(6) 0.88486(4) 0.0167 Uani
O8 O 0.4513(5) 0.3185(5) 0.0041(3) 0.0213 Uani
C49 C 0.0061(7) 0.9417(7) 0.0017(5) 0.0251 Uani
Y15 Y 0.46887(5) 0.37134(6) 0.11514(4) 0.0167 Uani
O5 O 0.5051(5) 0.0434(5) 0.5768(3) 0.0215 Uani
O6 O 0.5328(5) 0.1927(5) 0.4895(3) 0.0199 Uani
O7 O 0.4831(5) 0.4682(5) 0.9213(3) 0.0204 Uani
O11 O 0.3382(5) 0.7002(5) 0.9412(3) 0.0206 Uani
O12 O 0.3848(5) 0.8480(5) 0.8727(3) 0.0240 Uani
O13 O 0.6493(5) 0.5355(6) 0.7881(3) 0.0288 Uani
H1 H 0.604943 0.539360 0.752789 0.0430 Uiso
H2 H 0.686747 0.459089 0.807510 0.0430 Uiso
O14 O 0.7036(5) 0.4676(5) 0.9423(3) 0.0257 Uani
H3 H 0.768947 0.464913 0.934561 0.0380 Uiso
H4 H 0.692683 0.439550 0.991990 0.0380 Uiso
O15 O 0.2942(5) 0.0162(5) 0.5572(3) 0.0216 Uani
H5 H 0.306784 0.062468 0.512612 0.0330 Uiso
H6 H 0.252274 0.070155 0.584439 0.0330 Uiso
C13 C 0.5162(6) 0.1423(7) 0.5573(4) 0.0178 Uani
C14 C 0.5090(7) 0.2025(7) 0.6198(5) 0.0204 Uani
C15 C 0.5041(7) 0.3210(7) 0.6008(5) 0.0247 Uani
H14 H 0.505286 0.361574 0.549400 0.0300 Uiso
C16 C 0.4978(8) 0.3752(8) 0.6582(5) 0.0244 Uani
H15 H 0.495848 0.452178 0.645093 0.0300 Uiso
C17 C 0.4942(7) 0.3165(7) 0.7372(5) 0.0205 Uani
C18 C 0.4992(7) 0.1972(7) 0.7563(5) 0.0211 Uani
C19 C 0.5072(7) 0.1428(7) 0.6959(5) 0.0217 Uani
H16 H 0.511288 0.065051 0.707899 0.0260 Uiso
C20 C 0.4860(7) 0.3710(7) 0.7976(5) 0.0220 Uani
H17 H 0.482542 0.448454 0.785770 0.0260 Uiso
C21 C 0.4831(7) 0.3109(7) 0.8737(4) 0.0207 Uani
C22 C 0.4871(8) 0.1928(7) 0.8922(5) 0.0249 Uani
H18 H 0.483806 0.152990 0.943601 0.0290 Uiso
C23 C 0.4957(7) 0.1376(7) 0.8351(5) 0.0226 Uani
H19 H 0.499403 0.059999 0.848087 0.0280 Uiso
C24 C 0.4720(6) 0.3707(7) 0.9370(4) 0.0184 Uani
C31 C 0.3150(7) 0.8105(7) 0.9169(5) 0.0234 Uani
C32 C 0.2019(7) 0.8983(7) 0.9441(5) 0.0236 Uani
C36 C 0.1133(7) 0.8619(7) 0.9744(5) 0.0258 Uani
H25 H 0.123240 0.784039 0.977261 0.0310 Uiso
C37 C 0.2555(8) 0.0808(9) 0.7193(6) 0.0361 Uani
H26 H 0.253834 0.140598 0.671876 0.0430 Uiso
H27 H 0.265024 0.109223 0.761873 0.0430 Uiso
C38 C 0.1399(9) 0.0675(10) 0.7286(6) 0.0426 Uani
H28 H 0.128300 0.042987 0.685317 0.0640 Uiso
H29 H 0.076286 0.142879 0.730993 0.0640 Uiso
H30 H 0.141239 0.008097 0.775307 0.0640 Uiso
O33 O 0.6514(5) 0.7279(5) 0.8418(3) 0.0223 Uani
O42 O 0.5487(5) 0.6815(5) 0.9959(3) 0.0213 Uani
O1 O 0.5882(5) 0.8337(5) 0.7229(3) 0.0216 Uani
O9 O 0.6295(5) 0.6642(5) 0.6366(3) 0.0229 Uani
O10 O 0.6694(4) 0.8108(5) 0.5600(3) 0.0192 Uani
O16 O 0.3541(5) 0.9714(5) 0.7172(3) 0.0247 Uani
H7 H 0.387(5) 0.939(5) 0.7616(15) 0.0370 Uiso
C1 C 0.6655(7) 0.7853(7) 0.7748(4) 0.0185 Uani
C2 C 0.7824(7) 0.7953(7) 0.7568(5) 0.0200 Uani
C3 C 0.8744(7) 0.7304(7) 0.8096(4) 0.0206 Uani
H8 H 0.860674 0.685984 0.857345 0.0240 Uiso
C4 C 0.9874(7) 0.7303(7) 0.7925(4) 0.0215 Uani
C6 C 0.9108(7) 0.8683(7) 0.6670(5) 0.0218 Uani
H9 H 0.921865 0.916056 0.619878 0.0260 Uiso
C7 C 0.8022(7) 0.8657(7) 0.6847(4) 0.0217 Uani
H10 H 0.740605 0.910341 0.649393 0.0270 Uiso
C25 C 0.6975(6) 0.7032(7) 0.5897(4) 0.0164 Uani
C26 C 0.8133(6) 0.6114(7) 0.5684(5) 0.0208 Uani
C27 C 0.8742(8) 0.5011(7) 0.6218(5) 0.0265 Uani
H20 H 0.841747 0.482747 0.670386 0.0320 Uiso
C28 C 0.9815(7) 0.4211(8) 0.6016(5) 0.0264 Uani
C30 C 0.8592(7) 0.6378(7) 0.4966(5) 0.0232 Uani
H22 H 0.818152 0.710895 0.462388 0.0280 Uiso
H32 H 0.977489 0.649914 0.362368 0.0310 Uiso
C43 C 0.9692(7) 0.5556(7) 0.4726(4) 0.0203 Uani
O40 O 0.4672(5) 0.8073(5) 0.5105(3) 0.0199 Uani
O21 O 0.4118(5) 0.1663(5) 0.2771(3) 0.0216 Uani
O22 O 0.3486(5) 0.2721(5) 0.1582(3) 0.0223 Uani
O32 O 0.6459(5) 0.0286(5) 0.2828(3) 0.0247 Uani
H43 H 0.613(5) 0.061(5) 0.2384(15) 0.0370 Uiso
C51 C 0.3345(7) 0.2147(7) 0.2252(4) 0.0185 Uani
C52 C 0.2176(7) 0.2047(7) 0.2432(5) 0.0200 Uani
C53 C 0.1256(7) 0.2696(7) 0.1904(4) 0.0206 Uani
H44 H 0.139326 0.314016 0.142655 0.0240 Uiso
C54 C 0.0126(7) 0.2697(7) 0.2075(4) 0.0215 Uani
C56 C 0.0892(7) 0.1317(7) 0.3330(5) 0.0218 Uani
H45 H 0.078135 0.083944 0.380122 0.0260 Uiso
C57 C 0.1978(7) 0.1343(7) 0.3153(4) 0.0217 Uani
H46 H 0.259395 0.089659 0.350607 0.0270 Uiso
O36 O 0.6487(5) 0.2227(5) 0.3393(3) 0.0199 Uani
O19 O 0.6618(5) 0.2998(5) 0.0588(3) 0.0206 Uani
O20 O 0.6152(5) 0.1520(5) 0.1273(3) 0.0240 Uani
C45 C 0.6850(7) 0.1895(7) 0.0831(5) 0.0234 Uani
C46 C 0.7981(7) 0.1017(7) 0.0559(5) 0.0236 Uani
C50 C 0.8867(7) 0.1381(7) 0.0256(5) 0.0258 Uani
H36 H 0.876760 0.215961 0.022739 0.0310 Uiso
O25 O 0.4949(5) 0.9566(5) 0.4232(3) 0.0215 Uani
O27 O 0.5169(5) 0.5318(5) 0.0787(3) 0.0204 Uani
O29 O 0.3507(5) 0.4645(6) 0.2119(3) 0.0288 Uani
H37 H 0.395057 0.460640 0.247211 0.0430 Uiso
H38 H 0.313253 0.540911 0.192490 0.0430 Uiso
O30 O 0.2964(5) 0.5324(5) 0.0577(3) 0.0257 Uani
H39 H 0.231053 0.535087 0.065439 0.0380 Uiso
H40 H 0.307317 0.560450 0.008010 0.0380 Uiso
O31 O 0.7058(5) 0.9838(5) 0.4428(3) 0.0216 Uani
H41 H 0.693216 0.937532 0.487388 0.0330 Uiso
H42 H 0.747726 0.929845 0.415561 0.0330 Uiso
C63 C 0.4838(6) 0.8577(7) 0.4427(4) 0.0178 Uani
C64 C 0.4910(7) 0.7975(7) 0.3802(5) 0.0204 Uani
C65 C 0.4959(7) 0.6790(7) 0.3992(5) 0.0247 Uani
H50 H 0.494714 0.638426 0.450600 0.0300 Uiso
C66 C 0.5022(8) 0.6248(8) 0.3418(5) 0.0244 Uani
H51 H 0.504152 0.547822 0.354907 0.0300 Uiso
C67 C 0.5058(7) 0.6835(7) 0.2628(5) 0.0205 Uani
C68 C 0.5008(7) 0.8028(7) 0.2437(5) 0.0211 Uani
C69 C 0.4928(7) 0.8572(7) 0.3041(5) 0.0217 Uani
H52 H 0.488712 0.934949 0.292101 0.0260 Uiso
C70 C 0.5140(7) 0.6290(7) 0.2024(5) 0.0220 Uani
H53 H 0.517458 0.551546 0.214230 0.0260 Uiso
C71 C 0.5169(7) 0.6891(7) 0.1263(4) 0.0207 Uani
C72 C 0.5129(8) 0.8072(7) 0.1078(5) 0.0249 Uani
H54 H 0.516194 0.847010 0.056399 0.0290 Uiso
C73 C 0.5043(7) 0.8624(7) 0.1649(5) 0.0226 Uani
H55 H 0.500597 0.940001 0.151913 0.0280 Uiso
C74 C 0.5280(6) 0.6293(7) 0.0630(4) 0.0184 Uani
C75 C 0.7445(8) 0.9192(9) 0.2807(6) 0.0361 Uani
H56 H 0.746166 0.859402 0.328124 0.0430 Uiso
H57 H 0.734976 0.890777 0.238127 0.0430 Uiso
C76 C 0.8601(9) 0.9325(10) 0.2714(6) 0.0426 Uani
H58 H 0.871700 0.957013 0.314683 0.0640 Uiso
H59 H 0.923714 0.857121 0.269007 0.0640 Uiso
H60 H 0.858761 0.991903 0.224693 0.0640 Uiso
O38 O 0.5876(5) 0.3149(5) 0.2186(3) 0.0228 Uani
C35 C 0.9939(7) 0.0583(7) 0.9983(5) 0.0251 Uani
C55 C 0.9924(7) 0.2001(7) 0.2814(4) 0.0211 Uani
C58 C 0.9159(7) 0.3377(7) 0.1548(5) 0.0232 Uani
H47 H 0.927975 0.381394 0.106398 0.0280 Uiso
C59 C 0.8059(7) 0.3392(7) 0.1749(4) 0.0215 Uani
H48 H 0.743549 0.384903 0.140278 0.0260 Uiso
C60 C 0.7857(7) 0.2712(7) 0.2484(4) 0.0203 Uani
C61 C 0.8779(7) 0.2038(7) 0.2998(4) 0.0210 Uani
H49 H 0.864109 0.159829 0.347725 0.0250 Uiso
C62 C 0.6652(7) 0.2710(7) 0.2698(4) 0.0197 Uani
C33 C 0.1879(7) 0.0164(8) 0.9401(5) 0.0286 Uani
H23 H 0.248189 0.040991 0.919044 0.0340 Uiso
C34 C 0.0881(7) 0.0938(8) 0.9665(5) 0.0273 Uani
H24 H 0.080505 0.170800 0.964035 0.0330 Uiso
C47 C 0.8121(7) 0.9836(8) 0.0599(5) 0.0286 Uani
H34 H 0.751811 0.959009 0.080956 0.0340 Uiso
C48 C 0.9119(7) 0.9062(8) 0.0335(5) 0.0273 Uani
H35 H 0.919495 0.829200 0.035965 0.0330 Uiso
loop_
_atom_site_aniso_label
_atom_site_aniso_U_11
_atom_site_aniso_U_22
_atom_site_aniso_U_33
_atom_site_aniso_U_23
_atom_site_aniso_U_13
_atom_site_aniso_U_12
O3 0.018 0.027 0.017 -0.002 0.002 -0.014
O4 0.019 0.033 0.017 -0.004 -0.002 -0.012
C5 0.02 0.031 0.016 -0.005 0.002 -0.015
C8 0.024 0.025 0.019 -0.002 -0.002 -0.01
C9 0.021 0.027 0.018 -0.004 -0.005 -0.011
C10 0.019 0.025 0.019 -0.008 0.002 -0.01
C11 0.018 0.029 0.016 -0.002 0.001 -0.012
C12 0.019 0.025 0.02 -0.009 0.002 -0.012
C29 0.019 0.024 0.019 -0.006 -0.001 -0.009
O17 0.02 0.029 0.019 -0.006 0.003 -0.01
O18 0.012 0.025 0.021 -0.009 0.001 -0.006
C39 0.008 0.028 0.011 -0.007 0 -0.004
C40 0.013 0.026 0.023 -0.008 0.002 -0.007
C41 0.029 0.024 0.022 -0.003 0.003 -0.009
C42 0.025 0.03 0.02 -0.003 -0.001 -0.009
C44 0.019 0.024 0.02 -0.006 0 -0.002
Y6 0.0141 0.0231 0.0139 -0.0065 0.0014 -0.0087
Y9 0.0141 0.0231 0.0139 -0.0065 0.0014 -0.0087
Y12 0.0146 0.0236 0.0139 -0.0064 0.0016 -0.0091
O8 0.024 0.027 0.019 -0.008 0.001 -0.015
C49 0.023 0.026 0.023 -0.006 0.001 -0.007
Y15 0.0146 0.0236 0.0139 -0.0064 0.0016 -0.0091
O5 0.026 0.027 0.015 -0.003 -0.002 -0.015
O6 0.022 0.025 0.016 -0.008 0 -0.011
O7 0.023 0.023 0.018 -0.002 -0.004 -0.013
O11 0.015 0.025 0.023 -0.009 0.006 -0.009
O12 0.019 0.031 0.022 -0.005 0.003 -0.012
O13 0.023 0.034 0.027 -0.017 0.006 -0.005
O14 0.016 0.037 0.02 0 -0.001 -0.011
O15 0.016 0.028 0.019 -0.006 0 -0.007
C13 0.013 0.023 0.019 -0.007 0.001 -0.008
C14 0.018 0.026 0.023 -0.01 0 -0.012
C15 0.029 0.025 0.019 -0.004 0.001 -0.011
C16 0.033 0.025 0.02 -0.007 0.002 -0.016
C17 0.025 0.021 0.02 -0.006 0 -0.013
C18 0.024 0.022 0.02 -0.007 0.001 -0.011
C19 0.025 0.024 0.021 -0.008 0.003 -0.014
C20 0.029 0.023 0.019 -0.008 0.005 -0.015
C21 0.025 0.025 0.018 -0.007 0.001 -0.015
C22 0.033 0.025 0.018 -0.006 0.001 -0.013
C23 0.028 0.023 0.019 -0.005 0.002 -0.013
C24 0.013 0.026 0.016 -0.005 0 -0.008
C31 0.013 0.028 0.021 -0.004 0.001 -0.002
C32 0.018 0.023 0.024 -0.006 -0.003 -0.002
C36 0.028 0.023 0.023 -0.009 0.003 -0.006
C37 0.03 0.039 0.031 -0.008 -0.002 -0.006
C38 0.03 0.052 0.041 -0.015 0.008 -0.012
O33 0.021 0.032 0.017 -0.003 0.001 -0.016
O42 0.024 0.027 0.019 -0.008 0.001 -0.015
O1 0.019 0.03 0.019 -0.009 -0.001 -0.011
O9 0.02 0.029 0.019 -0.006 0.003 -0.01
O10 0.012 0.025 0.021 -0.009 0.001 -0.006
O16 0.018 0.031 0.027 -0.017 0.005 -0.007
C1 0.015 0.026 0.019 -0.009 0.002 -0.011
C2 0.018 0.028 0.02 -0.008 0.001 -0.014
C3 0.021 0.026 0.016 -0.005 0.001 -0.011
C4 0.02 0.029 0.016 -0.002 -0.002 -0.012
C6 0.02 0.027 0.02 -0.002 -0.002 -0.013
C7 0.02 0.027 0.017 -0.001 -0.005 -0.01
C25 0.008 0.028 0.011 -0.007 0 -0.004
C26 0.013 0.026 0.023 -0.008 0.002 -0.007
C27 0.029 0.024 0.022 -0.003 0.003 -0.009
C28 0.025 0.03 0.02 -0.003 -0.001 -0.009
C30 0.019 0.024 0.02 -0.006 0 -0.002
C43 0.019 0.024 0.019 -0.006 -0.001 -0.009
O40 0.022 0.025 0.016 -0.008 0 -0.011
O21 0.019 0.03 0.019 -0.009 -0.001 -0.011
O22 0.021 0.032 0.017 -0.003 0.001 -0.016
O32 0.018 0.031 0.027 -0.017 0.005 -0.007
C51 0.015 0.026 0.019 -0.009 0.002 -0.011
C52 0.018 0.028 0.02 -0.008 0.001 -0.014
C53 0.021 0.026 0.016 -0.005 0.001 -0.011
C54 0.02 0.029 0.016 -0.002 -0.002 -0.012
C56 0.02 0.027 0.02 -0.002 -0.002 -0.013
C57 0.02 0.027 0.017 -0.001 -0.005 -0.01
O36 0.018 0.027 0.017 -0.002 0.002 -0.014
O19 0.015 0.025 0.023 -0.009 0.006 -0.009
O20 0.019 0.031 0.022 -0.005 0.003 -0.012
C45 0.013 0.028 0.021 -0.004 0.001 -0.002
C46 0.018 0.023 0.024 -0.006 -0.003 -0.002
C50 0.028 0.023 0.023 -0.009 0.003 -0.006
O25 0.026 0.027 0.015 -0.003 -0.002 -0.015
O27 0.023 0.023 0.018 -0.002 -0.004 -0.013
O29 0.023 0.034 0.027 -0.017 0.006 -0.005
O30 0.016 0.037 0.02 0 -0.001 -0.011
O31 0.016 0.028 0.019 -0.006 0 -0.007
C63 0.013 0.023 0.019 -0.007 0.001 -0.008
C64 0.018 0.026 0.023 -0.01 0 -0.012
C65 0.029 0.025 0.019 -0.004 0.001 -0.011
C66 0.033 0.025 0.02 -0.007 0.002 -0.016
C67 0.025 0.021 0.02 -0.006 0 -0.013
C68 0.024 0.022 0.02 -0.007 0.001 -0.011
C69 0.025 0.024 0.021 -0.008 0.003 -0.014
C70 0.029 0.023 0.019 -0.008 0.005 -0.015
C71 0.025 0.025 0.018 -0.007 0.001 -0.015
C72 0.033 0.025 0.018 -0.006 0.001 -0.013
C73 0.028 0.023 0.019 -0.005 0.002 -0.013
C74 0.013 0.026 0.016 -0.005 0 -0.008
C75 0.03 0.039 0.031 -0.008 -0.002 -0.006
C76 0.03 0.052 0.041 -0.015 0.008 -0.012
O38 0.019 0.033 0.017 -0.004 -0.002 -0.012
C35 0.023 0.026 0.023 -0.006 0.001 -0.007
C55 0.02 0.031 0.016 -0.005 0.002 -0.015
C58 0.024 0.025 0.019 -0.002 -0.002 -0.01
C59 0.021 0.027 0.018 -0.004 -0.005 -0.011
C60 0.019 0.025 0.019 -0.008 0.002 -0.01
C61 0.018 0.029 0.016 -0.002 0.001 -0.012
C62 0.019 0.025 0.02 -0.009 0.002 -0.012
C33 0.022 0.036 0.027 -0.005 0.005 -0.014
C34 0.021 0.026 0.034 -0.01 0.007 -0.009
C47 0.022 0.036 0.027 -0.005 0.005 -0.014
C48 0.021 0.026 0.034 -0.01 0.007 -0.009
loop_
_geom_bond_atom_site_label_1
_geom_bond_atom_site_label_2
_geom_bond_site_symmetry_1
_geom_bond_site_symmetry_2
O3 C12 1_555 1_555
O4 C12 1_555 1_555
H11 C8 1_555 1_555
C9 C8 1_555 1_555
H12 C9 1_555 1_555
C10 C9 1_555 1_555
C11 C5 1_555 1_555
H13 C11 1_555 1_555
C12 C10 1_555 1_555
O17 C39 1_555 1_555
O18 C39 1_555 1_555
C39 C40 1_555 1_555
C40 C41 1_555 1_555
C41 H31 1_555 1_555
C42 C41 1_555 1_555
C44 C29 1_555 1_555
H33 C44 1_555 1_555
Y6 O3 1_555 1_555
Y9 O17 1_555 1_555
Y12 O4 1_555 1_555
C10 C11 1_555 1_555
O18 Y9 1_555 1_555
C40 C44 1_555 1_555
Y15 O8 1_555 1_555
Y12 O7 1_555 1_555
O6 C13 1_555 1_555
O7 C24 1_555 1_555
O11 Y12 1_555 1_555
O12 Y12 1_555 1_555
O13 Y12 1_555 1_555
H1 O13 1_555 1_555
H2 O13 1_555 1_555
O14 Y12 1_555 1_555
H3 O14 1_555 1_555
H4 O14 1_555 1_555
H5 O15 1_555 1_555
H6 O15 1_555 1_555
C13 O5 1_555 1_555
C14 C13 1_555 1_555
C15 C14 1_555 1_555
H14 C15 1_555 1_555
C16 C15 1_555 1_555
H15 C16 1_555 1_555
C17 C16 1_555 1_555
C18 C17 1_555 1_555
C19 C14 1_555 1_555
H16 C19 1_555 1_555
C20 C17 1_555 1_555
H17 C20 1_555 1_555
C21 C20 1_555 1_555
C22 C21 1_555 1_555
H18 C22 1_555 1_555
C23 C18 1_555 1_555
H19 C23 1_555 1_555
C24 C21 1_555 1_555
C31 O11 1_555 1_555
C32 C31 1_555 1_555
C36 C32 1_555 1_555
H25 C36 1_555 1_555
H26 C37 1_555 1_555
H27 C37 1_555 1_555
C38 C37 1_555 1_555
H28 C38 1_555 1_555
H29 C38 1_555 1_555
H30 C38 1_555 1_555
Y9 O6 1_555 1_555
O33 Y12 1_555 1_555
O42 Y12 1_555 1_555
O12 C31 1_555 1_555
C18 C19 1_555 1_555
C22 C23 1_555 1_555
Y6 O1 1_555 1_555
O1 C1 1_555 1_555
O33 C1 1_555 1_555
O9 Y6 1_555 1_555
O10 Y6 1_555 1_555
O16 Y6 1_555 1_555
H7 O16 1_555 1_555
C1 C2 1_555 1_555
C2 C3 1_555 1_555
C3 H8 1_555 1_555
C4 C3 1_555 1_555
H9 C6 1_555 1_555
C7 C2 1_555 1_555
H10 C7 1_555 1_555
C25 O9 1_555 1_555
C26 C25 1_555 1_555
C27 C26 1_555 1_555
H20 C27 1_555 1_555
C28 C27 1_555 1_555
C30 C26 1_555 1_555
H22 C30 1_555 1_555
O40 Y6 1_555 1_555
O10 C25 1_555 1_555
C6 C7 1_555 1_555
C30 C43 1_555 1_555
Y9 O21 1_555 1_555
O21 C51 1_555 1_555
O22 C51 1_555 1_555
O32 Y9 1_555 1_555
H43 O32 1_555 1_555
C51 C52 1_555 1_555
C52 C53 1_555 1_555
C53 H44 1_555 1_555
C54 C53 1_555 1_555
H45 C56 1_555 1_555
C57 C52 1_555 1_555
H46 C57 1_555 1_555
Y15 O22 1_555 1_555
O36 Y9 1_555 1_555
C56 C57 1_555 1_555
O19 C45 1_555 1_555
O20 C45 1_555 1_555
C45 C46 1_555 1_555
H36 C50 1_555 1_555
Y15 O19 1_555 1_555
O40 C63 1_555 1_555
O27 Y15 1_555 1_555
O29 Y15 1_555 1_555
H37 O29 1_555 1_555
H38 O29 1_555 1_555
O30 Y15 1_555 1_555
H39 O30 1_555 1_555
H40 O30 1_555 1_555
H41 O31 1_555 1_555
H42 O31 1_555 1_555
C63 O25 1_555 1_555
C64 C63 1_555 1_555
C65 C64 1_555 1_555
H50 C65 1_555 1_555
C66 C65 1_555 1_555
H51 C66 1_555 1_555
C67 C66 1_555 1_555
C68 C67 1_555 1_555
C69 C64 1_555 1_555
H52 C69 1_555 1_555
C70 C67 1_555 1_555
H53 C70 1_555 1_555
C71 C70 1_555 1_555
C72 C71 1_555 1_555
H54 C72 1_555 1_555
C73 C68 1_555 1_555
H55 C73 1_555 1_555
C74 O27 1_555 1_555
H56 C75 1_555 1_555
H57 C75 1_555 1_555
C76 C75 1_555 1_555
H58 C76 1_555 1_555
H59 C76 1_555 1_555
H60 C76 1_555 1_555
O38 Y15 1_555 1_555
O20 Y15 1_555 1_555
C46 C50 1_555 1_555
C68 C69 1_555 1_555
C71 C74 1_555 1_555
C72 C73 1_555 1_555
O36 C62 1_555 1_555
O38 C62 1_555 1_555
H47 C58 1_555 1_555
C59 C58 1_555 1_555
H48 C59 1_555 1_555
C60 C59 1_555 1_555
C61 C55 1_555 1_555
H49 C61 1_555 1_555
C62 C60 1_555 1_555
C60 C61 1_555 1_555
H23 C33 1_555 1_555
C34 C33 1_555 1_555
H24 C34 1_555 1_555
C47 H34 1_555 1_555
C48 C47 1_555 1_555
H35 C48 1_555 1_555

#END
