
###############################################################################
#
# This file contains modified crystal structure data generated from the
# MOF subset of the Cambridge Structural Database (CSD) v543 
# hosted by the Cambridge Crystallographic Data Centre (CCDC).
#
# This work is licensed under the Creative Commons
# Attribution-NonCommercial-ShareAlike 4.0 International License.
# To view a copy of this license, visit
# http://creativecommons.org/licenses/by-nc-sa/4.0/
# or send a letter to
# Creative Commons, PO Box 1866, Mountain View, CA 94042, USA.
#
# CIF created using the CSD Python API on 29 September 2022
# The structure has been converted into the P1 space group
# The structure has a 3D framework
# The original CSD entry VOZVIR01 is in the monoclinic crystal system
# The framework has been calculated to contain at least 10.0% void space
# The void calculation uses a probe of radius 1.32A, grid spacing 0.4
#
###############################################################################

data_VOZVIR01
_chemical_formula_moiety         '(C288 H192 I48 N96 Zn24)n'
_symmetry_cell_setting           triclinic
_symmetry_space_group_name_H-M   'P 1'
_symmetry_Int_Tables_number      1
_space_group_name_Hall           'P 1'
loop_
_symmetry_equiv_pos_site_id
_symmetry_equiv_pos_as_xyz
1 x,y,z
_cell_length_a                   33.914(18)
_cell_length_b                   15.135(8)
_cell_length_c                   30.963(16)
_cell_angle_alpha                90
_cell_angle_beta                 100.727(6)
_cell_angle_gamma                90
_cell_volume                     15615.2
loop_
_atom_site_label
_atom_site_type_symbol
_atom_site_fract_x
_atom_site_fract_y
_atom_site_fract_z
Zn1 Zn 0.3796(2) 0.3701(4) 0.4874(2)
I1 I 0.31198(19) 0.3065(3) 0.4478(2)
I2 I 0.4201(2) 0.3271(2) 0.56209(19)
N1 N 0.4167(8) 0.3619(19) 0.4385(12)
C1 C 0.4086(12) 0.293(2) 0.4120(13)
H1 H 0.3856 0.2570 0.4125
C2 C 0.4343(12) 0.274(2) 0.3841(13)
H2 H 0.4299 0.2242 0.3649
C3 C 0.4663(10) 0.328(2) 0.3846(11)
C4 C 0.4756(10) 0.402(2) 0.4095(12)
H3 H 0.4974 0.4409 0.4080
C5 C 0.4487(4) 0.4126(8) 0.4369(4)
H4 H 0.4532 0.4608 0.4569
C6 C 0.4936(4) 0.3123(8) 0.3534(4)
N2 N 0.4886(4) 0.2386(8) 0.3287(4)
C7 C 0.5133(4) 0.2218(8) 0.3004(4)
N3 N 0.5430(4) 0.2787(8) 0.2968(4)
C8 C 0.5480(4) 0.3525(8) 0.3215(4)
N4 N 0.5232(4) 0.3692(8) 0.3498(4)
N5 N 0.6464(11) 0.523(2) 0.3185(8)
C9 C 0.6281(13) 0.529(3) 0.3530(12)
H5 H 0.6329 0.5759 0.3736
C10 C 0.6016(14) 0.462(3) 0.3561(14)
H6 H 0.5963 0.4479 0.3844
C11 C 0.5822(9) 0.412(2) 0.3205(10)
C12 C 0.6022(10) 0.408(2) 0.2861(10)
H7 H 0.5952 0.3652 0.2634
C13 C 0.6326(11) 0.467(2) 0.2858(10)
H8 H 0.6447 0.4691 0.2604
Zn2 Zn 0.6957(2) 0.6037(3) 0.32341(19)
I3 I 0.72081(17) 0.5854(3) 0.25288(17)
I4 I 0.68103(16) 0.7482(2) 0.35639(18)
C14 C 0.5273(10) 0.0436(19) 0.2226(11)
H9 H 0.5444 0.0320 0.2022
C15 C 0.5326(10) 0.1220(18) 0.2452(10)
H10 H 0.5517 0.1642 0.2395
C16 C 0.5094(11) 0.1374(15) 0.2762(10)
C17 C 0.4810(12) 0.0791(18) 0.2811(11)
H11 H 0.4628 0.0910 0.3003
C18 C 0.4786(11) 0.0016(18) 0.2577(11)
C19 C 0.4376(14) 0.0376(18) 0.1350(13)
H13 H 0.4523 0.0678 0.1598
C20 C 0.4181(14) 0.0891(13) 0.1012(12)
H14 H 0.4212 0.1514 0.0997
C21 C 0.3935(12) 0.0405(16) 0.0699(10)
C24 C 0.3685(5) 0.0831(9) 0.0318(5)
N8 N 0.3792(5) 0.1685(9) 0.0254(5)
N10 N 0.3372(5) 0.0452(9) 0.0037(5)
C30 C 0.3851(14) 0.3552(19) 0.0265(12)
H19 H 0.3964 0.3252 0.0528
C31 C 0.3897(14) 0.4438(19) 0.0208(12)
H20 H 0.4086 0.4734 0.0425
N13 N 0.3702(12) 0.507(2) 0.4878(11)
N14 N 0.7358(10) 0.5399(19) 0.3743(11)
C25 C 0.3586(5) 0.2160(9) 0.9908(5)
N9 N 0.3273(5) 0.1781(9) 0.9627(5)
C26 C 0.3166(5) 0.0927(9) 0.9692(5)
N11 N 0.3702(12) 0.493(2) 0.9878(11)
C27 C 0.3454(15) 0.447(2) 0.9575(13)
H17 H 0.3270 0.4795 0.9366
C28 C 0.3441(15) 0.357(2) 0.9538(14)
H18 H 0.3316 0.3268 0.9279
C29 C 0.3626(14) 0.3132(13) 0.9910(13)
C34 C 0.2918(14) 0.041(2) 0.9339(11)
C35 C 0.2717(13) 0.083(3) 0.8975(13)
H23 H 0.2813 0.1386 0.8894
C36 C 0.2378(12) 0.048(2) 0.8722(14)
H24 H 0.2175 0.0824 0.8548
Zn4 Zn 0.3796(2) 0.6299(4) 0.9874(2)
I1_2 I 0.31198(19) 0.6935(3) 0.9478(2)
N1_2 N 0.4167(8) 0.6381(19) 0.9385(12)
C1_2 C 0.4086(12) 0.707(2) 0.9120(13)
H1_2 H 0.3856 0.7430 0.9125
C2_2 C 0.4343(12) 0.726(2) 0.8841(13)
H2_2 H 0.4299 0.7758 0.8649
C3_2 C 0.4663(10) 0.672(2) 0.8846(11)
C4_2 C 0.4756(10) 0.598(2) 0.9095(12)
H3_2 H 0.4974 0.5591 0.9080
C5_2 C 0.4487(4) 0.5874(8) 0.9369(4)
H4_2 H 0.4532 0.5392 0.9569
C6_2 C 0.4936(4) 0.6877(8) 0.8534(4)
N2_2 N 0.4886(4) 0.7614(8) 0.8287(4)
C7_2 C 0.5133(4) 0.7782(8) 0.8004(4)
N3_2 N 0.5430(4) 0.7213(8) 0.7968(4)
C8_2 C 0.5480(4) 0.6475(8) 0.8215(4)
N4_2 N 0.5232(4) 0.6308(8) 0.8498(4)
N5_2 N 0.6464(11) 0.477(2) 0.8185(8)
C9_2 C 0.6281(13) 0.471(3) 0.8530(12)
H5_2 H 0.6329 0.4241 0.8736
C10_2 C 0.6016(14) 0.538(3) 0.8561(14)
H6_2 H 0.5963 0.5521 0.8844
C11_2 C 0.5822(9) 0.588(2) 0.8205(10)
C12_2 C 0.6022(10) 0.592(2) 0.7861(10)
H7_2 H 0.5952 0.6348 0.7634
C13_2 C 0.6326(11) 0.533(2) 0.7858(10)
H8_2 H 0.6447 0.5309 0.7604
Zn2_2 Zn 0.6957(2) 0.3963(3) 0.82341(19)
I3_2 I 0.72081(17) 0.4146(3) 0.75288(17)
I4_2 I 0.68103(16) 0.2518(2) 0.85639(18)
C14_2 C 0.5273(10) 0.9564(19) 0.7226(11)
H9_2 H 0.5444 0.9680 0.7022
C15_2 C 0.5326(10) 0.8780(18) 0.7452(10)
H10_2 H 0.5517 0.8358 0.7395
C16_2 C 0.5094(11) 0.8626(15) 0.7762(10)
C17_2 C 0.4810(12) 0.9209(18) 0.7811(11)
H11_2 H 0.4628 0.9090 0.8003
C18_2 C 0.4786(11) 0.9984(18) 0.7577(11)
C19_2 C 0.4376(14) 0.9624(18) 0.6350(13)
H13_2 H 0.4523 0.9322 0.6598
C20_2 C 0.4181(14) 0.9109(13) 0.6012(12)
H14_2 H 0.4212 0.8486 0.5997
C21_2 C 0.3935(12) 0.9595(16) 0.5699(10)
C24_2 C 0.3685(5) 0.9169(9) 0.5318(5)
N8_2 N 0.3792(5) 0.8315(9) 0.5254(5)
C25_2 C 0.3586(5) 0.7840(9) 0.4908(5)
N9_2 N 0.3273(5) 0.8219(9) 0.4627(5)
C26_2 C 0.3166(5) 0.9073(9) 0.4692(5)
N10_2 N 0.3372(5) 0.9548(9) 0.5037(5)
C27_2 C 0.3454(15) 0.553(2) 0.4575(13)
H17_2 H 0.3270 0.5205 0.4366
C28_2 C 0.3441(15) 0.643(2) 0.4538(14)
H18_2 H 0.3316 0.6732 0.4279
C29_2 C 0.3626(14) 0.6868(13) 0.4910(13)
C30_2 C 0.3851(14) 0.6448(19) 0.5265(12)
H19_2 H 0.3964 0.6748 0.5528
C31_2 C 0.3897(14) 0.5562(19) 0.5208(12)
H20_2 H 0.4086 0.5266 0.5425
C34_2 C 0.2918(14) 0.959(2) 0.4339(11)
C35_2 C 0.2717(13) 0.917(3) 0.3975(13)
H23_2 H 0.2813 0.8614 0.3894
C36_2 C 0.2378(12) 0.952(2) 0.3722(14)
H24_2 H 0.2175 0.9176 0.3548
N14_2 N 0.7358(10) 0.4601(19) 0.8743(11)
N13_2 N 0.8702(12) 0.007(2) 0.4878(11)
Zn4_2 Zn 0.8796(2) 0.1299(4) 0.9874(2)
Zn1_2 Zn 0.8796(2) 0.8701(4) 0.4874(2)
I1_3 I 0.81198(19) 0.8065(3) 0.4478(2)
I2_2 I 0.9201(2) 0.8271(2) 0.56209(19)
N1_3 N 0.9167(8) 0.8619(19) 0.4385(12)
C1_3 C 0.9086(12) 0.793(2) 0.4120(13)
H1_3 H 0.8856 0.7570 0.4125
C2_3 C 0.9343(12) 0.774(2) 0.3841(13)
H2_3 H 0.9299 0.7242 0.3649
C3_3 C 0.9663(10) 0.828(2) 0.3846(11)
C4_3 C 0.9756(10) 0.902(2) 0.4095(12)
H3_3 H 0.9974 0.9409 0.4080
C5_3 C 0.9487(4) 0.9126(8) 0.4369(4)
H4_3 H 0.9532 0.9608 0.4569
C6_3 C 0.9936(4) 0.8123(8) 0.3534(4)
N2_3 N 0.9886(4) 0.7386(8) 0.3287(4)
N6 N 1.0000(9) 0.4823(18) 0.2270(10)
C17_3 C 0.9810(12) 0.5791(18) 0.2811(11)
H11_3 H 0.9628 0.5910 0.3003
C18_3 C 0.9786(11) 0.5016(18) 0.2577(11)
H12 H 0.9602 0.4583 0.2639
Zn3 Zn 0.9810(2) 0.3809(3) 0.1826(2)
I6 I 0.9424(2) 0.2672(2) 0.2195(2)
N7 N 0.9382(13) 0.4499(18) 0.1365(14)
C19_3 C 0.9376(14) 0.5376(18) 0.1350(13)
H13_3 H 0.9523 0.5678 0.1598
C20_3 C 0.9181(14) 0.5891(13) 0.1012(12)
H14_3 H 0.9212 0.6514 0.0997
C21_3 C 0.8935(12) 0.5405(16) 0.0699(10)
C22 C 0.8862(11) 0.4523(16) 0.0720(12)
H15 H 0.8647 0.4225 0.0536
C23 C 0.9133(5) 0.4124(9) 0.1036(5)
H16 H 0.9146 0.3498 0.1020
C24_3 C 0.8685(5) 0.5831(9) 0.0318(5)
N8_3 N 0.8792(5) 0.6685(9) 0.0254(5)
N10_3 N 0.8372(5) 0.5452(9) 0.0037(5)
C30_3 C 0.8851(14) 0.8552(19) 0.0265(12)
H19_3 H 0.8964 0.8252 0.0528
C31_3 C 0.8897(14) 0.9438(19) 0.0208(12)
H20_3 H 0.9086 0.9734 0.0425
C25_3 C 0.8586(5) 0.7160(9) 0.9908(5)
N9_3 N 0.8273(5) 0.6781(9) 0.9627(5)
C26_3 C 0.8166(5) 0.5927(9) 0.9692(5)
N11_2 N 0.8702(12) 0.993(2) 0.9878(11)
C27_3 C 0.8454(15) 0.947(2) 0.9575(13)
H17_3 H 0.8270 0.9795 0.9366
C28_3 C 0.8441(15) 0.857(2) 0.9538(14)
H18_3 H 0.8316 0.8268 0.9279
C29_3 C 0.8626(14) 0.8132(13) 0.9910(13)
C32 C 0.7603(12) 0.412(2) 0.9037(12)
H21 H 0.7588 0.3488 0.9032
C33 C 0.7878(14) 0.455(3) 0.9345(14)
H22 H 0.8043 0.4219 0.9569
C34_3 C 0.7918(14) 0.541(2) 0.9339(11)
C35_3 C 0.7717(13) 0.583(3) 0.8975(13)
H23_3 H 0.7813 0.6386 0.8894
C36_3 C 0.7378(12) 0.548(2) 0.8722(14)
H24_3 H 0.7175 0.5824 0.8548
I1_4 I 0.81198(19) 0.1935(3) 0.9478(2)
N1_4 N 0.9167(8) 0.1381(19) 0.9385(12)
C1_4 C 0.9086(12) 0.207(2) 0.9120(13)
H1_4 H 0.8856 0.2430 0.9125
C2_4 C 0.9343(12) 0.226(2) 0.8841(13)
H2_4 H 0.9299 0.2758 0.8649
C3_4 C 0.9663(10) 0.172(2) 0.8846(11)
C4_4 C 0.9756(10) 0.098(2) 0.9095(12)
H3_4 H 0.9974 0.0591 0.9080
C5_4 C 0.9487(4) 0.0874(8) 0.9369(4)
H4_4 H 0.9532 0.0392 0.9569
C6_4 C 0.9936(4) 0.1877(8) 0.8534(4)
N2_4 N 0.9886(4) 0.2614(8) 0.8287(4)
N6_2 N 1.0000(9) 0.5177(18) 0.7270(10)
C17_4 C 0.9810(12) 0.4209(18) 0.7811(11)
H11_4 H 0.9628 0.4090 0.8003
C18_4 C 0.9786(11) 0.4984(18) 0.7577(11)
H12_2 H 0.9602 0.5417 0.7639
Zn3_2 Zn 0.9810(2) 0.6191(3) 0.6826(2)
I6_2 I 0.9424(2) 0.7328(2) 0.7195(2)
N7_2 N 0.9382(13) 0.5501(18) 0.6365(14)
C19_4 C 0.9376(14) 0.4624(18) 0.6350(13)
H13_4 H 0.9523 0.4322 0.6598
C20_4 C 0.9181(14) 0.4109(13) 0.6012(12)
H14_4 H 0.9212 0.3486 0.5997
C21_4 C 0.8935(12) 0.4595(16) 0.5699(10)
C22_2 C 0.8862(11) 0.5477(16) 0.5720(12)
H15_2 H 0.8647 0.5775 0.5536
C23_2 C 0.9133(5) 0.5876(9) 0.6036(5)
H16_2 H 0.9146 0.6502 0.6020
C24_4 C 0.8685(5) 0.4169(9) 0.5318(5)
N8_4 N 0.8792(5) 0.3315(9) 0.5254(5)
C25_4 C 0.8586(5) 0.2840(9) 0.4908(5)
N9_4 N 0.8273(5) 0.3219(9) 0.4627(5)
C26_4 C 0.8166(5) 0.4073(9) 0.4692(5)
N10_4 N 0.8372(5) 0.4548(9) 0.5037(5)
C27_4 C 0.8454(15) 0.053(2) 0.4575(13)
H17_4 H 0.8270 0.0205 0.4366
C28_4 C 0.8441(15) 0.143(2) 0.4538(14)
H18_4 H 0.8316 0.1732 0.4279
C29_4 C 0.8626(14) 0.1868(13) 0.4910(13)
C30_4 C 0.8851(14) 0.1448(19) 0.5265(12)
H19_4 H 0.8964 0.1748 0.5528
C31_4 C 0.8897(14) 0.0562(19) 0.5208(12)
H20_4 H 0.9086 0.0266 0.5425
C32_2 C 0.7603(12) 0.588(2) 0.4037(12)
H21_2 H 0.7588 0.6512 0.4032
C33_2 C 0.7878(14) 0.545(3) 0.4345(14)
H22_2 H 0.8043 0.5781 0.4569
C34_4 C 0.7918(14) 0.459(2) 0.4339(11)
C35_4 C 0.7717(13) 0.417(3) 0.3975(13)
H23_4 H 0.7813 0.3614 0.3894
C36_4 C 0.7378(12) 0.452(2) 0.3722(14)
H24_4 H 0.7175 0.4176 0.3548
N6_3 N 0.5000(9) 0.9823(18) 0.2270(10)
H12_3 H 0.4602 0.9583 0.2639
Zn3_3 Zn 0.4810(2) 0.8809(3) 0.1826(2)
I5 I 0.53915(19) 0.8517(4) 0.14299(19)
I6_3 I 0.4424(2) 0.7672(2) 0.2195(2)
N7_3 N 0.4382(13) 0.9499(18) 0.1365(14)
C22_3 C 0.3862(11) 0.9523(16) 0.0720(12)
H15_3 H 0.3647 0.9225 0.0536
C23_3 C 0.4133(5) 0.9124(9) 0.1036(5)
H16_3 H 0.4146 0.8498 0.1020
N12 N 0.2358(10) 0.9601(19) 0.8743(11)
C32_3 C 0.2603(12) 0.912(2) 0.9037(12)
H21_3 H 0.2588 0.8488 0.9032
C33_3 C 0.2878(14) 0.955(3) 0.9345(14)
H22_3 H 0.3043 0.9219 0.9569
Zn5 Zn 0.1957(2) 0.8963(3) 0.82341(19)
N5_3 N 0.1464(11) 0.977(2) 0.8185(8)
C9_3 C 0.1281(13) 0.971(3) 0.8530(12)
H5_3 H 0.1329 0.9241 0.8736
I3_3 I 0.22081(17) 0.9146(3) 0.75288(17)
I4_3 I 0.18103(16) 0.7518(2) 0.85639(18)
N6_4 N 0.5000(9) 0.0177(18) 0.7270(10)
H12_4 H 0.4602 0.0417 0.7639
Zn3_4 Zn 0.4810(2) 0.1191(3) 0.6826(2)
I5_2 I 0.53915(19) 0.1483(4) 0.64299(19)
I6_4 I 0.4424(2) 0.2328(2) 0.7195(2)
N7_4 N 0.4382(13) 0.0501(18) 0.6365(14)
C22_4 C 0.3862(11) 0.0477(16) 0.5720(12)
H15_4 H 0.3647 0.0775 0.5536
C23_4 C 0.4133(5) 0.0876(9) 0.6036(5)
H16_4 H 0.4146 0.1502 0.6020
N12_2 N 0.2358(10) 0.0399(19) 0.3743(11)
C32_4 C 0.2603(12) 0.088(2) 0.4037(12)
H21_4 H 0.2588 0.1512 0.4032
C33_4 C 0.2878(14) 0.045(3) 0.4345(14)
H22_4 H 0.3043 0.0781 0.4569
Zn5_2 Zn 0.1957(2) 0.1037(3) 0.32341(19)
N5_4 N 0.1464(11) 0.023(2) 0.3185(8)
C9_4 C 0.1281(13) 0.029(3) 0.3530(12)
H5_4 H 0.1329 0.0759 0.3736
I3_4 I 0.22081(17) 0.0854(3) 0.25288(17)
I4_4 I 0.18103(16) 0.2482(2) 0.35639(18)
I2_3 I 0.4201(2) 0.6729(2) 0.06209(19)
C7_3 C 0.0133(4) 0.7218(8) 0.3004(4)
N3_3 N 0.0430(4) 0.7787(8) 0.2968(4)
C8_3 C 0.0480(4) 0.8525(8) 0.3215(4)
N4_3 N 0.0232(4) 0.8692(8) 0.3498(4)
C10_3 C 0.1016(14) 0.962(3) 0.3561(14)
H6_3 H 0.0963 0.9479 0.3844
C11_3 C 0.0822(9) 0.912(2) 0.3205(10)
C12_3 C 0.1022(10) 0.908(2) 0.2861(10)
H7_3 H 0.0952 0.8652 0.2634
C13_3 C 0.1326(11) 0.967(2) 0.2858(10)
H8_3 H 0.1447 0.9691 0.2604
N6_5 N 0.0000(9) 0.4823(18) 0.2270(10)
C14_3 C 0.0273(10) 0.5436(19) 0.2226(11)
H9_3 H 0.0444 0.5320 0.2022
C15_3 C 0.0326(10) 0.6220(18) 0.2452(10)
H10_3 H 0.0517 0.6642 0.2395
C16_3 C 0.0094(11) 0.6374(15) 0.2762(10)
I5_3 I 0.03915(19) 0.3517(4) 0.14299(19)
C7_4 C 0.0133(4) 0.2782(8) 0.8004(4)
N3_4 N 0.0430(4) 0.2213(8) 0.7968(4)
C8_4 C 0.0480(4) 0.1475(8) 0.8215(4)
N4_4 N 0.0232(4) 0.1308(8) 0.8498(4)
C10_4 C 0.1016(14) 0.038(3) 0.8561(14)
H6_4 H 0.0963 0.0521 0.8844
C11_4 C 0.0822(9) 0.088(2) 0.8205(10)
C12_4 C 0.1022(10) 0.092(2) 0.7861(10)
H7_4 H 0.0952 0.1348 0.7634
C13_4 C 0.1326(11) 0.033(2) 0.7858(10)
H8_4 H 0.1447 0.0309 0.7604
N6_6 N 0.0000(9) 0.5177(18) 0.7270(10)
C14_4 C 0.0273(10) 0.4564(19) 0.7226(11)
H9_4 H 0.0444 0.4680 0.7022
C15_4 C 0.0326(10) 0.3780(18) 0.7452(10)
H10_4 H 0.0517 0.3358 0.7395
C16_4 C 0.0094(11) 0.3626(15) 0.7762(10)
I5_4 I 0.03915(19) 0.6483(4) 0.64299(19)
I2_4 I 0.9201(2) 0.1729(2) 0.06209(19)
Zn6 Zn 0.2308(2) 0.1410(3) 0.0369(2)
I7 I 0.29156(17) 0.2403(2) 0.06293(19)
N15 N 0.1977(10) 0.1561(15) 0.0889(12)
C37 C 0.1826(12) 0.088(3) 0.1076(13)
H25 H 0.1879 0.0298 0.0981
C38 C 0.1598(12) 0.096(2) 0.1397(14)
H26 H 0.1493 0.0456 0.1521
C39 C 0.1530(12) 0.180(2) 0.1531(11)
C40 C 0.1677(11) 0.253(2) 0.1347(11)
H27 H 0.1630 0.3111 0.1439
C41 C 0.1895(5) 0.2370(9) 0.1025(6)
H28 H 0.1993 0.2865 0.0889
C42 C 0.1305(5) 0.1923(9) 0.1894(6)
N16 N 0.1001(5) 0.1364(9) 0.1942(6)
C43 C 0.0757(5) 0.1561(9) 0.2232(6)
N17 N 0.0817(5) 0.2316(9) 0.2474(6)
C44 C 0.1121(5) 0.2874(9) 0.2426(6)
N18 N 0.1365(5) 0.2678(9) 0.2137(6)
C46 C 0.0233(11) 0.095(2) 0.2621(11)
H30 H 0.0331 0.1307 0.2871
C47 C 0.0424(9) 0.095(2) 0.2266(13)
C48 C 0.0274(12) 0.038(3) 0.1924(13)
H31 H 0.0403 0.0328 0.1678
N20 N 0.1295(11) 0.528(2) 0.3158(11)
C50 C 0.1551(12) 0.501(2) 0.2910(13)
H33 H 0.1783 0.5358 0.2903
C51 C 0.1496(11) 0.426(2) 0.2664(13)
H34 H 0.1686 0.4101 0.2487
C52 C 0.1172(11) 0.3720(18) 0.2670(13)
C53 C 0.0911(11) 0.400(2) 0.2930(13)
H35 H 0.0684 0.3647 0.2954
C54 C 0.0973(12) 0.478(2) 0.3156(14)
H36 H 0.0778 0.4970 0.3319
I11 I 0.18577(19) 0.7375(2) 0.32849(17)
Zn8 Zn 0.1440(2) 0.6266(3) 0.3628(2)
I12 I 0.08366(17) 0.6597(3) 0.3985(2)
N21 N 0.1807(9) 0.5559(19) 0.4114(9)
C55 C 0.2105(11) 0.594(2) 0.4394(11)
H37 H 0.2156 0.6547 0.4356
C56 C 0.2342(13) 0.5507(16) 0.4732(13)
H38 H 0.2559 0.5800 0.4916
C57 C 0.2259(11) 0.4641(16) 0.4799(9)
C58 C 0.1980(11) 0.4175(16) 0.4515(11)
H39 H 0.1943 0.3556 0.4538
C59 C 0.1758(4) 0.4679(8) 0.4195(4)
H40 H 0.1544 0.4387 0.4007
C60 C 0.2452(4) 0.4106(8) 0.5176(4)
N22 N 0.2738(4) 0.4501(8) 0.5490(4)
C61 C 0.2987(4) 0.3990(8) 0.5793(4)
N23 N 0.2949(4) 0.3084(8) 0.5782(4)
C62 C 0.2663(4) 0.2689(8) 0.5468(4)
N24 N 0.2414(4) 0.3200(8) 0.5165(4)
N25 N 0.3792(12) 0.5247(17) 0.6818(10)
C63 C 0.3735(14) 0.4376(18) 0.6824(11)
H41 H 0.3854 0.4055 0.7078
C64 C 0.3513(13) 0.392(2) 0.6480(10)
H42 H 0.3502 0.3296 0.6486
C65 C 0.3307(11) 0.4380(17) 0.6126(10)
C66 C 0.3357(14) 0.5279(17) 0.6112(12)
H43 H 0.3225 0.5619 0.5870
C67 C 0.3606(13) 0.567(2) 0.6460(10)
H44 H 0.3647 0.6289 0.6445
C68 C 0.2233(14) 0.0465(18) 0.5142(15)
H45 H 0.2026 0.0244 0.4919
C69 C 0.2293(12) 0.135(2) 0.5189(14)
H46 H 0.2109 0.1738 0.5011
C70 C 0.2601(11) 0.1725(11) 0.5479(12)
C71 C 0.2816(13) 0.1131(16) 0.5762(12)
H47 H 0.3021 0.1341 0.5991
C72 C 0.2744(12) 0.0242(19) 0.5725(13)
Zn10 Zn 0.4189(3) 0.5877(4) 0.7309(3)
N28 N 0.2466(11) 0.0092(19) 0.0408(11)
H48 H 0.2897 0.0147 0.0931
C60_2 C 0.2452(4) 0.5894(8) 0.0176(4)
N22_2 N 0.2738(4) 0.5499(8) 0.0490(4)
C61_2 C 0.2987(4) 0.6010(8) 0.0793(4)
N23_2 N 0.2949(4) 0.6916(8) 0.0782(4)
C62_2 C 0.2663(4) 0.7311(8) 0.0468(4)
N24_2 N 0.2414(4) 0.6800(8) 0.0165(4)
N25_2 N 0.3792(12) 0.4753(17) 0.1818(10)
C63_2 C 0.3735(14) 0.5624(18) 0.1824(11)
H41_2 H 0.3854 0.5945 0.2078
C64_2 C 0.3513(13) 0.608(2) 0.1480(10)
H42_2 H 0.3502 0.6704 0.1486
C65_2 C 0.3307(11) 0.5620(17) 0.1126(10)
C66_2 C 0.3357(14) 0.4721(17) 0.1112(12)
H43_2 H 0.3225 0.4381 0.0870
C67_2 C 0.3606(13) 0.433(2) 0.1460(10)
H44_2 H 0.3647 0.3711 0.1445
C68_2 C 0.2233(14) 0.9535(18) 0.0142(15)
C69_2 C 0.2293(12) 0.865(2) 0.0189(14)
H46_2 H 0.2109 0.8262 0.0011
C70_2 C 0.2601(11) 0.8275(11) 0.0479(12)
C71_2 C 0.2816(13) 0.8869(16) 0.0762(12)
H47_2 H 0.3021 0.8659 0.0991
C72_2 C 0.2744(12) 0.9758(19) 0.0725(13)
Zn10_2 Zn 0.4189(3) 0.4123(4) 0.2309(3)
Zn6_2 Zn 0.7308(2) 0.6410(3) 0.0369(2)
I7_2 I 0.79156(17) 0.7403(2) 0.06293(19)
N15_2 N 0.6977(10) 0.6561(15) 0.0889(12)
C37_2 C 0.6826(12) 0.588(3) 0.1076(13)
H25_2 H 0.6879 0.5298 0.0981
C38_2 C 0.6598(12) 0.596(2) 0.1397(14)
H26_2 H 0.6493 0.5456 0.1521
C39_2 C 0.6530(12) 0.680(2) 0.1531(11)
C40_2 C 0.6677(11) 0.753(2) 0.1347(11)
H27_2 H 0.6630 0.8111 0.1439
C41_2 C 0.6895(5) 0.7370(9) 0.1025(6)
H28_2 H 0.6993 0.7865 0.0889
C42_2 C 0.6305(5) 0.6923(9) 0.1894(6)
N16_2 N 0.6001(5) 0.6364(9) 0.1942(6)
C43_2 C 0.5757(5) 0.6561(9) 0.2232(6)
N17_2 N 0.5817(5) 0.7316(9) 0.2474(6)
C44_2 C 0.6121(5) 0.7874(9) 0.2426(6)
N18_2 N 0.6365(5) 0.7678(9) 0.2137(6)
N19 N 0.4735(11) 0.490(2) 0.2280(13)
C45 C 0.4899(11) 0.543(2) 0.2607(13)
H29 H 0.4771 0.5459 0.2855
C46_2 C 0.5233(11) 0.595(2) 0.2621(11)
H30_2 H 0.5331 0.6307 0.2871
C47_2 C 0.5424(9) 0.595(2) 0.2266(13)
C48_2 C 0.5274(12) 0.538(3) 0.1924(13)
H31_2 H 0.5403 0.5328 0.1678
C49 C 0.4935(12) 0.491(2) 0.1948(13)
H32 H 0.4832 0.4544 0.1703
I9 I 0.4339(3) 0.2630(3) 0.2010(3)
I10 I 0.3857(3) 0.4477(5) 0.2997(2)
C51_2 C 0.6496(11) 0.926(2) 0.2664(13)
H34_2 H 0.6686 0.9101 0.2487
C52_2 C 0.6172(11) 0.8720(18) 0.2670(13)
C53_2 C 0.5911(11) 0.900(2) 0.2930(13)
H35_2 H 0.5684 0.8647 0.2954
C54_2 C 0.5973(12) 0.978(2) 0.3156(14)
H36_2 H 0.5778 0.9970 0.3319
C57_2 C 0.7259(11) 0.9641(16) 0.4799(9)
C58_2 C 0.6980(11) 0.9175(16) 0.4515(11)
H39_2 H 0.6943 0.8556 0.4538
C59_2 C 0.6758(4) 0.9679(8) 0.4195(4)
H40_2 H 0.6544 0.9387 0.4007
C60_3 C 0.7452(4) 0.9106(8) 0.5176(4)
N22_3 N 0.7738(4) 0.9501(8) 0.5490(4)
C61_3 C 0.7987(4) 0.8990(8) 0.5793(4)
N23_3 N 0.7949(4) 0.8084(8) 0.5782(4)
C62_3 C 0.7663(4) 0.7689(8) 0.5468(4)
N24_3 N 0.7414(4) 0.8200(8) 0.5165(4)
C63_3 C 0.8735(14) 0.9376(18) 0.6824(11)
H41_3 H 0.8854 0.9055 0.7078
C64_3 C 0.8513(13) 0.892(2) 0.6480(10)
H42_3 H 0.8502 0.8296 0.6486
C65_3 C 0.8307(11) 0.9380(17) 0.6126(10)
N26 N 0.7466(11) 0.4908(19) 0.5408(11)
C68_3 C 0.7233(14) 0.5465(18) 0.5142(15)
H45_2 H 0.7026 0.5244 0.4919
C69_3 C 0.7293(12) 0.635(2) 0.5189(14)
H46_3 H 0.7109 0.6738 0.5011
C70_3 C 0.7601(11) 0.6725(11) 0.5479(12)
C71_3 C 0.7816(13) 0.6131(16) 0.5762(12)
H47_3 H 0.8021 0.6341 0.5991
C72_3 C 0.7744(12) 0.5242(19) 0.5725(13)
H48_2 H 0.7897 0.4853 0.5931
Zn9 Zn 0.7308(2) 0.3590(3) 0.5369(2)
N28_2 N 0.7466(11) 0.5092(19) 0.0408(11)
C60_4 C 0.7452(4) 0.0894(8) 0.0176(4)
N22_4 N 0.7738(4) 0.0499(8) 0.0490(4)
C61_4 C 0.7987(4) 0.1010(8) 0.0793(4)
N23_4 N 0.7949(4) 0.1916(8) 0.0782(4)
C62_4 C 0.7663(4) 0.2311(8) 0.0468(4)
N24_4 N 0.7414(4) 0.1800(8) 0.0165(4)
C63_4 C 0.8735(14) 0.0624(18) 0.1824(11)
H41_4 H 0.8854 0.0945 0.2078
C64_4 C 0.8513(13) 0.108(2) 0.1480(10)
H42_4 H 0.8502 0.1704 0.1486
C65_4 C 0.8307(11) 0.0620(17) 0.1126(10)
C68_4 C 0.7233(14) 0.4535(18) 0.0142(15)
C69_4 C 0.7293(12) 0.365(2) 0.0189(14)
H46_4 H 0.7109 0.3262 0.0011
C70_4 C 0.7601(11) 0.3275(11) 0.0479(12)
C71_4 C 0.7816(13) 0.3869(16) 0.0762(12)
H47_4 H 0.8021 0.3659 0.0991
C72_4 C 0.7744(12) 0.4758(19) 0.0725(13)
H48_3 H 0.7897 0.5147 0.0931
I7_3 I 0.79156(17) 0.2597(2) 0.56293(19)
I8 I 0.68377(19) 0.3328(3) 0.4636(2)
N15_3 N 0.6977(10) 0.3439(15) 0.5889(12)
C37_3 C 0.6826(12) 0.412(3) 0.6076(13)
H25_3 H 0.6879 0.4702 0.5981
C38_3 C 0.6598(12) 0.404(2) 0.6397(14)
H26_3 H 0.6493 0.4544 0.6521
C39_3 C 0.6530(12) 0.320(2) 0.6531(11)
C40_3 C 0.6677(11) 0.247(2) 0.6347(11)
H27_3 H 0.6630 0.1889 0.6439
C41_3 C 0.6895(5) 0.2630(9) 0.6025(6)
H28_3 H 0.6993 0.2135 0.5889
C42_3 C 0.6305(5) 0.3077(9) 0.6894(6)
N16_3 N 0.6001(5) 0.3636(9) 0.6942(6)
C43_3 C 0.5757(5) 0.3439(9) 0.7232(6)
N17_3 N 0.5817(5) 0.2684(9) 0.7474(6)
C44_3 C 0.6121(5) 0.2126(9) 0.7426(6)
N18_3 N 0.6365(5) 0.2322(9) 0.7137(6)
N19_2 N 0.4735(11) 0.510(2) 0.7280(13)
C45_2 C 0.4899(11) 0.457(2) 0.7607(13)
H29_2 H 0.4771 0.4541 0.7855
C46_3 C 0.5233(11) 0.405(2) 0.7621(11)
H30_3 H 0.5331 0.3693 0.7871
C47_3 C 0.5424(9) 0.405(2) 0.7266(13)
C48_3 C 0.5274(12) 0.462(3) 0.6924(13)
H31_3 H 0.5403 0.4672 0.6678
C49_2 C 0.4935(12) 0.509(2) 0.6948(13)
H32_2 H 0.4832 0.5456 0.6703
I9_2 I 0.4339(3) 0.7370(3) 0.7010(3)
I10_2 I 0.3857(3) 0.5523(5) 0.7997(2)
C51_3 C 0.6496(11) 0.074(2) 0.7664(13)
H34_3 H 0.6686 0.0899 0.7487
C52_3 C 0.6172(11) 0.1280(18) 0.7670(13)
C53_3 C 0.5911(11) 0.100(2) 0.7930(13)
H35_3 H 0.5684 0.1353 0.7954
C54_3 C 0.5973(12) 0.022(2) 0.8156(14)
H36_3 H 0.5778 0.0030 0.8319
C57_3 C 0.7259(11) 0.0359(16) 0.9799(9)
C58_3 C 0.6980(11) 0.0825(16) 0.9515(11)
H39_3 H 0.6943 0.1444 0.9538
C59_3 C 0.6758(4) 0.0321(8) 0.9195(4)
H40_3 H 0.6544 0.0613 0.9007
H45_3 H 0.7026 0.4756 0.9919
I8_2 I 0.18377(19) 0.1672(3) 0.9636(2)
N26_2 N 0.2466(11) 0.9908(19) 0.5408(11)
H48_4 H 0.2897 0.9853 0.5931
Zn9_2 Zn 0.2308(2) 0.8590(3) 0.5369(2)
I7_4 I 0.29156(17) 0.7597(2) 0.56293(19)
I8_3 I 0.18377(19) 0.8328(3) 0.4636(2)
N15_4 N 0.1977(10) 0.8439(15) 0.5889(12)
C37_4 C 0.1826(12) 0.912(3) 0.6076(13)
H25_4 H 0.1879 0.9702 0.5981
C38_4 C 0.1598(12) 0.904(2) 0.6397(14)
H26_4 H 0.1493 0.9544 0.6521
C39_4 C 0.1530(12) 0.820(2) 0.6531(11)
C40_4 C 0.1677(11) 0.747(2) 0.6347(11)
H27_4 H 0.1630 0.6889 0.6439
C41_4 C 0.1895(5) 0.7630(9) 0.6025(6)
H28_4 H 0.1993 0.7135 0.5889
C42_4 C 0.1305(5) 0.8077(9) 0.6894(6)
N16_4 N 0.1001(5) 0.8636(9) 0.6942(6)
C43_4 C 0.0757(5) 0.8439(9) 0.7232(6)
N17_4 N 0.0817(5) 0.7684(9) 0.7474(6)
C44_4 C 0.1121(5) 0.7126(9) 0.7426(6)
N18_4 N 0.1365(5) 0.7322(9) 0.7137(6)
C46_4 C 0.0233(11) 0.905(2) 0.7621(11)
H30_4 H 0.0331 0.8693 0.7871
C47_4 C 0.0424(9) 0.905(2) 0.7266(13)
C48_4 C 0.0274(12) 0.962(3) 0.6924(13)
H31_4 H 0.0403 0.9672 0.6678
N20_2 N 0.1295(11) 0.472(2) 0.8158(11)
C50_2 C 0.1551(12) 0.499(2) 0.7910(13)
H33_2 H 0.1783 0.4642 0.7903
C51_4 C 0.1496(11) 0.574(2) 0.7664(13)
H34_4 H 0.1686 0.5899 0.7487
C52_4 C 0.1172(11) 0.6280(18) 0.7670(13)
C53_4 C 0.0911(11) 0.600(2) 0.7930(13)
H35_4 H 0.0684 0.6353 0.7954
C54_4 C 0.0973(12) 0.522(2) 0.8156(14)
H36_4 H 0.0778 0.5030 0.8319
I11_2 I 0.18577(19) 0.2625(2) 0.82849(17)
Zn8_2 Zn 0.1440(2) 0.3734(3) 0.8628(2)
I12_2 I 0.08366(17) 0.3403(3) 0.8985(2)
N21_2 N 0.1807(9) 0.4441(19) 0.9114(9)
C55_2 C 0.2105(11) 0.406(2) 0.9394(11)
H37_2 H 0.2156 0.3453 0.9356
C56_2 C 0.2342(13) 0.4493(16) 0.9732(13)
H38_2 H 0.2559 0.4200 0.9916
C57_4 C 0.2259(11) 0.5359(16) 0.9799(9)
C58_4 C 0.1980(11) 0.5825(16) 0.9515(11)
H39_4 H 0.1943 0.6444 0.9538
C59_4 C 0.1758(4) 0.5321(8) 0.9195(4)
H40_4 H 0.1544 0.5613 0.9007
H45_4 H 0.2026 0.9756 0.9919
C45_3 C 0.9899(11) 0.043(2) 0.2607(13)
H29_3 H 0.9771 0.0459 0.2855
N19_3 N 0.9735(11) 0.990(2) 0.2280(13)
C49_3 C 0.9935(12) 0.991(2) 0.1948(13)
H32_3 H 0.9832 0.9544 0.1703
Zn7 Zn 0.9189(3) 0.9123(4) 0.2309(3)
I9_3 I 0.9339(3) 0.7630(3) 0.2010(3)
I10_3 I 0.8857(3) 0.9477(5) 0.2997(2)
N27 N 0.8792(12) 0.9753(17) 0.1818(10)
C66_3 C 0.8357(14) 0.9721(17) 0.1112(12)
H43_3 H 0.8225 0.9381 0.0870
C67_3 C 0.8606(13) 0.933(2) 0.1460(10)
H44_3 H 0.8647 0.8711 0.1445
N19_4 N 0.9735(11) 0.010(2) 0.7280(13)
C49_4 C 0.9935(12) 0.009(2) 0.6948(13)
H32_4 H 0.9832 0.0456 0.6703
Zn7_2 Zn 0.9189(3) 0.0877(4) 0.7309(3)
I9_4 I 0.9339(3) 0.2370(3) 0.7010(3)
I10_4 I 0.8857(3) 0.0523(5) 0.7997(2)
N27_2 N 0.8792(12) 0.0247(17) 0.6818(10)
N20_3 N 0.6295(11) 0.028(2) 0.3158(11)
C50_3 C 0.6551(12) 0.001(2) 0.2910(13)
H33_3 H 0.6783 0.0358 0.2903
I11_3 I 0.68577(19) 0.2375(2) 0.32849(17)
Zn8_3 Zn 0.6440(2) 0.1266(3) 0.3628(2)
I12_3 I 0.58366(17) 0.1597(3) 0.3985(2)
N21_3 N 0.6807(9) 0.0559(19) 0.4114(9)
C55_3 C 0.7105(11) 0.094(2) 0.4394(11)
H37_3 H 0.7156 0.1547 0.4356
C56_3 C 0.7342(13) 0.0507(16) 0.4732(13)
H38_3 H 0.7559 0.0800 0.4916
C66_4 C 0.8357(14) 0.0279(17) 0.6112(12)
H43_4 H 0.8225 0.0619 0.5870
C67_4 C 0.8606(13) 0.067(2) 0.6460(10)
H44_4 H 0.8647 0.1289 0.6445
C45_4 C 0.9899(11) 0.957(2) 0.7607(13)
H29_4 H 0.9771 0.9541 0.7855
I8_4 I 0.68377(19) 0.6672(3) 0.9636(2)
N20_4 N 0.6295(11) 0.972(2) 0.8158(11)
C50_4 C 0.6551(12) 0.999(2) 0.7910(13)
H33_4 H 0.6783 0.9642 0.7903
I11_4 I 0.68577(19) 0.7625(2) 0.82849(17)
Zn8_4 Zn 0.6440(2) 0.8734(3) 0.8628(2)
I12_4 I 0.58366(17) 0.8403(3) 0.8985(2)
N21_4 N 0.6807(9) 0.9441(19) 0.9114(9)
C55_4 C 0.7105(11) 0.906(2) 0.9394(11)
H37_4 H 0.7156 0.8453 0.9356
C56_4 C 0.7342(13) 0.9493(16) 0.9732(13)
H38_4 H 0.7559 0.9200 0.9916
loop_
_geom_bond_atom_site_label_1
_geom_bond_atom_site_label_2
_geom_bond_site_symmetry_1
_geom_bond_site_symmetry_2
Zn1 I1 1_555 1_555
I2 Zn1 1_555 1_555
N1 Zn1 1_555 1_555
C1 N1 1_555 1_555
H1 C1 1_555 1_555
C2 C1 1_555 1_555
H2 C2 1_555 1_555
C3 C2 1_555 1_555
C4 C3 1_555 1_555
H3 C4 1_555 1_555
C5 N1 1_555 1_555
H4 C5 1_555 1_555
C6 C3 1_555 1_555
N2 C6 1_555 1_555
C7 N2 1_555 1_555
N3 C7 1_555 1_555
C8 N3 1_555 1_555
N4 C6 1_555 1_555
N5 C9 1_555 1_555
C9 H5 1_555 1_555
C10 C9 1_555 1_555
H6 C10 1_555 1_555
C11 C8 1_555 1_555
C12 C11 1_555 1_555
H7 C12 1_555 1_555
C13 N5 1_555 1_555
H8 C13 1_555 1_555
Zn2 N5 1_555 1_555
I3 Zn2 1_555 1_555
I4 Zn2 1_555 1_555
C14 H9 1_555 1_555
C15 C14 1_555 1_555
H10 C15 1_555 1_555
C16 C7 1_555 1_555
C17 C16 1_555 1_555
H11 C17 1_555 1_555
H13 C19 1_555 1_555
C20 C19 1_555 1_555
H14 C20 1_555 1_555
C21 C20 1_555 1_555
C24 C21 1_555 1_555
N8 C24 1_555 1_555
N10 C24 1_555 1_555
H19 C30 1_555 1_555
H20 C31 1_555 1_555
N13 Zn1 1_555 1_555
N14 Zn2 1_555 1_555
C4 C5 1_555 1_555
C8 N4 1_555 1_555
C10 C11 1_555 1_555
C12 C13 1_555 1_555
C15 C16 1_555 1_555
C17 C18 1_555 1_555
C30 C31 1_555 1_555
N9 C25 1_555 1_555
C26 N9 1_555 1_555
N11 C27 1_555 1_555
C27 H17 1_555 1_555
C28 C27 1_555 1_555
H18 C28 1_555 1_555
C29 C25 1_555 1_555
C34 C26 1_555 1_555
C35 C34 1_555 1_555
H23 C35 1_555 1_555
H24 C36 1_555 1_555
Zn4 N11 1_555 1_555
C28 C29 1_555 1_555
C35 C36 1_555 1_555
Zn4 I1_2 1_555 1_555
N1_2 Zn4 1_555 1_555
C1_2 N1_2 1_555 1_555
H1_2 C1_2 1_555 1_555
C2_2 C1_2 1_555 1_555
H2_2 C2_2 1_555 1_555
C3_2 C2_2 1_555 1_555
C4_2 C3_2 1_555 1_555
H3_2 C4_2 1_555 1_555
C5_2 N1_2 1_555 1_555
H4_2 C5_2 1_555 1_555
C6_2 C3_2 1_555 1_555
N2_2 C6_2 1_555 1_555
C7_2 N2_2 1_555 1_555
N3_2 C7_2 1_555 1_555
C8_2 N3_2 1_555 1_555
N4_2 C6_2 1_555 1_555
N5_2 C9_2 1_555 1_555
C9_2 H5_2 1_555 1_555
C10_2 C9_2 1_555 1_555
H6_2 C10_2 1_555 1_555
C11_2 C8_2 1_555 1_555
C12_2 C11_2 1_555 1_555
H7_2 C12_2 1_555 1_555
C13_2 N5_2 1_555 1_555
H8_2 C13_2 1_555 1_555
Zn2_2 N5_2 1_555 1_555
I3_2 Zn2_2 1_555 1_555
I4_2 Zn2_2 1_555 1_555
C14_2 H9_2 1_555 1_555
C15_2 C14_2 1_555 1_555
H10_2 C15_2 1_555 1_555
C16_2 C7_2 1_555 1_555
C17_2 C16_2 1_555 1_555
H11_2 C17_2 1_555 1_555
H13_2 C19_2 1_555 1_555
C20_2 C19_2 1_555 1_555
H14_2 C20_2 1_555 1_555
C21_2 C20_2 1_555 1_555
C24_2 C21_2 1_555 1_555
N8_2 C24_2 1_555 1_555
C25_2 N8_2 1_555 1_555
N9_2 C25_2 1_555 1_555
C26_2 N9_2 1_555 1_555
N10_2 C24_2 1_555 1_555
N13 C27_2 1_555 1_555
C27_2 H17_2 1_555 1_555
C28_2 C27_2 1_555 1_555
H18_2 C28_2 1_555 1_555
C29_2 C25_2 1_555 1_555
C30_2 C29_2 1_555 1_555
H19_2 C30_2 1_555 1_555
C31_2 N13 1_555 1_555
H20_2 C31_2 1_555 1_555
C34_2 C26_2 1_555 1_555
C35_2 C34_2 1_555 1_555
H23_2 C35_2 1_555 1_555
H24_2 C36_2 1_555 1_555
N14_2 Zn2_2 1_555 1_555
C4_2 C5_2 1_555 1_555
C8_2 N4_2 1_555 1_555
C10_2 C11_2 1_555 1_555
C12_2 C13_2 1_555 1_555
C15_2 C16_2 1_555 1_555
C17_2 C18_2 1_555 1_555
C26_2 N10_2 1_555 1_555
C28_2 C29_2 1_555 1_555
C30_2 C31_2 1_555 1_555
C35_2 C36_2 1_555 1_555
Zn1_2 I1_3 1_555 1_555
I2_2 Zn1_2 1_555 1_555
N1_3 Zn1_2 1_555 1_555
C1_3 N1_3 1_555 1_555
H1_3 C1_3 1_555 1_555
C2_3 C1_3 1_555 1_555
H2_3 C2_3 1_555 1_555
C3_3 C2_3 1_555 1_555
C4_3 C3_3 1_555 1_555
H3_3 C4_3 1_555 1_555
C5_3 N1_3 1_555 1_555
H4_3 C5_3 1_555 1_555
C6_3 C3_3 1_555 1_555
N2_3 C6_3 1_555 1_555
H11_3 C17_3 1_555 1_555
C18_3 N6 1_555 1_555
H12 C18_3 1_555 1_555
Zn3 N6 1_555 1_555
I6 Zn3 1_555 1_555
N7 Zn3 1_555 1_555
C19_3 N7 1_555 1_555
H13_3 C19_3 1_555 1_555
C20_3 C19_3 1_555 1_555
H14_3 C20_3 1_555 1_555
C21_3 C20_3 1_555 1_555
C22 C21_3 1_555 1_555
H15 C22 1_555 1_555
C23 N7 1_555 1_555
H16 C23 1_555 1_555
C24_3 C21_3 1_555 1_555
N8_3 C24_3 1_555 1_555
N10_3 C24_3 1_555 1_555
H19_3 C30_3 1_555 1_555
H20_3 C31_3 1_555 1_555
C4_3 C5_3 1_555 1_555
C17_3 C18_3 1_555 1_555
C22 C23 1_555 1_555
C30_3 C31_3 1_555 1_555
N9_3 C25_3 1_555 1_555
C26_3 N9_3 1_555 1_555
N11_2 C27_3 1_555 1_555
C27_3 H17_3 1_555 1_555
C28_3 C27_3 1_555 1_555
H18_3 C28_3 1_555 1_555
C29_3 C25_3 1_555 1_555
N14_2 C32 1_555 1_555
C32 H21 1_555 1_555
C33 C32 1_555 1_555
H22 C33 1_555 1_555
C34_3 C26_3 1_555 1_555
C35_3 C34_3 1_555 1_555
H23_3 C35_3 1_555 1_555
C36_3 N14_2 1_555 1_555
H24_3 C36_3 1_555 1_555
C28_3 C29_3 1_555 1_555
C33 C34_3 1_555 1_555
C35_3 C36_3 1_555 1_555
Zn4_2 I1_4 1_555 1_555
N1_4 Zn4_2 1_555 1_555
C1_4 N1_4 1_555 1_555
H1_4 C1_4 1_555 1_555
C2_4 C1_4 1_555 1_555
H2_4 C2_4 1_555 1_555
C3_4 C2_4 1_555 1_555
C4_4 C3_4 1_555 1_555
H3_4 C4_4 1_555 1_555
C5_4 N1_4 1_555 1_555
H4_4 C5_4 1_555 1_555
C6_4 C3_4 1_555 1_555
N2_4 C6_4 1_555 1_555
H11_4 C17_4 1_555 1_555
C18_4 N6_2 1_555 1_555
H12_2 C18_4 1_555 1_555
Zn3_2 N6_2 1_555 1_555
I6_2 Zn3_2 1_555 1_555
N7_2 Zn3_2 1_555 1_555
C19_4 N7_2 1_555 1_555
H13_4 C19_4 1_555 1_555
C20_4 C19_4 1_555 1_555
H14_4 C20_4 1_555 1_555
C21_4 C20_4 1_555 1_555
C22_2 C21_4 1_555 1_555
H15_2 C22_2 1_555 1_555
C23_2 N7_2 1_555 1_555
H16_2 C23_2 1_555 1_555
C24_4 C21_4 1_555 1_555
N8_4 C24_4 1_555 1_555
C25_4 N8_4 1_555 1_555
N9_4 C25_4 1_555 1_555
C26_4 N9_4 1_555 1_555
N10_4 C24_4 1_555 1_555
N13_2 C27_4 1_555 1_555
C27_4 H17_4 1_555 1_555
C28_4 C27_4 1_555 1_555
H18_4 C28_4 1_555 1_555
C29_4 C25_4 1_555 1_555
C30_4 C29_4 1_555 1_555
H19_4 C30_4 1_555 1_555
C31_4 N13_2 1_555 1_555
H20_4 C31_4 1_555 1_555
N14 C32_2 1_555 1_555
C32_2 H21_2 1_555 1_555
C33_2 C32_2 1_555 1_555
H22_2 C33_2 1_555 1_555
C34_4 C26_4 1_555 1_555
C35_4 C34_4 1_555 1_555
H23_4 C35_4 1_555 1_555
C36_4 N14 1_555 1_555
H24_4 C36_4 1_555 1_555
C4_4 C5_4 1_555 1_555
C17_4 C18_4 1_555 1_555
C22_2 C23_2 1_555 1_555
C26_4 N10_4 1_555 1_555
C28_4 C29_4 1_555 1_555
C30_4 C31_4 1_555 1_555
C33_2 C34_4 1_555 1_555
C35_4 C36_4 1_555 1_555
Zn3_3 N6_3 1_555 1_555
I5 Zn3_3 1_555 1_555
I6_3 Zn3_3 1_555 1_555
N7_3 Zn3_3 1_555 1_555
H15_3 C22_3 1_555 1_555
C23_3 N7_3 1_555 1_555
H16_3 C23_3 1_555 1_555
C22_3 C23_3 1_555 1_555
N12 C32_3 1_555 1_555
C32_3 H21_3 1_555 1_555
C33_3 C32_3 1_555 1_555
H22_3 C33_3 1_555 1_555
Zn5 N12 1_555 1_555
N5_3 C9_3 1_555 1_555
C9_3 H5_3 1_555 1_555
Zn5 N5_3 1_555 1_555
I3_3 Zn5 1_555 1_555
I4_3 Zn5 1_555 1_555
Zn3_4 N6_4 1_555 1_555
I5_2 Zn3_4 1_555 1_555
I6_4 Zn3_4 1_555 1_555
N7_4 Zn3_4 1_555 1_555
H15_4 C22_4 1_555 1_555
C23_4 N7_4 1_555 1_555
H16_4 C23_4 1_555 1_555
N12_2 C32_4 1_555 1_555
C32_4 H21_4 1_555 1_555
C33_4 C32_4 1_555 1_555
H22_4 C33_4 1_555 1_555
Zn5_2 N12_2 1_555 1_555
C22_4 C23_4 1_555 1_555
N5_4 C9_4 1_555 1_555
C9_4 H5_4 1_555 1_555
Zn5_2 N5_4 1_555 1_555
I3_4 Zn5_2 1_555 1_555
I4_4 Zn5_2 1_555 1_555
N3_3 C7_3 1_555 1_555
C8_3 N3_3 1_555 1_555
H6_3 C10_3 1_555 1_555
C11_3 C8_3 1_555 1_555
C12_3 C11_3 1_555 1_555
H7_3 C12_3 1_555 1_555
H8_3 C13_3 1_555 1_555
N6_5 C14_3 1_555 1_555
C14_3 H9_3 1_555 1_555
C15_3 C14_3 1_555 1_555
H10_3 C15_3 1_555 1_555
C16_3 C7_3 1_555 1_555
C8_3 N4_3 1_555 1_555
C10_3 C11_3 1_555 1_555
C12_3 C13_3 1_555 1_555
C15_3 C16_3 1_555 1_555
N3_4 C7_4 1_555 1_555
C8_4 N3_4 1_555 1_555
H6_4 C10_4 1_555 1_555
C11_4 C8_4 1_555 1_555
C12_4 C11_4 1_555 1_555
H7_4 C12_4 1_555 1_555
H8_4 C13_4 1_555 1_555
N6_6 C14_4 1_555 1_555
C14_4 H9_4 1_555 1_555
C15_4 C14_4 1_555 1_555
H10_4 C15_4 1_555 1_555
C16_4 C7_4 1_555 1_555
C8_4 N4_4 1_555 1_555
C10_4 C11_4 1_555 1_555
C12_4 C13_4 1_555 1_555
C15_4 C16_4 1_555 1_555
Zn6 I7 1_555 1_555
N15 Zn6 1_555 1_555
C37 N15 1_555 1_555
H25 C37 1_555 1_555
C38 C37 1_555 1_555
H26 C38 1_555 1_555
C39 C38 1_555 1_555
C40 C39 1_555 1_555
H27 C40 1_555 1_555
C41 N15 1_555 1_555
H28 C41 1_555 1_555
C42 C39 1_555 1_555
N16 C42 1_555 1_555
C43 N16 1_555 1_555
N17 C43 1_555 1_555
C44 N17 1_555 1_555
N18 C42 1_555 1_555
H30 C46 1_555 1_555
C47 C43 1_555 1_555
C48 C47 1_555 1_555
H31 C48 1_555 1_555
N20 C50 1_555 1_555
C50 H33 1_555 1_555
C51 C50 1_555 1_555
H34 C51 1_555 1_555
C52 C44 1_555 1_555
C53 C52 1_555 1_555
H35 C53 1_555 1_555
C54 N20 1_555 1_555
H36 C54 1_555 1_555
I11 Zn8 1_555 1_555
Zn8 N20 1_555 1_555
I12 Zn8 1_555 1_555
N21 Zn8 1_555 1_555
C55 N21 1_555 1_555
H37 C55 1_555 1_555
C56 C55 1_555 1_555
H38 C56 1_555 1_555
C57 C56 1_555 1_555
C58 C57 1_555 1_555
H39 C58 1_555 1_555
C59 N21 1_555 1_555
H40 C59 1_555 1_555
C60 C57 1_555 1_555
N22 C60 1_555 1_555
C61 N22 1_555 1_555
N23 C61 1_555 1_555
C62 N23 1_555 1_555
N24 C60 1_555 1_555
N25 C63 1_555 1_555
C63 H41 1_555 1_555
C64 C63 1_555 1_555
H42 C64 1_555 1_555
C65 C61 1_555 1_555
C66 C65 1_555 1_555
H43 C66 1_555 1_555
C67 N25 1_555 1_555
H44 C67 1_555 1_555
C68 H45 1_555 1_555
C69 C68 1_555 1_555
H46 C69 1_555 1_555
C70 C62 1_555 1_555
C71 C70 1_555 1_555
H47 C71 1_555 1_555
Zn10 N25 1_555 1_555
N28 Zn6 1_555 1_555
C40 C41 1_555 1_555
C44 N18 1_555 1_555
C46 C47 1_555 1_555
C51 C52 1_555 1_555
C53 C54 1_555 1_555
C58 C59 1_555 1_555
C62 N24 1_555 1_555
C64 C65 1_555 1_555
C66 C67 1_555 1_555
C69 C70 1_555 1_555
C71 C72 1_555 1_555
N22_2 C60_2 1_555 1_555
C61_2 N22_2 1_555 1_555
N23_2 C61_2 1_555 1_555
C62_2 N23_2 1_555 1_555
N24_2 C60_2 1_555 1_555
N25_2 C63_2 1_555 1_555
C63_2 H41_2 1_555 1_555
C64_2 C63_2 1_555 1_555
H42_2 C64_2 1_555 1_555
C65_2 C61_2 1_555 1_555
C66_2 C65_2 1_555 1_555
H43_2 C66_2 1_555 1_555
C67_2 N25_2 1_555 1_555
H44_2 C67_2 1_555 1_555
C69_2 C68_2 1_555 1_555
H46_2 C69_2 1_555 1_555
C70_2 C62_2 1_555 1_555
C71_2 C70_2 1_555 1_555
H47_2 C71_2 1_555 1_555
Zn10_2 N25_2 1_555 1_555
C62_2 N24_2 1_555 1_555
C64_2 C65_2 1_555 1_555
C66_2 C67_2 1_555 1_555
C69_2 C70_2 1_555 1_555
C71_2 C72_2 1_555 1_555
Zn6_2 I7_2 1_555 1_555
N15_2 Zn6_2 1_555 1_555
C37_2 N15_2 1_555 1_555
H25_2 C37_2 1_555 1_555
C38_2 C37_2 1_555 1_555
H26_2 C38_2 1_555 1_555
C39_2 C38_2 1_555 1_555
C40_2 C39_2 1_555 1_555
H27_2 C40_2 1_555 1_555
C41_2 N15_2 1_555 1_555
H28_2 C41_2 1_555 1_555
C42_2 C39_2 1_555 1_555
N16_2 C42_2 1_555 1_555
C43_2 N16_2 1_555 1_555
N17_2 C43_2 1_555 1_555
C44_2 N17_2 1_555 1_555
N18_2 C42_2 1_555 1_555
N19 C45 1_555 1_555
C45 H29 1_555 1_555
C46_2 C45 1_555 1_555
H30_2 C46_2 1_555 1_555
C47_2 C43_2 1_555 1_555
C48_2 C47_2 1_555 1_555
H31_2 C48_2 1_555 1_555
C49 N19 1_555 1_555
H32 C49 1_555 1_555
Zn10_2 N19 1_555 1_555
I9 Zn10_2 1_555 1_555
I10 Zn10_2 1_555 1_555
H34_2 C51_2 1_555 1_555
C52_2 C44_2 1_555 1_555
C53_2 C52_2 1_555 1_555
H35_2 C53_2 1_555 1_555
H36_2 C54_2 1_555 1_555
C58_2 C57_2 1_555 1_555
H39_2 C58_2 1_555 1_555
H40_2 C59_2 1_555 1_555
C60_3 C57_2 1_555 1_555
N22_3 C60_3 1_555 1_555
C61_3 N22_3 1_555 1_555
N23_3 C61_3 1_555 1_555
C62_3 N23_3 1_555 1_555
N24_3 C60_3 1_555 1_555
C63_3 H41_3 1_555 1_555
C64_3 C63_3 1_555 1_555
H42_3 C64_3 1_555 1_555
C65_3 C61_3 1_555 1_555
N26 C68_3 1_555 1_555
C68_3 H45_2 1_555 1_555
C69_3 C68_3 1_555 1_555
H46_3 C69_3 1_555 1_555
C70_3 C62_3 1_555 1_555
C71_3 C70_3 1_555 1_555
H47_3 C71_3 1_555 1_555
C72_3 N26 1_555 1_555
H48_2 C72_3 1_555 1_555
Zn9 N26 1_555 1_555
N28_2 Zn6_2 1_555 1_555
C40_2 C41_2 1_555 1_555
C44_2 N18_2 1_555 1_555
C46_2 C47_2 1_555 1_555
C48_2 C49 1_555 1_555
C51_2 C52_2 1_555 1_555
C53_2 C54_2 1_555 1_555
C58_2 C59_2 1_555 1_555
C62_3 N24_3 1_555 1_555
C64_3 C65_3 1_555 1_555
C69_3 C70_3 1_555 1_555
C71_3 C72_3 1_555 1_555
N22_4 C60_4 1_555 1_555
C61_4 N22_4 1_555 1_555
N23_4 C61_4 1_555 1_555
C62_4 N23_4 1_555 1_555
N24_4 C60_4 1_555 1_555
C63_4 H41_4 1_555 1_555
C64_4 C63_4 1_555 1_555
H42_4 C64_4 1_555 1_555
C65_4 C61_4 1_555 1_555
N28_2 C68_4 1_555 1_555
C69_4 C68_4 1_555 1_555
H46_4 C69_4 1_555 1_555
C70_4 C62_4 1_555 1_555
C71_4 C70_4 1_555 1_555
H47_4 C71_4 1_555 1_555
C72_4 N28_2 1_555 1_555
H48_3 C72_4 1_555 1_555
C62_4 N24_4 1_555 1_555
C64_4 C65_4 1_555 1_555
C69_4 C70_4 1_555 1_555
C71_4 C72_4 1_555 1_555
Zn9 I7_3 1_555 1_555
I8 Zn9 1_555 1_555
N15_3 Zn9 1_555 1_555
C37_3 N15_3 1_555 1_555
H25_3 C37_3 1_555 1_555
C38_3 C37_3 1_555 1_555
H26_3 C38_3 1_555 1_555
C39_3 C38_3 1_555 1_555
C40_3 C39_3 1_555 1_555
H27_3 C40_3 1_555 1_555
C41_3 N15_3 1_555 1_555
H28_3 C41_3 1_555 1_555
C42_3 C39_3 1_555 1_555
N16_3 C42_3 1_555 1_555
C43_3 N16_3 1_555 1_555
N17_3 C43_3 1_555 1_555
C44_3 N17_3 1_555 1_555
N18_3 C42_3 1_555 1_555
N19_2 C45_2 1_555 1_555
C45_2 H29_2 1_555 1_555
C46_3 C45_2 1_555 1_555
H30_3 C46_3 1_555 1_555
C47_3 C43_3 1_555 1_555
C48_3 C47_3 1_555 1_555
H31_3 C48_3 1_555 1_555
C49_2 N19_2 1_555 1_555
H32_2 C49_2 1_555 1_555
Zn10 N19_2 1_555 1_555
I9_2 Zn10 1_555 1_555
I10_2 Zn10 1_555 1_555
H34_3 C51_3 1_555 1_555
C52_3 C44_3 1_555 1_555
C53_3 C52_3 1_555 1_555
H35_3 C53_3 1_555 1_555
H36_3 C54_3 1_555 1_555
C58_3 C57_3 1_555 1_555
H39_3 C58_3 1_555 1_555
H40_3 C59_3 1_555 1_555
C40_3 C41_3 1_555 1_555
C44_3 N18_3 1_555 1_555
C46_3 C47_3 1_555 1_555
C48_3 C49_2 1_555 1_555
C51_3 C52_3 1_555 1_555
C53_3 C54_3 1_555 1_555
C58_3 C59_3 1_555 1_555
Zn9_2 N26_2 1_555 1_555
Zn9_2 I7_4 1_555 1_555
I8_3 Zn9_2 1_555 1_555
N15_4 Zn9_2 1_555 1_555
C37_4 N15_4 1_555 1_555
H25_4 C37_4 1_555 1_555
C38_4 C37_4 1_555 1_555
H26_4 C38_4 1_555 1_555
C39_4 C38_4 1_555 1_555
C40_4 C39_4 1_555 1_555
H27_4 C40_4 1_555 1_555
C41_4 N15_4 1_555 1_555
H28_4 C41_4 1_555 1_555
C42_4 C39_4 1_555 1_555
N16_4 C42_4 1_555 1_555
C43_4 N16_4 1_555 1_555
N17_4 C43_4 1_555 1_555
C44_4 N17_4 1_555 1_555
N18_4 C42_4 1_555 1_555
H30_4 C46_4 1_555 1_555
C47_4 C43_4 1_555 1_555
C48_4 C47_4 1_555 1_555
H31_4 C48_4 1_555 1_555
N20_2 C50_2 1_555 1_555
C50_2 H33_2 1_555 1_555
C51_4 C50_2 1_555 1_555
H34_4 C51_4 1_555 1_555
C52_4 C44_4 1_555 1_555
C53_4 C52_4 1_555 1_555
H35_4 C53_4 1_555 1_555
C54_4 N20_2 1_555 1_555
H36_4 C54_4 1_555 1_555
I11_2 Zn8_2 1_555 1_555
Zn8_2 N20_2 1_555 1_555
I12_2 Zn8_2 1_555 1_555
N21_2 Zn8_2 1_555 1_555
C55_2 N21_2 1_555 1_555
H37_2 C55_2 1_555 1_555
C56_2 C55_2 1_555 1_555
H38_2 C56_2 1_555 1_555
C57_4 C56_2 1_555 1_555
C58_4 C57_4 1_555 1_555
H39_4 C58_4 1_555 1_555
C59_4 N21_2 1_555 1_555
H40_4 C59_4 1_555 1_555
C40_4 C41_4 1_555 1_555
C44_4 N18_4 1_555 1_555
C46_4 C47_4 1_555 1_555
C51_4 C52_4 1_555 1_555
C53_4 C54_4 1_555 1_555
C58_4 C59_4 1_555 1_555
C45_3 H29_3 1_555 1_555
C49_3 N19_3 1_555 1_555
H32_3 C49_3 1_555 1_555
Zn7 N19_3 1_555 1_555
I9_3 Zn7 1_555 1_555
I10_3 Zn7 1_555 1_555
N27 Zn7 1_555 1_555
H43_3 C66_3 1_555 1_555
C67_3 N27 1_555 1_555
H44_3 C67_3 1_555 1_555
C66_3 C67_3 1_555 1_555
C49_4 N19_4 1_555 1_555
H32_4 C49_4 1_555 1_555
Zn7_2 N19_4 1_555 1_555
I9_4 Zn7_2 1_555 1_555
I10_4 Zn7_2 1_555 1_555
N27_2 Zn7_2 1_555 1_555
N20_3 C50_3 1_555 1_555
C50_3 H33_3 1_555 1_555
I11_3 Zn8_3 1_555 1_555
Zn8_3 N20_3 1_555 1_555
I12_3 Zn8_3 1_555 1_555
N21_3 Zn8_3 1_555 1_555
C55_3 N21_3 1_555 1_555
H37_3 C55_3 1_555 1_555
C56_3 C55_3 1_555 1_555
H38_3 C56_3 1_555 1_555
H43_4 C66_4 1_555 1_555
C67_4 N27_2 1_555 1_555
H44_4 C67_4 1_555 1_555
C66_4 C67_4 1_555 1_555
C45_4 H29_4 1_555 1_555
N20_4 C50_4 1_555 1_555
C50_4 H33_4 1_555 1_555
I11_4 Zn8_4 1_555 1_555
Zn8_4 N20_4 1_555 1_555
I12_4 Zn8_4 1_555 1_555
N21_4 Zn8_4 1_555 1_555
C55_4 N21_4 1_555 1_555
H37_4 C55_4 1_555 1_555
C56_4 C55_4 1_555 1_555
H38_4 C56_4 1_555 1_555

#END
