
###############################################################################
#
# This file contains modified crystal structure data generated from the
# MOF subset of the Cambridge Structural Database (CSD) v543 
# hosted by the Cambridge Crystallographic Data Centre (CCDC).
#
# This work is licensed under the Creative Commons
# Attribution-NonCommercial-ShareAlike 4.0 International License.
# To view a copy of this license, visit
# http://creativecommons.org/licenses/by-nc-sa/4.0/
# or send a letter to
# Creative Commons, PO Box 1866, Mountain View, CA 94042, USA.
#
# CIF created using the CSD Python API on 29 September 2022
# The structure has been converted into the P1 space group
# The structure has a 3D framework
# The original CSD entry VOZVAJ01 is in the monoclinic crystal system
# The framework has been calculated to contain at least 10.0% void space
# The void calculation uses a probe of radius 1.32A, grid spacing 0.4
#
###############################################################################

data_VOZVAJ01
_chemical_formula_moiety         '(C288 H192 I48 N92 Zn24)n'
_symmetry_cell_setting           triclinic
_symmetry_space_group_name_H-M   'P 1'
_symmetry_Int_Tables_number      1
_space_group_name_Hall           'P 1'
loop_
_symmetry_equiv_pos_site_id
_symmetry_equiv_pos_as_xyz
1 x,y,z
_cell_length_a                   31.895(4)
_cell_length_b                   15.133(2)
_cell_length_c                   31.168(4)
_cell_angle_alpha                90
_cell_angle_beta                 98.082(2)
_cell_angle_gamma                90
_cell_volume                     14894.3
loop_
_atom_site_label
_atom_site_type_symbol
_atom_site_fract_x
_atom_site_fract_y
_atom_site_fract_z
N6 N 0.0882(3) 0.5221(6) 0.0437(4)
C14 C 0.0656(5) 0.5219(9) 0.0750(5)
H9 H 0.0723 0.5640 0.0976
C15 C 0.0325(5) 0.4650(11) 0.0779(5)
H10 H 0.0164 0.4690 0.1013
C16 C 0.0231(4) 0.4011(7) 0.0456(4)
C17 C 0.0463(4) 0.4029(7) 0.0111(4)
C18 C 0.0785(4) 0.4642(8) 0.0105(4)
Zn3 Zn 0.14187(4) 0.59933(8) 0.05017(5)
I5 I 0.12312(3) 0.74705(5) 0.08122(3)
N7 N 0.1798(3) 0.5310(6) 0.0977(3)
C19 C 0.1862(4) 0.4437(7) 0.0936(4)
H13 H 0.1713 0.4134 0.0694
C20 C 0.2134(4) 0.3970(7) 0.1231(3)
H14 H 0.2167 0.3351 0.1197
C21 C 0.2362(3) 0.4407(6) 0.1581(3)
C22 C 0.2304(4) 0.5311(8) 0.1616(5)
H15 H 0.2465 0.5636 0.1843
C23 C 0.2012(4) 0.5731(7) 0.1321(4)
H16 H 0.1958 0.6341 0.1360
C24 C 0.2673(3) 0.3922(6) 0.1902(3)
N8 N 0.2714(3) 0.3054(5) 0.1847(3)
C25 C 0.3001(3) 0.2678(6) 0.2134(3)
N9 N 0.3250(3) 0.3096(6) 0.2449(3)
C26 C 0.3173(4) 0.3946(7) 0.2478(3)
N10 N 0.2880(3) 0.4397(5) 0.2222(3)
C27 C 0.3292(6) 0.0325(9) 0.2430(4)
H17 H 0.3478 0.0022 0.2646
C28 C 0.3292(5) 0.1236(8) 0.2440(5)
H18 H 0.3472 0.1546 0.2658
C29 C 0.3028(4) 0.1687(7) 0.2129(4)
C30 C 0.2772(4) 0.1201(7) 0.1817(4)
H19 H 0.2582 0.1487 0.1599
C31 C 0.2800(4) 0.0294(7) 0.1835(4)
N12 N 0.3894(3) 0.5333(6) 0.3522(3)
C32 C 0.3584(4) 0.5732(7) 0.3265(4)
H21 H 0.3531 0.6340 0.3312
C33 C 0.3335(4) 0.5303(7) 0.2932(4)
H22 H 0.3109 0.5605 0.2762
C34 C 0.3417(3) 0.4432(6) 0.2850(3)
C35 C 0.3734(4) 0.4009(7) 0.3123(4)
H23 H 0.3793 0.3402 0.3083
C36 C 0.3963(4) 0.4474(8) 0.3450(4)
H24 H 0.4180 0.4177 0.3636
Zn5 Zn 0.43004(4) 0.60905(8) 0.39542(4)
N11 N 0.3059(4) 0.0134(6) 0.7150(3)
H20 H 0.2633 0.0045 0.6618
Zn4 Zn 0.30835(7) 0.15030(9) 0.71446(5)
Zn1 Zn 0.80835(7) 0.65030(9) 0.71446(5)
I1 I 0.74170(5) 0.71406(8) 0.68134(5)
I2 I 0.84533(6) 0.69556(8) 0.78802(4)
N1 N 0.8494(4) 0.6733(7) 0.6703(4)
C1 C 0.8374(5) 0.7186(10) 0.6337(5)
H1 H 0.8095 0.7421 0.6285
C2 C 0.8641(5) 0.7323(10) 0.6033(4)
H2 H 0.8545 0.7632 0.5772
C3 C 0.9051(4) 0.7006(8) 0.6111(4)
C4 C 0.9177(6) 0.6550(10) 0.6490(5)
H3 H 0.9455 0.6314 0.6551
C5 C 0.8887(6) 0.6444(10) 0.6782(4)
H4 H 0.8976 0.6151 0.7048
C6 C 0.9339(4) 0.7118(7) 0.5781(4)
N2 N 0.9280(3) 0.7817(6) 0.5526(3)
C7 C 0.9567(3) 0.7911(7) 0.5255(3)
N3 N 0.9877(3) 0.7334(6) 0.5212(3)
C8 C 0.9896(3) 0.6654(7) 0.5482(3)
N4 N 0.9648(3) 0.6515(6) 0.5778(3)
C9 C 0.9762(3) 0.9587(7) 0.4423(3)
H5 H 0.9953 0.9679 0.4220
C10 C 0.9822(3) 0.8863(6) 0.4694(3)
C11 C 0.9544(3) 0.8717(6) 0.4986(3)
C12 C 0.9222(3) 0.9332(7) 0.5012(4)
H7 H 0.9032 0.9264 0.5219
N13 N 0.8059(4) 0.5134(6) 0.7150(3)
I1_2 I 0.24170(5) 0.21406(8) 0.68134(5)
I2_2 I 0.34533(6) 0.19556(8) 0.78802(4)
N1_2 N 0.3494(4) 0.1733(7) 0.6703(4)
C1_2 C 0.3374(5) 0.2186(10) 0.6337(5)
H1_2 H 0.3095 0.2421 0.6285
C2_2 C 0.3641(5) 0.2323(10) 0.6033(4)
H2_2 H 0.3545 0.2632 0.5772
C3_2 C 0.4051(4) 0.2006(8) 0.6111(4)
C4_2 C 0.4177(6) 0.1550(10) 0.6490(5)
H3_2 H 0.4455 0.1314 0.6551
C5_2 C 0.3887(6) 0.1444(10) 0.6782(4)
H4_2 H 0.3976 0.1151 0.7048
C6_2 C 0.4339(4) 0.2118(7) 0.5781(4)
N2_2 N 0.4280(3) 0.2817(6) 0.5526(3)
C7_2 C 0.4567(3) 0.2911(7) 0.5255(3)
N3_2 N 0.4877(3) 0.2334(6) 0.5212(3)
C8_2 C 0.4896(3) 0.1654(7) 0.5482(3)
N4_2 N 0.4648(3) 0.1515(6) 0.5778(3)
N5 N 0.4449(3) 0.5163(5) 0.4432(3)
C9_2 C 0.4762(3) 0.4587(7) 0.4423(3)
H5_2 H 0.4953 0.4679 0.4220
C10_2 C 0.4822(3) 0.3863(6) 0.4694(3)
H6 H 0.5052 0.3471 0.4679
C11_2 C 0.4544(3) 0.3717(6) 0.4986(3)
C12_2 C 0.4222(3) 0.4332(7) 0.5012(4)
H7_2 H 0.4032 0.4264 0.5219
C13 C 0.4186(3) 0.5042(7) 0.4730(3)
H8 H 0.3967 0.5462 0.4748
I3 I 0.38765(3) 0.73164(5) 0.42363(3)
I4 I 0.49502(3) 0.63319(7) 0.35715(3)
C15_2 C 0.5325(5) 0.0350(11) 0.5779(5)
H10_2 H 0.5164 0.0310 0.6013
C16_2 C 0.5231(4) 0.0989(7) 0.5456(4)
C17_2 C 0.5463(4) 0.0971(7) 0.5111(4)
H11 H 0.5400 0.1378 0.4878
C18_2 C 0.5785(4) 0.0358(8) 0.5105(4)
H12 H 0.5939 0.0343 0.4865
C19_2 C 0.6862(4) 0.0563(7) 0.5936(4)
H13_2 H 0.6713 0.0866 0.5694
C20_2 C 0.7134(4) 0.1030(7) 0.6231(3)
H14_2 H 0.7167 0.1649 0.6197
C21_2 C 0.7362(3) 0.0593(6) 0.6581(3)
C24_2 C 0.7673(3) 0.1078(6) 0.6902(3)
N8_2 N 0.7714(3) 0.1946(5) 0.6847(3)
C25_2 C 0.8001(3) 0.2322(6) 0.7134(3)
N9_2 N 0.8250(3) 0.1904(6) 0.7449(3)
C26_2 C 0.8173(4) 0.1054(7) 0.7478(3)
N10_2 N 0.7880(3) 0.0603(5) 0.7222(3)
C27_2 C 0.8292(6) 0.4675(9) 0.7430(4)
H17_2 H 0.8478 0.4978 0.7646
C28_2 C 0.8292(5) 0.3764(8) 0.7440(5)
H18_2 H 0.8472 0.3454 0.7658
C29_2 C 0.8028(4) 0.3313(7) 0.7129(4)
C30_2 C 0.7772(4) 0.3799(7) 0.6817(4)
H19_2 H 0.7582 0.3513 0.6599
C31_2 C 0.7800(4) 0.4706(7) 0.6835(4)
H20_2 H 0.7633 0.5045 0.6618
C34_2 C 0.8417(3) 0.0568(6) 0.7850(3)
C35_2 C 0.8734(4) 0.0991(7) 0.8123(4)
H23_2 H 0.8793 0.1598 0.8083
C36_2 C 0.8963(4) 0.0526(8) 0.8450(4)
H24_2 H 0.9180 0.0823 0.8636
H6_2 H 0.0052 0.1529 0.9679
H11_2 H 0.0400 0.3622 0.9878
H12_2 H 0.0939 0.4657 0.9865
I6 I 0.17739(3) 0.58340(6) 0.98238(3)
N11_2 N 0.3059(4) 0.9866(6) 0.2150(3)
H20_3 H 0.2633 0.9955 0.1618
Zn4_2 Zn 0.30835(7) 0.84970(9) 0.21446(5)
Zn1_2 Zn 0.80835(7) 0.34970(9) 0.21446(5)
I1_3 I 0.74170(5) 0.28594(8) 0.18134(5)
I2_3 I 0.84533(6) 0.30444(8) 0.28802(4)
N1_3 N 0.8494(4) 0.3267(7) 0.1703(4)
C1_3 C 0.8374(5) 0.2814(10) 0.1337(5)
H1_3 H 0.8095 0.2579 0.1285
C2_3 C 0.8641(5) 0.2677(10) 0.1033(4)
H2_3 H 0.8545 0.2368 0.0772
C3_3 C 0.9051(4) 0.2994(8) 0.1111(4)
C4_3 C 0.9177(6) 0.3450(10) 0.1490(5)
H3_3 H 0.9455 0.3686 0.1551
C5_3 C 0.8887(6) 0.3556(10) 0.1782(4)
H4_3 H 0.8976 0.3849 0.2048
C6_3 C 0.9339(4) 0.2882(7) 0.0781(4)
N2_3 N 0.9280(3) 0.2183(6) 0.0526(3)
C7_3 C 0.9567(3) 0.2089(7) 0.0255(3)
N3_3 N 0.9877(3) 0.2666(6) 0.0212(3)
C8_3 C 0.9896(3) 0.3346(7) 0.0482(3)
N4_3 N 0.9648(3) 0.3485(6) 0.0778(3)
C12_3 C 0.9222(3) 0.0668(7) 0.0012(4)
H7_3 H 0.9032 0.0736 0.0219
N13_2 N 0.8059(4) 0.4866(6) 0.2150(3)
I1_4 I 0.24170(5) 0.78594(8) 0.18134(5)
I2_4 I 0.34533(6) 0.80444(8) 0.28802(4)
N1_4 N 0.3494(4) 0.8267(7) 0.1703(4)
C1_4 C 0.3374(5) 0.7814(10) 0.1337(5)
H1_4 H 0.3095 0.7579 0.1285
C2_4 C 0.3641(5) 0.7677(10) 0.1033(4)
H2_4 H 0.3545 0.7368 0.0772
C3_4 C 0.4051(4) 0.7994(8) 0.1111(4)
C4_4 C 0.4177(6) 0.8450(10) 0.1490(5)
H3_4 H 0.4455 0.8686 0.1551
C5_4 C 0.3887(6) 0.8556(10) 0.1782(4)
H4_4 H 0.3976 0.8849 0.2048
C6_4 C 0.4339(4) 0.7882(7) 0.0781(4)
N2_4 N 0.4280(3) 0.7183(6) 0.0526(3)
C7_4 C 0.4567(3) 0.7089(7) 0.0255(3)
N3_4 N 0.4877(3) 0.7666(6) 0.0212(3)
C8_4 C 0.4896(3) 0.8346(7) 0.0482(3)
N4_4 N 0.4648(3) 0.8485(6) 0.0778(3)
C12_4 C 0.4222(3) 0.5668(7) 0.0012(4)
H7_4 H 0.4032 0.5736 0.0219
C15_3 C 0.5325(5) 0.9650(11) 0.0779(5)
H10_3 H 0.5164 0.9690 0.1013
C16_3 C 0.5231(4) 0.9011(7) 0.0456(4)
C17_3 C 0.5463(4) 0.9029(7) 0.0111(4)
C18_3 C 0.5785(4) 0.9642(8) 0.0105(4)
C19_3 C 0.6862(4) 0.9437(7) 0.0936(4)
H13_3 H 0.6713 0.9134 0.0694
C20_3 C 0.7134(4) 0.8970(7) 0.1231(3)
H14_3 H 0.7167 0.8351 0.1197
C21_3 C 0.7362(3) 0.9407(6) 0.1581(3)
C24_3 C 0.7673(3) 0.8922(6) 0.1902(3)
N8_3 N 0.7714(3) 0.8054(5) 0.1847(3)
C25_3 C 0.8001(3) 0.7678(6) 0.2134(3)
N9_3 N 0.8250(3) 0.8096(6) 0.2449(3)
C26_3 C 0.8173(4) 0.8946(7) 0.2478(3)
N10_3 N 0.7880(3) 0.9397(5) 0.2222(3)
C27_3 C 0.8292(6) 0.5325(9) 0.2430(4)
H17_3 H 0.8478 0.5022 0.2646
C28_3 C 0.8292(5) 0.6236(8) 0.2440(5)
H18_3 H 0.8472 0.6546 0.2658
C29_3 C 0.8028(4) 0.6687(7) 0.2129(4)
C30_3 C 0.7772(4) 0.6201(7) 0.1817(4)
H19_3 H 0.7582 0.6487 0.1599
C31_3 C 0.7800(4) 0.5294(7) 0.1835(4)
H20_4 H 0.7633 0.4955 0.1618
C34_3 C 0.8417(3) 0.9432(6) 0.2850(3)
C35_3 C 0.8734(4) 0.9009(7) 0.3123(4)
H23_3 H 0.8793 0.8402 0.3083
C36_3 C 0.8963(4) 0.9474(8) 0.3450(4)
H24_3 H 0.9180 0.9177 0.3636
C9_3 C 0.9762(3) 0.0413(7) 0.9423(3)
H5_3 H 0.9953 0.0321 0.9220
C10_3 C 0.9822(3) 0.1137(6) 0.9694(3)
C11_3 C 0.9544(3) 0.1283(6) 0.9986(3)
N5_2 N 0.9449(3) 0.9837(5) 0.9432(3)
C13_2 C 0.9186(3) 0.9958(7) 0.9730(3)
H8_2 H 0.8967 0.9538 0.9748
Zn2 Zn 0.93004(4) 0.89095(8) 0.89542(4)
I3_2 I 0.88765(3) 0.76836(5) 0.92363(3)
I4_2 I 0.99502(3) 0.86681(7) 0.85715(3)
N14 N 0.8894(3) 0.9667(6) 0.8522(3)
N6_2 N 0.5882(3) 0.9779(6) 0.5437(4)
C14_2 C 0.5656(5) 0.9781(9) 0.5750(5)
H9_2 H 0.5723 0.9360 0.5976
Zn3_2 Zn 0.64187(4) 0.90067(8) 0.55017(5)
I5_2 I 0.62312(3) 0.75295(5) 0.58122(3)
I6_2 I 0.67739(3) 0.91660(6) 0.48238(3)
N7_2 N 0.6798(3) 0.9690(6) 0.5977(3)
C22_2 C 0.7304(4) 0.9689(8) 0.6616(5)
H15_2 H 0.7465 0.9364 0.6843
C23_2 C 0.7012(4) 0.9269(7) 0.6321(4)
H16_2 H 0.6958 0.8659 0.6360
C32_2 C 0.8584(4) 0.9268(7) 0.8265(4)
H21_2 H 0.8531 0.8660 0.8312
C33_2 C 0.8335(4) 0.9697(7) 0.7932(4)
H22_2 H 0.8109 0.9395 0.7762
Zn1_3 Zn 0.19165(7) 0.34970(9) 0.28554(5)
I1_5 I 0.25830(5) 0.28594(8) 0.31866(5)
I2_5 I 0.15467(6) 0.30444(8) 0.21198(4)
N1_5 N 0.1506(4) 0.3267(7) 0.3297(4)
C1_5 C 0.1626(5) 0.2814(10) 0.3663(5)
H1_5 H 0.1905 0.2579 0.3715
C2_5 C 0.1359(5) 0.2677(10) 0.3967(4)
H2_5 H 0.1455 0.2368 0.4228
C3_5 C 0.0949(4) 0.2994(8) 0.3889(4)
C4_5 C 0.0823(6) 0.3450(10) 0.3510(5)
H3_5 H 0.0545 0.3686 0.3449
C5_5 C 0.1113(6) 0.3556(10) 0.3218(4)
H4_5 H 0.1024 0.3849 0.2952
C6_5 C 0.0661(4) 0.2882(7) 0.4219(4)
N2_5 N 0.0720(3) 0.2183(6) 0.4474(3)
C7_5 C 0.0433(3) 0.2089(7) 0.4745(3)
N3_5 N 0.0123(3) 0.2666(6) 0.4788(3)
C8_5 C 0.0104(3) 0.3346(7) 0.4518(3)
N4_5 N 0.0352(3) 0.3485(6) 0.4222(3)
C9_4 C 0.0238(3) 0.0413(7) 0.5577(3)
H5_4 H 0.0047 0.0321 0.5780
C10_4 C 0.0178(3) 0.1137(6) 0.5306(3)
C11_4 C 0.0456(3) 0.1283(6) 0.5014(3)
C12_5 C 0.0778(3) 0.0668(7) 0.4988(4)
H7_5 H 0.0968 0.0736 0.4781
N13_3 N 0.1941(4) 0.4866(6) 0.2850(3)
N11_3 N 0.6941(4) 0.9866(6) 0.2850(3)
H20_5 H 0.7367 0.9955 0.3382
Zn4_3 Zn 0.69165(7) 0.84970(9) 0.28554(5)
I1_6 I 0.75830(5) 0.78594(8) 0.31866(5)
I2_6 I 0.65467(6) 0.80444(8) 0.21198(4)
N1_6 N 0.6506(4) 0.8267(7) 0.3297(4)
C1_6 C 0.6626(5) 0.7814(10) 0.3663(5)
H1_6 H 0.6905 0.7579 0.3715
C2_6 C 0.6359(5) 0.7677(10) 0.3967(4)
H2_6 H 0.6455 0.7368 0.4228
C3_6 C 0.5949(4) 0.7994(8) 0.3889(4)
C4_6 C 0.5823(6) 0.8450(10) 0.3510(5)
H3_6 H 0.5545 0.8686 0.3449
C5_6 C 0.6113(6) 0.8556(10) 0.3218(4)
H4_6 H 0.6024 0.8849 0.2952
C6_6 C 0.5661(4) 0.7882(7) 0.4219(4)
N2_6 N 0.5720(3) 0.7183(6) 0.4474(3)
C7_6 C 0.5433(3) 0.7089(7) 0.4745(3)
N3_6 N 0.5123(3) 0.7666(6) 0.4788(3)
C8_6 C 0.5104(3) 0.8346(7) 0.4518(3)
N4_6 N 0.5352(3) 0.8485(6) 0.4222(3)
N5_3 N 0.5551(3) 0.4837(5) 0.5568(3)
C9_5 C 0.5238(3) 0.5413(7) 0.5577(3)
H5_5 H 0.5047 0.5321 0.5780
C10_5 C 0.5178(3) 0.6137(6) 0.5306(3)
H6_3 H 0.4948 0.6529 0.5321
C11_5 C 0.5456(3) 0.6283(6) 0.5014(3)
C12_6 C 0.5778(3) 0.5668(7) 0.4988(4)
H7_6 H 0.5968 0.5736 0.4781
C13_3 C 0.5814(3) 0.4958(7) 0.5270(3)
H8_3 H 0.6033 0.4538 0.5252
Zn2_2 Zn 0.56996(4) 0.39095(8) 0.60458(4)
I3_3 I 0.61235(3) 0.26836(5) 0.57637(3)
I4_3 I 0.50498(3) 0.36681(7) 0.64285(3)
C15_4 C 0.4675(5) 0.9650(11) 0.4221(5)
H10_4 H 0.4836 0.9690 0.3987
C16_4 C 0.4769(4) 0.9011(7) 0.4544(4)
C17_4 C 0.4537(4) 0.9029(7) 0.4889(4)
H11_3 H 0.4600 0.8622 0.5122
C18_4 C 0.4215(4) 0.9642(8) 0.4895(4)
H12_3 H 0.4061 0.9657 0.5135
C19_4 C 0.3138(4) 0.9437(7) 0.4064(4)
H13_4 H 0.3287 0.9134 0.4306
C20_4 C 0.2866(4) 0.8970(7) 0.3769(3)
H14_4 H 0.2833 0.8351 0.3803
C21_4 C 0.2638(3) 0.9407(6) 0.3419(3)
C24_4 C 0.2327(3) 0.8922(6) 0.3098(3)
N8_4 N 0.2286(3) 0.8054(5) 0.3153(3)
C25_4 C 0.1999(3) 0.7678(6) 0.2866(3)
N9_4 N 0.1750(3) 0.8096(6) 0.2551(3)
C26_4 C 0.1827(4) 0.8946(7) 0.2522(3)
N10_4 N 0.2120(3) 0.9397(5) 0.2778(3)
C27_4 C 0.1708(6) 0.5325(9) 0.2570(4)
H17_4 H 0.1522 0.5022 0.2354
C28_4 C 0.1708(5) 0.6236(8) 0.2560(5)
H18_4 H 0.1528 0.6546 0.2342
C29_4 C 0.1972(4) 0.6687(7) 0.2871(4)
C30_4 C 0.2228(4) 0.6201(7) 0.3183(4)
H19_4 H 0.2418 0.6487 0.3401
C31_4 C 0.2200(4) 0.5294(7) 0.3165(4)
H20_6 H 0.2367 0.4955 0.3382
C34_4 C 0.1583(3) 0.9432(6) 0.2150(3)
C35_4 C 0.1266(4) 0.9009(7) 0.1877(4)
H23_4 H 0.1207 0.8402 0.1917
C36_4 C 0.1037(4) 0.9474(8) 0.1550(4)
H24_4 H 0.0820 0.9177 0.1364
N14_2 N 0.6106(3) 0.4667(6) 0.6478(3)
N6_3 N 0.9118(3) 0.4779(6) 0.9563(4)
C14_3 C 0.9344(5) 0.4781(9) 0.9250(5)
H9_3 H 0.9277 0.4360 0.9024
C15_5 C 0.9675(5) 0.5350(11) 0.9221(5)
H10_5 H 0.9836 0.5310 0.8987
C16_5 C 0.9769(4) 0.5989(7) 0.9544(4)
C17_5 C 0.9537(4) 0.5971(7) 0.9889(4)
C18_5 C 0.9215(4) 0.5358(8) 0.9895(4)
Zn3_3 Zn 0.85813(4) 0.40067(8) 0.94983(5)
I5_3 I 0.87688(3) 0.25295(5) 0.91878(3)
N7_3 N 0.8202(3) 0.4690(6) 0.9023(3)
C19_5 C 0.8138(4) 0.5563(7) 0.9064(4)
H13_5 H 0.8287 0.5866 0.9306
C20_5 C 0.7866(4) 0.6030(7) 0.8769(3)
H14_5 H 0.7833 0.6649 0.8803
C21_5 C 0.7638(3) 0.5593(6) 0.8419(3)
C22_3 C 0.7696(4) 0.4689(8) 0.8384(5)
H15_3 H 0.7535 0.4364 0.8157
C23_3 C 0.7988(4) 0.4269(7) 0.8679(4)
H16_3 H 0.8042 0.3659 0.8640
C24_5 C 0.7327(3) 0.6078(6) 0.8098(3)
N8_5 N 0.7286(3) 0.6946(5) 0.8153(3)
C25_5 C 0.6999(3) 0.7322(6) 0.7866(3)
N9_5 N 0.6750(3) 0.6904(6) 0.7551(3)
C26_5 C 0.6827(4) 0.6054(7) 0.7522(3)
N10_5 N 0.7120(3) 0.5603(5) 0.7778(3)
C27_5 C 0.6708(6) 0.9675(9) 0.7570(4)
H17_5 H 0.6522 0.9978 0.7354
C28_5 C 0.6708(5) 0.8764(8) 0.7560(5)
H18_5 H 0.6528 0.8454 0.7342
C29_5 C 0.6972(4) 0.8313(7) 0.7871(4)
C30_5 C 0.7228(4) 0.8799(7) 0.8183(4)
H19_5 H 0.7418 0.8513 0.8401
C31_5 C 0.7200(4) 0.9706(7) 0.8165(4)
C32_3 C 0.6416(4) 0.4268(7) 0.6735(4)
H21_3 H 0.6469 0.3660 0.6688
C33_3 C 0.6665(4) 0.4697(7) 0.7068(4)
H22_3 H 0.6891 0.4395 0.7238
C34_5 C 0.6583(3) 0.5568(6) 0.7150(3)
C35_5 C 0.6266(4) 0.5991(7) 0.6877(4)
H23_5 H 0.6207 0.6598 0.6917
C36_5 C 0.6037(4) 0.5526(8) 0.6550(4)
H24_5 H 0.5820 0.5823 0.6364
N5_4 N 0.0551(3) 0.9837(5) 0.5568(3)
C13_4 C 0.0814(3) 0.9958(7) 0.5270(3)
H8_4 H 0.1033 0.9538 0.5252
Zn2_3 Zn 0.06996(4) 0.89095(8) 0.60458(4)
I3_4 I 0.11235(3) 0.76836(5) 0.57637(3)
I4_4 I 0.00498(3) 0.86681(7) 0.64285(3)
N14_3 N 0.1106(3) 0.9667(6) 0.6478(3)
N6_4 N 0.4118(3) 0.9779(6) 0.9563(4)
C14_4 C 0.4344(5) 0.9781(9) 0.9250(5)
H9_4 H 0.4277 0.9360 0.9024
Zn3_4 Zn 0.35813(4) 0.90067(8) 0.94983(5)
I5_4 I 0.37688(3) 0.75295(5) 0.91878(3)
N7_4 N 0.3202(3) 0.9690(6) 0.9023(3)
C22_4 C 0.2696(4) 0.9689(8) 0.8384(5)
H15_4 H 0.2535 0.9364 0.8157
C23_4 C 0.2988(4) 0.9269(7) 0.8679(4)
H16_4 H 0.3042 0.8659 0.8640
C32_4 C 0.1416(4) 0.9268(7) 0.6735(4)
H21_4 H 0.1469 0.8660 0.6688
C33_4 C 0.1665(4) 0.9697(7) 0.7068(4)
H22_4 H 0.1891 0.9395 0.7238
H6_4 H 0.9948 0.1529 0.5321
N6_5 N 0.9118(3) 0.5221(6) 0.4563(4)
C14_5 C 0.9344(5) 0.5219(9) 0.4250(5)
H9_5 H 0.9277 0.5640 0.4024
C15_6 C 0.9675(5) 0.4650(11) 0.4221(5)
H10_6 H 0.9836 0.4690 0.3987
C16_6 C 0.9769(4) 0.4011(7) 0.4544(4)
C17_6 C 0.9537(4) 0.4029(7) 0.4889(4)
H11_4 H 0.9600 0.3622 0.5122
C18_6 C 0.9215(4) 0.4642(8) 0.4895(4)
H12_4 H 0.9061 0.4657 0.5135
Zn3_5 Zn 0.85813(4) 0.59933(8) 0.44983(5)
I5_5 I 0.87688(3) 0.74705(5) 0.41878(3)
I6_3 I 0.82261(3) 0.58340(6) 0.51762(3)
N7_5 N 0.8202(3) 0.5310(6) 0.4023(3)
C19_6 C 0.8138(4) 0.4437(7) 0.4064(4)
H13_6 H 0.8287 0.4134 0.4306
C20_6 C 0.7866(4) 0.3970(7) 0.3769(3)
H14_6 H 0.7833 0.3351 0.3803
C21_6 C 0.7638(3) 0.4407(6) 0.3419(3)
C22_5 C 0.7696(4) 0.5311(8) 0.3384(5)
H15_5 H 0.7535 0.5636 0.3157
C23_5 C 0.7988(4) 0.5731(7) 0.3679(4)
H16_5 H 0.8042 0.6341 0.3640
C24_6 C 0.7327(3) 0.3922(6) 0.3098(3)
N8_6 N 0.7286(3) 0.3054(5) 0.3153(3)
C25_6 C 0.6999(3) 0.2678(6) 0.2866(3)
N9_6 N 0.6750(3) 0.3096(6) 0.2551(3)
C26_6 C 0.6827(4) 0.3946(7) 0.2522(3)
N10_6 N 0.7120(3) 0.4397(5) 0.2778(3)
C27_6 C 0.6708(6) 0.0325(9) 0.2570(4)
H17_6 H 0.6522 0.0022 0.2354
C28_6 C 0.6708(5) 0.1236(8) 0.2560(5)
H18_6 H 0.6528 0.1546 0.2342
C29_6 C 0.6972(4) 0.1687(7) 0.2871(4)
C30_6 C 0.7228(4) 0.1201(7) 0.3183(4)
H19_6 H 0.7418 0.1487 0.3401
C31_6 C 0.7200(4) 0.0294(7) 0.3165(4)
N12_2 N 0.6106(3) 0.5333(6) 0.1478(3)
C32_5 C 0.6416(4) 0.5732(7) 0.1735(4)
H21_5 H 0.6469 0.6340 0.1688
C33_5 C 0.6665(4) 0.5303(7) 0.2068(4)
H22_5 H 0.6891 0.5605 0.2238
C34_6 C 0.6583(3) 0.4432(6) 0.2150(3)
C35_6 C 0.6266(4) 0.4009(7) 0.1877(4)
H23_6 H 0.6207 0.3402 0.1917
C36_6 C 0.6037(4) 0.4474(8) 0.1550(4)
H24_6 H 0.5820 0.4177 0.1364
Zn5_2 Zn 0.56996(4) 0.60905(8) 0.10458(4)
N5_5 N 0.5551(3) 0.5163(5) 0.0568(3)
C9_6 C 0.5238(3) 0.4587(7) 0.0577(3)
H5_6 H 0.5047 0.4679 0.0780
C10_6 C 0.5178(3) 0.3863(6) 0.0306(3)
H6_5 H 0.4948 0.3471 0.0321
C11_6 C 0.5456(3) 0.3717(6) 0.0014(3)
C13_5 C 0.5814(3) 0.5042(7) 0.0270(3)
H8_5 H 0.6033 0.5462 0.0252
I3_5 I 0.61235(3) 0.73164(5) 0.07637(3)
I4_5 I 0.50498(3) 0.63319(7) 0.14285(3)
H11_5 H 0.4600 0.1378 0.0122
H12_5 H 0.4061 0.0343 0.0135
N6_6 N 0.5882(3) 0.0221(6) 0.0437(4)
C14_6 C 0.5656(5) 0.0219(9) 0.0750(5)
H9_6 H 0.5723 0.0640 0.0976
Zn3_6 Zn 0.64187(4) 0.09933(8) 0.05017(5)
I5_6 I 0.62312(3) 0.24705(5) 0.08122(3)
N7_6 N 0.6798(3) 0.0310(6) 0.0977(3)
C22_6 C 0.7304(4) 0.0311(8) 0.1616(5)
H15_6 H 0.7465 0.0636 0.1843
C23_6 C 0.7012(4) 0.0731(7) 0.1321(4)
H16_6 H 0.6958 0.1341 0.1360
N12_3 N 0.8894(3) 0.0333(6) 0.3522(3)
C32_6 C 0.8584(4) 0.0732(7) 0.3265(4)
H21_6 H 0.8531 0.1340 0.3312
C33_6 C 0.8335(4) 0.0303(7) 0.2932(4)
H22_6 H 0.8109 0.0605 0.2762
Zn5_3 Zn 0.93004(4) 0.10905(8) 0.39542(4)
N5_6 N 0.9449(3) 0.0163(5) 0.4432(3)
C13_6 C 0.9186(3) 0.0042(7) 0.4730(3)
H8_6 H 0.8967 0.0462 0.4748
I3_6 I 0.88765(3) 0.23164(5) 0.42363(3)
I4_6 I 0.99502(3) 0.13319(7) 0.35715(3)
I6_4 I 0.67739(3) 0.08340(6) 0.98238(3)
N5_7 N 0.4449(3) 0.4837(5) 0.9432(3)
C9_7 C 0.4762(3) 0.5413(7) 0.9423(3)
H5_7 H 0.4953 0.5321 0.9220
C10_7 C 0.4822(3) 0.6137(6) 0.9694(3)
H6_6 H 0.5052 0.6529 0.9679
C11_7 C 0.4544(3) 0.6283(6) 0.9986(3)
C13_7 C 0.4186(3) 0.4958(7) 0.9730(3)
H8_7 H 0.3967 0.4538 0.9748
Zn2_4 Zn 0.43004(4) 0.39095(8) 0.89542(4)
I3_7 I 0.38765(3) 0.26836(5) 0.92363(3)
I4_7 I 0.49502(3) 0.36681(7) 0.85715(3)
H11_6 H 0.5400 0.8622 0.9878
H12_6 H 0.5939 0.9657 0.9865
N14_4 N 0.3894(3) 0.4667(6) 0.8522(3)
H6_7 H 0.0052 0.8471 0.4679
N6_7 N 0.0882(3) 0.4779(6) 0.5437(4)
C14_7 C 0.0656(5) 0.4781(9) 0.5750(5)
H9_7 H 0.0723 0.4360 0.5976
C15_7 C 0.0325(5) 0.5350(11) 0.5779(5)
H10_7 H 0.0164 0.5310 0.6013
C16_7 C 0.0231(4) 0.5989(7) 0.5456(4)
C17_7 C 0.0463(4) 0.5971(7) 0.5111(4)
H11_7 H 0.0400 0.6378 0.4878
C18_7 C 0.0785(4) 0.5358(8) 0.5105(4)
H12_7 H 0.0939 0.5343 0.4865
Zn3_7 Zn 0.14187(4) 0.40067(8) 0.55017(5)
I5_7 I 0.12312(3) 0.25295(5) 0.58122(3)
I6_5 I 0.17739(3) 0.41660(6) 0.48238(3)
N7_7 N 0.1798(3) 0.4690(6) 0.5977(3)
C19_7 C 0.1862(4) 0.5563(7) 0.5936(4)
H13_7 H 0.1713 0.5866 0.5694
C20_7 C 0.2134(4) 0.6030(7) 0.6231(3)
H14_7 H 0.2167 0.6649 0.6197
C21_7 C 0.2362(3) 0.5593(6) 0.6581(3)
C22_7 C 0.2304(4) 0.4689(8) 0.6616(5)
H15_7 H 0.2465 0.4364 0.6843
C23_7 C 0.2012(4) 0.4269(7) 0.6321(4)
H16_7 H 0.1958 0.3659 0.6360
C24_7 C 0.2673(3) 0.6078(6) 0.6902(3)
N8_7 N 0.2714(3) 0.6946(5) 0.6847(3)
C25_7 C 0.3001(3) 0.7322(6) 0.7134(3)
N9_7 N 0.3250(3) 0.6904(6) 0.7449(3)
C26_7 C 0.3173(4) 0.6054(7) 0.7478(3)
N10_7 N 0.2880(3) 0.5603(5) 0.7222(3)
C27_7 C 0.3292(6) 0.9675(9) 0.7430(4)
H17_7 H 0.3478 0.9978 0.7646
C28_7 C 0.3292(5) 0.8764(8) 0.7440(5)
H18_7 H 0.3472 0.8454 0.7658
C29_7 C 0.3028(4) 0.8313(7) 0.7129(4)
C30_7 C 0.2772(4) 0.8799(7) 0.6817(4)
H19_7 H 0.2582 0.8513 0.6599
C31_7 C 0.2800(4) 0.9706(7) 0.6835(4)
C32_7 C 0.3584(4) 0.4268(7) 0.8265(4)
H21_7 H 0.3531 0.3660 0.8312
C33_7 C 0.3335(4) 0.4697(7) 0.7932(4)
H22_7 H 0.3109 0.4395 0.7762
C34_7 C 0.3417(3) 0.5568(6) 0.7850(3)
C35_7 C 0.3734(4) 0.5991(7) 0.8123(4)
H23_7 H 0.3793 0.6598 0.8083
C36_7 C 0.3963(4) 0.5526(8) 0.8450(4)
H24_7 H 0.4180 0.5823 0.8636
N6_8 N 0.4118(3) 0.0221(6) 0.4563(4)
C14_8 C 0.4344(5) 0.0219(9) 0.4250(5)
H9_8 H 0.4277 0.0640 0.4024
Zn3_8 Zn 0.35813(4) 0.09933(8) 0.44983(5)
I5_8 I 0.37688(3) 0.24705(5) 0.41878(3)
I6_6 I 0.32261(3) 0.08340(6) 0.51762(3)
N7_8 N 0.3202(3) 0.0310(6) 0.4023(3)
C22_8 C 0.2696(4) 0.0311(8) 0.3384(5)
H15_8 H 0.2535 0.0636 0.3157
C23_8 C 0.2988(4) 0.0731(7) 0.3679(4)
H16_8 H 0.3042 0.1341 0.3640
N12_4 N 0.1106(3) 0.0333(6) 0.1478(3)
C32_8 C 0.1416(4) 0.0732(7) 0.1735(4)
H21_8 H 0.1469 0.1340 0.1688
C33_8 C 0.1665(4) 0.0303(7) 0.2068(4)
H22_8 H 0.1891 0.0605 0.2238
Zn5_4 Zn 0.06996(4) 0.10905(8) 0.10458(4)
N5_8 N 0.0551(3) 0.0163(5) 0.0568(3)
C13_8 C 0.0814(3) 0.0042(7) 0.0270(3)
H8_8 H 0.1033 0.0462 0.0252
I3_8 I 0.11235(3) 0.23164(5) 0.07637(3)
I4_8 I 0.00498(3) 0.13319(7) 0.14285(3)
C9_8 C 0.0238(3) 0.9587(7) 0.0577(3)
H5_8 H 0.0047 0.9679 0.0780
C10_8 C 0.0178(3) 0.8863(6) 0.0306(3)
C11_8 C 0.0456(3) 0.8717(6) 0.0014(3)
Zn1_4 Zn 0.19165(7) 0.65030(9) 0.78554(5)
I1_7 I 0.25830(5) 0.71406(8) 0.81866(5)
I2_7 I 0.15467(6) 0.69556(8) 0.71198(4)
N1_7 N 0.1506(4) 0.6733(7) 0.8297(4)
C1_7 C 0.1626(5) 0.7186(10) 0.8663(5)
H1_7 H 0.1905 0.7421 0.8715
C2_7 C 0.1359(5) 0.7323(10) 0.8967(4)
H2_7 H 0.1455 0.7632 0.9228
C3_7 C 0.0949(4) 0.7006(8) 0.8889(4)
C4_7 C 0.0823(6) 0.6550(10) 0.8510(5)
H3_7 H 0.0545 0.6314 0.8449
C5_7 C 0.1113(6) 0.6444(10) 0.8218(4)
H4_7 H 0.1024 0.6151 0.7952
C6_7 C 0.0661(4) 0.7118(7) 0.9219(4)
N2_7 N 0.0720(3) 0.7817(6) 0.9474(3)
C7_7 C 0.0433(3) 0.7911(7) 0.9745(3)
N3_7 N 0.0123(3) 0.7334(6) 0.9788(3)
C8_7 C 0.0104(3) 0.6654(7) 0.9518(3)
N4_7 N 0.0352(3) 0.6515(6) 0.9222(3)
C12_7 C 0.0778(3) 0.9332(7) 0.9988(4)
H7_7 H 0.0968 0.9264 0.9781
N13_4 N 0.1941(4) 0.5134(6) 0.7850(3)
N11_4 N 0.6941(4) 0.0134(6) 0.7850(3)
H20_7 H 0.7367 0.0045 0.8382
Zn4_4 Zn 0.69165(7) 0.15030(9) 0.78554(5)
I1_8 I 0.75830(5) 0.21406(8) 0.81866(5)
I2_8 I 0.65467(6) 0.19556(8) 0.71198(4)
N1_8 N 0.6506(4) 0.1733(7) 0.8297(4)
C1_8 C 0.6626(5) 0.2186(10) 0.8663(5)
H1_8 H 0.6905 0.2421 0.8715
C2_8 C 0.6359(5) 0.2323(10) 0.8967(4)
H2_8 H 0.6455 0.2632 0.9228
C3_8 C 0.5949(4) 0.2006(8) 0.8889(4)
C4_8 C 0.5823(6) 0.1550(10) 0.8510(5)
H3_8 H 0.5545 0.1314 0.8449
C5_8 C 0.6113(6) 0.1444(10) 0.8218(4)
H4_8 H 0.6024 0.1151 0.7952
C6_8 C 0.5661(4) 0.2118(7) 0.9219(4)
N2_8 N 0.5720(3) 0.2817(6) 0.9474(3)
C7_8 C 0.5433(3) 0.2911(7) 0.9745(3)
N3_8 N 0.5123(3) 0.2334(6) 0.9788(3)
C8_8 C 0.5104(3) 0.1654(7) 0.9518(3)
N4_8 N 0.5352(3) 0.1515(6) 0.9222(3)
C12_8 C 0.5778(3) 0.4332(7) 0.9988(4)
H7_8 H 0.5968 0.4264 0.9781
C15_8 C 0.4675(5) 0.0350(11) 0.9221(5)
H10_8 H 0.4836 0.0310 0.8987
C16_8 C 0.4769(4) 0.0989(7) 0.9544(4)
C17_8 C 0.4537(4) 0.0971(7) 0.9889(4)
C18_8 C 0.4215(4) 0.0358(8) 0.9895(4)
C19_8 C 0.3138(4) 0.0563(7) 0.9064(4)
H13_8 H 0.3287 0.0866 0.9306
C20_8 C 0.2866(4) 0.1030(7) 0.8769(3)
H14_8 H 0.2833 0.1649 0.8803
C21_8 C 0.2638(3) 0.0593(6) 0.8419(3)
C24_8 C 0.2327(3) 0.1078(6) 0.8098(3)
N8_8 N 0.2286(3) 0.1946(5) 0.8153(3)
C25_8 C 0.1999(3) 0.2322(6) 0.7866(3)
N9_8 N 0.1750(3) 0.1904(6) 0.7551(3)
C26_8 C 0.1827(4) 0.1054(7) 0.7522(3)
N10_8 N 0.2120(3) 0.0603(5) 0.7778(3)
C27_8 C 0.1708(6) 0.4675(9) 0.7570(4)
H17_8 H 0.1522 0.4978 0.7354
C28_8 C 0.1708(5) 0.3764(8) 0.7560(5)
H18_8 H 0.1528 0.3454 0.7342
C29_8 C 0.1972(4) 0.3313(7) 0.7871(4)
C30_8 C 0.2228(4) 0.3799(7) 0.8183(4)
H19_8 H 0.2418 0.3513 0.8401
C31_8 C 0.2200(4) 0.4706(7) 0.8165(4)
H20_8 H 0.2367 0.5045 0.8382
C34_8 C 0.1583(3) 0.0568(6) 0.7150(3)
C35_8 C 0.1266(4) 0.0991(7) 0.6877(4)
H23_8 H 0.1207 0.1598 0.6917
C36_8 C 0.1037(4) 0.0526(8) 0.6550(4)
H24_8 H 0.0820 0.0823 0.6364
H6_8 H 0.9948 0.8471 0.0321
H11_8 H 0.9600 0.6378 0.0122
H12_8 H 0.9061 0.5343 0.0135
I6_7 I 0.82261(3) 0.41660(6) 0.01762(3)
I6_8 I 0.32261(3) 0.91660(6) 0.01762(3)
loop_
_geom_bond_atom_site_label_1
_geom_bond_atom_site_label_2
_geom_bond_site_symmetry_1
_geom_bond_site_symmetry_2
N6 C14 1_555 1_555
C14 H9 1_555 1_555
C15 C14 1_555 1_555
H10 C15 1_555 1_555
C17 C16 1_555 1_555
C18 N6 1_555 1_555
Zn3 N6 1_555 1_555
I5 Zn3 1_555 1_555
N7 Zn3 1_555 1_555
C19 N7 1_555 1_555
H13 C19 1_555 1_555
C20 C19 1_555 1_555
H14 C20 1_555 1_555
C21 C20 1_555 1_555
C22 C21 1_555 1_555
H15 C22 1_555 1_555
C23 N7 1_555 1_555
H16 C23 1_555 1_555
C24 C21 1_555 1_555
N8 C24 1_555 1_555
C25 N8 1_555 1_555
N9 C25 1_555 1_555
C26 N9 1_555 1_555
N10 C24 1_555 1_555
C27 H17 1_555 1_555
C28 C27 1_555 1_555
H18 C28 1_555 1_555
C29 C25 1_555 1_555
C30 C29 1_555 1_555
H19 C30 1_555 1_555
N12 C32 1_555 1_555
C32 H21 1_555 1_555
C33 C32 1_555 1_555
H22 C33 1_555 1_555
C34 C26 1_555 1_555
C35 C34 1_555 1_555
H23 C35 1_555 1_555
C36 N12 1_555 1_555
H24 C36 1_555 1_555
Zn5 N12 1_555 1_555
C15 C16 1_555 1_555
C17 C18 1_555 1_555
C22 C23 1_555 1_555
C26 N10 1_555 1_555
C28 C29 1_555 1_555
C30 C31 1_555 1_555
C33 C34 1_555 1_555
C35 C36 1_555 1_555
Zn4 N11 1_555 1_555
Zn1 I1 1_555 1_555
I2 Zn1 1_555 1_555
N1 Zn1 1_555 1_555
C1 N1 1_555 1_555
H1 C1 1_555 1_555
C2 C1 1_555 1_555
H2 C2 1_555 1_555
C3 C2 1_555 1_555
C4 C3 1_555 1_555
H3 C4 1_555 1_555
C5 N1 1_555 1_555
H4 C5 1_555 1_555
C6 C3 1_555 1_555
N2 C6 1_555 1_555
C7 N2 1_555 1_555
N3 C7 1_555 1_555
C8 N3 1_555 1_555
N4 C6 1_555 1_555
C9 H5 1_555 1_555
C10 C9 1_555 1_555
C11 C7 1_555 1_555
C12 C11 1_555 1_555
H7 C12 1_555 1_555
N13 Zn1 1_555 1_555
C4 C5 1_555 1_555
C8 N4 1_555 1_555
C10 C11 1_555 1_555
Zn4 I1_2 1_555 1_555
I2_2 Zn4 1_555 1_555
N1_2 Zn4 1_555 1_555
C1_2 N1_2 1_555 1_555
H1_2 C1_2 1_555 1_555
C2_2 C1_2 1_555 1_555
H2_2 C2_2 1_555 1_555
C3_2 C2_2 1_555 1_555
C4_2 C3_2 1_555 1_555
H3_2 C4_2 1_555 1_555
C5_2 N1_2 1_555 1_555
H4_2 C5_2 1_555 1_555
C6_2 C3_2 1_555 1_555
N2_2 C6_2 1_555 1_555
C7_2 N2_2 1_555 1_555
N3_2 C7_2 1_555 1_555
C8_2 N3_2 1_555 1_555
N4_2 C6_2 1_555 1_555
N5 C9_2 1_555 1_555
C9_2 H5_2 1_555 1_555
C10_2 C9_2 1_555 1_555
H6 C10_2 1_555 1_555
C11_2 C7_2 1_555 1_555
C12_2 C11_2 1_555 1_555
H7_2 C12_2 1_555 1_555
C13 N5 1_555 1_555
H8 C13 1_555 1_555
Zn5 N5 1_555 1_555
I3 Zn5 1_555 1_555
I4 Zn5 1_555 1_555
H10_2 C15_2 1_555 1_555
C16_2 C8_2 1_555 1_555
C17_2 C16_2 1_555 1_555
H11 C17_2 1_555 1_555
H12 C18_2 1_555 1_555
H13_2 C19_2 1_555 1_555
C20_2 C19_2 1_555 1_555
H14_2 C20_2 1_555 1_555
C21_2 C20_2 1_555 1_555
C24_2 C21_2 1_555 1_555
N8_2 C24_2 1_555 1_555
C25_2 N8_2 1_555 1_555
N9_2 C25_2 1_555 1_555
C26_2 N9_2 1_555 1_555
N10_2 C24_2 1_555 1_555
N13 C27_2 1_555 1_555
C27_2 H17_2 1_555 1_555
C28_2 C27_2 1_555 1_555
H18_2 C28_2 1_555 1_555
C29_2 C25_2 1_555 1_555
C30_2 C29_2 1_555 1_555
H19_2 C30_2 1_555 1_555
C31_2 N13 1_555 1_555
H20_2 C31_2 1_555 1_555
C34_2 C26_2 1_555 1_555
C35_2 C34_2 1_555 1_555
H23_2 C35_2 1_555 1_555
H24_2 C36_2 1_555 1_555
C4_2 C5_2 1_555 1_555
C8_2 N4_2 1_555 1_555
C10_2 C11_2 1_555 1_555
C12_2 C13 1_555 1_555
C15_2 C16_2 1_555 1_555
C17_2 C18_2 1_555 1_555
C26_2 N10_2 1_555 1_555
C28_2 C29_2 1_555 1_555
C30_2 C31_2 1_555 1_555
C35_2 C36_2 1_555 1_555
Zn4_2 N11_2 1_555 1_555
Zn1_2 I1_3 1_555 1_555
I2_3 Zn1_2 1_555 1_555
N1_3 Zn1_2 1_555 1_555
C1_3 N1_3 1_555 1_555
H1_3 C1_3 1_555 1_555
C2_3 C1_3 1_555 1_555
H2_3 C2_3 1_555 1_555
C3_3 C2_3 1_555 1_555
C4_3 C3_3 1_555 1_555
H3_3 C4_3 1_555 1_555
C5_3 N1_3 1_555 1_555
H4_3 C5_3 1_555 1_555
C6_3 C3_3 1_555 1_555
N2_3 C6_3 1_555 1_555
C7_3 N2_3 1_555 1_555
N3_3 C7_3 1_555 1_555
C8_3 N3_3 1_555 1_555
N4_3 C6_3 1_555 1_555
H7_3 C12_3 1_555 1_555
N13_2 Zn1_2 1_555 1_555
C4_3 C5_3 1_555 1_555
C8_3 N4_3 1_555 1_555
Zn4_2 I1_4 1_555 1_555
I2_4 Zn4_2 1_555 1_555
N1_4 Zn4_2 1_555 1_555
C1_4 N1_4 1_555 1_555
H1_4 C1_4 1_555 1_555
C2_4 C1_4 1_555 1_555
H2_4 C2_4 1_555 1_555
C3_4 C2_4 1_555 1_555
C4_4 C3_4 1_555 1_555
H3_4 C4_4 1_555 1_555
C5_4 N1_4 1_555 1_555
H4_4 C5_4 1_555 1_555
C6_4 C3_4 1_555 1_555
N2_4 C6_4 1_555 1_555
C7_4 N2_4 1_555 1_555
N3_4 C7_4 1_555 1_555
C8_4 N3_4 1_555 1_555
N4_4 C6_4 1_555 1_555
H7_4 C12_4 1_555 1_555
H10_3 C15_3 1_555 1_555
C16_3 C8_4 1_555 1_555
C17_3 C16_3 1_555 1_555
H13_3 C19_3 1_555 1_555
C20_3 C19_3 1_555 1_555
H14_3 C20_3 1_555 1_555
C21_3 C20_3 1_555 1_555
C24_3 C21_3 1_555 1_555
N8_3 C24_3 1_555 1_555
C25_3 N8_3 1_555 1_555
N9_3 C25_3 1_555 1_555
C26_3 N9_3 1_555 1_555
N10_3 C24_3 1_555 1_555
N13_2 C27_3 1_555 1_555
C27_3 H17_3 1_555 1_555
C28_3 C27_3 1_555 1_555
H18_3 C28_3 1_555 1_555
C29_3 C25_3 1_555 1_555
C30_3 C29_3 1_555 1_555
H19_3 C30_3 1_555 1_555
C31_3 N13_2 1_555 1_555
H20_4 C31_3 1_555 1_555
C34_3 C26_3 1_555 1_555
C35_3 C34_3 1_555 1_555
H23_3 C35_3 1_555 1_555
H24_3 C36_3 1_555 1_555
C4_4 C5_4 1_555 1_555
C8_4 N4_4 1_555 1_555
C15_3 C16_3 1_555 1_555
C17_3 C18_3 1_555 1_555
C26_3 N10_3 1_555 1_555
C28_3 C29_3 1_555 1_555
C30_3 C31_3 1_555 1_555
C35_3 C36_3 1_555 1_555
C9_3 H5_3 1_555 1_555
C10_3 C9_3 1_555 1_555
C10_3 C11_3 1_555 1_555
C13_2 N5_2 1_555 1_555
H8_2 C13_2 1_555 1_555
Zn2 N5_2 1_555 1_555
I3_2 Zn2 1_555 1_555
I4_2 Zn2 1_555 1_555
N14 Zn2 1_555 1_555
N6_2 C14_2 1_555 1_555
C14_2 H9_2 1_555 1_555
Zn3_2 N6_2 1_555 1_555
I5_2 Zn3_2 1_555 1_555
I6_2 Zn3_2 1_555 1_555
N7_2 Zn3_2 1_555 1_555
H15_2 C22_2 1_555 1_555
C23_2 N7_2 1_555 1_555
H16_2 C23_2 1_555 1_555
N14 C32_2 1_555 1_555
C32_2 H21_2 1_555 1_555
C33_2 C32_2 1_555 1_555
H22_2 C33_2 1_555 1_555
C22_2 C23_2 1_555 1_555
Zn1_3 I1_5 1_555 1_555
I2_5 Zn1_3 1_555 1_555
N1_5 Zn1_3 1_555 1_555
C1_5 N1_5 1_555 1_555
H1_5 C1_5 1_555 1_555
C2_5 C1_5 1_555 1_555
H2_5 C2_5 1_555 1_555
C3_5 C2_5 1_555 1_555
C4_5 C3_5 1_555 1_555
H3_5 C4_5 1_555 1_555
C5_5 N1_5 1_555 1_555
H4_5 C5_5 1_555 1_555
C6_5 C3_5 1_555 1_555
N2_5 C6_5 1_555 1_555
C7_5 N2_5 1_555 1_555
N3_5 C7_5 1_555 1_555
C8_5 N3_5 1_555 1_555
N4_5 C6_5 1_555 1_555
C9_4 H5_4 1_555 1_555
C10_4 C9_4 1_555 1_555
C11_4 C7_5 1_555 1_555
C12_5 C11_4 1_555 1_555
H7_5 C12_5 1_555 1_555
N13_3 Zn1_3 1_555 1_555
C4_5 C5_5 1_555 1_555
C8_5 N4_5 1_555 1_555
C10_4 C11_4 1_555 1_555
Zn4_3 N11_3 1_555 1_555
Zn4_3 I1_6 1_555 1_555
I2_6 Zn4_3 1_555 1_555
N1_6 Zn4_3 1_555 1_555
C1_6 N1_6 1_555 1_555
H1_6 C1_6 1_555 1_555
C2_6 C1_6 1_555 1_555
H2_6 C2_6 1_555 1_555
C3_6 C2_6 1_555 1_555
C4_6 C3_6 1_555 1_555
H3_6 C4_6 1_555 1_555
C5_6 N1_6 1_555 1_555
H4_6 C5_6 1_555 1_555
C6_6 C3_6 1_555 1_555
N2_6 C6_6 1_555 1_555
C7_6 N2_6 1_555 1_555
N3_6 C7_6 1_555 1_555
C8_6 N3_6 1_555 1_555
N4_6 C6_6 1_555 1_555
N5_3 C9_5 1_555 1_555
C9_5 H5_5 1_555 1_555
C10_5 C9_5 1_555 1_555
H6_3 C10_5 1_555 1_555
C11_5 C7_6 1_555 1_555
C12_6 C11_5 1_555 1_555
H7_6 C12_6 1_555 1_555
C13_3 N5_3 1_555 1_555
H8_3 C13_3 1_555 1_555
Zn2_2 N5_3 1_555 1_555
I3_3 Zn2_2 1_555 1_555
I4_3 Zn2_2 1_555 1_555
H10_4 C15_4 1_555 1_555
C16_4 C8_6 1_555 1_555
C17_4 C16_4 1_555 1_555
H11_3 C17_4 1_555 1_555
H12_3 C18_4 1_555 1_555
H13_4 C19_4 1_555 1_555
C20_4 C19_4 1_555 1_555
H14_4 C20_4 1_555 1_555
C21_4 C20_4 1_555 1_555
C24_4 C21_4 1_555 1_555
N8_4 C24_4 1_555 1_555
C25_4 N8_4 1_555 1_555
N9_4 C25_4 1_555 1_555
C26_4 N9_4 1_555 1_555
N10_4 C24_4 1_555 1_555
N13_3 C27_4 1_555 1_555
C27_4 H17_4 1_555 1_555
C28_4 C27_4 1_555 1_555
H18_4 C28_4 1_555 1_555
C29_4 C25_4 1_555 1_555
C30_4 C29_4 1_555 1_555
H19_4 C30_4 1_555 1_555
C31_4 N13_3 1_555 1_555
H20_6 C31_4 1_555 1_555
C34_4 C26_4 1_555 1_555
C35_4 C34_4 1_555 1_555
H23_4 C35_4 1_555 1_555
H24_4 C36_4 1_555 1_555
N14_2 Zn2_2 1_555 1_555
C4_6 C5_6 1_555 1_555
C8_6 N4_6 1_555 1_555
C10_5 C11_5 1_555 1_555
C12_6 C13_3 1_555 1_555
C15_4 C16_4 1_555 1_555
C17_4 C18_4 1_555 1_555
C26_4 N10_4 1_555 1_555
C28_4 C29_4 1_555 1_555
C30_4 C31_4 1_555 1_555
C35_4 C36_4 1_555 1_555
N6_3 C14_3 1_555 1_555
C14_3 H9_3 1_555 1_555
C15_5 C14_3 1_555 1_555
H10_5 C15_5 1_555 1_555
C17_5 C16_5 1_555 1_555
C18_5 N6_3 1_555 1_555
Zn3_3 N6_3 1_555 1_555
I5_3 Zn3_3 1_555 1_555
N7_3 Zn3_3 1_555 1_555
C19_5 N7_3 1_555 1_555
H13_5 C19_5 1_555 1_555
C20_5 C19_5 1_555 1_555
H14_5 C20_5 1_555 1_555
C21_5 C20_5 1_555 1_555
C22_3 C21_5 1_555 1_555
H15_3 C22_3 1_555 1_555
C23_3 N7_3 1_555 1_555
H16_3 C23_3 1_555 1_555
C24_5 C21_5 1_555 1_555
N8_5 C24_5 1_555 1_555
C25_5 N8_5 1_555 1_555
N9_5 C25_5 1_555 1_555
C26_5 N9_5 1_555 1_555
N10_5 C24_5 1_555 1_555
C27_5 H17_5 1_555 1_555
C28_5 C27_5 1_555 1_555
H18_5 C28_5 1_555 1_555
C29_5 C25_5 1_555 1_555
C30_5 C29_5 1_555 1_555
H19_5 C30_5 1_555 1_555
N14_2 C32_3 1_555 1_555
C32_3 H21_3 1_555 1_555
C33_3 C32_3 1_555 1_555
H22_3 C33_3 1_555 1_555
C34_5 C26_5 1_555 1_555
C35_5 C34_5 1_555 1_555
H23_5 C35_5 1_555 1_555
C36_5 N14_2 1_555 1_555
H24_5 C36_5 1_555 1_555
C15_5 C16_5 1_555 1_555
C17_5 C18_5 1_555 1_555
C22_3 C23_3 1_555 1_555
C26_5 N10_5 1_555 1_555
C28_5 C29_5 1_555 1_555
C30_5 C31_5 1_555 1_555
C33_3 C34_5 1_555 1_555
C35_5 C36_5 1_555 1_555
C13_4 N5_4 1_555 1_555
H8_4 C13_4 1_555 1_555
Zn2_3 N5_4 1_555 1_555
I3_4 Zn2_3 1_555 1_555
I4_4 Zn2_3 1_555 1_555
N14_3 Zn2_3 1_555 1_555
N6_4 C14_4 1_555 1_555
C14_4 H9_4 1_555 1_555
Zn3_4 N6_4 1_555 1_555
I5_4 Zn3_4 1_555 1_555
N7_4 Zn3_4 1_555 1_555
H15_4 C22_4 1_555 1_555
C23_4 N7_4 1_555 1_555
H16_4 C23_4 1_555 1_555
N14_3 C32_4 1_555 1_555
C32_4 H21_4 1_555 1_555
C33_4 C32_4 1_555 1_555
H22_4 C33_4 1_555 1_555
C22_4 C23_4 1_555 1_555
N6_5 C14_5 1_555 1_555
C14_5 H9_5 1_555 1_555
C15_6 C14_5 1_555 1_555
H10_6 C15_6 1_555 1_555
C17_6 C16_6 1_555 1_555
H11_4 C17_6 1_555 1_555
C18_6 N6_5 1_555 1_555
H12_4 C18_6 1_555 1_555
Zn3_5 N6_5 1_555 1_555
I5_5 Zn3_5 1_555 1_555
I6_3 Zn3_5 1_555 1_555
N7_5 Zn3_5 1_555 1_555
C19_6 N7_5 1_555 1_555
H13_6 C19_6 1_555 1_555
C20_6 C19_6 1_555 1_555
H14_6 C20_6 1_555 1_555
C21_6 C20_6 1_555 1_555
C22_5 C21_6 1_555 1_555
H15_5 C22_5 1_555 1_555
C23_5 N7_5 1_555 1_555
H16_5 C23_5 1_555 1_555
C24_6 C21_6 1_555 1_555
N8_6 C24_6 1_555 1_555
C25_6 N8_6 1_555 1_555
N9_6 C25_6 1_555 1_555
C26_6 N9_6 1_555 1_555
N10_6 C24_6 1_555 1_555
C27_6 H17_6 1_555 1_555
C28_6 C27_6 1_555 1_555
H18_6 C28_6 1_555 1_555
C29_6 C25_6 1_555 1_555
C30_6 C29_6 1_555 1_555
H19_6 C30_6 1_555 1_555
N12_2 C32_5 1_555 1_555
C32_5 H21_5 1_555 1_555
C33_5 C32_5 1_555 1_555
H22_5 C33_5 1_555 1_555
C34_6 C26_6 1_555 1_555
C35_6 C34_6 1_555 1_555
H23_6 C35_6 1_555 1_555
C36_6 N12_2 1_555 1_555
H24_6 C36_6 1_555 1_555
Zn5_2 N12_2 1_555 1_555
C15_6 C16_6 1_555 1_555
C17_6 C18_6 1_555 1_555
C22_5 C23_5 1_555 1_555
C26_6 N10_6 1_555 1_555
C28_6 C29_6 1_555 1_555
C30_6 C31_6 1_555 1_555
C33_5 C34_6 1_555 1_555
C35_6 C36_6 1_555 1_555
N5_5 C9_6 1_555 1_555
C9_6 H5_6 1_555 1_555
C10_6 C9_6 1_555 1_555
H6_5 C10_6 1_555 1_555
C13_5 N5_5 1_555 1_555
H8_5 C13_5 1_555 1_555
Zn5_2 N5_5 1_555 1_555
I3_5 Zn5_2 1_555 1_555
I4_5 Zn5_2 1_555 1_555
C10_6 C11_6 1_555 1_555
N6_6 C14_6 1_555 1_555
C14_6 H9_6 1_555 1_555
Zn3_6 N6_6 1_555 1_555
I5_6 Zn3_6 1_555 1_555
N7_6 Zn3_6 1_555 1_555
H15_6 C22_6 1_555 1_555
C23_6 N7_6 1_555 1_555
H16_6 C23_6 1_555 1_555
N12_3 C32_6 1_555 1_555
C32_6 H21_6 1_555 1_555
C33_6 C32_6 1_555 1_555
H22_6 C33_6 1_555 1_555
Zn5_3 N12_3 1_555 1_555
C22_6 C23_6 1_555 1_555
C13_6 N5_6 1_555 1_555
H8_6 C13_6 1_555 1_555
Zn5_3 N5_6 1_555 1_555
I3_6 Zn5_3 1_555 1_555
I4_6 Zn5_3 1_555 1_555
N5_7 C9_7 1_555 1_555
C9_7 H5_7 1_555 1_555
C10_7 C9_7 1_555 1_555
H6_6 C10_7 1_555 1_555
C13_7 N5_7 1_555 1_555
H8_7 C13_7 1_555 1_555
Zn2_4 N5_7 1_555 1_555
I3_7 Zn2_4 1_555 1_555
I4_7 Zn2_4 1_555 1_555
N14_4 Zn2_4 1_555 1_555
C10_7 C11_7 1_555 1_555
N6_7 C14_7 1_555 1_555
C14_7 H9_7 1_555 1_555
C15_7 C14_7 1_555 1_555
H10_7 C15_7 1_555 1_555
C17_7 C16_7 1_555 1_555
H11_7 C17_7 1_555 1_555
C18_7 N6_7 1_555 1_555
H12_7 C18_7 1_555 1_555
Zn3_7 N6_7 1_555 1_555
I5_7 Zn3_7 1_555 1_555
I6_5 Zn3_7 1_555 1_555
N7_7 Zn3_7 1_555 1_555
C19_7 N7_7 1_555 1_555
H13_7 C19_7 1_555 1_555
C20_7 C19_7 1_555 1_555
H14_7 C20_7 1_555 1_555
C21_7 C20_7 1_555 1_555
C22_7 C21_7 1_555 1_555
H15_7 C22_7 1_555 1_555
C23_7 N7_7 1_555 1_555
H16_7 C23_7 1_555 1_555
C24_7 C21_7 1_555 1_555
N8_7 C24_7 1_555 1_555
C25_7 N8_7 1_555 1_555
N9_7 C25_7 1_555 1_555
C26_7 N9_7 1_555 1_555
N10_7 C24_7 1_555 1_555
C27_7 H17_7 1_555 1_555
C28_7 C27_7 1_555 1_555
H18_7 C28_7 1_555 1_555
C29_7 C25_7 1_555 1_555
C30_7 C29_7 1_555 1_555
H19_7 C30_7 1_555 1_555
N14_4 C32_7 1_555 1_555
C32_7 H21_7 1_555 1_555
C33_7 C32_7 1_555 1_555
H22_7 C33_7 1_555 1_555
C34_7 C26_7 1_555 1_555
C35_7 C34_7 1_555 1_555
H23_7 C35_7 1_555 1_555
C36_7 N14_4 1_555 1_555
H24_7 C36_7 1_555 1_555
C15_7 C16_7 1_555 1_555
C17_7 C18_7 1_555 1_555
C22_7 C23_7 1_555 1_555
C26_7 N10_7 1_555 1_555
C28_7 C29_7 1_555 1_555
C30_7 C31_7 1_555 1_555
C33_7 C34_7 1_555 1_555
C35_7 C36_7 1_555 1_555
N6_8 C14_8 1_555 1_555
C14_8 H9_8 1_555 1_555
Zn3_8 N6_8 1_555 1_555
I5_8 Zn3_8 1_555 1_555
I6_6 Zn3_8 1_555 1_555
N7_8 Zn3_8 1_555 1_555
H15_8 C22_8 1_555 1_555
C23_8 N7_8 1_555 1_555
H16_8 C23_8 1_555 1_555
N12_4 C32_8 1_555 1_555
C32_8 H21_8 1_555 1_555
C33_8 C32_8 1_555 1_555
H22_8 C33_8 1_555 1_555
Zn5_4 N12_4 1_555 1_555
C22_8 C23_8 1_555 1_555
C13_8 N5_8 1_555 1_555
H8_8 C13_8 1_555 1_555
Zn5_4 N5_8 1_555 1_555
I3_8 Zn5_4 1_555 1_555
I4_8 Zn5_4 1_555 1_555
C9_8 H5_8 1_555 1_555
C10_8 C9_8 1_555 1_555
C10_8 C11_8 1_555 1_555
Zn1_4 I1_7 1_555 1_555
I2_7 Zn1_4 1_555 1_555
N1_7 Zn1_4 1_555 1_555
C1_7 N1_7 1_555 1_555
H1_7 C1_7 1_555 1_555
C2_7 C1_7 1_555 1_555
H2_7 C2_7 1_555 1_555
C3_7 C2_7 1_555 1_555
C4_7 C3_7 1_555 1_555
H3_7 C4_7 1_555 1_555
C5_7 N1_7 1_555 1_555
H4_7 C5_7 1_555 1_555
C6_7 C3_7 1_555 1_555
N2_7 C6_7 1_555 1_555
C7_7 N2_7 1_555 1_555
N3_7 C7_7 1_555 1_555
C8_7 N3_7 1_555 1_555
N4_7 C6_7 1_555 1_555
H7_7 C12_7 1_555 1_555
N13_4 Zn1_4 1_555 1_555
C4_7 C5_7 1_555 1_555
C8_7 N4_7 1_555 1_555
Zn4_4 N11_4 1_555 1_555
Zn4_4 I1_8 1_555 1_555
I2_8 Zn4_4 1_555 1_555
N1_8 Zn4_4 1_555 1_555
C1_8 N1_8 1_555 1_555
H1_8 C1_8 1_555 1_555
C2_8 C1_8 1_555 1_555
H2_8 C2_8 1_555 1_555
C3_8 C2_8 1_555 1_555
C4_8 C3_8 1_555 1_555
H3_8 C4_8 1_555 1_555
C5_8 N1_8 1_555 1_555
H4_8 C5_8 1_555 1_555
C6_8 C3_8 1_555 1_555
N2_8 C6_8 1_555 1_555
C7_8 N2_8 1_555 1_555
N3_8 C7_8 1_555 1_555
C8_8 N3_8 1_555 1_555
N4_8 C6_8 1_555 1_555
H7_8 C12_8 1_555 1_555
H10_8 C15_8 1_555 1_555
C16_8 C8_8 1_555 1_555
C17_8 C16_8 1_555 1_555
H13_8 C19_8 1_555 1_555
C20_8 C19_8 1_555 1_555
H14_8 C20_8 1_555 1_555
C21_8 C20_8 1_555 1_555
C24_8 C21_8 1_555 1_555
N8_8 C24_8 1_555 1_555
C25_8 N8_8 1_555 1_555
N9_8 C25_8 1_555 1_555
C26_8 N9_8 1_555 1_555
N10_8 C24_8 1_555 1_555
N13_4 C27_8 1_555 1_555
C27_8 H17_8 1_555 1_555
C28_8 C27_8 1_555 1_555
H18_8 C28_8 1_555 1_555
C29_8 C25_8 1_555 1_555
C30_8 C29_8 1_555 1_555
H19_8 C30_8 1_555 1_555
C31_8 N13_4 1_555 1_555
H20_8 C31_8 1_555 1_555
C34_8 C26_8 1_555 1_555
C35_8 C34_8 1_555 1_555
H23_8 C35_8 1_555 1_555
H24_8 C36_8 1_555 1_555
C4_8 C5_8 1_555 1_555
C8_8 N4_8 1_555 1_555
C15_8 C16_8 1_555 1_555
C17_8 C18_8 1_555 1_555
C26_8 N10_8 1_555 1_555
C28_8 C29_8 1_555 1_555
C30_8 C31_8 1_555 1_555
C35_8 C36_8 1_555 1_555

#END
