
###############################################################################
#
# This file contains modified crystal structure data generated from the
# MOF subset of the Cambridge Structural Database (CSD) v543 
# hosted by the Cambridge Crystallographic Data Centre (CCDC).
#
# This work is licensed under the Creative Commons
# Attribution-NonCommercial-ShareAlike 4.0 International License.
# To view a copy of this license, visit
# http://creativecommons.org/licenses/by-nc-sa/4.0/
# or send a letter to
# Creative Commons, PO Box 1866, Mountain View, CA 94042, USA.
#
# CIF created using the CSD Python API on 29 September 2022
# The structure has been converted into the P1 space group
# The structure has a 3D framework
# The original CSD entry VUCCON is in the rhombohedral crystal system
# The framework has been calculated to contain at least 10.0% void space
# The void calculation uses a probe of radius 1.32A, grid spacing 0.4
#
###############################################################################

data_VUCCON
_chemical_formula_moiety         '(C54 H90 Co6 La20 N18 O68 6+)n'
_symmetry_cell_setting           triclinic
_symmetry_space_group_name_H-M   'P 1'
_symmetry_Int_Tables_number      1
_space_group_name_Hall           'P 1'
loop_
_symmetry_equiv_pos_site_id
_symmetry_equiv_pos_as_xyz
1 x,y,z
_cell_length_a                   10.21050(10)
_cell_length_b                   10.21050(10)
_cell_length_c                   31.2223(5)
_cell_angle_alpha                90
_cell_angle_beta                 90
_cell_angle_gamma                120
_cell_volume                     2818.96
loop_
_atom_site_label
_atom_site_type_symbol
_atom_site_fract_x
_atom_site_fract_y
_atom_site_fract_z
La1 La 0.0000 0.0000 0.0000
La2 La 0.0000 0.0000 0.131704(3)
O1 O 0.28224(14) 0.19255(15) 0.02156(4)
O2 O 0.16627(11) 0.01084(11) 0.06913(3)
O3 O 0.25472(11) 0.25039(12) 0.13081(3)
O4 O 0.49572(13) 0.35542(13) 0.14837(3)
C1 C 0.28158(14) 0.13215(15) 0.05631(4)
C2 C 0.41735(15) 0.20646(17) 0.08514(4)
H1 H 0.446(2) 0.135(2) 0.0958(7)
H2 H 0.500(2) 0.285(2) 0.0703(7)
C3 C 0.38616(13) 0.27459(13) 0.12442(4)
La9 La 0.6667 0.3333 0.201629(3)
O29 O 0.02209(13) 0.19303(18) 0.18496(3)
La1_2 La 0.0000 0.0000 1.0000
La3 La 0.0000 0.0000 0.868296(3)
O21 O 0.08969(21) 0.28224(14) 0.97844(4)
O22 O 0.15543(16) 0.16627(11) 0.93087(3)
O23 O 0.00433(16) 0.25472(11) 0.86919(3)
O24 O 0.14030(18) 0.49572(13) 0.85163(3)
C16 C 0.14943(21) 0.28158(14) 0.94369(4)
C17 C 0.21089(23) 0.41735(15) 0.91486(4)
H11 H 0.311(3) 0.446(2) 0.9042(7)
H12 H 0.215(3) 0.500(2) 0.9297(7)
C18 C 0.11157(18) 0.38616(13) 0.87558(4)
La6 La 0.3333 0.6667 0.798371(3)
O27 O 0.19303(18) 0.17095(13) 0.81504(3)
La1_3 La -0.0000 1.0000 0.0000
La2_2 La -0.0000 1.0000 0.131704(3)
O28 O 0.17095(13) 0.97791(13) 0.18496(3)
La1_4 La -0.0000 1.0000 1.0000
La3_2 La -0.0000 1.0000 0.868296(3)
O17 O 0.19255(15) 0.91031(21) 0.97844(4)
O18 O 0.01084(11) 0.84457(16) 0.93087(3)
O19 O 0.25039(12) 0.99567(16) 0.86919(3)
O20 O 0.35542(13) 0.85970(18) 0.85163(3)
C13 C 0.13215(15) 0.85057(21) 0.94369(4)
C14 C 0.20646(17) 0.78911(23) 0.91486(4)
H9 H 0.135(2) 0.689(3) 0.9042(7)
H10 H 0.285(2) 0.785(3) 0.9297(7)
C15 C 0.27459(13) 0.88843(18) 0.87558(4)
La1_5 La 1.0000 0.0000 0.0000
La2_3 La 1.0000 0.0000 0.131704(3)
O5 O 0.80745(15) 0.08969(21) 0.02156(4)
O6 O 0.98916(11) 0.15543(16) 0.06913(3)
O7 O 0.74961(12) 0.00433(16) 0.13081(3)
O8 O 0.64458(13) 0.14030(18) 0.14837(3)
C4 C 0.86785(15) 0.14943(21) 0.05631(4)
C5 C 0.79354(17) 0.21089(23) 0.08514(4)
H3 H 0.865(2) 0.311(3) 0.0958(7)
H4 H 0.715(2) 0.215(3) 0.0703(7)
C6 C 0.72541(13) 0.11157(18) 0.12442(4)
La1_6 La 1.0000 0.0000 1.0000
La3_3 La 1.0000 0.0000 0.868296(3)
O25 O 0.82905(13) 0.02209(13) 0.81504(3)
La1_7 La 1.0000 1.0000 0.0000
La2_4 La 1.0000 1.0000 0.131704(3)
O9 O 0.91031(21) 0.71776(14) 0.02156(4)
O10 O 0.84457(16) 0.83373(11) 0.06913(3)
O11 O 0.99567(16) 0.74528(11) 0.13081(3)
O12 O 0.85970(18) 0.50428(13) 0.14837(3)
C7 C 0.85057(21) 0.71842(14) 0.05631(4)
C8 C 0.78911(23) 0.58265(15) 0.08514(4)
H5 H 0.689(3) 0.554(2) 0.0958(7)
H6 H 0.785(3) 0.500(2) 0.0703(7)
C9 C 0.88843(18) 0.61384(13) 0.12442(4)
O30 O 0.80697(18) 0.82905(13) 0.18496(3)
La1_8 La 1.0000 1.0000 1.0000
La3_4 La 1.0000 1.0000 0.868296(3)
O13 O 0.71776(14) 0.80745(15) 0.97844(4)
O14 O 0.83373(11) 0.98916(11) 0.93087(3)
O15 O 0.74528(11) 0.74961(12) 0.86919(3)
O16 O 0.50428(13) 0.64458(13) 0.85163(3)
C10 C 0.71842(14) 0.86785(15) 0.94369(4)
C11 C 0.58265(15) 0.79354(17) 0.91486(4)
H7 H 0.554(2) 0.865(2) 0.9042(7)
H8 H 0.500(2) 0.715(2) 0.9297(7)
C12 C 0.61384(13) 0.72541(13) 0.87558(4)
O26 O 0.97791(13) 0.80697(18) 0.81504(3)
O4_2 O 0.16239(13) 0.68875(13) 0.48170(3)
C2_2 C 0.08402(15) 0.53979(17) 0.41847(4)
H1_2 H 0.113(2) 0.468(2) 0.4291(7)
H2_2 H 0.167(2) 0.618(2) 0.4036(7)
C3_2 C 0.05283(13) 0.60792(13) 0.45775(4)
La9_2 La 0.3333 0.6667 0.534963(3)
La1_9 La 0.6667 0.3333 0.3333
La2_5 La 0.6667 0.3333 0.465037(3)
O1_2 O 0.94891(14) 0.52588(15) 0.35489(4)
O2_2 O 0.83294(11) 0.34417(11) 0.40246(3)
O3_2 O 0.92139(11) 0.58372(12) 0.46414(3)
C1_2 C 0.94825(14) 0.46548(15) 0.38964(4)
O5_2 O 0.47412(15) 0.42302(21) 0.35489(4)
O6_2 O 0.65583(11) 0.48876(16) 0.40246(3)
O7_2 O 0.41628(12) 0.33766(16) 0.46414(3)
O8_2 O 0.31125(13) 0.47363(18) 0.48170(3)
C4_2 C 0.53452(15) 0.48276(21) 0.38964(4)
C5_2 C 0.46021(17) 0.54422(23) 0.41847(4)
H3_2 H 0.532(2) 0.644(3) 0.4291(7)
H4_2 H 0.382(2) 0.548(3) 0.4036(7)
C6_2 C 0.39208(13) 0.44490(18) 0.45775(4)
O9_2 O 0.57698(21) 0.05109(14) 0.35489(4)
O10_2 O 0.51124(16) 0.16706(11) 0.40246(3)
O11_2 O 0.66234(16) 0.07861(11) 0.46414(3)
C7_2 C 0.51724(21) 0.05175(14) 0.38964(4)
O13_2 O 0.38443(14) 0.14078(15) 0.31177(4)
O14_2 O 0.50040(11) 0.32249(11) 0.26420(3)
O15_2 O 0.41195(11) 0.08294(12) 0.20252(3)
C10_2 C 0.38509(14) 0.20118(15) 0.27702(4)
C11_2 C 0.24932(15) 0.12687(17) 0.24819(4)
H7_2 H 0.221(2) 0.198(2) 0.2375(7)
H8_2 H 0.167(2) 0.048(2) 0.2630(7)
C12_2 C 0.28051(13) 0.05874(13) 0.20891(4)
O17_2 O 0.85922(15) 0.24364(21) 0.31177(4)
O18_2 O 0.67751(11) 0.17790(16) 0.26420(3)
O19_2 O 0.91706(12) 0.32900(16) 0.20252(3)
C13_2 C 0.79882(15) 0.18390(21) 0.27702(4)
C14_2 C 0.87313(17) 0.12244(23) 0.24819(4)
H9_2 H 0.802(2) 0.022(3) 0.2375(7)
H10_2 H 0.952(2) 0.118(3) 0.2630(7)
C15_2 C 0.94126(13) 0.22176(18) 0.20891(4)
O21_2 O 0.75636(21) 0.61557(14) 0.31177(4)
O22_2 O 0.82210(16) 0.49960(11) 0.26420(3)
O23_2 O 0.67100(16) 0.58805(11) 0.20252(3)
C16_2 C 0.81610(21) 0.61491(14) 0.27702(4)
C17_2 C 0.87756(23) 0.75068(15) 0.24819(4)
H11_2 H 0.978(3) 0.779(2) 0.2375(7)
H12_2 H 0.882(3) 0.833(2) 0.2630(7)
C18_2 C 0.77824(18) 0.71949(13) 0.20891(4)
O28_2 O 0.83761(13) 0.31125(13) 0.51830(3)
O29_2 O 0.68875(13) 0.52637(18) 0.51830(3)
O30_2 O 0.47363(18) 0.16239(13) 0.51830(3)
O12_2 O 0.52637(18) 0.83761(13) 0.48170(3)
C8_2 C 0.45578(23) 0.91598(15) 0.41847(4)
H5_2 H 0.356(3) 0.887(2) 0.4291(7)
H6_2 H 0.452(3) 0.833(2) 0.4036(7)
C9_2 C 0.55510(18) 0.94717(13) 0.45775(4)
C17_3 C 0.54422(23) 0.08402(15) 0.58153(4)
H11_3 H 0.644(3) 0.113(2) 0.5709(7)
H12_3 H 0.548(3) 0.167(2) 0.5964(7)
C18_3 C 0.44490(18) 0.05283(13) 0.54225(4)
La1_10 La 0.3333 0.6667 0.6667
O1_3 O 0.61557(14) 0.85922(15) 0.68823(4)
O2_3 O 0.49960(11) 0.67751(11) 0.73580(3)
O3_3 O 0.58805(11) 0.91706(12) 0.79748(3)
C1_3 C 0.61491(14) 0.79882(15) 0.72298(4)
C2_3 C 0.75068(15) 0.87313(17) 0.75181(4)
H1_3 H 0.779(2) 0.802(2) 0.7625(7)
H2_3 H 0.833(2) 0.952(2) 0.7370(7)
C3_3 C 0.71949(13) 0.94126(13) 0.79109(4)
O5_3 O 0.14078(15) 0.75636(21) 0.68823(4)
O6_3 O 0.32249(11) 0.82210(16) 0.73580(3)
O7_3 O 0.08294(12) 0.67100(16) 0.79748(3)
C4_3 C 0.20118(15) 0.81610(21) 0.72298(4)
C5_3 C 0.12687(17) 0.87756(23) 0.75181(4)
H3_3 H 0.198(2) 0.978(3) 0.7625(7)
H4_3 H 0.048(2) 0.882(3) 0.7370(7)
C6_3 C 0.05874(13) 0.77824(18) 0.79109(4)
O9_3 O 0.24364(21) 0.38443(14) 0.68823(4)
O10_3 O 0.17790(16) 0.50040(11) 0.73580(3)
O11_3 O 0.32900(16) 0.41195(11) 0.79748(3)
C7_3 C 0.18390(21) 0.38509(14) 0.72298(4)
C8_3 C 0.12244(23) 0.24932(15) 0.75181(4)
H5_3 H 0.022(3) 0.221(2) 0.7625(7)
H6_3 H 0.118(3) 0.167(2) 0.7370(7)
C9_3 C 0.22176(18) 0.28051(13) 0.79109(4)
O13_3 O 0.05109(14) 0.47412(15) 0.64511(4)
O14_3 O 0.16706(11) 0.65583(11) 0.59754(3)
O15_3 O 0.07861(11) 0.41628(12) 0.53586(3)
C10_3 C 0.05175(14) 0.53452(15) 0.61036(4)
O17_3 O 0.52588(15) 0.57698(21) 0.64511(4)
O18_3 O 0.34417(11) 0.51124(16) 0.59754(3)
O19_3 O 0.58372(12) 0.66234(16) 0.53586(3)
C13_3 C 0.46548(15) 0.51724(21) 0.61036(4)
C14_3 C 0.53979(17) 0.45578(23) 0.58153(4)
H9_3 H 0.468(2) 0.356(3) 0.5709(7)
H10_3 H 0.618(2) 0.452(3) 0.5964(7)
C15_3 C 0.60792(13) 0.55510(18) 0.54225(4)
O21_3 O 0.42302(21) 0.94891(14) 0.64511(4)
O22_3 O 0.48876(16) 0.83294(11) 0.59754(3)
O23_3 O 0.33766(16) 0.92139(11) 0.53586(3)
C16_3 C 0.48276(21) 0.94825(14) 0.61036(4)
C11_3 C 0.91598(15) 0.46021(17) 0.58153(4)
H7_3 H 0.887(2) 0.532(2) 0.5709(7)
H8_3 H 0.833(2) 0.382(2) 0.5964(7)
C12_3 C 0.94717(13) 0.39208(13) 0.54225(4)
Co1 Co 0.3333 0.6667 0.1667
N1 N 0.33494(16) 0.82605(15) 0.13084(5)
H13 H 0.4030 0.9163 0.1410
H14 H 0.2438 0.8174 0.1313
H15 H 0.3588 0.8165 0.1041
N2 N 0.17395(15) 0.50889(22) 0.13084(5)
H16 H 0.0837 0.4867 0.1410
H17 H 0.1826 0.4264 0.1313
H18 H 0.1835 0.5423 0.1041
N3 N 0.49111(22) 0.66506(16) 0.13084(5)
H19 H 0.5133 0.5970 0.1410
H20 H 0.5736 0.7562 0.1313
H21 H 0.4577 0.6412 0.1041
N4 N 0.33173(16) 0.50728(15) 0.20249(5)
H22 H 0.2637 0.4170 0.1923
H23 H 0.4229 0.5159 0.2020
H24 H 0.3079 0.5168 0.2292
N5 N 0.49272(15) 0.82444(22) 0.20249(5)
H25 H 0.5830 0.8466 0.1923
H26 H 0.4841 0.9069 0.2020
H27 H 0.4832 0.7910 0.2292
N6 N 0.17556(22) 0.66827(16) 0.20249(5)
H28 H 0.1534 0.7363 0.1923
H29 H 0.0931 0.5771 0.2020
H30 H 0.2090 0.6921 0.2292
Co1_2 Co -0.0000 0.0000 0.5000
N1_2 N 0.00161(16) 0.15938(15) 0.46417(5)
H13_2 H 0.0697 0.2496 0.4743
H15_2 H 0.0255 0.1498 0.4374
H20_2 H 0.2403 0.0895 0.4646
N5_2 N 0.15938(15) 0.15778(22) 0.53583(5)
H25_2 H 0.2496 0.1800 0.5257
H26_2 H 0.1507 0.2403 0.5354
H27_2 H 0.1498 0.1244 0.5626
Co1_3 Co -0.0000 1.0000 0.5000
N3_2 N 0.15778(22) 0.99839(16) 0.46417(5)
H19_2 H 0.1800 0.9303 0.4743
H21_2 H 0.1244 0.9745 0.4374
H23_2 H 0.0895 0.8493 0.5354
Co1_4 Co 1.0000 0.0000 0.5000
H14_2 H 0.9105 0.1507 0.4646
N6_2 N 0.84222(22) 0.00161(16) 0.53583(5)
H28_2 H 0.8200 0.0697 0.5257
H30_2 H 0.8756 0.0255 0.5626
Co1_5 Co 1.0000 1.0000 0.5000
N2_2 N 0.84062(15) 0.84222(22) 0.46417(5)
H16_2 H 0.7504 0.8200 0.4743
H17_2 H 0.8493 0.7597 0.4646
H18_2 H 0.8502 0.8756 0.4374
N4_2 N 0.99839(16) 0.84062(15) 0.53583(5)
H22_2 H 0.9303 0.7504 0.5257
H24_2 H 0.9745 0.8502 0.5626
H29_2 H 0.7597 0.9105 0.5354
Co1_6 Co 0.6666 0.3334 0.8334
N1_3 N 0.66827(16) 0.49272(15) 0.79751(5)
H13_3 H 0.7363 0.5830 0.8077
H14_3 H 0.5771 0.4841 0.7980
H15_3 H 0.6921 0.4832 0.7708
N2_3 N 0.50728(15) 0.17556(22) 0.79751(5)
H16_3 H 0.4170 0.1534 0.8077
H17_3 H 0.5159 0.0931 0.7980
H18_3 H 0.5168 0.2090 0.7708
N3_3 N 0.82444(22) 0.33173(16) 0.79751(5)
H19_3 H 0.8466 0.2637 0.8077
H20_3 H 0.9069 0.4229 0.7980
H21_3 H 0.7910 0.3079 0.7708
N4_3 N 0.66506(16) 0.17395(15) 0.86916(5)
H22_3 H 0.5970 0.0837 0.8590
H23_3 H 0.7562 0.1826 0.8687
H24_3 H 0.6412 0.1835 0.8959
N5_3 N 0.82605(15) 0.49111(22) 0.86916(5)
H25_3 H 0.9163 0.5133 0.8590
H26_3 H 0.8174 0.5736 0.8687
H27_3 H 0.8165 0.4577 0.8959
N6_3 N 0.50889(22) 0.33494(16) 0.86916(5)
H28_3 H 0.4867 0.4030 0.8590
H29_3 H 0.4264 0.2438 0.8687
H30_3 H 0.5423 0.3588 0.8959
loop_
_geom_bond_atom_site_label_1
_geom_bond_atom_site_label_2
_geom_bond_site_symmetry_1
_geom_bond_site_symmetry_2
La1 O1 1_555 1_555
La2 O2 1_555 1_555
O1 C1 1_555 1_555
O2 La1 1_555 1_555
O3 La2 1_555 1_555
O4 C3 1_555 1_555
C1 O2 1_555 1_555
C2 C1 1_555 1_555
H1 C2 1_555 1_555
H2 C2 1_555 1_555
C3 O3 1_555 1_555
La9 O4 1_555 1_555
O29 La2 1_555 1_555
C2 C3 1_555 1_555
O21 La1_2 1_555 1_555
O22 La1_2 1_555 1_555
O23 La3 1_555 1_555
O24 C18 1_555 1_555
C16 O21 1_555 1_555
C17 C16 1_555 1_555
H11 C17 1_555 1_555
H12 C17 1_555 1_555
C18 O23 1_555 1_555
La6 O24 1_555 1_555
O27 La3 1_555 1_555
La3 O22 1_555 1_555
O22 C16 1_555 1_555
C17 C18 1_555 1_555
O28 La2_2 1_555 1_555
O17 La1_4 1_555 1_555
O18 La1_4 1_555 1_555
O19 La3_2 1_555 1_555
O20 C15 1_555 1_555
C13 O17 1_555 1_555
C14 C13 1_555 1_555
H9 C14 1_555 1_555
H10 C14 1_555 1_555
C15 O19 1_555 1_555
La6 O20 1_555 1_555
La3_2 O18 1_555 1_555
O18 C13 1_555 1_555
C14 C15 1_555 1_555
O5 La1_5 1_555 1_555
O6 La1_5 1_555 1_555
O7 La2_3 1_555 1_555
O8 C6 1_555 1_555
C4 O5 1_555 1_555
C5 C4 1_555 1_555
H3 C5 1_555 1_555
H4 C5 1_555 1_555
C6 O7 1_555 1_555
La9 O8 1_555 1_555
La2_3 O6 1_555 1_555
O6 C4 1_555 1_555
C5 C6 1_555 1_555
O25 La3_3 1_555 1_555
O9 La1_7 1_555 1_555
O10 La1_7 1_555 1_555
O11 La2_4 1_555 1_555
O12 C9 1_555 1_555
C7 O9 1_555 1_555
C8 C7 1_555 1_555
H5 C8 1_555 1_555
H6 C8 1_555 1_555
C9 O11 1_555 1_555
La9 O12 1_555 1_555
O30 La2_4 1_555 1_555
La2_4 O10 1_555 1_555
O10 C7 1_555 1_555
C8 C9 1_555 1_555
La3_4 O14 1_555 1_555
O13 La1_8 1_555 1_555
O14 La1_8 1_555 1_555
O15 La3_4 1_555 1_555
O16 C12 1_555 1_555
C10 O13 1_555 1_555
C11 C10 1_555 1_555
H7 C11 1_555 1_555
H8 C11 1_555 1_555
C12 O15 1_555 1_555
La6 O16 1_555 1_555
O26 La3_4 1_555 1_555
O14 C10 1_555 1_555
C11 C12 1_555 1_555
O4_2 C3_2 1_555 1_555
H1_2 C2_2 1_555 1_555
H2_2 C2_2 1_555 1_555
La9_2 O4_2 1_555 1_555
C2_2 C3_2 1_555 1_555
La1_9 O1_2 1_555 1_555
La2_5 O2_2 1_555 1_555
O1_2 C1_2 1_555 1_555
O2_2 La1_9 1_555 1_555
O3_2 La2_5 1_555 1_555
C1_2 O2_2 1_555 1_555
O5_2 La1_9 1_555 1_555
O6_2 La1_9 1_555 1_555
O7_2 La2_5 1_555 1_555
O8_2 C6_2 1_555 1_555
C4_2 O5_2 1_555 1_555
C5_2 C4_2 1_555 1_555
H3_2 C5_2 1_555 1_555
H4_2 C5_2 1_555 1_555
C6_2 O7_2 1_555 1_555
O9_2 La1_9 1_555 1_555
O10_2 La1_9 1_555 1_555
O11_2 La2_5 1_555 1_555
C7_2 O9_2 1_555 1_555
La9 O14_2 1_555 1_555
O13_2 La1_9 1_555 1_555
O14_2 La1_9 1_555 1_555
O15_2 La9 1_555 1_555
C10_2 O13_2 1_555 1_555
C11_2 C10_2 1_555 1_555
H7_2 C11_2 1_555 1_555
H8_2 C11_2 1_555 1_555
C12_2 O15_2 1_555 1_555
O17_2 La1_9 1_555 1_555
O18_2 La1_9 1_555 1_555
O19_2 La9 1_555 1_555
C13_2 O17_2 1_555 1_555
C14_2 C13_2 1_555 1_555
H9_2 C14_2 1_555 1_555
H10_2 C14_2 1_555 1_555
C15_2 O19_2 1_555 1_555
O21_2 La1_9 1_555 1_555
O22_2 La1_9 1_555 1_555
O23_2 La9 1_555 1_555
O30 C18_2 1_555 1_555
C16_2 O21_2 1_555 1_555
C17_2 C16_2 1_555 1_555
H11_2 C17_2 1_555 1_555
H12_2 C17_2 1_555 1_555
C18_2 O23_2 1_555 1_555
La9_2 O8_2 1_555 1_555
O28_2 La2_5 1_555 1_555
O29_2 La2_5 1_555 1_555
O30_2 La2_5 1_555 1_555
La2_5 O6_2 1_555 1_555
La2_5 O10_2 1_555 1_555
O6_2 C4_2 1_555 1_555
C5_2 C6_2 1_555 1_555
O10_2 C7_2 1_555 1_555
La9 O18_2 1_555 1_555
La9 O22_2 1_555 1_555
O14_2 C10_2 1_555 1_555
C11_2 C12_2 1_555 1_555
O18_2 C13_2 1_555 1_555
C14_2 C15_2 1_555 1_555
O22_2 C16_2 1_555 1_555
C17_2 C18_2 1_555 1_555
O12_2 C9_2 1_555 1_555
H5_2 C8_2 1_555 1_555
H6_2 C8_2 1_555 1_555
La9_2 O12_2 1_555 1_555
C8_2 C9_2 1_555 1_555
O30_2 C18_3 1_555 1_555
H11_3 C17_3 1_555 1_555
H12_3 C17_3 1_555 1_555
C17_3 C18_3 1_555 1_555
La1_10 O1_3 1_555 1_555
La6 O2_3 1_555 1_555
O1_3 C1_3 1_555 1_555
O2_3 La1_10 1_555 1_555
O3_3 La6 1_555 1_555
C1_3 O2_3 1_555 1_555
C2_3 C1_3 1_555 1_555
H1_3 C2_3 1_555 1_555
H2_3 C2_3 1_555 1_555
C3_3 O3_3 1_555 1_555
O5_3 La1_10 1_555 1_555
O6_3 La1_10 1_555 1_555
O7_3 La6 1_555 1_555
C4_3 O5_3 1_555 1_555
C5_3 C4_3 1_555 1_555
H3_3 C5_3 1_555 1_555
H4_3 C5_3 1_555 1_555
C6_3 O7_3 1_555 1_555
O9_3 La1_10 1_555 1_555
O10_3 La1_10 1_555 1_555
O11_3 La6 1_555 1_555
O27 C9_3 1_555 1_555
C7_3 O9_3 1_555 1_555
C8_3 C7_3 1_555 1_555
H5_3 C8_3 1_555 1_555
H6_3 C8_3 1_555 1_555
C9_3 O11_3 1_555 1_555
La9_2 O14_3 1_555 1_555
O13_3 La1_10 1_555 1_555
O14_3 La1_10 1_555 1_555
O15_3 La9_2 1_555 1_555
C10_3 O13_3 1_555 1_555
O17_3 La1_10 1_555 1_555
O18_3 La1_10 1_555 1_555
O19_3 La9_2 1_555 1_555
O29_2 C15_3 1_555 1_555
C13_3 O17_3 1_555 1_555
C14_3 C13_3 1_555 1_555
H9_3 C14_3 1_555 1_555
H10_3 C14_3 1_555 1_555
C15_3 O19_3 1_555 1_555
O21_3 La1_10 1_555 1_555
O22_3 La1_10 1_555 1_555
O23_3 La9_2 1_555 1_555
C16_3 O21_3 1_555 1_555
La6 O6_3 1_555 1_555
La6 O10_3 1_555 1_555
C2_3 C3_3 1_555 1_555
O6_3 C4_3 1_555 1_555
C5_3 C6_3 1_555 1_555
O10_3 C7_3 1_555 1_555
C8_3 C9_3 1_555 1_555
La9_2 O18_3 1_555 1_555
La9_2 O22_3 1_555 1_555
O14_3 C10_3 1_555 1_555
O18_3 C13_3 1_555 1_555
C14_3 C15_3 1_555 1_555
O22_3 C16_3 1_555 1_555
O28_2 C12_3 1_555 1_555
H7_3 C11_3 1_555 1_555
H8_3 C11_3 1_555 1_555
C11_3 C12_3 1_555 1_555
Co1 N1 1_555 1_555
N1 H13 1_555 1_555
H14 N1 1_555 1_555
H15 N1 1_555 1_555
N2 Co1 1_555 1_555
H16 N2 1_555 1_555
H17 N2 1_555 1_555
H18 N2 1_555 1_555
N3 Co1 1_555 1_555
H19 N3 1_555 1_555
H20 N3 1_555 1_555
H21 N3 1_555 1_555
N4 Co1 1_555 1_555
H22 N4 1_555 1_555
H23 N4 1_555 1_555
H24 N4 1_555 1_555
N5 Co1 1_555 1_555
H25 N5 1_555 1_555
H26 N5 1_555 1_555
H27 N5 1_555 1_555
N6 Co1 1_555 1_555
H28 N6 1_555 1_555
H29 N6 1_555 1_555
H30 N6 1_555 1_555
Co1_2 N1_2 1_555 1_555
N1_2 H13_2 1_555 1_555
H15_2 N1_2 1_555 1_555
N5_2 Co1_2 1_555 1_555
H25_2 N5_2 1_555 1_555
H26_2 N5_2 1_555 1_555
H27_2 N5_2 1_555 1_555
N3_2 Co1_3 1_555 1_555
H19_2 N3_2 1_555 1_555
H21_2 N3_2 1_555 1_555
N6_2 Co1_4 1_555 1_555
H28_2 N6_2 1_555 1_555
H30_2 N6_2 1_555 1_555
N2_2 Co1_5 1_555 1_555
H16_2 N2_2 1_555 1_555
H17_2 N2_2 1_555 1_555
H18_2 N2_2 1_555 1_555
N4_2 Co1_5 1_555 1_555
H22_2 N4_2 1_555 1_555
H24_2 N4_2 1_555 1_555
Co1_6 N1_3 1_555 1_555
N1_3 H13_3 1_555 1_555
H14_3 N1_3 1_555 1_555
H15_3 N1_3 1_555 1_555
N2_3 Co1_6 1_555 1_555
H16_3 N2_3 1_555 1_555
H17_3 N2_3 1_555 1_555
H18_3 N2_3 1_555 1_555
N3_3 Co1_6 1_555 1_555
H19_3 N3_3 1_555 1_555
H20_3 N3_3 1_555 1_555
H21_3 N3_3 1_555 1_555
N4_3 Co1_6 1_555 1_555
H22_3 N4_3 1_555 1_555
H23_3 N4_3 1_555 1_555
H24_3 N4_3 1_555 1_555
N5_3 Co1_6 1_555 1_555
H25_3 N5_3 1_555 1_555
H26_3 N5_3 1_555 1_555
H27_3 N5_3 1_555 1_555
N6_3 Co1_6 1_555 1_555
H28_3 N6_3 1_555 1_555
H29_3 N6_3 1_555 1_555
H30_3 N6_3 1_555 1_555

#END
