
###############################################################################
#
# This file contains modified crystal structure data generated from the
# MOF subset of the Cambridge Structural Database (CSD) v543 
# hosted by the Cambridge Crystallographic Data Centre (CCDC).
#
# This work is licensed under the Creative Commons
# Attribution-NonCommercial-ShareAlike 4.0 International License.
# To view a copy of this license, visit
# http://creativecommons.org/licenses/by-nc-sa/4.0/
# or send a letter to
# Creative Commons, PO Box 1866, Mountain View, CA 94042, USA.
#
# CIF created using the CSD Python API on 29 September 2022
# The structure has been converted into the P1 space group
# The structure has a 3D framework
# The original CSD entry VUCCUT is in the rhombohedral crystal system
# The framework has been calculated to contain at least 10.0% void space
# The void calculation uses a probe of radius 1.32A, grid spacing 0.4
#
###############################################################################

data_VUCCUT
_chemical_formula_moiety         '(C54 H90 Ce20 Co6 N18 O68 6+)n'
_symmetry_cell_setting           triclinic
_symmetry_space_group_name_H-M   'P 1'
_symmetry_Int_Tables_number      1
_space_group_name_Hall           'P 1'
loop_
_symmetry_equiv_pos_site_id
_symmetry_equiv_pos_as_xyz
1 x,y,z
_cell_length_a                   10.2024(4)
_cell_length_b                   10.2024(4)
_cell_length_c                   31.0818(13)
_cell_angle_alpha                90
_cell_angle_beta                 90
_cell_angle_gamma                120
_cell_volume                     2801.83
loop_
_atom_site_label
_atom_site_type_symbol
_atom_site_fract_x
_atom_site_fract_y
_atom_site_fract_z
Ce6 Ce -0.0000 0.0000 0.131904(6)
C11 C 0.0831(3) 0.5454(3) 0.41842(8)
C16 C 0.0529(2) 0.4465(3) 0.45782(7)
H7 H 0.1109 0.6471 0.4275
H8 H 0.1674 0.5510 0.4025
O27 O 0.0212(3) 0.8299(2) 0.18485(6)
O28 O 0.1633(2) 0.4754(2) 0.48181(6)
Ce6_2 Ce -0.0000 1.0000 0.131904(6)
Ce7 Ce 0.3334 0.6666 0.534762(6)
Ce6_3 Ce 1.0000 0.0000 0.131904(6)
Ce1 Ce 0.6667 0.3333 0.3333
O1 O 0.3872(2) 0.2422(2) 0.31190(6)
O2 O 0.50231(18) 0.1774(2) 0.26380(5)
C1 C 0.3867(3) 0.1826(3) 0.27689(7)
Ce2 Ce 0.6667 0.3333 0.201429(6)
C2 C 0.2502(3) 0.1213(3) 0.24825(8)
O3 O 0.41162(19) 0.3282(2) 0.20223(6)
O4 O 0.4966(2) 0.1421(2) 0.14848(6)
H1 H 0.1659 0.1157 0.2642
H2 H 0.2224 0.0196 0.2392
C3 C 0.2804(2) 0.2202(3) 0.20885(7)
O5 O 0.7578(2) 0.1450(3) 0.31190(6)
O6 O 0.8226(2) 0.32491(27) 0.26380(5)
O7 O 0.8550(3) 0.6128(2) 0.31190(6)
O8 O 0.67509(27) 0.49769(18) 0.26380(5)
O9 O 0.9461(2) 0.4245(2) 0.35477(6)
O10 O 0.5755(2) 0.5217(3) 0.35477(6)
O11 O 0.4783(3) 0.0539(2) 0.35477(6)
O12 O 0.83102(18) 0.4893(2) 0.40287(5)
O13 O 0.5107(2) 0.34176(27) 0.40287(5)
O14 O 0.65824(27) 0.16898(18) 0.40287(5)
C4 C 0.8174(3) 0.2041(4) 0.27689(7)
C5 C 0.7959(4) 0.6133(3) 0.27689(7)
C6 C 0.9466(3) 0.4841(3) 0.38978(7)
C7 C 0.5159(3) 0.4626(4) 0.38978(7)
C8 C 0.5374(4) 0.0534(3) 0.38978(7)
Ce3 Ce 0.6666 0.3334 0.465238(6)
O15 O 0.6718(2) 0.08342(28) 0.20223(6)
O16 O 0.91658(28) 0.58838(19) 0.20223(6)
O17 O 0.8579(2) 0.3545(3) 0.14848(6)
O18 O 0.6455(3) 0.5034(2) 0.14848(6)
C9 C 0.8787(3) 0.1289(4) 0.24825(8)
C10 C 0.8711(4) 0.7498(3) 0.24825(8)
C12 C 0.4546(3) 0.5378(4) 0.41842(8)
O19 O 0.6878(3) 0.1633(2) 0.51819(6)
O20 O 0.4754(2) 0.3122(3) 0.51819(6)
O21 O 0.8367(2) 0.5246(2) 0.51819(6)
O22 O 0.6615(2) 0.58325(28) 0.46444(6)
O23 O 0.92171(19) 0.3385(2) 0.46444(6)
O24 O 0.41675(28) 0.07829(19) 0.46444(6)
C14 C 0.7798(3) 0.0602(4) 0.20885(7)
C15 C 0.9398(4) 0.7196(2) 0.20885(7)
H3 H 0.8843 0.0502 0.2642
H4 H 0.9804 0.2028 0.2392
H5 H 0.9498 0.8341 0.2642
H6 H 0.7972 0.7776 0.2392
H9 H 0.4490 0.6165 0.4025
C17 C 0.5535(3) 0.6065(4) 0.45782(7)
H10 H 0.3529 0.4639 0.4275
O25 O 0.1701(2) 0.1912(2) 0.18485(6)
O29 O 0.5246(2) 0.6878(3) 0.48181(6)
Ce6_4 Ce 1.0000 1.0000 0.131904(6)
C13 C 0.4622(4) 0.9169(3) 0.41842(8)
C18 C 0.3935(4) 0.9471(2) 0.45782(7)
H11 H 0.3835 0.8326 0.4025
H12 H 0.5361 0.8891 0.4275
O26 O 0.8088(2) 0.9788(3) 0.18485(6)
O30 O 0.3122(3) 0.8367(2) 0.48181(6)
Ce7_2 Ce 0.0000 -0.0000 0.868096(6)
Ce7_3 Ce 0.0000 1.0000 0.868096(6)
C10_2 C 0.5378(4) 0.0831(3) 0.58158(8)
C15_2 C 0.6065(4) 0.0529(2) 0.54218(7)
H5_2 H 0.6165 0.1674 0.5975
H6_2 H 0.4639 0.1109 0.5725
O29_2 O 0.1912(2) 0.0212(3) 0.81515(6)
Ce7_4 Ce 1.0000 -0.0000 0.868096(6)
Ce1_2 Ce 0.3334 0.6666 0.6666
O1_2 O 0.0539(2) 0.5755(2) 0.64523(6)
O2_2 O 0.16898(18) 0.5107(2) 0.59713(5)
C1_2 C 0.0534(3) 0.5159(3) 0.61022(7)
O3_2 O 0.07829(19) 0.6615(2) 0.53556(6)
O5_2 O 0.4245(2) 0.4783(3) 0.64523(6)
O6_2 O 0.4893(2) 0.65824(27) 0.59713(5)
O7_2 O 0.5217(3) 0.9461(2) 0.64523(6)
O8_2 O 0.34176(27) 0.83102(18) 0.59713(5)
O9_2 O 0.6128(2) 0.7578(2) 0.68810(6)
O10_2 O 0.2422(2) 0.8550(3) 0.68810(6)
O11_2 O 0.1450(3) 0.3872(2) 0.68810(6)
O12_2 O 0.49769(18) 0.8226(2) 0.73620(5)
O13_2 O 0.1774(2) 0.67509(27) 0.73620(5)
O14_2 O 0.32491(27) 0.50231(18) 0.73620(5)
C4_2 C 0.4841(3) 0.5374(4) 0.61022(7)
C5_2 C 0.4626(4) 0.9466(3) 0.61022(7)
C6_2 C 0.6133(3) 0.8174(3) 0.72311(7)
C7_2 C 0.1826(3) 0.7959(4) 0.72311(7)
C8_2 C 0.2041(4) 0.3867(3) 0.72311(7)
Ce3_2 Ce 0.3333 0.6667 0.798571(6)
O15_2 O 0.3385(2) 0.41675(28) 0.53556(6)
O16_2 O 0.58325(28) 0.92171(19) 0.53556(6)
C9_2 C 0.5454(3) 0.4622(4) 0.58158(8)
C11_2 C 0.7498(3) 0.8787(3) 0.75175(8)
C12_2 C 0.1213(3) 0.8711(4) 0.75175(8)
C13_2 C 0.1289(4) 0.2502(3) 0.75175(8)
O19_2 O 0.3545(3) 0.4966(2) 0.85152(6)
O20_2 O 0.1421(2) 0.6455(3) 0.85152(6)
O21_2 O 0.5034(2) 0.8579(2) 0.85152(6)
O22_2 O 0.3282(2) 0.91658(28) 0.79777(6)
O23_2 O 0.58838(19) 0.6718(2) 0.79777(6)
O24_2 O 0.08342(28) 0.41162(19) 0.79777(6)
C14_2 C 0.4465(3) 0.3935(4) 0.54218(7)
H3_2 H 0.5510 0.3835 0.5975
H4_2 H 0.6471 0.5361 0.5725
C16_2 C 0.7196(2) 0.7798(3) 0.79115(7)
H7_2 H 0.7776 0.9804 0.7608
H8_2 H 0.8341 0.8843 0.7358
H9_2 H 0.1157 0.9498 0.7358
C17_2 C 0.2202(3) 0.9398(4) 0.79115(7)
H10_2 H 0.0196 0.7972 0.7608
C18_2 C 0.0602(4) 0.2804(2) 0.79115(7)
H11_2 H 0.0502 0.1659 0.7358
H12_2 H 0.2028 0.2224 0.7608
O28_2 O 0.8299(2) 0.8088(2) 0.81515(6)
Ce7_5 Ce 1.0000 1.0000 0.868096(6)
C2_2 C 0.9169(3) 0.4546(3) 0.58158(8)
H1_2 H 0.8326 0.4490 0.5975
H2_2 H 0.8891 0.3529 0.5725
C3_2 C 0.9471(2) 0.5535(3) 0.54218(7)
O30_2 O 0.9788(3) 0.1701(2) 0.81515(6)
O9_3 O 0.2795(2) 0.0911(2) 0.02143(6)
O12_3 O 0.16436(18) 0.1559(2) 0.06953(5)
C6_3 C 0.2800(3) 0.1507(3) 0.05644(7)
C11_3 C 0.4165(3) 0.2120(3) 0.08508(8)
O23_3 O 0.25505(19) 0.0051(2) 0.13110(6)
C16_3 C 0.3863(2) 0.1131(3) 0.12448(7)
H7_3 H 0.4443 0.3137 0.0941
H8_3 H 0.5008 0.2176 0.0691
Ce1_3 Ce 0.0000 -0.0000 1.0000
O7_3 O 0.1883(3) 0.2795(2) 0.97857(6)
O8_3 O 0.00842(27) 0.16436(18) 0.93047(5)
C5_3 C 0.1292(4) 0.2800(3) 0.94356(7)
O16_3 O 0.24991(28) 0.25505(19) 0.86890(6)
C10_3 C 0.2044(4) 0.4165(3) 0.91492(8)
C15_3 C 0.2731(4) 0.3863(2) 0.87552(7)
H5_3 H 0.2831 0.5008 0.9309
H6_3 H 0.1305 0.4443 0.9059
Ce1_4 Ce 0.0000 1.0000 1.0000
O5_3 O 0.0911(2) 0.8117(3) 0.97857(6)
O6_3 O 0.1559(2) 0.99158(27) 0.93047(5)
C4_3 C 0.1507(3) 0.8708(4) 0.94356(7)
O15_3 O 0.0051(2) 0.75009(28) 0.86890(6)
C9_3 C 0.2120(3) 0.7956(4) 0.91492(8)
C14_3 C 0.1131(3) 0.7269(4) 0.87552(7)
H3_3 H 0.2176 0.7169 0.9309
H4_3 H 0.3137 0.8695 0.9059
O10_3 O 0.9089(2) 0.1883(3) 0.02143(6)
O13_3 O 0.8441(2) 0.00842(27) 0.06953(5)
C7_3 C 0.8493(3) 0.1292(4) 0.05644(7)
C12_3 C 0.7880(3) 0.2044(4) 0.08508(8)
O22_3 O 0.9949(2) 0.24991(28) 0.13110(6)
H9_3 H 0.7824 0.2831 0.0691
C17_3 C 0.8869(3) 0.2731(4) 0.12448(7)
H10_3 H 0.6863 0.1305 0.0941
Ce1_5 Ce 1.0000 -0.0000 1.0000
O11_3 O 0.8117(3) 0.7205(2) 0.02143(6)
O14_3 O 0.99158(27) 0.83564(18) 0.06953(5)
C8_3 C 0.8708(4) 0.7200(3) 0.05644(7)
C13_3 C 0.7956(4) 0.5835(3) 0.08508(8)
O24_3 O 0.75009(28) 0.74495(19) 0.13110(6)
C18_3 C 0.7269(4) 0.6137(2) 0.12448(7)
H11_3 H 0.7169 0.4992 0.0691
H12_3 H 0.8695 0.5557 0.0941
Ce1_6 Ce 1.0000 1.0000 1.0000
O1_3 O 0.7205(2) 0.9089(2) 0.97857(6)
O2_3 O 0.83564(18) 0.8441(2) 0.93047(5)
C1_3 C 0.7200(3) 0.8493(3) 0.94356(7)
C2_3 C 0.5835(3) 0.7880(3) 0.91492(8)
O3_3 O 0.74495(19) 0.9949(2) 0.86890(6)
H1_3 H 0.4992 0.7824 0.9309
H2_3 H 0.5557 0.6863 0.9059
C3_3 C 0.6137(2) 0.8869(3) 0.87552(7)
Ce1_7 Ce -0.0000 0.0000 0.0000
Ce1_8 Ce -0.0000 1.0000 0.0000
Ce1_9 Ce 1.0000 0.0000 0.0000
Ce1_10 Ce 1.0000 1.0000 0.0000
Co1 Co 0.3333 0.6667 0.1667
N1 N 0.3356(3) 0.5093(3) 0.13054(8)
H13 H 0.2690 0.4183 0.1407
H14 H 0.4278 0.5201 0.1309
H15 H 0.3112 0.5183 0.1036
N2 N 0.4907(3) 0.8263(4) 0.13054(8)
H16 H 0.5817 0.8507 0.1407
H17 H 0.4799 0.9077 0.1309
H18 H 0.4817 0.7929 0.1036
N3 N 0.1737(4) 0.6644(3) 0.13054(8)
H19 H 0.1493 0.7310 0.1407
H20 H 0.0923 0.5722 0.1309
H21 H 0.2071 0.6888 0.1036
N4 N 0.3311(3) 0.8240(3) 0.20279(8)
H22 H 0.3977 0.9150 0.1926
H23 H 0.2389 0.8132 0.2024
H24 H 0.3555 0.8150 0.2297
N5 N 0.1760(3) 0.5070(4) 0.20279(8)
H25 H 0.0850 0.4826 0.1926
H26 H 0.1868 0.4256 0.2024
H27 H 0.1850 0.5404 0.2297
N6 N 0.4930(4) 0.6689(3) 0.20279(8)
H28 H 0.5174 0.6023 0.1926
H29 H 0.5744 0.7611 0.2024
H30 H 0.4596 0.6445 0.2297
Co1_2 Co -0.0000 0.0000 0.5000
N2_2 N 0.1574(3) 0.1596(4) 0.46387(8)
H16_2 H 0.2484 0.1840 0.4740
H17_2 H 0.1466 0.2410 0.4642
H18_2 H 0.1484 0.1262 0.4369
H22_2 H 0.0643 0.2484 0.5260
H24_2 H 0.0221 0.1484 0.5631
N6_2 N 0.1596(4) 0.0023(3) 0.53613(8)
H29_2 H 0.2410 0.0945 0.5358
Co1_3 Co -0.0000 1.0000 0.5000
N1_2 N 0.0023(3) 0.8426(3) 0.46387(8)
H14_2 H 0.0945 0.8534 0.4642
H28_2 H 0.1840 0.9357 0.5260
H30_2 H 0.1262 0.9779 0.5631
Co1_4 Co 1.0000 0.0000 0.5000
H19_2 H 0.8160 0.0643 0.4740
H21_2 H 0.8738 0.0221 0.4369
N4_2 N 0.9977(3) 0.1574(3) 0.53613(8)
H23_2 H 0.9055 0.1466 0.5358
Co1_5 Co 1.0000 1.0000 0.5000
H13_2 H 0.9357 0.7516 0.4740
H15_2 H 0.9779 0.8516 0.4369
N3_2 N 0.8404(4) 0.9977(3) 0.46387(8)
H20_2 H 0.7590 0.9055 0.4642
N5_2 N 0.8426(3) 0.8404(4) 0.53613(8)
H25_2 H 0.7516 0.8160 0.5260
H26_2 H 0.8534 0.7590 0.5358
H27_2 H 0.8516 0.8738 0.5631
Co1_6 Co 0.6666 0.3334 0.8334
N1_3 N 0.6689(3) 0.1760(3) 0.79721(8)
H13_3 H 0.6023 0.0850 0.8074
H14_3 H 0.7611 0.1868 0.7976
H15_3 H 0.6445 0.1850 0.7703
N2_3 N 0.8240(3) 0.4930(4) 0.79721(8)
H16_3 H 0.9150 0.5174 0.8074
H17_3 H 0.8132 0.5744 0.7976
H18_3 H 0.8150 0.4596 0.7703
N3_3 N 0.5070(4) 0.3311(3) 0.79721(8)
H19_3 H 0.4826 0.3977 0.8074
H20_3 H 0.4256 0.2389 0.7976
H21_3 H 0.5404 0.3555 0.7703
N4_3 N 0.6644(3) 0.4907(3) 0.86946(8)
H22_3 H 0.7310 0.5817 0.8593
H23_3 H 0.5722 0.4799 0.8691
H24_3 H 0.6888 0.4817 0.8964
N5_3 N 0.5093(3) 0.1737(4) 0.86946(8)
H25_3 H 0.4183 0.1493 0.8593
H26_3 H 0.5201 0.0923 0.8691
H27_3 H 0.5183 0.2071 0.8964
N6_3 N 0.8263(4) 0.3356(3) 0.86946(8)
H28_3 H 0.8507 0.2690 0.8593
H29_3 H 0.9077 0.4278 0.8691
H30_3 H 0.7929 0.3112 0.8964
loop_
_geom_bond_atom_site_label_1
_geom_bond_atom_site_label_2
_geom_bond_site_symmetry_1
_geom_bond_site_symmetry_2
C16 C11 1_555 1_555
H7 C11 1_555 1_555
H8 C11 1_555 1_555
O28 C16 1_555 1_555
Ce6_2 O27 1_555 1_555
Ce7 O28 1_555 1_555
Ce1 O1 1_555 1_555
O1 C1 1_555 1_555
O2 Ce1 1_555 1_555
C1 O2 1_555 1_555
Ce2 O2 1_555 1_555
C2 C1 1_555 1_555
O3 Ce2 1_555 1_555
O4 Ce2 1_555 1_555
H1 C2 1_555 1_555
H2 C2 1_555 1_555
C3 C2 1_555 1_555
O5 Ce1 1_555 1_555
O6 Ce1 1_555 1_555
O7 Ce1 1_555 1_555
O8 Ce1 1_555 1_555
O9 Ce1 1_555 1_555
O10 Ce1 1_555 1_555
O11 Ce1 1_555 1_555
O12 Ce1 1_555 1_555
O13 Ce1 1_555 1_555
O14 Ce1 1_555 1_555
C4 O5 1_555 1_555
C5 O7 1_555 1_555
C6 O9 1_555 1_555
C7 O10 1_555 1_555
C8 O11 1_555 1_555
Ce3 O12 1_555 1_555
O15 Ce2 1_555 1_555
O16 Ce2 1_555 1_555
O17 Ce2 1_555 1_555
O18 Ce2 1_555 1_555
C9 C4 1_555 1_555
C10 C5 1_555 1_555
C12 C7 1_555 1_555
O19 Ce3 1_555 1_555
O20 Ce3 1_555 1_555
O21 Ce3 1_555 1_555
O22 Ce3 1_555 1_555
O23 Ce3 1_555 1_555
O24 Ce3 1_555 1_555
C14 O15 1_555 1_555
C15 O16 1_555 1_555
H3 C9 1_555 1_555
H4 C9 1_555 1_555
H5 C10 1_555 1_555
H6 C10 1_555 1_555
H9 C12 1_555 1_555
C17 C12 1_555 1_555
H10 C12 1_555 1_555
O25 C3 1_555 1_555
O29 C17 1_555 1_555
Ce6 O25 1_555 1_555
Ce7 O29 1_555 1_555
Ce2 O6 1_555 1_555
Ce2 O8 1_555 1_555
O3 C3 1_555 1_555
O6 C4 1_555 1_555
O8 C5 1_555 1_555
O12 C6 1_555 1_555
O13 C7 1_555 1_555
O13 Ce3 1_555 1_555
O14 C8 1_555 1_555
O14 Ce3 1_555 1_555
C9 C14 1_555 1_555
C10 C15 1_555 1_555
O22 C17 1_555 1_555
C18 C13 1_555 1_555
H11 C13 1_555 1_555
H12 C13 1_555 1_555
O30 C18 1_555 1_555
Ce6_4 O26 1_555 1_555
Ce7 O30 1_555 1_555
H5_2 C10_2 1_555 1_555
H6_2 C10_2 1_555 1_555
O19 C15_2 1_555 1_555
Ce7_2 O29_2 1_555 1_555
C10_2 C15_2 1_555 1_555
Ce1_2 O1_2 1_555 1_555
O1_2 C1_2 1_555 1_555
O2_2 Ce1_2 1_555 1_555
C1_2 O2_2 1_555 1_555
Ce7 O2_2 1_555 1_555
O3_2 Ce7 1_555 1_555
O5_2 Ce1_2 1_555 1_555
O6_2 Ce1_2 1_555 1_555
O7_2 Ce1_2 1_555 1_555
O8_2 Ce1_2 1_555 1_555
O9_2 Ce1_2 1_555 1_555
O10_2 Ce1_2 1_555 1_555
O11_2 Ce1_2 1_555 1_555
O12_2 Ce1_2 1_555 1_555
O13_2 Ce1_2 1_555 1_555
O14_2 Ce1_2 1_555 1_555
C4_2 O5_2 1_555 1_555
C5_2 O7_2 1_555 1_555
C6_2 O9_2 1_555 1_555
C7_2 O10_2 1_555 1_555
C8_2 O11_2 1_555 1_555
Ce3_2 O12_2 1_555 1_555
O15_2 Ce7 1_555 1_555
O16_2 Ce7 1_555 1_555
C9_2 C4_2 1_555 1_555
C11_2 C6_2 1_555 1_555
C12_2 C7_2 1_555 1_555
C13_2 C8_2 1_555 1_555
O19_2 Ce3_2 1_555 1_555
O20_2 Ce3_2 1_555 1_555
O21_2 Ce3_2 1_555 1_555
O22_2 Ce3_2 1_555 1_555
O23_2 Ce3_2 1_555 1_555
O24_2 Ce3_2 1_555 1_555
C14_2 O15_2 1_555 1_555
H3_2 C9_2 1_555 1_555
H4_2 C9_2 1_555 1_555
C16_2 C11_2 1_555 1_555
H7_2 C11_2 1_555 1_555
H8_2 C11_2 1_555 1_555
H9_2 C12_2 1_555 1_555
C17_2 C12_2 1_555 1_555
H10_2 C12_2 1_555 1_555
C18_2 C13_2 1_555 1_555
H11_2 C13_2 1_555 1_555
H12_2 C13_2 1_555 1_555
O20 C14_2 1_555 1_555
O28_2 C16_2 1_555 1_555
Ce7_5 O28_2 1_555 1_555
Ce7 O6_2 1_555 1_555
Ce7 O8_2 1_555 1_555
O6_2 C4_2 1_555 1_555
O8_2 C5_2 1_555 1_555
O12_2 C6_2 1_555 1_555
O13_2 C7_2 1_555 1_555
O13_2 Ce3_2 1_555 1_555
O14_2 C8_2 1_555 1_555
O14_2 Ce3_2 1_555 1_555
C9_2 C14_2 1_555 1_555
O22_2 C17_2 1_555 1_555
O23_2 C16_2 1_555 1_555
O24_2 C18_2 1_555 1_555
H1_2 C2_2 1_555 1_555
H2_2 C2_2 1_555 1_555
C3_2 C2_2 1_555 1_555
O21 C3_2 1_555 1_555
Ce7_4 O30_2 1_555 1_555
C6_3 O9_3 1_555 1_555
Ce6 O12_3 1_555 1_555
C11_3 C6_3 1_555 1_555
O23_3 Ce6 1_555 1_555
C16_3 C11_3 1_555 1_555
H7_3 C11_3 1_555 1_555
H8_3 C11_3 1_555 1_555
O4 C16_3 1_555 1_555
O12_3 C6_3 1_555 1_555
O23_3 C16_3 1_555 1_555
O7_3 Ce1_3 1_555 1_555
O8_3 Ce1_3 1_555 1_555
C5_3 O7_3 1_555 1_555
O16_3 Ce7_2 1_555 1_555
C10_3 C5_3 1_555 1_555
C15_3 O16_3 1_555 1_555
H5_3 C10_3 1_555 1_555
H6_3 C10_3 1_555 1_555
O19_2 C15_3 1_555 1_555
Ce7_2 O8_3 1_555 1_555
O8_3 C5_3 1_555 1_555
C10_3 C15_3 1_555 1_555
O5_3 Ce1_4 1_555 1_555
O6_3 Ce1_4 1_555 1_555
C4_3 O5_3 1_555 1_555
O15_3 Ce7_3 1_555 1_555
C9_3 C4_3 1_555 1_555
C14_3 O15_3 1_555 1_555
H3_3 C9_3 1_555 1_555
H4_3 C9_3 1_555 1_555
O20_2 C14_3 1_555 1_555
Ce7_3 O6_3 1_555 1_555
O6_3 C4_3 1_555 1_555
C9_3 C14_3 1_555 1_555
C7_3 O10_3 1_555 1_555
C12_3 C7_3 1_555 1_555
O22_3 Ce6_3 1_555 1_555
H9_3 C12_3 1_555 1_555
C17_3 C12_3 1_555 1_555
H10_3 C12_3 1_555 1_555
O17 C17_3 1_555 1_555
O13_3 C7_3 1_555 1_555
O13_3 Ce6_3 1_555 1_555
O22_3 C17_3 1_555 1_555
C8_3 O11_3 1_555 1_555
C13_3 C8_3 1_555 1_555
O24_3 Ce6_4 1_555 1_555
C18_3 C13_3 1_555 1_555
H11_3 C13_3 1_555 1_555
H12_3 C13_3 1_555 1_555
O18 C18_3 1_555 1_555
O14_3 C8_3 1_555 1_555
O14_3 Ce6_4 1_555 1_555
O24_3 C18_3 1_555 1_555
Ce1_6 O1_3 1_555 1_555
O1_3 C1_3 1_555 1_555
O2_3 Ce1_6 1_555 1_555
C1_3 O2_3 1_555 1_555
Ce7_5 O2_3 1_555 1_555
C2_3 C1_3 1_555 1_555
O3_3 Ce7_5 1_555 1_555
H1_3 C2_3 1_555 1_555
H2_3 C2_3 1_555 1_555
C3_3 C2_3 1_555 1_555
O21_2 C3_3 1_555 1_555
O3_3 C3_3 1_555 1_555
Ce1_7 O9_3 1_555 1_555
O12_3 Ce1_7 1_555 1_555
O10_3 Ce1_9 1_555 1_555
O13_3 Ce1_9 1_555 1_555
O11_3 Ce1_10 1_555 1_555
O14_3 Ce1_10 1_555 1_555
Co1 N1 1_555 1_555
N1 H13 1_555 1_555
H14 N1 1_555 1_555
H15 N1 1_555 1_555
N2 Co1 1_555 1_555
H16 N2 1_555 1_555
H17 N2 1_555 1_555
H18 N2 1_555 1_555
N3 Co1 1_555 1_555
H19 N3 1_555 1_555
H20 N3 1_555 1_555
H21 N3 1_555 1_555
N4 Co1 1_555 1_555
H22 N4 1_555 1_555
H23 N4 1_555 1_555
H24 N4 1_555 1_555
N5 Co1 1_555 1_555
H25 N5 1_555 1_555
H26 N5 1_555 1_555
H27 N5 1_555 1_555
N6 Co1 1_555 1_555
H28 N6 1_555 1_555
H29 N6 1_555 1_555
H30 N6 1_555 1_555
N2_2 Co1_2 1_555 1_555
H16_2 N2_2 1_555 1_555
H17_2 N2_2 1_555 1_555
H18_2 N2_2 1_555 1_555
N6_2 Co1_2 1_555 1_555
H29_2 N6_2 1_555 1_555
Co1_3 N1_2 1_555 1_555
H14_2 N1_2 1_555 1_555
N4_2 Co1_4 1_555 1_555
H23_2 N4_2 1_555 1_555
N3_2 Co1_5 1_555 1_555
H20_2 N3_2 1_555 1_555
N5_2 Co1_5 1_555 1_555
H25_2 N5_2 1_555 1_555
H26_2 N5_2 1_555 1_555
H27_2 N5_2 1_555 1_555
Co1_6 N1_3 1_555 1_555
N1_3 H13_3 1_555 1_555
H14_3 N1_3 1_555 1_555
H15_3 N1_3 1_555 1_555
N2_3 Co1_6 1_555 1_555
H16_3 N2_3 1_555 1_555
H17_3 N2_3 1_555 1_555
H18_3 N2_3 1_555 1_555
N3_3 Co1_6 1_555 1_555
H19_3 N3_3 1_555 1_555
H20_3 N3_3 1_555 1_555
H21_3 N3_3 1_555 1_555
N4_3 Co1_6 1_555 1_555
H22_3 N4_3 1_555 1_555
H23_3 N4_3 1_555 1_555
H24_3 N4_3 1_555 1_555
N5_3 Co1_6 1_555 1_555
H25_3 N5_3 1_555 1_555
H26_3 N5_3 1_555 1_555
H27_3 N5_3 1_555 1_555
N6_3 Co1_6 1_555 1_555
H28_3 N6_3 1_555 1_555
H29_3 N6_3 1_555 1_555
H30_3 N6_3 1_555 1_555

#END
