
###############################################################################
#
# This file contains modified crystal structure data generated from the
# MOF subset of the Cambridge Structural Database (CSD) v543 
# hosted by the Cambridge Crystallographic Data Centre (CCDC).
#
# This work is licensed under the Creative Commons
# Attribution-NonCommercial-ShareAlike 4.0 International License.
# To view a copy of this license, visit
# http://creativecommons.org/licenses/by-nc-sa/4.0/
# or send a letter to
# Creative Commons, PO Box 1866, Mountain View, CA 94042, USA.
#
# CIF created using the CSD Python API on 29 September 2022
# The structure has been converted into the P1 space group
# The structure has a 3D framework
# The original CSD entry VUCDAA is in the rhombohedral crystal system
# The framework has been calculated to contain at least 10.0% void space
# The void calculation uses a probe of radius 1.32A, grid spacing 0.4
#
###############################################################################

data_VUCDAA
_chemical_formula_moiety         '(C54 H90 Co6 N18 Nd20 O68 6+)n'
_symmetry_cell_setting           triclinic
_symmetry_space_group_name_H-M   'P 1'
_symmetry_Int_Tables_number      1
_space_group_name_Hall           'P 1'
loop_
_symmetry_equiv_pos_site_id
_symmetry_equiv_pos_as_xyz
1 x,y,z
_cell_length_a                   10.2386(5)
_cell_length_b                   10.2386(5)
_cell_length_c                   31.013(3)
_cell_angle_alpha                90
_cell_angle_beta                 90
_cell_angle_gamma                120
_cell_volume                     2815.5
loop_
_atom_site_label
_atom_site_type_symbol
_atom_site_fract_x
_atom_site_fract_y
_atom_site_fract_z
Nd1 Nd 0.0000 0.0000 0.0000
Nd2 Nd 0.0000 -0.0000 0.131880(3)
O1 O 0.27699(15) 0.09118(17) 0.02120(4)
O2 O 0.16173(12) 0.15617(13) 0.06997(4)
O3 O 0.25427(12) 0.00638(14) 0.13160(4)
O4 O 0.49723(13) 0.14376(14) 0.14898(4)
C1 C 0.27795(15) 0.15146(16) 0.05656(4)
C2 C 0.41571(16) 0.21365(17) 0.08514(5)
H1 H 0.4435 0.3151 0.0941
H2 H 0.4993 0.2190 0.0690
C3 C 0.38618(15) 0.11475(15) 0.12496(4)
Nd9 Nd 0.6667 0.3333 0.201453(3)
O28 O 0.16944(13) 0.18957(14) 0.18435(4)
Nd1_2 Nd 0.0000 -0.0000 1.0000
Nd3 Nd 0.0000 0.0000 0.868120(3)
O21 O 0.18581(23) 0.27699(15) 0.97880(4)
O22 O 0.00556(18) 0.16173(12) 0.93003(4)
O23 O 0.24789(18) 0.25427(12) 0.86840(4)
O24 O 0.35347(19) 0.49723(13) 0.85102(4)
C16 C 0.12649(22) 0.27795(15) 0.94344(4)
C17 C 0.20206(23) 0.41571(16) 0.91486(5)
H11 H 0.1284 0.4435 0.9059
H12 H 0.2803 0.4993 0.9310
C18 C 0.27143(21) 0.38618(15) 0.87504(4)
Nd6 Nd 0.3333 0.6667 0.798547(3)
O26 O 0.18957(14) 0.02014(19) 0.81565(4)
Nd1_3 Nd 0.0000 1.0000 0.0000
Nd2_2 Nd 0.0000 1.0000 0.131880(3)
O30 O 0.02014(19) 0.83056(13) 0.18435(4)
Nd1_4 Nd 0.0000 1.0000 1.0000
Nd3_2 Nd 0.0000 1.0000 0.868120(3)
O17 O 0.09118(17) 0.81419(23) 0.97880(4)
O18 O 0.15617(13) 0.99444(18) 0.93003(4)
O19 O 0.00638(14) 0.75211(18) 0.86840(4)
O20 O 0.14376(14) 0.64653(19) 0.85102(4)
C13 C 0.15146(16) 0.87351(22) 0.94344(4)
C14 C 0.21365(17) 0.79794(23) 0.91486(5)
H9 H 0.3151 0.8716 0.9059
H10 H 0.2190 0.7197 0.9310
C15 C 0.11475(15) 0.72857(21) 0.87504(4)
Nd1_5 Nd 1.0000 0.0000 0.0000
Nd2_3 Nd 1.0000 -0.0000 0.131880(3)
O5 O 0.90882(17) 0.18581(23) 0.02120(4)
O6 O 0.84383(13) 0.00556(18) 0.06997(4)
O7 O 0.99362(14) 0.24789(18) 0.13160(4)
O8 O 0.85624(14) 0.35347(19) 0.14898(4)
C4 C 0.84854(16) 0.12649(22) 0.05656(4)
C5 C 0.78635(17) 0.20206(23) 0.08514(5)
H3 H 0.6849 0.1284 0.0941
H4 H 0.7810 0.2803 0.0690
C6 C 0.88525(15) 0.27143(21) 0.12496(4)
Nd1_6 Nd 1.0000 -0.0000 1.0000
Nd3_3 Nd 1.0000 0.0000 0.868120(3)
O27 O 0.97986(19) 0.16944(13) 0.81565(4)
Nd1_7 Nd 1.0000 1.0000 0.0000
Nd2_4 Nd 1.0000 1.0000 0.131880(3)
O9 O 0.81419(23) 0.72301(15) 0.02120(4)
O10 O 0.99444(18) 0.83827(12) 0.06997(4)
O11 O 0.75211(18) 0.74573(12) 0.13160(4)
O12 O 0.64653(19) 0.50277(13) 0.14898(4)
C7 C 0.87351(22) 0.72205(15) 0.05656(4)
C8 C 0.79794(23) 0.58429(16) 0.08514(5)
H5 H 0.8716 0.5565 0.0941
H6 H 0.7197 0.5007 0.0690
C9 C 0.72857(21) 0.61382(15) 0.12496(4)
O29 O 0.81043(14) 0.97986(19) 0.18435(4)
Nd1_8 Nd 1.0000 1.0000 1.0000
Nd3_4 Nd 1.0000 1.0000 0.868120(3)
O13 O 0.72301(15) 0.90882(17) 0.97880(4)
O14 O 0.83827(12) 0.84383(13) 0.93003(4)
O15 O 0.74573(12) 0.99362(14) 0.86840(4)
O16 O 0.50277(13) 0.85624(14) 0.85102(4)
C10 C 0.72205(15) 0.84854(16) 0.94344(4)
C11 C 0.58429(16) 0.78635(17) 0.91486(5)
H7 H 0.5565 0.6849 0.9059
H8 H 0.5007 0.7810 0.9310
C12 C 0.61382(15) 0.88525(15) 0.87504(4)
O25 O 0.83056(13) 0.81043(14) 0.81565(4)
O4_2 O 0.16390(13) 0.47709(14) 0.48231(4)
C2_2 C 0.08238(16) 0.54698(17) 0.41847(5)
H1_2 H 0.1102 0.6484 0.4274
H2_2 H 0.1660 0.5523 0.4023
C3_2 C 0.05285(15) 0.44808(15) 0.45829(4)
Nd9_2 Nd 0.3333 0.6667 0.534787(3)
Nd1_9 Nd 0.6667 0.3333 0.3333
Nd2_5 Nd 0.6667 0.3333 0.465213(3)
O1_2 O 0.94366(15) 0.42451(17) 0.35453(4)
O2_2 O 0.82840(12) 0.48950(13) 0.40330(4)
O3_2 O 0.92094(12) 0.33971(14) 0.46493(4)
C1_2 C 0.94462(15) 0.48479(16) 0.38989(4)
O5_2 O 0.57549(17) 0.51914(23) 0.35453(4)
O6_2 O 0.51050(13) 0.33889(18) 0.40330(4)
O7_2 O 0.66029(14) 0.58122(18) 0.46493(4)
O8_2 O 0.52291(14) 0.68680(19) 0.48231(4)
C4_2 C 0.51521(16) 0.45982(22) 0.38989(4)
C5_2 C 0.45302(17) 0.53539(23) 0.41847(5)
H3_2 H 0.3516 0.4617 0.4274
H4_2 H 0.4477 0.6136 0.4023
C6_2 C 0.55192(15) 0.60476(21) 0.45829(4)
O9_2 O 0.48086(23) 0.05634(15) 0.35453(4)
O10_2 O 0.66111(18) 0.17160(12) 0.40330(4)
O11_2 O 0.41878(18) 0.07906(12) 0.46493(4)
C7_2 C 0.54018(22) 0.05538(15) 0.38989(4)
O13_2 O 0.38968(15) 0.24215(17) 0.31213(4)
O14_2 O 0.50494(12) 0.17716(13) 0.26336(4)
O15_2 O 0.41240(12) 0.32695(14) 0.20173(4)
C10_2 C 0.38872(15) 0.18187(16) 0.27677(4)
C11_2 C 0.25096(16) 0.11968(17) 0.24819(5)
H7_2 H 0.2232 0.0182 0.2392
H8_2 H 0.1674 0.1143 0.2643
C12_2 C 0.28049(15) 0.21858(15) 0.20837(4)
O17_2 O 0.75785(17) 0.14752(23) 0.31213(4)
O18_2 O 0.82284(13) 0.32777(18) 0.26336(4)
O19_2 O 0.67305(14) 0.08544(18) 0.20173(4)
C13_2 C 0.81813(16) 0.20684(22) 0.27677(4)
C14_2 C 0.88032(17) 0.13127(23) 0.24819(5)
H9_2 H 0.9818 0.2049 0.2392
H10_2 H 0.8857 0.0530 0.2643
C15_2 C 0.78142(15) 0.06190(21) 0.20837(4)
O21_2 O 0.85248(23) 0.61032(15) 0.31213(4)
O22_2 O 0.67223(18) 0.49506(12) 0.26336(4)
O23_2 O 0.91456(18) 0.58760(12) 0.20173(4)
C16_2 C 0.79316(22) 0.61128(15) 0.27677(4)
C17_2 C 0.86873(23) 0.74904(16) 0.24819(5)
H11_2 H 0.7951 0.7768 0.2392
H12_2 H 0.9470 0.8326 0.2643
C18_2 C 0.93810(21) 0.71951(15) 0.20837(4)
O28_2 O 0.83610(13) 0.52291(14) 0.51769(4)
O29_2 O 0.47709(14) 0.31320(19) 0.51769(4)
O30_2 O 0.68680(19) 0.16390(13) 0.51769(4)
O12_2 O 0.31320(19) 0.83610(13) 0.48231(4)
C8_2 C 0.46461(23) 0.91762(16) 0.41847(5)
H5_2 H 0.5383 0.8898 0.4274
H6_2 H 0.3864 0.8340 0.4023
C9_2 C 0.39524(21) 0.94715(15) 0.45829(4)
C17_3 C 0.53539(23) 0.08238(16) 0.58153(5)
H11_3 H 0.4617 0.1102 0.5726
H12_3 H 0.6136 0.1660 0.5977
C18_3 C 0.60476(21) 0.05285(15) 0.54171(4)
Nd1_10 Nd 0.3333 0.6667 0.6667
O1_3 O 0.61032(15) 0.75785(17) 0.68787(4)
O2_3 O 0.49506(12) 0.82284(13) 0.73664(4)
O3_3 O 0.58760(12) 0.67305(14) 0.79827(4)
C1_3 C 0.61128(15) 0.81813(16) 0.72323(4)
C2_3 C 0.74904(16) 0.88032(17) 0.75181(5)
H1_3 H 0.7768 0.9818 0.7608
H2_3 H 0.8326 0.8857 0.7357
C3_3 C 0.71951(15) 0.78142(15) 0.79163(4)
O5_3 O 0.24215(17) 0.85248(23) 0.68787(4)
O6_3 O 0.17716(13) 0.67223(18) 0.73664(4)
O7_3 O 0.32695(14) 0.91456(18) 0.79827(4)
C4_3 C 0.18187(16) 0.79316(22) 0.72323(4)
C5_3 C 0.11968(17) 0.86873(23) 0.75181(5)
H3_3 H 0.0182 0.7951 0.7608
H4_3 H 0.1143 0.9470 0.7357
C6_3 C 0.21858(15) 0.93810(21) 0.79163(4)
O9_3 O 0.14752(23) 0.38968(15) 0.68787(4)
O10_3 O 0.32777(18) 0.50494(12) 0.73664(4)
O11_3 O 0.08544(18) 0.41240(12) 0.79827(4)
C7_3 C 0.20684(22) 0.38872(15) 0.72323(4)
C8_3 C 0.13127(23) 0.25096(16) 0.75181(5)
H5_3 H 0.2049 0.2232 0.7608
H6_3 H 0.0530 0.1674 0.7357
C9_3 C 0.06190(21) 0.28049(15) 0.79163(4)
O13_3 O 0.05634(15) 0.57549(17) 0.64547(4)
O14_3 O 0.17160(12) 0.51050(13) 0.59670(4)
O15_3 O 0.07906(12) 0.66029(14) 0.53507(4)
C10_3 C 0.05538(15) 0.51521(16) 0.61011(4)
O17_3 O 0.42451(17) 0.48086(23) 0.64547(4)
O18_3 O 0.48950(13) 0.66111(18) 0.59670(4)
O19_3 O 0.33971(14) 0.41878(18) 0.53507(4)
C13_3 C 0.48479(16) 0.54018(22) 0.61011(4)
C14_3 C 0.54698(17) 0.46461(23) 0.58153(5)
H9_3 H 0.6484 0.5383 0.5726
H10_3 H 0.5523 0.3864 0.5977
C15_3 C 0.44808(15) 0.39524(21) 0.54171(4)
O21_3 O 0.51914(23) 0.94366(15) 0.64547(4)
O22_3 O 0.33889(18) 0.82840(12) 0.59670(4)
O23_3 O 0.58122(18) 0.92094(12) 0.53507(4)
C16_3 C 0.45982(22) 0.94462(15) 0.61011(4)
C11_3 C 0.91762(16) 0.45302(17) 0.58153(5)
H7_3 H 0.8898 0.3516 0.5726
H8_3 H 0.8340 0.4477 0.5977
C12_3 C 0.94715(15) 0.55192(15) 0.54171(4)
Co1 Co 0.3333 0.6667 0.1667
N1 N 0.33649(18) 0.50882(17) 0.13053(5)
H13 H 0.2701 0.4182 0.1407
H14 H 0.4284 0.5198 0.1311
H15 H 0.3125 0.5175 0.1035
N2 N 0.49118(17) 0.82767(25) 0.13053(5)
H16 H 0.5818 0.8519 0.1407
H17 H 0.4802 0.9086 0.1311
H18 H 0.4825 0.7950 0.1035
N3 N 0.17233(25) 0.66351(18) 0.13053(5)
H19 H 0.1481 0.7299 0.1407
H20 H 0.0914 0.5716 0.1311
H21 H 0.2050 0.6875 0.1035
N4 N 0.33018(18) 0.82451(17) 0.20280(5)
H22 H 0.3966 0.9151 0.1926
H23 H 0.2383 0.8135 0.2022
H24 H 0.3542 0.8158 0.2298
N5 N 0.17549(17) 0.50566(25) 0.20280(5)
H25 H 0.0849 0.4814 0.1926
H26 H 0.1865 0.4247 0.2022
H27 H 0.1842 0.5383 0.2298
N6 N 0.49434(25) 0.66982(18) 0.20280(5)
H28 H 0.5186 0.6034 0.1926
H29 H 0.5753 0.7617 0.2022
H30 H 0.4617 0.6458 0.2298
Co1_2 Co -0.0000 0.0000 0.5000
N2_2 N 0.15785(17) 0.16100(25) 0.46386(5)
H16_2 H 0.2485 0.1852 0.4740
H17_2 H 0.1469 0.2419 0.4644
H18_2 H 0.1492 0.1283 0.4368
H22_2 H 0.0632 0.2485 0.5260
H24_2 H 0.0208 0.1492 0.5632
N6_2 N 0.16100(25) 0.00316(18) 0.53614(5)
H29_2 H 0.2419 0.0951 0.5356
Co1_3 Co -0.0000 1.0000 0.5000
N1_2 N 0.00316(18) 0.84215(17) 0.46386(5)
H14_2 H 0.0951 0.8531 0.4644
H28_2 H 0.1852 0.9368 0.5260
H30_2 H 0.1283 0.9792 0.5632
Co1_4 Co 1.0000 0.0000 0.5000
H19_2 H 0.8148 0.0632 0.4740
H21_2 H 0.8717 0.0208 0.4368
N4_2 N 0.99684(18) 0.15785(17) 0.53614(5)
H23_2 H 0.9049 0.1469 0.5356
Co1_5 Co 1.0000 1.0000 0.5000
H13_2 H 0.9368 0.7515 0.4740
H15_2 H 0.9792 0.8508 0.4368
N3_2 N 0.83900(25) 0.99684(18) 0.46386(5)
H20_2 H 0.7581 0.9049 0.4644
N5_2 N 0.84215(17) 0.83900(25) 0.53614(5)
H25_2 H 0.7515 0.8148 0.5260
H26_2 H 0.8531 0.7581 0.5356
H27_2 H 0.8508 0.8717 0.5632
Co1_6 Co 0.6666 0.3334 0.8334
N1_3 N 0.66982(18) 0.17549(17) 0.79720(5)
H13_3 H 0.6034 0.0849 0.8074
H14_3 H 0.7617 0.1865 0.7978
H15_3 H 0.6458 0.1842 0.7702
N2_3 N 0.82451(17) 0.49434(25) 0.79720(5)
H16_3 H 0.9151 0.5186 0.8074
H17_3 H 0.8135 0.5753 0.7978
H18_3 H 0.8158 0.4617 0.7702
N3_3 N 0.50566(25) 0.33018(18) 0.79720(5)
H19_3 H 0.4814 0.3966 0.8074
H20_3 H 0.4247 0.2383 0.7978
H21_3 H 0.5383 0.3542 0.7702
N4_3 N 0.66351(18) 0.49118(17) 0.86947(5)
H22_3 H 0.7299 0.5818 0.8593
H23_3 H 0.5716 0.4802 0.8689
H24_3 H 0.6875 0.4825 0.8965
N5_3 N 0.50882(17) 0.17233(25) 0.86947(5)
H25_3 H 0.4182 0.1481 0.8593
H26_3 H 0.5198 0.0914 0.8689
H27_3 H 0.5175 0.2050 0.8965
N6_3 N 0.82767(25) 0.33649(18) 0.86947(5)
H28_3 H 0.8519 0.2701 0.8593
H29_3 H 0.9086 0.4284 0.8689
H30_3 H 0.7950 0.3125 0.8965
loop_
_geom_bond_atom_site_label_1
_geom_bond_atom_site_label_2
_geom_bond_site_symmetry_1
_geom_bond_site_symmetry_2
Nd1 O1 1_555 1_555
Nd2 O2 1_555 1_555
O1 C1 1_555 1_555
O2 Nd1 1_555 1_555
O3 Nd2 1_555 1_555
O4 C3 1_555 1_555
C1 O2 1_555 1_555
C2 C1 1_555 1_555
H1 C2 1_555 1_555
H2 C2 1_555 1_555
C3 O3 1_555 1_555
Nd9 O4 1_555 1_555
O28 Nd2 1_555 1_555
C2 C3 1_555 1_555
O21 Nd1_2 1_555 1_555
O22 Nd1_2 1_555 1_555
O23 Nd3 1_555 1_555
O24 C18 1_555 1_555
C16 O21 1_555 1_555
C17 C16 1_555 1_555
H11 C17 1_555 1_555
H12 C17 1_555 1_555
C18 O23 1_555 1_555
Nd6 O24 1_555 1_555
O26 Nd3 1_555 1_555
Nd3 O22 1_555 1_555
O22 C16 1_555 1_555
C17 C18 1_555 1_555
O30 Nd2_2 1_555 1_555
O17 Nd1_4 1_555 1_555
O18 Nd1_4 1_555 1_555
O19 Nd3_2 1_555 1_555
O20 C15 1_555 1_555
C13 O17 1_555 1_555
C14 C13 1_555 1_555
H9 C14 1_555 1_555
H10 C14 1_555 1_555
C15 O19 1_555 1_555
Nd6 O20 1_555 1_555
Nd3_2 O18 1_555 1_555
O18 C13 1_555 1_555
C14 C15 1_555 1_555
O5 Nd1_5 1_555 1_555
O6 Nd1_5 1_555 1_555
O7 Nd2_3 1_555 1_555
O8 C6 1_555 1_555
C4 O5 1_555 1_555
C5 C4 1_555 1_555
H3 C5 1_555 1_555
H4 C5 1_555 1_555
C6 O7 1_555 1_555
Nd9 O8 1_555 1_555
Nd2_3 O6 1_555 1_555
O6 C4 1_555 1_555
C5 C6 1_555 1_555
O27 Nd3_3 1_555 1_555
O9 Nd1_7 1_555 1_555
O10 Nd1_7 1_555 1_555
O11 Nd2_4 1_555 1_555
O12 C9 1_555 1_555
C7 O9 1_555 1_555
C8 C7 1_555 1_555
H5 C8 1_555 1_555
H6 C8 1_555 1_555
C9 O11 1_555 1_555
Nd9 O12 1_555 1_555
O29 Nd2_4 1_555 1_555
Nd2_4 O10 1_555 1_555
O10 C7 1_555 1_555
C8 C9 1_555 1_555
Nd3_4 O14 1_555 1_555
O13 Nd1_8 1_555 1_555
O14 Nd1_8 1_555 1_555
O15 Nd3_4 1_555 1_555
O16 C12 1_555 1_555
C10 O13 1_555 1_555
C11 C10 1_555 1_555
H7 C11 1_555 1_555
H8 C11 1_555 1_555
C12 O15 1_555 1_555
Nd6 O16 1_555 1_555
O25 Nd3_4 1_555 1_555
O14 C10 1_555 1_555
C11 C12 1_555 1_555
O4_2 C3_2 1_555 1_555
H1_2 C2_2 1_555 1_555
H2_2 C2_2 1_555 1_555
Nd9_2 O4_2 1_555 1_555
C2_2 C3_2 1_555 1_555
Nd1_9 O1_2 1_555 1_555
Nd2_5 O2_2 1_555 1_555
O1_2 C1_2 1_555 1_555
O2_2 Nd1_9 1_555 1_555
O3_2 Nd2_5 1_555 1_555
C1_2 O2_2 1_555 1_555
O5_2 Nd1_9 1_555 1_555
O6_2 Nd1_9 1_555 1_555
O7_2 Nd2_5 1_555 1_555
O8_2 C6_2 1_555 1_555
C4_2 O5_2 1_555 1_555
C5_2 C4_2 1_555 1_555
H3_2 C5_2 1_555 1_555
H4_2 C5_2 1_555 1_555
C6_2 O7_2 1_555 1_555
O9_2 Nd1_9 1_555 1_555
O10_2 Nd1_9 1_555 1_555
O11_2 Nd2_5 1_555 1_555
C7_2 O9_2 1_555 1_555
Nd9 O14_2 1_555 1_555
O13_2 Nd1_9 1_555 1_555
O14_2 Nd1_9 1_555 1_555
O15_2 Nd9 1_555 1_555
O28 C12_2 1_555 1_555
C10_2 O13_2 1_555 1_555
C11_2 C10_2 1_555 1_555
H7_2 C11_2 1_555 1_555
H8_2 C11_2 1_555 1_555
C12_2 O15_2 1_555 1_555
O17_2 Nd1_9 1_555 1_555
O18_2 Nd1_9 1_555 1_555
O19_2 Nd9 1_555 1_555
C13_2 O17_2 1_555 1_555
C14_2 C13_2 1_555 1_555
H9_2 C14_2 1_555 1_555
H10_2 C14_2 1_555 1_555
C15_2 O19_2 1_555 1_555
O21_2 Nd1_9 1_555 1_555
O22_2 Nd1_9 1_555 1_555
O23_2 Nd9 1_555 1_555
C16_2 O21_2 1_555 1_555
C17_2 C16_2 1_555 1_555
H11_2 C17_2 1_555 1_555
H12_2 C17_2 1_555 1_555
C18_2 O23_2 1_555 1_555
Nd9_2 O8_2 1_555 1_555
O28_2 Nd2_5 1_555 1_555
O29_2 Nd2_5 1_555 1_555
O30_2 Nd2_5 1_555 1_555
Nd2_5 O6_2 1_555 1_555
Nd2_5 O10_2 1_555 1_555
O6_2 C4_2 1_555 1_555
C5_2 C6_2 1_555 1_555
O10_2 C7_2 1_555 1_555
Nd9 O18_2 1_555 1_555
Nd9 O22_2 1_555 1_555
O14_2 C10_2 1_555 1_555
C11_2 C12_2 1_555 1_555
O18_2 C13_2 1_555 1_555
C14_2 C15_2 1_555 1_555
O22_2 C16_2 1_555 1_555
C17_2 C18_2 1_555 1_555
O12_2 C9_2 1_555 1_555
H5_2 C8_2 1_555 1_555
H6_2 C8_2 1_555 1_555
Nd9_2 O12_2 1_555 1_555
C8_2 C9_2 1_555 1_555
O30_2 C18_3 1_555 1_555
H11_3 C17_3 1_555 1_555
H12_3 C17_3 1_555 1_555
C17_3 C18_3 1_555 1_555
Nd1_10 O1_3 1_555 1_555
Nd6 O2_3 1_555 1_555
O1_3 C1_3 1_555 1_555
O2_3 Nd1_10 1_555 1_555
O3_3 Nd6 1_555 1_555
O25 C3_3 1_555 1_555
C1_3 O2_3 1_555 1_555
C2_3 C1_3 1_555 1_555
H1_3 C2_3 1_555 1_555
H2_3 C2_3 1_555 1_555
C3_3 O3_3 1_555 1_555
O5_3 Nd1_10 1_555 1_555
O6_3 Nd1_10 1_555 1_555
O7_3 Nd6 1_555 1_555
C4_3 O5_3 1_555 1_555
C5_3 C4_3 1_555 1_555
H3_3 C5_3 1_555 1_555
H4_3 C5_3 1_555 1_555
C6_3 O7_3 1_555 1_555
O9_3 Nd1_10 1_555 1_555
O10_3 Nd1_10 1_555 1_555
O11_3 Nd6 1_555 1_555
C7_3 O9_3 1_555 1_555
C8_3 C7_3 1_555 1_555
H5_3 C8_3 1_555 1_555
H6_3 C8_3 1_555 1_555
C9_3 O11_3 1_555 1_555
Nd9_2 O14_3 1_555 1_555
O13_3 Nd1_10 1_555 1_555
O14_3 Nd1_10 1_555 1_555
O15_3 Nd9_2 1_555 1_555
C10_3 O13_3 1_555 1_555
O17_3 Nd1_10 1_555 1_555
O18_3 Nd1_10 1_555 1_555
O19_3 Nd9_2 1_555 1_555
O29_2 C15_3 1_555 1_555
C13_3 O17_3 1_555 1_555
C14_3 C13_3 1_555 1_555
H9_3 C14_3 1_555 1_555
H10_3 C14_3 1_555 1_555
C15_3 O19_3 1_555 1_555
O21_3 Nd1_10 1_555 1_555
O22_3 Nd1_10 1_555 1_555
O23_3 Nd9_2 1_555 1_555
C16_3 O21_3 1_555 1_555
Nd6 O6_3 1_555 1_555
Nd6 O10_3 1_555 1_555
C2_3 C3_3 1_555 1_555
O6_3 C4_3 1_555 1_555
C5_3 C6_3 1_555 1_555
O10_3 C7_3 1_555 1_555
C8_3 C9_3 1_555 1_555
Nd9_2 O18_3 1_555 1_555
Nd9_2 O22_3 1_555 1_555
O14_3 C10_3 1_555 1_555
O18_3 C13_3 1_555 1_555
C14_3 C15_3 1_555 1_555
O22_3 C16_3 1_555 1_555
O28_2 C12_3 1_555 1_555
H7_3 C11_3 1_555 1_555
H8_3 C11_3 1_555 1_555
C11_3 C12_3 1_555 1_555
Co1 N1 1_555 1_555
N1 H13 1_555 1_555
H14 N1 1_555 1_555
H15 N1 1_555 1_555
N2 Co1 1_555 1_555
H16 N2 1_555 1_555
H17 N2 1_555 1_555
H18 N2 1_555 1_555
N3 Co1 1_555 1_555
H19 N3 1_555 1_555
H20 N3 1_555 1_555
H21 N3 1_555 1_555
N4 Co1 1_555 1_555
H22 N4 1_555 1_555
H23 N4 1_555 1_555
H24 N4 1_555 1_555
N5 Co1 1_555 1_555
H25 N5 1_555 1_555
H26 N5 1_555 1_555
H27 N5 1_555 1_555
N6 Co1 1_555 1_555
H28 N6 1_555 1_555
H29 N6 1_555 1_555
H30 N6 1_555 1_555
N2_2 Co1_2 1_555 1_555
H16_2 N2_2 1_555 1_555
H17_2 N2_2 1_555 1_555
H18_2 N2_2 1_555 1_555
N6_2 Co1_2 1_555 1_555
H29_2 N6_2 1_555 1_555
Co1_3 N1_2 1_555 1_555
H14_2 N1_2 1_555 1_555
N4_2 Co1_4 1_555 1_555
H23_2 N4_2 1_555 1_555
N3_2 Co1_5 1_555 1_555
H20_2 N3_2 1_555 1_555
N5_2 Co1_5 1_555 1_555
H25_2 N5_2 1_555 1_555
H26_2 N5_2 1_555 1_555
H27_2 N5_2 1_555 1_555
Co1_6 N1_3 1_555 1_555
N1_3 H13_3 1_555 1_555
H14_3 N1_3 1_555 1_555
H15_3 N1_3 1_555 1_555
N2_3 Co1_6 1_555 1_555
H16_3 N2_3 1_555 1_555
H17_3 N2_3 1_555 1_555
H18_3 N2_3 1_555 1_555
N3_3 Co1_6 1_555 1_555
H19_3 N3_3 1_555 1_555
H20_3 N3_3 1_555 1_555
H21_3 N3_3 1_555 1_555
N4_3 Co1_6 1_555 1_555
H22_3 N4_3 1_555 1_555
H23_3 N4_3 1_555 1_555
H24_3 N4_3 1_555 1_555
N5_3 Co1_6 1_555 1_555
H25_3 N5_3 1_555 1_555
H26_3 N5_3 1_555 1_555
H27_3 N5_3 1_555 1_555
N6_3 Co1_6 1_555 1_555
H28_3 N6_3 1_555 1_555
H29_3 N6_3 1_555 1_555
H30_3 N6_3 1_555 1_555

#END
