
###############################################################################
#
# This file contains modified crystal structure data generated from the
# MOF subset of the Cambridge Structural Database (CSD) v543 
# hosted by the Cambridge Crystallographic Data Centre (CCDC).
#
# This work is licensed under the Creative Commons
# Attribution-NonCommercial-ShareAlike 4.0 International License.
# To view a copy of this license, visit
# http://creativecommons.org/licenses/by-nc-sa/4.0/
# or send a letter to
# Creative Commons, PO Box 1866, Mountain View, CA 94042, USA.
#
# CIF created using the CSD Python API on 29 September 2022
# The structure has been converted into the P1 space group
# The structure has a 3D framework
# The original CSD entry VUCFAD is in the hexagonal crystal system
# The framework has been calculated to contain at least 10.0% void space
# The void calculation uses a probe of radius 1.32A, grid spacing 0.4
# The framework is charged, counterions have been retained in the structure
# H atom positions have been added when not included in the experimental data
# Generated hydrogen atom positions removed from atoms on special positions
#
###############################################################################

data_VUCFAD
_chemical_formula_moiety         '(C24 H78 O32 Sc6 1+)n'
_symmetry_cell_setting           triclinic
_symmetry_space_group_name_H-M   'P 1'
_symmetry_Int_Tables_number      1
_space_group_name_Hall           'P 1'
loop_
_symmetry_equiv_pos_site_id
_symmetry_equiv_pos_as_xyz
1 x,y,z
_cell_length_a                   12.9522(18)
_cell_length_b                   12.9522(18)
_cell_length_c                   14.054(3)
_cell_angle_alpha                90
_cell_angle_beta                 90
_cell_angle_gamma                120
_cell_volume                     2041.82
loop_
_atom_site_label
_atom_site_type_symbol
_atom_site_fract_x
_atom_site_fract_y
_atom_site_fract_z
H4 H 0.0058 0.6078 0.0017
O10 O 0.1403(2) 0.6826(3) 0.85749(16)
C7 C 0.0220(3) 0.5503(4) 0.9780(2)
C8 C 0.0978(3) 0.5794(4) 0.8909(2)
O11 O 0.1144(3) 0.4998(4) 0.85735(15)
Sc5 Sc 0.22161(10) 0.48820(7) 0.7500
Sc9 Sc 0.26659(7) 0.77839(10) 0.7500
Sc1 Sc 0.48820(7) 0.26659(7) 0.2500
O1 O 0.3025(3) 0.2022(4) 0.2500
O2 O 0.4577(2) 0.1403(2) 0.14251(16)
O3 O 0.6146(2) 0.1144(3) 0.14265(15)
O4 O 0.6667 0.3333 0.2500
C1 C 0.4717(3) 0.0220(3) 0.0220(2)
C2 C 0.5184(3) 0.0978(3) 0.1091(2)
Sc2 Sc 0.73341(7) 0.22161(10) 0.2500
O7 O 0.7978(4) 0.1003(5) 0.2500
O8 O 0.8597(2) 0.3174(3) 0.14251(16)
O9 O 0.8856(3) 0.5002(4) 0.14265(15)
C5 C 0.9780(3) 0.4497(4) 0.0220(2)
C6 C 0.9022(3) 0.4206(4) 0.1091(2)
Sc3 Sc 0.77839(10) 0.51180(7) 0.2500
O12 O 0.8997(5) 0.6975(3) 0.2500
O13 O 0.6826(3) 0.5423(2) 0.14251(16)
O14 O 0.4998(4) 0.3854(2) 0.14265(15)
C9 C 0.5503(4) 0.5283(3) 0.0220(2)
C10 C 0.5794(4) 0.4816(3) 0.1091(2)
H6 H 0.3922 0.3980 0.0017
O17 O 0.6826(3) 0.5423(2) 0.35749(16)
O18 O 0.4577(2) 0.1403(2) 0.35749(16)
O19 O 0.8597(2) 0.3174(3) 0.35749(16)
O20 O 0.4998(4) 0.3854(2) 0.35735(15)
O21 O 0.6146(2) 0.1144(3) 0.35735(15)
O22 O 0.8856(3) 0.5002(4) 0.35735(15)
H1 H 0.3980 0.0058 0.9983
H3 H 0.9942 0.3922 0.9983
H5 H 0.6078 0.6020 0.9983
O15 O 0.3174(3) 0.4577(2) 0.85749(16)
C11 C 0.4497(4) 0.4717(3) 0.9780(2)
C12 C 0.4206(4) 0.5184(3) 0.8909(2)
O16 O 0.5002(4) 0.6146(2) 0.85735(15)
Sc7 Sc 0.51180(7) 0.73341(7) 0.7500
H2 H 0.6020 0.9942 0.0017
O5 O 0.5423(2) 0.8597(2) 0.85749(16)
C3 C 0.5283(3) 0.9780(3) 0.9780(2)
C4 C 0.4816(3) 0.9022(3) 0.8909(2)
O6 O 0.3854(2) 0.8856(3) 0.85735(15)
C7_2 C 0.4717(5) 0.0220(3) 0.4780(2)
H4_2 H 0.3980 0.0058 0.5017
C8_2 C 0.5184(5) 0.0978(3) 0.3909(2)
O1_2 O 0.1003(5) 0.3025(3) 0.7500
O2_2 O 0.3174(3) 0.4577(2) 0.64251(16)
O3_2 O 0.5002(4) 0.6146(2) 0.64265(15)
O4_2 O 0.3334 0.6667 0.7500
C1_2 C 0.4497(4) 0.4717(3) 0.5220(2)
H1_2 H 0.3922 0.3980 0.4983
C2_2 C 0.4206(4) 0.5184(3) 0.6091(2)
C3_2 C 0.5503(4) 0.5283(3) 0.4780(2)
H2_2 H 0.6078 0.6020 0.5017
C4_2 C 0.5794(4) 0.4816(3) 0.3909(2)
O7_2 O 0.6975(6) 0.7978(4) 0.7500
O8_2 O 0.5423(4) 0.8597(2) 0.64251(16)
O9_2 O 0.3854(5) 0.8856(3) 0.64265(15)
C5_2 C 0.5283(5) 0.9780(3) 0.5220(2)
H3_2 H 0.6020 0.9942 0.4983
C6_2 C 0.4816(5) 0.9022(3) 0.6091(2)
O12_2 O 0.2022(6) 0.8997(5) 0.7500
O13_2 O 0.1403(4) 0.6826(3) 0.64251(16)
O14_2 O 0.1144(4) 0.4998(4) 0.64265(15)
C9_2 C 0.0220(5) 0.5503(4) 0.5220(2)
H5_2 H 0.0058 0.6078 0.4983
C10_2 C 0.0978(5) 0.5794(4) 0.6091(2)
C11_2 C 0.9780(5) 0.4497(4) 0.4780(2)
H6_2 H 0.9942 0.3922 0.5017
C12_2 C 0.9022(5) 0.4206(4) 0.3909(2)
loop_
_geom_bond_atom_site_label_1
_geom_bond_atom_site_label_2
_geom_bond_site_symmetry_1
_geom_bond_site_symmetry_2
O10 C8 1_555 1_555
C8 C7 1_555 1_555
O11 C8 1_555 1_555
Sc5 O11 1_555 1_555
Sc9 O10 1_555 1_555
Sc1 O1 1_555 1_555
O2 Sc1 1_555 1_555
O3 C2 1_555 1_555
O4 Sc1 1_555 1_555
C2 O2 1_555 1_555
Sc2 O3 1_555 1_555
O7 Sc2 1_555 1_555
O8 Sc2 1_555 1_555
O9 C6 1_555 1_555
C6 O8 1_555 1_555
Sc3 O4 1_555 1_555
O12 Sc3 1_555 1_555
O13 Sc3 1_555 1_555
O14 Sc1 1_555 1_555
C10 O13 1_555 1_555
O17 Sc3 1_555 1_555
O18 Sc1 1_555 1_555
O19 Sc2 1_555 1_555
O20 Sc1 1_555 1_555
O21 Sc2 1_555 1_555
O22 Sc3 1_555 1_555
O4 Sc2 1_555 1_555
C1 C2 1_555 1_555
O9 Sc3 1_555 1_555
C5 C6 1_555 1_555
O14 C10 1_555 1_555
C9 C10 1_555 1_555
O15 C12 1_555 1_555
C12 C11 1_555 1_555
O16 C12 1_555 1_555
Sc5 O15 1_555 1_555
Sc7 O16 1_555 1_555
O5 C4 1_555 1_555
C4 C3 1_555 1_555
O6 C4 1_555 1_555
Sc7 O5 1_555 1_555
Sc9 O6 1_555 1_555
O18 C8_2 1_555 1_555
H4_2 C7_2 1_555 1_555
C8_2 C7_2 1_555 1_555
O21 C8_2 1_555 1_555
Sc5 O1_2 1_555 1_555
O2_2 Sc5 1_555 1_555
O3_2 C2_2 1_555 1_555
O4_2 Sc5 1_555 1_555
C1_2 H1_2 1_555 1_555
C2_2 O2_2 1_555 1_555
O17 C4_2 1_555 1_555
C3_2 C1_2 1_555 1_555
H2_2 C3_2 1_555 1_555
C4_2 C3_2 1_555 1_555
O20 C4_2 1_555 1_555
Sc7 O3_2 1_555 1_555
O7_2 Sc7 1_555 1_555
O8_2 Sc7 1_555 1_555
O9_2 C6_2 1_555 1_555
C5_2 H3_2 1_555 1_555
C6_2 O8_2 1_555 1_555
Sc9 O4_2 1_555 1_555
O12_2 Sc9 1_555 1_555
O13_2 Sc9 1_555 1_555
O14_2 Sc5 1_555 1_555
C9_2 H5_2 1_555 1_555
C10_2 O13_2 1_555 1_555
O4_2 Sc7 1_555 1_555
C1_2 C2_2 1_555 1_555
O9_2 Sc9 1_555 1_555
C5_2 C6_2 1_555 1_555
O14_2 C10_2 1_555 1_555
C9_2 C10_2 1_555 1_555
O19 C12_2 1_555 1_555
H6_2 C11_2 1_555 1_555
C12_2 C11_2 1_555 1_555
O22 C12_2 1_555 1_555

#END
