
###############################################################################
#
# This file contains modified crystal structure data generated from the
# MOF subset of the Cambridge Structural Database (CSD) v543 
# hosted by the Cambridge Crystallographic Data Centre (CCDC).
#
# This work is licensed under the Creative Commons
# Attribution-NonCommercial-ShareAlike 4.0 International License.
# To view a copy of this license, visit
# http://creativecommons.org/licenses/by-nc-sa/4.0/
# or send a letter to
# Creative Commons, PO Box 1866, Mountain View, CA 94042, USA.
#
# CIF created using the CSD Python API on 29 September 2022
# The structure has been converted into the P1 space group
# The structure has a 3D framework
# The original CSD entry VUCTUK is in the triclinic crystal system
# The framework has been calculated to contain at least 10.0% void space
# The void calculation uses a probe of radius 1.32A, grid spacing 0.4
# The framework is charged, counterions have been retained in the structure
#
###############################################################################

data_VUCTUK
_chemical_formula_moiety         '(C6 H6 Mn4 O19 P2 2-)n'
_symmetry_cell_setting           triclinic
_symmetry_space_group_name_H-M   'P 1'
_symmetry_Int_Tables_number      1
_space_group_name_Hall           'P 1'
loop_
_symmetry_equiv_pos_site_id
_symmetry_equiv_pos_as_xyz
1 x,y,z
_cell_length_a                   7.7895(3)
_cell_length_b                   8.0754(5)
_cell_length_c                   9.7286(6)
_cell_angle_alpha                75.902(5)
_cell_angle_beta                 79.142(4)
_cell_angle_gamma                86.695(4)
_cell_volume                     582.859
loop_
_atom_site_label
_atom_site_type_symbol
_atom_site_fract_x
_atom_site_fract_y
_atom_site_fract_z
_atom_site_U_iso_or_equiv
_atom_site_thermal_displace_type
O6 O 0.0887(4) 0.1403(4) 0.2918(4) 0.0269 Uani
O8 O 0.1601(4) 0.4357(4) 0.3501(4) 0.0262 Uani
C2 C 0.0212(6) 0.4301(5) 0.3055(5) 0.0202 Uani
Mn8 Mn 0.32238(8) 0.19107(8) 0.37035(7) 0.0172 Uani
Mn1 Mn 0.65797(8) 0.46703(8) 0.25269(7) 0.0163 Uani
P1 P 0.57321(13) 0.23023(13) 0.59513(11) 0.0164 Uani
O1 O 0.5229(4) 0.2959(4) 0.4458(3) 0.0217 Uani
O2 O 0.4647(4) 0.3139(4) 0.7056(3) 0.0276 Uani
O3 O 0.5603(4) 0.0398(4) 0.6451(3) 0.0250 Uani
O4 O 0.7721(4) 0.2760(4) 0.5772(4) 0.0275 Uani
H1 H 0.7792 0.3601 0.6090 0.0410 Uiso
O5 O 0.8455(4) 0.2567(4) 0.2217(4) 0.0264 Uani
O7 O 0.9112(4) 0.5479(4) 0.2853(4) 0.0268 Uani
O9 O 0.4674(4) 0.3473(4) 0.1635(3) 0.0209 Uani
O11 O 0.1712(8) 0.1257(8) 0.5920(5) 0.0866 Uani
H2 H 0.0852 0.0629 0.5971 0.1300 Uiso
H3 H 0.2438 0.0599 0.6343 0.1300 Uiso
C1 C 0.9820(6) 0.2611(5) 0.2691(5) 0.0204 Uani
C3 C 0.4338(5) 0.4273(5) 0.0420(4) 0.0187 Uani
O13 O 0.6869(4) 0.5983(4) 0.0156(3) 0.0244 Uani
Mn7 Mn 0.34203(8) 0.53297(8) 0.74731(7) 0.0163 Uani
O24 O 0.5353(4) 0.6861(4) 0.2944(3) 0.0276 Uani
O10 O 0.3131(4) 0.4017(4) 0.9844(3) 0.0244 Uani
O12 O 0.5326(4) 0.6527(4) 0.8365(3) 0.0209 Uani
C4 C 0.5662(5) 0.5727(5) 0.9580(4) 0.0187 Uani
Mn10 Mn 0.67762(8) 0.80893(8) 0.62965(7) 0.0172 Uani
P2 P 0.42679(13) 0.76977(13) 0.40487(11) 0.0164 Uani
O14 O 0.4771(4) 0.7041(4) 0.5542(3) 0.0217 Uani
O16 O 0.4397(4) 0.9602(4) 0.3549(3) 0.0250 Uani
O17 O 0.2279(4) 0.7240(4) 0.4228(4) 0.0275 Uani
H4 H 0.2208 0.6399 0.3910 0.0410 Uiso
O18 O 0.1545(4) 0.7433(4) 0.7783(4) 0.0264 Uani
O20 O 0.0888(4) 0.4521(4) 0.7147(4) 0.0268 Uani
O22 O 0.8288(8) 0.8743(8) 0.4080(5) 0.0866 Uani
H5 H 0.9148 0.9371 0.4029 0.1300 Uiso
H6 H 0.7562 0.9401 0.3657 0.1300 Uiso
C5 C 0.0180(6) 0.7389(5) 0.7309(5) 0.0204 Uani
O26 O 0.9113(4) 0.8597(4) 0.7082(4) 0.0269 Uani
O28 O 0.8399(4) 0.5643(4) 0.6499(4) 0.0262 Uani
C6 C 0.9788(6) 0.5699(5) 0.6945(5) 0.0202 Uani
loop_
_atom_site_aniso_label
_atom_site_aniso_U_11
_atom_site_aniso_U_22
_atom_site_aniso_U_33
_atom_site_aniso_U_23
_atom_site_aniso_U_13
_atom_site_aniso_U_12
O6 0.027 0.0193 0.0424 -0.0151 -0.0181 0.0079
O8 0.0228 0.021 0.0399 -0.0119 -0.0131 0.0027
C2 0.02 0.018 0.021 -0.0032 -0.0015 -0.0012
Mn8 0.0188 0.013 0.0206 -0.0034 -0.0071 0.0019
Mn1 0.0178 0.0146 0.0176 -0.0042 -0.0062 0.0027
P1 0.0196 0.0137 0.017 -0.0046 -0.0061 0.0034
O1 0.0254 0.0215 0.0189 -0.0027 -0.0071 -0.0047
O2 0.0389 0.0211 0.0227 -0.0074 -0.0059 0.0121
O3 0.0318 0.0146 0.0291 -0.0051 -0.0088 0.006
O4 0.0252 0.0294 0.0321 -0.0123 -0.0089 -0.0018
O5 0.0241 0.0272 0.0371 -0.0191 -0.0168 0.0115
O7 0.0208 0.0152 0.045 -0.0069 -0.0087 0.0038
O9 0.0251 0.0223 0.0144 0.0011 -0.0079 -0.0016
O11 0.106 0.127 0.027 -0.019 0.015 -0.089
C1 0.022 0.02 0.021 -0.0086 -0.0039 0.0015
C3 0.021 0.018 0.0166 -0.0046 -0.0022 0.0021
O13 0.0268 0.0289 0.0178 -0.0007 -0.0098 -0.004
Mn7 0.0178 0.0146 0.0176 -0.0042 -0.0062 0.0027
O24 0.0389 0.0211 0.0227 -0.0074 -0.0059 0.0121
O10 0.0268 0.0289 0.0178 -0.0007 -0.0098 -0.004
O12 0.0251 0.0223 0.0144 0.0011 -0.0079 -0.0016
C4 0.021 0.018 0.0166 -0.0046 -0.0022 0.0021
Mn10 0.0188 0.013 0.0206 -0.0034 -0.0071 0.0019
P2 0.0196 0.0137 0.017 -0.0046 -0.0061 0.0034
O14 0.0254 0.0215 0.0189 -0.0027 -0.0071 -0.0047
O16 0.0318 0.0146 0.0291 -0.0051 -0.0088 0.006
O17 0.0252 0.0294 0.0321 -0.0123 -0.0089 -0.0018
O18 0.0241 0.0272 0.0371 -0.0191 -0.0168 0.0115
O20 0.0208 0.0152 0.045 -0.0069 -0.0087 0.0038
O22 0.106 0.127 0.027 -0.019 0.015 -0.089
C5 0.022 0.02 0.021 -0.0086 -0.0039 0.0015
O26 0.027 0.0193 0.0424 -0.0151 -0.0181 0.0079
O28 0.0228 0.021 0.0399 -0.0119 -0.0131 0.0027
C6 0.02 0.018 0.021 -0.0032 -0.0015 -0.0012
loop_
_geom_bond_atom_site_label_1
_geom_bond_atom_site_label_2
_geom_bond_site_symmetry_1
_geom_bond_site_symmetry_2
O8 C2 1_555 1_555
Mn8 O6 1_555 1_555
O8 Mn8 1_555 1_555
Mn1 O1 1_555 1_555
Mn8 O1 1_555 1_555
P1 O1 1_555 1_555
O2 P1 1_555 1_555
O3 P1 1_555 1_555
O4 P1 1_555 1_555
H1 O4 1_555 1_555
O5 Mn1 1_555 1_555
O7 Mn1 1_555 1_555
O9 Mn1 1_555 1_555
O11 Mn8 1_555 1_555
H2 O11 1_555 1_555
H3 O11 1_555 1_555
C1 O5 1_555 1_555
C3 O9 1_555 1_555
O13 Mn1 1_555 1_555
Mn7 O2 1_555 1_555
O24 Mn1 1_555 1_555
Mn8 O9 1_555 1_555
O12 C4 1_555 1_555
Mn7 O10 1_555 1_555
Mn10 O12 1_555 1_555
O12 Mn7 1_555 1_555
Mn7 O14 1_555 1_555
P2 O14 1_555 1_555
O14 Mn10 1_555 1_555
O24 P2 1_555 1_555
O17 P2 1_555 1_555
H4 O17 1_555 1_555
O18 Mn7 1_555 1_555
O20 Mn7 1_555 1_555
O22 Mn10 1_555 1_555
H5 O22 1_555 1_555
H6 O22 1_555 1_555
C5 O18 1_555 1_555
O26 Mn10 1_555 1_555
O28 Mn10 1_555 1_555
P2 O16 1_555 1_555
O28 C6 1_555 1_555

#END
