
###############################################################################
#
# This file contains modified crystal structure data generated from the
# MOF subset of the Cambridge Structural Database (CSD) v543 
# hosted by the Cambridge Crystallographic Data Centre (CCDC).
#
# This work is licensed under the Creative Commons
# Attribution-NonCommercial-ShareAlike 4.0 International License.
# To view a copy of this license, visit
# http://creativecommons.org/licenses/by-nc-sa/4.0/
# or send a letter to
# Creative Commons, PO Box 1866, Mountain View, CA 94042, USA.
#
# CIF created using the CSD Python API on 29 September 2022
# The structure has been converted into the P1 space group
# The structure has a 3D framework
# The original CSD entry VUDQOB is in the triclinic crystal system
# The framework has been calculated to contain at least 10.0% void space
# The void calculation uses a probe of radius 1.32A, grid spacing 0.4
#
###############################################################################

data_VUDQOB
_chemical_formula_moiety         '(C84 H76 N4 O46 Yb6)n'
_symmetry_cell_setting           triclinic
_symmetry_space_group_name_H-M   'P 1'
_symmetry_Int_Tables_number      1
_space_group_name_Hall           'P 1'
loop_
_symmetry_equiv_pos_site_id
_symmetry_equiv_pos_as_xyz
1 x,y,z
_cell_length_a                   10.7428(9)
_cell_length_b                   11.2786(9)
_cell_length_c                   26.172(2)
_cell_angle_alpha                85.060(2)
_cell_angle_beta                 88.1060(10)
_cell_angle_gamma                62.3670(10)
_cell_volume                     2798.87
loop_
_atom_site_label
_atom_site_type_symbol
_atom_site_fract_x
_atom_site_fract_y
_atom_site_fract_z
C9 C 0.1225(11) 0.1237(11) 0.4918(5)
H6 H 0.2165 0.0519 0.4962
H7 H 0.0736 0.1339 0.5238
H8 H 0.1258 0.2057 0.4808
C39 C 0.0008(10) 0.4271(9) 0.2760(4)
H26 H 0.0221 0.4682 0.2471
C41 C 0.2454(14) 0.3197(15) 0.2927(6)
H27 H 0.3113 0.2539 0.3171
H28 H 0.2501 0.4025 0.2932
H29 H 0.2680 0.2882 0.2590
C42 C 0.0846(13) 0.2718(11) 0.3484(4)
H30 H 0.1730 0.2132 0.3649
H31 H 0.0415 0.2197 0.3379
H32 H 0.0240 0.3345 0.3718
N1 N 0.0503(7) 0.0934(7) 0.4539(3)
N2 N 0.1066(7) 0.3411(8) 0.3057(3)
Yb8 Yb 0.37998(3) 0.53581(3) 0.560349(13)
Yb17 Yb 0.34380(3) 0.34639(3) 0.741824(13)
O28 O 0.2442(5) 0.4549(5) 0.6006(2)
O51 O 0.2735(5) 0.3055(5) 0.6657(2)
C57 C 0.2089(8) 0.3775(7) 0.6275(3)
C58 C 0.0744(7) 0.3774(7) 0.6123(3)
C59 C 0.0221(8) 0.3043(8) 0.6424(3)
H52 H 0.0733 0.2484 0.6705
C60 C 0.0004(8) 0.4559(8) 0.5700(3)
H53 H 0.0369 0.5045 0.5500
C63 C 0.0331(8) 0.0928(8) 0.0184(3)
H54 H 0.0539 0.1566 0.0308
Yb9 Yb 0.41142(3) 0.11723(3) 0.899640(13)
O37 O 0.2551(5) 0.1289(5) 0.9716(2)
O39 O 0.3554(5) 0.3469(5) 0.9158(2)
O41 O 0.4945(5) 0.1891(5) 0.97197(19)
O43 O 0.6055(5) 0.1440(5) 0.8706(2)
O47 O 0.2065(5) 0.2344(5) 0.8561(2)
C61 C 0.2323(8) 0.0366(8) 0.9564(3)
C62 C 0.1145(7) 0.0151(7) 0.9804(3)
C10 C 0.1244(12) 0.9685(9) 0.4285(5)
H9 H 0.2184 0.9189 0.4419
H10 H 0.1275 0.9891 0.3923
H11 H 0.0758 0.9156 0.4347
Yb12 Yb 0.58858(3) 0.88277(3) 0.100360(13)
Yb18 Yb 0.65620(3) 0.65361(3) 0.258176(13)
O42 O 0.3945(5) 0.8560(5) 0.1294(2)
O59 O 0.4869(5) 0.7068(5) 0.1952(2)
C69 C 0.3892(8) 0.7760(8) 0.1641(3)
C70 C 0.2586(7) 0.7593(7) 0.1685(3)
C71 C 0.1647(9) 0.7997(9) 0.1282(3)
H58 H 0.1843 0.8357 0.0975
C72 C 0.2263(8) 0.7057(8) 0.2133(3)
H59 H 0.2892 0.6747 0.2408
C74 C 0.0074(7) 0.7415(7) 0.1775(3)
C75 C 0.0428(8) 0.7881(9) 0.1320(3)
C76 C 0.1024(9) 0.6975(8) 0.2181(3)
H61 H 0.0822 0.6621 0.2488
O36 O 0.3029(5) 0.9681(5) 0.9218(2)
O45 O 0.4647(6) 0.9967(5) 0.8300(2)
O48 O 0.5855(5) 0.9135(5) 0.9413(2)
C64 C 0.0786(8) 0.9237(8) 0.9621(3)
H55 H 0.1312 0.8723 0.9359
H75 H 0.652(5) 0.919(4) 0.956(3)
H76 H 0.551(4) 0.865(5) 0.958(3)
Yb7 Yb 0.62002(3) 0.46419(3) 0.439651(13)
O26 O 0.6658(5) 0.3549(5) 0.3660(2)
O31 O 0.4558(6) 0.3206(5) 0.5352(2)
O34 O 0.5732(6) 0.2813(5) 0.4616(2)
O44 O 0.5353(6) 0.0033(5) 0.1700(2)
O49 O 0.6046(5) 0.4910(5) 0.29379(19)
C47 C 0.5117(8) 0.2522(7) 0.4988(3)
C48 C 0.4757(8) 0.0654(7) 0.5442(3)
H41 H 0.4602 0.1091 0.5741
C49 C 0.5302(9) 0.0548(7) 0.4554(3)
H42 H 0.5515 0.0910 0.4252
C53 C 0.6305(7) 0.3825(7) 0.3194(3)
C54 C 0.6169(8) 0.2769(7) 0.2917(3)
C55 C 0.5799(8) 0.2992(7) 0.2405(3)
H50 H 0.5660 0.3789 0.2223
C56 C 0.6385(9) 0.1572(8) 0.3189(3)
H51 H 0.6657 0.1409 0.3532
C78 C 0.5809(7) 0.0867(7) 0.2431(3)
C79 C 0.5634(8) 0.2033(7) 0.2162(3)
H62 H 0.5403 0.2179 0.1815
C80 C 0.6193(9) 0.0622(7) 0.2944(3)
C82 C 0.5050(7) 0.1199(7) 0.4988(3)
O1 O 0.3714(5) 0.5501(5) 0.47027(18)
O2 O 0.4049(5) 0.5911(5) 0.3894(2)
O5 O 0.5442(6) 0.6794(5) 0.4648(2)
O6 O 0.8482(5) 0.2876(5) 0.4594(2)
O7 O 0.4268(6) 0.7187(5) 0.5384(2)
O8 O 0.6971(5) 0.0319(5) 0.0782(2)
O15 O 0.4145(5) 0.0865(5) 0.0587(2)
O18 O 0.8794(6) 0.4566(5) 0.2832(2)
O22 O 0.7432(6) 0.5101(6) 0.1864(2)
O23 O 0.4390(5) 0.7553(5) 0.3054(2)
C1 C 0.3256(7) 0.5843(7) 0.4246(3)
C2 C 0.1827(7) 0.6047(7) 0.4121(3)
C3 C 0.1072(8) 0.6849(8) 0.3695(3)
H1 H 0.1441 0.7319 0.3488
C4 C 0.1265(8) 0.5351(8) 0.4437(3)
H2 H 0.1737 0.4840 0.4733
C5 C 0.4883(8) 0.7478(7) 0.5012(3)
C6 C 0.5243(8) 0.9346(7) 0.4558(3)
H3 H 0.5398 0.8909 0.4259
C7 C 0.4698(9) 0.9452(7) 0.5446(3)
H4 H 0.4485 0.9090 0.5748
C8 C 0.9167(9) 0.1790(9) 0.4409(3)
H5 H 0.8732 0.1550 0.4166
C22 C 0.9214(8) 0.0763(8) 0.0379(3)
H17 H 0.8688 0.1277 0.0641
C40 C 0.4950(7) 0.8801(7) 0.5012(3)
H33 H 0.419(5) 0.699(3) 0.322(3)
H34 H 0.377(4) 0.827(5) 0.290(2)
H35 H 0.830(3) 0.486(7) 0.182(2)
H36 H 0.687(6) 0.548(10) 0.160(2)
H37 H 0.348(5) 0.081(4) 0.044(3)
H38 H 0.449(4) 0.135(5) 0.042(3)
O24 O 0.6286(5) 0.4499(5) 0.52973(18)
O25 O 0.5951(5) 0.4089(5) 0.6106(2)
O27 O 0.3342(5) 0.6451(5) 0.6340(2)
O29 O 0.7558(5) 0.5451(5) 0.3994(2)
O33 O 0.1518(5) 0.7124(5) 0.5406(2)
O52 O 0.7265(5) 0.6945(5) 0.3343(2)
O55 O 0.8409(5) 0.6974(5) 0.2256(2)
O57 O 0.5644(6) 0.8840(5) 0.2442(2)
C43 C 0.6744(7) 0.4157(7) 0.5754(3)
C44 C 0.8173(7) 0.3953(7) 0.5879(3)
C45 C 0.8928(8) 0.3151(8) 0.6305(3)
H39 H 0.8559 0.2681 0.6512
C46 C 0.8735(8) 0.4649(8) 0.5563(3)
H40 H 0.8263 0.5160 0.5267
C50 C 0.0833(9) 0.8210(9) 0.5591(3)
H43 H 0.1268 0.8450 0.5834
C77 C 0.5602(7) 0.9820(7) 0.2166(3)
H63 H 0.6323 0.9825 0.3124
O9 O 0.7449(5) 0.8711(5) 0.0284(2)
O10 O 0.6446(5) 0.6531(5) 0.0842(2)
O11 O 0.5055(5) 0.8109(5) 0.02803(19)
C19 C 0.7677(8) 0.9634(8) 0.0436(3)
C20 C 0.8855(7) 0.9849(7) 0.0196(3)
C23 C 0.5613(7) 0.6914(7) 0.0466(3)
C24 C 0.5296(7) 0.5911(7) 0.0221(3)
C26 C 0.5850(8) 0.4591(7) 0.0428(3)
H19 H 0.6427 0.4316 0.0717
O46 O 0.7935(5) 0.7656(5) 0.1439(2)
C67 C 0.5553(8) 0.3684(7) 0.0208(3)
H56 H 0.5925 0.2801 0.0348
C73 C 0.8708(8) 0.7332(7) 0.1828(3)
H60 H 0.9839 0.8120 0.1036
C21 C 0.9669(8) 0.9072(8) 0.9816(3)
H16 H 0.9461 0.8434 0.9692
C25 C 0.4447(8) 0.6316(7) 0.9792(3)
H18 H 0.4075 0.7199 0.9652
C65 C 0.4387(7) 0.3086(7) 0.9534(3)
C66 C 0.4704(7) 0.4089(7) 0.9779(3)
C68 C 0.4150(8) 0.5409(7) 0.9572(3)
H57 H 0.3573 0.5684 0.9283
C52 C 0.8756(12) 0.0315(9) 0.5715(5)
H47 H 0.7816 0.0811 0.5581
H48 H 0.8725 0.0109 0.6077
H49 H 0.9242 0.0844 0.5653
C15 C 0.7911(8) 0.6225(7) 0.3725(3)
C16 C 0.9256(7) 0.6226(7) 0.3877(3)
C17 C 0.9779(8) 0.6957(8) 0.3576(3)
H14 H 0.9267 0.7516 0.3295
C18 C 0.9996(8) 0.5441(8) 0.4300(3)
H15 H 0.9631 0.4955 0.4500
C51 C 0.8775(11) 0.8763(11) 0.5082(5)
H44 H 0.7835 0.9481 0.5038
H45 H 0.9264 0.8661 0.4762
H46 H 0.8742 0.7943 0.5192
N3 N 0.9497(7) 0.9066(7) 0.5461(3)
O19 O 0.1591(5) 0.3026(5) 0.7744(2)
C31 C 0.1292(8) 0.2668(7) 0.8172(3)
H22 H 0.0161 0.1880 0.8964
O50 O 0.3954(5) 0.5090(5) 0.70621(19)
O53 O 0.1206(6) 0.5434(5) 0.7168(2)
O58 O 0.4356(6) 0.1160(5) 0.7558(2)
O61 O 0.5131(5) 0.2932(5) 0.8048(2)
O62 O 0.2568(6) 0.4899(6) 0.8136(2)
O63 O 0.5610(5) 0.2447(5) 0.6946(2)
H71 H 0.581(5) 0.301(3) 0.678(3)
H72 H 0.623(4) 0.173(5) 0.710(2)
H73 H 0.170(3) 0.514(7) 0.818(2)
H74 H 0.313(6) 0.452(10) 0.840(2)
C27 C 0.6108(8) 0.2240(8) 0.8359(3)
C28 C 0.7414(7) 0.2407(7) 0.8315(3)
C29 C 0.8353(9) 0.2003(9) 0.8718(3)
H20 H 0.8157 0.1643 0.9025
C30 C 0.7737(8) 0.2943(8) 0.7867(3)
H21 H 0.7108 0.3253 0.7592
C32 C 0.9926(7) 0.2585(7) 0.8225(3)
C33 C 0.9572(8) 0.2119(9) 0.8680(3)
C34 C 0.8976(9) 0.3025(8) 0.7819(3)
H23 H 0.9178 0.3379 0.7512
C35 C 0.4398(7) 0.0180(7) 0.7834(3)
H25 H 0.3677 0.0175 0.6876
C11 C 0.3695(7) 0.6175(7) 0.6806(3)
C12 C 0.3831(8) 0.7231(7) 0.7083(3)
C13 C 0.4201(8) 0.7008(7) 0.7595(3)
H12 H 0.4340 0.6211 0.7777
C14 C 0.3615(9) 0.8428(8) 0.6811(3)
H13 H 0.3343 0.8591 0.6468
C36 C 0.4191(7) 0.9133(7) 0.7569(3)
C37 C 0.4366(8) 0.7967(7) 0.7838(3)
H24 H 0.4597 0.7821 0.8185
C38 C 0.3807(9) 0.9378(7) 0.7056(3)
C81 C 0.9992(10) 0.5729(9) 0.7240(4)
H64 H 0.9779 0.5318 0.7529
C83 C 0.7546(14) 0.6803(15) 0.7073(6)
H65 H 0.6887 0.7461 0.6829
H66 H 0.7499 0.5975 0.7068
H67 H 0.7320 0.7118 0.7410
C84 C 0.9154(13) 0.7282(11) 0.6516(4)
H68 H 0.8270 0.7868 0.6351
H69 H 0.9585 0.7803 0.6621
H70 H 0.9760 0.6655 0.6282
N4 N 0.8934(7) 0.6589(8) 0.6943(3)
loop_
_geom_bond_atom_site_label_1
_geom_bond_atom_site_label_2
_geom_bond_site_symmetry_1
_geom_bond_site_symmetry_2
C9 H6 1_555 1_555
H7 C9 1_555 1_555
H8 C9 1_555 1_555
H26 C39 1_555 1_555
C41 H27 1_555 1_555
H28 C41 1_555 1_555
H29 C41 1_555 1_555
C42 H30 1_555 1_555
H31 C42 1_555 1_555
H32 C42 1_555 1_555
N2 C39 1_555 1_555
Yb8 O28 1_555 1_555
Yb17 O51 1_555 1_555
O28 C57 1_555 1_555
O51 C57 1_555 1_555
C57 C58 1_555 1_555
C58 C59 1_555 1_555
H52 C59 1_555 1_555
H53 C60 1_555 1_555
H54 C63 1_555 1_555
C9 N1 1_555 1_555
C41 N2 1_555 1_555
C42 N2 1_555 1_555
C58 C60 1_555 1_555
O37 Yb9 1_555 1_555
O39 Yb9 1_555 1_555
O41 Yb9 1_555 1_555
O43 Yb9 1_555 1_555
O47 Yb9 1_555 1_555
C61 O37 1_555 1_555
C62 C61 1_555 1_555
C10 H9 1_555 1_555
H10 C10 1_555 1_555
H11 C10 1_555 1_555
Yb12 O42 1_555 1_555
Yb18 O59 1_555 1_555
O42 C69 1_555 1_555
O59 C69 1_555 1_555
C69 C70 1_555 1_555
C70 C71 1_555 1_555
C71 H58 1_555 1_555
C72 C70 1_555 1_555
H59 C72 1_555 1_555
C75 C71 1_555 1_555
C76 C72 1_555 1_555
H61 C76 1_555 1_555
C74 C75 1_555 1_555
C74 C76 1_555 1_555
H55 C64 1_555 1_555
H75 O48 1_555 1_555
H76 O48 1_555 1_555
Yb8 O31 1_555 1_555
Yb7 O26 1_555 1_555
Yb18 O49 1_555 1_555
O26 C53 1_555 1_555
O31 C47 1_555 1_555
O34 Yb7 1_555 1_555
O49 C53 1_555 1_555
C47 O34 1_555 1_555
H41 C48 1_555 1_555
H42 C49 1_555 1_555
C53 C54 1_555 1_555
C54 C55 1_555 1_555
C55 H50 1_555 1_555
C56 C54 1_555 1_555
H51 C56 1_555 1_555
C79 C55 1_555 1_555
H62 C79 1_555 1_555
C80 C56 1_555 1_555
C82 C47 1_555 1_555
C48 C82 1_555 1_555
C49 C82 1_555 1_555
C78 C79 1_555 1_555
C78 C80 1_555 1_555
Yb7 O1 1_555 1_555
O1 C1 1_555 1_555
O2 Yb7 1_555 1_555
O5 Yb7 1_555 1_555
O6 Yb7 1_555 1_555
O7 C5 1_555 1_555
O18 Yb18 1_555 1_555
O22 Yb18 1_555 1_555
O23 Yb18 1_555 1_555
C1 O2 1_555 1_555
C2 C1 1_555 1_555
C3 C2 1_555 1_555
H1 C3 1_555 1_555
C4 C2 1_555 1_555
H2 C4 1_555 1_555
C5 O5 1_555 1_555
C6 H3 1_555 1_555
C7 H4 1_555 1_555
C8 O6 1_555 1_555
H5 C8 1_555 1_555
H17 C22 1_555 1_555
C40 C5 1_555 1_555
H33 O23 1_555 1_555
H34 O23 1_555 1_555
H35 O22 1_555 1_555
H36 O22 1_555 1_555
H37 O15 1_555 1_555
H38 O15 1_555 1_555
Yb8 O1 1_555 1_555
O24 Yb7 1_555 1_555
O25 Yb8 1_555 1_555
O27 Yb8 1_555 1_555
O29 Yb7 1_555 1_555
O33 Yb8 1_555 1_555
O52 Yb18 1_555 1_555
O55 Yb18 1_555 1_555
O57 Yb18 1_555 1_555
C43 O24 1_555 1_555
C44 C43 1_555 1_555
C45 C44 1_555 1_555
H39 C45 1_555 1_555
C46 C44 1_555 1_555
H40 C46 1_555 1_555
C50 O33 1_555 1_555
H43 C50 1_555 1_555
C77 O57 1_555 1_555
O7 Yb8 1_555 1_555
C6 C40 1_555 1_555
C7 C40 1_555 1_555
Yb8 O24 1_555 1_555
O25 C43 1_555 1_555
O9 Yb12 1_555 1_555
O10 Yb12 1_555 1_555
O11 Yb12 1_555 1_555
C19 O9 1_555 1_555
C20 C19 1_555 1_555
C23 O10 1_555 1_555
C24 C23 1_555 1_555
C26 C24 1_555 1_555
H19 C26 1_555 1_555
O46 Yb12 1_555 1_555
C67 C26 1_555 1_555
H56 C67 1_555 1_555
C73 O46 1_555 1_555
O11 C23 1_555 1_555
O55 C73 1_555 1_555
H16 C21 1_555 1_555
H18 C25 1_555 1_555
O39 C65 1_555 1_555
C65 O41 1_555 1_555
C66 C65 1_555 1_555
C68 C25 1_555 1_555
H57 C68 1_555 1_555
C66 C68 1_555 1_555
C52 H47 1_555 1_555
H48 C52 1_555 1_555
H49 C52 1_555 1_555
O29 C15 1_555 1_555
O52 C15 1_555 1_555
C15 C16 1_555 1_555
C16 C17 1_555 1_555
H14 C17 1_555 1_555
H15 C18 1_555 1_555
C51 H44 1_555 1_555
H45 C51 1_555 1_555
H46 C51 1_555 1_555
C16 C18 1_555 1_555
C51 N3 1_555 1_555
O47 C31 1_555 1_555
O19 C31 1_555 1_555
Yb17 O19 1_555 1_555
O50 Yb17 1_555 1_555
O53 Yb17 1_555 1_555
O58 Yb17 1_555 1_555
O61 Yb17 1_555 1_555
O62 Yb17 1_555 1_555
O63 Yb17 1_555 1_555
H71 O63 1_555 1_555
H72 O63 1_555 1_555
H73 O62 1_555 1_555
H74 O62 1_555 1_555
O58 C35 1_555 1_555
O61 C27 1_555 1_555
C27 O43 1_555 1_555
C28 C27 1_555 1_555
C29 C28 1_555 1_555
H20 C29 1_555 1_555
C30 C28 1_555 1_555
H21 C30 1_555 1_555
C32 C33 1_555 1_555
C33 C29 1_555 1_555
C34 C30 1_555 1_555
H23 C34 1_555 1_555
C32 C34 1_555 1_555
O50 C11 1_555 1_555
C11 O27 1_555 1_555
C12 C11 1_555 1_555
C13 C12 1_555 1_555
H12 C13 1_555 1_555
C14 C12 1_555 1_555
H13 C14 1_555 1_555
C37 C13 1_555 1_555
H24 C37 1_555 1_555
C38 C14 1_555 1_555
H64 C81 1_555 1_555
C83 H65 1_555 1_555
H66 C83 1_555 1_555
H67 C83 1_555 1_555
C84 H68 1_555 1_555
H69 C84 1_555 1_555
H70 C84 1_555 1_555
N4 C81 1_555 1_555
C36 C37 1_555 1_555
C36 C38 1_555 1_555
C83 N4 1_555 1_555
C84 N4 1_555 1_555

#END
