
###############################################################################
#
# This file contains modified crystal structure data generated from the
# MOF subset of the Cambridge Structural Database (CSD) v543 
# hosted by the Cambridge Crystallographic Data Centre (CCDC).
#
# This work is licensed under the Creative Commons
# Attribution-NonCommercial-ShareAlike 4.0 International License.
# To view a copy of this license, visit
# http://creativecommons.org/licenses/by-nc-sa/4.0/
# or send a letter to
# Creative Commons, PO Box 1866, Mountain View, CA 94042, USA.
#
# CIF created using the CSD Python API on 29 September 2022
# The structure has been converted into the P1 space group
# The structure has a 3D framework
# The original CSD entry VUDXID is in the triclinic crystal system
# The framework has been calculated to contain at least 10.0% void space
# The void calculation uses a probe of radius 1.32A, grid spacing 0.4
# H atom positions have been added when not included in the experimental data
#
###############################################################################

data_VUDXID
_chemical_formula_moiety         '(C100 H96 Cu6 Dy4 N12 O62 S8)n'
_symmetry_cell_setting           triclinic
_symmetry_space_group_name_H-M   'P 1'
_symmetry_Int_Tables_number      1
_space_group_name_Hall           'P 1'
loop_
_symmetry_equiv_pos_site_id
_symmetry_equiv_pos_as_xyz
1 x,y,z
_cell_length_a                   17.005(3)
_cell_length_b                   17.539(3)
_cell_length_c                   21.668(4)
_cell_angle_alpha                92.01(3)
_cell_angle_beta                 104.49(3)
_cell_angle_gamma                107.16(3)
_cell_volume                     5936.84
loop_
_atom_site_label
_atom_site_type_symbol
_atom_site_fract_x
_atom_site_fract_y
_atom_site_fract_z
Dy4 Dy 0.002245(17) 0.758984(17) 0.295758(13)
Cu1 Cu 0.43220(5) 0.71086(6) 0.19027(4)
S1 S 0.39104(15) 0.51896(15) 0.22613(11)
S4 S 0.10666(11) 0.62870(12) 0.36046(8)
O12 O 0.1171(2) 0.7127(2) 0.33800(18)
O14 O 0.0561(2) 0.7657(2) 0.20862(17)
O15 O 0.0282(2) 0.7492(2) 0.10156(18)
O16 O 0.3570(3) 0.5701(3) 0.1776(2)
O17 O 0.4278(3) 0.7242(3) 0.28039(19)
O18 O 0.3485(3) 0.7495(3) 0.3394(2)
O19 O 0.8309(2) 0.7061(2) 0.18062(17)
O20 O 0.8538(2) 0.7229(2) 0.28650(18)
O21 O 0.5261(2) 0.6847(3) 0.0462(2)
O22 O 0.4384(2) 0.7001(3) 0.10154(18)
O30 O 0.1210(3) 0.8696(3) 0.3311(3)
N5 N 0.5467(3) 0.6996(3) 0.2092(2)
N6 N 0.3224(3) 0.7317(3) 0.1725(2)
C2 C 0.8078(4) 0.7107(4) 0.2309(3)
C3 C 0.7126(4) 0.7039(4) 0.2209(3)
C7 C 0.6576(3) 0.6978(3) 0.1627(3)
H1 H 0.6755 0.6944 0.1258
C8 C 0.1886(4) 0.7413(4) 0.1078(3)
H2 H 0.1525 0.7399 0.0673
C9 C 0.2685(4) 0.7323(4) 0.1149(3)
H3 H 0.2862 0.7264 0.0782
C10 C 0.2194(4) 0.7525(4) 0.2253(3)
H4 H 0.2040 0.7589 0.2629
C11 C 0.2993(4) 0.7422(4) 0.2253(3)
C12 C 0.0764(4) 0.7565(3) 0.1570(3)
C14 C 0.5100(4) 0.6926(4) 0.0978(3)
C15 C 0.3643(4) 0.7400(4) 0.2890(3)
C16 C 0.1644(4) 0.7524(4) 0.1631(3)
C17 C 0.5754(4) 0.6964(4) 0.1581(3)
C18 C 0.5986(4) 0.7039(5) 0.2674(3)
H5 H 0.5778 0.7057 0.3031
C38 C 0.6839(4) 0.7060(4) 0.2762(3)
H17 H 0.7199 0.7087 0.3169
C46 C 0.3443(5) 0.4210(4) 0.1880(4)
H28 H 0.2853 0.4127 0.1664
H29 H 0.3481 0.3839 0.2193
H30 H 0.3737 0.4124 0.1573
C47 C 0.1669(5) 0.5868(4) 0.3190(4)
H31 H 0.1398 0.5785 0.2737
H32 H 0.1691 0.5364 0.3340
H33 H 0.2240 0.6233 0.3273
C48 C 0.3381(6) 0.5145(5) 0.2848(5)
H34 H 0.3566 0.5663 0.3093
H35 H 0.3506 0.4757 0.3125
H36 H 0.2776 0.4991 0.2651
C49 C 0.1788(6) 0.6498(6) 0.4412(4)
H37 H 0.2352 0.6806 0.4398
H38 H 0.1805 0.6001 0.4578
H39 H 0.1589 0.6797 0.4684
Dy3 Dy 0.880679(17) 0.711200(17) 0.092993(13)
H45 H 0.170706 0.852536 0.352858
H46 H 0.133173 0.897841 0.293975
O5 O 0.9230(4) 0.1139(3) 0.3480(2)
O6 O 0.9142(4) 0.2087(3) 0.2824(2)
N2 N 0.8981(5) 0.1146(4) 0.1838(3)
C29 C 0.8926(6) 0.0724(5) 0.1307(3)
H12 H 0.8827 0.0943 0.0921
C30 C 0.9144(5) 0.0858(4) 0.2407(3)
C36 C 0.9271(4) 0.0094(4) 0.2445(3)
C40 C 0.9198(7) 0.1396(5) 0.2954(4)
Cu4 Cu 0.87810(7) 0.21779(5) 0.19107(4)
S3 S 0.75812(11) 0.82281(11) 0.01064(9)
O1 O 0.9745(3) 0.6913(3) 0.38837(19)
O2 O 0.9840(3) 0.8171(3) 0.39507(19)
O3 O 0.9470(5) 0.5475(4) 0.5861(2)
O4 O 0.9095(4) 0.6078(3) 0.6583(2)
O7 O 0.9565(2) 0.8616(2) 0.24542(18)
O8 O 0.9260(3) 0.8455(2) 0.14062(19)
O13 O 0.9530(2) 0.6263(2) 0.25158(18)
O23 O 0.7590(2) 0.7505(3) 0.04788(19)
O24 O 0.7612(2) 0.5942(2) 0.06251(17)
O25 O 0.9275(2) 0.6102(2) 0.14219(17)
O26 O 0.8609(5) 0.3270(3) 0.0333(2)
O27 O 0.8675(4) 0.2324(3) 0.1014(2)
O29 O 0.7389(5) 0.1677(4) 0.1812(3)
N3 N 0.9056(4) 0.7288(4) 0.5947(3)
N4 N 0.8919(4) 0.3340(3) 0.2018(3)
C1 C 0.9370(4) 0.8838(4) 0.1939(3)
C4 C 0.9703(4) 0.7514(4) 0.4166(3)
C13 C 0.9221(4) 0.9633(4) 0.1915(3)
C23 C 0.8998(4) 0.4452(4) 0.1408(3)
H9 H 0.8963 0.4661 0.1018
C24 C 0.9208(4) 0.4962(4) 0.1985(3)
C25 C 0.9351(4) 0.5855(4) 0.1977(3)
C26 C 0.8847(5) 0.3646(4) 0.1435(3)
C27 C 0.9078(5) 0.3812(4) 0.2559(3)
H10 H 0.9084 0.3593 0.2945
C28 C 0.9233(4) 0.4622(4) 0.2543(3)
H11 H 0.9360 0.4950 0.2924
C32 C 0.9498(5) 0.6778(5) 0.5094(3)
H13 H 0.9656 0.6372 0.4921
C33 C 0.9280(5) 0.6706(4) 0.5680(3)
C34 C 0.9053(6) 0.7968(5) 0.5646(4)
H14 H 0.8940 0.8386 0.5846
C35 C 0.9013(4) 0.9945(4) 0.1306(3)
H15 H 0.8937 0.9640 0.0923
H16 H 0.9391 0.9908 0.2844
C37 C 0.9481(5) 0.7455(4) 0.4764(3)
H18 H 0.5980 0.4909 0.0272
H20 H 0.5874 0.5727 0.0062
C41 C 0.8695(6) 0.3061(5) 0.0862(4)
C42 C 0.9261(6) 0.6032(5) 0.6063(4)
C43 C 0.9218(5) 0.8045(5) 0.5037(3)
H21 H 0.9153 0.8480 0.4821
H27 H 0.7192 0.4346 0.0176
C50 C 0.6808(5) 0.8565(5) 0.0340(4)
H40 H 0.6390 0.8117 0.0435
H42 H 0.7081 0.8951 0.0714
Cu5 Cu 0.88517(7) 0.70721(6) 0.67823(4)
H43 H 0.714469 0.117657 0.150718
H44 H 0.729727 0.155451 0.223737
S2 S 0.71072(11) 0.56036(11) 0.99340(8)
O9 O 0.8731(4) 0.8912(3) 0.7818(2)
O10 O 0.8945(2) 0.6459(2) 0.99557(17)
O11 O 0.9010(3) 0.7746(3) 0.99587(18)
O28 O 0.7385(4) 0.6463(4) 0.6410(3)
O31 O 0.8810(4) 0.8133(3) 0.7007(2)
N1 N 0.8966(4) 0.6993(4) 0.7705(3)
C5 C 0.9009(4) 0.7100(4) 0.9681(3)
C6 C 0.9044(4) 0.7056(4) 0.9001(3)
C19 C 0.9099(4) 0.6405(4) 0.8692(3)
H6 H 0.9164 0.5972 0.8912
C20 C 0.9061(4) 0.6379(4) 0.8048(3)
H7 H 0.9102 0.5923 0.7842
C21 C 0.8909(5) 0.7627(4) 0.8006(3)
C22 C 0.8966(4) 0.7690(4) 0.8656(3)
H8 H 0.8952 0.8159 0.8860
C31 C 0.8822(6) 0.8270(5) 0.7586(4)
C39 C 0.6042(4) 0.5274(5) 0.9955(4)
H19 H 0.5686 0.5006 0.9541
C44 C 0.6969(5) 0.7783(5) 0.9318(3)
H22 H 0.7284 0.7515 0.9130
H23 H 0.6850 0.8193 0.9062
H24 H 0.6440 0.7402 0.9336
C45 C 0.7242(5) 0.4625(5) 0.9807(4)
H25 H 0.7797 0.4694 0.9745
H26 H 0.6809 0.4318 0.9435
H41 H 0.6533 0.8809 0.9997
H47 H 0.714836 0.673117 0.604537
H48 H 0.726192 0.58864 0.626409
Cu3 Cu 0.11483(7) 0.29279(6) 0.32177(4)
S2_2 S 0.28928(11) 0.43964(11) 0.00660(8)
O9_2 O 0.1269(4) 0.1088(3) 0.2182(2)
O10_2 O 0.1055(2) 0.3541(2) 0.00443(17)
O11_2 O 0.0990(3) 0.2254(3) 0.00413(18)
O28_2 O 0.2615(4) 0.3537(4) 0.3590(3)
O31_2 O 0.1190(4) 0.1867(3) 0.2993(2)
N1_2 N 0.1034(4) 0.3007(4) 0.2295(3)
C5_2 C 0.0991(4) 0.2900(4) 0.0319(3)
C6_2 C 0.0956(4) 0.2944(4) 0.0999(3)
C19_2 C 0.0901(4) 0.3595(4) 0.1308(3)
H6_2 H 0.0836 0.4028 0.1088
C20_2 C 0.0939(4) 0.3621(4) 0.1952(3)
H7_2 H 0.0898 0.4077 0.2158
C21_2 C 0.1091(5) 0.2373(4) 0.1994(3)
C22_2 C 0.1034(4) 0.2310(4) 0.1344(3)
H8_2 H 0.1048 0.1841 0.1140
C31_2 C 0.1178(6) 0.1730(5) 0.2414(4)
C39_2 C 0.3958(4) 0.4726(5) 0.0045(4)
H19_2 H 0.4314 0.4994 0.0459
C44_2 C 0.3031(5) 0.2217(5) 0.0682(3)
H22_2 H 0.2716 0.2485 0.0870
H23_2 H 0.3150 0.1807 0.0938
H24_2 H 0.3560 0.2598 0.0664
C45_2 C 0.2758(5) 0.5375(5) 0.0193(4)
H25_2 H 0.2203 0.5306 0.0255
H26_2 H 0.3191 0.5682 0.0565
H41_2 H 0.3467 0.1191 0.0003
O32 O 0.0905(4) 0.3922(3) 0.3417(2)
N8 N 0.0944(4) 0.2712(4) 0.4053(3)
H47_2 H 0.285164 0.326883 0.395463
H48_2 H 0.273808 0.41136 0.373591
Dy1 Dy 0.119321(17) 0.288800(17) 0.907007(13)
Cu2 Cu 0.12190(7) 0.78221(5) 0.80893(4)
S3_2 S 0.24188(11) 0.17719(11) 0.98936(9)
O1_2 O 0.0255(3) 0.3087(3) 0.61163(19)
O2_2 O 0.0160(3) 0.1829(3) 0.60493(19)
O3_2 O 0.0530(5) 0.4525(4) 0.4139(2)
O7_2 O 0.0435(2) 0.1384(2) 0.75458(18)
O8_2 O 0.0740(3) 0.1545(2) 0.85938(19)
O13_2 O 0.0470(2) 0.3737(2) 0.74842(18)
O23_2 O 0.2410(2) 0.2495(3) 0.95212(19)
O24_2 O 0.2388(2) 0.4058(2) 0.93749(17)
O25_2 O 0.0725(2) 0.3898(2) 0.85781(17)
O26_2 O 0.1391(5) 0.6730(3) 0.9667(2)
O27_2 O 0.1325(4) 0.7676(3) 0.8986(2)
O29_2 O 0.2611(5) 0.8323(4) 0.8188(3)
N4_2 N 0.1081(4) 0.6660(3) 0.7982(3)
C1_2 C 0.0630(4) 0.1162(4) 0.8061(3)
C4_2 C 0.0297(4) 0.2486(4) 0.5834(3)
C13_2 C 0.0779(4) 0.0367(4) 0.8085(3)
C23_2 C 0.1002(4) 0.5548(4) 0.8592(3)
H9_2 H 0.1037 0.5339 0.8982
C24_2 C 0.0792(4) 0.5038(4) 0.8015(3)
C25_2 C 0.0649(4) 0.4145(4) 0.8023(3)
C26_2 C 0.1153(5) 0.6354(4) 0.8565(3)
C27_2 C 0.0922(5) 0.6188(4) 0.7441(3)
H10_2 H 0.0916 0.6407 0.7055
C28_2 C 0.0767(4) 0.5378(4) 0.7457(3)
H11_2 H 0.0640 0.5050 0.7076
C32_2 C 0.0502(5) 0.3222(5) 0.4906(3)
H13_2 H 0.0344 0.3628 0.5079
C33_2 C 0.0720(5) 0.3294(4) 0.4320(3)
C34_2 C 0.0947(6) 0.2032(5) 0.4354(4)
H14_2 H 0.1060 0.1614 0.4154
C35_2 C 0.0987(4) 0.0055(4) 0.8694(3)
H15_2 H 0.1063 0.0360 0.9077
H16_2 H 0.0609 0.0092 0.7156
C37_2 C 0.0519(5) 0.2545(4) 0.5236(3)
H18_2 H 0.4020 0.5091 0.9728
H20_2 H 0.4126 0.4273 0.9938
C41_2 C 0.1305(6) 0.6939(5) 0.9138(4)
C42_2 C 0.0739(6) 0.3968(5) 0.3937(4)
C43_2 C 0.0782(5) 0.1955(5) 0.4963(3)
H21_2 H 0.0847 0.1520 0.5179
H27_2 H 0.2808 0.5654 0.9824
C50_2 C 0.3192(5) 0.1435(5) 0.9660(4)
H40_2 H 0.3610 0.1883 0.9565
H42_2 H 0.2919 0.1049 0.9286
O33 O 0.0858(4) 0.7913(3) 0.7176(2)
O34 O 0.1691(2) 0.2939(2) 0.81938(17)
O35 O 0.1462(2) 0.2771(2) 0.71350(18)
N7 N 0.1019(5) 0.8854(4) 0.8162(3)
H43_2 H 0.285531 0.882343 0.849282
H44_2 H 0.270273 0.844549 0.776263
O5_2 O 0.0770(4) 0.8861(3) 0.6520(2)
C29_2 C 0.1074(6) 0.9276(5) 0.8693(3)
H12_2 H 0.1173 0.9057 0.9079
C30_2 C 0.0856(5) 0.9142(4) 0.7593(3)
C36_2 C 0.0729(4) 0.9906(4) 0.7555(3)
C40_2 C 0.0802(7) 0.8604(5) 0.7046(4)
Dy2 Dy 0.997755(17) 0.241016(17) 0.704242(13)
Cu1_2 Cu 0.56780(5) 0.28914(6) 0.80973(4)
S1_2 S 0.60896(15) 0.48104(15) 0.77387(11)
S4_2 S 0.89334(11) 0.37130(12) 0.63954(8)
O12_2 O 0.8829(2) 0.2873(2) 0.66200(18)
O14_2 O 0.9439(2) 0.2343(2) 0.79138(17)
O15_2 O 0.9718(2) 0.2508(2) 0.89844(18)
O16_2 O 0.6430(3) 0.4299(3) 0.8224(2)
O17_2 O 0.5722(3) 0.2758(3) 0.71961(19)
O18_2 O 0.6515(3) 0.2505(3) 0.6606(2)
O21_2 O 0.4739(2) 0.3153(3) 0.9538(2)
O22_2 O 0.5616(2) 0.2999(3) 0.89846(18)
O30_2 O 0.8790(3) 0.1304(3) 0.6689(3)
N5_2 N 0.4533(3) 0.3004(3) 0.7908(2)
N6_2 N 0.6776(3) 0.2683(3) 0.8275(2)
C2_2 C 0.1922(4) 0.2893(4) 0.7691(3)
C3_2 C 0.2874(4) 0.2961(4) 0.7791(3)
C7_2 C 0.3424(3) 0.3022(3) 0.8373(3)
H1_2 H 0.3245 0.3056 0.8742
C8_2 C 0.8114(4) 0.2587(4) 0.8922(3)
H2_2 H 0.8475 0.2601 0.9327
C9_2 C 0.7315(4) 0.2677(4) 0.8851(3)
H3_2 H 0.7138 0.2736 0.9218
C10_2 C 0.7806(4) 0.2475(4) 0.7747(3)
H4_2 H 0.7960 0.2411 0.7371
C11_2 C 0.7007(4) 0.2578(4) 0.7747(3)
C12_2 C 0.9236(4) 0.2435(3) 0.8430(3)
C14_2 C 0.4900(4) 0.3074(4) 0.9022(3)
C15_2 C 0.6357(4) 0.2600(4) 0.7110(3)
C16_2 C 0.8356(4) 0.2476(4) 0.8369(3)
C17_2 C 0.4246(4) 0.3036(4) 0.8419(3)
C18_2 C 0.4014(4) 0.2961(5) 0.7326(3)
H5_2 H 0.4222 0.2943 0.6969
C38_2 C 0.3161(4) 0.2940(4) 0.7238(3)
H17_2 H 0.2801 0.2913 0.6831
C46_2 C 0.6557(5) 0.5790(4) 0.8120(4)
H28_2 H 0.7147 0.5873 0.8336
H29_2 H 0.6519 0.6161 0.7807
H30_2 H 0.6263 0.5876 0.8427
C47_2 C 0.8331(5) 0.4132(4) 0.6810(4)
H31_2 H 0.8602 0.4215 0.7263
H32_2 H 0.8309 0.4636 0.6660
H33_2 H 0.7760 0.3767 0.6727
C48_2 C 0.6619(6) 0.4855(5) 0.7152(5)
H34_2 H 0.6434 0.4337 0.6907
H35_2 H 0.6494 0.5243 0.6875
H36_2 H 0.7224 0.5009 0.7349
C49_2 C 0.8212(6) 0.3502(6) 0.5588(4)
H37_2 H 0.7648 0.3194 0.5602
H38_2 H 0.8195 0.3999 0.5422
H39_2 H 0.8411 0.3203 0.5316
H45_2 H 0.829294 0.147464 0.647142
H46_2 H 0.866827 0.102159 0.706025
loop_
_geom_bond_atom_site_label_1
_geom_bond_atom_site_label_2
_geom_bond_site_symmetry_1
_geom_bond_site_symmetry_2
Cu1 O16 1_555 1_555
S1 O16 1_555 1_555
S4 O12 1_555 1_555
O12 Dy4 1_555 1_555
O14 Dy4 1_555 1_555
O17 Cu1 1_555 1_555
O18 C15 1_555 1_555
O19 C2 1_555 1_555
O20 C2 1_555 1_555
O21 C14 1_555 1_555
O22 Cu1 1_555 1_555
O30 Dy4 1_555 1_555
N5 Cu1 1_555 1_555
N6 Cu1 1_555 1_555
C2 C3 1_555 1_555
C3 C7 1_555 1_555
C7 H1 1_555 1_555
C8 H2 1_555 1_555
C9 N6 1_555 1_555
H3 C9 1_555 1_555
C10 H4 1_555 1_555
C11 N6 1_555 1_555
C12 O14 1_555 1_555
C14 O22 1_555 1_555
C15 O17 1_555 1_555
C16 C8 1_555 1_555
C17 N5 1_555 1_555
C18 N5 1_555 1_555
H5 C18 1_555 1_555
C38 C3 1_555 1_555
H17 C38 1_555 1_555
C46 S1 1_555 1_555
H28 C46 1_555 1_555
H29 C46 1_555 1_555
H30 C46 1_555 1_555
C47 S4 1_555 1_555
H31 C47 1_555 1_555
H32 C47 1_555 1_555
H33 C47 1_555 1_555
C48 S1 1_555 1_555
H34 C48 1_555 1_555
H35 C48 1_555 1_555
H36 C48 1_555 1_555
C49 S4 1_555 1_555
H37 C49 1_555 1_555
H38 C49 1_555 1_555
H39 C49 1_555 1_555
Dy3 O19 1_555 1_555
O15 C12 1_555 1_555
C7 C17 1_555 1_555
C8 C9 1_555 1_555
C10 C11 1_555 1_555
C10 C16 1_555 1_555
C11 C15 1_555 1_555
C12 C16 1_555 1_555
C14 C17 1_555 1_555
C18 C38 1_555 1_555
O30 H45 1_555 1_555
O30 H46 1_555 1_555
O5 C40 1_555 1_555
O6 C40 1_555 1_555
N2 C29 1_555 1_555
C29 H12 1_555 1_555
C30 N2 1_555 1_555
C40 C30 1_555 1_555
Cu4 O6 1_555 1_555
N2 Cu4 1_555 1_555
C30 C36 1_555 1_555
Dy3 O8 1_555 1_555
Cu4 O27 1_555 1_555
S3 O23 1_555 1_555
O1 C4 1_555 1_555
O3 C42 1_555 1_555
O4 C42 1_555 1_555
O8 C1 1_555 1_555
O23 Dy3 1_555 1_555
O24 Dy3 1_555 1_555
O25 Dy3 1_555 1_555
O26 C41 1_555 1_555
O27 C41 1_555 1_555
O29 Cu4 1_555 1_555
N3 C33 1_555 1_555
N4 Cu4 1_555 1_555
C1 O7 1_555 1_555
C4 O2 1_555 1_555
C13 C1 1_555 1_555
C23 H9 1_555 1_555
C24 C23 1_555 1_555
C25 O13 1_555 1_555
C26 N4 1_555 1_555
C27 N4 1_555 1_555
H10 C27 1_555 1_555
C28 C24 1_555 1_555
H11 C28 1_555 1_555
C32 H13 1_555 1_555
C33 C32 1_555 1_555
C34 N3 1_555 1_555
H14 C34 1_555 1_555
C35 C13 1_555 1_555
H15 C35 1_555 1_555
C37 C4 1_555 1_555
C41 C26 1_555 1_555
C42 C33 1_555 1_555
C43 C34 1_555 1_555
H21 C43 1_555 1_555
C50 S3 1_555 1_555
H40 C50 1_555 1_555
H42 C50 1_555 1_555
Cu5 O4 1_555 1_555
O25 C25 1_555 1_555
N3 Cu5 1_555 1_555
C23 C26 1_555 1_555
C24 C25 1_555 1_555
C27 C28 1_555 1_555
C32 C37 1_555 1_555
C37 C43 1_555 1_555
O29 H43 1_555 1_555
O29 H44 1_555 1_555
Cu5 O28 1_555 1_555
O9 C31 1_555 1_555
O31 Cu5 1_555 1_555
N1 Cu5 1_555 1_555
C5 O10 1_555 1_555
C6 C5 1_555 1_555
C19 C6 1_555 1_555
H6 C19 1_555 1_555
C20 N1 1_555 1_555
H7 C20 1_555 1_555
C21 N1 1_555 1_555
C22 C6 1_555 1_555
H8 C22 1_555 1_555
C31 O31 1_555 1_555
C39 S2 1_555 1_555
H19 C39 1_555 1_555
H22 C44 1_555 1_555
H23 C44 1_555 1_555
H24 C44 1_555 1_555
C45 S2 1_555 1_555
H25 C45 1_555 1_555
H26 C45 1_555 1_555
O11 C5 1_555 1_555
C19 C20 1_555 1_555
C21 C22 1_555 1_555
C21 C31 1_555 1_555
O28 H47 1_555 1_555
O28 H48 1_555 1_555
Cu3 O28_2 1_555 1_555
O9_2 C31_2 1_555 1_555
O31_2 Cu3 1_555 1_555
N1_2 Cu3 1_555 1_555
C5_2 O10_2 1_555 1_555
C6_2 C5_2 1_555 1_555
C19_2 C6_2 1_555 1_555
H6_2 C19_2 1_555 1_555
C20_2 N1_2 1_555 1_555
H7_2 C20_2 1_555 1_555
C21_2 N1_2 1_555 1_555
C22_2 C6_2 1_555 1_555
H8_2 C22_2 1_555 1_555
C31_2 O31_2 1_555 1_555
C39_2 S2_2 1_555 1_555
H19_2 C39_2 1_555 1_555
H22_2 C44_2 1_555 1_555
H23_2 C44_2 1_555 1_555
H24_2 C44_2 1_555 1_555
C45_2 S2_2 1_555 1_555
H25_2 C45_2 1_555 1_555
H26_2 C45_2 1_555 1_555
O32 Cu3 1_555 1_555
N8 Cu3 1_555 1_555
O11_2 C5_2 1_555 1_555
C19_2 C20_2 1_555 1_555
C21_2 C22_2 1_555 1_555
C21_2 C31_2 1_555 1_555
O28_2 H47_2 1_555 1_555
O28_2 H48_2 1_555 1_555
Dy1 O8_2 1_555 1_555
Cu2 O27_2 1_555 1_555
S3_2 O23_2 1_555 1_555
O1_2 C4_2 1_555 1_555
O3_2 C42_2 1_555 1_555
O32 C42_2 1_555 1_555
O8_2 C1_2 1_555 1_555
O23_2 Dy1 1_555 1_555
O24_2 Dy1 1_555 1_555
O25_2 Dy1 1_555 1_555
O26_2 C41_2 1_555 1_555
O27_2 C41_2 1_555 1_555
O29_2 Cu2 1_555 1_555
N8 C33_2 1_555 1_555
N4_2 Cu2 1_555 1_555
C1_2 O7_2 1_555 1_555
C4_2 O2_2 1_555 1_555
C13_2 C1_2 1_555 1_555
C23_2 H9_2 1_555 1_555
C24_2 C23_2 1_555 1_555
C25_2 O13_2 1_555 1_555
C26_2 N4_2 1_555 1_555
C27_2 N4_2 1_555 1_555
H10_2 C27_2 1_555 1_555
C28_2 C24_2 1_555 1_555
H11_2 C28_2 1_555 1_555
C32_2 H13_2 1_555 1_555
C33_2 C32_2 1_555 1_555
C34_2 N8 1_555 1_555
H14_2 C34_2 1_555 1_555
C35_2 C13_2 1_555 1_555
H15_2 C35_2 1_555 1_555
C37_2 C4_2 1_555 1_555
C41_2 C26_2 1_555 1_555
C42_2 C33_2 1_555 1_555
C43_2 C34_2 1_555 1_555
H21_2 C43_2 1_555 1_555
C50_2 S3_2 1_555 1_555
H40_2 C50_2 1_555 1_555
H42_2 C50_2 1_555 1_555
O33 Cu2 1_555 1_555
O34 Dy1 1_555 1_555
N7 Cu2 1_555 1_555
O25_2 C25_2 1_555 1_555
C23_2 C26_2 1_555 1_555
C24_2 C25_2 1_555 1_555
C27_2 C28_2 1_555 1_555
C32_2 C37_2 1_555 1_555
C37_2 C43_2 1_555 1_555
O29_2 H43_2 1_555 1_555
O29_2 H44_2 1_555 1_555
O5_2 C40_2 1_555 1_555
O33 C40_2 1_555 1_555
N7 C29_2 1_555 1_555
C29_2 H12_2 1_555 1_555
C30_2 N7 1_555 1_555
C40_2 C30_2 1_555 1_555
C30_2 C36_2 1_555 1_555
Cu1_2 O16_2 1_555 1_555
S1_2 O16_2 1_555 1_555
S4_2 O12_2 1_555 1_555
O12_2 Dy2 1_555 1_555
O14_2 Dy2 1_555 1_555
O17_2 Cu1_2 1_555 1_555
O18_2 C15_2 1_555 1_555
O34 C2_2 1_555 1_555
O35 C2_2 1_555 1_555
O21_2 C14_2 1_555 1_555
O22_2 Cu1_2 1_555 1_555
O30_2 Dy2 1_555 1_555
N5_2 Cu1_2 1_555 1_555
N6_2 Cu1_2 1_555 1_555
C2_2 C3_2 1_555 1_555
C3_2 C7_2 1_555 1_555
C7_2 H1_2 1_555 1_555
C8_2 H2_2 1_555 1_555
C9_2 N6_2 1_555 1_555
H3_2 C9_2 1_555 1_555
C10_2 H4_2 1_555 1_555
C11_2 N6_2 1_555 1_555
C12_2 O14_2 1_555 1_555
C14_2 O22_2 1_555 1_555
C15_2 O17_2 1_555 1_555
C16_2 C8_2 1_555 1_555
C17_2 N5_2 1_555 1_555
C18_2 N5_2 1_555 1_555
H5_2 C18_2 1_555 1_555
C38_2 C3_2 1_555 1_555
H17_2 C38_2 1_555 1_555
C46_2 S1_2 1_555 1_555
H28_2 C46_2 1_555 1_555
H29_2 C46_2 1_555 1_555
H30_2 C46_2 1_555 1_555
C47_2 S4_2 1_555 1_555
H31_2 C47_2 1_555 1_555
H32_2 C47_2 1_555 1_555
H33_2 C47_2 1_555 1_555
C48_2 S1_2 1_555 1_555
H34_2 C48_2 1_555 1_555
H35_2 C48_2 1_555 1_555
H36_2 C48_2 1_555 1_555
C49_2 S4_2 1_555 1_555
H37_2 C49_2 1_555 1_555
H38_2 C49_2 1_555 1_555
H39_2 C49_2 1_555 1_555
O15_2 C12_2 1_555 1_555
C7_2 C17_2 1_555 1_555
C8_2 C9_2 1_555 1_555
C10_2 C11_2 1_555 1_555
C10_2 C16_2 1_555 1_555
C11_2 C15_2 1_555 1_555
C12_2 C16_2 1_555 1_555
C14_2 C17_2 1_555 1_555
C18_2 C38_2 1_555 1_555
O30_2 H45_2 1_555 1_555
O30_2 H46_2 1_555 1_555

#END
