
###############################################################################
#
# This file contains modified crystal structure data generated from the
# MOF subset of the Cambridge Structural Database (CSD) v543 
# hosted by the Cambridge Crystallographic Data Centre (CCDC).
#
# This work is licensed under the Creative Commons
# Attribution-NonCommercial-ShareAlike 4.0 International License.
# To view a copy of this license, visit
# http://creativecommons.org/licenses/by-nc-sa/4.0/
# or send a letter to
# Creative Commons, PO Box 1866, Mountain View, CA 94042, USA.
#
# CIF created using the CSD Python API on 29 September 2022
# The structure has been converted into the P1 space group
# The structure has a 3D framework
# The original CSD entry VUFJUE is in the orthorhombic crystal system
# The framework has been calculated to contain at least 10.0% void space
# The void calculation uses a probe of radius 1.32A, grid spacing 0.4
#
###############################################################################

data_VUFJUE
_chemical_formula_moiety         '(C128 H56 Fe2 N22 Ni10 O18)n'
_symmetry_cell_setting           triclinic
_symmetry_space_group_name_H-M   'P 1'
_symmetry_Int_Tables_number      1
_space_group_name_Hall           'P 1'
loop_
_symmetry_equiv_pos_site_id
_symmetry_equiv_pos_as_xyz
1 x,y,z
_cell_length_a                   6.8484(3)
_cell_length_b                   32.9205(14)
_cell_length_c                   16.5679(8)
_cell_angle_alpha                90
_cell_angle_beta                 90
_cell_angle_gamma                90
_cell_volume                     3735.28
loop_
_atom_site_label
_atom_site_type_symbol
_atom_site_fract_x
_atom_site_fract_y
_atom_site_fract_z
O2 O 0.000000 0.27746(7) 0.500000
Fe9 Fe 0.250000 0.250000 0.500000
Ni1 Ni 0.500000 0.500000 0.000000
N1 N 0.500000 0.44087(11) 0.000000
N3 N 0.500000 0.55913(11) 0.000000
O4 O 0.3383(3) 0.28930(5) 0.41440(11)
N4 N 0.500000 0.500000 0.1178(2)
C21 C 0.500000 0.37329(11) 0.0404(2)
H9 H 0.500000 0.350604 0.073881
C22 C 0.500000 0.41507(10) 0.0656(2)
C23 C 0.500000 0.42668(10) 0.1456(2)
C24 C 0.500000 0.46711(10) 0.1692(2)
C25 C 0.500000 0.47952(11) 0.2515(2)
H10 H 0.500000 0.462657 0.296568
C26 C 0.500000 0.39422(10) 0.2090(2)
C27 C 0.3278(5) 0.37915(10) 0.2383(2)
H11 H 0.209764 0.388760 0.218119
C28 C 0.3288(4) 0.34949(10) 0.2981(2)
H12 H 0.211003 0.339945 0.318597
C29 C 0.500000 0.33422(10) 0.3270(2)
C30 C 0.500000 0.30153(10) 0.3897(2)
O5 O 0.6617(3) 0.28930(5) 0.41440(11)
C31 C 0.6722(5) 0.37915(10) 0.2383(2)
H13 H 0.790236 0.388760 0.218119
C32 C 0.6712(4) 0.34949(10) 0.2981(2)
H14 H 0.788997 0.339945 0.318597
O8 O 0.6617(3) 0.71070(5) 0.41440(11)
C37 C 0.500000 0.62671(11) 0.0404(2)
H19 H 0.500000 0.649396 0.073881
C38 C 0.500000 0.58493(10) 0.0656(2)
C39 C 0.500000 0.57332(10) 0.1456(2)
C40 C 0.500000 0.53289(10) 0.1692(2)
C41 C 0.500000 0.52048(11) 0.2515(2)
H20 H 0.500000 0.537343 0.296568
C42 C 0.500000 0.60578(10) 0.2090(2)
C43 C 0.6722(5) 0.62085(10) 0.2383(2)
H21 H 0.790236 0.611240 0.218119
C44 C 0.6712(4) 0.65051(10) 0.2981(2)
H22 H 0.788997 0.660055 0.318597
C45 C 0.500000 0.66578(10) 0.3270(2)
C46 C 0.500000 0.69847(10) 0.3897(2)
O9 O 0.3383(3) 0.71070(5) 0.41440(11)
C47 C 0.3278(5) 0.62085(10) 0.2383(2)
H23 H 0.209764 0.611240 0.218119
C48 C 0.3288(4) 0.65051(10) 0.2981(2)
H24 H 0.211003 0.660055 0.318597
Fe3 Fe 0.750000 0.250000 0.500000
Fe4 Fe 0.250000 0.750000 0.500000
Fe6 Fe 0.750000 0.750000 0.500000
Ni1_2 Ni 0.500000 0.500000 1.000000
O1 O 0.6617(3) 0.28930(5) 0.58560(11)
O2_2 O 1.000000 0.27746(7) 0.500000
N1_2 N 0.500000 0.44087(11) 1.000000
N2 N 0.500000 0.500000 0.8822(2)
C1 C 0.500000 0.37329(11) 0.9596(2)
H1 H 0.500000 0.350604 0.926119
C2 C 0.500000 0.41507(10) 0.9344(2)
C3 C 0.500000 0.42668(10) 0.8544(2)
C4 C 0.500000 0.46711(10) 0.8308(2)
C5 C 0.500000 0.47952(11) 0.7485(2)
H2 H 0.500000 0.462657 0.703432
C6 C 0.500000 0.39422(10) 0.7910(2)
C7 C 0.6722(5) 0.37915(10) 0.7617(2)
H3 H 0.790236 0.388760 0.781881
C8 C 0.6712(4) 0.34949(10) 0.7019(2)
H4 H 0.788997 0.339945 0.681403
C9 C 0.500000 0.33422(10) 0.6730(2)
C10 C 0.500000 0.30153(10) 0.6103(2)
O3 O 0.3383(3) 0.71070(5) 0.58560(11)
N3_2 N 0.500000 0.55913(11) 1.000000
C11 C 0.500000 0.62671(11) 0.9596(2)
H5 H 0.500000 0.649396 0.926119
C12 C 0.500000 0.58493(10) 0.9344(2)
C13 C 0.500000 0.57332(10) 0.8544(2)
C14 C 0.500000 0.53289(10) 0.8308(2)
C15 C 0.500000 0.52048(11) 0.7485(2)
H6 H 0.500000 0.537343 0.703432
C16 C 0.500000 0.60578(10) 0.7910(2)
C17 C 0.3278(5) 0.62085(10) 0.7617(2)
H7 H 0.209764 0.611240 0.781881
C18 C 0.3288(4) 0.65051(10) 0.7019(2)
H8 H 0.211003 0.660055 0.681403
C19 C 0.500000 0.66578(10) 0.6730(2)
C20 C 0.500000 0.69847(10) 0.6103(2)
O6 O 0.3383(3) 0.28930(5) 0.58560(11)
C33 C 0.3278(5) 0.37915(10) 0.7617(2)
H15 H 0.209764 0.388760 0.781881
C34 C 0.3288(4) 0.34949(10) 0.7019(2)
H16 H 0.211003 0.339945 0.681403
O7 O 0.6617(3) 0.71070(5) 0.58560(11)
C35 C 0.6722(5) 0.62085(10) 0.7617(2)
H17 H 0.790236 0.611240 0.781881
C36 C 0.6712(4) 0.65051(10) 0.7019(2)
H18 H 0.788997 0.660055 0.681403
O10 O 0.500000 0.22254(7) 0.500000
O11 O 0.1617(3) 0.78930(5) 0.58560(11)
O12 O 0.8383(3) 0.21070(5) 0.58560(11)
O15 O 0.8383(3) 0.21070(5) 0.41440(11)
O16 O 0.1617(3) 0.78930(5) 0.41440(11)
O17 O 0.000000 0.72254(7) 0.500000
O18 O 0.500000 0.77746(7) 0.500000
O17_2 O 1.000000 0.72254(7) 0.500000
O11_2 O 0.1617(3) 0.21070(5) 0.41440(11)
O12_2 O 0.8383(3) 0.78930(5) 0.41440(11)
O15_2 O 0.8383(3) 0.78930(5) 0.58560(11)
O16_2 O 0.1617(3) 0.21070(5) 0.58560(11)
Ni1_3 Ni 0.000000 -0.000000 0.000000
N3_3 N 0.000000 0.05913(11) 0.000000
N4_2 N 0.000000 -0.000000 0.1178(2)
C37_2 C -0.000000 0.12671(11) 0.0404(2)
H19_2 H -0.000000 0.149396 0.073881
C38_2 C -0.000000 0.08493(10) 0.0656(2)
C39_2 C 0.000000 0.07332(10) 0.1456(2)
C40_2 C 0.000000 0.03289(10) 0.1692(2)
C41_2 C 0.000000 0.02048(11) 0.2515(2)
H20_2 H 0.000000 0.037343 0.296568
C42_2 C 0.000000 0.10578(10) 0.2090(2)
C43_2 C 0.1722(5) 0.12085(10) 0.2383(2)
H21_2 H 0.290236 0.111240 0.218119
C44_2 C 0.1712(4) 0.15051(10) 0.2981(2)
H22_2 H 0.288997 0.160055 0.318597
C45_2 C 0.000000 0.16578(10) 0.3270(2)
C46_2 C 0.000000 0.19847(10) 0.3897(2)
Ni1_4 Ni 0.000000 -0.000000 1.000000
N2_2 N 0.000000 0.000000 0.8822(2)
N3_4 N 0.000000 0.05913(11) 1.000000
C11_2 C -0.000000 0.12671(11) 0.9596(2)
H5_2 H -0.000000 0.149396 0.926119
C12_2 C 0.000000 0.08493(10) 0.9344(2)
C13_2 C 0.000000 0.07332(10) 0.8544(2)
C14_2 C 0.000000 0.03289(10) 0.8308(2)
C15_2 C 0.000000 0.02048(11) 0.7485(2)
H6_2 H 0.000000 0.037343 0.703432
C16_2 C 0.000000 0.10578(10) 0.7910(2)
C19_2 C 0.000000 0.16578(10) 0.6730(2)
C20_2 C 0.000000 0.19847(10) 0.6103(2)
C35_2 C 0.1722(5) 0.12085(10) 0.7617(2)
H17_2 H 0.290236 0.111240 0.781881
C36_2 C 0.1712(4) 0.15051(10) 0.7019(2)
H18_2 H 0.288997 0.160055 0.681403
Ni1_5 Ni 0.000000 1.000000 0.000000
N1_3 N 0.000000 0.94087(11) 0.000000
N4_3 N 0.000000 1.000000 0.1178(2)
C21_2 C 0.000000 0.87329(11) 0.0404(2)
H9_2 H 0.000000 0.850604 0.073881
C22_2 C 0.000000 0.91507(10) 0.0656(2)
C23_2 C 0.000000 0.92668(10) 0.1456(2)
C24_2 C 0.000000 0.96711(10) 0.1692(2)
C25_2 C 0.000000 0.97952(11) 0.2515(2)
H10_2 H 0.000000 0.962657 0.296568
C26_2 C 0.000000 0.89422(10) 0.2090(2)
C29_2 C 0.000000 0.83422(10) 0.3270(2)
C30_2 C 0.000000 0.80153(10) 0.3897(2)
C31_2 C 0.1722(5) 0.87915(10) 0.2383(2)
H13_2 H 0.290236 0.888760 0.218119
C32_2 C 0.1712(4) 0.84949(10) 0.2981(2)
H14_2 H 0.288997 0.839945 0.318597
Ni1_6 Ni 0.000000 1.000000 1.000000
N1_4 N 0.000000 0.94087(11) 1.000000
N2_3 N 0.000000 1.000000 0.8822(2)
C1_2 C 0.000000 0.87329(11) 0.9596(2)
H1_2 H 0.000000 0.850604 0.926119
C2_2 C 0.000000 0.91507(10) 0.9344(2)
C3_2 C 0.000000 0.92668(10) 0.8544(2)
C4_2 C 0.000000 0.96711(10) 0.8308(2)
C5_2 C 0.000000 0.97952(11) 0.7485(2)
H2_2 H 0.000000 0.962657 0.703432
C6_2 C 0.000000 0.89422(10) 0.7910(2)
C7_2 C 0.1722(5) 0.87915(10) 0.7617(2)
H3_2 H 0.290236 0.888760 0.781881
C8_2 C 0.1712(4) 0.84949(10) 0.7019(2)
H4_2 H 0.288997 0.839945 0.681403
C9_2 C 0.000000 0.83422(10) 0.6730(2)
C10_2 C 0.000000 0.80153(10) 0.6103(2)
Ni1_7 Ni 1.000000 -0.000000 0.000000
N3_5 N 1.000000 0.05913(11) 0.000000
N4_4 N 1.000000 -0.000000 0.1178(2)
C37_3 C 1.000000 0.12671(11) 0.0404(2)
H19_3 H 1.000000 0.149396 0.073881
C38_3 C 1.000000 0.08493(10) 0.0656(2)
C39_3 C 1.000000 0.07332(10) 0.1456(2)
C40_3 C 1.000000 0.03289(10) 0.1692(2)
C41_3 C 1.000000 0.02048(11) 0.2515(2)
H20_3 H 1.000000 0.037343 0.296568
C42_3 C 1.000000 0.10578(10) 0.2090(2)
C45_3 C 1.000000 0.16578(10) 0.3270(2)
C46_3 C 1.000000 0.19847(10) 0.3897(2)
C47_2 C 0.8278(5) 0.12085(10) 0.2383(2)
H23_2 H 0.709764 0.111240 0.218119
C48_2 C 0.8288(4) 0.15051(10) 0.2981(2)
H24_2 H 0.711003 0.160055 0.318597
Ni1_8 Ni 1.000000 -0.000000 1.000000
N2_4 N 1.000000 0.000000 0.8822(2)
N3_6 N 1.000000 0.05913(11) 1.000000
C11_3 C 1.000000 0.12671(11) 0.9596(2)
H5_3 H 1.000000 0.149396 0.926119
C12_3 C 1.000000 0.08493(10) 0.9344(2)
C13_3 C 1.000000 0.07332(10) 0.8544(2)
C14_3 C 1.000000 0.03289(10) 0.8308(2)
C15_3 C 1.000000 0.02048(11) 0.7485(2)
H6_3 H 1.000000 0.037343 0.703432
C16_3 C 1.000000 0.10578(10) 0.7910(2)
C17_2 C 0.8278(5) 0.12085(10) 0.7617(2)
H7_2 H 0.709764 0.111240 0.781881
C18_2 C 0.8288(4) 0.15051(10) 0.7019(2)
H8_2 H 0.711003 0.160055 0.681403
C19_3 C 1.000000 0.16578(10) 0.6730(2)
C20_3 C 1.000000 0.19847(10) 0.6103(2)
Ni1_9 Ni 1.000000 1.000000 0.000000
N1_5 N 1.000000 0.94087(11) 0.000000
N4_5 N 1.000000 1.000000 0.1178(2)
C21_3 C 1.000000 0.87329(11) 0.0404(2)
H9_3 H 1.000000 0.850604 0.073881
C22_3 C 1.000000 0.91507(10) 0.0656(2)
C23_3 C 1.000000 0.92668(10) 0.1456(2)
C24_3 C 1.000000 0.96711(10) 0.1692(2)
C25_3 C 1.000000 0.97952(11) 0.2515(2)
H10_3 H 1.000000 0.962657 0.296568
C26_3 C 1.000000 0.89422(10) 0.2090(2)
C27_2 C 0.8278(5) 0.87915(10) 0.2383(2)
H11_2 H 0.709764 0.888760 0.218119
C28_2 C 0.8288(4) 0.84949(10) 0.2981(2)
H12_2 H 0.711003 0.839945 0.318597
C29_3 C 1.000000 0.83422(10) 0.3270(2)
C30_3 C 1.000000 0.80153(10) 0.3897(2)
Ni1_10 Ni 1.000000 1.000000 1.000000
N1_6 N 1.000000 0.94087(11) 1.000000
N2_5 N 1.000000 1.000000 0.8822(2)
C1_3 C 1.000000 0.87329(11) 0.9596(2)
H1_3 H 1.000000 0.850604 0.926119
C2_3 C 1.000000 0.91507(10) 0.9344(2)
C3_3 C 1.000000 0.92668(10) 0.8544(2)
C4_3 C 1.000000 0.96711(10) 0.8308(2)
C5_3 C 1.000000 0.97952(11) 0.7485(2)
H2_3 H 1.000000 0.962657 0.703432
C6_3 C 1.000000 0.89422(10) 0.7910(2)
C9_3 C 1.000000 0.83422(10) 0.6730(2)
C10_3 C 1.000000 0.80153(10) 0.6103(2)
C33_2 C 0.8278(5) 0.87915(10) 0.7617(2)
H15_2 H 0.709764 0.888760 0.781881
C34_2 C 0.8288(4) 0.84949(10) 0.7019(2)
H16_2 H 0.711003 0.839945 0.681403
loop_
_geom_bond_atom_site_label_1
_geom_bond_atom_site_label_2
_geom_bond_site_symmetry_1
_geom_bond_site_symmetry_2
Fe9 O2 1_555 1_555
Ni1 N1 1_555 1_555
N3 Ni1 1_555 1_555
O4 C30 1_555 1_555
N4 Ni1 1_555 1_555
H9 C21 1_555 1_555
C22 N1 1_555 1_555
C23 C22 1_555 1_555
C24 N4 1_555 1_555
C25 C24 1_555 1_555
H10 C25 1_555 1_555
C26 C23 1_555 1_555
C27 C26 1_555 1_555
H11 C27 1_555 1_555
C28 C27 1_555 1_555
H12 C28 1_555 1_555
C29 C28 1_555 1_555
C30 C29 1_555 1_555
O5 C30 1_555 1_555
C31 C26 1_555 1_555
H13 C31 1_555 1_555
C32 C29 1_555 1_555
H14 C32 1_555 1_555
O8 C46 1_555 1_555
H19 C37 1_555 1_555
C38 N3 1_555 1_555
C39 C38 1_555 1_555
C40 N4 1_555 1_555
C41 C25 1_555 1_555
H20 C41 1_555 1_555
C42 C39 1_555 1_555
C43 C42 1_555 1_555
H21 C43 1_555 1_555
C44 C43 1_555 1_555
H22 C44 1_555 1_555
C45 C44 1_555 1_555
C46 C45 1_555 1_555
O9 C46 1_555 1_555
C47 C42 1_555 1_555
H23 C47 1_555 1_555
C48 C45 1_555 1_555
H24 C48 1_555 1_555
Fe3 O5 1_555 1_555
Fe4 O9 1_555 1_555
Fe6 O8 1_555 1_555
Fe9 O4 1_555 1_555
C21 C22 1_555 1_555
C23 C24 1_555 1_555
C31 C32 1_555 1_555
C37 C38 1_555 1_555
C39 C40 1_555 1_555
C40 C41 1_555 1_555
C47 C48 1_555 1_555
Ni1_2 N1_2 1_555 1_555
Fe3 O1 1_555 1_555
O1 C10 1_555 1_555
O2_2 Fe3 1_555 1_555
N1_2 C2 1_555 1_555
N2 Ni1_2 1_555 1_555
C1 H1 1_555 1_555
C2 C1 1_555 1_555
C3 C2 1_555 1_555
C4 N2 1_555 1_555
C5 C4 1_555 1_555
H2 C5 1_555 1_555
C6 C3 1_555 1_555
C7 C6 1_555 1_555
H3 C7 1_555 1_555
C8 C7 1_555 1_555
H4 C8 1_555 1_555
C9 C8 1_555 1_555
C10 C9 1_555 1_555
O3 C20 1_555 1_555
N3_2 Ni1_2 1_555 1_555
C11 H5 1_555 1_555
C12 N3_2 1_555 1_555
C13 C12 1_555 1_555
C14 N2 1_555 1_555
C15 C5 1_555 1_555
H6 C15 1_555 1_555
C16 C13 1_555 1_555
C17 C16 1_555 1_555
H7 C17 1_555 1_555
C18 C17 1_555 1_555
H8 C18 1_555 1_555
C19 C18 1_555 1_555
C20 C19 1_555 1_555
O6 C10 1_555 1_555
C33 C6 1_555 1_555
H15 C33 1_555 1_555
C34 C9 1_555 1_555
H16 C34 1_555 1_555
O7 C20 1_555 1_555
C35 C16 1_555 1_555
H17 C35 1_555 1_555
C36 C19 1_555 1_555
H18 C36 1_555 1_555
Fe4 O3 1_555 1_555
O10 Fe3 1_555 1_555
Fe6 O7 1_555 1_555
Fe9 O6 1_555 1_555
O11 Fe4 1_555 1_555
O12 Fe3 1_555 1_555
O15 Fe3 1_555 1_555
O16 Fe4 1_555 1_555
O17 Fe4 1_555 1_555
O18 Fe4 1_555 1_555
C3 C4 1_555 1_555
C11 C12 1_555 1_555
C13 C14 1_555 1_555
C14 C15 1_555 1_555
C33 C34 1_555 1_555
C35 C36 1_555 1_555
O10 Fe9 1_555 1_555
Fe6 O18 1_555 1_555
Fe6 O17_2 1_555 1_555
O11_2 Fe9 1_555 1_555
O12_2 Fe6 1_555 1_555
O15_2 Fe6 1_555 1_555
O16_2 Fe9 1_555 1_555
N3_3 Ni1_3 1_555 1_555
N4_2 Ni1_3 1_555 1_555
O11_2 C46_2 1_555 1_555
H19_2 C37_2 1_555 1_555
C38_2 N3_3 1_555 1_555
C39_2 C38_2 1_555 1_555
C40_2 N4_2 1_555 1_555
H20_2 C41_2 1_555 1_555
C42_2 C39_2 1_555 1_555
C43_2 C42_2 1_555 1_555
H21_2 C43_2 1_555 1_555
C44_2 C43_2 1_555 1_555
H22_2 C44_2 1_555 1_555
C45_2 C44_2 1_555 1_555
C46_2 C45_2 1_555 1_555
C37_2 C38_2 1_555 1_555
C39_2 C40_2 1_555 1_555
C40_2 C41_2 1_555 1_555
N2_2 Ni1_4 1_555 1_555
N3_4 Ni1_4 1_555 1_555
C11_2 H5_2 1_555 1_555
C12_2 N3_4 1_555 1_555
C13_2 C12_2 1_555 1_555
C14_2 N2_2 1_555 1_555
H6_2 C15_2 1_555 1_555
C16_2 C13_2 1_555 1_555
C20_2 C19_2 1_555 1_555
O16_2 C20_2 1_555 1_555
C35_2 C16_2 1_555 1_555
H17_2 C35_2 1_555 1_555
C36_2 C19_2 1_555 1_555
H18_2 C36_2 1_555 1_555
C11_2 C12_2 1_555 1_555
C13_2 C14_2 1_555 1_555
C14_2 C15_2 1_555 1_555
C35_2 C36_2 1_555 1_555
Ni1_5 N1_3 1_555 1_555
N4_3 Ni1_5 1_555 1_555
H9_2 C21_2 1_555 1_555
C22_2 N1_3 1_555 1_555
C23_2 C22_2 1_555 1_555
C24_2 N4_3 1_555 1_555
C25_2 C24_2 1_555 1_555
H10_2 C25_2 1_555 1_555
C26_2 C23_2 1_555 1_555
C30_2 C29_2 1_555 1_555
O16 C30_2 1_555 1_555
C31_2 C26_2 1_555 1_555
H13_2 C31_2 1_555 1_555
C32_2 C29_2 1_555 1_555
H14_2 C32_2 1_555 1_555
C21_2 C22_2 1_555 1_555
C23_2 C24_2 1_555 1_555
C31_2 C32_2 1_555 1_555
Ni1_6 N1_4 1_555 1_555
O11 C10_2 1_555 1_555
N1_4 C2_2 1_555 1_555
N2_3 Ni1_6 1_555 1_555
C1_2 H1_2 1_555 1_555
C2_2 C1_2 1_555 1_555
C3_2 C2_2 1_555 1_555
C4_2 N2_3 1_555 1_555
C5_2 C4_2 1_555 1_555
H2_2 C5_2 1_555 1_555
C6_2 C3_2 1_555 1_555
C7_2 C6_2 1_555 1_555
H3_2 C7_2 1_555 1_555
C8_2 C7_2 1_555 1_555
H4_2 C8_2 1_555 1_555
C9_2 C8_2 1_555 1_555
C10_2 C9_2 1_555 1_555
C3_2 C4_2 1_555 1_555
N3_5 Ni1_7 1_555 1_555
N4_4 Ni1_7 1_555 1_555
H19_3 C37_3 1_555 1_555
C38_3 N3_5 1_555 1_555
C39_3 C38_3 1_555 1_555
C40_3 N4_4 1_555 1_555
H20_3 C41_3 1_555 1_555
C42_3 C39_3 1_555 1_555
C46_3 C45_3 1_555 1_555
O15 C46_3 1_555 1_555
C47_2 C42_3 1_555 1_555
H23_2 C47_2 1_555 1_555
C48_2 C45_3 1_555 1_555
H24_2 C48_2 1_555 1_555
C37_3 C38_3 1_555 1_555
C39_3 C40_3 1_555 1_555
C40_3 C41_3 1_555 1_555
C47_2 C48_2 1_555 1_555
N2_4 Ni1_8 1_555 1_555
O12 C20_3 1_555 1_555
N3_6 Ni1_8 1_555 1_555
C11_3 H5_3 1_555 1_555
C12_3 N3_6 1_555 1_555
C13_3 C12_3 1_555 1_555
C14_3 N2_4 1_555 1_555
H6_3 C15_3 1_555 1_555
C16_3 C13_3 1_555 1_555
C17_2 C16_3 1_555 1_555
H7_2 C17_2 1_555 1_555
C18_2 C17_2 1_555 1_555
H8_2 C18_2 1_555 1_555
C19_3 C18_2 1_555 1_555
C20_3 C19_3 1_555 1_555
C11_3 C12_3 1_555 1_555
C13_3 C14_3 1_555 1_555
C14_3 C15_3 1_555 1_555
Ni1_9 N1_5 1_555 1_555
O12_2 C30_3 1_555 1_555
N4_5 Ni1_9 1_555 1_555
H9_3 C21_3 1_555 1_555
C22_3 N1_5 1_555 1_555
C23_3 C22_3 1_555 1_555
C24_3 N4_5 1_555 1_555
C25_3 C24_3 1_555 1_555
H10_3 C25_3 1_555 1_555
C26_3 C23_3 1_555 1_555
C27_2 C26_3 1_555 1_555
H11_2 C27_2 1_555 1_555
C28_2 C27_2 1_555 1_555
H12_2 C28_2 1_555 1_555
C29_3 C28_2 1_555 1_555
C30_3 C29_3 1_555 1_555
C21_3 C22_3 1_555 1_555
C23_3 C24_3 1_555 1_555
Ni1_10 N1_6 1_555 1_555
N1_6 C2_3 1_555 1_555
N2_5 Ni1_10 1_555 1_555
C1_3 H1_3 1_555 1_555
C2_3 C1_3 1_555 1_555
C3_3 C2_3 1_555 1_555
C4_3 N2_5 1_555 1_555
C5_3 C4_3 1_555 1_555
H2_3 C5_3 1_555 1_555
C6_3 C3_3 1_555 1_555
C10_3 C9_3 1_555 1_555
O15_2 C10_3 1_555 1_555
C33_2 C6_3 1_555 1_555
H15_2 C33_2 1_555 1_555
C34_2 C9_3 1_555 1_555
H16_2 C34_2 1_555 1_555
C3_3 C4_3 1_555 1_555
C33_2 C34_2 1_555 1_555

#END
