
###############################################################################
#
# This file contains modified crystal structure data generated from the
# MOF subset of the Cambridge Structural Database (CSD) v543 
# hosted by the Cambridge Crystallographic Data Centre (CCDC).
#
# This work is licensed under the Creative Commons
# Attribution-NonCommercial-ShareAlike 4.0 International License.
# To view a copy of this license, visit
# http://creativecommons.org/licenses/by-nc-sa/4.0/
# or send a letter to
# Creative Commons, PO Box 1866, Mountain View, CA 94042, USA.
#
# CIF created using the CSD Python API on 29 September 2022
# The structure has been converted into the P1 space group
# The structure has a 3D framework
# The original CSD entry VUGWUR is in the triclinic crystal system
# The framework has been calculated to contain at least 10.0% void space
# The void calculation uses a probe of radius 1.32A, grid spacing 0.4
# H atom positions have been added when not included in the experimental data
#
###############################################################################

data_VUGWUR
_chemical_formula_moiety         '(C60 H62 Cl2 La2 N10 O28)n'
_symmetry_cell_setting           triclinic
_symmetry_space_group_name_H-M   'P 1'
_symmetry_Int_Tables_number      1
_space_group_name_Hall           'P 1'
loop_
_symmetry_equiv_pos_site_id
_symmetry_equiv_pos_as_xyz
1 x,y,z
_cell_length_a                   9.55740(10)
_cell_length_b                   12.6056(2)
_cell_length_c                   18.9892(3)
_cell_angle_alpha                106.1310(10)
_cell_angle_beta                 98.9710(10)
_cell_angle_gamma                100.4790(10)
_cell_volume                     2108.78
loop_
_atom_site_label
_atom_site_type_symbol
_atom_site_fract_x
_atom_site_fract_y
_atom_site_fract_z
La6 La 0.23318(3) 0.01821(2) 0.003855(13)
N1 N 0.0004(5) 0.1475(4) 0.6786(2)
O6 O 0.1026(4) 0.1239(4) 0.9354(2)
C16 C 0.1241(6) 0.3975(5) 0.6595(3)
H6 H 0.1463 0.3407 0.6830
H7 H 0.1167 0.4652 0.6981
H8 H 0.2021 0.4184 0.6344
C18 C 0.0074(6) 0.1533(4) 0.6003(3)
H10 H 0.1106 0.1792 0.5984
C19 C 0.1171(6) 0.1281(6) 0.7908(4)
H12 H 0.2029 0.1238 0.8217
C21 C 0.0559(6) 0.7371(5) 0.7975(3)
H13 H 0.1384 0.7798 0.8365
H14 H 0.0857 0.5565 0.6020
C27 C 0.1207(6) 0.1396(5) 0.7213(4)
H21 H 0.2085 0.1418 0.7035
C29 C 0.0738(6) 0.6709(5) 0.7303(3)
H24 H 0.1694 0.6685 0.7228
O10 O 0.0025(4) 0.1110(3) 0.0744(2)
O1 O 0.6905(4) 0.0227(4) 0.11957(19)
O2 O 0.4598(4) 0.0311(3) 0.08820(19)
O3 O 0.9975(4) 0.8890(3) 0.9256(2)
O4 O 0.7606(4) 0.8140(4) 0.8833(2)
O5 O 0.8579(4) 0.0673(4) 0.9013(2)
N2 N 0.9572(5) 0.6089(4) 0.6747(2)
C1 C 0.9220(5) 0.2322(4) 0.5775(3)
C2 C 0.9809(5) 0.3483(4) 0.6023(2)
C3 C 0.7125(5) 0.2588(5) 0.5016(3)
C4 C 0.9086(5) 0.4200(4) 0.5747(3)
O7 O 0.7224(5) 0.1809(4) 0.0271(3)
C5 C 0.5681(5) 0.0809(4) 0.2171(3)
C6 C 0.7735(6) 0.3749(5) 0.5228(3)
C7 C 0.4434(5) 0.1403(5) 0.3159(3)
H1 H 0.3561 0.1513 0.3317
C8 C 0.4421(5) 0.0992(5) 0.2406(3)
H2 H 0.3540 0.0833 0.2044
C9 C 0.7840(5) 0.1852(5) 0.5272(3)
C10 C 0.9880(6) 0.1227(5) 0.8160(3)
C11 C 0.6951(5) 0.1021(5) 0.2719(3)
H3 H 0.7823 0.0869 0.2578
C12 C 0.8745(5) 0.1451(5) 0.7016(3)
H4 H 0.7917 0.1534 0.6707
C13 C 0.9820(6) 0.1033(5) 0.8914(3)
C14 C 0.6917(5) 0.1454(5) 0.3466(3)
H5 H 0.7779 0.1614 0.3840
C15 C 0.5720(5) 0.0404(4) 0.1343(3)
C17 C 0.8655(6) 0.1305(5) 0.7701(3)
H9 H 0.7755 0.1259 0.7858
H11 H 0.9691 0.0761 0.5637
C20 C 0.9165(6) 0.7410(4) 0.8079(3)
C22 C 0.9797(7) 0.5463(5) 0.5998(3)
H15 H 0.9392 0.5795 0.5620
C23 C 0.8898(6) 0.8196(5) 0.8777(3)
C24 C 0.8226(6) 0.6086(5) 0.6851(3)
H16 H 0.7417 0.5623 0.6462
C25 C 0.7211(8) 0.0594(6) 0.5017(4)
H17 H 0.6360 0.0394 0.4603
H18 H 0.6914 0.0368 0.5436
H19 H 0.7947 0.0196 0.4847
C26 C 0.7986(6) 0.6740(5) 0.7511(3)
H20 H 0.7019 0.6732 0.7576
C28 C 0.5627(6) 0.2091(7) 0.4492(3)
H22 H 0.5102 0.1461 0.4638
H23 H 0.5063 0.2684 0.4555
C30 C 0.6918(8) 0.4504(7) 0.4897(3)
H25 H 0.6597 0.4153 0.4351
H26 H 0.7569 0.5255 0.5011
H27 H 0.6067 0.4584 0.5117
N3 N 0.5693(5) 0.1650(4) 0.3671(2)
La3 La 0.76682(3) 0.98179(2) 0.996145(13)
H28 H 0.788801 0.229961 0.0753631
H29 H 0.741425 0.213152 0.986433
O13 O 0.8974(4) 0.8761(4) 0.0646(2)
H30 H 0.484361 0.823373 0.000184202
O8 O 0.5779(5) 0.8029(4) 0.9931(3)
O9 O 0.5402(4) 0.9689(3) 0.91180(19)
H31 H 0.561675 0.743104 0.9439
O8_2 O 0.4221(5) 0.1971(4) 0.0069(3)
O11 O 0.2394(4) 0.1860(4) 0.1167(2)
H31_2 H 0.438325 0.256896 0.0560997
H30_2 H 0.515639 0.176627 0.999816
O12 O 0.1421(4) 0.9327(4) 0.0987(2)
H29_2 H 0.258575 0.786848 0.013567
O1_2 O 0.3095(4) 0.9773(4) 0.88043(19)
N2_2 N 0.0428(5) 0.3911(4) 0.3253(2)
C1_2 C 0.0780(5) 0.7678(4) 0.4225(3)
C2_2 C 0.0191(5) 0.6517(4) 0.3977(2)
C3_2 C 0.2875(5) 0.7412(5) 0.4984(3)
C4_2 C 0.0914(5) 0.5800(4) 0.4253(3)
O7_2 O 0.2776(5) 0.8191(4) 0.9729(3)
C5_2 C 0.4319(5) 0.9191(4) 0.7829(3)
C6_2 C 0.2265(6) 0.6251(5) 0.4772(3)
C7_2 C 0.5566(5) 0.8597(5) 0.6841(3)
H1_2 H 0.6439 0.8487 0.6683
C8_2 C 0.5579(5) 0.9008(5) 0.7594(3)
H2_2 H 0.6460 0.9167 0.7956
C9_2 C 0.2160(5) 0.8148(5) 0.4728(3)
C10_2 C 0.0120(6) 0.8773(5) 0.1840(3)
C11_2 C 0.3049(5) 0.8979(5) 0.7281(3)
H3_2 H 0.2177 0.9131 0.7422
C12_2 C 0.1255(5) 0.8549(5) 0.2984(3)
H4_2 H 0.2083 0.8466 0.3293
C13_2 C 0.0180(6) 0.8967(5) 0.1086(3)
C14_2 C 0.3083(5) 0.8546(5) 0.6534(3)
H5_2 H 0.2221 0.8386 0.6160
C15_2 C 0.4280(5) 0.9596(4) 0.8657(3)
C17_2 C 0.1345(6) 0.8695(5) 0.2299(3)
H9_2 H 0.2245 0.8741 0.2142
H11_2 H 0.0309 0.9239 0.4363
C20_2 C 0.0835(6) 0.2590(4) 0.1921(3)
C22_2 C 0.0203(7) 0.4537(5) 0.4002(3)
H15_2 H 0.0608 0.4205 0.4380
C23_2 C 0.1102(6) 0.1804(5) 0.1223(3)
C24_2 C 0.1774(6) 0.3914(5) 0.3149(3)
H16_2 H 0.2583 0.4377 0.3538
C25_2 C 0.2789(8) 0.9406(6) 0.4983(4)
H17_2 H 0.3640 0.9606 0.5397
H18_2 H 0.3086 0.9632 0.4564
H19_2 H 0.2053 0.9804 0.5153
C26_2 C 0.2014(6) 0.3260(5) 0.2489(3)
H20_2 H 0.2981 0.3268 0.2424
C28_2 C 0.4373(6) 0.7909(7) 0.5508(3)
H22_2 H 0.4898 0.8539 0.5362
H23_2 H 0.4937 0.7316 0.5445
C30_2 C 0.3082(8) 0.5496(7) 0.5103(3)
H25_2 H 0.3403 0.5847 0.5649
H26_2 H 0.2431 0.4745 0.4989
H27_2 H 0.3933 0.5416 0.4883
N3_2 N 0.4307(5) 0.8350(4) 0.6329(2)
H28_2 H 0.211199 0.770039 0.924637
N1_2 N 0.9996(5) 0.8525(4) 0.3214(2)
C16_2 C 0.8759(6) 0.6025(5) 0.3405(3)
H6_2 H 0.8537 0.6593 0.3170
H7_2 H 0.8833 0.5348 0.3019
H8_2 H 0.7979 0.5816 0.3656
C18_2 C 0.9926(6) 0.8467(4) 0.3997(3)
H10_2 H 0.8894 0.8208 0.4016
C19_2 C 0.8829(6) 0.8719(6) 0.2092(4)
H12_2 H 0.7971 0.8762 0.1783
C21_2 C 0.9441(6) 0.2629(5) 0.2025(3)
H13_2 H 0.8616 0.2202 0.1635
H14_2 H 0.9143 0.4435 0.3980
C27_2 C 0.8793(6) 0.8604(5) 0.2787(4)
H21_2 H 0.7915 0.8582 0.2965
C29_2 C 0.9262(6) 0.3291(5) 0.2697(3)
H24_2 H 0.8306 0.3315 0.2772
O14 O 0.4004(9) 0.6332(7) 0.7113(5)
N4 N 0.4224(12) 0.6283(9) 0.7718(6)
O15 O 0.3844(9) 0.6889(7) 0.8283(5)
O16 O 0.4853(11) 0.5480(9) 0.7848(6)
O14_2 O 0.5996(9) 0.3668(7) 0.2887(5)
N4_2 N 0.5776(12) 0.3717(9) 0.2282(6)
O15_2 O 0.6156(9) 0.3111(7) 0.1717(5)
O16_2 O 0.5147(11) 0.4520(9) 0.2152(6)
Cl1 Cl 0.5036(4) 0.8648(3) 0.3197(2)
Cl1_2 Cl 0.4964(4) 0.1352(3) 0.6803(2)
N5 N 0.8998(4) 0.8397(4) 0.6020(3)
O17 O 0.7845(10) 0.789(2) 0.5762(5)
O18 O 0.9576(14) 0.8453(15) 0.6559(12)
O19 O 0.9848(18) 0.8785(13) 0.5761(7)
N5_2 N 0.1002(4) 0.1603(4) 0.3980(3)
O17_2 O 0.2155(10) 0.211(2) 0.4238(5)
O18_2 O 0.0424(14) 0.1547(15) 0.3441(12)
O19_2 O 0.0152(18) 0.1215(13) 0.4239(7)
loop_
_geom_bond_atom_site_label_1
_geom_bond_atom_site_label_2
_geom_bond_site_symmetry_1
_geom_bond_site_symmetry_2
H6 C16 1_555 1_555
H7 C16 1_555 1_555
H8 C16 1_555 1_555
C18 N1 1_555 1_555
H10 C18 1_555 1_555
H12 C19 1_555 1_555
C21 H13 1_555 1_555
C27 N1 1_555 1_555
H21 C27 1_555 1_555
H24 C29 1_555 1_555
C19 C27 1_555 1_555
C21 C29 1_555 1_555
O1 C15 1_555 1_555
O2 C15 1_555 1_555
O3 C23 1_555 1_555
O4 C23 1_555 1_555
O5 C13 1_555 1_555
N2 C22 1_555 1_555
C1 C2 1_555 1_555
C2 C4 1_555 1_555
C3 C6 1_555 1_555
C4 C6 1_555 1_555
C5 C8 1_555 1_555
C6 C30 1_555 1_555
C7 H1 1_555 1_555
C8 C7 1_555 1_555
H2 C8 1_555 1_555
C9 C1 1_555 1_555
C10 C13 1_555 1_555
C11 C5 1_555 1_555
H3 C11 1_555 1_555
C12 H4 1_555 1_555
C14 C11 1_555 1_555
H5 C14 1_555 1_555
C15 C5 1_555 1_555
C17 C10 1_555 1_555
H9 C17 1_555 1_555
C22 C4 1_555 1_555
H15 C22 1_555 1_555
C23 C20 1_555 1_555
C24 N2 1_555 1_555
H16 C24 1_555 1_555
C25 C9 1_555 1_555
H17 C25 1_555 1_555
H18 C25 1_555 1_555
H19 C25 1_555 1_555
C26 C20 1_555 1_555
H20 C26 1_555 1_555
C28 C3 1_555 1_555
H22 C28 1_555 1_555
H23 C28 1_555 1_555
C30 H25 1_555 1_555
H26 C30 1_555 1_555
H27 C30 1_555 1_555
N3 C7 1_555 1_555
La3 O4 1_555 1_555
La6 O2 1_555 1_555
C3 C9 1_555 1_555
C12 C17 1_555 1_555
C14 N3 1_555 1_555
C24 C26 1_555 1_555
C28 N3 1_555 1_555
O7 H28 1_555 1_555
O8 La3 1_555 1_555
O9 La3 1_555 1_555
O8 H31 1_555 1_555
O8_2 La6 1_555 1_555
O11 La6 1_555 1_555
O8_2 H31_2 1_555 1_555
O1_2 C15_2 1_555 1_555
O9 C15_2 1_555 1_555
O10 C23_2 1_555 1_555
O11 C23_2 1_555 1_555
O12 C13_2 1_555 1_555
N2_2 C22_2 1_555 1_555
C1_2 C2_2 1_555 1_555
C2_2 C4_2 1_555 1_555
C3_2 C6_2 1_555 1_555
C4_2 C6_2 1_555 1_555
C5_2 C8_2 1_555 1_555
C6_2 C30_2 1_555 1_555
C7_2 H1_2 1_555 1_555
C8_2 C7_2 1_555 1_555
H2_2 C8_2 1_555 1_555
C9_2 C1_2 1_555 1_555
C10_2 C13_2 1_555 1_555
C11_2 C5_2 1_555 1_555
H3_2 C11_2 1_555 1_555
C12_2 H4_2 1_555 1_555
C14_2 C11_2 1_555 1_555
H5_2 C14_2 1_555 1_555
C15_2 C5_2 1_555 1_555
C17_2 C10_2 1_555 1_555
H9_2 C17_2 1_555 1_555
C22_2 C4_2 1_555 1_555
H15_2 C22_2 1_555 1_555
C23_2 C20_2 1_555 1_555
C24_2 N2_2 1_555 1_555
H16_2 C24_2 1_555 1_555
C25_2 C9_2 1_555 1_555
H17_2 C25_2 1_555 1_555
H18_2 C25_2 1_555 1_555
H19_2 C25_2 1_555 1_555
C26_2 C20_2 1_555 1_555
H20_2 C26_2 1_555 1_555
C28_2 C3_2 1_555 1_555
H22_2 C28_2 1_555 1_555
H23_2 C28_2 1_555 1_555
C30_2 H25_2 1_555 1_555
H26_2 C30_2 1_555 1_555
H27_2 C30_2 1_555 1_555
N3_2 C7_2 1_555 1_555
C3_2 C9_2 1_555 1_555
C12_2 C17_2 1_555 1_555
C14_2 N3_2 1_555 1_555
C24_2 C26_2 1_555 1_555
C28_2 N3_2 1_555 1_555
O7_2 H28_2 1_555 1_555
H6_2 C16_2 1_555 1_555
H7_2 C16_2 1_555 1_555
H8_2 C16_2 1_555 1_555
C18_2 N1_2 1_555 1_555
H10_2 C18_2 1_555 1_555
H12_2 C19_2 1_555 1_555
C21_2 H13_2 1_555 1_555
C27_2 N1_2 1_555 1_555
H21_2 C27_2 1_555 1_555
H24_2 C29_2 1_555 1_555
C19_2 C27_2 1_555 1_555
C21_2 C29_2 1_555 1_555
O14 N4 1_555 1_555
N4 O15 1_555 1_555
O16 N4 1_555 1_555
O14_2 N4_2 1_555 1_555
N4_2 O15_2 1_555 1_555
O16_2 N4_2 1_555 1_555
N5 O17 1_555 1_555
O18 N5 1_555 1_555
O19 N5 1_555 1_555
N5_2 O17_2 1_555 1_555
O18_2 N5_2 1_555 1_555
O19_2 N5_2 1_555 1_555

#END
