
###############################################################################
#
# This file contains modified crystal structure data generated from the
# MOF subset of the Cambridge Structural Database (CSD) v543 
# hosted by the Cambridge Crystallographic Data Centre (CCDC).
#
# This work is licensed under the Creative Commons
# Attribution-NonCommercial-ShareAlike 4.0 International License.
# To view a copy of this license, visit
# http://creativecommons.org/licenses/by-nc-sa/4.0/
# or send a letter to
# Creative Commons, PO Box 1866, Mountain View, CA 94042, USA.
#
# CIF created using the CSD Python API on 29 September 2022
# The structure has been converted into the P1 space group
# The structure has a 3D framework
# The original CSD entry VUGXOM is in the triclinic crystal system
# The framework has been calculated to contain at least 10.0% void space
# The void calculation uses a probe of radius 1.32A, grid spacing 0.4
# H atom positions have been added when not included in the experimental data
#
###############################################################################

data_VUGXOM
_chemical_formula_moiety         '(C60 H62 Cl2 Eu2 N10 O28)n'
_symmetry_cell_setting           triclinic
_symmetry_space_group_name_H-M   'P 1'
_symmetry_Int_Tables_number      1
_space_group_name_Hall           'P 1'
loop_
_symmetry_equiv_pos_site_id
_symmetry_equiv_pos_as_xyz
1 x,y,z
_cell_length_a                   9.4977(3)
_cell_length_b                   12.6270(4)
_cell_length_c                   18.7072(4)
_cell_angle_alpha                106.096(2)
_cell_angle_beta                 98.452(2)
_cell_angle_gamma                100.275(2)
_cell_volume                     2074.7
loop_
_atom_site_label
_atom_site_type_symbol
_atom_site_fract_x
_atom_site_fract_y
_atom_site_fract_z
O1 O 0.4032(7) 0.6332(6) 0.7121(4)
O2 O 0.3886(13) 0.6922(12) 0.8305(6)
N1 N 0.4242(10) 0.6282(8) 0.7760(6)
O3 O 0.4899(12) 0.5533(10) 0.7870(7)
O1_2 O 0.5968(7) 0.3668(6) 0.2879(4)
O2_2 O 0.6114(13) 0.3078(12) 0.1695(6)
N1_2 N 0.5758(10) 0.3718(8) 0.2240(6)
O3_2 O 0.5101(12) 0.4467(10) 0.2130(7)
Cl1 Cl 0.5209(14) 0.4322(13) 0.6369(7)
Cl1_2 Cl 0.4791(14) 0.5678(13) 0.3631(7)
N2 N 0.9008(7) 0.8373(5) 0.6004(4)
O4 O 0.7849(12) 0.7471(12) 0.5718(6)
O5 O 0.9862(19) 0.8873(14) 0.5724(8)
O6 O 0.9466(13) 0.8680(12) 0.6741(6)
N2_2 N 0.0992(7) 0.1627(5) 0.3996(4)
O4_2 O 0.2151(12) 0.2529(12) 0.4282(6)
O5_2 O 0.0138(19) 0.1127(14) 0.4276(8)
O6_2 O 0.0534(13) 0.1320(12) 0.3259(6)
Eu3 Eu 0.23517(3) 0.01618(2) 0.003045(15)
N3 N 0.0053(7) 0.1521(5) 0.6826(4)
O10 O 0.0183(5) 0.8912(4) 0.9251(3)
O12 O 0.1079(5) 0.1214(4) 0.9409(3)
C12 C 0.0615(8) 0.7394(6) 0.7966(4)
H4 H 0.1455 0.7821 0.8347
C18 C 0.1220(8) 0.1314(7) 0.7950(5)
H9 H 0.2093 0.1291 0.8261
C21 C 0.1221(7) 0.4001(6) 0.6579(4)
H10 H 0.1614 0.3409 0.6729
H11 H 0.1074 0.4552 0.7031
H12 H 0.1913 0.4386 0.6340
C22 C 0.0083(8) 0.1552(5) 0.6021(4)
H13 H 0.1110 0.1806 0.5984
C23 C 0.0739(8) 0.6695(6) 0.7263(4)
H15 H 0.1684 0.6658 0.7163
H16 H 0.0803 0.5522 0.5972
C26 C 0.1250(8) 0.1437(7) 0.7236(5)
H19 H 0.2127 0.1461 0.7047
O7 O 0.4505(5) 0.0286(4) 0.0857(2)
N4 N 0.9564(7) 0.6082(4) 0.6732(3)
O8 O 0.6825(5) 0.0212(5) 0.1155(3)
O9 O 0.7765(5) 0.8287(4) 0.8891(3)
O11 O 0.8628(5) 0.0672(4) 0.9075(3)
C1 C 0.9198(7) 0.2324(5) 0.5784(3)
C2 C 0.9038(7) 0.8281(6) 0.8806(4)
O13 O 0.4152(6) 0.1907(5) 0.0089(3)
C3 C 0.5630(7) 0.0792(7) 0.2156(4)
N5 N 0.5659(7) 0.1651(6) 0.3671(3)
C4 C 0.9028(8) 0.4184(6) 0.5735(4)
C5 C 0.7066(7) 0.2556(7) 0.5028(4)
C6 C 0.4364(7) 0.1006(6) 0.2399(3)
H1 H 0.3485 0.0881 0.2040
C7 C 0.7685(8) 0.3718(6) 0.5229(4)
C8 C 0.9787(6) 0.3476(5) 0.6026(3)
C9 C 0.6888(7) 0.0984(6) 0.2696(4)
H2 H 0.7764 0.0835 0.2545
C10 C 0.5648(6) 0.0386(5) 0.1316(3)
C11 C 0.6854(7) 0.1398(6) 0.3463(4)
H3 H 0.7700 0.1500 0.3839
C13 C 0.9218(8) 0.7436(6) 0.8081(4)
C14 C 0.8787(7) 0.1465(6) 0.7051(4)
H5 H 0.7948 0.1518 0.6729
C15 C 0.4401(8) 0.1403(7) 0.3168(4)
H6 H 0.3527 0.1502 0.3341
C16 C 0.8681(7) 0.1328(6) 0.7761(4)
H7 H 0.7787 0.1306 0.7933
C17 C 0.8020(8) 0.6775(6) 0.7542(4)
H8 H 0.7064 0.6782 0.7634
C19 C 0.9940(7) 0.1225(6) 0.8209(4)
C20 C 0.7834(8) 0.1836(6) 0.5293(4)
H14 H 0.9700 0.0775 0.5663
C24 C 0.9745(9) 0.5434(6) 0.5970(4)
H17 H 0.9322 0.5760 0.5588
C25 C 0.8214(9) 0.6109(6) 0.6873(5)
H18 H 0.7382 0.5652 0.6496
C27 C 0.9870(7) 0.1023(6) 0.8961(4)
C28 C 0.6824(11) 0.4472(9) 0.4898(5)
H20 H 0.6131 0.4703 0.5216
H21 H 0.6289 0.4041 0.4379
H22 H 0.7510 0.5145 0.4890
C29 C 0.5567(7) 0.2051(7) 0.4510(4)
H23 H 0.4972 0.2626 0.4587
H24 H 0.5070 0.1402 0.4650
C30 C 0.7215(11) 0.0580(9) 0.5043(5)
H25 H 0.7796 0.0195 0.4709
H26 H 0.6200 0.0408 0.4767
H27 H 0.7246 0.0318 0.5490
Eu6 Eu 0.76483(3) 0.98382(2) 0.996955(15)
O16 O 0.2235(5) 0.1713(4) 0.1109(3)
H30 H 0.503069 0.169405 0.991505
H31 H 0.369772 0.229625 0.975453
O18 O 0.1372(5) 0.9328(4) 0.0925(3)
H28 H 0.285108 0.801948 0.0202731
O14 O 0.2830(6) 0.8271(5) 0.9744(3)
O15 O 0.3175(5) 0.9788(5) 0.8845(3)
H29 H 0.204515 0.773559 0.932264
O14_2 O 0.7170(6) 0.1729(5) 0.0256(3)
O17 O 0.9817(5) 0.1088(4) 0.0749(3)
H29_2 H 0.795485 0.226441 0.0677361
H28_2 H 0.714892 0.198052 0.979727
O19 O 0.8921(5) 0.8786(4) 0.0591(3)
H30_2 H 0.496931 0.830595 0.00849472
H31_2 H 0.630228 0.770375 0.0245469
O7_2 O 0.5495(5) 0.9714(4) 0.9143(2)
N4_2 N 0.0436(7) 0.3918(4) 0.3268(3)
C1_2 C 0.0802(7) 0.7676(5) 0.4216(3)
C2_2 C 0.0962(7) 0.1719(6) 0.1194(4)
O13_2 O 0.5848(6) 0.8093(5) 0.9911(3)
C3_2 C 0.4370(7) 0.9208(7) 0.7844(4)
N5_2 N 0.4341(7) 0.8349(6) 0.6329(3)
C4_2 C 0.0972(8) 0.5816(6) 0.4265(4)
C5_2 C 0.2934(7) 0.7444(7) 0.4972(4)
C6_2 C 0.5636(7) 0.8994(6) 0.7601(3)
H1_2 H 0.6515 0.9119 0.7960
C7_2 C 0.2315(8) 0.6282(6) 0.4771(4)
C8_2 C 0.0213(6) 0.6524(5) 0.3974(3)
C9_2 C 0.3112(7) 0.9016(6) 0.7304(4)
H2_2 H 0.2236 0.9165 0.7455
C10_2 C 0.4352(6) 0.9614(5) 0.8684(3)
C11_2 C 0.3146(7) 0.8602(6) 0.6537(4)
H3_2 H 0.2300 0.8500 0.6161
C13_2 C 0.0782(8) 0.2564(6) 0.1919(4)
C14_2 C 0.1213(7) 0.8535(6) 0.2949(4)
H5_2 H 0.2052 0.8482 0.3271
C15_2 C 0.5599(8) 0.8597(7) 0.6832(4)
H6_2 H 0.6473 0.8498 0.6659
C16_2 C 0.1319(7) 0.8672(6) 0.2239(4)
H7_2 H 0.2213 0.8694 0.2067
C17_2 C 0.1980(8) 0.3225(6) 0.2458(4)
H8_2 H 0.2936 0.3218 0.2366
C19_2 C 0.0060(7) 0.8775(6) 0.1791(4)
C20_2 C 0.2166(8) 0.8164(6) 0.4707(4)
H14_2 H 0.0300 0.9225 0.4337
C24_2 C 0.0255(9) 0.4566(6) 0.4030(4)
H17_2 H 0.0678 0.4240 0.4412
C25_2 C 0.1786(9) 0.3891(6) 0.3127(5)
H18_2 H 0.2618 0.4348 0.3504
C27_2 C 0.0130(7) 0.8977(6) 0.1039(4)
C28_2 C 0.3176(11) 0.5528(9) 0.5102(5)
H20_2 H 0.3869 0.5297 0.4784
H21_2 H 0.3711 0.5959 0.5621
H22_2 H 0.2490 0.4855 0.5110
C29_2 C 0.4433(7) 0.7949(7) 0.5490(4)
H23_2 H 0.5028 0.7374 0.5413
H24_2 H 0.4930 0.8598 0.5350
C30_2 C 0.2785(11) 0.9420(9) 0.4957(5)
H25_2 H 0.2204 0.9805 0.5291
H26_2 H 0.3800 0.9592 0.5233
H27_2 H 0.2754 0.9682 0.4510
N3_2 N 0.9947(7) 0.8479(5) 0.3174(4)
C12_2 C 0.9385(8) 0.2606(6) 0.2034(4)
H4_2 H 0.8545 0.2179 0.1653
C18_2 C 0.8780(8) 0.8686(7) 0.2050(5)
H9_2 H 0.7907 0.8709 0.1739
C21_2 C 0.8779(7) 0.5999(6) 0.3421(4)
H10_2 H 0.8386 0.6591 0.3271
H11_2 H 0.8926 0.5448 0.2969
H12_2 H 0.8087 0.5614 0.3660
C22_2 C 0.9917(8) 0.8448(5) 0.3979(4)
H13_2 H 0.8890 0.8194 0.4016
C23_2 C 0.9261(8) 0.3305(6) 0.2737(4)
H15_2 H 0.8316 0.3342 0.2837
H16_2 H 0.9197 0.4478 0.4028
C26_2 C 0.8750(8) 0.8563(7) 0.2764(5)
H19_2 H 0.7873 0.8539 0.2953
loop_
_geom_bond_atom_site_label_1
_geom_bond_atom_site_label_2
_geom_bond_site_symmetry_1
_geom_bond_site_symmetry_2
O1 N1 1_555 1_555
O2 N1 1_555 1_555
N1 O3 1_555 1_555
O1_2 N1_2 1_555 1_555
O2_2 N1_2 1_555 1_555
N1_2 O3_2 1_555 1_555
N2 O4 1_555 1_555
O5 N2 1_555 1_555
O6 N2 1_555 1_555
N2_2 O4_2 1_555 1_555
O5_2 N2_2 1_555 1_555
O6_2 N2_2 1_555 1_555
C12 H4 1_555 1_555
C18 H9 1_555 1_555
H10 C21 1_555 1_555
H11 C21 1_555 1_555
H12 C21 1_555 1_555
C22 N3 1_555 1_555
H13 C22 1_555 1_555
C23 C12 1_555 1_555
H15 C23 1_555 1_555
C26 N3 1_555 1_555
H19 C26 1_555 1_555
C18 C26 1_555 1_555
Eu3 O7 1_555 1_555
O7 C10 1_555 1_555
O8 C10 1_555 1_555
O9 C2 1_555 1_555
O11 C27 1_555 1_555
C1 C8 1_555 1_555
C2 C13 1_555 1_555
O13 Eu3 1_555 1_555
C3 C6 1_555 1_555
N5 C11 1_555 1_555
C4 C7 1_555 1_555
C5 C7 1_555 1_555
C6 H1 1_555 1_555
C7 C28 1_555 1_555
C8 C4 1_555 1_555
C9 C3 1_555 1_555
H2 C9 1_555 1_555
C10 C3 1_555 1_555
C11 C9 1_555 1_555
H3 C11 1_555 1_555
C14 H5 1_555 1_555
C15 N5 1_555 1_555
H6 C15 1_555 1_555
C16 C14 1_555 1_555
H7 C16 1_555 1_555
C17 C13 1_555 1_555
H8 C17 1_555 1_555
C19 C16 1_555 1_555
C20 C1 1_555 1_555
C24 N4 1_555 1_555
H17 C24 1_555 1_555
C25 N4 1_555 1_555
H18 C25 1_555 1_555
C27 C19 1_555 1_555
C28 H20 1_555 1_555
H21 C28 1_555 1_555
H22 C28 1_555 1_555
C29 N5 1_555 1_555
H23 C29 1_555 1_555
H24 C29 1_555 1_555
C30 C20 1_555 1_555
H25 C30 1_555 1_555
H26 C30 1_555 1_555
H27 C30 1_555 1_555
Eu6 O9 1_555 1_555
O16 Eu3 1_555 1_555
C4 C24 1_555 1_555
C5 C20 1_555 1_555
C5 C29 1_555 1_555
C6 C15 1_555 1_555
C17 C25 1_555 1_555
O14 H29 1_555 1_555
O14_2 H29_2 1_555 1_555
Eu6 O7_2 1_555 1_555
O7_2 C10_2 1_555 1_555
O15 C10_2 1_555 1_555
O16 C2_2 1_555 1_555
O18 C27_2 1_555 1_555
C1_2 C8_2 1_555 1_555
C2_2 C13_2 1_555 1_555
O13_2 Eu6 1_555 1_555
C3_2 C6_2 1_555 1_555
N5_2 C11_2 1_555 1_555
C4_2 C7_2 1_555 1_555
C5_2 C7_2 1_555 1_555
C6_2 H1_2 1_555 1_555
C7_2 C28_2 1_555 1_555
C8_2 C4_2 1_555 1_555
C9_2 C3_2 1_555 1_555
H2_2 C9_2 1_555 1_555
C10_2 C3_2 1_555 1_555
C11_2 C9_2 1_555 1_555
H3_2 C11_2 1_555 1_555
C14_2 H5_2 1_555 1_555
C15_2 N5_2 1_555 1_555
H6_2 C15_2 1_555 1_555
C16_2 C14_2 1_555 1_555
H7_2 C16_2 1_555 1_555
C17_2 C13_2 1_555 1_555
H8_2 C17_2 1_555 1_555
C19_2 C16_2 1_555 1_555
C20_2 C1_2 1_555 1_555
C24_2 N4_2 1_555 1_555
H17_2 C24_2 1_555 1_555
C25_2 N4_2 1_555 1_555
H18_2 C25_2 1_555 1_555
C27_2 C19_2 1_555 1_555
C28_2 H20_2 1_555 1_555
H21_2 C28_2 1_555 1_555
H22_2 C28_2 1_555 1_555
C29_2 N5_2 1_555 1_555
H23_2 C29_2 1_555 1_555
H24_2 C29_2 1_555 1_555
C30_2 C20_2 1_555 1_555
H25_2 C30_2 1_555 1_555
H26_2 C30_2 1_555 1_555
H27_2 C30_2 1_555 1_555
C4_2 C24_2 1_555 1_555
C5_2 C20_2 1_555 1_555
C5_2 C29_2 1_555 1_555
C6_2 C15_2 1_555 1_555
C17_2 C25_2 1_555 1_555
C12_2 H4_2 1_555 1_555
C18_2 H9_2 1_555 1_555
H10_2 C21_2 1_555 1_555
H11_2 C21_2 1_555 1_555
H12_2 C21_2 1_555 1_555
C22_2 N3_2 1_555 1_555
H13_2 C22_2 1_555 1_555
C23_2 C12_2 1_555 1_555
H15_2 C23_2 1_555 1_555
C26_2 N3_2 1_555 1_555
H19_2 C26_2 1_555 1_555
C18_2 C26_2 1_555 1_555

#END
