
###############################################################################
#
# This file contains modified crystal structure data generated from the
# MOF subset of the Cambridge Structural Database (CSD) v543 
# hosted by the Cambridge Crystallographic Data Centre (CCDC).
#
# This work is licensed under the Creative Commons
# Attribution-NonCommercial-ShareAlike 4.0 International License.
# To view a copy of this license, visit
# http://creativecommons.org/licenses/by-nc-sa/4.0/
# or send a letter to
# Creative Commons, PO Box 1866, Mountain View, CA 94042, USA.
#
# CIF created using the CSD Python API on 29 September 2022
# The structure has been converted into the P1 space group
# The structure has a 3D framework
# The original CSD entry VUGXAY is in the triclinic crystal system
# The framework has been calculated to contain at least 10.0% void space
# The void calculation uses a probe of radius 1.32A, grid spacing 0.4
# H atom positions have been added when not included in the experimental data
#
###############################################################################

data_VUGXAY
_chemical_formula_moiety         '(C60 H62 Ce2 Cl2 N10 O28)n'
_symmetry_cell_setting           triclinic
_symmetry_space_group_name_H-M   'P 1'
_symmetry_Int_Tables_number      1
_space_group_name_Hall           'P 1'
loop_
_symmetry_equiv_pos_site_id
_symmetry_equiv_pos_as_xyz
1 x,y,z
_cell_length_a                   9.5251(3)
_cell_length_b                   12.5605(4)
_cell_length_c                   18.9231(6)
_cell_angle_alpha                106.077(3)
_cell_angle_beta                 98.874(3)
_cell_angle_gamma                100.643(3)
_cell_volume                     2086.81
loop_
_atom_site_label
_atom_site_type_symbol
_atom_site_fract_x
_atom_site_fract_y
_atom_site_fract_z
N1 N 0.8985(6) 0.8389(5) 0.6015(3)
O1 O 0.7793(10) 0.7528(10) 0.5730(5)
O2 O 0.9869(12) 0.8851(10) 0.5710(7)
O3 O 0.9413(15) 0.8711(12) 0.6708(3)
N1_2 N 0.1015(6) 0.1611(5) 0.3985(3)
O1_2 O 0.2207(10) 0.2472(10) 0.4270(5)
O2_2 O 0.0131(12) 0.1149(10) 0.4290(7)
O3_2 O 0.0587(15) 0.1289(12) 0.3292(3)
O4 O 0.3778(8) 0.6843(9) 0.8281(4)
O5 O 0.4011(6) 0.6367(5) 0.7111(3)
N2 N 0.4196(5) 0.6299(5) 0.7758(3)
O6 O 0.4868(10) 0.5546(8) 0.7875(6)
O4_2 O 0.6222(8) 0.3157(9) 0.1719(4)
O5_2 O 0.5989(6) 0.3633(5) 0.2889(3)
N2_2 N 0.5804(5) 0.3701(5) 0.2242(3)
O6_2 O 0.5132(10) 0.4454(8) 0.2125(6)
Cl1 Cl 0.5012(2) 0.8521(3) 0.32390(19)
Cl1_2 Cl 0.4988(2) 0.1479(3) 0.67610(19)
Ce3 Ce 0.23413(2) 0.01779(2) 0.003911(12)
O9 O 0.0020(4) 0.8913(3) 0.9242(2)
N4 N 0.0051(5) 0.1530(4) 0.6822(3)
O11 O 0.1063(4) 0.1268(4) 0.9387(2)
C17 C 0.0111(6) 0.1550(5) 0.6021(3)
H6 H 0.1143 0.1809 0.5995
C18 C 0.1224(7) 0.1335(6) 0.7946(4)
H8 H 0.2081 0.1300 0.8262
C20 C 0.1241(6) 0.4014(5) 0.6594(3)
H10 H 0.1627 0.3414 0.6736
H11 H 0.1080 0.4552 0.7042
H12 H 0.1945 0.4420 0.6374
C21 C 0.0549(7) 0.7394(5) 0.7947(4)
H13 H 0.1377 0.7835 0.8335
C23 C 0.0728(7) 0.6726(5) 0.7278(4)
H15 H 0.1683 0.6701 0.7198
H17 H 0.0811 0.5562 0.5984
C27 C 0.1288(6) 0.1455(6) 0.7251(4)
H19 H 0.2172 0.1485 0.7075
O7 O 0.4578(4) 0.0294(4) 0.08755(19)
O8 O 0.6888(4) 0.0203(4) 0.11865(19)
N3 N 0.5681(5) 0.1593(5) 0.3671(3)
O10 O 0.7632(4) 0.8189(4) 0.8836(2)
O12 O 0.8604(4) 0.0707(4) 0.9049(2)
N5 N 0.9549(5) 0.6104(4) 0.6731(3)
C1 C 0.9241(5) 0.2324(4) 0.5785(3)
C2 C 0.8915(6) 0.8234(5) 0.8772(3)
C3 C 0.5662(5) 0.0766(4) 0.2169(3)
C4 C 0.9054(6) 0.4189(5) 0.5733(3)
C5 C 0.5701(5) 0.0379(4) 0.1340(3)
C6 C 0.9809(5) 0.3485(4) 0.6023(3)
O13 O 0.4229(5) 0.1982(4) 0.0105(3)
C7 C 0.4399(6) 0.0964(6) 0.2404(3)
H1 H 0.3518 0.0819 0.2043
C8 C 0.7106(6) 0.2534(6) 0.5017(3)
C9 C 0.6923(5) 0.0961(5) 0.2712(3)
H2 H 0.7795 0.0808 0.2567
C10 C 0.4424(6) 0.1370(5) 0.3157(3)
H3 H 0.3555 0.1495 0.3318
C11 C 0.7707(6) 0.3727(5) 0.5229(3)
C12 C 0.6900(6) 0.1381(6) 0.3468(3)
H4 H 0.7759 0.1517 0.3842
C13 C 0.9162(6) 0.7420(5) 0.8053(3)
C14 C 0.9913(6) 0.1263(5) 0.8192(3)
C15 C 0.7862(6) 0.1832(5) 0.5283(3)
C16 C 0.8789(6) 0.1478(5) 0.7045(3)
H5 H 0.7950 0.1530 0.6725
H7 H 0.9725 0.0766 0.5665
C19 C 0.8694(6) 0.1348(5) 0.7731(3)
H9 H 0.7793 0.1317 0.7891
C22 C 0.7975(6) 0.6762(5) 0.7498(3)
H14 H 0.7012 0.6769 0.7572
C24 C 0.8186(7) 0.6096(5) 0.6837(3)
H16 H 0.7368 0.5627 0.6452
C25 C 0.9750(8) 0.5454(5) 0.5972(3)
H18 H 0.9323 0.5776 0.5591
C26 C 0.9860(6) 0.1072(5) 0.8949(4)
C28 C 0.5611(6) 0.2024(6) 0.4504(3)
H20 H 0.5029 0.2607 0.4571
H21 H 0.5105 0.1381 0.4649
C29 C 0.6846(9) 0.4438(8) 0.4882(4)
H22 H 0.6029 0.4551 0.5129
H23 H 0.6465 0.4038 0.4343
H24 H 0.7490 0.5181 0.4952
C30 C 0.7268(9) 0.0546(7) 0.5033(4)
H25 H 0.6249 0.0349 0.4756
H26 H 0.7315 0.0285 0.5477
H27 H 0.7858 0.0174 0.4706
Ce6 Ce 0.76587(2) 0.98221(2) 0.996089(12)
O17 O 0.2368(4) 0.1811(4) 0.1164(2)
H28 H 0.509431 0.176076 0.992863
H29 H 0.378007 0.23816 0.977849
O19 O 0.1396(4) 0.9293(4) 0.0951(2)
H30 H 0.279544 0.793801 0.0169698
O14 O 0.2769(5) 0.8201(4) 0.9720(3)
O15 O 0.3112(4) 0.9797(4) 0.88135(19)
H31 H 0.196411 0.767369 0.930267
O14_2 O 0.7231(5) 0.1799(4) 0.0280(3)
O16 O 0.9980(4) 0.1087(3) 0.0758(2)
H31_2 H 0.803589 0.232631 0.0697328
H30_2 H 0.720456 0.206199 0.98303
O18 O 0.8937(4) 0.8732(4) 0.0613(2)
H28_2 H 0.490569 0.823924 0.00713672
H29_2 H 0.621993 0.76184 0.0221511
O7_2 O 0.5422(4) 0.9706(4) 0.91245(19)
N3_2 N 0.4319(5) 0.8407(5) 0.6329(3)
N5_2 N 0.0451(5) 0.3896(4) 0.3269(3)
C1_2 C 0.0759(5) 0.7676(4) 0.4215(3)
C2_2 C 0.1085(6) 0.1766(5) 0.1228(3)
C3_2 C 0.4338(5) 0.9234(4) 0.7831(3)
C4_2 C 0.0946(6) 0.5811(5) 0.4267(3)
C5_2 C 0.4299(5) 0.9621(4) 0.8660(3)
C6_2 C 0.0191(5) 0.6515(4) 0.3977(3)
O13_2 O 0.5771(5) 0.8018(4) 0.9895(3)
C7_2 C 0.5601(6) 0.9036(6) 0.7596(3)
H1_2 H 0.6482 0.9181 0.7957
C8_2 C 0.2894(6) 0.7466(6) 0.4983(3)
C9_2 C 0.3077(5) 0.9039(5) 0.7288(3)
H2_2 H 0.2205 0.9192 0.7433
C10_2 C 0.5576(6) 0.8630(5) 0.6843(3)
H3_2 H 0.6445 0.8505 0.6682
C11_2 C 0.2293(6) 0.6273(5) 0.4771(3)
C12_2 C 0.3100(6) 0.8619(6) 0.6532(3)
H4_2 H 0.2241 0.8483 0.6158
C13_2 C 0.0838(6) 0.2580(5) 0.1947(3)
C14_2 C 0.0087(6) 0.8737(5) 0.1808(3)
C15_2 C 0.2138(6) 0.8168(5) 0.4717(3)
C16_2 C 0.1211(6) 0.8522(5) 0.2955(3)
H5_2 H 0.2050 0.8470 0.3275
H7_2 H 0.0275 0.9234 0.4335
C19_2 C 0.1306(6) 0.8652(5) 0.2269(3)
H9_2 H 0.2207 0.8683 0.2109
C22_2 C 0.2025(6) 0.3238(5) 0.2502(3)
H14_2 H 0.2988 0.3231 0.2428
C24_2 C 0.1814(7) 0.3904(5) 0.3163(3)
H16_2 H 0.2632 0.4373 0.3548
C25_2 C 0.0250(8) 0.4546(5) 0.4028(3)
H18_2 H 0.0677 0.4224 0.4409
C26_2 C 0.0140(6) 0.8928(5) 0.1051(4)
C28_2 C 0.4389(6) 0.7976(6) 0.5496(3)
H20_2 H 0.4971 0.7393 0.5429
H21_2 H 0.4895 0.8619 0.5351
C29_2 C 0.3154(9) 0.5562(8) 0.5118(4)
H22_2 H 0.3971 0.5449 0.4871
H23_2 H 0.3535 0.5962 0.5657
H24_2 H 0.2510 0.4819 0.5048
C30_2 C 0.2732(9) 0.9454(7) 0.4967(4)
H25_2 H 0.3751 0.9651 0.5244
H26_2 H 0.2685 0.9715 0.4523
H27_2 H 0.2142 0.9826 0.5294
N4_2 N 0.9949(5) 0.8470(4) 0.3178(3)
C17_2 C 0.9889(6) 0.8450(5) 0.3979(3)
H6_2 H 0.8857 0.8191 0.4005
C18_2 C 0.8776(7) 0.8665(6) 0.2054(4)
H8_2 H 0.7919 0.8700 0.1738
C20_2 C 0.8759(6) 0.5986(5) 0.3406(3)
H10_2 H 0.8373 0.6586 0.3264
H11_2 H 0.8920 0.5448 0.2958
H12_2 H 0.8055 0.5580 0.3626
C21_2 C 0.9451(7) 0.2606(5) 0.2053(4)
H13_2 H 0.8623 0.2165 0.1665
C23_2 C 0.9272(7) 0.3274(5) 0.2722(4)
H15_2 H 0.8317 0.3299 0.2802
H17_2 H 0.9189 0.4438 0.4016
C27_2 C 0.8712(6) 0.8545(6) 0.2749(4)
H19_2 H 0.7828 0.8515 0.2925
loop_
_geom_bond_atom_site_label_1
_geom_bond_atom_site_label_2
_geom_bond_site_symmetry_1
_geom_bond_site_symmetry_2
N1 O1 1_555 1_555
O2 N1 1_555 1_555
O3 N1 1_555 1_555
N1_2 O1_2 1_555 1_555
O2_2 N1_2 1_555 1_555
O3_2 N1_2 1_555 1_555
O4 N2 1_555 1_555
O5 N2 1_555 1_555
N2 O6 1_555 1_555
O4_2 N2_2 1_555 1_555
O5_2 N2_2 1_555 1_555
N2_2 O6_2 1_555 1_555
C17 N4 1_555 1_555
H6 C17 1_555 1_555
C18 H8 1_555 1_555
C20 H10 1_555 1_555
H11 C20 1_555 1_555
H12 C20 1_555 1_555
C21 H13 1_555 1_555
C23 C21 1_555 1_555
H15 C23 1_555 1_555
C27 N4 1_555 1_555
H19 C27 1_555 1_555
C18 C27 1_555 1_555
Ce3 O7 1_555 1_555
O7 C5 1_555 1_555
O8 C5 1_555 1_555
N3 C10 1_555 1_555
O10 C2 1_555 1_555
O12 C26 1_555 1_555
C1 C6 1_555 1_555
C2 C13 1_555 1_555
C3 C5 1_555 1_555
C4 C6 1_555 1_555
O13 Ce3 1_555 1_555
C7 C3 1_555 1_555
H1 C7 1_555 1_555
C8 C11 1_555 1_555
C9 C3 1_555 1_555
H2 C9 1_555 1_555
C10 C7 1_555 1_555
H3 C10 1_555 1_555
C11 C4 1_555 1_555
C12 N3 1_555 1_555
H4 C12 1_555 1_555
C15 C1 1_555 1_555
C16 H5 1_555 1_555
C19 C14 1_555 1_555
H9 C19 1_555 1_555
C22 C13 1_555 1_555
H14 C22 1_555 1_555
C24 N5 1_555 1_555
H16 C24 1_555 1_555
C25 N5 1_555 1_555
H18 C25 1_555 1_555
C26 C14 1_555 1_555
C28 N3 1_555 1_555
H20 C28 1_555 1_555
H21 C28 1_555 1_555
C29 C11 1_555 1_555
H22 C29 1_555 1_555
H23 C29 1_555 1_555
H24 C29 1_555 1_555
C30 C15 1_555 1_555
H25 C30 1_555 1_555
H26 C30 1_555 1_555
H27 C30 1_555 1_555
Ce6 O10 1_555 1_555
O17 Ce3 1_555 1_555
C4 C25 1_555 1_555
C8 C15 1_555 1_555
C8 C28 1_555 1_555
C9 C12 1_555 1_555
C16 C19 1_555 1_555
C22 C24 1_555 1_555
O14 H31 1_555 1_555
O14_2 H31_2 1_555 1_555
Ce6 O7_2 1_555 1_555
O7_2 C5_2 1_555 1_555
O15 C5_2 1_555 1_555
N3_2 C10_2 1_555 1_555
O17 C2_2 1_555 1_555
O19 C26_2 1_555 1_555
C1_2 C6_2 1_555 1_555
C2_2 C13_2 1_555 1_555
C3_2 C5_2 1_555 1_555
C4_2 C6_2 1_555 1_555
O13_2 Ce6 1_555 1_555
C7_2 C3_2 1_555 1_555
H1_2 C7_2 1_555 1_555
C8_2 C11_2 1_555 1_555
C9_2 C3_2 1_555 1_555
H2_2 C9_2 1_555 1_555
C10_2 C7_2 1_555 1_555
H3_2 C10_2 1_555 1_555
C11_2 C4_2 1_555 1_555
C12_2 N3_2 1_555 1_555
H4_2 C12_2 1_555 1_555
C15_2 C1_2 1_555 1_555
C16_2 H5_2 1_555 1_555
C19_2 C14_2 1_555 1_555
H9_2 C19_2 1_555 1_555
C22_2 C13_2 1_555 1_555
H14_2 C22_2 1_555 1_555
C24_2 N5_2 1_555 1_555
H16_2 C24_2 1_555 1_555
C25_2 N5_2 1_555 1_555
H18_2 C25_2 1_555 1_555
C26_2 C14_2 1_555 1_555
C28_2 N3_2 1_555 1_555
H20_2 C28_2 1_555 1_555
H21_2 C28_2 1_555 1_555
C29_2 C11_2 1_555 1_555
H22_2 C29_2 1_555 1_555
H23_2 C29_2 1_555 1_555
H24_2 C29_2 1_555 1_555
C30_2 C15_2 1_555 1_555
H25_2 C30_2 1_555 1_555
H26_2 C30_2 1_555 1_555
H27_2 C30_2 1_555 1_555
C4_2 C25_2 1_555 1_555
C8_2 C15_2 1_555 1_555
C8_2 C28_2 1_555 1_555
C9_2 C12_2 1_555 1_555
C16_2 C19_2 1_555 1_555
C22_2 C24_2 1_555 1_555
C17_2 N4_2 1_555 1_555
H6_2 C17_2 1_555 1_555
C18_2 H8_2 1_555 1_555
C20_2 H10_2 1_555 1_555
H11_2 C20_2 1_555 1_555
H12_2 C20_2 1_555 1_555
C21_2 H13_2 1_555 1_555
C23_2 C21_2 1_555 1_555
H15_2 C23_2 1_555 1_555
C27_2 N4_2 1_555 1_555
H19_2 C27_2 1_555 1_555
C18_2 C27_2 1_555 1_555

#END
