
###############################################################################
#
# This file contains modified crystal structure data generated from the
# MOF subset of the Cambridge Structural Database (CSD) v543 
# hosted by the Cambridge Crystallographic Data Centre (CCDC).
#
# This work is licensed under the Creative Commons
# Attribution-NonCommercial-ShareAlike 4.0 International License.
# To view a copy of this license, visit
# http://creativecommons.org/licenses/by-nc-sa/4.0/
# or send a letter to
# Creative Commons, PO Box 1866, Mountain View, CA 94042, USA.
#
# CIF created using the CSD Python API on 29 September 2022
# The structure has been converted into the P1 space group
# The structure has a 3D framework
# The original CSD entry VUGXIG is in the triclinic crystal system
# The framework has been calculated to contain at least 10.0% void space
# The void calculation uses a probe of radius 1.32A, grid spacing 0.4
# H atom positions have been added when not included in the experimental data
#
###############################################################################

data_VUGXIG
_chemical_formula_moiety         '(C60 H62 Cl2 N10 Nd2 O28)n'
_symmetry_cell_setting           triclinic
_symmetry_space_group_name_H-M   'P 1'
_symmetry_Int_Tables_number      1
_space_group_name_Hall           'P 1'
loop_
_symmetry_equiv_pos_site_id
_symmetry_equiv_pos_as_xyz
1 x,y,z
_cell_length_a                   9.52970(10)
_cell_length_b                   12.6996(3)
_cell_length_c                   18.8203(3)
_cell_angle_alpha                106.347(2)
_cell_angle_beta                 98.6300(10)
_cell_angle_gamma                100.059(2)
_cell_volume                     2103.64
loop_
_atom_site_label
_atom_site_type_symbol
_atom_site_fract_x
_atom_site_fract_y
_atom_site_fract_z
O1 O 0.4002(9) 0.6315(8) 0.7101(5)
O2 O 0.3820(7) 0.6855(8) 0.8284(4)
N1 N 0.4233(8) 0.6266(6) 0.7750(5)
O3 O 0.4900(8) 0.5541(7) 0.7861(5)
O1_2 O 0.5998(9) 0.3685(8) 0.2899(5)
O2_2 O 0.6180(7) 0.3145(8) 0.1716(4)
N1_2 N 0.5767(8) 0.3734(6) 0.2250(5)
O3_2 O 0.5100(8) 0.4459(7) 0.2139(5)
Cl1 Cl 0.4979(3) 0.1332(3) 0.6803(2)
Cl1_2 Cl 0.5021(3) 0.8668(3) 0.3197(2)
N2 N 0.9008(11) 0.8364(10) 0.5991(6)
O4 O 0.7855(9) 0.7461(8) 0.5726(5)
O5 O 0.9916(9) 0.8912(8) 0.5742(5)
O6 O 0.9539(9) 0.8582(8) 0.6669(5)
N2_2 N 0.0992(11) 0.1636(10) 0.4009(6)
O4_2 O 0.2145(9) 0.2539(8) 0.4274(5)
O5_2 O 0.0084(9) 0.1088(8) 0.4258(5)
O6_2 O 0.0461(9) 0.1418(8) 0.3331(5)
Nd6 Nd 0.23335(3) 0.01632(2) 0.003316(13)
N3 N 0.0005(5) 0.1483(4) 0.6799(3)
O10 O 0.0087(4) 0.8909(4) 0.9261(2)
O12 O 0.1053(4) 0.1200(4) 0.9365(2)
C14 C 0.0592(7) 0.7376(5) 0.7971(4)
H4 H 0.1423 0.7811 0.8353
C17 C 0.1230(7) 0.3962(6) 0.6595(4)
H6 H 0.1576 0.3360 0.6749
H7 H 0.1090 0.4525 0.7040
H8 H 0.1952 0.4320 0.6364
C18 C 0.0067(7) 0.1537(5) 0.6004(3)
H9 H 0.1096 0.1792 0.5980
C22 C 0.1180(7) 0.1252(6) 0.7915(4)
H13 H 0.2039 0.1208 0.8224
C24 C 0.0759(7) 0.6692(5) 0.7293(4)
H15 H 0.1710 0.6656 0.7209
H17 H 0.0847 0.5510 0.6001
C29 C 0.1217(7) 0.1382(6) 0.7214(4)
H24 H 0.2090 0.1401 0.7028
O14 O 0.7202(6) 0.1753(4) 0.0252(3)
O16 O 0.6866(4) 0.0244(4) 0.1174(2)
O18 O 0.9913(4) 0.1091(4) 0.0739(2)
H28 H 0.618892 0.170788 0.000187242
H29 H 0.733247 0.209413 0.0808288
O17 O 0.8608(4) 0.0652(4) 0.9040(2)
O19 O 0.8947(4) 0.8800(4) 0.0635(2)
H31 H 0.534677 0.828946 0.0370766
Nd1 Nd 0.76665(3) 0.98368(2) 0.996684(13)
O7 O 0.4542(4) 0.0301(4) 0.0868(2)
N4 N 0.9587(6) 0.6073(4) 0.6746(3)
O11 O 0.7698(5) 0.8229(4) 0.8878(2)
N5 N 0.5663(5) 0.1672(5) 0.3666(3)
C1 C 0.9199(6) 0.2317(5) 0.5780(3)
C2 C 0.5675(6) 0.0414(5) 0.1329(3)
C3 C 0.5650(6) 0.0825(5) 0.2163(3)
C4 C 0.9054(6) 0.4182(5) 0.5741(3)
C5 C 0.4376(6) 0.1021(5) 0.2402(3)
H1 H 0.3488 0.0861 0.2044
O13 O 0.5839(5) 0.8096(4) 0.9938(3)
C6 C 0.6875(6) 0.1457(5) 0.3461(3)
H2 H 0.7730 0.1597 0.3837
C7 C 0.7723(7) 0.3753(6) 0.5234(3)
C8 C 0.9795(6) 0.3467(5) 0.6025(3)
C9 C 0.7096(6) 0.2580(6) 0.5023(3)
C10 C 0.7820(6) 0.1861(5) 0.5285(3)
C11 C 0.8975(6) 0.8235(5) 0.8800(3)
C12 C 0.9886(6) 0.1185(5) 0.8167(3)
C13 C 0.6910(6) 0.1028(5) 0.2704(3)
H3 H 0.7784 0.0874 0.2558
C15 C 0.9833(7) 0.1002(6) 0.8929(3)
C16 C 0.8019(7) 0.6756(5) 0.7533(3)
H5 H 0.7058 0.6760 0.7612
H10 H 0.9690 0.0770 0.5636
C19 C 0.8742(6) 0.1436(5) 0.7031(4)
H11 H 0.7903 0.1503 0.6719
C20 C 0.9207(6) 0.7425(5) 0.8091(3)
C21 C 0.4428(6) 0.1452(6) 0.3168(3)
H12 H 0.3569 0.1592 0.3339
C23 C 0.8664(6) 0.1293(5) 0.7716(3)
H14 H 0.7771 0.1267 0.7884
C25 C 0.8230(7) 0.6085(5) 0.6862(3)
H16 H 0.7413 0.5627 0.6479
C26 C 0.9790(7) 0.5431(5) 0.5988(3)
H18 H 0.9391 0.5763 0.5607
C27 C 0.5591(7) 0.2109(6) 0.4504(3)
H19 H 0.5034 0.2706 0.4575
H20 H 0.5062 0.1485 0.4649
C28 C 0.6891(9) 0.4484(8) 0.4905(4)
H21 H 0.6076 0.4603 0.5156
H22 H 0.6516 0.4108 0.4360
H23 H 0.7546 0.5214 0.4986
C30 C 0.7176(9) 0.0609(7) 0.5028(4)
H25 H 0.6189 0.0446 0.4724
H26 H 0.7137 0.0354 0.5472
H27 H 0.7785 0.0212 0.4722
O15 O 0.5458(4) 0.9699(4) 0.9132(2)
H30 H 0.635648 0.749362 0.997665
O8 O 0.3134(4) 0.9756(4) 0.8826(2)
O9 O 0.1392(4) 0.9348(4) 0.0960(2)
N4_2 N 0.0413(6) 0.3927(4) 0.3254(3)
O11_2 O 0.2302(5) 0.1771(4) 0.1122(2)
N5_2 N 0.4337(5) 0.8328(5) 0.6334(3)
C1_2 C 0.0801(6) 0.7683(5) 0.4220(3)
C2_2 C 0.4325(6) 0.9586(5) 0.8671(3)
C3_2 C 0.4350(6) 0.9175(5) 0.7837(3)
C4_2 C 0.0946(6) 0.5818(5) 0.4259(3)
C5_2 C 0.5624(6) 0.8979(5) 0.7598(3)
H1_2 H 0.6512 0.9139 0.7956
O13_2 O 0.4161(5) 0.1904(4) 0.0062(3)
C6_2 C 0.3125(6) 0.8543(5) 0.6539(3)
H2_2 H 0.2270 0.8403 0.6163
C7_2 C 0.2277(7) 0.6247(6) 0.4766(3)
C8_2 C 0.0205(6) 0.6533(5) 0.3975(3)
C9_2 C 0.2904(6) 0.7420(6) 0.4977(3)
C10_2 C 0.2180(6) 0.8139(5) 0.4715(3)
C11_2 C 0.1025(6) 0.1765(5) 0.1200(3)
C12_2 C 0.0114(6) 0.8815(5) 0.1833(3)
C13_2 C 0.3090(6) 0.8972(5) 0.7296(3)
H3_2 H 0.2216 0.9126 0.7442
C15_2 C 0.0167(7) 0.8998(6) 0.1071(3)
C16_2 C 0.1981(7) 0.3244(5) 0.2467(3)
H5_2 H 0.2942 0.3240 0.2388
H10_2 H 0.0310 0.9230 0.4364
C19_2 C 0.1258(6) 0.8564(5) 0.2969(4)
H11_2 H 0.2097 0.8497 0.3281
C20_2 C 0.0793(6) 0.2575(5) 0.1909(3)
C21_2 C 0.5572(6) 0.8548(6) 0.6832(3)
H12_2 H 0.6431 0.8408 0.6661
C23_2 C 0.1336(6) 0.8707(5) 0.2284(3)
H14_2 H 0.2229 0.8733 0.2116
C25_2 C 0.1770(7) 0.3915(5) 0.3138(3)
H16_2 H 0.2587 0.4373 0.3521
C26_2 C 0.0210(7) 0.4569(5) 0.4012(3)
H18_2 H 0.0609 0.4237 0.4393
C27_2 C 0.4409(7) 0.7891(6) 0.5496(3)
H19_2 H 0.4966 0.7294 0.5425
H20_2 H 0.4938 0.8515 0.5351
C28_2 C 0.3109(9) 0.5516(8) 0.5095(4)
H21_2 H 0.3924 0.5397 0.4844
H22_2 H 0.3484 0.5892 0.5640
H23_2 H 0.2454 0.4786 0.5014
C30_2 C 0.2824(9) 0.9391(7) 0.4972(4)
H25_2 H 0.3811 0.9554 0.5276
H26_2 H 0.2863 0.9646 0.4528
H27_2 H 0.2215 0.9788 0.5278
H30_2 H 0.364352 0.250638 0.0023353
H31_2 H 0.465323 0.171054 0.962923
O14_2 O 0.2798(6) 0.8247(4) 0.9748(3)
H28_2 H 0.381108 0.829212 0.999813
H29_2 H 0.266753 0.790587 0.919171
N3_2 N 0.9995(5) 0.8517(4) 0.3201(3)
C14_2 C 0.9408(7) 0.2624(5) 0.2029(4)
H4_2 H 0.8577 0.2189 0.1647
C17_2 C 0.8770(7) 0.6038(6) 0.3405(4)
H6_2 H 0.8424 0.6640 0.3251
H7_2 H 0.8910 0.5475 0.2960
H8_2 H 0.8048 0.5680 0.3636
C18_2 C 0.9933(7) 0.8463(5) 0.3996(3)
H9_2 H 0.8904 0.8208 0.4020
C22_2 C 0.8820(7) 0.8748(6) 0.2085(4)
H13_2 H 0.7961 0.8792 0.1776
C24_2 C 0.9241(7) 0.3308(5) 0.2707(4)
H15_2 H 0.8290 0.3344 0.2791
H17_2 H 0.9153 0.4490 0.3999
C29_2 C 0.8783(7) 0.8618(6) 0.2786(4)
H24_2 H 0.7910 0.8599 0.2972
loop_
_geom_bond_atom_site_label_1
_geom_bond_atom_site_label_2
_geom_bond_site_symmetry_1
_geom_bond_site_symmetry_2
O1 N1 1_555 1_555
O2 N1 1_555 1_555
N1 O3 1_555 1_555
O1_2 N1_2 1_555 1_555
O2_2 N1_2 1_555 1_555
N1_2 O3_2 1_555 1_555
N2 O4 1_555 1_555
O5 N2 1_555 1_555
O6 N2 1_555 1_555
N2_2 O4_2 1_555 1_555
O5_2 N2_2 1_555 1_555
O6_2 N2_2 1_555 1_555
N3 C18 1_555 1_555
C14 H4 1_555 1_555
H6 C17 1_555 1_555
H7 C17 1_555 1_555
H8 C17 1_555 1_555
H9 C18 1_555 1_555
H13 C22 1_555 1_555
C24 C14 1_555 1_555
H15 C24 1_555 1_555
C29 N3 1_555 1_555
H24 C29 1_555 1_555
C22 C29 1_555 1_555
O14 H28 1_555 1_555
O14 H29 1_555 1_555
Nd1 O11 1_555 1_555
O7 C2 1_555 1_555
O16 C2 1_555 1_555
O17 C15 1_555 1_555
O11 C11 1_555 1_555
N5 C6 1_555 1_555
C1 C8 1_555 1_555
C2 C3 1_555 1_555
C3 C5 1_555 1_555
C4 C7 1_555 1_555
C5 H1 1_555 1_555
O13 Nd1 1_555 1_555
C6 H2 1_555 1_555
C7 C9 1_555 1_555
C8 C4 1_555 1_555
C9 C10 1_555 1_555
C10 C1 1_555 1_555
C11 C20 1_555 1_555
C12 C15 1_555 1_555
C13 C3 1_555 1_555
H3 C13 1_555 1_555
C16 H5 1_555 1_555
H11 C19 1_555 1_555
C21 N5 1_555 1_555
H12 C21 1_555 1_555
C23 C12 1_555 1_555
H14 C23 1_555 1_555
C25 N4 1_555 1_555
H16 C25 1_555 1_555
C26 N4 1_555 1_555
H18 C26 1_555 1_555
C27 N5 1_555 1_555
H19 C27 1_555 1_555
H20 C27 1_555 1_555
C28 C7 1_555 1_555
H21 C28 1_555 1_555
H22 C28 1_555 1_555
H23 C28 1_555 1_555
C30 C10 1_555 1_555
H25 C30 1_555 1_555
H26 C30 1_555 1_555
H27 C30 1_555 1_555
Nd6 O7 1_555 1_555
O15 Nd1 1_555 1_555
C4 C26 1_555 1_555
C5 C21 1_555 1_555
C6 C13 1_555 1_555
C9 C27 1_555 1_555
C16 C20 1_555 1_555
C16 C25 1_555 1_555
C19 C23 1_555 1_555
O13 H30 1_555 1_555
Nd6 O11_2 1_555 1_555
O15 C2_2 1_555 1_555
O8 C2_2 1_555 1_555
O9 C15_2 1_555 1_555
O11_2 C11_2 1_555 1_555
N5_2 C6_2 1_555 1_555
C1_2 C8_2 1_555 1_555
C2_2 C3_2 1_555 1_555
C3_2 C5_2 1_555 1_555
C4_2 C7_2 1_555 1_555
C5_2 H1_2 1_555 1_555
O13_2 Nd6 1_555 1_555
C6_2 H2_2 1_555 1_555
C7_2 C9_2 1_555 1_555
C8_2 C4_2 1_555 1_555
C9_2 C10_2 1_555 1_555
C10_2 C1_2 1_555 1_555
C11_2 C20_2 1_555 1_555
C12_2 C15_2 1_555 1_555
C13_2 C3_2 1_555 1_555
H3_2 C13_2 1_555 1_555
C16_2 H5_2 1_555 1_555
H11_2 C19_2 1_555 1_555
C21_2 N5_2 1_555 1_555
H12_2 C21_2 1_555 1_555
C23_2 C12_2 1_555 1_555
H14_2 C23_2 1_555 1_555
C25_2 N4_2 1_555 1_555
H16_2 C25_2 1_555 1_555
C26_2 N4_2 1_555 1_555
H18_2 C26_2 1_555 1_555
C27_2 N5_2 1_555 1_555
H19_2 C27_2 1_555 1_555
H20_2 C27_2 1_555 1_555
C28_2 C7_2 1_555 1_555
H21_2 C28_2 1_555 1_555
H22_2 C28_2 1_555 1_555
H23_2 C28_2 1_555 1_555
C30_2 C10_2 1_555 1_555
H25_2 C30_2 1_555 1_555
H26_2 C30_2 1_555 1_555
H27_2 C30_2 1_555 1_555
C4_2 C26_2 1_555 1_555
C5_2 C21_2 1_555 1_555
C6_2 C13_2 1_555 1_555
C9_2 C27_2 1_555 1_555
C16_2 C20_2 1_555 1_555
C16_2 C25_2 1_555 1_555
C19_2 C23_2 1_555 1_555
O13_2 H30_2 1_555 1_555
O14_2 H28_2 1_555 1_555
O14_2 H29_2 1_555 1_555
N3_2 C18_2 1_555 1_555
C14_2 H4_2 1_555 1_555
H6_2 C17_2 1_555 1_555
H7_2 C17_2 1_555 1_555
H8_2 C17_2 1_555 1_555
H9_2 C18_2 1_555 1_555
H13_2 C22_2 1_555 1_555
C24_2 C14_2 1_555 1_555
H15_2 C24_2 1_555 1_555
C29_2 N3_2 1_555 1_555
H24_2 C29_2 1_555 1_555
C22_2 C29_2 1_555 1_555

#END
