
###############################################################################
#
# This file contains modified crystal structure data generated from the
# MOF subset of the Cambridge Structural Database (CSD) v543 
# hosted by the Cambridge Crystallographic Data Centre (CCDC).
#
# This work is licensed under the Creative Commons
# Attribution-NonCommercial-ShareAlike 4.0 International License.
# To view a copy of this license, visit
# http://creativecommons.org/licenses/by-nc-sa/4.0/
# or send a letter to
# Creative Commons, PO Box 1866, Mountain View, CA 94042, USA.
#
# CIF created using the CSD Python API on 29 September 2022
# The structure has been converted into the P1 space group
# The structure has a 3D framework
# The original CSD entry VUGXUS is in the triclinic crystal system
# The framework has been calculated to contain at least 10.0% void space
# The void calculation uses a probe of radius 1.32A, grid spacing 0.4
# H atom positions have been added when not included in the experimental data
#
###############################################################################

data_VUGXUS
_chemical_formula_moiety         '(C60 H62 Cl2 N10 O28 Tb2)n'
_symmetry_cell_setting           triclinic
_symmetry_space_group_name_H-M   'P 1'
_symmetry_Int_Tables_number      1
_space_group_name_Hall           'P 1'
loop_
_symmetry_equiv_pos_site_id
_symmetry_equiv_pos_as_xyz
1 x,y,z
_cell_length_a                   9.53070(10)
_cell_length_b                   12.7016(3)
_cell_length_c                   18.8199(3)
_cell_angle_alpha                106.349(2)
_cell_angle_beta                 98.6290(10)
_cell_angle_gamma                100.060(2)
_cell_volume                     2104.13
loop_
_atom_site_label
_atom_site_type_symbol
_atom_site_fract_x
_atom_site_fract_y
_atom_site_fract_z
O1 O 0.4007(6) 0.6320(5) 0.7110(3)
O2 O 0.3830(7) 0.6867(8) 0.8284(4)
N1 N 0.4238(6) 0.6272(5) 0.7754(3)
O3 O 0.4900(7) 0.5534(6) 0.7858(4)
O1_2 O 0.5993(6) 0.3680(5) 0.2890(3)
O2_2 O 0.6170(7) 0.3133(8) 0.1716(4)
N1_2 N 0.5762(6) 0.3728(5) 0.2246(3)
O3_2 O 0.5100(7) 0.4466(6) 0.2142(4)
Cl1 Cl 0.4979(3) 0.1333(3) 0.6804(2)
Cl1_2 Cl 0.5021(3) 0.8667(3) 0.3196(2)
N2 N 0.9017(6) 0.8373(5) 0.6001(3)
O4 O 0.9910(7) 0.8907(6) 0.5739(4)
O5 O 0.7873(11) 0.7493(11) 0.5731(5)
O6 O 0.9651(15) 0.8449(15) 0.6527(12)
N2_2 N 0.0983(6) 0.1627(5) 0.3999(3)
O4_2 O 0.0090(7) 0.1093(6) 0.4261(4)
O5_2 O 0.2127(11) 0.2507(11) 0.4269(5)
O6_2 O 0.0349(15) 0.1551(15) 0.3473(12)
Tb6 Tb 0.23336(3) 0.01633(2) 0.003313(13)
N3 N 0.0003(5) 0.1482(4) 0.6798(3)
O9 O 0.0087(4) 0.8907(4) 0.9262(2)
O11 O 0.1053(4) 0.1200(4) 0.9366(2)
C14 C 0.0593(7) 0.7374(5) 0.7972(4)
H4 H 0.1424 0.7807 0.8355
C17 C 0.1230(7) 0.3963(5) 0.6595(4)
H6 H 0.1603 0.3354 0.6725
H7 H 0.1081 0.4493 0.7053
H8 H 0.1935 0.4359 0.6374
C18 C 0.0066(7) 0.1540(5) 0.6004(3)
H9 H 0.1095 0.1801 0.5981
C22 C 0.1178(7) 0.1251(6) 0.7913(4)
H13 H 0.2037 0.1203 0.8220
C24 C 0.0756(7) 0.6688(5) 0.7293(4)
H15 H 0.1706 0.6648 0.7208
H17 H 0.0846 0.5510 0.6001
C29 C 0.1218(7) 0.1382(6) 0.7216(4)
H24 H 0.2094 0.1403 0.7032
O13 O 0.7199(6) 0.1747(4) 0.0252(3)
O15 O 0.6864(4) 0.0240(4) 0.1172(2)
O17 O 0.9913(4) 0.1093(4) 0.0738(2)
H30 H 0.618494 0.170069 0.00028175
H31 H 0.733128 0.208823 0.0808404
O16 O 0.8609(4) 0.0653(4) 0.9040(2)
O18 O 0.8947(4) 0.8800(4) 0.0634(2)
H29 H 0.534478 0.828816 0.0369395
Tb1 Tb 0.76664(3) 0.98367(2) 0.996687(13)
N4 N 0.9582(6) 0.6074(4) 0.6748(3)
O10 O 0.7698(5) 0.8227(4) 0.8878(2)
N5 N 0.5666(6) 0.1668(5) 0.3679(3)
C1 C 0.9200(6) 0.2310(5) 0.5777(3)
C2 C 0.5667(6) 0.0418(5) 0.1328(3)
C3 C 0.5646(6) 0.0820(5) 0.2160(3)
C4 C 0.9055(6) 0.4184(5) 0.5743(3)
C5 C 0.4379(6) 0.1022(5) 0.2404(3)
H1 H 0.3495 0.0870 0.2044
O12 O 0.5838(5) 0.8095(4) 0.9937(3)
C6 C 0.6892(6) 0.1461(6) 0.3460(3)
H2 H 0.7759 0.1615 0.3831
C7 C 0.7718(7) 0.3750(6) 0.5233(3)
C8 C 0.9793(6) 0.3471(5) 0.6026(3)
C9 C 0.7091(6) 0.2586(6) 0.5021(3)
C10 C 0.7818(6) 0.1861(5) 0.5283(3)
C11 C 0.8979(6) 0.8232(5) 0.8798(3)
C12 C 0.9885(6) 0.1189(5) 0.8169(3)
C13 C 0.6911(6) 0.1029(5) 0.2706(3)
H3 H 0.7782 0.0874 0.2557
C15 C 0.9833(6) 0.1004(5) 0.8930(3)
C16 C 0.8019(7) 0.6758(5) 0.7533(3)
H5 H 0.7060 0.6765 0.7614
H10 H 0.9696 0.0774 0.5635
C19 C 0.8738(6) 0.1439(5) 0.7032(4)
H11 H 0.7899 0.1510 0.6721
C20 C 0.9205(6) 0.7424(5) 0.8088(3)
C21 C 0.4410(6) 0.1441(6) 0.3164(3)
H12 H 0.3544 0.1573 0.3329
C23 C 0.8661(6) 0.1295(5) 0.7718(3)
H14 H 0.7768 0.1267 0.7886
C25 C 0.8222(7) 0.6082(5) 0.6861(3)
H16 H 0.7404 0.5622 0.6478
C26 C 0.9790(7) 0.5430(5) 0.5987(3)
H18 H 0.9390 0.5761 0.5606
C27 C 0.5593(7) 0.2107(7) 0.4503(3)
H19 H 0.5067 0.1486 0.4652
H20 H 0.5032 0.2702 0.4570
C28 C 0.6881(8) 0.4481(7) 0.4901(4)
H21 H 0.6118 0.4653 0.5182
H22 H 0.6434 0.4075 0.4367
H23 H 0.7551 0.5184 0.4942
C30 C 0.7176(9) 0.0608(7) 0.5031(4)
H25 H 0.7179 0.0352 0.5476
H26 H 0.7760 0.0212 0.4707
H27 H 0.6172 0.0447 0.4746
O14 O 0.4540(7) 0.0302(6) 0.0869(4)
O19 O 0.5460(7) 0.9698(6) 0.9131(4)
H28 H 0.635546 0.749285 0.997595
O7 O 0.3136(4) 0.9760(4) 0.8828(2)
O8 O 0.1391(4) 0.9347(4) 0.0960(2)
N4_2 N 0.0418(6) 0.3926(4) 0.3252(3)
O10_2 O 0.2302(5) 0.1773(4) 0.1122(2)
N5_2 N 0.4334(6) 0.8332(5) 0.6321(3)
C1_2 C 0.0800(6) 0.7690(5) 0.4223(3)
C2_2 C 0.4333(6) 0.9582(5) 0.8672(3)
C3_2 C 0.4354(6) 0.9180(5) 0.7840(3)
C4_2 C 0.0945(6) 0.5816(5) 0.4257(3)
C5_2 C 0.5621(6) 0.8978(5) 0.7596(3)
H1_2 H 0.6505 0.9130 0.7956
O12_2 O 0.4162(5) 0.1905(4) 0.0063(3)
C6_2 C 0.3108(6) 0.8539(6) 0.6540(3)
H2_2 H 0.2241 0.8385 0.6169
C7_2 C 0.2282(7) 0.6250(6) 0.4767(3)
C8_2 C 0.0207(6) 0.6529(5) 0.3974(3)
C9_2 C 0.2909(6) 0.7414(6) 0.4979(3)
C10_2 C 0.2182(6) 0.8139(5) 0.4717(3)
C11_2 C 0.1021(6) 0.1768(5) 0.1202(3)
C12_2 C 0.0115(6) 0.8811(5) 0.1831(3)
C13_2 C 0.3089(6) 0.8971(5) 0.7294(3)
H3_2 H 0.2218 0.9126 0.7443
C15_2 C 0.0167(6) 0.8996(5) 0.1070(3)
C16_2 C 0.1981(7) 0.3242(5) 0.2467(3)
H5_2 H 0.2940 0.3235 0.2386
H10_2 H 0.0304 0.9226 0.4365
C19_2 C 0.1262(6) 0.8561(5) 0.2968(4)
H11_2 H 0.2101 0.8490 0.3279
C20_2 C 0.0795(6) 0.2576(5) 0.1912(3)
C21_2 C 0.5590(6) 0.8559(6) 0.6836(3)
H12_2 H 0.6456 0.8427 0.6671
C23_2 C 0.1339(6) 0.8705(5) 0.2282(3)
H14_2 H 0.2232 0.8733 0.2114
C25_2 C 0.1778(7) 0.3918(5) 0.3139(3)
H16_2 H 0.2596 0.4378 0.3522
C26_2 C 0.0210(7) 0.4570(5) 0.4013(3)
H18_2 H 0.0610 0.4239 0.4394
C27_2 C 0.4407(7) 0.7893(7) 0.5497(3)
H19_2 H 0.4933 0.8514 0.5348
H20_2 H 0.4968 0.7298 0.5430
C28_2 C 0.3119(8) 0.5519(7) 0.5099(4)
H21_2 H 0.3882 0.5347 0.4818
H22_2 H 0.3566 0.5925 0.5633
H23_2 H 0.2449 0.4816 0.5058
C30_2 C 0.2824(9) 0.9392(7) 0.4969(4)
H25_2 H 0.2821 0.9648 0.4524
H26_2 H 0.2240 0.9788 0.5293
H27_2 H 0.3828 0.9553 0.5254
H28_2 H 0.364454 0.250715 0.00240546
H29_2 H 0.465522 0.171184 0.96306
O13_2 O 0.2801(6) 0.8253(4) 0.9748(3)
H30_2 H 0.381506 0.829931 0.999718
H31_2 H 0.266872 0.791177 0.91916
N3_2 N 0.9997(5) 0.8518(4) 0.3202(3)
C14_2 C 0.9407(7) 0.2626(5) 0.2028(4)
H4_2 H 0.8576 0.2193 0.1645
C17_2 C 0.8770(7) 0.6037(5) 0.3405(4)
H6_2 H 0.8397 0.6646 0.3275
H7_2 H 0.8919 0.5507 0.2947
H8_2 H 0.8065 0.5641 0.3626
C18_2 C 0.9934(7) 0.8460(5) 0.3996(3)
H9_2 H 0.8905 0.8199 0.4019
C22_2 C 0.8822(7) 0.8749(6) 0.2087(4)
H13_2 H 0.7963 0.8797 0.1780
C24_2 C 0.9244(7) 0.3312(5) 0.2707(4)
H15_2 H 0.8294 0.3352 0.2792
H17_2 H 0.9154 0.4490 0.3999
C29_2 C 0.8782(7) 0.8618(6) 0.2784(4)
H24_2 H 0.7906 0.8597 0.2968
loop_
_geom_bond_atom_site_label_1
_geom_bond_atom_site_label_2
_geom_bond_site_symmetry_1
_geom_bond_site_symmetry_2
O1 N1 1_555 1_555
O2 N1 1_555 1_555
N1 O3 1_555 1_555
O1_2 N1_2 1_555 1_555
O2_2 N1_2 1_555 1_555
N1_2 O3_2 1_555 1_555
N2 O4 1_555 1_555
O5 N2 1_555 1_555
O6 N2 1_555 1_555
N2_2 O4_2 1_555 1_555
O5_2 N2_2 1_555 1_555
O6_2 N2_2 1_555 1_555
N3 C18 1_555 1_555
C14 H4 1_555 1_555
H6 C17 1_555 1_555
H7 C17 1_555 1_555
H8 C17 1_555 1_555
H9 C18 1_555 1_555
H13 C22 1_555 1_555
C24 C14 1_555 1_555
H15 C24 1_555 1_555
C29 N3 1_555 1_555
H24 C29 1_555 1_555
C22 C29 1_555 1_555
O13 H30 1_555 1_555
O13 H31 1_555 1_555
Tb1 O10 1_555 1_555
O15 C2 1_555 1_555
O16 C15 1_555 1_555
O10 C11 1_555 1_555
N5 C6 1_555 1_555
C1 C8 1_555 1_555
C2 C3 1_555 1_555
C3 C5 1_555 1_555
C4 C7 1_555 1_555
C5 H1 1_555 1_555
O12 Tb1 1_555 1_555
C6 H2 1_555 1_555
C7 C9 1_555 1_555
C8 C4 1_555 1_555
C9 C10 1_555 1_555
C10 C1 1_555 1_555
C11 C20 1_555 1_555
C12 C15 1_555 1_555
C13 C3 1_555 1_555
H3 C13 1_555 1_555
C16 H5 1_555 1_555
H11 C19 1_555 1_555
C21 N5 1_555 1_555
H12 C21 1_555 1_555
C23 C12 1_555 1_555
H14 C23 1_555 1_555
C25 N4 1_555 1_555
H16 C25 1_555 1_555
C26 N4 1_555 1_555
H18 C26 1_555 1_555
C27 N5 1_555 1_555
H19 C27 1_555 1_555
H20 C27 1_555 1_555
C28 C7 1_555 1_555
H21 C28 1_555 1_555
H22 C28 1_555 1_555
H23 C28 1_555 1_555
C30 C10 1_555 1_555
H25 C30 1_555 1_555
H26 C30 1_555 1_555
H27 C30 1_555 1_555
O14 C2 1_555 1_555
Tb6 O14 1_555 1_555
O19 Tb1 1_555 1_555
C4 C26 1_555 1_555
C5 C21 1_555 1_555
C6 C13 1_555 1_555
C9 C27 1_555 1_555
C16 C20 1_555 1_555
C16 C25 1_555 1_555
C19 C23 1_555 1_555
O12 H28 1_555 1_555
Tb6 O10_2 1_555 1_555
O7 C2_2 1_555 1_555
O8 C15_2 1_555 1_555
O10_2 C11_2 1_555 1_555
N5_2 C6_2 1_555 1_555
C1_2 C8_2 1_555 1_555
C2_2 C3_2 1_555 1_555
C3_2 C5_2 1_555 1_555
C4_2 C7_2 1_555 1_555
C5_2 H1_2 1_555 1_555
O12_2 Tb6 1_555 1_555
C6_2 H2_2 1_555 1_555
C7_2 C9_2 1_555 1_555
C8_2 C4_2 1_555 1_555
C9_2 C10_2 1_555 1_555
C10_2 C1_2 1_555 1_555
C11_2 C20_2 1_555 1_555
C12_2 C15_2 1_555 1_555
C13_2 C3_2 1_555 1_555
H3_2 C13_2 1_555 1_555
C16_2 H5_2 1_555 1_555
H11_2 C19_2 1_555 1_555
C21_2 N5_2 1_555 1_555
H12_2 C21_2 1_555 1_555
C23_2 C12_2 1_555 1_555
H14_2 C23_2 1_555 1_555
C25_2 N4_2 1_555 1_555
H16_2 C25_2 1_555 1_555
C26_2 N4_2 1_555 1_555
H18_2 C26_2 1_555 1_555
C27_2 N5_2 1_555 1_555
H19_2 C27_2 1_555 1_555
H20_2 C27_2 1_555 1_555
C28_2 C7_2 1_555 1_555
H21_2 C28_2 1_555 1_555
H22_2 C28_2 1_555 1_555
H23_2 C28_2 1_555 1_555
C30_2 C10_2 1_555 1_555
H25_2 C30_2 1_555 1_555
H26_2 C30_2 1_555 1_555
H27_2 C30_2 1_555 1_555
O19 C2_2 1_555 1_555
C4_2 C26_2 1_555 1_555
C5_2 C21_2 1_555 1_555
C6_2 C13_2 1_555 1_555
C9_2 C27_2 1_555 1_555
C16_2 C20_2 1_555 1_555
C16_2 C25_2 1_555 1_555
C19_2 C23_2 1_555 1_555
O12_2 H28_2 1_555 1_555
O13_2 H30_2 1_555 1_555
O13_2 H31_2 1_555 1_555
N3_2 C18_2 1_555 1_555
C14_2 H4_2 1_555 1_555
H6_2 C17_2 1_555 1_555
H7_2 C17_2 1_555 1_555
H8_2 C17_2 1_555 1_555
H9_2 C18_2 1_555 1_555
H13_2 C22_2 1_555 1_555
C24_2 C14_2 1_555 1_555
H15_2 C24_2 1_555 1_555
C29_2 N3_2 1_555 1_555
H24_2 C29_2 1_555 1_555
C22_2 C29_2 1_555 1_555

#END
