
###############################################################################
#
# This file contains modified crystal structure data generated from the
# MOF subset of the Cambridge Structural Database (CSD) v543 
# hosted by the Cambridge Crystallographic Data Centre (CCDC).
#
# This work is licensed under the Creative Commons
# Attribution-NonCommercial-ShareAlike 4.0 International License.
# To view a copy of this license, visit
# http://creativecommons.org/licenses/by-nc-sa/4.0/
# or send a letter to
# Creative Commons, PO Box 1866, Mountain View, CA 94042, USA.
#
# CIF created using the CSD Python API on 29 September 2022
# The structure has been converted into the P1 space group
# The structure has a 3D framework
# The original CSD entry VUGXEC is in the triclinic crystal system
# The framework has been calculated to contain at least 10.0% void space
# The void calculation uses a probe of radius 1.32A, grid spacing 0.4
# H atom positions have been added when not included in the experimental data
#
###############################################################################

data_VUGXEC
_chemical_formula_moiety         '(C60 H62 Cl2 N10 O24 Pr2)n'
_symmetry_cell_setting           triclinic
_symmetry_space_group_name_H-M   'P 1'
_symmetry_Int_Tables_number      1
_space_group_name_Hall           'P 1'
loop_
_symmetry_equiv_pos_site_id
_symmetry_equiv_pos_as_xyz
1 x,y,z
_cell_length_a                   9.5300(3)
_cell_length_b                   12.5401(4)
_cell_length_c                   18.8719(6)
_cell_angle_alpha                105.932(3)
_cell_angle_beta                 98.860(2)
_cell_angle_gamma                100.482(2)
_cell_volume                     2082.3
loop_
_atom_site_label
_atom_site_type_symbol
_atom_site_fract_x
_atom_site_fract_y
_atom_site_fract_z
Cl1 Cl 0.4994(3) 0.6417(3) 0.1779(2)
Cl1_2 Cl 0.5006(3) 0.3583(3) 0.8221(2)
N1 N 0.9013(5) 0.3391(5) 0.1022(3)
O1 O 0.899(4) 0.3873(13) 0.0775(9)
O2 O 0.9433(10) 0.3707(9) 0.1692(6)
O3 O 0.7802(9) 0.2522(9) 0.0727(4)
N1_2 N 0.0987(5) 0.6609(5) 0.8978(3)
O1_2 O 0.101(4) 0.6127(13) 0.9225(9)
O2_2 O 0.0567(10) 0.6293(9) 0.8308(6)
O3_2 O 0.2198(9) 0.7478(9) 0.9273(4)
O4 O 0.4024(5) 0.1346(4) 0.2116(3)
O5 O 0.4914(10) 0.0526(9) 0.2875(6)
O6 O 0.3783(7) 0.1830(8) 0.3285(3)
N2 N 0.4213(8) 0.1271(6) 0.2758(5)
O4_2 O 0.5976(5) 0.8654(4) 0.7884(3)
O5_2 O 0.5086(10) 0.9474(9) 0.7125(6)
O6_2 O 0.6217(7) 0.8170(8) 0.6715(3)
N2_2 N 0.5787(8) 0.8729(6) 0.7242(5)
O10 O 0.0063(4) 0.3913(3) 0.4249(2)
C18 C 0.0579(7) 0.2368(5) 0.2966(4)
H10 H 0.1412 0.2775 0.3357
C20 C 0.0738(7) 0.1708(5) 0.2288(3)
H12 H 0.1691 0.1682 0.2203
H14 H 0.0811 0.0560 0.0975
Pr6 Pr 0.23418(3) 0.51778(2) 0.503636(12)
N3 N 0.0035(5) 0.6519(4) 0.1816(3)
C14 C 0.1244(6) 0.8995(5) 0.1588(3)
H4 H 0.1624 0.8379 0.1714
H5 H 0.1091 0.9518 0.2047
H6 H 0.1947 0.9414 0.1374
C17 C 0.0091(6) 0.6545(5) 0.1011(3)
H8 H 0.1120 0.6802 0.0983
C22 C 0.1207(7) 0.6312(6) 0.2940(4)
H15 H 0.2061 0.6263 0.3252
C23 C 0.1254(7) 0.6442(6) 0.2243(4)
H16 H 0.2136 0.6476 0.2066
O13 O 0.1067(4) 0.6255(4) 0.4386(2)
Pr1 Pr 0.76582(3) 0.48222(2) 0.496364(12)
N5 N 0.9570(5) 0.1100(4) 0.1741(3)
O9 O 0.7668(4) 0.3198(4) 0.3856(2)
C6 C 0.9207(6) 0.2434(5) 0.3074(3)
O12 O 0.5796(5) 0.3028(4) 0.4912(3)
C11 C 0.8958(6) 0.3239(5) 0.3785(3)
C21 C 0.9755(7) 0.0458(5) 0.0971(3)
H13 H 0.9321 0.0789 0.0595
C25 C 0.7993(6) 0.1771(5) 0.2516(3)
H18 H 0.7033 0.1778 0.2594
C27 C 0.8215(7) 0.1095(5) 0.1840(3)
H22 H 0.7402 0.0632 0.1451
O14 O 0.7215(5) 0.6773(4) 0.5261(3)
O15 O 0.5437(4) 0.4702(4) 0.41333(19)
O16 O 0.6867(4) 0.5198(4) 0.61744(19)
O17 O 0.9937(4) 0.6087(3) 0.5751(2)
O18 O 0.8612(4) 0.5694(4) 0.4050(2)
O19 O 0.8933(4) 0.3745(4) 0.5614(2)
H28 H 0.630807 0.24147 0.49437
H29 H 0.530323 0.320775 0.534223
H30 H 0.620121 0.673246 0.501195
H31 H 0.734954 0.710693 0.581569
C1 C 0.9054(6) 0.9201(5) 0.0733(3)
C2 C 0.9799(5) 0.8492(4) 0.1016(3)
C4 C 0.9226(6) 0.7319(4) 0.0780(3)
C5 C 0.7726(6) 0.8758(5) 0.0225(3)
C7 C 0.7102(6) 0.7557(6) 0.0013(3)
C13 C 0.7865(6) 0.6845(5) 0.0284(3)
C15 C 0.8691(6) 0.6343(5) 0.2736(3)
H7 H 0.7795 0.6314 0.2899
C16 C 0.9896(6) 0.6252(5) 0.3187(3)
H9 H 0.9704 0.5763 0.0654
C24 C 0.8773(6) 0.6477(5) 0.2039(3)
H17 H 0.7936 0.6540 0.1722
H19 H 0.6012 0.9544 0.0112
C29 C 0.7237(8) 0.5568(7) 0.0033(4)
H27 H 0.6983 0.5339 0.0462
C30 C 0.9845(6) 0.6059(5) 0.3951(3)
O7 O 0.4563(4) 0.5298(4) 0.58667(19)
N4 N 0.5673(5) 0.6629(5) 0.8663(3)
C3 C 0.5681(6) 0.5381(5) 0.6327(3)
C8 C 0.6914(6) 0.5982(5) 0.7707(3)
H1 H 0.7784 0.5820 0.7563
C9 C 0.4395(6) 0.5979(5) 0.7400(3)
H2 H 0.3510 0.5828 0.7041
C10 C 0.5657(5) 0.5786(5) 0.7163(3)
C12 C 0.4429(6) 0.6390(5) 0.8156(3)
H3 H 0.3559 0.6505 0.8320
C19 C 0.6890(6) 0.6415(5) 0.8459(3)
H11 H 0.7750 0.6560 0.8834
C26 C 0.6867(9) 0.9480(8) 0.9888(3)
H20 H 0.6545 0.9118 0.9341
C28 C 0.5617(6) 0.7072(5) 0.9503(3)
H23 H 0.5053 0.7669 0.9571
H24 H 0.5096 0.6437 0.9651
H25 H 0.7964 0.5172 0.9842
H26 H 0.6359 0.5368 0.9632
O8 O 0.3133(4) 0.4802(4) 0.38256(19)
N4_2 N 0.4327(5) 0.3371(5) 0.1337(3)
C3_2 C 0.4319(6) 0.4619(5) 0.3673(3)
C8_2 C 0.3086(6) 0.4018(5) 0.2293(3)
H1_2 H 0.2216 0.4180 0.2437
C9_2 C 0.5605(6) 0.4021(5) 0.2600(3)
H2_2 H 0.6490 0.4172 0.2959
C10_2 C 0.4343(5) 0.4214(5) 0.2837(3)
C12_2 C 0.5571(6) 0.3610(5) 0.1844(3)
H3_2 H 0.6441 0.3495 0.1680
C19_2 C 0.3110(6) 0.3585(5) 0.1541(3)
H11_2 H 0.2250 0.3440 0.1166
C26_2 C 0.3133(9) 0.0520(8) 0.0112(3)
H20_2 H 0.3455 0.0882 0.0659
C28_2 C 0.4383(6) 0.2928(5) 0.0497(3)
H23_2 H 0.4947 0.2331 0.0429
H24_2 H 0.4904 0.3563 0.0349
H25_2 H 0.2036 0.4828 0.0158
H26_2 H 0.3641 0.4632 0.0368
C1_2 C 0.0946(6) 0.0799(5) 0.9267(3)
C2_2 C 0.0201(5) 0.1508(4) 0.8984(3)
C4_2 C 0.0774(6) 0.2681(4) 0.9220(3)
O11 O 0.1388(4) 0.4306(4) 0.5950(2)
C5_2 C 0.2274(6) 0.1242(5) 0.9775(3)
C7_2 C 0.2898(6) 0.2443(6) 0.9987(3)
C13_2 C 0.2135(6) 0.3155(5) 0.9716(3)
C15_2 C 0.1309(6) 0.3657(5) 0.7264(3)
H7_2 H 0.2205 0.3686 0.7101
C16_2 C 0.0104(6) 0.3748(5) 0.6813(3)
H9_2 H 0.0296 0.4237 0.9346
C24_2 C 0.1227(6) 0.3523(5) 0.7961(3)
H17_2 H 0.2064 0.3460 0.8278
H19_2 H 0.3988 0.0456 0.9888
C29_2 C 0.2763(8) 0.4432(7) 0.9967(4)
H27_2 H 0.3017 0.4661 0.9538
C30_2 C 0.0155(6) 0.3941(5) 0.6049(3)
N5_2 N 0.0430(5) 0.8900(4) 0.8259(3)
O9_2 O 0.2332(4) 0.6802(4) 0.6144(2)
C6_2 C 0.0793(6) 0.7566(5) 0.6926(3)
O12_2 O 0.4204(5) 0.6972(4) 0.5088(3)
C11_2 C 0.1042(6) 0.6761(5) 0.6215(3)
C21_2 C 0.0245(7) 0.9542(5) 0.9029(3)
H13_2 H 0.0679 0.9211 0.9405
C25_2 C 0.2007(6) 0.8229(5) 0.7484(3)
H18_2 H 0.2967 0.8222 0.7406
C27_2 C 0.1785(7) 0.8905(5) 0.8160(3)
H22_2 H 0.2598 0.9368 0.8549
O14_2 O 0.2785(5) 0.3227(4) 0.4739(3)
H28_2 H 0.369193 0.75853 0.50563
H29_2 H 0.469677 0.679225 0.465777
H30_2 H 0.379879 0.326754 0.498805
H31_2 H 0.265046 0.289307 0.418431
N3_2 N 0.9965(5) 0.3481(4) 0.8184(3)
C14_2 C 0.8756(6) 0.1005(5) 0.8412(3)
H4_2 H 0.8376 0.1621 0.8286
H5_2 H 0.8909 0.0482 0.7953
H6_2 H 0.8053 0.0586 0.8626
C17_2 C 0.9909(6) 0.3455(5) 0.8989(3)
H8_2 H 0.8880 0.3198 0.9017
C22_2 C 0.8793(7) 0.3688(6) 0.7060(4)
H15_2 H 0.7939 0.3737 0.6748
C23_2 C 0.8746(7) 0.3558(6) 0.7757(4)
H16_2 H 0.7864 0.3524 0.7934
C18_2 C 0.9421(7) 0.7632(5) 0.7034(4)
H10_2 H 0.8588 0.7225 0.6643
C20_2 C 0.9262(7) 0.8292(5) 0.7712(3)
H12_2 H 0.8309 0.8318 0.7797
H14_2 H 0.9189 0.9440 0.9025
H21 H 0.7492 0.0243 0.9994
H21_2 H 0.2508 0.9757 0.0006
loop_
_geom_bond_atom_site_label_1
_geom_bond_atom_site_label_2
_geom_bond_site_symmetry_1
_geom_bond_site_symmetry_2
N1 O1 1_555 1_555
O2 N1 1_555 1_555
O3 N1 1_555 1_555
N1_2 O1_2 1_555 1_555
O2_2 N1_2 1_555 1_555
O3_2 N1_2 1_555 1_555
O4 N2 1_555 1_555
O5 N2 1_555 1_555
O6 N2 1_555 1_555
O4_2 N2_2 1_555 1_555
O5_2 N2_2 1_555 1_555
O6_2 N2_2 1_555 1_555
H10 C18 1_555 1_555
C20 C18 1_555 1_555
H12 C20 1_555 1_555
Pr6 O10 1_555 1_555
N3 C17 1_555 1_555
H4 C14 1_555 1_555
H5 C14 1_555 1_555
H6 C14 1_555 1_555
H8 C17 1_555 1_555
H15 C22 1_555 1_555
C23 N3 1_555 1_555
H16 C23 1_555 1_555
Pr6 O13 1_555 1_555
C22 C23 1_555 1_555
Pr1 O9 1_555 1_555
O9 C11 1_555 1_555
C6 C11 1_555 1_555
O12 Pr1 1_555 1_555
C21 N5 1_555 1_555
H13 C21 1_555 1_555
C25 C6 1_555 1_555
H18 C25 1_555 1_555
C27 N5 1_555 1_555
H22 C27 1_555 1_555
O14 Pr1 1_555 1_555
O15 Pr1 1_555 1_555
O16 Pr1 1_555 1_555
O17 Pr1 1_555 1_555
O18 Pr1 1_555 1_555
O19 Pr1 1_555 1_555
C25 C27 1_555 1_555
O12 H28 1_555 1_555
O12 H29 1_555 1_555
O14 H30 1_555 1_555
O14 H31 1_555 1_555
C1 C2 1_555 1_555
C2 C4 1_555 1_555
C4 C13 1_555 1_555
O18 C30 1_555 1_555
C5 C1 1_555 1_555
C7 C5 1_555 1_555
C13 C7 1_555 1_555
C15 H7 1_555 1_555
C16 C15 1_555 1_555
H17 C24 1_555 1_555
C29 C13 1_555 1_555
H27 C29 1_555 1_555
C30 C16 1_555 1_555
C15 C24 1_555 1_555
O7 C3 1_555 1_555
O16 C3 1_555 1_555
N4 C12 1_555 1_555
C3 C10 1_555 1_555
C8 H1 1_555 1_555
C9 H2 1_555 1_555
C10 C8 1_555 1_555
C12 C9 1_555 1_555
H3 C12 1_555 1_555
C19 N4 1_555 1_555
H11 C19 1_555 1_555
H20 C26 1_555 1_555
C28 N4 1_555 1_555
H23 C28 1_555 1_555
H24 C28 1_555 1_555
Pr6 O7 1_555 1_555
C8 C19 1_555 1_555
C9 C10 1_555 1_555
O15 C3_2 1_555 1_555
O8 C3_2 1_555 1_555
N4_2 C12_2 1_555 1_555
C3_2 C10_2 1_555 1_555
C8_2 H1_2 1_555 1_555
C9_2 H2_2 1_555 1_555
C10_2 C8_2 1_555 1_555
C12_2 C9_2 1_555 1_555
H3_2 C12_2 1_555 1_555
C19_2 N4_2 1_555 1_555
H11_2 C19_2 1_555 1_555
H20_2 C26_2 1_555 1_555
C28_2 N4_2 1_555 1_555
H23_2 C28_2 1_555 1_555
H24_2 C28_2 1_555 1_555
Pr6 O8 1_555 1_555
C8_2 C19_2 1_555 1_555
C9_2 C10_2 1_555 1_555
C1_2 C2_2 1_555 1_555
C2_2 C4_2 1_555 1_555
C4_2 C13_2 1_555 1_555
O11 C30_2 1_555 1_555
C5_2 C1_2 1_555 1_555
C7_2 C5_2 1_555 1_555
C13_2 C7_2 1_555 1_555
C15_2 H7_2 1_555 1_555
C16_2 C15_2 1_555 1_555
H17_2 C24_2 1_555 1_555
C29_2 C13_2 1_555 1_555
H27_2 C29_2 1_555 1_555
C30_2 C16_2 1_555 1_555
Pr6 O11 1_555 1_555
C15_2 C24_2 1_555 1_555
Pr6 O9_2 1_555 1_555
O9_2 C11_2 1_555 1_555
C6_2 C11_2 1_555 1_555
O12_2 Pr6 1_555 1_555
C21_2 N5_2 1_555 1_555
H13_2 C21_2 1_555 1_555
C25_2 C6_2 1_555 1_555
H18_2 C25_2 1_555 1_555
C27_2 N5_2 1_555 1_555
H22_2 C27_2 1_555 1_555
O14_2 Pr6 1_555 1_555
C25_2 C27_2 1_555 1_555
O12_2 H28_2 1_555 1_555
O12_2 H29_2 1_555 1_555
O14_2 H30_2 1_555 1_555
O14_2 H31_2 1_555 1_555
N3_2 C17_2 1_555 1_555
H4_2 C14_2 1_555 1_555
H5_2 C14_2 1_555 1_555
H6_2 C14_2 1_555 1_555
H8_2 C17_2 1_555 1_555
H15_2 C22_2 1_555 1_555
C23_2 N3_2 1_555 1_555
H16_2 C23_2 1_555 1_555
C22_2 C23_2 1_555 1_555
H10_2 C18_2 1_555 1_555
C20_2 C18_2 1_555 1_555
H12_2 C20_2 1_555 1_555

#END
