
###############################################################################
#
# This file contains modified crystal structure data generated from the
# MOF subset of the Cambridge Structural Database (CSD) v543 
# hosted by the Cambridge Crystallographic Data Centre (CCDC).
#
# This work is licensed under the Creative Commons
# Attribution-NonCommercial-ShareAlike 4.0 International License.
# To view a copy of this license, visit
# http://creativecommons.org/licenses/by-nc-sa/4.0/
# or send a letter to
# Creative Commons, PO Box 1866, Mountain View, CA 94042, USA.
#
# CIF created using the CSD Python API on 29 September 2022
# The structure has been converted into the P1 space group
# The structure has a 3D framework
# The original CSD entry VUGYIH is in the triclinic crystal system
# The framework has been calculated to contain at least 10.0% void space
# The void calculation uses a probe of radius 1.32A, grid spacing 0.4
# H atom positions have been added when not included in the experimental data
#
###############################################################################

data_VUGYIH
_chemical_formula_moiety         '(C60 H62 Cl2 N10 O28 Yb2)n'
_symmetry_cell_setting           triclinic
_symmetry_space_group_name_H-M   'P 1'
_symmetry_Int_Tables_number      1
_space_group_name_Hall           'P 1'
loop_
_symmetry_equiv_pos_site_id
_symmetry_equiv_pos_as_xyz
1 x,y,z
_cell_length_a                   9.4951(3)
_cell_length_b                   12.5595(4)
_cell_length_c                   18.9191(6)
_cell_angle_alpha                106.107(3)
_cell_angle_beta                 98.869(2)
_cell_angle_gamma                100.650(3)
_cell_volume                     2079.23
loop_
_atom_site_label
_atom_site_type_symbol
_atom_site_fract_x
_atom_site_fract_y
_atom_site_fract_z
N1 N 0.8992(7) 0.8393(6) 0.6014(3)
O1 O 0.7836(13) 0.7558(13) 0.5736(6)
O2 O 0.9925(14) 0.8806(14) 0.5711(8)
O3 O 0.9417(16) 0.8693(13) 0.6708(4)
N1_2 N 0.1008(7) 0.1607(6) 0.3986(3)
O1_2 O 0.2164(13) 0.2442(13) 0.4264(6)
O2_2 O 0.0075(14) 0.1194(14) 0.4289(8)
O3_2 O 0.0583(16) 0.1307(13) 0.3292(4)
O4 O 0.3786(9) 0.6835(10) 0.8276(4)
O5 O 0.4008(7) 0.6372(6) 0.7117(4)
N2 N 0.4195(6) 0.6295(6) 0.7756(3)
O6 O 0.4858(11) 0.5540(9) 0.7865(7)
O4_2 O 0.6214(9) 0.3165(10) 0.1724(4)
O5_2 O 0.5992(7) 0.3628(6) 0.2883(4)
N2_2 N 0.5805(6) 0.3705(6) 0.2244(3)
O6_2 O 0.5142(11) 0.4460(9) 0.2135(7)
Cl1 Cl 0.5010(3) 0.8522(3) 0.3240(2)
Cl1_2 Cl 0.4990(3) 0.1478(3) 0.6760(2)
Yb3 Yb 0.23413(3) 0.01781(3) 0.003913(15)
O9 O 0.0024(5) 0.8912(4) 0.9243(3)
N4 N 0.0054(6) 0.1529(5) 0.6819(3)
O11 O 0.1065(5) 0.1271(5) 0.9388(3)
C17 C 0.0117(8) 0.1552(6) 0.6026(4)
H6 H 0.1153 0.1814 0.6002
C18 C 0.1220(8) 0.1335(7) 0.7946(5)
H8 H 0.2080 0.1300 0.8262
C20 C 0.1245(7) 0.4017(6) 0.6595(4)
H10 H 0.1637 0.3417 0.6735
H11 H 0.1080 0.4550 0.7045
H12 H 0.1950 0.4429 0.6377
C21 C 0.0554(8) 0.7398(6) 0.7951(4)
H13 H 0.1385 0.7840 0.8339
C23 C 0.0728(8) 0.6724(6) 0.7279(4)
H15 H 0.1686 0.6694 0.7201
H17 H 0.0811 0.5563 0.5983
C27 C 0.1282(8) 0.1453(7) 0.7251(5)
H19 H 0.2170 0.1482 0.7076
O7 O 0.4578(5) 0.0295(4) 0.0877(2)
O8 O 0.6890(5) 0.0204(5) 0.1188(2)
N3 N 0.5678(6) 0.1589(6) 0.3673(3)
O10 O 0.7635(5) 0.8188(5) 0.8837(3)
O12 O 0.8605(5) 0.0711(5) 0.9050(3)
N5 N 0.9545(7) 0.6104(5) 0.6727(3)
C1 C 0.9241(6) 0.2323(5) 0.5784(3)
C2 C 0.8916(7) 0.8232(6) 0.8770(4)
C3 C 0.5659(6) 0.0764(6) 0.2170(3)
C4 C 0.9055(8) 0.4191(6) 0.5733(3)
C5 C 0.5699(7) 0.0379(6) 0.1340(3)
C6 C 0.9808(6) 0.3485(5) 0.6022(3)
O13 O 0.4228(6) 0.1983(5) 0.0105(4)
C7 C 0.4404(7) 0.0964(7) 0.2404(3)
H1 H 0.3522 0.0822 0.2042
C8 C 0.7110(7) 0.2535(7) 0.5016(3)
C9 C 0.6924(6) 0.0964(6) 0.2712(3)
H2 H 0.7800 0.0812 0.2566
C10 C 0.4422(7) 0.1367(7) 0.3158(3)
H3 H 0.3549 0.1491 0.3318
C11 C 0.7701(8) 0.3720(7) 0.5225(3)
C12 C 0.6900(7) 0.1385(7) 0.3466(3)
H4 H 0.7766 0.1529 0.3840
C13 C 0.9162(7) 0.7425(6) 0.8054(4)
C14 C 0.9913(7) 0.1265(6) 0.8191(4)
C15 C 0.7865(7) 0.1830(6) 0.5284(3)
C16 C 0.8787(7) 0.1478(6) 0.7044(4)
H5 H 0.7945 0.1533 0.6725
H7 H 0.9736 0.0767 0.5670
C19 C 0.8691(7) 0.1348(6) 0.7732(4)
H9 H 0.7787 0.1316 0.7891
C22 C 0.7977(8) 0.6758(7) 0.7499(4)
H14 H 0.7011 0.6759 0.7575
C24 C 0.8180(8) 0.6094(7) 0.6838(4)
H16 H 0.7356 0.5624 0.6455
C25 C 0.9747(9) 0.5453(6) 0.5971(4)
H18 H 0.9317 0.5772 0.5589
C26 C 0.9856(8) 0.1075(7) 0.8947(4)
C28 C 0.5610(7) 0.2021(7) 0.4502(3)
H20 H 0.5024 0.2603 0.4569
H21 H 0.5103 0.1379 0.4648
C29 C 0.6849(10) 0.4441(9) 0.4887(4)
H22 H 0.6042 0.4567 0.5142
H23 H 0.6450 0.4043 0.4348
H24 H 0.7507 0.5178 0.4953
C30 C 0.7254(11) 0.0557(8) 0.5033(5)
H25 H 0.6261 0.0366 0.4721
H26 H 0.7217 0.0301 0.5475
H27 H 0.7885 0.0176 0.4738
Yb6 Yb 0.76587(3) 0.98219(3) 0.996087(15)
O17 O 0.2365(5) 0.1812(5) 0.1163(3)
H28 H 0.509775 0.176357 0.992954
H29 H 0.377635 0.238068 0.977757
O19 O 0.1395(5) 0.9289(5) 0.0950(3)
H30 H 0.279489 0.794409 0.0167879
O14 O 0.2771(6) 0.8209(5) 0.9719(3)
O15 O 0.3110(5) 0.9796(5) 0.8812(2)
H31 H 0.196549 0.768199 0.930012
O14_2 O 0.7229(6) 0.1791(5) 0.0281(3)
O16 O 0.9976(5) 0.1088(4) 0.0757(3)
H31_2 H 0.803451 0.231801 0.0699882
H30_2 H 0.720511 0.205591 0.983212
O18 O 0.8935(5) 0.8729(5) 0.0612(3)
H28_2 H 0.490225 0.823643 0.00704628
H29_2 H 0.622365 0.761932 0.0222427
O7_2 O 0.5422(5) 0.9705(4) 0.9123(2)
N3_2 N 0.4322(6) 0.8411(6) 0.6327(3)
N5_2 N 0.0455(7) 0.3896(5) 0.3273(3)
C1_2 C 0.0759(6) 0.7677(5) 0.4216(3)
C2_2 C 0.1084(7) 0.1768(6) 0.1230(4)
C3_2 C 0.4341(6) 0.9236(6) 0.7830(3)
C4_2 C 0.0945(8) 0.5809(6) 0.4267(3)
C5_2 C 0.4301(7) 0.9621(6) 0.8660(3)
C6_2 C 0.0192(6) 0.6515(5) 0.3978(3)
O13_2 O 0.5772(6) 0.8017(5) 0.9895(4)
C7_2 C 0.5596(7) 0.9036(7) 0.7596(3)
H1_2 H 0.6478 0.9178 0.7958
C8_2 C 0.2890(7) 0.7465(7) 0.4984(3)
C9_2 C 0.3076(6) 0.9036(6) 0.7288(3)
H2_2 H 0.2200 0.9188 0.7434
C10_2 C 0.5578(7) 0.8633(7) 0.6842(3)
H3_2 H 0.6451 0.8509 0.6682
C11_2 C 0.2299(8) 0.6280(7) 0.4775(3)
C12_2 C 0.3100(7) 0.8615(7) 0.6534(3)
H4_2 H 0.2234 0.8471 0.6160
C13_2 C 0.0838(7) 0.2575(6) 0.1946(4)
C14_2 C 0.0087(7) 0.8735(6) 0.1809(4)
C15_2 C 0.2135(7) 0.8170(6) 0.4716(3)
C16_2 C 0.1213(7) 0.8522(6) 0.2956(4)
H5_2 H 0.2055 0.8467 0.3275
H7_2 H 0.0264 0.9233 0.4330
C19_2 C 0.1309(7) 0.8652(6) 0.2268(4)
H9_2 H 0.2213 0.8684 0.2109
C22_2 C 0.2023(8) 0.3242(7) 0.2501(4)
H14_2 H 0.2989 0.3241 0.2425
C24_2 C 0.1820(8) 0.3906(7) 0.3162(4)
H16_2 H 0.2644 0.4376 0.3545
C25_2 C 0.0253(9) 0.4547(6) 0.4029(4)
H18_2 H 0.0683 0.4228 0.4411
C26_2 C 0.0144(8) 0.8925(7) 0.1053(4)
C28_2 C 0.4390(7) 0.7979(7) 0.5498(3)
H20_2 H 0.4976 0.7397 0.5431
H21_2 H 0.4897 0.8621 0.5352
C29_2 C 0.3151(10) 0.5559(9) 0.5113(4)
H22_2 H 0.3958 0.5433 0.4858
H23_2 H 0.3550 0.5957 0.5652
H24_2 H 0.2493 0.4822 0.5047
C30_2 C 0.2746(11) 0.9443(8) 0.4967(5)
H25_2 H 0.3739 0.9634 0.5279
H26_2 H 0.2783 0.9699 0.4525
H27_2 H 0.2115 0.9824 0.5262
N4_2 N 0.9946(6) 0.8471(5) 0.3181(3)
C17_2 C 0.9883(8) 0.8448(6) 0.3974(4)
H6_2 H 0.8847 0.8186 0.3998
C18_2 C 0.8780(8) 0.8665(7) 0.2054(5)
H8_2 H 0.7920 0.8700 0.1738
C20_2 C 0.8755(7) 0.5983(6) 0.3405(4)
H10_2 H 0.8363 0.6583 0.3265
H11_2 H 0.8920 0.5450 0.2955
H12_2 H 0.8050 0.5571 0.3623
C21_2 C 0.9446(8) 0.2602(6) 0.2049(4)
H13_2 H 0.8615 0.2160 0.1661
C23_2 C 0.9272(8) 0.3276(6) 0.2721(4)
H15_2 H 0.8314 0.3306 0.2799
H17_2 H 0.9189 0.4437 0.4017
C27_2 C 0.8718(8) 0.8547(7) 0.2749(5)
H19_2 H 0.7830 0.8518 0.2924
loop_
_geom_bond_atom_site_label_1
_geom_bond_atom_site_label_2
_geom_bond_site_symmetry_1
_geom_bond_site_symmetry_2
N1 O1 1_555 1_555
O2 N1 1_555 1_555
O3 N1 1_555 1_555
N1_2 O1_2 1_555 1_555
O2_2 N1_2 1_555 1_555
O3_2 N1_2 1_555 1_555
O4 N2 1_555 1_555
O5 N2 1_555 1_555
N2 O6 1_555 1_555
O4_2 N2_2 1_555 1_555
O5_2 N2_2 1_555 1_555
N2_2 O6_2 1_555 1_555
C17 N4 1_555 1_555
H6 C17 1_555 1_555
C18 H8 1_555 1_555
C20 H10 1_555 1_555
H11 C20 1_555 1_555
H12 C20 1_555 1_555
C21 H13 1_555 1_555
C23 C21 1_555 1_555
H15 C23 1_555 1_555
C27 N4 1_555 1_555
H19 C27 1_555 1_555
C18 C27 1_555 1_555
Yb3 O7 1_555 1_555
O7 C5 1_555 1_555
O8 C5 1_555 1_555
N3 C10 1_555 1_555
O10 C2 1_555 1_555
O12 C26 1_555 1_555
C1 C6 1_555 1_555
C2 C13 1_555 1_555
C3 C5 1_555 1_555
C4 C6 1_555 1_555
O13 Yb3 1_555 1_555
C7 C3 1_555 1_555
H1 C7 1_555 1_555
C8 C11 1_555 1_555
C9 C3 1_555 1_555
H2 C9 1_555 1_555
C10 C7 1_555 1_555
H3 C10 1_555 1_555
C11 C4 1_555 1_555
C12 N3 1_555 1_555
H4 C12 1_555 1_555
C15 C1 1_555 1_555
C16 H5 1_555 1_555
C19 C14 1_555 1_555
H9 C19 1_555 1_555
C22 C13 1_555 1_555
H14 C22 1_555 1_555
C24 N5 1_555 1_555
H16 C24 1_555 1_555
C25 N5 1_555 1_555
H18 C25 1_555 1_555
C26 C14 1_555 1_555
C28 N3 1_555 1_555
H20 C28 1_555 1_555
H21 C28 1_555 1_555
C29 C11 1_555 1_555
H22 C29 1_555 1_555
H23 C29 1_555 1_555
H24 C29 1_555 1_555
C30 C15 1_555 1_555
H25 C30 1_555 1_555
H26 C30 1_555 1_555
H27 C30 1_555 1_555
Yb6 O10 1_555 1_555
O17 Yb3 1_555 1_555
C4 C25 1_555 1_555
C8 C15 1_555 1_555
C8 C28 1_555 1_555
C9 C12 1_555 1_555
C16 C19 1_555 1_555
C22 C24 1_555 1_555
O14 H31 1_555 1_555
O14_2 H31_2 1_555 1_555
Yb6 O7_2 1_555 1_555
O7_2 C5_2 1_555 1_555
O15 C5_2 1_555 1_555
N3_2 C10_2 1_555 1_555
O17 C2_2 1_555 1_555
O19 C26_2 1_555 1_555
C1_2 C6_2 1_555 1_555
C2_2 C13_2 1_555 1_555
C3_2 C5_2 1_555 1_555
C4_2 C6_2 1_555 1_555
O13_2 Yb6 1_555 1_555
C7_2 C3_2 1_555 1_555
H1_2 C7_2 1_555 1_555
C8_2 C11_2 1_555 1_555
C9_2 C3_2 1_555 1_555
H2_2 C9_2 1_555 1_555
C10_2 C7_2 1_555 1_555
H3_2 C10_2 1_555 1_555
C11_2 C4_2 1_555 1_555
C12_2 N3_2 1_555 1_555
H4_2 C12_2 1_555 1_555
C15_2 C1_2 1_555 1_555
C16_2 H5_2 1_555 1_555
C19_2 C14_2 1_555 1_555
H9_2 C19_2 1_555 1_555
C22_2 C13_2 1_555 1_555
H14_2 C22_2 1_555 1_555
C24_2 N5_2 1_555 1_555
H16_2 C24_2 1_555 1_555
C25_2 N5_2 1_555 1_555
H18_2 C25_2 1_555 1_555
C26_2 C14_2 1_555 1_555
C28_2 N3_2 1_555 1_555
H20_2 C28_2 1_555 1_555
H21_2 C28_2 1_555 1_555
C29_2 C11_2 1_555 1_555
H22_2 C29_2 1_555 1_555
H23_2 C29_2 1_555 1_555
H24_2 C29_2 1_555 1_555
C30_2 C15_2 1_555 1_555
H25_2 C30_2 1_555 1_555
H26_2 C30_2 1_555 1_555
H27_2 C30_2 1_555 1_555
C4_2 C25_2 1_555 1_555
C8_2 C15_2 1_555 1_555
C8_2 C28_2 1_555 1_555
C9_2 C12_2 1_555 1_555
C16_2 C19_2 1_555 1_555
C22_2 C24_2 1_555 1_555
C17_2 N4_2 1_555 1_555
H6_2 C17_2 1_555 1_555
C18_2 H8_2 1_555 1_555
C20_2 H10_2 1_555 1_555
H11_2 C20_2 1_555 1_555
H12_2 C20_2 1_555 1_555
C21_2 H13_2 1_555 1_555
C23_2 C21_2 1_555 1_555
H15_2 C23_2 1_555 1_555
C27_2 N4_2 1_555 1_555
H19_2 C27_2 1_555 1_555
C18_2 C27_2 1_555 1_555

#END
