
###############################################################################
#
# This file contains modified crystal structure data generated from the
# MOF subset of the Cambridge Structural Database (CSD) v543 
# hosted by the Cambridge Crystallographic Data Centre (CCDC).
#
# This work is licensed under the Creative Commons
# Attribution-NonCommercial-ShareAlike 4.0 International License.
# To view a copy of this license, visit
# http://creativecommons.org/licenses/by-nc-sa/4.0/
# or send a letter to
# Creative Commons, PO Box 1866, Mountain View, CA 94042, USA.
#
# CIF created using the CSD Python API on 29 September 2022
# The structure has been converted into the P1 space group
# The structure has a 3D framework
# The original CSD entry VUGYAZ is in the triclinic crystal system
# The framework has been calculated to contain at least 10.0% void space
# The void calculation uses a probe of radius 1.32A, grid spacing 0.4
# H atom positions have been added when not included in the experimental data
#
###############################################################################

data_VUGYAZ
_chemical_formula_moiety         '(C60 H62 Cl2 Dy2 N10 O26)n'
_symmetry_cell_setting           triclinic
_symmetry_space_group_name_H-M   'P 1'
_symmetry_Int_Tables_number      1
_space_group_name_Hall           'P 1'
loop_
_symmetry_equiv_pos_site_id
_symmetry_equiv_pos_as_xyz
1 x,y,z
_cell_length_a                   9.4727(2)
_cell_length_b                   12.6520(4)
_cell_length_c                   18.6017(6)
_cell_angle_alpha                106.106(3)
_cell_angle_beta                 98.088(2)
_cell_angle_gamma                100.255(2)
_cell_volume                     2064.63
loop_
_atom_site_label
_atom_site_type_symbol
_atom_site_fract_x
_atom_site_fract_y
_atom_site_fract_z
O1 O 0.4055(6) 0.1316(5) 0.2122(3)
N1 N 0.4260(9) 0.1291(7) 0.2788(5)
O2 O 0.3883(10) 0.1911(10) 0.3313(4)
O3 O 0.4903(11) 0.0516(9) 0.2887(7)
O1_2 O 0.5945(6) 0.8684(5) 0.7878(3)
N1_2 N 0.5740(9) 0.8709(7) 0.7212(5)
O2_2 O 0.6117(10) 0.8089(10) 0.6687(4)
O3_2 O 0.5097(11) 0.9484(9) 0.7113(7)
N2 N 0.1003(9) 0.6648(8) 0.9010(4)
O4 O 0.0162(7) 0.6121(6) 0.9278(3)
O5 O 0.0428(17) 0.6513(17) 0.8430(13)
O6 O 0.2145(9) 0.7570(9) 0.9310(5)
N2_2 N 0.8997(9) 0.3352(8) 0.0990(4)
O4_2 O 0.9838(7) 0.3879(6) 0.0722(3)
O5_2 O 0.9572(17) 0.3487(17) 0.1570(13)
O6_2 O 0.7855(9) 0.2430(9) 0.0690(5)
Cl1 Cl 0.5006(3) 0.6444(4) 0.1774(2)
Cl1_2 Cl 0.4994(3) 0.3556(4) 0.8226(2)
O7 O 0.5516(4) 0.4682(4) 0.4147(2)
O10 O 0.3196(5) 0.4791(4) 0.3867(2)
N4 N 0.4388(6) 0.3372(5) 0.1332(3)
C2 C 0.4398(6) 0.4201(5) 0.2851(3)
C5 C 0.4391(6) 0.4609(5) 0.3706(3)
C6 C 0.5658(6) 0.3981(6) 0.2604(3)
H1 H 0.6538 0.4107 0.2963
C10 C 0.3142(6) 0.4021(5) 0.2312(3)
H2 H 0.2277 0.4194 0.2472
C12 C 0.5625(7) 0.3579(6) 0.1835(4)
H3 H 0.6493 0.3448 0.1661
C14 C 0.3142(6) 0.3591(6) 0.1540(3)
H7 H 0.2280 0.3454 0.1167
H16 H 0.2229 0.4799 0.0300
H18 H 0.3822 0.4592 0.0210
C29 C 0.4467(10) 0.2969(9) 0.0492(5)
H23 H 0.5068 0.2397 0.0413
H24 H 0.4957 0.3615 0.0346
C30 C 0.3194(10) 0.0547(8) 0.0102(4)
H26 H 0.3548 0.0913 0.0653
Dy3 Dy 0.76384(3) 0.48437(2) 0.497148(14)
Dy6 Dy 0.23616(3) 0.51563(2) 0.502852(14)
C1 C 0.0987(7) 0.0819(5) 0.9264(3)
C3 C 0.0804(6) 0.2684(5) 0.9213(3)
C8 C 0.2187(7) 0.3156(6) 0.9707(3)
C9 C 0.2329(8) 0.1279(6) 0.9771(3)
C11 C 0.2953(11) 0.2455(9) 0.9975(5)
C18 C 0.1304(7) 0.3677(6) 0.7233(4)
H11 H 0.2201 0.3710 0.7057
C20 C 0.0116(7) 0.3992(5) 0.6024(3)
C21 C 0.0216(6) 0.1518(5) 0.8980(3)
C22 C 0.1222(7) 0.3531(5) 0.7930(4)
H13 H 0.2065 0.3462 0.8241
H14 H 0.0292 0.4224 0.9345
C24 C 0.2795(10) 0.4416(7) 0.9950(5)
H17 H 0.2729 0.4675 0.9499
C27 C 0.0058(6) 0.3778(5) 0.6785(3)
H27 H 0.4030 0.0458 0.9853
O13 O 0.1361(5) 0.4353(4) 0.5912(3)
O11 O 0.2185(5) 0.6677(4) 0.6077(2)
N5 N 0.0439(6) 0.8921(4) 0.8262(3)
C4 C 0.0905(7) 0.6707(5) 0.6175(4)
C7 C 0.0752(7) 0.7561(5) 0.6895(4)
C15 C 0.1971(7) 0.8217(5) 0.7445(4)
H8 H 0.2927 0.8194 0.7352
C25 C 0.1790(7) 0.8895(5) 0.8121(4)
H19 H 0.2624 0.9353 0.8495
C28 C 0.0270(8) 0.9578(5) 0.9038(4)
H21 H 0.0703 0.9254 0.9420
N3 N 0.9956(6) 0.3485(4) 0.8172(3)
O9 O 0.8895(4) 0.3830(4) 0.5597(2)
C13 C 0.8781(7) 0.1021(5) 0.8424(4)
H4 H 0.8330 0.1631 0.8346
H5 H 0.8128 0.0537 0.8627
H6 H 0.8948 0.0571 0.7935
C16 C 0.8754(7) 0.3704(7) 0.7046(4)
H9 H 0.7886 0.3743 0.6739
C23 C 0.9916(7) 0.3450(5) 0.8984(3)
H15 H 0.8887 0.3191 0.9021
C26 C 0.8733(7) 0.3573(6) 0.7757(4)
H20 H 0.7856 0.3546 0.7951
O8 O 0.9757(4) 0.6081(3) 0.5743(2)
O12 O 0.5887(5) 0.3109(4) 0.4909(3)
C17 C 0.9370(7) 0.7629(5) 0.7043(4)
H10 H 0.8518 0.7202 0.6671
C19 C 0.9251(7) 0.8318(5) 0.7727(4)
H12 H 0.8307 0.8371 0.7829
H22 H 0.9214 0.9493 0.9046
O14 O 0.7148(6) 0.6703(4) 0.5236(3)
O17 O 0.6804(5) 0.5209(4) 0.6133(2)
O18 O 0.7815(5) 0.3323(4) 0.3923(2)
O19 O 0.8639(5) 0.5647(4) 0.4088(3)
H28 H 0.543445 0.325204 0.536664
H29 H 0.511143 0.288521 0.444137
H30 H 0.785216 0.718397 0.504393
H31 H 0.613383 0.664676 0.497738
O8_2 O 0.0243(4) 0.3919(3) 0.4257(2)
O12_2 O 0.4113(5) 0.6891(4) 0.5091(3)
C17_2 C 0.0630(7) 0.2371(5) 0.2957(4)
H10_2 H 0.1482 0.2798 0.3329
C19_2 C 0.0749(7) 0.1682(5) 0.2273(4)
H12_2 H 0.1693 0.1629 0.2171
H22_2 H 0.0786 0.0507 0.0954
O14_2 O 0.2852(6) 0.3297(4) 0.4764(3)
O15 O 0.4484(4) 0.5318(4) 0.5853(2)
O16 O 0.1105(4) 0.6170(4) 0.4403(2)
H28_2 H 0.456555 0.674796 0.463336
H29_2 H 0.488857 0.711479 0.555863
H30_2 H 0.214784 0.281603 0.495607
H31_2 H 0.386617 0.335324 0.502262
N3_2 N 0.0044(6) 0.6515(4) 0.1828(3)
C13_2 C 0.1219(7) 0.8979(5) 0.1576(4)
H4_2 H 0.1670 0.8369 0.1654
H5_2 H 0.1872 0.9463 0.1373
H6_2 H 0.1052 0.9429 0.2065
C16_2 C 0.1246(7) 0.6296(7) 0.2954(4)
H9_2 H 0.2114 0.6257 0.3261
C23_2 C 0.0084(7) 0.6550(5) 0.1016(3)
H15_2 H 0.1113 0.6809 0.0979
C26_2 C 0.1267(7) 0.6427(6) 0.2243(4)
H20_2 H 0.2144 0.6454 0.2049
N5_2 N 0.9561(6) 0.1079(4) 0.1738(3)
C4_2 C 0.9095(7) 0.3293(5) 0.3825(4)
C7_2 C 0.9248(7) 0.2439(5) 0.3105(4)
C15_2 C 0.8029(7) 0.1783(5) 0.2555(4)
H8_2 H 0.7073 0.1806 0.2648
C25_2 C 0.8210(7) 0.1105(5) 0.1879(4)
H19_2 H 0.7376 0.0647 0.1505
C28_2 C 0.9730(8) 0.0422(5) 0.0962(4)
H21_2 H 0.9297 0.0746 0.0580
C1_2 C 0.9013(7) 0.9181(5) 0.0736(3)
C3_2 C 0.9196(6) 0.7316(5) 0.0787(3)
C8_2 C 0.7813(7) 0.6844(6) 0.0293(3)
C9_2 C 0.7671(8) 0.8721(6) 0.0229(3)
C11_2 C 0.7047(11) 0.7545(9) 0.0025(5)
C18_2 C 0.8696(7) 0.6323(6) 0.2767(4)
H11_2 H 0.7799 0.6290 0.2943
C20_2 C 0.9884(7) 0.6008(5) 0.3976(3)
C21_2 C 0.9784(6) 0.8482(5) 0.1020(3)
C22_2 C 0.8778(7) 0.6469(5) 0.2070(4)
H13_2 H 0.7935 0.6538 0.1759
H14_2 H 0.9708 0.5776 0.0655
C24_2 C 0.7205(10) 0.5584(7) 0.0050(5)
H17_2 H 0.7271 0.5325 0.0501
C27_2 C 0.9942(6) 0.6222(5) 0.3215(3)
H27_2 H 0.5970 0.9542 0.0147
N4_2 N 0.5612(6) 0.6628(5) 0.8668(3)
C2_2 C 0.5602(6) 0.5799(5) 0.7149(3)
C5_2 C 0.5609(6) 0.5391(5) 0.6294(3)
C6_2 C 0.4342(6) 0.6019(6) 0.7396(3)
H1_2 H 0.3462 0.5893 0.7037
C10_2 C 0.6858(6) 0.5979(5) 0.7688(3)
H2_2 H 0.7723 0.5806 0.7528
C12_2 C 0.4375(7) 0.6421(6) 0.8165(4)
H3_2 H 0.3507 0.6552 0.8339
C14_2 C 0.6858(6) 0.6409(6) 0.8460(3)
H7_2 H 0.7720 0.6546 0.8833
H16_2 H 0.7771 0.5201 0.9700
H18_2 H 0.6178 0.5408 0.9790
C29_2 C 0.5533(10) 0.7031(9) 0.9508(5)
H23_2 H 0.4932 0.7603 0.9587
H24_2 H 0.5043 0.6385 0.9654
C30_2 C 0.6806(10) 0.9453(8) 0.9898(4)
H26_2 H 0.6452 0.9087 0.9347
H25 H 0.2557 0.9802 0.0012
H25_2 H 0.7443 0.0198 0.9988
loop_
_geom_bond_atom_site_label_1
_geom_bond_atom_site_label_2
_geom_bond_site_symmetry_1
_geom_bond_site_symmetry_2
O1 N1 1_555 1_555
N1 O2 1_555 1_555
O3 N1 1_555 1_555
O1_2 N1_2 1_555 1_555
N1_2 O2_2 1_555 1_555
O3_2 N1_2 1_555 1_555
N2 O4 1_555 1_555
O5 N2 1_555 1_555
O6 N2 1_555 1_555
N2_2 O4_2 1_555 1_555
O5_2 N2_2 1_555 1_555
O6_2 N2_2 1_555 1_555
O7 C5 1_555 1_555
O10 C5 1_555 1_555
N4 C12 1_555 1_555
C2 C5 1_555 1_555
C6 C2 1_555 1_555
H1 C6 1_555 1_555
C10 C2 1_555 1_555
H2 C10 1_555 1_555
C12 C6 1_555 1_555
H3 C12 1_555 1_555
C14 N4 1_555 1_555
H7 C14 1_555 1_555
C29 N4 1_555 1_555
H23 C29 1_555 1_555
H24 C29 1_555 1_555
H26 C30 1_555 1_555
Dy3 O7 1_555 1_555
Dy6 O10 1_555 1_555
C10 C14 1_555 1_555
C1 C9 1_555 1_555
C3 C8 1_555 1_555
C8 C11 1_555 1_555
C9 C11 1_555 1_555
C18 H11 1_555 1_555
C20 C27 1_555 1_555
C21 C1 1_555 1_555
C22 C18 1_555 1_555
H13 C22 1_555 1_555
C24 C8 1_555 1_555
H17 C24 1_555 1_555
O13 C20 1_555 1_555
Dy6 O13 1_555 1_555
C3 C21 1_555 1_555
C18 C27 1_555 1_555
O11 C4 1_555 1_555
C4 C7 1_555 1_555
C7 C15 1_555 1_555
C15 H8 1_555 1_555
C25 N5 1_555 1_555
H19 C25 1_555 1_555
H21 C28 1_555 1_555
Dy6 O11 1_555 1_555
N5 C28 1_555 1_555
C15 C25 1_555 1_555
C13 H4 1_555 1_555
H5 C13 1_555 1_555
H6 C13 1_555 1_555
C16 H9 1_555 1_555
C23 N3 1_555 1_555
H15 C23 1_555 1_555
C26 N3 1_555 1_555
H20 C26 1_555 1_555
Dy3 O9 1_555 1_555
C16 C26 1_555 1_555
Dy3 O8 1_555 1_555
O12 Dy3 1_555 1_555
H10 C17 1_555 1_555
C19 C17 1_555 1_555
H12 C19 1_555 1_555
O14 Dy3 1_555 1_555
O17 Dy3 1_555 1_555
O18 Dy3 1_555 1_555
O19 Dy3 1_555 1_555
O12 H28 1_555 1_555
O12 H29 1_555 1_555
O14 H30 1_555 1_555
O14 H31 1_555 1_555
Dy6 O8_2 1_555 1_555
O12_2 Dy6 1_555 1_555
H10_2 C17_2 1_555 1_555
C19_2 C17_2 1_555 1_555
H12_2 C19_2 1_555 1_555
O14_2 Dy6 1_555 1_555
O15 Dy6 1_555 1_555
O16 Dy6 1_555 1_555
O12_2 H28_2 1_555 1_555
O12_2 H29_2 1_555 1_555
O14_2 H30_2 1_555 1_555
O14_2 H31_2 1_555 1_555
C13_2 H4_2 1_555 1_555
H5_2 C13_2 1_555 1_555
H6_2 C13_2 1_555 1_555
C16_2 H9_2 1_555 1_555
C23_2 N3_2 1_555 1_555
H15_2 C23_2 1_555 1_555
C26_2 N3_2 1_555 1_555
H20_2 C26_2 1_555 1_555
C16_2 C26_2 1_555 1_555
O18 C4_2 1_555 1_555
C4_2 C7_2 1_555 1_555
C7_2 C15_2 1_555 1_555
C15_2 H8_2 1_555 1_555
C25_2 N5_2 1_555 1_555
H19_2 C25_2 1_555 1_555
H21_2 C28_2 1_555 1_555
N5_2 C28_2 1_555 1_555
C15_2 C25_2 1_555 1_555
C1_2 C9_2 1_555 1_555
C3_2 C8_2 1_555 1_555
C8_2 C11_2 1_555 1_555
C9_2 C11_2 1_555 1_555
C18_2 H11_2 1_555 1_555
C20_2 C27_2 1_555 1_555
C21_2 C1_2 1_555 1_555
C22_2 C18_2 1_555 1_555
H13_2 C22_2 1_555 1_555
C24_2 C8_2 1_555 1_555
H17_2 C24_2 1_555 1_555
O19 C20_2 1_555 1_555
C3_2 C21_2 1_555 1_555
C18_2 C27_2 1_555 1_555
O15 C5_2 1_555 1_555
O17 C5_2 1_555 1_555
N4_2 C12_2 1_555 1_555
C2_2 C5_2 1_555 1_555
C6_2 C2_2 1_555 1_555
H1_2 C6_2 1_555 1_555
C10_2 C2_2 1_555 1_555
H2_2 C10_2 1_555 1_555
C12_2 C6_2 1_555 1_555
H3_2 C12_2 1_555 1_555
C14_2 N4_2 1_555 1_555
H7_2 C14_2 1_555 1_555
C29_2 N4_2 1_555 1_555
H23_2 C29_2 1_555 1_555
H24_2 C29_2 1_555 1_555
H26_2 C30_2 1_555 1_555
C10_2 C14_2 1_555 1_555

#END
