
###############################################################################
#
# This file contains modified crystal structure data generated from the
# MOF subset of the Cambridge Structural Database (CSD) v543 
# hosted by the Cambridge Crystallographic Data Centre (CCDC).
#
# This work is licensed under the Creative Commons
# Attribution-NonCommercial-ShareAlike 4.0 International License.
# To view a copy of this license, visit
# http://creativecommons.org/licenses/by-nc-sa/4.0/
# or send a letter to
# Creative Commons, PO Box 1866, Mountain View, CA 94042, USA.
#
# CIF created using the CSD Python API on 29 September 2022
# The structure has been converted into the P1 space group
# The structure has a 3D framework
# The original CSD entry VUGYED is in the triclinic crystal system
# The framework has been calculated to contain at least 10.0% void space
# The void calculation uses a probe of radius 1.32A, grid spacing 0.4
# H atom positions have been added when not included in the experimental data
#
###############################################################################

data_VUGYED
_chemical_formula_moiety         '(C60 H62 Cl4 Ho2 N10 O26 2-)n'
_symmetry_cell_setting           triclinic
_symmetry_space_group_name_H-M   'P 1'
_symmetry_Int_Tables_number      1
_space_group_name_Hall           'P 1'
loop_
_symmetry_equiv_pos_site_id
_symmetry_equiv_pos_as_xyz
1 x,y,z
_cell_length_a                   9.4644(2)
_cell_length_b                   12.7206(3)
_cell_length_c                   18.5539(5)
_cell_angle_alpha                106.206(2)
_cell_angle_beta                 97.893(2)
_cell_angle_gamma                100.266(2)
_cell_volume                     2068.88
loop_
_atom_site_label
_atom_site_type_symbol
_atom_site_fract_x
_atom_site_fract_y
_atom_site_fract_z
Cl1 Cl 0.0001(2) 0.6435(2) 0.17881(16)
Cl1_2 Cl 1.0001(2) 0.6435(2) 0.17881(16)
Cl1_3 Cl -0.0001(2) 0.3565(2) 0.82119(16)
Cl1_4 Cl 0.9999(2) 0.3565(2) 0.82119(16)
N1 N 0.9259(6) 0.1265(5) 0.2787(3)
O1 O 0.9901(11) 0.0527(9) 0.2915(6)
O2 O 0.8918(10) 0.1901(8) 0.3325(6)
O3 O 0.9070(10) 0.1302(8) 0.2128(6)
N1_2 N 0.0741(6) 0.8735(5) 0.7213(3)
O1_2 O 0.0099(11) 0.9473(9) 0.7085(6)
O2_2 O 0.1082(10) 0.8099(8) 0.6675(6)
O3_2 O 0.0930(10) 0.8698(8) 0.7872(6)
N2 N 0.4034(6) 0.3352(5) 0.0983(3)
O4 O 0.2871(9) 0.2384(8) 0.0684(5)
O5 O 0.3391(9) 0.3900(8) 0.0690(6)
O6 O 0.4882(10) 0.3216(8) 0.1338(6)
N2_2 N 0.5966(6) 0.6648(5) 0.9017(3)
O4_2 O 0.7129(9) 0.7616(8) 0.9316(5)
O5_2 O 0.6609(9) 0.6100(8) 0.9310(6)
O6_2 O 0.5118(10) 0.6784(8) 0.8662(6)
Ho1 Ho 0.26384(3) 0.48509(3) 0.497279(17)
O7 O 0.2840(4) 0.3333(3) 0.3943(2)
N3 N 0.4581(6) 0.1063(4) 0.1741(3)
O8 O 0.5267(4) 0.3913(3) 0.4269(2)
C7 C 0.4721(8) 0.0399(5) 0.0967(3)
H1 H 0.5774 0.0484 0.0948
H2 H 0.4275 0.0718 0.0586
C13 C 0.5776(7) 0.1669(5) 0.2274(4)
H16 H 0.6722 0.1625 0.2170
C14 C 0.5641(6) 0.2354(5) 0.2972(4)
H17 H 0.6490 0.2760 0.3353
C15 C 0.4274(6) 0.2446(4) 0.3114(3)
C16 C 0.3037(6) 0.1780(5) 0.2570(3)
H18 H 0.2083 0.1802 0.2671
C17 C 0.3216(7) 0.1093(5) 0.1888(3)
H19 H 0.2380 0.0636 0.1516
C18 C 0.4113(6) 0.3285(4) 0.3838(3)
O13 O 0.0910(5) 0.3143(4) 0.4931(3)
O14 O 0.2155(5) 0.6678(4) 0.5206(3)
Ho6 Ho 0.73616(3) 0.51491(3) 0.502721(17)
O15 O 0.4733(4) 0.6087(3) 0.5731(2)
O16 O 0.3645(4) 0.5620(3) 0.4077(2)
O17 O 0.3890(4) 0.3865(3) 0.5613(2)
O18 O 0.1796(4) 0.5238(4) 0.61317(19)
O19 O 0.0532(4) 0.4671(3) 0.41471(19)
H28 H 0.11689 0.66216 0.491345
H29 H 0.218881 0.701373 0.576149
H30 H 0.145665 0.256584 0.499294
H31 H 0.0360784 0.332087 0.535191
C1 C 0.4017(6) 0.9169(4) 0.0740(3)
N4 N 0.5041(5) 0.6494(4) 0.1808(3)
C2 C 0.4778(5) 0.8470(4) 0.1022(3)
C3 C 0.4186(6) 0.7306(4) 0.0781(3)
O10 O 0.6110(4) 0.6135(3) 0.4387(2)
C4 C 0.2819(6) 0.6850(5) 0.0299(3)
C5 C 0.2059(6) 0.7565(5) 0.0038(3)
C6 C 0.2660(7) 0.8721(5) 0.0235(3)
C8 C 0.5085(6) 0.6545(5) 0.1008(3)
H3 H 0.6115 0.6812 0.0974
H4 H 0.4721 0.5778 0.0641
C10 C 0.6207(7) 0.8963(5) 0.1578(3)
H7 H 0.6622 0.8357 0.1685
H8 H 0.6047 0.9457 0.2055
H9 H 0.6888 0.9399 0.1357
C11 C 0.2168(9) 0.5607(6) 0.0045(4)
H12 H 0.1824 0.5395 0.0470
H15 H 0.1080 0.9644 0.0219
C19 C 0.6258(6) 0.6399(5) 0.2226(4)
H20 H 0.7139 0.6430 0.2033
C20 C 0.6233(7) 0.6256(6) 0.2929(4)
H21 H 0.7101 0.6205 0.3230
C21 C 0.4940(6) 0.6188(4) 0.3202(3)
C22 C 0.3696(6) 0.6295(5) 0.2757(3)
H22 H 0.2799 0.6259 0.2935
C23 C 0.3773(6) 0.6453(5) 0.2068(3)
H23 H 0.2928 0.6534 0.1766
C24 C 0.4879(6) 0.5964(4) 0.3958(3)
N5 N 0.0608(6) 0.6643(5) 0.8680(3)
C9 C 0.0556(6) 0.7088(5) 0.9527(3)
H6 H 0.0031 0.6470 0.9685
H10 H 0.2914 0.5198 0.9884
H11 H 0.1342 0.5417 0.9615
C12 C 0.1821(9) 0.9454(7) 0.9915(4)
H13 H 0.1339 0.9046 0.9382
C25 C 0.1846(5) 0.6435(5) 0.8454(3)
H24 H 0.2715 0.6579 0.8825
C26 C 0.1859(6) 0.6017(5) 0.7690(3)
H25 H 0.2729 0.5857 0.7529
C27 C 0.0590(5) 0.5828(4) 0.7153(3)
C30 C 0.0610(5) 0.5420(4) 0.6299(3)
O12 O 0.9468(4) 0.5329(3) 0.58529(19)
H5 H 0.9992 0.7682 0.9600
C28 C 0.9328(6) 0.6034(5) 0.7405(3)
H26 H 0.8440 0.5883 0.7046
C29 C 0.9365(6) 0.6462(6) 0.8182(3)
H27 H 0.8509 0.6625 0.8359
H5_2 H 0.0008 0.2318 0.0400
C28_2 C 0.0672(6) 0.3966(5) 0.2595(3)
H26_2 H 0.1560 0.4117 0.2954
C29_2 C 0.0635(6) 0.3538(6) 0.1818(3)
H27_2 H 0.1491 0.3375 0.1641
N5_2 N 0.9392(6) 0.3357(5) 0.1320(3)
O11 O 0.8204(4) 0.4762(4) 0.38683(19)
C9_2 C 0.9444(6) 0.2912(5) 0.0473(3)
H6_2 H 0.9969 0.3530 0.0315
H10_2 H 0.7086 0.4802 0.0116
H11_2 H 0.8658 0.4583 0.0385
C12_2 C 0.8179(9) 0.0546(7) 0.0085(4)
H13_2 H 0.8661 0.0954 0.0618
C25_2 C 0.8154(5) 0.3565(5) 0.1546(3)
H24_2 H 0.7285 0.3421 0.1175
C26_2 C 0.8141(6) 0.3983(5) 0.2310(3)
H25_2 H 0.7271 0.4143 0.2471
C27_2 C 0.9410(5) 0.4172(4) 0.2847(3)
C30_2 C 0.9390(5) 0.4580(4) 0.3701(3)
C1_2 C 0.5983(6) 0.0831(4) 0.9260(3)
N4_2 N 0.4959(5) 0.3506(4) 0.8192(3)
C2_2 C 0.5222(5) 0.1530(4) 0.8978(3)
O9 O 0.6355(4) 0.4380(3) 0.5923(2)
C3_2 C 0.5814(6) 0.2694(4) 0.9219(3)
C4_2 C 0.7181(6) 0.3150(5) 0.9701(3)
C5_2 C 0.7941(6) 0.2435(5) 0.9962(3)
C6_2 C 0.7340(7) 0.1279(5) 0.9765(3)
C8_2 C 0.4915(6) 0.3455(5) 0.8992(3)
H3_2 H 0.3885 0.3188 0.9026
H4_2 H 0.5279 0.4222 0.9359
C10_2 C 0.3793(7) 0.1037(5) 0.8422(3)
H7_2 H 0.3378 0.1643 0.8315
H8_2 H 0.3953 0.0543 0.7945
H9_2 H 0.3112 0.0601 0.8643
C11_2 C 0.7832(9) 0.4393(6) 0.9955(4)
H12_2 H 0.8176 0.4605 0.9530
H15_2 H 0.8920 0.0356 0.9781
C19_2 C 0.3742(6) 0.3601(5) 0.7774(4)
H20_2 H 0.2861 0.3570 0.7967
C20_2 C 0.3767(7) 0.3744(6) 0.7071(4)
H21_2 H 0.2899 0.3795 0.6770
C21_2 C 0.5060(6) 0.3812(4) 0.6798(3)
C22_2 C 0.6304(6) 0.3705(5) 0.7243(3)
H22_2 H 0.7201 0.3741 0.7065
C23_2 C 0.6227(6) 0.3547(5) 0.7932(3)
H23_2 H 0.7072 0.3466 0.8234
C24_2 C 0.5121(6) 0.4036(4) 0.6042(3)
O7_2 O 0.7160(4) 0.6667(3) 0.6057(2)
N3_2 N 0.5419(6) 0.8937(4) 0.8259(3)
C7_2 C 0.5279(8) 0.9601(5) 0.9033(3)
H1_2 H 0.4226 0.9516 0.9052
H2_2 H 0.5725 0.9282 0.9414
C13_2 C 0.4224(7) 0.8331(5) 0.7726(4)
H16_2 H 0.3278 0.8375 0.7830
C14_2 C 0.4359(6) 0.7646(5) 0.7028(4)
H17_2 H 0.3510 0.7240 0.6647
C15_2 C 0.5726(6) 0.7554(4) 0.6886(3)
C16_2 C 0.6963(6) 0.8220(5) 0.7430(3)
H18_2 H 0.7917 0.8198 0.7329
C17_2 C 0.6784(7) 0.8907(5) 0.8112(3)
H19_2 H 0.7620 0.9364 0.8484
C18_2 C 0.5887(6) 0.6715(4) 0.6162(3)
O13_2 O 0.9090(5) 0.6857(4) 0.5069(3)
O14_2 O 0.7845(5) 0.3322(4) 0.4794(3)
H28_2 H 0.88311 0.33784 0.508655
H29_2 H 0.781119 0.298627 0.423851
H30_2 H 0.854335 0.743416 0.500706
H31_2 H 0.963922 0.667913 0.464809
H14 H 0.2500 0.0145 0.9937
H14_2 H 0.7500 0.9855 0.0063
loop_
_geom_bond_atom_site_label_1
_geom_bond_atom_site_label_2
_geom_bond_site_symmetry_1
_geom_bond_site_symmetry_2
N1 O1 1_555 1_555
O2 N1 1_555 1_555
O3 N1 1_555 1_555
N1_2 O1_2 1_555 1_555
O2_2 N1_2 1_555 1_555
O3_2 N1_2 1_555 1_555
N2 O4 1_555 1_555
O5 N2 1_555 1_555
O6 N2 1_555 1_555
N2_2 O4_2 1_555 1_555
O5_2 N2_2 1_555 1_555
O6_2 N2_2 1_555 1_555
Ho1 O7 1_555 1_555
O7 C18 1_555 1_555
N3 C7 1_555 1_555
O8 C18 1_555 1_555
H1 C7 1_555 1_555
H2 C7 1_555 1_555
C13 N3 1_555 1_555
H16 C13 1_555 1_555
C14 C13 1_555 1_555
H17 C14 1_555 1_555
C15 C14 1_555 1_555
C16 C15 1_555 1_555
H18 C16 1_555 1_555
C17 N3 1_555 1_555
H19 C17 1_555 1_555
C18 C15 1_555 1_555
O13 Ho1 1_555 1_555
O14 Ho1 1_555 1_555
Ho6 O8 1_555 1_555
O15 Ho1 1_555 1_555
O16 Ho1 1_555 1_555
O17 Ho1 1_555 1_555
O18 Ho1 1_555 1_555
O19 Ho1 1_555 1_555
C16 C17 1_555 1_555
O14 H28 1_555 1_555
O14 H29 1_555 1_555
O13 H30 1_555 1_555
O13 H31 1_555 1_555
C1 C2 1_555 1_555
N4 C8 1_555 1_555
C2 C3 1_555 1_555
O16 C24 1_555 1_555
C3 C4 1_555 1_555
O10 C24 1_555 1_555
C4 C5 1_555 1_555
C5 C6 1_555 1_555
C6 C1 1_555 1_555
C8 C3 1_555 1_555
H3 C8 1_555 1_555
H4 C8 1_555 1_555
C10 C2 1_555 1_555
H7 C10 1_555 1_555
H8 C10 1_555 1_555
H9 C10 1_555 1_555
C11 C4 1_555 1_555
H12 C11 1_555 1_555
C19 N4 1_555 1_555
H20 C19 1_555 1_555
C20 C19 1_555 1_555
H21 C20 1_555 1_555
C21 C20 1_555 1_555
C22 C21 1_555 1_555
H22 C22 1_555 1_555
C23 N4 1_555 1_555
H23 C23 1_555 1_555
C24 C21 1_555 1_555
Ho6 O10 1_555 1_555
C22 C23 1_555 1_555
N5 C9 1_555 1_555
O18 C30 1_555 1_555
H6 C9 1_555 1_555
H13 C12 1_555 1_555
C25 N5 1_555 1_555
H24 C25 1_555 1_555
C26 C25 1_555 1_555
H25 C26 1_555 1_555
C27 C26 1_555 1_555
C30 C27 1_555 1_555
H26 C28 1_555 1_555
H27 C29 1_555 1_555
Ho6 O12 1_555 1_555
C28 C29 1_555 1_555
H26_2 C28_2 1_555 1_555
H27_2 C29_2 1_555 1_555
C28_2 C29_2 1_555 1_555
N5_2 C9_2 1_555 1_555
O11 C30_2 1_555 1_555
H6_2 C9_2 1_555 1_555
H13_2 C12_2 1_555 1_555
C25_2 N5_2 1_555 1_555
H24_2 C25_2 1_555 1_555
C26_2 C25_2 1_555 1_555
H25_2 C26_2 1_555 1_555
C27_2 C26_2 1_555 1_555
C30_2 C27_2 1_555 1_555
Ho6 O11 1_555 1_555
C1_2 C2_2 1_555 1_555
N4_2 C8_2 1_555 1_555
C2_2 C3_2 1_555 1_555
O9 C24_2 1_555 1_555
C3_2 C4_2 1_555 1_555
O17 C24_2 1_555 1_555
C4_2 C5_2 1_555 1_555
C5_2 C6_2 1_555 1_555
C6_2 C1_2 1_555 1_555
C8_2 C3_2 1_555 1_555
H3_2 C8_2 1_555 1_555
H4_2 C8_2 1_555 1_555
C10_2 C2_2 1_555 1_555
H7_2 C10_2 1_555 1_555
H8_2 C10_2 1_555 1_555
H9_2 C10_2 1_555 1_555
C11_2 C4_2 1_555 1_555
H12_2 C11_2 1_555 1_555
C19_2 N4_2 1_555 1_555
H20_2 C19_2 1_555 1_555
C20_2 C19_2 1_555 1_555
H21_2 C20_2 1_555 1_555
C21_2 C20_2 1_555 1_555
C22_2 C21_2 1_555 1_555
H22_2 C22_2 1_555 1_555
C23_2 N4_2 1_555 1_555
H23_2 C23_2 1_555 1_555
C24_2 C21_2 1_555 1_555
Ho6 O9 1_555 1_555
C22_2 C23_2 1_555 1_555
Ho6 O7_2 1_555 1_555
O7_2 C18_2 1_555 1_555
N3_2 C7_2 1_555 1_555
O15 C18_2 1_555 1_555
H1_2 C7_2 1_555 1_555
H2_2 C7_2 1_555 1_555
C13_2 N3_2 1_555 1_555
H16_2 C13_2 1_555 1_555
C14_2 C13_2 1_555 1_555
H17_2 C14_2 1_555 1_555
C15_2 C14_2 1_555 1_555
C16_2 C15_2 1_555 1_555
H18_2 C16_2 1_555 1_555
C17_2 N3_2 1_555 1_555
H19_2 C17_2 1_555 1_555
C18_2 C15_2 1_555 1_555
O13_2 Ho6 1_555 1_555
O14_2 Ho6 1_555 1_555
C16_2 C17_2 1_555 1_555
O14_2 H28_2 1_555 1_555
O14_2 H29_2 1_555 1_555
O13_2 H30_2 1_555 1_555
O13_2 H31_2 1_555 1_555

#END
