
###############################################################################
#
# This file contains modified crystal structure data generated from the
# MOF subset of the Cambridge Structural Database (CSD) v543 
# hosted by the Cambridge Crystallographic Data Centre (CCDC).
#
# This work is licensed under the Creative Commons
# Attribution-NonCommercial-ShareAlike 4.0 International License.
# To view a copy of this license, visit
# http://creativecommons.org/licenses/by-nc-sa/4.0/
# or send a letter to
# Creative Commons, PO Box 1866, Mountain View, CA 94042, USA.
#
# CIF created using the CSD Python API on 29 September 2022
# The structure has been converted into the P1 space group
# The structure has a 3D framework
# The original CSD entry VUHJAK is in the hexagonal crystal system
# The original CSD entry VUHJAK is in a Sohncke space group
# The framework has been calculated to contain at least 10.0% void space
# The void calculation uses a probe of radius 1.32A, grid spacing 0.4
#
###############################################################################

data_VUHJAK
_chemical_formula_moiety         '(C84 H48 Cu22 O62 P12)n'
_symmetry_cell_setting           triclinic
_symmetry_space_group_name_H-M   'P 1'
_symmetry_Int_Tables_number      1
_space_group_name_Hall           'P 1'
loop_
_symmetry_equiv_pos_site_id
_symmetry_equiv_pos_as_xyz
1 x,y,z
_cell_length_a                   14.656(3)
_cell_length_b                   14.656(3)
_cell_length_c                   16.905(2)
_cell_angle_alpha                90
_cell_angle_beta                 90
_cell_angle_gamma                120
_cell_volume                     3144.68
loop_
_atom_site_label
_atom_site_type_symbol
_atom_site_fract_x
_atom_site_fract_y
_atom_site_fract_z
Cu2 Cu -0.00000 0.16385(7) 0.166667
Cu3 Cu 0.11674(6) 0.43944(8) 0.19164(4)
Cu7 Cu 0.32270(6) 0.43944(8) 0.30836(4)
Cu8 Cu 0.11674(6) 0.67730(6) 0.64169(4)
Cu11 Cu 0.16385(7) 0.16385(7) 0.333333
P2 P 0.08062(10) 0.31562(15) 0.33910(8)
O8 O 0.0465(3) 0.3018(4) 0.2508(2)
O9 O 0.1882(3) 0.4146(4) 0.3523(3)
O11 O 0.2264(3) 0.4146(4) 0.1477(3)
O12 O 0.0789(3) 0.2170(4) 0.3698(2)
O13 O 0.1381(3) 0.2170(4) 0.1302(2)
O15 O 0.0467(3) 0.5478(4) 0.5775(2)
O17 O 0.0467(3) 0.4989(3) 0.2558(2)
O20 O 0.1280(3) 0.5271(4) 0.1032(2)
O21 O 0.2903(4) 0.5805(9) 0.25000
O22 O 0.0338(6) 0.0676(8) 0.250000
C9 C 0.0046(4) 0.3971(5) 0.4582(3)
H5 H 0.0645(3) 0.4423(3) 0.4649(5)
O5 O 0.1280(3) 0.6009(3) 0.7301(2)
C1 C 0.0206(4) 0.3428(4) 0.9354(3)
C3 C 0.0749(4) 0.4700(4) 0.8291(3)
C4 C 0.1809(5) 0.4978(4) 0.8427(3)
C5 C 0.2052(5) 0.4506(5) 0.9027(4)
C6 C 0.1257(5) 0.3729(5) 0.9498(4)
C7 C 0.0500(4) 0.5276(4) 0.7661(3)
H2 H 0.226(4) 0.542(4) 0.821(3)
H3 H 0.264(5) 0.477(4) 0.923(4)
H4 H 0.141(5) 0.352(5) 0.989(4)
Cu1 Cu 0.88326(6) 0.32270(6) 0.14169(4)
Cu2_2 Cu 1.00000 0.16385(7) 0.166667
O1 O 0.9535(3) 0.2553(3) 0.0825(2)
O6 O 0.7097(4) 0.2902(8) 0.08333
O7 O 0.9662(6) 0.0338(6) 0.083333
Cu4 Cu 0.67730(6) 0.11674(6) 0.02498(4)
Cu9 Cu 0.88326(6) 0.56056(8) 0.69164(4)
Cu10 Cu 0.83615(7) 0.00000 0.000000
O10 O 0.7736(3) 0.1882(3) 0.1857(3)
O14 O 0.8619(3) 0.0789(3) 0.2032(2)
O16 O 0.9533(3) 0.4522(4) 0.0775(2)
O18 O 0.8720(3) 0.4729(4) 0.6032(2)
O19 O 0.8720(3) 0.3991(3) 0.2301(2)
C8 C 0.9794(4) 0.3222(6) 0.3979(3)
C10 C 0.9251(4) 0.3951(6) 0.5042(3)
C11 C 0.8191(5) 0.3169(6) 0.4906(3)
C12 C 0.7948(5) 0.2454(7) 0.4306(4)
C13 C 0.8743(5) 0.2472(7) 0.3835(4)
C14 C 0.9500(4) 0.4776(6) 0.5672(3)
H6 H 0.774(4) 0.316(6) 0.512(3)
H7 H 0.736(5) 0.213(6) 0.410(4)
H8 H 0.859(5) 0.211(7) 0.344(4)
P1 P 0.91938(10) 0.23500(11) 0.99423(8)
O2 O 0.8118(3) 0.2264(3) 0.9810(3)
O3 O 0.9211(3) 0.1381(3) 0.9635(2)
O4 O 0.9533(3) 0.5011(3) 0.7558(2)
C2 C 0.9954(4) 0.3925(3) 0.8751(3)
H1 H 0.9355(3) 0.3778 0.8684(5)
Cu10_2 Cu 0.83615(7) 0.00000 1.000000
Cu10_3 Cu 0.83615(7) 1.00000 0.000000
Cu10_4 Cu 0.83615(7) 1.00000 1.000000
Cu8_2 Cu 0.43944(8) 0.11674(6) 0.47502(4)
P2_2 P 0.76500(18) 0.08062(10) 0.17244(8)
O8_2 O 0.7447(5) 0.0465(3) 0.0842(2)
O15_2 O 0.4989(5) 0.0467(3) 0.4109(2)
O17_2 O 0.5478(4) 0.0467(3) 0.0891(2)
C9_2 C 0.6075(6) 0.0046(4) 0.2916(3)
H5_2 H 0.6222(4) 0.0645(3) 0.2983(5)
O5_2 O 0.5271(4) 0.1280(3) 0.5634(2)
C1_2 C 0.6778(6) 0.0206(4) 0.7687(3)
C3_2 C 0.6049(6) 0.0749(4) 0.6624(3)
C4_2 C 0.6831(6) 0.1809(5) 0.6760(3)
C5_2 C 0.7546(7) 0.2052(5) 0.7360(4)
C6_2 C 0.7528(7) 0.1257(5) 0.7831(4)
C7_2 C 0.5224(6) 0.0500(4) 0.5994(3)
H2_2 H 0.684(6) 0.226(4) 0.654(3)
H3_2 H 0.787(6) 0.264(5) 0.756(4)
H4_2 H 0.789(7) 0.141(5) 0.822(4)
O20_2 O 0.6009(5) 0.1280(3) 0.9366(2)
Cu9_2 Cu 0.32270(10) 0.88326(6) 0.52498(4)
O10_2 O 0.5854(4) 0.7736(3) 0.0190(3)
O14_2 O 0.7830(4) 0.8619(3) 0.0365(2)
O18_2 O 0.3991(5) 0.8720(3) 0.4366(2)
O19_2 O 0.4729(4) 0.8720(3) 0.0634(2)
C8_2 C 0.6572(7) 0.9794(4) 0.2313(3)
C10_2 C 0.5300(7) 0.9251(4) 0.3376(3)
C11_2 C 0.5022(8) 0.8191(5) 0.3240(3)
C12_2 C 0.5494(9) 0.7948(5) 0.2640(4)
C13_2 C 0.6271(9) 0.8743(5) 0.2169(4)
C14_2 C 0.4724(7) 0.9500(4) 0.4006(3)
H6_2 H 0.458(7) 0.774(4) 0.346(3)
H7_2 H 0.523(8) 0.736(5) 0.244(4)
H8_2 H 0.648(9) 0.859(5) 0.178(4)
Cu1_2 Cu 0.56056(8) 0.88326(6) 0.97502(4)
P1_2 P 0.68438(15) 0.91938(10) 0.82756(8)
O1_2 O 0.6982(4) 0.9535(3) 0.9158(2)
O2_2 O 0.5854(4) 0.8118(3) 0.8143(3)
O3_2 O 0.7830(4) 0.9211(3) 0.7968(2)
O4_2 O 0.4522(4) 0.9533(3) 0.5891(2)
O6_2 O 0.4195(9) 0.7097(4) 0.91666
O7_2 O 0.9324(8) 0.9662(6) 0.916666
C2_2 C 0.6029(5) 0.9954(4) 0.7084(3)
H1_2 H 0.5577(3) 0.9355(3) 0.7017(5)
Cu4_2 Cu 0.56056(8) 0.67730(6) 0.85831(4)
Cu10_5 Cu 0.83615(7) 0.83615(7) 0.833334
O16_2 O 0.5011(5) 0.9533(3) 0.9109(2)
Cu10_6 Cu 0.00000 0.83615(7) 0.666667
Cu9_3 Cu 0.43944(8) 0.32270(10) 0.35831(4)
P2_3 P 0.68438(15) 0.76500(18) 0.00577(8)
O15_3 O 0.4522(4) 0.4989(5) 0.2442(2)
O18_3 O 0.5271(4) 0.3991(5) 0.2699(2)
C8_3 C 0.6778(6) 0.6572(7) 0.0646(3)
C9_3 C 0.6029(5) 0.6075(6) 0.1249(3)
C10_3 C 0.6049(6) 0.5300(7) 0.1709(3)
C11_3 C 0.6831(6) 0.5022(8) 0.1573(3)
C12_3 C 0.7546(7) 0.5494(9) 0.0973(4)
C13_3 C 0.7528(7) 0.6271(9) 0.0502(4)
C14_3 C 0.5224(6) 0.4724(7) 0.2339(3)
H5_3 H 0.5577(3) 0.6222(4) 0.1316(5)
H6_3 H 0.684(6) 0.458(7) 0.179(3)
H7_3 H 0.787(6) 0.523(8) 0.077(4)
H8_3 H 0.789(7) 0.648(9) 0.011(4)
Cu1_3 Cu 0.67730(6) 0.56056(8) 0.80836(4)
P1_3 P 0.76500(11) 0.68438(15) 0.66090(8)
O1_3 O 0.7447(3) 0.6982(4) 0.7492(2)
O2_3 O 0.7736(3) 0.5854(4) 0.6477(3)
O3_3 O 0.8619(3) 0.7830(4) 0.6302(2)
O4_3 O 0.4989(3) 0.4522(4) 0.4225(2)
O5_3 O 0.3991(3) 0.5271(4) 0.3968(2)
O6_3 O 0.7098(8) 0.4195(9) 0.75000
O7_3 O 0.9662(6) 0.9324(8) 0.750000
C1_3 C 0.6572(4) 0.6778(6) 0.6021(3)
C2_3 C 0.6075(3) 0.6029(5) 0.5418(3)
C3_3 C 0.5300(4) 0.6049(6) 0.4958(3)
C4_3 C 0.5022(4) 0.6831(6) 0.5094(3)
C5_3 C 0.5494(5) 0.7546(7) 0.5694(4)
C6_3 C 0.6271(5) 0.7528(7) 0.6165(4)
C7_3 C 0.4724(4) 0.5224(6) 0.4328(3)
H1_3 H 0.6222 0.5577(3) 0.5351(5)
H2_3 H 0.458(4) 0.684(6) 0.488(3)
H3_3 H 0.523(4) 0.787(6) 0.590(4)
H4_3 H 0.648(5) 0.789(7) 0.656(4)
Cu10_7 Cu 1.00000 0.83615(7) 0.666667
O8_3 O 0.6982(4) 0.7447(5) 0.9175(2)
O10_3 O 0.8118(3) 0.5854(4) 0.8523(3)
O14_3 O 0.9211(3) 0.7830(4) 0.8698(2)
O16_3 O 0.5478(4) 0.5011(5) 0.7442(2)
O17_3 O 0.5011(3) 0.5478(4) 0.9225(2)
O19_3 O 0.6009(3) 0.4729(4) 0.8968(2)
O20_3 O 0.4729(4) 0.6009(5) 0.7699(2)
Cu10_8 Cu 0.16385(7) 0.00000 0.500000
C10_4 C 0.0749(4) 0.6049(6) 0.0042(3)
C14_4 C 0.0500(4) 0.5224(6) 0.0672(3)
H6_4 H 0.226(4) 0.684(6) 0.012(3)
P1_4 P 0.08062(10) 0.76500(11) 0.49423(8)
O1_4 O 0.0465(3) 0.7447(3) 0.5825(2)
O2_4 O 0.1882(3) 0.7736(3) 0.4810(3)
O3_4 O 0.0789(3) 0.8619(3) 0.4635(2)
O6_4 O 0.2903(4) 0.7098(8) 0.58333
O7_4 O 0.0338(6) 0.9662(6) 0.583333
C2_4 C 0.0046(4) 0.6075(3) 0.3751(3)
H1_4 H 0.0645(3) 0.6222 0.3684(5)
Cu10_9 Cu 0.16385(7) 1.00000 0.500000
O10_4 O 0.2264(3) 0.8118(3) 0.6857(3)
O14_4 O 0.1381(3) 0.9211(3) 0.7032(2)
C8_4 C 0.0206(4) 0.6778(6) 0.8979(3)
C11_4 C 0.1809(5) 0.6831(6) 0.9906(3)
C12_4 C 0.2052(5) 0.7546(7) 0.9306(4)
C13_4 C 0.1257(5) 0.7528(7) 0.8835(4)
H7_4 H 0.264(5) 0.787(6) 0.910(4)
H8_4 H 0.141(5) 0.789(7) 0.844(4)
C1_4 C 0.9794(4) 0.6572(4) 0.4354(3)
C3_4 C 0.9251(4) 0.5300(4) 0.3291(3)
C4_4 C 0.8191(5) 0.5022(4) 0.3427(3)
C5_4 C 0.7948(5) 0.5494(5) 0.4027(4)
C6_4 C 0.8743(5) 0.6271(5) 0.4498(4)
C7_4 C 0.9500(4) 0.4724(4) 0.2661(3)
H2_4 H 0.774(4) 0.458(4) 0.321(3)
H3_4 H 0.736(5) 0.523(4) 0.423(4)
H4_4 H 0.859(5) 0.648(5) 0.489(4)
P2_4 P 0.91938(10) 0.68438(15) 0.83910(8)
O8_4 O 0.9535(3) 0.6982(4) 0.7508(2)
C9_4 C 0.9954(4) 0.6029(5) 0.9582(3)
H5_4 H 0.9355(3) 0.5577(3) 0.9649(5)
P1_5 P 0.31562(15) 0.08062(10) 0.32756(8)
O1_5 O 0.3018(4) 0.0465(3) 0.4158(2)
O2_5 O 0.4146(4) 0.1882(3) 0.3143(3)
O3_5 O 0.2170(4) 0.0789(3) 0.2968(2)
O6_5 O 0.5805(9) 0.2903(4) 0.41666
O7_5 O 0.0676(8) 0.0338(6) 0.416666
C2_5 C 0.3971(5) 0.0046(4) 0.2084(3)
H1_5 H 0.4423(3) 0.0645(3) 0.2017(5)
O10_5 O 0.4146(4) 0.2264(3) 0.5190(3)
O14_5 O 0.2170(4) 0.1381(3) 0.5365(2)
C8_5 C 0.3428(7) 0.0206(4) 0.7313(3)
C10_5 C 0.4700(7) 0.0749(4) 0.8376(3)
C11_5 C 0.4978(8) 0.1809(5) 0.8240(3)
C12_5 C 0.4506(9) 0.2052(5) 0.7640(4)
C13_5 C 0.3729(9) 0.1257(5) 0.7169(4)
C14_5 C 0.5276(7) 0.0500(4) 0.9006(3)
H6_5 H 0.542(7) 0.226(4) 0.846(3)
H7_5 H 0.477(8) 0.264(5) 0.744(4)
H8_5 H 0.352(9) 0.141(5) 0.678(4)
C1_5 C 0.3222(6) 0.9794(4) 0.2687(3)
C3_5 C 0.3951(6) 0.9251(4) 0.1624(3)
C4_5 C 0.3169(6) 0.8191(5) 0.1760(3)
C5_5 C 0.2454(7) 0.7948(5) 0.2360(4)
C6_5 C 0.2472(7) 0.8743(5) 0.2831(4)
C7_5 C 0.4776(6) 0.9500(4) 0.0994(3)
H2_5 H 0.316(6) 0.774(4) 0.154(3)
H3_5 H 0.213(6) 0.736(5) 0.256(4)
H4_5 H 0.211(7) 0.859(5) 0.322(4)
P2_5 P 0.23500(18) 0.91938(10) 0.67244(8)
O8_5 O 0.2553(5) 0.9535(3) 0.5842(2)
C9_5 C 0.3925(6) 0.9954(4) 0.7916(3)
H5_5 H 0.3778(4) 0.9355(3) 0.7983(5)
P1_6 P 0.23500(11) 0.31562(15) 0.16090(8)
O1_6 O 0.2553(3) 0.3018(4) 0.2492(2)
C1_6 C 0.3428(4) 0.3222(6) 0.1021(3)
C2_6 C 0.3925(3) 0.3971(5) 0.0418(3)
C4_6 C 0.4978(4) 0.3169(6) 0.0094(3)
C5_6 C 0.4506(5) 0.2454(7) 0.0694(4)
C6_6 C 0.3729(5) 0.2472(7) 0.1165(4)
H1_6 H 0.3778 0.4423(3) 0.0351(5)
H3_6 H 0.477(4) 0.213(6) 0.090(4)
H4_6 H 0.352(5) 0.211(7) 0.156(4)
P2_6 P 0.31562(15) 0.23500(18) 0.50577(8)
O8_6 O 0.3018(4) 0.2553(5) 0.4175(2)
C8_6 C 0.3222(6) 0.3428(7) 0.5646(3)
C9_6 C 0.3971(5) 0.3925(6) 0.6249(3)
C10_6 C 0.3951(6) 0.4700(7) 0.6709(3)
C11_6 C 0.3169(6) 0.4978(8) 0.6573(3)
C12_6 C 0.2454(7) 0.4506(9) 0.5973(4)
C13_6 C 0.2472(7) 0.3729(9) 0.5502(4)
C14_6 C 0.4776(6) 0.5276(7) 0.7339(3)
H5_6 H 0.4423(3) 0.3778(4) 0.6316(5)
H6_6 H 0.316(6) 0.542(7) 0.679(3)
H7_6 H 0.213(6) 0.477(8) 0.577(4)
H8_6 H 0.211(7) 0.352(9) 0.511(4)
C3_6 C 0.4700(4) 0.3951(6) 0.9958(3)
C7_6 C 0.5276(4) 0.4776(6) 0.9328(3)
H2_6 H 0.542(4) 0.316(6) 0.988(3)
loop_
_geom_bond_atom_site_label_1
_geom_bond_atom_site_label_2
_geom_bond_site_symmetry_1
_geom_bond_site_symmetry_2
Cu3 O8 1_555 1_555
Cu7 O9 1_555 1_555
Cu8 O15 1_555 1_555
Cu11 O12 1_555 1_555
P2 O8 1_555 1_555
O8 Cu2 1_555 1_555
O9 P2 1_555 1_555
O11 Cu3 1_555 1_555
O12 P2 1_555 1_555
O13 Cu2 1_555 1_555
O17 Cu3 1_555 1_555
O20 Cu3 1_555 1_555
O21 Cu3 1_555 1_555
O22 Cu2 1_555 1_555
H5 C9 1_555 1_555
Cu7 O21 1_555 1_555
Cu11 O22 1_555 1_555
O5 C7 1_555 1_555
C4 C3 1_555 1_555
C5 C4 1_555 1_555
C6 C1 1_555 1_555
C7 C3 1_555 1_555
H2 C4 1_555 1_555
H3 C5 1_555 1_555
H4 C6 1_555 1_555
Cu8 O5 1_555 1_555
C5 C6 1_555 1_555
Cu1 O1 1_555 1_555
Cu2_2 O1 1_555 1_555
O6 Cu1 1_555 1_555
O7 Cu2_2 1_555 1_555
Cu9 O18 1_555 1_555
O10 Cu1 1_555 1_555
O14 Cu2_2 1_555 1_555
O16 Cu1 1_555 1_555
O18 C14 1_555 1_555
O19 Cu1 1_555 1_555
C11 C10 1_555 1_555
C12 C11 1_555 1_555
C13 C8 1_555 1_555
C14 C10 1_555 1_555
H6 C11 1_555 1_555
H7 C12 1_555 1_555
H8 C13 1_555 1_555
O6 Cu4 1_555 1_555
O7 Cu10 1_555 1_555
C12 C13 1_555 1_555
O2 P1 1_555 1_555
O3 P1 1_555 1_555
H1 C2 1_555 1_555
Cu9 O4 1_555 1_555
Cu10_2 O3 1_555 1_555
Cu4 O8_2 1_555 1_555
Cu8_2 O15_2 1_555 1_555
P2_2 O8_2 1_555 1_555
O8_2 Cu10 1_555 1_555
O10 P2_2 1_555 1_555
O14 P2_2 1_555 1_555
O17_2 Cu4 1_555 1_555
H5_2 C9_2 1_555 1_555
O5_2 C7_2 1_555 1_555
C4_2 C3_2 1_555 1_555
C5_2 C4_2 1_555 1_555
C6_2 C1_2 1_555 1_555
C7_2 C3_2 1_555 1_555
H2_2 C4_2 1_555 1_555
H3_2 C5_2 1_555 1_555
H4_2 C6_2 1_555 1_555
Cu8_2 O5_2 1_555 1_555
C5_2 C6_2 1_555 1_555
Cu9_2 O18_2 1_555 1_555
O14_2 Cu10_3 1_555 1_555
O18_2 C14_2 1_555 1_555
C11_2 C10_2 1_555 1_555
C12_2 C11_2 1_555 1_555
C13_2 C8_2 1_555 1_555
C14_2 C10_2 1_555 1_555
H6_2 C11_2 1_555 1_555
H7_2 C12_2 1_555 1_555
H8_2 C13_2 1_555 1_555
C12_2 C13_2 1_555 1_555
Cu1_2 O1_2 1_555 1_555
Cu10_4 O1_2 1_555 1_555
P1_2 O1_2 1_555 1_555
O2_2 P1_2 1_555 1_555
O3_2 P1_2 1_555 1_555
O6_2 Cu1_2 1_555 1_555
O7_2 Cu10_4 1_555 1_555
H1_2 C2_2 1_555 1_555
Cu4_2 O2_2 1_555 1_555
Cu9_2 O4_2 1_555 1_555
Cu10_5 O3_2 1_555 1_555
O16_2 Cu1_2 1_555 1_555
O6_2 Cu4_2 1_555 1_555
O7_2 Cu10_5 1_555 1_555
Cu7 O15_3 1_555 1_555
Cu9_3 O18_3 1_555 1_555
O10_2 P2_3 1_555 1_555
O14_2 P2_3 1_555 1_555
O15_3 C14_3 1_555 1_555
O18_3 C14_3 1_555 1_555
C8_3 P2_3 1_555 1_555
C9_3 C8_3 1_555 1_555
C10_3 C9_3 1_555 1_555
C11_3 C10_3 1_555 1_555
C12_3 C11_3 1_555 1_555
C13_3 C8_3 1_555 1_555
C14_3 C10_3 1_555 1_555
H5_3 C9_3 1_555 1_555
H6_3 C11_3 1_555 1_555
H7_3 C12_3 1_555 1_555
H8_3 C13_3 1_555 1_555
C12_3 C13_3 1_555 1_555
Cu1_3 O1_3 1_555 1_555
Cu10_5 O1_3 1_555 1_555
P1_3 O1_3 1_555 1_555
O2_3 P1_3 1_555 1_555
O3_3 P1_3 1_555 1_555
O4_3 C7_3 1_555 1_555
O5_3 C7_3 1_555 1_555
O6_3 Cu1_3 1_555 1_555
O7_3 Cu10_5 1_555 1_555
C1_3 P1_3 1_555 1_555
C2_3 C1_3 1_555 1_555
C3_3 C2_3 1_555 1_555
C4_3 C3_3 1_555 1_555
C5_3 C4_3 1_555 1_555
C6_3 C1_3 1_555 1_555
C7_3 C3_3 1_555 1_555
H1_3 C2_3 1_555 1_555
H2_3 C4_3 1_555 1_555
H3_3 C5_3 1_555 1_555
H4_3 C6_3 1_555 1_555
Cu4_2 O8_3 1_555 1_555
Cu9 O2_3 1_555 1_555
Cu9_3 O4_3 1_555 1_555
Cu7 O5_3 1_555 1_555
Cu10_7 O3_3 1_555 1_555
O8_3 Cu10_5 1_555 1_555
O10_3 Cu1_3 1_555 1_555
O14_3 Cu10_5 1_555 1_555
O16_3 Cu1_3 1_555 1_555
O17_3 Cu4_2 1_555 1_555
O19_3 Cu1_3 1_555 1_555
O20_3 Cu4_2 1_555 1_555
O6_3 Cu9 1_555 1_555
O7_3 Cu10_7 1_555 1_555
C5_3 C6_3 1_555 1_555
O20 C14_4 1_555 1_555
C14_4 C10_4 1_555 1_555
Cu8 O1_4 1_555 1_555
Cu10_6 O1_4 1_555 1_555
P1_4 O1_4 1_555 1_555
O2_4 P1_4 1_555 1_555
O3_4 P1_4 1_555 1_555
O6_4 Cu8 1_555 1_555
O7_4 Cu10_6 1_555 1_555
H1_4 C2_4 1_555 1_555
Cu9_2 O2_4 1_555 1_555
Cu10_9 O3_4 1_555 1_555
O10_4 Cu8 1_555 1_555
O14_4 Cu10_6 1_555 1_555
C12_4 C11_4 1_555 1_555
C13_4 C8_4 1_555 1_555
H7_4 C12_4 1_555 1_555
H8_4 C13_4 1_555 1_555
O6_4 Cu9_2 1_555 1_555
O7_4 Cu10_9 1_555 1_555
C12_4 C13_4 1_555 1_555
O19 C7_4 1_555 1_555
C4_4 C3_4 1_555 1_555
C5_4 C4_4 1_555 1_555
C6_4 C1_4 1_555 1_555
C7_4 C3_4 1_555 1_555
H2_4 C4_4 1_555 1_555
H3_4 C5_4 1_555 1_555
H4_4 C6_4 1_555 1_555
Cu9 O8_4 1_555 1_555
P2_4 O8_4 1_555 1_555
O8_4 Cu10_7 1_555 1_555
O10_3 P2_4 1_555 1_555
O14_3 P2_4 1_555 1_555
H5_4 C9_4 1_555 1_555
C5_4 C6_4 1_555 1_555
Cu8_2 O1_5 1_555 1_555
Cu10_8 O1_5 1_555 1_555
P1_5 O1_5 1_555 1_555
O2_5 P1_5 1_555 1_555
O3_5 P1_5 1_555 1_555
O6_5 Cu8_2 1_555 1_555
O7_5 Cu10_8 1_555 1_555
H1_5 C2_5 1_555 1_555
Cu9_3 O2_5 1_555 1_555
Cu11 O3_5 1_555 1_555
O10_5 Cu8_2 1_555 1_555
O14_5 Cu10_8 1_555 1_555
O20_2 C14_5 1_555 1_555
C11_5 C10_5 1_555 1_555
C12_5 C11_5 1_555 1_555
C13_5 C8_5 1_555 1_555
C14_5 C10_5 1_555 1_555
H6_5 C11_5 1_555 1_555
H7_5 C12_5 1_555 1_555
H8_5 C13_5 1_555 1_555
O6_5 Cu9_3 1_555 1_555
O7_5 Cu11 1_555 1_555
C12_5 C13_5 1_555 1_555
O19_2 C7_5 1_555 1_555
C4_5 C3_5 1_555 1_555
C5_5 C4_5 1_555 1_555
C6_5 C1_5 1_555 1_555
C7_5 C3_5 1_555 1_555
H2_5 C4_5 1_555 1_555
H3_5 C5_5 1_555 1_555
H4_5 C6_5 1_555 1_555
Cu9_2 O8_5 1_555 1_555
P2_5 O8_5 1_555 1_555
O8_5 Cu10_9 1_555 1_555
O10_4 P2_5 1_555 1_555
O14_4 P2_5 1_555 1_555
H5_5 C9_5 1_555 1_555
C5_5 C6_5 1_555 1_555
Cu7 O1_6 1_555 1_555
Cu11 O1_6 1_555 1_555
P1_6 O1_6 1_555 1_555
O11 P1_6 1_555 1_555
O13 P1_6 1_555 1_555
C1_6 P1_6 1_555 1_555
C2_6 C1_6 1_555 1_555
C5_6 C4_6 1_555 1_555
C6_6 C1_6 1_555 1_555
H1_6 C2_6 1_555 1_555
H3_6 C5_6 1_555 1_555
H4_6 C6_6 1_555 1_555
Cu9_3 O8_6 1_555 1_555
P2_6 O8_6 1_555 1_555
O8_6 Cu11 1_555 1_555
O10_5 P2_6 1_555 1_555
O14_5 P2_6 1_555 1_555
O16_3 C14_6 1_555 1_555
O20_3 C14_6 1_555 1_555
C8_6 P2_6 1_555 1_555
C9_6 C8_6 1_555 1_555
C10_6 C9_6 1_555 1_555
C11_6 C10_6 1_555 1_555
C12_6 C11_6 1_555 1_555
C13_6 C8_6 1_555 1_555
C14_6 C10_6 1_555 1_555
H5_6 C9_6 1_555 1_555
H6_6 C11_6 1_555 1_555
H7_6 C12_6 1_555 1_555
H8_6 C13_6 1_555 1_555
C5_6 C6_6 1_555 1_555
C12_6 C13_6 1_555 1_555
O17_3 C7_6 1_555 1_555
O19_3 C7_6 1_555 1_555
C7_6 C3_6 1_555 1_555

#END
