
###############################################################################
#
# This file contains modified crystal structure data generated from the
# MOF subset of the Cambridge Structural Database (CSD) v543 
# hosted by the Cambridge Crystallographic Data Centre (CCDC).
#
# This work is licensed under the Creative Commons
# Attribution-NonCommercial-ShareAlike 4.0 International License.
# To view a copy of this license, visit
# http://creativecommons.org/licenses/by-nc-sa/4.0/
# or send a letter to
# Creative Commons, PO Box 1866, Mountain View, CA 94042, USA.
#
# CIF created using the CSD Python API on 29 September 2022
# The structure has been converted into the P1 space group
# The structure has a 3D framework
# The original CSD entry VUHNET is in the monoclinic crystal system
# The framework has been calculated to contain at least 10.0% void space
# The void calculation uses a probe of radius 1.32A, grid spacing 0.4
#
###############################################################################

data_VUHNET
_chemical_formula_moiety         '(C288 H192 I48 N92 Zn24)n'
_symmetry_cell_setting           triclinic
_symmetry_space_group_name_H-M   'P 1'
_symmetry_Int_Tables_number      1
_space_group_name_Hall           'P 1'
loop_
_symmetry_equiv_pos_site_id
_symmetry_equiv_pos_as_xyz
1 x,y,z
_cell_length_a                   34.307(7)
_cell_length_b                   14.392(3)
_cell_length_c                   34.931(7)
_cell_angle_alpha                90
_cell_angle_beta                 106.22(3)
_cell_angle_gamma                90
_cell_volume                     16560.6
loop_
_atom_site_label
_atom_site_type_symbol
_atom_site_fract_x
_atom_site_fract_y
_atom_site_fract_z
Zn1 Zn 0.14103(3) 0.61617(7) 0.07496(3)
I1 I 0.08110(2) 0.71761(5) 0.07318(2)
I2 I 0.20740(2) 0.67616(5) 0.06510(2)
N1 N 0.1574(2) 0.5497(5) 0.1298(2)
C1 C 0.1723(3) 0.5977(6) 0.1636(3)
H1 H 0.1729 0.6636 0.1626
C2 C 0.1868(3) 0.5539(6) 0.1999(2)
H2 H 0.1986 0.5897 0.2231
C3 C 0.1844(3) 0.4583(6) 0.2029(3)
C4 C 0.1674(3) 0.4084(6) 0.1676(3)
H3 H 0.1650 0.3427 0.1681
C5 C 0.1545(3) 0.4563(6) 0.1327(3)
H4 H 0.1427 0.4221 0.1090
C6 C 0.2050(3) 0.0178(6) 0.2997(3)
C7 C 0.2155(3) 0.1094(6) 0.3041(2)
H6 H 0.2358 0.1307 0.3268
C8 C 0.1952(3) 0.1718(6) 0.2738(2)
C9 C 0.1657(3) 0.1373(6) 0.2416(3)
H7 H 0.1519 0.1779 0.2208
C10 C 0.1563(3) 0.0439(7) 0.2396(3)
H8 H 0.1354 0.0212 0.2176
N3 N 0.3396(2) 0.5230(5) 0.3935(2)
C11 C 0.3300(3) 0.4324(6) 0.3956(3)
H9 H 0.3446 0.3974 0.4180
C12 C 0.3001(3) 0.3883(6) 0.3666(3)
H10 H 0.2945 0.3244 0.3694
C13 C 0.2783(3) 0.4372(6) 0.3338(2)
C14 C 0.2876(3) 0.5312(7) 0.3308(3)
H11 H 0.2737 0.5670 0.3083
C15 C 0.3179(3) 0.5707(7) 0.3618(3)
H12 H 0.3235 0.6350 0.3603
C16 C 0.2011(3) 0.4070(6) 0.2403(2)
N4 N 0.1880(2) 0.3200(5) 0.2423(2)
C17 C 0.2071(3) 0.2729(6) 0.2742(3)
N5 N 0.2365(2) 0.3039(5) 0.3055(2)
C18 C 0.2462(3) 0.3944(6) 0.3011(2)
N6 N 0.2300(2) 0.4482(5) 0.2690(2)
Zn5 Zn 0.38447(3) 0.58701(7) 0.43744(3)
N14 N 0.1205(2) 0.5074(5) 0.0360(2)
Zn2 Zn 0.66182(3) 0.34280(7) 0.26128(3)
I3 I 0.72696(2) 0.25118(5) 0.28872(2)
I4 I 0.61660(2) 0.31707(5) 0.19128(2)
I5 I 0.36412(2) 0.57452(5) 0.50127(2)
I6 I 0.40123(2) 0.73623(5) 0.40662(2)
C3_2 C 0.6844(3) 0.9583(6) 0.2029(3)
C4_2 C 0.6674(3) 0.9084(6) 0.1676(3)
H3_2 H 0.6650 0.8427 0.1681
C5_2 C 0.6545(3) 0.9563(6) 0.1327(3)
H4_2 H 0.6427 0.9221 0.1090
N2 N 0.6763(2) 0.4837(5) 0.2684(2)
C6_2 C 0.7050(3) 0.5178(6) 0.2997(3)
H5 H 0.7189 0.4757 0.3198
C7_2 C 0.7155(3) 0.6094(6) 0.3041(2)
H6_2 H 0.7358 0.6307 0.3268
C8_2 C 0.6952(3) 0.6718(6) 0.2738(2)
C9_2 C 0.6657(3) 0.6373(6) 0.2416(3)
H7_2 H 0.6519 0.6779 0.2208
C10_2 C 0.6563(3) 0.5439(7) 0.2396(3)
H8_2 H 0.6354 0.5212 0.2176
C11_2 C 0.8300(3) 0.9324(6) 0.3956(3)
H9_2 H 0.8446 0.8974 0.4180
C12_2 C 0.8001(3) 0.8883(6) 0.3666(3)
H10_2 H 0.7945 0.8244 0.3694
C13_2 C 0.7783(3) 0.9372(6) 0.3338(2)
C16_2 C 0.7011(3) 0.9070(6) 0.2403(2)
N4_2 N 0.6880(2) 0.8200(5) 0.2423(2)
C17_2 C 0.7071(3) 0.7729(6) 0.2742(3)
N5_2 N 0.7365(2) 0.8039(5) 0.3055(2)
C18_2 C 0.7462(3) 0.8944(6) 0.3011(2)
N6_2 N 0.7300(2) 0.9482(5) 0.2690(2)
N7 N 0.6319(2) 0.3242(5) 0.3041(2)
C19 C 0.6099(3) 0.3923(6) 0.3138(3)
H13 H 0.6065 0.4484 0.2989
C20 C 0.5917(3) 0.3852(6) 0.3445(3)
H14 H 0.5767 0.4356 0.3509
C21 C 0.5958(3) 0.3036(6) 0.3654(3)
C22 C 0.6171(3) 0.2300(7) 0.3546(3)
H15 H 0.6198 0.1722 0.3682
C23 C 0.6339(4) 0.2437(7) 0.3235(3)
H16 H 0.6477 0.1933 0.3155
N8 N 0.4331(2) 0.5029(5) 0.4381(2)
C24 C 0.4527(3) 0.4513(7) 0.4693(3)
H17 H 0.4438 0.4529 0.4927
C25 C 0.4856(3) 0.3954(6) 0.4689(2)
H18 H 0.4988 0.3591 0.4915
C26 C 0.4986(3) 0.3935(6) 0.4355(2)
C27 C 0.4783(3) 0.4475(7) 0.4023(3)
H19 H 0.4866 0.4472 0.3785
C28 C 0.4463(3) 0.5001(7) 0.4056(3)
H20 H 0.4327 0.5372 0.3835
C29 C 0.5832(3) 0.0256(7) 0.5306(3)
C30 C 0.5680(3) 0.1009(7) 0.5056(3)
H22 H 0.5417 0.1250 0.5036
C31 C 0.5915(3) 0.1391(6) 0.4840(2)
C32 C 0.6315(3) 0.1041(7) 0.4892(3)
H23 H 0.6487 0.1299 0.4749
C33 C 0.6448(3) 0.0313(7) 0.5158(3)
H24 H 0.6715 0.0082 0.5199
C34 C 0.5788(3) 0.2917(6) 0.4000(3)
N10 N 0.5490(2) 0.3496(5) 0.4020(2)
C35 C 0.5335(3) 0.3331(6) 0.4324(3)
N11 N 0.5454(2) 0.2658(5) 0.4597(2)
C36 C 0.5762(3) 0.2158(6) 0.4547(2)
N12 N 0.5940(2) 0.2249(5) 0.4258(2)
C29_2 C 0.0832(3) 0.4744(7) 0.0306(3)
H21 H 0.0661 0.5032 0.0444
C30_2 C 0.0680(3) 0.3991(7) 0.0056(3)
H22_2 H 0.0417 0.3750 0.0036
C33_2 C 0.1448(3) 0.4687(7) 0.0158(3)
H24_2 H 0.1715 0.4918 0.0199
Zn2_2 Zn 0.16182(3) 0.84280(7) 0.26128(3)
I3_2 I 0.22696(2) 0.75118(5) 0.28872(2)
I4_2 I 0.11660(2) 0.81707(5) 0.19128(2)
N2_2 N 0.1763(2) 0.9837(5) 0.2684(2)
H5_2 H 0.2189 0.9757 0.3198
N7_2 N 0.1319(2) 0.8242(5) 0.3041(2)
C19_2 C 0.1099(3) 0.8923(6) 0.3138(3)
H13_2 H 0.1065 0.9484 0.2989
C20_2 C 0.0917(3) 0.8852(6) 0.3445(3)
H14_2 H 0.0767 0.9356 0.3509
C21_2 C 0.0958(3) 0.8036(6) 0.3654(3)
C22_2 C 0.1171(3) 0.7300(7) 0.3546(3)
H15_2 H 0.1198 0.6722 0.3682
C23_2 C 0.1339(4) 0.7437(7) 0.3235(3)
H16_2 H 0.1477 0.6933 0.3155
N9 N 0.1205(2) 0.4926(5) 0.5360(2)
C29_3 C 0.0832(3) 0.5256(7) 0.5306(3)
H21_2 H 0.0661 0.4968 0.5444
C30_3 C 0.0680(3) 0.6009(7) 0.5056(3)
H22_3 H 0.0417 0.6250 0.5036
C31_2 C 0.0915(3) 0.6391(6) 0.4840(2)
C32_2 C 0.1315(3) 0.6041(7) 0.4892(3)
H23_2 H 0.1487 0.6299 0.4749
C33_3 C 0.1448(3) 0.5313(7) 0.5158(3)
H24_3 H 0.1715 0.5082 0.5199
C34_2 C 0.0788(3) 0.7917(6) 0.4000(3)
N10_2 N 0.0490(2) 0.8496(5) 0.4020(2)
C35_2 C 0.0335(3) 0.8331(6) 0.4324(3)
N11_2 N 0.0454(2) 0.7658(5) 0.4597(2)
C36_2 C 0.0762(3) 0.7158(6) 0.4547(2)
N12_2 N 0.0940(2) 0.7249(5) 0.4258(2)
Zn4 Zn 0.14103(3) 0.38383(7) 0.57496(3)
I1_2 I 0.08110(2) 0.28239(5) 0.57318(2)
I2_2 I 0.20740(2) 0.32384(5) 0.56510(2)
N1_2 N 0.1574(2) 0.4503(5) 0.6298(2)
C1_2 C 0.1723(3) 0.4023(6) 0.6636(3)
H1_2 H 0.1729 0.3364 0.6626
C2_2 C 0.1868(3) 0.4461(6) 0.6999(2)
H2_2 H 0.1986 0.4103 0.7231
C3_3 C 0.1844(3) 0.5417(6) 0.7029(3)
C4_3 C 0.1674(3) 0.5916(6) 0.6676(3)
H3_3 H 0.1650 0.6573 0.6681
C5_3 C 0.1545(3) 0.5437(6) 0.6327(3)
H4_3 H 0.1427 0.5779 0.6090
C6_3 C 0.2050(3) 0.9822(6) 0.7997(3)
C7_3 C 0.2155(3) 0.8906(6) 0.8041(2)
H6_3 H 0.2358 0.8693 0.8268
C8_3 C 0.1952(3) 0.8282(6) 0.7738(2)
C9_3 C 0.1657(3) 0.8627(6) 0.7416(3)
H7_3 H 0.1519 0.8221 0.7208
C10_3 C 0.1563(3) 0.9561(7) 0.7396(3)
H8_3 H 0.1354 0.9788 0.7176
N3_2 N 0.3396(2) 0.4770(5) 0.8935(2)
C11_3 C 0.3300(3) 0.5676(6) 0.8956(3)
H9_3 H 0.3446 0.6026 0.9180
C12_3 C 0.3001(3) 0.6117(6) 0.8666(3)
H10_3 H 0.2945 0.6756 0.8694
C13_3 C 0.2783(3) 0.5628(6) 0.8338(2)
C14_2 C 0.2876(3) 0.4688(7) 0.8308(3)
H11_2 H 0.2737 0.4330 0.8083
C15_2 C 0.3179(3) 0.4293(7) 0.8618(3)
H12_2 H 0.3235 0.3650 0.8603
C16_3 C 0.2011(3) 0.5930(6) 0.7403(2)
N4_3 N 0.1880(2) 0.6800(5) 0.7423(2)
C17_3 C 0.2071(3) 0.7271(6) 0.7742(3)
N5_3 N 0.2365(2) 0.6961(5) 0.8055(2)
C18_3 C 0.2462(3) 0.6056(6) 0.8011(2)
N6_3 N 0.2300(2) 0.5518(5) 0.7690(2)
Zn5_2 Zn 0.38447(3) 0.41299(7) 0.93744(3)
Zn2_3 Zn 0.66182(3) 0.65720(7) 0.76128(3)
I3_3 I 0.72696(2) 0.74882(5) 0.78872(2)
I4_3 I 0.61660(2) 0.68293(5) 0.69128(2)
I6_2 I 0.40123(2) 0.26377(5) 0.90662(2)
C3_4 C 0.6844(3) 0.0417(6) 0.7029(3)
C4_4 C 0.6674(3) 0.0916(6) 0.6676(3)
H3_4 H 0.6650 0.1573 0.6681
C5_4 C 0.6545(3) 0.0437(6) 0.6327(3)
H4_4 H 0.6427 0.0779 0.6090
N2_3 N 0.6763(2) 0.5163(5) 0.7684(2)
C6_4 C 0.7050(3) 0.4822(6) 0.7997(3)
H5_3 H 0.7189 0.5243 0.8198
C7_4 C 0.7155(3) 0.3906(6) 0.8041(2)
H6_4 H 0.7358 0.3693 0.8268
C8_4 C 0.6952(3) 0.3282(6) 0.7738(2)
C9_4 C 0.6657(3) 0.3627(6) 0.7416(3)
H7_4 H 0.6519 0.3221 0.7208
C10_4 C 0.6563(3) 0.4561(7) 0.7396(3)
H8_4 H 0.6354 0.4788 0.7176
C11_4 C 0.8300(3) 0.0676(6) 0.8956(3)
H9_4 H 0.8446 0.1026 0.9180
C12_4 C 0.8001(3) 0.1117(6) 0.8666(3)
H10_4 H 0.7945 0.1756 0.8694
C13_4 C 0.7783(3) 0.0628(6) 0.8338(2)
C16_4 C 0.7011(3) 0.0930(6) 0.7403(2)
N4_4 N 0.6880(2) 0.1800(5) 0.7423(2)
C17_4 C 0.7071(3) 0.2271(6) 0.7742(3)
N5_4 N 0.7365(2) 0.1961(5) 0.8055(2)
C18_4 C 0.7462(3) 0.1056(6) 0.8011(2)
N6_4 N 0.7300(2) 0.0518(5) 0.7690(2)
N7_3 N 0.6319(2) 0.6758(5) 0.8041(2)
C19_3 C 0.6099(3) 0.6077(6) 0.8138(3)
H13_3 H 0.6065 0.5516 0.7989
C20_3 C 0.5917(3) 0.6148(6) 0.8445(3)
H14_3 H 0.5767 0.5644 0.8509
C21_3 C 0.5958(3) 0.6964(6) 0.8654(3)
C22_3 C 0.6171(3) 0.7700(7) 0.8546(3)
H15_3 H 0.6198 0.8278 0.8682
C23_3 C 0.6339(4) 0.7563(7) 0.8235(3)
H16_3 H 0.6477 0.8067 0.8155
N8_2 N 0.4331(2) 0.4971(5) 0.9381(2)
C24_2 C 0.4527(3) 0.5487(7) 0.9693(3)
H17_2 H 0.4438 0.5471 0.9927
C25_2 C 0.4856(3) 0.6046(6) 0.9689(2)
H18_2 H 0.4988 0.6409 0.9915
C26_2 C 0.4986(3) 0.6065(6) 0.9355(2)
C27_2 C 0.4783(3) 0.5525(7) 0.9023(3)
H19_2 H 0.4866 0.5528 0.8785
C28_2 C 0.4463(3) 0.4999(7) 0.9056(3)
H20_2 H 0.4327 0.4628 0.8835
C31_3 C 0.5915(3) 0.8609(6) 0.9840(2)
C32_3 C 0.6315(3) 0.8959(7) 0.9892(3)
H23_3 H 0.6487 0.8701 0.9749
C34_3 C 0.5788(3) 0.7083(6) 0.9000(3)
N10_3 N 0.5490(2) 0.6504(5) 0.9020(2)
C35_3 C 0.5335(3) 0.6669(6) 0.9324(3)
N11_3 N 0.5454(2) 0.7342(5) 0.9597(2)
C36_3 C 0.5762(3) 0.7842(6) 0.9547(2)
N12_3 N 0.5940(2) 0.7751(5) 0.9258(2)
Zn3 Zn 0.88447(3) 0.08701(7) 0.43744(3)
I5_2 I 0.86412(2) 0.07452(5) 0.50127(2)
I6_3 I 0.90123(2) 0.23623(5) 0.40662(2)
N8_3 N 0.9331(2) 0.0029(5) 0.4381(2)
C28_3 C 0.9463(3) 0.0001(7) 0.4056(3)
H20_3 H 0.9327 0.0372 0.3835
N13 N 0.8396(2) 0.0230(5) 0.3935(2)
Zn1_2 Zn 0.64103(3) 0.11617(7) 0.07496(3)
I1_3 I 0.58110(2) 0.21761(5) 0.07318(2)
I2_3 I 0.70740(2) 0.17616(5) 0.06510(2)
N1_3 N 0.6574(2) 0.0497(5) 0.1298(2)
C1_3 C 0.6723(3) 0.0977(6) 0.1636(3)
H1_3 H 0.6729 0.1636 0.1626
C2_3 C 0.6868(3) 0.0539(6) 0.1999(2)
H2_3 H 0.6986 0.0897 0.2231
C14_3 C 0.7876(3) 0.0312(7) 0.3308(3)
H11_3 H 0.7737 0.0670 0.3083
C15_3 C 0.8179(3) 0.0707(7) 0.3618(3)
H12_3 H 0.8235 0.1350 0.3603
N14_2 N 0.6205(2) 0.0074(5) 0.0360(2)
H21_3 H 0.5661 0.0032 0.0444
C24_3 C 0.9527(3) 0.9513(7) 0.4693(3)
H17_3 H 0.9438 0.9529 0.4927
C25_3 C 0.9856(3) 0.8954(6) 0.4689(2)
H18_3 H 0.9988 0.8591 0.4915
C26_3 C 0.9986(3) 0.8935(6) 0.4355(2)
C27_3 C 0.9783(3) 0.9475(7) 0.4023(3)
H19_3 H 0.9866 0.9472 0.3785
Zn3_2 Zn 0.11553(3) 0.08701(7) 0.06256(3)
I6_4 I 0.09877(2) 0.23623(5) 0.09338(2)
N8_4 N 0.0669(2) 0.0029(5) 0.0619(2)
C28_4 C 0.0537(3) 0.0001(7) 0.0944(3)
H20_4 H 0.0673 0.0372 0.1165
N13_2 N 0.1604(2) 0.0230(5) 0.1065(2)
Zn1_3 Zn 0.35897(3) 0.11617(7) 0.42504(3)
I1_4 I 0.41890(2) 0.21761(5) 0.42682(2)
I2_4 I 0.29260(2) 0.17616(5) 0.43490(2)
N1_4 N 0.3426(2) 0.0497(5) 0.3702(2)
C1_4 C 0.3277(3) 0.0977(6) 0.3364(3)
H1_4 H 0.3271 0.1636 0.3374
C2_4 C 0.3132(3) 0.0539(6) 0.3001(2)
H2_4 H 0.3014 0.0897 0.2769
C14_4 C 0.2124(3) 0.0312(7) 0.1692(3)
H11_4 H 0.2263 0.0670 0.1917
C15_4 C 0.1821(3) 0.0707(7) 0.1382(3)
H12_4 H 0.1765 0.1350 0.1397
N14_3 N 0.3795(2) 0.0074(5) 0.4640(2)
H21_4 H 0.4339 0.0032 0.4556
I5_3 I 0.13588(2) 0.07452(5) 0.99873(2)
C24_4 C 0.0473(3) 0.9513(7) 0.0307(3)
H17_4 H 0.0562 0.9529 0.0073
C25_4 C 0.0144(3) 0.8954(6) 0.0311(2)
H18_4 H 0.0012 0.8591 0.0085
C26_4 C 0.0014(3) 0.8935(6) 0.0645(2)
C27_4 C 0.0217(3) 0.9475(7) 0.0977(3)
H19_4 H 0.0134 0.9472 0.1215
Zn1_4 Zn 0.85897(3) 0.61617(7) 0.42504(3)
I1_5 I 0.91890(2) 0.71761(5) 0.42682(2)
I2_5 I 0.79260(2) 0.67616(5) 0.43490(2)
N1_5 N 0.8426(2) 0.5497(5) 0.3702(2)
C1_5 C 0.8277(3) 0.5977(6) 0.3364(3)
H1_5 H 0.8271 0.6636 0.3374
C2_5 C 0.8132(3) 0.5539(6) 0.3001(2)
H2_5 H 0.8014 0.5897 0.2769
C3_5 C 0.8156(3) 0.4583(6) 0.2971(3)
C4_5 C 0.8326(3) 0.4084(6) 0.3324(3)
H3_5 H 0.8350 0.3427 0.3319
C5_5 C 0.8455(3) 0.4563(6) 0.3673(3)
H4_5 H 0.8573 0.4221 0.3910
C6_5 C 0.7950(3) 0.0178(6) 0.2003(3)
C7_5 C 0.7845(3) 0.1094(6) 0.1959(2)
H6_5 H 0.7642 0.1307 0.1732
C8_5 C 0.8048(3) 0.1718(6) 0.2262(2)
C9_5 C 0.8343(3) 0.1373(6) 0.2584(3)
H7_5 H 0.8481 0.1779 0.2792
C10_5 C 0.8437(3) 0.0439(7) 0.2604(3)
H8_5 H 0.8646 0.0212 0.2824
N3_3 N 0.6604(2) 0.5230(5) 0.1065(2)
C11_5 C 0.6700(3) 0.4324(6) 0.1044(3)
H9_5 H 0.6554 0.3974 0.0820
C12_5 C 0.6999(3) 0.3883(6) 0.1334(3)
H10_5 H 0.7055 0.3244 0.1306
C13_5 C 0.7217(3) 0.4372(6) 0.1662(2)
C14_5 C 0.7124(3) 0.5312(7) 0.1692(3)
H11_5 H 0.7263 0.5670 0.1917
C15_5 C 0.6821(3) 0.5707(7) 0.1382(3)
H12_5 H 0.6765 0.6350 0.1397
C16_5 C 0.7989(3) 0.4070(6) 0.2597(2)
N4_5 N 0.8120(2) 0.3200(5) 0.2577(2)
C17_5 C 0.7929(3) 0.2729(6) 0.2258(3)
N5_5 N 0.7635(2) 0.3039(5) 0.1945(2)
C18_5 C 0.7538(3) 0.3944(6) 0.1989(2)
N6_5 N 0.7700(2) 0.4482(5) 0.2310(2)
Zn5_3 Zn 0.61553(3) 0.58701(7) 0.06256(3)
N14_4 N 0.8795(2) 0.5074(5) 0.4640(2)
Zn2_4 Zn 0.33818(3) 0.34280(7) 0.23872(3)
I3_4 I 0.27304(2) 0.25118(5) 0.21128(2)
I4_4 I 0.38340(2) 0.31707(5) 0.30872(2)
I6_5 I 0.59877(2) 0.73623(5) 0.09338(2)
C3_6 C 0.3156(3) 0.9583(6) 0.2971(3)
C4_6 C 0.3326(3) 0.9084(6) 0.3324(3)
H3_6 H 0.3350 0.8427 0.3319
C5_6 C 0.3455(3) 0.9563(6) 0.3673(3)
H4_6 H 0.3573 0.9221 0.3910
N2_4 N 0.3237(2) 0.4837(5) 0.2316(2)
C6_6 C 0.2950(3) 0.5178(6) 0.2003(3)
H5_4 H 0.2811 0.4757 0.1802
C7_6 C 0.2845(3) 0.6094(6) 0.1959(2)
H6_6 H 0.2642 0.6307 0.1732
C8_6 C 0.3048(3) 0.6718(6) 0.2262(2)
C9_6 C 0.3343(3) 0.6373(6) 0.2584(3)
H7_6 H 0.3481 0.6779 0.2792
C10_6 C 0.3437(3) 0.5439(7) 0.2604(3)
H8_6 H 0.3646 0.5212 0.2824
C11_6 C 0.1700(3) 0.9324(6) 0.1044(3)
H9_6 H 0.1554 0.8974 0.0820
C12_6 C 0.1999(3) 0.8883(6) 0.1334(3)
H10_6 H 0.2055 0.8244 0.1306
C13_6 C 0.2217(3) 0.9372(6) 0.1662(2)
C16_6 C 0.2989(3) 0.9070(6) 0.2597(2)
N4_6 N 0.3120(2) 0.8200(5) 0.2577(2)
C17_6 C 0.2929(3) 0.7729(6) 0.2258(3)
N5_6 N 0.2635(2) 0.8039(5) 0.1945(2)
C18_6 C 0.2538(3) 0.8944(6) 0.1989(2)
N6_6 N 0.2700(2) 0.9482(5) 0.2310(2)
N7_4 N 0.3681(2) 0.3242(5) 0.1959(2)
C19_4 C 0.3901(3) 0.3923(6) 0.1862(3)
H13_4 H 0.3935 0.4484 0.2011
C20_4 C 0.4083(3) 0.3852(6) 0.1555(3)
H14_4 H 0.4233 0.4356 0.1491
C21_4 C 0.4042(3) 0.3036(6) 0.1346(3)
C22_4 C 0.3829(3) 0.2300(7) 0.1454(3)
H15_4 H 0.3802 0.1722 0.1318
C23_4 C 0.3661(4) 0.2437(7) 0.1765(3)
H16_4 H 0.3523 0.1933 0.1845
N8_5 N 0.5669(2) 0.5029(5) 0.0619(2)
C24_5 C 0.5473(3) 0.4513(7) 0.0307(3)
H17_5 H 0.5562 0.4529 0.0073
C25_5 C 0.5144(3) 0.3954(6) 0.0311(2)
H18_5 H 0.5012 0.3591 0.0085
C26_5 C 0.5014(3) 0.3935(6) 0.0645(2)
C27_5 C 0.5217(3) 0.4475(7) 0.0977(3)
H19_5 H 0.5134 0.4472 0.1215
C28_5 C 0.5537(3) 0.5001(7) 0.0944(3)
H20_5 H 0.5673 0.5372 0.1165
C31_4 C 0.4085(3) 0.1391(6) 0.0160(2)
C32_4 C 0.3685(3) 0.1041(7) 0.0108(3)
H23_4 H 0.3513 0.1299 0.0251
C34_4 C 0.4212(3) 0.2917(6) 0.1000(3)
N10_4 N 0.4510(2) 0.3496(5) 0.0980(2)
C35_4 C 0.4665(3) 0.3331(6) 0.0676(3)
N11_4 N 0.4546(2) 0.2658(5) 0.0403(2)
C36_4 C 0.4238(3) 0.2158(6) 0.0453(2)
N12_4 N 0.4060(2) 0.2249(5) 0.0742(2)
Zn2_5 Zn 0.83818(3) 0.15720(7) 0.73872(3)
I3_5 I 0.77304(2) 0.24882(5) 0.71128(2)
I4_5 I 0.88340(2) 0.18293(5) 0.80872(2)
N2_5 N 0.8237(2) 0.0163(5) 0.7316(2)
H5_5 H 0.7811 0.0243 0.6802
N7_5 N 0.8681(2) 0.1758(5) 0.6959(2)
C19_5 C 0.8901(3) 0.1077(6) 0.6862(3)
H13_5 H 0.8935 0.0516 0.7011
C20_5 C 0.9083(3) 0.1148(6) 0.6555(3)
H14_5 H 0.9233 0.0644 0.6491
C21_5 C 0.9042(3) 0.1964(6) 0.6346(3)
C22_5 C 0.8829(3) 0.2700(7) 0.6454(3)
H15_5 H 0.8802 0.3278 0.6318
C23_5 C 0.8661(4) 0.2563(7) 0.6765(3)
H16_5 H 0.8523 0.3067 0.6845
C29_4 C 0.9168(3) 0.4744(7) 0.4694(3)
H21_5 H 0.9339 0.5032 0.4556
C30_4 C 0.9320(3) 0.3991(7) 0.4944(3)
H22_4 H 0.9583 0.3750 0.4964
C31_5 C 0.9085(3) 0.3609(6) 0.5160(2)
C32_5 C 0.8685(3) 0.3959(7) 0.5108(3)
H23_5 H 0.8513 0.3701 0.5251
C33_4 C 0.8552(3) 0.4687(7) 0.4842(3)
H24_4 H 0.8285 0.4918 0.4801
C34_5 C 0.9212(3) 0.2083(6) 0.6000(3)
N10_5 N 0.9510(2) 0.1504(5) 0.5980(2)
C35_5 C 0.9665(3) 0.1669(6) 0.5676(3)
N11_5 N 0.9546(2) 0.2342(5) 0.5403(2)
C36_5 C 0.9238(3) 0.2842(6) 0.5453(2)
N12_5 N 0.9060(2) 0.2751(5) 0.5742(2)
Zn2_6 Zn 0.83818(3) 0.84280(7) 0.23872(3)
I3_6 I 0.77304(2) 0.75118(5) 0.21128(2)
I4_6 I 0.88340(2) 0.81707(5) 0.30872(2)
N2_6 N 0.8237(2) 0.9837(5) 0.2316(2)
H5_6 H 0.7811 0.9757 0.1802
N7_6 N 0.8681(2) 0.8242(5) 0.1959(2)
C19_6 C 0.8901(3) 0.8923(6) 0.1862(3)
H13_6 H 0.8935 0.9484 0.2011
C20_6 C 0.9083(3) 0.8852(6) 0.1555(3)
H14_6 H 0.9233 0.9356 0.1491
C21_6 C 0.9042(3) 0.8036(6) 0.1346(3)
C22_6 C 0.8829(3) 0.7300(7) 0.1454(3)
H15_6 H 0.8802 0.6722 0.1318
C23_6 C 0.8661(4) 0.7437(7) 0.1765(3)
H16_6 H 0.8523 0.6933 0.1845
C31_6 C 0.9085(3) 0.6391(6) 0.0160(2)
C32_6 C 0.8685(3) 0.6041(7) 0.0108(3)
H23_6 H 0.8513 0.6299 0.0251
C34_6 C 0.9212(3) 0.7917(6) 0.1000(3)
N10_6 N 0.9510(2) 0.8496(5) 0.0980(2)
C35_6 C 0.9665(3) 0.8331(6) 0.0676(3)
N11_6 N 0.9546(2) 0.7658(5) 0.0403(2)
C36_6 C 0.9238(3) 0.7158(6) 0.0453(2)
N12_6 N 0.9060(2) 0.7249(5) 0.0742(2)
N9_2 N 0.8795(2) 0.4926(5) 0.9640(2)
C29_5 C 0.9168(3) 0.5256(7) 0.9694(3)
H21_6 H 0.9339 0.4968 0.9556
C30_5 C 0.9320(3) 0.6009(7) 0.9944(3)
H22_5 H 0.9583 0.6250 0.9964
C33_5 C 0.8552(3) 0.5313(7) 0.9842(3)
H24_5 H 0.8285 0.5082 0.9801
Zn4_2 Zn 0.85897(3) 0.38383(7) 0.92504(3)
I1_6 I 0.91890(2) 0.28239(5) 0.92682(2)
I2_6 I 0.79260(2) 0.32384(5) 0.93490(2)
N1_6 N 0.8426(2) 0.4503(5) 0.8702(2)
C1_6 C 0.8277(3) 0.4023(6) 0.8364(3)
H1_6 H 0.8271 0.3364 0.8374
C2_6 C 0.8132(3) 0.4461(6) 0.8001(2)
H2_6 H 0.8014 0.4103 0.7769
C3_7 C 0.8156(3) 0.5417(6) 0.7971(3)
C4_7 C 0.8326(3) 0.5916(6) 0.8324(3)
H3_7 H 0.8350 0.6573 0.8319
C5_7 C 0.8455(3) 0.5437(6) 0.8673(3)
H4_7 H 0.8573 0.5779 0.8910
C6_7 C 0.7950(3) 0.9822(6) 0.7003(3)
C7_7 C 0.7845(3) 0.8906(6) 0.6959(2)
H6_7 H 0.7642 0.8693 0.6732
C8_7 C 0.8048(3) 0.8282(6) 0.7262(2)
C9_7 C 0.8343(3) 0.8627(6) 0.7584(3)
H7_7 H 0.8481 0.8221 0.7792
C10_7 C 0.8437(3) 0.9561(7) 0.7604(3)
H8_7 H 0.8646 0.9788 0.7824
N3_4 N 0.6604(2) 0.4770(5) 0.6065(2)
C11_7 C 0.6700(3) 0.5676(6) 0.6044(3)
H9_7 H 0.6554 0.6026 0.5820
C12_7 C 0.6999(3) 0.6117(6) 0.6334(3)
H10_7 H 0.7055 0.6756 0.6306
C13_7 C 0.7217(3) 0.5628(6) 0.6662(2)
C14_6 C 0.7124(3) 0.4688(7) 0.6692(3)
H11_6 H 0.7263 0.4330 0.6917
C15_6 C 0.6821(3) 0.4293(7) 0.6382(3)
H12_6 H 0.6765 0.3650 0.6397
C16_7 C 0.7989(3) 0.5930(6) 0.7597(2)
N4_7 N 0.8120(2) 0.6800(5) 0.7577(2)
C17_7 C 0.7929(3) 0.7271(6) 0.7258(3)
N5_7 N 0.7635(2) 0.6961(5) 0.6945(2)
C18_7 C 0.7538(3) 0.6056(6) 0.6989(2)
N6_7 N 0.7700(2) 0.5518(5) 0.7310(2)
Zn5_4 Zn 0.61553(3) 0.41299(7) 0.56256(3)
Zn2_7 Zn 0.33818(3) 0.65720(7) 0.73872(3)
I3_7 I 0.27304(2) 0.74882(5) 0.71128(2)
I4_7 I 0.38340(2) 0.68293(5) 0.80872(2)
I5_4 I 0.63588(2) 0.42548(5) 0.49873(2)
I6_6 I 0.59877(2) 0.26377(5) 0.59338(2)
C3_8 C 0.3156(3) 0.0417(6) 0.7971(3)
C4_8 C 0.3326(3) 0.0916(6) 0.8324(3)
H3_8 H 0.3350 0.1573 0.8319
C5_8 C 0.3455(3) 0.0437(6) 0.8673(3)
H4_8 H 0.3573 0.0779 0.8910
N2_7 N 0.3237(2) 0.5163(5) 0.7316(2)
C6_8 C 0.2950(3) 0.4822(6) 0.7003(3)
H5_7 H 0.2811 0.5243 0.6802
C7_8 C 0.2845(3) 0.3906(6) 0.6959(2)
H6_8 H 0.2642 0.3693 0.6732
C8_8 C 0.3048(3) 0.3282(6) 0.7262(2)
C9_8 C 0.3343(3) 0.3627(6) 0.7584(3)
H7_8 H 0.3481 0.3221 0.7792
C10_8 C 0.3437(3) 0.4561(7) 0.7604(3)
H8_8 H 0.3646 0.4788 0.7824
C11_8 C 0.1700(3) 0.0676(6) 0.6044(3)
H9_8 H 0.1554 0.1026 0.5820
C12_8 C 0.1999(3) 0.1117(6) 0.6334(3)
H10_8 H 0.2055 0.1756 0.6306
C13_8 C 0.2217(3) 0.0628(6) 0.6662(2)
C16_8 C 0.2989(3) 0.0930(6) 0.7597(2)
N4_8 N 0.3120(2) 0.1800(5) 0.7577(2)
C17_8 C 0.2929(3) 0.2271(6) 0.7258(3)
N5_8 N 0.2635(2) 0.1961(5) 0.6945(2)
C18_8 C 0.2538(3) 0.1056(6) 0.6989(2)
N6_8 N 0.2700(2) 0.0518(5) 0.7310(2)
N7_7 N 0.3681(2) 0.6758(5) 0.6959(2)
C19_7 C 0.3901(3) 0.6077(6) 0.6862(3)
H13_7 H 0.3935 0.5516 0.7011
C20_7 C 0.4083(3) 0.6148(6) 0.6555(3)
H14_7 H 0.4233 0.5644 0.6491
C21_7 C 0.4042(3) 0.6964(6) 0.6346(3)
C22_7 C 0.3829(3) 0.7700(7) 0.6454(3)
H15_7 H 0.3802 0.8278 0.6318
C23_7 C 0.3661(4) 0.7563(7) 0.6765(3)
H16_7 H 0.3523 0.8067 0.6845
N8_6 N 0.5669(2) 0.4971(5) 0.5619(2)
C24_6 C 0.5473(3) 0.5487(7) 0.5307(3)
H17_6 H 0.5562 0.5471 0.5073
C25_6 C 0.5144(3) 0.6046(6) 0.5311(2)
H18_6 H 0.5012 0.6409 0.5085
C26_6 C 0.5014(3) 0.6065(6) 0.5645(2)
C27_6 C 0.5217(3) 0.5525(7) 0.5977(3)
H19_6 H 0.5134 0.5528 0.6215
C28_6 C 0.5537(3) 0.4999(7) 0.5944(3)
H20_6 H 0.5673 0.4628 0.6165
C29_6 C 0.4168(3) 0.9744(7) 0.4694(3)
C30_6 C 0.4320(3) 0.8991(7) 0.4944(3)
H22_6 H 0.4583 0.8750 0.4964
C31_7 C 0.4085(3) 0.8609(6) 0.5160(2)
C32_7 C 0.3685(3) 0.8959(7) 0.5108(3)
H23_7 H 0.3513 0.8701 0.5251
C33_6 C 0.3552(3) 0.9687(7) 0.4842(3)
H24_6 H 0.3285 0.9918 0.4801
C34_7 C 0.4212(3) 0.7083(6) 0.6000(3)
N10_7 N 0.4510(2) 0.6504(5) 0.5980(2)
C35_7 C 0.4665(3) 0.6669(6) 0.5676(3)
N11_7 N 0.4546(2) 0.7342(5) 0.5403(2)
C36_7 C 0.4238(3) 0.7842(6) 0.5453(2)
N12_7 N 0.4060(2) 0.7751(5) 0.5742(2)
N9_3 N 0.6205(2) 0.9926(5) 0.5360(2)
H21_7 H 0.5661 0.9968 0.5444
Zn4_3 Zn 0.64103(3) 0.88383(7) 0.57496(3)
Zn3_3 Zn 0.88447(3) 0.91299(7) 0.93744(3)
I6_7 I 0.90123(2) 0.76377(5) 0.90662(2)
N8_7 N 0.9331(2) 0.9971(5) 0.9381(2)
C28_7 C 0.9463(3) 0.9999(7) 0.9056(3)
H20_7 H 0.9327 0.9628 0.8835
N13_3 N 0.8396(2) 0.9770(5) 0.8935(2)
I1_7 I 0.58110(2) 0.78239(5) 0.57318(2)
I2_7 I 0.70740(2) 0.82384(5) 0.56510(2)
N1_7 N 0.6574(2) 0.9503(5) 0.6298(2)
C1_7 C 0.6723(3) 0.9023(6) 0.6636(3)
H1_7 H 0.6729 0.8364 0.6626
C2_7 C 0.6868(3) 0.9461(6) 0.6999(2)
H2_7 H 0.6986 0.9103 0.7231
C14_7 C 0.7876(3) 0.9688(7) 0.8308(3)
H11_7 H 0.7737 0.9330 0.8083
C15_7 C 0.8179(3) 0.9293(7) 0.8618(3)
H12_7 H 0.8235 0.8650 0.8603
I5_5 I 0.63588(2) 0.57452(5) 0.99873(2)
C29_7 C 0.4168(3) 0.0256(7) 0.9694(3)
C30_7 C 0.4320(3) 0.1009(7) 0.9944(3)
H22_7 H 0.4583 0.1250 0.9964
C33_7 C 0.3552(3) 0.0313(7) 0.9842(3)
H24_7 H 0.3285 0.0082 0.9801
N9_4 N 0.3795(2) 0.9926(5) 0.9640(2)
H21_8 H 0.4339 0.9968 0.9556
Zn4_4 Zn 0.35897(3) 0.88383(7) 0.92504(3)
Zn3_4 Zn 0.11553(3) 0.91299(7) 0.56256(3)
I5_6 I 0.13588(2) 0.92548(5) 0.49873(2)
I6_8 I 0.09877(2) 0.76377(5) 0.59338(2)
N8_8 N 0.0669(2) 0.9971(5) 0.5619(2)
C28_8 C 0.0537(3) 0.9999(7) 0.5944(3)
H20_8 H 0.0673 0.9628 0.6165
N13_4 N 0.1604(2) 0.9770(5) 0.6065(2)
I1_8 I 0.41890(2) 0.78239(5) 0.92682(2)
I2_8 I 0.29260(2) 0.82384(5) 0.93490(2)
N1_8 N 0.3426(2) 0.9503(5) 0.8702(2)
C1_8 C 0.3277(3) 0.9023(6) 0.8364(3)
H1_8 H 0.3271 0.8364 0.8374
C2_8 C 0.3132(3) 0.9461(6) 0.8001(2)
H2_8 H 0.3014 0.9103 0.7769
C14_8 C 0.2124(3) 0.9688(7) 0.6692(3)
H11_8 H 0.2263 0.9330 0.6917
C15_8 C 0.1821(3) 0.9293(7) 0.6382(3)
H12_8 H 0.1765 0.8650 0.6397
C24_7 C 0.0473(3) 0.0487(7) 0.5307(3)
H17_7 H 0.0562 0.0471 0.5073
C25_7 C 0.0144(3) 0.1046(6) 0.5311(2)
H18_7 H 0.0012 0.1409 0.5085
C26_7 C 0.0014(3) 0.1065(6) 0.5645(2)
C27_7 C 0.0217(3) 0.0525(7) 0.5977(3)
H19_7 H 0.0134 0.0528 0.6215
Zn2_8 Zn 0.16182(3) 0.15720(7) 0.76128(3)
I3_8 I 0.22696(2) 0.24882(5) 0.78872(2)
I4_8 I 0.11660(2) 0.18293(5) 0.69128(2)
N2_8 N 0.1763(2) 0.0163(5) 0.7684(2)
H5_8 H 0.2189 0.0243 0.8198
N7_8 N 0.1319(2) 0.1758(5) 0.8041(2)
C19_8 C 0.1099(3) 0.1077(6) 0.8138(3)
H13_8 H 0.1065 0.0516 0.7989
C20_8 C 0.0917(3) 0.1148(6) 0.8445(3)
H14_8 H 0.0767 0.0644 0.8509
C21_8 C 0.0958(3) 0.1964(6) 0.8654(3)
C22_8 C 0.1171(3) 0.2700(7) 0.8546(3)
H15_8 H 0.1198 0.3278 0.8682
C23_8 C 0.1339(4) 0.2563(7) 0.8235(3)
H16_8 H 0.1477 0.3067 0.8155
C31_8 C 0.0915(3) 0.3609(6) 0.9840(2)
C32_8 C 0.1315(3) 0.3959(7) 0.9892(3)
H23_8 H 0.1487 0.3701 0.9749
C34_8 C 0.0788(3) 0.2083(6) 0.9000(3)
N10_8 N 0.0490(2) 0.1504(5) 0.9020(2)
C35_8 C 0.0335(3) 0.1669(6) 0.9324(3)
N11_8 N 0.0454(2) 0.2342(5) 0.9597(2)
C36_8 C 0.0762(3) 0.2842(6) 0.9547(2)
N12_8 N 0.0940(2) 0.2751(5) 0.9258(2)
C24_8 C 0.9527(3) 0.0487(7) 0.9693(3)
H17_8 H 0.9438 0.0471 0.9927
C25_8 C 0.9856(3) 0.1046(6) 0.9689(2)
H18_8 H 0.9988 0.1409 0.9915
C26_8 C 0.9986(3) 0.1065(6) 0.9355(2)
C27_8 C 0.9783(3) 0.0525(7) 0.9023(3)
H19_8 H 0.9866 0.0528 0.8785
I5_7 I 0.86412(2) 0.92548(5) 0.00127(2)
I5_8 I 0.36412(2) 0.42548(5) 0.00127(2)
C29_8 C 0.5832(3) 0.9744(7) 0.0306(3)
C30_8 C 0.5680(3) 0.8991(7) 0.0056(3)
H22_8 H 0.5417 0.8750 0.0036
C33_8 C 0.6448(3) 0.9687(7) 0.0158(3)
H24_8 H 0.6715 0.9918 0.0199
loop_
_geom_bond_atom_site_label_1
_geom_bond_atom_site_label_2
_geom_bond_site_symmetry_1
_geom_bond_site_symmetry_2
Zn1 I1 1_555 1_555
I2 Zn1 1_555 1_555
N1 Zn1 1_555 1_555
C1 N1 1_555 1_555
H1 C1 1_555 1_555
C2 C1 1_555 1_555
H2 C2 1_555 1_555
C3 C2 1_555 1_555
C4 C3 1_555 1_555
H3 C4 1_555 1_555
C5 N1 1_555 1_555
H4 C5 1_555 1_555
C7 C6 1_555 1_555
H6 C7 1_555 1_555
C8 C7 1_555 1_555
C9 C8 1_555 1_555
H7 C9 1_555 1_555
H8 C10 1_555 1_555
N3 C11 1_555 1_555
C11 H9 1_555 1_555
C12 C11 1_555 1_555
H10 C12 1_555 1_555
C13 C12 1_555 1_555
C14 C13 1_555 1_555
H11 C14 1_555 1_555
C15 N3 1_555 1_555
H12 C15 1_555 1_555
C16 C3 1_555 1_555
N4 C16 1_555 1_555
C17 C8 1_555 1_555
N5 C17 1_555 1_555
C18 C13 1_555 1_555
N6 C16 1_555 1_555
Zn5 N3 1_555 1_555
N14 Zn1 1_555 1_555
C4 C5 1_555 1_555
C9 C10 1_555 1_555
C14 C15 1_555 1_555
N4 C17 1_555 1_555
N5 C18 1_555 1_555
C18 N6 1_555 1_555
Zn2 I3 1_555 1_555
Zn5 I5 1_555 1_555
I4 Zn2 1_555 1_555
I6 Zn5 1_555 1_555
C4_2 C3_2 1_555 1_555
H3_2 C4_2 1_555 1_555
H4_2 C5_2 1_555 1_555
N2 Zn2 1_555 1_555
C6_2 N2 1_555 1_555
H5 C6_2 1_555 1_555
C7_2 C6_2 1_555 1_555
H6_2 C7_2 1_555 1_555
C8_2 C7_2 1_555 1_555
C9_2 C8_2 1_555 1_555
H7_2 C9_2 1_555 1_555
C10_2 N2 1_555 1_555
H8_2 C10_2 1_555 1_555
C11_2 H9_2 1_555 1_555
C12_2 C11_2 1_555 1_555
H10_2 C12_2 1_555 1_555
C13_2 C12_2 1_555 1_555
C16_2 C3_2 1_555 1_555
N4_2 C16_2 1_555 1_555
C17_2 C8_2 1_555 1_555
N5_2 C17_2 1_555 1_555
C18_2 C13_2 1_555 1_555
N6_2 C16_2 1_555 1_555
N7 Zn2 1_555 1_555
C19 N7 1_555 1_555
H13 C19 1_555 1_555
C20 C19 1_555 1_555
H14 C20 1_555 1_555
C21 C20 1_555 1_555
C22 C21 1_555 1_555
H15 C22 1_555 1_555
C23 N7 1_555 1_555
H16 C23 1_555 1_555
N8 Zn5 1_555 1_555
C24 N8 1_555 1_555
H17 C24 1_555 1_555
C25 C24 1_555 1_555
H18 C25 1_555 1_555
C26 C25 1_555 1_555
C27 C26 1_555 1_555
H19 C27 1_555 1_555
C28 N8 1_555 1_555
H20 C28 1_555 1_555
C30 C29 1_555 1_555
H22 C30 1_555 1_555
C31 C30 1_555 1_555
C32 C31 1_555 1_555
H23 C32 1_555 1_555
H24 C33 1_555 1_555
C34 C21 1_555 1_555
N10 C34 1_555 1_555
C35 C26 1_555 1_555
N11 C35 1_555 1_555
C36 C31 1_555 1_555
N12 C34 1_555 1_555
C4_2 C5_2 1_555 1_555
C9_2 C10_2 1_555 1_555
N4_2 C17_2 1_555 1_555
N5_2 C18_2 1_555 1_555
C18_2 N6_2 1_555 1_555
C22 C23 1_555 1_555
C27 C28 1_555 1_555
C32 C33 1_555 1_555
N10 C35 1_555 1_555
N11 C36 1_555 1_555
C36 N12 1_555 1_555
N14 C29_2 1_555 1_555
C29_2 H21 1_555 1_555
C30_2 C29_2 1_555 1_555
H22_2 C30_2 1_555 1_555
C33_2 N14 1_555 1_555
H24_2 C33_2 1_555 1_555
Zn2_2 I3_2 1_555 1_555
I4_2 Zn2_2 1_555 1_555
N2_2 Zn2_2 1_555 1_555
N7_2 Zn2_2 1_555 1_555
C19_2 N7_2 1_555 1_555
H13_2 C19_2 1_555 1_555
C20_2 C19_2 1_555 1_555
H14_2 C20_2 1_555 1_555
C21_2 C20_2 1_555 1_555
C22_2 C21_2 1_555 1_555
H15_2 C22_2 1_555 1_555
C23_2 N7_2 1_555 1_555
H16_2 C23_2 1_555 1_555
N9 C29_3 1_555 1_555
C29_3 H21_2 1_555 1_555
C30_3 C29_3 1_555 1_555
H22_3 C30_3 1_555 1_555
C31_2 C30_3 1_555 1_555
C32_2 C31_2 1_555 1_555
H23_2 C32_2 1_555 1_555
C33_3 N9 1_555 1_555
H24_3 C33_3 1_555 1_555
C34_2 C21_2 1_555 1_555
N10_2 C34_2 1_555 1_555
N11_2 C35_2 1_555 1_555
C36_2 C31_2 1_555 1_555
N12_2 C34_2 1_555 1_555
Zn4 N9 1_555 1_555
C22_2 C23_2 1_555 1_555
C32_2 C33_3 1_555 1_555
N10_2 C35_2 1_555 1_555
N11_2 C36_2 1_555 1_555
C36_2 N12_2 1_555 1_555
Zn4 I1_2 1_555 1_555
I2_2 Zn4 1_555 1_555
N1_2 Zn4 1_555 1_555
C1_2 N1_2 1_555 1_555
H1_2 C1_2 1_555 1_555
C2_2 C1_2 1_555 1_555
H2_2 C2_2 1_555 1_555
C3_3 C2_2 1_555 1_555
C4_3 C3_3 1_555 1_555
H3_3 C4_3 1_555 1_555
C5_3 N1_2 1_555 1_555
H4_3 C5_3 1_555 1_555
C7_3 C6_3 1_555 1_555
H6_3 C7_3 1_555 1_555
C8_3 C7_3 1_555 1_555
C9_3 C8_3 1_555 1_555
H7_3 C9_3 1_555 1_555
H8_3 C10_3 1_555 1_555
N3_2 C11_3 1_555 1_555
C11_3 H9_3 1_555 1_555
C12_3 C11_3 1_555 1_555
H10_3 C12_3 1_555 1_555
C13_3 C12_3 1_555 1_555
C14_2 C13_3 1_555 1_555
H11_2 C14_2 1_555 1_555
C15_2 N3_2 1_555 1_555
H12_2 C15_2 1_555 1_555
C16_3 C3_3 1_555 1_555
N4_3 C16_3 1_555 1_555
C17_3 C8_3 1_555 1_555
N5_3 C17_3 1_555 1_555
C18_3 C13_3 1_555 1_555
N6_3 C16_3 1_555 1_555
Zn5_2 N3_2 1_555 1_555
C4_3 C5_3 1_555 1_555
C9_3 C10_3 1_555 1_555
C14_2 C15_2 1_555 1_555
N4_3 C17_3 1_555 1_555
N5_3 C18_3 1_555 1_555
C18_3 N6_3 1_555 1_555
Zn2_3 I3_3 1_555 1_555
I4_3 Zn2_3 1_555 1_555
I6_2 Zn5_2 1_555 1_555
C4_4 C3_4 1_555 1_555
H3_4 C4_4 1_555 1_555
H4_4 C5_4 1_555 1_555
N2_3 Zn2_3 1_555 1_555
C6_4 N2_3 1_555 1_555
H5_3 C6_4 1_555 1_555
C7_4 C6_4 1_555 1_555
H6_4 C7_4 1_555 1_555
C8_4 C7_4 1_555 1_555
C9_4 C8_4 1_555 1_555
H7_4 C9_4 1_555 1_555
C10_4 N2_3 1_555 1_555
H8_4 C10_4 1_555 1_555
C11_4 H9_4 1_555 1_555
C12_4 C11_4 1_555 1_555
H10_4 C12_4 1_555 1_555
C13_4 C12_4 1_555 1_555
C16_4 C3_4 1_555 1_555
N4_4 C16_4 1_555 1_555
C17_4 C8_4 1_555 1_555
N5_4 C17_4 1_555 1_555
C18_4 C13_4 1_555 1_555
N6_4 C16_4 1_555 1_555
N7_3 Zn2_3 1_555 1_555
C19_3 N7_3 1_555 1_555
H13_3 C19_3 1_555 1_555
C20_3 C19_3 1_555 1_555
H14_3 C20_3 1_555 1_555
C21_3 C20_3 1_555 1_555
C22_3 C21_3 1_555 1_555
H15_3 C22_3 1_555 1_555
C23_3 N7_3 1_555 1_555
H16_3 C23_3 1_555 1_555
N8_2 Zn5_2 1_555 1_555
C24_2 N8_2 1_555 1_555
H17_2 C24_2 1_555 1_555
C25_2 C24_2 1_555 1_555
H18_2 C25_2 1_555 1_555
C26_2 C25_2 1_555 1_555
C27_2 C26_2 1_555 1_555
H19_2 C27_2 1_555 1_555
C28_2 N8_2 1_555 1_555
H20_2 C28_2 1_555 1_555
C32_3 C31_3 1_555 1_555
H23_3 C32_3 1_555 1_555
C34_3 C21_3 1_555 1_555
N10_3 C34_3 1_555 1_555
C35_3 C26_2 1_555 1_555
N11_3 C35_3 1_555 1_555
C36_3 C31_3 1_555 1_555
N12_3 C34_3 1_555 1_555
C4_4 C5_4 1_555 1_555
C9_4 C10_4 1_555 1_555
N4_4 C17_4 1_555 1_555
N5_4 C18_4 1_555 1_555
C18_4 N6_4 1_555 1_555
C22_3 C23_3 1_555 1_555
C27_2 C28_2 1_555 1_555
N10_3 C35_3 1_555 1_555
N11_3 C36_3 1_555 1_555
C36_3 N12_3 1_555 1_555
Zn3 I5_2 1_555 1_555
I6_3 Zn3 1_555 1_555
N8_3 Zn3 1_555 1_555
C28_3 N8_3 1_555 1_555
H20_3 C28_3 1_555 1_555
N13 Zn3 1_555 1_555
Zn1_2 I1_3 1_555 1_555
I2_3 Zn1_2 1_555 1_555
N1_3 Zn1_2 1_555 1_555
C1_3 N1_3 1_555 1_555
H1_3 C1_3 1_555 1_555
C2_3 C1_3 1_555 1_555
H2_3 C2_3 1_555 1_555
H11_3 C14_3 1_555 1_555
C15_3 N13 1_555 1_555
H12_3 C15_3 1_555 1_555
N14_2 Zn1_2 1_555 1_555
C14_3 C15_3 1_555 1_555
H17_3 C24_3 1_555 1_555
C25_3 C24_3 1_555 1_555
H18_3 C25_3 1_555 1_555
C26_3 C25_3 1_555 1_555
C27_3 C26_3 1_555 1_555
H19_3 C27_3 1_555 1_555
I6_4 Zn3_2 1_555 1_555
N8_4 Zn3_2 1_555 1_555
C28_4 N8_4 1_555 1_555
H20_4 C28_4 1_555 1_555
N13_2 Zn3_2 1_555 1_555
Zn1_3 I1_4 1_555 1_555
I2_4 Zn1_3 1_555 1_555
N1_4 Zn1_3 1_555 1_555
C1_4 N1_4 1_555 1_555
H1_4 C1_4 1_555 1_555
C2_4 C1_4 1_555 1_555
H2_4 C2_4 1_555 1_555
H11_4 C14_4 1_555 1_555
C15_4 N13_2 1_555 1_555
H12_4 C15_4 1_555 1_555
N14_3 Zn1_3 1_555 1_555
C14_4 C15_4 1_555 1_555
H17_4 C24_4 1_555 1_555
C25_4 C24_4 1_555 1_555
H18_4 C25_4 1_555 1_555
C26_4 C25_4 1_555 1_555
C27_4 C26_4 1_555 1_555
H19_4 C27_4 1_555 1_555
Zn1_4 I1_5 1_555 1_555
I2_5 Zn1_4 1_555 1_555
N1_5 Zn1_4 1_555 1_555
C1_5 N1_5 1_555 1_555
H1_5 C1_5 1_555 1_555
C2_5 C1_5 1_555 1_555
H2_5 C2_5 1_555 1_555
C3_5 C2_5 1_555 1_555
C4_5 C3_5 1_555 1_555
H3_5 C4_5 1_555 1_555
C5_5 N1_5 1_555 1_555
H4_5 C5_5 1_555 1_555
C7_5 C6_5 1_555 1_555
H6_5 C7_5 1_555 1_555
C8_5 C7_5 1_555 1_555
C9_5 C8_5 1_555 1_555
H7_5 C9_5 1_555 1_555
H8_5 C10_5 1_555 1_555
N3_3 C11_5 1_555 1_555
C11_5 H9_5 1_555 1_555
C12_5 C11_5 1_555 1_555
H10_5 C12_5 1_555 1_555
C13_5 C12_5 1_555 1_555
C14_5 C13_5 1_555 1_555
H11_5 C14_5 1_555 1_555
C15_5 N3_3 1_555 1_555
H12_5 C15_5 1_555 1_555
C16_5 C3_5 1_555 1_555
N4_5 C16_5 1_555 1_555
C17_5 C8_5 1_555 1_555
N5_5 C17_5 1_555 1_555
C18_5 C13_5 1_555 1_555
N6_5 C16_5 1_555 1_555
Zn5_3 N3_3 1_555 1_555
N14_4 Zn1_4 1_555 1_555
C4_5 C5_5 1_555 1_555
C9_5 C10_5 1_555 1_555
C14_5 C15_5 1_555 1_555
N4_5 C17_5 1_555 1_555
N5_5 C18_5 1_555 1_555
C18_5 N6_5 1_555 1_555
Zn2_4 I3_4 1_555 1_555
I4_4 Zn2_4 1_555 1_555
I6_5 Zn5_3 1_555 1_555
C4_6 C3_6 1_555 1_555
H3_6 C4_6 1_555 1_555
H4_6 C5_6 1_555 1_555
N2_4 Zn2_4 1_555 1_555
C6_6 N2_4 1_555 1_555
H5_4 C6_6 1_555 1_555
C7_6 C6_6 1_555 1_555
H6_6 C7_6 1_555 1_555
C8_6 C7_6 1_555 1_555
C9_6 C8_6 1_555 1_555
H7_6 C9_6 1_555 1_555
C10_6 N2_4 1_555 1_555
H8_6 C10_6 1_555 1_555
C11_6 H9_6 1_555 1_555
C12_6 C11_6 1_555 1_555
H10_6 C12_6 1_555 1_555
C13_6 C12_6 1_555 1_555
C16_6 C3_6 1_555 1_555
N4_6 C16_6 1_555 1_555
C17_6 C8_6 1_555 1_555
N5_6 C17_6 1_555 1_555
C18_6 C13_6 1_555 1_555
N6_6 C16_6 1_555 1_555
N7_4 Zn2_4 1_555 1_555
C19_4 N7_4 1_555 1_555
H13_4 C19_4 1_555 1_555
C20_4 C19_4 1_555 1_555
H14_4 C20_4 1_555 1_555
C21_4 C20_4 1_555 1_555
C22_4 C21_4 1_555 1_555
H15_4 C22_4 1_555 1_555
C23_4 N7_4 1_555 1_555
H16_4 C23_4 1_555 1_555
N8_5 Zn5_3 1_555 1_555
C24_5 N8_5 1_555 1_555
H17_5 C24_5 1_555 1_555
C25_5 C24_5 1_555 1_555
H18_5 C25_5 1_555 1_555
C26_5 C25_5 1_555 1_555
C27_5 C26_5 1_555 1_555
H19_5 C27_5 1_555 1_555
C28_5 N8_5 1_555 1_555
H20_5 C28_5 1_555 1_555
C32_4 C31_4 1_555 1_555
H23_4 C32_4 1_555 1_555
C34_4 C21_4 1_555 1_555
N10_4 C34_4 1_555 1_555
C35_4 C26_5 1_555 1_555
N11_4 C35_4 1_555 1_555
C36_4 C31_4 1_555 1_555
N12_4 C34_4 1_555 1_555
C4_6 C5_6 1_555 1_555
C9_6 C10_6 1_555 1_555
N4_6 C17_6 1_555 1_555
N5_6 C18_6 1_555 1_555
C18_6 N6_6 1_555 1_555
C22_4 C23_4 1_555 1_555
C27_5 C28_5 1_555 1_555
N10_4 C35_4 1_555 1_555
N11_4 C36_4 1_555 1_555
C36_4 N12_4 1_555 1_555
Zn2_5 I3_5 1_555 1_555
I4_5 Zn2_5 1_555 1_555
N2_5 Zn2_5 1_555 1_555
N7_5 Zn2_5 1_555 1_555
C19_5 N7_5 1_555 1_555
H13_5 C19_5 1_555 1_555
C20_5 C19_5 1_555 1_555
H14_5 C20_5 1_555 1_555
C21_5 C20_5 1_555 1_555
C22_5 C21_5 1_555 1_555
H15_5 C22_5 1_555 1_555
C23_5 N7_5 1_555 1_555
H16_5 C23_5 1_555 1_555
N14_4 C29_4 1_555 1_555
C29_4 H21_5 1_555 1_555
C30_4 C29_4 1_555 1_555
H22_4 C30_4 1_555 1_555
C31_5 C30_4 1_555 1_555
C32_5 C31_5 1_555 1_555
H23_5 C32_5 1_555 1_555
C33_4 N14_4 1_555 1_555
H24_4 C33_4 1_555 1_555
C34_5 C21_5 1_555 1_555
N10_5 C34_5 1_555 1_555
N11_5 C35_5 1_555 1_555
C36_5 C31_5 1_555 1_555
N12_5 C34_5 1_555 1_555
C22_5 C23_5 1_555 1_555
C32_5 C33_4 1_555 1_555
N10_5 C35_5 1_555 1_555
N11_5 C36_5 1_555 1_555
C36_5 N12_5 1_555 1_555
Zn2_6 I3_6 1_555 1_555
I4_6 Zn2_6 1_555 1_555
N2_6 Zn2_6 1_555 1_555
N7_6 Zn2_6 1_555 1_555
C19_6 N7_6 1_555 1_555
H13_6 C19_6 1_555 1_555
C20_6 C19_6 1_555 1_555
H14_6 C20_6 1_555 1_555
C21_6 C20_6 1_555 1_555
C22_6 C21_6 1_555 1_555
H15_6 C22_6 1_555 1_555
C23_6 N7_6 1_555 1_555
H16_6 C23_6 1_555 1_555
C32_6 C31_6 1_555 1_555
H23_6 C32_6 1_555 1_555
C34_6 C21_6 1_555 1_555
N10_6 C34_6 1_555 1_555
N11_6 C35_6 1_555 1_555
C36_6 C31_6 1_555 1_555
N12_6 C34_6 1_555 1_555
C22_6 C23_6 1_555 1_555
N10_6 C35_6 1_555 1_555
N11_6 C36_6 1_555 1_555
C36_6 N12_6 1_555 1_555
N9_2 C29_5 1_555 1_555
C29_5 H21_6 1_555 1_555
C30_5 C29_5 1_555 1_555
H22_5 C30_5 1_555 1_555
C33_5 N9_2 1_555 1_555
H24_5 C33_5 1_555 1_555
Zn4_2 N9_2 1_555 1_555
Zn4_2 I1_6 1_555 1_555
I2_6 Zn4_2 1_555 1_555
N1_6 Zn4_2 1_555 1_555
C1_6 N1_6 1_555 1_555
H1_6 C1_6 1_555 1_555
C2_6 C1_6 1_555 1_555
H2_6 C2_6 1_555 1_555
C3_7 C2_6 1_555 1_555
C4_7 C3_7 1_555 1_555
H3_7 C4_7 1_555 1_555
C5_7 N1_6 1_555 1_555
H4_7 C5_7 1_555 1_555
C7_7 C6_7 1_555 1_555
H6_7 C7_7 1_555 1_555
C8_7 C7_7 1_555 1_555
C9_7 C8_7 1_555 1_555
H7_7 C9_7 1_555 1_555
H8_7 C10_7 1_555 1_555
N3_4 C11_7 1_555 1_555
C11_7 H9_7 1_555 1_555
C12_7 C11_7 1_555 1_555
H10_7 C12_7 1_555 1_555
C13_7 C12_7 1_555 1_555
C14_6 C13_7 1_555 1_555
H11_6 C14_6 1_555 1_555
C15_6 N3_4 1_555 1_555
H12_6 C15_6 1_555 1_555
C16_7 C3_7 1_555 1_555
N4_7 C16_7 1_555 1_555
C17_7 C8_7 1_555 1_555
N5_7 C17_7 1_555 1_555
C18_7 C13_7 1_555 1_555
N6_7 C16_7 1_555 1_555
Zn5_4 N3_4 1_555 1_555
C4_7 C5_7 1_555 1_555
C9_7 C10_7 1_555 1_555
C14_6 C15_6 1_555 1_555
N4_7 C17_7 1_555 1_555
N5_7 C18_7 1_555 1_555
C18_7 N6_7 1_555 1_555
Zn2_7 I3_7 1_555 1_555
Zn5_4 I5_4 1_555 1_555
I4_7 Zn2_7 1_555 1_555
I6_6 Zn5_4 1_555 1_555
C4_8 C3_8 1_555 1_555
H3_8 C4_8 1_555 1_555
H4_8 C5_8 1_555 1_555
N2_7 Zn2_7 1_555 1_555
C6_8 N2_7 1_555 1_555
H5_7 C6_8 1_555 1_555
C7_8 C6_8 1_555 1_555
H6_8 C7_8 1_555 1_555
C8_8 C7_8 1_555 1_555
C9_8 C8_8 1_555 1_555
H7_8 C9_8 1_555 1_555
C10_8 N2_7 1_555 1_555
H8_8 C10_8 1_555 1_555
C11_8 H9_8 1_555 1_555
C12_8 C11_8 1_555 1_555
H10_8 C12_8 1_555 1_555
C13_8 C12_8 1_555 1_555
C16_8 C3_8 1_555 1_555
N4_8 C16_8 1_555 1_555
C17_8 C8_8 1_555 1_555
N5_8 C17_8 1_555 1_555
C18_8 C13_8 1_555 1_555
N6_8 C16_8 1_555 1_555
N7_7 Zn2_7 1_555 1_555
C19_7 N7_7 1_555 1_555
H13_7 C19_7 1_555 1_555
C20_7 C19_7 1_555 1_555
H14_7 C20_7 1_555 1_555
C21_7 C20_7 1_555 1_555
C22_7 C21_7 1_555 1_555
H15_7 C22_7 1_555 1_555
C23_7 N7_7 1_555 1_555
H16_7 C23_7 1_555 1_555
N8_6 Zn5_4 1_555 1_555
C24_6 N8_6 1_555 1_555
H17_6 C24_6 1_555 1_555
C25_6 C24_6 1_555 1_555
H18_6 C25_6 1_555 1_555
C26_6 C25_6 1_555 1_555
C27_6 C26_6 1_555 1_555
H19_6 C27_6 1_555 1_555
C28_6 N8_6 1_555 1_555
H20_6 C28_6 1_555 1_555
C30_6 C29_6 1_555 1_555
H22_6 C30_6 1_555 1_555
C31_7 C30_6 1_555 1_555
C32_7 C31_7 1_555 1_555
H23_7 C32_7 1_555 1_555
H24_6 C33_6 1_555 1_555
C34_7 C21_7 1_555 1_555
N10_7 C34_7 1_555 1_555
C35_7 C26_6 1_555 1_555
N11_7 C35_7 1_555 1_555
C36_7 C31_7 1_555 1_555
N12_7 C34_7 1_555 1_555
C4_8 C5_8 1_555 1_555
C9_8 C10_8 1_555 1_555
N4_8 C17_8 1_555 1_555
N5_8 C18_8 1_555 1_555
C18_8 N6_8 1_555 1_555
C22_7 C23_7 1_555 1_555
C27_6 C28_6 1_555 1_555
C32_7 C33_6 1_555 1_555
N10_7 C35_7 1_555 1_555
N11_7 C36_7 1_555 1_555
C36_7 N12_7 1_555 1_555
Zn4_3 N9_3 1_555 1_555
I6_7 Zn3_3 1_555 1_555
N8_7 Zn3_3 1_555 1_555
C28_7 N8_7 1_555 1_555
H20_7 C28_7 1_555 1_555
N13_3 Zn3_3 1_555 1_555
Zn4_3 I1_7 1_555 1_555
I2_7 Zn4_3 1_555 1_555
N1_7 Zn4_3 1_555 1_555
C1_7 N1_7 1_555 1_555
H1_7 C1_7 1_555 1_555
C2_7 C1_7 1_555 1_555
H2_7 C2_7 1_555 1_555
H11_7 C14_7 1_555 1_555
C15_7 N13_3 1_555 1_555
H12_7 C15_7 1_555 1_555
C14_7 C15_7 1_555 1_555
C30_7 C29_7 1_555 1_555
H22_7 C30_7 1_555 1_555
H24_7 C33_7 1_555 1_555
Zn4_4 N9_4 1_555 1_555
Zn3_4 I5_6 1_555 1_555
I6_8 Zn3_4 1_555 1_555
N8_8 Zn3_4 1_555 1_555
C28_8 N8_8 1_555 1_555
H20_8 C28_8 1_555 1_555
N13_4 Zn3_4 1_555 1_555
Zn4_4 I1_8 1_555 1_555
I2_8 Zn4_4 1_555 1_555
N1_8 Zn4_4 1_555 1_555
C1_8 N1_8 1_555 1_555
H1_8 C1_8 1_555 1_555
C2_8 C1_8 1_555 1_555
H2_8 C2_8 1_555 1_555
H11_8 C14_8 1_555 1_555
C15_8 N13_4 1_555 1_555
H12_8 C15_8 1_555 1_555
C14_8 C15_8 1_555 1_555
H17_7 C24_7 1_555 1_555
C25_7 C24_7 1_555 1_555
H18_7 C25_7 1_555 1_555
C26_7 C25_7 1_555 1_555
C27_7 C26_7 1_555 1_555
H19_7 C27_7 1_555 1_555
Zn2_8 I3_8 1_555 1_555
I4_8 Zn2_8 1_555 1_555
N2_8 Zn2_8 1_555 1_555
N7_8 Zn2_8 1_555 1_555
C19_8 N7_8 1_555 1_555
H13_8 C19_8 1_555 1_555
C20_8 C19_8 1_555 1_555
H14_8 C20_8 1_555 1_555
C21_8 C20_8 1_555 1_555
C22_8 C21_8 1_555 1_555
H15_8 C22_8 1_555 1_555
C23_8 N7_8 1_555 1_555
H16_8 C23_8 1_555 1_555
C32_8 C31_8 1_555 1_555
H23_8 C32_8 1_555 1_555
C34_8 C21_8 1_555 1_555
N10_8 C34_8 1_555 1_555
N11_8 C35_8 1_555 1_555
C36_8 C31_8 1_555 1_555
N12_8 C34_8 1_555 1_555
C22_8 C23_8 1_555 1_555
N10_8 C35_8 1_555 1_555
N11_8 C36_8 1_555 1_555
C36_8 N12_8 1_555 1_555
H17_8 C24_8 1_555 1_555
C25_8 C24_8 1_555 1_555
H18_8 C25_8 1_555 1_555
C26_8 C25_8 1_555 1_555
C27_8 C26_8 1_555 1_555
H19_8 C27_8 1_555 1_555
C30_8 C29_8 1_555 1_555
H22_8 C30_8 1_555 1_555
H24_8 C33_8 1_555 1_555

#END
