
###############################################################################
#
# This file contains modified crystal structure data generated from the
# MOF subset of the Cambridge Structural Database (CSD) v543 
# hosted by the Cambridge Crystallographic Data Centre (CCDC).
#
# This work is licensed under the Creative Commons
# Attribution-NonCommercial-ShareAlike 4.0 International License.
# To view a copy of this license, visit
# http://creativecommons.org/licenses/by-nc-sa/4.0/
# or send a letter to
# Creative Commons, PO Box 1866, Mountain View, CA 94042, USA.
#
# CIF created using the CSD Python API on 29 September 2022
# The structure has been converted into the P1 space group
# The structure has a 3D framework
# The original CSD entry VUJBIM is in the cubic crystal system
# The framework has been calculated to contain at least 10.0% void space
# The void calculation uses a probe of radius 1.32A, grid spacing 0.4
# H atom positions have been added when not included in the experimental data
# Generated hydrogen atom positions removed from atoms on special positions
#
###############################################################################

data_VUJBIM
_chemical_formula_moiety         '(C1152 H1344 Cu144 O528)n'
_symmetry_cell_setting           triclinic
_symmetry_space_group_name_H-M   'P 1'
_symmetry_Int_Tables_number      1
_space_group_name_Hall           'P 1'
loop_
_symmetry_equiv_pos_site_id
_symmetry_equiv_pos_as_xyz
1 x,y,z
_cell_length_a                   42.7958(6)
_cell_length_b                   42.7958(6)
_cell_length_c                   42.7958(6)
_cell_angle_alpha                90
_cell_angle_beta                 90
_cell_angle_gamma                90
_cell_volume                     78379.7
loop_
_atom_site_label
_atom_site_type_symbol
_atom_site_fract_x
_atom_site_fract_y
_atom_site_fract_z
Cu1 Cu 0.3687 0.00000(3) 0.36865(3)
Cu2 Cu 0.3249 0.17511(4) 0.50000(4)
O1 O 0.03239(14) 0.11230(15) 0.15711(19)
O2 O 0.03226(12) 0.14816(17) 0.19450(14)
O3 O 0.2874 0.21257(13) 0.50000(13)
O4 O 0.4039 0.00000(13) 0.40388(13)
C1 C 0.0442(4) 0.1222(3) 0.1837(3)
C2 C 0.0803(2) 0.0803(2) 0.1841(5)
H1 H 0.0716 0.0716 0.1656
C3 C 0.0700(3) 0.1056(3) 0.2002(4)
C4 C 0.0789(3) 0.1179(3) 0.2279(4)
H2 H 0.0692 0.1359 0.2366
C5 C 0.1026(3) 0.1026(3) 0.2424(8)
C6 C 0.1135(4) 0.1135(4) 0.2728(9)
C7 C 0.1221(3) 0.1221(3) 0.2939(6)
C8 C 0.1340(3) 0.1340(3) 0.3232(6)
C9 C 0.1215(3) 0.1613(2) 0.3387(2)
H3 H 0.1030 0.1699 0.3301
Cu3 Cu 0.1313 0.00000(3) 0.13135(3)
Cu4 Cu 0.13135(3) 0.3687 0.50000(3)
Cu5 Cu 0.00000(3) 0.3687 0.36865(3)
Cu6 Cu 0.00000(3) 0.13135(3) 0.1313
Cu7 Cu 0.3687 0.13135(3) 0.50000(3)
Cu8 Cu 0.17511(4) 0.00000(4) 0.1751
Cu9 Cu 0.17511(4) 0.3249 0.50000(4)
Cu10 Cu 0.00000(4) 0.3249 0.32489(4)
Cu11 Cu 0.3249 0.00000(4) 0.32489(4)
Cu12 Cu 0.00000(4) 0.17511(4) 0.1751
O5 O 0.11230(15) 0.03239(14) 0.15711(19)
O6 O 0.11230(15) 0.34289(19) 0.46761(14)
O7 O 0.03239(14) 0.34289(19) 0.38770(15)
O8 O 0.34289(19) 0.03239(14) 0.38770(15)
O9 O 0.34289(19) 0.11230(15) 0.46761(14)
O12 O 0.38770(15) 0.03239(14) 0.34289(19)
O13 O 0.38770(15) 0.15711(19) 0.53239(14)
O14 O 0.34289(19) 0.11230(15) 0.53239(14)
O15 O 0.38770(15) 0.15711(19) 0.46761(14)
O16 O 0.14816(17) 0.03226(12) 0.19450(14)
O17 O 0.14816(17) 0.30550(14) 0.46774(12)
O18 O 0.03226(12) 0.30550(14) 0.35184(17)
O19 O 0.30550(14) 0.03226(12) 0.35184(17)
O20 O 0.30550(14) 0.14816(17) 0.46774(12)
O21 O 0.35184(17) 0.19450(14) 0.53226(12)
O22 O 0.30550(14) 0.14816(17) 0.53226(12)
O23 O 0.35184(17) 0.19450(14) 0.46774(12)
O24 O 0.4039 0.09612(13) 0.50000(13)
C10 C 0.1222(3) 0.0442(4) 0.1837(3)
C11 C 0.1222(3) 0.3163(3) 0.4558(4)
C12 C 0.0442(4) 0.3163(3) 0.3778(3)
C13 C 0.3163(3) 0.0442(4) 0.3778(3)
C14 C 0.3163(3) 0.1222(3) 0.4558(4)
C15 C 0.0803(2) 0.3159(5) 0.4197(2)
C16 C 0.3159(5) 0.0803(2) 0.4197(2)
H4 H 0.0716 0.3344 0.4284
H5 H 0.3344 0.0716 0.4284
C17 C 0.1056(3) 0.0700(3) 0.2002(4)
C18 C 0.1056(3) 0.2998(4) 0.4300(3)
C19 C 0.0700(3) 0.2998(4) 0.3944(3)
C20 C 0.2998(4) 0.0700(3) 0.3944(3)
C21 C 0.2998(4) 0.1056(3) 0.4300(3)
C22 C 0.1179(3) 0.0789(3) 0.2279(4)
C23 C 0.1179(3) 0.2721(4) 0.4211(3)
C24 C 0.0789(3) 0.2721(4) 0.3821(3)
C25 C 0.2721(4) 0.0789(3) 0.3821(3)
C26 C 0.2721(4) 0.1179(3) 0.4211(3)
H6 H 0.1359 0.0692 0.2366
H7 H 0.0692 0.2634 0.3641
H8 H 0.1359 0.2634 0.4308
H9 H 0.2634 0.1359 0.4308
H10 H 0.2634 0.0692 0.3641
C27 C 0.1026(3) 0.2576(8) 0.3974(3)
C28 C 0.2576(8) 0.1026(3) 0.3974(3)
C29 C 0.1135(4) 0.2272(9) 0.3865(4)
C30 C 0.2272(9) 0.1135(4) 0.3865(4)
C31 C 0.1221(3) 0.2061(6) 0.3779(3)
C32 C 0.2061(6) 0.1221(3) 0.3779(3)
C33 C 0.1340(3) 0.1768(6) 0.3660(3)
C34 C 0.1768(6) 0.1340(3) 0.3660(3)
C35 C 0.1613(2) 0.1613(2) 0.3785(3)
C36 C 0.1613(2) 0.1215(3) 0.3387(2)
H11 H 0.1699 0.1030 0.3301
H12 H 0.1699 0.1699 0.3970
Cu1_2 Cu 0.3687 1.00000(3) 0.36865(3)
O4_2 O 0.4039 1.00000(13) 0.40388(13)
Cu3_2 Cu 0.1313 1.00000(3) 0.13135(3)
Cu8_2 Cu 0.17511(4) 1.00000(4) 0.1751
Cu11_2 Cu 0.3249 1.00000(4) 0.32489(4)
O10 O 0.38770(15) 0.96761(14) 0.34289(19)
O11 O 0.34289(19) 0.96761(14) 0.38770(15)
Cu5_2 Cu 1.00000(3) 0.3687 0.36865(3)
Cu6_2 Cu 1.00000(3) 0.13135(3) 0.1313
Cu10_2 Cu 1.00000(4) 0.3249 0.32489(4)
Cu12_2 Cu 1.00000(4) 0.17511(4) 0.1751
O4_3 O -0.00000(13) 0.4039 0.40388(13)
O10_2 O 0.03239(14) 0.38770(15) 0.34289(19)
Cu2_2 Cu 0.82489(4) 0.3249 0.50000(4)
O1_2 O 0.88770(15) 0.03239(14) 0.15711(19)
O2_2 O 0.85184(17) 0.03226(12) 0.19450(14)
O3_2 O 0.78743(13) 0.2874 0.50000(13)
O4_4 O 1.00000(13) 0.4039 0.40388(13)
C1_2 C 0.8778(3) 0.0442(4) 0.1837(3)
C2_2 C 0.9197(2) 0.0803(2) 0.1841(5)
H1_2 H 0.9284 0.0716 0.1656
C3_2 C 0.8944(3) 0.0700(3) 0.2002(4)
C4_2 C 0.8821(3) 0.0789(3) 0.2279(4)
H2_2 H 0.8641 0.0692 0.2366
C5_2 C 0.8974(3) 0.1026(3) 0.2424(8)
C6_2 C 0.8865(4) 0.1135(4) 0.2728(9)
C7_2 C 0.8779(3) 0.1221(3) 0.2939(6)
C8_2 C 0.8660(3) 0.1340(3) 0.3232(6)
C9_2 C 0.8387(2) 0.1215(3) 0.3387(2)
H3_2 H 0.8301 0.1030 0.3301
Cu4_2 Cu 0.6313 0.13135(3) 0.50000(3)
Cu5_3 Cu 0.6313 0.00000(3) 0.36865(3)
Cu6_3 Cu 0.86865(3) 0.00000(3) 0.1313
Cu7_2 Cu 0.86865(3) 0.3687 0.50000(3)
Cu9_2 Cu 0.6751 0.17511(4) 0.50000(4)
Cu10_3 Cu 0.6751 0.00000(4) 0.32489(4)
Cu12_3 Cu 0.82489(4) 0.00000(4) 0.1751
O5_2 O 0.96761(14) 0.11230(15) 0.15711(19)
O6_2 O 0.65711(19) 0.11230(15) 0.46761(14)
O7_2 O 0.65711(19) 0.03239(14) 0.38770(15)
O8_2 O 0.96761(14) 0.34289(19) 0.38770(15)
O9_2 O 0.88770(15) 0.34289(19) 0.46761(14)
O12_2 O 0.96761(14) 0.38770(15) 0.34289(19)
O13_2 O 0.84289(19) 0.38770(15) 0.53239(14)
O14_2 O 0.88770(15) 0.34289(19) 0.53239(14)
O15_2 O 0.84289(19) 0.38770(15) 0.46761(14)
O16_2 O 0.96774(12) 0.14816(17) 0.19450(14)
O17_2 O 0.69450(14) 0.14816(17) 0.46774(12)
O18_2 O 0.69450(14) 0.03226(12) 0.35184(17)
O19_2 O 0.96774(12) 0.30550(14) 0.35184(17)
O20_2 O 0.85184(17) 0.30550(14) 0.46774(12)
O21_2 O 0.80550(14) 0.35184(17) 0.53226(12)
O22_2 O 0.85184(17) 0.30550(14) 0.53226(12)
O23_2 O 0.80550(14) 0.35184(17) 0.46774(12)
O24_2 O 0.90388(13) 0.4039 0.50000(13)
C10_2 C 0.9558(4) 0.1222(3) 0.1837(3)
C11_2 C 0.6837(3) 0.1222(3) 0.4558(4)
C12_2 C 0.6837(3) 0.0442(4) 0.3778(3)
C13_2 C 0.9558(4) 0.3163(3) 0.3778(3)
C14_2 C 0.8778(3) 0.3163(3) 0.4558(4)
C15_2 C 0.6841(5) 0.0803(2) 0.4197(2)
C16_2 C 0.9197(2) 0.3159(5) 0.4197(2)
H4_2 H 0.6656 0.0716 0.4284
H5_2 H 0.9284 0.3344 0.4284
C17_2 C 0.9300(3) 0.1056(3) 0.2002(4)
C18_2 C 0.7002(4) 0.1056(3) 0.4300(3)
C19_2 C 0.7002(4) 0.0700(3) 0.3944(3)
C20_2 C 0.9300(3) 0.2998(4) 0.3944(3)
C21_2 C 0.8944(3) 0.2998(4) 0.4300(3)
C22_2 C 0.9211(3) 0.1179(3) 0.2279(4)
C23_2 C 0.7279(4) 0.1179(3) 0.4211(3)
C24_2 C 0.7279(4) 0.0789(3) 0.3821(3)
C25_2 C 0.9211(3) 0.2721(4) 0.3821(3)
C26_2 C 0.8821(3) 0.2721(4) 0.4211(3)
H6_2 H 0.9308 0.1359 0.2366
H7_2 H 0.7366 0.0692 0.3641
H8_2 H 0.7366 0.1359 0.4308
H9_2 H 0.8641 0.2634 0.4308
H10_2 H 0.9308 0.2634 0.3641
C27_2 C 0.7424(8) 0.1026(3) 0.3974(3)
C28_2 C 0.8974(3) 0.2576(8) 0.3974(3)
C29_2 C 0.7728(9) 0.1135(4) 0.3865(4)
C30_2 C 0.8865(4) 0.2272(9) 0.3865(4)
C31_2 C 0.7939(6) 0.1221(3) 0.3779(3)
C32_2 C 0.8779(3) 0.2061(6) 0.3779(3)
C33_2 C 0.8232(6) 0.1340(3) 0.3660(3)
C34_2 C 0.8660(3) 0.1768(6) 0.3660(3)
C35_2 C 0.8387(2) 0.1613(2) 0.3785(3)
C36_2 C 0.8785(3) 0.1613(2) 0.3387(2)
H11_2 H 0.8970 0.1699 0.3301
H12_2 H 0.8301 0.1699 0.3970
Cu5_4 Cu 0.6313 1.00000(3) 0.36865(3)
Cu6_4 Cu 0.86865(3) 1.00000(3) 0.1313
Cu10_4 Cu 0.6751 1.00000(4) 0.32489(4)
Cu12_4 Cu 0.82489(4) 1.00000(4) 0.1751
Cu5_5 Cu 0.00000(3) 0.6313 0.36865(3)
Cu6_5 Cu 0.00000(3) 0.86865(3) 0.1313
Cu10_5 Cu 0.00000(4) 0.6751 0.32489(4)
Cu12_5 Cu 0.00000(4) 0.82489(4) 0.1751
O4_5 O 0.5961 -0.00000(13) 0.40388(13)
O10_3 O 0.61230(15) 0.03239(14) 0.34289(19)
Cu2_3 Cu 0.6751 0.82489(4) 0.50000(4)
O1_3 O 0.96761(14) 0.88770(15) 0.15711(19)
O2_3 O 0.96774(12) 0.85184(17) 0.19450(14)
O3_3 O 0.7126 0.78743(13) 0.50000(13)
O4_6 O 0.5961 1.00000(13) 0.40388(13)
C1_3 C 0.9558(4) 0.8778(3) 0.1837(3)
C2_3 C 0.9197(2) 0.9197(2) 0.1841(5)
H1_3 H 0.9284 0.9284 0.1656
C3_3 C 0.9300(3) 0.8944(3) 0.2002(4)
C4_3 C 0.9211(3) 0.8821(3) 0.2279(4)
H2_3 H 0.9308 0.8641 0.2366
C5_3 C 0.8974(3) 0.8974(3) 0.2424(8)
C6_3 C 0.8865(4) 0.8865(4) 0.2728(9)
C7_3 C 0.8779(3) 0.8779(3) 0.2939(6)
C8_3 C 0.8660(3) 0.8660(3) 0.3232(6)
C9_3 C 0.8785(3) 0.8387(2) 0.3387(2)
H3_3 H 0.8970 0.8301 0.3301
Cu4_3 Cu 0.86865(3) 0.6313 0.50000(3)
Cu5_6 Cu 1.00000(3) 0.6313 0.36865(3)
Cu6_6 Cu 1.00000(3) 0.86865(3) 0.1313
Cu7_3 Cu 0.6313 0.86865(3) 0.50000(3)
Cu9_3 Cu 0.82489(4) 0.6751 0.50000(4)
Cu10_6 Cu 1.00000(4) 0.6751 0.32489(4)
Cu12_6 Cu 1.00000(4) 0.82489(4) 0.1751
O5_3 O 0.88770(15) 0.96761(14) 0.15711(19)
O6_3 O 0.88770(15) 0.65711(19) 0.46761(14)
O7_3 O 0.96761(14) 0.65711(19) 0.38770(15)
O8_3 O 0.65711(19) 0.96761(14) 0.38770(15)
O9_3 O 0.65711(19) 0.88770(15) 0.46761(14)
O12_3 O 0.61230(15) 0.96761(14) 0.34289(19)
O13_3 O 0.61230(15) 0.84289(19) 0.53239(14)
O14_3 O 0.65711(19) 0.88770(15) 0.53239(14)
O15_3 O 0.61230(15) 0.84289(19) 0.46761(14)
O16_3 O 0.85184(17) 0.96774(12) 0.19450(14)
O17_3 O 0.85184(17) 0.69450(14) 0.46774(12)
O18_3 O 0.96774(12) 0.69450(14) 0.35184(17)
O19_3 O 0.69450(14) 0.96774(12) 0.35184(17)
O20_3 O 0.69450(14) 0.85184(17) 0.46774(12)
O21_3 O 0.64816(17) 0.80550(14) 0.53226(12)
O22_3 O 0.69450(14) 0.85184(17) 0.53226(12)
O23_3 O 0.64816(17) 0.80550(14) 0.46774(12)
O24_3 O 0.5961 0.90388(13) 0.50000(13)
C10_3 C 0.8778(3) 0.9558(4) 0.1837(3)
C11_3 C 0.8778(3) 0.6837(3) 0.4558(4)
C12_3 C 0.9558(4) 0.6837(3) 0.3778(3)
C13_3 C 0.6837(3) 0.9558(4) 0.3778(3)
C14_3 C 0.6837(3) 0.8778(3) 0.4558(4)
C15_3 C 0.9197(2) 0.6841(5) 0.4197(2)
C16_3 C 0.6841(5) 0.9197(2) 0.4197(2)
H4_3 H 0.9284 0.6656 0.4284
H5_3 H 0.6656 0.9284 0.4284
C17_3 C 0.8944(3) 0.9300(3) 0.2002(4)
C18_3 C 0.8944(3) 0.7002(4) 0.4300(3)
C19_3 C 0.9300(3) 0.7002(4) 0.3944(3)
C20_3 C 0.7002(4) 0.9300(3) 0.3944(3)
C21_3 C 0.7002(4) 0.8944(3) 0.4300(3)
C22_3 C 0.8821(3) 0.9211(3) 0.2279(4)
C23_3 C 0.8821(3) 0.7279(4) 0.4211(3)
C24_3 C 0.9211(3) 0.7279(4) 0.3821(3)
C25_3 C 0.7279(4) 0.9211(3) 0.3821(3)
C26_3 C 0.7279(4) 0.8821(3) 0.4211(3)
H6_3 H 0.8641 0.9308 0.2366
H7_3 H 0.9308 0.7366 0.3641
H8_3 H 0.8641 0.7366 0.4308
H9_3 H 0.7366 0.8641 0.4308
H10_3 H 0.7366 0.9308 0.3641
C27_3 C 0.8974(3) 0.7424(8) 0.3974(3)
C28_3 C 0.7424(8) 0.8974(3) 0.3974(3)
C29_3 C 0.8865(4) 0.7728(9) 0.3865(4)
C30_3 C 0.7728(9) 0.8865(4) 0.3865(4)
C31_3 C 0.8779(3) 0.7939(6) 0.3779(3)
C32_3 C 0.7939(6) 0.8779(3) 0.3779(3)
C33_3 C 0.8660(3) 0.8232(6) 0.3660(3)
C34_3 C 0.8232(6) 0.8660(3) 0.3660(3)
C35_3 C 0.8387(2) 0.8387(2) 0.3785(3)
C36_3 C 0.8387(2) 0.8785(3) 0.3387(2)
H11_3 H 0.8301 0.8970 0.3301
H12_3 H 0.8301 0.8301 0.3970
Cu2_4 Cu 0.17511(4) 0.6751 0.50000(4)
O1_4 O 0.11230(15) 0.96761(14) 0.15711(19)
O2_4 O 0.14816(17) 0.96774(12) 0.19450(14)
O3_4 O 0.21257(13) 0.7126 0.50000(13)
O4_7 O 0.00000(13) 0.5961 0.40388(13)
C1_4 C 0.1222(3) 0.9558(4) 0.1837(3)
C2_4 C 0.0803(2) 0.9197(2) 0.1841(5)
H1_4 H 0.0716 0.9284 0.1656
C3_4 C 0.1056(3) 0.9300(3) 0.2002(4)
C4_4 C 0.1179(3) 0.9211(3) 0.2279(4)
H2_4 H 0.1359 0.9308 0.2366
C5_4 C 0.1026(3) 0.8974(3) 0.2424(8)
C6_4 C 0.1135(4) 0.8865(4) 0.2728(9)
C7_4 C 0.1221(3) 0.8779(3) 0.2939(6)
C8_4 C 0.1340(3) 0.8660(3) 0.3232(6)
C9_4 C 0.1613(2) 0.8785(3) 0.3387(2)
H3_4 H 0.1699 0.8970 0.3301
Cu4_4 Cu 0.3687 0.86865(3) 0.50000(3)
Cu7_4 Cu 0.13135(3) 0.6313 0.50000(3)
Cu9_4 Cu 0.3249 0.82489(4) 0.50000(4)
O5_4 O 0.03239(14) 0.88770(15) 0.15711(19)
O6_4 O 0.34289(19) 0.88770(15) 0.46761(14)
O8_4 O 0.03239(14) 0.65711(19) 0.38770(15)
O9_4 O 0.11230(15) 0.65711(19) 0.46761(14)
O12_4 O 0.03239(14) 0.61230(15) 0.34289(19)
O13_4 O 0.15711(19) 0.61230(15) 0.53239(14)
O14_4 O 0.11230(15) 0.65711(19) 0.53239(14)
O15_4 O 0.15711(19) 0.61230(15) 0.46761(14)
O16_4 O 0.03226(12) 0.85184(17) 0.19450(14)
O17_4 O 0.30550(14) 0.85184(17) 0.46774(12)
O18_4 O 0.30550(14) 0.96774(12) 0.35184(17)
O19_4 O 0.03226(12) 0.69450(14) 0.35184(17)
O20_4 O 0.14816(17) 0.69450(14) 0.46774(12)
O21_4 O 0.19450(14) 0.64816(17) 0.53226(12)
O22_4 O 0.14816(17) 0.69450(14) 0.53226(12)
O23_4 O 0.19450(14) 0.64816(17) 0.46774(12)
O24_4 O 0.09612(13) 0.5961 0.50000(13)
C10_4 C 0.0442(4) 0.8778(3) 0.1837(3)
C11_4 C 0.3163(3) 0.8778(3) 0.4558(4)
C12_4 C 0.3163(3) 0.9558(4) 0.3778(3)
C13_4 C 0.0442(4) 0.6837(3) 0.3778(3)
C14_4 C 0.1222(3) 0.6837(3) 0.4558(4)
C15_4 C 0.3159(5) 0.9197(2) 0.4197(2)
C16_4 C 0.0803(2) 0.6841(5) 0.4197(2)
H4_4 H 0.3344 0.9284 0.4284
H5_4 H 0.0716 0.6656 0.4284
C17_4 C 0.0700(3) 0.8944(3) 0.2002(4)
C18_4 C 0.2998(4) 0.8944(3) 0.4300(3)
C19_4 C 0.2998(4) 0.9300(3) 0.3944(3)
C20_4 C 0.0700(3) 0.7002(4) 0.3944(3)
C21_4 C 0.1056(3) 0.7002(4) 0.4300(3)
C22_4 C 0.0789(3) 0.8821(3) 0.2279(4)
C23_4 C 0.2721(4) 0.8821(3) 0.4211(3)
C24_4 C 0.2721(4) 0.9211(3) 0.3821(3)
C25_4 C 0.0789(3) 0.7279(4) 0.3821(3)
C26_4 C 0.1179(3) 0.7279(4) 0.4211(3)
H6_4 H 0.0692 0.8641 0.2366
H7_4 H 0.2634 0.9308 0.3641
H8_4 H 0.2634 0.8641 0.4308
H9_4 H 0.1359 0.7366 0.4308
H10_4 H 0.0692 0.7366 0.3641
C27_4 C 0.2576(8) 0.8974(3) 0.3974(3)
C28_4 C 0.1026(3) 0.7424(8) 0.3974(3)
C29_4 C 0.2272(9) 0.8865(4) 0.3865(4)
C30_4 C 0.1135(4) 0.7728(9) 0.3865(4)
C31_4 C 0.2061(6) 0.8779(3) 0.3779(3)
C32_4 C 0.1221(3) 0.7939(6) 0.3779(3)
C33_4 C 0.1768(6) 0.8660(3) 0.3660(3)
C34_4 C 0.1340(3) 0.8232(6) 0.3660(3)
C35_4 C 0.1613(2) 0.8387(2) 0.3785(3)
C36_4 C 0.1215(3) 0.8387(2) 0.3387(2)
H11_4 H 0.1030 0.8301 0.3301
H12_4 H 0.1699 0.8301 0.3970
O4_8 O 1.00000(13) 0.5961 0.40388(13)
O10_4 O 0.96761(14) 0.61230(15) 0.34289(19)
Cu1_3 Cu 0.3687 0.63135(3) 0.00000(3)
Cu2_5 Cu 0.3249 0.50000(4) 0.17511(4)
O1_5 O 0.03239(14) 0.84289(19) 0.11230(15)
O2_5 O 0.03226(12) 0.80550(14) 0.14816(17)
O3_5 O 0.2874 0.50000(13) 0.21257(13)
O4_9 O 0.4039 0.59612(13) 0.00000(13)
C1_5 C 0.0442(4) 0.8163(3) 0.1222(3)
C2_5 C 0.0803(2) 0.8159(5) 0.0803(2)
H1_5 H 0.0716 0.8344 0.0716
C3_5 C 0.0700(3) 0.7998(4) 0.1056(3)
C4_5 C 0.0789(3) 0.7721(4) 0.1179(3)
H2_5 H 0.0692 0.7634 0.1359
C5_5 C 0.1026(3) 0.7576(8) 0.1026(3)
C6_5 C 0.1135(4) 0.7272(9) 0.1135(4)
C7_5 C 0.1221(3) 0.7061(6) 0.1221(3)
C8_5 C 0.1340(3) 0.6768(6) 0.1340(3)
C9_5 C 0.1215(3) 0.6613(2) 0.1613(2)
H3_5 H 0.1030 0.6699 0.1699
Cu3_3 Cu 0.1313 0.86865(3) 0.00000(3)
Cu4_5 Cu 0.13135(3) 0.50000(3) 0.3687
Cu7_5 Cu 0.3687 0.50000(3) 0.13135(3)
Cu8_3 Cu 0.17511(4) 0.8249 0.00000(4)
Cu9_5 Cu 0.17511(4) 0.50000(4) 0.3249
Cu11_3 Cu 0.3249 0.67511(4) 0.00000(4)
O5_5 O 0.11230(15) 0.84289(19) 0.03239(14)
O6_5 O 0.11230(15) 0.53239(14) 0.34289(19)
O8_5 O 0.34289(19) 0.61230(15) 0.03239(14)
O9_5 O 0.34289(19) 0.53239(14) 0.11230(15)
O12_5 O 0.38770(15) 0.65711(19) 0.03239(14)
O13_5 O 0.38770(15) 0.46761(14) 0.15711(19)
O14_5 O 0.34289(19) 0.46761(14) 0.11230(15)
O15_5 O 0.38770(15) 0.53239(14) 0.15711(19)
O16_5 O 0.14816(17) 0.80550(14) 0.03226(12)
O17_5 O 0.14816(17) 0.53226(12) 0.30550(14)
O18_5 O 0.03226(12) 0.64816(17) 0.30550(14)
O19_5 O 0.30550(14) 0.64816(17) 0.03226(12)
O20_5 O 0.30550(14) 0.53226(12) 0.14816(17)
O21_5 O 0.35184(17) 0.46774(12) 0.19450(14)
O22_5 O 0.30550(14) 0.46774(12) 0.14816(17)
O23_5 O 0.35184(17) 0.53226(12) 0.19450(14)
O24_5 O 0.4039 0.50000(13) 0.09612(13)
C10_5 C 0.1222(3) 0.8163(3) 0.0442(4)
C11_5 C 0.1222(3) 0.5442(4) 0.3163(3)
C12_5 C 0.0442(4) 0.6222(3) 0.3163(3)
C13_5 C 0.3163(3) 0.6222(3) 0.0442(4)
C14_5 C 0.3163(3) 0.5442(4) 0.1222(3)
C15_5 C 0.0803(2) 0.5803(2) 0.3159(5)
C16_5 C 0.3159(5) 0.5803(2) 0.0803(2)
H4_5 H 0.0716 0.5716 0.3344
H5_5 H 0.3344 0.5716 0.0716
C17_5 C 0.1056(3) 0.7998(4) 0.0700(3)
C18_5 C 0.1056(3) 0.5700(3) 0.2998(4)
C19_5 C 0.0700(3) 0.6056(3) 0.2998(4)
C20_5 C 0.2998(4) 0.6056(3) 0.0700(3)
C21_5 C 0.2998(4) 0.5700(3) 0.1056(3)
C22_5 C 0.1179(3) 0.7721(4) 0.0789(3)
C23_5 C 0.1179(3) 0.5789(3) 0.2721(4)
C24_5 C 0.0789(3) 0.6179(3) 0.2721(4)
C25_5 C 0.2721(4) 0.6179(3) 0.0789(3)
C26_5 C 0.2721(4) 0.5789(3) 0.1179(3)
H6_5 H 0.1359 0.7634 0.0692
H7_5 H 0.0692 0.6359 0.2634
H8_5 H 0.1359 0.5692 0.2634
H9_5 H 0.2634 0.5692 0.1359
H10_5 H 0.2634 0.6359 0.0692
C27_5 C 0.1026(3) 0.6026(3) 0.2576(8)
C28_5 C 0.2576(8) 0.6026(3) 0.1026(3)
C29_5 C 0.1135(4) 0.6135(4) 0.2272(9)
C30_5 C 0.2272(9) 0.6135(4) 0.1135(4)
C31_5 C 0.1221(3) 0.6221(3) 0.2061(6)
C32_5 C 0.2061(6) 0.6221(3) 0.1221(3)
C33_5 C 0.1340(3) 0.6340(3) 0.1768(6)
C34_5 C 0.1768(6) 0.6340(3) 0.1340(3)
C35_5 C 0.1613(2) 0.6215(3) 0.1613(2)
C36_5 C 0.1613(2) 0.6613(2) 0.1215(3)
H11_5 H 0.1699 0.6699 0.1030
H12_5 H 0.1699 0.6030 0.1699
Cu1_4 Cu 0.3687 0.63135(3) 1.00000(3)
O4_10 O 0.4039 0.59612(13) 1.00000(13)
Cu3_4 Cu 0.1313 0.86865(3) 1.00000(3)
Cu8_4 Cu 0.17511(4) 0.8249 1.00000(4)
Cu11_4 Cu 0.3249 0.67511(4) 1.00000(4)
O10_5 O 0.38770(15) 0.65711(19) 0.96761(14)
O11_2 O 0.34289(19) 0.61230(15) 0.96761(14)
Cu1_5 Cu 0.3687 -0.00000(3) 0.63135(3)
O4_11 O 0.4039 0.00000(13) 0.59612(13)
Cu3_5 Cu 0.1313 0.00000(3) 0.86865(3)
Cu8_5 Cu 0.17511(4) 0.00000(4) 0.8249
Cu11_5 Cu 0.3249 0.00000(4) 0.67511(4)
O10_6 O 0.38770(15) 0.03239(14) 0.65711(19)
O11_3 O 0.34289(19) 0.03239(14) 0.61230(15)
Cu1_6 Cu 0.3687 1.00000(3) 0.63135(3)
O1_6 O 0.03239(14) 0.88770(15) 0.84289(19)
O2_6 O 0.03226(12) 0.85184(17) 0.80550(14)
O3_6 O 0.2874 0.78743(13) 0.50000(13)
O4_12 O 0.4039 1.00000(13) 0.59612(13)
C1_6 C 0.0442(4) 0.8778(3) 0.8163(3)
C2_6 C 0.0803(2) 0.9197(2) 0.8159(5)
H1_6 H 0.0716 0.9284 0.8344
C3_6 C 0.0700(3) 0.8944(3) 0.7998(4)
C4_6 C 0.0789(3) 0.8821(3) 0.7721(4)
H2_6 H 0.0692 0.8641 0.7634
C5_6 C 0.1026(3) 0.8974(3) 0.7576(8)
C6_6 C 0.1135(4) 0.8865(4) 0.7272(9)
C7_6 C 0.1221(3) 0.8779(3) 0.7061(6)
C8_6 C 0.1340(3) 0.8660(3) 0.6768(6)
C9_6 C 0.1215(3) 0.8387(2) 0.6613(2)
H3_6 H 0.1030 0.8301 0.6699
Cu3_6 Cu 0.1313 1.00000(3) 0.86865(3)
Cu5_7 Cu 0.00000(3) 0.6313 0.63135(3)
Cu6_7 Cu 0.00000(3) 0.86865(3) 0.8687
Cu8_6 Cu 0.17511(4) 1.00000(4) 0.8249
Cu10_7 Cu 0.00000(4) 0.6751 0.67511(4)
Cu11_6 Cu 0.3249 1.00000(4) 0.67511(4)
Cu12_7 Cu 0.00000(4) 0.82489(4) 0.8249
O5_6 O 0.11230(15) 0.96761(14) 0.84289(19)
O7_4 O 0.03239(14) 0.65711(19) 0.61230(15)
O8_6 O 0.34289(19) 0.96761(14) 0.61230(15)
O9_6 O 0.34289(19) 0.88770(15) 0.53239(14)
O12_6 O 0.38770(15) 0.96761(14) 0.65711(19)
O13_6 O 0.38770(15) 0.84289(19) 0.46761(14)
O15_6 O 0.38770(15) 0.84289(19) 0.53239(14)
O16_6 O 0.14816(17) 0.96774(12) 0.80550(14)
O18_6 O 0.03226(12) 0.69450(14) 0.64816(17)
O19_6 O 0.30550(14) 0.96774(12) 0.64816(17)
O20_6 O 0.30550(14) 0.85184(17) 0.53226(12)
O21_6 O 0.35184(17) 0.80550(14) 0.46774(12)
O23_6 O 0.35184(17) 0.80550(14) 0.53226(12)
O24_6 O 0.4039 0.90388(13) 0.50000(13)
C10_6 C 0.1222(3) 0.9558(4) 0.8163(3)
C11_6 C 0.1222(3) 0.6837(3) 0.5442(4)
C12_6 C 0.0442(4) 0.6837(3) 0.6222(3)
C13_6 C 0.3163(3) 0.9558(4) 0.6222(3)
C14_6 C 0.3163(3) 0.8778(3) 0.5442(4)
C15_6 C 0.0803(2) 0.6841(5) 0.5803(2)
C16_6 C 0.3159(5) 0.9197(2) 0.5803(2)
H4_6 H 0.0716 0.6656 0.5716
H5_6 H 0.3344 0.9284 0.5716
C17_6 C 0.1056(3) 0.9300(3) 0.7998(4)
C18_6 C 0.1056(3) 0.7002(4) 0.5700(3)
C19_6 C 0.0700(3) 0.7002(4) 0.6056(3)
C20_6 C 0.2998(4) 0.9300(3) 0.6056(3)
C21_6 C 0.2998(4) 0.8944(3) 0.5700(3)
C22_6 C 0.1179(3) 0.9211(3) 0.7721(4)
C23_6 C 0.1179(3) 0.7279(4) 0.5789(3)
C24_6 C 0.0789(3) 0.7279(4) 0.6179(3)
C25_6 C 0.2721(4) 0.9211(3) 0.6179(3)
C26_6 C 0.2721(4) 0.8821(3) 0.5789(3)
H6_6 H 0.1359 0.9308 0.7634
H7_6 H 0.0692 0.7366 0.6359
H8_6 H 0.1359 0.7366 0.5692
H9_6 H 0.2634 0.8641 0.5692
H10_6 H 0.2634 0.9308 0.6359
C27_6 C 0.1026(3) 0.7424(8) 0.6026(3)
C28_6 C 0.2576(8) 0.8974(3) 0.6026(3)
C29_6 C 0.1135(4) 0.7728(9) 0.6135(4)
C30_6 C 0.2272(9) 0.8865(4) 0.6135(4)
C31_6 C 0.1221(3) 0.7939(6) 0.6221(3)
C32_6 C 0.2061(6) 0.8779(3) 0.6221(3)
C33_6 C 0.1340(3) 0.8232(6) 0.6340(3)
C34_6 C 0.1768(6) 0.8660(3) 0.6340(3)
C35_6 C 0.1613(2) 0.8387(2) 0.6215(3)
C36_6 C 0.1613(2) 0.8785(3) 0.6613(2)
H11_6 H 0.1699 0.8970 0.6699
H12_6 H 0.1699 0.8301 0.6030
Cu5_8 Cu 1.00000(3) 0.6313 0.63135(3)
Cu6_8 Cu 1.00000(3) 0.86865(3) 0.8687
Cu10_8 Cu 1.00000(4) 0.6751 0.67511(4)
Cu12_8 Cu 1.00000(4) 0.82489(4) 0.8249
Cu1_7 Cu 0.3687 0.36865(3) -0.00000(3)
O4_13 O 0.4039 0.40388(13) -0.00000(13)
Cu3_7 Cu 0.1313 0.13135(3) -0.00000(3)
Cu8_7 Cu 0.17511(4) 0.1751 -0.00000(4)
Cu11_7 Cu 0.3249 0.32489(4) 0.00000(4)
O10_7 O 0.38770(15) 0.34289(19) 0.03239(14)
O11_4 O 0.34289(19) 0.38770(15) 0.03239(14)
Cu1_8 Cu 0.3687 0.36865(3) 1.00000(3)
Cu2_6 Cu 0.3249 0.50000(4) 0.82489(4)
O1_7 O 0.03239(14) 0.15711(19) 0.88770(15)
O2_7 O 0.03226(12) 0.19450(14) 0.85184(17)
O3_7 O 0.2874 0.50000(13) 0.78743(13)
O4_14 O 0.4039 0.40388(13) 1.00000(13)
C1_7 C 0.0442(4) 0.1837(3) 0.8778(3)
C2_7 C 0.0803(2) 0.1841(5) 0.9197(2)
H1_7 H 0.0716 0.1656 0.9284
C3_7 C 0.0700(3) 0.2002(4) 0.8944(3)
C4_7 C 0.0789(3) 0.2279(4) 0.8821(3)
H2_7 H 0.0692 0.2366 0.8641
C5_7 C 0.1026(3) 0.2424(8) 0.8974(3)
C6_7 C 0.1135(4) 0.2728(9) 0.8865(4)
C7_7 C 0.1221(3) 0.2939(6) 0.8779(3)
C8_7 C 0.1340(3) 0.3232(6) 0.8660(3)
C9_7 C 0.1215(3) 0.3387(2) 0.8387(2)
H3_7 H 0.1030 0.3301 0.8301
Cu3_8 Cu 0.1313 0.13135(3) 1.00000(3)
Cu4_6 Cu 0.13135(3) 0.50000(3) 0.6313
Cu5_9 Cu 0.00000(3) 0.36865(3) 0.6313
Cu6_9 Cu 0.00000(3) 0.1313 0.86865(3)
Cu7_6 Cu 0.3687 0.50000(3) 0.86865(3)
Cu8_8 Cu 0.17511(4) 0.1751 1.00000(4)
Cu9_6 Cu 0.17511(4) 0.50000(4) 0.6751
Cu10_9 Cu 0.00000(4) 0.32489(4) 0.6751
Cu11_8 Cu 0.3249 0.32489(4) 1.00000(4)
Cu12_9 Cu 0.00000(4) 0.1751 0.82489(4)
O5_7 O 0.11230(15) 0.15711(19) 0.96761(14)
O6_6 O 0.11230(15) 0.46761(14) 0.65711(19)
O7_5 O 0.03239(14) 0.38770(15) 0.65711(19)
O8_7 O 0.34289(19) 0.38770(15) 0.96761(14)
O9_7 O 0.34289(19) 0.46761(14) 0.88770(15)
O12_7 O 0.38770(15) 0.34289(19) 0.96761(14)
O13_7 O 0.38770(15) 0.53239(14) 0.84289(19)
O14_6 O 0.34289(19) 0.53239(14) 0.88770(15)
O15_7 O 0.38770(15) 0.46761(14) 0.84289(19)
O16_7 O 0.14816(17) 0.19450(14) 0.96774(12)
O17_6 O 0.14816(17) 0.46774(12) 0.69450(14)
O18_7 O 0.03226(12) 0.35184(17) 0.69450(14)
O19_7 O 0.30550(14) 0.35184(17) 0.96774(12)
O20_7 O 0.30550(14) 0.46774(12) 0.85184(17)
O21_7 O 0.35184(17) 0.53226(12) 0.80550(14)
O22_6 O 0.30550(14) 0.53226(12) 0.85184(17)
O23_7 O 0.35184(17) 0.46774(12) 0.80550(14)
O24_7 O 0.4039 0.50000(13) 0.90388(13)
C10_7 C 0.1222(3) 0.1837(3) 0.9558(4)
C11_7 C 0.1222(3) 0.4558(4) 0.6837(3)
C12_7 C 0.0442(4) 0.3778(3) 0.6837(3)
C13_7 C 0.3163(3) 0.3778(3) 0.9558(4)
C14_7 C 0.3163(3) 0.4558(4) 0.8778(3)
C15_7 C 0.0803(2) 0.4197(2) 0.6841(5)
C16_7 C 0.3159(5) 0.4197(2) 0.9197(2)
H4_7 H 0.0716 0.4284 0.6656
H5_7 H 0.3344 0.4284 0.9284
C17_7 C 0.1056(3) 0.2002(4) 0.9300(3)
C18_7 C 0.1056(3) 0.4300(3) 0.7002(4)
C19_7 C 0.0700(3) 0.3944(3) 0.7002(4)
C20_7 C 0.2998(4) 0.3944(3) 0.9300(3)
C21_7 C 0.2998(4) 0.4300(3) 0.8944(3)
C22_7 C 0.1179(3) 0.2279(4) 0.9211(3)
C23_7 C 0.1179(3) 0.4211(3) 0.7279(4)
C24_7 C 0.0789(3) 0.3821(3) 0.7279(4)
C25_7 C 0.2721(4) 0.3821(3) 0.9211(3)
C26_7 C 0.2721(4) 0.4211(3) 0.8821(3)
H6_7 H 0.1359 0.2366 0.9308
H7_7 H 0.0692 0.3641 0.7366
H8_7 H 0.1359 0.4308 0.7366
H9_7 H 0.2634 0.4308 0.8641
H10_7 H 0.2634 0.3641 0.9308
C27_7 C 0.1026(3) 0.3974(3) 0.7424(8)
C28_7 C 0.2576(8) 0.3974(3) 0.8974(3)
C29_7 C 0.1135(4) 0.3865(4) 0.7728(9)
C30_7 C 0.2272(9) 0.3865(4) 0.8865(4)
C31_7 C 0.1221(3) 0.3779(3) 0.7939(6)
C32_7 C 0.2061(6) 0.3779(3) 0.8779(3)
C33_7 C 0.1340(3) 0.3660(3) 0.8232(6)
C34_7 C 0.1768(6) 0.3660(3) 0.8660(3)
C35_7 C 0.1613(2) 0.3785(3) 0.8387(2)
C36_7 C 0.1613(2) 0.3387(2) 0.8785(3)
H11_7 H 0.1699 0.3301 0.8970
H12_7 H 0.1699 0.3970 0.8301
Cu5_10 Cu 1.00000(3) 0.36865(3) 0.6313
Cu6_10 Cu 1.00000(3) 0.1313 0.86865(3)
Cu10_10 Cu 1.00000(4) 0.32489(4) 0.6751
Cu12_10 Cu 1.00000(4) 0.1751 0.82489(4)
Cu2_7 Cu 0.50000(4) 0.17511(4) 0.6751
O1_8 O 0.15711(19) 0.11230(15) 0.96761(14)
O2_8 O 0.19450(14) 0.14816(17) 0.96774(12)
O3_8 O 0.50000(13) 0.21257(13) 0.7126
C1_8 C 0.1837(3) 0.1222(3) 0.9558(4)
C2_8 C 0.1841(5) 0.0803(2) 0.9197(2)
H1_8 H 0.1656 0.0716 0.9284
C3_8 C 0.2002(4) 0.1056(3) 0.9300(3)
C4_8 C 0.2279(4) 0.1179(3) 0.9211(3)
H2_8 H 0.2366 0.1359 0.9308
C5_8 C 0.2424(8) 0.1026(3) 0.8974(3)
C6_8 C 0.2728(9) 0.1135(4) 0.8865(4)
C7_8 C 0.2939(6) 0.1221(3) 0.8779(3)
C8_8 C 0.3232(6) 0.1340(3) 0.8660(3)
C9_8 C 0.3387(2) 0.1613(2) 0.8785(3)
H3_8 H 0.3301 0.1699 0.8970
Cu4_7 Cu 0.50000(3) 0.3687 0.86865(3)
Cu7_7 Cu 0.50000(3) 0.13135(3) 0.6313
Cu9_7 Cu 0.50000(4) 0.3249 0.82489(4)
O5_8 O 0.15711(19) 0.03239(14) 0.88770(15)
O6_7 O 0.46761(14) 0.34289(19) 0.88770(15)
O9_8 O 0.46761(14) 0.11230(15) 0.65711(19)
O13_8 O 0.53239(14) 0.15711(19) 0.61230(15)
O14_7 O 0.53239(14) 0.11230(15) 0.65711(19)
O15_8 O 0.46761(14) 0.15711(19) 0.61230(15)
O16_8 O 0.19450(14) 0.03226(12) 0.85184(17)
O17_7 O 0.46774(12) 0.30550(14) 0.85184(17)
O18_8 O 0.35184(17) 0.30550(14) 0.96774(12)
O19_8 O 0.35184(17) 0.03226(12) 0.69450(14)
O20_8 O 0.46774(12) 0.14816(17) 0.69450(14)
O21_8 O 0.53226(12) 0.19450(14) 0.64816(17)
O22_7 O 0.53226(12) 0.14816(17) 0.69450(14)
O23_8 O 0.46774(12) 0.19450(14) 0.64816(17)
O24_8 O 0.50000(13) 0.09612(13) 0.5961
C10_8 C 0.1837(3) 0.0442(4) 0.8778(3)
C11_8 C 0.4558(4) 0.3163(3) 0.8778(3)
C12_8 C 0.3778(3) 0.3163(3) 0.9558(4)
C13_8 C 0.3778(3) 0.0442(4) 0.6837(3)
C14_8 C 0.4558(4) 0.1222(3) 0.6837(3)
C15_8 C 0.4197(2) 0.3159(5) 0.9197(2)
C16_8 C 0.4197(2) 0.0803(2) 0.6841(5)
H4_8 H 0.4284 0.3344 0.9284
H5_8 H 0.4284 0.0716 0.6656
C17_8 C 0.2002(4) 0.0700(3) 0.8944(3)
C18_8 C 0.4300(3) 0.2998(4) 0.8944(3)
C19_8 C 0.3944(3) 0.2998(4) 0.9300(3)
C20_8 C 0.3944(3) 0.0700(3) 0.7002(4)
C21_8 C 0.4300(3) 0.1056(3) 0.7002(4)
C22_8 C 0.2279(4) 0.0789(3) 0.8821(3)
C23_8 C 0.4211(3) 0.2721(4) 0.8821(3)
C24_8 C 0.3821(3) 0.2721(4) 0.9211(3)
C25_8 C 0.3821(3) 0.0789(3) 0.7279(4)
C26_8 C 0.4211(3) 0.1179(3) 0.7279(4)
H6_8 H 0.2366 0.0692 0.8641
H7_8 H 0.3641 0.2634 0.9308
H8_8 H 0.4308 0.2634 0.8641
H9_8 H 0.4308 0.1359 0.7366
H10_8 H 0.3641 0.0692 0.7366
C27_8 C 0.3974(3) 0.2576(8) 0.8974(3)
C28_8 C 0.3974(3) 0.1026(3) 0.7424(8)
C29_8 C 0.3865(4) 0.2272(9) 0.8865(4)
C30_8 C 0.3865(4) 0.1135(4) 0.7728(9)
C31_8 C 0.3779(3) 0.2061(6) 0.8779(3)
C32_8 C 0.3779(3) 0.1221(3) 0.7939(6)
C33_8 C 0.3660(3) 0.1768(6) 0.8660(3)
C34_8 C 0.3660(3) 0.1340(3) 0.8232(6)
C35_8 C 0.3785(3) 0.1613(2) 0.8387(2)
C36_8 C 0.3387(2) 0.1215(3) 0.8387(2)
H11_8 H 0.3301 0.1030 0.8301
H12_8 H 0.3970 0.1699 0.8301
Cu1_9 Cu 0.6313 0.00000(3) 0.63135(3)
O1_9 O 0.96761(14) 0.11230(15) 0.84289(19)
O2_9 O 0.96774(12) 0.14816(17) 0.80550(14)
O3_9 O 0.7126 0.21257(13) 0.50000(13)
O4_15 O 0.5961 0.00000(13) 0.59612(13)
C1_9 C 0.9558(4) 0.1222(3) 0.8163(3)
C2_9 C 0.9197(2) 0.0803(2) 0.8159(5)
H1_9 H 0.9284 0.0716 0.8344
C3_9 C 0.9300(3) 0.1056(3) 0.7998(4)
C4_9 C 0.9211(3) 0.1179(3) 0.7721(4)
H2_9 H 0.9308 0.1359 0.7634
C5_9 C 0.8974(3) 0.1026(3) 0.7576(8)
C6_9 C 0.8865(4) 0.1135(4) 0.7272(9)
C7_9 C 0.8779(3) 0.1221(3) 0.7061(6)
C8_9 C 0.8660(3) 0.1340(3) 0.6768(6)
C9_9 C 0.8785(3) 0.1613(2) 0.6613(2)
H3_9 H 0.8970 0.1699 0.6699
Cu3_9 Cu 0.8687 0.00000(3) 0.86865(3)
Cu8_9 Cu 0.82489(4) 0.00000(4) 0.8249
Cu11_9 Cu 0.6751 0.00000(4) 0.67511(4)
O5_9 O 0.88770(15) 0.03239(14) 0.84289(19)
O7_6 O 0.96761(14) 0.34289(19) 0.61230(15)
O8_8 O 0.65711(19) 0.03239(14) 0.61230(15)
O9_9 O 0.65711(19) 0.11230(15) 0.53239(14)
O12_8 O 0.61230(15) 0.03239(14) 0.65711(19)
O13_9 O 0.61230(15) 0.15711(19) 0.46761(14)
O15_9 O 0.61230(15) 0.15711(19) 0.53239(14)
O16_9 O 0.85184(17) 0.03226(12) 0.80550(14)
O18_9 O 0.96774(12) 0.30550(14) 0.64816(17)
O19_9 O 0.69450(14) 0.03226(12) 0.64816(17)
O20_9 O 0.69450(14) 0.14816(17) 0.53226(12)
O21_9 O 0.64816(17) 0.19450(14) 0.46774(12)
O23_9 O 0.64816(17) 0.19450(14) 0.53226(12)
O24_9 O 0.5961 0.09612(13) 0.50000(13)
C10_9 C 0.8778(3) 0.0442(4) 0.8163(3)
C11_9 C 0.8778(3) 0.3163(3) 0.5442(4)
C12_9 C 0.9558(4) 0.3163(3) 0.6222(3)
C13_9 C 0.6837(3) 0.0442(4) 0.6222(3)
C14_9 C 0.6837(3) 0.1222(3) 0.5442(4)
C15_9 C 0.9197(2) 0.3159(5) 0.5803(2)
C16_9 C 0.6841(5) 0.0803(2) 0.5803(2)
H4_9 H 0.9284 0.3344 0.5716
H5_9 H 0.6656 0.0716 0.5716
C17_9 C 0.8944(3) 0.0700(3) 0.7998(4)
C18_9 C 0.8944(3) 0.2998(4) 0.5700(3)
C19_9 C 0.9300(3) 0.2998(4) 0.6056(3)
C20_9 C 0.7002(4) 0.0700(3) 0.6056(3)
C21_9 C 0.7002(4) 0.1056(3) 0.5700(3)
C22_9 C 0.8821(3) 0.0789(3) 0.7721(4)
C23_9 C 0.8821(3) 0.2721(4) 0.5789(3)
C24_9 C 0.9211(3) 0.2721(4) 0.6179(3)
C25_9 C 0.7279(4) 0.0789(3) 0.6179(3)
C26_9 C 0.7279(4) 0.1179(3) 0.5789(3)
H6_9 H 0.8641 0.0692 0.7634
H7_9 H 0.9308 0.2634 0.6359
H8_9 H 0.8641 0.2634 0.5692
H9_9 H 0.7366 0.1359 0.5692
H10_9 H 0.7366 0.0692 0.6359
C27_9 C 0.8974(3) 0.2576(8) 0.6026(3)
C28_9 C 0.7424(8) 0.1026(3) 0.6026(3)
C29_9 C 0.8865(4) 0.2272(9) 0.6135(4)
C30_9 C 0.7728(9) 0.1135(4) 0.6135(4)
C31_9 C 0.8779(3) 0.2061(6) 0.6221(3)
C32_9 C 0.7939(6) 0.1221(3) 0.6221(3)
C33_9 C 0.8660(3) 0.1768(6) 0.6340(3)
C34_9 C 0.8232(6) 0.1340(3) 0.6340(3)
C35_9 C 0.8387(2) 0.1613(2) 0.6215(3)
C36_9 C 0.8387(2) 0.1215(3) 0.6613(2)
H11_9 H 0.8301 0.1030 0.6699
H12_9 H 0.8301 0.1699 0.6030
Cu1_10 Cu 0.6313 1.00000(3) 0.63135(3)
O4_16 O 0.5961 1.00000(13) 0.59612(13)
Cu3_10 Cu 0.8687 1.00000(3) 0.86865(3)
Cu8_10 Cu 0.82489(4) 1.00000(4) 0.8249
Cu11_10 Cu 0.6751 1.00000(4) 0.67511(4)
O10_8 O 0.61230(15) 0.96761(14) 0.65711(19)
O11_5 O 0.65711(19) 0.96761(14) 0.61230(15)
Cu2_8 Cu 0.50000(4) 0.17511(4) 0.3249
O1_10 O 0.84289(19) 0.11230(15) 0.03239(14)
O2_10 O 0.80550(14) 0.14816(17) 0.03226(12)
O3_10 O 0.50000(13) 0.21257(13) 0.2874
C1_10 C 0.8163(3) 0.1222(3) 0.0442(4)
C2_10 C 0.8159(5) 0.0803(2) 0.0803(2)
H1_10 H 0.8344 0.0716 0.0716
C3_10 C 0.7998(4) 0.1056(3) 0.0700(3)
C4_10 C 0.7721(4) 0.1179(3) 0.0789(3)
H2_10 H 0.7634 0.1359 0.0692
C5_10 C 0.7576(8) 0.1026(3) 0.1026(3)
C6_10 C 0.7272(9) 0.1135(4) 0.1135(4)
C7_10 C 0.7061(6) 0.1221(3) 0.1221(3)
C8_10 C 0.6768(6) 0.1340(3) 0.1340(3)
C9_10 C 0.6613(2) 0.1613(2) 0.1215(3)
H3_10 H 0.6699 0.1699 0.1030
Cu4_8 Cu 0.50000(3) 0.3687 0.13135(3)
Cu5_11 Cu 0.63135(3) 0.3687 0.00000(3)
Cu6_11 Cu 0.8687 0.13135(3) 0.00000(3)
Cu7_8 Cu 0.50000(3) 0.13135(3) 0.3687
Cu9_8 Cu 0.50000(4) 0.3249 0.17511(4)
Cu10_11 Cu 0.67511(4) 0.3249 0.00000(4)
Cu12_11 Cu 0.8249 0.17511(4) 0.00000(4)
O5_10 O 0.84289(19) 0.03239(14) 0.11230(15)
O6_8 O 0.53239(14) 0.34289(19) 0.11230(15)
O7_7 O 0.61230(15) 0.34289(19) 0.03239(14)
O9_10 O 0.53239(14) 0.11230(15) 0.34289(19)
O13_10 O 0.46761(14) 0.15711(19) 0.38770(15)
O14_8 O 0.46761(14) 0.11230(15) 0.34289(19)
O15_10 O 0.53239(14) 0.15711(19) 0.38770(15)
O16_10 O 0.80550(14) 0.03226(12) 0.14816(17)
O17_8 O 0.53226(12) 0.30550(14) 0.14816(17)
O18_10 O 0.64816(17) 0.30550(14) 0.03226(12)
O19_10 O 0.64816(17) 0.03226(12) 0.30550(14)
O20_10 O 0.53226(12) 0.14816(17) 0.30550(14)
O21_10 O 0.46774(12) 0.19450(14) 0.35184(17)
O22_8 O 0.46774(12) 0.14816(17) 0.30550(14)
O23_10 O 0.53226(12) 0.19450(14) 0.35184(17)
O24_10 O 0.50000(13) 0.09612(13) 0.4039
C10_10 C 0.8163(3) 0.0442(4) 0.1222(3)
C11_10 C 0.5442(4) 0.3163(3) 0.1222(3)
C12_10 C 0.6222(3) 0.3163(3) 0.0442(4)
C13_10 C 0.6222(3) 0.0442(4) 0.3163(3)
C14_10 C 0.5442(4) 0.1222(3) 0.3163(3)
C15_10 C 0.5803(2) 0.3159(5) 0.0803(2)
C16_10 C 0.5803(2) 0.0803(2) 0.3159(5)
H4_10 H 0.5716 0.3344 0.0716
H5_10 H 0.5716 0.0716 0.3344
C17_10 C 0.7998(4) 0.0700(3) 0.1056(3)
C18_10 C 0.5700(3) 0.2998(4) 0.1056(3)
C19_10 C 0.6056(3) 0.2998(4) 0.0700(3)
C20_10 C 0.6056(3) 0.0700(3) 0.2998(4)
C21_10 C 0.5700(3) 0.1056(3) 0.2998(4)
C22_10 C 0.7721(4) 0.0789(3) 0.1179(3)
C23_10 C 0.5789(3) 0.2721(4) 0.1179(3)
C24_10 C 0.6179(3) 0.2721(4) 0.0789(3)
C25_10 C 0.6179(3) 0.0789(3) 0.2721(4)
C26_10 C 0.5789(3) 0.1179(3) 0.2721(4)
H6_10 H 0.7634 0.0692 0.1359
H7_10 H 0.6359 0.2634 0.0692
H8_10 H 0.5692 0.2634 0.1359
H9_10 H 0.5692 0.1359 0.2634
H10_10 H 0.6359 0.0692 0.2634
C27_10 C 0.6026(3) 0.2576(8) 0.1026(3)
C28_10 C 0.6026(3) 0.1026(3) 0.2576(8)
C29_10 C 0.6135(4) 0.2272(9) 0.1135(4)
C30_10 C 0.6135(4) 0.1135(4) 0.2272(9)
C31_10 C 0.6221(3) 0.2061(6) 0.1221(3)
C32_10 C 0.6221(3) 0.1221(3) 0.2061(6)
C33_10 C 0.6340(3) 0.1768(6) 0.1340(3)
C34_10 C 0.6340(3) 0.1340(3) 0.1768(6)
C35_10 C 0.6215(3) 0.1613(2) 0.1613(2)
C36_10 C 0.6613(2) 0.1215(3) 0.1613(2)
H11_10 H 0.6699 0.1030 0.1699
H12_10 H 0.6030 0.1699 0.1699
Cu5_12 Cu 0.63135(3) 0.3687 1.00000(3)
Cu6_12 Cu 0.8687 0.13135(3) 1.00000(3)
Cu10_12 Cu 0.67511(4) 0.3249 1.00000(4)
Cu12_12 Cu 0.8249 0.17511(4) 1.00000(4)
O1_11 O 0.15711(19) 0.03239(14) 0.11230(15)
O2_11 O 0.19450(14) 0.03226(12) 0.14816(17)
O3_11 O 0.50000(13) 0.2874 0.21257(13)
C1_11 C 0.1837(3) 0.0442(4) 0.1222(3)
C2_11 C 0.1841(5) 0.0803(2) 0.0803(2)
H1_11 H 0.1656 0.0716 0.0716
C3_11 C 0.2002(4) 0.0700(3) 0.1056(3)
C4_11 C 0.2279(4) 0.0789(3) 0.1179(3)
H2_11 H 0.2366 0.0692 0.1359
C5_11 C 0.2424(8) 0.1026(3) 0.1026(3)
C6_11 C 0.2728(9) 0.1135(4) 0.1135(4)
C7_11 C 0.2939(6) 0.1221(3) 0.1221(3)
C8_11 C 0.3232(6) 0.1340(3) 0.1340(3)
C9_11 C 0.3387(2) 0.1215(3) 0.1613(2)
H3_11 H 0.3301 0.1030 0.1699
O5_11 O 0.15711(19) 0.11230(15) 0.03239(14)
O9_11 O 0.46761(14) 0.34289(19) 0.11230(15)
O13_11 O 0.53239(14) 0.38770(15) 0.15711(19)
O15_11 O 0.46761(14) 0.38770(15) 0.15711(19)
O16_11 O 0.19450(14) 0.14816(17) 0.03226(12)
O18_11 O 0.35184(17) 0.03226(12) 0.30550(14)
O19_11 O 0.35184(17) 0.30550(14) 0.03226(12)
O20_11 O 0.46774(12) 0.30550(14) 0.14816(17)
O21_11 O 0.53226(12) 0.35184(17) 0.19450(14)
O23_11 O 0.46774(12) 0.35184(17) 0.19450(14)
O24_11 O 0.50000(13) 0.4039 0.09612(13)
C10_11 C 0.1837(3) 0.1222(3) 0.0442(4)
C11_11 C 0.4558(4) 0.1222(3) 0.3163(3)
C12_11 C 0.3778(3) 0.0442(4) 0.3163(3)
C13_11 C 0.3778(3) 0.3163(3) 0.0442(4)
C14_11 C 0.4558(4) 0.3163(3) 0.1222(3)
C15_11 C 0.4197(2) 0.0803(2) 0.3159(5)
C16_11 C 0.4197(2) 0.3159(5) 0.0803(2)
H4_11 H 0.4284 0.0716 0.3344
H5_11 H 0.4284 0.3344 0.0716
C17_11 C 0.2002(4) 0.1056(3) 0.0700(3)
C18_11 C 0.4300(3) 0.1056(3) 0.2998(4)
C19_11 C 0.3944(3) 0.0700(3) 0.2998(4)
C20_11 C 0.3944(3) 0.2998(4) 0.0700(3)
C21_11 C 0.4300(3) 0.2998(4) 0.1056(3)
C22_11 C 0.2279(4) 0.1179(3) 0.0789(3)
C23_11 C 0.4211(3) 0.1179(3) 0.2721(4)
C24_11 C 0.3821(3) 0.0789(3) 0.2721(4)
C25_11 C 0.3821(3) 0.2721(4) 0.0789(3)
C26_11 C 0.4211(3) 0.2721(4) 0.1179(3)
H6_11 H 0.2366 0.1359 0.0692
H7_11 H 0.3641 0.0692 0.2634
H8_11 H 0.4308 0.1359 0.2634
H9_11 H 0.4308 0.2634 0.1359
H10_11 H 0.3641 0.2634 0.0692
C27_11 C 0.3974(3) 0.1026(3) 0.2576(8)
C28_11 C 0.3974(3) 0.2576(8) 0.1026(3)
C29_11 C 0.3865(4) 0.1135(4) 0.2272(9)
C30_11 C 0.3865(4) 0.2272(9) 0.1135(4)
C31_11 C 0.3779(3) 0.1221(3) 0.2061(6)
C32_11 C 0.3779(3) 0.2061(6) 0.1221(3)
C33_11 C 0.3660(3) 0.1340(3) 0.1768(6)
C34_11 C 0.3660(3) 0.1768(6) 0.1340(3)
C35_11 C 0.3785(3) 0.1613(2) 0.1613(2)
C36_11 C 0.3387(2) 0.1613(2) 0.1215(3)
H11_11 H 0.3301 0.1699 0.1030
H12_11 H 0.3970 0.1699 0.1699
O1_12 O 0.11230(15) 0.15711(19) 0.03239(14)
O2_12 O 0.14816(17) 0.19450(14) 0.03226(12)
O3_12 O 0.21257(13) 0.50000(13) 0.2874
C1_12 C 0.1222(3) 0.1837(3) 0.0442(4)
C2_12 C 0.0803(2) 0.1841(5) 0.0803(2)
H1_12 H 0.0716 0.1656 0.0716
C3_12 C 0.1056(3) 0.2002(4) 0.0700(3)
C4_12 C 0.1179(3) 0.2279(4) 0.0789(3)
H2_12 H 0.1359 0.2366 0.0692
C5_12 C 0.1026(3) 0.2424(8) 0.1026(3)
C6_12 C 0.1135(4) 0.2728(9) 0.1135(4)
C7_12 C 0.1221(3) 0.2939(6) 0.1221(3)
C8_12 C 0.1340(3) 0.3232(6) 0.1340(3)
C9_12 C 0.1613(2) 0.3387(2) 0.1215(3)
H3_12 H 0.1699 0.3301 0.1030
O5_12 O 0.03239(14) 0.15711(19) 0.11230(15)
O9_12 O 0.11230(15) 0.46761(14) 0.34289(19)
O13_12 O 0.15711(19) 0.53239(14) 0.38770(15)
O15_12 O 0.15711(19) 0.46761(14) 0.38770(15)
O16_12 O 0.03226(12) 0.19450(14) 0.14816(17)
O18_12 O 0.30550(14) 0.35184(17) 0.03226(12)
O19_12 O 0.03226(12) 0.35184(17) 0.30550(14)
O20_12 O 0.14816(17) 0.46774(12) 0.30550(14)
O21_12 O 0.19450(14) 0.53226(12) 0.35184(17)
O23_12 O 0.19450(14) 0.46774(12) 0.35184(17)
O24_12 O 0.09612(13) 0.50000(13) 0.4039
C10_12 C 0.0442(4) 0.1837(3) 0.1222(3)
C11_12 C 0.3163(3) 0.4558(4) 0.1222(3)
C12_12 C 0.3163(3) 0.3778(3) 0.0442(4)
C13_12 C 0.0442(4) 0.3778(3) 0.3163(3)
C14_12 C 0.1222(3) 0.4558(4) 0.3163(3)
C15_12 C 0.3159(5) 0.4197(2) 0.0803(2)
C16_12 C 0.0803(2) 0.4197(2) 0.3159(5)
H4_12 H 0.3344 0.4284 0.0716
H5_12 H 0.0716 0.4284 0.3344
C17_12 C 0.0700(3) 0.2002(4) 0.1056(3)
C18_12 C 0.2998(4) 0.4300(3) 0.1056(3)
C19_12 C 0.2998(4) 0.3944(3) 0.0700(3)
C20_12 C 0.0700(3) 0.3944(3) 0.2998(4)
C21_12 C 0.1056(3) 0.4300(3) 0.2998(4)
C22_12 C 0.0789(3) 0.2279(4) 0.1179(3)
C23_12 C 0.2721(4) 0.4211(3) 0.1179(3)
C24_12 C 0.2721(4) 0.3821(3) 0.0789(3)
C25_12 C 0.0789(3) 0.3821(3) 0.2721(4)
C26_12 C 0.1179(3) 0.4211(3) 0.2721(4)
H6_12 H 0.0692 0.2366 0.1359
H7_12 H 0.2634 0.3641 0.0692
H8_12 H 0.2634 0.4308 0.1359
H9_12 H 0.1359 0.4308 0.2634
H10_12 H 0.0692 0.3641 0.2634
C27_12 C 0.2576(8) 0.3974(3) 0.1026(3)
C28_12 C 0.1026(3) 0.3974(3) 0.2576(8)
C29_12 C 0.2272(9) 0.3865(4) 0.1135(4)
C30_12 C 0.1135(4) 0.3865(4) 0.2272(9)
C31_12 C 0.2061(6) 0.3779(3) 0.1221(3)
C32_12 C 0.1221(3) 0.3779(3) 0.2061(6)
C33_12 C 0.1768(6) 0.3660(3) 0.1340(3)
C34_12 C 0.1340(3) 0.3660(3) 0.1768(6)
C35_12 C 0.1613(2) 0.3785(3) 0.1613(2)
C36_12 C 0.1215(3) 0.3387(2) 0.1613(2)
H11_12 H 0.1030 0.3301 0.1699
H12_12 H 0.1699 0.3970 0.1699
Cu2_9 Cu 0.82489(4) 0.50000(4) 0.3249
O1_13 O 0.88770(15) 0.84289(19) 0.03239(14)
O2_13 O 0.85184(17) 0.80550(14) 0.03226(12)
O3_13 O 0.78743(13) 0.50000(13) 0.2874
C1_13 C 0.8778(3) 0.8163(3) 0.0442(4)
C2_13 C 0.9197(2) 0.8159(5) 0.0803(2)
H1_13 H 0.9284 0.8344 0.0716
C3_13 C 0.8944(3) 0.7998(4) 0.0700(3)
C4_13 C 0.8821(3) 0.7721(4) 0.0789(3)
H2_13 H 0.8641 0.7634 0.0692
C5_13 C 0.8974(3) 0.7576(8) 0.1026(3)
C6_13 C 0.8865(4) 0.7272(9) 0.1135(4)
C7_13 C 0.8779(3) 0.7061(6) 0.1221(3)
C8_13 C 0.8660(3) 0.6768(6) 0.1340(3)
C9_13 C 0.8387(2) 0.6613(2) 0.1215(3)
H3_13 H 0.8301 0.6699 0.1030
Cu4_9 Cu 0.6313 0.50000(3) 0.13135(3)
Cu5_13 Cu 0.6313 0.63135(3) 0.00000(3)
Cu6_13 Cu 0.86865(3) 0.8687 0.00000(3)
Cu7_9 Cu 0.86865(3) 0.50000(3) 0.3687
Cu9_9 Cu 0.6751 0.50000(4) 0.17511(4)
Cu10_13 Cu 0.6751 0.67511(4) 0.00000(4)
Cu12_13 Cu 0.82489(4) 0.8249 0.00000(4)
O5_13 O 0.96761(14) 0.84289(19) 0.11230(15)
O6_9 O 0.65711(19) 0.53239(14) 0.11230(15)
O7_8 O 0.65711(19) 0.61230(15) 0.03239(14)
O9_13 O 0.88770(15) 0.53239(14) 0.34289(19)
O13_13 O 0.84289(19) 0.46761(14) 0.38770(15)
O14_9 O 0.88770(15) 0.46761(14) 0.34289(19)
O15_13 O 0.84289(19) 0.53239(14) 0.38770(15)
O16_13 O 0.96774(12) 0.80550(14) 0.14816(17)
O17_9 O 0.69450(14) 0.53226(12) 0.14816(17)
O18_13 O 0.69450(14) 0.64816(17) 0.03226(12)
O19_13 O 0.96774(12) 0.64816(17) 0.30550(14)
O20_13 O 0.85184(17) 0.53226(12) 0.30550(14)
O21_13 O 0.80550(14) 0.46774(12) 0.35184(17)
O22_9 O 0.85184(17) 0.46774(12) 0.30550(14)
O23_13 O 0.80550(14) 0.53226(12) 0.35184(17)
O24_13 O 0.90388(13) 0.50000(13) 0.4039
C10_13 C 0.9558(4) 0.8163(3) 0.1222(3)
C11_13 C 0.6837(3) 0.5442(4) 0.1222(3)
C12_13 C 0.6837(3) 0.6222(3) 0.0442(4)
C13_13 C 0.9558(4) 0.6222(3) 0.3163(3)
C14_13 C 0.8778(3) 0.5442(4) 0.3163(3)
C15_13 C 0.6841(5) 0.5803(2) 0.0803(2)
C16_13 C 0.9197(2) 0.5803(2) 0.3159(5)
H4_13 H 0.6656 0.5716 0.0716
H5_13 H 0.9284 0.5716 0.3344
C17_13 C 0.9300(3) 0.7998(4) 0.1056(3)
C18_13 C 0.7002(4) 0.5700(3) 0.1056(3)
C19_13 C 0.7002(4) 0.6056(3) 0.0700(3)
C20_13 C 0.9300(3) 0.6056(3) 0.2998(4)
C21_13 C 0.8944(3) 0.5700(3) 0.2998(4)
C22_13 C 0.9211(3) 0.7721(4) 0.1179(3)
C23_13 C 0.7279(4) 0.5789(3) 0.1179(3)
C24_13 C 0.7279(4) 0.6179(3) 0.0789(3)
C25_13 C 0.9211(3) 0.6179(3) 0.2721(4)
C26_13 C 0.8821(3) 0.5789(3) 0.2721(4)
H6_13 H 0.9308 0.7634 0.1359
H7_13 H 0.7366 0.6359 0.0692
H8_13 H 0.7366 0.5692 0.1359
H9_13 H 0.8641 0.5692 0.2634
H10_13 H 0.9308 0.6359 0.2634
C27_13 C 0.7424(8) 0.6026(3) 0.1026(3)
C28_13 C 0.8974(3) 0.6026(3) 0.2576(8)
C29_13 C 0.7728(9) 0.6135(4) 0.1135(4)
C30_13 C 0.8865(4) 0.6135(4) 0.2272(9)
C31_13 C 0.7939(6) 0.6221(3) 0.1221(3)
C32_13 C 0.8779(3) 0.6221(3) 0.2061(6)
C33_13 C 0.8232(6) 0.6340(3) 0.1340(3)
C34_13 C 0.8660(3) 0.6340(3) 0.1768(6)
C35_13 C 0.8387(2) 0.6215(3) 0.1613(2)
C36_13 C 0.8785(3) 0.6613(2) 0.1613(2)
H11_13 H 0.8970 0.6699 0.1699
H12_13 H 0.8301 0.6030 0.1699
Cu5_14 Cu 0.6313 0.63135(3) 1.00000(3)
Cu6_14 Cu 0.86865(3) 0.8687 1.00000(3)
Cu10_14 Cu 0.6751 0.67511(4) 1.00000(4)
Cu12_14 Cu 0.82489(4) 0.8249 1.00000(4)
Cu2_10 Cu 0.50000(4) 0.6751 0.82489(4)
O1_14 O 0.15711(19) 0.96761(14) 0.88770(15)
O2_14 O 0.19450(14) 0.96774(12) 0.85184(17)
O3_14 O 0.50000(13) 0.7126 0.78743(13)
C1_14 C 0.1837(3) 0.9558(4) 0.8778(3)
C2_14 C 0.1841(5) 0.9197(2) 0.9197(2)
H1_14 H 0.1656 0.9284 0.9284
C3_14 C 0.2002(4) 0.9300(3) 0.8944(3)
C4_14 C 0.2279(4) 0.9211(3) 0.8821(3)
H2_14 H 0.2366 0.9308 0.8641
C5_14 C 0.2424(8) 0.8974(3) 0.8974(3)
C6_14 C 0.2728(9) 0.8865(4) 0.8865(4)
C7_14 C 0.2939(6) 0.8779(3) 0.8779(3)
C8_14 C 0.3232(6) 0.8660(3) 0.8660(3)
C9_14 C 0.3387(2) 0.8785(3) 0.8387(2)
H3_14 H 0.3301 0.8970 0.8301
Cu4_10 Cu 0.50000(3) 0.86865(3) 0.6313
Cu7_10 Cu 0.50000(3) 0.6313 0.86865(3)
Cu9_10 Cu 0.50000(4) 0.82489(4) 0.6751
O5_14 O 0.15711(19) 0.88770(15) 0.96761(14)
O6_10 O 0.46761(14) 0.88770(15) 0.65711(19)
O9_14 O 0.46761(14) 0.65711(19) 0.88770(15)
O13_14 O 0.53239(14) 0.61230(15) 0.84289(19)
O14_10 O 0.53239(14) 0.65711(19) 0.88770(15)
O15_14 O 0.46761(14) 0.61230(15) 0.84289(19)
O16_14 O 0.19450(14) 0.85184(17) 0.96774(12)
O17_10 O 0.46774(12) 0.85184(17) 0.69450(14)
O18_14 O 0.35184(17) 0.96774(12) 0.69450(14)
O19_14 O 0.35184(17) 0.69450(14) 0.96774(12)
O20_14 O 0.46774(12) 0.69450(14) 0.85184(17)
O21_14 O 0.53226(12) 0.64816(17) 0.80550(14)
O22_10 O 0.53226(12) 0.69450(14) 0.85184(17)
O23_14 O 0.46774(12) 0.64816(17) 0.80550(14)
O24_14 O 0.50000(13) 0.5961 0.90388(13)
C10_14 C 0.1837(3) 0.8778(3) 0.9558(4)
C11_14 C 0.4558(4) 0.8778(3) 0.6837(3)
C12_14 C 0.3778(3) 0.9558(4) 0.6837(3)
C13_14 C 0.3778(3) 0.6837(3) 0.9558(4)
C14_14 C 0.4558(4) 0.6837(3) 0.8778(3)
C15_14 C 0.4197(2) 0.9197(2) 0.6841(5)
C16_14 C 0.4197(2) 0.6841(5) 0.9197(2)
H4_14 H 0.4284 0.9284 0.6656
H5_14 H 0.4284 0.6656 0.9284
C17_14 C 0.2002(4) 0.8944(3) 0.9300(3)
C18_14 C 0.4300(3) 0.8944(3) 0.7002(4)
C19_14 C 0.3944(3) 0.9300(3) 0.7002(4)
C20_14 C 0.3944(3) 0.7002(4) 0.9300(3)
C21_14 C 0.4300(3) 0.7002(4) 0.8944(3)
C22_14 C 0.2279(4) 0.8821(3) 0.9211(3)
C23_14 C 0.4211(3) 0.8821(3) 0.7279(4)
C24_14 C 0.3821(3) 0.9211(3) 0.7279(4)
C25_14 C 0.3821(3) 0.7279(4) 0.9211(3)
C26_14 C 0.4211(3) 0.7279(4) 0.8821(3)
H6_14 H 0.2366 0.8641 0.9308
H7_14 H 0.3641 0.9308 0.7366
H8_14 H 0.4308 0.8641 0.7366
H9_14 H 0.4308 0.7366 0.8641
H10_14 H 0.3641 0.7366 0.9308
C27_14 C 0.3974(3) 0.8974(3) 0.7424(8)
C28_14 C 0.3974(3) 0.7424(8) 0.8974(3)
C29_14 C 0.3865(4) 0.8865(4) 0.7728(9)
C30_14 C 0.3865(4) 0.7728(9) 0.8865(4)
C31_14 C 0.3779(3) 0.8779(3) 0.7939(6)
C32_14 C 0.3779(3) 0.7939(6) 0.8779(3)
C33_14 C 0.3660(3) 0.8660(3) 0.8232(6)
C34_14 C 0.3660(3) 0.8232(6) 0.8660(3)
C35_14 C 0.3785(3) 0.8387(2) 0.8387(2)
C36_14 C 0.3387(2) 0.8387(2) 0.8785(3)
H11_14 H 0.3301 0.8301 0.8970
H12_14 H 0.3970 0.8301 0.8301
O4_17 O 0.00000(13) 0.40388(13) 0.5961
O10_9 O 0.03239(14) 0.34289(19) 0.61230(15)
Cu2_11 Cu 0.82489(4) 0.50000(4) 0.6751
O1_15 O 0.88770(15) 0.15711(19) 0.96761(14)
O2_15 O 0.85184(17) 0.19450(14) 0.96774(12)
O3_15 O 0.78743(13) 0.50000(13) 0.7126
O4_18 O 1.00000(13) 0.40388(13) 0.5961
C1_15 C 0.8778(3) 0.1837(3) 0.9558(4)
C2_15 C 0.9197(2) 0.1841(5) 0.9197(2)
H1_15 H 0.9284 0.1656 0.9284
C3_15 C 0.8944(3) 0.2002(4) 0.9300(3)
C4_15 C 0.8821(3) 0.2279(4) 0.9211(3)
H2_15 H 0.8641 0.2366 0.9308
C5_15 C 0.8974(3) 0.2424(8) 0.8974(3)
C6_15 C 0.8865(4) 0.2728(9) 0.8865(4)
C7_15 C 0.8779(3) 0.2939(6) 0.8779(3)
C8_15 C 0.8660(3) 0.3232(6) 0.8660(3)
C9_15 C 0.8387(2) 0.3387(2) 0.8785(3)
H3_15 H 0.8301 0.3301 0.8970
Cu4_11 Cu 0.6313 0.50000(3) 0.86865(3)
Cu7_11 Cu 0.86865(3) 0.50000(3) 0.6313
Cu9_11 Cu 0.6751 0.50000(4) 0.82489(4)
O5_15 O 0.96761(14) 0.15711(19) 0.88770(15)
O6_11 O 0.65711(19) 0.46761(14) 0.88770(15)
O7_9 O 0.65711(19) 0.38770(15) 0.96761(14)
O8_9 O 0.96761(14) 0.38770(15) 0.65711(19)
O9_15 O 0.88770(15) 0.46761(14) 0.65711(19)
O13_15 O 0.84289(19) 0.53239(14) 0.61230(15)
O14_11 O 0.88770(15) 0.53239(14) 0.65711(19)
O15_15 O 0.84289(19) 0.46761(14) 0.61230(15)
O16_15 O 0.96774(12) 0.19450(14) 0.85184(17)
O17_11 O 0.69450(14) 0.46774(12) 0.85184(17)
O18_15 O 0.69450(14) 0.35184(17) 0.96774(12)
O19_15 O 0.96774(12) 0.35184(17) 0.69450(14)
O20_15 O 0.85184(17) 0.46774(12) 0.69450(14)
O21_15 O 0.80550(14) 0.53226(12) 0.64816(17)
O22_11 O 0.85184(17) 0.53226(12) 0.69450(14)
O23_15 O 0.80550(14) 0.46774(12) 0.64816(17)
O24_15 O 0.90388(13) 0.50000(13) 0.5961
C10_15 C 0.9558(4) 0.1837(3) 0.8778(3)
C11_15 C 0.6837(3) 0.4558(4) 0.8778(3)
C12_15 C 0.6837(3) 0.3778(3) 0.9558(4)
C13_15 C 0.9558(4) 0.3778(3) 0.6837(3)
C14_15 C 0.8778(3) 0.4558(4) 0.6837(3)
C15_15 C 0.6841(5) 0.4197(2) 0.9197(2)
C16_15 C 0.9197(2) 0.4197(2) 0.6841(5)
H4_15 H 0.6656 0.4284 0.9284
H5_15 H 0.9284 0.4284 0.6656
C17_15 C 0.9300(3) 0.2002(4) 0.8944(3)
C18_15 C 0.7002(4) 0.4300(3) 0.8944(3)
C19_15 C 0.7002(4) 0.3944(3) 0.9300(3)
C20_15 C 0.9300(3) 0.3944(3) 0.7002(4)
C21_15 C 0.8944(3) 0.4300(3) 0.7002(4)
C22_15 C 0.9211(3) 0.2279(4) 0.8821(3)
C23_15 C 0.7279(4) 0.4211(3) 0.8821(3)
C24_15 C 0.7279(4) 0.3821(3) 0.9211(3)
C25_15 C 0.9211(3) 0.3821(3) 0.7279(4)
C26_15 C 0.8821(3) 0.4211(3) 0.7279(4)
H6_15 H 0.9308 0.2366 0.8641
H7_15 H 0.7366 0.3641 0.9308
H8_15 H 0.7366 0.4308 0.8641
H9_15 H 0.8641 0.4308 0.7366
H10_15 H 0.9308 0.3641 0.7366
C27_15 C 0.7424(8) 0.3974(3) 0.8974(3)
C28_15 C 0.8974(3) 0.3974(3) 0.7424(8)
C29_15 C 0.7728(9) 0.3865(4) 0.8865(4)
C30_15 C 0.8865(4) 0.3865(4) 0.7728(9)
C31_15 C 0.7939(6) 0.3779(3) 0.8779(3)
C32_15 C 0.8779(3) 0.3779(3) 0.7939(6)
C33_15 C 0.8232(6) 0.3660(3) 0.8660(3)
C34_15 C 0.8660(3) 0.3660(3) 0.8232(6)
C35_15 C 0.8387(2) 0.3785(3) 0.8387(2)
C36_15 C 0.8785(3) 0.3387(2) 0.8387(2)
H11_15 H 0.8970 0.3301 0.8301
H12_15 H 0.8301 0.3970 0.8301
Cu2_12 Cu 0.50000(4) 0.6751 0.17511(4)
O1_16 O 0.84289(19) 0.96761(14) 0.11230(15)
O2_16 O 0.80550(14) 0.96774(12) 0.14816(17)
O3_16 O 0.50000(13) 0.7126 0.21257(13)
O4_19 O 0.59612(13) 0.5961 0.00000(13)
C1_16 C 0.8163(3) 0.9558(4) 0.1222(3)
C2_16 C 0.8159(5) 0.9197(2) 0.0803(2)
H1_16 H 0.8344 0.9284 0.0716
C3_16 C 0.7998(4) 0.9300(3) 0.1056(3)
C4_16 C 0.7721(4) 0.9211(3) 0.1179(3)
H2_16 H 0.7634 0.9308 0.1359
C5_16 C 0.7576(8) 0.8974(3) 0.1026(3)
C6_16 C 0.7272(9) 0.8865(4) 0.1135(4)
C7_16 C 0.7061(6) 0.8779(3) 0.1221(3)
C8_16 C 0.6768(6) 0.8660(3) 0.1340(3)
C9_16 C 0.6613(2) 0.8785(3) 0.1613(2)
H3_16 H 0.6699 0.8970 0.1699
Cu4_12 Cu 0.50000(3) 0.86865(3) 0.3687
Cu7_12 Cu 0.50000(3) 0.6313 0.13135(3)
Cu9_12 Cu 0.50000(4) 0.82489(4) 0.3249
O5_16 O 0.84289(19) 0.88770(15) 0.03239(14)
O6_12 O 0.53239(14) 0.88770(15) 0.34289(19)
O8_10 O 0.61230(15) 0.65711(19) 0.03239(14)
O9_16 O 0.53239(14) 0.65711(19) 0.11230(15)
O13_16 O 0.46761(14) 0.61230(15) 0.15711(19)
O14_12 O 0.46761(14) 0.65711(19) 0.11230(15)
O15_16 O 0.53239(14) 0.61230(15) 0.15711(19)
O16_16 O 0.80550(14) 0.85184(17) 0.03226(12)
O17_12 O 0.53226(12) 0.85184(17) 0.30550(14)
O18_16 O 0.64816(17) 0.96774(12) 0.30550(14)
O19_16 O 0.64816(17) 0.69450(14) 0.03226(12)
O20_16 O 0.53226(12) 0.69450(14) 0.14816(17)
O21_16 O 0.46774(12) 0.64816(17) 0.19450(14)
O22_12 O 0.46774(12) 0.69450(14) 0.14816(17)
O23_16 O 0.53226(12) 0.64816(17) 0.19450(14)
O24_16 O 0.50000(13) 0.5961 0.09612(13)
C10_16 C 0.8163(3) 0.8778(3) 0.0442(4)
C11_16 C 0.5442(4) 0.8778(3) 0.3163(3)
C12_16 C 0.6222(3) 0.9558(4) 0.3163(3)
C13_16 C 0.6222(3) 0.6837(3) 0.0442(4)
C14_16 C 0.5442(4) 0.6837(3) 0.1222(3)
C15_16 C 0.5803(2) 0.9197(2) 0.3159(5)
C16_16 C 0.5803(2) 0.6841(5) 0.0803(2)
H4_16 H 0.5716 0.9284 0.3344
H5_16 H 0.5716 0.6656 0.0716
C17_16 C 0.7998(4) 0.8944(3) 0.0700(3)
C18_16 C 0.5700(3) 0.8944(3) 0.2998(4)
C19_16 C 0.6056(3) 0.9300(3) 0.2998(4)
C20_16 C 0.6056(3) 0.7002(4) 0.0700(3)
C21_16 C 0.5700(3) 0.7002(4) 0.1056(3)
C22_16 C 0.7721(4) 0.8821(3) 0.0789(3)
C23_16 C 0.5789(3) 0.8821(3) 0.2721(4)
C24_16 C 0.6179(3) 0.9211(3) 0.2721(4)
C25_16 C 0.6179(3) 0.7279(4) 0.0789(3)
C26_16 C 0.5789(3) 0.7279(4) 0.1179(3)
H6_16 H 0.7634 0.8641 0.0692
H7_16 H 0.6359 0.9308 0.2634
H8_16 H 0.5692 0.8641 0.2634
H9_16 H 0.5692 0.7366 0.1359
H10_16 H 0.6359 0.7366 0.0692
C27_16 C 0.6026(3) 0.8974(3) 0.2576(8)
C28_16 C 0.6026(3) 0.7424(8) 0.1026(3)
C29_16 C 0.6135(4) 0.8865(4) 0.2272(9)
C30_16 C 0.6135(4) 0.7728(9) 0.1135(4)
C31_16 C 0.6221(3) 0.8779(3) 0.2061(6)
C32_16 C 0.6221(3) 0.7939(6) 0.1221(3)
C33_16 C 0.6340(3) 0.8660(3) 0.1768(6)
C34_16 C 0.6340(3) 0.8232(6) 0.1340(3)
C35_16 C 0.6215(3) 0.8387(2) 0.1613(2)
C36_16 C 0.6613(2) 0.8387(2) 0.1215(3)
H11_16 H 0.6699 0.8301 0.1030
H12_16 H 0.6030 0.8301 0.1699
O4_20 O 0.59612(13) 0.5961 1.00000(13)
O10_10 O 0.65711(19) 0.61230(15) 0.96761(14)
O11_6 O 0.61230(15) 0.65711(19) 0.96761(14)
O4_21 O 0.59612(13) 0.4039 -0.00000(13)
O10_11 O 0.65711(19) 0.38770(15) 0.03239(14)
O1_17 O 0.84289(19) 0.03239(14) 0.88770(15)
O2_17 O 0.80550(14) 0.03226(12) 0.85184(17)
O3_17 O 0.50000(13) 0.2874 0.78743(13)
O4_22 O 0.59612(13) 0.4039 1.00000(13)
C1_17 C 0.8163(3) 0.0442(4) 0.8778(3)
C2_17 C 0.8159(5) 0.0803(2) 0.9197(2)
H1_17 H 0.8344 0.0716 0.9284
C3_17 C 0.7998(4) 0.0700(3) 0.8944(3)
C4_17 C 0.7721(4) 0.0789(3) 0.8821(3)
H2_17 H 0.7634 0.0692 0.8641
C5_17 C 0.7576(8) 0.1026(3) 0.8974(3)
C6_17 C 0.7272(9) 0.1135(4) 0.8865(4)
C7_17 C 0.7061(6) 0.1221(3) 0.8779(3)
C8_17 C 0.6768(6) 0.1340(3) 0.8660(3)
C9_17 C 0.6613(2) 0.1215(3) 0.8387(2)
H3_17 H 0.6699 0.1030 0.8301
O5_17 O 0.84289(19) 0.11230(15) 0.96761(14)
O8_11 O 0.61230(15) 0.34289(19) 0.96761(14)
O9_17 O 0.53239(14) 0.34289(19) 0.88770(15)
O13_17 O 0.46761(14) 0.38770(15) 0.84289(19)
O15_17 O 0.53239(14) 0.38770(15) 0.84289(19)
O16_17 O 0.80550(14) 0.14816(17) 0.96774(12)
O18_17 O 0.64816(17) 0.03226(12) 0.69450(14)
O19_17 O 0.64816(17) 0.30550(14) 0.96774(12)
O20_17 O 0.53226(12) 0.30550(14) 0.85184(17)
O21_17 O 0.46774(12) 0.35184(17) 0.80550(14)
O23_17 O 0.53226(12) 0.35184(17) 0.80550(14)
O24_17 O 0.50000(13) 0.4039 0.90388(13)
C10_17 C 0.8163(3) 0.1222(3) 0.9558(4)
C11_17 C 0.5442(4) 0.1222(3) 0.6837(3)
C12_17 C 0.6222(3) 0.0442(4) 0.6837(3)
C13_17 C 0.6222(3) 0.3163(3) 0.9558(4)
C14_17 C 0.5442(4) 0.3163(3) 0.8778(3)
C15_17 C 0.5803(2) 0.0803(2) 0.6841(5)
C16_17 C 0.5803(2) 0.3159(5) 0.9197(2)
H4_17 H 0.5716 0.0716 0.6656
H5_17 H 0.5716 0.3344 0.9284
C17_17 C 0.7998(4) 0.1056(3) 0.9300(3)
C18_17 C 0.5700(3) 0.1056(3) 0.7002(4)
C19_17 C 0.6056(3) 0.0700(3) 0.7002(4)
C20_17 C 0.6056(3) 0.2998(4) 0.9300(3)
C21_17 C 0.5700(3) 0.2998(4) 0.8944(3)
C22_17 C 0.7721(4) 0.1179(3) 0.9211(3)
C23_17 C 0.5789(3) 0.1179(3) 0.7279(4)
C24_17 C 0.6179(3) 0.0789(3) 0.7279(4)
C25_17 C 0.6179(3) 0.2721(4) 0.9211(3)
C26_17 C 0.5789(3) 0.2721(4) 0.8821(3)
H6_17 H 0.7634 0.1359 0.9308
H7_17 H 0.6359 0.0692 0.7366
H8_17 H 0.5692 0.1359 0.7366
H9_17 H 0.5692 0.2634 0.8641
H10_17 H 0.6359 0.2634 0.9308
C27_17 C 0.6026(3) 0.1026(3) 0.7424(8)
C28_17 C 0.6026(3) 0.2576(8) 0.8974(3)
C29_17 C 0.6135(4) 0.1135(4) 0.7728(9)
C30_17 C 0.6135(4) 0.2272(9) 0.8865(4)
C31_17 C 0.6221(3) 0.1221(3) 0.7939(6)
C32_17 C 0.6221(3) 0.2061(6) 0.8779(3)
C33_17 C 0.6340(3) 0.1340(3) 0.8232(6)
C34_17 C 0.6340(3) 0.1768(6) 0.8660(3)
C35_17 C 0.6215(3) 0.1613(2) 0.8387(2)
C36_17 C 0.6613(2) 0.1613(2) 0.8785(3)
H11_17 H 0.6699 0.1699 0.8970
H12_17 H 0.6030 0.1699 0.8301
O1_18 O 0.11230(15) 0.84289(19) 0.96761(14)
O2_18 O 0.14816(17) 0.80550(14) 0.96774(12)
O3_18 O 0.21257(13) 0.50000(13) 0.7126
O4_23 O 0.00000(13) 0.59612(13) 0.5961
C1_18 C 0.1222(3) 0.8163(3) 0.9558(4)
C2_18 C 0.0803(2) 0.8159(5) 0.9197(2)
H1_18 H 0.0716 0.8344 0.9284
C3_18 C 0.1056(3) 0.7998(4) 0.9300(3)
C4_18 C 0.1179(3) 0.7721(4) 0.9211(3)
H2_18 H 0.1359 0.7634 0.9308
C5_18 C 0.1026(3) 0.7576(8) 0.8974(3)
C6_18 C 0.1135(4) 0.7272(9) 0.8865(4)
C7_18 C 0.1221(3) 0.7061(6) 0.8779(3)
C8_18 C 0.1340(3) 0.6768(6) 0.8660(3)
C9_18 C 0.1613(2) 0.6613(2) 0.8785(3)
H3_18 H 0.1699 0.6699 0.8970
O5_18 O 0.03239(14) 0.84289(19) 0.88770(15)
O8_12 O 0.03239(14) 0.61230(15) 0.65711(19)
O9_18 O 0.11230(15) 0.53239(14) 0.65711(19)
O13_18 O 0.15711(19) 0.46761(14) 0.61230(15)
O15_18 O 0.15711(19) 0.53239(14) 0.61230(15)
O16_18 O 0.03226(12) 0.80550(14) 0.85184(17)
O18_18 O 0.30550(14) 0.64816(17) 0.96774(12)
O19_18 O 0.03226(12) 0.64816(17) 0.69450(14)
O20_18 O 0.14816(17) 0.53226(12) 0.69450(14)
O21_18 O 0.19450(14) 0.46774(12) 0.64816(17)
O23_18 O 0.19450(14) 0.53226(12) 0.64816(17)
O24_18 O 0.09612(13) 0.50000(13) 0.5961
C10_18 C 0.0442(4) 0.8163(3) 0.8778(3)
C11_18 C 0.3163(3) 0.5442(4) 0.8778(3)
C12_18 C 0.3163(3) 0.6222(3) 0.9558(4)
C13_18 C 0.0442(4) 0.6222(3) 0.6837(3)
C14_18 C 0.1222(3) 0.5442(4) 0.6837(3)
C15_18 C 0.3159(5) 0.5803(2) 0.9197(2)
C16_18 C 0.0803(2) 0.5803(2) 0.6841(5)
H4_18 H 0.3344 0.5716 0.9284
H5_18 H 0.0716 0.5716 0.6656
C17_18 C 0.0700(3) 0.7998(4) 0.8944(3)
C18_18 C 0.2998(4) 0.5700(3) 0.8944(3)
C19_18 C 0.2998(4) 0.6056(3) 0.9300(3)
C20_18 C 0.0700(3) 0.6056(3) 0.7002(4)
C21_18 C 0.1056(3) 0.5700(3) 0.7002(4)
C22_18 C 0.0789(3) 0.7721(4) 0.8821(3)
C23_18 C 0.2721(4) 0.5789(3) 0.8821(3)
C24_18 C 0.2721(4) 0.6179(3) 0.9211(3)
C25_18 C 0.0789(3) 0.6179(3) 0.7279(4)
C26_18 C 0.1179(3) 0.5789(3) 0.7279(4)
H6_18 H 0.0692 0.7634 0.8641
H7_18 H 0.2634 0.6359 0.9308
H8_18 H 0.2634 0.5692 0.8641
H9_18 H 0.1359 0.5692 0.7366
H10_18 H 0.0692 0.6359 0.7366
C27_18 C 0.2576(8) 0.6026(3) 0.8974(3)
C28_18 C 0.1026(3) 0.6026(3) 0.7424(8)
C29_18 C 0.2272(9) 0.6135(4) 0.8865(4)
C30_18 C 0.1135(4) 0.6135(4) 0.7728(9)
C31_18 C 0.2061(6) 0.6221(3) 0.8779(3)
C32_18 C 0.1221(3) 0.6221(3) 0.7939(6)
C33_18 C 0.1768(6) 0.6340(3) 0.8660(3)
C34_18 C 0.1340(3) 0.6340(3) 0.8232(6)
C35_18 C 0.1613(2) 0.6215(3) 0.8387(2)
C36_18 C 0.1215(3) 0.6613(2) 0.8387(2)
H11_18 H 0.1030 0.6699 0.8301
H12_18 H 0.1699 0.6030 0.8301
O4_24 O 1.00000(13) 0.59612(13) 0.5961
O10_12 O 0.96761(14) 0.65711(19) 0.61230(15)
O11_7 O 0.96761(14) 0.61230(15) 0.65711(19)
O1_19 O 0.11230(15) 0.03239(14) 0.84289(19)
O2_19 O 0.14816(17) 0.03226(12) 0.80550(14)
O3_19 O 0.21257(13) 0.2874 0.50000(13)
C1_19 C 0.1222(3) 0.0442(4) 0.8163(3)
C2_19 C 0.0803(2) 0.0803(2) 0.8159(5)
H1_19 H 0.0716 0.0716 0.8344
C3_19 C 0.1056(3) 0.0700(3) 0.7998(4)
C4_19 C 0.1179(3) 0.0789(3) 0.7721(4)
H2_19 H 0.1359 0.0692 0.7634
C5_19 C 0.1026(3) 0.1026(3) 0.7576(8)
C6_19 C 0.1135(4) 0.1135(4) 0.7272(9)
C7_19 C 0.1221(3) 0.1221(3) 0.7061(6)
C8_19 C 0.1340(3) 0.1340(3) 0.6768(6)
C9_19 C 0.1613(2) 0.1215(3) 0.6613(2)
H3_19 H 0.1699 0.1030 0.6699
O5_19 O 0.03239(14) 0.11230(15) 0.84289(19)
O9_19 O 0.11230(15) 0.34289(19) 0.53239(14)
O13_19 O 0.15711(19) 0.38770(15) 0.46761(14)
O15_19 O 0.15711(19) 0.38770(15) 0.53239(14)
O16_19 O 0.03226(12) 0.14816(17) 0.80550(14)
O18_19 O 0.30550(14) 0.03226(12) 0.64816(17)
O19_19 O 0.03226(12) 0.30550(14) 0.64816(17)
O20_19 O 0.14816(17) 0.30550(14) 0.53226(12)
O21_19 O 0.19450(14) 0.35184(17) 0.46774(12)
O23_19 O 0.19450(14) 0.35184(17) 0.53226(12)
O24_19 O 0.09612(13) 0.4039 0.50000(13)
C10_19 C 0.0442(4) 0.1222(3) 0.8163(3)
C11_19 C 0.3163(3) 0.1222(3) 0.5442(4)
C12_19 C 0.3163(3) 0.0442(4) 0.6222(3)
C13_19 C 0.0442(4) 0.3163(3) 0.6222(3)
C14_19 C 0.1222(3) 0.3163(3) 0.5442(4)
C15_19 C 0.3159(5) 0.0803(2) 0.5803(2)
C16_19 C 0.0803(2) 0.3159(5) 0.5803(2)
H4_19 H 0.3344 0.0716 0.5716
H5_19 H 0.0716 0.3344 0.5716
C17_19 C 0.0700(3) 0.1056(3) 0.7998(4)
C18_19 C 0.2998(4) 0.1056(3) 0.5700(3)
C19_19 C 0.2998(4) 0.0700(3) 0.6056(3)
C20_19 C 0.0700(3) 0.2998(4) 0.6056(3)
C21_19 C 0.1056(3) 0.2998(4) 0.5700(3)
C22_19 C 0.0789(3) 0.1179(3) 0.7721(4)
C23_19 C 0.2721(4) 0.1179(3) 0.5789(3)
C24_19 C 0.2721(4) 0.0789(3) 0.6179(3)
C25_19 C 0.0789(3) 0.2721(4) 0.6179(3)
C26_19 C 0.1179(3) 0.2721(4) 0.5789(3)
H6_19 H 0.0692 0.1359 0.7634
H7_19 H 0.2634 0.0692 0.6359
H8_19 H 0.2634 0.1359 0.5692
H9_19 H 0.1359 0.2634 0.5692
H10_19 H 0.0692 0.2634 0.6359
C27_19 C 0.2576(8) 0.1026(3) 0.6026(3)
C28_19 C 0.1026(3) 0.2576(8) 0.6026(3)
C29_19 C 0.2272(9) 0.1135(4) 0.6135(4)
C30_19 C 0.1135(4) 0.2272(9) 0.6135(4)
C31_19 C 0.2061(6) 0.1221(3) 0.6221(3)
C32_19 C 0.1221(3) 0.2061(6) 0.6221(3)
C33_19 C 0.1768(6) 0.1340(3) 0.6340(3)
C34_19 C 0.1340(3) 0.1768(6) 0.6340(3)
C35_19 C 0.1613(2) 0.1613(2) 0.6215(3)
C36_19 C 0.1215(3) 0.1613(2) 0.6613(2)
H11_19 H 0.1030 0.1699 0.6699
H12_19 H 0.1699 0.1699 0.6030
O1_20 O 0.88770(15) 0.96761(14) 0.84289(19)
O2_20 O 0.85184(17) 0.96774(12) 0.80550(14)
O3_20 O 0.78743(13) 0.7126 0.50000(13)
C1_20 C 0.8778(3) 0.9558(4) 0.8163(3)
C2_20 C 0.9197(2) 0.9197(2) 0.8159(5)
H1_20 H 0.9284 0.9284 0.8344
C3_20 C 0.8944(3) 0.9300(3) 0.7998(4)
C4_20 C 0.8821(3) 0.9211(3) 0.7721(4)
H2_20 H 0.8641 0.9308 0.7634
C5_20 C 0.8974(3) 0.8974(3) 0.7576(8)
C6_20 C 0.8865(4) 0.8865(4) 0.7272(9)
C7_20 C 0.8779(3) 0.8779(3) 0.7061(6)
C8_20 C 0.8660(3) 0.8660(3) 0.6768(6)
C9_20 C 0.8387(2) 0.8785(3) 0.6613(2)
H3_20 H 0.8301 0.8970 0.6699
O5_20 O 0.96761(14) 0.88770(15) 0.84289(19)
O9_20 O 0.88770(15) 0.65711(19) 0.53239(14)
O13_20 O 0.84289(19) 0.61230(15) 0.46761(14)
O15_20 O 0.84289(19) 0.61230(15) 0.53239(14)
O16_20 O 0.96774(12) 0.85184(17) 0.80550(14)
O18_20 O 0.69450(14) 0.96774(12) 0.64816(17)
O19_20 O 0.96774(12) 0.69450(14) 0.64816(17)
O20_20 O 0.85184(17) 0.69450(14) 0.53226(12)
O21_20 O 0.80550(14) 0.64816(17) 0.46774(12)
O23_20 O 0.80550(14) 0.64816(17) 0.53226(12)
O24_20 O 0.90388(13) 0.5961 0.50000(13)
C10_20 C 0.9558(4) 0.8778(3) 0.8163(3)
C11_20 C 0.6837(3) 0.8778(3) 0.5442(4)
C12_20 C 0.6837(3) 0.9558(4) 0.6222(3)
C13_20 C 0.9558(4) 0.6837(3) 0.6222(3)
C14_20 C 0.8778(3) 0.6837(3) 0.5442(4)
C15_20 C 0.6841(5) 0.9197(2) 0.5803(2)
C16_20 C 0.9197(2) 0.6841(5) 0.5803(2)
H4_20 H 0.6656 0.9284 0.5716
H5_20 H 0.9284 0.6656 0.5716
C17_20 C 0.9300(3) 0.8944(3) 0.7998(4)
C18_20 C 0.7002(4) 0.8944(3) 0.5700(3)
C19_20 C 0.7002(4) 0.9300(3) 0.6056(3)
C20_20 C 0.9300(3) 0.7002(4) 0.6056(3)
C21_20 C 0.8944(3) 0.7002(4) 0.5700(3)
C22_20 C 0.9211(3) 0.8821(3) 0.7721(4)
C23_20 C 0.7279(4) 0.8821(3) 0.5789(3)
C24_20 C 0.7279(4) 0.9211(3) 0.6179(3)
C25_20 C 0.9211(3) 0.7279(4) 0.6179(3)
C26_20 C 0.8821(3) 0.7279(4) 0.5789(3)
H6_20 H 0.9308 0.8641 0.7634
H7_20 H 0.7366 0.9308 0.6359
H8_20 H 0.7366 0.8641 0.5692
H9_20 H 0.8641 0.7366 0.5692
H10_20 H 0.9308 0.7366 0.6359
C27_20 C 0.7424(8) 0.8974(3) 0.6026(3)
C28_20 C 0.8974(3) 0.7424(8) 0.6026(3)
C29_20 C 0.7728(9) 0.8865(4) 0.6135(4)
C30_20 C 0.8865(4) 0.7728(9) 0.6135(4)
C31_20 C 0.7939(6) 0.8779(3) 0.6221(3)
C32_20 C 0.8779(3) 0.7939(6) 0.6221(3)
C33_20 C 0.8232(6) 0.8660(3) 0.6340(3)
C34_20 C 0.8660(3) 0.8232(6) 0.6340(3)
C35_20 C 0.8387(2) 0.8387(2) 0.6215(3)
C36_20 C 0.8785(3) 0.8387(2) 0.6613(2)
H11_20 H 0.8970 0.8301 0.6699
H12_20 H 0.8301 0.8301 0.6030
O1_21 O 0.96761(14) 0.15711(19) 0.11230(15)
O2_21 O 0.96774(12) 0.19450(14) 0.14816(17)
O3_21 O 0.7126 0.50000(13) 0.21257(13)
C1_21 C 0.9558(4) 0.1837(3) 0.1222(3)
C2_21 C 0.9197(2) 0.1841(5) 0.0803(2)
H1_21 H 0.9284 0.1656 0.0716
C3_21 C 0.9300(3) 0.2002(4) 0.1056(3)
C4_21 C 0.9211(3) 0.2279(4) 0.1179(3)
H2_21 H 0.9308 0.2366 0.1359
C5_21 C 0.8974(3) 0.2424(8) 0.1026(3)
C6_21 C 0.8865(4) 0.2728(9) 0.1135(4)
C7_21 C 0.8779(3) 0.2939(6) 0.1221(3)
C8_21 C 0.8660(3) 0.3232(6) 0.1340(3)
C9_21 C 0.8785(3) 0.3387(2) 0.1613(2)
H3_21 H 0.8970 0.3301 0.1699
O5_21 O 0.88770(15) 0.15711(19) 0.03239(14)
O9_21 O 0.65711(19) 0.46761(14) 0.11230(15)
O13_21 O 0.61230(15) 0.53239(14) 0.15711(19)
O15_21 O 0.61230(15) 0.46761(14) 0.15711(19)
O16_21 O 0.85184(17) 0.19450(14) 0.03226(12)
O18_21 O 0.96774(12) 0.35184(17) 0.30550(14)
O19_21 O 0.69450(14) 0.35184(17) 0.03226(12)
O20_21 O 0.69450(14) 0.46774(12) 0.14816(17)
O21_21 O 0.64816(17) 0.53226(12) 0.19450(14)
O23_21 O 0.64816(17) 0.46774(12) 0.19450(14)
O24_21 O 0.5961 0.50000(13) 0.09612(13)
C10_21 C 0.8778(3) 0.1837(3) 0.0442(4)
C11_21 C 0.8778(3) 0.4558(4) 0.3163(3)
C12_21 C 0.9558(4) 0.3778(3) 0.3163(3)
C13_21 C 0.6837(3) 0.3778(3) 0.0442(4)
C14_21 C 0.6837(3) 0.4558(4) 0.1222(3)
C15_21 C 0.9197(2) 0.4197(2) 0.3159(5)
C16_21 C 0.6841(5) 0.4197(2) 0.0803(2)
H4_21 H 0.9284 0.4284 0.3344
H5_21 H 0.6656 0.4284 0.0716
C17_21 C 0.8944(3) 0.2002(4) 0.0700(3)
C18_21 C 0.8944(3) 0.4300(3) 0.2998(4)
C19_21 C 0.9300(3) 0.3944(3) 0.2998(4)
C20_21 C 0.7002(4) 0.3944(3) 0.0700(3)
C21_21 C 0.7002(4) 0.4300(3) 0.1056(3)
C22_21 C 0.8821(3) 0.2279(4) 0.0789(3)
C23_21 C 0.8821(3) 0.4211(3) 0.2721(4)
C24_21 C 0.9211(3) 0.3821(3) 0.2721(4)
C25_21 C 0.7279(4) 0.3821(3) 0.0789(3)
C26_21 C 0.7279(4) 0.4211(3) 0.1179(3)
H6_21 H 0.8641 0.2366 0.0692
H7_21 H 0.9308 0.3641 0.2634
H8_21 H 0.8641 0.4308 0.2634
H9_21 H 0.7366 0.4308 0.1359
H10_21 H 0.7366 0.3641 0.0692
C27_21 C 0.8974(3) 0.3974(3) 0.2576(8)
C28_21 C 0.7424(8) 0.3974(3) 0.1026(3)
C29_21 C 0.8865(4) 0.3865(4) 0.2272(9)
C30_21 C 0.7728(9) 0.3865(4) 0.1135(4)
C31_21 C 0.8779(3) 0.3779(3) 0.2061(6)
C32_21 C 0.7939(6) 0.3779(3) 0.1221(3)
C33_21 C 0.8660(3) 0.3660(3) 0.1768(6)
C34_21 C 0.8232(6) 0.3660(3) 0.1340(3)
C35_21 C 0.8387(2) 0.3785(3) 0.1613(2)
C36_21 C 0.8387(2) 0.3387(2) 0.1215(3)
H11_21 H 0.8301 0.3301 0.1030
H12_21 H 0.8301 0.3970 0.1699
O1_22 O 0.96761(14) 0.84289(19) 0.88770(15)
O2_22 O 0.96774(12) 0.80550(14) 0.85184(17)
O3_22 O 0.7126 0.50000(13) 0.78743(13)
C1_22 C 0.9558(4) 0.8163(3) 0.8778(3)
C2_22 C 0.9197(2) 0.8159(5) 0.9197(2)
H1_22 H 0.9284 0.8344 0.9284
C3_22 C 0.9300(3) 0.7998(4) 0.8944(3)
C4_22 C 0.9211(3) 0.7721(4) 0.8821(3)
H2_22 H 0.9308 0.7634 0.8641
C5_22 C 0.8974(3) 0.7576(8) 0.8974(3)
C6_22 C 0.8865(4) 0.7272(9) 0.8865(4)
C7_22 C 0.8779(3) 0.7061(6) 0.8779(3)
C8_22 C 0.8660(3) 0.6768(6) 0.8660(3)
C9_22 C 0.8785(3) 0.6613(2) 0.8387(2)
H3_22 H 0.8970 0.6699 0.8301
O5_22 O 0.88770(15) 0.84289(19) 0.96761(14)
O9_22 O 0.65711(19) 0.53239(14) 0.88770(15)
O13_22 O 0.61230(15) 0.46761(14) 0.84289(19)
O15_22 O 0.61230(15) 0.53239(14) 0.84289(19)
O16_22 O 0.85184(17) 0.80550(14) 0.96774(12)
O18_22 O 0.96774(12) 0.64816(17) 0.69450(14)
O19_22 O 0.69450(14) 0.64816(17) 0.96774(12)
O20_22 O 0.69450(14) 0.53226(12) 0.85184(17)
O21_22 O 0.64816(17) 0.46774(12) 0.80550(14)
O23_22 O 0.64816(17) 0.53226(12) 0.80550(14)
O24_22 O 0.5961 0.50000(13) 0.90388(13)
C10_22 C 0.8778(3) 0.8163(3) 0.9558(4)
C11_22 C 0.8778(3) 0.5442(4) 0.6837(3)
C12_22 C 0.9558(4) 0.6222(3) 0.6837(3)
C13_22 C 0.6837(3) 0.6222(3) 0.9558(4)
C14_22 C 0.6837(3) 0.5442(4) 0.8778(3)
C15_22 C 0.9197(2) 0.5803(2) 0.6841(5)
C16_22 C 0.6841(5) 0.5803(2) 0.9197(2)
H4_22 H 0.9284 0.5716 0.6656
H5_22 H 0.6656 0.5716 0.9284
C17_22 C 0.8944(3) 0.7998(4) 0.9300(3)
C18_22 C 0.8944(3) 0.5700(3) 0.7002(4)
C19_22 C 0.9300(3) 0.6056(3) 0.7002(4)
C20_22 C 0.7002(4) 0.6056(3) 0.9300(3)
C21_22 C 0.7002(4) 0.5700(3) 0.8944(3)
C22_22 C 0.8821(3) 0.7721(4) 0.9211(3)
C23_22 C 0.8821(3) 0.5789(3) 0.7279(4)
C24_22 C 0.9211(3) 0.6179(3) 0.7279(4)
C25_22 C 0.7279(4) 0.6179(3) 0.9211(3)
C26_22 C 0.7279(4) 0.5789(3) 0.8821(3)
H6_22 H 0.8641 0.7634 0.9308
H7_22 H 0.9308 0.6359 0.7366
H8_22 H 0.8641 0.5692 0.7366
H9_22 H 0.7366 0.5692 0.8641
H10_22 H 0.7366 0.6359 0.9308
C27_22 C 0.8974(3) 0.6026(3) 0.7424(8)
C28_22 C 0.7424(8) 0.6026(3) 0.8974(3)
C29_22 C 0.8865(4) 0.6135(4) 0.7728(9)
C30_22 C 0.7728(9) 0.6135(4) 0.8865(4)
C31_22 C 0.8779(3) 0.6221(3) 0.7939(6)
C32_22 C 0.7939(6) 0.6221(3) 0.8779(3)
C33_22 C 0.8660(3) 0.6340(3) 0.8232(6)
C34_22 C 0.8232(6) 0.6340(3) 0.8660(3)
C35_22 C 0.8387(2) 0.6215(3) 0.8387(2)
C36_22 C 0.8387(2) 0.6613(2) 0.8785(3)
H11_22 H 0.8301 0.6699 0.8970
H12_22 H 0.8301 0.6030 0.8301
O1_23 O 0.15711(19) 0.88770(15) 0.03239(14)
O2_23 O 0.19450(14) 0.85184(17) 0.03226(12)
O3_23 O 0.50000(13) 0.78743(13) 0.2874
C1_23 C 0.1837(3) 0.8778(3) 0.0442(4)
C2_23 C 0.1841(5) 0.9197(2) 0.0803(2)
H1_23 H 0.1656 0.9284 0.0716
C3_23 C 0.2002(4) 0.8944(3) 0.0700(3)
C4_23 C 0.2279(4) 0.8821(3) 0.0789(3)
H2_23 H 0.2366 0.8641 0.0692
C5_23 C 0.2424(8) 0.8974(3) 0.1026(3)
C6_23 C 0.2728(9) 0.8865(4) 0.1135(4)
C7_23 C 0.2939(6) 0.8779(3) 0.1221(3)
C8_23 C 0.3232(6) 0.8660(3) 0.1340(3)
C9_23 C 0.3387(2) 0.8387(2) 0.1215(3)
H3_23 H 0.3301 0.8301 0.1030
O5_23 O 0.15711(19) 0.96761(14) 0.11230(15)
O9_23 O 0.46761(14) 0.88770(15) 0.34289(19)
O13_23 O 0.53239(14) 0.84289(19) 0.38770(15)
O15_23 O 0.46761(14) 0.84289(19) 0.38770(15)
O16_23 O 0.19450(14) 0.96774(12) 0.14816(17)
O18_23 O 0.35184(17) 0.69450(14) 0.03226(12)
O19_23 O 0.35184(17) 0.96774(12) 0.30550(14)
O20_23 O 0.46774(12) 0.85184(17) 0.30550(14)
O21_23 O 0.53226(12) 0.80550(14) 0.35184(17)
O23_23 O 0.46774(12) 0.80550(14) 0.35184(17)
O24_23 O 0.50000(13) 0.90388(13) 0.4039
C10_23 C 0.1837(3) 0.9558(4) 0.1222(3)
C11_23 C 0.4558(4) 0.6837(3) 0.1222(3)
C12_23 C 0.3778(3) 0.6837(3) 0.0442(4)
C13_23 C 0.3778(3) 0.9558(4) 0.3163(3)
C14_23 C 0.4558(4) 0.8778(3) 0.3163(3)
C15_23 C 0.4197(2) 0.6841(5) 0.0803(2)
C16_23 C 0.4197(2) 0.9197(2) 0.3159(5)
H4_23 H 0.4284 0.6656 0.0716
H5_23 H 0.4284 0.9284 0.3344
C17_23 C 0.2002(4) 0.9300(3) 0.1056(3)
C18_23 C 0.4300(3) 0.7002(4) 0.1056(3)
C19_23 C 0.3944(3) 0.7002(4) 0.0700(3)
C20_23 C 0.3944(3) 0.9300(3) 0.2998(4)
C21_23 C 0.4300(3) 0.8944(3) 0.2998(4)
C22_23 C 0.2279(4) 0.9211(3) 0.1179(3)
C23_23 C 0.4211(3) 0.7279(4) 0.1179(3)
C24_23 C 0.3821(3) 0.7279(4) 0.0789(3)
C25_23 C 0.3821(3) 0.9211(3) 0.2721(4)
C26_23 C 0.4211(3) 0.8821(3) 0.2721(4)
H6_23 H 0.2366 0.9308 0.1359
H7_23 H 0.3641 0.7366 0.0692
H8_23 H 0.4308 0.7366 0.1359
H9_23 H 0.4308 0.8641 0.2634
H10_23 H 0.3641 0.9308 0.2634
C27_23 C 0.3974(3) 0.7424(8) 0.1026(3)
C28_23 C 0.3974(3) 0.8974(3) 0.2576(8)
C29_23 C 0.3865(4) 0.7728(9) 0.1135(4)
C30_23 C 0.3865(4) 0.8865(4) 0.2272(9)
C31_23 C 0.3779(3) 0.7939(6) 0.1221(3)
C32_23 C 0.3779(3) 0.8779(3) 0.2061(6)
C33_23 C 0.3660(3) 0.8232(6) 0.1340(3)
C34_23 C 0.3660(3) 0.8660(3) 0.1768(6)
C35_23 C 0.3785(3) 0.8387(2) 0.1613(2)
C36_23 C 0.3387(2) 0.8785(3) 0.1613(2)
H11_23 H 0.3301 0.8970 0.1699
H12_23 H 0.3970 0.8301 0.1699
O1_24 O 0.84289(19) 0.88770(15) 0.96761(14)
O2_24 O 0.80550(14) 0.85184(17) 0.96774(12)
O3_24 O 0.50000(13) 0.78743(13) 0.7126
C1_24 C 0.8163(3) 0.8778(3) 0.9558(4)
C2_24 C 0.8159(5) 0.9197(2) 0.9197(2)
H1_24 H 0.8344 0.9284 0.9284
C3_24 C 0.7998(4) 0.8944(3) 0.9300(3)
C4_24 C 0.7721(4) 0.8821(3) 0.9211(3)
H2_24 H 0.7634 0.8641 0.9308
C5_24 C 0.7576(8) 0.8974(3) 0.8974(3)
C6_24 C 0.7272(9) 0.8865(4) 0.8865(4)
C7_24 C 0.7061(6) 0.8779(3) 0.8779(3)
C8_24 C 0.6768(6) 0.8660(3) 0.8660(3)
C9_24 C 0.6613(2) 0.8387(2) 0.8785(3)
H3_24 H 0.6699 0.8301 0.8970
O5_24 O 0.84289(19) 0.96761(14) 0.88770(15)
O9_24 O 0.53239(14) 0.88770(15) 0.65711(19)
O13_24 O 0.46761(14) 0.84289(19) 0.61230(15)
O15_24 O 0.53239(14) 0.84289(19) 0.61230(15)
O16_24 O 0.80550(14) 0.96774(12) 0.85184(17)
O18_24 O 0.64816(17) 0.69450(14) 0.96774(12)
O19_24 O 0.64816(17) 0.96774(12) 0.69450(14)
O20_24 O 0.53226(12) 0.85184(17) 0.69450(14)
O21_24 O 0.46774(12) 0.80550(14) 0.64816(17)
O23_24 O 0.53226(12) 0.80550(14) 0.64816(17)
O24_24 O 0.50000(13) 0.90388(13) 0.5961
C10_24 C 0.8163(3) 0.9558(4) 0.8778(3)
C11_24 C 0.5442(4) 0.6837(3) 0.8778(3)
C12_24 C 0.6222(3) 0.6837(3) 0.9558(4)
C13_24 C 0.6222(3) 0.9558(4) 0.6837(3)
C14_24 C 0.5442(4) 0.8778(3) 0.6837(3)
C15_24 C 0.5803(2) 0.6841(5) 0.9197(2)
C16_24 C 0.5803(2) 0.9197(2) 0.6841(5)
H4_24 H 0.5716 0.6656 0.9284
H5_24 H 0.5716 0.9284 0.6656
C17_24 C 0.7998(4) 0.9300(3) 0.8944(3)
C18_24 C 0.5700(3) 0.7002(4) 0.8944(3)
C19_24 C 0.6056(3) 0.7002(4) 0.9300(3)
C20_24 C 0.6056(3) 0.9300(3) 0.7002(4)
C21_24 C 0.5700(3) 0.8944(3) 0.7002(4)
C22_24 C 0.7721(4) 0.9211(3) 0.8821(3)
C23_24 C 0.5789(3) 0.7279(4) 0.8821(3)
C24_24 C 0.6179(3) 0.7279(4) 0.9211(3)
C25_24 C 0.6179(3) 0.9211(3) 0.7279(4)
C26_24 C 0.5789(3) 0.8821(3) 0.7279(4)
H6_24 H 0.7634 0.9308 0.8641
H7_24 H 0.6359 0.7366 0.9308
H8_24 H 0.5692 0.7366 0.8641
H9_24 H 0.5692 0.8641 0.7366
H10_24 H 0.6359 0.9308 0.7366
C27_24 C 0.6026(3) 0.7424(8) 0.8974(3)
C28_24 C 0.6026(3) 0.8974(3) 0.7424(8)
C29_24 C 0.6135(4) 0.7728(9) 0.8865(4)
C30_24 C 0.6135(4) 0.8865(4) 0.7728(9)
C31_24 C 0.6221(3) 0.7939(6) 0.8779(3)
C32_24 C 0.6221(3) 0.8779(3) 0.7939(6)
C33_24 C 0.6340(3) 0.8232(6) 0.8660(3)
C34_24 C 0.6340(3) 0.8660(3) 0.8232(6)
C35_24 C 0.6215(3) 0.8387(2) 0.8387(2)
C36_24 C 0.6613(2) 0.8785(3) 0.8387(2)
H11_24 H 0.6699 0.8970 0.8301
H12_24 H 0.6030 0.8301 0.8301
O3_25 O 0.2874 0.71257(13) -0.00000(13)
O3_26 O 0.2874 0.71257(13) 1.00000(13)
O4_25 O 0.00000(13) 0.9039 0.90388(13)
O3_27 O 0.78743(13) 0.7874 -0.00000(13)
O24_25 O 0.90388(13) 0.9039 -0.00000(13)
O3_28 O 0.78743(13) 0.7874 1.00000(13)
O4_26 O 1.00000(13) 0.9039 0.90388(13)
O24_26 O 0.90388(13) 0.9039 1.00000(13)
O3_29 O 0.7126 0.28743(13) -0.00000(13)
O3_30 O 0.7126 0.28743(13) 1.00000(13)
O3_31 O 0.21257(13) 0.2126 -0.00000(13)
O24_27 O 0.09612(13) 0.0961 -0.00000(13)
O3_32 O 0.21257(13) 0.2126 1.00000(13)
O4_27 O 0.00000(13) 0.0961 0.90388(13)
O24_28 O 0.09612(13) 0.0961 1.00000(13)
O4_28 O 1.00000(13) 0.0961 0.90388(13)
O3_33 O 0.2874 0.00000(13) 0.71257(13)
O3_34 O 0.2874 1.00000(13) 0.71257(13)
O3_35 O 0.2874 0.28743(13) 0.00000(13)
O3_36 O 0.2874 0.28743(13) 1.00000(13)
O3_37 O 0.2874 -0.00000(13) 0.28743(13)
O3_38 O 0.2874 1.00000(13) 0.28743(13)
C1_25 C 0.1837(3) 0.6222(3) 0.4558(4)
C2_25 C 0.1841(5) 0.5803(2) 0.4197(2)
H1_25 H 0.1656 0.5716 0.4284
C3_25 C 0.2002(4) 0.6056(3) 0.4300(3)
C4_25 C 0.2279(4) 0.6179(3) 0.4211(3)
H2_25 H 0.2366 0.6359 0.4308
C5_25 C 0.2424(8) 0.6026(3) 0.3974(3)
C6_25 C 0.2728(9) 0.6135(4) 0.3865(4)
C7_25 C 0.2939(6) 0.6221(3) 0.3779(3)
C8_25 C 0.3232(6) 0.6340(3) 0.3660(3)
C9_25 C 0.3387(2) 0.6613(2) 0.3785(3)
H3_25 H 0.3301 0.6699 0.3970
C10_25 C 0.1837(3) 0.5442(4) 0.3778(3)
C11_25 C 0.4558(4) 0.8163(3) 0.3778(3)
C12_25 C 0.3778(3) 0.8163(3) 0.4558(4)
C13_25 C 0.3778(3) 0.5442(4) 0.1837(3)
C14_25 C 0.4558(4) 0.6222(3) 0.1837(3)
C15_25 C 0.4197(2) 0.8159(5) 0.4197(2)
C16_25 C 0.4197(2) 0.5803(2) 0.1841(5)
H4_25 H 0.4284 0.8344 0.4284
H5_25 H 0.4284 0.5716 0.1656
C17_25 C 0.2002(4) 0.5700(3) 0.3944(3)
C18_25 C 0.4300(3) 0.7998(4) 0.3944(3)
C19_25 C 0.3944(3) 0.7998(4) 0.4300(3)
C20_25 C 0.3944(3) 0.5700(3) 0.2002(4)
C21_25 C 0.4300(3) 0.6056(3) 0.2002(4)
C22_25 C 0.2279(4) 0.5789(3) 0.3821(3)
C23_25 C 0.4211(3) 0.7721(4) 0.3821(3)
C24_25 C 0.3821(3) 0.7721(4) 0.4211(3)
C25_25 C 0.3821(3) 0.5789(3) 0.2279(4)
C26_25 C 0.4211(3) 0.6179(3) 0.2279(4)
H6_25 H 0.2366 0.5692 0.3641
H7_25 H 0.3641 0.7634 0.4308
H8_25 H 0.4308 0.7634 0.3641
H9_25 H 0.4308 0.6359 0.2366
H10_25 H 0.3641 0.5692 0.2366
C27_25 C 0.3974(3) 0.7576(8) 0.3974(3)
C28_25 C 0.3974(3) 0.6026(3) 0.2424(8)
C29_25 C 0.3865(4) 0.7272(9) 0.3865(4)
C30_25 C 0.3865(4) 0.6135(4) 0.2728(9)
C31_25 C 0.3779(3) 0.7061(6) 0.3779(3)
C32_25 C 0.3779(3) 0.6221(3) 0.2939(6)
C33_25 C 0.3660(3) 0.6768(6) 0.3660(3)
C34_25 C 0.3660(3) 0.6340(3) 0.3232(6)
C35_25 C 0.3785(3) 0.6613(2) 0.3387(2)
C36_25 C 0.3387(2) 0.6215(3) 0.3387(2)
H11_25 H 0.3301 0.6030 0.3301
H12_25 H 0.3970 0.6699 0.3301
O3_39 O 0.7126 0.71257(13) 0.00000(13)
O3_40 O 0.7126 0.71257(13) 1.00000(13)
C1_26 C 0.8163(3) 0.6222(3) 0.5442(4)
C2_26 C 0.8159(5) 0.5803(2) 0.5803(2)
H1_26 H 0.8344 0.5716 0.5716
C3_26 C 0.7998(4) 0.6056(3) 0.5700(3)
C4_26 C 0.7721(4) 0.6179(3) 0.5789(3)
H2_26 H 0.7634 0.6359 0.5692
C5_26 C 0.7576(8) 0.6026(3) 0.6026(3)
C6_26 C 0.7272(9) 0.6135(4) 0.6135(4)
C7_26 C 0.7061(6) 0.6221(3) 0.6221(3)
C8_26 C 0.6768(6) 0.6340(3) 0.6340(3)
C9_26 C 0.6613(2) 0.6613(2) 0.6215(3)
H3_26 H 0.6699 0.6699 0.6030
C10_26 C 0.8163(3) 0.5442(4) 0.6222(3)
C11_26 C 0.5442(4) 0.8163(3) 0.6222(3)
C12_26 C 0.6222(3) 0.8163(3) 0.5442(4)
C13_26 C 0.6222(3) 0.5442(4) 0.8163(3)
C14_26 C 0.5442(4) 0.6222(3) 0.8163(3)
C15_26 C 0.5803(2) 0.8159(5) 0.5803(2)
C16_26 C 0.5803(2) 0.5803(2) 0.8159(5)
H4_26 H 0.5716 0.8344 0.5716
H5_26 H 0.5716 0.5716 0.8344
C17_26 C 0.7998(4) 0.5700(3) 0.6056(3)
C18_26 C 0.5700(3) 0.7998(4) 0.6056(3)
C19_26 C 0.6056(3) 0.7998(4) 0.5700(3)
C20_26 C 0.6056(3) 0.5700(3) 0.7998(4)
C21_26 C 0.5700(3) 0.6056(3) 0.7998(4)
C22_26 C 0.7721(4) 0.5789(3) 0.6179(3)
C23_26 C 0.5789(3) 0.7721(4) 0.6179(3)
C24_26 C 0.6179(3) 0.7721(4) 0.5789(3)
C25_26 C 0.6179(3) 0.5789(3) 0.7721(4)
C26_26 C 0.5789(3) 0.6179(3) 0.7721(4)
H6_26 H 0.7634 0.5692 0.6359
H7_26 H 0.6359 0.7634 0.5692
H8_26 H 0.5692 0.7634 0.6359
H9_26 H 0.5692 0.6359 0.7634
H10_26 H 0.6359 0.5692 0.7634
C27_26 C 0.6026(3) 0.7576(8) 0.6026(3)
C28_26 C 0.6026(3) 0.6026(3) 0.7576(8)
C29_26 C 0.6135(4) 0.7272(9) 0.6135(4)
C30_26 C 0.6135(4) 0.6135(4) 0.7272(9)
C31_26 C 0.6221(3) 0.7061(6) 0.6221(3)
C32_26 C 0.6221(3) 0.6221(3) 0.7061(6)
C33_26 C 0.6340(3) 0.6768(6) 0.6340(3)
C34_26 C 0.6340(3) 0.6340(3) 0.6768(6)
C35_26 C 0.6215(3) 0.6613(2) 0.6613(2)
C36_26 C 0.6613(2) 0.6215(3) 0.6613(2)
H11_26 H 0.6699 0.6030 0.6699
H12_26 H 0.6030 0.6699 0.6699
C1_27 C 0.1837(3) 0.5442(4) 0.6222(3)
C2_27 C 0.1841(5) 0.5803(2) 0.5803(2)
H1_27 H 0.1656 0.5716 0.5716
C3_27 C 0.2002(4) 0.5700(3) 0.6056(3)
C4_27 C 0.2279(4) 0.5789(3) 0.6179(3)
H2_27 H 0.2366 0.5692 0.6359
C5_27 C 0.2424(8) 0.6026(3) 0.6026(3)
C6_27 C 0.2728(9) 0.6135(4) 0.6135(4)
C7_27 C 0.2939(6) 0.6221(3) 0.6221(3)
C8_27 C 0.3232(6) 0.6340(3) 0.6340(3)
C9_27 C 0.3387(2) 0.6215(3) 0.6613(2)
H3_27 H 0.3301 0.6030 0.6699
C10_27 C 0.1837(3) 0.6222(3) 0.5442(4)
C11_27 C 0.4558(4) 0.6222(3) 0.8163(3)
C12_27 C 0.3778(3) 0.5442(4) 0.8163(3)
C13_27 C 0.3778(3) 0.8163(3) 0.5442(4)
C14_27 C 0.4558(4) 0.8163(3) 0.6222(3)
C15_27 C 0.4197(2) 0.5803(2) 0.8159(5)
C16_27 C 0.4197(2) 0.8159(5) 0.5803(2)
H4_27 H 0.4284 0.5716 0.8344
H5_27 H 0.4284 0.8344 0.5716
C17_27 C 0.2002(4) 0.6056(3) 0.5700(3)
C18_27 C 0.4300(3) 0.6056(3) 0.7998(4)
C19_27 C 0.3944(3) 0.5700(3) 0.7998(4)
C20_27 C 0.3944(3) 0.7998(4) 0.5700(3)
C21_27 C 0.4300(3) 0.7998(4) 0.6056(3)
C22_27 C 0.2279(4) 0.6179(3) 0.5789(3)
C23_27 C 0.4211(3) 0.6179(3) 0.7721(4)
C24_27 C 0.3821(3) 0.5789(3) 0.7721(4)
C25_27 C 0.3821(3) 0.7721(4) 0.5789(3)
C26_27 C 0.4211(3) 0.7721(4) 0.6179(3)
H6_27 H 0.2366 0.6359 0.5692
H7_27 H 0.3641 0.5692 0.7634
H8_27 H 0.4308 0.6359 0.7634
H9_27 H 0.4308 0.7634 0.6359
H10_27 H 0.3641 0.7634 0.5692
C27_27 C 0.3974(3) 0.6026(3) 0.7576(8)
C28_27 C 0.3974(3) 0.7576(8) 0.6026(3)
C29_27 C 0.3865(4) 0.6135(4) 0.7272(9)
C30_27 C 0.3865(4) 0.7272(9) 0.6135(4)
C31_27 C 0.3779(3) 0.6221(3) 0.7061(6)
C32_27 C 0.3779(3) 0.7061(6) 0.6221(3)
C33_27 C 0.3660(3) 0.6340(3) 0.6768(6)
C34_27 C 0.3660(3) 0.6768(6) 0.6340(3)
C35_27 C 0.3785(3) 0.6613(2) 0.6613(2)
C36_27 C 0.3387(2) 0.6613(2) 0.6215(3)
H11_27 H 0.3301 0.6699 0.6030
H12_27 H 0.3970 0.6699 0.6699
O3_41 O 0.21257(13) -0.00000(13) 0.7874
O24_29 O 0.09612(13) -0.00000(13) 0.9039
O3_42 O 0.21257(13) 1.00000(13) 0.7874
O24_30 O 0.09612(13) 1.00000(13) 0.9039
O3_43 O 0.78743(13) 0.00000(13) 0.7874
O24_31 O 0.90388(13) 0.00000(13) 0.9039
O3_44 O 0.78743(13) 1.00000(13) 0.7874
O24_32 O 0.90388(13) 1.00000(13) 0.9039
C1_28 C 0.1837(3) 0.4558(4) 0.3778(3)
C2_28 C 0.1841(5) 0.4197(2) 0.4197(2)
H1_28 H 0.1656 0.4284 0.4284
C3_28 C 0.2002(4) 0.4300(3) 0.3944(3)
C4_28 C 0.2279(4) 0.4211(3) 0.3821(3)
H2_28 H 0.2366 0.4308 0.3641
C5_28 C 0.2424(8) 0.3974(3) 0.3974(3)
C6_28 C 0.2728(9) 0.3865(4) 0.3865(4)
C7_28 C 0.2939(6) 0.3779(3) 0.3779(3)
C8_28 C 0.3232(6) 0.3660(3) 0.3660(3)
C9_28 C 0.3387(2) 0.3785(3) 0.3387(2)
H3_28 H 0.3301 0.3970 0.3301
C10_28 C 0.1837(3) 0.3778(3) 0.4558(4)
C11_28 C 0.4558(4) 0.3778(3) 0.1837(3)
C12_28 C 0.3778(3) 0.4558(4) 0.1837(3)
C13_28 C 0.3778(3) 0.1837(3) 0.4558(4)
C14_28 C 0.4558(4) 0.1837(3) 0.3778(3)
C15_28 C 0.4197(2) 0.4197(2) 0.1841(5)
C16_28 C 0.4197(2) 0.1841(5) 0.4197(2)
H4_28 H 0.4284 0.4284 0.1656
H5_28 H 0.4284 0.1656 0.4284
C17_28 C 0.2002(4) 0.3944(3) 0.4300(3)
C18_28 C 0.4300(3) 0.3944(3) 0.2002(4)
C19_28 C 0.3944(3) 0.4300(3) 0.2002(4)
C20_28 C 0.3944(3) 0.2002(4) 0.4300(3)
C21_28 C 0.4300(3) 0.2002(4) 0.3944(3)
C22_28 C 0.2279(4) 0.3821(3) 0.4211(3)
C23_28 C 0.4211(3) 0.3821(3) 0.2279(4)
C24_28 C 0.3821(3) 0.4211(3) 0.2279(4)
C25_28 C 0.3821(3) 0.2279(4) 0.4211(3)
C26_28 C 0.4211(3) 0.2279(4) 0.3821(3)
H6_28 H 0.2366 0.3641 0.4308
H7_28 H 0.3641 0.4308 0.2366
H8_28 H 0.4308 0.3641 0.2366
H9_28 H 0.4308 0.2366 0.3641
H10_28 H 0.3641 0.2366 0.4308
C27_28 C 0.3974(3) 0.3974(3) 0.2424(8)
C28_28 C 0.3974(3) 0.2424(8) 0.3974(3)
C29_28 C 0.3865(4) 0.3865(4) 0.2728(9)
C30_28 C 0.3865(4) 0.2728(9) 0.3865(4)
C31_28 C 0.3779(3) 0.3779(3) 0.2939(6)
C32_28 C 0.3779(3) 0.2939(6) 0.3779(3)
C33_28 C 0.3660(3) 0.3660(3) 0.3232(6)
C34_28 C 0.3660(3) 0.3232(6) 0.3660(3)
C35_28 C 0.3785(3) 0.3387(2) 0.3387(2)
C36_28 C 0.3387(2) 0.3387(2) 0.3785(3)
H11_28 H 0.3301 0.3301 0.3970
H12_28 H 0.3970 0.3301 0.3301
O4_29 O 0.00000(13) 0.90388(13) 0.0961
O3_45 O 0.78743(13) -0.00000(13) 0.2126
O24_33 O 0.90388(13) -0.00000(13) 0.0961
O3_46 O 0.78743(13) 1.00000(13) 0.2126
O4_30 O 1.00000(13) 0.90388(13) 0.0961
O24_34 O 0.90388(13) 1.00000(13) 0.0961
C1_29 C 0.8163(3) 0.4558(4) 0.6222(3)
C2_29 C 0.8159(5) 0.4197(2) 0.5803(2)
H1_29 H 0.8344 0.4284 0.5716
C3_29 C 0.7998(4) 0.4300(3) 0.6056(3)
C4_29 C 0.7721(4) 0.4211(3) 0.6179(3)
H2_29 H 0.7634 0.4308 0.6359
C5_29 C 0.7576(8) 0.3974(3) 0.6026(3)
C6_29 C 0.7272(9) 0.3865(4) 0.6135(4)
C7_29 C 0.7061(6) 0.3779(3) 0.6221(3)
C8_29 C 0.6768(6) 0.3660(3) 0.6340(3)
C9_29 C 0.6613(2) 0.3785(3) 0.6613(2)
H3_29 H 0.6699 0.3970 0.6699
C10_29 C 0.8163(3) 0.3778(3) 0.5442(4)
C11_29 C 0.5442(4) 0.3778(3) 0.8163(3)
C12_29 C 0.6222(3) 0.4558(4) 0.8163(3)
C13_29 C 0.6222(3) 0.1837(3) 0.5442(4)
C14_29 C 0.5442(4) 0.1837(3) 0.6222(3)
C15_29 C 0.5803(2) 0.4197(2) 0.8159(5)
C16_29 C 0.5803(2) 0.1841(5) 0.5803(2)
H4_29 H 0.5716 0.4284 0.8344
H5_29 H 0.5716 0.1656 0.5716
C17_29 C 0.7998(4) 0.3944(3) 0.5700(3)
C18_29 C 0.5700(3) 0.3944(3) 0.7998(4)
C19_29 C 0.6056(3) 0.4300(3) 0.7998(4)
C20_29 C 0.6056(3) 0.2002(4) 0.5700(3)
C21_29 C 0.5700(3) 0.2002(4) 0.6056(3)
C22_29 C 0.7721(4) 0.3821(3) 0.5789(3)
C23_29 C 0.5789(3) 0.3821(3) 0.7721(4)
C24_29 C 0.6179(3) 0.4211(3) 0.7721(4)
C25_29 C 0.6179(3) 0.2279(4) 0.5789(3)
C26_29 C 0.5789(3) 0.2279(4) 0.6179(3)
H6_29 H 0.7634 0.3641 0.5692
H7_29 H 0.6359 0.4308 0.7634
H8_29 H 0.5692 0.3641 0.7634
H9_29 H 0.5692 0.2366 0.6359
H10_29 H 0.6359 0.2366 0.5692
C27_29 C 0.6026(3) 0.3974(3) 0.7576(8)
C28_29 C 0.6026(3) 0.2424(8) 0.6026(3)
C29_29 C 0.6135(4) 0.3865(4) 0.7272(9)
C30_29 C 0.6135(4) 0.2728(9) 0.6135(4)
C31_29 C 0.6221(3) 0.3779(3) 0.7061(6)
C32_29 C 0.6221(3) 0.2939(6) 0.6221(3)
C33_29 C 0.6340(3) 0.3660(3) 0.6768(6)
C34_29 C 0.6340(3) 0.3232(6) 0.6340(3)
C35_29 C 0.6215(3) 0.3387(2) 0.6613(2)
C36_29 C 0.6613(2) 0.3387(2) 0.6215(3)
H11_29 H 0.6699 0.3301 0.6030
H12_29 H 0.6030 0.3301 0.6699
C1_30 C 0.8163(3) 0.5442(4) 0.3778(3)
C2_30 C 0.8159(5) 0.5803(2) 0.4197(2)
H1_30 H 0.8344 0.5716 0.4284
C3_30 C 0.7998(4) 0.5700(3) 0.3944(3)
C4_30 C 0.7721(4) 0.5789(3) 0.3821(3)
H2_30 H 0.7634 0.5692 0.3641
C5_30 C 0.7576(8) 0.6026(3) 0.3974(3)
C6_30 C 0.7272(9) 0.6135(4) 0.3865(4)
C7_30 C 0.7061(6) 0.6221(3) 0.3779(3)
C8_30 C 0.6768(6) 0.6340(3) 0.3660(3)
C9_30 C 0.6613(2) 0.6215(3) 0.3387(2)
H3_30 H 0.6699 0.6030 0.3301
C10_30 C 0.8163(3) 0.6222(3) 0.4558(4)
C11_30 C 0.5442(4) 0.6222(3) 0.1837(3)
C12_30 C 0.6222(3) 0.5442(4) 0.1837(3)
C13_30 C 0.6222(3) 0.8163(3) 0.4558(4)
C14_30 C 0.5442(4) 0.8163(3) 0.3778(3)
C15_30 C 0.5803(2) 0.5803(2) 0.1841(5)
C16_30 C 0.5803(2) 0.8159(5) 0.4197(2)
H4_30 H 0.5716 0.5716 0.1656
H5_30 H 0.5716 0.8344 0.4284
C17_30 C 0.7998(4) 0.6056(3) 0.4300(3)
C18_30 C 0.5700(3) 0.6056(3) 0.2002(4)
C19_30 C 0.6056(3) 0.5700(3) 0.2002(4)
C20_30 C 0.6056(3) 0.7998(4) 0.4300(3)
C21_30 C 0.5700(3) 0.7998(4) 0.3944(3)
C22_30 C 0.7721(4) 0.6179(3) 0.4211(3)
C23_30 C 0.5789(3) 0.6179(3) 0.2279(4)
C24_30 C 0.6179(3) 0.5789(3) 0.2279(4)
C25_30 C 0.6179(3) 0.7721(4) 0.4211(3)
C26_30 C 0.5789(3) 0.7721(4) 0.3821(3)
H6_30 H 0.7634 0.6359 0.4308
H7_30 H 0.6359 0.5692 0.2366
H8_30 H 0.5692 0.6359 0.2366
H9_30 H 0.5692 0.7634 0.3641
H10_30 H 0.6359 0.7634 0.4308
C27_30 C 0.6026(3) 0.6026(3) 0.2424(8)
C28_30 C 0.6026(3) 0.7576(8) 0.3974(3)
C29_30 C 0.6135(4) 0.6135(4) 0.2728(9)
C30_30 C 0.6135(4) 0.7272(9) 0.3865(4)
C31_30 C 0.6221(3) 0.6221(3) 0.2939(6)
C32_30 C 0.6221(3) 0.7061(6) 0.3779(3)
C33_30 C 0.6340(3) 0.6340(3) 0.3232(6)
C34_30 C 0.6340(3) 0.6768(6) 0.3660(3)
C35_30 C 0.6215(3) 0.6613(2) 0.3387(2)
C36_30 C 0.6613(2) 0.6613(2) 0.3785(3)
H11_30 H 0.6699 0.6699 0.3970
H12_30 H 0.6030 0.6699 0.3301
O3_47 O 0.21257(13) 0.00000(13) 0.2126
O4_31 O 0.00000(13) 0.09612(13) 0.0961
O24_35 O 0.09612(13) 0.00000(13) 0.0961
O3_48 O 0.21257(13) 1.00000(13) 0.2126
O24_36 O 0.09612(13) 1.00000(13) 0.0961
O4_32 O 1.00000(13) 0.09612(13) 0.0961
O3_49 O 0.21257(13) 0.7874 0.00000(13)
O24_37 O 0.09612(13) 0.9039 0.00000(13)
O3_50 O 0.21257(13) 0.7874 1.00000(13)
O24_38 O 0.09612(13) 0.9039 1.00000(13)
O3_51 O 0.78743(13) 0.2126 0.00000(13)
O24_39 O 0.90388(13) 0.0961 0.00000(13)
O3_52 O 0.78743(13) 0.2126 1.00000(13)
O24_40 O 0.90388(13) 0.0961 1.00000(13)
O3_53 O 0.7126 -0.00000(13) 0.71257(13)
O3_54 O 0.7126 1.00000(13) 0.71257(13)
O3_55 O 0.7126 0.00000(13) 0.28743(13)
O3_56 O 0.7126 1.00000(13) 0.28743(13)
C1_31 C 0.1837(3) 0.3778(3) 0.5442(4)
C2_31 C 0.1841(5) 0.4197(2) 0.5803(2)
H1_31 H 0.1656 0.4284 0.5716
C3_31 C 0.2002(4) 0.3944(3) 0.5700(3)
C4_31 C 0.2279(4) 0.3821(3) 0.5789(3)
H2_31 H 0.2366 0.3641 0.5692
C5_31 C 0.2424(8) 0.3974(3) 0.6026(3)
C6_31 C 0.2728(9) 0.3865(4) 0.6135(4)
C7_31 C 0.2939(6) 0.3779(3) 0.6221(3)
C8_31 C 0.3232(6) 0.3660(3) 0.6340(3)
C9_31 C 0.3387(2) 0.3387(2) 0.6215(3)
H3_31 H 0.3301 0.3301 0.6030
C10_31 C 0.1837(3) 0.4558(4) 0.6222(3)
C11_31 C 0.4558(4) 0.1837(3) 0.6222(3)
C12_31 C 0.3778(3) 0.1837(3) 0.5442(4)
C13_31 C 0.3778(3) 0.4558(4) 0.8163(3)
C14_31 C 0.4558(4) 0.3778(3) 0.8163(3)
C15_31 C 0.4197(2) 0.1841(5) 0.5803(2)
C16_31 C 0.4197(2) 0.4197(2) 0.8159(5)
H4_31 H 0.4284 0.1656 0.5716
H5_31 H 0.4284 0.4284 0.8344
C17_31 C 0.2002(4) 0.4300(3) 0.6056(3)
C18_31 C 0.4300(3) 0.2002(4) 0.6056(3)
C19_31 C 0.3944(3) 0.2002(4) 0.5700(3)
C20_31 C 0.3944(3) 0.4300(3) 0.7998(4)
C21_31 C 0.4300(3) 0.3944(3) 0.7998(4)
C22_31 C 0.2279(4) 0.4211(3) 0.6179(3)
C23_31 C 0.4211(3) 0.2279(4) 0.6179(3)
C24_31 C 0.3821(3) 0.2279(4) 0.5789(3)
C25_31 C 0.3821(3) 0.4211(3) 0.7721(4)
C26_31 C 0.4211(3) 0.3821(3) 0.7721(4)
H6_31 H 0.2366 0.4308 0.6359
H7_31 H 0.3641 0.2366 0.5692
H8_31 H 0.4308 0.2366 0.6359
H9_31 H 0.4308 0.3641 0.7634
H10_31 H 0.3641 0.4308 0.7634
C27_31 C 0.3974(3) 0.2424(8) 0.6026(3)
C28_31 C 0.3974(3) 0.3974(3) 0.7576(8)
C29_31 C 0.3865(4) 0.2728(9) 0.6135(4)
C30_31 C 0.3865(4) 0.3865(4) 0.7272(9)
C31_31 C 0.3779(3) 0.2939(6) 0.6221(3)
C32_31 C 0.3779(3) 0.3779(3) 0.7061(6)
C33_31 C 0.3660(3) 0.3232(6) 0.6340(3)
C34_31 C 0.3660(3) 0.3660(3) 0.6768(6)
C35_31 C 0.3785(3) 0.3387(2) 0.6613(2)
C36_31 C 0.3387(2) 0.3785(3) 0.6613(2)
H11_31 H 0.3301 0.3970 0.6699
H12_31 H 0.3970 0.3301 0.6699
C1_32 C 0.8163(3) 0.3778(3) 0.4558(4)
C2_32 C 0.8159(5) 0.4197(2) 0.4197(2)
H1_32 H 0.8344 0.4284 0.4284
C3_32 C 0.7998(4) 0.3944(3) 0.4300(3)
C4_32 C 0.7721(4) 0.3821(3) 0.4211(3)
H2_32 H 0.7634 0.3641 0.4308
C5_32 C 0.7576(8) 0.3974(3) 0.3974(3)
C6_32 C 0.7272(9) 0.3865(4) 0.3865(4)
C7_32 C 0.7061(6) 0.3779(3) 0.3779(3)
C8_32 C 0.6768(6) 0.3660(3) 0.3660(3)
C9_32 C 0.6613(2) 0.3387(2) 0.3785(3)
H3_32 H 0.6699 0.3301 0.3970
C10_32 C 0.8163(3) 0.4558(4) 0.3778(3)
C11_32 C 0.5442(4) 0.1837(3) 0.3778(3)
C12_32 C 0.6222(3) 0.1837(3) 0.4558(4)
C13_32 C 0.6222(3) 0.4558(4) 0.1837(3)
C14_32 C 0.5442(4) 0.3778(3) 0.1837(3)
C15_32 C 0.5803(2) 0.1841(5) 0.4197(2)
C16_32 C 0.5803(2) 0.4197(2) 0.1841(5)
H4_32 H 0.5716 0.1656 0.4284
H5_32 H 0.5716 0.4284 0.1656
C17_32 C 0.7998(4) 0.4300(3) 0.3944(3)
C18_32 C 0.5700(3) 0.2002(4) 0.3944(3)
C19_32 C 0.6056(3) 0.2002(4) 0.4300(3)
C20_32 C 0.6056(3) 0.4300(3) 0.2002(4)
C21_32 C 0.5700(3) 0.3944(3) 0.2002(4)
C22_32 C 0.7721(4) 0.4211(3) 0.3821(3)
C23_32 C 0.5789(3) 0.2279(4) 0.3821(3)
C24_32 C 0.6179(3) 0.2279(4) 0.4211(3)
C25_32 C 0.6179(3) 0.4211(3) 0.2279(4)
C26_32 C 0.5789(3) 0.3821(3) 0.2279(4)
H6_32 H 0.7634 0.4308 0.3641
H7_32 H 0.6359 0.2366 0.4308
H8_32 H 0.5692 0.2366 0.3641
H9_32 H 0.5692 0.3641 0.2366
H10_32 H 0.6359 0.4308 0.2366
C27_32 C 0.6026(3) 0.2424(8) 0.3974(3)
C28_32 C 0.6026(3) 0.3974(3) 0.2424(8)
C29_32 C 0.6135(4) 0.2728(9) 0.3865(4)
C30_32 C 0.6135(4) 0.3865(4) 0.2728(9)
C31_32 C 0.6221(3) 0.2939(6) 0.3779(3)
C32_32 C 0.6221(3) 0.3779(3) 0.2939(6)
C33_32 C 0.6340(3) 0.3232(6) 0.3660(3)
C34_32 C 0.6340(3) 0.3660(3) 0.3232(6)
C35_32 C 0.6215(3) 0.3387(2) 0.3387(2)
C36_32 C 0.6613(2) 0.3785(3) 0.3387(2)
H11_32 H 0.6699 0.3970 0.3301
H12_32 H 0.6030 0.3301 0.3301
O3_57 O -0.00000(13) 0.21257(13) 0.2126
O3_58 O 1.00000(13) 0.21257(13) 0.2126
O3_59 O 0.00000(13) 0.21257(13) 0.7874
O3_60 O 1.00000(13) 0.21257(13) 0.7874
O3_61 O -0.00000(13) 0.2874 0.71257(13)
O3_62 O 1.00000(13) 0.2874 0.71257(13)
O3_63 O -0.00000(13) 0.7126 0.28743(13)
O3_64 O 1.00000(13) 0.7126 0.28743(13)
O3_65 O 0.00000(13) 0.7126 0.71257(13)
O3_66 O 1.00000(13) 0.7126 0.71257(13)
O3_67 O 0.00000(13) 0.2874 0.28743(13)
O3_68 O 1.00000(13) 0.2874 0.28743(13)
O3_69 O -0.00000(13) 0.78743(13) 0.7874
O3_70 O 1.00000(13) 0.78743(13) 0.7874
O3_71 O 0.00000(13) 0.78743(13) 0.2126
O3_72 O 1.00000(13) 0.78743(13) 0.2126
loop_
_geom_bond_atom_site_label_1
_geom_bond_atom_site_label_2
_geom_bond_site_symmetry_1
_geom_bond_site_symmetry_2
Cu1 O4 1_555 1_555
Cu2 O3 1_555 1_555
O1 C1 1_555 1_555
O2 C1 1_555 1_555
C1 C3 1_555 1_555
C2 H1 1_555 1_555
C3 C2 1_555 1_555
C4 C3 1_555 1_555
H2 C4 1_555 1_555
C5 C4 1_555 1_555
C6 C5 1_555 1_555
C7 C6 1_555 1_555
C8 C7 1_555 1_555
C9 C8 1_555 1_555
H3 C9 1_555 1_555
Cu3 O5 1_555 1_555
Cu4 O6 1_555 1_555
Cu5 O7 1_555 1_555
Cu6 O1 1_555 1_555
Cu7 O9 1_555 1_555
Cu8 O16 1_555 1_555
Cu9 O17 1_555 1_555
Cu10 O18 1_555 1_555
Cu11 O19 1_555 1_555
Cu12 O2 1_555 1_555
O5 C10 1_555 1_555
O6 C11 1_555 1_555
O7 C12 1_555 1_555
O8 Cu1 1_555 1_555
O9 C14 1_555 1_555
O12 Cu1 1_555 1_555
O13 Cu7 1_555 1_555
O14 Cu7 1_555 1_555
O15 Cu7 1_555 1_555
O16 C10 1_555 1_555
O17 C11 1_555 1_555
O18 C12 1_555 1_555
O19 C13 1_555 1_555
O20 Cu2 1_555 1_555
O21 Cu2 1_555 1_555
O22 Cu2 1_555 1_555
O23 Cu2 1_555 1_555
O24 Cu7 1_555 1_555
C10 C17 1_555 1_555
C11 C18 1_555 1_555
C12 C19 1_555 1_555
C13 O8 1_555 1_555
C14 O20 1_555 1_555
C15 H4 1_555 1_555
C16 H5 1_555 1_555
C17 C2 1_555 1_555
C18 C15 1_555 1_555
C19 C15 1_555 1_555
C20 C13 1_555 1_555
C21 C14 1_555 1_555
C22 C5 1_555 1_555
C23 C18 1_555 1_555
C24 C19 1_555 1_555
C25 C20 1_555 1_555
C26 C21 1_555 1_555
H6 C22 1_555 1_555
H7 C24 1_555 1_555
H8 C23 1_555 1_555
H9 C26 1_555 1_555
H10 C25 1_555 1_555
C27 C23 1_555 1_555
C28 C25 1_555 1_555
C29 C27 1_555 1_555
C30 C28 1_555 1_555
C31 C29 1_555 1_555
C32 C30 1_555 1_555
C33 C9 1_555 1_555
C34 C32 1_555 1_555
C35 C33 1_555 1_555
C36 C8 1_555 1_555
H11 C36 1_555 1_555
H12 C35 1_555 1_555
C16 C20 1_555 1_555
C16 C21 1_555 1_555
C17 C22 1_555 1_555
C24 C27 1_555 1_555
C26 C28 1_555 1_555
C31 C33 1_555 1_555
C34 C35 1_555 1_555
C34 C36 1_555 1_555
Cu1_2 O4_2 1_555 1_555
O10 Cu1_2 1_555 1_555
O11 Cu1_2 1_555 1_555
Cu5 O4_3 1_555 1_555
O10_2 Cu5 1_555 1_555
Cu5_2 O4_4 1_555 1_555
Cu2_2 O3_2 1_555 1_555
O1_2 C1_2 1_555 1_555
O2_2 C1_2 1_555 1_555
C1_2 C3_2 1_555 1_555
C2_2 H1_2 1_555 1_555
C3_2 C2_2 1_555 1_555
C4_2 C3_2 1_555 1_555
H2_2 C4_2 1_555 1_555
C5_2 C4_2 1_555 1_555
C6_2 C5_2 1_555 1_555
C7_2 C6_2 1_555 1_555
C8_2 C7_2 1_555 1_555
C9_2 C8_2 1_555 1_555
H3_2 C9_2 1_555 1_555
Cu6_2 O5_2 1_555 1_555
Cu4_2 O6_2 1_555 1_555
Cu5_3 O7_2 1_555 1_555
Cu6_3 O1_2 1_555 1_555
Cu7_2 O9_2 1_555 1_555
Cu12_2 O16_2 1_555 1_555
Cu9_2 O17_2 1_555 1_555
Cu10_3 O18_2 1_555 1_555
Cu10_2 O19_2 1_555 1_555
Cu12_3 O2_2 1_555 1_555
O5_2 C10_2 1_555 1_555
O6_2 C11_2 1_555 1_555
O7_2 C12_2 1_555 1_555
O8_2 Cu5_2 1_555 1_555
O9_2 C14_2 1_555 1_555
O12_2 Cu5_2 1_555 1_555
O13_2 Cu7_2 1_555 1_555
O14_2 Cu7_2 1_555 1_555
O15_2 Cu7_2 1_555 1_555
O16_2 C10_2 1_555 1_555
O17_2 C11_2 1_555 1_555
O18_2 C12_2 1_555 1_555
O19_2 C13_2 1_555 1_555
O20_2 Cu2_2 1_555 1_555
O21_2 Cu2_2 1_555 1_555
O22_2 Cu2_2 1_555 1_555
O23_2 Cu2_2 1_555 1_555
O24_2 Cu7_2 1_555 1_555
C10_2 C17_2 1_555 1_555
C11_2 C18_2 1_555 1_555
C12_2 C19_2 1_555 1_555
C13_2 O8_2 1_555 1_555
C14_2 O20_2 1_555 1_555
C15_2 H4_2 1_555 1_555
C16_2 H5_2 1_555 1_555
C17_2 C2_2 1_555 1_555
C18_2 C15_2 1_555 1_555
C19_2 C15_2 1_555 1_555
C20_2 C13_2 1_555 1_555
C21_2 C14_2 1_555 1_555
C22_2 C5_2 1_555 1_555
C23_2 C18_2 1_555 1_555
C24_2 C19_2 1_555 1_555
C25_2 C20_2 1_555 1_555
C26_2 C21_2 1_555 1_555
H6_2 C22_2 1_555 1_555
H7_2 C24_2 1_555 1_555
H8_2 C23_2 1_555 1_555
H9_2 C26_2 1_555 1_555
H10_2 C25_2 1_555 1_555
C27_2 C23_2 1_555 1_555
C28_2 C25_2 1_555 1_555
C29_2 C27_2 1_555 1_555
C30_2 C28_2 1_555 1_555
C31_2 C29_2 1_555 1_555
C32_2 C30_2 1_555 1_555
C33_2 C9_2 1_555 1_555
C34_2 C32_2 1_555 1_555
C35_2 C33_2 1_555 1_555
C36_2 C8_2 1_555 1_555
H11_2 C36_2 1_555 1_555
H12_2 C35_2 1_555 1_555
C16_2 C20_2 1_555 1_555
C16_2 C21_2 1_555 1_555
C17_2 C22_2 1_555 1_555
C24_2 C27_2 1_555 1_555
C26_2 C28_2 1_555 1_555
C31_2 C33_2 1_555 1_555
C34_2 C35_2 1_555 1_555
C34_2 C36_2 1_555 1_555
Cu5_3 O4_5 1_555 1_555
O10_3 Cu5_3 1_555 1_555
Cu5_4 O4_6 1_555 1_555
Cu2_3 O3_3 1_555 1_555
O1_3 C1_3 1_555 1_555
O2_3 C1_3 1_555 1_555
C1_3 C3_3 1_555 1_555
C2_3 H1_3 1_555 1_555
C3_3 C2_3 1_555 1_555
C4_3 C3_3 1_555 1_555
H2_3 C4_3 1_555 1_555
C5_3 C4_3 1_555 1_555
C6_3 C5_3 1_555 1_555
C7_3 C6_3 1_555 1_555
C8_3 C7_3 1_555 1_555
C9_3 C8_3 1_555 1_555
H3_3 C9_3 1_555 1_555
Cu6_4 O5_3 1_555 1_555
Cu4_3 O6_3 1_555 1_555
Cu5_6 O7_3 1_555 1_555
Cu6_6 O1_3 1_555 1_555
Cu7_3 O9_3 1_555 1_555
Cu12_4 O16_3 1_555 1_555
Cu9_3 O17_3 1_555 1_555
Cu10_6 O18_3 1_555 1_555
Cu10_4 O19_3 1_555 1_555
Cu12_6 O2_3 1_555 1_555
O5_3 C10_3 1_555 1_555
O6_3 C11_3 1_555 1_555
O7_3 C12_3 1_555 1_555
O8_3 Cu5_4 1_555 1_555
O9_3 C14_3 1_555 1_555
O12_3 Cu5_4 1_555 1_555
O13_3 Cu7_3 1_555 1_555
O14_3 Cu7_3 1_555 1_555
O15_3 Cu7_3 1_555 1_555
O16_3 C10_3 1_555 1_555
O17_3 C11_3 1_555 1_555
O18_3 C12_3 1_555 1_555
O19_3 C13_3 1_555 1_555
O20_3 Cu2_3 1_555 1_555
O21_3 Cu2_3 1_555 1_555
O22_3 Cu2_3 1_555 1_555
O23_3 Cu2_3 1_555 1_555
O24_3 Cu7_3 1_555 1_555
C10_3 C17_3 1_555 1_555
C11_3 C18_3 1_555 1_555
C12_3 C19_3 1_555 1_555
C13_3 O8_3 1_555 1_555
C14_3 O20_3 1_555 1_555
C15_3 H4_3 1_555 1_555
C16_3 H5_3 1_555 1_555
C17_3 C2_3 1_555 1_555
C18_3 C15_3 1_555 1_555
C19_3 C15_3 1_555 1_555
C20_3 C13_3 1_555 1_555
C21_3 C14_3 1_555 1_555
C22_3 C5_3 1_555 1_555
C23_3 C18_3 1_555 1_555
C24_3 C19_3 1_555 1_555
C25_3 C20_3 1_555 1_555
C26_3 C21_3 1_555 1_555
H6_3 C22_3 1_555 1_555
H7_3 C24_3 1_555 1_555
H8_3 C23_3 1_555 1_555
H9_3 C26_3 1_555 1_555
H10_3 C25_3 1_555 1_555
C27_3 C23_3 1_555 1_555
C28_3 C25_3 1_555 1_555
C29_3 C27_3 1_555 1_555
C30_3 C28_3 1_555 1_555
C31_3 C29_3 1_555 1_555
C32_3 C30_3 1_555 1_555
C33_3 C9_3 1_555 1_555
C34_3 C32_3 1_555 1_555
C35_3 C33_3 1_555 1_555
C36_3 C8_3 1_555 1_555
H11_3 C36_3 1_555 1_555
H12_3 C35_3 1_555 1_555
C16_3 C20_3 1_555 1_555
C16_3 C21_3 1_555 1_555
C17_3 C22_3 1_555 1_555
C24_3 C27_3 1_555 1_555
C26_3 C28_3 1_555 1_555
C31_3 C33_3 1_555 1_555
C34_3 C35_3 1_555 1_555
C34_3 C36_3 1_555 1_555
Cu5_5 O4_7 1_555 1_555
Cu2_4 O3_4 1_555 1_555
O1_4 C1_4 1_555 1_555
O2_4 C1_4 1_555 1_555
C1_4 C3_4 1_555 1_555
C2_4 H1_4 1_555 1_555
C3_4 C2_4 1_555 1_555
C4_4 C3_4 1_555 1_555
H2_4 C4_4 1_555 1_555
C5_4 C4_4 1_555 1_555
C6_4 C5_4 1_555 1_555
C7_4 C6_4 1_555 1_555
C8_4 C7_4 1_555 1_555
C9_4 C8_4 1_555 1_555
H3_4 C9_4 1_555 1_555
Cu6_5 O5_4 1_555 1_555
Cu4_4 O6_4 1_555 1_555
Cu3_2 O1_4 1_555 1_555
Cu7_4 O9_4 1_555 1_555
Cu12_5 O16_4 1_555 1_555
Cu9_4 O17_4 1_555 1_555
Cu11_2 O18_4 1_555 1_555
Cu10_5 O19_4 1_555 1_555
Cu8_2 O2_4 1_555 1_555
O5_4 C10_4 1_555 1_555
O6_4 C11_4 1_555 1_555
O11 C12_4 1_555 1_555
O8_4 Cu5_5 1_555 1_555
O9_4 C14_4 1_555 1_555
O12_4 Cu5_5 1_555 1_555
O13_4 Cu7_4 1_555 1_555
O14_4 Cu7_4 1_555 1_555
O15_4 Cu7_4 1_555 1_555
O16_4 C10_4 1_555 1_555
O17_4 C11_4 1_555 1_555
O18_4 C12_4 1_555 1_555
O19_4 C13_4 1_555 1_555
O20_4 Cu2_4 1_555 1_555
O21_4 Cu2_4 1_555 1_555
O22_4 Cu2_4 1_555 1_555
O23_4 Cu2_4 1_555 1_555
O24_4 Cu7_4 1_555 1_555
C10_4 C17_4 1_555 1_555
C11_4 C18_4 1_555 1_555
C12_4 C19_4 1_555 1_555
C13_4 O8_4 1_555 1_555
C14_4 O20_4 1_555 1_555
C15_4 H4_4 1_555 1_555
C16_4 H5_4 1_555 1_555
C17_4 C2_4 1_555 1_555
C18_4 C15_4 1_555 1_555
C19_4 C15_4 1_555 1_555
C20_4 C13_4 1_555 1_555
C21_4 C14_4 1_555 1_555
C22_4 C5_4 1_555 1_555
C23_4 C18_4 1_555 1_555
C24_4 C19_4 1_555 1_555
C25_4 C20_4 1_555 1_555
C26_4 C21_4 1_555 1_555
H6_4 C22_4 1_555 1_555
H7_4 C24_4 1_555 1_555
H8_4 C23_4 1_555 1_555
H9_4 C26_4 1_555 1_555
H10_4 C25_4 1_555 1_555
C27_4 C23_4 1_555 1_555
C28_4 C25_4 1_555 1_555
C29_4 C27_4 1_555 1_555
C30_4 C28_4 1_555 1_555
C31_4 C29_4 1_555 1_555
C32_4 C30_4 1_555 1_555
C33_4 C9_4 1_555 1_555
C34_4 C32_4 1_555 1_555
C35_4 C33_4 1_555 1_555
C36_4 C8_4 1_555 1_555
H11_4 C36_4 1_555 1_555
H12_4 C35_4 1_555 1_555
C16_4 C20_4 1_555 1_555
C16_4 C21_4 1_555 1_555
C17_4 C22_4 1_555 1_555
C24_4 C27_4 1_555 1_555
C26_4 C28_4 1_555 1_555
C31_4 C33_4 1_555 1_555
C34_4 C35_4 1_555 1_555
C34_4 C36_4 1_555 1_555
Cu5_6 O4_8 1_555 1_555
O10_4 Cu5_6 1_555 1_555
Cu1_3 O4_9 1_555 1_555
Cu2_5 O3_5 1_555 1_555
O1_5 C1_5 1_555 1_555
O2_5 C1_5 1_555 1_555
C1_5 C3_5 1_555 1_555
C2_5 H1_5 1_555 1_555
C3_5 C2_5 1_555 1_555
C4_5 C3_5 1_555 1_555
H2_5 C4_5 1_555 1_555
C5_5 C4_5 1_555 1_555
C6_5 C5_5 1_555 1_555
C7_5 C6_5 1_555 1_555
C8_5 C7_5 1_555 1_555
C9_5 C8_5 1_555 1_555
H3_5 C9_5 1_555 1_555
Cu3_3 O5_5 1_555 1_555
Cu4_5 O6_5 1_555 1_555
Cu6_5 O1_5 1_555 1_555
Cu7_5 O9_5 1_555 1_555
Cu8_3 O16_5 1_555 1_555
Cu9_5 O17_5 1_555 1_555
Cu10_5 O18_5 1_555 1_555
Cu11_3 O19_5 1_555 1_555
Cu12_5 O2_5 1_555 1_555
O5_5 C10_5 1_555 1_555
O6_5 C11_5 1_555 1_555
O12_4 C12_5 1_555 1_555
O8_5 Cu1_3 1_555 1_555
O9_5 C14_5 1_555 1_555
O12_5 Cu1_3 1_555 1_555
O13_5 Cu7_5 1_555 1_555
O14_5 Cu7_5 1_555 1_555
O15_5 Cu7_5 1_555 1_555
O16_5 C10_5 1_555 1_555
O17_5 C11_5 1_555 1_555
O18_5 C12_5 1_555 1_555
O19_5 C13_5 1_555 1_555
O20_5 Cu2_5 1_555 1_555
O21_5 Cu2_5 1_555 1_555
O22_5 Cu2_5 1_555 1_555
O23_5 Cu2_5 1_555 1_555
O24_5 Cu7_5 1_555 1_555
C10_5 C17_5 1_555 1_555
C11_5 C18_5 1_555 1_555
C12_5 C19_5 1_555 1_555
C13_5 O8_5 1_555 1_555
C14_5 O20_5 1_555 1_555
C15_5 H4_5 1_555 1_555
C16_5 H5_5 1_555 1_555
C17_5 C2_5 1_555 1_555
C18_5 C15_5 1_555 1_555
C19_5 C15_5 1_555 1_555
C20_5 C13_5 1_555 1_555
C21_5 C14_5 1_555 1_555
C22_5 C5_5 1_555 1_555
C23_5 C18_5 1_555 1_555
C24_5 C19_5 1_555 1_555
C25_5 C20_5 1_555 1_555
C26_5 C21_5 1_555 1_555
H6_5 C22_5 1_555 1_555
H7_5 C24_5 1_555 1_555
H8_5 C23_5 1_555 1_555
H9_5 C26_5 1_555 1_555
H10_5 C25_5 1_555 1_555
C27_5 C23_5 1_555 1_555
C28_5 C25_5 1_555 1_555
C29_5 C27_5 1_555 1_555
C30_5 C28_5 1_555 1_555
C31_5 C29_5 1_555 1_555
C32_5 C30_5 1_555 1_555
C33_5 C9_5 1_555 1_555
C34_5 C32_5 1_555 1_555
C35_5 C33_5 1_555 1_555
C36_5 C8_5 1_555 1_555
H11_5 C36_5 1_555 1_555
H12_5 C35_5 1_555 1_555
C16_5 C20_5 1_555 1_555
C16_5 C21_5 1_555 1_555
C17_5 C22_5 1_555 1_555
C24_5 C27_5 1_555 1_555
C26_5 C28_5 1_555 1_555
C31_5 C33_5 1_555 1_555
C34_5 C35_5 1_555 1_555
C34_5 C36_5 1_555 1_555
Cu1_4 O4_10 1_555 1_555
O10_5 Cu1_4 1_555 1_555
O11_2 Cu1_4 1_555 1_555
Cu1_5 O4_11 1_555 1_555
O10_6 Cu1_5 1_555 1_555
O11_3 Cu1_5 1_555 1_555
Cu1_6 O4_12 1_555 1_555
Cu9_4 O3_6 1_555 1_555
O1_6 C1_6 1_555 1_555
O2_6 C1_6 1_555 1_555
C1_6 C3_6 1_555 1_555
C2_6 H1_6 1_555 1_555
C3_6 C2_6 1_555 1_555
C4_6 C3_6 1_555 1_555
H2_6 C4_6 1_555 1_555
C5_6 C4_6 1_555 1_555
C6_6 C5_6 1_555 1_555
C7_6 C6_6 1_555 1_555
C8_6 C7_6 1_555 1_555
C9_6 C8_6 1_555 1_555
H3_6 C9_6 1_555 1_555
Cu3_6 O5_6 1_555 1_555
Cu5_7 O7_4 1_555 1_555
Cu6_7 O1_6 1_555 1_555
Cu4_4 O9_6 1_555 1_555
Cu8_6 O16_6 1_555 1_555
Cu10_7 O18_6 1_555 1_555
Cu11_6 O19_6 1_555 1_555
Cu12_7 O2_6 1_555 1_555
O5_6 C10_6 1_555 1_555
O14_4 C11_6 1_555 1_555
O7_4 C12_6 1_555 1_555
O8_6 Cu1_6 1_555 1_555
O9_6 C14_6 1_555 1_555
O12_6 Cu1_6 1_555 1_555
O13_6 Cu4_4 1_555 1_555
O15_6 Cu4_4 1_555 1_555
O16_6 C10_6 1_555 1_555
O22_4 C11_6 1_555 1_555
O18_6 C12_6 1_555 1_555
O19_6 C13_6 1_555 1_555
O20_6 Cu9_4 1_555 1_555
O21_6 Cu9_4 1_555 1_555
O23_6 Cu9_4 1_555 1_555
O24_6 Cu4_4 1_555 1_555
C10_6 C17_6 1_555 1_555
C11_6 C18_6 1_555 1_555
C12_6 C19_6 1_555 1_555
C13_6 O8_6 1_555 1_555
C14_6 O20_6 1_555 1_555
C15_6 H4_6 1_555 1_555
C16_6 H5_6 1_555 1_555
C17_6 C2_6 1_555 1_555
C18_6 C15_6 1_555 1_555
C19_6 C15_6 1_555 1_555
C20_6 C13_6 1_555 1_555
C21_6 C14_6 1_555 1_555
C22_6 C5_6 1_555 1_555
C23_6 C18_6 1_555 1_555
C24_6 C19_6 1_555 1_555
C25_6 C20_6 1_555 1_555
C26_6 C21_6 1_555 1_555
H6_6 C22_6 1_555 1_555
H7_6 C24_6 1_555 1_555
H8_6 C23_6 1_555 1_555
H9_6 C26_6 1_555 1_555
H10_6 C25_6 1_555 1_555
C27_6 C23_6 1_555 1_555
C28_6 C25_6 1_555 1_555
C29_6 C27_6 1_555 1_555
C30_6 C28_6 1_555 1_555
C31_6 C29_6 1_555 1_555
C32_6 C30_6 1_555 1_555
C33_6 C9_6 1_555 1_555
C34_6 C32_6 1_555 1_555
C35_6 C33_6 1_555 1_555
C36_6 C8_6 1_555 1_555
H11_6 C36_6 1_555 1_555
H12_6 C35_6 1_555 1_555
C16_6 C20_6 1_555 1_555
C16_6 C21_6 1_555 1_555
C17_6 C22_6 1_555 1_555
C24_6 C27_6 1_555 1_555
C26_6 C28_6 1_555 1_555
C31_6 C33_6 1_555 1_555
C34_6 C35_6 1_555 1_555
C34_6 C36_6 1_555 1_555
Cu1_7 O4_13 1_555 1_555
O10_7 Cu1_7 1_555 1_555
O11_4 Cu1_7 1_555 1_555
Cu1_8 O4_14 1_555 1_555
Cu2_6 O3_7 1_555 1_555
O1_7 C1_7 1_555 1_555
O2_7 C1_7 1_555 1_555
C1_7 C3_7 1_555 1_555
C2_7 H1_7 1_555 1_555
C3_7 C2_7 1_555 1_555
C4_7 C3_7 1_555 1_555
H2_7 C4_7 1_555 1_555
C5_7 C4_7 1_555 1_555
C6_7 C5_7 1_555 1_555
C7_7 C6_7 1_555 1_555
C8_7 C7_7 1_555 1_555
C9_7 C8_7 1_555 1_555
H3_7 C9_7 1_555 1_555
Cu3_8 O5_7 1_555 1_555
Cu4_6 O6_6 1_555 1_555
Cu5_9 O7_5 1_555 1_555
Cu6_9 O1_7 1_555 1_555
Cu7_6 O9_7 1_555 1_555
Cu8_8 O16_7 1_555 1_555
Cu9_6 O17_6 1_555 1_555
Cu10_9 O18_7 1_555 1_555
Cu11_8 O19_7 1_555 1_555
Cu12_9 O2_7 1_555 1_555
O5_7 C10_7 1_555 1_555
O6_6 C11_7 1_555 1_555
O7_5 C12_7 1_555 1_555
O8_7 Cu1_8 1_555 1_555
O9_7 C14_7 1_555 1_555
O12_7 Cu1_8 1_555 1_555
O13_7 Cu7_6 1_555 1_555
O14_6 Cu7_6 1_555 1_555
O15_7 Cu7_6 1_555 1_555
O16_7 C10_7 1_555 1_555
O17_6 C11_7 1_555 1_555
O18_7 C12_7 1_555 1_555
O19_7 C13_7 1_555 1_555
O20_7 Cu2_6 1_555 1_555
O21_7 Cu2_6 1_555 1_555
O22_6 Cu2_6 1_555 1_555
O23_7 Cu2_6 1_555 1_555
O24_7 Cu7_6 1_555 1_555
C10_7 C17_7 1_555 1_555
C11_7 C18_7 1_555 1_555
C12_7 C19_7 1_555 1_555
C13_7 O8_7 1_555 1_555
C14_7 O20_7 1_555 1_555
C15_7 H4_7 1_555 1_555
C16_7 H5_7 1_555 1_555
C17_7 C2_7 1_555 1_555
C18_7 C15_7 1_555 1_555
C19_7 C15_7 1_555 1_555
C20_7 C13_7 1_555 1_555
C21_7 C14_7 1_555 1_555
C22_7 C5_7 1_555 1_555
C23_7 C18_7 1_555 1_555
C24_7 C19_7 1_555 1_555
C25_7 C20_7 1_555 1_555
C26_7 C21_7 1_555 1_555
H6_7 C22_7 1_555 1_555
H7_7 C24_7 1_555 1_555
H8_7 C23_7 1_555 1_555
H9_7 C26_7 1_555 1_555
H10_7 C25_7 1_555 1_555
C27_7 C23_7 1_555 1_555
C28_7 C25_7 1_555 1_555
C29_7 C27_7 1_555 1_555
C30_7 C28_7 1_555 1_555
C31_7 C29_7 1_555 1_555
C32_7 C30_7 1_555 1_555
C33_7 C9_7 1_555 1_555
C34_7 C32_7 1_555 1_555
C35_7 C33_7 1_555 1_555
C36_7 C8_7 1_555 1_555
H11_7 C36_7 1_555 1_555
H12_7 C35_7 1_555 1_555
C16_7 C20_7 1_555 1_555
C16_7 C21_7 1_555 1_555
C17_7 C22_7 1_555 1_555
C24_7 C27_7 1_555 1_555
C26_7 C28_7 1_555 1_555
C31_7 C33_7 1_555 1_555
C34_7 C35_7 1_555 1_555
C34_7 C36_7 1_555 1_555
Cu2_7 O3_8 1_555 1_555
O1_8 C1_8 1_555 1_555
O2_8 C1_8 1_555 1_555
C1_8 C3_8 1_555 1_555
C2_8 H1_8 1_555 1_555
C3_8 C2_8 1_555 1_555
C4_8 C3_8 1_555 1_555
H2_8 C4_8 1_555 1_555
C5_8 C4_8 1_555 1_555
C6_8 C5_8 1_555 1_555
C7_8 C6_8 1_555 1_555
C8_8 C7_8 1_555 1_555
C9_8 C8_8 1_555 1_555
H3_8 C9_8 1_555 1_555
Cu3_5 O5_8 1_555 1_555
Cu4_7 O6_7 1_555 1_555
Cu3_8 O1_8 1_555 1_555
Cu7_7 O9_8 1_555 1_555
Cu8_5 O16_8 1_555 1_555
Cu9_7 O17_7 1_555 1_555
Cu11_8 O18_8 1_555 1_555
Cu11_5 O19_8 1_555 1_555
Cu8_8 O2_8 1_555 1_555
O5_8 C10_8 1_555 1_555
O6_7 C11_8 1_555 1_555
O12_7 C12_8 1_555 1_555
O9_8 C14_8 1_555 1_555
O13_8 Cu7_7 1_555 1_555
O14_7 Cu7_7 1_555 1_555
O15_8 Cu7_7 1_555 1_555
O16_8 C10_8 1_555 1_555
O17_7 C11_8 1_555 1_555
O18_8 C12_8 1_555 1_555
O19_8 C13_8 1_555 1_555
O20_8 Cu2_7 1_555 1_555
O21_8 Cu2_7 1_555 1_555
O22_7 Cu2_7 1_555 1_555
O23_8 Cu2_7 1_555 1_555
O24_8 Cu7_7 1_555 1_555
C10_8 C17_8 1_555 1_555
C11_8 C18_8 1_555 1_555
C12_8 C19_8 1_555 1_555
C13_8 O10_6 1_555 1_555
C14_8 O20_8 1_555 1_555
C15_8 H4_8 1_555 1_555
C16_8 H5_8 1_555 1_555
C17_8 C2_8 1_555 1_555
C18_8 C15_8 1_555 1_555
C19_8 C15_8 1_555 1_555
C20_8 C13_8 1_555 1_555
C21_8 C14_8 1_555 1_555
C22_8 C5_8 1_555 1_555
C23_8 C18_8 1_555 1_555
C24_8 C19_8 1_555 1_555
C25_8 C20_8 1_555 1_555
C26_8 C21_8 1_555 1_555
H6_8 C22_8 1_555 1_555
H7_8 C24_8 1_555 1_555
H8_8 C23_8 1_555 1_555
H9_8 C26_8 1_555 1_555
H10_8 C25_8 1_555 1_555
C27_8 C23_8 1_555 1_555
C28_8 C25_8 1_555 1_555
C29_8 C27_8 1_555 1_555
C30_8 C28_8 1_555 1_555
C31_8 C29_8 1_555 1_555
C32_8 C30_8 1_555 1_555
C33_8 C9_8 1_555 1_555
C34_8 C32_8 1_555 1_555
C35_8 C33_8 1_555 1_555
C36_8 C8_8 1_555 1_555
H11_8 C36_8 1_555 1_555
H12_8 C35_8 1_555 1_555
C16_8 C20_8 1_555 1_555
C16_8 C21_8 1_555 1_555
C17_8 C22_8 1_555 1_555
C24_8 C27_8 1_555 1_555
C26_8 C28_8 1_555 1_555
C31_8 C33_8 1_555 1_555
C34_8 C35_8 1_555 1_555
C34_8 C36_8 1_555 1_555
Cu1_9 O4_15 1_555 1_555
Cu9_2 O3_9 1_555 1_555
O1_9 C1_9 1_555 1_555
O2_9 C1_9 1_555 1_555
C1_9 C3_9 1_555 1_555
C2_9 H1_9 1_555 1_555
C3_9 C2_9 1_555 1_555
C4_9 C3_9 1_555 1_555
H2_9 C4_9 1_555 1_555
C5_9 C4_9 1_555 1_555
C6_9 C5_9 1_555 1_555
C7_9 C6_9 1_555 1_555
C8_9 C7_9 1_555 1_555
C9_9 C8_9 1_555 1_555
H3_9 C9_9 1_555 1_555
Cu3_9 O5_9 1_555 1_555
Cu5_10 O7_6 1_555 1_555
Cu6_10 O1_9 1_555 1_555
Cu4_2 O9_9 1_555 1_555
Cu8_9 O16_9 1_555 1_555
Cu10_10 O18_9 1_555 1_555
Cu11_9 O19_9 1_555 1_555
Cu12_10 O2_9 1_555 1_555
O5_9 C10_9 1_555 1_555
O14_2 C11_9 1_555 1_555
O7_6 C12_9 1_555 1_555
O8_8 Cu1_9 1_555 1_555
O9_9 C14_9 1_555 1_555
O12_8 Cu1_9 1_555 1_555
O13_9 Cu4_2 1_555 1_555
O15_9 Cu4_2 1_555 1_555
O16_9 C10_9 1_555 1_555
O22_2 C11_9 1_555 1_555
O18_9 C12_9 1_555 1_555
O19_9 C13_9 1_555 1_555
O20_9 Cu9_2 1_555 1_555
O21_9 Cu9_2 1_555 1_555
O23_9 Cu9_2 1_555 1_555
O24_9 Cu4_2 1_555 1_555
C10_9 C17_9 1_555 1_555
C11_9 C18_9 1_555 1_555
C12_9 C19_9 1_555 1_555
C13_9 O8_8 1_555 1_555
C14_9 O20_9 1_555 1_555
C15_9 H4_9 1_555 1_555
C16_9 H5_9 1_555 1_555
C17_9 C2_9 1_555 1_555
C18_9 C15_9 1_555 1_555
C19_9 C15_9 1_555 1_555
C20_9 C13_9 1_555 1_555
C21_9 C14_9 1_555 1_555
C22_9 C5_9 1_555 1_555
C23_9 C18_9 1_555 1_555
C24_9 C19_9 1_555 1_555
C25_9 C20_9 1_555 1_555
C26_9 C21_9 1_555 1_555
H6_9 C22_9 1_555 1_555
H7_9 C24_9 1_555 1_555
H8_9 C23_9 1_555 1_555
H9_9 C26_9 1_555 1_555
H10_9 C25_9 1_555 1_555
C27_9 C23_9 1_555 1_555
C28_9 C25_9 1_555 1_555
C29_9 C27_9 1_555 1_555
C30_9 C28_9 1_555 1_555
C31_9 C29_9 1_555 1_555
C32_9 C30_9 1_555 1_555
C33_9 C9_9 1_555 1_555
C34_9 C32_9 1_555 1_555
C35_9 C33_9 1_555 1_555
C36_9 C8_9 1_555 1_555
H11_9 C36_9 1_555 1_555
H12_9 C35_9 1_555 1_555
C16_9 C20_9 1_555 1_555
C16_9 C21_9 1_555 1_555
C17_9 C22_9 1_555 1_555
C24_9 C27_9 1_555 1_555
C26_9 C28_9 1_555 1_555
C31_9 C33_9 1_555 1_555
C34_9 C35_9 1_555 1_555
C34_9 C36_9 1_555 1_555
Cu1_10 O4_16 1_555 1_555
O10_8 Cu1_10 1_555 1_555
O11_5 Cu1_10 1_555 1_555
Cu2_8 O3_10 1_555 1_555
O1_10 C1_10 1_555 1_555
O2_10 C1_10 1_555 1_555
C1_10 C3_10 1_555 1_555
C2_10 H1_10 1_555 1_555
C3_10 C2_10 1_555 1_555
C4_10 C3_10 1_555 1_555
H2_10 C4_10 1_555 1_555
C5_10 C4_10 1_555 1_555
C6_10 C5_10 1_555 1_555
C7_10 C6_10 1_555 1_555
C8_10 C7_10 1_555 1_555
C9_10 C8_10 1_555 1_555
H3_10 C9_10 1_555 1_555
Cu6_3 O5_10 1_555 1_555
Cu4_8 O6_8 1_555 1_555
Cu5_11 O7_7 1_555 1_555
Cu6_11 O1_10 1_555 1_555
Cu7_8 O9_10 1_555 1_555
Cu12_3 O16_10 1_555 1_555
Cu9_8 O17_8 1_555 1_555
Cu10_11 O18_10 1_555 1_555
Cu10_3 O19_10 1_555 1_555
Cu12_11 O2_10 1_555 1_555
O5_10 C10_10 1_555 1_555
O6_8 C11_10 1_555 1_555
O7_7 C12_10 1_555 1_555
O9_10 C14_10 1_555 1_555
O13_10 Cu7_8 1_555 1_555
O14_8 Cu7_8 1_555 1_555
O15_10 Cu7_8 1_555 1_555
O16_10 C10_10 1_555 1_555
O17_8 C11_10 1_555 1_555
O18_10 C12_10 1_555 1_555
O19_10 C13_10 1_555 1_555
O20_10 Cu2_8 1_555 1_555
O21_10 Cu2_8 1_555 1_555
O22_8 Cu2_8 1_555 1_555
O23_10 Cu2_8 1_555 1_555
O24_10 Cu7_8 1_555 1_555
C10_10 C17_10 1_555 1_555
C11_10 C18_10 1_555 1_555
C12_10 C19_10 1_555 1_555
C13_10 O10_3 1_555 1_555
C14_10 O20_10 1_555 1_555
C15_10 H4_10 1_555 1_555
C16_10 H5_10 1_555 1_555
C17_10 C2_10 1_555 1_555
C18_10 C15_10 1_555 1_555
C19_10 C15_10 1_555 1_555
C20_10 C13_10 1_555 1_555
C21_10 C14_10 1_555 1_555
C22_10 C5_10 1_555 1_555
C23_10 C18_10 1_555 1_555
C24_10 C19_10 1_555 1_555
C25_10 C20_10 1_555 1_555
C26_10 C21_10 1_555 1_555
H6_10 C22_10 1_555 1_555
H7_10 C24_10 1_555 1_555
H8_10 C23_10 1_555 1_555
H9_10 C26_10 1_555 1_555
H10_10 C25_10 1_555 1_555
C27_10 C23_10 1_555 1_555
C28_10 C25_10 1_555 1_555
C29_10 C27_10 1_555 1_555
C30_10 C28_10 1_555 1_555
C31_10 C29_10 1_555 1_555
C32_10 C30_10 1_555 1_555
C33_10 C9_10 1_555 1_555
C34_10 C32_10 1_555 1_555
C35_10 C33_10 1_555 1_555
C36_10 C8_10 1_555 1_555
H11_10 C36_10 1_555 1_555
H12_10 C35_10 1_555 1_555
C16_10 C20_10 1_555 1_555
C16_10 C21_10 1_555 1_555
C17_10 C22_10 1_555 1_555
C24_10 C27_10 1_555 1_555
C26_10 C28_10 1_555 1_555
C31_10 C33_10 1_555 1_555
C34_10 C35_10 1_555 1_555
C34_10 C36_10 1_555 1_555
Cu9_8 O3_11 1_555 1_555
O1_11 C1_11 1_555 1_555
O2_11 C1_11 1_555 1_555
C1_11 C3_11 1_555 1_555
C2_11 H1_11 1_555 1_555
C3_11 C2_11 1_555 1_555
C4_11 C3_11 1_555 1_555
H2_11 C4_11 1_555 1_555
C5_11 C4_11 1_555 1_555
C6_11 C5_11 1_555 1_555
C7_11 C6_11 1_555 1_555
C8_11 C7_11 1_555 1_555
C9_11 C8_11 1_555 1_555
H3_11 C9_11 1_555 1_555
Cu3_7 O5_11 1_555 1_555
Cu3 O1_11 1_555 1_555
Cu4_8 O9_11 1_555 1_555
Cu8_7 O16_11 1_555 1_555
Cu11 O18_11 1_555 1_555
Cu11_7 O19_11 1_555 1_555
Cu8 O2_11 1_555 1_555
O5_11 C10_11 1_555 1_555
O14_8 C11_11 1_555 1_555
O12 C12_11 1_555 1_555
O9_11 C14_11 1_555 1_555
O13_11 Cu4_8 1_555 1_555
O15_11 Cu4_8 1_555 1_555
O16_11 C10_11 1_555 1_555
O22_8 C11_11 1_555 1_555
O18_11 C12_11 1_555 1_555
O19_11 C13_11 1_555 1_555
O20_11 Cu9_8 1_555 1_555
O21_11 Cu9_8 1_555 1_555
O23_11 Cu9_8 1_555 1_555
O24_11 Cu4_8 1_555 1_555
C10_11 C17_11 1_555 1_555
C11_11 C18_11 1_555 1_555
C12_11 C19_11 1_555 1_555
C13_11 O10_7 1_555 1_555
C14_11 O20_11 1_555 1_555
C15_11 H4_11 1_555 1_555
C16_11 H5_11 1_555 1_555
C17_11 C2_11 1_555 1_555
C18_11 C15_11 1_555 1_555
C19_11 C15_11 1_555 1_555
C20_11 C13_11 1_555 1_555
C21_11 C14_11 1_555 1_555
C22_11 C5_11 1_555 1_555
C23_11 C18_11 1_555 1_555
C24_11 C19_11 1_555 1_555
C25_11 C20_11 1_555 1_555
C26_11 C21_11 1_555 1_555
H6_11 C22_11 1_555 1_555
H7_11 C24_11 1_555 1_555
H8_11 C23_11 1_555 1_555
H9_11 C26_11 1_555 1_555
H10_11 C25_11 1_555 1_555
C27_11 C23_11 1_555 1_555
C28_11 C25_11 1_555 1_555
C29_11 C27_11 1_555 1_555
C30_11 C28_11 1_555 1_555
C31_11 C29_11 1_555 1_555
C32_11 C30_11 1_555 1_555
C33_11 C9_11 1_555 1_555
C34_11 C32_11 1_555 1_555
C35_11 C33_11 1_555 1_555
C36_11 C8_11 1_555 1_555
H11_11 C36_11 1_555 1_555
H12_11 C35_11 1_555 1_555
C16_11 C20_11 1_555 1_555
C16_11 C21_11 1_555 1_555
C17_11 C22_11 1_555 1_555
C24_11 C27_11 1_555 1_555
C26_11 C28_11 1_555 1_555
C31_11 C33_11 1_555 1_555
C34_11 C35_11 1_555 1_555
C34_11 C36_11 1_555 1_555
Cu9_5 O3_12 1_555 1_555
O1_12 C1_12 1_555 1_555
O2_12 C1_12 1_555 1_555
C1_12 C3_12 1_555 1_555
C2_12 H1_12 1_555 1_555
C3_12 C2_12 1_555 1_555
C4_12 C3_12 1_555 1_555
H2_12 C4_12 1_555 1_555
C5_12 C4_12 1_555 1_555
C6_12 C5_12 1_555 1_555
C7_12 C6_12 1_555 1_555
C8_12 C7_12 1_555 1_555
C9_12 C8_12 1_555 1_555
H3_12 C9_12 1_555 1_555
Cu6 O5_12 1_555 1_555
Cu3_7 O1_12 1_555 1_555
Cu4_5 O9_12 1_555 1_555
Cu12 O16_12 1_555 1_555
Cu11_7 O18_12 1_555 1_555
Cu10 O19_12 1_555 1_555
Cu8_7 O2_12 1_555 1_555
O5_12 C10_12 1_555 1_555
O14_5 C11_12 1_555 1_555
O11_4 C12_12 1_555 1_555
O9_12 C14_12 1_555 1_555
O13_12 Cu4_5 1_555 1_555
O15_12 Cu4_5 1_555 1_555
O16_12 C10_12 1_555 1_555
O22_5 C11_12 1_555 1_555
O18_12 C12_12 1_555 1_555
O19_12 C13_12 1_555 1_555
O20_12 Cu9_5 1_555 1_555
O21_12 Cu9_5 1_555 1_555
O23_12 Cu9_5 1_555 1_555
O24_12 Cu4_5 1_555 1_555
C10_12 C17_12 1_555 1_555
C11_12 C18_12 1_555 1_555
C12_12 C19_12 1_555 1_555
C13_12 O10_2 1_555 1_555
C14_12 O20_12 1_555 1_555
C15_12 H4_12 1_555 1_555
C16_12 H5_12 1_555 1_555
C17_12 C2_12 1_555 1_555
C18_12 C15_12 1_555 1_555
C19_12 C15_12 1_555 1_555
C20_12 C13_12 1_555 1_555
C21_12 C14_12 1_555 1_555
C22_12 C5_12 1_555 1_555
C23_12 C18_12 1_555 1_555
C24_12 C19_12 1_555 1_555
C25_12 C20_12 1_555 1_555
C26_12 C21_12 1_555 1_555
H6_12 C22_12 1_555 1_555
H7_12 C24_12 1_555 1_555
H8_12 C23_12 1_555 1_555
H9_12 C26_12 1_555 1_555
H10_12 C25_12 1_555 1_555
C27_12 C23_12 1_555 1_555
C28_12 C25_12 1_555 1_555
C29_12 C27_12 1_555 1_555
C30_12 C28_12 1_555 1_555
C31_12 C29_12 1_555 1_555
C32_12 C30_12 1_555 1_555
C33_12 C9_12 1_555 1_555
C34_12 C32_12 1_555 1_555
C35_12 C33_12 1_555 1_555
C36_12 C8_12 1_555 1_555
H11_12 C36_12 1_555 1_555
H12_12 C35_12 1_555 1_555
C16_12 C20_12 1_555 1_555
C16_12 C21_12 1_555 1_555
C17_12 C22_12 1_555 1_555
C24_12 C27_12 1_555 1_555
C26_12 C28_12 1_555 1_555
C31_12 C33_12 1_555 1_555
C34_12 C35_12 1_555 1_555
C34_12 C36_12 1_555 1_555
Cu2_9 O3_13 1_555 1_555
O1_13 C1_13 1_555 1_555
O2_13 C1_13 1_555 1_555
C1_13 C3_13 1_555 1_555
C2_13 H1_13 1_555 1_555
C3_13 C2_13 1_555 1_555
C4_13 C3_13 1_555 1_555
H2_13 C4_13 1_555 1_555
C5_13 C4_13 1_555 1_555
C6_13 C5_13 1_555 1_555
C7_13 C6_13 1_555 1_555
C8_13 C7_13 1_555 1_555
C9_13 C8_13 1_555 1_555
H3_13 C9_13 1_555 1_555
Cu6_6 O5_13 1_555 1_555
Cu4_9 O6_9 1_555 1_555
Cu5_13 O7_8 1_555 1_555
Cu6_13 O1_13 1_555 1_555
Cu7_9 O9_13 1_555 1_555
Cu12_6 O16_13 1_555 1_555
Cu9_9 O17_9 1_555 1_555
Cu10_13 O18_13 1_555 1_555
Cu10_6 O19_13 1_555 1_555
Cu12_13 O2_13 1_555 1_555
O5_13 C10_13 1_555 1_555
O6_9 C11_13 1_555 1_555
O7_8 C12_13 1_555 1_555
O9_13 C14_13 1_555 1_555
O13_13 Cu7_9 1_555 1_555
O14_9 Cu7_9 1_555 1_555
O15_13 Cu7_9 1_555 1_555
O16_13 C10_13 1_555 1_555
O17_9 C11_13 1_555 1_555
O18_13 C12_13 1_555 1_555
O19_13 C13_13 1_555 1_555
O20_13 Cu2_9 1_555 1_555
O21_13 Cu2_9 1_555 1_555
O22_9 Cu2_9 1_555 1_555
O23_13 Cu2_9 1_555 1_555
O24_13 Cu7_9 1_555 1_555
C10_13 C17_13 1_555 1_555
C11_13 C18_13 1_555 1_555
C12_13 C19_13 1_555 1_555
C13_13 O10_4 1_555 1_555
C14_13 O20_13 1_555 1_555
C15_13 H4_13 1_555 1_555
C16_13 H5_13 1_555 1_555
C17_13 C2_13 1_555 1_555
C18_13 C15_13 1_555 1_555
C19_13 C15_13 1_555 1_555
C20_13 C13_13 1_555 1_555
C21_13 C14_13 1_555 1_555
C22_13 C5_13 1_555 1_555
C23_13 C18_13 1_555 1_555
C24_13 C19_13 1_555 1_555
C25_13 C20_13 1_555 1_555
C26_13 C21_13 1_555 1_555
H6_13 C22_13 1_555 1_555
H7_13 C24_13 1_555 1_555
H8_13 C23_13 1_555 1_555
H9_13 C26_13 1_555 1_555
H10_13 C25_13 1_555 1_555
C27_13 C23_13 1_555 1_555
C28_13 C25_13 1_555 1_555
C29_13 C27_13 1_555 1_555
C30_13 C28_13 1_555 1_555
C31_13 C29_13 1_555 1_555
C32_13 C30_13 1_555 1_555
C33_13 C9_13 1_555 1_555
C34_13 C32_13 1_555 1_555
C35_13 C33_13 1_555 1_555
C36_13 C8_13 1_555 1_555
H11_13 C36_13 1_555 1_555
H12_13 C35_13 1_555 1_555
C16_13 C20_13 1_555 1_555
C16_13 C21_13 1_555 1_555
C17_13 C22_13 1_555 1_555
C24_13 C27_13 1_555 1_555
C26_13 C28_13 1_555 1_555
C31_13 C33_13 1_555 1_555
C34_13 C35_13 1_555 1_555
C34_13 C36_13 1_555 1_555
Cu2_10 O3_14 1_555 1_555
O1_14 C1_14 1_555 1_555
O2_14 C1_14 1_555 1_555
C1_14 C3_14 1_555 1_555
C2_14 H1_14 1_555 1_555
C3_14 C2_14 1_555 1_555
C4_14 C3_14 1_555 1_555
H2_14 C4_14 1_555 1_555
C5_14 C4_14 1_555 1_555
C6_14 C5_14 1_555 1_555
C7_14 C6_14 1_555 1_555
C8_14 C7_14 1_555 1_555
C9_14 C8_14 1_555 1_555
H3_14 C9_14 1_555 1_555
Cu3_4 O5_14 1_555 1_555
Cu4_10 O6_10 1_555 1_555
Cu3_6 O1_14 1_555 1_555
Cu7_10 O9_14 1_555 1_555
Cu8_4 O16_14 1_555 1_555
Cu9_10 O17_10 1_555 1_555
Cu11_6 O18_14 1_555 1_555
Cu11_4 O19_14 1_555 1_555
Cu8_6 O2_14 1_555 1_555
O5_14 C10_14 1_555 1_555
O6_10 C11_14 1_555 1_555
O12_6 C12_14 1_555 1_555
O9_14 C14_14 1_555 1_555
O13_14 Cu7_10 1_555 1_555
O14_10 Cu7_10 1_555 1_555
O15_14 Cu7_10 1_555 1_555
O16_14 C10_14 1_555 1_555
O17_10 C11_14 1_555 1_555
O18_14 C12_14 1_555 1_555
O19_14 C13_14 1_555 1_555
O20_14 Cu2_10 1_555 1_555
O21_14 Cu2_10 1_555 1_555
O22_10 Cu2_10 1_555 1_555
O23_14 Cu2_10 1_555 1_555
O24_14 Cu7_10 1_555 1_555
C10_14 C17_14 1_555 1_555
C11_14 C18_14 1_555 1_555
C12_14 C19_14 1_555 1_555
C13_14 O10_5 1_555 1_555
C14_14 O20_14 1_555 1_555
C15_14 H4_14 1_555 1_555
C16_14 H5_14 1_555 1_555
C17_14 C2_14 1_555 1_555
C18_14 C15_14 1_555 1_555
C19_14 C15_14 1_555 1_555
C20_14 C13_14 1_555 1_555
C21_14 C14_14 1_555 1_555
C22_14 C5_14 1_555 1_555
C23_14 C18_14 1_555 1_555
C24_14 C19_14 1_555 1_555
C25_14 C20_14 1_555 1_555
C26_14 C21_14 1_555 1_555
H6_14 C22_14 1_555 1_555
H7_14 C24_14 1_555 1_555
H8_14 C23_14 1_555 1_555
H9_14 C26_14 1_555 1_555
H10_14 C25_14 1_555 1_555
C27_14 C23_14 1_555 1_555
C28_14 C25_14 1_555 1_555
C29_14 C27_14 1_555 1_555
C30_14 C28_14 1_555 1_555
C31_14 C29_14 1_555 1_555
C32_14 C30_14 1_555 1_555
C33_14 C9_14 1_555 1_555
C34_14 C32_14 1_555 1_555
C35_14 C33_14 1_555 1_555
C36_14 C8_14 1_555 1_555
H11_14 C36_14 1_555 1_555
H12_14 C35_14 1_555 1_555
C16_14 C20_14 1_555 1_555
C16_14 C21_14 1_555 1_555
C17_14 C22_14 1_555 1_555
C24_14 C27_14 1_555 1_555
C26_14 C28_14 1_555 1_555
C31_14 C33_14 1_555 1_555
C34_14 C35_14 1_555 1_555
C34_14 C36_14 1_555 1_555
Cu5_9 O4_17 1_555 1_555
O10_9 Cu5_9 1_555 1_555
Cu5_10 O4_18 1_555 1_555
Cu2_11 O3_15 1_555 1_555
O1_15 C1_15 1_555 1_555
O2_15 C1_15 1_555 1_555
C1_15 C3_15 1_555 1_555
C2_15 H1_15 1_555 1_555
C3_15 C2_15 1_555 1_555
C4_15 C3_15 1_555 1_555
H2_15 C4_15 1_555 1_555
C5_15 C4_15 1_555 1_555
C6_15 C5_15 1_555 1_555
C7_15 C6_15 1_555 1_555
C8_15 C7_15 1_555 1_555
C9_15 C8_15 1_555 1_555
H3_15 C9_15 1_555 1_555
Cu6_10 O5_15 1_555 1_555
Cu4_11 O6_11 1_555 1_555
Cu5_12 O7_9 1_555 1_555
Cu6_12 O1_15 1_555 1_555
Cu7_11 O9_15 1_555 1_555
Cu12_10 O16_15 1_555 1_555
Cu9_11 O17_11 1_555 1_555
Cu10_12 O18_15 1_555 1_555
Cu10_10 O19_15 1_555 1_555
Cu12_12 O2_15 1_555 1_555
O5_15 C10_15 1_555 1_555
O6_11 C11_15 1_555 1_555
O7_9 C12_15 1_555 1_555
O8_9 Cu5_10 1_555 1_555
O9_15 C14_15 1_555 1_555
O13_15 Cu7_11 1_555 1_555
O14_11 Cu7_11 1_555 1_555
O15_15 Cu7_11 1_555 1_555
O16_15 C10_15 1_555 1_555
O17_11 C11_15 1_555 1_555
O18_15 C12_15 1_555 1_555
O19_15 C13_15 1_555 1_555
O20_15 Cu2_11 1_555 1_555
O21_15 Cu2_11 1_555 1_555
O22_11 Cu2_11 1_555 1_555
O23_15 Cu2_11 1_555 1_555
O24_15 Cu7_11 1_555 1_555
C10_15 C17_15 1_555 1_555
C11_15 C18_15 1_555 1_555
C12_15 C19_15 1_555 1_555
C13_15 O8_9 1_555 1_555
C14_15 O20_15 1_555 1_555
C15_15 H4_15 1_555 1_555
C16_15 H5_15 1_555 1_555
C17_15 C2_15 1_555 1_555
C18_15 C15_15 1_555 1_555
C19_15 C15_15 1_555 1_555
C20_15 C13_15 1_555 1_555
C21_15 C14_15 1_555 1_555
C22_15 C5_15 1_555 1_555
C23_15 C18_15 1_555 1_555
C24_15 C19_15 1_555 1_555
C25_15 C20_15 1_555 1_555
C26_15 C21_15 1_555 1_555
H6_15 C22_15 1_555 1_555
H7_15 C24_15 1_555 1_555
H8_15 C23_15 1_555 1_555
H9_15 C26_15 1_555 1_555
H10_15 C25_15 1_555 1_555
C27_15 C23_15 1_555 1_555
C28_15 C25_15 1_555 1_555
C29_15 C27_15 1_555 1_555
C30_15 C28_15 1_555 1_555
C31_15 C29_15 1_555 1_555
C32_15 C30_15 1_555 1_555
C33_15 C9_15 1_555 1_555
C34_15 C32_15 1_555 1_555
C35_15 C33_15 1_555 1_555
C36_15 C8_15 1_555 1_555
H11_15 C36_15 1_555 1_555
H12_15 C35_15 1_555 1_555
C16_15 C20_15 1_555 1_555
C16_15 C21_15 1_555 1_555
C17_15 C22_15 1_555 1_555
C24_15 C27_15 1_555 1_555
C26_15 C28_15 1_555 1_555
C31_15 C33_15 1_555 1_555
C34_15 C35_15 1_555 1_555
C34_15 C36_15 1_555 1_555
Cu5_13 O4_19 1_555 1_555
Cu2_12 O3_16 1_555 1_555
O1_16 C1_16 1_555 1_555
O2_16 C1_16 1_555 1_555
C1_16 C3_16 1_555 1_555
C2_16 H1_16 1_555 1_555
C3_16 C2_16 1_555 1_555
C4_16 C3_16 1_555 1_555
H2_16 C4_16 1_555 1_555
C5_16 C4_16 1_555 1_555
C6_16 C5_16 1_555 1_555
C7_16 C6_16 1_555 1_555
C8_16 C7_16 1_555 1_555
C9_16 C8_16 1_555 1_555
H3_16 C9_16 1_555 1_555
Cu6_13 O5_16 1_555 1_555
Cu4_12 O6_12 1_555 1_555
Cu6_4 O1_16 1_555 1_555
Cu7_12 O9_16 1_555 1_555
Cu12_13 O16_16 1_555 1_555
Cu9_12 O17_12 1_555 1_555
Cu10_4 O18_16 1_555 1_555
Cu10_13 O19_16 1_555 1_555
Cu12_4 O2_16 1_555 1_555
O5_16 C10_16 1_555 1_555
O6_12 C11_16 1_555 1_555
O12_3 C12_16 1_555 1_555
O8_10 Cu5_13 1_555 1_555
O9_16 C14_16 1_555 1_555
O13_16 Cu7_12 1_555 1_555
O14_12 Cu7_12 1_555 1_555
O15_16 Cu7_12 1_555 1_555
O16_16 C10_16 1_555 1_555
O17_12 C11_16 1_555 1_555
O18_16 C12_16 1_555 1_555
O19_16 C13_16 1_555 1_555
O20_16 Cu2_12 1_555 1_555
O21_16 Cu2_12 1_555 1_555
O22_12 Cu2_12 1_555 1_555
O23_16 Cu2_12 1_555 1_555
O24_16 Cu7_12 1_555 1_555
C10_16 C17_16 1_555 1_555
C11_16 C18_16 1_555 1_555
C12_16 C19_16 1_555 1_555
C13_16 O8_10 1_555 1_555
C14_16 O20_16 1_555 1_555
C15_16 H4_16 1_555 1_555
C16_16 H5_16 1_555 1_555
C17_16 C2_16 1_555 1_555
C18_16 C15_16 1_555 1_555
C19_16 C15_16 1_555 1_555
C20_16 C13_16 1_555 1_555
C21_16 C14_16 1_555 1_555
C22_16 C5_16 1_555 1_555
C23_16 C18_16 1_555 1_555
C24_16 C19_16 1_555 1_555
C25_16 C20_16 1_555 1_555
C26_16 C21_16 1_555 1_555
H6_16 C22_16 1_555 1_555
H7_16 C24_16 1_555 1_555
H8_16 C23_16 1_555 1_555
H9_16 C26_16 1_555 1_555
H10_16 C25_16 1_555 1_555
C27_16 C23_16 1_555 1_555
C28_16 C25_16 1_555 1_555
C29_16 C27_16 1_555 1_555
C30_16 C28_16 1_555 1_555
C31_16 C29_16 1_555 1_555
C32_16 C30_16 1_555 1_555
C33_16 C9_16 1_555 1_555
C34_16 C32_16 1_555 1_555
C35_16 C33_16 1_555 1_555
C36_16 C8_16 1_555 1_555
H11_16 C36_16 1_555 1_555
H12_16 C35_16 1_555 1_555
C16_16 C20_16 1_555 1_555
C16_16 C21_16 1_555 1_555
C17_16 C22_16 1_555 1_555
C24_16 C27_16 1_555 1_555
C26_16 C28_16 1_555 1_555
C31_16 C33_16 1_555 1_555
C34_16 C35_16 1_555 1_555
C34_16 C36_16 1_555 1_555
Cu5_14 O4_20 1_555 1_555
O10_10 Cu5_14 1_555 1_555
O11_6 Cu5_14 1_555 1_555
Cu5_11 O4_21 1_555 1_555
O10_11 Cu5_11 1_555 1_555
Cu5_12 O4_22 1_555 1_555
Cu9_7 O3_17 1_555 1_555
O1_17 C1_17 1_555 1_555
O2_17 C1_17 1_555 1_555
C1_17 C3_17 1_555 1_555
C2_17 H1_17 1_555 1_555
C3_17 C2_17 1_555 1_555
C4_17 C3_17 1_555 1_555
H2_17 C4_17 1_555 1_555
C5_17 C4_17 1_555 1_555
C6_17 C5_17 1_555 1_555
C7_17 C6_17 1_555 1_555
C8_17 C7_17 1_555 1_555
C9_17 C8_17 1_555 1_555
H3_17 C9_17 1_555 1_555
Cu6_12 O5_17 1_555 1_555
Cu3_9 O1_17 1_555 1_555
Cu4_7 O9_17 1_555 1_555
Cu12_12 O16_17 1_555 1_555
Cu11_9 O18_17 1_555 1_555
Cu10_12 O19_17 1_555 1_555
Cu8_9 O2_17 1_555 1_555
O5_17 C10_17 1_555 1_555
O14_7 C11_17 1_555 1_555
O12_8 C12_17 1_555 1_555
O8_11 Cu5_12 1_555 1_555
O9_17 C14_17 1_555 1_555
O13_17 Cu4_7 1_555 1_555
O15_17 Cu4_7 1_555 1_555
O16_17 C10_17 1_555 1_555
O22_7 C11_17 1_555 1_555
O18_17 C12_17 1_555 1_555
O19_17 C13_17 1_555 1_555
O20_17 Cu9_7 1_555 1_555
O21_17 Cu9_7 1_555 1_555
O23_17 Cu9_7 1_555 1_555
O24_17 Cu4_7 1_555 1_555
C10_17 C17_17 1_555 1_555
C11_17 C18_17 1_555 1_555
C12_17 C19_17 1_555 1_555
C13_17 O8_11 1_555 1_555
C14_17 O20_17 1_555 1_555
C15_17 H4_17 1_555 1_555
C16_17 H5_17 1_555 1_555
C17_17 C2_17 1_555 1_555
C18_17 C15_17 1_555 1_555
C19_17 C15_17 1_555 1_555
C20_17 C13_17 1_555 1_555
C21_17 C14_17 1_555 1_555
C22_17 C5_17 1_555 1_555
C23_17 C18_17 1_555 1_555
C24_17 C19_17 1_555 1_555
C25_17 C20_17 1_555 1_555
C26_17 C21_17 1_555 1_555
H6_17 C22_17 1_555 1_555
H7_17 C24_17 1_555 1_555
H8_17 C23_17 1_555 1_555
H9_17 C26_17 1_555 1_555
H10_17 C25_17 1_555 1_555
C27_17 C23_17 1_555 1_555
C28_17 C25_17 1_555 1_555
C29_17 C27_17 1_555 1_555
C30_17 C28_17 1_555 1_555
C31_17 C29_17 1_555 1_555
C32_17 C30_17 1_555 1_555
C33_17 C9_17 1_555 1_555
C34_17 C32_17 1_555 1_555
C35_17 C33_17 1_555 1_555
C36_17 C8_17 1_555 1_555
H11_17 C36_17 1_555 1_555
H12_17 C35_17 1_555 1_555
C16_17 C20_17 1_555 1_555
C16_17 C21_17 1_555 1_555
C17_17 C22_17 1_555 1_555
C24_17 C27_17 1_555 1_555
C26_17 C28_17 1_555 1_555
C31_17 C33_17 1_555 1_555
C34_17 C35_17 1_555 1_555
C34_17 C36_17 1_555 1_555
Cu5_7 O4_23 1_555 1_555
Cu9_6 O3_18 1_555 1_555
O1_18 C1_18 1_555 1_555
O2_18 C1_18 1_555 1_555
C1_18 C3_18 1_555 1_555
C2_18 H1_18 1_555 1_555
C3_18 C2_18 1_555 1_555
C4_18 C3_18 1_555 1_555
H2_18 C4_18 1_555 1_555
C5_18 C4_18 1_555 1_555
C6_18 C5_18 1_555 1_555
C7_18 C6_18 1_555 1_555
C8_18 C7_18 1_555 1_555
C9_18 C8_18 1_555 1_555
H3_18 C9_18 1_555 1_555
Cu6_7 O5_18 1_555 1_555
Cu3_4 O1_18 1_555 1_555
Cu4_6 O9_18 1_555 1_555
Cu12_7 O16_18 1_555 1_555
Cu11_4 O18_18 1_555 1_555
Cu10_7 O19_18 1_555 1_555
Cu8_4 O2_18 1_555 1_555
O5_18 C10_18 1_555 1_555
O14_6 C11_18 1_555 1_555
O11_2 C12_18 1_555 1_555
O8_12 Cu5_7 1_555 1_555
O9_18 C14_18 1_555 1_555
O13_18 Cu4_6 1_555 1_555
O15_18 Cu4_6 1_555 1_555
O16_18 C10_18 1_555 1_555
O22_6 C11_18 1_555 1_555
O18_18 C12_18 1_555 1_555
O19_18 C13_18 1_555 1_555
O20_18 Cu9_6 1_555 1_555
O21_18 Cu9_6 1_555 1_555
O23_18 Cu9_6 1_555 1_555
O24_18 Cu4_6 1_555 1_555
C10_18 C17_18 1_555 1_555
C11_18 C18_18 1_555 1_555
C12_18 C19_18 1_555 1_555
C13_18 O8_12 1_555 1_555
C14_18 O20_18 1_555 1_555
C15_18 H4_18 1_555 1_555
C16_18 H5_18 1_555 1_555
C17_18 C2_18 1_555 1_555
C18_18 C15_18 1_555 1_555
C19_18 C15_18 1_555 1_555
C20_18 C13_18 1_555 1_555
C21_18 C14_18 1_555 1_555
C22_18 C5_18 1_555 1_555
C23_18 C18_18 1_555 1_555
C24_18 C19_18 1_555 1_555
C25_18 C20_18 1_555 1_555
C26_18 C21_18 1_555 1_555
H6_18 C22_18 1_555 1_555
H7_18 C24_18 1_555 1_555
H8_18 C23_18 1_555 1_555
H9_18 C26_18 1_555 1_555
H10_18 C25_18 1_555 1_555
C27_18 C23_18 1_555 1_555
C28_18 C25_18 1_555 1_555
C29_18 C27_18 1_555 1_555
C30_18 C28_18 1_555 1_555
C31_18 C29_18 1_555 1_555
C32_18 C30_18 1_555 1_555
C33_18 C9_18 1_555 1_555
C34_18 C32_18 1_555 1_555
C35_18 C33_18 1_555 1_555
C36_18 C8_18 1_555 1_555
H11_18 C36_18 1_555 1_555
H12_18 C35_18 1_555 1_555
C16_18 C20_18 1_555 1_555
C16_18 C21_18 1_555 1_555
C17_18 C22_18 1_555 1_555
C24_18 C27_18 1_555 1_555
C26_18 C28_18 1_555 1_555
C31_18 C33_18 1_555 1_555
C34_18 C35_18 1_555 1_555
C34_18 C36_18 1_555 1_555
Cu5_8 O4_24 1_555 1_555
O10_12 Cu5_8 1_555 1_555
O11_7 Cu5_8 1_555 1_555
Cu9 O3_19 1_555 1_555
O1_19 C1_19 1_555 1_555
O2_19 C1_19 1_555 1_555
C1_19 C3_19 1_555 1_555
C2_19 H1_19 1_555 1_555
C3_19 C2_19 1_555 1_555
C4_19 C3_19 1_555 1_555
H2_19 C4_19 1_555 1_555
C5_19 C4_19 1_555 1_555
C6_19 C5_19 1_555 1_555
C7_19 C6_19 1_555 1_555
C8_19 C7_19 1_555 1_555
C9_19 C8_19 1_555 1_555
H3_19 C9_19 1_555 1_555
Cu6_9 O5_19 1_555 1_555
Cu3_5 O1_19 1_555 1_555
Cu4 O9_19 1_555 1_555
Cu12_9 O16_19 1_555 1_555
Cu11_5 O18_19 1_555 1_555
Cu10_9 O19_19 1_555 1_555
Cu8_5 O2_19 1_555 1_555
O5_19 C10_19 1_555 1_555
O14 C11_19 1_555 1_555
O11_3 C12_19 1_555 1_555
O9_19 C14_19 1_555 1_555
O13_19 Cu4 1_555 1_555
O15_19 Cu4 1_555 1_555
O16_19 C10_19 1_555 1_555
O22 C11_19 1_555 1_555
O18_19 C12_19 1_555 1_555
O19_19 C13_19 1_555 1_555
O20_19 Cu9 1_555 1_555
O21_19 Cu9 1_555 1_555
O23_19 Cu9 1_555 1_555
O24_19 Cu4 1_555 1_555
C10_19 C17_19 1_555 1_555
C11_19 C18_19 1_555 1_555
C12_19 C19_19 1_555 1_555
C13_19 O10_9 1_555 1_555
C14_19 O20_19 1_555 1_555
C15_19 H4_19 1_555 1_555
C16_19 H5_19 1_555 1_555
C17_19 C2_19 1_555 1_555
C18_19 C15_19 1_555 1_555
C19_19 C15_19 1_555 1_555
C20_19 C13_19 1_555 1_555
C21_19 C14_19 1_555 1_555
C22_19 C5_19 1_555 1_555
C23_19 C18_19 1_555 1_555
C24_19 C19_19 1_555 1_555
C25_19 C20_19 1_555 1_555
C26_19 C21_19 1_555 1_555
H6_19 C22_19 1_555 1_555
H7_19 C24_19 1_555 1_555
H8_19 C23_19 1_555 1_555
H9_19 C26_19 1_555 1_555
H10_19 C25_19 1_555 1_555
C27_19 C23_19 1_555 1_555
C28_19 C25_19 1_555 1_555
C29_19 C27_19 1_555 1_555
C30_19 C28_19 1_555 1_555
C31_19 C29_19 1_555 1_555
C32_19 C30_19 1_555 1_555
C33_19 C9_19 1_555 1_555
C34_19 C32_19 1_555 1_555
C35_19 C33_19 1_555 1_555
C36_19 C8_19 1_555 1_555
H11_19 C36_19 1_555 1_555
H12_19 C35_19 1_555 1_555
C16_19 C20_19 1_555 1_555
C16_19 C21_19 1_555 1_555
C17_19 C22_19 1_555 1_555
C24_19 C27_19 1_555 1_555
C26_19 C28_19 1_555 1_555
C31_19 C33_19 1_555 1_555
C34_19 C35_19 1_555 1_555
C34_19 C36_19 1_555 1_555
Cu9_3 O3_20 1_555 1_555
O1_20 C1_20 1_555 1_555
O2_20 C1_20 1_555 1_555
C1_20 C3_20 1_555 1_555
C2_20 H1_20 1_555 1_555
C3_20 C2_20 1_555 1_555
C4_20 C3_20 1_555 1_555
H2_20 C4_20 1_555 1_555
C5_20 C4_20 1_555 1_555
C6_20 C5_20 1_555 1_555
C7_20 C6_20 1_555 1_555
C8_20 C7_20 1_555 1_555
C9_20 C8_20 1_555 1_555
H3_20 C9_20 1_555 1_555
Cu6_8 O5_20 1_555 1_555
Cu3_10 O1_20 1_555 1_555
Cu4_3 O9_20 1_555 1_555
Cu12_8 O16_20 1_555 1_555
Cu11_10 O18_20 1_555 1_555
Cu10_8 O19_20 1_555 1_555
Cu8_10 O2_20 1_555 1_555
O5_20 C10_20 1_555 1_555
O14_3 C11_20 1_555 1_555
O11_5 C12_20 1_555 1_555
O9_20 C14_20 1_555 1_555
O13_20 Cu4_3 1_555 1_555
O15_20 Cu4_3 1_555 1_555
O16_20 C10_20 1_555 1_555
O22_3 C11_20 1_555 1_555
O18_20 C12_20 1_555 1_555
O19_20 C13_20 1_555 1_555
O20_20 Cu9_3 1_555 1_555
O21_20 Cu9_3 1_555 1_555
O23_20 Cu9_3 1_555 1_555
O24_20 Cu4_3 1_555 1_555
C10_20 C17_20 1_555 1_555
C11_20 C18_20 1_555 1_555
C12_20 C19_20 1_555 1_555
C13_20 O10_12 1_555 1_555
C14_20 O20_20 1_555 1_555
C15_20 H4_20 1_555 1_555
C16_20 H5_20 1_555 1_555
C17_20 C2_20 1_555 1_555
C18_20 C15_20 1_555 1_555
C19_20 C15_20 1_555 1_555
C20_20 C13_20 1_555 1_555
C21_20 C14_20 1_555 1_555
C22_20 C5_20 1_555 1_555
C23_20 C18_20 1_555 1_555
C24_20 C19_20 1_555 1_555
C25_20 C20_20 1_555 1_555
C26_20 C21_20 1_555 1_555
H6_20 C22_20 1_555 1_555
H7_20 C24_20 1_555 1_555
H8_20 C23_20 1_555 1_555
H9_20 C26_20 1_555 1_555
H10_20 C25_20 1_555 1_555
C27_20 C23_20 1_555 1_555
C28_20 C25_20 1_555 1_555
C29_20 C27_20 1_555 1_555
C30_20 C28_20 1_555 1_555
C31_20 C29_20 1_555 1_555
C32_20 C30_20 1_555 1_555
C33_20 C9_20 1_555 1_555
C34_20 C32_20 1_555 1_555
C35_20 C33_20 1_555 1_555
C36_20 C8_20 1_555 1_555
H11_20 C36_20 1_555 1_555
H12_20 C35_20 1_555 1_555
C16_20 C20_20 1_555 1_555
C16_20 C21_20 1_555 1_555
C17_20 C22_20 1_555 1_555
C24_20 C27_20 1_555 1_555
C26_20 C28_20 1_555 1_555
C31_20 C33_20 1_555 1_555
C34_20 C35_20 1_555 1_555
C34_20 C36_20 1_555 1_555
Cu9_9 O3_21 1_555 1_555
O1_21 C1_21 1_555 1_555
O2_21 C1_21 1_555 1_555
C1_21 C3_21 1_555 1_555
C2_21 H1_21 1_555 1_555
C3_21 C2_21 1_555 1_555
C4_21 C3_21 1_555 1_555
H2_21 C4_21 1_555 1_555
C5_21 C4_21 1_555 1_555
C6_21 C5_21 1_555 1_555
C7_21 C6_21 1_555 1_555
C8_21 C7_21 1_555 1_555
C9_21 C8_21 1_555 1_555
H3_21 C9_21 1_555 1_555
Cu6_11 O5_21 1_555 1_555
Cu6_2 O1_21 1_555 1_555
Cu4_9 O9_21 1_555 1_555
Cu12_11 O16_21 1_555 1_555
Cu10_2 O18_21 1_555 1_555
Cu10_11 O19_21 1_555 1_555
Cu12_2 O2_21 1_555 1_555
O5_21 C10_21 1_555 1_555
O14_9 C11_21 1_555 1_555
O12_2 C12_21 1_555 1_555
O9_21 C14_21 1_555 1_555
O13_21 Cu4_9 1_555 1_555
O15_21 Cu4_9 1_555 1_555
O16_21 C10_21 1_555 1_555
O22_9 C11_21 1_555 1_555
O18_21 C12_21 1_555 1_555
O19_21 C13_21 1_555 1_555
O20_21 Cu9_9 1_555 1_555
O21_21 Cu9_9 1_555 1_555
O23_21 Cu9_9 1_555 1_555
O24_21 Cu4_9 1_555 1_555
C10_21 C17_21 1_555 1_555
C11_21 C18_21 1_555 1_555
C12_21 C19_21 1_555 1_555
C13_21 O10_11 1_555 1_555
C14_21 O20_21 1_555 1_555
C15_21 H4_21 1_555 1_555
C16_21 H5_21 1_555 1_555
C17_21 C2_21 1_555 1_555
C18_21 C15_21 1_555 1_555
C19_21 C15_21 1_555 1_555
C20_21 C13_21 1_555 1_555
C21_21 C14_21 1_555 1_555
C22_21 C5_21 1_555 1_555
C23_21 C18_21 1_555 1_555
C24_21 C19_21 1_555 1_555
C25_21 C20_21 1_555 1_555
C26_21 C21_21 1_555 1_555
H6_21 C22_21 1_555 1_555
H7_21 C24_21 1_555 1_555
H8_21 C23_21 1_555 1_555
H9_21 C26_21 1_555 1_555
H10_21 C25_21 1_555 1_555
C27_21 C23_21 1_555 1_555
C28_21 C25_21 1_555 1_555
C29_21 C27_21 1_555 1_555
C30_21 C28_21 1_555 1_555
C31_21 C29_21 1_555 1_555
C32_21 C30_21 1_555 1_555
C33_21 C9_21 1_555 1_555
C34_21 C32_21 1_555 1_555
C35_21 C33_21 1_555 1_555
C36_21 C8_21 1_555 1_555
H11_21 C36_21 1_555 1_555
H12_21 C35_21 1_555 1_555
C16_21 C20_21 1_555 1_555
C16_21 C21_21 1_555 1_555
C17_21 C22_21 1_555 1_555
C24_21 C27_21 1_555 1_555
C26_21 C28_21 1_555 1_555
C31_21 C33_21 1_555 1_555
C34_21 C35_21 1_555 1_555
C34_21 C36_21 1_555 1_555
Cu9_11 O3_22 1_555 1_555
O1_22 C1_22 1_555 1_555
O2_22 C1_22 1_555 1_555
C1_22 C3_22 1_555 1_555
C2_22 H1_22 1_555 1_555
C3_22 C2_22 1_555 1_555
C4_22 C3_22 1_555 1_555
H2_22 C4_22 1_555 1_555
C5_22 C4_22 1_555 1_555
C6_22 C5_22 1_555 1_555
C7_22 C6_22 1_555 1_555
C8_22 C7_22 1_555 1_555
C9_22 C8_22 1_555 1_555
H3_22 C9_22 1_555 1_555
Cu6_14 O5_22 1_555 1_555
Cu6_8 O1_22 1_555 1_555
Cu4_11 O9_22 1_555 1_555
Cu12_14 O16_22 1_555 1_555
Cu10_8 O18_22 1_555 1_555
Cu10_14 O19_22 1_555 1_555
Cu12_8 O2_22 1_555 1_555
O5_22 C10_22 1_555 1_555
O14_11 C11_22 1_555 1_555
O11_7 C12_22 1_555 1_555
O9_22 C14_22 1_555 1_555
O13_22 Cu4_11 1_555 1_555
O15_22 Cu4_11 1_555 1_555
O16_22 C10_22 1_555 1_555
O22_11 C11_22 1_555 1_555
O18_22 C12_22 1_555 1_555
O19_22 C13_22 1_555 1_555
O20_22 Cu9_11 1_555 1_555
O21_22 Cu9_11 1_555 1_555
O23_22 Cu9_11 1_555 1_555
O24_22 Cu4_11 1_555 1_555
C10_22 C17_22 1_555 1_555
C11_22 C18_22 1_555 1_555
C12_22 C19_22 1_555 1_555
C13_22 O10_10 1_555 1_555
C14_22 O20_22 1_555 1_555
C15_22 H4_22 1_555 1_555
C16_22 H5_22 1_555 1_555
C17_22 C2_22 1_555 1_555
C18_22 C15_22 1_555 1_555
C19_22 C15_22 1_555 1_555
C20_22 C13_22 1_555 1_555
C21_22 C14_22 1_555 1_555
C22_22 C5_22 1_555 1_555
C23_22 C18_22 1_555 1_555
C24_22 C19_22 1_555 1_555
C25_22 C20_22 1_555 1_555
C26_22 C21_22 1_555 1_555
H6_22 C22_22 1_555 1_555
H7_22 C24_22 1_555 1_555
H8_22 C23_22 1_555 1_555
H9_22 C26_22 1_555 1_555
H10_22 C25_22 1_555 1_555
C27_22 C23_22 1_555 1_555
C28_22 C25_22 1_555 1_555
C29_22 C27_22 1_555 1_555
C30_22 C28_22 1_555 1_555
C31_22 C29_22 1_555 1_555
C32_22 C30_22 1_555 1_555
C33_22 C9_22 1_555 1_555
C34_22 C32_22 1_555 1_555
C35_22 C33_22 1_555 1_555
C36_22 C8_22 1_555 1_555
H11_22 C36_22 1_555 1_555
H12_22 C35_22 1_555 1_555
C16_22 C20_22 1_555 1_555
C16_22 C21_22 1_555 1_555
C17_22 C22_22 1_555 1_555
C24_22 C27_22 1_555 1_555
C26_22 C28_22 1_555 1_555
C31_22 C33_22 1_555 1_555
C34_22 C35_22 1_555 1_555
C34_22 C36_22 1_555 1_555
Cu9_12 O3_23 1_555 1_555
O1_23 C1_23 1_555 1_555
O2_23 C1_23 1_555 1_555
C1_23 C3_23 1_555 1_555
C2_23 H1_23 1_555 1_555
C3_23 C2_23 1_555 1_555
C4_23 C3_23 1_555 1_555
H2_23 C4_23 1_555 1_555
C5_23 C4_23 1_555 1_555
C6_23 C5_23 1_555 1_555
C7_23 C6_23 1_555 1_555
C8_23 C7_23 1_555 1_555
C9_23 C8_23 1_555 1_555
H3_23 C9_23 1_555 1_555
Cu3_2 O5_23 1_555 1_555
Cu3_3 O1_23 1_555 1_555
Cu4_12 O9_23 1_555 1_555
Cu8_2 O16_23 1_555 1_555
Cu11_3 O18_23 1_555 1_555
Cu11_2 O19_23 1_555 1_555
Cu8_3 O2_23 1_555 1_555
O5_23 C10_23 1_555 1_555
O14_12 C11_23 1_555 1_555
O12_5 C12_23 1_555 1_555
O9_23 C14_23 1_555 1_555
O13_23 Cu4_12 1_555 1_555
O15_23 Cu4_12 1_555 1_555
O16_23 C10_23 1_555 1_555
O22_12 C11_23 1_555 1_555
O18_23 C12_23 1_555 1_555
O19_23 C13_23 1_555 1_555
O20_23 Cu9_12 1_555 1_555
O21_23 Cu9_12 1_555 1_555
O23_23 Cu9_12 1_555 1_555
O24_23 Cu4_12 1_555 1_555
C10_23 C17_23 1_555 1_555
C11_23 C18_23 1_555 1_555
C12_23 C19_23 1_555 1_555
C13_23 O10 1_555 1_555
C14_23 O20_23 1_555 1_555
C15_23 H4_23 1_555 1_555
C16_23 H5_23 1_555 1_555
C17_23 C2_23 1_555 1_555
C18_23 C15_23 1_555 1_555
C19_23 C15_23 1_555 1_555
C20_23 C13_23 1_555 1_555
C21_23 C14_23 1_555 1_555
C22_23 C5_23 1_555 1_555
C23_23 C18_23 1_555 1_555
C24_23 C19_23 1_555 1_555
C25_23 C20_23 1_555 1_555
C26_23 C21_23 1_555 1_555
H6_23 C22_23 1_555 1_555
H7_23 C24_23 1_555 1_555
H8_23 C23_23 1_555 1_555
H9_23 C26_23 1_555 1_555
H10_23 C25_23 1_555 1_555
C27_23 C23_23 1_555 1_555
C28_23 C25_23 1_555 1_555
C29_23 C27_23 1_555 1_555
C30_23 C28_23 1_555 1_555
C31_23 C29_23 1_555 1_555
C32_23 C30_23 1_555 1_555
C33_23 C9_23 1_555 1_555
C34_23 C32_23 1_555 1_555
C35_23 C33_23 1_555 1_555
C36_23 C8_23 1_555 1_555
H11_23 C36_23 1_555 1_555
H12_23 C35_23 1_555 1_555
C16_23 C20_23 1_555 1_555
C16_23 C21_23 1_555 1_555
C17_23 C22_23 1_555 1_555
C24_23 C27_23 1_555 1_555
C26_23 C28_23 1_555 1_555
C31_23 C33_23 1_555 1_555
C34_23 C35_23 1_555 1_555
C34_23 C36_23 1_555 1_555
Cu9_10 O3_24 1_555 1_555
O1_24 C1_24 1_555 1_555
O2_24 C1_24 1_555 1_555
C1_24 C3_24 1_555 1_555
C2_24 H1_24 1_555 1_555
C3_24 C2_24 1_555 1_555
C4_24 C3_24 1_555 1_555
H2_24 C4_24 1_555 1_555
C5_24 C4_24 1_555 1_555
C6_24 C5_24 1_555 1_555
C7_24 C6_24 1_555 1_555
C8_24 C7_24 1_555 1_555
C9_24 C8_24 1_555 1_555
H3_24 C9_24 1_555 1_555
Cu3_10 O5_24 1_555 1_555
Cu6_14 O1_24 1_555 1_555
Cu4_10 O9_24 1_555 1_555
Cu8_10 O16_24 1_555 1_555
Cu10_14 O18_24 1_555 1_555
Cu11_10 O19_24 1_555 1_555
Cu12_14 O2_24 1_555 1_555
O5_24 C10_24 1_555 1_555
O14_10 C11_24 1_555 1_555
O11_6 C12_24 1_555 1_555
O9_24 C14_24 1_555 1_555
O13_24 Cu4_10 1_555 1_555
O15_24 Cu4_10 1_555 1_555
O16_24 C10_24 1_555 1_555
O22_10 C11_24 1_555 1_555
O18_24 C12_24 1_555 1_555
O19_24 C13_24 1_555 1_555
O20_24 Cu9_10 1_555 1_555
O21_24 Cu9_10 1_555 1_555
O23_24 Cu9_10 1_555 1_555
O24_24 Cu4_10 1_555 1_555
C10_24 C17_24 1_555 1_555
C11_24 C18_24 1_555 1_555
C12_24 C19_24 1_555 1_555
C13_24 O10_8 1_555 1_555
C14_24 O20_24 1_555 1_555
C15_24 H4_24 1_555 1_555
C16_24 H5_24 1_555 1_555
C17_24 C2_24 1_555 1_555
C18_24 C15_24 1_555 1_555
C19_24 C15_24 1_555 1_555
C20_24 C13_24 1_555 1_555
C21_24 C14_24 1_555 1_555
C22_24 C5_24 1_555 1_555
C23_24 C18_24 1_555 1_555
C24_24 C19_24 1_555 1_555
C25_24 C20_24 1_555 1_555
C26_24 C21_24 1_555 1_555
H6_24 C22_24 1_555 1_555
H7_24 C24_24 1_555 1_555
H8_24 C23_24 1_555 1_555
H9_24 C26_24 1_555 1_555
H10_24 C25_24 1_555 1_555
C27_24 C23_24 1_555 1_555
C28_24 C25_24 1_555 1_555
C29_24 C27_24 1_555 1_555
C30_24 C28_24 1_555 1_555
C31_24 C29_24 1_555 1_555
C32_24 C30_24 1_555 1_555
C33_24 C9_24 1_555 1_555
C34_24 C32_24 1_555 1_555
C35_24 C33_24 1_555 1_555
C36_24 C8_24 1_555 1_555
H11_24 C36_24 1_555 1_555
H12_24 C35_24 1_555 1_555
C16_24 C20_24 1_555 1_555
C16_24 C21_24 1_555 1_555
C17_24 C22_24 1_555 1_555
C24_24 C27_24 1_555 1_555
C26_24 C28_24 1_555 1_555
C31_24 C33_24 1_555 1_555
C34_24 C35_24 1_555 1_555
C34_24 C36_24 1_555 1_555
Cu11_3 O3_25 1_555 1_555
Cu11_4 O3_26 1_555 1_555
Cu6_7 O4_25 1_555 1_555
Cu12_13 O3_27 1_555 1_555
O24_25 Cu6_13 1_555 1_555
Cu6_8 O4_26 1_555 1_555
Cu12_14 O3_28 1_555 1_555
O24_26 Cu6_14 1_555 1_555
Cu10_11 O3_29 1_555 1_555
Cu10_12 O3_30 1_555 1_555
Cu8_7 O3_31 1_555 1_555
O24_27 Cu3_7 1_555 1_555
Cu6_9 O4_27 1_555 1_555
Cu8_8 O3_32 1_555 1_555
O24_28 Cu3_8 1_555 1_555
Cu6_10 O4_28 1_555 1_555
Cu11_5 O3_33 1_555 1_555
Cu11_6 O3_34 1_555 1_555
Cu11_7 O3_35 1_555 1_555
Cu11_8 O3_36 1_555 1_555
Cu11 O3_37 1_555 1_555
Cu11_2 O3_38 1_555 1_555
O15_4 C1_25 1_555 1_555
O23_4 C1_25 1_555 1_555
C1_25 C3_25 1_555 1_555
C2_25 H1_25 1_555 1_555
C3_25 C2_25 1_555 1_555
C4_25 C3_25 1_555 1_555
H2_25 C4_25 1_555 1_555
C5_25 C4_25 1_555 1_555
C6_25 C5_25 1_555 1_555
C7_25 C6_25 1_555 1_555
C8_25 C7_25 1_555 1_555
C9_25 C8_25 1_555 1_555
H3_25 C9_25 1_555 1_555
O13_12 C10_25 1_555 1_555
O15_23 C11_25 1_555 1_555
O13_6 C12_25 1_555 1_555
O13_16 C14_25 1_555 1_555
O21_12 C10_25 1_555 1_555
O23_23 C11_25 1_555 1_555
O21_6 C12_25 1_555 1_555
O23_5 C13_25 1_555 1_555
C10_25 C17_25 1_555 1_555
C11_25 C18_25 1_555 1_555
C12_25 C19_25 1_555 1_555
C13_25 O15_5 1_555 1_555
C14_25 O21_16 1_555 1_555
C15_25 H4_25 1_555 1_555
C16_25 H5_25 1_555 1_555
C17_25 C2_25 1_555 1_555
C18_25 C15_25 1_555 1_555
C19_25 C15_25 1_555 1_555
C20_25 C13_25 1_555 1_555
C21_25 C14_25 1_555 1_555
C22_25 C5_25 1_555 1_555
C23_25 C18_25 1_555 1_555
C24_25 C19_25 1_555 1_555
C25_25 C20_25 1_555 1_555
C26_25 C21_25 1_555 1_555
H6_25 C22_25 1_555 1_555
H7_25 C24_25 1_555 1_555
H8_25 C23_25 1_555 1_555
H9_25 C26_25 1_555 1_555
H10_25 C25_25 1_555 1_555
C27_25 C23_25 1_555 1_555
C28_25 C25_25 1_555 1_555
C29_25 C27_25 1_555 1_555
C30_25 C28_25 1_555 1_555
C31_25 C29_25 1_555 1_555
C32_25 C30_25 1_555 1_555
C33_25 C9_25 1_555 1_555
C34_25 C32_25 1_555 1_555
C35_25 C33_25 1_555 1_555
C36_25 C8_25 1_555 1_555
H11_25 C36_25 1_555 1_555
H12_25 C35_25 1_555 1_555
C16_25 C20_25 1_555 1_555
C16_25 C21_25 1_555 1_555
C17_25 C22_25 1_555 1_555
C24_25 C27_25 1_555 1_555
C26_25 C28_25 1_555 1_555
C31_25 C33_25 1_555 1_555
C34_25 C35_25 1_555 1_555
C34_25 C36_25 1_555 1_555
Cu10_13 O3_39 1_555 1_555
Cu10_14 O3_40 1_555 1_555
O15_20 C1_26 1_555 1_555
O23_20 C1_26 1_555 1_555
C1_26 C3_26 1_555 1_555
C2_26 H1_26 1_555 1_555
C3_26 C2_26 1_555 1_555
C4_26 C3_26 1_555 1_555
H2_26 C4_26 1_555 1_555
C5_26 C4_26 1_555 1_555
C6_26 C5_26 1_555 1_555
C7_26 C6_26 1_555 1_555
C8_26 C7_26 1_555 1_555
C9_26 C8_26 1_555 1_555
H3_26 C9_26 1_555 1_555
O13_15 C10_26 1_555 1_555
O15_24 C11_26 1_555 1_555
O13_3 C12_26 1_555 1_555
O13_14 C14_26 1_555 1_555
O21_15 C10_26 1_555 1_555
O23_24 C11_26 1_555 1_555
O21_3 C12_26 1_555 1_555
O23_22 C13_26 1_555 1_555
C10_26 C17_26 1_555 1_555
C11_26 C18_26 1_555 1_555
C12_26 C19_26 1_555 1_555
C13_26 O15_22 1_555 1_555
C14_26 O21_14 1_555 1_555
C15_26 H4_26 1_555 1_555
C16_26 H5_26 1_555 1_555
C17_26 C2_26 1_555 1_555
C18_26 C15_26 1_555 1_555
C19_26 C15_26 1_555 1_555
C20_26 C13_26 1_555 1_555
C21_26 C14_26 1_555 1_555
C22_26 C5_26 1_555 1_555
C23_26 C18_26 1_555 1_555
C24_26 C19_26 1_555 1_555
C25_26 C20_26 1_555 1_555
C26_26 C21_26 1_555 1_555
H6_26 C22_26 1_555 1_555
H7_26 C24_26 1_555 1_555
H8_26 C23_26 1_555 1_555
H9_26 C26_26 1_555 1_555
H10_26 C25_26 1_555 1_555
C27_26 C23_26 1_555 1_555
C28_26 C25_26 1_555 1_555
C29_26 C27_26 1_555 1_555
C30_26 C28_26 1_555 1_555
C31_26 C29_26 1_555 1_555
C32_26 C30_26 1_555 1_555
C33_26 C9_26 1_555 1_555
C34_26 C32_26 1_555 1_555
C35_26 C33_26 1_555 1_555
C36_26 C8_26 1_555 1_555
H11_26 C36_26 1_555 1_555
H12_26 C35_26 1_555 1_555
C16_26 C20_26 1_555 1_555
C16_26 C21_26 1_555 1_555
C17_26 C22_26 1_555 1_555
C24_26 C27_26 1_555 1_555
C26_26 C28_26 1_555 1_555
C31_26 C33_26 1_555 1_555
C34_26 C35_26 1_555 1_555
C34_26 C36_26 1_555 1_555
O15_18 C1_27 1_555 1_555
O23_18 C1_27 1_555 1_555
C1_27 C3_27 1_555 1_555
C2_27 H1_27 1_555 1_555
C3_27 C2_27 1_555 1_555
C4_27 C3_27 1_555 1_555
H2_27 C4_27 1_555 1_555
C5_27 C4_27 1_555 1_555
C6_27 C5_27 1_555 1_555
C7_27 C6_27 1_555 1_555
C8_27 C7_27 1_555 1_555
C9_27 C8_27 1_555 1_555
H3_27 C9_27 1_555 1_555
O13_4 C10_27 1_555 1_555
O15_14 C11_27 1_555 1_555
O13_7 C12_27 1_555 1_555
O13_24 C14_27 1_555 1_555
O21_4 C10_27 1_555 1_555
O23_14 C11_27 1_555 1_555
O21_7 C12_27 1_555 1_555
O23_6 C13_27 1_555 1_555
C10_27 C17_27 1_555 1_555
C11_27 C18_27 1_555 1_555
C12_27 C19_27 1_555 1_555
C13_27 O15_6 1_555 1_555
C14_27 O21_24 1_555 1_555
C15_27 H4_27 1_555 1_555
C16_27 H5_27 1_555 1_555
C17_27 C2_27 1_555 1_555
C18_27 C15_27 1_555 1_555
C19_27 C15_27 1_555 1_555
C20_27 C13_27 1_555 1_555
C21_27 C14_27 1_555 1_555
C22_27 C5_27 1_555 1_555
C23_27 C18_27 1_555 1_555
C24_27 C19_27 1_555 1_555
C25_27 C20_27 1_555 1_555
C26_27 C21_27 1_555 1_555
H6_27 C22_27 1_555 1_555
H7_27 C24_27 1_555 1_555
H8_27 C23_27 1_555 1_555
H9_27 C26_27 1_555 1_555
H10_27 C25_27 1_555 1_555
C27_27 C23_27 1_555 1_555
C28_27 C25_27 1_555 1_555
C29_27 C27_27 1_555 1_555
C30_27 C28_27 1_555 1_555
C31_27 C29_27 1_555 1_555
C32_27 C30_27 1_555 1_555
C33_27 C9_27 1_555 1_555
C34_27 C32_27 1_555 1_555
C35_27 C33_27 1_555 1_555
C36_27 C8_27 1_555 1_555
H11_27 C36_27 1_555 1_555
H12_27 C35_27 1_555 1_555
C16_27 C20_27 1_555 1_555
C16_27 C21_27 1_555 1_555
C17_27 C22_27 1_555 1_555
C24_27 C27_27 1_555 1_555
C26_27 C28_27 1_555 1_555
C31_27 C33_27 1_555 1_555
C34_27 C35_27 1_555 1_555
C34_27 C36_27 1_555 1_555
Cu8_5 O3_41 1_555 1_555
O24_29 Cu3_5 1_555 1_555
Cu8_6 O3_42 1_555 1_555
O24_30 Cu3_6 1_555 1_555
Cu8_9 O3_43 1_555 1_555
O24_31 Cu3_9 1_555 1_555
Cu8_10 O3_44 1_555 1_555
O24_32 Cu3_10 1_555 1_555
O15_12 C1_28 1_555 1_555
O23_12 C1_28 1_555 1_555
C1_28 C3_28 1_555 1_555
C2_28 H1_28 1_555 1_555
C3_28 C2_28 1_555 1_555
C4_28 C3_28 1_555 1_555
H2_28 C4_28 1_555 1_555
C5_28 C4_28 1_555 1_555
C6_28 C5_28 1_555 1_555
C7_28 C6_28 1_555 1_555
C8_28 C7_28 1_555 1_555
C9_28 C8_28 1_555 1_555
H3_28 C9_28 1_555 1_555
O13_19 C10_28 1_555 1_555
O15_11 C11_28 1_555 1_555
O13_5 C12_28 1_555 1_555
O13_10 C14_28 1_555 1_555
O21_19 C10_28 1_555 1_555
O23_11 C11_28 1_555 1_555
O21_5 C12_28 1_555 1_555
O23 C13_28 1_555 1_555
C10_28 C17_28 1_555 1_555
C11_28 C18_28 1_555 1_555
C12_28 C19_28 1_555 1_555
C13_28 O15 1_555 1_555
C14_28 O21_10 1_555 1_555
C15_28 H4_28 1_555 1_555
C16_28 H5_28 1_555 1_555
C17_28 C2_28 1_555 1_555
C18_28 C15_28 1_555 1_555
C19_28 C15_28 1_555 1_555
C20_28 C13_28 1_555 1_555
C21_28 C14_28 1_555 1_555
C22_28 C5_28 1_555 1_555
C23_28 C18_28 1_555 1_555
C24_28 C19_28 1_555 1_555
C25_28 C20_28 1_555 1_555
C26_28 C21_28 1_555 1_555
H6_28 C22_28 1_555 1_555
H7_28 C24_28 1_555 1_555
H8_28 C23_28 1_555 1_555
H9_28 C26_28 1_555 1_555
H10_28 C25_28 1_555 1_555
C27_28 C23_28 1_555 1_555
C28_28 C25_28 1_555 1_555
C29_28 C27_28 1_555 1_555
C30_28 C28_28 1_555 1_555
C31_28 C29_28 1_555 1_555
C32_28 C30_28 1_555 1_555
C33_28 C9_28 1_555 1_555
C34_28 C32_28 1_555 1_555
C35_28 C33_28 1_555 1_555
C36_28 C8_28 1_555 1_555
H11_28 C36_28 1_555 1_555
H12_28 C35_28 1_555 1_555
C16_28 C20_28 1_555 1_555
C16_28 C21_28 1_555 1_555
C17_28 C22_28 1_555 1_555
C24_28 C27_28 1_555 1_555
C26_28 C28_28 1_555 1_555
C31_28 C33_28 1_555 1_555
C34_28 C35_28 1_555 1_555
C34_28 C36_28 1_555 1_555
Cu6_5 O4_29 1_555 1_555
Cu12_3 O3_45 1_555 1_555
O24_33 Cu6_3 1_555 1_555
Cu6_6 O4_30 1_555 1_555
Cu12_4 O3_46 1_555 1_555
O24_34 Cu6_4 1_555 1_555
O15_15 C1_29 1_555 1_555
O23_15 C1_29 1_555 1_555
C1_29 C3_29 1_555 1_555
C2_29 H1_29 1_555 1_555
C3_29 C2_29 1_555 1_555
C4_29 C3_29 1_555 1_555
H2_29 C4_29 1_555 1_555
C5_29 C4_29 1_555 1_555
C6_29 C5_29 1_555 1_555
C7_29 C6_29 1_555 1_555
C8_29 C7_29 1_555 1_555
C9_29 C8_29 1_555 1_555
H3_29 C9_29 1_555 1_555
O13_2 C10_29 1_555 1_555
O15_17 C11_29 1_555 1_555
O13_22 C12_29 1_555 1_555
O13_8 C14_29 1_555 1_555
O21_2 C10_29 1_555 1_555
O23_17 C11_29 1_555 1_555
O21_22 C12_29 1_555 1_555
O23_9 C13_29 1_555 1_555
C10_29 C17_29 1_555 1_555
C11_29 C18_29 1_555 1_555
C12_29 C19_29 1_555 1_555
C13_29 O15_9 1_555 1_555
C14_29 O21_8 1_555 1_555
C15_29 H4_29 1_555 1_555
C16_29 H5_29 1_555 1_555
C17_29 C2_29 1_555 1_555
C18_29 C15_29 1_555 1_555
C19_29 C15_29 1_555 1_555
C20_29 C13_29 1_555 1_555
C21_29 C14_29 1_555 1_555
C22_29 C5_29 1_555 1_555
C23_29 C18_29 1_555 1_555
C24_29 C19_29 1_555 1_555
C25_29 C20_29 1_555 1_555
C26_29 C21_29 1_555 1_555
H6_29 C22_29 1_555 1_555
H7_29 C24_29 1_555 1_555
H8_29 C23_29 1_555 1_555
H9_29 C26_29 1_555 1_555
H10_29 C25_29 1_555 1_555
C27_29 C23_29 1_555 1_555
C28_29 C25_29 1_555 1_555
C29_29 C27_29 1_555 1_555
C30_29 C28_29 1_555 1_555
C31_29 C29_29 1_555 1_555
C32_29 C30_29 1_555 1_555
C33_29 C9_29 1_555 1_555
C34_29 C32_29 1_555 1_555
C35_29 C33_29 1_555 1_555
C36_29 C8_29 1_555 1_555
H11_29 C36_29 1_555 1_555
H12_29 C35_29 1_555 1_555
C16_29 C20_29 1_555 1_555
C16_29 C21_29 1_555 1_555
C17_29 C22_29 1_555 1_555
C24_29 C27_29 1_555 1_555
C26_29 C28_29 1_555 1_555
C31_29 C33_29 1_555 1_555
C34_29 C35_29 1_555 1_555
C34_29 C36_29 1_555 1_555
O15_13 C1_30 1_555 1_555
O23_13 C1_30 1_555 1_555
C1_30 C3_30 1_555 1_555
C2_30 H1_30 1_555 1_555
C3_30 C2_30 1_555 1_555
C4_30 C3_30 1_555 1_555
H2_30 C4_30 1_555 1_555
C5_30 C4_30 1_555 1_555
C6_30 C5_30 1_555 1_555
C7_30 C6_30 1_555 1_555
C8_30 C7_30 1_555 1_555
C9_30 C8_30 1_555 1_555
H3_30 C9_30 1_555 1_555
O13_20 C10_30 1_555 1_555
O15_16 C11_30 1_555 1_555
O13_21 C12_30 1_555 1_555
O13_23 C14_30 1_555 1_555
O21_20 C10_30 1_555 1_555
O23_16 C11_30 1_555 1_555
O21_21 C12_30 1_555 1_555
O23_3 C13_30 1_555 1_555
C10_30 C17_30 1_555 1_555
C11_30 C18_30 1_555 1_555
C12_30 C19_30 1_555 1_555
C13_30 O15_3 1_555 1_555
C14_30 O21_23 1_555 1_555
C15_30 H4_30 1_555 1_555
C16_30 H5_30 1_555 1_555
C17_30 C2_30 1_555 1_555
C18_30 C15_30 1_555 1_555
C19_30 C15_30 1_555 1_555
C20_30 C13_30 1_555 1_555
C21_30 C14_30 1_555 1_555
C22_30 C5_30 1_555 1_555
C23_30 C18_30 1_555 1_555
C24_30 C19_30 1_555 1_555
C25_30 C20_30 1_555 1_555
C26_30 C21_30 1_555 1_555
H6_30 C22_30 1_555 1_555
H7_30 C24_30 1_555 1_555
H8_30 C23_30 1_555 1_555
H9_30 C26_30 1_555 1_555
H10_30 C25_30 1_555 1_555
C27_30 C23_30 1_555 1_555
C28_30 C25_30 1_555 1_555
C29_30 C27_30 1_555 1_555
C30_30 C28_30 1_555 1_555
C31_30 C29_30 1_555 1_555
C32_30 C30_30 1_555 1_555
C33_30 C9_30 1_555 1_555
C34_30 C32_30 1_555 1_555
C35_30 C33_30 1_555 1_555
C36_30 C8_30 1_555 1_555
H11_30 C36_30 1_555 1_555
H12_30 C35_30 1_555 1_555
C16_30 C20_30 1_555 1_555
C16_30 C21_30 1_555 1_555
C17_30 C22_30 1_555 1_555
C24_30 C27_30 1_555 1_555
C26_30 C28_30 1_555 1_555
C31_30 C33_30 1_555 1_555
C34_30 C35_30 1_555 1_555
C34_30 C36_30 1_555 1_555
Cu6 O4_31 1_555 1_555
Cu8 O3_47 1_555 1_555
O24_35 Cu3 1_555 1_555
Cu8_2 O3_48 1_555 1_555
O24_36 Cu3_2 1_555 1_555
Cu6_2 O4_32 1_555 1_555
Cu8_3 O3_49 1_555 1_555
O24_37 Cu3_3 1_555 1_555
Cu8_4 O3_50 1_555 1_555
O24_38 Cu3_4 1_555 1_555
Cu12_11 O3_51 1_555 1_555
O24_39 Cu6_11 1_555 1_555
Cu12_12 O3_52 1_555 1_555
O24_40 Cu6_12 1_555 1_555
Cu11_9 O3_53 1_555 1_555
Cu11_10 O3_54 1_555 1_555
Cu10_3 O3_55 1_555 1_555
Cu10_4 O3_56 1_555 1_555
O15_19 C1_31 1_555 1_555
O23_19 C1_31 1_555 1_555
C1_31 C3_31 1_555 1_555
C2_31 H1_31 1_555 1_555
C3_31 C2_31 1_555 1_555
C4_31 C3_31 1_555 1_555
H2_31 C4_31 1_555 1_555
C5_31 C4_31 1_555 1_555
C6_31 C5_31 1_555 1_555
C7_31 C6_31 1_555 1_555
C8_31 C7_31 1_555 1_555
C9_31 C8_31 1_555 1_555
H3_31 C9_31 1_555 1_555
O13_18 C10_31 1_555 1_555
O15_8 C11_31 1_555 1_555
O13 C12_31 1_555 1_555
O13_17 C14_31 1_555 1_555
O21_18 C10_31 1_555 1_555
O23_8 C11_31 1_555 1_555
O21 C12_31 1_555 1_555
O23_7 C13_31 1_555 1_555
C10_31 C17_31 1_555 1_555
C11_31 C18_31 1_555 1_555
C12_31 C19_31 1_555 1_555
C13_31 O15_7 1_555 1_555
C14_31 O21_17 1_555 1_555
C15_31 H4_31 1_555 1_555
C16_31 H5_31 1_555 1_555
C17_31 C2_31 1_555 1_555
C18_31 C15_31 1_555 1_555
C19_31 C15_31 1_555 1_555
C20_31 C13_31 1_555 1_555
C21_31 C14_31 1_555 1_555
C22_31 C5_31 1_555 1_555
C23_31 C18_31 1_555 1_555
C24_31 C19_31 1_555 1_555
C25_31 C20_31 1_555 1_555
C26_31 C21_31 1_555 1_555
H6_31 C22_31 1_555 1_555
H7_31 C24_31 1_555 1_555
H8_31 C23_31 1_555 1_555
H9_31 C26_31 1_555 1_555
H10_31 C25_31 1_555 1_555
C27_31 C23_31 1_555 1_555
C28_31 C25_31 1_555 1_555
C29_31 C27_31 1_555 1_555
C30_31 C28_31 1_555 1_555
C31_31 C29_31 1_555 1_555
C32_31 C30_31 1_555 1_555
C33_31 C9_31 1_555 1_555
C34_31 C32_31 1_555 1_555
C35_31 C33_31 1_555 1_555
C36_31 C8_31 1_555 1_555
H11_31 C36_31 1_555 1_555
H12_31 C35_31 1_555 1_555
C16_31 C20_31 1_555 1_555
C16_31 C21_31 1_555 1_555
C17_31 C22_31 1_555 1_555
C24_31 C27_31 1_555 1_555
C26_31 C28_31 1_555 1_555
C31_31 C33_31 1_555 1_555
C34_31 C35_31 1_555 1_555
C34_31 C36_31 1_555 1_555
O15_2 C1_32 1_555 1_555
O23_2 C1_32 1_555 1_555
C1_32 C3_32 1_555 1_555
C2_32 H1_32 1_555 1_555
C3_32 C2_32 1_555 1_555
C4_32 C3_32 1_555 1_555
H2_32 C4_32 1_555 1_555
C5_32 C4_32 1_555 1_555
C6_32 C5_32 1_555 1_555
C7_32 C6_32 1_555 1_555
C8_32 C7_32 1_555 1_555
C9_32 C8_32 1_555 1_555
H3_32 C9_32 1_555 1_555
O13_13 C10_32 1_555 1_555
O15_10 C11_32 1_555 1_555
O13_9 C12_32 1_555 1_555
O13_11 C14_32 1_555 1_555
O21_13 C10_32 1_555 1_555
O23_10 C11_32 1_555 1_555
O21_9 C12_32 1_555 1_555
O23_21 C13_32 1_555 1_555
C10_32 C17_32 1_555 1_555
C11_32 C18_32 1_555 1_555
C12_32 C19_32 1_555 1_555
C13_32 O15_21 1_555 1_555
C14_32 O21_11 1_555 1_555
C15_32 H4_32 1_555 1_555
C16_32 H5_32 1_555 1_555
C17_32 C2_32 1_555 1_555
C18_32 C15_32 1_555 1_555
C19_32 C15_32 1_555 1_555
C20_32 C13_32 1_555 1_555
C21_32 C14_32 1_555 1_555
C22_32 C5_32 1_555 1_555
C23_32 C18_32 1_555 1_555
C24_32 C19_32 1_555 1_555
C25_32 C20_32 1_555 1_555
C26_32 C21_32 1_555 1_555
H6_32 C22_32 1_555 1_555
H7_32 C24_32 1_555 1_555
H8_32 C23_32 1_555 1_555
H9_32 C26_32 1_555 1_555
H10_32 C25_32 1_555 1_555
C27_32 C23_32 1_555 1_555
C28_32 C25_32 1_555 1_555
C29_32 C27_32 1_555 1_555
C30_32 C28_32 1_555 1_555
C31_32 C29_32 1_555 1_555
C32_32 C30_32 1_555 1_555
C33_32 C9_32 1_555 1_555
C34_32 C32_32 1_555 1_555
C35_32 C33_32 1_555 1_555
C36_32 C8_32 1_555 1_555
H11_32 C36_32 1_555 1_555
H12_32 C35_32 1_555 1_555
C16_32 C20_32 1_555 1_555
C16_32 C21_32 1_555 1_555
C17_32 C22_32 1_555 1_555
C24_32 C27_32 1_555 1_555
C26_32 C28_32 1_555 1_555
C31_32 C33_32 1_555 1_555
C34_32 C35_32 1_555 1_555
C34_32 C36_32 1_555 1_555
Cu12 O3_57 1_555 1_555
Cu12_2 O3_58 1_555 1_555
Cu12_9 O3_59 1_555 1_555
Cu12_10 O3_60 1_555 1_555
Cu10_9 O3_61 1_555 1_555
Cu10_10 O3_62 1_555 1_555
Cu10_5 O3_63 1_555 1_555
Cu10_6 O3_64 1_555 1_555
Cu10_7 O3_65 1_555 1_555
Cu10_8 O3_66 1_555 1_555
Cu10 O3_67 1_555 1_555
Cu10_2 O3_68 1_555 1_555
Cu12_7 O3_69 1_555 1_555
Cu12_8 O3_70 1_555 1_555
Cu12_5 O3_71 1_555 1_555
Cu12_6 O3_72 1_555 1_555

#END
