
###############################################################################
#
# This file contains modified crystal structure data generated from the
# MOF subset of the Cambridge Structural Database (CSD) v543 
# hosted by the Cambridge Crystallographic Data Centre (CCDC).
#
# This work is licensed under the Creative Commons
# Attribution-NonCommercial-ShareAlike 4.0 International License.
# To view a copy of this license, visit
# http://creativecommons.org/licenses/by-nc-sa/4.0/
# or send a letter to
# Creative Commons, PO Box 1866, Mountain View, CA 94042, USA.
#
# CIF created using the CSD Python API on 29 September 2022
# The structure has been converted into the P1 space group
# The structure has a 3D framework
# The original CSD entry VUJLET is in the orthorhombic crystal system
# The framework has been calculated to contain at least 10.0% void space
# The void calculation uses a probe of radius 1.32A, grid spacing 0.4
#
###############################################################################

data_VUJLET
_chemical_formula_moiety         '(C64 H24 In4 O32)n'
_symmetry_cell_setting           triclinic
_symmetry_space_group_name_H-M   'P 1'
_symmetry_Int_Tables_number      1
_space_group_name_Hall           'P 1'
loop_
_symmetry_equiv_pos_site_id
_symmetry_equiv_pos_as_xyz
1 x,y,z
_cell_length_a                   20.305(5)
_cell_length_b                   10.022(3)
_cell_length_c                   17.220(5)
_cell_angle_alpha                90
_cell_angle_beta                 90
_cell_angle_gamma                90
_cell_volume                     3504.21
loop_
_atom_site_label
_atom_site_type_symbol
_atom_site_fract_x
_atom_site_fract_y
_atom_site_fract_z
C14 C 0.3744(3) 0.0054(7) 0.5735(5)
O7 O 0.3732(2) 0.0053(7) 0.6471(4)
O8 O 0.3686(2) 0.1030(4) 0.5331(3)
In2 In 0.36991(3) 0.2500 0.62654(3)
C1 C 0.3744(3) 0.4946(7) 0.5735(5)
C2 C 0.3766(3) 0.6315(6) 0.5350(4)
C3 C 0.3744(4) 0.7500 0.5764(5)
H1 H 0.3715 0.7500 0.6303
C4 C 0.3820(3) 0.6313(5) 0.4539(3)
H2 H 0.3832 0.5514 0.4265
C5 C 0.3855(3) 0.7500 0.4161(4)
C6 C 0.3849(6) 0.7500 0.3280(7)
C7 C 0.3268(4) 0.7500 0.2901(4)
H3 H 0.2885 0.7500 0.3196
C8 C 0.3207(4) 0.7500 0.2093(5)
C9 C 0.3776(6) 0.7500 0.1636(9)
H4 H 0.3740 0.7500 0.1097
C10 C 0.4410(7) 0.7500 0.1987(7)
H5 H 0.4791 0.7500 0.1687
C11 C 0.4441(4) 0.7500 0.2802(5)
C12 C 0.2541(6) 0.7500 0.1757(7)
C13 C 0.5090(4) 0.7500 0.3150(5)
O1 O 0.3732(2) 0.4947(7) 0.6471(4)
O2 O 0.3686(2) 0.3970(4) 0.5331(3)
O3 O 0.2047(3) 0.7500 0.2173(4)
O4 O 0.2471(3) 0.7500 0.1000(4)
O5 O 0.5592(3) 0.7500 0.2708(4)
O6 O 0.5193(3) 0.7500 0.3877(4)
C15 C 0.3766(3) 0.8685(6) 0.5350(4)
C16 C 0.3820(3) 0.8687(5) 0.4539(3)
H6 H 0.3832 0.9486 0.4265
In3 In 0.13009(3) 0.7500 0.12654(3)
In4 In 0.63009(3) 0.7500 0.37346(3)
O11 O 0.2953(3) 0.2500 0.7173(4)
O12 O 0.2529(3) 0.2500 0.6000(4)
O13 O 0.4408(3) 0.2500 0.7292(4)
O14 O 0.4807(3) 0.2500 0.6123(4)
C1_2 C 0.1256(3) 0.5054(7) 0.0735(5)
C2_2 C 0.1234(3) 0.3685(6) 0.0350(4)
C3_2 C 0.1256(4) 0.2500 0.0764(5)
H1_2 H 0.1285 0.2500 0.1303
O1_2 O 0.1268(2) 0.5053(7) 0.1471(4)
O2_2 O 0.1314(2) 0.6030(4) 0.0331(3)
C15_2 C 0.1234(3) 0.1315(6) 0.0350(4)
O9 O 0.1268(2) 0.9947(7) 0.1471(4)
O10 O 0.1314(2) 0.8970(4) 0.0331(3)
O13_2 O 0.0592(3) 0.7500 0.2292(4)
O14_2 O 0.0193(3) 0.7500 0.1123(4)
C4_2 C 0.1180(3) 0.3687(5) 0.9539(3)
H2_2 H 0.1168 0.4486 0.9265
C5_2 C 0.1145(3) 0.2500 0.9161(4)
C6_2 C 0.1151(6) 0.2500 0.8280(7)
C7_2 C 0.1732(4) 0.2500 0.7901(4)
H3_2 H 0.2115 0.2500 0.8196
C8_2 C 0.1793(4) 0.2500 0.7093(5)
C9_2 C 0.1224(6) 0.2500 0.6636(9)
H4_2 H 0.1260 0.2500 0.6097
C10_2 C 0.0590(7) 0.2500 0.6987(7)
H5_2 H 0.0209 0.2500 0.6687
C11_2 C 0.0559(4) 0.2500 0.7802(5)
C12_2 C 0.2459(6) 0.2500 0.6757(7)
C16_2 C 0.1180(3) 0.1313(5) 0.9539(3)
H6_2 H 0.1168 0.0514 0.9265
C14_2 C 0.1256(3) 0.9946(7) 0.0735(5)
C13_2 C 0.9910(4) 0.2500 0.8150(5)
O5_2 O 0.9408(3) 0.2500 0.7708(4)
O6_2 O 0.9807(3) 0.2500 0.8877(4)
In4_2 In 0.86991(3) 0.2500 0.87346(3)
C13_3 C 0.0090(4) 0.7500 0.1850(5)
C1_3 C 0.8744(3) 0.0054(7) 0.9265(5)
O1_3 O 0.8732(2) 0.0053(7) 0.8529(4)
O2_3 O 0.8686(2) 0.1030(4) 0.9669(3)
O9_2 O 0.8732(2) 0.4947(7) 0.8529(4)
O10_2 O 0.8686(2) 0.3970(4) 0.9669(3)
O11_2 O 0.7953(3) 0.2500 0.7827(4)
O12_2 O 0.7529(3) 0.2500 0.9000(4)
C4_3 C 0.8820(3) 0.8687(5) 0.0461(3)
H2_3 H 0.8832 0.9486 0.0735
C5_3 C 0.8855(3) 0.7500 0.0839(4)
C6_3 C 0.8849(6) 0.7500 0.1720(7)
C7_3 C 0.8268(4) 0.7500 0.2099(4)
H3_3 H 0.7885 0.7500 0.1804
C8_3 C 0.8207(4) 0.7500 0.2907(5)
C9_3 C 0.8776(6) 0.7500 0.3364(9)
H4_3 H 0.8740 0.7500 0.3903
C10_3 C 0.9410(7) 0.7500 0.3013(7)
H5_3 H 0.9791 0.7500 0.3313
C11_3 C 0.9441(4) 0.7500 0.2198(5)
C12_3 C 0.7541(6) 0.7500 0.3243(7)
O3_2 O 0.7047(3) 0.7500 0.2827(4)
O4_2 O 0.7471(3) 0.7500 0.4000(4)
C16_3 C 0.8820(3) 0.6313(5) 0.0461(3)
H6_3 H 0.8832 0.5514 0.0735
C2_3 C 0.8766(3) 0.8685(6) 0.9650(4)
C3_3 C 0.8744(4) 0.7500 0.9236(5)
H1_3 H 0.8715 0.7500 0.8697
C14_3 C 0.8744(3) 0.4946(7) 0.9265(5)
C15_3 C 0.8766(3) 0.6315(6) 0.9650(4)
C2_4 C 0.6234(3) 0.1315(6) 0.4650(4)
C3_4 C 0.6256(4) 0.2500 0.4236(5)
H1_4 H 0.6285 0.2500 0.3697
C4_4 C 0.6180(3) 0.1313(5) 0.5461(3)
H2_4 H 0.6168 0.0514 0.5735
C5_4 C 0.6145(3) 0.2500 0.5839(4)
C6_4 C 0.6151(6) 0.2500 0.6720(7)
C7_4 C 0.6732(4) 0.2500 0.7099(4)
H3_4 H 0.7115 0.2500 0.6804
C8_4 C 0.6793(4) 0.2500 0.7907(5)
C9_4 C 0.6224(6) 0.2500 0.8364(9)
H4_4 H 0.6260 0.2500 0.8903
C10_4 C 0.5590(7) 0.2500 0.8013(7)
H5_4 H 0.5209 0.2500 0.8313
C11_4 C 0.5559(4) 0.2500 0.7198(5)
C12_4 C 0.7459(6) 0.2500 0.8243(7)
C13_4 C 0.4910(4) 0.2500 0.6850(5)
C14_4 C 0.6256(3) 0.5054(7) 0.4265(5)
C15_4 C 0.6234(3) 0.3685(6) 0.4650(4)
C16_4 C 0.6180(3) 0.3687(5) 0.5461(3)
H6_4 H 0.6168 0.4486 0.5735
O7_2 O 0.6268(2) 0.5053(7) 0.3529(4)
O8_2 O 0.6314(2) 0.6030(4) 0.4669(3)
C1_4 C 0.6256(3) 0.9946(7) 0.4265(5)
O1_4 O 0.6268(2) 0.9947(7) 0.3529(4)
O2_4 O 0.6314(2) 0.8970(4) 0.4669(3)
loop_
_geom_bond_atom_site_label_1
_geom_bond_atom_site_label_2
_geom_bond_site_symmetry_1
_geom_bond_site_symmetry_2
O7 C14 1_555 1_555
O8 C14 1_555 1_555
In2 O7 1_555 1_555
O8 In2 1_555 1_555
In2 O1 1_555 1_555
C1 C2 1_555 1_555
C2 C3 1_555 1_555
C3 H1 1_555 1_555
C4 C2 1_555 1_555
H2 C4 1_555 1_555
C5 C4 1_555 1_555
C6 C5 1_555 1_555
C7 C6 1_555 1_555
H3 C7 1_555 1_555
C8 C7 1_555 1_555
C9 C8 1_555 1_555
H4 C9 1_555 1_555
C10 C9 1_555 1_555
H5 C10 1_555 1_555
C11 C6 1_555 1_555
C12 C8 1_555 1_555
C13 C11 1_555 1_555
O1 C1 1_555 1_555
O2 In2 1_555 1_555
O3 C12 1_555 1_555
O4 C12 1_555 1_555
O5 C13 1_555 1_555
O6 C13 1_555 1_555
C15 C3 1_555 1_555
C16 C5 1_555 1_555
H6 C16 1_555 1_555
In3 O3 1_555 1_555
In4 O5 1_555 1_555
O11 In2 1_555 1_555
O12 In2 1_555 1_555
O13 In2 1_555 1_555
O14 In2 1_555 1_555
C1 O2 1_555 1_555
C10 C11 1_555 1_555
O4 In3 1_555 1_555
O6 In4 1_555 1_555
C15 C16 1_555 1_555
In3 O1_2 1_555 1_555
C1_2 C2_2 1_555 1_555
C2_2 C3_2 1_555 1_555
C3_2 H1_2 1_555 1_555
O1_2 C1_2 1_555 1_555
O2_2 In3 1_555 1_555
C15_2 C3_2 1_555 1_555
O9 In3 1_555 1_555
O10 In3 1_555 1_555
O13_2 In3 1_555 1_555
O14_2 In3 1_555 1_555
C1_2 O2_2 1_555 1_555
H2_2 C4_2 1_555 1_555
C5_2 C4_2 1_555 1_555
C6_2 C5_2 1_555 1_555
C7_2 C6_2 1_555 1_555
H3_2 C7_2 1_555 1_555
C8_2 C7_2 1_555 1_555
C9_2 C8_2 1_555 1_555
H4_2 C9_2 1_555 1_555
C10_2 C9_2 1_555 1_555
H5_2 C10_2 1_555 1_555
C11_2 C6_2 1_555 1_555
C12_2 C8_2 1_555 1_555
O11 C12_2 1_555 1_555
O12 C12_2 1_555 1_555
C16_2 C5_2 1_555 1_555
H6_2 C16_2 1_555 1_555
C10_2 C11_2 1_555 1_555
O9 C14_2 1_555 1_555
O10 C14_2 1_555 1_555
O5_2 C13_2 1_555 1_555
O6_2 C13_2 1_555 1_555
In4_2 O5_2 1_555 1_555
O6_2 In4_2 1_555 1_555
O13_2 C13_3 1_555 1_555
O14_2 C13_3 1_555 1_555
In4_2 O1_3 1_555 1_555
O1_3 C1_3 1_555 1_555
O2_3 In4_2 1_555 1_555
O9_2 In4_2 1_555 1_555
O10_2 In4_2 1_555 1_555
O11_2 In4_2 1_555 1_555
O12_2 In4_2 1_555 1_555
C1_3 O2_3 1_555 1_555
H2_3 C4_3 1_555 1_555
C5_3 C4_3 1_555 1_555
C6_3 C5_3 1_555 1_555
C7_3 C6_3 1_555 1_555
H3_3 C7_3 1_555 1_555
C8_3 C7_3 1_555 1_555
C9_3 C8_3 1_555 1_555
H4_3 C9_3 1_555 1_555
C10_3 C9_3 1_555 1_555
H5_3 C10_3 1_555 1_555
C11_3 C6_3 1_555 1_555
C12_3 C8_3 1_555 1_555
O3_2 C12_3 1_555 1_555
O4_2 C12_3 1_555 1_555
C16_3 C5_3 1_555 1_555
H6_3 C16_3 1_555 1_555
In4 O3_2 1_555 1_555
C10_3 C11_3 1_555 1_555
O4_2 In4 1_555 1_555
C2_3 C3_3 1_555 1_555
C3_3 H1_3 1_555 1_555
C14_3 C15_3 1_555 1_555
C15_3 C3_3 1_555 1_555
O9_2 C14_3 1_555 1_555
O10_2 C14_3 1_555 1_555
C2_4 C3_4 1_555 1_555
C3_4 H1_4 1_555 1_555
C4_4 C2_4 1_555 1_555
H2_4 C4_4 1_555 1_555
C5_4 C4_4 1_555 1_555
C6_4 C5_4 1_555 1_555
C7_4 C6_4 1_555 1_555
H3_4 C7_4 1_555 1_555
C8_4 C7_4 1_555 1_555
C9_4 C8_4 1_555 1_555
H4_4 C9_4 1_555 1_555
C10_4 C9_4 1_555 1_555
H5_4 C10_4 1_555 1_555
C11_4 C6_4 1_555 1_555
C12_4 C8_4 1_555 1_555
C13_4 C11_4 1_555 1_555
O11_2 C12_4 1_555 1_555
O12_2 C12_4 1_555 1_555
O13 C13_4 1_555 1_555
O14 C13_4 1_555 1_555
C14_4 C15_4 1_555 1_555
C15_4 C3_4 1_555 1_555
C16_4 C5_4 1_555 1_555
H6_4 C16_4 1_555 1_555
O7_2 C14_4 1_555 1_555
O8_2 C14_4 1_555 1_555
In4 O7_2 1_555 1_555
C10_4 C11_4 1_555 1_555
C15_4 C16_4 1_555 1_555
O8_2 In4 1_555 1_555
In4 O1_4 1_555 1_555
O1_4 C1_4 1_555 1_555
O2_4 In4 1_555 1_555
C1_4 O2_4 1_555 1_555

#END
