
###############################################################################
#
# This file contains modified crystal structure data generated from the
# MOF subset of the Cambridge Structural Database (CSD) v543 
# hosted by the Cambridge Crystallographic Data Centre (CCDC).
#
# This work is licensed under the Creative Commons
# Attribution-NonCommercial-ShareAlike 4.0 International License.
# To view a copy of this license, visit
# http://creativecommons.org/licenses/by-nc-sa/4.0/
# or send a letter to
# Creative Commons, PO Box 1866, Mountain View, CA 94042, USA.
#
# CIF created using the CSD Python API on 29 September 2022
# The structure has been converted into the P1 space group
# The structure has a 3D framework
# The original CSD entry VUKJUI is in the monoclinic crystal system
# The framework has been calculated to contain at least 10.0% void space
# The void calculation uses a probe of radius 1.32A, grid spacing 0.4
#
###############################################################################

data_VUKJUI
_chemical_formula_moiety         '(C348 H236 Dy16 N4 O130)n'
_symmetry_cell_setting           triclinic
_symmetry_space_group_name_H-M   'P 1'
_symmetry_Int_Tables_number      1
_space_group_name_Hall           'P 1'
loop_
_symmetry_equiv_pos_site_id
_symmetry_equiv_pos_as_xyz
1 x,y,z
_cell_length_a                   15.970(4)
_cell_length_b                   28.166(7)
_cell_length_c                   23.583(6)
_cell_angle_alpha                90
_cell_angle_beta                 108.092(3)
_cell_angle_gamma                90
_cell_volume                     10083.4
loop_
_atom_site_label
_atom_site_type_symbol
_atom_site_fract_x
_atom_site_fract_y
_atom_site_fract_z
C80 C 0.0106(8) 0.0677(4) 0.1449(5)
H46 H 0.0483 0.0931 0.1595
C81 C 0.0179(6) 0.0269(4) 0.1777(4)
H47 H 0.0646 0.0234 0.2127
H43 H 0.0105 0.0942 0.9815
Dy10 Dy 0.06000(2) 0.64055(2) 0.71840(2)
O34 O 0.0233(3) 0.17167(17) 0.7730(2)
O38 O 0.0240(4) 0.1103(2) 0.6660(2)
O30 O 0.0284(3) 0.94085(17) 0.2407(2)
Dy16 Dy 0.08598(2) 0.86971(2) 0.29246(2)
C1 C 0.3318(5) 0.0310(3) 0.7690(3)
C4 C 0.3891(5) 0.0010(3) 0.6893(4)
H2 H 0.3846 0.0318 0.6746
C15 C 0.2961(5) 0.2063(2) 0.7388(3)
C16 C 0.2295(5) 0.2430(3) 0.7107(3)
C17 C 0.2560(6) 0.2901(3) 0.7148(4)
H9 H 0.3145 0.2979 0.7342
C18 C 0.1429(5) 0.2311(3) 0.6806(3)
H10 H 0.1254 0.1995 0.6778
C19 C 0.1948(8) 0.3259(3) 0.6896(4)
H11 H 0.2111 0.3577 0.6923
C20 C 0.0828(6) 0.2660(4) 0.6550(4)
H12 H 0.0249 0.2581 0.6341
C21 C 0.1089(8) 0.3119(4) 0.6604(4)
C22 C 0.0075(6) 0.3550(3) 0.5809(4)
C24 C 0.0315(6) 0.3334(4) 0.5353(4)
H14 H 0.0793 0.3128 0.5442
C29 C 0.4135(5) 0.1167(3) 0.6357(3)
C30 C 0.3264(5) 0.1061(3) 0.5909(3)
C31 C 0.2505(5) 0.1219(3) 0.6006(4)
H17 H 0.2543 0.1382 0.6356
C32 C 0.3194(5) 0.0814(3) 0.5395(4)
H18 H 0.3701 0.0704 0.5325
C33 C 0.1679(5) 0.1140(3) 0.5589(4)
H19 H 0.1172 0.1252 0.5657
C34 C 0.2379(5) 0.0726(3) 0.4977(4)
H20 H 0.2345 0.0556 0.4633
C35 C 0.1626(5) 0.0891(3) 0.5073(4)
C36 C 0.0486(5) 0.0448(4) 0.4364(4)
C38 C 0.0797(5) 0.0011(3) 0.4548(4)
C43 C 0.7723(5) 0.2198(2) 0.6841(3)
C44 C 0.7576(4) 0.2711(2) 0.6679(3)
C45 C 0.6727(4) 0.2879(2) 0.6393(3)
H25 H 0.6254 0.2669 0.6305
C46 C 0.8267(4) 0.3027(3) 0.6787(3)
H26 H 0.8841 0.2918 0.6953
C47 C 0.6577(5) 0.3348(2) 0.6238(3)
H27 H 0.6008 0.3453 0.6041
C48 C 0.8122(5) 0.3501(3) 0.6652(3)
H28 H 0.8594 0.3711 0.6747
C49 C 0.7277(5) 0.3669(3) 0.6375(3)
C50 C 0.7633(5) 0.4494(2) 0.6383(4)
C51 C 0.7757(5) 0.4786(3) 0.5954(4)
H29 H 0.7485 0.4720 0.5552
C52 C 0.7981(6) 0.4598(3) 0.6974(4)
H30 H 0.7864 0.4405 0.7260
C53 C 0.8294(5) 0.5181(3) 0.6123(3)
H31 H 0.8397 0.5374 0.5831
C54 C 0.8512(5) 0.4995(3) 0.7144(4)
H32 H 0.8761 0.5064 0.7547
C55 C 0.8678(4) 0.5293(2) 0.6719(3)
C56 C 0.9288(4) 0.5709(2) 0.6889(3)
C57 C 0.7396(5) 0.0578(3) 0.6633(3)
C58 C 0.7285(4) 0.0058(3) 0.6541(3)
H33 H 0.5958 0.0061 0.6307
C71 C 0.7962(5) 0.1296(2) 0.8085(3)
C72 C 0.8346(5) 0.1242(3) 0.8752(4)
C73 C 0.7810(6) 0.1326(3) 0.9123(4)
H41 H 0.7224 0.1415 0.8958
C74 C 0.9195(7) 0.1101(4) 0.9008(5)
H42 H 0.9554 0.1039 0.8772
C75 C 0.9531(8) 0.1048(4) 0.9642(6)
C76 C 0.8183(8) 0.1271(3) 0.9747(4)
H44 H 0.7839 0.1320 0.9995
C77 C 0.9041(9) 0.1148(4) 0.9983(5)
C85 C 0.4564(7) 0.2263(4) 0.6283(6)
H49 H 0.4424 0.2297 0.6635
C86 C 0.4141(12) 0.2357(8) 0.5270(8)
H50 H 0.4558 0.2575 0.5195
H51 H 0.3581 0.2395 0.4968
H52 H 0.4346 0.2038 0.5261
C87 C 0.3260(14) 0.2674(7) 0.5781(9)
H53 H 0.3162 0.2700 0.6161
H54 H 0.2795 0.2490 0.5515
H55 H 0.3270 0.2985 0.5617
Dy1 Dy 0.22134(2) 0.10491(2) 0.79003(2)
Dy2 Dy 0.44000(2) 0.14055(2) 0.78160(2)
Dy3 Dy 0.60670(2) 0.14227(2) 0.69583(2)
Dy4 Dy 0.91402(2) 0.13029(2) 0.70754(2)
N1 N 0.4045(6) 0.2455(4) 0.5852(6)
O1 O 0.2826(3) 0.02235(17) 0.7996(2)
O2 O 0.3474(3) 0.07418(15) 0.7581(2)
O6 O 0.2749(3) 0.16224(16) 0.7378(2)
O7 O 0.3751(3) 0.21765(17) 0.7610(2)
O8 O 0.0504(6) 0.3494(3) 0.6400(3)
O11 O 0.4154(3) 0.14127(16) 0.6811(2)
O12 O 0.4832(3) 0.10283(18) 0.6264(2)
O13 O 0.0796(4) 0.0864(2) 0.4669(3)
O16 O 0.7061(3) 0.19470(16) 0.6807(2)
O17 O 0.8502(3) 0.20454(18) 0.6997(3)
O18 O 0.7055(4) 0.41215(18) 0.6174(3)
O19 O 0.9480(3) 0.58809(15) 0.7416(2)
O20 O 0.9615(3) 0.58662(17) 0.6515(2)
O21 O 0.6768(3) 0.07979(19) 0.6732(3)
O22 O 0.8085(3) 0.07741(19) 0.6602(2)
O26 O 0.8482(4) 0.1269(2) 0.7795(2)
O27 O 0.7160(3) 0.13739(17) 0.7883(2)
O31 O 0.5213(3) 0.2042(2) 0.6334(3)
O32 O 0.6159(9) 0.1383(4) 0.5868(6)
H56 H 0.5837 0.1137 0.5768
H57 H 0.5826 0.1625 0.5773
O33 O 0.8823(5) 0.1599(3) 0.6063(4)
H58 H 0.8679 0.1546 0.5690
H59 H 0.8665 0.1881 0.6109
Dy13 Dy 0.89330(2) 0.64227(2) 0.80417(2)
O35 O 0.1678(3) 0.17560(17) 0.8148(2)
O36 O 0.3722(3) 0.13819(16) 0.8570(2)
O37 O 0.2854(3) 0.09573(18) 0.8935(2)
O39 O 0.1492(3) 0.0715(2) 0.6998(2)
O40 O 0.5520(3) 0.08809(15) 0.7584(2)
O41 O 0.5385(3) 0.08662(17) 0.8485(2)
O42 O 0.5569(3) 0.19098(15) 0.76237(19)
O43 O 0.5426(3) 0.19285(17) 0.8516(2)
O44 O 0.1081(3) 0.07536(18) 0.8132(2)
O45 O 0.9716(3) 0.05915(17) 0.7593(2)
C82 C 0.8912(6) 0.9959(3) 0.1061(4)
H48 H 0.8490 0.9721 0.0938
C83 C 0.9570(5) 0.9913(3) 0.1593(4)
C84 C 0.9603(5) 0.9495(3) 0.1986(3)
O29 O 0.8919(3) 0.92464(18) 0.1868(2)
Dy7 Dy 0.77866(2) 0.89509(2) 0.20997(2)
C2 C 0.3692(5) 0.9927(2) 0.7399(3)
C3 C 0.3804(6) 0.9467(3) 0.7631(4)
H1 H 0.3688 0.9402 0.7986
C5 C 0.4084(7) 0.9111(3) 0.7338(4)
H3 H 0.4181 0.8807 0.7500
C6 C 0.4158(5) 0.9655(2) 0.6585(4)
H4 H 0.4292 0.9721 0.6236
C7 C 0.4221(5) 0.9207(3) 0.6804(4)
C8 C 0.4366(6) 0.8381(3) 0.6585(4)
C9 C 0.3547(6) 0.8200(3) 0.6518(5)
H5 H 0.3052 0.8393 0.6396
C10 C 0.5091(5) 0.8092(3) 0.6749(3)
H6 H 0.5646 0.8215 0.6786
C11 C 0.3468(5) 0.7730(3) 0.6633(4)
H7 H 0.2912 0.7605 0.6586
C12 C 0.4993(5) 0.7621(3) 0.6860(3)
H8 H 0.5484 0.7423 0.6967
C13 C 0.4188(4) 0.7439(2) 0.6815(3)
C14 C 0.4088(5) 0.6934(2) 0.6986(3)
H22 H 0.1262 0.9970 0.4898
C40 C 0.0400(5) 0.9616(3) 0.4197(4)
H24 H 0.0625 0.9315 0.4312
C59 C 0.6447(5) 0.9866(3) 0.6365(3)
C60 C 0.8011(4) 0.9761(3) 0.6636(3)
H34 H 0.8574 0.9891 0.6747
C61 C 0.6343(5) 0.9386(2) 0.6277(3)
H35 H 0.5779 0.9258 0.6147
C62 C 0.7909(5) 0.9280(3) 0.6569(3)
H36 H 0.8398 0.9082 0.6649
C63 C 0.7060(5) 0.9092(2) 0.6378(3)
C64 C 0.7526(5) 0.8269(3) 0.6405(5)
C65 C 0.7810(6) 0.8127(3) 0.6978(5)
H37 H 0.7641 0.8286 0.7270
C66 C 0.7811(7) 0.8068(4) 0.5982(4)
H38 H 0.7636 0.8187 0.5595
C67 C 0.8368(6) 0.7729(3) 0.7121(4)
H39 H 0.8559 0.7620 0.7513
C68 C 0.8368(7) 0.7682(3) 0.6133(4)
H40 H 0.8568 0.7541 0.5842
C69 C 0.8635(5) 0.7501(2) 0.6699(3)
C70 C 0.9232(4) 0.7085(2) 0.6855(3)
O3 O 0.4481(4) 0.88562(18) 0.6473(3)
O4 O 0.4767(3) 0.67167(17) 0.7270(2)
O5 O 0.3322(3) 0.67560(17) 0.6852(2)
O23 O 0.6877(4) 0.86223(17) 0.6238(3)
O24 O 0.9431(3) 0.69098(15) 0.73763(19)
O25 O 0.9574(3) 0.69285(17) 0.6484(2)
Dy5 Dy 0.27866(2) 0.60491(2) 0.70997(2)
Dy14 Dy 0.58598(2) 0.63029(2) 0.79246(2)
C23 C 0.9395(6) 0.3876(3) 0.5682(3)
H13 H 0.9265 0.4041 0.5986
C25 C 0.8919(5) 0.3951(3) 0.5100(3)
H15 H 0.8440 0.4156 0.5009
C26 C 0.9838(6) 0.3427(3) 0.4768(4)
H16 H 0.9998 0.3284 0.4462
C27 C 0.9139(4) 0.3725(3) 0.4636(3)
C28 C 0.8543(5) 0.3796(3) 0.4017(3)
C37 C 0.9793(7) 0.0514(4) 0.3841(5)
H21 H 0.9602 0.0817 0.3707
C39 C 0.9395(6) 0.0118(4) 0.3525(5)
H23 H 0.8911 0.0158 0.3186
O9 O 0.8722(3) 0.36181(16) 0.3570(2)
O10 O 0.7854(3) 0.40427(18) 0.3935(2)
Dy8 Dy 0.72134(2) 0.39509(2) 0.29003(2)
Dy11 Dy 0.94000(2) 0.35945(2) 0.28160(2)
C41 C 0.9697(4) 0.9666(3) 0.3697(3)
C42 C 0.9295(6) 0.9257(3) 0.3324(4)
O14 O 0.9760(4) 0.8897(2) 0.3340(2)
O15 O 0.8508(3) 0.9285(2) 0.3002(2)
C26_2 C 0.5162(6) 0.8427(3) 0.0232(4)
H16_2 H 0.5002 0.8284 0.0538
C27_2 C 0.5861(4) 0.8725(3) 0.0364(3)
C28_2 C 0.6457(5) 0.8796(3) 0.0983(3)
C34_2 C 0.2621(5) 0.5726(3) 0.0023(4)
H20_2 H 0.2655 0.5556 0.0367
C36_2 C 0.4514(5) 0.5448(4) 0.0636(4)
C37_2 C 0.5207(7) 0.5514(4) 0.1159(5)
H21_2 H 0.5398 0.5817 0.1293
C38_2 C 0.4203(5) 0.5011(3) 0.0452(4)
H22_2 H 0.3738 0.4970 0.0102
C39_2 C 0.5605(6) 0.5118(4) 0.1475(5)
H23_2 H 0.6089 0.5158 0.1814
C40_2 C 0.4600(5) 0.4616(3) 0.0803(4)
H24_2 H 0.4375 0.4315 0.0688
C41_2 C 0.5303(4) 0.4666(3) 0.1303(3)
C42_2 C 0.5705(6) 0.4257(3) 0.1676(4)
H51_2 H 0.1419 0.7395 0.0032
O9_2 O 0.6278(3) 0.86181(16) 0.1430(2)
O10_2 O 0.7146(3) 0.90427(18) 0.1065(2)
O13_2 O 0.4204(4) 0.5864(2) 0.0331(3)
O14_2 O 0.5240(4) 0.3897(2) 0.1660(2)
O15_2 O 0.6492(3) 0.4285(2) 0.1998(2)
Dy11_2 Dy 0.56000(2) 0.85945(2) 0.21840(2)
Dy15 Dy 0.41402(2) 0.36971(2) 0.20754(2)
C1_2 C 0.1682(5) 0.5310(3) 0.7310(3)
C2_2 C 0.1308(5) 0.4927(2) 0.7601(3)
C3_2 C 0.1196(6) 0.4467(3) 0.7369(4)
H1_2 H 0.1312 0.4402 0.7014
C4_2 C 0.1109(5) 0.5010(3) 0.8107(4)
H2_2 H 0.1154 0.5318 0.8254
C5_2 C 0.0916(7) 0.4111(3) 0.7662(4)
H3_2 H 0.0819 0.3807 0.7500
C6_2 C 0.0842(5) 0.4655(2) 0.8415(4)
H4_2 H 0.0708 0.4721 0.8764
C7_2 C 0.0779(5) 0.4207(3) 0.8196(4)
C8_2 C 0.0634(6) 0.3381(3) 0.8415(4)
C9_2 C 0.1453(6) 0.3200(3) 0.8482(5)
H5_2 H 0.1948 0.3393 0.8604
C11_2 C 0.1532(5) 0.2730(3) 0.8367(4)
H7_2 H 0.2088 0.2605 0.8414
C12_2 C 0.0007(5) 0.2621(3) 0.8140(3)
C13_2 C 0.0812(4) 0.2439(2) 0.8185(3)
C14_2 C 0.0912(5) 0.1934(2) 0.8014(3)
C15_2 C 0.2039(5) 0.7063(2) 0.7612(3)
C16_2 C 0.2705(5) 0.7430(3) 0.7893(3)
C17_2 C 0.2440(6) 0.7901(3) 0.7852(4)
H9_2 H 0.1855 0.7979 0.7658
C18_2 C 0.3571(5) 0.7311(3) 0.8194(3)
H10_2 H 0.3746 0.6995 0.8222
C19_2 C 0.3052(8) 0.8259(3) 0.8104(4)
H11_2 H 0.2889 0.8577 0.8077
C20_2 C 0.4172(6) 0.7660(4) 0.8450(4)
H12_2 H 0.4751 0.7581 0.8659
C21_2 C 0.3911(8) 0.8119(4) 0.8396(4)
C22_2 C 0.4925(6) 0.8550(3) 0.9191(4)
C23_2 C 0.5605(6) 0.8876(3) 0.9318(3)
H13_2 H 0.5735 0.9041 0.9014
C24_2 C 0.4685(6) 0.8334(4) 0.9647(4)
H14_2 H 0.4207 0.8128 0.9558
C25_2 C 0.6081(5) 0.8951(3) 0.9900(3)
H15_2 H 0.6560 0.9156 0.9991
C29_2 C 0.0865(5) 0.6167(3) 0.8643(3)
C30_2 C 0.1736(5) 0.6061(3) 0.9091(3)
C31_2 C 0.2495(5) 0.6219(3) 0.8994(4)
H17_2 H 0.2457 0.6382 0.8644
C32_2 C 0.1806(5) 0.5814(3) 0.9605(4)
H18_2 H 0.1299 0.5704 0.9675
C33_2 C 0.3321(5) 0.6140(3) 0.9411(4)
H19_2 H 0.3828 0.6252 0.9343
C35_2 C 0.3374(5) 0.5891(3) 0.9927(4)
C85_2 C 0.0436(7) 0.7263(4) 0.8717(6)
H49_2 H 0.0576 0.7297 0.8365
C86_2 C 0.0859(12) 0.7357(8) 0.9730(8)
H50_2 H 0.0442 0.7575 0.9805
H52_2 H 0.0654 0.7038 0.9739
C87_2 C 0.1740(14) 0.7674(7) 0.9219(9)
H53_2 H 0.1838 0.7700 0.8839
H54_2 H 0.2205 0.7490 0.9485
H55_2 H 0.1730 0.7985 0.9383
N1_2 N 0.0955(6) 0.7455(4) 0.9148(6)
O1_2 O 0.2174(3) 0.52235(17) 0.7004(2)
O2_2 O 0.1526(3) 0.57418(15) 0.7419(2)
O3_2 O 0.0519(4) 0.38562(18) 0.8527(3)
O6_2 O 0.2251(3) 0.66224(16) 0.7622(2)
O7_2 O 0.1249(3) 0.71765(17) 0.7390(2)
O8_2 O 0.4496(6) 0.8494(3) 0.8600(3)
O11_2 O 0.0846(3) 0.64127(16) 0.8189(2)
O12_2 O 0.0168(3) 0.60283(18) 0.8736(2)
O36_2 O 0.1278(3) 0.63819(16) 0.6430(2)
O37_2 O 0.2146(3) 0.59573(18) 0.6065(2)
O39_2 O 0.3508(3) 0.5715(2) 0.8002(2)
O44_2 O 0.3919(3) 0.57536(18) 0.6868(2)
C53_2 C 0.6706(5) 0.0181(3) 0.8877(3)
H31_2 H 0.6603 0.0374 0.9169
H32_2 H 0.6239 0.0064 0.7453
C55_2 C 0.6322(4) 0.0293(2) 0.8281(3)
C56_2 C 0.5712(4) 0.0709(2) 0.8111(3)
C10_2 C 0.9909(5) 0.3092(3) 0.8251(3)
H6_2 H 0.9354 0.3215 0.8214
H8_2 H 0.9516 0.2423 0.8033
C43_2 C 0.7277(5) 0.7198(2) 0.8159(3)
C44_2 C 0.7424(4) 0.7711(2) 0.8321(3)
C45_2 C 0.8273(4) 0.7879(2) 0.8607(3)
H25_2 H 0.8746 0.7669 0.8695
C46_2 C 0.6733(4) 0.8027(3) 0.8213(3)
H26_2 H 0.6159 0.7918 0.8047
C47_2 C 0.8423(5) 0.8348(2) 0.8762(3)
H27_2 H 0.8992 0.8453 0.8959
C48_2 C 0.6878(5) 0.8501(3) 0.8348(3)
H28_2 H 0.6406 0.8711 0.8253
C49_2 C 0.7723(5) 0.8669(3) 0.8625(3)
C50_2 C 0.7367(5) 0.9494(2) 0.8617(4)
C51_2 C 0.7243(5) 0.9786(3) 0.9046(4)
H29_2 H 0.7515 0.9720 0.9448
C52_2 C 0.7019(6) 0.9598(3) 0.8026(4)
H30_2 H 0.7136 0.9405 0.7740
C54_2 C 0.6488(5) 0.9995(3) 0.7856(4)
C57_2 C 0.7604(5) 0.5578(3) 0.8367(3)
C58_2 C 0.7715(4) 0.5058(3) 0.8459(3)
C59_2 C 0.8553(5) 0.4866(3) 0.8635(3)
H33_2 H 0.9042 0.5061 0.8693
C60_2 C 0.6989(4) 0.4761(3) 0.8364(3)
H34_2 H 0.6426 0.4891 0.8253
C61_2 C 0.8657(5) 0.4386(2) 0.8723(3)
H35_2 H 0.9221 0.4258 0.8853
C62_2 C 0.7091(5) 0.4280(3) 0.8431(3)
H36_2 H 0.6602 0.4082 0.8351
C63_2 C 0.7940(5) 0.4092(2) 0.8622(3)
C64_2 C 0.7474(5) 0.3269(3) 0.8595(5)
C65_2 C 0.7190(6) 0.3127(3) 0.8022(5)
H37_2 H 0.7359 0.3286 0.7730
C66_2 C 0.7189(7) 0.3068(4) 0.9018(4)
H38_2 H 0.7364 0.3187 0.9405
C67_2 C 0.6632(6) 0.2729(3) 0.7879(4)
H39_2 H 0.6441 0.2620 0.7487
C68_2 C 0.6632(7) 0.2682(3) 0.8867(4)
H40_2 H 0.6432 0.2541 0.9158
C69_2 C 0.6365(5) 0.2501(2) 0.8301(3)
C70_2 C 0.5768(4) 0.2085(2) 0.8145(3)
C71_2 C 0.7038(5) 0.6296(2) 0.6915(3)
C72_2 C 0.6654(5) 0.6242(3) 0.6248(4)
C73_2 C 0.7190(6) 0.6326(3) 0.5877(4)
H41_2 H 0.7776 0.6415 0.6042
C74_2 C 0.5805(7) 0.6101(4) 0.5992(5)
H42_2 H 0.5446 0.6039 0.6228
C75_2 C 0.5469(8) 0.6048(4) 0.5358(6)
H43_2 H 0.4895 0.5942 0.5185
C76_2 C 0.6817(8) 0.6271(3) 0.5253(4)
H44_2 H 0.7161 0.6320 0.5005
C77_2 C 0.5959(9) 0.6148(4) 0.5017(5)
C78 C 0.5525(8) 0.5707(3) 0.4094(4)
C79 C 0.6133(7) 0.5350(3) 0.4294(4)
H45 H 0.6566 0.5374 0.4663
C80_2 C 0.4894(8) 0.5677(4) 0.3551(5)
H46_2 H 0.4517 0.5931 0.3405
C81_2 C 0.4821(6) 0.5269(4) 0.3223(4)
H47_2 H 0.4354 0.5234 0.2873
C82_2 C 0.6088(6) 0.4959(3) 0.3939(4)
H48_2 H 0.6510 0.4721 0.4062
C83_2 C 0.5430(5) 0.4913(3) 0.3407(4)
C84_2 C 0.5397(5) 0.4495(3) 0.3014(3)
O16_2 O 0.7939(3) 0.69470(16) 0.8193(2)
O17_2 O 0.6498(3) 0.70454(18) 0.8003(3)
O18_2 O 0.7945(4) 0.91215(18) 0.8826(3)
O21_2 O 0.8232(3) 0.57979(19) 0.8268(3)
O22_2 O 0.6915(3) 0.57741(19) 0.8398(2)
O23_2 O 0.8123(4) 0.36223(17) 0.8762(3)
O26_2 O 0.6518(4) 0.6269(2) 0.7205(2)
O27_2 O 0.7840(3) 0.63739(17) 0.7117(2)
O28 O 0.5557(6) 0.6133(2) 0.4413(3)
O29_2 O 0.6081(3) 0.42464(18) 0.3132(2)
O30_2 O 0.4716(3) 0.44085(17) 0.2593(2)
O31_2 O 0.9787(3) 0.7042(2) 0.8666(3)
O32_2 O 0.8841(9) 0.6383(4) 0.9132(6)
H56_2 H 0.9163 0.6137 0.9232
H57_2 H 0.9174 0.6625 0.9227
O33_2 O 0.6177(5) 0.6599(3) 0.8937(4)
H58_2 H 0.6321 0.6546 0.9310
H59_2 H 0.6335 0.6881 0.8891
O38_2 O 0.4760(4) 0.6103(2) 0.8340(2)
O45_2 O 0.5284(3) 0.55915(17) 0.7407(2)
C41_3 C 0.0303(4) 0.0334(3) 0.6303(3)
C42_3 C 0.0705(6) 0.0743(3) 0.6676(4)
C23_3 C 0.0605(6) 0.6124(3) 0.4318(3)
H13_3 H 0.0735 0.5959 0.4014
C25_3 C 0.1081(5) 0.6049(3) 0.4900(3)
H15_3 H 0.1560 0.5844 0.4991
C26_3 C 0.0162(6) 0.6573(3) 0.5232(4)
H16_3 H 0.0002 0.6716 0.5538
C27_3 C 0.0861(4) 0.6275(3) 0.5364(3)
C28_3 C 0.1457(5) 0.6204(3) 0.5983(3)
C37_3 C 0.0207(7) 0.9486(4) 0.6159(5)
H21_3 H 0.0398 0.9183 0.6293
C39_3 C 0.0605(6) 0.9882(4) 0.6475(5)
H23_3 H 0.1089 0.9842 0.6814
C2_3 C 0.6308(5) 0.0073(2) 0.2601(3)
C3_3 C 0.6196(6) 0.0533(3) 0.2369(4)
H1_3 H 0.6312 0.0598 0.2014
C5_3 C 0.5916(7) 0.0889(3) 0.2662(4)
H3_3 H 0.5819 0.1193 0.2500
C6_3 C 0.5842(5) 0.0345(2) 0.3415(4)
H4_3 H 0.5708 0.0279 0.3764
C7_3 C 0.5779(5) 0.0793(3) 0.3196(4)
C8_3 C 0.5634(6) 0.1619(3) 0.3415(4)
C9_3 C 0.6453(6) 0.1800(3) 0.3482(5)
H5_3 H 0.6948 0.1607 0.3604
C10_3 C 0.4909(5) 0.1908(3) 0.3251(3)
H6_3 H 0.4354 0.1785 0.3214
C11_3 C 0.6532(5) 0.2270(3) 0.3367(4)
H7_3 H 0.7088 0.2395 0.3414
C12_3 C 0.5007(5) 0.2379(3) 0.3140(3)
H8_3 H 0.4516 0.2577 0.3033
C13_3 C 0.5812(4) 0.2561(2) 0.3185(3)
C14_3 C 0.5912(5) 0.3066(2) 0.3014(3)
H22_3 H 0.8738 0.0030 0.5102
C40_3 C 0.9600(5) 0.0384(3) 0.5803(4)
H24_3 H 0.9375 0.0685 0.5688
C59_3 C 0.3553(5) 0.0134(3) 0.3635(3)
C60_3 C 0.1989(4) 0.0239(3) 0.3364(3)
H34_3 H 0.1426 0.0109 0.3253
C61_3 C 0.3657(5) 0.0614(2) 0.3723(3)
H35_3 H 0.4221 0.0742 0.3853
C62_3 C 0.2091(5) 0.0720(3) 0.3431(3)
H36_3 H 0.1602 0.0918 0.3351
C63_3 C 0.2940(5) 0.0908(2) 0.3622(3)
C64_3 C 0.2474(5) 0.1731(3) 0.3595(5)
C65_3 C 0.2190(6) 0.1873(3) 0.3022(5)
H37_3 H 0.2359 0.1714 0.2730
C66_3 C 0.2189(7) 0.1932(4) 0.4018(4)
H38_3 H 0.2364 0.1813 0.4405
C67_3 C 0.1632(6) 0.2271(3) 0.2879(4)
H39_3 H 0.1441 0.2380 0.2487
C68_3 C 0.1632(7) 0.2318(3) 0.3867(4)
H40_3 H 0.1432 0.2459 0.4158
C69_3 C 0.1365(5) 0.2499(2) 0.3301(3)
C70_3 C 0.0768(4) 0.2915(2) 0.3145(3)
O3_3 O 0.5519(4) 0.11438(18) 0.3527(3)
O4_2 O 0.5233(3) 0.32833(17) 0.2730(2)
O5_2 O 0.6678(3) 0.32440(17) 0.3148(2)
O23_3 O 0.3123(4) 0.13777(17) 0.3762(3)
O24_2 O 0.0569(3) 0.30902(15) 0.26237(19)
O25_2 O 0.0426(3) 0.30715(17) 0.3516(2)
Dy12 Dy 0.10670(2) 0.35773(2) 0.19583(2)
C82_3 C 0.1088(6) 0.0041(3) 0.8939(4)
H48_3 H 0.1510 0.0279 0.9062
C83_3 C 0.0430(5) 0.0087(3) 0.8407(4)
C84_3 C 0.0397(5) 0.0505(3) 0.8014(3)
C1_3 C 0.6682(5) 0.9690(3) 0.2310(3)
C4_3 C 0.6109(5) 0.9990(3) 0.3107(4)
H2_3 H 0.6154 0.9682 0.3254
C15_3 C 0.7039(5) 0.7937(2) 0.2612(3)
C16_3 C 0.7705(5) 0.7570(3) 0.2893(3)
C17_3 C 0.7440(6) 0.7099(3) 0.2852(4)
H9_3 H 0.6855 0.7021 0.2658
C18_3 C 0.8571(5) 0.7689(3) 0.3194(3)
H10_3 H 0.8746 0.8005 0.3222
C19_3 C 0.8052(8) 0.6741(3) 0.3104(4)
H11_3 H 0.7889 0.6423 0.3077
C20_3 C 0.9172(6) 0.7340(4) 0.3450(4)
H12_3 H 0.9751 0.7419 0.3659
C21_3 C 0.8911(8) 0.6881(4) 0.3396(4)
C22_3 C 0.9925(6) 0.6450(3) 0.4191(4)
C24_3 C 0.9685(6) 0.6666(4) 0.4647(4)
H14_3 H 0.9207 0.6872 0.4558
C29_3 C 0.5865(5) 0.8833(3) 0.3643(3)
C30_3 C 0.6736(5) 0.8939(3) 0.4091(3)
C31_3 C 0.7495(5) 0.8781(3) 0.3994(4)
H17_3 H 0.7457 0.8618 0.3644
C32_3 C 0.6806(5) 0.9186(3) 0.4605(4)
H18_3 H 0.6299 0.9296 0.4675
C33_3 C 0.8321(5) 0.8860(3) 0.4411(4)
H19_3 H 0.8828 0.8748 0.4343
C34_3 C 0.7621(5) 0.9274(3) 0.5023(4)
H20_3 H 0.7655 0.9444 0.5367
C35_3 C 0.8374(5) 0.9109(3) 0.4927(4)
C36_3 C 0.9514(5) 0.9552(4) 0.5636(4)
C38_3 C 0.9203(5) 0.9989(3) 0.5452(4)
C43_3 C 0.2277(5) 0.7802(2) 0.3159(3)
C44_3 C 0.2424(4) 0.7289(2) 0.3321(3)
C45_3 C 0.3273(4) 0.7121(2) 0.3607(3)
H25_3 H 0.3746 0.7331 0.3695
C46_3 C 0.1733(4) 0.6973(3) 0.3213(3)
H26_3 H 0.1159 0.7082 0.3047
C47_3 C 0.3423(5) 0.6652(2) 0.3762(3)
H27_3 H 0.3992 0.6547 0.3959
C48_3 C 0.1878(5) 0.6499(3) 0.3348(3)
H28_3 H 0.1406 0.6289 0.3253
C49_3 C 0.2723(5) 0.6331(3) 0.3625(3)
C50_3 C 0.2367(5) 0.5506(2) 0.3617(4)
C51_3 C 0.2243(5) 0.5214(3) 0.4046(4)
H29_3 H 0.2515 0.5280 0.4448
C52_3 C 0.2019(6) 0.5402(3) 0.3026(4)
H30_3 H 0.2136 0.5595 0.2740
C53_3 C 0.1706(5) 0.4819(3) 0.3877(3)
H31_3 H 0.1603 0.4626 0.4169
C54_3 C 0.1488(5) 0.5005(3) 0.2856(4)
H32_3 H 0.1239 0.4936 0.2453
C55_3 C 0.1322(4) 0.4707(2) 0.3281(3)
C56_3 C 0.0712(4) 0.4291(2) 0.3111(3)
C57_3 C 0.2604(5) 0.9422(3) 0.3367(3)
C58_3 C 0.2715(4) 0.9942(3) 0.3459(3)
H33_3 H 0.4042 0.9939 0.3693
C71_3 C 0.2038(5) 0.8704(2) 0.1915(3)
C72_3 C 0.1654(5) 0.8758(3) 0.1248(4)
C73_3 C 0.2190(6) 0.8674(3) 0.0877(4)
H41_3 H 0.2776 0.8585 0.1042
C74_3 C 0.0805(7) 0.8899(4) 0.0992(5)
H42_3 H 0.0446 0.8961 0.1228
C75_3 C 0.0469(8) 0.8952(4) 0.0358(6)
C76_3 C 0.1817(8) 0.8729(3) 0.0253(4)
H44_3 H 0.2161 0.8680 0.0005
C77_3 C 0.0959(9) 0.8852(4) 0.0017(5)
C85_3 C 0.5436(7) 0.7737(4) 0.3717(6)
H49_3 H 0.5576 0.7703 0.3365
C86_3 C 0.5859(12) 0.7643(8) 0.4730(8)
H50_3 H 0.5442 0.7425 0.4805
H51_3 H 0.6419 0.7605 0.5032
H52_3 H 0.5654 0.7962 0.4739
C87_3 C 0.6740(14) 0.7326(7) 0.4219(9)
H53_3 H 0.6838 0.7300 0.3839
H54_3 H 0.7205 0.7510 0.4485
H55_3 H 0.6730 0.7015 0.4383
Dy3_2 Dy 0.39330(2) 0.85773(2) 0.30417(2)
N1_3 N 0.5955(6) 0.7545(4) 0.4148(6)
O1_3 O 0.7174(3) 0.97765(17) 0.2004(2)
O2_3 O 0.6526(3) 0.92582(15) 0.2419(2)
O6_3 O 0.7251(3) 0.83776(16) 0.2622(2)
O7_3 O 0.6249(3) 0.78235(17) 0.2390(2)
O8_3 O 0.9496(6) 0.6506(3) 0.3600(3)
O11_3 O 0.5846(3) 0.85873(16) 0.3189(2)
O12_3 O 0.5168(3) 0.89717(18) 0.3736(2)
O13_3 O 0.9204(4) 0.9136(2) 0.5331(3)
O16_3 O 0.2939(3) 0.80530(16) 0.3193(2)
O17_3 O 0.1498(3) 0.79546(18) 0.3003(3)
O18_3 O 0.2945(4) 0.58785(18) 0.3826(3)
O19_2 O 0.0520(3) 0.41191(15) 0.2584(2)
O20_2 O 0.0385(3) 0.41338(17) 0.3485(2)
O21_3 O 0.3232(3) 0.92021(19) 0.3268(3)
O22_3 O 0.1915(3) 0.92259(19) 0.3398(2)
O26_3 O 0.1518(4) 0.8731(2) 0.2205(2)
O27_3 O 0.2840(3) 0.86261(17) 0.2117(2)
O31_3 O 0.4787(3) 0.7958(2) 0.3666(3)
O32_3 O 0.3841(9) 0.8617(4) 0.4132(6)
H56_3 H 0.4163 0.8863 0.4232
H57_3 H 0.4174 0.8375 0.4227
O33_3 O 0.1177(5) 0.8401(3) 0.3937(4)
H58_3 H 0.1321 0.8454 0.4310
H59_3 H 0.1335 0.8119 0.3891
O35_2 O 0.8322(3) 0.82440(17) 0.1852(2)
O40_2 O 0.4480(3) 0.91191(15) 0.2416(2)
O41_2 O 0.4615(3) 0.91338(17) 0.1515(2)
O42_2 O 0.4431(3) 0.80902(15) 0.23763(19)
O43_2 O 0.4574(3) 0.80715(17) 0.1484(2)
H43_3 H 0.9895 0.9058 0.0185
O34_2 O 0.9767(3) 0.82833(17) 0.2270(2)
C10_4 C 0.0091(5) 0.6908(3) 0.1749(3)
H6_4 H 0.0646 0.6785 0.1786
H8_4 H 0.0484 0.7577 0.1967
C43_4 C 0.2723(5) 0.2802(2) 0.1841(3)
C44_4 C 0.2576(4) 0.2289(2) 0.1679(3)
C45_4 C 0.1727(4) 0.2121(2) 0.1393(3)
H25_4 H 0.1254 0.2331 0.1305
C46_4 C 0.3267(4) 0.1973(3) 0.1787(3)
H26_4 H 0.3841 0.2082 0.1953
C47_4 C 0.1577(5) 0.1652(2) 0.1238(3)
H27_4 H 0.1008 0.1547 0.1041
C48_4 C 0.3122(5) 0.1499(3) 0.1652(3)
H28_4 H 0.3594 0.1289 0.1747
C49_4 C 0.2277(5) 0.1331(3) 0.1375(3)
C50_4 C 0.2633(5) 0.0506(2) 0.1383(4)
C51_4 C 0.2757(5) 0.0214(3) 0.0954(4)
H29_4 H 0.2485 0.0280 0.0552
C52_4 C 0.2981(6) 0.0402(3) 0.1974(4)
H30_4 H 0.2864 0.0595 0.2260
C54_4 C 0.3512(5) 0.0005(3) 0.2144(4)
C57_4 C 0.2396(5) 0.4422(3) 0.1633(3)
C58_4 C 0.2285(4) 0.4942(3) 0.1541(3)
C59_4 C 0.1447(5) 0.5134(3) 0.1365(3)
H33_4 H 0.0958 0.4939 0.1307
C60_4 C 0.3011(4) 0.5239(3) 0.1636(3)
H34_4 H 0.3574 0.5109 0.1747
C61_4 C 0.1343(5) 0.5614(2) 0.1277(3)
H35_4 H 0.0779 0.5742 0.1147
C62_4 C 0.2909(5) 0.5720(3) 0.1569(3)
H36_4 H 0.3398 0.5918 0.1649
C63_4 C 0.2060(5) 0.5908(2) 0.1378(3)
C64_4 C 0.2526(5) 0.6731(3) 0.1405(5)
C65_4 C 0.2810(6) 0.6873(3) 0.1978(5)
H37_4 H 0.2641 0.6714 0.2270
C66_4 C 0.2811(7) 0.6932(4) 0.0982(4)
H38_4 H 0.2636 0.6813 0.0595
C67_4 C 0.3368(6) 0.7271(3) 0.2121(4)
H39_4 H 0.3559 0.7380 0.2513
C68_4 C 0.3368(7) 0.7318(3) 0.1133(4)
H40_4 H 0.3568 0.7459 0.0842
C69_4 C 0.3635(5) 0.7499(2) 0.1699(3)
C70_4 C 0.4232(4) 0.7915(2) 0.1855(3)
C71_4 C 0.2962(5) 0.3704(2) 0.3085(3)
C72_4 C 0.3346(5) 0.3758(3) 0.3752(4)
C73_4 C 0.2810(6) 0.3674(3) 0.4123(4)
H41_4 H 0.2224 0.3585 0.3958
C74_4 C 0.4195(7) 0.3899(4) 0.4008(5)
H42_4 H 0.4554 0.3961 0.3772
C75_4 C 0.4531(8) 0.3952(4) 0.4642(6)
H43_4 H 0.5105 0.4058 0.4815
C76_4 C 0.3183(8) 0.3729(3) 0.4747(4)
H44_4 H 0.2839 0.3680 0.4995
C77_4 C 0.4041(9) 0.3852(4) 0.4983(5)
C78_2 C 0.4475(8) 0.4293(3) 0.5906(4)
C79_2 C 0.3867(7) 0.4650(3) 0.5706(4)
H45_2 H 0.3434 0.4626 0.5337
C80_3 C 0.5106(8) 0.4323(4) 0.6449(5)
H46_3 H 0.5483 0.4069 0.6595
C81_3 C 0.5179(6) 0.4731(4) 0.6777(4)
H47_3 H 0.5646 0.4766 0.7127
C82_4 C 0.3912(6) 0.5041(3) 0.6061(4)
H48_4 H 0.3490 0.5279 0.5938
C83_4 C 0.4570(5) 0.5087(3) 0.6593(4)
C84_4 C 0.4603(5) 0.5505(3) 0.6986(3)
O16_4 O 0.2061(3) 0.30530(16) 0.1807(2)
O17_4 O 0.3502(3) 0.29546(18) 0.1997(3)
O18_4 O 0.2055(4) 0.08785(18) 0.1174(3)
O21_4 O 0.1768(3) 0.42021(19) 0.1732(3)
O22_4 O 0.3085(3) 0.42259(19) 0.1602(2)
O23_4 O 0.1877(4) 0.63777(17) 0.1238(3)
O26_4 O 0.3482(4) 0.3731(2) 0.2795(2)
O27_4 O 0.2160(3) 0.36261(17) 0.2883(2)
O28_2 O 0.4443(6) 0.3867(2) 0.5587(3)
O31_4 O 0.0213(3) 0.2958(2) 0.1334(3)
O32_4 O 0.1159(9) 0.3617(4) 0.0868(6)
H56_4 H 0.0837 0.3863 0.0768
H57_4 H 0.0826 0.3375 0.0773
O33_4 O 0.3823(5) 0.3401(3) 0.1063(4)
H58_4 H 0.3679 0.3454 0.0690
H59_4 H 0.3665 0.3119 0.1109
C53_4 C 0.3294(5) 0.9819(3) 0.1123(3)
H31_4 H 0.3397 0.9626 0.0831
H32_4 H 0.3761 0.9936 0.2547
C55_4 C 0.3678(4) 0.9707(2) 0.1719(3)
C56_4 C 0.4288(4) 0.9291(2) 0.1889(3)
C1_4 C 0.8318(5) 0.4690(3) 0.2690(3)
C2_4 C 0.8692(5) 0.5073(2) 0.2399(3)
C3_4 C 0.8804(6) 0.5533(3) 0.2631(4)
H1_4 H 0.8688 0.5598 0.2986
C4_4 C 0.8891(5) 0.4990(3) 0.1893(4)
H2_4 H 0.8846 0.4682 0.1746
C5_4 C 0.9084(7) 0.5889(3) 0.2338(4)
H3_4 H 0.9181 0.6193 0.2500
C6_4 C 0.9158(5) 0.5345(2) 0.1585(4)
H4_4 H 0.9292 0.5279 0.1236
C7_4 C 0.9221(5) 0.5793(3) 0.1804(4)
C8_4 C 0.9366(6) 0.6619(3) 0.1585(4)
C9_4 C 0.8547(6) 0.6800(3) 0.1518(5)
H5_4 H 0.8052 0.6607 0.1396
C11_4 C 0.8468(5) 0.7270(3) 0.1633(4)
H7_4 H 0.7912 0.7395 0.1586
C12_4 C 0.9993(5) 0.7379(3) 0.1860(3)
C13_4 C 0.9188(4) 0.7561(2) 0.1815(3)
C14_4 C 0.9088(5) 0.8066(2) 0.1986(3)
C15_4 C 0.7961(5) 0.2937(2) 0.2388(3)
C16_4 C 0.7295(5) 0.2570(3) 0.2107(3)
C17_4 C 0.7560(6) 0.2099(3) 0.2148(4)
H9_4 H 0.8145 0.2021 0.2342
C18_4 C 0.6429(5) 0.2689(3) 0.1806(3)
H10_4 H 0.6254 0.3005 0.1778
C19_4 C 0.6948(8) 0.1741(3) 0.1896(4)
H11_4 H 0.7111 0.1423 0.1923
C20_4 C 0.5828(6) 0.2340(4) 0.1550(4)
H12_4 H 0.5249 0.2419 0.1341
C21_4 C 0.6089(8) 0.1881(4) 0.1604(4)
C22_4 C 0.5075(6) 0.1450(3) 0.0809(4)
C23_4 C 0.4395(6) 0.1124(3) 0.0682(3)
H13_4 H 0.4265 0.0959 0.0986
C24_4 C 0.5315(6) 0.1666(4) 0.0353(4)
H14_4 H 0.5793 0.1872 0.0442
C25_4 C 0.3919(5) 0.1049(3) 0.0100(3)
H15_4 H 0.3440 0.0844 0.0009
C29_4 C 0.9135(5) 0.3833(3) 0.1357(3)
C30_4 C 0.8264(5) 0.3939(3) 0.0909(3)
C31_4 C 0.7505(5) 0.3781(3) 0.1006(4)
H17_4 H 0.7543 0.3618 0.1356
C32_4 C 0.8194(5) 0.4186(3) 0.0395(4)
H18_4 H 0.8701 0.4296 0.0325
C33_4 C 0.6679(5) 0.3860(3) 0.0589(4)
H19_4 H 0.6172 0.3748 0.0657
C35_4 C 0.6626(5) 0.4109(3) 0.0073(4)
C85_4 C 0.9564(7) 0.2737(4) 0.1283(6)
H49_4 H 0.9424 0.2703 0.1635
C86_4 C 0.9141(12) 0.2643(8) 0.0270(8)
H50_4 H 0.9558 0.2425 0.0195
H52_4 H 0.9346 0.2962 0.0261
C87_4 C 0.8260(14) 0.2326(7) 0.0781(9)
H53_4 H 0.8162 0.2300 0.1161
H54_4 H 0.7795 0.2510 0.0515
H55_4 H 0.8270 0.2015 0.0617
N1_4 N 0.9045(6) 0.2545(4) 0.0852(6)
O1_4 O 0.7826(3) 0.47765(17) 0.2996(2)
O2_4 O 0.8474(3) 0.42582(15) 0.2581(2)
O3_4 O 0.9481(4) 0.61438(18) 0.1473(3)
O6_4 O 0.7749(3) 0.33776(16) 0.2378(2)
O7_4 O 0.8751(3) 0.28235(17) 0.2610(2)
O8_4 O 0.5504(6) 0.1506(3) 0.1400(3)
O11_4 O 0.9154(3) 0.35873(16) 0.1811(2)
O12_4 O 0.9832(3) 0.39717(18) 0.1264(2)
C26_4 C 0.4838(6) 0.1573(3) 0.9768(4)
H16_4 H 0.4998 0.1716 0.9462
C27_4 C 0.4139(4) 0.1275(3) 0.9636(3)
C28_4 C 0.3543(5) 0.1204(3) 0.9017(3)
C34_4 C 0.7379(5) 0.4274(3) 0.9977(4)
H20_4 H 0.7345 0.4444 0.9633
C36_4 C 0.5486(5) 0.4552(4) 0.9364(4)
C37_4 C 0.4793(7) 0.4486(4) 0.8841(5)
H21_4 H 0.4602 0.4183 0.8707
C38_4 C 0.5797(5) 0.4989(3) 0.9548(4)
H22_4 H 0.6262 0.5030 0.9898
C39_4 C 0.4395(6) 0.4882(4) 0.8525(5)
H23_4 H 0.3911 0.4842 0.8186
C40_4 C 0.5400(5) 0.5384(3) 0.9197(4)
H24_4 H 0.5625 0.5685 0.9312
C41_4 C 0.4697(4) 0.5334(3) 0.8697(3)
C42_4 C 0.4295(6) 0.5743(3) 0.8324(4)
H51_4 H 0.8581 0.2605 0.9968
O13_4 O 0.5796(4) 0.4136(2) 0.9669(3)
C78_3 C 0.9475(8) 0.0707(3) 0.0906(4)
C79_3 C 0.8867(7) 0.0350(3) 0.0706(4)
H45_3 H 0.8434 0.0374 0.0337
O28_3 O 0.9443(6) 0.1133(2) 0.0587(3)
C78_4 C 0.0525(8) 0.9293(3) 0.9094(4)
C79_4 C 0.1133(7) 0.9650(3) 0.9294(4)
H45_4 H 0.1566 0.9626 0.9663
O28_4 O 0.0557(6) 0.8867(2) 0.9413(3)
C80_4 C 0.9894(8) 0.9323(4) 0.8551(5)
H46_4 H 0.9517 0.9069 0.8405
C81_4 C 0.9821(6) 0.9731(4) 0.8223(4)
H47_4 H 0.9354 0.9766 0.7873
loop_
_geom_bond_atom_site_label_1
_geom_bond_atom_site_label_2
_geom_bond_site_symmetry_1
_geom_bond_site_symmetry_2
H46 C80 1_555 1_555
C81 C80 1_555 1_555
H47 C81 1_555 1_555
Dy16 O30 1_555 1_555
H2 C4 1_555 1_555
C15 C16 1_555 1_555
C16 C17 1_555 1_555
C17 H9 1_555 1_555
C18 C16 1_555 1_555
H10 C18 1_555 1_555
C19 C17 1_555 1_555
H11 C19 1_555 1_555
C20 C18 1_555 1_555
H12 C20 1_555 1_555
C21 C19 1_555 1_555
C24 C22 1_555 1_555
H14 C24 1_555 1_555
C29 C30 1_555 1_555
C30 C31 1_555 1_555
C31 H17 1_555 1_555
C32 C30 1_555 1_555
H18 C32 1_555 1_555
C33 C31 1_555 1_555
H19 C33 1_555 1_555
C34 C32 1_555 1_555
H20 C34 1_555 1_555
C35 C33 1_555 1_555
C38 C36 1_555 1_555
C43 C44 1_555 1_555
C44 C45 1_555 1_555
C45 H25 1_555 1_555
C46 C44 1_555 1_555
H26 C46 1_555 1_555
C47 C45 1_555 1_555
H27 C47 1_555 1_555
C48 C46 1_555 1_555
H28 C48 1_555 1_555
C49 C47 1_555 1_555
C50 C51 1_555 1_555
C51 H29 1_555 1_555
C52 C50 1_555 1_555
H30 C52 1_555 1_555
C53 C51 1_555 1_555
H31 C53 1_555 1_555
C54 C52 1_555 1_555
H32 C54 1_555 1_555
C55 C53 1_555 1_555
C56 C55 1_555 1_555
C57 C58 1_555 1_555
C71 C72 1_555 1_555
C72 C73 1_555 1_555
C73 H41 1_555 1_555
C74 C72 1_555 1_555
H42 C74 1_555 1_555
C75 C74 1_555 1_555
C76 C73 1_555 1_555
H44 C76 1_555 1_555
C77 C75 1_555 1_555
C85 H49 1_555 1_555
C86 H50 1_555 1_555
H51 C86 1_555 1_555
H52 C86 1_555 1_555
C87 H53 1_555 1_555
H54 C87 1_555 1_555
H55 C87 1_555 1_555
Dy1 O1 1_555 1_555
Dy2 O2 1_555 1_555
Dy3 O12 1_555 1_555
Dy4 O17 1_555 1_555
N1 C85 1_555 1_555
O1 C1 1_555 1_555
O2 C1 1_555 1_555
O6 C15 1_555 1_555
O7 C15 1_555 1_555
O8 C21 1_555 1_555
O11 C29 1_555 1_555
O12 C29 1_555 1_555
O13 C35 1_555 1_555
O16 C43 1_555 1_555
O17 C43 1_555 1_555
O18 C49 1_555 1_555
O19 C56 1_555 1_555
O20 C56 1_555 1_555
O21 C57 1_555 1_555
O22 C57 1_555 1_555
O26 C71 1_555 1_555
O27 C71 1_555 1_555
O31 C85 1_555 1_555
O32 Dy3 1_555 1_555
H56 O32 1_555 1_555
H57 O32 1_555 1_555
O33 Dy4 1_555 1_555
H58 O33 1_555 1_555
H59 O33 1_555 1_555
Dy13 O19 1_555 1_555
O35 Dy1 1_555 1_555
O36 Dy1 1_555 1_555
O37 Dy1 1_555 1_555
O39 Dy1 1_555 1_555
O40 Dy2 1_555 1_555
O41 Dy2 1_555 1_555
O42 Dy2 1_555 1_555
O43 Dy2 1_555 1_555
O44 Dy1 1_555 1_555
O45 Dy4 1_555 1_555
C20 C21 1_555 1_555
C22 O8 1_555 1_555
C34 C35 1_555 1_555
C36 O13 1_555 1_555
C48 C49 1_555 1_555
C50 O18 1_555 1_555
C54 C55 1_555 1_555
C76 C77 1_555 1_555
C86 N1 1_555 1_555
C87 N1 1_555 1_555
Dy1 O2 1_555 1_555
Dy1 O6 1_555 1_555
Dy2 O6 1_555 1_555
Dy2 O7 1_555 1_555
Dy2 O11 1_555 1_555
Dy2 O36 1_555 1_555
Dy3 O16 1_555 1_555
Dy3 O21 1_555 1_555
Dy3 O27 1_555 1_555
Dy3 O31 1_555 1_555
Dy3 O40 1_555 1_555
Dy3 O42 1_555 1_555
Dy4 O22 1_555 1_555
Dy4 O26 1_555 1_555
H48 C82 1_555 1_555
C84 C83 1_555 1_555
O29 C84 1_555 1_555
Dy7 O29 1_555 1_555
C82 C83 1_555 1_555
C2 C3 1_555 1_555
C3 H1 1_555 1_555
C5 C3 1_555 1_555
H3 C5 1_555 1_555
H4 C6 1_555 1_555
C7 C5 1_555 1_555
C8 C9 1_555 1_555
C9 H5 1_555 1_555
C10 C8 1_555 1_555
H6 C10 1_555 1_555
C11 C9 1_555 1_555
H7 C11 1_555 1_555
C12 C10 1_555 1_555
H8 C12 1_555 1_555
C13 C11 1_555 1_555
C14 C13 1_555 1_555
H24 C40 1_555 1_555
H34 C60 1_555 1_555
C61 C59 1_555 1_555
H35 C61 1_555 1_555
C62 C60 1_555 1_555
H36 C62 1_555 1_555
C63 C61 1_555 1_555
C64 C65 1_555 1_555
C65 H37 1_555 1_555
C66 C64 1_555 1_555
H38 C66 1_555 1_555
C67 C65 1_555 1_555
H39 C67 1_555 1_555
C68 C66 1_555 1_555
H40 C68 1_555 1_555
C69 C67 1_555 1_555
C70 C69 1_555 1_555
O3 C7 1_555 1_555
O4 C14 1_555 1_555
O5 C14 1_555 1_555
O23 C63 1_555 1_555
O24 C70 1_555 1_555
O25 C70 1_555 1_555
Dy5 O5 1_555 1_555
Dy13 O24 1_555 1_555
Dy14 O4 1_555 1_555
C6 C7 1_555 1_555
C8 O3 1_555 1_555
C12 C13 1_555 1_555
C62 C63 1_555 1_555
C64 O23 1_555 1_555
C68 C69 1_555 1_555
C23 H13 1_555 1_555
C25 C23 1_555 1_555
H15 C25 1_555 1_555
H16 C26 1_555 1_555
C27 C25 1_555 1_555
C28 C27 1_555 1_555
C37 H21 1_555 1_555
C39 C37 1_555 1_555
H23 C39 1_555 1_555
O9 C28 1_555 1_555
O10 C28 1_555 1_555
Dy8 O9 1_555 1_555
Dy11 O9 1_555 1_555
C26 C27 1_555 1_555
O10 Dy8 1_555 1_555
C42 C41 1_555 1_555
O14 C42 1_555 1_555
O15 C42 1_555 1_555
Dy7 O15 1_555 1_555
H16_2 C26_2 1_555 1_555
C28_2 C27_2 1_555 1_555
H20_2 C34_2 1_555 1_555
C36_2 C37_2 1_555 1_555
C37_2 H21_2 1_555 1_555
C38_2 C36_2 1_555 1_555
H22_2 C38_2 1_555 1_555
C39_2 C37_2 1_555 1_555
H23_2 C39_2 1_555 1_555
C40_2 C38_2 1_555 1_555
H24_2 C40_2 1_555 1_555
C41_2 C39_2 1_555 1_555
C42_2 C41_2 1_555 1_555
O9_2 C28_2 1_555 1_555
O10_2 C28_2 1_555 1_555
O14_2 C42_2 1_555 1_555
O15_2 C42_2 1_555 1_555
Dy8 O15_2 1_555 1_555
Dy7 O9_2 1_555 1_555
Dy11_2 O9_2 1_555 1_555
Dy15 O14_2 1_555 1_555
C26_2 C27_2 1_555 1_555
C36_2 O13_2 1_555 1_555
C40_2 C41_2 1_555 1_555
O10_2 Dy7 1_555 1_555
C1_2 C2_2 1_555 1_555
C2_2 C3_2 1_555 1_555
C3_2 H1_2 1_555 1_555
C4_2 C2_2 1_555 1_555
H2_2 C4_2 1_555 1_555
C5_2 C3_2 1_555 1_555
H3_2 C5_2 1_555 1_555
C6_2 C4_2 1_555 1_555
H4_2 C6_2 1_555 1_555
C7_2 C5_2 1_555 1_555
C8_2 C9_2 1_555 1_555
C9_2 H5_2 1_555 1_555
C11_2 C9_2 1_555 1_555
H7_2 C11_2 1_555 1_555
C13_2 C11_2 1_555 1_555
C14_2 C13_2 1_555 1_555
C15_2 C16_2 1_555 1_555
C16_2 C17_2 1_555 1_555
C17_2 H9_2 1_555 1_555
C18_2 C16_2 1_555 1_555
H10_2 C18_2 1_555 1_555
C19_2 C17_2 1_555 1_555
H11_2 C19_2 1_555 1_555
C20_2 C18_2 1_555 1_555
H12_2 C20_2 1_555 1_555
C21_2 C19_2 1_555 1_555
C22_2 C23_2 1_555 1_555
C23_2 H13_2 1_555 1_555
C24_2 C22_2 1_555 1_555
H14_2 C24_2 1_555 1_555
C25_2 C23_2 1_555 1_555
H15_2 C25_2 1_555 1_555
C29_2 C30_2 1_555 1_555
C30_2 C31_2 1_555 1_555
C31_2 H17_2 1_555 1_555
C32_2 C30_2 1_555 1_555
H18_2 C32_2 1_555 1_555
C33_2 C31_2 1_555 1_555
H19_2 C33_2 1_555 1_555
C35_2 C33_2 1_555 1_555
C85_2 H49_2 1_555 1_555
C86_2 H50_2 1_555 1_555
H52_2 C86_2 1_555 1_555
C87_2 H53_2 1_555 1_555
H54_2 C87_2 1_555 1_555
H55_2 C87_2 1_555 1_555
Dy5 O1_2 1_555 1_555
Dy10 O2_2 1_555 1_555
N1_2 C85_2 1_555 1_555
O1_2 C1_2 1_555 1_555
O2_2 C1_2 1_555 1_555
O3_2 C7_2 1_555 1_555
O34 C14_2 1_555 1_555
O35 C14_2 1_555 1_555
O6_2 C15_2 1_555 1_555
O7_2 C15_2 1_555 1_555
O8_2 C21_2 1_555 1_555
O11_2 C29_2 1_555 1_555
O12_2 C29_2 1_555 1_555
O36_2 Dy5 1_555 1_555
O37_2 Dy5 1_555 1_555
O39_2 Dy5 1_555 1_555
O44_2 Dy5 1_555 1_555
C6_2 C7_2 1_555 1_555
C8_2 O3_2 1_555 1_555
C12_2 C13_2 1_555 1_555
C20_2 C21_2 1_555 1_555
C22_2 O8_2 1_555 1_555
C86_2 N1_2 1_555 1_555
C87_2 N1_2 1_555 1_555
Dy5 O2_2 1_555 1_555
Dy5 O6_2 1_555 1_555
Dy10 O6_2 1_555 1_555
Dy10 O7_2 1_555 1_555
Dy10 O11_2 1_555 1_555
Dy10 O36_2 1_555 1_555
H31_2 C53_2 1_555 1_555
C55_2 C53_2 1_555 1_555
C56_2 C55_2 1_555 1_555
O40 C56_2 1_555 1_555
O41 C56_2 1_555 1_555
H6_2 C10_2 1_555 1_555
C43_2 C44_2 1_555 1_555
C44_2 C45_2 1_555 1_555
C45_2 H25_2 1_555 1_555
C46_2 C44_2 1_555 1_555
H26_2 C46_2 1_555 1_555
C47_2 C45_2 1_555 1_555
H27_2 C47_2 1_555 1_555
C48_2 C46_2 1_555 1_555
H28_2 C48_2 1_555 1_555
C49_2 C47_2 1_555 1_555
C50_2 C51_2 1_555 1_555
C51_2 H29_2 1_555 1_555
C52_2 C50_2 1_555 1_555
H30_2 C52_2 1_555 1_555
C54_2 C52_2 1_555 1_555
C57_2 C58_2 1_555 1_555
C58_2 C59_2 1_555 1_555
C59_2 H33_2 1_555 1_555
C60_2 C58_2 1_555 1_555
H34_2 C60_2 1_555 1_555
C61_2 C59_2 1_555 1_555
H35_2 C61_2 1_555 1_555
C62_2 C60_2 1_555 1_555
H36_2 C62_2 1_555 1_555
C63_2 C61_2 1_555 1_555
C64_2 C65_2 1_555 1_555
C65_2 H37_2 1_555 1_555
C66_2 C64_2 1_555 1_555
H38_2 C66_2 1_555 1_555
C67_2 C65_2 1_555 1_555
H39_2 C67_2 1_555 1_555
C68_2 C66_2 1_555 1_555
H40_2 C68_2 1_555 1_555
C69_2 C67_2 1_555 1_555
C70_2 C69_2 1_555 1_555
C71_2 C72_2 1_555 1_555
C72_2 C73_2 1_555 1_555
C73_2 H41_2 1_555 1_555
C74_2 C72_2 1_555 1_555
H42_2 C74_2 1_555 1_555
C75_2 C74_2 1_555 1_555
H43_2 C75_2 1_555 1_555
C76_2 C73_2 1_555 1_555
H44_2 C76_2 1_555 1_555
C77_2 C75_2 1_555 1_555
C78 C79 1_555 1_555
C79 H45 1_555 1_555
C80_2 C78 1_555 1_555
H46_2 C80_2 1_555 1_555
C81_2 C80_2 1_555 1_555
H47_2 C81_2 1_555 1_555
C82_2 C79 1_555 1_555
H48_2 C82_2 1_555 1_555
C83_2 C81_2 1_555 1_555
C84_2 C83_2 1_555 1_555
Dy14 O17_2 1_555 1_555
O16_2 C43_2 1_555 1_555
O17_2 C43_2 1_555 1_555
O18_2 C49_2 1_555 1_555
O21_2 C57_2 1_555 1_555
O22_2 C57_2 1_555 1_555
O23_2 C63_2 1_555 1_555
O42 C70_2 1_555 1_555
O43 C70_2 1_555 1_555
O26_2 C71_2 1_555 1_555
O27_2 C71_2 1_555 1_555
O28 C77_2 1_555 1_555
O29_2 C84_2 1_555 1_555
O30_2 C84_2 1_555 1_555
O32_2 Dy13 1_555 1_555
H56_2 O32_2 1_555 1_555
H57_2 O32_2 1_555 1_555
O33_2 Dy14 1_555 1_555
H58_2 O33_2 1_555 1_555
H59_2 O33_2 1_555 1_555
Dy8 O29_2 1_555 1_555
Dy15 O30_2 1_555 1_555
O38_2 Dy14 1_555 1_555
O45_2 Dy14 1_555 1_555
C48_2 C49_2 1_555 1_555
C50_2 O18_2 1_555 1_555
C62_2 C63_2 1_555 1_555
C64_2 O23_2 1_555 1_555
C68_2 C69_2 1_555 1_555
C76_2 C77_2 1_555 1_555
C78 O28 1_555 1_555
C82_2 C83_2 1_555 1_555
Dy13 O16_2 1_555 1_555
Dy13 O21_2 1_555 1_555
Dy13 O27_2 1_555 1_555
Dy13 O31_2 1_555 1_555
Dy14 O22_2 1_555 1_555
Dy14 O26_2 1_555 1_555
C42_3 C41_3 1_555 1_555
O38 C42_3 1_555 1_555
O39 C42_3 1_555 1_555
C23_3 H13_3 1_555 1_555
C25_3 C23_3 1_555 1_555
H15_3 C25_3 1_555 1_555
H16_3 C26_3 1_555 1_555
C27_3 C25_3 1_555 1_555
C28_3 C27_3 1_555 1_555
C37_3 H21_3 1_555 1_555
C39_3 C37_3 1_555 1_555
H23_3 C39_3 1_555 1_555
O36_2 C28_3 1_555 1_555
O37_2 C28_3 1_555 1_555
C26_3 C27_3 1_555 1_555
C2_3 C3_3 1_555 1_555
C3_3 H1_3 1_555 1_555
C5_3 C3_3 1_555 1_555
H3_3 C5_3 1_555 1_555
H4_3 C6_3 1_555 1_555
C7_3 C5_3 1_555 1_555
C8_3 C9_3 1_555 1_555
C9_3 H5_3 1_555 1_555
C10_3 C8_3 1_555 1_555
H6_3 C10_3 1_555 1_555
C11_3 C9_3 1_555 1_555
H7_3 C11_3 1_555 1_555
C12_3 C10_3 1_555 1_555
H8_3 C12_3 1_555 1_555
C13_3 C11_3 1_555 1_555
C14_3 C13_3 1_555 1_555
H24_3 C40_3 1_555 1_555
H34_3 C60_3 1_555 1_555
C61_3 C59_3 1_555 1_555
H35_3 C61_3 1_555 1_555
C62_3 C60_3 1_555 1_555
H36_3 C62_3 1_555 1_555
C63_3 C61_3 1_555 1_555
C64_3 C65_3 1_555 1_555
C65_3 H37_3 1_555 1_555
C66_3 C64_3 1_555 1_555
H38_3 C66_3 1_555 1_555
C67_3 C65_3 1_555 1_555
H39_3 C67_3 1_555 1_555
C68_3 C66_3 1_555 1_555
H40_3 C68_3 1_555 1_555
C69_3 C67_3 1_555 1_555
C70_3 C69_3 1_555 1_555
O3_3 C7_3 1_555 1_555
O4_2 C14_3 1_555 1_555
O5_2 C14_3 1_555 1_555
O23_3 C63_3 1_555 1_555
O24_2 C70_3 1_555 1_555
O25_2 C70_3 1_555 1_555
Dy8 O5_2 1_555 1_555
Dy12 O24_2 1_555 1_555
Dy15 O4_2 1_555 1_555
C6_3 C7_3 1_555 1_555
C8_3 O3_3 1_555 1_555
C12_3 C13_3 1_555 1_555
C62_3 C63_3 1_555 1_555
C64_3 O23_3 1_555 1_555
C68_3 C69_3 1_555 1_555
H48_3 C82_3 1_555 1_555
C84_3 C83_3 1_555 1_555
O44 C84_3 1_555 1_555
C82_3 C83_3 1_555 1_555
H2_3 C4_3 1_555 1_555
C15_3 C16_3 1_555 1_555
C16_3 C17_3 1_555 1_555
C17_3 H9_3 1_555 1_555
C18_3 C16_3 1_555 1_555
H10_3 C18_3 1_555 1_555
C19_3 C17_3 1_555 1_555
H11_3 C19_3 1_555 1_555
C20_3 C18_3 1_555 1_555
H12_3 C20_3 1_555 1_555
C21_3 C19_3 1_555 1_555
C24_3 C22_3 1_555 1_555
H14_3 C24_3 1_555 1_555
C29_3 C30_3 1_555 1_555
C30_3 C31_3 1_555 1_555
C31_3 H17_3 1_555 1_555
C32_3 C30_3 1_555 1_555
H18_3 C32_3 1_555 1_555
C33_3 C31_3 1_555 1_555
H19_3 C33_3 1_555 1_555
C34_3 C32_3 1_555 1_555
H20_3 C34_3 1_555 1_555
C35_3 C33_3 1_555 1_555
C38_3 C36_3 1_555 1_555
C43_3 C44_3 1_555 1_555
C44_3 C45_3 1_555 1_555
C45_3 H25_3 1_555 1_555
C46_3 C44_3 1_555 1_555
H26_3 C46_3 1_555 1_555
C47_3 C45_3 1_555 1_555
H27_3 C47_3 1_555 1_555
C48_3 C46_3 1_555 1_555
H28_3 C48_3 1_555 1_555
C49_3 C47_3 1_555 1_555
C50_3 C51_3 1_555 1_555
C51_3 H29_3 1_555 1_555
C52_3 C50_3 1_555 1_555
H30_3 C52_3 1_555 1_555
C53_3 C51_3 1_555 1_555
H31_3 C53_3 1_555 1_555
C54_3 C52_3 1_555 1_555
H32_3 C54_3 1_555 1_555
C55_3 C53_3 1_555 1_555
C56_3 C55_3 1_555 1_555
C57_3 C58_3 1_555 1_555
C71_3 C72_3 1_555 1_555
C72_3 C73_3 1_555 1_555
C73_3 H41_3 1_555 1_555
C74_3 C72_3 1_555 1_555
H42_3 C74_3 1_555 1_555
C75_3 C74_3 1_555 1_555
C76_3 C73_3 1_555 1_555
H44_3 C76_3 1_555 1_555
C77_3 C75_3 1_555 1_555
C85_3 H49_3 1_555 1_555
C86_3 H50_3 1_555 1_555
H51_3 C86_3 1_555 1_555
H52_3 C86_3 1_555 1_555
C87_3 H53_3 1_555 1_555
H54_3 C87_3 1_555 1_555
H55_3 C87_3 1_555 1_555
Dy7 O1_3 1_555 1_555
Dy11_2 O2_3 1_555 1_555
Dy3_2 O12_3 1_555 1_555
Dy16 O17_3 1_555 1_555
N1_3 C85_3 1_555 1_555
O1_3 C1_3 1_555 1_555
O2_3 C1_3 1_555 1_555
O6_3 C15_3 1_555 1_555
O7_3 C15_3 1_555 1_555
O8_3 C21_3 1_555 1_555
O11_3 C29_3 1_555 1_555
O12_3 C29_3 1_555 1_555
O13_3 C35_3 1_555 1_555
O16_3 C43_3 1_555 1_555
O17_3 C43_3 1_555 1_555
O18_3 C49_3 1_555 1_555
O19_2 C56_3 1_555 1_555
O20_2 C56_3 1_555 1_555
O21_3 C57_3 1_555 1_555
O22_3 C57_3 1_555 1_555
O26_3 C71_3 1_555 1_555
O27_3 C71_3 1_555 1_555
O31_3 C85_3 1_555 1_555
O32_3 Dy3_2 1_555 1_555
H56_3 O32_3 1_555 1_555
H57_3 O32_3 1_555 1_555
O33_3 Dy16 1_555 1_555
H58_3 O33_3 1_555 1_555
H59_3 O33_3 1_555 1_555
Dy12 O19_2 1_555 1_555
O35_2 Dy7 1_555 1_555
O40_2 Dy11_2 1_555 1_555
O41_2 Dy11_2 1_555 1_555
O42_2 Dy11_2 1_555 1_555
O43_2 Dy11_2 1_555 1_555
C20_3 C21_3 1_555 1_555
C22_3 O8_3 1_555 1_555
C34_3 C35_3 1_555 1_555
C36_3 O13_3 1_555 1_555
C48_3 C49_3 1_555 1_555
C50_3 O18_3 1_555 1_555
C54_3 C55_3 1_555 1_555
C76_3 C77_3 1_555 1_555
C86_3 N1_3 1_555 1_555
C87_3 N1_3 1_555 1_555
Dy7 O2_3 1_555 1_555
Dy7 O6_3 1_555 1_555
Dy11_2 O6_3 1_555 1_555
Dy11_2 O7_3 1_555 1_555
Dy11_2 O11_3 1_555 1_555
Dy3_2 O16_3 1_555 1_555
Dy3_2 O21_3 1_555 1_555
Dy3_2 O27_3 1_555 1_555
Dy3_2 O31_3 1_555 1_555
Dy3_2 O40_2 1_555 1_555
Dy3_2 O42_2 1_555 1_555
Dy16 O22_3 1_555 1_555
Dy16 O26_3 1_555 1_555
H6_4 C10_4 1_555 1_555
C43_4 C44_4 1_555 1_555
C44_4 C45_4 1_555 1_555
C45_4 H25_4 1_555 1_555
C46_4 C44_4 1_555 1_555
H26_4 C46_4 1_555 1_555
C47_4 C45_4 1_555 1_555
H27_4 C47_4 1_555 1_555
C48_4 C46_4 1_555 1_555
H28_4 C48_4 1_555 1_555
C49_4 C47_4 1_555 1_555
C50_4 C51_4 1_555 1_555
C51_4 H29_4 1_555 1_555
C52_4 C50_4 1_555 1_555
H30_4 C52_4 1_555 1_555
C54_4 C52_4 1_555 1_555
C57_4 C58_4 1_555 1_555
C58_4 C59_4 1_555 1_555
C59_4 H33_4 1_555 1_555
C60_4 C58_4 1_555 1_555
H34_4 C60_4 1_555 1_555
C61_4 C59_4 1_555 1_555
H35_4 C61_4 1_555 1_555
C62_4 C60_4 1_555 1_555
H36_4 C62_4 1_555 1_555
C63_4 C61_4 1_555 1_555
C64_4 C65_4 1_555 1_555
C65_4 H37_4 1_555 1_555
C66_4 C64_4 1_555 1_555
H38_4 C66_4 1_555 1_555
C67_4 C65_4 1_555 1_555
H39_4 C67_4 1_555 1_555
C68_4 C66_4 1_555 1_555
H40_4 C68_4 1_555 1_555
C69_4 C67_4 1_555 1_555
C70_4 C69_4 1_555 1_555
C71_4 C72_4 1_555 1_555
C72_4 C73_4 1_555 1_555
C73_4 H41_4 1_555 1_555
C74_4 C72_4 1_555 1_555
H42_4 C74_4 1_555 1_555
C75_4 C74_4 1_555 1_555
H43_4 C75_4 1_555 1_555
C76_4 C73_4 1_555 1_555
H44_4 C76_4 1_555 1_555
C77_4 C75_4 1_555 1_555
C78_2 C79_2 1_555 1_555
C79_2 H45_2 1_555 1_555
C80_3 C78_2 1_555 1_555
H46_3 C80_3 1_555 1_555
C81_3 C80_3 1_555 1_555
H47_3 C81_3 1_555 1_555
C82_4 C79_2 1_555 1_555
H48_4 C82_4 1_555 1_555
C83_4 C81_3 1_555 1_555
C84_4 C83_4 1_555 1_555
Dy15 O17_4 1_555 1_555
O16_4 C43_4 1_555 1_555
O17_4 C43_4 1_555 1_555
O18_4 C49_4 1_555 1_555
O21_4 C57_4 1_555 1_555
O22_4 C57_4 1_555 1_555
O23_4 C63_4 1_555 1_555
O42_2 C70_4 1_555 1_555
O43_2 C70_4 1_555 1_555
O26_4 C71_4 1_555 1_555
O27_4 C71_4 1_555 1_555
O28_2 C77_4 1_555 1_555
O44_2 C84_4 1_555 1_555
O45_2 C84_4 1_555 1_555
O32_4 Dy12 1_555 1_555
H56_4 O32_4 1_555 1_555
H57_4 O32_4 1_555 1_555
O33_4 Dy15 1_555 1_555
H58_4 O33_4 1_555 1_555
H59_4 O33_4 1_555 1_555
C48_4 C49_4 1_555 1_555
C50_4 O18_4 1_555 1_555
C62_4 C63_4 1_555 1_555
C64_4 O23_4 1_555 1_555
C68_4 C69_4 1_555 1_555
C76_4 C77_4 1_555 1_555
C78_2 O28_2 1_555 1_555
C82_4 C83_4 1_555 1_555
Dy12 O16_4 1_555 1_555
Dy12 O21_4 1_555 1_555
Dy12 O27_4 1_555 1_555
Dy12 O31_4 1_555 1_555
Dy15 O22_4 1_555 1_555
Dy15 O26_4 1_555 1_555
H31_4 C53_4 1_555 1_555
C55_4 C53_4 1_555 1_555
C56_4 C55_4 1_555 1_555
O40_2 C56_4 1_555 1_555
O41_2 C56_4 1_555 1_555
C1_4 C2_4 1_555 1_555
C2_4 C3_4 1_555 1_555
C3_4 H1_4 1_555 1_555
C4_4 C2_4 1_555 1_555
H2_4 C4_4 1_555 1_555
C5_4 C3_4 1_555 1_555
H3_4 C5_4 1_555 1_555
C6_4 C4_4 1_555 1_555
H4_4 C6_4 1_555 1_555
C7_4 C5_4 1_555 1_555
C8_4 C9_4 1_555 1_555
C9_4 H5_4 1_555 1_555
C11_4 C9_4 1_555 1_555
H7_4 C11_4 1_555 1_555
C13_4 C11_4 1_555 1_555
C14_4 C13_4 1_555 1_555
C15_4 C16_4 1_555 1_555
C16_4 C17_4 1_555 1_555
C17_4 H9_4 1_555 1_555
C18_4 C16_4 1_555 1_555
H10_4 C18_4 1_555 1_555
C19_4 C17_4 1_555 1_555
H11_4 C19_4 1_555 1_555
C20_4 C18_4 1_555 1_555
H12_4 C20_4 1_555 1_555
C21_4 C19_4 1_555 1_555
C22_4 C23_4 1_555 1_555
C23_4 H13_4 1_555 1_555
C24_4 C22_4 1_555 1_555
H14_4 C24_4 1_555 1_555
C25_4 C23_4 1_555 1_555
H15_4 C25_4 1_555 1_555
C29_4 C30_4 1_555 1_555
C30_4 C31_4 1_555 1_555
C31_4 H17_4 1_555 1_555
C32_4 C30_4 1_555 1_555
H18_4 C32_4 1_555 1_555
C33_4 C31_4 1_555 1_555
H19_4 C33_4 1_555 1_555
C35_4 C33_4 1_555 1_555
C85_4 H49_4 1_555 1_555
C86_4 H50_4 1_555 1_555
H52_4 C86_4 1_555 1_555
C87_4 H53_4 1_555 1_555
H54_4 C87_4 1_555 1_555
H55_4 C87_4 1_555 1_555
Dy8 O1_4 1_555 1_555
Dy11 O2_4 1_555 1_555
N1_4 C85_4 1_555 1_555
O1_4 C1_4 1_555 1_555
O2_4 C1_4 1_555 1_555
O3_4 C7_4 1_555 1_555
O34_2 C14_4 1_555 1_555
O35_2 C14_4 1_555 1_555
O6_4 C15_4 1_555 1_555
O7_4 C15_4 1_555 1_555
O8_4 C21_4 1_555 1_555
O11_4 C29_4 1_555 1_555
O12_4 C29_4 1_555 1_555
C6_4 C7_4 1_555 1_555
C8_4 O3_4 1_555 1_555
C12_4 C13_4 1_555 1_555
C20_4 C21_4 1_555 1_555
C22_4 O8_4 1_555 1_555
C86_4 N1_4 1_555 1_555
C87_4 N1_4 1_555 1_555
Dy8 O2_4 1_555 1_555
Dy8 O6_4 1_555 1_555
Dy11 O6_4 1_555 1_555
Dy11 O7_4 1_555 1_555
Dy11 O11_4 1_555 1_555
H16_4 C26_4 1_555 1_555
C28_4 C27_4 1_555 1_555
H20_4 C34_4 1_555 1_555
C36_4 C37_4 1_555 1_555
C37_4 H21_4 1_555 1_555
C38_4 C36_4 1_555 1_555
H22_4 C38_4 1_555 1_555
C39_4 C37_4 1_555 1_555
H23_4 C39_4 1_555 1_555
C40_4 C38_4 1_555 1_555
H24_4 C40_4 1_555 1_555
C41_4 C39_4 1_555 1_555
C42_4 C41_4 1_555 1_555
O36 C28_4 1_555 1_555
O37 C28_4 1_555 1_555
O38_2 C42_4 1_555 1_555
O39_2 C42_4 1_555 1_555
C26_4 C27_4 1_555 1_555
C36_4 O13_4 1_555 1_555
C40_4 C41_4 1_555 1_555
C78_3 C79_3 1_555 1_555
C79_3 H45_3 1_555 1_555
C78_3 O28_3 1_555 1_555
C78_4 C79_4 1_555 1_555
C79_4 H45_4 1_555 1_555
C78_4 O28_4 1_555 1_555
H46_4 C80_4 1_555 1_555
C81_4 C80_4 1_555 1_555
H47_4 C81_4 1_555 1_555

#END
