
###############################################################################
#
# This file contains modified crystal structure data generated from the
# MOF subset of the Cambridge Structural Database (CSD) v543 
# hosted by the Cambridge Crystallographic Data Centre (CCDC).
#
# This work is licensed under the Creative Commons
# Attribution-NonCommercial-ShareAlike 4.0 International License.
# To view a copy of this license, visit
# http://creativecommons.org/licenses/by-nc-sa/4.0/
# or send a letter to
# Creative Commons, PO Box 1866, Mountain View, CA 94042, USA.
#
# CIF created using the CSD Python API on 29 September 2022
# The structure has been converted into the P1 space group
# The structure has a 3D framework
# The original CSD entry VUKJOC is in the monoclinic crystal system
# The framework has been calculated to contain at least 10.0% void space
# The void calculation uses a probe of radius 1.32A, grid spacing 0.4
#
###############################################################################

data_VUKJOC
_chemical_formula_moiety         '(C348 H236 N4 O132 Tb16)n'
_symmetry_cell_setting           triclinic
_symmetry_space_group_name_H-M   'P 1'
_symmetry_Int_Tables_number      1
_space_group_name_Hall           'P 1'
loop_
_symmetry_equiv_pos_site_id
_symmetry_equiv_pos_as_xyz
1 x,y,z
_cell_length_a                   15.9451(14)
_cell_length_b                   28.148(3)
_cell_length_c                   23.416(2)
_cell_angle_alpha                90
_cell_angle_beta                 107.837(2)
_cell_angle_gamma                90
_cell_volume                     10004.5
loop_
_atom_site_label
_atom_site_type_symbol
_atom_site_fract_x
_atom_site_fract_y
_atom_site_fract_z
Tb8 Tb 0.06013(2) 0.64079(2) 0.71878(2)
C46 C 0.3927(4) 0.1043(2) 0.0104(3)
H26 H 0.3451 0.0835 0.0019
C47 C 0.5328(5) 0.1655(3) 0.0351(3)
H27 H 0.5809 0.1860 0.0441
C48 C 0.4420(4) 0.1117(2) 0.0685(3)
H28 H 0.4294 0.0954 0.0994
C49 C 0.5093(5) 0.1431(2) 0.0808(3)
C50 C 0.6130(7) 0.1858(3) 0.1598(3)
C51 C 0.5850(5) 0.2316(3) 0.1544(3)
H29 H 0.5267 0.2389 0.1337
C52 C 0.6991(6) 0.1731(2) 0.1893(3)
H30 H 0.7168 0.1415 0.1918
C53 C 0.6439(4) 0.2673(2) 0.1800(2)
H31 H 0.6255 0.2988 0.1772
C54 C 0.7580(5) 0.2086(2) 0.2148(3)
H32 H 0.8161 0.2010 0.2355
C55 C 0.7310(4) 0.25578(19) 0.2099(2)
C56 C 0.7968(4) 0.29325(18) 0.2385(2)
O18 O 0.5546(5) 0.1482(2) 0.1397(2)
O19 O 0.8757(2) 0.28160(12) 0.26132(18)
O20 O 0.7734(2) 0.33648(11) 0.23731(14)
Tb9 Tb 0.93987(2) 0.35921(2) 0.28122(2)
Tb12 Tb 0.72024(2) 0.39434(2) 0.28991(2)
C1 C 0.7399(4) 0.0587(2) 0.6613(3)
C2 C 0.7300(3) 0.00633(18) 0.6528(2)
H2 H 0.5969 0.0063 0.6275
C15 C 0.4159(4) 0.11689(18) 0.6335(2)
C16 C 0.3275(4) 0.10663(19) 0.5898(2)
C17 C 0.3193(4) 0.0797(2) 0.5393(2)
H9 H 0.3694 0.0673 0.5324
C18 C 0.2529(4) 0.1235(2) 0.5995(3)
H10 H 0.2578 0.1409 0.6341
C19 C 0.2365(4) 0.0709(2) 0.4984(3)
H11 H 0.2313 0.0528 0.4643
C20 C 0.1693(4) 0.1154(2) 0.5591(3)
H12 H 0.1192 0.1276 0.5662
C21 C 0.1630(4) 0.0890(2) 0.5089(3)
C22 C 0.0483(4) 0.0449(2) 0.4378(3)
C23 C 0.0784(4) 0.0008(2) 0.4559(3)
C29 C 0.5707(3) 0.07023(18) 0.8109(3)
C30 C 0.6326(3) 0.02885(17) 0.8281(2)
C31 C 0.6497(4) 0.0009(2) 0.7852(3)
H17 H 0.6264 0.0088 0.7448
C32 C 0.6700(4) 0.01784(19) 0.8872(3)
H18 H 0.6597 0.0371 0.9166
C43 C 0.3530(4) 0.12002(19) 0.9021(2)
C44 C 0.4128(4) 0.12745(19) 0.9635(2)
C45 C 0.4838(4) 0.1568(2) 0.9758(3)
H25 H 0.4996 0.1711 0.9447
C57 C 0.0919(4) 0.19401(18) 0.8014(2)
C58 C 0.0820(4) 0.24441(17) 0.8193(2)
C59 C 0.1533(4) 0.2735(2) 0.8378(3)
H33 H 0.2093 0.2611 0.8429
C60 C 0.0011(4) 0.2633(2) 0.8144(3)
C61 C 0.1440(5) 0.3213(2) 0.8490(3)
H35 H 0.1932 0.3409 0.8612
C63 C 0.0628(5) 0.33905(18) 0.8420(3)
C64 C 0.0782(4) 0.42115(19) 0.8199(3)
C65 C 0.0914(5) 0.4124(2) 0.7665(3)
H37 H 0.0813 0.3823 0.7496
C66 C 0.0846(4) 0.46641(18) 0.8422(3)
H38 H 0.0712 0.4729 0.8774
C67 C 0.1201(5) 0.44856(19) 0.7373(3)
H39 H 0.1316 0.4422 0.7014
C68 C 0.1110(4) 0.50184(18) 0.8117(3)
H40 H 0.1148 0.5327 0.8265
C69 C 0.1321(4) 0.49371(17) 0.7603(2)
C70 C 0.1688(4) 0.53211(18) 0.7319(2)
C71 C 0.0386(4) 0.05091(19) 0.8011(3)
C72 C 0.0424(4) 0.0082(2) 0.8396(3)
C73 C 0.1070(5) 0.0045(2) 0.8930(3)
H41 H 0.1479 0.0288 0.9059
C85 C 0.4554(6) 0.2261(3) 0.6249(5)
H49 H 0.4402 0.2288 0.6601
C86 C 0.3234(9) 0.2676(5) 0.5761(6)
H50 H 0.3275 0.2849 0.6122
H51 H 0.2775 0.2443 0.5694
H52 H 0.3099 0.2893 0.5428
C87 C 0.4169(9) 0.2351(6) 0.5249(6)
H53 H 0.4381 0.2631 0.5104
H54 H 0.3623 0.2253 0.4965
H55 H 0.4596 0.2101 0.5299
N1 N 0.4033(5) 0.2452(3) 0.5816(4)
O1 O 0.8097(3) 0.07773(13) 0.65867(18)
O2 O 0.6770(3) 0.08052(13) 0.6707(2)
O6 O 0.4843(2) 0.10245(14) 0.62384(16)
O7 O 0.4187(2) 0.14139(12) 0.67919(15)
O8 O 0.0791(3) 0.08623(16) 0.4688(2)
O11 O 0.5518(2) 0.08808(11) 0.75745(15)
O12 O 0.5367(2) 0.08640(13) 0.84795(16)
O16 O 0.3711(2) 0.13831(12) 0.85717(15)
O17 O 0.2847(3) 0.09636(14) 0.89458(16)
O21 O 0.1679(2) 0.17694(12) 0.81549(17)
O22 O 0.0241(3) 0.17274(13) 0.77245(18)
O23 O 0.0503(3) 0.38690(12) 0.8535(2)
O24 O 0.2165(3) 0.52309(12) 0.70024(18)
O25 O 0.1535(2) 0.57488(11) 0.74324(15)
O26 O 0.1066(3) 0.07658(13) 0.81407(17)
O31 O 0.6175(7) 0.1384(4) 0.5816(5)
H56 H 0.5872 0.1129 0.5757
H57 H 0.5817 0.1616 0.5743
O33 O 0.5227(3) 0.20431(16) 0.6309(2)
Tb1 Tb 0.60682(2) 0.14252(2) 0.69479(2)
Tb2 Tb 0.43987(2) 0.14079(2) 0.78122(2)
Tb3 Tb 0.22024(2) 0.10566(2) 0.78991(2)
O35 O 0.5427(3) 0.19256(13) 0.85205(16)
O36 O 0.5571(2) 0.19131(11) 0.76177(14)
O37 O 0.1488(3) 0.07106(16) 0.69990(19)
O38 O 0.0242(3) 0.11095(15) 0.66499(18)
O39 O 0.7063(3) 0.19475(12) 0.67958(17)
O41 O 0.3757(2) 0.21840(12) 0.76132(18)
O42 O 0.2734(2) 0.16352(11) 0.73731(14)
O43 O 0.2835(3) 0.02309(12) 0.79976(18)
O44 O 0.3465(2) 0.07488(11) 0.75676(15)
O45 O 0.7156(2) 0.13710(14) 0.78783(15)
Tb10 Tb 0.27976(2) 0.60566(2) 0.71009(2)
Tb13 Tb 0.91484(2) 0.13078(2) 0.70701(2)
C78 C 0.0979(7) 0.8849(3) 0.0016(3)
C79 C 0.1847(6) 0.8729(2) 0.0256(3)
H45 H 0.2199 0.8680 0.0009
C80 C 0.0469(6) 0.8936(3) 0.0360(4)
C81 C 0.2198(5) 0.8680(2) 0.0878(3)
H47 H 0.2788 0.8600 0.1048
C82 C 0.0805(5) 0.8881(3) 0.0983(3)
H48 H 0.0444 0.8933 0.1222
C83 C 0.1670(4) 0.8750(2) 0.1240(3)
C84 C 0.2041(4) 0.86962(19) 0.1911(2)
O29 O 0.2844(2) 0.86290(14) 0.21217(15)
O30 O 0.1514(3) 0.87304(15) 0.22044(18)
Tb6 Tb 0.39318(2) 0.85748(2) 0.30521(2)
Tb16 Tb 0.08516(2) 0.86922(2) 0.29299(2)
C3 C 0.8026(4) 0.97640(19) 0.6629(2)
H1 H 0.8591 0.9891 0.6746
C4 C 0.6460(4) 0.98673(18) 0.6343(2)
C5 C 0.7911(4) 0.92795(19) 0.6558(2)
H3 H 0.8398 0.9079 0.6642
C6 C 0.6352(4) 0.93834(18) 0.6259(3)
H4 H 0.5790 0.9253 0.6130
C7 C 0.7079(4) 0.90959(18) 0.6365(3)
C8 C 0.7528(4) 0.8278(2) 0.6400(3)
C9 C 0.7829(5) 0.8081(3) 0.5985(3)
H5 H 0.7661 0.8204 0.5598
C10 C 0.7797(5) 0.8119(2) 0.6969(3)
H6 H 0.7615 0.8269 0.7264
C11 C 0.8393(5) 0.7693(2) 0.6125(3)
H7 H 0.8601 0.7557 0.5833
C12 C 0.8352(4) 0.7726(2) 0.7111(3)
H8 H 0.8524 0.7611 0.7503
C13 C 0.8644(4) 0.75083(18) 0.6700(2)
C14 C 0.9236(3) 0.70896(17) 0.6852(2)
H13 H 0.1246 0.9966 0.4911
C25 C 0.0400(4) 0.9620(2) 0.4215(3)
H15 H 0.0620 0.9317 0.4330
C33 C 0.7020(5) 0.9604(2) 0.8019(3)
H19 H 0.7123 0.9407 0.7728
C34 C 0.7378(4) 0.95023(18) 0.8612(3)
C35 C 0.7227(4) 0.97859(19) 0.9035(3)
H20 H 0.7482 0.9714 0.9439
C36 C 0.7729(4) 0.86698(18) 0.8622(2)
C37 C 0.8428(4) 0.83503(18) 0.8760(2)
H21 H 0.8997 0.8456 0.8954
C38 C 0.6885(4) 0.85125(19) 0.8346(2)
H22 H 0.6419 0.8727 0.8249
C39 C 0.8278(4) 0.78797(17) 0.8612(2)
H23 H 0.8750 0.7669 0.8696
C40 C 0.7423(4) 0.77123(17) 0.8334(2)
C41 C 0.6731(4) 0.80349(19) 0.8214(2)
H24 H 0.6157 0.7929 0.8042
C42 C 0.7269(4) 0.72029(19) 0.8168(2)
C75 C 0.1118(6) 0.9648(2) 0.9282(3)
H43 H 0.1543 0.9629 0.9656
C77 C 0.0549(6) 0.9285(2) 0.9085(3)
O3 O 0.6881(3) 0.86254(13) 0.6229(2)
O4 O 0.9573(3) 0.69256(13) 0.64795(16)
O5 O 0.9429(2) 0.69131(11) 0.73823(14)
O13 O 0.7959(3) 0.91261(13) 0.8810(2)
O14 O 0.7937(3) 0.69475(12) 0.82042(17)
O15 O 0.6500(3) 0.70510(13) 0.8020(2)
O28 O 0.0586(4) 0.88584(17) 0.9393(2)
Tb5 Tb 0.89318(2) 0.64252(2) 0.80521(2)
Tb14 Tb 0.58516(2) 0.63078(2) 0.79299(2)
C24 C 0.9793(5) 0.0514(3) 0.3855(4)
H14 H 0.9606 0.0819 0.3719
C26 C 0.9390(5) 0.0122(3) 0.3540(3)
H16 H 0.8897 0.0163 0.3207
H34 H 0.9517 0.2438 0.8028
C62 C 0.9910(4) 0.3103(2) 0.8260(3)
H36 H 0.9355 0.3224 0.8230
O27 O 0.9710(2) 0.05875(13) 0.75851(18)
O32 O 0.8830(4) 0.1610(2) 0.6049(3)
H58 H 0.8845 0.1721 0.5714
H59 H 0.8351 0.1457 0.5985
O40 O 0.8500(3) 0.20510(13) 0.6980(2)
O46 O 0.8486(3) 0.12696(15) 0.77956(18)
C27 C 0.9692(4) 0.9677(2) 0.3703(3)
C28 C 0.9301(4) 0.9252(2) 0.3328(3)
C74 C 0.9848(5) 0.9719(3) 0.8212(3)
H42 H 0.9396 0.9746 0.7851
C76 C 0.9915(6) 0.9311(3) 0.8545(3)
H44 H 0.9533 0.9058 0.8404
O9 O 0.8512(3) 0.92894(16) 0.30010(19)
O10 O 0.9758(3) 0.88905(15) 0.33501(18)
Tb11 Tb 0.77976(2) 0.89434(2) 0.21009(2)
C68_2 C 0.3890(4) 0.00184(18) 0.6883(3)
H40_2 H 0.3852 0.0327 0.6735
C70_2 C 0.3312(4) 0.03211(18) 0.7681(2)
C19_2 C 0.2635(4) 0.5709(2) 0.0016(3)
H11_2 H 0.2687 0.5528 0.0357
C22_2 C 0.4517(4) 0.5449(2) 0.0622(3)
C23_2 C 0.4216(4) 0.5008(2) 0.0441(3)
H13_2 H 0.3754 0.4966 0.0089
C24_2 C 0.5207(5) 0.5514(3) 0.1145(4)
H14_2 H 0.5394 0.5819 0.1281
C25_2 C 0.4600(4) 0.4620(2) 0.0785(3)
H15_2 H 0.4380 0.4317 0.0670
C26_2 C 0.5610(5) 0.5122(3) 0.1460(3)
H16_2 H 0.6103 0.5163 0.1793
C27_2 C 0.5308(4) 0.4677(2) 0.1297(3)
C28_2 C 0.5699(4) 0.4252(2) 0.1672(3)
H54_2 H 0.1377 0.7253 0.0035
O8_2 O 0.4209(3) 0.58623(16) 0.0312(2)
O9_2 O 0.6488(3) 0.42894(16) 0.19990(19)
O10_2 O 0.5242(3) 0.38905(15) 0.16499(18)
Tb15 Tb 0.41484(2) 0.36922(2) 0.20701(2)
C15_2 C 0.0841(4) 0.61689(18) 0.8665(2)
C16_2 C 0.1725(4) 0.60663(19) 0.9102(2)
C17_2 C 0.1807(4) 0.5797(2) 0.9607(2)
H9_2 H 0.1306 0.5673 0.9676
C18_2 C 0.2471(4) 0.6235(2) 0.9005(3)
H10_2 H 0.2422 0.6409 0.8659
C20_2 C 0.3307(4) 0.6154(2) 0.9409(3)
H12_2 H 0.3808 0.6276 0.9338
C21_2 C 0.3370(4) 0.5890(2) 0.9911(3)
C43_2 C 0.1470(4) 0.62002(19) 0.5979(2)
C44_2 C 0.0872(4) 0.62745(19) 0.5365(2)
C45_2 C 0.0162(4) 0.6568(2) 0.5242(3)
H25_2 H 0.0004 0.6711 0.5553
C46_2 C 0.1073(4) 0.6043(2) 0.4896(3)
H26_2 H 0.1549 0.5835 0.4981
C48_2 C 0.0580(4) 0.6117(2) 0.4315(3)
H28_2 H 0.0706 0.5954 0.4006
C57_2 C 0.4081(4) 0.69401(18) 0.6986(2)
C58_2 C 0.4180(4) 0.74441(17) 0.6807(2)
C59_2 C 0.3467(4) 0.7735(2) 0.6622(3)
H33_2 H 0.2907 0.7611 0.6571
C60_2 C 0.4989(4) 0.7633(2) 0.6856(3)
H34_2 H 0.5483 0.7438 0.6972
C61_2 C 0.3560(5) 0.8213(2) 0.6510(3)
H35_2 H 0.3068 0.8409 0.6388
C62_2 C 0.5090(4) 0.8103(2) 0.6740(3)
H36_2 H 0.5645 0.8224 0.6770
C63_2 C 0.4372(5) 0.83905(18) 0.6580(3)
C64_2 C 0.4218(4) 0.92115(19) 0.6801(3)
C65_2 C 0.4086(5) 0.9124(2) 0.7335(3)
H37_2 H 0.4187 0.8823 0.7504
C66_2 C 0.4154(4) 0.96641(18) 0.6578(3)
H38_2 H 0.4288 0.9729 0.6226
C67_2 C 0.3799(5) 0.94856(19) 0.7627(3)
H39_2 H 0.3684 0.9422 0.7986
C69_2 C 0.3679(4) 0.99371(17) 0.7397(2)
C71_2 C 0.4614(4) 0.55091(19) 0.6989(3)
C72_2 C 0.4576(4) 0.5082(2) 0.6604(3)
C73_2 C 0.3930(5) 0.5045(2) 0.6070(3)
H41_2 H 0.3521 0.5288 0.5941
C74_2 C 0.5152(5) 0.4719(3) 0.6788(3)
H42_2 H 0.5604 0.4746 0.7149
C75_2 C 0.3882(6) 0.4648(2) 0.5718(3)
H43_2 H 0.3457 0.4629 0.5344
C76_2 C 0.5085(6) 0.4311(3) 0.6455(3)
H44_2 H 0.5467 0.4058 0.6596
C77_2 C 0.4451(6) 0.4285(2) 0.5915(3)
C78_2 C 0.4021(7) 0.3849(3) 0.4984(3)
C79_2 C 0.3153(6) 0.3729(2) 0.4744(3)
H45_2 H 0.2801 0.3680 0.4991
C80_2 C 0.4531(6) 0.3936(3) 0.4640(4)
H46 H 0.5111 0.4034 0.4813
C81_2 C 0.2802(5) 0.3680(2) 0.4122(3)
H47_2 H 0.2212 0.3600 0.3952
C82_2 C 0.4195(5) 0.3881(3) 0.4017(3)
H48_2 H 0.4556 0.3933 0.3778
C83_2 C 0.3330(4) 0.3750(2) 0.3760(3)
C84_2 C 0.2959(4) 0.36962(19) 0.3089(2)
C85_2 C 0.0446(6) 0.7261(3) 0.8751(5)
H49_2 H 0.0598 0.7288 0.8399
C86_2 C 0.1766(9) 0.7676(5) 0.9239(6)
H50_2 H 0.1725 0.7849 0.8878
H51_2 H 0.2225 0.7443 0.9306
H52_2 H 0.1901 0.7893 0.9572
C87_2 C 0.0831(9) 0.7351(6) 0.9751(6)
H53_2 H 0.0619 0.7631 0.9896
H55_2 H 0.0404 0.7101 0.9701
N1_2 N 0.0967(5) 0.7452(3) 0.9184(4)
O6_2 O 0.0157(2) 0.60245(14) 0.87616(16)
O7_2 O 0.0813(2) 0.64139(12) 0.82081(15)
O16_2 O 0.1289(2) 0.63831(12) 0.64283(15)
O17_2 O 0.2153(3) 0.59636(14) 0.60542(16)
O21_2 O 0.3321(2) 0.67694(12) 0.68451(17)
O22_2 O 0.4759(3) 0.67274(13) 0.72755(18)
O23_2 O 0.4497(3) 0.88690(12) 0.6465(2)
O26_2 O 0.3934(3) 0.57658(13) 0.68593(17)
O27_2 O 0.5290(2) 0.55875(13) 0.74149(18)
O28_2 O 0.4414(4) 0.38584(17) 0.5607(2)
O29_2 O 0.2156(2) 0.36290(14) 0.28783(15)
O30_2 O 0.3486(3) 0.37304(15) 0.27956(18)
O32_2 O 0.6170(4) 0.6610(2) 0.8951(3)
H58_2 H 0.6155 0.6721 0.9286
H59_2 H 0.6649 0.6457 0.9015
O34 O 0.6903(3) 0.57773(13) 0.84133(18)
O37_2 O 0.3512(3) 0.57106(16) 0.80010(19)
O38_2 O 0.4758(3) 0.61095(15) 0.83501(18)
O41_2 O 0.1243(2) 0.71840(12) 0.73868(18)
O42_2 O 0.2266(2) 0.66352(11) 0.76269(14)
O46_2 O 0.6514(3) 0.62696(15) 0.72044(18)
Tb6_2 Tb 0.10682(2) 0.35748(2) 0.19479(2)
C1_2 C 0.7601(4) 0.5587(2) 0.8387(3)
C2_2 C 0.7700(3) 0.50633(18) 0.8472(2)
C3_2 C 0.6974(4) 0.47640(19) 0.8371(2)
H1_2 H 0.6409 0.4891 0.8254
C4_2 C 0.8540(4) 0.48673(18) 0.8657(2)
H2_2 H 0.9031 0.5063 0.8725
C5_2 C 0.7089(4) 0.42795(19) 0.8442(2)
H3_2 H 0.6602 0.4079 0.8358
C6_2 C 0.8648(4) 0.43834(18) 0.8741(3)
H4_2 H 0.9210 0.4253 0.8870
C7_2 C 0.7921(4) 0.40959(18) 0.8635(3)
C8_2 C 0.7472(4) 0.3278(2) 0.8600(3)
C9_2 C 0.7171(5) 0.3081(3) 0.9015(3)
H5_2 H 0.7339 0.3204 0.9402
C10_2 C 0.7203(5) 0.3119(2) 0.8031(3)
H6_2 H 0.7385 0.3269 0.7736
C11_2 C 0.6607(5) 0.2693(2) 0.8875(3)
H7_2 H 0.6399 0.2557 0.9167
C12_2 C 0.6648(4) 0.2726(2) 0.7889(3)
H8_2 H 0.6476 0.2611 0.7497
C13_2 C 0.6356(4) 0.25083(18) 0.8300(2)
C14_2 C 0.5764(3) 0.20896(17) 0.8148(2)
C29_2 C 0.9293(3) 0.57023(18) 0.6891(3)
C30_2 C 0.8674(3) 0.52885(17) 0.6719(2)
C31_2 C 0.8503(4) 0.5009(2) 0.7148(3)
H17_2 H 0.8736 0.5088 0.7552
C32_2 C 0.8300(4) 0.51784(19) 0.6128(3)
H18_2 H 0.8403 0.5371 0.5834
C33_2 C 0.7980(5) 0.4604(2) 0.6981(3)
H19_2 H 0.7877 0.4407 0.7272
C34_2 C 0.7622(4) 0.45023(18) 0.6388(3)
C35_2 C 0.7773(4) 0.47859(19) 0.5965(3)
H20_2 H 0.7518 0.4714 0.5561
C36_2 C 0.7271(4) 0.36698(18) 0.6378(2)
C37_2 C 0.6572(4) 0.33503(18) 0.6240(2)
H21_2 H 0.6003 0.3456 0.6046
C38_2 C 0.8115(4) 0.35125(19) 0.6654(2)
H22_2 H 0.8581 0.3727 0.6751
C39_2 C 0.6722(4) 0.28797(17) 0.6388(2)
H23_2 H 0.6250 0.2669 0.6304
C40_2 C 0.7577(4) 0.27123(17) 0.6666(2)
C41_2 C 0.8269(4) 0.30349(19) 0.6786(2)
H24_2 H 0.8843 0.2929 0.6958
C42_2 C 0.7731(4) 0.22029(19) 0.6832(2)
C47_2 C 0.9672(5) 0.6655(3) 0.4649(3)
H27_2 H 0.9191 0.6860 0.4559
C49_2 C 0.9907(5) 0.6431(2) 0.4192(3)
C50_2 C 0.8870(7) 0.6858(3) 0.3402(3)
C51_2 C 0.9150(5) 0.7316(3) 0.3456(3)
H29_2 H 0.9733 0.7389 0.3663
C52_2 C 0.8009(6) 0.6731(2) 0.3107(3)
H30_2 H 0.7832 0.6415 0.3082
C53_2 C 0.8561(4) 0.7673(2) 0.3200(2)
H31_2 H 0.8745 0.7988 0.3228
C54_2 C 0.7420(5) 0.7086(2) 0.2852(3)
H32_2 H 0.6839 0.7010 0.2645
C55_2 C 0.7690(4) 0.75578(19) 0.2901(2)
C56_2 C 0.7032(4) 0.79325(18) 0.2615(2)
O2_2 O 0.8230(3) 0.58052(13) 0.8293(2)
O3_2 O 0.8119(3) 0.36254(13) 0.8771(2)
O11_2 O 0.9482(2) 0.58808(11) 0.74255(15)
O12_2 O 0.9633(2) 0.58640(13) 0.65205(16)
O13_2 O 0.7041(3) 0.41261(13) 0.6190(2)
O18_2 O 0.9454(5) 0.6482(2) 0.3603(2)
O19_2 O 0.6243(2) 0.78160(12) 0.23868(18)
O20_2 O 0.7266(2) 0.83648(11) 0.26269(14)
O31_2 O 0.8825(7) 0.6384(4) 0.9184(5)
H56_2 H 0.9128 0.6129 0.9243
H57_2 H 0.9183 0.6616 0.9257
O33_2 O 0.9773(3) 0.70431(16) 0.8691(2)
O45_2 O 0.7844(2) 0.63710(14) 0.71217(15)
Tb9_2 Tb 0.56013(2) 0.85921(2) 0.21878(2)
C27_3 C 0.0308(4) 0.0323(2) 0.6297(3)
C28_3 C 0.0699(4) 0.0748(2) 0.6672(3)
C74_3 C 0.0152(5) 0.0281(3) 0.1788(3)
H42_3 H 0.0604 0.0254 0.2149
C76_3 C 0.0085(6) 0.0689(3) 0.1455(3)
H44_3 H 0.0467 0.0942 0.1596
C24_3 C 0.0207(5) 0.9486(3) 0.6145(4)
H14_3 H 0.0394 0.9181 0.6281
C26_3 C 0.0610(5) 0.9878(3) 0.6460(3)
H16_3 H 0.1103 0.9837 0.6793
H34_3 H 0.0483 0.7562 0.1972
C62_3 C 0.0090(4) 0.6897(2) 0.1740(3)
H36_3 H 0.0645 0.6776 0.1770
O27_3 O 0.0290(2) 0.94125(13) 0.24149(18)
O32_3 O 0.1170(4) 0.8390(2) 0.3951(3)
H58_3 H 0.1155 0.8279 0.4286
H59_3 H 0.1649 0.8543 0.4015
O34_2 O 0.1903(3) 0.92227(13) 0.34133(18)
O40_2 O 0.1500(3) 0.79490(13) 0.3020(2)
C3_3 C 0.1974(4) 0.02360(19) 0.3371(2)
H1_3 H 0.1409 0.0109 0.3254
C4_3 C 0.3540(4) 0.01327(18) 0.3657(2)
C5_3 C 0.2089(4) 0.07205(19) 0.3442(2)
H3_3 H 0.1602 0.0921 0.3358
C6_3 C 0.3648(4) 0.06166(18) 0.3741(3)
H4_3 H 0.4210 0.0747 0.3870
C7_3 C 0.2921(4) 0.09041(18) 0.3635(3)
C8_3 C 0.2472(4) 0.1722(2) 0.3600(3)
C9_3 C 0.2171(5) 0.1919(3) 0.4015(3)
H5_3 H 0.2339 0.1796 0.4402
C10_3 C 0.2203(5) 0.1881(2) 0.3031(3)
H6_3 H 0.2385 0.1731 0.2736
C11_3 C 0.1607(5) 0.2307(2) 0.3875(3)
H7_3 H 0.1399 0.2443 0.4167
C12_3 C 0.1648(4) 0.2274(2) 0.2889(3)
H8_3 H 0.1476 0.2389 0.2497
C13_3 C 0.1356(4) 0.24917(18) 0.3300(2)
C14_3 C 0.0764(3) 0.29104(17) 0.3148(2)
H13_3 H 0.8754 0.0034 0.5089
C25_3 C 0.9600(4) 0.0380(2) 0.5785(3)
H15_3 H 0.9380 0.0683 0.5670
C33_3 C 0.2980(5) 0.0396(2) 0.1981(3)
H19_3 H 0.2877 0.0593 0.2272
C34_3 C 0.2622(4) 0.04977(18) 0.1388(3)
C35_3 C 0.2773(4) 0.02141(19) 0.0965(3)
H20_3 H 0.2518 0.0286 0.0561
C36_3 C 0.2271(4) 0.13302(18) 0.1378(2)
C37_3 C 0.1572(4) 0.16497(18) 0.1240(2)
H21_3 H 0.1003 0.1544 0.1046
C38_3 C 0.3115(4) 0.14875(19) 0.1654(2)
H22_3 H 0.3581 0.1273 0.1751
C39_3 C 0.1722(4) 0.21203(17) 0.1388(2)
H23_3 H 0.1250 0.2331 0.1304
C40_3 C 0.2577(4) 0.22877(17) 0.1666(2)
C41_3 C 0.3269(4) 0.19651(19) 0.1786(2)
H24_3 H 0.3843 0.2071 0.1958
C42_3 C 0.2731(4) 0.27971(19) 0.1832(2)
C75_3 C 0.8882(6) 0.0352(2) 0.0718(3)
H43_3 H 0.8457 0.0371 0.0344
C77_3 C 0.9451(6) 0.0715(2) 0.0915(3)
O3_3 O 0.3119(3) 0.13746(13) 0.3771(2)
O4_2 O 0.0427(3) 0.30744(13) 0.35205(16)
O5_2 O 0.0571(2) 0.30869(11) 0.26177(14)
O13_3 O 0.2041(3) 0.08739(13) 0.1190(2)
O14_2 O 0.2063(3) 0.30525(12) 0.17958(17)
O15_2 O 0.3500(3) 0.29490(13) 0.1980(2)
O28_3 O 0.9414(4) 0.11416(17) 0.0607(2)
C78_3 C 0.9021(7) 0.1151(3) 0.9984(3)
C79_3 C 0.8153(6) 0.1271(2) 0.9744(3)
H45_3 H 0.7801 0.1320 0.9991
C80_3 C 0.9531(6) 0.1064(3) 0.9640(4)
C81_3 C 0.7802(5) 0.1320(2) 0.9122(3)
H47_3 H 0.7212 0.1400 0.8952
C82_3 C 0.9195(5) 0.1119(3) 0.9017(3)
H48_3 H 0.9556 0.1067 0.8778
C83_3 C 0.8330(4) 0.1250(2) 0.8760(3)
C84_3 C 0.7959(4) 0.13038(19) 0.8089(2)
C1_3 C 0.2601(4) 0.9413(2) 0.3387(3)
C2_3 C 0.2700(3) 0.99367(18) 0.3472(2)
H2_3 H 0.4031 0.9937 0.3725
C15_3 C 0.5841(4) 0.88311(18) 0.3665(2)
C16_3 C 0.6725(4) 0.89337(19) 0.4102(2)
C17_3 C 0.6807(4) 0.9203(2) 0.4607(2)
H9_3 H 0.6306 0.9327 0.4676
C18_3 C 0.7471(4) 0.8765(2) 0.4005(3)
H10_3 H 0.7422 0.8591 0.3659
C19_3 C 0.7635(4) 0.9291(2) 0.5016(3)
H11_3 H 0.7687 0.9472 0.5357
C20_3 C 0.8307(4) 0.8846(2) 0.4409(3)
H12_3 H 0.8808 0.8724 0.4338
C21_3 C 0.8370(4) 0.9110(2) 0.4911(3)
C22_3 C 0.9517(4) 0.9551(2) 0.5622(3)
C23_3 C 0.9216(4) 0.9992(2) 0.5441(3)
C29_3 C 0.4293(3) 0.92977(18) 0.1891(3)
C30_3 C 0.3674(3) 0.97115(17) 0.1719(2)
C31_3 C 0.3503(4) 0.9991(2) 0.2148(3)
H17_3 H 0.3736 0.9912 0.2552
C32_3 C 0.3300(4) 0.98216(19) 0.1128(3)
H18_3 H 0.3403 0.9629 0.0834
C43_3 C 0.6470(4) 0.87998(19) 0.0979(2)
C44_3 C 0.5872(4) 0.87255(19) 0.0365(2)
C45_3 C 0.5162(4) 0.8432(2) 0.0242(3)
H25_3 H 0.5004 0.8289 0.0553
C57_3 C 0.9081(4) 0.80599(18) 0.1986(2)
C58_3 C 0.9180(4) 0.75559(17) 0.1807(2)
C59_3 C 0.8467(4) 0.7265(2) 0.1622(3)
H33_3 H 0.7907 0.7389 0.1571
C60_3 C 0.9989(4) 0.7367(2) 0.1856(3)
C61_3 C 0.8560(5) 0.6787(2) 0.1510(3)
H35_3 H 0.8068 0.6591 0.1388
C63_3 C 0.9372(5) 0.66095(18) 0.1580(3)
C64_3 C 0.9218(4) 0.57885(19) 0.1801(3)
C65_3 C 0.9086(5) 0.5876(2) 0.2335(3)
H37_3 H 0.9187 0.6177 0.2504
C66_3 C 0.9154(4) 0.53359(18) 0.1578(3)
H38_3 H 0.9288 0.5271 0.1226
C67_3 C 0.8799(5) 0.55144(19) 0.2627(3)
H39_3 H 0.8684 0.5578 0.2986
C68_3 C 0.8890(4) 0.49816(18) 0.1883(3)
H40_3 H 0.8852 0.4673 0.1735
C69_3 C 0.8679(4) 0.50629(17) 0.2397(2)
C70_3 C 0.8312(4) 0.46789(18) 0.2681(2)
C71_3 C 0.9614(4) 0.94909(19) 0.1989(3)
C72_3 C 0.9576(4) 0.9918(2) 0.1604(3)
C73_3 C 0.8930(5) 0.9955(2) 0.1070(3)
H41_3 H 0.8521 0.9712 0.0941
C85_3 C 0.5446(6) 0.7739(3) 0.3751(5)
H49_3 H 0.5598 0.7712 0.3399
C86_3 C 0.6766(9) 0.7324(5) 0.4239(6)
H50_3 H 0.6725 0.7151 0.3878
H51_3 H 0.7225 0.7557 0.4306
H52_3 H 0.6901 0.7107 0.4572
C87_3 C 0.5831(9) 0.7649(6) 0.4751(6)
H53_3 H 0.5619 0.7369 0.4896
H54_3 H 0.6377 0.7747 0.5035
H55_3 H 0.5404 0.7899 0.4701
N1_3 N 0.5967(5) 0.7548(3) 0.4184(4)
O2_3 O 0.3230(3) 0.91948(13) 0.3293(2)
O6_3 O 0.5157(2) 0.89755(14) 0.37616(16)
O7_3 O 0.5813(2) 0.85861(12) 0.32081(15)
O8_3 O 0.9209(3) 0.91377(16) 0.5312(2)
O11_3 O 0.4482(2) 0.91192(11) 0.24255(15)
O12_3 O 0.4633(2) 0.91360(13) 0.15205(16)
O16_3 O 0.6289(2) 0.86169(12) 0.14283(15)
O17_3 O 0.7153(3) 0.90364(14) 0.10542(16)
O21_3 O 0.8321(2) 0.82306(12) 0.18451(17)
O22_3 O 0.9759(3) 0.82726(13) 0.22755(18)
O23_3 O 0.9497(3) 0.61310(12) 0.1465(2)
O24_2 O 0.7835(3) 0.47691(12) 0.29976(18)
O25_2 O 0.8465(2) 0.42512(11) 0.25676(15)
O26_3 O 0.8934(3) 0.92342(13) 0.18593(17)
O31_3 O 0.3825(7) 0.8616(4) 0.4184(5)
H56_3 H 0.4128 0.8871 0.4243
H57_3 H 0.4183 0.8384 0.4257
O33_3 O 0.4773(3) 0.79569(16) 0.3691(2)
O35_2 O 0.4573(3) 0.80744(13) 0.14795(16)
O36_2 O 0.4429(2) 0.80869(11) 0.23823(14)
O39_2 O 0.2937(3) 0.80525(12) 0.32042(17)
O43_2 O 0.7165(3) 0.97691(12) 0.20024(18)
O44_2 O 0.6535(2) 0.92512(11) 0.24324(15)
C46_3 C 0.6073(4) 0.8957(2) 0.9896(3)
H26_3 H 0.6549 0.9165 0.9981
C47_3 C 0.4672(5) 0.8345(3) 0.9649(3)
H27_3 H 0.4191 0.8140 0.9559
C48_3 C 0.5580(4) 0.8883(2) 0.9315(3)
H28_3 H 0.5706 0.9046 0.9006
C49_3 C 0.4907(5) 0.8569(2) 0.9192(3)
C50_3 C 0.3870(7) 0.8142(3) 0.8402(3)
C51_3 C 0.4150(5) 0.7684(3) 0.8456(3)
H29_3 H 0.4733 0.7611 0.8663
C52_3 C 0.3009(6) 0.8269(2) 0.8107(3)
H30_3 H 0.2832 0.8585 0.8082
C53_3 C 0.3561(4) 0.7327(2) 0.8200(2)
H31_3 H 0.3745 0.7012 0.8228
C54_3 C 0.2420(5) 0.7914(2) 0.7852(3)
H32_3 H 0.1839 0.7990 0.7645
C55_3 C 0.2690(4) 0.74422(19) 0.7901(2)
C56_3 C 0.2032(4) 0.70675(18) 0.7615(2)
O18_3 O 0.4454(5) 0.8518(2) 0.8603(2)
C1_4 C 0.2399(4) 0.4413(2) 0.1613(3)
C2_4 C 0.2300(3) 0.49367(18) 0.1528(2)
C3_4 C 0.3026(4) 0.52360(19) 0.1629(2)
H1_4 H 0.3591 0.5109 0.1746
C4_4 C 0.1460(4) 0.51327(18) 0.1343(2)
H2_4 H 0.0969 0.4937 0.1275
C5_4 C 0.2911(4) 0.57205(19) 0.1558(2)
H3_4 H 0.3398 0.5921 0.1642
C6_4 C 0.1352(4) 0.56166(18) 0.1259(3)
H4_4 H 0.0790 0.5747 0.1130
C7_4 C 0.2079(4) 0.59041(18) 0.1365(3)
C8_4 C 0.2528(4) 0.6722(2) 0.1400(3)
C9_4 C 0.2829(5) 0.6919(3) 0.0985(3)
H5_4 H 0.2661 0.6796 0.0598
C10_4 C 0.2797(5) 0.6881(2) 0.1969(3)
H6_4 H 0.2615 0.6731 0.2264
C11_4 C 0.3393(5) 0.7307(2) 0.1125(3)
H7_4 H 0.3601 0.7443 0.0833
C12_4 C 0.3352(4) 0.7274(2) 0.2111(3)
H8_4 H 0.3524 0.7389 0.2503
C13_4 C 0.3644(4) 0.74917(18) 0.1700(2)
C14_4 C 0.4236(3) 0.79104(17) 0.1852(2)
C29_4 C 0.0707(3) 0.42977(18) 0.3109(3)
C30_4 C 0.1326(3) 0.47115(17) 0.3281(2)
C31_4 C 0.1497(4) 0.4991(2) 0.2852(3)
H17_4 H 0.1264 0.4912 0.2448
C32_4 C 0.1700(4) 0.48216(19) 0.3872(3)
H18_4 H 0.1597 0.4629 0.4166
C33_4 C 0.2020(5) 0.5396(2) 0.3019(3)
H19_4 H 0.2123 0.5593 0.2728
C34_4 C 0.2378(4) 0.54977(18) 0.3612(3)
C35_4 C 0.2227(4) 0.52141(19) 0.4035(3)
H20_4 H 0.2482 0.5286 0.4439
C36_4 C 0.2729(4) 0.63302(18) 0.3622(2)
C37_4 C 0.3428(4) 0.66497(18) 0.3760(2)
H21_4 H 0.3997 0.6544 0.3954
C38_4 C 0.1885(4) 0.64875(19) 0.3346(2)
H22_4 H 0.1419 0.6273 0.3249
C39_4 C 0.3278(4) 0.71203(17) 0.3612(2)
H23_4 H 0.3750 0.7331 0.3696
C40_4 C 0.2423(4) 0.72877(17) 0.3334(2)
C41_4 C 0.1731(4) 0.69651(19) 0.3214(2)
H24_4 H 0.1157 0.7071 0.3042
C42_4 C 0.2269(4) 0.77971(19) 0.3168(2)
C47_4 C 0.0328(5) 0.3345(3) 0.5351(3)
H27_4 H 0.0809 0.3140 0.5441
C49_4 C 0.0093(5) 0.3569(2) 0.5808(3)
C50_4 C 0.1130(7) 0.3142(3) 0.6598(3)
C51_4 C 0.0850(5) 0.2684(3) 0.6544(3)
H29_4 H 0.0267 0.2611 0.6337
C52_4 C 0.1991(6) 0.3269(2) 0.6893(3)
H30_4 H 0.2168 0.3585 0.6918
C53_4 C 0.1439(4) 0.2327(2) 0.6800(2)
H31_4 H 0.1255 0.2012 0.6772
C54_4 C 0.2580(5) 0.2914(2) 0.7148(3)
H32_4 H 0.3161 0.2990 0.7355
C55_4 C 0.2310(4) 0.24422(19) 0.7099(2)
C56_4 C 0.2968(4) 0.20675(18) 0.7385(2)
O1_2 O 0.3097(3) 0.42227(13) 0.15867(18)
O2_4 O 0.1770(3) 0.41948(13) 0.1707(2)
O3_4 O 0.1881(3) 0.63746(13) 0.1229(2)
O11_4 O 0.0518(2) 0.41192(11) 0.25745(15)
O12_4 O 0.0367(2) 0.41360(13) 0.34795(16)
O13_4 O 0.2959(3) 0.58739(13) 0.3810(2)
O18_4 O 0.0546(5) 0.3518(2) 0.6397(2)
O31_4 O 0.1175(7) 0.3616(4) 0.0816(5)
H56_4 H 0.0872 0.3871 0.0757
H57_4 H 0.0817 0.3384 0.0743
O33_4 O 0.0227(3) 0.29569(16) 0.1309(2)
C15_4 C 0.9159(4) 0.38311(18) 0.1335(2)
C16_4 C 0.8275(4) 0.39337(19) 0.0898(2)
C17_4 C 0.8193(4) 0.4203(2) 0.0393(2)
H9_4 H 0.8694 0.4327 0.0324
C18_4 C 0.7529(4) 0.3765(2) 0.0995(3)
H10_4 H 0.7578 0.3591 0.1341
C20_4 C 0.6693(4) 0.3846(2) 0.0591(3)
H12_4 H 0.6192 0.3724 0.0662
C21_4 C 0.6630(4) 0.4110(2) 0.0089(3)
C43_4 C 0.8530(4) 0.37998(19) 0.4021(2)
C44_4 C 0.9128(4) 0.37255(19) 0.4635(2)
C45_4 C 0.9838(4) 0.3432(2) 0.4758(3)
H25_4 H 0.9996 0.3289 0.4447
C46_4 C 0.8927(4) 0.3957(2) 0.5104(3)
H26_4 H 0.8451 0.4165 0.5019
C48_4 C 0.9420(4) 0.3883(2) 0.5685(3)
H28_4 H 0.9294 0.4046 0.5994
C57_4 C 0.5919(4) 0.30599(18) 0.3014(2)
C58_4 C 0.5820(4) 0.25559(17) 0.3193(2)
C59_4 C 0.6533(4) 0.2265(2) 0.3378(3)
H33_4 H 0.7093 0.2389 0.3429
C60_4 C 0.5011(4) 0.2367(2) 0.3144(3)
H34_4 H 0.4517 0.2562 0.3028
C61_4 C 0.6440(5) 0.1787(2) 0.3490(3)
H35_4 H 0.6932 0.1591 0.3612
C62_4 C 0.4910(4) 0.1897(2) 0.3260(3)
H36_4 H 0.4355 0.1776 0.3230
C63_4 C 0.5628(5) 0.16095(18) 0.3420(3)
C64_4 C 0.5782(4) 0.07885(19) 0.3199(3)
C65_4 C 0.5914(5) 0.0876(2) 0.2665(3)
H37_4 H 0.5813 0.1177 0.2496
C66_4 C 0.5846(4) 0.03359(18) 0.3422(3)
H38_4 H 0.5712 0.0271 0.3774
C67_4 C 0.6201(5) 0.05144(19) 0.2373(3)
H39_4 H 0.6316 0.0578 0.2014
C69_4 C 0.6321(4) 0.00629(17) 0.2603(2)
C71_4 C 0.5386(4) 0.44909(19) 0.3011(3)
C72_4 C 0.5424(4) 0.4918(2) 0.3396(3)
C73_4 C 0.6070(5) 0.4955(2) 0.3930(3)
H41_4 H 0.6479 0.4712 0.4059
C74_4 C 0.4848(5) 0.5281(3) 0.3212(3)
H42_4 H 0.4396 0.5254 0.2851
C75_4 C 0.6118(6) 0.5352(2) 0.4282(3)
H43_4 H 0.6543 0.5371 0.4656
C76_4 C 0.4915(6) 0.5689(3) 0.3545(3)
H44_4 H 0.4533 0.5942 0.3404
C77_4 C 0.5549(6) 0.5715(2) 0.4085(3)
C78_4 C 0.5979(7) 0.6151(3) 0.5016(3)
C79_4 C 0.6847(6) 0.6271(2) 0.5256(3)
H45_4 H 0.7199 0.6320 0.5009
C80_4 C 0.5469(6) 0.6064(3) 0.5360(4)
H46_2 H 0.4889 0.5966 0.5187
C81_4 C 0.7198(5) 0.6320(2) 0.5878(3)
H47_4 H 0.7788 0.6400 0.6048
C82_4 C 0.5805(5) 0.6119(3) 0.5983(3)
H48_4 H 0.5444 0.6067 0.6222
C83_4 C 0.6670(4) 0.6250(2) 0.6240(3)
C84_4 C 0.7041(4) 0.63038(19) 0.6911(2)
C85_4 C 0.9554(6) 0.2739(3) 0.1249(5)
H49_4 H 0.9402 0.2712 0.1601
C86_4 C 0.8234(9) 0.2324(5) 0.0761(6)
H50_4 H 0.8275 0.2151 0.1122
H51_4 H 0.7775 0.2557 0.0694
H52_4 H 0.8099 0.2107 0.0428
C87_4 C 0.9169(9) 0.2649(6) 0.0249(6)
H53_4 H 0.9381 0.2369 0.0104
H55_4 H 0.9596 0.2899 0.0299
N1_4 N 0.9033(5) 0.2548(3) 0.0816(4)
O6_4 O 0.9843(2) 0.39755(14) 0.12384(16)
O7_4 O 0.9187(2) 0.35861(12) 0.17919(15)
O16_4 O 0.8711(2) 0.36169(12) 0.35717(15)
O17_4 O 0.7847(3) 0.40364(14) 0.39458(16)
O21_4 O 0.6679(2) 0.32306(12) 0.31549(17)
O22_4 O 0.5241(3) 0.32726(13) 0.27245(18)
O23_4 O 0.5503(3) 0.11310(12) 0.3535(2)
O26_4 O 0.6066(3) 0.42342(13) 0.31407(17)
O27_4 O 0.4710(2) 0.44125(13) 0.25851(18)
O28_4 O 0.5586(4) 0.61416(17) 0.4393(2)
O32_4 O 0.3830(4) 0.3390(2) 0.1049(3)
H58_4 H 0.3845 0.3279 0.0714
H59_4 H 0.3351 0.3543 0.0985
C19_4 C 0.7365(4) 0.4291(2) 0.9984(3)
H11_4 H 0.7313 0.4472 0.9643
C22_4 C 0.5483(4) 0.4551(2) 0.9378(3)
C23_4 C 0.5784(4) 0.4992(2) 0.9559(3)
H13_4 H 0.6246 0.5034 0.9911
C24_4 C 0.4793(5) 0.4486(3) 0.8855(4)
H14_4 H 0.4606 0.4181 0.8719
C25_4 C 0.5400(4) 0.5380(2) 0.9215(3)
H15_4 H 0.5620 0.5683 0.9330
C26_4 C 0.4390(5) 0.4878(3) 0.8540(3)
H16_4 H 0.3897 0.4837 0.8207
C27_4 C 0.4692(4) 0.5323(2) 0.8703(3)
C28_4 C 0.4301(4) 0.5748(2) 0.8328(3)
H54_4 H 0.8623 0.2747 0.9965
O8_4 O 0.5791(3) 0.41377(16) 0.9688(2)
C68_4 C 0.6110(4) 0.99816(18) 0.3117(3)
H40_4 H 0.6148 0.9673 0.3265
C70_4 C 0.6688(4) 0.96789(18) 0.2319(2)
H46_3 H 0.9889 0.9034 0.0187
H46_4 H 0.0111 0.0966 0.9813
loop_
_geom_bond_atom_site_label_1
_geom_bond_atom_site_label_2
_geom_bond_site_symmetry_1
_geom_bond_site_symmetry_2
H26 C46 1_555 1_555
H27 C47 1_555 1_555
C48 C46 1_555 1_555
H28 C48 1_555 1_555
C49 C47 1_555 1_555
C50 C51 1_555 1_555
C51 H29 1_555 1_555
C52 C50 1_555 1_555
H30 C52 1_555 1_555
C53 C51 1_555 1_555
H31 C53 1_555 1_555
C54 C52 1_555 1_555
H32 C54 1_555 1_555
C55 C53 1_555 1_555
C56 C55 1_555 1_555
O18 C49 1_555 1_555
O19 C56 1_555 1_555
O20 C56 1_555 1_555
Tb9 O19 1_555 1_555
Tb12 O20 1_555 1_555
C48 C49 1_555 1_555
C50 O18 1_555 1_555
C54 C55 1_555 1_555
O20 Tb9 1_555 1_555
C1 C2 1_555 1_555
C15 C16 1_555 1_555
C16 C17 1_555 1_555
C17 H9 1_555 1_555
C18 C16 1_555 1_555
H10 C18 1_555 1_555
C19 C17 1_555 1_555
H11 C19 1_555 1_555
C20 C18 1_555 1_555
H12 C20 1_555 1_555
C21 C19 1_555 1_555
C22 C23 1_555 1_555
C29 C30 1_555 1_555
C30 C31 1_555 1_555
C31 H17 1_555 1_555
C32 C30 1_555 1_555
H18 C32 1_555 1_555
C43 C44 1_555 1_555
C44 C45 1_555 1_555
C45 H25 1_555 1_555
C57 C58 1_555 1_555
C58 C59 1_555 1_555
C59 H33 1_555 1_555
C60 C58 1_555 1_555
C61 C59 1_555 1_555
H35 C61 1_555 1_555
C63 C61 1_555 1_555
C64 C65 1_555 1_555
C65 H37 1_555 1_555
C66 C64 1_555 1_555
H38 C66 1_555 1_555
C67 C65 1_555 1_555
H39 C67 1_555 1_555
C68 C66 1_555 1_555
H40 C68 1_555 1_555
C69 C67 1_555 1_555
C70 C69 1_555 1_555
C71 C72 1_555 1_555
C72 C73 1_555 1_555
C73 H41 1_555 1_555
C85 H49 1_555 1_555
C86 H50 1_555 1_555
H51 C86 1_555 1_555
H52 C86 1_555 1_555
C87 H53 1_555 1_555
H54 C87 1_555 1_555
H55 C87 1_555 1_555
N1 C85 1_555 1_555
O1 C1 1_555 1_555
O2 C1 1_555 1_555
O6 C15 1_555 1_555
O7 C15 1_555 1_555
O8 C21 1_555 1_555
O11 C29 1_555 1_555
O12 C29 1_555 1_555
O16 C43 1_555 1_555
O17 C43 1_555 1_555
O21 C57 1_555 1_555
O22 C57 1_555 1_555
O23 C63 1_555 1_555
O24 C70 1_555 1_555
O25 C70 1_555 1_555
O26 C71 1_555 1_555
O31 H56 1_555 1_555
H57 O31 1_555 1_555
O33 C85 1_555 1_555
Tb1 O2 1_555 1_555
Tb2 O7 1_555 1_555
Tb3 O16 1_555 1_555
O35 Tb2 1_555 1_555
O36 Tb1 1_555 1_555
O37 Tb3 1_555 1_555
O39 Tb1 1_555 1_555
O41 Tb2 1_555 1_555
O42 Tb2 1_555 1_555
O43 Tb3 1_555 1_555
O44 Tb2 1_555 1_555
O45 Tb1 1_555 1_555
Tb8 O25 1_555 1_555
Tb10 O24 1_555 1_555
Tb13 O1 1_555 1_555
C20 C21 1_555 1_555
C22 O8 1_555 1_555
C64 O23 1_555 1_555
C68 C69 1_555 1_555
C86 N1 1_555 1_555
C87 N1 1_555 1_555
O6 Tb1 1_555 1_555
O11 Tb1 1_555 1_555
O11 Tb2 1_555 1_555
O12 Tb2 1_555 1_555
O16 Tb2 1_555 1_555
O17 Tb3 1_555 1_555
O21 Tb3 1_555 1_555
O25 Tb10 1_555 1_555
O26 Tb3 1_555 1_555
O31 Tb1 1_555 1_555
O33 Tb1 1_555 1_555
Tb2 O36 1_555 1_555
Tb3 O42 1_555 1_555
Tb3 O44 1_555 1_555
C78 C79 1_555 1_555
C79 H45 1_555 1_555
C80 C78 1_555 1_555
C81 C79 1_555 1_555
H47 C81 1_555 1_555
C82 C80 1_555 1_555
H48 C82 1_555 1_555
C83 C81 1_555 1_555
C84 C83 1_555 1_555
O29 C84 1_555 1_555
O30 C84 1_555 1_555
Tb6 O29 1_555 1_555
Tb16 O30 1_555 1_555
C82 C83 1_555 1_555
C3 H1 1_555 1_555
C5 C3 1_555 1_555
H3 C5 1_555 1_555
C6 C4 1_555 1_555
H4 C6 1_555 1_555
C7 C5 1_555 1_555
C8 C9 1_555 1_555
C9 H5 1_555 1_555
C10 C8 1_555 1_555
H6 C10 1_555 1_555
C11 C9 1_555 1_555
H7 C11 1_555 1_555
C12 C10 1_555 1_555
H8 C12 1_555 1_555
C13 C11 1_555 1_555
C14 C13 1_555 1_555
H15 C25 1_555 1_555
H19 C33 1_555 1_555
C34 C33 1_555 1_555
H20 C35 1_555 1_555
C36 C37 1_555 1_555
C37 H21 1_555 1_555
C38 C36 1_555 1_555
H22 C38 1_555 1_555
C39 C37 1_555 1_555
H23 C39 1_555 1_555
C40 C39 1_555 1_555
C41 C38 1_555 1_555
H24 C41 1_555 1_555
C42 C40 1_555 1_555
H43 C75 1_555 1_555
C77 C75 1_555 1_555
O3 C7 1_555 1_555
O4 C14 1_555 1_555
O5 C14 1_555 1_555
O13 C34 1_555 1_555
O14 C42 1_555 1_555
O15 C42 1_555 1_555
O28 C77 1_555 1_555
Tb5 O5 1_555 1_555
Tb14 O15 1_555 1_555
C6 C7 1_555 1_555
C8 O3 1_555 1_555
C12 C13 1_555 1_555
C34 C35 1_555 1_555
C36 O13 1_555 1_555
C40 C41 1_555 1_555
O14 Tb5 1_555 1_555
H14 C24 1_555 1_555
C26 C24 1_555 1_555
H16 C26 1_555 1_555
H36 C62 1_555 1_555
O32 H58 1_555 1_555
H59 O32 1_555 1_555
O40 Tb13 1_555 1_555
O46 Tb13 1_555 1_555
O27 Tb13 1_555 1_555
O32 Tb13 1_555 1_555
C28 C27 1_555 1_555
H42 C74 1_555 1_555
C76 C74 1_555 1_555
H44 C76 1_555 1_555
O9 C28 1_555 1_555
O10 C28 1_555 1_555
Tb11 O9 1_555 1_555
H40_2 C68_2 1_555 1_555
O43 C70_2 1_555 1_555
O44 C70_2 1_555 1_555
H11_2 C19_2 1_555 1_555
C22_2 C23_2 1_555 1_555
C23_2 H13_2 1_555 1_555
C24_2 C22_2 1_555 1_555
H14_2 C24_2 1_555 1_555
C25_2 C23_2 1_555 1_555
H15_2 C25_2 1_555 1_555
C26_2 C24_2 1_555 1_555
H16_2 C26_2 1_555 1_555
C27_2 C25_2 1_555 1_555
C28_2 C27_2 1_555 1_555
O9_2 C28_2 1_555 1_555
O10_2 C28_2 1_555 1_555
Tb12 O9_2 1_555 1_555
Tb15 O10_2 1_555 1_555
C22_2 O8_2 1_555 1_555
C26_2 C27_2 1_555 1_555
C15_2 C16_2 1_555 1_555
C16_2 C17_2 1_555 1_555
C17_2 H9_2 1_555 1_555
C18_2 C16_2 1_555 1_555
H10_2 C18_2 1_555 1_555
C20_2 C18_2 1_555 1_555
H12_2 C20_2 1_555 1_555
C43_2 C44_2 1_555 1_555
C44_2 C45_2 1_555 1_555
C45_2 H25_2 1_555 1_555
C46_2 C44_2 1_555 1_555
H26_2 C46_2 1_555 1_555
C48_2 C46_2 1_555 1_555
H28_2 C48_2 1_555 1_555
C57_2 C58_2 1_555 1_555
C58_2 C59_2 1_555 1_555
C59_2 H33_2 1_555 1_555
C60_2 C58_2 1_555 1_555
H34_2 C60_2 1_555 1_555
C61_2 C59_2 1_555 1_555
H35_2 C61_2 1_555 1_555
C62_2 C60_2 1_555 1_555
H36_2 C62_2 1_555 1_555
C63_2 C61_2 1_555 1_555
C64_2 C65_2 1_555 1_555
C65_2 H37_2 1_555 1_555
C66_2 C64_2 1_555 1_555
H38_2 C66_2 1_555 1_555
C67_2 C65_2 1_555 1_555
H39_2 C67_2 1_555 1_555
C69_2 C67_2 1_555 1_555
C71_2 C72_2 1_555 1_555
C72_2 C73_2 1_555 1_555
C73_2 H41_2 1_555 1_555
C74_2 C72_2 1_555 1_555
H42_2 C74_2 1_555 1_555
C75_2 C73_2 1_555 1_555
H43_2 C75_2 1_555 1_555
C76_2 C74_2 1_555 1_555
H44_2 C76_2 1_555 1_555
C77_2 C75_2 1_555 1_555
C78_2 C79_2 1_555 1_555
C79_2 H45_2 1_555 1_555
C80_2 C78_2 1_555 1_555
H46 C80_2 1_555 1_555
C81_2 C79_2 1_555 1_555
H47_2 C81_2 1_555 1_555
C82_2 C80_2 1_555 1_555
H48_2 C82_2 1_555 1_555
C83_2 C81_2 1_555 1_555
C84_2 C83_2 1_555 1_555
C85_2 H49_2 1_555 1_555
C86_2 H50_2 1_555 1_555
H51_2 C86_2 1_555 1_555
H52_2 C86_2 1_555 1_555
C87_2 H53_2 1_555 1_555
H55_2 C87_2 1_555 1_555
N1_2 C85_2 1_555 1_555
O6_2 C15_2 1_555 1_555
O7_2 C15_2 1_555 1_555
O16_2 C43_2 1_555 1_555
O17_2 C43_2 1_555 1_555
O21_2 C57_2 1_555 1_555
O22_2 C57_2 1_555 1_555
O23_2 C63_2 1_555 1_555
O26_2 C71_2 1_555 1_555
O27_2 C71_2 1_555 1_555
O28_2 C77_2 1_555 1_555
O29_2 C84_2 1_555 1_555
O30_2 C84_2 1_555 1_555
O32_2 H58_2 1_555 1_555
H59_2 O32_2 1_555 1_555
Tb8 O7_2 1_555 1_555
Tb10 O16_2 1_555 1_555
Tb14 O22_2 1_555 1_555
O34 Tb14 1_555 1_555
O37_2 Tb10 1_555 1_555
O38_2 Tb14 1_555 1_555
O41_2 Tb8 1_555 1_555
O42_2 Tb8 1_555 1_555
O46_2 Tb14 1_555 1_555
Tb6_2 O29_2 1_555 1_555
Tb15 O30_2 1_555 1_555
C20_2 C21_2 1_555 1_555
C62_2 C63_2 1_555 1_555
C64_2 O23_2 1_555 1_555
C76_2 C77_2 1_555 1_555
C78_2 O28_2 1_555 1_555
C82_2 C83_2 1_555 1_555
C86_2 N1_2 1_555 1_555
C87_2 N1_2 1_555 1_555
O16_2 Tb8 1_555 1_555
O17_2 Tb10 1_555 1_555
O21_2 Tb10 1_555 1_555
O26_2 Tb10 1_555 1_555
O27_2 Tb14 1_555 1_555
O32_2 Tb14 1_555 1_555
Tb10 O42_2 1_555 1_555
C1_2 C2_2 1_555 1_555
C2_2 C3_2 1_555 1_555
C3_2 H1_2 1_555 1_555
C4_2 C2_2 1_555 1_555
H2_2 C4_2 1_555 1_555
C5_2 C3_2 1_555 1_555
H3_2 C5_2 1_555 1_555
C6_2 C4_2 1_555 1_555
H4_2 C6_2 1_555 1_555
C7_2 C5_2 1_555 1_555
C8_2 C9_2 1_555 1_555
C9_2 H5_2 1_555 1_555
C10_2 C8_2 1_555 1_555
H6_2 C10_2 1_555 1_555
C11_2 C9_2 1_555 1_555
H7_2 C11_2 1_555 1_555
C12_2 C10_2 1_555 1_555
H8_2 C12_2 1_555 1_555
C13_2 C11_2 1_555 1_555
C14_2 C13_2 1_555 1_555
C29_2 C30_2 1_555 1_555
C30_2 C31_2 1_555 1_555
C31_2 H17_2 1_555 1_555
C32_2 C30_2 1_555 1_555
H18_2 C32_2 1_555 1_555
C33_2 C31_2 1_555 1_555
H19_2 C33_2 1_555 1_555
C34_2 C33_2 1_555 1_555
C35_2 C32_2 1_555 1_555
H20_2 C35_2 1_555 1_555
C36_2 C37_2 1_555 1_555
C37_2 H21_2 1_555 1_555
C38_2 C36_2 1_555 1_555
H22_2 C38_2 1_555 1_555
C39_2 C37_2 1_555 1_555
H23_2 C39_2 1_555 1_555
C40_2 C39_2 1_555 1_555
C41_2 C38_2 1_555 1_555
H24_2 C41_2 1_555 1_555
C42_2 C40_2 1_555 1_555
H27_2 C47_2 1_555 1_555
C49_2 C47_2 1_555 1_555
C50_2 C51_2 1_555 1_555
C51_2 H29_2 1_555 1_555
C52_2 C50_2 1_555 1_555
H30_2 C52_2 1_555 1_555
C53_2 C51_2 1_555 1_555
H31_2 C53_2 1_555 1_555
C54_2 C52_2 1_555 1_555
H32_2 C54_2 1_555 1_555
C55_2 C53_2 1_555 1_555
C56_2 C55_2 1_555 1_555
O34 C1_2 1_555 1_555
O2_2 C1_2 1_555 1_555
O3_2 C7_2 1_555 1_555
O35 C14_2 1_555 1_555
O36 C14_2 1_555 1_555
O11_2 C29_2 1_555 1_555
O12_2 C29_2 1_555 1_555
O13_2 C34_2 1_555 1_555
O39 C42_2 1_555 1_555
O40 C42_2 1_555 1_555
O18_2 C49_2 1_555 1_555
O19_2 C56_2 1_555 1_555
O20_2 C56_2 1_555 1_555
O31_2 H56_2 1_555 1_555
H57_2 O31_2 1_555 1_555
Tb5 O2_2 1_555 1_555
O45_2 Tb5 1_555 1_555
Tb9_2 O19_2 1_555 1_555
Tb11 O20_2 1_555 1_555
C6_2 C7_2 1_555 1_555
C8_2 O3_2 1_555 1_555
C12_2 C13_2 1_555 1_555
C34_2 C35_2 1_555 1_555
C36_2 O13_2 1_555 1_555
C40_2 C41_2 1_555 1_555
C50_2 O18_2 1_555 1_555
C54_2 C55_2 1_555 1_555
O11_2 Tb5 1_555 1_555
O20_2 Tb9_2 1_555 1_555
O31_2 Tb5 1_555 1_555
O33_2 Tb5 1_555 1_555
C28_3 C27_3 1_555 1_555
H42_3 C74_3 1_555 1_555
C76_3 C74_3 1_555 1_555
H44_3 C76_3 1_555 1_555
O37 C28_3 1_555 1_555
O38 C28_3 1_555 1_555
H14_3 C24_3 1_555 1_555
C26_3 C24_3 1_555 1_555
H16_3 C26_3 1_555 1_555
H36_3 C62_3 1_555 1_555
O32_3 H58_3 1_555 1_555
H59_3 O32_3 1_555 1_555
O34_2 Tb16 1_555 1_555
O40_2 Tb16 1_555 1_555
O27_3 Tb16 1_555 1_555
O32_3 Tb16 1_555 1_555
C3_3 H1_3 1_555 1_555
C5_3 C3_3 1_555 1_555
H3_3 C5_3 1_555 1_555
C6_3 C4_3 1_555 1_555
H4_3 C6_3 1_555 1_555
C7_3 C5_3 1_555 1_555
C8_3 C9_3 1_555 1_555
C9_3 H5_3 1_555 1_555
C10_3 C8_3 1_555 1_555
H6_3 C10_3 1_555 1_555
C11_3 C9_3 1_555 1_555
H7_3 C11_3 1_555 1_555
C12_3 C10_3 1_555 1_555
H8_3 C12_3 1_555 1_555
C13_3 C11_3 1_555 1_555
C14_3 C13_3 1_555 1_555
H15_3 C25_3 1_555 1_555
H19_3 C33_3 1_555 1_555
C34_3 C33_3 1_555 1_555
H20_3 C35_3 1_555 1_555
C36_3 C37_3 1_555 1_555
C37_3 H21_3 1_555 1_555
C38_3 C36_3 1_555 1_555
H22_3 C38_3 1_555 1_555
C39_3 C37_3 1_555 1_555
H23_3 C39_3 1_555 1_555
C40_3 C39_3 1_555 1_555
C41_3 C38_3 1_555 1_555
H24_3 C41_3 1_555 1_555
C42_3 C40_3 1_555 1_555
H43_3 C75_3 1_555 1_555
C77_3 C75_3 1_555 1_555
O3_3 C7_3 1_555 1_555
O4_2 C14_3 1_555 1_555
O5_2 C14_3 1_555 1_555
O13_3 C34_3 1_555 1_555
O14_2 C42_3 1_555 1_555
O15_2 C42_3 1_555 1_555
O28_3 C77_3 1_555 1_555
Tb6_2 O5_2 1_555 1_555
Tb15 O15_2 1_555 1_555
C6_3 C7_3 1_555 1_555
C8_3 O3_3 1_555 1_555
C12_3 C13_3 1_555 1_555
C34_3 C35_3 1_555 1_555
C36_3 O13_3 1_555 1_555
C40_3 C41_3 1_555 1_555
O14_2 Tb6_2 1_555 1_555
C78_3 C79_3 1_555 1_555
C79_3 H45_3 1_555 1_555
C80_3 C78_3 1_555 1_555
C81_3 C79_3 1_555 1_555
H47_3 C81_3 1_555 1_555
C82_3 C80_3 1_555 1_555
H48_3 C82_3 1_555 1_555
C83_3 C81_3 1_555 1_555
C84_3 C83_3 1_555 1_555
O45 C84_3 1_555 1_555
O46 C84_3 1_555 1_555
C82_3 C83_3 1_555 1_555
C1_3 C2_3 1_555 1_555
C15_3 C16_3 1_555 1_555
C16_3 C17_3 1_555 1_555
C17_3 H9_3 1_555 1_555
C18_3 C16_3 1_555 1_555
H10_3 C18_3 1_555 1_555
C19_3 C17_3 1_555 1_555
H11_3 C19_3 1_555 1_555
C20_3 C18_3 1_555 1_555
H12_3 C20_3 1_555 1_555
C21_3 C19_3 1_555 1_555
C22_3 C23_3 1_555 1_555
C29_3 C30_3 1_555 1_555
C30_3 C31_3 1_555 1_555
C31_3 H17_3 1_555 1_555
C32_3 C30_3 1_555 1_555
H18_3 C32_3 1_555 1_555
C43_3 C44_3 1_555 1_555
C44_3 C45_3 1_555 1_555
C45_3 H25_3 1_555 1_555
C57_3 C58_3 1_555 1_555
C58_3 C59_3 1_555 1_555
C59_3 H33_3 1_555 1_555
C60_3 C58_3 1_555 1_555
C61_3 C59_3 1_555 1_555
H35_3 C61_3 1_555 1_555
C63_3 C61_3 1_555 1_555
C64_3 C65_3 1_555 1_555
C65_3 H37_3 1_555 1_555
C66_3 C64_3 1_555 1_555
H38_3 C66_3 1_555 1_555
C67_3 C65_3 1_555 1_555
H39_3 C67_3 1_555 1_555
C68_3 C66_3 1_555 1_555
H40_3 C68_3 1_555 1_555
C69_3 C67_3 1_555 1_555
C70_3 C69_3 1_555 1_555
C71_3 C72_3 1_555 1_555
C72_3 C73_3 1_555 1_555
C73_3 H41_3 1_555 1_555
C85_3 H49_3 1_555 1_555
C86_3 H50_3 1_555 1_555
H51_3 C86_3 1_555 1_555
H52_3 C86_3 1_555 1_555
C87_3 H53_3 1_555 1_555
H54_3 C87_3 1_555 1_555
H55_3 C87_3 1_555 1_555
N1_3 C85_3 1_555 1_555
O34_2 C1_3 1_555 1_555
O2_3 C1_3 1_555 1_555
O6_3 C15_3 1_555 1_555
O7_3 C15_3 1_555 1_555
O8_3 C21_3 1_555 1_555
O11_3 C29_3 1_555 1_555
O12_3 C29_3 1_555 1_555
O16_3 C43_3 1_555 1_555
O17_3 C43_3 1_555 1_555
O21_3 C57_3 1_555 1_555
O22_3 C57_3 1_555 1_555
O23_3 C63_3 1_555 1_555
O24_2 C70_3 1_555 1_555
O25_2 C70_3 1_555 1_555
O26_3 C71_3 1_555 1_555
O31_3 H56_3 1_555 1_555
H57_3 O31_3 1_555 1_555
O33_3 C85_3 1_555 1_555
Tb6 O2_3 1_555 1_555
Tb9_2 O7_3 1_555 1_555
Tb11 O16_3 1_555 1_555
O35_2 Tb9_2 1_555 1_555
O36_2 Tb6 1_555 1_555
O39_2 Tb6 1_555 1_555
O43_2 Tb11 1_555 1_555
O44_2 Tb9_2 1_555 1_555
Tb9 O25_2 1_555 1_555
Tb12 O24_2 1_555 1_555
C20_3 C21_3 1_555 1_555
C22_3 O8_3 1_555 1_555
C64_3 O23_3 1_555 1_555
C68_3 C69_3 1_555 1_555
C86_3 N1_3 1_555 1_555
C87_3 N1_3 1_555 1_555
O6_3 Tb6 1_555 1_555
O11_3 Tb6 1_555 1_555
O11_3 Tb9_2 1_555 1_555
O12_3 Tb9_2 1_555 1_555
O16_3 Tb9_2 1_555 1_555
O17_3 Tb11 1_555 1_555
O21_3 Tb11 1_555 1_555
O25_2 Tb12 1_555 1_555
O26_3 Tb11 1_555 1_555
O31_3 Tb6 1_555 1_555
O33_3 Tb6 1_555 1_555
Tb9_2 O36_2 1_555 1_555
Tb11 O44_2 1_555 1_555
H26_3 C46_3 1_555 1_555
H27_3 C47_3 1_555 1_555
C48_3 C46_3 1_555 1_555
H28_3 C48_3 1_555 1_555
C49_3 C47_3 1_555 1_555
C50_3 C51_3 1_555 1_555
C51_3 H29_3 1_555 1_555
C52_3 C50_3 1_555 1_555
H30_3 C52_3 1_555 1_555
C53_3 C51_3 1_555 1_555
H31_3 C53_3 1_555 1_555
C54_3 C52_3 1_555 1_555
H32_3 C54_3 1_555 1_555
C55_3 C53_3 1_555 1_555
C56_3 C55_3 1_555 1_555
O18_3 C49_3 1_555 1_555
O41_2 C56_3 1_555 1_555
O42_2 C56_3 1_555 1_555
C48_3 C49_3 1_555 1_555
C50_3 O18_3 1_555 1_555
C54_3 C55_3 1_555 1_555
C1_4 C2_4 1_555 1_555
C2_4 C3_4 1_555 1_555
C3_4 H1_4 1_555 1_555
C4_4 C2_4 1_555 1_555
H2_4 C4_4 1_555 1_555
C5_4 C3_4 1_555 1_555
H3_4 C5_4 1_555 1_555
C6_4 C4_4 1_555 1_555
H4_4 C6_4 1_555 1_555
C7_4 C5_4 1_555 1_555
C8_4 C9_4 1_555 1_555
C9_4 H5_4 1_555 1_555
C10_4 C8_4 1_555 1_555
H6_4 C10_4 1_555 1_555
C11_4 C9_4 1_555 1_555
H7_4 C11_4 1_555 1_555
C12_4 C10_4 1_555 1_555
H8_4 C12_4 1_555 1_555
C13_4 C11_4 1_555 1_555
C14_4 C13_4 1_555 1_555
C29_4 C30_4 1_555 1_555
C30_4 C31_4 1_555 1_555
C31_4 H17_4 1_555 1_555
C32_4 C30_4 1_555 1_555
H18_4 C32_4 1_555 1_555
C33_4 C31_4 1_555 1_555
H19_4 C33_4 1_555 1_555
C34_4 C33_4 1_555 1_555
C35_4 C32_4 1_555 1_555
H20_4 C35_4 1_555 1_555
C36_4 C37_4 1_555 1_555
C37_4 H21_4 1_555 1_555
C38_4 C36_4 1_555 1_555
H22_4 C38_4 1_555 1_555
C39_4 C37_4 1_555 1_555
H23_4 C39_4 1_555 1_555
C40_4 C39_4 1_555 1_555
C41_4 C38_4 1_555 1_555
H24_4 C41_4 1_555 1_555
C42_4 C40_4 1_555 1_555
H27_4 C47_4 1_555 1_555
C49_4 C47_4 1_555 1_555
C50_4 C51_4 1_555 1_555
C51_4 H29_4 1_555 1_555
C52_4 C50_4 1_555 1_555
H30_4 C52_4 1_555 1_555
C53_4 C51_4 1_555 1_555
H31_4 C53_4 1_555 1_555
C54_4 C52_4 1_555 1_555
H32_4 C54_4 1_555 1_555
C55_4 C53_4 1_555 1_555
C56_4 C55_4 1_555 1_555
O1_2 C1_4 1_555 1_555
O2_4 C1_4 1_555 1_555
O3_4 C7_4 1_555 1_555
O35_2 C14_4 1_555 1_555
O36_2 C14_4 1_555 1_555
O11_4 C29_4 1_555 1_555
O12_4 C29_4 1_555 1_555
O13_4 C34_4 1_555 1_555
O39_2 C42_4 1_555 1_555
O40_2 C42_4 1_555 1_555
O18_4 C49_4 1_555 1_555
O41 C56_4 1_555 1_555
O42 C56_4 1_555 1_555
O31_4 H56_4 1_555 1_555
H57_4 O31_4 1_555 1_555
Tb6_2 O2_4 1_555 1_555
Tb15 O1_2 1_555 1_555
C6_4 C7_4 1_555 1_555
C8_4 O3_4 1_555 1_555
C12_4 C13_4 1_555 1_555
C34_4 C35_4 1_555 1_555
C36_4 O13_4 1_555 1_555
C40_4 C41_4 1_555 1_555
C50_4 O18_4 1_555 1_555
C54_4 C55_4 1_555 1_555
O11_4 Tb6_2 1_555 1_555
O31_4 Tb6_2 1_555 1_555
O33_4 Tb6_2 1_555 1_555
C15_4 C16_4 1_555 1_555
C16_4 C17_4 1_555 1_555
C17_4 H9_4 1_555 1_555
C18_4 C16_4 1_555 1_555
H10_4 C18_4 1_555 1_555
C20_4 C18_4 1_555 1_555
H12_4 C20_4 1_555 1_555
C43_4 C44_4 1_555 1_555
C44_4 C45_4 1_555 1_555
C45_4 H25_4 1_555 1_555
C46_4 C44_4 1_555 1_555
H26_4 C46_4 1_555 1_555
C48_4 C46_4 1_555 1_555
H28_4 C48_4 1_555 1_555
C57_4 C58_4 1_555 1_555
C58_4 C59_4 1_555 1_555
C59_4 H33_4 1_555 1_555
C60_4 C58_4 1_555 1_555
H34_4 C60_4 1_555 1_555
C61_4 C59_4 1_555 1_555
H35_4 C61_4 1_555 1_555
C62_4 C60_4 1_555 1_555
H36_4 C62_4 1_555 1_555
C63_4 C61_4 1_555 1_555
C64_4 C65_4 1_555 1_555
C65_4 H37_4 1_555 1_555
C66_4 C64_4 1_555 1_555
H38_4 C66_4 1_555 1_555
C67_4 C65_4 1_555 1_555
H39_4 C67_4 1_555 1_555
C69_4 C67_4 1_555 1_555
C71_4 C72_4 1_555 1_555
C72_4 C73_4 1_555 1_555
C73_4 H41_4 1_555 1_555
C74_4 C72_4 1_555 1_555
H42_4 C74_4 1_555 1_555
C75_4 C73_4 1_555 1_555
H43_4 C75_4 1_555 1_555
C76_4 C74_4 1_555 1_555
H44_4 C76_4 1_555 1_555
C77_4 C75_4 1_555 1_555
C78_4 C79_4 1_555 1_555
C79_4 H45_4 1_555 1_555
C80_4 C78_4 1_555 1_555
H46_2 C80_4 1_555 1_555
C81_4 C79_4 1_555 1_555
H47_4 C81_4 1_555 1_555
C82_4 C80_4 1_555 1_555
H48_4 C82_4 1_555 1_555
C83_4 C81_4 1_555 1_555
C84_4 C83_4 1_555 1_555
C85_4 H49_4 1_555 1_555
C86_4 H50_4 1_555 1_555
H51_4 C86_4 1_555 1_555
H52_4 C86_4 1_555 1_555
C87_4 H53_4 1_555 1_555
H55_4 C87_4 1_555 1_555
N1_4 C85_4 1_555 1_555
O6_4 C15_4 1_555 1_555
O7_4 C15_4 1_555 1_555
O16_4 C43_4 1_555 1_555
O17_4 C43_4 1_555 1_555
O21_4 C57_4 1_555 1_555
O22_4 C57_4 1_555 1_555
O23_4 C63_4 1_555 1_555
O26_4 C71_4 1_555 1_555
O27_4 C71_4 1_555 1_555
O28_4 C77_4 1_555 1_555
O45_2 C84_4 1_555 1_555
O46_2 C84_4 1_555 1_555
O32_4 H58_4 1_555 1_555
H59_4 O32_4 1_555 1_555
Tb9 O7_4 1_555 1_555
Tb12 O16_4 1_555 1_555
Tb15 O22_4 1_555 1_555
C20_4 C21_4 1_555 1_555
C62_4 C63_4 1_555 1_555
C64_4 O23_4 1_555 1_555
C76_4 C77_4 1_555 1_555
C78_4 O28_4 1_555 1_555
C82_4 C83_4 1_555 1_555
C86_4 N1_4 1_555 1_555
C87_4 N1_4 1_555 1_555
O16_4 Tb9 1_555 1_555
O17_4 Tb12 1_555 1_555
O21_4 Tb12 1_555 1_555
O26_4 Tb12 1_555 1_555
O27_4 Tb15 1_555 1_555
O32_4 Tb15 1_555 1_555
H11_4 C19_4 1_555 1_555
C22_4 C23_4 1_555 1_555
C23_4 H13_4 1_555 1_555
C24_4 C22_4 1_555 1_555
H14_4 C24_4 1_555 1_555
C25_4 C23_4 1_555 1_555
H15_4 C25_4 1_555 1_555
C26_4 C24_4 1_555 1_555
H16_4 C26_4 1_555 1_555
C27_4 C25_4 1_555 1_555
C28_4 C27_4 1_555 1_555
O37_2 C28_4 1_555 1_555
O38_2 C28_4 1_555 1_555
C22_4 O8_4 1_555 1_555
C26_4 C27_4 1_555 1_555
H40_4 C68_4 1_555 1_555
O43_2 C70_4 1_555 1_555
O44_2 C70_4 1_555 1_555

#END
