
###############################################################################
#
# This file contains modified crystal structure data generated from the
# MOF subset of the Cambridge Structural Database (CSD) v543 
# hosted by the Cambridge Crystallographic Data Centre (CCDC).
#
# This work is licensed under the Creative Commons
# Attribution-NonCommercial-ShareAlike 4.0 International License.
# To view a copy of this license, visit
# http://creativecommons.org/licenses/by-nc-sa/4.0/
# or send a letter to
# Creative Commons, PO Box 1866, Mountain View, CA 94042, USA.
#
# CIF created using the CSD Python API on 29 September 2022
# The structure has been converted into the P1 space group
# The structure has a 3D framework
# The original CSD entry VUKRUQ is in the triclinic crystal system
# The original CSD entry VUKRUQ is in a Sohncke space group
# The framework has been calculated to contain at least 10.0% void space
# The void calculation uses a probe of radius 1.32A, grid spacing 0.4
#
###############################################################################

data_VUKRUQ
_chemical_formula_moiety         '(C30 H24 N2 Ni2 O6)n'
_symmetry_cell_setting           triclinic
_symmetry_space_group_name_H-M   'P 1'
_symmetry_Int_Tables_number      1
_space_group_name_Hall           'P 1'
loop_
_symmetry_equiv_pos_site_id
_symmetry_equiv_pos_as_xyz
1 x,y,z
_cell_length_a                   9.4778
_cell_length_b                   11.0657
_cell_length_c                   12.6936
_cell_angle_alpha                101.5443
_cell_angle_beta                 92.0654
_cell_angle_gamma                100.5905
_cell_volume                     1278.47
loop_
_atom_site_label
_atom_site_type_symbol
_atom_site_fract_x
_atom_site_fract_y
_atom_site_fract_z
_atom_site_U_iso_or_equiv
_atom_site_thermal_displace_type
O1 O 0.17891 0.33750 0.33319 0.0500 Uiso
C4 C 0.05472 0.33326 0.28688 0.0500 Uiso
C5 C 0.02585 0.30700 0.16880 0.0500 Uiso
C6 C 0.13788 0.30878 0.09943 0.0500 Uiso
H1 H 0.24731 0.32445 0.13339 0.0500 Uiso
Ni5 Ni 0.16762 0.26634 0.45472 0.0500 Uiso
C7 C 0.10805 0.28107 0.98662 0.0500 Uiso
C8 C 0.21885 0.27357 0.91693 0.0500 Uiso
O6 O 0.13389 0.20893 0.58925 0.0500 Uiso
C19 C 0.02195 0.20694 0.64311 0.0500 Uiso
C20 C 0.04759 0.23516 0.76090 0.0500 Uiso
C24 C 0.18887 0.25014 0.80551 0.0500 Uiso
H2 H 0.32876 0.28590 0.94832 0.0500 Uiso
H6 H 0.27664 0.24580 0.75412 0.0500 Uiso
O2 O 0.94241 0.32701 0.34025 0.0500 Uiso
N1 N 0.39763 0.27416 0.46495 0.0500 Uiso
C1 C 0.47585 0.38077 0.55282 0.0500 Uiso
C2 C 0.43346 0.15698 0.49226 0.0500 Uiso
C3 C 0.46190 0.28903 0.36587 0.0500 Uiso
C9 C 0.88354 0.28607 0.12371 0.0500 Uiso
Ni2 Ni 0.90480 0.27367 0.47709 0.0500 Uiso
O7 O 0.07654 0.11792 0.35972 0.0500 Uiso
N2 N 0.68241 0.27989 0.47625 0.0500 Uiso
C16 C 0.63982 0.38541 0.56091 0.0500 Uiso
C17 C 0.59511 0.16591 0.49853 0.0500 Uiso
C18 C 0.62228 0.29490 0.37034 0.0500 Uiso
C23 C 0.85347 0.26307 0.01186 0.0500 Uiso
H3 H 0.79504 0.28629 0.17470 0.0500 Uiso
H13 H 0.43175 0.36886 0.63328 0.0500 Uiso
H14 H 0.45701 0.47402 0.53559 0.0500 Uiso
H15 H 0.38063 0.07214 0.42730 0.0500 Uiso
H16 H 0.39154 0.14542 0.57344 0.0500 Uiso
H17 H 0.43893 0.37910 0.34436 0.0500 Uiso
H18 H 0.41147 0.20615 0.29831 0.0500 Uiso
H19 H 0.69802 0.48042 0.54791 0.0500 Uiso
H20 H 0.67305 0.37467 0.64524 0.0500 Uiso
H21 H 0.63097 0.15647 0.58271 0.0500 Uiso
H22 H 0.61484 0.08056 0.43817 0.0500 Uiso
H23 H 0.64700 0.21735 0.30399 0.0500 Uiso
H24 H 0.67530 0.38997 0.35428 0.0500 Uiso
O10 O 0.98271 0.42277 0.57072 0.0500 Uiso
O11 O 0.84994 0.13530 0.39358 0.0500 Uiso
O12 O 0.89928 0.20551 0.59732 0.0500 Uiso
O14 O 0.20942 0.40232 0.54307 0.0500 Uiso
C21 C 0.93504 0.23866 0.83009 0.0500 Uiso
C22 C 0.96457 0.26022 0.94254 0.0500 Uiso
H4 H 0.82540 0.22791 0.79666 0.0500 Uiso
H5 H 0.74303 0.24300 0.97901 0.0500 Uiso
C10 C 0.10459 0.47049 0.54628 0.0500 Uiso
C11 C 0.09296 0.59148 0.51038 0.0500 Uiso
C15 C 0.21003 0.64331 0.46055 0.0500 Uiso
C27 C 0.06543 0.90795 0.40294 0.0500 Uiso
C28 C 0.08061 0.80479 0.44328 0.0500 Uiso
C29 C 0.20049 0.74998 0.42246 0.0500 Uiso
H9 H 0.30869 0.59768 0.45250 0.0500 Uiso
H10 H 0.15169 0.95324 0.35486 0.0500 Uiso
H11 H 0.28977 0.79176 0.37486 0.0500 Uiso
C25 C 0.95221 0.08188 0.38866 0.0500 Uiso
C12 C 0.97726 0.64690 0.53471 0.0500 Uiso
C13 C 0.96685 0.75185 0.49904 0.0500 Uiso
C14 C 0.84413 0.80617 0.51735 0.0500 Uiso
C26 C 0.94533 0.95598 0.42108 0.0500 Uiso
C30 C 0.83122 0.90868 0.47533 0.0500 Uiso
H7 H 0.89144 0.60419 0.58449 0.0500 Uiso
H8 H 0.75691 0.76471 0.56671 0.0500 Uiso
H12 H 0.73298 0.95489 0.48321 0.0500 Uiso
loop_
_geom_bond_atom_site_label_1
_geom_bond_atom_site_label_2
_geom_bond_site_symmetry_1
_geom_bond_site_symmetry_2
O1 C4 1_555 1_555
C4 C5 1_555 1_555
C5 C6 1_555 1_555
H1 C6 1_555 1_555
Ni5 O1 1_555 1_555
C7 C8 1_555 1_555
C8 C24 1_555 1_555
O6 C19 1_555 1_555
C19 C20 1_555 1_555
C24 C20 1_555 1_555
H2 C8 1_555 1_555
H6 C24 1_555 1_555
Ni5 O6 1_555 1_555
Ni5 N1 1_555 1_555
N1 C1 1_555 1_555
C1 C16 1_555 1_555
C2 N1 1_555 1_555
C3 N1 1_555 1_555
Ni2 O2 1_555 1_555
O7 Ni5 1_555 1_555
N2 Ni2 1_555 1_555
C16 N2 1_555 1_555
C17 C2 1_555 1_555
C18 C3 1_555 1_555
C23 C9 1_555 1_555
H3 C9 1_555 1_555
H13 C1 1_555 1_555
H14 C1 1_555 1_555
H15 C2 1_555 1_555
H16 C2 1_555 1_555
H17 C3 1_555 1_555
H18 C3 1_555 1_555
H19 C16 1_555 1_555
H20 C16 1_555 1_555
H21 C17 1_555 1_555
H22 C17 1_555 1_555
H23 C18 1_555 1_555
H24 C18 1_555 1_555
O10 Ni2 1_555 1_555
O11 Ni2 1_555 1_555
O12 Ni2 1_555 1_555
O14 Ni5 1_555 1_555
N2 C17 1_555 1_555
N2 C18 1_555 1_555
C21 C22 1_555 1_555
H4 C21 1_555 1_555
C10 C11 1_555 1_555
C15 C11 1_555 1_555
O14 C10 1_555 1_555
C29 C15 1_555 1_555
H9 C15 1_555 1_555
H10 C27 1_555 1_555
H11 C29 1_555 1_555
C27 C28 1_555 1_555
C28 C29 1_555 1_555
O11 C25 1_555 1_555
C12 C13 1_555 1_555
C13 C14 1_555 1_555
C14 C30 1_555 1_555
C30 C26 1_555 1_555
H7 C12 1_555 1_555
H8 C14 1_555 1_555
H12 C30 1_555 1_555

#END
