
###############################################################################
#
# This file contains modified crystal structure data generated from the
# MOF subset of the Cambridge Structural Database (CSD) v543 
# hosted by the Cambridge Crystallographic Data Centre (CCDC).
#
# This work is licensed under the Creative Commons
# Attribution-NonCommercial-ShareAlike 4.0 International License.
# To view a copy of this license, visit
# http://creativecommons.org/licenses/by-nc-sa/4.0/
# or send a letter to
# Creative Commons, PO Box 1866, Mountain View, CA 94042, USA.
#
# CIF created using the CSD Python API on 29 September 2022
# The structure has been converted into the P1 space group
# The structure has a 3D framework
# The original CSD entry VUKROK is in the monoclinic crystal system
# The framework has been calculated to contain at least 10.0% void space
# The void calculation uses a probe of radius 1.32A, grid spacing 0.4
#
###############################################################################

data_VUKROK
_chemical_formula_moiety         '(C60 H48 N4 Ni4 O16)n'
_symmetry_cell_setting           triclinic
_symmetry_space_group_name_H-M   'P 1'
_symmetry_Int_Tables_number      1
_space_group_name_Hall           'P 1'
loop_
_symmetry_equiv_pos_site_id
_symmetry_equiv_pos_as_xyz
1 x,y,z
_cell_length_a                   20.4051
_cell_length_b                   16.4969
_cell_length_c                   9.3469
_cell_angle_alpha                90
_cell_angle_beta                 94.1221
_cell_angle_gamma                90
_cell_volume                     3138.22
loop_
_atom_site_label
_atom_site_type_symbol
_atom_site_fract_x
_atom_site_fract_y
_atom_site_fract_z
O1 O 0.31153 0.17296 0.40871
O2 O 0.18491 0.16981 0.62729
O3 O 0.18445 0.1709 0.3881
O4 O 0.32059 0.1751 0.64922
C1 C 0.15819 0.14783 0.50369
C2 C 0.10037 0.09762 0.48581
C3 C 0.0668 0.06204 0.59893
H1 H 0.08322 0.07594 0.70853
C4 C 0.39476 0.05575 0.37775
H2 H 0.3544 0.06846 0.30069
C6 C 0.01163 0.00879 0.57092
H4 H 0.33828 0.30293 0.14422
C7 C 0.34182 0.15043 0.52833
C8 C 0.39611 0.09175 0.51464
C9 C 0.45174 0.07328 0.60905
H6 H 0.45697 0.10317 0.71232
C10 C 0.07688 0.07689 0.34568
H7 H 0.1013 0.10046 0.256
C11 C 0.44484 0.00335 0.33706
C12 C 0.50173 0.01785 0.56855
C13 C 0.2111 0.17773 0.08085
H9 H 0.23459 0.12142 0.1247
H10 H 0.15982 0.17498 0.11061
Ni1 Ni 0.25177 0.250 0.63725
Ni2 Ni 0.25009 0.250 0.39237
N2 N 0.24362 0.250 0.15064
C15 C 0.31115 0.250 0.09954
H15 H 0.55665 0.0186 0.77091
C26 C 0.02224 0.02555 0.31817
H17 H 0.00714 0.01155 0.20905
H19 H 0.33828 0.19707 0.14422
C29 C 0.2111 0.32227 0.08085
H21 H 0.23459 0.37858 0.1247
H22 H 0.15982 0.32502 0.11061
O9 O 0.31153 0.32704 0.40871
O10 O 0.18491 0.33019 0.62729
O11 O 0.18445 0.3291 0.3881
O12 O 0.32059 0.3249 0.64922
N3 N 0.2465 0.250 0.85199
H5 H 0.34104 0.1966 0.89492
C14 C 0.2121 0.17814 0.90965
H11 H 0.16082 0.1768 0.86328
H12 H 0.23456 0.12145 0.87236
C16 C 0.31301 0.250 0.92841
H20 H 0.34104 0.3034 0.89492
C30 C 0.2121 0.32186 0.90965
H23 H 0.16082 0.3232 0.86328
H24 H 0.23456 0.37855 0.87236
H8 H 0.44335 0.9814 0.22909
O5 O 0.68847 0.82704 0.59129
O6 O 0.67941 0.8249 0.35078
C17 C 0.60524 0.94425 0.62225
H13 H 0.6456 0.93154 0.69931
C18 C 0.65818 0.84957 0.47167
C19 C 0.60389 0.90825 0.48536
C20 C 0.54826 0.92672 0.39095
H14 H 0.54303 0.89683 0.28768
C21 C 0.55516 0.99665 0.66294
C22 C 0.49827 0.98215 0.43145
Ni5 Ni 0.74823 0.750 0.36275
Ni7 Ni 0.74991 0.750 0.60763
C5 C 0.97776 0.97445 0.68183
H3 H 0.99286 0.98845 0.79095
O7 O 0.81509 0.83019 0.37271
O8 O 0.81555 0.8291 0.6119
C23 C 0.84181 0.85217 0.49631
C24 C 0.89963 0.90238 0.51419
C25 C 0.9332 0.93796 0.40107
H16 H 0.91678 0.92406 0.29147
C27 C 0.98837 0.99121 0.42908
C28 C 0.92312 0.92311 0.65432
H18 H 0.8987 0.89954 0.744
C5_2 C 0.02224 0.47445 0.31817
H3_2 H 0.00714 0.48845 0.20905
C23_2 C 0.15819 0.35217 0.50369
C24_2 C 0.10037 0.40238 0.48581
C25_2 C 0.0668 0.43796 0.59893
H16_2 H 0.08322 0.42406 0.70853
C27_2 C 0.01163 0.49121 0.57092
C28_2 C 0.07688 0.42311 0.34568
H18_2 H 0.1013 0.39954 0.256
H5_2 H 0.65896 0.6966 0.10508
C14_2 C 0.7879 0.67814 0.09035
H11_2 H 0.83918 0.6768 0.13672
H12_2 H 0.76544 0.62145 0.12764
N1 N 0.7535 0.750 0.14801
C16_2 C 0.68699 0.750 0.07159
H20_2 H 0.65896 0.8034 0.10508
C30_2 C 0.7879 0.82186 0.09035
H23_2 H 0.83918 0.8232 0.13672
H24_2 H 0.76544 0.87855 0.12764
O1_2 O 0.68847 0.67296 0.59129
O2_2 O 0.81509 0.66981 0.37271
O3_2 O 0.81555 0.6709 0.6119
O4_2 O 0.67941 0.6751 0.35078
C1_2 C 0.84181 0.64783 0.49631
C2_2 C 0.89963 0.59762 0.51419
C3_2 C 0.9332 0.56204 0.40107
H1_2 H 0.91678 0.57594 0.29147
C4_2 C 0.60524 0.55575 0.62225
H2_2 H 0.6456 0.56846 0.69931
C6_2 C 0.98837 0.50879 0.42908
H4_2 H 0.66172 0.80293 0.85578
C7_2 C 0.65818 0.65043 0.47167
C8_2 C 0.60389 0.59175 0.48536
C9_2 C 0.54826 0.57328 0.39095
H6_2 H 0.54303 0.60317 0.28768
C10_2 C 0.92312 0.57689 0.65432
H7_2 H 0.8987 0.60046 0.744
C11_2 C 0.55516 0.50335 0.66294
H8_2 H 0.55665 0.4814 0.77091
C12_2 C 0.49827 0.51785 0.43145
C13_2 C 0.7889 0.67773 0.91915
H9_2 H 0.76541 0.62142 0.8753
H10_2 H 0.84018 0.67498 0.88939
N2_2 N 0.75638 0.750 0.84936
C15_2 C 0.68885 0.750 0.90046
C17_2 C 0.39476 0.44425 0.37775
H13_2 H 0.3544 0.43154 0.30069
C18_2 C 0.34182 0.34957 0.52833
C19_2 C 0.39611 0.40825 0.51464
C20_2 C 0.45174 0.42672 0.60905
H14_2 H 0.45697 0.39683 0.71232
C21_2 C 0.44484 0.49665 0.33706
H15_2 H 0.44335 0.5186 0.22909
C22_2 C 0.50173 0.48215 0.56855
C26_2 C 0.97776 0.52555 0.68183
H17_2 H 0.99286 0.51155 0.79095
H19_2 H 0.66172 0.69707 0.85578
C29_2 C 0.7889 0.82227 0.91915
H21_2 H 0.76541 0.87858 0.8753
H22_2 H 0.84018 0.82502 0.88939
loop_
_geom_bond_atom_site_label_1
_geom_bond_atom_site_label_2
_geom_bond_site_symmetry_1
_geom_bond_site_symmetry_2
O1 C7 1_555 1_555
O2 C1 1_555 1_555
O3 C1 1_555 1_555
O4 C7 1_555 1_555
C1 C2 1_555 1_555
C2 C3 1_555 1_555
C3 H1 1_555 1_555
C4 H2 1_555 1_555
C6 C3 1_555 1_555
H4 C15 1_555 1_555
C7 C8 1_555 1_555
C8 C4 1_555 1_555
C9 C8 1_555 1_555
H6 C9 1_555 1_555
C10 C2 1_555 1_555
H7 C10 1_555 1_555
C11 C4 1_555 1_555
C12 C9 1_555 1_555
C13 H9 1_555 1_555
H10 C13 1_555 1_555
Ni1 O2 1_555 1_555
Ni2 O1 1_555 1_555
N2 C13 1_555 1_555
C15 N2 1_555 1_555
C26 C10 1_555 1_555
H17 C26 1_555 1_555
H19 C15 1_555 1_555
C29 N2 1_555 1_555
H21 C29 1_555 1_555
H22 C29 1_555 1_555
O9 Ni2 1_555 1_555
O10 Ni1 1_555 1_555
O11 Ni2 1_555 1_555
O12 Ni1 1_555 1_555
N3 Ni1 1_555 1_555
O3 Ni2 1_555 1_555
O4 Ni1 1_555 1_555
Ni2 N2 1_555 1_555
H5 C16 1_555 1_555
H11 C14 1_555 1_555
H12 C14 1_555 1_555
N3 C14 1_555 1_555
C16 N3 1_555 1_555
H20 C16 1_555 1_555
C30 N3 1_555 1_555
H23 C30 1_555 1_555
H24 C30 1_555 1_555
O5 C18 1_555 1_555
O6 C18 1_555 1_555
C17 H13 1_555 1_555
C18 C19 1_555 1_555
C19 C17 1_555 1_555
C20 C19 1_555 1_555
H14 C20 1_555 1_555
Ni5 O6 1_555 1_555
Ni7 O5 1_555 1_555
C17 C21 1_555 1_555
C20 C22 1_555 1_555
C5 H3 1_555 1_555
O7 C23 1_555 1_555
O8 C23 1_555 1_555
C23 C24 1_555 1_555
C24 C25 1_555 1_555
C25 H16 1_555 1_555
C28 C5 1_555 1_555
H18 C28 1_555 1_555
Ni5 O7 1_555 1_555
Ni7 O8 1_555 1_555
C24 C28 1_555 1_555
C25 C27 1_555 1_555
C5_2 H3_2 1_555 1_555
O10 C23_2 1_555 1_555
O11 C23_2 1_555 1_555
C23_2 C24_2 1_555 1_555
C24_2 C25_2 1_555 1_555
C25_2 H16_2 1_555 1_555
C28_2 C5_2 1_555 1_555
H18_2 C28_2 1_555 1_555
C24_2 C28_2 1_555 1_555
C25_2 C27_2 1_555 1_555
H5_2 C16_2 1_555 1_555
H11_2 C14_2 1_555 1_555
H12_2 C14_2 1_555 1_555
N1 C14_2 1_555 1_555
C16_2 N1 1_555 1_555
H20_2 C16_2 1_555 1_555
C30_2 N1 1_555 1_555
H23_2 C30_2 1_555 1_555
H24_2 C30_2 1_555 1_555
Ni5 N1 1_555 1_555
O1_2 C7_2 1_555 1_555
O2_2 C1_2 1_555 1_555
O3_2 C1_2 1_555 1_555
O4_2 C7_2 1_555 1_555
C1_2 C2_2 1_555 1_555
C2_2 C3_2 1_555 1_555
C3_2 H1_2 1_555 1_555
C4_2 H2_2 1_555 1_555
C6_2 C3_2 1_555 1_555
H4_2 C15_2 1_555 1_555
C7_2 C8_2 1_555 1_555
C8_2 C4_2 1_555 1_555
C9_2 C8_2 1_555 1_555
H6_2 C9_2 1_555 1_555
C10_2 C2_2 1_555 1_555
H7_2 C10_2 1_555 1_555
C11_2 C4_2 1_555 1_555
H8_2 C11_2 1_555 1_555
C12_2 C9_2 1_555 1_555
C13_2 H9_2 1_555 1_555
H10_2 C13_2 1_555 1_555
Ni5 O2_2 1_555 1_555
Ni7 O1_2 1_555 1_555
N2_2 C13_2 1_555 1_555
C15_2 N2_2 1_555 1_555
O9 C18_2 1_555 1_555
O12 C18_2 1_555 1_555
C17_2 H13_2 1_555 1_555
C18_2 C19_2 1_555 1_555
C19_2 C17_2 1_555 1_555
C20_2 C19_2 1_555 1_555
H14_2 C20_2 1_555 1_555
C21_2 C12_2 1_555 1_555
H15_2 C21_2 1_555 1_555
C22_2 C11_2 1_555 1_555
C26_2 C10_2 1_555 1_555
H17_2 C26_2 1_555 1_555
H19_2 C15_2 1_555 1_555
C29_2 N2_2 1_555 1_555
H21_2 C29_2 1_555 1_555
H22_2 C29_2 1_555 1_555
O3_2 Ni7 1_555 1_555
O4_2 Ni5 1_555 1_555
C12_2 C22_2 1_555 1_555
Ni7 N2_2 1_555 1_555
C17_2 C21_2 1_555 1_555
C20_2 C22_2 1_555 1_555

#END
