
###############################################################################
#
# This file contains modified crystal structure data generated from the
# MOF subset of the Cambridge Structural Database (CSD) v543 
# hosted by the Cambridge Crystallographic Data Centre (CCDC).
#
# This work is licensed under the Creative Commons
# Attribution-NonCommercial-ShareAlike 4.0 International License.
# To view a copy of this license, visit
# http://creativecommons.org/licenses/by-nc-sa/4.0/
# or send a letter to
# Creative Commons, PO Box 1866, Mountain View, CA 94042, USA.
#
# CIF created using the CSD Python API on 29 September 2022
# The structure has been converted into the P1 space group
# The structure has a 3D framework
# The original CSD entry VUKSOL is in the monoclinic crystal system
# The framework has been calculated to contain at least 10.0% void space
# The void calculation uses a probe of radius 1.32A, grid spacing 0.4
# The framework is charged, counterions have been retained in the structure
#
###############################################################################

data_VUKSOL
_chemical_formula_moiety         '(C56 H48 N4 O38 Zn12)n'
_symmetry_cell_setting           triclinic
_symmetry_space_group_name_H-M   'P 1'
_symmetry_Int_Tables_number      1
_space_group_name_Hall           'P 1'
loop_
_symmetry_equiv_pos_site_id
_symmetry_equiv_pos_as_xyz
1 x,y,z
_cell_length_a                   9.3468(12)
_cell_length_b                   15.2267(8)
_cell_length_c                   17.6517(8)
_cell_angle_alpha                90
_cell_angle_beta                 95.599(8)
_cell_angle_gamma                90
_cell_volume                     2500.22
loop_
_atom_site_label
_atom_site_type_symbol
_atom_site_fract_x
_atom_site_fract_y
_atom_site_fract_z
Zn9 Zn 0.0000 0.5000 0.5000
O1 O 0.7332(5) 0.5694(3) 0.3588(3)
O2 O 0.8032(5) 0.4622(4) 0.4418(4)
O3 O 0.4547(4) 0.5377(3) 0.3752(2)
O4 O 0.2034(6) 0.6203(4) 0.3270(3)
O5 O 0.0749(5) 0.5236(3) 0.3835(3)
C1 C 0.7106(7) 0.5049(5) 0.4004(4)
C2 C 0.5586(7) 0.4797(5) 0.4036(4)
C3 C 0.4965(8) 0.4069(5) 0.4326(5)
H1 H 0.5438 0.3578 0.4542
C4 C 0.3451(7) 0.4214(5) 0.4229(4)
H2 H 0.2741 0.3837 0.4371
C5 C 0.3248(7) 0.5005(5) 0.3890(4)
C6 C 0.1959(7) 0.5543(5) 0.3647(4)
Zn3 Zn 0.07258(8) 0.39037(5) 0.66230(4)
O16 O 0.0584(6) 0.2808(3) 0.6017(3)
O17 O 0.0543(5) 0.3565(3) 0.4916(3)
O18 O 0.0839(5) 0.2012(3) 0.4146(2)
O19 O 0.1198(8) 0.0157(4) 0.2943(4)
O20 O 0.0899(5) 0.1566(4) 0.2668(3)
C19 C 0.0618(7) 0.2882(5) 0.5292(4)
C20 C 0.0840(8) 0.2014(5) 0.4921(4)
C21 C 0.1076(13) 0.1200(5) 0.5200(5)
H7 H 0.1136 0.1035 0.5710
C22 C 0.1215(12) 0.0645(6) 0.4574(5)
H8 H 0.1374 0.0042 0.4592
C23 C 0.1078(8) 0.1140(5) 0.3956(4)
C24 C 0.1047(8) 0.0926(5) 0.3131(4)
Zn4 Zn 0.92742(8) 0.60963(5) 0.33770(4)
Zn5 Zn 0.07258(8) 0.10963(5) 0.16230(4)
Zn9_2 Zn 1.0000 0.5000 0.5000
O22 O 0.2668(5) 0.4306(3) 0.6412(3)
O24 O 0.1968(5) 0.5378(4) 0.5582(4)
O25 O 0.0899(5) 0.3434(4) 0.7668(3)
O6 O 0.9416(6) 0.7192(3) 0.3983(3)
O7 O 0.9457(5) 0.6435(3) 0.5084(3)
O8 O 0.9161(5) 0.7988(3) 0.5854(2)
O9 O 0.8802(8) 0.9843(4) 0.7057(4)
O10 O 0.9101(5) 0.8434(4) 0.7332(3)
C7 C 0.9382(7) 0.7118(5) 0.4708(4)
C8 C 0.9160(8) 0.7986(5) 0.5079(4)
C9 C 0.8924(13) 0.8800(5) 0.4800(5)
H3 H 0.8864 0.8965 0.4290
C10 C 0.8785(12) 0.9355(6) 0.5426(5)
H4 H 0.8626 0.9958 0.5408
C11 C 0.8922(8) 0.8860(5) 0.6044(4)
C12 C 0.8953(8) 0.9074(5) 0.6869(4)
O13 O 0.5453(4) 0.4623(3) 0.6248(2)
O14 O 0.7966(6) 0.3797(4) 0.6730(3)
O15 O 0.9251(5) 0.4764(3) 0.6165(3)
C13 C 0.2894(7) 0.4951(5) 0.5996(4)
C14 C 0.4414(7) 0.5203(5) 0.5964(4)
C15 C 0.5035(8) 0.5931(5) 0.5674(5)
H5 H 0.4562 0.6422 0.5458
C16 C 0.6549(7) 0.5786(5) 0.5771(4)
H6 H 0.7259 0.6163 0.5629
C17 C 0.6752(7) 0.4995(5) 0.6110(4)
C18 C 0.8041(7) 0.4457(5) 0.6353(4)
Zn7 Zn 0.92742(8) 0.89037(5) 0.83770(4)
O26 O 0.9101(5) 0.6566(4) 0.2332(3)
Zn8 Zn -0.0000 -0.0000 0.0000
Zn8_2 Zn -0.0000 -0.0000 1.0000
Zn8_3 Zn 0.0000 1.0000 0.0000
Zn8_4 Zn -0.0000 1.0000 1.0000
O6_2 O 0.0584(6) 0.2192(3) 0.1017(3)
C7_2 C 0.0618(7) 0.2118(5) 0.0292(4)
C9_2 C 0.1076(13) 0.3800(5) 0.0200(5)
H3_2 H 0.1136 0.3965 0.0710
Zn8_5 Zn 1.0000 -0.0000 0.0000
O21 O 0.2668(5) 0.0694(3) 0.1412(3)
O7_2 O 0.0543(5) 0.1435(3) 0.9916(3)
O8_2 O 0.0839(5) 0.2988(3) 0.9146(2)
O9_2 O 0.1198(8) 0.4843(4) 0.7943(4)
C8_2 C 0.0840(8) 0.2986(5) 0.9921(4)
C10_2 C 0.1215(12) 0.4355(6) 0.9574(5)
H4_2 H 0.1374 0.4958 0.9592
C11_2 C 0.1078(8) 0.3860(5) 0.8956(4)
C12_2 C 0.1047(8) 0.4074(5) 0.8131(4)
O12 O 0.8032(5) 0.0378(4) 0.9418(4)
C14_2 C 0.5586(7) 0.0203(5) 0.9036(4)
C15_2 C 0.4965(8) 0.0931(5) 0.9326(5)
H5_2 H 0.5438 0.1422 0.9542
C16_2 C 0.3451(7) 0.0786(5) 0.9229(4)
H6_2 H 0.2741 0.1163 0.9371
Zn8_6 Zn 1.0000 -0.0000 1.0000
Zn8_7 Zn 1.0000 1.0000 0.0000
O23 O 0.1968(5) 0.9622(4) 0.0582(4)
O11 O 0.7332(5) 0.9306(3) 0.8588(3)
O13_2 O 0.4547(4) 0.9623(3) 0.8752(2)
O14_2 O 0.2034(6) 0.8797(4) 0.8270(3)
O15_2 O 0.0749(5) 0.9764(3) 0.8835(3)
C13_2 C 0.7106(7) 0.9951(5) 0.9004(4)
C17_2 C 0.3248(7) 0.9995(5) 0.8890(4)
C18_2 C 0.1959(7) 0.9457(5) 0.8647(4)
Zn8_8 Zn 1.0000 1.0000 1.0000
O3_2 O 0.5453(4) 0.0377(3) 0.1248(2)
O4_2 O 0.7966(6) 0.1203(4) 0.1730(3)
O5_2 O 0.9251(5) 0.0236(3) 0.1165(3)
C1_2 C 0.2894(7) 0.0049(5) 0.0996(4)
C5_2 C 0.6752(7) 0.0005(5) 0.1110(4)
C6_2 C 0.8041(7) 0.0543(5) 0.1353(4)
C2_2 C 0.4414(7) 0.9797(5) 0.0964(4)
C3_2 C 0.5035(8) 0.9069(5) 0.0674(5)
H1_2 H 0.4562 0.8578 0.0458
C4_2 C 0.6549(7) 0.9214(5) 0.0771(4)
H2_2 H 0.7259 0.8837 0.0629
O17_2 O 0.9457(5) 0.8565(3) 0.0084(3)
O18_2 O 0.9161(5) 0.7012(3) 0.0854(2)
O19_2 O 0.8802(8) 0.5157(4) 0.2057(4)
C20_2 C 0.9160(8) 0.7014(5) 0.0079(4)
C22_2 C 0.8785(12) 0.5645(6) 0.0426(5)
H8_2 H 0.8626 0.5042 0.0408
C23_2 C 0.8922(8) 0.6140(5) 0.1044(4)
C24_2 C 0.8953(8) 0.5926(5) 0.1869(4)
O16_2 O 0.9416(6) 0.7808(3) 0.8983(3)
C19_2 C 0.9382(7) 0.7882(5) 0.9708(4)
C21_2 C 0.8924(13) 0.6200(5) 0.9800(5)
H7_2 H 0.8864 0.6035 0.9290
N1 N 0.0118(18) 0.8520(11) 0.1858(9)
H10 H 0.0236 0.9033 0.1631
C25 C 0.155(3) 0.8159(17) 0.2177(16)
H11 H 0.1409 0.7614 0.2433
H12 H 0.2014 0.8571 0.2531
H13 H 0.2142 0.8061 0.1770
H9 H 0.9693 0.8150 0.1516
C26 C 0.915(4) 0.864(3) 0.2550(18)
H14 H 0.9603 0.9058 0.2906
H15 H 0.9053 0.8089 0.2799
H16 H 0.8219 0.8856 0.2359
H9_2 H 0.0307 0.3150 0.3484
C26_2 C 0.085(4) 0.364(3) 0.2450(18)
H14_2 H 0.0397 0.4058 0.2094
H15_2 H 0.0947 0.3089 0.2201
H16_2 H 0.1781 0.3856 0.2641
N1_2 N 0.9882(18) 0.3520(11) 0.3142(9)
H10_2 H 0.9764 0.4033 0.3369
C25_2 C 0.845(3) 0.3159(17) 0.2823(16)
H11_2 H 0.8591 0.2614 0.2567
H12_2 H 0.7986 0.3571 0.2469
H13_2 H 0.7858 0.3061 0.3230
H9_3 H 0.0307 0.1850 0.8484
C26_3 C 0.085(4) 0.136(3) 0.7450(18)
H14_3 H 0.0397 0.0942 0.7094
H15_3 H 0.0947 0.1911 0.7201
H16_3 H 0.1781 0.1144 0.7641
N1_3 N 0.9882(18) 0.1480(11) 0.8142(9)
H10_3 H 0.9764 0.0967 0.8369
C25_3 C 0.845(3) 0.1841(17) 0.7823(16)
H11_3 H 0.8591 0.2386 0.7567
H12_3 H 0.7986 0.1429 0.7469
H13_3 H 0.7858 0.1939 0.8230
N1_4 N 0.0118(18) 0.6480(11) 0.6858(9)
H10_4 H 0.0236 0.5967 0.6631
C25_4 C 0.155(3) 0.6841(17) 0.7177(16)
H11_4 H 0.1409 0.7386 0.7433
H12_4 H 0.2014 0.6429 0.7531
H13_4 H 0.2142 0.6939 0.6770
H9_4 H 0.9693 0.6850 0.6516
C26_4 C 0.915(4) 0.636(3) 0.7550(18)
H14_4 H 0.9603 0.5942 0.7906
H15_4 H 0.9053 0.6911 0.7799
H16_4 H 0.8219 0.6144 0.7359
loop_
_geom_bond_atom_site_label_1
_geom_bond_atom_site_label_2
_geom_bond_site_symmetry_1
_geom_bond_site_symmetry_2
Zn9 O5 1_555 1_555
O1 C1 1_555 1_555
O2 C1 1_555 1_555
O3 C2 1_555 1_555
O4 C6 1_555 1_555
O5 C6 1_555 1_555
C1 C2 1_555 1_555
C2 C3 1_555 1_555
C3 H1 1_555 1_555
C4 C3 1_555 1_555
H2 C4 1_555 1_555
C5 O3 1_555 1_555
C6 C5 1_555 1_555
O16 Zn3 1_555 1_555
O17 Zn9 1_555 1_555
O18 C20 1_555 1_555
O19 C24 1_555 1_555
O20 C24 1_555 1_555
C19 O16 1_555 1_555
C20 C19 1_555 1_555
C21 C20 1_555 1_555
H7 C21 1_555 1_555
C22 C21 1_555 1_555
H8 C22 1_555 1_555
C23 O18 1_555 1_555
C24 C23 1_555 1_555
Zn4 O1 1_555 1_555
Zn5 O20 1_555 1_555
Zn9_2 O2 1_555 1_555
O22 Zn3 1_555 1_555
O24 Zn9 1_555 1_555
O25 Zn3 1_555 1_555
C4 C5 1_555 1_555
O17 C19 1_555 1_555
C22 C23 1_555 1_555
O6 Zn4 1_555 1_555
O7 Zn9_2 1_555 1_555
O8 C8 1_555 1_555
O9 C12 1_555 1_555
O10 C12 1_555 1_555
C7 O6 1_555 1_555
C8 C7 1_555 1_555
C9 C8 1_555 1_555
H3 C9 1_555 1_555
C10 C9 1_555 1_555
H4 C10 1_555 1_555
C11 O8 1_555 1_555
C12 C11 1_555 1_555
O22 C13 1_555 1_555
O24 C13 1_555 1_555
O13 C14 1_555 1_555
O14 C18 1_555 1_555
O15 Zn9_2 1_555 1_555
C13 C14 1_555 1_555
C14 C15 1_555 1_555
C15 H5 1_555 1_555
C16 C15 1_555 1_555
H6 C16 1_555 1_555
C17 O13 1_555 1_555
C18 O15 1_555 1_555
Zn7 O10 1_555 1_555
O26 Zn4 1_555 1_555
O7 C7 1_555 1_555
C10 C11 1_555 1_555
C16 C17 1_555 1_555
C17 C18 1_555 1_555
O6_2 Zn5 1_555 1_555
C7_2 O6_2 1_555 1_555
H3_2 C9_2 1_555 1_555
O21 Zn5 1_555 1_555
O7_2 Zn8_2 1_555 1_555
O8_2 C8_2 1_555 1_555
O9_2 C12_2 1_555 1_555
O25 C12_2 1_555 1_555
H4_2 C10_2 1_555 1_555
C11_2 O8_2 1_555 1_555
C12_2 C11_2 1_555 1_555
C14_2 C15_2 1_555 1_555
C15_2 H5_2 1_555 1_555
C16_2 C15_2 1_555 1_555
H6_2 C16_2 1_555 1_555
Zn8_6 O12 1_555 1_555
C10_2 C11_2 1_555 1_555
O23 Zn8_3 1_555 1_555
O11 C13_2 1_555 1_555
O14_2 C18_2 1_555 1_555
O15_2 Zn8_4 1_555 1_555
C17_2 O13_2 1_555 1_555
C18_2 O15_2 1_555 1_555
Zn7 O11 1_555 1_555
C17_2 C18_2 1_555 1_555
Zn8_5 O5_2 1_555 1_555
O21 C1_2 1_555 1_555
O4_2 C6_2 1_555 1_555
O5_2 C6_2 1_555 1_555
C5_2 O3_2 1_555 1_555
C6_2 C5_2 1_555 1_555
C2_2 C3_2 1_555 1_555
C3_2 H1_2 1_555 1_555
C4_2 C3_2 1_555 1_555
H2_2 C4_2 1_555 1_555
O17_2 Zn8_7 1_555 1_555
O18_2 C20_2 1_555 1_555
O19_2 C24_2 1_555 1_555
O26 C24_2 1_555 1_555
H8_2 C22_2 1_555 1_555
C23_2 O18_2 1_555 1_555
C24_2 C23_2 1_555 1_555
C22_2 C23_2 1_555 1_555
O16_2 Zn7 1_555 1_555
C19_2 O16_2 1_555 1_555
H7_2 C21_2 1_555 1_555
H10 N1 1_555 1_555
C25 N1 1_555 1_555
H11 C25 1_555 1_555
H12 C25 1_555 1_555
H13 C25 1_555 1_555
H14 C26 1_555 1_555
H15 C26 1_555 1_555
H16 C26 1_555 1_555
H14_2 C26_2 1_555 1_555
H15_2 C26_2 1_555 1_555
H16_2 C26_2 1_555 1_555
H10_2 N1_2 1_555 1_555
C25_2 N1_2 1_555 1_555
H11_2 C25_2 1_555 1_555
H12_2 C25_2 1_555 1_555
H13_2 C25_2 1_555 1_555
H14_3 C26_3 1_555 1_555
H15_3 C26_3 1_555 1_555
H16_3 C26_3 1_555 1_555
H10_3 N1_3 1_555 1_555
C25_3 N1_3 1_555 1_555
H11_3 C25_3 1_555 1_555
H12_3 C25_3 1_555 1_555
H13_3 C25_3 1_555 1_555
H10_4 N1_4 1_555 1_555
C25_4 N1_4 1_555 1_555
H11_4 C25_4 1_555 1_555
H12_4 C25_4 1_555 1_555
H13_4 C25_4 1_555 1_555
H14_4 C26_4 1_555 1_555
H15_4 C26_4 1_555 1_555
H16_4 C26_4 1_555 1_555

#END
