
###############################################################################
#
# This file contains modified crystal structure data generated from the
# MOF subset of the Cambridge Structural Database (CSD) v543 
# hosted by the Cambridge Crystallographic Data Centre (CCDC).
#
# This work is licensed under the Creative Commons
# Attribution-NonCommercial-ShareAlike 4.0 International License.
# To view a copy of this license, visit
# http://creativecommons.org/licenses/by-nc-sa/4.0/
# or send a letter to
# Creative Commons, PO Box 1866, Mountain View, CA 94042, USA.
#
# CIF created using the CSD Python API on 29 September 2022
# The structure has been converted into the P1 space group
# The structure has a 3D framework
# The original CSD entry VUKSUR is in the triclinic crystal system
# The framework has been calculated to contain at least 10.0% void space
# The void calculation uses a probe of radius 1.32A, grid spacing 0.4
#
###############################################################################

data_VUKSUR
_chemical_formula_moiety         '(C174 H116 N2 Nd8 O62)n'
_symmetry_cell_setting           triclinic
_symmetry_space_group_name_H-M   'P 1'
_symmetry_Int_Tables_number      1
_space_group_name_Hall           'P 1'
loop_
_symmetry_equiv_pos_site_id
_symmetry_equiv_pos_as_xyz
1 x,y,z
_cell_length_a                   14.708(3)
_cell_length_b                   15.429(3)
_cell_length_c                   23.084(4)
_cell_angle_alpha                84.282(3)
_cell_angle_beta                 82.619(3)
_cell_angle_gamma                86.756(3)
_cell_volume                     5164.1
loop_
_atom_site_label
_atom_site_type_symbol
_atom_site_fract_x
_atom_site_fract_y
_atom_site_fract_z
C2 C 0.0405(4) 0.0005(3) 0.1699(2)
C3 C 0.1291(4) 0.0262(4) 0.1711(3)
H1 H 0.1398 0.0644 0.1979
H4 H 0.2607 0.0138 0.1347
C4 C 0.0268(4) 0.9435(4) 0.1294(3)
C5 C 0.0990(4) 0.9130(4) 0.0914(3)
H3 H 0.0888 0.8742 0.0648
C6 C 0.2017(4) 0.9962(4) 0.1331(3)
C7 C 0.1864(4) 0.9400(4) 0.0928(2)
C8 C 0.2521(4) 0.8754(5) 0.0060(3)
H6 H 0.3239 0.7648 0.0269
C45 C 0.0712(5) 0.6864(5) 0.1814(3)
H25 H 0.0859 0.7398 0.1923
C47 C 0.1402(5) 0.6305(6) 0.1577(4)
H27 H 0.2013 0.6453 0.1541
C48 C 0.0309(7) 0.5308(5) 0.1469(4)
H28 H 0.0170 0.4776 0.1353
C49 C 0.1184(7) 0.5551(6) 0.1400(3)
C50 C 0.2045(6) 0.4864(5) 0.0612(3)
C51 C 0.1738(6) 0.5448(5) 0.0190(3)
H29 H 0.1391 0.5944 0.0294
C52 C 0.2572(6) 0.4145(5) 0.0464(3)
H30 H 0.2787 0.3750 0.0752
O3 O 0.2635(3) 0.9120(3) 0.05755(18)
O18 O 0.1883(4) 0.4958(4) 0.1204(2)
C9 C 0.2067(5) 0.9210(4) 0.9634(3)
H5 H 0.1814 0.9766 0.9688
C10 C 0.2919(5) 0.7946(5) 0.9983(3)
C11 C 0.1990(4) 0.8837(4) 0.9129(3)
H7 H 0.1679 0.9143 0.8841
C12 C 0.2835(5) 0.7583(4) 0.9472(3)
H8 H 0.3103 0.7032 0.9418
C13 C 0.2370(4) 0.8007(4) 0.9041(2)
C14 C 0.2258(5) 0.7605(4) 0.8489(3)
C53 C 0.1943(5) 0.5299(5) 0.9607(3)
H31 H 0.1724 0.5694 0.9320
C54 C 0.2779(6) 0.4016(4) 0.9880(3)
H32 H 0.3146 0.3530 0.9778
C55 C 0.2467(5) 0.4573(4) 0.9444(3)
C56 C 0.2708(5) 0.4377(5) 0.8821(3)
O4 O 0.1749(3) 0.7970(3) 0.81441(18)
O5 O 0.2702(3) 0.6886(3) 0.84134(17)
O19 O 0.2458(3) 0.4911(3) 0.8420(2)
O20 O 0.3148(4) 0.3687(3) 0.87168(19)
Nd8 Nd 0.18545(2) 0.86981(2) 0.71846(2)
Nd12 Nd 0.33228(2) 0.33507(2) 0.77304(2)
Nd15 Nd 0.29609(2) 0.59697(2) 0.76505(2)
C1 C 0.9644(4) 0.0363(4) 0.2100(2)
H9 H 0.6455 0.0182 0.4064
C19 C 0.6461(4) 0.0013(4) 0.4940(3)
H11 H 0.5944 0.0370 0.5035
C22 C 0.6029(5) 0.0345(5) 0.6128(3)
C23 C 0.6207(5) 0.1209(5) 0.5993(3)
H13 H 0.6746 0.1367 0.5760
C24 C 0.5254(4) 0.0096(4) 0.6461(3)
C25 C 0.5588(4) 0.1846(4) 0.6203(3)
H15 H 0.5713 0.2431 0.6114
C26 C 0.4780(4) 0.1611(4) 0.6544(2)
C27 C 0.4620(4) 0.0738(4) 0.6671(3)
H16 H 0.4081 0.0571 0.6901
C28 C 0.4116(4) 0.2281(4) 0.6811(3)
Nd1 Nd 0.81455(2) 0.13019(2) 0.28154(2)
O1 O 0.9765(3) 0.0984(3) 0.23803(18)
O2 O 0.8857(3) 0.0017(2) 0.21591(16)
O9 O 0.4319(3) 0.3057(3) 0.67774(18)
O10 O 0.3363(3) 0.2032(2) 0.71070(16)
O31 O 0.9016(3) 0.0732(3) 0.3652(2)
H53 H 0.9573 0.0542 0.3617
H54 H 0.8854 0.0801 0.4012
Nd10 Nd 0.21124(2) 0.11994(2) 0.76156(2)
O33 O 0.8251(3) 0.2030(3) 0.18559(18)
O38 O 0.6784(3) 0.1023(3) 0.2425(2)
O42 O 0.6749(3) 0.2655(2) 0.28984(17)
O43 O 0.7063(3) 0.1739(3) 0.36458(18)
O45 O 0.8933(3) 0.2525(3) 0.30818(18)
H23 H 0.4401 0.0054 0.8720
O14 O 0.3221(3) 0.0199(2) 0.80001(17)
H2 H 0.9680 0.9255 0.1277
C15 C 0.7824(4) 0.9216(4) 0.3593(3)
C16 C 0.7521(4) 0.9345(3) 0.4221(2)
C17 C 0.6761(4) 0.9894(4) 0.4361(2)
C18 C 0.7966(4) 0.8919(4) 0.4659(2)
H10 H 0.8464 0.8537 0.4567
C20 C 0.7677(4) 0.9052(4) 0.5242(3)
H12 H 0.7987 0.8774 0.5540
C21 C 0.6922(4) 0.9606(4) 0.5371(2)
H14 H 0.5140 0.9508 0.6549
C29 C 0.7479(4) 0.8352(4) 0.1249(2)
C30 C 0.7194(4) 0.8295(4) 0.0656(2)
C31 C 0.7847(4) 0.8341(4) 0.0165(3)
H17 H 0.8454 0.8438 0.0204
C32 C 0.6287(4) 0.8187(4) 0.0593(3)
H18 H 0.5845 0.8167 0.0920
C34 C 0.6033(5) 0.8108(4) 0.0046(3)
H20 H 0.5424 0.8033 0.0000
C43 C 0.9108(4) 0.7251(4) 0.2166(2)
C44 C 0.9822(4) 0.6635(4) 0.1887(2)
C46 C 0.9612(5) 0.5860(4) 0.1716(3)
H26 H 0.9005 0.5698 0.1763
C57 C 0.7051(4) 0.5076(4) 0.3359(3)
C58 C 0.7032(4) 0.5533(3) 0.3893(2)
C59 C 0.7569(4) 0.6247(4) 0.3898(3)
H33 H 0.7964 0.6425 0.3565
C60 C 0.6455(5) 0.5277(4) 0.4390(3)
H34 H 0.6095 0.4801 0.4392
C61 C 0.7523(5) 0.6692(4) 0.4387(3)
H35 H 0.7886 0.7166 0.4387
C62 C 0.6405(5) 0.5722(4) 0.4887(3)
H36 H 0.6016 0.5544 0.5223
C63 C 0.6936(4) 0.6428(4) 0.4877(3)
C64 C 0.6073(4) 0.7103(4) 0.5662(3)
C65 C 0.5935(4) 0.6937(4) 0.6254(3)
H37 H 0.6408 0.6690 0.6456
C66 C 0.5395(5) 0.7489(5) 0.5365(3)
H38 H 0.5499 0.7606 0.4959
C67 C 0.5091(4) 0.7138(4) 0.6555(3)
H39 H 0.4996 0.7012 0.6960
C68 C 0.4544(5) 0.7711(4) 0.5666(3)
H40 H 0.4082 0.7986 0.5466
C69 C 0.4399(4) 0.7512(3) 0.6274(2)
C70 C 0.3471(4) 0.7712(4) 0.6588(3)
C71 C 0.5184(4) 0.4817(4) 0.2381(3)
C72 C 0.4241(4) 0.4976(4) 0.2677(3)
C73 C 0.4125(4) 0.5422(4) 0.3180(3)
H41 H 0.4623 0.5675 0.3295
C74 C 0.3498(4) 0.4628(4) 0.2506(3)
H42 H 0.3574 0.4320 0.2176
C75 C 0.3278(4) 0.5492(4) 0.3504(3)
H43 H 0.3207 0.5776 0.3845
C76 C 0.2642(4) 0.4725(4) 0.2809(3)
H44 H 0.2138 0.4516 0.2671
C77 C 0.2525(4) 0.5135(4) 0.3322(3)
C78 C 0.0998(4) 0.4737(5) 0.3546(3)
C79 C 0.0340(5) 0.5187(5) 0.3260(3)
H45 H 0.0345 0.5791 0.3189
C80 C 0.0959(5) 0.3865(5) 0.3705(3)
H46 H 0.1389 0.3582 0.3929
C82 C 0.0287(5) 0.3408(5) 0.3535(3)
H48 H 0.0251 0.2814 0.3647
C85 C 0.4439(10) 0.7299(10) 0.2131(6)
H49 H 0.4202 0.6753 0.2245
C86 C 0.2892(9) 0.7760(11) 0.2354(9)
H50 H 0.2607 0.8313 0.2446
H51 H 0.2843 0.7359 0.2701
H52 H 0.2590 0.7536 0.2059
N1 N 0.3793(6) 0.7862(8) 0.2150(5)
Nd2 Nd 0.78876(2) 0.88006(2) 0.23844(2)
Nd3 Nd 0.66772(2) 0.66493(2) 0.22696(2)
Nd4 Nd 0.70391(2) 0.40303(2) 0.23495(2)
O6 O 0.7571(3) 0.9794(2) 0.31968(16)
O7 O 0.8273(3) 0.8548(2) 0.34410(16)
O8 O 0.6668(3) 0.9691(3) 0.59626(17)
O11 O 0.8206(3) 0.8708(3) 0.12981(16)
O12 O 0.6962(3) 0.8049(2) 0.17037(16)
O16 O 0.9338(3) 0.7960(3) 0.22995(19)
O17 O 0.8269(3) 0.7055(3) 0.22502(19)
O21 O 0.7372(3) 0.5467(2) 0.28647(16)
O22 O 0.6746(3) 0.4327(3) 0.33939(18)
O23 O 0.6934(3) 0.6886(3) 0.53650(18)
O24 O 0.3251(3) 0.7345(2) 0.71016(17)
O25 O 0.2937(3) 0.8261(3) 0.63542(18)
O26 O 0.5808(3) 0.5335(3) 0.24100(19)
O27 O 0.5384(3) 0.4113(3) 0.21423(18)
O28 O 0.1720(3) 0.5211(3) 0.3683(2)
O32 O 0.5209(3) 0.7217(4) 0.2026(2)
C87 C 0.4026(13) 0.8720(10) 0.2081(9)
H55 H 0.3646 0.9038 0.2365
H56 H 0.3937 0.8967 0.1693
H57 H 0.4658 0.8754 0.2137
O34 O 0.7298(3) 0.3114(3) 0.15866(17)
O35 O 0.5681(3) 0.6943(3) 0.32226(18)
O36 O 0.6637(3) 0.7968(2) 0.28930(16)
O37 O 0.6779(3) 0.9801(2) 0.19999(17)
O39 O 0.7542(3) 0.5089(3) 0.1580(2)
O40 O 0.6852(4) 0.6313(3) 0.12832(19)
O44 O 0.8505(3) 0.3749(3) 0.2577(2)
C33 C 0.7605(5) 0.8246(4) 0.9622(3)
H19 H 0.8047 0.8251 0.9295
H20_2 H 0.5424 0.8033 1.0000
C35 C 0.6704(5) 0.8144(4) 0.9568(3)
C36 C 0.5745(4) 0.8344(4) 0.8793(3)
C37 C 0.5387(4) 0.9165(4) 0.8912(3)
H21 H 0.5635 0.9477 0.9175
C38 C 0.5382(4) 0.7875(4) 0.8409(3)
H22 H 0.5622 0.7318 0.8340
C39 C 0.4658(4) 0.9510(4) 0.8634(3)
C40 C 0.4667(4) 0.8233(4) 0.8127(3)
H24 H 0.4422 0.7918 0.7865
C41 C 0.4299(4) 0.9069(3) 0.8230(2)
C42 C 0.3519(4) 0.9436(4) 0.7920(3)
O13 O 0.6514(3) 0.7979(3) 0.9018(2)
O15 O 0.3216(3) 0.8977(3) 0.7575(2)
C81 C 0.9666(4) 0.4729(4) 0.3077(3)
H47 H 0.9218 0.5024 0.2873
C83 C 0.9656(4) 0.3835(4) 0.3194(3)
C84 C 0.8997(4) 0.3327(4) 0.2945(3)
C81_2 C 0.0334(4) 0.5271(4) 0.6923(3)
H47_2 H 0.0782 0.4976 0.7127
C83_2 C 0.0344(4) 0.6165(4) 0.6806(3)
C84_2 C 0.1003(4) 0.6673(4) 0.7055(3)
O29 O 0.1495(3) 0.6251(3) 0.7423(2)
O30 O 0.1067(3) 0.7475(3) 0.69182(18)
C33_2 C 0.2395(5) 0.1754(4) 0.0378(3)
H19_2 H 0.1953 0.1749 0.0705
H20_3 H 0.4576 0.1967 0.0000
C35_2 C 0.3296(5) 0.1856(4) 0.0432(3)
C36_2 C 0.4255(4) 0.1656(4) 0.1207(3)
C37_2 C 0.4613(4) 0.0835(4) 0.1088(3)
H21_2 H 0.4365 0.0523 0.0825
C38_2 C 0.4618(4) 0.2125(4) 0.1591(3)
H22_2 H 0.4378 0.2682 0.1660
C39_2 C 0.5342(4) 0.0490(4) 0.1366(3)
C40_2 C 0.5333(4) 0.1767(4) 0.1873(3)
H24_2 H 0.5578 0.2082 0.2135
C41_2 C 0.5701(4) 0.0931(3) 0.1770(2)
C42_2 C 0.6481(4) 0.0564(4) 0.2080(3)
O13_2 O 0.3486(3) 0.2021(3) 0.0982(2)
H2_2 H 0.0320 0.0745 0.8723
C15_2 C 0.2176(4) 0.0784(4) 0.6407(3)
C16_2 C 0.2479(4) 0.0655(3) 0.5779(2)
C17_2 C 0.3239(4) 0.0106(4) 0.5639(2)
C18_2 C 0.2034(4) 0.1081(4) 0.5341(2)
H10_2 H 0.1536 0.1463 0.5433
C20_2 C 0.2323(4) 0.0948(4) 0.4758(3)
H12_2 H 0.2013 0.1226 0.4460
C21_2 C 0.3078(4) 0.0394(4) 0.4629(2)
H14_2 H 0.4860 0.0492 0.3451
C29_2 C 0.2521(4) 0.1648(4) 0.8751(2)
C30_2 C 0.2806(4) 0.1705(4) 0.9344(2)
C31_2 C 0.2153(4) 0.1659(4) 0.9835(3)
H17_2 H 0.1546 0.1562 0.9796
C32_2 C 0.3713(4) 0.1813(4) 0.9407(3)
H18_2 H 0.4155 0.1833 0.9080
C34_2 C 0.3967(5) 0.1892(4) 0.9954(3)
H20_4 H 0.4576 0.1967 1.0000
C43_2 C 0.0892(4) 0.2749(4) 0.7834(2)
C44_2 C 0.0178(4) 0.3365(4) 0.8113(2)
C46_2 C 0.0388(5) 0.4140(4) 0.8284(3)
H26_2 H 0.0995 0.4302 0.8237
C57_2 C 0.2949(4) 0.4924(4) 0.6641(3)
C58_2 C 0.2968(4) 0.4467(3) 0.6107(2)
C59_2 C 0.2431(4) 0.3753(4) 0.6102(3)
H33_2 H 0.2036 0.3575 0.6435
C60_2 C 0.3545(5) 0.4723(4) 0.5610(3)
H34_2 H 0.3905 0.5199 0.5608
C61_2 C 0.2477(5) 0.3308(4) 0.5613(3)
H35_2 H 0.2114 0.2834 0.5613
C62_2 C 0.3595(5) 0.4278(4) 0.5113(3)
H36_2 H 0.3984 0.4456 0.4777
C63_2 C 0.3064(4) 0.3572(4) 0.5123(3)
C64_2 C 0.3927(4) 0.2897(4) 0.4338(3)
C65_2 C 0.4065(4) 0.3063(4) 0.3746(3)
H37_2 H 0.3592 0.3310 0.3544
C66_2 C 0.4605(5) 0.2511(5) 0.4635(3)
H38_2 H 0.4501 0.2394 0.5041
C67_2 C 0.4909(4) 0.2862(4) 0.3445(3)
H39_2 H 0.5004 0.2988 0.3040
C68_2 C 0.5456(5) 0.2289(4) 0.4334(3)
H40_2 H 0.5918 0.2014 0.4534
C69_2 C 0.5601(4) 0.2488(3) 0.3726(2)
C70_2 C 0.6529(4) 0.2288(4) 0.3412(3)
C71_2 C 0.4816(4) 0.5183(4) 0.7619(3)
C72_2 C 0.5759(4) 0.5024(4) 0.7323(3)
C73_2 C 0.5875(4) 0.4578(4) 0.6820(3)
H41_2 H 0.5377 0.4325 0.6705
C74_2 C 0.6502(4) 0.5372(4) 0.7494(3)
H42_2 H 0.6426 0.5680 0.7824
C75_2 C 0.6722(4) 0.4508(4) 0.6496(3)
H43_2 H 0.6793 0.4224 0.6155
C76_2 C 0.7358(4) 0.5275(4) 0.7191(3)
H44_2 H 0.7862 0.5484 0.7329
C77_2 C 0.7475(4) 0.4865(4) 0.6678(3)
C78_2 C 0.9002(4) 0.5263(5) 0.6454(3)
C79_2 C 0.9660(5) 0.4813(5) 0.6740(3)
H45_2 H 0.9655 0.4209 0.6811
C80_2 C 0.9041(5) 0.6135(5) 0.6295(3)
H46_2 H 0.8611 0.6418 0.6071
C82_2 C 0.9713(5) 0.6592(5) 0.6465(3)
H48_2 H 0.9749 0.7186 0.6353
C85_2 C 0.5561(10) 0.2701(10) 0.7869(6)
H49_2 H 0.5798 0.3247 0.7755
C86_2 C 0.7108(9) 0.2240(11) 0.7646(9)
H50_2 H 0.7393 0.1687 0.7554
H51_2 H 0.7157 0.2641 0.7299
H52_2 H 0.7410 0.2464 0.7941
N1_2 N 0.6207(6) 0.2138(8) 0.7850(5)
O6_2 O 0.2429(3) 0.0206(2) 0.68032(16)
O7_2 O 0.1727(3) 0.1452(2) 0.65590(16)
O8_2 O 0.3332(3) 0.0309(3) 0.40374(17)
O11_2 O 0.1794(3) 0.1292(3) 0.87019(16)
O12_2 O 0.3038(3) 0.1951(2) 0.82963(16)
O16_2 O 0.0662(3) 0.2040(3) 0.77005(19)
O17_2 O 0.1731(3) 0.2945(3) 0.77498(19)
O21_2 O 0.2628(3) 0.4533(2) 0.71353(16)
O22_2 O 0.3254(3) 0.5673(3) 0.66061(18)
O23_2 O 0.3066(3) 0.3114(3) 0.46350(18)
O26_2 O 0.4192(3) 0.4665(3) 0.75900(19)
O27_2 O 0.4616(3) 0.5887(3) 0.78577(18)
O28_2 O 0.8280(3) 0.4789(3) 0.6317(2)
O32_2 O 0.4791(3) 0.2783(4) 0.7974(2)
C87_2 C 0.5974(13) 0.1280(10) 0.7919(9)
H55_2 H 0.6354 0.0962 0.7635
H56_2 H 0.6063 0.1033 0.8307
H57_2 H 0.5342 0.1246 0.7863
H23_2 H 0.5599 0.9946 0.1280
C1_2 C 0.0356(4) 0.9637(4) 0.7900(2)
H9_2 H 0.3545 0.9818 0.5936
C19_2 C 0.3539(4) 0.9987(4) 0.5060(3)
H11_2 H 0.4056 0.9630 0.4965
C22_2 C 0.3971(5) 0.9655(5) 0.3872(3)
C23_2 C 0.3793(5) 0.8791(5) 0.4007(3)
H13_2 H 0.3254 0.8633 0.4240
C24_2 C 0.4746(4) 0.9904(4) 0.3539(3)
C25_2 C 0.4412(4) 0.8154(4) 0.3797(3)
H15_2 H 0.4287 0.7569 0.3886
C26_2 C 0.5220(4) 0.8389(4) 0.3456(2)
C27_2 C 0.5380(4) 0.9262(4) 0.3329(3)
H16_2 H 0.5919 0.9429 0.3099
C28_2 C 0.5884(4) 0.7719(4) 0.3189(3)
O1_2 O 0.0235(3) 0.9016(3) 0.76197(18)
O2_2 O 0.1143(3) 0.9983(2) 0.78409(16)
O31_2 O 0.0984(3) 0.9268(3) 0.6348(2)
H53_2 H 0.0427 0.9458 0.6383
H54_2 H 0.1146 0.9199 0.5988
C9_2 C 0.7933(5) 0.0790(4) 0.0366(3)
H5_2 H 0.8186 0.0234 0.0312
C10_2 C 0.7081(5) 0.2054(5) 0.0017(3)
C11_2 C 0.8010(4) 0.1163(4) 0.0871(3)
H7_2 H 0.8321 0.0857 0.1159
C12_2 C 0.7165(5) 0.2417(4) 0.0528(3)
H8_2 H 0.6897 0.2968 0.0582
C13_2 C 0.7630(4) 0.1993(4) 0.0959(2)
C14_2 C 0.7742(5) 0.2395(4) 0.1511(3)
C53_2 C 0.8057(5) 0.4701(5) 0.0393(3)
H31_2 H 0.8276 0.4306 0.0680
C54_2 C 0.7221(6) 0.5984(4) 0.0120(3)
H32_2 H 0.6854 0.6470 0.0222
C55_2 C 0.7533(5) 0.5427(4) 0.0556(3)
C56_2 C 0.7292(5) 0.5623(5) 0.1179(3)
C4_2 C 0.9732(4) 0.0565(4) 0.8706(3)
C5_2 C 0.9010(4) 0.0870(4) 0.9086(3)
H3_2 H 0.9112 0.1258 0.9352
C6_2 C 0.7983(4) 0.0038(4) 0.8669(3)
C7_2 C 0.8136(4) 0.0600(4) 0.9072(2)
C8_2 C 0.7479(4) 0.1246(5) 0.9940(3)
H6_2 H 0.6761 0.2352 0.9731
C45_2 C 0.9288(5) 0.3136(5) 0.8186(3)
H25_2 H 0.9141 0.2602 0.8077
C47_2 C 0.8598(5) 0.3695(6) 0.8423(4)
H27_2 H 0.7987 0.3547 0.8459
C48_2 C 0.9691(7) 0.4692(5) 0.8531(4)
H28_2 H 0.9830 0.5224 0.8647
C49_2 C 0.8816(7) 0.4449(6) 0.8600(3)
C50_2 C 0.7955(6) 0.5136(5) 0.9388(3)
C51_2 C 0.8262(6) 0.4552(5) 0.9810(3)
H29_2 H 0.8609 0.4056 0.9706
C52_2 C 0.7428(6) 0.5855(5) 0.9536(3)
H30_2 H 0.7213 0.6250 0.9248
O3_2 O 0.7365(3) 0.0880(3) 0.94245(18)
O18_2 O 0.8117(4) 0.5042(4) 0.8796(2)
C2_2 C 0.9595(4) 0.9995(3) 0.8301(2)
C3_2 C 0.8709(4) 0.9738(4) 0.8289(3)
H1_2 H 0.8602 0.9356 0.8021
H4_2 H 0.7393 0.9862 0.8653
loop_
_geom_bond_atom_site_label_1
_geom_bond_atom_site_label_2
_geom_bond_site_symmetry_1
_geom_bond_site_symmetry_2
C2 C3 1_555 1_555
C3 H1 1_555 1_555
C5 C4 1_555 1_555
H3 C5 1_555 1_555
C7 C5 1_555 1_555
C45 H25 1_555 1_555
C47 C45 1_555 1_555
H27 C47 1_555 1_555
H28 C48 1_555 1_555
C49 C47 1_555 1_555
C50 C51 1_555 1_555
C51 H29 1_555 1_555
C52 C50 1_555 1_555
H30 C52 1_555 1_555
O3 C7 1_555 1_555
O18 C49 1_555 1_555
C6 C7 1_555 1_555
C8 O3 1_555 1_555
C48 C49 1_555 1_555
C50 O18 1_555 1_555
C9 H5 1_555 1_555
C11 C9 1_555 1_555
H7 C11 1_555 1_555
C12 C10 1_555 1_555
H8 C12 1_555 1_555
C13 C11 1_555 1_555
C14 C13 1_555 1_555
H31 C53 1_555 1_555
H32 C54 1_555 1_555
C55 C53 1_555 1_555
C56 C55 1_555 1_555
O4 C14 1_555 1_555
O5 C14 1_555 1_555
O19 C56 1_555 1_555
O20 C56 1_555 1_555
Nd8 O4 1_555 1_555
Nd12 O20 1_555 1_555
Nd15 O5 1_555 1_555
C12 C13 1_555 1_555
C54 C55 1_555 1_555
O19 Nd15 1_555 1_555
H11 C19 1_555 1_555
C22 C23 1_555 1_555
C23 H13 1_555 1_555
C24 C22 1_555 1_555
C25 C23 1_555 1_555
H15 C25 1_555 1_555
C26 C25 1_555 1_555
C27 C24 1_555 1_555
H16 C27 1_555 1_555
C28 C26 1_555 1_555
Nd1 O1 1_555 1_555
O1 C1 1_555 1_555
O2 C1 1_555 1_555
O9 C28 1_555 1_555
O10 C28 1_555 1_555
O31 Nd1 1_555 1_555
H53 O31 1_555 1_555
H54 O31 1_555 1_555
Nd10 O10 1_555 1_555
Nd12 O9 1_555 1_555
O33 Nd1 1_555 1_555
O38 Nd1 1_555 1_555
O42 Nd1 1_555 1_555
O43 Nd1 1_555 1_555
O45 Nd1 1_555 1_555
C26 C27 1_555 1_555
Nd1 O2 1_555 1_555
O10 Nd12 1_555 1_555
Nd10 O14 1_555 1_555
C15 C16 1_555 1_555
C16 C17 1_555 1_555
C18 C16 1_555 1_555
H10 C18 1_555 1_555
C20 C18 1_555 1_555
H12 C20 1_555 1_555
C29 C30 1_555 1_555
C30 C31 1_555 1_555
C31 H17 1_555 1_555
C32 C30 1_555 1_555
H18 C32 1_555 1_555
C34 C32 1_555 1_555
H20 C34 1_555 1_555
C43 C44 1_555 1_555
C46 C44 1_555 1_555
H26 C46 1_555 1_555
C57 C58 1_555 1_555
C58 C59 1_555 1_555
C59 H33 1_555 1_555
C60 C58 1_555 1_555
H34 C60 1_555 1_555
C61 C59 1_555 1_555
H35 C61 1_555 1_555
C62 C60 1_555 1_555
H36 C62 1_555 1_555
C63 C61 1_555 1_555
C64 C65 1_555 1_555
C65 H37 1_555 1_555
C66 C64 1_555 1_555
H38 C66 1_555 1_555
C67 C65 1_555 1_555
H39 C67 1_555 1_555
C68 C66 1_555 1_555
H40 C68 1_555 1_555
C69 C67 1_555 1_555
C70 C69 1_555 1_555
C71 C72 1_555 1_555
C72 C73 1_555 1_555
C73 H41 1_555 1_555
C74 C72 1_555 1_555
H42 C74 1_555 1_555
C75 C73 1_555 1_555
H43 C75 1_555 1_555
C76 C74 1_555 1_555
H44 C76 1_555 1_555
C77 C75 1_555 1_555
C78 C79 1_555 1_555
C79 H45 1_555 1_555
C80 C78 1_555 1_555
H46 C80 1_555 1_555
C82 C80 1_555 1_555
H48 C82 1_555 1_555
C85 H49 1_555 1_555
C86 H50 1_555 1_555
H51 C86 1_555 1_555
H52 C86 1_555 1_555
N1 C85 1_555 1_555
Nd3 O12 1_555 1_555
Nd4 O21 1_555 1_555
O6 C15 1_555 1_555
O7 C15 1_555 1_555
O8 C21 1_555 1_555
O11 C29 1_555 1_555
O12 C29 1_555 1_555
O16 C43 1_555 1_555
O17 C43 1_555 1_555
O21 C57 1_555 1_555
O22 C57 1_555 1_555
O23 C63 1_555 1_555
O24 C70 1_555 1_555
O25 C70 1_555 1_555
O26 C71 1_555 1_555
O27 C71 1_555 1_555
O28 C77 1_555 1_555
O32 C85 1_555 1_555
C87 N1 1_555 1_555
H55 C87 1_555 1_555
H56 C87 1_555 1_555
H57 C87 1_555 1_555
Nd8 O24 1_555 1_555
Nd15 O24 1_555 1_555
O34 Nd4 1_555 1_555
O35 Nd3 1_555 1_555
O36 Nd2 1_555 1_555
O37 Nd2 1_555 1_555
O39 Nd4 1_555 1_555
O40 Nd3 1_555 1_555
O42 Nd4 1_555 1_555
O44 Nd4 1_555 1_555
C20 C21 1_555 1_555
C62 C63 1_555 1_555
C64 O23 1_555 1_555
C68 C69 1_555 1_555
C76 C77 1_555 1_555
C78 O28 1_555 1_555
C86 N1 1_555 1_555
Nd2 O6 1_555 1_555
Nd2 O7 1_555 1_555
Nd2 O11 1_555 1_555
Nd2 O12 1_555 1_555
Nd2 O16 1_555 1_555
Nd2 O17 1_555 1_555
Nd3 O17 1_555 1_555
Nd3 O21 1_555 1_555
Nd3 O26 1_555 1_555
Nd3 O32 1_555 1_555
Nd3 O36 1_555 1_555
Nd4 O22 1_555 1_555
Nd4 O26 1_555 1_555
Nd4 O27 1_555 1_555
O25 Nd8 1_555 1_555
H19 C33 1_555 1_555
C35 C33 1_555 1_555
C36 C37 1_555 1_555
C37 H21 1_555 1_555
C38 C36 1_555 1_555
H22 C38 1_555 1_555
C39 C37 1_555 1_555
C40 C38 1_555 1_555
H24 C40 1_555 1_555
C41 C39 1_555 1_555
C42 C41 1_555 1_555
O13 C35 1_555 1_555
O15 C42 1_555 1_555
Nd8 O15 1_555 1_555
C36 O13 1_555 1_555
C40 C41 1_555 1_555
H47 C81 1_555 1_555
C83 C81 1_555 1_555
C84 C83 1_555 1_555
O44 C84 1_555 1_555
O45 C84 1_555 1_555
H47_2 C81_2 1_555 1_555
C83_2 C81_2 1_555 1_555
C84_2 C83_2 1_555 1_555
O29 C84_2 1_555 1_555
O30 C84_2 1_555 1_555
Nd8 O30 1_555 1_555
Nd15 O29 1_555 1_555
H19_2 C33_2 1_555 1_555
C35_2 C33_2 1_555 1_555
C36_2 C37_2 1_555 1_555
C37_2 H21_2 1_555 1_555
C38_2 C36_2 1_555 1_555
H22_2 C38_2 1_555 1_555
C39_2 C37_2 1_555 1_555
C40_2 C38_2 1_555 1_555
H24_2 C40_2 1_555 1_555
C41_2 C39_2 1_555 1_555
C42_2 C41_2 1_555 1_555
O13_2 C35_2 1_555 1_555
O38 C42_2 1_555 1_555
C36_2 O13_2 1_555 1_555
C40_2 C41_2 1_555 1_555
C15_2 C16_2 1_555 1_555
C16_2 C17_2 1_555 1_555
C18_2 C16_2 1_555 1_555
H10_2 C18_2 1_555 1_555
C20_2 C18_2 1_555 1_555
H12_2 C20_2 1_555 1_555
C29_2 C30_2 1_555 1_555
C30_2 C31_2 1_555 1_555
C31_2 H17_2 1_555 1_555
C32_2 C30_2 1_555 1_555
H18_2 C32_2 1_555 1_555
C34_2 C32_2 1_555 1_555
H20_4 C34_2 1_555 1_555
C43_2 C44_2 1_555 1_555
C46_2 C44_2 1_555 1_555
H26_2 C46_2 1_555 1_555
C57_2 C58_2 1_555 1_555
C58_2 C59_2 1_555 1_555
C59_2 H33_2 1_555 1_555
C60_2 C58_2 1_555 1_555
H34_2 C60_2 1_555 1_555
C61_2 C59_2 1_555 1_555
H35_2 C61_2 1_555 1_555
C62_2 C60_2 1_555 1_555
H36_2 C62_2 1_555 1_555
C63_2 C61_2 1_555 1_555
C64_2 C65_2 1_555 1_555
C65_2 H37_2 1_555 1_555
C66_2 C64_2 1_555 1_555
H38_2 C66_2 1_555 1_555
C67_2 C65_2 1_555 1_555
H39_2 C67_2 1_555 1_555
C68_2 C66_2 1_555 1_555
H40_2 C68_2 1_555 1_555
C69_2 C67_2 1_555 1_555
C70_2 C69_2 1_555 1_555
C71_2 C72_2 1_555 1_555
C72_2 C73_2 1_555 1_555
C73_2 H41_2 1_555 1_555
C74_2 C72_2 1_555 1_555
H42_2 C74_2 1_555 1_555
C75_2 C73_2 1_555 1_555
H43_2 C75_2 1_555 1_555
C76_2 C74_2 1_555 1_555
H44_2 C76_2 1_555 1_555
C77_2 C75_2 1_555 1_555
C78_2 C79_2 1_555 1_555
C79_2 H45_2 1_555 1_555
C80_2 C78_2 1_555 1_555
H46_2 C80_2 1_555 1_555
C82_2 C80_2 1_555 1_555
H48_2 C82_2 1_555 1_555
C85_2 H49_2 1_555 1_555
C86_2 H50_2 1_555 1_555
H51_2 C86_2 1_555 1_555
H52_2 C86_2 1_555 1_555
N1_2 C85_2 1_555 1_555
Nd12 O12_2 1_555 1_555
Nd15 O21_2 1_555 1_555
O6_2 C15_2 1_555 1_555
O7_2 C15_2 1_555 1_555
O8_2 C21_2 1_555 1_555
O11_2 C29_2 1_555 1_555
O12_2 C29_2 1_555 1_555
O16_2 C43_2 1_555 1_555
O17_2 C43_2 1_555 1_555
O21_2 C57_2 1_555 1_555
O22_2 C57_2 1_555 1_555
O23_2 C63_2 1_555 1_555
O42 C70_2 1_555 1_555
O43 C70_2 1_555 1_555
O26_2 C71_2 1_555 1_555
O27_2 C71_2 1_555 1_555
O28_2 C77_2 1_555 1_555
O32_2 C85_2 1_555 1_555
C87_2 N1_2 1_555 1_555
H55_2 C87_2 1_555 1_555
H56_2 C87_2 1_555 1_555
H57_2 C87_2 1_555 1_555
C20_2 C21_2 1_555 1_555
C62_2 C63_2 1_555 1_555
C64_2 O23_2 1_555 1_555
C68_2 C69_2 1_555 1_555
C76_2 C77_2 1_555 1_555
C78_2 O28_2 1_555 1_555
C86_2 N1_2 1_555 1_555
Nd10 O6_2 1_555 1_555
Nd10 O7_2 1_555 1_555
Nd10 O11_2 1_555 1_555
Nd10 O12_2 1_555 1_555
Nd10 O16_2 1_555 1_555
Nd10 O17_2 1_555 1_555
Nd12 O17_2 1_555 1_555
Nd12 O21_2 1_555 1_555
Nd12 O26_2 1_555 1_555
Nd12 O32_2 1_555 1_555
Nd15 O22_2 1_555 1_555
Nd15 O26_2 1_555 1_555
Nd15 O27_2 1_555 1_555
H11_2 C19_2 1_555 1_555
C22_2 C23_2 1_555 1_555
C23_2 H13_2 1_555 1_555
C24_2 C22_2 1_555 1_555
C25_2 C23_2 1_555 1_555
H15_2 C25_2 1_555 1_555
C26_2 C25_2 1_555 1_555
C27_2 C24_2 1_555 1_555
H16_2 C27_2 1_555 1_555
C28_2 C26_2 1_555 1_555
Nd8 O1_2 1_555 1_555
O1_2 C1_2 1_555 1_555
O2_2 C1_2 1_555 1_555
O35 C28_2 1_555 1_555
O36 C28_2 1_555 1_555
O31_2 Nd8 1_555 1_555
H53_2 O31_2 1_555 1_555
H54_2 O31_2 1_555 1_555
C26_2 C27_2 1_555 1_555
Nd8 O2_2 1_555 1_555
C9_2 H5_2 1_555 1_555
C11_2 C9_2 1_555 1_555
H7_2 C11_2 1_555 1_555
C12_2 C10_2 1_555 1_555
H8_2 C12_2 1_555 1_555
C13_2 C11_2 1_555 1_555
C14_2 C13_2 1_555 1_555
H31_2 C53_2 1_555 1_555
H32_2 C54_2 1_555 1_555
C55_2 C53_2 1_555 1_555
C56_2 C55_2 1_555 1_555
O33 C14_2 1_555 1_555
O34 C14_2 1_555 1_555
O39 C56_2 1_555 1_555
O40 C56_2 1_555 1_555
C12_2 C13_2 1_555 1_555
C54_2 C55_2 1_555 1_555
C5_2 C4_2 1_555 1_555
H3_2 C5_2 1_555 1_555
C7_2 C5_2 1_555 1_555
C45_2 H25_2 1_555 1_555
C47_2 C45_2 1_555 1_555
H27_2 C47_2 1_555 1_555
H28_2 C48_2 1_555 1_555
C49_2 C47_2 1_555 1_555
C50_2 C51_2 1_555 1_555
C51_2 H29_2 1_555 1_555
C52_2 C50_2 1_555 1_555
H30_2 C52_2 1_555 1_555
O3_2 C7_2 1_555 1_555
O18_2 C49_2 1_555 1_555
C6_2 C7_2 1_555 1_555
C8_2 O3_2 1_555 1_555
C48_2 C49_2 1_555 1_555
C50_2 O18_2 1_555 1_555
C2_2 C3_2 1_555 1_555
C3_2 H1_2 1_555 1_555

#END
