
###############################################################################
#
# This file contains modified crystal structure data generated from the
# MOF subset of the Cambridge Structural Database (CSD) v543 
# hosted by the Cambridge Crystallographic Data Centre (CCDC).
#
# This work is licensed under the Creative Commons
# Attribution-NonCommercial-ShareAlike 4.0 International License.
# To view a copy of this license, visit
# http://creativecommons.org/licenses/by-nc-sa/4.0/
# or send a letter to
# Creative Commons, PO Box 1866, Mountain View, CA 94042, USA.
#
# CIF created using the CSD Python API on 29 September 2022
# The structure has been converted into the P1 space group
# The structure has a 3D framework
# The original CSD entry VUKSAX is in the monoclinic crystal system
# The framework has been calculated to contain at least 10.0% void space
# The void calculation uses a probe of radius 1.32A, grid spacing 0.4
#
###############################################################################

data_VUKSAX
_chemical_formula_moiety         '(C60 H48 N4 Ni4 O16)n'
_symmetry_cell_setting           triclinic
_symmetry_space_group_name_H-M   'P 1'
_symmetry_Int_Tables_number      1
_space_group_name_Hall           'P 1'
loop_
_symmetry_equiv_pos_site_id
_symmetry_equiv_pos_as_xyz
1 x,y,z
_cell_length_a                   18.6569
_cell_length_b                   18.7359
_cell_length_c                   9.4331
_cell_angle_alpha                90
_cell_angle_beta                 94.4243
_cell_angle_gamma                90
_cell_volume                     3287.55
loop_
_atom_site_label
_atom_site_type_symbol
_atom_site_fract_x
_atom_site_fract_y
_atom_site_fract_z
_atom_site_U_iso_or_equiv
_atom_site_thermal_displace_type
O1 O 0.32222 0.17891 0.39185 0.0810 Uiso
O2 O 0.17308 0.17423 0.60421 0.0977 Uiso
O3 O 0.18425 0.17502 0.36879 0.0806 Uiso
O4 O 0.30364 0.17346 0.62489 0.0977 Uiso
C1 C 0.1535 0.15029 0.47794 0.0837 Uiso
C2 C 0.09756 0.09838 0.46894 0.0935 Uiso
C3 C 0.05618 0.07613 0.58229 0.1002 Uiso
H1 H 0.06358 0.10361 0.68356 0.1193 Uiso
C4 C 0.4176 0.05685 0.67237 0.1002 Uiso
H2 H 0.39318 0.07283 0.76765 0.1193 Uiso
C6 C 0.0048 0.01872 0.56514 0.1004 Uiso
H4 H 0.35023 0.29726 0.10768 0.1178 Uiso
C7 C 0.33499 0.14871 0.5158 0.0836 Uiso
C8 C 0.39103 0.08547 0.53988 0.0936 Uiso
C9 C 0.42587 0.06088 0.4192 0.0998 Uiso
H6 H 0.40555 0.07921 0.31534 0.1187 Uiso
C10 C 0.08622 0.06015 0.34006 0.0998 Uiso
H7 H 0.11609 0.07476 0.25052 0.1187 Uiso
C11 C 0.47656 0.00876 0.68593 0.1355 Uiso
C12 C 0.48699 0.01308 0.43261 0.1006 Uiso
C13 C 0.20885 0.18669 0.04911 0.0780 Uiso
H9 H 0.23438 0.13682 0.09233 0.0942 Uiso
H10 H 0.15215 0.18492 0.07849 0.0942 Uiso
Ni1 Ni 0.23755 0.250 0.61872 0.0613 Uiso
Ni2 Ni 0.25551 0.250 0.34987 0.0613 Uiso
N2 N 0.24617 0.250 0.1185 0.0327 Uiso
C15 C 0.31977 0.250 0.06489 0.0783 Uiso
H15 H 0.50586 0.01079 0.20921 0.1583 Uiso
C26 C 0.03719 0.00239 0.32399 0.1351 Uiso
H19 H 0.35023 0.20274 0.10768 0.1178 Uiso
C29 C 0.20885 0.31331 0.04911 0.0780 Uiso
H21 H 0.23438 0.36318 0.09233 0.0942 Uiso
H22 H 0.15215 0.31508 0.07849 0.0942 Uiso
O9 O 0.32222 0.32109 0.39185 0.0810 Uiso
O10 O 0.17308 0.32577 0.60421 0.0977 Uiso
O11 O 0.18425 0.32498 0.36879 0.0806 Uiso
O12 O 0.30364 0.32654 0.62489 0.0977 Uiso
N3 N 0.24503 0.250 0.81946 0.0327 Uiso
H5 H 0.34964 0.20273 0.86052 0.0942 Uiso
C14 C 0.20782 0.18694 0.87816 0.0780 Uiso
H11 H 0.15061 0.18568 0.83379 0.0942 Uiso
H12 H 0.23222 0.13721 0.8401 0.0942 Uiso
C16 C 0.3192 0.250 0.8942 0.0783 Uiso
H20 H 0.34964 0.29727 0.86052 0.0942 Uiso
C30 C 0.20782 0.31306 0.87816 0.0780 Uiso
H23 H 0.15061 0.31432 0.83379 0.0942 Uiso
H24 H 0.23222 0.36279 0.8401 0.0942 Uiso
H8 H 0.49414 0.98921 0.79079 0.1583 Uiso
O5 O 0.67778 0.82109 0.60815 0.0810 Uiso
O6 O 0.69636 0.82654 0.37511 0.0977 Uiso
C17 C 0.5824 0.94315 0.32763 0.1002 Uiso
H13 H 0.60682 0.92717 0.23235 0.1193 Uiso
C18 C 0.66501 0.85129 0.4842 0.0836 Uiso
C19 C 0.60897 0.91453 0.46012 0.0936 Uiso
C20 C 0.57413 0.93912 0.5808 0.0998 Uiso
H14 H 0.59445 0.92079 0.68466 0.1187 Uiso
C21 C 0.52344 0.99124 0.31407 0.1355 Uiso
C22 C 0.51301 0.98692 0.56739 0.1006 Uiso
H17 H 0.03204 0.97411 0.22375 0.1627 Uiso
Ni5 Ni 0.76245 0.750 0.38128 0.0613 Uiso
Ni7 Ni 0.74449 0.750 0.65013 0.0613 Uiso
H3 H 0.96796 0.02589 0.77625 0.1627 Uiso
C5 C 0.96281 0.99761 0.67601 0.1351 Uiso
O7 O 0.82692 0.82577 0.39579 0.0977 Uiso
O8 O 0.81575 0.82498 0.63121 0.0806 Uiso
C23 C 0.8465 0.84971 0.52206 0.0837 Uiso
C24 C 0.90244 0.90162 0.53106 0.0935 Uiso
C25 C 0.94382 0.92387 0.41771 0.1002 Uiso
H16 H 0.93642 0.89639 0.31644 0.1193 Uiso
C27 C 0.9952 0.98128 0.43486 0.1004 Uiso
C28 C 0.91378 0.93985 0.65994 0.0998 Uiso
H18 H 0.88391 0.92524 0.74948 0.1187 Uiso
C5_2 C 0.03719 0.49761 0.32399 0.1351 Uiso
H3_2 H 0.03204 0.52589 0.22375 0.1627 Uiso
C23_2 C 0.1535 0.34971 0.47794 0.0837 Uiso
C24_2 C 0.09756 0.40162 0.46894 0.0935 Uiso
C25_2 C 0.05618 0.42387 0.58229 0.1002 Uiso
H16_2 H 0.06358 0.39639 0.68356 0.1193 Uiso
C27_2 C 0.0048 0.48128 0.56514 0.1004 Uiso
C28_2 C 0.08622 0.43985 0.34006 0.0998 Uiso
H18_2 H 0.11609 0.42524 0.25052 0.1187 Uiso
H5_2 H 0.65036 0.70273 0.13948 0.0942 Uiso
C14_2 C 0.79218 0.68694 0.12184 0.0780 Uiso
H11_2 H 0.84939 0.68568 0.16621 0.0942 Uiso
H12_2 H 0.76778 0.63721 0.1599 0.0942 Uiso
N1 N 0.75497 0.750 0.18054 0.0327 Uiso
C16_2 C 0.6808 0.750 0.1058 0.0783 Uiso
H20_2 H 0.65036 0.79727 0.13948 0.0942 Uiso
C30_2 C 0.79218 0.81306 0.12184 0.0780 Uiso
H23_2 H 0.84939 0.81432 0.16621 0.0942 Uiso
H24_2 H 0.76778 0.86279 0.1599 0.0942 Uiso
O1_2 O 0.67778 0.67891 0.60815 0.0810 Uiso
O2_2 O 0.82692 0.67423 0.39579 0.0977 Uiso
O3_2 O 0.81575 0.67502 0.63121 0.0806 Uiso
O4_2 O 0.69636 0.67346 0.37511 0.0977 Uiso
C1_2 C 0.8465 0.65029 0.52206 0.0837 Uiso
C2_2 C 0.90244 0.59838 0.53106 0.0935 Uiso
C3_2 C 0.94382 0.57613 0.41771 0.1002 Uiso
H1_2 H 0.93642 0.60361 0.31644 0.1193 Uiso
C4_2 C 0.5824 0.55685 0.32763 0.1002 Uiso
H2_2 H 0.60682 0.57283 0.23235 0.1193 Uiso
C6_2 C 0.9952 0.51872 0.43486 0.1004 Uiso
H4_2 H 0.64977 0.79726 0.89232 0.1178 Uiso
C7_2 C 0.66501 0.64871 0.4842 0.0836 Uiso
C8_2 C 0.60897 0.58547 0.46012 0.0936 Uiso
C9_2 C 0.57413 0.56088 0.5808 0.0998 Uiso
H6_2 H 0.59445 0.57921 0.68466 0.1187 Uiso
C10_2 C 0.91378 0.56015 0.65994 0.0998 Uiso
H7_2 H 0.88391 0.57476 0.74948 0.1187 Uiso
C11_2 C 0.52344 0.50876 0.31407 0.1355 Uiso
H8_2 H 0.50586 0.48921 0.20921 0.1583 Uiso
C12_2 C 0.51301 0.51308 0.56739 0.1006 Uiso
C13_2 C 0.79115 0.68669 0.95089 0.0780 Uiso
H9_2 H 0.76562 0.63682 0.90767 0.0942 Uiso
H10_2 H 0.84785 0.68492 0.92151 0.0942 Uiso
N2_2 N 0.75383 0.750 0.8815 0.0327 Uiso
C15_2 C 0.68023 0.750 0.93511 0.0783 Uiso
C17_2 C 0.4176 0.44315 0.67237 0.1002 Uiso
H13_2 H 0.39318 0.42717 0.76765 0.1193 Uiso
C18_2 C 0.33499 0.35129 0.5158 0.0836 Uiso
C19_2 C 0.39103 0.41453 0.53988 0.0936 Uiso
C20_2 C 0.42587 0.43912 0.4192 0.0998 Uiso
H14_2 H 0.40555 0.42079 0.31534 0.1187 Uiso
C21_2 C 0.47656 0.49124 0.68593 0.1355 Uiso
H15_2 H 0.49414 0.51079 0.79079 0.1583 Uiso
C22_2 C 0.48699 0.48692 0.43261 0.1006 Uiso
C26_2 C 0.96281 0.50239 0.67601 0.1351 Uiso
H17_2 H 0.96796 0.47411 0.77625 0.1627 Uiso
H19_2 H 0.64977 0.70274 0.89232 0.1178 Uiso
C29_2 C 0.79115 0.81331 0.95089 0.0780 Uiso
H21_2 H 0.76562 0.86318 0.90767 0.0942 Uiso
H22_2 H 0.84785 0.81508 0.92151 0.0942 Uiso
loop_
_geom_bond_atom_site_label_1
_geom_bond_atom_site_label_2
_geom_bond_site_symmetry_1
_geom_bond_site_symmetry_2
O1 C7 1_555 1_555
O2 C1 1_555 1_555
O3 C1 1_555 1_555
O4 C7 1_555 1_555
C1 C2 1_555 1_555
C2 C3 1_555 1_555
C3 H1 1_555 1_555
C4 H2 1_555 1_555
C6 C3 1_555 1_555
H4 C15 1_555 1_555
C7 C8 1_555 1_555
C8 C4 1_555 1_555
C9 C8 1_555 1_555
H6 C9 1_555 1_555
C10 C2 1_555 1_555
H7 C10 1_555 1_555
C11 C4 1_555 1_555
C12 C9 1_555 1_555
C13 H9 1_555 1_555
H10 C13 1_555 1_555
Ni1 O2 1_555 1_555
Ni2 O1 1_555 1_555
N2 C13 1_555 1_555
C15 N2 1_555 1_555
C26 C10 1_555 1_555
H19 C15 1_555 1_555
C29 N2 1_555 1_555
H21 C29 1_555 1_555
H22 C29 1_555 1_555
O9 Ni2 1_555 1_555
O10 Ni1 1_555 1_555
O11 Ni2 1_555 1_555
O12 Ni1 1_555 1_555
N3 Ni1 1_555 1_555
O3 Ni2 1_555 1_555
O4 Ni1 1_555 1_555
Ni2 N2 1_555 1_555
H5 C16 1_555 1_555
H11 C14 1_555 1_555
H12 C14 1_555 1_555
N3 C14 1_555 1_555
C16 N3 1_555 1_555
H20 C16 1_555 1_555
C30 N3 1_555 1_555
H23 C30 1_555 1_555
H24 C30 1_555 1_555
O5 C18 1_555 1_555
O6 C18 1_555 1_555
C17 H13 1_555 1_555
C18 C19 1_555 1_555
C19 C17 1_555 1_555
C20 C19 1_555 1_555
H14 C20 1_555 1_555
Ni5 O6 1_555 1_555
Ni7 O5 1_555 1_555
C17 C21 1_555 1_555
C20 C22 1_555 1_555
O7 C23 1_555 1_555
O8 C23 1_555 1_555
C23 C24 1_555 1_555
C24 C25 1_555 1_555
C25 H16 1_555 1_555
C28 C5 1_555 1_555
H18 C28 1_555 1_555
Ni5 O7 1_555 1_555
Ni7 O8 1_555 1_555
C24 C28 1_555 1_555
C25 C27 1_555 1_555
C5_2 H3_2 1_555 1_555
O10 C23_2 1_555 1_555
O11 C23_2 1_555 1_555
C23_2 C24_2 1_555 1_555
C24_2 C25_2 1_555 1_555
C25_2 H16_2 1_555 1_555
C28_2 C5_2 1_555 1_555
H18_2 C28_2 1_555 1_555
C24_2 C28_2 1_555 1_555
C25_2 C27_2 1_555 1_555
H5_2 C16_2 1_555 1_555
H11_2 C14_2 1_555 1_555
H12_2 C14_2 1_555 1_555
N1 C14_2 1_555 1_555
C16_2 N1 1_555 1_555
H20_2 C16_2 1_555 1_555
C30_2 N1 1_555 1_555
H23_2 C30_2 1_555 1_555
H24_2 C30_2 1_555 1_555
Ni5 N1 1_555 1_555
O1_2 C7_2 1_555 1_555
O2_2 C1_2 1_555 1_555
O3_2 C1_2 1_555 1_555
O4_2 C7_2 1_555 1_555
C1_2 C2_2 1_555 1_555
C2_2 C3_2 1_555 1_555
C3_2 H1_2 1_555 1_555
C4_2 H2_2 1_555 1_555
C6_2 C3_2 1_555 1_555
H4_2 C15_2 1_555 1_555
C7_2 C8_2 1_555 1_555
C8_2 C4_2 1_555 1_555
C9_2 C8_2 1_555 1_555
H6_2 C9_2 1_555 1_555
C10_2 C2_2 1_555 1_555
H7_2 C10_2 1_555 1_555
C11_2 C4_2 1_555 1_555
H8_2 C11_2 1_555 1_555
C12_2 C9_2 1_555 1_555
C13_2 H9_2 1_555 1_555
H10_2 C13_2 1_555 1_555
Ni5 O2_2 1_555 1_555
Ni7 O1_2 1_555 1_555
N2_2 C13_2 1_555 1_555
C15_2 N2_2 1_555 1_555
O9 C18_2 1_555 1_555
O12 C18_2 1_555 1_555
C17_2 H13_2 1_555 1_555
C18_2 C19_2 1_555 1_555
C19_2 C17_2 1_555 1_555
C20_2 C19_2 1_555 1_555
H14_2 C20_2 1_555 1_555
C21_2 C12_2 1_555 1_555
H15_2 C21_2 1_555 1_555
C22_2 C11_2 1_555 1_555
C26_2 C10_2 1_555 1_555
H17_2 C26_2 1_555 1_555
H19_2 C15_2 1_555 1_555
C29_2 N2_2 1_555 1_555
H21_2 C29_2 1_555 1_555
H22_2 C29_2 1_555 1_555
O3_2 Ni7 1_555 1_555
O4_2 Ni5 1_555 1_555
C12_2 C22_2 1_555 1_555
Ni7 N2_2 1_555 1_555
C17_2 C21_2 1_555 1_555
C20_2 C22_2 1_555 1_555

#END
