
###############################################################################
#
# This file contains modified crystal structure data generated from the
# MOF subset of the Cambridge Structural Database (CSD) v543 
# hosted by the Cambridge Crystallographic Data Centre (CCDC).
#
# This work is licensed under the Creative Commons
# Attribution-NonCommercial-ShareAlike 4.0 International License.
# To view a copy of this license, visit
# http://creativecommons.org/licenses/by-nc-sa/4.0/
# or send a letter to
# Creative Commons, PO Box 1866, Mountain View, CA 94042, USA.
#
# CIF created using the CSD Python API on 29 September 2022
# The structure has been converted into the P1 space group
# The structure has a 3D framework
# The original CSD entry VUKTIG is in the triclinic crystal system
# The framework has been calculated to contain at least 10.0% void space
# The void calculation uses a probe of radius 1.32A, grid spacing 0.4
#
###############################################################################

data_VUKTIG
_chemical_formula_moiety         '(C174 H114 Gd8 N2 O62)n'
_symmetry_cell_setting           triclinic
_symmetry_space_group_name_H-M   'P 1'
_symmetry_Int_Tables_number      1
_space_group_name_Hall           'P 1'
loop_
_symmetry_equiv_pos_site_id
_symmetry_equiv_pos_as_xyz
1 x,y,z
_cell_length_a                   14.626(7)
_cell_length_b                   15.297(7)
_cell_length_c                   23.009(10)
_cell_angle_alpha                84.817(6)
_cell_angle_beta                 83.605(6)
_cell_angle_gamma                86.488(6)
_cell_volume                     5088.12
loop_
_atom_site_label
_atom_site_type_symbol
_atom_site_fract_x
_atom_site_fract_y
_atom_site_fract_z
C49 C 0.0314(5) 0.6193(5) 0.6792(3)
C50 C 0.0312(6) 0.5278(4) 0.6892(4)
H28 H 0.0776 0.4971 0.7082
C53 C 0.0975(5) 0.6682(5) 0.7048(3)
O21 O 0.1484(4) 0.6254(3) 0.7418(2)
O22 O 0.1061(3) 0.7494(3) 0.6918(2)
Gd5 Gd 0.18242(2) 0.87077(2) 0.71779(2)
Gd14 Gd 0.29343(3) 0.59771(2) 0.76450(2)
C32 C 0.3222(6) 0.1840(5) 0.0445(3)
H19 H 0.4527 0.1920 0.0035
C36 C 0.2321(6) 0.1756(5) 0.0368(3)
H20 H 0.1873 0.1744 0.0689
O16 O 0.1866(6) 0.4925(5) 0.1215(3)
C41 C 0.2549(7) 0.4134(5) 0.0449(4)
H23 H 0.2781 0.3730 0.0729
O18 O 0.3412(4) 0.1968(4) 0.1011(2)
C42 C 0.4597(5) 0.0798(5) 0.1097(3)
H24 H 0.4353 0.0476 0.0832
C43 C 0.4205(5) 0.1609(5) 0.1224(3)
C44 C 0.5712(5) 0.0926(4) 0.1780(3)
C45 C 0.5319(5) 0.1753(4) 0.1885(3)
H25 H 0.5566 0.2083 0.2145
C46 C 0.5355(5) 0.0469(4) 0.1367(3)
C47 C 0.6502(5) 0.0561(4) 0.2080(3)
O19 O 0.6825(3) 0.1039(3) 0.2425(2)
C48 C 0.4559(6) 0.2097(5) 0.1607(4)
H27 H 0.4296 0.2650 0.1681
C69 C 0.2018(7) 0.4859(6) 0.0616(4)
C70 C 0.1683(8) 0.5452(6) 0.0202(4)
H40 H 0.1322 0.5940 0.0317
C71 C 0.1182(9) 0.5508(7) 0.1433(4)
C72 C 0.0721(6) 0.6854(5) 0.1850(4)
H41 H 0.0872 0.7391 0.1963
C73 C 0.1405(7) 0.6290(6) 0.1596(4)
H42 H 0.2013 0.6450 0.1537
C74 C 0.0293(10) 0.5280(6) 0.1500(5)
H43 H 0.0145 0.4751 0.1372
Gd8 Gd 0.81758(2) 0.12923(2) 0.28221(2)
Gd2 Gd 0.20964(2) 0.11946(2) 0.75979(2)
Gd3 Gd 0.32985(3) 0.33278(2) 0.77277(2)
O1 O 0.2407(3) 0.0202(3) 0.67999(19)
C1 C 0.2132(5) 0.0776(5) 0.6407(3)
C2 C 0.2435(5) 0.0649(4) 0.5779(3)
C3 C 0.3206(5) 0.0113(4) 0.5631(3)
C4 C 0.1957(5) 0.1061(4) 0.5336(3)
H2 H 0.1437 0.1422 0.5431
C5 C 0.3020(6) 0.0406(5) 0.4616(3)
C6 C 0.3516(5) 0.0002(4) 0.5050(3)
C7 C 0.2240(5) 0.0942(4) 0.4757(3)
H4 H 0.1912 0.1219 0.4463
O2 O 0.3272(4) 0.0326(3) 0.4023(2)
O3 O 0.2603(3) 0.4508(3) 0.71409(19)
O4 O 0.3255(4) 0.5653(3) 0.6636(2)
O5 O 0.3098(4) 0.3059(4) 0.4626(2)
C8 C 0.2972(5) 0.4435(4) 0.6114(3)
C9 C 0.2927(5) 0.4902(5) 0.6652(3)
C10 C 0.2437(5) 0.3726(5) 0.6088(3)
H5 H 0.2035 0.3551 0.6414
C11 C 0.3077(5) 0.3522(5) 0.5119(3)
C12 C 0.2480(6) 0.3277(5) 0.5599(3)
H6 H 0.2106 0.2808 0.5591
C13 C 0.3549(5) 0.4694(4) 0.5618(3)
H7 H 0.3900 0.5181 0.5618
C14 C 0.3609(6) 0.4235(5) 0.5121(3)
H8 H 0.4006 0.4407 0.4792
C15 C 0.4760(6) 0.5174(5) 0.7624(3)
C16 C 0.5811(5) 0.4569(5) 0.6813(3)
H9 H 0.5307 0.4313 0.6698
C17 C 0.6460(6) 0.5375(5) 0.7494(3)
H10 H 0.6390 0.5680 0.7829
C18 C 0.6652(5) 0.4508(5) 0.6480(3)
H11 H 0.6720 0.4215 0.6140
C19 C 0.7395(6) 0.4890(5) 0.6660(4)
C20 C 0.5709(5) 0.5013(4) 0.7322(3)
C21 C 0.7311(5) 0.5299(5) 0.7183(3)
H12 H 0.7823 0.5515 0.7317
O6 O 0.4150(3) 0.4634(3) 0.7618(2)
O7 O 0.4556(3) 0.5898(3) 0.7852(2)
O8 O 0.8208(4) 0.4831(4) 0.6287(3)
O10 O 0.1137(3) 0.0004(3) 0.78135(19)
H15 H 0.0299 0.0790 0.8686
C30 C 0.2483(5) 0.1663(4) 0.8735(3)
C31 C 0.2755(5) 0.1724(4) 0.9325(3)
C33 C 0.2081(5) 0.1688(4) 0.9813(3)
H17 H 0.1469 0.1619 0.9759
C34 C 0.3651(5) 0.1808(4) 0.9416(3)
H18 H 0.4100 0.1827 0.9096
C35 C 0.3914(6) 0.1866(5) 0.9977(3)
O12 O 0.3014(3) 0.1958(3) 0.8281(2)
O13 O 0.1759(3) 0.1303(3) 0.86589(18)
O14 O 0.2386(4) 0.5041(4) 0.8429(2)
O15 O 0.3014(5) 0.3736(3) 0.8677(2)
C37 C 0.2735(7) 0.4013(5) 0.9856(3)
H21 H 0.3092 0.3522 0.9740
C38 C 0.2399(6) 0.4607(5) 0.9441(3)
C39 C 0.2619(6) 0.4452(5) 0.8805(3)
C40 C 0.1876(7) 0.5332(5) 0.9612(4)
H22 H 0.1652 0.5742 0.9332
O17 O 0.1690(3) 0.1447(3) 0.65634(19)
C51 C 0.9644(6) 0.6634(5) 0.6474(4)
H29 H 0.9665 0.7237 0.6380
C52 C 0.9620(6) 0.4829(5) 0.6707(4)
H30 H 0.9614 0.4220 0.6771
C54 C 0.8939(6) 0.5300(6) 0.6426(4)
C60 C 0.3968(6) 0.2865(5) 0.4336(3)
C61 C 0.4092(6) 0.3036(5) 0.3738(3)
H35 H 0.3603 0.3272 0.3538
C62 C 0.5655(6) 0.2482(4) 0.3724(3)
C63 C 0.4930(6) 0.2863(4) 0.3436(3)
H36 H 0.5015 0.3001 0.3032
C64 C 0.5498(6) 0.2276(5) 0.4332(3)
H37 H 0.5970 0.2003 0.4534
C65 C 0.4653(6) 0.2473(6) 0.4635(3)
H38 H 0.4555 0.2339 0.5038
C66 C 0.8960(6) 0.6190(6) 0.6301(4)
H39 H 0.8507 0.6491 0.6097
C68 C 0.6578(6) 0.2294(4) 0.3405(3)
O25 O 0.7122(4) 0.1717(3) 0.3632(2)
O26 O 0.6791(3) 0.2664(3) 0.28969(19)
O29 O 0.4739(4) 0.2771(4) 0.8011(3)
C78 C 0.5534(11) 0.2718(10) 0.7867(6)
H45 H 0.5776 0.3264 0.7756
N1 N 0.6167(8) 0.2069(8) 0.7825(5)
H46 H 0.4823 0.0534 0.3457
C85 C 0.5971(14) 0.1202(10) 0.7919(8)
H50 H 0.5323 0.1146 0.7906
H51 H 0.6138 0.0972 0.8297
H52 H 0.6312 0.0879 0.7620
C87 C 0.7088(12) 0.2240(14) 0.7624(9)
H55 H 0.7114 0.2818 0.7424
H56 H 0.7334 0.1813 0.7358
H57 H 0.7445 0.2205 0.7951
Gd16 Gd 0.70657(3) 0.40229(2) 0.23550(2)
O34 O 0.3186(3) 0.0206(3) 0.7995(2)
O37 O 0.2701(4) 0.6928(3) 0.83759(19)
O41 O 0.3209(3) 0.7336(3) 0.71031(19)
O42 O 0.0654(4) 0.2032(3) 0.7671(2)
O43 O 0.1727(4) 0.2937(4) 0.7715(2)
O44 O 0.4292(3) 0.3030(3) 0.6811(2)
O45 O 0.3336(3) 0.1992(3) 0.71036(19)
H26 H 0.5635 0.9931 0.1272
O20 O 0.6814(3) 0.9794(3) 0.2005(2)
Gd11 Gd 0.79036(2) 0.88054(2) 0.24021(2)
H1 H 0.3521 0.9822 0.5927
H3 H 0.4051 0.9661 0.4954
O9 O 0.0221(3) 0.9026(3) 0.7582(2)
C22 C 0.0327(5) 0.9671(4) 0.7861(3)
C79 C 0.4719(6) 0.9940(5) 0.3535(3)
C80 C 0.3929(6) 0.9675(5) 0.3850(3)
C81 C 0.3770(6) 0.8796(6) 0.3976(4)
H47 H 0.3231 0.8622 0.4198
C82 C 0.5235(5) 0.8431(5) 0.3444(3)
C83 C 0.5370(5) 0.9307(5) 0.3329(3)
H48 H 0.5909 0.9485 0.3109
C84 C 0.4436(6) 0.8168(5) 0.3763(3)
H49 H 0.4335 0.7573 0.3839
C86 C 0.5913(5) 0.7763(5) 0.3181(3)
O30 O 0.5708(3) 0.6970(3) 0.3189(2)
O31 O 0.6664(3) 0.8008(3) 0.28964(19)
O32 O 0.0982(4) 0.9249(3) 0.6341(2)
H53 H 0.0408 0.9353 0.6322
H54 H 0.1260 0.9683 0.6160
Gd13 Gd 0.67015(3) 0.66722(2) 0.22723(2)
O33 O 0.3175(3) 0.8961(3) 0.7575(2)
O38 O 0.1689(4) 0.8010(3) 0.8123(2)
O39 O 0.2878(4) 0.8283(3) 0.6368(2)
C55 C 0.8067(5) 0.1136(4) 0.0867(3)
H31 H 0.8409 0.0833 0.1146
C56 C 0.7970(5) 0.0763(5) 0.0360(3)
H32 H 0.8226 0.0203 0.0301
C57 C 0.7661(5) 0.1960(4) 0.0971(3)
C58 C 0.7169(6) 0.2408(5) 0.0551(3)
H33 H 0.6893 0.2960 0.0614
C59 C 0.7084(6) 0.2038(6) 0.0036(3)
C67 C 0.7778(5) 0.2368(5) 0.1534(3)
O23 O 0.7299(4) 0.3072(3) 0.16241(19)
O24 O 0.8311(4) 0.1990(3) 0.1877(2)
C75 C 0.9826(5) 0.6611(4) 0.1932(3)
C76 C 0.9108(5) 0.7239(5) 0.2202(3)
C77 C 0.9594(6) 0.5832(5) 0.1760(4)
H44 H 0.8986 0.5670 0.1813
O27 O 0.9346(4) 0.7968(3) 0.2329(2)
O28 O 0.8273(4) 0.7063(4) 0.2285(2)
C55_2 C 0.1933(5) 0.8864(4) 0.9133(3)
H31_2 H 0.1591 0.9167 0.8854
C56_2 C 0.2030(5) 0.9237(5) 0.9640(3)
H32_2 H 0.1774 0.9797 0.9699
C57_2 C 0.2339(5) 0.8040(4) 0.9029(3)
C58_2 C 0.2831(6) 0.7592(5) 0.9449(3)
H33_2 H 0.3107 0.7040 0.9386
C59_2 C 0.2916(6) 0.7962(6) 0.9964(3)
C67_2 C 0.2222(5) 0.7632(5) 0.8466(3)
C75_2 C 0.0174(5) 0.3389(4) 0.8068(3)
C76_2 C 0.0892(5) 0.2761(5) 0.7798(3)
C77_2 C 0.0406(6) 0.4168(5) 0.8240(4)
H44_2 H 0.1014 0.4330 0.8187
H1_2 H 0.6479 0.0178 0.4073
H3_2 H 0.5949 0.0339 0.5046
O9_2 O 0.9779(3) 0.0974(3) 0.2418(2)
C22_2 C 0.9673(5) 0.0329(4) 0.2139(3)
C79_2 C 0.5281(6) 0.0060(5) 0.6465(3)
C80_2 C 0.6071(6) 0.0325(5) 0.6150(3)
C81_2 C 0.6230(6) 0.1204(6) 0.6024(4)
H47_2 H 0.6769 0.1378 0.5802
C82_2 C 0.4765(5) 0.1569(5) 0.6556(3)
C83_2 C 0.4630(5) 0.0693(5) 0.6671(3)
H48_2 H 0.4091 0.0515 0.6891
C84_2 C 0.5564(6) 0.1832(5) 0.6237(3)
H49_2 H 0.5665 0.2427 0.6161
C86_2 C 0.4087(5) 0.2237(5) 0.6819(3)
O32_2 O 0.9018(4) 0.0751(3) 0.3659(2)
H53_2 H 0.9592 0.0647 0.3678
H54_2 H 0.8740 0.0317 0.3840
O36 O 0.8939(3) 0.2506(3) 0.3082(2)
H26_2 H 0.4365 0.0069 0.8728
O1_2 O 0.7593(3) 0.9798(3) 0.32001(19)
C1_2 C 0.7868(5) 0.9224(5) 0.3593(3)
C2_2 C 0.7565(5) 0.9351(4) 0.4221(3)
C3_2 C 0.6794(5) 0.9887(4) 0.4369(3)
C4_2 C 0.8043(5) 0.8939(4) 0.4664(3)
H2_2 H 0.8563 0.8578 0.4569
C5_2 C 0.6980(6) 0.9594(5) 0.5384(3)
C6_2 C 0.6484(5) 0.9998(4) 0.4950(3)
C7_2 C 0.7760(5) 0.9058(4) 0.5243(3)
H4_2 H 0.8088 0.8781 0.5537
O2_2 O 0.6728(4) 0.9674(3) 0.5977(2)
O3_2 O 0.7397(3) 0.5492(3) 0.28591(19)
O4_2 O 0.6745(4) 0.4347(3) 0.3364(2)
O5_2 O 0.6902(4) 0.6941(4) 0.5374(2)
C8_2 C 0.7028(5) 0.5565(4) 0.3886(3)
C9_2 C 0.7073(5) 0.5098(5) 0.3348(3)
C10_2 C 0.7563(5) 0.6274(5) 0.3912(3)
H5_2 H 0.7965 0.6449 0.3586
C11_2 C 0.6923(5) 0.6478(5) 0.4881(3)
C12_2 C 0.7520(6) 0.6723(5) 0.4401(3)
H6_2 H 0.7894 0.7192 0.4409
C13_2 C 0.6451(5) 0.5306(4) 0.4382(3)
H7_2 H 0.6100 0.4819 0.4382
C14_2 C 0.6391(6) 0.5765(5) 0.4879(3)
H8_2 H 0.5994 0.5593 0.5208
C15_2 C 0.5240(6) 0.4826(5) 0.2376(3)
C16_2 C 0.4189(5) 0.5431(5) 0.3187(3)
H9_2 H 0.4693 0.5687 0.3302
C17_2 C 0.3540(6) 0.4625(5) 0.2506(3)
H10_2 H 0.3610 0.4320 0.2171
C18_2 C 0.3348(5) 0.5492(5) 0.3520(3)
H11_2 H 0.3280 0.5785 0.3860
C19_2 C 0.2605(6) 0.5110(5) 0.3340(4)
C20_2 C 0.4291(5) 0.4987(4) 0.2678(3)
C21_2 C 0.2689(5) 0.4701(5) 0.2817(3)
H12_2 H 0.2177 0.4485 0.2683
O6_2 O 0.5850(3) 0.5366(3) 0.2382(2)
O7_2 O 0.5444(3) 0.4102(3) 0.2148(2)
O8_2 O 0.1792(4) 0.5169(4) 0.3713(3)
O10_2 O 0.8863(3) 0.9996(3) 0.21865(19)
H15_2 H 0.9701 0.9210 0.1314
C30_2 C 0.7517(5) 0.8337(4) 0.1265(3)
C31_2 C 0.7245(5) 0.8276(4) 0.0675(3)
C33_2 C 0.7919(5) 0.8312(4) 0.0187(3)
H17_2 H 0.8531 0.8381 0.0241
C34_2 C 0.6349(5) 0.8192(4) 0.0584(3)
H18_2 H 0.5900 0.8173 0.0904
C35_2 C 0.6086(6) 0.8134(5) 0.0023(3)
O12_2 O 0.6986(3) 0.8042(3) 0.1719(2)
O13_2 O 0.8241(3) 0.8697(3) 0.13411(18)
O14_2 O 0.7614(4) 0.4959(4) 0.1571(2)
O15_2 O 0.6986(5) 0.6264(3) 0.1323(2)
C37_2 C 0.7265(7) 0.5987(5) 0.0144(3)
H21_2 H 0.6908 0.6478 0.0260
C38_2 C 0.7601(6) 0.5393(5) 0.0559(3)
C39_2 C 0.7381(6) 0.5548(5) 0.1195(3)
C40_2 C 0.8124(7) 0.4668(5) 0.0388(4)
H22_2 H 0.8348 0.4258 0.0668
O17_2 O 0.8310(3) 0.8553(3) 0.34366(19)
C51_2 C 0.0356(6) 0.3366(5) 0.3526(4)
H29_2 H 0.0335 0.2763 0.3620
C52_2 C 0.0380(6) 0.5171(5) 0.3293(4)
H30_2 H 0.0386 0.5780 0.3229
C54_2 C 0.1061(6) 0.4700(6) 0.3574(4)
C60_2 C 0.6032(6) 0.7135(5) 0.5664(3)
C61_2 C 0.5908(6) 0.6964(5) 0.6262(3)
H35_2 H 0.6397 0.6728 0.6462
C62_2 C 0.4345(6) 0.7518(4) 0.6276(3)
C63_2 C 0.5070(6) 0.7137(4) 0.6564(3)
H36_2 H 0.4985 0.6999 0.6968
C64_2 C 0.4502(6) 0.7724(5) 0.5668(3)
H37_2 H 0.4030 0.7997 0.5466
C65_2 C 0.5347(6) 0.7527(6) 0.5365(3)
H38_2 H 0.5445 0.7661 0.4962
C66_2 C 0.1040(6) 0.3810(6) 0.3699(4)
H39_2 H 0.1493 0.3509 0.3903
C68_2 C 0.3422(6) 0.7706(4) 0.6595(3)
O29_2 O 0.5261(4) 0.7229(4) 0.1989(3)
C78_2 C 0.4466(11) 0.7282(10) 0.2133(6)
H45_2 H 0.4224 0.6736 0.2244
N1_2 N 0.3833(8) 0.7931(8) 0.2175(5)
H46_2 H 0.5177 0.9466 0.6543
C85_2 C 0.4029(14) 0.8798(10) 0.2081(8)
H50_2 H 0.4677 0.8854 0.2094
H51_2 H 0.3862 0.9028 0.1703
H52_2 H 0.3688 0.9121 0.2380
C87_2 C 0.2912(12) 0.7760(14) 0.2376(9)
H55_2 H 0.2886 0.7182 0.2576
H56_2 H 0.2666 0.8187 0.2642
H57_2 H 0.2555 0.7795 0.2049
O35 O 0.8516(4) 0.3746(3) 0.2582(2)
C32_2 C 0.6778(6) 0.8160(5) 0.9555(3)
H19_2 H 0.5473 0.8080 0.9965
C36_2 C 0.7679(6) 0.8244(5) 0.9632(3)
H20_2 H 0.8127 0.8256 0.9311
O16_2 O 0.8134(6) 0.5075(5) 0.8785(3)
C41_2 C 0.7451(7) 0.5866(5) 0.9551(4)
H23_2 H 0.7219 0.6270 0.9271
O18_2 O 0.6588(4) 0.8032(4) 0.8989(2)
C42_2 C 0.5403(5) 0.9202(5) 0.8903(3)
H24_2 H 0.5647 0.9524 0.9168
C43_2 C 0.5795(5) 0.8391(5) 0.8776(3)
C44_2 C 0.4288(5) 0.9074(4) 0.8220(3)
C45_2 C 0.4681(5) 0.8247(4) 0.8115(3)
H25_2 H 0.4434 0.7917 0.7855
C46_2 C 0.4645(5) 0.9531(4) 0.8633(3)
C47_2 C 0.3498(5) 0.9439(4) 0.7920(3)
C48_2 C 0.5441(6) 0.7903(5) 0.8393(4)
H27_2 H 0.5704 0.7350 0.8319
C69_2 C 0.7982(7) 0.5141(6) 0.9384(4)
C70_2 C 0.8317(8) 0.4548(6) 0.9798(4)
H40_2 H 0.8678 0.4060 0.9683
C71_2 C 0.8818(9) 0.4492(7) 0.8567(4)
C72_2 C 0.9279(6) 0.3146(5) 0.8150(4)
H41_2 H 0.9128 0.2609 0.8037
C73_2 C 0.8595(7) 0.3710(6) 0.8404(4)
H42_2 H 0.7987 0.3550 0.8463
C74_2 C 0.9707(10) 0.4720(6) 0.8500(5)
H43_2 H 0.9855 0.5249 0.8628
C49_2 C 0.9686(5) 0.3807(5) 0.3208(3)
C50_2 C 0.9688(6) 0.4722(4) 0.3108(4)
H28_2 H 0.9224 0.5029 0.2918
C53_2 C 0.9025(5) 0.3318(5) 0.2952(3)
O11 O 0.7362(3) 0.0865(4) 0.9417(2)
C23 C 0.8993(6) 0.0882(5) 0.9075(3)
H13 H 0.9103 0.1264 0.9349
C24 C 0.9580(5) 0.0016(4) 0.8272(3)
C25 C 0.8121(5) 0.0604(5) 0.9060(3)
C26 C 0.7961(5) 0.0017(5) 0.8647(3)
C27 C 0.9713(5) 0.0590(4) 0.8677(3)
C29 C 0.7491(5) 0.1226(5) 0.9939(3)
H34 H 0.6750 0.2341 0.9753
H14 H 0.7374 0.9821 0.8634
C28 C 0.8697(5) 0.9737(4) 0.8260(3)
H16 H 0.8596 0.9353 0.7986
H14_2 H 0.2626 0.0179 0.1366
C28_2 C 0.1303(5) 0.0263(4) 0.1740(3)
H16_2 H 0.1404 0.0647 0.2014
O11_2 O 0.2638(3) 0.9135(4) 0.0583(2)
C23_2 C 0.1007(6) 0.9118(5) 0.0925(3)
H13_2 H 0.0897 0.8736 0.0651
C24_2 C 0.0420(5) 0.9984(4) 0.1728(3)
C25_2 C 0.1879(5) 0.9396(5) 0.0940(3)
C26_2 C 0.2039(5) 0.9983(5) 0.1353(3)
C27_2 C 0.0287(5) 0.9410(4) 0.1323(3)
C29_2 C 0.2509(5) 0.8774(5) 0.0061(3)
H34_2 H 0.3250 0.7659 0.0247
loop_
_geom_bond_atom_site_label_1
_geom_bond_atom_site_label_2
_geom_bond_site_symmetry_1
_geom_bond_site_symmetry_2
C49 C50 1_555 1_555
C50 H28 1_555 1_555
C53 C49 1_555 1_555
O21 C53 1_555 1_555
O22 C53 1_555 1_555
Gd5 O22 1_555 1_555
Gd14 O21 1_555 1_555
C36 C32 1_555 1_555
H20 C36 1_555 1_555
O16 C69 1_555 1_555
H23 C41 1_555 1_555
O18 C32 1_555 1_555
C42 H24 1_555 1_555
C43 O18 1_555 1_555
C44 C45 1_555 1_555
C45 H25 1_555 1_555
C46 C42 1_555 1_555
C47 C44 1_555 1_555
O19 C47 1_555 1_555
C48 C43 1_555 1_555
H27 C48 1_555 1_555
C69 C41 1_555 1_555
H40 C70 1_555 1_555
C71 O16 1_555 1_555
C72 H41 1_555 1_555
C73 C71 1_555 1_555
H42 C73 1_555 1_555
C74 C71 1_555 1_555
H43 C74 1_555 1_555
Gd8 O19 1_555 1_555
C42 C43 1_555 1_555
C44 C46 1_555 1_555
C45 C48 1_555 1_555
C69 C70 1_555 1_555
C72 C73 1_555 1_555
Gd2 O1 1_555 1_555
Gd3 O3 1_555 1_555
Gd14 O3 1_555 1_555
O1 C1 1_555 1_555
C1 C2 1_555 1_555
C2 C3 1_555 1_555
C4 C2 1_555 1_555
H2 C4 1_555 1_555
C5 C6 1_555 1_555
C6 C3 1_555 1_555
C7 C4 1_555 1_555
H4 C7 1_555 1_555
O2 C5 1_555 1_555
O3 C9 1_555 1_555
O4 Gd14 1_555 1_555
O5 C11 1_555 1_555
C8 C9 1_555 1_555
C9 O4 1_555 1_555
C10 C8 1_555 1_555
H5 C10 1_555 1_555
C11 C12 1_555 1_555
C12 C10 1_555 1_555
H6 C12 1_555 1_555
C13 C8 1_555 1_555
H7 C13 1_555 1_555
C14 C11 1_555 1_555
H8 C14 1_555 1_555
C15 C20 1_555 1_555
C16 H9 1_555 1_555
C17 H10 1_555 1_555
C18 C16 1_555 1_555
H11 C18 1_555 1_555
C19 C18 1_555 1_555
C20 C16 1_555 1_555
C21 C17 1_555 1_555
H12 C21 1_555 1_555
O6 Gd3 1_555 1_555
O7 Gd14 1_555 1_555
O8 C19 1_555 1_555
C30 C31 1_555 1_555
C31 C33 1_555 1_555
C33 H17 1_555 1_555
C34 C31 1_555 1_555
H18 C34 1_555 1_555
C35 C34 1_555 1_555
O12 Gd2 1_555 1_555
O13 Gd2 1_555 1_555
O14 Gd14 1_555 1_555
O15 Gd3 1_555 1_555
C37 H21 1_555 1_555
C38 C37 1_555 1_555
C39 O14 1_555 1_555
C40 C38 1_555 1_555
H22 C40 1_555 1_555
O17 Gd2 1_555 1_555
H29 C51 1_555 1_555
H30 C52 1_555 1_555
C54 O8 1_555 1_555
C60 O5 1_555 1_555
C61 C60 1_555 1_555
H35 C61 1_555 1_555
C62 C63 1_555 1_555
C63 C61 1_555 1_555
H36 C63 1_555 1_555
C64 C62 1_555 1_555
H37 C64 1_555 1_555
C65 C60 1_555 1_555
H38 C65 1_555 1_555
C66 C51 1_555 1_555
H39 C66 1_555 1_555
C68 C62 1_555 1_555
O25 C68 1_555 1_555
O26 C68 1_555 1_555
O29 Gd3 1_555 1_555
C78 O29 1_555 1_555
H45 C78 1_555 1_555
N1 C78 1_555 1_555
C85 N1 1_555 1_555
H50 C85 1_555 1_555
H51 C85 1_555 1_555
H52 C85 1_555 1_555
C87 N1 1_555 1_555
H55 C87 1_555 1_555
H56 C87 1_555 1_555
H57 C87 1_555 1_555
Gd8 O25 1_555 1_555
Gd16 O26 1_555 1_555
O34 Gd2 1_555 1_555
O37 Gd14 1_555 1_555
O41 Gd14 1_555 1_555
O42 Gd2 1_555 1_555
O43 Gd2 1_555 1_555
O44 Gd3 1_555 1_555
O45 Gd2 1_555 1_555
Gd2 O10 1_555 1_555
Gd3 O12 1_555 1_555
Gd3 O43 1_555 1_555
Gd3 O45 1_555 1_555
Gd14 O6 1_555 1_555
C1 O17 1_555 1_555
C5 C7 1_555 1_555
C13 C14 1_555 1_555
C15 O6 1_555 1_555
C15 O7 1_555 1_555
C17 C20 1_555 1_555
C19 C21 1_555 1_555
C30 O12 1_555 1_555
C30 O13 1_555 1_555
O15 C39 1_555 1_555
C38 C39 1_555 1_555
C52 C54 1_555 1_555
C54 C66 1_555 1_555
C64 C65 1_555 1_555
O26 Gd8 1_555 1_555
Gd11 O20 1_555 1_555
O9 Gd5 1_555 1_555
C22 O9 1_555 1_555
C81 C80 1_555 1_555
H47 C81 1_555 1_555
C82 C83 1_555 1_555
C83 C79 1_555 1_555
H48 C83 1_555 1_555
C84 C81 1_555 1_555
H49 C84 1_555 1_555
C86 C82 1_555 1_555
O30 C86 1_555 1_555
O31 C86 1_555 1_555
O32 Gd5 1_555 1_555
H53 O32 1_555 1_555
H54 O32 1_555 1_555
Gd11 O31 1_555 1_555
Gd13 O30 1_555 1_555
O33 Gd5 1_555 1_555
O38 Gd5 1_555 1_555
O39 Gd5 1_555 1_555
O41 Gd5 1_555 1_555
C79 C80 1_555 1_555
C82 C84 1_555 1_555
O31 Gd13 1_555 1_555
C55 H31 1_555 1_555
H32 C56 1_555 1_555
C57 C55 1_555 1_555
C58 C57 1_555 1_555
H33 C58 1_555 1_555
C67 C57 1_555 1_555
O23 C67 1_555 1_555
O24 C67 1_555 1_555
C76 C75 1_555 1_555
H44 C77 1_555 1_555
O27 C76 1_555 1_555
O28 C76 1_555 1_555
Gd8 O24 1_555 1_555
Gd11 O27 1_555 1_555
Gd13 O28 1_555 1_555
Gd16 O23 1_555 1_555
C55 C56 1_555 1_555
C58 C59 1_555 1_555
C75 C77 1_555 1_555
O28 Gd11 1_555 1_555
C55_2 H31_2 1_555 1_555
H32_2 C56_2 1_555 1_555
C57_2 C55_2 1_555 1_555
C58_2 C57_2 1_555 1_555
H33_2 C58_2 1_555 1_555
C67_2 C57_2 1_555 1_555
O37 C67_2 1_555 1_555
O38 C67_2 1_555 1_555
C76_2 C75_2 1_555 1_555
H44_2 C77_2 1_555 1_555
O42 C76_2 1_555 1_555
O43 C76_2 1_555 1_555
C55_2 C56_2 1_555 1_555
C58_2 C59_2 1_555 1_555
C75_2 C77_2 1_555 1_555
O9_2 Gd8 1_555 1_555
C22_2 O9_2 1_555 1_555
C81_2 C80_2 1_555 1_555
H47_2 C81_2 1_555 1_555
C82_2 C83_2 1_555 1_555
C83_2 C79_2 1_555 1_555
H48_2 C83_2 1_555 1_555
C84_2 C81_2 1_555 1_555
H49_2 C84_2 1_555 1_555
C86_2 C82_2 1_555 1_555
O44 C86_2 1_555 1_555
O45 C86_2 1_555 1_555
O32_2 Gd8 1_555 1_555
H53_2 O32_2 1_555 1_555
H54_2 O32_2 1_555 1_555
O36 Gd8 1_555 1_555
C79_2 C80_2 1_555 1_555
C82_2 C84_2 1_555 1_555
Gd11 O1_2 1_555 1_555
Gd13 O3_2 1_555 1_555
Gd16 O3_2 1_555 1_555
O1_2 C1_2 1_555 1_555
C1_2 C2_2 1_555 1_555
C2_2 C3_2 1_555 1_555
C4_2 C2_2 1_555 1_555
H2_2 C4_2 1_555 1_555
C5_2 C6_2 1_555 1_555
C6_2 C3_2 1_555 1_555
C7_2 C4_2 1_555 1_555
H4_2 C7_2 1_555 1_555
O2_2 C5_2 1_555 1_555
O3_2 C9_2 1_555 1_555
O4_2 Gd16 1_555 1_555
O5_2 C11_2 1_555 1_555
C8_2 C9_2 1_555 1_555
C9_2 O4_2 1_555 1_555
C10_2 C8_2 1_555 1_555
H5_2 C10_2 1_555 1_555
C11_2 C12_2 1_555 1_555
C12_2 C10_2 1_555 1_555
H6_2 C12_2 1_555 1_555
C13_2 C8_2 1_555 1_555
H7_2 C13_2 1_555 1_555
C14_2 C11_2 1_555 1_555
H8_2 C14_2 1_555 1_555
C15_2 C20_2 1_555 1_555
C16_2 H9_2 1_555 1_555
C17_2 H10_2 1_555 1_555
C18_2 C16_2 1_555 1_555
H11_2 C18_2 1_555 1_555
C19_2 C18_2 1_555 1_555
C20_2 C16_2 1_555 1_555
C21_2 C17_2 1_555 1_555
H12_2 C21_2 1_555 1_555
O6_2 Gd13 1_555 1_555
O7_2 Gd16 1_555 1_555
O8_2 C19_2 1_555 1_555
C30_2 C31_2 1_555 1_555
C31_2 C33_2 1_555 1_555
C33_2 H17_2 1_555 1_555
C34_2 C31_2 1_555 1_555
H18_2 C34_2 1_555 1_555
C35_2 C34_2 1_555 1_555
O12_2 Gd11 1_555 1_555
O13_2 Gd11 1_555 1_555
O14_2 Gd16 1_555 1_555
O15_2 Gd13 1_555 1_555
C37_2 H21_2 1_555 1_555
C38_2 C37_2 1_555 1_555
C39_2 O14_2 1_555 1_555
C40_2 C38_2 1_555 1_555
H22_2 C40_2 1_555 1_555
O17_2 Gd11 1_555 1_555
H29_2 C51_2 1_555 1_555
H30_2 C52_2 1_555 1_555
C54_2 O8_2 1_555 1_555
C60_2 O5_2 1_555 1_555
C61_2 C60_2 1_555 1_555
H35_2 C61_2 1_555 1_555
C62_2 C63_2 1_555 1_555
C63_2 C61_2 1_555 1_555
H36_2 C63_2 1_555 1_555
C64_2 C62_2 1_555 1_555
H37_2 C64_2 1_555 1_555
C65_2 C60_2 1_555 1_555
H38_2 C65_2 1_555 1_555
C66_2 C51_2 1_555 1_555
H39_2 C66_2 1_555 1_555
C68_2 C62_2 1_555 1_555
O39 C68_2 1_555 1_555
O41 C68_2 1_555 1_555
O29_2 Gd13 1_555 1_555
C78_2 O29_2 1_555 1_555
H45_2 C78_2 1_555 1_555
N1_2 C78_2 1_555 1_555
C85_2 N1_2 1_555 1_555
H50_2 C85_2 1_555 1_555
H51_2 C85_2 1_555 1_555
H52_2 C85_2 1_555 1_555
C87_2 N1_2 1_555 1_555
H55_2 C87_2 1_555 1_555
H56_2 C87_2 1_555 1_555
H57_2 C87_2 1_555 1_555
O35 Gd16 1_555 1_555
Gd11 O10_2 1_555 1_555
Gd13 O12_2 1_555 1_555
Gd16 O6_2 1_555 1_555
C1_2 O17_2 1_555 1_555
C5_2 C7_2 1_555 1_555
C13_2 C14_2 1_555 1_555
C15_2 O6_2 1_555 1_555
C15_2 O7_2 1_555 1_555
C17_2 C20_2 1_555 1_555
C19_2 C21_2 1_555 1_555
C30_2 O12_2 1_555 1_555
C30_2 O13_2 1_555 1_555
O15_2 C39_2 1_555 1_555
C38_2 C39_2 1_555 1_555
C52_2 C54_2 1_555 1_555
C54_2 C66_2 1_555 1_555
C64_2 C65_2 1_555 1_555
C36_2 C32_2 1_555 1_555
H20_2 C36_2 1_555 1_555
O16_2 C69_2 1_555 1_555
H23_2 C41_2 1_555 1_555
O18_2 C32_2 1_555 1_555
C42_2 H24_2 1_555 1_555
C43_2 O18_2 1_555 1_555
C44_2 C45_2 1_555 1_555
C45_2 H25_2 1_555 1_555
C46_2 C42_2 1_555 1_555
C47_2 C44_2 1_555 1_555
O33 C47_2 1_555 1_555
C48_2 C43_2 1_555 1_555
H27_2 C48_2 1_555 1_555
C69_2 C41_2 1_555 1_555
H40_2 C70_2 1_555 1_555
C71_2 O16_2 1_555 1_555
C72_2 H41_2 1_555 1_555
C73_2 C71_2 1_555 1_555
H42_2 C73_2 1_555 1_555
C74_2 C71_2 1_555 1_555
H43_2 C74_2 1_555 1_555
C42_2 C43_2 1_555 1_555
C44_2 C46_2 1_555 1_555
C45_2 C48_2 1_555 1_555
C69_2 C70_2 1_555 1_555
C72_2 C73_2 1_555 1_555
C49_2 C50_2 1_555 1_555
C50_2 H28_2 1_555 1_555
C53_2 C49_2 1_555 1_555
O35 C53_2 1_555 1_555
O36 C53_2 1_555 1_555
O11 C25 1_555 1_555
C23 H13 1_555 1_555
C25 C23 1_555 1_555
C26 C25 1_555 1_555
C27 C23 1_555 1_555
C29 O11 1_555 1_555
C24 C27 1_555 1_555
H16 C28 1_555 1_555
H16_2 C28_2 1_555 1_555
O11_2 C25_2 1_555 1_555
C23_2 H13_2 1_555 1_555
C25_2 C23_2 1_555 1_555
C26_2 C25_2 1_555 1_555
C27_2 C23_2 1_555 1_555
C29_2 O11_2 1_555 1_555
C24_2 C27_2 1_555 1_555

#END
