
###############################################################################
#
# This file contains modified crystal structure data generated from the
# MOF subset of the Cambridge Structural Database (CSD) v543 
# hosted by the Cambridge Crystallographic Data Centre (CCDC).
#
# This work is licensed under the Creative Commons
# Attribution-NonCommercial-ShareAlike 4.0 International License.
# To view a copy of this license, visit
# http://creativecommons.org/licenses/by-nc-sa/4.0/
# or send a letter to
# Creative Commons, PO Box 1866, Mountain View, CA 94042, USA.
#
# CIF created using the CSD Python API on 29 September 2022
# The structure has been converted into the P1 space group
# The structure has a 3D framework
# The original CSD entry VUKTAY is in the triclinic crystal system
# The framework has been calculated to contain at least 10.0% void space
# The void calculation uses a probe of radius 1.32A, grid spacing 0.4
#
###############################################################################

data_VUKTAY
_chemical_formula_moiety         '(C174 H114 N2 O64 Sm8)n'
_symmetry_cell_setting           triclinic
_symmetry_space_group_name_H-M   'P 1'
_symmetry_Int_Tables_number      1
_space_group_name_Hall           'P 1'
loop_
_symmetry_equiv_pos_site_id
_symmetry_equiv_pos_as_xyz
1 x,y,z
_cell_length_a                   14.604(3)
_cell_length_b                   15.309(3)
_cell_length_c                   22.870(5)
_cell_angle_alpha                84.603(3)
_cell_angle_beta                 83.640(3)
_cell_angle_gamma                86.655(3)
_cell_volume                     5053.17
loop_
_atom_site_label
_atom_site_type_symbol
_atom_site_fract_x
_atom_site_fract_y
_atom_site_fract_z
C22 C 0.0691(6) 0.0031(5) 0.2321(4)
C32 C 0.1464(6) 0.0362(6) 0.2501(4)
H21 H 0.1409 0.0643 0.2847
C41 C 0.2310(6) 0.0284(6) 0.2179(4)
H31 H 0.2824 0.0500 0.2313
C60 C 0.3920(7) 0.0280(7) 0.1429(4)
C70 C 0.3927(6) 0.1159(7) 0.1295(4)
C77 C 0.5309(6) 0.0280(6) 0.1880(4)
C78 C 0.4599(7) 0.1633(6) 0.1481(4)
H51 H 0.3479 0.1444 0.1078
C84 C 0.5278(5) 0.1176(6) 0.1777(4)
H55 H 0.4594 0.2241 0.1409
C86 C 0.5959(7) 0.1680(6) 0.2044(3)
O42 O 0.6014(4) 0.2483(4) 0.1910(2)
O43 O 0.6462(4) 0.1252(3) 0.2408(3)
Sm13 Sm 0.68093(3) 0.37056(3) 0.21673(2)
Sm14 Sm 0.79191(3) 0.09765(3) 0.26424(2)
C13 C 0.0532(14) 0.7679(14) 0.2875(7)
H5 H 0.0771 0.8223 0.2752
N1 N 0.1172(8) 0.7105(10) 0.2836(6)
C31 C 0.0789(6) 0.9580(6) 0.1811(4)
C35 C 0.0972(17) 0.6237(13) 0.2932(9)
C36 C 0.2124(13) 0.7228(15) 0.2612(11)
H20 H 0.0285 0.9322 0.1695
C40 C 0.1637(6) 0.9522(6) 0.1481(4)
H24 H 0.0321 0.6182 0.2926
H25 H 0.1149 0.6003 0.3310
H26 H 0.1304 0.5917 0.2628
H27 H 0.2152 0.7623 0.2259
H28 H 0.2420 0.6672 0.2524
H29 H 0.2434 0.7471 0.2904
C45 C 0.2403(6) 0.9884(6) 0.1654(4)
H30 H 0.1697 0.9235 0.1137
O31 O 0.3196(4) 0.9817(4) 0.1285(3)
C62 C 0.0366(6) 0.5463(5) 0.6372(3)
C63 C 0.0330(6) 0.6747(5) 0.6886(4)
C69 C 0.4610(6) 0.9834(6) 0.1686(4)
C73 C 0.0723(5) 0.5925(5) 0.6778(3)
H44 H 0.0639 0.4921 0.6281
H45 H 0.0583 0.7076 0.7145
H50 H 0.4622 0.9224 0.1735
C81 C 0.1509(6) 0.5555(6) 0.7087(4)
H54 H 0.5779 0.9980 0.2072
O36 O 0.1833(4) 0.6043(3) 0.7430(3)
O37 O 0.1833(4) 0.4802(3) 0.6997(2)
Sm7 Sm 0.31907(3) 0.62944(3) 0.78327(2)
Sm8 Sm 0.29218(3) 0.37998(3) 0.74063(2)
C66 C 0.0388(6) 0.4300(6) 0.8327(4)
H48 H 0.0929 0.4479 0.8105
C75 C 0.0252(6) 0.3426(5) 0.8448(3)
C80 C 0.0496(7) 0.7279(6) 0.9333(4)
C83 C 0.0915(6) 0.2751(5) 0.8178(3)
C85 C 0.0644(6) 0.7484(5) 0.8731(4)
H56 H 0.0040 0.7982 0.8024
H57 H 0.0972 0.7016 0.9536
C87 C 0.1588(6) 0.7291(5) 0.8421(4)
O40 O 0.0706(4) 0.1959(4) 0.8205(3)
O41 O 0.1669(4) 0.2990(3) 0.7905(2)
Sm12 Sm 0.17124(3) 0.16640(3) 0.72767(2)
O44 O 0.2135(4) 0.6731(4) 0.8654(2)
O45 O 0.1805(4) 0.7657(3) 0.7902(2)
Sm15 Sm 0.20809(3) 0.90235(3) 0.73576(2)
C11 C 0.9758(6) 0.0175(6) 0.2618(4)
O22 O 0.9561(4) 0.0879(4) 0.2864(3)
O23 O 0.8218(5) 0.0669(4) 0.1608(2)
O24 O 0.7672(5) 0.1930(4) 0.3383(2)
H16 H 0.4845 0.0245 0.3618
H22 H 0.8895 0.0176 0.0612
O29 O 0.3131(6) 0.0079(5) 0.3779(3)
C48 C 0.2990(8) 0.0162(6) 0.4371(4)
C54 C 0.2445(8) 0.0877(6) 0.4535(4)
C64 C 0.2269(8) 0.1009(6) 0.5130(4)
H38 H 0.2197 0.1268 0.4251
C74 C 0.2589(7) 0.0398(6) 0.5543(4)
H46 H 0.1935 0.1511 0.5246
C82 C 0.2374(7) 0.0575(6) 0.6180(4)
O33 O 0.8195(4) 0.2343(3) 0.2098(2)
O38 O 0.2625(5) 0.0006(5) 0.6578(3)
O39 O 0.1969(6) 0.1290(4) 0.6309(3)
Sm1 Sm 0.70782(3) 0.62002(3) 0.25937(2)
O1 O 0.6104(3) 0.5008(3) 0.2808(2)
O2 O 0.7996(4) 0.6963(3) 0.3286(2)
O3 O 0.6736(4) 0.6315(3) 0.3669(2)
O4 O 0.5616(4) 0.7031(4) 0.2664(3)
O5 O 0.8331(4) 0.7010(3) 0.2095(2)
O6 O 0.6698(4) 0.7934(4) 0.2716(3)
O7 O 0.8167(4) 0.5198(3) 0.3003(2)
O8 O 0.7395(4) 0.5195(3) 0.1786(2)
O9 O 0.6677(4) 0.6453(3) 0.1544(2)
C1 C 0.5314(6) 0.4666(5) 0.2856(4)
Sm3 Sm 0.82876(3) 0.83360(3) 0.27233(2)
C2 C 0.7466(6) 0.6660(5) 0.3739(4)
C3 C 0.5863(6) 0.7745(6) 0.2800(3)
C4 C 0.7131(6) 0.5794(5) 0.1391(4)
O10 O 0.5181(4) 0.4032(4) 0.2567(2)
O11 O 0.5958(4) 0.4255(4) 0.1320(3)
O12 O 0.7865(4) 0.3269(4) 0.1346(2)
O14 O 0.8167(4) 0.3957(3) 0.2570(3)
O15 O 0.6684(4) 0.3000(4) 0.3128(3)
C5 C 0.4552(6) 0.5013(5) 0.3275(3)
O17 O 0.9133(4) 0.9634(3) 0.2606(3)
O18 O 0.7582(4) 0.9520(3) 0.2125(2)
O19 O 0.9294(4) 0.8041(4) 0.1795(3)
O20 O 0.9740(5) 0.7780(5) 0.3009(4)
O21 O 0.8031(6) 0.8710(4) 0.3691(3)
C6 C 0.7737(6) 0.6717(5) 0.4343(3)
C7 C 0.5163(6) 0.8383(5) 0.3059(3)
C8 C 0.7423(6) 0.5664(5) 0.0760(4)
H1 H 0.5399 0.4443 0.1326
H2 H 0.6264 0.4536 0.1031
C9 C 0.4698(6) 0.5582(5) 0.3682(3)
C10 C 0.3659(6) 0.4739(5) 0.3260(4)
C12 C 0.7918(6) 0.9898(5) 0.1639(4)
C14 C 0.8650(6) 0.6813(5) 0.4419(4)
C15 C 0.7075(6) 0.6684(5) 0.4824(3)
C16 C 0.5388(7) 0.9162(6) 0.3225(4)
C17 C 0.4267(7) 0.8156(6) 0.3152(5)
C18 C 0.8216(6) 0.5121(5) 0.0623(4)
C19 C 0.6984(6) 0.6073(5) 0.0313(4)
C20 C 0.3979(6) 0.5870(5) 0.4067(4)
H3 H 0.5287 0.5773 0.3697
C21 C 0.2952(6) 0.5033(6) 0.3648(4)
H4 H 0.3545 0.4357 0.2986
O26 O 0.7375(5) 0.9994(5) 0.3422(3)
C23 C 0.7942(6) 0.9444(5) 0.1099(3)
H6 H 0.9092 0.6845 0.4093
C24 C 0.8910(6) 0.6863(5) 0.4978(4)
H7 H 0.6461 0.6615 0.4773
C25 C 0.7324(7) 0.6752(5) 0.5378(4)
H8 H 0.5996 0.9328 0.3165
C26 C 0.4691(10) 0.9719(7) 0.3491(5)
H9 H 0.4113 0.7613 0.3052
C27 C 0.3585(8) 0.8716(8) 0.3392(5)
H10 H 0.8538 0.4845 0.0923
C28 C 0.8513(6) 0.5001(5) 0.0037(4)
H11 H 0.6482 0.6458 0.0401
H12 H 0.4086 0.6259 0.4338
C30 C 0.3121(6) 0.5596(6) 0.4058(4)
H13 H 0.2358 0.4854 0.3636
C33 C 0.8535(6) 0.9696(5) 0.0608(4)
C34 C 0.7416(6) 0.8741(5) 0.1084(4)
H14 H 0.9525 0.6909 0.5034
C37 C 0.8233(7) 0.6843(6) 0.5451(4)
H15 H 0.6879 0.6737 0.5702
C38 C 0.3809(9) 0.9497(8) 0.3561(5)
H17 H 0.2974 0.8560 0.3438
O27 O 0.2358(4) 0.5869(4) 0.4420(3)
C42 C 0.8600(6) 0.9238(6) 0.0109(4)
H23 H 0.7013 0.8567 0.1413
C43 C 0.7474(6) 0.8282(6) 0.0586(4)
O28 O 0.8428(5) 0.6977(4) 0.6017(3)
C44 C 0.2492(6) 0.6238(7) 0.4936(4)
C46 C 0.8079(6) 0.8535(6) 0.0102(4)
H33 H 0.7108 0.7807 0.0579
C47 C 0.9220(6) 0.6618(6) 0.6228(4)
C50 C 0.2980(6) 0.5781(6) 0.5351(4)
C51 C 0.2080(6) 0.7037(7) 0.5022(4)
C52 C 0.9606(6) 0.5802(6) 0.6099(4)
C53 C 0.9575(7) 0.7085(6) 0.6620(4)
C55 C 0.3309(8) 0.9548(7) 0.4802(4)
H34 H 0.3251 0.5231 0.5282
C58 C 0.3067(6) 0.6135(6) 0.5866(4)
C59 C 0.2186(7) 0.7402(6) 0.5552(4)
H35 H 0.1738 0.7336 0.4740
H36 H 0.9357 0.5484 0.5833
H37 H 0.9307 0.7631 0.6706
C65 C 0.3112(7) 0.9681(6) 0.5391(4)
H39 H 0.3654 0.9049 0.4691
H42 H 0.3394 0.5819 0.6150
C68 C 0.2679(6) 0.6953(6) 0.5971(4)
H43 H 0.1918 0.7955 0.5619
H47 H 0.3337 0.9283 0.5680
C76 C 0.2777(7) 0.7386(6) 0.6525(4)
H53 H 0.9537 0.7315 0.0040
O34 O 0.3316(4) 0.7000(4) 0.6872(3)
O35 O 0.2328(5) 0.8070(4) 0.6617(2)
O1_2 O 0.3896(3) 0.4992(3) 0.7192(2)
O2_2 O 0.2004(4) 0.3037(3) 0.6714(2)
O3_2 O 0.3264(4) 0.3685(3) 0.6331(2)
O4_2 O 0.4384(4) 0.2969(4) 0.7336(3)
O6_2 O 0.3302(4) 0.2066(4) 0.7284(3)
O8_2 O 0.2605(4) 0.4805(3) 0.8214(2)
O9_2 O 0.3323(4) 0.3547(3) 0.8456(2)
C1_2 C 0.4686(6) 0.5334(5) 0.7144(4)
C2_2 C 0.2534(6) 0.3340(5) 0.6261(4)
C3_2 C 0.4137(6) 0.2255(6) 0.7200(3)
C4_2 C 0.2869(6) 0.4206(5) 0.8609(4)
O10_2 O 0.4819(4) 0.5968(4) 0.7433(2)
O11_2 O 0.4042(4) 0.5745(4) 0.8680(3)
O16 O 0.3986(4) 0.7517(4) 0.8090(2)
C5_2 C 0.5448(6) 0.4987(5) 0.6725(3)
O17_2 O 0.0867(4) 0.0366(3) 0.7394(3)
O18_2 O 0.2418(4) 0.0480(3) 0.7875(2)
O20_2 O 0.0260(5) 0.2220(5) 0.6991(4)
C6_2 C 0.2263(6) 0.3283(5) 0.5657(3)
C7_2 C 0.4837(6) 0.1617(5) 0.6941(3)
C8_2 C 0.2577(6) 0.4336(5) 0.9240(4)
H1_2 H 0.4601 0.5557 0.8674
H2_2 H 0.3736 0.5464 0.8969
C9_2 C 0.5302(6) 0.4418(5) 0.6318(3)
C10_2 C 0.6341(6) 0.5261(5) 0.6740(4)
C12_2 C 0.2082(6) 0.0102(5) 0.8361(4)
C14_2 C 0.1350(6) 0.3187(5) 0.5581(4)
C15_2 C 0.2925(6) 0.3316(5) 0.5176(3)
C16_2 C 0.4612(7) 0.0838(6) 0.6775(4)
C17_2 C 0.5733(7) 0.1844(6) 0.6848(5)
C18_2 C 0.1784(6) 0.4879(5) 0.9377(4)
C19_2 C 0.3016(6) 0.3927(5) 0.9687(4)
C20_2 C 0.6021(6) 0.4130(5) 0.5933(4)
H3_2 H 0.4713 0.4227 0.6303
C21_2 C 0.7048(6) 0.4967(6) 0.6352(4)
H4_2 H 0.6455 0.5643 0.7014
C23_2 C 0.2058(6) 0.0556(5) 0.8901(3)
H6_2 H 0.0908 0.3155 0.5907
C24_2 C 0.1090(6) 0.3137(5) 0.5022(4)
H7_2 H 0.3539 0.3385 0.5227
C25_2 C 0.2676(7) 0.3248(5) 0.4622(4)
H8_2 H 0.4004 0.0672 0.6835
C26_2 C 0.5309(10) 0.0281(7) 0.6509(5)
H9_2 H 0.5887 0.2387 0.6948
C27_2 C 0.6415(8) 0.1284(8) 0.6608(5)
H10_2 H 0.1462 0.5155 0.9077
C28_2 C 0.1487(6) 0.4999(5) 0.9963(4)
H11_2 H 0.3518 0.3542 0.9599
H12_2 H 0.5914 0.3741 0.5662
C30_2 C 0.6879(6) 0.4404(6) 0.5942(4)
H13_2 H 0.7642 0.5146 0.6364
C33_2 C 0.1465(6) 0.0304(5) 0.9392(4)
C34_2 C 0.2584(6) 0.1259(5) 0.8916(4)
H14_2 H 0.0475 0.3091 0.4966
C37_2 C 0.1767(7) 0.3157(6) 0.4549(4)
H15_2 H 0.3121 0.3263 0.4298
C38_2 C 0.6191(9) 0.0503(8) 0.6439(5)
H17_2 H 0.7026 0.1440 0.6562
O27_2 O 0.7642(4) 0.4131(4) 0.5580(3)
C42_2 C 0.1400(6) 0.0762(6) 0.9891(4)
H23_2 H 0.2987 0.1433 0.8587
C43_2 C 0.2526(6) 0.1718(6) 0.9414(4)
O28_2 O 0.1572(5) 0.3023(4) 0.3983(3)
C44_2 C 0.7508(6) 0.3762(7) 0.5064(4)
C46_2 C 0.1921(6) 0.1465(6) 0.9898(4)
H33_2 H 0.2892 0.2193 0.9421
C47_2 C 0.0780(6) 0.3382(6) 0.3772(4)
C50_2 C 0.7020(6) 0.4219(6) 0.4649(4)
C51_2 C 0.7920(6) 0.2963(7) 0.4978(4)
C52_2 C 0.0394(6) 0.4198(6) 0.3901(4)
C53_2 C 0.0425(7) 0.2915(6) 0.3380(4)
C55_2 C 0.6691(8) 0.0452(7) 0.5198(4)
H34_2 H 0.6749 0.4769 0.4718
C58_2 C 0.6933(6) 0.3865(6) 0.4134(4)
C59_2 C 0.7814(7) 0.2598(6) 0.4448(4)
H35_2 H 0.8262 0.2664 0.5260
H36_2 H 0.0643 0.4516 0.4167
H37_2 H 0.0693 0.2369 0.3294
C65_2 C 0.6888(7) 0.0319(6) 0.4609(4)
H39_2 H 0.6346 0.0951 0.5309
H42_2 H 0.6606 0.4181 0.3850
C68_2 C 0.7321(6) 0.3047(6) 0.4029(4)
H43_2 H 0.8082 0.2045 0.4381
H47_2 H 0.6663 0.0717 0.4320
C76_2 C 0.7223(7) 0.2614(6) 0.3475(4)
H53_2 H 0.0463 0.2685 0.9960
C11_2 C 0.0242(6) 0.9825(6) 0.7382(4)
O22_2 O 0.0439(4) 0.9121(4) 0.7136(3)
O23_2 O 0.1782(5) 0.9331(4) 0.8392(2)
O25 O 0.3538(4) 0.8748(3) 0.7592(3)
H16_2 H 0.5155 0.9755 0.6382
H22_2 H 0.1105 0.9824 0.9388
O29_2 O 0.6869(6) 0.9921(5) 0.6221(3)
C48_2 C 0.7010(8) 0.9838(6) 0.5629(4)
C54_2 C 0.7555(8) 0.9123(6) 0.5465(4)
C64_2 C 0.7731(8) 0.8991(6) 0.4870(4)
H38_2 H 0.7803 0.8732 0.5749
C74_2 C 0.7411(7) 0.9602(6) 0.4457(4)
H46_2 H 0.8065 0.8489 0.4754
C82_2 C 0.7626(7) 0.9425(6) 0.3820(4)
C66_2 C 0.9612(6) 0.5700(6) 0.1673(4)
H48_2 H 0.9071 0.5521 0.1895
C75_2 C 0.9748(6) 0.6574(5) 0.1552(3)
C80_2 C 0.9504(7) 0.2721(6) 0.0667(4)
C83_2 C 0.9085(6) 0.7249(5) 0.1822(3)
C85_2 C 0.9356(6) 0.2516(5) 0.1269(4)
H56_2 H 0.9960 0.2018 0.1976
H57_2 H 0.9028 0.2984 0.0464
C87_2 C 0.8412(6) 0.2709(5) 0.1579(4)
C13_2 C 0.9468(14) 0.2321(14) 0.7125(7)
H5_2 H 0.9229 0.1777 0.7248
N1_2 N 0.8828(8) 0.2895(10) 0.7164(6)
C31_2 C 0.9211(6) 0.0420(6) 0.8189(4)
C35_2 C 0.9028(17) 0.3763(13) 0.7068(9)
C36_2 C 0.7876(13) 0.2772(15) 0.7388(11)
H20_2 H 0.9715 0.0678 0.8305
C40_2 C 0.8363(6) 0.0478(6) 0.8519(4)
H24_2 H 0.9679 0.3818 0.7074
H25_2 H 0.8851 0.3997 0.6690
H26_2 H 0.8696 0.4083 0.7372
H27_2 H 0.7848 0.2377 0.7741
H28_2 H 0.7580 0.3328 0.7476
H29_2 H 0.7566 0.2529 0.7096
C45_2 C 0.7597(6) 0.0116(6) 0.8346(4)
H30_2 H 0.8303 0.0765 0.8863
O31_2 O 0.6804(4) 0.0183(4) 0.8715(3)
C62_2 C 0.9634(6) 0.4537(5) 0.3628(3)
C63_2 C 0.9670(6) 0.3253(5) 0.3114(4)
C69_2 C 0.5390(6) 0.0166(6) 0.8314(4)
C73_2 C 0.9277(5) 0.4075(5) 0.3222(3)
H44_2 H 0.9361 0.5079 0.3719
H45_2 H 0.9417 0.2924 0.2855
H50_2 H 0.5378 0.0776 0.8265
C81_2 C 0.8491(6) 0.4445(6) 0.2913(4)
H54_2 H 0.4221 0.0020 0.7928
C22_2 C 0.9309(6) 0.9969(5) 0.7679(4)
C32_2 C 0.8536(6) 0.9638(6) 0.7499(4)
H21_2 H 0.8591 0.9357 0.7153
C41_2 C 0.7690(6) 0.9716(6) 0.7821(4)
H31_2 H 0.7176 0.9500 0.7687
C60_2 C 0.6080(7) 0.9720(7) 0.8571(4)
C70_2 C 0.6073(6) 0.8841(7) 0.8705(4)
C77_2 C 0.4691(6) 0.9720(6) 0.8120(4)
C78_2 C 0.5401(7) 0.8367(6) 0.8519(4)
H51_2 H 0.6521 0.8556 0.8922
C84_2 C 0.4722(5) 0.8824(6) 0.8223(4)
H55_2 H 0.5406 0.7759 0.8591
C86_2 C 0.4041(7) 0.8320(6) 0.7956(3)
C29 C 0.7256(6) 0.5938(5) 0.9735(4)
C39 C 0.8036(7) 0.5398(6) 0.9598(4)
H18 H 0.9040 0.4649 0.9944
H19 H 0.6923 0.6204 0.9436
O30 O 0.8275(4) 0.5325(4) 0.9010(2)
H32 H 0.9000 0.9413 0.9779
C49 C 0.8941(7) 0.4682(6) 0.8844(4)
O32 O 0.8091(4) 0.8058(4) 0.9617(3)
C56 C 0.9730(7) 0.4929(6) 0.8529(4)
C57 C 0.8775(6) 0.3809(6) 0.8969(4)
C61 C 0.8974(7) 0.7857(6) 0.9333(4)
H40 H 0.9837 0.5522 0.8445
C67 C 0.9421(6) 0.3166(6) 0.8761(4)
H41 H 0.8231 0.3643 0.9193
C71 C 0.9096(6) 0.8031(5) 0.8742(4)
C72 C 0.9644(7) 0.7462(6) 0.9635(4)
H49 H 0.9298 0.2574 0.8831
C79 C 0.9949(7) 0.7852(5) 0.8431(4)
H52 H 0.8608 0.8271 0.8541
C29_2 C 0.2744(6) 0.4062(5) 0.0265(4)
C39_2 C 0.1964(7) 0.4602(6) 0.0402(4)
H18_2 H 0.0960 0.5351 0.0056
H19_2 H 0.3077 0.3796 0.0564
O30_2 O 0.1725(4) 0.4675(4) 0.0990(2)
H32_2 H 0.1000 0.0587 0.0221
C49_2 C 0.1059(7) 0.5318(6) 0.1156(4)
O32_2 O 0.1909(4) 0.1942(4) 0.0383(3)
C56_2 C 0.0270(7) 0.5071(6) 0.1471(4)
C57_2 C 0.1225(6) 0.6191(6) 0.1031(4)
C61_2 C 0.1026(7) 0.2143(6) 0.0667(4)
H40_2 H 0.0163 0.4478 0.1555
C67_2 C 0.0579(6) 0.6834(6) 0.1239(4)
H41_2 H 0.1769 0.6357 0.0807
C71_2 C 0.0904(6) 0.1969(5) 0.1258(4)
C72_2 C 0.0356(7) 0.2538(6) 0.0365(4)
H49_2 H 0.0702 0.7426 0.1169
C79_2 C 0.0051(7) 0.2148(5) 0.1569(4)
H52_2 H 0.1392 0.1729 0.1459
loop_
_geom_bond_atom_site_label_1
_geom_bond_atom_site_label_2
_geom_bond_site_symmetry_1
_geom_bond_site_symmetry_2
C32 C22 1_555 1_555
H21 C32 1_555 1_555
C41 C32 1_555 1_555
H31 C41 1_555 1_555
C70 C60 1_555 1_555
C78 C70 1_555 1_555
H51 C70 1_555 1_555
C84 C77 1_555 1_555
H55 C78 1_555 1_555
C86 C84 1_555 1_555
O42 C86 1_555 1_555
O43 C86 1_555 1_555
Sm13 O42 1_555 1_555
Sm14 O43 1_555 1_555
C78 C84 1_555 1_555
H5 C13 1_555 1_555
N1 C13 1_555 1_555
C35 N1 1_555 1_555
C36 N1 1_555 1_555
H20 C31 1_555 1_555
C40 C31 1_555 1_555
H24 C35 1_555 1_555
H25 C35 1_555 1_555
H26 C35 1_555 1_555
H27 C36 1_555 1_555
H28 C36 1_555 1_555
H29 C36 1_555 1_555
C45 C40 1_555 1_555
H30 C40 1_555 1_555
O31 C45 1_555 1_555
C73 C62 1_555 1_555
H44 C62 1_555 1_555
H45 C63 1_555 1_555
H50 C69 1_555 1_555
C81 C73 1_555 1_555
O36 C81 1_555 1_555
O37 C81 1_555 1_555
Sm7 O36 1_555 1_555
Sm8 O37 1_555 1_555
C63 C73 1_555 1_555
H48 C66 1_555 1_555
C75 C66 1_555 1_555
C83 C75 1_555 1_555
H57 C80 1_555 1_555
C87 C85 1_555 1_555
O40 C83 1_555 1_555
O41 C83 1_555 1_555
Sm8 O41 1_555 1_555
Sm7 O44 1_555 1_555
Sm12 O40 1_555 1_555
O44 C87 1_555 1_555
O45 C87 1_555 1_555
Sm15 O45 1_555 1_555
C80 C85 1_555 1_555
O41 Sm12 1_555 1_555
Sm7 O45 1_555 1_555
O22 Sm14 1_555 1_555
O23 Sm14 1_555 1_555
O24 Sm14 1_555 1_555
C48 O29 1_555 1_555
C54 C48 1_555 1_555
C64 C54 1_555 1_555
H38 C54 1_555 1_555
C74 C64 1_555 1_555
H46 C64 1_555 1_555
C82 C74 1_555 1_555
O33 Sm14 1_555 1_555
O38 C82 1_555 1_555
O39 C82 1_555 1_555
Sm12 O39 1_555 1_555
C11 O22 1_555 1_555
Sm1 O1 1_555 1_555
O1 Sm13 1_555 1_555
O2 Sm1 1_555 1_555
O3 Sm1 1_555 1_555
O4 Sm1 1_555 1_555
O5 Sm1 1_555 1_555
O6 Sm1 1_555 1_555
O7 Sm1 1_555 1_555
O8 Sm1 1_555 1_555
O9 Sm1 1_555 1_555
Sm13 O8 1_555 1_555
C1 O1 1_555 1_555
Sm3 O2 1_555 1_555
C2 O2 1_555 1_555
C3 O4 1_555 1_555
C4 O8 1_555 1_555
O10 Sm13 1_555 1_555
O11 Sm13 1_555 1_555
O12 Sm13 1_555 1_555
O33 Sm13 1_555 1_555
O14 Sm13 1_555 1_555
O15 Sm13 1_555 1_555
C5 C1 1_555 1_555
O17 Sm3 1_555 1_555
O18 Sm3 1_555 1_555
O19 Sm3 1_555 1_555
O20 Sm3 1_555 1_555
O21 Sm3 1_555 1_555
C6 C2 1_555 1_555
C7 C3 1_555 1_555
C8 C4 1_555 1_555
H1 O11 1_555 1_555
H2 O11 1_555 1_555
C9 C5 1_555 1_555
C10 C5 1_555 1_555
C12 O18 1_555 1_555
C14 C6 1_555 1_555
C15 C6 1_555 1_555
C16 C7 1_555 1_555
C17 C7 1_555 1_555
C18 C8 1_555 1_555
C19 C8 1_555 1_555
C20 C9 1_555 1_555
H3 C9 1_555 1_555
C21 C10 1_555 1_555
H4 C10 1_555 1_555
C23 C12 1_555 1_555
H6 C14 1_555 1_555
C24 C14 1_555 1_555
H7 C15 1_555 1_555
C25 C15 1_555 1_555
H8 C16 1_555 1_555
C26 C16 1_555 1_555
H9 C17 1_555 1_555
C27 C17 1_555 1_555
H10 C18 1_555 1_555
C28 C18 1_555 1_555
H11 C19 1_555 1_555
H12 C20 1_555 1_555
C30 C20 1_555 1_555
H13 C21 1_555 1_555
C33 C23 1_555 1_555
C34 C23 1_555 1_555
H14 C24 1_555 1_555
C37 C24 1_555 1_555
H15 C25 1_555 1_555
C38 C26 1_555 1_555
H17 C27 1_555 1_555
O27 C30 1_555 1_555
C42 C33 1_555 1_555
H23 C34 1_555 1_555
C43 C34 1_555 1_555
O28 C37 1_555 1_555
C44 O27 1_555 1_555
C46 C42 1_555 1_555
H33 C43 1_555 1_555
C47 O28 1_555 1_555
C50 C44 1_555 1_555
C51 C44 1_555 1_555
C52 C47 1_555 1_555
C53 C47 1_555 1_555
H34 C50 1_555 1_555
C58 C50 1_555 1_555
C59 C51 1_555 1_555
H35 C51 1_555 1_555
H36 C52 1_555 1_555
H37 C53 1_555 1_555
C65 C55 1_555 1_555
H39 C55 1_555 1_555
H42 C58 1_555 1_555
C68 C58 1_555 1_555
H43 C59 1_555 1_555
H47 C65 1_555 1_555
C76 C68 1_555 1_555
O34 C76 1_555 1_555
O35 C76 1_555 1_555
Sm7 O34 1_555 1_555
Sm15 O35 1_555 1_555
O3 C2 1_555 1_555
O5 Sm3 1_555 1_555
O6 Sm3 1_555 1_555
O6 C3 1_555 1_555
O9 C4 1_555 1_555
C1 O10 1_555 1_555
C21 C30 1_555 1_555
C25 C37 1_555 1_555
C27 C38 1_555 1_555
C43 C46 1_555 1_555
C59 C68 1_555 1_555
Sm8 O1_2 1_555 1_555
O1_2 Sm7 1_555 1_555
O2_2 Sm8 1_555 1_555
O3_2 Sm8 1_555 1_555
O4_2 Sm8 1_555 1_555
O6_2 Sm8 1_555 1_555
O8_2 Sm8 1_555 1_555
O9_2 Sm8 1_555 1_555
Sm7 O8_2 1_555 1_555
C1_2 O1_2 1_555 1_555
Sm12 O2_2 1_555 1_555
C2_2 O2_2 1_555 1_555
C3_2 O4_2 1_555 1_555
C4_2 O8_2 1_555 1_555
O10_2 Sm7 1_555 1_555
O11_2 Sm7 1_555 1_555
O16 Sm7 1_555 1_555
C5_2 C1_2 1_555 1_555
O17_2 Sm12 1_555 1_555
O18_2 Sm12 1_555 1_555
O20_2 Sm12 1_555 1_555
C6_2 C2_2 1_555 1_555
C7_2 C3_2 1_555 1_555
C8_2 C4_2 1_555 1_555
H1_2 O11_2 1_555 1_555
H2_2 O11_2 1_555 1_555
C9_2 C5_2 1_555 1_555
C10_2 C5_2 1_555 1_555
C12_2 O18_2 1_555 1_555
C14_2 C6_2 1_555 1_555
C15_2 C6_2 1_555 1_555
C16_2 C7_2 1_555 1_555
C17_2 C7_2 1_555 1_555
C18_2 C8_2 1_555 1_555
C19_2 C8_2 1_555 1_555
C20_2 C9_2 1_555 1_555
H3_2 C9_2 1_555 1_555
C21_2 C10_2 1_555 1_555
H4_2 C10_2 1_555 1_555
C23_2 C12_2 1_555 1_555
H6_2 C14_2 1_555 1_555
C24_2 C14_2 1_555 1_555
H7_2 C15_2 1_555 1_555
C25_2 C15_2 1_555 1_555
H8_2 C16_2 1_555 1_555
C26_2 C16_2 1_555 1_555
H9_2 C17_2 1_555 1_555
C27_2 C17_2 1_555 1_555
H10_2 C18_2 1_555 1_555
C28_2 C18_2 1_555 1_555
H11_2 C19_2 1_555 1_555
H12_2 C20_2 1_555 1_555
C30_2 C20_2 1_555 1_555
H13_2 C21_2 1_555 1_555
C33_2 C23_2 1_555 1_555
C34_2 C23_2 1_555 1_555
H14_2 C24_2 1_555 1_555
C37_2 C24_2 1_555 1_555
H15_2 C25_2 1_555 1_555
C38_2 C26_2 1_555 1_555
H17_2 C27_2 1_555 1_555
O27_2 C30_2 1_555 1_555
C42_2 C33_2 1_555 1_555
H23_2 C34_2 1_555 1_555
C43_2 C34_2 1_555 1_555
O28_2 C37_2 1_555 1_555
C44_2 O27_2 1_555 1_555
C46_2 C42_2 1_555 1_555
H33_2 C43_2 1_555 1_555
C47_2 O28_2 1_555 1_555
C50_2 C44_2 1_555 1_555
C51_2 C44_2 1_555 1_555
C52_2 C47_2 1_555 1_555
C53_2 C47_2 1_555 1_555
H34_2 C50_2 1_555 1_555
C58_2 C50_2 1_555 1_555
C59_2 C51_2 1_555 1_555
H35_2 C51_2 1_555 1_555
H36_2 C52_2 1_555 1_555
H37_2 C53_2 1_555 1_555
C65_2 C55_2 1_555 1_555
H39_2 C55_2 1_555 1_555
H42_2 C58_2 1_555 1_555
C68_2 C58_2 1_555 1_555
H43_2 C59_2 1_555 1_555
H47_2 C65_2 1_555 1_555
C76_2 C68_2 1_555 1_555
O15 C76_2 1_555 1_555
O24 C76_2 1_555 1_555
O3_2 C2_2 1_555 1_555
O6_2 Sm12 1_555 1_555
O6_2 C3_2 1_555 1_555
O9_2 C4_2 1_555 1_555
C1_2 O10_2 1_555 1_555
C21_2 C30_2 1_555 1_555
C25_2 C37_2 1_555 1_555
C27_2 C38_2 1_555 1_555
C43_2 C46_2 1_555 1_555
C59_2 C68_2 1_555 1_555
O22_2 Sm15 1_555 1_555
O23_2 Sm15 1_555 1_555
O25 Sm15 1_555 1_555
C48_2 O29_2 1_555 1_555
C54_2 C48_2 1_555 1_555
C64_2 C54_2 1_555 1_555
H38_2 C54_2 1_555 1_555
C74_2 C64_2 1_555 1_555
H46_2 C64_2 1_555 1_555
C82_2 C74_2 1_555 1_555
O26 C82_2 1_555 1_555
O21 C82_2 1_555 1_555
C11_2 O22_2 1_555 1_555
H48_2 C66_2 1_555 1_555
C75_2 C66_2 1_555 1_555
C83_2 C75_2 1_555 1_555
H57_2 C80_2 1_555 1_555
C87_2 C85_2 1_555 1_555
O19 C83_2 1_555 1_555
O5 C83_2 1_555 1_555
O12 C87_2 1_555 1_555
O33 C87_2 1_555 1_555
C80_2 C85_2 1_555 1_555
H5_2 C13_2 1_555 1_555
N1_2 C13_2 1_555 1_555
C35_2 N1_2 1_555 1_555
C36_2 N1_2 1_555 1_555
H20_2 C31_2 1_555 1_555
C40_2 C31_2 1_555 1_555
H24_2 C35_2 1_555 1_555
H25_2 C35_2 1_555 1_555
H26_2 C35_2 1_555 1_555
H27_2 C36_2 1_555 1_555
H28_2 C36_2 1_555 1_555
H29_2 C36_2 1_555 1_555
C45_2 C40_2 1_555 1_555
H30_2 C40_2 1_555 1_555
O31_2 C45_2 1_555 1_555
C73_2 C62_2 1_555 1_555
H44_2 C62_2 1_555 1_555
H45_2 C63_2 1_555 1_555
H50_2 C69_2 1_555 1_555
C81_2 C73_2 1_555 1_555
O14 C81_2 1_555 1_555
O7 C81_2 1_555 1_555
C63_2 C73_2 1_555 1_555
C32_2 C22_2 1_555 1_555
H21_2 C32_2 1_555 1_555
C41_2 C32_2 1_555 1_555
H31_2 C41_2 1_555 1_555
C70_2 C60_2 1_555 1_555
C78_2 C70_2 1_555 1_555
H51_2 C70_2 1_555 1_555
C84_2 C77_2 1_555 1_555
H55_2 C78_2 1_555 1_555
C86_2 C84_2 1_555 1_555
O16 C86_2 1_555 1_555
O25 C86_2 1_555 1_555
C78_2 C84_2 1_555 1_555
H19 C29 1_555 1_555
O30 C39 1_555 1_555
C49 O30 1_555 1_555
C56 C49 1_555 1_555
C57 C49 1_555 1_555
C61 O32 1_555 1_555
H40 C56 1_555 1_555
C67 C57 1_555 1_555
H41 C57 1_555 1_555
C71 C61 1_555 1_555
C72 C61 1_555 1_555
H49 C67 1_555 1_555
C79 C71 1_555 1_555
H52 C71 1_555 1_555
C29 C39 1_555 1_555
H19_2 C29_2 1_555 1_555
O30_2 C39_2 1_555 1_555
C49_2 O30_2 1_555 1_555
C56_2 C49_2 1_555 1_555
C57_2 C49_2 1_555 1_555
C61_2 O32_2 1_555 1_555
H40_2 C56_2 1_555 1_555
C67_2 C57_2 1_555 1_555
H41_2 C57_2 1_555 1_555
C71_2 C61_2 1_555 1_555
C72_2 C61_2 1_555 1_555
H49_2 C67_2 1_555 1_555
C79_2 C71_2 1_555 1_555
H52_2 C71_2 1_555 1_555
C29_2 C39_2 1_555 1_555

#END
