
###############################################################################
#
# This file contains modified crystal structure data generated from the
# MOF subset of the Cambridge Structural Database (CSD) v543 
# hosted by the Cambridge Crystallographic Data Centre (CCDC).
#
# This work is licensed under the Creative Commons
# Attribution-NonCommercial-ShareAlike 4.0 International License.
# To view a copy of this license, visit
# http://creativecommons.org/licenses/by-nc-sa/4.0/
# or send a letter to
# Creative Commons, PO Box 1866, Mountain View, CA 94042, USA.
#
# CIF created using the CSD Python API on 29 September 2022
# The structure has been converted into the P1 space group
# The structure has a 3D framework
# The original CSD entry VUKTUS is in the triclinic crystal system
# The framework has been calculated to contain at least 10.0% void space
# The void calculation uses a probe of radius 1.32A, grid spacing 0.4
#
###############################################################################

data_VUKTUS
_chemical_formula_moiety         '(C168 H104 Dy8 O64)n'
_symmetry_cell_setting           triclinic
_symmetry_space_group_name_H-M   'P 1'
_symmetry_Int_Tables_number      1
_space_group_name_Hall           'P 1'
loop_
_symmetry_equiv_pos_site_id
_symmetry_equiv_pos_as_xyz
1 x,y,z
_cell_length_a                   15.189(3)
_cell_length_b                   15.232(2)
_cell_length_c                   23.855(4)
_cell_angle_alpha                85.890(3)
_cell_angle_beta                 79.971(3)
_cell_angle_gamma                86.842(3)
_cell_volume                     5415.65
loop_
_atom_site_label
_atom_site_type_symbol
_atom_site_fract_x
_atom_site_fract_y
_atom_site_fract_z
C10 C 0.0664(7) 0.0149(6) 0.7207(4)
C11 C 0.0672(7) 0.1032(7) 0.7135(4)
C14 C 0.1379(8) 0.1543(7) 0.7302(4)
O4 O 0.1411(4) 0.2350(4) 0.7138(3)
O5 O 0.1915(5) 0.1129(4) 0.7594(3)
Dy5 Dy 0.32704(3) 0.08712(3) 0.77615(2)
Dy13 Dy 0.21394(3) 0.36015(3) 0.73125(2)
C1 C 0.5006(7) 0.0100(7) 0.7761(4)
C6 C 0.7557(8) 0.0180(8) 0.7496(5)
H3 H 0.8001 0.0411 0.7657
C7 C 0.6659(8) 0.0320(7) 0.7737(5)
H4 H 0.6500 0.0685 0.8039
C8 C 0.9311(8) 0.0084(8) 0.6901(5)
C12 C 0.9951(7) 0.1437(7) 0.6921(5)
H7 H 0.9928 0.2046 0.6854
C13 C 0.9279(9) 0.0971(8) 0.6806(6)
H8 H 0.8800 0.1256 0.6663
H12 H 0.4123 0.0059 0.5739
C35 C 0.2121(7) 0.0407(6) 0.9592(4)
H20 H 0.1924 0.0740 0.9291
O1 O 0.4763(5) 0.0823(4) 0.7985(3)
O6 O 0.3585(5) 0.0504(4) 0.6787(3)
O35 O 0.3716(5) 0.2123(4) 0.7245(2)
O44 O 0.2937(5) 0.1852(4) 0.8461(2)
C32 C 0.2651(8) 0.9388(8) 0.0489(4)
H18 H 0.2823 0.9041 0.0791
H21 H 0.0327 0.9892 0.1128
C46 C 0.2485(8) 0.6758(6) 0.0342(4)
H26 H 0.2033 0.6737 0.0660
C47 C 0.3344(9) 0.6884(6) 0.0407(4)
H27 H 0.4644 0.6956 0.0008
C50 C 0.4188(7) 0.6688(7) 0.1178(4)
C51 C 0.4496(7) 0.5854(7) 0.1087(4)
H29 H 0.4266 0.5526 0.0836
C52 C 0.5159(7) 0.5497(6) 0.1374(4)
H30 H 0.5368 0.4917 0.1322
C53 C 0.5526(6) 0.5999(6) 0.1747(4)
C54 C 0.5203(7) 0.6860(6) 0.1798(4)
H31 H 0.5451 0.7209 0.2029
C55 C 0.4543(7) 0.7222(7) 0.1529(4)
H32 H 0.4334 0.7802 0.1576
C56 C 0.6273(6) 0.5620(6) 0.2050(4)
O18 O 0.3460(5) 0.7079(5) 0.0945(3)
O19 O 0.6599(5) 0.6114(4) 0.2344(3)
O20 O 0.6494(4) 0.4826(4) 0.2008(3)
Dy12 Dy 0.75990(3) 0.39257(3) 0.23000(2)
Dy16 Dy 0.78606(3) 0.63985(3) 0.26875(2)
C2 C 0.5998(6) 0.9905(6) 0.7519(4)
C3 C 0.6233(7) 0.9390(6) 0.7067(4)
H1 H 0.5799 0.9104 0.6928
C4 C 0.7121(8) 0.9299(7) 0.6819(5)
H2 H 0.7274 0.8956 0.6506
C5 C 0.7789(8) 0.9698(7) 0.7017(5)
C9 C 0.9991(9) 0.9675(7) 0.7094(5)
C15 C 0.3259(8) 0.9761(6) 0.6809(4)
C16 C 0.3230(7) 0.9316(6) 0.6279(4)
C17 C 0.2709(7) 0.8629(6) 0.6287(4)
H9 H 0.2385 0.8412 0.6632
C18 C 0.2649(8) 0.8248(7) 0.5800(5)
H10 H 0.2271 0.7785 0.5810
C19 C 0.3144(8) 0.8544(8) 0.5295(5)
C20 C 0.3660(9) 0.9207(9) 0.5257(5)
H11 H 0.3973 0.9412 0.4906
C21 C 0.3735(8) 0.9603(8) 0.5755(5)
C22 C 0.3797(8) 0.7995(9) 0.4425(5)
C23 C 0.4512(9) 0.7478(9) 0.4598(5)
H13 H 0.4479 0.7250 0.4973
C24 C 0.5246(8) 0.7322(7) 0.4204(4)
H14 H 0.5715 0.6972 0.4315
C25 C 0.5335(7) 0.7656(6) 0.3645(4)
C26 C 0.4620(8) 0.8131(7) 0.3502(5)
H15 H 0.4662 0.8359 0.3127
C27 C 0.3817(9) 0.8309(8) 0.3876(6)
H16 H 0.3332 0.8620 0.3756
C28 C 0.6188(8) 0.7481(6) 0.3251(4)
C29 C 0.2993(7) 0.9390(6) 0.8895(4)
C30 C 0.2661(7) 0.9652(6) 0.9487(4)
C31 C 0.2915(7) 0.9140(7) 0.9930(4)
H17 H 0.3263 0.8625 0.9859
C43 C 0.2749(8) 0.6557(6) 0.8776(4)
C44 C 0.2967(7) 0.6666(6) 0.9347(4)
C45 C 0.2290(7) 0.6663(6) 0.9817(4)
H25 H 0.1702 0.6596 0.9772
C48 C 0.4059(8) 0.6892(6) 0.9954(4)
C49 C 0.3850(7) 0.6799(6) 0.9420(4)
H28 H 0.4302 0.6826 0.9102
C57 C 0.2351(6) 0.5619(6) 0.6578(4)
C58 C 0.2598(7) 0.5505(6) 0.5946(3)
C59 C 0.3278(7) 0.4923(6) 0.5738(4)
H33 H 0.3583 0.4588 0.5990
C60 C 0.3514(7) 0.4826(6) 0.5166(4)
H34 H 0.3994 0.4450 0.5030
C61 C 0.3041(8) 0.5284(7) 0.4795(4)
C62 C 0.2347(7) 0.5874(7) 0.4979(4)
H35 H 0.2031 0.6194 0.4726
C63 C 0.2146(7) 0.5963(6) 0.5565(4)
H36 H 0.1680 0.6354 0.5704
C64 C 0.3822(8) 0.4582(9) 0.3985(4)
C65 C 0.3706(8) 0.3689(8) 0.4014(5)
H37 H 0.3186 0.3465 0.4229
C66 C 0.4335(8) 0.3126(7) 0.3736(5)
H38 H 0.4236 0.2526 0.3763
C67 C 0.5104(6) 0.3428(6) 0.3420(4)
C68 C 0.5249(7) 0.4299(7) 0.3375(4)
H39 H 0.5769 0.4515 0.3156
C69 C 0.4582(9) 0.4883(7) 0.3672(5)
H40 H 0.4677 0.5483 0.3647
C70 C 0.5736(7) 0.2823(7) 0.3072(4)
C71 C 0.0647(7) 0.4609(6) 0.7963(4)
H44 H 0.0482 0.5756 0.8783
Dy2 Dy 0.35613(3) 0.83129(3) 0.78788(2)
Dy3 Dy 0.24010(3) 0.60743(3) 0.77000(2)
O2 O 0.4428(5) 0.9563(5) 0.7696(3)
O3 O 0.8647(5) 0.9581(5) 0.6763(4)
O7 O 0.2945(4) 0.9385(4) 0.7292(2)
O8 O 0.3038(5) 0.8165(6) 0.4808(3)
O9 O 0.6284(5) 0.7877(4) 0.2755(2)
O10 O 0.6765(5) 0.6921(4) 0.3402(3)
O11 O 0.2780(5) 0.9897(4) 0.8490(2)
O12 O 0.3435(5) 0.8681(4) 0.8813(3)
O16 O 0.3242(5) 0.6915(4) 0.8333(3)
O17 O 0.2090(5) 0.6142(4) 0.8717(2)
O21 O 0.1899(5) 0.6279(4) 0.6755(2)
O22 O 0.2655(4) 0.5030(4) 0.6917(2)
O23 O 0.3198(6) 0.5216(5) 0.4213(3)
O24 O 0.6493(5) 0.3079(4) 0.2830(3)
O25 O 0.5526(5) 0.2067(5) 0.3009(3)
O26 O 0.1411(4) 0.4953(4) 0.7948(2)
O27 O 0.0602(4) 0.3966(4) 0.7693(3)
O31 O 0.5050(6) 0.7654(5) 0.8076(3)
H49 H 0.5464 0.7256 0.8077
H50 H 0.5200 0.8091 0.8236
O32 O 0.1366(6) 0.3967(4) 0.6502(3)
H51 H 0.0826 0.4142 0.6497
H52 H 0.1595 0.3827 0.6167
Dy7 Dy 0.67296(3) 0.91288(3) 0.22385(2)
Dy9 Dy 0.64387(3) 0.16871(3) 0.21212(2)
O36 O 0.3235(5) 0.3079(4) 0.6598(3)
O37 O 0.1321(6) 0.7160(6) 0.7814(3)
O38 O 0.2058(6) 0.8246(6) 0.8088(4)
O39 O 0.3401(5) 0.3886(4) 0.7656(3)
O40 O 0.3506(4) 0.5174(4) 0.7992(3)
O41 O 0.3507(5) 0.6921(4) 0.7170(3)
O42 O 0.4474(5) 0.7933(5) 0.6991(3)
O43 O 0.2013(5) 0.2907(4) 0.8201(3)
C38 C 0.9508(8) 0.0896(7) 0.1478(5)
H22 H 0.8970 0.0655 0.1449
C39 C 0.9499(7) 0.1690(6) 0.1712(4)
C42 C 0.8633(9) 0.2128(8) 0.1968(4)
O14 O 0.8679(6) 0.2840(6) 0.2186(3)
O15 O 0.7942(6) 0.1754(6) 0.1912(4)
C80 C 0.7075(7) 0.7394(6) 0.0502(4)
H46 H 0.6771 0.7936 0.0560
C81 C 0.7499(6) 0.6993(6) 0.0921(4)
C82 C 0.7893(6) 0.6172(6) 0.0840(4)
H47 H 0.8155 0.5878 0.1129
C83 C 0.7906(7) 0.5769(6) 0.0333(4)
H48 H 0.8171 0.5209 0.0280
C84 C 0.7520(7) 0.7435(6) 0.1472(4)
O29 O 0.7987(5) 0.7093(4) 0.1799(3)
O30 O 0.7063(5) 0.8148(4) 0.1539(2)
C80_2 C 0.2925(7) 0.2606(6) 0.9498(4)
H46_2 H 0.3229 0.2064 0.9440
C81_2 C 0.2501(6) 0.3007(6) 0.9079(4)
C82_2 C 0.2107(6) 0.3828(6) 0.9160(4)
H47_2 H 0.1845 0.4122 0.8871
C83_2 C 0.2094(7) 0.4231(6) 0.9667(4)
H48_2 H 0.1829 0.4791 0.9720
C84_2 C 0.2480(7) 0.2565(6) 0.8528(4)
C38_2 C 0.0492(8) 0.9104(7) 0.8522(5)
H22_2 H 0.1030 0.9345 0.8551
C39_2 C 0.0501(7) 0.8310(6) 0.8288(4)
C42_2 C 0.1367(9) 0.7872(8) 0.8032(4)
C2_2 C 0.4002(6) 0.0095(6) 0.2481(4)
C3_2 C 0.3767(7) 0.0610(6) 0.2933(4)
H1_2 H 0.4201 0.0896 0.3072
C4_2 C 0.2879(8) 0.0701(7) 0.3181(5)
H2_2 H 0.2726 0.1044 0.3494
C5_2 C 0.2211(8) 0.0302(7) 0.2983(5)
C9_2 C 0.0009(9) 0.0325(7) 0.2906(5)
C15_2 C 0.6741(8) 0.0239(6) 0.3191(4)
C16_2 C 0.6770(7) 0.0684(6) 0.3721(4)
C17_2 C 0.7291(7) 0.1371(6) 0.3713(4)
H9_2 H 0.7615 0.1588 0.3368
C18_2 C 0.7351(8) 0.1752(7) 0.4200(5)
H10_2 H 0.7729 0.2215 0.4190
C19_2 C 0.6856(8) 0.1456(8) 0.4705(5)
C20_2 C 0.6340(9) 0.0793(9) 0.4743(5)
H11_2 H 0.6027 0.0588 0.5094
C21_2 C 0.6265(8) 0.0397(8) 0.4245(5)
C22_2 C 0.6203(8) 0.2005(9) 0.5575(5)
C23_2 C 0.5488(9) 0.2522(9) 0.5402(5)
H13_2 H 0.5521 0.2750 0.5027
C24_2 C 0.4754(8) 0.2678(7) 0.5796(4)
H14_2 H 0.4285 0.3028 0.5685
C25_2 C 0.4665(7) 0.2344(6) 0.6355(4)
C26_2 C 0.5380(8) 0.1869(7) 0.6498(5)
H15_2 H 0.5338 0.1641 0.6873
C27_2 C 0.6183(9) 0.1691(8) 0.6124(6)
H16_2 H 0.6668 0.1380 0.6244
C28_2 C 0.3812(8) 0.2519(6) 0.6749(4)
C29_2 C 0.7007(7) 0.0610(6) 0.1105(4)
C30_2 C 0.7339(7) 0.0348(6) 0.0513(4)
C31_2 C 0.7085(7) 0.0860(7) 0.0070(4)
H17_2 H 0.6737 0.1375 0.0141
C43_2 C 0.7251(8) 0.3443(6) 0.1224(4)
C44_2 C 0.7033(7) 0.3334(6) 0.0653(4)
C45_2 C 0.7710(7) 0.3337(6) 0.0183(4)
H25_2 H 0.8298 0.3404 0.0228
C48_2 C 0.5941(8) 0.3108(6) 0.0046(4)
C49_2 C 0.6150(7) 0.3201(6) 0.0580(4)
H28_2 H 0.5698 0.3174 0.0898
C57_2 C 0.7649(6) 0.4381(6) 0.3422(4)
C58_2 C 0.7402(7) 0.4495(6) 0.4054(3)
C59_2 C 0.6722(7) 0.5077(6) 0.4262(4)
H33_2 H 0.6417 0.5412 0.4010
C60_2 C 0.6486(7) 0.5174(6) 0.4834(4)
H34_2 H 0.6006 0.5550 0.4970
C61_2 C 0.6959(8) 0.4716(7) 0.5205(4)
C62_2 C 0.7653(7) 0.4126(7) 0.5021(4)
H35_2 H 0.7969 0.3806 0.5274
C63_2 C 0.7854(7) 0.4037(6) 0.4435(4)
H36_2 H 0.8320 0.3646 0.4296
C64_2 C 0.6178(8) 0.5418(9) 0.6015(4)
C65_2 C 0.6294(8) 0.6311(8) 0.5986(5)
H37_2 H 0.6814 0.6535 0.5771
C66_2 C 0.5665(8) 0.6874(7) 0.6264(5)
H38_2 H 0.5764 0.7474 0.6237
C67_2 C 0.4896(6) 0.6572(6) 0.6580(4)
C68_2 C 0.4751(7) 0.5701(7) 0.6625(4)
H39_2 H 0.4231 0.5485 0.6844
C69_2 C 0.5418(9) 0.5117(7) 0.6328(5)
H40_2 H 0.5323 0.4517 0.6353
C70_2 C 0.4264(7) 0.7177(7) 0.6928(4)
C71_2 C 0.9353(7) 0.5391(6) 0.2037(4)
H44_2 H 0.9518 0.4244 0.1217
O2_2 O 0.5572(5) 0.0437(5) 0.2304(3)
O3_2 O 0.1353(5) 0.0419(5) 0.3237(4)
O7_2 O 0.7055(4) 0.0615(4) 0.2708(2)
O8_2 O 0.6962(5) 0.1835(6) 0.5192(3)
O11_2 O 0.7220(5) 0.0103(4) 0.1510(2)
O12_2 O 0.6565(5) 0.1319(4) 0.1187(3)
O16_2 O 0.6758(5) 0.3085(4) 0.1667(3)
O17_2 O 0.7910(5) 0.3858(4) 0.1283(2)
O21_2 O 0.8101(5) 0.3721(4) 0.3245(2)
O22_2 O 0.7345(4) 0.4970(4) 0.3083(2)
O23_2 O 0.6802(6) 0.4784(5) 0.5787(3)
O26_2 O 0.8589(4) 0.5047(4) 0.2052(2)
O27_2 O 0.9398(4) 0.6034(4) 0.2307(3)
O31_2 O 0.4950(6) 0.2346(5) 0.1924(3)
H49_2 H 0.4536 0.2744 0.1923
H50_2 H 0.4800 0.1909 0.1764
O32_2 O 0.8634(6) 0.6033(4) 0.3498(3)
H51_2 H 0.9174 0.5858 0.3503
H52_2 H 0.8405 0.6173 0.3833
O33 O 0.8589(4) 0.7650(4) 0.2862(3)
C32_2 C 0.7349(8) 0.0612(8) 0.9511(4)
H18_2 H 0.7177 0.0959 0.9209
H21_2 H 0.9673 0.0108 0.8872
C46_2 C 0.7515(8) 0.3242(6) 0.9658(4)
H26_2 H 0.7967 0.3263 0.9340
C47_2 C 0.6656(9) 0.3116(6) 0.9593(4)
H27_2 H 0.5356 0.3044 0.9992
C50_2 C 0.5812(7) 0.3312(7) 0.8822(4)
C51_2 C 0.5504(7) 0.4146(7) 0.8913(4)
H29_2 H 0.5734 0.4474 0.9164
C52_2 C 0.4841(7) 0.4503(6) 0.8626(4)
H30_2 H 0.4632 0.5083 0.8678
C53_2 C 0.4474(6) 0.4001(6) 0.8253(4)
C54_2 C 0.4797(7) 0.3140(6) 0.8202(4)
H31_2 H 0.4549 0.2791 0.7971
C55_2 C 0.5457(7) 0.2778(7) 0.8471(4)
H32_2 H 0.5666 0.2198 0.8424
C56_2 C 0.3727(6) 0.4380(6) 0.7950(4)
O18_2 O 0.6540(5) 0.2921(5) 0.9055(3)
C1_2 C 0.4994(7) 0.9900(7) 0.2239(4)
C6_2 C 0.2443(8) 0.9820(8) 0.2504(5)
H3_2 H 0.1999 0.9589 0.2343
C7_2 C 0.3341(8) 0.9680(7) 0.2263(5)
H4_2 H 0.3500 0.9315 0.1961
C8_2 C 0.0689(8) 0.9916(8) 0.3099(5)
C12_2 C 0.0049(7) 0.8563(7) 0.3079(5)
H7_2 H 0.0072 0.7954 0.3146
C13_2 C 0.0721(9) 0.9029(8) 0.3194(6)
H8_2 H 0.1200 0.8744 0.3337
H12_2 H 0.5877 0.9941 0.4261
C35_2 C 0.7879(7) 0.9593(6) 0.0408(4)
H20_2 H 0.8076 0.9260 0.0709
O1_2 O 0.5237(5) 0.9177(4) 0.2015(3)
O6_2 O 0.6415(5) 0.9496(4) 0.3213(3)
O34 O 0.8085(5) 0.8871(4) 0.2406(3)
C10_2 C 0.9336(7) 0.9851(6) 0.2793(4)
C11_2 C 0.9328(7) 0.8968(7) 0.2865(4)
C14_2 C 0.8621(8) 0.8457(7) 0.2698(4)
H5 H 0.0012 0.9064 0.7152
H6 H 0.1143 0.9847 0.7341
C33 C 0.2133(8) 0.0153(9) 0.0589(5)
C34 C 0.1871(7) 0.0670(7) 0.0153(4)
H19 H 0.1533 0.1190 0.0225
C36 C 0.1094(9) 0.0816(10) 0.1313(5)
C37 C 0.0322(10) 0.0439(8) 0.1279(5)
C40 C 0.0307(9) 0.2047(7) 0.1729(4)
H23 H 0.0314 0.2589 0.1885
C41 C 0.1099(8) 0.1617(9) 0.1522(5)
H24 H 0.1639 0.1876 0.1524
O13 O 0.1918(6) 0.0403(7) 0.1145(3)
C72 C 0.9859(6) 0.4954(5) 0.8351(3)
C73 C 0.9025(6) 0.4683(6) 0.8306(4)
H41 H 0.8969 0.4294 0.8032
C74 C 0.8286(7) 0.4978(7) 0.8657(4)
H42 H 0.7727 0.4791 0.8620
C75 C 0.8352(7) 0.5560(6) 0.9074(4)
C76 C 0.9181(7) 0.5852(6) 0.9117(4)
H43 H 0.9234 0.6247 0.9387
C77 C 0.9924(6) 0.5554(6) 0.8757(3)
C78 C 0.7519(7) 0.6219(7) 0.9914(4)
C79 C 0.7092(7) 0.7005(7) 0.9994(4)
H45 H 0.6810 0.7286 0.9710
O28 O 0.7524(5) 0.5852(5) 0.9390(3)
C72_2 C 0.0141(6) 0.5046(5) 0.1649(3)
C73_2 C 0.0975(6) 0.5317(6) 0.1694(4)
H41_2 H 0.1031 0.5706 0.1968
C74_2 C 0.1714(7) 0.5022(7) 0.1343(4)
H42_2 H 0.2273 0.5209 0.1380
C75_2 C 0.1648(7) 0.4440(6) 0.0926(4)
C76_2 C 0.0819(7) 0.4148(6) 0.0883(4)
H43_2 H 0.0766 0.3753 0.0613
C77_2 C 0.0076(6) 0.4446(6) 0.1243(3)
C78_2 C 0.2481(7) 0.3781(7) 0.0086(4)
C79_2 C 0.2908(7) 0.2995(7) 0.0006(4)
H45_2 H 0.3190 0.2714 0.0290
O28_2 O 0.2476(5) 0.4148(5) 0.0610(3)
C33_2 C 0.7867(8) 0.9847(9) 0.9411(5)
C34_2 C 0.8129(7) 0.9330(7) 0.9847(4)
H19_2 H 0.8467 0.8810 0.9775
C36_2 C 0.8906(9) 0.9184(10) 0.8687(5)
C37_2 C 0.9678(10) 0.9561(8) 0.8721(5)
C40_2 C 0.9693(9) 0.7953(7) 0.8271(4)
H23_2 H 0.9686 0.7411 0.8115
C41_2 C 0.8901(8) 0.8383(9) 0.8478(5)
H24_2 H 0.8361 0.8124 0.8476
O13_2 O 0.8082(6) 0.9597(7) 0.8855(3)
H5_2 H 0.9988 0.0936 0.2848
H6_2 H 0.8857 0.0153 0.2659
loop_
_geom_bond_atom_site_label_1
_geom_bond_atom_site_label_2
_geom_bond_site_symmetry_1
_geom_bond_site_symmetry_2
C11 C10 1_555 1_555
C14 C11 1_555 1_555
O4 C14 1_555 1_555
O5 C14 1_555 1_555
Dy5 O5 1_555 1_555
Dy13 O4 1_555 1_555
H3 C6 1_555 1_555
H4 C7 1_555 1_555
H7 C12 1_555 1_555
C13 C8 1_555 1_555
H8 C13 1_555 1_555
H20 C35 1_555 1_555
Dy5 O1 1_555 1_555
O1 C1 1_555 1_555
O35 Dy5 1_555 1_555
O44 Dy5 1_555 1_555
C6 C7 1_555 1_555
C12 C13 1_555 1_555
Dy5 O6 1_555 1_555
H18 C32 1_555 1_555
H26 C46 1_555 1_555
C47 C46 1_555 1_555
C50 C51 1_555 1_555
C51 H29 1_555 1_555
C52 C51 1_555 1_555
H30 C52 1_555 1_555
C53 C52 1_555 1_555
C54 C53 1_555 1_555
H31 C54 1_555 1_555
C55 C50 1_555 1_555
H32 C55 1_555 1_555
C56 C53 1_555 1_555
O18 C47 1_555 1_555
O19 C56 1_555 1_555
O20 C56 1_555 1_555
Dy12 O20 1_555 1_555
Dy16 O19 1_555 1_555
C50 O18 1_555 1_555
C54 C55 1_555 1_555
C2 C3 1_555 1_555
C3 H1 1_555 1_555
C4 C3 1_555 1_555
H2 C4 1_555 1_555
C5 C4 1_555 1_555
C15 C16 1_555 1_555
C16 C17 1_555 1_555
C17 H9 1_555 1_555
C18 C17 1_555 1_555
H10 C18 1_555 1_555
C19 C18 1_555 1_555
C20 C19 1_555 1_555
H11 C20 1_555 1_555
C21 C16 1_555 1_555
C22 C23 1_555 1_555
C23 H13 1_555 1_555
C24 C23 1_555 1_555
H14 C24 1_555 1_555
C25 C24 1_555 1_555
C26 C25 1_555 1_555
H15 C26 1_555 1_555
C27 C22 1_555 1_555
H16 C27 1_555 1_555
C28 C25 1_555 1_555
C29 C30 1_555 1_555
C30 C31 1_555 1_555
C31 H17 1_555 1_555
C43 C44 1_555 1_555
C44 C45 1_555 1_555
C45 H25 1_555 1_555
C49 C44 1_555 1_555
H28 C49 1_555 1_555
C57 C58 1_555 1_555
C58 C59 1_555 1_555
C59 H33 1_555 1_555
C60 C59 1_555 1_555
H34 C60 1_555 1_555
C61 C60 1_555 1_555
C62 C61 1_555 1_555
H35 C62 1_555 1_555
C63 C58 1_555 1_555
H36 C63 1_555 1_555
C64 C65 1_555 1_555
C65 H37 1_555 1_555
C66 C65 1_555 1_555
H38 C66 1_555 1_555
C67 C66 1_555 1_555
C68 C67 1_555 1_555
H39 C68 1_555 1_555
C69 C64 1_555 1_555
H40 C69 1_555 1_555
C70 C67 1_555 1_555
Dy2 O2 1_555 1_555
Dy3 O16 1_555 1_555
Dy13 O22 1_555 1_555
O3 C5 1_555 1_555
O7 C15 1_555 1_555
O8 C19 1_555 1_555
O9 C28 1_555 1_555
O10 C28 1_555 1_555
O11 C29 1_555 1_555
O12 C29 1_555 1_555
O16 C43 1_555 1_555
O17 C43 1_555 1_555
O21 C57 1_555 1_555
O22 C57 1_555 1_555
O23 C61 1_555 1_555
O24 C70 1_555 1_555
O25 C70 1_555 1_555
O26 C71 1_555 1_555
O27 C71 1_555 1_555
O31 Dy2 1_555 1_555
H49 O31 1_555 1_555
H50 O31 1_555 1_555
O32 Dy13 1_555 1_555
H51 O32 1_555 1_555
H52 O32 1_555 1_555
Dy7 O9 1_555 1_555
Dy9 O24 1_555 1_555
Dy12 O24 1_555 1_555
Dy16 O10 1_555 1_555
O36 Dy13 1_555 1_555
O37 Dy3 1_555 1_555
O38 Dy2 1_555 1_555
O39 Dy13 1_555 1_555
O40 Dy3 1_555 1_555
O41 Dy2 1_555 1_555
O42 Dy2 1_555 1_555
O43 Dy13 1_555 1_555
C20 C21 1_555 1_555
C22 O8 1_555 1_555
C26 C27 1_555 1_555
C48 C49 1_555 1_555
C62 C63 1_555 1_555
C64 O23 1_555 1_555
C68 C69 1_555 1_555
Dy2 O7 1_555 1_555
Dy2 O12 1_555 1_555
Dy2 O16 1_555 1_555
Dy3 O17 1_555 1_555
Dy3 O21 1_555 1_555
Dy3 O22 1_555 1_555
Dy3 O26 1_555 1_555
Dy3 O41 1_555 1_555
Dy13 O26 1_555 1_555
Dy13 O27 1_555 1_555
O25 Dy9 1_555 1_555
H22 C38 1_555 1_555
C39 C38 1_555 1_555
C42 C39 1_555 1_555
O14 C42 1_555 1_555
O15 C42 1_555 1_555
Dy9 O15 1_555 1_555
Dy12 O14 1_555 1_555
H46 C80 1_555 1_555
C81 C80 1_555 1_555
C82 C81 1_555 1_555
H47 C82 1_555 1_555
H48 C83 1_555 1_555
C84 C81 1_555 1_555
O29 C84 1_555 1_555
O30 C84 1_555 1_555
Dy7 O30 1_555 1_555
Dy16 O29 1_555 1_555
C82 C83 1_555 1_555
H46_2 C80_2 1_555 1_555
C81_2 C80_2 1_555 1_555
C82_2 C81_2 1_555 1_555
H47_2 C82_2 1_555 1_555
H48_2 C83_2 1_555 1_555
C84_2 C81_2 1_555 1_555
O43 C84_2 1_555 1_555
O44 C84_2 1_555 1_555
C82_2 C83_2 1_555 1_555
H22_2 C38_2 1_555 1_555
C39_2 C38_2 1_555 1_555
C42_2 C39_2 1_555 1_555
O37 C42_2 1_555 1_555
O38 C42_2 1_555 1_555
C2_2 C3_2 1_555 1_555
C3_2 H1_2 1_555 1_555
C4_2 C3_2 1_555 1_555
H2_2 C4_2 1_555 1_555
C5_2 C4_2 1_555 1_555
C15_2 C16_2 1_555 1_555
C16_2 C17_2 1_555 1_555
C17_2 H9_2 1_555 1_555
C18_2 C17_2 1_555 1_555
H10_2 C18_2 1_555 1_555
C19_2 C18_2 1_555 1_555
C20_2 C19_2 1_555 1_555
H11_2 C20_2 1_555 1_555
C21_2 C16_2 1_555 1_555
C22_2 C23_2 1_555 1_555
C23_2 H13_2 1_555 1_555
C24_2 C23_2 1_555 1_555
H14_2 C24_2 1_555 1_555
C25_2 C24_2 1_555 1_555
C26_2 C25_2 1_555 1_555
H15_2 C26_2 1_555 1_555
C27_2 C22_2 1_555 1_555
H16_2 C27_2 1_555 1_555
C28_2 C25_2 1_555 1_555
C29_2 C30_2 1_555 1_555
C30_2 C31_2 1_555 1_555
C31_2 H17_2 1_555 1_555
C43_2 C44_2 1_555 1_555
C44_2 C45_2 1_555 1_555
C45_2 H25_2 1_555 1_555
C49_2 C44_2 1_555 1_555
H28_2 C49_2 1_555 1_555
C57_2 C58_2 1_555 1_555
C58_2 C59_2 1_555 1_555
C59_2 H33_2 1_555 1_555
C60_2 C59_2 1_555 1_555
H34_2 C60_2 1_555 1_555
C61_2 C60_2 1_555 1_555
C62_2 C61_2 1_555 1_555
H35_2 C62_2 1_555 1_555
C63_2 C58_2 1_555 1_555
H36_2 C63_2 1_555 1_555
C64_2 C65_2 1_555 1_555
C65_2 H37_2 1_555 1_555
C66_2 C65_2 1_555 1_555
H38_2 C66_2 1_555 1_555
C67_2 C66_2 1_555 1_555
C68_2 C67_2 1_555 1_555
H39_2 C68_2 1_555 1_555
C69_2 C64_2 1_555 1_555
H40_2 C69_2 1_555 1_555
C70_2 C67_2 1_555 1_555
Dy9 O2_2 1_555 1_555
Dy12 O16_2 1_555 1_555
Dy16 O22_2 1_555 1_555
O3_2 C5_2 1_555 1_555
O7_2 C15_2 1_555 1_555
O8_2 C19_2 1_555 1_555
O35 C28_2 1_555 1_555
O36 C28_2 1_555 1_555
O11_2 C29_2 1_555 1_555
O12_2 C29_2 1_555 1_555
O16_2 C43_2 1_555 1_555
O17_2 C43_2 1_555 1_555
O21_2 C57_2 1_555 1_555
O22_2 C57_2 1_555 1_555
O23_2 C61_2 1_555 1_555
O41 C70_2 1_555 1_555
O42 C70_2 1_555 1_555
O26_2 C71_2 1_555 1_555
O27_2 C71_2 1_555 1_555
O31_2 Dy9 1_555 1_555
H49_2 O31_2 1_555 1_555
H50_2 O31_2 1_555 1_555
O32_2 Dy16 1_555 1_555
H51_2 O32_2 1_555 1_555
H52_2 O32_2 1_555 1_555
O33 Dy16 1_555 1_555
C20_2 C21_2 1_555 1_555
C22_2 O8_2 1_555 1_555
C26_2 C27_2 1_555 1_555
C48_2 C49_2 1_555 1_555
C62_2 C63_2 1_555 1_555
C64_2 O23_2 1_555 1_555
C68_2 C69_2 1_555 1_555
Dy9 O7_2 1_555 1_555
Dy9 O12_2 1_555 1_555
Dy9 O16_2 1_555 1_555
Dy12 O17_2 1_555 1_555
Dy12 O21_2 1_555 1_555
Dy12 O22_2 1_555 1_555
Dy12 O26_2 1_555 1_555
Dy16 O26_2 1_555 1_555
Dy16 O27_2 1_555 1_555
H18_2 C32_2 1_555 1_555
H26_2 C46_2 1_555 1_555
C47_2 C46_2 1_555 1_555
C50_2 C51_2 1_555 1_555
C51_2 H29_2 1_555 1_555
C52_2 C51_2 1_555 1_555
H30_2 C52_2 1_555 1_555
C53_2 C52_2 1_555 1_555
C54_2 C53_2 1_555 1_555
H31_2 C54_2 1_555 1_555
C55_2 C50_2 1_555 1_555
H32_2 C55_2 1_555 1_555
C56_2 C53_2 1_555 1_555
O18_2 C47_2 1_555 1_555
O39 C56_2 1_555 1_555
O40 C56_2 1_555 1_555
C50_2 O18_2 1_555 1_555
C54_2 C55_2 1_555 1_555
H3_2 C6_2 1_555 1_555
H4_2 C7_2 1_555 1_555
H7_2 C12_2 1_555 1_555
C13_2 C8_2 1_555 1_555
H8_2 C13_2 1_555 1_555
H20_2 C35_2 1_555 1_555
Dy7 O1_2 1_555 1_555
O1_2 C1_2 1_555 1_555
O34 Dy7 1_555 1_555
C6_2 C7_2 1_555 1_555
C12_2 C13_2 1_555 1_555
Dy7 O6_2 1_555 1_555
C11_2 C10_2 1_555 1_555
C14_2 C11_2 1_555 1_555
O33 C14_2 1_555 1_555
O34 C14_2 1_555 1_555
C34 C33 1_555 1_555
H19 C34 1_555 1_555
C36 C37 1_555 1_555
H23 C40 1_555 1_555
C41 C36 1_555 1_555
H24 C41 1_555 1_555
O13 C33 1_555 1_555
C36 O13 1_555 1_555
C40 C41 1_555 1_555
C72 C73 1_555 1_555
C73 H41 1_555 1_555
C74 C73 1_555 1_555
H42 C74 1_555 1_555
C75 C74 1_555 1_555
C76 C75 1_555 1_555
H43 C76 1_555 1_555
C77 C72 1_555 1_555
C78 C79 1_555 1_555
C79 H45 1_555 1_555
O28 C75 1_555 1_555
C76 C77 1_555 1_555
C78 O28 1_555 1_555
C72_2 C73_2 1_555 1_555
C73_2 H41_2 1_555 1_555
C74_2 C73_2 1_555 1_555
H42_2 C74_2 1_555 1_555
C75_2 C74_2 1_555 1_555
C76_2 C75_2 1_555 1_555
H43_2 C76_2 1_555 1_555
C77_2 C72_2 1_555 1_555
C78_2 C79_2 1_555 1_555
C79_2 H45_2 1_555 1_555
O28_2 C75_2 1_555 1_555
C76_2 C77_2 1_555 1_555
C78_2 O28_2 1_555 1_555
C34_2 C33_2 1_555 1_555
H19_2 C34_2 1_555 1_555
C36_2 C37_2 1_555 1_555
H23_2 C40_2 1_555 1_555
C41_2 C36_2 1_555 1_555
H24_2 C41_2 1_555 1_555
O13_2 C33_2 1_555 1_555
C36_2 O13_2 1_555 1_555
C40_2 C41_2 1_555 1_555

#END
