
###############################################################################
#
# This file contains modified crystal structure data generated from the
# MOF subset of the Cambridge Structural Database (CSD) v543 
# hosted by the Cambridge Crystallographic Data Centre (CCDC).
#
# This work is licensed under the Creative Commons
# Attribution-NonCommercial-ShareAlike 4.0 International License.
# To view a copy of this license, visit
# http://creativecommons.org/licenses/by-nc-sa/4.0/
# or send a letter to
# Creative Commons, PO Box 1866, Mountain View, CA 94042, USA.
#
# CIF created using the CSD Python API on 29 September 2022
# The structure has been converted into the P1 space group
# The structure has a 3D framework
# The original CSD entry VUKTOM is in the triclinic crystal system
# The framework has been calculated to contain at least 10.0% void space
# The void calculation uses a probe of radius 1.32A, grid spacing 0.4
#
###############################################################################

data_VUKTOM
_chemical_formula_moiety         '(C168 H104 O62 Tb8)n'
_symmetry_cell_setting           triclinic
_symmetry_space_group_name_H-M   'P 1'
_symmetry_Int_Tables_number      1
_space_group_name_Hall           'P 1'
loop_
_symmetry_equiv_pos_site_id
_symmetry_equiv_pos_as_xyz
1 x,y,z
_cell_length_a                   15.089(6)
_cell_length_b                   15.275(6)
_cell_length_c                   23.654(10)
_cell_angle_alpha                85.902(7)
_cell_angle_beta                 81.506(7)
_cell_angle_gamma                86.813(8)
_cell_volume                     5372.69
loop_
_atom_site_label
_atom_site_type_symbol
_atom_site_fract_x
_atom_site_fract_y
_atom_site_fract_z
O5 O 0.0690(7) 0.0399(6) 0.7340(4)
Tb11 Tb 0.15819(4) 0.16721(4) 0.71893(3)
O4 O 0.0344(6) 0.9166(6) 0.7047(4)
C1 C 0.0117(10) 0.9872(9) 0.7273(6)
Tb15 Tb 0.18799(4) 0.90959(4) 0.72785(2)
O1 O 0.3286(7) 0.8816(6) 0.7474(4)
O2 O 0.3741(8) 0.5947(6) 0.8560(5)
H1 H 0.3955 0.6286 0.8770
H2 H 0.3609 0.5476 0.8761
C3 C 0.8478(10) 0.9651(9) 0.7318(7)
H3 H 0.8606 0.9310 0.7003
O6 O 0.6861(6) 0.2949(5) 0.3171(4)
C5 C 0.7390(10) 0.2590(8) 0.3495(6)
C6 C 0.7447(8) 0.3018(9) 0.4058(5)
C7 C 0.7872(10) 0.2618(9) 0.4485(6)
H5 H 0.8163 0.2070 0.4433
C8 C 0.7032(9) 0.3856(7) 0.4154(5)
H6 H 0.6734 0.4149 0.3874
C9 C 0.7062(9) 0.4242(8) 0.4657(6)
H7 H 0.6810 0.4806 0.4706
C10 C 0.7879(10) 0.3012(10) 0.4995(5)
H8 H 0.8175 0.2727 0.5279
C11 C 0.7458(9) 0.3809(9) 0.5083(6)
C19 C 0.0408(10) 0.2810(9) 0.3450(6)
H13 H 0.0638 0.2243 0.3384
Tb1 Tb 0.29822(4) 0.63673(4) 0.77349(2)
Tb2 Tb 0.27207(4) 0.38906(3) 0.73259(2)
C27 C 0.5161(9) 0.4457(8) 0.6269(5)
H17 H 0.4596 0.4267 0.6240
C28 C 0.4454(8) 0.5389(8) 0.7070(5)
C29 C 0.6724(9) 0.4451(8) 0.5940(5)
C30 C 0.5251(8) 0.5025(7) 0.6678(5)
C31 C 0.5883(10) 0.4167(9) 0.5904(5)
H18 H 0.5810 0.3778 0.5631
C32 C 0.6108(8) 0.5297(8) 0.6720(6)
H19 H 0.6175 0.5672 0.7001
C33 C 0.6855(10) 0.5024(10) 0.6356(5)
H20 H 0.7422 0.5212 0.6385
O13 O 0.4561(6) 0.6023(6) 0.7354(4)
O14 O 0.3688(6) 0.5046(5) 0.7096(3)
O15 O 0.7506(6) 0.4182(7) 0.5601(4)
O16 O 0.2203(7) 0.0573(6) 0.7782(4)
O17 O 0.2425(6) 0.4921(5) 0.8118(3)
O18 O 0.3167(6) 0.3677(5) 0.8320(3)
O19 O 0.3029(6) 0.3813(6) 0.6284(3)
O20 O 0.1899(6) 0.3053(5) 0.6685(4)
O21 O 0.1706(8) 0.1305(6) 0.6233(4)
O22 O 0.2382(7) 0.0086(6) 0.6539(4)
C34 C 0.2709(9) 0.4343(8) 0.8471(6)
C35 C 0.2372(9) 0.3392(7) 0.6237(6)
C36 C 0.2441(8) 0.4476(7) 0.9105(5)
C37 C 0.2118(9) 0.3296(7) 0.5654(5)
C38 C 0.1236(9) 0.3187(9) 0.5605(6)
H21 H 0.0804 0.3166 0.5929
C39 C 0.2905(9) 0.4033(8) 0.9515(5)
H22 H 0.3392 0.3655 0.9400
C40 C 0.1455(9) 0.5124(8) 0.9863(5)
H23 H 0.0966 0.5498 0.9982
C42 C 0.2149(10) 0.0593(9) 0.6145(6)
C43 C 0.2777(9) 0.3321(9) 0.5181(6)
H24 H 0.3370 0.3404 0.5221
C44 C 0.2124(11) 0.0883(10) 0.5090(5)
H25 H 0.1778 0.1392 0.5178
C45 C 0.1704(8) 0.5017(8) 0.9282(5)
H26 H 0.1378 0.5307 0.9015
C46 C 0.0989(11) 0.3107(9) 0.5045(6)
H27 H 0.0393 0.3052 0.5000
C48 C 0.2420(10) 0.0346(9) 0.5534(5)
C49 C 0.2536(10) 0.3220(9) 0.4638(6)
H28 H 0.2976 0.3227 0.4319
C50 C 0.1663(10) 0.3112(9) 0.4572(6)
C53 C 0.2329(12) 0.0679(12) 0.4522(6)
H31 H 0.2138 0.1049 0.4230
O25 O 0.7814(6) 0.1882(5) 0.3435(3)
O26 O 0.3729(6) 0.7609(5) 0.7940(4)
O27 O 0.1492(8) 0.2925(8) 0.4040(4)
C57 C 0.3849(12) 0.8423(8) 0.7812(5)
C58 C 0.4495(10) 0.8940(9) 0.7975(7)
C59 C 0.0745(10) 0.3308(9) 0.3816(5)
C61 C 0.1900(11) 0.0620(8) 0.8794(6)
C62 C 0.2417(11) 0.1323(9) 0.8812(6)
H36 H 0.2771 0.1525 0.8478
C63 C 0.2435(10) 0.1746(10) 0.9308(7)
H37 H 0.2792 0.2223 0.9308
C64 C 0.1886(10) 0.0166(9) 0.8258(6)
C65 C 0.1907(10) 0.1437(10) 0.9802(7)
C67 C 0.1376(11) 0.0301(10) 0.9304(6)
C69 C 0.0456(10) 0.4160(10) 0.3917(6)
H40 H 0.0714 0.4494 0.4158
H42 H 0.4577 0.0121 0.3817
C75 C 0.7608(12) 0.9769(11) 0.7596(9)
H44 H 0.7144 0.9516 0.7456
C78 C 0.1392(13) 0.0728(12) 0.9808(7)
O30 O 0.0096(9) 0.2301(8) 0.6981(5)
C80 C 0.4509(10) 0.9815(9) 0.7869(6)
C82 C 0.5878(12) 0.9854(12) 0.8275(11)
C83 C 0.5200(13) 0.8499(11) 0.8254(11)
H51 H 0.5206 0.7891 0.8319
C84 C 0.5861(12) 0.8956(13) 0.8424(11)
H52 H 0.6283 0.8676 0.8633
O37 O 0.3139(6) 0.7051(5) 0.6829(4)
O38 O 0.3946(9) 0.2918(8) 0.7218(5)
O39 O 0.1697(6) 0.6087(5) 0.7350(3)
O40 O 0.1607(6) 0.4792(5) 0.6989(3)
O41 O 0.1882(7) 0.6859(6) 0.8476(4)
O42 O 0.1589(6) 0.3017(5) 0.7835(3)
O43 O 0.0661(6) 0.1962(6) 0.8116(4)
Tb7 Tb 0.70178(4) 0.36327(4) 0.22651(2)
Tb17 Tb 0.81201(4) 0.09041(4) 0.27215(2)
O45 O 0.3112(8) 0.1841(10) 0.7038(6)
O7 O 0.6054(9) 0.7082(8) 0.2782(5)
C12 C 0.5316(10) 0.8301(8) 0.3221(5)
C13 C 0.4496(10) 0.7954(10) 0.3242(7)
H9 H 0.4455 0.7394 0.3121
C14 C 0.3722(11) 0.8443(13) 0.3445(8)
H10 H 0.3159 0.8239 0.3423
O24 O 0.1608(8) 0.9420(6) 0.8270(4)
C52 C 0.2903(11) 0.9603(9) 0.5405(6)
H30 H 0.3095 0.9237 0.5699
H39 H 0.1028 0.9818 0.9306
C70 C 0.2828(12) 0.9910(12) 0.4404(7)
C71 C 0.3119(12) 0.9370(12) 0.4843(7)
H41 H 0.3458 0.8855 0.4762
C72 C 0.3793(12) 0.9183(14) 0.3662(6)
C73 C 0.4564(15) 0.9572(10) 0.3672(7)
C77 C 0.5381(11) 0.9085(11) 0.3444(7)
H45 H 0.5940 0.9309 0.3451
O31 O 0.6888(8) 0.8159(10) 0.2962(6)
C79 C 0.6139(11) 0.7816(11) 0.2961(6)
O32 O 0.2995(10) 0.9695(12) 0.3846(5)
O34 O 0.1484(7) 0.7801(5) 0.7796(3)
Tb10 Tb 0.72793(4) 0.61094(3) 0.26741(2)
Tb13 Tb 0.84181(4) 0.83279(4) 0.28107(3)
O44 O 0.2186(6) 0.8118(5) 0.6565(3)
O3 O 0.8516(7) 0.2199(5) 0.2204(3)
O10 O 0.8118(7) 0.3141(6) 0.1524(4)
C20 C 0.8669(9) 0.2570(8) 0.1715(6)
C21 C 0.9540(10) 0.2399(8) 0.1345(5)
C23 C 0.9645(11) 0.2673(10) 0.0764(6)
H15 H 0.9182 0.2984 0.0608
O11 O 0.8411(6) 0.6983(5) 0.2165(3)
O12 O 0.9339(6) 0.8038(6) 0.1884(4)
C25 C 0.9138(9) 0.7251(8) 0.1883(5)
C26 C 0.9794(8) 0.6610(8) 0.1561(5)
C56 C 0.9664(9) 0.5711(9) 0.1666(6)
H34 H 0.9158 0.5517 0.1906
C15 C 0.9731(9) 0.3169(8) 0.3190(6)
H11 H 0.9478 0.2831 0.2949
O8 O 0.8303(6) 0.3913(5) 0.2650(3)
O9 O 0.8393(6) 0.5208(5) 0.3011(3)
C16 C 0.8640(8) 0.4418(8) 0.2951(5)
C17 C 0.9389(8) 0.4033(7) 0.3265(5)
C18 C 0.9752(10) 0.4488(8) 0.3634(5)
H12 H 0.9519 0.5052 0.3703
H47 H 0.9788 0.2072 0.6762
H48 H 0.9961 0.2849 0.6974
C15_2 C 0.0269(9) 0.6831(8) 0.6810(6)
H11_2 H 0.0522 0.7169 0.7051
C16_2 C 0.1360(8) 0.5582(8) 0.7049(5)
C17_2 C 0.0611(8) 0.5967(7) 0.6735(5)
C18_2 C 0.0248(10) 0.5512(8) 0.6366(5)
H12_2 H 0.0481 0.4948 0.6297
H47_2 H 0.0212 0.7928 0.3238
H48_2 H 0.0039 0.7151 0.3026
C20_2 C 0.1331(9) 0.7430(8) 0.8285(6)
C21_2 C 0.0460(10) 0.7601(8) 0.8655(5)
C23_2 C 0.0355(11) 0.7327(10) 0.9236(6)
H15_2 H 0.0818 0.7016 0.9392
C25_2 C 0.0862(9) 0.2749(8) 0.8117(5)
C26_2 C 0.0206(8) 0.3390(8) 0.8439(5)
C56_2 C 0.0336(9) 0.4289(9) 0.8334(6)
H34_2 H 0.0842 0.4483 0.8094
C12_2 C 0.4684(10) 0.1699(8) 0.6779(5)
C13_2 C 0.5504(10) 0.2046(10) 0.6758(7)
H9_2 H 0.5545 0.2606 0.6879
C14_2 C 0.6278(11) 0.1557(13) 0.6555(8)
H10_2 H 0.6841 0.1761 0.6577
O24_2 O 0.8392(8) 0.0580(6) 0.1730(4)
C52_2 C 0.7097(11) 0.0397(9) 0.4595(6)
H30_2 H 0.6905 0.0763 0.4301
H39_2 H 0.8972 0.0182 0.0694
C70_2 C 0.7172(12) 0.0090(12) 0.5596(7)
C71_2 C 0.6881(12) 0.0630(12) 0.5157(7)
H41_2 H 0.6542 0.1145 0.5238
C72_2 C 0.6207(12) 0.0817(14) 0.6338(6)
C73_2 C 0.5436(15) 0.0428(10) 0.6328(7)
C77_2 C 0.4619(11) 0.0915(11) 0.6556(7)
H45_2 H 0.4060 0.0691 0.6549
C79_2 C 0.3861(11) 0.2184(11) 0.7039(6)
O32_2 O 0.7005(10) 0.0305(12) 0.6154(5)
O33 O 0.6714(7) 0.1184(6) 0.2526(4)
O35 O 0.9656(6) 0.0834(6) 0.2953(4)
O2_2 O 0.6259(8) 0.4053(6) 0.1440(5)
H1_2 H 0.6045 0.3714 0.1230
H2_2 H 0.6391 0.4524 0.1239
C3_2 C 0.1522(10) 0.0349(9) 0.2682(7)
H3_2 H 0.1394 0.0690 0.2997
C5_2 C 0.2610(10) 0.7410(8) 0.6505(6)
C6_2 C 0.2553(8) 0.6982(9) 0.5942(5)
C7_2 C 0.2128(10) 0.7382(9) 0.5515(6)
H5_2 H 0.1837 0.7930 0.5567
C8_2 C 0.2968(9) 0.6144(7) 0.5846(5)
H6_2 H 0.3266 0.5851 0.6126
C9_2 C 0.2938(9) 0.5758(8) 0.5343(6)
H7_2 H 0.3190 0.5194 0.5294
C10_2 C 0.2121(10) 0.6988(10) 0.5005(5)
H8_2 H 0.1825 0.7273 0.4721
C11_2 C 0.2542(9) 0.6191(9) 0.4917(6)
C19_2 C 0.9592(10) 0.7190(9) 0.6550(6)
H13_2 H 0.9362 0.7757 0.6616
C27_2 C 0.4839(9) 0.5543(8) 0.3731(5)
H17_2 H 0.5404 0.5733 0.3760
C28_2 C 0.5546(8) 0.4611(8) 0.2930(5)
C29_2 C 0.3276(9) 0.5549(8) 0.4060(5)
C30_2 C 0.4749(8) 0.4975(7) 0.3322(5)
C31_2 C 0.4117(10) 0.5833(9) 0.4096(5)
H18_2 H 0.4190 0.6222 0.4369
C32_2 C 0.3892(8) 0.4703(8) 0.3280(6)
H19_2 H 0.3825 0.4328 0.2999
C33_2 C 0.3145(10) 0.4976(10) 0.3644(5)
H20_2 H 0.2578 0.4788 0.3615
O13_2 O 0.5439(6) 0.3977(6) 0.2646(4)
O14_2 O 0.6312(6) 0.4954(5) 0.2904(3)
O15_2 O 0.2494(6) 0.5818(7) 0.4399(4)
O16_2 O 0.7797(7) 0.9427(6) 0.2218(4)
O17_2 O 0.7575(6) 0.5079(5) 0.1882(3)
O18_2 O 0.6833(6) 0.6323(5) 0.1680(3)
O19_2 O 0.6971(6) 0.6187(6) 0.3716(3)
O20_2 O 0.8101(6) 0.6947(5) 0.3315(4)
O21_2 O 0.8294(8) 0.8695(6) 0.3767(4)
O22_2 O 0.7618(7) 0.9914(6) 0.3461(4)
C34_2 C 0.7291(9) 0.5657(8) 0.1529(6)
C35_2 C 0.7628(9) 0.6608(7) 0.3763(6)
C36_2 C 0.7559(8) 0.5524(7) 0.0895(5)
C37_2 C 0.7882(9) 0.6704(7) 0.4346(5)
C38_2 C 0.8764(9) 0.6813(9) 0.4395(6)
H21_2 H 0.9196 0.6834 0.4071
C39_2 C 0.7095(9) 0.5967(8) 0.0485(5)
H22_2 H 0.6608 0.6345 0.0600
C40_2 C 0.8545(9) 0.4876(8) 0.0137(5)
H23_2 H 0.9034 0.4502 0.0018
C42_2 C 0.7851(10) 0.9407(9) 0.3855(6)
C43_2 C 0.7223(9) 0.6679(9) 0.4819(6)
H24_2 H 0.6630 0.6596 0.4779
C44_2 C 0.7876(11) 0.9117(10) 0.4910(5)
H25_2 H 0.8222 0.8608 0.4822
C45_2 C 0.8296(8) 0.4983(8) 0.0718(5)
H26_2 H 0.8622 0.4693 0.0985
C46_2 C 0.9011(11) 0.6893(9) 0.4955(6)
H27_2 H 0.9607 0.6948 0.5000
C48_2 C 0.7580(10) 0.9654(9) 0.4466(5)
C49_2 C 0.7464(10) 0.6780(9) 0.5362(6)
H28_2 H 0.7024 0.6773 0.5681
C50_2 C 0.8337(10) 0.6888(9) 0.5428(6)
C53_2 C 0.7671(12) 0.9321(12) 0.5478(6)
H31_2 H 0.7862 0.8951 0.5770
O26_2 O 0.6271(6) 0.2391(5) 0.2060(4)
O27_2 O 0.8508(8) 0.7075(8) 0.5960(4)
C57_2 C 0.6151(12) 0.1577(8) 0.2188(5)
C58_2 C 0.5505(10) 0.1060(9) 0.2025(7)
C59_2 C 0.9255(10) 0.6692(9) 0.6184(5)
C61_2 C 0.8100(11) 0.9380(8) 0.1206(6)
C62_2 C 0.7583(11) 0.8677(9) 0.1188(6)
H36_2 H 0.7229 0.8475 0.1522
C63_2 C 0.7565(10) 0.8254(10) 0.0692(7)
H37_2 H 0.7208 0.7777 0.0692
C64_2 C 0.8114(10) 0.9834(9) 0.1742(6)
C65_2 C 0.8093(10) 0.8563(10) 0.0198(7)
C67_2 C 0.8624(11) 0.9699(10) 0.0696(6)
C69_2 C 0.9544(10) 0.5840(10) 0.6083(6)
H40_2 H 0.9286 0.5506 0.5842
H42_2 H 0.5423 0.9879 0.6183
C75_2 C 0.2392(12) 0.0231(11) 0.2404(9)
H44_2 H 0.2856 0.0484 0.2544
C78_2 C 0.8608(13) 0.9272(12) 0.0192(7)
O30_2 O 0.9904(9) 0.7699(8) 0.3019(5)
C80_2 C 0.5491(10) 0.0185(9) 0.2131(6)
C82_2 C 0.4122(12) 0.0146(12) 0.1725(11)
C83_2 C 0.4800(13) 0.1501(11) 0.1746(11)
H51_2 H 0.4794 0.2109 0.1681
C84_2 C 0.4139(12) 0.1044(13) 0.1576(11)
H52_2 H 0.3717 0.1324 0.1367
O36 O 0.9310(7) 0.9601(6) 0.2660(4)
C1_2 C 0.9883(10) 0.0128(9) 0.2727(6)
C2 C 0.9131(10) 0.0050(8) 0.7520(7)
C4 C 0.8960(10) 0.0565(10) 0.7989(7)
H4 H 0.9426 0.0835 0.8116
C74 C 0.8085(11) 0.0673(10) 0.8267(9)
H43 H 0.7951 0.1021 0.8579
C76 C 0.7416(10) 0.0243(10) 0.8064(9)
O29 O 0.6564(7) 0.0355(9) 0.8392(7)
H49 H 0.4046 0.0107 0.7701
C81 C 0.5202(12) 0.0299(11) 0.8003(7)
H50 H 0.5214 0.0902 0.7913
C22 C 0.1045(11) 0.1790(10) 0.1216(7)
H14 H 0.1519 0.1492 0.1369
C24 C 0.0452(12) 0.2474(12) 0.0422(6)
H16 H 0.0517 0.2646 0.0034
O23 O 0.1686(7) 0.4780(7) 0.0843(4)
C41 C 0.1018(9) 0.5386(10) 0.1059(5)
C47 C 0.1904(10) 0.4700(9) 0.0255(5)
C51 C 0.1172(10) 0.6279(11) 0.0966(5)
H29 H 0.1691 0.6464 0.0737
C54 C 0.2645(10) 0.4150(10) 0.0097(5)
H32 H 0.2962 0.3867 0.0371
C55 C 0.0301(10) 0.5100(10) 0.1408(6)
H33 H 0.0224 0.4501 0.1481
C60 C 0.0245(11) 0.1981(10) 0.1572(7)
H35 H 0.0191 0.1825 0.1963
C66 C 0.0550(10) 0.6896(10) 0.1216(6)
H38 H 0.0644 0.7494 0.1151
O28 O 0.1946(7) 0.1855(8) 0.0305(5)
C68 C 0.1141(10) 0.2041(11) 0.0635(6)
H46 H 0.1051 0.0527 0.0148
C22_2 C 0.8955(11) 0.8210(10) 0.8784(7)
H14_2 H 0.8481 0.8508 0.8631
C24_2 C 0.9548(12) 0.7526(12) 0.9578(6)
H16_2 H 0.9483 0.7354 0.9966
O23_2 O 0.8314(7) 0.5220(7) 0.9157(4)
C41_2 C 0.8982(9) 0.4614(10) 0.8941(5)
C47_2 C 0.8096(10) 0.5300(9) 0.9745(5)
C51_2 C 0.8828(10) 0.3721(11) 0.9034(5)
H29_2 H 0.8309 0.3536 0.9263
C54_2 C 0.7355(10) 0.5850(10) 0.9903(5)
H32_2 H 0.7038 0.6133 0.9629
C55_2 C 0.9699(10) 0.4900(10) 0.8592(6)
H33_2 H 0.9776 0.5499 0.8519
C60_2 C 0.9755(11) 0.8019(10) 0.8428(7)
H35_2 H 0.9809 0.8175 0.8037
C66_2 C 0.9450(10) 0.3104(10) 0.8784(6)
H38_2 H 0.9356 0.2506 0.8849
O28_2 O 0.8054(7) 0.8145(8) 0.9695(5)
C68_2 C 0.8859(10) 0.7959(11) 0.9365(6)
H46_2 H 0.8949 0.9473 0.9852
C2_2 C 0.0869(10) 0.9950(8) 0.2480(7)
C4_2 C 0.1040(10) 0.9435(10) 0.2011(7)
H4_2 H 0.0574 0.9165 0.1884
C74_2 C 0.1915(11) 0.9327(10) 0.1733(9)
H43_2 H 0.2049 0.8979 0.1421
C76_2 C 0.2584(10) 0.9757(10) 0.1936(9)
O29_2 O 0.3436(7) 0.9645(9) 0.1608(7)
H49_2 H 0.5954 0.9893 0.2299
C81_2 C 0.4798(12) 0.9701(11) 0.1997(7)
H50_2 H 0.4786 0.9098 0.2087
loop_
_geom_bond_atom_site_label_1
_geom_bond_atom_site_label_2
_geom_bond_site_symmetry_1
_geom_bond_site_symmetry_2
Tb11 O5 1_555 1_555
O4 C1 1_555 1_555
Tb15 O4 1_555 1_555
O1 C57 1_555 1_555
O2 H1 1_555 1_555
H2 O2 1_555 1_555
C3 H3 1_555 1_555
O6 C5 1_555 1_555
C5 C6 1_555 1_555
C6 C7 1_555 1_555
C7 H5 1_555 1_555
C8 C6 1_555 1_555
H6 C8 1_555 1_555
C9 C8 1_555 1_555
H7 C9 1_555 1_555
C10 C7 1_555 1_555
H8 C10 1_555 1_555
C11 C9 1_555 1_555
H13 C19 1_555 1_555
Tb1 O2 1_555 1_555
Tb2 O14 1_555 1_555
Tb11 O16 1_555 1_555
C27 H17 1_555 1_555
C28 C30 1_555 1_555
C29 C31 1_555 1_555
C30 C27 1_555 1_555
C31 C27 1_555 1_555
H18 C31 1_555 1_555
C32 C30 1_555 1_555
H19 C32 1_555 1_555
C33 C29 1_555 1_555
H20 C33 1_555 1_555
O13 Tb1 1_555 1_555
O14 Tb1 1_555 1_555
O15 C11 1_555 1_555
O16 C64 1_555 1_555
O17 Tb1 1_555 1_555
O18 Tb2 1_555 1_555
O19 Tb2 1_555 1_555
O20 Tb2 1_555 1_555
O21 Tb11 1_555 1_555
C34 O17 1_555 1_555
C35 O19 1_555 1_555
C36 C34 1_555 1_555
C37 C35 1_555 1_555
C38 C37 1_555 1_555
H21 C38 1_555 1_555
C39 C36 1_555 1_555
H22 C39 1_555 1_555
C40 H23 1_555 1_555
C42 O21 1_555 1_555
C43 C37 1_555 1_555
H24 C43 1_555 1_555
C44 H25 1_555 1_555
C45 C36 1_555 1_555
H26 C45 1_555 1_555
C46 C38 1_555 1_555
H27 C46 1_555 1_555
C48 C42 1_555 1_555
C49 C43 1_555 1_555
H28 C49 1_555 1_555
C50 C46 1_555 1_555
C53 C44 1_555 1_555
H31 C53 1_555 1_555
O25 C5 1_555 1_555
O26 Tb1 1_555 1_555
O27 C50 1_555 1_555
C57 O26 1_555 1_555
C58 C57 1_555 1_555
C59 C19 1_555 1_555
C61 C62 1_555 1_555
C62 H36 1_555 1_555
C63 C62 1_555 1_555
H37 C63 1_555 1_555
C65 C63 1_555 1_555
C67 C61 1_555 1_555
H40 C69 1_555 1_555
C75 C3 1_555 1_555
H44 C75 1_555 1_555
C78 C65 1_555 1_555
O30 Tb11 1_555 1_555
C80 C58 1_555 1_555
C83 C58 1_555 1_555
H51 C83 1_555 1_555
C84 C82 1_555 1_555
H52 C84 1_555 1_555
O37 Tb1 1_555 1_555
O38 Tb2 1_555 1_555
O39 Tb1 1_555 1_555
O40 Tb2 1_555 1_555
O41 Tb1 1_555 1_555
O42 Tb2 1_555 1_555
O43 Tb11 1_555 1_555
Tb7 O6 1_555 1_555
Tb15 O1 1_555 1_555
Tb17 O25 1_555 1_555
O45 Tb11 1_555 1_555
C10 C11 1_555 1_555
Tb2 O17 1_555 1_555
Tb11 O20 1_555 1_555
Tb11 O42 1_555 1_555
C28 O13 1_555 1_555
C28 O14 1_555 1_555
C29 O15 1_555 1_555
C32 C33 1_555 1_555
O18 C34 1_555 1_555
O20 C35 1_555 1_555
O22 C42 1_555 1_555
C40 C45 1_555 1_555
C44 C48 1_555 1_555
C49 C50 1_555 1_555
O27 C59 1_555 1_555
C59 C69 1_555 1_555
C61 C64 1_555 1_555
C67 C78 1_555 1_555
C83 C84 1_555 1_555
O7 C79 1_555 1_555
C12 C13 1_555 1_555
C13 H9 1_555 1_555
C14 C13 1_555 1_555
H10 C14 1_555 1_555
O24 Tb15 1_555 1_555
H30 C52 1_555 1_555
C71 C52 1_555 1_555
H41 C71 1_555 1_555
C72 C14 1_555 1_555
C73 C72 1_555 1_555
C77 C12 1_555 1_555
H45 C77 1_555 1_555
O31 C79 1_555 1_555
C79 C12 1_555 1_555
O32 C70 1_555 1_555
O34 Tb15 1_555 1_555
Tb10 O7 1_555 1_555
Tb13 O31 1_555 1_555
O44 Tb15 1_555 1_555
C70 C71 1_555 1_555
C72 O32 1_555 1_555
C73 C77 1_555 1_555
O3 C20 1_555 1_555
O10 C20 1_555 1_555
C20 C21 1_555 1_555
C21 C23 1_555 1_555
C23 H15 1_555 1_555
O11 C25 1_555 1_555
O12 C25 1_555 1_555
C25 C26 1_555 1_555
C26 C56 1_555 1_555
H34 C56 1_555 1_555
Tb7 O10 1_555 1_555
Tb10 O11 1_555 1_555
Tb13 O11 1_555 1_555
Tb17 O3 1_555 1_555
O12 Tb13 1_555 1_555
C15 H11 1_555 1_555
O8 C16 1_555 1_555
O9 C16 1_555 1_555
C16 C17 1_555 1_555
C17 C15 1_555 1_555
C18 C17 1_555 1_555
H12 C18 1_555 1_555
Tb7 O8 1_555 1_555
Tb10 O9 1_555 1_555
C15_2 H11_2 1_555 1_555
O39 C16_2 1_555 1_555
O40 C16_2 1_555 1_555
C16_2 C17_2 1_555 1_555
C17_2 C15_2 1_555 1_555
C18_2 C17_2 1_555 1_555
H12_2 C18_2 1_555 1_555
O34 C20_2 1_555 1_555
O41 C20_2 1_555 1_555
C20_2 C21_2 1_555 1_555
C21_2 C23_2 1_555 1_555
C23_2 H15_2 1_555 1_555
O42 C25_2 1_555 1_555
O43 C25_2 1_555 1_555
C25_2 C26_2 1_555 1_555
C26_2 C56_2 1_555 1_555
H34_2 C56_2 1_555 1_555
O38 C79_2 1_555 1_555
C12_2 C13_2 1_555 1_555
C13_2 H9_2 1_555 1_555
C14_2 C13_2 1_555 1_555
H10_2 C14_2 1_555 1_555
O24_2 Tb17 1_555 1_555
H30_2 C52_2 1_555 1_555
C71_2 C52_2 1_555 1_555
H41_2 C71_2 1_555 1_555
C72_2 C14_2 1_555 1_555
C73_2 C72_2 1_555 1_555
C77_2 C12_2 1_555 1_555
H45_2 C77_2 1_555 1_555
O45 C79_2 1_555 1_555
C79_2 C12_2 1_555 1_555
O32_2 C70_2 1_555 1_555
O33 Tb17 1_555 1_555
O35 Tb17 1_555 1_555
C70_2 C71_2 1_555 1_555
C72_2 O32_2 1_555 1_555
C73_2 C77_2 1_555 1_555
O33 C57_2 1_555 1_555
O2_2 H1_2 1_555 1_555
H2_2 O2_2 1_555 1_555
C3_2 H3_2 1_555 1_555
O37 C5_2 1_555 1_555
C5_2 C6_2 1_555 1_555
C6_2 C7_2 1_555 1_555
C7_2 H5_2 1_555 1_555
C8_2 C6_2 1_555 1_555
H6_2 C8_2 1_555 1_555
C9_2 C8_2 1_555 1_555
H7_2 C9_2 1_555 1_555
C10_2 C7_2 1_555 1_555
H8_2 C10_2 1_555 1_555
C11_2 C9_2 1_555 1_555
H13_2 C19_2 1_555 1_555
Tb7 O2_2 1_555 1_555
Tb10 O14_2 1_555 1_555
Tb13 O16_2 1_555 1_555
C27_2 H17_2 1_555 1_555
C28_2 C30_2 1_555 1_555
C29_2 C31_2 1_555 1_555
C30_2 C27_2 1_555 1_555
C31_2 C27_2 1_555 1_555
H18_2 C31_2 1_555 1_555
C32_2 C30_2 1_555 1_555
H19_2 C32_2 1_555 1_555
C33_2 C29_2 1_555 1_555
H20_2 C33_2 1_555 1_555
O13_2 Tb7 1_555 1_555
O14_2 Tb7 1_555 1_555
O15_2 C11_2 1_555 1_555
O16_2 C64_2 1_555 1_555
O17_2 Tb7 1_555 1_555
O18_2 Tb10 1_555 1_555
O19_2 Tb10 1_555 1_555
O20_2 Tb10 1_555 1_555
O21_2 Tb13 1_555 1_555
C34_2 O17_2 1_555 1_555
C35_2 O19_2 1_555 1_555
C36_2 C34_2 1_555 1_555
C37_2 C35_2 1_555 1_555
C38_2 C37_2 1_555 1_555
H21_2 C38_2 1_555 1_555
C39_2 C36_2 1_555 1_555
H22_2 C39_2 1_555 1_555
C40_2 H23_2 1_555 1_555
C42_2 O21_2 1_555 1_555
C43_2 C37_2 1_555 1_555
H24_2 C43_2 1_555 1_555
C44_2 H25_2 1_555 1_555
C45_2 C36_2 1_555 1_555
H26_2 C45_2 1_555 1_555
C46_2 C38_2 1_555 1_555
H27_2 C46_2 1_555 1_555
C48_2 C42_2 1_555 1_555
C49_2 C43_2 1_555 1_555
H28_2 C49_2 1_555 1_555
C50_2 C46_2 1_555 1_555
C53_2 C44_2 1_555 1_555
H31_2 C53_2 1_555 1_555
O44 C5_2 1_555 1_555
O26_2 Tb7 1_555 1_555
O27_2 C50_2 1_555 1_555
C57_2 O26_2 1_555 1_555
C58_2 C57_2 1_555 1_555
C59_2 C19_2 1_555 1_555
C61_2 C62_2 1_555 1_555
C62_2 H36_2 1_555 1_555
C63_2 C62_2 1_555 1_555
H37_2 C63_2 1_555 1_555
C65_2 C63_2 1_555 1_555
C67_2 C61_2 1_555 1_555
H40_2 C69_2 1_555 1_555
C75_2 C3_2 1_555 1_555
H44_2 C75_2 1_555 1_555
C78_2 C65_2 1_555 1_555
O30_2 Tb13 1_555 1_555
C80_2 C58_2 1_555 1_555
C83_2 C58_2 1_555 1_555
H51_2 C83_2 1_555 1_555
C84_2 C82_2 1_555 1_555
H52_2 C84_2 1_555 1_555
O36 Tb13 1_555 1_555
C10_2 C11_2 1_555 1_555
Tb10 O17_2 1_555 1_555
Tb13 O20_2 1_555 1_555
C28_2 O13_2 1_555 1_555
C28_2 O14_2 1_555 1_555
C29_2 O15_2 1_555 1_555
C32_2 C33_2 1_555 1_555
O18_2 C34_2 1_555 1_555
O20_2 C35_2 1_555 1_555
O22_2 C42_2 1_555 1_555
C40_2 C45_2 1_555 1_555
C44_2 C48_2 1_555 1_555
C49_2 C50_2 1_555 1_555
O27_2 C59_2 1_555 1_555
C59_2 C69_2 1_555 1_555
C61_2 C64_2 1_555 1_555
C67_2 C78_2 1_555 1_555
C83_2 C84_2 1_555 1_555
O35 C1_2 1_555 1_555
C4 C2 1_555 1_555
H4 C4 1_555 1_555
C74 C4 1_555 1_555
H43 C74 1_555 1_555
C76 C74 1_555 1_555
O29 C76 1_555 1_555
H50 C81 1_555 1_555
C22 H14 1_555 1_555
H16 C24 1_555 1_555
O23 C41 1_555 1_555
C41 C51 1_555 1_555
C47 O23 1_555 1_555
C51 H29 1_555 1_555
H32 C54 1_555 1_555
C55 C41 1_555 1_555
H33 C55 1_555 1_555
H35 C60 1_555 1_555
H38 C66 1_555 1_555
C68 C22 1_555 1_555
C22 C60 1_555 1_555
C24 C68 1_555 1_555
C47 C54 1_555 1_555
C51 C66 1_555 1_555
O28 C68 1_555 1_555
C22_2 H14_2 1_555 1_555
H16_2 C24_2 1_555 1_555
O23_2 C41_2 1_555 1_555
C41_2 C51_2 1_555 1_555
C47_2 O23_2 1_555 1_555
C51_2 H29_2 1_555 1_555
H32_2 C54_2 1_555 1_555
C55_2 C41_2 1_555 1_555
H33_2 C55_2 1_555 1_555
H35_2 C60_2 1_555 1_555
H38_2 C66_2 1_555 1_555
C68_2 C22_2 1_555 1_555
C22_2 C60_2 1_555 1_555
C24_2 C68_2 1_555 1_555
C47_2 C54_2 1_555 1_555
C51_2 C66_2 1_555 1_555
O28_2 C68_2 1_555 1_555
C4_2 C2_2 1_555 1_555
H4_2 C4_2 1_555 1_555
C74_2 C4_2 1_555 1_555
H43_2 C74_2 1_555 1_555
C76_2 C74_2 1_555 1_555
O29_2 C76_2 1_555 1_555
H50_2 C81_2 1_555 1_555

#END
