
###############################################################################
#
# This file contains modified crystal structure data generated from the
# MOF subset of the Cambridge Structural Database (CSD) v543 
# hosted by the Cambridge Crystallographic Data Centre (CCDC).
#
# This work is licensed under the Creative Commons
# Attribution-NonCommercial-ShareAlike 4.0 International License.
# To view a copy of this license, visit
# http://creativecommons.org/licenses/by-nc-sa/4.0/
# or send a letter to
# Creative Commons, PO Box 1866, Mountain View, CA 94042, USA.
#
# CIF created using the CSD Python API on 29 September 2022
# The structure has been converted into the P1 space group
# The structure has a 3D framework
# The original CSD entry VUKTEC is in the triclinic crystal system
# The framework has been calculated to contain at least 10.0% void space
# The void calculation uses a probe of radius 1.32A, grid spacing 0.4
#
###############################################################################

data_VUKTEC
_chemical_formula_moiety         '(C174 H114 Eu8 N2 O60)n'
_symmetry_cell_setting           triclinic
_symmetry_space_group_name_H-M   'P 1'
_symmetry_Int_Tables_number      1
_space_group_name_Hall           'P 1'
loop_
_symmetry_equiv_pos_site_id
_symmetry_equiv_pos_as_xyz
1 x,y,z
_cell_length_a                   14.589(2)
_cell_length_b                   15.285(2)
_cell_length_c                   22.758(3)
_cell_angle_alpha                84.679(3)
_cell_angle_beta                 84.323(3)
_cell_angle_gamma                86.396(3)
_cell_volume                     5020.83
loop_
_atom_site_label
_atom_site_type_symbol
_atom_site_fract_x
_atom_site_fract_y
_atom_site_fract_z
O1 O 0.0986(5) 0.7500(5) 0.6872(3)
O2 O 0.1446(6) 0.6237(6) 0.7399(4)
C2 C 0.0925(9) 0.6708(8) 0.7018(5)
C3 C 0.0271(8) 0.6209(8) 0.6789(6)
C5 C 0.0282(8) 0.5311(8) 0.6894(6)
H3 H 0.0739 0.5007 0.7101
Eu5 Eu 0.17849(4) 0.87216(4) 0.71523(3)
Eu16 Eu 0.28959(4) 0.59951(4) 0.76387(3)
C1 C 0.0784(9) 0.6815(8) 0.1869(6)
H1 H 0.0949 0.7343 0.1991
C11 C 0.0303(12) 0.5266(10) 0.1496(7)
H7 H 0.0149 0.4740 0.1366
C15 C 0.1385(8) 0.0238(7) 0.1759(5)
H9 H 0.1505 0.0599 0.2046
H10 H 0.2665 0.0183 0.1364
O8 O 0.6864(5) 0.1012(4) 0.2422(4)
C18 C 0.6492(9) 0.0594(7) 0.2082(5)
C19 C 0.5713(7) 0.0891(7) 0.1780(5)
C20 C 0.5346(9) 0.1768(8) 0.1880(6)
H12 H 0.5631 0.2108 0.2119
C24 C 0.4595(9) 0.2085(8) 0.1629(6)
H14 H 0.4321 0.2629 0.1717
C34 C 0.3201(10) 0.1846(7) 0.0454(5)
H17 H 0.4506 0.1927 0.0063
C52 C 0.2314(9) 0.1756(7) 0.0360(5)
H29 H 0.1873 0.1735 0.0685
C63 C 0.4229(9) 0.1606(8) 0.1240(6)
O23 O 0.3416(6) 0.1952(6) 0.1017(4)
C69 C 0.5351(8) 0.0480(7) 0.1390(5)
C70 C 0.4605(8) 0.0790(7) 0.1105(5)
H41 H 0.4362 0.0470 0.0835
C78 C 0.1994(10) 0.4833(9) 0.0627(6)
C79 C 0.2561(11) 0.4150(9) 0.0439(6)
H46 H 0.2842 0.3763 0.0716
O31 O 0.1889(8) 0.4920(7) 0.1223(4)
C82 C 0.1204(13) 0.5499(11) 0.1430(7)
C83 C 0.1456(10) 0.6250(9) 0.1609(7)
H49 H 0.2071 0.6392 0.1560
C84 C 0.1703(11) 0.5466(9) 0.0218(6)
H50 H 0.1403 0.5988 0.0330
Eu7 Eu 0.82151(4) 0.12784(4) 0.28477(3)
Eu2 Eu 0.32717(4) 0.33367(4) 0.77222(3)
Eu3 Eu 0.20615(4) 0.12089(4) 0.75749(3)
C28 C 0.2142(8) 0.0766(7) 0.6373(5)
C29 C 0.2421(8) 0.0665(7) 0.5740(5)
C30 C 0.2712(9) 0.1722(6) 0.9344(5)
C31 C 0.1966(8) 0.1064(7) 0.5280(6)
H15 H 0.1453 0.1438 0.5368
C35 C 0.3894(9) 0.1871(7) 0.9997(5)
C36 C 0.3634(8) 0.1808(7) 0.9439(5)
H18 H 0.4081 0.1823 0.9118
C37 C 0.2229(8) 0.0939(7) 0.4694(5)
H19 H 0.1884 0.1203 0.4398
C38 C 0.2036(8) 0.1694(7) 0.9816(5)
H20 H 0.1420 0.1634 0.9761
C40 C 0.3002(9) 0.0422(7) 0.4555(5)
O13 O 0.2364(6) 0.5038(6) 0.8447(4)
C46 C 0.3173(9) 0.0129(8) 0.5599(5)
H28 H 0.4822 0.0541 0.3437
C59 C 0.3498(9) 0.0023(8) 0.5004(6)
O14 O 0.2365(5) 0.0216(4) 0.6763(3)
O16 O 0.1652(5) 0.1465(5) 0.6518(3)
O17 O 0.3002(5) 0.1956(4) 0.8278(3)
O18 O 0.1722(5) 0.1340(5) 0.8652(3)
O22 O 0.2954(8) 0.3755(5) 0.8675(4)
C66 C 0.2474(9) 0.1696(7) 0.8747(6)
O26 O 0.3255(6) 0.0335(6) 0.3975(3)
C67 C 0.2621(10) 0.4442(8) 0.8829(6)
C68 C 0.2362(9) 0.4607(7) 0.9446(5)
C76 C 0.1870(11) 0.5304(9) 0.9631(6)
H45 H 0.1624 0.5707 0.9349
C81 C 0.2718(11) 0.4029(9) 0.9870(6)
H48 H 0.3080 0.3540 0.9755
O32 O 0.4726(7) 0.2775(7) 0.8036(5)
C85 C 0.5503(13) 0.2809(14) 0.7856(8)
H51 H 0.5719 0.3355 0.7712
N1 N 0.6119(12) 0.2081(12) 0.7846(8)
C86 C 0.5897(17) 0.1194(14) 0.7967(11)
H52 H 0.6157 0.0863 0.7647
H53 H 0.5238 0.1159 0.8010
H54 H 0.6144 0.0955 0.8328
C87 C 0.7058(13) 0.2314(14) 0.7648(10)
H55 H 0.7119 0.2434 0.7225
H56 H 0.7481 0.1835 0.7760
H57 H 0.7193 0.2828 0.7830
O35 O 0.1701(6) 0.2951(5) 0.7686(4)
O36 O 0.0598(5) 0.2049(5) 0.7633(4)
O38 O 0.1095(5) 0.0009(5) 0.7809(3)
O39 O 0.3165(5) 0.0199(5) 0.7987(3)
O41 O 0.3317(5) 0.1996(4) 0.7083(3)
O42 O 0.4278(6) 0.3028(5) 0.6818(4)
O44 O 0.2561(5) 0.4515(5) 0.7137(3)
O47 O 0.4128(5) 0.4668(5) 0.7625(4)
C13 C 0.0496(8) 0.9971(7) 0.1742(5)
C14 C 0.0324(8) 0.9393(7) 0.1324(5)
C16 C 0.2077(8) 0.9980(8) 0.1363(5)
C17 C 0.1024(9) 0.9128(7) 0.0937(5)
H11 H 0.0917 0.8752 0.0655
O7 O 0.6835(5) 0.9801(5) 0.2013(3)
C58 C 0.2486(9) 0.8788(10) 0.0068(6)
H36 H 0.3307 0.7676 0.0260
O25 O 0.2644(5) 0.9161(6) 0.0589(4)
H40 H 0.5623 0.9936 0.1301
C74 C 0.1898(8) 0.9414(8) 0.0958(5)
Eu14 Eu 0.79385(4) 0.87911(4) 0.24251(3)
C4 C 0.9570(9) 0.6672(8) 0.6480(6)
H2 H 0.9580 0.7279 0.6400
C6 C 0.8879(8) 0.6230(10) 0.6301(6)
H4 H 0.8408 0.6531 0.6105
C7 C 0.9605(9) 0.4869(8) 0.6688(6)
H5 H 0.9635 0.4257 0.6733
O9 O 0.6683(5) 0.8004(4) 0.2917(3)
O10 O 0.5722(6) 0.6972(5) 0.3182(4)
C21 C 0.5923(8) 0.7756(8) 0.3171(5)
C22 C 0.5231(9) 0.8429(7) 0.3429(5)
C23 C 0.4399(8) 0.8161(8) 0.3718(6)
H13 H 0.4267 0.7570 0.3776
O11 O 0.7439(5) 0.5485(5) 0.2863(3)
O12 O 0.6803(6) 0.4336(5) 0.3384(4)
C25 C 0.7084(9) 0.5090(8) 0.3362(5)
C26 C 0.2264(10) 0.7594(10) 0.8477(6)
C27 C 0.4302(9) 0.7530(7) 0.6275(5)
C32 C 0.1935(8) 0.8868(7) 0.9153(5)
H16 H 0.1605 0.9185 0.8866
C33 C 0.3365(8) 0.7729(7) 0.6591(5)
C39 C 0.6897(9) 0.6506(9) 0.4896(6)
C41 C 0.7047(8) 0.5564(7) 0.3890(5)
C42 C 0.2015(9) 0.9224(8) 0.9659(6)
H21 H 0.1739 0.9777 0.9722
C43 C 0.6418(8) 0.5360(7) 0.7505(5)
H22 H 0.6345 0.5657 0.7847
C44 C 0.5037(9) 0.7155(7) 0.6568(5)
H23 H 0.4950 0.7015 0.6975
C45 C 0.4743(9) 0.5217(9) 0.7662(6)
H24 H 0.3480 0.9824 0.5901
C47 C 0.6461(8) 0.5321(8) 0.4396(5)
H25 H 0.6126 0.4822 0.4403
C48 C 0.7510(9) 0.6722(8) 0.4436(6)
H26 H 0.7893 0.7179 0.4457
C49 C 0.7585(8) 0.6272(8) 0.3927(5)
H27 H 0.8000 0.6449 0.3608
C50 C 0.3930(9) 0.9690(9) 0.3809(5)
C51 C 0.4719(9) 0.9945(8) 0.3513(5)
C53 C 0.4470(9) 0.7748(8) 0.5661(5)
H30 H 0.4006 0.8043 0.5456
C54 C 0.2328(9) 0.8041(8) 0.9039(5)
C55 C 0.6036(10) 0.7166(8) 0.5663(6)
C56 C 0.5782(9) 0.4583(7) 0.6820(6)
H31 H 0.5282 0.4318 0.6702
C57 C 0.2856(9) 0.7609(8) 0.9458(6)
H32 H 0.3152 0.7067 0.9386
H33 H 0.4040 0.9689 0.4914
C60 C 0.5664(8) 0.5002(7) 0.7311(6)
C61 C 0.6367(9) 0.5800(8) 0.4887(6)
H34 H 0.5946 0.5645 0.5208
C62 C 0.5895(9) 0.6981(8) 0.6274(5)
H35 H 0.6378 0.6741 0.6485
C64 C 0.2950(9) 0.7965(9) 0.9977(6)
C65 C 0.3775(9) 0.8812(9) 0.3916(6)
H37 H 0.3227 0.8647 0.4130
O15 O 0.3167(5) 0.7351(5) 0.7101(3)
O19 O 0.2681(6) 0.6929(5) 0.8383(3)
O20 O 0.2822(6) 0.8297(5) 0.6342(4)
O21 O 0.1700(6) 0.8002(5) 0.8136(4)
O24 O 0.6883(6) 0.6970(6) 0.5379(3)
O28 O 0.0920(5) 0.9263(5) 0.6291(4)
H38 H 0.0356 0.9392 0.6234
H39 H 0.1248 0.9490 0.5994
O29 O 0.4518(6) 0.5934(5) 0.7858(4)
C71 C 0.6608(9) 0.4524(7) 0.6483(6)
H42 H 0.6663 0.4233 0.6139
C72 C 0.7344(8) 0.4893(8) 0.6653(6)
C73 C 0.5399(8) 0.9311(8) 0.3314(6)
H43 H 0.5950 0.9485 0.3109
C75 C 0.7298(9) 0.5279(8) 0.7187(5)
H44 H 0.7821 0.5473 0.7328
O30 O 0.8152(6) 0.4845(6) 0.6274(4)
C77 C 0.8893(10) 0.5297(10) 0.6421(6)
C80 C 0.5325(9) 0.7532(8) 0.5349(6)
H47 H 0.5408 0.7634 0.4938
O37 O 0.0158(6) 0.9066(5) 0.7522(4)
O40 O 0.3136(5) 0.8988(4) 0.7578(4)
O45 O 0.3197(6) 0.5664(5) 0.6616(4)
Eu10 Eu 0.67283(4) 0.66633(4) 0.22778(3)
Eu17 Eu 0.71041(4) 0.40049(4) 0.23613(3)
O3 O 0.8299(6) 0.7049(5) 0.2314(4)
O4 O 0.9402(5) 0.7951(5) 0.2367(4)
C8 C 0.9136(8) 0.7204(8) 0.2233(5)
C9 C 0.9865(8) 0.6597(7) 0.1949(5)
C10 C 0.9609(9) 0.5833(8) 0.1764(6)
H6 H 0.8996 0.5687 0.1812
O5 O 0.9842(6) 0.0934(5) 0.2478(4)
C12 C 0.9752(8) 0.0333(7) 0.2163(5)
O6 O 0.8905(5) 0.9991(5) 0.2191(3)
H8 H 0.9736 0.9196 0.1314
H8_2 H 0.0264 0.0804 0.8686
C8_2 C 0.0864(8) 0.2796(8) 0.7767(5)
C9_2 C 0.0135(8) 0.3403(7) 0.8051(5)
C10_2 C 0.0391(9) 0.4167(8) 0.8236(6)
H6_2 H 0.1004 0.4313 0.8188
C12_2 C 0.0248(8) 0.9667(7) 0.7837(5)
C4_2 C 0.0430(9) 0.3328(8) 0.3520(6)
H2_2 H 0.0420 0.2721 0.3600
C6_2 C 0.1121(8) 0.3770(10) 0.3699(6)
H4_2 H 0.1592 0.3469 0.3895
C7_2 C 0.0395(9) 0.5131(8) 0.3312(6)
H5_2 H 0.0365 0.5743 0.3267
C21_2 C 0.4077(8) 0.2244(8) 0.6829(5)
C22_2 C 0.4769(9) 0.1571(7) 0.6571(5)
C23_2 C 0.5601(8) 0.1839(8) 0.6282(6)
H13_2 H 0.5733 0.2430 0.6224
C25_2 C 0.2916(9) 0.4910(8) 0.6638(5)
C26_2 C 0.7736(10) 0.2406(10) 0.1523(6)
C27_2 C 0.5698(9) 0.2470(7) 0.3725(5)
C32_2 C 0.8065(8) 0.1132(7) 0.0847(5)
H16_2 H 0.8395 0.0815 0.1134
C33_2 C 0.6635(8) 0.2271(7) 0.3409(5)
C39_2 C 0.3103(9) 0.3494(9) 0.5104(6)
C41_2 C 0.2953(8) 0.4436(7) 0.6110(5)
C42_2 C 0.7985(9) 0.0776(8) 0.0341(6)
H21_2 H 0.8261 0.0223 0.0278
C43_2 C 0.3582(8) 0.4640(7) 0.2495(5)
H22_2 H 0.3655 0.4343 0.2153
C44_2 C 0.4963(9) 0.2845(7) 0.3432(5)
H23_2 H 0.5050 0.2985 0.3025
C45_2 C 0.5257(9) 0.4783(9) 0.2338(6)
H24_2 H 0.6520 0.0176 0.4099
C47_2 C 0.3539(8) 0.4679(8) 0.5604(5)
H25_2 H 0.3874 0.5178 0.5597
C48_2 C 0.2490(9) 0.3278(8) 0.5564(6)
H26_2 H 0.2107 0.2821 0.5543
C49_2 C 0.2415(8) 0.3728(8) 0.6073(5)
H27_2 H 0.2000 0.3551 0.6392
C50_2 C 0.6070(9) 0.0310(9) 0.6191(5)
C51_2 C 0.5281(9) 0.0055(8) 0.6487(5)
C53_2 C 0.5530(9) 0.2252(8) 0.4339(5)
H30_2 H 0.5994 0.1957 0.4544
C54_2 C 0.7672(9) 0.1959(8) 0.0961(5)
C55_2 C 0.3964(10) 0.2834(8) 0.4337(6)
C56_2 C 0.4218(9) 0.5417(7) 0.3180(6)
H31_2 H 0.4718 0.5682 0.3298
C57_2 C 0.7144(9) 0.2391(8) 0.0542(6)
H32_2 H 0.6848 0.2933 0.0614
H33_2 H 0.5960 0.0311 0.5086
C60_2 C 0.4336(8) 0.4998(7) 0.2689(6)
C61_2 C 0.3633(9) 0.4200(8) 0.5113(6)
H34_2 H 0.4054 0.4355 0.4792
C62_2 C 0.4105(9) 0.3019(8) 0.3726(5)
H35_2 H 0.3622 0.3259 0.3515
C64_2 C 0.7050(9) 0.2035(9) 0.0023(6)
C65_2 C 0.6225(9) 0.1188(9) 0.6084(6)
H37_2 H 0.6773 0.1353 0.5870
O15_2 O 0.6833(5) 0.2649(5) 0.2899(3)
O19_2 O 0.7319(6) 0.3071(5) 0.1617(3)
O20_2 O 0.7178(6) 0.1703(5) 0.3658(4)
O21_2 O 0.8300(6) 0.1998(5) 0.1864(4)
O24_2 O 0.3117(6) 0.3030(6) 0.4621(3)
O27 O 0.5872(5) 0.5332(5) 0.2375(4)
O28_2 O 0.9080(5) 0.0737(5) 0.3709(4)
H38_2 H 0.9644 0.0608 0.3766
H39_2 H 0.8752 0.0510 0.4006
O29_2 O 0.5482(6) 0.4066(5) 0.2142(4)
C71_2 C 0.3392(9) 0.5476(7) 0.3517(6)
H42_2 H 0.3337 0.5767 0.3861
C72_2 C 0.2656(8) 0.5107(8) 0.3347(6)
C73_2 C 0.4601(8) 0.0689(8) 0.6686(6)
H43_2 H 0.4050 0.0515 0.6891
C75_2 C 0.2702(9) 0.4721(8) 0.2813(5)
H44_2 H 0.2179 0.4527 0.2672
O30_2 O 0.1848(6) 0.5155(6) 0.3726(4)
C77_2 C 0.1107(10) 0.4703(10) 0.3579(6)
C80_2 C 0.4675(9) 0.2468(8) 0.4651(6)
H47_2 H 0.4592 0.2366 0.5062
O33 O 0.9014(5) 0.2500(5) 0.3128(3)
O34 O 0.8554(6) 0.3763(6) 0.2601(4)
O46 O 0.7636(6) 0.4962(6) 0.1553(4)
C13_2 C 0.9504(8) 0.0029(7) 0.8258(5)
C14_2 C 0.9676(8) 0.0607(7) 0.8676(5)
C16_2 C 0.7923(8) 0.0020(8) 0.8637(5)
C17_2 C 0.8976(9) 0.0872(7) 0.9063(5)
H11_2 H 0.9083 0.1248 0.9345
C58_2 C 0.7514(9) 0.1212(10) 0.9932(6)
H36_2 H 0.6693 0.2324 0.9740
O25_2 O 0.7356(5) 0.0839(6) 0.9411(4)
H40_2 H 0.4377 0.0064 0.8699
C74_2 C 0.8102(8) 0.0586(8) 0.9042(5)
C28_2 C 0.7858(8) 0.9234(7) 0.3627(5)
C29_2 C 0.7579(8) 0.9335(7) 0.4260(5)
C30_2 C 0.7288(9) 0.8278(6) 0.0656(5)
C31_2 C 0.8034(8) 0.8936(7) 0.4720(6)
H15_2 H 0.8547 0.8562 0.4632
C35_2 C 0.6106(9) 0.8129(7) 0.0003(5)
C36_2 C 0.6366(8) 0.8192(7) 0.0561(5)
H18_2 H 0.5919 0.8177 0.0882
C37_2 C 0.7771(8) 0.9061(7) 0.5306(5)
H19_2 H 0.8116 0.8797 0.5602
C38_2 C 0.7964(8) 0.8306(7) 0.0184(5)
H20_2 H 0.8580 0.8366 0.0239
C40_2 C 0.6998(9) 0.9578(7) 0.5445(5)
C46_2 C 0.6827(9) 0.9871(8) 0.4401(5)
H28_2 H 0.5178 0.9459 0.6563
C59_2 C 0.6502(9) 0.9977(8) 0.4996(6)
O14_2 O 0.7635(5) 0.9784(4) 0.3237(3)
O16_2 O 0.8348(5) 0.8535(5) 0.3482(3)
O17_2 O 0.6998(5) 0.8044(4) 0.1722(3)
O18_2 O 0.8278(5) 0.8660(5) 0.1348(3)
O22_2 O 0.7046(8) 0.6245(5) 0.1325(4)
C66_2 C 0.7526(9) 0.8304(7) 0.1253(6)
O26_2 O 0.6745(6) 0.9665(6) 0.6025(3)
C67_2 C 0.7379(10) 0.5558(8) 0.1171(6)
C68_2 C 0.7638(9) 0.5393(7) 0.0554(5)
C76_2 C 0.8130(11) 0.4696(9) 0.0369(6)
H45_2 H 0.8376 0.4293 0.0651
C81_2 C 0.7282(11) 0.5971(9) 0.0130(6)
H48_2 H 0.6920 0.6460 0.0245
O32_2 O 0.5274(7) 0.7225(7) 0.1964(5)
C85_2 C 0.4497(13) 0.7191(14) 0.2144(8)
H51_2 H 0.4281 0.6645 0.2288
N1_2 N 0.3881(12) 0.7919(12) 0.2154(8)
C86_2 C 0.4103(17) 0.8806(14) 0.2033(11)
H52_2 H 0.3843 0.9137 0.2353
H53_2 H 0.4762 0.8841 0.1990
H54_2 H 0.3856 0.9045 0.1672
C87_2 C 0.2942(13) 0.7686(14) 0.2352(10)
H55_2 H 0.2881 0.7566 0.2775
H56_2 H 0.2519 0.8165 0.2240
H57_2 H 0.2807 0.7172 0.2170
C1_2 C 0.9216(9) 0.3185(8) 0.8131(6)
H1_2 H 0.9051 0.2657 0.8009
C11_2 C 0.9697(12) 0.4734(10) 0.8504(7)
H7_2 H 0.9851 0.5260 0.8634
C15_2 C 0.8615(8) 0.9762(7) 0.8241(5)
H9_2 H 0.8495 0.9401 0.7954
H10_2 H 0.7335 0.9817 0.8636
C18_2 C 0.3508(9) 0.9406(7) 0.7918(5)
C19_2 C 0.4287(7) 0.9109(7) 0.8220(5)
C20_2 C 0.4654(9) 0.8232(8) 0.8120(6)
H12_2 H 0.4369 0.7892 0.7881
C24_2 C 0.5405(9) 0.7915(8) 0.8371(6)
H14_2 H 0.5679 0.7371 0.8283
C34_2 C 0.6799(10) 0.8154(7) 0.9546(5)
H17_2 H 0.5494 0.8073 0.9937
C52_2 C 0.7686(9) 0.8244(7) 0.9640(5)
H29_2 H 0.8127 0.8265 0.9315
C63_2 C 0.5771(9) 0.8394(8) 0.8760(6)
O23_2 O 0.6584(6) 0.8048(6) 0.8983(4)
C69_2 C 0.4649(8) 0.9520(7) 0.8610(5)
C70_2 C 0.5395(8) 0.9210(7) 0.8895(5)
H41_2 H 0.5638 0.9530 0.9165
C78_2 C 0.8006(10) 0.5167(9) 0.9373(6)
C79_2 C 0.7439(11) 0.5850(9) 0.9561(6)
H46_2 H 0.7158 0.6237 0.9284
O31_2 O 0.8111(8) 0.5080(7) 0.8777(4)
C82_2 C 0.8796(13) 0.4501(11) 0.8570(7)
C83_2 C 0.8544(10) 0.3750(9) 0.8391(7)
H49_2 H 0.7929 0.3608 0.8440
C84_2 C 0.8297(11) 0.4534(9) 0.9782(6)
H50_2 H 0.8597 0.4012 0.9670
C2_2 C 0.9075(9) 0.3292(8) 0.2982(5)
C3_2 C 0.9729(8) 0.3791(8) 0.3211(6)
C5_2 C 0.9718(8) 0.4689(8) 0.3106(6)
H3_2 H 0.9261 0.4993 0.2899
loop_
_geom_bond_atom_site_label_1
_geom_bond_atom_site_label_2
_geom_bond_site_symmetry_1
_geom_bond_site_symmetry_2
O1 C2 1_555 1_555
O2 C2 1_555 1_555
C2 C3 1_555 1_555
C5 C3 1_555 1_555
H3 C5 1_555 1_555
Eu5 O1 1_555 1_555
Eu16 O2 1_555 1_555
C1 H1 1_555 1_555
H7 C11 1_555 1_555
H9 C15 1_555 1_555
O8 C18 1_555 1_555
C18 C19 1_555 1_555
C19 C20 1_555 1_555
C20 H12 1_555 1_555
C24 C20 1_555 1_555
H14 C24 1_555 1_555
C52 C34 1_555 1_555
H29 C52 1_555 1_555
C63 C24 1_555 1_555
O23 C34 1_555 1_555
C69 C19 1_555 1_555
C70 C63 1_555 1_555
H41 C70 1_555 1_555
C78 C79 1_555 1_555
C79 H46 1_555 1_555
O31 C78 1_555 1_555
C82 C11 1_555 1_555
C83 C1 1_555 1_555
H49 C83 1_555 1_555
H50 C84 1_555 1_555
Eu7 O8 1_555 1_555
C63 O23 1_555 1_555
C69 C70 1_555 1_555
C78 C84 1_555 1_555
O31 C82 1_555 1_555
C82 C83 1_555 1_555
Eu2 O17 1_555 1_555
Eu3 O14 1_555 1_555
C28 C29 1_555 1_555
C29 C31 1_555 1_555
C30 C36 1_555 1_555
C31 H15 1_555 1_555
C36 C35 1_555 1_555
H18 C36 1_555 1_555
C37 C31 1_555 1_555
H19 C37 1_555 1_555
C38 C30 1_555 1_555
H20 C38 1_555 1_555
C40 C37 1_555 1_555
O13 C67 1_555 1_555
C46 C29 1_555 1_555
C59 C40 1_555 1_555
O14 C28 1_555 1_555
O16 Eu3 1_555 1_555
O17 Eu3 1_555 1_555
O18 Eu3 1_555 1_555
O22 Eu2 1_555 1_555
C66 C30 1_555 1_555
O26 C40 1_555 1_555
C67 O22 1_555 1_555
C68 C67 1_555 1_555
C76 C68 1_555 1_555
H45 C76 1_555 1_555
C81 C68 1_555 1_555
H48 C81 1_555 1_555
O32 Eu2 1_555 1_555
C85 O32 1_555 1_555
H51 C85 1_555 1_555
N1 C85 1_555 1_555
C86 N1 1_555 1_555
H52 C86 1_555 1_555
H53 C86 1_555 1_555
H54 C86 1_555 1_555
C87 N1 1_555 1_555
H55 C87 1_555 1_555
H56 C87 1_555 1_555
H57 C87 1_555 1_555
O35 Eu2 1_555 1_555
O36 Eu3 1_555 1_555
O39 Eu3 1_555 1_555
O41 Eu2 1_555 1_555
O42 Eu2 1_555 1_555
O44 Eu2 1_555 1_555
Eu16 O13 1_555 1_555
O47 Eu2 1_555 1_555
Eu3 O35 1_555 1_555
Eu3 O38 1_555 1_555
Eu3 O41 1_555 1_555
C28 O16 1_555 1_555
C46 C59 1_555 1_555
O17 C66 1_555 1_555
O18 C66 1_555 1_555
O44 Eu16 1_555 1_555
Eu16 O47 1_555 1_555
C13 C14 1_555 1_555
C17 C14 1_555 1_555
H11 C17 1_555 1_555
O25 C58 1_555 1_555
C74 C16 1_555 1_555
Eu14 O7 1_555 1_555
C17 C74 1_555 1_555
O25 C74 1_555 1_555
C4 H2 1_555 1_555
C6 C4 1_555 1_555
H4 C6 1_555 1_555
H5 C7 1_555 1_555
O9 C21 1_555 1_555
O10 C21 1_555 1_555
C21 C22 1_555 1_555
C22 C23 1_555 1_555
C23 H13 1_555 1_555
O11 C25 1_555 1_555
O12 C25 1_555 1_555
C25 C41 1_555 1_555
Eu16 O15 1_555 1_555
C26 C54 1_555 1_555
C27 C33 1_555 1_555
C32 H16 1_555 1_555
C33 O15 1_555 1_555
C39 C48 1_555 1_555
C41 C47 1_555 1_555
C42 C32 1_555 1_555
H21 C42 1_555 1_555
C43 H22 1_555 1_555
C44 C27 1_555 1_555
H23 C44 1_555 1_555
C45 C60 1_555 1_555
C47 H25 1_555 1_555
C48 H26 1_555 1_555
C49 C41 1_555 1_555
H27 C49 1_555 1_555
C50 C51 1_555 1_555
C53 C27 1_555 1_555
H30 C53 1_555 1_555
C54 C32 1_555 1_555
C55 C62 1_555 1_555
C56 H31 1_555 1_555
C57 C54 1_555 1_555
H32 C57 1_555 1_555
C60 C43 1_555 1_555
C61 C39 1_555 1_555
H34 C61 1_555 1_555
C62 C44 1_555 1_555
H35 C62 1_555 1_555
C64 C57 1_555 1_555
C65 C23 1_555 1_555
H37 C65 1_555 1_555
O15 Eu5 1_555 1_555
O19 Eu16 1_555 1_555
O20 Eu5 1_555 1_555
O21 Eu5 1_555 1_555
O24 C39 1_555 1_555
O28 Eu5 1_555 1_555
H38 O28 1_555 1_555
H39 O28 1_555 1_555
O29 Eu16 1_555 1_555
C71 C56 1_555 1_555
H42 C71 1_555 1_555
C72 C71 1_555 1_555
C73 C22 1_555 1_555
H43 C73 1_555 1_555
C75 C43 1_555 1_555
H44 C75 1_555 1_555
O30 C72 1_555 1_555
C77 C6 1_555 1_555
C80 C53 1_555 1_555
H47 C80 1_555 1_555
O37 Eu5 1_555 1_555
O40 Eu5 1_555 1_555
O45 Eu16 1_555 1_555
Eu10 O9 1_555 1_555
Eu14 O9 1_555 1_555
Eu17 O11 1_555 1_555
C7 C77 1_555 1_555
O10 Eu10 1_555 1_555
O11 Eu10 1_555 1_555
O12 Eu17 1_555 1_555
C26 O19 1_555 1_555
C26 O21 1_555 1_555
C33 O20 1_555 1_555
C45 O47 1_555 1_555
C45 O29 1_555 1_555
C47 C61 1_555 1_555
C48 C49 1_555 1_555
C50 C65 1_555 1_555
C51 C73 1_555 1_555
C55 O24 1_555 1_555
C55 C80 1_555 1_555
C56 C60 1_555 1_555
C72 C75 1_555 1_555
O30 C77 1_555 1_555
O3 C8 1_555 1_555
O4 C8 1_555 1_555
C8 C9 1_555 1_555
C10 C9 1_555 1_555
H6 C10 1_555 1_555
O5 C12 1_555 1_555
Eu7 O5 1_555 1_555
Eu10 O3 1_555 1_555
Eu14 O3 1_555 1_555
O4 Eu14 1_555 1_555
Eu14 O6 1_555 1_555
O35 C8_2 1_555 1_555
O36 C8_2 1_555 1_555
C8_2 C9_2 1_555 1_555
C10_2 C9_2 1_555 1_555
H6_2 C10_2 1_555 1_555
O37 C12_2 1_555 1_555
C4_2 H2_2 1_555 1_555
C6_2 C4_2 1_555 1_555
H4_2 C6_2 1_555 1_555
H5_2 C7_2 1_555 1_555
O41 C21_2 1_555 1_555
O42 C21_2 1_555 1_555
C21_2 C22_2 1_555 1_555
C22_2 C23_2 1_555 1_555
C23_2 H13_2 1_555 1_555
O44 C25_2 1_555 1_555
O45 C25_2 1_555 1_555
C25_2 C41_2 1_555 1_555
Eu17 O15_2 1_555 1_555
C26_2 C54_2 1_555 1_555
C27_2 C33_2 1_555 1_555
C32_2 H16_2 1_555 1_555
C33_2 O15_2 1_555 1_555
C39_2 C48_2 1_555 1_555
C41_2 C47_2 1_555 1_555
C42_2 C32_2 1_555 1_555
H21_2 C42_2 1_555 1_555
C43_2 H22_2 1_555 1_555
C44_2 C27_2 1_555 1_555
H23_2 C44_2 1_555 1_555
C45_2 C60_2 1_555 1_555
C47_2 H25_2 1_555 1_555
C48_2 H26_2 1_555 1_555
C49_2 C41_2 1_555 1_555
H27_2 C49_2 1_555 1_555
C50_2 C51_2 1_555 1_555
C53_2 C27_2 1_555 1_555
H30_2 C53_2 1_555 1_555
C54_2 C32_2 1_555 1_555
C55_2 C62_2 1_555 1_555
C56_2 H31_2 1_555 1_555
C57_2 C54_2 1_555 1_555
H32_2 C57_2 1_555 1_555
C60_2 C43_2 1_555 1_555
C61_2 C39_2 1_555 1_555
H34_2 C61_2 1_555 1_555
C62_2 C44_2 1_555 1_555
H35_2 C62_2 1_555 1_555
C64_2 C57_2 1_555 1_555
C65_2 C23_2 1_555 1_555
H37_2 C65_2 1_555 1_555
O15_2 Eu7 1_555 1_555
O19_2 Eu17 1_555 1_555
O20_2 Eu7 1_555 1_555
O21_2 Eu7 1_555 1_555
O24_2 C39_2 1_555 1_555
O27 Eu17 1_555 1_555
O28_2 Eu7 1_555 1_555
H38_2 O28_2 1_555 1_555
H39_2 O28_2 1_555 1_555
O29_2 Eu17 1_555 1_555
C71_2 C56_2 1_555 1_555
H42_2 C71_2 1_555 1_555
C72_2 C71_2 1_555 1_555
C73_2 C22_2 1_555 1_555
H43_2 C73_2 1_555 1_555
C75_2 C43_2 1_555 1_555
H44_2 C75_2 1_555 1_555
O30_2 C72_2 1_555 1_555
C77_2 C6_2 1_555 1_555
C80_2 C53_2 1_555 1_555
H47_2 C80_2 1_555 1_555
O33 Eu7 1_555 1_555
O34 Eu17 1_555 1_555
Eu10 O27 1_555 1_555
O46 Eu17 1_555 1_555
C7_2 C77_2 1_555 1_555
C26_2 O19_2 1_555 1_555
C26_2 O21_2 1_555 1_555
C33_2 O20_2 1_555 1_555
C45_2 O27 1_555 1_555
C45_2 O29_2 1_555 1_555
C47_2 C61_2 1_555 1_555
C48_2 C49_2 1_555 1_555
C50_2 C65_2 1_555 1_555
C51_2 C73_2 1_555 1_555
C55_2 O24_2 1_555 1_555
C55_2 C80_2 1_555 1_555
C56_2 C60_2 1_555 1_555
C72_2 C75_2 1_555 1_555
O30_2 C77_2 1_555 1_555
C13_2 C14_2 1_555 1_555
C17_2 C14_2 1_555 1_555
H11_2 C17_2 1_555 1_555
O25_2 C58_2 1_555 1_555
C74_2 C16_2 1_555 1_555
C17_2 C74_2 1_555 1_555
O25_2 C74_2 1_555 1_555
Eu10 O17_2 1_555 1_555
Eu14 O14_2 1_555 1_555
C28_2 C29_2 1_555 1_555
C29_2 C31_2 1_555 1_555
C30_2 C36_2 1_555 1_555
C31_2 H15_2 1_555 1_555
C36_2 C35_2 1_555 1_555
H18_2 C36_2 1_555 1_555
C37_2 C31_2 1_555 1_555
H19_2 C37_2 1_555 1_555
C38_2 C30_2 1_555 1_555
H20_2 C38_2 1_555 1_555
C40_2 C37_2 1_555 1_555
O46 C67_2 1_555 1_555
C46_2 C29_2 1_555 1_555
C59_2 C40_2 1_555 1_555
O14_2 C28_2 1_555 1_555
O16_2 Eu14 1_555 1_555
O17_2 Eu14 1_555 1_555
O18_2 Eu14 1_555 1_555
O22_2 Eu10 1_555 1_555
C66_2 C30_2 1_555 1_555
O26_2 C40_2 1_555 1_555
C67_2 O22_2 1_555 1_555
C68_2 C67_2 1_555 1_555
C76_2 C68_2 1_555 1_555
H45_2 C76_2 1_555 1_555
C81_2 C68_2 1_555 1_555
H48_2 C81_2 1_555 1_555
O32_2 Eu10 1_555 1_555
C85_2 O32_2 1_555 1_555
H51_2 C85_2 1_555 1_555
N1_2 C85_2 1_555 1_555
C86_2 N1_2 1_555 1_555
H52_2 C86_2 1_555 1_555
H53_2 C86_2 1_555 1_555
H54_2 C86_2 1_555 1_555
C87_2 N1_2 1_555 1_555
H55_2 C87_2 1_555 1_555
H56_2 C87_2 1_555 1_555
H57_2 C87_2 1_555 1_555
C28_2 O16_2 1_555 1_555
C46_2 C59_2 1_555 1_555
O17_2 C66_2 1_555 1_555
O18_2 C66_2 1_555 1_555
C1_2 H1_2 1_555 1_555
H7_2 C11_2 1_555 1_555
H9_2 C15_2 1_555 1_555
O40 C18_2 1_555 1_555
C18_2 C19_2 1_555 1_555
C19_2 C20_2 1_555 1_555
C20_2 H12_2 1_555 1_555
C24_2 C20_2 1_555 1_555
H14_2 C24_2 1_555 1_555
C52_2 C34_2 1_555 1_555
H29_2 C52_2 1_555 1_555
C63_2 C24_2 1_555 1_555
O23_2 C34_2 1_555 1_555
C69_2 C19_2 1_555 1_555
C70_2 C63_2 1_555 1_555
H41_2 C70_2 1_555 1_555
C78_2 C79_2 1_555 1_555
C79_2 H46_2 1_555 1_555
O31_2 C78_2 1_555 1_555
C82_2 C11_2 1_555 1_555
C83_2 C1_2 1_555 1_555
H49_2 C83_2 1_555 1_555
H50_2 C84_2 1_555 1_555
C63_2 O23_2 1_555 1_555
C69_2 C70_2 1_555 1_555
C78_2 C84_2 1_555 1_555
O31_2 C82_2 1_555 1_555
C82_2 C83_2 1_555 1_555
O33 C2_2 1_555 1_555
O34 C2_2 1_555 1_555
C2_2 C3_2 1_555 1_555
C5_2 C3_2 1_555 1_555
H3_2 C5_2 1_555 1_555

#END
