
###############################################################################
#
# This file contains modified crystal structure data generated from the
# MOF subset of the Cambridge Structural Database (CSD) v543 
# hosted by the Cambridge Crystallographic Data Centre (CCDC).
#
# This work is licensed under the Creative Commons
# Attribution-NonCommercial-ShareAlike 4.0 International License.
# To view a copy of this license, visit
# http://creativecommons.org/licenses/by-nc-sa/4.0/
# or send a letter to
# Creative Commons, PO Box 1866, Mountain View, CA 94042, USA.
#
# CIF created using the CSD Python API on 29 September 2022
# The structure has been converted into the P1 space group
# The structure has a 3D framework
# The original CSD entry VUMBOW is in the orthorhombic crystal system
# The framework has been calculated to contain at least 10.0% void space
# The void calculation uses a probe of radius 1.32A, grid spacing 0.4
#
###############################################################################

data_VUMBOW
_chemical_formula_moiety         '(C152 H156 Cu16 N16 O86 P28)n'
_symmetry_cell_setting           triclinic
_symmetry_space_group_name_H-M   'P 1'
_symmetry_Int_Tables_number      1
_space_group_name_Hall           'P 1'
loop_
_symmetry_equiv_pos_site_id
_symmetry_equiv_pos_as_xyz
1 x,y,z
_cell_length_a                   33.7186(11)
_cell_length_b                   7.9481(3)
_cell_length_c                   20.5910(5)
_cell_angle_alpha                90
_cell_angle_beta                 90
_cell_angle_gamma                90
_cell_volume                     5518.36
loop_
_atom_site_label
_atom_site_type_symbol
_atom_site_fract_x
_atom_site_fract_y
_atom_site_fract_z
C8 C -0.0000 0.2694(7) 0.2151(2)
H5 H -0.0000 0.2942 0.1700
C10 C -0.0000 0.1930(7) 0.3467(2)
O5 O 0.03838(7) 0.1871(3) 0.46008(11)
P2 P -0.0000 0.12468(17) 0.42989(6)
C17 C 0.03589(10) 0.2509(5) 0.24748(17)
O7 O 0.06952(7) 0.3707(3) 0.13967(11)
O8 O 0.09338(8) 0.0944(4) 0.17795(12)
O9 O 0.11162(7) 0.3573(4) 0.24241(12)
P3 P 0.08045(3) 0.27588(13) 0.20077(4)
H16 H 0.1018(13) 0.021(4) 0.2040(15)
C18 C 0.03582(10) 0.2124(5) 0.31373(17)
H17 H 0.0601 0.1988 0.3361
Cu2 Cu 0.05476(2) 0.33315(7) 0.05044(2)
O11 O 0.04086(9) 0.0599(4) 0.06995(14)
H18 H 0.0524(13) 0.044(8) 0.1126(10)
H19 H 0.0125(5) 0.047(19) 0.075(3)
Cu3 Cu 0.05476(2) 0.16685(7) 0.55044(2)
N3 N 0.11238(9) 0.3028(5) 0.02601(15)
O12 O -0.0000 0.4286(5) 0.06941(16)
O14 O 0.03838(7) 0.3129(3) 0.96008(11)
O4 O -0.0000 0.9286(5) 0.43059(16)
Cu4 Cu 0.05476(2) 0.83315(7) 0.44956(2)
C4 C 0.81901(13) 0.3362(7) 0.0535(2)
H3 H 0.7991 0.3772 0.0820
C5 C 0.85889(12) 0.3603(6) 0.0659(2)
H4 H 0.8662 0.4199 0.1040
C7 C 0.96411(10) 0.2509(5) 0.24748(17)
C8_2 C 1.0000 0.2694(7) 0.2151(2)
H5_2 H 1.0000 0.2942 0.1700
C9 C 0.96418(10) 0.2124(5) 0.31373(17)
H6 H 0.9399 0.1988 0.3361
C10_2 C 1.0000 0.1930(7) 0.3467(2)
Cu1 Cu 0.94524(2) 0.33315(7) 0.05044(2)
N1 N 0.88762(9) 0.3028(5) 0.02601(15)
O1 O 0.93048(7) 0.3707(3) 0.13967(11)
O2 O 0.90662(8) 0.0944(4) 0.17795(12)
O3 O 0.88838(7) 0.3573(4) 0.24241(12)
O6 O 0.95914(9) 0.0599(4) 0.06995(14)
P1 P 0.91955(3) 0.27588(13) 0.20077(4)
P2_2 P 1.0000 0.12468(17) 0.42989(6)
H8 H 0.8982(13) 0.021(4) 0.2040(15)
H9 H 0.9476(13) 0.044(8) 0.1126(10)
H10 H 0.9875(5) 0.047(19) 0.075(3)
C11 C 0.62361(12) 0.2798(6) 0.02776(19)
H11 H 0.6037 0.3208 0.0562
C12 C 0.66317(13) 0.3083(7) 0.0430(2)
H12 H 0.6705 0.3679 0.0811
C13 C 0.69278(12) 0.2506(8) 0.0020(2)
C16 C 0.73496(13) 0.2756(8) 0.0180(2)
H15 H 0.739(4) 0.301(13) 0.0626(13)
O10 O 0.96162(7) 0.1871(3) 0.46008(11)
Cu6 Cu 0.94524(2) 0.16685(7) 0.55044(2)
O12_2 O 1.0000 0.4286(5) 0.06941(16)
C1 C 0.87639(12) 0.2202(6) 0.97224(19)
H1 H 0.8963 0.1792 0.9438
C2 C 0.83683(13) 0.1917(7) 0.9570(2)
H2 H 0.8295 0.1321 0.9189
C3 C 0.80722(12) 0.2494(8) 0.9980(2)
C6 C 0.76504(13) 0.2244(8) 0.9820(2)
H7 H 0.761(4) 0.199(13) 0.9374(13)
C14 C 0.68099(13) 0.1638(7) 0.9465(2)
H13 H 0.7009 0.1228 0.9180
C15 C 0.64111(12) 0.1397(6) 0.9341(2)
H14 H 0.6338 0.0801 0.8960
N2 N 0.61238(9) 0.1972(5) 0.97399(15)
Cu7 Cu 0.55476(2) 0.16685(7) 0.94956(2)
O13 O 0.96162(7) 0.3129(3) 0.96008(11)
O4_2 O 1.0000 0.9286(5) 0.43059(16)
Cu5 Cu 0.94524(2) 0.83315(7) 0.44956(2)
C1_2 C 0.12361(12) 0.2798(6) 0.47224(19)
H1_2 H 0.1037 0.3208 0.4438
C2_2 C 0.16317(13) 0.3083(7) 0.4570(2)
H2_2 H 0.1705 0.3679 0.4189
C3_2 C 0.19278(12) 0.2506(8) 0.4980(2)
C4_2 C 0.18099(13) 0.1638(7) 0.5535(2)
H3_2 H 0.2009 0.1228 0.5820
C5_2 C 0.14111(12) 0.1397(6) 0.5659(2)
H4_2 H 0.1338 0.0801 0.6040
C6_2 C 0.23496(13) 0.2756(8) 0.4820(2)
C7_2 C 0.03589(10) 0.2491(5) 0.74748(17)
C8_3 C 0.0000 0.2306(7) 0.7151(2)
H5_3 H 0.0000 0.2058 0.6700
C9_2 C 0.03582(10) 0.2876(5) 0.81373(17)
H6_2 H 0.0601 0.3012 0.8361
C10_3 C 0.0000 0.3070(7) 0.8467(2)
N1_2 N 0.11238(9) 0.1972(5) 0.52601(15)
O1_2 O 0.06952(7) 0.1293(3) 0.63967(11)
O2_2 O 0.09338(8) 0.4056(4) 0.67795(12)
O3_2 O 0.11162(7) 0.1427(4) 0.74241(12)
O4_3 O 0.0000 0.5714(5) 0.93059(16)
O6_2 O 0.04086(9) 0.4401(4) 0.56995(14)
P1_2 P 0.08045(3) 0.22412(13) 0.70077(4)
P2_3 P 0.0000 0.37532(17) 0.92989(6)
H7_2 H 0.239(4) 0.301(13) 0.4374(13)
H8_2 H 0.1018(13) 0.479(4) 0.7040(15)
H9_2 H 0.0524(13) 0.456(8) 0.6126(10)
H10_2 H 0.0125(5) 0.453(19) 0.575(3)
C11_2 C 0.37639(12) 0.2202(6) 0.52776(19)
H11_2 H 0.3963 0.1792 0.5562
C12_2 C 0.33683(13) 0.1917(7) 0.5430(2)
H12_2 H 0.3295 0.1321 0.5811
C13_2 C 0.30722(12) 0.2494(8) 0.5020(2)
C14_2 C 0.31901(13) 0.3362(7) 0.4465(2)
H13_2 H 0.2991 0.3772 0.4180
C15_2 C 0.35889(12) 0.3603(6) 0.4341(2)
H14_2 H 0.3662 0.4199 0.3960
C16_2 C 0.26504(13) 0.2244(8) 0.5180(2)
N2_2 N 0.38762(9) 0.3028(5) 0.47399(15)
H15_2 H 0.261(4) 0.199(13) 0.5626(13)
Cu5_2 Cu 0.05476(2) 0.66685(7) 0.94956(2)
Cu7_2 Cu 0.44524(2) 0.33315(7) 0.44956(2)
O12_3 O 0.0000 0.0714(5) 0.56941(16)
C8_4 C 1.0000 0.2306(7) 0.7151(2)
H5_4 H 1.0000 0.2058 0.6700
C10_4 C 1.0000 0.3070(7) 0.8467(2)
O4_4 O 1.0000 0.5714(5) 0.93059(16)
P2_4 P 1.0000 0.37532(17) 0.92989(6)
C17_2 C 0.96411(10) 0.2491(5) 0.74748(17)
O7_2 O 0.93048(7) 0.1293(3) 0.63967(11)
O8_2 O 0.90662(8) 0.4056(4) 0.67795(12)
O9_2 O 0.88838(7) 0.1427(4) 0.74241(12)
P3_2 P 0.91955(3) 0.22412(13) 0.70077(4)
H16_2 H 0.8982(13) 0.479(4) 0.7040(15)
C18_2 C 0.96418(10) 0.2876(5) 0.81373(17)
H17_2 H 0.9399 0.3012 0.8361
O11_2 O 0.95914(9) 0.4401(4) 0.56995(14)
H18_2 H 0.9476(13) 0.456(8) 0.6126(10)
H19_2 H 0.9875(5) 0.453(19) 0.575(3)
Cu4_2 Cu 0.94524(2) 0.66685(7) 0.94956(2)
N3_2 N 0.88762(9) 0.1972(5) 0.52601(15)
O12_4 O 1.0000 0.0714(5) 0.56941(16)
O14_2 O 0.03838(7) 0.6871(3) 0.03992(11)
C8_5 C -0.0000 0.7306(7) 0.7849(2)
H5_5 H -0.0000 0.7058 0.8300
C10_5 C -0.0000 0.8070(7) 0.6533(2)
O5_2 O 0.03838(7) 0.8129(3) 0.53992(11)
P2_5 P -0.0000 0.87532(17) 0.57011(6)
C17_3 C 0.03589(10) 0.7491(5) 0.75252(17)
O7_3 O 0.06952(7) 0.6293(3) 0.86033(11)
O8_3 O 0.09338(8) 0.9056(4) 0.82205(12)
O9_3 O 0.11162(7) 0.6427(4) 0.75759(12)
P3_3 P 0.08045(3) 0.72412(13) 0.79923(4)
H16_3 H 0.1018(13) 0.979(4) 0.7960(15)
C18_3 C 0.03582(10) 0.7876(5) 0.68627(17)
H17_3 H 0.0601 0.8012 0.6639
O11_3 O 0.04086(9) 0.9401(4) 0.93005(14)
H18_3 H 0.0524(13) 0.956(8) 0.8874(10)
H19_3 H 0.0125(5) 0.953(19) 0.925(3)
N3_3 N 0.11238(9) 0.6972(5) 0.97399(15)
C1_3 C 0.87639(12) 0.7798(6) 0.02776(19)
H1_3 H 0.8963 0.8208 0.0562
C2_3 C 0.83683(13) 0.8083(7) 0.0430(2)
H2_3 H 0.8295 0.8679 0.0811
C3_3 C 0.80722(12) 0.7506(8) 0.0020(2)
C6_3 C 0.76504(13) 0.7756(8) 0.0180(2)
H7_3 H 0.761(4) 0.801(13) 0.0626(13)
C14_3 C 0.68099(13) 0.8362(7) 0.0535(2)
H13_3 H 0.7009 0.8772 0.0820
C15_3 C 0.64111(12) 0.8603(6) 0.0659(2)
H14_3 H 0.6338 0.9199 0.1040
N2_3 N 0.61238(9) 0.8028(5) 0.02601(15)
Cu7_3 Cu 0.55476(2) 0.83315(7) 0.05044(2)
O13_2 O 0.96162(7) 0.6871(3) 0.03992(11)
C4_3 C 0.81901(13) 0.6638(7) 0.9465(2)
H3_3 H 0.7991 0.6228 0.9180
C5_3 C 0.85889(12) 0.6397(6) 0.9341(2)
H4_3 H 0.8662 0.5801 0.8960
C7_3 C 0.96411(10) 0.7491(5) 0.75252(17)
C8_6 C 1.0000 0.7306(7) 0.7849(2)
H5_6 H 1.0000 0.7058 0.8300
C9_3 C 0.96418(10) 0.7876(5) 0.68627(17)
H6_3 H 0.9399 0.8012 0.6639
C10_6 C 1.0000 0.8070(7) 0.6533(2)
N1_3 N 0.88762(9) 0.6972(5) 0.97399(15)
O1_3 O 0.93048(7) 0.6293(3) 0.86033(11)
O2_3 O 0.90662(8) 0.9056(4) 0.82205(12)
O3_3 O 0.88838(7) 0.6427(4) 0.75759(12)
O6_3 O 0.95914(9) 0.9401(4) 0.93005(14)
P1_3 P 0.91955(3) 0.72412(13) 0.79923(4)
P2_6 P 1.0000 0.87532(17) 0.57011(6)
H8_3 H 0.8982(13) 0.979(4) 0.7960(15)
H9_3 H 0.9476(13) 0.956(8) 0.8874(10)
H10_3 H 0.9875(5) 0.953(19) 0.925(3)
C11_3 C 0.62361(12) 0.7202(6) 0.97224(19)
H11_3 H 0.6037 0.6792 0.9438
C12_3 C 0.66317(13) 0.6917(7) 0.9570(2)
H12_3 H 0.6705 0.6321 0.9189
C13_3 C 0.69278(12) 0.7494(8) 0.9980(2)
C16_3 C 0.73496(13) 0.7244(8) 0.9820(2)
H15_3 H 0.739(4) 0.699(13) 0.9374(13)
O10_2 O 0.96162(7) 0.8129(3) 0.53992(11)
C1_4 C 0.12361(12) 0.7202(6) 0.52776(19)
H1_4 H 0.1037 0.6792 0.5562
C2_4 C 0.16317(13) 0.6917(7) 0.5430(2)
H2_4 H 0.1705 0.6321 0.5811
C3_4 C 0.19278(12) 0.7494(8) 0.5020(2)
C4_4 C 0.18099(13) 0.8362(7) 0.4465(2)
H3_4 H 0.2009 0.8772 0.4180
C5_4 C 0.14111(12) 0.8603(6) 0.4341(2)
H4_4 H 0.1338 0.9199 0.3960
C6_4 C 0.23496(13) 0.7244(8) 0.5180(2)
C7_4 C 0.03589(10) 0.7509(5) 0.25252(17)
C8_7 C 0.0000 0.7694(7) 0.2849(2)
H5_7 H 0.0000 0.7942 0.3300
C9_4 C 0.03582(10) 0.7124(5) 0.18627(17)
H6_4 H 0.0601 0.6988 0.1639
C10_7 C 0.0000 0.6930(7) 0.1533(2)
N1_4 N 0.11238(9) 0.8028(5) 0.47399(15)
O1_4 O 0.06952(7) 0.8707(3) 0.36033(11)
O2_4 O 0.09338(8) 0.5944(4) 0.32205(12)
O3_4 O 0.11162(7) 0.8573(4) 0.25759(12)
O6_4 O 0.04086(9) 0.5599(4) 0.43005(14)
P1_4 P 0.08045(3) 0.77588(13) 0.29923(4)
P2_7 P 0.0000 0.62468(17) 0.07011(6)
H7_4 H 0.239(4) 0.699(13) 0.5626(13)
H8_4 H 0.1018(13) 0.521(4) 0.2960(15)
H9_4 H 0.0524(13) 0.544(8) 0.3874(10)
H10_4 H 0.0125(5) 0.547(19) 0.425(3)
C11_4 C 0.37639(12) 0.7798(6) 0.47224(19)
H11_4 H 0.3963 0.8208 0.4438
C12_4 C 0.33683(13) 0.8083(7) 0.4570(2)
H12_4 H 0.3295 0.8679 0.4189
C13_4 C 0.30722(12) 0.7506(8) 0.4980(2)
C14_4 C 0.31901(13) 0.6638(7) 0.5535(2)
H13_4 H 0.2991 0.6228 0.5820
C15_4 C 0.35889(12) 0.6397(6) 0.5659(2)
H14_4 H 0.3662 0.5801 0.6040
C16_4 C 0.26504(13) 0.7756(8) 0.4820(2)
N2_4 N 0.38762(9) 0.6972(5) 0.52601(15)
H15_4 H 0.261(4) 0.801(13) 0.4374(13)
Cu7_4 Cu 0.44524(2) 0.66685(7) 0.55044(2)
C8_8 C 1.0000 0.7694(7) 0.2849(2)
H5_8 H 1.0000 0.7942 0.3300
C10_8 C 1.0000 0.6930(7) 0.1533(2)
P2_8 P 1.0000 0.62468(17) 0.07011(6)
C17_4 C 0.96411(10) 0.7509(5) 0.25252(17)
O7_4 O 0.93048(7) 0.8707(3) 0.36033(11)
O8_4 O 0.90662(8) 0.5944(4) 0.32205(12)
O9_4 O 0.88838(7) 0.8573(4) 0.25759(12)
P3_4 P 0.91955(3) 0.77588(13) 0.29923(4)
H16_4 H 0.8982(13) 0.521(4) 0.2960(15)
C18_4 C 0.96418(10) 0.7124(5) 0.18627(17)
H17_4 H 0.9399 0.6988 0.1639
O11_4 O 0.95914(9) 0.5599(4) 0.43005(14)
H18_4 H 0.9476(13) 0.544(8) 0.3874(10)
H19_4 H 0.9875(5) 0.547(19) 0.425(3)
N3_4 N 0.88762(9) 0.8028(5) 0.47399(15)
C4_5 C 0.31901(13) 0.8362(7) 0.0535(2)
H3_5 H 0.2991 0.8772 0.0820
C5_5 C 0.35889(12) 0.8603(6) 0.0659(2)
H4_5 H 0.3662 0.9199 0.1040
C7_5 C 0.46411(10) 0.7509(5) 0.24748(17)
C8_9 C 0.5000 0.7694(7) 0.2151(2)
H5_9 H 0.5000 0.7942 0.1700
C9_5 C 0.46418(10) 0.7124(5) 0.31373(17)
H6_5 H 0.4399 0.6988 0.3361
C10_9 C 0.5000 0.6930(7) 0.3467(2)
Cu1_2 Cu 0.44524(2) 0.83315(7) 0.05044(2)
N1_5 N 0.38762(9) 0.8028(5) 0.02601(15)
O1_5 O 0.43048(7) 0.8707(3) 0.13967(11)
O2_5 O 0.40662(8) 0.5944(4) 0.17795(12)
O3_5 O 0.38838(7) 0.8573(4) 0.24241(12)
O4_5 O 0.5000 0.4286(5) 0.43059(16)
O5_3 O 0.53838(7) 0.6871(3) 0.46008(11)
O6_5 O 0.45914(9) 0.5599(4) 0.06995(14)
P1_5 P 0.41955(3) 0.77588(13) 0.20077(4)
P2_9 P 0.5000 0.62468(17) 0.42989(6)
H8_5 H 0.3982(13) 0.521(4) 0.2040(15)
H9_5 H 0.4476(13) 0.544(8) 0.1126(10)
H10_5 H 0.4875(5) 0.547(19) 0.075(3)
C11_5 C 0.12361(12) 0.7798(6) 0.02776(19)
H11_5 H 0.1037 0.8208 0.0562
C12_5 C 0.16317(13) 0.8083(7) 0.0430(2)
H12_5 H 0.1705 0.8679 0.0811
C13_5 C 0.19278(12) 0.7506(8) 0.0020(2)
C16_5 C 0.23496(13) 0.7756(8) 0.0180(2)
H15_5 H 0.239(4) 0.801(13) 0.0626(13)
C17_5 C 0.53589(10) 0.7509(5) 0.24748(17)
O7_5 O 0.56952(7) 0.8707(3) 0.13967(11)
O8_5 O 0.59338(8) 0.5944(4) 0.17795(12)
O9_5 O 0.61162(7) 0.8573(4) 0.24241(12)
P3_5 P 0.58045(3) 0.77588(13) 0.20077(4)
H16_5 H 0.6018(13) 0.521(4) 0.2040(15)
C18_5 C 0.53582(10) 0.7124(5) 0.31373(17)
H17_5 H 0.5601 0.6988 0.3361
O10_3 O 0.46162(7) 0.6871(3) 0.46008(11)
O11_5 O 0.54086(9) 0.5599(4) 0.06995(14)
H18_5 H 0.5524(13) 0.544(8) 0.1126(10)
H19_5 H 0.5125(5) 0.547(19) 0.075(3)
Cu3_2 Cu 0.55476(2) 0.66685(7) 0.55044(2)
Cu4_3 Cu 0.55476(2) 0.33315(7) 0.44956(2)
O12_5 O 0.5000 0.9286(5) 0.06941(16)
C1_5 C 0.37639(12) 0.7202(6) 0.97224(19)
H1_5 H 0.3963 0.6792 0.9438
C2_5 C 0.33683(13) 0.6917(7) 0.9570(2)
H2_5 H 0.3295 0.6321 0.9189
C3_5 C 0.30722(12) 0.7494(8) 0.9980(2)
C6_5 C 0.26504(13) 0.7244(8) 0.9820(2)
H7_5 H 0.261(4) 0.699(13) 0.9374(13)
C14_5 C 0.18099(13) 0.6638(7) 0.9465(2)
H13_5 H 0.2009 0.6228 0.9180
C15_5 C 0.14111(12) 0.6397(6) 0.9341(2)
H14_5 H 0.1338 0.5801 0.8960
O13_3 O 0.46162(7) 0.8129(3) 0.96008(11)
O14_3 O 0.53838(7) 0.8129(3) 0.96008(11)
O4_6 O 0.5000 0.0714(5) 0.93059(16)
Cu4_4 Cu 0.44524(2) 0.16685(7) 0.94956(2)
C1_6 C 0.62361(12) 0.7798(6) 0.47224(19)
H1_6 H 0.6037 0.8208 0.4438
C2_6 C 0.66317(13) 0.8083(7) 0.4570(2)
H2_6 H 0.6705 0.8679 0.4189
C3_6 C 0.69278(12) 0.7506(8) 0.4980(2)
C4_6 C 0.68099(13) 0.6638(7) 0.5535(2)
H3_6 H 0.7009 0.6228 0.5820
C5_6 C 0.64111(12) 0.6397(6) 0.5659(2)
H4_6 H 0.6338 0.5801 0.6040
C6_6 C 0.73496(13) 0.7756(8) 0.4820(2)
C7_6 C 0.53589(10) 0.7491(5) 0.74748(17)
C8_10 C 0.5000 0.7306(7) 0.7151(2)
H5_10 H 0.5000 0.7058 0.6700
C9_6 C 0.53582(10) 0.7876(5) 0.81373(17)
H6_6 H 0.5601 0.8012 0.8361
C10_10 C 0.5000 0.8070(7) 0.8467(2)
N1_6 N 0.61238(9) 0.6972(5) 0.52601(15)
O1_6 O 0.56952(7) 0.6293(3) 0.63967(11)
O2_6 O 0.59338(8) 0.9056(4) 0.67795(12)
O3_6 O 0.61162(7) 0.6427(4) 0.74241(12)
O6_6 O 0.54086(9) 0.9401(4) 0.56995(14)
P1_6 P 0.58045(3) 0.72412(13) 0.70077(4)
P2_10 P 0.5000 0.87532(17) 0.92989(6)
H7_6 H 0.739(4) 0.801(13) 0.4374(13)
H8_6 H 0.6018(13) 0.979(4) 0.7040(15)
H9_6 H 0.5524(13) 0.956(8) 0.6126(10)
H10_6 H 0.5125(5) 0.953(19) 0.575(3)
C11_6 C 0.87639(12) 0.7202(6) 0.52776(19)
H11_6 H 0.8963 0.6792 0.5562
C12_6 C 0.83683(13) 0.6917(7) 0.5430(2)
H12_6 H 0.8295 0.6321 0.5811
C13_6 C 0.80722(12) 0.7494(8) 0.5020(2)
C14_6 C 0.81901(13) 0.8362(7) 0.4465(2)
H13_6 H 0.7991 0.8772 0.4180
C15_6 C 0.85889(12) 0.8603(6) 0.4341(2)
H14_6 H 0.8662 0.9199 0.3960
C16_6 C 0.76504(13) 0.7244(8) 0.5180(2)
H15_6 H 0.761(4) 0.699(13) 0.5626(13)
C17_6 C 0.46411(10) 0.7491(5) 0.74748(17)
O7_6 O 0.43048(7) 0.6293(3) 0.63967(11)
O8_6 O 0.40662(8) 0.9056(4) 0.67795(12)
O9_6 O 0.38838(7) 0.6427(4) 0.74241(12)
P3_6 P 0.41955(3) 0.72412(13) 0.70077(4)
H16_6 H 0.3982(13) 0.979(4) 0.7040(15)
C18_6 C 0.46418(10) 0.7876(5) 0.81373(17)
H17_6 H 0.4399 0.8012 0.8361
O11_6 O 0.45914(9) 0.9401(4) 0.56995(14)
H18_6 H 0.4476(13) 0.956(8) 0.6126(10)
H19_6 H 0.4875(5) 0.953(19) 0.575(3)
O12_6 O 0.5000 0.5714(5) 0.56941(16)
C1_7 C 0.37639(12) 0.2798(6) 0.02776(19)
H1_7 H 0.3963 0.3208 0.0562
C2_7 C 0.33683(13) 0.3083(7) 0.0430(2)
H2_7 H 0.3295 0.3679 0.0811
C3_7 C 0.30722(12) 0.2506(8) 0.0020(2)
C6_7 C 0.26504(13) 0.2756(8) 0.0180(2)
H7_7 H 0.261(4) 0.301(13) 0.0626(13)
C14_7 C 0.18099(13) 0.3362(7) 0.0535(2)
H13_7 H 0.2009 0.3772 0.0820
C15_7 C 0.14111(12) 0.3603(6) 0.0659(2)
H14_7 H 0.1338 0.4199 0.1040
O13_4 O 0.46162(7) 0.1871(3) 0.03992(11)
O14_4 O 0.53838(7) 0.1871(3) 0.03992(11)
C4_7 C 0.31901(13) 0.1638(7) 0.9465(2)
H3_7 H 0.2991 0.1228 0.9180
C5_7 C 0.35889(12) 0.1397(6) 0.9341(2)
H4_7 H 0.3662 0.0801 0.8960
C7_7 C 0.46411(10) 0.2491(5) 0.75252(17)
C8_11 C 0.5000 0.2306(7) 0.7849(2)
H5_11 H 0.5000 0.2058 0.8300
C9_7 C 0.46418(10) 0.2876(5) 0.68627(17)
H6_7 H 0.4399 0.3012 0.6639
C10_11 C 0.5000 0.3070(7) 0.6533(2)
N1_7 N 0.38762(9) 0.1972(5) 0.97399(15)
O1_7 O 0.43048(7) 0.1293(3) 0.86033(11)
O2_7 O 0.40662(8) 0.4056(4) 0.82205(12)
O3_7 O 0.38838(7) 0.1427(4) 0.75759(12)
O5_4 O 0.53838(7) 0.3129(3) 0.53992(11)
O6_7 O 0.45914(9) 0.4401(4) 0.93005(14)
P1_7 P 0.41955(3) 0.22412(13) 0.79923(4)
P2_11 P 0.5000 0.37532(17) 0.57011(6)
H8_7 H 0.3982(13) 0.479(4) 0.7960(15)
H9_7 H 0.4476(13) 0.456(8) 0.8874(10)
H10_7 H 0.4875(5) 0.453(19) 0.925(3)
C11_7 C 0.12361(12) 0.2202(6) 0.97224(19)
H11_7 H 0.1037 0.1792 0.9438
C12_7 C 0.16317(13) 0.1917(7) 0.9570(2)
H12_7 H 0.1705 0.1321 0.9189
C13_7 C 0.19278(12) 0.2494(8) 0.9980(2)
C16_7 C 0.23496(13) 0.2244(8) 0.9820(2)
H15_7 H 0.239(4) 0.199(13) 0.9374(13)
C17_7 C 0.53589(10) 0.2491(5) 0.75252(17)
O7_7 O 0.56952(7) 0.1293(3) 0.86033(11)
O8_7 O 0.59338(8) 0.4056(4) 0.82205(12)
O9_7 O 0.61162(7) 0.1427(4) 0.75759(12)
P3_7 P 0.58045(3) 0.22412(13) 0.79923(4)
H16_7 H 0.6018(13) 0.479(4) 0.7960(15)
C18_7 C 0.53582(10) 0.2876(5) 0.68627(17)
H17_7 H 0.5601 0.3012 0.6639
O10_4 O 0.46162(7) 0.3129(3) 0.53992(11)
O11_7 O 0.54086(9) 0.4401(4) 0.93005(14)
H18_7 H 0.5524(13) 0.456(8) 0.8874(10)
H19_7 H 0.5125(5) 0.453(19) 0.925(3)
C1_8 C 0.62361(12) 0.2202(6) 0.52776(19)
H1_8 H 0.6037 0.1792 0.5562
C2_8 C 0.66317(13) 0.1917(7) 0.5430(2)
H2_8 H 0.6705 0.1321 0.5811
C3_8 C 0.69278(12) 0.2494(8) 0.5020(2)
C4_8 C 0.68099(13) 0.3362(7) 0.4465(2)
H3_8 H 0.7009 0.3772 0.4180
C5_8 C 0.64111(12) 0.3603(6) 0.4341(2)
H4_8 H 0.6338 0.4199 0.3960
C6_8 C 0.73496(13) 0.2244(8) 0.5180(2)
C7_8 C 0.53589(10) 0.2509(5) 0.25252(17)
C8_12 C 0.5000 0.2694(7) 0.2849(2)
H5_12 H 0.5000 0.2942 0.3300
C9_8 C 0.53582(10) 0.2124(5) 0.18627(17)
H6_8 H 0.5601 0.1988 0.1639
C10_12 C 0.5000 0.1930(7) 0.1533(2)
N1_8 N 0.61238(9) 0.3028(5) 0.47399(15)
O1_8 O 0.56952(7) 0.3707(3) 0.36033(11)
O2_8 O 0.59338(8) 0.0944(4) 0.32205(12)
O3_8 O 0.61162(7) 0.3573(4) 0.25759(12)
O6_8 O 0.54086(9) 0.0599(4) 0.43005(14)
P1_8 P 0.58045(3) 0.27588(13) 0.29923(4)
P2_12 P 0.5000 0.12468(17) 0.07011(6)
H7_8 H 0.739(4) 0.199(13) 0.5626(13)
H8_8 H 0.6018(13) 0.021(4) 0.2960(15)
H9_8 H 0.5524(13) 0.044(8) 0.3874(10)
H10_8 H 0.5125(5) 0.047(19) 0.425(3)
C11_8 C 0.87639(12) 0.2798(6) 0.47224(19)
H11_8 H 0.8963 0.3208 0.4438
C12_8 C 0.83683(13) 0.3083(7) 0.4570(2)
H12_8 H 0.8295 0.3679 0.4189
C13_8 C 0.80722(12) 0.2506(8) 0.4980(2)
C14_8 C 0.81901(13) 0.1638(7) 0.5535(2)
H13_8 H 0.7991 0.1228 0.5820
C15_8 C 0.85889(12) 0.1397(6) 0.5659(2)
H14_8 H 0.8662 0.0801 0.6040
C16_8 C 0.76504(13) 0.2756(8) 0.4820(2)
H15_8 H 0.761(4) 0.301(13) 0.4374(13)
C17_8 C 0.46411(10) 0.2509(5) 0.25252(17)
O7_8 O 0.43048(7) 0.3707(3) 0.36033(11)
O8_8 O 0.40662(8) 0.0944(4) 0.32205(12)
O9_8 O 0.38838(7) 0.3573(4) 0.25759(12)
P3_8 P 0.41955(3) 0.27588(13) 0.29923(4)
H16_8 H 0.3982(13) 0.021(4) 0.2960(15)
C18_8 C 0.46418(10) 0.2124(5) 0.18627(17)
H17_8 H 0.4399 0.1988 0.1639
O11_8 O 0.45914(9) 0.0599(4) 0.43005(14)
H18_8 H 0.4476(13) 0.044(8) 0.3874(10)
H19_8 H 0.4875(5) 0.047(19) 0.425(3)
loop_
_geom_bond_atom_site_label_1
_geom_bond_atom_site_label_2
_geom_bond_site_symmetry_1
_geom_bond_site_symmetry_2
C8 H5 1_555 1_555
O5 P2 1_555 1_555
P2 C10 1_555 1_555
C17 C8 1_555 1_555
O7 P3 1_555 1_555
O8 P3 1_555 1_555
O9 P3 1_555 1_555
P3 C17 1_555 1_555
H16 O8 1_555 1_555
C18 C10 1_555 1_555
H17 C18 1_555 1_555
Cu2 O7 1_555 1_555
O11 Cu2 1_555 1_555
H18 O11 1_555 1_555
H19 O11 1_555 1_555
Cu3 O5 1_555 1_555
N3 Cu2 1_555 1_555
C17 C18 1_555 1_555
Cu2 O12 1_555 1_555
Cu4 O4 1_555 1_555
H3 C4 1_555 1_555
C5 C4 1_555 1_555
H4 C5 1_555 1_555
C7 C8_2 1_555 1_555
C8_2 H5_2 1_555 1_555
C9 C7 1_555 1_555
H6 C9 1_555 1_555
C10_2 C9 1_555 1_555
Cu1 N1 1_555 1_555
O1 Cu1 1_555 1_555
O2 P1 1_555 1_555
O3 P1 1_555 1_555
O6 Cu1 1_555 1_555
P1 C7 1_555 1_555
P2_2 C10_2 1_555 1_555
H8 O2 1_555 1_555
H9 O6 1_555 1_555
H10 O6 1_555 1_555
C11 H11 1_555 1_555
C12 C11 1_555 1_555
H12 C12 1_555 1_555
C13 C12 1_555 1_555
H15 C16 1_555 1_555
O10 P2_2 1_555 1_555
Cu6 O10 1_555 1_555
O12_2 Cu1 1_555 1_555
C5 N1 1_555 1_555
O1 P1 1_555 1_555
C13 C16 1_555 1_555
C1 H1 1_555 1_555
C2 C1 1_555 1_555
H2 C2 1_555 1_555
C3 C2 1_555 1_555
C6 C3 1_555 1_555
H7 C6 1_555 1_555
H13 C14 1_555 1_555
C15 C14 1_555 1_555
H14 C15 1_555 1_555
Cu7 N2 1_555 1_555
C15 N2 1_555 1_555
Cu5 O4_2 1_555 1_555
C1_2 H1_2 1_555 1_555
C2_2 C1_2 1_555 1_555
H2_2 C2_2 1_555 1_555
C3_2 C2_2 1_555 1_555
C4_2 C3_2 1_555 1_555
H3_2 C4_2 1_555 1_555
C5_2 C4_2 1_555 1_555
H4_2 C5_2 1_555 1_555
C6_2 C3_2 1_555 1_555
C7_2 C8_3 1_555 1_555
C8_3 H5_3 1_555 1_555
C9_2 C7_2 1_555 1_555
H6_2 C9_2 1_555 1_555
C10_3 C9_2 1_555 1_555
Cu3 N1_2 1_555 1_555
N1_2 C1_2 1_555 1_555
O1_2 Cu3 1_555 1_555
O2_2 P1_2 1_555 1_555
O3_2 P1_2 1_555 1_555
O4_3 P2_3 1_555 1_555
O6_2 Cu3 1_555 1_555
P1_2 C7_2 1_555 1_555
P2_3 C10_3 1_555 1_555
H7_2 C6_2 1_555 1_555
H8_2 O2_2 1_555 1_555
H9_2 O6_2 1_555 1_555
H10_2 O6_2 1_555 1_555
C11_2 H11_2 1_555 1_555
C12_2 C11_2 1_555 1_555
H12_2 C12_2 1_555 1_555
C13_2 C12_2 1_555 1_555
C14_2 C13_2 1_555 1_555
H13_2 C14_2 1_555 1_555
C15_2 C14_2 1_555 1_555
H14_2 C15_2 1_555 1_555
C16_2 C6_2 1_555 1_555
N2_2 C11_2 1_555 1_555
H15_2 C16_2 1_555 1_555
O14 P2_3 1_555 1_555
Cu5_2 O4_3 1_555 1_555
Cu7_2 N2_2 1_555 1_555
O12_3 Cu3 1_555 1_555
C5_2 N1_2 1_555 1_555
O1_2 P1_2 1_555 1_555
C13_2 C16_2 1_555 1_555
C15_2 N2_2 1_555 1_555
C8_4 H5_4 1_555 1_555
O4_4 P2_4 1_555 1_555
O13 P2_4 1_555 1_555
P2_4 C10_4 1_555 1_555
C17_2 C8_4 1_555 1_555
O7_2 P3_2 1_555 1_555
O8_2 P3_2 1_555 1_555
O9_2 P3_2 1_555 1_555
P3_2 C17_2 1_555 1_555
H16_2 O8_2 1_555 1_555
C18_2 C10_4 1_555 1_555
H17_2 C18_2 1_555 1_555
Cu6 O7_2 1_555 1_555
O11_2 Cu6 1_555 1_555
H18_2 O11_2 1_555 1_555
H19_2 O11_2 1_555 1_555
Cu4_2 O4_4 1_555 1_555
N3_2 Cu6 1_555 1_555
C17_2 C18_2 1_555 1_555
Cu6 O12_4 1_555 1_555
C8_5 H5_5 1_555 1_555
O5_2 P2_5 1_555 1_555
P2_5 C10_5 1_555 1_555
C17_3 C8_5 1_555 1_555
O7_3 P3_3 1_555 1_555
O8_3 P3_3 1_555 1_555
O9_3 P3_3 1_555 1_555
P3_3 C17_3 1_555 1_555
H16_3 O8_3 1_555 1_555
C18_3 C10_5 1_555 1_555
H17_3 C18_3 1_555 1_555
Cu5_2 O7_3 1_555 1_555
O11_3 Cu5_2 1_555 1_555
H18_3 O11_3 1_555 1_555
H19_3 O11_3 1_555 1_555
Cu4 O5_2 1_555 1_555
N3_3 Cu5_2 1_555 1_555
C17_3 C18_3 1_555 1_555
C1_3 H1_3 1_555 1_555
C2_3 C1_3 1_555 1_555
H2_3 C2_3 1_555 1_555
C3_3 C2_3 1_555 1_555
C6_3 C3_3 1_555 1_555
H7_3 C6_3 1_555 1_555
H13_3 C14_3 1_555 1_555
C15_3 C14_3 1_555 1_555
H14_3 C15_3 1_555 1_555
Cu7_3 N2_3 1_555 1_555
C15_3 N2_3 1_555 1_555
H3_3 C4_3 1_555 1_555
C5_3 C4_3 1_555 1_555
H4_3 C5_3 1_555 1_555
C7_3 C8_6 1_555 1_555
C8_6 H5_6 1_555 1_555
C9_3 C7_3 1_555 1_555
H6_3 C9_3 1_555 1_555
C10_6 C9_3 1_555 1_555
Cu4_2 N1_3 1_555 1_555
O1_3 Cu4_2 1_555 1_555
O2_3 P1_3 1_555 1_555
O3_3 P1_3 1_555 1_555
O6_3 Cu4_2 1_555 1_555
P1_3 C7_3 1_555 1_555
P2_6 C10_6 1_555 1_555
H8_3 O2_3 1_555 1_555
H9_3 O6_3 1_555 1_555
H10_3 O6_3 1_555 1_555
C11_3 H11_3 1_555 1_555
C12_3 C11_3 1_555 1_555
H12_3 C12_3 1_555 1_555
C13_3 C12_3 1_555 1_555
H15_3 C16_3 1_555 1_555
O10_2 P2_6 1_555 1_555
Cu5 O10_2 1_555 1_555
C5_3 N1_3 1_555 1_555
O1_3 P1_3 1_555 1_555
C13_3 C16_3 1_555 1_555
C1_4 H1_4 1_555 1_555
C2_4 C1_4 1_555 1_555
H2_4 C2_4 1_555 1_555
C3_4 C2_4 1_555 1_555
C4_4 C3_4 1_555 1_555
H3_4 C4_4 1_555 1_555
C5_4 C4_4 1_555 1_555
H4_4 C5_4 1_555 1_555
C6_4 C3_4 1_555 1_555
C7_4 C8_7 1_555 1_555
C8_7 H5_7 1_555 1_555
C9_4 C7_4 1_555 1_555
H6_4 C9_4 1_555 1_555
C10_7 C9_4 1_555 1_555
Cu4 N1_4 1_555 1_555
N1_4 C1_4 1_555 1_555
O1_4 Cu4 1_555 1_555
O2_4 P1_4 1_555 1_555
O3_4 P1_4 1_555 1_555
O12 P2_7 1_555 1_555
O6_4 Cu4 1_555 1_555
P1_4 C7_4 1_555 1_555
P2_7 C10_7 1_555 1_555
H7_4 C6_4 1_555 1_555
H8_4 O2_4 1_555 1_555
H9_4 O6_4 1_555 1_555
H10_4 O6_4 1_555 1_555
C11_4 H11_4 1_555 1_555
C12_4 C11_4 1_555 1_555
H12_4 C12_4 1_555 1_555
C13_4 C12_4 1_555 1_555
C14_4 C13_4 1_555 1_555
H13_4 C14_4 1_555 1_555
C15_4 C14_4 1_555 1_555
H14_4 C15_4 1_555 1_555
C16_4 C6_4 1_555 1_555
N2_4 C11_4 1_555 1_555
H15_4 C16_4 1_555 1_555
O14_2 P2_7 1_555 1_555
Cu7_4 N2_4 1_555 1_555
C5_4 N1_4 1_555 1_555
O1_4 P1_4 1_555 1_555
C13_4 C16_4 1_555 1_555
C15_4 N2_4 1_555 1_555
C8_8 H5_8 1_555 1_555
O12_2 P2_8 1_555 1_555
O13_2 P2_8 1_555 1_555
P2_8 C10_8 1_555 1_555
C17_4 C8_8 1_555 1_555
O7_4 P3_4 1_555 1_555
O8_4 P3_4 1_555 1_555
O9_4 P3_4 1_555 1_555
P3_4 C17_4 1_555 1_555
H16_4 O8_4 1_555 1_555
C18_4 C10_8 1_555 1_555
H17_4 C18_4 1_555 1_555
Cu5 O7_4 1_555 1_555
O11_4 Cu5 1_555 1_555
H18_4 O11_4 1_555 1_555
H19_4 O11_4 1_555 1_555
N3_4 Cu5 1_555 1_555
C17_4 C18_4 1_555 1_555
H3_5 C4_5 1_555 1_555
C5_5 C4_5 1_555 1_555
H4_5 C5_5 1_555 1_555
C7_5 C8_9 1_555 1_555
C8_9 H5_9 1_555 1_555
C9_5 C7_5 1_555 1_555
H6_5 C9_5 1_555 1_555
C10_9 C9_5 1_555 1_555
Cu1_2 N1_5 1_555 1_555
O1_5 Cu1_2 1_555 1_555
O2_5 P1_5 1_555 1_555
O3_5 P1_5 1_555 1_555
O4_5 P2_9 1_555 1_555
O5_3 P2_9 1_555 1_555
O6_5 Cu1_2 1_555 1_555
P1_5 C7_5 1_555 1_555
P2_9 C10_9 1_555 1_555
H8_5 O2_5 1_555 1_555
H9_5 O6_5 1_555 1_555
H10_5 O6_5 1_555 1_555
C11_5 H11_5 1_555 1_555
C12_5 C11_5 1_555 1_555
H12_5 C12_5 1_555 1_555
C13_5 C12_5 1_555 1_555
H15_5 C16_5 1_555 1_555
C17_5 C8_9 1_555 1_555
O7_5 P3_5 1_555 1_555
O8_5 P3_5 1_555 1_555
O9_5 P3_5 1_555 1_555
P3_5 C17_5 1_555 1_555
H16_5 O8_5 1_555 1_555
C18_5 C10_9 1_555 1_555
H17_5 C18_5 1_555 1_555
O10_3 P2_9 1_555 1_555
Cu7_3 O7_5 1_555 1_555
O11_5 Cu7_3 1_555 1_555
H18_5 O11_5 1_555 1_555
H19_5 O11_5 1_555 1_555
Cu3_2 O5_3 1_555 1_555
Cu4_3 O4_5 1_555 1_555
Cu7_2 O4_5 1_555 1_555
Cu7_4 O10_3 1_555 1_555
O12_5 Cu1_2 1_555 1_555
C5_5 N1_5 1_555 1_555
O1_5 P1_5 1_555 1_555
C13_5 C16_5 1_555 1_555
C17_5 C18_5 1_555 1_555
Cu7_3 O12_5 1_555 1_555
C1_5 H1_5 1_555 1_555
C2_5 C1_5 1_555 1_555
H2_5 C2_5 1_555 1_555
C3_5 C2_5 1_555 1_555
C6_5 C3_5 1_555 1_555
H7_5 C6_5 1_555 1_555
H13_5 C14_5 1_555 1_555
C15_5 C14_5 1_555 1_555
H14_5 C15_5 1_555 1_555
C15_5 N3_3 1_555 1_555
Cu4_4 O4_6 1_555 1_555
Cu7 O4_6 1_555 1_555
C1_6 H1_6 1_555 1_555
C2_6 C1_6 1_555 1_555
H2_6 C2_6 1_555 1_555
C3_6 C2_6 1_555 1_555
C4_6 C3_6 1_555 1_555
H3_6 C4_6 1_555 1_555
C5_6 C4_6 1_555 1_555
H4_6 C5_6 1_555 1_555
C6_6 C3_6 1_555 1_555
C7_6 C8_10 1_555 1_555
C8_10 H5_10 1_555 1_555
C9_6 C7_6 1_555 1_555
H6_6 C9_6 1_555 1_555
C10_10 C9_6 1_555 1_555
Cu3_2 N1_6 1_555 1_555
N1_6 C1_6 1_555 1_555
O1_6 Cu3_2 1_555 1_555
O2_6 P1_6 1_555 1_555
O3_6 P1_6 1_555 1_555
O13_3 P2_10 1_555 1_555
O6_6 Cu3_2 1_555 1_555
P1_6 C7_6 1_555 1_555
P2_10 C10_10 1_555 1_555
H7_6 C6_6 1_555 1_555
H8_6 O2_6 1_555 1_555
H9_6 O6_6 1_555 1_555
H10_6 O6_6 1_555 1_555
C11_6 H11_6 1_555 1_555
C12_6 C11_6 1_555 1_555
H12_6 C12_6 1_555 1_555
C13_6 C12_6 1_555 1_555
C14_6 C13_6 1_555 1_555
H13_6 C14_6 1_555 1_555
C15_6 C14_6 1_555 1_555
H14_6 C15_6 1_555 1_555
C16_6 C6_6 1_555 1_555
N3_4 C11_6 1_555 1_555
H15_6 C16_6 1_555 1_555
C17_6 C8_10 1_555 1_555
O7_6 P3_6 1_555 1_555
O8_6 P3_6 1_555 1_555
O9_6 P3_6 1_555 1_555
P3_6 C17_6 1_555 1_555
H16_6 O8_6 1_555 1_555
C18_6 C10_10 1_555 1_555
H17_6 C18_6 1_555 1_555
O14_3 P2_10 1_555 1_555
Cu7_4 O7_6 1_555 1_555
O11_6 Cu7_4 1_555 1_555
H18_6 O11_6 1_555 1_555
H19_6 O11_6 1_555 1_555
O12_6 Cu3_2 1_555 1_555
C5_6 N1_6 1_555 1_555
O1_6 P1_6 1_555 1_555
C13_6 C16_6 1_555 1_555
C15_6 N3_4 1_555 1_555
C17_6 C18_6 1_555 1_555
Cu7_4 O12_6 1_555 1_555
C1_7 H1_7 1_555 1_555
C2_7 C1_7 1_555 1_555
H2_7 C2_7 1_555 1_555
C3_7 C2_7 1_555 1_555
C6_7 C3_7 1_555 1_555
H7_7 C6_7 1_555 1_555
H13_7 C14_7 1_555 1_555
C15_7 C14_7 1_555 1_555
H14_7 C15_7 1_555 1_555
C15_7 N3 1_555 1_555
H3_7 C4_7 1_555 1_555
C5_7 C4_7 1_555 1_555
H4_7 C5_7 1_555 1_555
C7_7 C8_11 1_555 1_555
C8_11 H5_11 1_555 1_555
C9_7 C7_7 1_555 1_555
H6_7 C9_7 1_555 1_555
C10_11 C9_7 1_555 1_555
Cu4_4 N1_7 1_555 1_555
O1_7 Cu4_4 1_555 1_555
O2_7 P1_7 1_555 1_555
O3_7 P1_7 1_555 1_555
O12_6 P2_11 1_555 1_555
O5_4 P2_11 1_555 1_555
O6_7 Cu4_4 1_555 1_555
P1_7 C7_7 1_555 1_555
P2_11 C10_11 1_555 1_555
H8_7 O2_7 1_555 1_555
H9_7 O6_7 1_555 1_555
H10_7 O6_7 1_555 1_555
C11_7 H11_7 1_555 1_555
C12_7 C11_7 1_555 1_555
H12_7 C12_7 1_555 1_555
C13_7 C12_7 1_555 1_555
H15_7 C16_7 1_555 1_555
C17_7 C8_11 1_555 1_555
O7_7 P3_7 1_555 1_555
O8_7 P3_7 1_555 1_555
O9_7 P3_7 1_555 1_555
P3_7 C17_7 1_555 1_555
H16_7 O8_7 1_555 1_555
C18_7 C10_11 1_555 1_555
H17_7 C18_7 1_555 1_555
O10_4 P2_11 1_555 1_555
Cu7 O7_7 1_555 1_555
O11_7 Cu7 1_555 1_555
H18_7 O11_7 1_555 1_555
H19_7 O11_7 1_555 1_555
Cu4_3 O5_4 1_555 1_555
Cu7_2 O10_4 1_555 1_555
C5_7 N1_7 1_555 1_555
O1_7 P1_7 1_555 1_555
C13_7 C16_7 1_555 1_555
C17_7 C18_7 1_555 1_555
C1_8 H1_8 1_555 1_555
C2_8 C1_8 1_555 1_555
H2_8 C2_8 1_555 1_555
C3_8 C2_8 1_555 1_555
C4_8 C3_8 1_555 1_555
H3_8 C4_8 1_555 1_555
C5_8 C4_8 1_555 1_555
H4_8 C5_8 1_555 1_555
C6_8 C3_8 1_555 1_555
C7_8 C8_12 1_555 1_555
C8_12 H5_12 1_555 1_555
C9_8 C7_8 1_555 1_555
H6_8 C9_8 1_555 1_555
C10_12 C9_8 1_555 1_555
Cu4_3 N1_8 1_555 1_555
N1_8 C1_8 1_555 1_555
O1_8 Cu4_3 1_555 1_555
O2_8 P1_8 1_555 1_555
O3_8 P1_8 1_555 1_555
O13_4 P2_12 1_555 1_555
O6_8 Cu4_3 1_555 1_555
P1_8 C7_8 1_555 1_555
P2_12 C10_12 1_555 1_555
H7_8 C6_8 1_555 1_555
H8_8 O2_8 1_555 1_555
H9_8 O6_8 1_555 1_555
H10_8 O6_8 1_555 1_555
C11_8 H11_8 1_555 1_555
C12_8 C11_8 1_555 1_555
H12_8 C12_8 1_555 1_555
C13_8 C12_8 1_555 1_555
C14_8 C13_8 1_555 1_555
H13_8 C14_8 1_555 1_555
C15_8 C14_8 1_555 1_555
H14_8 C15_8 1_555 1_555
C16_8 C6_8 1_555 1_555
N3_2 C11_8 1_555 1_555
H15_8 C16_8 1_555 1_555
C17_8 C8_12 1_555 1_555
O7_8 P3_8 1_555 1_555
O8_8 P3_8 1_555 1_555
O9_8 P3_8 1_555 1_555
P3_8 C17_8 1_555 1_555
H16_8 O8_8 1_555 1_555
C18_8 C10_12 1_555 1_555
H17_8 C18_8 1_555 1_555
O14_4 P2_12 1_555 1_555
Cu7_2 O7_8 1_555 1_555
O11_8 Cu7_2 1_555 1_555
H18_8 O11_8 1_555 1_555
H19_8 O11_8 1_555 1_555
C5_8 N1_8 1_555 1_555
O1_8 P1_8 1_555 1_555
C13_8 C16_8 1_555 1_555
C15_8 N3_2 1_555 1_555
C17_8 C18_8 1_555 1_555

#END
