
###############################################################################
#
# This file contains modified crystal structure data generated from the
# MOF subset of the Cambridge Structural Database (CSD) v543 
# hosted by the Cambridge Crystallographic Data Centre (CCDC).
#
# This work is licensed under the Creative Commons
# Attribution-NonCommercial-ShareAlike 4.0 International License.
# To view a copy of this license, visit
# http://creativecommons.org/licenses/by-nc-sa/4.0/
# or send a letter to
# Creative Commons, PO Box 1866, Mountain View, CA 94042, USA.
#
# CIF created using the CSD Python API on 29 September 2022
# The structure has been converted into the P1 space group
# The structure has a 3D framework
# The original CSD entry VUMBIQ is in the orthorhombic crystal system
# The framework has been calculated to contain at least 10.0% void space
# The void calculation uses a probe of radius 1.32A, grid spacing 0.4
# H atom positions have been added when not included in the experimental data
# Generated hydrogen atom positions removed from atoms on special positions
#
###############################################################################

data_VUMBIQ
_chemical_formula_moiety         '(C136 H172 Cu16 N16 O86 P28)n'
_symmetry_cell_setting           triclinic
_symmetry_space_group_name_H-M   'P 1'
_symmetry_Int_Tables_number      1
_space_group_name_Hall           'P 1'
loop_
_symmetry_equiv_pos_site_id
_symmetry_equiv_pos_as_xyz
1 x,y,z
_cell_length_a                   28.4774(5)
_cell_length_b                   9.4694(1)
_cell_length_c                   18.8921(3)
_cell_angle_alpha                90
_cell_angle_beta                 90
_cell_angle_gamma                90
_cell_volume                     5094.52
loop_
_atom_site_label
_atom_site_type_symbol
_atom_site_fract_x
_atom_site_fract_y
_atom_site_fract_z
_atom_site_U_iso_or_equiv
_atom_site_thermal_displace_type
C6 C 0.1865(3) 0.2915(7) 0.0228(4) 0.0230 Uiso
C7 C 0.1415(3) 0.2489(8) 0.0009(4) 0.0230 Uiso
H3 H 0.1899(5) 0.381(2) 0.045(1) 0.0230 Uiso
H4 H 0.1157(7) 0.305(4) 0.015(2) 0.0230 Uiso
N2 N 0.3656(3) 0.3473(7) 0.0486(4) 0.0230 Uiso
C12 C 0.2743(2) 0.2685(7) 0.0114(3) 0.0230 Uiso
C15 C 0.3297(4) 0.4080(9) 0.0805(5) 0.0230 Uiso
C16 C 0.2822(3) 0.3664(8) 0.0638(4) 0.0230 Uiso
H10 H 0.3343(5) 0.499(3) 0.099(2) 0.0230 Uiso
H11 H 0.258(2) 0.424(4) 0.078(2) 0.0230 Uiso
Cu7 Cu 0.43453(6) 0.3922(2) 0.07449(8) 0.0127 Uiso
O13 O 0.0445(2) 0.1724(5) 0.0207(3) 0.0040 Uiso
Cu1 Cu 0.06547(6) 0.1078(2) 0.92551(8) 0.0127 Uiso
P1 P 0.000 0.3615(4) 0.5591(2) 0.0100 Uiso
P2 P 0.0965(1) 0.0484(4) 0.7600(2) 0.0100 Uiso
O1 O -0.000 0.5188(9) 0.5829(5) 0.0040 Uiso
O3 O 0.0845(2) 0.0145(5) 0.8391(3) 0.0040 Uiso
O5 O 0.1350(2) 0.1656(7) 0.7496(3) 0.0040 Uiso
N1 N 0.1344(3) 0.1527(7) 0.9514(4) 0.0230 Uiso
C1 C -0.000 0.2441(8) 0.6341(4) 0.0230 Uiso
C2 C 0.0429(2) 0.1103(7) 0.7242(3) 0.0230 Uiso
C3 C 0.000 0.0644(9) 0.7524(4) 0.0230 Uiso
C4 C 0.0426(2) 0.2002(6) 0.6650(4) 0.0230 Uiso
C5 C 0.2257(2) 0.2315(7) 0.9886(3) 0.0230 Uiso
C8 C 0.1703(4) 0.0920(9) 0.9195(5) 0.0230 Uiso
C9 C 0.2178(3) 0.1336(8) 0.9362(4) 0.0230 Uiso
H1 H 0.000 0.019(4) 0.797(2) 0.0230 Uiso
H2 H 0.0711(5) 0.213(4) 0.639(2) 0.0230 Uiso
H5 H 0.1657(5) 0.001(3) 0.901(2) 0.0230 Uiso
H6 H 0.242(2) 0.076(4) 0.922(2) 0.0230 Uiso
O6 O 0.0492(2) 0.3257(6) 0.8820(3) 0.0870 Uiso
O10 O 0.0445(2) 0.3276(5) 0.5207(3) 0.0040 Uiso
C13 C 0.3135(3) 0.2085(7) 0.9772(4) 0.0230 Uiso
C14 C 0.3585(3) 0.2511(8) 0.9991(4) 0.0230 Uiso
H8 H 0.3101(5) 0.119(2) 0.955(1) 0.0230 Uiso
H9 H 0.3843(7) 0.195(4) 0.985(2) 0.0230 Uiso
Cu5 Cu 0.06547(6) 0.6078(2) 0.57449(8) 0.0127 Uiso
Cu6 Cu 0.06547(6) 0.3922(2) 0.42551(8) 0.0127 Uiso
O12 O -0.000 0.0188(9) 0.9171(5) 0.0040 Uiso
H12 H 0.164688 0.135017 0.772516 . .
O14 O 0.9555(2) 0.1724(5) 0.0207(3) 0.0040 Uiso
P1_2 P 1.000 0.3615(4) 0.5591(2) 0.0100 Uiso
O1_2 O 1.000 0.5188(9) 0.5829(5) 0.0040 Uiso
O2 O 0.9555(2) 0.3276(5) 0.5207(3) 0.0040 Uiso
C1_2 C 1.000 0.2441(8) 0.6341(4) 0.0230 Uiso
C3_2 C 1.000 0.0644(9) 0.7524(4) 0.0230 Uiso
H1_2 H 1.000 0.019(4) 0.797(2) 0.0230 Uiso
P3 P 0.9035(1) 0.0484(4) 0.7600(2) 0.0100 Uiso
O7 O 0.9155(2) 0.0145(5) 0.8391(3) 0.0040 Uiso
O9 O 0.8650(2) 0.1656(7) 0.7496(3) 0.0040 Uiso
C10 C 0.9571(2) 0.1103(7) 0.7242(3) 0.0230 Uiso
C11 C 0.9574(2) 0.2002(6) 0.6650(4) 0.0230 Uiso
H7 H 0.9289(5) 0.213(4) 0.639(2) 0.0230 Uiso
Cu2 Cu 0.93453(6) 0.1078(2) 0.92551(8) 0.0127 Uiso
O11 O 0.9508(2) 0.3257(6) 0.8820(3) 0.0870 Uiso
Cu3 Cu 0.93453(6) 0.3922(2) 0.42551(8) 0.0127 Uiso
Cu4 Cu 0.93453(6) 0.6078(2) 0.57449(8) 0.0127 Uiso
O12_2 O 1.000 0.0188(9) 0.9171(5) 0.0040 Uiso
N3 N 0.8656(3) 0.1527(7) 0.9514(4) 0.0230 Uiso
H13 H 0.875879 0.255168 0.771469 . .
P1_3 P 0.000 0.1385(4) 0.0591(2) 0.0100 Uiso
C1_3 C 0.000 0.2559(8) 0.1341(4) 0.0230 Uiso
C3_3 C 0.000 0.4356(9) 0.2524(4) 0.0230 Uiso
H1_3 H 0.000 0.481(4) 0.297(2) 0.0230 Uiso
P3_2 P 0.0965(1) 0.4516(4) 0.2600(2) 0.0100 Uiso
O7_2 O 0.0845(2) 0.4855(5) 0.3391(3) 0.0040 Uiso
O8 O 0.1134(2) 0.5903(7) 0.2207(3) 0.0040 Uiso
O9_2 O 0.1350(2) 0.3344(7) 0.2496(3) 0.0040 Uiso
C10_2 C 0.0429(2) 0.3897(7) 0.2242(3) 0.0230 Uiso
C11_2 C 0.0426(2) 0.2998(6) 0.1650(4) 0.0230 Uiso
H7_2 H 0.0711(5) 0.287(4) 0.139(2) 0.0230 Uiso
O11_2 O 0.0492(2) 0.1743(6) 0.3820(3) 0.0870 Uiso
O12_3 O -0.000 0.4812(9) 0.4171(5) 0.0040 Uiso
N3_2 N 0.1344(3) 0.3473(7) 0.4514(4) 0.0230 Uiso
H13_2 H 0.124121 0.244832 0.271469 . .
O1_3 O -0.000 0.9812(9) 0.0829(5) 0.0040 Uiso
Cu4_2 Cu 0.06547(6) 0.8922(2) 0.07449(8) 0.0127 Uiso
P1_4 P 1.000 0.1385(4) 0.0591(2) 0.0100 Uiso
P2_2 P 0.9035(1) 0.4516(4) 0.2600(2) 0.0100 Uiso
O3_2 O 0.9155(2) 0.4855(5) 0.3391(3) 0.0040 Uiso
O4 O 0.8866(2) 0.5903(7) 0.2207(3) 0.0040 Uiso
O5_2 O 0.8650(2) 0.3344(7) 0.2496(3) 0.0040 Uiso
N1_2 N 0.8656(3) 0.3473(7) 0.4514(4) 0.0230 Uiso
C1_4 C 1.000 0.2559(8) 0.1341(4) 0.0230 Uiso
C2_2 C 0.9571(2) 0.3897(7) 0.2242(3) 0.0230 Uiso
C3_4 C 1.000 0.4356(9) 0.2524(4) 0.0230 Uiso
C4_2 C 0.9574(2) 0.2998(6) 0.1650(4) 0.0230 Uiso
C5_2 C 0.7743(2) 0.2685(7) 0.4886(3) 0.0230 Uiso
C6_2 C 0.8135(3) 0.2085(7) 0.5228(4) 0.0230 Uiso
C7_2 C 0.8585(3) 0.2511(8) 0.5009(4) 0.0230 Uiso
C8_2 C 0.8297(4) 0.4080(9) 0.4195(5) 0.0230 Uiso
C9_2 C 0.7822(3) 0.3664(8) 0.4362(4) 0.0230 Uiso
H1_4 H 1.000 0.481(4) 0.297(2) 0.0230 Uiso
H2_2 H 0.9289(5) 0.287(4) 0.139(2) 0.0230 Uiso
H3_2 H 0.8101(5) 0.119(2) 0.545(1) 0.0230 Uiso
H4_2 H 0.8843(7) 0.195(4) 0.515(2) 0.0230 Uiso
H5_2 H 0.8343(5) 0.499(3) 0.401(2) 0.0230 Uiso
H6_2 H 0.758(2) 0.424(4) 0.422(2) 0.0230 Uiso
O6_2 O 0.9508(2) 0.1743(6) 0.3820(3) 0.0870 Uiso
N2_2 N 0.6344(3) 0.1527(7) 0.5486(4) 0.0230 Uiso
C12_2 C 0.7257(2) 0.2315(7) 0.5114(3) 0.0230 Uiso
C13_2 C 0.6865(3) 0.2915(7) 0.4772(4) 0.0230 Uiso
C14_2 C 0.6415(3) 0.2489(8) 0.4991(4) 0.0230 Uiso
C15_2 C 0.6703(4) 0.0920(9) 0.5805(5) 0.0230 Uiso
C16_2 C 0.7178(3) 0.1336(8) 0.5638(4) 0.0230 Uiso
H8_2 H 0.6899(5) 0.381(2) 0.455(1) 0.0230 Uiso
H9_2 H 0.6157(7) 0.305(4) 0.485(2) 0.0230 Uiso
H10_2 H 0.6657(5) 0.001(3) 0.599(2) 0.0230 Uiso
H11_2 H 0.742(2) 0.076(4) 0.578(2) 0.0230 Uiso
Cu7_2 Cu 0.56547(6) 0.1078(2) 0.57449(8) 0.0127 Uiso
O12_4 O 1.000 0.4812(9) 0.4171(5) 0.0040 Uiso
H12_2 H 0.835312 0.364983 0.272516 . .
O1_4 O 1.000 0.9812(9) 0.0829(5) 0.0040 Uiso
Cu5_2 Cu 0.93453(6) 0.8922(2) 0.07449(8) 0.0127 Uiso
P1_5 P -0.000 0.8615(4) 0.9409(2) 0.0100 Uiso
O2_2 O 0.0445(2) 0.8276(5) 0.9793(3) 0.0040 Uiso
C1_5 C 0.000 0.7441(8) 0.8659(4) 0.0230 Uiso
C3_5 C 0.000 0.5644(9) 0.7476(4) 0.0230 Uiso
H1_5 H 0.000 0.519(4) 0.703(2) 0.0230 Uiso
P3_3 P 0.0965(1) 0.5484(4) 0.7400(2) 0.0100 Uiso
O7_3 O 0.0845(2) 0.5145(5) 0.6609(3) 0.0040 Uiso
O8_2 O 0.1134(2) 0.4097(7) 0.7793(3) 0.0040 Uiso
O9_3 O 0.1350(2) 0.6656(7) 0.7504(3) 0.0040 Uiso
C10_3 C 0.0429(2) 0.6103(7) 0.7758(3) 0.0230 Uiso
C11_3 C 0.0426(2) 0.7002(6) 0.8350(4) 0.0230 Uiso
H7_3 H 0.0711(5) 0.713(4) 0.861(2) 0.0230 Uiso
O11_3 O 0.0492(2) 0.8257(6) 0.6180(3) 0.0870 Uiso
O14_2 O 0.0445(2) 0.6724(5) 0.4793(3) 0.0040 Uiso
N3_3 N 0.1344(3) 0.6527(7) 0.5486(4) 0.0230 Uiso
H13_3 H 0.124121 0.755168 0.728531 . .
P1_6 P 1.000 0.8615(4) 0.9409(2) 0.0100 Uiso
P2_3 P 0.9035(1) 0.5484(4) 0.7400(2) 0.0100 Uiso
O3_3 O 0.9155(2) 0.5145(5) 0.6609(3) 0.0040 Uiso
O4_2 O 0.8866(2) 0.4097(7) 0.7793(3) 0.0040 Uiso
O5_3 O 0.8650(2) 0.6656(7) 0.7504(3) 0.0040 Uiso
N1_3 N 0.8656(3) 0.6527(7) 0.5486(4) 0.0230 Uiso
C1_6 C 1.000 0.7441(8) 0.8659(4) 0.0230 Uiso
C2_3 C 0.9571(2) 0.6103(7) 0.7758(3) 0.0230 Uiso
C3_6 C 1.000 0.5644(9) 0.7476(4) 0.0230 Uiso
C4_3 C 0.9574(2) 0.7002(6) 0.8350(4) 0.0230 Uiso
C5_3 C 0.7743(2) 0.7315(7) 0.5114(3) 0.0230 Uiso
C6_3 C 0.8135(3) 0.7915(7) 0.4772(4) 0.0230 Uiso
C7_3 C 0.8585(3) 0.7489(8) 0.4991(4) 0.0230 Uiso
C8_3 C 0.8297(4) 0.5920(9) 0.5805(5) 0.0230 Uiso
C9_3 C 0.7822(3) 0.6336(8) 0.5638(4) 0.0230 Uiso
H1_6 H 1.000 0.519(4) 0.703(2) 0.0230 Uiso
H2_3 H 0.9289(5) 0.713(4) 0.861(2) 0.0230 Uiso
H3_3 H 0.8101(5) 0.881(2) 0.455(1) 0.0230 Uiso
H4_3 H 0.8843(7) 0.805(4) 0.485(2) 0.0230 Uiso
H5_3 H 0.8343(5) 0.501(3) 0.599(2) 0.0230 Uiso
H6_3 H 0.758(2) 0.576(4) 0.578(2) 0.0230 Uiso
O6_3 O 0.9508(2) 0.8257(6) 0.6180(3) 0.0870 Uiso
O10_2 O 0.9555(2) 0.8276(5) 0.9793(3) 0.0040 Uiso
N2_3 N 0.6344(3) 0.8473(7) 0.4514(4) 0.0230 Uiso
C12_3 C 0.7257(2) 0.7685(7) 0.4886(3) 0.0230 Uiso
C13_3 C 0.6865(3) 0.7085(7) 0.5228(4) 0.0230 Uiso
C14_3 C 0.6415(3) 0.7511(8) 0.5009(4) 0.0230 Uiso
C15_3 C 0.6703(4) 0.9080(9) 0.4195(5) 0.0230 Uiso
C16_3 C 0.7178(3) 0.8664(8) 0.4362(4) 0.0230 Uiso
H8_3 H 0.6899(5) 0.619(2) 0.545(1) 0.0230 Uiso
H9_3 H 0.6157(7) 0.695(4) 0.515(2) 0.0230 Uiso
H10_3 H 0.6657(5) 0.999(3) 0.401(2) 0.0230 Uiso
H11_3 H 0.742(2) 0.924(4) 0.422(2) 0.0230 Uiso
Cu7_3 Cu 0.56547(6) 0.8922(2) 0.42551(8) 0.0127 Uiso
O13_2 O 0.9555(2) 0.6724(5) 0.4793(3) 0.0040 Uiso
H12_3 H 0.835312 0.635017 0.727484 . .
P1_7 P 0.000 0.6385(4) 0.4409(2) 0.0100 Uiso
P2_4 P 0.0965(1) 0.9516(4) 0.2400(2) 0.0100 Uiso
O3_4 O 0.0845(2) 0.9855(5) 0.1609(3) 0.0040 Uiso
O5_4 O 0.1350(2) 0.8344(7) 0.2504(3) 0.0040 Uiso
N1_4 N 0.1344(3) 0.8473(7) 0.0486(4) 0.0230 Uiso
C1_7 C 0.000 0.7559(8) 0.3659(4) 0.0230 Uiso
C2_4 C 0.0429(2) 0.8897(7) 0.2758(3) 0.0230 Uiso
C3_7 C 0.000 0.9356(9) 0.2476(4) 0.0230 Uiso
C4_4 C 0.0426(2) 0.7998(6) 0.3350(4) 0.0230 Uiso
C5_4 C 0.2257(2) 0.7685(7) 0.0114(3) 0.0230 Uiso
C8_4 C 0.1703(4) 0.9080(9) 0.0805(5) 0.0230 Uiso
C9_4 C 0.2178(3) 0.8664(8) 0.0638(4) 0.0230 Uiso
H1_7 H 0.000 0.981(4) 0.203(2) 0.0230 Uiso
H2_4 H 0.0711(5) 0.787(4) 0.361(2) 0.0230 Uiso
H5_4 H 0.1657(5) 0.999(3) 0.099(2) 0.0230 Uiso
H6_4 H 0.242(2) 0.924(4) 0.078(2) 0.0230 Uiso
O6_4 O 0.0492(2) 0.6743(6) 0.1180(3) 0.0870 Uiso
C13_4 C 0.3135(3) 0.7915(7) 0.0228(4) 0.0230 Uiso
C14_4 C 0.3585(3) 0.7489(8) 0.0009(4) 0.0230 Uiso
H8_4 H 0.3101(5) 0.881(2) 0.045(1) 0.0230 Uiso
H9_4 H 0.3843(7) 0.805(4) 0.015(2) 0.0230 Uiso
H12_4 H 0.164688 0.864983 0.227484 . .
C6_4 C 0.1865(3) 0.7085(7) 0.9772(4) 0.0230 Uiso
C7_4 C 0.1415(3) 0.7511(8) 0.9991(4) 0.0230 Uiso
H3_4 H 0.1899(5) 0.619(2) 0.955(1) 0.0230 Uiso
H4_4 H 0.1157(7) 0.695(4) 0.985(2) 0.0230 Uiso
N2_4 N 0.3656(3) 0.6527(7) 0.9514(4) 0.0230 Uiso
C12_4 C 0.2743(2) 0.7315(7) 0.9886(3) 0.0230 Uiso
C15_4 C 0.3297(4) 0.5920(9) 0.9195(5) 0.0230 Uiso
C16_4 C 0.2822(3) 0.6336(8) 0.9362(4) 0.0230 Uiso
H10_4 H 0.3343(5) 0.501(3) 0.901(2) 0.0230 Uiso
H11_4 H 0.258(2) 0.576(4) 0.922(2) 0.0230 Uiso
Cu7_4 Cu 0.43453(6) 0.6078(2) 0.92551(8) 0.0127 Uiso
P1_8 P 1.000 0.6385(4) 0.4409(2) 0.0100 Uiso
C1_8 C 1.000 0.7559(8) 0.3659(4) 0.0230 Uiso
C3_8 C 1.000 0.9356(9) 0.2476(4) 0.0230 Uiso
H1_8 H 1.000 0.981(4) 0.203(2) 0.0230 Uiso
P3_4 P 0.9035(1) 0.9516(4) 0.2400(2) 0.0100 Uiso
O7_4 O 0.9155(2) 0.9855(5) 0.1609(3) 0.0040 Uiso
O9_4 O 0.8650(2) 0.8344(7) 0.2504(3) 0.0040 Uiso
C10_4 C 0.9571(2) 0.8897(7) 0.2758(3) 0.0230 Uiso
C11_4 C 0.9574(2) 0.7998(6) 0.3350(4) 0.0230 Uiso
H7_4 H 0.9289(5) 0.787(4) 0.361(2) 0.0230 Uiso
O11_4 O 0.9508(2) 0.6743(6) 0.1180(3) 0.0870 Uiso
N3_4 N 0.8656(3) 0.8473(7) 0.0486(4) 0.0230 Uiso
H13_4 H 0.875879 0.744832 0.228531 . .
O1_5 O 0.500 0.0188(9) 0.5829(5) 0.0040 Uiso
Cu4_3 Cu 0.43453(6) 0.1078(2) 0.57449(8) 0.0127 Uiso
C6_5 C 0.6865(3) 0.7915(7) 0.0228(4) 0.0230 Uiso
C7_5 C 0.6415(3) 0.7489(8) 0.0009(4) 0.0230 Uiso
H3_5 H 0.6899(5) 0.881(2) 0.045(1) 0.0230 Uiso
H4_5 H 0.6157(7) 0.805(4) 0.015(2) 0.0230 Uiso
C12_5 C 0.7743(2) 0.7685(7) 0.0114(3) 0.0230 Uiso
C15_5 C 0.8297(4) 0.9080(9) 0.0805(5) 0.0230 Uiso
C16_5 C 0.7822(3) 0.8664(8) 0.0638(4) 0.0230 Uiso
H10_5 H 0.8343(5) 0.999(3) 0.099(2) 0.0230 Uiso
H11_5 H 0.758(2) 0.924(4) 0.078(2) 0.0230 Uiso
O13_3 O 0.5445(2) 0.6724(5) 0.0207(3) 0.0040 Uiso
O14_3 O 0.4555(2) 0.6724(5) 0.0207(3) 0.0040 Uiso
Cu1_2 Cu 0.56547(6) 0.6078(2) 0.92551(8) 0.0127 Uiso
P1_9 P 0.500 0.8615(4) 0.5591(2) 0.0100 Uiso
P2_5 P 0.5965(1) 0.5484(4) 0.7600(2) 0.0100 Uiso
O2_3 O 0.4555(2) 0.8276(5) 0.5207(3) 0.0040 Uiso
O3_5 O 0.5845(2) 0.5145(5) 0.8391(3) 0.0040 Uiso
O4_3 O 0.6134(2) 0.4097(7) 0.7207(3) 0.0040 Uiso
O5_5 O 0.6350(2) 0.6656(7) 0.7496(3) 0.0040 Uiso
N1_5 N 0.6344(3) 0.6527(7) 0.9514(4) 0.0230 Uiso
C1_9 C 0.500 0.7441(8) 0.6341(4) 0.0230 Uiso
C2_5 C 0.5429(2) 0.6103(7) 0.7242(3) 0.0230 Uiso
C3_9 C 0.500 0.5644(9) 0.7524(4) 0.0230 Uiso
C4_5 C 0.5426(2) 0.7002(6) 0.6650(4) 0.0230 Uiso
C5_5 C 0.7257(2) 0.7315(7) 0.9886(3) 0.0230 Uiso
C8_5 C 0.6703(4) 0.5920(9) 0.9195(5) 0.0230 Uiso
C9_5 C 0.7178(3) 0.6336(8) 0.9362(4) 0.0230 Uiso
H1_9 H 0.500 0.519(4) 0.797(2) 0.0230 Uiso
H2_5 H 0.5711(5) 0.713(4) 0.639(2) 0.0230 Uiso
H5_5 H 0.6657(5) 0.501(3) 0.901(2) 0.0230 Uiso
H6_5 H 0.742(2) 0.576(4) 0.922(2) 0.0230 Uiso
O6_5 O 0.5492(2) 0.8257(6) 0.8820(3) 0.0870 Uiso
P3_5 P 0.4035(1) 0.5484(4) 0.7600(2) 0.0100 Uiso
O7_5 O 0.4155(2) 0.5145(5) 0.8391(3) 0.0040 Uiso
O8_3 O 0.3866(2) 0.4097(7) 0.7207(3) 0.0040 Uiso
O9_5 O 0.3650(2) 0.6656(7) 0.7496(3) 0.0040 Uiso
C10_5 C 0.4571(2) 0.6103(7) 0.7242(3) 0.0230 Uiso
C11_5 C 0.4574(2) 0.7002(6) 0.6650(4) 0.0230 Uiso
H7_5 H 0.4289(5) 0.713(4) 0.639(2) 0.0230 Uiso
O10_3 O 0.5445(2) 0.8276(5) 0.5207(3) 0.0040 Uiso
C13_5 C 0.8135(3) 0.7085(7) 0.9772(4) 0.0230 Uiso
C14_5 C 0.8585(3) 0.7511(8) 0.9991(4) 0.0230 Uiso
H8_5 H 0.8101(5) 0.619(2) 0.955(1) 0.0230 Uiso
H9_5 H 0.8843(7) 0.695(4) 0.985(2) 0.0230 Uiso
O11_5 O 0.4508(2) 0.8257(6) 0.8820(3) 0.0870 Uiso
Cu3_2 Cu 0.43453(6) 0.8922(2) 0.42551(8) 0.0127 Uiso
O12_5 O 0.500 0.5188(9) 0.9171(5) 0.0040 Uiso
H12_5 H 0.664688 0.635017 0.772516 . .
H13_5 H 0.375879 0.755168 0.771469 . .
P1_10 P 0.500 0.6385(4) 0.0591(2) 0.0100 Uiso
P2_6 P 0.4035(1) 0.9516(4) 0.2600(2) 0.0100 Uiso
O1_6 O 0.500 0.4812(9) 0.0829(5) 0.0040 Uiso
O3_6 O 0.4155(2) 0.9855(5) 0.3391(3) 0.0040 Uiso
O5_6 O 0.3650(2) 0.8344(7) 0.2496(3) 0.0040 Uiso
N1_6 N 0.3656(3) 0.8473(7) 0.4514(4) 0.0230 Uiso
C1_10 C 0.500 0.7559(8) 0.1341(4) 0.0230 Uiso
C2_6 C 0.4571(2) 0.8897(7) 0.2242(3) 0.0230 Uiso
C3_10 C 0.500 0.9356(9) 0.2524(4) 0.0230 Uiso
C4_6 C 0.4574(2) 0.7998(6) 0.1650(4) 0.0230 Uiso
C5_6 C 0.2743(2) 0.7685(7) 0.4886(3) 0.0230 Uiso
C6_6 C 0.3135(3) 0.7085(7) 0.5228(4) 0.0230 Uiso
C7_6 C 0.3585(3) 0.7511(8) 0.5009(4) 0.0230 Uiso
C8_6 C 0.3297(4) 0.9080(9) 0.4195(5) 0.0230 Uiso
C9_6 C 0.2822(3) 0.8664(8) 0.4362(4) 0.0230 Uiso
H1_10 H 0.500 0.981(4) 0.297(2) 0.0230 Uiso
H2_6 H 0.4289(5) 0.787(4) 0.139(2) 0.0230 Uiso
H3_6 H 0.3101(5) 0.619(2) 0.545(1) 0.0230 Uiso
H4_6 H 0.3843(7) 0.695(4) 0.515(2) 0.0230 Uiso
H5_6 H 0.3343(5) 0.999(3) 0.401(2) 0.0230 Uiso
H6_6 H 0.258(2) 0.924(4) 0.422(2) 0.0230 Uiso
O6_6 O 0.4508(2) 0.6743(6) 0.3820(3) 0.0870 Uiso
P3_6 P 0.5965(1) 0.9516(4) 0.2600(2) 0.0100 Uiso
O7_6 O 0.5845(2) 0.9855(5) 0.3391(3) 0.0040 Uiso
O9_6 O 0.6350(2) 0.8344(7) 0.2496(3) 0.0040 Uiso
C10_6 C 0.5429(2) 0.8897(7) 0.2242(3) 0.0230 Uiso
C11_6 C 0.5426(2) 0.7998(6) 0.1650(4) 0.0230 Uiso
H7_6 H 0.5711(5) 0.787(4) 0.139(2) 0.0230 Uiso
C12_6 C 0.2257(2) 0.7315(7) 0.5114(3) 0.0230 Uiso
C13_6 C 0.1865(3) 0.7915(7) 0.4772(4) 0.0230 Uiso
C14_6 C 0.1415(3) 0.7489(8) 0.4991(4) 0.0230 Uiso
C15_6 C 0.1703(4) 0.5920(9) 0.5805(5) 0.0230 Uiso
C16_6 C 0.2178(3) 0.6336(8) 0.5638(4) 0.0230 Uiso
H8_6 H 0.1899(5) 0.881(2) 0.455(1) 0.0230 Uiso
H9_6 H 0.1157(7) 0.805(4) 0.485(2) 0.0230 Uiso
H10_6 H 0.1657(5) 0.501(3) 0.599(2) 0.0230 Uiso
H11_6 H 0.242(2) 0.576(4) 0.578(2) 0.0230 Uiso
O11_6 O 0.5492(2) 0.6743(6) 0.3820(3) 0.0870 Uiso
Cu4_4 Cu 0.56547(6) 0.3922(2) 0.07449(8) 0.0127 Uiso
O12_6 O 0.500 0.9812(9) 0.4171(5) 0.0040 Uiso
H12_6 H 0.335312 0.864983 0.272516 . .
H13_6 H 0.624121 0.744832 0.271469 . .
P1_11 P 0.500 0.3615(4) 0.9409(2) 0.0100 Uiso
P2_7 P 0.4035(1) 0.0484(4) 0.7400(2) 0.0100 Uiso
O2_4 O 0.5445(2) 0.3276(5) 0.9793(3) 0.0040 Uiso
O3_7 O 0.4155(2) 0.0145(5) 0.6609(3) 0.0040 Uiso
O5_7 O 0.3650(2) 0.1656(7) 0.7504(3) 0.0040 Uiso
N1_7 N 0.3656(3) 0.1527(7) 0.5486(4) 0.0230 Uiso
C1_11 C 0.500 0.2441(8) 0.8659(4) 0.0230 Uiso
C2_7 C 0.4571(2) 0.1103(7) 0.7758(3) 0.0230 Uiso
C3_11 C 0.500 0.0644(9) 0.7476(4) 0.0230 Uiso
C4_7 C 0.4574(2) 0.2002(6) 0.8350(4) 0.0230 Uiso
C5_7 C 0.2743(2) 0.2315(7) 0.5114(3) 0.0230 Uiso
C6_7 C 0.3135(3) 0.2915(7) 0.4772(4) 0.0230 Uiso
C7_7 C 0.3585(3) 0.2489(8) 0.4991(4) 0.0230 Uiso
C8_7 C 0.3297(4) 0.0920(9) 0.5805(5) 0.0230 Uiso
C9_7 C 0.2822(3) 0.1336(8) 0.5638(4) 0.0230 Uiso
H1_11 H 0.500 0.019(4) 0.703(2) 0.0230 Uiso
H2_7 H 0.4289(5) 0.213(4) 0.861(2) 0.0230 Uiso
H3_7 H 0.3101(5) 0.381(2) 0.455(1) 0.0230 Uiso
H4_7 H 0.3843(7) 0.305(4) 0.485(2) 0.0230 Uiso
H5_7 H 0.3343(5) 0.001(3) 0.599(2) 0.0230 Uiso
H6_7 H 0.258(2) 0.076(4) 0.578(2) 0.0230 Uiso
O6_7 O 0.4508(2) 0.3257(6) 0.6180(3) 0.0870 Uiso
P3_7 P 0.5965(1) 0.0484(4) 0.7400(2) 0.0100 Uiso
O7_7 O 0.5845(2) 0.0145(5) 0.6609(3) 0.0040 Uiso
O9_7 O 0.6350(2) 0.1656(7) 0.7504(3) 0.0040 Uiso
C10_7 C 0.5429(2) 0.1103(7) 0.7758(3) 0.0230 Uiso
C11_7 C 0.5426(2) 0.2002(6) 0.8350(4) 0.0230 Uiso
H7_7 H 0.5711(5) 0.213(4) 0.861(2) 0.0230 Uiso
O10_4 O 0.4555(2) 0.3276(5) 0.9793(3) 0.0040 Uiso
C12_7 C 0.2257(2) 0.2685(7) 0.4886(3) 0.0230 Uiso
C13_7 C 0.1865(3) 0.2085(7) 0.5228(4) 0.0230 Uiso
C14_7 C 0.1415(3) 0.2511(8) 0.5009(4) 0.0230 Uiso
C15_7 C 0.1703(4) 0.4080(9) 0.4195(5) 0.0230 Uiso
C16_7 C 0.2178(3) 0.3664(8) 0.4362(4) 0.0230 Uiso
H8_7 H 0.1899(5) 0.119(2) 0.545(1) 0.0230 Uiso
H9_7 H 0.1157(7) 0.195(4) 0.515(2) 0.0230 Uiso
H10_7 H 0.1657(5) 0.499(3) 0.401(2) 0.0230 Uiso
H11_7 H 0.242(2) 0.424(4) 0.422(2) 0.0230 Uiso
O11_7 O 0.5492(2) 0.3257(6) 0.6180(3) 0.0870 Uiso
O13_4 O 0.4555(2) 0.1724(5) 0.4793(3) 0.0040 Uiso
O14_4 O 0.5445(2) 0.1724(5) 0.4793(3) 0.0040 Uiso
H12_7 H 0.335312 0.135017 0.727484 . .
H13_7 H 0.624121 0.255168 0.728531 . .
P1_12 P 0.500 0.1385(4) 0.4409(2) 0.0100 Uiso
P2_8 P 0.5965(1) 0.4516(4) 0.2400(2) 0.0100 Uiso
O3_8 O 0.5845(2) 0.4855(5) 0.1609(3) 0.0040 Uiso
O4_4 O 0.6134(2) 0.5903(7) 0.2793(3) 0.0040 Uiso
O5_8 O 0.6350(2) 0.3344(7) 0.2504(3) 0.0040 Uiso
N1_8 N 0.6344(3) 0.3473(7) 0.0486(4) 0.0230 Uiso
C1_12 C 0.500 0.2559(8) 0.3659(4) 0.0230 Uiso
C2_8 C 0.5429(2) 0.3897(7) 0.2758(3) 0.0230 Uiso
C3_12 C 0.500 0.4356(9) 0.2476(4) 0.0230 Uiso
C4_8 C 0.5426(2) 0.2998(6) 0.3350(4) 0.0230 Uiso
C5_8 C 0.7257(2) 0.2685(7) 0.0114(3) 0.0230 Uiso
C8_8 C 0.6703(4) 0.4080(9) 0.0805(5) 0.0230 Uiso
C9_8 C 0.7178(3) 0.3664(8) 0.0638(4) 0.0230 Uiso
H1_12 H 0.500 0.481(4) 0.203(2) 0.0230 Uiso
H2_8 H 0.5711(5) 0.287(4) 0.361(2) 0.0230 Uiso
H5_8 H 0.6657(5) 0.499(3) 0.099(2) 0.0230 Uiso
H6_8 H 0.742(2) 0.424(4) 0.078(2) 0.0230 Uiso
O6_8 O 0.5492(2) 0.1743(6) 0.1180(3) 0.0870 Uiso
P3_8 P 0.4035(1) 0.4516(4) 0.2400(2) 0.0100 Uiso
O7_8 O 0.4155(2) 0.4855(5) 0.1609(3) 0.0040 Uiso
O8_4 O 0.3866(2) 0.5903(7) 0.2793(3) 0.0040 Uiso
O9_8 O 0.3650(2) 0.3344(7) 0.2504(3) 0.0040 Uiso
C10_8 C 0.4571(2) 0.3897(7) 0.2758(3) 0.0230 Uiso
C11_8 C 0.4574(2) 0.2998(6) 0.3350(4) 0.0230 Uiso
H7_8 H 0.4289(5) 0.287(4) 0.361(2) 0.0230 Uiso
C13_8 C 0.8135(3) 0.2915(7) 0.0228(4) 0.0230 Uiso
C14_8 C 0.8585(3) 0.2489(8) 0.0009(4) 0.0230 Uiso
H8_8 H 0.8101(5) 0.381(2) 0.045(1) 0.0230 Uiso
H9_8 H 0.8843(7) 0.305(4) 0.015(2) 0.0230 Uiso
O11_8 O 0.4508(2) 0.1743(6) 0.1180(3) 0.0870 Uiso
H12_8 H 0.664688 0.364983 0.227484 . .
H13_8 H 0.375879 0.244832 0.228531 . .
C6_8 C 0.6865(3) 0.2085(7) 0.9772(4) 0.0230 Uiso
C7_8 C 0.6415(3) 0.2511(8) 0.9991(4) 0.0230 Uiso
H3_8 H 0.6899(5) 0.119(2) 0.955(1) 0.0230 Uiso
H4_8 H 0.6157(7) 0.195(4) 0.985(2) 0.0230 Uiso
C12_8 C 0.7743(2) 0.2315(7) 0.9886(3) 0.0230 Uiso
C15_8 C 0.8297(4) 0.0920(9) 0.9195(5) 0.0230 Uiso
C16_8 C 0.7822(3) 0.1336(8) 0.9362(4) 0.0230 Uiso
H10_8 H 0.8343(5) 0.001(3) 0.901(2) 0.0230 Uiso
H11_8 H 0.758(2) 0.076(4) 0.922(2) 0.0230 Uiso
H13_9 H 0.124121 0.744832 0.228531 . .
H12_9 H 0.835312 0.864983 0.227484 . .
H12_10 H 0.164688 0.635017 0.727484 . .
H13_10 H 0.875879 0.755168 0.728531 . .
H12_11 H 0.164688 0.364983 0.272516 . .
H13_11 H 0.875879 0.244832 0.271469 . .
H13_12 H 0.124121 0.255168 0.771469 . .
H12_12 H 0.835312 0.135017 0.772516 . .
H12_13 H 0.335312 0.364983 0.227484 . .
H13_13 H 0.624121 0.244832 0.228531 . .
H12_14 H 0.664688 0.135017 0.727484 . .
H13_14 H 0.375879 0.255168 0.728531 . .
H12_15 H 0.664688 0.864983 0.272516 . .
H13_15 H 0.375879 0.744832 0.271469 . .
H12_16 H 0.335312 0.635017 0.772516 . .
H13_16 H 0.624121 0.755168 0.771469 . .
O4_5 O 0.1134(2) 0.9097(7) 0.7207(3) 0.0040 Uiso
O8_5 O 0.8866(2) 0.9097(7) 0.7207(3) 0.0040 Uiso
O4_6 O 0.1134(2) 0.0903(7) 0.2793(3) 0.0040 Uiso
O8_6 O 0.8866(2) 0.0903(7) 0.2793(3) 0.0040 Uiso
O4_7 O 0.3866(2) 0.0903(7) 0.2207(3) 0.0040 Uiso
O8_7 O 0.6134(2) 0.0903(7) 0.2207(3) 0.0040 Uiso
O4_8 O 0.3866(2) 0.9097(7) 0.7793(3) 0.0040 Uiso
O8_8 O 0.6134(2) 0.9097(7) 0.7793(3) 0.0040 Uiso
loop_
_geom_bond_atom_site_label_1
_geom_bond_atom_site_label_2
_geom_bond_site_symmetry_1
_geom_bond_site_symmetry_2
C6 C7 1_555 1_555
H3 C6 1_555 1_555
H4 C7 1_555 1_555
C15 N2 1_555 1_555
C16 C12 1_555 1_555
H10 C15 1_555 1_555
H11 C16 1_555 1_555
Cu7 N2 1_555 1_555
C15 C16 1_555 1_555
Cu1 O3 1_555 1_555
P1 O1 1_555 1_555
P2 O3 1_555 1_555
O5 P2 1_555 1_555
N1 Cu1 1_555 1_555
C1 P1 1_555 1_555
C2 P2 1_555 1_555
C3 C2 1_555 1_555
C4 C1 1_555 1_555
C8 N1 1_555 1_555
C9 C5 1_555 1_555
H1 C3 1_555 1_555
H2 C4 1_555 1_555
H5 C8 1_555 1_555
H6 C9 1_555 1_555
O6 Cu1 1_555 1_555
O10 P1 1_555 1_555
C14 C13 1_555 1_555
H8 C13 1_555 1_555
H9 C14 1_555 1_555
Cu5 O1 1_555 1_555
Cu6 O10 1_555 1_555
O12 Cu1 1_555 1_555
C2 C4 1_555 1_555
C8 C9 1_555 1_555
O5 H12 1_555 1_555
P1_2 O1_2 1_555 1_555
O1_2 Cu4 1_555 1_555
O2 P1_2 1_555 1_555
C1_2 P1_2 1_555 1_555
H1_2 C3_2 1_555 1_555
P3 O7 1_555 1_555
O7 Cu2 1_555 1_555
O9 P3 1_555 1_555
C10 C3_2 1_555 1_555
C11 C1_2 1_555 1_555
H7 C11 1_555 1_555
Cu2 O11 1_555 1_555
Cu3 O2 1_555 1_555
N3 Cu2 1_555 1_555
P3 C10 1_555 1_555
C10 C11 1_555 1_555
Cu2 O12_2 1_555 1_555
O9 H13 1_555 1_555
O13 P1_3 1_555 1_555
C1_3 P1_3 1_555 1_555
H1_3 C3_3 1_555 1_555
P3_2 O7_2 1_555 1_555
O7_2 Cu6 1_555 1_555
O8 P3_2 1_555 1_555
O9_2 P3_2 1_555 1_555
C10_2 C3_3 1_555 1_555
C11_2 C1_3 1_555 1_555
H7_2 C11_2 1_555 1_555
Cu6 O11_2 1_555 1_555
N3_2 Cu6 1_555 1_555
P3_2 C10_2 1_555 1_555
C10_2 C11_2 1_555 1_555
Cu6 O12_3 1_555 1_555
O9_2 H13_2 1_555 1_555
O1_3 Cu4_2 1_555 1_555
Cu3 O3_2 1_555 1_555
P2_2 O3_2 1_555 1_555
O4 P2_2 1_555 1_555
O5_2 P2_2 1_555 1_555
N1_2 Cu3 1_555 1_555
C1_4 P1_4 1_555 1_555
C2_2 P2_2 1_555 1_555
C3_4 C2_2 1_555 1_555
C4_2 C1_4 1_555 1_555
C5_2 C6_2 1_555 1_555
C6_2 C7_2 1_555 1_555
C7_2 N1_2 1_555 1_555
C8_2 N1_2 1_555 1_555
C9_2 C5_2 1_555 1_555
H1_4 C3_4 1_555 1_555
H2_2 C4_2 1_555 1_555
H3_2 C6_2 1_555 1_555
H4_2 C7_2 1_555 1_555
H5_2 C8_2 1_555 1_555
H6_2 C9_2 1_555 1_555
O6_2 Cu3 1_555 1_555
O14 P1_4 1_555 1_555
N2_2 C14_2 1_555 1_555
C12_2 C5_2 1_555 1_555
C13_2 C12_2 1_555 1_555
C14_2 C13_2 1_555 1_555
C15_2 N2_2 1_555 1_555
C16_2 C12_2 1_555 1_555
H8_2 C13_2 1_555 1_555
H9_2 C14_2 1_555 1_555
H10_2 C15_2 1_555 1_555
H11_2 C16_2 1_555 1_555
Cu7_2 N2_2 1_555 1_555
O12_4 Cu3 1_555 1_555
C2_2 C4_2 1_555 1_555
C8_2 C9_2 1_555 1_555
C15_2 C16_2 1_555 1_555
O5_2 H12_2 1_555 1_555
Cu5_2 O1_4 1_555 1_555
O2_2 P1_5 1_555 1_555
C1_5 P1_5 1_555 1_555
H1_5 C3_5 1_555 1_555
P3_3 O7_3 1_555 1_555
O7_3 Cu5 1_555 1_555
O8_2 P3_3 1_555 1_555
O9_3 P3_3 1_555 1_555
C10_3 C3_5 1_555 1_555
C11_3 C1_5 1_555 1_555
H7_3 C11_3 1_555 1_555
Cu5 O11_3 1_555 1_555
O14_2 Cu5 1_555 1_555
N3_3 Cu5 1_555 1_555
P3_3 C10_3 1_555 1_555
C10_3 C11_3 1_555 1_555
O9_3 H13_3 1_555 1_555
Cu4 O3_3 1_555 1_555
P2_3 O3_3 1_555 1_555
O4_2 P2_3 1_555 1_555
O5_3 P2_3 1_555 1_555
N1_3 Cu4 1_555 1_555
C1_6 P1_6 1_555 1_555
C2_3 P2_3 1_555 1_555
C3_6 C2_3 1_555 1_555
C4_3 C1_6 1_555 1_555
C5_3 C6_3 1_555 1_555
C6_3 C7_3 1_555 1_555
C7_3 N1_3 1_555 1_555
C8_3 N1_3 1_555 1_555
C9_3 C5_3 1_555 1_555
H1_6 C3_6 1_555 1_555
H2_3 C4_3 1_555 1_555
H3_3 C6_3 1_555 1_555
H4_3 C7_3 1_555 1_555
H5_3 C8_3 1_555 1_555
H6_3 C9_3 1_555 1_555
O6_3 Cu4 1_555 1_555
O10_2 P1_6 1_555 1_555
N2_3 C14_3 1_555 1_555
C12_3 C5_3 1_555 1_555
C13_3 C12_3 1_555 1_555
C14_3 C13_3 1_555 1_555
C15_3 N2_3 1_555 1_555
C16_3 C12_3 1_555 1_555
H8_3 C13_3 1_555 1_555
H9_3 C14_3 1_555 1_555
H10_3 C15_3 1_555 1_555
H11_3 C16_3 1_555 1_555
Cu7_3 N2_3 1_555 1_555
O13_2 Cu4 1_555 1_555
C2_3 C4_3 1_555 1_555
C8_3 C9_3 1_555 1_555
C15_3 C16_3 1_555 1_555
O5_3 H12_3 1_555 1_555
Cu4_2 O3_4 1_555 1_555
P1_7 O12_3 1_555 1_555
P2_4 O3_4 1_555 1_555
O5_4 P2_4 1_555 1_555
N1_4 Cu4_2 1_555 1_555
C1_7 P1_7 1_555 1_555
C2_4 P2_4 1_555 1_555
C3_7 C2_4 1_555 1_555
C4_4 C1_7 1_555 1_555
C8_4 N1_4 1_555 1_555
C9_4 C5_4 1_555 1_555
H1_7 C3_7 1_555 1_555
H2_4 C4_4 1_555 1_555
H5_4 C8_4 1_555 1_555
H6_4 C9_4 1_555 1_555
O6_4 Cu4_2 1_555 1_555
O14_2 P1_7 1_555 1_555
C14_4 C13_4 1_555 1_555
H8_4 C13_4 1_555 1_555
H9_4 C14_4 1_555 1_555
C2_4 C4_4 1_555 1_555
C8_4 C9_4 1_555 1_555
O5_4 H12_4 1_555 1_555
C6_4 C7_4 1_555 1_555
H3_4 C6_4 1_555 1_555
H4_4 C7_4 1_555 1_555
C15_4 N2_4 1_555 1_555
C16_4 C12_4 1_555 1_555
H10_4 C15_4 1_555 1_555
H11_4 C16_4 1_555 1_555
Cu7_4 N2_4 1_555 1_555
C15_4 C16_4 1_555 1_555
P1_8 O12_4 1_555 1_555
O13_2 P1_8 1_555 1_555
C1_8 P1_8 1_555 1_555
H1_8 C3_8 1_555 1_555
P3_4 O7_4 1_555 1_555
O7_4 Cu5_2 1_555 1_555
O9_4 P3_4 1_555 1_555
C10_4 C3_8 1_555 1_555
C11_4 C1_8 1_555 1_555
H7_4 C11_4 1_555 1_555
Cu5_2 O11_4 1_555 1_555
N3_4 Cu5_2 1_555 1_555
P3_4 C10_4 1_555 1_555
C10_4 C11_4 1_555 1_555
O9_4 H13_4 1_555 1_555
O1_5 Cu4_3 1_555 1_555
Cu7_2 O1_5 1_555 1_555
C6_5 C7_5 1_555 1_555
H3_5 C6_5 1_555 1_555
H4_5 C7_5 1_555 1_555
C15_5 N3_4 1_555 1_555
C16_5 C12_5 1_555 1_555
H10_5 C15_5 1_555 1_555
H11_5 C16_5 1_555 1_555
C15_5 C16_5 1_555 1_555
Cu1_2 O3_5 1_555 1_555
P2_5 O3_5 1_555 1_555
O2_3 P1_9 1_555 1_555
O4_3 P2_5 1_555 1_555
O5_5 P2_5 1_555 1_555
N1_5 Cu1_2 1_555 1_555
C1_9 P1_9 1_555 1_555
C2_5 P2_5 1_555 1_555
C3_9 C2_5 1_555 1_555
C4_5 C1_9 1_555 1_555
C8_5 N1_5 1_555 1_555
C9_5 C5_5 1_555 1_555
H1_9 C3_9 1_555 1_555
H2_5 C4_5 1_555 1_555
H5_5 C8_5 1_555 1_555
H6_5 C9_5 1_555 1_555
O6_5 Cu1_2 1_555 1_555
P3_5 O7_5 1_555 1_555
O7_5 Cu7_4 1_555 1_555
O8_3 P3_5 1_555 1_555
O9_5 P3_5 1_555 1_555
C10_5 C3_9 1_555 1_555
C11_5 C1_9 1_555 1_555
H7_5 C11_5 1_555 1_555
O10_3 P1_9 1_555 1_555
C14_5 C13_5 1_555 1_555
H8_5 C13_5 1_555 1_555
H9_5 C14_5 1_555 1_555
Cu7_4 O11_5 1_555 1_555
Cu3_2 O2_3 1_555 1_555
Cu7_3 O10_3 1_555 1_555
O12_5 Cu1_2 1_555 1_555
C2_5 C4_5 1_555 1_555
C8_5 C9_5 1_555 1_555
P3_5 C10_5 1_555 1_555
C10_5 C11_5 1_555 1_555
Cu7_4 O12_5 1_555 1_555
O5_5 H12_5 1_555 1_555
O9_5 H13_5 1_555 1_555
Cu3_2 O3_6 1_555 1_555
P1_10 O1_6 1_555 1_555
P2_6 O3_6 1_555 1_555
O1_6 Cu4_4 1_555 1_555
O13_3 P1_10 1_555 1_555
O5_6 P2_6 1_555 1_555
N1_6 Cu3_2 1_555 1_555
C1_10 P1_10 1_555 1_555
C2_6 P2_6 1_555 1_555
C3_10 C2_6 1_555 1_555
C4_6 C1_10 1_555 1_555
C5_6 C6_6 1_555 1_555
C6_6 C7_6 1_555 1_555
C7_6 N1_6 1_555 1_555
C8_6 N1_6 1_555 1_555
C9_6 C5_6 1_555 1_555
H1_10 C3_10 1_555 1_555
H2_6 C4_6 1_555 1_555
H3_6 C6_6 1_555 1_555
H4_6 C7_6 1_555 1_555
H5_6 C8_6 1_555 1_555
H6_6 C9_6 1_555 1_555
O6_6 Cu3_2 1_555 1_555
P3_6 O7_6 1_555 1_555
O7_6 Cu7_3 1_555 1_555
O9_6 P3_6 1_555 1_555
C10_6 C3_10 1_555 1_555
C11_6 C1_10 1_555 1_555
H7_6 C11_6 1_555 1_555
O14_3 P1_10 1_555 1_555
N3_3 C14_6 1_555 1_555
C12_6 C5_6 1_555 1_555
C13_6 C12_6 1_555 1_555
C14_6 C13_6 1_555 1_555
C15_6 N3_3 1_555 1_555
C16_6 C12_6 1_555 1_555
H8_6 C13_6 1_555 1_555
H9_6 C14_6 1_555 1_555
H10_6 C15_6 1_555 1_555
H11_6 C16_6 1_555 1_555
Cu7_3 O11_6 1_555 1_555
Cu7 O1_6 1_555 1_555
O12_6 Cu3_2 1_555 1_555
C2_6 C4_6 1_555 1_555
C8_6 C9_6 1_555 1_555
P3_6 C10_6 1_555 1_555
C10_6 C11_6 1_555 1_555
C15_6 C16_6 1_555 1_555
Cu7_3 O12_6 1_555 1_555
O5_6 H12_6 1_555 1_555
O9_6 H13_6 1_555 1_555
Cu4_3 O3_7 1_555 1_555
P1_11 O12_5 1_555 1_555
P2_7 O3_7 1_555 1_555
O2_4 P1_11 1_555 1_555
O5_7 P2_7 1_555 1_555
N1_7 Cu4_3 1_555 1_555
C1_11 P1_11 1_555 1_555
C2_7 P2_7 1_555 1_555
C3_11 C2_7 1_555 1_555
C4_7 C1_11 1_555 1_555
C5_7 C6_7 1_555 1_555
C6_7 C7_7 1_555 1_555
C7_7 N1_7 1_555 1_555
C8_7 N1_7 1_555 1_555
C9_7 C5_7 1_555 1_555
H1_11 C3_11 1_555 1_555
H2_7 C4_7 1_555 1_555
H3_7 C6_7 1_555 1_555
H4_7 C7_7 1_555 1_555
H5_7 C8_7 1_555 1_555
H6_7 C9_7 1_555 1_555
O6_7 Cu4_3 1_555 1_555
P3_7 O7_7 1_555 1_555
O7_7 Cu7_2 1_555 1_555
O9_7 P3_7 1_555 1_555
C10_7 C3_11 1_555 1_555
C11_7 C1_11 1_555 1_555
H7_7 C11_7 1_555 1_555
O10_4 P1_11 1_555 1_555
N3_2 C14_7 1_555 1_555
C12_7 C5_7 1_555 1_555
C13_7 C12_7 1_555 1_555
C14_7 C13_7 1_555 1_555
C15_7 N3_2 1_555 1_555
C16_7 C12_7 1_555 1_555
H8_7 C13_7 1_555 1_555
H9_7 C14_7 1_555 1_555
H10_7 C15_7 1_555 1_555
H11_7 C16_7 1_555 1_555
Cu7_2 O11_7 1_555 1_555
O13_4 Cu4_3 1_555 1_555
O14_4 Cu7_2 1_555 1_555
C2_7 C4_7 1_555 1_555
C8_7 C9_7 1_555 1_555
P3_7 C10_7 1_555 1_555
C10_7 C11_7 1_555 1_555
C15_7 C16_7 1_555 1_555
O5_7 H12_7 1_555 1_555
O9_7 H13_7 1_555 1_555
Cu4_4 O3_8 1_555 1_555
P2_8 O3_8 1_555 1_555
O13_4 P1_12 1_555 1_555
O4_4 P2_8 1_555 1_555
O5_8 P2_8 1_555 1_555
N1_8 Cu4_4 1_555 1_555
C1_12 P1_12 1_555 1_555
C2_8 P2_8 1_555 1_555
C3_12 C2_8 1_555 1_555
C4_8 C1_12 1_555 1_555
C8_8 N1_8 1_555 1_555
C9_8 C5_8 1_555 1_555
H1_12 C3_12 1_555 1_555
H2_8 C4_8 1_555 1_555
H5_8 C8_8 1_555 1_555
H6_8 C9_8 1_555 1_555
O6_8 Cu4_4 1_555 1_555
P3_8 O7_8 1_555 1_555
O7_8 Cu7 1_555 1_555
O8_4 P3_8 1_555 1_555
O9_8 P3_8 1_555 1_555
C10_8 C3_12 1_555 1_555
C11_8 C1_12 1_555 1_555
H7_8 C11_8 1_555 1_555
O14_4 P1_12 1_555 1_555
C14_8 C13_8 1_555 1_555
H8_8 C13_8 1_555 1_555
H9_8 C14_8 1_555 1_555
Cu7 O11_8 1_555 1_555
C2_8 C4_8 1_555 1_555
C8_8 C9_8 1_555 1_555
P3_8 C10_8 1_555 1_555
C10_8 C11_8 1_555 1_555
O5_8 H12_8 1_555 1_555
O9_8 H13_8 1_555 1_555
C6_8 C7_8 1_555 1_555
H3_8 C6_8 1_555 1_555
H4_8 C7_8 1_555 1_555
C15_8 N3 1_555 1_555
C16_8 C12_8 1_555 1_555
H10_8 C15_8 1_555 1_555
H11_8 C16_8 1_555 1_555
C15_8 C16_8 1_555 1_555
O5_4 H13_9 1_555 1_555
O9_4 H12_9 1_555 1_555
O9_3 H12_10 1_555 1_555
O5_3 H13_10 1_555 1_555
O9_2 H12_11 1_555 1_555
O5_2 H13_11 1_555 1_555
O5 H13_12 1_555 1_555
O9 H12_12 1_555 1_555
O9_8 H12_13 1_555 1_555
O5_8 H13_13 1_555 1_555
O9_7 H12_14 1_555 1_555
O5_7 H13_14 1_555 1_555
O9_6 H12_15 1_555 1_555
O5_6 H13_15 1_555 1_555
O9_5 H12_16 1_555 1_555
O5_5 H13_16 1_555 1_555

#END
