
###############################################################################
#
# This file contains modified crystal structure data generated from the
# MOF subset of the Cambridge Structural Database (CSD) v543 
# hosted by the Cambridge Crystallographic Data Centre (CCDC).
#
# This work is licensed under the Creative Commons
# Attribution-NonCommercial-ShareAlike 4.0 International License.
# To view a copy of this license, visit
# http://creativecommons.org/licenses/by-nc-sa/4.0/
# or send a letter to
# Creative Commons, PO Box 1866, Mountain View, CA 94042, USA.
#
# CIF created using the CSD Python API on 29 September 2022
# The structure has been converted into the P1 space group
# The structure has a 3D framework
# The original CSD entry VUNDIT is in the triclinic crystal system
# The framework has been calculated to contain at least 10.0% void space
# The void calculation uses a probe of radius 1.32A, grid spacing 0.4
#
###############################################################################

data_VUNDIT
_chemical_formula_moiety         '(C62 H40 Cd4 N16 O14)n'
_symmetry_cell_setting           triclinic
_symmetry_space_group_name_H-M   'P 1'
_symmetry_Int_Tables_number      1
_space_group_name_Hall           'P 1'
loop_
_symmetry_equiv_pos_site_id
_symmetry_equiv_pos_as_xyz
1 x,y,z
_cell_length_a                   7.412(4)
_cell_length_b                   14.291(9)
_cell_length_c                   16.206(9)
_cell_angle_alpha                103.696(5)
_cell_angle_beta                 96.531(4)
_cell_angle_gamma                97.864(5)
_cell_volume                     1632.97
loop_
_atom_site_label
_atom_site_type_symbol
_atom_site_fract_x
_atom_site_fract_y
_atom_site_fract_z
C23 C 0.4783(7) 0.1069(5) 0.6466(4)
C24 C 0.0676(8) 0.0812(5) 0.6590(4)
C25 C 0.2155(8) 0.0927(5) 0.7342(4)
C26 C 0.1607(10) 0.0969(5) 0.8150(4)
H16 H 0.0369 0.0948 0.8208
C27 C 0.2883(11) 0.1040(6) 0.8856(5)
H17 H 0.2511 0.1075 0.9390
C28 C 0.4735(11) 0.1061(6) 0.8772(5)
H18 H 0.5596 0.1081 0.9243
C29 C 0.5282(8) 0.1052(5) 0.7995(4)
H19 H 0.6527 0.1089 0.7949
C30 C 0.4019(8) 0.0989(4) 0.7264(4)
O5 O 0.4893(5) 0.0295(3) 0.5914(3)
O6 O 0.5374(6) 0.1909(4) 0.6428(3)
O7 O 0.1070(5) 0.0607(3) 0.5838(3)
Cd7 Cd 0.75493(5) 0.02053(3) 0.52732(3)
N9 N 0.2529(7) 0.1282(4) 0.4279(3)
O1 O 0.3993(5) 0.5984(4) 0.0201(3)
O4 O 0.0287(7) 0.6935(4) 0.0514(3)
Cd4 Cd 0.78836(6) 0.54975(4) 0.03014(3)
O9 O 0.3684(6) 0.3709(4) 0.0486(3)
Cd1 Cd 0.21164(6) 0.45025(4) 0.96986(3)
Cd2 Cd 0.24507(5) 0.97947(3) 0.47268(3)
C1 C 0.3870(10) 0.4411(6) 0.7945(5)
H1 H 0.4832 0.4926 0.8198
N1 N 0.2035(8) 0.3181(5) 0.6975(4)
C2 C 0.4597(9) 0.3991(5) 0.6446(4)
H2 H 0.4846 0.3356 0.6156
H3 H 0.5768 0.4419 0.6679
C3 C 0.2768(8) 0.4005(5) 0.5010(4)
C4 C 0.2654(7) 0.3004(5) 0.4471(4)
C5 C 0.2539(9) 0.2880(5) 0.3600(4)
H4 H 0.2519 0.3414 0.3365
C6 C 0.2453(9) 0.1966(5) 0.3082(4)
H5 H 0.2365 0.1868 0.2490
C7 C 0.2498(8) 0.1193(5) 0.3445(4)
H6 H 0.2506 0.0579 0.3089
C8 C 0.2586(8) 0.2174(5) 0.4781(4)
H7 H 0.2579 0.2245 0.5366
C9 C 0.2565(8) 0.5497(5) 0.5375(5)
C10 C 0.2238(8) 0.6469(5) 0.5302(4)
C11 C 0.1583(8) 0.6602(5) 0.4535(4)
H8 H 0.1186 0.6066 0.4065
C12 C 0.1502(8) 0.7532(5) 0.4445(4)
H9 H 0.1057 0.7603 0.3908
C13 C 0.2572(8) 0.8196(5) 0.5857(4)
H10 H 0.2898 0.8742 0.6322
C14 C 0.2676(9) 0.7286(5) 0.5998(4)
H11 H 0.3031 0.7223 0.6549
C15 C 0.4737(9) 0.6403(5) 0.9704(4)
C16 C 0.0780(9) 0.6544(6) 0.9829(5)
C17 C 0.1939(9) 0.7160(5) 0.9398(4)
C18 C 0.1146(10) 0.7818(6) 0.9044(6)
C19 C 0.2097(13) 0.8398(7) 0.8616(6)
H13 H 0.1537 0.8850 0.8396
C20 C 0.3871(12) 0.8304(7) 0.8515(6)
H14 H 0.4522 0.8686 0.8219
C21 C 0.4699(10) 0.7640(6) 0.8854(5)
H15 H 0.5907 0.7578 0.8780
C22 C 0.3780(9) 0.7071(5) 0.9294(4)
N2 N 0.2523(8) 0.4065(5) 0.8345(4)
C31 C 0.1517(9) 0.3310(6) 0.7736(5)
H20 H 0.0524 0.2908 0.7845
N3 N 0.3592(7) 0.3893(4) 0.7127(4)
N4 N 0.3577(7) 0.4387(4) 0.5837(4)
N5 N 0.3454(7) 0.5352(4) 0.6086(4)
N6 N 0.2113(7) 0.4701(4) 0.4705(3)
N8 N 0.2027(6) 0.8328(4) 0.5087(4)
O2 O 0.6316(6) 0.6291(4) 0.9514(3)
O3 O 0.0161(6) 0.5664(4) 0.9433(3)
O12 O 0.5107(5) 0.9705(3) 0.4086(3)
O14 O 0.0931(5) 0.9067(3) 0.3266(3)
O8 O 0.9069(5) 0.0933(3) 0.6734(3)
O10 O 0.9839(6) 0.4336(4) 0.0567(3)
H12 H 0.9925 0.7872 0.9096
O11 O 0.9713(7) 0.3065(4) 0.9486(3)
O13 O 0.8930(5) 0.9393(3) 0.4162(3)
H12_2 H 0.0075 0.2128 0.0904
C1_2 C 0.6130(10) 0.5589(6) 0.2055(5)
H1_2 H 0.5168 0.5074 0.1802
N1_2 N 0.7965(8) 0.6819(5) 0.3025(4)
C2_2 C 0.5403(9) 0.6009(5) 0.3554(4)
H2_2 H 0.5154 0.6644 0.3844
H3_2 H 0.4232 0.5581 0.3321
C3_2 C 0.7232(8) 0.5995(5) 0.4990(4)
C4_2 C 0.7346(7) 0.6996(5) 0.5529(4)
C5_2 C 0.7461(9) 0.7120(5) 0.6400(4)
H4_2 H 0.7481 0.6586 0.6635
C6_2 C 0.7547(9) 0.8034(5) 0.6918(4)
H5_2 H 0.7635 0.8132 0.7510
C7_2 C 0.7502(8) 0.8807(5) 0.6555(4)
H6_2 H 0.7494 0.9421 0.6911
C8_2 C 0.7414(8) 0.7826(5) 0.5219(4)
H7_2 H 0.7421 0.7755 0.4634
C9_2 C 0.7435(8) 0.4503(5) 0.4625(5)
C10_2 C 0.7762(8) 0.3531(5) 0.4698(4)
C11_2 C 0.8417(8) 0.3398(5) 0.5465(4)
H8_2 H 0.8814 0.3934 0.5935
C12_2 C 0.8498(8) 0.2468(5) 0.5555(4)
H9_2 H 0.8943 0.2397 0.6092
C13_2 C 0.7428(8) 0.1804(5) 0.4143(4)
H10_2 H 0.7102 0.1258 0.3678
C14_2 C 0.7324(9) 0.2714(5) 0.4002(4)
H11_2 H 0.6969 0.2777 0.3451
C15_2 C 0.5263(9) 0.3597(5) 0.0296(4)
C16_2 C 0.9220(9) 0.3456(6) 0.0171(5)
C17_2 C 0.8061(9) 0.2840(5) 0.0602(4)
C18_2 C 0.8854(10) 0.2182(6) 0.0956(6)
C19_2 C 0.7903(13) 0.1602(7) 0.1384(6)
H13_2 H 0.8463 0.1150 0.1604
C20_2 C 0.6129(12) 0.1696(7) 0.1485(6)
H14_2 H 0.5478 0.1314 0.1781
C21_2 C 0.5301(10) 0.2360(6) 0.1146(5)
H15_2 H 0.4093 0.2422 0.1220
C22_2 C 0.6220(9) 0.2929(5) 0.0706(4)
N2_2 N 0.7477(8) 0.5935(5) 0.1655(4)
C31_2 C 0.8483(9) 0.6690(6) 0.2264(5)
H20_2 H 0.9476 0.7092 0.2155
N3_2 N 0.6408(7) 0.6107(4) 0.2873(4)
N4_2 N 0.6423(7) 0.5613(4) 0.4163(4)
N5_2 N 0.6546(7) 0.4648(4) 0.3914(4)
N6_2 N 0.7887(7) 0.5299(4) 0.5295(3)
N7 N 0.7471(7) 0.8718(4) 0.5721(3)
N8_2 N 0.7973(6) 0.1672(4) 0.4913(4)
O1_2 O 0.6007(5) 0.4016(4) 0.9799(3)
C23_2 C 0.5217(7) 0.8931(5) 0.3534(4)
C24_2 C 0.9324(8) 0.9188(5) 0.3410(4)
C25_2 C 0.7845(8) 0.9073(5) 0.2658(4)
C26_2 C 0.8393(10) 0.9031(5) 0.1850(4)
H16_2 H 0.9631 0.9052 0.1792
C27_2 C 0.7117(11) 0.8960(6) 0.1144(5)
H17_2 H 0.7489 0.8925 0.0610
C28_2 C 0.5265(11) 0.8939(6) 0.1228(5)
H18_2 H 0.4404 0.8919 0.0757
C29_2 C 0.4718(8) 0.8948(5) 0.2005(4)
H19_2 H 0.3473 0.8911 0.2051
C30_2 C 0.5981(8) 0.9011(4) 0.2736(4)
O6_2 O 0.4626(6) 0.8091(4) 0.3572(3)
loop_
_geom_bond_atom_site_label_1
_geom_bond_atom_site_label_2
_geom_bond_site_symmetry_1
_geom_bond_site_symmetry_2
C23 C30 1_555 1_555
C24 C25 1_555 1_555
C25 C26 1_555 1_555
C26 H16 1_555 1_555
C27 C26 1_555 1_555
H17 C27 1_555 1_555
C28 C27 1_555 1_555
H18 C28 1_555 1_555
C29 C28 1_555 1_555
H19 C29 1_555 1_555
C30 C25 1_555 1_555
O6 C23 1_555 1_555
Cd7 O5 1_555 1_555
C23 O5 1_555 1_555
C24 O7 1_555 1_555
C29 C30 1_555 1_555
Cd1 N2 1_555 1_555
Cd2 N8 1_555 1_555
C1 H1 1_555 1_555
N1 C31 1_555 1_555
C2 H2 1_555 1_555
H3 C2 1_555 1_555
C3 C4 1_555 1_555
C4 C5 1_555 1_555
C5 H4 1_555 1_555
C6 C5 1_555 1_555
H5 C6 1_555 1_555
C7 C6 1_555 1_555
H6 C7 1_555 1_555
C8 C4 1_555 1_555
H7 C8 1_555 1_555
C9 C10 1_555 1_555
C10 C11 1_555 1_555
C11 H8 1_555 1_555
C12 C11 1_555 1_555
H9 C12 1_555 1_555
C13 H10 1_555 1_555
C14 C10 1_555 1_555
H11 C14 1_555 1_555
C15 C22 1_555 1_555
C16 C17 1_555 1_555
C17 C18 1_555 1_555
C19 C18 1_555 1_555
H13 C19 1_555 1_555
C20 C19 1_555 1_555
H14 C20 1_555 1_555
C21 C20 1_555 1_555
H15 C21 1_555 1_555
C22 C17 1_555 1_555
N2 C1 1_555 1_555
C31 N2 1_555 1_555
H20 C31 1_555 1_555
N3 C1 1_555 1_555
N4 C2 1_555 1_555
N5 C9 1_555 1_555
N6 C3 1_555 1_555
N9 C7 1_555 1_555
N8 C12 1_555 1_555
O2 C15 1_555 1_555
O3 Cd1 1_555 1_555
O12 Cd2 1_555 1_555
O14 Cd2 1_555 1_555
N1 N3 1_555 1_555
C2 N3 1_555 1_555
C3 N4 1_555 1_555
C8 N9 1_555 1_555
C9 N6 1_555 1_555
C13 C14 1_555 1_555
C13 N8 1_555 1_555
C16 O3 1_555 1_555
C21 C22 1_555 1_555
N4 N5 1_555 1_555
O8 Cd7 1_555 1_555
Cd4 O10 1_555 1_555
Cd4 N2_2 1_555 1_555
Cd7 N8_2 1_555 1_555
C1_2 H1_2 1_555 1_555
N1_2 C31_2 1_555 1_555
C2_2 H2_2 1_555 1_555
H3_2 C2_2 1_555 1_555
C3_2 C4_2 1_555 1_555
C4_2 C5_2 1_555 1_555
C5_2 H4_2 1_555 1_555
C6_2 C5_2 1_555 1_555
H5_2 C6_2 1_555 1_555
C7_2 C6_2 1_555 1_555
H6_2 C7_2 1_555 1_555
C8_2 C4_2 1_555 1_555
H7_2 C8_2 1_555 1_555
C9_2 C10_2 1_555 1_555
C10_2 C11_2 1_555 1_555
C11_2 H8_2 1_555 1_555
C12_2 C11_2 1_555 1_555
H9_2 C12_2 1_555 1_555
C13_2 H10_2 1_555 1_555
C14_2 C10_2 1_555 1_555
H11_2 C14_2 1_555 1_555
C15_2 C22_2 1_555 1_555
C16_2 C17_2 1_555 1_555
C17_2 C18_2 1_555 1_555
C19_2 C18_2 1_555 1_555
H13_2 C19_2 1_555 1_555
C20_2 C19_2 1_555 1_555
H14_2 C20_2 1_555 1_555
C21_2 C20_2 1_555 1_555
H15_2 C21_2 1_555 1_555
C22_2 C17_2 1_555 1_555
N2_2 C1_2 1_555 1_555
C31_2 N2_2 1_555 1_555
H20_2 C31_2 1_555 1_555
N3_2 C1_2 1_555 1_555
N4_2 C2_2 1_555 1_555
N5_2 C9_2 1_555 1_555
N6_2 C3_2 1_555 1_555
N7 C7_2 1_555 1_555
N8_2 C12_2 1_555 1_555
O9 C15_2 1_555 1_555
N1_2 N3_2 1_555 1_555
C2_2 N3_2 1_555 1_555
C3_2 N4_2 1_555 1_555
C8_2 N7 1_555 1_555
C9_2 N6_2 1_555 1_555
C13_2 C14_2 1_555 1_555
C13_2 N8_2 1_555 1_555
C16_2 O10 1_555 1_555
C21_2 C22_2 1_555 1_555
N4_2 N5_2 1_555 1_555
C23_2 C30_2 1_555 1_555
C24_2 C25_2 1_555 1_555
C25_2 C26_2 1_555 1_555
C26_2 H16_2 1_555 1_555
C27_2 C26_2 1_555 1_555
H17_2 C27_2 1_555 1_555
C28_2 C27_2 1_555 1_555
H18_2 C28_2 1_555 1_555
C29_2 C28_2 1_555 1_555
H19_2 C29_2 1_555 1_555
C30_2 C25_2 1_555 1_555
O6_2 C23_2 1_555 1_555
C23_2 O12 1_555 1_555
C24_2 O13 1_555 1_555
C29_2 C30_2 1_555 1_555

#END
