
###############################################################################
#
# This file contains modified crystal structure data generated from the
# MOF subset of the Cambridge Structural Database (CSD) v543 
# hosted by the Cambridge Crystallographic Data Centre (CCDC).
#
# This work is licensed under the Creative Commons
# Attribution-NonCommercial-ShareAlike 4.0 International License.
# To view a copy of this license, visit
# http://creativecommons.org/licenses/by-nc-sa/4.0/
# or send a letter to
# Creative Commons, PO Box 1866, Mountain View, CA 94042, USA.
#
# CIF created using the CSD Python API on 29 September 2022
# The structure has been converted into the P1 space group
# The structure has a 3D framework
# The original CSD entry VUNJAR is in the triclinic crystal system
# The framework has been calculated to contain at least 10.0% void space
# The void calculation uses a probe of radius 1.32A, grid spacing 0.4
# The framework is charged, counterions have been retained in the structure
#
###############################################################################

data_VUNJAR
_chemical_formula_moiety         'C56 H56 N8 O20 Zn2'
_symmetry_cell_setting           triclinic
_symmetry_space_group_name_H-M   'P 1'
_symmetry_Int_Tables_number      1
_space_group_name_Hall           'P 1'
loop_
_symmetry_equiv_pos_site_id
_symmetry_equiv_pos_as_xyz
1 x,y,z
_cell_length_a                   10.143(2)
_cell_length_b                   10.328(2)
_cell_length_c                   18.048(4)
_cell_angle_alpha                102.71(3)
_cell_angle_beta                 101.23(3)
_cell_angle_gamma                90.79(3)
_cell_volume                     1805.84
loop_
_atom_site_label
_atom_site_type_symbol
_atom_site_fract_x
_atom_site_fract_y
_atom_site_fract_z
Zn4 Zn 0.050027(4) 0.044907(4) 0.315796(2)
O8 O 0.81710(5) 0.06597(4) 0.32124(2)
O9 O 0.33066(6) 0.03550(7) 0.33855(3)
C20 C 0.54102(6) 0.00357(6) 0.25562(3)
H11 H 0.5643 0.0371 0.3090
C23 C 0.78630(6) 0.01207(6) 0.25046(3)
C24 C 0.30162(7) 0.00638(7) 0.26631(4)
O7 O 0.87508(4) 0.98111(4) 0.20940(3)
O10 O 0.18181(5) 0.99707(5) 0.23067(3)
N2 N 0.43744(6) 0.84676(5) 0.01670(3)
C17 C 0.47657(7) 0.89907(6) 0.09720(3)
C18 C 0.60946(6) 0.92961(6) 0.13324(3)
H10 H 0.6768 0.9154 0.1045
C19 C 0.64249(6) 0.98177(6) 0.21284(3)
C21 C 0.40799(6) 0.97687(6) 0.22101(3)
C22 C 0.37543(6) 0.92370(6) 0.14077(4)
H12 H 0.2857 0.9045 0.1161
O1 O 0.11003(5) 0.23923(4) 0.40034(3)
O2 O 0.04963(6) 0.29640(5) 0.28989(3)
O3 O 0.02314(7) 0.78753(5) 0.30066(3)
O4 O 0.09418(6) 0.93467(4) 0.40991(3)
O5 O 0.38417(7) 0.51325(6) 0.60856(3)
O6 O 0.61085(6) 0.72366(6) 0.99844(3)
N1 N 0.23809(6) 0.66693(5) 0.60634(3)
H1 H 0.2033 0.7313 0.6336
H2 H 0.3605 0.8676 0.9942
C1 C 0.08871(7) 0.32822(6) 0.36218(3)
C2 C 0.11192(6) 0.46955(6) 0.40559(3)
C3 C 0.16091(7) 0.50023(6) 0.48385(3)
H3 H 0.1770 0.4323 0.5102
C4 C 0.18768(7) 0.63587(6) 0.52566(3)
C5 C 0.15441(7) 0.73652(6) 0.49011(3)
H4 H 0.1668 0.8244 0.5180
C6 C 0.10094(7) 0.70536(6) 0.41045(3)
C7 C 0.08048(6) 0.57185(6) 0.36839(4)
H5 H 0.0456 0.5526 0.3153
C8 C 0.06843(7) 0.81557(6) 0.36970(4)
C9 C 0.33330(8) 0.60652(7) 0.64369(4)
C10 C 0.37605(7) 0.65864(6) 0.72585(3)
C11 C 0.50886(8) 0.67536(7) 0.75804(4)
H6 H 0.5724 0.6614 0.7267
C12 C 0.55038(7) 0.71398(7) 0.83924(4)
H7 H 0.6419 0.7264 0.8610
C13 C 0.45786(7) 0.73396(6) 0.88751(3)
C14 C 0.32039(7) 0.71560(7) 0.85422(4)
H8 H 0.2570 0.7281 0.8857
C15 C 0.27973(8) 0.67952(6) 0.77582(4)
H9 H 0.1882 0.6681 0.7540
C16 C 0.50754(8) 0.76852(7) 0.97220(4)
O12 O 0.12492(4) 0.01889(4) 0.79060(3)
O13 O 0.18290(5) 0.93403(4) 0.67876(2)
O11 O 0.90582(6) 0.06533(4) 0.59009(3)
O14 O 0.81819(5) 0.00293(5) 0.76933(3)
Zn1 Zn 0.949973(4) 0.955093(4) 0.684204(2)
O1_2 O 0.88997(5) 0.76077(4) 0.59966(3)
O2_2 O 0.95037(6) 0.70360(5) 0.71011(3)
O3_2 O 0.97686(7) 0.21247(5) 0.69934(3)
O5_2 O 0.61583(7) 0.48675(6) 0.39144(3)
O6_2 O 0.38915(6) 0.27634(6) 0.00156(3)
N1_2 N 0.76191(6) 0.33307(5) 0.39366(3)
H1_2 H 0.7967 0.2687 0.3664
H2_2 H 0.6395 0.1324 0.0058
C1_2 C 0.91129(7) 0.67178(6) 0.63782(3)
C2_2 C 0.88808(6) 0.53045(6) 0.59441(3)
C3_2 C 0.83909(7) 0.49977(6) 0.51615(3)
H3_2 H 0.8230 0.5677 0.4898
C4_2 C 0.81232(7) 0.36413(6) 0.47434(3)
C5_2 C 0.84559(7) 0.26348(6) 0.50989(3)
H4_2 H 0.8332 0.1756 0.4820
C6_2 C 0.89906(7) 0.29464(6) 0.58955(3)
C7_2 C 0.91952(6) 0.42815(6) 0.63161(4)
H5_2 H 0.9544 0.4474 0.6847
C8_2 C 0.93157(7) 0.18443(6) 0.63030(4)
C9_2 C 0.66670(8) 0.39348(7) 0.35631(4)
C10_2 C 0.62395(7) 0.34136(6) 0.27415(3)
C11_2 C 0.49114(8) 0.32464(7) 0.24196(4)
H6_2 H 0.4276 0.3386 0.2733
C12_2 C 0.44962(7) 0.28602(7) 0.16076(4)
H7_2 H 0.3581 0.2736 0.1390
C13_2 C 0.54214(7) 0.26604(6) 0.11249(3)
C14_2 C 0.67961(7) 0.28440(7) 0.14578(4)
H8_2 H 0.7430 0.2719 0.1143
C15_2 C 0.72027(8) 0.32048(6) 0.22418(4)
H9_2 H 0.8118 0.3319 0.2460
C16_2 C 0.49246(8) 0.23148(7) 0.02780(4)
N2_2 N 0.56256(6) 0.15324(5) 0.98330(3)
C17_2 C 0.52343(7) 0.10093(6) 0.90280(3)
C18_2 C 0.39054(6) 0.07039(6) 0.86676(3)
H10_2 H 0.3232 0.0846 0.8955
C19_2 C 0.35751(6) 0.01823(6) 0.78716(3)
C21_2 C 0.59201(6) 0.02313(6) 0.77899(3)
C22_2 C 0.62457(6) 0.07630(6) 0.85923(4)
H12_2 H 0.7143 0.0955 0.8839
O9_2 O 0.66934(6) 0.96450(7) 0.66145(3)
C20_2 C 0.45898(6) 0.99643(6) 0.74438(3)
H11_2 H 0.4357 0.9629 0.6910
C23_2 C 0.21370(6) 0.98793(6) 0.74954(3)
C24_2 C 0.69838(7) 0.99362(7) 0.73369(4)
N3 N 0.05125(7) 0.26599(6) 0.86912(3)
H14 H 0.0692 0.1855 0.8432
C25 C 0.03997(10) 0.25804(10) 0.94665(5)
H15 H 0.1282 0.2566 0.9775
C26 C 0.15625(10) 0.36394(11) 0.86745(6)
H18 H 0.1358 0.4509 0.8929
H19 H 0.1599 0.3631 0.8146
H20 H 0.2417 0.3419 0.8937
H13 H 0.9716 0.2872 0.8442
H16 H 0.9881 0.1783 0.9443
H17 H 0.9962 0.3339 0.9696
H13_2 H 0.0284 0.7128 0.1558
H16_2 H 0.0119 0.8217 0.0557
H17_2 H 0.0038 0.6661 0.0304
N3_2 N 0.94875(7) 0.73401(6) 0.13088(3)
H14_2 H 0.9308 0.8145 0.1568
C25_2 C 0.96003(10) 0.74196(10) 0.05335(5)
H15_2 H 0.8718 0.7434 0.0225
C26_2 C 0.84375(10) 0.63606(11) 0.13255(6)
H18_2 H 0.8642 0.5491 0.1071
H19_2 H 0.8401 0.6369 0.1854
H20_2 H 0.7583 0.6581 0.1063
N4 N 0.69052(13) 0.84779(13) 0.50746(6)
H21 H 0.7512 0.8200 0.5433
H22 H 0.6837 0.9357 0.5245
C27 C 0.55437(18) 0.77541(18) 0.49814(10)
H23 H 0.5313 0.7844 0.5481
H24 H 0.5590 0.6829 0.4751
H25 H 0.4870 0.8133 0.4654
C28 C 0.74015(17) 0.82230(15) 0.42982(8)
H26 H 0.8288 0.8636 0.4384
H27 H 0.6798 0.8592 0.3930
H28 H 0.7426 0.7283 0.4101
N4_2 N 0.30948(13) 0.15221(13) 0.49254(6)
H21_2 H 0.2488 0.1800 0.4567
H22_2 H 0.3163 0.0643 0.4755
C27_2 C 0.44563(18) 0.22459(18) 0.50186(10)
H23_2 H 0.4687 0.2156 0.4519
H24_2 H 0.4410 0.3171 0.5249
H25_2 H 0.5130 0.1867 0.5346
C28_2 C 0.25985(17) 0.17770(15) 0.57018(8)
H26_2 H 0.1712 0.1364 0.5616
H27_2 H 0.3202 0.1408 0.6070
H28_2 H 0.2574 0.2717 0.5899
loop_
_geom_bond_atom_site_label_1
_geom_bond_atom_site_label_2
_geom_bond_site_symmetry_1
_geom_bond_site_symmetry_2
O8 C23 1_555 1_555
O9 C24 1_555 1_555
H11 C20 1_555 1_555
C17 N2 1_555 1_555
C18 C17 1_555 1_555
H10 C18 1_555 1_555
C19 C18 1_555 1_555
C22 C17 1_555 1_555
H12 C22 1_555 1_555
C21 C22 1_555 1_555
Zn4 O1 1_555 1_555
O1 C1 1_555 1_555
O2 C1 1_555 1_555
O3 C8 1_555 1_555
O4 C8 1_555 1_555
O5 C9 1_555 1_555
O6 C16 1_555 1_555
N1 H1 1_555 1_555
C1 C2 1_555 1_555
C2 C3 1_555 1_555
C3 H3 1_555 1_555
C4 N1 1_555 1_555
C5 C4 1_555 1_555
H4 C5 1_555 1_555
C6 C5 1_555 1_555
C7 C2 1_555 1_555
H5 C7 1_555 1_555
C8 C6 1_555 1_555
C9 N1 1_555 1_555
C10 C9 1_555 1_555
C11 C10 1_555 1_555
H6 C11 1_555 1_555
C12 C11 1_555 1_555
H7 C12 1_555 1_555
C13 C12 1_555 1_555
C14 C13 1_555 1_555
H8 C14 1_555 1_555
C15 C10 1_555 1_555
H9 C15 1_555 1_555
C3 C4 1_555 1_555
C6 C7 1_555 1_555
C13 C16 1_555 1_555
C14 C15 1_555 1_555
Zn1 O1_2 1_555 1_555
O1_2 C1_2 1_555 1_555
O2_2 C1_2 1_555 1_555
O3_2 C8_2 1_555 1_555
O11 C8_2 1_555 1_555
O5_2 C9_2 1_555 1_555
O6_2 C16_2 1_555 1_555
N1_2 H1_2 1_555 1_555
C1_2 C2_2 1_555 1_555
C2_2 C3_2 1_555 1_555
C3_2 H3_2 1_555 1_555
C4_2 N1_2 1_555 1_555
C5_2 C4_2 1_555 1_555
H4_2 C5_2 1_555 1_555
C6_2 C5_2 1_555 1_555
C7_2 C2_2 1_555 1_555
H5_2 C7_2 1_555 1_555
C8_2 C6_2 1_555 1_555
C9_2 N1_2 1_555 1_555
C10_2 C9_2 1_555 1_555
C11_2 C10_2 1_555 1_555
H6_2 C11_2 1_555 1_555
C12_2 C11_2 1_555 1_555
H7_2 C12_2 1_555 1_555
C13_2 C12_2 1_555 1_555
C14_2 C13_2 1_555 1_555
H8_2 C14_2 1_555 1_555
C15_2 C10_2 1_555 1_555
H9_2 C15_2 1_555 1_555
C3_2 C4_2 1_555 1_555
C6_2 C7_2 1_555 1_555
C13_2 C16_2 1_555 1_555
C14_2 C15_2 1_555 1_555
C17_2 N2_2 1_555 1_555
C18_2 C17_2 1_555 1_555
H10_2 C18_2 1_555 1_555
C19_2 C18_2 1_555 1_555
C22_2 C17_2 1_555 1_555
H12_2 C22_2 1_555 1_555
C21_2 C22_2 1_555 1_555
O13 C23_2 1_555 1_555
O9_2 C24_2 1_555 1_555
H11_2 C20_2 1_555 1_555
H14 N3 1_555 1_555
C25 N3 1_555 1_555
H15 C25 1_555 1_555
C26 N3 1_555 1_555
H18 C26 1_555 1_555
H19 C26 1_555 1_555
H20 C26 1_555 1_555
H14_2 N3_2 1_555 1_555
C25_2 N3_2 1_555 1_555
H15_2 C25_2 1_555 1_555
C26_2 N3_2 1_555 1_555
H18_2 C26_2 1_555 1_555
H19_2 C26_2 1_555 1_555
H20_2 C26_2 1_555 1_555
N4 H21 1_555 1_555
H22 N4 1_555 1_555
C27 N4 1_555 1_555
H23 C27 1_555 1_555
H24 C27 1_555 1_555
H25 C27 1_555 1_555
C28 N4 1_555 1_555
H26 C28 1_555 1_555
H27 C28 1_555 1_555
H28 C28 1_555 1_555
N4_2 H21_2 1_555 1_555
H22_2 N4_2 1_555 1_555
C27_2 N4_2 1_555 1_555
H23_2 C27_2 1_555 1_555
H24_2 C27_2 1_555 1_555
H25_2 C27_2 1_555 1_555
C28_2 N4_2 1_555 1_555
H26_2 C28_2 1_555 1_555
H27_2 C28_2 1_555 1_555
H28_2 C28_2 1_555 1_555

#END
