
###############################################################################
#
# This file contains modified crystal structure data generated from the
# MOF subset of the Cambridge Structural Database (CSD) v543 
# hosted by the Cambridge Crystallographic Data Centre (CCDC).
#
# This work is licensed under the Creative Commons
# Attribution-NonCommercial-ShareAlike 4.0 International License.
# To view a copy of this license, visit
# http://creativecommons.org/licenses/by-nc-sa/4.0/
# or send a letter to
# Creative Commons, PO Box 1866, Mountain View, CA 94042, USA.
#
# CIF created using the CSD Python API on 29 September 2022
# The structure has been converted into the P1 space group
# The structure has a 3D framework
# The original CSD entry VUNMOI is in the triclinic crystal system
# The framework has been calculated to contain at least 10.0% void space
# The void calculation uses a probe of radius 1.32A, grid spacing 0.4
#
###############################################################################

data_VUNMOI
_chemical_formula_moiety         '(C16 H26 Cu12 O26)n'
_symmetry_cell_setting           triclinic
_symmetry_space_group_name_H-M   'P 1'
_symmetry_Int_Tables_number      1
_space_group_name_Hall           'P 1'
loop_
_symmetry_equiv_pos_site_id
_symmetry_equiv_pos_as_xyz
1 x,y,z
_cell_length_a                   8.7022(3)
_cell_length_b                   8.9520(3)
_cell_length_c                   12.6698(6)
_cell_angle_alpha                106.807(4)
_cell_angle_beta                 90.983(3)
_cell_angle_gamma                110.054(2)
_cell_volume                     880.102
loop_
_atom_site_label
_atom_site_type_symbol
_atom_site_fract_x
_atom_site_fract_y
_atom_site_fract_z
Cu7 Cu 0.01194(5) 0.04353(5) 0.33241(3)
Cu11 Cu 0.66065(5) 0.05522(5) 0.34359(3)
Cu1 Cu 0.0000 0.0000 0.0000
O2 O 0.0370(3) 0.2636(3) 0.3207(2)
O3 O 0.0167(3) 0.2312(3) 0.0741(2)
O4 O 0.2897(3) 0.3607(4) 0.1086(3)
O5 O 0.3742(3) 0.8247(4) 0.2088(2)
O6 O 0.5021(3) 0.8554(3) 0.3695(2)
O8 O 0.0189(3) 0.8247(3) 0.33327(19)
O9 O 0.1642(3) 0.8975(3) 0.49817(18)
C3 C 0.1236(4) 0.5067(4) 0.1983(3)
H2 H 0.1090 0.5763 0.1548
C4 C 0.1465(4) 0.3550(4) 0.1222(3)
C5 C 0.2574(4) 0.6162(4) 0.2980(3)
H3 H 0.3135 0.5484 0.3182
C6 C 0.3839(4) 0.7757(4) 0.2890(3)
C7 C 0.1166(4) 0.6264(4) 0.3736(2)
H4 H 0.1275 0.5907 0.4386
C8 C 0.0968(4) 0.7943(4) 0.4044(3)
O11 O 0.2168(3) 0.1606(3) 0.4367(2)
H8 H 0.244(4) 0.090(4) 0.200(4)
H9 H 0.198(7) 0.097(6) 0.486(4)
H10 H 0.249(6) 0.271(3) 0.485(3)
Cu13 Cu 0.33935(5) 0.94478(5) 0.65641(3)
Cu1_2 Cu 0.0000 -0.0000 1.0000
O13 O 0.2196(3) 0.0686(3) 0.9510(2)
H5 H 0.210(6) 0.067(7) 0.8764(16)
H6 H 0.278(5) 0.182(2) 0.991(3)
O20 O 0.2115(3) 0.0636(3) 0.74070(18)
H26 H 0.258(5) 0.1638(17) 0.752(4)
O28 O 0.6258(3) 0.1753(4) 0.7912(2)
O30 O 0.4979(3) 0.1446(3) 0.6305(2)
Cu1_3 Cu -0.0000 1.0000 0.0000
O12 O 0.1451(4) 0.9968(4) 0.1712(2)
H7 H 0.129(12) 0.881(3) 0.148(8)
Cu1_4 Cu 0.0000 1.0000 1.0000
O14 O 0.2225(3) 0.7489(3) 0.6997(2)
C9 C 0.0113(4) 0.5159(4) 0.7234(3)
H14 H 0.1024 0.4850 0.7441
C10 C 0.0697(4) 0.6806(4) 0.7001(3)
O23 O 0.4513(3) 0.8033(2) 0.5655(4)
H24 H 0.4637 0.8385 0.4980
H25 H 0.5488 0.7940 0.5870
Cu1_5 Cu 1.0000 0.0000 0.0000
O1 O 0.7775(3) 0.2511(3) 0.3003(2)
C1 C 0.9887(4) 0.4841(4) 0.2766(3)
H1 H 0.8976 0.5150 0.2559
C2 C 0.9303(4) 0.3194(4) 0.2999(3)
O10 O 0.5487(3) 0.1967(2) 0.4345(4)
H11 H 0.5363 0.1615 0.5020
H12 H 0.4512 0.2060 0.4130
Cu9 Cu 0.98806(5) 0.95647(5) 0.66759(3)
O34 O 0.8358(3) 0.1025(3) 0.50183(18)
Cu1_6 Cu 1.0000 -0.0000 1.0000
O25 O 0.8549(4) 0.0032(4) 0.8288(2)
H20 H 0.871(12) 0.119(3) 0.852(8)
O32 O 0.9811(3) 0.1753(3) 0.66673(19)
Cu1_7 Cu 1.0000 1.0000 0.0000
O7 O 0.7885(3) 0.9364(3) 0.25930(18)
H13 H 0.742(5) 0.8362(17) 0.248(4)
O26 O 0.7804(3) 0.9314(3) 0.0490(2)
H18 H 0.790(6) 0.933(7) 0.1236(16)
H19 H 0.722(5) 0.818(2) 0.009(3)
Cu1_8 Cu 1.0000 1.0000 1.0000
O15 O 0.9630(3) 0.7364(3) 0.6793(2)
O16 O 0.9833(3) 0.7688(3) 0.9259(2)
O17 O 0.7103(3) 0.6393(4) 0.8914(3)
C11 C 0.8764(4) 0.4933(4) 0.8017(3)
H15 H 0.8910 0.4237 0.8452
C12 C 0.8535(4) 0.6450(4) 0.8778(3)
C13 C 0.7426(4) 0.3838(4) 0.7020(3)
H16 H 0.6865 0.4516 0.6818
C14 C 0.6161(4) 0.2243(4) 0.7110(3)
C15 C 0.8834(4) 0.3736(4) 0.6264(2)
H17 H 0.8725 0.4093 0.5614
C16 C 0.9032(4) 0.2057(4) 0.5956(3)
O24 O 0.7832(3) 0.8394(3) 0.5633(2)
H21 H 0.756(4) 0.910(4) 0.800(4)
H22 H 0.802(7) 0.903(6) 0.514(4)
H23 H 0.751(6) 0.729(3) 0.515(3)
loop_
_geom_bond_atom_site_label_1
_geom_bond_atom_site_label_2
_geom_bond_site_symmetry_1
_geom_bond_site_symmetry_2
Cu1 O3 1_555 1_555
Cu7 O2 1_555 1_555
O3 C4 1_555 1_555
O4 C4 1_555 1_555
O5 C6 1_555 1_555
O6 C6 1_555 1_555
O8 C8 1_555 1_555
O9 C8 1_555 1_555
H2 C3 1_555 1_555
C4 C3 1_555 1_555
C5 C3 1_555 1_555
H3 C5 1_555 1_555
C6 C5 1_555 1_555
H4 C7 1_555 1_555
C8 C7 1_555 1_555
O11 Cu7 1_555 1_555
H9 O11 1_555 1_555
H10 O11 1_555 1_555
Cu13 O9 1_555 1_555
C5 C7 1_555 1_555
O13 Cu1_2 1_555 1_555
H5 O13 1_555 1_555
H6 O13 1_555 1_555
H26 O20 1_555 1_555
O12 Cu1_3 1_555 1_555
H7 O12 1_555 1_555
Cu13 O14 1_555 1_555
O14 C10 1_555 1_555
C9 H14 1_555 1_555
C10 C9 1_555 1_555
O23 Cu13 1_555 1_555
H24 O23 1_555 1_555
H25 O23 1_555 1_555
Cu11 O1 1_555 1_555
O1 C2 1_555 1_555
C1 H1 1_555 1_555
C2 C1 1_555 1_555
O10 Cu11 1_555 1_555
H11 O10 1_555 1_555
H12 O10 1_555 1_555
Cu11 O34 1_555 1_555
O25 Cu1_6 1_555 1_555
H20 O25 1_555 1_555
H13 O7 1_555 1_555
O26 Cu1_7 1_555 1_555
H18 O26 1_555 1_555
H19 O26 1_555 1_555
Cu9 O15 1_555 1_555
O16 Cu1_8 1_555 1_555
O17 C12 1_555 1_555
O28 C14 1_555 1_555
O30 C14 1_555 1_555
O32 C16 1_555 1_555
O34 C16 1_555 1_555
H15 C11 1_555 1_555
C12 O16 1_555 1_555
C13 C11 1_555 1_555
H16 C13 1_555 1_555
C14 C13 1_555 1_555
H17 C15 1_555 1_555
C16 C15 1_555 1_555
O24 Cu9 1_555 1_555
H22 O24 1_555 1_555
H23 O24 1_555 1_555
C11 C12 1_555 1_555
C13 C15 1_555 1_555

#END
