
###############################################################################
#
# This file contains modified crystal structure data generated from the
# MOF subset of the Cambridge Structural Database (CSD) v543 
# hosted by the Cambridge Crystallographic Data Centre (CCDC).
#
# This work is licensed under the Creative Commons
# Attribution-NonCommercial-ShareAlike 4.0 International License.
# To view a copy of this license, visit
# http://creativecommons.org/licenses/by-nc-sa/4.0/
# or send a letter to
# Creative Commons, PO Box 1866, Mountain View, CA 94042, USA.
#
# CIF created using the CSD Python API on 29 September 2022
# The structure has been converted into the P1 space group
# The structure has a 3D framework
# The original CSD entry VUNNEZ is in the tetragonal crystal system
# The framework has been calculated to contain at least 10.0% void space
# The void calculation uses a probe of radius 1.32A, grid spacing 0.4
#
###############################################################################

data_VUNNEZ
_chemical_formula_moiety         '(C32 H48 Cu17 O46)n'
_symmetry_cell_setting           triclinic
_symmetry_space_group_name_H-M   'P 1'
_symmetry_Int_Tables_number      1
_space_group_name_Hall           'P 1'
loop_
_symmetry_equiv_pos_site_id
_symmetry_equiv_pos_as_xyz
1 x,y,z
_cell_length_a                   18.6107(5)
_cell_length_b                   18.6107(5)
_cell_length_c                   4.8022(3)
_cell_angle_alpha                90
_cell_angle_beta                 90
_cell_angle_gamma                90
_cell_volume                     1663.28
loop_
_atom_site_label
_atom_site_type_symbol
_atom_site_fract_x
_atom_site_fract_y
_atom_site_fract_z
Cu2 Cu 0.0000 0.0000 0.0000
O12 O 0.08304(9) 0.03294(8) 0.2124(3)
H11 H 0.084(2) 0.077(2) 0.249(7)
H12 H 0.0963(17) 0.0114(19) 0.333(8)
Cu1 Cu 0.0000 0.5000 0.0000
O2 O 0.01337(8) 0.57973(7) 0.2436(3)
C5 C 0.05585(9) 0.73349(9) 0.3510(4)
H5 H 0.0708 0.7291 0.1560
C6 C 0.11855(10) 0.71973(10) 0.5426(4)
O6 O 0.11809(7) 0.67162(7) 0.7233(3)
O7 O 0.17027(7) 0.76337(8) 0.5064(3)
C7 C 0.01651(9) 0.80585(9) 0.3990(4)
H6 H 0.0209 0.8208 0.5940
C8 C 0.03027(10) 0.86855(10) 0.2074(4)
O8 O 0.07838(7) 0.86809(7) 0.0267(3)
Cu2_2 Cu 0.0000 1.0000 0.0000
Cu3 Cu 0.2500 0.7500 0.7500
Cu2_3 Cu 1.0000 0.0000 0.0000
Cu1_2 Cu 1.0000 0.5000 0.0000
C1 C 0.98349(9) 0.69415(9) 0.3990(4)
H1 H 0.9791 0.6792 0.5940
C2 C 0.96973(10) 0.63145(10) 0.2074(4)
O1 O 0.92162(7) 0.63191(7) 0.0267(3)
C3 C 0.94415(9) 0.76651(9) 0.3510(4)
H4 H 0.9292 0.7709 0.1560
C4 C 0.88145(10) 0.78027(10) 0.5426(4)
O4 O 0.88191(7) 0.82838(7) 0.7233(3)
O5 O 0.82973(7) 0.73663(8) 0.5064(3)
O9 O 0.98663(8) 0.92027(7) 0.2436(3)
Cu2_4 Cu 1.0000 1.0000 0.0000
O11 O 0.91696(9) 0.46706(8) 0.2124(3)
H9 H 0.916(2) 0.423(2) 0.249(7)
H10 H 0.9037(17) 0.4886(19) 0.333(8)
Cu4 Cu 0.7500 0.7500 0.7500
C2_2 C 0.38145(10) 0.78027(10) 0.9574(4)
O1_2 O 0.38191(7) 0.82838(7) 0.7767(3)
O2_2 O 0.32973(7) 0.73663(8) 0.9936(3)
O3 O 0.28294(8) 0.66696(9) 0.5376(3)
H2 H 0.327(2) 0.666(2) 0.501(7)
H3 H 0.2614(19) 0.6537(17) 0.417(8)
H4_2 H 0.5209 0.8208 0.9060
H5_2 H 0.4791 0.6792 0.9060
C8_2 C 0.61855(10) 0.71973(10) 0.9574(4)
O8_2 O 0.61809(7) 0.67162(7) 0.7767(3)
O9_2 O 0.67027(7) 0.76337(8) 0.9936(3)
O10 O 0.71706(8) 0.83304(9) 0.5376(3)
H7 H 0.673(2) 0.834(2) 0.501(7)
H8 H 0.7386(19) 0.8463(17) 0.417(8)
O11_2 O 0.21706(8) 0.83304(9) 0.9624(3)
H9_2 H 0.173(2) 0.834(2) 0.999(7)
O12_2 O 0.78294(8) 0.66696(9) 0.9624(3)
H11_2 H 0.827(2) 0.666(2) 0.999(7)
Cu2_5 Cu 0.0000 0.0000 1.0000
O14 O 0.01337(8) 0.07973(7) 0.7564(3)
Cu1_3 Cu 0.0000 0.5000 1.0000
O3_2 O 0.08304(9) 0.53294(8) 0.7876(3)
H2_2 H 0.084(2) 0.577(2) 0.751(7)
H3_2 H 0.0963(17) 0.5114(19) 0.667(8)
Cu2_6 Cu -0.0000 1.0000 1.0000
Cu2_7 Cu 1.0000 0.0000 1.0000
Cu1_4 Cu 1.0000 0.5000 1.0000
Cu2_8 Cu 1.0000 1.0000 1.0000
O10_2 O 0.91696(9) 0.96706(8) 0.7876(3)
H7_2 H 0.916(2) 0.923(2) 0.751(7)
H8_2 H 0.9037(17) 0.9886(19) 0.667(8)
O13 O 0.98663(8) 0.42027(7) 0.7564(3)
Cu1_5 Cu 0.2500 0.2500 0.2500
C1_2 C 0.05585(9) 0.23349(9) 0.6490(4)
H1_2 H 0.0708 0.2291 0.8440
C2_3 C 0.11855(10) 0.21973(10) 0.4574(4)
O1_3 O 0.11809(7) 0.17162(7) 0.2767(3)
O2_3 O 0.17027(7) 0.26337(8) 0.4936(3)
O3_3 O 0.21706(8) 0.33304(9) 0.0376(3)
H2_3 H 0.173(2) 0.334(2) 0.001(7)
C5_2 C 0.01651(9) 0.30585(9) 0.6010(4)
H5_3 H 0.0209 0.3208 0.4060
C6_2 C 0.03027(10) 0.36855(10) 0.7926(4)
O6_2 O 0.07838(7) 0.36809(7) 0.9733(3)
O11_3 O 0.28294(8) 0.16696(9) 0.4624(3)
H9_3 H 0.327(2) 0.166(2) 0.499(7)
H10_2 H 0.2614(19) 0.1537(17) 0.583(8)
O13_2 O 0.32973(7) 0.23663(8) 0.0064(3)
C3_2 C 0.98349(9) 0.19415(9) 0.6010(4)
H4_3 H 0.9791 0.1792 0.4060
C4_2 C 0.96973(10) 0.13145(10) 0.7926(4)
O4_2 O 0.92162(7) 0.13191(7) 0.9733(3)
C7_2 C 0.94415(9) 0.26651(9) 0.6490(4)
H6_2 H 0.9292 0.2709 0.8440
C8_3 C 0.88145(10) 0.28027(10) 0.4574(4)
O8_3 O 0.88191(7) 0.32838(7) 0.2767(3)
O9_3 O 0.82973(7) 0.23663(8) 0.4936(3)
Cu2_9 Cu 0.7500 0.2500 0.2500
O10_3 O 0.78294(8) 0.16696(9) 0.0376(3)
H7_3 H 0.827(2) 0.166(2) 0.001(7)
O12_3 O 0.71706(8) 0.33304(9) 0.4624(3)
H11_3 H 0.673(2) 0.334(2) 0.499(7)
H12_2 H 0.7386(19) 0.3463(17) 0.583(8)
O14_2 O 0.67027(7) 0.26337(8) 0.0064(3)
H1_3 H 0.5209 0.3208 0.0940
C4_3 C 0.61855(10) 0.21973(10) 0.0426(4)
O4_3 O 0.61809(7) 0.17162(7) 0.2233(3)
C6_3 C 0.38145(10) 0.28027(10) 0.0426(4)
O6_3 O 0.38191(7) 0.32838(7) 0.2233(3)
H6_3 H 0.4791 0.1792 0.0940
H3_3 H 0.2386(19) 0.3463(17) 0.917(8)
H8_3 H 0.7614(19) 0.1537(17) 0.917(8)
Cu1_6 Cu 0.5000 0.5000 0.5000
C1_3 C 0.51651(9) 0.30585(9) 0.8990(4)
C2_4 C 0.53027(10) 0.36855(10) 0.7074(4)
O1_4 O 0.57838(7) 0.36809(7) 0.5267(3)
O2_4 O 0.48663(8) 0.42027(7) 0.7436(3)
O3_4 O 0.41696(9) 0.46706(8) 0.2876(3)
H2_4 H 0.416(2) 0.423(2) 0.251(7)
H3_4 H 0.4037(17) 0.4886(19) 0.167(8)
C3_3 C 0.55585(9) 0.23349(9) 0.8510(4)
H4_4 H 0.5708 0.2291 0.6560
C5_3 C 0.44415(9) 0.26651(9) 0.8510(4)
H5_4 H 0.4292 0.2709 0.6560
C7_3 C 0.48349(9) 0.19415(9) 0.8990(4)
C8_4 C 0.46973(10) 0.13145(10) 0.7074(4)
O8_4 O 0.42162(7) 0.13191(7) 0.5267(3)
O9_4 O 0.51337(8) 0.07973(7) 0.7436(3)
Cu2_10 Cu 0.5000 0.0000 0.5000
O10_4 O 0.58304(9) 0.03294(8) 0.2876(3)
H7_4 H 0.584(2) 0.077(2) 0.251(7)
H8_4 H 0.5963(17) 0.0114(19) 0.167(8)
O11_4 O 0.58304(9) 0.53294(8) 0.7124(3)
H9_4 H 0.584(2) 0.577(2) 0.749(7)
H10_3 H 0.5963(17) 0.5114(19) 0.833(8)
O13_3 O 0.51337(8) 0.57973(7) 0.2564(3)
Cu2_11 Cu 0.5000 1.0000 0.5000
O12_4 O 0.41696(9) 0.96706(8) 0.7124(3)
H11_4 H 0.416(2) 0.923(2) 0.749(7)
H12_3 H 0.4037(17) 0.9886(19) 0.833(8)
O14_3 O 0.48663(8) 0.92027(7) 0.2564(3)
C1_4 C 0.44415(9) 0.76651(9) 0.1490(4)
H1_4 H 0.4292 0.7709 0.3440
C3_4 C 0.51651(9) 0.80585(9) 0.1010(4)
C4_4 C 0.53027(10) 0.86855(10) 0.2926(4)
O4_4 O 0.57838(7) 0.86809(7) 0.4733(3)
C5_4 C 0.48349(9) 0.69415(9) 0.1010(4)
C6_4 C 0.46973(10) 0.63145(10) 0.2926(4)
O6_4 O 0.42162(7) 0.63191(7) 0.4733(3)
C7_4 C 0.55585(9) 0.73349(9) 0.1490(4)
H6_4 H 0.5708 0.7291 0.3440
H10_4 H 0.2386(19) 0.8463(17) 0.083(8)
H12_4 H 0.7614(19) 0.6537(17) 0.083(8)
loop_
_geom_bond_atom_site_label_1
_geom_bond_atom_site_label_2
_geom_bond_site_symmetry_1
_geom_bond_site_symmetry_2
O12 Cu2 1_555 1_555
H11 O12 1_555 1_555
H12 O12 1_555 1_555
Cu1 O2 1_555 1_555
H5 C5 1_555 1_555
C6 C5 1_555 1_555
O6 C6 1_555 1_555
O7 C6 1_555 1_555
H6 C7 1_555 1_555
C8 C7 1_555 1_555
O8 C8 1_555 1_555
Cu3 O7 1_555 1_555
C5 C7 1_555 1_555
C1 H1 1_555 1_555
C2 C1 1_555 1_555
O1 C2 1_555 1_555
C3 C1 1_555 1_555
H4 C3 1_555 1_555
C4 C3 1_555 1_555
O4 C4 1_555 1_555
O5 C4 1_555 1_555
Cu2_4 O9 1_555 1_555
O11 Cu1_2 1_555 1_555
H9 O11 1_555 1_555
H10 O11 1_555 1_555
Cu4 O5 1_555 1_555
Cu3 O2_2 1_555 1_555
O1_2 C2_2 1_555 1_555
O2_2 C2_2 1_555 1_555
O3 Cu3 1_555 1_555
H2 O3 1_555 1_555
H3 O3 1_555 1_555
O8_2 C8_2 1_555 1_555
O9_2 C8_2 1_555 1_555
Cu4 O9_2 1_555 1_555
O10 Cu4 1_555 1_555
H7 O10 1_555 1_555
H8 O10 1_555 1_555
O11_2 Cu3 1_555 1_555
H9_2 O11_2 1_555 1_555
O12_2 Cu4 1_555 1_555
H11_2 O12_2 1_555 1_555
O14 Cu2_5 1_555 1_555
O3_2 Cu1_3 1_555 1_555
H2_2 O3_2 1_555 1_555
H3_2 O3_2 1_555 1_555
O10_2 Cu2_8 1_555 1_555
H7_2 O10_2 1_555 1_555
H8_2 O10_2 1_555 1_555
O13 Cu1_4 1_555 1_555
Cu1_5 O2_3 1_555 1_555
C1_2 H1_2 1_555 1_555
C2_3 C1_2 1_555 1_555
O1_3 C2_3 1_555 1_555
O2_3 C2_3 1_555 1_555
O3_3 Cu1_5 1_555 1_555
H2_3 O3_3 1_555 1_555
C5_2 C1_2 1_555 1_555
H5_3 C5_2 1_555 1_555
C6_2 C5_2 1_555 1_555
O6_2 C6_2 1_555 1_555
O11_3 Cu1_5 1_555 1_555
H9_3 O11_3 1_555 1_555
H10_2 O11_3 1_555 1_555
O13_2 Cu1_5 1_555 1_555
H4_3 C3_2 1_555 1_555
C4_2 C3_2 1_555 1_555
O4_2 C4_2 1_555 1_555
C7_2 C3_2 1_555 1_555
H6_2 C7_2 1_555 1_555
C8_3 C7_2 1_555 1_555
O8_3 C8_3 1_555 1_555
O9_3 C8_3 1_555 1_555
Cu2_9 O9_3 1_555 1_555
O10_3 Cu2_9 1_555 1_555
H7_3 O10_3 1_555 1_555
O12_3 Cu2_9 1_555 1_555
H11_3 O12_3 1_555 1_555
H12_2 O12_3 1_555 1_555
O14_2 Cu2_9 1_555 1_555
O4_3 C4_3 1_555 1_555
O14_2 C4_3 1_555 1_555
O6_3 C6_3 1_555 1_555
O13_2 C6_3 1_555 1_555
Cu1_6 O2_4 1_555 1_555
C2_4 C1_3 1_555 1_555
O1_4 C2_4 1_555 1_555
O2_4 C2_4 1_555 1_555
O3_4 Cu1_6 1_555 1_555
H2_4 O3_4 1_555 1_555
H3_4 O3_4 1_555 1_555
C3_3 C1_3 1_555 1_555
H4_4 C3_3 1_555 1_555
C5_3 C1_3 1_555 1_555
H5_4 C5_3 1_555 1_555
C7_3 C3_3 1_555 1_555
C8_4 C7_3 1_555 1_555
O8_4 C8_4 1_555 1_555
O9_4 C8_4 1_555 1_555
Cu2_10 O9_4 1_555 1_555
O10_4 Cu2_10 1_555 1_555
H7_4 O10_4 1_555 1_555
H8_4 O10_4 1_555 1_555
O11_4 Cu1_6 1_555 1_555
H9_4 O11_4 1_555 1_555
H10_3 O11_4 1_555 1_555
O13_3 Cu1_6 1_555 1_555
C5_3 C7_3 1_555 1_555
O12_4 Cu2_11 1_555 1_555
H11_4 O12_4 1_555 1_555
H12_3 O12_4 1_555 1_555
O14_3 Cu2_11 1_555 1_555
C1_4 H1_4 1_555 1_555
C3_4 C1_4 1_555 1_555
C4_4 C3_4 1_555 1_555
O4_4 C4_4 1_555 1_555
O14_3 C4_4 1_555 1_555
C5_4 C1_4 1_555 1_555
C6_4 C5_4 1_555 1_555
O6_4 C6_4 1_555 1_555
O13_3 C6_4 1_555 1_555
C7_4 C3_4 1_555 1_555
H6_4 C7_4 1_555 1_555
C5_4 C7_4 1_555 1_555

#END
