
###############################################################################
#
# This file contains modified crystal structure data generated from the
# MOF subset of the Cambridge Structural Database (CSD) v543 
# hosted by the Cambridge Crystallographic Data Centre (CCDC).
#
# This work is licensed under the Creative Commons
# Attribution-NonCommercial-ShareAlike 4.0 International License.
# To view a copy of this license, visit
# http://creativecommons.org/licenses/by-nc-sa/4.0/
# or send a letter to
# Creative Commons, PO Box 1866, Mountain View, CA 94042, USA.
#
# CIF created using the CSD Python API on 29 September 2022
# The structure has been converted into the P1 space group
# The structure has a 3D framework
# The original CSD entry VUNPOL is in the monoclinic crystal system
# The framework has been calculated to contain at least 10.0% void space
# The void calculation uses a probe of radius 1.32A, grid spacing 0.4
#
###############################################################################

data_VUNPOL
_chemical_formula_moiety         '(C132 H72 N8 O30 Zn7)n'
_symmetry_cell_setting           triclinic
_symmetry_space_group_name_H-M   'P 1'
_symmetry_Int_Tables_number      1
_space_group_name_Hall           'P 1'
loop_
_symmetry_equiv_pos_site_id
_symmetry_equiv_pos_as_xyz
1 x,y,z
_cell_length_a                   11.167(5)
_cell_length_b                   14.806(5)
_cell_length_c                   19.494(5)
_cell_angle_alpha                90
_cell_angle_beta                 101.838(5)
_cell_angle_gamma                90
_cell_volume                     3154.56
loop_
_atom_site_label
_atom_site_type_symbol
_atom_site_fract_x
_atom_site_fract_y
_atom_site_fract_z
Zn5 Zn 0.0000 -0.0000 0.5000
H9 H 0.0373 0.2459 0.5456
C18 C 0.0375(3) 0.38069(18) 0.53126(16)
H10 H 0.1071 0.3917 0.5655
O11 O 0.10412(17) 0.88135(11) 0.50388(10)
O12 O 0.23620(16) 0.83331(11) 0.59762(10)
C46 C 0.1502(2) 0.82089(14) 0.54514(13)
C47 C 0.1060(2) 0.72564(15) 0.53188(14)
C48 C 0.0040(3) 0.70720(17) 0.48088(16)
C50 C 0.0226(2) 0.54720(15) 0.50663(15)
C51 C 0.1237(3) 0.56692(18) 0.55823(19)
H27 H 0.1657 0.5201 0.5845
C52 C 0.1641(3) 0.65513(18) 0.57174(19)
H28 H 0.2307 0.6668 0.6079
Zn5_2 Zn 0.0000 1.0000 0.5000
Zn9 Zn 0.28641(2) 0.957188(15) 0.617007(12)
O17 O 0.15414(15) 0.08210(11) 0.51166(9)
O20 O 0.00510(17) 0.99934(12) 0.60683(9)
Zn7 Zn 0.5000 0.5000 0.0000
O9 O 0.6587(2) 0.08994(17) 0.88971(12)
H19 H 0.5574 0.0081 0.6356
H20 H 0.7302 0.0165 0.7230
C42 C 0.8508(2) 0.05322(19) 0.96207(14)
C43 C 0.7471(3) 0.0420(2) 0.90115(15)
O13 O 0.34283(16) 0.02991(13) 0.54746(9)
C53 C 0.2641(2) 0.07784(15) 0.50771(11)
C54 C 0.3084(2) 0.13609(16) 0.45530(12)
C55 C 0.4320(2) 0.15638(17) 0.46260(13)
H29 H 0.4888 0.1314 0.4993
O15 O 0.68866(16) 0.48616(13) 0.17722(9)
C56 C 0.4705(2) 0.21346(17) 0.41546(13)
H30 H 0.5531 0.2277 0.4214
O16 O 0.50510(17) 0.50066(12) 0.10683(9)
C57 C 0.3876(2) 0.25002(16) 0.35905(12)
C58 C 0.2651(2) 0.22639(19) 0.35049(13)
H31 H 0.2090 0.2476 0.3119
C59 C 0.2257(2) 0.17128(19) 0.39919(13)
H32 H 0.1429 0.1580 0.3939
C60 C 0.4299(2) 0.31173(16) 0.30861(12)
C61 C 0.3770(2) 0.30994(19) 0.23723(13)
H33 H 0.3117 0.2713 0.2209
C62 C 0.4209(2) 0.36516(19) 0.19037(12)
H34 H 0.3834 0.3643 0.1431
C63 C 0.5200(2) 0.42160(16) 0.21342(11)
C64 C 0.5702(2) 0.42650(19) 0.28451(12)
H35 H 0.6345 0.4660 0.3009
C65 C 0.5244(2) 0.37250(19) 0.33109(12)
H36 H 0.5579 0.3770 0.3787
C66 C 0.5738(2) 0.47391(16) 0.16092(11)
Zn8 Zn 0.78641(2) 0.542812(15) 0.117007(12)
O18 O 0.18866(16) 0.01384(13) 0.67722(9)
N3 N 0.44797(18) 0.95158(14) 0.69054(10)
N4 N 0.7570(2) 0.96984(18) 0.85601(12)
O10 O 0.8509(2) 0.8474(2) 0.82163(13)
C34 C 0.5542(3) 0.9865(2) 0.67998(14)
C35 C 0.6586(3) 0.9916(2) 0.73202(16)
C36 C 0.6540(2) 0.9592(2) 0.79733(14)
C37 C 0.5493(3) 0.9203(3) 0.80784(16)
H21 H 0.5457 0.8953 0.8511
C38 C 0.4481(3) 0.9182(3) 0.75364(15)
H22 H 0.3765 0.8921 0.7618
C39 C 0.8528(3) 0.9082(2) 0.86319(15)
C40 C 0.9558(2) 0.9220(2) 0.92450(13)
C41 C 0.9500(2) 0.99380(18) 0.97107(13)
C54_2 C 0.1916(2) 0.63609(16) 0.04470(12)
C55_2 C 0.0680(2) 0.65638(17) 0.03740(13)
H29_2 H 0.0112 0.6314 0.0007
C56_2 C 0.0295(2) 0.71346(17) 0.08454(13)
C57_2 C 0.1124(2) 0.75002(16) 0.14095(12)
C58_2 C 0.2349(2) 0.72639(19) 0.14951(13)
H31_2 H 0.2910 0.7476 0.1881
C59_2 C 0.2743(2) 0.67128(19) 0.10081(13)
H32_2 H 0.3571 0.6580 0.1061
C60_2 C 0.0701(2) 0.81173(16) 0.19139(12)
C61_2 C 0.1230(2) 0.80994(19) 0.26277(13)
H33_2 H 0.1883 0.7713 0.2791
C62_2 C 0.0791(2) 0.86516(19) 0.30963(12)
H34_2 H 0.1166 0.8643 0.3569
H2 H 0.0531 0.2723 0.9214
C11 C 0.0200(2) 0.07840(16) 0.71342(11)
C12 C 0.0702(2) 0.07350(19) 0.78451(12)
H7 H 0.1345 0.0340 0.8009
C13 C 0.0244(2) 0.12750(19) 0.83109(12)
H8 H 0.0579 0.1230 0.8787
C14 C 0.0738(2) 0.02609(16) 0.66092(11)
C48_2 C 0.4960(3) 0.20720(17) 0.01912(16)
H25 H 0.5373 0.2541 0.0456
C49 C 0.5375(3) 0.11931(18) 0.03126(16)
H26 H 0.6071 0.1083 0.0655
O1 O 0.84283(16) 0.47009(13) 0.04746(9)
N1 N 0.94797(18) 0.54842(14) 0.19054(10)
C1 C 0.7641(2) 0.42216(15) 0.00771(11)
O2 O 0.65414(15) 0.41790(11) 0.01166(9)
O5 O 0.60412(17) 0.61865(11) 0.00388(10)
O6 O 0.73620(16) 0.66669(11) 0.09762(10)
C15 C 0.6502(2) 0.67911(14) 0.04514(13)
C16 C 0.6060(2) 0.77436(15) 0.03188(14)
C19 C 0.5226(2) 0.95280(15) 0.00663(15)
C20 C 0.6237(3) 0.93308(18) 0.05823(19)
H11 H 0.6657 0.9799 0.0845
C21 C 0.6641(3) 0.84487(18) 0.07174(19)
H12 H 0.7307 0.8332 0.1079
C26 C 0.9481(3) 0.5818(3) 0.25364(15)
H16 H 0.8765 0.6079 0.2618
Zn5_3 Zn 1.0000 -0.0000 0.5000
N1_2 N 0.55203(18) 0.04842(14) 0.30946(10)
Zn2 Zn 0.71359(2) 0.042812(15) 0.382993(12)
N2 N 0.2430(2) 0.03016(18) 0.14399(12)
O5_2 O 0.89588(17) 0.11865(11) 0.49612(10)
O6_2 O 0.76380(16) 0.16669(11) 0.40238(10)
O8 O 0.1491(2) 0.1526(2) 0.17837(13)
C15_2 C 0.8498(2) 0.17911(14) 0.45486(13)
C16_2 C 0.8940(2) 0.27436(15) 0.46812(14)
C17 C 0.9960(3) 0.29280(17) 0.51912(16)
C19_2 C 0.9774(2) 0.45280(15) 0.49337(15)
C20_2 C 0.8763(3) 0.43308(18) 0.44177(19)
H11_2 H 0.8343 0.4799 0.4155
C21_2 C 0.8359(3) 0.34487(18) 0.42826(19)
H12_2 H 0.7693 0.3332 0.3921
C22 C 0.4458(3) 0.0135(2) 0.32002(14)
C23 C 0.3414(3) 0.0084(2) 0.26798(16)
C24 C 0.3460(2) 0.0408(2) 0.20267(14)
C25 C 0.4507(3) 0.0797(3) 0.19216(16)
H15 H 0.4543 0.1047 0.1489
C26_2 C 0.5519(3) 0.0818(3) 0.24636(15)
H16_2 H 0.6235 0.1079 0.2382
C27 C 0.1472(3) 0.0918(2) 0.13681(15)
C28 C 0.0442(2) 0.0780(2) 0.07550(13)
C29 C 0.0500(2) 0.00620(18) 0.02893(13)
H25_2 H 0.9627 0.7541 0.4544
C49_2 C 0.9625(3) 0.61931(18) 0.46874(16)
H26_2 H 0.8929 0.6083 0.4345
Zn5_4 Zn 1.0000 1.0000 0.5000
O21 O 0.99490(17) 0.00066(12) 0.39317(9)
O1_2 O 0.65717(16) 0.97009(13) 0.45254(9)
C1_2 C 0.7359(2) 0.92216(15) 0.49229(11)
O2_2 O 0.84586(15) 0.91790(11) 0.48834(9)
C2 C 0.6916(2) 0.86391(16) 0.54470(12)
C3 C 0.5680(2) 0.84362(17) 0.53740(13)
H1 H 0.5112 0.8686 0.5007
O3 O 0.31134(16) 0.51384(13) 0.82278(9)
C4 C 0.5295(2) 0.78654(17) 0.58454(13)
H2_2 H 0.4469 0.7723 0.5786
O4 O 0.49490(17) 0.49934(12) 0.89317(9)
C5 C 0.6124(2) 0.74998(16) 0.64095(12)
C6 C 0.7349(2) 0.77361(19) 0.64951(13)
H3 H 0.7910 0.7524 0.6881
O7 O 0.3413(2) 0.91006(17) 0.11029(12)
C7 C 0.7743(2) 0.82872(19) 0.60081(13)
H4 H 0.8571 0.8420 0.6061
C8 C 0.5701(2) 0.68827(16) 0.69139(12)
C9 C 0.6230(2) 0.69006(19) 0.76277(13)
H5 H 0.6883 0.7287 0.7791
C10 C 0.5791(2) 0.63484(19) 0.80963(12)
H6 H 0.6166 0.6357 0.8569
C11_2 C 0.4800(2) 0.57840(16) 0.78658(11)
C12_2 C 0.4298(2) 0.57350(19) 0.71549(12)
H7_2 H 0.3655 0.5340 0.6991
C13_2 C 0.4756(2) 0.62750(19) 0.66891(12)
H8_2 H 0.4421 0.6230 0.6213
C14_2 C 0.4262(2) 0.52609(16) 0.83908(11)
H13 H 0.4426 0.9919 0.3644
H14 H 0.2698 0.9835 0.2770
C30 C 0.1492(2) 0.94678(19) 0.03793(14)
C31 C 0.2529(3) 0.9580(2) 0.09885(15)
Zn7_2 Zn 0.5000 0.5000 1.0000
Zn10 Zn 0.21359(2) 0.457188(15) 0.882993(12)
O19 O 0.81134(16) 0.98616(13) 0.32278(9)
N3_2 N 0.05203(18) 0.45158(14) 0.80946(10)
C38_2 C 0.0519(3) 0.4182(3) 0.74636(15)
H22_2 H 0.1235 0.3921 0.7382
O13_2 O 0.15717(16) 0.52991(13) 0.95254(9)
C53_2 C 0.2359(2) 0.57784(15) 0.99229(11)
O14 O 0.34586(15) 0.58210(11) 0.98834(9)
O23 O 0.26380(16) 0.33331(11) 0.90238(10)
H30_2 H 0.9469 0.7277 0.0786
C63_2 C 0.9800(2) 0.92160(16) 0.28658(11)
C64_2 C 0.9298(2) 0.92650(19) 0.21549(12)
H35_2 H 0.8655 0.9660 0.1991
C65_2 C 0.9756(2) 0.87250(19) 0.16891(12)
H36_2 H 0.9421 0.8770 0.1213
C66_2 C 0.9262(2) 0.97391(16) 0.33908(11)
O11_2 O 0.39588(17) 0.38135(11) 0.99612(10)
C46_2 C 0.3498(2) 0.32089(14) 0.95486(13)
C47_2 C 0.3940(2) 0.22564(15) 0.96812(14)
C50_2 C 0.4774(2) 0.04720(15) 0.99337(15)
C51_2 C 0.3763(3) 0.06692(18) 0.94177(19)
H27_2 H 0.3343 0.0201 0.9155
C52_2 C 0.3359(3) 0.15513(18) 0.92826(19)
H28_2 H 0.2693 0.1668 0.8921
C2_2 C 0.8084(2) 0.36391(16) 0.95530(12)
C3_2 C 0.9320(2) 0.34362(17) 0.96260(13)
H1_2 H 0.9888 0.3686 0.9993
C4_2 C 0.9705(2) 0.28654(17) 0.91546(13)
C5_2 C 0.8876(2) 0.24998(16) 0.85905(12)
C6_2 C 0.7651(2) 0.27361(19) 0.85049(13)
H3_2 H 0.7090 0.2524 0.8119
C7_2 C 0.7257(2) 0.32872(19) 0.89919(13)
H4_2 H 0.6429 0.3420 0.8939
C8_2 C 0.9299(2) 0.18827(16) 0.80861(12)
C9_2 C 0.8770(2) 0.19006(19) 0.73723(13)
H5_2 H 0.8117 0.2287 0.7209
C10_2 C 0.9209(2) 0.13484(19) 0.69037(12)
H6_2 H 0.8834 0.1357 0.6431
C17_2 C 0.5040(3) 0.79280(17) 0.98088(16)
H9_2 H 0.4627 0.7459 0.9544
C18_2 C 0.4625(3) 0.88069(18) 0.96874(16)
H10_2 H 0.3929 0.8917 0.9345
C33 C 0.1520(3) 0.8771(2) 0.99204(17)
H18 H 0.221(3) 0.841(2) 0.9986(15)
C44 C 0.0543(3) 0.8653(2) 0.93482(17)
H23 H 0.055(3) 0.821(3) 0.905(2)
C32 C 0.9457(3) 0.1347(2) 0.06518(17)
H17 H 0.945(3) 0.179(3) 0.095(2)
C45 C 0.8480(3) 0.1229(2) 0.00796(17)
H24 H 0.779(3) 0.159(2) 0.0014(15)
N2_2 N 0.2570(2) 0.53016(18) 0.35601(12)
O7_2 O 0.1587(2) 0.41006(17) 0.38971(12)
O8_2 O 0.3509(2) 0.6526(2) 0.32163(13)
C22_2 C 0.0542(3) 0.5135(2) 0.17998(14)
H13_2 H 0.0574 0.4919 0.1356
C23_2 C 0.1586(3) 0.5084(2) 0.23202(16)
H14_2 H 0.2302 0.4835 0.2230
C24_2 C 0.1540(2) 0.5408(2) 0.29733(14)
C25_2 C 0.0493(3) 0.5797(3) 0.30784(16)
H15_2 H 0.0457 0.6047 0.3511
C27_2 C 0.3528(3) 0.5918(2) 0.36319(15)
C28_2 C 0.4558(2) 0.5780(2) 0.42450(13)
C29_2 C 0.4500(2) 0.50620(18) 0.47107(13)
C30_2 C 0.3508(2) 0.44678(19) 0.46207(14)
C31_2 C 0.2471(3) 0.4580(2) 0.40115(15)
C32_2 C 0.5543(3) 0.6347(2) 0.43482(17)
H17_2 H 0.555(3) 0.679(3) 0.405(2)
C33_2 C 0.3480(3) 0.3771(2) 0.50796(17)
H18_2 H 0.279(3) 0.341(2) 0.5014(15)
N4_2 N 0.7430(2) 0.46984(18) 0.64399(12)
O9_2 O 0.8413(2) 0.58994(17) 0.61029(12)
O10_2 O 0.6491(2) 0.3474(2) 0.67837(13)
C34_2 C 0.9458(3) 0.4865(2) 0.82002(14)
H19_2 H 0.9426 0.5081 0.8644
C35_2 C 0.8414(3) 0.4916(2) 0.76798(16)
H20_2 H 0.7698 0.5165 0.7770
C36_2 C 0.8460(2) 0.4592(2) 0.70267(14)
C37_2 C 0.9507(3) 0.4203(3) 0.69216(16)
H21_2 H 0.9543 0.3953 0.6489
C39_2 C 0.6472(3) 0.4082(2) 0.63681(15)
C40_2 C 0.5442(2) 0.4220(2) 0.57550(13)
C41_2 C 0.5500(2) 0.49380(18) 0.52893(13)
C42_2 C 0.6492(2) 0.55322(19) 0.53793(14)
C43_2 C 0.7529(3) 0.5420(2) 0.59885(15)
C44_2 C 0.4457(3) 0.3653(2) 0.56518(17)
H23_2 H 0.445(3) 0.321(3) 0.595(2)
C45_2 C 0.6520(3) 0.6229(2) 0.49204(17)
H24_2 H 0.721(3) 0.659(2) 0.4986(15)
loop_
_geom_bond_atom_site_label_1
_geom_bond_atom_site_label_2
_geom_bond_site_symmetry_1
_geom_bond_site_symmetry_2
H10 C18 1_555 1_555
O11 C46 1_555 1_555
O12 C46 1_555 1_555
C46 C47 1_555 1_555
C47 C48 1_555 1_555
C51 C50 1_555 1_555
H27 C51 1_555 1_555
C52 C47 1_555 1_555
H28 C52 1_555 1_555
Zn5_2 O11 1_555 1_555
Zn9 O12 1_555 1_555
O17 Zn5 1_555 1_555
C51 C52 1_555 1_555
O20 Zn5_2 1_555 1_555
O9 C43 1_555 1_555
O13 C53 1_555 1_555
C53 O17 1_555 1_555
C54 C53 1_555 1_555
C55 C54 1_555 1_555
H29 C55 1_555 1_555
O15 C66 1_555 1_555
C56 C55 1_555 1_555
H30 C56 1_555 1_555
O16 C66 1_555 1_555
C57 C56 1_555 1_555
C58 C57 1_555 1_555
H31 C58 1_555 1_555
C59 C54 1_555 1_555
H32 C59 1_555 1_555
C60 C57 1_555 1_555
C61 C60 1_555 1_555
H33 C61 1_555 1_555
C62 C61 1_555 1_555
H34 C62 1_555 1_555
C63 C62 1_555 1_555
C64 C63 1_555 1_555
H35 C64 1_555 1_555
C65 C60 1_555 1_555
H36 C65 1_555 1_555
C66 C63 1_555 1_555
Zn7 O16 1_555 1_555
Zn8 O15 1_555 1_555
C42 C43 1_555 1_555
C58 C59 1_555 1_555
C64 C65 1_555 1_555
N3 C34 1_555 1_555
N4 C36 1_555 1_555
O10 C39 1_555 1_555
C35 C34 1_555 1_555
C36 C35 1_555 1_555
C37 C36 1_555 1_555
H21 C37 1_555 1_555
C38 N3 1_555 1_555
H22 C38 1_555 1_555
C39 N4 1_555 1_555
C40 C39 1_555 1_555
Zn9 N3 1_555 1_555
C37 C38 1_555 1_555
C40 C41 1_555 1_555
C55_2 C54_2 1_555 1_555
H29_2 C55_2 1_555 1_555
C56_2 C55_2 1_555 1_555
C57_2 C56_2 1_555 1_555
C58_2 C57_2 1_555 1_555
H31_2 C58_2 1_555 1_555
C59_2 C54_2 1_555 1_555
H32_2 C59_2 1_555 1_555
C60_2 C57_2 1_555 1_555
C61_2 C60_2 1_555 1_555
H33_2 C61_2 1_555 1_555
C62_2 C61_2 1_555 1_555
H34_2 C62_2 1_555 1_555
C58_2 C59_2 1_555 1_555
O18 C14 1_555 1_555
C12 C11 1_555 1_555
H7 C12 1_555 1_555
H8 C13 1_555 1_555
C14 C11 1_555 1_555
C12 C13 1_555 1_555
C48_2 H25 1_555 1_555
C49 C48_2 1_555 1_555
H26 C49 1_555 1_555
Zn7 O2 1_555 1_555
O1 C1 1_555 1_555
N1 Zn8 1_555 1_555
C1 O2 1_555 1_555
Zn8 O1 1_555 1_555
O5 Zn7 1_555 1_555
O6 Zn8 1_555 1_555
C15 O5 1_555 1_555
C16 C15 1_555 1_555
C20 C19 1_555 1_555
H11 C20 1_555 1_555
C21 C16 1_555 1_555
H12 C21 1_555 1_555
C26 N1 1_555 1_555
H16 C26 1_555 1_555
O6 C15 1_555 1_555
C20 C21 1_555 1_555
N1_2 Zn2 1_555 1_555
N2 C24 1_555 1_555
O5_2 Zn5_3 1_555 1_555
O6_2 Zn2 1_555 1_555
O8 C27 1_555 1_555
C15_2 O5_2 1_555 1_555
C16_2 C15_2 1_555 1_555
C17 C16_2 1_555 1_555
C20_2 C19_2 1_555 1_555
H11_2 C20_2 1_555 1_555
C21_2 C16_2 1_555 1_555
H12_2 C21_2 1_555 1_555
C22 N1_2 1_555 1_555
C23 C22 1_555 1_555
C24 C23 1_555 1_555
C25 C24 1_555 1_555
H15 C25 1_555 1_555
C26_2 N1_2 1_555 1_555
H16_2 C26_2 1_555 1_555
C27 N2 1_555 1_555
C28 C27 1_555 1_555
C29 C28 1_555 1_555
H26_2 C49_2 1_555 1_555
O21 Zn5_3 1_555 1_555
O6_2 C15_2 1_555 1_555
C20_2 C21_2 1_555 1_555
C25 C26_2 1_555 1_555
Zn5_4 O2_2 1_555 1_555
O1_2 C1_2 1_555 1_555
C1_2 O2_2 1_555 1_555
C2 C1_2 1_555 1_555
C3 C2 1_555 1_555
H1 C3 1_555 1_555
O3 C14_2 1_555 1_555
C4 C3 1_555 1_555
H2_2 C4 1_555 1_555
O4 C14_2 1_555 1_555
C5 C4 1_555 1_555
C6 C5 1_555 1_555
H3 C6 1_555 1_555
O7 C31 1_555 1_555
C7 C2 1_555 1_555
H4 C7 1_555 1_555
C8 C5 1_555 1_555
C9 C8 1_555 1_555
H5 C9 1_555 1_555
C10 C9 1_555 1_555
H6 C10 1_555 1_555
C11_2 C10 1_555 1_555
C12_2 C11_2 1_555 1_555
H7_2 C12_2 1_555 1_555
C13_2 C8 1_555 1_555
H8_2 C13_2 1_555 1_555
C14_2 C11_2 1_555 1_555
Zn7_2 O4 1_555 1_555
Zn10 O3 1_555 1_555
C6 C7 1_555 1_555
C12_2 C13_2 1_555 1_555
C30 C31 1_555 1_555
C38_2 N3_2 1_555 1_555
H22_2 C38_2 1_555 1_555
O13_2 C53_2 1_555 1_555
C53_2 O14 1_555 1_555
Zn10 N3_2 1_555 1_555
O14 Zn7_2 1_555 1_555
O23 Zn10 1_555 1_555
O13_2 Zn10 1_555 1_555
O19 C66_2 1_555 1_555
C64_2 C63_2 1_555 1_555
H35_2 C64_2 1_555 1_555
H36_2 C65_2 1_555 1_555
C66_2 C63_2 1_555 1_555
C64_2 C65_2 1_555 1_555
O11_2 C46_2 1_555 1_555
O23 C46_2 1_555 1_555
C46_2 C47_2 1_555 1_555
C51_2 C50_2 1_555 1_555
H27_2 C51_2 1_555 1_555
C52_2 C47_2 1_555 1_555
H28_2 C52_2 1_555 1_555
Zn7_2 O11_2 1_555 1_555
C51_2 C52_2 1_555 1_555
C3_2 C2_2 1_555 1_555
H1_2 C3_2 1_555 1_555
C4_2 C3_2 1_555 1_555
C5_2 C4_2 1_555 1_555
C6_2 C5_2 1_555 1_555
H3_2 C6_2 1_555 1_555
C7_2 C2_2 1_555 1_555
H4_2 C7_2 1_555 1_555
C8_2 C5_2 1_555 1_555
C9_2 C8_2 1_555 1_555
H5_2 C9_2 1_555 1_555
C10_2 C9_2 1_555 1_555
H6_2 C10_2 1_555 1_555
H9_2 C17_2 1_555 1_555
C18_2 C17_2 1_555 1_555
H10_2 C18_2 1_555 1_555
C6_2 C7_2 1_555 1_555
H18 C33 1_555 1_555
C44 C33 1_555 1_555
H23 C44 1_555 1_555
H17 C32 1_555 1_555
C45 C32 1_555 1_555
H24 C45 1_555 1_555
N2_2 C24_2 1_555 1_555
O7_2 C31_2 1_555 1_555
O8_2 C27_2 1_555 1_555
H13_2 C22_2 1_555 1_555
C23_2 C22_2 1_555 1_555
H14_2 C23_2 1_555 1_555
C24_2 C23_2 1_555 1_555
C25_2 C24_2 1_555 1_555
H15_2 C25_2 1_555 1_555
C27_2 N2_2 1_555 1_555
C28_2 C27_2 1_555 1_555
C29_2 C28_2 1_555 1_555
C30_2 C29_2 1_555 1_555
C31_2 N2_2 1_555 1_555
C32_2 C28_2 1_555 1_555
H17_2 C32_2 1_555 1_555
C33_2 C30_2 1_555 1_555
H18_2 C33_2 1_555 1_555
N4_2 C36_2 1_555 1_555
O9_2 C43_2 1_555 1_555
O10_2 C39_2 1_555 1_555
C34_2 H19_2 1_555 1_555
C35_2 C34_2 1_555 1_555
H20_2 C35_2 1_555 1_555
C36_2 C35_2 1_555 1_555
C37_2 C36_2 1_555 1_555
H21_2 C37_2 1_555 1_555
C39_2 N4_2 1_555 1_555
C40_2 C39_2 1_555 1_555
C41_2 C29_2 1_555 1_555
C42_2 C41_2 1_555 1_555
C43_2 N4_2 1_555 1_555
C44_2 C33_2 1_555 1_555
H23_2 C44_2 1_555 1_555
C45_2 C32_2 1_555 1_555
H24_2 C45_2 1_555 1_555
C30_2 C31_2 1_555 1_555
C40_2 C41_2 1_555 1_555
C40_2 C44_2 1_555 1_555
C42_2 C43_2 1_555 1_555
C42_2 C45_2 1_555 1_555

#END
