
###############################################################################
#
# This file contains modified crystal structure data generated from the
# MOF subset of the Cambridge Structural Database (CSD) v543 
# hosted by the Cambridge Crystallographic Data Centre (CCDC).
#
# This work is licensed under the Creative Commons
# Attribution-NonCommercial-ShareAlike 4.0 International License.
# To view a copy of this license, visit
# http://creativecommons.org/licenses/by-nc-sa/4.0/
# or send a letter to
# Creative Commons, PO Box 1866, Mountain View, CA 94042, USA.
#
# CIF created using the CSD Python API on 29 September 2022
# The structure has been converted into the P1 space group
# The structure has a 3D framework
# The original CSD entry VUNXUY is in the cubic crystal system
# The framework has been calculated to contain at least 10.0% void space
# The void calculation uses a probe of radius 1.32A, grid spacing 0.4
#
###############################################################################

data_VUNXUY
_chemical_formula_moiety         '(C192 H192 Cu48 O264)n'
_symmetry_cell_setting           triclinic
_symmetry_space_group_name_H-M   'P 1'
_symmetry_Int_Tables_number      1
_space_group_name_Hall           'P 1'
loop_
_symmetry_equiv_pos_site_id
_symmetry_equiv_pos_as_xyz
1 x,y,z
_cell_length_a                   20.276(2)
_cell_length_b                   20.276(2)
_cell_length_c                   20.276(2)
_cell_angle_alpha                90
_cell_angle_beta                 90
_cell_angle_gamma                90
_cell_volume                     8335.79
loop_
_atom_site_label
_atom_site_type_symbol
_atom_site_fract_x
_atom_site_fract_y
_atom_site_fract_z
Cu7 Cu 0.10641(3) 0.86090(3) 0.65493(3)
Cu14 Cu 0.00424(3) 0.94778(3) 0.77044(3)
H9 H 0.0084 0.6670 0.6917
H15 H 0.0168 0.7106 0.7940
C23 C 0.0106(2) 0.8023(2) 0.7512(2)
O15 O 0.0137(6) 0.4595(7) 0.6151(5)
H20 H 0.0528 0.4624 0.6002
H22 H 0.0084 0.4385 0.8582
O24 O 0.09010(18) 0.4597(2) 0.7375(2)
O36 O 0.04763(18) 0.7303(2) 0.5141(2)
O37 O 0.05842(19) 0.80064(19) 0.7110(2)
O44 O 0.01283(18) 0.35143(18) 0.72194(18)
Cu11 Cu 0.77044(3) 0.00424(3) 0.94778(3)
H1 H 0.6670 0.6917 0.0084
H4 H 0.7106 0.7940 0.0168
C8 C 0.8023(2) 0.7512(2) 0.0106(2)
O9 O 0.80064(19) 0.7110(2) 0.05842(19)
Cu6 Cu 0.86090(3) 0.65493(3) 0.10641(3)
Cu13 Cu 0.94778(3) 0.77044(3) 0.00424(3)
O35 O 0.7303(2) 0.5141(2) 0.04763(18)
Cu1 Cu 0.84507(3) 0.60641(3) 0.86090(3)
Cu2 Cu 0.72956(3) 0.50424(3) 0.94778(3)
C1 C 0.6905(2) 0.7062(2) 0.9687(2)
C2 C 0.6421(2) 0.7319(2) 0.9167(2)
H2 H 0.6295 0.6950 0.8881
C3 C 0.7317(2) 0.8066(2) 0.9182(2)
H3 H 0.7741 0.8016 0.8954
C4 C 0.7336(2) 0.7676(2) 0.9834(2)
C5 C 0.7283(2) 0.6487(2) 0.9373(2)
C6 C 0.5792(2) 0.7631(2) 0.9441(2)
C7 C 0.7182(2) 0.8792(3) 0.9295(2)
O1 O 0.77926(18) 0.66140(17) 0.90547(19)
O2 O 0.6151(5) 0.4863(6) 0.9595(7)
H5 H 0.5887 0.5189 0.9598
H6 H 0.6002 0.4472 0.9624
O3 O 0.70156(19) 0.59384(17) 0.9455(2)
O4 O 0.8507(2) 0.5327(3) 0.9420(2)
H7 H 0.8582 0.4916 0.9385
H8 H 0.8447 0.5426 0.9822
O5 O 0.7625(2) 0.90990(18) 0.9597(2)
O6 O 0.66534(17) 0.90474(17) 0.90972(18)
O7 O 0.56065(18) 0.81743(18) 0.92112(19)
O8 O 0.54763(18) 0.7303(2) 0.9859(2)
O10 O 0.85143(18) 0.77806(18) 0.98717(18)
O11 O 0.68027(16) 0.77780(16) 0.87839(16)
Cu3 Cu 0.86090(3) 0.84507(3) 0.60641(3)
Cu4 Cu 0.89359(3) 0.36090(3) 0.84507(3)
Cu5 Cu 0.60641(3) 0.86090(3) 0.84507(3)
Cu8 Cu 0.63910(3) 0.34507(3) 0.60641(3)
Cu9 Cu 0.94778(3) 0.72956(3) 0.50424(3)
Cu10 Cu 0.99576(3) 0.44778(3) 0.72956(3)
Cu12 Cu 0.44778(3) 0.72956(3) 0.99576(3)
Cu15 Cu 0.49576(3) 0.44778(3) 0.77044(3)
Cu16 Cu 0.77044(3) 0.49576(3) 0.44778(3)
C9 C 0.9687(2) 0.6905(2) 0.7062(2)
C10 C 0.7938(2) 0.4687(2) 0.6905(2)
H10 H 0.8083 0.5084 0.6670
C11 C 0.9167(2) 0.6421(2) 0.7319(2)
C12 C 0.7681(2) 0.4167(2) 0.6421(2)
H11 H 0.8881 0.6295 0.6950
H12 H 0.8050 0.3881 0.6295
C13 C 0.9182(2) 0.7317(2) 0.8066(2)
C14 C 0.6934(2) 0.4182(2) 0.7317(2)
H13 H 0.8954 0.7741 0.8016
H14 H 0.6984 0.3954 0.7741
C15 C 0.9834(2) 0.7336(2) 0.7676(2)
C16 C 0.7324(2) 0.4834(2) 0.7336(2)
H16 H 0.7060 0.5168 0.7106
C17 C 0.9373(2) 0.7283(2) 0.6487(2)
C18 C 0.8513(2) 0.4373(2) 0.7283(2)
C19 C 0.9441(2) 0.5792(2) 0.7631(2)
C20 C 0.7369(2) 0.4441(2) 0.5792(2)
C21 C 0.9295(2) 0.7182(2) 0.8792(3)
C22 C 0.6208(3) 0.4295(2) 0.7182(2)
C24 C 0.7488(2) 0.5106(2) 0.8023(2)
O12 O 0.90547(19) 0.77926(18) 0.66140(17)
O13 O 0.83860(17) 0.40547(19) 0.77926(18)
O14 O 0.9595(7) 0.6151(5) 0.4863(6)
H17 H 0.9598 0.5887 0.5189
H18 H 0.9811 0.4598 0.5887
H19 H 0.9624 0.6002 0.4472
O16 O 0.9455(2) 0.70156(19) 0.59384(17)
O17 O 0.90616(17) 0.4455(2) 0.70156(19)
O18 O 0.9420(2) 0.8507(2) 0.5327(3)
O19 O 0.9673(3) 0.4420(2) 0.8507(2)
H21 H 0.9385 0.8582 0.4916
H23 H 0.9822 0.8447 0.5426
H24 H 0.9574 0.4822 0.8447
O20 O 0.9597(2) 0.7625(2) 0.90990(18)
O21 O 0.59010(18) 0.4597(2) 0.7625(2)
O22 O 0.7375(2) 0.40990(18) 0.9597(2)
O23 O 0.9597(2) 0.7375(2) 0.40990(18)
O25 O 0.90972(18) 0.66534(17) 0.90474(17)
O26 O 0.59526(17) 0.40972(18) 0.66534(17)
O27 O 0.90474(17) 0.90972(18) 0.66534(17)
O28 O 0.83466(17) 0.40474(17) 0.90972(18)
O29 O 0.92112(19) 0.56065(18) 0.81743(18)
O30 O 0.68257(18) 0.42112(19) 0.56065(18)
O31 O 0.81743(18) 0.92112(19) 0.56065(18)
O32 O 0.93935(18) 0.31743(18) 0.92112(19)
O33 O 0.9859(2) 0.54763(18) 0.7303(2)
O34 O 0.7697(2) 0.4859(2) 0.54763(18)
O38 O 0.7890(2) 0.55842(19) 0.80064(19)
O39 O 0.80064(19) 0.7890(2) 0.55842(19)
O40 O 0.94158(19) 0.30064(19) 0.7890(2)
O41 O 0.98717(18) 0.85143(18) 0.77806(18)
O42 O 0.72194(18) 0.48717(18) 0.85143(18)
O43 O 0.85143(18) 0.72194(18) 0.48717(18)
O45 O 0.87839(16) 0.68027(16) 0.77780(16)
O46 O 0.72220(16) 0.37839(16) 0.68027(16)
O47 O 0.77780(16) 0.87839(16) 0.68027(16)
O48 O 0.81973(16) 0.27780(16) 0.87839(16)
Cu12_2 Cu 0.05222(3) 0.27044(3) 0.49576(3)
Cu15_2 Cu 0.00424(3) 0.55222(3) 0.27044(3)
Cu1_2 Cu 0.65493(3) 0.39359(3) 0.36090(3)
C1_2 C 0.8095(2) 0.2938(2) 0.4687(2)
H1_2 H 0.8330 0.3083 0.5084
C2_2 C 0.8579(2) 0.2681(2) 0.4167(2)
H2_2 H 0.8705 0.3050 0.3881
C3_2 C 0.7683(2) 0.1934(2) 0.4182(2)
H3_2 H 0.7259 0.1984 0.3954
C4_2 C 0.7664(2) 0.2324(2) 0.4834(2)
H4_2 H 0.7894 0.2060 0.5168
C5_2 C 0.7717(2) 0.3513(2) 0.4373(2)
C6_2 C 0.9208(2) 0.2369(2) 0.4441(2)
C7_2 C 0.7818(2) 0.1208(3) 0.4295(2)
C8_2 C 0.6977(2) 0.2488(2) 0.5106(2)
O1_2 O 0.72074(18) 0.33860(17) 0.40547(19)
O2_2 O 0.8849(5) 0.5137(6) 0.4595(7)
H5_2 H 0.9113 0.4811 0.4598
H6_2 H 0.8998 0.5528 0.4624
O3_2 O 0.79844(19) 0.40616(17) 0.4455(2)
O4_2 O 0.6493(2) 0.4673(3) 0.4420(2)
H7_2 H 0.6418 0.5084 0.4385
H8_2 H 0.6553 0.4574 0.4822
O5_2 O 0.7375(2) 0.09010(18) 0.4597(2)
O6_2 O 0.83466(17) 0.09526(17) 0.40972(18)
O7_2 O 0.93935(18) 0.18257(18) 0.42112(19)
O8_2 O 0.95237(18) 0.2697(2) 0.4859(2)
O9_2 O 0.69936(19) 0.2890(2) 0.55842(19)
O10_2 O 0.64857(18) 0.22194(18) 0.48717(18)
O11_2 O 0.81973(16) 0.22220(16) 0.37839(16)
Cu3_2 Cu 0.63910(3) 0.15493(3) 0.10641(3)
Cu4_2 Cu 0.60641(3) 0.63910(3) 0.34507(3)
Cu5_2 Cu 0.89359(3) 0.13910(3) 0.34507(3)
Cu7_2 Cu 0.39359(3) 0.13910(3) 0.15493(3)
Cu9_2 Cu 0.55222(3) 0.27044(3) 0.00424(3)
Cu10_2 Cu 0.50424(3) 0.55222(3) 0.22956(3)
Cu13_2 Cu 0.55222(3) 0.22956(3) 0.50424(3)
Cu14_2 Cu 0.49576(3) 0.05222(3) 0.27044(3)
C9_2 C 0.5313(2) 0.3095(2) 0.2062(2)
C10_2 C 0.7062(2) 0.5313(2) 0.1905(2)
H9_2 H 0.4916 0.3330 0.1917
H10_2 H 0.6917 0.4916 0.1670
C11_2 C 0.5833(2) 0.3579(2) 0.2319(2)
C12_2 C 0.7319(2) 0.5833(2) 0.1421(2)
H11_2 H 0.6119 0.3705 0.1950
H12_2 H 0.6950 0.6119 0.1295
C13_2 C 0.5818(2) 0.2683(2) 0.3066(2)
C14_2 C 0.8066(2) 0.5818(2) 0.2317(2)
H13_2 H 0.6046 0.2259 0.3016
H14_2 H 0.8016 0.6046 0.2741
C15_2 C 0.5166(2) 0.2664(2) 0.2676(2)
C16_2 C 0.7676(2) 0.5166(2) 0.2336(2)
H15_2 H 0.4832 0.2894 0.2940
H16_2 H 0.7940 0.4832 0.2106
C17_2 C 0.5627(2) 0.2717(2) 0.1487(2)
C18_2 C 0.6487(2) 0.5627(2) 0.2283(2)
C19_2 C 0.5559(2) 0.4208(2) 0.2631(2)
C20_2 C 0.7631(2) 0.5559(2) 0.0792(2)
C21_2 C 0.5705(2) 0.2818(2) 0.3792(3)
C22_2 C 0.8792(3) 0.5705(2) 0.2182(2)
C23_2 C 0.4894(2) 0.1977(2) 0.2512(2)
C24_2 C 0.7512(2) 0.4894(2) 0.3023(2)
O12_2 O 0.59453(19) 0.22074(18) 0.16140(17)
O13_2 O 0.66140(17) 0.59453(19) 0.27926(18)
O15_2 O 0.4863(6) 0.5405(7) 0.1151(5)
H17_2 H 0.5402 0.4113 0.0189
H18_2 H 0.5189 0.5402 0.0887
H20_2 H 0.4472 0.5376 0.1002
O16_2 O 0.5545(2) 0.29844(19) 0.09384(17)
O17_2 O 0.59384(17) 0.5545(2) 0.20156(19)
O18_2 O 0.5580(2) 0.1493(2) 0.0327(3)
O19_2 O 0.5327(3) 0.5580(2) 0.3507(2)
H22_2 H 0.4916 0.5615 0.3582
H23_2 H 0.5178 0.1553 0.0426
H24_2 H 0.5426 0.5178 0.3447
O20_2 O 0.5403(2) 0.2375(2) 0.40990(18)
O21_2 O 0.90990(18) 0.5403(2) 0.2625(2)
O22_2 O 0.7625(2) 0.59010(18) 0.4597(2)
O24_2 O 0.40990(18) 0.5403(2) 0.2375(2)
O25_2 O 0.59028(18) 0.33466(17) 0.40474(17)
O26_2 O 0.90474(17) 0.59028(18) 0.16534(17)
O27_2 O 0.59526(17) 0.09028(18) 0.16534(17)
O28_2 O 0.66534(17) 0.59526(17) 0.40972(18)
O29_2 O 0.57888(19) 0.43935(18) 0.31743(18)
O30_2 O 0.81743(18) 0.57888(19) 0.06065(18)
O31_2 O 0.68257(18) 0.07888(19) 0.06065(18)
O32_2 O 0.56065(18) 0.68257(18) 0.42112(19)
O33_2 O 0.5141(2) 0.45237(18) 0.2303(2)
O36_2 O 0.45237(18) 0.2697(2) 0.0141(2)
O37_2 O 0.44158(19) 0.19936(19) 0.2110(2)
O38_2 O 0.7110(2) 0.44158(19) 0.30064(19)
O39_2 O 0.69936(19) 0.2110(2) 0.05842(19)
O40_2 O 0.55842(19) 0.69936(19) 0.2890(2)
O41_2 O 0.51283(18) 0.14857(18) 0.27806(18)
O42_2 O 0.77806(18) 0.51283(18) 0.35143(18)
O44_2 O 0.48717(18) 0.64857(18) 0.22194(18)
O45_2 O 0.62161(16) 0.31973(16) 0.27780(16)
O46_2 O 0.77780(16) 0.62161(16) 0.18027(16)
O47_2 O 0.72220(16) 0.12161(16) 0.18027(16)
O48_2 O 0.68027(16) 0.72220(16) 0.37839(16)
O14_2 O 0.5405(7) 0.3849(5) 0.9863(6)
H19_2 H 0.5376 0.3998 0.9472
H21_2 H 0.5615 0.1418 0.9916
O23_2 O 0.5403(2) 0.2625(2) 0.90990(18)
O43_2 O 0.64857(18) 0.27806(18) 0.98717(18)
Cu11_2 Cu 0.72956(3) 0.99576(3) 0.44778(3)
O14_3 O 0.0405(7) 0.1151(5) 0.0137(6)
H19_3 H 0.0376 0.1002 0.0528
H21_3 H 0.0615 0.3582 0.0084
O23_3 O 0.0403(2) 0.2375(2) 0.09010(18)
O43_3 O 0.14857(18) 0.22194(18) 0.01283(18)
Cu1_3 Cu 0.15493(3) 0.10641(3) 0.63910(3)
Cu2_2 Cu 0.27044(3) 0.00424(3) 0.55222(3)
C1_3 C 0.3095(2) 0.2062(2) 0.5313(2)
H1_3 H 0.3330 0.1917 0.4916
C2_3 C 0.3579(2) 0.2319(2) 0.5833(2)
H2_3 H 0.3705 0.1950 0.6119
C3_3 C 0.2683(2) 0.3066(2) 0.5818(2)
H3_3 H 0.2259 0.3016 0.6046
C4_3 C 0.2664(2) 0.2676(2) 0.5166(2)
H4_3 H 0.2894 0.2940 0.4832
C5_3 C 0.2717(2) 0.1487(2) 0.5627(2)
C6_3 C 0.4208(2) 0.2631(2) 0.5559(2)
C7_3 C 0.2818(2) 0.3792(3) 0.5705(2)
C8_3 C 0.1977(2) 0.2512(2) 0.4894(2)
O1_3 O 0.22074(18) 0.16140(17) 0.59453(19)
H5_3 H 0.4113 0.0189 0.5402
O3_3 O 0.29844(19) 0.09384(17) 0.5545(2)
O4_3 O 0.1493(2) 0.0327(3) 0.5580(2)
H8_3 H 0.1553 0.0426 0.5178
O5_3 O 0.2375(2) 0.40990(18) 0.5403(2)
O6_3 O 0.33466(17) 0.40474(17) 0.59028(18)
O7_3 O 0.43935(18) 0.31743(18) 0.57888(19)
O8_3 O 0.45237(18) 0.2303(2) 0.5141(2)
O9_3 O 0.19936(19) 0.2110(2) 0.44158(19)
O10_3 O 0.14857(18) 0.27806(18) 0.51283(18)
O11_3 O 0.31973(16) 0.27780(16) 0.62161(16)
Cu3_3 Cu 0.13910(3) 0.34507(3) 0.89359(3)
Cu5_3 Cu 0.39359(3) 0.36090(3) 0.65493(3)
Cu6_2 Cu 0.13910(3) 0.15493(3) 0.39359(3)
Cu9_3 Cu 0.05222(3) 0.22956(3) 0.99576(3)
Cu11_3 Cu 0.22956(3) 0.50424(3) 0.55222(3)
C9_3 C 0.0313(2) 0.1905(2) 0.7938(2)
H10_3 H 0.1917 0.0084 0.8330
C11_3 C 0.0833(2) 0.1421(2) 0.7681(2)
H11_3 H 0.1119 0.1295 0.8050
C13_3 C 0.0818(2) 0.2317(2) 0.6934(2)
H13_3 H 0.1046 0.2741 0.6984
C15_3 C 0.0166(2) 0.2336(2) 0.7324(2)
H16_3 H 0.2940 0.0168 0.7894
C17_3 C 0.0627(2) 0.2283(2) 0.8513(2)
C19_3 C 0.0559(2) 0.0792(2) 0.7369(2)
C21_3 C 0.0705(2) 0.2182(2) 0.6208(3)
C24_3 C 0.2512(2) 0.0106(2) 0.6977(2)
O12_3 O 0.09453(19) 0.27926(18) 0.83860(17)
H17_3 H 0.0402 0.0887 0.9811
O16_3 O 0.0545(2) 0.20156(19) 0.90616(17)
O18_3 O 0.0580(2) 0.3507(2) 0.9673(3)
H23_3 H 0.0178 0.3447 0.9574
O20_3 O 0.0403(2) 0.2625(2) 0.59010(18)
O25_3 O 0.09028(18) 0.16534(17) 0.59526(17)
O27_3 O 0.09526(17) 0.40972(18) 0.83466(17)
O29_3 O 0.07888(19) 0.06065(18) 0.68257(18)
O31_3 O 0.18257(18) 0.42112(19) 0.93935(18)
O33_3 O 0.0141(2) 0.04763(18) 0.7697(2)
O35_2 O 0.2697(2) 0.0141(2) 0.45237(18)
O38_3 O 0.2110(2) 0.05842(19) 0.69936(19)
O39_3 O 0.19936(19) 0.2890(2) 0.94158(19)
O45_3 O 0.12161(16) 0.18027(16) 0.72220(16)
O47_3 O 0.22220(16) 0.37839(16) 0.81973(16)
Cu16_2 Cu 0.22956(3) 0.99576(3) 0.05222(3)
O2_3 O 0.3849(5) 0.9863(6) 0.5405(7)
H6_3 H 0.3998 0.9472 0.5376
H7_3 H 0.1418 0.9916 0.5615
Cu8_2 Cu 0.36090(3) 0.84507(3) 0.89359(3)
Cu15_3 Cu 0.50424(3) 0.94778(3) 0.72956(3)
C10_3 C 0.2062(2) 0.9687(2) 0.8095(2)
C12_3 C 0.2319(2) 0.9167(2) 0.8579(2)
H12_3 H 0.1950 0.8881 0.8705
C14_3 C 0.3066(2) 0.9182(2) 0.7683(2)
H14_3 H 0.3016 0.8954 0.7259
C16_3 C 0.2676(2) 0.9834(2) 0.7664(2)
C18_3 C 0.1487(2) 0.9373(2) 0.7717(2)
C20_3 C 0.2631(2) 0.9441(2) 0.9208(2)
C22_3 C 0.3792(3) 0.9295(2) 0.7818(2)
O13_3 O 0.16140(17) 0.90547(19) 0.72074(18)
H18_3 H 0.0189 0.9598 0.9113
O17_3 O 0.09384(17) 0.9455(2) 0.79844(19)
O19_3 O 0.0327(3) 0.9420(2) 0.6493(2)
H24_3 H 0.0426 0.9822 0.6553
O21_3 O 0.40990(18) 0.9597(2) 0.7375(2)
O22_3 O 0.2625(2) 0.90990(18) 0.5403(2)
O26_3 O 0.40474(17) 0.90972(18) 0.83466(17)
O28_3 O 0.16534(17) 0.90474(17) 0.59028(18)
O30_3 O 0.31743(18) 0.92112(19) 0.93935(18)
O32_3 O 0.06065(18) 0.81743(18) 0.57888(19)
O34_2 O 0.2303(2) 0.9859(2) 0.95237(18)
O42_3 O 0.27806(18) 0.98717(18) 0.64857(18)
O46_3 O 0.27780(16) 0.87839(16) 0.81973(16)
O48_3 O 0.18027(16) 0.77780(16) 0.62161(16)
H9_3 H 0.9916 0.1670 0.8083
H15_3 H 0.9832 0.2106 0.7060
C23_3 C 0.9894(2) 0.3023(2) 0.7488(2)
O36_3 O 0.95237(18) 0.2303(2) 0.9859(2)
O15_3 O 0.9863(6) 0.9595(7) 0.8849(5)
H20_3 H 0.9472 0.9624 0.8998
H22_3 H 0.9916 0.9385 0.6418
O24_3 O 0.90990(18) 0.9597(2) 0.7625(2)
O2_4 O 0.1151(5) 0.0137(6) 0.0405(7)
H6_4 H 0.1002 0.0528 0.0376
H7_4 H 0.3582 0.0084 0.0615
C10_4 C 0.2938(2) 0.0313(2) 0.3095(2)
C12_4 C 0.2681(2) 0.0833(2) 0.3579(2)
H12_4 H 0.3050 0.1119 0.3705
C14_4 C 0.1934(2) 0.0818(2) 0.2683(2)
H14_4 H 0.1984 0.1046 0.2259
C16_4 C 0.2324(2) 0.0166(2) 0.2664(2)
C18_4 C 0.3513(2) 0.0627(2) 0.2717(2)
C20_4 C 0.2369(2) 0.0559(2) 0.4208(2)
C22_4 C 0.1208(3) 0.0705(2) 0.2818(2)
O13_4 O 0.33860(17) 0.09453(19) 0.22074(18)
O15_4 O 0.5137(6) 0.0405(7) 0.3849(5)
H18_4 H 0.4811 0.0402 0.4113
H20_4 H 0.5528 0.0376 0.3998
O17_4 O 0.40616(17) 0.0545(2) 0.29844(19)
O19_4 O 0.4673(3) 0.0580(2) 0.1493(2)
H22_4 H 0.5084 0.0615 0.1418
H24_4 H 0.4574 0.0178 0.1553
O21_4 O 0.09010(18) 0.0403(2) 0.2375(2)
O22_4 O 0.2375(2) 0.09010(18) 0.0403(2)
O24_4 O 0.59010(18) 0.0403(2) 0.2625(2)
O26_4 O 0.09526(17) 0.09028(18) 0.33466(17)
O28_4 O 0.33466(17) 0.09526(17) 0.09028(18)
O30_4 O 0.18257(18) 0.07888(19) 0.43935(18)
O32_4 O 0.43935(18) 0.18257(18) 0.07888(19)
O42_4 O 0.22194(18) 0.01283(18) 0.14857(18)
O46_4 O 0.22220(16) 0.12161(16) 0.31973(16)
O48_4 O 0.31973(16) 0.22220(16) 0.12161(16)
Cu1_4 Cu 0.34507(3) 0.89359(3) 0.13910(3)
C1_4 C 0.1905(2) 0.7938(2) 0.0313(2)
C2_4 C 0.1421(2) 0.7681(2) 0.0833(2)
H2_4 H 0.1295 0.8050 0.1119
C3_4 C 0.2317(2) 0.6934(2) 0.0818(2)
H3_4 H 0.2741 0.6984 0.1046
C4_4 C 0.2336(2) 0.7324(2) 0.0166(2)
C5_4 C 0.2283(2) 0.8513(2) 0.0627(2)
C6_4 C 0.0792(2) 0.7369(2) 0.0559(2)
C7_4 C 0.2182(2) 0.6208(3) 0.0705(2)
O1_4 O 0.27926(18) 0.83860(17) 0.09453(19)
H5_4 H 0.0887 0.9811 0.0402
O3_4 O 0.20156(19) 0.90616(17) 0.0545(2)
O4_4 O 0.3507(2) 0.9673(3) 0.0580(2)
H8_4 H 0.3447 0.9574 0.0178
O5_4 O 0.2625(2) 0.59010(18) 0.0403(2)
O6_4 O 0.16534(17) 0.59526(17) 0.09028(18)
O7_4 O 0.06065(18) 0.68257(18) 0.07888(19)
O8_4 O 0.04763(18) 0.7697(2) 0.0141(2)
O10_4 O 0.35143(18) 0.72194(18) 0.01283(18)
O11_4 O 0.18027(16) 0.72220(16) 0.12161(16)
Cu3_4 Cu 0.36090(3) 0.65493(3) 0.39359(3)
Cu5_4 Cu 0.10641(3) 0.63910(3) 0.15493(3)
Cu9_4 Cu 0.44778(3) 0.77044(3) 0.49576(3)
Cu11_4 Cu 0.27044(3) 0.49576(3) 0.05222(3)
C9_4 C 0.4687(2) 0.8095(2) 0.2938(2)
H9_4 H 0.5084 0.8330 0.3083
H10_4 H 0.3083 0.9916 0.3330
C11_4 C 0.4167(2) 0.8579(2) 0.2681(2)
H11_4 H 0.3881 0.8705 0.3050
C13_4 C 0.4182(2) 0.7683(2) 0.1934(2)
H13_4 H 0.3954 0.7259 0.1984
C15_4 C 0.4834(2) 0.7664(2) 0.2324(2)
H15_4 H 0.5168 0.7894 0.2060
H16_4 H 0.2060 0.9832 0.2894
C17_4 C 0.4373(2) 0.7717(2) 0.3513(2)
C19_4 C 0.4441(2) 0.9208(2) 0.2369(2)
C21_4 C 0.4295(2) 0.7818(2) 0.1208(3)
C23_4 C 0.5106(2) 0.6977(2) 0.2488(2)
C24_4 C 0.2488(2) 0.9894(2) 0.1977(2)
O12_4 O 0.40547(19) 0.72074(18) 0.33860(17)
O14_4 O 0.4595(7) 0.8849(5) 0.5137(6)
H17_4 H 0.4598 0.9113 0.4811
H19_4 H 0.4624 0.8998 0.5528
O16_4 O 0.4455(2) 0.79844(19) 0.40616(17)
O18_4 O 0.4420(2) 0.6493(2) 0.4673(3)
H21_4 H 0.4385 0.6418 0.5084
H23_4 H 0.4822 0.6553 0.4574
O20_4 O 0.4597(2) 0.7375(2) 0.09010(18)
O23_4 O 0.4597(2) 0.7625(2) 0.59010(18)
O25_4 O 0.40972(18) 0.83466(17) 0.09526(17)
O27_4 O 0.40474(17) 0.59028(18) 0.33466(17)
O29_4 O 0.42112(19) 0.93935(18) 0.18257(18)
O31_4 O 0.31743(18) 0.57888(19) 0.43935(18)
O33_4 O 0.4859(2) 0.95237(18) 0.2697(2)
O36_4 O 0.54763(18) 0.7697(2) 0.4859(2)
O38_4 O 0.2890(2) 0.94158(19) 0.19936(19)
O39_4 O 0.30064(19) 0.7110(2) 0.44158(19)
O43_4 O 0.35143(18) 0.77806(18) 0.51283(18)
O45_4 O 0.37839(16) 0.81973(16) 0.22220(16)
O47_4 O 0.27780(16) 0.62161(16) 0.31973(16)
H1_4 H 0.1670 0.8083 0.9916
H4_4 H 0.2106 0.7060 0.9832
C8_4 C 0.3023(2) 0.7488(2) 0.9894(2)
O9_4 O 0.30064(19) 0.7890(2) 0.94158(19)
Cu15_4 Cu 0.99576(3) 0.05222(3) 0.22956(3)
Cu7_3 Cu 0.65493(3) 0.10641(3) 0.86090(3)
H9_5 H 0.6917 0.0084 0.6670
H15_5 H 0.7940 0.0168 0.7106
C23_5 C 0.7512(2) 0.0106(2) 0.8023(2)
O15_5 O 0.6151(5) 0.0137(6) 0.4595(7)
H20_5 H 0.6002 0.0528 0.4624
H22_5 H 0.8582 0.0084 0.4385
O36_5 O 0.5141(2) 0.04763(18) 0.7303(2)
O37_3 O 0.7110(2) 0.05842(19) 0.80064(19)
O44_3 O 0.72194(18) 0.01283(18) 0.35143(18)
Cu4_3 Cu 0.84507(3) 0.89359(3) 0.36090(3)
C9_5 C 0.7062(2) 0.9687(2) 0.6905(2)
C10_5 C 0.6905(2) 0.7938(2) 0.4687(2)
H10_5 H 0.6670 0.8083 0.5084
C11_5 C 0.7319(2) 0.9167(2) 0.6421(2)
C12_5 C 0.6421(2) 0.7681(2) 0.4167(2)
H11_5 H 0.6950 0.8881 0.6295
H12_5 H 0.6295 0.8050 0.3881
C13_5 C 0.8066(2) 0.9182(2) 0.7317(2)
C14_5 C 0.7317(2) 0.6934(2) 0.4182(2)
H13_5 H 0.8016 0.8954 0.7741
H14_5 H 0.7741 0.6984 0.3954
C15_5 C 0.7676(2) 0.9834(2) 0.7336(2)
C16_5 C 0.7336(2) 0.7324(2) 0.4834(2)
H16_5 H 0.7106 0.7060 0.5168
C17_5 C 0.6487(2) 0.9373(2) 0.7283(2)
C18_5 C 0.7283(2) 0.8513(2) 0.4373(2)
C19_5 C 0.7631(2) 0.9441(2) 0.5792(2)
C20_5 C 0.5792(2) 0.7369(2) 0.4441(2)
C21_5 C 0.8792(3) 0.9295(2) 0.7182(2)
C22_5 C 0.7182(2) 0.6208(3) 0.4295(2)
C24_5 C 0.8023(2) 0.7488(2) 0.5106(2)
O12_5 O 0.66140(17) 0.90547(19) 0.77926(18)
O13_5 O 0.77926(18) 0.83860(17) 0.40547(19)
O14_5 O 0.4863(6) 0.9595(7) 0.6151(5)
H17_5 H 0.5189 0.9598 0.5887
H18_5 H 0.5887 0.9811 0.4598
H19_5 H 0.4472 0.9624 0.6002
O16_5 O 0.59384(17) 0.9455(2) 0.70156(19)
O17_5 O 0.70156(19) 0.90616(17) 0.4455(2)
O18_5 O 0.5327(3) 0.9420(2) 0.8507(2)
O19_5 O 0.8507(2) 0.9673(3) 0.4420(2)
H21_5 H 0.4916 0.9385 0.8582
H23_5 H 0.5426 0.9822 0.8447
H24_5 H 0.8447 0.9574 0.4822
O28_5 O 0.90972(18) 0.83466(17) 0.40474(17)
O32_5 O 0.92112(19) 0.93935(18) 0.31743(18)
O33_5 O 0.7303(2) 0.9859(2) 0.54763(18)
O39_5 O 0.55842(19) 0.80064(19) 0.7890(2)
O40_3 O 0.7890(2) 0.94158(19) 0.30064(19)
O41_3 O 0.77806(18) 0.98717(18) 0.85143(18)
O43_5 O 0.48717(18) 0.85143(18) 0.72194(18)
O48_5 O 0.87839(16) 0.81973(16) 0.27780(16)
Cu4_4 Cu 0.34507(3) 0.60641(3) 0.63910(3)
Cu7_4 Cu 0.15493(3) 0.39359(3) 0.13910(3)
C9_6 C 0.2062(2) 0.5313(2) 0.3095(2)
C10_6 C 0.1905(2) 0.7062(2) 0.5313(2)
H9_6 H 0.1917 0.4916 0.3330
H10_6 H 0.1670 0.6917 0.4916
C11_6 C 0.2319(2) 0.5833(2) 0.3579(2)
C12_6 C 0.1421(2) 0.7319(2) 0.5833(2)
H11_6 H 0.1950 0.6119 0.3705
H12_6 H 0.1295 0.6950 0.6119
C13_6 C 0.3066(2) 0.5818(2) 0.2683(2)
C14_6 C 0.2317(2) 0.8066(2) 0.5818(2)
H13_6 H 0.3016 0.6046 0.2259
H14_6 H 0.2741 0.8016 0.6046
C15_6 C 0.2676(2) 0.5166(2) 0.2664(2)
C16_6 C 0.2336(2) 0.7676(2) 0.5166(2)
H15_6 H 0.2940 0.4832 0.2894
H16_6 H 0.2106 0.7940 0.4832
C17_6 C 0.1487(2) 0.5627(2) 0.2717(2)
C18_6 C 0.2283(2) 0.6487(2) 0.5627(2)
C19_6 C 0.2631(2) 0.5559(2) 0.4208(2)
C20_6 C 0.0792(2) 0.7631(2) 0.5559(2)
C21_6 C 0.3792(3) 0.5705(2) 0.2818(2)
C22_6 C 0.2182(2) 0.8792(3) 0.5705(2)
C23_6 C 0.2512(2) 0.4894(2) 0.1977(2)
C24_6 C 0.3023(2) 0.7512(2) 0.4894(2)
O12_6 O 0.16140(17) 0.59453(19) 0.22074(18)
O13_6 O 0.27926(18) 0.66140(17) 0.59453(19)
O15_6 O 0.1151(5) 0.4863(6) 0.5405(7)
H17_6 H 0.0189 0.5402 0.4113
H18_6 H 0.0887 0.5189 0.5402
H20_6 H 0.1002 0.4472 0.5376
O16_6 O 0.09384(17) 0.5545(2) 0.29844(19)
O17_6 O 0.20156(19) 0.59384(17) 0.5545(2)
O18_6 O 0.0327(3) 0.5580(2) 0.1493(2)
O19_6 O 0.3507(2) 0.5327(3) 0.5580(2)
H22_6 H 0.3582 0.4916 0.5615
H23_6 H 0.0426 0.5178 0.1553
H24_6 H 0.3447 0.5426 0.5178
O28_6 O 0.40972(18) 0.66534(17) 0.59526(17)
O32_6 O 0.42112(19) 0.56065(18) 0.68257(18)
O33_6 O 0.2303(2) 0.5141(2) 0.45237(18)
O36_6 O 0.0141(2) 0.45237(18) 0.2697(2)
O37_4 O 0.2110(2) 0.44158(19) 0.19936(19)
O39_6 O 0.05842(19) 0.69936(19) 0.2110(2)
O40_4 O 0.2890(2) 0.55842(19) 0.69936(19)
O41_4 O 0.27806(18) 0.51283(18) 0.14857(18)
O44_4 O 0.22194(18) 0.48717(18) 0.64857(18)
O48_6 O 0.37839(16) 0.68027(16) 0.72220(16)
O14_6 O 0.9863(6) 0.5405(7) 0.3849(5)
H19_6 H 0.9472 0.5376 0.3998
H21_6 H 0.9916 0.5615 0.1418
O43_6 O 0.98717(18) 0.64857(18) 0.27806(18)
O14_7 O 0.0137(6) 0.0405(7) 0.1151(5)
H19_7 H 0.0528 0.0376 0.1002
H21_7 H 0.0084 0.0615 0.3582
O43_7 O 0.01283(18) 0.14857(18) 0.22194(18)
C9_7 C 0.7938(2) 0.0313(2) 0.1905(2)
H10_7 H 0.8330 0.1917 0.0084
C11_7 C 0.7681(2) 0.0833(2) 0.1421(2)
H11_7 H 0.8050 0.1119 0.1295
C13_7 C 0.6934(2) 0.0818(2) 0.2317(2)
H13_7 H 0.6984 0.1046 0.2741
C15_7 C 0.7324(2) 0.0166(2) 0.2336(2)
H16_7 H 0.7894 0.2940 0.0168
C17_7 C 0.8513(2) 0.0627(2) 0.2283(2)
C19_7 C 0.7369(2) 0.0559(2) 0.0792(2)
C21_7 C 0.6208(3) 0.0705(2) 0.2182(2)
C24_7 C 0.6977(2) 0.2512(2) 0.0106(2)
O12_7 O 0.83860(17) 0.09453(19) 0.27926(18)
H17_7 H 0.9811 0.0402 0.0887
O16_7 O 0.90616(17) 0.0545(2) 0.20156(19)
O18_7 O 0.9673(3) 0.0580(2) 0.3507(2)
H23_7 H 0.9574 0.0178 0.3447
O33_7 O 0.7697(2) 0.0141(2) 0.04763(18)
O39_7 O 0.94158(19) 0.19936(19) 0.2890(2)
C10_7 C 0.8095(2) 0.2062(2) 0.9687(2)
C12_7 C 0.8579(2) 0.2319(2) 0.9167(2)
H12_7 H 0.8705 0.1950 0.8881
C14_7 C 0.7683(2) 0.3066(2) 0.9182(2)
H14_7 H 0.7259 0.3016 0.8954
C16_7 C 0.7664(2) 0.2676(2) 0.9834(2)
C18_7 C 0.7717(2) 0.1487(2) 0.9373(2)
C20_7 C 0.9208(2) 0.2631(2) 0.9441(2)
C22_7 C 0.7818(2) 0.3792(3) 0.9295(2)
O13_7 O 0.72074(18) 0.16140(17) 0.90547(19)
H18_7 H 0.9113 0.0189 0.9598
O17_7 O 0.79844(19) 0.09384(17) 0.9455(2)
O19_7 O 0.6493(2) 0.0327(3) 0.9420(2)
H24_7 H 0.6553 0.0426 0.9822
O28_7 O 0.59028(18) 0.16534(17) 0.90474(17)
O32_7 O 0.57888(19) 0.06065(18) 0.81743(18)
O48_7 O 0.62161(16) 0.18027(16) 0.77780(16)
H9_7 H 0.8083 0.9916 0.1670
H15_7 H 0.7060 0.9832 0.2106
C23_7 C 0.7488(2) 0.9894(2) 0.3023(2)
O36_7 O 0.9859(2) 0.95237(18) 0.2303(2)
O15_7 O 0.8849(5) 0.9863(6) 0.9595(7)
H20_7 H 0.8998 0.9472 0.9624
H22_7 H 0.6418 0.9916 0.9385
C10_8 C 0.3095(2) 0.2938(2) 0.0313(2)
C12_8 C 0.3579(2) 0.2681(2) 0.0833(2)
H12_8 H 0.3705 0.3050 0.1119
C14_8 C 0.2683(2) 0.1934(2) 0.0818(2)
H14_8 H 0.2259 0.1984 0.1046
C16_8 C 0.2664(2) 0.2324(2) 0.0166(2)
C18_8 C 0.2717(2) 0.3513(2) 0.0627(2)
C20_8 C 0.4208(2) 0.2369(2) 0.0559(2)
C22_8 C 0.2818(2) 0.1208(3) 0.0705(2)
O13_8 O 0.22074(18) 0.33860(17) 0.09453(19)
O15_8 O 0.3849(5) 0.5137(6) 0.0405(7)
H18_8 H 0.4113 0.4811 0.0402
H20_8 H 0.3998 0.5528 0.0376
O17_8 O 0.29844(19) 0.40616(17) 0.0545(2)
O19_8 O 0.1493(2) 0.4673(3) 0.0580(2)
H22_8 H 0.1418 0.5084 0.0615
H24_8 H 0.1553 0.4574 0.0178
O28_8 O 0.09028(18) 0.33466(17) 0.09526(17)
O32_8 O 0.07888(19) 0.43935(18) 0.18257(18)
O48_8 O 0.12161(16) 0.31973(16) 0.22220(16)
C9_8 C 0.2938(2) 0.4687(2) 0.8095(2)
H9_8 H 0.3083 0.5084 0.8330
H10_8 H 0.3330 0.3083 0.9916
C11_8 C 0.2681(2) 0.4167(2) 0.8579(2)
H11_8 H 0.3050 0.3881 0.8705
C13_8 C 0.1934(2) 0.4182(2) 0.7683(2)
H13_8 H 0.1984 0.3954 0.7259
C15_8 C 0.2324(2) 0.4834(2) 0.7664(2)
H15_8 H 0.2060 0.5168 0.7894
H16_8 H 0.2894 0.2060 0.9832
C17_8 C 0.3513(2) 0.4373(2) 0.7717(2)
C19_8 C 0.2369(2) 0.4441(2) 0.9208(2)
C21_8 C 0.1208(3) 0.4295(2) 0.7818(2)
C23_8 C 0.2488(2) 0.5106(2) 0.6977(2)
C24_8 C 0.1977(2) 0.2488(2) 0.9894(2)
O12_8 O 0.33860(17) 0.40547(19) 0.72074(18)
O14_8 O 0.5137(6) 0.4595(7) 0.8849(5)
H17_8 H 0.4811 0.4598 0.9113
H19_8 H 0.5528 0.4624 0.8998
O16_8 O 0.40616(17) 0.4455(2) 0.79844(19)
O18_8 O 0.4673(3) 0.4420(2) 0.6493(2)
H21_8 H 0.5084 0.4385 0.6418
H23_8 H 0.4574 0.4822 0.6553
O33_8 O 0.2697(2) 0.4859(2) 0.95237(18)
O36_8 O 0.4859(2) 0.54763(18) 0.7697(2)
O39_8 O 0.44158(19) 0.30064(19) 0.7110(2)
O43_8 O 0.51283(18) 0.35143(18) 0.77806(18)
O15_9 O 0.4595(7) 0.6151(5) 0.0137(6)
H20_9 H 0.4624 0.6002 0.0528
H22_9 H 0.4385 0.8582 0.0084
C10_9 C 0.4687(2) 0.6905(2) 0.7938(2)
H10_9 H 0.5084 0.6670 0.8083
C12_9 C 0.4167(2) 0.6421(2) 0.7681(2)
H12_9 H 0.3881 0.6295 0.8050
C14_9 C 0.4182(2) 0.7317(2) 0.6934(2)
H14_9 H 0.3954 0.7741 0.6984
C16_9 C 0.4834(2) 0.7336(2) 0.7324(2)
H16_9 H 0.5168 0.7106 0.7060
C18_9 C 0.4373(2) 0.7283(2) 0.8513(2)
C20_9 C 0.4441(2) 0.5792(2) 0.7369(2)
C22_9 C 0.4295(2) 0.7182(2) 0.6208(3)
C24_9 C 0.5106(2) 0.8023(2) 0.7488(2)
O13_9 O 0.40547(19) 0.77926(18) 0.83860(17)
H18_9 H 0.4598 0.5887 0.9811
O17_9 O 0.4455(2) 0.70156(19) 0.90616(17)
O19_9 O 0.4420(2) 0.8507(2) 0.9673(3)
H24_9 H 0.4822 0.8447 0.9574
C10_10 C 0.5313(2) 0.1905(2) 0.7062(2)
H10_10 H 0.4916 0.1670 0.6917
C12_10 C 0.5833(2) 0.1421(2) 0.7319(2)
H12_10 H 0.6119 0.1295 0.6950
C14_10 C 0.5818(2) 0.2317(2) 0.8066(2)
H14_10 H 0.6046 0.2741 0.8016
C16_10 C 0.5166(2) 0.2336(2) 0.7676(2)
H16_10 H 0.4832 0.2106 0.7940
C18_10 C 0.5627(2) 0.2283(2) 0.6487(2)
C20_10 C 0.5559(2) 0.0792(2) 0.7631(2)
C22_10 C 0.5705(2) 0.2182(2) 0.8792(3)
C24_10 C 0.4894(2) 0.3023(2) 0.7512(2)
O13_10 O 0.59453(19) 0.27926(18) 0.66140(17)
O15_10 O 0.5405(7) 0.1151(5) 0.4863(6)
H18_10 H 0.5402 0.0887 0.5189
H20_10 H 0.5376 0.1002 0.4472
O17_10 O 0.5545(2) 0.20156(19) 0.59384(17)
O19_10 O 0.5580(2) 0.3507(2) 0.5327(3)
H22_10 H 0.5615 0.3582 0.4916
H24_10 H 0.5178 0.3447 0.5426
H10_11 H 0.0084 0.8330 0.1917
H16_11 H 0.0168 0.7894 0.2940
C24_11 C 0.0106(2) 0.6977(2) 0.2512(2)
C10_11 C 0.9687(2) 0.8095(2) 0.2062(2)
C12_11 C 0.9167(2) 0.8579(2) 0.2319(2)
H12_11 H 0.8881 0.8705 0.1950
C14_11 C 0.9182(2) 0.7683(2) 0.3066(2)
H14_11 H 0.8954 0.7259 0.3016
C16_11 C 0.9834(2) 0.7664(2) 0.2676(2)
C18_11 C 0.9373(2) 0.7717(2) 0.1487(2)
C20_11 C 0.9441(2) 0.9208(2) 0.2631(2)
C22_11 C 0.9295(2) 0.7818(2) 0.3792(3)
O13_11 O 0.90547(19) 0.72074(18) 0.16140(17)
H18_11 H 0.9598 0.9113 0.0189
O17_11 O 0.9455(2) 0.79844(19) 0.09384(17)
O19_11 O 0.9420(2) 0.6493(2) 0.0327(3)
H24_11 H 0.9822 0.6553 0.0426
O15_11 O 0.9595(7) 0.8849(5) 0.9863(6)
H20_11 H 0.9624 0.8998 0.9472
H22_11 H 0.9385 0.6418 0.9916
C10_12 C 0.0313(2) 0.3095(2) 0.2938(2)
C12_12 C 0.0833(2) 0.3579(2) 0.2681(2)
H12_12 H 0.1119 0.3705 0.3050
C14_12 C 0.0818(2) 0.2683(2) 0.1934(2)
H14_12 H 0.1046 0.2259 0.1984
C16_12 C 0.0166(2) 0.2664(2) 0.2324(2)
C18_12 C 0.0627(2) 0.2717(2) 0.3513(2)
C20_12 C 0.0559(2) 0.4208(2) 0.2369(2)
C22_12 C 0.0705(2) 0.2818(2) 0.1208(3)
O13_12 O 0.09453(19) 0.22074(18) 0.33860(17)
O15_12 O 0.0405(7) 0.3849(5) 0.5137(6)
H18_12 H 0.0402 0.4113 0.4811
H20_12 H 0.0376 0.3998 0.5528
O17_12 O 0.0545(2) 0.29844(19) 0.40616(17)
O19_12 O 0.0580(2) 0.1493(2) 0.4673(3)
H22_12 H 0.0615 0.1418 0.5084
H24_12 H 0.0178 0.1553 0.4574
H10_12 H 0.9916 0.3330 0.3083
H16_12 H 0.9832 0.2894 0.2060
C24_12 C 0.9894(2) 0.1977(2) 0.2488(2)
loop_
_geom_bond_atom_site_label_1
_geom_bond_atom_site_label_2
_geom_bond_site_symmetry_1
_geom_bond_site_symmetry_2
Cu7 O37 1_555 1_555
H20 O15 1_555 1_555
O37 C23 1_555 1_555
O9 C8 1_555 1_555
Cu6 O9 1_555 1_555
Cu1 O1 1_555 1_555
Cu2 O2 1_555 1_555
C2 C1 1_555 1_555
H2 C2 1_555 1_555
C3 H3 1_555 1_555
C4 C1 1_555 1_555
C5 C1 1_555 1_555
C6 C2 1_555 1_555
C7 C3 1_555 1_555
O1 C5 1_555 1_555
O2 H5 1_555 1_555
H6 O2 1_555 1_555
O3 Cu2 1_555 1_555
O4 Cu1 1_555 1_555
H7 O4 1_555 1_555
H8 O4 1_555 1_555
O5 C7 1_555 1_555
O6 C7 1_555 1_555
O7 C6 1_555 1_555
O8 C6 1_555 1_555
O11 C2 1_555 1_555
Cu3 O12 1_555 1_555
Cu4 O13 1_555 1_555
Cu5 O6 1_555 1_555
Cu8 O26 1_555 1_555
Cu9 O14 1_555 1_555
Cu12 O8 1_555 1_555
Cu15 O21 1_555 1_555
Cu16 O34 1_555 1_555
C10 H10 1_555 1_555
C11 C9 1_555 1_555
C12 C10 1_555 1_555
H11 C11 1_555 1_555
H12 C12 1_555 1_555
C13 H13 1_555 1_555
C14 H14 1_555 1_555
C15 C9 1_555 1_555
C16 C10 1_555 1_555
H16 C16 1_555 1_555
C17 C9 1_555 1_555
C18 C10 1_555 1_555
C19 C11 1_555 1_555
C20 C12 1_555 1_555
C21 C13 1_555 1_555
C22 C14 1_555 1_555
C24 C16 1_555 1_555
O12 C17 1_555 1_555
O13 C18 1_555 1_555
O14 H17 1_555 1_555
H19 O14 1_555 1_555
O16 Cu9 1_555 1_555
O17 Cu10 1_555 1_555
O18 Cu3 1_555 1_555
O19 Cu4 1_555 1_555
H21 O18 1_555 1_555
H23 O18 1_555 1_555
H24 O19 1_555 1_555
O21 C22 1_555 1_555
O22 Cu2 1_555 1_555
O23 Cu9 1_555 1_555
O25 Cu1 1_555 1_555
O26 C22 1_555 1_555
O27 Cu3 1_555 1_555
O28 Cu4 1_555 1_555
O29 Cu1 1_555 1_555
O30 Cu8 1_555 1_555
O31 Cu3 1_555 1_555
O32 Cu4 1_555 1_555
O33 Cu10 1_555 1_555
O34 C20 1_555 1_555
O38 Cu1 1_555 1_555
O39 Cu3 1_555 1_555
O40 Cu4 1_555 1_555
O42 Cu2 1_555 1_555
O43 Cu9 1_555 1_555
O45 Cu1 1_555 1_555
O46 Cu8 1_555 1_555
O47 Cu3 1_555 1_555
O48 Cu4 1_555 1_555
Cu2 O4 1_555 1_555
C3 C4 1_555 1_555
C3 O11 1_555 1_555
C5 O3 1_555 1_555
O7 Cu5 1_555 1_555
O11 Cu5 1_555 1_555
Cu9 O18 1_555 1_555
Cu10 O19 1_555 1_555
C11 O45 1_555 1_555
C12 O46 1_555 1_555
C13 C15 1_555 1_555
C13 O45 1_555 1_555
C14 C16 1_555 1_555
C14 O46 1_555 1_555
C17 O16 1_555 1_555
C18 O17 1_555 1_555
C19 O29 1_555 1_555
C19 O33 1_555 1_555
C20 O30 1_555 1_555
C21 O20 1_555 1_555
C21 O25 1_555 1_555
C24 O38 1_555 1_555
C24 O42 1_555 1_555
Cu1_2 O1_2 1_555 1_555
Cu16 O2_2 1_555 1_555
C1_2 H1_2 1_555 1_555
C2_2 C1_2 1_555 1_555
H2_2 C2_2 1_555 1_555
C3_2 H3_2 1_555 1_555
C4_2 C1_2 1_555 1_555
H4_2 C4_2 1_555 1_555
C5_2 C1_2 1_555 1_555
C6_2 C2_2 1_555 1_555
C7_2 C3_2 1_555 1_555
C8_2 C4_2 1_555 1_555
O1_2 C5_2 1_555 1_555
O2_2 H5_2 1_555 1_555
H6_2 O2_2 1_555 1_555
O3_2 Cu16 1_555 1_555
O4_2 Cu1_2 1_555 1_555
H7_2 O4_2 1_555 1_555
H8_2 O4_2 1_555 1_555
O5_2 C7_2 1_555 1_555
O6_2 C7_2 1_555 1_555
O7_2 C6_2 1_555 1_555
O8_2 C6_2 1_555 1_555
O9_2 C8_2 1_555 1_555
O10_2 C8_2 1_555 1_555
O11_2 C2_2 1_555 1_555
Cu3_2 O12_2 1_555 1_555
Cu4_2 O13_2 1_555 1_555
Cu5_2 O6_2 1_555 1_555
Cu8 O9_2 1_555 1_555
Cu7_2 O37_2 1_555 1_555
Cu6 O26_2 1_555 1_555
Cu10_2 O15_2 1_555 1_555
Cu13_2 O10_2 1_555 1_555
Cu14_2 O41_2 1_555 1_555
C9_2 H9_2 1_555 1_555
C10_2 H10_2 1_555 1_555
C11_2 C9_2 1_555 1_555
C12_2 C10_2 1_555 1_555
H11_2 C11_2 1_555 1_555
H12_2 C12_2 1_555 1_555
C13_2 H13_2 1_555 1_555
C14_2 H14_2 1_555 1_555
C15_2 C9_2 1_555 1_555
C16_2 C10_2 1_555 1_555
H15_2 C15_2 1_555 1_555
H16_2 C16_2 1_555 1_555
C17_2 C9_2 1_555 1_555
C18_2 C10_2 1_555 1_555
C19_2 C11_2 1_555 1_555
C20_2 C12_2 1_555 1_555
C21_2 C13_2 1_555 1_555
C22_2 C14_2 1_555 1_555
C23_2 C15_2 1_555 1_555
C24_2 C16_2 1_555 1_555
O12_2 C17_2 1_555 1_555
O13_2 C18_2 1_555 1_555
O15_2 H18_2 1_555 1_555
H20_2 O15_2 1_555 1_555
O16_2 Cu9_2 1_555 1_555
O17_2 Cu10_2 1_555 1_555
O18_2 Cu3_2 1_555 1_555
O19_2 Cu4_2 1_555 1_555
H22_2 O19_2 1_555 1_555
H23_2 O18_2 1_555 1_555
H24_2 O19_2 1_555 1_555
O20_2 Cu13_2 1_555 1_555
O21_2 C22_2 1_555 1_555
O22_2 Cu16 1_555 1_555
O24_2 Cu10_2 1_555 1_555
O25_2 Cu1_2 1_555 1_555
O26_2 C22_2 1_555 1_555
O27_2 Cu3_2 1_555 1_555
O28_2 Cu4_2 1_555 1_555
O29_2 Cu1_2 1_555 1_555
O30_2 Cu6 1_555 1_555
O31_2 Cu3_2 1_555 1_555
O32_2 Cu4_2 1_555 1_555
O33_2 Cu10_2 1_555 1_555
O35 C20_2 1_555 1_555
O36_2 Cu9_2 1_555 1_555
O37_2 C23_2 1_555 1_555
O38_2 Cu1_2 1_555 1_555
O39_2 Cu3_2 1_555 1_555
O40_2 Cu4_2 1_555 1_555
O41_2 C23_2 1_555 1_555
O42_2 Cu16 1_555 1_555
O44_2 Cu10_2 1_555 1_555
O45_2 Cu1_2 1_555 1_555
O46_2 Cu6 1_555 1_555
O47_2 Cu3_2 1_555 1_555
O48_2 Cu4_2 1_555 1_555
Cu16 O4_2 1_555 1_555
C3_2 C4_2 1_555 1_555
C3_2 O11_2 1_555 1_555
C5_2 O3_2 1_555 1_555
O7_2 Cu5_2 1_555 1_555
O11_2 Cu5_2 1_555 1_555
Cu9_2 O18_2 1_555 1_555
Cu10_2 O19_2 1_555 1_555
C11_2 O45_2 1_555 1_555
C12_2 O46_2 1_555 1_555
C13_2 C15_2 1_555 1_555
C13_2 O45_2 1_555 1_555
C14_2 C16_2 1_555 1_555
C14_2 O46_2 1_555 1_555
C17_2 O16_2 1_555 1_555
C18_2 O17_2 1_555 1_555
C19_2 O29_2 1_555 1_555
C19_2 O33_2 1_555 1_555
C20_2 O30_2 1_555 1_555
C21_2 O20_2 1_555 1_555
C21_2 O25_2 1_555 1_555
C24_2 O38_2 1_555 1_555
C24_2 O42_2 1_555 1_555
H19_2 O14_2 1_555 1_555
H19_3 O14_3 1_555 1_555
Cu1_3 O1_3 1_555 1_555
C1_3 H1_3 1_555 1_555
C2_3 C1_3 1_555 1_555
H2_3 C2_3 1_555 1_555
C3_3 H3_3 1_555 1_555
C4_3 C1_3 1_555 1_555
H4_3 C4_3 1_555 1_555
C5_3 C1_3 1_555 1_555
C6_3 C2_3 1_555 1_555
C7_3 C3_3 1_555 1_555
C8_3 C4_3 1_555 1_555
O1_3 C5_3 1_555 1_555
O3_3 Cu2_2 1_555 1_555
O4_3 Cu1_3 1_555 1_555
H8_3 O4_3 1_555 1_555
O5_3 C7_3 1_555 1_555
O6_3 C7_3 1_555 1_555
O7_3 C6_3 1_555 1_555
O8_3 C6_3 1_555 1_555
O9_3 C8_3 1_555 1_555
O10_3 C8_3 1_555 1_555
O11_3 C2_3 1_555 1_555
Cu3_3 O12_3 1_555 1_555
Cu5_3 O6_3 1_555 1_555
Cu6_2 O9_3 1_555 1_555
Cu11_3 O5_3 1_555 1_555
Cu13_2 O8_3 1_555 1_555
Cu12_2 O10_3 1_555 1_555
C11_3 C9_3 1_555 1_555
H11_3 C11_3 1_555 1_555
C13_3 H13_3 1_555 1_555
C15_3 C9_3 1_555 1_555
C17_3 C9_3 1_555 1_555
C19_3 C11_3 1_555 1_555
C21_3 C13_3 1_555 1_555
O12_3 C17_3 1_555 1_555
O16_3 Cu9_3 1_555 1_555
O18_3 Cu3_3 1_555 1_555
H23_3 O18_3 1_555 1_555
O20_3 Cu12_2 1_555 1_555
O25_3 Cu1_3 1_555 1_555
O27_3 Cu3_3 1_555 1_555
O29_3 Cu1_3 1_555 1_555
O31_3 Cu3_3 1_555 1_555
O35_2 Cu2_2 1_555 1_555
O38_3 Cu1_3 1_555 1_555
O39_3 Cu3_3 1_555 1_555
O45_3 Cu1_3 1_555 1_555
O47_3 Cu3_3 1_555 1_555
Cu2_2 O4_3 1_555 1_555
C3_3 C4_3 1_555 1_555
C3_3 O11_3 1_555 1_555
C5_3 O3_3 1_555 1_555
O7_3 Cu5_3 1_555 1_555
O11_3 Cu5_3 1_555 1_555
Cu9_3 O18_3 1_555 1_555
C11_3 O45_3 1_555 1_555
C13_3 C15_3 1_555 1_555
C13_3 O45_3 1_555 1_555
C17_3 O16_3 1_555 1_555
C19_3 O29_3 1_555 1_555
C19_3 O33_3 1_555 1_555
C21_3 O20_3 1_555 1_555
C21_3 O25_3 1_555 1_555
C24_3 O38_3 1_555 1_555
H6_3 O2_3 1_555 1_555
Cu7 O13_3 1_555 1_555
Cu8_2 O26_3 1_555 1_555
Cu15_3 O21_3 1_555 1_555
C12_3 C10_3 1_555 1_555
H12_3 C12_3 1_555 1_555
C14_3 H14_3 1_555 1_555
C16_3 C10_3 1_555 1_555
C18_3 C10_3 1_555 1_555
C20_3 C12_3 1_555 1_555
C22_3 C14_3 1_555 1_555
O13_3 C18_3 1_555 1_555
O17_3 Cu14 1_555 1_555
O19_3 Cu7 1_555 1_555
H24_3 O19_3 1_555 1_555
O21_3 C22_3 1_555 1_555
O26_3 C22_3 1_555 1_555
O28_3 Cu7 1_555 1_555
O30_3 Cu8_2 1_555 1_555
O32_3 Cu7 1_555 1_555
O34_2 C20_3 1_555 1_555
O46_3 Cu8_2 1_555 1_555
O48_3 Cu7 1_555 1_555
Cu14 O19_3 1_555 1_555
C12_3 O46_3 1_555 1_555
C14_3 C16_3 1_555 1_555
C14_3 O46_3 1_555 1_555
C18_3 O17_3 1_555 1_555
C20_3 O30_3 1_555 1_555
O40 C23_3 1_555 1_555
H20_3 O15_3 1_555 1_555
H6_4 O2_4 1_555 1_555
Cu7_2 O13_4 1_555 1_555
Cu6_2 O26_4 1_555 1_555
Cu14_2 O15_4 1_555 1_555
C12_4 C10_4 1_555 1_555
H12_4 C12_4 1_555 1_555
C14_4 H14_4 1_555 1_555
C16_4 C10_4 1_555 1_555
C18_4 C10_4 1_555 1_555
C20_4 C12_4 1_555 1_555
C22_4 C14_4 1_555 1_555
O13_4 C18_4 1_555 1_555
O15_4 H18_4 1_555 1_555
H20_4 O15_4 1_555 1_555
O17_4 Cu14_2 1_555 1_555
O19_4 Cu7_2 1_555 1_555
H22_4 O19_4 1_555 1_555
H24_4 O19_4 1_555 1_555
O21_4 C22_4 1_555 1_555
O24_4 Cu14_2 1_555 1_555
O26_4 C22_4 1_555 1_555
O28_4 Cu7_2 1_555 1_555
O30_4 Cu6_2 1_555 1_555
O32_4 Cu7_2 1_555 1_555
O35_2 C20_4 1_555 1_555
O46_4 Cu6_2 1_555 1_555
O48_4 Cu7_2 1_555 1_555
Cu14_2 O19_4 1_555 1_555
C12_4 O46_4 1_555 1_555
C14_4 C16_4 1_555 1_555
C14_4 O46_4 1_555 1_555
C18_4 O17_4 1_555 1_555
C20_4 O30_4 1_555 1_555
Cu1_4 O1_4 1_555 1_555
C2_4 C1_4 1_555 1_555
H2_4 C2_4 1_555 1_555
C3_4 H3_4 1_555 1_555
C4_4 C1_4 1_555 1_555
C5_4 C1_4 1_555 1_555
C6_4 C2_4 1_555 1_555
C7_4 C3_4 1_555 1_555
O1_4 C5_4 1_555 1_555
O3_4 Cu16_2 1_555 1_555
O4_4 Cu1_4 1_555 1_555
H8_4 O4_4 1_555 1_555
O5_4 C7_4 1_555 1_555
O6_4 C7_4 1_555 1_555
O7_4 C6_4 1_555 1_555
O8_4 C6_4 1_555 1_555
O11_4 C2_4 1_555 1_555
Cu3_4 O12_4 1_555 1_555
Cu5_4 O6_4 1_555 1_555
Cu9_4 O14_4 1_555 1_555
Cu11_4 O5_4 1_555 1_555
C9_4 H9_4 1_555 1_555
C11_4 C9_4 1_555 1_555
H11_4 C11_4 1_555 1_555
C13_4 H13_4 1_555 1_555
C15_4 C9_4 1_555 1_555
H15_4 C15_4 1_555 1_555
C17_4 C9_4 1_555 1_555
C19_4 C11_4 1_555 1_555
C21_4 C13_4 1_555 1_555
C23_4 C15_4 1_555 1_555
O12_4 C17_4 1_555 1_555
O14_4 H17_4 1_555 1_555
H19_4 O14_4 1_555 1_555
O16_4 Cu9_4 1_555 1_555
O18_4 Cu3_4 1_555 1_555
H21_4 O18_4 1_555 1_555
H23_4 O18_4 1_555 1_555
O23_4 Cu9_4 1_555 1_555
O25_4 Cu1_4 1_555 1_555
O27_4 Cu3_4 1_555 1_555
O29_4 Cu1_4 1_555 1_555
O31_4 Cu3_4 1_555 1_555
O36_4 Cu9_4 1_555 1_555
O40_2 C23_4 1_555 1_555
O38_4 Cu1_4 1_555 1_555
O39_4 Cu3_4 1_555 1_555
O44_2 C23_4 1_555 1_555
O43_4 Cu9_4 1_555 1_555
O45_4 Cu1_4 1_555 1_555
O47_4 Cu3_4 1_555 1_555
Cu16_2 O4_4 1_555 1_555
C3_4 C4_4 1_555 1_555
C3_4 O11_4 1_555 1_555
C5_4 O3_4 1_555 1_555
O7_4 Cu5_4 1_555 1_555
O11_4 Cu5_4 1_555 1_555
Cu9_4 O18_4 1_555 1_555
C11_4 O45_4 1_555 1_555
C13_4 C15_4 1_555 1_555
C13_4 O45_4 1_555 1_555
C17_4 O16_4 1_555 1_555
C19_4 O29_4 1_555 1_555
C19_4 O33_4 1_555 1_555
C21_4 O20_4 1_555 1_555
C21_4 O25_4 1_555 1_555
C24_4 O38_4 1_555 1_555
O9_4 C8_4 1_555 1_555
Cu8_2 O9_4 1_555 1_555
Cu7_3 O37_3 1_555 1_555
H20_5 O15_5 1_555 1_555
O37_3 C23_5 1_555 1_555
Cu5 O12_5 1_555 1_555
Cu4_3 O13_5 1_555 1_555
Cu15_3 O14_5 1_555 1_555
C10_5 H10_5 1_555 1_555
C11_5 C9_5 1_555 1_555
C12_5 C10_5 1_555 1_555
H11_5 C11_5 1_555 1_555
H12_5 C12_5 1_555 1_555
C13_5 H13_5 1_555 1_555
C14_5 H14_5 1_555 1_555
C15_5 C9_5 1_555 1_555
C16_5 C10_5 1_555 1_555
H16_5 C16_5 1_555 1_555
C17_5 C9_5 1_555 1_555
C18_5 C10_5 1_555 1_555
C19_5 C11_5 1_555 1_555
C20_5 C12_5 1_555 1_555
C21_5 C13_5 1_555 1_555
C22_5 C14_5 1_555 1_555
C24_5 C16_5 1_555 1_555
O12_5 C17_5 1_555 1_555
O13_5 C18_5 1_555 1_555
O14_5 H17_5 1_555 1_555
H19_5 O14_5 1_555 1_555
O16_5 Cu15_3 1_555 1_555
O17_5 Cu11_2 1_555 1_555
O18_5 Cu5 1_555 1_555
O19_5 Cu4_3 1_555 1_555
H21_5 O18_5 1_555 1_555
H23_5 O18_5 1_555 1_555
H24_5 O19_5 1_555 1_555
O22_2 C22_5 1_555 1_555
O28_2 C22_5 1_555 1_555
O28_5 Cu4_3 1_555 1_555
O32_5 Cu4_3 1_555 1_555
O33_5 Cu11_2 1_555 1_555
O36_4 C20_5 1_555 1_555
O39_5 Cu5 1_555 1_555
O40_3 Cu4_3 1_555 1_555
O43_5 Cu15_3 1_555 1_555
O48_5 Cu4_3 1_555 1_555
Cu15_3 O18_5 1_555 1_555
Cu11_2 O19_5 1_555 1_555
C11_5 O47 1_555 1_555
C12_5 O48_2 1_555 1_555
C13_5 C15_5 1_555 1_555
C13_5 O47 1_555 1_555
C14_5 C16_5 1_555 1_555
C14_5 O48_2 1_555 1_555
C17_5 O16_5 1_555 1_555
C18_5 O17_5 1_555 1_555
C19_5 O31 1_555 1_555
C19_5 O33_5 1_555 1_555
C20_5 O32_2 1_555 1_555
C21_5 O24_3 1_555 1_555
C21_5 O27 1_555 1_555
C24_5 O39 1_555 1_555
C24_5 O43 1_555 1_555
Cu5_4 O12_6 1_555 1_555
Cu4_4 O13_6 1_555 1_555
Cu7_4 O37_4 1_555 1_555
Cu11_3 O15_6 1_555 1_555
Cu11_4 O41_4 1_555 1_555
C9_6 H9_6 1_555 1_555
C10_6 H10_6 1_555 1_555
C11_6 C9_6 1_555 1_555
C12_6 C10_6 1_555 1_555
H11_6 C11_6 1_555 1_555
H12_6 C12_6 1_555 1_555
C13_6 H13_6 1_555 1_555
C14_6 H14_6 1_555 1_555
C15_6 C9_6 1_555 1_555
C16_6 C10_6 1_555 1_555
H15_6 C15_6 1_555 1_555
H16_6 C16_6 1_555 1_555
C17_6 C9_6 1_555 1_555
C18_6 C10_6 1_555 1_555
C19_6 C11_6 1_555 1_555
C20_6 C12_6 1_555 1_555
C21_6 C13_6 1_555 1_555
C22_6 C14_6 1_555 1_555
C23_6 C15_6 1_555 1_555
C24_6 C16_6 1_555 1_555
O12_6 C17_6 1_555 1_555
O13_6 C18_6 1_555 1_555
O15_6 H18_6 1_555 1_555
H20_6 O15_6 1_555 1_555
O16_6 Cu15_2 1_555 1_555
O17_6 Cu11_3 1_555 1_555
O18_6 Cu5_4 1_555 1_555
O19_6 Cu4_4 1_555 1_555
H22_6 O19_6 1_555 1_555
H23_6 O18_6 1_555 1_555
H24_6 O19_6 1_555 1_555
O22_3 C22_6 1_555 1_555
O28_3 C22_6 1_555 1_555
O28_6 Cu4_4 1_555 1_555
O32_6 Cu4_4 1_555 1_555
O33_6 Cu11_3 1_555 1_555
O36 C20_6 1_555 1_555
O36_6 Cu15_2 1_555 1_555
O37_4 C23_6 1_555 1_555
O39_6 Cu5_4 1_555 1_555
O40_4 Cu4_4 1_555 1_555
O41_4 C23_6 1_555 1_555
O44_4 Cu11_3 1_555 1_555
O48_6 Cu4_4 1_555 1_555
Cu15_2 O18_6 1_555 1_555
Cu11_3 O19_6 1_555 1_555
C11_6 O47_4 1_555 1_555
C12_6 O48_3 1_555 1_555
C13_6 C15_6 1_555 1_555
C13_6 O47_4 1_555 1_555
C14_6 C16_6 1_555 1_555
C14_6 O48_3 1_555 1_555
C17_6 O16_6 1_555 1_555
C18_6 O17_6 1_555 1_555
C19_6 O31_4 1_555 1_555
C19_6 O33_6 1_555 1_555
C20_6 O32_3 1_555 1_555
C21_6 O24_2 1_555 1_555
C21_6 O27_4 1_555 1_555
C24_6 O39_4 1_555 1_555
C24_6 O43_4 1_555 1_555
H19_6 O14_6 1_555 1_555
H19_7 O14_7 1_555 1_555
Cu5_2 O12_7 1_555 1_555
C11_7 C9_7 1_555 1_555
H11_7 C11_7 1_555 1_555
C13_7 H13_7 1_555 1_555
C15_7 C9_7 1_555 1_555
C17_7 C9_7 1_555 1_555
C19_7 C11_7 1_555 1_555
C21_7 C13_7 1_555 1_555
O12_7 C17_7 1_555 1_555
O16_7 Cu15_4 1_555 1_555
O18_7 Cu5_2 1_555 1_555
H23_7 O18_7 1_555 1_555
O39_7 Cu5_2 1_555 1_555
Cu15_4 O18_7 1_555 1_555
C11_7 O47_2 1_555 1_555
C13_7 C15_7 1_555 1_555
C13_7 O47_2 1_555 1_555
C17_7 O16_7 1_555 1_555
C19_7 O31_2 1_555 1_555
C19_7 O33_7 1_555 1_555
C21_7 O24_4 1_555 1_555
C21_7 O27_2 1_555 1_555
C24_7 O39_2 1_555 1_555
Cu7_3 O13_7 1_555 1_555
C12_7 C10_7 1_555 1_555
H12_7 C12_7 1_555 1_555
C14_7 H14_7 1_555 1_555
C16_7 C10_7 1_555 1_555
C18_7 C10_7 1_555 1_555
C20_7 C12_7 1_555 1_555
C22_7 C14_7 1_555 1_555
O13_7 C18_7 1_555 1_555
O17_7 Cu11 1_555 1_555
O19_7 Cu7_3 1_555 1_555
H24_7 O19_7 1_555 1_555
O22 C22_7 1_555 1_555
O28 C22_7 1_555 1_555
O28_7 Cu7_3 1_555 1_555
O32_7 Cu7_3 1_555 1_555
O36_3 C20_7 1_555 1_555
O48_7 Cu7_3 1_555 1_555
Cu11 O19_7 1_555 1_555
C12_7 O48 1_555 1_555
C14_7 C16_7 1_555 1_555
C14_7 O48 1_555 1_555
C18_7 O17_7 1_555 1_555
C20_7 O32 1_555 1_555
O40_3 C23_7 1_555 1_555
H20_7 O15_7 1_555 1_555
Cu7_4 O13_8 1_555 1_555
Cu11_4 O15_8 1_555 1_555
C12_8 C10_8 1_555 1_555
H12_8 C12_8 1_555 1_555
C14_8 H14_8 1_555 1_555
C16_8 C10_8 1_555 1_555
C18_8 C10_8 1_555 1_555
C20_8 C12_8 1_555 1_555
C22_8 C14_8 1_555 1_555
O13_8 C18_8 1_555 1_555
O15_8 H18_8 1_555 1_555
H20_8 O15_8 1_555 1_555
O17_8 Cu11_4 1_555 1_555
O19_8 Cu7_4 1_555 1_555
H22_8 O19_8 1_555 1_555
H24_8 O19_8 1_555 1_555
O22_4 C22_8 1_555 1_555
O28_4 C22_8 1_555 1_555
O28_8 Cu7_4 1_555 1_555
O32_8 Cu7_4 1_555 1_555
O36_2 C20_8 1_555 1_555
O48_8 Cu7_4 1_555 1_555
Cu11_4 O19_8 1_555 1_555
C12_8 O48_4 1_555 1_555
C14_8 C16_8 1_555 1_555
C14_8 O48_4 1_555 1_555
C18_8 O17_8 1_555 1_555
C20_8 O32_4 1_555 1_555
Cu5_3 O12_8 1_555 1_555
Cu15 O14_8 1_555 1_555
C9_8 H9_8 1_555 1_555
C11_8 C9_8 1_555 1_555
H11_8 C11_8 1_555 1_555
C13_8 H13_8 1_555 1_555
C15_8 C9_8 1_555 1_555
H15_8 C15_8 1_555 1_555
C17_8 C9_8 1_555 1_555
C19_8 C11_8 1_555 1_555
C21_8 C13_8 1_555 1_555
C23_8 C15_8 1_555 1_555
O12_8 C17_8 1_555 1_555
O14_8 H17_8 1_555 1_555
H19_8 O14_8 1_555 1_555
O16_8 Cu15 1_555 1_555
O18_8 Cu5_3 1_555 1_555
H21_8 O18_8 1_555 1_555
H23_8 O18_8 1_555 1_555
O36_8 Cu15 1_555 1_555
O40_4 C23_8 1_555 1_555
O39_8 Cu5_3 1_555 1_555
O44_4 C23_8 1_555 1_555
O43_8 Cu15 1_555 1_555
Cu15 O18_8 1_555 1_555
C11_8 O47_3 1_555 1_555
C13_8 C15_8 1_555 1_555
C13_8 O47_3 1_555 1_555
C17_8 O16_8 1_555 1_555
C19_8 O31_3 1_555 1_555
C19_8 O33_8 1_555 1_555
C21_8 O24 1_555 1_555
C21_8 O27_3 1_555 1_555
C24_8 O39_3 1_555 1_555
H20_9 O15_9 1_555 1_555
Cu8_2 O13_9 1_555 1_555
C10_9 H10_9 1_555 1_555
C12_9 C10_9 1_555 1_555
H12_9 C12_9 1_555 1_555
C14_9 H14_9 1_555 1_555
C16_9 C10_9 1_555 1_555
H16_9 C16_9 1_555 1_555
C18_9 C10_9 1_555 1_555
C20_9 C12_9 1_555 1_555
C22_9 C14_9 1_555 1_555
C24_9 C16_9 1_555 1_555
O13_9 C18_9 1_555 1_555
O17_9 Cu12 1_555 1_555
O19_9 Cu8_2 1_555 1_555
H24_9 O19_9 1_555 1_555
O23_4 C22_9 1_555 1_555
O28_6 C22_9 1_555 1_555
O36_8 C20_9 1_555 1_555
Cu12 O19_9 1_555 1_555
C12_9 O48_6 1_555 1_555
C14_9 C16_9 1_555 1_555
C14_9 O48_6 1_555 1_555
C18_9 O17_9 1_555 1_555
C20_9 O32_6 1_555 1_555
C24_9 O39_5 1_555 1_555
C24_9 O43_5 1_555 1_555
Cu8 O13_10 1_555 1_555
Cu13_2 O15_10 1_555 1_555
C10_10 H10_10 1_555 1_555
C12_10 C10_10 1_555 1_555
H12_10 C12_10 1_555 1_555
C14_10 H14_10 1_555 1_555
C16_10 C10_10 1_555 1_555
H16_10 C16_10 1_555 1_555
C18_10 C10_10 1_555 1_555
C20_10 C12_10 1_555 1_555
C22_10 C14_10 1_555 1_555
C24_10 C16_10 1_555 1_555
O13_10 C18_10 1_555 1_555
O15_10 H18_10 1_555 1_555
H20_10 O15_10 1_555 1_555
O17_10 Cu13_2 1_555 1_555
O19_10 Cu8 1_555 1_555
H22_10 O19_10 1_555 1_555
H24_10 O19_10 1_555 1_555
O23_2 C22_10 1_555 1_555
O28_7 C22_10 1_555 1_555
O36_5 C20_10 1_555 1_555
Cu13_2 O19_10 1_555 1_555
C12_10 O48_7 1_555 1_555
C14_10 C16_10 1_555 1_555
C14_10 O48_7 1_555 1_555
C18_10 O17_10 1_555 1_555
C20_10 O32_7 1_555 1_555
C24_10 O39_8 1_555 1_555
C24_10 O43_8 1_555 1_555
C24_11 O39_6 1_555 1_555
Cu6 O13_11 1_555 1_555
C12_11 C10_11 1_555 1_555
H12_11 C12_11 1_555 1_555
C14_11 H14_11 1_555 1_555
C16_11 C10_11 1_555 1_555
C18_11 C10_11 1_555 1_555
C20_11 C12_11 1_555 1_555
C22_11 C14_11 1_555 1_555
O13_11 C18_11 1_555 1_555
O17_11 Cu13 1_555 1_555
O19_11 Cu6 1_555 1_555
H24_11 O19_11 1_555 1_555
O23 C22_11 1_555 1_555
O28_5 C22_11 1_555 1_555
O36_7 C20_11 1_555 1_555
Cu13 O19_11 1_555 1_555
C12_11 O48_5 1_555 1_555
C14_11 C16_11 1_555 1_555
C14_11 O48_5 1_555 1_555
C18_11 O17_11 1_555 1_555
C20_11 O32_5 1_555 1_555
H20_11 O15_11 1_555 1_555
Cu6_2 O13_12 1_555 1_555
Cu12_2 O15_12 1_555 1_555
C12_12 C10_12 1_555 1_555
H12_12 C12_12 1_555 1_555
C14_12 H14_12 1_555 1_555
C16_12 C10_12 1_555 1_555
C18_12 C10_12 1_555 1_555
C20_12 C12_12 1_555 1_555
C22_12 C14_12 1_555 1_555
O13_12 C18_12 1_555 1_555
O15_12 H18_12 1_555 1_555
H20_12 O15_12 1_555 1_555
O17_12 Cu12_2 1_555 1_555
O19_12 Cu6_2 1_555 1_555
H22_12 O19_12 1_555 1_555
H24_12 O19_12 1_555 1_555
O23_3 C22_12 1_555 1_555
O28_8 C22_12 1_555 1_555
O36_6 C20_12 1_555 1_555
Cu12_2 O19_12 1_555 1_555
C12_12 O48_8 1_555 1_555
C14_12 C16_12 1_555 1_555
C14_12 O48_8 1_555 1_555
C18_12 O17_12 1_555 1_555
C20_12 O32_8 1_555 1_555
C24_12 O39_7 1_555 1_555

#END
