
###############################################################################
#
# This file contains modified crystal structure data generated from the
# MOF subset of the Cambridge Structural Database (CSD) v543 
# hosted by the Cambridge Crystallographic Data Centre (CCDC).
#
# This work is licensed under the Creative Commons
# Attribution-NonCommercial-ShareAlike 4.0 International License.
# To view a copy of this license, visit
# http://creativecommons.org/licenses/by-nc-sa/4.0/
# or send a letter to
# Creative Commons, PO Box 1866, Mountain View, CA 94042, USA.
#
# CIF created using the CSD Python API on 29 September 2022
# The structure has been converted into the P1 space group
# The structure has a 3D framework
# The original CSD entry VUPROQ is in the monoclinic crystal system
# The framework has been calculated to contain at least 10.0% void space
# The void calculation uses a probe of radius 1.32A, grid spacing 0.4
# H atom positions have been added when not included in the experimental data
# Generated hydrogen atom positions removed from atoms on special positions
#
###############################################################################

data_VUPROQ
_chemical_formula_moiety         '(C96 H128 Cd8 N46 O252 P8 W72)n'
_symmetry_cell_setting           triclinic
_symmetry_space_group_name_H-M   'P 1'
_symmetry_Int_Tables_number      1
_space_group_name_Hall           'P 1'
loop_
_symmetry_equiv_pos_site_id
_symmetry_equiv_pos_as_xyz
1 x,y,z
_cell_length_a                   12.5715(5)
_cell_length_b                   30.6660(13)
_cell_length_c                   23.1469(10)
_cell_angle_alpha                90
_cell_angle_beta                 96.8760(10)
_cell_angle_gamma                90
_cell_volume                     8859.36
loop_
_atom_site_label
_atom_site_type_symbol
_atom_site_fract_x
_atom_site_fract_y
_atom_site_fract_z
W1 W 0.07041(5) 0.79810(2) 0.44596(3)
Cd1 Cd 0.18711(8) 0.47944(3) 0.27383(4)
P1 P 0.2450(3) 0.79164(11) 0.57627(14)
O1 O 0.2693(7) 0.8416(3) 0.5746(4)
O2 O 0.0536(11) 0.4559(5) 0.2065(6)
N1 N 0.3329(10) 0.5416(4) 0.3617(5)
C1 C 0.3340(14) 0.4791(6) 0.4029(7)
H1 H 0.3231 0.4497 0.4102
W2 W 0.17159(5) 0.896835(19) 0.61773(3)
Cd2 Cd 0.30818(8) 0.59848(3) 0.29513(4)
N2 N 0.2994(10) 0.4986(4) 0.3554(5)
P2 P 0.1793(3) 0.66530(11) 0.58071(14)
O3 O 0.2520(7) 0.7782(3) 0.6406(4)
C2 C 0.3873(10) 0.5062(5) 0.4402(6)
O4 O 0.1310(7) 0.7855(3) 0.5456(4)
C3 C 0.3879(12) 0.5446(6) 0.4136(7)
H2 H 0.4219 0.5696 0.4292
N3 N 0.2249(11) 0.1657(4) 0.2398(5)
W4 W 0.27382(5) 0.560834(19) 0.62467(3)
O5 O 0.3279(7) 0.7687(3) 0.5448(4)
C4 C 0.4406(13) 0.4975(7) 0.4999(8)
H3 H 0.4241 0.4681 0.5117
H4 H 0.4148 0.5178 0.5272
N4 N 0.2149(17) 0.1702(5) 0.2980(6)
W5 W 0.08499(5) 0.68071(2) 0.71566(3)
O6 O 0.0798(7) 0.6879(3) 0.5496(4)
C5 C 0.2297(15) 0.2047(5) 0.2193(8)
H5 H 0.2354 0.2108 0.1804
O7 O 0.1532(7) 0.6149(3) 0.5820(4)
C6 C 0.2255(10) 0.2355(4) 0.2602(6)
O8 O 0.2771(7) 0.6706(3) 0.5477(4)
W7 W 0.14369(5) 0.80035(2) 0.71009(2)
N7 N 0.0876(10) 0.5407(4) 0.2888(6)
C7 C 0.2164(15) 0.2128(6) 0.3067(8)
H6 H 0.2114 0.2253 0.3428
W8 W 0.01066(5) 0.583111(19) 0.62540(3)
O9 O 0.2030(7) 0.6801(3) 0.6439(4)
N8 N 0.1224(9) 0.5827(4) 0.2939(5)
C8 C 0.2247(14) 0.2822(5) 0.2524(9)
H7 H 0.1799 0.2952 0.2791
H8 H 0.1929 0.2889 0.2132
N9 N 0.2746(10) 0.4165(4) 0.2623(6)
W9 W 0.45557(4) 0.644175(19) 0.57535(3)
C9 C 0.3317(15) 0.3021(6) 0.2621(9)
H9 H 0.3770 0.2902 0.2349
H10 H 0.3646 0.2959 0.3013
W10 W 0.27164(5) 0.884712(19) 0.48954(3)
O11 O 0.0302(8) 0.7987(3) 0.6486(4)
N10 N 0.3186(13) 0.4126(5) 0.2113(7)
C10 C 0.3208(11) 0.3499(5) 0.2536(7)
N11 N 0.2668(12) 0.5182(5) 0.2042(6)
W11 W 0.35618(5) 0.775075(19) 0.44613(3)
C11 C 0.2772(13) 0.3785(5) 0.2866(8)
H11 H 0.2523 0.3722 0.3219
N12 N 0.2965(11) 0.5611(4) 0.2085(5)
W12 W 0.00395(5) 0.67904(2) 0.45137(3)
O13 O 0.1485(7) 0.6777(3) 0.4367(4)
C12 C 0.3440(15) 0.3716(6) 0.2072(9)
H12 H 0.3739 0.3593 0.1761
W13 W 0.40733(5) 0.77916(2) 0.71180(3)
W14 W 0.29029(5) 0.655894(18) 0.45090(2)
O15 O 0.0084(8) 0.5574(3) 0.5506(4)
W15 W 0.43599(5) 0.87423(2) 0.61597(3)
O16 O 0.4806(8) 0.7597(3) 0.6489(4)
C15 C 0.0399(11) 0.6071(5) 0.2976(7)
H14 H 0.0420 0.6371 0.3030
W16 W 0.51539(5) 0.76419(2) 0.57229(3)
O17 O 0.1931(8) 0.9176(3) 0.5410(4)
W17 W 0.11129(5) 0.570425(19) 0.49741(3)
O18 O 0.0236(8) 0.6193(3) 0.4705(4)
W18 W 0.34598(5) 0.65913(2) 0.71421(2)
O19 O 0.2199(8) 0.6629(3) 0.7527(4)
O21 O 0.3206(8) 0.9094(3) 0.6396(4)
O22 O 0.0561(8) 0.6232(3) 0.6865(4)
C21 C 0.2641(16) 0.5085(8) 0.1466(9)
H21 H 0.2503 0.4811 0.1301
O23 O 0.2134(8) 0.5391(3) 0.5493(4)
C22 C 0.3099(17) 0.5748(6) 0.1573(7)
H22 H 0.3345 0.6026 0.1495
O24 O 0.1337(8) 0.5493(3) 0.6494(4)
C23 C 0.2845(15) 0.5449(6) 0.1173(7)
C24 C 0.282(3) 0.5475(13) 0.0464(16)
H23 H 0.2571 0.5203 0.0294
H24 H 0.3530 0.5533 0.0368
H25 H 0.2349 0.5705 0.0314
O26 O 0.4300(7) 0.6591(3) 0.6517(4)
O27 O 0.4937(8) 0.7719(3) 0.4891(4)
O28 O 0.3470(8) 0.8355(3) 0.4618(4)
O29 O 0.2053(8) 0.7756(3) 0.4320(4)
O30 O 0.3986(9) 0.8985(3) 0.5396(5)
O31 O 0.3761(7) 0.5917(3) 0.5866(4)
O32 O 0.2888(8) 0.7985(3) 0.7490(4)
O33 O 0.4218(7) 0.6361(3) 0.4931(4)
O34 O 0.1474(8) 0.8525(3) 0.4633(4)
O35 O 0.2995(8) 0.6014(3) 0.6857(4)
O36 O 0.0520(8) 0.8651(3) 0.5827(4)
O37 O 0.4981(8) 0.8265(3) 0.5810(5)
O38 O 0.4210(9) 0.8366(3) 0.6795(5)
O39 O 0.3666(9) 0.7200(3) 0.7216(4)
O40 O 0.1326(8) 0.7396(3) 0.7217(4)
O41 O 0.0168(8) 0.7416(3) 0.4515(4)
O42 O 0.2246(7) 0.6018(3) 0.4703(4)
O43 O 0.1744(8) 0.8576(3) 0.6804(4)
O44 O 0.4911(7) 0.7028(3) 0.5623(4)
O45 O 0.3447(7) 0.7129(3) 0.4500(4)
O46 O 0.3116(8) 0.6397(3) 0.3825(4)
O47 O 0.5084(9) 0.7836(4) 0.7671(5)
O49 O 0.5816(7) 0.6226(3) 0.5851(4)
O51 O 0.0131(9) 0.8107(4) 0.3782(5)
O52 O 0.0803(9) 0.5335(4) 0.4443(5)
O55 O 0.0813(9) 0.8167(4) 0.7681(4)
O56 O 0.6504(9) 0.7639(4) 0.5794(5)
O57 O 0.2798(10) 0.9210(3) 0.4347(5)
O58 O 0.4334(10) 0.6408(4) 0.7702(5)
O59 O 0.1143(10) 0.9421(3) 0.6440(5)
O60 O 0.3938(8) 0.7790(3) 0.3776(4)
O61 O 0.3442(9) 0.5171(3) 0.6504(5)
O62 O 0.0150(9) 0.6797(4) 0.7741(4)
O63 O 0.5429(9) 0.9054(4) 0.6413(6)
N13 N 0.6671(10) 0.4584(4) 0.6383(5)
C25 C 0.6660(14) 0.5209(6) 0.5971(7)
H26 H 0.6769 0.5503 0.5898
N14 N 0.7006(10) 0.5014(4) 0.6446(5)
C26 C 0.6127(10) 0.4938(5) 0.5598(6)
C27 C 0.6121(12) 0.4554(6) 0.5864(7)
H27 H 0.5781 0.4304 0.5708
C28 C 0.5594(13) 0.5025(7) 0.5001(8)
H28 H 0.5759 0.5319 0.4883
H29 H 0.5852 0.4822 0.4728
W21 W 0.09331(5) 0.30753(2) 0.42096(3)
N17 N 0.4570(11) 0.3879(6) 0.6368(7)
W24 W 0.03250(5) 0.187651(19) 0.42808(3)
N18 N 0.5063(10) 0.4010(4) 0.6901(6)
O73 O 0.0761(7) 0.2466(3) 0.4341(4)
O75 O 0.0671(8) 0.3694(3) 0.4096(4)
O77 O 0.0201(8) 0.3006(3) 0.3454(4)
C37 C 0.0147(13) 0.4582(6) 0.7111(10)
H38 H 0.0584 0.4827 0.7134
C38 C 0.0501(10) 0.4175(4) 0.7073(6)
C40 C 0.1603(12) 0.4009(5) 0.7057(9)
H40 H 0.1598 0.3794 0.6749
H41 H 0.1843 0.3866 0.7423
C41 C 0.2345(17) 0.4353(7) 0.6959(14)
H42 H 0.2060 0.4522 0.6622
H43 H 0.2430 0.4546 0.7293
C42 C 0.3381(11) 0.4175(5) 0.6866(7)
O83 O 0.1108(8) 0.3168(3) 0.5029(4)
C43 C 0.3581(14) 0.3948(8) 0.6332(8)
H44 H 0.3071 0.3870 0.6025
C44 C 0.4304(16) 0.4193(6) 0.7159(9)
H45 H 0.4429 0.4325 0.7523
O88 O 0.0393(7) 0.1812(3) 0.5097(4)
O111 O 0.0656(9) 0.3275(4) 0.6164(4)
O113 O 0.1511(8) 0.1649(3) 0.4183(5)
O116 O 0.2230(9) 0.3088(4) 0.4065(5)
O117 O 0.0860(8) 0.4459(3) 0.3450(4)
Cd5 Cd 0.81289(8) 0.52056(3) 0.72617(4)
Cd7 Cd 0.19182(8) 0.09848(3) 0.20487(4)
Cd8 Cd 0.69182(8) 0.40152(3) 0.70487(4)
N27 N 0.2751(11) 0.6657(4) 0.2602(5)
N29 N 0.4937(10) 0.5990(4) 0.3099(6)
H53 H 0.207944 0.146243 0.327572
H55 H 0.329296 0.436712 0.182514
H58 H 0.495166 0.374531 0.604849
W3 W 0.90669(5) 0.69247(2) 0.57904(3)
N5 N 0.5430(11) 0.6121(6) 0.3632(7)
W6 W 0.96750(5) 0.812349(19) 0.57192(3)
O10 O 0.9239(7) 0.7534(3) 0.5659(4)
O12 O 0.9329(8) 0.6306(3) 0.5904(4)
O14 O 0.9799(8) 0.6994(3) 0.6546(4)
C13 C 0.9853(13) 0.5418(6) 0.2889(10)
H13 H 0.9416 0.5173 0.2866
C14 C 0.9499(10) 0.5825(4) 0.2927(6)
C16 C 0.8397(12) 0.5991(5) 0.2943(9)
H15 H 0.8402 0.6206 0.3251
H16 H 0.8157 0.6134 0.2577
C17 C 0.7655(17) 0.5647(7) 0.3041(14)
H17 H 0.7940 0.5478 0.3378
H18 H 0.7570 0.5454 0.2707
C18 C 0.6619(11) 0.5825(5) 0.3134(7)
O20 O 0.8892(8) 0.6832(3) 0.4971(4)
C19 C 0.6419(14) 0.6052(8) 0.3668(8)
H19 H 0.6929 0.6130 0.3975
C20 C 0.5696(16) 0.5807(6) 0.2841(9)
H20 H 0.5571 0.5675 0.2477
O25 O 0.9607(7) 0.8188(3) 0.4903(4)
O48 O 0.9344(9) 0.6725(4) 0.3836(4)
O50 O 0.8489(8) 0.8351(3) 0.5817(5)
O53 O 0.7770(9) 0.6912(4) 0.5935(5)
O54 O 0.9140(8) 0.5541(3) 0.6550(4)
W19 W 0.92959(5) 0.20190(2) 0.55404(3)
P3 P 0.7550(3) 0.20836(11) 0.42373(14)
O64 O 0.7307(7) 0.1584(3) 0.4254(4)
O65 O 0.9464(11) 0.5441(5) 0.7935(6)
W20 W 0.82841(5) 0.103165(19) 0.38227(3)
P4 P 0.8207(3) 0.33470(11) 0.41929(14)
O66 O 0.7480(7) 0.2218(3) 0.3594(4)
O67 O 0.8690(7) 0.2145(3) 0.4544(4)
N15 N 0.7751(11) 0.8343(4) 0.7602(5)
W22 W 0.72618(5) 0.439166(19) 0.37533(3)
O68 O 0.6721(7) 0.2313(3) 0.4552(4)
N16 N 0.7851(17) 0.8298(5) 0.7020(6)
W23 W 0.91501(5) 0.31929(2) 0.28434(3)
O69 O 0.9202(7) 0.3121(3) 0.4504(4)
C29 C 0.7703(15) 0.7953(5) 0.7807(8)
H30 H 0.7646 0.7892 0.8196
O70 O 0.8468(7) 0.3851(3) 0.4180(4)
C30 C 0.7745(10) 0.7645(4) 0.7398(6)
O71 O 0.7229(7) 0.3294(3) 0.4523(4)
W25 W 0.85631(5) 0.19965(2) 0.28991(2)
N19 N 0.9124(10) 0.4593(4) 0.7112(6)
C31 C 0.7836(15) 0.7872(6) 0.6933(8)
H31 H 0.7886 0.7747 0.6572
W26 W 0.98934(5) 0.416889(19) 0.37460(3)
O72 O 0.7970(7) 0.3199(3) 0.3561(4)
N20 N 0.8776(9) 0.4173(4) 0.7061(5)
C32 C 0.7753(14) 0.7178(5) 0.7476(9)
H32 H 0.8201 0.7048 0.7209
H33 H 0.8071 0.7111 0.7868
N21 N 0.7254(10) 0.5835(4) 0.7377(6)
W27 W 0.54443(4) 0.355825(19) 0.42465(3)
C33 C 0.6683(15) 0.6979(6) 0.7379(9)
H34 H 0.6230 0.7098 0.7651
H35 H 0.6354 0.7041 0.6987
W28 W 0.72836(5) 0.115288(19) 0.51046(3)
O74 O 0.9698(8) 0.2013(3) 0.3514(4)
N22 N 0.6814(13) 0.5874(5) 0.7887(7)
C34 C 0.6792(11) 0.6501(5) 0.7464(7)
N23 N 0.7332(12) 0.4818(5) 0.7958(6)
W29 W 0.64382(5) 0.224925(19) 0.55387(3)
C35 C 0.7228(13) 0.6215(5) 0.7134(8)
H36 H 0.7477 0.6278 0.6781
N24 N 0.7035(11) 0.4389(4) 0.7915(5)
W30 W 0.99605(5) 0.32096(2) 0.54863(3)
O76 O 0.8515(7) 0.3223(3) 0.5633(4)
C36 C 0.6560(15) 0.6284(6) 0.7928(9)
H37 H 0.6261 0.6407 0.8239
W31 W 0.59267(5) 0.22084(2) 0.28820(3)
W32 W 0.70971(5) 0.344106(18) 0.54910(2)
O78 O 0.9916(8) 0.4426(3) 0.4494(4)
W33 W 0.56401(5) 0.12577(2) 0.38403(3)
O79 O 0.5194(8) 0.2403(3) 0.3511(4)
C39 C 0.9601(11) 0.3929(5) 0.7024(7)
H39 H 0.9580 0.3629 0.6970
W34 W 0.48461(5) 0.23581(2) 0.42771(3)
O80 O 0.8069(8) 0.0824(3) 0.4590(4)
W35 W 0.88871(5) 0.429575(19) 0.50259(3)
O81 O 0.9764(8) 0.3807(3) 0.5295(4)
W36 W 0.65402(5) 0.34087(2) 0.28579(2)
O82 O 0.7801(8) 0.3371(3) 0.2473(4)
O84 O 0.6794(8) 0.0906(3) 0.3604(4)
O85 O 0.9439(8) 0.3768(3) 0.3135(4)
C45 C 0.7359(16) 0.4915(8) 0.8534(9)
H46 H 0.7497 0.5189 0.8699
O86 O 0.7866(8) 0.4609(3) 0.4507(4)
C46 C 0.6901(17) 0.4252(6) 0.8427(7)
H47 H 0.6655 0.3974 0.8505
O87 O 0.8663(8) 0.4507(3) 0.3506(4)
C47 C 0.7155(15) 0.4551(6) 0.8827(7)
C48 C 0.718(3) 0.4525(13) 0.9536(16)
H48 H 0.7429 0.4797 0.9706
H49 H 0.6470 0.4467 0.9632
H50 H 0.7651 0.4295 0.9686
O89 O 0.5700(7) 0.3409(3) 0.3483(4)
O90 O 0.5063(8) 0.2281(3) 0.5109(4)
O91 O 0.6530(8) 0.1645(3) 0.5382(4)
O92 O 0.7947(8) 0.2244(3) 0.5680(4)
O93 O 0.6014(9) 0.1015(3) 0.4604(5)
O94 O 0.6239(7) 0.4083(3) 0.4134(4)
O95 O 0.7112(8) 0.2015(3) 0.2510(4)
O96 O 0.5782(7) 0.3639(3) 0.5069(4)
O97 O 0.8526(8) 0.1475(3) 0.5367(4)
O98 O 0.7005(8) 0.3986(3) 0.3143(4)
O99 O 0.9480(8) 0.1349(3) 0.4173(4)
O100 O 0.5019(8) 0.1735(3) 0.4190(5)
O101 O 0.5790(9) 0.1634(3) 0.3205(5)
O102 O 0.6334(9) 0.2800(3) 0.2784(4)
O103 O 0.8674(8) 0.2604(3) 0.2783(4)
O104 O 0.9832(8) 0.2584(3) 0.5485(4)
O105 O 0.7754(7) 0.3982(3) 0.5297(4)
O106 O 0.8256(8) 0.1424(3) 0.3196(4)
O107 O 0.5089(7) 0.2972(3) 0.4377(4)
O108 O 0.6553(7) 0.2871(3) 0.5500(4)
O109 O 0.6884(8) 0.3603(3) 0.6175(4)
O110 O 0.4916(9) 0.2164(4) 0.2329(5)
O112 O 0.4184(7) 0.3774(3) 0.4149(4)
O114 O 0.9869(9) 0.1893(4) 0.6218(5)
O115 O 0.9197(9) 0.4665(4) 0.5557(5)
O118 O 0.9187(9) 0.1833(4) 0.2319(4)
O119 O 0.3496(9) 0.2361(4) 0.4206(5)
O120 O 0.7202(10) 0.0790(3) 0.5653(5)
O121 O 0.5666(10) 0.3592(4) 0.2298(5)
O122 O 0.8857(10) 0.0579(3) 0.3560(5)
O123 O 0.6062(8) 0.2210(3) 0.6224(4)
O124 O 0.6558(9) 0.4829(3) 0.3496(5)
O125 O 0.9850(9) 0.3203(4) 0.2259(4)
O126 O 0.4571(9) 0.0946(4) 0.3587(6)
Cd9 Cd 0.80818(8) 0.90152(3) 0.79513(4)
N28 N 0.7249(11) 0.3343(4) 0.7398(5)
H51 H 0.986917 0.472295 0.210866
H54 H 0.504834 0.625469 0.395151
H59 H 0.792056 0.853757 0.672428
H60 H 0.670704 0.563288 0.817486
N6 N 0.0063(10) 0.0990(4) 0.1901(6)
W34_2 W 0.01539(5) 0.73581(2) 0.07229(3)
O110_2 O 0.0084(9) 0.7164(4) 0.2671(5)
O112_2 O 0.0816(7) 0.8774(3) 0.0851(4)
O119_2 O 0.1504(9) 0.7361(4) 0.0794(5)
O126_2 O 0.0429(9) 0.5946(4) 0.1413(6)
W1_2 W 0.42959(5) 0.29810(2) 0.05404(3)
N1_2 N 0.1671(10) 0.0416(4) 0.1383(5)
C2_2 C 0.1127(10) 0.0062(5) 0.0598(6)
C3_2 C 0.1121(12) 0.0446(6) 0.0864(7)
H2_2 H 0.0781 0.0696 0.0708
N5_2 N 0.9570(11) 0.1121(6) 0.1368(7)
N7_2 N 0.4124(10) 0.0407(4) 0.2112(6)
N8_2 N 0.3776(9) 0.0827(4) 0.2061(5)
W10_2 W 0.22836(5) 0.384712(19) 0.01046(3)
N11_2 N 0.2332(12) 0.0182(5) 0.2958(6)
W11_2 W 0.14382(5) 0.275075(19) 0.05387(3)
N12_2 N 0.2035(11) 0.0611(4) 0.2915(5)
W12_2 W 0.49605(5) 0.17904(2) 0.04863(3)
O13_2 O 0.3515(7) 0.1777(3) 0.0633(4)
C13_2 C 0.5147(13) 0.0418(6) 0.2111(10)
H13_2 H 0.5584 0.0173 0.2134
W14_2 W 0.20971(5) 0.155894(18) 0.04910(2)
C14_2 C 0.5501(10) 0.0825(4) 0.2073(6)
C15_2 C 0.4601(11) 0.1071(5) 0.2024(7)
H14_2 H 0.4580 0.1371 0.1970
C16_2 C 0.6603(12) 0.0991(5) 0.2057(9)
H15_2 H 0.6598 0.1206 0.1749
H16_2 H 0.6843 0.1134 0.2423
W17_2 W 0.38871(5) 0.070425(19) 0.00259(3)
O18_2 O 0.4764(8) 0.1193(3) 0.0295(4)
C17_2 C 0.7345(17) 0.0647(7) 0.1959(14)
H17_2 H 0.7060 0.0478 0.1622
H18_2 H 0.7430 0.0454 0.2293
C18_2 C 0.8381(11) 0.0825(5) 0.1866(7)
O20_2 O 0.6108(8) 0.1832(3) 0.0029(4)
C19_2 C 0.8581(14) 0.1052(8) 0.1332(8)
H19_2 H 0.8071 0.1130 0.1025
C20_2 C 0.9304(16) 0.0807(6) 0.2159(9)
H20_2 H 0.9429 0.0675 0.2523
C21_2 C 0.2359(16) 0.0085(8) 0.3534(9)
C22_2 C 0.1901(17) 0.0748(6) 0.3427(7)
H22_2 H 0.1655 0.1026 0.3505
C23_2 C 0.2155(15) 0.0449(6) 0.3827(7)
O25_2 O 0.5393(7) 0.3188(3) 0.0097(4)
C24_2 C 0.218(3) 0.0475(13) 0.4536(16)
H23_2 H 0.2429 0.0203 0.4706
H24_2 H 0.1470 0.0533 0.4632
H25_2 H 0.2651 0.0705 0.4686
O27_2 O 0.0063(8) 0.2719(3) 0.0109(4)
O28_2 O 0.1530(8) 0.3355(3) 0.0382(4)
O29_2 O 0.2947(8) 0.2756(3) 0.0680(4)
O33_2 O 0.0782(7) 0.1361(3) 0.0069(4)
O34_2 O 0.3526(8) 0.3525(3) 0.0367(4)
O41_2 O 0.4832(8) 0.2416(3) 0.0485(4)
O42_2 O 0.2754(7) 0.1018(3) 0.0297(4)
O45_2 O 0.1553(7) 0.2129(3) 0.0500(4)
O46_2 O 0.1884(8) 0.1397(3) 0.1175(4)
O48_2 O 0.5656(9) 0.1725(4) 0.1164(4)
O51_2 O 0.4869(9) 0.3107(4) 0.1218(5)
O52_2 O 0.4197(9) 0.0335(4) 0.0557(5)
O57_2 O 0.2202(10) 0.4210(3) 0.0653(5)
O60_2 O 0.1062(8) 0.2790(3) 0.1224(4)
H54_2 H 0.995166 0.125469 0.104849
P1_2 P 0.2550(3) 0.29164(11) 0.92373(14)
O1_2 O 0.2307(7) 0.3416(3) 0.9254(4)
W2_2 W 0.32841(5) 0.396835(19) 0.88227(3)
P2_2 P 0.3207(3) 0.16530(11) 0.91929(14)
O3_2 O 0.2480(7) 0.2782(3) 0.8594(4)
W3_2 W 0.59331(5) 0.19247(2) 0.92096(3)
O4_2 O 0.3690(7) 0.2855(3) 0.9544(4)
W4_2 W 0.22618(5) 0.060834(19) 0.87533(3)
O5_2 O 0.1721(7) 0.2687(3) 0.9552(4)
H4_2 H 0.0852 0.0178 0.9728
W5_2 W 0.41501(5) 0.18071(2) 0.78434(3)
O6_2 O 0.4202(7) 0.1879(3) 0.9504(4)
W6_2 W 0.53250(5) 0.312349(19) 0.92808(3)
O7_2 O 0.3468(7) 0.1149(3) 0.9180(4)
O8_2 O 0.2229(7) 0.1706(3) 0.9523(4)
W7_2 W 0.35631(5) 0.30035(2) 0.78991(2)
W8_2 W 0.48934(5) 0.083111(19) 0.87460(3)
O9_2 O 0.2970(7) 0.1801(3) 0.8561(4)
W9_2 W 0.04443(4) 0.144175(19) 0.92465(3)
O10_2 O 0.5761(7) 0.2534(3) 0.9341(4)
O11_2 O 0.4698(8) 0.2987(3) 0.8514(4)
O12_2 O 0.5671(8) 0.1306(3) 0.9096(4)
W13_2 W 0.09267(5) 0.27916(2) 0.78820(3)
O14_2 O 0.5201(8) 0.1994(3) 0.8454(4)
O15_2 O 0.4916(8) 0.0574(3) 0.9494(4)
W15_2 W 0.06401(5) 0.37423(2) 0.88403(3)
O16_2 O 0.0194(8) 0.2597(3) 0.8511(4)
O17_2 O 0.3069(8) 0.4176(3) 0.9590(4)
W18_2 W 0.15402(5) 0.15913(2) 0.78579(2)
O19_2 O 0.2801(8) 0.1629(3) 0.7473(4)
O21_2 O 0.1794(8) 0.4094(3) 0.8604(4)
O22_2 O 0.4439(8) 0.1232(3) 0.8135(4)
O23_2 O 0.2866(8) 0.0391(3) 0.9507(4)
O24_2 O 0.3663(8) 0.0493(3) 0.8506(4)
O26_2 O 0.0700(7) 0.1591(3) 0.8483(4)
O30_2 O 0.1014(9) 0.3985(3) 0.9604(5)
O31_2 O 0.1239(7) 0.0917(3) 0.9134(4)
O32_2 O 0.2112(8) 0.2985(3) 0.7510(4)
O35_2 O 0.2005(8) 0.1014(3) 0.8143(4)
O36_2 O 0.4480(8) 0.3651(3) 0.9173(4)
O37_2 O 0.0019(8) 0.3265(3) 0.9190(5)
O38_2 O 0.0790(9) 0.3366(3) 0.8205(5)
O39_2 O 0.1334(9) 0.2200(3) 0.7784(4)
O40_2 O 0.3674(8) 0.2396(3) 0.7783(4)
O43_2 O 0.3256(8) 0.3576(3) 0.8196(4)
O44_2 O 0.0089(7) 0.2028(3) 0.9377(4)
O50_2 O 0.6511(8) 0.3351(3) 0.9183(5)
O53_2 O 0.7230(9) 0.1912(4) 0.9065(5)
O54_2 O 0.5860(8) 0.0541(3) 0.8450(4)
O55_2 O 0.4187(9) 0.3167(4) 0.7319(4)
O58_2 O 0.0666(10) 0.1408(4) 0.7298(5)
O59_2 O 0.3857(10) 0.4421(3) 0.8560(5)
O61_2 O 0.1558(9) 0.0171(3) 0.8496(5)
O62_2 O 0.4850(9) 0.1797(4) 0.7259(4)
Cd3 Cd 0.68711(8) 0.02056(3) 0.77383(4)
O65_2 O 0.5536(11) 0.0441(5) 0.7065(6)
N16_2 N 0.7149(17) 0.3298(5) 0.7980(6)
C29_2 C 0.7297(15) 0.2953(5) 0.7193(8)
H30_2 H 0.7354 0.2892 0.6804
C30_2 C 0.7255(10) 0.2645(4) 0.7602(6)
C31_2 C 0.7164(15) 0.2872(6) 0.8067(8)
H31_2 H 0.7114 0.2747 0.8428
C32_2 C 0.7247(14) 0.2178(5) 0.7524(9)
H32_2 H 0.6799 0.2048 0.7791
H33_2 H 0.6929 0.2111 0.7132
N21_2 N 0.7746(10) 0.0835(4) 0.7623(6)
C33_2 C 0.8317(15) 0.1979(6) 0.7621(9)
H34_2 H 0.8770 0.2098 0.7349
H35_2 H 0.8646 0.2041 0.8013
N22_2 N 0.8186(13) 0.0874(5) 0.7113(7)
C34_2 C 0.8208(11) 0.1501(5) 0.7536(7)
C35_2 C 0.7772(13) 0.1215(5) 0.7866(8)
H36_2 H 0.7523 0.1278 0.8219
C36_2 C 0.8440(15) 0.1284(6) 0.7072(9)
H37_2 H 0.8739 0.1407 0.6761
H46_2 H 0.7503 0.0189 0.6301
N26 N 0.7994(10) 0.0014(4) 0.8554(5)
H59_2 H 0.707944 0.353757 0.827572
H60_2 H 0.829296 0.0632883 0.682514
Cd1_2 Cd 0.31289(8) 0.97944(3) 0.22617(4)
O2_2 O 0.4464(11) 0.9559(5) 0.2935(6)
C1_2 C 0.1660(14) 0.9791(6) 0.0971(7)
H1_2 H 0.1769 0.9497 0.0898
N2_2 N 0.2006(10) 0.9986(4) 0.1446(5)
C4_2 C 0.0594(13) 0.9975(7) 0.0001(8)
N4_2 N 0.2851(17) 0.6702(5) 0.2020(6)
C5_2 C 0.2703(15) 0.7047(5) 0.2807(8)
H5_2 H 0.2646 0.7108 0.3196
C6_2 C 0.2745(10) 0.7355(4) 0.2398(6)
C7_2 C 0.2836(15) 0.7128(6) 0.1933(8)
H6_2 H 0.2886 0.7253 0.1572
C8_2 C 0.2753(14) 0.7822(5) 0.2476(9)
H7_2 H 0.3201 0.7952 0.2209
H8_2 H 0.3071 0.7889 0.2868
N9_2 N 0.2254(10) 0.9165(4) 0.2377(6)
C9_2 C 0.1683(15) 0.8021(6) 0.2379(9)
H9_2 H 0.1230 0.7902 0.2651
H10_2 H 0.1354 0.7959 0.1987
N10_2 N 0.1814(13) 0.9126(5) 0.2887(7)
C10_2 C 0.1792(11) 0.8499(5) 0.2464(7)
C11_2 C 0.2228(13) 0.8785(5) 0.2134(8)
H11_2 H 0.2477 0.8722 0.1781
C12_2 C 0.1560(15) 0.8716(6) 0.2928(9)
H12_2 H 0.1261 0.8593 0.3239
H21_2 H 0.2497 0.9811 0.3699
P3_2 P 0.7450(3) 0.70836(11) 0.07627(14)
O64_2 O 0.7693(7) 0.6584(3) 0.0746(4)
W20_2 W 0.67159(5) 0.603165(19) 0.11773(3)
P4_2 P 0.6793(3) 0.83470(11) 0.08071(14)
O66_2 O 0.7520(7) 0.7218(3) 0.1406(4)
W21_2 W 0.40669(5) 0.80753(2) 0.07904(3)
O67_2 O 0.6310(7) 0.7145(3) 0.0456(4)
W22_2 W 0.77382(5) 0.939166(19) 0.12467(3)
O68_2 O 0.8279(7) 0.7313(3) 0.0448(4)
W23_2 W 0.58499(5) 0.81929(2) 0.21566(3)
O69_2 O 0.5798(7) 0.8121(3) 0.0496(4)
W24_2 W 0.46750(5) 0.687651(19) 0.07192(3)
O70_2 O 0.6532(7) 0.8851(3) 0.0820(4)
O71_2 O 0.7771(7) 0.8294(3) 0.0477(4)
W25_2 W 0.64369(5) 0.69965(2) 0.21009(2)
W26_2 W 0.51066(5) 0.916889(19) 0.12540(3)
O72_2 O 0.7030(7) 0.8199(3) 0.1439(4)
W27_2 W 0.95557(4) 0.855825(19) 0.07535(3)
O73_2 O 0.4239(7) 0.7466(3) 0.0659(4)
O74_2 O 0.5302(8) 0.7013(3) 0.1486(4)
O75_2 O 0.4329(8) 0.8694(3) 0.0904(4)
W31_2 W 0.90733(5) 0.72084(2) 0.21180(3)
O77_2 O 0.4799(8) 0.8006(3) 0.1546(4)
O78_2 O 0.5084(8) 0.9426(3) 0.0506(4)
W33_2 W 0.93599(5) 0.62577(2) 0.11597(3)
O79_2 O 0.9806(8) 0.7403(3) 0.1489(4)
O80_2 O 0.6931(8) 0.5824(3) 0.0410(4)
W36_2 W 0.84598(5) 0.84087(2) 0.21421(2)
O82_2 O 0.7199(8) 0.8371(3) 0.2527(4)
O84_2 O 0.8206(8) 0.5906(3) 0.1396(4)
O85_2 O 0.5561(8) 0.8768(3) 0.1865(4)
O86_2 O 0.7134(8) 0.9609(3) 0.0493(4)
O87_2 O 0.6337(8) 0.9507(3) 0.1494(4)
O89_2 O 0.9300(7) 0.8409(3) 0.1517(4)
O93_2 O 0.8986(9) 0.6015(3) 0.0396(5)
O94_2 O 0.8761(7) 0.9083(3) 0.0866(4)
O95_2 O 0.7888(8) 0.7015(3) 0.2490(4)
O98_2 O 0.7995(8) 0.8986(3) 0.1857(4)
O99_2 O 0.5520(8) 0.6349(3) 0.0827(4)
O100_2 O 0.9981(8) 0.6735(3) 0.0810(5)
O101_2 O 0.9210(9) 0.6634(3) 0.1795(5)
O102_2 O 0.8666(9) 0.7800(3) 0.2216(4)
O103_2 O 0.6326(8) 0.7604(3) 0.2217(4)
O106_2 O 0.6744(8) 0.6424(3) 0.1804(4)
O107_2 O 0.9911(7) 0.7972(3) 0.0623(4)
O113_2 O 0.3489(8) 0.6649(3) 0.0817(5)
O116_2 O 0.2770(9) 0.8088(4) 0.0935(5)
O117_2 O 0.4140(8) 0.9459(3) 0.1550(4)
O118_2 O 0.5813(9) 0.6833(4) 0.2681(4)
O121_2 O 0.9334(10) 0.8592(4) 0.2702(5)
O122_2 O 0.6143(10) 0.5579(3) 0.1440(5)
O124_2 O 0.8442(9) 0.9829(3) 0.1504(5)
O125_2 O 0.5150(9) 0.8203(4) 0.2741(4)
H53_2 H 0.292056 0.646243 0.172428
H55_2 H 0.170704 0.936712 0.317486
H3_2 H 0.0759 0.9681 0.9883
W19_2 W 0.57041(5) 0.70190(2) 0.94596(3)
N17_2 N 0.0430(11) 0.8879(6) 0.8632(7)
N19_2 N 0.5876(10) 0.9593(4) 0.7888(6)
N20_2 N 0.6224(9) 0.9173(4) 0.7939(5)
W28_2 W 0.77164(5) 0.615288(19) 0.98954(3)
N23_2 N 0.7668(12) 0.9818(5) 0.7042(6)
W29_2 W 0.85618(5) 0.724925(19) 0.94613(3)
N24_2 N 0.7965(11) 0.9389(4) 0.7085(5)
W30_2 W 0.50395(5) 0.82096(2) 0.95137(3)
O76_2 O 0.6485(7) 0.8223(3) 0.9367(4)
C37_2 C 0.4853(13) 0.9582(6) 0.7889(10)
H38_2 H 0.4416 0.9827 0.7866
W32_2 W 0.79029(5) 0.844106(18) 0.95090(2)
C38_2 C 0.4499(10) 0.9175(4) 0.7927(6)
C39_2 C 0.5399(11) 0.8929(5) 0.7976(7)
H39_2 H 0.5420 0.8629 0.8030
C40_2 C 0.3397(12) 0.9009(5) 0.7943(9)
H40_2 H 0.3402 0.8794 0.8251
H41_2 H 0.3157 0.8866 0.7577
W35_2 W 0.61129(5) 0.929575(19) 0.99741(3)
O81_2 O 0.5236(8) 0.8807(3) 0.9705(4)
C41_2 C 0.2655(17) 0.9353(7) 0.8041(14)
H42_2 H 0.2940 0.9522 0.8378
H43_2 H 0.2570 0.9546 0.7707
C42_2 C 0.1619(11) 0.9175(5) 0.8134(7)
O83_2 O 0.3892(8) 0.8168(3) 0.9971(4)
C43_2 C 0.1419(14) 0.8948(8) 0.8668(8)
H44_2 H 0.1929 0.8870 0.8975
C44_2 C 0.0696(16) 0.9193(6) 0.7841(9)
H45_2 H 0.0571 0.9325 0.7477
C45_2 C 0.7641(16) 0.9915(8) 0.6466(9)
C46_2 C 0.8099(17) 0.9252(6) 0.6573(7)
H47_2 H 0.8345 0.8974 0.6495
C47_2 C 0.7845(15) 0.9551(6) 0.6173(7)
O88_2 O 0.4607(7) 0.6812(3) 0.9903(4)
C48_2 C 0.782(3) 0.9525(13) 0.5464(16)
H48_2 H 0.7571 0.9797 0.5294
H49_2 H 0.8530 0.9467 0.5368
H50_2 H 0.7349 0.9295 0.5314
O90_2 O 0.9937(8) 0.7281(3) 0.9891(4)
O91_2 O 0.8470(8) 0.6645(3) 0.9618(4)
O92_2 O 0.7053(8) 0.7244(3) 0.9320(4)
O96_2 O 0.9218(7) 0.8639(3) 0.9931(4)
O97_2 O 0.6474(8) 0.6475(3) 0.9633(4)
O104_2 O 0.5168(8) 0.7584(3) 0.9515(4)
O105_2 O 0.7246(7) 0.8982(3) 0.9703(4)
O108_2 O 0.8447(7) 0.7871(3) 0.9500(4)
O109_2 O 0.8116(8) 0.8603(3) 0.8825(4)
O111_2 O 0.4344(9) 0.8275(4) 0.8836(4)
O114_2 O 0.5131(9) 0.6893(4) 0.8782(5)
O115_2 O 0.5803(9) 0.9665(4) 0.9443(5)
O120_2 O 0.7798(10) 0.5790(3) 0.9347(5)
O123_2 O 0.8938(8) 0.7210(3) 0.8776(4)
N25 N 0.8329(10) 0.9584(4) 0.8617(5)
N30 N 0.9937(10) 0.9010(4) 0.8099(6)
H58_2 H 0.00483447 0.874531 0.895151
H28_2 H 0.9241 0.0319 0.0117
W16_2 W 0.98461(5) 0.26419(2) 0.92771(3)
O47_2 O 0.9916(9) 0.2836(4) 0.7329(5)
O49_2 O 0.9184(7) 0.1226(3) 0.9149(4)
O56_2 O 0.8496(9) 0.2639(4) 0.9206(5)
O63_2 O 0.9571(9) 0.4054(4) 0.8587(6)
C25_2 C 0.8340(14) 0.0209(6) 0.9029(7)
H26_2 H 0.8231 0.0503 0.9102
C28_2 C 0.9406(13) 0.0025(7) 0.9999(8)
H29_2 H 0.9148 0.9822 0.0272
C26_2 C 0.8873(10) 0.9938(5) 0.9402(6)
C27_2 C 0.8879(12) 0.9554(6) 0.9136(7)
H27_2 H 0.9219 0.9304 0.9292
H51_2 H 0.0130835 0.527705 0.789134
loop_
_geom_bond_atom_site_label_1
_geom_bond_atom_site_label_2
_geom_bond_site_symmetry_1
_geom_bond_site_symmetry_2
W1 O4 1_555 1_555
Cd1 O2 1_555 1_555
P1 O1 1_555 1_555
O1 W2 1_555 1_555
N1 Cd2 1_555 1_555
C1 H1 1_555 1_555
W2 O17 1_555 1_555
Cd2 N8 1_555 1_555
N2 Cd1 1_555 1_555
P2 O6 1_555 1_555
O3 P1 1_555 1_555
C2 C1 1_555 1_555
O4 P1 1_555 1_555
C3 N1 1_555 1_555
H2 C3 1_555 1_555
N3 N4 1_555 1_555
W4 O7 1_555 1_555
O5 P1 1_555 1_555
C4 C2 1_555 1_555
H3 C4 1_555 1_555
H4 C4 1_555 1_555
N4 C7 1_555 1_555
W5 O9 1_555 1_555
O6 W12 1_555 1_555
C5 N3 1_555 1_555
H5 C5 1_555 1_555
O7 P2 1_555 1_555
C6 C5 1_555 1_555
O8 P2 1_555 1_555
W7 O3 1_555 1_555
N7 Cd1 1_555 1_555
C7 C6 1_555 1_555
H6 C7 1_555 1_555
W8 O7 1_555 1_555
O9 P2 1_555 1_555
N8 N7 1_555 1_555
C8 C6 1_555 1_555
H7 C8 1_555 1_555
H8 C8 1_555 1_555
N9 Cd1 1_555 1_555
W9 O8 1_555 1_555
C9 C8 1_555 1_555
H9 C9 1_555 1_555
H10 C9 1_555 1_555
W10 O1 1_555 1_555
N10 N9 1_555 1_555
C10 C9 1_555 1_555
N11 Cd1 1_555 1_555
W11 O5 1_555 1_555
C11 N9 1_555 1_555
H11 C11 1_555 1_555
N12 Cd2 1_555 1_555
W12 O13 1_555 1_555
O13 W14 1_555 1_555
C12 N10 1_555 1_555
H12 C12 1_555 1_555
W13 O3 1_555 1_555
W14 O8 1_555 1_555
O15 W8 1_555 1_555
W15 O1 1_555 1_555
O16 W13 1_555 1_555
C15 N8 1_555 1_555
H14 C15 1_555 1_555
W16 O5 1_555 1_555
O17 W10 1_555 1_555
W17 O7 1_555 1_555
O18 W12 1_555 1_555
W18 O9 1_555 1_555
O19 W5 1_555 1_555
O21 W2 1_555 1_555
O22 W5 1_555 1_555
C21 N11 1_555 1_555
H21 C21 1_555 1_555
O23 W4 1_555 1_555
C22 N12 1_555 1_555
H22 C22 1_555 1_555
O24 W4 1_555 1_555
C23 C21 1_555 1_555
C24 C23 1_555 1_555
H23 C24 1_555 1_555
H24 C24 1_555 1_555
H25 C24 1_555 1_555
O26 W9 1_555 1_555
O27 W11 1_555 1_555
O28 W10 1_555 1_555
O29 W1 1_555 1_555
O30 W10 1_555 1_555
O31 W4 1_555 1_555
O32 W7 1_555 1_555
O33 W9 1_555 1_555
O34 W1 1_555 1_555
O35 W4 1_555 1_555
O36 W2 1_555 1_555
O37 W15 1_555 1_555
O38 W13 1_555 1_555
O39 W13 1_555 1_555
O40 W5 1_555 1_555
O41 W1 1_555 1_555
O42 W14 1_555 1_555
O43 W2 1_555 1_555
O44 W9 1_555 1_555
O45 W11 1_555 1_555
O46 Cd2 1_555 1_555
O47 W13 1_555 1_555
O49 W9 1_555 1_555
O51 W1 1_555 1_555
O52 W17 1_555 1_555
O55 W7 1_555 1_555
O56 W16 1_555 1_555
O57 W10 1_555 1_555
O58 W18 1_555 1_555
O59 W2 1_555 1_555
O60 W11 1_555 1_555
O61 W4 1_555 1_555
O62 W5 1_555 1_555
O63 W15 1_555 1_555
N13 N14 1_555 1_555
C25 H26 1_555 1_555
N14 C25 1_555 1_555
C26 C25 1_555 1_555
C27 N13 1_555 1_555
H27 C27 1_555 1_555
C28 C4 1_555 1_555
H28 C28 1_555 1_555
H29 C28 1_555 1_555
N17 N18 1_555 1_555
N18 C44 1_555 1_555
O73 W21 1_555 1_555
O75 W21 1_555 1_555
O77 W21 1_555 1_555
H38 C37 1_555 1_555
C38 C37 1_555 1_555
C40 C38 1_555 1_555
H40 C40 1_555 1_555
H41 C40 1_555 1_555
C41 C40 1_555 1_555
H42 C41 1_555 1_555
H43 C41 1_555 1_555
C42 C41 1_555 1_555
O83 W21 1_555 1_555
C43 N17 1_555 1_555
H44 C43 1_555 1_555
C44 C42 1_555 1_555
H45 C44 1_555 1_555
O113 W24 1_555 1_555
O116 W21 1_555 1_555
O117 Cd1 1_555 1_555
Cd5 N14 1_555 1_555
Cd7 N3 1_555 1_555
Cd8 N13 1_555 1_555
N27 Cd2 1_555 1_555
N29 Cd2 1_555 1_555
N1 N2 1_555 1_555
C1 N2 1_555 1_555
C2 C3 1_555 1_555
W7 O11 1_555 1_555
W7 O40 1_555 1_555
W7 O43 1_555 1_555
W8 O22 1_555 1_555
W8 O24 1_555 1_555
W9 O31 1_555 1_555
W10 O34 1_555 1_555
C10 C11 1_555 1_555
C10 C12 1_555 1_555
N11 N12 1_555 1_555
W11 O28 1_555 1_555
W11 O29 1_555 1_555
W12 O41 1_555 1_555
W13 O32 1_555 1_555
W14 O33 1_555 1_555
W14 O45 1_555 1_555
W14 O46 1_555 1_555
O15 W17 1_555 1_555
W15 O21 1_555 1_555
W15 O30 1_555 1_555
W15 O38 1_555 1_555
O16 W16 1_555 1_555
W16 O27 1_555 1_555
W16 O37 1_555 1_555
W16 O44 1_555 1_555
W17 O18 1_555 1_555
W17 O23 1_555 1_555
W17 O42 1_555 1_555
W18 O19 1_555 1_555
W18 O26 1_555 1_555
W18 O35 1_555 1_555
W18 O39 1_555 1_555
C22 C23 1_555 1_555
C26 C27 1_555 1_555
C26 C28 1_555 1_555
W24 O73 1_555 1_555
W24 O88 1_555 1_555
N18 Cd8 1_555 1_555
C42 C43 1_555 1_555
N4 H53 1_555 1_555
N10 H55 1_555 1_555
N17 H58 1_555 1_555
N5 N29 1_555 1_555
N29 C20 1_555 1_555
O10 W3 1_555 1_555
O12 W3 1_555 1_555
O14 W3 1_555 1_555
H13 C13 1_555 1_555
C14 C13 1_555 1_555
C16 C14 1_555 1_555
H15 C16 1_555 1_555
H16 C16 1_555 1_555
C17 C16 1_555 1_555
H17 C17 1_555 1_555
H18 C17 1_555 1_555
C18 C17 1_555 1_555
O20 W3 1_555 1_555
C19 N5 1_555 1_555
H19 C19 1_555 1_555
C20 C18 1_555 1_555
H20 C20 1_555 1_555
O50 W6 1_555 1_555
O53 W3 1_555 1_555
W19 O67 1_555 1_555
Cd5 O54 1_555 1_555
P3 O64 1_555 1_555
O64 W20 1_555 1_555
O65 Cd5 1_555 1_555
W20 O80 1_555 1_555
Cd8 N20 1_555 1_555
P4 O69 1_555 1_555
O66 P3 1_555 1_555
O67 P3 1_555 1_555
N15 N16 1_555 1_555
W22 O70 1_555 1_555
O68 P3 1_555 1_555
N16 C31 1_555 1_555
W23 O72 1_555 1_555
O69 W30 1_555 1_555
C29 N15 1_555 1_555
H30 C29 1_555 1_555
O70 P4 1_555 1_555
C30 C29 1_555 1_555
O71 P4 1_555 1_555
W25 O66 1_555 1_555
N19 Cd5 1_555 1_555
C31 C30 1_555 1_555
H31 C31 1_555 1_555
W26 O70 1_555 1_555
O72 P4 1_555 1_555
N20 N19 1_555 1_555
C32 C30 1_555 1_555
H32 C32 1_555 1_555
H33 C32 1_555 1_555
N21 Cd5 1_555 1_555
W27 O71 1_555 1_555
C33 C32 1_555 1_555
H34 C33 1_555 1_555
H35 C33 1_555 1_555
W28 O64 1_555 1_555
N22 N21 1_555 1_555
C34 C33 1_555 1_555
N23 Cd5 1_555 1_555
W29 O68 1_555 1_555
C35 N21 1_555 1_555
H36 C35 1_555 1_555
N24 Cd8 1_555 1_555
W30 O76 1_555 1_555
O76 W32 1_555 1_555
C36 N22 1_555 1_555
H37 C36 1_555 1_555
W31 O66 1_555 1_555
W32 O71 1_555 1_555
O78 W26 1_555 1_555
W33 O64 1_555 1_555
O79 W31 1_555 1_555
C39 N20 1_555 1_555
H39 C39 1_555 1_555
W34 O68 1_555 1_555
O80 W28 1_555 1_555
W35 O70 1_555 1_555
O81 W30 1_555 1_555
W36 O72 1_555 1_555
O82 W23 1_555 1_555
O84 W20 1_555 1_555
O85 W23 1_555 1_555
C45 N23 1_555 1_555
H46 C45 1_555 1_555
O86 W22 1_555 1_555
C46 N24 1_555 1_555
H47 C46 1_555 1_555
O87 W22 1_555 1_555
C47 C45 1_555 1_555
C48 C47 1_555 1_555
H48 C48 1_555 1_555
H49 C48 1_555 1_555
H50 C48 1_555 1_555
O89 W27 1_555 1_555
O90 W29 1_555 1_555
O91 W28 1_555 1_555
O92 W19 1_555 1_555
O93 W28 1_555 1_555
O94 W22 1_555 1_555
O95 W25 1_555 1_555
O96 W27 1_555 1_555
O97 W19 1_555 1_555
O98 W22 1_555 1_555
O99 W20 1_555 1_555
O100 W33 1_555 1_555
O101 W31 1_555 1_555
O102 W31 1_555 1_555
O103 W23 1_555 1_555
O104 W19 1_555 1_555
O105 W32 1_555 1_555
O106 W20 1_555 1_555
O107 W27 1_555 1_555
O108 W29 1_555 1_555
O109 Cd8 1_555 1_555
O110 W31 1_555 1_555
O112 W27 1_555 1_555
O114 W19 1_555 1_555
O115 W35 1_555 1_555
O118 W25 1_555 1_555
O119 W34 1_555 1_555
O120 W28 1_555 1_555
O121 W36 1_555 1_555
O122 W20 1_555 1_555
O123 W29 1_555 1_555
O124 W22 1_555 1_555
O125 W23 1_555 1_555
O126 W33 1_555 1_555
Cd9 N15 1_555 1_555
N28 Cd8 1_555 1_555
W6 O10 1_555 1_555
W6 O25 1_555 1_555
C18 C19 1_555 1_555
W25 O74 1_555 1_555
W25 O103 1_555 1_555
W25 O106 1_555 1_555
W26 O85 1_555 1_555
W26 O87 1_555 1_555
W27 O94 1_555 1_555
W28 O97 1_555 1_555
C34 C35 1_555 1_555
C34 C36 1_555 1_555
N23 N24 1_555 1_555
W29 O91 1_555 1_555
W29 O92 1_555 1_555
W30 O104 1_555 1_555
W31 O95 1_555 1_555
W32 O96 1_555 1_555
W32 O108 1_555 1_555
W32 O109 1_555 1_555
O78 W35 1_555 1_555
W33 O84 1_555 1_555
W33 O93 1_555 1_555
W33 O101 1_555 1_555
O79 W34 1_555 1_555
W34 O90 1_555 1_555
W34 O100 1_555 1_555
W34 O107 1_555 1_555
W35 O81 1_555 1_555
W35 O86 1_555 1_555
W35 O105 1_555 1_555
W36 O82 1_555 1_555
W36 O89 1_555 1_555
W36 O98 1_555 1_555
W36 O102 1_555 1_555
C46 C47 1_555 1_555
N5 H54 1_555 1_555
N16 H59 1_555 1_555
N22 H60 1_555 1_555
Cd7 N6 1_555 1_555
O119_2 W34_2 1_555 1_555
N1_2 Cd7 1_555 1_555
Cd7 N8_2 1_555 1_555
C3_2 N1_2 1_555 1_555
H2_2 C3_2 1_555 1_555
N8_2 N7_2 1_555 1_555
N12_2 Cd7 1_555 1_555
W12_2 O13_2 1_555 1_555
O13_2 W14_2 1_555 1_555
C13_2 N7_2 1_555 1_555
H13_2 C13_2 1_555 1_555
C14_2 C13_2 1_555 1_555
C15_2 N8_2 1_555 1_555
H14_2 C15_2 1_555 1_555
C16_2 C14_2 1_555 1_555
H15_2 C16_2 1_555 1_555
H16_2 C16_2 1_555 1_555
O18_2 W12_2 1_555 1_555
C17_2 C16_2 1_555 1_555
H17_2 C17_2 1_555 1_555
H18_2 C17_2 1_555 1_555
C18_2 C17_2 1_555 1_555
C19_2 N5_2 1_555 1_555
H19_2 C19_2 1_555 1_555
C20_2 C18_2 1_555 1_555
H20_2 C20_2 1_555 1_555
C21_2 N11_2 1_555 1_555
C22_2 N12_2 1_555 1_555
H22_2 C22_2 1_555 1_555
C23_2 C21_2 1_555 1_555
O25_2 W1_2 1_555 1_555
C24_2 C23_2 1_555 1_555
H23_2 C24_2 1_555 1_555
H24_2 C24_2 1_555 1_555
H25_2 C24_2 1_555 1_555
O27_2 W11_2 1_555 1_555
O28_2 W10_2 1_555 1_555
O29_2 W1_2 1_555 1_555
O34_2 W1_2 1_555 1_555
O41_2 W1_2 1_555 1_555
O42_2 W14_2 1_555 1_555
O45_2 W11_2 1_555 1_555
O46_2 Cd7 1_555 1_555
O48_2 W12_2 1_555 1_555
O51_2 W1_2 1_555 1_555
O52_2 W17_2 1_555 1_555
O57_2 W10_2 1_555 1_555
O60_2 W11_2 1_555 1_555
C2_2 C3_2 1_555 1_555
W10_2 O34_2 1_555 1_555
N11_2 N12_2 1_555 1_555
W11_2 O28_2 1_555 1_555
W11_2 O29_2 1_555 1_555
W12_2 O20_2 1_555 1_555
W12_2 O41_2 1_555 1_555
W14_2 O33_2 1_555 1_555
W14_2 O45_2 1_555 1_555
W14_2 O46_2 1_555 1_555
C14_2 C15_2 1_555 1_555
W17_2 O18_2 1_555 1_555
W17_2 O42_2 1_555 1_555
C18_2 C19_2 1_555 1_555
C22_2 C23_2 1_555 1_555
N5_2 H54_2 1_555 1_555
P1_2 O1_2 1_555 1_555
O1_2 W2_2 1_555 1_555
W2_2 O17_2 1_555 1_555
P2_2 O6_2 1_555 1_555
O3_2 P1_2 1_555 1_555
W3_2 O6_2 1_555 1_555
O4_2 P1_2 1_555 1_555
W4_2 O7_2 1_555 1_555
O5_2 P1_2 1_555 1_555
W5_2 O9_2 1_555 1_555
W6_2 O4_2 1_555 1_555
O7_2 P2_2 1_555 1_555
O8_2 P2_2 1_555 1_555
W7_2 O3_2 1_555 1_555
W8_2 O7_2 1_555 1_555
O9_2 P2_2 1_555 1_555
W9_2 O8_2 1_555 1_555
O10_2 W3_2 1_555 1_555
O11_2 W6_2 1_555 1_555
O12_2 W3_2 1_555 1_555
W13_2 O3_2 1_555 1_555
O14_2 W3_2 1_555 1_555
O15_2 W8_2 1_555 1_555
W15_2 O1_2 1_555 1_555
O16_2 W13_2 1_555 1_555
W18_2 O9_2 1_555 1_555
O19_2 W5_2 1_555 1_555
O21_2 W2_2 1_555 1_555
O22_2 W5_2 1_555 1_555
O23_2 W4_2 1_555 1_555
O24_2 W4_2 1_555 1_555
O26_2 W9_2 1_555 1_555
O31_2 W4_2 1_555 1_555
O32_2 W7_2 1_555 1_555
O35_2 W4_2 1_555 1_555
O36_2 W2_2 1_555 1_555
O37_2 W15_2 1_555 1_555
O38_2 W13_2 1_555 1_555
O39_2 W13_2 1_555 1_555
O40_2 W5_2 1_555 1_555
O43_2 W2_2 1_555 1_555
O44_2 W9_2 1_555 1_555
O50_2 W6_2 1_555 1_555
O53_2 W3_2 1_555 1_555
O54_2 W8_2 1_555 1_555
O55_2 W7_2 1_555 1_555
O58_2 W18_2 1_555 1_555
O59_2 W2_2 1_555 1_555
O61_2 W4_2 1_555 1_555
O62_2 W5_2 1_555 1_555
Cd3 O54_2 1_555 1_555
O65_2 Cd3 1_555 1_555
N28 N16_2 1_555 1_555
N16_2 C31_2 1_555 1_555
C29_2 N28 1_555 1_555
H30_2 C29_2 1_555 1_555
C30_2 C29_2 1_555 1_555
C31_2 C30_2 1_555 1_555
H31_2 C31_2 1_555 1_555
C32_2 C30_2 1_555 1_555
H32_2 C32_2 1_555 1_555
H33_2 C32_2 1_555 1_555
N21_2 Cd3 1_555 1_555
C33_2 C32_2 1_555 1_555
H34_2 C33_2 1_555 1_555
H35_2 C33_2 1_555 1_555
N22_2 N21_2 1_555 1_555
C34_2 C33_2 1_555 1_555
C35_2 N21_2 1_555 1_555
H36_2 C35_2 1_555 1_555
C36_2 N22_2 1_555 1_555
H37_2 C36_2 1_555 1_555
N26 Cd3 1_555 1_555
W5_2 O14_2 1_555 1_555
W6_2 O10_2 1_555 1_555
W6_2 O36_2 1_555 1_555
W7_2 O11_2 1_555 1_555
W7_2 O40_2 1_555 1_555
W7_2 O43_2 1_555 1_555
W8_2 O12_2 1_555 1_555
W8_2 O22_2 1_555 1_555
W8_2 O24_2 1_555 1_555
W9_2 O31_2 1_555 1_555
W13_2 O32_2 1_555 1_555
W15_2 O21_2 1_555 1_555
W15_2 O30_2 1_555 1_555
W15_2 O38_2 1_555 1_555
W18_2 O19_2 1_555 1_555
W18_2 O26_2 1_555 1_555
W18_2 O35_2 1_555 1_555
W18_2 O39_2 1_555 1_555
C34_2 C35_2 1_555 1_555
C34_2 C36_2 1_555 1_555
N16_2 H59_2 1_555 1_555
N22_2 H60_2 1_555 1_555
Cd1_2 O2_2 1_555 1_555
C1_2 H1_2 1_555 1_555
N2_2 Cd1_2 1_555 1_555
N27 N4_2 1_555 1_555
N4_2 C7_2 1_555 1_555
C5_2 N27 1_555 1_555
H5_2 C5_2 1_555 1_555
C6_2 C5_2 1_555 1_555
C7_2 C6_2 1_555 1_555
H6_2 C7_2 1_555 1_555
C8_2 C6_2 1_555 1_555
H7_2 C8_2 1_555 1_555
H8_2 C8_2 1_555 1_555
N9_2 Cd1_2 1_555 1_555
C9_2 C8_2 1_555 1_555
H9_2 C9_2 1_555 1_555
H10_2 C9_2 1_555 1_555
N10_2 N9_2 1_555 1_555
C10_2 C9_2 1_555 1_555
C11_2 N9_2 1_555 1_555
H11_2 C11_2 1_555 1_555
C12_2 N10_2 1_555 1_555
H12_2 C12_2 1_555 1_555
P3_2 O64_2 1_555 1_555
O64_2 W20_2 1_555 1_555
W20_2 O80_2 1_555 1_555
P4_2 O69_2 1_555 1_555
O66_2 P3_2 1_555 1_555
W21_2 O69_2 1_555 1_555
O67_2 P3_2 1_555 1_555
W22_2 O70_2 1_555 1_555
O68_2 P3_2 1_555 1_555
W23_2 O72_2 1_555 1_555
W24_2 O67_2 1_555 1_555
O70_2 P4_2 1_555 1_555
O71_2 P4_2 1_555 1_555
W25_2 O66_2 1_555 1_555
W26_2 O70_2 1_555 1_555
O72_2 P4_2 1_555 1_555
W27_2 O71_2 1_555 1_555
O73_2 W21_2 1_555 1_555
O74_2 W24_2 1_555 1_555
O75_2 W21_2 1_555 1_555
W31_2 O66_2 1_555 1_555
O77_2 W21_2 1_555 1_555
O78_2 W26_2 1_555 1_555
W33_2 O64_2 1_555 1_555
O79_2 W31_2 1_555 1_555
W36_2 O72_2 1_555 1_555
O82_2 W23_2 1_555 1_555
O84_2 W20_2 1_555 1_555
O85_2 W23_2 1_555 1_555
O86_2 W22_2 1_555 1_555
O87_2 W22_2 1_555 1_555
O89_2 W27_2 1_555 1_555
O94_2 W22_2 1_555 1_555
O95_2 W25_2 1_555 1_555
O98_2 W22_2 1_555 1_555
O99_2 W20_2 1_555 1_555
O100_2 W33_2 1_555 1_555
O101_2 W31_2 1_555 1_555
O102_2 W31_2 1_555 1_555
O103_2 W23_2 1_555 1_555
O106_2 W20_2 1_555 1_555
O107_2 W27_2 1_555 1_555
O113_2 W24_2 1_555 1_555
O116_2 W21_2 1_555 1_555
O117_2 Cd1_2 1_555 1_555
O118_2 W25_2 1_555 1_555
O121_2 W36_2 1_555 1_555
O122_2 W20_2 1_555 1_555
O124_2 W22_2 1_555 1_555
O125_2 W23_2 1_555 1_555
C1_2 N2_2 1_555 1_555
C10_2 C11_2 1_555 1_555
C10_2 C12_2 1_555 1_555
W23_2 O77_2 1_555 1_555
W24_2 O73_2 1_555 1_555
W24_2 O99_2 1_555 1_555
W25_2 O74_2 1_555 1_555
W25_2 O103_2 1_555 1_555
W25_2 O106_2 1_555 1_555
W26_2 O75_2 1_555 1_555
W26_2 O85_2 1_555 1_555
W26_2 O87_2 1_555 1_555
W26_2 O117_2 1_555 1_555
W27_2 O94_2 1_555 1_555
W31_2 O95_2 1_555 1_555
W33_2 O84_2 1_555 1_555
W33_2 O93_2 1_555 1_555
W33_2 O101_2 1_555 1_555
W36_2 O82_2 1_555 1_555
W36_2 O89_2 1_555 1_555
W36_2 O98_2 1_555 1_555
W36_2 O102_2 1_555 1_555
N4_2 H53_2 1_555 1_555
N10_2 H55_2 1_555 1_555
Cd9 N20_2 1_555 1_555
N20_2 N19_2 1_555 1_555
N24_2 Cd9 1_555 1_555
W30_2 O76_2 1_555 1_555
O76_2 W32_2 1_555 1_555
C37_2 N19_2 1_555 1_555
H38_2 C37_2 1_555 1_555
C38_2 C37_2 1_555 1_555
C39_2 N20_2 1_555 1_555
H39_2 C39_2 1_555 1_555
C40_2 C38_2 1_555 1_555
H40_2 C40_2 1_555 1_555
H41_2 C40_2 1_555 1_555
O81_2 W30_2 1_555 1_555
C41_2 C40_2 1_555 1_555
H42_2 C41_2 1_555 1_555
H43_2 C41_2 1_555 1_555
C42_2 C41_2 1_555 1_555
C43_2 N17_2 1_555 1_555
H44_2 C43_2 1_555 1_555
C44_2 C42_2 1_555 1_555
H45_2 C44_2 1_555 1_555
C45_2 N23_2 1_555 1_555
C46_2 N24_2 1_555 1_555
H47_2 C46_2 1_555 1_555
C47_2 C45_2 1_555 1_555
O88_2 W19_2 1_555 1_555
C48_2 C47_2 1_555 1_555
H48_2 C48_2 1_555 1_555
H49_2 C48_2 1_555 1_555
H50_2 C48_2 1_555 1_555
O90_2 W29_2 1_555 1_555
O91_2 W28_2 1_555 1_555
O92_2 W19_2 1_555 1_555
O97_2 W19_2 1_555 1_555
O104_2 W19_2 1_555 1_555
O105_2 W32_2 1_555 1_555
O108_2 W29_2 1_555 1_555
O109_2 Cd9 1_555 1_555
O111_2 W30_2 1_555 1_555
O114_2 W19_2 1_555 1_555
O115_2 W35_2 1_555 1_555
O120_2 W28_2 1_555 1_555
O123_2 W29_2 1_555 1_555
N25 Cd9 1_555 1_555
N30 Cd9 1_555 1_555
W28_2 O97_2 1_555 1_555
N23_2 N24_2 1_555 1_555
W29_2 O91_2 1_555 1_555
W29_2 O92_2 1_555 1_555
W30_2 O83_2 1_555 1_555
W30_2 O104_2 1_555 1_555
W32_2 O96_2 1_555 1_555
W32_2 O108_2 1_555 1_555
W32_2 O109_2 1_555 1_555
C38_2 C39_2 1_555 1_555
W35_2 O81_2 1_555 1_555
W35_2 O105_2 1_555 1_555
C42_2 C43_2 1_555 1_555
C46_2 C47_2 1_555 1_555
N17_2 H58_2 1_555 1_555
O56_2 W16_2 1_555 1_555
C25_2 H26_2 1_555 1_555
N26 C25_2 1_555 1_555
C27_2 N25 1_555 1_555
H27_2 C27_2 1_555 1_555
C26_2 C27_2 1_555 1_555

#END
