
###############################################################################
#
# This file contains modified crystal structure data generated from the
# MOF subset of the Cambridge Structural Database (CSD) v543 
# hosted by the Cambridge Crystallographic Data Centre (CCDC).
#
# This work is licensed under the Creative Commons
# Attribution-NonCommercial-ShareAlike 4.0 International License.
# To view a copy of this license, visit
# http://creativecommons.org/licenses/by-nc-sa/4.0/
# or send a letter to
# Creative Commons, PO Box 1866, Mountain View, CA 94042, USA.
#
# CIF created using the CSD Python API on 29 September 2022
# The structure has been converted into the P1 space group
# The structure has a 3D framework
# The original CSD entry VUQJUN01 is in the triclinic crystal system
# The framework has been calculated to contain at least 10.0% void space
# The void calculation uses a probe of radius 1.32A, grid spacing 0.4
#
###############################################################################

data_VUQJUN01
_chemical_formula_moiety         '(C130 H106 Mn8 N6 O38)n'
_symmetry_cell_setting           triclinic
_symmetry_space_group_name_H-M   'P 1'
_symmetry_Int_Tables_number      1
_space_group_name_Hall           'P 1'
loop_
_symmetry_equiv_pos_site_id
_symmetry_equiv_pos_as_xyz
1 x,y,z
_cell_length_a                   13.819(3)
_cell_length_b                   15.382(3)
_cell_length_c                   24.383(5)
_cell_angle_alpha                100.41(3)
_cell_angle_beta                 95.25(3)
_cell_angle_gamma                101.09(3)
_cell_volume                     4959.46
loop_
_atom_site_label
_atom_site_type_symbol
_atom_site_fract_x
_atom_site_fract_y
_atom_site_fract_z
_atom_site_U_iso_or_equiv
_atom_site_thermal_displace_type
Mn4 Mn 0.18134(4) 0.30157(4) 0.73739(3) 0.0515 Uani
C11 C 0.0044(4) 0.0675(3) 0.7023(3) 0.1223 Uani
H7 H 0.0673 0.1032 0.7158 0.1470 Uiso
C60 C 0.1183(5) 0.4813(5) 0.7761(4) 0.1322 Uani
H40 H 0.0604 0.4595 0.7508 0.1590 Uiso
C61 C 0.2195(12) 0.6008(10) 0.8399(7) 0.3520 Uani
H41 H 0.2042 0.5964 0.8771 0.5270 Uiso
H42 H 0.2453 0.6630 0.8389 0.5270 Uiso
H43 H 0.2683 0.5659 0.8303 0.5270 Uiso
C62 C 0.0673(10) 0.6235(8) 0.7913(7) 0.3056 Uani
H44 H 0.0143 0.5900 0.7626 0.4580 Uiso
H45 H 0.1019 0.6753 0.7788 0.4580 Uiso
H46 H 0.0404 0.6431 0.8251 0.4580 Uiso
N2 N 0.1339(7) 0.5680(4) 0.8018(4) 0.1980 Uani
O4 O 0.0291(2) 0.25672(19) 0.70540(18) 0.0878 Uani
O18 O 0.1667(3) 0.4307(3) 0.78123(19) 0.1020 Uani
O19 O 0.1589(4) 0.2575(3) 0.81717(19) 0.1259 Uani
C63 C 0.2115(10) 0.2383(11) 0.8572(5) 0.2830 Uiso
H47 H 0.2741 0.2249 0.8556 0.3400 Uiso
C64 C 0.0477(10) 0.2300(12) 0.9009(7) 0.3080 Uiso
H48 H 0.0189 0.1830 0.9194 0.4620 Uiso
H49 H 0.0223 0.2141 0.8616 0.4620 Uiso
H50 H 0.0309 0.2858 0.9174 0.4620 Uiso
C65 C 0.2074(11) 0.2804(11) 0.9636(6) 0.2900 Uiso
H51 H 0.2155 0.3450 0.9699 0.4350 Uiso
H52 H 0.2715 0.2651 0.9670 0.4350 Uiso
H53 H 0.1694 0.2574 0.9908 0.4350 Uiso
N3 N 0.1558(11) 0.2407(12) 0.9076(6) 0.3490 Uiso
O37 O 0.34916(18) 0.36086(19) 0.76569(10) 0.0550 Uani
O46 O 0.22976(19) 0.17793(18) 0.71195(14) 0.0662 Uani
O51 O 0.2147(2) 0.3570(2) 0.66452(12) 0.0657 Uani
Mn7 Mn 0.17459(4) 0.64362(3) 0.32342(2) 0.0392 Uani
Mn10 Mn 0.36785(4) 0.55619(3) 0.27385(2) 0.0393 Uani
C80 C 0.1308(3) 0.5489(3) 0.13838(16) 0.0665 Uani
C81 C 0.1627(4) 0.4964(5) 0.0945(2) 0.1085 Uani
H62 H 0.2187 0.4726 0.1011 0.1300 Uiso
C82 C 0.1122(4) 0.4788(5) 0.0407(2) 0.1179 Uani
H63 H 0.1364 0.4450 0.0115 0.1410 Uiso
C83 C 0.0270(4) 0.5099(4) 0.02890(18) 0.0862 Uani
C85 C 0.0452(4) 0.5774(5) 0.1272(2) 0.1077 Uani
H65 H 0.0211 0.6116 0.1563 0.1300 Uiso
C86 C 0.1860(3) 0.5688(3) 0.19684(16) 0.0551 Uani
O25 O 0.2636(2) 0.5381(2) 0.20321(11) 0.0684 Uani
O27 O 0.1491(2) 0.61253(19) 0.23492(10) 0.0604 Uani
H3 H 0.0196 0.8042 0.6660 0.1060 Uiso
H8 H 0.0403 0.9504 0.7133 0.1490 Uiso
C19 C 0.0063(5) 0.4427(5) 0.9254(2) 0.1230 Uani
H11 H 0.0658 0.4239 0.9309 0.1480 Uiso
C9 C 0.8409(3) 0.0507(3) 0.6656(3) 0.0879 Uani
H6 H 0.7886 0.0756 0.6535 0.1050 Uiso
C10 C 0.9312(3) 0.1066(2) 0.68519(18) 0.0544 Uani
C14 C 0.9471(3) 0.2075(2) 0.68729(17) 0.0487 Uani
C44 C 0.2657(4) 0.0061(3) 0.7201(3) 0.0872 Uani
H26 H 0.2124 0.0232 0.7366 0.1040 Uiso
C45 C 0.3234(3) 0.0644(3) 0.6931(2) 0.0619 Uani
C46 C 0.4009(4) 0.0365(3) 0.6693(3) 0.0850 Uani
H27 H 0.4385 0.0735 0.6494 0.1020 Uiso
C49 C 0.3055(3) 0.1573(3) 0.69127(18) 0.0560 Uani
O3 O 0.8727(2) 0.23592(17) 0.67049(12) 0.0591 Uani
O13 O 0.3679(2) 0.20810(17) 0.67144(12) 0.0581 Uani
Mn6 Mn 0.82541(4) 0.35638(3) 0.67658(2) 0.0392 Uani
Mn14 Mn 0.39127(3) 0.34596(3) 0.67525(2) 0.0368 Uani
Mn15 Mn 0.60873(3) 0.65404(3) 0.32475(2) 0.0368 Uani
Mn21 Mn 0.81866(4) 0.69843(4) 0.26261(3) 0.0515 Uani
C84 C 0.9937(5) 0.5573(5) 0.0746(2) 0.1230 Uani
H64 H 0.9342 0.5761 0.0691 0.1480 Uiso
C94 C 0.5452(3) 0.5851(3) 0.14765(15) 0.0564 Uani
C95 C 0.6207(3) 0.5736(4) 0.11723(18) 0.0917 Uani
H70 H 0.6857 0.5882 0.1354 0.1100 Uiso
C96 C 0.6032(4) 0.5404(5) 0.05967(18) 0.0972 Uani
H71 H 0.6567 0.5328 0.0402 0.1170 Uiso
C97 C 0.5099(3) 0.5185(4) 0.03090(17) 0.0795 Uani
C98 C 0.4347(4) 0.5335(6) 0.0624(2) 0.1456 Uani
H72 H 0.3700 0.5227 0.0443 0.1740 Uiso
C99 C 0.4517(4) 0.5634(6) 0.1193(2) 0.1276 Uani
H73 H 0.3982 0.5691 0.1391 0.1530 Uiso
C100 C 0.5638(3) 0.6188(2) 0.20997(14) 0.0440 Uani
O33 O 0.49077(18) 0.62568(18) 0.23656(10) 0.0530 Uani
O36 O 0.65084(18) 0.63914(19) 0.23431(10) 0.0550 Uani
Mn2 Mn 0.63215(4) 0.44381(3) 0.72615(2) 0.0393 Uani
C1 C 0.8505(3) 0.6331(2) 0.67737(18) 0.0556 Uani
C2 C 0.7753(4) 0.6787(3) 0.6841(3) 0.0936 Uani
H1 H 0.7124 0.6475 0.6880 0.1120 Uiso
C3 C 0.7915(4) 0.7713(3) 0.6851(3) 0.1047 Uani
H2 H 0.7393 0.8009 0.6902 0.1260 Uiso
C4 C 0.8815(3) 0.8194(3) 0.6789(2) 0.0642 Uani
C5 C 0.9573(3) 0.7733(3) 0.6711(3) 0.0884 Uani
C6 C 0.9414(4) 0.6818(3) 0.6707(3) 0.0864 Uani
H4 H 0.9937 0.6523 0.6658 0.1030 Uiso
C7 C 0.8989(3) 0.9189(3) 0.6804(2) 0.0637 Uani
C8 C 0.8240(4) 0.9581(3) 0.6628(3) 0.1028 Uani
H5 H 0.7612 0.9224 0.6490 0.1230 Uiso
C12 C 0.9881(4) 0.9747(3) 0.7004(4) 0.1244 Uani
C13 C 0.8334(3) 0.5341(2) 0.67716(16) 0.0512 Uani
C15 C 0.8692(3) 0.4511(3) 0.86162(16) 0.0665 Uani
C16 C 0.8373(4) 0.5036(5) 0.9055(2) 0.1085 Uani
H9 H 0.7813 0.5274 0.8989 0.1300 Uiso
C17 C 0.8878(4) 0.5212(5) 0.9593(2) 0.1179 Uani
H10 H 0.8636 0.5550 0.9885 0.1410 Uiso
C18 C 0.9730(4) 0.4901(4) 0.97110(18) 0.0862 Uani
C20 C 0.9548(4) 0.4226(5) 0.8728(2) 0.1077 Uani
H12 H 0.9789 0.3884 0.8437 0.1300 Uiso
C21 C 0.8140(3) 0.4312(3) 0.80316(16) 0.0551 Uani
C22 C 0.5655(2) 0.2068(2) 0.60053(14) 0.0427 Uani
C23 C 0.4871(3) 0.1926(3) 0.55927(16) 0.0579 Uani
H13 H 0.4506 0.2371 0.5573 0.0690 Uiso
C24 C 0.4621(3) 0.1115(3) 0.52019(17) 0.0637 Uani
H14 H 0.4086 0.1027 0.4923 0.0760 Uiso
C25 C 0.5139(3) 0.0436(2) 0.52136(15) 0.0500 Uani
C26 C 0.5939(3) 0.0606(3) 0.5631(2) 0.0810 Uani
H15 H 0.6314 0.0167 0.5650 0.0980 Uiso
C27 C 0.6193(3) 0.1403(3) 0.60192(19) 0.0724 Uani
H16 H 0.6735 0.1497 0.6295 0.0870 Uiso
C28 C 0.5917(2) 0.2915(2) 0.64480(13) 0.0383 Uani
C29 C 0.4548(3) 0.4149(3) 0.85235(15) 0.0564 Uani
C30 C 0.3793(3) 0.4264(4) 0.88277(18) 0.0917 Uani
H17 H 0.3143 0.4118 0.8646 0.1100 Uiso
C31 C 0.3968(4) 0.4596(5) 0.94033(18) 0.0972 Uani
H18 H 0.3433 0.4672 0.9598 0.1170 Uiso
C32 C 0.4901(3) 0.4815(4) 0.96910(17) 0.0795 Uani
C33 C 0.5653(4) 0.4665(6) 0.9376(2) 0.1456 Uani
H19 H 0.6300 0.4773 0.9557 0.1740 Uiso
C34 C 0.5483(4) 0.4366(6) 0.8807(2) 0.1276 Uani
H20 H 0.6018 0.4309 0.8609 0.1530 Uiso
C35 C 0.4362(3) 0.3812(2) 0.79003(14) 0.0440 Uani
C36 C 0.4513(3) 0.6454(3) 0.7111(2) 0.0674 Uani
C37 C 0.3539(3) 0.6465(3) 0.6951(2) 0.0754 Uani
H21 H 0.3065 0.5926 0.6858 0.0900 Uiso
C38 C 0.3257(4) 0.7276(3) 0.6925(3) 0.0831 Uani
H22 H 0.2592 0.7275 0.6820 0.1000 Uiso
C39 C 0.3952(4) 0.8089(3) 0.7054(3) 0.0820 Uani
C40 C 0.4936(4) 0.8077(3) 0.7246(4) 0.1224 Uani
H23 H 0.5408 0.8617 0.7352 0.1470 Uiso
C41 C 0.5209(4) 0.7267(3) 0.7278(3) 0.1080 Uani
H24 H 0.5861 0.7265 0.7412 0.1300 Uiso
C42 C 0.3662(4) 0.8957(3) 0.6996(3) 0.0812 Uani
C43 C 0.2869(4) 0.9225(3) 0.7226(3) 0.0898 Uani
H25 H 0.2465 0.8836 0.7403 0.1080 Uiso
C47 C 0.4243(4) 0.9560(3) 0.6739(3) 0.0948 Uani
H28 H 0.4804 0.9412 0.6595 0.1140 Uiso
C48 C 0.4829(3) 0.5567(3) 0.7112(2) 0.0601 Uani
C50 C 0.1608(3) 0.4025(3) 0.58039(17) 0.0648 Uani
C51 C 0.1800(6) 0.4182(7) 0.5297(3) 0.1774 Uani
H29 H 0.2366 0.4034 0.5158 0.2130 Uiso
C52 C 0.1174(6) 0.4564(8) 0.4969(3) 0.1939 Uani
H30 H 0.1329 0.4666 0.4620 0.2330 Uiso
C53 C 0.0328(3) 0.4789(4) 0.51641(19) 0.0743 Uani
C54 C 0.0171(4) 0.4650(4) 0.5687(2) 0.0932 Uani
C55 C 0.0791(4) 0.4274(4) 0.6003(2) 0.0899 Uani
H32 H 0.0649 0.4187 0.6357 0.1080 Uiso
C56 C 0.2311(3) 0.3643(3) 0.61483(18) 0.0601 Uani
C57 C 0.8044(6) 0.2745(5) 0.5496(2) 0.1287 Uani
H33 H 0.8417 0.2338 0.5591 0.1550 Uiso
C58 C 0.6966(10) 0.3070(11) 0.4803(4) 0.2438 Uani
H34 H 0.6646 0.3259 0.5124 0.3680 Uiso
H35 H 0.6485 0.2662 0.4516 0.3680 Uiso
H36 H 0.7255 0.3589 0.4661 0.3680 Uiso
C59 C 0.7823(18) 0.1965(17) 0.4533(5) 0.5068 Uani
H37 H 0.8332 0.2206 0.4325 0.7630 Uiso
H38 H 0.7211 0.1728 0.4284 0.7630 Uiso
H39 H 0.8018 0.1491 0.4694 0.7630 Uiso
N1 N 0.7689(7) 0.2645(6) 0.4957(2) 0.1632 Uani
O1 O 0.7456(2) 0.49139(18) 0.67726(12) 0.0620 Uani
O2 O 0.9045(2) 0.49520(18) 0.67647(13) 0.0668 Uani
O5 O 0.7364(2) 0.4619(2) 0.79679(11) 0.0684 Uani
O6 O 0.8509(2) 0.38747(19) 0.76508(10) 0.0604 Uani
O7 O 0.66646(16) 0.30525(15) 0.68169(9) 0.0421 Uani
O8 O 0.53753(16) 0.35040(14) 0.64584(9) 0.0407 Uani
O9 O 0.50923(18) 0.37432(18) 0.76344(10) 0.0530 Uani
O11 O 0.4190(2) 0.48734(18) 0.68951(14) 0.0686 Uani
O12 O 0.5702(2) 0.55861(18) 0.73113(15) 0.0752 Uani
O15 O 0.3075(2) 0.3460(3) 0.59533(13) 0.0804 Uani
O17 O 0.7917(2) 0.3320(2) 0.58684(12) 0.0709 Uani
H84 H 0.0377 0.5183 0.4163 0.1120 Uiso
C87 C 0.4345(2) 0.7932(2) 0.39947(14) 0.0427 Uani
C88 C 0.5129(3) 0.8074(3) 0.44073(16) 0.0579 Uani
H66 H 0.5494 0.7629 0.4427 0.0690 Uiso
C89 C 0.5379(3) 0.8885(3) 0.47981(17) 0.0637 Uani
H67 H 0.5914 0.8973 0.5077 0.0760 Uiso
C90 C 0.4861(3) 0.9564(2) 0.47864(15) 0.0500 Uani
C91 C 0.4061(3) 0.9394(3) 0.4369(2) 0.0810 Uani
H68 H 0.3686 0.9833 0.4350 0.0980 Uiso
C92 C 0.3807(3) 0.8597(3) 0.39808(19) 0.0724 Uani
H69 H 0.3265 0.8503 0.3705 0.0870 Uiso
C93 C 0.4083(2) 0.7085(2) 0.35520(13) 0.0383 Uani
O29 O 0.33354(16) 0.69475(15) 0.31831(9) 0.0421 Uani
O31 O 0.46247(16) 0.64960(14) 0.35416(9) 0.0407 Uani
O41 O 0.5810(2) 0.51266(18) 0.31049(14) 0.0686 Uani
O44 O 0.6321(2) 0.79190(17) 0.32856(12) 0.0581 Uani
O49 O 0.6925(2) 0.6540(3) 0.40467(13) 0.0804 Uani
O52 O 0.7853(2) 0.6430(2) 0.33548(12) 0.0657 Uani
H31 H 0.9623 0.4817 0.5837 0.1120 Uiso
C115 C 0.8392(3) 0.5975(3) 0.41961(17) 0.0648 Uani
C116 C 0.8200(6) 0.5818(7) 0.4703(3) 0.1774 Uani
H82 H 0.7634 0.5966 0.4842 0.2130 Uiso
C117 C 0.8826(6) 0.5436(8) 0.5031(3) 0.1939 Uani
H83 H 0.8671 0.5334 0.5380 0.2330 Uiso
C118 C 0.9672(3) 0.5211(4) 0.48359(19) 0.0743 Uani
C119 C 0.9829(4) 0.5350(4) 0.4313(2) 0.0932 Uani
C120 C 0.9209(4) 0.5726(4) 0.3997(2) 0.0899 Uani
H85 H 0.9351 0.5813 0.3643 0.1080 Uiso
C121 C 0.7689(3) 0.6357(3) 0.38517(18) 0.0601 Uani
C66 C 0.1495(3) 0.3669(2) 0.32263(18) 0.0556 Uani
C67 C 0.2247(4) 0.3213(3) 0.3159(3) 0.0936 Uani
H54 H 0.2876 0.3525 0.3120 0.1120 Uiso
C68 C 0.2085(4) 0.2287(3) 0.3149(3) 0.1047 Uani
H55 H 0.2607 0.1991 0.3098 0.1260 Uiso
C69 C 0.1185(3) 0.1806(3) 0.3211(2) 0.0642 Uani
C70 C 0.0427(3) 0.2267(3) 0.3289(3) 0.0884 Uani
C71 C 0.0586(4) 0.3182(3) 0.3293(3) 0.0864 Uani
H57 H 0.0063 0.3477 0.3342 0.1030 Uiso
C72 C 0.1011(3) 0.0811(3) 0.3196(2) 0.0637 Uani
C73 C 0.1760(4) 0.0419(3) 0.3372(3) 0.1028 Uani
H58 H 0.2388 0.0776 0.3510 0.1230 Uiso
C77 C 0.0119(4) 0.0253(3) 0.2996(4) 0.1244 Uani
C78 C 0.1666(3) 0.4659(2) 0.32284(16) 0.0512 Uani
C101 C 0.5487(3) 0.3546(3) 0.2889(2) 0.0674 Uani
C102 C 0.6461(3) 0.3535(3) 0.3049(2) 0.0754 Uani
H74 H 0.6935 0.4074 0.3142 0.0900 Uiso
C103 C 0.6743(4) 0.2724(3) 0.3075(3) 0.0831 Uani
H75 H 0.7408 0.2725 0.3180 0.1000 Uiso
C104 C 0.6048(4) 0.1911(3) 0.2946(3) 0.0820 Uani
C105 C 0.5064(4) 0.1923(3) 0.2754(4) 0.1224 Uani
H76 H 0.4592 0.1383 0.2648 0.1470 Uiso
C106 C 0.4791(4) 0.2733(3) 0.2722(3) 0.1080 Uani
H77 H 0.4139 0.2735 0.2588 0.1300 Uiso
C107 C 0.6338(4) 0.1043(3) 0.3004(3) 0.0812 Uani
C108 C 0.7131(4) 0.0775(3) 0.2774(3) 0.0898 Uani
H78 H 0.7535 0.1164 0.2597 0.1080 Uiso
C112 C 0.5757(4) 0.0440(3) 0.3261(3) 0.0948 Uani
H81 H 0.5196 0.0588 0.3405 0.1140 Uiso
C113 C 0.5171(3) 0.4433(3) 0.2888(2) 0.0601 Uani
C122 C 0.1956(6) 0.7255(5) 0.4504(2) 0.1287 Uani
H86 H 0.1583 0.7662 0.4409 0.1550 Uiso
C123 C 0.3034(10) 0.6930(11) 0.5197(4) 0.2438 Uani
H87 H 0.3354 0.6741 0.4876 0.3680 Uiso
H88 H 0.3515 0.7338 0.5484 0.3680 Uiso
H89 H 0.2745 0.6411 0.5339 0.3680 Uiso
C124 C 0.2177(18) 0.8035(17) 0.5467(5) 0.5068 Uani
H90 H 0.1668 0.7794 0.5675 0.7630 Uiso
H91 H 0.2789 0.8272 0.5716 0.7630 Uiso
H92 H 0.1982 0.8509 0.5306 0.7630 Uiso
N4 N 0.2311(7) 0.7355(6) 0.5043(2) 0.1632 Uani
O20 O 0.2544(2) 0.50861(18) 0.32274(12) 0.0620 Uani
O21 O 0.0955(2) 0.50480(18) 0.32353(13) 0.0668 Uani
O23 O 0.1273(2) 0.76408(17) 0.32951(12) 0.0591 Uani
O42 O 0.4298(2) 0.44139(18) 0.26887(15) 0.0752 Uani
O54 O 0.2083(2) 0.6680(2) 0.41316(12) 0.0709 Uani
C74 C 0.1591(3) 0.9493(3) 0.3344(3) 0.0879 Uani
H59 H 0.2114 0.9244 0.3465 0.1050 Uiso
C75 C 0.0688(3) 0.8934(2) 0.31481(18) 0.0544 Uani
C79 C 0.0529(3) 0.7925(2) 0.31271(17) 0.0487 Uani
C109 C 0.7343(4) 0.9939(3) 0.2799(3) 0.0872 Uani
H79 H 0.7876 0.9768 0.2634 0.1040 Uiso
C110 C 0.6766(3) 0.9356(3) 0.3069(2) 0.0619 Uani
C111 C 0.5991(4) 0.9635(3) 0.3307(3) 0.0850 Uani
H80 H 0.5615 0.9265 0.3506 0.1020 Uiso
C114 C 0.6945(3) 0.8427(3) 0.30873(18) 0.0560 Uani
O45 O 0.77024(19) 0.82207(18) 0.28805(14) 0.0662 Uani
H56 H 0.9804 0.1958 0.3340 0.1060 Uiso
H61 H 0.9597 0.0496 0.2867 0.1490 Uiso
C76 C 0.9956(4) 0.9325(3) 0.2977(3) 0.1223 Uani
H60 H 0.9327 0.8968 0.2842 0.1470 Uiso
C125 C 0.8817(5) 0.5187(5) 0.2239(4) 0.1322 Uani
H93 H 0.9396 0.5405 0.2492 0.1590 Uiso
C126 C 0.7805(12) 0.3992(10) 0.1601(7) 0.3520 Uani
H94 H 0.7958 0.4036 0.1229 0.5270 Uiso
H95 H 0.7547 0.3370 0.1611 0.5270 Uiso
H96 H 0.7317 0.4341 0.1697 0.5270 Uiso
C127 C 0.9327(10) 0.3765(8) 0.2087(7) 0.3056 Uani
H97 H 0.9857 0.4100 0.2374 0.4580 Uiso
H98 H 0.8981 0.3247 0.2212 0.4580 Uiso
H99 H 0.9596 0.3569 0.1749 0.4580 Uiso
N5 N 0.8661(7) 0.4320(4) 0.1982(4) 0.1980 Uani
O24 O 0.9709(2) 0.74328(19) 0.29460(18) 0.0878 Uani
O55 O 0.8333(3) 0.5693(3) 0.21877(19) 0.1020 Uani
O56 O 0.8411(4) 0.7425(3) 0.18283(19) 0.1259 Uani
C128 C 0.7885(10) 0.7617(11) 0.1428(5) 0.2830 Uiso
H100 H 0.7259 0.7751 0.1444 0.3400 Uiso
C129 C 0.9523(10) 0.7700(12) 0.0991(7) 0.3080 Uiso
H101 H 0.9811 0.8170 0.0806 0.4620 Uiso
H102 H 0.9777 0.7859 0.1384 0.4620 Uiso
H103 H 0.9691 0.7142 0.0826 0.4620 Uiso
C130 C 0.7926(11) 0.7196(11) 0.0364(6) 0.2900 Uiso
H104 H 0.7845 0.6550 0.0301 0.4350 Uiso
H105 H 0.7285 0.7349 0.0330 0.4350 Uiso
H106 H 0.8306 0.7426 0.0092 0.4350 Uiso
N6 N 0.8442(11) 0.7593(12) 0.0924(6) 0.3490 Uiso
loop_
_atom_site_aniso_label
_atom_site_aniso_U_11
_atom_site_aniso_U_22
_atom_site_aniso_U_33
_atom_site_aniso_U_23
_atom_site_aniso_U_13
_atom_site_aniso_U_12
Mn4 0.04 0.0461 0.0689 0.0107 0.0045 0.0125
C11 0.048 0.05 0.263 0.055 -0.035 0
C60 0.088 0.116 0.166 -0.019 -0.025 0.021
C61 0.305 0.243 0.39 -0.179 -0.222 0.125
C62 0.258 0.136 0.47 -0.026 -0.169 0.097
N2 0.214 0.088 0.248 -0.061 -0.104 0.077
O4 0.0395 0.0431 0.177 0.0289 -0.0098 0.0043
O18 0.069 0.08 0.146 -0.019 0.013 0.029
O19 0.161 0.13 0.091 0.043 0.029 0.016
O37 0.0422 0.0747 0.0391 0.0013 -0.0105 0.0076
O46 0.0433 0.0441 0.115 0.0195 0.0078 0.0166
O51 0.0626 0.0684 0.0657 0.0306 -0.0176 0.0095
Mn7 0.0381 0.0321 0.0451 0.0036 -0.0031 0.0097
Mn10 0.033 0.0341 0.045 -0.0029 -0.0084 0.0097
C80 0.058 0.092 0.042 0.001 -0.0134 0.019
C81 0.074 0.19 0.054 -0.025 -0.022 0.071
C82 0.089 0.21 0.044 -0.032 -0.023 0.075
C83 0.07 0.133 0.047 -0.008 -0.025 0.041
C85 0.104 0.172 0.049 -0.017 -0.024 0.087
C86 0.044 0.065 0.047 0.0029 -0.0117 0.0055
O25 0.0521 0.097 0.0478 -0.0094 -0.017 0.0291
O27 0.059 0.0722 0.0429 -0.0056 -0.0132 0.0225
C19 0.114 0.203 0.054 -0.017 -0.031 0.099
C9 0.053 0.042 0.161 0.02 -0.022 0.009
C10 0.039 0.042 0.083 0.0144 0.0026 0.0115
C14 0.042 0.036 0.072 0.0154 0.0076 0.0132
C44 0.065 0.051 0.162 0.038 0.029 0.03
C45 0.052 0.038 0.099 0.02 0.007 0.0132
C46 0.086 0.053 0.133 0.031 0.041 0.032
C49 0.051 0.0374 0.077 0.0061 -0.006 0.015
O3 0.0568 0.0427 0.0761 0.0053 -0.0093 0.0215
O13 0.0638 0.0355 0.0769 0.0104 0.0114 0.0152
Mn6 0.0381 0.0321 0.0451 0.0036 -0.0031 0.0097
Mn14 0.0344 0.0338 0.0403 0.0043 -0.0068 0.0111
Mn15 0.0344 0.0338 0.0403 0.0043 -0.0068 0.0111
Mn21 0.04 0.0461 0.0689 0.0107 0.0045 0.0125
C84 0.114 0.203 0.054 -0.017 -0.031 0.099
C94 0.043 0.079 0.042 0.0047 -0.0039 0.012
C95 0.047 0.168 0.044 -0.015 -0.0125 0.027
C96 0.05 0.18 0.042 -0.022 -0.004 0.023
C97 0.048 0.14 0.04 -0.003 -0.0001 0.017
C98 0.043 0.322 0.042 -0.023 -0.008 0.029
C99 0.051 0.271 0.042 -0.007 0.004 0.026
C100 0.041 0.052 0.0386 0.0105 0.0004 0.0097
O33 0.047 0.0633 0.0445 0.0057 -0.0006 0.0095
O36 0.0422 0.0747 0.0391 0.0013 -0.0105 0.0076
Mn2 0.033 0.0341 0.045 -0.0029 -0.0084 0.0097
C1 0.054 0.037 0.079 0.0173 0.013 0.0102
C2 0.054 0.047 0.182 0.036 0.018 0.003
C3 0.057 0.05 0.218 0.043 0.027 0.019
C4 0.048 0.038 0.107 0.022 0.007 0.005
C5 0.055 0.052 0.174 0.049 0.037 0.015
C6 0.07 0.043 0.164 0.042 0.047 0.021
C7 0.05 0.043 0.1 0.019 0.006 0.0123
C8 0.055 0.04 0.206 0.024 -0.015 0.008
C12 0.05 0.041 0.277 0.054 -0.029 0
C13 0.058 0.0365 0.057 0.0087 0.0106 0.0041
C15 0.058 0.092 0.042 0.001 -0.0134 0.019
C16 0.074 0.19 0.054 -0.025 -0.022 0.071
C17 0.089 0.21 0.044 -0.032 -0.023 0.075
C18 0.07 0.133 0.047 -0.008 -0.025 0.041
C20 0.104 0.172 0.049 -0.017 -0.024 0.087
C21 0.044 0.065 0.047 0.0029 -0.0117 0.0055
C22 0.0349 0.0412 0.0433 -0.0077 -0.008 0.0085
C23 0.065 0.048 0.054 -0.014 -0.0146 0.029
C24 0.068 0.056 0.056 -0.0159 -0.028 0.029
C25 0.044 0.0415 0.053 -0.011 -0.0129 0.0096
C26 0.064 0.065 0.093 -0.039 -0.038 0.037
C27 0.059 0.058 0.084 -0.023 -0.037 0.03
C28 0.0336 0.0426 0.035 0.0043 -0.0022 0.0054
C29 0.043 0.079 0.042 0.0047 -0.0039 0.012
C30 0.047 0.168 0.044 -0.015 -0.0125 0.027
C31 0.05 0.18 0.042 -0.022 -0.004 0.023
C32 0.048 0.14 0.04 -0.003 -0.0001 0.017
C33 0.043 0.322 0.042 -0.023 -0.008 0.029
C34 0.051 0.271 0.042 -0.007 0.004 0.026
C35 0.041 0.052 0.0386 0.0105 0.0004 0.0097
C36 0.053 0.036 0.113 0.012 0.008 0.0133
C37 0.051 0.044 0.131 0.021 -0.002 0.013
C38 0.059 0.053 0.141 0.023 0 0.024
C39 0.064 0.04 0.148 0.021 0.014 0.024
C40 0.065 0.041 0.261 0.038 -0.003 0.015
C41 0.056 0.043 0.224 0.02 -0.001 0.024
C42 0.067 0.041 0.144 0.024 0.018 0.025
C43 0.066 0.051 0.168 0.043 0.026 0.026
C47 0.088 0.053 0.163 0.031 0.047 0.04
C48 0.05 0.038 0.095 0.013 0.01 0.0163
C50 0.057 0.096 0.051 0.025 -0.0054 0.036
C51 0.142 0.377 0.111 0.135 0.052 0.196
C52 0.176 0.421 0.099 0.148 0.07 0.228
C53 0.055 0.124 0.062 0.038 0.002 0.048
C54 0.064 0.174 0.083 0.079 0.028 0.068
C55 0.068 0.152 0.078 0.066 0.014 0.05
C56 0.057 0.057 0.059 0.014 -0.028 0.009
C57 0.174 0.15 0.065 -0.012 -0.015 0.088
C58 0.266 0.42 0.097 0.086 0.002 0.177
C59 0.69 0.73 0.114 -0.179 -0.092 0.5
N1 0.228 0.202 0.056 -0.018 -0.013 0.093
O1 0.0616 0.0432 0.0771 0.0131 0.0078 0.0012
O2 0.0676 0.0408 0.097 0.0146 0.0249 0.0167
O5 0.0521 0.097 0.0478 -0.0094 -0.017 0.0291
O6 0.059 0.0722 0.0429 -0.0056 -0.0132 0.0225
O7 0.0355 0.038 0.0462 0.0002 -0.0092 0.0061
O8 0.0385 0.0356 0.0458 0.0025 -0.0007 0.0107
O9 0.047 0.0633 0.0445 0.0057 -0.0006 0.0095
O11 0.0632 0.0372 0.104 0.0132 -0.0033 0.0153
O12 0.053 0.0396 0.13 0.0074 -0.0019 0.0182
O15 0.068 0.114 0.0668 0.0158 -0.0146 0.051
O17 0.087 0.077 0.0486 0.0072 0.0038 0.0245
C87 0.0349 0.0412 0.0433 -0.0077 -0.008 0.0085
C88 0.065 0.048 0.054 -0.014 -0.0146 0.029
C89 0.068 0.056 0.056 -0.0159 -0.028 0.029
C90 0.044 0.0415 0.053 -0.011 -0.0129 0.0096
C91 0.064 0.065 0.093 -0.039 -0.038 0.037
C92 0.059 0.058 0.084 -0.023 -0.037 0.03
C93 0.0336 0.0426 0.035 0.0043 -0.0022 0.0054
O29 0.0355 0.038 0.0462 0.0002 -0.0092 0.0061
O31 0.0385 0.0356 0.0458 0.0025 -0.0007 0.0107
O41 0.0632 0.0372 0.104 0.0132 -0.0033 0.0153
O44 0.0638 0.0355 0.0769 0.0104 0.0114 0.0152
O49 0.068 0.114 0.0668 0.0158 -0.0146 0.051
O52 0.0626 0.0684 0.0657 0.0306 -0.0176 0.0095
C115 0.057 0.096 0.051 0.025 -0.0054 0.036
C116 0.142 0.377 0.111 0.135 0.052 0.196
C117 0.176 0.421 0.099 0.148 0.07 0.228
C118 0.055 0.124 0.062 0.038 0.002 0.048
C119 0.064 0.174 0.083 0.079 0.028 0.068
C120 0.068 0.152 0.078 0.066 0.014 0.05
C121 0.057 0.057 0.059 0.014 -0.028 0.009
C66 0.054 0.037 0.079 0.0173 0.013 0.0102
C67 0.054 0.047 0.182 0.036 0.018 0.003
C68 0.057 0.05 0.218 0.043 0.027 0.019
C69 0.048 0.038 0.107 0.022 0.007 0.005
C70 0.055 0.052 0.174 0.049 0.037 0.015
C71 0.07 0.043 0.164 0.042 0.047 0.021
C72 0.05 0.043 0.1 0.019 0.006 0.0123
C73 0.055 0.04 0.206 0.024 -0.015 0.008
C77 0.05 0.041 0.277 0.054 -0.029 0
C78 0.058 0.0365 0.057 0.0087 0.0106 0.0041
C101 0.053 0.036 0.113 0.012 0.008 0.0133
C102 0.051 0.044 0.131 0.021 -0.002 0.013
C103 0.059 0.053 0.141 0.023 0 0.024
C104 0.064 0.04 0.148 0.021 0.014 0.024
C105 0.065 0.041 0.261 0.038 -0.003 0.015
C106 0.056 0.043 0.224 0.02 -0.001 0.024
C107 0.067 0.041 0.144 0.024 0.018 0.025
C108 0.066 0.051 0.168 0.043 0.026 0.026
C112 0.088 0.053 0.163 0.031 0.047 0.04
C113 0.05 0.038 0.095 0.013 0.01 0.0163
C122 0.174 0.15 0.065 -0.012 -0.015 0.088
C123 0.266 0.42 0.097 0.086 0.002 0.177
C124 0.69 0.73 0.114 -0.179 -0.092 0.5
N4 0.228 0.202 0.056 -0.018 -0.013 0.093
O20 0.0616 0.0432 0.0771 0.0131 0.0078 0.0012
O21 0.0676 0.0408 0.097 0.0146 0.0249 0.0167
O23 0.0568 0.0427 0.0761 0.0053 -0.0093 0.0215
O42 0.053 0.0396 0.13 0.0074 -0.0019 0.0182
O54 0.087 0.077 0.0486 0.0072 0.0038 0.0245
C74 0.053 0.042 0.161 0.02 -0.022 0.009
C75 0.039 0.042 0.083 0.0144 0.0026 0.0115
C79 0.042 0.036 0.072 0.0154 0.0076 0.0132
C109 0.065 0.051 0.162 0.038 0.029 0.03
C110 0.052 0.038 0.099 0.02 0.007 0.0132
C111 0.086 0.053 0.133 0.031 0.041 0.032
C114 0.051 0.0374 0.077 0.0061 -0.006 0.015
O45 0.0433 0.0441 0.115 0.0195 0.0078 0.0166
C76 0.048 0.05 0.263 0.055 -0.035 0
C125 0.088 0.116 0.166 -0.019 -0.025 0.021
C126 0.305 0.243 0.39 -0.179 -0.222 0.125
C127 0.258 0.136 0.47 -0.026 -0.169 0.097
N5 0.214 0.088 0.248 -0.061 -0.104 0.077
O24 0.0395 0.0431 0.177 0.0289 -0.0098 0.0043
O55 0.069 0.08 0.146 -0.019 0.013 0.029
O56 0.161 0.13 0.091 0.043 0.029 0.016
loop_
_geom_bond_atom_site_label_1
_geom_bond_atom_site_label_2
_geom_bond_site_symmetry_1
_geom_bond_site_symmetry_2
Mn4 O4 1_555 1_555
H7 C11 1_555 1_555
C60 H40 1_555 1_555
C61 H41 1_555 1_555
H42 C61 1_555 1_555
H43 C61 1_555 1_555
C62 H44 1_555 1_555
H45 C62 1_555 1_555
H46 C62 1_555 1_555
N2 C60 1_555 1_555
O18 Mn4 1_555 1_555
O19 Mn4 1_555 1_555
C63 O19 1_555 1_555
H47 C63 1_555 1_555
C64 H48 1_555 1_555
H49 C64 1_555 1_555
H50 C64 1_555 1_555
C65 H51 1_555 1_555
H52 C65 1_555 1_555
H53 C65 1_555 1_555
N3 C63 1_555 1_555
O37 Mn4 1_555 1_555
O46 Mn4 1_555 1_555
O51 Mn4 1_555 1_555
C60 O18 1_555 1_555
C61 N2 1_555 1_555
C62 N2 1_555 1_555
C64 N3 1_555 1_555
C65 N3 1_555 1_555
Mn7 O27 1_555 1_555
Mn10 O25 1_555 1_555
C80 C81 1_555 1_555
C81 H62 1_555 1_555
C82 C81 1_555 1_555
H63 C82 1_555 1_555
C85 C80 1_555 1_555
H65 C85 1_555 1_555
C86 C80 1_555 1_555
O25 C86 1_555 1_555
O27 C86 1_555 1_555
C82 C83 1_555 1_555
H11 C19 1_555 1_555
H6 C9 1_555 1_555
C10 C9 1_555 1_555
C14 C10 1_555 1_555
H26 C44 1_555 1_555
C45 C44 1_555 1_555
C46 C45 1_555 1_555
H27 C46 1_555 1_555
C49 C45 1_555 1_555
O3 C14 1_555 1_555
O13 C49 1_555 1_555
O46 C49 1_555 1_555
Mn6 O3 1_555 1_555
Mn14 O13 1_555 1_555
Mn10 O33 1_555 1_555
Mn15 O33 1_555 1_555
Mn21 O36 1_555 1_555
H64 C84 1_555 1_555
C94 C95 1_555 1_555
C95 H70 1_555 1_555
C96 C95 1_555 1_555
H71 C96 1_555 1_555
C98 C97 1_555 1_555
H72 C98 1_555 1_555
C99 C94 1_555 1_555
H73 C99 1_555 1_555
C100 C94 1_555 1_555
O33 C100 1_555 1_555
O36 Mn15 1_555 1_555
C96 C97 1_555 1_555
C98 C99 1_555 1_555
C100 O36 1_555 1_555
Mn6 O1 1_555 1_555
Mn2 O1 1_555 1_555
Mn14 O8 1_555 1_555
C1 C2 1_555 1_555
C2 H1 1_555 1_555
C3 C2 1_555 1_555
H2 C3 1_555 1_555
C4 C3 1_555 1_555
C5 C4 1_555 1_555
C6 C1 1_555 1_555
H4 C6 1_555 1_555
C7 C4 1_555 1_555
C8 C7 1_555 1_555
H5 C8 1_555 1_555
C12 C7 1_555 1_555
C13 C1 1_555 1_555
C15 C16 1_555 1_555
C16 H9 1_555 1_555
C17 C16 1_555 1_555
H10 C17 1_555 1_555
C18 C17 1_555 1_555
C20 C15 1_555 1_555
H12 C20 1_555 1_555
C21 C15 1_555 1_555
C22 C23 1_555 1_555
C23 H13 1_555 1_555
C24 C23 1_555 1_555
H14 C24 1_555 1_555
C25 C24 1_555 1_555
C26 C25 1_555 1_555
H15 C26 1_555 1_555
C27 C22 1_555 1_555
H16 C27 1_555 1_555
C28 C22 1_555 1_555
C29 C30 1_555 1_555
C30 H17 1_555 1_555
C31 C30 1_555 1_555
H18 C31 1_555 1_555
C32 C31 1_555 1_555
C33 C32 1_555 1_555
H19 C33 1_555 1_555
C34 C29 1_555 1_555
H20 C34 1_555 1_555
C35 C29 1_555 1_555
C36 C37 1_555 1_555
C37 H21 1_555 1_555
C38 C37 1_555 1_555
H22 C38 1_555 1_555
C39 C38 1_555 1_555
C40 C39 1_555 1_555
H23 C40 1_555 1_555
C41 C36 1_555 1_555
H24 C41 1_555 1_555
C42 C39 1_555 1_555
C43 C42 1_555 1_555
H25 C43 1_555 1_555
C47 C42 1_555 1_555
H28 C47 1_555 1_555
C48 C36 1_555 1_555
C50 C51 1_555 1_555
C51 H29 1_555 1_555
C52 C51 1_555 1_555
H30 C52 1_555 1_555
C53 C52 1_555 1_555
C54 C53 1_555 1_555
C55 C50 1_555 1_555
H32 C55 1_555 1_555
C56 C50 1_555 1_555
C57 H33 1_555 1_555
C58 H34 1_555 1_555
H35 C58 1_555 1_555
H36 C58 1_555 1_555
C59 H37 1_555 1_555
H38 C59 1_555 1_555
H39 C59 1_555 1_555
N1 C57 1_555 1_555
O1 C13 1_555 1_555
O2 Mn6 1_555 1_555
O5 Mn2 1_555 1_555
O6 Mn6 1_555 1_555
O7 Mn6 1_555 1_555
O8 Mn2 1_555 1_555
O9 Mn2 1_555 1_555
O37 Mn14 1_555 1_555
O11 Mn14 1_555 1_555
O12 Mn2 1_555 1_555
O15 Mn14 1_555 1_555
O51 Mn14 1_555 1_555
O17 Mn6 1_555 1_555
Mn2 O7 1_555 1_555
Mn14 O9 1_555 1_555
C5 C6 1_555 1_555
C13 O2 1_555 1_555
C21 O5 1_555 1_555
C21 O6 1_555 1_555
C26 C27 1_555 1_555
C28 O7 1_555 1_555
C28 O8 1_555 1_555
C33 C34 1_555 1_555
C35 O9 1_555 1_555
C35 O37 1_555 1_555
C40 C41 1_555 1_555
C48 O11 1_555 1_555
C48 O12 1_555 1_555
C54 C55 1_555 1_555
C56 O15 1_555 1_555
C56 O51 1_555 1_555
C57 O17 1_555 1_555
C58 N1 1_555 1_555
C59 N1 1_555 1_555
Mn7 O29 1_555 1_555
Mn10 O29 1_555 1_555
Mn15 O31 1_555 1_555
C87 C88 1_555 1_555
C88 H66 1_555 1_555
C89 C88 1_555 1_555
H67 C89 1_555 1_555
C91 C90 1_555 1_555
H68 C91 1_555 1_555
C92 C87 1_555 1_555
H69 C92 1_555 1_555
C93 C87 1_555 1_555
O29 C93 1_555 1_555
O31 Mn10 1_555 1_555
O41 Mn15 1_555 1_555
O44 Mn15 1_555 1_555
O49 Mn15 1_555 1_555
O52 Mn15 1_555 1_555
C89 C90 1_555 1_555
C91 C92 1_555 1_555
C93 O31 1_555 1_555
Mn21 O52 1_555 1_555
C115 C116 1_555 1_555
C116 H82 1_555 1_555
C117 C116 1_555 1_555
H83 C117 1_555 1_555
C119 C118 1_555 1_555
C120 C115 1_555 1_555
H85 C120 1_555 1_555
C121 C115 1_555 1_555
O49 C121 1_555 1_555
C117 C118 1_555 1_555
C119 C120 1_555 1_555
C121 O52 1_555 1_555
Mn7 O20 1_555 1_555
Mn10 O20 1_555 1_555
C66 C67 1_555 1_555
C67 H54 1_555 1_555
C68 C67 1_555 1_555
H55 C68 1_555 1_555
C69 C68 1_555 1_555
C70 C69 1_555 1_555
C71 C66 1_555 1_555
H57 C71 1_555 1_555
C72 C69 1_555 1_555
C73 C72 1_555 1_555
H58 C73 1_555 1_555
C77 C72 1_555 1_555
C78 C66 1_555 1_555
C101 C102 1_555 1_555
C102 H74 1_555 1_555
C103 C102 1_555 1_555
H75 C103 1_555 1_555
C104 C103 1_555 1_555
C105 C104 1_555 1_555
H76 C105 1_555 1_555
C106 C101 1_555 1_555
H77 C106 1_555 1_555
C107 C104 1_555 1_555
C108 C107 1_555 1_555
H78 C108 1_555 1_555
C112 C107 1_555 1_555
H81 C112 1_555 1_555
C113 C101 1_555 1_555
C122 H86 1_555 1_555
C123 H87 1_555 1_555
H88 C123 1_555 1_555
H89 C123 1_555 1_555
C124 H90 1_555 1_555
H91 C124 1_555 1_555
H92 C124 1_555 1_555
N4 C122 1_555 1_555
O20 C78 1_555 1_555
O21 Mn7 1_555 1_555
O23 Mn7 1_555 1_555
O42 Mn10 1_555 1_555
O54 Mn7 1_555 1_555
C70 C71 1_555 1_555
C78 O21 1_555 1_555
C105 C106 1_555 1_555
C113 O41 1_555 1_555
C113 O42 1_555 1_555
C122 O54 1_555 1_555
C123 N4 1_555 1_555
C124 N4 1_555 1_555
H59 C74 1_555 1_555
C75 C74 1_555 1_555
C79 C75 1_555 1_555
H79 C109 1_555 1_555
C110 C109 1_555 1_555
C111 C110 1_555 1_555
H80 C111 1_555 1_555
C114 C110 1_555 1_555
O45 Mn21 1_555 1_555
C79 O23 1_555 1_555
C114 O44 1_555 1_555
C114 O45 1_555 1_555
Mn21 O24 1_555 1_555
H60 C76 1_555 1_555
C125 H93 1_555 1_555
C126 H94 1_555 1_555
H95 C126 1_555 1_555
H96 C126 1_555 1_555
C127 H97 1_555 1_555
H98 C127 1_555 1_555
H99 C127 1_555 1_555
N5 C125 1_555 1_555
O55 Mn21 1_555 1_555
O56 Mn21 1_555 1_555
C128 O56 1_555 1_555
H100 C128 1_555 1_555
C129 H101 1_555 1_555
H102 C129 1_555 1_555
H103 C129 1_555 1_555
C130 H104 1_555 1_555
H105 C130 1_555 1_555
H106 C130 1_555 1_555
N6 C128 1_555 1_555
C125 O55 1_555 1_555
C126 N5 1_555 1_555
C127 N5 1_555 1_555
C129 N6 1_555 1_555
C130 N6 1_555 1_555

#END
