
###############################################################################
#
# This file contains modified crystal structure data generated from the
# MOF subset of the Cambridge Structural Database (CSD) v543 
# hosted by the Cambridge Crystallographic Data Centre (CCDC).
#
# This work is licensed under the Creative Commons
# Attribution-NonCommercial-ShareAlike 4.0 International License.
# To view a copy of this license, visit
# http://creativecommons.org/licenses/by-nc-sa/4.0/
# or send a letter to
# Creative Commons, PO Box 1866, Mountain View, CA 94042, USA.
#
# CIF created using the CSD Python API on 29 September 2022
# The structure has been converted into the P1 space group
# The structure has a 3D framework
# The original CSD entry VUQJUN is in the triclinic crystal system
# The framework has been calculated to contain at least 10.0% void space
# The void calculation uses a probe of radius 1.32A, grid spacing 0.4
#
###############################################################################

data_VUQJUN
_chemical_formula_moiety         '(C130 H106 Mn8 N6 O38)n'
_symmetry_cell_setting           triclinic
_symmetry_space_group_name_H-M   'P 1'
_symmetry_Int_Tables_number      1
_space_group_name_Hall           'P 1'
loop_
_symmetry_equiv_pos_site_id
_symmetry_equiv_pos_as_xyz
1 x,y,z
_cell_length_a                   13.819(3)
_cell_length_b                   15.382(3)
_cell_length_c                   24.383(5)
_cell_angle_alpha                100.41(3)
_cell_angle_beta                 95.25(3)
_cell_angle_gamma                101.09(3)
_cell_volume                     4959.46
loop_
_atom_site_label
_atom_site_type_symbol
_atom_site_fract_x
_atom_site_fract_y
_atom_site_fract_z
_atom_site_U_iso_or_equiv
_atom_site_thermal_displace_type
H53 H 0.1824 0.2656 0.0043 0.4620 Uiso
C1 C 0.2156(15) 0.2739(19) 0.9703(7) 0.2900 Uiso
Mn4 Mn 0.18142(5) 0.30163(5) 0.73737(4) 0.0515 Uani
C12 C 0.0044(5) 0.0674(5) 0.7018(5) 0.1295 Uani
H7 H 0.0672 0.1031 0.7156 0.1550 Uiso
C61 C 0.1169(7) 0.4821(7) 0.7767(5) 0.1287 Uani
H40 H 0.0576 0.4597 0.7526 0.1550 Uiso
C62 C 0.2141(18) 0.5977(15) 0.8421(13) 0.4143 Uani
H41 H 0.1916 0.6006 0.8783 0.6180 Uiso
H42 H 0.2483 0.6568 0.8390 0.6180 Uiso
H43 H 0.2586 0.5568 0.8377 0.6180 Uiso
C63 C 0.0665(15) 0.6192(11) 0.7871(11) 0.3281 Uani
H44 H 0.0179 0.5845 0.7564 0.4920 Uiso
H45 H 0.1013 0.6726 0.7764 0.4920 Uiso
H46 H 0.0338 0.6364 0.8192 0.4920 Uiso
N2 N 0.1337(9) 0.5675(6) 0.8007(5) 0.1927 Uani
O4 O 0.0290(3) 0.2572(3) 0.7053(2) 0.0896 Uani
O18 O 0.1667(4) 0.4307(4) 0.7816(3) 0.1018 Uani
O19 O 0.1597(6) 0.2575(5) 0.8169(3) 0.1252 Uani
C64 C 0.2054(14) 0.2541(17) 0.8633(6) 0.2830 Uiso
H47 H 0.2730 0.2543 0.8654 0.3400 Uiso
C65 C 0.0481(13) 0.2305(17) 0.9139(9) 0.3080 Uiso
H48 H 0.0290 0.1854 0.9358 0.4620 Uiso
H49 H 0.0169 0.2085 0.8758 0.4620 Uiso
H50 H 0.0275 0.2848 0.9295 0.4620 Uiso
H51 H 0.2078 0.3581 0.9836 0.4620 Uiso
H52 H 0.2795 0.2979 0.9764 0.4620 Uiso
N3 N 0.1562(14) 0.2497(17) 0.9150(7) 0.3490 Uiso
O37 O 0.3491(3) 0.3613(3) 0.76556(13) 0.0554 Uani
O46 O 0.2299(3) 0.1783(2) 0.71227(19) 0.0664 Uani
O51 O 0.2147(3) 0.3563(3) 0.66429(16) 0.0655 Uani
Mn7 Mn 0.17461(5) 0.64356(4) 0.32339(3) 0.0394 Uani
Mn10 Mn 0.36787(5) 0.55613(4) 0.27384(3) 0.0393 Uani
C81 C 0.1306(4) 0.5485(5) 0.1384(2) 0.0660 Uani
C82 C 0.1636(6) 0.4973(7) 0.0944(3) 0.1103 Uani
H62 H 0.2207 0.4751 0.1009 0.1320 Uiso
C83 C 0.1123(6) 0.4785(8) 0.0406(3) 0.1201 Uani
H63 H 0.1358 0.4440 0.0114 0.1440 Uiso
C84 C 0.0272(5) 0.5100(6) 0.0295(2) 0.0888 Uani
C86 C 0.0448(6) 0.5774(7) 0.1271(3) 0.1066 Uani
H65 H 0.0209 0.6117 0.1562 0.1280 Uiso
C87 C 0.1863(4) 0.5688(4) 0.1967(2) 0.0541 Uani
O25 O 0.2637(3) 0.5385(3) 0.20332(15) 0.0677 Uani
O27 O 0.1493(3) 0.6125(3) 0.23488(14) 0.0603 Uani
H3 H 0.0194 0.8040 0.6649 0.1100 Uiso
H8 H 0.0413 0.9503 0.7111 0.1610 Uiso
C20 C 0.0063(7) 0.4427(7) 0.9252(3) 0.1234 Uani
H11 H 0.0659 0.4240 0.9307 0.1480 Uiso
C10 C 0.8408(5) 0.0504(4) 0.6652(4) 0.0916 Uani
H6 H 0.7885 0.0750 0.6527 0.1100 Uiso
C11 C 0.9314(4) 0.1066(3) 0.6850(2) 0.0544 Uani
C15 C 0.9470(4) 0.2073(3) 0.6875(2) 0.0503 Uani
C45 C 0.2654(5) 0.0058(4) 0.7200(4) 0.0863 Uani
H26 H 0.2122 0.0228 0.7367 0.1040 Uiso
C46 C 0.3229(4) 0.0640(4) 0.6927(3) 0.0633 Uani
C47 C 0.4016(5) 0.0368(4) 0.6697(4) 0.0871 Uani
H27 H 0.4406 0.0746 0.6507 0.1040 Uiso
C50 C 0.3055(4) 0.1572(3) 0.6914(2) 0.0566 Uani
O3 O 0.8727(3) 0.2359(2) 0.67051(16) 0.0587 Uani
O13 O 0.3681(3) 0.2083(2) 0.67134(16) 0.0584 Uani
Mn6 Mn 0.82539(5) 0.35644(4) 0.67661(3) 0.0394 Uani
Mn14 Mn 0.39124(5) 0.34591(4) 0.67524(3) 0.0369 Uani
Mn15 Mn 0.60876(5) 0.65409(4) 0.32476(3) 0.0369 Uani
Mn21 Mn 0.81858(5) 0.69837(5) 0.26263(4) 0.0515 Uani
C85 C 0.9937(7) 0.5573(7) 0.0748(3) 0.1234 Uani
H64 H 0.9341 0.5760 0.0693 0.1480 Uiso
C95 C 0.5451(4) 0.5846(4) 0.1477(2) 0.0568 Uani
C96 C 0.6211(5) 0.5735(6) 0.1174(2) 0.0939 Uani
H70 H 0.6861 0.5883 0.1354 0.1130 Uiso
C97 C 0.6030(5) 0.5403(7) 0.0596(3) 0.1011 Uani
H71 H 0.6563 0.5326 0.0399 0.1210 Uiso
C98 C 0.5096(4) 0.5187(6) 0.0311(2) 0.0785 Uani
C99 C 0.4349(5) 0.5323(9) 0.0626(3) 0.1452 Uani
H72 H 0.3703 0.5211 0.0444 0.1740 Uiso
C100 C 0.4508(5) 0.5611(8) 0.1190(3) 0.1275 Uani
H73 H 0.3968 0.5652 0.1387 0.1530 Uiso
C101 C 0.5637(3) 0.6187(3) 0.21008(19) 0.0452 Uani
O33 O 0.4910(3) 0.6257(2) 0.23659(13) 0.0530 Uani
O36 O 0.6509(3) 0.6387(3) 0.23444(13) 0.0554 Uani
Mn2 Mn 0.63213(5) 0.44387(4) 0.72616(3) 0.0393 Uani
C2 C 0.8504(4) 0.6332(3) 0.6769(2) 0.0566 Uani
C3 C 0.7748(5) 0.6783(4) 0.6835(4) 0.0921 Uani
H1 H 0.7120 0.6470 0.6874 0.1100 Uiso
C4 C 0.7912(5) 0.7709(5) 0.6846(4) 0.1032 Uani
H2 H 0.7388 0.8004 0.6894 0.1240 Uiso
C5 C 0.8816(4) 0.8195(4) 0.6788(3) 0.0660 Uani
C6 C 0.9574(5) 0.7735(4) 0.6706(4) 0.0910 Uani
C7 C 0.9410(5) 0.6816(4) 0.6710(4) 0.0909 Uani
H4 H 0.9936 0.6522 0.6670 0.1090 Uiso
C8 C 0.8986(4) 0.9186(4) 0.6799(3) 0.0647 Uani
C9 C 0.8241(5) 0.9584(4) 0.6631(4) 0.1009 Uani
H5 H 0.7609 0.9229 0.6500 0.1210 Uiso
C13 C 0.9885(5) 0.9748(4) 0.6992(5) 0.1341 Uani
C14 C 0.8332(4) 0.5338(3) 0.6771(2) 0.0514 Uani
C16 C 0.8694(4) 0.4515(5) 0.8616(2) 0.0660 Uani
C17 C 0.8364(6) 0.5027(7) 0.9056(3) 0.1103 Uani
H9 H 0.7793 0.5249 0.8991 0.1320 Uiso
C18 C 0.8877(6) 0.5215(8) 0.9594(3) 0.1201 Uani
H10 H 0.8642 0.5560 0.9886 0.1440 Uiso
C19 C 0.9728(5) 0.4900(6) 0.9705(2) 0.0888 Uani
C21 C 0.9552(6) 0.4226(7) 0.8729(3) 0.1066 Uani
H12 H 0.9791 0.3883 0.8438 0.1280 Uiso
C22 C 0.8137(4) 0.4312(4) 0.8033(2) 0.0541 Uani
C23 C 0.5653(3) 0.2070(3) 0.60086(19) 0.0430 Uani
C24 C 0.4866(4) 0.1921(3) 0.5592(2) 0.0584 Uani
H13 H 0.4495 0.2362 0.5574 0.0700 Uiso
C25 C 0.4624(4) 0.1118(4) 0.5199(2) 0.0630 Uani
H14 H 0.4097 0.1034 0.4915 0.0750 Uiso
C26 C 0.5137(3) 0.0438(3) 0.5215(2) 0.0495 Uani
C27 C 0.5930(5) 0.0597(4) 0.5635(3) 0.0830 Uani
H15 H 0.6297 0.0154 0.5655 0.1000 Uiso
C28 C 0.6187(4) 0.1401(4) 0.6024(3) 0.0729 Uani
H16 H 0.6728 0.1494 0.6301 0.0880 Uiso
C29 C 0.5917(3) 0.2914(3) 0.64472(18) 0.0384 Uani
C30 C 0.4549(4) 0.4154(4) 0.8523(2) 0.0568 Uani
C31 C 0.3789(5) 0.4265(6) 0.8826(2) 0.0939 Uani
H17 H 0.3139 0.4117 0.8646 0.1130 Uiso
C32 C 0.3970(5) 0.4597(7) 0.9404(3) 0.1011 Uani
H18 H 0.3437 0.4674 0.9601 0.1210 Uiso
C33 C 0.4904(4) 0.4813(6) 0.9689(2) 0.0785 Uani
C34 C 0.5651(5) 0.4677(9) 0.9374(3) 0.1452 Uani
H19 H 0.6297 0.4789 0.9556 0.1740 Uiso
C35 C 0.5492(5) 0.4389(8) 0.8810(3) 0.1275 Uani
H20 H 0.6032 0.4348 0.8613 0.1530 Uiso
C36 C 0.4363(3) 0.3813(3) 0.78992(19) 0.0452 Uani
C37 C 0.4515(4) 0.6458(4) 0.7112(3) 0.0688 Uani
C38 C 0.3540(4) 0.6466(4) 0.6952(3) 0.0773 Uani
H21 H 0.3065 0.5927 0.6865 0.0930 Uiso
C39 C 0.3261(5) 0.7276(4) 0.6919(3) 0.0834 Uani
H22 H 0.2598 0.7274 0.6808 0.1000 Uiso
C40 C 0.3949(5) 0.8085(4) 0.7048(4) 0.0850 Uani
C41 C 0.4936(5) 0.8071(5) 0.7255(5) 0.1201 Uani
H23 H 0.5402 0.8613 0.7374 0.1440 Uiso
C42 C 0.5211(5) 0.7275(4) 0.7282(5) 0.1096 Uani
H24 H 0.5865 0.7275 0.7413 0.1320 Uiso
C43 C 0.3667(5) 0.8960(4) 0.6996(4) 0.0818 Uani
C44 C 0.2868(5) 0.9225(4) 0.7225(4) 0.0888 Uani
H25 H 0.2464 0.8834 0.7400 0.1070 Uiso
C48 C 0.4243(6) 0.9554(5) 0.6740(4) 0.0960 Uani
H28 H 0.4800 0.9401 0.6593 0.1150 Uiso
C49 C 0.4827(4) 0.5562(4) 0.7107(3) 0.0610 Uani
C51 C 0.1611(4) 0.4029(5) 0.5804(2) 0.0652 Uani
C52 C 0.1788(8) 0.4162(11) 0.5290(4) 0.1792 Uani
H29 H 0.2331 0.3982 0.5141 0.2170 Uiso
C53 C 0.1176(9) 0.4567(11) 0.4973(4) 0.1932 Uani
H30 H 0.1343 0.4691 0.4630 0.2330 Uiso
C54 C 0.0330(4) 0.4781(6) 0.5165(3) 0.0768 Uani
C55 C 0.0162(5) 0.4630(6) 0.5680(3) 0.0969 Uani
C56 C 0.0789(5) 0.4263(6) 0.6000(3) 0.0915 Uani
H32 H 0.0647 0.4175 0.6354 0.1090 Uiso
C57 C 0.2310(4) 0.3642(4) 0.6153(2) 0.0613 Uani
C58 C 0.8058(9) 0.2744(8) 0.5493(3) 0.1373 Uani
H33 H 0.8446 0.2346 0.5584 0.1650 Uiso
C59 C 0.6924(15) 0.3039(17) 0.4788(6) 0.2614 Uani
H34 H 0.6575 0.3191 0.5103 0.3910 Uiso
H35 H 0.6475 0.2619 0.4491 0.3910 Uiso
H36 H 0.7186 0.3578 0.4657 0.3910 Uiso
C60 C 0.779(3) 0.203(3) 0.4526(7) 0.6008 Uani
H37 H 0.7490 0.2133 0.4181 0.8960 Uiso
H38 H 0.7481 0.1440 0.4581 0.8960 Uiso
H39 H 0.8490 0.2049 0.4506 0.8960 Uiso
N1 N 0.7689(10) 0.2653(8) 0.4951(3) 0.1699 Uani
O1 O 0.7456(3) 0.4911(2) 0.67715(17) 0.0616 Uani
O2 O 0.9043(3) 0.4949(2) 0.67618(18) 0.0661 Uani
O5 O 0.7363(3) 0.4615(3) 0.79668(15) 0.0677 Uani
O6 O 0.8507(3) 0.3875(3) 0.76512(14) 0.0603 Uani
O7 O 0.6664(2) 0.3052(2) 0.68164(13) 0.0431 Uani
O8 O 0.5372(2) 0.3501(2) 0.64568(13) 0.0410 Uani
O9 O 0.5090(3) 0.3743(2) 0.76341(13) 0.0530 Uani
O11 O 0.4190(3) 0.4875(2) 0.68906(19) 0.0685 Uani
O12 O 0.5704(3) 0.5584(2) 0.7312(2) 0.0755 Uani
O15 O 0.3077(3) 0.3458(4) 0.59540(18) 0.0818 Uani
O17 O 0.7912(3) 0.3318(3) 0.58696(16) 0.0718 Uani
H84 H 0.0398 0.5221 0.4176 0.1160 Uiso
C88 C 0.4347(3) 0.7930(3) 0.39914(19) 0.0430 Uani
C89 C 0.5134(4) 0.8079(3) 0.4408(2) 0.0584 Uani
H66 H 0.5505 0.7638 0.4426 0.0700 Uiso
C90 C 0.5376(4) 0.8882(4) 0.4801(2) 0.0630 Uani
H67 H 0.5903 0.8966 0.5085 0.0750 Uiso
C91 C 0.4863(3) 0.9562(3) 0.4785(2) 0.0495 Uani
C92 C 0.4070(5) 0.9403(4) 0.4365(3) 0.0830 Uani
H68 H 0.3703 0.9846 0.4345 0.1000 Uiso
C93 C 0.3813(4) 0.8599(4) 0.3976(3) 0.0729 Uani
H69 H 0.3272 0.8506 0.3699 0.0880 Uiso
C94 C 0.4083(3) 0.7086(3) 0.35528(18) 0.0384 Uani
O29 O 0.3336(2) 0.6948(2) 0.31836(13) 0.0431 Uani
O31 O 0.4628(2) 0.6499(2) 0.35432(13) 0.0410 Uani
O41 O 0.5810(3) 0.5125(2) 0.31094(19) 0.0685 Uani
O44 O 0.6319(3) 0.7917(2) 0.32866(16) 0.0584 Uani
O49 O 0.6923(3) 0.6542(4) 0.40460(18) 0.0818 Uani
O52 O 0.7853(3) 0.6437(3) 0.33571(16) 0.0655 Uani
H31 H 0.9602 0.4779 0.5824 0.1160 Uiso
C116 C 0.8389(4) 0.5971(5) 0.4196(2) 0.0652 Uani
C117 C 0.8212(8) 0.5838(11) 0.4710(4) 0.1792 Uani
H82 H 0.7669 0.6018 0.4859 0.2170 Uiso
C118 C 0.8824(9) 0.5433(11) 0.5027(4) 0.1932 Uani
H83 H 0.8657 0.5309 0.5370 0.2330 Uiso
C119 C 0.9670(4) 0.5219(6) 0.4835(3) 0.0768 Uani
C120 C 0.9838(5) 0.5370(6) 0.4320(3) 0.0969 Uani
C121 C 0.9211(5) 0.5737(6) 0.4000(3) 0.0915 Uani
H85 H 0.9353 0.5825 0.3646 0.1090 Uiso
C122 C 0.7690(4) 0.6358(4) 0.3847(2) 0.0613 Uani
C67 C 0.1496(4) 0.3668(3) 0.3231(2) 0.0566 Uani
C68 C 0.2252(5) 0.3217(4) 0.3165(4) 0.0921 Uani
H54 H 0.2880 0.3530 0.3126 0.1100 Uiso
C69 C 0.2088(5) 0.2291(5) 0.3154(4) 0.1032 Uani
H55 H 0.2612 0.1996 0.3106 0.1240 Uiso
C70 C 0.1184(4) 0.1805(4) 0.3212(3) 0.0660 Uani
C71 C 0.0426(5) 0.2265(4) 0.3294(4) 0.0910 Uani
C72 C 0.0590(5) 0.3184(4) 0.3290(4) 0.0909 Uani
H57 H 0.0064 0.3478 0.3330 0.1090 Uiso
C73 C 0.1014(4) 0.0814(4) 0.3201(3) 0.0647 Uani
C74 C 0.1759(5) 0.0416(4) 0.3369(4) 0.1009 Uani
H58 H 0.2391 0.0771 0.3500 0.1210 Uiso
C78 C 0.0115(5) 0.0252(4) 0.3008(5) 0.1341 Uani
C79 C 0.1668(4) 0.4662(3) 0.3229(2) 0.0514 Uani
C102 C 0.5485(4) 0.3542(4) 0.2888(3) 0.0688 Uani
C103 C 0.6460(4) 0.3534(4) 0.3048(3) 0.0773 Uani
H74 H 0.6935 0.4073 0.3135 0.0930 Uiso
C104 C 0.6739(5) 0.2724(4) 0.3081(3) 0.0834 Uani
H75 H 0.7402 0.2726 0.3192 0.1000 Uiso
C105 C 0.6051(5) 0.1915(4) 0.2952(4) 0.0850 Uani
C106 C 0.5064(5) 0.1929(5) 0.2745(5) 0.1201 Uani
H76 H 0.4598 0.1387 0.2626 0.1440 Uiso
C107 C 0.4789(5) 0.2725(4) 0.2718(5) 0.1096 Uani
H77 H 0.4135 0.2725 0.2587 0.1320 Uiso
C108 C 0.6333(5) 0.1040(4) 0.3004(4) 0.0818 Uani
C109 C 0.7132(5) 0.0775(4) 0.2775(4) 0.0888 Uani
H78 H 0.7536 0.1166 0.2600 0.1070 Uiso
C113 C 0.5757(6) 0.0446(5) 0.3260(4) 0.0960 Uani
H81 H 0.5200 0.0599 0.3407 0.1150 Uiso
C114 C 0.5173(4) 0.4438(4) 0.2893(3) 0.0610 Uani
C123 C 0.1942(9) 0.7256(8) 0.4507(3) 0.1373 Uani
H86 H 0.1554 0.7654 0.4416 0.1650 Uiso
C124 C 0.3076(15) 0.6961(17) 0.5212(6) 0.2614 Uani
H87 H 0.3425 0.6809 0.4897 0.3910 Uiso
H88 H 0.3525 0.7381 0.5509 0.3910 Uiso
H89 H 0.2814 0.6422 0.5343 0.3910 Uiso
C125 C 0.221(3) 0.797(3) 0.5474(7) 0.6008 Uani
H90 H 0.2510 0.7867 0.5819 0.8960 Uiso
H91 H 0.2519 0.8560 0.5419 0.8960 Uiso
H92 H 0.1510 0.7951 0.5494 0.8960 Uiso
N4 N 0.2311(10) 0.7347(8) 0.5049(3) 0.1699 Uani
O20 O 0.2544(3) 0.5089(2) 0.32285(17) 0.0616 Uani
O21 O 0.0957(3) 0.5051(2) 0.32382(18) 0.0661 Uani
O23 O 0.1273(3) 0.7641(2) 0.32949(16) 0.0587 Uani
O42 O 0.4296(3) 0.4416(2) 0.2688(2) 0.0755 Uani
O54 O 0.2088(3) 0.6682(3) 0.41304(16) 0.0718 Uani
C75 C 0.1592(5) 0.9496(4) 0.3348(4) 0.0916 Uani
H59 H 0.2115 0.9250 0.3473 0.1100 Uiso
C76 C 0.0686(4) 0.8934(3) 0.3150(2) 0.0544 Uani
C80 C 0.0530(4) 0.7927(3) 0.3125(2) 0.0503 Uani
C110 C 0.7346(5) 0.9942(4) 0.2800(4) 0.0863 Uani
H79 H 0.7878 0.9772 0.2633 0.1040 Uiso
C111 C 0.6771(4) 0.9360(4) 0.3073(3) 0.0633 Uani
C112 C 0.5984(5) 0.9632(4) 0.3303(4) 0.0871 Uani
H80 H 0.5594 0.9254 0.3493 0.1040 Uiso
C115 C 0.6945(4) 0.8428(3) 0.3086(2) 0.0566 Uani
O45 O 0.7701(3) 0.8217(2) 0.28773(19) 0.0664 Uani
H56 H 0.9806 0.1960 0.3351 0.1100 Uiso
H61 H 0.9587 0.0497 0.2889 0.1610 Uiso
C66 C 0.7844(15) 0.7261(19) 0.0297(7) 0.2900 Uiso
C77 C 0.9956(5) 0.9326(5) 0.2982(5) 0.1295 Uani
H60 H 0.9328 0.8969 0.2844 0.1550 Uiso
C126 C 0.8831(7) 0.5179(7) 0.2233(5) 0.1287 Uani
H93 H 0.9424 0.5403 0.2474 0.1550 Uiso
C127 C 0.7859(18) 0.4023(15) 0.1579(13) 0.4143 Uani
H94 H 0.8084 0.3994 0.1217 0.6180 Uiso
H95 H 0.7517 0.3432 0.1610 0.6180 Uiso
H96 H 0.7414 0.4432 0.1623 0.6180 Uiso
C128 C 0.9335(15) 0.3808(11) 0.2129(11) 0.3281 Uani
H97 H 0.9821 0.4155 0.2436 0.4920 Uiso
H98 H 0.8987 0.3274 0.2236 0.4920 Uiso
H99 H 0.9662 0.3636 0.1808 0.4920 Uiso
N5 N 0.8663(9) 0.4325(6) 0.1993(5) 0.1927 Uani
O24 O 0.9710(3) 0.7428(3) 0.2947(2) 0.0896 Uani
O55 O 0.8333(4) 0.5693(4) 0.2184(3) 0.1018 Uani
O56 O 0.8403(6) 0.7425(5) 0.1831(3) 0.1252 Uani
C129 C 0.7946(14) 0.7459(17) 0.1367(6) 0.2830 Uiso
H100 H 0.7270 0.7457 0.1346 0.3400 Uiso
C130 C 0.9519(13) 0.7695(17) 0.0861(9) 0.3080 Uiso
H101 H 0.9710 0.8146 0.0642 0.4620 Uiso
H102 H 0.9831 0.7915 0.1242 0.4620 Uiso
H103 H 0.9725 0.7152 0.0705 0.4620 Uiso
H104 H 0.7922 0.6419 0.0164 0.4620 Uiso
H105 H 0.7205 0.7021 0.0236 0.4620 Uiso
N6 N 0.8438(14) 0.7503(17) 0.0850(7) 0.3490 Uiso
H106 H 0.8176 0.7344 0.9957 0.4620 Uiso
loop_
_atom_site_aniso_label
_atom_site_aniso_U_11
_atom_site_aniso_U_22
_atom_site_aniso_U_33
_atom_site_aniso_U_23
_atom_site_aniso_U_13
_atom_site_aniso_U_12
Mn4 0.0405 0.0458 0.0689 0.0108 0.0045 0.0127
C12 0.047 0.049 0.289 0.062 -0.03 0
C61 0.084 0.11 0.168 -0.016 -0.021 0.021
C62 0.31 0.26 0.52 -0.24 -0.27 0.14
C63 0.27 0.123 0.53 -0.013 -0.19 0.081
N2 0.212 0.088 0.234 -0.057 -0.105 0.072
O4 0.039 0.044 0.18 0.027 -0.014 0.0043
O18 0.069 0.084 0.141 -0.02 0.013 0.029
O19 0.16 0.13 0.09 0.044 0.036 0.012
O37 0.0443 0.073 0.0394 0.0012 -0.0104 0.0066
O46 0.044 0.044 0.115 0.019 0.008 0.017
O51 0.064 0.07 0.062 0.031 -0.0183 0.009
Mn7 0.0386 0.0321 0.0453 0.0037 -0.003 0.01
Mn10 0.0333 0.034 0.0448 -0.0031 -0.0084 0.0098
C81 0.058 0.092 0.041 0 -0.011 0.02
C82 0.075 0.2 0.052 -0.019 -0.021 0.075
C83 0.082 0.217 0.047 -0.036 -0.024 0.071
C84 0.071 0.142 0.046 -0.006 -0.026 0.044
C86 0.104 0.169 0.048 -0.018 -0.023 0.085
C87 0.046 0.062 0.046 0.003 -0.009 0.006
O25 0.051 0.095 0.049 -0.007 -0.0164 0.027
O27 0.059 0.07 0.0444 -0.0055 -0.0131 0.0208
C20 0.118 0.199 0.055 -0.02 -0.031 0.101
C10 0.057 0.041 0.168 0.018 -0.026 0.011
C11 0.04 0.042 0.082 0.015 0.003 0.011
C15 0.043 0.039 0.074 0.016 0.009 0.016
C45 0.062 0.052 0.162 0.04 0.028 0.03
C46 0.052 0.038 0.103 0.018 0.007 0.015
C47 0.09 0.051 0.136 0.029 0.042 0.031
C50 0.051 0.037 0.078 0.006 -0.007 0.013
O3 0.057 0.0421 0.076 0.0058 -0.0076 0.0217
O13 0.065 0.0349 0.077 0.0095 0.012 0.0154
Mn6 0.0386 0.0321 0.0453 0.0037 -0.003 0.01
Mn14 0.0348 0.0333 0.0407 0.0043 -0.007 0.0111
Mn15 0.0348 0.0333 0.0407 0.0043 -0.007 0.0111
Mn21 0.0405 0.0458 0.0689 0.0108 0.0045 0.0127
C85 0.118 0.199 0.055 -0.02 -0.031 0.101
C95 0.044 0.08 0.041 0.002 -0.003 0.014
C96 0.048 0.174 0.043 -0.018 -0.012 0.029
C97 0.052 0.189 0.043 -0.019 -0.003 0.023
C98 0.049 0.136 0.039 -0.004 -0.001 0.015
C99 0.044 0.315 0.045 -0.03 -0.01 0.031
C100 0.051 0.272 0.041 -0.006 0.005 0.025
C101 0.04 0.054 0.041 0.011 0 0.01
O33 0.048 0.064 0.0435 0.0053 0.0005 0.0111
O36 0.0443 0.073 0.0394 0.0012 -0.0104 0.0066
Mn2 0.0333 0.034 0.0448 -0.0031 -0.0084 0.0098
C2 0.054 0.038 0.081 0.018 0.015 0.009
C3 0.053 0.046 0.18 0.035 0.019 0.004
C4 0.057 0.052 0.213 0.046 0.024 0.021
C5 0.051 0.039 0.11 0.024 0.008 0.007
C6 0.057 0.049 0.183 0.047 0.041 0.016
C7 0.071 0.043 0.178 0.046 0.05 0.021
C8 0.052 0.044 0.099 0.017 0.004 0.013
C9 0.058 0.039 0.197 0.021 -0.018 0.008
C13 0.047 0.041 0.308 0.056 -0.027 -0.002
C14 0.059 0.039 0.055 0.01 0.01 0.006
C16 0.058 0.092 0.041 0 -0.011 0.02
C17 0.075 0.2 0.052 -0.019 -0.021 0.075
C18 0.082 0.217 0.047 -0.036 -0.024 0.071
C19 0.071 0.142 0.046 -0.006 -0.026 0.044
C21 0.104 0.169 0.048 -0.018 -0.023 0.085
C22 0.046 0.062 0.046 0.003 -0.009 0.006
C23 0.036 0.04 0.044 -0.007 -0.0081 0.0073
C24 0.067 0.047 0.055 -0.013 -0.016 0.03
C25 0.068 0.054 0.056 -0.013 -0.026 0.025
C26 0.042 0.041 0.054 -0.011 -0.012 0.009
C27 0.068 0.063 0.096 -0.04 -0.04 0.037
C28 0.061 0.061 0.082 -0.024 -0.035 0.034
C29 0.034 0.041 0.036 0.0024 -0.0021 0.0059
C30 0.044 0.08 0.041 0.002 -0.003 0.014
C31 0.048 0.174 0.043 -0.018 -0.012 0.029
C32 0.052 0.189 0.043 -0.019 -0.003 0.023
C33 0.049 0.136 0.039 -0.004 -0.001 0.015
C34 0.044 0.315 0.045 -0.03 -0.01 0.031
C35 0.051 0.272 0.041 -0.006 0.005 0.025
C36 0.04 0.054 0.041 0.011 0 0.01
C37 0.053 0.036 0.117 0.012 0.006 0.014
C38 0.052 0.044 0.138 0.025 0.002 0.014
C39 0.059 0.051 0.143 0.022 -0.001 0.023
C40 0.065 0.04 0.156 0.023 0.014 0.023
C41 0.062 0.043 0.254 0.035 -0.002 0.014
C42 0.055 0.043 0.23 0.024 -0.003 0.022
C43 0.067 0.04 0.145 0.022 0.013 0.025
C44 0.068 0.051 0.161 0.04 0.022 0.025
C48 0.088 0.054 0.166 0.033 0.046 0.04
C49 0.05 0.038 0.098 0.014 0.009 0.017
C51 0.059 0.094 0.053 0.026 -0.005 0.037
C52 0.151 0.38 0.106 0.133 0.053 0.203
C53 0.174 0.42 0.099 0.145 0.065 0.23
C54 0.056 0.134 0.06 0.039 0.003 0.052
C55 0.066 0.18 0.09 0.088 0.029 0.071
C56 0.067 0.157 0.082 0.07 0.015 0.055
C57 0.056 0.057 0.063 0.013 -0.03 0.01
C58 0.2 0.158 0.056 -0.022 -0.024 0.103
C59 0.3 0.46 0.104 0.107 0.023 0.23
C60 0.92 0.83 0.086 -0.15 -0.05 0.55
N1 0.268 0.181 0.061 -0.013 -0.009 0.098
O1 0.061 0.0433 0.077 0.0149 0.0074 0.001
O2 0.067 0.0416 0.095 0.016 0.024 0.0161
O5 0.051 0.095 0.049 -0.007 -0.0164 0.027
O6 0.059 0.07 0.0444 -0.0055 -0.0131 0.0208
O7 0.0365 0.0386 0.047 -0.0008 -0.0094 0.0066
O8 0.0395 0.0351 0.0454 0.0012 -0.0018 0.0105
O9 0.048 0.064 0.0435 0.0053 0.0005 0.0111
O11 0.064 0.0357 0.104 0.012 -0.003 0.0152
O12 0.052 0.04 0.131 0.005 -0.001 0.019
O15 0.069 0.115 0.068 0.015 -0.016 0.051
O17 0.087 0.079 0.049 0.009 0.002 0.024
C88 0.036 0.04 0.044 -0.007 -0.0081 0.0073
C89 0.067 0.047 0.055 -0.013 -0.016 0.03
C90 0.068 0.054 0.056 -0.013 -0.026 0.025
C91 0.042 0.041 0.054 -0.011 -0.012 0.009
C92 0.068 0.063 0.096 -0.04 -0.04 0.037
C93 0.061 0.061 0.082 -0.024 -0.035 0.034
C94 0.034 0.041 0.036 0.0024 -0.0021 0.0059
O29 0.0365 0.0386 0.047 -0.0008 -0.0094 0.0066
O31 0.0395 0.0351 0.0454 0.0012 -0.0018 0.0105
O41 0.064 0.0357 0.104 0.012 -0.003 0.0152
O44 0.065 0.0349 0.077 0.0095 0.012 0.0154
O49 0.069 0.115 0.068 0.015 -0.016 0.051
O52 0.064 0.07 0.062 0.031 -0.0183 0.009
C116 0.059 0.094 0.053 0.026 -0.005 0.037
C117 0.151 0.38 0.106 0.133 0.053 0.203
C118 0.174 0.42 0.099 0.145 0.065 0.23
C119 0.056 0.134 0.06 0.039 0.003 0.052
C120 0.066 0.18 0.09 0.088 0.029 0.071
C121 0.067 0.157 0.082 0.07 0.015 0.055
C122 0.056 0.057 0.063 0.013 -0.03 0.01
C67 0.054 0.038 0.081 0.018 0.015 0.009
C68 0.053 0.046 0.18 0.035 0.019 0.004
C69 0.057 0.052 0.213 0.046 0.024 0.021
C70 0.051 0.039 0.11 0.024 0.008 0.007
C71 0.057 0.049 0.183 0.047 0.041 0.016
C72 0.071 0.043 0.178 0.046 0.05 0.021
C73 0.052 0.044 0.099 0.017 0.004 0.013
C74 0.058 0.039 0.197 0.021 -0.018 0.008
C78 0.047 0.041 0.308 0.056 -0.027 -0.002
C79 0.059 0.039 0.055 0.01 0.01 0.006
C102 0.053 0.036 0.117 0.012 0.006 0.014
C103 0.052 0.044 0.138 0.025 0.002 0.014
C104 0.059 0.051 0.143 0.022 -0.001 0.023
C105 0.065 0.04 0.156 0.023 0.014 0.023
C106 0.062 0.043 0.254 0.035 -0.002 0.014
C107 0.055 0.043 0.23 0.024 -0.003 0.022
C108 0.067 0.04 0.145 0.022 0.013 0.025
C109 0.068 0.051 0.161 0.04 0.022 0.025
C113 0.088 0.054 0.166 0.033 0.046 0.04
C114 0.05 0.038 0.098 0.014 0.009 0.017
C123 0.2 0.158 0.056 -0.022 -0.024 0.103
C124 0.3 0.46 0.104 0.107 0.023 0.23
C125 0.92 0.83 0.086 -0.15 -0.05 0.55
N4 0.268 0.181 0.061 -0.013 -0.009 0.098
O20 0.061 0.0433 0.077 0.0149 0.0074 0.001
O21 0.067 0.0416 0.095 0.016 0.024 0.0161
O23 0.057 0.0421 0.076 0.0058 -0.0076 0.0217
O42 0.052 0.04 0.131 0.005 -0.001 0.019
O54 0.087 0.079 0.049 0.009 0.002 0.024
C75 0.057 0.041 0.168 0.018 -0.026 0.011
C76 0.04 0.042 0.082 0.015 0.003 0.011
C80 0.043 0.039 0.074 0.016 0.009 0.016
C110 0.062 0.052 0.162 0.04 0.028 0.03
C111 0.052 0.038 0.103 0.018 0.007 0.015
C112 0.09 0.051 0.136 0.029 0.042 0.031
C115 0.051 0.037 0.078 0.006 -0.007 0.013
O45 0.044 0.044 0.115 0.019 0.008 0.017
C77 0.047 0.049 0.289 0.062 -0.03 0
C126 0.084 0.11 0.168 -0.016 -0.021 0.021
C127 0.31 0.26 0.52 -0.24 -0.27 0.14
C128 0.27 0.123 0.53 -0.013 -0.19 0.081
N5 0.212 0.088 0.234 -0.057 -0.105 0.072
O24 0.039 0.044 0.18 0.027 -0.014 0.0043
O55 0.069 0.084 0.141 -0.02 0.013 0.029
O56 0.16 0.13 0.09 0.044 0.036 0.012
loop_
_geom_bond_atom_site_label_1
_geom_bond_atom_site_label_2
_geom_bond_site_symmetry_1
_geom_bond_site_symmetry_2
C1 H51 1_555 1_555
Mn4 O4 1_555 1_555
H7 C12 1_555 1_555
C61 H40 1_555 1_555
C62 H41 1_555 1_555
H42 C62 1_555 1_555
H43 C62 1_555 1_555
C63 H44 1_555 1_555
H45 C63 1_555 1_555
H46 C63 1_555 1_555
N2 C61 1_555 1_555
O18 Mn4 1_555 1_555
O19 Mn4 1_555 1_555
C64 O19 1_555 1_555
H47 C64 1_555 1_555
C65 H48 1_555 1_555
H49 C65 1_555 1_555
H50 C65 1_555 1_555
H52 C1 1_555 1_555
N3 C1 1_555 1_555
O37 Mn4 1_555 1_555
O46 Mn4 1_555 1_555
O51 Mn4 1_555 1_555
C61 O18 1_555 1_555
C62 N2 1_555 1_555
C63 N2 1_555 1_555
C64 N3 1_555 1_555
C65 N3 1_555 1_555
Mn7 O27 1_555 1_555
Mn10 O25 1_555 1_555
C81 C82 1_555 1_555
C82 H62 1_555 1_555
C83 C82 1_555 1_555
H63 C83 1_555 1_555
C86 C81 1_555 1_555
H65 C86 1_555 1_555
C87 C81 1_555 1_555
O25 C87 1_555 1_555
O27 C87 1_555 1_555
C83 C84 1_555 1_555
H11 C20 1_555 1_555
H6 C10 1_555 1_555
C11 C10 1_555 1_555
C15 C11 1_555 1_555
H26 C45 1_555 1_555
C46 C45 1_555 1_555
C47 C46 1_555 1_555
H27 C47 1_555 1_555
C50 C46 1_555 1_555
O3 C15 1_555 1_555
O13 C50 1_555 1_555
O46 C50 1_555 1_555
Mn6 O3 1_555 1_555
Mn14 O13 1_555 1_555
Mn10 O33 1_555 1_555
Mn15 O33 1_555 1_555
Mn21 O36 1_555 1_555
H64 C85 1_555 1_555
C95 C96 1_555 1_555
C96 H70 1_555 1_555
C97 C96 1_555 1_555
H71 C97 1_555 1_555
C99 C98 1_555 1_555
H72 C99 1_555 1_555
C100 C95 1_555 1_555
H73 C100 1_555 1_555
C101 C95 1_555 1_555
O33 C101 1_555 1_555
O36 Mn15 1_555 1_555
C97 C98 1_555 1_555
C99 C100 1_555 1_555
C101 O36 1_555 1_555
Mn6 O1 1_555 1_555
Mn2 O1 1_555 1_555
Mn14 O8 1_555 1_555
C2 C3 1_555 1_555
C3 H1 1_555 1_555
C4 C3 1_555 1_555
H2 C4 1_555 1_555
C5 C4 1_555 1_555
C6 C5 1_555 1_555
C7 C2 1_555 1_555
H4 C7 1_555 1_555
C8 C5 1_555 1_555
C9 C8 1_555 1_555
H5 C9 1_555 1_555
C13 C8 1_555 1_555
C14 C2 1_555 1_555
C16 C17 1_555 1_555
C17 H9 1_555 1_555
C18 C17 1_555 1_555
H10 C18 1_555 1_555
C19 C18 1_555 1_555
C21 C16 1_555 1_555
H12 C21 1_555 1_555
C22 C16 1_555 1_555
C23 C24 1_555 1_555
C24 H13 1_555 1_555
C25 C24 1_555 1_555
H14 C25 1_555 1_555
C26 C25 1_555 1_555
C27 C26 1_555 1_555
H15 C27 1_555 1_555
C28 C23 1_555 1_555
H16 C28 1_555 1_555
C29 C23 1_555 1_555
C30 C31 1_555 1_555
C31 H17 1_555 1_555
C32 C31 1_555 1_555
H18 C32 1_555 1_555
C33 C32 1_555 1_555
C34 C33 1_555 1_555
H19 C34 1_555 1_555
C35 C30 1_555 1_555
H20 C35 1_555 1_555
C36 C30 1_555 1_555
C37 C38 1_555 1_555
C38 H21 1_555 1_555
C39 C38 1_555 1_555
H22 C39 1_555 1_555
C40 C39 1_555 1_555
C41 C40 1_555 1_555
H23 C41 1_555 1_555
C42 C37 1_555 1_555
H24 C42 1_555 1_555
C43 C40 1_555 1_555
C44 C43 1_555 1_555
H25 C44 1_555 1_555
C48 C43 1_555 1_555
H28 C48 1_555 1_555
C49 C37 1_555 1_555
C51 C52 1_555 1_555
C52 H29 1_555 1_555
C53 C52 1_555 1_555
H30 C53 1_555 1_555
C54 C53 1_555 1_555
C55 C54 1_555 1_555
C56 C51 1_555 1_555
H32 C56 1_555 1_555
C57 C51 1_555 1_555
C58 H33 1_555 1_555
C59 H34 1_555 1_555
H35 C59 1_555 1_555
H36 C59 1_555 1_555
C60 H37 1_555 1_555
H38 C60 1_555 1_555
H39 C60 1_555 1_555
N1 C58 1_555 1_555
O1 C14 1_555 1_555
O2 Mn6 1_555 1_555
O5 Mn2 1_555 1_555
O6 Mn6 1_555 1_555
O7 Mn6 1_555 1_555
O8 Mn2 1_555 1_555
O9 Mn2 1_555 1_555
O37 Mn14 1_555 1_555
O11 Mn14 1_555 1_555
O12 Mn2 1_555 1_555
O15 Mn14 1_555 1_555
O51 Mn14 1_555 1_555
O17 Mn6 1_555 1_555
Mn2 O7 1_555 1_555
Mn14 O9 1_555 1_555
C6 C7 1_555 1_555
C14 O2 1_555 1_555
C22 O5 1_555 1_555
C22 O6 1_555 1_555
C27 C28 1_555 1_555
C29 O7 1_555 1_555
C29 O8 1_555 1_555
C34 C35 1_555 1_555
C36 O9 1_555 1_555
C36 O37 1_555 1_555
C41 C42 1_555 1_555
C49 O11 1_555 1_555
C49 O12 1_555 1_555
C55 C56 1_555 1_555
C57 O15 1_555 1_555
C57 O51 1_555 1_555
C58 O17 1_555 1_555
C59 N1 1_555 1_555
C60 N1 1_555 1_555
Mn7 O29 1_555 1_555
Mn10 O29 1_555 1_555
Mn15 O31 1_555 1_555
C88 C89 1_555 1_555
C89 H66 1_555 1_555
C90 C89 1_555 1_555
H67 C90 1_555 1_555
C92 C91 1_555 1_555
H68 C92 1_555 1_555
C93 C88 1_555 1_555
H69 C93 1_555 1_555
C94 C88 1_555 1_555
O29 C94 1_555 1_555
O31 Mn10 1_555 1_555
O41 Mn15 1_555 1_555
O44 Mn15 1_555 1_555
O49 Mn15 1_555 1_555
O52 Mn15 1_555 1_555
C90 C91 1_555 1_555
C92 C93 1_555 1_555
C94 O31 1_555 1_555
Mn21 O52 1_555 1_555
C116 C117 1_555 1_555
C117 H82 1_555 1_555
C118 C117 1_555 1_555
H83 C118 1_555 1_555
C120 C119 1_555 1_555
C121 C116 1_555 1_555
H85 C121 1_555 1_555
C122 C116 1_555 1_555
O49 C122 1_555 1_555
C118 C119 1_555 1_555
C120 C121 1_555 1_555
C122 O52 1_555 1_555
Mn7 O20 1_555 1_555
Mn10 O20 1_555 1_555
C67 C68 1_555 1_555
C68 H54 1_555 1_555
C69 C68 1_555 1_555
H55 C69 1_555 1_555
C70 C69 1_555 1_555
C71 C70 1_555 1_555
C72 C67 1_555 1_555
H57 C72 1_555 1_555
C73 C70 1_555 1_555
C74 C73 1_555 1_555
H58 C74 1_555 1_555
C78 C73 1_555 1_555
C79 C67 1_555 1_555
C102 C103 1_555 1_555
C103 H74 1_555 1_555
C104 C103 1_555 1_555
H75 C104 1_555 1_555
C105 C104 1_555 1_555
C106 C105 1_555 1_555
H76 C106 1_555 1_555
C107 C102 1_555 1_555
H77 C107 1_555 1_555
C108 C105 1_555 1_555
C109 C108 1_555 1_555
H78 C109 1_555 1_555
C113 C108 1_555 1_555
H81 C113 1_555 1_555
C114 C102 1_555 1_555
C123 H86 1_555 1_555
C124 H87 1_555 1_555
H88 C124 1_555 1_555
H89 C124 1_555 1_555
C125 H90 1_555 1_555
H91 C125 1_555 1_555
H92 C125 1_555 1_555
N4 C123 1_555 1_555
O20 C79 1_555 1_555
O21 Mn7 1_555 1_555
O23 Mn7 1_555 1_555
O42 Mn10 1_555 1_555
O54 Mn7 1_555 1_555
C71 C72 1_555 1_555
C79 O21 1_555 1_555
C106 C107 1_555 1_555
C114 O41 1_555 1_555
C114 O42 1_555 1_555
C123 O54 1_555 1_555
C124 N4 1_555 1_555
C125 N4 1_555 1_555
H59 C75 1_555 1_555
C76 C75 1_555 1_555
C80 C76 1_555 1_555
H79 C110 1_555 1_555
C111 C110 1_555 1_555
C112 C111 1_555 1_555
H80 C112 1_555 1_555
C115 C111 1_555 1_555
O45 Mn21 1_555 1_555
C80 O23 1_555 1_555
C115 O44 1_555 1_555
C115 O45 1_555 1_555
C66 H104 1_555 1_555
Mn21 O24 1_555 1_555
H60 C77 1_555 1_555
C126 H93 1_555 1_555
C127 H94 1_555 1_555
H95 C127 1_555 1_555
H96 C127 1_555 1_555
C128 H97 1_555 1_555
H98 C128 1_555 1_555
H99 C128 1_555 1_555
N5 C126 1_555 1_555
O55 Mn21 1_555 1_555
O56 Mn21 1_555 1_555
C129 O56 1_555 1_555
H100 C129 1_555 1_555
C130 H101 1_555 1_555
H102 C130 1_555 1_555
H103 C130 1_555 1_555
H105 C66 1_555 1_555
N6 C66 1_555 1_555
C126 O55 1_555 1_555
C127 N5 1_555 1_555
C128 N5 1_555 1_555
C129 N6 1_555 1_555
C130 N6 1_555 1_555

#END
