
###############################################################################
#
# This file contains modified crystal structure data generated from the
# MOF subset of the Cambridge Structural Database (CSD) v543 
# hosted by the Cambridge Crystallographic Data Centre (CCDC).
#
# This work is licensed under the Creative Commons
# Attribution-NonCommercial-ShareAlike 4.0 International License.
# To view a copy of this license, visit
# http://creativecommons.org/licenses/by-nc-sa/4.0/
# or send a letter to
# Creative Commons, PO Box 1866, Mountain View, CA 94042, USA.
#
# CIF created using the CSD Python API on 29 September 2022
# The structure has been converted into the P1 space group
# The structure has a 3D framework
# The original CSD entry VUQKUO is in the monoclinic crystal system
# The framework has been calculated to contain at least 10.0% void space
# The void calculation uses a probe of radius 1.32A, grid spacing 0.4
# H atom positions have been added when not included in the experimental data
#
###############################################################################

data_VUQKUO
_chemical_formula_moiety         '(C128 H164 Cd8 Cl14 N56 O16 P8)n'
_symmetry_cell_setting           triclinic
_symmetry_space_group_name_H-M   'P 1'
_symmetry_Int_Tables_number      1
_space_group_name_Hall           'P 1'
loop_
_symmetry_equiv_pos_site_id
_symmetry_equiv_pos_as_xyz
1 x,y,z
_cell_length_a                   13.957
_cell_length_b                   25.704
_cell_length_c                   15.827
_cell_angle_alpha                90
_cell_angle_beta                 93.362
_cell_angle_gamma                90
_cell_volume                     5668.18
loop_
_atom_site_label
_atom_site_type_symbol
_atom_site_fract_x
_atom_site_fract_y
_atom_site_fract_z
Cd2 Cd 0.37534(4) 0.03140(2) 0.00595(4)
Cl2 Cl 0.23173(16) 0.03077(7) 0.10567(14)
N15 N 0.4645(5) 0.1023(3) 0.0649(5)
Cl3 Cl 0.03503(16) 0.03488(7) 0.91294(15)
Cl6 Cl 0.51158(15) 0.02768(8) 0.89367(14)
N16 N 0.2847(5) 0.0962(2) 0.9266(5)
Cd1 Cd 0.12721(4) 0.96540(2) 0.00422(4)
Cl4 Cl 0.48842(15) 0.97232(8) 0.10633(14)
P2 P 0.33487(19) 0.73568(10) 0.2454(2)
O3 O 0.3540(5) 0.7180(2) 0.3414(5)
O4 O 0.2761(5) 0.7842(2) 0.2705(5)
N2 N 0.1811(5) 0.8982(2) 0.0989(5)
N3 N 0.5355(5) 0.6023(3) 0.4351(5)
N7 N 0.2530(13) 0.6354(6) 0.0826(8)
N8 N 0.5228(11) 0.7377(6) 0.0912(10)
N12 N 0.2729(5) 0.6949(3) 0.1925(6)
N13 N 0.4327(6) 0.7511(3) 0.2016(8)
N14 N 0.3935(9) 0.6897(4) 0.0863(7)
C1 C 0.5827(13) 0.7737(7) 0.1320(12)
H1 H 0.6353 0.7813 0.0976
H2 H 0.6070 0.7598 0.1853
H3 H 0.5475 0.8050 0.1415
C2 C 0.5379(14) 0.7151(8) 0.0139(11)
H6 H 0.5503 0.6786 0.0216
C3 C 0.2690(7) 0.8962(4) 0.1258(8)
H7 H 0.3121 0.9199 0.1049
C5 C 0.4283(7) 0.6709(3) 0.4551(6)
H8 H 0.3966 0.6922 0.4919
C10 C 0.2445(7) 0.8225(3) 0.2109(7)
C11 C 0.4609(9) 0.6448(4) 0.3149(7)
H12 H 0.4532 0.6474 0.2563
C13 C 0.1511(7) 0.8221(4) 0.1799(8)
H14 H 0.1081 0.7967 0.1956
C14 C 0.4877(7) 0.6335(3) 0.4849(7)
H15 H 0.4960 0.6291 0.5432
C19 C 0.4144(7) 0.6776(3) 0.3661(7)
C22 C 0.3034(7) 0.8588(4) 0.1873(8)
H20 H 0.3663 0.8602 0.2101
C23 C 0.1238(7) 0.8617(4) 0.1239(7)
H21 H 0.0603 0.8623 0.1026
C24 C 0.5196(7) 0.6080(4) 0.3530(7)
H22 H 0.5506 0.5852 0.3181
C29 C 0.3096(10) 0.6749(6) 0.1189(9)
C30 C 0.4388(10) 0.7243(6) 0.1300(8)
C31 C 0.2860(16) 0.6138(9) 0.0035(11)
H36 H 0.3482 0.5984 0.0140
C32 C 0.1666(15) 0.6160(8) 0.1162(14)
H38 H 0.1383 0.5902 0.0786
H39 H 0.1222 0.6442 0.1217
H40 H 0.1814 0.6007 0.1707
Cd5 Cd 0.62466(4) 0.53140(2) 0.49405(4)
H41 H 0.417619 0.674562 0.0322523
Cl1 Cl 0.28340(16) 0.95974(8) 0.92106(16)
N1 N 0.0645(5) 0.8969(3) 0.9124(5)
N6 N 0.0110(8) 0.7997(4) 0.4972(6)
H4 H 0.5920 0.7313 0.9899
H5 H 0.4819 0.7197 0.9765
C9 C 0.0887(7) 0.8255(3) 0.8203(7)
H11 H 0.1302 0.8062 0.7887
C20 C 0.1213(7) 0.8677(4) 0.8654(7)
H18 H 0.1856 0.8768 0.8636
C27 C 0.0962(10) 0.7691(5) 0.4938(8)
H29 H 0.1278 0.7774 0.4433
H30 H 0.0795 0.7329 0.4934
H31 H 0.1383 0.7765 0.5425
H32 H 0.0486 0.8341 0.3908
H33 H 0.0026 0.8727 0.4536
H35 H 0.2415 0.5878 0.9822
H37 H 0.2899 0.6412 0.9625
Cd4 Cd 0.62466(4) 0.96860(2) 0.99405(4)
Cd3 Cd 0.87279(4) 0.03460(2) 0.99578(4)
Cl5 Cl 0.96497(16) 0.96512(7) 0.08706(15)
P1 P 0.90922(17) 0.75931(9) 0.69644(17)
O1 O 0.9643(4) 0.7643(2) 0.7878(4)
O2 O 0.8811(4) 0.7002(2) 0.7161(4)
N4 N 0.7153(5) 0.5962(2) 0.5734(5)
N5 N 0.7437(8) 0.8626(4) 0.6128(8)
N9 N 0.9782(5) 0.7630(3) 0.6212(5)
N10 N 0.8197(5) 0.7958(3) 0.6880(5)
N11 N 0.8737(8) 0.8285(3) 0.5565(6)
C4 C 0.8262(6) 0.6670(3) 0.6641(6)
C6 C 0.9962(6) 0.8122(3) 0.8221(5)
C7 C 0.7520(6) 0.6360(3) 0.5373(6)
H9 H 0.7394 0.6400 0.4793
C8 C 0.7368(7) 0.5906(4) 0.6549(6)
H10 H 0.7134 0.5616 0.6821
C12 C 0.7908(7) 0.6248(4) 0.7007(7)
H13 H 0.8037 0.6191 0.7582
C15 C 0.9334(7) 0.8412(4) 0.8656(7)
H16 H 0.8686 0.8328 0.8654
C16 C 0.9715(6) 0.8841(4) 0.9104(7)
H17 H 0.9302 0.9046 0.9401
C17 C 0.8149(8) 0.8280(4) 0.6204(9)
C18 C 0.9518(8) 0.7980(4) 0.5596(6)
C21 C 0.8089(6) 0.6733(3) 0.5792(6)
H19 H 0.8341 0.7013 0.5507
C25 C 0.6809(11) 0.8683(5) 0.6824(10)
H23 H 0.6341 0.8949 0.6688
H24 H 0.7183 0.8780 0.7329
H25 H 0.6488 0.8360 0.6916
C26 C 0.7333(11) 0.8996(5) 0.5447(10)
H26 H 0.6785 0.9213 0.5525
H27 H 0.7247 0.8815 0.4918
H28 H 0.7899 0.9209 0.5444
C28 C 0.9989(13) 0.8384(5) 0.4296(8)
H34 H 0.9374 0.8337 0.4001
H9_2 H 0.2606 0.1400 0.0207
H27_2 H 0.2753 0.3815 0.0082
C28_2 C 0.0011(13) 0.3384(5) 0.0704(8)
H34_2 H 0.0626 0.3337 0.0999
P1_2 P 0.09078(17) 0.25931(9) 0.80356(17)
O1_2 O 0.0357(4) 0.2643(2) 0.7122(4)
O2_2 O 0.1189(4) 0.2002(2) 0.7839(4)
N5_2 N 0.2563(8) 0.3626(4) 0.8872(8)
N9_2 N 0.0218(5) 0.2630(3) 0.8788(5)
N10_2 N 0.1803(5) 0.2958(3) 0.8120(5)
N11_2 N 0.1263(8) 0.3285(3) 0.9435(6)
C4_2 C 0.1738(6) 0.1670(3) 0.8359(6)
C6_2 C 0.0038(6) 0.3122(3) 0.6779(5)
C7_2 C 0.2480(6) 0.1360(3) 0.9627(6)
C8_2 C 0.2632(7) 0.0906(4) 0.8451(6)
H10_2 H 0.2866 0.0616 0.8179
C12_2 C 0.2092(7) 0.1248(4) 0.7993(7)
H13_2 H 0.1963 0.1191 0.7418
C15_2 C 0.0666(7) 0.3412(4) 0.6344(7)
H16_2 H 0.1314 0.3328 0.6346
C16_2 C 0.0285(6) 0.3841(4) 0.5896(7)
H17_2 H 0.0698 0.4046 0.5599
C17_2 C 0.1851(8) 0.3280(4) 0.8796(9)
C18_2 C 0.0482(8) 0.2980(4) 0.9404(6)
C21_2 C 0.1911(6) 0.1733(3) 0.9208(6)
H19_2 H 0.1659 0.2013 0.9493
C25_2 C 0.3191(11) 0.3683(5) 0.8176(10)
H23_2 H 0.3659 0.3949 0.8312
H24_2 H 0.2817 0.3780 0.7671
H25_2 H 0.3512 0.3360 0.8084
C26_2 C 0.2667(11) 0.3996(5) 0.9553(10)
H26_2 H 0.3215 0.4213 0.9475
H28_2 H 0.2101 0.4209 0.9556
Cd3_2 Cd 0.12721(4) 0.53460(2) 0.50422(4)
Cl5_2 Cl 0.03503(16) 0.46512(7) 0.41294(15)
Cd1_2 Cd 0.87279(4) 0.46540(2) 0.49578(4)
Cl1_2 Cl 0.71660(16) 0.45974(8) 0.57894(16)
Cl2_2 Cl 0.76827(16) 0.53077(7) 0.39433(14)
Cl3_2 Cl 0.96497(16) 0.53488(7) 0.58706(15)
Cl4_2 Cl 0.51158(15) 0.47232(8) 0.39367(14)
P2_2 P 0.66513(19) 0.23568(10) 0.2546(2)
O3_2 O 0.6460(5) 0.2180(2) 0.1586(5)
O4_2 O 0.7239(5) 0.2842(2) 0.2295(5)
N1_2 N 0.9355(5) 0.3969(3) 0.5876(5)
N2_2 N 0.8189(5) 0.3982(2) 0.4011(5)
N7_2 N 0.7470(13) 0.1354(6) 0.4174(8)
N8_2 N 0.4772(11) 0.2377(6) 0.4088(10)
N12_2 N 0.7271(5) 0.1949(3) 0.3075(6)
N13_2 N 0.5673(6) 0.2511(3) 0.2984(8)
N14_2 N 0.6065(9) 0.1897(4) 0.4137(7)
C1_2 C 0.4173(13) 0.2737(7) 0.3680(12)
H1_2 H 0.3647 0.2813 0.4024
H2_2 H 0.3930 0.2598 0.3147
H3_2 H 0.4525 0.3050 0.3585
C2_2 C 0.4621(14) 0.2151(8) 0.4861(11)
H4_2 H 0.4080 0.2313 0.5101
H5_2 H 0.5181 0.2197 0.5235
H6_2 H 0.4497 0.1786 0.4784
C3_2 C 0.7310(7) 0.3962(4) 0.3742(8)
H7_2 H 0.6879 0.4199 0.3951
C5_2 C 0.5717(7) 0.1709(3) 0.0449(6)
H8_2 H 0.6034 0.1922 0.0081
C9_2 C 0.9113(7) 0.3255(3) 0.6797(7)
H11_2 H 0.8698 0.3062 0.7113
C10_2 C 0.7555(7) 0.3225(3) 0.2891(7)
C11_2 C 0.5391(9) 0.1448(4) 0.1851(7)
H12_2 H 0.5468 0.1474 0.2437
C13_2 C 0.8489(7) 0.3221(4) 0.3201(8)
H14_2 H 0.8919 0.2967 0.3044
C14_2 C 0.5123(7) 0.1335(3) 0.0151(7)
C19_2 C 0.5856(7) 0.1776(3) 0.1339(7)
C20_2 C 0.8787(7) 0.3677(4) 0.6346(7)
H18_2 H 0.8144 0.3768 0.6364
C22_2 C 0.6966(7) 0.3588(4) 0.3127(8)
H20_2 H 0.6337 0.3602 0.2899
C23_2 C 0.8762(7) 0.3617(4) 0.3761(7)
H21_2 H 0.9397 0.3623 0.3974
C24_2 C 0.4804(7) 0.1080(4) 0.1470(7)
H22_2 H 0.4494 0.0852 0.1819
H31_2 H 0.8617 0.2765 0.9575
C29_2 C 0.6904(10) 0.1749(6) 0.3811(9)
C30_2 C 0.5612(10) 0.2243(6) 0.3700(8)
C31_2 C 0.7140(16) 0.1138(9) 0.4965(11)
H35_2 H 0.7585 0.0878 0.5178
H36_2 H 0.6518 0.0984 0.4860
H37_2 H 0.7101 0.1412 0.5375
C32_2 C 0.8334(15) 0.1160(8) 0.3838(14)
H38_2 H 0.8617 0.0902 0.4214
H39_2 H 0.8778 0.1442 0.3783
H40_2 H 0.8186 0.1007 0.3293
Cd4_2 Cd 0.37534(4) 0.46860(2) 0.50595(4)
Cl6_2 Cl 0.48842(15) 0.52768(8) 0.60633(14)
H41_2 H 0.582381 0.174562 0.467748
P1_3 P 0.09078(17) 0.24069(9) 0.30356(17)
O1_3 O 0.0357(4) 0.2357(2) 0.2122(4)
O2_3 O 0.1189(4) 0.2998(2) 0.2839(4)
N4_2 N 0.2847(5) 0.4038(2) 0.4266(5)
N5_3 N 0.2563(8) 0.1374(4) 0.3872(8)
N9_3 N 0.0218(5) 0.2370(3) 0.3788(5)
N10_3 N 0.1803(5) 0.2042(3) 0.3120(5)
N11_3 N 0.1263(8) 0.1715(3) 0.4435(6)
C4_3 C 0.1738(6) 0.3330(3) 0.3359(6)
C6_3 C 0.0038(6) 0.1878(3) 0.1779(5)
C7_3 C 0.2480(6) 0.3640(3) 0.4627(6)
H9_3 H 0.2606 0.3600 0.5207
C8_3 C 0.2632(7) 0.4094(4) 0.3451(6)
H10_3 H 0.2866 0.4384 0.3179
C12_3 C 0.2092(7) 0.3752(4) 0.2993(7)
H13_3 H 0.1963 0.3809 0.2418
C15_3 C 0.0666(7) 0.1588(4) 0.1344(7)
H16_3 H 0.1314 0.1672 0.1346
C16_3 C 0.0285(6) 0.1159(4) 0.0896(7)
H17_3 H 0.0698 0.0954 0.0599
C17_3 C 0.1851(8) 0.1720(4) 0.3796(9)
C18_3 C 0.0482(8) 0.2020(4) 0.4404(6)
C21_3 C 0.1911(6) 0.3267(3) 0.4208(6)
H19_3 H 0.1659 0.2987 0.4493
C25_3 C 0.3191(11) 0.1317(5) 0.3176(10)
H23_3 H 0.3659 0.1051 0.3312
H24_3 H 0.2817 0.1220 0.2671
H25_3 H 0.3512 0.1640 0.3084
C26_3 C 0.2667(11) 0.1004(5) 0.4553(10)
H26_3 H 0.3215 0.0787 0.4475
H27_3 H 0.2753 0.1185 0.5082
H28_3 H 0.2101 0.0791 0.4556
C28_3 C 0.0011(13) 0.1616(5) 0.5704(8)
H34_3 H 0.0626 0.1663 0.5999
Cl1_3 Cl 0.71660(16) 0.04026(8) 0.07894(16)
N1_3 N 0.9355(5) 0.1031(3) 0.0876(5)
N6_2 N 0.9890(8) 0.2003(4) 0.5028(6)
H4_3 H 0.4080 0.2687 0.0101
H5_3 H 0.5181 0.2803 0.0235
C9_3 C 0.9113(7) 0.1745(3) 0.1797(7)
H11_3 H 0.8698 0.1938 0.2113
C20_3 C 0.8787(7) 0.1323(4) 0.1346(7)
H18_3 H 0.8144 0.1232 0.1364
C27_2 C 0.9038(10) 0.2309(5) 0.5062(8)
H29_2 H 0.8722 0.2226 0.5567
H30_2 H 0.9205 0.2671 0.5066
H31_3 H 0.8617 0.2235 0.4575
H32_2 H 0.9514 0.1659 0.6092
H33_2 H 0.9974 0.1273 0.5464
H35_3 H 0.7585 0.4122 0.0178
H37_3 H 0.7101 0.3588 0.0375
P2_3 P 0.66513(19) 0.26432(10) 0.7546(2)
O3_3 O 0.6460(5) 0.2820(2) 0.6586(5)
O4_3 O 0.7239(5) 0.2158(2) 0.7295(5)
N2_3 N 0.8189(5) 0.1018(2) 0.9011(5)
N3_2 N 0.4645(5) 0.3977(3) 0.5649(5)
N7_3 N 0.7470(13) 0.3646(6) 0.9174(8)
N8_3 N 0.4772(11) 0.2623(6) 0.9088(10)
N12_3 N 0.7271(5) 0.3051(3) 0.8075(6)
N13_3 N 0.5673(6) 0.2489(3) 0.7984(8)
N14_3 N 0.6065(9) 0.3103(4) 0.9137(7)
C1_3 C 0.4173(13) 0.2263(7) 0.8680(12)
H1_3 H 0.3647 0.2187 0.9024
H2_3 H 0.3930 0.2402 0.8147
H3_3 H 0.4525 0.1950 0.8585
C2_3 C 0.4621(14) 0.2849(8) 0.9861(11)
H6_3 H 0.4497 0.3214 0.9784
C3_3 C 0.7310(7) 0.1038(4) 0.8742(8)
H7_3 H 0.6879 0.0801 0.8951
C5_3 C 0.5717(7) 0.3291(3) 0.5449(6)
H8_3 H 0.6034 0.3078 0.5081
C10_3 C 0.7555(7) 0.1775(3) 0.7891(7)
C11_3 C 0.5391(9) 0.3552(4) 0.6851(7)
H12_3 H 0.5468 0.3526 0.7437
C13_3 C 0.8489(7) 0.1779(4) 0.8201(8)
H14_3 H 0.8919 0.2033 0.8044
C14_3 C 0.5123(7) 0.3665(3) 0.5151(7)
H15_2 H 0.5040 0.3709 0.4568
C19_3 C 0.5856(7) 0.3224(3) 0.6339(7)
C22_3 C 0.6966(7) 0.1412(4) 0.8127(8)
H20_3 H 0.6337 0.1398 0.7899
C23_3 C 0.8762(7) 0.1383(4) 0.8761(7)
H21_3 H 0.9397 0.1377 0.8974
C24_3 C 0.4804(7) 0.3920(4) 0.6470(7)
H22_3 H 0.4494 0.4148 0.6819
C29_3 C 0.6904(10) 0.3251(6) 0.8811(9)
C30_3 C 0.5612(10) 0.2757(6) 0.8700(8)
C31_3 C 0.7140(16) 0.3862(9) 0.9965(11)
H36_3 H 0.6518 0.4016 0.9860
C32_3 C 0.8334(15) 0.3840(8) 0.8838(14)
H38_3 H 0.8617 0.4098 0.9214
H39_3 H 0.8778 0.3558 0.8783
H40_3 H 0.8186 0.3993 0.8293
H41_3 H 0.582381 0.325438 0.967748
N16_2 N 0.7153(5) 0.9038(2) 0.0734(5)
Cl2_3 Cl 0.76827(16) 0.96923(7) 0.89433(14)
N15_2 N 0.5355(5) 0.8977(3) 0.9351(5)
Cl1_4 Cl 0.28340(16) 0.54026(8) 0.42106(16)
Cl2_4 Cl 0.23173(16) 0.46923(7) 0.60567(14)
P2_4 P 0.33487(19) 0.76432(10) 0.7454(2)
O3_4 O 0.3540(5) 0.7820(2) 0.8414(5)
O4_4 O 0.2761(5) 0.7158(2) 0.7705(5)
N1_4 N 0.0645(5) 0.6031(3) 0.4124(5)
N2_4 N 0.1811(5) 0.6018(2) 0.5989(5)
N7_4 N 0.2530(13) 0.8646(6) 0.5826(8)
N8_4 N 0.5228(11) 0.7623(6) 0.5912(10)
N12_4 N 0.2729(5) 0.8051(3) 0.6925(6)
N13_4 N 0.4327(6) 0.7489(3) 0.7016(8)
N14_4 N 0.3935(9) 0.8103(4) 0.5863(7)
C1_4 C 0.5827(13) 0.7263(7) 0.6320(12)
H1_4 H 0.6353 0.7187 0.5976
H2_4 H 0.6070 0.7402 0.6853
H3_4 H 0.5475 0.6950 0.6415
C2_4 C 0.5379(14) 0.7849(8) 0.5139(11)
H4_4 H 0.5920 0.7687 0.4899
H5_4 H 0.4819 0.7803 0.4765
H6_4 H 0.5503 0.8214 0.5216
C3_4 C 0.2690(7) 0.6038(4) 0.6258(8)
H7_4 H 0.3121 0.5801 0.6049
C5_4 C 0.4283(7) 0.8291(3) 0.9551(6)
H8_4 H 0.3966 0.8078 0.9919
C9_4 C 0.0887(7) 0.6745(3) 0.3203(7)
H11_4 H 0.1302 0.6938 0.2887
C10_4 C 0.2445(7) 0.6775(3) 0.7109(7)
C11_4 C 0.4609(9) 0.8552(4) 0.8149(7)
H12_4 H 0.4532 0.8526 0.7563
C13_4 C 0.1511(7) 0.6779(4) 0.6799(8)
H14_4 H 0.1081 0.7033 0.6956
C14_4 C 0.4877(7) 0.8665(3) 0.9849(7)
C19_4 C 0.4144(7) 0.8224(3) 0.8661(7)
C20_4 C 0.1213(7) 0.6323(4) 0.3654(7)
H18_4 H 0.1856 0.6232 0.3636
C22_4 C 0.3034(7) 0.6412(4) 0.6873(8)
H20_4 H 0.3663 0.6398 0.7101
C23_4 C 0.1238(7) 0.6383(4) 0.6239(7)
H21_4 H 0.0603 0.6377 0.6026
C24_4 C 0.5196(7) 0.8920(4) 0.8530(7)
H22_4 H 0.5506 0.9148 0.8181
H31_4 H 0.1383 0.7235 0.0425
C29_4 C 0.3096(10) 0.8251(6) 0.6189(9)
C30_4 C 0.4388(10) 0.7757(6) 0.6300(8)
C31_4 C 0.2860(16) 0.8862(9) 0.5035(11)
H35_4 H 0.2415 0.9122 0.4822
H36_4 H 0.3482 0.9016 0.5140
H37_4 H 0.2899 0.8588 0.4625
C32_4 C 0.1666(15) 0.8840(8) 0.6162(14)
H38_4 H 0.1383 0.9098 0.5786
H39_4 H 0.1222 0.8558 0.6217
H40_4 H 0.1814 0.8993 0.6707
H41_4 H 0.417619 0.825438 0.532252
P1_4 P 0.90922(17) 0.74069(9) 0.19644(17)
O1_4 O 0.9643(4) 0.7357(2) 0.2878(4)
O2_4 O 0.8811(4) 0.7998(2) 0.2161(4)
N5_4 N 0.7437(8) 0.6374(4) 0.1128(8)
N9_4 N 0.9782(5) 0.7370(3) 0.1212(5)
N10_4 N 0.8197(5) 0.7042(3) 0.1880(5)
N11_4 N 0.8737(8) 0.6715(3) 0.0565(6)
C4_4 C 0.8262(6) 0.8330(3) 0.1641(6)
C6_4 C 0.9962(6) 0.6878(3) 0.3221(5)
C7_4 C 0.7520(6) 0.8640(3) 0.0373(6)
C8_4 C 0.7368(7) 0.9094(4) 0.1549(6)
H10_4 H 0.7134 0.9384 0.1821
C12_4 C 0.7908(7) 0.8752(4) 0.2007(7)
H13_4 H 0.8037 0.8809 0.2582
C15_4 C 0.9334(7) 0.6588(4) 0.3656(7)
H16_4 H 0.8686 0.6672 0.3654
C16_4 C 0.9715(6) 0.6159(4) 0.4104(7)
H17_4 H 0.9302 0.5954 0.4401
C17_4 C 0.8149(8) 0.6720(4) 0.1204(9)
C18_4 C 0.9518(8) 0.7020(4) 0.0596(6)
C21_4 C 0.8089(6) 0.8267(3) 0.0792(6)
H19_4 H 0.8341 0.7987 0.0507
C25_4 C 0.6809(11) 0.6317(5) 0.1824(10)
H23_4 H 0.6341 0.6051 0.1688
H24_4 H 0.7183 0.6220 0.2329
H25_4 H 0.6488 0.6640 0.1916
C26_4 C 0.7333(11) 0.6004(5) 0.0447(10)
H26_4 H 0.6785 0.5787 0.0525
H28_4 H 0.7899 0.5791 0.0444
H9_4 H 0.7394 0.8600 0.9793
H27_4 H 0.7247 0.6185 0.9918
C28_4 C 0.9989(13) 0.6616(5) 0.9296(8)
H34_4 H 0.9374 0.6663 0.9001
N6_3 N 0.9890(8) 0.2997(4) 0.0028(6)
C27_3 C 0.9038(10) 0.2691(5) 0.0062(8)
H29_3 H 0.8722 0.2774 0.0567
H30_3 H 0.9205 0.2329 0.0066
H32_3 H 0.9514 0.3341 0.1092
H33_3 H 0.9974 0.3727 0.0464
H15_3 H 0.5040 0.1291 0.9568
H15_4 H 0.4960 0.8709 0.0432
N6_4 N 0.0110(8) 0.7003(4) 0.9972(6)
C27_4 C 0.0962(10) 0.7309(5) 0.9938(8)
H29_4 H 0.1278 0.7226 0.9433
H30_4 H 0.0795 0.7671 0.9934
H32_4 H 0.0486 0.6659 0.8908
H33_4 H 0.0026 0.6273 0.9536
loop_
_geom_bond_atom_site_label_1
_geom_bond_atom_site_label_2
_geom_bond_site_symmetry_1
_geom_bond_site_symmetry_2
N15 Cd2 1_555 1_555
Cd2 Cl2 1_555 1_555
P2 O3 1_555 1_555
O3 C19 1_555 1_555
O4 P2 1_555 1_555
N2 Cd1 1_555 1_555
N3 C14 1_555 1_555
N7 C29 1_555 1_555
N8 C1 1_555 1_555
N12 P2 1_555 1_555
N13 P2 1_555 1_555
N14 C29 1_555 1_555
C1 H1 1_555 1_555
H2 C1 1_555 1_555
H3 C1 1_555 1_555
C2 N8 1_555 1_555
H6 C2 1_555 1_555
C3 N2 1_555 1_555
H7 C3 1_555 1_555
C5 H8 1_555 1_555
C10 O4 1_555 1_555
C11 H12 1_555 1_555
C13 C10 1_555 1_555
H14 C13 1_555 1_555
C14 C5 1_555 1_555
H15 C14 1_555 1_555
C19 C5 1_555 1_555
C22 C3 1_555 1_555
H20 C22 1_555 1_555
C23 N2 1_555 1_555
H21 C23 1_555 1_555
C24 N3 1_555 1_555
H22 C24 1_555 1_555
C29 N12 1_555 1_555
C30 N8 1_555 1_555
C31 N7 1_555 1_555
H36 C31 1_555 1_555
C32 N7 1_555 1_555
H38 C32 1_555 1_555
H39 C32 1_555 1_555
H40 C32 1_555 1_555
Cd5 N3 1_555 1_555
N13 C30 1_555 1_555
N14 C30 1_555 1_555
C10 C22 1_555 1_555
C11 C19 1_555 1_555
C11 C24 1_555 1_555
C13 C23 1_555 1_555
N14 H41 1_555 1_555
C9 H11 1_555 1_555
C20 N1 1_555 1_555
H18 C20 1_555 1_555
C27 N6 1_555 1_555
H29 C27 1_555 1_555
H30 C27 1_555 1_555
H31 C27 1_555 1_555
C9 C20 1_555 1_555
P1 O1 1_555 1_555
O1 C6 1_555 1_555
O2 P1 1_555 1_555
N4 C7 1_555 1_555
N5 C17 1_555 1_555
N9 P1 1_555 1_555
N10 P1 1_555 1_555
N11 C17 1_555 1_555
C4 O2 1_555 1_555
C7 H9 1_555 1_555
C8 N4 1_555 1_555
H10 C8 1_555 1_555
C12 C4 1_555 1_555
H13 C12 1_555 1_555
C15 C6 1_555 1_555
H16 C15 1_555 1_555
H17 C16 1_555 1_555
C17 N10 1_555 1_555
C18 N9 1_555 1_555
C21 C4 1_555 1_555
H19 C21 1_555 1_555
C25 N5 1_555 1_555
H23 C25 1_555 1_555
H24 C25 1_555 1_555
H25 C25 1_555 1_555
C26 N5 1_555 1_555
H26 C26 1_555 1_555
H27 C26 1_555 1_555
H28 C26 1_555 1_555
H34 C28 1_555 1_555
Cd5 N4 1_555 1_555
N11 C18 1_555 1_555
C7 C21 1_555 1_555
C8 C12 1_555 1_555
C15 C16 1_555 1_555
H34_2 C28_2 1_555 1_555
P1_2 O1_2 1_555 1_555
O1_2 C6_2 1_555 1_555
O2_2 P1_2 1_555 1_555
N16 C7_2 1_555 1_555
N5_2 C17_2 1_555 1_555
N9_2 P1_2 1_555 1_555
N10_2 P1_2 1_555 1_555
N11_2 C17_2 1_555 1_555
C4_2 O2_2 1_555 1_555
C8_2 N16 1_555 1_555
H10_2 C8_2 1_555 1_555
C12_2 C4_2 1_555 1_555
H13_2 C12_2 1_555 1_555
C15_2 C6_2 1_555 1_555
H16_2 C15_2 1_555 1_555
H17_2 C16_2 1_555 1_555
C17_2 N10_2 1_555 1_555
C18_2 N9_2 1_555 1_555
C21_2 C4_2 1_555 1_555
H19_2 C21_2 1_555 1_555
C25_2 N5_2 1_555 1_555
H23_2 C25_2 1_555 1_555
H24_2 C25_2 1_555 1_555
H25_2 C25_2 1_555 1_555
C26_2 N5_2 1_555 1_555
H26_2 C26_2 1_555 1_555
H28_2 C26_2 1_555 1_555
N11_2 C18_2 1_555 1_555
C7_2 C21_2 1_555 1_555
C8_2 C12_2 1_555 1_555
C15_2 C16_2 1_555 1_555
Cd3_2 Cl5_2 1_555 1_555
Cd1_2 Cl1_2 1_555 1_555
Cd5 Cl1_2 1_555 1_555
Cl2_2 Cd1_2 1_555 1_555
Cl3_2 Cd1_2 1_555 1_555
Cl4_2 Cd5 1_555 1_555
P2_2 O3_2 1_555 1_555
O3_2 C19_2 1_555 1_555
O4_2 P2_2 1_555 1_555
N1_2 Cd1_2 1_555 1_555
N2_2 Cd1_2 1_555 1_555
N15 C14_2 1_555 1_555
N7_2 C29_2 1_555 1_555
N8_2 C1_2 1_555 1_555
N12_2 P2_2 1_555 1_555
N13_2 P2_2 1_555 1_555
N14_2 C29_2 1_555 1_555
C1_2 H1_2 1_555 1_555
H2_2 C1_2 1_555 1_555
H3_2 C1_2 1_555 1_555
C2_2 N8_2 1_555 1_555
H4_2 C2_2 1_555 1_555
H5_2 C2_2 1_555 1_555
H6_2 C2_2 1_555 1_555
C3_2 N2_2 1_555 1_555
H7_2 C3_2 1_555 1_555
C5_2 H8_2 1_555 1_555
C9_2 H11_2 1_555 1_555
C10_2 O4_2 1_555 1_555
C11_2 H12_2 1_555 1_555
C13_2 C10_2 1_555 1_555
H14_2 C13_2 1_555 1_555
C14_2 C5_2 1_555 1_555
C19_2 C5_2 1_555 1_555
C20_2 N1_2 1_555 1_555
H18_2 C20_2 1_555 1_555
C22_2 C3_2 1_555 1_555
H20_2 C22_2 1_555 1_555
C23_2 N2_2 1_555 1_555
H21_2 C23_2 1_555 1_555
C24_2 N15 1_555 1_555
H22_2 C24_2 1_555 1_555
C29_2 N12_2 1_555 1_555
C30_2 N8_2 1_555 1_555
C31_2 N7_2 1_555 1_555
H35_2 C31_2 1_555 1_555
H36_2 C31_2 1_555 1_555
H37_2 C31_2 1_555 1_555
C32_2 N7_2 1_555 1_555
H38_2 C32_2 1_555 1_555
H39_2 C32_2 1_555 1_555
H40_2 C32_2 1_555 1_555
Cd4_2 Cl4_2 1_555 1_555
Cl6_2 Cd5 1_555 1_555
Cd5 Cl2_2 1_555 1_555
N13_2 C30_2 1_555 1_555
N14_2 C30_2 1_555 1_555
C9_2 C20_2 1_555 1_555
C10_2 C22_2 1_555 1_555
C11_2 C19_2 1_555 1_555
C11_2 C24_2 1_555 1_555
C13_2 C23_2 1_555 1_555
Cd4_2 Cl6_2 1_555 1_555
N14_2 H41_2 1_555 1_555
P1_3 O1_3 1_555 1_555
O1_3 C6_3 1_555 1_555
O2_3 P1_3 1_555 1_555
N4_2 C7_3 1_555 1_555
N5_3 C17_3 1_555 1_555
N9_3 P1_3 1_555 1_555
N10_3 P1_3 1_555 1_555
N11_3 C17_3 1_555 1_555
C4_3 O2_3 1_555 1_555
C7_3 H9_3 1_555 1_555
C8_3 N4_2 1_555 1_555
H10_3 C8_3 1_555 1_555
C12_3 C4_3 1_555 1_555
H13_3 C12_3 1_555 1_555
C15_3 C6_3 1_555 1_555
H16_3 C15_3 1_555 1_555
H17_3 C16_3 1_555 1_555
C17_3 N10_3 1_555 1_555
C18_3 N9_3 1_555 1_555
C21_3 C4_3 1_555 1_555
H19_3 C21_3 1_555 1_555
C25_3 N5_3 1_555 1_555
H23_3 C25_3 1_555 1_555
H24_3 C25_3 1_555 1_555
H25_3 C25_3 1_555 1_555
C26_3 N5_3 1_555 1_555
H26_3 C26_3 1_555 1_555
H27_3 C26_3 1_555 1_555
H28_3 C26_3 1_555 1_555
H34_3 C28_3 1_555 1_555
Cd4_2 N4_2 1_555 1_555
N11_3 C18_3 1_555 1_555
C7_3 C21_3 1_555 1_555
C8_3 C12_3 1_555 1_555
C15_3 C16_3 1_555 1_555
C9_3 H11_3 1_555 1_555
C20_3 N1_3 1_555 1_555
H18_3 C20_3 1_555 1_555
C27_2 N6_2 1_555 1_555
H29_2 C27_2 1_555 1_555
H30_2 C27_2 1_555 1_555
H31_3 C27_2 1_555 1_555
C9_3 C20_3 1_555 1_555
P2_3 O3_3 1_555 1_555
O3_3 C19_3 1_555 1_555
O4_3 P2_3 1_555 1_555
N2_3 Cd3 1_555 1_555
N3_2 C14_3 1_555 1_555
N7_3 C29_3 1_555 1_555
N8_3 C1_3 1_555 1_555
N12_3 P2_3 1_555 1_555
N13_3 P2_3 1_555 1_555
N14_3 C29_3 1_555 1_555
C1_3 H1_3 1_555 1_555
H2_3 C1_3 1_555 1_555
H3_3 C1_3 1_555 1_555
C2_3 N8_3 1_555 1_555
H6_3 C2_3 1_555 1_555
C3_3 N2_3 1_555 1_555
H7_3 C3_3 1_555 1_555
C5_3 H8_3 1_555 1_555
C10_3 O4_3 1_555 1_555
C11_3 H12_3 1_555 1_555
C13_3 C10_3 1_555 1_555
H14_3 C13_3 1_555 1_555
C14_3 C5_3 1_555 1_555
H15_2 C14_3 1_555 1_555
C19_3 C5_3 1_555 1_555
C22_3 C3_3 1_555 1_555
H20_3 C22_3 1_555 1_555
C23_3 N2_3 1_555 1_555
H21_3 C23_3 1_555 1_555
C24_3 N3_2 1_555 1_555
H22_3 C24_3 1_555 1_555
C29_3 N12_3 1_555 1_555
C30_3 N8_3 1_555 1_555
C31_3 N7_3 1_555 1_555
H36_3 C31_3 1_555 1_555
C32_3 N7_3 1_555 1_555
H38_3 C32_3 1_555 1_555
H39_3 C32_3 1_555 1_555
H40_3 C32_3 1_555 1_555
Cd4_2 N3_2 1_555 1_555
N13_3 C30_3 1_555 1_555
N14_3 C30_3 1_555 1_555
C10_3 C22_3 1_555 1_555
C11_3 C19_3 1_555 1_555
C11_3 C24_3 1_555 1_555
C13_3 C23_3 1_555 1_555
N14_3 H41_3 1_555 1_555
N15_2 Cd4 1_555 1_555
Cd4 Cl2_3 1_555 1_555
Cd3_2 Cl1_4 1_555 1_555
Cd4_2 Cl1_4 1_555 1_555
Cl2_4 Cd3_2 1_555 1_555
P2_4 O3_4 1_555 1_555
O3_4 C19_4 1_555 1_555
O4_4 P2_4 1_555 1_555
N1_4 Cd3_2 1_555 1_555
N2_4 Cd3_2 1_555 1_555
N15_2 C14_4 1_555 1_555
N7_4 C29_4 1_555 1_555
N8_4 C1_4 1_555 1_555
N12_4 P2_4 1_555 1_555
N13_4 P2_4 1_555 1_555
N14_4 C29_4 1_555 1_555
C1_4 H1_4 1_555 1_555
H2_4 C1_4 1_555 1_555
H3_4 C1_4 1_555 1_555
C2_4 N8_4 1_555 1_555
H4_4 C2_4 1_555 1_555
H5_4 C2_4 1_555 1_555
H6_4 C2_4 1_555 1_555
C3_4 N2_4 1_555 1_555
H7_4 C3_4 1_555 1_555
C5_4 H8_4 1_555 1_555
C9_4 H11_4 1_555 1_555
C10_4 O4_4 1_555 1_555
C11_4 H12_4 1_555 1_555
C13_4 C10_4 1_555 1_555
H14_4 C13_4 1_555 1_555
C14_4 C5_4 1_555 1_555
C19_4 C5_4 1_555 1_555
C20_4 N1_4 1_555 1_555
H18_4 C20_4 1_555 1_555
C22_4 C3_4 1_555 1_555
H20_4 C22_4 1_555 1_555
C23_4 N2_4 1_555 1_555
H21_4 C23_4 1_555 1_555
C24_4 N15_2 1_555 1_555
H22_4 C24_4 1_555 1_555
C29_4 N12_4 1_555 1_555
C30_4 N8_4 1_555 1_555
C31_4 N7_4 1_555 1_555
H35_4 C31_4 1_555 1_555
H36_4 C31_4 1_555 1_555
H37_4 C31_4 1_555 1_555
C32_4 N7_4 1_555 1_555
H38_4 C32_4 1_555 1_555
H39_4 C32_4 1_555 1_555
H40_4 C32_4 1_555 1_555
Cd4_2 Cl2_4 1_555 1_555
N13_4 C30_4 1_555 1_555
N14_4 C30_4 1_555 1_555
C9_4 C20_4 1_555 1_555
C10_4 C22_4 1_555 1_555
C11_4 C19_4 1_555 1_555
C11_4 C24_4 1_555 1_555
C13_4 C23_4 1_555 1_555
N14_4 H41_4 1_555 1_555
P1_4 O1_4 1_555 1_555
O1_4 C6_4 1_555 1_555
O2_4 P1_4 1_555 1_555
N16_2 C7_4 1_555 1_555
N5_4 C17_4 1_555 1_555
N9_4 P1_4 1_555 1_555
N10_4 P1_4 1_555 1_555
N11_4 C17_4 1_555 1_555
C4_4 O2_4 1_555 1_555
C8_4 N16_2 1_555 1_555
H10_4 C8_4 1_555 1_555
C12_4 C4_4 1_555 1_555
H13_4 C12_4 1_555 1_555
C15_4 C6_4 1_555 1_555
H16_4 C15_4 1_555 1_555
H17_4 C16_4 1_555 1_555
C17_4 N10_4 1_555 1_555
C18_4 N9_4 1_555 1_555
C21_4 C4_4 1_555 1_555
H19_4 C21_4 1_555 1_555
C25_4 N5_4 1_555 1_555
H23_4 C25_4 1_555 1_555
H24_4 C25_4 1_555 1_555
H25_4 C25_4 1_555 1_555
C26_4 N5_4 1_555 1_555
H26_4 C26_4 1_555 1_555
H28_4 C26_4 1_555 1_555
N11_4 C18_4 1_555 1_555
C7_4 C21_4 1_555 1_555
C8_4 C12_4 1_555 1_555
C15_4 C16_4 1_555 1_555
H34_4 C28_4 1_555 1_555
C27_3 N6_3 1_555 1_555
H29_3 C27_3 1_555 1_555
H30_3 C27_3 1_555 1_555
C27_4 N6_4 1_555 1_555
H29_4 C27_4 1_555 1_555
H30_4 C27_4 1_555 1_555

#END
