
###############################################################################
#
# This file contains modified crystal structure data generated from the
# MOF subset of the Cambridge Structural Database (CSD) v543 
# hosted by the Cambridge Crystallographic Data Centre (CCDC).
#
# This work is licensed under the Creative Commons
# Attribution-NonCommercial-ShareAlike 4.0 International License.
# To view a copy of this license, visit
# http://creativecommons.org/licenses/by-nc-sa/4.0/
# or send a letter to
# Creative Commons, PO Box 1866, Mountain View, CA 94042, USA.
#
# CIF created using the CSD Python API on 29 September 2022
# The structure has been converted into the P1 space group
# The structure has a 3D framework
# The original CSD entry VUQKOI is in the triclinic crystal system
# The framework has been calculated to contain at least 10.0% void space
# The void calculation uses a probe of radius 1.32A, grid spacing 0.4
# H atom positions have been added when not included in the experimental data
#
###############################################################################

data_VUQKOI
_chemical_formula_moiety         '(C64 H84 Cd6 Cl10 N28 O10 P4)n'
_symmetry_cell_setting           triclinic
_symmetry_space_group_name_H-M   'P 1'
_symmetry_Int_Tables_number      1
_space_group_name_Hall           'P 1'
loop_
_symmetry_equiv_pos_site_id
_symmetry_equiv_pos_as_xyz
1 x,y,z
_cell_length_a                   14.196(5)
_cell_length_b                   15.367(5)
_cell_length_c                   16.615(5)
_cell_angle_alpha                76.167(5)
_cell_angle_beta                 87.919(5)
_cell_angle_gamma                64.595(5)
_cell_volume                     3170.01
loop_
_atom_site_label
_atom_site_type_symbol
_atom_site_fract_x
_atom_site_fract_y
_atom_site_fract_z
H15 H 0.5451 0.2228 0.0151
H16 H 0.5421 0.0780 0.0041
O1 O 0.5250(6) 0.0250(4) 0.8768(3)
N1 N 0.4865(6) 0.0450(5) 0.7162(4)
N2 N 0.6471(6) 0.0037(5) 0.6477(5)
N4 N 0.4924(7) 0.1213(5) 0.5823(5)
N6 N 0.5360(5) 0.2846(4) 0.8969(4)
C2 C 0.5448(7) 0.0527(6) 0.6517(5)
C5 C 0.5450(10) 0.1344(8) 0.5039(6)
H7 H 0.5079 0.2013 0.4708
H8 H 0.5451 0.0887 0.4733
H9 H 0.6157 0.1217 0.5171
C6 C 0.3791(9) 0.1832(9) 0.5759(8)
H10 H 0.3463 0.1699 0.5338
H11 H 0.3654 0.2521 0.5613
H12 H 0.3516 0.1681 0.6283
C7 C 0.5337(7) 0.1108(5) 0.8788(5)
C8 C 0.5293(8) 0.1838(6) 0.8095(5)
H13 H 0.5261 0.1757 0.7561
C9 C 0.5299(7) 0.2690(5) 0.8226(5)
H14 H 0.5257 0.3188 0.7762
C10 C 0.5407(7) 0.2132(6) 0.9624(5)
C11 C 0.5393(7) 0.1258(6) 0.9566(4)
Cd6 Cd 0.54314(4) 0.43134(3) 0.91202(3)
Cl6 Cl 0.44319(14) 0.42149(12) 0.04694(10)
Cd5 Cd 0.45686(4) 0.56866(3) 0.08798(3)
Cd1 Cd 0.50034(4) 0.55956(3) 0.67841(3)
Cd2 Cd 0.34554(4) 0.56286(4) 0.49053(3)
Cl1 Cl 0.33746(17) 0.68460(14) 0.57748(11)
Cl2 Cl 0.49053(14) 0.42764(12) 0.60377(10)
Cl3 Cl 0.38282(13) 0.53067(12) 0.79887(10)
Cl4 Cl 0.65481(13) 0.43122(12) 0.78339(10)
Cl5 Cl 0.64606(17) 0.57158(14) 0.57771(11)
P1 P 0.5530(2) 0.97352(15) 0.80079(12)
O2 O 0.5079(5) 0.8959(4) 0.8437(3)
O3 O 0.1101(4) 0.9439(4) 0.1838(3)
O5 O 0.1970(5) 0.5554(6) 0.5496(5)
N3 N 0.6740(6) 0.9218(5) 0.7937(4)
N5 N 0.8089(7) 0.8920(7) 0.7086(6)
N7 N 0.5010(5) 0.6885(4) 0.7282(4)
N8 N 0.2511(5) 0.7000(5) 0.3831(4)
C1 C 0.7065(8) 0.9419(7) 0.7165(6)
C3 C 0.8791(10) 0.8164(9) 0.7839(9)
H1 H 0.8461 0.8305 0.8337
H2 H 0.9449 0.8202 0.7841
H3 H 0.8907 0.7509 0.7814
C4 C 0.8542(11) 0.9076(11) 0.6253(9)
H4 H 0.8445 0.8673 0.5933
H5 H 0.9275 0.8890 0.6339
H6 H 0.8191 0.9763 0.5960
C12 C 0.5085(7) 0.8268(5) 0.8020(4)
C13 C 0.5999(7) 0.7547(6) 0.7866(5)
H17 H 0.6643 0.7514 0.8006
C14 C 0.5920(7) 0.6866(6) 0.7490(5)
H18 H 0.6533 0.6368 0.7376
C15 C 0.4139(7) 0.7594(5) 0.7451(5)
H19 H 0.3502 0.7612 0.7310
C16 C 0.4131(7) 0.8296(6) 0.7822(5)
H20 H 0.3507 0.8779 0.7939
C17 C 0.2776(7) 0.7730(6) 0.3664(5)
H21 H 0.3309 0.7693 0.3999
C18 C 0.2305(7) 0.8556(6) 0.3015(5)
H22 H 0.2505 0.9072 0.2925
C19 C 0.1541(6) 0.8609(5) 0.2504(4)
C20 C 0.1261(6) 0.7842(6) 0.2653(5)
H23 H 0.0750 0.7848 0.2314
C21 C 0.1772(6) 0.7053(6) 0.3331(5)
H24 H 0.1585 0.6529 0.3443
Cd4 Cd 0.65446(4) 0.43714(4) 0.50947(3)
Cl7 Cl 0.50947(14) 0.57236(12) 0.39623(10)
Cl8 Cl 0.35394(17) 0.42842(14) 0.42229(11)
Cl9 Cl 0.55681(14) 0.57851(12) 0.95306(10)
N16 N 0.7061(5) 0.3143(4) 0.9856(3)
H41 H 0.137998 0.622971 0.536446
H42 H 0.178389 0.510273 0.526705
C24 C 0.8697(6) 0.1739(6) 0.9888(5)
H26 H 0.9160 0.1275 0.9622
C31 C 0.7753(6) 0.2469(5) 0.9495(4)
H39 H 0.7590 0.2492 0.8951
N14 N 0.2939(5) 0.6857(4) 0.0144(3)
C24_2 C 0.1303(6) 0.8261(6) 0.0112(5)
H26_2 H 0.0840 0.8725 0.0378
C31_2 C 0.2247(6) 0.7531(5) 0.0505(4)
H39_2 H 0.2410 0.7508 0.1049
Cd1_2 Cd 0.49966(4) 0.44044(3) 0.32159(3)
Cl1_2 Cl 0.66254(17) 0.31540(14) 0.42252(11)
Cl3_2 Cl 0.61718(13) 0.46933(12) 0.20113(10)
Cl4_2 Cl 0.34519(13) 0.56878(12) 0.21661(10)
P1_2 P 0.4470(2) 0.02648(15) 0.19921(12)
O2_2 O 0.4921(5) 0.1041(4) 0.1563(3)
O3_2 O 0.8899(4) 0.0561(4) 0.8162(3)
O5_2 O 0.8030(5) 0.4446(6) 0.4504(5)
N3_2 N 0.3260(6) 0.0782(5) 0.2063(4)
N5_2 N 0.1911(7) 0.1080(7) 0.2914(6)
N7_2 N 0.4990(5) 0.3115(4) 0.2718(4)
N8_2 N 0.7489(5) 0.3000(5) 0.6169(4)
C1_2 C 0.2935(8) 0.0581(7) 0.2835(6)
C3_2 C 0.1209(10) 0.1836(9) 0.2161(9)
H1_2 H 0.1539 0.1695 0.1663
H2_2 H 0.0551 0.1798 0.2159
H3_2 H 0.1093 0.2491 0.2186
C4_2 C 0.1458(11) 0.0924(11) 0.3747(9)
H4_2 H 0.1555 0.1327 0.4067
H5_2 H 0.0725 0.1110 0.3661
H6_2 H 0.1809 0.0237 0.4040
C12_2 C 0.4915(7) 0.1732(5) 0.1980(4)
C13_2 C 0.4001(7) 0.2453(6) 0.2134(5)
H17_2 H 0.3357 0.2486 0.1994
C14_2 C 0.4080(7) 0.3134(6) 0.2510(5)
H18_2 H 0.3467 0.3632 0.2624
C15_2 C 0.5861(7) 0.2406(5) 0.2549(5)
H19_2 H 0.6498 0.2388 0.2690
C16_2 C 0.5869(7) 0.1704(6) 0.2178(5)
H20_2 H 0.6493 0.1221 0.2061
C17_2 C 0.7224(7) 0.2270(6) 0.6336(5)
H21_2 H 0.6691 0.2307 0.6001
C18_2 C 0.7695(7) 0.1444(6) 0.6985(5)
H22_2 H 0.7495 0.0928 0.7075
C19_2 C 0.8459(6) 0.1391(5) 0.7496(4)
C20_2 C 0.8739(6) 0.2158(6) 0.7347(5)
H23_2 H 0.9250 0.2152 0.7686
C21_2 C 0.8228(6) 0.2947(6) 0.6669(5)
H24_2 H 0.8415 0.3471 0.6557
N15 N 0.4640(5) 0.7154(4) 0.1031(4)
H41_2 H 0.862002 0.377029 0.463554
H42_2 H 0.821611 0.489727 0.473295
O1_2 O 0.4750(6) 0.9750(4) 0.1232(3)
N1_2 N 0.5135(6) 0.9550(5) 0.2838(4)
N2_2 N 0.3529(6) 0.9963(5) 0.3523(5)
N4_2 N 0.5076(7) 0.8787(5) 0.4177(5)
C2_2 C 0.4552(7) 0.9473(6) 0.3483(5)
C5_2 C 0.4550(10) 0.8656(8) 0.4961(6)
H7_2 H 0.4921 0.7987 0.5292
H8_2 H 0.4549 0.9113 0.5267
H9_2 H 0.3843 0.8783 0.4829
C6_2 C 0.6209(9) 0.8168(9) 0.4241(8)
H10_2 H 0.6537 0.8301 0.4662
H11_2 H 0.6346 0.7479 0.4387
H12_2 H 0.6484 0.8319 0.3717
C7_2 C 0.4663(7) 0.8892(5) 0.1212(5)
C8_2 C 0.4707(8) 0.8162(6) 0.1905(5)
H13_2 H 0.4739 0.8243 0.2439
C9_2 C 0.4701(7) 0.7310(5) 0.1774(5)
H14_2 H 0.4743 0.6812 0.2238
C10_2 C 0.4593(7) 0.7868(6) 0.0376(5)
C11_2 C 0.4607(7) 0.8742(6) 0.0434(4)
P2 P 0.98570(15) 0.00451(14) 0.17103(12)
O4 O 0.9888(4) 0.1000(4) 0.1097(3)
N9 N 0.9372(5) 0.0258(5) 0.2553(4)
N12 N 0.8216(6) 0.0111(6) 0.3508(5)
C22 C 0.8922(6) 0.1725(5) 0.0684(4)
C23 C 0.8252(6) 0.2430(6) 0.1073(5)
H25 H 0.8420 0.2439 0.1606
C27 C 0.8560(8) 0.0601(7) 0.3991(6)
H27 H 0.9089 0.0111 0.4412
H28 H 0.7978 0.1012 0.4249
H29 H 0.8842 0.1006 0.3633
H31 H 0.6989 0.0135 0.4154
C32 C 0.7315(6) 0.3126(5) 0.0630(4)
H40 H 0.6843 0.3602 0.0882
N10 N 0.8247(6) 0.9495(6) 0.2382(5)
N11 N 0.9340(5) 0.9549(5) 0.1247(4)
N13 N 0.8126(7) 0.8944(7) 0.1233(6)
C25 C 0.8634(6) 0.9931(6) 0.2787(5)
C26 C 0.8592(6) 0.9336(6) 0.1644(6)
C28 C 0.7495(10) 0.9692(10) 0.3866(7)
H30 H 0.7143 0.9606 0.3429
H32 H 0.7881 0.9059 0.4248
C29 C 0.8456(9) 0.8761(10) 0.0426(7)
H33 H 0.8818 0.9153 0.0187
H34 H 0.7854 0.8940 0.0066
H35 H 0.8915 0.8069 0.0494
C30 C 0.7388(11) 0.8568(13) 0.1635(9)
H36 H 0.7765 0.7881 0.1924
H37 H 0.6894 0.8629 0.1221
H38 H 0.7022 0.8947 0.2024
N10_2 N 0.1753(6) 0.0505(6) 0.7618(5)
N11_2 N 0.0660(5) 0.0451(5) 0.8753(4)
N13_2 N 0.1874(7) 0.1056(7) 0.8767(6)
C25_2 C 0.1366(6) 0.0069(6) 0.7213(5)
C26_2 C 0.1408(6) 0.0664(6) 0.8356(6)
C28_2 C 0.2505(10) 0.0308(10) 0.6134(7)
H30_2 H 0.2857 0.0394 0.6571
H32_2 H 0.2119 0.0941 0.5752
C29_2 C 0.1544(9) 0.1239(10) 0.9574(7)
H33_2 H 0.1182 0.0847 0.9813
H34_2 H 0.2146 0.1060 0.9934
H35_2 H 0.1085 0.1931 0.9506
C30_2 C 0.2612(11) 0.1432(13) 0.8365(9)
H36_2 H 0.2235 0.2119 0.8076
H37_2 H 0.3106 0.1371 0.8779
H38_2 H 0.2978 0.1053 0.7976
P2_2 P 0.01430(15) 0.99549(14) 0.82897(12)
O4_2 O 0.0112(4) 0.9000(4) 0.8903(3)
N9_2 N 0.0628(5) 0.9742(5) 0.7447(4)
N12_2 N 0.1784(6) 0.9889(6) 0.6492(5)
C22_2 C 0.1078(6) 0.8275(5) 0.9316(4)
C23_2 C 0.1748(6) 0.7570(6) 0.8927(5)
H25_2 H 0.1580 0.7561 0.8394
C27_2 C 0.1440(8) 0.9399(7) 0.6009(6)
H27_2 H 0.0911 0.9889 0.5588
H28_2 H 0.2022 0.8988 0.5751
H29_2 H 0.1158 0.8994 0.6367
H31_2 H 0.3011 0.9865 0.5846
C32_2 C 0.2685(6) 0.6874(5) 0.9370(4)
H40_2 H 0.3157 0.6398 0.9118
H15_2 H 0.4549 0.7772 0.9849
H16_2 H 0.4579 0.9220 0.9959
loop_
_geom_bond_atom_site_label_1
_geom_bond_atom_site_label_2
_geom_bond_site_symmetry_1
_geom_bond_site_symmetry_2
O1 C7 1_555 1_555
N4 C2 1_555 1_555
N6 C9 1_555 1_555
C2 N1 1_555 1_555
C5 N4 1_555 1_555
H7 C5 1_555 1_555
H8 C5 1_555 1_555
H9 C5 1_555 1_555
C6 N4 1_555 1_555
H10 C6 1_555 1_555
H11 C6 1_555 1_555
H12 C6 1_555 1_555
C7 C8 1_555 1_555
C8 H13 1_555 1_555
C9 C8 1_555 1_555
H14 C9 1_555 1_555
C10 N6 1_555 1_555
C11 C7 1_555 1_555
Cd6 N6 1_555 1_555
N2 C2 1_555 1_555
C10 C11 1_555 1_555
Cd5 Cl6 1_555 1_555
Cd1 Cl1 1_555 1_555
Cd2 Cl1 1_555 1_555
Cd6 Cl3 1_555 1_555
Cl2 Cd1 1_555 1_555
Cl3 Cd1 1_555 1_555
Cl4 Cd1 1_555 1_555
Cl5 Cd1 1_555 1_555
O2 P1 1_555 1_555
O3 C19 1_555 1_555
O5 Cd2 1_555 1_555
N3 P1 1_555 1_555
N5 C1 1_555 1_555
N7 Cd1 1_555 1_555
N8 Cd2 1_555 1_555
C1 N3 1_555 1_555
C3 N5 1_555 1_555
H1 C3 1_555 1_555
H2 C3 1_555 1_555
H3 C3 1_555 1_555
C4 N5 1_555 1_555
H4 C4 1_555 1_555
H5 C4 1_555 1_555
H6 C4 1_555 1_555
C12 O2 1_555 1_555
C13 C12 1_555 1_555
H17 C13 1_555 1_555
C14 N7 1_555 1_555
H18 C14 1_555 1_555
C15 N7 1_555 1_555
H19 C15 1_555 1_555
C16 C12 1_555 1_555
H20 C16 1_555 1_555
C17 N8 1_555 1_555
H21 C17 1_555 1_555
C18 C17 1_555 1_555
H22 C18 1_555 1_555
C19 C18 1_555 1_555
C20 C19 1_555 1_555
H23 C20 1_555 1_555
C21 N8 1_555 1_555
H24 C21 1_555 1_555
Cd4 Cl2 1_555 1_555
Cl7 Cd2 1_555 1_555
Cl8 Cd2 1_555 1_555
Cl9 Cd6 1_555 1_555
N16 Cd6 1_555 1_555
Cd2 Cl2 1_555 1_555
Cd6 Cl4 1_555 1_555
Cl5 Cd4 1_555 1_555
C13 C14 1_555 1_555
C15 C16 1_555 1_555
C20 C21 1_555 1_555
Cd4 Cl7 1_555 1_555
O5 H41 1_555 1_555
O5 H42 1_555 1_555
N16 C31 1_555 1_555
H26 C24 1_555 1_555
C31 C24 1_555 1_555
H39 C31 1_555 1_555
N14 C31_2 1_555 1_555
H26_2 C24_2 1_555 1_555
C31_2 C24_2 1_555 1_555
H39_2 C31_2 1_555 1_555
Cd5 N14 1_555 1_555
Cd1_2 Cl1_2 1_555 1_555
Cd4 Cl1_2 1_555 1_555
Cd5 Cl3_2 1_555 1_555
Cl7 Cd1_2 1_555 1_555
Cl3_2 Cd1_2 1_555 1_555
Cl4_2 Cd1_2 1_555 1_555
Cl8 Cd1_2 1_555 1_555
O2_2 P1_2 1_555 1_555
O3_2 C19_2 1_555 1_555
O5_2 Cd4 1_555 1_555
N3_2 P1_2 1_555 1_555
N5_2 C1_2 1_555 1_555
N7_2 Cd1_2 1_555 1_555
N8_2 Cd4 1_555 1_555
C1_2 N3_2 1_555 1_555
C3_2 N5_2 1_555 1_555
H1_2 C3_2 1_555 1_555
H2_2 C3_2 1_555 1_555
H3_2 C3_2 1_555 1_555
C4_2 N5_2 1_555 1_555
H4_2 C4_2 1_555 1_555
H5_2 C4_2 1_555 1_555
H6_2 C4_2 1_555 1_555
C12_2 O2_2 1_555 1_555
C13_2 C12_2 1_555 1_555
H17_2 C13_2 1_555 1_555
C14_2 N7_2 1_555 1_555
H18_2 C14_2 1_555 1_555
C15_2 N7_2 1_555 1_555
H19_2 C15_2 1_555 1_555
C16_2 C12_2 1_555 1_555
H20_2 C16_2 1_555 1_555
C17_2 N8_2 1_555 1_555
H21_2 C17_2 1_555 1_555
C18_2 C17_2 1_555 1_555
H22_2 C18_2 1_555 1_555
C19_2 C18_2 1_555 1_555
C20_2 C19_2 1_555 1_555
H23_2 C20_2 1_555 1_555
C21_2 N8_2 1_555 1_555
H24_2 C21_2 1_555 1_555
N15 Cd5 1_555 1_555
Cd5 Cl4_2 1_555 1_555
C13_2 C14_2 1_555 1_555
C15_2 C16_2 1_555 1_555
C20_2 C21_2 1_555 1_555
O5_2 H41_2 1_555 1_555
O5_2 H42_2 1_555 1_555
O1_2 C7_2 1_555 1_555
N4_2 C2_2 1_555 1_555
N15 C9_2 1_555 1_555
C2_2 N1_2 1_555 1_555
C5_2 N4_2 1_555 1_555
H7_2 C5_2 1_555 1_555
H8_2 C5_2 1_555 1_555
H9_2 C5_2 1_555 1_555
C6_2 N4_2 1_555 1_555
H10_2 C6_2 1_555 1_555
H11_2 C6_2 1_555 1_555
H12_2 C6_2 1_555 1_555
C7_2 C8_2 1_555 1_555
C8_2 H13_2 1_555 1_555
C9_2 C8_2 1_555 1_555
H14_2 C9_2 1_555 1_555
C10_2 N15 1_555 1_555
C11_2 C7_2 1_555 1_555
N2_2 C2_2 1_555 1_555
C10_2 C11_2 1_555 1_555
O4 P2 1_555 1_555
N9 P2 1_555 1_555
C22 O4 1_555 1_555
C23 C22 1_555 1_555
H25 C23 1_555 1_555
C27 N12 1_555 1_555
H27 C27 1_555 1_555
H28 C27 1_555 1_555
H29 C27 1_555 1_555
H40 C32 1_555 1_555
C23 C32 1_555 1_555
N10 C25 1_555 1_555
N13 C26 1_555 1_555
C26 N10 1_555 1_555
H30 C28 1_555 1_555
H32 C28 1_555 1_555
C29 N13 1_555 1_555
H33 C29 1_555 1_555
H34 C29 1_555 1_555
H35 C29 1_555 1_555
C30 N13 1_555 1_555
H36 C30 1_555 1_555
H37 C30 1_555 1_555
H38 C30 1_555 1_555
N11 C26 1_555 1_555
N10_2 C25_2 1_555 1_555
N13_2 C26_2 1_555 1_555
C26_2 N10_2 1_555 1_555
H30_2 C28_2 1_555 1_555
H32_2 C28_2 1_555 1_555
C29_2 N13_2 1_555 1_555
H33_2 C29_2 1_555 1_555
H34_2 C29_2 1_555 1_555
H35_2 C29_2 1_555 1_555
C30_2 N13_2 1_555 1_555
H36_2 C30_2 1_555 1_555
H37_2 C30_2 1_555 1_555
H38_2 C30_2 1_555 1_555
N11_2 C26_2 1_555 1_555
O4_2 P2_2 1_555 1_555
N9_2 P2_2 1_555 1_555
C22_2 O4_2 1_555 1_555
C23_2 C22_2 1_555 1_555
H25_2 C23_2 1_555 1_555
C27_2 N12_2 1_555 1_555
H27_2 C27_2 1_555 1_555
H28_2 C27_2 1_555 1_555
H29_2 C27_2 1_555 1_555
H40_2 C32_2 1_555 1_555
C23_2 C32_2 1_555 1_555

#END
