
###############################################################################
#
# This file contains modified crystal structure data generated from the
# MOF subset of the Cambridge Structural Database (CSD) v543 
# hosted by the Cambridge Crystallographic Data Centre (CCDC).
#
# This work is licensed under the Creative Commons
# Attribution-NonCommercial-ShareAlike 4.0 International License.
# To view a copy of this license, visit
# http://creativecommons.org/licenses/by-nc-sa/4.0/
# or send a letter to
# Creative Commons, PO Box 1866, Mountain View, CA 94042, USA.
#
# CIF created using the CSD Python API on 29 September 2022
# The structure has been converted into the P1 space group
# The structure has a 3D framework
# The original CSD entry VUQRIL is in the rhombohedral crystal system
# The framework has been calculated to contain at least 10.0% void space
# The void calculation uses a probe of radius 1.32A, grid spacing 0.4
# The framework is charged, counterions have been retained in the structure
#
###############################################################################

data_VUQRIL
_chemical_formula_moiety         '(C1512 H1152 N144 O856 Re72 Zr116 6-)n'
_symmetry_cell_setting           triclinic
_symmetry_space_group_name_H-M   'P 1'
_symmetry_Int_Tables_number      1
_space_group_name_Hall           'P 1'
loop_
_symmetry_equiv_pos_site_id
_symmetry_equiv_pos_as_xyz
1 x,y,z
_cell_length_a                   52.497(7)
_cell_length_b                   52.497(7)
_cell_length_c                   26.100(5)
_cell_angle_alpha                90
_cell_angle_beta                 90
_cell_angle_gamma                120
_cell_volume                     62293.1
loop_
_atom_site_label
_atom_site_type_symbol
_atom_site_fract_x
_atom_site_fract_y
_atom_site_fract_z
Zr1 Zr 0.6667 0.51110(2) 0.0833
Zr2 Zr 0.70817(2) 0.57819(2) 0.14524(2)
Zr3 Zr 0.70131(2) 0.57454(2) 0.00875(2)
Zr4 Zr 0.6667 0.60501(2) 0.0833
O1 O 0.67042(13) 0.53350(12) 0.15803(18)
O2 O 0.70020(13) 0.55487(11) 0.07773(19)
O3 O 0.63825(12) 0.47537(12) 0.13668(18)
O4 O 0.66924(14) 0.57943(13) 0.14049(19)
O5 O 0.49374(13) 0.19337(13) 0.1294(2)
O6 O 0.61520(13) 0.49394(13) 0.1839(2)
O7 O 0.79227(14) 0.76012(15) 0.6048(2)
O8 O 0.45039(13) 0.17802(13) 0.16772(19)
O9 O 0.72517(17) 0.62295(13) 0.1740(2)
O10 O 0.71135(14) 0.60672(13) 0.0739(2)
O11 O 0.76883(15) 0.78551(15) 0.5954(2)
O12 O 0.70030(17) 0.64192(14) 0.1359(2)
O13 O 0.75625(17) 0.60239(15) 0.1341(3)
H1 H 0.7656 0.6061 0.1632
H2 H 0.7618 0.6196 0.1216
O14 O 0.69153(19) 0.64543(18) 0.0363(3)
H3 H 0.6851 0.6580 0.0414
H4 H 0.6882 0.6415 0.0029
N1 N 0.50517(15) 0.33842(15) 0.4291(2)
N2 N 0.54852(18) 0.33337(18) 0.1901(3)
H5 H 0.5340 0.3192 0.1737
H6 H 0.5529 0.3499 0.1754
N3 N 0.76384(19) 0.72804(16) 0.3556(3)
H7 H 0.7601 0.7335 0.3848
H8 H 0.7482 0.7211 0.3365
C1 C 0.60389(18) 0.44543(18) 0.1970(3)
O16 O 0.7508(2) 0.5991(2) 0.0083(5)
H11 H 0.7625 0.6227 0.0063
C2 C 0.47705(18) 0.19595(17) 0.1600(3)
C3 C 0.6122(2) 0.4239(2) 0.1933(3)
H13 H 0.6290 0.4281 0.1748
C4 C 0.52384(19) 0.33393(17) 0.3413(3)
C5 C 0.7876(2) 0.7513(2) 0.3324(3)
C6 C 0.8168(3) 0.7748(2) 0.2558(3)
H14 H 0.8204 0.7743 0.2210
C7 C 0.57017(19) 0.38971(18) 0.2423(3)
C8 C 0.8060(2) 0.77673(19) 0.3615(3)
C9 C 0.5302(2) 0.27026(19) 0.2149(3)
H15 H 0.5504 0.2830 0.2163
C10 C 0.62108(17) 0.47411(18) 0.1704(3)
C11 C 0.54235(18) 0.36025(17) 0.3174(3)
H16 H 0.5484 0.3778 0.3349
C12 C 0.55212(16) 0.36107(17) 0.2678(3)
C13 C 0.54149(18) 0.33384(18) 0.2396(3)
C14 C 0.8357(3) 0.79978(18) 0.2834(3)
C15 C 0.51978(18) 0.2442(2) 0.1893(3)
H17 H 0.5325 0.2393 0.1732
C16 C 0.5141(2) 0.30697(19) 0.3168(3)
H18 H 0.5019 0.2894 0.3336
C17 C 0.5117(2) 0.2784(2) 0.2389(3)
C18 C 0.7928(2) 0.7504(2) 0.2775(3)
C19 C 0.5964(2) 0.3974(2) 0.2157(3)
H19 H 0.6030 0.3840 0.2137
C20 C 0.52312(18) 0.30707(18) 0.2662(3)
C21 C 0.8294(3) 0.8009(2) 0.3358(3)
H20 H 0.8410 0.8182 0.3540
C22 C 0.5628(2) 0.4116(2) 0.2479(4)
H21 H 0.5464 0.4076 0.2673
C23 C 0.78970(19) 0.77574(19) 0.5214(3)
C24 C 0.7748(3) 0.7234(2) 0.2484(3)
C25 C 0.51296(17) 0.33497(18) 0.3911(3)
C26 C 0.8009(2) 0.77754(18) 0.4179(3)
C27 C 0.7186(2) 0.6428(2) 0.1666(3)
C28 C 0.5791(2) 0.4390(2) 0.2257(4)
H22 H 0.5735 0.4531 0.2299
C29 C 0.48844(17) 0.22466(18) 0.1882(3)
C30 C 0.7567(3) 0.7228(2) 0.2093(3)
H23 H 0.7571 0.7402 0.2005
C31 C 0.7836(2) 0.77399(17) 0.5791(3)
C32 C 0.7387(3) 0.67138(19) 0.1946(3)
C33 C 0.7820(4) 0.7911(3) 0.4900(4)
H24 H 0.7737 0.8016 0.5037
C34 C 0.8032(3) 0.7611(3) 0.5029(3)
H25 H 0.8086 0.7506 0.5247
C35 C 0.7734(3) 0.6970(2) 0.2612(4)
H26 H 0.7840 0.6964 0.2893
C36 C 0.4819(3) 0.2585(3) 0.2414(6)
H27 H 0.4691 0.2627 0.2593
C37 C 0.8610(4) 0.8238(3) 0.2612(4)
C38 C 0.4715(3) 0.2310(3) 0.2148(5)
H28 H 0.4517 0.2171 0.2169
C39 C 0.8087(3) 0.7624(3) 0.4496(3)
H29 H 0.8179 0.7527 0.4362
C40 C 0.7372(3) 0.6963(2) 0.1818(3)
H30 H 0.7244 0.6959 0.1567
C41 C 0.7864(4) 0.7913(3) 0.4363(4)
H31 H 0.7796 0.8006 0.4142
C42 C 0.7563(4) 0.6710(3) 0.2329(4)
H32 H 0.7570 0.6541 0.2400
N4 N 0.8816(4) 0.8444(3) 0.2415(4)
Zr5 Zr 0.42181(2) 0.12998(3) 0.14524(2)
Zr6 Zr 0.42546(2) 0.12677(3) 0.00875(2)
O17 O 0.46650(12) 0.13692(18) 0.15803(18)
O18 O 0.44513(11) 0.14533(17) 0.07773(19)
O19 O 0.42057(13) 0.08981(19) 0.14049(19)
O20 O 0.23988(15) 0.03215(21) 0.6048(2)
O21 O 0.37705(13) 0.10222(21) 0.1740(2)
O22 O 0.39328(13) 0.10463(19) 0.0739(2)
O24 O 0.35808(14) 0.05838(22) 0.1359(2)
O25 O 0.39761(15) 0.15386(23) 0.1341(3)
H33 H 0.3939 0.1595 0.1632
H34 H 0.3804 0.1422 0.1216
N5 N 0.27196(16) 0.03580(25) 0.3556(3)
H35 H 0.2665 0.0266 0.3848
H36 H 0.2789 0.0271 0.3365
O27 O 0.4009(2) 0.1517(3) 0.0083(5)
H39 H 0.3773 0.1398 0.0063
C43 C 0.2487(2) 0.0363(3) 0.3324(3)
C44 C 0.2252(2) 0.0420(4) 0.2558(3)
H41 H 0.2257 0.0461 0.2210
C45 C 0.22327(19) 0.02927(28) 0.3615(3)
C46 C 0.20022(18) 0.03592(35) 0.2834(3)
C47 C 0.2496(2) 0.0424(3) 0.2775(3)
C48 C 0.1991(2) 0.0285(4) 0.3358(3)
H42 H 0.1818 0.0228 0.3540
C49 C 0.22426(19) 0.01396(27) 0.5214(3)
C50 C 0.2766(2) 0.0514(4) 0.2484(3)
C51 C 0.22246(18) 0.02336(27) 0.4179(3)
C52 C 0.3572(2) 0.0758(3) 0.1666(3)
C53 C 0.2772(2) 0.0339(4) 0.2093(3)
H43 H 0.2598 0.0169 0.2005
C54 C 0.22601(17) 0.00961(26) 0.5791(3)
C55 C 0.32862(19) 0.06732(36) 0.1946(3)
C57 C 0.2389(3) 0.0421(4) 0.5029(3)
H45 H 0.2494 0.0580 0.5247
C58 C 0.3030(2) 0.0764(4) 0.2612(4)
H46 H 0.3036 0.0876 0.2893
C59 C 0.1762(3) 0.0372(5) 0.2612(4)
C60 C 0.2376(3) 0.0463(4) 0.4496(3)
H47 H 0.2473 0.0652 0.4362
C61 C 0.3037(2) 0.0409(4) 0.1818(3)
H48 H 0.3041 0.0285 0.1567
C63 C 0.3290(3) 0.0853(5) 0.2329(4)
H50 H 0.3459 0.1029 0.2400
N6 N 0.1556(3) 0.0372(5) 0.2415(4)
O28 O 0.69508(12) 0.50379(17) 0.02999(18)
O29 O 0.83959(13) 0.36630(18) 0.0373(2)
C65 C 0.85628(18) 0.38557(25) 0.0067(3)
O32 O 0.64180(19) 0.62057(26) 0.1304(3)
H63 H 0.6482 0.6396 0.1253
H64 H 0.6451 0.6200 0.1638
Zr7 Zr 0.48890(2) 0.15560(2) 0.0833
Zr8 Zr 0.84440(2) 0.3333 0.0833
Zr9 Zr 0.24486(2) 0.04150(2) 0.68809(2)
Zr10 Zr 0.79665(3) 0.75514(2) 0.68809(2)
Zr11 Zr 0.91152(2) 0.37484(2) 0.02143(2)
Zr12 Zr 0.75879(2) 0.79344(3) 0.67542(2)
Zr14 Zr 0.46010(3) 0.09213(2) 0.15792(2)
Zr15 Zr 0.63202(2) 0.53990(3) 0.15792(2)
Zr16 Zr 0.39499(2) 0.06169(2) 0.0833
O33 O 0.47025(18) 0.13317(12) 0.00864(18)
O34 O 0.66291(13) 0.52975(18) 0.00864(18)
O35 O 0.63313(13) 0.52134(17) 0.08894(19)
O36 O 0.42314(19) 0.08724(13) 0.02618(19)
O37 O 0.66409(14) 0.57686(19) 0.02618(19)
O38 O 0.69963(18) 0.50626(13) 0.1294(2)
O39 O 0.63370(18) 0.47330(13) 0.0373(2)
O41 O 0.42679(15) 0.12560(14) 0.2285(2)
O42 O 0.69882(21) 0.57321(15) 0.2285(2)
O43 O 0.72763(18) 0.54961(13) 0.16772(19)
O44 O 0.62198(14) 0.56204(19) 0.0928(2)
O47 O 0.63303(17) 0.60829(22) 0.0308(2)
O23 O 0.21449(15) 0.98332(21) 0.5954(2)
C56 C 0.2089(3) 0.9909(5) 0.4900(4)
H44 H 0.1984 0.9721 0.5037
C62 C 0.2087(3) 0.9951(5) 0.4363(4)
H49 H 0.1994 0.9790 0.4142
Zr13 Zr 0.20656(3) 0.96536(2) 0.67542(2)
O23_2 O 0.01668(21) 0.23117(26) 0.5954(2)
C56_2 C 0.0091(5) 0.2180(6) 0.4900(4)
H44_2 H 0.0279 0.2263 0.5037
C62_2 C 0.0049(5) 0.2136(6) 0.4363(4)
H49_2 H 0.0210 0.2204 0.4142
Zr13_2 Zr 0.03464(2) 0.24121(4) 0.67542(2)
O3_2 O 0.52463(12) 0.16288(17) 0.13668(18)
O5_2 O 0.80663(13) 0.30037(18) 0.1294(2)
O6_2 O 0.50606(13) 0.12126(18) 0.1839(2)
O8_2 O 0.82198(13) 0.27237(18) 0.16772(19)
O14_2 O 0.35457(18) 0.04610(26) 0.0363(3)
H3_2 H 0.3420 0.0271 0.0414
H4_2 H 0.3585 0.0467 0.0029
N1_2 N 0.66158(15) 0.16675(21) 0.4291(2)
N2_2 N 0.66663(18) 0.21515(25) 0.1901(3)
H5_2 H 0.6808 0.2148 0.1737
H6_2 H 0.6501 0.2030 0.1754
C1_2 C 0.55457(18) 0.15846(25) 0.1970(3)
C2_2 C 0.80405(17) 0.28110(25) 0.1600(3)
C3_2 C 0.5761(2) 0.1883(3) 0.1933(3)
H13_2 H 0.5719 0.2009 0.1748
C4_2 C 0.66607(17) 0.18991(25) 0.3413(3)
C7_2 C 0.61029(18) 0.18046(26) 0.2423(3)
C9_2 C 0.72974(19) 0.25994(28) 0.2149(3)
H15_2 H 0.7170 0.2674 0.2163
C10_2 C 0.52589(18) 0.14697(25) 0.1704(3)
C11_2 C 0.63975(17) 0.18210(25) 0.3174(3)
H16_2 H 0.6222 0.1706 0.3349
C12_2 C 0.63893(17) 0.19105(23) 0.2678(3)
C13_2 C 0.66616(18) 0.20765(25) 0.2396(3)
C15_2 C 0.7558(2) 0.27558(27) 0.1893(3)
H17_2 H 0.7607 0.2932 0.1732
C16_2 C 0.69303(19) 0.20713(28) 0.3168(3)
H18_2 H 0.7106 0.2125 0.3336
C17_2 C 0.7216(2) 0.2333(3) 0.2389(3)
C19_2 C 0.6026(2) 0.1990(3) 0.2157(3)
H19_2 H 0.6160 0.2190 0.2137
C20_2 C 0.69293(18) 0.21605(25) 0.2662(3)
C22_2 C 0.5884(2) 0.1512(3) 0.2479(4)
H21_2 H 0.5924 0.1388 0.2673
C25_2 C 0.66503(18) 0.17799(25) 0.3911(3)
C28_2 C 0.5610(2) 0.1401(3) 0.2257(4)
H22_2 H 0.5469 0.1204 0.2299
C29_2 C 0.77534(18) 0.26378(25) 0.1882(3)
C36_2 C 0.7415(3) 0.2234(4) 0.2414(6)
H27_2 H 0.7373 0.2064 0.2593
C38_2 C 0.7690(3) 0.2405(4) 0.2148(5)
H28_2 H 0.7829 0.2346 0.2169
Zr5_2 Zr 0.87002(3) 0.29183(4) 0.14524(2)
Zr6_2 Zr 0.87323(3) 0.29869(4) 0.00875(2)
O17_2 O 0.86308(18) 0.32958(22) 0.15803(18)
O18_2 O 0.85467(17) 0.29980(20) 0.07773(19)
O19_2 O 0.91019(19) 0.33076(23) 0.14049(19)
O20_2 O 0.96785(21) 0.20773(26) 0.6048(2)
O21_2 O 0.89778(21) 0.27483(25) 0.1740(2)
O22_2 O 0.89537(19) 0.28865(23) 0.0739(2)
O24_2 O 0.94162(22) 0.29970(26) 0.1359(2)
O25_2 O 0.84614(23) 0.24375(27) 0.1341(3)
H33_2 H 0.8405 0.2344 0.1632
H34_2 H 0.8578 0.2382 0.1216
N5_2 N 0.96420(25) 0.23616(30) 0.3556(3)
H35_2 H 0.9734 0.2399 0.3848
H36_2 H 0.9729 0.2518 0.3365
O27_2 O 0.8483(3) 0.2492(4) 0.0083(5)
H39_2 H 0.8602 0.2375 0.0063
C43_2 C 0.9637(3) 0.2124(4) 0.3324(3)
C44_2 C 0.9580(4) 0.1832(4) 0.2558(3)
H41_2 H 0.9539 0.1796 0.2210
C45_2 C 0.97073(28) 0.19400(34) 0.3615(3)
C46_2 C 0.96408(35) 0.16430(39) 0.2834(3)
C47_2 C 0.9576(3) 0.2072(4) 0.2775(3)
C48_2 C 0.9715(4) 0.1706(4) 0.3358(3)
H42_2 H 0.9772 0.1590 0.3540
C49_2 C 0.98604(27) 0.21030(33) 0.5214(3)
C50_2 C 0.9486(4) 0.2252(4) 0.2484(3)
C51_2 C 0.97664(27) 0.19910(32) 0.4179(3)
C52_2 C 0.9242(3) 0.2814(4) 0.1666(3)
C53_2 C 0.9661(4) 0.2433(4) 0.2093(3)
H43_2 H 0.9831 0.2429 0.2005
C54_2 C 0.99039(26) 0.21640(31) 0.5791(3)
C55_2 C 0.93268(36) 0.26130(41) 0.1946(3)
C57_2 C 0.9579(4) 0.1968(5) 0.5029(3)
H45_2 H 0.9420 0.1914 0.5247
C58_2 C 0.9236(4) 0.2266(4) 0.2612(4)
H46_2 H 0.9124 0.2160 0.2893
C59_2 C 0.9628(5) 0.1390(6) 0.2612(4)
C60_2 C 0.9537(4) 0.1913(5) 0.4496(3)
H47_2 H 0.9348 0.1821 0.4362
C61_2 C 0.9591(4) 0.2628(4) 0.1818(3)
H48_2 H 0.9715 0.2756 0.1567
C63_2 C 0.9147(5) 0.2437(6) 0.2329(4)
H50_2 H 0.8971 0.2430 0.2400
N6_2 N 0.9628(5) 0.1184(6) 0.2415(4)
O28_2 O 0.49621(17) 0.19130(21) 0.02999(18)
C65_2 C 0.61443(25) 0.47072(31) 0.0067(3)
O32_2 O 0.37943(26) 0.02124(32) 0.1304(3)
H63_2 H 0.3604 0.0087 0.1253
H64_2 H 0.3800 0.0252 0.1638
Zr9_2 Zr 0.95850(2) 0.20335(3) 0.68809(2)
Zr11_2 Zr 0.62516(2) 0.53669(3) 0.02143(2)
Zr14_2 Zr 0.90787(2) 0.36798(4) 0.15792(2)
Zr16_2 Zr 0.93831(2) 0.33330(3) 0.0833
O33_2 O 0.86683(12) 0.33709(22) 0.00864(18)
O35_2 O 0.47866(17) 0.11180(21) 0.08894(19)
O36_2 O 0.91276(13) 0.33591(23) 0.02618(19)
O39_2 O 0.52670(13) 0.16041(22) 0.0373(2)
O41_2 O 0.87440(14) 0.30118(21) 0.2285(2)
O44_2 O 0.43796(19) 0.05995(24) 0.0928(2)
O47_2 O 0.39171(22) 0.02475(28) 0.0308(2)
O3_3 O 0.83712(17) 0.36175(12) 0.13668(18)
O6_3 O 0.87874(18) 0.38480(13) 0.1839(2)
O14_3 O 0.95390(26) 0.30847(19) 0.0363(3)
H3_3 H 0.9729 0.3149 0.0414
H4_3 H 0.9533 0.3118 0.0029
N1_3 N 0.83325(21) 0.49483(15) 0.4291(2)
N2_3 N 0.78485(25) 0.45148(18) 0.1901(3)
H5_3 H 0.7852 0.4660 0.1737
H6_3 H 0.7970 0.4471 0.1754
C1_3 C 0.84154(25) 0.39611(18) 0.1970(3)
C2_3 C 0.71890(25) 0.52295(18) 0.1600(3)
C3_3 C 0.8117(3) 0.3878(2) 0.1933(3)
H13_3 H 0.7991 0.3710 0.1748
C4_3 C 0.81009(25) 0.47616(19) 0.3413(3)
C7_3 C 0.81954(26) 0.42983(19) 0.2423(3)
C9_3 C 0.74006(28) 0.4698(2) 0.2149(3)
H15_3 H 0.7326 0.4496 0.2163
C10_3 C 0.85303(25) 0.37892(17) 0.1704(3)
C11_3 C 0.81790(25) 0.45765(18) 0.3174(3)
H16_3 H 0.8294 0.4516 0.3349
C12_3 C 0.80895(23) 0.44788(16) 0.2678(3)
C13_3 C 0.79235(25) 0.45851(18) 0.2396(3)
C15_3 C 0.72442(27) 0.48022(18) 0.1893(3)
H17_3 H 0.7068 0.4675 0.1732
C16_3 C 0.79287(28) 0.4859(2) 0.3168(3)
H18_3 H 0.7875 0.4981 0.3336
C17_3 C 0.7667(3) 0.4883(2) 0.2389(3)
C19_3 C 0.8010(3) 0.4036(2) 0.2157(3)
H19_3 H 0.7810 0.3970 0.2137
C20_3 C 0.78395(25) 0.47688(18) 0.2662(3)
C22_3 C 0.8488(3) 0.4372(2) 0.2479(4)
H21_3 H 0.8612 0.4536 0.2673
C25_3 C 0.82201(25) 0.48704(17) 0.3911(3)
C28_3 C 0.8599(3) 0.4209(2) 0.2257(4)
H22_3 H 0.8796 0.4265 0.2299
C29_3 C 0.73622(25) 0.51156(17) 0.1882(3)
C36_3 C 0.7766(4) 0.5181(3) 0.2414(6)
H27_3 H 0.7936 0.5309 0.2593
C38_3 C 0.7595(4) 0.5285(3) 0.2148(5)
H28_3 H 0.7654 0.5483 0.2169
O28_3 O 0.80870(21) 0.30492(12) 0.02999(18)
C65_3 C 0.52928(31) 0.14372(18) 0.0067(3)
O32_3 O 0.97876(32) 0.35820(19) 0.1304(3)
H63_3 H 0.9913 0.3518 0.1253
H64_3 H 0.9748 0.3549 0.1638
Zr11_3 Zr 0.46331(3) 0.08848(2) 0.02143(2)
O35_3 O 0.88820(21) 0.36687(13) 0.08894(19)
O44_3 O 0.94005(24) 0.37802(14) 0.0928(2)
O47_3 O 0.97525(28) 0.36697(17) 0.0308(2)
O7_2 O 0.76012(15) 0.79227(14) 0.8952(2)
O11_2 O 0.78551(15) 0.76883(15) 0.9046(2)
C23_2 C 0.77574(19) 0.78970(19) 0.9786(3)
C31_2 C 0.77399(17) 0.7836(2) 0.9209(3)
H24_2 H 0.8016 0.7737 0.9963
C34_2 C 0.7611(3) 0.8032(3) 0.9971(3)
H25_2 H 0.7506 0.8086 0.9753
O20_3 O 0.03215(21) 0.23988(15) 0.8952(2)
C49_3 C 0.01396(27) 0.22426(19) 0.9786(3)
C54_3 C 0.00961(26) 0.22601(17) 0.9209(3)
C57_3 C 0.0421(4) 0.2389(3) 0.9971(3)
H45_3 H 0.0580 0.2494 0.9753
Zr9_3 Zr 0.04150(2) 0.24486(2) 0.81191(2)
Zr10_2 Zr 0.75514(2) 0.79665(3) 0.81191(2)
Zr12_2 Zr 0.79344(3) 0.75879(2) 0.82458(2)
O23_3 O 0.98332(21) 0.21449(15) 0.9046(2)
H44_3 H 0.9721 0.1984 0.9963
Zr13_3 Zr 0.96536(2) 0.20656(3) 0.82458(2)
O23_4 O 0.23117(26) 0.01668(21) 0.9046(2)
H44_4 H 0.2263 0.0279 0.9963
Zr13_4 Zr 0.24121(4) 0.03464(2) 0.82458(2)
O20_4 O 0.20773(26) 0.96785(21) 0.8952(2)
C49_4 C 0.21030(33) 0.98604(27) 0.9786(3)
C54_4 C 0.21640(31) 0.99039(26) 0.9209(3)
C57_4 C 0.1968(5) 0.9579(4) 0.9971(3)
H45_4 H 0.1914 0.9420 0.9753
Zr9_4 Zr 0.20335(3) 0.95850(2) 0.81191(2)
Zr1_2 Zr 0.17777(2) 0.0000 0.7500
Zr4_2 Zr 0.27168(2) 0.0000 0.7500
O1_2 O 0.20017(12) 0.00375(13) 0.67530(18)
O2_2 O 0.22154(11) 0.03353(13) 0.75560(19)
O4_2 O 0.24610(13) 0.00257(14) 0.69284(19)
O9_2 O 0.28962(13) 0.05850(17) 0.6593(2)
O10_2 O 0.27339(13) 0.04468(14) 0.7594(2)
O11_3 O 0.45218(15) 0.10216(15) 0.2379(2)
O12_2 O 0.30859(14) 0.03363(17) 0.6974(2)
O13_2 O 0.26906(15) 0.08958(17) 0.6992(3)
H1_2 H 0.2728 0.0989 0.6701
H2_2 H 0.2863 0.0951 0.7117
O14_4 O 0.31210(18) 0.02486(19) 0.7970(3)
H3_4 H 0.3247 0.0184 0.7919
H4_4 H 0.3082 0.0215 0.8304
N3_2 N 0.39471(16) 0.09717(19) 0.4777(3)
H7_2 H 0.4002 0.0934 0.4485
H8_2 H 0.3878 0.0815 0.4968
O15 O 0.28406(19) 0.0513(3) 0.8652(3)
H9 H 0.2828 0.0520 0.9005
H10 H 0.2973 0.0707 0.8579
O16_2 O 0.2658(2) 0.0841(2) 0.8250(5)
H11_2 H 0.2894 0.0958 0.8270
H12 H 0.2632 0.0956 0.8569
C5_2 C 0.4180(2) 0.1209(2) 0.5009(3)
C6_2 C 0.4415(2) 0.1501(3) 0.5775(3)
H14_2 H 0.4410 0.1537 0.6123
C8_2 C 0.44340(19) 0.1393(2) 0.4718(3)
C14_2 C 0.46645(18) 0.1690(3) 0.5499(3)
C18_2 C 0.4171(2) 0.1261(2) 0.5558(3)
C21_2 C 0.4676(2) 0.1627(3) 0.4975(3)
H20_2 H 0.4849 0.1743 0.4793
C23_3 C 0.44241(19) 0.12303(19) 0.3119(3)
C24_2 C 0.3901(2) 0.1081(3) 0.5849(3)
C26_2 C 0.44421(18) 0.1342(2) 0.4154(3)
C27_2 C 0.3095(2) 0.0519(2) 0.6667(3)
C30_2 C 0.3895(2) 0.0900(3) 0.6240(3)
H23_2 H 0.4069 0.0904 0.6328
C31_3 C 0.44066(17) 0.1169(2) 0.2542(3)
C32_2 C 0.33805(19) 0.0720(3) 0.6387(3)
C33_2 C 0.4578(3) 0.1153(4) 0.3433(4)
H24_3 H 0.4683 0.1070 0.3296
C34_3 C 0.4278(3) 0.1365(3) 0.3304(3)
H25_3 H 0.4173 0.1419 0.3086
C35_2 C 0.3637(2) 0.1067(3) 0.5721(4)
H26_2 H 0.3631 0.1173 0.5440
C37_2 C 0.4905(3) 0.1943(4) 0.5721(4)
C39_2 C 0.4291(3) 0.1420(3) 0.3837(3)
H29_2 H 0.4194 0.1512 0.3971
C40_2 C 0.3630(2) 0.0705(3) 0.6515(3)
H30_2 H 0.3626 0.0577 0.6766
C41_2 C 0.4580(3) 0.1197(4) 0.3970(4)
H31_2 H 0.4673 0.1129 0.4191
C42_2 C 0.3377(3) 0.0896(4) 0.6004(4)
H32_2 H 0.3208 0.0903 0.5933
N4_2 N 0.5111(3) 0.2149(4) 0.5918(4)
O28_4 O 0.17045(17) 0.02842(12) 0.80335(18)
O29_2 O 0.03296(18) 0.17293(13) 0.7961(2)
O30 O 0.21207(18) 0.05147(13) 0.8506(2)
O31 O 0.06096(18) 0.21628(13) 0.83439(19)
N8 N 0.11818(25) 0.11815(18) 0.8568(3)
H51 H 0.1185 0.1327 0.8404
H52 H 0.1303 0.1138 0.8421
C64 C 0.17487(25) 0.06278(18) 0.8637(3)
C65_4 C 0.05223(25) 0.18962(18) 0.8267(3)
C66 C 0.1450(3) 0.0545(2) 0.8600(3)
H53 H 0.1324 0.0377 0.8415
C68 C 0.15287(26) 0.09650(19) 0.9090(3)
C69 C 0.07339(28) 0.1365(2) 0.8816(3)
H54 H 0.0659 0.1163 0.8830
C70 C 0.18636(25) 0.04559(17) 0.8371(3)
C71 C 0.15123(25) 0.12432(18) 0.9841(3)
C72 C 0.14228(23) 0.11455(16) 0.9345(3)
C73 C 0.12568(25) 0.12518(18) 0.9063(3)
C74 C 0.05775(27) 0.14689(18) 0.8560(3)
H56 H 0.0401 0.1342 0.8399
C75 C 0.12620(28) 0.1526(2) 0.9835(3)
C76 C 0.1000(3) 0.1550(2) 0.9056(3)
C77 C 0.1343(3) 0.0703(2) 0.8824(3)
H58 H 0.1143 0.0637 0.8804
C78 C 0.11728(25) 0.14355(18) 0.9329(3)
C79 C 0.1821(3) 0.1039(2) 0.9146(4)
H59 H 0.1945 0.1203 0.9340
C81 C 0.1932(3) 0.0876(2) 0.8924(4)
H60 H 0.2129 0.0932 0.8966
C82 C 0.06955(25) 0.17823(17) 0.8549(3)
C83 C 0.1099(4) 0.1848(3) 0.9081(6)
H61 H 0.1269 0.1976 0.9260
C84 C 0.0928(4) 0.1952(3) 0.8815(5)
H62 H 0.0987 0.2150 0.8836
O38_2 O 0.17293(13) 0.03296(18) 0.7039(2)
O43_2 O 0.21628(13) 0.06096(18) 0.66561(19)
O3_4 O 0.14204(12) 0.97158(12) 0.69665(18)
O6_4 O 0.16061(13) 0.94853(13) 0.6494(2)
N1_4 N 0.00509(15) 0.83850(15) 0.4042(2)
N2_4 N 0.00004(18) 0.88185(18) 0.6432(3)
H6_4 H 0.0166 0.8862 0.6579
C1_4 C 0.11210(18) 0.93722(18) 0.6363(3)
C3_4 C 0.0906(2) 0.9455(2) 0.6400(3)
H13_4 H 0.0948 0.9623 0.6585
C4_4 C 0.00060(17) 0.85717(19) 0.4920(3)
C7_4 C 0.05638(18) 0.90350(19) 0.5910(3)
C10_4 C 0.14078(18) 0.95441(17) 0.6629(3)
C11_4 C 0.02692(17) 0.87568(18) 0.5159(3)
H16_4 H 0.0445 0.8817 0.4984
C12_4 C 0.02774(17) 0.88545(16) 0.5655(3)
C13_4 C 0.00051(18) 0.87482(18) 0.5937(3)
C19_4 C 0.0641(2) 0.9297(2) 0.6176(3)
H19_4 H 0.0507 0.9363 0.6196
C22_4 C 0.0783(2) 0.8961(2) 0.5854(4)
H21_4 H 0.0743 0.8797 0.5660
C25_4 C 0.00164(18) 0.84629(17) 0.4422(3)
C28_4 C 0.1057(2) 0.9124(2) 0.6076(4)
H22_4 H 0.1198 0.9068 0.6034
O32_4 O 0.28723(26) 0.97514(19) 0.7030(3)
H63_4 H 0.3062 0.9816 0.7081
H64_4 H 0.2866 0.9785 0.6696
O34_2 O 0.19641(18) 0.99625(13) 0.82470(18)
O35_4 O 0.18800(17) 0.96647(13) 0.74440(19)
O37_2 O 0.24352(19) 0.99743(14) 0.80716(19)
O39_3 O 0.13996(13) 0.96704(18) 0.7961(2)
O44_4 O 0.22870(19) 0.95532(14) 0.7406(2)
O47_4 O 0.27495(22) 0.96637(17) 0.8026(2)
Zr8_2 Zr 1.0000 0.17773(2) 0.7500
O5_3 O 0.86004(13) 0.82707(13) 0.7039(2)
O8_3 O 0.84469(13) 0.78372(13) 0.66561(19)
H5_4 H 0.9859 0.8673 0.6596
C2_4 C 0.86262(17) 0.81038(18) 0.6733(3)
C9_4 C 0.93693(19) 0.8635(2) 0.6184(3)
H15_4 H 0.9497 0.8837 0.6170
C15_4 C 0.9109(2) 0.85311(18) 0.6440(3)
H17_4 H 0.9060 0.8658 0.6601
C16_4 C 0.97364(19) 0.8474(2) 0.5165(3)
H18_4 H 0.9561 0.8352 0.4997
C17_4 C 0.9451(2) 0.8450(2) 0.5944(3)
C20_4 C 0.97374(18) 0.85645(18) 0.5671(3)
C29_4 C 0.89133(18) 0.82177(17) 0.6451(3)
C36_4 C 0.9252(3) 0.8152(3) 0.5919(6)
H27_4 H 0.9294 0.8024 0.5740
C38_4 C 0.8977(3) 0.8048(3) 0.6185(5)
H28_4 H 0.8838 0.7850 0.6164
O17_3 O 0.80359(18) 0.79983(12) 0.67530(18)
O18_3 O 0.81200(17) 0.77846(11) 0.75560(19)
O19_3 O 0.75648(19) 0.75390(13) 0.69284(19)
O21_3 O 0.76889(21) 0.71038(13) 0.6593(2)
O22_3 O 0.77130(19) 0.72661(13) 0.7594(2)
O23_5 O 0.64999(21) 0.54782(15) 0.2379(2)
O24_3 O 0.72505(22) 0.69141(14) 0.6974(2)
O25_3 O 0.82053(23) 0.73094(15) 0.6992(3)
H33_3 H 0.8262 0.7272 0.6701
H34_3 H 0.8089 0.7137 0.7117
N5_3 N 0.70247(25) 0.60529(16) 0.4777(3)
H35_3 H 0.6933 0.5998 0.4485
H36_3 H 0.6938 0.6122 0.4968
O26 O 0.76728(36) 0.71594(19) 0.8652(3)
H37 H 0.7693 0.7172 0.9005
H38 H 0.7735 0.7027 0.8579
O27_3 O 0.8184(3) 0.7342(2) 0.8250(5)
H39_3 H 0.8065 0.7106 0.8270
H40 H 0.8325 0.7368 0.8569
C43_3 C 0.7030(3) 0.5820(2) 0.5009(3)
C44_3 C 0.7087(4) 0.5585(2) 0.5775(3)
H41_3 H 0.7128 0.5590 0.6123
C45_3 C 0.69594(28) 0.55660(19) 0.4718(3)
C46_3 C 0.70259(35) 0.53355(18) 0.5499(3)
C47_3 C 0.7091(3) 0.5829(2) 0.5558(3)
C48_3 C 0.6952(4) 0.5324(2) 0.4975(3)
H42_3 H 0.6895 0.5151 0.4793
C49_5 C 0.68063(27) 0.55759(19) 0.3119(3)
C50_3 C 0.7181(4) 0.6099(2) 0.5849(3)
C51_3 C 0.69003(27) 0.55579(18) 0.4154(3)
C52_3 C 0.7425(3) 0.6905(2) 0.6667(3)
C53_3 C 0.7006(4) 0.6105(2) 0.6240(3)
H43_3 H 0.6836 0.5931 0.6328
C54_5 C 0.67628(26) 0.55934(17) 0.2542(3)
C55_3 C 0.73399(36) 0.66195(19) 0.6387(3)
C56_3 C 0.6576(5) 0.5422(3) 0.3433(4)
H44_5 H 0.6388 0.5317 0.3296
C57_5 C 0.7088(4) 0.5722(3) 0.3304(3)
H45_5 H 0.7247 0.5827 0.3086
C58_3 C 0.7431(4) 0.6363(2) 0.5721(4)
H46_3 H 0.7543 0.6369 0.5440
C59_3 C 0.7039(5) 0.5095(3) 0.5721(4)
C60_3 C 0.7130(4) 0.5709(3) 0.3837(3)
H47_3 H 0.7319 0.5806 0.3971
C61_3 C 0.7076(4) 0.6370(2) 0.6515(3)
H48_3 H 0.6952 0.6374 0.6766
C62_3 C 0.6618(5) 0.5420(3) 0.3970(4)
H49_3 H 0.6457 0.5327 0.4191
C63_3 C 0.7520(5) 0.6623(3) 0.6004(4)
H50_3 H 0.7696 0.6792 0.5933
N6_3 N 0.7039(5) 0.4889(3) 0.5918(4)
Zr7_2 Zr 0.82227(2) 0.82223(2) 0.7500
Zr16_3 Zr 0.72836(2) 0.72832(2) 0.7500
O33_3 O 0.79983(12) 0.80359(18) 0.82470(18)
O36_3 O 0.75390(13) 0.75648(19) 0.80716(19)
O40 O 0.83939(13) 0.78793(18) 0.8506(2)
O33_4 O 0.00375(22) 0.20017(12) 0.82470(18)
O36_4 O 0.00257(23) 0.24610(13) 0.80716(19)
O31_2 O 0.15531(22) 0.93904(18) 0.83439(19)
H51_2 H 0.0141 0.8815 0.8404
C65_5 C 0.13738(31) 0.94777(25) 0.8267(3)
C69_2 C 0.06307(34) 0.92661(28) 0.8816(3)
H54_2 H 0.0503 0.9341 0.8830
C74_2 C 0.08913(32) 0.94225(27) 0.8560(3)
H56_2 H 0.0940 0.9599 0.8399
C75_2 C 0.02636(34) 0.87380(28) 0.9835(3)
C76_2 C 0.0549(4) 0.9000(3) 0.9056(3)
C78_2 C 0.02626(31) 0.88272(25) 0.9329(3)
C82_2 C 0.10867(30) 0.93045(25) 0.8549(3)
C83_2 C 0.0748(5) 0.8901(4) 0.9081(6)
H61_2 H 0.0706 0.8731 0.9260
C84_2 C 0.1023(5) 0.9072(4) 0.8815(5)
H62_2 H 0.1162 0.9013 0.8836
O5_4 O 0.96704(18) 0.13996(13) 0.7039(2)
O8_4 O 0.93904(18) 0.15531(13) 0.66561(19)
H5_5 H 0.8815 0.0141 0.6596
C2_5 C 0.94777(25) 0.13738(17) 0.6733(3)
C9_5 C 0.92661(28) 0.06307(19) 0.6184(3)
H15_5 H 0.9341 0.0503 0.6170
C15_5 C 0.94225(27) 0.0891(2) 0.6440(3)
H17_5 H 0.9599 0.0940 0.6601
C16_5 C 0.87380(28) 0.02636(19) 0.5165(3)
H18_5 H 0.8792 0.0439 0.4997
C17_5 C 0.9000(3) 0.0549(2) 0.5944(3)
C20_5 C 0.88272(25) 0.02626(18) 0.5671(3)
C29_5 C 0.93045(25) 0.10867(18) 0.6451(3)
C36_5 C 0.8901(4) 0.0748(3) 0.5919(6)
H27_5 H 0.8731 0.0706 0.5740
C38_5 C 0.9072(4) 0.1023(3) 0.6185(5)
H28_5 H 0.9013 0.1162 0.6164
O17_4 O 0.99625(22) 0.19641(18) 0.67530(18)
O18_4 O 0.96647(20) 0.18800(17) 0.75560(19)
O19_4 O 0.99743(23) 0.24352(19) 0.69284(19)
O21_4 O 0.94150(25) 0.23111(21) 0.6593(2)
O22_4 O 0.95532(23) 0.22870(19) 0.7594(2)
O23_6 O 0.89784(26) 0.35001(21) 0.2379(2)
O24_4 O 0.96637(26) 0.27495(22) 0.6974(2)
O25_4 O 0.91042(27) 0.17947(23) 0.6992(3)
H33_4 H 0.9011 0.1738 0.6701
H34_4 H 0.9049 0.1911 0.7117
N5_4 N 0.90283(30) 0.29753(25) 0.4777(3)
H35_4 H 0.9066 0.3067 0.4485
H36_4 H 0.9185 0.3062 0.4968
O26_2 O 0.94867(41) 0.23272(36) 0.8652(3)
H37_2 H 0.9480 0.2307 0.9005
H38_2 H 0.9293 0.2265 0.8579
O27_4 O 0.9159(4) 0.1816(3) 0.8250(5)
H39_4 H 0.9042 0.1935 0.8270
H40_2 H 0.9044 0.1675 0.8569
C43_4 C 0.8791(4) 0.2970(3) 0.5009(3)
C44_4 C 0.8499(4) 0.2913(4) 0.5775(3)
H41_4 H 0.8463 0.2872 0.6123
C45_4 C 0.86067(34) 0.30406(28) 0.4718(3)
C46_4 C 0.83097(39) 0.29741(35) 0.5499(3)
C47_4 C 0.8739(4) 0.2909(3) 0.5558(3)
C48_4 C 0.8373(4) 0.3048(4) 0.4975(3)
H42_4 H 0.8257 0.3105 0.4793
C49_6 C 0.87697(33) 0.31937(27) 0.3119(3)
C50_4 C 0.8919(4) 0.2819(4) 0.5849(3)
C51_4 C 0.86577(32) 0.30997(27) 0.4154(3)
C52_4 C 0.9481(4) 0.2575(3) 0.6667(3)
C53_4 C 0.9100(4) 0.2994(4) 0.6240(3)
H43_4 H 0.9096 0.3164 0.6328
C54_6 C 0.88307(31) 0.32372(26) 0.2542(3)
C55_4 C 0.92797(41) 0.26601(36) 0.6387(3)
C56_4 C 0.8847(6) 0.3424(5) 0.3433(4)
H44_6 H 0.8930 0.3612 0.3296
C57_6 C 0.8635(5) 0.2912(4) 0.3304(3)
H45_6 H 0.8581 0.2753 0.3086
C58_4 C 0.8933(4) 0.2569(4) 0.5721(4)
H46_4 H 0.8827 0.2457 0.5440
C59_4 C 0.8057(6) 0.2961(5) 0.5721(4)
C60_4 C 0.8580(5) 0.2870(4) 0.3837(3)
H47_4 H 0.8488 0.2681 0.3971
C61_4 C 0.9295(4) 0.2924(4) 0.6515(3)
H48_4 H 0.9423 0.3048 0.6766
C62_4 C 0.8803(6) 0.3382(5) 0.3970(4)
H49_4 H 0.8871 0.3543 0.4191
C63_4 C 0.9104(6) 0.2480(5) 0.6004(4)
H50_4 H 0.9097 0.2304 0.5933
N6_4 N 0.7851(6) 0.2961(5) 0.5918(4)
Zr16_4 Zr 0.99997(3) 0.27164(2) 0.7500
O40_2 O 0.94853(22) 0.16061(13) 0.8506(2)
O3_5 O 0.82955(17) 0.85796(12) 0.69665(18)
O6_5 O 0.78793(18) 0.83939(13) 0.6494(2)
O14_5 O 0.71277(26) 0.68790(18) 0.7970(3)
H3_5 H 0.6938 0.6753 0.7919
H4_5 H 0.7134 0.6918 0.8304
N1_5 N 0.83342(21) 0.99491(15) 0.4042(2)
N2_5 N 0.88182(25) 0.99996(18) 0.6432(3)
H6_5 H 0.8697 0.9834 0.6579
C1_5 C 0.82513(25) 0.88790(18) 0.6363(3)
C3_5 C 0.8550(3) 0.9094(2) 0.6400(3)
H13_5 H 0.8676 0.9052 0.6585
C4_5 C 0.85658(25) 0.99940(17) 0.4920(3)
C7_5 C 0.84713(26) 0.94362(18) 0.5910(3)
C10_5 C 0.81364(25) 0.85922(18) 0.6629(3)
C11_5 C 0.84877(25) 0.97308(17) 0.5159(3)
H16_5 H 0.8373 0.9555 0.4984
C12_5 C 0.85772(23) 0.97226(17) 0.5655(3)
C13_5 C 0.87432(25) 0.99949(18) 0.5937(3)
C19_5 C 0.8657(3) 0.9359(2) 0.6176(3)
H19_5 H 0.8857 0.9493 0.6196
C22_5 C 0.8179(3) 0.9217(2) 0.5854(4)
H21_5 H 0.8055 0.9257 0.5660
C25_5 C 0.84466(25) 0.99836(18) 0.4422(3)
C28_5 C 0.8068(3) 0.8943(2) 0.6076(4)
H22_5 H 0.7871 0.8802 0.6034
O28_5 O 0.85796(21) 0.82955(17) 0.80335(18)
N8_2 N 0.99996(31) 0.88182(25) 0.8568(3)
H52_2 H 0.9834 0.8697 0.8421
C64_2 C 0.88790(31) 0.82513(25) 0.8637(3)
C66_2 C 0.9094(4) 0.8550(3) 0.8600(3)
H53_2 H 0.9052 0.8676 0.8415
C68_2 C 0.94362(32) 0.84713(26) 0.9090(3)
C70_2 C 0.85922(30) 0.81364(25) 0.8371(3)
C71_2 C 0.97308(31) 0.84877(25) 0.9841(3)
C72_2 C 0.97226(28) 0.85772(23) 0.9345(3)
C73_2 C 0.99949(31) 0.87432(25) 0.9063(3)
C77_2 C 0.9359(4) 0.8657(3) 0.8824(3)
H58_2 H 0.9493 0.8857 0.8804
C79_2 C 0.9217(4) 0.8179(3) 0.9146(4)
H59_2 H 0.9257 0.8055 0.9340
C81_2 C 0.8943(4) 0.8068(3) 0.8924(4)
H60_2 H 0.8802 0.7871 0.8966
O32_5 O 0.68790(32) 0.71277(26) 0.7030(3)
H63_5 H 0.6753 0.6938 0.7081
H64_5 H 0.6918 0.7134 0.6696
O35_5 O 0.77846(21) 0.81200(17) 0.74440(19)
O39_4 O 0.82707(22) 0.86004(13) 0.7961(2)
O44_5 O 0.72661(24) 0.77130(19) 0.7406(2)
O47_5 O 0.69141(28) 0.72505(22) 0.8026(2)
O3_6 O 0.02842(12) 0.17045(17) 0.69665(18)
O6_6 O 0.05147(13) 0.21207(18) 0.6494(2)
N1_6 N 0.16150(15) 0.16658(21) 0.4042(2)
N2_6 N 0.11815(18) 0.11818(25) 0.6432(3)
H5_6 H 0.1327 0.1185 0.6596
H6_6 H 0.1138 0.1303 0.6579
C1_6 C 0.06278(18) 0.17487(25) 0.6363(3)
C2_6 C 0.18962(18) 0.05223(25) 0.6733(3)
C3_6 C 0.0545(2) 0.1450(3) 0.6400(3)
H13_6 H 0.0377 0.1324 0.6585
C4_6 C 0.14283(19) 0.14342(25) 0.4920(3)
C7_6 C 0.09650(19) 0.15287(26) 0.5910(3)
C9_6 C 0.1365(2) 0.07339(28) 0.6184(3)
H15_6 H 0.1163 0.0659 0.6170
C10_6 C 0.04559(17) 0.18636(25) 0.6629(3)
C11_6 C 0.12432(18) 0.15123(25) 0.5159(3)
H16_6 H 0.1183 0.1627 0.4984
C12_6 C 0.11455(16) 0.14228(23) 0.5655(3)
C13_6 C 0.12518(18) 0.12568(25) 0.5937(3)
C15_6 C 0.14689(18) 0.05775(27) 0.6440(3)
H17_6 H 0.1342 0.0401 0.6601
C16_6 C 0.1526(2) 0.12620(28) 0.5165(3)
H18_6 H 0.1648 0.1208 0.4997
C17_6 C 0.1550(2) 0.1000(3) 0.5944(3)
C19_6 C 0.0703(2) 0.1343(3) 0.6176(3)
H19_6 H 0.0637 0.1143 0.6196
C20_6 C 0.14355(18) 0.11728(25) 0.5671(3)
C22_6 C 0.1039(2) 0.1821(3) 0.5854(4)
H21_6 H 0.1203 0.1945 0.5660
C25_6 C 0.15371(17) 0.15534(25) 0.4422(3)
C28_6 C 0.0876(2) 0.1932(3) 0.6076(4)
H22_6 H 0.0932 0.2129 0.6034
C29_6 C 0.17823(17) 0.06955(25) 0.6451(3)
C36_6 C 0.1848(3) 0.1099(4) 0.5919(6)
H27_6 H 0.1976 0.1269 0.5740
C38_6 C 0.1952(3) 0.0928(4) 0.6185(5)
H28_6 H 0.2150 0.0987 0.6164
O32_6 O 0.02486(19) 0.31210(32) 0.7030(3)
H63_6 H 0.0184 0.3247 0.7081
H64_6 H 0.0215 0.3082 0.6696
O35_6 O 0.03353(13) 0.22154(21) 0.74440(19)
O44_6 O 0.04468(14) 0.27339(24) 0.7406(2)
O47_6 O 0.03363(17) 0.30859(28) 0.8026(2)
O14_6 O 0.97514(19) 0.28723(26) 0.7970(3)
H3_6 H 0.9816 0.3062 0.7919
H4_6 H 0.9785 0.2866 0.8304
O28_6 O 0.97158(12) 0.14204(21) 0.80335(18)
N8_3 N 0.88185(18) 0.00004(31) 0.8568(3)
H52_3 H 0.8862 0.0166 0.8421
C64_3 C 0.93722(18) 0.11210(31) 0.8637(3)
C66_3 C 0.9455(2) 0.0906(4) 0.8600(3)
H53_3 H 0.9623 0.0948 0.8415
C68_3 C 0.90350(19) 0.05638(32) 0.9090(3)
C70_3 C 0.95441(17) 0.14078(30) 0.8371(3)
C71_3 C 0.87568(18) 0.02692(31) 0.9841(3)
C72_3 C 0.88545(16) 0.02774(28) 0.9345(3)
C73_3 C 0.87482(18) 0.00051(31) 0.9063(3)
C77_3 C 0.9297(2) 0.0641(4) 0.8824(3)
H58_3 H 0.9363 0.0507 0.8804
C79_3 C 0.8961(2) 0.0783(4) 0.9146(4)
H59_3 H 0.8797 0.0743 0.9340
C81_3 C 0.9124(2) 0.1057(4) 0.8924(4)
H60_3 H 0.9068 0.1198 0.8966
O31_3 O 0.78372(13) 0.84469(22) 0.83439(19)
H51_3 H 0.8673 0.9859 0.8404
C65_6 C 0.81038(18) 0.86262(31) 0.8267(3)
C69_3 C 0.8635(2) 0.93693(34) 0.8816(3)
H54_3 H 0.8837 0.9497 0.8830
C74_3 C 0.85311(18) 0.91087(32) 0.8560(3)
H56_3 H 0.8658 0.9060 0.8399
C75_3 C 0.8474(2) 0.97364(34) 0.9835(3)
C76_3 C 0.8450(2) 0.9451(4) 0.9056(3)
C78_3 C 0.85645(18) 0.97374(31) 0.9329(3)
C82_3 C 0.82177(17) 0.89133(30) 0.8549(3)
C83_3 C 0.8152(3) 0.9252(5) 0.9081(6)
H61_3 H 0.8024 0.9294 0.9260
C84_3 C 0.8048(3) 0.8977(5) 0.8815(5)
H62_3 H 0.7850 0.8838 0.8836
Zr1_3 Zr 0.0000 0.17777(2) 0.7500
Zr4_3 Zr 0.0000 0.27168(2) 0.7500
O9_3 O 0.05850(17) 0.28962(13) 0.8407(2)
O13_3 O 0.08958(17) 0.26906(15) 0.8008(3)
H1_3 H 0.0989 0.2728 0.8299
H2_3 H 0.0951 0.2863 0.7883
O15_2 O 0.0513(3) 0.28406(19) 0.6348(3)
H9_2 H 0.0520 0.2828 0.5995
H10_2 H 0.0707 0.2973 0.6421
O16_3 O 0.0841(2) 0.2658(2) 0.6750(5)
H11_3 H 0.0958 0.2894 0.6730
H12_2 H 0.0956 0.2632 0.6431
C5_3 C 0.1209(2) 0.4180(2) 0.9991(3)
C6_3 C 0.1501(3) 0.4415(2) 0.9225(3)
H14_3 H 0.1537 0.4410 0.8877
C14_3 C 0.1690(3) 0.46645(18) 0.9501(3)
C18_3 C 0.1261(2) 0.4171(2) 0.9442(3)
C24_3 C 0.1081(3) 0.3901(2) 0.9151(3)
C27_3 C 0.0519(2) 0.3095(2) 0.8333(3)
C30_3 C 0.0900(3) 0.3895(2) 0.8760(3)
H23_3 H 0.0904 0.4069 0.8672
C32_3 C 0.0720(3) 0.33805(19) 0.8613(3)
C35_3 C 0.1067(3) 0.3637(2) 0.9279(4)
H26_3 H 0.1173 0.3631 0.9560
C37_3 C 0.1943(4) 0.4905(3) 0.9279(4)
C40_3 C 0.0705(3) 0.3630(2) 0.8485(3)
H30_3 H 0.0577 0.3626 0.8234
C42_3 C 0.0896(4) 0.3377(3) 0.8996(4)
H32_3 H 0.0903 0.3208 0.9067
N4_3 N 0.2149(4) 0.5111(3) 0.9082(4)
Zr8_3 Zr 0.17773(2) 1.0000 0.7500
O21_5 O 0.71038(13) 0.76889(21) 0.8407(2)
O25_5 O 0.73094(15) 0.82053(23) 0.8008(3)
H33_5 H 0.7272 0.8262 0.8299
H34_5 H 0.7137 0.8089 0.7883
O26_3 O 0.71594(19) 0.76728(36) 0.6348(3)
H37_3 H 0.7172 0.7693 0.5995
H38_3 H 0.7027 0.7735 0.6421
O27_5 O 0.7342(2) 0.8184(3) 0.6750(5)
H39_5 H 0.7106 0.8065 0.6730
H40_3 H 0.7368 0.8325 0.6431
C43_5 C 0.5820(2) 0.7030(3) 0.9991(3)
C44_5 C 0.5585(2) 0.7087(4) 0.9225(3)
H41_5 H 0.5590 0.7128 0.8877
C46_5 C 0.53355(18) 0.70259(35) 0.9501(3)
C47_5 C 0.5829(2) 0.7091(3) 0.9442(3)
C50_5 C 0.6099(2) 0.7181(4) 0.9151(3)
C52_5 C 0.6905(2) 0.7425(3) 0.8333(3)
C53_5 C 0.6105(2) 0.7006(4) 0.8760(3)
H43_5 H 0.5931 0.6836 0.8672
C55_5 C 0.66195(19) 0.73399(36) 0.8613(3)
C58_5 C 0.6363(2) 0.7431(4) 0.9279(4)
H46_5 H 0.6369 0.7543 0.9560
C59_5 C 0.5095(3) 0.7039(5) 0.9279(4)
C61_5 C 0.6370(2) 0.7076(4) 0.8485(3)
H48_5 H 0.6374 0.6952 0.8234
C63_5 C 0.6623(3) 0.7520(5) 0.8996(4)
H50_5 H 0.6792 0.7696 0.9067
N6_5 N 0.4889(3) 0.7039(5) 0.9082(4)
O21_6 O 0.23111(21) 0.94150(25) 0.8407(2)
O25_6 O 0.17947(23) 0.91042(27) 0.8008(3)
H33_6 H 0.1738 0.9011 0.8299
H34_6 H 0.1911 0.9049 0.7883
O26_4 O 0.23272(36) 0.94867(41) 0.6348(3)
H37_4 H 0.2307 0.9480 0.5995
H38_4 H 0.2265 0.9293 0.6421
O27_6 O 0.1816(3) 0.9159(4) 0.6750(5)
H39_6 H 0.1935 0.9042 0.6730
H40_4 H 0.1675 0.9044 0.6431
C43_6 C 0.2970(3) 0.8791(4) 0.9991(3)
C44_6 C 0.2913(4) 0.8499(4) 0.9225(3)
H41_6 H 0.2872 0.8463 0.8877
C46_6 C 0.29741(35) 0.83097(39) 0.9501(3)
C47_6 C 0.2909(3) 0.8739(4) 0.9442(3)
C50_6 C 0.2819(4) 0.8919(4) 0.9151(3)
C52_6 C 0.2575(3) 0.9481(4) 0.8333(3)
C53_6 C 0.2994(4) 0.9100(4) 0.8760(3)
H43_6 H 0.3164 0.9096 0.8672
C55_6 C 0.26601(36) 0.92797(41) 0.8613(3)
C58_6 C 0.2569(4) 0.8933(4) 0.9279(4)
H46_6 H 0.2457 0.8827 0.9560
C59_6 C 0.2961(5) 0.8057(6) 0.9279(4)
C61_6 C 0.2924(4) 0.9295(4) 0.8485(3)
H48_6 H 0.3048 0.9423 0.8234
C63_6 C 0.2480(5) 0.9104(6) 0.8996(4)
H50_6 H 0.2304 0.9097 0.9067
N6_6 N 0.2961(5) 0.7851(6) 0.9082(4)
Zr16_5 Zr 0.27164(2) 0.99997(3) 0.7500
O13_4 O 0.93572(15) 0.42292(17) 0.0326(3)
H1_4 H 0.9394 0.4323 0.0035
H2_4 H 0.9529 0.4285 0.0451
O15_3 O 0.95072(19) 0.3847(3) 0.1986(3)
H9_3 H 0.9494 0.3854 0.2339
H10_3 H 0.9639 0.4041 0.1913
O16_4 O 0.9324(2) 0.4175(2) 0.1584(5)
H11_4 H 0.9560 0.4292 0.1604
H12_3 H 0.9298 0.4290 0.1903
C27_4 C 0.9761(2) 0.3853(2) 0.0001(3)
O25_7 O 0.48719(23) 0.06428(15) 0.0326(3)
H33_7 H 0.4928 0.0606 0.0035
H34_7 H 0.4755 0.0471 0.0451
O26_5 O 0.43394(36) 0.04928(19) 0.1986(3)
H37_5 H 0.4359 0.0506 0.2339
H38_5 H 0.4401 0.0361 0.1913
O27_7 O 0.4850(3) 0.0676(2) 0.1584(5)
H39_7 H 0.4731 0.0440 0.1604
H40_5 H 0.4991 0.0702 0.1903
C52_7 C 0.4091(3) 0.0239(2) 0.0001(3)
O25_8 O 0.57708(27) 0.51281(23) 0.0326(3)
H33_8 H 0.5677 0.5072 0.0035
H34_8 H 0.5715 0.5245 0.0451
O26_6 O 0.61533(41) 0.56606(36) 0.1986(3)
H37_6 H 0.6146 0.5641 0.2339
H38_6 H 0.5959 0.5599 0.1913
O27_8 O 0.5825(4) 0.5150(3) 0.1584(5)
H39_8 H 0.5708 0.5269 0.1604
H40_6 H 0.5710 0.5009 0.1903
C52_8 C 0.6147(4) 0.5909(3) 0.0001(3)
H48_7 H 0.6089 0.6382 0.0100
O15_4 O 0.7180(3) 0.61739(19) 0.9681(3)
H9_4 H 0.7187 0.6161 0.9328
H10_4 H 0.7374 0.6306 0.9754
H12_4 H 0.7623 0.5965 0.9764
O26_7 O 0.38261(19) 0.10061(36) 0.9681(3)
H37_7 H 0.3839 0.1026 0.9328
H38_7 H 0.3694 0.1068 0.9754
H40_7 H 0.4035 0.1658 0.9764
O30_2 O 0.71813(13) 0.54541(18) 0.9828(2)
O31_4 O 0.88294(13) 0.39430(18) 0.99895(19)
N7 N 0.82816(15) 0.49992(21) 0.7376(2)
N8_4 N 0.78481(18) 0.45152(25) 0.9766(3)
H51_4 H 0.7993 0.4519 0.9930
H52_4 H 0.7804 0.4637 0.9913
C64_4 C 0.72944(18) 0.50821(25) 0.9697(3)
C66_4 C 0.7211(2) 0.4784(3) 0.9734(3)
H53_4 H 0.7043 0.4658 0.9919
C67 C 0.80949(19) 0.47676(25) 0.8254(3)
C68_4 C 0.76316(19) 0.48621(26) 0.9244(3)
C69_4 C 0.8031(2) 0.40673(28) 0.9518(3)
H54_4 H 0.7829 0.3993 0.9504
C70_4 C 0.71225(17) 0.51970(25) 0.9963(3)
C71_4 C 0.79098(18) 0.48457(25) 0.8493(3)
H55 H 0.7849 0.4961 0.8318
C72_4 C 0.78121(16) 0.47562(23) 0.8989(3)
C73_4 C 0.79184(18) 0.45902(25) 0.9271(3)
C74_4 C 0.81355(18) 0.39109(27) 0.9774(3)
H56_4 H 0.8008 0.3735 0.9935
C75_4 C 0.8192(2) 0.45954(28) 0.8499(3)
H57 H 0.8314 0.4542 0.8331
C76_4 C 0.8216(2) 0.4334(3) 0.9278(3)
C77_4 C 0.7369(2) 0.4677(3) 0.9510(3)
H58_4 H 0.7303 0.4477 0.9530
C78_4 C 0.81021(18) 0.45062(25) 0.9005(3)
C79_4 C 0.7705(2) 0.5155(3) 0.9188(4)
H59_4 H 0.7869 0.5279 0.8994
C80 C 0.82037(17) 0.48868(25) 0.7756(3)
C81_4 C 0.7542(2) 0.5266(3) 0.9410(4)
H60_4 H 0.7598 0.5463 0.9368
C82_4 C 0.84489(17) 0.40289(25) 0.9785(3)
C83_4 C 0.8514(3) 0.4433(4) 0.9253(6)
H61_4 H 0.8642 0.4603 0.9074
C84_4 C 0.8618(3) 0.4262(4) 0.9519(5)
H62_4 H 0.8816 0.4321 0.9498
O40_3 O 0.45459(18) 0.17273(13) 0.9828(2)
O45 O 0.43550(15) 0.11884(15) 0.9287(2)
O46 O 0.68335(21) 0.56450(15) 0.9287(2)
O26_8 O 0.89939(36) 0.28200(41) 0.9681(3)
H37_8 H 0.8974 0.2813 0.9328
H38_8 H 0.8932 0.2626 0.9754
H40_8 H 0.8342 0.2377 0.9764
O31_5 O 0.60570(18) 0.48865(22) 0.99895(19)
N7_2 N 0.50008(21) 0.32825(26) 0.7376(2)
N8_5 N 0.54848(25) 0.33330(31) 0.9766(3)
H51_5 H 0.5481 0.3475 0.9930
H52_5 H 0.5363 0.3168 0.9913
C64_5 C 0.49179(25) 0.22124(31) 0.9697(3)
C66_5 C 0.5216(3) 0.2428(4) 0.9734(3)
H53_5 H 0.5342 0.2386 0.9919
C67_2 C 0.52324(25) 0.33274(31) 0.8254(3)
C68_5 C 0.51379(26) 0.27696(32) 0.9244(3)
C69_5 C 0.59327(28) 0.39641(34) 0.9518(3)
H54_5 H 0.6007 0.3837 0.9504
C70_5 C 0.48030(25) 0.19256(30) 0.9963(3)
C71_5 C 0.51543(25) 0.30642(31) 0.8493(3)
H55_2 H 0.5039 0.2889 0.8318
C72_5 C 0.52438(23) 0.30560(28) 0.8989(3)
C73_5 C 0.54098(25) 0.33283(31) 0.9271(3)
C74_5 C 0.60891(27) 0.42247(32) 0.9774(3)
H56_5 H 0.6265 0.4274 0.9935
C75_5 C 0.54046(28) 0.35970(34) 0.8499(3)
H57_2 H 0.5458 0.3773 0.8331
C76_5 C 0.5666(3) 0.3883(4) 0.9278(3)
C77_5 C 0.5323(3) 0.2693(4) 0.9510(3)
H58_5 H 0.5523 0.2827 0.9530
C78_5 C 0.54938(25) 0.35960(31) 0.9005(3)
C79_5 C 0.4845(3) 0.2551(4) 0.9188(4)
H59_5 H 0.4721 0.2591 0.8994
C80_2 C 0.51132(25) 0.33170(30) 0.7756(3)
C81_5 C 0.4734(3) 0.2277(4) 0.9410(4)
H60_5 H 0.4537 0.2136 0.9368
C82_5 C 0.59711(25) 0.44201(30) 0.9785(3)
C83_5 C 0.5567(4) 0.4082(5) 0.9253(6)
H61_5 H 0.5397 0.4040 0.9074
C84_5 C 0.5738(4) 0.4357(5) 0.9519(5)
H62_5 H 0.5679 0.4496 0.9498
O40_4 O 0.82727(13) 0.28187(22) 0.9828(2)
O45_2 O 0.88116(15) 0.31665(21) 0.9287(2)
O31_6 O 0.51135(22) 0.11706(13) 0.99895(19)
N7_3 N 0.67175(26) 0.17184(15) 0.7376(2)
N8_6 N 0.66670(31) 0.21519(18) 0.9766(3)
H51_6 H 0.6525 0.2007 0.9930
H52_6 H 0.6832 0.2196 0.9913
C64_6 C 0.77876(31) 0.27056(18) 0.9697(3)
C66_6 C 0.7572(4) 0.2789(2) 0.9734(3)
H53_6 H 0.7614 0.2957 0.9919
C67_3 C 0.66726(31) 0.19051(19) 0.8254(3)
C68_6 C 0.72304(32) 0.23684(19) 0.9244(3)
C69_6 C 0.60359(34) 0.1969(2) 0.9518(3)
H54_6 H 0.6163 0.2171 0.9504
C70_6 C 0.80744(30) 0.28775(17) 0.9963(3)
C71_6 C 0.69358(31) 0.20902(18) 0.8493(3)
H55_3 H 0.7111 0.2151 0.8318
C72_6 C 0.69440(28) 0.21879(16) 0.8989(3)
C73_6 C 0.66717(31) 0.20816(18) 0.9271(3)
C74_6 C 0.57753(32) 0.18645(18) 0.9774(3)
H56_6 H 0.5726 0.1992 0.9935
C75_6 C 0.64030(34) 0.1808(2) 0.8499(3)
H57_3 H 0.6227 0.1686 0.8331
C76_6 C 0.6117(4) 0.1784(2) 0.9278(3)
C77_6 C 0.7307(4) 0.2631(2) 0.9510(3)
H58_6 H 0.7173 0.2697 0.9530
C78_6 C 0.64040(31) 0.18979(18) 0.9005(3)
C79_6 C 0.7449(4) 0.2295(2) 0.9188(4)
H59_6 H 0.7409 0.2131 0.8994
C80_3 C 0.66830(30) 0.17963(17) 0.7756(3)
C81_6 C 0.7723(4) 0.2458(2) 0.9410(4)
H60_6 H 0.7864 0.2402 0.9368
C82_6 C 0.55799(30) 0.15511(17) 0.9785(3)
C83_6 C 0.5918(5) 0.1486(3) 0.9253(6)
H61_6 H 0.5960 0.1358 0.9074
C84_6 C 0.5643(5) 0.1382(3) 0.9519(5)
H62_6 H 0.5504 0.1184 0.9498
Zr1_4 Zr 0.51110(2) 0.6667 0.4167
Zr2_2 Zr 0.57819(2) 0.70817(2) 0.35476(2)
Zr3_2 Zr 0.57454(2) 0.70131(2) 0.49125(2)
Zr4_4 Zr 0.60501(2) 0.6667 0.4167
O1_3 O 0.53350(12) 0.67042(13) 0.34197(18)
O2_3 O 0.55487(11) 0.70020(13) 0.42227(19)
O3_7 O 0.47537(12) 0.63825(12) 0.36332(18)
O4_3 O 0.57943(13) 0.66924(14) 0.35951(19)
O5_5 O 0.19337(13) 0.49374(13) 0.3706(2)
O6_7 O 0.49394(13) 0.61520(13) 0.3161(2)
O8_5 O 0.17802(13) 0.45039(13) 0.33228(19)
O9_4 O 0.62295(13) 0.72517(17) 0.3260(2)
O10_3 O 0.60672(13) 0.71135(14) 0.4261(2)
O12_3 O 0.64192(14) 0.70030(17) 0.3641(2)
O13_5 O 0.60239(15) 0.75625(17) 0.3659(3)
H1_5 H 0.6061 0.7656 0.3368
H2_5 H 0.6196 0.7618 0.3784
O14_7 O 0.64543(18) 0.69153(19) 0.4637(3)
H3_7 H 0.6580 0.6851 0.4586
H4_7 H 0.6415 0.6882 0.4971
N1_7 N 0.33842(15) 0.50517(15) 0.0709(2)
N2_7 N 0.33337(18) 0.54852(18) 0.3099(3)
H5_7 H 0.3192 0.5340 0.3263
H6_7 H 0.3499 0.5529 0.3246
N3_3 N 0.72804(16) 0.76384(19) 0.1444(3)
H7_3 H 0.7335 0.7601 0.1152
H8_3 H 0.7211 0.7482 0.1635
C1_7 C 0.44543(18) 0.60389(18) 0.3030(3)
O15_5 O 0.61739(19) 0.7180(3) 0.5319(3)
H9_5 H 0.6161 0.7187 0.5672
H10_5 H 0.6306 0.7374 0.5246
O16_5 O 0.5991(2) 0.7508(2) 0.4917(5)
H11_5 H 0.6227 0.7625 0.4937
H12_5 H 0.5965 0.7623 0.5236
C2_7 C 0.19595(17) 0.47705(18) 0.3400(3)
C3_7 C 0.4239(2) 0.6122(2) 0.3067(3)
H13_7 H 0.4281 0.6290 0.3252
C4_7 C 0.33393(17) 0.52384(19) 0.1587(3)
C5_4 C 0.7513(2) 0.7876(2) 0.1676(3)
C6_4 C 0.7748(2) 0.8168(3) 0.2442(3)
H14_4 H 0.7743 0.8204 0.2790
C7_7 C 0.38971(18) 0.57017(19) 0.2577(3)
C8_3 C 0.77673(19) 0.8060(2) 0.1385(3)
C9_7 C 0.27026(19) 0.5302(2) 0.2851(3)
H15_7 H 0.2830 0.5504 0.2837
C10_7 C 0.47411(18) 0.62108(17) 0.3296(3)
C11_7 C 0.36025(17) 0.54235(18) 0.1826(3)
H16_7 H 0.3778 0.5484 0.1651
C12_7 C 0.36107(17) 0.55212(16) 0.2322(3)
C13_7 C 0.33384(18) 0.54149(18) 0.2604(3)
C14_4 C 0.79978(18) 0.8357(3) 0.2166(3)
C15_7 C 0.2442(2) 0.51978(18) 0.3107(3)
H17_7 H 0.2393 0.5325 0.3268
C16_7 C 0.30697(19) 0.5141(2) 0.1832(3)
H18_7 H 0.2894 0.5019 0.1664
C17_7 C 0.2784(2) 0.5117(2) 0.2611(3)
C18_4 C 0.7504(2) 0.7928(2) 0.2225(3)
C19_7 C 0.3974(2) 0.5964(2) 0.2843(3)
H19_7 H 0.3840 0.6030 0.2863
C20_7 C 0.30707(18) 0.52312(18) 0.2338(3)
C21_3 C 0.8009(2) 0.8294(3) 0.1642(3)
H20_3 H 0.8182 0.8410 0.1460
C22_7 C 0.4116(2) 0.5628(2) 0.2521(4)
H21_7 H 0.4076 0.5464 0.2327
C24_4 C 0.7234(2) 0.7748(3) 0.2516(3)
C25_7 C 0.33497(18) 0.51296(17) 0.1089(3)
C26_3 C 0.77754(18) 0.8009(2) 0.0821(3)
C27_5 C 0.6428(2) 0.7186(2) 0.3334(3)
C28_7 C 0.4390(2) 0.5791(2) 0.2743(4)
H22_7 H 0.4531 0.5735 0.2701
C29_7 C 0.22466(18) 0.48844(17) 0.3118(3)
C30_4 C 0.7228(2) 0.7567(3) 0.2907(3)
H23_4 H 0.7402 0.7571 0.2995
C32_4 C 0.67138(19) 0.7387(3) 0.3054(3)
C33_3 C 0.7911(3) 0.7820(4) 0.0100(4)
C35_4 C 0.6970(2) 0.7734(3) 0.2388(4)
H26_4 H 0.6964 0.7840 0.2107
C36_7 C 0.2585(3) 0.4819(3) 0.2586(6)
H27_7 H 0.2627 0.4691 0.2407
C37_4 C 0.8238(3) 0.8610(4) 0.2388(4)
C38_7 C 0.2310(3) 0.4715(3) 0.2852(5)
H28_7 H 0.2171 0.4517 0.2831
C39_3 C 0.7624(3) 0.8087(3) 0.0504(3)
H29_3 H 0.7527 0.8179 0.0638
C40_4 C 0.6963(2) 0.7372(3) 0.3182(3)
H30_4 H 0.6959 0.7244 0.3433
C41_3 C 0.7913(3) 0.7864(4) 0.0637(4)
H31_3 H 0.8006 0.7796 0.0858
C42_4 C 0.6710(3) 0.7563(4) 0.2671(4)
H32_4 H 0.6541 0.7570 0.2600
N4_4 N 0.8444(3) 0.8816(4) 0.2585(4)
Zr5_3 Zr 0.12998(3) 0.42181(2) 0.35476(2)
Zr6_3 Zr 0.12677(3) 0.42546(2) 0.49125(2)
O17_5 O 0.13692(18) 0.46650(12) 0.34197(18)
O18_5 O 0.14533(17) 0.44513(11) 0.42227(19)
O19_5 O 0.08981(19) 0.42057(13) 0.35951(19)
O21_7 O 0.10222(21) 0.37705(13) 0.3260(2)
O22_5 O 0.10463(19) 0.39328(13) 0.4261(2)
O24_5 O 0.05838(22) 0.35808(14) 0.3641(2)
O25_9 O 0.15386(23) 0.39761(15) 0.3659(3)
H33_9 H 0.1595 0.3939 0.3368
H34_9 H 0.1422 0.3804 0.3784
N5_5 N 0.03580(25) 0.27196(16) 0.1444(3)
H35_5 H 0.0266 0.2665 0.1152
H36_5 H 0.0271 0.2789 0.1635
O26_9 O 0.10061(36) 0.38261(19) 0.5319(3)
H37_9 H 0.1026 0.3839 0.5672
H38_9 H 0.1068 0.3694 0.5246
O27_9 O 0.1517(3) 0.4009(2) 0.4917(5)
H39_9 H 0.1398 0.3773 0.4937
H40_9 H 0.1658 0.4035 0.5236
C43_7 C 0.0363(3) 0.2487(2) 0.1676(3)
C44_7 C 0.0420(4) 0.2252(2) 0.2442(3)
H41_7 H 0.0461 0.2257 0.2790
C45_5 C 0.02927(28) 0.22327(19) 0.1385(3)
C46_7 C 0.03592(35) 0.20022(18) 0.2166(3)
C47_7 C 0.0424(3) 0.2496(2) 0.2225(3)
C48_5 C 0.0285(4) 0.1991(2) 0.1642(3)
H42_5 H 0.0228 0.1818 0.1460
C50_7 C 0.0514(4) 0.2766(2) 0.2516(3)
C51_5 C 0.02336(27) 0.22246(18) 0.0821(3)
C52_9 C 0.0758(3) 0.3572(2) 0.3334(3)
C53_7 C 0.0339(4) 0.2772(2) 0.2907(3)
H43_7 H 0.0169 0.2598 0.2995
C55_7 C 0.06732(36) 0.32862(19) 0.3054(3)
C58_7 C 0.0764(4) 0.3030(2) 0.2388(4)
H46_7 H 0.0876 0.3036 0.2107
C59_7 C 0.0372(5) 0.1762(3) 0.2388(4)
C60_5 C 0.0463(4) 0.2376(3) 0.0504(3)
H47_5 H 0.0652 0.2473 0.0638
C61_7 C 0.0409(4) 0.3037(2) 0.3182(3)
H48_8 H 0.0285 0.3041 0.3433
C63_7 C 0.0853(5) 0.3290(3) 0.2671(4)
H50_7 H 0.1029 0.3459 0.2600
N6_7 N 0.0372(5) 0.1556(3) 0.2585(4)
O28_7 O 0.50379(17) 0.69508(12) 0.47001(18)
O29_3 O 0.36630(18) 0.83959(13) 0.4627(2)
O30_3 O 0.54541(18) 0.71813(13) 0.5172(2)
O31_7 O 0.39430(18) 0.88294(13) 0.50105(19)
N7_4 N 0.49992(21) 0.82816(15) 0.7624(2)
N8_7 N 0.45152(25) 0.78481(18) 0.5234(3)
H51_7 H 0.4519 0.7993 0.5070
H52_7 H 0.4637 0.7804 0.5087
C64_7 C 0.50821(25) 0.72944(18) 0.5303(3)
C65_7 C 0.38557(25) 0.85628(18) 0.4933(3)
C66_7 C 0.4784(3) 0.7211(2) 0.5266(3)
H53_7 H 0.4658 0.7043 0.5081
C67_4 C 0.47676(25) 0.80949(19) 0.6746(3)
C68_7 C 0.48621(26) 0.76316(19) 0.5756(3)
C69_7 C 0.40673(28) 0.8031(2) 0.5482(3)
H54_7 H 0.3993 0.7829 0.5496
C70_7 C 0.51970(25) 0.71225(17) 0.5037(3)
C71_7 C 0.48457(25) 0.79098(18) 0.6507(3)
H55_4 H 0.4961 0.7849 0.6682
C72_7 C 0.47562(23) 0.78121(16) 0.6011(3)
C73_7 C 0.45902(25) 0.79184(18) 0.5729(3)
C74_7 C 0.39109(27) 0.81355(18) 0.5226(3)
H56_7 H 0.3735 0.8008 0.5065
C75_7 C 0.45954(28) 0.8192(2) 0.6501(3)
H57_4 H 0.4542 0.8314 0.6669
C76_7 C 0.4334(3) 0.8216(2) 0.5722(3)
C77_7 C 0.4677(3) 0.7369(2) 0.5490(3)
H58_7 H 0.4477 0.7303 0.5470
C78_7 C 0.45062(25) 0.81021(18) 0.5995(3)
C79_7 C 0.5155(3) 0.7705(2) 0.5812(4)
H59_7 H 0.5279 0.7869 0.6006
C80_4 C 0.48868(25) 0.82037(17) 0.7244(3)
C81_7 C 0.5266(3) 0.7542(2) 0.5590(4)
H60_7 H 0.5463 0.7598 0.5632
C82_7 C 0.40289(25) 0.84489(17) 0.5215(3)
C83_7 C 0.4433(4) 0.8514(3) 0.5747(6)
H61_7 H 0.4603 0.8642 0.5926
C84_7 C 0.4262(4) 0.8618(3) 0.5481(5)
H62_7 H 0.4321 0.8816 0.5502
O32_7 O 0.62057(26) 0.64180(19) 0.3696(3)
H63_7 H 0.6396 0.6482 0.3747
H64_7 H 0.6200 0.6451 0.3362
Zr7_3 Zr 0.15560(2) 0.48890(2) 0.4167
Zr8_4 Zr 0.3333 0.84440(2) 0.4167
Zr11_4 Zr 0.37484(2) 0.91152(2) 0.47857(2)
Zr14_3 Zr 0.09213(2) 0.46010(3) 0.34208(2)
Zr15_2 Zr 0.53990(3) 0.63202(2) 0.34208(2)
Zr16_6 Zr 0.06169(2) 0.39499(2) 0.4167
O33_5 O 0.13317(12) 0.47025(18) 0.49136(18)
O34_3 O 0.52975(18) 0.66291(13) 0.49136(18)
O35_7 O 0.52134(17) 0.63313(13) 0.41106(19)
O36_5 O 0.08724(13) 0.42314(19) 0.47382(19)
O37_3 O 0.57686(19) 0.66409(14) 0.47382(19)
O38_3 O 0.50626(13) 0.69963(18) 0.3706(2)
O39_5 O 0.47330(13) 0.63370(18) 0.4627(2)
O40_5 O 0.17273(13) 0.45459(18) 0.5172(2)
O41_3 O 0.12560(14) 0.42679(15) 0.2715(2)
O42_2 O 0.57321(15) 0.69882(21) 0.2715(2)
O43_3 O 0.54961(13) 0.72763(18) 0.33228(19)
O44_7 O 0.56204(19) 0.62198(14) 0.4072(2)
O45_3 O 0.11884(15) 0.43550(15) 0.5713(2)
O46_2 O 0.56450(15) 0.68335(21) 0.5713(2)
O47_7 O 0.60829(22) 0.63303(17) 0.4692(2)
O3_8 O 0.16288(17) 0.52463(12) 0.36332(18)
O5_6 O 0.30037(18) 0.80663(13) 0.3706(2)
O6_8 O 0.12126(18) 0.50606(13) 0.3161(2)
O8_6 O 0.27237(18) 0.82198(13) 0.33228(19)
O14_8 O 0.04610(26) 0.35457(18) 0.4637(3)
H3_8 H 0.0271 0.3420 0.4586
H4_8 H 0.0467 0.3585 0.4971
N1_8 N 0.16675(21) 0.66158(15) 0.0709(2)
N2_8 N 0.21515(25) 0.66663(18) 0.3099(3)
H5_8 H 0.2148 0.6808 0.3263
H6_8 H 0.2030 0.6501 0.3246
C1_8 C 0.15846(25) 0.55457(18) 0.3030(3)
C2_8 C 0.28110(25) 0.80405(17) 0.3400(3)
C3_8 C 0.1883(3) 0.5761(2) 0.3067(3)
H13_8 H 0.2009 0.5719 0.3252
C4_8 C 0.18991(25) 0.66607(17) 0.1587(3)
C7_8 C 0.18046(26) 0.61029(18) 0.2577(3)
C9_8 C 0.25994(28) 0.72974(19) 0.2851(3)
H15_8 H 0.2674 0.7170 0.2837
C10_8 C 0.14697(25) 0.52589(18) 0.3296(3)
C11_8 C 0.18210(25) 0.63975(17) 0.1826(3)
H16_8 H 0.1706 0.6222 0.1651
C12_8 C 0.19105(23) 0.63893(17) 0.2322(3)
C13_8 C 0.20765(25) 0.66616(18) 0.2604(3)
C15_8 C 0.27558(27) 0.7558(2) 0.3107(3)
H17_8 H 0.2932 0.7607 0.3268
C16_8 C 0.20713(28) 0.69303(19) 0.1832(3)
H18_8 H 0.2125 0.7106 0.1664
C17_8 C 0.2333(3) 0.7216(2) 0.2611(3)
C19_8 C 0.1990(3) 0.6026(2) 0.2843(3)
H19_8 H 0.2190 0.6160 0.2863
C20_8 C 0.21605(25) 0.69293(18) 0.2338(3)
C22_8 C 0.1512(3) 0.5884(2) 0.2521(4)
H21_8 H 0.1388 0.5924 0.2327
C25_8 C 0.17799(25) 0.66503(18) 0.1089(3)
C28_8 C 0.1401(3) 0.5610(2) 0.2743(4)
H22_8 H 0.1204 0.5469 0.2701
C29_8 C 0.26378(25) 0.77534(18) 0.3118(3)
C36_8 C 0.2234(4) 0.7415(3) 0.2586(6)
H27_8 H 0.2064 0.7373 0.2407
C38_8 C 0.2405(4) 0.7690(3) 0.2852(5)
H28_8 H 0.2346 0.7829 0.2831
Zr5_4 Zr 0.29183(4) 0.87002(3) 0.35476(2)
Zr6_4 Zr 0.29869(4) 0.87323(3) 0.49125(2)
O17_6 O 0.32958(22) 0.86308(18) 0.34197(18)
O18_6 O 0.29980(20) 0.85467(17) 0.42227(19)
O19_6 O 0.33076(23) 0.91019(19) 0.35951(19)
O21_8 O 0.27483(25) 0.89778(21) 0.3260(2)
O22_6 O 0.28865(23) 0.89537(19) 0.4261(2)
O24_6 O 0.29970(26) 0.94162(22) 0.3641(2)
O25_10 O 0.24375(27) 0.84614(23) 0.3659(3)
H33_10 H 0.2344 0.8405 0.3368
H34_10 H 0.2382 0.8578 0.3784
N5_6 N 0.23616(30) 0.96420(25) 0.1444(3)
H35_6 H 0.2399 0.9734 0.1152
H36_6 H 0.2518 0.9729 0.1635
O26_10 O 0.28200(41) 0.89939(36) 0.5319(3)
H37_10 H 0.2813 0.8974 0.5672
H38_10 H 0.2626 0.8932 0.5246
O27_10 O 0.2492(4) 0.8483(3) 0.4917(5)
H39_10 H 0.2375 0.8602 0.4937
H40_10 H 0.2377 0.8342 0.5236
C43_8 C 0.2124(4) 0.9637(3) 0.1676(3)
C44_8 C 0.1832(4) 0.9580(4) 0.2442(3)
H41_8 H 0.1796 0.9539 0.2790
C45_6 C 0.19400(34) 0.97073(28) 0.1385(3)
C46_8 C 0.16430(39) 0.96408(35) 0.2166(3)
C47_8 C 0.2072(4) 0.9576(3) 0.2225(3)
C48_6 C 0.1706(4) 0.9715(4) 0.1642(3)
H42_6 H 0.1590 0.9772 0.1460
C50_8 C 0.2252(4) 0.9486(4) 0.2516(3)
C51_6 C 0.19910(32) 0.97664(27) 0.0821(3)
C52_10 C 0.2814(4) 0.9242(3) 0.3334(3)
C53_8 C 0.2433(4) 0.9661(4) 0.2907(3)
H43_8 H 0.2429 0.9831 0.2995
C55_8 C 0.26130(41) 0.93268(36) 0.3054(3)
C58_8 C 0.2266(4) 0.9236(4) 0.2388(4)
H46_8 H 0.2160 0.9124 0.2107
C59_8 C 0.1390(6) 0.9628(5) 0.2388(4)
C60_6 C 0.1913(5) 0.9537(4) 0.0504(3)
H47_6 H 0.1821 0.9348 0.0638
C61_8 C 0.2628(4) 0.9591(4) 0.3182(3)
H48_9 H 0.2756 0.9715 0.3433
C63_8 C 0.2437(6) 0.9147(5) 0.2671(4)
H50_8 H 0.2430 0.8971 0.2600
N6_8 N 0.1184(6) 0.9628(5) 0.2585(4)
O28_8 O 0.19130(21) 0.49621(17) 0.47001(18)
O31_8 O 0.48865(22) 0.60570(18) 0.50105(19)
N7_5 N 0.32825(26) 0.50008(21) 0.7624(2)
N8_8 N 0.33330(31) 0.54848(25) 0.5234(3)
H51_8 H 0.3475 0.5481 0.5070
H52_8 H 0.3168 0.5363 0.5087
C64_8 C 0.22124(31) 0.49179(25) 0.5303(3)
C65_8 C 0.47072(31) 0.61443(25) 0.4933(3)
C66_8 C 0.2428(4) 0.5216(3) 0.5266(3)
H53_8 H 0.2386 0.5342 0.5081
C67_5 C 0.33274(31) 0.52324(25) 0.6746(3)
C68_8 C 0.27696(32) 0.51379(26) 0.5756(3)
C69_8 C 0.39641(34) 0.59327(28) 0.5482(3)
H54_8 H 0.3837 0.6007 0.5496
C70_8 C 0.19256(30) 0.48030(25) 0.5037(3)
C71_8 C 0.30642(31) 0.51543(25) 0.6507(3)
H55_5 H 0.2889 0.5039 0.6682
C72_8 C 0.30560(28) 0.52438(23) 0.6011(3)
C73_8 C 0.33283(31) 0.54098(25) 0.5729(3)
C74_8 C 0.42247(32) 0.60891(27) 0.5226(3)
H56_8 H 0.4274 0.6265 0.5065
C75_8 C 0.35970(34) 0.54046(28) 0.6501(3)
H57_5 H 0.3773 0.5458 0.6669
C76_8 C 0.3883(4) 0.5666(3) 0.5722(3)
C77_8 C 0.2693(4) 0.5323(3) 0.5490(3)
H58_8 H 0.2827 0.5523 0.5470
C78_8 C 0.35960(31) 0.54938(25) 0.5995(3)
C79_8 C 0.2551(4) 0.4845(3) 0.5812(4)
H59_8 H 0.2591 0.4721 0.6006
C80_5 C 0.33170(30) 0.51132(25) 0.7244(3)
C81_8 C 0.2277(4) 0.4734(3) 0.5590(4)
H60_8 H 0.2136 0.4537 0.5632
C82_8 C 0.44201(30) 0.59711(25) 0.5215(3)
C83_8 C 0.4082(5) 0.5567(4) 0.5747(6)
H61_8 H 0.4040 0.5397 0.5926
C84_8 C 0.4357(5) 0.5738(4) 0.5481(5)
H62_8 H 0.4496 0.5679 0.5502
O32_8 O 0.02124(32) 0.37943(26) 0.3696(3)
H63_8 H 0.0087 0.3604 0.3747
H64_8 H 0.0252 0.3800 0.3362
Zr11_5 Zr 0.53669(3) 0.62516(2) 0.47857(2)
Zr14_4 Zr 0.36798(4) 0.90787(2) 0.34208(2)
Zr16_7 Zr 0.33330(3) 0.93831(2) 0.4167
O33_6 O 0.33709(22) 0.86683(12) 0.49136(18)
O35_8 O 0.11180(21) 0.47866(17) 0.41106(19)
O36_6 O 0.33591(23) 0.91276(13) 0.47382(19)
O39_6 O 0.16041(22) 0.52670(13) 0.4627(2)
O40_6 O 0.28187(22) 0.82727(13) 0.5172(2)
O41_4 O 0.30118(21) 0.87440(14) 0.2715(2)
O44_8 O 0.05995(24) 0.43796(19) 0.4072(2)
O45_4 O 0.31665(21) 0.88116(15) 0.5713(2)
O47_8 O 0.02475(28) 0.39171(22) 0.4692(2)
O3_9 O 0.36175(12) 0.83712(17) 0.36332(18)
O6_9 O 0.38480(13) 0.87874(18) 0.3161(2)
O14_9 O 0.30847(19) 0.95390(26) 0.4637(3)
H3_9 H 0.3149 0.9729 0.4586
H4_9 H 0.3118 0.9533 0.4971
N1_9 N 0.49483(15) 0.83325(21) 0.0709(2)
N2_9 N 0.45148(18) 0.78485(25) 0.3099(3)
H5_9 H 0.4660 0.7852 0.3263
H6_9 H 0.4471 0.7970 0.3246
C1_9 C 0.39611(18) 0.84154(25) 0.3030(3)
C2_9 C 0.52295(18) 0.71890(25) 0.3400(3)
C3_9 C 0.3878(2) 0.8117(3) 0.3067(3)
H13_9 H 0.3710 0.7991 0.3252
C4_9 C 0.47616(19) 0.81009(25) 0.1587(3)
C7_9 C 0.42983(19) 0.81954(26) 0.2577(3)
C9_9 C 0.4698(2) 0.74006(28) 0.2851(3)
H15_9 H 0.4496 0.7326 0.2837
C10_9 C 0.37892(17) 0.85303(25) 0.3296(3)
C11_9 C 0.45765(18) 0.81790(25) 0.1826(3)
H16_9 H 0.4516 0.8294 0.1651
C12_9 C 0.44788(16) 0.80895(23) 0.2322(3)
C13_9 C 0.45851(18) 0.79235(25) 0.2604(3)
C15_9 C 0.48022(18) 0.72442(27) 0.3107(3)
H17_9 H 0.4675 0.7068 0.3268
C16_9 C 0.4859(2) 0.79287(28) 0.1832(3)
H18_9 H 0.4981 0.7875 0.1664
C17_9 C 0.4883(2) 0.7667(3) 0.2611(3)
C19_9 C 0.4036(2) 0.8010(3) 0.2843(3)
H19_9 H 0.3970 0.7810 0.2863
C20_9 C 0.47688(18) 0.78395(25) 0.2338(3)
C22_9 C 0.4372(2) 0.8488(3) 0.2521(4)
H21_9 H 0.4536 0.8612 0.2327
C25_9 C 0.48704(17) 0.82201(25) 0.1089(3)
C28_9 C 0.4209(2) 0.8599(3) 0.2743(4)
H22_9 H 0.4265 0.8796 0.2701
C29_9 C 0.51156(17) 0.73622(25) 0.3118(3)
C36_9 C 0.5181(3) 0.7766(4) 0.2586(6)
H27_9 H 0.5309 0.7936 0.2407
C38_9 C 0.5285(3) 0.7595(4) 0.2852(5)
H28_9 H 0.5483 0.7654 0.2831
O28_9 O 0.30492(12) 0.80870(21) 0.47001(18)
O31_9 O 0.11706(13) 0.51135(22) 0.50105(19)
N7_6 N 0.17184(15) 0.67175(26) 0.7624(2)
N8_9 N 0.21519(18) 0.66670(31) 0.5234(3)
H51_9 H 0.2007 0.6525 0.5070
H52_9 H 0.2196 0.6832 0.5087
C64_9 C 0.27056(18) 0.77876(31) 0.5303(3)
C65_9 C 0.14372(18) 0.52928(31) 0.4933(3)
C66_9 C 0.2789(2) 0.7572(4) 0.5266(3)
H53_9 H 0.2957 0.7614 0.5081
C67_6 C 0.19051(19) 0.66726(31) 0.6746(3)
C68_9 C 0.23684(19) 0.72304(32) 0.5756(3)
C69_9 C 0.1969(2) 0.60359(34) 0.5482(3)
H54_9 H 0.2171 0.6163 0.5496
C70_9 C 0.28775(17) 0.80744(30) 0.5037(3)
C71_9 C 0.20902(18) 0.69358(31) 0.6507(3)
H55_6 H 0.2151 0.7111 0.6682
C72_9 C 0.21879(16) 0.69440(28) 0.6011(3)
C73_9 C 0.20816(18) 0.66717(31) 0.5729(3)
C74_9 C 0.18645(18) 0.57753(32) 0.5226(3)
H56_9 H 0.1992 0.5726 0.5065
C75_9 C 0.1808(2) 0.64030(34) 0.6501(3)
H57_6 H 0.1686 0.6227 0.6669
C76_9 C 0.1784(2) 0.6117(4) 0.5722(3)
C77_9 C 0.2631(2) 0.7307(4) 0.5490(3)
H58_9 H 0.2697 0.7173 0.5470
C78_9 C 0.18979(18) 0.64040(31) 0.5995(3)
C79_9 C 0.2295(2) 0.7449(4) 0.5812(4)
H59_9 H 0.2131 0.7409 0.6006
C80_6 C 0.17963(17) 0.66830(30) 0.7244(3)
C81_9 C 0.2458(2) 0.7723(4) 0.5590(4)
H60_9 H 0.2402 0.7864 0.5632
C82_9 C 0.15511(17) 0.55799(30) 0.5215(3)
C83_9 C 0.1486(3) 0.5918(5) 0.5747(6)
H61_9 H 0.1358 0.5960 0.5926
C84_9 C 0.1382(3) 0.5643(5) 0.5481(5)
H62_9 H 0.1184 0.5504 0.5502
O32_9 O 0.35820(19) 0.97876(32) 0.3696(3)
H63_9 H 0.3518 0.9913 0.3747
H64_9 H 0.3549 0.9748 0.3362
Zr11_6 Zr 0.08848(2) 0.46331(3) 0.47857(2)
O35_9 O 0.36687(13) 0.88820(21) 0.41106(19)
O44_9 O 0.37802(14) 0.94005(24) 0.4072(2)
O47_9 O 0.36697(17) 0.97525(28) 0.4692(2)
O7_3 O 0.45894(14) 0.09345(15) 0.9381(2)
N3_4 N 0.43051(19) 0.06137(16) 0.6889(3)
H7_4 H 0.4268 0.0668 0.7181
H8_4 H 0.4149 0.0544 0.6698
C5_5 C 0.4543(2) 0.0846(2) 0.6657(3)
C6_5 C 0.4835(3) 0.1081(2) 0.5891(3)
H14_5 H 0.4871 0.1076 0.5543
C8_4 C 0.4727(2) 0.11006(19) 0.6948(3)
C14_5 C 0.5024(3) 0.13311(18) 0.6167(3)
C18_5 C 0.4595(2) 0.0837(2) 0.6108(3)
C21_4 C 0.4961(3) 0.1342(2) 0.6691(3)
H20_4 H 0.5077 0.1515 0.6873
C23_4 C 0.45637(19) 0.10907(19) 0.8547(3)
C24_5 C 0.4415(3) 0.0567(2) 0.5817(3)
C26_4 C 0.4676(2) 0.11087(18) 0.7512(3)
C30_5 C 0.4234(3) 0.0561(2) 0.5426(3)
H23_5 H 0.4238 0.0735 0.5338
C31_4 C 0.4503(2) 0.10732(17) 0.9124(3)
C32_5 C 0.4054(3) 0.00471(19) 0.5279(3)
C33_4 C 0.4487(4) 0.1244(3) 0.8233(4)
H24_4 H 0.4404 0.1349 0.8370
C34_4 C 0.4699(3) 0.0944(3) 0.8362(3)
H25_4 H 0.4753 0.0839 0.8580
C35_5 C 0.4401(3) 0.0303(2) 0.5945(4)
H26_5 H 0.4507 0.0297 0.6226
C37_5 C 0.5277(4) 0.1571(3) 0.5945(4)
C39_4 C 0.4754(3) 0.0957(3) 0.7829(3)
H29_4 H 0.4846 0.0860 0.7695
C40_5 C 0.4039(3) 0.0296(2) 0.5151(3)
H30_5 H 0.3911 0.0292 0.4900
C41_4 C 0.4531(4) 0.1246(3) 0.7696(4)
H31_4 H 0.4463 0.1339 0.7475
C42_5 C 0.4230(4) 0.0043(3) 0.5662(4)
N4_5 N 0.5483(4) 0.1777(3) 0.5748(4)
O9_5 O 0.39184(17) 0.95628(13) 0.5073(2)
O13_6 O 0.42292(17) 0.93572(15) 0.4674(3)
H1_6 H 0.4323 0.9394 0.4965
H2_6 H 0.4285 0.9529 0.4549
O15_6 O 0.3847(3) 0.95072(19) 0.3014(3)
H9_6 H 0.3854 0.9494 0.2661
H10_6 H 0.4041 0.9639 0.3087
O16_6 O 0.4175(2) 0.9324(2) 0.3416(5)
H11_6 H 0.4292 0.9560 0.3396
H12_6 H 0.4290 0.9298 0.3097
C27_6 C 0.3853(2) 0.9761(2) 0.4999(3)
H32_5 H 0.4237 0.9874 0.5733
O21_9 O 0.04372(13) 0.43555(21) 0.5073(2)
O25_11 O 0.06428(15) 0.48719(23) 0.4674(3)
H33_11 H 0.0606 0.4928 0.4965
H34_11 H 0.0471 0.4755 0.4549
O26_11 O 0.04928(19) 0.43394(36) 0.3014(3)
H37_11 H 0.0506 0.4359 0.2661
H38_11 H 0.0361 0.4401 0.3087
O27_11 O 0.0676(2) 0.4850(3) 0.3416(5)
H39_11 H 0.0440 0.4731 0.3396
H40_11 H 0.0702 0.4991 0.3097
C52_11 C 0.0239(2) 0.4091(3) 0.4999(3)
H50_9 H 0.0126 0.4362 0.5733
O41_5 O 0.09345(15) 0.45894(14) 0.5619(2)
O42_3 O 0.36548(21) 0.90655(15) 0.5619(2)
O45_5 O 0.10216(15) 0.45218(15) 0.2621(2)
O46_3 O 0.35001(21) 0.89784(15) 0.2621(2)
O20_5 O 0.90655(15) 0.36548(21) 0.9381(2)
N5_7 N 0.93863(16) 0.36913(25) 0.6889(3)
H35_7 H 0.9332 0.3599 0.7181
H36_7 H 0.9456 0.3604 0.6698
C43_9 C 0.9154(2) 0.3696(3) 0.6657(3)
C44_9 C 0.8919(2) 0.3753(4) 0.5891(3)
H41_9 H 0.8924 0.3794 0.5543
C45_7 C 0.88994(19) 0.36260(28) 0.6948(3)
C46_9 C 0.86689(18) 0.36925(35) 0.6167(3)
C47_9 C 0.9163(2) 0.3757(3) 0.6108(3)
C48_7 C 0.8658(2) 0.3618(4) 0.6691(3)
H42_7 H 0.8485 0.3561 0.6873
C49_7 C 0.89093(19) 0.34729(27) 0.8547(3)
C50_9 C 0.9433(2) 0.3847(4) 0.5817(3)
C51_7 C 0.88913(18) 0.35669(27) 0.7512(3)
C53_9 C 0.9439(2) 0.3672(4) 0.5426(3)
H43_9 H 0.9265 0.3502 0.5338
C54_7 C 0.89268(17) 0.34294(26) 0.9124(3)
C55_9 C 0.99529(19) 0.40065(36) 0.5279(3)
C56_5 C 0.8756(3) 0.3242(5) 0.8233(4)
H44_7 H 0.8651 0.3054 0.8370
C57_7 C 0.9056(3) 0.3754(4) 0.8362(3)
H45_7 H 0.9161 0.3913 0.8580
C58_9 C 0.9697(2) 0.4097(4) 0.5945(4)
H46_9 H 0.9703 0.4209 0.6226
C59_9 C 0.8429(3) 0.3705(5) 0.5945(4)
C60_7 C 0.9043(3) 0.3796(4) 0.7829(3)
H47_7 H 0.9140 0.3985 0.7695
C61_9 C 0.9704(2) 0.3742(4) 0.5151(3)
H48_10 H 0.9708 0.3618 0.4900
C62_5 C 0.8754(3) 0.3284(5) 0.7696(4)
H49_5 H 0.8661 0.3123 0.7475
C63_9 C 0.9957(3) 0.4186(5) 0.5662(4)
N6_9 N 0.8223(3) 0.3705(5) 0.5748(4)
O20_6 O 0.63452(21) 0.54106(26) 0.9381(2)
O21_10 O 0.56445(21) 0.60816(25) 0.5073(2)
O25_12 O 0.51281(23) 0.57708(27) 0.4674(3)
H33_12 H 0.5072 0.5677 0.4965
H34_12 H 0.5245 0.5715 0.4549
N5_8 N 0.63087(25) 0.56949(30) 0.6889(3)
H35_8 H 0.6401 0.5732 0.7181
H36_8 H 0.6396 0.5851 0.6698
O26_12 O 0.56606(36) 0.61533(41) 0.3014(3)
H37_12 H 0.5641 0.6146 0.2661
H38_12 H 0.5599 0.5959 0.3087
O27_12 O 0.5150(3) 0.5825(4) 0.3416(5)
H39_12 H 0.5269 0.5708 0.3396
H40_12 H 0.5009 0.5710 0.3097
C43_10 C 0.6304(3) 0.5457(4) 0.6657(3)
C44_10 C 0.6247(4) 0.5165(4) 0.5891(3)
H41_10 H 0.6206 0.5129 0.5543
C45_8 C 0.63740(28) 0.52733(34) 0.6948(3)
C46_10 C 0.63075(35) 0.49763(39) 0.6167(3)
C47_10 C 0.6243(3) 0.5405(4) 0.6108(3)
C48_8 C 0.6382(4) 0.5039(4) 0.6691(3)
H42_8 H 0.6439 0.4923 0.6873
C49_8 C 0.65271(27) 0.54363(33) 0.8547(3)
C50_10 C 0.6153(4) 0.5585(4) 0.5817(3)
C51_8 C 0.64331(27) 0.53243(32) 0.7512(3)
C52_12 C 0.5909(3) 0.6147(4) 0.4999(3)
C53_10 C 0.6328(4) 0.5766(4) 0.5426(3)
H43_10 H 0.6498 0.5762 0.5338
C54_8 C 0.65706(26) 0.54973(31) 0.9124(3)
C55_10 C 0.59935(36) 0.59463(41) 0.5279(3)
C56_6 C 0.6758(5) 0.5513(6) 0.8233(4)
H44_8 H 0.6946 0.5596 0.8370
C57_8 C 0.6246(4) 0.5301(5) 0.8362(3)
H45_8 H 0.6087 0.5247 0.8580
C58_10 C 0.5903(4) 0.5599(4) 0.5945(4)
H46_10 H 0.5791 0.5493 0.6226
C59_10 C 0.6295(5) 0.4723(6) 0.5945(4)
C60_8 C 0.6204(4) 0.5246(5) 0.7829(3)
H47_8 H 0.6015 0.5154 0.7695
C61_10 C 0.6258(4) 0.5961(4) 0.5151(3)
H48_11 H 0.6382 0.6089 0.4900
C62_6 C 0.6716(5) 0.5469(6) 0.7696(4)
H49_6 H 0.6877 0.5537 0.7475
C63_10 C 0.5814(5) 0.5770(6) 0.5662(4)
H50_10 H 0.5638 0.5763 0.5733
N6_10 N 0.6295(5) 0.4517(6) 0.5748(4)
O41_6 O 0.54106(14) 0.63452(21) 0.5619(2)
O45_6 O 0.54782(15) 0.64999(21) 0.2621(2)
N7_7 N 0.16658(21) 0.16150(15) 0.0958(2)
C67_7 C 0.14342(25) 0.14283(19) 0.0080(3)
H55_7 H 0.1627 0.1183 0.0016
H57_7 H 0.1208 0.1648 0.0003
C80_7 C 0.15534(25) 0.15371(17) 0.0578(3)
H57_8 H 0.0439 0.8792 0.0003
N7_8 N 0.99491(26) 0.83342(21) 0.0958(2)
C67_8 C 0.99940(31) 0.85658(25) 0.0080(3)
H55_8 H 0.9555 0.8373 0.0016
C80_8 C 0.99836(30) 0.84466(25) 0.0578(3)
H57_9 H 0.8352 0.9561 0.0003
N3_5 N 0.09717(19) 0.39471(16) 0.0223(3)
H7_5 H 0.0934 0.4002 0.0515
H8_5 H 0.0815 0.3878 0.0032
C8_5 C 0.1393(2) 0.44340(19) 0.0282(3)
C21_5 C 0.1627(3) 0.4676(2) 0.0025(3)
H20_5 H 0.1743 0.4849 0.0207
C23_5 C 0.12303(19) 0.44241(19) 0.1881(3)
C26_5 C 0.1342(2) 0.44421(18) 0.0846(3)
C31_5 C 0.1169(2) 0.44066(17) 0.2458(3)
C33_5 C 0.1153(4) 0.4578(3) 0.1567(4)
H24_5 H 0.1070 0.4683 0.1704
C34_5 C 0.1365(3) 0.4278(3) 0.1696(3)
H25_5 H 0.1419 0.4173 0.1914
C39_5 C 0.1420(3) 0.4291(3) 0.1163(3)
H29_5 H 0.1512 0.4194 0.1029
C41_5 C 0.1197(4) 0.4580(3) 0.1030(4)
H31_5 H 0.1129 0.4673 0.0809
N5_9 N 0.60529(16) 0.70247(25) 0.0223(3)
H35_9 H 0.5998 0.6933 0.0515
H36_9 H 0.6122 0.6938 0.0032
C45_9 C 0.55660(19) 0.69594(28) 0.0282(3)
C48_9 C 0.5324(2) 0.6952(4) 0.0025(3)
H42_9 H 0.5151 0.6895 0.0207
C49_9 C 0.55759(19) 0.68063(27) 0.1881(3)
C51_9 C 0.55579(18) 0.69003(27) 0.0846(3)
C54_9 C 0.55934(17) 0.67628(26) 0.2458(3)
C56_7 C 0.5422(3) 0.6576(5) 0.1567(4)
H44_9 H 0.5317 0.6388 0.1704
C57_9 C 0.5722(3) 0.7088(4) 0.1696(3)
H45_9 H 0.5827 0.7247 0.1914
C60_9 C 0.5709(3) 0.7130(4) 0.1163(3)
H47_9 H 0.5806 0.7319 0.1029
C62_7 C 0.5420(3) 0.6618(5) 0.1030(4)
H49_7 H 0.5327 0.6457 0.0809
N5_10 N 0.29753(25) 0.90283(30) 0.0223(3)
H35_10 H 0.3067 0.9066 0.0515
H36_10 H 0.3062 0.9185 0.0032
C45_10 C 0.30406(28) 0.86067(34) 0.0282(3)
C48_10 C 0.3048(4) 0.8373(4) 0.0025(3)
H42_10 H 0.3105 0.8257 0.0207
C49_10 C 0.31937(27) 0.87697(33) 0.1881(3)
C51_10 C 0.30997(27) 0.86577(32) 0.0846(3)
C54_10 C 0.32372(26) 0.88307(31) 0.2458(3)
C56_8 C 0.3424(5) 0.8847(6) 0.1567(4)
H44_10 H 0.3612 0.8930 0.1704
C57_10 C 0.2912(4) 0.8635(5) 0.1696(3)
H45_10 H 0.2753 0.8581 0.1914
C60_10 C 0.2870(4) 0.8580(5) 0.1163(3)
H47_10 H 0.2681 0.8488 0.1029
C62_8 C 0.3382(5) 0.8803(6) 0.1030(4)
H49_8 H 0.3543 0.8871 0.0809
N3_6 N 0.06137(16) 0.43051(19) 0.8111(3)
H7_6 H 0.0668 0.4268 0.7819
H8_6 H 0.0544 0.4149 0.8302
C5_6 C 0.0846(2) 0.4543(2) 0.8343(3)
C6_6 C 0.1081(2) 0.4835(3) 0.9109(3)
H14_6 H 0.1076 0.4871 0.9457
C8_6 C 0.11006(19) 0.4727(2) 0.8052(3)
C14_6 C 0.13311(18) 0.5024(3) 0.8833(3)
C18_6 C 0.0837(2) 0.4595(2) 0.8892(3)
C21_6 C 0.1342(2) 0.4961(3) 0.8309(3)
H20_6 H 0.1515 0.5077 0.8127
C23_6 C 0.10907(19) 0.45637(19) 0.6453(3)
C24_6 C 0.0567(2) 0.4415(3) 0.9183(3)
C26_6 C 0.11087(18) 0.4676(2) 0.7488(3)
C30_6 C 0.0561(2) 0.4234(3) 0.9574(3)
H23_6 H 0.0735 0.4238 0.9662
C31_6 C 0.10732(17) 0.4503(2) 0.5876(3)
C32_6 C 0.00471(19) 0.4054(3) 0.9721(3)
C33_6 C 0.1244(3) 0.4487(4) 0.6767(4)
H24_6 H 0.1349 0.4404 0.6630
C34_6 C 0.0944(3) 0.4699(3) 0.6638(3)
H25_6 H 0.0839 0.4753 0.6420
C35_6 C 0.0303(2) 0.4401(3) 0.9055(4)
H26_6 H 0.0297 0.4507 0.8774
C37_6 C 0.1571(3) 0.5277(4) 0.9055(4)
C39_6 C 0.0957(3) 0.4754(3) 0.7171(3)
H29_6 H 0.0860 0.4846 0.7305
C40_6 C 0.0296(2) 0.4039(3) 0.9849(3)
C41_6 C 0.1246(3) 0.4531(4) 0.7304(4)
H31_6 H 0.1339 0.4463 0.7525
C42_6 C 0.0043(3) 0.4230(4) 0.9338(4)
N4_6 N 0.1777(3) 0.5483(4) 0.9252(4)
O9_6 O 0.95628(13) 0.39184(17) 0.9927(2)
H32_6 H 0.9874 0.4237 0.9267
O21_11 O 0.43555(21) 0.04372(13) 0.9927(2)
H50_11 H 0.4362 0.0126 0.9267
N5_11 N 0.36913(25) 0.93863(16) 0.8111(3)
H35_11 H 0.3599 0.9332 0.7819
H36_11 H 0.3604 0.9456 0.8302
C43_11 C 0.3696(3) 0.9154(2) 0.8343(3)
C44_11 C 0.3753(4) 0.8919(2) 0.9109(3)
H41_11 H 0.3794 0.8924 0.9457
C45_11 C 0.36260(28) 0.88994(19) 0.8052(3)
C46_11 C 0.36925(35) 0.86689(18) 0.8833(3)
C47_11 C 0.3757(3) 0.9163(2) 0.8892(3)
C48_11 C 0.3618(4) 0.8658(2) 0.8309(3)
H42_11 H 0.3561 0.8485 0.8127
C49_11 C 0.34729(27) 0.89093(19) 0.6453(3)
C50_11 C 0.3847(4) 0.9433(2) 0.9183(3)
C51_11 C 0.35669(27) 0.88913(18) 0.7488(3)
C53_11 C 0.3672(4) 0.9439(2) 0.9574(3)
H43_11 H 0.3502 0.9265 0.9662
C54_11 C 0.34294(26) 0.89268(17) 0.5876(3)
C55_11 C 0.40065(36) 0.99529(19) 0.9721(3)
C56_9 C 0.3242(5) 0.8756(3) 0.6767(4)
H44_11 H 0.3054 0.8651 0.6630
C57_11 C 0.3754(4) 0.9056(3) 0.6638(3)
H45_11 H 0.3913 0.9161 0.6420
C58_11 C 0.4097(4) 0.9697(2) 0.9055(4)
H46_11 H 0.4209 0.9703 0.8774
C59_11 C 0.3705(5) 0.8429(3) 0.9055(4)
C60_11 C 0.3796(4) 0.9043(3) 0.7171(3)
H47_11 H 0.3985 0.9140 0.7305
C61_11 C 0.3742(4) 0.9704(2) 0.9849(3)
C62_9 C 0.3284(5) 0.8754(3) 0.7304(4)
H49_9 H 0.3123 0.8661 0.7525
C63_11 C 0.4186(5) 0.9957(3) 0.9338(4)
N6_11 N 0.3705(5) 0.8223(3) 0.9252(4)
O21_12 O 0.60816(25) 0.56445(21) 0.9927(2)
N5_12 N 0.56949(30) 0.63087(25) 0.8111(3)
H35_12 H 0.5732 0.6401 0.7819
H36_12 H 0.5851 0.6396 0.8302
C43_12 C 0.5457(4) 0.6304(3) 0.8343(3)
C44_12 C 0.5165(4) 0.6247(4) 0.9109(3)
H41_12 H 0.5129 0.6206 0.9457
C45_12 C 0.52733(34) 0.63740(28) 0.8052(3)
C46_12 C 0.49763(39) 0.63075(35) 0.8833(3)
C47_12 C 0.5405(4) 0.6243(3) 0.8892(3)
C48_12 C 0.5039(4) 0.6382(4) 0.8309(3)
H42_12 H 0.4923 0.6439 0.8127
C49_12 C 0.54363(33) 0.65271(27) 0.6453(3)
C50_12 C 0.5585(4) 0.6153(4) 0.9183(3)
C51_12 C 0.53243(32) 0.64331(27) 0.7488(3)
C53_12 C 0.5766(4) 0.6328(4) 0.9574(3)
H43_12 H 0.5762 0.6498 0.9662
C54_12 C 0.54973(31) 0.65706(26) 0.5876(3)
C55_12 C 0.59463(41) 0.59935(36) 0.9721(3)
C56_10 C 0.5513(6) 0.6758(5) 0.6767(4)
H44_12 H 0.5596 0.6946 0.6630
C57_12 C 0.5301(5) 0.6246(4) 0.6638(3)
H45_12 H 0.5247 0.6087 0.6420
C58_12 C 0.5599(4) 0.5903(4) 0.9055(4)
H46_12 H 0.5493 0.5791 0.8774
C59_12 C 0.4723(6) 0.6295(5) 0.9055(4)
C60_12 C 0.5246(5) 0.6204(4) 0.7171(3)
H47_12 H 0.5154 0.6015 0.7305
C61_12 C 0.5961(4) 0.6258(4) 0.9849(3)
C62_10 C 0.5469(6) 0.6716(5) 0.7304(4)
H49_10 H 0.5537 0.6877 0.7525
C63_12 C 0.5770(6) 0.5814(5) 0.9338(4)
H50_12 H 0.5763 0.5638 0.9267
N6_12 N 0.4517(6) 0.6295(5) 0.9252(4)
C56_11 C 0.9909(5) 0.2089(3) 0.0100(4)
C62_11 C 0.9951(5) 0.2087(3) 0.0637(4)
H49_11 H 0.9790 0.1994 0.0858
C56_12 C 0.2180(6) 0.0091(5) 0.0100(4)
C62_12 C 0.2136(6) 0.0049(5) 0.0637(4)
H49_12 H 0.2204 0.0210 0.0858
N7_9 N 0.83850(15) 0.00509(26) 0.0958(2)
C67_9 C 0.85717(19) 0.00060(31) 0.0080(3)
H55_9 H 0.8817 0.0445 0.0016
C80_9 C 0.84629(17) 0.00164(30) 0.0578(3)
H30_6 H 0.0292 0.3911 0.0100
H48_12 H 0.3618 0.9708 0.0100
O23_7 O 0.78551(15) 0.01668(21) 0.4046(2)
C56_13 C 0.7911(3) 0.0091(5) 0.5100(4)
H44_13 H 0.8016 0.0279 0.4963
C62_13 C 0.7913(3) 0.0049(5) 0.5637(4)
H49_13 H 0.8006 0.0210 0.5858
Zr13_5 Zr 0.79344(3) 0.03464(2) 0.32458(2)
Zr1_5 Zr 0.3333 0.48890(2) 0.9167
Zr2_3 Zr 0.29183(2) 0.42181(2) 0.85476(2)
Zr3_3 Zr 0.29869(2) 0.42546(2) 0.99125(2)
Zr4_5 Zr 0.3333 0.39499(2) 0.9167
O1_4 O 0.32958(13) 0.46650(12) 0.84197(18)
O2_4 O 0.29980(13) 0.44513(11) 0.92227(19)
O3_10 O 0.36175(12) 0.52463(12) 0.86332(18)
O4_4 O 0.33076(14) 0.42057(13) 0.85951(19)
O5_7 O 0.50626(13) 0.80663(13) 0.8706(2)
O6_10 O 0.38480(13) 0.50606(13) 0.8161(2)
O7_4 O 0.20773(14) 0.23988(15) 0.3952(2)
O8_7 O 0.54961(13) 0.82198(13) 0.83228(19)
O9_7 O 0.27483(17) 0.37705(13) 0.8260(2)
O10_4 O 0.28865(14) 0.39328(13) 0.9261(2)
O11_4 O 0.23117(15) 0.21449(15) 0.4046(2)
O12_4 O 0.29970(17) 0.35808(14) 0.8641(2)
O13_7 O 0.24375(17) 0.39761(15) 0.8659(3)
H1_7 H 0.2344 0.3939 0.8368
H2_7 H 0.2382 0.3804 0.8784
O14_10 O 0.30847(19) 0.35457(18) 0.9637(3)
H3_10 H 0.3149 0.3420 0.9586
H4_10 H 0.3118 0.3585 0.9971
N1_10 N 0.49483(15) 0.66158(15) 0.5709(2)
N2_10 N 0.45148(18) 0.66663(18) 0.8099(3)
H5_10 H 0.4660 0.6808 0.8263
H6_10 H 0.4471 0.6501 0.8246
N3_7 N 0.23616(19) 0.27196(16) 0.6444(3)
H7_7 H 0.2399 0.2665 0.6152
H8_7 H 0.2518 0.2789 0.6635
C1_10 C 0.39611(18) 0.55457(18) 0.8030(3)
O16_7 O 0.2492(2) 0.4009(2) 0.9917(5)
H11_7 H 0.2375 0.3773 0.9937
C2_10 C 0.52295(18) 0.80405(17) 0.8400(3)
C3_10 C 0.3878(2) 0.5761(2) 0.8067(3)
H13_10 H 0.3710 0.5719 0.8252
C4_10 C 0.47616(19) 0.66607(17) 0.6587(3)
C5_7 C 0.2124(2) 0.2487(2) 0.6676(3)
C6_7 C 0.1832(3) 0.2252(2) 0.7442(3)
H14_7 H 0.1796 0.2257 0.7790
C7_10 C 0.42983(19) 0.61029(18) 0.7577(3)
C8_7 C 0.1940(2) 0.22327(19) 0.6385(3)
C9_10 C 0.4698(2) 0.72974(19) 0.7851(3)
H15_10 H 0.4496 0.7170 0.7837
C10_10 C 0.37892(17) 0.52589(18) 0.8296(3)
C11_10 C 0.45765(18) 0.63975(17) 0.6826(3)
H16_10 H 0.4516 0.6222 0.6651
C12_10 C 0.44788(16) 0.63893(17) 0.7322(3)
C13_10 C 0.45851(18) 0.66616(18) 0.7604(3)
C14_7 C 0.1643(3) 0.20022(18) 0.7166(3)
C15_10 C 0.48022(18) 0.7558(2) 0.8107(3)
H17_10 H 0.4675 0.7607 0.8268
C16_10 C 0.4859(2) 0.69303(19) 0.6832(3)
H18_10 H 0.4981 0.7106 0.6664
C17_10 C 0.4883(2) 0.7216(2) 0.7611(3)
C18_7 C 0.2072(2) 0.2496(2) 0.7225(3)
C19_10 C 0.4036(2) 0.6026(2) 0.7843(3)
H19_10 H 0.3970 0.6160 0.7863
C20_10 C 0.47688(18) 0.69293(18) 0.7338(3)
C21_7 C 0.1706(3) 0.1991(2) 0.6642(3)
H20_7 H 0.1590 0.1818 0.6460
C22_10 C 0.4372(2) 0.5884(2) 0.7521(4)
H21_10 H 0.4536 0.5924 0.7327
C23_7 C 0.21030(19) 0.22426(19) 0.4786(3)
C24_7 C 0.2252(3) 0.2766(2) 0.7516(3)
C25_10 C 0.48704(17) 0.66503(18) 0.6089(3)
C26_7 C 0.1991(2) 0.22246(18) 0.5821(3)
C27_7 C 0.2814(2) 0.3572(2) 0.8334(3)
C28_10 C 0.4209(2) 0.5610(2) 0.7743(4)
H22_10 H 0.4265 0.5469 0.7701
C29_10 C 0.51156(17) 0.77534(18) 0.8118(3)
C30_7 C 0.2433(3) 0.2772(2) 0.7907(3)
H23_7 H 0.2429 0.2598 0.7995
C31_7 C 0.2164(2) 0.22601(17) 0.4209(3)
C32_7 C 0.2613(3) 0.32862(19) 0.8054(3)
C33_7 C 0.2180(4) 0.2089(3) 0.5100(4)
H24_7 H 0.2263 0.1984 0.4963
C34_7 C 0.1968(3) 0.2389(3) 0.4971(3)
H25_7 H 0.1914 0.2494 0.4753
C35_7 C 0.2266(3) 0.3030(2) 0.7388(4)
H26_7 H 0.2160 0.3036 0.7107
C36_10 C 0.5181(3) 0.7415(3) 0.7586(6)
H27_10 H 0.5309 0.7373 0.7407
C37_7 C 0.1390(4) 0.1762(3) 0.7388(4)
C38_10 C 0.5285(3) 0.7690(3) 0.7852(5)
H28_10 H 0.5483 0.7829 0.7831
C39_7 C 0.1913(3) 0.2376(3) 0.5504(3)
H29_7 H 0.1821 0.2473 0.5638
C40_7 C 0.2628(3) 0.3037(2) 0.8182(3)
H30_7 H 0.2756 0.3041 0.8433
C41_7 C 0.2136(4) 0.2087(3) 0.5637(4)
H31_7 H 0.2204 0.1994 0.5858
C42_7 C 0.2437(4) 0.3290(3) 0.7671(4)
H32_7 H 0.2430 0.3459 0.7600
N4_7 N 0.1184(4) 0.1556(3) 0.7585(4)
Zr5_5 Zr 0.57819(2) 0.87002(3) 0.85476(2)
Zr6_5 Zr 0.57454(2) 0.87323(3) 0.99125(2)
O17_7 O 0.53350(12) 0.86308(18) 0.84197(18)
O18_7 O 0.55487(11) 0.85467(17) 0.92227(19)
O19_7 O 0.57943(13) 0.91019(19) 0.85951(19)
O20_7 O 0.76012(15) 0.96785(21) 0.3952(2)
O21_13 O 0.62295(13) 0.89778(21) 0.8260(2)
O22_7 O 0.60672(13) 0.89537(19) 0.9261(2)
O24_7 O 0.64192(14) 0.94162(22) 0.8641(2)
O25_13 O 0.60239(15) 0.84614(23) 0.8659(3)
H33_13 H 0.6061 0.8405 0.8368
H34_13 H 0.6196 0.8578 0.8784
N5_13 N 0.72804(16) 0.96420(25) 0.6444(3)
H35_13 H 0.7335 0.9734 0.6152
H36_13 H 0.7211 0.9729 0.6635
O27_13 O 0.5991(2) 0.8483(3) 0.9917(5)
H39_13 H 0.6227 0.8602 0.9937
C43_13 C 0.7513(2) 0.9637(3) 0.6676(3)
C44_13 C 0.7748(2) 0.9580(4) 0.7442(3)
H41_13 H 0.7743 0.9539 0.7790
C45_13 C 0.77673(19) 0.97073(28) 0.6385(3)
C46_13 C 0.79978(18) 0.96408(35) 0.7166(3)
C47_13 C 0.7504(2) 0.9576(3) 0.7225(3)
C48_13 C 0.8009(2) 0.9715(4) 0.6642(3)
H42_13 H 0.8182 0.9772 0.6460
C49_13 C 0.77574(19) 0.98604(27) 0.4786(3)
C50_13 C 0.7234(2) 0.9486(4) 0.7516(3)
C51_13 C 0.77754(18) 0.97664(27) 0.5821(3)
C52_13 C 0.6428(2) 0.9242(3) 0.8334(3)
C53_13 C 0.7228(2) 0.9661(4) 0.7907(3)
H43_13 H 0.7402 0.9831 0.7995
C54_13 C 0.77399(17) 0.99039(26) 0.4209(3)
C55_13 C 0.67138(19) 0.93268(36) 0.8054(3)
C57_13 C 0.7611(3) 0.9579(4) 0.4971(3)
H45_13 H 0.7506 0.9420 0.4753
C58_13 C 0.6970(2) 0.9236(4) 0.7388(4)
H46_13 H 0.6964 0.9124 0.7107
C59_13 C 0.8238(3) 0.9628(5) 0.7388(4)
C60_13 C 0.7624(3) 0.9537(4) 0.5504(3)
H47_13 H 0.7527 0.9348 0.5638
C61_13 C 0.6963(2) 0.9591(4) 0.8182(3)
H48_13 H 0.6959 0.9715 0.8433
C63_13 C 0.6710(3) 0.9147(5) 0.7671(4)
H50_13 H 0.6541 0.8971 0.7600
N6_13 N 0.8444(3) 0.9628(5) 0.7585(4)
O28_10 O 0.30492(12) 0.49621(17) 0.97001(18)
O29_4 O 0.16041(13) 0.63370(18) 0.9627(2)
C65_10 C 0.14372(18) 0.61443(25) 0.9933(3)
O32_10 O 0.35820(19) 0.37943(26) 0.8696(3)
H63_10 H 0.3518 0.3604 0.8747
H64_10 H 0.3549 0.3800 0.8362
Zr7_4 Zr 0.51110(2) 0.84440(2) 0.9167
Zr8_5 Zr 0.15560(2) 0.6667 0.9167
Zr9_5 Zr 0.75514(2) 0.95850(2) 0.31191(2)
Zr10_3 Zr 0.20335(3) 0.24486(2) 0.31191(2)
Zr11_7 Zr 0.08848(2) 0.62516(2) 0.97857(2)
Zr12_3 Zr 0.24121(2) 0.20656(3) 0.32458(2)
Zr14_5 Zr 0.53990(3) 0.90787(2) 0.84208(2)
Zr15_3 Zr 0.36798(2) 0.46010(3) 0.84208(2)
Zr16_8 Zr 0.60501(2) 0.93831(2) 0.9167
O33_7 O 0.52975(18) 0.86683(12) 0.99136(18)
O34_4 O 0.33709(13) 0.47025(18) 0.99136(18)
O35_10 O 0.36687(13) 0.47866(17) 0.91106(19)
O36_7 O 0.57686(19) 0.91276(13) 0.97382(19)
O37_4 O 0.33591(14) 0.42314(19) 0.97382(19)
O38_4 O 0.30037(18) 0.49374(13) 0.8706(2)
O39_7 O 0.36630(18) 0.52670(13) 0.9627(2)
O41_7 O 0.57321(15) 0.87440(14) 0.7715(2)
O42_4 O 0.30118(21) 0.42679(15) 0.7715(2)
O43_4 O 0.27237(18) 0.45039(13) 0.83228(19)
O44_10 O 0.37802(14) 0.43796(19) 0.9072(2)
O47_10 O 0.36697(17) 0.39171(22) 0.9692(2)
O3_11 O 0.47537(12) 0.83712(17) 0.86332(18)
O5_8 O 0.19337(13) 0.69963(18) 0.8706(2)
O6_11 O 0.49394(13) 0.87874(18) 0.8161(2)
O8_8 O 0.17802(13) 0.72763(18) 0.83228(19)
O14_11 O 0.64543(18) 0.95390(26) 0.9637(3)
H3_11 H 0.6580 0.9729 0.9586
H4_11 H 0.6415 0.9533 0.9971
N1_11 N 0.33842(15) 0.83325(21) 0.5709(2)
N2_11 N 0.33337(18) 0.78485(25) 0.8099(3)
H5_11 H 0.3192 0.7852 0.8263
H6_11 H 0.3499 0.7970 0.8246
C1_11 C 0.44543(18) 0.84154(25) 0.8030(3)
C2_11 C 0.19595(17) 0.71890(25) 0.8400(3)
C3_11 C 0.4239(2) 0.8117(3) 0.8067(3)
H13_11 H 0.4281 0.7991 0.8252
C4_11 C 0.33393(17) 0.81009(25) 0.6587(3)
C7_11 C 0.38971(18) 0.81954(26) 0.7577(3)
C9_11 C 0.27026(19) 0.74006(28) 0.7851(3)
H15_11 H 0.2830 0.7326 0.7837
C10_11 C 0.47411(18) 0.85303(25) 0.8296(3)
C11_11 C 0.36025(17) 0.81790(25) 0.6826(3)
H16_11 H 0.3778 0.8294 0.6651
C12_11 C 0.36107(17) 0.80895(23) 0.7322(3)
C13_11 C 0.33384(18) 0.79235(25) 0.7604(3)
C15_11 C 0.2442(2) 0.72442(27) 0.8107(3)
H17_11 H 0.2393 0.7068 0.8268
C16_11 C 0.30697(19) 0.79287(28) 0.6832(3)
H18_11 H 0.2894 0.7875 0.6664
C17_11 C 0.2784(2) 0.7667(3) 0.7611(3)
C19_11 C 0.3974(2) 0.8010(3) 0.7843(3)
H19_11 H 0.3840 0.7810 0.7863
C20_11 C 0.30707(18) 0.78395(25) 0.7338(3)
C22_11 C 0.4116(2) 0.8488(3) 0.7521(4)
H21_11 H 0.4076 0.8612 0.7327
C25_11 C 0.33497(18) 0.82201(25) 0.6089(3)
C28_11 C 0.4390(2) 0.8599(3) 0.7743(4)
H22_11 H 0.4531 0.8796 0.7701
C29_11 C 0.22466(18) 0.73622(25) 0.8118(3)
C36_11 C 0.2585(3) 0.7766(4) 0.7586(6)
H27_11 H 0.2627 0.7936 0.7407
C38_11 C 0.2310(3) 0.7595(4) 0.7852(5)
H28_11 H 0.2171 0.7654 0.7831
Zr5_6 Zr 0.12998(3) 0.70817(4) 0.85476(2)
Zr6_6 Zr 0.12677(3) 0.70131(4) 0.99125(2)
O17_8 O 0.13692(18) 0.67042(22) 0.84197(18)
O18_8 O 0.14533(17) 0.70020(20) 0.92227(19)
O19_8 O 0.08981(19) 0.66924(23) 0.85951(19)
O20_8 O 0.03215(21) 0.79227(26) 0.3952(2)
O21_14 O 0.10222(21) 0.72517(25) 0.8260(2)
O22_8 O 0.10463(19) 0.71135(23) 0.9261(2)
O24_8 O 0.05838(22) 0.70030(26) 0.8641(2)
O25_14 O 0.15386(23) 0.75625(27) 0.8659(3)
H33_14 H 0.1595 0.7656 0.8368
H34_14 H 0.1422 0.7618 0.8784
N5_14 N 0.03580(25) 0.76384(30) 0.6444(3)
H35_14 H 0.0266 0.7601 0.6152
H36_14 H 0.0271 0.7482 0.6635
O27_14 O 0.1517(3) 0.7508(4) 0.9917(5)
H39_14 H 0.1398 0.7625 0.9937
C43_14 C 0.0363(3) 0.7876(4) 0.6676(3)
C44_14 C 0.0420(4) 0.8168(4) 0.7442(3)
H41_14 H 0.0461 0.8204 0.7790
C45_14 C 0.02927(28) 0.80600(34) 0.6385(3)
C46_14 C 0.03592(35) 0.83570(39) 0.7166(3)
C47_14 C 0.0424(3) 0.7928(4) 0.7225(3)
C48_14 C 0.0285(4) 0.8294(4) 0.6642(3)
H42_14 H 0.0228 0.8410 0.6460
C49_14 C 0.01396(27) 0.78970(33) 0.4786(3)
C50_14 C 0.0514(4) 0.7748(4) 0.7516(3)
C51_14 C 0.02336(27) 0.80090(32) 0.5821(3)
C52_14 C 0.0758(3) 0.7186(4) 0.8334(3)
C53_14 C 0.0339(4) 0.7567(4) 0.7907(3)
H43_14 H 0.0169 0.7571 0.7995
C54_14 C 0.00961(26) 0.78360(31) 0.4209(3)
C55_14 C 0.06732(36) 0.73870(41) 0.8054(3)
C57_14 C 0.0421(4) 0.8032(5) 0.4971(3)
H45_14 H 0.0580 0.8086 0.4753
C58_14 C 0.0764(4) 0.7734(4) 0.7388(4)
H46_14 H 0.0876 0.7840 0.7107
C59_14 C 0.0372(5) 0.8610(6) 0.7388(4)
C60_14 C 0.0463(4) 0.8087(5) 0.5504(3)
H47_14 H 0.0652 0.8179 0.5638
C61_14 C 0.0409(4) 0.7372(4) 0.8182(3)
H48_14 H 0.0285 0.7244 0.8433
C63_14 C 0.0853(5) 0.7563(6) 0.7671(4)
H50_14 H 0.1029 0.7570 0.7600
N6_14 N 0.0372(5) 0.8816(6) 0.7585(4)
O28_11 O 0.50379(17) 0.80870(21) 0.97001(18)
C65_11 C 0.38557(25) 0.52928(31) 0.9933(3)
O32_11 O 0.62057(26) 0.97876(32) 0.8696(3)
H63_11 H 0.6396 0.9913 0.8747
H64_11 H 0.6200 0.9748 0.8362
Zr9_6 Zr 0.04150(2) 0.79665(3) 0.31191(2)
Zr11_8 Zr 0.37484(2) 0.46331(3) 0.97857(2)
Zr14_6 Zr 0.09213(2) 0.63202(4) 0.84208(2)
Zr16_9 Zr 0.06169(2) 0.66670(3) 0.9167
O33_8 O 0.13317(12) 0.66291(22) 0.99136(18)
O35_11 O 0.52134(17) 0.88820(21) 0.91106(19)
O36_8 O 0.08724(13) 0.66409(23) 0.97382(19)
O39_8 O 0.47330(13) 0.83959(22) 0.9627(2)
O41_8 O 0.12560(14) 0.69882(21) 0.7715(2)
O44_11 O 0.56204(19) 0.94005(24) 0.9072(2)
O47_11 O 0.60829(22) 0.97525(28) 0.9692(2)
O23_8 O 0.98332(21) 0.76883(26) 0.4046(2)
C56_14 C 0.9909(5) 0.7820(6) 0.5100(4)
H44_14 H 0.9721 0.7737 0.4963
C62_14 C 0.9951(5) 0.7864(6) 0.5637(4)
H49_14 H 0.9790 0.7796 0.5858
Zr13_6 Zr 0.96536(2) 0.75879(4) 0.32458(2)
O3_12 O 0.16288(17) 0.63825(12) 0.86332(18)
O6_12 O 0.12126(18) 0.61520(13) 0.8161(2)
O14_12 O 0.04610(26) 0.69153(19) 0.9637(3)
H3_12 H 0.0271 0.6851 0.9586
H4_12 H 0.0467 0.6882 0.9971
N1_12 N 0.16675(21) 0.50517(15) 0.5709(2)
N2_12 N 0.21515(25) 0.54852(18) 0.8099(3)
H5_12 H 0.2148 0.5340 0.8263
H6_12 H 0.2030 0.5529 0.8246
C1_12 C 0.15846(25) 0.60389(18) 0.8030(3)
C2_12 C 0.28110(25) 0.47705(18) 0.8400(3)
C3_12 C 0.1883(3) 0.6122(2) 0.8067(3)
H13_12 H 0.2009 0.6290 0.8252
C4_12 C 0.18991(25) 0.52384(19) 0.6587(3)
C7_12 C 0.18046(26) 0.57017(19) 0.7577(3)
C9_12 C 0.25994(28) 0.5302(2) 0.7851(3)
H15_12 H 0.2674 0.5504 0.7837
C10_12 C 0.14697(25) 0.62108(17) 0.8296(3)
C11_12 C 0.18210(25) 0.54235(18) 0.6826(3)
H16_12 H 0.1706 0.5484 0.6651
C12_12 C 0.19105(23) 0.55212(16) 0.7322(3)
C13_12 C 0.20765(25) 0.54149(18) 0.7604(3)
C15_12 C 0.27558(27) 0.51978(18) 0.8107(3)
H17_12 H 0.2932 0.5325 0.8268
C16_12 C 0.20713(28) 0.5141(2) 0.6832(3)
H18_12 H 0.2125 0.5019 0.6664
C17_12 C 0.2333(3) 0.5117(2) 0.7611(3)
C19_12 C 0.1990(3) 0.5964(2) 0.7843(3)
H19_12 H 0.2190 0.6030 0.7863
C20_12 C 0.21605(25) 0.52312(18) 0.7338(3)
C22_12 C 0.1512(3) 0.5628(2) 0.7521(4)
H21_12 H 0.1388 0.5464 0.7327
C25_12 C 0.17799(25) 0.51296(17) 0.6089(3)
C28_12 C 0.1401(3) 0.5791(2) 0.7743(4)
H22_12 H 0.1204 0.5735 0.7701
C29_12 C 0.26378(25) 0.48844(17) 0.8118(3)
C36_12 C 0.2234(4) 0.4819(3) 0.7586(6)
H27_12 H 0.2064 0.4691 0.7407
C38_12 C 0.2405(4) 0.4715(3) 0.7852(5)
H28_12 H 0.2346 0.4517 0.7831
O28_12 O 0.19130(21) 0.69508(12) 0.97001(18)
C65_12 C 0.47072(31) 0.85628(18) 0.9933(3)
O32_12 O 0.02124(32) 0.64180(19) 0.8696(3)
H63_12 H 0.0087 0.6482 0.8747
H64_12 H 0.0252 0.6451 0.8362
Zr11_9 Zr 0.53669(3) 0.91152(2) 0.97857(2)
O35_12 O 0.11180(21) 0.63313(13) 0.91106(19)
O44_12 O 0.05995(24) 0.62198(14) 0.9072(2)
O47_12 O 0.02475(28) 0.63303(17) 0.9692(2)
O23_9 O 0.01668(21) 0.78551(15) 0.0954(2)
H44_15 H 0.0279 0.8016 0.0037
Zr13_7 Zr 0.03464(2) 0.79344(3) 0.17542(2)
O7_5 O 0.23988(15) 0.20773(14) 0.1048(2)
O11_5 O 0.21449(15) 0.23117(15) 0.0954(2)
C23_8 C 0.22426(19) 0.21030(19) 0.0214(3)
C31_8 C 0.22601(17) 0.2164(2) 0.0791(3)
H24_8 H 0.1984 0.2263 0.0037
C34_8 C 0.2389(3) 0.1968(3) 0.0029(3)
H25_8 H 0.2494 0.1914 0.0247
O20_9 O 0.96785(21) 0.76012(15) 0.1048(2)
C49_15 C 0.98604(27) 0.77574(19) 0.0214(3)
C54_15 C 0.99039(26) 0.77399(17) 0.0791(3)
C57_15 C 0.9579(4) 0.7611(3) 0.0029(3)
H45_15 H 0.9420 0.7506 0.0247
Zr9_7 Zr 0.95850(2) 0.75514(2) 0.18809(2)
Zr10_4 Zr 0.24486(2) 0.20335(3) 0.18809(2)
Zr12_4 Zr 0.20656(3) 0.24121(2) 0.17542(2)
O20_10 O 0.79227(26) 0.03215(21) 0.1048(2)
C49_16 C 0.78970(33) 0.01396(27) 0.0214(3)
C54_16 C 0.78360(31) 0.00961(26) 0.0791(3)
C57_16 C 0.8032(5) 0.0421(4) 0.0029(3)
H45_16 H 0.8086 0.0580 0.0247
Zr9_8 Zr 0.79665(3) 0.04150(2) 0.18809(2)
O23_10 O 0.76883(26) 0.98332(21) 0.0954(2)
H44_16 H 0.7737 0.9721 0.0037
Zr13_8 Zr 0.75879(4) 0.96536(2) 0.17542(2)
O5_9 O 0.13996(13) 0.17293(13) 0.2961(2)
O8_9 O 0.15531(13) 0.21628(13) 0.33439(19)
H5_13 H 0.0141 0.1327 0.3404
C2_13 C 0.13738(17) 0.18962(18) 0.3267(3)
C9_13 C 0.06307(19) 0.1365(2) 0.3816(3)
H15_13 H 0.0503 0.1163 0.3830
C15_13 C 0.0891(2) 0.14689(18) 0.3560(3)
H17_13 H 0.0940 0.1342 0.3399
C16_13 C 0.02636(19) 0.1526(2) 0.4835(3)
H18_13 H 0.0439 0.1648 0.5003
C17_13 C 0.0549(2) 0.1550(2) 0.4056(3)
C20_13 C 0.02626(18) 0.14355(18) 0.4329(3)
C29_13 C 0.10867(18) 0.17823(17) 0.3549(3)
C36_13 C 0.0748(3) 0.1848(3) 0.4081(6)
H27_13 H 0.0706 0.1976 0.4260
C38_13 C 0.1023(3) 0.1952(3) 0.3815(5)
H28_13 H 0.1162 0.2150 0.3836
O17_9 O 0.19641(18) 0.20017(12) 0.32470(18)
O18_9 O 0.18800(17) 0.22154(11) 0.24440(19)
O19_9 O 0.24352(19) 0.24610(13) 0.30716(19)
O21_15 O 0.23111(21) 0.28962(13) 0.3407(2)
O22_9 O 0.22870(19) 0.27339(13) 0.2406(2)
O23_11 O 0.35001(21) 0.45218(15) 0.7621(2)
O24_9 O 0.27495(22) 0.30859(14) 0.3026(2)
O25_15 O 0.17947(23) 0.26906(15) 0.3008(3)
H33_15 H 0.1738 0.2728 0.3299
H34_15 H 0.1911 0.2863 0.2883
N5_15 N 0.29753(25) 0.39471(16) 0.5223(3)
H35_15 H 0.3067 0.4002 0.5515
H36_15 H 0.3062 0.3878 0.5032
O26_13 O 0.23272(36) 0.28406(19) 0.1348(3)
H37_13 H 0.2307 0.2828 0.0995
H38_13 H 0.2265 0.2973 0.1421
O27_15 O 0.1816(3) 0.2658(2) 0.1750(5)
H39_15 H 0.1935 0.2894 0.1730
H40_13 H 0.1675 0.2632 0.1431
C43_15 C 0.2970(3) 0.4180(2) 0.4991(3)
C44_15 C 0.2913(4) 0.4415(2) 0.4225(3)
H41_15 H 0.2872 0.4410 0.3877
C45_15 C 0.30406(28) 0.44340(19) 0.5282(3)
C46_15 C 0.29741(35) 0.46645(18) 0.4501(3)
C47_15 C 0.2909(3) 0.4171(2) 0.4442(3)
C48_15 C 0.3048(4) 0.4676(2) 0.5025(3)
H42_15 H 0.3105 0.4849 0.5207
C49_17 C 0.31937(27) 0.44241(19) 0.6881(3)
C50_15 C 0.2819(4) 0.3901(2) 0.4151(3)
C51_15 C 0.30997(27) 0.44421(18) 0.5846(3)
C52_15 C 0.2575(3) 0.3095(2) 0.3333(3)
C53_15 C 0.2994(4) 0.3895(2) 0.3760(3)
H43_15 H 0.3164 0.4069 0.3672
C54_17 C 0.32372(26) 0.44066(17) 0.7458(3)
C55_15 C 0.26601(36) 0.33805(19) 0.3613(3)
C56_15 C 0.3424(5) 0.4578(3) 0.6567(4)
H44_17 H 0.3612 0.4683 0.6704
C57_17 C 0.2912(4) 0.4278(3) 0.6696(3)
H45_17 H 0.2753 0.4173 0.6914
C58_15 C 0.2569(4) 0.3637(2) 0.4279(4)
H46_15 H 0.2457 0.3631 0.4560
C59_15 C 0.2961(5) 0.4905(3) 0.4279(4)
C60_15 C 0.2870(4) 0.4291(3) 0.6163(3)
H47_15 H 0.2681 0.4194 0.6029
C61_15 C 0.2924(4) 0.3630(2) 0.3485(3)
H48_15 H 0.3048 0.3626 0.3234
C62_15 C 0.3382(5) 0.4580(3) 0.6030(4)
H49_15 H 0.3543 0.4673 0.5809
C63_15 C 0.2480(5) 0.3377(3) 0.3996(4)
H50_15 H 0.2304 0.3208 0.4067
N6_15 N 0.2961(5) 0.5111(3) 0.4082(4)
Zr7_5 Zr 0.17773(2) 0.17777(2) 0.2500
Zr16_10 Zr 0.27164(2) 0.27168(2) 0.2500
O33_9 O 0.20017(12) 0.19641(18) 0.17530(18)
O36_9 O 0.24610(13) 0.24352(19) 0.19284(19)
O40_7 O 0.16061(13) 0.21207(18) 0.1494(2)
Zr8_6 Zr 0.0000 0.82227(2) 0.2500
O3_13 O 0.85796(12) 0.02842(12) 0.30335(18)
O6_13 O 0.83939(13) 0.05147(13) 0.3506(2)
N1_13 N 0.99491(15) 0.16150(15) 0.5958(2)
N2_13 N 0.99996(18) 0.11815(18) 0.3568(3)
H6_13 H 0.9834 0.1138 0.3421
C1_13 C 0.88790(18) 0.06278(18) 0.3637(3)
C3_13 C 0.9094(2) 0.0545(2) 0.3600(3)
H13_13 H 0.9052 0.0377 0.3415
C4_13 C 0.99940(17) 0.14283(19) 0.5080(3)
C7_13 C 0.94362(18) 0.09650(19) 0.4090(3)
C10_13 C 0.85922(18) 0.04559(17) 0.3371(3)
C11_13 C 0.97308(17) 0.12432(18) 0.4841(3)
H16_13 H 0.9555 0.1183 0.5016
C12_13 C 0.97226(17) 0.11455(16) 0.4345(3)
C13_13 C 0.99949(18) 0.12518(18) 0.4063(3)
C19_13 C 0.9359(2) 0.0703(2) 0.3824(3)
H19_13 H 0.9493 0.0637 0.3804
C22_13 C 0.9217(2) 0.1039(2) 0.4146(4)
H21_13 H 0.9257 0.1203 0.4340
C25_13 C 0.99836(18) 0.15371(17) 0.5578(3)
C28_13 C 0.8943(2) 0.0876(2) 0.3924(4)
H22_13 H 0.8802 0.0932 0.3966
O32_13 O 0.71277(26) 0.02486(19) 0.2970(3)
H63_13 H 0.6938 0.0184 0.2919
H64_13 H 0.7134 0.0215 0.3304
O34_5 O 0.80359(18) 0.00375(13) 0.17530(18)
O35_13 O 0.81200(17) 0.03353(13) 0.25560(19)
O37_5 O 0.75648(19) 0.00257(14) 0.19284(19)
O39_9 O 0.86004(13) 0.03296(18) 0.2039(2)
O44_13 O 0.77130(19) 0.04468(14) 0.2594(2)
O47_13 O 0.72505(22) 0.03363(17) 0.1974(2)
Zr1_6 Zr 0.82223(2) 1.0000 0.2500
Zr4_6 Zr 0.72832(2) 1.0000 0.2500
O1_5 O 0.79983(12) 0.99625(13) 0.32470(18)
O2_5 O 0.77846(11) 0.96647(13) 0.24440(19)
O4_5 O 0.75390(13) 0.99743(14) 0.30716(19)
O9_8 O 0.71038(13) 0.94150(17) 0.3407(2)
O10_5 O 0.72661(13) 0.95532(14) 0.2406(2)
O11_6 O 0.54782(15) 0.89784(15) 0.7621(2)
O12_5 O 0.69141(14) 0.96637(17) 0.3026(2)
O13_8 O 0.73094(15) 0.91042(17) 0.3008(3)
H1_8 H 0.7272 0.9011 0.3299
H2_8 H 0.7137 0.9049 0.2883
O14_13 O 0.68790(18) 0.97514(19) 0.2030(3)
H3_13 H 0.6753 0.9816 0.2081
H4_13 H 0.6918 0.9785 0.1696
N3_8 N 0.60529(16) 0.90283(19) 0.5223(3)
H7_8 H 0.5998 0.9066 0.5515
H8_8 H 0.6122 0.9185 0.5032
O15_7 O 0.71594(19) 0.9487(3) 0.1348(3)
H9_7 H 0.7172 0.9480 0.0995
H10_7 H 0.7027 0.9293 0.1421
O16_8 O 0.7342(2) 0.9159(2) 0.1750(5)
H11_8 H 0.7106 0.9042 0.1730
H12_7 H 0.7368 0.9044 0.1431
C5_8 C 0.5820(2) 0.8791(2) 0.4991(3)
C6_8 C 0.5585(2) 0.8499(3) 0.4225(3)
H14_8 H 0.5590 0.8463 0.3877
C8_8 C 0.55660(19) 0.8607(2) 0.5282(3)
C14_8 C 0.53355(18) 0.8310(3) 0.4501(3)
C18_8 C 0.5829(2) 0.8739(2) 0.4442(3)
C21_8 C 0.5324(2) 0.8373(3) 0.5025(3)
H20_8 H 0.5151 0.8257 0.5207
C23_9 C 0.55759(19) 0.87697(19) 0.6881(3)
C24_8 C 0.6099(2) 0.8919(3) 0.4151(3)
C26_8 C 0.55579(18) 0.8658(2) 0.5846(3)
C27_8 C 0.6905(2) 0.9481(2) 0.3333(3)
C30_8 C 0.6105(2) 0.9100(3) 0.3760(3)
H23_8 H 0.5931 0.9096 0.3672
C31_9 C 0.55934(17) 0.8831(2) 0.7458(3)
C32_8 C 0.66195(19) 0.9280(3) 0.3613(3)
C33_8 C 0.5422(3) 0.8847(4) 0.6567(4)
H24_9 H 0.5317 0.8930 0.6704
C34_9 C 0.5722(3) 0.8635(3) 0.6696(3)
H25_9 H 0.5827 0.8581 0.6914
C35_8 C 0.6363(2) 0.8933(3) 0.4279(4)
H26_8 H 0.6369 0.8827 0.4560
C37_8 C 0.5095(3) 0.8057(4) 0.4279(4)
C39_8 C 0.5709(3) 0.8580(3) 0.6163(3)
H29_8 H 0.5806 0.8488 0.6029
C40_8 C 0.6370(2) 0.9295(3) 0.3485(3)
H30_8 H 0.6374 0.9423 0.3234
C41_8 C 0.5420(3) 0.8803(4) 0.6030(4)
H31_8 H 0.5327 0.8871 0.5809
C42_8 C 0.6623(3) 0.9104(4) 0.3996(4)
H32_8 H 0.6792 0.9097 0.4067
N4_8 N 0.4889(3) 0.7851(4) 0.4082(4)
O28_13 O 0.82955(17) 0.97158(12) 0.19665(18)
O29_5 O 0.96704(18) 0.82707(13) 0.2039(2)
O30_4 O 0.78793(18) 0.94853(13) 0.1494(2)
O31_10 O 0.93904(18) 0.78372(13) 0.16561(19)
N8_10 N 0.88182(25) 0.88185(18) 0.1432(3)
H51_10 H 0.8815 0.8673 0.1596
H52_10 H 0.8697 0.8862 0.1579
C64_10 C 0.82513(25) 0.93722(18) 0.1363(3)
C65_13 C 0.94777(25) 0.81038(18) 0.1733(3)
C66_10 C 0.8550(3) 0.9455(2) 0.1400(3)
H53_10 H 0.8676 0.9623 0.1585
C68_10 C 0.84713(26) 0.90350(19) 0.0910(3)
C69_10 C 0.92661(28) 0.8635(2) 0.1184(3)
H54_10 H 0.9341 0.8837 0.1170
C70_10 C 0.81364(25) 0.95441(17) 0.1629(3)
C71_10 C 0.84877(25) 0.87568(18) 0.0159(3)
C72_10 C 0.85772(23) 0.88545(16) 0.0655(3)
C73_10 C 0.87432(25) 0.87482(18) 0.0937(3)
C74_10 C 0.94225(27) 0.85311(18) 0.1440(3)
H56_10 H 0.9599 0.8658 0.1601
C75_10 C 0.87380(28) 0.8474(2) 0.0165(3)
C76_10 C 0.9000(3) 0.8450(2) 0.0944(3)
C77_10 C 0.8657(3) 0.9297(2) 0.1176(3)
H58_10 H 0.8857 0.9363 0.1196
C78_10 C 0.88272(25) 0.85645(18) 0.0671(3)
C79_10 C 0.8179(3) 0.8961(2) 0.0854(4)
H59_10 H 0.8055 0.8797 0.0660
C81_10 C 0.8068(3) 0.9124(2) 0.1076(4)
H60_10 H 0.7871 0.9068 0.1034
C82_10 C 0.93045(25) 0.82177(17) 0.1451(3)
C83_10 C 0.8901(4) 0.8152(3) 0.0919(6)
H61_10 H 0.8731 0.8024 0.0740
C84_10 C 0.9072(4) 0.8048(3) 0.1185(5)
H62_10 H 0.9013 0.7850 0.1164
O38_5 O 0.82707(13) 0.96704(18) 0.2961(2)
O43_5 O 0.78372(13) 0.93904(18) 0.33439(19)
O3_14 O 0.17045(17) 0.14204(12) 0.30335(18)
O6_14 O 0.21207(18) 0.16061(13) 0.3506(2)
O14_14 O 0.28723(26) 0.31210(18) 0.2030(3)
H3_14 H 0.3062 0.3247 0.2081
H4_14 H 0.2866 0.3082 0.1696
N1_14 N 0.16658(21) 0.00509(15) 0.5958(2)
N2_14 N 0.11818(25) 0.00004(18) 0.3568(3)
H6_14 H 0.1303 0.0166 0.3421
C1_14 C 0.17487(25) 0.11210(18) 0.3637(3)
C3_14 C 0.1450(3) 0.0906(2) 0.3600(3)
H13_14 H 0.1324 0.0948 0.3415
C4_14 C 0.14342(25) 0.00060(17) 0.5080(3)
C7_14 C 0.15287(26) 0.05638(18) 0.4090(3)
C10_14 C 0.18636(25) 0.14078(18) 0.3371(3)
C11_14 C 0.15123(25) 0.02692(17) 0.4841(3)
H16_14 H 0.1627 0.0445 0.5016
C12_14 C 0.14228(23) 0.02774(17) 0.4345(3)
C13_14 C 0.12568(25) 0.00051(18) 0.4063(3)
C19_14 C 0.1343(3) 0.0641(2) 0.3824(3)
H19_14 H 0.1143 0.0507 0.3804
C22_14 C 0.1821(3) 0.0783(2) 0.4146(4)
H21_14 H 0.1945 0.0743 0.4340
C25_14 C 0.15534(25) 0.00164(18) 0.5578(3)
C28_14 C 0.1932(3) 0.1057(2) 0.3924(4)
H22_14 H 0.2129 0.1198 0.3966
O28_14 O 0.14204(21) 0.17045(17) 0.19665(18)
N8_11 N 0.00004(31) 0.11818(25) 0.1432(3)
H52_11 H 0.0166 0.1303 0.1579
C64_11 C 0.11210(31) 0.17487(25) 0.1363(3)
C66_11 C 0.0906(4) 0.1450(3) 0.1400(3)
H53_11 H 0.0948 0.1324 0.1585
C68_11 C 0.05638(32) 0.15287(26) 0.0910(3)
C70_11 C 0.14078(30) 0.18636(25) 0.1629(3)
C71_11 C 0.02692(31) 0.15123(25) 0.0159(3)
C72_11 C 0.02774(28) 0.14228(23) 0.0655(3)
C73_11 C 0.00051(31) 0.12568(25) 0.0937(3)
C77_11 C 0.0641(4) 0.1343(3) 0.1176(3)
H58_11 H 0.0507 0.1143 0.1196
C79_11 C 0.0783(4) 0.1821(3) 0.0854(4)
H59_11 H 0.0743 0.1945 0.0660
C81_11 C 0.1057(4) 0.1932(3) 0.1076(4)
H60_11 H 0.1198 0.2129 0.1034
O32_14 O 0.31210(32) 0.28723(26) 0.2970(3)
H63_14 H 0.3247 0.3062 0.2919
H64_14 H 0.3082 0.2866 0.3304
O35_14 O 0.22154(21) 0.18800(17) 0.25560(19)
O39_10 O 0.17293(22) 0.13996(13) 0.2039(2)
O44_14 O 0.27339(24) 0.22870(19) 0.2594(2)
O47_14 O 0.30859(28) 0.27495(22) 0.1974(2)
O5_10 O 0.03296(18) 0.86004(13) 0.2961(2)
O8_10 O 0.06096(18) 0.84469(13) 0.33439(19)
H5_14 H 0.1185 0.9859 0.3404
C2_14 C 0.05223(25) 0.86262(17) 0.3267(3)
C9_14 C 0.07339(28) 0.93693(19) 0.3816(3)
H15_14 H 0.0659 0.9497 0.3830
C15_14 C 0.05775(27) 0.9109(2) 0.3560(3)
H17_14 H 0.0401 0.9060 0.3399
C16_14 C 0.12620(28) 0.97364(19) 0.4835(3)
H18_14 H 0.1208 0.9561 0.5003
C17_14 C 0.1000(3) 0.9451(2) 0.4056(3)
C20_14 C 0.11728(25) 0.97374(18) 0.4329(3)
C29_14 C 0.06955(25) 0.89133(18) 0.3549(3)
C36_14 C 0.1099(4) 0.9252(3) 0.4081(6)
H27_14 H 0.1269 0.9294 0.4260
C38_14 C 0.0928(4) 0.8977(3) 0.3815(5)
H28_14 H 0.0987 0.8838 0.3836
O17_10 O 0.00375(22) 0.80359(18) 0.32470(18)
O18_10 O 0.03353(20) 0.81200(17) 0.24440(19)
O19_10 O 0.00257(23) 0.75648(19) 0.30716(19)
O21_16 O 0.05850(25) 0.76889(21) 0.3407(2)
O22_10 O 0.04468(23) 0.77130(19) 0.2406(2)
O23_12 O 0.10216(26) 0.64999(21) 0.7621(2)
O24_10 O 0.03363(26) 0.72505(22) 0.3026(2)
O25_16 O 0.08958(27) 0.82053(23) 0.3008(3)
H33_16 H 0.0989 0.8262 0.3299
H34_16 H 0.0951 0.8089 0.2883
N5_16 N 0.09717(30) 0.70247(25) 0.5223(3)
H35_16 H 0.0934 0.6933 0.5515
H36_16 H 0.0815 0.6938 0.5032
O26_14 O 0.05133(41) 0.76728(36) 0.1348(3)
H37_14 H 0.0520 0.7693 0.0995
H38_14 H 0.0707 0.7735 0.1421
O27_16 O 0.0841(4) 0.8184(3) 0.1750(5)
H39_16 H 0.0958 0.8065 0.1730
H40_14 H 0.0956 0.8325 0.1431
C43_16 C 0.1209(4) 0.7030(3) 0.4991(3)
C44_16 C 0.1501(4) 0.7087(4) 0.4225(3)
H41_16 H 0.1537 0.7128 0.3877
C45_16 C 0.13933(34) 0.69594(28) 0.5282(3)
C46_16 C 0.16903(39) 0.70259(35) 0.4501(3)
C47_16 C 0.1261(4) 0.7091(3) 0.4442(3)
C48_16 C 0.1627(4) 0.6952(4) 0.5025(3)
H42_16 H 0.1743 0.6895 0.5207
C49_18 C 0.12303(33) 0.68063(27) 0.6881(3)
C50_16 C 0.1081(4) 0.7181(4) 0.4151(3)
C51_16 C 0.13423(32) 0.69003(27) 0.5846(3)
C52_16 C 0.0519(4) 0.7425(3) 0.3333(3)
C53_16 C 0.0900(4) 0.7006(4) 0.3760(3)
H43_16 H 0.0904 0.6836 0.3672
C54_18 C 0.11693(31) 0.67628(26) 0.7458(3)
C55_16 C 0.07203(41) 0.73399(36) 0.3613(3)
C56_16 C 0.1153(6) 0.6576(5) 0.6567(4)
H44_18 H 0.1070 0.6388 0.6704
C57_18 C 0.1365(5) 0.7088(4) 0.6696(3)
H45_18 H 0.1419 0.7247 0.6914
C58_16 C 0.1067(4) 0.7431(4) 0.4279(4)
H46_16 H 0.1173 0.7543 0.4560
C59_16 C 0.1943(6) 0.7039(5) 0.4279(4)
C60_16 C 0.1420(5) 0.7130(4) 0.6163(3)
H47_16 H 0.1512 0.7319 0.6029
C61_16 C 0.0705(4) 0.7076(4) 0.3485(3)
H48_16 H 0.0577 0.6952 0.3234
C62_16 C 0.1197(6) 0.6618(5) 0.6030(4)
H49_16 H 0.1129 0.6457 0.5809
C63_16 C 0.0896(6) 0.7520(5) 0.3996(4)
H50_16 H 0.0903 0.7696 0.4067
N6_16 N 0.2149(6) 0.7039(5) 0.4082(4)
Zr16_11 Zr 0.00003(3) 0.72836(2) 0.2500
O40_8 O 0.05147(22) 0.83939(13) 0.1494(2)
O31_11 O 0.84469(22) 0.06096(18) 0.16561(19)
H51_11 H 0.9859 0.1185 0.1596
C65_14 C 0.86262(31) 0.05223(25) 0.1733(3)
C69_11 C 0.93693(34) 0.07339(28) 0.1184(3)
H54_11 H 0.9497 0.0659 0.1170
C74_11 C 0.91087(32) 0.05775(27) 0.1440(3)
H56_11 H 0.9060 0.0401 0.1601
C75_11 C 0.97364(34) 0.12620(28) 0.0165(3)
C76_11 C 0.9451(4) 0.1000(3) 0.0944(3)
C78_11 C 0.97374(31) 0.11728(25) 0.0671(3)
C82_11 C 0.89133(30) 0.06955(25) 0.1451(3)
C83_11 C 0.9252(5) 0.1099(4) 0.0919(6)
H61_11 H 0.9294 0.1269 0.0740
C84_11 C 0.8977(5) 0.0928(4) 0.1185(5)
H62_11 H 0.8838 0.0987 0.1164
O33_10 O 0.99625(22) 0.79983(12) 0.17530(18)
O36_10 O 0.99743(23) 0.75390(13) 0.19284(19)
O31_12 O 0.21628(13) 0.15531(22) 0.16561(19)
H51_12 H 0.1327 0.0141 0.1596
C65_15 C 0.18962(18) 0.13738(31) 0.1733(3)
C69_12 C 0.1365(2) 0.06307(34) 0.1184(3)
H54_12 H 0.1163 0.0503 0.1170
C74_12 C 0.14689(18) 0.08913(32) 0.1440(3)
H56_12 H 0.1342 0.0940 0.1601
C75_12 C 0.1526(2) 0.02636(34) 0.0165(3)
C76_12 C 0.1550(2) 0.0549(4) 0.0944(3)
C78_12 C 0.14355(18) 0.02626(31) 0.0671(3)
C82_12 C 0.17823(17) 0.10867(30) 0.1451(3)
C83_12 C 0.1848(3) 0.0748(5) 0.0919(6)
H61_12 H 0.1976 0.0706 0.0740
C84_12 C 0.1952(3) 0.1023(5) 0.1185(5)
H62_12 H 0.2150 0.1162 0.1164
O14_15 O 0.02486(19) 0.71277(26) 0.2030(3)
H3_15 H 0.0184 0.6938 0.2081
H4_15 H 0.0215 0.7134 0.1696
O28_15 O 0.02842(12) 0.85796(21) 0.19665(18)
N8_12 N 0.11815(18) 0.99996(31) 0.1432(3)
H52_12 H 0.1138 0.9834 0.1579
C64_12 C 0.06278(18) 0.88790(31) 0.1363(3)
C66_12 C 0.0545(2) 0.9094(4) 0.1400(3)
H53_12 H 0.0377 0.9052 0.1585
C68_12 C 0.09650(19) 0.94362(32) 0.0910(3)
C70_12 C 0.04559(17) 0.85922(30) 0.1629(3)
C71_12 C 0.12432(18) 0.97308(31) 0.0159(3)
C72_12 C 0.11455(16) 0.97226(28) 0.0655(3)
C73_12 C 0.12518(18) 0.99949(31) 0.0937(3)
C77_12 C 0.0703(2) 0.9359(4) 0.1176(3)
H58_12 H 0.0637 0.9493 0.1196
C79_12 C 0.1039(2) 0.9217(4) 0.0854(4)
H59_12 H 0.1203 0.9257 0.0660
C81_12 C 0.0876(2) 0.8943(4) 0.1076(4)
H60_12 H 0.0932 0.8802 0.1034
O3_15 O 0.97158(12) 0.82955(17) 0.30335(18)
O6_15 O 0.94853(13) 0.78793(18) 0.3506(2)
N1_15 N 0.83850(15) 0.83342(21) 0.5958(2)
N2_15 N 0.88185(18) 0.88182(25) 0.3568(3)
H5_15 H 0.8673 0.8815 0.3404
H6_15 H 0.8862 0.8697 0.3421
C1_15 C 0.93722(18) 0.82513(25) 0.3637(3)
C2_15 C 0.81038(18) 0.94777(25) 0.3267(3)
C3_15 C 0.9455(2) 0.8550(3) 0.3600(3)
H13_15 H 0.9623 0.8676 0.3415
C4_15 C 0.85717(19) 0.85658(25) 0.5080(3)
C7_15 C 0.90350(19) 0.84713(26) 0.4090(3)
C9_15 C 0.8635(2) 0.92661(28) 0.3816(3)
H15_15 H 0.8837 0.9341 0.3830
C10_15 C 0.95441(17) 0.81364(25) 0.3371(3)
C11_15 C 0.87568(18) 0.84877(25) 0.4841(3)
H16_15 H 0.8817 0.8373 0.5016
C12_15 C 0.88545(16) 0.85772(23) 0.4345(3)
C13_15 C 0.87482(18) 0.87432(25) 0.4063(3)
C15_15 C 0.85311(18) 0.94225(27) 0.3560(3)
H17_15 H 0.8658 0.9599 0.3399
C16_15 C 0.8474(2) 0.87380(28) 0.4835(3)
H18_15 H 0.8352 0.8792 0.5003
C17_15 C 0.8450(2) 0.9000(3) 0.4056(3)
C19_15 C 0.9297(2) 0.8657(3) 0.3824(3)
H19_15 H 0.9363 0.8857 0.3804
C20_15 C 0.85645(18) 0.88272(25) 0.4329(3)
C22_15 C 0.8961(2) 0.8179(3) 0.4146(4)
H21_15 H 0.8797 0.8055 0.4340
C25_15 C 0.84629(17) 0.84466(25) 0.5578(3)
C28_15 C 0.9124(2) 0.8068(3) 0.3924(4)
H22_15 H 0.9068 0.7871 0.3966
C29_15 C 0.82177(17) 0.93045(25) 0.3549(3)
C36_15 C 0.8152(3) 0.8901(4) 0.4081(6)
H27_15 H 0.8024 0.8731 0.4260
C38_15 C 0.8048(3) 0.9072(4) 0.3815(5)
H28_15 H 0.7850 0.9013 0.3836
O32_15 O 0.97514(19) 0.68790(32) 0.2970(3)
H63_15 H 0.9816 0.6753 0.2919
H64_15 H 0.9785 0.6918 0.3304
O35_15 O 0.96647(13) 0.77846(21) 0.25560(19)
O44_15 O 0.95532(14) 0.72661(24) 0.2594(2)
O47_15 O 0.96637(17) 0.69141(28) 0.1974(2)
O21_17 O 0.28962(13) 0.23111(21) 0.1593(2)
O25_17 O 0.26906(15) 0.17947(23) 0.1992(3)
H33_17 H 0.2728 0.1738 0.1701
H34_17 H 0.2863 0.1911 0.2117
O26_15 O 0.28406(19) 0.23272(36) 0.3652(3)
H37_15 H 0.2828 0.2307 0.4005
H38_15 H 0.2973 0.2265 0.3579
O27_17 O 0.2658(2) 0.1816(3) 0.3250(5)
H39_17 H 0.2894 0.1935 0.3270
H40_15 H 0.2632 0.1675 0.3569
C43_17 C 0.4180(2) 0.2970(3) 0.0009(3)
C44_17 C 0.4415(2) 0.2913(4) 0.0775(3)
H41_17 H 0.4410 0.2872 0.1123
C46_17 C 0.46645(18) 0.29741(35) 0.0499(3)
C47_17 C 0.4171(2) 0.2909(3) 0.0558(3)
C50_17 C 0.3901(2) 0.2819(4) 0.0849(3)
C52_17 C 0.3095(2) 0.2575(3) 0.1667(3)
C53_17 C 0.3895(2) 0.2994(4) 0.1240(3)
H43_17 H 0.4069 0.3164 0.1328
C55_17 C 0.33805(19) 0.26601(36) 0.1387(3)
C58_17 C 0.3637(2) 0.2569(4) 0.0721(4)
H46_17 H 0.3631 0.2457 0.0440
C59_17 C 0.4905(3) 0.2961(5) 0.0721(4)
C61_17 C 0.3630(2) 0.2924(4) 0.1515(3)
H48_17 H 0.3626 0.3048 0.1766
C63_17 C 0.3377(3) 0.2480(5) 0.1004(4)
H50_17 H 0.3208 0.2304 0.0933
N6_17 N 0.5111(3) 0.2961(5) 0.0918(4)
Zr8_7 Zr 0.82227(2) 0.0000 0.2500
Zr1_7 Zr 1.0000 0.82223(2) 0.2500
Zr4_7 Zr 1.0000 0.72832(2) 0.2500
O9_9 O 0.94150(17) 0.71038(13) 0.1593(2)
O13_9 O 0.91042(17) 0.73094(15) 0.1992(3)
H1_9 H 0.9011 0.7272 0.1701
H2_9 H 0.9049 0.7137 0.2117
O15_8 O 0.9487(3) 0.71594(19) 0.3652(3)
H9_8 H 0.9480 0.7172 0.4005
H10_8 H 0.9293 0.7027 0.3579
O16_9 O 0.9159(2) 0.7342(2) 0.3250(5)
H11_9 H 0.9042 0.7106 0.3270
H12_8 H 0.9044 0.7368 0.3569
C5_9 C 0.8791(2) 0.5820(2) 0.0009(3)
C6_9 C 0.8499(3) 0.5585(2) 0.0775(3)
H14_9 H 0.8463 0.5590 0.1123
C14_9 C 0.8310(3) 0.53355(18) 0.0499(3)
C18_9 C 0.8739(2) 0.5829(2) 0.0558(3)
C24_9 C 0.8919(3) 0.6099(2) 0.0849(3)
C27_9 C 0.9481(2) 0.6905(2) 0.1667(3)
C30_9 C 0.9100(3) 0.6105(2) 0.1240(3)
H23_9 H 0.9096 0.5931 0.1328
C32_9 C 0.9280(3) 0.66195(19) 0.1387(3)
C35_9 C 0.8933(3) 0.6363(2) 0.0721(4)
H26_9 H 0.8827 0.6369 0.0440
C37_9 C 0.8057(4) 0.5095(3) 0.0721(4)
C40_9 C 0.9295(3) 0.6370(2) 0.1515(3)
H30_9 H 0.9423 0.6374 0.1766
C42_9 C 0.9104(4) 0.6623(3) 0.1004(4)
H32_9 H 0.9097 0.6792 0.0933
N4_9 N 0.7851(4) 0.4889(3) 0.0918(4)
O21_18 O 0.76889(21) 0.05850(25) 0.1593(2)
O25_18 O 0.82053(23) 0.08958(27) 0.1992(3)
H33_18 H 0.8262 0.0989 0.1701
H34_18 H 0.8089 0.0951 0.2117
O26_16 O 0.76728(36) 0.05133(41) 0.3652(3)
H37_16 H 0.7693 0.0520 0.4005
H38_16 H 0.7735 0.0707 0.3579
O27_18 O 0.8184(3) 0.0841(4) 0.3250(5)
H39_18 H 0.8065 0.0958 0.3270
H40_16 H 0.8325 0.0956 0.3569
C43_18 C 0.7030(3) 0.1209(4) 0.0009(3)
C44_18 C 0.7087(4) 0.1501(4) 0.0775(3)
H41_18 H 0.7128 0.1537 0.1123
C46_18 C 0.70259(35) 0.16903(39) 0.0499(3)
C47_18 C 0.7091(3) 0.1261(4) 0.0558(3)
C50_18 C 0.7181(4) 0.1081(4) 0.0849(3)
C52_18 C 0.7425(3) 0.0519(4) 0.1667(3)
C53_18 C 0.7006(4) 0.0900(4) 0.1240(3)
H43_18 H 0.6836 0.0904 0.1328
C55_18 C 0.73399(36) 0.07203(41) 0.1387(3)
C58_18 C 0.7431(4) 0.1067(4) 0.0721(4)
H46_18 H 0.7543 0.1173 0.0440
C59_18 C 0.7039(5) 0.1943(6) 0.0721(4)
C61_18 C 0.7076(4) 0.0705(4) 0.1515(3)
H48_18 H 0.6952 0.0577 0.1766
C63_18 C 0.7520(5) 0.0896(6) 0.1004(4)
H50_18 H 0.7696 0.0903 0.0933
N6_18 N 0.7039(5) 0.2149(6) 0.0918(4)
Zr16_12 Zr 0.72836(2) 0.00003(3) 0.2500
O13_10 O 0.06428(15) 0.57708(17) 0.9674(3)
H1_10 H 0.0606 0.5677 0.9965
H2_10 H 0.0471 0.5715 0.9549
O15_9 O 0.04928(19) 0.6153(3) 0.8014(3)
H9_9 H 0.0506 0.6146 0.7661
H10_9 H 0.0361 0.5959 0.8087
O16_10 O 0.0676(2) 0.5825(2) 0.8416(5)
H11_10 H 0.0440 0.5708 0.8396
H12_9 H 0.0702 0.5710 0.8097
C27_10 C 0.0239(2) 0.6147(2) 0.9999(3)
O25_19 O 0.51281(23) 0.93572(15) 0.9674(3)
H33_19 H 0.5072 0.9394 0.9965
H34_19 H 0.5245 0.9529 0.9549
O26_17 O 0.56606(36) 0.95072(19) 0.8014(3)
H37_17 H 0.5641 0.9494 0.7661
H38_17 H 0.5599 0.9639 0.8087
O27_19 O 0.5150(3) 0.9324(2) 0.8416(5)
H39_19 H 0.5269 0.9560 0.8396
H40_17 H 0.5009 0.9298 0.8097
C52_19 C 0.5909(3) 0.9761(2) 0.9999(3)
O25_20 O 0.42292(27) 0.48719(23) 0.9674(3)
H33_20 H 0.4323 0.4928 0.9965
H34_20 H 0.4285 0.4755 0.9549
O26_18 O 0.38467(41) 0.43394(36) 0.8014(3)
H37_18 H 0.3854 0.4359 0.7661
H38_18 H 0.4041 0.4401 0.8087
O27_20 O 0.4175(4) 0.4850(3) 0.8416(5)
H39_20 H 0.4292 0.4731 0.8396
H40_18 H 0.4290 0.4991 0.8097
C52_20 C 0.3853(4) 0.4091(3) 0.9999(3)
H48_19 H 0.3911 0.3618 0.9900
O15_10 O 0.2820(3) 0.38261(19) 0.0319(3)
H9_10 H 0.2813 0.3839 0.0672
H10_10 H 0.2626 0.3694 0.0246
H12_10 H 0.2377 0.4035 0.0236
O26_19 O 0.61739(19) 0.89939(36) 0.0319(3)
H37_19 H 0.6161 0.8974 0.0672
H38_19 H 0.6306 0.8932 0.0246
H40_19 H 0.5965 0.8342 0.0236
O30_5 O 0.28187(13) 0.45459(18) 0.0172(2)
O31_13 O 0.11706(13) 0.60570(18) 0.00105(19)
N7_10 N 0.17184(15) 0.50008(21) 0.2624(2)
N8_13 N 0.21519(18) 0.54848(25) 0.0234(3)
H51_13 H 0.2007 0.5481 0.0070
H52_13 H 0.2196 0.5363 0.0087
C64_13 C 0.27056(18) 0.49179(25) 0.0303(3)
C66_13 C 0.2789(2) 0.5216(3) 0.0266(3)
H53_13 H 0.2957 0.5342 0.0081
C67_10 C 0.19051(19) 0.52324(25) 0.1746(3)
C68_13 C 0.23684(19) 0.51379(26) 0.0756(3)
C69_13 C 0.1969(2) 0.59327(28) 0.0482(3)
H54_13 H 0.2171 0.6007 0.0496
C70_13 C 0.28775(17) 0.48030(25) 0.0037(3)
C71_13 C 0.20902(18) 0.51543(25) 0.1507(3)
H55_10 H 0.2151 0.5039 0.1682
C72_13 C 0.21879(16) 0.52438(23) 0.1011(3)
C73_13 C 0.20816(18) 0.54098(25) 0.0729(3)
C74_13 C 0.18645(18) 0.60891(27) 0.0226(3)
H56_13 H 0.1992 0.6265 0.0065
C75_13 C 0.1808(2) 0.54046(28) 0.1501(3)
H57_10 H 0.1686 0.5458 0.1669
C76_13 C 0.1784(2) 0.5666(3) 0.0722(3)
C77_13 C 0.2631(2) 0.5323(3) 0.0490(3)
H58_13 H 0.2697 0.5523 0.0470
C78_13 C 0.18979(18) 0.54938(25) 0.0995(3)
C79_13 C 0.2295(2) 0.4845(3) 0.0812(4)
H59_13 H 0.2131 0.4721 0.1006
C80_10 C 0.17963(17) 0.51132(25) 0.2244(3)
C81_13 C 0.2458(2) 0.4734(3) 0.0590(4)
H60_13 H 0.2402 0.4537 0.0632
C82_13 C 0.15511(17) 0.59711(25) 0.0215(3)
C83_13 C 0.1486(3) 0.5567(4) 0.0747(6)
H61_13 H 0.1358 0.5397 0.0926
C84_13 C 0.1382(3) 0.5738(4) 0.0481(5)
H62_13 H 0.1184 0.5679 0.0502
O40_9 O 0.54541(18) 0.82727(13) 0.0172(2)
O45_7 O 0.56450(15) 0.88116(15) 0.0713(2)
O46_4 O 0.31665(21) 0.43550(15) 0.0713(2)
O26_20 O 0.10061(36) 0.71800(41) 0.0319(3)
H37_20 H 0.1026 0.7187 0.0672
H38_20 H 0.1068 0.7374 0.0246
H40_20 H 0.1658 0.7623 0.0236
O31_14 O 0.39430(18) 0.51135(22) 0.00105(19)
N7_11 N 0.49992(21) 0.67175(26) 0.2624(2)
N8_14 N 0.45152(25) 0.66670(31) 0.0234(3)
H51_14 H 0.4519 0.6525 0.0070
H52_14 H 0.4637 0.6832 0.0087
C64_14 C 0.50821(25) 0.77876(31) 0.0303(3)
C66_14 C 0.4784(3) 0.7572(4) 0.0266(3)
H53_14 H 0.4658 0.7614 0.0081
C67_11 C 0.47676(25) 0.66726(31) 0.1746(3)
C68_14 C 0.48621(26) 0.72304(32) 0.0756(3)
C69_14 C 0.40673(28) 0.60359(34) 0.0482(3)
H54_14 H 0.3993 0.6163 0.0496
C70_14 C 0.51970(25) 0.80744(30) 0.0037(3)
C71_14 C 0.48457(25) 0.69358(31) 0.1507(3)
H55_11 H 0.4961 0.7111 0.1682
C72_14 C 0.47562(23) 0.69440(28) 0.1011(3)
C73_14 C 0.45902(25) 0.66717(31) 0.0729(3)
C74_14 C 0.39109(27) 0.57753(32) 0.0226(3)
H56_14 H 0.3735 0.5726 0.0065
C75_14 C 0.45954(28) 0.64030(34) 0.1501(3)
H57_11 H 0.4542 0.6227 0.1669
C76_14 C 0.4334(3) 0.6117(4) 0.0722(3)
C77_14 C 0.4677(3) 0.7307(4) 0.0490(3)
H58_14 H 0.4477 0.7173 0.0470
C78_14 C 0.45062(25) 0.64040(31) 0.0995(3)
C79_14 C 0.5155(3) 0.7449(4) 0.0812(4)
H59_14 H 0.5279 0.7409 0.1006
C80_11 C 0.48868(25) 0.66830(30) 0.2244(3)
C81_14 C 0.5266(3) 0.7723(4) 0.0590(4)
H60_14 H 0.5463 0.7864 0.0632
C82_14 C 0.40289(25) 0.55799(30) 0.0215(3)
C83_14 C 0.4433(4) 0.5918(5) 0.0747(6)
H61_14 H 0.4603 0.5960 0.0926
C84_14 C 0.4262(4) 0.5643(5) 0.0481(5)
H62_14 H 0.4321 0.5504 0.0502
O40_10 O 0.17273(13) 0.71813(22) 0.0172(2)
O45_8 O 0.11884(15) 0.68335(21) 0.0713(2)
O31_15 O 0.48865(22) 0.88294(13) 0.00105(19)
N7_12 N 0.32825(26) 0.82816(15) 0.2624(2)
N8_15 N 0.33330(31) 0.78481(18) 0.0234(3)
H51_15 H 0.3475 0.7993 0.0070
H52_15 H 0.3168 0.7804 0.0087
C64_15 C 0.22124(31) 0.72944(18) 0.0303(3)
C66_15 C 0.2428(4) 0.7211(2) 0.0266(3)
H53_15 H 0.2386 0.7043 0.0081
C67_12 C 0.33274(31) 0.80949(19) 0.1746(3)
C68_15 C 0.27696(32) 0.76316(19) 0.0756(3)
C69_15 C 0.39641(34) 0.8031(2) 0.0482(3)
H54_15 H 0.3837 0.7829 0.0496
C70_15 C 0.19256(30) 0.71225(17) 0.0037(3)
C71_15 C 0.30642(31) 0.79098(18) 0.1507(3)
H55_12 H 0.2889 0.7849 0.1682
C72_15 C 0.30560(28) 0.78121(16) 0.1011(3)
C73_15 C 0.33283(31) 0.79184(18) 0.0729(3)
C74_15 C 0.42247(32) 0.81355(18) 0.0226(3)
H56_15 H 0.4274 0.8008 0.0065
C75_15 C 0.35970(34) 0.8192(2) 0.1501(3)
H57_12 H 0.3773 0.8314 0.1669
C76_15 C 0.3883(4) 0.8216(2) 0.0722(3)
C77_15 C 0.2693(4) 0.7369(2) 0.0490(3)
H58_15 H 0.2827 0.7303 0.0470
C78_15 C 0.35960(31) 0.81021(18) 0.0995(3)
C79_15 C 0.2551(4) 0.7705(2) 0.0812(4)
H59_15 H 0.2591 0.7869 0.1006
C80_12 C 0.33170(30) 0.82037(17) 0.2244(3)
C81_15 C 0.2277(4) 0.7542(2) 0.0590(4)
H60_15 H 0.2136 0.7598 0.0632
C82_15 C 0.44201(30) 0.84489(17) 0.0215(3)
C83_15 C 0.4082(5) 0.8514(3) 0.0747(6)
H61_15 H 0.4040 0.8642 0.0926
C84_15 C 0.4357(5) 0.8618(3) 0.0481(5)
H62_15 H 0.4496 0.8816 0.0502
Zr1_8 Zr 0.48890(2) 0.3333 0.5833
Zr2_4 Zr 0.42181(2) 0.29183(2) 0.64524(2)
Zr3_4 Zr 0.42546(2) 0.29869(2) 0.50875(2)
Zr4_8 Zr 0.39499(2) 0.3333 0.5833
O1_6 O 0.46650(12) 0.32958(13) 0.65803(18)
O2_6 O 0.44513(11) 0.29980(13) 0.57773(19)
O3_16 O 0.52463(12) 0.36175(12) 0.63668(18)
O4_6 O 0.42057(13) 0.33076(14) 0.64049(19)
O5_11 O 0.80663(13) 0.50626(13) 0.6294(2)
O6_16 O 0.50606(13) 0.38480(13) 0.6839(2)
O8_11 O 0.82198(13) 0.54961(13) 0.66772(19)
O9_10 O 0.37705(13) 0.27483(17) 0.6740(2)
O10_6 O 0.39328(13) 0.28865(14) 0.5739(2)
O12_6 O 0.35808(14) 0.29970(17) 0.6359(2)
O13_11 O 0.39761(15) 0.24375(17) 0.6341(3)
H1_11 H 0.3939 0.2344 0.6632
H2_11 H 0.3804 0.2382 0.6216
O14_16 O 0.35457(18) 0.30847(19) 0.5363(3)
H3_16 H 0.3420 0.3149 0.5414
H4_16 H 0.3585 0.3118 0.5029
N1_16 N 0.66158(15) 0.49483(15) 0.9291(2)
N2_16 N 0.66663(18) 0.45148(18) 0.6901(3)
H5_16 H 0.6808 0.4660 0.6737
H6_16 H 0.6501 0.4471 0.6754
N3_9 N 0.27196(16) 0.23616(19) 0.8556(3)
H7_9 H 0.2665 0.2399 0.8848
H8_9 H 0.2789 0.2518 0.8365
C1_16 C 0.55457(18) 0.39611(18) 0.6970(3)
O15_11 O 0.38261(19) 0.2820(3) 0.4681(3)
H9_11 H 0.3839 0.2813 0.4328
H10_11 H 0.3694 0.2626 0.4754
O16_11 O 0.4009(2) 0.2492(2) 0.5083(5)
H11_11 H 0.3773 0.2375 0.5063
H12_11 H 0.4035 0.2377 0.4764
C2_16 C 0.80405(17) 0.52295(18) 0.6600(3)
C3_16 C 0.5761(2) 0.3878(2) 0.6933(3)
H13_16 H 0.5719 0.3710 0.6748
C4_16 C 0.66607(17) 0.47616(19) 0.8413(3)
C5_10 C 0.2487(2) 0.2124(2) 0.8324(3)
C6_10 C 0.2252(2) 0.1832(3) 0.7558(3)
H14_10 H 0.2257 0.1796 0.7210
C7_16 C 0.61029(18) 0.42983(19) 0.7423(3)
C8_9 C 0.22327(19) 0.1940(2) 0.8615(3)
C9_16 C 0.72974(19) 0.4698(2) 0.7149(3)
H15_16 H 0.7170 0.4496 0.7163
C10_16 C 0.52589(18) 0.37892(17) 0.6704(3)
C11_16 C 0.63975(17) 0.45765(18) 0.8174(3)
H16_16 H 0.6222 0.4516 0.8349
C12_16 C 0.63893(17) 0.44788(16) 0.7678(3)
C13_16 C 0.66616(18) 0.45851(18) 0.7396(3)
C14_10 C 0.20022(18) 0.1643(3) 0.7834(3)
C15_16 C 0.7558(2) 0.48022(18) 0.6893(3)
H17_16 H 0.7607 0.4675 0.6732
C16_16 C 0.69303(19) 0.4859(2) 0.8168(3)
H18_16 H 0.7106 0.4981 0.8336
C17_16 C 0.7216(2) 0.4883(2) 0.7389(3)
C18_10 C 0.2496(2) 0.2072(2) 0.7775(3)
C19_16 C 0.6026(2) 0.4036(2) 0.7157(3)
H19_16 H 0.6160 0.3970 0.7137
C20_16 C 0.69293(18) 0.47688(18) 0.7662(3)
C21_9 C 0.1991(2) 0.1706(3) 0.8358(3)
H20_9 H 0.1818 0.1590 0.8540
C22_16 C 0.5884(2) 0.4372(2) 0.7479(4)
H21_16 H 0.5924 0.4536 0.7673
C24_10 C 0.2766(2) 0.2252(3) 0.7484(3)
C25_16 C 0.66503(18) 0.48704(17) 0.8911(3)
C26_9 C 0.22246(18) 0.1991(2) 0.9179(3)
C27_11 C 0.3572(2) 0.2814(2) 0.6666(3)
C28_16 C 0.5610(2) 0.4209(2) 0.7257(4)
H22_16 H 0.5469 0.4265 0.7299
C29_16 C 0.77534(18) 0.51156(17) 0.6882(3)
C30_10 C 0.2772(2) 0.2433(3) 0.7093(3)
H23_10 H 0.2598 0.2429 0.7005
C32_10 C 0.32862(19) 0.2613(3) 0.6946(3)
C33_9 C 0.2089(3) 0.2180(4) 0.9900(4)
C35_10 C 0.3030(2) 0.2266(3) 0.7612(4)
H26_10 H 0.3036 0.2160 0.7893
C36_16 C 0.7415(3) 0.5181(3) 0.7414(6)
H27_16 H 0.7373 0.5309 0.7593
C37_10 C 0.1762(3) 0.1390(4) 0.7612(4)
C38_16 C 0.7690(3) 0.5285(3) 0.7148(5)
H28_16 H 0.7829 0.5483 0.7169
C39_9 C 0.2376(3) 0.1913(3) 0.9496(3)
H29_9 H 0.2473 0.1821 0.9362
C40_10 C 0.3037(2) 0.2628(3) 0.6818(3)
H30_10 H 0.3041 0.2756 0.6567
C41_9 C 0.2087(3) 0.2136(4) 0.9363(4)
H31_9 H 0.1994 0.2204 0.9142
C42_10 C 0.3290(3) 0.2437(4) 0.7329(4)
H32_10 H 0.3459 0.2430 0.7400
N4_10 N 0.1556(3) 0.1184(4) 0.7415(4)
Zr5_7 Zr 0.87002(3) 0.57819(2) 0.64524(2)
Zr6_7 Zr 0.87323(3) 0.57454(2) 0.50875(2)
O17_11 O 0.86308(18) 0.53350(12) 0.65803(18)
O18_11 O 0.85467(17) 0.55487(11) 0.57773(19)
O19_11 O 0.91019(19) 0.57943(13) 0.64049(19)
O21_19 O 0.89778(21) 0.62295(13) 0.6740(2)
O22_11 O 0.89537(19) 0.60672(13) 0.5739(2)
O24_11 O 0.94162(22) 0.64192(14) 0.6359(2)
O25_21 O 0.84614(23) 0.60239(15) 0.6341(3)
H33_21 H 0.8405 0.6061 0.6632
H34_21 H 0.8578 0.6196 0.6216
N5_17 N 0.96420(25) 0.72804(16) 0.8556(3)
H35_17 H 0.9734 0.7335 0.8848
H36_17 H 0.9729 0.7211 0.8365
O26_21 O 0.89939(36) 0.61739(19) 0.4681(3)
H37_21 H 0.8974 0.6161 0.4328
H38_21 H 0.8932 0.6306 0.4754
O27_21 O 0.8483(3) 0.5991(2) 0.5083(5)
H39_21 H 0.8602 0.6227 0.5063
H40_21 H 0.8342 0.5965 0.4764
C43_19 C 0.9637(3) 0.7513(2) 0.8324(3)
C44_19 C 0.9580(4) 0.7748(2) 0.7558(3)
H41_19 H 0.9539 0.7743 0.7210
C45_17 C 0.97073(28) 0.77673(19) 0.8615(3)
C46_19 C 0.96408(35) 0.79978(18) 0.7834(3)
C47_19 C 0.9576(3) 0.7504(2) 0.7775(3)
C48_17 C 0.9715(4) 0.8009(2) 0.8358(3)
H42_17 H 0.9772 0.8182 0.8540
C50_19 C 0.9486(4) 0.7234(2) 0.7484(3)
C51_17 C 0.97664(27) 0.77754(18) 0.9179(3)
C52_21 C 0.9242(3) 0.6428(2) 0.6666(3)
C53_19 C 0.9661(4) 0.7228(2) 0.7093(3)
H43_19 H 0.9831 0.7402 0.7005
C55_19 C 0.93268(36) 0.67138(19) 0.6946(3)
C58_19 C 0.9236(4) 0.6970(2) 0.7612(4)
H46_19 H 0.9124 0.6964 0.7893
C59_19 C 0.9628(5) 0.8238(3) 0.7612(4)
C60_17 C 0.9537(4) 0.7624(3) 0.9496(3)
H47_17 H 0.9348 0.7527 0.9362
C61_19 C 0.9591(4) 0.6963(2) 0.6818(3)
H48_20 H 0.9715 0.6959 0.6567
C63_19 C 0.9147(5) 0.6710(3) 0.7329(4)
H50_19 H 0.8971 0.6541 0.7400
N6_19 N 0.9628(5) 0.8444(3) 0.7415(4)
O28_16 O 0.49621(17) 0.30492(12) 0.52999(18)
O29_6 O 0.63370(18) 0.16041(13) 0.5373(2)
O30_6 O 0.45459(18) 0.28187(13) 0.4828(2)
O31_16 O 0.60570(18) 0.11706(13) 0.49895(19)
N7_13 N 0.50008(21) 0.17184(15) 0.2376(2)
N8_16 N 0.54848(25) 0.21519(18) 0.4766(3)
H51_16 H 0.5481 0.2007 0.4930
H52_16 H 0.5363 0.2196 0.4913
C64_16 C 0.49179(25) 0.27056(18) 0.4697(3)
C65_16 C 0.61443(25) 0.14372(18) 0.5067(3)
C66_16 C 0.5216(3) 0.2789(2) 0.4734(3)
H53_16 H 0.5342 0.2957 0.4919
C67_13 C 0.52324(25) 0.19051(19) 0.3254(3)
C68_16 C 0.51379(26) 0.23684(19) 0.4244(3)
C69_16 C 0.59327(28) 0.1969(2) 0.4518(3)
H54_16 H 0.6007 0.2171 0.4504
C70_16 C 0.48030(25) 0.28775(17) 0.4963(3)
C71_16 C 0.51543(25) 0.20902(18) 0.3493(3)
H55_13 H 0.5039 0.2151 0.3318
C72_16 C 0.52438(23) 0.21879(16) 0.3989(3)
C73_16 C 0.54098(25) 0.20816(18) 0.4271(3)
C74_16 C 0.60891(27) 0.18645(18) 0.4774(3)
H56_16 H 0.6265 0.1992 0.4935
C75_16 C 0.54046(28) 0.1808(2) 0.3499(3)
H57_13 H 0.5458 0.1686 0.3331
C76_16 C 0.5666(3) 0.1784(2) 0.4278(3)
C77_16 C 0.5323(3) 0.2631(2) 0.4510(3)
H58_16 H 0.5523 0.2697 0.4530
C78_16 C 0.54938(25) 0.18979(18) 0.4005(3)
C79_16 C 0.4845(3) 0.2295(2) 0.4188(4)
H59_16 H 0.4721 0.2131 0.3994
C80_13 C 0.51132(25) 0.17963(17) 0.2756(3)
C81_16 C 0.4734(3) 0.2458(2) 0.4410(4)
H60_16 H 0.4537 0.2402 0.4368
C82_16 C 0.59711(25) 0.15511(17) 0.4785(3)
C83_16 C 0.5567(4) 0.1486(3) 0.4253(6)
H61_16 H 0.5397 0.1358 0.4074
C84_16 C 0.5738(4) 0.1382(3) 0.4519(5)
H62_16 H 0.5679 0.1184 0.4498
O32_16 O 0.37943(26) 0.35820(19) 0.6304(3)
H63_16 H 0.3604 0.3518 0.6253
H64_16 H 0.3800 0.3549 0.6638
Zr7_6 Zr 0.84440(2) 0.51110(2) 0.5833
Zr8_8 Zr 0.6667 0.15560(2) 0.5833
Zr11_10 Zr 0.62516(2) 0.08848(2) 0.52143(2)
Zr14_7 Zr 0.90787(2) 0.53990(3) 0.65792(2)
Zr15_4 Zr 0.46010(3) 0.36798(2) 0.65792(2)
Zr16_13 Zr 0.93831(2) 0.60501(2) 0.5833
O33_11 O 0.86683(12) 0.52975(18) 0.50864(18)
O34_6 O 0.47025(18) 0.33709(13) 0.50864(18)
O35_16 O 0.47866(17) 0.36687(13) 0.58894(19)
O36_11 O 0.91276(13) 0.57686(19) 0.52618(19)
O37_6 O 0.42314(19) 0.33591(14) 0.52618(19)
O38_6 O 0.49374(13) 0.30037(18) 0.6294(2)
O39_11 O 0.52670(13) 0.36630(18) 0.5373(2)
O40_11 O 0.82727(13) 0.54541(18) 0.4828(2)
O41_9 O 0.87440(14) 0.57321(15) 0.7285(2)
O42_5 O 0.42679(15) 0.30118(21) 0.7285(2)
O43_6 O 0.45039(13) 0.27237(18) 0.66772(19)
O44_16 O 0.43796(19) 0.37802(14) 0.5928(2)
O45_9 O 0.88116(15) 0.56450(15) 0.4287(2)
O46_5 O 0.43550(15) 0.31665(21) 0.4287(2)
O47_16 O 0.39171(22) 0.36697(17) 0.5308(2)
O3_17 O 0.83712(17) 0.47537(12) 0.63668(18)
O5_12 O 0.69963(18) 0.19337(13) 0.6294(2)
O6_17 O 0.87874(18) 0.49394(13) 0.6839(2)
O8_12 O 0.72763(18) 0.17802(13) 0.66772(19)
O14_17 O 0.95390(26) 0.64543(18) 0.5363(3)
H3_17 H 0.9729 0.6580 0.5414
H4_17 H 0.9533 0.6415 0.5029
N1_17 N 0.83325(21) 0.33842(15) 0.9291(2)
N2_17 N 0.78485(25) 0.33337(18) 0.6901(3)
H5_17 H 0.7852 0.3192 0.6737
H6_17 H 0.7970 0.3499 0.6754
C1_17 C 0.84154(25) 0.44543(18) 0.6970(3)
C2_17 C 0.71890(25) 0.19595(17) 0.6600(3)
C3_17 C 0.8117(3) 0.4239(2) 0.6933(3)
H13_17 H 0.7991 0.4281 0.6748
C4_17 C 0.81009(25) 0.33393(17) 0.8413(3)
C7_17 C 0.81954(26) 0.38971(18) 0.7423(3)
C9_17 C 0.74006(28) 0.27026(19) 0.7149(3)
H15_17 H 0.7326 0.2830 0.7163
C10_17 C 0.85303(25) 0.47411(18) 0.6704(3)
C11_17 C 0.81790(25) 0.36025(17) 0.8174(3)
H16_17 H 0.8294 0.3778 0.8349
C12_17 C 0.80895(23) 0.36107(17) 0.7678(3)
C13_17 C 0.79235(25) 0.33384(18) 0.7396(3)
C15_17 C 0.72442(27) 0.2442(2) 0.6893(3)
H17_17 H 0.7068 0.2393 0.6732
C16_17 C 0.79287(28) 0.30697(19) 0.8168(3)
H18_17 H 0.7875 0.2894 0.8336
C17_17 C 0.7667(3) 0.2784(2) 0.7389(3)
C19_17 C 0.8010(3) 0.3974(2) 0.7157(3)
H19_17 H 0.7810 0.3840 0.7137
C20_17 C 0.78395(25) 0.30707(18) 0.7662(3)
C22_17 C 0.8488(3) 0.4116(2) 0.7479(4)
H21_17 H 0.8612 0.4076 0.7673
C25_17 C 0.82201(25) 0.33497(18) 0.8911(3)
C28_17 C 0.8599(3) 0.4390(2) 0.7257(4)
H22_17 H 0.8796 0.4531 0.7299
C29_17 C 0.73622(25) 0.22466(18) 0.6882(3)
C36_17 C 0.7766(4) 0.2585(3) 0.7414(6)
H27_17 H 0.7936 0.2627 0.7593
C38_17 C 0.7595(4) 0.2310(3) 0.7148(5)
H28_17 H 0.7654 0.2171 0.7169
Zr5_8 Zr 0.70817(4) 0.12998(3) 0.64524(2)
Zr6_8 Zr 0.70131(4) 0.12677(3) 0.50875(2)
O17_12 O 0.67042(22) 0.13692(18) 0.65803(18)
O18_12 O 0.70020(20) 0.14533(17) 0.57773(19)
O19_12 O 0.66924(23) 0.08981(19) 0.64049(19)
O21_20 O 0.72517(25) 0.10222(21) 0.6740(2)
O22_12 O 0.71135(23) 0.10463(19) 0.5739(2)
O24_12 O 0.70030(26) 0.05838(22) 0.6359(2)
O25_22 O 0.75625(27) 0.15386(23) 0.6341(3)
H33_22 H 0.7656 0.1595 0.6632
H34_22 H 0.7618 0.1422 0.6216
N5_18 N 0.76384(30) 0.03580(25) 0.8556(3)
H35_18 H 0.7601 0.0266 0.8848
H36_18 H 0.7482 0.0271 0.8365
O26_22 O 0.71800(41) 0.10061(36) 0.4681(3)
H37_22 H 0.7187 0.1026 0.4328
H38_22 H 0.7374 0.1068 0.4754
O27_22 O 0.7508(4) 0.1517(3) 0.5083(5)
H39_22 H 0.7625 0.1398 0.5063
H40_22 H 0.7623 0.1658 0.4764
C43_20 C 0.7876(4) 0.0363(3) 0.8324(3)
C44_20 C 0.8168(4) 0.0420(4) 0.7558(3)
H41_20 H 0.8204 0.0461 0.7210
C45_18 C 0.80600(34) 0.02927(28) 0.8615(3)
C46_20 C 0.83570(39) 0.03592(35) 0.7834(3)
C47_20 C 0.7928(4) 0.0424(3) 0.7775(3)
C48_18 C 0.8294(4) 0.0285(4) 0.8358(3)
H42_18 H 0.8410 0.0228 0.8540
C50_20 C 0.7748(4) 0.0514(4) 0.7484(3)
C51_18 C 0.80090(32) 0.02336(27) 0.9179(3)
C52_22 C 0.7186(4) 0.0758(3) 0.6666(3)
C53_20 C 0.7567(4) 0.0339(4) 0.7093(3)
H43_20 H 0.7571 0.0169 0.7005
C55_20 C 0.73870(41) 0.06732(36) 0.6946(3)
C58_20 C 0.7734(4) 0.0764(4) 0.7612(4)
H46_20 H 0.7840 0.0876 0.7893
C59_20 C 0.8610(6) 0.0372(5) 0.7612(4)
C60_18 C 0.8087(5) 0.0463(4) 0.9496(3)
H47_18 H 0.8179 0.0652 0.9362
C61_20 C 0.7372(4) 0.0409(4) 0.6818(3)
H48_21 H 0.7244 0.0285 0.6567
C63_20 C 0.7563(6) 0.0853(5) 0.7329(4)
H50_20 H 0.7570 0.1029 0.7400
N6_20 N 0.8816(6) 0.0372(5) 0.7415(4)
O28_17 O 0.80870(21) 0.50379(17) 0.52999(18)
O31_17 O 0.51135(22) 0.39430(18) 0.49895(19)
N7_14 N 0.67175(26) 0.49992(21) 0.2376(2)
N8_17 N 0.66670(31) 0.45152(25) 0.4766(3)
H51_17 H 0.6525 0.4519 0.4930
H52_17 H 0.6832 0.4637 0.4913
C64_17 C 0.77876(31) 0.50821(25) 0.4697(3)
C65_17 C 0.52928(31) 0.38557(25) 0.5067(3)
C66_17 C 0.7572(4) 0.4784(3) 0.4734(3)
H53_17 H 0.7614 0.4658 0.4919
C67_14 C 0.66726(31) 0.47676(25) 0.3254(3)
C68_17 C 0.72304(32) 0.48621(26) 0.4244(3)
C69_17 C 0.60359(34) 0.40673(28) 0.4518(3)
H54_17 H 0.6163 0.3993 0.4504
C70_17 C 0.80744(30) 0.51970(25) 0.4963(3)
C71_17 C 0.69358(31) 0.48457(25) 0.3493(3)
H55_14 H 0.7111 0.4961 0.3318
C72_17 C 0.69440(28) 0.47562(23) 0.3989(3)
C73_17 C 0.66717(31) 0.45902(25) 0.4271(3)
C74_17 C 0.57753(32) 0.39109(27) 0.4774(3)
H56_17 H 0.5726 0.3735 0.4935
C75_17 C 0.64030(34) 0.45954(28) 0.3499(3)
H57_14 H 0.6227 0.4542 0.3331
C76_17 C 0.6117(4) 0.4334(3) 0.4278(3)
C77_17 C 0.7307(4) 0.4677(3) 0.4510(3)
H58_17 H 0.7173 0.4477 0.4530
C78_17 C 0.64040(31) 0.45062(25) 0.4005(3)
C79_17 C 0.7449(4) 0.5155(3) 0.4188(4)
H59_17 H 0.7409 0.5279 0.3994
C80_14 C 0.66830(30) 0.48868(25) 0.2756(3)
C81_17 C 0.7723(4) 0.5266(3) 0.4410(4)
H60_17 H 0.7864 0.5463 0.4368
C82_17 C 0.55799(30) 0.40289(25) 0.4785(3)
C83_17 C 0.5918(5) 0.4433(4) 0.4253(6)
H61_17 H 0.5960 0.4603 0.4074
C84_17 C 0.5643(5) 0.4262(4) 0.4519(5)
H62_17 H 0.5504 0.4321 0.4498
O32_17 O 0.97876(32) 0.62057(26) 0.6304(3)
H63_17 H 0.9913 0.6396 0.6253
H64_17 H 0.9748 0.6200 0.6638
Zr11_11 Zr 0.46331(3) 0.37484(2) 0.52143(2)
Zr14_8 Zr 0.63202(4) 0.09213(2) 0.65792(2)
Zr16_14 Zr 0.66670(3) 0.06169(2) 0.5833
O33_12 O 0.66291(22) 0.13317(12) 0.50864(18)
O35_17 O 0.88820(21) 0.52134(17) 0.58894(19)
O36_12 O 0.66409(23) 0.08724(13) 0.52618(19)
O39_12 O 0.83959(22) 0.47330(13) 0.5373(2)
O40_12 O 0.71813(22) 0.17273(13) 0.4828(2)
O41_10 O 0.69882(21) 0.12560(14) 0.7285(2)
O44_17 O 0.94005(24) 0.56204(19) 0.5928(2)
O45_10 O 0.68335(21) 0.11884(15) 0.4287(2)
O47_17 O 0.97525(28) 0.60829(22) 0.5308(2)
O3_18 O 0.63825(12) 0.16288(17) 0.63668(18)
O6_18 O 0.61520(13) 0.12126(18) 0.6839(2)
O14_18 O 0.69153(19) 0.04610(26) 0.5363(3)
H3_18 H 0.6851 0.0271 0.5414
H4_18 H 0.6882 0.0467 0.5029
N1_18 N 0.50517(15) 0.16675(21) 0.9291(2)
N2_18 N 0.54852(18) 0.21515(25) 0.6901(3)
H5_18 H 0.5340 0.2148 0.6737
H6_18 H 0.5529 0.2030 0.6754
C1_18 C 0.60389(18) 0.15846(25) 0.6970(3)
C2_18 C 0.47705(18) 0.28110(25) 0.6600(3)
C3_18 C 0.6122(2) 0.1883(3) 0.6933(3)
H13_18 H 0.6290 0.2009 0.6748
C4_18 C 0.52384(19) 0.18991(25) 0.8413(3)
C7_18 C 0.57017(19) 0.18046(26) 0.7423(3)
C9_18 C 0.5302(2) 0.25994(28) 0.7149(3)
H15_18 H 0.5504 0.2674 0.7163
C10_18 C 0.62108(17) 0.14697(25) 0.6704(3)
C11_18 C 0.54235(18) 0.18210(25) 0.8174(3)
H16_18 H 0.5484 0.1706 0.8349
C12_18 C 0.55212(16) 0.19105(23) 0.7678(3)
C13_18 C 0.54149(18) 0.20765(25) 0.7396(3)
C15_18 C 0.51978(18) 0.27558(27) 0.6893(3)
H17_18 H 0.5325 0.2932 0.6732
C16_18 C 0.5141(2) 0.20713(28) 0.8168(3)
H18_18 H 0.5019 0.2125 0.8336
C17_18 C 0.5117(2) 0.2333(3) 0.7389(3)
C19_18 C 0.5964(2) 0.1990(3) 0.7157(3)
H19_18 H 0.6030 0.2190 0.7137
C20_18 C 0.52312(18) 0.21605(25) 0.7662(3)
C22_18 C 0.5628(2) 0.1512(3) 0.7479(4)
H21_18 H 0.5464 0.1388 0.7673
C25_18 C 0.51296(17) 0.17799(25) 0.8911(3)
C28_18 C 0.5791(2) 0.1401(3) 0.7257(4)
H22_18 H 0.5735 0.1204 0.7299
C29_18 C 0.48844(17) 0.26378(25) 0.6882(3)
C36_18 C 0.4819(3) 0.2234(4) 0.7414(6)
H27_18 H 0.4691 0.2064 0.7593
C38_18 C 0.4715(3) 0.2405(4) 0.7148(5)
H28_18 H 0.4517 0.2346 0.7169
O28_18 O 0.69508(12) 0.19130(21) 0.52999(18)
O31_18 O 0.88294(13) 0.48865(22) 0.49895(19)
N7_15 N 0.82816(15) 0.32825(26) 0.2376(2)
N8_18 N 0.78481(18) 0.33330(31) 0.4766(3)
H51_18 H 0.7993 0.3475 0.4930
H52_18 H 0.7804 0.3168 0.4913
C64_18 C 0.72944(18) 0.22124(31) 0.4697(3)
C65_18 C 0.85628(18) 0.47072(31) 0.5067(3)
C66_18 C 0.7211(2) 0.2428(4) 0.4734(3)
H53_18 H 0.7043 0.2386 0.4919
C67_15 C 0.80949(19) 0.33274(31) 0.3254(3)
C68_18 C 0.76316(19) 0.27696(32) 0.4244(3)
C69_18 C 0.8031(2) 0.39641(34) 0.4518(3)
H54_18 H 0.7829 0.3837 0.4504
C70_18 C 0.71225(17) 0.19256(30) 0.4963(3)
C71_18 C 0.79098(18) 0.30642(31) 0.3493(3)
H55_15 H 0.7849 0.2889 0.3318
C72_18 C 0.78121(16) 0.30560(28) 0.3989(3)
C73_18 C 0.79184(18) 0.33283(31) 0.4271(3)
C74_18 C 0.81355(18) 0.42247(32) 0.4774(3)
H56_18 H 0.8008 0.4274 0.4935
C75_18 C 0.8192(2) 0.35970(34) 0.3499(3)
H57_15 H 0.8314 0.3773 0.3331
C76_18 C 0.8216(2) 0.3883(4) 0.4278(3)
C77_18 C 0.7369(2) 0.2693(4) 0.4510(3)
H58_18 H 0.7303 0.2827 0.4530
C78_18 C 0.81021(18) 0.35960(31) 0.4005(3)
C79_18 C 0.7705(2) 0.2551(4) 0.4188(4)
H59_18 H 0.7869 0.2591 0.3994
C80_15 C 0.82037(17) 0.33170(30) 0.2756(3)
C81_18 C 0.7542(2) 0.2277(4) 0.4410(4)
H60_18 H 0.7598 0.2136 0.4368
C82_18 C 0.84489(17) 0.44201(30) 0.4785(3)
C83_18 C 0.8514(3) 0.4082(5) 0.4253(6)
H61_18 H 0.8642 0.4040 0.4074
C84_18 C 0.8618(3) 0.4357(5) 0.4519(5)
H62_18 H 0.8816 0.4496 0.4498
O32_18 O 0.64180(19) 0.02124(32) 0.6304(3)
H63_18 H 0.6482 0.0087 0.6253
H64_18 H 0.6451 0.0252 0.6638
Zr11_12 Zr 0.91152(2) 0.53669(3) 0.52143(2)
O35_18 O 0.63313(13) 0.11180(21) 0.58894(19)
O44_18 O 0.62198(14) 0.05995(24) 0.5928(2)
O47_18 O 0.63303(17) 0.02475(28) 0.5308(2)
O20_11 O 0.09345(15) 0.63452(21) 0.0619(2)
N5_19 N 0.06137(16) 0.63087(25) 0.3111(3)
H35_19 H 0.0668 0.6401 0.2819
H36_19 H 0.0544 0.6396 0.3302
C43_21 C 0.0846(2) 0.6304(3) 0.3343(3)
C44_21 C 0.1081(2) 0.6247(4) 0.4109(3)
H41_21 H 0.1076 0.6206 0.4457
C45_19 C 0.11006(19) 0.63740(28) 0.3052(3)
C46_21 C 0.13311(18) 0.63075(35) 0.3833(3)
C47_21 C 0.0837(2) 0.6243(3) 0.3892(3)
C48_19 C 0.1342(2) 0.6382(4) 0.3309(3)
H42_19 H 0.1515 0.6439 0.3127
C49_19 C 0.10907(19) 0.65271(27) 0.1453(3)
C50_21 C 0.0567(2) 0.6153(4) 0.4183(3)
C51_19 C 0.11087(18) 0.64331(27) 0.2488(3)
C53_21 C 0.0561(2) 0.6328(4) 0.4574(3)
H43_21 H 0.0735 0.6498 0.4662
C54_19 C 0.10732(17) 0.65706(26) 0.0876(3)
C55_21 C 0.00471(19) 0.59935(36) 0.4721(3)
C56_17 C 0.1244(3) 0.6758(5) 0.1767(4)
H44_19 H 0.1349 0.6946 0.1630
C57_19 C 0.0944(3) 0.6246(4) 0.1638(3)
H45_19 H 0.0839 0.6087 0.1420
C58_21 C 0.0303(2) 0.5903(4) 0.4055(4)
H46_21 H 0.0297 0.5791 0.3774
C59_21 C 0.1571(3) 0.6295(5) 0.4055(4)
C60_19 C 0.0957(3) 0.6204(4) 0.2171(3)
H47_19 H 0.0860 0.6015 0.2305
C61_21 C 0.0296(2) 0.6258(4) 0.4849(3)
H48_22 H 0.0292 0.6382 0.5100
C62_17 C 0.1246(3) 0.6716(5) 0.2304(4)
H49_17 H 0.1339 0.6877 0.2525
C63_21 C 0.0043(3) 0.5814(5) 0.4338(4)
N6_21 N 0.1777(3) 0.6295(5) 0.4252(4)
O9_11 O 0.60816(17) 0.04372(13) 0.4927(2)
O13_12 O 0.57708(17) 0.06428(15) 0.5326(3)
H1_12 H 0.5677 0.0606 0.5035
H2_12 H 0.5715 0.0471 0.5451
O15_12 O 0.6153(3) 0.04928(19) 0.6986(3)
H9_12 H 0.6146 0.0506 0.7339
H10_12 H 0.5959 0.0361 0.6913
O16_12 O 0.5825(2) 0.0676(2) 0.6584(5)
H11_12 H 0.5708 0.0440 0.6604
H12_12 H 0.5710 0.0702 0.6903
C27_12 C 0.6147(2) 0.0239(2) 0.5001(3)
H32_11 H 0.5763 0.0126 0.4267
O21_21 O 0.95628(13) 0.56445(21) 0.4927(2)
O25_23 O 0.93572(15) 0.51281(23) 0.5326(3)
H33_23 H 0.9394 0.5072 0.5035
H34_23 H 0.9529 0.5245 0.5451
O26_23 O 0.95072(19) 0.56606(36) 0.6986(3)
H37_23 H 0.9494 0.5641 0.7339
H38_23 H 0.9639 0.5599 0.6913
O27_23 O 0.9324(2) 0.5150(3) 0.6584(5)
H39_23 H 0.9560 0.5269 0.6604
H40_23 H 0.9298 0.5009 0.6903
C52_23 C 0.9761(2) 0.5909(3) 0.5001(3)
H50_21 H 0.9874 0.5638 0.4267
O41_11 O 0.90655(15) 0.54106(14) 0.4381(2)
O42_6 O 0.63452(21) 0.09345(15) 0.4381(2)
O45_11 O 0.89784(15) 0.54782(15) 0.7379(2)
O46_6 O 0.64999(21) 0.10216(15) 0.7379(2)
O7_6 O 0.54106(14) 0.90655(15) 0.0619(2)
N3_10 N 0.56949(19) 0.93863(16) 0.3111(3)
H7_10 H 0.5732 0.9332 0.2819
H8_10 H 0.5851 0.9456 0.3302
C5_11 C 0.5457(2) 0.9154(2) 0.3343(3)
C6_11 C 0.5165(3) 0.8919(2) 0.4109(3)
H14_11 H 0.5129 0.8924 0.4457
C8_10 C 0.5273(2) 0.88994(19) 0.3052(3)
C14_11 C 0.4976(3) 0.86689(18) 0.3833(3)
C18_11 C 0.5405(2) 0.9163(2) 0.3892(3)
C21_10 C 0.5039(3) 0.8658(2) 0.3309(3)
H20_10 H 0.4923 0.8485 0.3127
C23_10 C 0.54363(19) 0.89093(19) 0.1453(3)
C24_11 C 0.5585(3) 0.9433(2) 0.4183(3)
C26_10 C 0.5324(2) 0.88913(18) 0.2488(3)
C30_11 C 0.5766(3) 0.9439(2) 0.4574(3)
H23_11 H 0.5762 0.9265 0.4662
C31_10 C 0.5497(2) 0.89268(17) 0.0876(3)
C32_11 C 0.5946(3) 0.99529(19) 0.4721(3)
C33_10 C 0.5513(4) 0.8756(3) 0.1767(4)
H24_10 H 0.5596 0.8651 0.1630
C34_10 C 0.5301(3) 0.9056(3) 0.1638(3)
H25_10 H 0.5247 0.9161 0.1420
C35_11 C 0.5599(3) 0.9697(2) 0.4055(4)
H26_11 H 0.5493 0.9703 0.3774
C37_11 C 0.4723(4) 0.8429(3) 0.4055(4)
C39_10 C 0.5246(3) 0.9043(3) 0.2171(3)
H29_10 H 0.5154 0.9140 0.2305
C40_11 C 0.5961(3) 0.9704(2) 0.4849(3)
H30_11 H 0.6089 0.9708 0.5100
C41_10 C 0.5469(4) 0.8754(3) 0.2304(4)
H31_10 H 0.5537 0.8661 0.2525
C42_11 C 0.5770(4) 0.9957(3) 0.4338(4)
N4_11 N 0.4517(4) 0.8223(3) 0.4252(4)
O20_12 O 0.36548(21) 0.45894(26) 0.0619(2)
O21_22 O 0.43555(21) 0.39184(25) 0.4927(2)
O25_24 O 0.48719(23) 0.42292(27) 0.5326(3)
H33_24 H 0.4928 0.4323 0.5035
H34_24 H 0.4755 0.4285 0.5451
N5_20 N 0.36913(25) 0.43051(30) 0.3111(3)
H35_20 H 0.3599 0.4268 0.2819
H36_20 H 0.3604 0.4149 0.3302
O26_24 O 0.43394(36) 0.38467(41) 0.6986(3)
H37_24 H 0.4359 0.3854 0.7339
H38_24 H 0.4401 0.4041 0.6913
O27_24 O 0.4850(3) 0.4175(4) 0.6584(5)
H39_24 H 0.4731 0.4292 0.6604
H40_24 H 0.4991 0.4290 0.6903
C43_22 C 0.3696(3) 0.4543(4) 0.3343(3)
C44_22 C 0.3753(4) 0.4835(4) 0.4109(3)
H41_22 H 0.3794 0.4871 0.4457
C45_20 C 0.36260(28) 0.47267(34) 0.3052(3)
C46_22 C 0.36925(35) 0.50237(39) 0.3833(3)
C47_22 C 0.3757(3) 0.4595(4) 0.3892(3)
C48_20 C 0.3618(4) 0.4961(4) 0.3309(3)
H42_20 H 0.3561 0.5077 0.3127
C49_20 C 0.34729(27) 0.45637(33) 0.1453(3)
C50_22 C 0.3847(4) 0.4415(4) 0.4183(3)
C51_20 C 0.35669(27) 0.46757(32) 0.2488(3)
C52_24 C 0.4091(3) 0.3853(4) 0.5001(3)
C53_22 C 0.3672(4) 0.4234(4) 0.4574(3)
H43_22 H 0.3502 0.4238 0.4662
C54_20 C 0.34294(26) 0.45027(31) 0.0876(3)
C55_22 C 0.40065(36) 0.40537(41) 0.4721(3)
C56_18 C 0.3242(5) 0.4487(6) 0.1767(4)
H44_20 H 0.3054 0.4404 0.1630
C57_20 C 0.3754(4) 0.4699(5) 0.1638(3)
H45_20 H 0.3913 0.4753 0.1420
C58_22 C 0.4097(4) 0.4401(4) 0.4055(4)
H46_22 H 0.4209 0.4507 0.3774
C59_22 C 0.3705(5) 0.5277(6) 0.4055(4)
C60_20 C 0.3796(4) 0.4754(5) 0.2171(3)
H47_20 H 0.3985 0.4846 0.2305
C61_22 C 0.3742(4) 0.4039(4) 0.4849(3)
H48_23 H 0.3618 0.3911 0.5100
C62_18 C 0.3284(5) 0.4531(6) 0.2304(4)
H49_18 H 0.3123 0.4463 0.2525
C63_22 C 0.4186(5) 0.4230(6) 0.4338(4)
H50_22 H 0.4362 0.4237 0.4267
N6_22 N 0.3705(5) 0.5483(6) 0.4252(4)
O41_12 O 0.45894(14) 0.36548(21) 0.4381(2)
O45_12 O 0.45218(15) 0.35001(21) 0.7379(2)
N7_16 N 0.83342(21) 0.83850(15) 0.9042(2)
C67_16 C 0.85658(25) 0.85717(19) 0.9920(3)
H55_16 H 0.8373 0.8817 0.9984
H57_16 H 0.8792 0.8352 0.9997
C80_16 C 0.84466(25) 0.84629(17) 0.9422(3)
N7_17 N 0.00509(26) 0.16658(21) 0.9042(2)
C67_17 C 0.00060(31) 0.14342(25) 0.9920(3)
H55_17 H 0.0445 0.1627 0.9984
C80_17 C 0.00164(30) 0.15534(25) 0.9422(3)
H57_17 H 0.9561 0.1208 0.9997
H57_18 H 0.1648 0.0439 0.9997
N5_21 N 0.39471(16) 0.29753(25) 0.9777(3)
H35_21 H 0.4002 0.3067 0.9485
H36_21 H 0.3878 0.3062 0.9968
C45_21 C 0.44340(19) 0.30406(28) 0.9718(3)
C48_21 C 0.4676(2) 0.3048(4) 0.9975(3)
H42_21 H 0.4849 0.3105 0.9793
C49_21 C 0.44241(19) 0.31937(27) 0.8119(3)
C51_21 C 0.44421(18) 0.30997(27) 0.9154(3)
C54_21 C 0.44066(17) 0.32372(26) 0.7542(3)
C56_19 C 0.4578(3) 0.3424(5) 0.8433(4)
H44_21 H 0.4683 0.3612 0.8296
C57_21 C 0.4278(3) 0.2912(4) 0.8304(3)
H45_21 H 0.4173 0.2753 0.8086
C60_21 C 0.4291(3) 0.2870(4) 0.8837(3)
H47_21 H 0.4194 0.2681 0.8971
C62_19 C 0.4580(3) 0.3382(5) 0.8970(4)
H49_19 H 0.4673 0.3543 0.9191
N3_11 N 0.90283(19) 0.60529(16) 0.9777(3)
H7_11 H 0.9066 0.5998 0.9485
H8_11 H 0.9185 0.6122 0.9968
C8_11 C 0.8607(2) 0.55660(19) 0.9718(3)
C21_11 C 0.8373(3) 0.5324(2) 0.9975(3)
H20_11 H 0.8257 0.5151 0.9793
C23_11 C 0.87697(19) 0.55759(19) 0.8119(3)
C26_11 C 0.8658(2) 0.55579(18) 0.9154(3)
C31_11 C 0.8831(2) 0.55934(17) 0.7542(3)
C33_11 C 0.8847(4) 0.5422(3) 0.8433(4)
H24_11 H 0.8930 0.5317 0.8296
C34_11 C 0.8635(3) 0.5722(3) 0.8304(3)
H25_11 H 0.8581 0.5827 0.8086
C39_11 C 0.8580(3) 0.5709(3) 0.8837(3)
H29_11 H 0.8488 0.5806 0.8971
C41_11 C 0.8803(4) 0.5420(3) 0.8970(4)
H31_11 H 0.8871 0.5327 0.9191
N5_22 N 0.70247(25) 0.09717(30) 0.9777(3)
H35_22 H 0.6933 0.0934 0.9485
H36_22 H 0.6938 0.0815 0.9968
C45_22 C 0.69594(28) 0.13933(34) 0.9718(3)
C48_22 C 0.6952(4) 0.1627(4) 0.9975(3)
H42_22 H 0.6895 0.1743 0.9793
C49_22 C 0.68063(27) 0.12303(33) 0.8119(3)
C51_22 C 0.69003(27) 0.13423(32) 0.9154(3)
C54_22 C 0.67628(26) 0.11693(31) 0.7542(3)
C56_20 C 0.6576(5) 0.1153(6) 0.8433(4)
H44_22 H 0.6388 0.1070 0.8296
C57_22 C 0.7088(4) 0.1365(5) 0.8304(3)
H45_22 H 0.7247 0.1419 0.8086
C60_22 C 0.7130(4) 0.1420(5) 0.8837(3)
H47_22 H 0.7319 0.1512 0.8971
C62_20 C 0.6618(5) 0.1197(6) 0.8970(4)
H49_20 H 0.6457 0.1129 0.9191
N5_23 N 0.63087(25) 0.06137(16) 0.1889(3)
H35_23 H 0.6401 0.0668 0.2181
H36_23 H 0.6396 0.0544 0.1698
C43_23 C 0.6304(3) 0.0846(2) 0.1657(3)
C44_23 C 0.6247(4) 0.1081(2) 0.0891(3)
H41_23 H 0.6206 0.1076 0.0543
C45_23 C 0.63740(28) 0.11006(19) 0.1948(3)
C46_23 C 0.63075(35) 0.13311(18) 0.1167(3)
C47_23 C 0.6243(3) 0.0837(2) 0.1108(3)
C48_23 C 0.6382(4) 0.1342(2) 0.1691(3)
H42_23 H 0.6439 0.1515 0.1873
C49_23 C 0.65271(27) 0.10907(19) 0.3547(3)
C50_23 C 0.6153(4) 0.0567(2) 0.0817(3)
C51_23 C 0.64331(27) 0.11087(18) 0.2512(3)
C53_23 C 0.6328(4) 0.0561(2) 0.0426(3)
H43_23 H 0.6498 0.0735 0.0338
C54_23 C 0.65706(26) 0.10732(17) 0.4124(3)
C55_23 C 0.59935(36) 0.00471(19) 0.0279(3)
C56_21 C 0.6758(5) 0.1244(3) 0.3233(4)
H44_23 H 0.6946 0.1349 0.3370
C57_23 C 0.6246(4) 0.0944(3) 0.3362(3)
H45_23 H 0.6087 0.0839 0.3580
C58_23 C 0.5903(4) 0.0303(2) 0.0945(4)
H46_23 H 0.5791 0.0297 0.1226
C59_23 C 0.6295(5) 0.1571(3) 0.0945(4)
C60_23 C 0.6204(4) 0.0957(3) 0.2829(3)
H47_23 H 0.6015 0.0860 0.2695
C61_23 C 0.6258(4) 0.0296(2) 0.0151(3)
C62_21 C 0.6716(5) 0.1246(3) 0.2696(4)
H49_21 H 0.6877 0.1339 0.2475
C63_23 C 0.5814(5) 0.0043(3) 0.0662(4)
N6_23 N 0.6295(5) 0.1777(3) 0.0748(4)
O9_12 O 0.04372(13) 0.60816(17) 0.0073(2)
H32_12 H 0.0126 0.5763 0.0733
O21_23 O 0.56445(21) 0.95628(13) 0.0073(2)
H50_23 H 0.5638 0.9874 0.0733
N3_12 N 0.93863(16) 0.56949(19) 0.1889(3)
H7_12 H 0.9332 0.5732 0.2181
H8_12 H 0.9456 0.5851 0.1698
C5_12 C 0.9154(2) 0.5457(2) 0.1657(3)
C6_12 C 0.8919(2) 0.5165(3) 0.0891(3)
H14_12 H 0.8924 0.5129 0.0543
C8_12 C 0.88994(19) 0.5273(2) 0.1948(3)
C14_12 C 0.86689(18) 0.4976(3) 0.1167(3)
C18_12 C 0.9163(2) 0.5405(2) 0.1108(3)
C21_12 C 0.8658(2) 0.5039(3) 0.1691(3)
H20_12 H 0.8485 0.4923 0.1873
C23_12 C 0.89093(19) 0.54363(19) 0.3547(3)
C24_12 C 0.9433(2) 0.5585(3) 0.0817(3)
C26_12 C 0.88913(18) 0.5324(2) 0.2512(3)
C30_12 C 0.9439(2) 0.5766(3) 0.0426(3)
H23_12 H 0.9265 0.5762 0.0338
C31_12 C 0.89268(17) 0.5497(2) 0.4124(3)
C32_12 C 0.99529(19) 0.5946(3) 0.0279(3)
C33_12 C 0.8756(3) 0.5513(4) 0.3233(4)
H24_12 H 0.8651 0.5596 0.3370
C34_12 C 0.9056(3) 0.5301(3) 0.3362(3)
H25_12 H 0.9161 0.5247 0.3580
C35_12 C 0.9697(2) 0.5599(3) 0.0945(4)
H26_12 H 0.9703 0.5493 0.1226
C37_12 C 0.8429(3) 0.4723(4) 0.0945(4)
C39_12 C 0.9043(3) 0.5246(3) 0.2829(3)
H29_12 H 0.9140 0.5154 0.2695
C40_12 C 0.9704(2) 0.5961(3) 0.0151(3)
C41_12 C 0.8754(3) 0.5469(4) 0.2696(4)
H31_12 H 0.8661 0.5537 0.2475
C42_12 C 0.9957(3) 0.5770(4) 0.0662(4)
N4_12 N 0.8223(3) 0.4517(4) 0.0748(4)
O21_24 O 0.39184(25) 0.43555(21) 0.0073(2)
N5_24 N 0.43051(30) 0.36913(25) 0.1889(3)
H35_24 H 0.4268 0.3599 0.2181
H36_24 H 0.4149 0.3604 0.1698
C43_24 C 0.4543(4) 0.3696(3) 0.1657(3)
C44_24 C 0.4835(4) 0.3753(4) 0.0891(3)
H41_24 H 0.4871 0.3794 0.0543
C45_24 C 0.47267(34) 0.36260(28) 0.1948(3)
C46_24 C 0.50237(39) 0.36925(35) 0.1167(3)
C47_24 C 0.4595(4) 0.3757(3) 0.1108(3)
C48_24 C 0.4961(4) 0.3618(4) 0.1691(3)
H42_24 H 0.5077 0.3561 0.1873
C49_24 C 0.45637(33) 0.34729(27) 0.3547(3)
C50_24 C 0.4415(4) 0.3847(4) 0.0817(3)
C51_24 C 0.46757(32) 0.35669(27) 0.2512(3)
C53_24 C 0.4234(4) 0.3672(4) 0.0426(3)
H43_24 H 0.4238 0.3502 0.0338
C54_24 C 0.45027(31) 0.34294(26) 0.4124(3)
C55_24 C 0.40537(41) 0.40065(36) 0.0279(3)
C56_22 C 0.4487(6) 0.3242(5) 0.3233(4)
H44_24 H 0.4404 0.3054 0.3370
C57_24 C 0.4699(5) 0.3754(4) 0.3362(3)
H45_24 H 0.4753 0.3913 0.3580
C58_24 C 0.4401(4) 0.4097(4) 0.0945(4)
H46_24 H 0.4507 0.4209 0.1226
C59_24 C 0.5277(6) 0.3705(5) 0.0945(4)
C60_24 C 0.4754(5) 0.3796(4) 0.2829(3)
H47_24 H 0.4846 0.3985 0.2695
C61_24 C 0.4039(4) 0.3742(4) 0.0151(3)
C62_22 C 0.4531(6) 0.3284(5) 0.2696(4)
H49_22 H 0.4463 0.3123 0.2475
C63_24 C 0.4230(6) 0.4186(5) 0.0662(4)
H50_24 H 0.4237 0.4362 0.0733
N6_24 N 0.5483(6) 0.3705(5) 0.0748(4)
C56_23 C 0.0091(5) 0.7911(3) 0.9900(4)
C62_23 C 0.0049(5) 0.7913(3) 0.9363(4)
H49_23 H 0.0210 0.8006 0.9142
C56_24 C 0.7820(6) 0.9909(5) 0.9900(4)
C62_24 C 0.7864(6) 0.9951(5) 0.9363(4)
H49_24 H 0.7796 0.9790 0.9142
N7_18 N 0.16150(15) 0.99491(26) 0.9042(2)
C67_18 C 0.14283(19) 0.99940(31) 0.9920(3)
H55_18 H 0.1183 0.9555 0.9984
C80_18 C 0.15371(17) 0.99836(30) 0.9422(3)
H48_24 H 0.6382 0.0292 0.9900
H30_12 H 0.9708 0.6089 0.9900
Re1 Re 0.69906(6) 0.63984(3) 0.33954(8)
O48 O 0.6893(6) 0.6242(4) 0.2819(5)
O49 O 0.6726(5) 0.6194(6) 0.3842(8)
O50 O 0.7070(7) 0.6755(3) 0.3399(11)
O51 O 0.7315(4) 0.6437(5) 0.3607(10)
Re1_2 Re 0.36016(3) 0.05922(7) 0.33954(8)
O48_2 O 0.3758(4) 0.0651(7) 0.2819(5)
O49_2 O 0.3806(6) 0.0532(8) 0.3842(8)
O50_2 O 0.3245(3) 0.0315(8) 0.3399(11)
O51_2 O 0.3563(5) 0.0878(6) 0.3607(10)
Re1_3 Re 0.94078(7) 0.30094(6) 0.33954(8)
O48_3 O 0.9349(7) 0.3107(6) 0.2819(5)
O49_3 O 0.9468(8) 0.3274(5) 0.3842(8)
O50_3 O 0.9685(8) 0.2930(7) 0.3399(11)
O51_3 O 0.9122(6) 0.2685(4) 0.3607(10)
Re1_4 Re 0.63984(3) 0.69906(6) 0.16046(8)
O48_4 O 0.6242(4) 0.6893(6) 0.2181(5)
O49_4 O 0.6194(6) 0.6726(5) 0.1158(8)
O50_4 O 0.6755(3) 0.7070(7) 0.1601(11)
O51_4 O 0.6437(5) 0.7315(4) 0.1393(10)
Re1_5 Re 0.05922(7) 0.36016(3) 0.16046(8)
O48_5 O 0.0651(7) 0.3758(4) 0.2181(5)
O49_5 O 0.0532(8) 0.3806(6) 0.1158(8)
O50_5 O 0.0315(8) 0.3245(3) 0.1601(11)
O51_5 O 0.0878(6) 0.3563(5) 0.1393(10)
Re1_6 Re 0.30094(6) 0.94078(7) 0.16046(8)
O48_6 O 0.3107(6) 0.9349(7) 0.2181(5)
O49_6 O 0.3274(5) 0.9468(8) 0.1158(8)
O50_6 O 0.2930(7) 0.9685(8) 0.1601(11)
O51_6 O 0.2685(4) 0.9122(6) 0.1393(10)
O50_7 O 0.3737(7) 0.0088(3) 0.6732(11)
Re1_7 Re 0.36573(6) 0.97317(3) 0.67287(8)
O48_7 O 0.3560(6) 0.9575(4) 0.6152(5)
O49_7 O 0.3393(5) 0.9527(6) 0.7175(8)
O51_7 O 0.3982(4) 0.9770(5) 0.6940(10)
Re1_8 Re 0.02683(3) 0.39255(7) 0.67287(8)
O48_8 O 0.0425(4) 0.3984(7) 0.6152(5)
O49_8 O 0.0473(6) 0.3865(8) 0.7175(8)
O51_8 O 0.0230(5) 0.4211(6) 0.6940(10)
O50_8 O 0.9912(3) 0.3648(8) 0.6732(11)
Re1_9 Re 0.60745(7) 0.63427(6) 0.67287(8)
O48_9 O 0.6016(7) 0.6440(6) 0.6152(5)
O49_9 O 0.6135(8) 0.6607(5) 0.7175(8)
O50_9 O 0.6352(8) 0.6263(7) 0.6732(11)
O51_9 O 0.5789(6) 0.6018(4) 0.6940(10)
Re1_10 Re 0.30651(3) 0.03239(6) 0.49379(8)
O48_10 O 0.2909(4) 0.0226(6) 0.5514(5)
O49_10 O 0.2861(6) 0.0059(5) 0.4491(8)
O50_10 O 0.3422(3) 0.0403(7) 0.4934(11)
O51_10 O 0.3104(5) 0.0648(4) 0.4726(10)
Re1_11 Re 0.72589(7) 0.69349(3) 0.49379(8)
O48_11 O 0.7318(7) 0.7091(4) 0.5514(5)
O49_11 O 0.7199(8) 0.7139(6) 0.4491(8)
O50_11 O 0.6982(8) 0.6578(3) 0.4934(11)
O51_11 O 0.7545(6) 0.6896(5) 0.4726(10)
Re1_12 Re 0.96761(6) 0.27411(7) 0.49379(8)
O48_12 O 0.9774(6) 0.2682(7) 0.5514(5)
O49_12 O 0.9941(5) 0.2801(8) 0.4491(8)
O50_12 O 0.9597(7) 0.3018(8) 0.4934(11)
O51_12 O 0.9352(4) 0.2455(6) 0.4726(10)
Re1_13 Re 0.03239(6) 0.30651(3) 0.00621(8)
O49_13 O 0.0059(5) 0.2861(6) 0.0509(8)
O50_13 O 0.0403(7) 0.3422(3) 0.0066(11)
O51_13 O 0.0648(4) 0.3104(5) 0.0274(10)
O48_13 O 0.0226(6) 0.2909(4) 0.9486(5)
Re1_14 Re 0.69349(3) 0.72589(7) 0.00621(8)
O49_14 O 0.7139(6) 0.7199(8) 0.0509(8)
O50_14 O 0.6578(3) 0.6982(8) 0.0066(11)
O51_14 O 0.6896(5) 0.7545(6) 0.0274(10)
O48_14 O 0.7091(4) 0.7318(7) 0.9486(5)
Re1_15 Re 0.27411(7) 0.96761(6) 0.00621(8)
O49_15 O 0.2801(8) 0.9941(5) 0.0509(8)
O50_15 O 0.3018(8) 0.9597(7) 0.0066(11)
O51_15 O 0.2455(6) 0.9352(4) 0.0274(10)
O48_15 O 0.2682(7) 0.9774(6) 0.9486(5)
O50_16 O 0.0088(3) 0.3737(7) 0.8268(11)
Re1_16 Re 0.97317(3) 0.36573(6) 0.82713(8)
O48_16 O 0.9575(4) 0.3560(6) 0.8848(5)
O49_16 O 0.9527(6) 0.3393(5) 0.7825(8)
O51_16 O 0.9770(5) 0.3982(4) 0.8060(10)
Re1_17 Re 0.39255(7) 0.02683(3) 0.82713(8)
O48_17 O 0.3984(7) 0.0425(4) 0.8848(5)
O49_17 O 0.3865(8) 0.0473(6) 0.7825(8)
O51_17 O 0.4211(6) 0.0230(5) 0.8060(10)
O50_17 O 0.3648(8) 0.9912(3) 0.8268(11)
Re1_18 Re 0.63427(6) 0.60745(7) 0.82713(8)
O48_18 O 0.6440(6) 0.6016(7) 0.8848(5)
O49_18 O 0.6607(5) 0.6135(8) 0.7825(8)
O50_18 O 0.6263(7) 0.6352(8) 0.8268(11)
O51_18 O 0.6018(4) 0.5789(6) 0.8060(10)
Re1_19 Re 0.30094(6) 0.36016(3) 0.66046(8)
O48_19 O 0.3107(6) 0.3758(4) 0.7181(5)
O49_19 O 0.3274(5) 0.3806(6) 0.6158(8)
O50_19 O 0.2930(7) 0.3245(3) 0.6601(11)
O51_19 O 0.2685(4) 0.3563(5) 0.6393(10)
Re1_20 Re 0.63984(3) 0.94078(7) 0.66046(8)
O48_20 O 0.6242(4) 0.9349(7) 0.7181(5)
O49_20 O 0.6194(6) 0.9468(8) 0.6158(8)
O50_20 O 0.6755(3) 0.9685(8) 0.6601(11)
O51_20 O 0.6437(5) 0.9122(6) 0.6393(10)
Re1_21 Re 0.05922(7) 0.69906(6) 0.66046(8)
O48_21 O 0.0651(7) 0.6893(6) 0.7181(5)
O49_21 O 0.0532(8) 0.6726(5) 0.6158(8)
O50_21 O 0.0315(8) 0.7070(7) 0.6601(11)
O51_21 O 0.0878(6) 0.7315(4) 0.6393(10)
Re1_22 Re 0.36016(3) 0.30094(6) 0.83954(8)
O48_22 O 0.3758(4) 0.3107(6) 0.7819(5)
O49_22 O 0.3806(6) 0.3274(5) 0.8842(8)
O50_22 O 0.3245(3) 0.2930(7) 0.8399(11)
O51_22 O 0.3563(5) 0.2685(4) 0.8607(10)
Re1_23 Re 0.94078(7) 0.63984(3) 0.83954(8)
O48_23 O 0.9349(7) 0.6242(4) 0.7819(5)
O49_23 O 0.9468(8) 0.6194(6) 0.8842(8)
O50_23 O 0.9685(8) 0.6755(3) 0.8399(11)
O51_23 O 0.9122(6) 0.6437(5) 0.8607(10)
Re1_24 Re 0.69906(6) 0.05922(7) 0.83954(8)
O48_24 O 0.6893(6) 0.0651(7) 0.7819(5)
O49_24 O 0.6726(5) 0.0532(8) 0.8842(8)
O50_24 O 0.7070(7) 0.0315(8) 0.8399(11)
O51_24 O 0.7315(4) 0.0878(6) 0.8607(10)
Re1_25 Re 0.63427(6) 0.02683(3) 0.32713(8)
O48_25 O 0.6440(6) 0.0425(4) 0.3848(5)
O49_25 O 0.6607(5) 0.0473(6) 0.2825(8)
O51_25 O 0.6018(4) 0.0230(5) 0.3060(10)
O50_25 O 0.6263(7) 0.9912(3) 0.3268(11)
O50_26 O 0.0088(3) 0.6352(8) 0.3268(11)
Re1_26 Re 0.97317(3) 0.60745(7) 0.32713(8)
O48_26 O 0.9575(4) 0.6016(7) 0.3848(5)
O49_26 O 0.9527(6) 0.6135(8) 0.2825(8)
O51_26 O 0.9770(5) 0.5789(6) 0.3060(10)
Re1_27 Re 0.39255(7) 0.36573(6) 0.32713(8)
O48_27 O 0.3984(7) 0.3560(6) 0.3848(5)
O49_27 O 0.3865(8) 0.3393(5) 0.2825(8)
O50_27 O 0.3648(8) 0.3737(7) 0.3268(11)
O51_27 O 0.4211(6) 0.3982(4) 0.3060(10)
Re1_28 Re 0.69349(3) 0.96761(6) 0.50621(8)
O48_28 O 0.7091(4) 0.9774(6) 0.4486(5)
O49_28 O 0.7139(6) 0.9941(5) 0.5509(8)
O50_28 O 0.6578(3) 0.9597(7) 0.5066(11)
O51_28 O 0.6896(5) 0.9352(4) 0.5274(10)
Re1_29 Re 0.27411(7) 0.30651(3) 0.50621(8)
O48_29 O 0.2682(7) 0.2909(4) 0.4486(5)
O49_29 O 0.2801(8) 0.2861(6) 0.5509(8)
O50_29 O 0.3018(8) 0.3422(3) 0.5066(11)
O51_29 O 0.2455(6) 0.3104(5) 0.5274(10)
Re1_30 Re 0.03239(6) 0.72589(7) 0.50621(8)
O48_30 O 0.0226(6) 0.7318(7) 0.4486(5)
O49_30 O 0.0059(5) 0.7199(8) 0.5509(8)
O50_30 O 0.0403(7) 0.6982(8) 0.5066(11)
O51_30 O 0.0648(4) 0.7545(6) 0.5274(10)
O48_31 O 0.9774(6) 0.7091(4) 0.0514(5)
Re1_31 Re 0.96761(6) 0.69349(3) 0.99379(8)
O49_31 O 0.9941(5) 0.7139(6) 0.9491(8)
O50_31 O 0.9597(7) 0.6578(3) 0.9934(11)
O51_31 O 0.9352(4) 0.6896(5) 0.9726(10)
O48_32 O 0.2909(4) 0.2682(7) 0.0514(5)
Re1_32 Re 0.30651(3) 0.27411(7) 0.99379(8)
O49_32 O 0.2861(6) 0.2801(8) 0.9491(8)
O50_32 O 0.3422(3) 0.3018(8) 0.9934(11)
O51_32 O 0.3104(5) 0.2455(6) 0.9726(10)
O48_33 O 0.7318(7) 0.0226(6) 0.0514(5)
Re1_33 Re 0.72589(7) 0.03239(6) 0.99379(8)
O49_33 O 0.7199(8) 0.0059(5) 0.9491(8)
O50_33 O 0.6982(8) 0.0403(7) 0.9934(11)
O51_33 O 0.7545(6) 0.0648(4) 0.9726(10)
Re1_34 Re 0.02683(3) 0.63427(6) 0.17287(8)
O48_34 O 0.0425(4) 0.6440(6) 0.1152(5)
O49_34 O 0.0473(6) 0.6607(5) 0.2175(8)
O51_34 O 0.0230(5) 0.6018(4) 0.1940(10)
O50_34 O 0.9912(3) 0.6263(7) 0.1732(11)
O50_35 O 0.6352(8) 0.0088(3) 0.1732(11)
Re1_35 Re 0.60745(7) 0.97317(3) 0.17287(8)
O48_35 O 0.6016(7) 0.9575(4) 0.1152(5)
O49_35 O 0.6135(8) 0.9527(6) 0.2175(8)
O51_35 O 0.5789(6) 0.9770(5) 0.1940(10)
Re1_36 Re 0.36573(6) 0.39255(7) 0.17287(8)
O48_36 O 0.3560(6) 0.3984(7) 0.1152(5)
O49_36 O 0.3393(5) 0.3865(8) 0.2175(8)
O50_36 O 0.3737(7) 0.3648(8) 0.1732(11)
O51_36 O 0.3982(4) 0.4211(6) 0.1940(10)
Re2 Re 0.57319(9) 0.50507(7) 0.4426(2)
O52 O 0.5960(7) 0.5012(7) 0.4824(17)
O53 O 0.5771(11) 0.4956(11) 0.3807(10)
O54 O 0.5802(9) 0.5408(4) 0.442(2)
O55 O 0.5369(4) 0.4827(7) 0.4601(16)
Re2_2 Re 0.49493(7) 0.06812(11) 0.4426(2)
O52_2 O 0.4988(7) 0.0948(10) 0.4824(17)
O53_2 O 0.5044(11) 0.0815(16) 0.3807(10)
O54_2 O 0.4592(4) 0.0394(10) 0.442(2)
O55_2 O 0.5173(7) 0.0542(8) 0.4601(16)
Re2_3 Re 0.93188(11) 0.42681(9) 0.4426(2)
O52_3 O 0.9052(10) 0.4040(7) 0.4824(17)
O53_3 O 0.9185(16) 0.4229(11) 0.3807(10)
O54_3 O 0.9606(10) 0.4198(9) 0.442(2)
O55_3 O 0.9458(8) 0.4631(4) 0.4601(16)
Re2_4 Re 0.50507(7) 0.57319(9) 0.0574(2)
O52_4 O 0.5012(7) 0.5960(7) 0.0176(17)
O53_4 O 0.4956(11) 0.5771(11) 0.1193(10)
O54_4 O 0.5408(4) 0.5802(9) 0.058(2)
O55_4 O 0.4827(7) 0.5369(4) 0.0399(16)
Re2_5 Re 0.06812(11) 0.49493(7) 0.0574(2)
O52_5 O 0.0948(10) 0.4988(7) 0.0176(17)
O53_5 O 0.0815(16) 0.5044(11) 0.1193(10)
O54_5 O 0.0394(10) 0.4592(4) 0.058(2)
O55_5 O 0.0542(8) 0.5173(7) 0.0399(16)
Re2_6 Re 0.42681(9) 0.93188(11) 0.0574(2)
O52_6 O 0.4040(7) 0.9052(10) 0.0176(17)
O53_6 O 0.4229(11) 0.9185(16) 0.1193(10)
O54_6 O 0.4198(9) 0.9606(10) 0.058(2)
O55_6 O 0.4631(4) 0.9458(8) 0.0399(16)
Re2_7 Re 0.23986(9) 0.83840(7) 0.7759(2)
O52_7 O 0.2627(7) 0.8345(7) 0.8157(17)
O53_7 O 0.2438(11) 0.8289(11) 0.7140(10)
O54_7 O 0.2469(9) 0.8741(4) 0.775(2)
O55_7 O 0.2036(4) 0.8160(7) 0.7934(16)
Re2_8 Re 0.16160(7) 0.40145(11) 0.7759(2)
O52_8 O 0.1655(7) 0.4281(10) 0.8157(17)
O53_8 O 0.1711(11) 0.4148(16) 0.7140(10)
O54_8 O 0.1259(4) 0.3727(10) 0.775(2)
O55_8 O 0.1840(7) 0.3875(8) 0.7934(16)
Re2_9 Re 0.59855(11) 0.76014(9) 0.7759(2)
O52_9 O 0.5719(10) 0.7373(7) 0.8157(17)
O53_9 O 0.5852(16) 0.7562(11) 0.7140(10)
O54_9 O 0.6273(10) 0.7531(9) 0.775(2)
O55_9 O 0.6125(8) 0.7964(4) 0.7934(16)
Re2_10 Re 0.17174(7) 0.90652(9) 0.3907(2)
O52_10 O 0.1679(7) 0.9293(7) 0.3509(17)
O53_10 O 0.1623(11) 0.9104(11) 0.4526(10)
O54_10 O 0.2075(4) 0.9135(9) 0.391(2)
O55_10 O 0.1494(7) 0.8702(4) 0.3732(16)
Re2_11 Re 0.73479(11) 0.82826(7) 0.3907(2)
O52_11 O 0.7615(10) 0.8321(7) 0.3509(17)
O53_11 O 0.7482(16) 0.8377(11) 0.4526(10)
O54_11 O 0.7061(10) 0.7925(4) 0.391(2)
O55_11 O 0.7209(8) 0.8506(7) 0.3732(16)
Re2_12 Re 0.09348(9) 0.26521(11) 0.3907(2)
O52_12 O 0.0707(7) 0.2385(10) 0.3509(17)
O53_12 O 0.0896(11) 0.2518(16) 0.4526(10)
O54_12 O 0.0865(9) 0.2939(10) 0.391(2)
O55_12 O 0.1298(4) 0.2791(8) 0.3732(16)
Re2_13 Re 0.90652(9) 0.17174(7) 0.1093(2)
O52_13 O 0.9293(7) 0.1679(7) 0.1491(17)
O53_13 O 0.9104(11) 0.1623(11) 0.0474(10)
O54_13 O 0.9135(9) 0.2075(4) 0.109(2)
O55_13 O 0.8702(4) 0.1494(7) 0.1268(16)
Re2_14 Re 0.82826(7) 0.73479(11) 0.1093(2)
O52_14 O 0.8321(7) 0.7615(10) 0.1491(17)
O53_14 O 0.8377(11) 0.7482(16) 0.0474(10)
O54_14 O 0.7925(4) 0.7061(10) 0.109(2)
O55_14 O 0.8506(7) 0.7209(8) 0.1268(16)
Re2_15 Re 0.26521(11) 0.09348(9) 0.1093(2)
O52_15 O 0.2385(10) 0.0707(7) 0.1491(17)
O53_15 O 0.2518(16) 0.0896(11) 0.0474(10)
O54_15 O 0.2939(10) 0.0865(9) 0.109(2)
O55_15 O 0.2791(8) 0.1298(4) 0.1268(16)
Re2_16 Re 0.83840(7) 0.23986(9) 0.7241(2)
O52_16 O 0.8345(7) 0.2627(7) 0.6843(17)
O53_16 O 0.8289(11) 0.2438(11) 0.7860(10)
O54_16 O 0.8741(4) 0.2469(9) 0.725(2)
O55_16 O 0.8160(7) 0.2036(4) 0.7066(16)
Re2_17 Re 0.40145(11) 0.16160(7) 0.7241(2)
O52_17 O 0.4281(10) 0.1655(7) 0.6843(17)
O53_17 O 0.4148(16) 0.1711(11) 0.7860(10)
O54_17 O 0.3727(10) 0.1259(4) 0.725(2)
O55_17 O 0.3875(8) 0.1840(7) 0.7066(16)
Re2_18 Re 0.76014(9) 0.59855(11) 0.7241(2)
O52_18 O 0.7373(7) 0.5719(10) 0.6843(17)
O53_18 O 0.7562(11) 0.5852(16) 0.7860(10)
O54_18 O 0.7531(9) 0.6273(10) 0.725(2)
O55_18 O 0.7964(4) 0.6125(8) 0.7066(16)
Re2_19 Re 0.42681(9) 0.49493(7) 0.5574(2)
O52_19 O 0.4040(7) 0.4988(7) 0.5176(17)
O53_19 O 0.4229(11) 0.5044(11) 0.6193(10)
O54_19 O 0.4198(9) 0.4592(4) 0.558(2)
O55_19 O 0.4631(4) 0.5173(7) 0.5399(16)
Re2_20 Re 0.50507(7) 0.93188(11) 0.5574(2)
O52_20 O 0.5012(7) 0.9052(10) 0.5176(17)
O53_20 O 0.4956(11) 0.9185(16) 0.6193(10)
O54_20 O 0.5408(4) 0.9606(10) 0.558(2)
O55_20 O 0.4827(7) 0.9458(8) 0.5399(16)
Re2_21 Re 0.06812(11) 0.57319(9) 0.5574(2)
O52_21 O 0.0948(10) 0.5960(7) 0.5176(17)
O53_21 O 0.0815(16) 0.5771(11) 0.6193(10)
O54_21 O 0.0394(10) 0.5802(9) 0.558(2)
O55_21 O 0.0542(8) 0.5369(4) 0.5399(16)
Re2_22 Re 0.49493(7) 0.42681(9) 0.9426(2)
O52_22 O 0.4988(7) 0.4040(7) 0.9824(17)
O53_22 O 0.5044(11) 0.4229(11) 0.8807(10)
O54_22 O 0.4592(4) 0.4198(9) 0.942(2)
O55_22 O 0.5173(7) 0.4631(4) 0.9601(16)
Re2_23 Re 0.93188(11) 0.50507(7) 0.9426(2)
O52_23 O 0.9052(10) 0.5012(7) 0.9824(17)
O53_23 O 0.9185(16) 0.4956(11) 0.8807(10)
O54_23 O 0.9606(10) 0.5408(4) 0.942(2)
O55_23 O 0.9458(8) 0.4827(7) 0.9601(16)
Re2_24 Re 0.57319(9) 0.06812(11) 0.9426(2)
O52_24 O 0.5960(7) 0.0948(10) 0.9824(17)
O53_24 O 0.5771(11) 0.0815(16) 0.8807(10)
O54_24 O 0.5802(9) 0.0394(10) 0.942(2)
O55_24 O 0.5369(4) 0.0542(8) 0.9601(16)
Re2_25 Re 0.76014(9) 0.16160(7) 0.2241(2)
O52_25 O 0.7373(7) 0.1655(7) 0.1843(17)
O53_25 O 0.7562(11) 0.1711(11) 0.2860(10)
O54_25 O 0.7531(9) 0.1259(4) 0.225(2)
O55_25 O 0.7964(4) 0.1840(7) 0.2066(16)
Re2_26 Re 0.83840(7) 0.59855(11) 0.2241(2)
O52_26 O 0.8345(7) 0.5719(10) 0.1843(17)
O53_26 O 0.8289(11) 0.5852(16) 0.2860(10)
O54_26 O 0.8741(4) 0.6273(10) 0.225(2)
O55_26 O 0.8160(7) 0.6125(8) 0.2066(16)
Re2_27 Re 0.40145(11) 0.23986(9) 0.2241(2)
O52_27 O 0.4281(10) 0.2627(7) 0.1843(17)
O53_27 O 0.4148(16) 0.2438(11) 0.2860(10)
O54_27 O 0.3727(10) 0.2469(9) 0.225(2)
O55_27 O 0.3875(8) 0.2036(4) 0.2066(16)
Re2_28 Re 0.82826(7) 0.09348(9) 0.6093(2)
O52_28 O 0.8321(7) 0.0707(7) 0.6491(17)
O53_28 O 0.8377(11) 0.0896(11) 0.5474(10)
O54_28 O 0.7925(4) 0.0865(9) 0.609(2)
O55_28 O 0.8506(7) 0.1298(4) 0.6268(16)
Re2_29 Re 0.26521(11) 0.17174(7) 0.6093(2)
O52_29 O 0.2385(10) 0.1679(7) 0.6491(17)
O53_29 O 0.2518(16) 0.1623(11) 0.5474(10)
O54_29 O 0.2939(10) 0.2075(4) 0.609(2)
O55_29 O 0.2791(8) 0.1494(7) 0.6268(16)
Re2_30 Re 0.90652(9) 0.73479(11) 0.6093(2)
O52_30 O 0.9293(7) 0.7615(10) 0.6491(17)
O53_30 O 0.9104(11) 0.7482(16) 0.5474(10)
O54_30 O 0.9135(9) 0.7061(10) 0.609(2)
O55_30 O 0.8702(4) 0.7209(8) 0.6268(16)
Re2_31 Re 0.09348(9) 0.82826(7) 0.8907(2)
O52_31 O 0.0707(7) 0.8321(7) 0.8509(17)
O53_31 O 0.0896(11) 0.8377(11) 0.9526(10)
O54_31 O 0.0865(9) 0.7925(4) 0.891(2)
O55_31 O 0.1298(4) 0.8506(7) 0.8732(16)
Re2_32 Re 0.17174(7) 0.26521(11) 0.8907(2)
O52_32 O 0.1679(7) 0.2385(10) 0.8509(17)
O53_32 O 0.1623(11) 0.2518(16) 0.9526(10)
O54_32 O 0.2075(4) 0.2939(10) 0.891(2)
O55_32 O 0.1494(7) 0.2791(8) 0.8732(16)
Re2_33 Re 0.73479(11) 0.90652(9) 0.8907(2)
O52_33 O 0.7615(10) 0.9293(7) 0.8509(17)
O53_33 O 0.7482(16) 0.9104(11) 0.9526(10)
O54_33 O 0.7061(10) 0.9135(9) 0.891(2)
O55_33 O 0.7209(8) 0.8702(4) 0.8732(16)
Re2_34 Re 0.16160(7) 0.76014(9) 0.2759(2)
O52_34 O 0.1655(7) 0.7373(7) 0.3157(17)
O53_34 O 0.1711(11) 0.7562(11) 0.2140(10)
O54_34 O 0.1259(4) 0.7531(9) 0.275(2)
O55_34 O 0.1840(7) 0.7964(4) 0.2934(16)
Re2_35 Re 0.59855(11) 0.83840(7) 0.2759(2)
O52_35 O 0.5719(10) 0.8345(7) 0.3157(17)
O53_35 O 0.5852(16) 0.8289(11) 0.2140(10)
O54_35 O 0.6273(10) 0.8741(4) 0.275(2)
O55_35 O 0.6125(8) 0.8160(7) 0.2934(16)
Re2_36 Re 0.23986(9) 0.40145(11) 0.2759(2)
O52_36 O 0.2627(7) 0.4281(10) 0.3157(17)
O53_36 O 0.2438(11) 0.4148(16) 0.2140(10)
O54_36 O 0.2469(9) 0.3727(10) 0.275(2)
O55_36 O 0.2036(4) 0.3875(8) 0.2934(16)
loop_
_geom_bond_atom_site_label_1
_geom_bond_atom_site_label_2
_geom_bond_site_symmetry_1
_geom_bond_site_symmetry_2
Zr1 O1 1_555 1_555
Zr2 O1 1_555 1_555
Zr3 O2 1_555 1_555
Zr4 O4 1_555 1_555
O1 Zr15 1_555 1_555
O2 Zr1 1_555 1_555
O3 Zr1 1_555 1_555
O4 Zr2 1_555 1_555
O5 C2 1_555 1_555
O6 C10 1_555 1_555
O7 C31 1_555 1_555
O8 C2 1_555 1_555
O9 Zr2 1_555 1_555
O10 Zr2 1_555 1_555
O11 C31 1_555 1_555
O12 Zr4 1_555 1_555
O13 Zr2 1_555 1_555
H1 O13 1_555 1_555
H2 O13 1_555 1_555
O14 Zr4 1_555 1_555
H3 O14 1_555 1_555
H4 O14 1_555 1_555
N1 C25 1_555 1_555
N2 H5 1_555 1_555
H6 N2 1_555 1_555
N3 H7 1_555 1_555
H8 N3 1_555 1_555
C1 C3 1_555 1_555
O16 Zr3 1_555 1_555
H11 O16 1_555 1_555
C2 C29 1_555 1_555
C3 H13 1_555 1_555
C4 C11 1_555 1_555
C5 N3 1_555 1_555
C6 H14 1_555 1_555
C7 C12 1_555 1_555
C8 C5 1_555 1_555
C9 H15 1_555 1_555
C10 O3 1_555 1_555
C11 H16 1_555 1_555
C12 C11 1_555 1_555
C13 N2 1_555 1_555
C14 C6 1_555 1_555
C15 C9 1_555 1_555
H17 C15 1_555 1_555
C16 C4 1_555 1_555
H18 C16 1_555 1_555
C17 C9 1_555 1_555
C18 C5 1_555 1_555
C19 C3 1_555 1_555
H19 C19 1_555 1_555
C20 C13 1_555 1_555
C21 C8 1_555 1_555
H20 C21 1_555 1_555
C22 C7 1_555 1_555
H21 C22 1_555 1_555
C23 C31 1_555 1_555
C24 C18 1_555 1_555
C25 C4 1_555 1_555
C26 C8 1_555 1_555
C27 O9 1_555 1_555
C28 C1 1_555 1_555
H22 C28 1_555 1_555
C29 C15 1_555 1_555
C30 C24 1_555 1_555
H23 C30 1_555 1_555
C32 C27 1_555 1_555
C33 C23 1_555 1_555
H24 C33 1_555 1_555
C34 C23 1_555 1_555
H25 C34 1_555 1_555
C35 C24 1_555 1_555
H26 C35 1_555 1_555
C36 C17 1_555 1_555
H27 C36 1_555 1_555
C37 C14 1_555 1_555
C38 C29 1_555 1_555
H28 C38 1_555 1_555
C39 C26 1_555 1_555
H29 C39 1_555 1_555
C40 C30 1_555 1_555
H30 C40 1_555 1_555
C41 C26 1_555 1_555
H31 C41 1_555 1_555
C42 C32 1_555 1_555
H32 C42 1_555 1_555
N4 C37 1_555 1_555
Zr5 O8 1_555 1_555
Zr6 O18 1_555 1_555
O17 Zr5 1_555 1_555
O18 Zr5 1_555 1_555
O19 Zr5 1_555 1_555
O20 C54 1_555 1_555
O21 Zr5 1_555 1_555
O22 Zr5 1_555 1_555
O24 C52 1_555 1_555
O25 Zr5 1_555 1_555
H33 O25 1_555 1_555
H34 O25 1_555 1_555
N5 H35 1_555 1_555
H36 N5 1_555 1_555
O27 Zr6 1_555 1_555
H39 O27 1_555 1_555
C43 N5 1_555 1_555
C44 H41 1_555 1_555
C45 C43 1_555 1_555
C46 C44 1_555 1_555
C47 C43 1_555 1_555
C48 C45 1_555 1_555
H42 C48 1_555 1_555
C49 C54 1_555 1_555
C50 C47 1_555 1_555
C51 C45 1_555 1_555
C52 O21 1_555 1_555
C53 C50 1_555 1_555
H43 C53 1_555 1_555
C55 C52 1_555 1_555
C57 C49 1_555 1_555
H45 C57 1_555 1_555
C58 C50 1_555 1_555
H46 C58 1_555 1_555
C59 C46 1_555 1_555
C60 C51 1_555 1_555
H47 C60 1_555 1_555
C61 C53 1_555 1_555
H48 C61 1_555 1_555
C63 C55 1_555 1_555
H50 C63 1_555 1_555
N6 C59 1_555 1_555
O28 Zr1 1_555 1_555
O29 C65 1_555 1_555
O32 Zr4 1_555 1_555
H63 O32 1_555 1_555
H64 O32 1_555 1_555
Zr7 O5 1_555 1_555
Zr8 O29 1_555 1_555
Zr9 O20 1_555 1_555
Zr10 O7 1_555 1_555
Zr12 O11 1_555 1_555
Zr14 O17 1_555 1_555
Zr15 O4 1_555 1_555
Zr16 O19 1_555 1_555
O33 Zr6 1_555 1_555
O34 Zr1 1_555 1_555
O35 Zr1 1_555 1_555
O36 Zr6 1_555 1_555
O37 Zr3 1_555 1_555
O38 Zr1 1_555 1_555
O39 Zr1 1_555 1_555
O41 Zr5 1_555 1_555
O42 Zr2 1_555 1_555
O43 Zr2 1_555 1_555
O44 Zr4 1_555 1_555
O47 Zr4 1_555 1_555
Zr2 O2 1_555 1_555
Zr3 O10 1_555 1_555
Zr3 O34 1_555 1_555
Zr4 O10 1_555 1_555
Zr4 O37 1_555 1_555
O6 Zr15 1_555 1_555
O12 C27 1_555 1_555
C1 C10 1_555 1_555
C6 C18 1_555 1_555
C7 C19 1_555 1_555
C12 C13 1_555 1_555
C14 C21 1_555 1_555
C16 C20 1_555 1_555
C17 C20 1_555 1_555
C22 C28 1_555 1_555
C32 C40 1_555 1_555
C33 C41 1_555 1_555
C34 C39 1_555 1_555
C35 C42 1_555 1_555
C36 C38 1_555 1_555
Zr6 O22 1_555 1_555
O17 Zr7 1_555 1_555
O18 Zr7 1_555 1_555
O19 Zr14 1_555 1_555
O22 Zr16 1_555 1_555
O24 Zr16 1_555 1_555
C44 C47 1_555 1_555
C46 C48 1_555 1_555
C55 C61 1_555 1_555
C57 C60 1_555 1_555
C58 C63 1_555 1_555
Zr7 O33 1_555 1_555
Zr15 O35 1_555 1_555
Zr15 O44 1_555 1_555
Zr16 O36 1_555 1_555
H44 C56 1_555 1_555
H49 C62 1_555 1_555
Zr13 O23 1_555 1_555
C56 C62 1_555 1_555
H44_2 C56_2 1_555 1_555
H49_2 C62_2 1_555 1_555
Zr13_2 O23_2 1_555 1_555
C56_2 C62_2 1_555 1_555
O3_2 Zr7 1_555 1_555
O5_2 C2_2 1_555 1_555
O6_2 C10_2 1_555 1_555
O8_2 C2_2 1_555 1_555
O14_2 Zr16 1_555 1_555
H3_2 O14_2 1_555 1_555
H4_2 O14_2 1_555 1_555
N1_2 C25_2 1_555 1_555
N2_2 H5_2 1_555 1_555
H6_2 N2_2 1_555 1_555
C1_2 C3_2 1_555 1_555
C2_2 C29_2 1_555 1_555
C3_2 H13_2 1_555 1_555
C4_2 C11_2 1_555 1_555
C7_2 C12_2 1_555 1_555
C9_2 H15_2 1_555 1_555
C10_2 O3_2 1_555 1_555
C11_2 H16_2 1_555 1_555
C12_2 C11_2 1_555 1_555
C13_2 N2_2 1_555 1_555
C15_2 C9_2 1_555 1_555
H17_2 C15_2 1_555 1_555
C16_2 C4_2 1_555 1_555
H18_2 C16_2 1_555 1_555
C17_2 C9_2 1_555 1_555
C19_2 C3_2 1_555 1_555
H19_2 C19_2 1_555 1_555
C20_2 C13_2 1_555 1_555
C22_2 C7_2 1_555 1_555
H21_2 C22_2 1_555 1_555
C25_2 C4_2 1_555 1_555
C28_2 C1_2 1_555 1_555
H22_2 C28_2 1_555 1_555
C29_2 C15_2 1_555 1_555
C36_2 C17_2 1_555 1_555
H27_2 C36_2 1_555 1_555
C38_2 C29_2 1_555 1_555
H28_2 C38_2 1_555 1_555
Zr5_2 O8_2 1_555 1_555
Zr6_2 O18_2 1_555 1_555
O17_2 Zr5_2 1_555 1_555
O18_2 Zr5_2 1_555 1_555
O19_2 Zr5_2 1_555 1_555
O20_2 C54_2 1_555 1_555
O21_2 Zr5_2 1_555 1_555
O22_2 Zr5_2 1_555 1_555
O24_2 C52_2 1_555 1_555
O25_2 Zr5_2 1_555 1_555
H33_2 O25_2 1_555 1_555
H34_2 O25_2 1_555 1_555
N5_2 H35_2 1_555 1_555
H36_2 N5_2 1_555 1_555
O27_2 Zr6_2 1_555 1_555
H39_2 O27_2 1_555 1_555
C43_2 N5_2 1_555 1_555
C44_2 H41_2 1_555 1_555
C45_2 C43_2 1_555 1_555
C46_2 C44_2 1_555 1_555
C47_2 C43_2 1_555 1_555
C48_2 C45_2 1_555 1_555
H42_2 C48_2 1_555 1_555
C49_2 C54_2 1_555 1_555
C50_2 C47_2 1_555 1_555
C51_2 C45_2 1_555 1_555
C52_2 O21_2 1_555 1_555
C53_2 C50_2 1_555 1_555
H43_2 C53_2 1_555 1_555
C55_2 C52_2 1_555 1_555
C57_2 C49_2 1_555 1_555
H45_2 C57_2 1_555 1_555
C58_2 C50_2 1_555 1_555
H46_2 C58_2 1_555 1_555
C59_2 C46_2 1_555 1_555
C60_2 C51_2 1_555 1_555
H47_2 C60_2 1_555 1_555
C61_2 C53_2 1_555 1_555
H48_2 C61_2 1_555 1_555
C63_2 C55_2 1_555 1_555
H50_2 C63_2 1_555 1_555
N6_2 C59_2 1_555 1_555
O28_2 Zr7 1_555 1_555
O39 C65_2 1_555 1_555
O32_2 Zr16 1_555 1_555
H63_2 O32_2 1_555 1_555
H64_2 O32_2 1_555 1_555
Zr8 O5_2 1_555 1_555
Zr9_2 O20_2 1_555 1_555
Zr14_2 O17_2 1_555 1_555
Zr16_2 O19_2 1_555 1_555
O33_2 Zr6_2 1_555 1_555
O35_2 Zr7 1_555 1_555
O36_2 Zr6_2 1_555 1_555
O39_2 Zr7 1_555 1_555
O41_2 Zr5_2 1_555 1_555
O44_2 Zr16 1_555 1_555
O47_2 Zr16 1_555 1_555
O6_2 Zr14 1_555 1_555
C1_2 C10_2 1_555 1_555
C7_2 C19_2 1_555 1_555
C12_2 C13_2 1_555 1_555
C16_2 C20_2 1_555 1_555
C17_2 C20_2 1_555 1_555
C22_2 C28_2 1_555 1_555
C36_2 C38_2 1_555 1_555
Zr6_2 O22_2 1_555 1_555
O17_2 Zr8 1_555 1_555
O18_2 Zr8 1_555 1_555
O19_2 Zr14_2 1_555 1_555
O22_2 Zr16_2 1_555 1_555
O24_2 Zr16_2 1_555 1_555
C44_2 C47_2 1_555 1_555
C46_2 C48_2 1_555 1_555
C55_2 C61_2 1_555 1_555
C57_2 C60_2 1_555 1_555
C58_2 C63_2 1_555 1_555
Zr8 O33_2 1_555 1_555
Zr14 O35_2 1_555 1_555
Zr14 O44_2 1_555 1_555
Zr16_2 O36_2 1_555 1_555
O3_3 Zr8 1_555 1_555
O38 C2_3 1_555 1_555
O6_3 C10_3 1_555 1_555
O43 C2_3 1_555 1_555
O14_3 Zr16_2 1_555 1_555
H3_3 O14_3 1_555 1_555
H4_3 O14_3 1_555 1_555
N1_3 C25_3 1_555 1_555
N2_3 H5_3 1_555 1_555
H6_3 N2_3 1_555 1_555
C1_3 C3_3 1_555 1_555
C2_3 C29_3 1_555 1_555
C3_3 H13_3 1_555 1_555
C4_3 C11_3 1_555 1_555
C7_3 C12_3 1_555 1_555
C9_3 H15_3 1_555 1_555
C10_3 O3_3 1_555 1_555
C11_3 H16_3 1_555 1_555
C12_3 C11_3 1_555 1_555
C13_3 N2_3 1_555 1_555
C15_3 C9_3 1_555 1_555
H17_3 C15_3 1_555 1_555
C16_3 C4_3 1_555 1_555
H18_3 C16_3 1_555 1_555
C17_3 C9_3 1_555 1_555
C19_3 C3_3 1_555 1_555
H19_3 C19_3 1_555 1_555
C20_3 C13_3 1_555 1_555
C22_3 C7_3 1_555 1_555
H21_3 C22_3 1_555 1_555
C25_3 C4_3 1_555 1_555
C28_3 C1_3 1_555 1_555
H22_3 C28_3 1_555 1_555
C29_3 C15_3 1_555 1_555
C36_3 C17_3 1_555 1_555
H27_3 C36_3 1_555 1_555
C38_3 C29_3 1_555 1_555
H28_3 C38_3 1_555 1_555
O28_3 Zr8 1_555 1_555
O39_2 C65_3 1_555 1_555
O32_3 Zr16_2 1_555 1_555
H63_3 O32_3 1_555 1_555
H64_3 O32_3 1_555 1_555
O35_3 Zr8 1_555 1_555
O44_3 Zr16_2 1_555 1_555
O47_3 Zr16_2 1_555 1_555
O6_3 Zr14_2 1_555 1_555
C1_3 C10_3 1_555 1_555
C7_3 C19_3 1_555 1_555
C12_3 C13_3 1_555 1_555
C16_3 C20_3 1_555 1_555
C17_3 C20_3 1_555 1_555
C22_3 C28_3 1_555 1_555
C36_3 C38_3 1_555 1_555
Zr14_2 O35_3 1_555 1_555
Zr14_2 O44_3 1_555 1_555
O7_2 C31_2 1_555 1_555
O11_2 C31_2 1_555 1_555
C23_2 C31_2 1_555 1_555
C34_2 C23_2 1_555 1_555
H25_2 C34_2 1_555 1_555
O20_3 C54_3 1_555 1_555
C49_3 C54_3 1_555 1_555
C57_3 C49_3 1_555 1_555
H45_3 C57_3 1_555 1_555
Zr9_3 O20_3 1_555 1_555
Zr10_2 O7_2 1_555 1_555
Zr12_2 O11_2 1_555 1_555
Zr13_3 O23_3 1_555 1_555
Zr13_4 O23_4 1_555 1_555
O20_4 C54_4 1_555 1_555
C49_4 C54_4 1_555 1_555
C57_4 C49_4 1_555 1_555
H45_4 C57_4 1_555 1_555
Zr9_4 O20_4 1_555 1_555
Zr1_2 O1_2 1_555 1_555
Zr9 O1_2 1_555 1_555
Zr13_4 O2_2 1_555 1_555
Zr4_2 O4_2 1_555 1_555
O2_2 Zr1_2 1_555 1_555
O4_2 Zr9 1_555 1_555
O41 C31_3 1_555 1_555
O9_2 Zr9 1_555 1_555
O10_2 Zr9 1_555 1_555
O11_3 C31_3 1_555 1_555
O12_2 Zr4_2 1_555 1_555
O13_2 Zr9 1_555 1_555
H1_2 O13_2 1_555 1_555
H2_2 O13_2 1_555 1_555
O14_4 Zr4_2 1_555 1_555
H3_4 O14_4 1_555 1_555
H4_4 O14_4 1_555 1_555
N3_2 H7_2 1_555 1_555
H8_2 N3_2 1_555 1_555
O15 Zr13_4 1_555 1_555
H9 O15 1_555 1_555
H10 O15 1_555 1_555
O16_2 Zr13_4 1_555 1_555
H11_2 O16_2 1_555 1_555
H12 O16_2 1_555 1_555
C5_2 N3_2 1_555 1_555
C6_2 H14_2 1_555 1_555
C8_2 C5_2 1_555 1_555
C14_2 C6_2 1_555 1_555
C18_2 C5_2 1_555 1_555
C21_2 C8_2 1_555 1_555
H20_2 C21_2 1_555 1_555
C23_3 C31_3 1_555 1_555
C24_2 C18_2 1_555 1_555
C26_2 C8_2 1_555 1_555
C27_2 O9_2 1_555 1_555
C30_2 C24_2 1_555 1_555
H23_2 C30_2 1_555 1_555
C32_2 C27_2 1_555 1_555
C33_2 C23_3 1_555 1_555
H24_3 C33_2 1_555 1_555
C34_3 C23_3 1_555 1_555
H25_3 C34_3 1_555 1_555
C35_2 C24_2 1_555 1_555
H26_2 C35_2 1_555 1_555
C37_2 C14_2 1_555 1_555
C39_2 C26_2 1_555 1_555
H29_2 C39_2 1_555 1_555
C40_2 C30_2 1_555 1_555
H30_2 C40_2 1_555 1_555
C41_2 C26_2 1_555 1_555
H31_2 C41_2 1_555 1_555
C42_2 C32_2 1_555 1_555
H32_2 C42_2 1_555 1_555
N4_2 C37_2 1_555 1_555
O28_4 Zr1_2 1_555 1_555
O29_2 C65_4 1_555 1_555
O30 Zr13_4 1_555 1_555
O31 C65_4 1_555 1_555
N8 H51 1_555 1_555
H52 N8 1_555 1_555
C64 C66 1_555 1_555
C65_4 C82 1_555 1_555
C66 H53 1_555 1_555
C68 C72 1_555 1_555
C69 H54 1_555 1_555
C70 O28_4 1_555 1_555
C72 C71 1_555 1_555
C73 N8 1_555 1_555
C74 C69 1_555 1_555
H56 C74 1_555 1_555
C76 C69 1_555 1_555
C77 C66 1_555 1_555
H58 C77 1_555 1_555
C78 C73 1_555 1_555
C79 C68 1_555 1_555
H59 C79 1_555 1_555
C81 C64 1_555 1_555
H60 C81 1_555 1_555
C82 C74 1_555 1_555
C83 C76 1_555 1_555
H61 C83 1_555 1_555
C84 C82 1_555 1_555
H62 C84 1_555 1_555
Zr9_3 O31 1_555 1_555
Zr14 O11_3 1_555 1_555
O38_2 Zr1_2 1_555 1_555
O43_2 Zr9 1_555 1_555
Zr9 O2_2 1_555 1_555
Zr13_4 O10_2 1_555 1_555
Zr4_2 O10_2 1_555 1_555
O12_2 C27_2 1_555 1_555
C6_2 C18_2 1_555 1_555
C14_2 C21_2 1_555 1_555
C32_2 C40_2 1_555 1_555
C33_2 C41_2 1_555 1_555
C34_3 C39_2 1_555 1_555
C35_2 C42_2 1_555 1_555
O30 C70 1_555 1_555
C64 C70 1_555 1_555
C68 C77 1_555 1_555
C72 C73 1_555 1_555
C75 C78 1_555 1_555
C76 C78 1_555 1_555
C79 C81 1_555 1_555
C83 C84 1_555 1_555
O6_4 C10_4 1_555 1_555
N1_4 C25_4 1_555 1_555
H6_4 N2_4 1_555 1_555
C1_4 C3_4 1_555 1_555
C3_4 H13_4 1_555 1_555
C4_4 C11_4 1_555 1_555
C7_4 C12_4 1_555 1_555
C10_4 O3_4 1_555 1_555
C11_4 H16_4 1_555 1_555
C12_4 C11_4 1_555 1_555
C13_4 N2_4 1_555 1_555
C19_4 C3_4 1_555 1_555
H19_4 C19_4 1_555 1_555
C22_4 C7_4 1_555 1_555
H21_4 C22_4 1_555 1_555
C25_4 C4_4 1_555 1_555
C28_4 C1_4 1_555 1_555
H22_4 C28_4 1_555 1_555
H63_4 O32_4 1_555 1_555
H64_4 O32_4 1_555 1_555
O6_4 Zr13 1_555 1_555
C1_4 C10_4 1_555 1_555
C7_4 C19_4 1_555 1_555
C12_4 C13_4 1_555 1_555
C22_4 C28_4 1_555 1_555
Zr13 O35_4 1_555 1_555
Zr13 O44_4 1_555 1_555
O5_3 C2_4 1_555 1_555
O8_3 C2_4 1_555 1_555
C2_4 C29_4 1_555 1_555
C9_4 H15_4 1_555 1_555
C15_4 C9_4 1_555 1_555
H17_4 C15_4 1_555 1_555
H18_4 C16_4 1_555 1_555
C17_4 C9_4 1_555 1_555
C29_4 C15_4 1_555 1_555
C36_4 C17_4 1_555 1_555
H27_4 C36_4 1_555 1_555
C38_4 C29_4 1_555 1_555
H28_4 C38_4 1_555 1_555
Zr10 O8_3 1_555 1_555
Zr12_2 O18_3 1_555 1_555
O17_3 Zr10 1_555 1_555
O18_3 Zr10 1_555 1_555
O19_3 Zr10 1_555 1_555
O42 C54_5 1_555 1_555
O21_3 Zr10 1_555 1_555
O22_3 Zr10 1_555 1_555
O23_5 C54_5 1_555 1_555
O24_3 C52_3 1_555 1_555
O25_3 Zr10 1_555 1_555
H33_3 O25_3 1_555 1_555
H34_3 O25_3 1_555 1_555
N5_3 H35_3 1_555 1_555
H36_3 N5_3 1_555 1_555
O26 Zr12_2 1_555 1_555
H37 O26 1_555 1_555
H38 O26 1_555 1_555
O27_3 Zr12_2 1_555 1_555
H39_3 O27_3 1_555 1_555
H40 O27_3 1_555 1_555
C43_3 N5_3 1_555 1_555
C44_3 H41_3 1_555 1_555
C45_3 C43_3 1_555 1_555
C46_3 C44_3 1_555 1_555
C47_3 C43_3 1_555 1_555
C48_3 C45_3 1_555 1_555
H42_3 C48_3 1_555 1_555
C49_5 C54_5 1_555 1_555
C50_3 C47_3 1_555 1_555
C51_3 C45_3 1_555 1_555
C52_3 O21_3 1_555 1_555
C53_3 C50_3 1_555 1_555
H43_3 C53_3 1_555 1_555
C55_3 C52_3 1_555 1_555
C56_3 C49_5 1_555 1_555
H44_5 C56_3 1_555 1_555
C57_5 C49_5 1_555 1_555
H45_5 C57_5 1_555 1_555
C58_3 C50_3 1_555 1_555
H46_3 C58_3 1_555 1_555
C59_3 C46_3 1_555 1_555
C60_3 C51_3 1_555 1_555
H47_3 C60_3 1_555 1_555
C61_3 C53_3 1_555 1_555
H48_3 C61_3 1_555 1_555
C62_3 C51_3 1_555 1_555
H49_3 C62_3 1_555 1_555
C63_3 C55_3 1_555 1_555
H50_3 C63_3 1_555 1_555
N6_3 C59_3 1_555 1_555
Zr7_2 O5_3 1_555 1_555
Zr15 O23_5 1_555 1_555
Zr12 O17_3 1_555 1_555
Zr16_3 O19_3 1_555 1_555
O33_3 Zr12_2 1_555 1_555
O36_3 Zr12_2 1_555 1_555
O40 Zr12_2 1_555 1_555
C16_4 C20_4 1_555 1_555
C17_4 C20_4 1_555 1_555
C36_4 C38_4 1_555 1_555
Zr12_2 O22_3 1_555 1_555
O17_3 Zr7_2 1_555 1_555
O18_3 Zr7_2 1_555 1_555
O19_3 Zr12 1_555 1_555
O22_3 Zr16_3 1_555 1_555
O24_3 Zr16_3 1_555 1_555
C44_3 C47_3 1_555 1_555
C46_3 C48_3 1_555 1_555
C55_3 C61_3 1_555 1_555
C56_3 C62_3 1_555 1_555
C57_5 C60_3 1_555 1_555
C58_3 C63_3 1_555 1_555
Zr7_2 O33_3 1_555 1_555
Zr16_3 O36_3 1_555 1_555
O39_3 C65_5 1_555 1_555
O31_2 C65_5 1_555 1_555
C65_5 C82_2 1_555 1_555
C69_2 H54_2 1_555 1_555
C74_2 C69_2 1_555 1_555
H56_2 C74_2 1_555 1_555
C76_2 C69_2 1_555 1_555
C82_2 C74_2 1_555 1_555
C83_2 C76_2 1_555 1_555
H61_2 C83_2 1_555 1_555
C84_2 C82_2 1_555 1_555
H62_2 C84_2 1_555 1_555
Zr9_4 O31_2 1_555 1_555
C75_2 C78_2 1_555 1_555
C76_2 C78_2 1_555 1_555
C83_2 C84_2 1_555 1_555
O5_4 C2_5 1_555 1_555
O8_4 C2_5 1_555 1_555
C2_5 C29_5 1_555 1_555
C9_5 H15_5 1_555 1_555
C15_5 C9_5 1_555 1_555
H17_5 C15_5 1_555 1_555
H18_5 C16_5 1_555 1_555
C17_5 C9_5 1_555 1_555
C29_5 C15_5 1_555 1_555
C36_5 C17_5 1_555 1_555
H27_5 C36_5 1_555 1_555
C38_5 C29_5 1_555 1_555
H28_5 C38_5 1_555 1_555
Zr9_2 O8_4 1_555 1_555
Zr13_3 O18_4 1_555 1_555
O17_4 Zr9_2 1_555 1_555
O18_4 Zr9_2 1_555 1_555
O19_4 Zr9_2 1_555 1_555
O41_2 C54_6 1_555 1_555
O21_4 Zr9_2 1_555 1_555
O22_4 Zr9_2 1_555 1_555
O23_6 C54_6 1_555 1_555
O24_4 C52_4 1_555 1_555
O25_4 Zr9_2 1_555 1_555
H33_4 O25_4 1_555 1_555
H34_4 O25_4 1_555 1_555
N5_4 H35_4 1_555 1_555
H36_4 N5_4 1_555 1_555
O26_2 Zr13_3 1_555 1_555
H37_2 O26_2 1_555 1_555
H38_2 O26_2 1_555 1_555
O27_4 Zr13_3 1_555 1_555
H39_4 O27_4 1_555 1_555
H40_2 O27_4 1_555 1_555
C43_4 N5_4 1_555 1_555
C44_4 H41_4 1_555 1_555
C45_4 C43_4 1_555 1_555
C46_4 C44_4 1_555 1_555
C47_4 C43_4 1_555 1_555
C48_4 C45_4 1_555 1_555
H42_4 C48_4 1_555 1_555
C49_6 C54_6 1_555 1_555
C50_4 C47_4 1_555 1_555
C51_4 C45_4 1_555 1_555
C52_4 O21_4 1_555 1_555
C53_4 C50_4 1_555 1_555
H43_4 C53_4 1_555 1_555
C55_4 C52_4 1_555 1_555
C56_4 C49_6 1_555 1_555
H44_6 C56_4 1_555 1_555
C57_6 C49_6 1_555 1_555
H45_6 C57_6 1_555 1_555
C58_4 C50_4 1_555 1_555
H46_4 C58_4 1_555 1_555
C59_4 C46_4 1_555 1_555
C60_4 C51_4 1_555 1_555
H47_4 C60_4 1_555 1_555
C61_4 C53_4 1_555 1_555
H48_4 C61_4 1_555 1_555
C62_4 C51_4 1_555 1_555
H49_4 C62_4 1_555 1_555
C63_4 C55_4 1_555 1_555
H50_4 C63_4 1_555 1_555
N6_4 C59_4 1_555 1_555
Zr8_2 O5_4 1_555 1_555
Zr14_2 O23_6 1_555 1_555
Zr16_4 O19_4 1_555 1_555
O40_2 Zr13_3 1_555 1_555
C16_5 C20_5 1_555 1_555
C17_5 C20_5 1_555 1_555
C36_5 C38_5 1_555 1_555
Zr13_3 O22_4 1_555 1_555
O17_4 Zr8_2 1_555 1_555
O18_4 Zr8_2 1_555 1_555
O22_4 Zr16_4 1_555 1_555
O24_4 Zr16_4 1_555 1_555
C44_4 C47_4 1_555 1_555
C46_4 C48_4 1_555 1_555
C55_4 C61_4 1_555 1_555
C56_4 C62_4 1_555 1_555
C57_6 C60_4 1_555 1_555
C58_4 C63_4 1_555 1_555
O3_5 Zr7_2 1_555 1_555
O6_5 C10_5 1_555 1_555
O14_5 Zr16_3 1_555 1_555
H3_5 O14_5 1_555 1_555
H4_5 O14_5 1_555 1_555
N1_5 C25_5 1_555 1_555
H6_5 N2_5 1_555 1_555
C1_5 C3_5 1_555 1_555
C3_5 H13_5 1_555 1_555
C4_5 C11_5 1_555 1_555
C7_5 C12_5 1_555 1_555
C10_5 O3_5 1_555 1_555
C11_5 H16_5 1_555 1_555
C12_5 C11_5 1_555 1_555
C13_5 N2_5 1_555 1_555
C19_5 C3_5 1_555 1_555
H19_5 C19_5 1_555 1_555
C22_5 C7_5 1_555 1_555
H21_5 C22_5 1_555 1_555
C25_5 C4_5 1_555 1_555
C28_5 C1_5 1_555 1_555
H22_5 C28_5 1_555 1_555
O28_5 Zr7_2 1_555 1_555
H52_2 N8_2 1_555 1_555
C64_2 C66_2 1_555 1_555
C66_2 H53_2 1_555 1_555
C68_2 C72_2 1_555 1_555
C70_2 O28_5 1_555 1_555
C72_2 C71_2 1_555 1_555
C73_2 N8_2 1_555 1_555
C77_2 C66_2 1_555 1_555
H58_2 C77_2 1_555 1_555
C79_2 C68_2 1_555 1_555
H59_2 C79_2 1_555 1_555
C81_2 C64_2 1_555 1_555
H60_2 C81_2 1_555 1_555
O32_5 Zr16_3 1_555 1_555
H63_5 O32_5 1_555 1_555
H64_5 O32_5 1_555 1_555
O35_5 Zr7_2 1_555 1_555
O39_4 Zr7_2 1_555 1_555
O44_5 Zr16_3 1_555 1_555
O47_5 Zr16_3 1_555 1_555
O6_5 Zr12 1_555 1_555
C1_5 C10_5 1_555 1_555
C7_5 C19_5 1_555 1_555
C12_5 C13_5 1_555 1_555
C22_5 C28_5 1_555 1_555
O40 C70_2 1_555 1_555
C64_2 C70_2 1_555 1_555
C68_2 C77_2 1_555 1_555
C72_2 C73_2 1_555 1_555
C79_2 C81_2 1_555 1_555
Zr12 O35_5 1_555 1_555
Zr12 O44_5 1_555 1_555
O38_2 C2_6 1_555 1_555
O6_6 C10_6 1_555 1_555
O43_2 C2_6 1_555 1_555
N1_6 C25_6 1_555 1_555
N2_6 H5_6 1_555 1_555
H6_6 N2_6 1_555 1_555
C1_6 C3_6 1_555 1_555
C2_6 C29_6 1_555 1_555
C3_6 H13_6 1_555 1_555
C4_6 C11_6 1_555 1_555
C7_6 C12_6 1_555 1_555
C9_6 H15_6 1_555 1_555
C10_6 O3_6 1_555 1_555
C11_6 H16_6 1_555 1_555
C12_6 C11_6 1_555 1_555
C13_6 N2_6 1_555 1_555
C15_6 C9_6 1_555 1_555
H17_6 C15_6 1_555 1_555
C16_6 C4_6 1_555 1_555
H18_6 C16_6 1_555 1_555
C17_6 C9_6 1_555 1_555
C19_6 C3_6 1_555 1_555
H19_6 C19_6 1_555 1_555
C20_6 C13_6 1_555 1_555
C22_6 C7_6 1_555 1_555
H21_6 C22_6 1_555 1_555
C25_6 C4_6 1_555 1_555
C28_6 C1_6 1_555 1_555
H22_6 C28_6 1_555 1_555
C29_6 C15_6 1_555 1_555
C36_6 C17_6 1_555 1_555
H27_6 C36_6 1_555 1_555
C38_6 C29_6 1_555 1_555
H28_6 C38_6 1_555 1_555
H63_6 O32_6 1_555 1_555
H64_6 O32_6 1_555 1_555
O6_6 Zr13_2 1_555 1_555
C1_6 C10_6 1_555 1_555
C7_6 C19_6 1_555 1_555
C12_6 C13_6 1_555 1_555
C16_6 C20_6 1_555 1_555
C17_6 C20_6 1_555 1_555
C22_6 C28_6 1_555 1_555
C36_6 C38_6 1_555 1_555
Zr13_2 O35_6 1_555 1_555
Zr13_2 O44_6 1_555 1_555
O14_6 Zr16_4 1_555 1_555
H3_6 O14_6 1_555 1_555
H4_6 O14_6 1_555 1_555
O28_6 Zr8_2 1_555 1_555
H52_3 N8_3 1_555 1_555
C64_3 C66_3 1_555 1_555
C66_3 H53_3 1_555 1_555
C68_3 C72_3 1_555 1_555
C70_3 O28_6 1_555 1_555
C72_3 C71_3 1_555 1_555
C73_3 N8_3 1_555 1_555
C77_3 C66_3 1_555 1_555
H58_3 C77_3 1_555 1_555
C79_3 C68_3 1_555 1_555
H59_3 C79_3 1_555 1_555
C81_3 C64_3 1_555 1_555
H60_3 C81_3 1_555 1_555
O40_2 C70_3 1_555 1_555
C64_3 C70_3 1_555 1_555
C68_3 C77_3 1_555 1_555
C72_3 C73_3 1_555 1_555
C79_3 C81_3 1_555 1_555
O39_4 C65_6 1_555 1_555
O31_3 C65_6 1_555 1_555
C65_6 C82_3 1_555 1_555
C69_3 H54_3 1_555 1_555
C74_3 C69_3 1_555 1_555
H56_3 C74_3 1_555 1_555
C76_3 C69_3 1_555 1_555
C82_3 C74_3 1_555 1_555
C83_3 C76_3 1_555 1_555
H61_3 C83_3 1_555 1_555
C84_3 C82_3 1_555 1_555
H62_3 C84_3 1_555 1_555
Zr10_2 O31_3 1_555 1_555
C75_3 C78_3 1_555 1_555
C76_3 C78_3 1_555 1_555
C83_3 C84_3 1_555 1_555
Zr1_3 O33_4 1_555 1_555
Zr9_3 O33_4 1_555 1_555
Zr4_3 O36_4 1_555 1_555
O35_6 Zr1_3 1_555 1_555
O36_4 Zr9_3 1_555 1_555
O9_3 Zr9_3 1_555 1_555
O44_6 Zr9_3 1_555 1_555
O47_6 Zr4_3 1_555 1_555
O13_3 Zr9_3 1_555 1_555
H1_3 O13_3 1_555 1_555
H2_3 O13_3 1_555 1_555
O32_6 Zr4_3 1_555 1_555
O15_2 Zr13_2 1_555 1_555
H9_2 O15_2 1_555 1_555
H10_2 O15_2 1_555 1_555
O16_3 Zr13_2 1_555 1_555
H11_3 O16_3 1_555 1_555
H12_2 O16_3 1_555 1_555
C6_3 H14_3 1_555 1_555
C14_3 C6_3 1_555 1_555
C18_3 C5_3 1_555 1_555
C24_3 C18_3 1_555 1_555
C27_3 O9_3 1_555 1_555
C30_3 C24_3 1_555 1_555
H23_3 C30_3 1_555 1_555
C32_3 C27_3 1_555 1_555
C35_3 C24_3 1_555 1_555
H26_3 C35_3 1_555 1_555
C37_3 C14_3 1_555 1_555
C40_3 C30_3 1_555 1_555
H30_3 C40_3 1_555 1_555
C42_3 C32_3 1_555 1_555
H32_3 C42_3 1_555 1_555
N4_3 C37_3 1_555 1_555
O3_6 Zr1_3 1_555 1_555
O29_2 Zr1_3 1_555 1_555
Zr9_3 O35_6 1_555 1_555
Zr4_3 O44_6 1_555 1_555
O47_6 C27_3 1_555 1_555
C6_3 C18_3 1_555 1_555
C32_3 C40_3 1_555 1_555
C35_3 C42_3 1_555 1_555
O33_3 Zr10_2 1_555 1_555
O35_5 Zr10_2 1_555 1_555
O36_3 Zr10_2 1_555 1_555
O21_5 Zr10_2 1_555 1_555
O44_5 Zr10_2 1_555 1_555
O47_5 C52_5 1_555 1_555
O25_5 Zr10_2 1_555 1_555
H33_5 O25_5 1_555 1_555
H34_5 O25_5 1_555 1_555
O26_3 Zr12 1_555 1_555
H37_3 O26_3 1_555 1_555
H38_3 O26_3 1_555 1_555
O27_5 Zr12 1_555 1_555
H39_5 O27_5 1_555 1_555
H40_3 O27_5 1_555 1_555
C44_5 H41_5 1_555 1_555
C46_5 C44_5 1_555 1_555
C47_5 C43_5 1_555 1_555
C50_5 C47_5 1_555 1_555
C52_5 O21_5 1_555 1_555
C53_5 C50_5 1_555 1_555
H43_5 C53_5 1_555 1_555
C55_5 C52_5 1_555 1_555
C58_5 C50_5 1_555 1_555
H46_5 C58_5 1_555 1_555
C59_5 C46_5 1_555 1_555
C61_5 C53_5 1_555 1_555
H48_5 C61_5 1_555 1_555
C63_5 C55_5 1_555 1_555
H50_5 C63_5 1_555 1_555
N6_5 C59_5 1_555 1_555
C44_5 C47_5 1_555 1_555
C55_5 C61_5 1_555 1_555
C58_5 C63_5 1_555 1_555
O34_2 Zr9_4 1_555 1_555
O35_4 Zr9_4 1_555 1_555
O37_2 Zr9_4 1_555 1_555
O21_6 Zr9_4 1_555 1_555
O44_4 Zr9_4 1_555 1_555
O47_4 C52_6 1_555 1_555
O25_6 Zr9_4 1_555 1_555
H33_6 O25_6 1_555 1_555
H34_6 O25_6 1_555 1_555
O26_4 Zr13 1_555 1_555
H37_4 O26_4 1_555 1_555
H38_4 O26_4 1_555 1_555
O27_6 Zr13 1_555 1_555
H39_6 O27_6 1_555 1_555
H40_4 O27_6 1_555 1_555
C44_6 H41_6 1_555 1_555
C46_6 C44_6 1_555 1_555
C47_6 C43_6 1_555 1_555
C50_6 C47_6 1_555 1_555
C52_6 O21_6 1_555 1_555
C53_6 C50_6 1_555 1_555
H43_6 C53_6 1_555 1_555
C55_6 C52_6 1_555 1_555
C58_6 C50_6 1_555 1_555
H46_6 C58_6 1_555 1_555
C59_6 C46_6 1_555 1_555
C61_6 C53_6 1_555 1_555
H48_6 C61_6 1_555 1_555
C63_6 C55_6 1_555 1_555
H50_6 C63_6 1_555 1_555
N6_6 C59_6 1_555 1_555
Zr8_3 O39_3 1_555 1_555
Zr16_5 O37_2 1_555 1_555
O34_2 Zr8_3 1_555 1_555
O35_4 Zr8_3 1_555 1_555
O44_4 Zr16_5 1_555 1_555
O47_4 Zr16_5 1_555 1_555
C44_6 C47_6 1_555 1_555
C55_6 C61_6 1_555 1_555
C58_6 C63_6 1_555 1_555
O32_4 Zr16_5 1_555 1_555
O3_4 Zr8_3 1_555 1_555
Zr11 O33_2 1_555 1_555
O36_2 Zr11 1_555 1_555
O44_3 Zr11 1_555 1_555
O13_4 Zr11 1_555 1_555
H1_4 O13_4 1_555 1_555
H2_4 O13_4 1_555 1_555
O15_3 Zr14_2 1_555 1_555
H9_3 O15_3 1_555 1_555
H10_3 O15_3 1_555 1_555
O16_4 Zr14_2 1_555 1_555
H11_4 O16_4 1_555 1_555
H12_3 O16_4 1_555 1_555
O33 Zr11_3 1_555 1_555
O35_2 Zr11_3 1_555 1_555
O36 Zr11_3 1_555 1_555
O44_2 Zr11_3 1_555 1_555
O47_2 C52_7 1_555 1_555
O25_7 Zr11_3 1_555 1_555
H33_7 O25_7 1_555 1_555
H34_7 O25_7 1_555 1_555
O26_5 Zr14 1_555 1_555
H37_5 O26_5 1_555 1_555
H38_5 O26_5 1_555 1_555
O27_7 Zr14 1_555 1_555
H39_7 O27_7 1_555 1_555
H40_5 O27_7 1_555 1_555
Zr11 O35_3 1_555 1_555
O47_3 C27_4 1_555 1_555
O34 Zr11_2 1_555 1_555
O35 Zr11_2 1_555 1_555
O37 Zr11_2 1_555 1_555
O44 Zr11_2 1_555 1_555
O47 C52_8 1_555 1_555
O25_8 Zr11_2 1_555 1_555
H33_8 O25_8 1_555 1_555
H34_8 O25_8 1_555 1_555
O26_6 Zr15 1_555 1_555
H37_6 O26_6 1_555 1_555
H38_6 O26_6 1_555 1_555
O27_8 Zr15 1_555 1_555
H39_8 O27_8 1_555 1_555
H40_6 O27_8 1_555 1_555
H9_4 O15_4 1_555 1_555
H10_4 O15_4 1_555 1_555
H37_7 O26_7 1_555 1_555
H38_7 O26_7 1_555 1_555
N7 C80 1_555 1_555
N8_4 H51_4 1_555 1_555
H52_4 N8_4 1_555 1_555
C64_4 C66_4 1_555 1_555
C66_4 H53_4 1_555 1_555
C67 C71_4 1_555 1_555
C68_4 C72_4 1_555 1_555
C69_4 H54_4 1_555 1_555
C71_4 H55 1_555 1_555
C72_4 C71_4 1_555 1_555
C73_4 N8_4 1_555 1_555
C74_4 C69_4 1_555 1_555
H56_4 C74_4 1_555 1_555
C75_4 C67 1_555 1_555
H57 C75_4 1_555 1_555
C76_4 C69_4 1_555 1_555
C77_4 C66_4 1_555 1_555
H58_4 C77_4 1_555 1_555
C78_4 C73_4 1_555 1_555
C79_4 C68_4 1_555 1_555
H59_4 C79_4 1_555 1_555
C80 C67 1_555 1_555
C81_4 C64_4 1_555 1_555
H60_4 C81_4 1_555 1_555
C82_4 C74_4 1_555 1_555
C83_4 C76_4 1_555 1_555
H61_4 C83_4 1_555 1_555
C84_4 C82_4 1_555 1_555
H62_4 C84_4 1_555 1_555
O30_2 C70_4 1_555 1_555
C64_4 C70_4 1_555 1_555
C68_4 C77_4 1_555 1_555
C72_4 C73_4 1_555 1_555
C75_4 C78_4 1_555 1_555
C76_4 C78_4 1_555 1_555
C79_4 C81_4 1_555 1_555
C83_4 C84_4 1_555 1_555
H37_8 O26_8 1_555 1_555
H38_8 O26_8 1_555 1_555
N7_2 C80_2 1_555 1_555
N8_5 H51_5 1_555 1_555
H52_5 N8_5 1_555 1_555
C64_5 C66_5 1_555 1_555
C66_5 H53_5 1_555 1_555
C67_2 C71_5 1_555 1_555
C68_5 C72_5 1_555 1_555
C69_5 H54_5 1_555 1_555
C71_5 H55_2 1_555 1_555
C72_5 C71_5 1_555 1_555
C73_5 N8_5 1_555 1_555
C74_5 C69_5 1_555 1_555
H56_5 C74_5 1_555 1_555
C75_5 C67_2 1_555 1_555
H57_2 C75_5 1_555 1_555
C76_5 C69_5 1_555 1_555
C77_5 C66_5 1_555 1_555
H58_5 C77_5 1_555 1_555
C78_5 C73_5 1_555 1_555
C79_5 C68_5 1_555 1_555
H59_5 C79_5 1_555 1_555
C80_2 C67_2 1_555 1_555
C81_5 C64_5 1_555 1_555
H60_5 C81_5 1_555 1_555
C82_5 C74_5 1_555 1_555
C83_5 C76_5 1_555 1_555
H61_5 C83_5 1_555 1_555
C84_5 C82_5 1_555 1_555
H62_5 C84_5 1_555 1_555
O40_3 C70_5 1_555 1_555
C64_5 C70_5 1_555 1_555
C68_5 C77_5 1_555 1_555
C72_5 C73_5 1_555 1_555
C75_5 C78_5 1_555 1_555
C76_5 C78_5 1_555 1_555
C79_5 C81_5 1_555 1_555
C83_5 C84_5 1_555 1_555
N7_3 C80_3 1_555 1_555
N8_6 H51_6 1_555 1_555
H52_6 N8_6 1_555 1_555
C64_6 C66_6 1_555 1_555
C66_6 H53_6 1_555 1_555
C67_3 C71_6 1_555 1_555
C68_6 C72_6 1_555 1_555
C69_6 H54_6 1_555 1_555
C71_6 H55_3 1_555 1_555
C72_6 C71_6 1_555 1_555
C73_6 N8_6 1_555 1_555
C74_6 C69_6 1_555 1_555
H56_6 C74_6 1_555 1_555
C75_6 C67_3 1_555 1_555
H57_3 C75_6 1_555 1_555
C76_6 C69_6 1_555 1_555
C77_6 C66_6 1_555 1_555
H58_6 C77_6 1_555 1_555
C78_6 C73_6 1_555 1_555
C79_6 C68_6 1_555 1_555
H59_6 C79_6 1_555 1_555
C80_3 C67_3 1_555 1_555
C81_6 C64_6 1_555 1_555
H60_6 C81_6 1_555 1_555
C82_6 C74_6 1_555 1_555
C83_6 C76_6 1_555 1_555
H61_6 C83_6 1_555 1_555
C84_6 C82_6 1_555 1_555
H62_6 C84_6 1_555 1_555
O40_4 C70_6 1_555 1_555
C64_6 C70_6 1_555 1_555
C68_6 C77_6 1_555 1_555
C72_6 C73_6 1_555 1_555
C75_6 C78_6 1_555 1_555
C76_6 C78_6 1_555 1_555
C79_6 C81_6 1_555 1_555
C83_6 C84_6 1_555 1_555
Zr1_4 O1_3 1_555 1_555
Zr2_2 O1_3 1_555 1_555
Zr3_2 O2_3 1_555 1_555
Zr4_4 O4_3 1_555 1_555
O1_3 Zr15_2 1_555 1_555
O2_3 Zr1_4 1_555 1_555
O3_7 Zr1_4 1_555 1_555
O4_3 Zr2_2 1_555 1_555
O5_5 C2_7 1_555 1_555
O6_7 C10_7 1_555 1_555
O8_5 C2_7 1_555 1_555
O9_4 Zr2_2 1_555 1_555
O10_3 Zr2_2 1_555 1_555
O12_3 Zr4_4 1_555 1_555
O13_5 Zr2_2 1_555 1_555
H1_5 O13_5 1_555 1_555
H2_5 O13_5 1_555 1_555
O14_7 Zr4_4 1_555 1_555
H3_7 O14_7 1_555 1_555
H4_7 O14_7 1_555 1_555
N1_7 C25_7 1_555 1_555
N2_7 H5_7 1_555 1_555
H6_7 N2_7 1_555 1_555
N3_3 H7_3 1_555 1_555
H8_3 N3_3 1_555 1_555
C1_7 C3_7 1_555 1_555
O15_5 Zr3_2 1_555 1_555
H9_5 O15_5 1_555 1_555
H10_5 O15_5 1_555 1_555
O16_5 Zr3_2 1_555 1_555
H11_5 O16_5 1_555 1_555
H12_5 O16_5 1_555 1_555
C2_7 C29_7 1_555 1_555
C3_7 H13_7 1_555 1_555
C4_7 C11_7 1_555 1_555
C5_4 N3_3 1_555 1_555
C6_4 H14_4 1_555 1_555
C7_7 C12_7 1_555 1_555
C8_3 C5_4 1_555 1_555
C9_7 H15_7 1_555 1_555
C10_7 O3_7 1_555 1_555
C11_7 H16_7 1_555 1_555
C12_7 C11_7 1_555 1_555
C13_7 N2_7 1_555 1_555
C14_4 C6_4 1_555 1_555
C15_7 C9_7 1_555 1_555
H17_7 C15_7 1_555 1_555
C16_7 C4_7 1_555 1_555
H18_7 C16_7 1_555 1_555
C17_7 C9_7 1_555 1_555
C18_4 C5_4 1_555 1_555
C19_7 C3_7 1_555 1_555
H19_7 C19_7 1_555 1_555
C20_7 C13_7 1_555 1_555
C21_3 C8_3 1_555 1_555
H20_3 C21_3 1_555 1_555
C22_7 C7_7 1_555 1_555
H21_7 C22_7 1_555 1_555
C24_4 C18_4 1_555 1_555
C25_7 C4_7 1_555 1_555
C26_3 C8_3 1_555 1_555
C27_5 O9_4 1_555 1_555
C28_7 C1_7 1_555 1_555
H22_7 C28_7 1_555 1_555
C29_7 C15_7 1_555 1_555
C30_4 C24_4 1_555 1_555
H23_4 C30_4 1_555 1_555
C32_4 C27_5 1_555 1_555
C35_4 C24_4 1_555 1_555
H26_4 C35_4 1_555 1_555
C36_7 C17_7 1_555 1_555
H27_7 C36_7 1_555 1_555
C37_4 C14_4 1_555 1_555
C38_7 C29_7 1_555 1_555
H28_7 C38_7 1_555 1_555
C39_3 C26_3 1_555 1_555
H29_3 C39_3 1_555 1_555
C40_4 C30_4 1_555 1_555
H30_4 C40_4 1_555 1_555
C41_3 C26_3 1_555 1_555
H31_3 C41_3 1_555 1_555
C42_4 C32_4 1_555 1_555
H32_4 C42_4 1_555 1_555
N4_4 C37_4 1_555 1_555
Zr5_3 O8_5 1_555 1_555
Zr6_3 O18_5 1_555 1_555
O17_5 Zr5_3 1_555 1_555
O18_5 Zr5_3 1_555 1_555
O19_5 Zr5_3 1_555 1_555
O21_7 Zr5_3 1_555 1_555
O22_5 Zr5_3 1_555 1_555
O24_5 C52_9 1_555 1_555
O25_9 Zr5_3 1_555 1_555
H33_9 O25_9 1_555 1_555
H34_9 O25_9 1_555 1_555
N5_5 H35_5 1_555 1_555
H36_5 N5_5 1_555 1_555
O26_9 Zr6_3 1_555 1_555
H37_9 O26_9 1_555 1_555
H38_9 O26_9 1_555 1_555
O27_9 Zr6_3 1_555 1_555
H39_9 O27_9 1_555 1_555
H40_9 O27_9 1_555 1_555
C43_7 N5_5 1_555 1_555
C44_7 H41_7 1_555 1_555
C45_5 C43_7 1_555 1_555
C46_7 C44_7 1_555 1_555
C47_7 C43_7 1_555 1_555
C48_5 C45_5 1_555 1_555
H42_5 C48_5 1_555 1_555
C50_7 C47_7 1_555 1_555
C51_5 C45_5 1_555 1_555
C52_9 O21_7 1_555 1_555
C53_7 C50_7 1_555 1_555
H43_7 C53_7 1_555 1_555
C55_7 C52_9 1_555 1_555
C58_7 C50_7 1_555 1_555
H46_7 C58_7 1_555 1_555
C59_7 C46_7 1_555 1_555
C60_5 C51_5 1_555 1_555
H47_5 C60_5 1_555 1_555
C61_7 C53_7 1_555 1_555
H48_8 C61_7 1_555 1_555
C63_7 C55_7 1_555 1_555
H50_7 C63_7 1_555 1_555
N6_7 C59_7 1_555 1_555
O28_7 Zr1_4 1_555 1_555
O29_3 C65_7 1_555 1_555
O30_3 Zr3_2 1_555 1_555
O31_7 C65_7 1_555 1_555
N7_4 C80_4 1_555 1_555
N8_7 H51_7 1_555 1_555
H52_7 N8_7 1_555 1_555
C64_7 C66_7 1_555 1_555
C65_7 C82_7 1_555 1_555
C66_7 H53_7 1_555 1_555
C67_4 C71_7 1_555 1_555
C68_7 C72_7 1_555 1_555
C69_7 H54_7 1_555 1_555
C70_7 O28_7 1_555 1_555
C71_7 H55_4 1_555 1_555
C72_7 C71_7 1_555 1_555
C73_7 N8_7 1_555 1_555
C74_7 C69_7 1_555 1_555
H56_7 C74_7 1_555 1_555
C75_7 C67_4 1_555 1_555
H57_4 C75_7 1_555 1_555
C76_7 C69_7 1_555 1_555
C77_7 C66_7 1_555 1_555
H58_7 C77_7 1_555 1_555
C78_7 C73_7 1_555 1_555
C79_7 C68_7 1_555 1_555
H59_7 C79_7 1_555 1_555
C80_4 C67_4 1_555 1_555
C81_7 C64_7 1_555 1_555
H60_7 C81_7 1_555 1_555
C82_7 C74_7 1_555 1_555
C83_7 C76_7 1_555 1_555
H61_7 C83_7 1_555 1_555
C84_7 C82_7 1_555 1_555
H62_7 C84_7 1_555 1_555
O32_7 Zr4_4 1_555 1_555
H63_7 O32_7 1_555 1_555
H64_7 O32_7 1_555 1_555
Zr7_3 O5_5 1_555 1_555
Zr8_4 O29_3 1_555 1_555
Zr11_4 O31_7 1_555 1_555
Zr14_3 O17_5 1_555 1_555
Zr15_2 O4_3 1_555 1_555
Zr16_6 O19_5 1_555 1_555
O33_5 Zr6_3 1_555 1_555
O34_3 Zr1_4 1_555 1_555
O35_7 Zr1_4 1_555 1_555
O36_5 Zr6_3 1_555 1_555
O37_3 Zr3_2 1_555 1_555
O38_3 Zr1_4 1_555 1_555
O39_5 Zr1_4 1_555 1_555
O40_5 Zr6_3 1_555 1_555
O41_3 Zr5_3 1_555 1_555
O42_2 Zr2_2 1_555 1_555
O43_3 Zr2_2 1_555 1_555
O44_7 Zr4_4 1_555 1_555
O45_3 Zr6_3 1_555 1_555
O46_2 Zr3_2 1_555 1_555
O47_7 Zr4_4 1_555 1_555
Zr2_2 O2_3 1_555 1_555
Zr3_2 O10_3 1_555 1_555
Zr3_2 O34_3 1_555 1_555
Zr4_4 O10_3 1_555 1_555
Zr4_4 O37_3 1_555 1_555
O6_7 Zr15_2 1_555 1_555
O12_3 C27_5 1_555 1_555
C1_7 C10_7 1_555 1_555
C6_4 C18_4 1_555 1_555
C7_7 C19_7 1_555 1_555
C12_7 C13_7 1_555 1_555
C14_4 C21_3 1_555 1_555
C16_7 C20_7 1_555 1_555
C17_7 C20_7 1_555 1_555
C22_7 C28_7 1_555 1_555
C32_4 C40_4 1_555 1_555
C33_3 C41_3 1_555 1_555
C35_4 C42_4 1_555 1_555
C36_7 C38_7 1_555 1_555
Zr6_3 O22_5 1_555 1_555
O17_5 Zr7_3 1_555 1_555
O18_5 Zr7_3 1_555 1_555
O19_5 Zr14_3 1_555 1_555
O22_5 Zr16_6 1_555 1_555
O24_5 Zr16_6 1_555 1_555
C44_7 C47_7 1_555 1_555
C46_7 C48_5 1_555 1_555
C55_7 C61_7 1_555 1_555
C58_7 C63_7 1_555 1_555
O30_3 C70_7 1_555 1_555
C64_7 C70_7 1_555 1_555
C68_7 C77_7 1_555 1_555
C72_7 C73_7 1_555 1_555
C75_7 C78_7 1_555 1_555
C76_7 C78_7 1_555 1_555
C79_7 C81_7 1_555 1_555
C83_7 C84_7 1_555 1_555
Zr7_3 O33_5 1_555 1_555
Zr15_2 O35_7 1_555 1_555
Zr15_2 O44_7 1_555 1_555
Zr16_6 O36_5 1_555 1_555
O3_8 Zr7_3 1_555 1_555
O5_6 C2_8 1_555 1_555
O6_8 C10_8 1_555 1_555
O8_6 C2_8 1_555 1_555
O14_8 Zr16_6 1_555 1_555
H3_8 O14_8 1_555 1_555
H4_8 O14_8 1_555 1_555
N1_8 C25_8 1_555 1_555
N2_8 H5_8 1_555 1_555
H6_8 N2_8 1_555 1_555
C1_8 C3_8 1_555 1_555
C2_8 C29_8 1_555 1_555
C3_8 H13_8 1_555 1_555
C4_8 C11_8 1_555 1_555
C7_8 C12_8 1_555 1_555
C9_8 H15_8 1_555 1_555
C10_8 O3_8 1_555 1_555
C11_8 H16_8 1_555 1_555
C12_8 C11_8 1_555 1_555
C13_8 N2_8 1_555 1_555
C15_8 C9_8 1_555 1_555
H17_8 C15_8 1_555 1_555
C16_8 C4_8 1_555 1_555
H18_8 C16_8 1_555 1_555
C17_8 C9_8 1_555 1_555
C19_8 C3_8 1_555 1_555
H19_8 C19_8 1_555 1_555
C20_8 C13_8 1_555 1_555
C22_8 C7_8 1_555 1_555
H21_8 C22_8 1_555 1_555
C25_8 C4_8 1_555 1_555
C28_8 C1_8 1_555 1_555
H22_8 C28_8 1_555 1_555
C29_8 C15_8 1_555 1_555
C36_8 C17_8 1_555 1_555
H27_8 C36_8 1_555 1_555
C38_8 C29_8 1_555 1_555
H28_8 C38_8 1_555 1_555
Zr5_4 O8_6 1_555 1_555
Zr6_4 O18_6 1_555 1_555
O17_6 Zr5_4 1_555 1_555
O18_6 Zr5_4 1_555 1_555
O19_6 Zr5_4 1_555 1_555
O21_8 Zr5_4 1_555 1_555
O22_6 Zr5_4 1_555 1_555
O24_6 C52_10 1_555 1_555
O25_10 Zr5_4 1_555 1_555
H33_10 O25_10 1_555 1_555
H34_10 O25_10 1_555 1_555
N5_6 H35_6 1_555 1_555
H36_6 N5_6 1_555 1_555
O26_10 Zr6_4 1_555 1_555
H37_10 O26_10 1_555 1_555
H38_10 O26_10 1_555 1_555
O27_10 Zr6_4 1_555 1_555
H39_10 O27_10 1_555 1_555
H40_10 O27_10 1_555 1_555
C43_8 N5_6 1_555 1_555
C44_8 H41_8 1_555 1_555
C45_6 C43_8 1_555 1_555
C46_8 C44_8 1_555 1_555
C47_8 C43_8 1_555 1_555
C48_6 C45_6 1_555 1_555
H42_6 C48_6 1_555 1_555
C50_8 C47_8 1_555 1_555
C51_6 C45_6 1_555 1_555
C52_10 O21_8 1_555 1_555
C53_8 C50_8 1_555 1_555
H43_8 C53_8 1_555 1_555
C55_8 C52_10 1_555 1_555
C58_8 C50_8 1_555 1_555
H46_8 C58_8 1_555 1_555
C59_8 C46_8 1_555 1_555
C60_6 C51_6 1_555 1_555
H47_6 C60_6 1_555 1_555
C61_8 C53_8 1_555 1_555
H48_9 C61_8 1_555 1_555
C63_8 C55_8 1_555 1_555
H50_8 C63_8 1_555 1_555
N6_8 C59_8 1_555 1_555
O28_8 Zr7_3 1_555 1_555
O39_5 C65_8 1_555 1_555
O31_8 C65_8 1_555 1_555
N7_5 C80_5 1_555 1_555
N8_8 H51_8 1_555 1_555
H52_8 N8_8 1_555 1_555
C64_8 C66_8 1_555 1_555
C65_8 C82_8 1_555 1_555
C66_8 H53_8 1_555 1_555
C67_5 C71_8 1_555 1_555
C68_8 C72_8 1_555 1_555
C69_8 H54_8 1_555 1_555
C70_8 O28_8 1_555 1_555
C71_8 H55_5 1_555 1_555
C72_8 C71_8 1_555 1_555
C73_8 N8_8 1_555 1_555
C74_8 C69_8 1_555 1_555
H56_8 C74_8 1_555 1_555
C75_8 C67_5 1_555 1_555
H57_5 C75_8 1_555 1_555
C76_8 C69_8 1_555 1_555
C77_8 C66_8 1_555 1_555
H58_8 C77_8 1_555 1_555
C78_8 C73_8 1_555 1_555
C79_8 C68_8 1_555 1_555
H59_8 C79_8 1_555 1_555
C80_5 C67_5 1_555 1_555
C81_8 C64_8 1_555 1_555
H60_8 C81_8 1_555 1_555
C82_8 C74_8 1_555 1_555
C83_8 C76_8 1_555 1_555
H61_8 C83_8 1_555 1_555
C84_8 C82_8 1_555 1_555
H62_8 C84_8 1_555 1_555
O32_8 Zr16_6 1_555 1_555
H63_8 O32_8 1_555 1_555
H64_8 O32_8 1_555 1_555
Zr8_4 O5_6 1_555 1_555
Zr11_5 O31_8 1_555 1_555
Zr14_4 O17_6 1_555 1_555
Zr16_7 O19_6 1_555 1_555
O33_6 Zr6_4 1_555 1_555
O35_8 Zr7_3 1_555 1_555
O36_6 Zr6_4 1_555 1_555
O39_6 Zr7_3 1_555 1_555
O40_6 Zr6_4 1_555 1_555
O41_4 Zr5_4 1_555 1_555
O44_8 Zr16_6 1_555 1_555
O45_4 Zr6_4 1_555 1_555
O47_8 Zr16_6 1_555 1_555
O6_8 Zr14_3 1_555 1_555
C1_8 C10_8 1_555 1_555
C7_8 C19_8 1_555 1_555
C12_8 C13_8 1_555 1_555
C16_8 C20_8 1_555 1_555
C17_8 C20_8 1_555 1_555
C22_8 C28_8 1_555 1_555
C36_8 C38_8 1_555 1_555
Zr6_4 O22_6 1_555 1_555
O17_6 Zr8_4 1_555 1_555
O18_6 Zr8_4 1_555 1_555
O19_6 Zr14_4 1_555 1_555
O22_6 Zr16_7 1_555 1_555
O24_6 Zr16_7 1_555 1_555
C44_8 C47_8 1_555 1_555
C46_8 C48_6 1_555 1_555
C55_8 C61_8 1_555 1_555
C58_8 C63_8 1_555 1_555
O40_5 C70_8 1_555 1_555
C64_8 C70_8 1_555 1_555
C68_8 C77_8 1_555 1_555
C72_8 C73_8 1_555 1_555
C75_8 C78_8 1_555 1_555
C76_8 C78_8 1_555 1_555
C79_8 C81_8 1_555 1_555
C83_8 C84_8 1_555 1_555
Zr8_4 O33_6 1_555 1_555
Zr14_3 O35_8 1_555 1_555
Zr14_3 O44_8 1_555 1_555
Zr16_7 O36_6 1_555 1_555
O3_9 Zr8_4 1_555 1_555
O38_3 C2_9 1_555 1_555
O6_9 C10_9 1_555 1_555
O43_3 C2_9 1_555 1_555
O14_9 Zr16_7 1_555 1_555
H3_9 O14_9 1_555 1_555
H4_9 O14_9 1_555 1_555
N1_9 C25_9 1_555 1_555
N2_9 H5_9 1_555 1_555
H6_9 N2_9 1_555 1_555
C1_9 C3_9 1_555 1_555
C2_9 C29_9 1_555 1_555
C3_9 H13_9 1_555 1_555
C4_9 C11_9 1_555 1_555
C7_9 C12_9 1_555 1_555
C9_9 H15_9 1_555 1_555
C10_9 O3_9 1_555 1_555
C11_9 H16_9 1_555 1_555
C12_9 C11_9 1_555 1_555
C13_9 N2_9 1_555 1_555
C15_9 C9_9 1_555 1_555
H17_9 C15_9 1_555 1_555
C16_9 C4_9 1_555 1_555
H18_9 C16_9 1_555 1_555
C17_9 C9_9 1_555 1_555
C19_9 C3_9 1_555 1_555
H19_9 C19_9 1_555 1_555
C20_9 C13_9 1_555 1_555
C22_9 C7_9 1_555 1_555
H21_9 C22_9 1_555 1_555
C25_9 C4_9 1_555 1_555
C28_9 C1_9 1_555 1_555
H22_9 C28_9 1_555 1_555
C29_9 C15_9 1_555 1_555
C36_9 C17_9 1_555 1_555
H27_9 C36_9 1_555 1_555
C38_9 C29_9 1_555 1_555
H28_9 C38_9 1_555 1_555
O28_9 Zr8_4 1_555 1_555
O39_6 C65_9 1_555 1_555
O31_9 C65_9 1_555 1_555
N7_6 C80_6 1_555 1_555
N8_9 H51_9 1_555 1_555
H52_9 N8_9 1_555 1_555
C64_9 C66_9 1_555 1_555
C65_9 C82_9 1_555 1_555
C66_9 H53_9 1_555 1_555
C67_6 C71_9 1_555 1_555
C68_9 C72_9 1_555 1_555
C69_9 H54_9 1_555 1_555
C70_9 O28_9 1_555 1_555
C71_9 H55_6 1_555 1_555
C72_9 C71_9 1_555 1_555
C73_9 N8_9 1_555 1_555
C74_9 C69_9 1_555 1_555
H56_9 C74_9 1_555 1_555
C75_9 C67_6 1_555 1_555
H57_6 C75_9 1_555 1_555
C76_9 C69_9 1_555 1_555
C77_9 C66_9 1_555 1_555
H58_9 C77_9 1_555 1_555
C78_9 C73_9 1_555 1_555
C79_9 C68_9 1_555 1_555
H59_9 C79_9 1_555 1_555
C80_6 C67_6 1_555 1_555
C81_9 C64_9 1_555 1_555
H60_9 C81_9 1_555 1_555
C82_9 C74_9 1_555 1_555
C83_9 C76_9 1_555 1_555
H61_9 C83_9 1_555 1_555
C84_9 C82_9 1_555 1_555
H62_9 C84_9 1_555 1_555
O32_9 Zr16_7 1_555 1_555
H63_9 O32_9 1_555 1_555
H64_9 O32_9 1_555 1_555
Zr11_6 O31_9 1_555 1_555
O35_9 Zr8_4 1_555 1_555
O44_9 Zr16_7 1_555 1_555
O47_9 Zr16_7 1_555 1_555
O6_9 Zr14_4 1_555 1_555
C1_9 C10_9 1_555 1_555
C7_9 C19_9 1_555 1_555
C12_9 C13_9 1_555 1_555
C16_9 C20_9 1_555 1_555
C17_9 C20_9 1_555 1_555
C22_9 C28_9 1_555 1_555
C36_9 C38_9 1_555 1_555
O40_6 C70_9 1_555 1_555
C64_9 C70_9 1_555 1_555
C68_9 C77_9 1_555 1_555
C72_9 C73_9 1_555 1_555
C75_9 C78_9 1_555 1_555
C76_9 C78_9 1_555 1_555
C79_9 C81_9 1_555 1_555
C83_9 C84_9 1_555 1_555
Zr14_4 O35_9 1_555 1_555
Zr14_4 O44_9 1_555 1_555
O7_3 C31_4 1_555 1_555
O45 C31_4 1_555 1_555
N3_4 H7_4 1_555 1_555
H8_4 N3_4 1_555 1_555
C5_5 N3_4 1_555 1_555
C6_5 H14_5 1_555 1_555
C8_4 C5_5 1_555 1_555
C14_5 C6_5 1_555 1_555
C18_5 C5_5 1_555 1_555
C21_4 C8_4 1_555 1_555
H20_4 C21_4 1_555 1_555
C23_4 C31_4 1_555 1_555
C24_5 C18_5 1_555 1_555
C26_4 C8_4 1_555 1_555
C30_5 C24_5 1_555 1_555
H23_5 C30_5 1_555 1_555
C33_4 C23_4 1_555 1_555
H24_4 C33_4 1_555 1_555
C34_4 C23_4 1_555 1_555
H25_4 C34_4 1_555 1_555
C35_5 C24_5 1_555 1_555
H26_5 C35_5 1_555 1_555
C37_5 C14_5 1_555 1_555
C39_4 C26_4 1_555 1_555
H29_4 C39_4 1_555 1_555
C40_5 C30_5 1_555 1_555
H30_5 C40_5 1_555 1_555
C41_4 C26_4 1_555 1_555
H31_4 C41_4 1_555 1_555
C42_5 C32_5 1_555 1_555
N4_5 C37_5 1_555 1_555
C6_5 C18_5 1_555 1_555
C14_5 C21_4 1_555 1_555
C32_5 C40_5 1_555 1_555
C33_4 C41_4 1_555 1_555
C34_4 C39_4 1_555 1_555
C35_5 C42_5 1_555 1_555
Zr11_4 O33_6 1_555 1_555
O36_6 Zr11_4 1_555 1_555
O9_5 Zr11_4 1_555 1_555
O44_9 Zr11_4 1_555 1_555
O13_6 Zr11_4 1_555 1_555
H1_6 O13_6 1_555 1_555
H2_6 O13_6 1_555 1_555
O15_6 Zr14_4 1_555 1_555
H9_6 O15_6 1_555 1_555
H10_6 O15_6 1_555 1_555
O16_6 Zr14_4 1_555 1_555
H11_6 O16_6 1_555 1_555
H12_6 O16_6 1_555 1_555
C27_6 O9_5 1_555 1_555
O33_5 Zr11_6 1_555 1_555
O35_8 Zr11_6 1_555 1_555
O36_5 Zr11_6 1_555 1_555
O21_9 Zr11_6 1_555 1_555
O44_8 Zr11_6 1_555 1_555
O47_8 C52_11 1_555 1_555
O25_11 Zr11_6 1_555 1_555
H33_11 O25_11 1_555 1_555
H34_11 O25_11 1_555 1_555
O26_11 Zr14_3 1_555 1_555
H37_11 O26_11 1_555 1_555
H38_11 O26_11 1_555 1_555
O27_11 Zr14_3 1_555 1_555
H39_11 O27_11 1_555 1_555
H40_11 O27_11 1_555 1_555
C52_11 O21_9 1_555 1_555
O41_5 Zr11_6 1_555 1_555
O42_3 Zr11_4 1_555 1_555
O45_5 Zr14_3 1_555 1_555
O46_3 Zr14_4 1_555 1_555
Zr11_4 O35_9 1_555 1_555
O47_9 C27_6 1_555 1_555
O20_5 C54_7 1_555 1_555
O45_2 C54_7 1_555 1_555
N5_7 H35_7 1_555 1_555
H36_7 N5_7 1_555 1_555
C43_9 N5_7 1_555 1_555
C44_9 H41_9 1_555 1_555
C45_7 C43_9 1_555 1_555
C46_9 C44_9 1_555 1_555
C47_9 C43_9 1_555 1_555
C48_7 C45_7 1_555 1_555
H42_7 C48_7 1_555 1_555
C49_7 C54_7 1_555 1_555
C50_9 C47_9 1_555 1_555
C51_7 C45_7 1_555 1_555
C53_9 C50_9 1_555 1_555
H43_9 C53_9 1_555 1_555
C56_5 C49_7 1_555 1_555
H44_7 C56_5 1_555 1_555
C57_7 C49_7 1_555 1_555
H45_7 C57_7 1_555 1_555
C58_9 C50_9 1_555 1_555
H46_9 C58_9 1_555 1_555
C59_9 C46_9 1_555 1_555
C60_7 C51_7 1_555 1_555
H47_7 C60_7 1_555 1_555
C61_9 C53_9 1_555 1_555
H48_10 C61_9 1_555 1_555
C62_5 C51_7 1_555 1_555
H49_5 C62_5 1_555 1_555
C63_9 C55_9 1_555 1_555
N6_9 C59_9 1_555 1_555
C44_9 C47_9 1_555 1_555
C46_9 C48_7 1_555 1_555
C55_9 C61_9 1_555 1_555
C56_5 C62_5 1_555 1_555
C57_7 C60_7 1_555 1_555
C58_9 C63_9 1_555 1_555
O34_3 Zr11_5 1_555 1_555
O35_7 Zr11_5 1_555 1_555
O37_3 Zr11_5 1_555 1_555
O20_6 C54_8 1_555 1_555
O21_10 Zr11_5 1_555 1_555
O44_7 Zr11_5 1_555 1_555
O46 C54_8 1_555 1_555
O47_7 C52_12 1_555 1_555
O25_12 Zr11_5 1_555 1_555
H33_12 O25_12 1_555 1_555
H34_12 O25_12 1_555 1_555
N5_8 H35_8 1_555 1_555
H36_8 N5_8 1_555 1_555
O26_12 Zr15_2 1_555 1_555
H37_12 O26_12 1_555 1_555
H38_12 O26_12 1_555 1_555
O27_12 Zr15_2 1_555 1_555
H39_12 O27_12 1_555 1_555
H40_12 O27_12 1_555 1_555
C43_10 N5_8 1_555 1_555
C44_10 H41_10 1_555 1_555
C45_8 C43_10 1_555 1_555
C46_10 C44_10 1_555 1_555
C47_10 C43_10 1_555 1_555
C48_8 C45_8 1_555 1_555
H42_8 C48_8 1_555 1_555
C49_8 C54_8 1_555 1_555
C50_10 C47_10 1_555 1_555
C51_8 C45_8 1_555 1_555
C52_12 O21_10 1_555 1_555
C53_10 C50_10 1_555 1_555
H43_10 C53_10 1_555 1_555
C55_10 C52_12 1_555 1_555
C56_6 C49_8 1_555 1_555
H44_8 C56_6 1_555 1_555
C57_8 C49_8 1_555 1_555
H45_8 C57_8 1_555 1_555
C58_10 C50_10 1_555 1_555
H46_10 C58_10 1_555 1_555
C59_10 C46_10 1_555 1_555
C60_8 C51_8 1_555 1_555
H47_8 C60_8 1_555 1_555
C61_10 C53_10 1_555 1_555
H48_11 C61_10 1_555 1_555
C62_6 C51_8 1_555 1_555
H49_6 C62_6 1_555 1_555
C63_10 C55_10 1_555 1_555
H50_10 C63_10 1_555 1_555
N6_10 C59_10 1_555 1_555
O41_6 Zr11_5 1_555 1_555
O45_6 Zr15_2 1_555 1_555
C44_10 C47_10 1_555 1_555
C46_10 C48_8 1_555 1_555
C55_10 C61_10 1_555 1_555
C56_6 C62_6 1_555 1_555
C57_8 C60_8 1_555 1_555
C58_10 C63_10 1_555 1_555
N7_7 C80_7 1_555 1_555
C80_7 C67_7 1_555 1_555
N7_8 C80_8 1_555 1_555
C80_8 C67_8 1_555 1_555
O41_3 C31_5 1_555 1_555
O45_5 C31_5 1_555 1_555
N3_5 H7_5 1_555 1_555
H8_5 N3_5 1_555 1_555
C21_5 C8_5 1_555 1_555
H20_5 C21_5 1_555 1_555
C23_5 C31_5 1_555 1_555
C26_5 C8_5 1_555 1_555
C33_5 C23_5 1_555 1_555
H24_5 C33_5 1_555 1_555
C34_5 C23_5 1_555 1_555
H25_5 C34_5 1_555 1_555
C39_5 C26_5 1_555 1_555
H29_5 C39_5 1_555 1_555
C41_5 C26_5 1_555 1_555
H31_5 C41_5 1_555 1_555
C33_5 C41_5 1_555 1_555
C34_5 C39_5 1_555 1_555
O42_2 C54_9 1_555 1_555
O45_6 C54_9 1_555 1_555
N5_9 H35_9 1_555 1_555
H36_9 N5_9 1_555 1_555
C48_9 C45_9 1_555 1_555
H42_9 C48_9 1_555 1_555
C49_9 C54_9 1_555 1_555
C51_9 C45_9 1_555 1_555
C56_7 C49_9 1_555 1_555
H44_9 C56_7 1_555 1_555
C57_9 C49_9 1_555 1_555
H45_9 C57_9 1_555 1_555
C60_9 C51_9 1_555 1_555
H47_9 C60_9 1_555 1_555
C62_7 C51_9 1_555 1_555
H49_7 C62_7 1_555 1_555
C56_7 C62_7 1_555 1_555
C57_9 C60_9 1_555 1_555
O41_4 C54_10 1_555 1_555
O46_3 C54_10 1_555 1_555
N5_10 H35_10 1_555 1_555
H36_10 N5_10 1_555 1_555
C48_10 C45_10 1_555 1_555
H42_10 C48_10 1_555 1_555
C49_10 C54_10 1_555 1_555
C51_10 C45_10 1_555 1_555
C56_8 C49_10 1_555 1_555
H44_10 C56_8 1_555 1_555
C57_10 C49_10 1_555 1_555
H45_10 C57_10 1_555 1_555
C60_10 C51_10 1_555 1_555
H47_10 C60_10 1_555 1_555
C62_8 C51_10 1_555 1_555
H49_8 C62_8 1_555 1_555
C56_8 C62_8 1_555 1_555
C57_10 C60_10 1_555 1_555
O41_5 C31_6 1_555 1_555
O45_3 C31_6 1_555 1_555
N3_6 H7_6 1_555 1_555
H8_6 N3_6 1_555 1_555
C5_6 N3_6 1_555 1_555
C6_6 H14_6 1_555 1_555
C8_6 C5_6 1_555 1_555
C14_6 C6_6 1_555 1_555
C18_6 C5_6 1_555 1_555
C21_6 C8_6 1_555 1_555
H20_6 C21_6 1_555 1_555
C23_6 C31_6 1_555 1_555
C24_6 C18_6 1_555 1_555
C26_6 C8_6 1_555 1_555
C30_6 C24_6 1_555 1_555
H23_6 C30_6 1_555 1_555
C33_6 C23_6 1_555 1_555
H24_6 C33_6 1_555 1_555
C34_6 C23_6 1_555 1_555
H25_6 C34_6 1_555 1_555
C35_6 C24_6 1_555 1_555
H26_6 C35_6 1_555 1_555
C37_6 C14_6 1_555 1_555
C39_6 C26_6 1_555 1_555
H29_6 C39_6 1_555 1_555
C40_6 C30_6 1_555 1_555
C41_6 C26_6 1_555 1_555
H31_6 C41_6 1_555 1_555
C42_6 C32_6 1_555 1_555
N4_6 C37_6 1_555 1_555
C6_6 C18_6 1_555 1_555
C14_6 C21_6 1_555 1_555
C32_6 C40_6 1_555 1_555
C33_6 C41_6 1_555 1_555
C34_6 C39_6 1_555 1_555
C35_6 C42_6 1_555 1_555
O42_3 C54_11 1_555 1_555
O45_4 C54_11 1_555 1_555
N5_11 H35_11 1_555 1_555
H36_11 N5_11 1_555 1_555
C43_11 N5_11 1_555 1_555
C44_11 H41_11 1_555 1_555
C45_11 C43_11 1_555 1_555
C46_11 C44_11 1_555 1_555
C47_11 C43_11 1_555 1_555
C48_11 C45_11 1_555 1_555
H42_11 C48_11 1_555 1_555
C49_11 C54_11 1_555 1_555
C50_11 C47_11 1_555 1_555
C51_11 C45_11 1_555 1_555
C53_11 C50_11 1_555 1_555
H43_11 C53_11 1_555 1_555
C56_9 C49_11 1_555 1_555
H44_11 C56_9 1_555 1_555
C57_11 C49_11 1_555 1_555
H45_11 C57_11 1_555 1_555
C58_11 C50_11 1_555 1_555
H46_11 C58_11 1_555 1_555
C59_11 C46_11 1_555 1_555
C60_11 C51_11 1_555 1_555
H47_11 C60_11 1_555 1_555
C61_11 C53_11 1_555 1_555
C62_9 C51_11 1_555 1_555
H49_9 C62_9 1_555 1_555
C63_11 C55_11 1_555 1_555
N6_11 C59_11 1_555 1_555
C44_11 C47_11 1_555 1_555
C46_11 C48_11 1_555 1_555
C55_11 C61_11 1_555 1_555
C56_9 C62_9 1_555 1_555
C57_11 C60_11 1_555 1_555
C58_11 C63_11 1_555 1_555
O41_6 C54_12 1_555 1_555
O46_2 C54_12 1_555 1_555
N5_12 H35_12 1_555 1_555
H36_12 N5_12 1_555 1_555
C43_12 N5_12 1_555 1_555
C44_12 H41_12 1_555 1_555
C45_12 C43_12 1_555 1_555
C46_12 C44_12 1_555 1_555
C47_12 C43_12 1_555 1_555
C48_12 C45_12 1_555 1_555
H42_12 C48_12 1_555 1_555
C49_12 C54_12 1_555 1_555
C50_12 C47_12 1_555 1_555
C51_12 C45_12 1_555 1_555
C53_12 C50_12 1_555 1_555
H43_12 C53_12 1_555 1_555
C56_10 C49_12 1_555 1_555
H44_12 C56_10 1_555 1_555
C57_12 C49_12 1_555 1_555
H45_12 C57_12 1_555 1_555
C58_12 C50_12 1_555 1_555
H46_12 C58_12 1_555 1_555
C59_12 C46_12 1_555 1_555
C60_12 C51_12 1_555 1_555
H47_12 C60_12 1_555 1_555
C61_12 C53_12 1_555 1_555
C62_10 C51_12 1_555 1_555
H49_10 C62_10 1_555 1_555
C63_12 C55_12 1_555 1_555
H50_12 C63_12 1_555 1_555
N6_12 C59_12 1_555 1_555
C44_12 C47_12 1_555 1_555
C46_12 C48_12 1_555 1_555
C55_12 C61_12 1_555 1_555
C56_10 C62_10 1_555 1_555
C57_12 C60_12 1_555 1_555
C58_12 C63_12 1_555 1_555
H49_11 C62_11 1_555 1_555
C56_11 C62_11 1_555 1_555
H49_12 C62_12 1_555 1_555
C56_12 C62_12 1_555 1_555
N7_9 C80_9 1_555 1_555
C80_9 C67_9 1_555 1_555
H44_13 C56_13 1_555 1_555
H49_13 C62_13 1_555 1_555
Zr13_5 O23_7 1_555 1_555
C56_13 C62_13 1_555 1_555
Zr1_5 O1_4 1_555 1_555
Zr2_3 O1_4 1_555 1_555
Zr3_3 O2_4 1_555 1_555
Zr4_5 O4_4 1_555 1_555
O1_4 Zr15_3 1_555 1_555
O2_4 Zr1_5 1_555 1_555
O3_10 Zr1_5 1_555 1_555
O4_4 Zr2_3 1_555 1_555
O5_7 C2_10 1_555 1_555
O6_10 C10_10 1_555 1_555
O7_4 C31_7 1_555 1_555
O8_7 C2_10 1_555 1_555
O9_7 Zr2_3 1_555 1_555
O10_4 Zr2_3 1_555 1_555
O11_4 C31_7 1_555 1_555
O12_4 Zr4_5 1_555 1_555
O13_7 Zr2_3 1_555 1_555
H1_7 O13_7 1_555 1_555
H2_7 O13_7 1_555 1_555
O14_10 Zr4_5 1_555 1_555
H3_10 O14_10 1_555 1_555
H4_10 O14_10 1_555 1_555
N1_10 C25_10 1_555 1_555
N2_10 H5_10 1_555 1_555
H6_10 N2_10 1_555 1_555
N3_7 H7_7 1_555 1_555
H8_7 N3_7 1_555 1_555
C1_10 C3_10 1_555 1_555
O16_7 Zr3_3 1_555 1_555
H11_7 O16_7 1_555 1_555
C2_10 C29_10 1_555 1_555
C3_10 H13_10 1_555 1_555
C4_10 C11_10 1_555 1_555
C5_7 N3_7 1_555 1_555
C6_7 H14_7 1_555 1_555
C7_10 C12_10 1_555 1_555
C8_7 C5_7 1_555 1_555
C9_10 H15_10 1_555 1_555
C10_10 O3_10 1_555 1_555
C11_10 H16_10 1_555 1_555
C12_10 C11_10 1_555 1_555
C13_10 N2_10 1_555 1_555
C14_7 C6_7 1_555 1_555
C15_10 C9_10 1_555 1_555
H17_10 C15_10 1_555 1_555
C16_10 C4_10 1_555 1_555
H18_10 C16_10 1_555 1_555
C17_10 C9_10 1_555 1_555
C18_7 C5_7 1_555 1_555
C19_10 C3_10 1_555 1_555
H19_10 C19_10 1_555 1_555
C20_10 C13_10 1_555 1_555
C21_7 C8_7 1_555 1_555
H20_7 C21_7 1_555 1_555
C22_10 C7_10 1_555 1_555
H21_10 C22_10 1_555 1_555
C23_7 C31_7 1_555 1_555
C24_7 C18_7 1_555 1_555
C25_10 C4_10 1_555 1_555
C26_7 C8_7 1_555 1_555
C27_7 O9_7 1_555 1_555
C28_10 C1_10 1_555 1_555
H22_10 C28_10 1_555 1_555
C29_10 C15_10 1_555 1_555
C30_7 C24_7 1_555 1_555
H23_7 C30_7 1_555 1_555
C32_7 C27_7 1_555 1_555
C33_7 C23_7 1_555 1_555
H24_7 C33_7 1_555 1_555
C34_7 C23_7 1_555 1_555
H25_7 C34_7 1_555 1_555
C35_7 C24_7 1_555 1_555
H26_7 C35_7 1_555 1_555
C36_10 C17_10 1_555 1_555
H27_10 C36_10 1_555 1_555
C37_7 C14_7 1_555 1_555
C38_10 C29_10 1_555 1_555
H28_10 C38_10 1_555 1_555
C39_7 C26_7 1_555 1_555
H29_7 C39_7 1_555 1_555
C40_7 C30_7 1_555 1_555
H30_7 C40_7 1_555 1_555
C41_7 C26_7 1_555 1_555
H31_7 C41_7 1_555 1_555
C42_7 C32_7 1_555 1_555
H32_7 C42_7 1_555 1_555
N4_7 C37_7 1_555 1_555
Zr5_5 O8_7 1_555 1_555
Zr6_5 O18_7 1_555 1_555
O17_7 Zr5_5 1_555 1_555
O18_7 Zr5_5 1_555 1_555
O19_7 Zr5_5 1_555 1_555
O20_7 C54_13 1_555 1_555
O21_13 Zr5_5 1_555 1_555
O22_7 Zr5_5 1_555 1_555
O24_7 C52_13 1_555 1_555
O25_13 Zr5_5 1_555 1_555
H33_13 O25_13 1_555 1_555
H34_13 O25_13 1_555 1_555
N5_13 H35_13 1_555 1_555
H36_13 N5_13 1_555 1_555
O27_13 Zr6_5 1_555 1_555
H39_13 O27_13 1_555 1_555
C43_13 N5_13 1_555 1_555
C44_13 H41_13 1_555 1_555
C45_13 C43_13 1_555 1_555
C46_13 C44_13 1_555 1_555
C47_13 C43_13 1_555 1_555
C48_13 C45_13 1_555 1_555
H42_13 C48_13 1_555 1_555
C49_13 C54_13 1_555 1_555
C50_13 C47_13 1_555 1_555
C51_13 C45_13 1_555 1_555
C52_13 O21_13 1_555 1_555
C53_13 C50_13 1_555 1_555
H43_13 C53_13 1_555 1_555
C55_13 C52_13 1_555 1_555
C57_13 C49_13 1_555 1_555
H45_13 C57_13 1_555 1_555
C58_13 C50_13 1_555 1_555
H46_13 C58_13 1_555 1_555
C59_13 C46_13 1_555 1_555
C60_13 C51_13 1_555 1_555
H47_13 C60_13 1_555 1_555
C61_13 C53_13 1_555 1_555
H48_13 C61_13 1_555 1_555
C63_13 C55_13 1_555 1_555
H50_13 C63_13 1_555 1_555
N6_13 C59_13 1_555 1_555
O28_10 Zr1_5 1_555 1_555
O29_4 C65_10 1_555 1_555
O32_10 Zr4_5 1_555 1_555
H63_10 O32_10 1_555 1_555
H64_10 O32_10 1_555 1_555
Zr7_4 O5_7 1_555 1_555
Zr8_5 O29_4 1_555 1_555
Zr9_5 O20_7 1_555 1_555
Zr10_3 O7_4 1_555 1_555
Zr12_3 O11_4 1_555 1_555
Zr14_5 O17_7 1_555 1_555
Zr15_3 O4_4 1_555 1_555
Zr16_8 O19_7 1_555 1_555
O33_7 Zr6_5 1_555 1_555
O34_4 Zr1_5 1_555 1_555
O35_10 Zr1_5 1_555 1_555
O36_7 Zr6_5 1_555 1_555
O37_4 Zr3_3 1_555 1_555
O38_4 Zr1_5 1_555 1_555
O39_7 Zr1_5 1_555 1_555
O41_7 Zr5_5 1_555 1_555
O42_4 Zr2_3 1_555 1_555
O43_4 Zr2_3 1_555 1_555
O44_10 Zr4_5 1_555 1_555
O47_10 Zr4_5 1_555 1_555
Zr2_3 O2_4 1_555 1_555
Zr3_3 O10_4 1_555 1_555
Zr3_3 O34_4 1_555 1_555
Zr4_5 O10_4 1_555 1_555
Zr4_5 O37_4 1_555 1_555
O6_10 Zr15_3 1_555 1_555
O12_4 C27_7 1_555 1_555
C1_10 C10_10 1_555 1_555
C6_7 C18_7 1_555 1_555
C7_10 C19_10 1_555 1_555
C12_10 C13_10 1_555 1_555
C14_7 C21_7 1_555 1_555
C16_10 C20_10 1_555 1_555
C17_10 C20_10 1_555 1_555
C22_10 C28_10 1_555 1_555
C32_7 C40_7 1_555 1_555
C33_7 C41_7 1_555 1_555
C34_7 C39_7 1_555 1_555
C35_7 C42_7 1_555 1_555
C36_10 C38_10 1_555 1_555
Zr6_5 O22_7 1_555 1_555
O17_7 Zr7_4 1_555 1_555
O18_7 Zr7_4 1_555 1_555
O19_7 Zr14_5 1_555 1_555
O22_7 Zr16_8 1_555 1_555
O24_7 Zr16_8 1_555 1_555
C44_13 C47_13 1_555 1_555
C46_13 C48_13 1_555 1_555
C55_13 C61_13 1_555 1_555
C57_13 C60_13 1_555 1_555
C58_13 C63_13 1_555 1_555
Zr7_4 O33_7 1_555 1_555
Zr15_3 O35_10 1_555 1_555
Zr15_3 O44_10 1_555 1_555
Zr16_8 O36_7 1_555 1_555
O3_11 Zr7_4 1_555 1_555
O5_8 C2_11 1_555 1_555
O6_11 C10_11 1_555 1_555
O8_8 C2_11 1_555 1_555
O14_11 Zr16_8 1_555 1_555
H3_11 O14_11 1_555 1_555
H4_11 O14_11 1_555 1_555
N1_11 C25_11 1_555 1_555
N2_11 H5_11 1_555 1_555
H6_11 N2_11 1_555 1_555
C1_11 C3_11 1_555 1_555
C2_11 C29_11 1_555 1_555
C3_11 H13_11 1_555 1_555
C4_11 C11_11 1_555 1_555
C7_11 C12_11 1_555 1_555
C9_11 H15_11 1_555 1_555
C10_11 O3_11 1_555 1_555
C11_11 H16_11 1_555 1_555
C12_11 C11_11 1_555 1_555
C13_11 N2_11 1_555 1_555
C15_11 C9_11 1_555 1_555
H17_11 C15_11 1_555 1_555
C16_11 C4_11 1_555 1_555
H18_11 C16_11 1_555 1_555
C17_11 C9_11 1_555 1_555
C19_11 C3_11 1_555 1_555
H19_11 C19_11 1_555 1_555
C20_11 C13_11 1_555 1_555
C22_11 C7_11 1_555 1_555
H21_11 C22_11 1_555 1_555
C25_11 C4_11 1_555 1_555
C28_11 C1_11 1_555 1_555
H22_11 C28_11 1_555 1_555
C29_11 C15_11 1_555 1_555
C36_11 C17_11 1_555 1_555
H27_11 C36_11 1_555 1_555
C38_11 C29_11 1_555 1_555
H28_11 C38_11 1_555 1_555
Zr5_6 O8_8 1_555 1_555
Zr6_6 O18_8 1_555 1_555
O17_8 Zr5_6 1_555 1_555
O18_8 Zr5_6 1_555 1_555
O19_8 Zr5_6 1_555 1_555
O20_8 C54_14 1_555 1_555
O21_14 Zr5_6 1_555 1_555
O22_8 Zr5_6 1_555 1_555
O24_8 C52_14 1_555 1_555
O25_14 Zr5_6 1_555 1_555
H33_14 O25_14 1_555 1_555
H34_14 O25_14 1_555 1_555
N5_14 H35_14 1_555 1_555
H36_14 N5_14 1_555 1_555
O27_14 Zr6_6 1_555 1_555
H39_14 O27_14 1_555 1_555
C43_14 N5_14 1_555 1_555
C44_14 H41_14 1_555 1_555
C45_14 C43_14 1_555 1_555
C46_14 C44_14 1_555 1_555
C47_14 C43_14 1_555 1_555
C48_14 C45_14 1_555 1_555
H42_14 C48_14 1_555 1_555
C49_14 C54_14 1_555 1_555
C50_14 C47_14 1_555 1_555
C51_14 C45_14 1_555 1_555
C52_14 O21_14 1_555 1_555
C53_14 C50_14 1_555 1_555
H43_14 C53_14 1_555 1_555
C55_14 C52_14 1_555 1_555
C57_14 C49_14 1_555 1_555
H45_14 C57_14 1_555 1_555
C58_14 C50_14 1_555 1_555
H46_14 C58_14 1_555 1_555
C59_14 C46_14 1_555 1_555
C60_14 C51_14 1_555 1_555
H47_14 C60_14 1_555 1_555
C61_14 C53_14 1_555 1_555
H48_14 C61_14 1_555 1_555
C63_14 C55_14 1_555 1_555
H50_14 C63_14 1_555 1_555
N6_14 C59_14 1_555 1_555
O28_11 Zr7_4 1_555 1_555
O39_7 C65_11 1_555 1_555
O32_11 Zr16_8 1_555 1_555
H63_11 O32_11 1_555 1_555
H64_11 O32_11 1_555 1_555
Zr8_5 O5_8 1_555 1_555
Zr9_6 O20_8 1_555 1_555
Zr14_6 O17_8 1_555 1_555
Zr16_9 O19_8 1_555 1_555
O33_8 Zr6_6 1_555 1_555
O35_11 Zr7_4 1_555 1_555
O36_8 Zr6_6 1_555 1_555
O39_8 Zr7_4 1_555 1_555
O41_8 Zr5_6 1_555 1_555
O44_11 Zr16_8 1_555 1_555
O47_11 Zr16_8 1_555 1_555
O6_11 Zr14_5 1_555 1_555
C1_11 C10_11 1_555 1_555
C7_11 C19_11 1_555 1_555
C12_11 C13_11 1_555 1_555
C16_11 C20_11 1_555 1_555
C17_11 C20_11 1_555 1_555
C22_11 C28_11 1_555 1_555
C36_11 C38_11 1_555 1_555
Zr6_6 O22_8 1_555 1_555
O17_8 Zr8_5 1_555 1_555
O18_8 Zr8_5 1_555 1_555
O19_8 Zr14_6 1_555 1_555
O22_8 Zr16_9 1_555 1_555
O24_8 Zr16_9 1_555 1_555
C44_14 C47_14 1_555 1_555
C46_14 C48_14 1_555 1_555
C55_14 C61_14 1_555 1_555
C57_14 C60_14 1_555 1_555
C58_14 C63_14 1_555 1_555
Zr8_5 O33_8 1_555 1_555
Zr14_5 O35_11 1_555 1_555
Zr14_5 O44_11 1_555 1_555
Zr16_9 O36_8 1_555 1_555
H44_14 C56_14 1_555 1_555
H49_14 C62_14 1_555 1_555
Zr13_6 O23_8 1_555 1_555
C56_14 C62_14 1_555 1_555
O3_12 Zr8_5 1_555 1_555
O38_4 C2_12 1_555 1_555
O6_12 C10_12 1_555 1_555
O43_4 C2_12 1_555 1_555
O14_12 Zr16_9 1_555 1_555
H3_12 O14_12 1_555 1_555
H4_12 O14_12 1_555 1_555
N1_12 C25_12 1_555 1_555
N2_12 H5_12 1_555 1_555
H6_12 N2_12 1_555 1_555
C1_12 C3_12 1_555 1_555
C2_12 C29_12 1_555 1_555
C3_12 H13_12 1_555 1_555
C4_12 C11_12 1_555 1_555
C7_12 C12_12 1_555 1_555
C9_12 H15_12 1_555 1_555
C10_12 O3_12 1_555 1_555
C11_12 H16_12 1_555 1_555
C12_12 C11_12 1_555 1_555
C13_12 N2_12 1_555 1_555
C15_12 C9_12 1_555 1_555
H17_12 C15_12 1_555 1_555
C16_12 C4_12 1_555 1_555
H18_12 C16_12 1_555 1_555
C17_12 C9_12 1_555 1_555
C19_12 C3_12 1_555 1_555
H19_12 C19_12 1_555 1_555
C20_12 C13_12 1_555 1_555
C22_12 C7_12 1_555 1_555
H21_12 C22_12 1_555 1_555
C25_12 C4_12 1_555 1_555
C28_12 C1_12 1_555 1_555
H22_12 C28_12 1_555 1_555
C29_12 C15_12 1_555 1_555
C36_12 C17_12 1_555 1_555
H27_12 C36_12 1_555 1_555
C38_12 C29_12 1_555 1_555
H28_12 C38_12 1_555 1_555
O28_12 Zr8_5 1_555 1_555
O39_8 C65_12 1_555 1_555
O32_12 Zr16_9 1_555 1_555
H63_12 O32_12 1_555 1_555
H64_12 O32_12 1_555 1_555
O35_12 Zr8_5 1_555 1_555
O44_12 Zr16_9 1_555 1_555
O47_12 Zr16_9 1_555 1_555
O6_12 Zr14_6 1_555 1_555
C1_12 C10_12 1_555 1_555
C7_12 C19_12 1_555 1_555
C12_12 C13_12 1_555 1_555
C16_12 C20_12 1_555 1_555
C17_12 C20_12 1_555 1_555
C22_12 C28_12 1_555 1_555
C36_12 C38_12 1_555 1_555
Zr14_6 O35_12 1_555 1_555
Zr14_6 O44_12 1_555 1_555
Zr13_7 O23_9 1_555 1_555
O7_5 C31_8 1_555 1_555
O11_5 C31_8 1_555 1_555
C23_8 C31_8 1_555 1_555
C34_8 C23_8 1_555 1_555
H25_8 C34_8 1_555 1_555
O20_9 C54_15 1_555 1_555
C49_15 C54_15 1_555 1_555
C57_15 C49_15 1_555 1_555
H45_15 C57_15 1_555 1_555
Zr9_7 O20_9 1_555 1_555
Zr10_4 O7_5 1_555 1_555
Zr12_4 O11_5 1_555 1_555
O20_10 C54_16 1_555 1_555
C49_16 C54_16 1_555 1_555
C57_16 C49_16 1_555 1_555
H45_16 C57_16 1_555 1_555
Zr9_8 O20_10 1_555 1_555
Zr13_8 O23_10 1_555 1_555
O5_9 C2_13 1_555 1_555
O8_9 C2_13 1_555 1_555
C2_13 C29_13 1_555 1_555
C9_13 H15_13 1_555 1_555
C15_13 C9_13 1_555 1_555
H17_13 C15_13 1_555 1_555
H18_13 C16_13 1_555 1_555
C17_13 C9_13 1_555 1_555
C29_13 C15_13 1_555 1_555
C36_13 C17_13 1_555 1_555
H27_13 C36_13 1_555 1_555
C38_13 C29_13 1_555 1_555
H28_13 C38_13 1_555 1_555
Zr10_3 O8_9 1_555 1_555
Zr12_4 O18_9 1_555 1_555
O17_9 Zr10_3 1_555 1_555
O18_9 Zr10_3 1_555 1_555
O19_9 Zr10_3 1_555 1_555
O42_4 C54_17 1_555 1_555
O21_15 Zr10_3 1_555 1_555
O22_9 Zr10_3 1_555 1_555
O23_11 C54_17 1_555 1_555
O24_9 C52_15 1_555 1_555
O25_15 Zr10_3 1_555 1_555
H33_15 O25_15 1_555 1_555
H34_15 O25_15 1_555 1_555
N5_15 H35_15 1_555 1_555
H36_15 N5_15 1_555 1_555
O26_13 Zr12_4 1_555 1_555
H37_13 O26_13 1_555 1_555
H38_13 O26_13 1_555 1_555
O27_15 Zr12_4 1_555 1_555
H39_15 O27_15 1_555 1_555
H40_13 O27_15 1_555 1_555
C43_15 N5_15 1_555 1_555
C44_15 H41_15 1_555 1_555
C45_15 C43_15 1_555 1_555
C46_15 C44_15 1_555 1_555
C47_15 C43_15 1_555 1_555
C48_15 C45_15 1_555 1_555
H42_15 C48_15 1_555 1_555
C49_17 C54_17 1_555 1_555
C50_15 C47_15 1_555 1_555
C51_15 C45_15 1_555 1_555
C52_15 O21_15 1_555 1_555
C53_15 C50_15 1_555 1_555
H43_15 C53_15 1_555 1_555
C55_15 C52_15 1_555 1_555
C56_15 C49_17 1_555 1_555
H44_17 C56_15 1_555 1_555
C57_17 C49_17 1_555 1_555
H45_17 C57_17 1_555 1_555
C58_15 C50_15 1_555 1_555
H46_15 C58_15 1_555 1_555
C59_15 C46_15 1_555 1_555
C60_15 C51_15 1_555 1_555
H47_15 C60_15 1_555 1_555
C61_15 C53_15 1_555 1_555
H48_15 C61_15 1_555 1_555
C62_15 C51_15 1_555 1_555
H49_15 C62_15 1_555 1_555
C63_15 C55_15 1_555 1_555
H50_15 C63_15 1_555 1_555
N6_15 C59_15 1_555 1_555
Zr7_5 O5_9 1_555 1_555
Zr15_3 O23_11 1_555 1_555
Zr12_3 O17_9 1_555 1_555
Zr16_10 O19_9 1_555 1_555
O33_9 Zr12_4 1_555 1_555
O36_9 Zr12_4 1_555 1_555
O40_7 Zr12_4 1_555 1_555
C16_13 C20_13 1_555 1_555
C17_13 C20_13 1_555 1_555
C36_13 C38_13 1_555 1_555
Zr12_4 O22_9 1_555 1_555
O17_9 Zr7_5 1_555 1_555
O18_9 Zr7_5 1_555 1_555
O19_9 Zr12_3 1_555 1_555
O22_9 Zr16_10 1_555 1_555
O24_9 Zr16_10 1_555 1_555
C44_15 C47_15 1_555 1_555
C46_15 C48_15 1_555 1_555
C55_15 C61_15 1_555 1_555
C56_15 C62_15 1_555 1_555
C57_17 C60_15 1_555 1_555
C58_15 C63_15 1_555 1_555
Zr7_5 O33_9 1_555 1_555
Zr16_10 O36_9 1_555 1_555
O6_13 C10_13 1_555 1_555
N1_13 C25_13 1_555 1_555
H6_13 N2_13 1_555 1_555
C1_13 C3_13 1_555 1_555
C3_13 H13_13 1_555 1_555
C4_13 C11_13 1_555 1_555
C7_13 C12_13 1_555 1_555
C10_13 O3_13 1_555 1_555
C11_13 H16_13 1_555 1_555
C12_13 C11_13 1_555 1_555
C13_13 N2_13 1_555 1_555
C19_13 C3_13 1_555 1_555
H19_13 C19_13 1_555 1_555
C22_13 C7_13 1_555 1_555
H21_13 C22_13 1_555 1_555
C25_13 C4_13 1_555 1_555
C28_13 C1_13 1_555 1_555
H22_13 C28_13 1_555 1_555
H63_13 O32_13 1_555 1_555
H64_13 O32_13 1_555 1_555
O6_13 Zr13_5 1_555 1_555
C1_13 C10_13 1_555 1_555
C7_13 C19_13 1_555 1_555
C12_13 C13_13 1_555 1_555
C22_13 C28_13 1_555 1_555
Zr13_5 O35_13 1_555 1_555
Zr13_5 O44_13 1_555 1_555
Zr1_6 O1_5 1_555 1_555
Zr9_5 O1_5 1_555 1_555
Zr13_8 O2_5 1_555 1_555
Zr4_6 O4_5 1_555 1_555
O2_5 Zr1_6 1_555 1_555
O4_5 Zr9_5 1_555 1_555
O41_7 C31_9 1_555 1_555
O9_8 Zr9_5 1_555 1_555
O10_5 Zr9_5 1_555 1_555
O11_6 C31_9 1_555 1_555
O12_5 Zr4_6 1_555 1_555
O13_8 Zr9_5 1_555 1_555
H1_8 O13_8 1_555 1_555
H2_8 O13_8 1_555 1_555
O14_13 Zr4_6 1_555 1_555
H3_13 O14_13 1_555 1_555
H4_13 O14_13 1_555 1_555
N3_8 H7_8 1_555 1_555
H8_8 N3_8 1_555 1_555
O15_7 Zr13_8 1_555 1_555
H9_7 O15_7 1_555 1_555
H10_7 O15_7 1_555 1_555
O16_8 Zr13_8 1_555 1_555
H11_8 O16_8 1_555 1_555
H12_7 O16_8 1_555 1_555
C5_8 N3_8 1_555 1_555
C6_8 H14_8 1_555 1_555
C8_8 C5_8 1_555 1_555
C14_8 C6_8 1_555 1_555
C18_8 C5_8 1_555 1_555
C21_8 C8_8 1_555 1_555
H20_8 C21_8 1_555 1_555
C23_9 C31_9 1_555 1_555
C24_8 C18_8 1_555 1_555
C26_8 C8_8 1_555 1_555
C27_8 O9_8 1_555 1_555
C30_8 C24_8 1_555 1_555
H23_8 C30_8 1_555 1_555
C32_8 C27_8 1_555 1_555
C33_8 C23_9 1_555 1_555
H24_9 C33_8 1_555 1_555
C34_9 C23_9 1_555 1_555
H25_9 C34_9 1_555 1_555
C35_8 C24_8 1_555 1_555
H26_8 C35_8 1_555 1_555
C37_8 C14_8 1_555 1_555
C39_8 C26_8 1_555 1_555
H29_8 C39_8 1_555 1_555
C40_8 C30_8 1_555 1_555
H30_8 C40_8 1_555 1_555
C41_8 C26_8 1_555 1_555
H31_8 C41_8 1_555 1_555
C42_8 C32_8 1_555 1_555
H32_8 C42_8 1_555 1_555
N4_8 C37_8 1_555 1_555
O28_13 Zr1_6 1_555 1_555
O29_5 C65_13 1_555 1_555
O30_4 Zr13_8 1_555 1_555
O31_10 C65_13 1_555 1_555
N8_10 H51_10 1_555 1_555
H52_10 N8_10 1_555 1_555
C64_10 C66_10 1_555 1_555
C65_13 C82_10 1_555 1_555
C66_10 H53_10 1_555 1_555
C68_10 C72_10 1_555 1_555
C69_10 H54_10 1_555 1_555
C70_10 O28_13 1_555 1_555
C72_10 C71_10 1_555 1_555
C73_10 N8_10 1_555 1_555
C74_10 C69_10 1_555 1_555
H56_10 C74_10 1_555 1_555
C76_10 C69_10 1_555 1_555
C77_10 C66_10 1_555 1_555
H58_10 C77_10 1_555 1_555
C78_10 C73_10 1_555 1_555
C79_10 C68_10 1_555 1_555
H59_10 C79_10 1_555 1_555
C81_10 C64_10 1_555 1_555
H60_10 C81_10 1_555 1_555
C82_10 C74_10 1_555 1_555
C83_10 C76_10 1_555 1_555
H61_10 C83_10 1_555 1_555
C84_10 C82_10 1_555 1_555
H62_10 C84_10 1_555 1_555
Zr9_7 O31_10 1_555 1_555
Zr14_5 O11_6 1_555 1_555
O38_5 Zr1_6 1_555 1_555
O43_5 Zr9_5 1_555 1_555
Zr9_5 O2_5 1_555 1_555
Zr13_8 O10_5 1_555 1_555
Zr4_6 O10_5 1_555 1_555
O12_5 C27_8 1_555 1_555
C6_8 C18_8 1_555 1_555
C14_8 C21_8 1_555 1_555
C32_8 C40_8 1_555 1_555
C33_8 C41_8 1_555 1_555
C34_9 C39_8 1_555 1_555
C35_8 C42_8 1_555 1_555
O30_4 C70_10 1_555 1_555
C64_10 C70_10 1_555 1_555
C68_10 C77_10 1_555 1_555
C72_10 C73_10 1_555 1_555
C75_10 C78_10 1_555 1_555
C76_10 C78_10 1_555 1_555
C79_10 C81_10 1_555 1_555
C83_10 C84_10 1_555 1_555
O3_14 Zr7_5 1_555 1_555
O6_14 C10_14 1_555 1_555
O14_14 Zr16_10 1_555 1_555
H3_14 O14_14 1_555 1_555
H4_14 O14_14 1_555 1_555
N1_14 C25_14 1_555 1_555
H6_14 N2_14 1_555 1_555
C1_14 C3_14 1_555 1_555
C3_14 H13_14 1_555 1_555
C4_14 C11_14 1_555 1_555
C7_14 C12_14 1_555 1_555
C10_14 O3_14 1_555 1_555
C11_14 H16_14 1_555 1_555
C12_14 C11_14 1_555 1_555
C13_14 N2_14 1_555 1_555
C19_14 C3_14 1_555 1_555
H19_14 C19_14 1_555 1_555
C22_14 C7_14 1_555 1_555
H21_14 C22_14 1_555 1_555
C25_14 C4_14 1_555 1_555
C28_14 C1_14 1_555 1_555
H22_14 C28_14 1_555 1_555
O28_14 Zr7_5 1_555 1_555
H52_11 N8_11 1_555 1_555
C64_11 C66_11 1_555 1_555
C66_11 H53_11 1_555 1_555
C68_11 C72_11 1_555 1_555
C70_11 O28_14 1_555 1_555
C72_11 C71_11 1_555 1_555
C73_11 N8_11 1_555 1_555
C77_11 C66_11 1_555 1_555
H58_11 C77_11 1_555 1_555
C79_11 C68_11 1_555 1_555
H59_11 C79_11 1_555 1_555
C81_11 C64_11 1_555 1_555
H60_11 C81_11 1_555 1_555
O32_14 Zr16_10 1_555 1_555
H63_14 O32_14 1_555 1_555
H64_14 O32_14 1_555 1_555
O35_14 Zr7_5 1_555 1_555
O39_10 Zr7_5 1_555 1_555
O44_14 Zr16_10 1_555 1_555
O47_14 Zr16_10 1_555 1_555
O6_14 Zr12_3 1_555 1_555
C1_14 C10_14 1_555 1_555
C7_14 C19_14 1_555 1_555
C12_14 C13_14 1_555 1_555
C22_14 C28_14 1_555 1_555
O40_7 C70_11 1_555 1_555
C64_11 C70_11 1_555 1_555
C68_11 C77_11 1_555 1_555
C72_11 C73_11 1_555 1_555
C79_11 C81_11 1_555 1_555
Zr12_3 O35_14 1_555 1_555
Zr12_3 O44_14 1_555 1_555
O5_10 C2_14 1_555 1_555
O8_10 C2_14 1_555 1_555
C2_14 C29_14 1_555 1_555
C9_14 H15_14 1_555 1_555
C15_14 C9_14 1_555 1_555
H17_14 C15_14 1_555 1_555
H18_14 C16_14 1_555 1_555
C17_14 C9_14 1_555 1_555
C29_14 C15_14 1_555 1_555
C36_14 C17_14 1_555 1_555
H27_14 C36_14 1_555 1_555
C38_14 C29_14 1_555 1_555
H28_14 C38_14 1_555 1_555
Zr9_6 O8_10 1_555 1_555
Zr13_7 O18_10 1_555 1_555
O17_10 Zr9_6 1_555 1_555
O18_10 Zr9_6 1_555 1_555
O19_10 Zr9_6 1_555 1_555
O41_8 C54_18 1_555 1_555
O21_16 Zr9_6 1_555 1_555
O22_10 Zr9_6 1_555 1_555
O23_12 C54_18 1_555 1_555
O24_10 C52_16 1_555 1_555
O25_16 Zr9_6 1_555 1_555
H33_16 O25_16 1_555 1_555
H34_16 O25_16 1_555 1_555
N5_16 H35_16 1_555 1_555
H36_16 N5_16 1_555 1_555
O26_14 Zr13_7 1_555 1_555
H37_14 O26_14 1_555 1_555
H38_14 O26_14 1_555 1_555
O27_16 Zr13_7 1_555 1_555
H39_16 O27_16 1_555 1_555
H40_14 O27_16 1_555 1_555
C43_16 N5_16 1_555 1_555
C44_16 H41_16 1_555 1_555
C45_16 C43_16 1_555 1_555
C46_16 C44_16 1_555 1_555
C47_16 C43_16 1_555 1_555
C48_16 C45_16 1_555 1_555
H42_16 C48_16 1_555 1_555
C49_18 C54_18 1_555 1_555
C50_16 C47_16 1_555 1_555
C51_16 C45_16 1_555 1_555
C52_16 O21_16 1_555 1_555
C53_16 C50_16 1_555 1_555
H43_16 C53_16 1_555 1_555
C55_16 C52_16 1_555 1_555
C56_16 C49_18 1_555 1_555
H44_18 C56_16 1_555 1_555
C57_18 C49_18 1_555 1_555
H45_18 C57_18 1_555 1_555
C58_16 C50_16 1_555 1_555
H46_16 C58_16 1_555 1_555
C59_16 C46_16 1_555 1_555
C60_16 C51_16 1_555 1_555
H47_16 C60_16 1_555 1_555
C61_16 C53_16 1_555 1_555
H48_16 C61_16 1_555 1_555
C62_16 C51_16 1_555 1_555
H49_16 C62_16 1_555 1_555
C63_16 C55_16 1_555 1_555
H50_16 C63_16 1_555 1_555
N6_16 C59_16 1_555 1_555
Zr8_6 O5_10 1_555 1_555
Zr14_6 O23_12 1_555 1_555
Zr16_11 O19_10 1_555 1_555
O40_8 Zr13_7 1_555 1_555
C16_14 C20_14 1_555 1_555
C17_14 C20_14 1_555 1_555
C36_14 C38_14 1_555 1_555
Zr13_7 O22_10 1_555 1_555
O17_10 Zr8_6 1_555 1_555
O18_10 Zr8_6 1_555 1_555
O22_10 Zr16_11 1_555 1_555
O24_10 Zr16_11 1_555 1_555
C44_16 C47_16 1_555 1_555
C46_16 C48_16 1_555 1_555
C55_16 C61_16 1_555 1_555
C56_16 C62_16 1_555 1_555
C57_18 C60_16 1_555 1_555
C58_16 C63_16 1_555 1_555
O39_9 C65_14 1_555 1_555
O31_11 C65_14 1_555 1_555
C65_14 C82_11 1_555 1_555
C69_11 H54_11 1_555 1_555
C74_11 C69_11 1_555 1_555
H56_11 C74_11 1_555 1_555
C76_11 C69_11 1_555 1_555
C82_11 C74_11 1_555 1_555
C83_11 C76_11 1_555 1_555
H61_11 C83_11 1_555 1_555
C84_11 C82_11 1_555 1_555
H62_11 C84_11 1_555 1_555
Zr9_8 O31_11 1_555 1_555
C75_11 C78_11 1_555 1_555
C76_11 C78_11 1_555 1_555
C83_11 C84_11 1_555 1_555
O39_10 C65_15 1_555 1_555
O31_12 C65_15 1_555 1_555
C65_15 C82_12 1_555 1_555
C69_12 H54_12 1_555 1_555
C74_12 C69_12 1_555 1_555
H56_12 C74_12 1_555 1_555
C76_12 C69_12 1_555 1_555
C82_12 C74_12 1_555 1_555
C83_12 C76_12 1_555 1_555
H61_12 C83_12 1_555 1_555
C84_12 C82_12 1_555 1_555
H62_12 C84_12 1_555 1_555
Zr10_4 O31_12 1_555 1_555
C75_12 C78_12 1_555 1_555
C76_12 C78_12 1_555 1_555
C83_12 C84_12 1_555 1_555
O14_15 Zr16_11 1_555 1_555
H3_15 O14_15 1_555 1_555
H4_15 O14_15 1_555 1_555
O28_15 Zr8_6 1_555 1_555
H52_12 N8_12 1_555 1_555
C64_12 C66_12 1_555 1_555
C66_12 H53_12 1_555 1_555
C68_12 C72_12 1_555 1_555
C70_12 O28_15 1_555 1_555
C72_12 C71_12 1_555 1_555
C73_12 N8_12 1_555 1_555
C77_12 C66_12 1_555 1_555
H58_12 C77_12 1_555 1_555
C79_12 C68_12 1_555 1_555
H59_12 C79_12 1_555 1_555
C81_12 C64_12 1_555 1_555
H60_12 C81_12 1_555 1_555
O40_8 C70_12 1_555 1_555
C64_12 C70_12 1_555 1_555
C68_12 C77_12 1_555 1_555
C72_12 C73_12 1_555 1_555
C79_12 C81_12 1_555 1_555
O38_5 C2_15 1_555 1_555
O6_15 C10_15 1_555 1_555
O43_5 C2_15 1_555 1_555
N1_15 C25_15 1_555 1_555
N2_15 H5_15 1_555 1_555
H6_15 N2_15 1_555 1_555
C1_15 C3_15 1_555 1_555
C2_15 C29_15 1_555 1_555
C3_15 H13_15 1_555 1_555
C4_15 C11_15 1_555 1_555
C7_15 C12_15 1_555 1_555
C9_15 H15_15 1_555 1_555
C10_15 O3_15 1_555 1_555
C11_15 H16_15 1_555 1_555
C12_15 C11_15 1_555 1_555
C13_15 N2_15 1_555 1_555
C15_15 C9_15 1_555 1_555
H17_15 C15_15 1_555 1_555
C16_15 C4_15 1_555 1_555
H18_15 C16_15 1_555 1_555
C17_15 C9_15 1_555 1_555
C19_15 C3_15 1_555 1_555
H19_15 C19_15 1_555 1_555
C20_15 C13_15 1_555 1_555
C22_15 C7_15 1_555 1_555
H21_15 C22_15 1_555 1_555
C25_15 C4_15 1_555 1_555
C28_15 C1_15 1_555 1_555
H22_15 C28_15 1_555 1_555
C29_15 C15_15 1_555 1_555
C36_15 C17_15 1_555 1_555
H27_15 C36_15 1_555 1_555
C38_15 C29_15 1_555 1_555
H28_15 C38_15 1_555 1_555
H63_15 O32_15 1_555 1_555
H64_15 O32_15 1_555 1_555
O6_15 Zr13_6 1_555 1_555
C1_15 C10_15 1_555 1_555
C7_15 C19_15 1_555 1_555
C12_15 C13_15 1_555 1_555
C16_15 C20_15 1_555 1_555
C17_15 C20_15 1_555 1_555
C22_15 C28_15 1_555 1_555
C36_15 C38_15 1_555 1_555
Zr13_6 O35_15 1_555 1_555
Zr13_6 O44_15 1_555 1_555
O33_9 Zr10_4 1_555 1_555
O35_14 Zr10_4 1_555 1_555
O36_9 Zr10_4 1_555 1_555
O21_17 Zr10_4 1_555 1_555
O44_14 Zr10_4 1_555 1_555
O47_14 C52_17 1_555 1_555
O25_17 Zr10_4 1_555 1_555
H33_17 O25_17 1_555 1_555
H34_17 O25_17 1_555 1_555
O26_15 Zr12_3 1_555 1_555
H37_15 O26_15 1_555 1_555
H38_15 O26_15 1_555 1_555
O27_17 Zr12_3 1_555 1_555
H39_17 O27_17 1_555 1_555
H40_15 O27_17 1_555 1_555
C44_17 H41_17 1_555 1_555
C46_17 C44_17 1_555 1_555
C47_17 C43_17 1_555 1_555
C50_17 C47_17 1_555 1_555
C52_17 O21_17 1_555 1_555
C53_17 C50_17 1_555 1_555
H43_17 C53_17 1_555 1_555
C55_17 C52_17 1_555 1_555
C58_17 C50_17 1_555 1_555
H46_17 C58_17 1_555 1_555
C59_17 C46_17 1_555 1_555
C61_17 C53_17 1_555 1_555
H48_17 C61_17 1_555 1_555
C63_17 C55_17 1_555 1_555
H50_17 C63_17 1_555 1_555
N6_17 C59_17 1_555 1_555
C44_17 C47_17 1_555 1_555
C55_17 C61_17 1_555 1_555
C58_17 C63_17 1_555 1_555
Zr1_7 O33_10 1_555 1_555
Zr9_7 O33_10 1_555 1_555
Zr4_7 O36_10 1_555 1_555
O35_15 Zr1_7 1_555 1_555
O36_10 Zr9_7 1_555 1_555
O9_9 Zr9_7 1_555 1_555
O44_15 Zr9_7 1_555 1_555
O47_15 Zr4_7 1_555 1_555
O13_9 Zr9_7 1_555 1_555
H1_9 O13_9 1_555 1_555
H2_9 O13_9 1_555 1_555
O32_15 Zr4_7 1_555 1_555
O15_8 Zr13_6 1_555 1_555
H9_8 O15_8 1_555 1_555
H10_8 O15_8 1_555 1_555
O16_9 Zr13_6 1_555 1_555
H11_9 O16_9 1_555 1_555
H12_8 O16_9 1_555 1_555
C6_9 H14_9 1_555 1_555
C14_9 C6_9 1_555 1_555
C18_9 C5_9 1_555 1_555
C24_9 C18_9 1_555 1_555
C27_9 O9_9 1_555 1_555
C30_9 C24_9 1_555 1_555
H23_9 C30_9 1_555 1_555
C32_9 C27_9 1_555 1_555
C35_9 C24_9 1_555 1_555
H26_9 C35_9 1_555 1_555
C37_9 C14_9 1_555 1_555
C40_9 C30_9 1_555 1_555
H30_9 C40_9 1_555 1_555
C42_9 C32_9 1_555 1_555
H32_9 C42_9 1_555 1_555
N4_9 C37_9 1_555 1_555
O3_15 Zr1_7 1_555 1_555
O29_5 Zr1_7 1_555 1_555
Zr9_7 O35_15 1_555 1_555
Zr4_7 O44_15 1_555 1_555
O47_15 C27_9 1_555 1_555
C6_9 C18_9 1_555 1_555
C32_9 C40_9 1_555 1_555
C35_9 C42_9 1_555 1_555
O34_5 Zr9_8 1_555 1_555
O35_13 Zr9_8 1_555 1_555
O37_5 Zr9_8 1_555 1_555
O21_18 Zr9_8 1_555 1_555
O44_13 Zr9_8 1_555 1_555
O47_13 C52_18 1_555 1_555
O25_18 Zr9_8 1_555 1_555
H33_18 O25_18 1_555 1_555
H34_18 O25_18 1_555 1_555
O26_16 Zr13_5 1_555 1_555
H37_16 O26_16 1_555 1_555
H38_16 O26_16 1_555 1_555
O27_18 Zr13_5 1_555 1_555
H39_18 O27_18 1_555 1_555
H40_16 O27_18 1_555 1_555
C44_18 H41_18 1_555 1_555
C46_18 C44_18 1_555 1_555
C47_18 C43_18 1_555 1_555
C50_18 C47_18 1_555 1_555
C52_18 O21_18 1_555 1_555
C53_18 C50_18 1_555 1_555
H43_18 C53_18 1_555 1_555
C55_18 C52_18 1_555 1_555
C58_18 C50_18 1_555 1_555
H46_18 C58_18 1_555 1_555
C59_18 C46_18 1_555 1_555
C61_18 C53_18 1_555 1_555
H48_18 C61_18 1_555 1_555
C63_18 C55_18 1_555 1_555
H50_18 C63_18 1_555 1_555
N6_18 C59_18 1_555 1_555
Zr8_7 O39_9 1_555 1_555
Zr16_12 O37_5 1_555 1_555
O34_5 Zr8_7 1_555 1_555
O35_13 Zr8_7 1_555 1_555
O44_13 Zr16_12 1_555 1_555
O47_13 Zr16_12 1_555 1_555
C44_18 C47_18 1_555 1_555
C55_18 C61_18 1_555 1_555
C58_18 C63_18 1_555 1_555
O32_13 Zr16_12 1_555 1_555
O3_13 Zr8_7 1_555 1_555
Zr11_7 O33_8 1_555 1_555
O36_8 Zr11_7 1_555 1_555
O44_12 Zr11_7 1_555 1_555
O13_10 Zr11_7 1_555 1_555
H1_10 O13_10 1_555 1_555
H2_10 O13_10 1_555 1_555
O15_9 Zr14_6 1_555 1_555
H9_9 O15_9 1_555 1_555
H10_9 O15_9 1_555 1_555
O16_10 Zr14_6 1_555 1_555
H11_10 O16_10 1_555 1_555
H12_9 O16_10 1_555 1_555
O33_7 Zr11_9 1_555 1_555
O35_11 Zr11_9 1_555 1_555
O36_7 Zr11_9 1_555 1_555
O44_11 Zr11_9 1_555 1_555
O47_11 C52_19 1_555 1_555
O25_19 Zr11_9 1_555 1_555
H33_19 O25_19 1_555 1_555
H34_19 O25_19 1_555 1_555
O26_17 Zr14_5 1_555 1_555
H37_17 O26_17 1_555 1_555
H38_17 O26_17 1_555 1_555
O27_19 Zr14_5 1_555 1_555
H39_19 O27_19 1_555 1_555
H40_17 O27_19 1_555 1_555
Zr11_7 O35_12 1_555 1_555
O47_12 C27_10 1_555 1_555
O34_4 Zr11_8 1_555 1_555
O35_10 Zr11_8 1_555 1_555
O37_4 Zr11_8 1_555 1_555
O44_10 Zr11_8 1_555 1_555
O47_10 C52_20 1_555 1_555
O25_20 Zr11_8 1_555 1_555
H33_20 O25_20 1_555 1_555
H34_20 O25_20 1_555 1_555
O26_18 Zr15_3 1_555 1_555
H37_18 O26_18 1_555 1_555
H38_18 O26_18 1_555 1_555
O27_20 Zr15_3 1_555 1_555
H39_20 O27_20 1_555 1_555
H40_18 O27_20 1_555 1_555
H9_10 O15_10 1_555 1_555
H10_10 O15_10 1_555 1_555
H37_19 O26_19 1_555 1_555
H38_19 O26_19 1_555 1_555
N7_10 C80_10 1_555 1_555
N8_13 H51_13 1_555 1_555
H52_13 N8_13 1_555 1_555
C64_13 C66_13 1_555 1_555
C66_13 H53_13 1_555 1_555
C67_10 C71_13 1_555 1_555
C68_13 C72_13 1_555 1_555
C69_13 H54_13 1_555 1_555
C71_13 H55_10 1_555 1_555
C72_13 C71_13 1_555 1_555
C73_13 N8_13 1_555 1_555
C74_13 C69_13 1_555 1_555
H56_13 C74_13 1_555 1_555
C75_13 C67_10 1_555 1_555
H57_10 C75_13 1_555 1_555
C76_13 C69_13 1_555 1_555
C77_13 C66_13 1_555 1_555
H58_13 C77_13 1_555 1_555
C78_13 C73_13 1_555 1_555
C79_13 C68_13 1_555 1_555
H59_13 C79_13 1_555 1_555
C80_10 C67_10 1_555 1_555
C81_13 C64_13 1_555 1_555
H60_13 C81_13 1_555 1_555
C82_13 C74_13 1_555 1_555
C83_13 C76_13 1_555 1_555
H61_13 C83_13 1_555 1_555
C84_13 C82_13 1_555 1_555
H62_13 C84_13 1_555 1_555
O30_5 C70_13 1_555 1_555
C64_13 C70_13 1_555 1_555
C68_13 C77_13 1_555 1_555
C72_13 C73_13 1_555 1_555
C75_13 C78_13 1_555 1_555
C76_13 C78_13 1_555 1_555
C79_13 C81_13 1_555 1_555
C83_13 C84_13 1_555 1_555
H37_20 O26_20 1_555 1_555
H38_20 O26_20 1_555 1_555
N7_11 C80_11 1_555 1_555
N8_14 H51_14 1_555 1_555
H52_14 N8_14 1_555 1_555
C64_14 C66_14 1_555 1_555
C66_14 H53_14 1_555 1_555
C67_11 C71_14 1_555 1_555
C68_14 C72_14 1_555 1_555
C69_14 H54_14 1_555 1_555
C71_14 H55_11 1_555 1_555
C72_14 C71_14 1_555 1_555
C73_14 N8_14 1_555 1_555
C74_14 C69_14 1_555 1_555
H56_14 C74_14 1_555 1_555
C75_14 C67_11 1_555 1_555
H57_11 C75_14 1_555 1_555
C76_14 C69_14 1_555 1_555
C77_14 C66_14 1_555 1_555
H58_14 C77_14 1_555 1_555
C78_14 C73_14 1_555 1_555
C79_14 C68_14 1_555 1_555
H59_14 C79_14 1_555 1_555
C80_11 C67_11 1_555 1_555
C81_14 C64_14 1_555 1_555
H60_14 C81_14 1_555 1_555
C82_14 C74_14 1_555 1_555
C83_14 C76_14 1_555 1_555
H61_14 C83_14 1_555 1_555
C84_14 C82_14 1_555 1_555
H62_14 C84_14 1_555 1_555
O40_9 C70_14 1_555 1_555
C64_14 C70_14 1_555 1_555
C68_14 C77_14 1_555 1_555
C72_14 C73_14 1_555 1_555
C75_14 C78_14 1_555 1_555
C76_14 C78_14 1_555 1_555
C79_14 C81_14 1_555 1_555
C83_14 C84_14 1_555 1_555
N7_12 C80_12 1_555 1_555
N8_15 H51_15 1_555 1_555
H52_15 N8_15 1_555 1_555
C64_15 C66_15 1_555 1_555
C66_15 H53_15 1_555 1_555
C67_12 C71_15 1_555 1_555
C68_15 C72_15 1_555 1_555
C69_15 H54_15 1_555 1_555
C71_15 H55_12 1_555 1_555
C72_15 C71_15 1_555 1_555
C73_15 N8_15 1_555 1_555
C74_15 C69_15 1_555 1_555
H56_15 C74_15 1_555 1_555
C75_15 C67_12 1_555 1_555
H57_12 C75_15 1_555 1_555
C76_15 C69_15 1_555 1_555
C77_15 C66_15 1_555 1_555
H58_15 C77_15 1_555 1_555
C78_15 C73_15 1_555 1_555
C79_15 C68_15 1_555 1_555
H59_15 C79_15 1_555 1_555
C80_12 C67_12 1_555 1_555
C81_15 C64_15 1_555 1_555
H60_15 C81_15 1_555 1_555
C82_15 C74_15 1_555 1_555
C83_15 C76_15 1_555 1_555
H61_15 C83_15 1_555 1_555
C84_15 C82_15 1_555 1_555
H62_15 C84_15 1_555 1_555
O40_10 C70_15 1_555 1_555
C64_15 C70_15 1_555 1_555
C68_15 C77_15 1_555 1_555
C72_15 C73_15 1_555 1_555
C75_15 C78_15 1_555 1_555
C76_15 C78_15 1_555 1_555
C79_15 C81_15 1_555 1_555
C83_15 C84_15 1_555 1_555
Zr1_8 O1_6 1_555 1_555
Zr2_4 O1_6 1_555 1_555
Zr3_4 O2_6 1_555 1_555
Zr4_8 O4_6 1_555 1_555
O1_6 Zr15_4 1_555 1_555
O2_6 Zr1_8 1_555 1_555
O3_16 Zr1_8 1_555 1_555
O4_6 Zr2_4 1_555 1_555
O5_11 C2_16 1_555 1_555
O6_16 C10_16 1_555 1_555
O8_11 C2_16 1_555 1_555
O9_10 Zr2_4 1_555 1_555
O10_6 Zr2_4 1_555 1_555
O12_6 Zr4_8 1_555 1_555
O13_11 Zr2_4 1_555 1_555
H1_11 O13_11 1_555 1_555
H2_11 O13_11 1_555 1_555
O14_16 Zr4_8 1_555 1_555
H3_16 O14_16 1_555 1_555
H4_16 O14_16 1_555 1_555
N1_16 C25_16 1_555 1_555
N2_16 H5_16 1_555 1_555
H6_16 N2_16 1_555 1_555
N3_9 H7_9 1_555 1_555
H8_9 N3_9 1_555 1_555
C1_16 C3_16 1_555 1_555
O15_11 Zr3_4 1_555 1_555
H9_11 O15_11 1_555 1_555
H10_11 O15_11 1_555 1_555
O16_11 Zr3_4 1_555 1_555
H11_11 O16_11 1_555 1_555
H12_11 O16_11 1_555 1_555
C2_16 C29_16 1_555 1_555
C3_16 H13_16 1_555 1_555
C4_16 C11_16 1_555 1_555
C5_10 N3_9 1_555 1_555
C6_10 H14_10 1_555 1_555
C7_16 C12_16 1_555 1_555
C8_9 C5_10 1_555 1_555
C9_16 H15_16 1_555 1_555
C10_16 O3_16 1_555 1_555
C11_16 H16_16 1_555 1_555
C12_16 C11_16 1_555 1_555
C13_16 N2_16 1_555 1_555
C14_10 C6_10 1_555 1_555
C15_16 C9_16 1_555 1_555
H17_16 C15_16 1_555 1_555
C16_16 C4_16 1_555 1_555
H18_16 C16_16 1_555 1_555
C17_16 C9_16 1_555 1_555
C18_10 C5_10 1_555 1_555
C19_16 C3_16 1_555 1_555
H19_16 C19_16 1_555 1_555
C20_16 C13_16 1_555 1_555
C21_9 C8_9 1_555 1_555
H20_9 C21_9 1_555 1_555
C22_16 C7_16 1_555 1_555
H21_16 C22_16 1_555 1_555
C24_10 C18_10 1_555 1_555
C25_16 C4_16 1_555 1_555
C26_9 C8_9 1_555 1_555
C27_11 O9_10 1_555 1_555
C28_16 C1_16 1_555 1_555
H22_16 C28_16 1_555 1_555
C29_16 C15_16 1_555 1_555
C30_10 C24_10 1_555 1_555
H23_10 C30_10 1_555 1_555
C32_10 C27_11 1_555 1_555
C35_10 C24_10 1_555 1_555
H26_10 C35_10 1_555 1_555
C36_16 C17_16 1_555 1_555
H27_16 C36_16 1_555 1_555
C37_10 C14_10 1_555 1_555
C38_16 C29_16 1_555 1_555
H28_16 C38_16 1_555 1_555
C39_9 C26_9 1_555 1_555
H29_9 C39_9 1_555 1_555
C40_10 C30_10 1_555 1_555
H30_10 C40_10 1_555 1_555
C41_9 C26_9 1_555 1_555
H31_9 C41_9 1_555 1_555
C42_10 C32_10 1_555 1_555
H32_10 C42_10 1_555 1_555
N4_10 C37_10 1_555 1_555
Zr5_7 O8_11 1_555 1_555
Zr6_7 O18_11 1_555 1_555
O17_11 Zr5_7 1_555 1_555
O18_11 Zr5_7 1_555 1_555
O19_11 Zr5_7 1_555 1_555
O21_19 Zr5_7 1_555 1_555
O22_11 Zr5_7 1_555 1_555
O24_11 C52_21 1_555 1_555
O25_21 Zr5_7 1_555 1_555
H33_21 O25_21 1_555 1_555
H34_21 O25_21 1_555 1_555
N5_17 H35_17 1_555 1_555
H36_17 N5_17 1_555 1_555
O26_21 Zr6_7 1_555 1_555
H37_21 O26_21 1_555 1_555
H38_21 O26_21 1_555 1_555
O27_21 Zr6_7 1_555 1_555
H39_21 O27_21 1_555 1_555
H40_21 O27_21 1_555 1_555
C43_19 N5_17 1_555 1_555
C44_19 H41_19 1_555 1_555
C45_17 C43_19 1_555 1_555
C46_19 C44_19 1_555 1_555
C47_19 C43_19 1_555 1_555
C48_17 C45_17 1_555 1_555
H42_17 C48_17 1_555 1_555
C50_19 C47_19 1_555 1_555
C51_17 C45_17 1_555 1_555
C52_21 O21_19 1_555 1_555
C53_19 C50_19 1_555 1_555
H43_19 C53_19 1_555 1_555
C55_19 C52_21 1_555 1_555
C58_19 C50_19 1_555 1_555
H46_19 C58_19 1_555 1_555
C59_19 C46_19 1_555 1_555
C60_17 C51_17 1_555 1_555
H47_17 C60_17 1_555 1_555
C61_19 C53_19 1_555 1_555
H48_20 C61_19 1_555 1_555
C63_19 C55_19 1_555 1_555
H50_19 C63_19 1_555 1_555
N6_19 C59_19 1_555 1_555
O28_16 Zr1_8 1_555 1_555
O29_6 C65_16 1_555 1_555
O30_6 Zr3_4 1_555 1_555
O31_16 C65_16 1_555 1_555
N7_13 C80_13 1_555 1_555
N8_16 H51_16 1_555 1_555
H52_16 N8_16 1_555 1_555
C64_16 C66_16 1_555 1_555
C65_16 C82_16 1_555 1_555
C66_16 H53_16 1_555 1_555
C67_13 C71_16 1_555 1_555
C68_16 C72_16 1_555 1_555
C69_16 H54_16 1_555 1_555
C70_16 O28_16 1_555 1_555
C71_16 H55_13 1_555 1_555
C72_16 C71_16 1_555 1_555
C73_16 N8_16 1_555 1_555
C74_16 C69_16 1_555 1_555
H56_16 C74_16 1_555 1_555
C75_16 C67_13 1_555 1_555
H57_13 C75_16 1_555 1_555
C76_16 C69_16 1_555 1_555
C77_16 C66_16 1_555 1_555
H58_16 C77_16 1_555 1_555
C78_16 C73_16 1_555 1_555
C79_16 C68_16 1_555 1_555
H59_16 C79_16 1_555 1_555
C80_13 C67_13 1_555 1_555
C81_16 C64_16 1_555 1_555
H60_16 C81_16 1_555 1_555
C82_16 C74_16 1_555 1_555
C83_16 C76_16 1_555 1_555
H61_16 C83_16 1_555 1_555
C84_16 C82_16 1_555 1_555
H62_16 C84_16 1_555 1_555
O32_16 Zr4_8 1_555 1_555
H63_16 O32_16 1_555 1_555
H64_16 O32_16 1_555 1_555
Zr7_6 O5_11 1_555 1_555
Zr8_8 O29_6 1_555 1_555
Zr11_10 O31_16 1_555 1_555
Zr14_7 O17_11 1_555 1_555
Zr15_4 O4_6 1_555 1_555
Zr16_13 O19_11 1_555 1_555
O33_11 Zr6_7 1_555 1_555
O34_6 Zr1_8 1_555 1_555
O35_16 Zr1_8 1_555 1_555
O36_11 Zr6_7 1_555 1_555
O37_6 Zr3_4 1_555 1_555
O38_6 Zr1_8 1_555 1_555
O39_11 Zr1_8 1_555 1_555
O40_11 Zr6_7 1_555 1_555
O41_9 Zr5_7 1_555 1_555
O42_5 Zr2_4 1_555 1_555
O43_6 Zr2_4 1_555 1_555
O44_16 Zr4_8 1_555 1_555
O45_9 Zr6_7 1_555 1_555
O46_5 Zr3_4 1_555 1_555
O47_16 Zr4_8 1_555 1_555
Zr2_4 O2_6 1_555 1_555
Zr3_4 O10_6 1_555 1_555
Zr3_4 O34_6 1_555 1_555
Zr4_8 O10_6 1_555 1_555
Zr4_8 O37_6 1_555 1_555
O6_16 Zr15_4 1_555 1_555
O12_6 C27_11 1_555 1_555
C1_16 C10_16 1_555 1_555
C6_10 C18_10 1_555 1_555
C7_16 C19_16 1_555 1_555
C12_16 C13_16 1_555 1_555
C14_10 C21_9 1_555 1_555
C16_16 C20_16 1_555 1_555
C17_16 C20_16 1_555 1_555
C22_16 C28_16 1_555 1_555
C32_10 C40_10 1_555 1_555
C33_9 C41_9 1_555 1_555
C35_10 C42_10 1_555 1_555
C36_16 C38_16 1_555 1_555
Zr6_7 O22_11 1_555 1_555
O17_11 Zr7_6 1_555 1_555
O18_11 Zr7_6 1_555 1_555
O19_11 Zr14_7 1_555 1_555
O22_11 Zr16_13 1_555 1_555
O24_11 Zr16_13 1_555 1_555
C44_19 C47_19 1_555 1_555
C46_19 C48_17 1_555 1_555
C55_19 C61_19 1_555 1_555
C58_19 C63_19 1_555 1_555
O30_6 C70_16 1_555 1_555
C64_16 C70_16 1_555 1_555
C68_16 C77_16 1_555 1_555
C72_16 C73_16 1_555 1_555
C75_16 C78_16 1_555 1_555
C76_16 C78_16 1_555 1_555
C79_16 C81_16 1_555 1_555
C83_16 C84_16 1_555 1_555
Zr7_6 O33_11 1_555 1_555
Zr15_4 O35_16 1_555 1_555
Zr15_4 O44_16 1_555 1_555
Zr16_13 O36_11 1_555 1_555
O3_17 Zr7_6 1_555 1_555
O5_12 C2_17 1_555 1_555
O6_17 C10_17 1_555 1_555
O8_12 C2_17 1_555 1_555
O14_17 Zr16_13 1_555 1_555
H3_17 O14_17 1_555 1_555
H4_17 O14_17 1_555 1_555
N1_17 C25_17 1_555 1_555
N2_17 H5_17 1_555 1_555
H6_17 N2_17 1_555 1_555
C1_17 C3_17 1_555 1_555
C2_17 C29_17 1_555 1_555
C3_17 H13_17 1_555 1_555
C4_17 C11_17 1_555 1_555
C7_17 C12_17 1_555 1_555
C9_17 H15_17 1_555 1_555
C10_17 O3_17 1_555 1_555
C11_17 H16_17 1_555 1_555
C12_17 C11_17 1_555 1_555
C13_17 N2_17 1_555 1_555
C15_17 C9_17 1_555 1_555
H17_17 C15_17 1_555 1_555
C16_17 C4_17 1_555 1_555
H18_17 C16_17 1_555 1_555
C17_17 C9_17 1_555 1_555
C19_17 C3_17 1_555 1_555
H19_17 C19_17 1_555 1_555
C20_17 C13_17 1_555 1_555
C22_17 C7_17 1_555 1_555
H21_17 C22_17 1_555 1_555
C25_17 C4_17 1_555 1_555
C28_17 C1_17 1_555 1_555
H22_17 C28_17 1_555 1_555
C29_17 C15_17 1_555 1_555
C36_17 C17_17 1_555 1_555
H27_17 C36_17 1_555 1_555
C38_17 C29_17 1_555 1_555
H28_17 C38_17 1_555 1_555
Zr5_8 O8_12 1_555 1_555
Zr6_8 O18_12 1_555 1_555
O17_12 Zr5_8 1_555 1_555
O18_12 Zr5_8 1_555 1_555
O19_12 Zr5_8 1_555 1_555
O21_20 Zr5_8 1_555 1_555
O22_12 Zr5_8 1_555 1_555
O24_12 C52_22 1_555 1_555
O25_22 Zr5_8 1_555 1_555
H33_22 O25_22 1_555 1_555
H34_22 O25_22 1_555 1_555
N5_18 H35_18 1_555 1_555
H36_18 N5_18 1_555 1_555
O26_22 Zr6_8 1_555 1_555
H37_22 O26_22 1_555 1_555
H38_22 O26_22 1_555 1_555
O27_22 Zr6_8 1_555 1_555
H39_22 O27_22 1_555 1_555
H40_22 O27_22 1_555 1_555
C43_20 N5_18 1_555 1_555
C44_20 H41_20 1_555 1_555
C45_18 C43_20 1_555 1_555
C46_20 C44_20 1_555 1_555
C47_20 C43_20 1_555 1_555
C48_18 C45_18 1_555 1_555
H42_18 C48_18 1_555 1_555
C50_20 C47_20 1_555 1_555
C51_18 C45_18 1_555 1_555
C52_22 O21_20 1_555 1_555
C53_20 C50_20 1_555 1_555
H43_20 C53_20 1_555 1_555
C55_20 C52_22 1_555 1_555
C58_20 C50_20 1_555 1_555
H46_20 C58_20 1_555 1_555
C59_20 C46_20 1_555 1_555
C60_18 C51_18 1_555 1_555
H47_18 C60_18 1_555 1_555
C61_20 C53_20 1_555 1_555
H48_21 C61_20 1_555 1_555
C63_20 C55_20 1_555 1_555
H50_20 C63_20 1_555 1_555
N6_20 C59_20 1_555 1_555
O28_17 Zr7_6 1_555 1_555
O39_11 C65_17 1_555 1_555
O31_17 C65_17 1_555 1_555
N7_14 C80_14 1_555 1_555
N8_17 H51_17 1_555 1_555
H52_17 N8_17 1_555 1_555
C64_17 C66_17 1_555 1_555
C65_17 C82_17 1_555 1_555
C66_17 H53_17 1_555 1_555
C67_14 C71_17 1_555 1_555
C68_17 C72_17 1_555 1_555
C69_17 H54_17 1_555 1_555
C70_17 O28_17 1_555 1_555
C71_17 H55_14 1_555 1_555
C72_17 C71_17 1_555 1_555
C73_17 N8_17 1_555 1_555
C74_17 C69_17 1_555 1_555
H56_17 C74_17 1_555 1_555
C75_17 C67_14 1_555 1_555
H57_14 C75_17 1_555 1_555
C76_17 C69_17 1_555 1_555
C77_17 C66_17 1_555 1_555
H58_17 C77_17 1_555 1_555
C78_17 C73_17 1_555 1_555
C79_17 C68_17 1_555 1_555
H59_17 C79_17 1_555 1_555
C80_14 C67_14 1_555 1_555
C81_17 C64_17 1_555 1_555
H60_17 C81_17 1_555 1_555
C82_17 C74_17 1_555 1_555
C83_17 C76_17 1_555 1_555
H61_17 C83_17 1_555 1_555
C84_17 C82_17 1_555 1_555
H62_17 C84_17 1_555 1_555
O32_17 Zr16_13 1_555 1_555
H63_17 O32_17 1_555 1_555
H64_17 O32_17 1_555 1_555
Zr8_8 O5_12 1_555 1_555
Zr11_11 O31_17 1_555 1_555
Zr14_8 O17_12 1_555 1_555
Zr16_14 O19_12 1_555 1_555
O33_12 Zr6_8 1_555 1_555
O35_17 Zr7_6 1_555 1_555
O36_12 Zr6_8 1_555 1_555
O39_12 Zr7_6 1_555 1_555
O40_12 Zr6_8 1_555 1_555
O41_10 Zr5_8 1_555 1_555
O44_17 Zr16_13 1_555 1_555
O45_10 Zr6_8 1_555 1_555
O47_17 Zr16_13 1_555 1_555
O6_17 Zr14_7 1_555 1_555
C1_17 C10_17 1_555 1_555
C7_17 C19_17 1_555 1_555
C12_17 C13_17 1_555 1_555
C16_17 C20_17 1_555 1_555
C17_17 C20_17 1_555 1_555
C22_17 C28_17 1_555 1_555
C36_17 C38_17 1_555 1_555
Zr6_8 O22_12 1_555 1_555
O17_12 Zr8_8 1_555 1_555
O18_12 Zr8_8 1_555 1_555
O19_12 Zr14_8 1_555 1_555
O22_12 Zr16_14 1_555 1_555
O24_12 Zr16_14 1_555 1_555
C44_20 C47_20 1_555 1_555
C46_20 C48_18 1_555 1_555
C55_20 C61_20 1_555 1_555
C58_20 C63_20 1_555 1_555
O40_11 C70_17 1_555 1_555
C64_17 C70_17 1_555 1_555
C68_17 C77_17 1_555 1_555
C72_17 C73_17 1_555 1_555
C75_17 C78_17 1_555 1_555
C76_17 C78_17 1_555 1_555
C79_17 C81_17 1_555 1_555
C83_17 C84_17 1_555 1_555
Zr8_8 O33_12 1_555 1_555
Zr14_7 O35_17 1_555 1_555
Zr14_7 O44_17 1_555 1_555
Zr16_14 O36_12 1_555 1_555
O3_18 Zr8_8 1_555 1_555
O38_6 C2_18 1_555 1_555
O6_18 C10_18 1_555 1_555
O43_6 C2_18 1_555 1_555
O14_18 Zr16_14 1_555 1_555
H3_18 O14_18 1_555 1_555
H4_18 O14_18 1_555 1_555
N1_18 C25_18 1_555 1_555
N2_18 H5_18 1_555 1_555
H6_18 N2_18 1_555 1_555
C1_18 C3_18 1_555 1_555
C2_18 C29_18 1_555 1_555
C3_18 H13_18 1_555 1_555
C4_18 C11_18 1_555 1_555
C7_18 C12_18 1_555 1_555
C9_18 H15_18 1_555 1_555
C10_18 O3_18 1_555 1_555
C11_18 H16_18 1_555 1_555
C12_18 C11_18 1_555 1_555
C13_18 N2_18 1_555 1_555
C15_18 C9_18 1_555 1_555
H17_18 C15_18 1_555 1_555
C16_18 C4_18 1_555 1_555
H18_18 C16_18 1_555 1_555
C17_18 C9_18 1_555 1_555
C19_18 C3_18 1_555 1_555
H19_18 C19_18 1_555 1_555
C20_18 C13_18 1_555 1_555
C22_18 C7_18 1_555 1_555
H21_18 C22_18 1_555 1_555
C25_18 C4_18 1_555 1_555
C28_18 C1_18 1_555 1_555
H22_18 C28_18 1_555 1_555
C29_18 C15_18 1_555 1_555
C36_18 C17_18 1_555 1_555
H27_18 C36_18 1_555 1_555
C38_18 C29_18 1_555 1_555
H28_18 C38_18 1_555 1_555
O28_18 Zr8_8 1_555 1_555
O39_12 C65_18 1_555 1_555
O31_18 C65_18 1_555 1_555
N7_15 C80_15 1_555 1_555
N8_18 H51_18 1_555 1_555
H52_18 N8_18 1_555 1_555
C64_18 C66_18 1_555 1_555
C65_18 C82_18 1_555 1_555
C66_18 H53_18 1_555 1_555
C67_15 C71_18 1_555 1_555
C68_18 C72_18 1_555 1_555
C69_18 H54_18 1_555 1_555
C70_18 O28_18 1_555 1_555
C71_18 H55_15 1_555 1_555
C72_18 C71_18 1_555 1_555
C73_18 N8_18 1_555 1_555
C74_18 C69_18 1_555 1_555
H56_18 C74_18 1_555 1_555
C75_18 C67_15 1_555 1_555
H57_15 C75_18 1_555 1_555
C76_18 C69_18 1_555 1_555
C77_18 C66_18 1_555 1_555
H58_18 C77_18 1_555 1_555
C78_18 C73_18 1_555 1_555
C79_18 C68_18 1_555 1_555
H59_18 C79_18 1_555 1_555
C80_15 C67_15 1_555 1_555
C81_18 C64_18 1_555 1_555
H60_18 C81_18 1_555 1_555
C82_18 C74_18 1_555 1_555
C83_18 C76_18 1_555 1_555
H61_18 C83_18 1_555 1_555
C84_18 C82_18 1_555 1_555
H62_18 C84_18 1_555 1_555
O32_18 Zr16_14 1_555 1_555
H63_18 O32_18 1_555 1_555
H64_18 O32_18 1_555 1_555
Zr11_12 O31_18 1_555 1_555
O35_18 Zr8_8 1_555 1_555
O44_18 Zr16_14 1_555 1_555
O47_18 Zr16_14 1_555 1_555
O6_18 Zr14_8 1_555 1_555
C1_18 C10_18 1_555 1_555
C7_18 C19_18 1_555 1_555
C12_18 C13_18 1_555 1_555
C16_18 C20_18 1_555 1_555
C17_18 C20_18 1_555 1_555
C22_18 C28_18 1_555 1_555
C36_18 C38_18 1_555 1_555
O40_12 C70_18 1_555 1_555
C64_18 C70_18 1_555 1_555
C68_18 C77_18 1_555 1_555
C72_18 C73_18 1_555 1_555
C75_18 C78_18 1_555 1_555
C76_18 C78_18 1_555 1_555
C79_18 C81_18 1_555 1_555
C83_18 C84_18 1_555 1_555
Zr14_8 O35_18 1_555 1_555
Zr14_8 O44_18 1_555 1_555
O20_11 C54_19 1_555 1_555
O45_8 C54_19 1_555 1_555
N5_19 H35_19 1_555 1_555
H36_19 N5_19 1_555 1_555
C43_21 N5_19 1_555 1_555
C44_21 H41_21 1_555 1_555
C45_19 C43_21 1_555 1_555
C46_21 C44_21 1_555 1_555
C47_21 C43_21 1_555 1_555
C48_19 C45_19 1_555 1_555
H42_19 C48_19 1_555 1_555
C49_19 C54_19 1_555 1_555
C50_21 C47_21 1_555 1_555
C51_19 C45_19 1_555 1_555
C53_21 C50_21 1_555 1_555
H43_21 C53_21 1_555 1_555
C56_17 C49_19 1_555 1_555
H44_19 C56_17 1_555 1_555
C57_19 C49_19 1_555 1_555
H45_19 C57_19 1_555 1_555
C58_21 C50_21 1_555 1_555
H46_21 C58_21 1_555 1_555
C59_21 C46_21 1_555 1_555
C60_19 C51_19 1_555 1_555
H47_19 C60_19 1_555 1_555
C61_21 C53_21 1_555 1_555
H48_22 C61_21 1_555 1_555
C62_17 C51_19 1_555 1_555
H49_17 C62_17 1_555 1_555
C63_21 C55_21 1_555 1_555
N6_21 C59_21 1_555 1_555
C44_21 C47_21 1_555 1_555
C46_21 C48_19 1_555 1_555
C55_21 C61_21 1_555 1_555
C56_17 C62_17 1_555 1_555
C57_19 C60_19 1_555 1_555
C58_21 C63_21 1_555 1_555
Zr11_10 O33_12 1_555 1_555
O36_12 Zr11_10 1_555 1_555
O9_11 Zr11_10 1_555 1_555
O44_18 Zr11_10 1_555 1_555
O13_12 Zr11_10 1_555 1_555
H1_12 O13_12 1_555 1_555
H2_12 O13_12 1_555 1_555
O15_12 Zr14_8 1_555 1_555
H9_12 O15_12 1_555 1_555
H10_12 O15_12 1_555 1_555
O16_12 Zr14_8 1_555 1_555
H11_12 O16_12 1_555 1_555
H12_12 O16_12 1_555 1_555
C27_12 O9_11 1_555 1_555
O33_11 Zr11_12 1_555 1_555
O35_17 Zr11_12 1_555 1_555
O36_11 Zr11_12 1_555 1_555
O21_21 Zr11_12 1_555 1_555
O44_17 Zr11_12 1_555 1_555
O47_17 C52_23 1_555 1_555
O25_23 Zr11_12 1_555 1_555
H33_23 O25_23 1_555 1_555
H34_23 O25_23 1_555 1_555
O26_23 Zr14_7 1_555 1_555
H37_23 O26_23 1_555 1_555
H38_23 O26_23 1_555 1_555
O27_23 Zr14_7 1_555 1_555
H39_23 O27_23 1_555 1_555
H40_23 O27_23 1_555 1_555
C52_23 O21_21 1_555 1_555
O41_11 Zr11_12 1_555 1_555
O42_6 Zr11_10 1_555 1_555
O45_11 Zr14_7 1_555 1_555
O46_6 Zr14_8 1_555 1_555
Zr11_10 O35_18 1_555 1_555
O47_18 C27_12 1_555 1_555
O7_6 C31_10 1_555 1_555
O45_7 C31_10 1_555 1_555
N3_10 H7_10 1_555 1_555
H8_10 N3_10 1_555 1_555
C5_11 N3_10 1_555 1_555
C6_11 H14_11 1_555 1_555
C8_10 C5_11 1_555 1_555
C14_11 C6_11 1_555 1_555
C18_11 C5_11 1_555 1_555
C21_10 C8_10 1_555 1_555
H20_10 C21_10 1_555 1_555
C23_10 C31_10 1_555 1_555
C24_11 C18_11 1_555 1_555
C26_10 C8_10 1_555 1_555
C30_11 C24_11 1_555 1_555
H23_11 C30_11 1_555 1_555
C33_10 C23_10 1_555 1_555
H24_10 C33_10 1_555 1_555
C34_10 C23_10 1_555 1_555
H25_10 C34_10 1_555 1_555
C35_11 C24_11 1_555 1_555
H26_11 C35_11 1_555 1_555
C37_11 C14_11 1_555 1_555
C39_10 C26_10 1_555 1_555
H29_10 C39_10 1_555 1_555
C40_11 C30_11 1_555 1_555
H30_11 C40_11 1_555 1_555
C41_10 C26_10 1_555 1_555
H31_10 C41_10 1_555 1_555
C42_11 C32_11 1_555 1_555
N4_11 C37_11 1_555 1_555
C6_11 C18_11 1_555 1_555
C14_11 C21_10 1_555 1_555
C32_11 C40_11 1_555 1_555
C33_10 C41_10 1_555 1_555
C34_10 C39_10 1_555 1_555
C35_11 C42_11 1_555 1_555
O34_6 Zr11_11 1_555 1_555
O35_16 Zr11_11 1_555 1_555
O37_6 Zr11_11 1_555 1_555
O20_12 C54_20 1_555 1_555
O21_22 Zr11_11 1_555 1_555
O44_16 Zr11_11 1_555 1_555
O46_4 C54_20 1_555 1_555
O47_16 C52_24 1_555 1_555
O25_24 Zr11_11 1_555 1_555
H33_24 O25_24 1_555 1_555
H34_24 O25_24 1_555 1_555
N5_20 H35_20 1_555 1_555
H36_20 N5_20 1_555 1_555
O26_24 Zr15_4 1_555 1_555
H37_24 O26_24 1_555 1_555
H38_24 O26_24 1_555 1_555
O27_24 Zr15_4 1_555 1_555
H39_24 O27_24 1_555 1_555
H40_24 O27_24 1_555 1_555
C43_22 N5_20 1_555 1_555
C44_22 H41_22 1_555 1_555
C45_20 C43_22 1_555 1_555
C46_22 C44_22 1_555 1_555
C47_22 C43_22 1_555 1_555
C48_20 C45_20 1_555 1_555
H42_20 C48_20 1_555 1_555
C49_20 C54_20 1_555 1_555
C50_22 C47_22 1_555 1_555
C51_20 C45_20 1_555 1_555
C52_24 O21_22 1_555 1_555
C53_22 C50_22 1_555 1_555
H43_22 C53_22 1_555 1_555
C55_22 C52_24 1_555 1_555
C56_18 C49_20 1_555 1_555
H44_20 C56_18 1_555 1_555
C57_20 C49_20 1_555 1_555
H45_20 C57_20 1_555 1_555
C58_22 C50_22 1_555 1_555
H46_22 C58_22 1_555 1_555
C59_22 C46_22 1_555 1_555
C60_20 C51_20 1_555 1_555
H47_20 C60_20 1_555 1_555
C61_22 C53_22 1_555 1_555
H48_23 C61_22 1_555 1_555
C62_18 C51_20 1_555 1_555
H49_18 C62_18 1_555 1_555
C63_22 C55_22 1_555 1_555
H50_22 C63_22 1_555 1_555
N6_22 C59_22 1_555 1_555
O41_12 Zr11_11 1_555 1_555
O45_12 Zr15_4 1_555 1_555
C44_22 C47_22 1_555 1_555
C46_22 C48_20 1_555 1_555
C55_22 C61_22 1_555 1_555
C56_18 C62_18 1_555 1_555
C57_20 C60_20 1_555 1_555
C58_22 C63_22 1_555 1_555
N7_16 C80_16 1_555 1_555
C80_16 C67_16 1_555 1_555
N7_17 C80_17 1_555 1_555
C80_17 C67_17 1_555 1_555
O42_5 C54_21 1_555 1_555
O45_12 C54_21 1_555 1_555
N5_21 H35_21 1_555 1_555
H36_21 N5_21 1_555 1_555
C48_21 C45_21 1_555 1_555
H42_21 C48_21 1_555 1_555
C49_21 C54_21 1_555 1_555
C51_21 C45_21 1_555 1_555
C56_19 C49_21 1_555 1_555
H44_21 C56_19 1_555 1_555
C57_21 C49_21 1_555 1_555
H45_21 C57_21 1_555 1_555
C60_21 C51_21 1_555 1_555
H47_21 C60_21 1_555 1_555
C62_19 C51_21 1_555 1_555
H49_19 C62_19 1_555 1_555
C56_19 C62_19 1_555 1_555
C57_21 C60_21 1_555 1_555
O41_9 C31_11 1_555 1_555
O45_11 C31_11 1_555 1_555
N3_11 H7_11 1_555 1_555
H8_11 N3_11 1_555 1_555
C21_11 C8_11 1_555 1_555
H20_11 C21_11 1_555 1_555
C23_11 C31_11 1_555 1_555
C26_11 C8_11 1_555 1_555
C33_11 C23_11 1_555 1_555
H24_11 C33_11 1_555 1_555
C34_11 C23_11 1_555 1_555
H25_11 C34_11 1_555 1_555
C39_11 C26_11 1_555 1_555
H29_11 C39_11 1_555 1_555
C41_11 C26_11 1_555 1_555
H31_11 C41_11 1_555 1_555
C33_11 C41_11 1_555 1_555
C34_11 C39_11 1_555 1_555
O41_10 C54_22 1_555 1_555
O46_6 C54_22 1_555 1_555
N5_22 H35_22 1_555 1_555
H36_22 N5_22 1_555 1_555
C48_22 C45_22 1_555 1_555
H42_22 C48_22 1_555 1_555
C49_22 C54_22 1_555 1_555
C51_22 C45_22 1_555 1_555
C56_20 C49_22 1_555 1_555
H44_22 C56_20 1_555 1_555
C57_22 C49_22 1_555 1_555
H45_22 C57_22 1_555 1_555
C60_22 C51_22 1_555 1_555
H47_22 C60_22 1_555 1_555
C62_20 C51_22 1_555 1_555
H49_20 C62_20 1_555 1_555
C56_20 C62_20 1_555 1_555
C57_22 C60_22 1_555 1_555
O42_6 C54_23 1_555 1_555
O45_10 C54_23 1_555 1_555
N5_23 H35_23 1_555 1_555
H36_23 N5_23 1_555 1_555
C43_23 N5_23 1_555 1_555
C44_23 H41_23 1_555 1_555
C45_23 C43_23 1_555 1_555
C46_23 C44_23 1_555 1_555
C47_23 C43_23 1_555 1_555
C48_23 C45_23 1_555 1_555
H42_23 C48_23 1_555 1_555
C49_23 C54_23 1_555 1_555
C50_23 C47_23 1_555 1_555
C51_23 C45_23 1_555 1_555
C53_23 C50_23 1_555 1_555
H43_23 C53_23 1_555 1_555
C56_21 C49_23 1_555 1_555
H44_23 C56_21 1_555 1_555
C57_23 C49_23 1_555 1_555
H45_23 C57_23 1_555 1_555
C58_23 C50_23 1_555 1_555
H46_23 C58_23 1_555 1_555
C59_23 C46_23 1_555 1_555
C60_23 C51_23 1_555 1_555
H47_23 C60_23 1_555 1_555
C61_23 C53_23 1_555 1_555
C62_21 C51_23 1_555 1_555
H49_21 C62_21 1_555 1_555
C63_23 C55_23 1_555 1_555
N6_23 C59_23 1_555 1_555
C44_23 C47_23 1_555 1_555
C46_23 C48_23 1_555 1_555
C55_23 C61_23 1_555 1_555
C56_21 C62_21 1_555 1_555
C57_23 C60_23 1_555 1_555
C58_23 C63_23 1_555 1_555
O41_11 C31_12 1_555 1_555
O45_9 C31_12 1_555 1_555
N3_12 H7_12 1_555 1_555
H8_12 N3_12 1_555 1_555
C5_12 N3_12 1_555 1_555
C6_12 H14_12 1_555 1_555
C8_12 C5_12 1_555 1_555
C14_12 C6_12 1_555 1_555
C18_12 C5_12 1_555 1_555
C21_12 C8_12 1_555 1_555
H20_12 C21_12 1_555 1_555
C23_12 C31_12 1_555 1_555
C24_12 C18_12 1_555 1_555
C26_12 C8_12 1_555 1_555
C30_12 C24_12 1_555 1_555
H23_12 C30_12 1_555 1_555
C33_12 C23_12 1_555 1_555
H24_12 C33_12 1_555 1_555
C34_12 C23_12 1_555 1_555
H25_12 C34_12 1_555 1_555
C35_12 C24_12 1_555 1_555
H26_12 C35_12 1_555 1_555
C37_12 C14_12 1_555 1_555
C39_12 C26_12 1_555 1_555
H29_12 C39_12 1_555 1_555
C40_12 C30_12 1_555 1_555
C41_12 C26_12 1_555 1_555
H31_12 C41_12 1_555 1_555
C42_12 C32_12 1_555 1_555
N4_12 C37_12 1_555 1_555
C6_12 C18_12 1_555 1_555
C14_12 C21_12 1_555 1_555
C32_12 C40_12 1_555 1_555
C33_12 C41_12 1_555 1_555
C34_12 C39_12 1_555 1_555
C35_12 C42_12 1_555 1_555
O41_12 C54_24 1_555 1_555
O46_5 C54_24 1_555 1_555
N5_24 H35_24 1_555 1_555
H36_24 N5_24 1_555 1_555
C43_24 N5_24 1_555 1_555
C44_24 H41_24 1_555 1_555
C45_24 C43_24 1_555 1_555
C46_24 C44_24 1_555 1_555
C47_24 C43_24 1_555 1_555
C48_24 C45_24 1_555 1_555
H42_24 C48_24 1_555 1_555
C49_24 C54_24 1_555 1_555
C50_24 C47_24 1_555 1_555
C51_24 C45_24 1_555 1_555
C53_24 C50_24 1_555 1_555
H43_24 C53_24 1_555 1_555
C56_22 C49_24 1_555 1_555
H44_24 C56_22 1_555 1_555
C57_24 C49_24 1_555 1_555
H45_24 C57_24 1_555 1_555
C58_24 C50_24 1_555 1_555
H46_24 C58_24 1_555 1_555
C59_24 C46_24 1_555 1_555
C60_24 C51_24 1_555 1_555
H47_24 C60_24 1_555 1_555
C61_24 C53_24 1_555 1_555
C62_22 C51_24 1_555 1_555
H49_22 C62_22 1_555 1_555
C63_24 C55_24 1_555 1_555
H50_24 C63_24 1_555 1_555
N6_24 C59_24 1_555 1_555
C44_24 C47_24 1_555 1_555
C46_24 C48_24 1_555 1_555
C55_24 C61_24 1_555 1_555
C56_22 C62_22 1_555 1_555
C57_24 C60_24 1_555 1_555
C58_24 C63_24 1_555 1_555
H49_23 C62_23 1_555 1_555
C56_23 C62_23 1_555 1_555
H49_24 C62_24 1_555 1_555
C56_24 C62_24 1_555 1_555
N7_18 C80_18 1_555 1_555
C80_18 C67_18 1_555 1_555
Re1 O48 1_555 1_555
O49 Re1 1_555 1_555
O50 Re1 1_555 1_555
O51 Re1 1_555 1_555
Re1_2 O48_2 1_555 1_555
O49_2 Re1_2 1_555 1_555
O50_2 Re1_2 1_555 1_555
O51_2 Re1_2 1_555 1_555
Re1_3 O48_3 1_555 1_555
O49_3 Re1_3 1_555 1_555
O50_3 Re1_3 1_555 1_555
O51_3 Re1_3 1_555 1_555
Re1_4 O48_4 1_555 1_555
O49_4 Re1_4 1_555 1_555
O50_4 Re1_4 1_555 1_555
O51_4 Re1_4 1_555 1_555
Re1_5 O48_5 1_555 1_555
O49_5 Re1_5 1_555 1_555
O50_5 Re1_5 1_555 1_555
O51_5 Re1_5 1_555 1_555
Re1_6 O48_6 1_555 1_555
O49_6 Re1_6 1_555 1_555
O50_6 Re1_6 1_555 1_555
O51_6 Re1_6 1_555 1_555
Re1_7 O48_7 1_555 1_555
O49_7 Re1_7 1_555 1_555
O51_7 Re1_7 1_555 1_555
Re1_8 O48_8 1_555 1_555
O49_8 Re1_8 1_555 1_555
O51_8 Re1_8 1_555 1_555
Re1_9 O48_9 1_555 1_555
O49_9 Re1_9 1_555 1_555
O50_9 Re1_9 1_555 1_555
O51_9 Re1_9 1_555 1_555
Re1_10 O48_10 1_555 1_555
O49_10 Re1_10 1_555 1_555
O50_10 Re1_10 1_555 1_555
O51_10 Re1_10 1_555 1_555
Re1_11 O48_11 1_555 1_555
O49_11 Re1_11 1_555 1_555
O50_11 Re1_11 1_555 1_555
O51_11 Re1_11 1_555 1_555
Re1_12 O48_12 1_555 1_555
O49_12 Re1_12 1_555 1_555
O50_12 Re1_12 1_555 1_555
O51_12 Re1_12 1_555 1_555
O49_13 Re1_13 1_555 1_555
O50_13 Re1_13 1_555 1_555
O51_13 Re1_13 1_555 1_555
O49_14 Re1_14 1_555 1_555
O50_14 Re1_14 1_555 1_555
O51_14 Re1_14 1_555 1_555
O49_15 Re1_15 1_555 1_555
O50_15 Re1_15 1_555 1_555
O51_15 Re1_15 1_555 1_555
Re1_16 O48_16 1_555 1_555
O49_16 Re1_16 1_555 1_555
O51_16 Re1_16 1_555 1_555
Re1_17 O48_17 1_555 1_555
O49_17 Re1_17 1_555 1_555
O51_17 Re1_17 1_555 1_555
Re1_18 O48_18 1_555 1_555
O49_18 Re1_18 1_555 1_555
O50_18 Re1_18 1_555 1_555
O51_18 Re1_18 1_555 1_555
Re1_19 O48_19 1_555 1_555
O49_19 Re1_19 1_555 1_555
O50_19 Re1_19 1_555 1_555
O51_19 Re1_19 1_555 1_555
Re1_20 O48_20 1_555 1_555
O49_20 Re1_20 1_555 1_555
O50_20 Re1_20 1_555 1_555
O51_20 Re1_20 1_555 1_555
Re1_21 O48_21 1_555 1_555
O49_21 Re1_21 1_555 1_555
O50_21 Re1_21 1_555 1_555
O51_21 Re1_21 1_555 1_555
Re1_22 O48_22 1_555 1_555
O49_22 Re1_22 1_555 1_555
O50_22 Re1_22 1_555 1_555
O51_22 Re1_22 1_555 1_555
Re1_23 O48_23 1_555 1_555
O49_23 Re1_23 1_555 1_555
O50_23 Re1_23 1_555 1_555
O51_23 Re1_23 1_555 1_555
Re1_24 O48_24 1_555 1_555
O49_24 Re1_24 1_555 1_555
O50_24 Re1_24 1_555 1_555
O51_24 Re1_24 1_555 1_555
Re1_25 O48_25 1_555 1_555
O49_25 Re1_25 1_555 1_555
O51_25 Re1_25 1_555 1_555
Re1_26 O48_26 1_555 1_555
O49_26 Re1_26 1_555 1_555
O51_26 Re1_26 1_555 1_555
Re1_27 O48_27 1_555 1_555
O49_27 Re1_27 1_555 1_555
O50_27 Re1_27 1_555 1_555
O51_27 Re1_27 1_555 1_555
Re1_28 O48_28 1_555 1_555
O49_28 Re1_28 1_555 1_555
O50_28 Re1_28 1_555 1_555
O51_28 Re1_28 1_555 1_555
Re1_29 O48_29 1_555 1_555
O49_29 Re1_29 1_555 1_555
O50_29 Re1_29 1_555 1_555
O51_29 Re1_29 1_555 1_555
Re1_30 O48_30 1_555 1_555
O49_30 Re1_30 1_555 1_555
O50_30 Re1_30 1_555 1_555
O51_30 Re1_30 1_555 1_555
O49_31 Re1_31 1_555 1_555
O50_31 Re1_31 1_555 1_555
O51_31 Re1_31 1_555 1_555
O49_32 Re1_32 1_555 1_555
O50_32 Re1_32 1_555 1_555
O51_32 Re1_32 1_555 1_555
O49_33 Re1_33 1_555 1_555
O50_33 Re1_33 1_555 1_555
O51_33 Re1_33 1_555 1_555
Re1_34 O48_34 1_555 1_555
O49_34 Re1_34 1_555 1_555
O51_34 Re1_34 1_555 1_555
Re1_35 O48_35 1_555 1_555
O49_35 Re1_35 1_555 1_555
O51_35 Re1_35 1_555 1_555
Re1_36 O48_36 1_555 1_555
O49_36 Re1_36 1_555 1_555
O50_36 Re1_36 1_555 1_555
O51_36 Re1_36 1_555 1_555
Re2 O52 1_555 1_555
O53 Re2 1_555 1_555
O54 Re2 1_555 1_555
O55 Re2 1_555 1_555
Re2_2 O52_2 1_555 1_555
O53_2 Re2_2 1_555 1_555
O54_2 Re2_2 1_555 1_555
O55_2 Re2_2 1_555 1_555
Re2_3 O52_3 1_555 1_555
O53_3 Re2_3 1_555 1_555
O54_3 Re2_3 1_555 1_555
O55_3 Re2_3 1_555 1_555
Re2_4 O52_4 1_555 1_555
O53_4 Re2_4 1_555 1_555
O54_4 Re2_4 1_555 1_555
O55_4 Re2_4 1_555 1_555
Re2_5 O52_5 1_555 1_555
O53_5 Re2_5 1_555 1_555
O54_5 Re2_5 1_555 1_555
O55_5 Re2_5 1_555 1_555
Re2_6 O52_6 1_555 1_555
O53_6 Re2_6 1_555 1_555
O54_6 Re2_6 1_555 1_555
O55_6 Re2_6 1_555 1_555
Re2_7 O52_7 1_555 1_555
O53_7 Re2_7 1_555 1_555
O54_7 Re2_7 1_555 1_555
O55_7 Re2_7 1_555 1_555
Re2_8 O52_8 1_555 1_555
O53_8 Re2_8 1_555 1_555
O54_8 Re2_8 1_555 1_555
O55_8 Re2_8 1_555 1_555
Re2_9 O52_9 1_555 1_555
O53_9 Re2_9 1_555 1_555
O54_9 Re2_9 1_555 1_555
O55_9 Re2_9 1_555 1_555
Re2_10 O52_10 1_555 1_555
O53_10 Re2_10 1_555 1_555
O54_10 Re2_10 1_555 1_555
O55_10 Re2_10 1_555 1_555
Re2_11 O52_11 1_555 1_555
O53_11 Re2_11 1_555 1_555
O54_11 Re2_11 1_555 1_555
O55_11 Re2_11 1_555 1_555
Re2_12 O52_12 1_555 1_555
O53_12 Re2_12 1_555 1_555
O54_12 Re2_12 1_555 1_555
O55_12 Re2_12 1_555 1_555
Re2_13 O52_13 1_555 1_555
O53_13 Re2_13 1_555 1_555
O54_13 Re2_13 1_555 1_555
O55_13 Re2_13 1_555 1_555
Re2_14 O52_14 1_555 1_555
O53_14 Re2_14 1_555 1_555
O54_14 Re2_14 1_555 1_555
O55_14 Re2_14 1_555 1_555
Re2_15 O52_15 1_555 1_555
O53_15 Re2_15 1_555 1_555
O54_15 Re2_15 1_555 1_555
O55_15 Re2_15 1_555 1_555
Re2_16 O52_16 1_555 1_555
O53_16 Re2_16 1_555 1_555
O54_16 Re2_16 1_555 1_555
O55_16 Re2_16 1_555 1_555
Re2_17 O52_17 1_555 1_555
O53_17 Re2_17 1_555 1_555
O54_17 Re2_17 1_555 1_555
O55_17 Re2_17 1_555 1_555
Re2_18 O52_18 1_555 1_555
O53_18 Re2_18 1_555 1_555
O54_18 Re2_18 1_555 1_555
O55_18 Re2_18 1_555 1_555
Re2_19 O52_19 1_555 1_555
O53_19 Re2_19 1_555 1_555
O54_19 Re2_19 1_555 1_555
O55_19 Re2_19 1_555 1_555
Re2_20 O52_20 1_555 1_555
O53_20 Re2_20 1_555 1_555
O54_20 Re2_20 1_555 1_555
O55_20 Re2_20 1_555 1_555
Re2_21 O52_21 1_555 1_555
O53_21 Re2_21 1_555 1_555
O54_21 Re2_21 1_555 1_555
O55_21 Re2_21 1_555 1_555
Re2_22 O52_22 1_555 1_555
O53_22 Re2_22 1_555 1_555
O54_22 Re2_22 1_555 1_555
O55_22 Re2_22 1_555 1_555
Re2_23 O52_23 1_555 1_555
O53_23 Re2_23 1_555 1_555
O54_23 Re2_23 1_555 1_555
O55_23 Re2_23 1_555 1_555
Re2_24 O52_24 1_555 1_555
O53_24 Re2_24 1_555 1_555
O54_24 Re2_24 1_555 1_555
O55_24 Re2_24 1_555 1_555
Re2_25 O52_25 1_555 1_555
O53_25 Re2_25 1_555 1_555
O54_25 Re2_25 1_555 1_555
O55_25 Re2_25 1_555 1_555
Re2_26 O52_26 1_555 1_555
O53_26 Re2_26 1_555 1_555
O54_26 Re2_26 1_555 1_555
O55_26 Re2_26 1_555 1_555
Re2_27 O52_27 1_555 1_555
O53_27 Re2_27 1_555 1_555
O54_27 Re2_27 1_555 1_555
O55_27 Re2_27 1_555 1_555
Re2_28 O52_28 1_555 1_555
O53_28 Re2_28 1_555 1_555
O54_28 Re2_28 1_555 1_555
O55_28 Re2_28 1_555 1_555
Re2_29 O52_29 1_555 1_555
O53_29 Re2_29 1_555 1_555
O54_29 Re2_29 1_555 1_555
O55_29 Re2_29 1_555 1_555
Re2_30 O52_30 1_555 1_555
O53_30 Re2_30 1_555 1_555
O54_30 Re2_30 1_555 1_555
O55_30 Re2_30 1_555 1_555
Re2_31 O52_31 1_555 1_555
O53_31 Re2_31 1_555 1_555
O54_31 Re2_31 1_555 1_555
O55_31 Re2_31 1_555 1_555
Re2_32 O52_32 1_555 1_555
O53_32 Re2_32 1_555 1_555
O54_32 Re2_32 1_555 1_555
O55_32 Re2_32 1_555 1_555
Re2_33 O52_33 1_555 1_555
O53_33 Re2_33 1_555 1_555
O54_33 Re2_33 1_555 1_555
O55_33 Re2_33 1_555 1_555
Re2_34 O52_34 1_555 1_555
O53_34 Re2_34 1_555 1_555
O54_34 Re2_34 1_555 1_555
O55_34 Re2_34 1_555 1_555
Re2_35 O52_35 1_555 1_555
O53_35 Re2_35 1_555 1_555
O54_35 Re2_35 1_555 1_555
O55_35 Re2_35 1_555 1_555
Re2_36 O52_36 1_555 1_555
O53_36 Re2_36 1_555 1_555
O54_36 Re2_36 1_555 1_555
O55_36 Re2_36 1_555 1_555

#END
