
###############################################################################
#
# This file contains modified crystal structure data generated from the
# MOF subset of the Cambridge Structural Database (CSD) v543 
# hosted by the Cambridge Crystallographic Data Centre (CCDC).
#
# This work is licensed under the Creative Commons
# Attribution-NonCommercial-ShareAlike 4.0 International License.
# To view a copy of this license, visit
# http://creativecommons.org/licenses/by-nc-sa/4.0/
# or send a letter to
# Creative Commons, PO Box 1866, Mountain View, CA 94042, USA.
#
# CIF created using the CSD Python API on 29 September 2022
# The structure has been converted into the P1 space group
# The structure has a 3D framework
# The original CSD entry VUQWEK is in the monoclinic crystal system
# The framework has been calculated to contain at least 10.0% void space
# The void calculation uses a probe of radius 1.32A, grid spacing 0.4
# H atom positions have been added when not included in the experimental data
#
###############################################################################

data_VUQWEK
_chemical_formula_moiety         '(C72 H40 Cu6 N32 O12 W4)n'
_symmetry_cell_setting           triclinic
_symmetry_space_group_name_H-M   'P 1'
_symmetry_Int_Tables_number      1
_space_group_name_Hall           'P 1'
loop_
_symmetry_equiv_pos_site_id
_symmetry_equiv_pos_as_xyz
1 x,y,z
_cell_length_a                   13.038(3)
_cell_length_b                   13.784(3)
_cell_length_c                   13.225(3)
_cell_angle_alpha                90
_cell_angle_beta                 93.44(3)
_cell_angle_gamma                90
_cell_volume                     2372.46
loop_
_atom_site_label
_atom_site_type_symbol
_atom_site_fract_x
_atom_site_fract_y
_atom_site_fract_z
N8 N 0.2264(5) 0.0852(5) 0.0220(5)
Cu8 Cu 0.24580(7) 0.12674(7) 0.16371(7)
W1 W 0.11236(2) 0.03930(2) 0.79665(2)
N5 N 0.2163(5) 0.2476(5) 0.7378(5)
C2 C 0.2700(7) 0.0105(5) 0.7720(7)
C4 C 0.0246(6) 0.1064(5) 0.6720(6)
C5 C 0.1832(6) 0.1737(6) 0.7613(6)
C6 C 0.0174(5) 0.1416(6) 0.8727(6)
C7 C 0.1877(6) 0.0691(5) 0.9437(6)
Cu7 Cu 0.24580(7) 0.37326(7) 0.66371(7)
Cu1 Cu 0.11734(7) 0.71849(6) 0.00364(6)
N11 N 0.1170(5) 0.6179(4) 0.1081(5)
N14 N 0.0325(5) 0.8040(5) 0.0861(5)
O1 O 0.6179(5) 0.6776(7) 0.3551(5)
O3 O 0.2509(4) 0.6560(4) 0.9699(4)
N1 N 0.1455(5) 0.8300(4) 0.9177(5)
N2 N 0.3557(6) 0.9952(6) 0.7573(7)
N3 N 0.1170(5) 0.8821(4) 0.6081(5)
N9 N 0.5668(7) 0.6696(7) 0.4413(7)
N10 N 0.2957(6) 0.6643(5) 0.8807(6)
C1 C 0.1346(6) 0.9032(6) 0.8762(5)
C3 C 0.1151(6) 0.9379(5) 0.6726(6)
C9 C 0.6041(8) 0.7194(8) 0.5253(9)
H1 H 0.6647 0.7546 0.5231
C10 C 0.5531(7) 0.7177(7) 0.6119(8)
H2 H 0.5799 0.7483 0.6703
C11 C 0.4576(7) 0.6677(6) 0.6109(7)
C12 C 0.4224(7) 0.6198(7) 0.5249(6)
H3 H 0.3604 0.5864 0.5241
C13 C 0.4772(8) 0.6208(8) 0.4407(8)
H4 H 0.4530 0.5879 0.3828
C14 C 0.3994(7) 0.6681(6) 0.7063(7)
C15 C 0.4536(8) 0.6637(7) 0.8002(7)
H5 H 0.5251 0.6614 0.8052
C16 C 0.3984(8) 0.6628(7) 0.8850(8)
H6 H 0.4337 0.6610 0.9482
C17 C 0.2457(8) 0.6697(7) 0.7890(7)
H7 H 0.1743 0.6721 0.7850
C18 C 0.2942(7) 0.6717(7) 0.7047(7)
H8 H 0.2565 0.6757 0.6429
Cu3 Cu 0.11734(7) 0.78151(6) 0.50364(6)
Cu6 Cu 0.75420(7) 0.62674(7) 0.33629(7)
N12 N 0.0207(5) 0.6443(5) 0.8937(5)
N4 N 0.9793(5) 0.1443(5) 0.6063(5)
N7 N 0.9675(5) 0.1960(5) 0.9139(5)
Cu4 Cu 0.88266(7) 0.21849(6) 0.49636(6)
Cu5 Cu 0.88266(7) 0.28151(6) 0.99636(6)
Cu2 Cu 0.75420(7) 0.87326(7) 0.83629(7)
O2 O 0.6775(6) 0.9462(5) 0.7115(6)
N6 N 0.8839(5) 0.9343(5) 0.8072(5)
C8 C 0.9639(6) 0.9712(5) 0.8047(5)
O4 O 0.6179(5) 0.8224(7) 0.8551(5)
N13 N 0.7837(5) 0.7476(5) 0.7622(5)
N15 N 0.7736(5) 0.9148(5) 0.9780(5)
H9 H 0.709244 0.927512 0.647937
H10 H 0.603764 0.927682 0.706962
O2_2 O 0.3225(6) 0.4462(5) 0.7885(6)
N6_2 N 0.1161(5) 0.4343(5) 0.6928(5)
N7_2 N 0.0325(5) 0.6960(5) 0.5861(5)
C8_2 C 0.0361(6) 0.4712(5) 0.6953(5)
O4_2 O 0.3821(5) 0.3224(7) 0.6449(5)
N15_2 N 0.2264(5) 0.4148(5) 0.5220(5)
H9_2 H 0.290756 0.427512 0.852063
H10_2 H 0.396236 0.427682 0.793038
O1_2 O 0.3821(5) 0.1776(7) 0.1449(5)
N9_2 N 0.4332(7) 0.1696(7) 0.0587(7)
C13_2 C 0.5228(8) 0.1208(8) 0.0593(8)
H4_2 H 0.5470 0.0879 0.1172
W1_2 W 0.88764(2) 0.53930(2) 0.70335(2)
O3_2 O 0.7491(4) 0.1560(4) 0.5301(4)
N1_2 N 0.8545(5) 0.3300(4) 0.5823(5)
N2_2 N 0.6443(6) 0.4952(6) 0.7427(7)
N3_2 N 0.8830(5) 0.3821(4) 0.8919(5)
N8_2 N 0.7736(5) 0.5852(5) 0.4780(5)
N10_2 N 0.7043(6) 0.1643(5) 0.6193(6)
C1_2 C 0.8654(6) 0.4032(6) 0.6238(5)
C2_2 C 0.7300(7) 0.5105(5) 0.7280(7)
C3_2 C 0.8849(6) 0.4379(5) 0.8274(6)
C4_2 C 0.9754(6) 0.6064(5) 0.8280(6)
C5_2 C 0.8168(6) 0.6737(6) 0.7387(6)
C6_2 C 0.9826(5) 0.6416(6) 0.6273(6)
C7_2 C 0.8123(6) 0.5691(5) 0.5563(6)
C9_2 C 0.3959(8) 0.2194(8) 0.9747(9)
H1_2 H 0.3353 0.2546 0.9769
C10_2 C 0.4469(7) 0.2177(7) 0.8881(8)
H2_2 H 0.4201 0.2483 0.8297
C11_2 C 0.5424(7) 0.1677(6) 0.8891(7)
C12_2 C 0.5776(7) 0.1198(7) 0.9751(6)
H3_2 H 0.6396 0.0864 0.9759
C14_2 C 0.6006(7) 0.1681(6) 0.7937(7)
C15_2 C 0.5464(8) 0.1637(7) 0.6998(7)
H5_2 H 0.4749 0.1614 0.6948
C16_2 C 0.6016(8) 0.1628(7) 0.6150(8)
H6_2 H 0.5663 0.1610 0.5518
C17_2 C 0.7543(8) 0.1697(7) 0.7110(7)
H7_2 H 0.8257 0.1721 0.7150
C18_2 C 0.7058(7) 0.1717(7) 0.7953(7)
H8_2 H 0.7435 0.1757 0.8571
N11_2 N 0.8830(5) 0.1179(4) 0.3919(5)
N14_2 N 0.9675(5) 0.3040(5) 0.4139(5)
O2_3 O 0.3225(6) 0.0538(5) 0.2885(6)
N6_3 N 0.1161(5) 0.0657(5) 0.1928(5)
C8_3 C 0.0361(6) 0.0288(5) 0.1953(5)
N13_2 N 0.2163(5) 0.2524(5) 0.2378(5)
H9_3 H 0.290756 0.0724883 0.352063
H10_3 H 0.396236 0.0723175 0.293038
N4_2 N 0.0207(5) 0.8557(5) 0.3937(5)
O3_3 O 0.7491(4) 0.3440(4) 0.0301(4)
N1_3 N 0.8545(5) 0.1700(4) 0.0823(5)
N2_3 N 0.6443(6) 0.0048(6) 0.2427(7)
N9_3 N 0.4332(7) 0.3304(7) 0.5587(7)
N10_3 N 0.7043(6) 0.3357(5) 0.1193(6)
C1_3 C 0.8654(6) 0.0968(6) 0.1238(5)
C3_3 C 0.8849(6) 0.0621(5) 0.3274(6)
C9_3 C 0.3959(8) 0.2806(8) 0.4747(9)
H1_3 H 0.3353 0.2454 0.4769
C10_3 C 0.4469(7) 0.2823(7) 0.3881(8)
H2_3 H 0.4201 0.2517 0.3297
C11_3 C 0.5424(7) 0.3323(6) 0.3891(7)
C12_3 C 0.5776(7) 0.3802(7) 0.4751(6)
H3_3 H 0.6396 0.4136 0.4759
C13_3 C 0.5228(8) 0.3792(8) 0.5593(8)
H4_3 H 0.5470 0.4121 0.6172
C14_3 C 0.6006(7) 0.3319(6) 0.2937(7)
C15_3 C 0.5464(8) 0.3363(7) 0.1998(7)
H5_3 H 0.4749 0.3386 0.1948
C16_3 C 0.6016(8) 0.3372(7) 0.1150(8)
H6_3 H 0.5663 0.3390 0.0518
C17_3 C 0.7543(8) 0.3303(7) 0.2110(7)
H7_3 H 0.8257 0.3279 0.2150
C18_3 C 0.7058(7) 0.3283(7) 0.2953(7)
H8_3 H 0.7435 0.3243 0.3571
N12_2 N 0.9793(5) 0.3557(5) 0.1063(5)
W1_3 W 0.88764(2) 0.96070(2) 0.20335(2)
N5_2 N 0.7837(5) 0.7524(5) 0.2622(5)
C2_3 C 0.7300(7) 0.9895(5) 0.2280(7)
C4_3 C 0.9754(6) 0.8936(5) 0.3280(6)
C5_3 C 0.8168(6) 0.8263(6) 0.2387(6)
C6_3 C 0.9826(5) 0.8584(6) 0.1273(6)
C7_3 C 0.8123(6) 0.9309(5) 0.0563(6)
W1_4 W 0.11236(2) 0.46070(2) 0.29665(2)
O3_4 O 0.2509(4) 0.8440(4) 0.4699(4)
N1_4 N 0.1455(5) 0.6700(4) 0.4177(5)
N2_4 N 0.3557(6) 0.5048(6) 0.2573(7)
N10_4 N 0.2957(6) 0.8357(5) 0.3807(6)
C1_4 C 0.1346(6) 0.5968(6) 0.3762(5)
C2_4 C 0.2700(7) 0.4895(5) 0.2720(7)
C3_4 C 0.1151(6) 0.5621(5) 0.1726(6)
C4_4 C 0.0246(6) 0.3936(5) 0.1720(6)
C5_4 C 0.1832(6) 0.3263(6) 0.2613(6)
C6_4 C 0.0174(5) 0.3584(6) 0.3727(6)
C7_4 C 0.1877(6) 0.4309(5) 0.4437(6)
C9_4 C 0.6041(8) 0.7806(8) 0.0253(9)
H1_4 H 0.6647 0.7454 0.0231
C10_4 C 0.5531(7) 0.7823(7) 0.1119(8)
H2_4 H 0.5799 0.7517 0.1703
C11_4 C 0.4576(7) 0.8323(6) 0.1109(7)
C12_4 C 0.4224(7) 0.8802(7) 0.0249(6)
H3_4 H 0.3604 0.9136 0.0241
C14_4 C 0.3994(7) 0.8319(6) 0.2063(7)
C15_4 C 0.4536(8) 0.8363(7) 0.3002(7)
H5_4 H 0.5251 0.8386 0.3052
C16_4 C 0.3984(8) 0.8372(7) 0.3850(8)
H6_4 H 0.4337 0.8390 0.4482
C17_4 C 0.2457(8) 0.8303(7) 0.2890(7)
H7_4 H 0.1743 0.8279 0.2850
C18_4 C 0.2942(7) 0.8283(7) 0.2047(7)
H8_4 H 0.2565 0.8243 0.1429
N9_4 N 0.5668(7) 0.8304(7) 0.9413(7)
C13_4 C 0.4772(8) 0.8792(8) 0.9407(8)
H4_4 H 0.4530 0.9121 0.8828
O2_4 O 0.6775(6) 0.5538(5) 0.2115(6)
N6_4 N 0.8839(5) 0.5657(5) 0.3072(5)
C8_4 C 0.9639(6) 0.5288(5) 0.3047(5)
H9_4 H 0.709244 0.572488 0.147937
H10_4 H 0.603764 0.572318 0.206962
loop_
_geom_bond_atom_site_label_1
_geom_bond_atom_site_label_2
_geom_bond_site_symmetry_1
_geom_bond_site_symmetry_2
Cu8 N8 1_555 1_555
N5 C5 1_555 1_555
C2 W1 1_555 1_555
C4 W1 1_555 1_555
C5 W1 1_555 1_555
C6 W1 1_555 1_555
C7 W1 1_555 1_555
Cu7 N5 1_555 1_555
N11 Cu1 1_555 1_555
N14 Cu1 1_555 1_555
O1 N9 1_555 1_555
O3 N10 1_555 1_555
N3 C3 1_555 1_555
N9 C9 1_555 1_555
N10 C16 1_555 1_555
C1 N1 1_555 1_555
C9 H1 1_555 1_555
C10 C9 1_555 1_555
H2 C10 1_555 1_555
C11 C10 1_555 1_555
C12 C11 1_555 1_555
H3 C12 1_555 1_555
C13 N9 1_555 1_555
H4 C13 1_555 1_555
C14 C11 1_555 1_555
C15 C14 1_555 1_555
H5 C15 1_555 1_555
C16 C15 1_555 1_555
H6 C16 1_555 1_555
C17 N10 1_555 1_555
H7 C17 1_555 1_555
C18 C14 1_555 1_555
H8 C18 1_555 1_555
Cu3 N3 1_555 1_555
Cu6 O1 1_555 1_555
C12 C13 1_555 1_555
C17 C18 1_555 1_555
Cu4 N4 1_555 1_555
Cu5 N7 1_555 1_555
Cu2 O2 1_555 1_555
N6 Cu2 1_555 1_555
O4 Cu2 1_555 1_555
N13 Cu2 1_555 1_555
N15 Cu2 1_555 1_555
N6 C8 1_555 1_555
O2 H9 1_555 1_555
O2 H10 1_555 1_555
Cu7 O2_2 1_555 1_555
N6_2 Cu7 1_555 1_555
Cu3 N7_2 1_555 1_555
O4_2 Cu7 1_555 1_555
N15_2 Cu7 1_555 1_555
N6_2 C8_2 1_555 1_555
O2_2 H9_2 1_555 1_555
O2_2 H10_2 1_555 1_555
O1_2 N9_2 1_555 1_555
C13_2 N9_2 1_555 1_555
H4_2 C13_2 1_555 1_555
Cu8 O1_2 1_555 1_555
W1_2 C1_2 1_555 1_555
Cu4 O3_2 1_555 1_555
O3_2 N10_2 1_555 1_555
N1_2 Cu4 1_555 1_555
N2_2 C2_2 1_555 1_555
N3_2 C3_2 1_555 1_555
N13 C5_2 1_555 1_555
N8_2 C7_2 1_555 1_555
N10_2 C16_2 1_555 1_555
C1_2 N1_2 1_555 1_555
C2_2 W1_2 1_555 1_555
C3_2 W1_2 1_555 1_555
C4_2 W1_2 1_555 1_555
C5_2 W1_2 1_555 1_555
C6_2 W1_2 1_555 1_555
C7_2 W1_2 1_555 1_555
C9_2 H1_2 1_555 1_555
C10_2 C9_2 1_555 1_555
H2_2 C10_2 1_555 1_555
C11_2 C10_2 1_555 1_555
C12_2 C11_2 1_555 1_555
H3_2 C12_2 1_555 1_555
C14_2 C11_2 1_555 1_555
C15_2 C14_2 1_555 1_555
H5_2 C15_2 1_555 1_555
C16_2 C15_2 1_555 1_555
H6_2 C16_2 1_555 1_555
C17_2 N10_2 1_555 1_555
H7_2 C17_2 1_555 1_555
C18_2 C14_2 1_555 1_555
H8_2 C18_2 1_555 1_555
Cu5 N3_2 1_555 1_555
Cu6 N8_2 1_555 1_555
N11_2 Cu4 1_555 1_555
N14_2 Cu4 1_555 1_555
C17_2 C18_2 1_555 1_555
Cu8 O2_3 1_555 1_555
N6_3 Cu8 1_555 1_555
N13_2 Cu8 1_555 1_555
N6_3 C8_3 1_555 1_555
O2_3 H9_3 1_555 1_555
O2_3 H10_3 1_555 1_555
Cu3 N4_2 1_555 1_555
O4_2 N9_3 1_555 1_555
O3_3 N10_3 1_555 1_555
N11_2 C3_3 1_555 1_555
N9_3 C9_3 1_555 1_555
N10_3 C16_3 1_555 1_555
C1_3 N1_3 1_555 1_555
C9_3 H1_3 1_555 1_555
C10_3 C9_3 1_555 1_555
H2_3 C10_3 1_555 1_555
C11_3 C10_3 1_555 1_555
C12_3 C11_3 1_555 1_555
H3_3 C12_3 1_555 1_555
C13_3 N9_3 1_555 1_555
H4_3 C13_3 1_555 1_555
C14_3 C11_3 1_555 1_555
C15_3 C14_3 1_555 1_555
H5_3 C15_3 1_555 1_555
C16_3 C15_3 1_555 1_555
H6_3 C16_3 1_555 1_555
C17_3 N10_3 1_555 1_555
H7_3 C17_3 1_555 1_555
C18_3 C14_3 1_555 1_555
H8_3 C18_3 1_555 1_555
C12_3 C13_3 1_555 1_555
C17_3 C18_3 1_555 1_555
N5_2 C5_3 1_555 1_555
C2_3 W1_3 1_555 1_555
C4_3 W1_3 1_555 1_555
C5_3 W1_3 1_555 1_555
C6_3 W1_3 1_555 1_555
C7_3 W1_3 1_555 1_555
Cu6 N5_2 1_555 1_555
W1_4 C1_4 1_555 1_555
Cu3 O3_4 1_555 1_555
O3_4 N10_4 1_555 1_555
N1_4 Cu3 1_555 1_555
N2_4 C2_4 1_555 1_555
N11 C3_4 1_555 1_555
N13_2 C5_4 1_555 1_555
N15_2 C7_4 1_555 1_555
N10_4 C16_4 1_555 1_555
C1_4 N1_4 1_555 1_555
C2_4 W1_4 1_555 1_555
C3_4 W1_4 1_555 1_555
C4_4 W1_4 1_555 1_555
C5_4 W1_4 1_555 1_555
C6_4 W1_4 1_555 1_555
C7_4 W1_4 1_555 1_555
C9_4 H1_4 1_555 1_555
C10_4 C9_4 1_555 1_555
H2_4 C10_4 1_555 1_555
C11_4 C10_4 1_555 1_555
C12_4 C11_4 1_555 1_555
H3_4 C12_4 1_555 1_555
C14_4 C11_4 1_555 1_555
C15_4 C14_4 1_555 1_555
H5_4 C15_4 1_555 1_555
C16_4 C15_4 1_555 1_555
H6_4 C16_4 1_555 1_555
C17_4 N10_4 1_555 1_555
H7_4 C17_4 1_555 1_555
C18_4 C14_4 1_555 1_555
H8_4 C18_4 1_555 1_555
C17_4 C18_4 1_555 1_555
O4 N9_4 1_555 1_555
C13_4 N9_4 1_555 1_555
H4_4 C13_4 1_555 1_555
Cu6 O2_4 1_555 1_555
N6_4 Cu6 1_555 1_555
N6_4 C8_4 1_555 1_555
O2_4 H9_4 1_555 1_555
O2_4 H10_4 1_555 1_555

#END
