
###############################################################################
#
# This file contains modified crystal structure data generated from the
# MOF subset of the Cambridge Structural Database (CSD) v543 
# hosted by the Cambridge Crystallographic Data Centre (CCDC).
#
# This work is licensed under the Creative Commons
# Attribution-NonCommercial-ShareAlike 4.0 International License.
# To view a copy of this license, visit
# http://creativecommons.org/licenses/by-nc-sa/4.0/
# or send a letter to
# Creative Commons, PO Box 1866, Mountain View, CA 94042, USA.
#
# CIF created using the CSD Python API on 29 September 2022
# The structure has been converted into the P1 space group
# The structure has a 3D framework
# The original CSD entry VURLIF is in the monoclinic crystal system
# The framework has been calculated to contain at least 10.0% void space
# The void calculation uses a probe of radius 1.32A, grid spacing 0.4
# The framework is charged, counterions have been retained in the structure
#
###############################################################################

data_VURLIF
_chemical_formula_moiety         '(C80 H88 N22 O46 Zn8)n'
_symmetry_cell_setting           triclinic
_symmetry_space_group_name_H-M   'P 1'
_symmetry_Int_Tables_number      1
_space_group_name_Hall           'P 1'
loop_
_symmetry_equiv_pos_site_id
_symmetry_equiv_pos_as_xyz
1 x,y,z
_cell_length_a                   27.7680(11)
_cell_length_b                   7.9000(6)
_cell_length_c                   18.2980(14)
_cell_angle_alpha                90
_cell_angle_beta                 108.3290(15)
_cell_angle_gamma                90
_cell_volume                     3810.34
loop_
_atom_site_label
_atom_site_type_symbol
_atom_site_fract_x
_atom_site_fract_y
_atom_site_fract_z
N1 N 0.0986(8) 0.6576(15) 0.0437(14)
H1 H 0.0758 0.7424 0.0320
H2 H 0.0842 0.5639 0.0556
C2 C 0.1421(15) 0.702(2) 0.101(3)
H6 H 0.1337 0.7340 0.1464
H7 H 0.1580 0.7956 0.0844
H8 H 0.1650 0.6074 0.1130
C1 C 0.1218(11) 0.625(2) 0.9787(18)
H3 H 0.0956 0.5893 0.9331
H4 H 0.1471 0.5380 0.9944
H5 H 0.1371 0.7272 0.9681
N1_2 N 0.9014(8) 0.6576(15) 0.4563(14)
H1_2 H 0.9242 0.7424 0.4680
H2_2 H 0.9158 0.5639 0.4444
C1_2 C 0.8782(11) 0.625(2) 0.5213(18)
H3_2 H 0.9044 0.5893 0.5669
H4_2 H 0.8529 0.5380 0.5056
H5_2 H 0.8629 0.7272 0.5319
C2_2 C 0.8579(15) 0.702(2) 0.399(3)
H6_2 H 0.8663 0.7340 0.3536
H7_2 H 0.8420 0.7956 0.4156
H8_2 H 0.8350 0.6074 0.3870
N1_3 N 0.5986(8) 0.1576(15) 0.0437(14)
H1_3 H 0.5758 0.2424 0.0320
H2_3 H 0.5842 0.0639 0.0556
C2_3 C 0.6421(15) 0.202(2) 0.101(3)
H6_3 H 0.6337 0.2340 0.1464
H7_3 H 0.6580 0.2956 0.0844
H8_3 H 0.6650 0.1074 0.1130
C1_3 C 0.6218(11) 0.125(2) 0.9787(18)
H3_3 H 0.5956 0.0893 0.9331
H4_3 H 0.6471 0.0380 0.9944
H5_3 H 0.6371 0.2272 0.9681
N1_4 N 0.4014(8) 0.1576(15) 0.4563(14)
H1_4 H 0.4242 0.2424 0.4680
H2_4 H 0.4158 0.0639 0.4444
C1_4 C 0.3782(11) 0.125(2) 0.5213(18)
H3_4 H 0.4044 0.0893 0.5669
H4_4 H 0.3529 0.0380 0.5056
H5_4 H 0.3629 0.2272 0.5319
C2_4 C 0.3579(15) 0.202(2) 0.399(3)
H6_4 H 0.3663 0.2340 0.3536
H7_4 H 0.3420 0.2956 0.4156
H8_4 H 0.3350 0.1074 0.3870
C1_5 C 0.8782(11) 0.375(2) 0.0213(18)
H3_5 H 0.9044 0.4107 0.0669
H4_5 H 0.8529 0.4620 0.0056
H5_5 H 0.8629 0.2728 0.0319
N1_5 N 0.9014(8) 0.3424(15) 0.9563(14)
H1_5 H 0.9242 0.2576 0.9680
H2_5 H 0.9158 0.4361 0.9444
C2_5 C 0.8579(15) 0.298(2) 0.899(3)
H6_5 H 0.8663 0.2660 0.8536
H7_5 H 0.8420 0.2044 0.9156
H8_5 H 0.8350 0.3926 0.8870
N1_6 N 0.0986(8) 0.3424(15) 0.5437(14)
H1_6 H 0.0758 0.2576 0.5320
H2_6 H 0.0842 0.4361 0.5556
C1_6 C 0.1218(11) 0.375(2) 0.4787(18)
H3_6 H 0.0956 0.4107 0.4331
H4_6 H 0.1471 0.4620 0.4944
H5_6 H 0.1371 0.2728 0.4681
C2_6 C 0.1421(15) 0.298(2) 0.601(3)
H6_6 H 0.1337 0.2660 0.6464
H7_6 H 0.1580 0.2044 0.5844
H8_6 H 0.1650 0.3926 0.6130
C1_7 C 0.3782(11) 0.875(2) 0.0213(18)
H3_7 H 0.4044 0.9107 0.0669
H4_7 H 0.3529 0.9620 0.0056
H5_7 H 0.3629 0.7728 0.0319
N1_7 N 0.4014(8) 0.8424(15) 0.9563(14)
H1_7 H 0.4242 0.7576 0.9680
H2_7 H 0.4158 0.9361 0.9444
C2_7 C 0.3579(15) 0.798(2) 0.899(3)
H6_7 H 0.3663 0.7660 0.8536
H7_7 H 0.3420 0.7044 0.9156
H8_7 H 0.3350 0.8926 0.8870
N1_8 N 0.5986(8) 0.8424(15) 0.5437(14)
H1_8 H 0.5758 0.7576 0.5320
H2_8 H 0.5842 0.9361 0.5556
C1_8 C 0.6218(11) 0.875(2) 0.4787(18)
H3_8 H 0.5956 0.9107 0.4331
H4_8 H 0.6471 0.9620 0.4944
H5_8 H 0.6371 0.7728 0.4681
C2_8 C 0.6421(15) 0.798(2) 0.601(3)
H6_8 H 0.6337 0.7660 0.6464
H7_8 H 0.6580 0.7044 0.5844
H8_8 H 0.6650 0.8926 0.6130
Zn1 Zn 0.040976(10) 0.17319(4) 0.197153(15)
O3 O 0.06231(9) 0.1476(3) 0.10822(13)
C7 C 0.12245(10) 0.1655(3) 0.04284(16)
O4 O 0.02830(12) 0.4052(3) 0.21866(17)
C9 C 0.17062(10) 0.2111(4) 0.04299(17)
H11 H 0.1931 0.2627 0.0860
O5 O 0.13526(12) 0.2655(5) 0.16989(16)
C10 C 0.10667(12) 0.1970(4) 0.11288(18)
N3 N 0.0000 0.4749(6) 0.2500
O6 O 0.0000 0.6663(8) 0.2500
C11 C 0.41108(9) 0.4100(4) 0.02215(14)
H12 H 0.4435 0.4399 0.0222
O7 O 0.47613(7) 0.5561(3) 0.15170(12)
O8 O 0.41731(7) 0.5554(3) 0.21130(11)
C12 C 0.43272(9) 0.5233(3) 0.15505(14)
C13 C 0.39655(9) 0.4408(3) 0.08658(14)
N4 N 0.26632(9) 0.2774(5) 0.02749(18)
C14 C 0.34803(10) 0.3966(4) 0.08648(16)
H13 H 0.3377 0.4174 0.1294
C16 C 0.31516(10) 0.3208(4) 0.02116(19)
Zn3 Zn 0.540976(10) 0.67319(4) 0.197153(15)
Zn4 Zn 0.459024(10) 0.67319(4) 0.302847(15)
O13 O 0.02387(7) 0.0561(3) 0.34830(12)
O15 O 0.08269(7) 0.0554(3) 0.28870(11)
C3 C 0.08892(9) 0.0900(4) 0.97785(14)
H9 H 0.0565 0.0601 0.9778
C5 C 0.10345(9) 0.0592(3) 0.91342(14)
N2 N 0.23368(9) 0.2226(5) 0.97251(18)
C6 C 0.15197(10) 0.1034(4) 0.91352(16)
H10 H 0.1623 0.0826 0.8706
C8 C 0.18484(10) 0.1792(4) 0.97884(19)
O9 O 0.43769(9) 0.3524(3) 0.89178(13)
C15 C 0.37755(10) 0.3345(3) 0.95716(16)
C17 C 0.32938(10) 0.2889(4) 0.95701(17)
H14 H 0.3069 0.2373 0.9140
O10 O 0.36474(12) 0.2345(5) 0.83011(16)
C18 C 0.39333(12) 0.3030(4) 0.88712(18)
Zn7 Zn 0.459024(10) 0.32681(4) 0.802847(15)
O1 O 0.02387(7) 0.9439(3) 0.84830(12)
O2 O 0.08269(7) 0.9446(3) 0.78870(11)
C4 C 0.06728(9) 0.9767(3) 0.84495(14)
Zn6 Zn 0.040976(10) 0.82681(4) 0.697153(15)
N3_2 N 1.0000 0.4749(6) 0.2500
O6_2 O 1.0000 0.6663(8) 0.2500
O11 O 0.97170(12) 0.4052(3) 0.28134(17)
Zn2 Zn 0.959024(10) 0.17319(4) 0.302847(15)
O12 O 0.97613(7) 0.0561(3) 0.15170(12)
O14 O 0.91731(7) 0.0554(3) 0.21130(11)
O16 O 0.93769(9) 0.1476(3) 0.39178(13)
Zn5 Zn 0.959024(10) 0.82681(4) 0.802847(15)
C3_2 C 0.91108(9) 0.0900(4) 0.52215(14)
H9_2 H 0.9435 0.0601 0.5222
C5_2 C 0.89655(9) 0.0592(3) 0.58658(14)
N2_2 N 0.76632(9) 0.2226(5) 0.52749(18)
C6_2 C 0.84803(10) 0.1034(4) 0.58648(16)
H10_2 H 0.8377 0.0826 0.6294
C7_2 C 0.87755(10) 0.1655(3) 0.45716(16)
C8_2 C 0.81516(10) 0.1792(4) 0.52116(19)
C9_2 C 0.82938(10) 0.2111(4) 0.45701(17)
H11_2 H 0.8069 0.2627 0.4140
O5_2 O 0.86474(12) 0.2655(5) 0.33011(16)
C10_2 C 0.89333(12) 0.1970(4) 0.38712(18)
C11_2 C 0.58892(9) 0.4100(4) 0.47785(14)
H12_2 H 0.5565 0.4399 0.4778
O7_2 O 0.52387(7) 0.5561(3) 0.34830(12)
O8_2 O 0.58269(7) 0.5554(3) 0.28870(11)
C12_2 C 0.56728(9) 0.5233(3) 0.34495(14)
C13_2 C 0.60345(9) 0.4408(3) 0.41342(14)
N4_2 N 0.73368(9) 0.2774(5) 0.47251(18)
C14_2 C 0.65197(10) 0.3966(4) 0.41352(16)
H13_2 H 0.6623 0.4174 0.3706
O9_2 O 0.56231(9) 0.3524(3) 0.60822(13)
C15_2 C 0.62245(10) 0.3345(3) 0.54284(16)
C16_2 C 0.68484(10) 0.3208(4) 0.47884(19)
C17_2 C 0.67062(10) 0.2889(4) 0.54299(17)
H14_2 H 0.6931 0.2373 0.5860
O10_2 O 0.63526(12) 0.2345(5) 0.66989(16)
C18_2 C 0.60667(12) 0.3030(4) 0.61288(18)
Zn7_2 Zn 0.540976(10) 0.32681(4) 0.697153(15)
O1_2 O 0.97613(7) 0.9439(3) 0.65170(12)
O2_2 O 0.91731(7) 0.9446(3) 0.71130(11)
C4_2 C 0.93272(9) 0.9767(3) 0.65505(14)
O6_3 O 0.5000 0.1663(8) 0.2500
C12_3 C 0.93272(9) 0.0233(3) 0.15505(14)
O3_2 O 0.56231(9) 0.6476(3) 0.10822(13)
C7_3 C 0.62245(10) 0.6655(3) 0.04284(16)
O4_2 O 0.52830(12) 0.9052(3) 0.21866(17)
C9_3 C 0.67062(10) 0.7111(4) 0.04299(17)
H11_3 H 0.6931 0.7627 0.0860
O5_3 O 0.63526(12) 0.7655(5) 0.16989(16)
C10_3 C 0.60667(12) 0.6970(4) 0.11288(18)
N3_3 N 0.5000 0.9749(6) 0.2500
C11_3 C 0.91108(9) 0.9100(4) 0.02215(14)
H12_3 H 0.9435 0.9399 0.0222
C13_3 C 0.89655(9) 0.9408(3) 0.08658(14)
N4_3 N 0.76632(9) 0.7774(5) 0.02749(18)
C14_3 C 0.84803(10) 0.8966(4) 0.08648(16)
H13_3 H 0.8377 0.9174 0.1294
C16_3 C 0.81516(10) 0.8208(4) 0.02116(19)
O11_2 O 0.47170(12) 0.9052(3) 0.28134(17)
O16_2 O 0.43769(9) 0.6476(3) 0.39178(13)
C3_3 C 0.58892(9) 0.5900(4) 0.97785(14)
H9_3 H 0.5565 0.5601 0.9778
O1_3 O 0.52387(7) 0.4439(3) 0.84830(12)
O2_3 O 0.58269(7) 0.4446(3) 0.78870(11)
C4_3 C 0.56728(9) 0.4767(3) 0.84495(14)
C5_3 C 0.60345(9) 0.5592(3) 0.91342(14)
N2_3 N 0.73368(9) 0.7226(5) 0.97251(18)
C6_3 C 0.65197(10) 0.6034(4) 0.91352(16)
H10_3 H 0.6623 0.5826 0.8706
C8_3 C 0.68484(10) 0.6792(4) 0.97884(19)
O9_3 O 0.93769(9) 0.8524(3) 0.89178(13)
C15_3 C 0.87755(10) 0.8345(3) 0.95716(16)
C17_3 C 0.82938(10) 0.7889(4) 0.95701(17)
H14_3 H 0.8069 0.7373 0.9140
O10_3 O 0.86474(12) 0.7345(5) 0.83011(16)
C18_3 C 0.89333(12) 0.8030(4) 0.88712(18)
C12_4 C 0.06728(9) 0.0233(3) 0.34495(14)
C3_4 C 0.41108(9) 0.5900(4) 0.52215(14)
H9_4 H 0.4435 0.5601 0.5222
O1_4 O 0.47613(7) 0.4439(3) 0.65170(12)
O2_4 O 0.41731(7) 0.4446(3) 0.71130(11)
C4_4 C 0.43272(9) 0.4767(3) 0.65505(14)
C5_4 C 0.39655(9) 0.5592(3) 0.58658(14)
N2_4 N 0.26632(9) 0.7226(5) 0.52749(18)
C6_4 C 0.34803(10) 0.6034(4) 0.58648(16)
H10_4 H 0.3377 0.5826 0.6294
C7_4 C 0.37755(10) 0.6655(3) 0.45716(16)
C8_4 C 0.31516(10) 0.6792(4) 0.52116(19)
C9_4 C 0.32938(10) 0.7111(4) 0.45701(17)
H11_4 H 0.3069 0.7627 0.4140
O5_4 O 0.36474(12) 0.7655(5) 0.33011(16)
C10_4 C 0.39333(12) 0.6970(4) 0.38712(18)
C11_4 C 0.08892(9) 0.9100(4) 0.47785(14)
H12_4 H 0.0565 0.9399 0.4778
C13_4 C 0.10345(9) 0.9408(3) 0.41342(14)
N4_4 N 0.23368(9) 0.7774(5) 0.47251(18)
C14_4 C 0.15197(10) 0.8966(4) 0.41352(16)
H13_4 H 0.1623 0.9174 0.3706
O9_4 O 0.06231(9) 0.8524(3) 0.60822(13)
C15_4 C 0.12245(10) 0.8345(3) 0.54284(16)
C16_4 C 0.18484(10) 0.8208(4) 0.47884(19)
C17_4 C 0.17062(10) 0.7889(4) 0.54299(17)
H14_4 H 0.1931 0.7373 0.5860
O10_4 O 0.13526(12) 0.7345(5) 0.66989(16)
C18_4 C 0.10667(12) 0.8030(4) 0.61288(18)
N3_4 N 0.0000 0.5251(6) 0.7500
O6_4 O 0.0000 0.3337(8) 0.7500
O11_3 O 0.02830(12) 0.5948(3) 0.71866(17)
O4_3 O 0.97170(12) 0.5948(3) 0.78134(17)
N3_5 N 1.0000 0.5251(6) 0.7500
O6_5 O 1.0000 0.3337(8) 0.7500
O4_4 O 0.47170(12) 0.0948(3) 0.78134(17)
N3_6 N 0.5000 0.0251(6) 0.7500
O11_4 O 0.52830(12) 0.0948(3) 0.71866(17)
O6_6 O 0.5000 0.8337(8) 0.7500
loop_
_geom_bond_atom_site_label_1
_geom_bond_atom_site_label_2
_geom_bond_site_symmetry_1
_geom_bond_site_symmetry_2
N1 H1 1_555 1_555
H2 N1 1_555 1_555
C2 N1 1_555 1_555
H6 C2 1_555 1_555
H7 C2 1_555 1_555
H8 C2 1_555 1_555
H3 C1 1_555 1_555
H4 C1 1_555 1_555
H5 C1 1_555 1_555
N1_2 H1_2 1_555 1_555
H2_2 N1_2 1_555 1_555
C1_2 N1_2 1_555 1_555
H3_2 C1_2 1_555 1_555
H4_2 C1_2 1_555 1_555
H5_2 C1_2 1_555 1_555
C2_2 N1_2 1_555 1_555
H6_2 C2_2 1_555 1_555
H7_2 C2_2 1_555 1_555
H8_2 C2_2 1_555 1_555
N1_3 H1_3 1_555 1_555
H2_3 N1_3 1_555 1_555
C2_3 N1_3 1_555 1_555
H6_3 C2_3 1_555 1_555
H7_3 C2_3 1_555 1_555
H8_3 C2_3 1_555 1_555
H3_3 C1_3 1_555 1_555
H4_3 C1_3 1_555 1_555
H5_3 C1_3 1_555 1_555
N1_4 H1_4 1_555 1_555
H2_4 N1_4 1_555 1_555
C1_4 N1_4 1_555 1_555
H3_4 C1_4 1_555 1_555
H4_4 C1_4 1_555 1_555
H5_4 C1_4 1_555 1_555
C2_4 N1_4 1_555 1_555
H6_4 C2_4 1_555 1_555
H7_4 C2_4 1_555 1_555
H8_4 C2_4 1_555 1_555
H3_5 C1_5 1_555 1_555
H4_5 C1_5 1_555 1_555
H5_5 C1_5 1_555 1_555
N1_5 H1_5 1_555 1_555
H2_5 N1_5 1_555 1_555
C2_5 N1_5 1_555 1_555
H6_5 C2_5 1_555 1_555
H7_5 C2_5 1_555 1_555
H8_5 C2_5 1_555 1_555
N1_6 H1_6 1_555 1_555
H2_6 N1_6 1_555 1_555
C1_6 N1_6 1_555 1_555
H3_6 C1_6 1_555 1_555
H4_6 C1_6 1_555 1_555
H5_6 C1_6 1_555 1_555
C2_6 N1_6 1_555 1_555
H6_6 C2_6 1_555 1_555
H7_6 C2_6 1_555 1_555
H8_6 C2_6 1_555 1_555
H3_7 C1_7 1_555 1_555
H4_7 C1_7 1_555 1_555
H5_7 C1_7 1_555 1_555
N1_7 H1_7 1_555 1_555
H2_7 N1_7 1_555 1_555
C2_7 N1_7 1_555 1_555
H6_7 C2_7 1_555 1_555
H7_7 C2_7 1_555 1_555
H8_7 C2_7 1_555 1_555
N1_8 H1_8 1_555 1_555
H2_8 N1_8 1_555 1_555
C1_8 N1_8 1_555 1_555
H3_8 C1_8 1_555 1_555
H4_8 C1_8 1_555 1_555
H5_8 C1_8 1_555 1_555
C2_8 N1_8 1_555 1_555
H6_8 C2_8 1_555 1_555
H7_8 C2_8 1_555 1_555
H8_8 C2_8 1_555 1_555
Zn1 O3 1_555 1_555
O3 C10 1_555 1_555
O4 Zn1 1_555 1_555
C9 C7 1_555 1_555
H11 C9 1_555 1_555
O5 C10 1_555 1_555
C10 C7 1_555 1_555
N3 O4 1_555 1_555
O6 N3 1_555 1_555
C11 H12 1_555 1_555
O7 C12 1_555 1_555
O8 C12 1_555 1_555
C12 C13 1_555 1_555
C13 C11 1_555 1_555
C14 C13 1_555 1_555
H13 C14 1_555 1_555
C16 N4 1_555 1_555
Zn3 O7 1_555 1_555
Zn4 O8 1_555 1_555
O15 Zn1 1_555 1_555
C14 C16 1_555 1_555
C3 H9 1_555 1_555
C5 C3 1_555 1_555
N2 C8 1_555 1_555
C6 C5 1_555 1_555
H10 C6 1_555 1_555
C8 C6 1_555 1_555
O9 C18 1_555 1_555
C17 C15 1_555 1_555
H14 C17 1_555 1_555
O10 C18 1_555 1_555
C18 C15 1_555 1_555
Zn7 O9 1_555 1_555
O1 C4 1_555 1_555
O2 C4 1_555 1_555
Zn6 O2 1_555 1_555
O6_2 N3_2 1_555 1_555
O11 N3_2 1_555 1_555
Zn2 O11 1_555 1_555
O14 Zn2 1_555 1_555
O16 Zn2 1_555 1_555
C3_2 H9_2 1_555 1_555
C5_2 C3_2 1_555 1_555
N2_2 C8_2 1_555 1_555
C6_2 C5_2 1_555 1_555
H10_2 C6_2 1_555 1_555
O16 C10_2 1_555 1_555
C7_2 C3_2 1_555 1_555
C8_2 C6_2 1_555 1_555
C9_2 C7_2 1_555 1_555
H11_2 C9_2 1_555 1_555
O5_2 C10_2 1_555 1_555
C10_2 C7_2 1_555 1_555
C11_2 H12_2 1_555 1_555
O7_2 C12_2 1_555 1_555
O8_2 C12_2 1_555 1_555
C12_2 C13_2 1_555 1_555
C13_2 C11_2 1_555 1_555
N4_2 N2_2 1_555 1_555
C14_2 C13_2 1_555 1_555
H13_2 C14_2 1_555 1_555
O9_2 C18_2 1_555 1_555
C15_2 C11_2 1_555 1_555
C16_2 N4_2 1_555 1_555
C17_2 C15_2 1_555 1_555
H14_2 C17_2 1_555 1_555
O10_2 C18_2 1_555 1_555
C18_2 C15_2 1_555 1_555
Zn4 O7_2 1_555 1_555
Zn3 O8_2 1_555 1_555
Zn7_2 O9_2 1_555 1_555
C8_2 C9_2 1_555 1_555
C14_2 C16_2 1_555 1_555
C16_2 C17_2 1_555 1_555
O1_2 C4_2 1_555 1_555
O2_2 C4_2 1_555 1_555
Zn5 O2_2 1_555 1_555
O12 C12_3 1_555 1_555
O14 C12_3 1_555 1_555
Zn3 O3_2 1_555 1_555
O3_2 C10_3 1_555 1_555
O4_2 Zn3 1_555 1_555
C9_3 C7_3 1_555 1_555
H11_3 C9_3 1_555 1_555
O5_3 C10_3 1_555 1_555
C10_3 C7_3 1_555 1_555
N3_3 O4_2 1_555 1_555
C11_3 H12_3 1_555 1_555
C13_3 C11_3 1_555 1_555
C14_3 C13_3 1_555 1_555
H13_3 C14_3 1_555 1_555
C16_3 N4_3 1_555 1_555
O11_2 N3_3 1_555 1_555
Zn4 O11_2 1_555 1_555
O16_2 Zn4 1_555 1_555
C14_3 C16_3 1_555 1_555
C3_3 H9_3 1_555 1_555
O1_3 C4_3 1_555 1_555
O2_3 C4_3 1_555 1_555
C4_3 C5_3 1_555 1_555
C5_3 C3_3 1_555 1_555
N2_3 C8_3 1_555 1_555
C6_3 C5_3 1_555 1_555
H10_3 C6_3 1_555 1_555
C8_3 C6_3 1_555 1_555
O9_3 C18_3 1_555 1_555
C17_3 C15_3 1_555 1_555
H14_3 C17_3 1_555 1_555
O10_3 C18_3 1_555 1_555
C18_3 C15_3 1_555 1_555
Zn7 O1_3 1_555 1_555
Zn7_2 O2_3 1_555 1_555
Zn5 O9_3 1_555 1_555
O13 C12_4 1_555 1_555
O15 C12_4 1_555 1_555
C3_4 H9_4 1_555 1_555
O1_4 C4_4 1_555 1_555
O2_4 C4_4 1_555 1_555
C4_4 C5_4 1_555 1_555
C5_4 C3_4 1_555 1_555
N2_4 C8_4 1_555 1_555
C6_4 C5_4 1_555 1_555
H10_4 C6_4 1_555 1_555
O16_2 C10_4 1_555 1_555
C7_4 C3_4 1_555 1_555
C8_4 C6_4 1_555 1_555
C9_4 C7_4 1_555 1_555
H11_4 C9_4 1_555 1_555
O5_4 C10_4 1_555 1_555
C10_4 C7_4 1_555 1_555
C11_4 H12_4 1_555 1_555
C13_4 C11_4 1_555 1_555
N4_4 N2_4 1_555 1_555
C14_4 C13_4 1_555 1_555
H13_4 C14_4 1_555 1_555
O9_4 C18_4 1_555 1_555
C15_4 C11_4 1_555 1_555
C16_4 N4_4 1_555 1_555
C17_4 C15_4 1_555 1_555
H14_4 C17_4 1_555 1_555
O10_4 C18_4 1_555 1_555
C18_4 C15_4 1_555 1_555
Zn7_2 O1_4 1_555 1_555
Zn7 O2_4 1_555 1_555
Zn6 O9_4 1_555 1_555
C8_4 C9_4 1_555 1_555
C14_4 C16_4 1_555 1_555
C16_4 C17_4 1_555 1_555
O6_4 N3_4 1_555 1_555
O11_3 N3_4 1_555 1_555
Zn6 O11_3 1_555 1_555
O4_3 Zn5 1_555 1_555
N3_5 O4_3 1_555 1_555
O6_5 N3_5 1_555 1_555
O4_4 Zn7 1_555 1_555
N3_6 O4_4 1_555 1_555
O11_4 N3_6 1_555 1_555
Zn7_2 O11_4 1_555 1_555

#END
