
###############################################################################
#
# This file contains modified crystal structure data generated from the
# MOF subset of the Cambridge Structural Database (CSD) v543 
# hosted by the Cambridge Crystallographic Data Centre (CCDC).
#
# This work is licensed under the Creative Commons
# Attribution-NonCommercial-ShareAlike 4.0 International License.
# To view a copy of this license, visit
# http://creativecommons.org/licenses/by-nc-sa/4.0/
# or send a letter to
# Creative Commons, PO Box 1866, Mountain View, CA 94042, USA.
#
# CIF created using the CSD Python API on 29 September 2022
# The structure has been converted into the P1 space group
# The structure has a 3D framework
# The original CSD entry VURMOL is in the cubic crystal system
# The framework has been calculated to contain at least 10.0% void space
# The void calculation uses a probe of radius 1.32A, grid spacing 0.4
#
###############################################################################

data_VURMOL
_chemical_formula_moiety         '(C192 H120 N24 O104 Zn32)n'
_symmetry_cell_setting           triclinic
_symmetry_space_group_name_H-M   'P 1'
_symmetry_Int_Tables_number      1
_space_group_name_Hall           'P 1'
loop_
_symmetry_equiv_pos_site_id
_symmetry_equiv_pos_as_xyz
1 x,y,z
_cell_length_a                   25.0872(10)
_cell_length_b                   25.0872(10)
_cell_length_c                   25.0872(10)
_cell_angle_alpha                90
_cell_angle_beta                 90
_cell_angle_gamma                90
_cell_volume                     15789.1
loop_
_atom_site_label
_atom_site_type_symbol
_atom_site_fract_x
_atom_site_fract_y
_atom_site_fract_z
Zn1 Zn 0.16206(5) 0.16206(5) 0.16206(5)
Zn2 Zn 0.16450(5) 0.26431(6) 0.23622(6)
O1 O 0.2072(3) 0.2072(3) 0.2072(3)
O4 O 0.0881(4) 0.1674(3) 0.1797(3)
O5 O 0.0933(6) 0.2448(4) 0.2239(5)
C4 C 0.0093(5) 0.2043(4) 0.2185(4)
H4 H 0.0080 0.2730 0.2622
C8 C 0.0674(3) 0.2050(4) 0.2063(3)
Zn5 Zn 0.23622(6) 0.16450(5) 0.26431(6)
Zn6 Zn 0.26431(6) 0.23622(6) 0.16450(5)
O8 O 0.1691(4) 0.2681(5) 0.3135(5)
O9 O 0.3135(5) 0.1691(4) 0.2681(5)
O10 O 0.2681(5) 0.3135(5) 0.1691(4)
O13 O 0.1989(6) 0.3322(8) 0.2247(5)
O14 O 0.2247(5) 0.1989(6) 0.3322(8)
O15 O 0.3322(8) 0.2247(5) 0.1989(6)
O16 O 0.1797(3) 0.0881(4) 0.1674(3)
O17 O 0.1674(3) 0.1797(3) 0.0881(4)
O18 O 0.2239(5) 0.0933(6) 0.2448(4)
O19 O 0.2448(4) 0.2239(5) 0.0933(6)
C15 C 0.2185(4) 0.0093(5) 0.2043(4)
C16 C 0.2043(4) 0.2185(4) 0.0093(5)
H12 H 0.2622 0.0080 0.2730
H13 H 0.2730 0.2622 0.0080
C23 C 0.2063(3) 0.0674(3) 0.2050(4)
C24 C 0.2050(4) 0.2063(3) 0.0674(3)
Zn9 Zn 0.16450(5) 0.23569(6) 0.73622(6)
Zn10 Zn 0.23622(6) 0.33550(5) 0.76431(6)
O7 O 0.1691(4) 0.2319(5) 0.8135(5)
O12 O 0.2247(5) 0.3011(6) 0.8322(8)
N3 N 0.1201(10) 0.1911(8) 0.8906(3)
H7 H 0.1193 0.1981 0.8562
H9 H 0.0946 0.1718 0.9051
C10 C 0.2024(5) 0.2412(5) 0.8998(4)
C12 C 0.1618(3) 0.2106(5) 0.9221(3)
C14 C 0.1635(3) 0.1998(4) 0.9767(5)
H11 H 0.1359 0.1790 0.9921
C18 C 0.2448(5) 0.2490(6) 0.9866(5)
C20 C 0.2434(4) 0.2600(6) 0.9323(6)
H15 H 0.2711 0.2809 0.9169
C22 C 0.1984(5) 0.2598(3) 0.8434(5)
Zn4 Zn 0.23569(6) 0.73622(6) 0.16450(5)
Zn8 Zn 0.33550(5) 0.76431(6) 0.23622(6)
O6 O 0.2319(5) 0.8135(5) 0.1691(4)
O11 O 0.3011(6) 0.8322(8) 0.2247(5)
N2 N 0.1911(8) 0.8906(3) 0.1201(10)
H6 H 0.1981 0.8562 0.1193
H8 H 0.1718 0.9051 0.0946
C9 C 0.2412(5) 0.8998(4) 0.2024(5)
C11 C 0.2106(5) 0.9221(3) 0.1618(3)
C13 C 0.1998(4) 0.9767(5) 0.1635(3)
H10 H 0.1790 0.9921 0.1359
C17 C 0.2490(6) 0.9866(5) 0.2448(5)
C19 C 0.2600(6) 0.9323(6) 0.2434(4)
H14 H 0.2809 0.9169 0.2711
C21 C 0.2598(3) 0.8434(5) 0.1984(5)
O2 O 0.8135(5) 0.1691(4) 0.2319(5)
O3 O 0.8322(8) 0.2247(5) 0.3011(6)
N1 N 0.8906(3) 0.1201(10) 0.1911(8)
H1 H 0.8562 0.1193 0.1981
H2 H 0.9051 0.0946 0.1718
C1 C 0.8998(4) 0.2024(5) 0.2412(5)
C2 C 0.9221(3) 0.1618(3) 0.2106(5)
C3 C 0.9767(5) 0.1635(3) 0.1998(4)
H3 H 0.9921 0.1359 0.1790
C5 C 0.9866(5) 0.2448(5) 0.2490(6)
C6 C 0.9323(6) 0.2434(4) 0.2600(6)
H5 H 0.9169 0.2711 0.2809
C7 C 0.8434(5) 0.1984(5) 0.2598(3)
Zn3 Zn 0.73622(6) 0.16450(5) 0.23569(6)
Zn7 Zn 0.76431(6) 0.23622(6) 0.33550(5)
Zn4_2 Zn 0.26431(6) 0.26378(6) 0.66450(5)
O6_2 O 0.2681(5) 0.1865(5) 0.6691(4)
O11_2 O 0.1989(6) 0.1678(8) 0.7247(5)
N2_2 N 0.3089(8) 0.1094(3) 0.6201(10)
H6_2 H 0.3019 0.1438 0.6193
H8_2 H 0.3282 0.0949 0.5946
C9_2 C 0.2588(5) 0.1002(4) 0.7024(5)
C11_2 C 0.2894(5) 0.0779(3) 0.6618(3)
C13_2 C 0.3002(4) 0.0233(5) 0.6635(3)
H10_2 H 0.3210 0.0079 0.6359
C17_2 C 0.2510(6) 0.0134(5) 0.7448(5)
C19_2 C 0.2400(6) 0.0677(6) 0.7434(4)
H14_2 H 0.2191 0.0831 0.7711
C21_2 C 0.2402(3) 0.1566(5) 0.6984(5)
Zn1_2 Zn 0.33794(5) 0.83794(5) 0.66206(5)
Zn2_2 Zn 0.33550(5) 0.73569(6) 0.73622(6)
O1_2 O 0.2928(3) 0.7928(3) 0.7072(3)
O2_2 O 0.6865(5) 0.8309(4) 0.7319(5)
O3_2 O 0.6678(8) 0.7753(5) 0.8011(6)
O4_2 O 0.4119(4) 0.8326(3) 0.6797(3)
O5_2 O 0.4067(6) 0.7552(4) 0.7239(5)
N1_2 N 0.6094(3) 0.8799(10) 0.6911(8)
H1_2 H 0.6438 0.8807 0.6981
H2_2 H 0.5949 0.9054 0.6718
C1_2 C 0.6002(4) 0.7976(5) 0.7412(5)
C2_2 C 0.5779(3) 0.8382(3) 0.7106(5)
C3_2 C 0.5233(5) 0.8365(3) 0.6998(4)
H3_2 H 0.5079 0.8641 0.6790
C4_2 C 0.4907(5) 0.7957(4) 0.7185(4)
C5_2 C 0.5134(5) 0.7552(5) 0.7490(6)
H4_2 H 0.4920 0.7270 0.7622
C6_2 C 0.5677(6) 0.7566(4) 0.7600(6)
H5_2 H 0.5831 0.7289 0.7809
C7_2 C 0.6566(5) 0.8016(5) 0.7598(3)
C8_2 C 0.4326(3) 0.7950(4) 0.7063(3)
Zn3_2 Zn 0.76378(6) 0.83550(5) 0.73569(6)
Zn5_2 Zn 0.26378(6) 0.83550(5) 0.76431(6)
Zn6_2 Zn 0.23569(6) 0.76378(6) 0.66450(5)
Zn7_2 Zn 0.73569(6) 0.76378(6) 0.83550(5)
Zn10_2 Zn 0.26378(6) 0.66450(5) 0.26431(6)
O7_2 O 0.3309(4) 0.7681(5) 0.3135(5)
O8_2 O 0.3309(4) 0.7319(5) 0.8135(5)
O9_2 O 0.1865(5) 0.8309(4) 0.7681(5)
O10_2 O 0.2319(5) 0.6865(5) 0.6691(4)
O12_2 O 0.2753(5) 0.6989(6) 0.3322(8)
O13_2 O 0.3011(6) 0.6678(8) 0.7247(5)
O14_2 O 0.2753(5) 0.8011(6) 0.8322(8)
O15_2 O 0.1678(8) 0.7753(5) 0.6989(6)
O16_2 O 0.3203(3) 0.9119(4) 0.6674(3)
O17_2 O 0.3326(3) 0.8203(3) 0.5881(4)
O18_2 O 0.2761(5) 0.9067(6) 0.7448(4)
O19_2 O 0.2552(4) 0.7761(5) 0.5933(6)
N3_2 N 0.3799(10) 0.8089(8) 0.3906(3)
H7_2 H 0.3807 0.8019 0.3562
H9_2 H 0.4054 0.8282 0.4051
C10_2 C 0.2976(5) 0.7588(5) 0.3998(4)
C12_2 C 0.3382(3) 0.7894(5) 0.4221(3)
C14_2 C 0.3365(3) 0.8002(4) 0.4767(5)
H11_2 H 0.3641 0.8210 0.4921
C15_2 C 0.2815(4) 0.9907(5) 0.7043(4)
C16_2 C 0.2957(4) 0.7815(4) 0.5093(5)
C18_2 C 0.2552(5) 0.7510(6) 0.4866(5)
H12_2 H 0.2378 0.9920 0.7730
H13_2 H 0.2270 0.7378 0.5080
C20_2 C 0.2566(4) 0.7400(6) 0.4323(6)
H15_2 H 0.2289 0.7191 0.4169
C22_2 C 0.3016(5) 0.7402(3) 0.3434(5)
C23_2 C 0.2937(3) 0.9326(3) 0.7050(4)
C24_2 C 0.2950(4) 0.7937(3) 0.5674(3)
O2_3 O 0.1865(5) 0.6691(4) 0.2681(5)
O3_3 O 0.1678(8) 0.7247(5) 0.1989(6)
N1_3 N 0.1094(3) 0.6201(10) 0.3089(8)
H1_3 H 0.1438 0.6193 0.3019
H2_3 H 0.0949 0.5946 0.3282
C1_3 C 0.1002(4) 0.7024(5) 0.2588(5)
C2_3 C 0.0779(3) 0.6618(3) 0.2894(5)
C3_3 C 0.0233(5) 0.6635(3) 0.3002(4)
H3_3 H 0.0079 0.6359 0.3210
C5_3 C 0.0134(5) 0.7448(5) 0.2510(6)
C6_3 C 0.0677(6) 0.7434(4) 0.2400(6)
H5_3 H 0.0831 0.7711 0.2191
C7_3 C 0.1566(5) 0.6984(5) 0.2402(3)
Zn1_3 Zn 0.83794(5) 0.66206(5) 0.33794(5)
Zn2_3 Zn 0.83550(5) 0.76431(6) 0.26378(6)
O1_3 O 0.7928(3) 0.7072(3) 0.2928(3)
O4_3 O 0.9119(4) 0.6674(3) 0.3203(3)
O5_3 O 0.9067(6) 0.7448(4) 0.2761(5)
C4_3 C 0.9907(5) 0.7043(4) 0.2815(4)
H4_3 H 0.9920 0.7730 0.2378
C8_3 C 0.9326(3) 0.7050(4) 0.2937(3)
Zn5_3 Zn 0.76378(6) 0.66450(5) 0.23569(6)
Zn6_3 Zn 0.73569(6) 0.73622(6) 0.33550(5)
Zn8_2 Zn 0.66450(5) 0.26431(6) 0.26378(6)
Zn9_2 Zn 0.83550(5) 0.73569(6) 0.76378(6)
O6_3 O 0.7681(5) 0.3135(5) 0.3309(4)
O7_3 O 0.8309(4) 0.7319(5) 0.6865(5)
O8_3 O 0.8309(4) 0.7681(5) 0.1865(5)
O9_3 O 0.6865(5) 0.6691(4) 0.2319(5)
O10_3 O 0.7319(5) 0.8135(5) 0.3309(4)
O11_3 O 0.6989(6) 0.3322(8) 0.2753(5)
O12_3 O 0.7753(5) 0.8011(6) 0.6678(8)
O13_3 O 0.8011(6) 0.8322(8) 0.2753(5)
O14_3 O 0.7753(5) 0.6989(6) 0.1678(8)
O15_3 O 0.6678(8) 0.7247(5) 0.3011(6)
O16_3 O 0.8203(3) 0.5881(4) 0.3326(3)
O17_3 O 0.8326(3) 0.6797(3) 0.4119(4)
O18_3 O 0.7761(5) 0.5933(6) 0.2552(4)
O19_3 O 0.7552(4) 0.7239(5) 0.4067(6)
N2_3 N 0.8089(8) 0.3906(3) 0.3799(10)
N3_3 N 0.8799(10) 0.6911(8) 0.6094(3)
H6_3 H 0.8019 0.3562 0.3807
H7_3 H 0.8807 0.6981 0.6438
H8_3 H 0.8282 0.4051 0.4054
H9_3 H 0.9054 0.6718 0.5949
C9_3 C 0.7588(5) 0.3998(4) 0.2976(5)
C10_3 C 0.7976(5) 0.7412(5) 0.6002(4)
C11_3 C 0.7894(5) 0.4221(3) 0.3382(3)
C12_3 C 0.8382(3) 0.7106(5) 0.5779(3)
C13_3 C 0.8002(4) 0.4767(5) 0.3365(3)
C14_3 C 0.8365(3) 0.6998(4) 0.5233(5)
H10_3 H 0.8210 0.4921 0.3641
H11_3 H 0.8641 0.6790 0.5079
C15_3 C 0.7815(4) 0.5093(5) 0.2957(4)
C16_3 C 0.7957(4) 0.7185(4) 0.4907(5)
C17_3 C 0.7510(6) 0.4866(5) 0.2552(5)
C18_3 C 0.7552(5) 0.7490(6) 0.5134(5)
H12_3 H 0.7378 0.5080 0.2270
H13_3 H 0.7270 0.7622 0.4920
C19_3 C 0.7400(6) 0.4323(6) 0.2566(4)
C20_3 C 0.7566(4) 0.7600(6) 0.5677(6)
H14_3 H 0.7191 0.4169 0.2289
H15_3 H 0.7289 0.7809 0.5831
C21_3 C 0.7402(3) 0.3434(5) 0.3016(5)
C22_3 C 0.8016(5) 0.7598(3) 0.6566(5)
C23_3 C 0.7937(3) 0.5674(3) 0.2950(4)
C24_3 C 0.7950(4) 0.7063(3) 0.4326(3)
O7_4 O 0.6691(4) 0.2681(5) 0.1865(5)
O12_4 O 0.7247(5) 0.1989(6) 0.1678(8)
N3_4 N 0.6201(10) 0.3089(8) 0.1094(3)
H7_4 H 0.6193 0.3019 0.1438
H9_4 H 0.5946 0.3282 0.0949
C10_4 C 0.7024(5) 0.2588(5) 0.1002(4)
C12_4 C 0.6618(3) 0.2894(5) 0.0779(3)
C14_4 C 0.6635(3) 0.3002(4) 0.0233(5)
H11_4 H 0.6359 0.3210 0.0079
C18_4 C 0.7448(5) 0.2510(6) 0.0134(5)
C20_4 C 0.7434(4) 0.2400(6) 0.0677(6)
H15_4 H 0.7711 0.2191 0.0831
C22_4 C 0.6984(5) 0.2402(3) 0.1566(5)
Zn1_4 Zn 0.66206(5) 0.33794(5) 0.83794(5)
Zn2_4 Zn 0.66450(5) 0.23569(6) 0.76378(6)
O1_4 O 0.7072(3) 0.2928(3) 0.7928(3)
O2_4 O 0.3135(5) 0.3309(4) 0.7681(5)
O3_4 O 0.3322(8) 0.2753(5) 0.6989(6)
O4_4 O 0.5881(4) 0.3326(3) 0.8203(3)
O5_4 O 0.5933(6) 0.2552(4) 0.7761(5)
N1_4 N 0.3906(3) 0.3799(10) 0.8089(8)
H1_4 H 0.3562 0.3807 0.8019
H2_4 H 0.4051 0.4054 0.8282
C1_4 C 0.3998(4) 0.2976(5) 0.7588(5)
C2_4 C 0.4221(3) 0.3382(3) 0.7894(5)
C3_4 C 0.4767(5) 0.3365(3) 0.8002(4)
H3_4 H 0.4921 0.3641 0.8210
C4_4 C 0.5093(5) 0.2957(4) 0.7815(4)
C5_4 C 0.4866(5) 0.2552(5) 0.7510(6)
H4_4 H 0.5080 0.2270 0.7378
C6_4 C 0.4323(6) 0.2566(4) 0.7400(6)
H5_4 H 0.4169 0.2289 0.7191
C7_4 C 0.3434(5) 0.3016(5) 0.7402(3)
C8_4 C 0.5674(3) 0.2950(4) 0.7937(3)
Zn5_4 Zn 0.73622(6) 0.33550(5) 0.73569(6)
Zn6_4 Zn 0.76431(6) 0.26378(6) 0.83550(5)
O6_4 O 0.7319(5) 0.6865(5) 0.8309(4)
O8_4 O 0.6691(4) 0.2319(5) 0.6865(5)
O9_4 O 0.8135(5) 0.3309(4) 0.7319(5)
O10_4 O 0.7681(5) 0.1865(5) 0.8309(4)
O11_4 O 0.8011(6) 0.6678(8) 0.7753(5)
O13_4 O 0.6989(6) 0.1678(8) 0.7753(5)
O14_4 O 0.7247(5) 0.3011(6) 0.6678(8)
O15_4 O 0.8322(8) 0.2753(5) 0.8011(6)
O16_4 O 0.6797(3) 0.4119(4) 0.8326(3)
O17_4 O 0.6674(3) 0.3203(3) 0.9119(4)
O18_4 O 0.7239(5) 0.4067(6) 0.7552(4)
O19_4 O 0.7448(4) 0.2761(5) 0.9067(6)
N2_4 N 0.6911(8) 0.6094(3) 0.8799(10)
H6_4 H 0.6981 0.6438 0.8807
H8_4 H 0.6718 0.5949 0.9054
C9_4 C 0.7412(5) 0.6002(4) 0.7976(5)
C11_4 C 0.7106(5) 0.5779(3) 0.8382(3)
C13_4 C 0.6998(4) 0.5233(5) 0.8365(3)
H10_4 H 0.6790 0.5079 0.8641
C15_4 C 0.7185(4) 0.4907(5) 0.7957(4)
C16_4 C 0.7043(4) 0.2815(4) 0.9907(5)
C17_4 C 0.7490(6) 0.5134(5) 0.7552(5)
H12_4 H 0.7622 0.4920 0.7270
H13_4 H 0.7730 0.2378 0.9920
C19_4 C 0.7600(6) 0.5677(6) 0.7566(4)
H14_4 H 0.7809 0.5831 0.7289
C21_4 C 0.7598(3) 0.6566(5) 0.8016(5)
C23_4 C 0.7063(3) 0.4326(3) 0.7950(4)
C24_4 C 0.7050(4) 0.2937(3) 0.9326(3)
N1_5 N 0.1094(3) 0.8799(10) 0.8089(8)
H1_5 H 0.1438 0.8807 0.8019
H2_5 H 0.0949 0.9054 0.8282
C1_5 C 0.1002(4) 0.7976(5) 0.7588(5)
C2_5 C 0.0779(3) 0.8382(3) 0.7894(5)
C3_5 C 0.0233(5) 0.8365(3) 0.8002(4)
H3_5 H 0.0079 0.8641 0.8210
C5_5 C 0.0134(5) 0.7552(5) 0.7510(6)
C6_5 C 0.0677(6) 0.7566(4) 0.7400(6)
H5_5 H 0.0831 0.7289 0.7191
C7_5 C 0.1566(5) 0.8016(5) 0.7402(3)
N2_5 N 0.8089(8) 0.1094(3) 0.8799(10)
H6_5 H 0.8019 0.1438 0.8807
H8_5 H 0.8282 0.0949 0.9054
C9_5 C 0.7588(5) 0.1002(4) 0.7976(5)
C11_5 C 0.7894(5) 0.0779(3) 0.8382(3)
C13_5 C 0.8002(4) 0.0233(5) 0.8365(3)
H10_5 H 0.8210 0.0079 0.8641
C17_5 C 0.7510(6) 0.0134(5) 0.7552(5)
C19_5 C 0.7400(6) 0.0677(6) 0.7566(4)
H14_5 H 0.7191 0.0831 0.7289
C21_5 C 0.7402(3) 0.1566(5) 0.8016(5)
N3_5 N 0.8799(10) 0.8089(8) 0.1094(3)
H7_5 H 0.8807 0.8019 0.1438
H9_5 H 0.9054 0.8282 0.0949
C10_5 C 0.7976(5) 0.7588(5) 0.1002(4)
C12_5 C 0.8382(3) 0.7894(5) 0.0779(3)
C14_5 C 0.8365(3) 0.8002(4) 0.0233(5)
H11_5 H 0.8641 0.8210 0.0079
C18_5 C 0.7552(5) 0.7510(6) 0.0134(5)
C20_5 C 0.7566(4) 0.7400(6) 0.0677(6)
H15_5 H 0.7289 0.7191 0.0831
C22_5 C 0.8016(5) 0.7402(3) 0.1566(5)
Zn1_5 Zn 0.83794(5) 0.83794(5) 0.83794(5)
O1_5 O 0.7928(3) 0.7928(3) 0.7928(3)
O4_5 O 0.9119(4) 0.8326(3) 0.8203(3)
O5_5 O 0.9067(6) 0.7552(4) 0.7761(5)
C4_5 C 0.9907(5) 0.7957(4) 0.7815(4)
H4_5 H 0.9920 0.7270 0.7378
C8_5 C 0.9326(3) 0.7950(4) 0.7937(3)
O16_5 O 0.8203(3) 0.9119(4) 0.8326(3)
O17_5 O 0.8326(3) 0.8203(3) 0.9119(4)
O18_5 O 0.7761(5) 0.9067(6) 0.7552(4)
O19_5 O 0.7552(4) 0.7761(5) 0.9067(6)
C15_5 C 0.7815(4) 0.9907(5) 0.7957(4)
C16_5 C 0.7957(4) 0.7815(4) 0.9907(5)
H12_5 H 0.7378 0.9920 0.7270
H13_5 H 0.7270 0.7378 0.9920
C23_5 C 0.7937(3) 0.9326(3) 0.7950(4)
C24_5 C 0.7950(4) 0.7937(3) 0.9326(3)
Zn1_6 Zn 0.66206(5) 0.16206(5) 0.33794(5)
O1_6 O 0.7072(3) 0.2072(3) 0.2928(3)
O4_6 O 0.5881(4) 0.1674(3) 0.3203(3)
O5_6 O 0.5933(6) 0.2448(4) 0.2761(5)
N1_6 N 0.3906(3) 0.1201(10) 0.3089(8)
H1_6 H 0.3562 0.1193 0.3019
H2_6 H 0.4051 0.0946 0.3282
C1_6 C 0.3998(4) 0.2024(5) 0.2588(5)
C2_6 C 0.4221(3) 0.1618(3) 0.2894(5)
C3_6 C 0.4767(5) 0.1635(3) 0.3002(4)
H3_6 H 0.4921 0.1359 0.3210
C4_6 C 0.5093(5) 0.2043(4) 0.2815(4)
C5_6 C 0.4866(5) 0.2448(5) 0.2510(6)
H4_6 H 0.5080 0.2730 0.2378
C6_6 C 0.4323(6) 0.2434(4) 0.2400(6)
H5_6 H 0.4169 0.2711 0.2191
C7_6 C 0.3434(5) 0.1984(5) 0.2402(3)
C8_6 C 0.5674(3) 0.2050(4) 0.2937(3)
O16_6 O 0.6797(3) 0.0881(4) 0.3326(3)
O17_6 O 0.6674(3) 0.1797(3) 0.4119(4)
O18_6 O 0.7239(5) 0.0933(6) 0.2552(4)
O19_6 O 0.7448(4) 0.2239(5) 0.4067(6)
N3_6 N 0.6201(10) 0.1911(8) 0.6094(3)
H7_6 H 0.6193 0.1981 0.6438
H9_6 H 0.5946 0.1718 0.5949
C10_6 C 0.7024(5) 0.2412(5) 0.6002(4)
C12_6 C 0.6618(3) 0.2106(5) 0.5779(3)
C14_6 C 0.6635(3) 0.1998(4) 0.5233(5)
H11_6 H 0.6359 0.1790 0.5079
C15_6 C 0.7185(4) 0.0093(5) 0.2957(4)
C16_6 C 0.7043(4) 0.2185(4) 0.4907(5)
C18_6 C 0.7448(5) 0.2490(6) 0.5134(5)
H12_6 H 0.7622 0.0080 0.2270
H13_6 H 0.7730 0.2622 0.4920
C20_6 C 0.7434(4) 0.2600(6) 0.5677(6)
H15_6 H 0.7711 0.2809 0.5831
C22_6 C 0.6984(5) 0.2598(3) 0.6566(5)
C23_6 C 0.7063(3) 0.0674(3) 0.2950(4)
C24_6 C 0.7050(4) 0.2063(3) 0.4326(3)
N2_6 N 0.6911(8) 0.8906(3) 0.3799(10)
H6_6 H 0.6981 0.8562 0.3807
H8_6 H 0.6718 0.9051 0.4054
C9_6 C 0.7412(5) 0.8998(4) 0.2976(5)
C11_6 C 0.7106(5) 0.9221(3) 0.3382(3)
C13_6 C 0.6998(4) 0.9767(5) 0.3365(3)
H10_6 H 0.6790 0.9921 0.3641
C17_6 C 0.7490(6) 0.9866(5) 0.2552(5)
C19_6 C 0.7600(6) 0.9323(6) 0.2566(4)
H14_6 H 0.7809 0.9169 0.2289
C21_6 C 0.7598(3) 0.8434(5) 0.3016(5)
Zn1_7 Zn 0.16206(5) 0.33794(5) 0.66206(5)
O1_7 O 0.2072(3) 0.2928(3) 0.7072(3)
O4_7 O 0.0881(4) 0.3326(3) 0.6797(3)
O5_7 O 0.0933(6) 0.2552(4) 0.7239(5)
C4_7 C 0.0093(5) 0.2957(4) 0.7185(4)
H4_7 H 0.0080 0.2270 0.7622
C8_7 C 0.0674(3) 0.2950(4) 0.7063(3)
O16_7 O 0.1797(3) 0.4119(4) 0.6674(3)
O17_7 O 0.1674(3) 0.3203(3) 0.5881(4)
O18_7 O 0.2239(5) 0.4067(6) 0.7448(4)
O19_7 O 0.2448(4) 0.2761(5) 0.5933(6)
N2_7 N 0.1911(8) 0.6094(3) 0.6201(10)
N3_7 N 0.1201(10) 0.3089(8) 0.3906(3)
H6_7 H 0.1981 0.6438 0.6193
H7_7 H 0.1193 0.3019 0.3562
H8_7 H 0.1718 0.5949 0.5946
H9_7 H 0.0946 0.3282 0.4051
C9_7 C 0.2412(5) 0.6002(4) 0.7024(5)
C10_7 C 0.2024(5) 0.2588(5) 0.3998(4)
C11_7 C 0.2106(5) 0.5779(3) 0.6618(3)
C12_7 C 0.1618(3) 0.2894(5) 0.4221(3)
C13_7 C 0.1998(4) 0.5233(5) 0.6635(3)
C14_7 C 0.1635(3) 0.3002(4) 0.4767(5)
H10_7 H 0.1790 0.5079 0.6359
H11_7 H 0.1359 0.3210 0.4921
C15_7 C 0.2185(4) 0.4907(5) 0.7043(4)
C16_7 C 0.2043(4) 0.2815(4) 0.5093(5)
C17_7 C 0.2490(6) 0.5134(5) 0.7448(5)
C18_7 C 0.2448(5) 0.2510(6) 0.4866(5)
H12_7 H 0.2622 0.4920 0.7730
H13_7 H 0.2730 0.2378 0.5080
C19_7 C 0.2600(6) 0.5677(6) 0.7434(4)
C20_7 C 0.2434(4) 0.2400(6) 0.4323(6)
H14_7 H 0.2809 0.5831 0.7711
H15_7 H 0.2711 0.2191 0.4169
C21_7 C 0.2598(3) 0.6566(5) 0.6984(5)
C22_7 C 0.1984(5) 0.2402(3) 0.3434(5)
C23_7 C 0.2063(3) 0.4326(3) 0.7050(4)
C24_7 C 0.2050(4) 0.2937(3) 0.5674(3)
N1_7 N 0.8906(3) 0.3799(10) 0.6911(8)
H1_7 H 0.8562 0.3807 0.6981
H2_7 H 0.9051 0.4054 0.6718
C1_7 C 0.8998(4) 0.2976(5) 0.7412(5)
C2_7 C 0.9221(3) 0.3382(3) 0.7106(5)
C3_7 C 0.9767(5) 0.3365(3) 0.6998(4)
H3_7 H 0.9921 0.3641 0.6790
C5_7 C 0.9866(5) 0.2552(5) 0.7490(6)
C6_7 C 0.9323(6) 0.2566(4) 0.7600(6)
H5_7 H 0.9169 0.2289 0.7809
C7_7 C 0.8434(5) 0.3016(5) 0.7598(3)
Zn1_8 Zn 0.33794(5) 0.66206(5) 0.16206(5)
O1_8 O 0.2928(3) 0.7072(3) 0.2072(3)
O4_8 O 0.4119(4) 0.6674(3) 0.1797(3)
O5_8 O 0.4067(6) 0.7448(4) 0.2239(5)
N1_8 N 0.6094(3) 0.6201(10) 0.1911(8)
H1_8 H 0.6438 0.6193 0.1981
H2_8 H 0.5949 0.5946 0.1718
C1_8 C 0.6002(4) 0.7024(5) 0.2412(5)
C2_8 C 0.5779(3) 0.6618(3) 0.2106(5)
C3_8 C 0.5233(5) 0.6635(3) 0.1998(4)
H3_8 H 0.5079 0.6359 0.1790
C4_8 C 0.4907(5) 0.7043(4) 0.2185(4)
C5_8 C 0.5134(5) 0.7448(5) 0.2490(6)
H4_8 H 0.4920 0.7730 0.2622
C6_8 C 0.5677(6) 0.7434(4) 0.2600(6)
H5_8 H 0.5831 0.7711 0.2809
C7_8 C 0.6566(5) 0.6984(5) 0.2598(3)
C8_8 C 0.4326(3) 0.7050(4) 0.2063(3)
O16_8 O 0.3203(3) 0.5881(4) 0.1674(3)
O17_8 O 0.3326(3) 0.6797(3) 0.0881(4)
O18_8 O 0.2761(5) 0.5933(6) 0.2448(4)
O19_8 O 0.2552(4) 0.7239(5) 0.0933(6)
N2_8 N 0.3089(8) 0.3906(3) 0.1201(10)
H6_8 H 0.3019 0.3562 0.1193
H8_8 H 0.3282 0.4051 0.0946
C9_8 C 0.2588(5) 0.3998(4) 0.2024(5)
C11_8 C 0.2894(5) 0.4221(3) 0.1618(3)
C13_8 C 0.3002(4) 0.4767(5) 0.1635(3)
H10_8 H 0.3210 0.4921 0.1359
C15_8 C 0.2815(4) 0.5093(5) 0.2043(4)
C16_8 C 0.2957(4) 0.7185(4) 0.0093(5)
C17_8 C 0.2510(6) 0.4866(5) 0.2448(5)
H12_8 H 0.2378 0.5080 0.2730
H13_8 H 0.2270 0.7622 0.0080
C19_8 C 0.2400(6) 0.4323(6) 0.2434(4)
H14_8 H 0.2191 0.4169 0.2711
C21_8 C 0.2402(3) 0.3434(5) 0.1984(5)
C23_8 C 0.2937(3) 0.5674(3) 0.2050(4)
C24_8 C 0.2950(4) 0.7063(3) 0.0674(3)
N3_8 N 0.3799(10) 0.6911(8) 0.8906(3)
H7_8 H 0.3807 0.6981 0.8562
H9_8 H 0.4054 0.6718 0.9051
C10_8 C 0.2976(5) 0.7412(5) 0.8998(4)
C12_8 C 0.3382(3) 0.7106(5) 0.9221(3)
C14_8 C 0.3365(3) 0.6998(4) 0.9767(5)
H11_8 H 0.3641 0.6790 0.9921
C18_8 C 0.2552(5) 0.7490(6) 0.9866(5)
C20_8 C 0.2566(4) 0.7600(6) 0.9323(6)
H15_8 H 0.2289 0.7809 0.9169
C22_8 C 0.3016(5) 0.7598(3) 0.8434(5)
loop_
_geom_bond_atom_site_label_1
_geom_bond_atom_site_label_2
_geom_bond_site_symmetry_1
_geom_bond_site_symmetry_2
Zn1 O1 1_555 1_555
Zn2 O1 1_555 1_555
O1 Zn5 1_555 1_555
O4 Zn1 1_555 1_555
O5 Zn2 1_555 1_555
C8 O4 1_555 1_555
Zn5 O9 1_555 1_555
Zn6 O1 1_555 1_555
O8 Zn2 1_555 1_555
O10 Zn6 1_555 1_555
O13 Zn2 1_555 1_555
O14 Zn5 1_555 1_555
O15 Zn6 1_555 1_555
O16 Zn1 1_555 1_555
O17 Zn1 1_555 1_555
O18 Zn5 1_555 1_555
O19 Zn6 1_555 1_555
C23 O16 1_555 1_555
C24 O17 1_555 1_555
O5 C8 1_555 1_555
C4 C8 1_555 1_555
O18 C23 1_555 1_555
O19 C24 1_555 1_555
C15 C23 1_555 1_555
C16 C24 1_555 1_555
Zn9 O7 1_555 1_555
Zn10 O12 1_555 1_555
O7 C22 1_555 1_555
O12 C22 1_555 1_555
N3 H7 1_555 1_555
H9 N3 1_555 1_555
C10 C12 1_555 1_555
C12 N3 1_555 1_555
C14 C12 1_555 1_555
H11 C14 1_555 1_555
C20 C10 1_555 1_555
H15 C20 1_555 1_555
C22 C10 1_555 1_555
C18 C20 1_555 1_555
Zn4 O6 1_555 1_555
Zn8 O11 1_555 1_555
O6 C21 1_555 1_555
O11 C21 1_555 1_555
N2 H6 1_555 1_555
H8 N2 1_555 1_555
C9 C11 1_555 1_555
C11 N2 1_555 1_555
C13 C11 1_555 1_555
H10 C13 1_555 1_555
C19 C9 1_555 1_555
H14 C19 1_555 1_555
C21 C9 1_555 1_555
C17 C19 1_555 1_555
O2 C7 1_555 1_555
O3 C7 1_555 1_555
N1 H1 1_555 1_555
H2 N1 1_555 1_555
C1 C2 1_555 1_555
C2 N1 1_555 1_555
C3 C2 1_555 1_555
H3 C3 1_555 1_555
C6 C1 1_555 1_555
H5 C6 1_555 1_555
C7 C1 1_555 1_555
Zn3 O2 1_555 1_555
Zn7 O3 1_555 1_555
C5 C6 1_555 1_555
Zn4_2 O6_2 1_555 1_555
Zn9 O11_2 1_555 1_555
O6_2 C21_2 1_555 1_555
O11_2 C21_2 1_555 1_555
N2_2 H6_2 1_555 1_555
H8_2 N2_2 1_555 1_555
C9_2 C11_2 1_555 1_555
C11_2 N2_2 1_555 1_555
C13_2 C11_2 1_555 1_555
H10_2 C13_2 1_555 1_555
C19_2 C9_2 1_555 1_555
H14_2 C19_2 1_555 1_555
C21_2 C9_2 1_555 1_555
C17_2 C19_2 1_555 1_555
Zn1_2 O1_2 1_555 1_555
Zn2_2 O1_2 1_555 1_555
O1_2 Zn5_2 1_555 1_555
O2_2 C7_2 1_555 1_555
O3_2 C7_2 1_555 1_555
O4_2 Zn1_2 1_555 1_555
O5_2 Zn2_2 1_555 1_555
N1_2 H1_2 1_555 1_555
H2_2 N1_2 1_555 1_555
C1_2 C2_2 1_555 1_555
C2_2 N1_2 1_555 1_555
C3_2 C2_2 1_555 1_555
H3_2 C3_2 1_555 1_555
C4_2 C3_2 1_555 1_555
C5_2 C4_2 1_555 1_555
H4_2 C5_2 1_555 1_555
C6_2 C1_2 1_555 1_555
H5_2 C6_2 1_555 1_555
C7_2 C1_2 1_555 1_555
C8_2 O4_2 1_555 1_555
Zn3_2 O2_2 1_555 1_555
Zn5_2 O9_2 1_555 1_555
Zn6_2 O1_2 1_555 1_555
Zn7_2 O3_2 1_555 1_555
Zn8 O7_2 1_555 1_555
Zn10_2 O12_2 1_555 1_555
O7_2 C22_2 1_555 1_555
O8_2 Zn2_2 1_555 1_555
O10_2 Zn6_2 1_555 1_555
O12_2 C22_2 1_555 1_555
O13_2 Zn2_2 1_555 1_555
O14_2 Zn5_2 1_555 1_555
O15_2 Zn6_2 1_555 1_555
O16_2 Zn1_2 1_555 1_555
O17_2 Zn1_2 1_555 1_555
O18_2 Zn5_2 1_555 1_555
O19_2 Zn6_2 1_555 1_555
N3_2 H7_2 1_555 1_555
H9_2 N3_2 1_555 1_555
C10_2 C12_2 1_555 1_555
C12_2 N3_2 1_555 1_555
C14_2 C12_2 1_555 1_555
H11_2 C14_2 1_555 1_555
C16_2 C14_2 1_555 1_555
C18_2 C16_2 1_555 1_555
H13_2 C18_2 1_555 1_555
C20_2 C10_2 1_555 1_555
H15_2 C20_2 1_555 1_555
C22_2 C10_2 1_555 1_555
C23_2 O16_2 1_555 1_555
C24_2 O17_2 1_555 1_555
O5_2 C8_2 1_555 1_555
C4_2 C8_2 1_555 1_555
C5_2 C6_2 1_555 1_555
O18_2 C23_2 1_555 1_555
O19_2 C24_2 1_555 1_555
C15_2 C23_2 1_555 1_555
C16_2 C24_2 1_555 1_555
C18_2 C20_2 1_555 1_555
O2_3 C7_3 1_555 1_555
O3_3 C7_3 1_555 1_555
N1_3 H1_3 1_555 1_555
H2_3 N1_3 1_555 1_555
C1_3 C2_3 1_555 1_555
C2_3 N1_3 1_555 1_555
C3_3 C2_3 1_555 1_555
H3_3 C3_3 1_555 1_555
C6_3 C1_3 1_555 1_555
H5_3 C6_3 1_555 1_555
C7_3 C1_3 1_555 1_555
Zn10_2 O2_3 1_555 1_555
Zn4 O3_3 1_555 1_555
C5_3 C6_3 1_555 1_555
Zn1_3 O1_3 1_555 1_555
Zn2_3 O1_3 1_555 1_555
O1_3 Zn5_3 1_555 1_555
O4_3 Zn1_3 1_555 1_555
O5_3 Zn2_3 1_555 1_555
C8_3 O4_3 1_555 1_555
Zn7 O6_3 1_555 1_555
Zn5_3 O9_3 1_555 1_555
Zn6_3 O1_3 1_555 1_555
Zn8_2 O11_3 1_555 1_555
Zn9_2 O7_3 1_555 1_555
Zn3_2 O12_3 1_555 1_555
O6_3 C21_3 1_555 1_555
O7_3 C22_3 1_555 1_555
O8_3 Zn2_3 1_555 1_555
O10_3 Zn6_3 1_555 1_555
O11_3 C21_3 1_555 1_555
O12_3 C22_3 1_555 1_555
O13_3 Zn2_3 1_555 1_555
O14_3 Zn5_3 1_555 1_555
O15_3 Zn6_3 1_555 1_555
O16_3 Zn1_3 1_555 1_555
O17_3 Zn1_3 1_555 1_555
O18_3 Zn5_3 1_555 1_555
O19_3 Zn6_3 1_555 1_555
N2_3 H6_3 1_555 1_555
N3_3 H7_3 1_555 1_555
H8_3 N2_3 1_555 1_555
H9_3 N3_3 1_555 1_555
C9_3 C11_3 1_555 1_555
C10_3 C12_3 1_555 1_555
C11_3 N2_3 1_555 1_555
C12_3 N3_3 1_555 1_555
C13_3 C11_3 1_555 1_555
C14_3 C12_3 1_555 1_555
H10_3 C13_3 1_555 1_555
H11_3 C14_3 1_555 1_555
C15_3 C13_3 1_555 1_555
C16_3 C14_3 1_555 1_555
C17_3 C15_3 1_555 1_555
C18_3 C16_3 1_555 1_555
H12_3 C17_3 1_555 1_555
H13_3 C18_3 1_555 1_555
C19_3 C9_3 1_555 1_555
C20_3 C10_3 1_555 1_555
H14_3 C19_3 1_555 1_555
H15_3 C20_3 1_555 1_555
C21_3 C9_3 1_555 1_555
C22_3 C10_3 1_555 1_555
C23_3 O16_3 1_555 1_555
C24_3 O17_3 1_555 1_555
O5_3 C8_3 1_555 1_555
C4_3 C8_3 1_555 1_555
O18_3 C23_3 1_555 1_555
O19_3 C24_3 1_555 1_555
C15_3 C23_3 1_555 1_555
C16_3 C24_3 1_555 1_555
C17_3 C19_3 1_555 1_555
C18_3 C20_3 1_555 1_555
Zn8_2 O7_4 1_555 1_555
Zn3 O12_4 1_555 1_555
O7_4 C22_4 1_555 1_555
O12_4 C22_4 1_555 1_555
N3_4 H7_4 1_555 1_555
H9_4 N3_4 1_555 1_555
C10_4 C12_4 1_555 1_555
C12_4 N3_4 1_555 1_555
C14_4 C12_4 1_555 1_555
H11_4 C14_4 1_555 1_555
C20_4 C10_4 1_555 1_555
H15_4 C20_4 1_555 1_555
C22_4 C10_4 1_555 1_555
C18_4 C20_4 1_555 1_555
Zn1_4 O1_4 1_555 1_555
Zn2_4 O1_4 1_555 1_555
O1_4 Zn5_4 1_555 1_555
O2_4 C7_4 1_555 1_555
O3_4 C7_4 1_555 1_555
O4_4 Zn1_4 1_555 1_555
O5_4 Zn2_4 1_555 1_555
N1_4 H1_4 1_555 1_555
H2_4 N1_4 1_555 1_555
C1_4 C2_4 1_555 1_555
C2_4 N1_4 1_555 1_555
C3_4 C2_4 1_555 1_555
H3_4 C3_4 1_555 1_555
C4_4 C3_4 1_555 1_555
C5_4 C4_4 1_555 1_555
H4_4 C5_4 1_555 1_555
C6_4 C1_4 1_555 1_555
H5_4 C6_4 1_555 1_555
C7_4 C1_4 1_555 1_555
C8_4 O4_4 1_555 1_555
Zn10 O2_4 1_555 1_555
Zn7_2 O6_4 1_555 1_555
Zn5_4 O9_4 1_555 1_555
Zn6_4 O1_4 1_555 1_555
Zn4_2 O3_4 1_555 1_555
Zn9_2 O11_4 1_555 1_555
O6_4 C21_4 1_555 1_555
O8_4 Zn2_4 1_555 1_555
O10_4 Zn6_4 1_555 1_555
O11_4 C21_4 1_555 1_555
O13_4 Zn2_4 1_555 1_555
O14_4 Zn5_4 1_555 1_555
O15_4 Zn6_4 1_555 1_555
O16_4 Zn1_4 1_555 1_555
O17_4 Zn1_4 1_555 1_555
O18_4 Zn5_4 1_555 1_555
O19_4 Zn6_4 1_555 1_555
N2_4 H6_4 1_555 1_555
H8_4 N2_4 1_555 1_555
C9_4 C11_4 1_555 1_555
C11_4 N2_4 1_555 1_555
C13_4 C11_4 1_555 1_555
H10_4 C13_4 1_555 1_555
C15_4 C13_4 1_555 1_555
C17_4 C15_4 1_555 1_555
H12_4 C17_4 1_555 1_555
C19_4 C9_4 1_555 1_555
H14_4 C19_4 1_555 1_555
C21_4 C9_4 1_555 1_555
C23_4 O16_4 1_555 1_555
C24_4 O17_4 1_555 1_555
O5_4 C8_4 1_555 1_555
C4_4 C8_4 1_555 1_555
C5_4 C6_4 1_555 1_555
O18_4 C23_4 1_555 1_555
O19_4 C24_4 1_555 1_555
C15_4 C23_4 1_555 1_555
C16_4 C24_4 1_555 1_555
C17_4 C19_4 1_555 1_555
O9_2 C7_5 1_555 1_555
O15_2 C7_5 1_555 1_555
N1_5 H1_5 1_555 1_555
H2_5 N1_5 1_555 1_555
C1_5 C2_5 1_555 1_555
C2_5 N1_5 1_555 1_555
C3_5 C2_5 1_555 1_555
H3_5 C3_5 1_555 1_555
C6_5 C1_5 1_555 1_555
H5_5 C6_5 1_555 1_555
C7_5 C1_5 1_555 1_555
C5_5 C6_5 1_555 1_555
O10_4 C21_5 1_555 1_555
O13_4 C21_5 1_555 1_555
N2_5 H6_5 1_555 1_555
H8_5 N2_5 1_555 1_555
C9_5 C11_5 1_555 1_555
C11_5 N2_5 1_555 1_555
C13_5 C11_5 1_555 1_555
H10_5 C13_5 1_555 1_555
C19_5 C9_5 1_555 1_555
H14_5 C19_5 1_555 1_555
C21_5 C9_5 1_555 1_555
C17_5 C19_5 1_555 1_555
O8_3 C22_5 1_555 1_555
O14_3 C22_5 1_555 1_555
N3_5 H7_5 1_555 1_555
H9_5 N3_5 1_555 1_555
C10_5 C12_5 1_555 1_555
C12_5 N3_5 1_555 1_555
C14_5 C12_5 1_555 1_555
H11_5 C14_5 1_555 1_555
C20_5 C10_5 1_555 1_555
H15_5 C20_5 1_555 1_555
C22_5 C10_5 1_555 1_555
C18_5 C20_5 1_555 1_555
Zn1_5 O1_5 1_555 1_555
Zn9_2 O1_5 1_555 1_555
O1_5 Zn3_2 1_555 1_555
O4_5 Zn1_5 1_555 1_555
O5_5 Zn9_2 1_555 1_555
C8_5 O4_5 1_555 1_555
Zn7_2 O1_5 1_555 1_555
O16_5 Zn1_5 1_555 1_555
O17_5 Zn1_5 1_555 1_555
O18_5 Zn3_2 1_555 1_555
O19_5 Zn7_2 1_555 1_555
C23_5 O16_5 1_555 1_555
C24_5 O17_5 1_555 1_555
O5_5 C8_5 1_555 1_555
C4_5 C8_5 1_555 1_555
O18_5 C23_5 1_555 1_555
O19_5 C24_5 1_555 1_555
C15_5 C23_5 1_555 1_555
C16_5 C24_5 1_555 1_555
Zn1_6 O1_6 1_555 1_555
Zn8_2 O1_6 1_555 1_555
O1_6 Zn3 1_555 1_555
O9 C7_6 1_555 1_555
O15 C7_6 1_555 1_555
O4_6 Zn1_6 1_555 1_555
O5_6 Zn8_2 1_555 1_555
N1_6 H1_6 1_555 1_555
H2_6 N1_6 1_555 1_555
C1_6 C2_6 1_555 1_555
C2_6 N1_6 1_555 1_555
C3_6 C2_6 1_555 1_555
H3_6 C3_6 1_555 1_555
C4_6 C3_6 1_555 1_555
C5_6 C4_6 1_555 1_555
H4_6 C5_6 1_555 1_555
C6_6 C1_6 1_555 1_555
H5_6 C6_6 1_555 1_555
C7_6 C1_6 1_555 1_555
C8_6 O4_6 1_555 1_555
Zn7 O1_6 1_555 1_555
O8_4 C22_6 1_555 1_555
O14_4 C22_6 1_555 1_555
O16_6 Zn1_6 1_555 1_555
O17_6 Zn1_6 1_555 1_555
O18_6 Zn3 1_555 1_555
O19_6 Zn7 1_555 1_555
N3_6 H7_6 1_555 1_555
H9_6 N3_6 1_555 1_555
C10_6 C12_6 1_555 1_555
C12_6 N3_6 1_555 1_555
C14_6 C12_6 1_555 1_555
H11_6 C14_6 1_555 1_555
C16_6 C14_6 1_555 1_555
C18_6 C16_6 1_555 1_555
H13_6 C18_6 1_555 1_555
C20_6 C10_6 1_555 1_555
H15_6 C20_6 1_555 1_555
C22_6 C10_6 1_555 1_555
C23_6 O16_6 1_555 1_555
C24_6 O17_6 1_555 1_555
O5_6 C8_6 1_555 1_555
C4_6 C8_6 1_555 1_555
C5_6 C6_6 1_555 1_555
O18_6 C23_6 1_555 1_555
O19_6 C24_6 1_555 1_555
C15_6 C23_6 1_555 1_555
C16_6 C24_6 1_555 1_555
C18_6 C20_6 1_555 1_555
O10_3 C21_6 1_555 1_555
O13_3 C21_6 1_555 1_555
N2_6 H6_6 1_555 1_555
H8_6 N2_6 1_555 1_555
C9_6 C11_6 1_555 1_555
C11_6 N2_6 1_555 1_555
C13_6 C11_6 1_555 1_555
H10_6 C13_6 1_555 1_555
C19_6 C9_6 1_555 1_555
H14_6 C19_6 1_555 1_555
C21_6 C9_6 1_555 1_555
C17_6 C19_6 1_555 1_555
Zn1_7 O1_7 1_555 1_555
Zn9 O1_7 1_555 1_555
O1_7 Zn10 1_555 1_555
O4_7 Zn1_7 1_555 1_555
O5_7 Zn9 1_555 1_555
C8_7 O4_7 1_555 1_555
Zn4_2 O1_7 1_555 1_555
O10_2 C21_7 1_555 1_555
O8 C22_7 1_555 1_555
O13_2 C21_7 1_555 1_555
O14 C22_7 1_555 1_555
O16_7 Zn1_7 1_555 1_555
O17_7 Zn1_7 1_555 1_555
O18_7 Zn10 1_555 1_555
O19_7 Zn4_2 1_555 1_555
N2_7 H6_7 1_555 1_555
N3_7 H7_7 1_555 1_555
H8_7 N2_7 1_555 1_555
H9_7 N3_7 1_555 1_555
C9_7 C11_7 1_555 1_555
C10_7 C12_7 1_555 1_555
C11_7 N2_7 1_555 1_555
C12_7 N3_7 1_555 1_555
C13_7 C11_7 1_555 1_555
C14_7 C12_7 1_555 1_555
H10_7 C13_7 1_555 1_555
H11_7 C14_7 1_555 1_555
C15_7 C13_7 1_555 1_555
C16_7 C14_7 1_555 1_555
C17_7 C15_7 1_555 1_555
C18_7 C16_7 1_555 1_555
H12_7 C17_7 1_555 1_555
H13_7 C18_7 1_555 1_555
C19_7 C9_7 1_555 1_555
C20_7 C10_7 1_555 1_555
H14_7 C19_7 1_555 1_555
H15_7 C20_7 1_555 1_555
C21_7 C9_7 1_555 1_555
C22_7 C10_7 1_555 1_555
C23_7 O16_7 1_555 1_555
C24_7 O17_7 1_555 1_555
O5_7 C8_7 1_555 1_555
C4_7 C8_7 1_555 1_555
O18_7 C23_7 1_555 1_555
O19_7 C24_7 1_555 1_555
C15_7 C23_7 1_555 1_555
C16_7 C24_7 1_555 1_555
C17_7 C19_7 1_555 1_555
C18_7 C20_7 1_555 1_555
O9_4 C7_7 1_555 1_555
O15_4 C7_7 1_555 1_555
N1_7 H1_7 1_555 1_555
H2_7 N1_7 1_555 1_555
C1_7 C2_7 1_555 1_555
C2_7 N1_7 1_555 1_555
C3_7 C2_7 1_555 1_555
H3_7 C3_7 1_555 1_555
C6_7 C1_7 1_555 1_555
H5_7 C6_7 1_555 1_555
C7_7 C1_7 1_555 1_555
C5_7 C6_7 1_555 1_555
Zn1_8 O1_8 1_555 1_555
Zn8 O1_8 1_555 1_555
O1_8 Zn10_2 1_555 1_555
O9_3 C7_8 1_555 1_555
O15_3 C7_8 1_555 1_555
O4_8 Zn1_8 1_555 1_555
O5_8 Zn8 1_555 1_555
N1_8 H1_8 1_555 1_555
H2_8 N1_8 1_555 1_555
C1_8 C2_8 1_555 1_555
C2_8 N1_8 1_555 1_555
C3_8 C2_8 1_555 1_555
H3_8 C3_8 1_555 1_555
C4_8 C3_8 1_555 1_555
C5_8 C4_8 1_555 1_555
H4_8 C5_8 1_555 1_555
C6_8 C1_8 1_555 1_555
H5_8 C6_8 1_555 1_555
C7_8 C1_8 1_555 1_555
C8_8 O4_8 1_555 1_555
Zn4 O1_8 1_555 1_555
O10 C21_8 1_555 1_555
O13 C21_8 1_555 1_555
O16_8 Zn1_8 1_555 1_555
O17_8 Zn1_8 1_555 1_555
O18_8 Zn10_2 1_555 1_555
O19_8 Zn4 1_555 1_555
N2_8 H6_8 1_555 1_555
H8_8 N2_8 1_555 1_555
C9_8 C11_8 1_555 1_555
C11_8 N2_8 1_555 1_555
C13_8 C11_8 1_555 1_555
H10_8 C13_8 1_555 1_555
C15_8 C13_8 1_555 1_555
C17_8 C15_8 1_555 1_555
H12_8 C17_8 1_555 1_555
C19_8 C9_8 1_555 1_555
H14_8 C19_8 1_555 1_555
C21_8 C9_8 1_555 1_555
C23_8 O16_8 1_555 1_555
C24_8 O17_8 1_555 1_555
O5_8 C8_8 1_555 1_555
C4_8 C8_8 1_555 1_555
C5_8 C6_8 1_555 1_555
O18_8 C23_8 1_555 1_555
O19_8 C24_8 1_555 1_555
C15_8 C23_8 1_555 1_555
C16_8 C24_8 1_555 1_555
C17_8 C19_8 1_555 1_555
O8_2 C22_8 1_555 1_555
O14_2 C22_8 1_555 1_555
N3_8 H7_8 1_555 1_555
H9_8 N3_8 1_555 1_555
C10_8 C12_8 1_555 1_555
C12_8 N3_8 1_555 1_555
C14_8 C12_8 1_555 1_555
H11_8 C14_8 1_555 1_555
C20_8 C10_8 1_555 1_555
H15_8 C20_8 1_555 1_555
C22_8 C10_8 1_555 1_555
C18_8 C20_8 1_555 1_555

#END
