
###############################################################################
#
# This file contains modified crystal structure data generated from the
# MOF subset of the Cambridge Structural Database (CSD) v543 
# hosted by the Cambridge Crystallographic Data Centre (CCDC).
#
# This work is licensed under the Creative Commons
# Attribution-NonCommercial-ShareAlike 4.0 International License.
# To view a copy of this license, visit
# http://creativecommons.org/licenses/by-nc-sa/4.0/
# or send a letter to
# Creative Commons, PO Box 1866, Mountain View, CA 94042, USA.
#
# CIF created using the CSD Python API on 29 September 2022
# The structure has been converted into the P1 space group
# The structure has a 3D framework
# The original CSD entry VURQIJ is in the orthorhombic crystal system
# The framework has been calculated to contain at least 10.0% void space
# The void calculation uses a probe of radius 1.32A, grid spacing 0.4
#
###############################################################################

data_VURQIJ
_chemical_formula_moiety         '(C160 H128 Cd8 N32 O40)n'
_symmetry_cell_setting           triclinic
_symmetry_space_group_name_H-M   'P 1'
_symmetry_Int_Tables_number      1
_space_group_name_Hall           'P 1'
loop_
_symmetry_equiv_pos_site_id
_symmetry_equiv_pos_as_xyz
1 x,y,z
_cell_length_a                   15.919(2)
_cell_length_b                   17.295(2)
_cell_length_c                   17.987(3)
_cell_angle_alpha                90
_cell_angle_beta                 90
_cell_angle_gamma                90
_cell_volume                     4952.16
loop_
_atom_site_label
_atom_site_type_symbol
_atom_site_fract_x
_atom_site_fract_y
_atom_site_fract_z
C19 C 0.1381(4) 0.0237(4) 0.5557(4)
H15 H 0.1473 0.0734 0.5737
Cd3 Cd 0.32050(2) 0.01540(2) 0.46081(2)
O3 O 0.6682(3) 0.8751(2) 0.0857(2)
N3 N 0.4196(3) 0.5885(2) 0.0344(3)
N4 N 0.3082(3) 0.5158(3) 0.0102(3)
C11 C 0.6109(4) 0.8661(3) 0.0383(4)
C12 C 0.5631(3) 0.7911(3) 0.0368(3)
C13 C 0.5648(4) 0.7417(3) 0.0955(3)
H10 H 0.5974 0.7538 0.1367
C14 C 0.5192(4) 0.6738(3) 0.0952(4)
H11 H 0.5202 0.6413 0.1364
C15 C 0.4722(4) 0.6544(3) 0.0336(3)
C18 C 0.4300(4) 0.5196(4) 0.0706(4)
H14 H 0.4756 0.5054 0.1000
C19_2 C 0.3619(4) 0.4763(4) 0.0557(4)
H15_2 H 0.3527 0.4266 0.0737
O4 O 0.5920(3) 0.9183(2) 0.9927(2)
C16 C 0.4741(4) 0.7010(3) 0.9734(3)
H12 H 0.4458 0.6864 0.9304
C17 C 0.5180(4) 0.7706(3) 0.9746(3)
H13 H 0.5168 0.8032 0.9335
C20 C 0.3461(4) 0.5818(3) 0.9980(4)
H16 H 0.3243 0.6202 0.9674
Cd3_2 Cd 0.17950(2) 0.48460(2) 0.96081(2)
N6 N 0.8082(3) 0.9842(3) 0.9898(3)
O2 O 0.1456(3) 0.4125(2) 0.0765(2)
O4_2 O 0.0920(3) 0.5817(2) 0.0073(2)
N1 N 0.2501(3) 0.0953(2) 0.2375(2)
N2 N 0.2756(3) 0.0302(2) 0.3411(3)
C1 C 0.1833(4) 0.3543(3) 0.0515(3)
C2 C 0.1988(3) 0.2855(3) 0.1005(3)
C3 C 0.2623(4) 0.2353(4) 0.0850(3)
H3 H 0.2951 0.2437 0.0430
C4 C 0.2795(4) 0.1727(4) 0.1293(3)
H4 H 0.3239 0.1399 0.1178
C5 C 0.2315(4) 0.1590(3) 0.1897(3)
C6 C 0.1656(5) 0.2072(4) 0.2068(3)
H5 H 0.1316 0.1970 0.2476
C7 C 0.1507(4) 0.2708(4) 0.1628(4)
H6 H 0.1074 0.3045 0.1752
C8 C 0.2839(5) 0.0249(3) 0.2167(3)
H7 H 0.2945 0.0076 0.1686
C10 C 0.2468(4) 0.0946(3) 0.3118(3)
H9 H 0.2262 0.1355 0.3400
C17_2 C 0.0180(4) 0.7294(3) 0.0254(3)
H13_2 H 0.0168 0.6968 0.0665
O1 O 0.2128(3) 0.3530(2) 0.9865(2)
O3_2 O 0.1682(3) 0.6249(2) 0.9143(2)
O5 O 0.0510(3) 0.4455(3) 0.9078(2)
H1 H 0.066(4) 0.3997(14) 0.898(3)
H2 H 0.006(2) 0.446(4) 0.934(3)
C11_2 C 0.1109(4) 0.6339(3) 0.9617(4)
C12_2 C 0.0631(3) 0.7089(3) 0.9632(3)
C13_2 C 0.0648(4) 0.7583(3) 0.9045(3)
H10_2 H 0.0974 0.7462 0.8633
C14_2 C 0.0192(4) 0.8262(3) 0.9048(4)
H11_2 H 0.0202 0.8587 0.8636
N5 N 0.2244(3) 0.4698(2) 0.8411(3)
N3_2 N 0.9196(3) 0.9115(2) 0.9656(3)
C15_2 C 0.9722(4) 0.8456(3) 0.9664(3)
C18_2 C 0.9300(4) 0.9804(4) 0.9294(4)
H14_2 H 0.9756 0.9946 0.9000
O1_2 O 0.2872(3) 0.1470(2) 0.4865(2)
O2_2 O 0.3544(3) 0.0875(2) 0.5765(2)
O5_2 O 0.4490(3) 0.0545(3) 0.4078(2)
H1_2 H 0.434(4) 0.1003(14) 0.398(3)
H2_2 H 0.494(2) 0.054(4) 0.434(3)
N1_2 N 0.2499(3) 0.4047(2) 0.7375(2)
C1_2 C 0.3167(4) 0.1457(3) 0.5515(3)
C2_2 C 0.3012(3) 0.2145(3) 0.6005(3)
C3_2 C 0.2377(4) 0.2647(4) 0.5850(3)
H3_2 H 0.2049 0.2563 0.5430
C4_2 C 0.2205(4) 0.3273(4) 0.6293(3)
H4_2 H 0.1761 0.3601 0.6178
C5_2 C 0.2685(4) 0.3410(3) 0.6897(3)
C6_2 C 0.3344(5) 0.2928(4) 0.7068(3)
H5_2 H 0.3684 0.3030 0.7476
C7_2 C 0.3493(4) 0.2292(4) 0.6628(4)
H6_2 H 0.3926 0.1955 0.6752
C8_2 C 0.2161(5) 0.4751(3) 0.7167(3)
H7_2 H 0.2055 0.4924 0.6686
C9 C 0.2019(5) 0.5132(4) 0.7803(4)
H8 H 0.1795 0.5628 0.7830
C10_2 C 0.2532(4) 0.4054(3) 0.8118(3)
H9_2 H 0.2738 0.3645 0.8400
N3_3 N 0.0804(3) 0.9115(2) 0.5344(3)
N4_2 N 0.1918(3) 0.9842(3) 0.5102(3)
C15_3 C 0.0278(4) 0.8456(3) 0.5336(3)
C16_2 C 0.0259(4) 0.7990(3) 0.4734(3)
H12_2 H 0.0542 0.8136 0.4304
C18_3 C 0.0700(4) 0.9804(4) 0.5706(4)
H14_3 H 0.0244 0.9946 0.6000
C20_2 C 0.1539(4) 0.9182(3) 0.4980(4)
H16_2 H 0.1757 0.8798 0.4674
Cd1 Cd 0.82050(2) 0.48460(2) 0.53919(2)
O1_3 O 0.7872(3) 0.3530(2) 0.5135(2)
O2_3 O 0.8544(3) 0.4125(2) 0.4235(2)
O3_3 O 0.8318(3) 0.6249(2) 0.5857(2)
O4_3 O 0.9080(3) 0.5817(2) 0.4927(2)
O5_3 O 0.9490(3) 0.4455(3) 0.5922(2)
H1_3 H 0.934(4) 0.3997(14) 0.602(3)
H2_3 H 0.994(2) 0.446(4) 0.566(3)
N1_3 N 0.7499(3) 0.0953(2) 0.2625(2)
N2_2 N 0.7244(3) 0.0302(2) 0.1589(3)
C1_3 C 0.8167(4) 0.3543(3) 0.4485(3)
C2_3 C 0.8012(3) 0.2855(3) 0.3995(3)
C3_3 C 0.7377(4) 0.2353(4) 0.4150(3)
H3_3 H 0.7049 0.2437 0.4570
C4_3 C 0.7205(4) 0.1727(4) 0.3707(3)
H4_3 H 0.6761 0.1399 0.3822
C5_3 C 0.7685(4) 0.1590(3) 0.3103(3)
C6_3 C 0.8344(5) 0.2072(4) 0.2932(3)
H5_3 H 0.8684 0.1970 0.2524
C7_3 C 0.8493(4) 0.2708(4) 0.3372(4)
H6_3 H 0.8926 0.3045 0.3248
C8_3 C 0.7161(5) 0.0249(3) 0.2833(3)
H7_3 H 0.7055 0.0076 0.3314
C10_3 C 0.7532(4) 0.0946(3) 0.1882(3)
H9_3 H 0.7738 0.1355 0.1600
C11_3 C 0.8891(4) 0.6339(3) 0.5383(4)
C12_3 C 0.9369(3) 0.7089(3) 0.5368(3)
C13_3 C 0.9352(4) 0.7583(3) 0.5955(3)
H10_3 H 0.9026 0.7462 0.6367
C14_3 C 0.9808(4) 0.8262(3) 0.5952(4)
H11_3 H 0.9798 0.8587 0.6364
C17_3 C 0.9820(4) 0.7294(3) 0.4746(3)
H13_3 H 0.9832 0.6968 0.4335
Cd2 Cd 0.67950(2) 0.01540(2) 0.03919(2)
N5_2 N 0.7756(3) 0.4698(2) 0.6589(3)
N6_2 N 0.6918(3) 0.5158(3) 0.4898(3)
O1_4 O 0.7128(3) 0.1470(2) 0.0135(2)
O5_4 O 0.5510(3) 0.0545(3) 0.0922(2)
H1_4 H 0.566(4) 0.1003(14) 0.102(3)
H2_4 H 0.506(2) 0.054(4) 0.066(3)
O2_4 O 0.6456(3) 0.0875(2) 0.9235(2)
N1_4 N 0.7501(3) 0.4047(2) 0.7625(2)
C1_4 C 0.6833(4) 0.1457(3) 0.9485(3)
C2_4 C 0.6988(3) 0.2145(3) 0.8995(3)
C3_4 C 0.7623(4) 0.2647(4) 0.9150(3)
H3_4 H 0.7951 0.2563 0.9570
C4_4 C 0.7795(4) 0.3273(4) 0.8707(3)
H4_4 H 0.8239 0.3601 0.8822
C5_4 C 0.7315(4) 0.3410(3) 0.8103(3)
C6_4 C 0.6656(5) 0.2928(4) 0.7932(3)
H5_4 H 0.6316 0.3030 0.7524
C7_4 C 0.6507(4) 0.2292(4) 0.8372(4)
H6_4 H 0.6074 0.1955 0.8248
C8_4 C 0.7839(5) 0.4751(3) 0.7833(3)
H7_4 H 0.7945 0.4924 0.8314
C9_2 C 0.7981(5) 0.5132(4) 0.7197(4)
H8_2 H 0.8205 0.5628 0.7170
C10_4 C 0.7468(4) 0.4054(3) 0.6882(3)
H9_4 H 0.7262 0.3645 0.6600
O3_4 O 0.3318(3) 0.8751(2) 0.4143(2)
O4_4 O 0.4080(3) 0.9183(2) 0.5073(2)
N3_4 N 0.5804(3) 0.5885(2) 0.4656(3)
C11_4 C 0.3891(4) 0.8661(3) 0.4617(4)
C12_4 C 0.4369(3) 0.7911(3) 0.4632(3)
C13_4 C 0.4352(4) 0.7417(3) 0.4045(3)
H10_4 H 0.4026 0.7538 0.3633
C14_4 C 0.4808(4) 0.6738(3) 0.4048(4)
H11_4 H 0.4798 0.6413 0.3636
C15_4 C 0.5278(4) 0.6544(3) 0.4664(3)
C16_3 C 0.5259(4) 0.7010(3) 0.5266(3)
H12_3 H 0.5542 0.6864 0.5696
C17_4 C 0.4820(4) 0.7706(3) 0.5254(3)
H13_4 H 0.4832 0.8032 0.5665
C18_4 C 0.5700(4) 0.5196(4) 0.4294(4)
H14_4 H 0.5244 0.5054 0.4000
C19_3 C 0.6381(4) 0.4763(4) 0.4443(4)
H15_3 H 0.6473 0.4266 0.4263
C20_3 C 0.6539(4) 0.5818(3) 0.5020(4)
H16_3 H 0.6757 0.6202 0.5326
C9_3 C 0.7019(5) 0.9868(4) 0.2197(4)
H8_3 H 0.6795 0.9372 0.2170
C9_4 C 0.2981(5) 0.9868(4) 0.2803(4)
H8_4 H 0.3205 0.9372 0.2830
C19_4 C 0.8619(4) 0.0237(4) 0.9443(4)
H15_4 H 0.8527 0.0734 0.9263
C16_4 C 0.9741(4) 0.7990(3) 0.0266(3)
H12_4 H 0.9458 0.8136 0.0696
C20_4 C 0.8461(4) 0.9182(3) 0.0020(4)
H16_4 H 0.8243 0.8798 0.0326
C9_5 C 0.2981(5) 0.0132(4) 0.7803(4)
H8_5 H 0.3205 0.0628 0.7830
Cd1_2 Cd 0.17950(2) 0.51540(2) 0.46081(2)
O1_5 O 0.2128(3) 0.6470(2) 0.4865(2)
O2_5 O 0.1456(3) 0.5875(2) 0.5765(2)
O3_5 O 0.1682(3) 0.3751(2) 0.4143(2)
O4_5 O 0.0920(3) 0.4183(2) 0.5073(2)
O5_5 O 0.0510(3) 0.5545(3) 0.4078(2)
H1_5 H 0.066(4) 0.6003(14) 0.398(3)
H2_5 H 0.006(2) 0.554(4) 0.434(3)
N1_5 N 0.2501(3) 0.9047(2) 0.7375(2)
N2_3 N 0.2756(3) 0.9698(2) 0.8411(3)
C1_5 C 0.1833(4) 0.6457(3) 0.5515(3)
C2_5 C 0.1988(3) 0.7145(3) 0.6005(3)
C3_5 C 0.2623(4) 0.7647(4) 0.5850(3)
H3_5 H 0.2951 0.7563 0.5430
C4_5 C 0.2795(4) 0.8273(4) 0.6293(3)
H4_5 H 0.3239 0.8601 0.6178
C5_5 C 0.2315(4) 0.8410(3) 0.6897(3)
C6_5 C 0.1656(5) 0.7928(4) 0.7068(3)
H5_5 H 0.1316 0.8030 0.7476
C7_5 C 0.1507(4) 0.7292(4) 0.6628(4)
H6_5 H 0.1074 0.6955 0.6752
C8_5 C 0.2839(5) 0.9751(3) 0.7167(3)
H7_5 H 0.2945 0.9924 0.6686
C10_5 C 0.2468(4) 0.9054(3) 0.8118(3)
H9_5 H 0.2262 0.8645 0.8400
C11_5 C 0.1109(4) 0.3661(3) 0.4617(4)
C12_5 C 0.0631(3) 0.2911(3) 0.4632(3)
C13_5 C 0.0648(4) 0.2417(3) 0.4045(3)
H10_5 H 0.0974 0.2538 0.3633
C14_5 C 0.0192(4) 0.1738(3) 0.4048(4)
H11_5 H 0.0202 0.1413 0.3636
C17_5 C 0.0180(4) 0.2706(3) 0.5254(3)
H13_5 H 0.0168 0.3032 0.5665
Cd2_2 Cd 0.32050(2) 0.98460(2) 0.96081(2)
N5_3 N 0.2244(3) 0.5302(2) 0.3411(3)
N6_3 N 0.3082(3) 0.4842(3) 0.5102(3)
N3_5 N 0.9196(3) 0.0885(2) 0.4656(3)
N4_3 N 0.8082(3) 0.0158(3) 0.4898(3)
C15_5 C 0.9722(4) 0.1544(3) 0.4664(3)
C16_5 C 0.9741(4) 0.2010(3) 0.5266(3)
H12_5 H 0.9458 0.1864 0.5696
C18_5 C 0.9300(4) 0.0196(4) 0.4294(4)
H14_5 H 0.9756 0.0054 0.4000
C20_5 C 0.8461(4) 0.0818(3) 0.5020(4)
H16_5 H 0.8243 0.1202 0.5326
O2_6 O 0.3544(3) 0.9125(2) 0.0765(2)
N1_6 N 0.2499(3) 0.5953(2) 0.2375(2)
C1_6 C 0.3167(4) 0.8543(3) 0.0515(3)
C2_6 C 0.3012(3) 0.7855(3) 0.1005(3)
C3_6 C 0.2377(4) 0.7353(4) 0.0850(3)
H3_6 H 0.2049 0.7437 0.0430
C4_6 C 0.2205(4) 0.6727(4) 0.1293(3)
H4_6 H 0.1761 0.6399 0.1178
C5_6 C 0.2685(4) 0.6590(3) 0.1897(3)
C6_6 C 0.3344(5) 0.7072(4) 0.2068(3)
H5_6 H 0.3684 0.6970 0.2476
C7_6 C 0.3493(4) 0.7708(4) 0.1628(4)
H6_6 H 0.3926 0.8045 0.1752
C8_6 C 0.2161(5) 0.5249(3) 0.2167(3)
H7_6 H 0.2055 0.5076 0.1686
C9_6 C 0.2019(5) 0.4868(4) 0.2803(4)
H8_6 H 0.1795 0.4372 0.2830
C10_6 C 0.2532(4) 0.5946(3) 0.3118(3)
H9_6 H 0.2738 0.6355 0.3400
O1_6 O 0.2872(3) 0.8530(2) 0.9865(2)
O5_6 O 0.4490(3) 0.9455(3) 0.9078(2)
H1_6 H 0.434(4) 0.8997(14) 0.898(3)
H2_6 H 0.494(2) 0.946(4) 0.934(3)
O3_6 O 0.6682(3) 0.1249(2) 0.5857(2)
O4_6 O 0.5920(3) 0.0817(2) 0.4927(2)
N3_6 N 0.4196(3) 0.4115(2) 0.5344(3)
C11_6 C 0.6109(4) 0.1339(3) 0.5383(4)
C12_6 C 0.5631(3) 0.2089(3) 0.5368(3)
C13_6 C 0.5648(4) 0.2583(3) 0.5955(3)
H10_6 H 0.5974 0.2462 0.6367
C14_6 C 0.5192(4) 0.3262(3) 0.5952(4)
H11_6 H 0.5202 0.3587 0.6364
C15_6 C 0.4722(4) 0.3456(3) 0.5336(3)
C16_6 C 0.4741(4) 0.2990(3) 0.4734(3)
H12_6 H 0.4458 0.3136 0.4304
C17_6 C 0.5180(4) 0.2294(3) 0.4746(3)
H13_6 H 0.5168 0.1968 0.4335
C18_6 C 0.4300(4) 0.4804(4) 0.5706(4)
H14_6 H 0.4756 0.4946 0.6000
C19_5 C 0.3619(4) 0.5237(4) 0.5557(4)
H15_5 H 0.3527 0.5734 0.5737
C20_6 C 0.3461(4) 0.4182(3) 0.4980(4)
H16_6 H 0.3243 0.3798 0.4674
C19_6 C 0.8619(4) 0.9763(4) 0.4443(4)
H15_6 H 0.8527 0.9266 0.4263
Cd3_3 Cd 0.67950(2) 0.98460(2) 0.53919(2)
O4_7 O 0.4080(3) 0.0817(2) 0.0073(2)
C16_7 C 0.5259(4) 0.2990(3) 0.0266(3)
H12_7 H 0.5542 0.3136 0.0696
C17_7 C 0.4820(4) 0.2294(3) 0.0254(3)
H13_7 H 0.4832 0.1968 0.0665
C20_7 C 0.6539(4) 0.4182(3) 0.0020(4)
H16_7 H 0.6757 0.3798 0.0326
Cd3_4 Cd 0.82050(2) 0.51540(2) 0.03919(2)
N6_4 N 0.1918(3) 0.0158(3) 0.0102(3)
O3_7 O 0.3318(3) 0.1249(2) 0.9143(2)
N3_7 N 0.5804(3) 0.4115(2) 0.9656(3)
N4_4 N 0.6918(3) 0.4842(3) 0.9898(3)
C11_7 C 0.3891(4) 0.1339(3) 0.9617(4)
C12_7 C 0.4369(3) 0.2089(3) 0.9632(3)
C13_7 C 0.4352(4) 0.2583(3) 0.9045(3)
H10_7 H 0.4026 0.2462 0.8633
C14_7 C 0.4808(4) 0.3262(3) 0.9048(4)
H11_7 H 0.4798 0.3587 0.8636
C15_7 C 0.5278(4) 0.3456(3) 0.9664(3)
C18_7 C 0.5700(4) 0.4804(4) 0.9294(4)
H14_7 H 0.5244 0.4946 0.9000
C19_7 C 0.6381(4) 0.5237(4) 0.9443(4)
H15_7 H 0.6473 0.5734 0.9263
N3_8 N 0.0804(3) 0.0885(2) 0.0344(3)
C15_8 C 0.0278(4) 0.1544(3) 0.0336(3)
C18_8 C 0.0700(4) 0.0196(4) 0.0706(4)
H14_8 H 0.0244 0.0054 0.1000
O1_7 O 0.7872(3) 0.6470(2) 0.0135(2)
O3_8 O 0.8318(3) 0.3751(2) 0.0857(2)
O5_7 O 0.9490(3) 0.5545(3) 0.0922(2)
H1_7 H 0.934(4) 0.6003(14) 0.102(3)
H2_7 H 0.994(2) 0.554(4) 0.066(3)
C11_8 C 0.8891(4) 0.3661(3) 0.0383(4)
C12_8 C 0.9369(3) 0.2911(3) 0.0368(3)
C13_8 C 0.9352(4) 0.2417(3) 0.0955(3)
H10_8 H 0.9026 0.2538 0.1367
C14_8 C 0.9808(4) 0.1738(3) 0.0952(4)
H11_8 H 0.9798 0.1413 0.1364
N5_4 N 0.7756(3) 0.5302(2) 0.1589(3)
O2_7 O 0.8544(3) 0.5875(2) 0.9235(2)
O4_8 O 0.9080(3) 0.4183(2) 0.9927(2)
N1_7 N 0.7499(3) 0.9047(2) 0.7625(2)
N2_4 N 0.7244(3) 0.9698(2) 0.6589(3)
C1_7 C 0.8167(4) 0.6457(3) 0.9485(3)
C2_7 C 0.8012(3) 0.7145(3) 0.8995(3)
C3_7 C 0.7377(4) 0.7647(4) 0.9150(3)
H3_7 H 0.7049 0.7563 0.9570
C4_7 C 0.7205(4) 0.8273(4) 0.8707(3)
H4_7 H 0.6761 0.8601 0.8822
C5_7 C 0.7685(4) 0.8410(3) 0.8103(3)
C6_7 C 0.8344(5) 0.7928(4) 0.7932(3)
H5_7 H 0.8684 0.8030 0.7524
C7_7 C 0.8493(4) 0.7292(4) 0.8372(4)
H6_7 H 0.8926 0.6955 0.8248
C8_7 C 0.7161(5) 0.9751(3) 0.7833(3)
H7_7 H 0.7055 0.9924 0.8314
C10_7 C 0.7532(4) 0.9054(3) 0.6882(3)
H9_7 H 0.7738 0.8645 0.6600
C17_8 C 0.9820(4) 0.2706(3) 0.9746(3)
H13_8 H 0.9832 0.3032 0.9335
O1_8 O 0.7128(3) 0.8530(2) 0.5135(2)
O2_8 O 0.6456(3) 0.9125(2) 0.4235(2)
O5_8 O 0.5510(3) 0.9455(3) 0.5922(2)
H1_8 H 0.566(4) 0.8997(14) 0.602(3)
H2_8 H 0.506(2) 0.946(4) 0.566(3)
N1_8 N 0.7501(3) 0.5953(2) 0.2625(2)
C1_8 C 0.6833(4) 0.8543(3) 0.4485(3)
C2_8 C 0.6988(3) 0.7855(3) 0.3995(3)
C3_8 C 0.7623(4) 0.7353(4) 0.4150(3)
H3_8 H 0.7951 0.7437 0.4570
C4_8 C 0.7795(4) 0.6727(4) 0.3707(3)
H4_8 H 0.8239 0.6399 0.3822
C5_8 C 0.7315(4) 0.6590(3) 0.3103(3)
C6_8 C 0.6656(5) 0.7072(4) 0.2932(3)
H5_8 H 0.6316 0.6970 0.2524
C7_8 C 0.6507(4) 0.7708(4) 0.3372(4)
H6_8 H 0.6074 0.8045 0.3248
C8_8 C 0.7839(5) 0.5249(3) 0.2833(3)
H7_8 H 0.7945 0.5076 0.3314
C9_7 C 0.7981(5) 0.4868(4) 0.2197(4)
H8_7 H 0.8205 0.4372 0.2170
C10_8 C 0.7468(4) 0.5946(3) 0.1882(3)
H9_8 H 0.7262 0.6355 0.1600
C16_8 C 0.0259(4) 0.2010(3) 0.9734(3)
H12_8 H 0.0542 0.1864 0.9304
C20_8 C 0.1539(4) 0.0818(3) 0.9980(4)
H16_8 H 0.1757 0.1202 0.9674
C19_8 C 0.1381(4) 0.9763(4) 0.0557(4)
H15_8 H 0.1473 0.9266 0.0737
C9_8 C 0.7019(5) 0.0132(4) 0.7197(4)
H8_8 H 0.6795 0.0628 0.7170
loop_
_geom_bond_atom_site_label_1
_geom_bond_atom_site_label_2
_geom_bond_site_symmetry_1
_geom_bond_site_symmetry_2
H15 C19 1_555 1_555
N3 C15 1_555 1_555
N4 C19_2 1_555 1_555
C11 O3 1_555 1_555
C12 C11 1_555 1_555
C13 C12 1_555 1_555
H10 C13 1_555 1_555
C14 C13 1_555 1_555
H11 C14 1_555 1_555
C15 C14 1_555 1_555
C18 N3 1_555 1_555
H14 C18 1_555 1_555
C19_2 C18 1_555 1_555
H15_2 C19_2 1_555 1_555
H12 C16 1_555 1_555
H13 C17 1_555 1_555
H16 C20 1_555 1_555
C16 C17 1_555 1_555
N1 C5 1_555 1_555
C1 O2 1_555 1_555
C2 C1 1_555 1_555
C3 C2 1_555 1_555
H3 C3 1_555 1_555
C4 C3 1_555 1_555
H4 C4 1_555 1_555
C5 C4 1_555 1_555
C6 C5 1_555 1_555
H5 C6 1_555 1_555
C7 C2 1_555 1_555
H6 C7 1_555 1_555
C8 N1 1_555 1_555
H7 C8 1_555 1_555
C10 N1 1_555 1_555
H9 C10 1_555 1_555
H13_2 C17_2 1_555 1_555
Cd3 N2 1_555 1_555
N2 C10 1_555 1_555
C6 C7 1_555 1_555
Cd3_2 O1 1_555 1_555
O3_2 Cd3_2 1_555 1_555
O5 Cd3_2 1_555 1_555
H1 O5 1_555 1_555
H2 O5 1_555 1_555
C11_2 O3_2 1_555 1_555
C12_2 C11_2 1_555 1_555
C13_2 C12_2 1_555 1_555
H10_2 C13_2 1_555 1_555
C14_2 C13_2 1_555 1_555
H11_2 C14_2 1_555 1_555
N5 Cd3_2 1_555 1_555
N3_2 C15_2 1_555 1_555
C18_2 N3_2 1_555 1_555
H14_2 C18_2 1_555 1_555
Cd3 O1_2 1_555 1_555
O1_2 C1_2 1_555 1_555
O2_2 Cd3 1_555 1_555
O5_2 Cd3 1_555 1_555
H1_2 O5_2 1_555 1_555
H2_2 O5_2 1_555 1_555
N1_2 C5_2 1_555 1_555
N5 C9 1_555 1_555
C1_2 O2_2 1_555 1_555
C2_2 C1_2 1_555 1_555
C3_2 C2_2 1_555 1_555
H3_2 C3_2 1_555 1_555
C4_2 C3_2 1_555 1_555
H4_2 C4_2 1_555 1_555
C5_2 C4_2 1_555 1_555
C6_2 C5_2 1_555 1_555
H5_2 C6_2 1_555 1_555
C7_2 C2_2 1_555 1_555
H6_2 C7_2 1_555 1_555
C8_2 N1_2 1_555 1_555
H7_2 C8_2 1_555 1_555
C9 C8_2 1_555 1_555
H8 C9 1_555 1_555
C10_2 N1_2 1_555 1_555
H9_2 C10_2 1_555 1_555
N5 C10_2 1_555 1_555
C6_2 C7_2 1_555 1_555
N3_3 C15_3 1_555 1_555
C16_2 C15_3 1_555 1_555
H12_2 C16_2 1_555 1_555
C18_3 N3_3 1_555 1_555
H14_3 C18_3 1_555 1_555
C20_2 N3_3 1_555 1_555
H16_2 C20_2 1_555 1_555
N4_2 C20_2 1_555 1_555
Cd1 O1_3 1_555 1_555
O1_3 C1_3 1_555 1_555
O2_3 Cd1 1_555 1_555
O3_3 Cd1 1_555 1_555
O4_3 Cd1 1_555 1_555
O5_3 Cd1 1_555 1_555
H1_3 O5_3 1_555 1_555
H2_3 O5_3 1_555 1_555
N1_3 C5_3 1_555 1_555
C1_3 O2_3 1_555 1_555
C2_3 C1_3 1_555 1_555
C3_3 C2_3 1_555 1_555
H3_3 C3_3 1_555 1_555
C4_3 C3_3 1_555 1_555
H4_3 C4_3 1_555 1_555
C5_3 C4_3 1_555 1_555
C6_3 C5_3 1_555 1_555
H5_3 C6_3 1_555 1_555
C7_3 C2_3 1_555 1_555
H6_3 C7_3 1_555 1_555
C8_3 N1_3 1_555 1_555
H7_3 C8_3 1_555 1_555
C10_3 N1_3 1_555 1_555
H9_3 C10_3 1_555 1_555
C11_3 O3_3 1_555 1_555
C12_3 C11_3 1_555 1_555
C13_3 C12_3 1_555 1_555
H10_3 C13_3 1_555 1_555
C14_3 C13_3 1_555 1_555
H11_3 C14_3 1_555 1_555
C17_3 C12_3 1_555 1_555
H13_3 C17_3 1_555 1_555
Cd2 N2_2 1_555 1_555
N5_2 Cd1 1_555 1_555
N6_2 Cd1 1_555 1_555
O4_3 C11_3 1_555 1_555
N2_2 C10_3 1_555 1_555
C6_3 C7_3 1_555 1_555
Cd2 O1_4 1_555 1_555
O5_4 Cd2 1_555 1_555
H1_4 O5_4 1_555 1_555
H2_4 O5_4 1_555 1_555
N1_4 C5_4 1_555 1_555
N5_2 C9_2 1_555 1_555
C1_4 O2_4 1_555 1_555
C2_4 C1_4 1_555 1_555
C3_4 C2_4 1_555 1_555
H3_4 C3_4 1_555 1_555
C4_4 C3_4 1_555 1_555
H4_4 C4_4 1_555 1_555
C5_4 C4_4 1_555 1_555
C6_4 C5_4 1_555 1_555
H5_4 C6_4 1_555 1_555
C7_4 C2_4 1_555 1_555
H6_4 C7_4 1_555 1_555
C8_4 N1_4 1_555 1_555
H7_4 C8_4 1_555 1_555
C9_2 C8_4 1_555 1_555
H8_2 C9_2 1_555 1_555
C10_4 N1_4 1_555 1_555
H9_4 C10_4 1_555 1_555
N5_2 C10_4 1_555 1_555
C6_4 C7_4 1_555 1_555
N3_4 C15_4 1_555 1_555
N6_2 C19_3 1_555 1_555
C11_4 O3_4 1_555 1_555
C12_4 C11_4 1_555 1_555
C13_4 C12_4 1_555 1_555
H10_4 C13_4 1_555 1_555
C14_4 C13_4 1_555 1_555
H11_4 C14_4 1_555 1_555
C15_4 C14_4 1_555 1_555
C16_3 C15_4 1_555 1_555
H12_3 C16_3 1_555 1_555
C17_4 C12_4 1_555 1_555
H13_4 C17_4 1_555 1_555
C18_4 N3_4 1_555 1_555
H14_4 C18_4 1_555 1_555
C19_3 C18_4 1_555 1_555
H15_3 C19_3 1_555 1_555
C20_3 N3_4 1_555 1_555
H16_3 C20_3 1_555 1_555
O4_4 C11_4 1_555 1_555
N6_2 C20_3 1_555 1_555
C16_3 C17_4 1_555 1_555
H8_3 C9_3 1_555 1_555
H8_4 C9_4 1_555 1_555
H15_4 C19_4 1_555 1_555
H12_4 C16_4 1_555 1_555
H16_4 C20_4 1_555 1_555
H8_5 C9_5 1_555 1_555
Cd1_2 O1_5 1_555 1_555
O1_5 C1_5 1_555 1_555
O2_5 Cd1_2 1_555 1_555
O3_5 Cd1_2 1_555 1_555
O4_5 Cd1_2 1_555 1_555
O5_5 Cd1_2 1_555 1_555
H1_5 O5_5 1_555 1_555
H2_5 O5_5 1_555 1_555
N1_5 C5_5 1_555 1_555
C1_5 O2_5 1_555 1_555
C2_5 C1_5 1_555 1_555
C3_5 C2_5 1_555 1_555
H3_5 C3_5 1_555 1_555
C4_5 C3_5 1_555 1_555
H4_5 C4_5 1_555 1_555
C5_5 C4_5 1_555 1_555
C6_5 C5_5 1_555 1_555
H5_5 C6_5 1_555 1_555
C7_5 C2_5 1_555 1_555
H6_5 C7_5 1_555 1_555
C8_5 N1_5 1_555 1_555
H7_5 C8_5 1_555 1_555
C10_5 N1_5 1_555 1_555
H9_5 C10_5 1_555 1_555
C11_5 O3_5 1_555 1_555
C12_5 C11_5 1_555 1_555
C13_5 C12_5 1_555 1_555
H10_5 C13_5 1_555 1_555
C14_5 C13_5 1_555 1_555
H11_5 C14_5 1_555 1_555
C17_5 C12_5 1_555 1_555
H13_5 C17_5 1_555 1_555
Cd2_2 N2_3 1_555 1_555
N5_3 Cd1_2 1_555 1_555
N6_3 Cd1_2 1_555 1_555
O4_5 C11_5 1_555 1_555
N2_3 C10_5 1_555 1_555
C6_5 C7_5 1_555 1_555
N3_5 C15_5 1_555 1_555
C16_5 C15_5 1_555 1_555
H12_5 C16_5 1_555 1_555
C18_5 N3_5 1_555 1_555
H14_5 C18_5 1_555 1_555
C20_5 N3_5 1_555 1_555
H16_5 C20_5 1_555 1_555
N4_3 C20_5 1_555 1_555
N1_6 C5_6 1_555 1_555
N5_3 C9_6 1_555 1_555
C1_6 O2_6 1_555 1_555
C2_6 C1_6 1_555 1_555
C3_6 C2_6 1_555 1_555
H3_6 C3_6 1_555 1_555
C4_6 C3_6 1_555 1_555
H4_6 C4_6 1_555 1_555
C5_6 C4_6 1_555 1_555
C6_6 C5_6 1_555 1_555
H5_6 C6_6 1_555 1_555
C7_6 C2_6 1_555 1_555
H6_6 C7_6 1_555 1_555
C8_6 N1_6 1_555 1_555
H7_6 C8_6 1_555 1_555
C9_6 C8_6 1_555 1_555
H8_6 C9_6 1_555 1_555
C10_6 N1_6 1_555 1_555
H9_6 C10_6 1_555 1_555
N5_3 C10_6 1_555 1_555
C6_6 C7_6 1_555 1_555
Cd2_2 O1_6 1_555 1_555
O5_6 Cd2_2 1_555 1_555
H1_6 O5_6 1_555 1_555
H2_6 O5_6 1_555 1_555
N3_6 C15_6 1_555 1_555
N6_3 C19_5 1_555 1_555
C11_6 O3_6 1_555 1_555
C12_6 C11_6 1_555 1_555
C13_6 C12_6 1_555 1_555
H10_6 C13_6 1_555 1_555
C14_6 C13_6 1_555 1_555
H11_6 C14_6 1_555 1_555
C15_6 C14_6 1_555 1_555
C16_6 C15_6 1_555 1_555
H12_6 C16_6 1_555 1_555
C17_6 C12_6 1_555 1_555
H13_6 C17_6 1_555 1_555
C18_6 N3_6 1_555 1_555
H14_6 C18_6 1_555 1_555
C19_5 C18_6 1_555 1_555
H15_5 C19_5 1_555 1_555
C20_6 N3_6 1_555 1_555
H16_6 C20_6 1_555 1_555
O4_6 C11_6 1_555 1_555
N6_3 C20_6 1_555 1_555
C16_6 C17_6 1_555 1_555
H15_6 C19_6 1_555 1_555
H12_7 C16_7 1_555 1_555
H13_7 C17_7 1_555 1_555
H16_7 C20_7 1_555 1_555
C16_7 C17_7 1_555 1_555
N3_7 C15_7 1_555 1_555
N4_4 C19_7 1_555 1_555
C11_7 O3_7 1_555 1_555
C12_7 C11_7 1_555 1_555
C13_7 C12_7 1_555 1_555
H10_7 C13_7 1_555 1_555
C14_7 C13_7 1_555 1_555
H11_7 C14_7 1_555 1_555
C15_7 C14_7 1_555 1_555
C18_7 N3_7 1_555 1_555
H14_7 C18_7 1_555 1_555
C19_7 C18_7 1_555 1_555
H15_7 C19_7 1_555 1_555
N3_8 C15_8 1_555 1_555
C18_8 N3_8 1_555 1_555
H14_8 C18_8 1_555 1_555
Cd3_4 O1_7 1_555 1_555
O3_8 Cd3_4 1_555 1_555
O5_7 Cd3_4 1_555 1_555
H1_7 O5_7 1_555 1_555
H2_7 O5_7 1_555 1_555
C11_8 O3_8 1_555 1_555
C12_8 C11_8 1_555 1_555
C13_8 C12_8 1_555 1_555
H10_8 C13_8 1_555 1_555
C14_8 C13_8 1_555 1_555
H11_8 C14_8 1_555 1_555
N5_4 Cd3_4 1_555 1_555
N1_7 C5_7 1_555 1_555
C1_7 O2_7 1_555 1_555
C2_7 C1_7 1_555 1_555
C3_7 C2_7 1_555 1_555
H3_7 C3_7 1_555 1_555
C4_7 C3_7 1_555 1_555
H4_7 C4_7 1_555 1_555
C5_7 C4_7 1_555 1_555
C6_7 C5_7 1_555 1_555
H5_7 C6_7 1_555 1_555
C7_7 C2_7 1_555 1_555
H6_7 C7_7 1_555 1_555
C8_7 N1_7 1_555 1_555
H7_7 C8_7 1_555 1_555
C10_7 N1_7 1_555 1_555
H9_7 C10_7 1_555 1_555
H13_8 C17_8 1_555 1_555
Cd3_3 N2_4 1_555 1_555
N2_4 C10_7 1_555 1_555
C6_7 C7_7 1_555 1_555
Cd3_3 O1_8 1_555 1_555
O1_8 C1_8 1_555 1_555
O2_8 Cd3_3 1_555 1_555
O5_8 Cd3_3 1_555 1_555
H1_8 O5_8 1_555 1_555
H2_8 O5_8 1_555 1_555
N1_8 C5_8 1_555 1_555
N5_4 C9_7 1_555 1_555
C1_8 O2_8 1_555 1_555
C2_8 C1_8 1_555 1_555
C3_8 C2_8 1_555 1_555
H3_8 C3_8 1_555 1_555
C4_8 C3_8 1_555 1_555
H4_8 C4_8 1_555 1_555
C5_8 C4_8 1_555 1_555
C6_8 C5_8 1_555 1_555
H5_8 C6_8 1_555 1_555
C7_8 C2_8 1_555 1_555
H6_8 C7_8 1_555 1_555
C8_8 N1_8 1_555 1_555
H7_8 C8_8 1_555 1_555
C9_7 C8_8 1_555 1_555
H8_7 C9_7 1_555 1_555
C10_8 N1_8 1_555 1_555
H9_8 C10_8 1_555 1_555
N5_4 C10_8 1_555 1_555
C6_8 C7_8 1_555 1_555
H12_8 C16_8 1_555 1_555
H16_8 C20_8 1_555 1_555
H15_8 C19_8 1_555 1_555
H8_8 C9_8 1_555 1_555

#END
