
###############################################################################
#
# This file contains modified crystal structure data generated from the
# MOF subset of the Cambridge Structural Database (CSD) v543 
# hosted by the Cambridge Crystallographic Data Centre (CCDC).
#
# This work is licensed under the Creative Commons
# Attribution-NonCommercial-ShareAlike 4.0 International License.
# To view a copy of this license, visit
# http://creativecommons.org/licenses/by-nc-sa/4.0/
# or send a letter to
# Creative Commons, PO Box 1866, Mountain View, CA 94042, USA.
#
# CIF created using the CSD Python API on 29 September 2022
# The structure has been converted into the P1 space group
# The structure has a 3D framework
# The original CSD entry VURYIR is in the monoclinic crystal system
# The framework has been calculated to contain at least 10.0% void space
# The void calculation uses a probe of radius 1.32A, grid spacing 0.4
#
###############################################################################

data_VURYIR
_chemical_formula_moiety         '(C52 H24 Cu4 N12 O13)n'
_symmetry_cell_setting           triclinic
_symmetry_space_group_name_H-M   'P 1'
_symmetry_Int_Tables_number      1
_space_group_name_Hall           'P 1'
loop_
_symmetry_equiv_pos_site_id
_symmetry_equiv_pos_as_xyz
1 x,y,z
_cell_length_a                   4.713(1)
_cell_length_b                   26.797(4)
_cell_length_c                   11.101(2)
_cell_angle_alpha                90
_cell_angle_beta                 96.52(2)
_cell_angle_gamma                90
_cell_volume                     1392.92
loop_
_atom_site_label
_atom_site_type_symbol
_atom_site_fract_x
_atom_site_fract_y
_atom_site_fract_z
_atom_site_U_iso_or_equiv
_atom_site_thermal_displace_type
Cu2 Cu 0.612(2) 0.3194(4) 0.3800(8) 0.0118 Uiso
O5 O 0.467 0.3352 0.2417 0.0118 Uiso
O6 O 0.211 0.3066 0.0796 0.0118 Uiso
O8 O 0.881(8) 0.288(1) 0.512(3) 0.0118 Uiso
O11 O 0.245 0.3057 0.4659 0.0118 Uiso
N4 N 0.584 0.2522 0.3365 0.0118 Uiso
N5 N 0.3942 0.1688 0.2275 0.0118 Uiso
N7 N 0.7433 0.3874 0.443 0.0118 Uiso
C14 C 0.3491 0.3025 0.1792 0.0118 Uiso
C15 C 0.4137 0.2524 0.2313 0.0118 Uiso
C16 C 0.6654 0.21 0.3891 0.0118 Uiso
C17 C 0.5666 0.1688 0.3303 0.0118 Uiso
C18 C 0.3148 0.2104 0.1765 0.0118 Uiso
C19 C 0.1316 0.205 0.0577 0.0118 Uiso
H7 H 0.786 0.2087 0.4637 0.0118 Uiso
H8 H 0.6241 0.1374 0.3647 0.0118 Uiso
C13 C 0.1337 0.0193 0.7991 0.0118 Uiso
H6 H 0.1353 0.0355 0.7231 0.0118 Uiso
Cu6 Cu 0.612(2) 0.1806(4) 0.8800(8) 0.0118 Uiso
O9 O 0.245 0.1943 0.9659 0.0118 Uiso
Cu5 Cu 0.388(2) 0.8194(4) 0.1200(8) 0.0118 Uiso
N6 N 0.2567 0.8874 0.057 0.0118 Uiso
C20 C 0.113 0.9114 0.1361 0.0118 Uiso
C23 C 0.0139 0.9579 0.1149 0.0118 Uiso
C24 C 0.0631 0.9812 0.0078 0.0118 Uiso
H9 H 0.0799 0.8952 0.2093 0.0118 Uiso
O1 O 0.467 0.1648 0.7417 0.0118 Uiso
O2 O 0.211 0.1934 0.5796 0.0118 Uiso
N1 N 0.584 0.2478 0.8365 0.0118 Uiso
N2 N 0.3942 0.3312 0.7275 0.0118 Uiso
N3 N 0.7433 0.1126 0.943 0.0118 Uiso
C1 C 0.3491 0.1975 0.6792 0.0118 Uiso
C2 C 0.4137 0.2476 0.7313 0.0118 Uiso
C3 C 0.6654 0.29 0.8891 0.0118 Uiso
C4 C 0.5666 0.3312 0.8303 0.0118 Uiso
C5 C 0.3148 0.2896 0.6765 0.0118 Uiso
C6 C 0.1316 0.295 0.5577 0.0118 Uiso
C7 C 0.887 0.0886 0.8639 0.0118 Uiso
C10 C 0.9861 0.0421 0.8851 0.0118 Uiso
C11 C 0.9369 0.0188 0.9922 0.0118 Uiso
H1 H 0.786 0.2913 0.9637 0.0118 Uiso
H2 H 0.6241 0.3626 0.8647 0.0118 Uiso
H3 H 0.9201 0.1048 0.7907 0.0118 Uiso
C26 C 0.8663 0.9807 0.2009 0.0118 Uiso
H12 H 0.8647 0.9645 0.2769 0.0118 Uiso
O4 O 0.755 0.8057 0.0341 0.0118 Uiso
Cu1 Cu 0.388(2) 0.6806(4) 0.6200(8) 0.0118 Uiso
O1_2 O 0.533 0.6648 0.7583 0.0118 Uiso
O2_2 O 0.789 0.6934 0.9204 0.0118 Uiso
N1_2 N 0.416 0.7478 0.6635 0.0118 Uiso
N2_2 N 0.6058 0.8312 0.7725 0.0118 Uiso
N3_2 N 0.2567 0.6126 0.557 0.0118 Uiso
C1_2 C 0.6509 0.6975 0.8208 0.0118 Uiso
C2_2 C 0.5863 0.7476 0.7687 0.0118 Uiso
C3_2 C 0.3346 0.79 0.6109 0.0118 Uiso
C4_2 C 0.4334 0.8312 0.6697 0.0118 Uiso
C5_2 C 0.6852 0.7896 0.8235 0.0118 Uiso
C6_2 C 0.8684 0.795 0.9423 0.0118 Uiso
C7_2 C 0.113 0.5886 0.6361 0.0118 Uiso
C8 C 0.3059 0.5906 0.4533 0.0118 Uiso
C9 C 0.2145 0.5442 0.4249 0.0118 Uiso
C10_2 C 0.0139 0.5421 0.6149 0.0118 Uiso
C11_2 C 0.0631 0.5188 0.5078 0.0118 Uiso
C12 C 0.2729 0.5236 0.3156 0.0118 Uiso
H1_2 H 0.214 0.7913 0.5363 0.0118 Uiso
H2_2 H 0.3759 0.8626 0.6353 0.0118 Uiso
H3_2 H 0.0799 0.6048 0.7093 0.0118 Uiso
H4 H 0.4086 0.6083 0.3981 0.0118 Uiso
H5 H 0.3928 0.5379 0.2616 0.0118 Uiso
O7 O 0.119(8) 0.712(1) 0.488(3) 0.0118 Uiso
O10 O 0.755 0.6943 0.5341 0.0118 Uiso
C26_2 C 0.1337 0.4807 0.2991 0.0118 Uiso
H12_2 H 0.1353 0.4645 0.2231 0.0118 Uiso
C13_2 C 0.8663 0.5193 0.7009 0.0118 Uiso
H6_2 H 0.8647 0.5355 0.7769 0.0118 Uiso
O5_2 O 0.533 0.8352 0.2583 0.0118 Uiso
O6_2 O 0.789 0.8066 0.4204 0.0118 Uiso
N4_2 N 0.416 0.7522 0.1635 0.0118 Uiso
N5_2 N 0.6058 0.6688 0.2725 0.0118 Uiso
C14_2 C 0.6509 0.8025 0.3208 0.0118 Uiso
C15_2 C 0.5863 0.7524 0.2687 0.0118 Uiso
C16_2 C 0.3346 0.71 0.1109 0.0118 Uiso
C17_2 C 0.4334 0.6688 0.1697 0.0118 Uiso
C18_2 C 0.6852 0.7104 0.3235 0.0118 Uiso
C19_2 C 0.8684 0.705 0.4423 0.0118 Uiso
C20_2 C 0.887 0.4114 0.3639 0.0118 Uiso
C21 C 0.6941 0.4094 0.5467 0.0118 Uiso
C22 C 0.7855 0.4558 0.5751 0.0118 Uiso
C23_2 C 0.9861 0.4579 0.3851 0.0118 Uiso
C24_2 C 0.9369 0.4812 0.4922 0.0118 Uiso
C25 C 0.7271 0.4764 0.6844 0.0118 Uiso
H7_2 H 0.214 0.7087 0.0363 0.0118 Uiso
H8_2 H 0.3759 0.6374 0.1353 0.0118 Uiso
H9_2 H 0.9201 0.3952 0.2907 0.0118 Uiso
H10 H 0.5914 0.3917 0.6019 0.0118 Uiso
H11 H 0.6072 0.4621 0.7384 0.0118 Uiso
C21_2 C 0.3059 0.9094 0.9533 0.0118 Uiso
C22_2 C 0.2145 0.9558 0.9249 0.0118 Uiso
C25_2 C 0.2729 0.9764 0.8156 0.0118 Uiso
H10_2 H 0.4086 0.8917 0.8981 0.0118 Uiso
H11_2 H 0.3928 0.9621 0.7616 0.0118 Uiso
O3 O 0.119(8) 0.788(1) 0.988(3) 0.0118 Uiso
C8_2 C 0.6941 0.0906 0.0467 0.0118 Uiso
C9_2 C 0.7855 0.0442 0.0751 0.0118 Uiso
C12_2 C 0.7271 0.0236 0.1844 0.0118 Uiso
H4_2 H 0.5914 0.1083 0.1019 0.0118 Uiso
H5_2 H 0.6072 0.0379 0.2384 0.0118 Uiso
O7_2 O 0.881(8) 0.212(1) 0.012(3) 0.0118 Uiso
loop_
_geom_bond_atom_site_label_1
_geom_bond_atom_site_label_2
_geom_bond_site_symmetry_1
_geom_bond_site_symmetry_2
Cu2 O5 1_555 1_555
O5 C14 1_555 1_555
O6 C14 1_555 1_555
O8 Cu2 1_555 1_555
O11 Cu2 1_555 1_555
N4 Cu2 1_555 1_555
N5 C17 1_555 1_555
N7 Cu2 1_555 1_555
C14 C15 1_555 1_555
C15 N4 1_555 1_555
C16 N4 1_555 1_555
C17 C16 1_555 1_555
C18 N5 1_555 1_555
H7 C16 1_555 1_555
H8 C17 1_555 1_555
C15 C18 1_555 1_555
C18 C19 1_555 1_555
H6 C13 1_555 1_555
Cu6 O9 1_555 1_555
Cu5 N6 1_555 1_555
N6 C20 1_555 1_555
C20 C23 1_555 1_555
C23 C24 1_555 1_555
H9 C20 1_555 1_555
Cu6 O1 1_555 1_555
O1 C1 1_555 1_555
O2 C1 1_555 1_555
O11 C6 1_555 1_555
N1 Cu6 1_555 1_555
N2 C4 1_555 1_555
N3 Cu6 1_555 1_555
C1 C2 1_555 1_555
C2 N1 1_555 1_555
C3 N1 1_555 1_555
C4 C3 1_555 1_555
C5 N2 1_555 1_555
C6 C5 1_555 1_555
C7 N3 1_555 1_555
C10 C7 1_555 1_555
H1 C3 1_555 1_555
H2 C4 1_555 1_555
H3 C7 1_555 1_555
C2 C5 1_555 1_555
C10 C11 1_555 1_555
H12 C26 1_555 1_555
Cu5 O4 1_555 1_555
Cu1 O1_2 1_555 1_555
O1_2 C1_2 1_555 1_555
O2_2 C1_2 1_555 1_555
N1_2 Cu1 1_555 1_555
N2_2 C4_2 1_555 1_555
N3_2 Cu1 1_555 1_555
C1_2 C2_2 1_555 1_555
C2_2 N1_2 1_555 1_555
C3_2 N1_2 1_555 1_555
C4_2 C3_2 1_555 1_555
C5_2 N2_2 1_555 1_555
C6_2 C5_2 1_555 1_555
C7_2 N3_2 1_555 1_555
C8 N3_2 1_555 1_555
C9 C8 1_555 1_555
C10_2 C7_2 1_555 1_555
C11_2 C9 1_555 1_555
C12 C9 1_555 1_555
H1_2 C3_2 1_555 1_555
H2_2 C4_2 1_555 1_555
H3_2 C7_2 1_555 1_555
H4 C8 1_555 1_555
H5 C12 1_555 1_555
O7 Cu1 1_555 1_555
O10 Cu1 1_555 1_555
C26_2 C12 1_555 1_555
H12_2 C26_2 1_555 1_555
C2_2 C5_2 1_555 1_555
C10_2 C11_2 1_555 1_555
H6_2 C13_2 1_555 1_555
Cu5 O5_2 1_555 1_555
O5_2 C14_2 1_555 1_555
O6_2 C14_2 1_555 1_555
O10 C19_2 1_555 1_555
N4_2 Cu5 1_555 1_555
N5_2 C17_2 1_555 1_555
N7 C20_2 1_555 1_555
C14_2 C15_2 1_555 1_555
C15_2 N4_2 1_555 1_555
C16_2 N4_2 1_555 1_555
C17_2 C16_2 1_555 1_555
C18_2 N5_2 1_555 1_555
C20_2 C23_2 1_555 1_555
C21 N7 1_555 1_555
C22 C21 1_555 1_555
C23_2 C24_2 1_555 1_555
C25 C13_2 1_555 1_555
H7_2 C16_2 1_555 1_555
H8_2 C17_2 1_555 1_555
H9_2 C20_2 1_555 1_555
H10 C21 1_555 1_555
H11 C25 1_555 1_555
C15_2 C18_2 1_555 1_555
C18_2 C19_2 1_555 1_555
C22 C24_2 1_555 1_555
C22 C25 1_555 1_555
C22_2 C21_2 1_555 1_555
H10_2 C21_2 1_555 1_555
H11_2 C25_2 1_555 1_555
C22_2 C25_2 1_555 1_555
C9_2 C8_2 1_555 1_555
C12_2 C9_2 1_555 1_555
H4_2 C8_2 1_555 1_555
H5_2 C12_2 1_555 1_555

#END
