
###############################################################################
#
# This file contains modified crystal structure data generated from the
# MOF subset of the Cambridge Structural Database (CSD) v543 
# hosted by the Cambridge Crystallographic Data Centre (CCDC).
#
# This work is licensed under the Creative Commons
# Attribution-NonCommercial-ShareAlike 4.0 International License.
# To view a copy of this license, visit
# http://creativecommons.org/licenses/by-nc-sa/4.0/
# or send a letter to
# Creative Commons, PO Box 1866, Mountain View, CA 94042, USA.
#
# CIF created using the CSD Python API on 29 September 2022
# The structure has been converted into the P1 space group
# The structure has a 3D framework
# The original CSD entry VURYOX is in the monoclinic crystal system
# The framework has been calculated to contain at least 10.0% void space
# The void calculation uses a probe of radius 1.32A, grid spacing 0.4
# The framework is charged, counterions have been retained in the structure
#
###############################################################################

data_VURYOX
_chemical_formula_moiety         '(C44 H24 Cu4 N16 O12)n'
_symmetry_cell_setting           triclinic
_symmetry_space_group_name_H-M   'P 1'
_symmetry_Int_Tables_number      1
_space_group_name_Hall           'P 1'
loop_
_symmetry_equiv_pos_site_id
_symmetry_equiv_pos_as_xyz
1 x,y,z
_cell_length_a                   4.7083(4)
_cell_length_b                   31.011(2)
_cell_length_c                   10.980(1)
_cell_angle_alpha                90
_cell_angle_beta                 96.145(8)
_cell_angle_gamma                90
_cell_volume                     1593.97
loop_
_atom_site_label
_atom_site_type_symbol
_atom_site_fract_x
_atom_site_fract_y
_atom_site_fract_z
_atom_site_U_iso_or_equiv
_atom_site_thermal_displace_type
Cu3 Cu 0.48127 0.30617 0.10274 0.0101 Uiso
O3 O 0.31758 0.29141 0.98993 0.0152 Uiso
C6 C 0.0317 0.2916 0.9428 0.0152 Uiso
O4 O 0.87309 0.29684 0.02189 0.0152 Uiso
Cu1 Cu 0.48127 0.19383 0.60274 0.0101 Uiso
O1 O 0.6866 0.17576 0.75195 0.0152 Uiso
O2 O 0.95618 0.20001 0.93269 0.0152 Uiso
N1 N 0.5605 0.2519 0.666 0.0152 Uiso
N2 N 0.7767 0.3257 0.7736 0.0152 Uiso
N3 N 0.39312 0.13212 0.5394 0.0152 Uiso
N4 N 0.12225 0.00417 0.52095 0.0152 Uiso
C1 C 0.7835 0.2053 0.823 0.0152 Uiso
C2 C 0.7326 0.2507 0.7706 0.0152 Uiso
C3 C 0.4905 0.2902 0.6133 0.0152 Uiso
C4 C 0.6025 0.3267 0.6714 0.0152 Uiso
C5 C 0.8448 0.2879 0.8247 0.0152 Uiso
C7 C 0.25366 0.11447 0.63058 0.0152 Uiso
C8 C 0.43503 0.11045 0.44962 0.0152 Uiso
C9 C 0.32379 0.0693 0.43598 0.0152 Uiso
C10 C 0.14719 0.07418 0.61817 0.0152 Uiso
C11 C 0.18901 0.05188 0.52409 0.0152 Uiso
H1 H 0.37 0.292 0.539 0.0078 Uiso
H2 H 0.55 0.354 0.636 0.0078 Uiso
H3 H 0.23 0.1306 0.703 0.0078 Uiso
H4 H 0.5442 0.122 0.3893 0.0078 Uiso
H5 H 0.3438 0.0534 0.3634 0.0078 Uiso
H6 H 0.0414 0.0624 0.6793 0.0078 Uiso
O7 O 0.31758 0.20859 0.48993 0.0152 Uiso
O10 O 0.87309 0.20316 0.52189 0.0152 Uiso
C17 C 0.0317 0.2084 0.4428 0.0152 Uiso
O5 O 0.6866 0.32424 0.25195 0.0152 Uiso
O6 O 0.95618 0.29999 0.43269 0.0152 Uiso
N5 N 0.5605 0.2481 0.166 0.0152 Uiso
N6 N 0.7767 0.1743 0.2736 0.0152 Uiso
N8 N 0.39312 0.36788 0.0394 0.0152 Uiso
C12 C 0.7835 0.2947 0.323 0.0152 Uiso
C13 C 0.7326 0.2493 0.2706 0.0152 Uiso
C14 C 0.4905 0.2098 0.1133 0.0152 Uiso
C15 C 0.6025 0.1733 0.1714 0.0152 Uiso
C16 C 0.8448 0.2121 0.3247 0.0152 Uiso
H7 H 0.37 0.208 0.039 0.0078 Uiso
H8 H 0.55 0.146 0.136 0.0078 Uiso
Cu5 Cu 0.51873 0.80617 0.39726 0.0101 Uiso
N7 N 0.60688 0.86788 0.4606 0.0152 Uiso
N9 N 0.87775 0.99583 0.47905 0.0152 Uiso
C18 C 0.74634 0.88553 0.36942 0.0152 Uiso
C19 C 0.56497 0.88955 0.55038 0.0152 Uiso
C20 C 0.67621 0.9307 0.56402 0.0152 Uiso
C21 C 0.85281 0.92582 0.38183 0.0152 Uiso
C22 C 0.81099 0.94812 0.47591 0.0152 Uiso
H9 H 0.77 0.8694 0.297 0.0078 Uiso
H10 H 0.4558 0.878 0.6107 0.0078 Uiso
H11 H 0.6562 0.9466 0.6366 0.0078 Uiso
H12 H 0.9586 0.9376 0.3207 0.0078 Uiso
O5_2 O 0.3134 0.82424 0.24805 0.0152 Uiso
O6_2 O 0.04382 0.79999 0.06731 0.0152 Uiso
O8 O 0.68242 0.79141 0.51007 0.0152 Uiso
O11 O 0.12691 0.79684 0.47811 0.0152 Uiso
N5_2 N 0.4395 0.7481 0.334 0.0152 Uiso
N6_2 N 0.2233 0.6743 0.2264 0.0152 Uiso
N9_2 N 0.12225 0.49583 0.02095 0.0152 Uiso
C12_2 C 0.2165 0.7947 0.177 0.0152 Uiso
C13_2 C 0.2674 0.7493 0.2294 0.0152 Uiso
C14_2 C 0.5095 0.7098 0.3867 0.0152 Uiso
C15_2 C 0.3975 0.6733 0.3286 0.0152 Uiso
C16_2 C 0.1552 0.7121 0.1753 0.0152 Uiso
C18_2 C 0.25366 0.38553 0.13058 0.0152 Uiso
C21_2 C 0.14719 0.42582 0.11817 0.0152 Uiso
C22_2 C 0.18901 0.44812 0.02409 0.0152 Uiso
H7_2 H 0.63 0.708 0.461 0.0078 Uiso
H8_2 H 0.45 0.646 0.364 0.0078 Uiso
H9_2 H 0.23 0.3694 0.203 0.0078 Uiso
H12_2 H 0.0414 0.4376 0.1793 0.0078 Uiso
Cu6 Cu 0.51873 0.69383 0.89726 0.0101 Uiso
O9 O 0.12691 0.70316 0.97811 0.0152 Uiso
C19_2 C 0.43503 0.38955 0.94962 0.0152 Uiso
C20_2 C 0.32379 0.4307 0.93598 0.0152 Uiso
H10_2 H 0.5442 0.378 0.8893 0.0078 Uiso
H11_2 H 0.3438 0.4466 0.8634 0.0078 Uiso
C8_2 C 0.56497 0.61045 0.05038 0.0152 Uiso
C9_2 C 0.67621 0.5693 0.06402 0.0152 Uiso
H4_2 H 0.4558 0.622 0.1107 0.0078 Uiso
H5_2 H 0.6562 0.5534 0.1366 0.0078 Uiso
O7_2 O 0.68242 0.70859 0.01007 0.0152 Uiso
C17_2 C 0.9683 0.7084 0.0572 0.0152 Uiso
O1_2 O 0.3134 0.67576 0.74805 0.0152 Uiso
O2_2 O 0.04382 0.70001 0.56731 0.0152 Uiso
N1_2 N 0.4395 0.7519 0.834 0.0152 Uiso
N2_2 N 0.2233 0.8257 0.7264 0.0152 Uiso
N3_2 N 0.60688 0.63212 0.9606 0.0152 Uiso
N4_2 N 0.87775 0.50417 0.97905 0.0152 Uiso
C1_2 C 0.2165 0.7053 0.677 0.0152 Uiso
C2_2 C 0.2674 0.7507 0.7294 0.0152 Uiso
C3_2 C 0.5095 0.7902 0.8867 0.0152 Uiso
C4_2 C 0.3975 0.8267 0.8286 0.0152 Uiso
C5_2 C 0.1552 0.7879 0.6753 0.0152 Uiso
C7_2 C 0.74634 0.61447 0.86942 0.0152 Uiso
C10_2 C 0.85281 0.57418 0.88183 0.0152 Uiso
C11_2 C 0.81099 0.55188 0.97591 0.0152 Uiso
H1_2 H 0.63 0.792 0.961 0.0078 Uiso
H2_2 H 0.45 0.854 0.864 0.0078 Uiso
H3_2 H 0.77 0.6306 0.797 0.0078 Uiso
H6_2 H 0.9586 0.5624 0.8207 0.0078 Uiso
C6_2 C 0.9683 0.7916 0.5572 0.0152 Uiso
loop_
_geom_bond_atom_site_label_1
_geom_bond_atom_site_label_2
_geom_bond_site_symmetry_1
_geom_bond_site_symmetry_2
O3 C6 1_555 1_555
Cu3 O4 1_555 1_555
Cu1 O1 1_555 1_555
O1 C1 1_555 1_555
O2 C1 1_555 1_555
N1 Cu1 1_555 1_555
N2 C4 1_555 1_555
N3 Cu1 1_555 1_555
N4 C11 1_555 1_555
C1 C2 1_555 1_555
C2 N1 1_555 1_555
C3 N1 1_555 1_555
C4 C3 1_555 1_555
C5 N2 1_555 1_555
C7 N3 1_555 1_555
C8 N3 1_555 1_555
C9 C8 1_555 1_555
C10 C7 1_555 1_555
C11 C9 1_555 1_555
H1 C3 1_555 1_555
H2 C4 1_555 1_555
H3 C7 1_555 1_555
H4 C8 1_555 1_555
H5 C9 1_555 1_555
H6 C10 1_555 1_555
O7 Cu1 1_555 1_555
O10 Cu1 1_555 1_555
C17 O7 1_555 1_555
C2 C5 1_555 1_555
C10 C11 1_555 1_555
Cu3 O5 1_555 1_555
O5 C12 1_555 1_555
O6 C12 1_555 1_555
N5 Cu3 1_555 1_555
N6 C15 1_555 1_555
N8 Cu3 1_555 1_555
C12 C13 1_555 1_555
C13 N5 1_555 1_555
C14 N5 1_555 1_555
C15 C14 1_555 1_555
C16 N6 1_555 1_555
H7 C14 1_555 1_555
H8 C15 1_555 1_555
C13 C16 1_555 1_555
Cu5 N7 1_555 1_555
N7 C18 1_555 1_555
C18 C21 1_555 1_555
C19 N7 1_555 1_555
C20 C19 1_555 1_555
C21 C22 1_555 1_555
C22 N9 1_555 1_555
H9 C18 1_555 1_555
H10 C19 1_555 1_555
H11 C20 1_555 1_555
H12 C21 1_555 1_555
C20 C22 1_555 1_555
Cu5 O5_2 1_555 1_555
O5_2 C12_2 1_555 1_555
O6_2 C12_2 1_555 1_555
O8 Cu5 1_555 1_555
O11 Cu5 1_555 1_555
N5_2 Cu5 1_555 1_555
N6_2 C15_2 1_555 1_555
N8 C18_2 1_555 1_555
C12_2 C13_2 1_555 1_555
C13_2 N5_2 1_555 1_555
C14_2 N5_2 1_555 1_555
C15_2 C14_2 1_555 1_555
C16_2 N6_2 1_555 1_555
C18_2 C21_2 1_555 1_555
C21_2 C22_2 1_555 1_555
C22_2 N9_2 1_555 1_555
H7_2 C14_2 1_555 1_555
H8_2 C15_2 1_555 1_555
H9_2 C18_2 1_555 1_555
H12_2 C21_2 1_555 1_555
C13_2 C16_2 1_555 1_555
Cu6 O9 1_555 1_555
C20_2 C19_2 1_555 1_555
H10_2 C19_2 1_555 1_555
H11_2 C20_2 1_555 1_555
C9_2 C8_2 1_555 1_555
H4_2 C8_2 1_555 1_555
H5_2 C9_2 1_555 1_555
C17_2 O7_2 1_555 1_555
Cu6 O1_2 1_555 1_555
O1_2 C1_2 1_555 1_555
O2_2 C1_2 1_555 1_555
N1_2 Cu6 1_555 1_555
N2_2 C4_2 1_555 1_555
N3_2 Cu6 1_555 1_555
N4_2 C11_2 1_555 1_555
C1_2 C2_2 1_555 1_555
C2_2 N1_2 1_555 1_555
C3_2 N1_2 1_555 1_555
C4_2 C3_2 1_555 1_555
C5_2 N2_2 1_555 1_555
C7_2 N3_2 1_555 1_555
C10_2 C7_2 1_555 1_555
H1_2 C3_2 1_555 1_555
H2_2 C4_2 1_555 1_555
H3_2 C7_2 1_555 1_555
H6_2 C10_2 1_555 1_555
C2_2 C5_2 1_555 1_555
C10_2 C11_2 1_555 1_555
O8 C6_2 1_555 1_555

#END
