
###############################################################################
#
# This file contains modified crystal structure data generated from the
# MOF subset of the Cambridge Structural Database (CSD) v543 
# hosted by the Cambridge Crystallographic Data Centre (CCDC).
#
# This work is licensed under the Creative Commons
# Attribution-NonCommercial-ShareAlike 4.0 International License.
# To view a copy of this license, visit
# http://creativecommons.org/licenses/by-nc-sa/4.0/
# or send a letter to
# Creative Commons, PO Box 1866, Mountain View, CA 94042, USA.
#
# CIF created using the CSD Python API on 29 September 2022
# The structure has been converted into the P1 space group
# The structure has a 3D framework
# The original CSD entry VUSKEA01 is in the cubic crystal system
# The framework has been calculated to contain at least 10.0% void space
# The void calculation uses a probe of radius 1.32A, grid spacing 0.4
#
###############################################################################

data_VUSKEA01
_chemical_formula_moiety         '(C192 H96 O100 Zn20)n'
_symmetry_cell_setting           triclinic
_symmetry_space_group_name_H-M   'P 1'
_symmetry_Int_Tables_number      1
_space_group_name_Hall           'P 1'
loop_
_symmetry_equiv_pos_site_id
_symmetry_equiv_pos_as_xyz
1 x,y,z
_cell_length_a                   25.89(2)
_cell_length_b                   25.89(2)
_cell_length_c                   25.89(2)
_cell_angle_alpha                90
_cell_angle_beta                 90
_cell_angle_gamma                90
_cell_volume                     17353.9
loop_
_atom_site_label
_atom_site_type_symbol
_atom_site_fract_x
_atom_site_fract_y
_atom_site_fract_z
Zn1 Zn 0.29315(4) 0.29315(4) 0.29315(4)
O1 O 0.2500 0.2500 0.2500
O2 O 0.3665(3) 0.2817(2) 0.2817(2)
C1 C 0.4471(6) 0.2500 0.2500
C2 C 0.3885(6) 0.2500 0.2500
C3 C 0.4739(4) 0.2808(3) 0.2808(3)
H1 H 0.4560 0.3035 0.3035
O3 O 0.6335(3) 0.2817(2) 0.2817(2)
C4 C 0.5529(6) 0.2500 0.2500
C5 C 0.6115(6) 0.2500 0.2500
C6 C 0.5261(4) 0.2808(3) 0.2808(3)
H2 H 0.5440 0.3035 0.3035
O4 O 0.3665(3) 0.2183(2) 0.2183(2)
C7 C 0.4739(4) 0.2192(3) 0.2192(3)
H3 H 0.4560 0.1965 0.1965
O5 O 0.6335(3) 0.2183(2) 0.2183(2)
C8 C 0.5261(4) 0.2192(3) 0.2192(3)
H4 H 0.5440 0.1965 0.1965
O6 O 0.2817(2) 0.3665(3) 0.2817(2)
C9 C 0.2500 0.4471(6) 0.2500
C10 C 0.2500 0.3885(6) 0.2500
C11 C 0.2808(3) 0.4739(4) 0.2808(3)
H5 H 0.3035 0.4560 0.3035
O7 O 0.2817(2) 0.6335(3) 0.2817(2)
C12 C 0.2500 0.5529(6) 0.2500
C13 C 0.2500 0.6115(6) 0.2500
C14 C 0.2808(3) 0.5261(4) 0.2808(3)
H6 H 0.3035 0.5440 0.3035
O8 O 0.2183(2) 0.3665(3) 0.2183(2)
C15 C 0.2192(3) 0.4739(4) 0.2192(3)
H7 H 0.1965 0.4560 0.1965
O9 O 0.2183(2) 0.6335(3) 0.2183(2)
C16 C 0.2192(3) 0.5261(4) 0.2192(3)
H8 H 0.1965 0.5440 0.1965
O10 O 0.2817(2) 0.2817(2) 0.3665(3)
C17 C 0.2500 0.2500 0.4471(6)
C18 C 0.2500 0.2500 0.3885(6)
C19 C 0.2808(3) 0.2808(3) 0.4739(4)
H9 H 0.3035 0.3035 0.4560
O11 O 0.2817(2) 0.2817(2) 0.6335(3)
C20 C 0.2500 0.2500 0.5529(6)
C21 C 0.2500 0.2500 0.6115(6)
C22 C 0.2808(3) 0.2808(3) 0.5261(4)
H10 H 0.3035 0.3035 0.5440
O12 O 0.2183(2) 0.2183(2) 0.3665(3)
C23 C 0.2192(3) 0.2192(3) 0.4739(4)
H11 H 0.1965 0.1965 0.4560
O13 O 0.2183(2) 0.2183(2) 0.6335(3)
C24 C 0.2192(3) 0.2192(3) 0.5261(4)
H12 H 0.1965 0.1965 0.5440
Zn2 Zn 0.29315(4) 0.70685(4) 0.29315(4)
Zn3 Zn 0.70685(4) 0.29315(4) 0.29315(4)
Zn4 Zn 0.29315(4) 0.29315(4) 0.70685(4)
Zn5 Zn 0.29315(4) 0.20685(4) 0.20685(4)
Zn6 Zn 0.70685(4) 0.20685(4) 0.20685(4)
Zn7 Zn 0.20685(4) 0.29315(4) 0.20685(4)
Zn8 Zn 0.20685(4) 0.70685(4) 0.20685(4)
Zn9 Zn 0.20685(4) 0.20685(4) 0.29315(4)
Zn10 Zn 0.20685(4) 0.20685(4) 0.70685(4)
O14 O 0.2500 0.2500 0.7500
O15 O 0.2500 0.7500 0.2500
O16 O 0.7500 0.2500 0.2500
O17 O 0.2817(2) 0.3665(3) 0.7183(2)
O18 O 0.7183(2) 0.3665(3) 0.2817(2)
O19 O 0.3665(3) 0.2817(2) 0.7183(2)
O20 O 0.3665(3) 0.7183(2) 0.2817(2)
O21 O 0.2817(2) 0.7183(2) 0.3665(3)
O22 O 0.7183(2) 0.2817(2) 0.3665(3)
Zn1_2 Zn 0.70685(4) 0.70685(4) 0.29315(4)
O1_2 O 0.7500 0.7500 0.2500
O2_2 O 0.6335(3) 0.7183(2) 0.2817(2)
C1_2 C 0.5529(6) 0.7500 0.2500
C2_2 C 0.6115(6) 0.7500 0.2500
C3_2 C 0.5261(4) 0.7192(3) 0.2808(3)
H1_2 H 0.5440 0.6965 0.3035
C4_2 C 0.4471(6) 0.7500 0.2500
C5_2 C 0.3885(6) 0.7500 0.2500
C6_2 C 0.4739(4) 0.7192(3) 0.2808(3)
H2_2 H 0.4560 0.6965 0.3035
O4_2 O 0.6335(3) 0.7817(2) 0.2183(2)
C7_2 C 0.5261(4) 0.7808(3) 0.2192(3)
H3_2 H 0.5440 0.8035 0.1965
O5_2 O 0.3665(3) 0.7817(2) 0.2183(2)
C8_2 C 0.4739(4) 0.7808(3) 0.2192(3)
H4_2 H 0.4560 0.8035 0.1965
O6_2 O 0.7183(2) 0.6335(3) 0.2817(2)
C9_2 C 0.7500 0.5529(6) 0.2500
C10_2 C 0.7500 0.6115(6) 0.2500
C11_2 C 0.7192(3) 0.5261(4) 0.2808(3)
H5_2 H 0.6965 0.5440 0.3035
C12_2 C 0.7500 0.4471(6) 0.2500
C13_2 C 0.7500 0.3885(6) 0.2500
C14_2 C 0.7192(3) 0.4739(4) 0.2808(3)
H6_2 H 0.6965 0.4560 0.3035
O8_2 O 0.7817(2) 0.6335(3) 0.2183(2)
C15_2 C 0.7808(3) 0.5261(4) 0.2192(3)
H7_2 H 0.8035 0.5440 0.1965
O9_2 O 0.7817(2) 0.3665(3) 0.2183(2)
C16_2 C 0.7808(3) 0.4739(4) 0.2192(3)
H8_2 H 0.8035 0.4560 0.1965
O10_2 O 0.7183(2) 0.7183(2) 0.3665(3)
C17_2 C 0.7500 0.7500 0.4471(6)
C18_2 C 0.7500 0.7500 0.3885(6)
C19_2 C 0.7192(3) 0.7192(3) 0.4739(4)
H9_2 H 0.6965 0.6965 0.4560
O11_2 O 0.7183(2) 0.7183(2) 0.6335(3)
C20_2 C 0.7500 0.7500 0.5529(6)
C21_2 C 0.7500 0.7500 0.6115(6)
C22_2 C 0.7192(3) 0.7192(3) 0.5261(4)
H10_2 H 0.6965 0.6965 0.5440
O12_2 O 0.7817(2) 0.7817(2) 0.3665(3)
C23_2 C 0.7808(3) 0.7808(3) 0.4739(4)
H11_2 H 0.8035 0.8035 0.4560
O13_2 O 0.7817(2) 0.7817(2) 0.6335(3)
C24_2 C 0.7808(3) 0.7808(3) 0.5261(4)
H12_2 H 0.8035 0.8035 0.5440
Zn4_2 Zn 0.70685(4) 0.70685(4) 0.70685(4)
Zn5_2 Zn 0.70685(4) 0.79315(4) 0.20685(4)
Zn6_2 Zn 0.29315(4) 0.79315(4) 0.20685(4)
Zn7_2 Zn 0.79315(4) 0.70685(4) 0.20685(4)
Zn8_2 Zn 0.79315(4) 0.29315(4) 0.20685(4)
Zn9_2 Zn 0.79315(4) 0.79315(4) 0.29315(4)
Zn10_2 Zn 0.79315(4) 0.79315(4) 0.70685(4)
O14_2 O 0.7500 0.7500 0.7500
O17_2 O 0.7183(2) 0.6335(3) 0.7183(2)
O19_2 O 0.6335(3) 0.7183(2) 0.7183(2)
Zn1_3 Zn 0.70685(4) 0.29315(4) 0.70685(4)
O1_3 O 0.7500 0.2500 0.7500
O2_3 O 0.6335(3) 0.2817(2) 0.7183(2)
C1_3 C 0.5529(6) 0.2500 0.7500
C2_3 C 0.6115(6) 0.2500 0.7500
C3_3 C 0.5261(4) 0.2808(3) 0.7192(3)
H1_3 H 0.5440 0.3035 0.6965
C4_3 C 0.4471(6) 0.2500 0.7500
C5_3 C 0.3885(6) 0.2500 0.7500
C6_3 C 0.4739(4) 0.2808(3) 0.7192(3)
H2_3 H 0.4560 0.3035 0.6965
O4_3 O 0.6335(3) 0.2183(2) 0.7817(2)
C7_3 C 0.5261(4) 0.2192(3) 0.7808(3)
H3_3 H 0.5440 0.1965 0.8035
O5_3 O 0.3665(3) 0.2183(2) 0.7817(2)
C8_3 C 0.4739(4) 0.2192(3) 0.7808(3)
H4_3 H 0.4560 0.1965 0.8035
O6_3 O 0.7183(2) 0.3665(3) 0.7183(2)
C9_3 C 0.7500 0.4471(6) 0.7500
C10_3 C 0.7500 0.3885(6) 0.7500
C11_3 C 0.7192(3) 0.4739(4) 0.7192(3)
H5_3 H 0.6965 0.4560 0.6965
C12_3 C 0.7500 0.5529(6) 0.7500
C13_3 C 0.7500 0.6115(6) 0.7500
C14_3 C 0.7192(3) 0.5261(4) 0.7192(3)
H6_3 H 0.6965 0.5440 0.6965
O8_3 O 0.7817(2) 0.3665(3) 0.7817(2)
C15_3 C 0.7808(3) 0.4739(4) 0.7808(3)
H7_3 H 0.8035 0.4560 0.8035
O9_3 O 0.7817(2) 0.6335(3) 0.7817(2)
C16_3 C 0.7808(3) 0.5261(4) 0.7808(3)
H8_3 H 0.8035 0.5440 0.8035
O10_3 O 0.7183(2) 0.2817(2) 0.6335(3)
C17_3 C 0.7500 0.2500 0.5529(6)
C18_3 C 0.7500 0.2500 0.6115(6)
C19_3 C 0.7192(3) 0.2808(3) 0.5261(4)
H9_3 H 0.6965 0.3035 0.5440
C20_3 C 0.7500 0.2500 0.4471(6)
C21_3 C 0.7500 0.2500 0.3885(6)
C22_3 C 0.7192(3) 0.2808(3) 0.4739(4)
H10_3 H 0.6965 0.3035 0.4560
O12_3 O 0.7817(2) 0.2183(2) 0.6335(3)
C23_3 C 0.7808(3) 0.2192(3) 0.5261(4)
H11_3 H 0.8035 0.1965 0.5440
O13_3 O 0.7817(2) 0.2183(2) 0.3665(3)
C24_3 C 0.7808(3) 0.2192(3) 0.4739(4)
H12_3 H 0.8035 0.1965 0.4560
Zn5_3 Zn 0.70685(4) 0.20685(4) 0.79315(4)
Zn6_3 Zn 0.29315(4) 0.20685(4) 0.79315(4)
Zn7_3 Zn 0.79315(4) 0.29315(4) 0.79315(4)
Zn8_3 Zn 0.79315(4) 0.70685(4) 0.79315(4)
Zn9_3 Zn 0.79315(4) 0.20685(4) 0.70685(4)
Zn10_3 Zn 0.79315(4) 0.20685(4) 0.29315(4)
Zn1_4 Zn 0.29315(4) 0.70685(4) 0.70685(4)
O1_4 O 0.2500 0.7500 0.7500
O2_4 O 0.3665(3) 0.7183(2) 0.7183(2)
C1_4 C 0.4471(6) 0.7500 0.7500
C2_4 C 0.3885(6) 0.7500 0.7500
C3_4 C 0.4739(4) 0.7192(3) 0.7192(3)
H1_4 H 0.4560 0.6965 0.6965
C4_4 C 0.5529(6) 0.7500 0.7500
C5_4 C 0.6115(6) 0.7500 0.7500
C6_4 C 0.5261(4) 0.7192(3) 0.7192(3)
H2_4 H 0.5440 0.6965 0.6965
O4_4 O 0.3665(3) 0.7817(2) 0.7817(2)
C7_4 C 0.4739(4) 0.7808(3) 0.7808(3)
H3_4 H 0.4560 0.8035 0.8035
O5_4 O 0.6335(3) 0.7817(2) 0.7817(2)
C8_4 C 0.5261(4) 0.7808(3) 0.7808(3)
H4_4 H 0.5440 0.8035 0.8035
O6_4 O 0.2817(2) 0.6335(3) 0.7183(2)
C9_4 C 0.2500 0.5529(6) 0.7500
C10_4 C 0.2500 0.6115(6) 0.7500
C11_4 C 0.2808(3) 0.5261(4) 0.7192(3)
H5_4 H 0.3035 0.5440 0.6965
C12_4 C 0.2500 0.4471(6) 0.7500
C13_4 C 0.2500 0.3885(6) 0.7500
C14_4 C 0.2808(3) 0.4739(4) 0.7192(3)
H6_4 H 0.3035 0.4560 0.6965
O8_4 O 0.2183(2) 0.6335(3) 0.7817(2)
C15_4 C 0.2192(3) 0.5261(4) 0.7808(3)
H7_4 H 0.1965 0.5440 0.8035
O9_4 O 0.2183(2) 0.3665(3) 0.7817(2)
C16_4 C 0.2192(3) 0.4739(4) 0.7808(3)
H8_4 H 0.1965 0.4560 0.8035
O10_4 O 0.2817(2) 0.7183(2) 0.6335(3)
C17_4 C 0.2500 0.7500 0.5529(6)
C18_4 C 0.2500 0.7500 0.6115(6)
C19_4 C 0.2808(3) 0.7192(3) 0.5261(4)
H9_4 H 0.3035 0.6965 0.5440
C20_4 C 0.2500 0.7500 0.4471(6)
C21_4 C 0.2500 0.7500 0.3885(6)
C22_4 C 0.2808(3) 0.7192(3) 0.4739(4)
H10_4 H 0.3035 0.6965 0.4560
O12_4 O 0.2183(2) 0.7817(2) 0.6335(3)
C23_4 C 0.2192(3) 0.7808(3) 0.5261(4)
H11_4 H 0.1965 0.8035 0.5440
O13_4 O 0.2183(2) 0.7817(2) 0.3665(3)
C24_4 C 0.2192(3) 0.7808(3) 0.4739(4)
H12_4 H 0.1965 0.8035 0.4560
Zn5_4 Zn 0.29315(4) 0.79315(4) 0.79315(4)
Zn6_4 Zn 0.70685(4) 0.79315(4) 0.79315(4)
Zn7_4 Zn 0.20685(4) 0.70685(4) 0.79315(4)
Zn8_4 Zn 0.20685(4) 0.29315(4) 0.79315(4)
Zn9_4 Zn 0.20685(4) 0.79315(4) 0.70685(4)
Zn10_4 Zn 0.20685(4) 0.79315(4) 0.29315(4)
O7_2 O 0.2817(2) 0.1335(3) 0.7817(2)
C12_5 C 0.2500 0.0529(6) 0.7500
C13_5 C 0.2500 0.1115(6) 0.7500
C14_5 C 0.2808(3) 0.0261(4) 0.7808(3)
H6_5 H 0.3035 0.0440 0.8035
O9_5 O 0.2183(2) 0.1335(3) 0.7183(2)
C16_5 C 0.2192(3) 0.0261(4) 0.7192(3)
H8_5 H 0.1965 0.0440 0.6965
O21_2 O 0.2817(2) 0.2183(2) 0.8665(3)
O11_3 O 0.2817(2) 0.7817(2) 0.1335(3)
C20_5 C 0.2500 0.7500 0.0529(6)
C21_5 C 0.2500 0.7500 0.1115(6)
C22_5 C 0.2808(3) 0.7808(3) 0.0261(4)
H10_5 H 0.3035 0.8035 0.0440
O13_5 O 0.2183(2) 0.7183(2) 0.1335(3)
C24_5 C 0.2192(3) 0.7192(3) 0.0261(4)
H12_5 H 0.1965 0.6965 0.0440
O17_3 O 0.2817(2) 0.8665(3) 0.2183(2)
O6_5 O 0.2817(2) 0.8665(3) 0.7817(2)
C9_5 C 0.2500 0.9471(6) 0.7500
C10_5 C 0.2500 0.8885(6) 0.7500
C11_5 C 0.2808(3) 0.9739(4) 0.7808(3)
H5_5 H 0.3035 0.9560 0.8035
O8_5 O 0.2183(2) 0.8665(3) 0.7183(2)
C15_5 C 0.2192(3) 0.9739(4) 0.7192(3)
H7_5 H 0.1965 0.9560 0.6965
O10_5 O 0.2817(2) 0.7817(2) 0.8665(3)
C17_5 C 0.2500 0.7500 0.9471(6)
C18_5 C 0.2500 0.7500 0.8885(6)
C19_5 C 0.2808(3) 0.7808(3) 0.9739(4)
H9_5 H 0.3035 0.8035 0.9560
O12_5 O 0.2183(2) 0.7183(2) 0.8665(3)
C23_5 C 0.2192(3) 0.7192(3) 0.9739(4)
H11_5 H 0.1965 0.6965 0.9560
O18_2 O 0.7183(2) 0.8665(3) 0.7817(2)
O22_2 O 0.7183(2) 0.7817(2) 0.8665(3)
O11_4 O 0.7183(2) 0.2183(2) 0.1335(3)
C20_6 C 0.7500 0.2500 0.0529(6)
C21_6 C 0.7500 0.2500 0.1115(6)
C22_6 C 0.7192(3) 0.2192(3) 0.0261(4)
H10_6 H 0.6965 0.1965 0.0440
O13_6 O 0.7817(2) 0.2817(2) 0.1335(3)
C24_6 C 0.7808(3) 0.2808(3) 0.0261(4)
H12_6 H 0.8035 0.3035 0.0440
O17_4 O 0.7183(2) 0.1335(3) 0.2183(2)
O6_6 O 0.7183(2) 0.1335(3) 0.7817(2)
C9_6 C 0.7500 0.0529(6) 0.7500
C10_6 C 0.7500 0.1115(6) 0.7500
C11_6 C 0.7192(3) 0.0261(4) 0.7808(3)
H5_6 H 0.6965 0.0440 0.8035
O8_6 O 0.7817(2) 0.1335(3) 0.7183(2)
C15_6 C 0.7808(3) 0.0261(4) 0.7192(3)
H7_6 H 0.8035 0.0440 0.6965
O10_6 O 0.7183(2) 0.2183(2) 0.8665(3)
C17_6 C 0.7500 0.2500 0.9471(6)
C18_6 C 0.7500 0.2500 0.8885(6)
C19_6 C 0.7192(3) 0.2192(3) 0.9739(4)
H9_6 H 0.6965 0.1965 0.9560
O12_6 O 0.7817(2) 0.2817(2) 0.8665(3)
C23_6 C 0.7808(3) 0.2808(3) 0.9739(4)
H11_6 H 0.8035 0.3035 0.9560
C12_6 C 0.7500 0.9471(6) 0.7500
C13_6 C 0.7500 0.8885(6) 0.7500
C14_6 C 0.7192(3) 0.9739(4) 0.7808(3)
H6_6 H 0.6965 0.9560 0.8035
O9_6 O 0.7817(2) 0.8665(3) 0.7183(2)
C16_6 C 0.7808(3) 0.9739(4) 0.7192(3)
H8_6 H 0.8035 0.9560 0.6965
C12_7 C 0.7500 0.0529(6) 0.2500
C13_7 C 0.7500 0.1115(6) 0.2500
C14_7 C 0.7192(3) 0.0261(4) 0.2192(3)
H6_7 H 0.6965 0.0440 0.1965
O9_7 O 0.7817(2) 0.1335(3) 0.2817(2)
C16_7 C 0.7808(3) 0.0261(4) 0.2808(3)
H8_7 H 0.8035 0.0440 0.3035
O6_7 O 0.7183(2) 0.8665(3) 0.2183(2)
C9_7 C 0.7500 0.9471(6) 0.2500
C10_7 C 0.7500 0.8885(6) 0.2500
C11_7 C 0.7192(3) 0.9739(4) 0.2192(3)
H5_7 H 0.6965 0.9560 0.1965
O8_7 O 0.7817(2) 0.8665(3) 0.2817(2)
C15_7 C 0.7808(3) 0.9739(4) 0.2808(3)
H7_7 H 0.8035 0.9560 0.3035
O10_7 O 0.7183(2) 0.7817(2) 0.1335(3)
C17_7 C 0.7500 0.7500 0.0529(6)
C18_7 C 0.7500 0.7500 0.1115(6)
C19_7 C 0.7192(3) 0.7808(3) 0.0261(4)
H9_7 H 0.6965 0.8035 0.0440
O12_7 O 0.7817(2) 0.7183(2) 0.1335(3)
C23_7 C 0.7808(3) 0.7192(3) 0.0261(4)
H11_7 H 0.8035 0.6965 0.0440
C20_7 C 0.7500 0.7500 0.9471(6)
C21_7 C 0.7500 0.7500 0.8885(6)
C22_7 C 0.7192(3) 0.7808(3) 0.9739(4)
H10_7 H 0.6965 0.8035 0.9560
O13_7 O 0.7817(2) 0.7183(2) 0.8665(3)
C24_7 C 0.7808(3) 0.7192(3) 0.9739(4)
H12_7 H 0.8035 0.6965 0.9560
O6_8 O 0.2817(2) 0.1335(3) 0.2183(2)
C9_8 C 0.2500 0.0529(6) 0.2500
C10_8 C 0.2500 0.1115(6) 0.2500
C11_8 C 0.2808(3) 0.0261(4) 0.2192(3)
H5_8 H 0.3035 0.0440 0.1965
O8_8 O 0.2183(2) 0.1335(3) 0.2817(2)
C15_8 C 0.2192(3) 0.0261(4) 0.2808(3)
H7_8 H 0.1965 0.0440 0.3035
O10_8 O 0.2817(2) 0.2183(2) 0.1335(3)
C17_8 C 0.2500 0.2500 0.0529(6)
C18_8 C 0.2500 0.2500 0.1115(6)
C19_8 C 0.2808(3) 0.2192(3) 0.0261(4)
H9_8 H 0.3035 0.1965 0.0440
O12_8 O 0.2183(2) 0.2817(2) 0.1335(3)
C23_8 C 0.2192(3) 0.2808(3) 0.0261(4)
H11_8 H 0.1965 0.3035 0.0440
C20_8 C 0.2500 0.2500 0.9471(6)
C21_8 C 0.2500 0.2500 0.8885(6)
C22_8 C 0.2808(3) 0.2192(3) 0.9739(4)
H10_8 H 0.3035 0.1965 0.9560
O13_8 O 0.2183(2) 0.2817(2) 0.8665(3)
C24_8 C 0.2192(3) 0.2808(3) 0.9739(4)
H12_8 H 0.1965 0.3035 0.9560
C12_8 C 0.2500 0.9471(6) 0.2500
C13_8 C 0.2500 0.8885(6) 0.2500
C14_8 C 0.2808(3) 0.9739(4) 0.2192(3)
H6_8 H 0.3035 0.9560 0.1965
O9_8 O 0.2183(2) 0.8665(3) 0.2817(2)
C16_8 C 0.2192(3) 0.9739(4) 0.2808(3)
H8_8 H 0.1965 0.9560 0.3035
O3_2 O 0.1335(3) 0.2817(2) 0.7817(2)
C4_5 C 0.0529(6) 0.2500 0.7500
C5_5 C 0.1115(6) 0.2500 0.7500
C6_5 C 0.0261(4) 0.2808(3) 0.7808(3)
H2_5 H 0.0440 0.3035 0.8035
O5_5 O 0.1335(3) 0.2183(2) 0.7183(2)
C8_5 C 0.0261(4) 0.2192(3) 0.7192(3)
H4_5 H 0.0440 0.1965 0.6965
O19_3 O 0.8665(3) 0.2817(2) 0.2183(2)
O2_5 O 0.8665(3) 0.2817(2) 0.7817(2)
C1_5 C 0.9471(6) 0.2500 0.7500
C2_5 C 0.8885(6) 0.2500 0.7500
C3_5 C 0.9739(4) 0.2808(3) 0.7808(3)
H1_5 H 0.9560 0.3035 0.8035
O4_5 O 0.8665(3) 0.2183(2) 0.7183(2)
C7_5 C 0.9739(4) 0.2192(3) 0.7192(3)
H3_5 H 0.9560 0.1965 0.6965
O20_2 O 0.8665(3) 0.7183(2) 0.7817(2)
O19_4 O 0.1335(3) 0.7183(2) 0.2183(2)
O2_6 O 0.1335(3) 0.7183(2) 0.7817(2)
C1_6 C 0.0529(6) 0.7500 0.7500
C2_6 C 0.1115(6) 0.7500 0.7500
C3_6 C 0.0261(4) 0.7192(3) 0.7808(3)
H1_6 H 0.0440 0.6965 0.8035
O4_6 O 0.1335(3) 0.7817(2) 0.7183(2)
C7_6 C 0.0261(4) 0.7808(3) 0.7192(3)
H3_6 H 0.0440 0.8035 0.6965
C4_6 C 0.9471(6) 0.7500 0.7500
C5_6 C 0.8885(6) 0.7500 0.7500
C6_6 C 0.9739(4) 0.7192(3) 0.7808(3)
H2_6 H 0.9560 0.6965 0.8035
O5_6 O 0.8665(3) 0.7817(2) 0.7183(2)
C8_6 C 0.9739(4) 0.7808(3) 0.7192(3)
H4_6 H 0.9560 0.8035 0.6965
O2_7 O 0.1335(3) 0.2817(2) 0.2183(2)
C1_7 C 0.0529(6) 0.2500 0.2500
C2_7 C 0.1115(6) 0.2500 0.2500
C3_7 C 0.0261(4) 0.2808(3) 0.2192(3)
H1_7 H 0.0440 0.3035 0.1965
O4_7 O 0.1335(3) 0.2183(2) 0.2817(2)
C7_7 C 0.0261(4) 0.2192(3) 0.2808(3)
H3_7 H 0.0440 0.1965 0.3035
C4_7 C 0.9471(6) 0.2500 0.2500
C5_7 C 0.8885(6) 0.2500 0.2500
C6_7 C 0.9739(4) 0.2808(3) 0.2192(3)
H2_7 H 0.9560 0.3035 0.1965
O5_7 O 0.8665(3) 0.2183(2) 0.2817(2)
C8_7 C 0.9739(4) 0.2192(3) 0.2808(3)
H4_7 H 0.9560 0.1965 0.3035
C4_8 C 0.0529(6) 0.7500 0.2500
C5_8 C 0.1115(6) 0.7500 0.2500
C6_8 C 0.0261(4) 0.7192(3) 0.2192(3)
H2_8 H 0.0440 0.6965 0.1965
O5_8 O 0.1335(3) 0.7817(2) 0.2817(2)
C8_8 C 0.0261(4) 0.7808(3) 0.2808(3)
H4_8 H 0.0440 0.8035 0.3035
O2_8 O 0.8665(3) 0.7183(2) 0.2183(2)
C1_8 C 0.9471(6) 0.7500 0.2500
C2_8 C 0.8885(6) 0.7500 0.2500
C3_8 C 0.9739(4) 0.7192(3) 0.2192(3)
H1_8 H 0.9560 0.6965 0.1965
O4_8 O 0.8665(3) 0.7817(2) 0.2817(2)
C7_8 C 0.9739(4) 0.7808(3) 0.2808(3)
H3_8 H 0.9560 0.8035 0.3035
loop_
_geom_bond_atom_site_label_1
_geom_bond_atom_site_label_2
_geom_bond_site_symmetry_1
_geom_bond_site_symmetry_2
Zn1 O1 1_555 1_555
O1 Zn5 1_555 1_555
O2 Zn1 1_555 1_555
C1 C2 1_555 1_555
C2 O2 1_555 1_555
C3 C1 1_555 1_555
H1 C3 1_555 1_555
O3 C5 1_555 1_555
C4 C5 1_555 1_555
C5 O5 1_555 1_555
C6 C3 1_555 1_555
H2 C6 1_555 1_555
O4 C2 1_555 1_555
C7 C1 1_555 1_555
H3 C7 1_555 1_555
O5 Zn6 1_555 1_555
C8 C4 1_555 1_555
H4 C8 1_555 1_555
O6 Zn1 1_555 1_555
C9 C10 1_555 1_555
C10 O6 1_555 1_555
C11 C9 1_555 1_555
H5 C11 1_555 1_555
O7 C13 1_555 1_555
C12 C13 1_555 1_555
C13 O9 1_555 1_555
C14 C11 1_555 1_555
H6 C14 1_555 1_555
O8 C10 1_555 1_555
C15 C9 1_555 1_555
H7 C15 1_555 1_555
O9 Zn8 1_555 1_555
C16 C12 1_555 1_555
H8 C16 1_555 1_555
O10 Zn1 1_555 1_555
C17 C18 1_555 1_555
C18 O10 1_555 1_555
C19 C17 1_555 1_555
H9 C19 1_555 1_555
O11 C21 1_555 1_555
C20 C21 1_555 1_555
C21 O13 1_555 1_555
C22 C19 1_555 1_555
H10 C22 1_555 1_555
O12 C18 1_555 1_555
C23 C17 1_555 1_555
H11 C23 1_555 1_555
O13 Zn10 1_555 1_555
C24 C20 1_555 1_555
H12 C24 1_555 1_555
Zn2 O7 1_555 1_555
Zn3 O3 1_555 1_555
Zn4 O11 1_555 1_555
Zn5 O4 1_555 1_555
Zn6 O16 1_555 1_555
Zn7 O1 1_555 1_555
Zn8 O15 1_555 1_555
Zn9 O1 1_555 1_555
Zn10 O14 1_555 1_555
O14 Zn4 1_555 1_555
O15 Zn2 1_555 1_555
O16 Zn3 1_555 1_555
O17 Zn4 1_555 1_555
O18 Zn3 1_555 1_555
O19 Zn4 1_555 1_555
O20 Zn2 1_555 1_555
O21 Zn2 1_555 1_555
O22 Zn3 1_555 1_555
C4 C6 1_555 1_555
C7 C8 1_555 1_555
C12 C14 1_555 1_555
O8 Zn7 1_555 1_555
C15 C16 1_555 1_555
C20 C22 1_555 1_555
O12 Zn9 1_555 1_555
C23 C24 1_555 1_555
Zn1_2 O1_2 1_555 1_555
O1_2 Zn5_2 1_555 1_555
O2_2 Zn1_2 1_555 1_555
C1_2 C2_2 1_555 1_555
C2_2 O2_2 1_555 1_555
C3_2 C1_2 1_555 1_555
H1_2 C3_2 1_555 1_555
O20 C5_2 1_555 1_555
C4_2 C5_2 1_555 1_555
C5_2 O5_2 1_555 1_555
C6_2 C3_2 1_555 1_555
H2_2 C6_2 1_555 1_555
O4_2 C2_2 1_555 1_555
C7_2 C1_2 1_555 1_555
H3_2 C7_2 1_555 1_555
O5_2 Zn6_2 1_555 1_555
C8_2 C4_2 1_555 1_555
H4_2 C8_2 1_555 1_555
O6_2 Zn1_2 1_555 1_555
C9_2 C10_2 1_555 1_555
C10_2 O6_2 1_555 1_555
C11_2 C9_2 1_555 1_555
H5_2 C11_2 1_555 1_555
O18 C13_2 1_555 1_555
C12_2 C13_2 1_555 1_555
C13_2 O9_2 1_555 1_555
C14_2 C11_2 1_555 1_555
H6_2 C14_2 1_555 1_555
O8_2 C10_2 1_555 1_555
C15_2 C9_2 1_555 1_555
H7_2 C15_2 1_555 1_555
O9_2 Zn8_2 1_555 1_555
C16_2 C12_2 1_555 1_555
H8_2 C16_2 1_555 1_555
O10_2 Zn1_2 1_555 1_555
C17_2 C18_2 1_555 1_555
C18_2 O10_2 1_555 1_555
C19_2 C17_2 1_555 1_555
H9_2 C19_2 1_555 1_555
O11_2 C21_2 1_555 1_555
C20_2 C21_2 1_555 1_555
C21_2 O13_2 1_555 1_555
C22_2 C19_2 1_555 1_555
H10_2 C22_2 1_555 1_555
O12_2 C18_2 1_555 1_555
C23_2 C17_2 1_555 1_555
H11_2 C23_2 1_555 1_555
O13_2 Zn10_2 1_555 1_555
C24_2 C20_2 1_555 1_555
H12_2 C24_2 1_555 1_555
Zn4_2 O11_2 1_555 1_555
Zn5_2 O4_2 1_555 1_555
Zn6_2 O15 1_555 1_555
Zn7_2 O1_2 1_555 1_555
Zn8_2 O16 1_555 1_555
Zn9_2 O1_2 1_555 1_555
Zn10_2 O14_2 1_555 1_555
O14_2 Zn4_2 1_555 1_555
O17_2 Zn4_2 1_555 1_555
O19_2 Zn4_2 1_555 1_555
C4_2 C6_2 1_555 1_555
C7_2 C8_2 1_555 1_555
C12_2 C14_2 1_555 1_555
O8_2 Zn7_2 1_555 1_555
C15_2 C16_2 1_555 1_555
C20_2 C22_2 1_555 1_555
O12_2 Zn9_2 1_555 1_555
C23_2 C24_2 1_555 1_555
Zn1_3 O1_3 1_555 1_555
O1_3 Zn5_3 1_555 1_555
O2_3 Zn1_3 1_555 1_555
C1_3 C2_3 1_555 1_555
C2_3 O2_3 1_555 1_555
C3_3 C1_3 1_555 1_555
H1_3 C3_3 1_555 1_555
O19 C5_3 1_555 1_555
C4_3 C5_3 1_555 1_555
C5_3 O5_3 1_555 1_555
C6_3 C3_3 1_555 1_555
H2_3 C6_3 1_555 1_555
O4_3 C2_3 1_555 1_555
C7_3 C1_3 1_555 1_555
H3_3 C7_3 1_555 1_555
O5_3 Zn6_3 1_555 1_555
C8_3 C4_3 1_555 1_555
H4_3 C8_3 1_555 1_555
O6_3 Zn1_3 1_555 1_555
C9_3 C10_3 1_555 1_555
C10_3 O6_3 1_555 1_555
C11_3 C9_3 1_555 1_555
H5_3 C11_3 1_555 1_555
O17_2 C13_3 1_555 1_555
C12_3 C13_3 1_555 1_555
C13_3 O9_3 1_555 1_555
C14_3 C11_3 1_555 1_555
H6_3 C14_3 1_555 1_555
O8_3 C10_3 1_555 1_555
C15_3 C9_3 1_555 1_555
H7_3 C15_3 1_555 1_555
O9_3 Zn8_3 1_555 1_555
C16_3 C12_3 1_555 1_555
H8_3 C16_3 1_555 1_555
O10_3 Zn1_3 1_555 1_555
C17_3 C18_3 1_555 1_555
C18_3 O10_3 1_555 1_555
C19_3 C17_3 1_555 1_555
H9_3 C19_3 1_555 1_555
O22 C21_3 1_555 1_555
C20_3 C21_3 1_555 1_555
C21_3 O13_3 1_555 1_555
C22_3 C19_3 1_555 1_555
H10_3 C22_3 1_555 1_555
O12_3 C18_3 1_555 1_555
C23_3 C17_3 1_555 1_555
H11_3 C23_3 1_555 1_555
O13_3 Zn10_3 1_555 1_555
C24_3 C20_3 1_555 1_555
H12_3 C24_3 1_555 1_555
Zn5_3 O4_3 1_555 1_555
Zn6_3 O14 1_555 1_555
Zn7_3 O1_3 1_555 1_555
Zn8_3 O14_2 1_555 1_555
Zn9_3 O1_3 1_555 1_555
Zn10_3 O16 1_555 1_555
C4_3 C6_3 1_555 1_555
C7_3 C8_3 1_555 1_555
C12_3 C14_3 1_555 1_555
O8_3 Zn7_3 1_555 1_555
C15_3 C16_3 1_555 1_555
C20_3 C22_3 1_555 1_555
O12_3 Zn9_3 1_555 1_555
C23_3 C24_3 1_555 1_555
Zn1_4 O1_4 1_555 1_555
O1_4 Zn5_4 1_555 1_555
O2_4 Zn1_4 1_555 1_555
C1_4 C2_4 1_555 1_555
C2_4 O2_4 1_555 1_555
C3_4 C1_4 1_555 1_555
H1_4 C3_4 1_555 1_555
O19_2 C5_4 1_555 1_555
C4_4 C5_4 1_555 1_555
C5_4 O5_4 1_555 1_555
C6_4 C3_4 1_555 1_555
H2_4 C6_4 1_555 1_555
O4_4 C2_4 1_555 1_555
C7_4 C1_4 1_555 1_555
H3_4 C7_4 1_555 1_555
O5_4 Zn6_4 1_555 1_555
C8_4 C4_4 1_555 1_555
H4_4 C8_4 1_555 1_555
O6_4 Zn1_4 1_555 1_555
C9_4 C10_4 1_555 1_555
C10_4 O6_4 1_555 1_555
C11_4 C9_4 1_555 1_555
H5_4 C11_4 1_555 1_555
O17 C13_4 1_555 1_555
C12_4 C13_4 1_555 1_555
C13_4 O9_4 1_555 1_555
C14_4 C11_4 1_555 1_555
H6_4 C14_4 1_555 1_555
O8_4 C10_4 1_555 1_555
C15_4 C9_4 1_555 1_555
H7_4 C15_4 1_555 1_555
O9_4 Zn8_4 1_555 1_555
C16_4 C12_4 1_555 1_555
H8_4 C16_4 1_555 1_555
O10_4 Zn1_4 1_555 1_555
C17_4 C18_4 1_555 1_555
C18_4 O10_4 1_555 1_555
C19_4 C17_4 1_555 1_555
H9_4 C19_4 1_555 1_555
O21 C21_4 1_555 1_555
C20_4 C21_4 1_555 1_555
C21_4 O13_4 1_555 1_555
C22_4 C19_4 1_555 1_555
H10_4 C22_4 1_555 1_555
O12_4 C18_4 1_555 1_555
C23_4 C17_4 1_555 1_555
H11_4 C23_4 1_555 1_555
O13_4 Zn10_4 1_555 1_555
C24_4 C20_4 1_555 1_555
H12_4 C24_4 1_555 1_555
Zn5_4 O4_4 1_555 1_555
Zn6_4 O14_2 1_555 1_555
Zn7_4 O1_4 1_555 1_555
Zn8_4 O14 1_555 1_555
Zn9_4 O1_4 1_555 1_555
Zn10_4 O15 1_555 1_555
C4_4 C6_4 1_555 1_555
C7_4 C8_4 1_555 1_555
C12_4 C14_4 1_555 1_555
O8_4 Zn7_4 1_555 1_555
C15_4 C16_4 1_555 1_555
C20_4 C22_4 1_555 1_555
O12_4 Zn9_4 1_555 1_555
C23_4 C24_4 1_555 1_555
O7_2 C13_5 1_555 1_555
C12_5 C13_5 1_555 1_555
C13_5 O9_5 1_555 1_555
H6_5 C14_5 1_555 1_555
O9_5 Zn10 1_555 1_555
C16_5 C12_5 1_555 1_555
H8_5 C16_5 1_555 1_555
Zn6_3 O7_2 1_555 1_555
O21_2 Zn6_3 1_555 1_555
C12_5 C14_5 1_555 1_555
O11_3 C21_5 1_555 1_555
C20_5 C21_5 1_555 1_555
C21_5 O13_5 1_555 1_555
H10_5 C22_5 1_555 1_555
O13_5 Zn8 1_555 1_555
C24_5 C20_5 1_555 1_555
H12_5 C24_5 1_555 1_555
Zn6_2 O11_3 1_555 1_555
O17_3 Zn6_2 1_555 1_555
C20_5 C22_5 1_555 1_555
O6_5 Zn5_4 1_555 1_555
C9_5 C10_5 1_555 1_555
C10_5 O6_5 1_555 1_555
C11_5 C9_5 1_555 1_555
H5_5 C11_5 1_555 1_555
O8_5 C10_5 1_555 1_555
C15_5 C9_5 1_555 1_555
H7_5 C15_5 1_555 1_555
O10_5 Zn5_4 1_555 1_555
C17_5 C18_5 1_555 1_555
C18_5 O10_5 1_555 1_555
C19_5 C17_5 1_555 1_555
H9_5 C19_5 1_555 1_555
O12_5 C18_5 1_555 1_555
C23_5 C17_5 1_555 1_555
H11_5 C23_5 1_555 1_555
O18_2 Zn6_4 1_555 1_555
O22_2 Zn6_4 1_555 1_555
O8_5 Zn9_4 1_555 1_555
O12_5 Zn7_4 1_555 1_555
O11_4 C21_6 1_555 1_555
C20_6 C21_6 1_555 1_555
C21_6 O13_6 1_555 1_555
H10_6 C22_6 1_555 1_555
O13_6 Zn8_2 1_555 1_555
C24_6 C20_6 1_555 1_555
H12_6 C24_6 1_555 1_555
Zn6 O11_4 1_555 1_555
O17_4 Zn6 1_555 1_555
C20_6 C22_6 1_555 1_555
O6_6 Zn5_3 1_555 1_555
C9_6 C10_6 1_555 1_555
C10_6 O6_6 1_555 1_555
C11_6 C9_6 1_555 1_555
H5_6 C11_6 1_555 1_555
O8_6 C10_6 1_555 1_555
C15_6 C9_6 1_555 1_555
H7_6 C15_6 1_555 1_555
O10_6 Zn5_3 1_555 1_555
C17_6 C18_6 1_555 1_555
C18_6 O10_6 1_555 1_555
C19_6 C17_6 1_555 1_555
H9_6 C19_6 1_555 1_555
O12_6 C18_6 1_555 1_555
C23_6 C17_6 1_555 1_555
H11_6 C23_6 1_555 1_555
O8_6 Zn9_3 1_555 1_555
O12_6 Zn7_3 1_555 1_555
O18_2 C13_6 1_555 1_555
C12_6 C13_6 1_555 1_555
C13_6 O9_6 1_555 1_555
H6_6 C14_6 1_555 1_555
O9_6 Zn10_2 1_555 1_555
C16_6 C12_6 1_555 1_555
H8_6 C16_6 1_555 1_555
C12_6 C14_6 1_555 1_555
O17_4 C13_7 1_555 1_555
C12_7 C13_7 1_555 1_555
C13_7 O9_7 1_555 1_555
H6_7 C14_7 1_555 1_555
O9_7 Zn10_3 1_555 1_555
C16_7 C12_7 1_555 1_555
H8_7 C16_7 1_555 1_555
C12_7 C14_7 1_555 1_555
O6_7 Zn5_2 1_555 1_555
C9_7 C10_7 1_555 1_555
C10_7 O6_7 1_555 1_555
C11_7 C9_7 1_555 1_555
H5_7 C11_7 1_555 1_555
O8_7 C10_7 1_555 1_555
C15_7 C9_7 1_555 1_555
H7_7 C15_7 1_555 1_555
O10_7 Zn5_2 1_555 1_555
C17_7 C18_7 1_555 1_555
C18_7 O10_7 1_555 1_555
C19_7 C17_7 1_555 1_555
H9_7 C19_7 1_555 1_555
O12_7 C18_7 1_555 1_555
C23_7 C17_7 1_555 1_555
H11_7 C23_7 1_555 1_555
O8_7 Zn9_2 1_555 1_555
O12_7 Zn7_2 1_555 1_555
O22_2 C21_7 1_555 1_555
C20_7 C21_7 1_555 1_555
C21_7 O13_7 1_555 1_555
H10_7 C22_7 1_555 1_555
O13_7 Zn8_3 1_555 1_555
C24_7 C20_7 1_555 1_555
H12_7 C24_7 1_555 1_555
C20_7 C22_7 1_555 1_555
O6_8 Zn5 1_555 1_555
C9_8 C10_8 1_555 1_555
C10_8 O6_8 1_555 1_555
C11_8 C9_8 1_555 1_555
H5_8 C11_8 1_555 1_555
O8_8 C10_8 1_555 1_555
C15_8 C9_8 1_555 1_555
H7_8 C15_8 1_555 1_555
O10_8 Zn5 1_555 1_555
C17_8 C18_8 1_555 1_555
C18_8 O10_8 1_555 1_555
C19_8 C17_8 1_555 1_555
H9_8 C19_8 1_555 1_555
O12_8 C18_8 1_555 1_555
C23_8 C17_8 1_555 1_555
H11_8 C23_8 1_555 1_555
O8_8 Zn9 1_555 1_555
O12_8 Zn7 1_555 1_555
O21_2 C21_8 1_555 1_555
C20_8 C21_8 1_555 1_555
C21_8 O13_8 1_555 1_555
H10_8 C22_8 1_555 1_555
O13_8 Zn8_4 1_555 1_555
C24_8 C20_8 1_555 1_555
H12_8 C24_8 1_555 1_555
C20_8 C22_8 1_555 1_555
O17_3 C13_8 1_555 1_555
C12_8 C13_8 1_555 1_555
C13_8 O9_8 1_555 1_555
H6_8 C14_8 1_555 1_555
O9_8 Zn10_4 1_555 1_555
C16_8 C12_8 1_555 1_555
H8_8 C16_8 1_555 1_555
C12_8 C14_8 1_555 1_555
O3_2 C5_5 1_555 1_555
C4_5 C5_5 1_555 1_555
C5_5 O5_5 1_555 1_555
H2_5 C6_5 1_555 1_555
O5_5 Zn10 1_555 1_555
C8_5 C4_5 1_555 1_555
H4_5 C8_5 1_555 1_555
Zn8_4 O3_2 1_555 1_555
C4_5 C6_5 1_555 1_555
O19_3 Zn8_2 1_555 1_555
O2_5 Zn7_3 1_555 1_555
C1_5 C2_5 1_555 1_555
C2_5 O2_5 1_555 1_555
C3_5 C1_5 1_555 1_555
H1_5 C3_5 1_555 1_555
O4_5 C2_5 1_555 1_555
C7_5 C1_5 1_555 1_555
H3_5 C7_5 1_555 1_555
Zn9_3 O4_5 1_555 1_555
O20_2 Zn8_3 1_555 1_555
O19_4 Zn8 1_555 1_555
O2_6 Zn7_4 1_555 1_555
C1_6 C2_6 1_555 1_555
C2_6 O2_6 1_555 1_555
C3_6 C1_6 1_555 1_555
H1_6 C3_6 1_555 1_555
O4_6 C2_6 1_555 1_555
C7_6 C1_6 1_555 1_555
H3_6 C7_6 1_555 1_555
Zn9_4 O4_6 1_555 1_555
O20_2 C5_6 1_555 1_555
C4_6 C5_6 1_555 1_555
C5_6 O5_6 1_555 1_555
H2_6 C6_6 1_555 1_555
O5_6 Zn10_2 1_555 1_555
C8_6 C4_6 1_555 1_555
H4_6 C8_6 1_555 1_555
C4_6 C6_6 1_555 1_555
O2_7 Zn7 1_555 1_555
C1_7 C2_7 1_555 1_555
C2_7 O2_7 1_555 1_555
C3_7 C1_7 1_555 1_555
H1_7 C3_7 1_555 1_555
O4_7 C2_7 1_555 1_555
C7_7 C1_7 1_555 1_555
H3_7 C7_7 1_555 1_555
Zn9 O4_7 1_555 1_555
O19_3 C5_7 1_555 1_555
C4_7 C5_7 1_555 1_555
C5_7 O5_7 1_555 1_555
H2_7 C6_7 1_555 1_555
O5_7 Zn10_3 1_555 1_555
C8_7 C4_7 1_555 1_555
H4_7 C8_7 1_555 1_555
C4_7 C6_7 1_555 1_555
O19_4 C5_8 1_555 1_555
C4_8 C5_8 1_555 1_555
C5_8 O5_8 1_555 1_555
H2_8 C6_8 1_555 1_555
O5_8 Zn10_4 1_555 1_555
C8_8 C4_8 1_555 1_555
H4_8 C8_8 1_555 1_555
C4_8 C6_8 1_555 1_555
O2_8 Zn7_2 1_555 1_555
C1_8 C2_8 1_555 1_555
C2_8 O2_8 1_555 1_555
C3_8 C1_8 1_555 1_555
H1_8 C3_8 1_555 1_555
O4_8 C2_8 1_555 1_555
C7_8 C1_8 1_555 1_555
H3_8 C7_8 1_555 1_555
Zn9_2 O4_8 1_555 1_555

#END
