
###############################################################################
#
# This file contains modified crystal structure data generated from the
# MOF subset of the Cambridge Structural Database (CSD) v543 
# hosted by the Cambridge Crystallographic Data Centre (CCDC).
#
# This work is licensed under the Creative Commons
# Attribution-NonCommercial-ShareAlike 4.0 International License.
# To view a copy of this license, visit
# http://creativecommons.org/licenses/by-nc-sa/4.0/
# or send a letter to
# Creative Commons, PO Box 1866, Mountain View, CA 94042, USA.
#
# CIF created using the CSD Python API on 29 September 2022
# The structure has been converted into the P1 space group
# The structure has a 3D framework
# The original CSD entry VUVYIX is in the monoclinic crystal system
# The framework has been calculated to contain at least 10.0% void space
# The void calculation uses a probe of radius 1.32A, grid spacing 0.4
# H atom positions have been added when not included in the experimental data
#
###############################################################################

data_VUVYIX
_chemical_formula_moiety         '(C128 H80 Bi8 O56)n'
_symmetry_cell_setting           triclinic
_symmetry_space_group_name_H-M   'P 1'
_symmetry_Int_Tables_number      1
_space_group_name_Hall           'P 1'
loop_
_symmetry_equiv_pos_site_id
_symmetry_equiv_pos_as_xyz
1 x,y,z
_cell_length_a                   18.0213(6)
_cell_length_b                   10.0372(4)
_cell_length_c                   21.2624(8)
_cell_angle_alpha                90
_cell_angle_beta                 99.2066(12)
_cell_angle_gamma                90
_cell_volume                     3796.47
loop_
_atom_site_label
_atom_site_type_symbol
_atom_site_fract_x
_atom_site_fract_y
_atom_site_fract_z
_atom_site_U_iso_or_equiv
_atom_site_thermal_displace_type
Bi1 Bi 0.24076(11) 0.32110(19) 0.35153(9) 0.0222 Uiso
C1 C 0.3829(12) 0.348(4) 0.4196(17) 0.0220 Uiso
C2 C 0.4630(10) 0.351(2) 0.4442(13) 0.0220 Uiso
C3 C 0.5108(9) 0.435(2) 0.4159(11) 0.0220 Uiso
C4 C 0.5883(8) 0.438(3) 0.4398(13) 0.0220 Uiso
C5 C 0.6178(7) 0.357(2) 0.4919(12) 0.0220 Uiso
C6 C 0.5699(6) 0.2738(15) 0.5203(9) 0.0220 Uiso
C7 C 0.4925(8) 0.271(2) 0.4964(12) 0.0220 Uiso
C8 C 0.6378(10) 0.524(4) 0.4105(17) 0.0220 Uiso
C9 C 0.6015(5) 0.1879(10) 0.5759(5) 0.0220 Uiso
C10 C 0.6553(8) 0.2400(12) 0.6249(6) 0.0220 Uiso
C11 C 0.6849(8) 0.1595(11) 0.6771(6) 0.0220 Uiso
C12 C 0.6605(5) 0.0268(10) 0.6803(5) 0.0220 Uiso
C14 C 0.5771(8) 0.0553(11) 0.5791(6) 0.0220 Uiso
O1 O 0.3378(13) 0.270(5) 0.446(2) 0.0220 Uiso
O2 O 0.3552(12) 0.423(4) 0.3703(19) 0.0220 Uiso
O3 O 0.6091(12) 0.620(4) 0.3712(19) 0.0220 Uiso
O4 O 0.7114(11) 0.507(6) 0.423(2) 0.0220 Uiso
C16 C 0.074(2) 0.070(5) 0.326(2) 0.1270 Uiso
O7 O 0.139(3) 0.134(7) 0.310(4) 0.1270 Uiso
Bi3 Bi 0.74076(11) 0.67890(19) 0.35153(9) 0.0222 Uiso
O8 O 0.1091(12) 0.380(4) 0.3712(19) 0.0220 Uiso
O9 O 0.2114(11) 0.493(6) 0.423(2) 0.0220 Uiso
O10 O 0.2236(14) 0.4990(14) 0.2880(9) 0.0220 Uiso
O11 O 0.3136(15) 0.1876(16) 0.2706(8) 0.0220 Uiso
O12 O 0.1864(15) 0.3124(16) 0.2294(8) 0.0220 Uiso
H1 H 0.677791 0.358839 0.510199 . .
H2 H 0.726665 0.199835 0.715007 . .
H3 H 0.0302835 0.143851 0.328441 . .
H5 H 0.0882833 0.0209969 0.372042 . .
H6 H 0.455357 0.206605 0.518445 . .
H7 H 0.535315 0.0150088 0.541196 . .
H8 H 0.48789 0.497557 0.375595 . .
H9 H 0.674083 0.342722 0.622461 . .
C13 C 0.8933(8) 0.9747(12) 0.3687(6) 0.0220 Uiso
C15 C 0.8089(6) 0.9436(12) 0.2658(7) 0.0220 Uiso
O5 O 0.7764(14) 0.9990(14) 0.2120(9) 0.0220 Uiso
O6 O 0.8136(15) 0.8124(16) 0.2706(8) 0.0220 Uiso
Bi4 Bi 0.75924(11) 0.82110(19) 0.14847(9) 0.0222 Uiso
H10 H 0.912083 0.871975 0.366279 . .
C6_2 C 0.0699(6) 0.7738(15) 0.0203(9) 0.0220 Uiso
C9_2 C 0.1015(5) 0.6879(10) 0.0759(5) 0.0220 Uiso
C10_2 C 0.1553(8) 0.7400(12) 0.1249(6) 0.0220 Uiso
C11_2 C 0.1849(8) 0.6595(11) 0.1771(6) 0.0220 Uiso
C12_2 C 0.1605(5) 0.5268(10) 0.1803(5) 0.0220 Uiso
C13_2 C 0.1067(8) 0.4747(12) 0.1313(6) 0.0220 Uiso
C14_2 C 0.0771(8) 0.5553(11) 0.0791(6) 0.0220 Uiso
C15_2 C 0.1911(6) 0.4436(12) 0.2342(7) 0.0220 Uiso
Bi2 Bi 0.25924(11) 0.17890(19) 0.14847(9) 0.0222 Uiso
H1_2 H 0.177791 0.858839 0.0101987 . .
H2_2 H 0.226665 0.699835 0.215007 . .
H7_2 H 0.0353146 0.515009 0.0411961 . .
H9_2 H 0.174083 0.842722 0.122461 . .
H10_2 H 0.0879167 0.371975 0.133721 . .
C8_2 C 0.3622(10) 0.024(4) 0.0895(17) 0.0220 Uiso
O3_2 O 0.3909(12) 0.120(4) 0.1288(19) 0.0220 Uiso
O4_2 O 0.2886(11) 0.007(6) 0.077(2) 0.0220 Uiso
C1_2 C 0.6171(12) 0.848(4) 0.0804(17) 0.0220 Uiso
C2_2 C 0.5370(10) 0.851(2) 0.0558(13) 0.0220 Uiso
C3_2 C 0.4892(9) 0.935(2) 0.0841(11) 0.0220 Uiso
C4_2 C 0.4117(8) 0.938(3) 0.0602(13) 0.0220 Uiso
C5_2 C 0.3822(7) 0.857(2) 0.0081(12) 0.0220 Uiso
C7_2 C 0.5075(8) 0.771(2) 0.0036(12) 0.0220 Uiso
O1_2 O 0.6622(13) 0.770(5) 0.054(2) 0.0220 Uiso
O2_2 O 0.6448(12) 0.923(4) 0.1297(19) 0.0220 Uiso
C16_2 C 0.926(2) 0.570(5) 0.174(2) 0.1270 Uiso
O7_2 O 0.861(3) 0.634(7) 0.190(4) 0.1270 Uiso
O8_2 O 0.8909(12) 0.880(4) 0.1288(19) 0.0220 Uiso
O9_2 O 0.7886(11) 0.993(6) 0.077(2) 0.0220 Uiso
O11_2 O 0.6864(15) 0.6876(16) 0.2294(8) 0.0220 Uiso
H3_2 H 0.969717 0.643851 0.171559 . .
H4 H 0.946272 0.496211 0.210248 . .
H5_2 H 0.911717 0.520997 0.127958 . .
H8_2 H 0.51211 0.997557 0.124405 . .
C13_3 C 0.3933(8) 0.0253(12) 0.3687(6) 0.0220 Uiso
C15_3 C 0.3089(6) 0.0564(12) 0.2658(7) 0.0220 Uiso
O5_2 O 0.2764(14) 0.0010(14) 0.2120(9) 0.0220 Uiso
H4_2 H 0.946272 0.00378879 0.710248 . .
H10_3 H 0.412083 0.128025 0.366279 . .
C3_3 C 0.0108(9) 0.565(2) 0.4159(11) 0.0220 Uiso
C4_3 C 0.0883(8) 0.562(3) 0.4398(13) 0.0220 Uiso
C5_3 C 0.1178(7) 0.643(2) 0.4919(12) 0.0220 Uiso
C6_3 C 0.0699(6) 0.7262(15) 0.5203(9) 0.0220 Uiso
C8_3 C 0.1378(10) 0.476(4) 0.4105(17) 0.0220 Uiso
C9_3 C 0.1015(5) 0.8121(10) 0.5759(5) 0.0220 Uiso
C10_3 C 0.1553(8) 0.7600(12) 0.6249(6) 0.0220 Uiso
C11_3 C 0.1849(8) 0.8405(11) 0.6771(6) 0.0220 Uiso
C12_3 C 0.1605(5) 0.9732(10) 0.6803(5) 0.0220 Uiso
C14_3 C 0.0771(8) 0.9447(11) 0.5791(6) 0.0220 Uiso
H1_3 H 0.177791 0.641161 0.510199 . .
H2_3 H 0.226665 0.800165 0.715007 . .
H7_3 H 0.0353146 0.984991 0.541196 . .
H9_3 H 0.174083 0.657278 0.622461 . .
C1_3 C 0.8829(12) 0.652(4) 0.4196(17) 0.0220 Uiso
C2_3 C 0.9630(10) 0.649(2) 0.4442(13) 0.0220 Uiso
C7_3 C 0.9925(8) 0.729(2) 0.4964(12) 0.0220 Uiso
O1_3 O 0.8378(13) 0.730(5) 0.446(2) 0.0220 Uiso
O2_3 O 0.8552(12) 0.577(4) 0.3703(19) 0.0220 Uiso
C16_3 C 0.574(2) 0.930(5) 0.326(2) 0.1270 Uiso
O7_3 O 0.639(3) 0.866(7) 0.310(4) 0.1270 Uiso
O10_2 O 0.7236(14) 0.5010(14) 0.2880(9) 0.0220 Uiso
H3_3 H 0.530283 0.856149 0.328441 . .
H5_3 H 0.588283 0.979003 0.372042 . .
H6_2 H 0.955357 0.793395 0.518445 . .
H8_3 H 0.98789 0.502443 0.375595 . .
C1_4 C 0.1171(12) 0.152(4) 0.0804(17) 0.0220 Uiso
C2_4 C 0.0370(10) 0.149(2) 0.0558(13) 0.0220 Uiso
C7_4 C 0.0075(8) 0.229(2) 0.0036(12) 0.0220 Uiso
O1_4 O 0.1622(13) 0.230(5) 0.054(2) 0.0220 Uiso
O2_4 O 0.1448(12) 0.077(4) 0.1297(19) 0.0220 Uiso
C16_4 C 0.426(2) 0.430(5) 0.174(2) 0.1270 Uiso
O7_4 O 0.361(3) 0.366(7) 0.190(4) 0.1270 Uiso
H3_4 H 0.469717 0.356149 0.171559 . .
H4_3 H 0.446272 0.503789 0.210248 . .
H5_4 H 0.411717 0.479003 0.127958 . .
H8_4 H 0.0121096 0.00244291 0.124405 . .
C8_4 C 0.8622(10) 0.976(4) 0.0895(17) 0.0220 Uiso
C6_4 C 0.5699(6) 0.2262(15) 0.0203(9) 0.0220 Uiso
C9_4 C 0.6015(5) 0.3121(10) 0.0759(5) 0.0220 Uiso
C10_4 C 0.6553(8) 0.2600(12) 0.1249(6) 0.0220 Uiso
C11_4 C 0.6849(8) 0.3405(11) 0.1771(6) 0.0220 Uiso
C12_4 C 0.6605(5) 0.4732(10) 0.1803(5) 0.0220 Uiso
C13_4 C 0.6067(8) 0.5253(12) 0.1313(6) 0.0220 Uiso
C14_4 C 0.5771(8) 0.4447(11) 0.0791(6) 0.0220 Uiso
C15_4 C 0.6911(6) 0.5564(12) 0.2342(7) 0.0220 Uiso
H1_4 H 0.677791 0.141161 0.0101987 . .
H2_4 H 0.726665 0.300165 0.215007 . .
H6_3 H 0.455357 0.293395 0.0184453 . .
H7_4 H 0.535315 0.484991 0.0411961 . .
H9_4 H 0.674083 0.157278 0.122461 . .
H10_4 H 0.587917 0.628025 0.133721 . .
C13_5 C 0.6067(8) 0.9747(12) 0.6313(6) 0.0220 Uiso
C15_5 C 0.6911(6) 0.9436(12) 0.7342(7) 0.0220 Uiso
O5_3 O 0.7236(14) 0.9990(14) 0.7880(9) 0.0220 Uiso
O6_2 O 0.6864(15) 0.8124(16) 0.7294(8) 0.0220 Uiso
Bi2_2 Bi 0.75924(11) 0.67890(19) 0.64847(9) 0.0222 Uiso
Bi4_2 Bi 0.74076(11) 0.82110(19) 0.85153(9) 0.0222 Uiso
H4_4 H 0.053728 0.996211 0.289752 . .
H10_5 H 0.587917 0.871975 0.633721 . .
Bi1_2 Bi 0.25924(11) 0.32110(19) 0.64847(9) 0.0222 Uiso
C1_5 C 0.1171(12) 0.348(4) 0.5804(17) 0.0220 Uiso
C2_5 C 0.0370(10) 0.351(2) 0.5558(13) 0.0220 Uiso
C7_5 C 0.0075(8) 0.271(2) 0.5036(12) 0.0220 Uiso
O1_5 O 0.1622(13) 0.270(5) 0.554(2) 0.0220 Uiso
O2_5 O 0.1448(12) 0.423(4) 0.6297(19) 0.0220 Uiso
C16_5 C 0.426(2) 0.070(5) 0.674(2) 0.1270 Uiso
O7_5 O 0.361(3) 0.134(7) 0.690(4) 0.1270 Uiso
O8_3 O 0.3909(12) 0.380(4) 0.6288(19) 0.0220 Uiso
O9_3 O 0.2886(11) 0.493(6) 0.577(2) 0.0220 Uiso
O10_3 O 0.2764(14) 0.4990(14) 0.7120(9) 0.0220 Uiso
O11_3 O 0.1864(15) 0.1876(16) 0.7294(8) 0.0220 Uiso
O12_2 O 0.3136(15) 0.3124(16) 0.7706(8) 0.0220 Uiso
H3_5 H 0.469717 0.143851 0.671559 . .
H5_5 H 0.411717 0.0209969 0.627958 . .
H6_4 H 0.0446429 0.206605 0.481555 . .
H8_5 H 0.0121096 0.497557 0.624405 . .
C3_4 C 0.9892(9) 0.435(2) 0.5841(11) 0.0220 Uiso
C4_4 C 0.9117(8) 0.438(3) 0.5602(13) 0.0220 Uiso
C5_4 C 0.8822(7) 0.357(2) 0.5081(12) 0.0220 Uiso
C6_5 C 0.9301(6) 0.2738(15) 0.4797(9) 0.0220 Uiso
C8_5 C 0.8622(10) 0.524(4) 0.5895(17) 0.0220 Uiso
C9_5 C 0.8985(5) 0.1879(10) 0.4241(5) 0.0220 Uiso
C10_5 C 0.8447(8) 0.2400(12) 0.3751(6) 0.0220 Uiso
C11_5 C 0.8151(8) 0.1595(11) 0.3229(6) 0.0220 Uiso
C12_5 C 0.8395(5) 0.0268(10) 0.3197(5) 0.0220 Uiso
C14_5 C 0.9229(8) 0.0553(11) 0.4209(6) 0.0220 Uiso
O3_3 O 0.8909(12) 0.620(4) 0.6288(19) 0.0220 Uiso
O4_3 O 0.7886(11) 0.507(6) 0.577(2) 0.0220 Uiso
H1_5 H 0.822209 0.358839 0.489801 . .
H2_5 H 0.773335 0.199835 0.284993 . .
H7_5 H 0.964685 0.0150088 0.458804 . .
H9_5 H 0.825917 0.342722 0.377539 . .
C8_6 C 0.1378(10) 0.024(4) 0.9105(17) 0.0220 Uiso
O3_4 O 0.1091(12) 0.120(4) 0.8712(19) 0.0220 Uiso
O4_4 O 0.2114(11) 0.007(6) 0.923(2) 0.0220 Uiso
Bi3_2 Bi 0.24076(11) 0.17890(19) 0.85153(9) 0.0222 Uiso
C1_6 C 0.8829(12) 0.848(4) 0.9196(17) 0.0220 Uiso
C2_6 C 0.9630(10) 0.851(2) 0.9442(13) 0.0220 Uiso
C7_6 C 0.9925(8) 0.771(2) 0.9964(12) 0.0220 Uiso
O1_6 O 0.8378(13) 0.770(5) 0.946(2) 0.0220 Uiso
O2_6 O 0.8552(12) 0.923(4) 0.8703(19) 0.0220 Uiso
C16_6 C 0.574(2) 0.570(5) 0.826(2) 0.1270 Uiso
O7_6 O 0.639(3) 0.634(7) 0.810(4) 0.1270 Uiso
O8_4 O 0.6091(12) 0.880(4) 0.8712(19) 0.0220 Uiso
O9_4 O 0.7114(11) 0.993(6) 0.923(2) 0.0220 Uiso
O11_4 O 0.8136(15) 0.6876(16) 0.7706(8) 0.0220 Uiso
H3_6 H 0.530283 0.643851 0.828441 . .
H4_5 H 0.553728 0.496211 0.789752 . .
H5_6 H 0.588283 0.520997 0.872042 . .
H8_6 H 0.98789 0.997557 0.875595 . .
C6_6 C 0.4301(6) 0.7738(15) 0.9797(9) 0.0220 Uiso
C9_6 C 0.3985(5) 0.6879(10) 0.9241(5) 0.0220 Uiso
C10_6 C 0.3447(8) 0.7400(12) 0.8751(6) 0.0220 Uiso
C11_6 C 0.3151(8) 0.6595(11) 0.8229(6) 0.0220 Uiso
C12_6 C 0.3395(5) 0.5268(10) 0.8197(5) 0.0220 Uiso
C13_6 C 0.3933(8) 0.4747(12) 0.8687(6) 0.0220 Uiso
C14_6 C 0.4229(8) 0.5553(11) 0.9209(6) 0.0220 Uiso
C15_6 C 0.3089(6) 0.4436(12) 0.7658(7) 0.0220 Uiso
H1_6 H 0.322209 0.858839 0.989801 . .
H2_6 H 0.273335 0.699835 0.784993 . .
H6_5 H 0.544643 0.706605 0.981555 . .
H7_6 H 0.464685 0.515009 0.958804 . .
H9_6 H 0.325917 0.842722 0.877539 . .
H10_6 H 0.412083 0.371975 0.866279 . .
C1_7 C 0.6171(12) 0.652(4) 0.5804(17) 0.0220 Uiso
C2_7 C 0.5370(10) 0.649(2) 0.5558(13) 0.0220 Uiso
C3_5 C 0.4892(9) 0.565(2) 0.5841(11) 0.0220 Uiso
C4_5 C 0.4117(8) 0.562(3) 0.5602(13) 0.0220 Uiso
C5_5 C 0.3822(7) 0.643(2) 0.5081(12) 0.0220 Uiso
C6_7 C 0.4301(6) 0.7262(15) 0.4797(9) 0.0220 Uiso
C7_7 C 0.5075(8) 0.729(2) 0.5036(12) 0.0220 Uiso
C8_7 C 0.3622(10) 0.476(4) 0.5895(17) 0.0220 Uiso
C9_7 C 0.3985(5) 0.8121(10) 0.4241(5) 0.0220 Uiso
C10_7 C 0.3447(8) 0.7600(12) 0.3751(6) 0.0220 Uiso
C11_7 C 0.3151(8) 0.8405(11) 0.3229(6) 0.0220 Uiso
C12_7 C 0.3395(5) 0.9732(10) 0.3197(5) 0.0220 Uiso
C14_7 C 0.4229(8) 0.9447(11) 0.4209(6) 0.0220 Uiso
O1_7 O 0.6622(13) 0.730(5) 0.554(2) 0.0220 Uiso
O2_7 O 0.6448(12) 0.577(4) 0.6297(19) 0.0220 Uiso
C16_7 C 0.926(2) 0.930(5) 0.674(2) 0.1270 Uiso
O7_7 O 0.861(3) 0.866(7) 0.690(4) 0.1270 Uiso
O10_4 O 0.7764(14) 0.5010(14) 0.7120(9) 0.0220 Uiso
H1_7 H 0.322209 0.641161 0.489801 . .
H2_7 H 0.273335 0.800165 0.284993 . .
H3_7 H 0.969717 0.856149 0.671559 . .
H5_7 H 0.911717 0.979003 0.627958 . .
H6_6 H 0.544643 0.793395 0.481555 . .
H7_7 H 0.464685 0.984991 0.458804 . .
H8_7 H 0.51211 0.502443 0.624405 . .
H9_7 H 0.325917 0.657278 0.377539 . .
C13_7 C 0.1067(8) 0.0253(12) 0.6313(6) 0.0220 Uiso
C15_7 C 0.1911(6) 0.0564(12) 0.7342(7) 0.0220 Uiso
O5_4 O 0.2236(14) 0.0010(14) 0.7880(9) 0.0220 Uiso
H10_7 H 0.0879167 0.128025 0.633721 . .
C6_8 C 0.9301(6) 0.2262(15) 0.9797(9) 0.0220 Uiso
C9_8 C 0.8985(5) 0.3121(10) 0.9241(5) 0.0220 Uiso
C10_8 C 0.8447(8) 0.2600(12) 0.8751(6) 0.0220 Uiso
C11_8 C 0.8151(8) 0.3405(11) 0.8229(6) 0.0220 Uiso
C12_8 C 0.8395(5) 0.4732(10) 0.8197(5) 0.0220 Uiso
C13_8 C 0.8933(8) 0.5253(12) 0.8687(6) 0.0220 Uiso
C14_8 C 0.9229(8) 0.4447(11) 0.9209(6) 0.0220 Uiso
C15_8 C 0.8089(6) 0.5564(12) 0.7658(7) 0.0220 Uiso
H1_8 H 0.822209 0.141161 0.989801 . .
H2_8 H 0.773335 0.300165 0.784993 . .
H7_8 H 0.964685 0.484991 0.958804 . .
H9_8 H 0.825917 0.157278 0.877539 . .
H10_8 H 0.912083 0.628025 0.866279 . .
C1_8 C 0.3829(12) 0.152(4) 0.9196(17) 0.0220 Uiso
C2_8 C 0.4630(10) 0.149(2) 0.9442(13) 0.0220 Uiso
C3_6 C 0.5108(9) 0.065(2) 0.9159(11) 0.0220 Uiso
C4_6 C 0.5883(8) 0.062(3) 0.9398(13) 0.0220 Uiso
C5_6 C 0.6178(7) 0.143(2) 0.9919(12) 0.0220 Uiso
C7_8 C 0.4925(8) 0.229(2) 0.9964(12) 0.0220 Uiso
O1_8 O 0.3378(13) 0.230(5) 0.946(2) 0.0220 Uiso
O2_8 O 0.3552(12) 0.077(4) 0.8703(19) 0.0220 Uiso
C16_8 C 0.074(2) 0.430(5) 0.826(2) 0.1270 Uiso
O7_8 O 0.139(3) 0.366(7) 0.810(4) 0.1270 Uiso
H3_8 H 0.0302835 0.356149 0.828441 . .
H4_6 H 0.053728 0.503789 0.789752 . .
H5_8 H 0.0882833 0.479003 0.872042 . .
H8_8 H 0.48789 0.00244291 0.875595 . .
C8_8 C 0.6378(10) 0.976(4) 0.9105(17) 0.0220 Uiso
H4_7 H 0.446272 0.996211 0.710248 . .
C3_7 C 0.0108(9) 0.935(2) 0.9159(11) 0.0220 Uiso
C4_7 C 0.0883(8) 0.938(3) 0.9398(13) 0.0220 Uiso
C5_7 C 0.1178(7) 0.857(2) 0.9919(12) 0.0220 Uiso
H6_7 H 0.955357 0.706605 0.0184453 . .
H4_8 H 0.553728 0.00378879 0.289752 . .
H6_8 H 0.0446429 0.293395 0.981555 . .
C3_8 C 0.9892(9) 0.065(2) 0.0841(11) 0.0220 Uiso
C4_8 C 0.9117(8) 0.062(3) 0.0602(13) 0.0220 Uiso
C5_8 C 0.8822(7) 0.143(2) 0.0081(12) 0.0220 Uiso
loop_
_geom_bond_atom_site_label_1
_geom_bond_atom_site_label_2
_geom_bond_site_symmetry_1
_geom_bond_site_symmetry_2
Bi1 O1 1_555 1_555
C1 C2 1_555 1_555
C2 C3 1_555 1_555
C3 C4 1_555 1_555
C4 C5 1_555 1_555
C5 C6 1_555 1_555
C6 C7 1_555 1_555
C7 C2 1_555 1_555
C8 C4 1_555 1_555
C9 C6 1_555 1_555
C10 C9 1_555 1_555
C11 C10 1_555 1_555
C12 C11 1_555 1_555
C14 C9 1_555 1_555
O1 C1 1_555 1_555
O2 Bi1 1_555 1_555
O3 C8 1_555 1_555
O4 C8 1_555 1_555
C16 O7 1_555 1_555
O7 Bi1 1_555 1_555
Bi3 O3 1_555 1_555
O8 Bi1 1_555 1_555
O9 Bi1 1_555 1_555
O10 Bi1 1_555 1_555
O11 Bi1 1_555 1_555
O12 Bi1 1_555 1_555
C1 O2 1_555 1_555
O4 Bi3 1_555 1_555
C5 H1 1_555 1_555
C11 H2 1_555 1_555
C16 H3 1_555 1_555
C16 H5 1_555 1_555
C7 H6 1_555 1_555
C14 H7 1_555 1_555
C3 H8 1_555 1_555
C10 H9 1_555 1_555
O5 C15 1_555 1_555
O6 C15 1_555 1_555
Bi3 O6 1_555 1_555
Bi4 O5 1_555 1_555
O6 Bi4 1_555 1_555
C13 H10 1_555 1_555
C9_2 C6_2 1_555 1_555
C10_2 C9_2 1_555 1_555
C11_2 C10_2 1_555 1_555
C12_2 C11_2 1_555 1_555
C13_2 C12_2 1_555 1_555
C14_2 C9_2 1_555 1_555
C15_2 C12_2 1_555 1_555
O10 C15_2 1_555 1_555
O12 C15_2 1_555 1_555
Bi2 O12 1_555 1_555
C13_2 C14_2 1_555 1_555
C11_2 H2_2 1_555 1_555
C14_2 H7_2 1_555 1_555
C10_2 H9_2 1_555 1_555
C13_2 H10_2 1_555 1_555
O3_2 C8_2 1_555 1_555
O4_2 C8_2 1_555 1_555
Bi2 O3_2 1_555 1_555
O4_2 Bi2 1_555 1_555
Bi4 O1_2 1_555 1_555
C1_2 C2_2 1_555 1_555
C2_2 C3_2 1_555 1_555
C3_2 C4_2 1_555 1_555
C4_2 C5_2 1_555 1_555
C7_2 C2_2 1_555 1_555
O1_2 C1_2 1_555 1_555
O2_2 Bi4 1_555 1_555
C16_2 O7_2 1_555 1_555
O7_2 Bi4 1_555 1_555
O8_2 Bi4 1_555 1_555
O9_2 Bi4 1_555 1_555
O11_2 Bi4 1_555 1_555
C1_2 O2_2 1_555 1_555
C16_2 H3_2 1_555 1_555
C16_2 H4 1_555 1_555
C16_2 H5_2 1_555 1_555
C3_2 H8_2 1_555 1_555
O5_2 C15_3 1_555 1_555
O11 C15_3 1_555 1_555
Bi2 O5_2 1_555 1_555
O11 Bi2 1_555 1_555
C13_3 H10_3 1_555 1_555
C3_3 C4_3 1_555 1_555
C4_3 C5_3 1_555 1_555
C5_3 C6_3 1_555 1_555
C8_3 C4_3 1_555 1_555
C9_3 C6_3 1_555 1_555
C10_3 C9_3 1_555 1_555
C11_3 C10_3 1_555 1_555
C12_3 C11_3 1_555 1_555
C14_3 C9_3 1_555 1_555
O8 C8_3 1_555 1_555
O9 C8_3 1_555 1_555
C5_3 H1_3 1_555 1_555
C11_3 H2_3 1_555 1_555
C14_3 H7_3 1_555 1_555
C10_3 H9_3 1_555 1_555
Bi3 O1_3 1_555 1_555
C1_3 C2_3 1_555 1_555
C7_3 C2_3 1_555 1_555
O1_3 C1_3 1_555 1_555
O2_3 Bi3 1_555 1_555
C16_3 O7_3 1_555 1_555
O7_3 Bi3 1_555 1_555
O10_2 Bi3 1_555 1_555
O11_2 Bi3 1_555 1_555
C1_3 O2_3 1_555 1_555
C16_3 H3_3 1_555 1_555
C16_3 H5_3 1_555 1_555
C7_3 H6_2 1_555 1_555
Bi2 O1_4 1_555 1_555
C1_4 C2_4 1_555 1_555
C7_4 C2_4 1_555 1_555
O1_4 C1_4 1_555 1_555
O2_4 Bi2 1_555 1_555
C16_4 O7_4 1_555 1_555
O7_4 Bi2 1_555 1_555
C1_4 O2_4 1_555 1_555
C16_4 H3_4 1_555 1_555
C16_4 H4_3 1_555 1_555
C16_4 H5_4 1_555 1_555
O8_2 C8_4 1_555 1_555
O9_2 C8_4 1_555 1_555
C9_4 C6_4 1_555 1_555
C10_4 C9_4 1_555 1_555
C11_4 C10_4 1_555 1_555
C12_4 C11_4 1_555 1_555
C13_4 C12_4 1_555 1_555
C14_4 C9_4 1_555 1_555
C15_4 C12_4 1_555 1_555
O10_2 C15_4 1_555 1_555
O11_2 C15_4 1_555 1_555
C13_4 C14_4 1_555 1_555
C11_4 H2_4 1_555 1_555
C14_4 H7_4 1_555 1_555
C10_4 H9_4 1_555 1_555
C13_4 H10_4 1_555 1_555
O5_3 C15_5 1_555 1_555
O6_2 C15_5 1_555 1_555
Bi2_2 O6_2 1_555 1_555
Bi4_2 O5_3 1_555 1_555
O6_2 Bi4_2 1_555 1_555
C13_5 H10_5 1_555 1_555
Bi1_2 O1_5 1_555 1_555
C1_5 C2_5 1_555 1_555
C7_5 C2_5 1_555 1_555
O1_5 C1_5 1_555 1_555
O2_5 Bi1_2 1_555 1_555
C16_5 O7_5 1_555 1_555
O7_5 Bi1_2 1_555 1_555
O8_3 Bi1_2 1_555 1_555
O9_3 Bi1_2 1_555 1_555
O10_3 Bi1_2 1_555 1_555
O11_3 Bi1_2 1_555 1_555
O12_2 Bi1_2 1_555 1_555
C1_5 O2_5 1_555 1_555
C16_5 H3_5 1_555 1_555
C16_5 H5_5 1_555 1_555
C7_5 H6_4 1_555 1_555
C3_4 C4_4 1_555 1_555
C4_4 C5_4 1_555 1_555
C5_4 C6_5 1_555 1_555
C8_5 C4_4 1_555 1_555
C9_5 C6_5 1_555 1_555
C10_5 C9_5 1_555 1_555
C11_5 C10_5 1_555 1_555
C12_5 C11_5 1_555 1_555
C14_5 C9_5 1_555 1_555
O3_3 C8_5 1_555 1_555
O4_3 C8_5 1_555 1_555
Bi2_2 O3_3 1_555 1_555
O4_3 Bi2_2 1_555 1_555
C5_4 H1_5 1_555 1_555
C11_5 H2_5 1_555 1_555
C14_5 H7_5 1_555 1_555
C10_5 H9_5 1_555 1_555
O3_4 C8_6 1_555 1_555
O4_4 C8_6 1_555 1_555
Bi3_2 O3_4 1_555 1_555
O4_4 Bi3_2 1_555 1_555
Bi4_2 O1_6 1_555 1_555
C1_6 C2_6 1_555 1_555
C7_6 C2_6 1_555 1_555
O1_6 C1_6 1_555 1_555
O2_6 Bi4_2 1_555 1_555
C16_6 O7_6 1_555 1_555
O7_6 Bi4_2 1_555 1_555
O8_4 Bi4_2 1_555 1_555
O9_4 Bi4_2 1_555 1_555
O11_4 Bi4_2 1_555 1_555
C1_6 O2_6 1_555 1_555
C16_6 H3_6 1_555 1_555
C16_6 H4_5 1_555 1_555
C16_6 H5_6 1_555 1_555
C9_6 C6_6 1_555 1_555
C10_6 C9_6 1_555 1_555
C11_6 C10_6 1_555 1_555
C12_6 C11_6 1_555 1_555
C13_6 C12_6 1_555 1_555
C14_6 C9_6 1_555 1_555
C15_6 C12_6 1_555 1_555
O10_3 C15_6 1_555 1_555
O12_2 C15_6 1_555 1_555
Bi3_2 O12_2 1_555 1_555
C13_6 C14_6 1_555 1_555
C11_6 H2_6 1_555 1_555
C14_6 H7_6 1_555 1_555
C10_6 H9_6 1_555 1_555
C13_6 H10_6 1_555 1_555
Bi2_2 O1_7 1_555 1_555
C1_7 C2_7 1_555 1_555
C2_7 C3_5 1_555 1_555
C3_5 C4_5 1_555 1_555
C4_5 C5_5 1_555 1_555
C5_5 C6_7 1_555 1_555
C6_7 C7_7 1_555 1_555
C7_7 C2_7 1_555 1_555
C8_7 C4_5 1_555 1_555
C9_7 C6_7 1_555 1_555
C10_7 C9_7 1_555 1_555
C11_7 C10_7 1_555 1_555
C12_7 C11_7 1_555 1_555
C14_7 C9_7 1_555 1_555
O1_7 C1_7 1_555 1_555
O2_7 Bi2_2 1_555 1_555
O8_3 C8_7 1_555 1_555
O9_3 C8_7 1_555 1_555
C16_7 O7_7 1_555 1_555
O7_7 Bi2_2 1_555 1_555
O10_4 Bi2_2 1_555 1_555
O11_4 Bi2_2 1_555 1_555
C1_7 O2_7 1_555 1_555
C5_5 H1_7 1_555 1_555
C11_7 H2_7 1_555 1_555
C16_7 H3_7 1_555 1_555
C16_7 H5_7 1_555 1_555
C7_7 H6_6 1_555 1_555
C14_7 H7_7 1_555 1_555
C3_5 H8_7 1_555 1_555
C10_7 H9_7 1_555 1_555
O5_4 C15_7 1_555 1_555
O11_3 C15_7 1_555 1_555
Bi3_2 O5_4 1_555 1_555
O11_3 Bi3_2 1_555 1_555
C13_7 H10_7 1_555 1_555
C9_8 C6_8 1_555 1_555
C10_8 C9_8 1_555 1_555
C11_8 C10_8 1_555 1_555
C12_8 C11_8 1_555 1_555
C13_8 C12_8 1_555 1_555
C14_8 C9_8 1_555 1_555
C15_8 C12_8 1_555 1_555
O10_4 C15_8 1_555 1_555
O11_4 C15_8 1_555 1_555
C13_8 C14_8 1_555 1_555
C11_8 H2_8 1_555 1_555
C14_8 H7_8 1_555 1_555
C10_8 H9_8 1_555 1_555
C13_8 H10_8 1_555 1_555
Bi3_2 O1_8 1_555 1_555
C1_8 C2_8 1_555 1_555
C2_8 C3_6 1_555 1_555
C3_6 C4_6 1_555 1_555
C4_6 C5_6 1_555 1_555
C7_8 C2_8 1_555 1_555
O1_8 C1_8 1_555 1_555
O2_8 Bi3_2 1_555 1_555
C16_8 O7_8 1_555 1_555
O7_8 Bi3_2 1_555 1_555
C1_8 O2_8 1_555 1_555
C16_8 H3_8 1_555 1_555
C16_8 H4_6 1_555 1_555
C16_8 H5_8 1_555 1_555
C3_6 H8_8 1_555 1_555
O8_4 C8_8 1_555 1_555
O9_4 C8_8 1_555 1_555
C3_7 C4_7 1_555 1_555
C4_7 C5_7 1_555 1_555
C3_8 C4_8 1_555 1_555
C4_8 C5_8 1_555 1_555

#END
