
###############################################################################
#
# This file contains modified crystal structure data generated from the
# MOF subset of the Cambridge Structural Database (CSD) v543 
# hosted by the Cambridge Crystallographic Data Centre (CCDC).
#
# This work is licensed under the Creative Commons
# Attribution-NonCommercial-ShareAlike 4.0 International License.
# To view a copy of this license, visit
# http://creativecommons.org/licenses/by-nc-sa/4.0/
# or send a letter to
# Creative Commons, PO Box 1866, Mountain View, CA 94042, USA.
#
# CIF created using the CSD Python API on 29 September 2022
# The structure has been converted into the P1 space group
# The structure has a 3D framework
# The original CSD entry VUWSUE is in the rhombohedral crystal system
# The framework has been calculated to contain at least 10.0% void space
# The void calculation uses a probe of radius 1.32A, grid spacing 0.4
#
###############################################################################

data_VUWSUE
_chemical_formula_moiety         '(C108 H90 N54 O54 Zn15)n'
_symmetry_cell_setting           triclinic
_symmetry_space_group_name_H-M   'P 1'
_symmetry_Int_Tables_number      1
_space_group_name_Hall           'P 1'
loop_
_symmetry_equiv_pos_site_id
_symmetry_equiv_pos_as_xyz
1 x,y,z
_cell_length_a                   28.0952(14)
_cell_length_b                   28.0952(14)
_cell_length_c                   10.1517(5)
_cell_angle_alpha                90
_cell_angle_beta                 90
_cell_angle_gamma                120
_cell_volume                     6939.59
loop_
_atom_site_label
_atom_site_type_symbol
_atom_site_fract_x
_atom_site_fract_y
_atom_site_fract_z
Zn1 Zn 0.35381(5) 0.33000(6) 0.32963(15)
O1 O 0.4005(3) 0.3285(3) 0.4723(7)
C1 C 0.5534(5) 0.4644(5) 0.5131(11)
O2 O 0.5459(5) 0.4527(4) 0.3940(8)
C2 C 0.4315(5) 0.3610(4) 0.5595(11)
C3 C 0.5911(5) 0.5213(4) 0.5563(11)
N1 N 0.5290(4) 0.4264(4) 0.6079(10)
H1 H 0.5376 0.4357 0.6910
C4 C 0.4878(4) 0.3691(4) 0.5739(11)
H2 H 0.4875 0.3443 0.6436
H3 H 0.4986 0.3590 0.4904
N2 N 0.6435(4) 0.6128(4) 0.5471(9)
N3 N 0.6404(4) 0.5973(4) 0.6772(9)
C5 C 0.6132(5) 0.5668(5) 0.4771(11)
H4 H 0.6077 0.5660 0.3846
O3 O 0.4164(3) 0.3838(4) 0.6469(9)
C6 C 0.6083(4) 0.5416(5) 0.6845(11)
H5 H 0.5992 0.5202 0.7626
Zn2 Zn 0.67000(6) 0.64619(5) 0.82963(15)
Zn3 Zn 0.33667(6) 0.35714(8) 0.66296(15)
Zn4 Zn 0.68714(5) 0.69048(8) 0.49630(15)
N4 N 0.3102(4) 0.3640(6) 0.3804(9)
N5 N 0.4027(4) 0.3596(4) 0.1772(9)
O4 O 0.3007(5) 0.2503(3) 0.3136(9)
Zn1_2 Zn 0.67000(6) 0.02381(8) 0.32963(15)
O1_2 O 0.6715(3) 0.0720(4) 0.4723(7)
C1_2 C 0.5356(5) 0.0890(7) 0.5131(11)
O2_2 O 0.5473(4) 0.0932(6) 0.3940(8)
C2_2 C 0.6390(4) 0.0705(6) 0.5595(11)
C3_2 C 0.4787(4) 0.0698(6) 0.5563(11)
N1_2 N 0.5736(4) 0.1026(6) 0.6079(10)
H1_2 H 0.5643 0.1019 0.6910
C4_2 C 0.6309(4) 0.1187(6) 0.5739(11)
H2_2 H 0.6557 0.1432 0.6436
H3_2 H 0.6410 0.1396 0.4904
N2_2 N 0.3872(4) 0.0307(6) 0.5471(9)
N3_2 N 0.4027(4) 0.0431(6) 0.6772(9)
C5_2 C 0.4332(5) 0.0464(7) 0.4771(11)
H4_2 H 0.4340 0.0417 0.3846
O3_2 O 0.6162(4) 0.0326(5) 0.6469(9)
C6_2 C 0.4584(5) 0.0667(6) 0.6845(11)
H5_2 H 0.4798 0.0790 0.7626
Zn2_2 Zn 0.35381(5) 0.02381(8) 0.82963(15)
N5_2 N 0.6404(4) 0.0431(6) 0.1772(9)
O4_2 O 0.7497(3) 0.0505(6) 0.3136(9)
Zn3_2 Zn 0.64286(8) 0.97952(10) 0.66296(15)
Zn4_2 Zn 0.30952(8) 0.99667(9) 0.49630(15)
N4_2 N 0.6360(6) 0.9461(7) 0.3804(9)
Zn3_3 Zn 0.02048(10) 0.66333(6) 0.66296(15)
Zn4_3 Zn 0.00333(9) 0.31286(5) 0.49630(15)
N4_3 N 0.0539(7) 0.6898(4) 0.3804(9)
Zn1_3 Zn 0.97619(8) 0.64619(5) 0.32963(15)
O1_3 O 0.9280(4) 0.5995(3) 0.4723(7)
C1_3 C 0.9110(7) 0.4466(5) 0.5131(11)
O2_3 O 0.9068(6) 0.4541(5) 0.3940(8)
C2_3 C 0.9295(6) 0.5685(5) 0.5595(11)
C3_3 C 0.9302(6) 0.4089(5) 0.5563(11)
N1_3 N 0.8974(6) 0.4710(4) 0.6079(10)
H1_3 H 0.8981 0.4624 0.6910
C4_3 C 0.8813(6) 0.5122(4) 0.5739(11)
H2_3 H 0.8568 0.5125 0.6436
H3_3 H 0.8604 0.5014 0.4904
N2_3 N 0.9693(6) 0.3565(4) 0.5471(9)
N3_3 N 0.9569(6) 0.3596(4) 0.6772(9)
C5_3 C 0.9536(7) 0.3868(5) 0.4771(11)
H4_3 H 0.9583 0.3923 0.3846
O3_3 O 0.9674(5) 0.5836(3) 0.6469(9)
C6_3 C 0.9333(6) 0.3917(4) 0.6845(11)
H5_3 H 0.9210 0.4008 0.7626
Zn2_3 Zn 0.97619(8) 0.33000(6) 0.82963(15)
N5_3 N 0.9569(6) 0.5973(4) 0.1772(9)
O4_3 O 0.9495(6) 0.6993(5) 0.3136(9)
Zn3_4 Zn 0.02048(10) 0.35714(8) 0.16296(15)
Zn4_4 Zn 0.00333(9) 0.69048(8) 0.99630(15)
N4_4 N 0.0539(7) 0.3640(6) 0.8804(9)
C1_4 C 0.9110(7) 0.4644(5) 0.0131(11)
C2_4 C 0.9295(6) 0.3610(4) 0.0595(11)
C3_4 C 0.9302(6) 0.5213(4) 0.0563(11)
N1_4 N 0.8974(6) 0.4264(4) 0.1079(10)
H1_4 H 0.8981 0.4357 0.1910
C4_4 C 0.8813(6) 0.3691(4) 0.0739(11)
H2_4 H 0.8568 0.3443 0.1436
N2_4 N 0.9693(6) 0.6128(4) 0.0471(9)
O3_4 O 0.9674(5) 0.3838(4) 0.1469(9)
C6_4 C 0.9333(6) 0.5416(5) 0.1845(11)
H5_4 H 0.9210 0.5202 0.2626
O1_4 O 0.9280(4) 0.3285(3) 0.9723(7)
O2_4 O 0.9068(6) 0.4527(4) 0.8940(8)
H3_4 H 0.8604 0.3590 0.9904
C5_4 C 0.9536(7) 0.5668(5) 0.9771(11)
H4_4 H 0.9583 0.5660 0.8846
O4_4 O 0.9495(6) 0.2503(3) 0.8136(9)
C1_5 C 0.5534(5) 0.0890(7) 0.0131(11)
C2_5 C 0.4315(5) 0.0705(6) 0.0595(11)
C3_5 C 0.5911(5) 0.0698(6) 0.0563(11)
N1_5 N 0.5290(4) 0.1026(6) 0.1079(10)
H1_5 H 0.5376 0.1019 0.1910
C4_5 C 0.4878(4) 0.1187(6) 0.0739(11)
H2_5 H 0.4875 0.1432 0.1436
N2_5 N 0.6435(4) 0.0307(6) 0.0471(9)
O3_5 O 0.4164(3) 0.0326(5) 0.1469(9)
C6_5 C 0.6083(4) 0.0667(6) 0.1845(11)
H5_5 H 0.5992 0.0790 0.2626
O1_5 O 0.4005(3) 0.0720(4) 0.9723(7)
O2_5 O 0.5459(5) 0.0932(6) 0.8940(8)
H3_5 H 0.4986 0.1396 0.9904
C5_5 C 0.6132(5) 0.0464(7) 0.9771(11)
H4_5 H 0.6077 0.0417 0.8846
O4_5 O 0.3007(5) 0.0505(6) 0.8136(9)
Zn3_5 Zn 0.33667(6) 0.97952(10) 0.16296(15)
Zn4_5 Zn 0.68714(5) 0.99667(9) 0.99630(15)
N4_5 N 0.3102(4) 0.9461(7) 0.8804(9)
C1_6 C 0.5356(5) 0.4466(5) 0.0131(11)
C2_6 C 0.6390(4) 0.5685(5) 0.0595(11)
C3_6 C 0.4787(4) 0.4089(5) 0.0563(11)
N1_6 N 0.5736(4) 0.4710(4) 0.1079(10)
H1_6 H 0.5643 0.4624 0.1910
C4_6 C 0.6309(4) 0.5122(4) 0.0739(11)
H2_6 H 0.6557 0.5125 0.1436
N2_6 N 0.3872(4) 0.3565(4) 0.0471(9)
O3_6 O 0.6162(4) 0.5836(3) 0.1469(9)
C6_6 C 0.4584(5) 0.3917(4) 0.1845(11)
H5_6 H 0.4798 0.4008 0.2626
Zn3_6 Zn 0.64286(8) 0.66333(6) 0.16296(15)
O1_6 O 0.6715(3) 0.5995(3) 0.9723(7)
O2_6 O 0.5473(4) 0.4541(5) 0.8940(8)
H3_6 H 0.6410 0.5014 0.9904
C5_6 C 0.4332(5) 0.3868(5) 0.9771(11)
H4_6 H 0.4340 0.3923 0.8846
Zn4_6 Zn 0.30952(8) 0.31286(5) 0.99630(15)
N4_6 N 0.6360(6) 0.6898(4) 0.8804(9)
O4_6 O 0.7497(3) 0.6993(5) 0.8136(9)
H1_7 H 0.2043 0.7690 0.0243
N3_4 N 0.3071(4) 0.9306(4) 0.0105(9)
C6_7 C 0.2750(4) 0.8749(5) 0.0178(11)
H5_7 H 0.2659 0.8535 0.0959
O1_7 O 0.0672(3) 0.6618(3) 0.8056(7)
C1_7 C 0.2201(5) 0.7977(5) 0.8464(11)
O2_7 O 0.2126(5) 0.7860(4) 0.7273(8)
C2_7 C 0.0982(5) 0.6943(4) 0.8928(11)
C3_7 C 0.2578(5) 0.8546(4) 0.8896(11)
N1_7 N 0.1957(4) 0.7597(4) 0.9412(10)
C4_7 C 0.1545(4) 0.7024(4) 0.9072(11)
H2_7 H 0.1542 0.6776 0.9769
H3_7 H 0.1653 0.6923 0.8237
C5_7 C 0.2799(5) 0.9001(5) 0.8104(11)
H4_7 H 0.2744 0.8993 0.7179
O3_7 O 0.0831(3) 0.7171(4) 0.9802(9)
N5_4 N 0.0694(4) 0.6929(4) 0.5105(9)
N4_7 N 0.9768(4) 0.6974(6) 0.7138(9)
H1_8 H 0.2310 0.4352 0.0243
N3_5 N 0.0694(4) 0.3764(6) 0.0105(9)
C6_8 C 0.1251(5) 0.4000(6) 0.0178(11)
H5_8 H 0.1465 0.4123 0.0959
O1_8 O 0.3382(3) 0.4053(4) 0.8056(7)
C1_8 C 0.2023(5) 0.4223(7) 0.8464(11)
O2_8 O 0.2140(4) 0.4265(6) 0.7273(8)
C2_8 C 0.3057(4) 0.4038(6) 0.8928(11)
C3_8 C 0.1454(4) 0.4031(6) 0.8896(11)
N1_8 N 0.2403(4) 0.4359(6) 0.9412(10)
C4_8 C 0.2976(4) 0.4520(6) 0.9072(11)
H2_8 H 0.3224 0.4765 0.9769
H3_8 H 0.3077 0.4729 0.8237
C5_8 C 0.0999(5) 0.3797(7) 0.8104(11)
H4_8 H 0.1007 0.3750 0.7179
O3_8 O 0.2829(4) 0.3659(5) 0.9802(9)
N4_8 N 0.3026(6) 0.2795(7) 0.7138(9)
N5_5 N 0.3071(4) 0.3764(6) 0.5105(9)
N4_9 N 0.7205(7) 0.0232(4) 0.7138(9)
H1_9 H 0.5648 0.7957 0.0243
N3_6 N 0.6236(6) 0.6929(4) 0.0105(9)
C6_9 C 0.6000(6) 0.7250(4) 0.0178(11)
H5_9 H 0.5877 0.7341 0.0959
O1_9 O 0.5947(4) 0.9328(3) 0.8056(7)
C1_9 C 0.5777(7) 0.7799(5) 0.8464(11)
O2_9 O 0.5735(6) 0.7874(5) 0.7273(8)
C2_9 C 0.5962(6) 0.9018(5) 0.8928(11)
C3_9 C 0.5969(6) 0.7422(5) 0.8896(11)
N1_9 N 0.5641(6) 0.8043(4) 0.9412(10)
C4_9 C 0.5480(6) 0.8455(4) 0.9072(11)
H2_9 H 0.5235 0.8458 0.9769
H3_9 H 0.5271 0.8347 0.8237
C5_9 C 0.6203(7) 0.7201(5) 0.8104(11)
H4_9 H 0.6250 0.7256 0.7179
O3_9 O 0.6341(5) 0.9169(3) 0.9802(9)
N5_6 N 0.6236(6) 0.9306(4) 0.5105(9)
O1_10 O 0.5947(4) 0.6618(3) 0.3056(7)
C1_10 C 0.5777(7) 0.7977(5) 0.3464(11)
O2_10 O 0.5735(6) 0.7860(4) 0.2273(8)
C2_10 C 0.5962(6) 0.6943(4) 0.3928(11)
C3_10 C 0.5969(6) 0.8546(4) 0.3896(11)
N1_10 N 0.5641(6) 0.7597(4) 0.4412(10)
H1_10 H 0.5648 0.7690 0.5243
C4_10 C 0.5480(6) 0.7024(4) 0.4072(11)
H2_10 H 0.5235 0.6776 0.4769
H3_10 H 0.5271 0.6923 0.3237
C5_10 C 0.6203(7) 0.9001(5) 0.3104(11)
H4_10 H 0.6250 0.8993 0.2179
O3_10 O 0.6341(5) 0.7171(4) 0.4802(9)
C6_10 C 0.6000(6) 0.8749(5) 0.5178(11)
H5_10 H 0.5877 0.8535 0.5959
N4_10 N 0.7205(7) 0.6974(6) 0.2138(9)
O1_11 O 0.0672(3) 0.4053(4) 0.3056(7)
C1_11 C 0.2201(5) 0.4223(7) 0.3464(11)
O2_11 O 0.2126(5) 0.4265(6) 0.2273(8)
C2_11 C 0.0982(5) 0.4038(6) 0.3928(11)
C3_11 C 0.2578(5) 0.4031(6) 0.3896(11)
N1_11 N 0.1957(4) 0.4359(6) 0.4412(10)
H1_11 H 0.2043 0.4352 0.5243
C4_11 C 0.1545(4) 0.4520(6) 0.4072(11)
H2_11 H 0.1542 0.4765 0.4769
H3_11 H 0.1653 0.4729 0.3237
C5_11 C 0.2799(5) 0.3797(7) 0.3104(11)
H4_11 H 0.2744 0.3750 0.2179
O3_11 O 0.0831(3) 0.3659(5) 0.4802(9)
C6_11 C 0.2750(4) 0.4000(6) 0.5178(11)
H5_11 H 0.2659 0.4123 0.5959
N4_11 N 0.9768(4) 0.2795(7) 0.2138(9)
N4_12 N 0.3026(6) 0.0232(4) 0.2138(9)
O1_12 O 0.3382(3) 0.9328(3) 0.3056(7)
C1_12 C 0.2023(5) 0.7799(5) 0.3464(11)
O2_12 O 0.2140(4) 0.7874(5) 0.2273(8)
C2_12 C 0.3057(4) 0.9018(5) 0.3928(11)
C3_12 C 0.1454(4) 0.7422(5) 0.3896(11)
N1_12 N 0.2403(4) 0.8043(4) 0.4412(10)
H1_12 H 0.2310 0.7957 0.5243
C4_12 C 0.2976(4) 0.8455(4) 0.4072(11)
H2_12 H 0.3224 0.8458 0.4769
H3_12 H 0.3077 0.8347 0.3237
C5_12 C 0.0999(5) 0.7201(5) 0.3104(11)
H4_12 H 0.1007 0.7256 0.2179
O3_12 O 0.2829(4) 0.9169(3) 0.4802(9)
C6_12 C 0.1251(5) 0.7250(4) 0.5178(11)
H5_12 H 0.1465 0.7341 0.5959
C1_13 C 0.8867(5) 0.1311(5) 0.1798(11)
O2_13 O 0.8792(5) 0.1194(4) 0.0607(8)
C2_13 C 0.7648(5) 0.0277(4) 0.2262(11)
C3_13 C 0.9244(5) 0.1880(4) 0.2230(11)
N1_13 N 0.8623(4) 0.0931(4) 0.2746(10)
H1_13 H 0.8709 0.1024 0.3577
C4_13 C 0.8211(4) 0.0358(4) 0.2406(11)
H2_13 H 0.8208 0.0110 0.3103
H3_13 H 0.8319 0.0257 0.1571
N3_7 N 0.9737(4) 0.2640(4) 0.3439(9)
C5_13 C 0.9465(5) 0.2335(5) 0.1438(11)
H4_13 H 0.9410 0.2327 0.0513
C6_13 C 0.9416(4) 0.2083(5) 0.3512(11)
H5_13 H 0.9325 0.1869 0.4293
N5_7 N 0.7360(4) 0.0263(4) 0.8439(9)
C1_14 C 0.8689(5) 0.7557(7) 0.1798(11)
O2_14 O 0.8806(4) 0.7599(6) 0.0607(8)
C2_14 C 0.9723(4) 0.7372(6) 0.2262(11)
C3_14 C 0.8120(4) 0.7365(6) 0.2230(11)
N1_14 N 0.9069(4) 0.7693(6) 0.2746(10)
H1_14 H 0.8976 0.7686 0.3577
C4_14 C 0.9642(4) 0.7854(6) 0.2406(11)
H2_14 H 0.9890 0.8099 0.3103
H3_14 H 0.9743 0.8063 0.1571
N3_8 N 0.7360(4) 0.7098(6) 0.3439(9)
C5_14 C 0.7665(5) 0.7131(7) 0.1438(11)
H4_14 H 0.7673 0.7084 0.0513
C6_14 C 0.7917(5) 0.7334(6) 0.3512(11)
H5_14 H 0.8131 0.7457 0.4293
N5_8 N 0.9737(4) 0.7098(6) 0.8439(9)
O1_13 O 0.2613(4) 0.2662(3) 0.1390(7)
C1_15 C 0.2443(7) 0.1133(5) 0.1798(11)
O2_15 O 0.2401(6) 0.1208(5) 0.0607(8)
C2_15 C 0.2628(6) 0.2352(5) 0.2262(11)
C3_15 C 0.2635(6) 0.0756(5) 0.2230(11)
N1_15 N 0.2307(6) 0.1377(4) 0.2746(10)
H1_15 H 0.2314 0.1291 0.3577
C4_15 C 0.2146(6) 0.1789(4) 0.2406(11)
H2_15 H 0.1901 0.1792 0.3103
H3_15 H 0.1937 0.1681 0.1571
N3_9 N 0.2902(6) 0.0263(4) 0.3439(9)
C5_15 C 0.2869(7) 0.0535(5) 0.1438(11)
H4_15 H 0.2916 0.0590 0.0513
C6_15 C 0.2666(6) 0.0584(4) 0.3512(11)
H5_15 H 0.2543 0.0675 0.4293
N5_9 N 0.2902(6) 0.2640(4) 0.8439(9)
C1_16 C 0.2443(7) 0.1311(5) 0.6798(11)
O2_16 O 0.2401(6) 0.1194(4) 0.5607(8)
C2_16 C 0.2628(6) 0.0277(4) 0.7262(11)
C3_16 C 0.2635(6) 0.1880(4) 0.7230(11)
N1_16 N 0.2307(6) 0.0931(4) 0.7746(10)
H1_16 H 0.2314 0.1024 0.8577
C4_16 C 0.2146(6) 0.0358(4) 0.7406(11)
H2_16 H 0.1901 0.0110 0.8103
H3_16 H 0.1937 0.0257 0.6571
C5_16 C 0.2869(7) 0.2335(5) 0.6438(11)
H4_16 H 0.2916 0.2327 0.5513
C6_16 C 0.2666(6) 0.2083(5) 0.8512(11)
H5_16 H 0.2543 0.1869 0.9293
O1_14 O 0.2613(4) 0.9952(3) 0.6390(7)
O1_15 O 0.7338(3) 0.7387(4) 0.6390(7)
C1_17 C 0.8867(5) 0.7557(7) 0.6798(11)
O2_17 O 0.8792(5) 0.7599(6) 0.5607(8)
C2_17 C 0.7648(5) 0.7372(6) 0.7262(11)
C3_17 C 0.9244(5) 0.7365(6) 0.7230(11)
N1_17 N 0.8623(4) 0.7693(6) 0.7746(10)
H1_17 H 0.8709 0.7686 0.8577
C4_17 C 0.8211(4) 0.7854(6) 0.7406(11)
H2_17 H 0.8208 0.8099 0.8103
H3_17 H 0.8319 0.8063 0.6571
C5_17 C 0.9465(5) 0.7131(7) 0.6438(11)
H4_17 H 0.9410 0.7084 0.5513
C6_17 C 0.9416(4) 0.7334(6) 0.8512(11)
H5_17 H 0.9325 0.7457 0.9293
O1_16 O 0.0048(3) 0.2662(3) 0.6390(7)
C1_18 C 0.8689(5) 0.1133(5) 0.6798(11)
O2_18 O 0.8806(4) 0.1208(5) 0.5607(8)
C2_18 C 0.9723(4) 0.2352(5) 0.7262(11)
C3_18 C 0.8120(4) 0.0756(5) 0.7230(11)
N1_18 N 0.9069(4) 0.1377(4) 0.7746(10)
H1_18 H 0.8976 0.1291 0.8577
C4_18 C 0.9642(4) 0.1789(4) 0.7406(11)
H2_18 H 0.9890 0.1792 0.8103
H3_18 H 0.9743 0.1681 0.6571
C5_18 C 0.7665(5) 0.0535(5) 0.6438(11)
H4_18 H 0.7673 0.0590 0.5513
C6_18 C 0.7917(5) 0.0584(4) 0.8512(11)
H5_18 H 0.8131 0.0675 0.9293
O1_17 O 0.7338(3) 0.9952(3) 0.1390(7)
O1_18 O 0.0048(3) 0.7387(4) 0.1390(7)
loop_
_geom_bond_atom_site_label_1
_geom_bond_atom_site_label_2
_geom_bond_site_symmetry_1
_geom_bond_site_symmetry_2
Zn1 O1 1_555 1_555
O1 C2 1_555 1_555
C1 O2 1_555 1_555
C2 C4 1_555 1_555
C3 C1 1_555 1_555
N1 C1 1_555 1_555
H1 N1 1_555 1_555
C4 N1 1_555 1_555
H2 C4 1_555 1_555
H3 C4 1_555 1_555
N2 N3 1_555 1_555
N3 C6 1_555 1_555
C5 C3 1_555 1_555
H4 C5 1_555 1_555
O3 C2 1_555 1_555
C6 C3 1_555 1_555
H5 C6 1_555 1_555
Zn2 N3 1_555 1_555
Zn3 O3 1_555 1_555
Zn4 N2 1_555 1_555
N4 Zn1 1_555 1_555
N5 Zn1 1_555 1_555
O4 Zn1 1_555 1_555
N2 C5 1_555 1_555
Zn1_2 O1_2 1_555 1_555
O1_2 C2_2 1_555 1_555
C1_2 O2_2 1_555 1_555
C2_2 C4_2 1_555 1_555
C3_2 C1_2 1_555 1_555
N1_2 C1_2 1_555 1_555
H1_2 N1_2 1_555 1_555
C4_2 N1_2 1_555 1_555
H2_2 C4_2 1_555 1_555
H3_2 C4_2 1_555 1_555
N2_2 N3_2 1_555 1_555
N3_2 C6_2 1_555 1_555
C5_2 C3_2 1_555 1_555
H4_2 C5_2 1_555 1_555
O3_2 C2_2 1_555 1_555
C6_2 C3_2 1_555 1_555
H5_2 C6_2 1_555 1_555
Zn2_2 N3_2 1_555 1_555
N5_2 Zn1_2 1_555 1_555
O4_2 Zn1_2 1_555 1_555
N2_2 C5_2 1_555 1_555
Zn1_3 O1_3 1_555 1_555
O1_3 C2_3 1_555 1_555
C1_3 O2_3 1_555 1_555
C2_3 C4_3 1_555 1_555
C3_3 C1_3 1_555 1_555
N1_3 C1_3 1_555 1_555
H1_3 N1_3 1_555 1_555
C4_3 N1_3 1_555 1_555
H2_3 C4_3 1_555 1_555
H3_3 C4_3 1_555 1_555
N2_3 N3_3 1_555 1_555
N3_3 C6_3 1_555 1_555
C5_3 C3_3 1_555 1_555
H4_3 C5_3 1_555 1_555
O3_3 C2_3 1_555 1_555
C6_3 C3_3 1_555 1_555
H5_3 C6_3 1_555 1_555
Zn2_3 N3_3 1_555 1_555
N5_3 Zn1_3 1_555 1_555
O4_3 Zn1_3 1_555 1_555
N2_3 C5_3 1_555 1_555
C2_4 C4_4 1_555 1_555
C3_4 C1_4 1_555 1_555
N1_4 C1_4 1_555 1_555
H1_4 N1_4 1_555 1_555
C4_4 N1_4 1_555 1_555
H2_4 C4_4 1_555 1_555
N2_4 N5_3 1_555 1_555
N5_3 C6_4 1_555 1_555
O3_4 C2_4 1_555 1_555
C6_4 C3_4 1_555 1_555
H5_4 C6_4 1_555 1_555
Zn2_3 O1_4 1_555 1_555
H4_4 C5_4 1_555 1_555
O4_4 Zn2_3 1_555 1_555
C2_5 C4_5 1_555 1_555
C3_5 C1_5 1_555 1_555
N1_5 C1_5 1_555 1_555
H1_5 N1_5 1_555 1_555
C4_5 N1_5 1_555 1_555
H2_5 C4_5 1_555 1_555
N2_5 N5_2 1_555 1_555
N5_2 C6_5 1_555 1_555
O3_5 C2_5 1_555 1_555
C6_5 C3_5 1_555 1_555
H5_5 C6_5 1_555 1_555
Zn2_2 O1_5 1_555 1_555
H4_5 C5_5 1_555 1_555
O4_5 Zn2_2 1_555 1_555
C2_6 C4_6 1_555 1_555
C3_6 C1_6 1_555 1_555
N1_6 C1_6 1_555 1_555
H1_6 N1_6 1_555 1_555
C4_6 N1_6 1_555 1_555
H2_6 C4_6 1_555 1_555
N2_6 N5 1_555 1_555
N5 C6_6 1_555 1_555
O3_6 C2_6 1_555 1_555
C6_6 C3_6 1_555 1_555
H5_6 C6_6 1_555 1_555
Zn3_6 O3_6 1_555 1_555
Zn2 O1_6 1_555 1_555
H4_6 C5_6 1_555 1_555
N4_6 Zn2 1_555 1_555
O4_6 Zn2 1_555 1_555
N3_4 C6_7 1_555 1_555
H5_7 C6_7 1_555 1_555
Zn3_5 N3_4 1_555 1_555
Zn3_3 O1_7 1_555 1_555
O1_7 C2_7 1_555 1_555
C1_7 O2_7 1_555 1_555
C2_7 C4_7 1_555 1_555
C3_7 C1_7 1_555 1_555
N1_7 C1_7 1_555 1_555
C4_7 N1_7 1_555 1_555
H2_7 C4_7 1_555 1_555
H3_7 C4_7 1_555 1_555
C5_7 C3_7 1_555 1_555
H4_7 C5_7 1_555 1_555
O3_7 C2_7 1_555 1_555
Zn4_4 O3_7 1_555 1_555
N5_4 Zn3_3 1_555 1_555
N4_5 C5_7 1_555 1_555
N3_5 C6_8 1_555 1_555
H5_8 C6_8 1_555 1_555
Zn3_4 N3_5 1_555 1_555
Zn3 O1_8 1_555 1_555
O1_8 C2_8 1_555 1_555
C1_8 O2_8 1_555 1_555
C2_8 C4_8 1_555 1_555
C3_8 C1_8 1_555 1_555
N1_8 C1_8 1_555 1_555
C4_8 N1_8 1_555 1_555
H2_8 C4_8 1_555 1_555
H3_8 C4_8 1_555 1_555
C5_8 C3_8 1_555 1_555
H4_8 C5_8 1_555 1_555
O3_8 C2_8 1_555 1_555
Zn4_6 O3_8 1_555 1_555
N4_8 Zn3 1_555 1_555
N5_5 Zn3 1_555 1_555
N4_4 C5_8 1_555 1_555
N3_6 C6_9 1_555 1_555
H5_9 C6_9 1_555 1_555
Zn3_6 N3_6 1_555 1_555
Zn3_2 O1_9 1_555 1_555
O1_9 C2_9 1_555 1_555
C1_9 O2_9 1_555 1_555
C2_9 C4_9 1_555 1_555
C3_9 C1_9 1_555 1_555
N1_9 C1_9 1_555 1_555
C4_9 N1_9 1_555 1_555
H2_9 C4_9 1_555 1_555
H3_9 C4_9 1_555 1_555
C5_9 C3_9 1_555 1_555
H4_9 C5_9 1_555 1_555
O3_9 C2_9 1_555 1_555
Zn4_5 O3_9 1_555 1_555
N5_6 Zn3_2 1_555 1_555
N4_6 C5_9 1_555 1_555
Zn3_6 O1_10 1_555 1_555
O1_10 C2_10 1_555 1_555
C1_10 O2_10 1_555 1_555
C2_10 C4_10 1_555 1_555
C3_10 C1_10 1_555 1_555
N1_10 C1_10 1_555 1_555
H1_10 N1_10 1_555 1_555
C4_10 N1_10 1_555 1_555
H2_10 C4_10 1_555 1_555
H3_10 C4_10 1_555 1_555
N4_2 N5_6 1_555 1_555
N5_6 C6_10 1_555 1_555
C5_10 C3_10 1_555 1_555
H4_10 C5_10 1_555 1_555
O3_10 C2_10 1_555 1_555
C6_10 C3_10 1_555 1_555
H5_10 C6_10 1_555 1_555
Zn4 O3_10 1_555 1_555
N4_10 Zn3_6 1_555 1_555
N4_2 C5_10 1_555 1_555
Zn3_4 O1_11 1_555 1_555
O1_11 C2_11 1_555 1_555
C1_11 O2_11 1_555 1_555
C2_11 C4_11 1_555 1_555
C3_11 C1_11 1_555 1_555
N1_11 C1_11 1_555 1_555
H1_11 N1_11 1_555 1_555
C4_11 N1_11 1_555 1_555
H2_11 C4_11 1_555 1_555
H3_11 C4_11 1_555 1_555
N4 N5_5 1_555 1_555
N5_5 C6_11 1_555 1_555
C5_11 C3_11 1_555 1_555
H4_11 C5_11 1_555 1_555
O3_11 C2_11 1_555 1_555
C6_11 C3_11 1_555 1_555
H5_11 C6_11 1_555 1_555
Zn4_3 O3_11 1_555 1_555
N4 C5_11 1_555 1_555
Zn3_5 O1_12 1_555 1_555
O1_12 C2_12 1_555 1_555
C1_12 O2_12 1_555 1_555
C2_12 C4_12 1_555 1_555
C3_12 C1_12 1_555 1_555
N1_12 C1_12 1_555 1_555
H1_12 N1_12 1_555 1_555
C4_12 N1_12 1_555 1_555
H2_12 C4_12 1_555 1_555
H3_12 C4_12 1_555 1_555
N4_3 N5_4 1_555 1_555
N5_4 C6_12 1_555 1_555
C5_12 C3_12 1_555 1_555
H4_12 C5_12 1_555 1_555
O3_12 C2_12 1_555 1_555
C6_12 C3_12 1_555 1_555
H5_12 C6_12 1_555 1_555
Zn4_2 O3_12 1_555 1_555
N4_3 C5_12 1_555 1_555
C1_13 O2_13 1_555 1_555
C2_13 C4_13 1_555 1_555
C3_13 C1_13 1_555 1_555
N1_13 C1_13 1_555 1_555
H1_13 N1_13 1_555 1_555
C4_13 N1_13 1_555 1_555
H2_13 C4_13 1_555 1_555
H3_13 C4_13 1_555 1_555
N4_11 N3_7 1_555 1_555
N3_7 C6_13 1_555 1_555
C5_13 C3_13 1_555 1_555
H4_13 C5_13 1_555 1_555
O4_2 C2_13 1_555 1_555
C6_13 C3_13 1_555 1_555
H5_13 C6_13 1_555 1_555
N4_11 C5_13 1_555 1_555
C1_14 O2_14 1_555 1_555
C2_14 C4_14 1_555 1_555
C3_14 C1_14 1_555 1_555
N1_14 C1_14 1_555 1_555
H1_14 N1_14 1_555 1_555
C4_14 N1_14 1_555 1_555
H2_14 C4_14 1_555 1_555
H3_14 C4_14 1_555 1_555
N4_10 N3_8 1_555 1_555
N3_8 C6_14 1_555 1_555
C5_14 C3_14 1_555 1_555
H4_14 C5_14 1_555 1_555
O4_3 C2_14 1_555 1_555
C6_14 C3_14 1_555 1_555
H5_14 C6_14 1_555 1_555
Zn4 N3_8 1_555 1_555
N4_10 C5_14 1_555 1_555
O1_13 C2_15 1_555 1_555
C1_15 O2_15 1_555 1_555
C2_15 C4_15 1_555 1_555
C3_15 C1_15 1_555 1_555
N1_15 C1_15 1_555 1_555
H1_15 N1_15 1_555 1_555
C4_15 N1_15 1_555 1_555
H2_15 C4_15 1_555 1_555
H3_15 C4_15 1_555 1_555
N4_12 N3_9 1_555 1_555
N3_9 C6_15 1_555 1_555
C5_15 C3_15 1_555 1_555
H4_15 C5_15 1_555 1_555
O4 C2_15 1_555 1_555
C6_15 C3_15 1_555 1_555
H5_15 C6_15 1_555 1_555
N4_12 C5_15 1_555 1_555
N5_9 Zn4_6 1_555 1_555
C1_16 O2_16 1_555 1_555
C2_16 C4_16 1_555 1_555
C3_16 C1_16 1_555 1_555
N1_16 C1_16 1_555 1_555
H1_16 N1_16 1_555 1_555
C4_16 N1_16 1_555 1_555
H2_16 C4_16 1_555 1_555
H3_16 C4_16 1_555 1_555
N4_8 N5_9 1_555 1_555
N5_9 C6_16 1_555 1_555
C5_16 C3_16 1_555 1_555
H4_16 C5_16 1_555 1_555
O4_5 C2_16 1_555 1_555
C6_16 C3_16 1_555 1_555
H5_16 C6_16 1_555 1_555
N4_8 C5_16 1_555 1_555
Zn4_2 O1_14 1_555 1_555
Zn4 O1_15 1_555 1_555
O1_15 C2_17 1_555 1_555
C1_17 O2_17 1_555 1_555
C2_17 C4_17 1_555 1_555
C3_17 C1_17 1_555 1_555
N1_17 C1_17 1_555 1_555
H1_17 N1_17 1_555 1_555
C4_17 N1_17 1_555 1_555
H2_17 C4_17 1_555 1_555
H3_17 C4_17 1_555 1_555
N4_7 N5_8 1_555 1_555
N5_8 C6_17 1_555 1_555
C5_17 C3_17 1_555 1_555
H4_17 C5_17 1_555 1_555
O4_6 C2_17 1_555 1_555
C6_17 C3_17 1_555 1_555
H5_17 C6_17 1_555 1_555
N4_7 C5_17 1_555 1_555
Zn4_3 O1_16 1_555 1_555
C1_18 O2_18 1_555 1_555
C2_18 C4_18 1_555 1_555
C3_18 C1_18 1_555 1_555
N1_18 C1_18 1_555 1_555
H1_18 N1_18 1_555 1_555
C4_18 N1_18 1_555 1_555
H2_18 C4_18 1_555 1_555
H3_18 C4_18 1_555 1_555
N4_9 N5_7 1_555 1_555
N5_7 C6_18 1_555 1_555
C5_18 C3_18 1_555 1_555
H4_18 C5_18 1_555 1_555
O4_4 C2_18 1_555 1_555
C6_18 C3_18 1_555 1_555
H5_18 C6_18 1_555 1_555
N4_9 C5_18 1_555 1_555

#END
