
###############################################################################
#
# This file contains modified crystal structure data generated from the
# MOF subset of the Cambridge Structural Database (CSD) v543 
# hosted by the Cambridge Crystallographic Data Centre (CCDC).
#
# This work is licensed under the Creative Commons
# Attribution-NonCommercial-ShareAlike 4.0 International License.
# To view a copy of this license, visit
# http://creativecommons.org/licenses/by-nc-sa/4.0/
# or send a letter to
# Creative Commons, PO Box 1866, Mountain View, CA 94042, USA.
#
# CIF created using the CSD Python API on 29 September 2022
# The structure has been converted into the P1 space group
# The structure has a 3D framework
# The original CSD entry VUWSOY is in the rhombohedral crystal system
# The framework has been calculated to contain at least 10.0% void space
# The void calculation uses a probe of radius 1.32A, grid spacing 0.4
#
###############################################################################

data_VUWSOY
_chemical_formula_moiety         '(C108 H90 N54 O47 Zn13)n'
_symmetry_cell_setting           triclinic
_symmetry_space_group_name_H-M   'P 1'
_symmetry_Int_Tables_number      1
_space_group_name_Hall           'P 1'
loop_
_symmetry_equiv_pos_site_id
_symmetry_equiv_pos_as_xyz
1 x,y,z
_cell_length_a                   26.5411(14)
_cell_length_b                   26.5411(14)
_cell_length_c                   10.1419(4)
_cell_angle_alpha                90
_cell_angle_beta                 90
_cell_angle_gamma                120
_cell_volume                     6187.11
loop_
_atom_site_label
_atom_site_type_symbol
_atom_site_fract_x
_atom_site_fract_y
_atom_site_fract_z
Zn1 Zn 0.64796(5) 0.67635(5) 0.15626(15)
N1 N 0.6131(6) 0.6508(4) 0.4374(9)
O1 O 0.3204(4) 0.4020(4) 0.5182(7)
N2 N 0.4134(4) 0.5391(4) 0.3804(8)
H1 H 0.4217 0.5507 0.2980
O2 O 0.3802(5) 0.4245(3) 0.3445(8)
N3 N 0.5952(4) 0.6473(4) 0.3088(9)
O3 O 0.4419(4) 0.5554(4) 0.5928(7)
C1 C 0.5391(5) 0.6189(5) 0.3057(11)
H2 H 0.5168 0.6114 0.2273
C2 C 0.4558(6) 0.5645(6) 0.4730(11)
C3 C 0.5149(5) 0.6008(5) 0.4304(10)
C4 C 0.3521(5) 0.4358(5) 0.4257(11)
C5 C 0.5637(7) 0.6228(5) 0.5106(11)
H3 H 0.5628 0.6189 0.6039
C6 C 0.3560(5) 0.4945(5) 0.4121(11)
H4 H 0.3290 0.4923 0.3421
H5 H 0.3438 0.5043 0.4959
Zn2 Zn 0.32365(5) 0.35204(5) 0.65626(15)
Zn3 Zn 0.69506(7) 0.68537(5) 0.48959(15)
Zn4 Zn 0.36172(7) 0.34302(5) 0.32293(15)
N4 N 0.6825(4) 0.6290(7) 0.1041(9)
O4 O 0.5980(4) 0.6796(4) 0.0182(7)
O5 O 0.7110(6) 0.7578(3) 0.1778(8)
Zn3_2 Zn 0.31463(5) 0.00968(9) 0.48959(15)
Zn4_2 Zn 0.65698(5) 0.01871(9) 0.32293(15)
N4_2 N 0.3710(7) 0.0536(8) 0.1041(9)
Zn1_2 Zn 0.32365(5) 0.97161(7) 0.15626(15)
N1_2 N 0.3492(4) 0.9623(7) 0.4374(9)
O1_2 O 0.5980(4) 0.9184(6) 0.5182(7)
N2_2 N 0.4609(4) 0.8743(6) 0.3804(8)
H1_2 H 0.4493 0.8710 0.2980
O2_2 O 0.5755(3) 0.9557(6) 0.3445(8)
N3_2 N 0.3527(4) 0.9479(6) 0.3088(9)
O3_2 O 0.4446(4) 0.8865(6) 0.5928(7)
C1_2 C 0.3811(5) 0.9202(7) 0.3057(11)
H2_2 H 0.3886 0.9054 0.2273
C2_2 C 0.4355(6) 0.8913(8) 0.4730(11)
C3_2 C 0.3992(5) 0.9141(7) 0.4304(10)
C4_2 C 0.5642(5) 0.9163(7) 0.4257(11)
C5_2 C 0.3772(5) 0.9409(9) 0.5106(11)
H3_2 H 0.3811 0.9439 0.6039
C6_2 C 0.5055(5) 0.8615(7) 0.4121(11)
H4_2 H 0.5077 0.8367 0.3421
H5_2 H 0.4957 0.8395 0.4959
Zn2_2 Zn 0.64796(5) 0.97161(7) 0.65626(15)
O4_2 O 0.3204(4) 0.9184(6) 0.0182(7)
O5_2 O 0.2422(3) 0.9531(7) 0.1778(8)
Zn1_3 Zn 0.02839(7) 0.35204(5) 0.15626(15)
N1_3 N 0.0377(7) 0.3869(6) 0.4374(9)
O1_3 O 0.0816(6) 0.6796(4) 0.5182(7)
N2_3 N 0.1257(6) 0.5866(4) 0.3804(8)
H1_3 H 0.1290 0.5783 0.2980
O2_3 O 0.0443(6) 0.6198(5) 0.3445(8)
N3_3 N 0.0521(6) 0.4048(4) 0.3088(9)
O3_3 O 0.1135(6) 0.5581(4) 0.5928(7)
C1_3 C 0.0798(7) 0.4609(5) 0.3057(11)
H2_3 H 0.0946 0.4832 0.2273
C2_3 C 0.1087(8) 0.5442(6) 0.4730(11)
C3_3 C 0.0859(7) 0.4851(5) 0.4304(10)
C4_3 C 0.0837(7) 0.6479(5) 0.4257(11)
C5_3 C 0.0591(9) 0.4363(7) 0.5106(11)
H3_3 H 0.0561 0.4372 0.6039
C6_3 C 0.1385(7) 0.6440(5) 0.4121(11)
H4_3 H 0.1633 0.6710 0.3421
H5_3 H 0.1605 0.6562 0.4959
Zn2_3 Zn 0.02839(7) 0.67635(5) 0.65626(15)
O4_3 O 0.0816(6) 0.4020(4) 0.0182(7)
O5_3 O 0.0469(7) 0.2890(6) 0.1778(8)
Zn3_3 Zn 0.99032(9) 0.30494(7) 0.48959(15)
Zn4_3 Zn 0.98129(9) 0.63828(7) 0.32293(15)
N4_3 N 0.9464(8) 0.3175(4) 0.1041(9)
O3_4 O 0.1135(6) 0.5554(4) 0.0928(7)
C5_4 C 0.0591(9) 0.6228(5) 0.0106(11)
H3_4 H 0.0561 0.6189 0.1039
N1_4 N 0.0377(7) 0.6508(4) 0.9374(9)
N2_4 N 0.1257(6) 0.5391(4) 0.8804(8)
H1_4 H 0.1290 0.5507 0.7980
O2_4 O 0.0443(6) 0.4245(3) 0.8445(8)
N3_4 N 0.0521(6) 0.6473(4) 0.8088(9)
C1_4 C 0.0798(7) 0.6189(5) 0.8057(11)
H2_4 H 0.0946 0.6114 0.7273
C2_4 C 0.1087(8) 0.5645(6) 0.9730(11)
C3_4 C 0.0859(7) 0.6008(5) 0.9304(10)
C4_4 C 0.0837(7) 0.4358(5) 0.9257(11)
C6_4 C 0.1385(7) 0.4945(5) 0.9121(11)
H4_4 H 0.1633 0.4923 0.8421
H5_4 H 0.1605 0.5043 0.9959
O5_4 O 0.0469(7) 0.7578(3) 0.6778(8)
Zn3_4 Zn 0.99032(9) 0.68537(5) 0.98959(15)
Zn4_4 Zn 0.98129(9) 0.34302(5) 0.82293(15)
N4_4 N 0.9464(8) 0.6290(7) 0.6041(9)
Zn3_5 Zn 0.69506(7) 0.00968(9) 0.98959(15)
Zn4_5 Zn 0.36172(7) 0.01871(9) 0.82293(15)
N4_5 N 0.6825(4) 0.0536(8) 0.6041(9)
O3_5 O 0.4419(4) 0.8865(6) 0.0928(7)
C5_5 C 0.5637(7) 0.9409(9) 0.0106(11)
H3_5 H 0.5628 0.9439 0.1039
N1_5 N 0.6131(6) 0.9623(7) 0.9374(9)
N2_5 N 0.4134(4) 0.8743(6) 0.8804(8)
H1_5 H 0.4217 0.8710 0.7980
O2_5 O 0.3802(5) 0.9557(6) 0.8445(8)
N3_5 N 0.5952(4) 0.9479(6) 0.8088(9)
C1_5 C 0.5391(5) 0.9202(7) 0.8057(11)
H2_5 H 0.5168 0.9054 0.7273
C2_5 C 0.4558(6) 0.8913(8) 0.9730(11)
C3_5 C 0.5149(5) 0.9141(7) 0.9304(10)
C4_5 C 0.3521(5) 0.9163(7) 0.9257(11)
C6_5 C 0.3560(5) 0.8615(7) 0.9121(11)
H4_5 H 0.3290 0.8367 0.8421
H5_5 H 0.3438 0.8395 0.9959
O5_5 O 0.7110(6) 0.9531(7) 0.6778(8)
O3_6 O 0.4446(4) 0.5581(4) 0.0928(7)
C5_6 C 0.3772(5) 0.4363(7) 0.0106(11)
H3_6 H 0.3811 0.4372 0.1039
N1_6 N 0.3492(4) 0.3869(6) 0.9374(9)
N2_6 N 0.4609(4) 0.5866(4) 0.8804(8)
H1_6 H 0.4493 0.5783 0.7980
O2_6 O 0.5755(3) 0.6198(5) 0.8445(8)
N3_6 N 0.3527(4) 0.4048(4) 0.8088(9)
C1_6 C 0.3811(5) 0.4609(5) 0.8057(11)
H2_6 H 0.3886 0.4832 0.7273
C2_6 C 0.4355(6) 0.5442(6) 0.9730(11)
C3_6 C 0.3992(5) 0.4851(5) 0.9304(10)
C4_6 C 0.5642(5) 0.6479(5) 0.9257(11)
C6_6 C 0.5055(5) 0.6440(5) 0.9121(11)
H4_6 H 0.5077 0.6710 0.8421
H5_6 H 0.4957 0.6562 0.9959
Zn3_6 Zn 0.31463(5) 0.30494(7) 0.98959(15)
Zn4_6 Zn 0.65698(5) 0.63828(7) 0.82293(15)
N4_6 N 0.3710(7) 0.3175(4) 0.6041(9)
O5_6 O 0.2422(3) 0.2890(6) 0.6778(8)
O4_4 O 0.2647(4) 0.0129(4) 0.3515(7)
O5_7 O 0.3776(6) 0.0912(3) 0.5112(8)
N1_7 N 0.2798(6) 0.9841(4) 0.7707(9)
N2_7 N 0.0801(4) 0.8724(4) 0.7137(8)
H1_7 H 0.0884 0.8840 0.6313
N3_7 N 0.2619(4) 0.9806(4) 0.6421(9)
O3_7 O 0.1086(4) 0.8887(4) 0.9261(7)
C1_7 C 0.2058(5) 0.9522(5) 0.6390(11)
H2_7 H 0.1835 0.9447 0.5606
C2_7 C 0.1225(6) 0.8978(6) 0.8063(11)
C3_7 C 0.1816(5) 0.9341(5) 0.7637(10)
C4_7 C 0.0188(5) 0.7691(5) 0.7590(11)
C5_7 C 0.2304(7) 0.9561(5) 0.8439(11)
H3_7 H 0.2295 0.9522 0.9372
C6_7 C 0.0227(5) 0.8278(5) 0.7454(11)
H5_7 H 0.0105 0.8376 0.8292
O1_4 O 0.9871(4) 0.7353(4) 0.8515(7)
H4_7 H 0.9957 0.8256 0.6754
N1_8 N 0.0159(4) 0.2956(7) 0.7707(9)
O1_5 O 0.2647(4) 0.2517(6) 0.8515(7)
N2_8 N 0.1276(4) 0.2076(6) 0.7137(8)
H1_8 H 0.1160 0.2043 0.6313
N3_8 N 0.0194(4) 0.2812(6) 0.6421(9)
O3_8 O 0.1113(4) 0.2198(6) 0.9261(7)
C1_8 C 0.0478(5) 0.2535(7) 0.6390(11)
H2_8 H 0.0553 0.2387 0.5606
C2_8 C 0.1022(6) 0.2246(8) 0.8063(11)
C3_8 C 0.0659(5) 0.2474(7) 0.7637(10)
C4_8 C 0.2309(5) 0.2496(7) 0.7590(11)
C5_8 C 0.0439(5) 0.2742(9) 0.8439(11)
H3_8 H 0.0478 0.2772 0.9372
C6_8 C 0.1722(5) 0.1948(7) 0.7454(11)
H4_8 H 0.1744 0.1700 0.6754
H5_8 H 0.1624 0.1728 0.8292
O4_5 O 0.9871(4) 0.2517(6) 0.3515(7)
O5_8 O 0.9088(3) 0.2865(7) 0.5112(8)
O1_6 O 0.7483(6) 0.0129(4) 0.8515(7)
H4_9 H 0.8300 0.0043 0.6754
N1_9 N 0.7044(7) 0.7202(6) 0.7707(9)
N2_9 N 0.7924(6) 0.9199(4) 0.7137(8)
H1_9 H 0.7957 0.9116 0.6313
N3_9 N 0.7188(6) 0.7381(4) 0.6421(9)
O3_9 O 0.7802(6) 0.8914(4) 0.9261(7)
C1_9 C 0.7465(7) 0.7942(5) 0.6390(11)
H2_9 H 0.7613 0.8165 0.5606
C2_9 C 0.7754(8) 0.8775(6) 0.8063(11)
C3_9 C 0.7526(7) 0.8184(5) 0.7637(10)
C4_9 C 0.7504(7) 0.9812(5) 0.7590(11)
C5_9 C 0.7258(9) 0.7696(7) 0.8439(11)
H3_9 H 0.7228 0.7705 0.9372
C6_9 C 0.8052(7) 0.9773(5) 0.7454(11)
H5_9 H 0.8272 0.9895 0.8292
O4_6 O 0.7483(6) 0.7353(4) 0.3515(7)
O5_9 O 0.7135(7) 0.6224(6) 0.5112(8)
O5_10 O 0.7135(7) 0.0912(3) 0.0112(8)
N1_10 N 0.7044(7) 0.9841(4) 0.2707(9)
N2_10 N 0.7924(6) 0.8724(4) 0.2137(8)
H1_10 H 0.7957 0.8840 0.1313
N3_10 N 0.7188(6) 0.9806(4) 0.1421(9)
O3_10 O 0.7802(6) 0.8887(4) 0.4261(7)
C1_10 C 0.7465(7) 0.9522(5) 0.1390(11)
H2_10 H 0.7613 0.9447 0.0606
C2_10 C 0.7754(8) 0.8978(6) 0.3063(11)
C3_10 C 0.7526(7) 0.9341(5) 0.2637(10)
C4_10 C 0.7504(7) 0.7691(5) 0.2590(11)
C5_10 C 0.7258(9) 0.9561(5) 0.3439(11)
H3_10 H 0.7228 0.9522 0.4372
C6_10 C 0.8052(7) 0.8278(5) 0.2454(11)
H4_10 H 0.8300 0.8256 0.1754
H5_10 H 0.8272 0.8376 0.3292
N1_11 N 0.2798(6) 0.2956(7) 0.2707(9)
N2_11 N 0.0801(4) 0.2076(6) 0.2137(8)
H1_11 H 0.0884 0.2043 0.1313
N3_11 N 0.2619(4) 0.2812(6) 0.1421(9)
O3_11 O 0.1086(4) 0.2198(6) 0.4261(7)
C1_11 C 0.2058(5) 0.2535(7) 0.1390(11)
H2_11 H 0.1835 0.2387 0.0606
C2_11 C 0.1225(6) 0.2246(8) 0.3063(11)
C3_11 C 0.1816(5) 0.2474(7) 0.2637(10)
C4_11 C 0.0188(5) 0.2496(7) 0.2590(11)
C5_11 C 0.2304(7) 0.2742(9) 0.3439(11)
H3_11 H 0.2295 0.2772 0.4372
C6_11 C 0.0227(5) 0.1948(7) 0.2454(11)
H5_11 H 0.0105 0.1728 0.3292
O5_11 O 0.3776(6) 0.2865(7) 0.0112(8)
H4_11 H 0.9957 0.1700 0.1754
H4_12 H 0.1744 0.0043 0.1754
N1_12 N 0.0159(4) 0.7202(6) 0.2707(9)
N2_12 N 0.1276(4) 0.9199(4) 0.2137(8)
H1_12 H 0.1160 0.9116 0.1313
N3_12 N 0.0194(4) 0.7381(4) 0.1421(9)
O3_12 O 0.1113(4) 0.8914(4) 0.4261(7)
C1_12 C 0.0478(5) 0.7942(5) 0.1390(11)
H2_12 H 0.0553 0.8165 0.0606
C2_12 C 0.1022(6) 0.8775(6) 0.3063(11)
C3_12 C 0.0659(5) 0.8184(5) 0.2637(10)
C4_12 C 0.2309(5) 0.9812(5) 0.2590(11)
C5_12 C 0.0439(5) 0.7696(7) 0.3439(11)
H3_12 H 0.0478 0.7705 0.4372
C6_12 C 0.1722(5) 0.9773(5) 0.2454(11)
H5_12 H 0.1624 0.9895 0.3292
O5_12 O 0.9088(3) 0.6224(6) 0.0112(8)
O1_7 O 0.6537(4) 0.0687(4) 0.1849(7)
N2_13 N 0.7467(4) 0.2058(4) 0.0471(8)
O3_13 O 0.7752(4) 0.2221(4) 0.2595(7)
C2_13 C 0.7891(6) 0.2312(6) 0.1397(11)
C3_13 C 0.8482(5) 0.2675(5) 0.0971(10)
C4_13 C 0.6854(5) 0.1025(5) 0.0924(11)
C5_13 C 0.8970(7) 0.2895(5) 0.1773(11)
H3_13 H 0.8961 0.2856 0.2706
C6_13 C 0.6893(5) 0.1612(5) 0.0788(11)
H4_13 H 0.6623 0.1590 0.0088
H5_13 H 0.6771 0.1710 0.1626
H1_13 H 0.7550 0.2174 0.9647
N3_13 N 0.9285(4) 0.3140(4) 0.9755(9)
C1_13 C 0.8724(5) 0.2856(5) 0.9724(11)
H2_13 H 0.8501 0.2781 0.8940
O4_7 O 0.9313(4) 0.3463(4) 0.6849(7)
O1_8 O 0.9313(4) 0.5851(6) 0.1849(7)
N2_14 N 0.7942(4) 0.5410(6) 0.0471(8)
O3_14 O 0.7779(4) 0.5532(6) 0.2595(7)
C2_14 C 0.7688(6) 0.5580(8) 0.1397(11)
C3_14 C 0.7325(5) 0.5808(7) 0.0971(10)
C4_14 C 0.8975(5) 0.5830(7) 0.0924(11)
C5_14 C 0.7105(5) 0.6076(9) 0.1773(11)
H3_14 H 0.7144 0.6106 0.2706
C6_14 C 0.8388(5) 0.5282(7) 0.0788(11)
H4_14 H 0.8410 0.5034 0.0088
H5_14 H 0.8290 0.5062 0.1626
H1_14 H 0.7826 0.5377 0.9647
N3_14 N 0.6860(4) 0.6146(6) 0.9755(9)
C1_14 C 0.7144(5) 0.5869(7) 0.9724(11)
H2_14 H 0.7219 0.5721 0.8940
O4_8 O 0.6537(4) 0.5851(6) 0.6849(7)
O1_9 O 0.4149(6) 0.3463(4) 0.1849(7)
N2_15 N 0.4590(6) 0.2533(4) 0.0471(8)
O3_15 O 0.4468(6) 0.2248(4) 0.2595(7)
C2_15 C 0.4420(8) 0.2109(6) 0.1397(11)
C3_15 C 0.4192(7) 0.1518(5) 0.0971(10)
C4_15 C 0.4170(7) 0.3146(5) 0.0924(11)
C5_15 C 0.3924(9) 0.1030(7) 0.1773(11)
H3_15 H 0.3894 0.1039 0.2706
C6_15 C 0.4718(7) 0.3107(5) 0.0788(11)
H4_15 H 0.4966 0.3377 0.0088
H5_15 H 0.4938 0.3229 0.1626
H1_15 H 0.4623 0.2450 0.9647
N3_15 N 0.3854(6) 0.0715(4) 0.9755(9)
C1_15 C 0.4131(7) 0.1276(5) 0.9724(11)
H2_15 H 0.4279 0.1499 0.8940
O4_9 O 0.4149(6) 0.0687(4) 0.6849(7)
N2_16 N 0.4590(6) 0.2058(4) 0.5471(8)
H1_16 H 0.4623 0.2174 0.4647
N3_16 N 0.3854(6) 0.3140(4) 0.4755(9)
O3_16 O 0.4468(6) 0.2221(4) 0.7595(7)
C1_16 C 0.4131(7) 0.2856(5) 0.4724(11)
H2_16 H 0.4279 0.2781 0.3940
C2_16 C 0.4420(8) 0.2312(6) 0.6397(11)
C3_16 C 0.4192(7) 0.2675(5) 0.5971(10)
C4_16 C 0.4170(7) 0.1025(5) 0.5924(11)
C5_16 C 0.3924(9) 0.2895(5) 0.6773(11)
H3_16 H 0.3894 0.2856 0.7706
C6_16 C 0.4718(7) 0.1612(5) 0.5788(11)
H4_16 H 0.4966 0.1590 0.5088
H5_16 H 0.4938 0.1710 0.6626
N2_17 N 0.7467(4) 0.5410(6) 0.5471(8)
H1_17 H 0.7550 0.5377 0.4647
N3_17 N 0.9285(4) 0.6146(6) 0.4755(9)
O3_17 O 0.7752(4) 0.5532(6) 0.7595(7)
C1_17 C 0.8724(5) 0.5869(7) 0.4724(11)
H2_17 H 0.8501 0.5721 0.3940
C2_17 C 0.7891(6) 0.5580(8) 0.6397(11)
C3_17 C 0.8482(5) 0.5808(7) 0.5971(10)
C4_17 C 0.6854(5) 0.5830(7) 0.5924(11)
C5_17 C 0.8970(7) 0.6076(9) 0.6773(11)
H3_17 H 0.8961 0.6106 0.7706
C6_17 C 0.6893(5) 0.5282(7) 0.5788(11)
H4_17 H 0.6623 0.5034 0.5088
H5_17 H 0.6771 0.5062 0.6626
N2_18 N 0.7942(4) 0.2533(4) 0.5471(8)
H1_18 H 0.7826 0.2450 0.4647
N3_18 N 0.6860(4) 0.0715(4) 0.4755(9)
O3_18 O 0.7779(4) 0.2248(4) 0.7595(7)
C1_18 C 0.7144(5) 0.1276(5) 0.4724(11)
H2_18 H 0.7219 0.1499 0.3940
C2_18 C 0.7688(6) 0.2109(6) 0.6397(11)
C3_18 C 0.7325(5) 0.1518(5) 0.5971(10)
C4_18 C 0.8975(5) 0.3146(5) 0.5924(11)
C5_18 C 0.7105(5) 0.1030(7) 0.6773(11)
H3_18 H 0.7144 0.1039 0.7706
C6_18 C 0.8388(5) 0.3107(5) 0.5788(11)
H4_18 H 0.8410 0.3377 0.5088
H5_18 H 0.8290 0.3229 0.6626
loop_
_geom_bond_atom_site_label_1
_geom_bond_atom_site_label_2
_geom_bond_site_symmetry_1
_geom_bond_site_symmetry_2
Zn1 N3 1_555 1_555
N1 N3 1_555 1_555
O1 C4 1_555 1_555
N2 H1 1_555 1_555
O2 C4 1_555 1_555
N3 C1 1_555 1_555
O3 C2 1_555 1_555
C1 H2 1_555 1_555
C2 N2 1_555 1_555
C3 C1 1_555 1_555
C4 C6 1_555 1_555
C5 N1 1_555 1_555
H3 C5 1_555 1_555
C6 N2 1_555 1_555
H4 C6 1_555 1_555
H5 C6 1_555 1_555
Zn2 O1 1_555 1_555
Zn3 N1 1_555 1_555
Zn4 O2 1_555 1_555
N4 Zn1 1_555 1_555
O4 Zn1 1_555 1_555
O5 Zn1 1_555 1_555
C2 C3 1_555 1_555
C3 C5 1_555 1_555
Zn1_2 N3_2 1_555 1_555
N1_2 N3_2 1_555 1_555
O1_2 C4_2 1_555 1_555
N2_2 H1_2 1_555 1_555
O2_2 C4_2 1_555 1_555
N3_2 C1_2 1_555 1_555
O3_2 C2_2 1_555 1_555
C1_2 H2_2 1_555 1_555
C2_2 N2_2 1_555 1_555
C3_2 C1_2 1_555 1_555
C4_2 C6_2 1_555 1_555
C5_2 N1_2 1_555 1_555
H3_2 C5_2 1_555 1_555
C6_2 N2_2 1_555 1_555
H4_2 C6_2 1_555 1_555
H5_2 C6_2 1_555 1_555
Zn2_2 O1_2 1_555 1_555
O4_2 Zn1_2 1_555 1_555
O5_2 Zn1_2 1_555 1_555
C2_2 C3_2 1_555 1_555
C3_2 C5_2 1_555 1_555
Zn1_3 N3_3 1_555 1_555
N1_3 N3_3 1_555 1_555
O1_3 C4_3 1_555 1_555
N2_3 H1_3 1_555 1_555
O2_3 C4_3 1_555 1_555
N3_3 C1_3 1_555 1_555
O3_3 C2_3 1_555 1_555
C1_3 H2_3 1_555 1_555
C2_3 N2_3 1_555 1_555
C3_3 C1_3 1_555 1_555
C4_3 C6_3 1_555 1_555
C5_3 N1_3 1_555 1_555
H3_3 C5_3 1_555 1_555
C6_3 N2_3 1_555 1_555
H4_3 C6_3 1_555 1_555
H5_3 C6_3 1_555 1_555
Zn2_3 O1_3 1_555 1_555
O4_3 Zn1_3 1_555 1_555
O5_3 Zn1_3 1_555 1_555
C2_3 C3_3 1_555 1_555
C3_3 C5_3 1_555 1_555
H3_4 C5_4 1_555 1_555
Zn2_3 N3_4 1_555 1_555
N1_4 N3_4 1_555 1_555
N2_4 H1_4 1_555 1_555
O2_4 C4_4 1_555 1_555
N3_4 C1_4 1_555 1_555
C1_4 H2_4 1_555 1_555
C2_4 N2_4 1_555 1_555
C3_4 C1_4 1_555 1_555
C4_4 C6_4 1_555 1_555
C6_4 N2_4 1_555 1_555
H4_4 C6_4 1_555 1_555
H5_4 C6_4 1_555 1_555
O5_4 Zn2_3 1_555 1_555
C2_4 C3_4 1_555 1_555
H3_5 C5_5 1_555 1_555
Zn2_2 N3_5 1_555 1_555
N1_5 N3_5 1_555 1_555
N2_5 H1_5 1_555 1_555
O2_5 C4_5 1_555 1_555
N3_5 C1_5 1_555 1_555
C1_5 H2_5 1_555 1_555
C2_5 N2_5 1_555 1_555
C3_5 C1_5 1_555 1_555
C4_5 C6_5 1_555 1_555
C6_5 N2_5 1_555 1_555
H4_5 C6_5 1_555 1_555
H5_5 C6_5 1_555 1_555
O5_5 Zn2_2 1_555 1_555
C2_5 C3_5 1_555 1_555
H3_6 C5_6 1_555 1_555
Zn2 N3_6 1_555 1_555
N1_6 N3_6 1_555 1_555
N2_6 H1_6 1_555 1_555
O2_6 C4_6 1_555 1_555
N3_6 C1_6 1_555 1_555
C1_6 H2_6 1_555 1_555
C2_6 N2_6 1_555 1_555
C3_6 C1_6 1_555 1_555
C4_6 C6_6 1_555 1_555
C6_6 N2_6 1_555 1_555
H4_6 C6_6 1_555 1_555
H5_6 C6_6 1_555 1_555
Zn3_6 N1_6 1_555 1_555
Zn4_6 O2_6 1_555 1_555
N4_6 Zn2 1_555 1_555
O5_6 Zn2 1_555 1_555
C2_6 C3_6 1_555 1_555
O4_4 Zn3_2 1_555 1_555
O5_7 Zn3_2 1_555 1_555
N1_7 N3_7 1_555 1_555
N2_7 H1_7 1_555 1_555
O5_4 C4_7 1_555 1_555
N3_7 C1_7 1_555 1_555
O3_7 C2_7 1_555 1_555
C1_7 H2_7 1_555 1_555
C2_7 N2_7 1_555 1_555
C3_7 C1_7 1_555 1_555
C4_7 C6_7 1_555 1_555
C5_7 N1_7 1_555 1_555
H3_7 C5_7 1_555 1_555
C6_7 N2_7 1_555 1_555
H5_7 C6_7 1_555 1_555
C2_7 C3_7 1_555 1_555
C3_7 C5_7 1_555 1_555
Zn3_4 O1_4 1_555 1_555
N1_8 N3_8 1_555 1_555
O1_5 C4_8 1_555 1_555
N2_8 H1_8 1_555 1_555
O5_6 C4_8 1_555 1_555
N3_8 C1_8 1_555 1_555
O3_8 C2_8 1_555 1_555
C1_8 H2_8 1_555 1_555
C2_8 N2_8 1_555 1_555
C3_8 C1_8 1_555 1_555
C4_8 C6_8 1_555 1_555
C5_8 N1_8 1_555 1_555
H3_8 C5_8 1_555 1_555
C6_8 N2_8 1_555 1_555
H4_8 C6_8 1_555 1_555
H5_8 C6_8 1_555 1_555
Zn3_6 O1_5 1_555 1_555
C2_8 C3_8 1_555 1_555
C3_8 C5_8 1_555 1_555
O4_5 Zn3_3 1_555 1_555
O5_8 Zn3_3 1_555 1_555
Zn3_5 O1_6 1_555 1_555
Zn3 N3_9 1_555 1_555
N1_9 N3_9 1_555 1_555
N2_9 H1_9 1_555 1_555
O5_5 C4_9 1_555 1_555
N3_9 C1_9 1_555 1_555
O3_9 C2_9 1_555 1_555
C1_9 H2_9 1_555 1_555
C2_9 N2_9 1_555 1_555
C3_9 C1_9 1_555 1_555
C4_9 C6_9 1_555 1_555
C5_9 N1_9 1_555 1_555
H3_9 C5_9 1_555 1_555
C6_9 N2_9 1_555 1_555
H5_9 C6_9 1_555 1_555
Zn4_6 N1_9 1_555 1_555
O4_6 Zn3 1_555 1_555
O5_9 Zn3 1_555 1_555
C2_9 C3_9 1_555 1_555
C3_9 C5_9 1_555 1_555
N1_10 N3_10 1_555 1_555
O4_6 C4_10 1_555 1_555
N2_10 H1_10 1_555 1_555
O5 C4_10 1_555 1_555
N3_10 C1_10 1_555 1_555
O3_10 C2_10 1_555 1_555
C1_10 H2_10 1_555 1_555
C2_10 N2_10 1_555 1_555
C3_10 C1_10 1_555 1_555
C4_10 C6_10 1_555 1_555
C5_10 N1_10 1_555 1_555
H3_10 C5_10 1_555 1_555
C6_10 N2_10 1_555 1_555
H4_10 C6_10 1_555 1_555
H5_10 C6_10 1_555 1_555
C2_10 C3_10 1_555 1_555
C3_10 C5_10 1_555 1_555
N1_11 N3_11 1_555 1_555
N2_11 H1_11 1_555 1_555
O5_3 C4_11 1_555 1_555
N3_11 C1_11 1_555 1_555
O3_11 C2_11 1_555 1_555
C1_11 H2_11 1_555 1_555
C2_11 N2_11 1_555 1_555
C3_11 C1_11 1_555 1_555
C4_11 C6_11 1_555 1_555
C5_11 N1_11 1_555 1_555
H3_11 C5_11 1_555 1_555
C6_11 N2_11 1_555 1_555
H5_11 C6_11 1_555 1_555
Zn4 N1_11 1_555 1_555
C2_11 C3_11 1_555 1_555
C3_11 C5_11 1_555 1_555
N1_12 N3_12 1_555 1_555
N2_12 H1_12 1_555 1_555
O5_2 C4_12 1_555 1_555
N3_12 C1_12 1_555 1_555
O3_12 C2_12 1_555 1_555
C1_12 H2_12 1_555 1_555
C2_12 N2_12 1_555 1_555
C3_12 C1_12 1_555 1_555
C4_12 C6_12 1_555 1_555
C5_12 N1_12 1_555 1_555
H3_12 C5_12 1_555 1_555
C6_12 N2_12 1_555 1_555
H5_12 C6_12 1_555 1_555
C2_12 C3_12 1_555 1_555
C3_12 C5_12 1_555 1_555
O1_7 C4_13 1_555 1_555
O5_10 C4_13 1_555 1_555
O3_13 C2_13 1_555 1_555
C2_13 N2_13 1_555 1_555
C4_13 C6_13 1_555 1_555
C5_13 N4_3 1_555 1_555
H3_13 C5_13 1_555 1_555
C6_13 N2_13 1_555 1_555
H4_13 C6_13 1_555 1_555
H5_13 C6_13 1_555 1_555
Zn4_2 O1_7 1_555 1_555
C2_13 C3_13 1_555 1_555
C3_13 C5_13 1_555 1_555
Zn4_4 N3_13 1_555 1_555
N3_13 C1_13 1_555 1_555
C1_13 H2_13 1_555 1_555
O4_7 Zn4_4 1_555 1_555
O1_8 C4_14 1_555 1_555
O5_12 C4_14 1_555 1_555
O3_14 C2_14 1_555 1_555
C2_14 N2_14 1_555 1_555
C4_14 C6_14 1_555 1_555
C5_14 N4 1_555 1_555
H3_14 C5_14 1_555 1_555
C6_14 N2_14 1_555 1_555
H4_14 C6_14 1_555 1_555
H5_14 C6_14 1_555 1_555
Zn4_3 O1_8 1_555 1_555
C2_14 C3_14 1_555 1_555
C3_14 C5_14 1_555 1_555
Zn4_6 N3_14 1_555 1_555
N3_14 C1_14 1_555 1_555
C1_14 H2_14 1_555 1_555
O4_8 Zn4_6 1_555 1_555
O1_9 C4_15 1_555 1_555
O5_11 C4_15 1_555 1_555
O3_15 C2_15 1_555 1_555
C2_15 N2_15 1_555 1_555
C4_15 C6_15 1_555 1_555
C5_15 N4_2 1_555 1_555
H3_15 C5_15 1_555 1_555
C6_15 N2_15 1_555 1_555
H4_15 C6_15 1_555 1_555
H5_15 C6_15 1_555 1_555
Zn4 O1_9 1_555 1_555
C2_15 C3_15 1_555 1_555
C3_15 C5_15 1_555 1_555
Zn4_5 N3_15 1_555 1_555
N3_15 C1_15 1_555 1_555
C1_15 H2_15 1_555 1_555
O4_9 Zn4_5 1_555 1_555
Zn4 N3_16 1_555 1_555
N4_6 N3_16 1_555 1_555
O4_9 C4_16 1_555 1_555
N2_16 H1_16 1_555 1_555
O5_7 C4_16 1_555 1_555
N3_16 C1_16 1_555 1_555
O3_16 C2_16 1_555 1_555
C1_16 H2_16 1_555 1_555
C2_16 N2_16 1_555 1_555
C3_16 C1_16 1_555 1_555
C4_16 C6_16 1_555 1_555
C5_16 N4_6 1_555 1_555
H3_16 C5_16 1_555 1_555
C6_16 N2_16 1_555 1_555
H4_16 C6_16 1_555 1_555
H5_16 C6_16 1_555 1_555
C2_16 C3_16 1_555 1_555
C3_16 C5_16 1_555 1_555
Zn4_3 N3_17 1_555 1_555
N4_4 N3_17 1_555 1_555
O4_8 C4_17 1_555 1_555
N2_17 H1_17 1_555 1_555
O5_9 C4_17 1_555 1_555
N3_17 C1_17 1_555 1_555
O3_17 C2_17 1_555 1_555
C1_17 H2_17 1_555 1_555
C2_17 N2_17 1_555 1_555
C3_17 C1_17 1_555 1_555
C4_17 C6_17 1_555 1_555
C5_17 N4_4 1_555 1_555
H3_17 C5_17 1_555 1_555
C6_17 N2_17 1_555 1_555
H4_17 C6_17 1_555 1_555
H5_17 C6_17 1_555 1_555
C2_17 C3_17 1_555 1_555
C3_17 C5_17 1_555 1_555
Zn4_2 N3_18 1_555 1_555
N4_5 N3_18 1_555 1_555
O4_7 C4_18 1_555 1_555
N2_18 H1_18 1_555 1_555
O5_8 C4_18 1_555 1_555
N3_18 C1_18 1_555 1_555
O3_18 C2_18 1_555 1_555
C1_18 H2_18 1_555 1_555
C2_18 N2_18 1_555 1_555
C3_18 C1_18 1_555 1_555
C4_18 C6_18 1_555 1_555
C5_18 N4_5 1_555 1_555
H3_18 C5_18 1_555 1_555
C6_18 N2_18 1_555 1_555
H4_18 C6_18 1_555 1_555
H5_18 C6_18 1_555 1_555
C2_18 C3_18 1_555 1_555
C3_18 C5_18 1_555 1_555

#END
