
###############################################################################
#
# This file contains modified crystal structure data generated from the
# MOF subset of the Cambridge Structural Database (CSD) v543 
# hosted by the Cambridge Crystallographic Data Centre (CCDC).
#
# This work is licensed under the Creative Commons
# Attribution-NonCommercial-ShareAlike 4.0 International License.
# To view a copy of this license, visit
# http://creativecommons.org/licenses/by-nc-sa/4.0/
# or send a letter to
# Creative Commons, PO Box 1866, Mountain View, CA 94042, USA.
#
# CIF created using the CSD Python API on 29 September 2022
# The structure has been converted into the P1 space group
# The structure has a 3D framework
# The original CSD entry VUWTIT is in the rhombohedral crystal system
# The framework has been calculated to contain at least 10.0% void space
# The void calculation uses a probe of radius 1.32A, grid spacing 0.4
#
###############################################################################

data_VUWTIT
_chemical_formula_moiety         '(C108 H90 N54 O49 Zn11)n'
_symmetry_cell_setting           triclinic
_symmetry_space_group_name_H-M   'P 1'
_symmetry_Int_Tables_number      1
_space_group_name_Hall           'P 1'
loop_
_symmetry_equiv_pos_site_id
_symmetry_equiv_pos_as_xyz
1 x,y,z
_cell_length_a                   26.6208(13)
_cell_length_b                   26.6208(13)
_cell_length_c                   10.1543(4)
_cell_angle_alpha                90
_cell_angle_beta                 90
_cell_angle_gamma                120
_cell_volume                     6231.93
loop_
_atom_site_label
_atom_site_type_symbol
_atom_site_fract_x
_atom_site_fract_y
_atom_site_fract_z
Zn3 Zn 0.69484(5) 0.00948(7) 0.18508(13)
Zn4 Zn 0.36150(5) 0.01869(5) 0.01842(13)
N4 N 0.6838(7) 0.0549(4) 0.7977(8)
O1 O 0.3192(4) 0.9178(3) 0.2125(6)
N1 N 0.5953(4) 0.9486(4) 0.0041(8)
O2 O 0.4434(3) 0.8874(3) 0.2879(7)
N2 N 0.4141(4) 0.8748(4) 0.0745(8)
N3 N 0.6118(4) 0.9623(6) 0.1310(8)
O3 O 0.3792(3) 0.9559(3) 0.0408(7)
C1 C 0.3522(6) 0.9166(4) 0.1234(10)
C2 C 0.4556(5) 0.8916(5) 0.1704(10)
C3 C 0.5378(5) 0.9206(5) 0.0002(11)
C4 C 0.5168(5) 0.9170(5) 0.1266(11)
C5 C 0.3560(5) 0.8617(5) 0.1100(11)
H3 H 0.3448 0.8403 0.1944
H4 H 0.3284 0.8365 0.0416
C6 C 0.5635(5) 0.9419(4) 0.2040(11)
H5 H 0.5627 0.9446 0.2972
Zn2 Zn 0.32385(7) 0.97183(5) 0.35175(13)
Zn1 Zn 0.64798(5) 0.97183(5) 0.85175(13)
H1 H 0.4226 0.8720 0.9921
H2 H 0.5147 0.9056 0.9232
O4 O 0.5986(5) 0.9178(3) 0.7125(6)
O5 O 0.7108(3) 0.9541(3) 0.8741(7)
O1_2 O 0.0822(3) 0.4014(5) 0.2125(6)
N1_2 N 0.0514(4) 0.6467(6) 0.0041(8)
O2_2 O 0.1126(3) 0.5560(4) 0.2879(7)
N2_2 N 0.1252(4) 0.5393(6) 0.0745(8)
N3_2 N 0.0377(6) 0.6495(7) 0.1310(8)
O3_2 O 0.0441(3) 0.4233(4) 0.0408(7)
C1_2 C 0.0834(4) 0.4356(7) 0.1234(10)
C2_2 C 0.1084(5) 0.5640(7) 0.1704(10)
C3_2 C 0.0794(5) 0.6172(7) 0.0002(11)
C4_2 C 0.0830(5) 0.5998(7) 0.1266(11)
C5_2 C 0.1383(5) 0.4943(7) 0.1100(11)
H3_2 H 0.1597 0.5045 0.1944
H4_2 H 0.1635 0.4919 0.0416
C6_2 C 0.0581(4) 0.6216(6) 0.2040(11)
H5_2 H 0.0554 0.6181 0.2972
Zn2_2 Zn 0.02817(5) 0.35202(9) 0.35175(13)
Zn1_2 Zn 0.02817(5) 0.67615(7) 0.85175(13)
H1_2 H 0.1280 0.5506 0.9921
H2_2 H 0.0944 0.6091 0.9232
O4_2 O 0.0822(3) 0.6808(6) 0.7125(6)
O5_2 O 0.0459(3) 0.7566(4) 0.8741(7)
Zn3_2 Zn 0.99052(7) 0.68535(9) 0.18508(13)
Zn4_2 Zn 0.98131(5) 0.34282(7) 0.01842(13)
N4_2 N 0.9451(4) 0.6290(8) 0.7977(8)
O1_3 O 0.5986(5) 0.6808(4) 0.2125(6)
N1_3 N 0.3533(6) 0.4047(4) 0.0041(8)
O2_3 O 0.4440(4) 0.5566(3) 0.2879(7)
N2_3 N 0.4607(6) 0.5859(4) 0.0745(8)
N3_3 N 0.3505(7) 0.3882(4) 0.1310(8)
O3_3 O 0.5767(4) 0.6208(3) 0.0408(7)
C1_3 C 0.5644(7) 0.6478(6) 0.1234(10)
C2_3 C 0.4360(7) 0.5444(5) 0.1704(10)
C3_3 C 0.3828(7) 0.4622(5) 0.0002(11)
C4_3 C 0.4002(7) 0.4832(5) 0.1266(11)
C5_3 C 0.5057(7) 0.6440(5) 0.1100(11)
H3_3 H 0.4955 0.6552 0.1944
H4_3 H 0.5081 0.6716 0.0416
C6_3 C 0.3784(6) 0.4365(5) 0.2040(11)
H5_3 H 0.3819 0.4373 0.2972
Zn2_3 Zn 0.64798(9) 0.67615(7) 0.35175(13)
Zn3_3 Zn 0.31465(9) 0.30516(5) 0.18508(13)
Zn4_3 Zn 0.65718(7) 0.63850(5) 0.01842(13)
Zn1_3 Zn 0.32385(7) 0.35202(5) 0.85175(13)
H1_3 H 0.4494 0.5774 0.9921
H2_3 H 0.3909 0.4853 0.9232
O4_3 O 0.3192(6) 0.4014(5) 0.7125(6)
N4_3 N 0.3710(8) 0.3162(7) 0.7977(8)
O5_3 O 0.2434(4) 0.2892(3) 0.8741(7)
Zn3_4 Zn 0.31465(9) 0.00948(7) 0.68508(13)
Zn4_4 Zn 0.65718(7) 0.01869(5) 0.51842(13)
N4_4 N 0.3710(8) 0.0549(4) 0.2977(8)
N1_4 N 0.3533(6) 0.9486(4) 0.5041(8)
O2_4 O 0.4440(4) 0.8874(3) 0.7879(7)
N2_4 N 0.4607(6) 0.8748(4) 0.5745(8)
H1_4 H 0.4494 0.8720 0.4921
N3_4 N 0.3505(7) 0.9623(6) 0.6310(8)
O3_4 O 0.5767(4) 0.9559(3) 0.5408(7)
C1_4 C 0.5644(7) 0.9166(4) 0.6234(10)
C2_4 C 0.4360(7) 0.8916(5) 0.6704(10)
C3_4 C 0.3828(7) 0.9206(5) 0.5002(11)
H2_4 H 0.3909 0.9056 0.4232
C4_4 C 0.4002(7) 0.9170(5) 0.6266(11)
C5_4 C 0.5057(7) 0.8617(5) 0.6100(11)
H3_4 H 0.4955 0.8403 0.6944
H4_4 H 0.5081 0.8365 0.5416
C6_4 C 0.3784(6) 0.9419(4) 0.7040(11)
H5_4 H 0.3819 0.9446 0.7972
O5_4 O 0.2434(4) 0.9541(3) 0.3741(7)
N1_5 N 0.5953(4) 0.6467(6) 0.5041(8)
O2_5 O 0.4434(3) 0.5560(4) 0.7879(7)
N2_5 N 0.4141(4) 0.5393(6) 0.5745(8)
H1_5 H 0.4226 0.5506 0.4921
N3_5 N 0.6118(4) 0.6495(7) 0.6310(8)
O3_5 O 0.3792(3) 0.4233(4) 0.5408(7)
C1_5 C 0.3522(6) 0.4356(7) 0.6234(10)
C2_5 C 0.4556(5) 0.5640(7) 0.6704(10)
C3_5 C 0.5378(5) 0.6172(7) 0.5002(11)
H2_5 H 0.5147 0.6091 0.4232
C4_5 C 0.5168(5) 0.5998(7) 0.6266(11)
C5_5 C 0.3560(5) 0.4943(7) 0.6100(11)
H3_5 H 0.3448 0.5045 0.6944
H4_5 H 0.3284 0.4919 0.5416
C6_5 C 0.5635(5) 0.6216(6) 0.7040(11)
H5_5 H 0.5627 0.6181 0.7972
Zn3_5 Zn 0.69484(5) 0.68535(9) 0.68508(13)
Zn4_5 Zn 0.36150(5) 0.34282(7) 0.51842(13)
N4_5 N 0.6838(7) 0.6290(8) 0.2977(8)
O5_5 O 0.7108(3) 0.7566(4) 0.3741(7)
N1_6 N 0.0514(4) 0.4047(4) 0.5041(8)
O2_6 O 0.1126(3) 0.5566(3) 0.7879(7)
N2_6 N 0.1252(4) 0.5859(4) 0.5745(8)
H1_6 H 0.1280 0.5774 0.4921
N3_6 N 0.0377(6) 0.3882(4) 0.6310(8)
O3_6 O 0.0441(3) 0.6208(3) 0.5408(7)
C1_6 C 0.0834(4) 0.6478(6) 0.6234(10)
C2_6 C 0.1084(5) 0.5444(5) 0.6704(10)
C3_6 C 0.0794(5) 0.4622(5) 0.5002(11)
H2_6 H 0.0944 0.4853 0.4232
C4_6 C 0.0830(5) 0.4832(5) 0.6266(11)
C5_6 C 0.1383(5) 0.6440(5) 0.6100(11)
H3_6 H 0.1597 0.6552 0.6944
H4_6 H 0.1635 0.6716 0.5416
C6_6 C 0.0581(4) 0.4365(5) 0.7040(11)
H5_6 H 0.0554 0.4373 0.7972
O5_6 O 0.0459(3) 0.2892(3) 0.3741(7)
Zn3_6 Zn 0.99052(7) 0.30516(5) 0.68508(13)
Zn4_6 Zn 0.98131(5) 0.63850(5) 0.51842(13)
N4_6 N 0.9451(4) 0.3162(7) 0.2977(8)
N1_7 N 0.2620(4) 0.2819(4) 0.3374(8)
O2_7 O 0.1101(3) 0.2207(3) 0.6212(7)
N2_7 N 0.0808(4) 0.2081(4) 0.4078(8)
H1_7 H 0.0893 0.2053 0.3254
N3_7 N 0.2785(4) 0.2956(6) 0.4643(8)
C1_7 C 0.0189(6) 0.2499(4) 0.4567(10)
C2_7 C 0.1223(5) 0.2249(5) 0.5037(10)
C3_7 C 0.2045(5) 0.2539(5) 0.3335(11)
H2_7 H 0.1814 0.2389 0.2565
C4_7 C 0.1835(5) 0.2503(5) 0.4599(11)
C5_7 C 0.0227(5) 0.1950(5) 0.4433(11)
H3_7 H 0.0115 0.1736 0.5277
C6_7 C 0.2302(5) 0.2752(4) 0.5373(11)
H5_7 H 0.2294 0.2779 0.6305
O4_4 O 0.2653(5) 0.2511(3) 0.0458(6)
O5_7 O 0.3774(3) 0.2875(3) 0.2075(7)
O1_4 O 0.9859(4) 0.2511(3) 0.5458(6)
H4_7 H 0.9951 0.1698 0.3749
O4_5 O 0.7489(3) 0.0141(6) 0.0458(6)
O5_8 O 0.7125(3) 0.0900(4) 0.2075(7)
O1_5 O 0.7489(3) 0.7347(5) 0.5458(6)
N1_8 N 0.7181(4) 0.9800(6) 0.3374(8)
O2_8 O 0.7793(3) 0.8893(4) 0.6212(7)
N2_8 N 0.7919(4) 0.8726(6) 0.4078(8)
H1_8 H 0.7947 0.8839 0.3254
N3_8 N 0.7044(6) 0.9828(7) 0.4643(8)
C1_8 C 0.7501(4) 0.7689(7) 0.4567(10)
C2_8 C 0.7751(5) 0.8973(7) 0.5037(10)
C3_8 C 0.7461(5) 0.9505(7) 0.3335(11)
H2_8 H 0.7611 0.9424 0.2565
C4_8 C 0.7497(5) 0.9331(7) 0.4599(11)
C5_8 C 0.8050(5) 0.8276(7) 0.4433(11)
H3_8 H 0.8264 0.8378 0.5277
H4_8 H 0.8302 0.8252 0.3749
C6_8 C 0.7248(4) 0.9549(6) 0.5373(11)
H5_8 H 0.7221 0.9514 0.6305
O1_6 O 0.2653(5) 0.0141(4) 0.5458(6)
H4_9 H 0.1748 0.0049 0.3749
N1_9 N 0.0200(6) 0.7380(4) 0.3374(8)
O2_9 O 0.1107(4) 0.8899(3) 0.6212(7)
N2_9 N 0.1274(6) 0.9192(4) 0.4078(8)
H1_9 H 0.1161 0.9107 0.3254
N3_9 N 0.0172(7) 0.7215(4) 0.4643(8)
C1_9 C 0.2311(7) 0.9811(6) 0.4567(10)
C2_9 C 0.1027(7) 0.8777(5) 0.5037(10)
C3_9 C 0.0495(7) 0.7955(5) 0.3335(11)
H2_9 H 0.0576 0.8186 0.2565
C4_9 C 0.0669(7) 0.8165(5) 0.4599(11)
C5_9 C 0.1724(7) 0.9773(5) 0.4433(11)
H3_9 H 0.1622 0.9885 0.5277
C6_9 C 0.0451(6) 0.7698(5) 0.5373(11)
H5_9 H 0.0486 0.7706 0.6305
O4_6 O 0.9859(6) 0.7347(5) 0.0458(6)
O5_9 O 0.9100(4) 0.6226(3) 0.2075(7)
O2_10 O 0.1107(4) 0.2207(3) 0.1212(7)
C2_10 C 0.1027(7) 0.2249(5) 0.0037(10)
H3_10 H 0.1622 0.1736 0.0277
C6_10 C 0.0451(6) 0.2752(4) 0.0373(11)
H5_10 H 0.0486 0.2779 0.1305
N1_10 N 0.0200(6) 0.2819(4) 0.8374(8)
N2_10 N 0.1274(6) 0.2081(4) 0.9078(8)
H1_10 H 0.1161 0.2053 0.8254
N3_10 N 0.0172(7) 0.2956(6) 0.9643(8)
C1_10 C 0.2311(7) 0.2499(4) 0.9567(10)
C3_10 C 0.0495(7) 0.2539(5) 0.8335(11)
H2_10 H 0.0576 0.2389 0.7565
C4_10 C 0.0669(7) 0.2503(5) 0.9599(11)
C5_10 C 0.1724(7) 0.1950(5) 0.9433(11)
H4_10 H 0.1748 0.1698 0.8749
O5_10 O 0.9100(4) 0.2875(3) 0.7075(7)
O5_11 O 0.3774(3) 0.0900(4) 0.7075(7)
N1_11 N 0.2620(4) 0.9800(6) 0.8374(8)
N2_11 N 0.0808(4) 0.8726(6) 0.9078(8)
H1_11 H 0.0893 0.8839 0.8254
N3_11 N 0.2785(4) 0.9828(7) 0.9643(8)
C1_11 C 0.0189(6) 0.7689(7) 0.9567(10)
C3_11 C 0.2045(5) 0.9505(7) 0.8335(11)
H2_11 H 0.1814 0.9424 0.7565
C4_11 C 0.1835(5) 0.9331(7) 0.9599(11)
C5_11 C 0.0227(5) 0.8276(7) 0.9433(11)
O2_11 O 0.7793(3) 0.8899(3) 0.1212(7)
C2_11 C 0.7751(5) 0.8777(5) 0.0037(10)
H3_11 H 0.8264 0.9885 0.0277
C6_11 C 0.7248(4) 0.7698(5) 0.0373(11)
H5_11 H 0.7221 0.7706 0.1305
N1_12 N 0.7181(4) 0.7380(4) 0.8374(8)
N2_12 N 0.7919(4) 0.9192(4) 0.9078(8)
H1_12 H 0.7947 0.9107 0.8254
N3_12 N 0.7044(6) 0.7215(4) 0.9643(8)
C1_12 C 0.7501(4) 0.9811(6) 0.9567(10)
C3_12 C 0.7461(5) 0.7955(5) 0.8335(11)
H2_12 H 0.7611 0.8186 0.7565
C4_12 C 0.7497(5) 0.8165(5) 0.9599(11)
C5_12 C 0.8050(5) 0.9773(5) 0.9433(11)
O5_12 O 0.7125(3) 0.6226(3) 0.7075(7)
O1_7 O 0.6525(4) 0.5845(3) 0.8792(6)
N1_13 N 0.9286(4) 0.6153(4) 0.6708(8)
O2_12 O 0.7767(3) 0.5541(3) 0.9546(7)
N2_13 N 0.7474(4) 0.5415(4) 0.7412(8)
H1_13 H 0.7559 0.5387 0.6588
C1_13 C 0.6855(6) 0.5833(4) 0.7901(10)
C2_12 C 0.7889(5) 0.5583(5) 0.8371(10)
C3_13 C 0.8711(5) 0.5873(5) 0.6669(11)
H2_13 H 0.8480 0.5723 0.5899
C4_13 C 0.8501(5) 0.5837(5) 0.7933(11)
C5_13 C 0.6893(5) 0.5284(5) 0.7767(11)
H3_12 H 0.6781 0.5070 0.8611
H4_11 H 0.6617 0.5032 0.7083
C6_12 C 0.8968(5) 0.6086(4) 0.8707(11)
H5_12 H 0.8960 0.6113 0.9639
O4_7 O 0.9319(5) 0.5845(3) 0.3792(6)
O1_8 O 0.4155(3) 0.0681(5) 0.8792(6)
N1_14 N 0.3847(4) 0.3134(6) 0.6708(8)
O2_13 O 0.4459(3) 0.2227(4) 0.9546(7)
N2_14 N 0.4585(4) 0.2060(6) 0.7412(8)
H1_14 H 0.4613 0.2173 0.6588
C1_14 C 0.4167(4) 0.1023(7) 0.7901(10)
C2_13 C 0.4417(5) 0.2307(7) 0.8371(10)
C3_14 C 0.4127(5) 0.2839(7) 0.6669(11)
H2_14 H 0.4277 0.2758 0.5899
C4_14 C 0.4163(5) 0.2665(7) 0.7933(11)
C5_14 C 0.4716(5) 0.1610(7) 0.7767(11)
H3_13 H 0.4930 0.1712 0.8611
H4_12 H 0.4968 0.1586 0.7083
C6_13 C 0.3914(4) 0.2883(6) 0.8707(11)
H5_13 H 0.3887 0.2848 0.9639
O4_8 O 0.4155(3) 0.3475(6) 0.3792(6)
O1_9 O 0.9319(5) 0.3475(4) 0.8792(6)
N1_15 N 0.6866(6) 0.0714(4) 0.6708(8)
O2_14 O 0.7773(4) 0.2233(3) 0.9546(7)
N2_15 N 0.7940(6) 0.2526(4) 0.7412(8)
H1_15 H 0.7827 0.2441 0.6588
C1_15 C 0.8977(7) 0.3145(6) 0.7901(10)
C2_14 C 0.7693(7) 0.2111(5) 0.8371(10)
C3_15 C 0.7161(7) 0.1289(5) 0.6669(11)
H2_15 H 0.7242 0.1520 0.5899
C4_15 C 0.7335(7) 0.1499(5) 0.7933(11)
C5_15 C 0.8390(7) 0.3107(5) 0.7767(11)
H3_14 H 0.8288 0.3219 0.8611
H4_13 H 0.8414 0.3383 0.7083
C6_14 C 0.7117(6) 0.1032(5) 0.8707(11)
H5_14 H 0.7152 0.1040 0.9639
O4_9 O 0.6525(6) 0.0681(5) 0.3792(6)
N1_16 N 0.6866(6) 0.6153(4) 0.1708(8)
O2_15 O 0.7773(4) 0.5541(3) 0.4546(7)
N2_16 N 0.7940(6) 0.5415(4) 0.2412(8)
H1_16 H 0.7827 0.5387 0.1588
C1_16 C 0.8977(7) 0.5833(4) 0.2901(10)
C2_15 C 0.7693(7) 0.5583(5) 0.3371(10)
C3_16 C 0.7161(7) 0.5873(5) 0.1669(11)
H2_16 H 0.7242 0.5723 0.0899
C4_16 C 0.7335(7) 0.5837(5) 0.2933(11)
C5_16 C 0.8390(7) 0.5284(5) 0.2767(11)
H3_15 H 0.8288 0.5070 0.3611
H4_14 H 0.8414 0.5032 0.2083
C6_15 C 0.7117(6) 0.6086(4) 0.3707(11)
H5_15 H 0.7152 0.6113 0.4639
N1_17 N 0.9286(4) 0.3134(6) 0.1708(8)
O2_16 O 0.7767(3) 0.2227(4) 0.4546(7)
N2_17 N 0.7474(4) 0.2060(6) 0.2412(8)
H1_17 H 0.7559 0.2173 0.1588
C1_17 C 0.6855(6) 0.1023(7) 0.2901(10)
C2_16 C 0.7889(5) 0.2307(7) 0.3371(10)
C3_17 C 0.8711(5) 0.2839(7) 0.1669(11)
H2_17 H 0.8480 0.2758 0.0899
C4_17 C 0.8501(5) 0.2665(7) 0.2933(11)
C5_17 C 0.6893(5) 0.1610(7) 0.2767(11)
H3_16 H 0.6781 0.1712 0.3611
H4_15 H 0.6617 0.1586 0.2083
C6_16 C 0.8968(5) 0.2883(6) 0.3707(11)
H5_16 H 0.8960 0.2848 0.4639
N1_18 N 0.3847(4) 0.0714(4) 0.1708(8)
O2_17 O 0.4459(3) 0.2233(3) 0.4546(7)
N2_18 N 0.4585(4) 0.2526(4) 0.2412(8)
H1_18 H 0.4613 0.2441 0.1588
C1_18 C 0.4167(4) 0.3145(6) 0.2901(10)
C2_17 C 0.4417(5) 0.2111(5) 0.3371(10)
C3_18 C 0.4127(5) 0.1289(5) 0.1669(11)
H2_18 H 0.4277 0.1520 0.0899
C4_18 C 0.4163(5) 0.1499(5) 0.2933(11)
C5_18 C 0.4716(5) 0.3107(5) 0.2767(11)
H3_17 H 0.4930 0.3219 0.3611
H4_16 H 0.4968 0.3383 0.2083
C6_17 C 0.3914(4) 0.1032(5) 0.3707(11)
H5_17 H 0.3887 0.1040 0.4639
O2_18 O 0.1101(3) 0.8893(4) 0.1212(7)
C2_18 C 0.1223(5) 0.8973(7) 0.0037(10)
H3_18 H 0.0115 0.8378 0.0277
C6_18 C 0.2302(5) 0.9549(6) 0.0373(11)
H5_18 H 0.2294 0.9514 0.1305
H4_17 H 0.9951 0.8252 0.8749
H4_18 H 0.8302 0.0049 0.8749
loop_
_geom_bond_atom_site_label_1
_geom_bond_atom_site_label_2
_geom_bond_site_symmetry_1
_geom_bond_site_symmetry_2
O1 C1 1_555 1_555
N1 N3 1_555 1_555
O2 C2 1_555 1_555
N3 C6 1_555 1_555
O3 C1 1_555 1_555
C1 C5 1_555 1_555
C2 N2 1_555 1_555
C3 N1 1_555 1_555
C4 C2 1_555 1_555
C5 N2 1_555 1_555
H3 C5 1_555 1_555
H4 C5 1_555 1_555
C6 C4 1_555 1_555
H5 C6 1_555 1_555
Zn2 O1 1_555 1_555
C3 C4 1_555 1_555
O4 Zn1 1_555 1_555
O5 Zn1 1_555 1_555
O1_2 C1_2 1_555 1_555
N1_2 N3_2 1_555 1_555
O2_2 C2_2 1_555 1_555
N3_2 C6_2 1_555 1_555
O3_2 C1_2 1_555 1_555
C1_2 C5_2 1_555 1_555
C2_2 N2_2 1_555 1_555
C3_2 N1_2 1_555 1_555
C4_2 C2_2 1_555 1_555
C5_2 N2_2 1_555 1_555
H3_2 C5_2 1_555 1_555
H4_2 C5_2 1_555 1_555
C6_2 C4_2 1_555 1_555
H5_2 C6_2 1_555 1_555
Zn2_2 O1_2 1_555 1_555
C3_2 C4_2 1_555 1_555
O4_2 Zn1_2 1_555 1_555
O5_2 Zn1_2 1_555 1_555
O1_3 C1_3 1_555 1_555
N1_3 N3_3 1_555 1_555
O2_3 C2_3 1_555 1_555
N3_3 C6_3 1_555 1_555
O3_3 C1_3 1_555 1_555
C1_3 C5_3 1_555 1_555
C2_3 N2_3 1_555 1_555
C3_3 N1_3 1_555 1_555
C4_3 C2_3 1_555 1_555
C5_3 N2_3 1_555 1_555
H3_3 C5_3 1_555 1_555
H4_3 C5_3 1_555 1_555
C6_3 C4_3 1_555 1_555
H5_3 C6_3 1_555 1_555
Zn2_3 O1_3 1_555 1_555
Zn3_3 N3_3 1_555 1_555
Zn4_3 O3_3 1_555 1_555
C3_3 C4_3 1_555 1_555
O4_3 Zn1_3 1_555 1_555
N4_3 Zn1_3 1_555 1_555
O5_3 Zn1_3 1_555 1_555
Zn2 N1_4 1_555 1_555
O4 C1_4 1_555 1_555
N1_4 N3_4 1_555 1_555
O2_4 C2_4 1_555 1_555
N2_4 H1_4 1_555 1_555
N3_4 C6_4 1_555 1_555
O3_4 C1_4 1_555 1_555
C1_4 C5_4 1_555 1_555
C2_4 N2_4 1_555 1_555
C3_4 N1_4 1_555 1_555
H2_4 C3_4 1_555 1_555
C4_4 C2_4 1_555 1_555
C5_4 N2_4 1_555 1_555
H3_4 C5_4 1_555 1_555
H4_4 C5_4 1_555 1_555
C6_4 C4_4 1_555 1_555
H5_4 C6_4 1_555 1_555
O5_4 Zn2 1_555 1_555
C3_4 C4_4 1_555 1_555
Zn2_3 N1_5 1_555 1_555
O4_3 C1_5 1_555 1_555
N1_5 N3_5 1_555 1_555
O2_5 C2_5 1_555 1_555
N2_5 H1_5 1_555 1_555
N3_5 C6_5 1_555 1_555
O3_5 C1_5 1_555 1_555
C1_5 C5_5 1_555 1_555
C2_5 N2_5 1_555 1_555
C3_5 N1_5 1_555 1_555
H2_5 C3_5 1_555 1_555
C4_5 C2_5 1_555 1_555
C5_5 N2_5 1_555 1_555
H3_5 C5_5 1_555 1_555
H4_5 C5_5 1_555 1_555
C6_5 C4_5 1_555 1_555
H5_5 C6_5 1_555 1_555
Zn3_5 N3_5 1_555 1_555
Zn4_5 O3_5 1_555 1_555
N4_5 Zn2_3 1_555 1_555
O5_5 Zn2_3 1_555 1_555
C3_5 C4_5 1_555 1_555
Zn2_2 N1_6 1_555 1_555
O4_2 C1_6 1_555 1_555
N1_6 N3_6 1_555 1_555
O2_6 C2_6 1_555 1_555
N2_6 H1_6 1_555 1_555
N3_6 C6_6 1_555 1_555
O3_6 C1_6 1_555 1_555
C1_6 C5_6 1_555 1_555
C2_6 N2_6 1_555 1_555
C3_6 N1_6 1_555 1_555
H2_6 C3_6 1_555 1_555
C4_6 C2_6 1_555 1_555
C5_6 N2_6 1_555 1_555
H3_6 C5_6 1_555 1_555
H4_6 C5_6 1_555 1_555
C6_6 C4_6 1_555 1_555
H5_6 C6_6 1_555 1_555
O5_6 Zn2_2 1_555 1_555
C3_6 C4_6 1_555 1_555
Zn3_3 N1_7 1_555 1_555
N1_7 N3_7 1_555 1_555
O2_7 C2_7 1_555 1_555
N2_7 H1_7 1_555 1_555
N3_7 C6_7 1_555 1_555
O5_6 C1_7 1_555 1_555
C1_7 C5_7 1_555 1_555
C2_7 N2_7 1_555 1_555
C3_7 N1_7 1_555 1_555
H2_7 C3_7 1_555 1_555
C4_7 C2_7 1_555 1_555
C5_7 N2_7 1_555 1_555
H3_7 C5_7 1_555 1_555
C6_7 C4_7 1_555 1_555
H5_7 C6_7 1_555 1_555
Zn4_5 N3_7 1_555 1_555
O4_4 Zn3_3 1_555 1_555
O5_7 Zn3_3 1_555 1_555
C3_7 C4_7 1_555 1_555
Zn3_6 O1_4 1_555 1_555
O4_5 Zn3 1_555 1_555
O5_8 Zn3 1_555 1_555
O1_5 C1_8 1_555 1_555
N1_8 N3_8 1_555 1_555
O2_8 C2_8 1_555 1_555
N2_8 H1_8 1_555 1_555
N3_8 C6_8 1_555 1_555
O5_5 C1_8 1_555 1_555
C1_8 C5_8 1_555 1_555
C2_8 N2_8 1_555 1_555
C3_8 N1_8 1_555 1_555
H2_8 C3_8 1_555 1_555
C4_8 C2_8 1_555 1_555
C5_8 N2_8 1_555 1_555
H3_8 C5_8 1_555 1_555
H4_8 C5_8 1_555 1_555
C6_8 C4_8 1_555 1_555
H5_8 C6_8 1_555 1_555
Zn3_5 O1_5 1_555 1_555
C3_8 C4_8 1_555 1_555
Zn3_4 O1_6 1_555 1_555
N1_9 N3_9 1_555 1_555
O2_9 C2_9 1_555 1_555
N2_9 H1_9 1_555 1_555
N3_9 C6_9 1_555 1_555
O5_4 C1_9 1_555 1_555
C1_9 C5_9 1_555 1_555
C2_9 N2_9 1_555 1_555
C3_9 N1_9 1_555 1_555
H2_9 C3_9 1_555 1_555
C4_9 C2_9 1_555 1_555
C5_9 N2_9 1_555 1_555
H3_9 C5_9 1_555 1_555
C6_9 C4_9 1_555 1_555
H5_9 C6_9 1_555 1_555
C3_9 C4_9 1_555 1_555
O4_6 Zn3_2 1_555 1_555
O5_9 Zn3_2 1_555 1_555
O2_10 C2_10 1_555 1_555
H5_10 C6_10 1_555 1_555
N1_10 N3_10 1_555 1_555
N2_10 H1_10 1_555 1_555
O5_3 C1_10 1_555 1_555
C1_10 C5_10 1_555 1_555
C3_10 N1_10 1_555 1_555
H2_10 C3_10 1_555 1_555
C5_10 N2_10 1_555 1_555
H4_10 C5_10 1_555 1_555
C3_10 C4_10 1_555 1_555
O5_10 Zn3_6 1_555 1_555
O5_11 Zn3_4 1_555 1_555
N1_11 N3_11 1_555 1_555
N2_11 H1_11 1_555 1_555
O5_2 C1_11 1_555 1_555
C1_11 C5_11 1_555 1_555
C3_11 N1_11 1_555 1_555
H2_11 C3_11 1_555 1_555
C5_11 N2_11 1_555 1_555
C3_11 C4_11 1_555 1_555
O2_11 C2_11 1_555 1_555
H5_11 C6_11 1_555 1_555
Zn3_5 N1_12 1_555 1_555
N1_12 N3_12 1_555 1_555
N2_12 H1_12 1_555 1_555
O5 C1_12 1_555 1_555
C1_12 C5_12 1_555 1_555
C3_12 N1_12 1_555 1_555
H2_12 C3_12 1_555 1_555
C5_12 N2_12 1_555 1_555
O5_12 Zn3_5 1_555 1_555
C3_12 C4_12 1_555 1_555
Zn4_6 N1_13 1_555 1_555
O1_7 C1_13 1_555 1_555
N1_13 N4_2 1_555 1_555
O2_12 C2_12 1_555 1_555
N2_13 H1_13 1_555 1_555
N4_2 C6_12 1_555 1_555
O5_12 C1_13 1_555 1_555
C1_13 C5_13 1_555 1_555
C2_12 N2_13 1_555 1_555
C3_13 N1_13 1_555 1_555
H2_13 C3_13 1_555 1_555
C4_13 C2_12 1_555 1_555
C5_13 N2_13 1_555 1_555
H3_12 C5_13 1_555 1_555
H4_11 C5_13 1_555 1_555
C6_12 C4_13 1_555 1_555
H5_12 C6_12 1_555 1_555
O4_7 Zn4_6 1_555 1_555
C3_13 C4_13 1_555 1_555
Zn4_5 N1_14 1_555 1_555
O1_8 C1_14 1_555 1_555
N1_14 N4_3 1_555 1_555
O2_13 C2_13 1_555 1_555
N2_14 H1_14 1_555 1_555
N4_3 C6_13 1_555 1_555
O5_11 C1_14 1_555 1_555
C1_14 C5_14 1_555 1_555
C2_13 N2_14 1_555 1_555
C3_14 N1_14 1_555 1_555
H2_14 C3_14 1_555 1_555
C4_14 C2_13 1_555 1_555
C5_14 N2_14 1_555 1_555
H3_13 C5_14 1_555 1_555
H4_12 C5_14 1_555 1_555
C6_13 C4_14 1_555 1_555
H5_13 C6_13 1_555 1_555
O4_8 Zn4_5 1_555 1_555
C3_14 C4_14 1_555 1_555
Zn4_4 N1_15 1_555 1_555
O1_9 C1_15 1_555 1_555
N1_15 N4 1_555 1_555
O2_14 C2_14 1_555 1_555
N2_15 H1_15 1_555 1_555
N4 C6_14 1_555 1_555
O5_10 C1_15 1_555 1_555
C1_15 C5_15 1_555 1_555
C2_14 N2_15 1_555 1_555
C3_15 N1_15 1_555 1_555
H2_15 C3_15 1_555 1_555
C4_15 C2_14 1_555 1_555
C5_15 N2_15 1_555 1_555
H3_14 C5_15 1_555 1_555
H4_13 C5_15 1_555 1_555
C6_14 C4_15 1_555 1_555
H5_14 C6_14 1_555 1_555
O4_9 Zn4_4 1_555 1_555
C3_15 C4_15 1_555 1_555
Zn4_3 N1_16 1_555 1_555
O4_7 C1_16 1_555 1_555
N1_16 N4_5 1_555 1_555
O2_15 C2_15 1_555 1_555
N2_16 H1_16 1_555 1_555
N4_5 C6_15 1_555 1_555
O5_9 C1_16 1_555 1_555
C1_16 C5_16 1_555 1_555
C2_15 N2_16 1_555 1_555
C3_16 N1_16 1_555 1_555
H2_16 C3_16 1_555 1_555
C4_16 C2_15 1_555 1_555
C5_16 N2_16 1_555 1_555
H3_15 C5_16 1_555 1_555
H4_14 C5_16 1_555 1_555
C6_15 C4_16 1_555 1_555
H5_15 C6_15 1_555 1_555
C3_16 C4_16 1_555 1_555
Zn4_2 N1_17 1_555 1_555
O4_9 C1_17 1_555 1_555
N1_17 N4_6 1_555 1_555
O2_16 C2_16 1_555 1_555
N2_17 H1_17 1_555 1_555
N4_6 C6_16 1_555 1_555
O5_8 C1_17 1_555 1_555
C1_17 C5_17 1_555 1_555
C2_16 N2_17 1_555 1_555
C3_17 N1_17 1_555 1_555
H2_17 C3_17 1_555 1_555
C4_17 C2_16 1_555 1_555
C5_17 N2_17 1_555 1_555
H3_16 C5_17 1_555 1_555
H4_15 C5_17 1_555 1_555
C6_16 C4_17 1_555 1_555
H5_16 C6_16 1_555 1_555
C3_17 C4_17 1_555 1_555
Zn4 N1_18 1_555 1_555
O4_8 C1_18 1_555 1_555
N1_18 N4_4 1_555 1_555
O2_17 C2_17 1_555 1_555
N2_18 H1_18 1_555 1_555
N4_4 C6_17 1_555 1_555
O5_7 C1_18 1_555 1_555
C1_18 C5_18 1_555 1_555
C2_17 N2_18 1_555 1_555
C3_18 N1_18 1_555 1_555
H2_18 C3_18 1_555 1_555
C4_18 C2_17 1_555 1_555
C5_18 N2_18 1_555 1_555
H3_17 C5_18 1_555 1_555
H4_16 C5_18 1_555 1_555
C6_17 C4_18 1_555 1_555
H5_17 C6_17 1_555 1_555
C3_18 C4_18 1_555 1_555
O2_18 C2_18 1_555 1_555
H5_18 C6_18 1_555 1_555

#END
