
###############################################################################
#
# This file contains modified crystal structure data generated from the
# MOF subset of the Cambridge Structural Database (CSD) v543 
# hosted by the Cambridge Crystallographic Data Centre (CCDC).
#
# This work is licensed under the Creative Commons
# Attribution-NonCommercial-ShareAlike 4.0 International License.
# To view a copy of this license, visit
# http://creativecommons.org/licenses/by-nc-sa/4.0/
# or send a letter to
# Creative Commons, PO Box 1866, Mountain View, CA 94042, USA.
#
# CIF created using the CSD Python API on 29 September 2022
# The structure has been converted into the P1 space group
# The structure has a 3D framework
# The original CSD entry VUWTOZ is in the rhombohedral crystal system
# The framework has been calculated to contain at least 10.0% void space
# The void calculation uses a probe of radius 1.32A, grid spacing 0.4
#
###############################################################################

data_VUWTOZ
_chemical_formula_moiety         '(C108 H90 N54 O49 Zn14)n'
_symmetry_cell_setting           triclinic
_symmetry_space_group_name_H-M   'P 1'
_symmetry_Int_Tables_number      1
_space_group_name_Hall           'P 1'
loop_
_symmetry_equiv_pos_site_id
_symmetry_equiv_pos_as_xyz
1 x,y,z
_cell_length_a                   27.7811(8)
_cell_length_b                   27.7811(8)
_cell_length_c                   10.1270(3)
_cell_angle_alpha                90
_cell_angle_beta                 90
_cell_angle_gamma                120
_cell_volume                     6768.78
loop_
_atom_site_label
_atom_site_type_symbol
_atom_site_fract_x
_atom_site_fract_y
_atom_site_fract_z
Zn1 Zn 0.35874(3) 0.01937(3) 0.33632(9)
O1 O 0.4089(2) 0.3394(2) 0.6965(5)
O2 O 0.3673(2) 0.2819(2) 0.5265(5)
O3 O 0.4287(3) 0.2156(2) 0.7714(5)
N1 N 0.4412(3) 0.2425(2) 0.5566(6)
H1 H 0.4412 0.2337 0.4752
N2 N 0.3788(2) 0.0696(2) 0.4883(6)
N3 N 0.3666(3) 0.0534(3) 0.6172(6)
C1 C 0.4068(3) 0.1462(3) 0.6095(7)
C2 C 0.3828(3) 0.0994(3) 0.6901(7)
H2 H 0.3786 0.0998 0.7811
C3 C 0.4567(3) 0.2987(3) 0.5913(7)
H3 H 0.4810 0.3237 0.5235
H4 H 0.4772 0.3085 0.6737
C4 C 0.4033(3) 0.1244(3) 0.4835(7)
H5 H 0.4163 0.1455 0.4068
C5 C 0.4265(3) 0.2035(3) 0.6521(7)
C6 C 0.4069(3) 0.3066(3) 0.6061(7)
Zn2 Zn 0.35874(3) 0.33937(4) 0.83632(9)
Zn4 Zn 0.31396(3) 0.30793(3) 0.50299(9)
O4 O 0.4089(2) 0.0695(3) 0.1965(5)
Zn3 Zn 0.32730(4) 0.97459(3) 0.66965(9)
O5 O 0.3848(2) 0.9660(2) 0.3598(5)
N4 N 0.2799(3) 0.9799(4) 0.2839(6)
Zn3_2 Zn 0.02541(3) 0.35270(5) 0.66965(9)
O5_2 O 0.0340(2) 0.4187(3) 0.3598(5)
N4_2 N 0.0201(4) 0.3001(5) 0.2839(6)
Zn1_2 Zn 0.98063(3) 0.33937(4) 0.33632(9)
O1_2 O 0.6606(2) 0.0695(3) 0.6965(5)
O2_2 O 0.7181(2) 0.0854(3) 0.5265(5)
O3_2 O 0.7844(2) 0.2131(4) 0.7714(5)
N1_2 N 0.7575(2) 0.1987(4) 0.5566(6)
H1_2 H 0.7663 0.2075 0.4752
N2_2 N 0.9304(2) 0.3092(3) 0.4883(6)
N3_2 N 0.9466(3) 0.3132(4) 0.6172(6)
C1_2 C 0.8538(3) 0.2606(4) 0.6095(7)
C2_2 C 0.9006(3) 0.2834(4) 0.6901(7)
H2_2 H 0.9002 0.2788 0.7811
C3_2 C 0.7013(3) 0.1580(4) 0.5913(7)
H3_2 H 0.6763 0.1573 0.5235
H4_2 H 0.6915 0.1687 0.6737
C4_2 C 0.8756(3) 0.2789(4) 0.4835(7)
H5_2 H 0.8545 0.2708 0.4068
C5_2 C 0.7965(3) 0.2230(4) 0.6521(7)
C6_2 C 0.6934(3) 0.1003(4) 0.6061(7)
Zn2_2 Zn 0.66063(4) 0.01937(5) 0.83632(9)
Zn4_2 Zn 0.69207(3) 0.00604(4) 0.50299(9)
O4_2 O 0.9305(3) 0.3394(4) 0.1965(5)
Zn1_3 Zn 0.66063(4) 0.64126(3) 0.33632(9)
O1_3 O 0.9305(3) 0.5911(2) 0.6965(5)
O2_3 O 0.9146(3) 0.6327(2) 0.5265(5)
O3_3 O 0.7869(4) 0.5713(3) 0.7714(5)
N1_3 N 0.8013(4) 0.5588(3) 0.5566(6)
H1_3 H 0.7925 0.5588 0.4752
N2_3 N 0.6908(3) 0.6212(2) 0.4883(6)
N3_3 N 0.6868(4) 0.6334(3) 0.6172(6)
C1_3 C 0.7394(4) 0.5932(3) 0.6095(7)
C2_3 C 0.7166(4) 0.6172(3) 0.6901(7)
H2_3 H 0.7212 0.6214 0.7811
C3_3 C 0.8420(4) 0.5433(3) 0.5913(7)
H3_3 H 0.8427 0.5190 0.5235
H4_3 H 0.8313 0.5228 0.6737
C4_3 C 0.7211(4) 0.5967(3) 0.4835(7)
H5_3 H 0.7292 0.5837 0.4068
C5_3 C 0.7770(4) 0.5735(3) 0.6521(7)
C6_3 C 0.8997(4) 0.5931(3) 0.6061(7)
Zn2_3 Zn 0.98063(5) 0.64126(3) 0.83632(9)
Zn3_3 Zn 0.64730(5) 0.67270(4) 0.66965(9)
Zn4_3 Zn 0.99396(4) 0.68604(3) 0.50299(9)
O4_3 O 0.6606(4) 0.5911(2) 0.1965(5)
O5_3 O 0.5813(3) 0.6152(2) 0.3598(5)
N4_3 N 0.6999(5) 0.7201(3) 0.2839(6)
Zn3_4 Zn 0.02541(3) 0.67270(4) 0.16965(9)
O5_4 O 0.0340(2) 0.6152(2) 0.8598(5)
N4_4 N 0.0201(4) 0.7201(3) 0.7839(6)
O2_4 O 0.7181(2) 0.6327(2) 0.0265(5)
O3_4 O 0.7844(2) 0.5713(3) 0.2714(5)
N1_4 N 0.7575(2) 0.5588(3) 0.0566(6)
N3_4 N 0.9466(3) 0.6334(3) 0.1172(6)
C1_4 C 0.8538(3) 0.5932(3) 0.1095(7)
C2_4 C 0.9006(3) 0.6172(3) 0.1901(7)
H2_4 H 0.9002 0.6214 0.2811
C3_4 C 0.7013(3) 0.5433(3) 0.0913(7)
H3_4 H 0.6763 0.5190 0.0235
H4_4 H 0.6915 0.5228 0.1737
C5_4 C 0.7965(3) 0.5735(3) 0.1521(7)
C6_4 C 0.6934(3) 0.5931(3) 0.1061(7)
Zn4_4 Zn 0.69207(3) 0.68604(3) 0.00299(9)
H1_4 H 0.7663 0.5588 0.9752
N2_4 N 0.9304(2) 0.6212(2) 0.9883(6)
C4_4 C 0.8756(3) 0.5967(3) 0.9835(7)
H5_4 H 0.8545 0.5837 0.9068
O2_5 O 0.9146(3) 0.2819(2) 0.0265(5)
O3_5 O 0.7869(4) 0.2156(2) 0.2714(5)
N1_5 N 0.8013(4) 0.2425(2) 0.0566(6)
N3_5 N 0.6868(4) 0.0534(3) 0.1172(6)
C1_5 C 0.7394(4) 0.1462(3) 0.1095(7)
C2_5 C 0.7166(4) 0.0994(3) 0.1901(7)
H2_5 H 0.7212 0.0998 0.2811
C3_5 C 0.8420(4) 0.2987(3) 0.0913(7)
H3_5 H 0.8427 0.3237 0.0235
H4_5 H 0.8313 0.3085 0.1737
C5_5 C 0.7770(4) 0.2035(3) 0.1521(7)
C6_5 C 0.8997(4) 0.3066(3) 0.1061(7)
Zn4_5 Zn 0.99396(4) 0.30793(3) 0.00299(9)
H1_5 H 0.7925 0.2337 0.9752
N2_5 N 0.6908(3) 0.0696(2) 0.9883(6)
C4_5 C 0.7211(4) 0.1244(3) 0.9835(7)
H5_5 H 0.7292 0.1455 0.9068
Zn3_5 Zn 0.64730(5) 0.97459(3) 0.16965(9)
O5_5 O 0.5813(3) 0.9660(2) 0.8598(5)
N4_5 N 0.6999(5) 0.9799(4) 0.7839(6)
O2_6 O 0.3673(2) 0.0854(3) 0.0265(5)
O3_6 O 0.4287(3) 0.2131(4) 0.2714(5)
N1_6 N 0.4412(3) 0.1987(4) 0.0566(6)
N3_6 N 0.3666(3) 0.3132(4) 0.1172(6)
C1_6 C 0.4068(3) 0.2606(4) 0.1095(7)
C2_6 C 0.3828(3) 0.2834(4) 0.1901(7)
H2_6 H 0.3786 0.2788 0.2811
C3_6 C 0.4567(3) 0.1580(4) 0.0913(7)
H3_6 H 0.4810 0.1573 0.0235
H4_6 H 0.4772 0.1687 0.1737
C5_6 C 0.4265(3) 0.2230(4) 0.1521(7)
C6_6 C 0.4069(3) 0.1003(4) 0.1061(7)
Zn3_6 Zn 0.32730(4) 0.35270(5) 0.16965(9)
Zn4_6 Zn 0.31396(3) 0.00604(4) 0.00299(9)
H1_6 H 0.4412 0.2075 0.9752
N2_6 N 0.3788(2) 0.3092(3) 0.9883(6)
C4_6 C 0.4033(3) 0.2789(4) 0.9835(7)
H5_6 H 0.4163 0.2708 0.9068
O5_6 O 0.3848(2) 0.4187(3) 0.8598(5)
N4_6 N 0.2799(3) 0.3001(5) 0.7839(6)
O1_4 O 0.0756(2) 0.6727(2) 0.0298(5)
O3_7 O 0.0954(3) 0.5489(2) 0.1047(5)
C2_7 C 0.0495(3) 0.4327(3) 0.0234(7)
H2_7 H 0.0453 0.4331 0.1144
H4_7 H 0.1439 0.6418 0.0070
N1_7 N 0.1079(3) 0.5758(2) 0.8899(6)
H1_7 H 0.1079 0.5670 0.8085
N2_7 N 0.0455(2) 0.4029(2) 0.8216(6)
N3_7 N 0.0333(3) 0.3867(3) 0.9505(6)
C1_7 C 0.0735(3) 0.4795(3) 0.9428(7)
C3_7 C 0.1234(3) 0.6320(3) 0.9246(7)
H3_7 H 0.1477 0.6570 0.8568
C4_7 C 0.0700(3) 0.4577(3) 0.8168(7)
H5_7 H 0.0830 0.4788 0.7401
C5_7 C 0.0932(3) 0.5368(3) 0.9854(7)
C6_7 C 0.0736(3) 0.6399(3) 0.9394(7)
O4_4 O 0.0756(2) 0.4028(3) 0.5298(5)
O5_7 O 0.0514(2) 0.2994(2) 0.6932(5)
O1_5 O 0.3273(2) 0.4028(3) 0.0298(5)
O3_8 O 0.4511(2) 0.5464(4) 0.1047(5)
C2_8 C 0.5673(3) 0.6167(4) 0.0234(7)
H2_8 H 0.5669 0.6121 0.1144
H4_8 H 0.3582 0.5020 0.0070
N1_8 N 0.4242(2) 0.5320(4) 0.8899(6)
H1_8 H 0.4330 0.5408 0.8085
N2_8 N 0.5971(2) 0.6425(3) 0.8216(6)
N3_8 N 0.6133(3) 0.6465(4) 0.9505(6)
C1_8 C 0.5205(3) 0.5939(4) 0.9428(7)
C3_8 C 0.3680(3) 0.4913(4) 0.9246(7)
H3_8 H 0.3430 0.4906 0.8568
C4_8 C 0.5423(3) 0.6122(4) 0.8168(7)
H5_8 H 0.5212 0.6041 0.7401
C5_8 C 0.4632(3) 0.5563(4) 0.9854(7)
C6_8 C 0.3601(3) 0.4336(4) 0.9394(7)
O4_5 O 0.5972(3) 0.6727(4) 0.5298(5)
O5_8 O 0.7006(2) 0.7521(3) 0.6932(5)
O1_6 O 0.5972(3) 0.9244(2) 0.0298(5)
O3_9 O 0.4536(4) 0.9046(3) 0.1047(5)
C2_9 C 0.3833(4) 0.9505(3) 0.0234(7)
H2_9 H 0.3879 0.9547 0.1144
H4_9 H 0.4980 0.8561 0.0070
N1_9 N 0.4680(4) 0.8921(3) 0.8899(6)
H1_9 H 0.4592 0.8921 0.8085
N2_9 N 0.3575(3) 0.9545(2) 0.8216(6)
N3_9 N 0.3535(4) 0.9667(3) 0.9505(6)
C1_9 C 0.4061(4) 0.9265(3) 0.9428(7)
C3_9 C 0.5087(4) 0.8766(3) 0.9246(7)
H3_9 H 0.5094 0.8523 0.8568
C4_9 C 0.3878(4) 0.9300(3) 0.8168(7)
H5_9 H 0.3959 0.9170 0.7401
C5_9 C 0.4437(4) 0.9068(3) 0.9854(7)
C6_9 C 0.5664(4) 0.9264(3) 0.9394(7)
O4_6 O 0.3273(4) 0.9244(2) 0.5298(5)
O5_9 O 0.2479(3) 0.9486(2) 0.6932(5)
O3_10 O 0.4511(2) 0.9046(3) 0.6047(5)
N1_10 N 0.4242(2) 0.8921(3) 0.3899(6)
H1_10 H 0.4330 0.8921 0.3085
N2_10 N 0.5971(2) 0.9545(2) 0.3216(6)
N3_10 N 0.6133(3) 0.9667(3) 0.4505(6)
C1_10 C 0.5205(3) 0.9265(3) 0.4428(7)
C2_10 C 0.5673(3) 0.9505(3) 0.5234(7)
H2_10 H 0.5669 0.9547 0.6144
C3_10 C 0.3680(3) 0.8766(3) 0.4246(7)
H3_10 H 0.3430 0.8523 0.3568
H4_10 H 0.3582 0.8561 0.5070
C4_10 C 0.5423(3) 0.9300(3) 0.3168(7)
H5_10 H 0.5212 0.9170 0.2401
C5_10 C 0.4632(3) 0.9068(3) 0.4854(7)
C6_10 C 0.3601(3) 0.9264(3) 0.4394(7)
O5_10 O 0.7006(2) 0.9486(2) 0.1932(5)
O3_11 O 0.4536(4) 0.5489(2) 0.6047(5)
N1_11 N 0.4680(4) 0.5758(2) 0.3899(6)
H1_11 H 0.4592 0.5670 0.3085
N2_11 N 0.3575(3) 0.4029(2) 0.3216(6)
N3_11 N 0.3535(4) 0.3867(3) 0.4505(6)
C1_11 C 0.4061(4) 0.4795(3) 0.4428(7)
C2_11 C 0.3833(4) 0.4327(3) 0.5234(7)
H2_11 H 0.3879 0.4331 0.6144
C3_11 C 0.5087(4) 0.6320(3) 0.4246(7)
H3_11 H 0.5094 0.6570 0.3568
H4_11 H 0.4980 0.6418 0.5070
C4_11 C 0.3878(4) 0.4577(3) 0.3168(7)
H5_11 H 0.3959 0.4788 0.2401
C5_11 C 0.4437(4) 0.5368(3) 0.4854(7)
C6_11 C 0.5664(4) 0.6399(3) 0.4394(7)
O5_11 O 0.2479(3) 0.2994(2) 0.1932(5)
O3_12 O 0.0954(3) 0.5464(4) 0.6047(5)
N1_12 N 0.1079(3) 0.5320(4) 0.3899(6)
H1_12 H 0.1079 0.5408 0.3085
N2_12 N 0.0455(2) 0.6425(3) 0.3216(6)
N3_12 N 0.0333(3) 0.6465(4) 0.4505(6)
C1_12 C 0.0735(3) 0.5939(4) 0.4428(7)
C2_12 C 0.0495(3) 0.6167(4) 0.5234(7)
H2_12 H 0.0453 0.6121 0.6144
C3_12 C 0.1234(3) 0.4913(4) 0.4246(7)
H3_12 H 0.1477 0.4906 0.3568
H4_12 H 0.1439 0.5020 0.5070
C4_12 C 0.0700(3) 0.6122(4) 0.3168(7)
H5_12 H 0.0830 0.6041 0.2401
C5_12 C 0.0932(3) 0.5563(4) 0.4854(7)
C6_12 C 0.0736(3) 0.4336(4) 0.4394(7)
O5_12 O 0.0514(2) 0.7521(3) 0.1932(5)
O1_7 O 0.7422(2) 0.0061(2) 0.3632(5)
O3_13 O 0.7620(3) 0.8823(2) 0.4381(5)
N1_13 N 0.7745(3) 0.9092(2) 0.2233(6)
H1_13 H 0.7745 0.9004 0.1419
N2_13 N 0.7121(2) 0.7363(2) 0.1550(6)
C1_13 C 0.7401(3) 0.8129(3) 0.2762(7)
C2_13 C 0.7161(3) 0.7661(3) 0.3568(7)
H2_13 H 0.7119 0.7665 0.4478
C3_13 C 0.7900(3) 0.9654(3) 0.2580(7)
H3_13 H 0.8143 0.9904 0.1902
H4_13 H 0.8105 0.9752 0.3404
C4_13 C 0.7366(3) 0.7911(3) 0.1502(7)
H5_13 H 0.7496 0.8122 0.0735
C5_13 C 0.7598(3) 0.8702(3) 0.3188(7)
C6_13 C 0.7402(3) 0.9733(3) 0.2728(7)
O4_7 O 0.7422(2) 0.7362(3) 0.8632(5)
O3_14 O 0.1177(2) 0.8798(4) 0.4381(5)
N1_14 N 0.0908(2) 0.8654(4) 0.2233(6)
H1_14 H 0.0996 0.8742 0.1419
N2_14 N 0.2637(2) 0.9759(3) 0.1550(6)
C1_14 C 0.1871(3) 0.9273(4) 0.2762(7)
C2_14 C 0.2339(3) 0.9501(4) 0.3568(7)
H2_14 H 0.2335 0.9455 0.4478
C3_14 C 0.0346(3) 0.8247(4) 0.2580(7)
H3_14 H 0.0096 0.8240 0.1902
H4_14 H 0.0248 0.8354 0.3404
C4_14 C 0.2089(3) 0.9456(4) 0.1502(7)
H5_14 H 0.1878 0.9375 0.0735
C5_14 C 0.1298(3) 0.8897(4) 0.3188(7)
C6_14 C 0.0267(3) 0.7670(4) 0.2728(7)
O1_8 O 0.9939(2) 0.7362(3) 0.3632(5)
O1_9 O 0.2638(3) 0.2578(2) 0.3632(5)
O3_15 O 0.1202(4) 0.2380(3) 0.4381(5)
N1_15 N 0.1346(4) 0.2255(3) 0.2233(6)
H1_15 H 0.1258 0.2255 0.1419
N2_15 N 0.0241(3) 0.2879(2) 0.1550(6)
C1_15 C 0.0727(4) 0.2599(3) 0.2762(7)
C2_15 C 0.0499(4) 0.2839(3) 0.3568(7)
H2_15 H 0.0545 0.2881 0.4478
C3_15 C 0.1753(4) 0.2100(3) 0.2580(7)
H3_15 H 0.1760 0.1857 0.1902
H4_15 H 0.1646 0.1895 0.3404
C4_15 C 0.0544(4) 0.2634(3) 0.1502(7)
H5_15 H 0.0625 0.2504 0.0735
C5_15 C 0.1103(4) 0.2402(3) 0.3188(7)
C6_15 C 0.2330(4) 0.2598(3) 0.2728(7)
O3_16 O 0.1177(2) 0.2380(3) 0.9381(5)
N1_16 N 0.0908(2) 0.2255(3) 0.7233(6)
H1_16 H 0.0996 0.2255 0.6419
N2_16 N 0.2637(2) 0.2879(2) 0.6550(6)
C1_16 C 0.1871(3) 0.2599(3) 0.7762(7)
C2_16 C 0.2339(3) 0.2839(3) 0.8568(7)
H2_16 H 0.2335 0.2881 0.9478
C3_16 C 0.0346(3) 0.2100(3) 0.7580(7)
H3_16 H 0.0096 0.1857 0.6902
H4_16 H 0.0248 0.1895 0.8404
C4_16 C 0.2089(3) 0.2634(3) 0.6502(7)
H5_16 H 0.1878 0.2504 0.5735
C5_16 C 0.1298(3) 0.2402(3) 0.8188(7)
C6_16 C 0.0267(3) 0.2598(3) 0.7728(7)
O3_17 O 0.1202(4) 0.8823(2) 0.9381(5)
N1_17 N 0.1346(4) 0.9092(2) 0.7233(6)
H1_17 H 0.1258 0.9004 0.6419
N2_17 N 0.0241(3) 0.7363(2) 0.6550(6)
C1_17 C 0.0727(4) 0.8129(3) 0.7762(7)
C2_17 C 0.0499(4) 0.7661(3) 0.8568(7)
H2_17 H 0.0545 0.7665 0.9478
C3_17 C 0.1753(4) 0.9654(3) 0.7580(7)
H3_17 H 0.1760 0.9904 0.6902
H4_17 H 0.1646 0.9752 0.8404
C4_17 C 0.0544(4) 0.7911(3) 0.6502(7)
H5_17 H 0.0625 0.8122 0.5735
C5_17 C 0.1103(4) 0.8702(3) 0.8188(7)
C6_17 C 0.2330(4) 0.9733(3) 0.7728(7)
O3_18 O 0.7620(3) 0.8798(4) 0.9381(5)
N1_18 N 0.7745(3) 0.8654(4) 0.7233(6)
H1_18 H 0.7745 0.8742 0.6419
N2_18 N 0.7121(2) 0.9759(3) 0.6550(6)
C1_18 C 0.7401(3) 0.9273(4) 0.7762(7)
C2_18 C 0.7161(3) 0.9501(4) 0.8568(7)
H2_18 H 0.7119 0.9455 0.9478
C3_18 C 0.7900(3) 0.8247(4) 0.7580(7)
H3_18 H 0.8143 0.8240 0.6902
H4_18 H 0.8105 0.8354 0.8404
C4_18 C 0.7366(3) 0.9456(4) 0.6502(7)
H5_18 H 0.7496 0.9375 0.5735
C5_18 C 0.7598(3) 0.8897(4) 0.8188(7)
C6_18 C 0.7402(3) 0.7670(4) 0.7728(7)
O4_8 O 0.2638(3) 0.0061(4) 0.8632(5)
O4_9 O 0.9939(4) 0.2578(2) 0.8632(5)
loop_
_geom_bond_atom_site_label_1
_geom_bond_atom_site_label_2
_geom_bond_site_symmetry_1
_geom_bond_site_symmetry_2
Zn1 N2 1_555 1_555
O1 C6 1_555 1_555
O2 C6 1_555 1_555
O3 C5 1_555 1_555
N1 H1 1_555 1_555
N2 N3 1_555 1_555
N3 C2 1_555 1_555
C1 C2 1_555 1_555
C2 H2 1_555 1_555
C3 N1 1_555 1_555
H3 C3 1_555 1_555
H4 C3 1_555 1_555
C4 N2 1_555 1_555
H5 C4 1_555 1_555
C5 N1 1_555 1_555
C6 C3 1_555 1_555
Zn2 O1 1_555 1_555
Zn4 O2 1_555 1_555
O4 Zn1 1_555 1_555
C1 C4 1_555 1_555
C1 C5 1_555 1_555
Zn1_2 N2_2 1_555 1_555
O1_2 C6_2 1_555 1_555
O2_2 C6_2 1_555 1_555
O3_2 C5_2 1_555 1_555
N1_2 H1_2 1_555 1_555
N2_2 N3_2 1_555 1_555
N3_2 C2_2 1_555 1_555
C1_2 C2_2 1_555 1_555
C2_2 H2_2 1_555 1_555
C3_2 N1_2 1_555 1_555
H3_2 C3_2 1_555 1_555
H4_2 C3_2 1_555 1_555
C4_2 N2_2 1_555 1_555
H5_2 C4_2 1_555 1_555
C5_2 N1_2 1_555 1_555
C6_2 C3_2 1_555 1_555
Zn2_2 O1_2 1_555 1_555
Zn4_2 O2_2 1_555 1_555
O4_2 Zn1_2 1_555 1_555
C1_2 C4_2 1_555 1_555
C1_2 C5_2 1_555 1_555
Zn1_3 N2_3 1_555 1_555
O1_3 C6_3 1_555 1_555
O2_3 C6_3 1_555 1_555
O3_3 C5_3 1_555 1_555
N1_3 H1_3 1_555 1_555
N2_3 N3_3 1_555 1_555
N3_3 C2_3 1_555 1_555
C1_3 C2_3 1_555 1_555
C2_3 H2_3 1_555 1_555
C3_3 N1_3 1_555 1_555
H3_3 C3_3 1_555 1_555
H4_3 C3_3 1_555 1_555
C4_3 N2_3 1_555 1_555
H5_3 C4_3 1_555 1_555
C5_3 N1_3 1_555 1_555
C6_3 C3_3 1_555 1_555
Zn2_3 O1_3 1_555 1_555
Zn3_3 N3_3 1_555 1_555
Zn4_3 O2_3 1_555 1_555
O4_3 Zn1_3 1_555 1_555
O5_3 Zn1_3 1_555 1_555
N4_3 Zn1_3 1_555 1_555
C1_3 C4_3 1_555 1_555
C1_3 C5_3 1_555 1_555
O4_3 C6_4 1_555 1_555
O2_4 C6_4 1_555 1_555
O3_4 C5_4 1_555 1_555
N3_4 C2_4 1_555 1_555
C1_4 C2_4 1_555 1_555
C2_4 H2_4 1_555 1_555
C3_4 N1_4 1_555 1_555
H3_4 C3_4 1_555 1_555
H4_4 C3_4 1_555 1_555
C5_4 N1_4 1_555 1_555
C6_4 C3_4 1_555 1_555
Zn4_4 O2_4 1_555 1_555
C1_4 C5_4 1_555 1_555
Zn2_3 N2_4 1_555 1_555
C4_4 N2_4 1_555 1_555
H5_4 C4_4 1_555 1_555
O4_2 C6_5 1_555 1_555
O2_5 C6_5 1_555 1_555
O3_5 C5_5 1_555 1_555
N3_5 C2_5 1_555 1_555
C1_5 C2_5 1_555 1_555
C2_5 H2_5 1_555 1_555
C3_5 N1_5 1_555 1_555
H3_5 C3_5 1_555 1_555
H4_5 C3_5 1_555 1_555
C5_5 N1_5 1_555 1_555
C6_5 C3_5 1_555 1_555
Zn4_5 O2_5 1_555 1_555
C1_5 C5_5 1_555 1_555
Zn2_2 N2_5 1_555 1_555
C4_5 N2_5 1_555 1_555
H5_5 C4_5 1_555 1_555
O4 C6_6 1_555 1_555
O2_6 C6_6 1_555 1_555
O3_6 C5_6 1_555 1_555
N3_6 C2_6 1_555 1_555
C1_6 C2_6 1_555 1_555
C2_6 H2_6 1_555 1_555
C3_6 N1_6 1_555 1_555
H3_6 C3_6 1_555 1_555
H4_6 C3_6 1_555 1_555
C5_6 N1_6 1_555 1_555
C6_6 C3_6 1_555 1_555
Zn3_6 N3_6 1_555 1_555
Zn4_6 O2_6 1_555 1_555
C1_6 C5_6 1_555 1_555
Zn2 N2_6 1_555 1_555
C4_6 N2_6 1_555 1_555
H5_6 C4_6 1_555 1_555
O5_6 Zn2 1_555 1_555
N4_6 Zn2 1_555 1_555
C2_7 H2_7 1_555 1_555
Zn3_4 O1_4 1_555 1_555
Zn3_2 N2_7 1_555 1_555
O5_4 C6_7 1_555 1_555
N1_7 H1_7 1_555 1_555
N2_7 N3_7 1_555 1_555
C3_7 N1_7 1_555 1_555
H3_7 C3_7 1_555 1_555
C4_7 N2_7 1_555 1_555
H5_7 C4_7 1_555 1_555
C5_7 N1_7 1_555 1_555
C6_7 C3_7 1_555 1_555
O4_4 Zn3_2 1_555 1_555
O5_7 Zn3_2 1_555 1_555
C1_7 C4_7 1_555 1_555
C1_7 C5_7 1_555 1_555
C2_8 H2_8 1_555 1_555
Zn3_6 O1_5 1_555 1_555
Zn3_3 N2_8 1_555 1_555
O5_6 C6_8 1_555 1_555
N1_8 H1_8 1_555 1_555
N2_8 N3_8 1_555 1_555
C3_8 N1_8 1_555 1_555
H3_8 C3_8 1_555 1_555
C4_8 N2_8 1_555 1_555
H5_8 C4_8 1_555 1_555
C5_8 N1_8 1_555 1_555
C6_8 C3_8 1_555 1_555
O4_5 Zn3_3 1_555 1_555
O5_8 Zn3_3 1_555 1_555
C1_8 C4_8 1_555 1_555
C1_8 C5_8 1_555 1_555
C2_9 H2_9 1_555 1_555
Zn3_5 O1_6 1_555 1_555
Zn3 N2_9 1_555 1_555
O5_5 C6_9 1_555 1_555
N1_9 H1_9 1_555 1_555
N2_9 N3_9 1_555 1_555
C3_9 N1_9 1_555 1_555
H3_9 C3_9 1_555 1_555
C4_9 N2_9 1_555 1_555
H5_9 C4_9 1_555 1_555
C5_9 N1_9 1_555 1_555
C6_9 C3_9 1_555 1_555
O4_6 Zn3 1_555 1_555
O5_9 Zn3 1_555 1_555
C1_9 C4_9 1_555 1_555
C1_9 C5_9 1_555 1_555
Zn3_5 N2_10 1_555 1_555
O4_6 C6_10 1_555 1_555
O5 C6_10 1_555 1_555
O3_10 C5_10 1_555 1_555
N1_10 H1_10 1_555 1_555
N2_10 N3_10 1_555 1_555
N3_10 C2_10 1_555 1_555
C1_10 C2_10 1_555 1_555
C2_10 H2_10 1_555 1_555
C3_10 N1_10 1_555 1_555
H3_10 C3_10 1_555 1_555
H4_10 C3_10 1_555 1_555
C4_10 N2_10 1_555 1_555
H5_10 C4_10 1_555 1_555
C5_10 N1_10 1_555 1_555
C6_10 C3_10 1_555 1_555
O5_10 Zn3_5 1_555 1_555
C1_10 C4_10 1_555 1_555
C1_10 C5_10 1_555 1_555
Zn3_6 N2_11 1_555 1_555
O4_5 C6_11 1_555 1_555
O5_3 C6_11 1_555 1_555
O3_11 C5_11 1_555 1_555
N1_11 H1_11 1_555 1_555
N2_11 N3_11 1_555 1_555
N3_11 C2_11 1_555 1_555
C1_11 C2_11 1_555 1_555
C2_11 H2_11 1_555 1_555
C3_11 N1_11 1_555 1_555
H3_11 C3_11 1_555 1_555
H4_11 C3_11 1_555 1_555
C4_11 N2_11 1_555 1_555
H5_11 C4_11 1_555 1_555
C5_11 N1_11 1_555 1_555
C6_11 C3_11 1_555 1_555
Zn4 N3_11 1_555 1_555
O5_11 Zn3_6 1_555 1_555
C1_11 C4_11 1_555 1_555
C1_11 C5_11 1_555 1_555
Zn3_4 N2_12 1_555 1_555
O4_4 C6_12 1_555 1_555
O5_2 C6_12 1_555 1_555
O3_12 C5_12 1_555 1_555
N1_12 H1_12 1_555 1_555
N2_12 N3_12 1_555 1_555
N3_12 C2_12 1_555 1_555
C1_12 C2_12 1_555 1_555
C2_12 H2_12 1_555 1_555
C3_12 N1_12 1_555 1_555
H3_12 C3_12 1_555 1_555
H4_12 C3_12 1_555 1_555
C4_12 N2_12 1_555 1_555
H5_12 C4_12 1_555 1_555
C5_12 N1_12 1_555 1_555
C6_12 C3_12 1_555 1_555
O5_12 Zn3_4 1_555 1_555
C1_12 C4_12 1_555 1_555
C1_12 C5_12 1_555 1_555
Zn4_2 O1_7 1_555 1_555
Zn4_4 N2_13 1_555 1_555
O5_10 C6_13 1_555 1_555
O3_13 C5_13 1_555 1_555
N1_13 H1_13 1_555 1_555
N2_13 N4_3 1_555 1_555
N4_3 C2_13 1_555 1_555
C1_13 C2_13 1_555 1_555
C2_13 H2_13 1_555 1_555
C3_13 N1_13 1_555 1_555
H3_13 C3_13 1_555 1_555
H4_13 C3_13 1_555 1_555
C4_13 N2_13 1_555 1_555
H5_13 C4_13 1_555 1_555
C5_13 N1_13 1_555 1_555
C6_13 C3_13 1_555 1_555
C1_13 C4_13 1_555 1_555
C1_13 C5_13 1_555 1_555
O5_12 C6_14 1_555 1_555
O3_14 C5_14 1_555 1_555
N1_14 H1_14 1_555 1_555
N2_14 N4 1_555 1_555
N4 C2_14 1_555 1_555
C1_14 C2_14 1_555 1_555
C2_14 H2_14 1_555 1_555
C3_14 N1_14 1_555 1_555
H3_14 C3_14 1_555 1_555
H4_14 C3_14 1_555 1_555
C4_14 N2_14 1_555 1_555
H5_14 C4_14 1_555 1_555
C5_14 N1_14 1_555 1_555
C6_14 C3_14 1_555 1_555
C1_14 C4_14 1_555 1_555
C1_14 C5_14 1_555 1_555
Zn4_3 O1_8 1_555 1_555
O1_9 C6_15 1_555 1_555
O5_11 C6_15 1_555 1_555
O3_15 C5_15 1_555 1_555
N1_15 H1_15 1_555 1_555
N2_15 N4_2 1_555 1_555
N4_2 C2_15 1_555 1_555
C1_15 C2_15 1_555 1_555
C2_15 H2_15 1_555 1_555
C3_15 N1_15 1_555 1_555
H3_15 C3_15 1_555 1_555
H4_15 C3_15 1_555 1_555
C4_15 N2_15 1_555 1_555
H5_15 C4_15 1_555 1_555
C5_15 N1_15 1_555 1_555
C6_15 C3_15 1_555 1_555
Zn4 O1_9 1_555 1_555
C1_15 C4_15 1_555 1_555
C1_15 C5_15 1_555 1_555
Zn4 N2_16 1_555 1_555
O5_7 C6_16 1_555 1_555
O3_16 C5_16 1_555 1_555
N1_16 H1_16 1_555 1_555
N2_16 N4_6 1_555 1_555
N4_6 C2_16 1_555 1_555
C1_16 C2_16 1_555 1_555
C2_16 H2_16 1_555 1_555
C3_16 N1_16 1_555 1_555
H3_16 C3_16 1_555 1_555
H4_16 C3_16 1_555 1_555
C4_16 N2_16 1_555 1_555
H5_16 C4_16 1_555 1_555
C5_16 N1_16 1_555 1_555
C6_16 C3_16 1_555 1_555
C1_16 C4_16 1_555 1_555
C1_16 C5_16 1_555 1_555
O5_9 C6_17 1_555 1_555
O3_17 C5_17 1_555 1_555
N1_17 H1_17 1_555 1_555
N2_17 N4_4 1_555 1_555
N4_4 C2_17 1_555 1_555
C1_17 C2_17 1_555 1_555
C2_17 H2_17 1_555 1_555
C3_17 N1_17 1_555 1_555
H3_17 C3_17 1_555 1_555
H4_17 C3_17 1_555 1_555
C4_17 N2_17 1_555 1_555
H5_17 C4_17 1_555 1_555
C5_17 N1_17 1_555 1_555
C6_17 C3_17 1_555 1_555
C1_17 C4_17 1_555 1_555
C1_17 C5_17 1_555 1_555
O4_7 C6_18 1_555 1_555
O5_8 C6_18 1_555 1_555
O3_18 C5_18 1_555 1_555
N1_18 H1_18 1_555 1_555
N2_18 N4_5 1_555 1_555
N4_5 C2_18 1_555 1_555
C1_18 C2_18 1_555 1_555
C2_18 H2_18 1_555 1_555
C3_18 N1_18 1_555 1_555
H3_18 C3_18 1_555 1_555
H4_18 C3_18 1_555 1_555
C4_18 N2_18 1_555 1_555
H5_18 C4_18 1_555 1_555
C5_18 N1_18 1_555 1_555
C6_18 C3_18 1_555 1_555
C1_18 C4_18 1_555 1_555
C1_18 C5_18 1_555 1_555

#END
