
###############################################################################
#
# This file contains modified crystal structure data generated from the
# MOF subset of the Cambridge Structural Database (CSD) v543 
# hosted by the Cambridge Crystallographic Data Centre (CCDC).
#
# This work is licensed under the Creative Commons
# Attribution-NonCommercial-ShareAlike 4.0 International License.
# To view a copy of this license, visit
# http://creativecommons.org/licenses/by-nc-sa/4.0/
# or send a letter to
# Creative Commons, PO Box 1866, Mountain View, CA 94042, USA.
#
# CIF created using the CSD Python API on 29 September 2022
# The structure has been converted into the P1 space group
# The structure has a 3D framework
# The original CSD entry VUWTUF is in the rhombohedral crystal system
# The framework has been calculated to contain at least 10.0% void space
# The void calculation uses a probe of radius 1.32A, grid spacing 0.4
#
###############################################################################

data_VUWTUF
_chemical_formula_moiety         '(C108 H90 N54 O52 Zn14)n'
_symmetry_cell_setting           triclinic
_symmetry_space_group_name_H-M   'P 1'
_symmetry_Int_Tables_number      1
_space_group_name_Hall           'P 1'
loop_
_symmetry_equiv_pos_site_id
_symmetry_equiv_pos_as_xyz
1 x,y,z
_cell_length_a                   27.1513(6)
_cell_length_b                   27.1513(6)
_cell_length_c                   10.1334(2)
_cell_angle_alpha                90
_cell_angle_beta                 90
_cell_angle_gamma                120
_cell_volume                     6469.45
loop_
_atom_site_label
_atom_site_type_symbol
_atom_site_fract_x
_atom_site_fract_y
_atom_site_fract_z
Zn4 Zn 0.01923(4) 0.35933(5) 0.03336(12)
O4 O 0.2541(3) 0.2650(5) 0.0052(7)
Zn1 Zn 0.30734(5) 0.31410(4) 0.86669(12)
O1 O 0.2877(3) 0.3747(3) 0.8470(7)
N1 N 0.0705(4) 0.3834(4) 0.8818(8)
O2 O 0.3443(4) 0.4126(3) 0.6719(7)
C1 C 0.3053(4) 0.4654(4) 0.7754(11)
H1 H 0.3310 0.4904 0.8428
H2 H 0.3157 0.4861 0.6925
N2 N 0.2487(4) 0.4509(4) 0.8086(8)
H3 H 0.2400 0.4510 0.8901
N3 N 0.0547(4) 0.3707(6) 0.7535(9)
C2 C 0.1282(4) 0.4100(4) 0.8867(10)
H4 H 0.1501 0.4226 0.9630
C3 C 0.1493(4) 0.4153(4) 0.7594(10)
C4 C 0.1016(5) 0.3883(6) 0.6817(10)
H5 H 0.1020 0.3831 0.5911
C5 C 0.3123(4) 0.4128(4) 0.7624(10)
C6 C 0.2086(4) 0.4370(5) 0.7152(10)
O3 O 0.2204(4) 0.4410(5) 0.5973(8)
Zn3 Zn 0.34009(6) 0.35933(5) 0.53336(12)
N4 N 0.2833(4) 0.2628(4) 0.7151(8)
N5 N 0.3880(4) 0.3507(7) 0.9202(9)
Zn2 Zn 0.97401(5) 0.32657(6) 0.70002(12)
N4_2 N 0.7372(4) 0.0204(6) 0.7151(8)
N5_2 N 0.6493(7) 0.0374(8) 0.9202(9)
Zn4_2 Zn 0.64067(5) 0.65991(6) 0.03336(12)
O4_2 O 0.7350(5) 0.9890(6) 0.0052(7)
Zn1_2 Zn 0.68590(4) 0.99324(6) 0.86669(12)
O1_2 O 0.6253(3) 0.9130(4) 0.8470(7)
N1_2 N 0.6166(4) 0.6871(6) 0.8818(8)
O2_2 O 0.5874(3) 0.9317(5) 0.6719(7)
C1_2 C 0.5346(4) 0.8399(6) 0.7754(11)
H1_2 H 0.5096 0.8406 0.8428
H2_2 H 0.5139 0.8296 0.6925
N2_2 N 0.5491(4) 0.7978(6) 0.8086(8)
H3_2 H 0.5490 0.7890 0.8901
N3_2 N 0.6293(6) 0.6840(7) 0.7535(9)
C2_2 C 0.5900(4) 0.7182(6) 0.8867(10)
H4_2 H 0.5774 0.7275 0.9630
C3_2 C 0.5847(4) 0.7340(6) 0.7594(10)
C4_2 C 0.6117(6) 0.7133(8) 0.6817(10)
H5_2 H 0.6169 0.7189 0.5911
C5_2 C 0.5872(4) 0.8995(6) 0.7624(10)
C6_2 C 0.5630(5) 0.7716(6) 0.7152(10)
O3_2 O 0.5590(5) 0.7794(6) 0.5973(8)
Zn2_2 Zn 0.67343(6) 0.64743(8) 0.70002(12)
Zn3_2 Zn 0.64067(5) 0.98077(8) 0.53336(12)
Zn2_3 Zn 0.35257(8) 0.02599(5) 0.70002(12)
Zn4_3 Zn 0.34009(6) 0.98077(4) 0.03336(12)
O4_3 O 0.0110(6) 0.7459(3) 0.0052(7)
Zn1_3 Zn 0.00676(6) 0.69266(5) 0.86669(12)
O1_3 O 0.0870(4) 0.7123(3) 0.8470(7)
N1_3 N 0.3129(6) 0.9295(4) 0.8818(8)
O2_3 O 0.0683(5) 0.6557(4) 0.6719(7)
C1_3 C 0.1601(6) 0.6947(4) 0.7754(11)
H1_3 H 0.1594 0.6690 0.8428
H2_3 H 0.1704 0.6843 0.6925
N2_3 N 0.2022(6) 0.7513(4) 0.8086(8)
H3_3 H 0.2110 0.7600 0.8901
N3_3 N 0.3160(7) 0.9453(4) 0.7535(9)
C2_3 C 0.2818(6) 0.8718(4) 0.8867(10)
H4_3 H 0.2725 0.8499 0.9630
C3_3 C 0.2660(6) 0.8507(4) 0.7594(10)
C4_3 C 0.2867(8) 0.8984(5) 0.6817(10)
H5_3 H 0.2811 0.8980 0.5911
C5_3 C 0.1005(6) 0.6877(4) 0.7624(10)
C6_3 C 0.2284(6) 0.7914(4) 0.7152(10)
O3_3 O 0.2206(6) 0.7796(4) 0.5973(8)
Zn3_3 Zn 0.01923(8) 0.65991(6) 0.53336(12)
N4_3 N 0.9796(6) 0.7167(4) 0.7151(8)
N5_3 N 0.9626(8) 0.6120(4) 0.9202(9)
Zn1_4 Zn 0.00676(6) 0.31410(4) 0.36669(12)
O1_4 O 0.0870(4) 0.3747(3) 0.3470(7)
N1_4 N 0.3129(6) 0.3834(4) 0.3818(8)
O2_4 O 0.0683(5) 0.4126(3) 0.1719(7)
C1_4 C 0.1601(6) 0.4654(4) 0.2754(11)
H1_4 H 0.1594 0.4904 0.3428
H2_4 H 0.1704 0.4861 0.1925
N2_4 N 0.2022(6) 0.4509(4) 0.3086(8)
H3_4 H 0.2110 0.4510 0.3901
N3_4 N 0.3160(7) 0.3707(6) 0.2535(9)
C2_4 C 0.2818(6) 0.4100(4) 0.3867(10)
H4_4 H 0.2725 0.4226 0.4630
C3_4 C 0.2660(6) 0.4153(4) 0.2594(10)
C4_4 C 0.2867(8) 0.3883(6) 0.1817(10)
H5_4 H 0.2811 0.3831 0.0911
C5_4 C 0.1005(6) 0.4128(4) 0.2624(10)
C6_4 C 0.2284(6) 0.4370(5) 0.2152(10)
O3_4 O 0.2206(6) 0.4410(5) 0.0973(8)
Zn2_4 Zn 0.35257(8) 0.32657(6) 0.20002(12)
O4_4 O 0.0110(6) 0.2650(5) 0.5052(7)
N4_4 N 0.9796(6) 0.2628(4) 0.2151(8)
N5_4 N 0.9626(8) 0.3507(7) 0.4202(9)
N4_5 N 0.2833(4) 0.0204(6) 0.2151(8)
N5_5 N 0.3880(4) 0.0374(8) 0.4202(9)
Zn1_5 Zn 0.30734(5) 0.99324(6) 0.36669(12)
O1_5 O 0.2877(3) 0.9130(4) 0.3470(7)
N1_5 N 0.0705(4) 0.6871(6) 0.3818(8)
O2_5 O 0.3443(4) 0.9317(5) 0.1719(7)
C1_5 C 0.3053(4) 0.8399(6) 0.2754(11)
H1_5 H 0.3310 0.8406 0.3428
H2_5 H 0.3157 0.8296 0.1925
N2_5 N 0.2487(4) 0.7978(6) 0.3086(8)
H3_5 H 0.2400 0.7890 0.3901
N3_5 N 0.0547(4) 0.6840(7) 0.2535(9)
C2_5 C 0.1282(4) 0.7182(6) 0.3867(10)
H4_5 H 0.1501 0.7275 0.4630
C3_5 C 0.1493(4) 0.7340(6) 0.2594(10)
C4_5 C 0.1016(5) 0.7133(8) 0.1817(10)
H5_5 H 0.1020 0.7189 0.0911
C5_5 C 0.3123(4) 0.8995(6) 0.2624(10)
C6_5 C 0.2086(4) 0.7716(6) 0.2152(10)
O3_5 O 0.2204(4) 0.7794(6) 0.0973(8)
O4_5 O 0.2541(3) 0.9890(6) 0.5052(7)
Zn2_5 Zn 0.97401(5) 0.64743(8) 0.20002(12)
Zn2_6 Zn 0.67343(6) 0.02599(5) 0.20002(12)
Zn1_6 Zn 0.68590(4) 0.69266(5) 0.36669(12)
O1_6 O 0.6253(3) 0.7123(3) 0.3470(7)
N1_6 N 0.6166(4) 0.9295(4) 0.3818(8)
O2_6 O 0.5874(3) 0.6557(4) 0.1719(7)
C1_6 C 0.5346(4) 0.6947(4) 0.2754(11)
H1_6 H 0.5096 0.6690 0.3428
H2_6 H 0.5139 0.6843 0.1925
N2_6 N 0.5491(4) 0.7513(4) 0.3086(8)
H3_6 H 0.5490 0.7600 0.3901
N3_6 N 0.6293(6) 0.9453(4) 0.2535(9)
C2_6 C 0.5900(4) 0.8718(4) 0.3867(10)
H4_6 H 0.5774 0.8499 0.4630
C3_6 C 0.5847(4) 0.8507(4) 0.2594(10)
C4_6 C 0.6117(6) 0.8984(5) 0.1817(10)
H5_6 H 0.6169 0.8980 0.0911
C5_6 C 0.5872(4) 0.6877(4) 0.2624(10)
C6_6 C 0.5630(5) 0.7914(4) 0.2152(10)
O3_6 O 0.5590(5) 0.7796(4) 0.0973(8)
N4_6 N 0.7372(4) 0.7167(4) 0.2151(8)
O4_6 O 0.7350(5) 0.7459(3) 0.5052(7)
N5_6 N 0.6493(7) 0.6120(4) 0.4202(9)
O1_7 O 0.9544(3) 0.7080(3) 0.1803(7)
C1_7 C 0.9720(4) 0.7987(4) 0.1087(11)
H1_7 H 0.9977 0.8237 0.1761
H2_7 H 0.9824 0.8194 0.0258
N2_7 N 0.9154(4) 0.7842(4) 0.1419(8)
H3_7 H 0.9067 0.7843 0.2234
N3_7 N 0.7214(4) 0.7040(6) 0.0868(9)
C2_7 C 0.7949(4) 0.7433(4) 0.2200(10)
H4_7 H 0.8168 0.7559 0.2963
C3_7 C 0.8160(4) 0.7486(4) 0.0927(10)
C4_7 C 0.7683(5) 0.7216(6) 0.0150(10)
C5_7 C 0.9790(4) 0.7461(4) 0.0957(10)
C6_7 C 0.8753(4) 0.7703(5) 0.0485(10)
N4_7 N 0.9499(4) 0.5962(4) 0.0485(8)
O4_7 O 0.9207(3) 0.5984(5) 0.3386(7)
O1_8 O 0.2920(3) 0.2463(4) 0.1803(7)
C1_8 C 0.2013(4) 0.1732(6) 0.1087(11)
H1_8 H 0.1763 0.1739 0.1761
H2_8 H 0.1806 0.1629 0.0258
N2_8 N 0.2158(4) 0.1311(6) 0.1419(8)
H3_8 H 0.2157 0.1223 0.2234
N3_8 N 0.2960(6) 0.0173(7) 0.0868(9)
C2_8 C 0.2567(4) 0.0515(6) 0.2200(10)
H4_8 H 0.2441 0.0608 0.2963
C3_8 C 0.2514(4) 0.0673(6) 0.0927(10)
C4_8 C 0.2784(6) 0.0466(8) 0.0150(10)
C5_8 C 0.2539(4) 0.2328(6) 0.0957(10)
C6_8 C 0.2297(5) 0.1049(6) 0.0485(10)
N4_8 N 0.4038(4) 0.3538(6) 0.0485(8)
O4_8 O 0.4016(5) 0.3224(6) 0.3386(7)
H5_7 H 0.2836 0.0522 0.9244
O3_7 O 0.2257(5) 0.1127(6) 0.9306(8)
O1_9 O 0.7537(4) 0.0456(3) 0.1803(7)
C1_9 C 0.8268(6) 0.0280(4) 0.1087(11)
H1_9 H 0.8261 0.0023 0.1761
H2_9 H 0.8371 0.0176 0.0258
N2_9 N 0.8689(6) 0.0846(4) 0.1419(8)
H3_9 H 0.8777 0.0933 0.2234
N3_9 N 0.9827(7) 0.2786(4) 0.0868(9)
C2_9 C 0.9485(6) 0.2051(4) 0.2200(10)
H4_9 H 0.9392 0.1832 0.2963
C3_9 C 0.9327(6) 0.1840(4) 0.0927(10)
C4_9 C 0.9534(8) 0.2317(5) 0.0150(10)
C5_9 C 0.7672(6) 0.0210(4) 0.0957(10)
C6_9 C 0.8951(6) 0.1247(4) 0.0485(10)
N4_9 N 0.6462(6) 0.0501(4) 0.0485(8)
O4_9 O 0.6776(6) 0.0793(3) 0.3386(7)
O1_10 O 0.7537(4) 0.7080(3) 0.6803(7)
C1_10 C 0.8268(6) 0.7987(4) 0.6087(11)
H1_10 H 0.8261 0.8237 0.6761
H2_10 H 0.8371 0.8194 0.5258
N2_10 N 0.8689(6) 0.7842(4) 0.6419(8)
H3_10 H 0.8777 0.7843 0.7234
N3_10 N 0.9827(7) 0.7040(6) 0.5868(9)
C2_10 C 0.9485(6) 0.7433(4) 0.7200(10)
H4_10 H 0.9392 0.7559 0.7963
C3_10 C 0.9327(6) 0.7486(4) 0.5927(10)
C4_10 C 0.9534(8) 0.7216(6) 0.5150(10)
H5_8 H 0.9478 0.7164 0.4244
C5_10 C 0.7672(6) 0.7461(4) 0.5957(10)
C6_10 C 0.8951(6) 0.7703(5) 0.5485(10)
O3_8 O 0.8873(6) 0.7743(5) 0.4306(8)
N4_10 N 0.6462(6) 0.5962(4) 0.5485(8)
O4_10 O 0.6776(6) 0.5984(5) 0.8386(7)
O1_11 O 0.9544(3) 0.2463(4) 0.6803(7)
C1_11 C 0.9720(4) 0.1732(6) 0.6087(11)
H1_11 H 0.9977 0.1739 0.6761
H2_11 H 0.9824 0.1629 0.5258
N2_11 N 0.9154(4) 0.1311(6) 0.6419(8)
H3_11 H 0.9067 0.1223 0.7234
N3_11 N 0.7214(4) 0.0173(7) 0.5868(9)
C2_11 C 0.7949(4) 0.0515(6) 0.7200(10)
H4_11 H 0.8168 0.0608 0.7963
C3_11 C 0.8160(4) 0.0673(6) 0.5927(10)
C4_11 C 0.7683(5) 0.0466(8) 0.5150(10)
H5_9 H 0.7687 0.0522 0.4244
C5_11 C 0.9790(4) 0.2328(6) 0.5957(10)
C6_11 C 0.8753(4) 0.1049(6) 0.5485(10)
O3_9 O 0.8871(4) 0.1127(6) 0.4306(8)
N4_11 N 0.9499(4) 0.3538(6) 0.5485(8)
O4_11 O 0.9207(3) 0.3224(6) 0.8386(7)
O1_12 O 0.2920(3) 0.0456(3) 0.6803(7)
C1_12 C 0.2013(4) 0.0280(4) 0.6087(11)
H1_12 H 0.1763 0.0023 0.6761
H2_12 H 0.1806 0.0176 0.5258
N2_12 N 0.2158(4) 0.0846(4) 0.6419(8)
H3_12 H 0.2157 0.0933 0.7234
N3_12 N 0.2960(6) 0.2786(4) 0.5868(9)
C2_12 C 0.2567(4) 0.2051(4) 0.7200(10)
H4_12 H 0.2441 0.1832 0.7963
C3_12 C 0.2514(4) 0.1840(4) 0.5927(10)
C4_12 C 0.2784(6) 0.2317(5) 0.5150(10)
H5_10 H 0.2836 0.2313 0.4244
C5_12 C 0.2539(4) 0.0210(4) 0.5957(10)
C6_12 C 0.2297(5) 0.1247(4) 0.5485(10)
O3_10 O 0.2257(5) 0.1129(4) 0.4306(8)
N4_12 N 0.4038(4) 0.0501(4) 0.5485(8)
O4_12 O 0.4016(5) 0.0793(3) 0.8386(7)
O1_13 O 0.6210(3) 0.0414(3) 0.5137(7)
C1_13 C 0.6386(4) 0.1321(4) 0.4421(11)
H1_13 H 0.6643 0.1571 0.5095
H2_13 H 0.6490 0.1528 0.3592
N2_13 N 0.5820(4) 0.1176(4) 0.4753(8)
H3_13 H 0.5733 0.1177 0.5568
C2_13 C 0.4615(4) 0.0767(4) 0.5534(10)
H4_13 H 0.4834 0.0893 0.6297
C3_13 C 0.4826(4) 0.0820(4) 0.4261(10)
C4_13 C 0.4349(5) 0.0550(6) 0.3484(10)
H5_11 H 0.4353 0.0498 0.2578
C5_13 C 0.6456(4) 0.0795(4) 0.4291(10)
C6_13 C 0.5419(4) 0.1037(5) 0.3819(10)
O3_11 O 0.5537(4) 0.1077(5) 0.2640(8)
O1_14 O 0.9586(3) 0.5797(4) 0.5137(7)
C1_14 C 0.8679(4) 0.5066(6) 0.4421(11)
H1_14 H 0.8429 0.5073 0.5095
H2_14 H 0.8472 0.4963 0.3592
N2_14 N 0.8824(4) 0.4645(6) 0.4753(8)
H3_14 H 0.8823 0.4557 0.5568
C2_14 C 0.9233(4) 0.3849(6) 0.5534(10)
H4_14 H 0.9107 0.3942 0.6297
C3_14 C 0.9180(4) 0.4007(6) 0.4261(10)
C4_14 C 0.9450(6) 0.3800(8) 0.3484(10)
H5_12 H 0.9502 0.3856 0.2578
C5_14 C 0.9205(4) 0.5662(6) 0.4291(10)
C6_14 C 0.8963(5) 0.4383(6) 0.3819(10)
O3_12 O 0.8923(5) 0.4461(6) 0.2640(8)
O1_15 O 0.4203(4) 0.3790(3) 0.5137(7)
C1_15 C 0.4934(6) 0.3614(4) 0.4421(11)
H1_15 H 0.4927 0.3357 0.5095
H2_15 H 0.5037 0.3510 0.3592
N2_15 N 0.5355(6) 0.4180(4) 0.4753(8)
H3_15 H 0.5443 0.4267 0.5568
C2_15 C 0.6151(6) 0.5385(4) 0.5534(10)
H4_15 H 0.6058 0.5166 0.6297
C3_15 C 0.5993(6) 0.5174(4) 0.4261(10)
C4_15 C 0.6200(8) 0.5651(5) 0.3484(10)
H5_13 H 0.6144 0.5647 0.2578
C5_15 C 0.4338(6) 0.3544(4) 0.4291(10)
C6_15 C 0.5617(6) 0.4581(4) 0.3819(10)
O3_13 O 0.5539(6) 0.4463(4) 0.2640(8)
O1_16 O 0.4203(4) 0.0414(3) 0.0137(7)
H1_16 H 0.4927 0.1571 0.0095
H3_16 H 0.5443 0.1177 0.0568
C2_16 C 0.6151(6) 0.0767(4) 0.0534(10)
H4_16 H 0.6058 0.0893 0.1297
C1_16 C 0.4934(6) 0.1321(4) 0.9421(11)
H2_16 H 0.5037 0.1528 0.8592
N2_16 N 0.5355(6) 0.1176(4) 0.9753(8)
C3_16 C 0.5993(6) 0.0820(4) 0.9261(10)
C4_16 C 0.6200(8) 0.0550(6) 0.8484(10)
H5_14 H 0.6144 0.0498 0.7578
C5_16 C 0.4338(6) 0.0795(4) 0.9291(10)
C6_16 C 0.5617(6) 0.1037(5) 0.8819(10)
O3_14 O 0.5539(6) 0.1077(5) 0.7640(8)
O1_17 O 0.6210(3) 0.5797(4) 0.0137(7)
H1_17 H 0.6643 0.5073 0.0095
H3_17 H 0.5733 0.4557 0.0568
C2_17 C 0.4615(4) 0.3849(6) 0.0534(10)
H4_17 H 0.4834 0.3942 0.1297
C1_17 C 0.6386(4) 0.5066(6) 0.9421(11)
H2_17 H 0.6490 0.4963 0.8592
N2_17 N 0.5820(4) 0.4645(6) 0.9753(8)
C3_17 C 0.4826(4) 0.4007(6) 0.9261(10)
C4_17 C 0.4349(5) 0.3800(8) 0.8484(10)
H5_15 H 0.4353 0.3856 0.7578
C5_17 C 0.6456(4) 0.5662(6) 0.9291(10)
C6_17 C 0.5419(4) 0.4383(6) 0.8819(10)
O3_15 O 0.5537(4) 0.4461(6) 0.7640(8)
O1_18 O 0.9586(3) 0.3790(3) 0.0137(7)
H1_18 H 0.8429 0.3357 0.0095
H3_18 H 0.8823 0.4267 0.0568
C2_18 C 0.9233(4) 0.5385(4) 0.0534(10)
H4_18 H 0.9107 0.5166 0.1297
C1_18 C 0.8679(4) 0.3614(4) 0.9421(11)
H2_18 H 0.8472 0.3510 0.8592
N2_18 N 0.8824(4) 0.4180(4) 0.9753(8)
C3_18 C 0.9180(4) 0.5174(4) 0.9261(10)
C4_18 C 0.9450(6) 0.5651(5) 0.8484(10)
H5_16 H 0.9502 0.5647 0.7578
C5_18 C 0.9205(4) 0.3544(4) 0.9291(10)
C6_18 C 0.8963(5) 0.4581(4) 0.8819(10)
O3_16 O 0.8923(5) 0.4463(4) 0.7640(8)
H5_17 H 0.7687 0.7164 0.9244
O3_17 O 0.8871(4) 0.7743(5) 0.9306(8)
H5_18 H 0.9478 0.2313 0.9244
O3_18 O 0.8873(6) 0.1129(4) 0.9306(8)
loop_
_geom_bond_atom_site_label_1
_geom_bond_atom_site_label_2
_geom_bond_site_symmetry_1
_geom_bond_site_symmetry_2
Zn1 O1 1_555 1_555
O1 C5 1_555 1_555
N1 N3 1_555 1_555
O2 C5 1_555 1_555
C1 H1 1_555 1_555
H2 C1 1_555 1_555
N2 C1 1_555 1_555
H3 N2 1_555 1_555
N3 C4 1_555 1_555
C2 N1 1_555 1_555
H4 C2 1_555 1_555
C3 C2 1_555 1_555
C4 C3 1_555 1_555
H5 C4 1_555 1_555
C5 C1 1_555 1_555
C6 N2 1_555 1_555
O3 C6 1_555 1_555
Zn3 O2 1_555 1_555
N4 Zn1 1_555 1_555
N5 Zn1 1_555 1_555
C3 C6 1_555 1_555
Zn1_2 O1_2 1_555 1_555
O1_2 C5_2 1_555 1_555
N1_2 N3_2 1_555 1_555
O2_2 C5_2 1_555 1_555
C1_2 H1_2 1_555 1_555
H2_2 C1_2 1_555 1_555
N2_2 C1_2 1_555 1_555
H3_2 N2_2 1_555 1_555
N3_2 C4_2 1_555 1_555
C2_2 N1_2 1_555 1_555
H4_2 C2_2 1_555 1_555
C3_2 C2_2 1_555 1_555
C4_2 C3_2 1_555 1_555
H5_2 C4_2 1_555 1_555
C5_2 C1_2 1_555 1_555
C6_2 N2_2 1_555 1_555
O3_2 C6_2 1_555 1_555
Zn2_2 N3_2 1_555 1_555
Zn3_2 O2_2 1_555 1_555
C3_2 C6_2 1_555 1_555
Zn1_3 O1_3 1_555 1_555
O1_3 C5_3 1_555 1_555
N1_3 N3_3 1_555 1_555
O2_3 C5_3 1_555 1_555
C1_3 H1_3 1_555 1_555
H2_3 C1_3 1_555 1_555
N2_3 C1_3 1_555 1_555
H3_3 N2_3 1_555 1_555
N3_3 C4_3 1_555 1_555
C2_3 N1_3 1_555 1_555
H4_3 C2_3 1_555 1_555
C3_3 C2_3 1_555 1_555
C4_3 C3_3 1_555 1_555
H5_3 C4_3 1_555 1_555
C5_3 C1_3 1_555 1_555
C6_3 N2_3 1_555 1_555
O3_3 C6_3 1_555 1_555
Zn3_3 O2_3 1_555 1_555
C3_3 C6_3 1_555 1_555
Zn1_4 O1_4 1_555 1_555
O1_4 C5_4 1_555 1_555
N1_4 N3_4 1_555 1_555
O2_4 C5_4 1_555 1_555
C1_4 H1_4 1_555 1_555
H2_4 C1_4 1_555 1_555
N2_4 C1_4 1_555 1_555
H3_4 N2_4 1_555 1_555
N3_4 C4_4 1_555 1_555
C2_4 N1_4 1_555 1_555
H4_4 C2_4 1_555 1_555
C3_4 C2_4 1_555 1_555
C4_4 C3_4 1_555 1_555
H5_4 C4_4 1_555 1_555
C5_4 C1_4 1_555 1_555
C6_4 N2_4 1_555 1_555
O3_4 C6_4 1_555 1_555
Zn2_4 N3_4 1_555 1_555
Zn4 O2_4 1_555 1_555
Zn3 N1_4 1_555 1_555
O4_4 Zn1_4 1_555 1_555
C3_4 C6_4 1_555 1_555
Zn1_5 O1_5 1_555 1_555
O1_5 C5_5 1_555 1_555
N1_5 N3_5 1_555 1_555
O2_5 C5_5 1_555 1_555
C1_5 H1_5 1_555 1_555
H2_5 C1_5 1_555 1_555
N2_5 C1_5 1_555 1_555
H3_5 N2_5 1_555 1_555
N3_5 C4_5 1_555 1_555
C2_5 N1_5 1_555 1_555
H4_5 C2_5 1_555 1_555
C3_5 C2_5 1_555 1_555
C4_5 C3_5 1_555 1_555
H5_5 C4_5 1_555 1_555
C5_5 C1_5 1_555 1_555
C6_5 N2_5 1_555 1_555
O3_5 C6_5 1_555 1_555
Zn4_3 O2_5 1_555 1_555
Zn3_3 N1_5 1_555 1_555
O4_5 Zn1_5 1_555 1_555
C3_5 C6_5 1_555 1_555
Zn1_6 O1_6 1_555 1_555
O1_6 C5_6 1_555 1_555
N1_6 N3_6 1_555 1_555
O2_6 C5_6 1_555 1_555
C1_6 H1_6 1_555 1_555
H2_6 C1_6 1_555 1_555
N2_6 C1_6 1_555 1_555
H3_6 N2_6 1_555 1_555
N3_6 C4_6 1_555 1_555
C2_6 N1_6 1_555 1_555
H4_6 C2_6 1_555 1_555
C3_6 C2_6 1_555 1_555
C4_6 C3_6 1_555 1_555
H5_6 C4_6 1_555 1_555
C5_6 C1_6 1_555 1_555
C6_6 N2_6 1_555 1_555
O3_6 C6_6 1_555 1_555
Zn4_2 O2_6 1_555 1_555
Zn3_2 N1_6 1_555 1_555
N4_6 Zn1_6 1_555 1_555
O4_6 Zn1_6 1_555 1_555
N5_6 Zn1_6 1_555 1_555
C3_6 C6_6 1_555 1_555
Zn2_5 O1_7 1_555 1_555
O1_7 C5_7 1_555 1_555
N4_6 N3_7 1_555 1_555
C1_7 H1_7 1_555 1_555
H2_7 C1_7 1_555 1_555
N2_7 C1_7 1_555 1_555
H3_7 N2_7 1_555 1_555
N3_7 C4_7 1_555 1_555
C2_7 N4_6 1_555 1_555
H4_7 C2_7 1_555 1_555
C3_7 C2_7 1_555 1_555
C4_7 C3_7 1_555 1_555
C5_7 C1_7 1_555 1_555
C6_7 N2_7 1_555 1_555
Zn4_2 N3_7 1_555 1_555
N4_7 Zn2_5 1_555 1_555
O4_7 Zn2_5 1_555 1_555
C3_7 C6_7 1_555 1_555
Zn2_4 O1_8 1_555 1_555
O1_8 C5_8 1_555 1_555
N4_5 N3_8 1_555 1_555
O4 C5_8 1_555 1_555
C1_8 H1_8 1_555 1_555
H2_8 C1_8 1_555 1_555
N2_8 C1_8 1_555 1_555
H3_8 N2_8 1_555 1_555
N3_8 C4_8 1_555 1_555
C2_8 N4_5 1_555 1_555
H4_8 C2_8 1_555 1_555
C3_8 C2_8 1_555 1_555
C4_8 C3_8 1_555 1_555
C5_8 C1_8 1_555 1_555
C6_8 N2_8 1_555 1_555
N4_8 Zn2_4 1_555 1_555
O4_8 Zn2_4 1_555 1_555
C3_8 C6_8 1_555 1_555
Zn2_6 O1_9 1_555 1_555
O1_9 C5_9 1_555 1_555
N4_4 N3_9 1_555 1_555
C1_9 H1_9 1_555 1_555
H2_9 C1_9 1_555 1_555
N2_9 C1_9 1_555 1_555
H3_9 N2_9 1_555 1_555
N3_9 C4_9 1_555 1_555
C2_9 N4_4 1_555 1_555
H4_9 C2_9 1_555 1_555
C3_9 C2_9 1_555 1_555
C4_9 C3_9 1_555 1_555
C5_9 C1_9 1_555 1_555
C6_9 N2_9 1_555 1_555
N4_9 Zn2_6 1_555 1_555
O4_9 Zn2_6 1_555 1_555
C3_9 C6_9 1_555 1_555
Zn2_2 O1_10 1_555 1_555
O1_10 C5_10 1_555 1_555
N4_3 N3_10 1_555 1_555
O4_6 C5_10 1_555 1_555
C1_10 H1_10 1_555 1_555
H2_10 C1_10 1_555 1_555
N2_10 C1_10 1_555 1_555
H3_10 N2_10 1_555 1_555
N3_10 C4_10 1_555 1_555
C2_10 N4_3 1_555 1_555
H4_10 C2_10 1_555 1_555
C3_10 C2_10 1_555 1_555
C4_10 C3_10 1_555 1_555
H5_8 C4_10 1_555 1_555
C5_10 C1_10 1_555 1_555
C6_10 N2_10 1_555 1_555
O3_8 C6_10 1_555 1_555
N4_10 Zn2_2 1_555 1_555
O4_10 Zn2_2 1_555 1_555
C3_10 C6_10 1_555 1_555
Zn2 O1_11 1_555 1_555
O1_11 C5_11 1_555 1_555
N4_2 N3_11 1_555 1_555
C1_11 H1_11 1_555 1_555
H2_11 C1_11 1_555 1_555
N2_11 C1_11 1_555 1_555
H3_11 N2_11 1_555 1_555
N3_11 C4_11 1_555 1_555
C2_11 N4_2 1_555 1_555
H4_11 C2_11 1_555 1_555
C3_11 C2_11 1_555 1_555
C4_11 C3_11 1_555 1_555
H5_9 C4_11 1_555 1_555
C5_11 C1_11 1_555 1_555
C6_11 N2_11 1_555 1_555
O3_9 C6_11 1_555 1_555
N4_11 Zn2 1_555 1_555
O4_11 Zn2 1_555 1_555
C3_11 C6_11 1_555 1_555
Zn2_3 O1_12 1_555 1_555
O1_12 C5_12 1_555 1_555
N4 N3_12 1_555 1_555
C1_12 H1_12 1_555 1_555
H2_12 C1_12 1_555 1_555
N2_12 C1_12 1_555 1_555
H3_12 N2_12 1_555 1_555
N3_12 C4_12 1_555 1_555
C2_12 N4 1_555 1_555
H4_12 C2_12 1_555 1_555
C3_12 C2_12 1_555 1_555
C4_12 C3_12 1_555 1_555
H5_10 C4_12 1_555 1_555
C5_12 C1_12 1_555 1_555
C6_12 N2_12 1_555 1_555
O3_10 C6_12 1_555 1_555
Zn3 N3_12 1_555 1_555
N4_12 Zn2_3 1_555 1_555
O4_12 Zn2_3 1_555 1_555
C3_12 C6_12 1_555 1_555
O1_13 C5_13 1_555 1_555
N4_12 N5_5 1_555 1_555
O4_9 C5_13 1_555 1_555
C1_13 H1_13 1_555 1_555
H2_13 C1_13 1_555 1_555
N2_13 C1_13 1_555 1_555
H3_13 N2_13 1_555 1_555
N5_5 C4_13 1_555 1_555
C2_13 N4_12 1_555 1_555
H4_13 C2_13 1_555 1_555
C3_13 C2_13 1_555 1_555
C4_13 C3_13 1_555 1_555
H5_11 C4_13 1_555 1_555
C5_13 C1_13 1_555 1_555
C6_13 N2_13 1_555 1_555
O3_11 C6_13 1_555 1_555
C3_13 C6_13 1_555 1_555
O1_14 C5_14 1_555 1_555
N4_11 N5_4 1_555 1_555
O4_7 C5_14 1_555 1_555
C1_14 H1_14 1_555 1_555
H2_14 C1_14 1_555 1_555
N2_14 C1_14 1_555 1_555
H3_14 N2_14 1_555 1_555
N5_4 C4_14 1_555 1_555
C2_14 N4_11 1_555 1_555
H4_14 C2_14 1_555 1_555
C3_14 C2_14 1_555 1_555
C4_14 C3_14 1_555 1_555
H5_12 C4_14 1_555 1_555
C5_14 C1_14 1_555 1_555
C6_14 N2_14 1_555 1_555
O3_12 C6_14 1_555 1_555
C3_14 C6_14 1_555 1_555
Zn3 O1_15 1_555 1_555
O1_15 C5_15 1_555 1_555
N4_10 N5_6 1_555 1_555
O4_8 C5_15 1_555 1_555
C1_15 H1_15 1_555 1_555
H2_15 C1_15 1_555 1_555
N2_15 C1_15 1_555 1_555
H3_15 N2_15 1_555 1_555
N5_6 C4_15 1_555 1_555
C2_15 N4_10 1_555 1_555
H4_15 C2_15 1_555 1_555
C3_15 C2_15 1_555 1_555
C4_15 C3_15 1_555 1_555
H5_13 C4_15 1_555 1_555
C5_15 C1_15 1_555 1_555
C6_15 N2_15 1_555 1_555
O3_13 C6_15 1_555 1_555
C3_15 C6_15 1_555 1_555
C2_16 N4_9 1_555 1_555
H4_16 C2_16 1_555 1_555
O4_12 C5_16 1_555 1_555
H2_16 C1_16 1_555 1_555
N2_16 C1_16 1_555 1_555
N5_2 C4_16 1_555 1_555
C4_16 C3_16 1_555 1_555
H5_14 C4_16 1_555 1_555
C5_16 C1_16 1_555 1_555
C6_16 N2_16 1_555 1_555
O3_14 C6_16 1_555 1_555
C3_16 C6_16 1_555 1_555
Zn4_2 O1_17 1_555 1_555
C2_17 N4_8 1_555 1_555
H4_17 C2_17 1_555 1_555
O4_10 C5_17 1_555 1_555
H2_17 C1_17 1_555 1_555
N2_17 C1_17 1_555 1_555
N5 C4_17 1_555 1_555
C4_17 C3_17 1_555 1_555
H5_15 C4_17 1_555 1_555
C5_17 C1_17 1_555 1_555
C6_17 N2_17 1_555 1_555
O3_15 C6_17 1_555 1_555
C3_17 C6_17 1_555 1_555
C2_18 N4_7 1_555 1_555
H4_18 C2_18 1_555 1_555
O4_11 C5_18 1_555 1_555
H2_18 C1_18 1_555 1_555
N2_18 C1_18 1_555 1_555
N5_3 C4_18 1_555 1_555
C4_18 C3_18 1_555 1_555
H5_16 C4_18 1_555 1_555
C5_18 C1_18 1_555 1_555
C6_18 N2_18 1_555 1_555
O3_16 C6_18 1_555 1_555
C3_18 C6_18 1_555 1_555

#END
