
###############################################################################
#
# This file contains modified crystal structure data generated from the
# MOF subset of the Cambridge Structural Database (CSD) v543 
# hosted by the Cambridge Crystallographic Data Centre (CCDC).
#
# This work is licensed under the Creative Commons
# Attribution-NonCommercial-ShareAlike 4.0 International License.
# To view a copy of this license, visit
# http://creativecommons.org/licenses/by-nc-sa/4.0/
# or send a letter to
# Creative Commons, PO Box 1866, Mountain View, CA 94042, USA.
#
# CIF created using the CSD Python API on 29 September 2022
# The structure has been converted into the P1 space group
# The structure has a 3D framework
# The original CSD entry VUWTAL is in the rhombohedral crystal system
# The framework has been calculated to contain at least 10.0% void space
# The void calculation uses a probe of radius 1.32A, grid spacing 0.4
#
###############################################################################

data_VUWTAL
_chemical_formula_moiety         '(C108 H90 N54 O47 Zn13)n'
_symmetry_cell_setting           triclinic
_symmetry_space_group_name_H-M   'P 1'
_symmetry_Int_Tables_number      1
_space_group_name_Hall           'P 1'
loop_
_symmetry_equiv_pos_site_id
_symmetry_equiv_pos_as_xyz
1 x,y,z
_cell_length_a                   26.5867(14)
_cell_length_b                   26.5867(14)
_cell_length_c                   10.1323(4)
_cell_angle_alpha                90
_cell_angle_beta                 90
_cell_angle_gamma                120
_cell_volume                     6202.51
loop_
_atom_site_label
_atom_site_type_symbol
_atom_site_fract_x
_atom_site_fract_y
_atom_site_fract_z
Zn2 Zn 0.32398(5) 0.35206(5) 0.04297(12)
Zn1 Zn 0.64794(5) 0.67602(5) 0.54297(12)
O1 O 0.3200(3) 0.4021(3) 0.9045(6)
N1 N 0.5951(4) 0.6472(4) 0.6959(8)
N2 N 0.4149(4) 0.5394(4) 0.7678(8)
H1 H 0.4236 0.5506 0.6852
O2 O 0.4426(4) 0.5560(4) 0.9801(7)
N3 N 0.6119(6) 0.6499(4) 0.8236(8)
O3 O 0.3791(4) 0.4236(3) 0.7302(7)
C1 C 0.5155(5) 0.6012(5) 0.8159(10)
C2 C 0.4555(5) 0.5647(5) 0.8598(10)
C3 C 0.3563(4) 0.4937(4) 0.8001(10)
H2 H 0.3293 0.4918 0.7302
H3 H 0.3441 0.5034 0.8842
C4 C 0.5385(4) 0.6184(5) 0.6908(10)
H4 H 0.5162 0.6105 0.6123
C5 C 0.3520(4) 0.4359(4) 0.8127(10)
C6 C 0.5646(5) 0.6231(4) 0.8960(10)
H5 H 0.5641 0.6192 0.9893
Zn3 Zn 0.69475(7) 0.68539(5) 0.87630(12)
Zn4 Zn 0.36141(7) 0.34269(5) 0.70964(12)
O4 O 0.5979(3) 0.6800(3) 0.4045(6)
N4 N 0.6834(4) 0.6287(7) 0.4903(8)
O5 O 0.7112(5) 0.7569(3) 0.5635(7)
Zn3_2 Zn 0.31461(5) 0.00935(9) 0.87630(12)
Zn4_2 Zn 0.65731(5) 0.01873(9) 0.70964(12)
N4_2 N 0.3713(7) 0.0548(8) 0.4903(8)
Zn2_2 Zn 0.64794(5) 0.97192(7) 0.04297(12)
Zn1_2 Zn 0.32398(5) 0.97192(7) 0.54297(12)
O1_2 O 0.5979(3) 0.9179(4) 0.9045(6)
N1_2 N 0.3528(4) 0.9479(6) 0.6959(8)
N2_2 N 0.4606(4) 0.8755(6) 0.7678(8)
H1_2 H 0.4494 0.8730 0.6852
O2_2 O 0.4440(4) 0.8866(6) 0.9801(7)
N3_2 N 0.3501(4) 0.9620(7) 0.8236(8)
O3_2 O 0.5764(3) 0.9555(5) 0.7302(7)
C1_2 C 0.3988(5) 0.9143(7) 0.8159(10)
C2_2 C 0.4353(5) 0.8908(7) 0.8598(10)
C3_2 C 0.5063(4) 0.8626(6) 0.8001(10)
H2_2 H 0.5082 0.8375 0.7302
H3_2 H 0.4966 0.8407 0.8842
C4_2 C 0.3816(5) 0.9201(6) 0.6908(10)
H4_2 H 0.3895 0.9057 0.6123
C5_2 C 0.5641(4) 0.9161(6) 0.8127(10)
C6_2 C 0.3769(4) 0.9415(6) 0.8960(10)
H5_2 H 0.3808 0.9449 0.9893
O4_2 O 0.3200(3) 0.9179(4) 0.4045(6)
O5_2 O 0.2431(3) 0.9542(6) 0.5635(7)
Zn2_3 Zn 0.02808(7) 0.67602(5) 0.04297(12)
Zn1_3 Zn 0.02808(7) 0.35206(5) 0.54297(12)
O1_3 O 0.0821(4) 0.6800(3) 0.9045(6)
N1_3 N 0.0521(6) 0.4049(4) 0.6959(8)
N2_3 N 0.1245(6) 0.5851(4) 0.7678(8)
H1_3 H 0.1270 0.5764 0.6852
O2_3 O 0.1134(6) 0.5574(4) 0.9801(7)
N3_3 N 0.0380(7) 0.3881(6) 0.8236(8)
O3_3 O 0.0445(5) 0.6209(4) 0.7302(7)
C1_3 C 0.0857(7) 0.4845(5) 0.8159(10)
C2_3 C 0.1092(7) 0.5445(5) 0.8598(10)
C3_3 C 0.1374(6) 0.6437(4) 0.8001(10)
H2_3 H 0.1625 0.6707 0.7302
H3_3 H 0.1593 0.6559 0.8842
C4_3 C 0.0799(6) 0.4615(4) 0.6908(10)
H4_3 H 0.0943 0.4838 0.6123
C5_3 C 0.0839(6) 0.6480(4) 0.8127(10)
C6_3 C 0.0585(6) 0.4354(5) 0.8960(10)
H5_3 H 0.0551 0.4359 0.9893
O4_3 O 0.0821(4) 0.4021(3) 0.4045(6)
O5_3 O 0.0458(6) 0.2888(5) 0.5635(7)
Zn3_3 Zn 0.99065(9) 0.30525(7) 0.87630(12)
Zn4_3 Zn 0.98127(9) 0.63859(7) 0.70964(12)
N4_3 N 0.9452(8) 0.3166(4) 0.4903(8)
N1_4 N 0.0521(6) 0.6472(4) 0.1959(8)
N2_4 N 0.1245(6) 0.5394(4) 0.2678(8)
H1_4 H 0.1270 0.5506 0.1852
O2_4 O 0.1134(6) 0.5560(4) 0.4801(7)
N3_4 N 0.0380(7) 0.6499(4) 0.3236(8)
O3_4 O 0.0445(5) 0.4236(3) 0.2302(7)
C1_4 C 0.0857(7) 0.6012(5) 0.3159(10)
C2_4 C 0.1092(7) 0.5647(5) 0.3598(10)
C3_4 C 0.1374(6) 0.4937(4) 0.3001(10)
H2_4 H 0.1625 0.4918 0.2302
H3_4 H 0.1593 0.5034 0.3842
C4_4 C 0.0799(6) 0.6184(5) 0.1908(10)
H4_4 H 0.0943 0.6105 0.1123
C5_4 C 0.0839(6) 0.4359(4) 0.3127(10)
C6_4 C 0.0585(6) 0.6231(4) 0.3960(10)
H5_4 H 0.0551 0.6192 0.4893
O5_4 O 0.0458(6) 0.7569(3) 0.0635(7)
Zn3_4 Zn 0.99065(9) 0.68539(5) 0.37630(12)
Zn4_4 Zn 0.98127(9) 0.34269(5) 0.20964(12)
N4_4 N 0.9452(8) 0.6287(7) 0.9903(8)
Zn3_5 Zn 0.69475(7) 0.00935(9) 0.37630(12)
Zn4_5 Zn 0.36141(7) 0.01873(9) 0.20964(12)
N4_5 N 0.6834(4) 0.0548(8) 0.9903(8)
N1_5 N 0.5951(4) 0.9479(6) 0.1959(8)
N2_5 N 0.4149(4) 0.8755(6) 0.2678(8)
H1_5 H 0.4236 0.8730 0.1852
O2_5 O 0.4426(4) 0.8866(6) 0.4801(7)
N3_5 N 0.6119(6) 0.9620(7) 0.3236(8)
O3_5 O 0.3791(4) 0.9555(5) 0.2302(7)
C1_5 C 0.5155(5) 0.9143(7) 0.3159(10)
C2_5 C 0.4555(5) 0.8908(7) 0.3598(10)
C3_5 C 0.3563(4) 0.8626(6) 0.3001(10)
H2_5 H 0.3293 0.8375 0.2302
H3_5 H 0.3441 0.8407 0.3842
C4_5 C 0.5385(4) 0.9201(6) 0.1908(10)
H4_5 H 0.5162 0.9057 0.1123
C5_5 C 0.3520(4) 0.9161(6) 0.3127(10)
C6_5 C 0.5646(5) 0.9415(6) 0.3960(10)
H5_5 H 0.5641 0.9449 0.4893
O5_5 O 0.7112(5) 0.9542(6) 0.0635(7)
N1_6 N 0.3528(4) 0.4049(4) 0.1959(8)
N2_6 N 0.4606(4) 0.5851(4) 0.2678(8)
H1_6 H 0.4494 0.5764 0.1852
O2_6 O 0.4440(4) 0.5574(4) 0.4801(7)
N3_6 N 0.3501(4) 0.3881(6) 0.3236(8)
O3_6 O 0.5764(3) 0.6209(4) 0.2302(7)
C1_6 C 0.3988(5) 0.4845(5) 0.3159(10)
C2_6 C 0.4353(5) 0.5445(5) 0.3598(10)
C3_6 C 0.5063(4) 0.6437(4) 0.3001(10)
H2_6 H 0.5082 0.6707 0.2302
H3_6 H 0.4966 0.6559 0.3842
C4_6 C 0.3816(5) 0.4615(4) 0.1908(10)
H4_6 H 0.3895 0.4838 0.1123
C5_6 C 0.5641(4) 0.6480(4) 0.3127(10)
C6_6 C 0.3769(4) 0.4354(5) 0.3960(10)
H5_6 H 0.3808 0.4359 0.4893
Zn3_6 Zn 0.31461(5) 0.30525(7) 0.37630(12)
Zn4_6 Zn 0.65731(5) 0.63859(7) 0.20964(12)
O5_6 O 0.2431(3) 0.2888(5) 0.0635(7)
N4_6 N 0.3713(7) 0.3166(4) 0.9903(8)
O4_4 O 0.2646(3) 0.0133(3) 0.7378(6)
O5_7 O 0.3778(5) 0.0903(3) 0.8969(7)
N1_7 N 0.2618(4) 0.9805(4) 0.0292(8)
N2_7 N 0.0816(4) 0.8727(4) 0.1011(8)
H1_7 H 0.0903 0.8839 0.0185
O2_7 O 0.1093(4) 0.8893(4) 0.3134(7)
N3_7 N 0.2786(6) 0.9832(4) 0.1569(8)
C1_7 C 0.1822(5) 0.9345(5) 0.1492(10)
C2_7 C 0.1222(5) 0.8980(5) 0.1931(10)
C3_7 C 0.0230(4) 0.8270(4) 0.1334(10)
H3_7 H 0.0108 0.8367 0.2175
C4_7 C 0.2052(4) 0.9517(5) 0.0241(10)
C5_7 C 0.0187(4) 0.7692(4) 0.1460(10)
C6_7 C 0.2313(5) 0.9564(4) 0.2293(10)
H5_7 H 0.2308 0.9525 0.3226
H4_7 H 0.1829 0.9438 0.9456
O1_4 O 0.9867(3) 0.7354(3) 0.2378(6)
H2_7 H 0.9960 0.8251 0.0635
O1_5 O 0.2646(3) 0.2512(4) 0.2378(6)
N1_8 N 0.0195(4) 0.2812(6) 0.0292(8)
N2_8 N 0.1273(4) 0.2088(6) 0.1011(8)
H1_8 H 0.1161 0.2063 0.0185
O2_8 O 0.1107(4) 0.2199(6) 0.3134(7)
N3_8 N 0.0168(4) 0.2953(7) 0.1569(8)
C1_8 C 0.0655(5) 0.2476(7) 0.1492(10)
C2_8 C 0.1020(5) 0.2241(7) 0.1931(10)
C3_8 C 0.1730(4) 0.1959(6) 0.1334(10)
H2_8 H 0.1749 0.1708 0.0635
H3_8 H 0.1633 0.1740 0.2175
C4_8 C 0.0483(5) 0.2534(6) 0.0241(10)
C5_8 C 0.2308(4) 0.2494(6) 0.1460(10)
C6_8 C 0.0436(4) 0.2748(6) 0.2293(10)
H5_8 H 0.0475 0.2782 0.3226
H4_8 H 0.0562 0.2390 0.9456
O4_5 O 0.9867(3) 0.2512(4) 0.7378(6)
O5_8 O 0.9097(3) 0.2876(6) 0.8969(7)
O1_6 O 0.7488(4) 0.0133(3) 0.2378(6)
H2_9 H 0.8292 0.0040 0.0635
N1_9 N 0.7188(6) 0.7382(4) 0.0292(8)
N2_9 N 0.7912(6) 0.9184(4) 0.1011(8)
H1_9 H 0.7937 0.9097 0.0185
O2_9 O 0.7801(6) 0.8907(4) 0.3134(7)
N3_9 N 0.7047(7) 0.7214(6) 0.1569(8)
C1_9 C 0.7524(7) 0.8178(5) 0.1492(10)
C2_9 C 0.7759(7) 0.8778(5) 0.1931(10)
C3_9 C 0.8041(6) 0.9770(4) 0.1334(10)
H3_9 H 0.8260 0.9892 0.2175
C4_9 C 0.7466(6) 0.7948(4) 0.0241(10)
C5_9 C 0.7506(6) 0.9813(4) 0.1460(10)
C6_9 C 0.7252(6) 0.7687(5) 0.2293(10)
H5_9 H 0.7218 0.7692 0.3226
H4_9 H 0.7610 0.8171 0.9456
O4_6 O 0.7488(4) 0.7354(3) 0.7378(6)
O5_9 O 0.7124(6) 0.6222(5) 0.8969(7)
O5_10 O 0.7124(6) 0.0903(3) 0.3969(7)
N1_10 N 0.7188(6) 0.9805(4) 0.5292(8)
N2_10 N 0.7912(6) 0.8727(4) 0.6011(8)
H1_10 H 0.7937 0.8839 0.5185
O2_10 O 0.7801(6) 0.8893(4) 0.8134(7)
N3_10 N 0.7047(7) 0.9832(4) 0.6569(8)
C1_10 C 0.7524(7) 0.9345(5) 0.6492(10)
C2_10 C 0.7759(7) 0.8980(5) 0.6931(10)
C3_10 C 0.8041(6) 0.8270(4) 0.6334(10)
H2_10 H 0.8292 0.8251 0.5635
H3_10 H 0.8260 0.8367 0.7175
C4_10 C 0.7466(6) 0.9517(5) 0.5241(10)
H4_10 H 0.7610 0.9438 0.4456
C5_10 C 0.7506(6) 0.7692(4) 0.6460(10)
C6_10 C 0.7252(6) 0.9564(4) 0.7293(10)
H5_10 H 0.7218 0.9525 0.8226
N1_11 N 0.2618(4) 0.2812(6) 0.5292(8)
N2_11 N 0.0816(4) 0.2088(6) 0.6011(8)
H1_11 H 0.0903 0.2063 0.5185
O2_11 O 0.1093(4) 0.2199(6) 0.8134(7)
N3_11 N 0.2786(6) 0.2953(7) 0.6569(8)
C1_11 C 0.1822(5) 0.2476(7) 0.6492(10)
C2_11 C 0.1222(5) 0.2241(7) 0.6931(10)
C3_11 C 0.0230(4) 0.1959(6) 0.6334(10)
H3_11 H 0.0108 0.1740 0.7175
C4_11 C 0.2052(4) 0.2534(6) 0.5241(10)
H4_11 H 0.1829 0.2390 0.4456
C5_11 C 0.0187(4) 0.2494(6) 0.6460(10)
C6_11 C 0.2313(5) 0.2748(6) 0.7293(10)
H5_11 H 0.2308 0.2782 0.8226
O5_11 O 0.3778(5) 0.2876(6) 0.3969(7)
H2_11 H 0.9960 0.1708 0.5635
H2_12 H 0.1749 0.0040 0.5635
N1_12 N 0.0195(4) 0.7382(4) 0.5292(8)
N2_12 N 0.1273(4) 0.9184(4) 0.6011(8)
H1_12 H 0.1161 0.9097 0.5185
O2_12 O 0.1107(4) 0.8907(4) 0.8134(7)
N3_12 N 0.0168(4) 0.7214(6) 0.6569(8)
C1_12 C 0.0655(5) 0.8178(5) 0.6492(10)
C2_12 C 0.1020(5) 0.8778(5) 0.6931(10)
C3_12 C 0.1730(4) 0.9770(4) 0.6334(10)
H3_12 H 0.1633 0.9892 0.7175
C4_12 C 0.0483(5) 0.7948(4) 0.5241(10)
H4_12 H 0.0562 0.8171 0.4456
C5_12 C 0.2308(4) 0.9813(4) 0.6460(10)
C6_12 C 0.0436(4) 0.7687(5) 0.7293(10)
H5_12 H 0.0475 0.7692 0.8226
O5_12 O 0.9097(3) 0.6222(5) 0.3969(7)
O1_7 O 0.6533(3) 0.0688(3) 0.5712(6)
N1_13 N 0.9284(4) 0.3139(4) 0.3626(8)
N2_13 N 0.7482(4) 0.2061(4) 0.4345(8)
H1_13 H 0.7569 0.2173 0.3519
O2_13 O 0.7759(4) 0.2227(4) 0.6468(7)
C1_13 C 0.8488(5) 0.2679(5) 0.4826(10)
C2_13 C 0.7888(5) 0.2314(5) 0.5265(10)
C3_13 C 0.6896(4) 0.1604(4) 0.4668(10)
H2_13 H 0.6626 0.1585 0.3969
H3_13 H 0.6774 0.1701 0.5509
C4_13 C 0.8718(4) 0.2851(5) 0.3575(10)
H4_13 H 0.8495 0.2772 0.2790
C5_13 C 0.6853(4) 0.1026(4) 0.4794(10)
C6_13 C 0.8979(5) 0.2898(4) 0.5627(10)
H5_13 H 0.8974 0.2859 0.6560
O4_7 O 0.9312(3) 0.3467(3) 0.0712(6)
O1_8 O 0.9312(3) 0.5846(4) 0.5712(6)
N1_14 N 0.6861(4) 0.6146(6) 0.3626(8)
N2_14 N 0.7939(4) 0.5422(6) 0.4345(8)
H1_14 H 0.7827 0.5397 0.3519
O2_14 O 0.7773(4) 0.5533(6) 0.6468(7)
C1_14 C 0.7321(5) 0.5810(7) 0.4826(10)
C2_14 C 0.7686(5) 0.5575(7) 0.5265(10)
C3_14 C 0.8396(4) 0.5293(6) 0.4668(10)
H2_14 H 0.8415 0.5042 0.3969
H3_14 H 0.8299 0.5074 0.5509
C4_14 C 0.7149(5) 0.5868(6) 0.3575(10)
H4_14 H 0.7228 0.5724 0.2790
C5_14 C 0.8974(4) 0.5828(6) 0.4794(10)
C6_14 C 0.7102(4) 0.6082(6) 0.5627(10)
H5_14 H 0.7141 0.6116 0.6560
O4_8 O 0.6533(3) 0.5846(4) 0.0712(6)
O1_9 O 0.4154(4) 0.3467(3) 0.5712(6)
N1_15 N 0.3854(6) 0.0716(4) 0.3626(8)
N2_15 N 0.4578(6) 0.2518(4) 0.4345(8)
H1_15 H 0.4603 0.2431 0.3519
O2_15 O 0.4467(6) 0.2241(4) 0.6468(7)
C1_15 C 0.4190(7) 0.1512(5) 0.4826(10)
C2_15 C 0.4425(7) 0.2112(5) 0.5265(10)
C3_15 C 0.4707(6) 0.3104(4) 0.4668(10)
H2_15 H 0.4958 0.3374 0.3969
H3_15 H 0.4926 0.3226 0.5509
C4_15 C 0.4132(6) 0.1282(4) 0.3575(10)
H4_15 H 0.4276 0.1505 0.2790
C5_15 C 0.4172(6) 0.3147(4) 0.4794(10)
C6_15 C 0.3918(6) 0.1021(5) 0.5627(10)
H5_15 H 0.3884 0.1026 0.6560
O4_9 O 0.4154(4) 0.0688(3) 0.0712(6)
O2_16 O 0.4467(6) 0.2227(4) 0.1468(7)
C2_16 C 0.4425(7) 0.2314(5) 0.0265(10)
H3_16 H 0.4926 0.1701 0.0509
C6_16 C 0.3918(6) 0.2898(4) 0.0627(10)
H5_16 H 0.3884 0.2859 0.1560
N1_16 N 0.3854(6) 0.3139(4) 0.8626(8)
N2_16 N 0.4578(6) 0.2061(4) 0.9345(8)
H1_16 H 0.4603 0.2173 0.8519
C1_16 C 0.4190(7) 0.2679(5) 0.9826(10)
C3_16 C 0.4707(6) 0.1604(4) 0.9668(10)
H2_16 H 0.4958 0.1585 0.8969
C4_16 C 0.4132(6) 0.2851(5) 0.8575(10)
H4_16 H 0.4276 0.2772 0.7790
C5_16 C 0.4172(6) 0.1026(4) 0.9794(10)
O2_17 O 0.7759(4) 0.5533(6) 0.1468(7)
C2_17 C 0.7888(5) 0.5575(7) 0.0265(10)
H3_17 H 0.6774 0.5074 0.0509
C6_17 C 0.8979(5) 0.6082(6) 0.0627(10)
H5_17 H 0.8974 0.6116 0.1560
N1_17 N 0.9284(4) 0.6146(6) 0.8626(8)
N2_17 N 0.7482(4) 0.5422(6) 0.9345(8)
H1_17 H 0.7569 0.5397 0.8519
C1_17 C 0.8488(5) 0.5810(7) 0.9826(10)
C3_17 C 0.6896(4) 0.5293(6) 0.9668(10)
H2_17 H 0.6626 0.5042 0.8969
C4_17 C 0.8718(4) 0.5868(6) 0.8575(10)
H4_17 H 0.8495 0.5724 0.7790
C5_17 C 0.6853(4) 0.5828(6) 0.9794(10)
O2_18 O 0.7773(4) 0.2241(4) 0.1468(7)
C2_18 C 0.7686(5) 0.2112(5) 0.0265(10)
H3_18 H 0.8299 0.3226 0.0509
C6_18 C 0.7102(4) 0.1021(5) 0.0627(10)
H5_18 H 0.7141 0.1026 0.1560
N1_18 N 0.6861(4) 0.0716(4) 0.8626(8)
N2_18 N 0.7939(4) 0.2518(4) 0.9345(8)
H1_18 H 0.7827 0.2431 0.8519
C1_18 C 0.7321(5) 0.1512(5) 0.9826(10)
C3_18 C 0.8396(4) 0.3104(4) 0.9668(10)
H2_18 H 0.8415 0.3374 0.8969
C4_18 C 0.7149(5) 0.1282(4) 0.8575(10)
H4_18 H 0.7228 0.1505 0.7790
C5_18 C 0.8974(4) 0.3147(4) 0.9794(10)
loop_
_geom_bond_atom_site_label_1
_geom_bond_atom_site_label_2
_geom_bond_site_symmetry_1
_geom_bond_site_symmetry_2
Zn1 N1 1_555 1_555
O1 C5 1_555 1_555
N1 N3 1_555 1_555
N2 H1 1_555 1_555
O2 C2 1_555 1_555
N3 C6 1_555 1_555
O3 C5 1_555 1_555
C1 C2 1_555 1_555
C2 N2 1_555 1_555
C3 N2 1_555 1_555
H2 C3 1_555 1_555
H3 C3 1_555 1_555
C4 N1 1_555 1_555
H4 C4 1_555 1_555
C5 C3 1_555 1_555
C6 C1 1_555 1_555
H5 C6 1_555 1_555
Zn3 N3 1_555 1_555
Zn4 O3 1_555 1_555
O4 Zn1 1_555 1_555
N4 Zn1 1_555 1_555
O5 Zn1 1_555 1_555
C1 C4 1_555 1_555
Zn1_2 N1_2 1_555 1_555
O1_2 C5_2 1_555 1_555
N1_2 N3_2 1_555 1_555
N2_2 H1_2 1_555 1_555
O2_2 C2_2 1_555 1_555
N3_2 C6_2 1_555 1_555
O3_2 C5_2 1_555 1_555
C1_2 C2_2 1_555 1_555
C2_2 N2_2 1_555 1_555
C3_2 N2_2 1_555 1_555
H2_2 C3_2 1_555 1_555
H3_2 C3_2 1_555 1_555
C4_2 N1_2 1_555 1_555
H4_2 C4_2 1_555 1_555
C5_2 C3_2 1_555 1_555
C6_2 C1_2 1_555 1_555
H5_2 C6_2 1_555 1_555
O4_2 Zn1_2 1_555 1_555
O5_2 Zn1_2 1_555 1_555
C1_2 C4_2 1_555 1_555
Zn1_3 N1_3 1_555 1_555
O1_3 C5_3 1_555 1_555
N1_3 N3_3 1_555 1_555
N2_3 H1_3 1_555 1_555
O2_3 C2_3 1_555 1_555
N3_3 C6_3 1_555 1_555
O3_3 C5_3 1_555 1_555
C1_3 C2_3 1_555 1_555
C2_3 N2_3 1_555 1_555
C3_3 N2_3 1_555 1_555
H2_3 C3_3 1_555 1_555
H3_3 C3_3 1_555 1_555
C4_3 N1_3 1_555 1_555
H4_3 C4_3 1_555 1_555
C5_3 C3_3 1_555 1_555
C6_3 C1_3 1_555 1_555
H5_3 C6_3 1_555 1_555
O4_3 Zn1_3 1_555 1_555
O5_3 Zn1_3 1_555 1_555
C1_3 C4_3 1_555 1_555
Zn2_3 N1_4 1_555 1_555
O4_3 C5_4 1_555 1_555
N1_4 N3_4 1_555 1_555
N2_4 H1_4 1_555 1_555
O2_4 C2_4 1_555 1_555
N3_4 C6_4 1_555 1_555
O3_4 C5_4 1_555 1_555
C1_4 C2_4 1_555 1_555
C2_4 N2_4 1_555 1_555
C3_4 N2_4 1_555 1_555
H2_4 C3_4 1_555 1_555
H3_4 C3_4 1_555 1_555
C4_4 N1_4 1_555 1_555
H4_4 C4_4 1_555 1_555
C5_4 C3_4 1_555 1_555
C6_4 C1_4 1_555 1_555
H5_4 C6_4 1_555 1_555
O5_4 Zn2_3 1_555 1_555
C1_4 C4_4 1_555 1_555
Zn2_2 N1_5 1_555 1_555
O4_2 C5_5 1_555 1_555
N1_5 N3_5 1_555 1_555
N2_5 H1_5 1_555 1_555
O2_5 C2_5 1_555 1_555
N3_5 C6_5 1_555 1_555
O3_5 C5_5 1_555 1_555
C1_5 C2_5 1_555 1_555
C2_5 N2_5 1_555 1_555
C3_5 N2_5 1_555 1_555
H2_5 C3_5 1_555 1_555
H3_5 C3_5 1_555 1_555
C4_5 N1_5 1_555 1_555
H4_5 C4_5 1_555 1_555
C5_5 C3_5 1_555 1_555
C6_5 C1_5 1_555 1_555
H5_5 C6_5 1_555 1_555
O5_5 Zn2_2 1_555 1_555
C1_5 C4_5 1_555 1_555
Zn2 N1_6 1_555 1_555
O4 C5_6 1_555 1_555
N1_6 N3_6 1_555 1_555
N2_6 H1_6 1_555 1_555
O2_6 C2_6 1_555 1_555
N3_6 C6_6 1_555 1_555
O3_6 C5_6 1_555 1_555
C1_6 C2_6 1_555 1_555
C2_6 N2_6 1_555 1_555
C3_6 N2_6 1_555 1_555
H2_6 C3_6 1_555 1_555
H3_6 C3_6 1_555 1_555
C4_6 N1_6 1_555 1_555
H4_6 C4_6 1_555 1_555
C5_6 C3_6 1_555 1_555
C6_6 C1_6 1_555 1_555
H5_6 C6_6 1_555 1_555
Zn3_6 N3_6 1_555 1_555
Zn4_6 O3_6 1_555 1_555
O5_6 Zn2 1_555 1_555
C1_6 C4_6 1_555 1_555
O4_4 Zn3_2 1_555 1_555
O5_7 Zn3_2 1_555 1_555
N1_7 N3_7 1_555 1_555
N2_7 H1_7 1_555 1_555
O2_7 C2_7 1_555 1_555
N3_7 C6_7 1_555 1_555
O5_4 C5_7 1_555 1_555
C1_7 C2_7 1_555 1_555
C2_7 N2_7 1_555 1_555
C3_7 N2_7 1_555 1_555
H3_7 C3_7 1_555 1_555
C4_7 N1_7 1_555 1_555
C5_7 C3_7 1_555 1_555
C6_7 C1_7 1_555 1_555
H5_7 C6_7 1_555 1_555
C1_7 C4_7 1_555 1_555
Zn3_4 O1_4 1_555 1_555
O1_5 C5_8 1_555 1_555
N1_8 N3_8 1_555 1_555
N2_8 H1_8 1_555 1_555
O2_8 C2_8 1_555 1_555
N3_8 C6_8 1_555 1_555
O5_6 C5_8 1_555 1_555
C1_8 C2_8 1_555 1_555
C2_8 N2_8 1_555 1_555
C3_8 N2_8 1_555 1_555
H2_8 C3_8 1_555 1_555
H3_8 C3_8 1_555 1_555
C4_8 N1_8 1_555 1_555
C5_8 C3_8 1_555 1_555
C6_8 C1_8 1_555 1_555
H5_8 C6_8 1_555 1_555
Zn3_6 O1_5 1_555 1_555
C1_8 C4_8 1_555 1_555
O4_5 Zn3_3 1_555 1_555
O5_8 Zn3_3 1_555 1_555
Zn3_5 O1_6 1_555 1_555
N1_9 N3_9 1_555 1_555
N2_9 H1_9 1_555 1_555
O2_9 C2_9 1_555 1_555
N3_9 C6_9 1_555 1_555
O5_5 C5_9 1_555 1_555
C1_9 C2_9 1_555 1_555
C2_9 N2_9 1_555 1_555
C3_9 N2_9 1_555 1_555
H3_9 C3_9 1_555 1_555
C4_9 N1_9 1_555 1_555
C5_9 C3_9 1_555 1_555
C6_9 C1_9 1_555 1_555
H5_9 C6_9 1_555 1_555
Zn4_6 N3_9 1_555 1_555
C1_9 C4_9 1_555 1_555
O4_6 Zn3 1_555 1_555
O5_9 Zn3 1_555 1_555
O5_10 Zn3_5 1_555 1_555
O4_6 C5_10 1_555 1_555
N1_10 N3_10 1_555 1_555
N2_10 H1_10 1_555 1_555
O2_10 C2_10 1_555 1_555
N3_10 C6_10 1_555 1_555
O5 C5_10 1_555 1_555
C1_10 C2_10 1_555 1_555
C2_10 N2_10 1_555 1_555
C3_10 N2_10 1_555 1_555
H2_10 C3_10 1_555 1_555
H3_10 C3_10 1_555 1_555
C4_10 N1_10 1_555 1_555
H4_10 C4_10 1_555 1_555
C5_10 C3_10 1_555 1_555
C6_10 C1_10 1_555 1_555
H5_10 C6_10 1_555 1_555
C1_10 C4_10 1_555 1_555
Zn3_6 N1_11 1_555 1_555
N1_11 N3_11 1_555 1_555
N2_11 H1_11 1_555 1_555
O2_11 C2_11 1_555 1_555
N3_11 C6_11 1_555 1_555
O5_3 C5_11 1_555 1_555
C1_11 C2_11 1_555 1_555
C2_11 N2_11 1_555 1_555
C3_11 N2_11 1_555 1_555
H3_11 C3_11 1_555 1_555
C4_11 N1_11 1_555 1_555
H4_11 C4_11 1_555 1_555
C5_11 C3_11 1_555 1_555
C6_11 C1_11 1_555 1_555
H5_11 C6_11 1_555 1_555
Zn4 N3_11 1_555 1_555
O5_11 Zn3_6 1_555 1_555
C1_11 C4_11 1_555 1_555
N1_12 N3_12 1_555 1_555
N2_12 H1_12 1_555 1_555
O2_12 C2_12 1_555 1_555
N3_12 C6_12 1_555 1_555
O5_2 C5_12 1_555 1_555
C1_12 C2_12 1_555 1_555
C2_12 N2_12 1_555 1_555
C3_12 N2_12 1_555 1_555
H3_12 C3_12 1_555 1_555
C4_12 N1_12 1_555 1_555
H4_12 C4_12 1_555 1_555
C5_12 C3_12 1_555 1_555
C6_12 C1_12 1_555 1_555
H5_12 C6_12 1_555 1_555
C1_12 C4_12 1_555 1_555
O5_12 Zn3_4 1_555 1_555
Zn4_4 N1_13 1_555 1_555
O1_7 C5_13 1_555 1_555
N1_13 N4_3 1_555 1_555
N2_13 H1_13 1_555 1_555
O2_13 C2_13 1_555 1_555
N4_3 C6_13 1_555 1_555
O5_10 C5_13 1_555 1_555
C1_13 C2_13 1_555 1_555
C2_13 N2_13 1_555 1_555
C3_13 N2_13 1_555 1_555
H2_13 C3_13 1_555 1_555
H3_13 C3_13 1_555 1_555
C4_13 N1_13 1_555 1_555
H4_13 C4_13 1_555 1_555
C5_13 C3_13 1_555 1_555
C6_13 C1_13 1_555 1_555
H5_13 C6_13 1_555 1_555
Zn4_2 O1_7 1_555 1_555
O4_7 Zn4_4 1_555 1_555
C1_13 C4_13 1_555 1_555
Zn4_6 N1_14 1_555 1_555
O1_8 C5_14 1_555 1_555
N1_14 N4 1_555 1_555
N2_14 H1_14 1_555 1_555
O2_14 C2_14 1_555 1_555
N4 C6_14 1_555 1_555
O5_12 C5_14 1_555 1_555
C1_14 C2_14 1_555 1_555
C2_14 N2_14 1_555 1_555
C3_14 N2_14 1_555 1_555
H2_14 C3_14 1_555 1_555
H3_14 C3_14 1_555 1_555
C4_14 N1_14 1_555 1_555
H4_14 C4_14 1_555 1_555
C5_14 C3_14 1_555 1_555
C6_14 C1_14 1_555 1_555
H5_14 C6_14 1_555 1_555
Zn4_3 O1_8 1_555 1_555
O4_8 Zn4_6 1_555 1_555
C1_14 C4_14 1_555 1_555
Zn4_5 N1_15 1_555 1_555
O1_9 C5_15 1_555 1_555
N1_15 N4_2 1_555 1_555
N2_15 H1_15 1_555 1_555
O2_15 C2_15 1_555 1_555
N4_2 C6_15 1_555 1_555
O5_11 C5_15 1_555 1_555
C1_15 C2_15 1_555 1_555
C2_15 N2_15 1_555 1_555
C3_15 N2_15 1_555 1_555
H2_15 C3_15 1_555 1_555
H3_15 C3_15 1_555 1_555
C4_15 N1_15 1_555 1_555
H4_15 C4_15 1_555 1_555
C5_15 C3_15 1_555 1_555
C6_15 C1_15 1_555 1_555
H5_15 C6_15 1_555 1_555
Zn4 O1_9 1_555 1_555
O4_9 Zn4_5 1_555 1_555
C1_15 C4_15 1_555 1_555
O2_16 C2_16 1_555 1_555
H5_16 C6_16 1_555 1_555
Zn4 N1_16 1_555 1_555
N1_16 N4_6 1_555 1_555
N2_16 H1_16 1_555 1_555
O5_7 C5_16 1_555 1_555
C3_16 N2_16 1_555 1_555
H2_16 C3_16 1_555 1_555
C4_16 N1_16 1_555 1_555
H4_16 C4_16 1_555 1_555
C5_16 C3_16 1_555 1_555
C1_16 C4_16 1_555 1_555
O2_17 C2_17 1_555 1_555
H5_17 C6_17 1_555 1_555
Zn4_3 N1_17 1_555 1_555
N1_17 N4_4 1_555 1_555
N2_17 H1_17 1_555 1_555
O5_9 C5_17 1_555 1_555
C3_17 N2_17 1_555 1_555
H2_17 C3_17 1_555 1_555
C4_17 N1_17 1_555 1_555
H4_17 C4_17 1_555 1_555
C5_17 C3_17 1_555 1_555
C1_17 C4_17 1_555 1_555
O2_18 C2_18 1_555 1_555
H5_18 C6_18 1_555 1_555
Zn4_2 N1_18 1_555 1_555
N1_18 N4_5 1_555 1_555
N2_18 H1_18 1_555 1_555
O5_8 C5_18 1_555 1_555
C3_18 N2_18 1_555 1_555
H2_18 C3_18 1_555 1_555
C4_18 N1_18 1_555 1_555
H4_18 C4_18 1_555 1_555
C5_18 C3_18 1_555 1_555
C1_18 C4_18 1_555 1_555

#END
