
###############################################################################
#
# This file contains modified crystal structure data generated from the
# MOF subset of the Cambridge Structural Database (CSD) v543 
# hosted by the Cambridge Crystallographic Data Centre (CCDC).
#
# This work is licensed under the Creative Commons
# Attribution-NonCommercial-ShareAlike 4.0 International License.
# To view a copy of this license, visit
# http://creativecommons.org/licenses/by-nc-sa/4.0/
# or send a letter to
# Creative Commons, PO Box 1866, Mountain View, CA 94042, USA.
#
# CIF created using the CSD Python API on 29 September 2022
# The structure has been converted into the P1 space group
# The structure has a 3D framework
# The original CSD entry VUWVAN02 is in the rhombohedral crystal system
# The framework has been calculated to contain at least 10.0% void space
# The void calculation uses a probe of radius 1.32A, grid spacing 0.4
#
###############################################################################

data_VUWVAN02
_chemical_formula_moiety         '(C108 H90 N54 O51 Zn14)n'
_symmetry_cell_setting           triclinic
_symmetry_space_group_name_H-M   'P 1'
_symmetry_Int_Tables_number      1
_space_group_name_Hall           'P 1'
loop_
_symmetry_equiv_pos_site_id
_symmetry_equiv_pos_as_xyz
1 x,y,z
_cell_length_a                   28.6002(7)
_cell_length_b                   28.6002(7)
_cell_length_c                   10.14949(19)
_cell_angle_alpha                90
_cell_angle_beta                 90
_cell_angle_gamma                120
_cell_volume                     7189.74
loop_
_atom_site_label
_atom_site_type_symbol
_atom_site_fract_x
_atom_site_fract_y
_atom_site_fract_z
N1 N 0.52712(16) 0.09559(16) 0.0939(4)
H1 H 0.5345 0.0937 0.1772
N2 N 0.63765(17) 0.03955(23) 0.1630(3)
O2 O 0.41544(13) 0.02889(13) 0.1282(3)
C2 C 0.48911(19) 0.1128(2) 0.0600(4)
H3 H 0.4898 0.1375 0.1293
C3 C 0.60517(19) 0.05971(28) 0.1690(4)
H4 H 0.5949 0.0702 0.2477
N3 N 0.64261(16) 0.02866(17) 0.0341(4)
C4 C 0.43192(18) 0.06655(19) 0.0448(4)
C6 C 0.58789(19) 0.06324(27) 0.0425(4)
Zn4 Zn 0.67057(2) 0.02386(3) 0.31413(6)
N5 N 0.30467(17) 0.02406(16) 0.2008(4)
O1 O 0.54350(15) 0.08646(15) 0.8809(3)
C1 C 0.55139(19) 0.08239(19) 0.9994(4)
O3 O 0.40356(13) 0.06934(19) 0.9531(3)
H2 H 0.5006 0.1333 0.9763
C5 C 0.6129(2) 0.0429(2) 0.9624(4)
H5 H 0.6092 0.0396 0.8693
Zn3 Zn 0.35328(2) 0.02386(3) 0.81413(6)
Zn1 Zn 0.33724(2) 0.98005(2) 0.14746(6)
O4 O 0.33245(23) 0.92977(13) 0.2864(3)
Zn2 Zn 0.68662(2) 0.99609(2) 0.98079(6)
N4 N 0.30432(17) 0.93143(29) 0.9963(3)
Zn1_2 Zn 0.01995(2) 0.35719(3) 0.14746(6)
O4_2 O 0.07023(13) 0.40267(26) 0.2864(3)
Zn2_2 Zn 0.00391(2) 0.69052(3) 0.98079(6)
N4_2 N 0.06857(29) 0.37288(34) 0.9963(3)
N1_2 N 0.90441(16) 0.43153(23) 0.0939(4)
H1_2 H 0.9063 0.4408 0.1772
N2_2 N 0.96045(23) 0.59810(29) 0.1630(3)
O2_2 O 0.97111(13) 0.38655(18) 0.1282(3)
C2_2 C 0.8872(2) 0.37631(28) 0.0600(4)
H3_2 H 0.8625 0.3523 0.1293
C3_2 C 0.94029(28) 0.54546(34) 0.1690(4)
H4_2 H 0.9298 0.5247 0.2477
N3_2 N 0.97134(17) 0.61395(23) 0.0341(4)
C4_2 C 0.93345(19) 0.36537(26) 0.0448(4)
C6_2 C 0.93676(27) 0.52465(33) 0.0425(4)
Zn4_2 Zn 0.97614(3) 0.64672(4) 0.31413(6)
N5_2 N 0.97594(16) 0.28062(23) 0.2008(4)
O1_2 O 0.91354(15) 0.45704(21) 0.8809(3)
C1_2 C 0.91761(19) 0.46900(27) 0.9994(4)
O3_2 O 0.93066(19) 0.33422(23) 0.9531(3)
H2_2 H 0.8667 0.3673 0.9763
C5_2 C 0.9571(2) 0.5700(3) 0.9624(4)
H5_2 H 0.9604 0.5696 0.8693
Zn3_2 Zn 0.97614(3) 0.32943(4) 0.81413(6)
Zn1_3 Zn 0.64281(3) 0.66276(2) 0.14746(6)
N1_3 N 0.56847(23) 0.47288(16) 0.0939(4)
H1_3 H 0.5592 0.4655 0.1772
N2_3 N 0.40190(29) 0.36235(17) 0.1630(3)
O2_3 O 0.61345(18) 0.58456(13) 0.1282(3)
C2_3 C 0.62369(28) 0.51089(19) 0.0600(4)
H3_3 H 0.6477 0.5102 0.1293
C3_3 C 0.45454(34) 0.39483(19) 0.1690(4)
H4_3 H 0.4753 0.4051 0.2477
N3_3 N 0.38605(23) 0.35739(16) 0.0341(4)
C4_3 C 0.63463(26) 0.56808(18) 0.0448(4)
C6_3 C 0.47535(33) 0.41211(19) 0.0425(4)
Zn4_3 Zn 0.35328(4) 0.32943(2) 0.31413(6)
O4_3 O 0.59733(26) 0.66755(23) 0.2864(3)
N5_3 N 0.71938(23) 0.69533(17) 0.2008(4)
O1_3 O 0.54296(21) 0.45650(15) 0.8809(3)
C1_3 C 0.53100(27) 0.44861(19) 0.9994(4)
O3_3 O 0.66578(23) 0.59644(13) 0.9531(3)
H2_3 H 0.6327 0.4994 0.9763
C5_3 C 0.4300(3) 0.3871(2) 0.9624(4)
H5_3 H 0.4304 0.3908 0.8693
Zn2_3 Zn 0.30948(3) 0.31338(2) 0.98079(6)
Zn3_3 Zn 0.67057(4) 0.64672(2) 0.81413(6)
N4_3 N 0.62712(34) 0.69568(17) 0.9963(3)
O1_4 O 0.54296(21) 0.08646(15) 0.3809(3)
N1_4 N 0.56847(23) 0.09559(16) 0.5939(4)
H1_4 H 0.5592 0.0937 0.6772
C1_4 C 0.53100(27) 0.08239(19) 0.4994(4)
N2_4 N 0.40190(29) 0.03955(23) 0.6630(3)
O2_4 O 0.61345(18) 0.02889(13) 0.6282(3)
O3_4 O 0.66578(23) 0.06934(19) 0.4531(3)
C2_4 C 0.62369(28) 0.1128(2) 0.5600(4)
H2_4 H 0.6327 0.1333 0.4763
H3_4 H 0.6477 0.1375 0.6293
C3_4 C 0.45454(34) 0.05971(28) 0.6690(4)
H4_4 H 0.4753 0.0702 0.7477
N3_4 N 0.38605(23) 0.02866(17) 0.5341(4)
C4_4 C 0.63463(26) 0.06655(19) 0.5448(4)
C5_4 C 0.4300(3) 0.0429(2) 0.4624(4)
H5_4 H 0.4304 0.0396 0.3693
C6_4 C 0.47535(33) 0.06324(27) 0.5425(4)
N5_4 N 0.71938(23) 0.02406(16) 0.7008(4)
Zn1_4 Zn 0.64281(3) 0.98005(2) 0.64746(6)
Zn2_4 Zn 0.30948(3) 0.99609(2) 0.48079(6)
N4_4 N 0.62712(34) 0.93143(29) 0.4963(3)
O4_4 O 0.59733(26) 0.92977(13) 0.7864(3)
Zn1_5 Zn 0.33724(2) 0.35719(3) 0.64746(6)
O1_5 O 0.54350(15) 0.45704(21) 0.3809(3)
N1_5 N 0.52712(16) 0.43153(23) 0.5939(4)
H1_5 H 0.5345 0.4408 0.6772
C1_5 C 0.55139(19) 0.46900(27) 0.4994(4)
N2_5 N 0.63765(17) 0.59810(29) 0.6630(3)
O2_5 O 0.41544(13) 0.38655(18) 0.6282(3)
O3_5 O 0.40356(13) 0.33422(23) 0.4531(3)
C2_5 C 0.48911(19) 0.37631(28) 0.5600(4)
H2_5 H 0.5006 0.3673 0.4763
H3_5 H 0.4898 0.3523 0.6293
C3_5 C 0.60517(19) 0.54546(34) 0.6690(4)
H4_5 H 0.5949 0.5247 0.7477
N3_5 N 0.64261(16) 0.61395(23) 0.5341(4)
C4_5 C 0.43192(18) 0.36537(26) 0.5448(4)
C5_5 C 0.6129(2) 0.5700(3) 0.4624(4)
H5_5 H 0.6092 0.5696 0.3693
C6_5 C 0.58789(19) 0.52465(33) 0.5425(4)
Zn2_5 Zn 0.68662(2) 0.69052(3) 0.48079(6)
N4_5 N 0.30432(17) 0.37288(34) 0.4963(3)
O4_5 O 0.33245(23) 0.40267(26) 0.7864(3)
N5_5 N 0.30467(17) 0.28062(23) 0.7008(4)
Zn1_6 Zn 0.01995(2) 0.66276(2) 0.64746(6)
Zn2_6 Zn 0.00391(2) 0.31338(2) 0.48079(6)
N4_6 N 0.06857(29) 0.69568(17) 0.4963(3)
O4_6 O 0.07023(13) 0.66755(23) 0.7864(3)
O1_6 O 0.91354(15) 0.45650(15) 0.3809(3)
N1_6 N 0.90441(16) 0.47288(16) 0.5939(4)
H1_6 H 0.9063 0.4655 0.6772
C1_6 C 0.91761(19) 0.44861(19) 0.4994(4)
N2_6 N 0.96045(23) 0.36235(17) 0.6630(3)
O2_6 O 0.97111(13) 0.58456(13) 0.6282(3)
O3_6 O 0.93066(19) 0.59644(13) 0.4531(3)
C2_6 C 0.8872(2) 0.51089(19) 0.5600(4)
H2_6 H 0.8667 0.4994 0.4763
H3_6 H 0.8625 0.5102 0.6293
C3_6 C 0.94029(28) 0.39483(19) 0.6690(4)
H4_6 H 0.9298 0.4051 0.7477
N3_6 N 0.97134(17) 0.35739(16) 0.5341(4)
C4_6 C 0.93345(19) 0.56808(18) 0.5448(4)
C5_6 C 0.9571(2) 0.3871(2) 0.4624(4)
H5_6 H 0.9604 0.3908 0.3693
C6_6 C 0.93676(27) 0.41211(19) 0.5425(4)
N5_6 N 0.97594(16) 0.69533(17) 0.7008(4)
O1_7 O 0.21017(15) 0.41979(15) 0.2142(3)
N1_7 N 0.19379(16) 0.42892(16) 0.4272(4)
H1_7 H 0.2012 0.4270 0.5105
C1_7 C 0.21806(19) 0.41572(19) 0.3327(4)
O2_7 O 0.08211(13) 0.36222(13) 0.4615(3)
C2_7 C 0.15578(19) 0.4461(2) 0.3933(4)
H2_7 H 0.1673 0.4666 0.3096
H3_7 H 0.1565 0.4708 0.4626
C3_7 C 0.27184(19) 0.39304(28) 0.5023(4)
H4_7 H 0.2616 0.4035 0.5810
N3_7 N 0.30928(16) 0.36199(17) 0.3674(4)
C4_7 C 0.09859(18) 0.39988(19) 0.3781(4)
C5_7 C 0.2796(2) 0.3762(2) 0.2957(4)
H5_7 H 0.2759 0.3729 0.2026
C6_7 C 0.25456(19) 0.39657(27) 0.3758(4)
N4_7 N 0.97098(17) 0.26477(29) 0.3297(3)
O4_7 O 0.99911(23) 0.26311(13) 0.6198(3)
O1_8 O 0.58021(15) 0.79037(21) 0.2142(3)
N1_8 N 0.57108(16) 0.76486(23) 0.4272(4)
H1_8 H 0.5730 0.7741 0.5105
C1_8 C 0.58428(19) 0.80233(27) 0.3327(4)
O2_8 O 0.63778(13) 0.71988(18) 0.4615(3)
C2_8 C 0.5539(2) 0.70964(28) 0.3933(4)
H2_8 H 0.5334 0.7006 0.3096
H3_8 H 0.5292 0.6856 0.4626
C3_8 C 0.60696(28) 0.87879(34) 0.5023(4)
H4_8 H 0.5965 0.8580 0.5810
N3_8 N 0.63801(17) 0.94728(23) 0.3674(4)
C4_8 C 0.60012(19) 0.69870(26) 0.3781(4)
C5_8 C 0.6238(2) 0.9033(3) 0.2957(4)
H5_8 H 0.6271 0.9029 0.2026
C6_8 C 0.60343(27) 0.85798(33) 0.3758(4)
N4_8 N 0.73523(29) 0.70622(34) 0.3297(3)
O4_8 O 0.73689(13) 0.73601(26) 0.6198(3)
N4_9 N 0.29378(34) 0.02902(17) 0.3297(3)
O4_9 O 0.26399(26) 0.00089(23) 0.6198(3)
O1_9 O 0.20963(21) 0.78983(15) 0.2142(3)
N1_9 N 0.23514(23) 0.80621(16) 0.4272(4)
H1_9 H 0.2259 0.7988 0.5105
C1_9 C 0.19767(27) 0.78194(19) 0.3327(4)
O2_9 O 0.28012(18) 0.91789(13) 0.4615(3)
C2_9 C 0.29036(28) 0.84422(19) 0.3933(4)
H2_9 H 0.2994 0.8327 0.3096
H3_9 H 0.3144 0.8435 0.4626
C3_9 C 0.12121(34) 0.72816(19) 0.5023(4)
H4_9 H 0.1420 0.7384 0.5810
N3_9 N 0.05272(23) 0.69072(16) 0.3674(4)
C4_9 C 0.30130(26) 0.90141(18) 0.3781(4)
C5_9 C 0.0967(3) 0.7204(2) 0.2957(4)
H5_9 H 0.0971 0.7241 0.2026
C6_9 C 0.14202(33) 0.74544(19) 0.3758(4)
H1_10 H 0.2259 0.4270 0.0105
C3_10 C 0.12121(34) 0.39304(28) 0.0023(4)
H4_10 H 0.1420 0.4035 0.0810
O4_10 O 0.26399(26) 0.26311(13) 0.1198(3)
O1_10 O 0.20963(21) 0.41979(15) 0.7142(3)
N1_10 N 0.23514(23) 0.42892(16) 0.9272(4)
C1_10 C 0.19767(27) 0.41572(19) 0.8327(4)
O2_10 O 0.28012(18) 0.36222(13) 0.9615(3)
C2_10 C 0.29036(28) 0.4461(2) 0.8933(4)
H2_10 H 0.2994 0.4666 0.8096
H3_10 H 0.3144 0.4708 0.9626
N3_10 N 0.05272(23) 0.36199(17) 0.8674(4)
C4_10 C 0.30130(26) 0.39988(19) 0.8781(4)
C5_10 C 0.0967(3) 0.3762(2) 0.7957(4)
H5_10 H 0.0971 0.3729 0.7026
C6_10 C 0.14202(33) 0.39657(27) 0.8758(4)
N4_10 N 0.29378(34) 0.26477(29) 0.8297(3)
H1_11 H 0.2012 0.7741 0.0105
C3_11 C 0.27184(19) 0.87879(34) 0.0023(4)
H4_11 H 0.2616 0.8580 0.0810
O1_11 O 0.21017(15) 0.79037(21) 0.7142(3)
N1_11 N 0.19379(16) 0.76486(23) 0.9272(4)
C1_11 C 0.21806(19) 0.80233(27) 0.8327(4)
O2_11 O 0.08211(13) 0.71988(18) 0.9615(3)
C2_11 C 0.15578(19) 0.70964(28) 0.8933(4)
H2_11 H 0.1673 0.7006 0.8096
H3_11 H 0.1565 0.6856 0.9626
N3_11 N 0.30928(16) 0.94728(23) 0.8674(4)
C4_11 C 0.09859(18) 0.69870(26) 0.8781(4)
C5_11 C 0.2796(2) 0.9033(3) 0.7957(4)
H5_11 H 0.2759 0.9029 0.7026
C6_11 C 0.25456(19) 0.85798(33) 0.8758(4)
O4_11 O 0.99911(23) 0.73601(26) 0.1198(3)
N4_11 N 0.97098(17) 0.70622(34) 0.8297(3)
O4_12 O 0.73689(13) 0.00089(23) 0.1198(3)
N4_12 N 0.73523(29) 0.02902(17) 0.8297(3)
H1_12 H 0.5730 0.7988 0.0105
C3_12 C 0.60696(28) 0.72816(19) 0.0023(4)
H4_12 H 0.5965 0.7384 0.0810
O1_12 O 0.58021(15) 0.78983(15) 0.7142(3)
N1_12 N 0.57108(16) 0.80621(16) 0.9272(4)
C1_12 C 0.58428(19) 0.78194(19) 0.8327(4)
O2_12 O 0.63778(13) 0.91789(13) 0.9615(3)
C2_12 C 0.5539(2) 0.84422(19) 0.8933(4)
H2_12 H 0.5334 0.8327 0.8096
H3_12 H 0.5292 0.8435 0.9626
N3_12 N 0.63801(17) 0.69072(16) 0.8674(4)
C4_12 C 0.60012(19) 0.90141(18) 0.8781(4)
C5_12 C 0.6238(2) 0.7204(2) 0.7957(4)
H5_12 H 0.6271 0.7241 0.7026
C6_12 C 0.60343(27) 0.74544(19) 0.8758(4)
O1_13 O 0.87683(15) 0.75313(15) 0.5476(3)
N1_13 N 0.86045(16) 0.76226(16) 0.7606(4)
H1_13 H 0.8678 0.7604 0.8439
C1_13 C 0.88472(19) 0.74906(19) 0.6661(4)
O2_13 O 0.74877(13) 0.69556(13) 0.7949(3)
C2_13 C 0.82244(19) 0.7795(2) 0.7267(4)
H2_13 H 0.8339 0.8000 0.6430
H3_13 H 0.8231 0.8042 0.7960
C3_13 C 0.93850(19) 0.72638(28) 0.8357(4)
H4_13 H 0.9282 0.7369 0.9144
C4_13 C 0.76525(18) 0.73322(19) 0.7115(4)
C5_13 C 0.9462(2) 0.7096(2) 0.6291(4)
H5_13 H 0.9425 0.7063 0.5360
C6_13 C 0.92122(19) 0.72991(27) 0.7092(4)
O1_14 O 0.24687(15) 0.12371(21) 0.5476(3)
N1_14 N 0.23774(16) 0.09820(23) 0.7606(4)
H1_14 H 0.2396 0.1075 0.8439
C1_14 C 0.25094(19) 0.13567(27) 0.6661(4)
O2_14 O 0.30444(13) 0.05322(18) 0.7949(3)
C2_14 C 0.2205(2) 0.04298(28) 0.7267(4)
H2_14 H 0.2000 0.0340 0.6430
H3_14 H 0.1958 0.0190 0.7960
C3_14 C 0.27362(28) 0.21213(34) 0.8357(4)
H4_14 H 0.2631 0.1914 0.9144
C4_14 C 0.26678(19) 0.03204(26) 0.7115(4)
C5_14 C 0.2904(2) 0.2367(3) 0.6291(4)
H5_14 H 0.2937 0.2363 0.5360
C6_14 C 0.27009(27) 0.19132(33) 0.7092(4)
O1_15 O 0.87629(21) 0.12317(15) 0.5476(3)
N1_15 N 0.90180(23) 0.13955(16) 0.7606(4)
H1_15 H 0.8925 0.1322 0.8439
C1_15 C 0.86433(27) 0.11528(19) 0.6661(4)
O2_15 O 0.94678(18) 0.25123(13) 0.7949(3)
C2_15 C 0.95702(28) 0.17756(19) 0.7267(4)
H2_15 H 0.9660 0.1661 0.6430
H3_15 H 0.9810 0.1769 0.7960
C3_15 C 0.78787(34) 0.06150(19) 0.8357(4)
H4_15 H 0.8086 0.0718 0.9144
C4_15 C 0.96796(26) 0.23475(18) 0.7115(4)
C5_15 C 0.7633(3) 0.0538(2) 0.6291(4)
H5_15 H 0.7637 0.0575 0.5360
C6_15 C 0.80868(33) 0.07878(19) 0.7092(4)
O1_16 O 0.87629(21) 0.75313(15) 0.0476(3)
N1_16 N 0.90180(23) 0.76226(16) 0.2606(4)
H1_16 H 0.8925 0.7604 0.3439
C1_16 C 0.86433(27) 0.74906(19) 0.1661(4)
O2_16 O 0.94678(18) 0.69556(13) 0.2949(3)
C2_16 C 0.95702(28) 0.7795(2) 0.2267(4)
H2_16 H 0.9660 0.8000 0.1430
H3_16 H 0.9810 0.8042 0.2960
C3_16 C 0.78787(34) 0.72638(28) 0.3357(4)
H4_16 H 0.8086 0.7369 0.4144
C4_16 C 0.96796(26) 0.73322(19) 0.2115(4)
C5_16 C 0.7633(3) 0.7096(2) 0.1291(4)
H5_16 H 0.7637 0.7063 0.0360
C6_16 C 0.80868(33) 0.72991(27) 0.2092(4)
O1_17 O 0.87683(15) 0.12371(21) 0.0476(3)
N1_17 N 0.86045(16) 0.09820(23) 0.2606(4)
H1_17 H 0.8678 0.1075 0.3439
C1_17 C 0.88472(19) 0.13567(27) 0.1661(4)
O2_17 O 0.74877(13) 0.05322(18) 0.2949(3)
C2_17 C 0.82244(19) 0.04298(28) 0.2267(4)
H2_17 H 0.8339 0.0340 0.1430
H3_17 H 0.8231 0.0190 0.2960
C3_17 C 0.93850(19) 0.21213(34) 0.3357(4)
H4_17 H 0.9282 0.1914 0.4144
C4_17 C 0.76525(18) 0.03204(26) 0.2115(4)
C5_17 C 0.9462(2) 0.2367(3) 0.1291(4)
H5_17 H 0.9425 0.2363 0.0360
C6_17 C 0.92122(19) 0.19132(33) 0.2092(4)
O1_18 O 0.24687(15) 0.12317(15) 0.0476(3)
N1_18 N 0.23774(16) 0.13955(16) 0.2606(4)
H1_18 H 0.2396 0.1322 0.3439
C1_18 C 0.25094(19) 0.11528(19) 0.1661(4)
O2_18 O 0.30444(13) 0.25123(13) 0.2949(3)
C2_18 C 0.2205(2) 0.17756(19) 0.2267(4)
H2_18 H 0.2000 0.1661 0.1430
H3_18 H 0.1958 0.1769 0.2960
C3_18 C 0.27362(28) 0.06150(19) 0.3357(4)
H4_18 H 0.2631 0.0718 0.4144
C4_18 C 0.26678(19) 0.23475(18) 0.2115(4)
C5_18 C 0.2904(2) 0.0538(2) 0.1291(4)
H5_18 H 0.2937 0.0575 0.0360
C6_18 C 0.27009(27) 0.07878(19) 0.2092(4)
loop_
_geom_bond_atom_site_label_1
_geom_bond_atom_site_label_2
_geom_bond_site_symmetry_1
_geom_bond_site_symmetry_2
N1 H1 1_555 1_555
N2 C3 1_555 1_555
O2 C4 1_555 1_555
C2 N1 1_555 1_555
H3 C2 1_555 1_555
C3 H4 1_555 1_555
N3 N2 1_555 1_555
C4 C2 1_555 1_555
Zn4 N2 1_555 1_555
C3 C6 1_555 1_555
O1 C1 1_555 1_555
H5 C5 1_555 1_555
Zn3 O3 1_555 1_555
O4 Zn1 1_555 1_555
O4_2 Zn1_2 1_555 1_555
N1_2 H1_2 1_555 1_555
N2_2 C3_2 1_555 1_555
O2_2 C4_2 1_555 1_555
C2_2 N1_2 1_555 1_555
H3_2 C2_2 1_555 1_555
C3_2 H4_2 1_555 1_555
N3_2 N2_2 1_555 1_555
C4_2 C2_2 1_555 1_555
Zn4_2 N2_2 1_555 1_555
C3_2 C6_2 1_555 1_555
O1_2 C1_2 1_555 1_555
H5_2 C5_2 1_555 1_555
Zn3_2 O3_2 1_555 1_555
Zn1_3 O2_3 1_555 1_555
N1_3 H1_3 1_555 1_555
N2_3 C3_3 1_555 1_555
O2_3 C4_3 1_555 1_555
C2_3 N1_3 1_555 1_555
H3_3 C2_3 1_555 1_555
C3_3 H4_3 1_555 1_555
N3_3 N2_3 1_555 1_555
C4_3 C2_3 1_555 1_555
Zn4_3 N2_3 1_555 1_555
O4_3 Zn1_3 1_555 1_555
N5_3 Zn1_3 1_555 1_555
C3_3 C6_3 1_555 1_555
O1_3 C1_3 1_555 1_555
H5_3 C5_3 1_555 1_555
Zn3_3 O3_3 1_555 1_555
O1_4 C1_4 1_555 1_555
N1_4 H1_4 1_555 1_555
C1_4 N1_4 1_555 1_555
N2_4 C3_4 1_555 1_555
O2_4 C4_4 1_555 1_555
O3_4 C4_4 1_555 1_555
C2_4 N1_4 1_555 1_555
H2_4 C2_4 1_555 1_555
H3_4 C2_4 1_555 1_555
C3_4 H4_4 1_555 1_555
N3_4 N2_4 1_555 1_555
C4_4 C2_4 1_555 1_555
C5_4 N3_4 1_555 1_555
H5_4 C5_4 1_555 1_555
C6_4 C1_4 1_555 1_555
Zn4 O3_4 1_555 1_555
Zn3 N2_4 1_555 1_555
C3_4 C6_4 1_555 1_555
C5_4 C6_4 1_555 1_555
N4_4 Zn1_4 1_555 1_555
O4_4 Zn1_4 1_555 1_555
Zn1_5 O2_5 1_555 1_555
O1_5 C1_5 1_555 1_555
N1_5 H1_5 1_555 1_555
C1_5 N1_5 1_555 1_555
N2_5 C3_5 1_555 1_555
O2_5 C4_5 1_555 1_555
O3_5 C4_5 1_555 1_555
C2_5 N1_5 1_555 1_555
H2_5 C2_5 1_555 1_555
H3_5 C2_5 1_555 1_555
C3_5 H4_5 1_555 1_555
N3_5 N2_5 1_555 1_555
C4_5 C2_5 1_555 1_555
C5_5 N3_5 1_555 1_555
H5_5 C5_5 1_555 1_555
C6_5 C1_5 1_555 1_555
Zn2_5 N3_5 1_555 1_555
Zn4_3 O3_5 1_555 1_555
Zn3_3 N2_5 1_555 1_555
N4_5 Zn1_5 1_555 1_555
O4_5 Zn1_5 1_555 1_555
N5_5 Zn1_5 1_555 1_555
C3_5 C6_5 1_555 1_555
C5_5 C6_5 1_555 1_555
N4_6 Zn1_6 1_555 1_555
O4_6 Zn1_6 1_555 1_555
O1_6 C1_6 1_555 1_555
N1_6 H1_6 1_555 1_555
C1_6 N1_6 1_555 1_555
N2_6 C3_6 1_555 1_555
O2_6 C4_6 1_555 1_555
O3_6 C4_6 1_555 1_555
C2_6 N1_6 1_555 1_555
H2_6 C2_6 1_555 1_555
H3_6 C2_6 1_555 1_555
C3_6 H4_6 1_555 1_555
N3_6 N2_6 1_555 1_555
C4_6 C2_6 1_555 1_555
C5_6 N3_6 1_555 1_555
H5_6 C5_6 1_555 1_555
C6_6 C1_6 1_555 1_555
Zn4_2 O3_6 1_555 1_555
Zn3_2 N2_6 1_555 1_555
C3_6 C6_6 1_555 1_555
C5_6 C6_6 1_555 1_555
Zn2_6 O2_7 1_555 1_555
O1_7 C1_7 1_555 1_555
N1_7 H1_7 1_555 1_555
C1_7 N1_7 1_555 1_555
N4_5 C3_7 1_555 1_555
O2_7 C4_7 1_555 1_555
O4_2 C4_7 1_555 1_555
C2_7 N1_7 1_555 1_555
H2_7 C2_7 1_555 1_555
H3_7 C2_7 1_555 1_555
C3_7 H4_7 1_555 1_555
N3_7 N4_5 1_555 1_555
C4_7 C2_7 1_555 1_555
C5_7 N3_7 1_555 1_555
H5_7 C5_7 1_555 1_555
C6_7 C1_7 1_555 1_555
Zn4_3 N3_7 1_555 1_555
C3_7 C6_7 1_555 1_555
C5_7 C6_7 1_555 1_555
Zn2_5 O2_8 1_555 1_555
O1_8 C1_8 1_555 1_555
N1_8 H1_8 1_555 1_555
C1_8 N1_8 1_555 1_555
N4_4 C3_8 1_555 1_555
O2_8 C4_8 1_555 1_555
O4_3 C4_8 1_555 1_555
C2_8 N1_8 1_555 1_555
H2_8 C2_8 1_555 1_555
H3_8 C2_8 1_555 1_555
C3_8 H4_8 1_555 1_555
N3_8 N4_4 1_555 1_555
C4_8 C2_8 1_555 1_555
C5_8 N3_8 1_555 1_555
H5_8 C5_8 1_555 1_555
C6_8 C1_8 1_555 1_555
N4_8 Zn2_5 1_555 1_555
O4_8 Zn2_5 1_555 1_555
C3_8 C6_8 1_555 1_555
C5_8 C6_8 1_555 1_555
Zn2_4 O2_9 1_555 1_555
O1_9 C1_9 1_555 1_555
N1_9 H1_9 1_555 1_555
C1_9 N1_9 1_555 1_555
N4_6 C3_9 1_555 1_555
O2_9 C4_9 1_555 1_555
O4 C4_9 1_555 1_555
C2_9 N1_9 1_555 1_555
H2_9 C2_9 1_555 1_555
H3_9 C2_9 1_555 1_555
C3_9 H4_9 1_555 1_555
N3_9 N4_6 1_555 1_555
C4_9 C2_9 1_555 1_555
C5_9 N3_9 1_555 1_555
H5_9 C5_9 1_555 1_555
C6_9 C1_9 1_555 1_555
C3_9 C6_9 1_555 1_555
C5_9 C6_9 1_555 1_555
C3_10 H4_10 1_555 1_555
Zn2_3 O2_10 1_555 1_555
O1_10 C1_10 1_555 1_555
C1_10 N1_10 1_555 1_555
O2_10 C4_10 1_555 1_555
O4_5 C4_10 1_555 1_555
C2_10 N1_10 1_555 1_555
H2_10 C2_10 1_555 1_555
H3_10 C2_10 1_555 1_555
N3_10 N4_2 1_555 1_555
C4_10 C2_10 1_555 1_555
C5_10 N3_10 1_555 1_555
H5_10 C5_10 1_555 1_555
C6_10 C1_10 1_555 1_555
N4_10 Zn2_3 1_555 1_555
C5_10 C6_10 1_555 1_555
C3_11 H4_11 1_555 1_555
Zn2_2 O2_11 1_555 1_555
O1_11 C1_11 1_555 1_555
C1_11 N1_11 1_555 1_555
O2_11 C4_11 1_555 1_555
O4_6 C4_11 1_555 1_555
C2_11 N1_11 1_555 1_555
H2_11 C2_11 1_555 1_555
H3_11 C2_11 1_555 1_555
N3_11 N4 1_555 1_555
C4_11 C2_11 1_555 1_555
C5_11 N3_11 1_555 1_555
H5_11 C5_11 1_555 1_555
C6_11 C1_11 1_555 1_555
C5_11 C6_11 1_555 1_555
C3_12 H4_12 1_555 1_555
Zn2 O2_12 1_555 1_555
O1_12 C1_12 1_555 1_555
C1_12 N1_12 1_555 1_555
O2_12 C4_12 1_555 1_555
O4_4 C4_12 1_555 1_555
C2_12 N1_12 1_555 1_555
H2_12 C2_12 1_555 1_555
H3_12 C2_12 1_555 1_555
N3_12 N4_3 1_555 1_555
C4_12 C2_12 1_555 1_555
C5_12 N3_12 1_555 1_555
H5_12 C5_12 1_555 1_555
C6_12 C1_12 1_555 1_555
Zn3_3 N3_12 1_555 1_555
C5_12 C6_12 1_555 1_555
Zn3_3 O2_13 1_555 1_555
O1_13 C1_13 1_555 1_555
N1_13 H1_13 1_555 1_555
C1_13 N1_13 1_555 1_555
N4_11 C3_13 1_555 1_555
O2_13 C4_13 1_555 1_555
O4_8 C4_13 1_555 1_555
C2_13 N1_13 1_555 1_555
H2_13 C2_13 1_555 1_555
H3_13 C2_13 1_555 1_555
C3_13 H4_13 1_555 1_555
N5_6 N4_11 1_555 1_555
C4_13 C2_13 1_555 1_555
C5_13 N5_6 1_555 1_555
H5_13 C5_13 1_555 1_555
C6_13 C1_13 1_555 1_555
C3_13 C6_13 1_555 1_555
C5_13 C6_13 1_555 1_555
Zn3 O2_14 1_555 1_555
O1_14 C1_14 1_555 1_555
N1_14 H1_14 1_555 1_555
C1_14 N1_14 1_555 1_555
N4_10 C3_14 1_555 1_555
O2_14 C4_14 1_555 1_555
O4_9 C4_14 1_555 1_555
C2_14 N1_14 1_555 1_555
H2_14 C2_14 1_555 1_555
H3_14 C2_14 1_555 1_555
C3_14 H4_14 1_555 1_555
N5_5 N4_10 1_555 1_555
C4_14 C2_14 1_555 1_555
C5_14 N5_5 1_555 1_555
H5_14 C5_14 1_555 1_555
C6_14 C1_14 1_555 1_555
C3_14 C6_14 1_555 1_555
C5_14 C6_14 1_555 1_555
Zn3_2 O2_15 1_555 1_555
O1_15 C1_15 1_555 1_555
N1_15 H1_15 1_555 1_555
C1_15 N1_15 1_555 1_555
N4_12 C3_15 1_555 1_555
O2_15 C4_15 1_555 1_555
O4_7 C4_15 1_555 1_555
C2_15 N1_15 1_555 1_555
H2_15 C2_15 1_555 1_555
H3_15 C2_15 1_555 1_555
C3_15 H4_15 1_555 1_555
N5_4 N4_12 1_555 1_555
C4_15 C2_15 1_555 1_555
C5_15 N5_4 1_555 1_555
H5_15 C5_15 1_555 1_555
C6_15 C1_15 1_555 1_555
C3_15 C6_15 1_555 1_555
C5_15 C6_15 1_555 1_555
Zn4_2 O2_16 1_555 1_555
O1_16 C1_16 1_555 1_555
N1_16 H1_16 1_555 1_555
C1_16 N1_16 1_555 1_555
N4_8 C3_16 1_555 1_555
O2_16 C4_16 1_555 1_555
O4_11 C4_16 1_555 1_555
C2_16 N1_16 1_555 1_555
H2_16 C2_16 1_555 1_555
H3_16 C2_16 1_555 1_555
C3_16 H4_16 1_555 1_555
N5_3 N4_8 1_555 1_555
C4_16 C2_16 1_555 1_555
C5_16 N5_3 1_555 1_555
H5_16 C5_16 1_555 1_555
C6_16 C1_16 1_555 1_555
C3_16 C6_16 1_555 1_555
C5_16 C6_16 1_555 1_555
Zn4 O2_17 1_555 1_555
O1_17 C1_17 1_555 1_555
N1_17 H1_17 1_555 1_555
C1_17 N1_17 1_555 1_555
N4_7 C3_17 1_555 1_555
O2_17 C4_17 1_555 1_555
O4_12 C4_17 1_555 1_555
C2_17 N1_17 1_555 1_555
H2_17 C2_17 1_555 1_555
H3_17 C2_17 1_555 1_555
C3_17 H4_17 1_555 1_555
N5_2 N4_7 1_555 1_555
C4_17 C2_17 1_555 1_555
C5_17 N5_2 1_555 1_555
H5_17 C5_17 1_555 1_555
C6_17 C1_17 1_555 1_555
C3_17 C6_17 1_555 1_555
C5_17 C6_17 1_555 1_555
Zn4_3 O2_18 1_555 1_555
O1_18 C1_18 1_555 1_555
N1_18 H1_18 1_555 1_555
C1_18 N1_18 1_555 1_555
N4_9 C3_18 1_555 1_555
O2_18 C4_18 1_555 1_555
O4_10 C4_18 1_555 1_555
C2_18 N1_18 1_555 1_555
H2_18 C2_18 1_555 1_555
H3_18 C2_18 1_555 1_555
C3_18 H4_18 1_555 1_555
N5 N4_9 1_555 1_555
C4_18 C2_18 1_555 1_555
C5_18 N5 1_555 1_555
H5_18 C5_18 1_555 1_555
C6_18 C1_18 1_555 1_555
C3_18 C6_18 1_555 1_555
C5_18 C6_18 1_555 1_555

#END
