
###############################################################################
#
# This file contains modified crystal structure data generated from the
# MOF subset of the Cambridge Structural Database (CSD) v543 
# hosted by the Cambridge Crystallographic Data Centre (CCDC).
#
# This work is licensed under the Creative Commons
# Attribution-NonCommercial-ShareAlike 4.0 International License.
# To view a copy of this license, visit
# http://creativecommons.org/licenses/by-nc-sa/4.0/
# or send a letter to
# Creative Commons, PO Box 1866, Mountain View, CA 94042, USA.
#
# CIF created using the CSD Python API on 29 September 2022
# The structure has been converted into the P1 space group
# The structure has a 3D framework
# The original CSD entry VUWVAN is in the rhombohedral crystal system
# The framework has been calculated to contain at least 10.0% void space
# The void calculation uses a probe of radius 1.32A, grid spacing 0.4
#
###############################################################################

data_VUWVAN
_chemical_formula_moiety         '(C108 H90 N54 O49 Zn11)n'
_symmetry_cell_setting           triclinic
_symmetry_space_group_name_H-M   'P 1'
_symmetry_Int_Tables_number      1
_space_group_name_Hall           'P 1'
loop_
_symmetry_equiv_pos_site_id
_symmetry_equiv_pos_as_xyz
1 x,y,z
_cell_length_a                   26.102(2)
_cell_length_b                   26.102(2)
_cell_length_c                   10.1291(5)
_cell_angle_alpha                90
_cell_angle_beta                 90
_cell_angle_gamma                120
_cell_volume                     5976.53
loop_
_atom_site_label
_atom_site_type_symbol
_atom_site_fract_x
_atom_site_fract_y
_atom_site_fract_z
O1 O 0.4173(7) 0.3500(9) 0.2290(13)
N1 N 0.3898(8) 0.0724(8) 0.0219(16)
N2 N 0.3757(11) 0.0553(8) 0.1482(16)
O2 O 0.3799(7) 0.2878(7) 0.0551(13)
O3 O 0.4528(7) 0.2270(7) 0.3052(13)
N3 N 0.4644(8) 0.2562(8) 0.0934(16)
H1 H 0.4673 0.2476 0.0107
C1 C 0.4485(11) 0.2132(11) 0.188(2)
C2 C 0.4196(9) 0.1296(10) 0.020(2)
C3 C 0.4261(9) 0.1532(10) 0.1440(19)
C4 C 0.4203(10) 0.3165(10) 0.137(2)
C5 C 0.4766(10) 0.3154(11) 0.1263(19)
H3 H 0.5018 0.3435 0.0570
H4 H 0.4984 0.3280 0.2111
C6 C 0.3973(14) 0.1048(10) 0.223(2)
H5 H 0.3930 0.1056 0.3160
Zn2 Zn 0.36226(11) 0.34360(15) 0.3683(3)
Zn4 Zn 0.31467(10) 0.30441(11) 0.0350(3)
Zn1 Zn 0.36226(11) 0.01866(10) 0.8683(3)
H2 H 0.4352 0.1525 0.9425
O4 O 0.4173(7) 0.0673(11) 0.7290(13)
Zn3 Zn 0.32307(15) 0.97107(11) 0.2016(3)
N4 N 0.2780(8) 0.9871(14) 0.8149(16)
O5 O 0.3789(7) 0.9534(7) 0.8884(13)
Zn3_2 Zn 0.02893(11) 0.35199(19) 0.2016(3)
N4_2 N 0.0129(14) 0.2910(16) 0.8149(16)
O5_2 O 0.0466(7) 0.4254(10) 0.8884(13)
O1_2 O 0.6500(9) 0.0673(11) 0.2290(13)
N1_2 N 0.9276(8) 0.3174(11) 0.0219(16)
N2_2 N 0.9447(8) 0.3204(14) 0.1482(16)
O2_2 O 0.7122(7) 0.0921(10) 0.0551(13)
O3_2 O 0.7730(7) 0.2258(10) 0.3052(13)
N3_2 N 0.7438(8) 0.2082(11) 0.0934(16)
H1_2 H 0.7524 0.2197 0.0107
C1_2 C 0.7868(11) 0.2353(16) 0.188(2)
C2_2 C 0.8704(10) 0.2900(13) 0.020(2)
C3_2 C 0.8468(10) 0.2729(13) 0.1440(19)
C4_2 C 0.6835(10) 0.1038(14) 0.137(2)
C5_2 C 0.6846(11) 0.1612(15) 0.1263(19)
H3_2 H 0.6565 0.1583 0.0570
H4_2 H 0.6720 0.1704 0.2111
C6_2 C 0.8952(10) 0.2925(17) 0.223(2)
H5_2 H 0.8944 0.2874 0.3160
Zn2_2 Zn 0.65640(15) 0.01866(19) 0.3683(3)
Zn4_2 Zn 0.69559(11) 0.01027(15) 0.0350(3)
Zn1_2 Zn 0.98134(10) 0.34360(15) 0.8683(3)
H2_2 H 0.8475 0.2827 0.9425
O4_2 O 0.9327(11) 0.3500(13) 0.7290(13)
O1_3 O 0.9327(11) 0.5827(7) 0.2290(13)
N1_3 N 0.6826(11) 0.6102(8) 0.0219(16)
N2_3 N 0.6796(14) 0.6243(11) 0.1482(16)
O2_3 O 0.9079(10) 0.6201(7) 0.0551(13)
O3_3 O 0.7742(10) 0.5472(7) 0.3052(13)
N3_3 N 0.7918(11) 0.5356(8) 0.0934(16)
H1_3 H 0.7803 0.5327 0.0107
C1_3 C 0.7647(16) 0.5515(11) 0.188(2)
C2_3 C 0.7100(13) 0.5804(9) 0.020(2)
C3_3 C 0.7271(13) 0.5739(9) 0.1440(19)
C4_3 C 0.8962(14) 0.5797(10) 0.137(2)
C5_3 C 0.8388(15) 0.5234(10) 0.1263(19)
H3_3 H 0.8417 0.4982 0.0570
H4_3 H 0.8296 0.5016 0.2111
C6_3 C 0.7075(17) 0.6027(14) 0.223(2)
H5_3 H 0.7126 0.6070 0.3160
Zn2_3 Zn 0.98134(19) 0.63774(11) 0.3683(3)
Zn3_3 Zn 0.64801(19) 0.67693(15) 0.2016(3)
Zn4_3 Zn 0.98973(15) 0.68533(10) 0.0350(3)
Zn1_3 Zn 0.65640(15) 0.63774(11) 0.8683(3)
H2_3 H 0.7173 0.5648 0.9425
O4_3 O 0.6500(13) 0.5827(7) 0.7290(13)
N4_3 N 0.7090(16) 0.7220(8) 0.8149(16)
O5_3 O 0.5746(10) 0.6211(7) 0.8884(13)
N1_4 N 0.6826(11) 0.0724(8) 0.5219(16)
N2_4 N 0.6796(14) 0.0553(8) 0.6482(16)
O2_4 O 0.9079(10) 0.2878(7) 0.5551(13)
O3_4 O 0.7742(10) 0.2270(7) 0.8052(13)
N3_4 N 0.7918(11) 0.2562(8) 0.5934(16)
H1_4 H 0.7803 0.2476 0.5107
C1_4 C 0.7647(16) 0.2132(11) 0.688(2)
C2_4 C 0.7100(13) 0.1296(10) 0.520(2)
H2_4 H 0.7173 0.1525 0.4425
C3_4 C 0.7271(13) 0.1532(10) 0.6440(19)
C4_4 C 0.8962(14) 0.3165(10) 0.637(2)
C5_4 C 0.8388(15) 0.3154(11) 0.6263(19)
H3_4 H 0.8417 0.3435 0.5570
H4_4 H 0.8296 0.3280 0.7111
C6_4 C 0.7075(17) 0.1048(10) 0.723(2)
H5_4 H 0.7126 0.1056 0.8160
Zn4_4 Zn 0.98973(15) 0.30441(11) 0.5350(3)
Zn3_4 Zn 0.64801(19) 0.97107(11) 0.7016(3)
N4_4 N 0.7090(16) 0.9871(14) 0.3149(16)
O5_4 O 0.5746(10) 0.9534(7) 0.3884(13)
N1_5 N 0.3898(8) 0.3174(11) 0.5219(16)
N2_5 N 0.3757(11) 0.3204(14) 0.6482(16)
O2_5 O 0.3799(7) 0.0921(10) 0.5551(13)
O3_5 O 0.4528(7) 0.2258(10) 0.8052(13)
N3_5 N 0.4644(8) 0.2082(11) 0.5934(16)
H1_5 H 0.4673 0.2197 0.5107
C1_5 C 0.4485(11) 0.2353(16) 0.688(2)
C2_5 C 0.4196(9) 0.2900(13) 0.520(2)
H2_5 H 0.4352 0.2827 0.4425
C3_5 C 0.4261(9) 0.2729(13) 0.6440(19)
C4_5 C 0.4203(10) 0.1038(14) 0.637(2)
C5_5 C 0.4766(10) 0.1612(15) 0.6263(19)
H3_5 H 0.5018 0.1583 0.5570
H4_5 H 0.4984 0.1704 0.7111
C6_5 C 0.3973(14) 0.2925(17) 0.723(2)
H5_5 H 0.3930 0.2874 0.8160
Zn3_5 Zn 0.32307(15) 0.35199(19) 0.7016(3)
Zn4_5 Zn 0.31467(10) 0.01027(15) 0.5350(3)
N4_5 N 0.2780(8) 0.2910(16) 0.3149(16)
O5_5 O 0.3789(7) 0.4254(10) 0.3884(13)
Zn3_6 Zn 0.02893(11) 0.67693(15) 0.7016(3)
N4_6 N 0.0129(14) 0.7220(8) 0.3149(16)
O5_6 O 0.0466(7) 0.6211(7) 0.3884(13)
N1_6 N 0.9276(8) 0.6102(8) 0.5219(16)
N2_6 N 0.9447(8) 0.6243(11) 0.6482(16)
O2_6 O 0.7122(7) 0.6201(7) 0.5551(13)
O3_6 O 0.7730(7) 0.5472(7) 0.8052(13)
N3_6 N 0.7438(8) 0.5356(8) 0.5934(16)
H1_6 H 0.7524 0.5327 0.5107
C1_6 C 0.7868(11) 0.5515(11) 0.688(2)
C2_6 C 0.8704(10) 0.5804(9) 0.520(2)
H2_6 H 0.8475 0.5648 0.4425
C3_6 C 0.8468(10) 0.5739(9) 0.6440(19)
C4_6 C 0.6835(10) 0.5797(10) 0.637(2)
C5_6 C 0.6846(11) 0.5234(10) 0.6263(19)
H3_6 H 0.6565 0.4982 0.5570
H4_6 H 0.6720 0.5016 0.7111
C6_6 C 0.8952(10) 0.6027(14) 0.723(2)
H5_6 H 0.8944 0.6070 0.8160
Zn4_6 Zn 0.69559(11) 0.68533(10) 0.5350(3)
O1_4 O 0.0840(7) 0.6833(9) 0.5623(13)
N1_7 N 0.0565(8) 0.4057(8) 0.3552(16)
N2_7 N 0.0424(11) 0.3886(8) 0.4815(16)
O3_7 O 0.1195(7) 0.5603(7) 0.6385(13)
N3_7 N 0.1311(8) 0.5895(8) 0.4267(16)
H1_7 H 0.1340 0.5809 0.3440
C1_7 C 0.1152(11) 0.5465(11) 0.521(2)
C2_7 C 0.0863(9) 0.4629(10) 0.353(2)
H2_7 H 0.1019 0.4858 0.2758
C3_7 C 0.0928(9) 0.4865(10) 0.4773(19)
C4_7 C 0.0870(10) 0.6498(10) 0.470(2)
C5_7 C 0.1433(10) 0.6487(11) 0.4596(19)
H3_7 H 0.1685 0.6768 0.3903
H4_7 H 0.1651 0.6613 0.5444
C6_7 C 0.0640(14) 0.4381(10) 0.556(2)
H5_7 H 0.0597 0.4389 0.6493
O4_4 O 0.0840(7) 0.4006(11) 0.0623(13)
O5_7 O 0.0455(7) 0.2868(7) 0.2218(13)
O1_5 O 0.3167(9) 0.4006(11) 0.5623(13)
N1_8 N 0.5943(8) 0.6507(11) 0.3552(16)
N2_8 N 0.6114(8) 0.6537(14) 0.4815(16)
O3_8 O 0.4397(7) 0.5591(10) 0.6385(13)
N3_8 N 0.4105(8) 0.5415(11) 0.4267(16)
H1_8 H 0.4191 0.5530 0.3440
C1_8 C 0.4535(11) 0.5686(16) 0.521(2)
C2_8 C 0.5371(10) 0.6233(13) 0.353(2)
H2_8 H 0.5142 0.6160 0.2758
C3_8 C 0.5135(10) 0.6062(13) 0.4773(19)
C4_8 C 0.3502(10) 0.4371(14) 0.470(2)
C5_8 C 0.3513(11) 0.4945(15) 0.4596(19)
H3_8 H 0.3232 0.4916 0.3903
H4_8 H 0.3387 0.5037 0.5444
C6_8 C 0.5619(10) 0.6258(17) 0.556(2)
H5_8 H 0.5611 0.6207 0.6493
O4_5 O 0.5994(11) 0.6833(13) 0.0623(13)
O5_8 O 0.7132(7) 0.7588(10) 0.2218(13)
O1_6 O 0.5994(11) 0.9160(7) 0.5623(13)
N1_9 N 0.3493(11) 0.9435(8) 0.3552(16)
N2_9 N 0.3463(14) 0.9576(11) 0.4815(16)
O3_9 O 0.4409(10) 0.8805(7) 0.6385(13)
N3_9 N 0.4585(11) 0.8689(8) 0.4267(16)
H1_9 H 0.4470 0.8660 0.3440
C1_9 C 0.4314(16) 0.8848(11) 0.521(2)
C2_9 C 0.3767(13) 0.9137(9) 0.353(2)
H2_9 H 0.3840 0.8981 0.2758
C3_9 C 0.3938(13) 0.9072(9) 0.4773(19)
C4_9 C 0.5629(14) 0.9130(10) 0.470(2)
C5_9 C 0.5055(15) 0.8567(10) 0.4596(19)
H3_9 H 0.5084 0.8315 0.3903
H4_9 H 0.4963 0.8349 0.5444
C6_9 C 0.3742(17) 0.9360(14) 0.556(2)
H5_9 H 0.3793 0.9403 0.6493
O4_6 O 0.3167(13) 0.9160(7) 0.0623(13)
O5_9 O 0.2412(10) 0.9545(7) 0.2218(13)
O3_10 O 0.4409(10) 0.5603(7) 0.1385(13)
C1_10 C 0.4314(16) 0.5465(11) 0.021(2)
H4_10 H 0.4963 0.6613 0.0444
C6_10 C 0.3742(17) 0.4381(10) 0.056(2)
H5_10 H 0.3793 0.4389 0.1493
N1_10 N 0.3493(11) 0.4057(8) 0.8552(16)
N2_10 N 0.3463(14) 0.3886(8) 0.9815(16)
N3_10 N 0.4585(11) 0.5895(8) 0.9267(16)
H1_10 H 0.4470 0.5809 0.8440
C2_10 C 0.3767(13) 0.4629(10) 0.853(2)
H2_10 H 0.3840 0.4858 0.7758
C3_10 C 0.3938(13) 0.4865(10) 0.9773(19)
C4_10 C 0.5629(14) 0.6498(10) 0.970(2)
C5_10 C 0.5055(15) 0.6487(11) 0.9596(19)
H3_10 H 0.5084 0.6768 0.8903
O5_10 O 0.2412(10) 0.2868(7) 0.7218(13)
O3_11 O 0.1195(7) 0.5591(10) 0.1385(13)
C1_11 C 0.1152(11) 0.5686(16) 0.021(2)
H4_11 H 0.1651 0.5037 0.0444
C6_11 C 0.0640(14) 0.6258(17) 0.056(2)
H5_11 H 0.0597 0.6207 0.1493
N1_11 N 0.0565(8) 0.6507(11) 0.8552(16)
N2_11 N 0.0424(11) 0.6537(14) 0.9815(16)
N3_11 N 0.1311(8) 0.5415(11) 0.9267(16)
H1_11 H 0.1340 0.5530 0.8440
C2_11 C 0.0863(9) 0.6233(13) 0.853(2)
H2_11 H 0.1019 0.6160 0.7758
C3_11 C 0.0928(9) 0.6062(13) 0.9773(19)
C4_11 C 0.0870(10) 0.4371(14) 0.970(2)
C5_11 C 0.1433(10) 0.4945(15) 0.9596(19)
H3_11 H 0.1685 0.4916 0.8903
O5_11 O 0.0455(7) 0.7588(10) 0.7218(13)
O3_12 O 0.4397(7) 0.8805(7) 0.1385(13)
C1_12 C 0.4535(11) 0.8848(11) 0.021(2)
H4_12 H 0.3387 0.8349 0.0444
C6_12 C 0.5619(10) 0.9360(14) 0.056(2)
H5_12 H 0.5611 0.9403 0.1493
N1_12 N 0.5943(8) 0.9435(8) 0.8552(16)
N2_12 N 0.6114(8) 0.9576(11) 0.9815(16)
N3_12 N 0.4105(8) 0.8689(8) 0.9267(16)
H1_12 H 0.4191 0.8660 0.8440
C2_12 C 0.5371(10) 0.9137(9) 0.853(2)
H2_12 H 0.5142 0.8981 0.7758
C3_12 C 0.5135(10) 0.9072(9) 0.9773(19)
C4_12 C 0.3502(10) 0.9130(10) 0.970(2)
C5_12 C 0.3513(11) 0.8567(10) 0.9596(19)
H3_12 H 0.3232 0.8315 0.8903
O5_12 O 0.7132(7) 0.9545(7) 0.7218(13)
N1_13 N 0.7231(8) 0.7391(8) 0.6886(16)
O3_13 O 0.7861(7) 0.8937(7) 0.9719(13)
N3_13 N 0.7977(8) 0.9229(8) 0.7601(16)
H1_13 H 0.8006 0.9143 0.6774
C1_13 C 0.7818(11) 0.8799(11) 0.855(2)
C2_13 C 0.7529(9) 0.7963(10) 0.687(2)
H2_13 H 0.7685 0.8192 0.6092
C3_13 C 0.7594(9) 0.8199(10) 0.8107(19)
C4_13 C 0.7536(10) 0.9832(10) 0.804(2)
C5_13 C 0.8099(10) 0.9821(11) 0.7930(19)
H4_13 H 0.8317 0.9947 0.8778
C6_13 C 0.7306(14) 0.7715(10) 0.890(2)
H5_13 H 0.7263 0.7723 0.9827
O4_7 O 0.7506(7) 0.7340(11) 0.3957(13)
O4_8 O 0.2660(11) 0.0167(13) 0.3957(13)
N1_14 N 0.2609(8) 0.9841(11) 0.6886(16)
O3_14 O 0.1063(7) 0.8925(10) 0.9719(13)
N3_14 N 0.0771(8) 0.8749(11) 0.7601(16)
H1_14 H 0.0857 0.8864 0.6774
C1_14 C 0.1201(11) 0.9020(16) 0.855(2)
C2_14 C 0.2037(10) 0.9567(13) 0.687(2)
H2_14 H 0.1808 0.9494 0.6092
C3_14 C 0.1801(10) 0.9396(13) 0.8107(19)
C4_14 C 0.0168(10) 0.7705(14) 0.804(2)
C5_14 C 0.0179(11) 0.8279(15) 0.7930(19)
H4_14 H 0.0053 0.8371 0.8778
C6_14 C 0.2285(10) 0.9592(17) 0.890(2)
H5_14 H 0.2277 0.9541 0.9827
O1_7 O 0.2660(11) 0.2494(7) 0.8957(13)
N1_15 N 0.0159(11) 0.2769(8) 0.6886(16)
O3_15 O 0.1075(10) 0.2139(7) 0.9719(13)
N3_15 N 0.1251(11) 0.2023(8) 0.7601(16)
H1_15 H 0.1136 0.1994 0.6774
C1_15 C 0.0980(16) 0.2182(11) 0.855(2)
C2_15 C 0.0433(13) 0.2471(9) 0.687(2)
H2_15 H 0.0506 0.2315 0.6092
C3_15 C 0.0604(13) 0.2406(9) 0.8107(19)
C4_15 C 0.2295(14) 0.2464(10) 0.804(2)
C5_15 C 0.1721(15) 0.1901(10) 0.7930(19)
H3_13 H 0.1750 0.1649 0.7237
H4_15 H 0.1629 0.1683 0.8778
C6_15 C 0.0408(17) 0.2694(14) 0.890(2)
H5_15 H 0.0459 0.2737 0.9827
O4_9 O 0.9833(13) 0.2494(7) 0.3957(13)
H3_14 H 0.1750 0.0102 0.2237
N1_16 N 0.0159(11) 0.7391(8) 0.1886(16)
O3_16 O 0.1075(10) 0.8937(7) 0.4719(13)
N3_16 N 0.1251(11) 0.9229(8) 0.2601(16)
H1_16 H 0.1136 0.9143 0.1774
C1_16 C 0.0980(16) 0.8799(11) 0.355(2)
C2_16 C 0.0433(13) 0.7963(10) 0.187(2)
H2_16 H 0.0506 0.8192 0.1092
C3_16 C 0.0604(13) 0.8199(10) 0.3107(19)
C4_16 C 0.2295(14) 0.9832(10) 0.304(2)
C5_16 C 0.1721(15) 0.9821(11) 0.2930(19)
H4_16 H 0.1629 0.9947 0.3778
C6_16 C 0.0408(17) 0.7715(10) 0.390(2)
H5_16 H 0.0459 0.7723 0.4827
N1_17 N 0.7231(8) 0.9841(11) 0.1886(16)
O3_17 O 0.7861(7) 0.8925(10) 0.4719(13)
N3_17 N 0.7977(8) 0.8749(11) 0.2601(16)
H1_17 H 0.8006 0.8864 0.1774
C1_17 C 0.7818(11) 0.9020(16) 0.355(2)
C2_17 C 0.7529(9) 0.9567(13) 0.187(2)
H2_17 H 0.7685 0.9494 0.1092
C3_17 C 0.7594(9) 0.9396(13) 0.3107(19)
C4_17 C 0.7536(10) 0.7705(14) 0.304(2)
C5_17 C 0.8099(10) 0.8279(15) 0.2930(19)
H3_15 H 0.8351 0.8250 0.2237
H4_17 H 0.8317 0.8371 0.3778
C6_17 C 0.7306(14) 0.9592(17) 0.390(2)
H5_17 H 0.7263 0.9541 0.4827
N1_18 N 0.2609(8) 0.2769(8) 0.1886(16)
O3_18 O 0.1063(7) 0.2139(7) 0.4719(13)
N3_18 N 0.0771(8) 0.2023(8) 0.2601(16)
H1_18 H 0.0857 0.1994 0.1774
C1_18 C 0.1201(11) 0.2182(11) 0.355(2)
C2_18 C 0.2037(10) 0.2471(9) 0.187(2)
H2_18 H 0.1808 0.2315 0.1092
C3_18 C 0.1801(10) 0.2406(9) 0.3107(19)
C4_18 C 0.0168(10) 0.2464(10) 0.304(2)
C5_18 C 0.0179(11) 0.1901(10) 0.2930(19)
H4_18 H 0.0053 0.1683 0.3778
C6_18 C 0.2285(10) 0.2694(14) 0.390(2)
H5_18 H 0.2277 0.2737 0.4827
H3_16 H 0.9898 0.1649 0.2237
O1_8 O 0.7506(7) 0.0167(9) 0.8957(13)
H3_17 H 0.8351 0.0102 0.7237
O1_9 O 0.9833(9) 0.7340(11) 0.8957(13)
H3_18 H 0.9898 0.8250 0.7237
loop_
_geom_bond_atom_site_label_1
_geom_bond_atom_site_label_2
_geom_bond_site_symmetry_1
_geom_bond_site_symmetry_2
O1 C4 1_555 1_555
N1 N2 1_555 1_555
N2 C6 1_555 1_555
O2 C4 1_555 1_555
O3 C1 1_555 1_555
N3 H1 1_555 1_555
C1 N3 1_555 1_555
C2 N1 1_555 1_555
C3 C1 1_555 1_555
C4 C5 1_555 1_555
C5 N3 1_555 1_555
H3 C5 1_555 1_555
H4 C5 1_555 1_555
C6 C3 1_555 1_555
H5 C6 1_555 1_555
Zn2 O1 1_555 1_555
Zn4 O2 1_555 1_555
C2 C3 1_555 1_555
O4 Zn1 1_555 1_555
O1_2 C4_2 1_555 1_555
N1_2 N2_2 1_555 1_555
N2_2 C6_2 1_555 1_555
O2_2 C4_2 1_555 1_555
O3_2 C1_2 1_555 1_555
N3_2 H1_2 1_555 1_555
C1_2 N3_2 1_555 1_555
C2_2 N1_2 1_555 1_555
C3_2 C1_2 1_555 1_555
C4_2 C5_2 1_555 1_555
C5_2 N3_2 1_555 1_555
H3_2 C5_2 1_555 1_555
H4_2 C5_2 1_555 1_555
C6_2 C3_2 1_555 1_555
H5_2 C6_2 1_555 1_555
Zn2_2 O1_2 1_555 1_555
Zn4_2 O2_2 1_555 1_555
C2_2 C3_2 1_555 1_555
O4_2 Zn1_2 1_555 1_555
O1_3 C4_3 1_555 1_555
N1_3 N2_3 1_555 1_555
N2_3 C6_3 1_555 1_555
O2_3 C4_3 1_555 1_555
O3_3 C1_3 1_555 1_555
N3_3 H1_3 1_555 1_555
C1_3 N3_3 1_555 1_555
C2_3 N1_3 1_555 1_555
C3_3 C1_3 1_555 1_555
C4_3 C5_3 1_555 1_555
C5_3 N3_3 1_555 1_555
H3_3 C5_3 1_555 1_555
H4_3 C5_3 1_555 1_555
C6_3 C3_3 1_555 1_555
H5_3 C6_3 1_555 1_555
Zn2_3 O1_3 1_555 1_555
Zn3_3 N2_3 1_555 1_555
Zn4_3 O2_3 1_555 1_555
C2_3 C3_3 1_555 1_555
O4_3 Zn1_3 1_555 1_555
N4_3 Zn1_3 1_555 1_555
O5_3 Zn1_3 1_555 1_555
Zn2_2 N1_4 1_555 1_555
O4_2 C4_4 1_555 1_555
N1_4 N2_4 1_555 1_555
N2_4 C6_4 1_555 1_555
O2_4 C4_4 1_555 1_555
O3_4 C1_4 1_555 1_555
N3_4 H1_4 1_555 1_555
C1_4 N3_4 1_555 1_555
C2_4 N1_4 1_555 1_555
H2_4 C2_4 1_555 1_555
C3_4 C1_4 1_555 1_555
C4_4 C5_4 1_555 1_555
C5_4 N3_4 1_555 1_555
H3_4 C5_4 1_555 1_555
H4_4 C5_4 1_555 1_555
C6_4 C3_4 1_555 1_555
H5_4 C6_4 1_555 1_555
Zn4_4 O2_4 1_555 1_555
C2_4 C3_4 1_555 1_555
Zn2 N1_5 1_555 1_555
O4 C4_5 1_555 1_555
N1_5 N2_5 1_555 1_555
N2_5 C6_5 1_555 1_555
O2_5 C4_5 1_555 1_555
O3_5 C1_5 1_555 1_555
N3_5 H1_5 1_555 1_555
C1_5 N3_5 1_555 1_555
C2_5 N1_5 1_555 1_555
H2_5 C2_5 1_555 1_555
C3_5 C1_5 1_555 1_555
C4_5 C5_5 1_555 1_555
C5_5 N3_5 1_555 1_555
H3_5 C5_5 1_555 1_555
H4_5 C5_5 1_555 1_555
C6_5 C3_5 1_555 1_555
H5_5 C6_5 1_555 1_555
Zn3_5 N2_5 1_555 1_555
Zn4_5 O2_5 1_555 1_555
N4_5 Zn2 1_555 1_555
O5_5 Zn2 1_555 1_555
C2_5 C3_5 1_555 1_555
Zn2_3 N1_6 1_555 1_555
O4_3 C4_6 1_555 1_555
N1_6 N2_6 1_555 1_555
N2_6 C6_6 1_555 1_555
O2_6 C4_6 1_555 1_555
O3_6 C1_6 1_555 1_555
N3_6 H1_6 1_555 1_555
C1_6 N3_6 1_555 1_555
C2_6 N1_6 1_555 1_555
H2_6 C2_6 1_555 1_555
C3_6 C1_6 1_555 1_555
C4_6 C5_6 1_555 1_555
C5_6 N3_6 1_555 1_555
H3_6 C5_6 1_555 1_555
H4_6 C5_6 1_555 1_555
C6_6 C3_6 1_555 1_555
H5_6 C6_6 1_555 1_555
Zn4_6 O2_6 1_555 1_555
C2_6 C3_6 1_555 1_555
Zn3_2 N1_7 1_555 1_555
O1_4 C4_7 1_555 1_555
N1_7 N2_7 1_555 1_555
N2_7 C6_7 1_555 1_555
O5_6 C4_7 1_555 1_555
O3_7 C1_7 1_555 1_555
N3_7 H1_7 1_555 1_555
C1_7 N3_7 1_555 1_555
C2_7 N1_7 1_555 1_555
H2_7 C2_7 1_555 1_555
C3_7 C1_7 1_555 1_555
C4_7 C5_7 1_555 1_555
C5_7 N3_7 1_555 1_555
H3_7 C5_7 1_555 1_555
H4_7 C5_7 1_555 1_555
C6_7 C3_7 1_555 1_555
H5_7 C6_7 1_555 1_555
Zn3_6 O1_4 1_555 1_555
O4_4 Zn3_2 1_555 1_555
O5_7 Zn3_2 1_555 1_555
C2_7 C3_7 1_555 1_555
Zn3_3 N1_8 1_555 1_555
O1_5 C4_8 1_555 1_555
N1_8 N2_8 1_555 1_555
N2_8 C6_8 1_555 1_555
O5_5 C4_8 1_555 1_555
O3_8 C1_8 1_555 1_555
N3_8 H1_8 1_555 1_555
C1_8 N3_8 1_555 1_555
C2_8 N1_8 1_555 1_555
H2_8 C2_8 1_555 1_555
C3_8 C1_8 1_555 1_555
C4_8 C5_8 1_555 1_555
C5_8 N3_8 1_555 1_555
H3_8 C5_8 1_555 1_555
H4_8 C5_8 1_555 1_555
C6_8 C3_8 1_555 1_555
H5_8 C6_8 1_555 1_555
Zn3_5 O1_5 1_555 1_555
Zn4_6 N2_8 1_555 1_555
O4_5 Zn3_3 1_555 1_555
O5_8 Zn3_3 1_555 1_555
C2_8 C3_8 1_555 1_555
Zn3 N1_9 1_555 1_555
O1_6 C4_9 1_555 1_555
N1_9 N2_9 1_555 1_555
N2_9 C6_9 1_555 1_555
O5_4 C4_9 1_555 1_555
O3_9 C1_9 1_555 1_555
N3_9 H1_9 1_555 1_555
C1_9 N3_9 1_555 1_555
C2_9 N1_9 1_555 1_555
H2_9 C2_9 1_555 1_555
C3_9 C1_9 1_555 1_555
C4_9 C5_9 1_555 1_555
C5_9 N3_9 1_555 1_555
H3_9 C5_9 1_555 1_555
H4_9 C5_9 1_555 1_555
C6_9 C3_9 1_555 1_555
H5_9 C6_9 1_555 1_555
Zn3_4 O1_6 1_555 1_555
O4_6 Zn3 1_555 1_555
O5_9 Zn3 1_555 1_555
C2_9 C3_9 1_555 1_555
O3_10 C1_10 1_555 1_555
H5_10 C6_10 1_555 1_555
Zn3_5 N1_10 1_555 1_555
N1_10 N2_10 1_555 1_555
O5_3 C4_10 1_555 1_555
N3_10 H1_10 1_555 1_555
C2_10 N1_10 1_555 1_555
H2_10 C2_10 1_555 1_555
C4_10 C5_10 1_555 1_555
C5_10 N3_10 1_555 1_555
H3_10 C5_10 1_555 1_555
O5_10 Zn3_5 1_555 1_555
C2_10 C3_10 1_555 1_555
O3_11 C1_11 1_555 1_555
H5_11 C6_11 1_555 1_555
Zn3_6 N1_11 1_555 1_555
N1_11 N2_11 1_555 1_555
O5_2 C4_11 1_555 1_555
N3_11 H1_11 1_555 1_555
C2_11 N1_11 1_555 1_555
H2_11 C2_11 1_555 1_555
C4_11 C5_11 1_555 1_555
C5_11 N3_11 1_555 1_555
H3_11 C5_11 1_555 1_555
O5_11 Zn3_6 1_555 1_555
C2_11 C3_11 1_555 1_555
O3_12 C1_12 1_555 1_555
H5_12 C6_12 1_555 1_555
Zn3_4 N1_12 1_555 1_555
N1_12 N2_12 1_555 1_555
O5 C4_12 1_555 1_555
N3_12 H1_12 1_555 1_555
C2_12 N1_12 1_555 1_555
H2_12 C2_12 1_555 1_555
C4_12 C5_12 1_555 1_555
C5_12 N3_12 1_555 1_555
H3_12 C5_12 1_555 1_555
O5_12 Zn3_4 1_555 1_555
C2_12 C3_12 1_555 1_555
Zn4_6 N1_13 1_555 1_555
N1_13 N4_3 1_555 1_555
N4_3 C6_13 1_555 1_555
O5_12 C4_13 1_555 1_555
O3_13 C1_13 1_555 1_555
N3_13 H1_13 1_555 1_555
C1_13 N3_13 1_555 1_555
C2_13 N1_13 1_555 1_555
H2_13 C2_13 1_555 1_555
C3_13 C1_13 1_555 1_555
C4_13 C5_13 1_555 1_555
C5_13 N3_13 1_555 1_555
H4_13 C5_13 1_555 1_555
C6_13 C3_13 1_555 1_555
H5_13 C6_13 1_555 1_555
O4_7 Zn4_6 1_555 1_555
C2_13 C3_13 1_555 1_555
O4_8 Zn4_5 1_555 1_555
N1_14 N4 1_555 1_555
N4 C6_14 1_555 1_555
O5_11 C4_14 1_555 1_555
O3_14 C1_14 1_555 1_555
N3_14 H1_14 1_555 1_555
C1_14 N3_14 1_555 1_555
C2_14 N1_14 1_555 1_555
H2_14 C2_14 1_555 1_555
C3_14 C1_14 1_555 1_555
C4_14 C5_14 1_555 1_555
C5_14 N3_14 1_555 1_555
H4_14 C5_14 1_555 1_555
C6_14 C3_14 1_555 1_555
H5_14 C6_14 1_555 1_555
C2_14 C3_14 1_555 1_555
O1_7 C4_15 1_555 1_555
N1_15 N4_2 1_555 1_555
N4_2 C6_15 1_555 1_555
O5_10 C4_15 1_555 1_555
O3_15 C1_15 1_555 1_555
N3_15 H1_15 1_555 1_555
C1_15 N3_15 1_555 1_555
C2_15 N1_15 1_555 1_555
H2_15 C2_15 1_555 1_555
C3_15 C1_15 1_555 1_555
C4_15 C5_15 1_555 1_555
C5_15 N3_15 1_555 1_555
H3_13 C5_15 1_555 1_555
H4_15 C5_15 1_555 1_555
C6_15 C3_15 1_555 1_555
H5_15 C6_15 1_555 1_555
C2_15 C3_15 1_555 1_555
O4_9 Zn4_4 1_555 1_555
N1_16 N4_6 1_555 1_555
N4_6 C6_16 1_555 1_555
O5_9 C4_16 1_555 1_555
O3_16 C1_16 1_555 1_555
N3_16 H1_16 1_555 1_555
C1_16 N3_16 1_555 1_555
C2_16 N1_16 1_555 1_555
H2_16 C2_16 1_555 1_555
C3_16 C1_16 1_555 1_555
C4_16 C5_16 1_555 1_555
C5_16 N3_16 1_555 1_555
H4_16 C5_16 1_555 1_555
C6_16 C3_16 1_555 1_555
H5_16 C6_16 1_555 1_555
C2_16 C3_16 1_555 1_555
O4_7 C4_17 1_555 1_555
N1_17 N4_4 1_555 1_555
N4_4 C6_17 1_555 1_555
O5_8 C4_17 1_555 1_555
O3_17 C1_17 1_555 1_555
N3_17 H1_17 1_555 1_555
C1_17 N3_17 1_555 1_555
C2_17 N1_17 1_555 1_555
H2_17 C2_17 1_555 1_555
C3_17 C1_17 1_555 1_555
C4_17 C5_17 1_555 1_555
C5_17 N3_17 1_555 1_555
H3_15 C5_17 1_555 1_555
H4_17 C5_17 1_555 1_555
C6_17 C3_17 1_555 1_555
H5_17 C6_17 1_555 1_555
C2_17 C3_17 1_555 1_555
Zn4 N1_18 1_555 1_555
N1_18 N4_5 1_555 1_555
N4_5 C6_18 1_555 1_555
O5_7 C4_18 1_555 1_555
O3_18 C1_18 1_555 1_555
N3_18 H1_18 1_555 1_555
C1_18 N3_18 1_555 1_555
C2_18 N1_18 1_555 1_555
H2_18 C2_18 1_555 1_555
C3_18 C1_18 1_555 1_555
C4_18 C5_18 1_555 1_555
C5_18 N3_18 1_555 1_555
H4_18 C5_18 1_555 1_555
C6_18 C3_18 1_555 1_555
H5_18 C6_18 1_555 1_555
C2_18 C3_18 1_555 1_555

#END
