
###############################################################################
#
# This file contains modified crystal structure data generated from the
# MOF subset of the Cambridge Structural Database (CSD) v543 
# hosted by the Cambridge Crystallographic Data Centre (CCDC).
#
# This work is licensed under the Creative Commons
# Attribution-NonCommercial-ShareAlike 4.0 International License.
# To view a copy of this license, visit
# http://creativecommons.org/licenses/by-nc-sa/4.0/
# or send a letter to
# Creative Commons, PO Box 1866, Mountain View, CA 94042, USA.
#
# CIF created using the CSD Python API on 29 September 2022
# The structure has been converted into the P1 space group
# The structure has a 3D framework
# The original CSD entry VUWVIV is in the rhombohedral crystal system
# The framework has been calculated to contain at least 10.0% void space
# The void calculation uses a probe of radius 1.32A, grid spacing 0.4
#
###############################################################################

data_VUWVIV
_chemical_formula_moiety         '(C108 H90 N54 O47 Zn13)n'
_symmetry_cell_setting           triclinic
_symmetry_space_group_name_H-M   'P 1'
_symmetry_Int_Tables_number      1
_space_group_name_Hall           'P 1'
loop_
_symmetry_equiv_pos_site_id
_symmetry_equiv_pos_as_xyz
1 x,y,z
_cell_length_a                   27.0355(9)
_cell_length_b                   27.0355(9)
_cell_length_c                   10.1431(4)
_cell_angle_alpha                90
_cell_angle_beta                 90
_cell_angle_gamma                120
_cell_volume                     6420.52
loop_
_atom_site_label
_atom_site_type_symbol
_atom_site_fract_x
_atom_site_fract_y
_atom_site_fract_z
O3 O 0.4446(3) 0.5554(3) 0.0504(6)
H3 H 0.5642 0.6198 0.0598
Zn2 Zn 0.32613(3) 0.35247(3) 0.11425(9)
Zn1 Zn 0.64753(3) 0.67387(3) 0.61425(9)
N1 N 0.6118(4) 0.6496(3) 0.8949(6)
O1 O 0.3236(2) 0.4019(2) 0.9752(5)
N2 N 0.5954(3) 0.6446(3) 0.7652(6)
O2 O 0.3797(3) 0.4211(2) 0.7995(5)
N3 N 0.4173(3) 0.5360(3) 0.8373(6)
H1 H 0.4264 0.5449 0.7560
C1 C 0.5390(3) 0.6144(3) 0.7592(7)
H2 H 0.5175 0.6049 0.6822
C2 C 0.3544(3) 0.4341(3) 0.8839(7)
C3 C 0.5166(3) 0.5990(3) 0.8869(7)
C4 C 0.4564(3) 0.5620(3) 0.9313(7)
C5 C 0.5648(3) 0.6226(3) 0.9683(7)
C6 C 0.3598(3) 0.4928(3) 0.8718(8)
H4 H 0.3336 0.4916 0.8048
H5 H 0.3493 0.5029 0.9549
Zn3 Zn 0.69301(4) 0.68580(3) 0.94758(9)
Zn4 Zn 0.35967(4) 0.34054(3) 0.78092(9)
N4 N 0.6837(3) 0.6289(5) 0.5616(6)
O4 O 0.5981(2) 0.6764(2) 0.4752(5)
O5 O 0.7081(4) 0.7544(2) 0.6328(5)
Zn3_2 Zn 0.31420(3) 0.00720(5) 0.94758(9)
Zn4_2 Zn 0.65946(3) 0.01914(5) 0.78092(9)
N4_2 N 0.3711(5) 0.0549(6) 0.5616(6)
O3_2 O 0.4446(3) 0.8892(4) 0.0504(6)
H3_2 H 0.3802 0.9444 0.0598
Zn2_2 Zn 0.64753(3) 0.97366(4) 0.11425(9)
Zn1_2 Zn 0.32613(3) 0.97366(4) 0.61425(9)
N1_2 N 0.3504(3) 0.9622(5) 0.8949(6)
O1_2 O 0.5981(2) 0.9217(3) 0.9752(5)
N2_2 N 0.3554(3) 0.9508(4) 0.7652(6)
O2_2 O 0.5789(2) 0.9586(4) 0.7995(5)
N3_2 N 0.4640(3) 0.8813(4) 0.8373(6)
H1_2 H 0.4551 0.8815 0.7560
C1_2 C 0.3856(3) 0.9246(4) 0.7592(7)
H2_2 H 0.3951 0.9126 0.6822
C2_2 C 0.5659(3) 0.9203(4) 0.8839(7)
C3_2 C 0.4010(3) 0.9176(4) 0.8869(7)
C4_2 C 0.4380(3) 0.8944(4) 0.9313(7)
C5_2 C 0.3774(3) 0.9422(4) 0.9683(7)
C6_2 C 0.5072(3) 0.8670(4) 0.8718(8)
H4_2 H 0.5084 0.8420 0.8048
H5_2 H 0.4971 0.8464 0.9549
O4_2 O 0.3236(2) 0.9217(3) 0.4752(5)
O5_2 O 0.2456(2) 0.9536(4) 0.6328(5)
O3_3 O 0.1108(4) 0.5554(3) 0.0504(6)
H3_3 H 0.0556 0.4358 0.0598
Zn2_3 Zn 0.02634(4) 0.67387(3) 0.11425(9)
Zn1_3 Zn 0.02634(4) 0.35247(3) 0.61425(9)
N1_3 N 0.0378(5) 0.3882(4) 0.8949(6)
O1_3 O 0.0783(3) 0.6764(2) 0.9752(5)
N2_3 N 0.0492(4) 0.4046(3) 0.7652(6)
O2_3 O 0.0414(4) 0.6203(3) 0.7995(5)
N3_3 N 0.1187(4) 0.5827(3) 0.8373(6)
H1_3 H 0.1185 0.5736 0.7560
C1_3 C 0.0754(4) 0.4610(3) 0.7592(7)
H2_3 H 0.0874 0.4825 0.6822
C2_3 C 0.0797(4) 0.6456(3) 0.8839(7)
C3_3 C 0.0824(4) 0.4834(3) 0.8869(7)
C4_3 C 0.1056(4) 0.5436(3) 0.9313(7)
C5_3 C 0.0578(4) 0.4352(3) 0.9683(7)
C6_3 C 0.1330(4) 0.6402(3) 0.8718(8)
H4_3 H 0.1580 0.6664 0.8048
H5_3 H 0.1536 0.6507 0.9549
O4_3 O 0.0783(3) 0.4019(2) 0.4752(5)
O5_3 O 0.0464(4) 0.2919(4) 0.6328(5)
Zn3_3 Zn 0.99280(5) 0.30699(4) 0.94758(9)
Zn4_3 Zn 0.98086(5) 0.64033(4) 0.78092(9)
N4_3 N 0.9451(6) 0.3163(3) 0.5616(6)
N1_4 N 0.0378(5) 0.6496(3) 0.3949(6)
N2_4 N 0.0492(4) 0.6446(3) 0.2652(6)
O2_4 O 0.0414(4) 0.4211(2) 0.2995(5)
N3_4 N 0.1187(4) 0.5360(3) 0.3373(6)
H1_4 H 0.1185 0.5449 0.2560
C1_4 C 0.0754(4) 0.6144(3) 0.2592(7)
H2_4 H 0.0874 0.6049 0.1822
C2_4 C 0.0797(4) 0.4341(3) 0.3839(7)
O3_4 O 0.1108(4) 0.5554(3) 0.5504(6)
C3_4 C 0.0824(4) 0.5990(3) 0.3869(7)
C4_4 C 0.1056(4) 0.5620(3) 0.4313(7)
C5_4 C 0.0578(4) 0.6226(3) 0.4683(7)
H3_4 H 0.0556 0.6198 0.5598
C6_4 C 0.1330(4) 0.4928(3) 0.3718(8)
H4_4 H 0.1580 0.4916 0.3048
H5_4 H 0.1536 0.5029 0.4549
O5_4 O 0.0464(4) 0.7544(2) 0.1328(5)
Zn3_4 Zn 0.99280(5) 0.68580(3) 0.44758(9)
Zn4_4 Zn 0.98086(5) 0.34054(3) 0.28092(9)
N4_4 N 0.9451(6) 0.6289(5) 0.0616(6)
Zn3_5 Zn 0.69301(4) 0.00720(5) 0.44758(9)
Zn4_5 Zn 0.35967(4) 0.01914(5) 0.28092(9)
N4_5 N 0.6837(3) 0.0549(6) 0.0616(6)
N1_5 N 0.6118(4) 0.9622(5) 0.3949(6)
N2_5 N 0.5954(3) 0.9508(4) 0.2652(6)
O2_5 O 0.3797(3) 0.9586(4) 0.2995(5)
N3_5 N 0.4173(3) 0.8813(4) 0.3373(6)
H1_5 H 0.4264 0.8815 0.2560
C1_5 C 0.5390(3) 0.9246(4) 0.2592(7)
H2_5 H 0.5175 0.9126 0.1822
C2_5 C 0.3544(3) 0.9203(4) 0.3839(7)
O3_5 O 0.4446(3) 0.8892(4) 0.5504(6)
C3_5 C 0.5166(3) 0.9176(4) 0.3869(7)
C4_5 C 0.4564(3) 0.8944(4) 0.4313(7)
C5_5 C 0.5648(3) 0.9422(4) 0.4683(7)
H3_5 H 0.5642 0.9444 0.5598
C6_5 C 0.3598(3) 0.8670(4) 0.3718(8)
H4_5 H 0.3336 0.8420 0.3048
H5_5 H 0.3493 0.8464 0.4549
O5_5 O 0.7081(4) 0.9536(4) 0.1328(5)
N1_6 N 0.3504(3) 0.3882(4) 0.3949(6)
N2_6 N 0.3554(3) 0.4046(3) 0.2652(6)
O2_6 O 0.5789(2) 0.6203(3) 0.2995(5)
N3_6 N 0.4640(3) 0.5827(3) 0.3373(6)
H1_6 H 0.4551 0.5736 0.2560
C1_6 C 0.3856(3) 0.4610(3) 0.2592(7)
H2_6 H 0.3951 0.4825 0.1822
C2_6 C 0.5659(3) 0.6456(3) 0.3839(7)
O3_6 O 0.4446(3) 0.5554(3) 0.5504(6)
C3_6 C 0.4010(3) 0.4834(3) 0.3869(7)
C4_6 C 0.4380(3) 0.5436(3) 0.4313(7)
C5_6 C 0.3774(3) 0.4352(3) 0.4683(7)
H3_6 H 0.3802 0.4358 0.5598
C6_6 C 0.5072(3) 0.6402(3) 0.3718(8)
H4_6 H 0.5084 0.6664 0.3048
H5_6 H 0.4971 0.6507 0.4549
Zn3_6 Zn 0.31420(3) 0.30699(4) 0.44758(9)
Zn4_6 Zn 0.65946(3) 0.64033(4) 0.28092(9)
N4_6 N 0.3711(5) 0.3163(3) 0.0616(6)
O5_6 O 0.2456(2) 0.2919(4) 0.1328(5)
O4_4 O 0.2648(2) 0.0097(2) 0.8085(5)
O5_7 O 0.3747(4) 0.0878(2) 0.9662(5)
N1_7 N 0.2785(4) 0.9829(3) 0.2282(6)
N2_7 N 0.2621(3) 0.9779(3) 0.0985(6)
N3_7 N 0.0840(3) 0.8693(3) 0.1706(6)
H1_7 H 0.0931 0.8782 0.0893
C1_7 C 0.2057(3) 0.9477(3) 0.0925(7)
H2_7 H 0.1842 0.9382 0.0155
C2_7 C 0.0211(3) 0.7674(3) 0.2172(7)
O3_7 O 0.1113(3) 0.8887(3) 0.3837(6)
C3_7 C 0.1833(3) 0.9323(3) 0.2202(7)
C4_7 C 0.1231(3) 0.8953(3) 0.2646(7)
C5_7 C 0.2315(3) 0.9559(3) 0.3016(7)
H3_7 H 0.2309 0.9531 0.3931
C6_7 C 0.0265(3) 0.8261(3) 0.2051(8)
H4_7 H 0.0003 0.8249 0.1381
H5_7 H 0.0160 0.8362 0.2882
O1_4 O 0.9903(2) 0.7352(2) 0.3085(5)
N1_8 N 0.0171(3) 0.2955(5) 0.2282(6)
O1_5 O 0.2648(2) 0.2550(3) 0.3085(5)
N2_8 N 0.0221(3) 0.2841(4) 0.0985(6)
N3_8 N 0.1307(3) 0.2146(4) 0.1706(6)
H1_8 H 0.1218 0.2148 0.0893
C1_8 C 0.0523(3) 0.2579(4) 0.0925(7)
H2_8 H 0.0618 0.2459 0.0155
C2_8 C 0.2326(3) 0.2536(4) 0.2172(7)
O3_8 O 0.1113(3) 0.2225(4) 0.3837(6)
C3_8 C 0.0677(3) 0.2509(4) 0.2202(7)
C4_8 C 0.1047(3) 0.2277(4) 0.2646(7)
C5_8 C 0.0441(3) 0.2755(4) 0.3016(7)
H3_8 H 0.0469 0.2777 0.3931
C6_8 C 0.1739(3) 0.2003(4) 0.2051(8)
H4_8 H 0.1751 0.1753 0.1381
H5_8 H 0.1638 0.1797 0.2882
O4_5 O 0.9903(2) 0.2550(3) 0.8085(5)
O5_8 O 0.9122(2) 0.2870(4) 0.9662(5)
O1_6 O 0.7450(3) 0.0097(2) 0.3085(5)
N1_9 N 0.7045(5) 0.7215(4) 0.2282(6)
N2_9 N 0.7159(4) 0.7379(3) 0.0985(6)
N3_9 N 0.7854(4) 0.9160(3) 0.1706(6)
H1_9 H 0.7852 0.9069 0.0893
C1_9 C 0.7421(4) 0.7943(3) 0.0925(7)
H2_9 H 0.7541 0.8158 0.0155
C2_9 C 0.7464(4) 0.9789(3) 0.2172(7)
O3_9 O 0.7775(4) 0.8887(3) 0.3837(6)
C3_9 C 0.7491(4) 0.8167(3) 0.2202(7)
C4_9 C 0.7723(4) 0.8769(3) 0.2646(7)
C5_9 C 0.7245(4) 0.7685(3) 0.3016(7)
H3_9 H 0.7223 0.7691 0.3931
C6_9 C 0.7997(4) 0.9735(3) 0.2051(8)
H4_9 H 0.8247 0.9997 0.1381
H5_9 H 0.8203 0.9840 0.2882
O4_6 O 0.7450(3) 0.7352(2) 0.8085(5)
O5_9 O 0.7130(4) 0.6253(4) 0.9662(5)
O5_10 O 0.7130(4) 0.0878(2) 0.4662(5)
N1_10 N 0.7045(5) 0.9829(3) 0.7282(6)
N2_10 N 0.7159(4) 0.9779(3) 0.5985(6)
N3_10 N 0.7854(4) 0.8693(3) 0.6706(6)
H1_10 H 0.7852 0.8782 0.5893
C1_10 C 0.7421(4) 0.9477(3) 0.5925(7)
H2_10 H 0.7541 0.9382 0.5155
C2_10 C 0.7464(4) 0.7674(3) 0.7172(7)
O3_10 O 0.7775(4) 0.8887(3) 0.8837(6)
C3_10 C 0.7491(4) 0.9323(3) 0.7202(7)
C4_10 C 0.7723(4) 0.8953(3) 0.7646(7)
C5_10 C 0.7245(4) 0.9559(3) 0.8016(7)
H3_10 H 0.7223 0.9531 0.8931
C6_10 C 0.7997(4) 0.8261(3) 0.7051(8)
H4_10 H 0.8247 0.8249 0.6381
H5_10 H 0.8203 0.8362 0.7882
N1_11 N 0.2785(4) 0.2955(5) 0.7282(6)
N2_11 N 0.2621(3) 0.2841(4) 0.5985(6)
N3_11 N 0.0840(3) 0.2146(4) 0.6706(6)
H1_11 H 0.0931 0.2148 0.5893
C1_11 C 0.2057(3) 0.2579(4) 0.5925(7)
H2_11 H 0.1842 0.2459 0.5155
C2_11 C 0.0211(3) 0.2536(4) 0.7172(7)
O3_11 O 0.1113(3) 0.2225(4) 0.8837(6)
C3_11 C 0.1833(3) 0.2509(4) 0.7202(7)
C4_11 C 0.1231(3) 0.2277(4) 0.7646(7)
C5_11 C 0.2315(3) 0.2755(4) 0.8016(7)
H3_11 H 0.2309 0.2777 0.8931
C6_11 C 0.0265(3) 0.2003(4) 0.7051(8)
H4_11 H 0.0003 0.1753 0.6381
H5_11 H 0.0160 0.1797 0.7882
O5_11 O 0.3747(4) 0.2870(4) 0.4662(5)
N1_12 N 0.0171(3) 0.7215(4) 0.7282(6)
N2_12 N 0.0221(3) 0.7379(3) 0.5985(6)
N3_12 N 0.1307(3) 0.9160(3) 0.6706(6)
H1_12 H 0.1218 0.9069 0.5893
C1_12 C 0.0523(3) 0.7943(3) 0.5925(7)
H2_12 H 0.0618 0.8158 0.5155
C2_12 C 0.2326(3) 0.9789(3) 0.7172(7)
O3_12 O 0.1113(3) 0.8887(3) 0.8837(6)
C3_12 C 0.0677(3) 0.8167(3) 0.7202(7)
C4_12 C 0.1047(3) 0.8769(3) 0.7646(7)
C5_12 C 0.0441(3) 0.7685(3) 0.8016(7)
H3_12 H 0.0469 0.7691 0.8931
C6_12 C 0.1739(3) 0.9735(3) 0.7051(8)
H4_12 H 0.1751 0.9997 0.6381
H5_12 H 0.1638 0.9840 0.7882
O5_12 O 0.9122(2) 0.6253(4) 0.4662(5)
O1_7 O 0.6569(2) 0.0686(2) 0.6419(5)
N2_13 N 0.9287(3) 0.3113(3) 0.4319(6)
N3_13 N 0.7506(3) 0.2027(3) 0.5040(6)
H1_13 H 0.7597 0.2116 0.4227
C1_13 C 0.8723(3) 0.2811(3) 0.4259(7)
H2_13 H 0.8508 0.2716 0.3489
C2_13 C 0.6877(3) 0.1008(3) 0.5506(7)
O3_13 O 0.7779(3) 0.2221(3) 0.7171(6)
C3_13 C 0.8499(3) 0.2657(3) 0.5536(7)
C4_13 C 0.7897(3) 0.2287(3) 0.5980(7)
C5_13 C 0.8981(3) 0.2893(3) 0.6350(7)
H3_13 H 0.8975 0.2865 0.7265
C6_13 C 0.6931(3) 0.1595(3) 0.5385(8)
H4_13 H 0.6669 0.1583 0.4715
H5_13 H 0.6826 0.1696 0.6216
O4_7 O 0.9314(2) 0.3431(2) 0.1419(5)
O1_8 O 0.9314(2) 0.5884(3) 0.6419(5)
N2_14 N 0.6887(3) 0.6175(4) 0.4319(6)
N3_14 N 0.7973(3) 0.5480(4) 0.5040(6)
H1_14 H 0.7884 0.5482 0.4227
C1_14 C 0.7189(3) 0.5913(4) 0.4259(7)
H2_14 H 0.7284 0.5793 0.3489
C2_14 C 0.8992(3) 0.5870(4) 0.5506(7)
O3_14 O 0.7779(3) 0.5559(4) 0.7171(6)
C3_14 C 0.7343(3) 0.5843(4) 0.5536(7)
C4_14 C 0.7713(3) 0.5611(4) 0.5980(7)
C5_14 C 0.7107(3) 0.6089(4) 0.6350(7)
H3_14 H 0.7135 0.6111 0.7265
C6_14 C 0.8405(3) 0.5337(4) 0.5385(8)
H4_14 H 0.8417 0.5087 0.4715
H5_14 H 0.8304 0.5131 0.6216
O4_8 O 0.6569(2) 0.5884(3) 0.1419(5)
O1_9 O 0.4116(3) 0.3431(2) 0.6419(5)
N2_15 N 0.3825(4) 0.0713(3) 0.4319(6)
N3_15 N 0.4520(4) 0.2494(3) 0.5040(6)
H1_15 H 0.4518 0.2403 0.4227
C1_15 C 0.4087(4) 0.1277(3) 0.4259(7)
H2_15 H 0.4207 0.1492 0.3489
C2_15 C 0.4130(4) 0.3123(3) 0.5506(7)
O3_15 O 0.4441(4) 0.2221(3) 0.7171(6)
C3_15 C 0.4157(4) 0.1501(3) 0.5536(7)
C4_15 C 0.4389(4) 0.2103(3) 0.5980(7)
C5_15 C 0.3911(4) 0.1019(3) 0.6350(7)
H3_15 H 0.3889 0.1025 0.7265
C6_15 C 0.4663(4) 0.3069(3) 0.5385(8)
H4_15 H 0.4913 0.3331 0.4715
H5_15 H 0.4869 0.3174 0.6216
O4_9 O 0.4116(3) 0.0686(2) 0.1419(5)
N3_16 N 0.4520(4) 0.2027(3) 0.0040(6)
C2_16 C 0.4130(4) 0.1008(3) 0.0506(7)
O3_16 O 0.4441(4) 0.2221(3) 0.2171(6)
C3_16 C 0.4157(4) 0.2657(3) 0.0536(7)
C4_16 C 0.4389(4) 0.2287(3) 0.0980(7)
C5_16 C 0.3911(4) 0.2893(3) 0.1350(7)
H3_16 H 0.3889 0.2865 0.2265
C6_16 C 0.4663(4) 0.1595(3) 0.0385(8)
H5_16 H 0.4869 0.1696 0.1216
N2_16 N 0.3825(4) 0.3113(3) 0.9319(6)
H1_16 H 0.4518 0.2116 0.9227
C1_16 C 0.4087(4) 0.2811(3) 0.9259(7)
H2_16 H 0.4207 0.2716 0.8489
H4_16 H 0.4913 0.1583 0.9715
N3_17 N 0.7506(3) 0.5480(4) 0.0040(6)
C2_17 C 0.6877(3) 0.5870(4) 0.0506(7)
O3_17 O 0.7779(3) 0.5559(4) 0.2171(6)
C3_17 C 0.8499(3) 0.5843(4) 0.0536(7)
C4_17 C 0.7897(3) 0.5611(4) 0.0980(7)
C5_17 C 0.8981(3) 0.6089(4) 0.1350(7)
H3_17 H 0.8975 0.6111 0.2265
C6_17 C 0.6931(3) 0.5337(4) 0.0385(8)
H5_17 H 0.6826 0.5131 0.1216
N2_17 N 0.9287(3) 0.6175(4) 0.9319(6)
H1_17 H 0.7597 0.5482 0.9227
C1_17 C 0.8723(3) 0.5913(4) 0.9259(7)
H2_17 H 0.8508 0.5793 0.8489
H4_17 H 0.6669 0.5087 0.9715
N3_18 N 0.7973(3) 0.2494(3) 0.0040(6)
C2_18 C 0.8992(3) 0.3123(3) 0.0506(7)
O3_18 O 0.7779(3) 0.2221(3) 0.2171(6)
C3_18 C 0.7343(3) 0.1501(3) 0.0536(7)
C4_18 C 0.7713(3) 0.2103(3) 0.0980(7)
C5_18 C 0.7107(3) 0.1019(3) 0.1350(7)
H3_18 H 0.7135 0.1025 0.2265
C6_18 C 0.8405(3) 0.3069(3) 0.0385(8)
H5_18 H 0.8304 0.3174 0.1216
N2_18 N 0.6887(3) 0.0713(3) 0.9319(6)
H1_18 H 0.7884 0.2403 0.9227
C1_18 C 0.7189(3) 0.1277(3) 0.9259(7)
H2_18 H 0.7284 0.1492 0.8489
H4_18 H 0.8417 0.3331 0.9715
loop_
_geom_bond_atom_site_label_1
_geom_bond_atom_site_label_2
_geom_bond_site_symmetry_1
_geom_bond_site_symmetry_2
Zn1 N2 1_555 1_555
N1 N2 1_555 1_555
O1 C2 1_555 1_555
N2 C1 1_555 1_555
O2 C2 1_555 1_555
N3 H1 1_555 1_555
C1 H2 1_555 1_555
C2 C6 1_555 1_555
C3 C1 1_555 1_555
C4 N3 1_555 1_555
C5 N1 1_555 1_555
C6 N3 1_555 1_555
H4 C6 1_555 1_555
H5 C6 1_555 1_555
Zn3 N1 1_555 1_555
Zn4 O2 1_555 1_555
N4 Zn1 1_555 1_555
O4 Zn1 1_555 1_555
O5 Zn1 1_555 1_555
C3 C4 1_555 1_555
C3 C5 1_555 1_555
Zn1_2 N2_2 1_555 1_555
N1_2 N2_2 1_555 1_555
O1_2 C2_2 1_555 1_555
N2_2 C1_2 1_555 1_555
O2_2 C2_2 1_555 1_555
N3_2 H1_2 1_555 1_555
C1_2 H2_2 1_555 1_555
C2_2 C6_2 1_555 1_555
C3_2 C1_2 1_555 1_555
C4_2 N3_2 1_555 1_555
C5_2 N1_2 1_555 1_555
C6_2 N3_2 1_555 1_555
H4_2 C6_2 1_555 1_555
H5_2 C6_2 1_555 1_555
O4_2 Zn1_2 1_555 1_555
O5_2 Zn1_2 1_555 1_555
C3_2 C4_2 1_555 1_555
C3_2 C5_2 1_555 1_555
Zn1_3 N2_3 1_555 1_555
N1_3 N2_3 1_555 1_555
O1_3 C2_3 1_555 1_555
N2_3 C1_3 1_555 1_555
O2_3 C2_3 1_555 1_555
N3_3 H1_3 1_555 1_555
C1_3 H2_3 1_555 1_555
C2_3 C6_3 1_555 1_555
C3_3 C1_3 1_555 1_555
C4_3 N3_3 1_555 1_555
C5_3 N1_3 1_555 1_555
C6_3 N3_3 1_555 1_555
H4_3 C6_3 1_555 1_555
H5_3 C6_3 1_555 1_555
O4_3 Zn1_3 1_555 1_555
O5_3 Zn1_3 1_555 1_555
C3_3 C4_3 1_555 1_555
C3_3 C5_3 1_555 1_555
Zn2_3 N2_4 1_555 1_555
N1_4 N2_4 1_555 1_555
O4_3 C2_4 1_555 1_555
N2_4 C1_4 1_555 1_555
O2_4 C2_4 1_555 1_555
N3_4 H1_4 1_555 1_555
C1_4 H2_4 1_555 1_555
C2_4 C6_4 1_555 1_555
O3_4 C4_4 1_555 1_555
C3_4 C1_4 1_555 1_555
C4_4 N3_4 1_555 1_555
C5_4 N1_4 1_555 1_555
H3_4 C5_4 1_555 1_555
C6_4 N3_4 1_555 1_555
H4_4 C6_4 1_555 1_555
H5_4 C6_4 1_555 1_555
O5_4 Zn2_3 1_555 1_555
C3_4 C4_4 1_555 1_555
C3_4 C5_4 1_555 1_555
Zn2_2 N2_5 1_555 1_555
N1_5 N2_5 1_555 1_555
O4_2 C2_5 1_555 1_555
N2_5 C1_5 1_555 1_555
O2_5 C2_5 1_555 1_555
N3_5 H1_5 1_555 1_555
C1_5 H2_5 1_555 1_555
C2_5 C6_5 1_555 1_555
O3_5 C4_5 1_555 1_555
C3_5 C1_5 1_555 1_555
C4_5 N3_5 1_555 1_555
C5_5 N1_5 1_555 1_555
H3_5 C5_5 1_555 1_555
C6_5 N3_5 1_555 1_555
H4_5 C6_5 1_555 1_555
H5_5 C6_5 1_555 1_555
O5_5 Zn2_2 1_555 1_555
C3_5 C4_5 1_555 1_555
C3_5 C5_5 1_555 1_555
Zn2 N2_6 1_555 1_555
N1_6 N2_6 1_555 1_555
O4 C2_6 1_555 1_555
N2_6 C1_6 1_555 1_555
O2_6 C2_6 1_555 1_555
N3_6 H1_6 1_555 1_555
C1_6 H2_6 1_555 1_555
C2_6 C6_6 1_555 1_555
O3_6 C4_6 1_555 1_555
C3_6 C1_6 1_555 1_555
C4_6 N3_6 1_555 1_555
C5_6 N1_6 1_555 1_555
H3_6 C5_6 1_555 1_555
C6_6 N3_6 1_555 1_555
H4_6 C6_6 1_555 1_555
H5_6 C6_6 1_555 1_555
Zn3_6 N1_6 1_555 1_555
Zn4_6 O2_6 1_555 1_555
N4_6 Zn2 1_555 1_555
O5_6 Zn2 1_555 1_555
C3_6 C4_6 1_555 1_555
C3_6 C5_6 1_555 1_555
O4_4 Zn3_2 1_555 1_555
O5_7 Zn3_2 1_555 1_555
N1_7 N2_7 1_555 1_555
N2_7 C1_7 1_555 1_555
O5_4 C2_7 1_555 1_555
N3_7 H1_7 1_555 1_555
C1_7 H2_7 1_555 1_555
C2_7 C6_7 1_555 1_555
O3_7 C4_7 1_555 1_555
C3_7 C1_7 1_555 1_555
C4_7 N3_7 1_555 1_555
C5_7 N1_7 1_555 1_555
H3_7 C5_7 1_555 1_555
C6_7 N3_7 1_555 1_555
H4_7 C6_7 1_555 1_555
H5_7 C6_7 1_555 1_555
C3_7 C4_7 1_555 1_555
C3_7 C5_7 1_555 1_555
Zn3_4 O1_4 1_555 1_555
N1_8 N2_8 1_555 1_555
O1_5 C2_8 1_555 1_555
N2_8 C1_8 1_555 1_555
O5_6 C2_8 1_555 1_555
N3_8 H1_8 1_555 1_555
C1_8 H2_8 1_555 1_555
C2_8 C6_8 1_555 1_555
O3_8 C4_8 1_555 1_555
C3_8 C1_8 1_555 1_555
C4_8 N3_8 1_555 1_555
C5_8 N1_8 1_555 1_555
H3_8 C5_8 1_555 1_555
C6_8 N3_8 1_555 1_555
H4_8 C6_8 1_555 1_555
H5_8 C6_8 1_555 1_555
Zn3_6 O1_5 1_555 1_555
C3_8 C4_8 1_555 1_555
C3_8 C5_8 1_555 1_555
O4_5 Zn3_3 1_555 1_555
O5_8 Zn3_3 1_555 1_555
Zn3_5 O1_6 1_555 1_555
N1_9 N2_9 1_555 1_555
N2_9 C1_9 1_555 1_555
O5_5 C2_9 1_555 1_555
N3_9 H1_9 1_555 1_555
C1_9 H2_9 1_555 1_555
C2_9 C6_9 1_555 1_555
O3_9 C4_9 1_555 1_555
C3_9 C1_9 1_555 1_555
C4_9 N3_9 1_555 1_555
C5_9 N1_9 1_555 1_555
H3_9 C5_9 1_555 1_555
C6_9 N3_9 1_555 1_555
H4_9 C6_9 1_555 1_555
H5_9 C6_9 1_555 1_555
Zn4_6 N1_9 1_555 1_555
C3_9 C4_9 1_555 1_555
C3_9 C5_9 1_555 1_555
O4_6 Zn3 1_555 1_555
O5_9 Zn3 1_555 1_555
O5_10 Zn3_5 1_555 1_555
N1_10 N2_10 1_555 1_555
O4_6 C2_10 1_555 1_555
N2_10 C1_10 1_555 1_555
O5 C2_10 1_555 1_555
N3_10 H1_10 1_555 1_555
C1_10 H2_10 1_555 1_555
C2_10 C6_10 1_555 1_555
O3_10 C4_10 1_555 1_555
C3_10 C1_10 1_555 1_555
C4_10 N3_10 1_555 1_555
C5_10 N1_10 1_555 1_555
H3_10 C5_10 1_555 1_555
C6_10 N3_10 1_555 1_555
H4_10 C6_10 1_555 1_555
H5_10 C6_10 1_555 1_555
C3_10 C4_10 1_555 1_555
C3_10 C5_10 1_555 1_555
Zn3_6 N2_11 1_555 1_555
N1_11 N2_11 1_555 1_555
N2_11 C1_11 1_555 1_555
O5_3 C2_11 1_555 1_555
N3_11 H1_11 1_555 1_555
C1_11 H2_11 1_555 1_555
C2_11 C6_11 1_555 1_555
O3_11 C4_11 1_555 1_555
C3_11 C1_11 1_555 1_555
C4_11 N3_11 1_555 1_555
C5_11 N1_11 1_555 1_555
H3_11 C5_11 1_555 1_555
C6_11 N3_11 1_555 1_555
H4_11 C6_11 1_555 1_555
H5_11 C6_11 1_555 1_555
Zn4 N1_11 1_555 1_555
O5_11 Zn3_6 1_555 1_555
C3_11 C4_11 1_555 1_555
C3_11 C5_11 1_555 1_555
N1_12 N2_12 1_555 1_555
N2_12 C1_12 1_555 1_555
O5_2 C2_12 1_555 1_555
N3_12 H1_12 1_555 1_555
C1_12 H2_12 1_555 1_555
C2_12 C6_12 1_555 1_555
O3_12 C4_12 1_555 1_555
C3_12 C1_12 1_555 1_555
C4_12 N3_12 1_555 1_555
C5_12 N1_12 1_555 1_555
H3_12 C5_12 1_555 1_555
C6_12 N3_12 1_555 1_555
H4_12 C6_12 1_555 1_555
H5_12 C6_12 1_555 1_555
C3_12 C4_12 1_555 1_555
C3_12 C5_12 1_555 1_555
O5_12 Zn3_4 1_555 1_555
Zn4_4 N2_13 1_555 1_555
N4_3 N2_13 1_555 1_555
O1_7 C2_13 1_555 1_555
N2_13 C1_13 1_555 1_555
O5_10 C2_13 1_555 1_555
N3_13 H1_13 1_555 1_555
C1_13 H2_13 1_555 1_555
C2_13 C6_13 1_555 1_555
O3_13 C4_13 1_555 1_555
C3_13 C1_13 1_555 1_555
C4_13 N3_13 1_555 1_555
C5_13 N4_3 1_555 1_555
H3_13 C5_13 1_555 1_555
C6_13 N3_13 1_555 1_555
H4_13 C6_13 1_555 1_555
H5_13 C6_13 1_555 1_555
Zn4_2 O1_7 1_555 1_555
O4_7 Zn4_4 1_555 1_555
C3_13 C4_13 1_555 1_555
C3_13 C5_13 1_555 1_555
Zn4_6 N2_14 1_555 1_555
N4 N2_14 1_555 1_555
O1_8 C2_14 1_555 1_555
N2_14 C1_14 1_555 1_555
O5_12 C2_14 1_555 1_555
N3_14 H1_14 1_555 1_555
C1_14 H2_14 1_555 1_555
C2_14 C6_14 1_555 1_555
O3_14 C4_14 1_555 1_555
C3_14 C1_14 1_555 1_555
C4_14 N3_14 1_555 1_555
C5_14 N4 1_555 1_555
H3_14 C5_14 1_555 1_555
C6_14 N3_14 1_555 1_555
H4_14 C6_14 1_555 1_555
H5_14 C6_14 1_555 1_555
Zn4_3 O1_8 1_555 1_555
O4_8 Zn4_6 1_555 1_555
C3_14 C4_14 1_555 1_555
C3_14 C5_14 1_555 1_555
Zn4_5 N2_15 1_555 1_555
N4_2 N2_15 1_555 1_555
O1_9 C2_15 1_555 1_555
N2_15 C1_15 1_555 1_555
O5_11 C2_15 1_555 1_555
N3_15 H1_15 1_555 1_555
C1_15 H2_15 1_555 1_555
C2_15 C6_15 1_555 1_555
O3_15 C4_15 1_555 1_555
C3_15 C1_15 1_555 1_555
C4_15 N3_15 1_555 1_555
C5_15 N4_2 1_555 1_555
H3_15 C5_15 1_555 1_555
C6_15 N3_15 1_555 1_555
H4_15 C6_15 1_555 1_555
H5_15 C6_15 1_555 1_555
Zn4 O1_9 1_555 1_555
O4_9 Zn4_5 1_555 1_555
C3_15 C4_15 1_555 1_555
C3_15 C5_15 1_555 1_555
O4_9 C2_16 1_555 1_555
C2_16 C6_16 1_555 1_555
O3_16 C4_16 1_555 1_555
C4_16 N3_16 1_555 1_555
C5_16 N4_6 1_555 1_555
H3_16 C5_16 1_555 1_555
C6_16 N3_16 1_555 1_555
H5_16 C6_16 1_555 1_555
C3_16 C4_16 1_555 1_555
C3_16 C5_16 1_555 1_555
Zn4 N2_16 1_555 1_555
N2_16 C1_16 1_555 1_555
C1_16 H2_16 1_555 1_555
O4_8 C2_17 1_555 1_555
C2_17 C6_17 1_555 1_555
O3_17 C4_17 1_555 1_555
C4_17 N3_17 1_555 1_555
C5_17 N4_4 1_555 1_555
H3_17 C5_17 1_555 1_555
C6_17 N3_17 1_555 1_555
H5_17 C6_17 1_555 1_555
C3_17 C4_17 1_555 1_555
C3_17 C5_17 1_555 1_555
Zn4_3 N2_17 1_555 1_555
N2_17 C1_17 1_555 1_555
C1_17 H2_17 1_555 1_555
O4_7 C2_18 1_555 1_555
C2_18 C6_18 1_555 1_555
O3_18 C4_18 1_555 1_555
C4_18 N3_18 1_555 1_555
C5_18 N4_5 1_555 1_555
H3_18 C5_18 1_555 1_555
C6_18 N3_18 1_555 1_555
H5_18 C6_18 1_555 1_555
C3_18 C4_18 1_555 1_555
C3_18 C5_18 1_555 1_555
Zn4_2 N2_18 1_555 1_555
N2_18 C1_18 1_555 1_555
C1_18 H2_18 1_555 1_555

#END
