
###############################################################################
#
# This file contains modified crystal structure data generated from the
# MOF subset of the Cambridge Structural Database (CSD) v543 
# hosted by the Cambridge Crystallographic Data Centre (CCDC).
#
# This work is licensed under the Creative Commons
# Attribution-NonCommercial-ShareAlike 4.0 International License.
# To view a copy of this license, visit
# http://creativecommons.org/licenses/by-nc-sa/4.0/
# or send a letter to
# Creative Commons, PO Box 1866, Mountain View, CA 94042, USA.
#
# CIF created using the CSD Python API on 29 September 2022
# The structure has been converted into the P1 space group
# The structure has a 3D framework
# The original CSD entry VUWVAN01 is in the rhombohedral crystal system
# The framework has been calculated to contain at least 10.0% void space
# The void calculation uses a probe of radius 1.32A, grid spacing 0.4
#
###############################################################################

data_VUWVAN01
_chemical_formula_moiety         '(C108 H93 N54 O51 Zn5)n'
_symmetry_cell_setting           triclinic
_symmetry_space_group_name_H-M   'P 1'
_symmetry_Int_Tables_number      1
_space_group_name_Hall           'P 1'
loop_
_symmetry_equiv_pos_site_id
_symmetry_equiv_pos_as_xyz
1 x,y,z
_cell_length_a                   28.539(3)
_cell_length_b                   28.539(3)
_cell_length_c                   10.1528(6)
_cell_angle_alpha                90
_cell_angle_beta                 90
_cell_angle_gamma                120
_cell_volume                     7161.33
loop_
_atom_site_label
_atom_site_type_symbol
_atom_site_fract_x
_atom_site_fract_y
_atom_site_fract_z
N1 N 0.3867(7) 0.0290(7) 0.2205(15)
O1 O 0.6147(6) 0.0291(8) 0.3123(13)
O2 O 0.5439(6) 0.0876(6) 0.0651(12)
N2 N 0.4027(10) 0.0402(7) 0.3484(14)
N3 N 0.5706(7) 0.0970(7) 0.2750(17)
H1 H 0.5618 0.0954 0.3565
O3 O 0.6664(6) 0.0699(6) 0.1386(11)
C1 C 0.5305(9) 0.0837(9) 0.1838(18)
C2 C 0.4540(11) 0.0597(8) 0.3510(18)
H2 H 0.4744 0.0694 0.4281
C3 C 0.4757(8) 0.0648(8) 0.2283(17)
C4 C 0.6241(8) 0.1129(9) 0.2475(19)
H3 H 0.6467 0.1364 0.3177
H4 H 0.6346 0.1338 0.1667
C5 C 0.4300(8) 0.0436(8) 0.1447(19)
H5 H 0.4301 0.0406 0.0535
C6 C 0.6346(9) 0.0679(13) 0.2334(19)
Zn2 Zn 0.35324(14) 0.02409(9) 0.4986(3)
N4 N 0.2931(7) 0.0292(12) 0.0151(14)
O5 O 0.2634(6) 0.0003(6) 0.3053(11)
Zn3 Zn 0.67086(11) 0.02409(9) 0.9986(3)
Zn1 Zn 0.30924(9) 0.99581(11) 0.1653(3)
Zn4 Zn 0.64257(9) 0.98010(14) 0.3320(3)
O4 O 0.2814(6) 0.9189(10) 0.1456(13)
Zn1_2 Zn 0.00419(11) 0.31343(14) 0.1653(3)
Zn4_2 Zn 0.01990(14) 0.66248(17) 0.3320(3)
O4_2 O 0.0811(10) 0.3624(12) 0.1456(13)
N1_2 N 0.9710(7) 0.3577(10) 0.2205(15)
O1_2 O 0.9709(8) 0.5856(10) 0.3123(13)
O2_2 O 0.9124(6) 0.4563(8) 0.0651(12)
N2_2 N 0.9598(7) 0.3625(12) 0.3484(14)
N3_2 N 0.9030(7) 0.4736(10) 0.2750(17)
H1_2 H 0.9046 0.4664 0.3565
O3_2 O 0.9301(6) 0.5965(8) 0.1386(11)
C1_2 C 0.9163(9) 0.4468(13) 0.1838(18)
C2_2 C 0.9403(8) 0.3943(14) 0.3510(18)
H2_2 H 0.9306 0.4050 0.4281
C3_2 C 0.9352(8) 0.4109(11) 0.2283(17)
C4_2 C 0.8871(9) 0.5112(12) 0.2475(19)
H3_2 H 0.8636 0.5103 0.3177
H4_2 H 0.8662 0.5008 0.1667
C5_2 C 0.9564(8) 0.3864(11) 0.1447(19)
H5_2 H 0.9594 0.3895 0.0535
C6_2 C 0.9321(13) 0.5667(16) 0.2334(19)
Zn2_2 Zn 0.97591(9) 0.32914(17) 0.4986(3)
N4_2 N 0.9708(12) 0.2640(14) 0.0151(14)
O5_2 O 0.9997(6) 0.2632(8) 0.3053(11)
Zn3_2 Zn 0.97591(9) 0.64676(14) 0.9986(3)
Zn1_3 Zn 0.68657(14) 0.69076(9) 0.1653(3)
N1_3 N 0.6423(10) 0.6133(7) 0.2205(15)
O1_3 O 0.4144(10) 0.3853(6) 0.3123(13)
O2_3 O 0.5437(8) 0.4561(6) 0.0651(12)
N2_3 N 0.6375(12) 0.5973(10) 0.3484(14)
N3_3 N 0.5264(10) 0.4294(7) 0.2750(17)
H1_3 H 0.5336 0.4382 0.3565
O3_3 O 0.4035(8) 0.3336(6) 0.1386(11)
C1_3 C 0.5532(13) 0.4695(9) 0.1838(18)
C2_3 C 0.6057(14) 0.5460(11) 0.3510(18)
H2_3 H 0.5950 0.5256 0.4281
C3_3 C 0.5891(11) 0.5243(8) 0.2283(17)
C4_3 C 0.4888(12) 0.3759(8) 0.2475(19)
H3_3 H 0.4897 0.3533 0.3177
H4_3 H 0.4992 0.3654 0.1667
C5_3 C 0.6136(11) 0.5700(8) 0.1447(19)
H5_3 H 0.6105 0.5699 0.0535
C6_3 C 0.4333(16) 0.3654(9) 0.2334(19)
Zn2_3 Zn 0.67086(17) 0.64676(14) 0.4986(3)
Zn4_3 Zn 0.33752(17) 0.35743(9) 0.3320(3)
O4_3 O 0.6376(12) 0.7186(6) 0.1456(13)
N4_3 N 0.7360(14) 0.7069(7) 0.0151(14)
O5_3 O 0.7368(8) 0.7366(6) 0.3053(11)
Zn3_3 Zn 0.35324(14) 0.32914(11) 0.9986(3)
N1_4 N 0.6423(10) 0.0290(7) 0.7205(15)
O1_4 O 0.4144(10) 0.0291(8) 0.8123(13)
O2_4 O 0.5437(8) 0.0876(6) 0.5651(12)
N2_4 N 0.6375(12) 0.0402(7) 0.8484(14)
N3_4 N 0.5264(10) 0.0970(7) 0.7750(17)
H1_4 H 0.5336 0.0954 0.8565
O3_4 O 0.4035(8) 0.0699(6) 0.6386(11)
C1_4 C 0.5532(13) 0.0837(9) 0.6838(18)
C2_4 C 0.6057(14) 0.0597(8) 0.8510(18)
H2_4 H 0.5950 0.0694 0.9281
C3_4 C 0.5891(11) 0.0648(8) 0.7283(17)
C4_4 C 0.4888(12) 0.1129(9) 0.7475(19)
H3_4 H 0.4897 0.1364 0.8177
H4_4 H 0.4992 0.1338 0.6667
C5_4 C 0.6136(11) 0.0436(8) 0.6447(19)
H5_4 H 0.6105 0.0406 0.5535
C6_4 C 0.4333(16) 0.0679(13) 0.7334(19)
N4_4 N 0.7360(14) 0.0292(12) 0.5151(14)
O5_4 O 0.7368(8) 0.0003(6) 0.8053(11)
Zn1_4 Zn 0.68657(14) 0.99581(11) 0.6653(3)
Zn4_4 Zn 0.33752(17) 0.98010(14) 0.8320(3)
O4_4 O 0.6376(12) 0.9189(10) 0.6456(13)
Zn1_5 Zn 0.30924(9) 0.31343(14) 0.6653(3)
N1_5 N 0.3867(7) 0.3577(10) 0.7205(15)
O1_5 O 0.6147(6) 0.5856(10) 0.8123(13)
O2_5 O 0.5439(6) 0.4563(8) 0.5651(12)
N2_5 N 0.4027(10) 0.3625(12) 0.8484(14)
N3_5 N 0.5706(7) 0.4736(10) 0.7750(17)
H1_5 H 0.5618 0.4664 0.8565
O3_5 O 0.6664(6) 0.5965(8) 0.6386(11)
C1_5 C 0.5305(9) 0.4468(13) 0.6838(18)
C2_5 C 0.4540(11) 0.3943(14) 0.8510(18)
H2_5 H 0.4744 0.4050 0.9281
C3_5 C 0.4757(8) 0.4109(11) 0.7283(17)
C4_5 C 0.6241(8) 0.5112(12) 0.7475(19)
H3_5 H 0.6467 0.5103 0.8177
H4_5 H 0.6346 0.5008 0.6667
C5_5 C 0.4300(8) 0.3864(11) 0.6447(19)
H5_5 H 0.4301 0.3895 0.5535
C6_5 C 0.6346(9) 0.5667(16) 0.7334(19)
Zn4_5 Zn 0.64257(9) 0.66248(17) 0.8320(3)
O4_5 O 0.2814(6) 0.3624(12) 0.6456(13)
N4_5 N 0.2931(7) 0.2640(14) 0.5151(14)
O5_5 O 0.2634(6) 0.2632(8) 0.8053(11)
Zn1_6 Zn 0.00419(11) 0.69076(9) 0.6653(3)
Zn4_6 Zn 0.01990(14) 0.35743(9) 0.8320(3)
O4_6 O 0.0811(10) 0.7186(6) 0.6456(13)
N1_6 N 0.9710(7) 0.6133(7) 0.7205(15)
O1_6 O 0.9709(8) 0.3853(6) 0.8123(13)
O2_6 O 0.9124(6) 0.4561(6) 0.5651(12)
N2_6 N 0.9598(7) 0.5973(10) 0.8484(14)
N3_6 N 0.9030(7) 0.4294(7) 0.7750(17)
H1_6 H 0.9046 0.4382 0.8565
O3_6 O 0.9301(6) 0.3336(6) 0.6386(11)
C1_6 C 0.9163(9) 0.4695(9) 0.6838(18)
C2_6 C 0.9403(8) 0.5460(11) 0.8510(18)
H2_6 H 0.9306 0.5256 0.9281
C3_6 C 0.9352(8) 0.5243(8) 0.7283(17)
C4_6 C 0.8871(9) 0.3759(8) 0.7475(19)
H3_6 H 0.8636 0.3533 0.8177
H4_6 H 0.8662 0.3654 0.6667
C5_6 C 0.9564(8) 0.5700(8) 0.6447(19)
H5_6 H 0.9594 0.5699 0.5535
C6_6 C 0.9321(13) 0.3654(9) 0.7334(19)
N4_6 N 0.9708(12) 0.7069(7) 0.5151(14)
O5_6 O 0.9997(6) 0.7366(6) 0.8053(11)
N1_7 N 0.0534(7) 0.3623(7) 0.5538(15)
O2_7 O 0.2106(6) 0.4209(6) 0.3984(12)
N2_7 N 0.0694(10) 0.3735(7) 0.6817(14)
N3_7 N 0.2373(7) 0.4303(7) 0.6083(17)
H1_7 H 0.2285 0.4287 0.6898
O3_7 O 0.3331(6) 0.4032(6) 0.4719(11)
C1_7 C 0.1972(9) 0.4170(9) 0.5171(18)
C2_7 C 0.1207(11) 0.3930(8) 0.6843(18)
H2_7 H 0.1411 0.4027 0.7614
C3_7 C 0.1424(8) 0.3981(8) 0.5616(17)
C4_7 C 0.2908(8) 0.4462(9) 0.5808(19)
H3_7 H 0.3134 0.4697 0.6510
H4_7 H 0.3013 0.4671 0.5000
C5_7 C 0.0967(8) 0.3769(8) 0.4780(19)
H5_7 H 0.0968 0.3739 0.3868
C6_7 C 0.3013(9) 0.4012(13) 0.5667(19)
O4_7 O 0.9480(6) 0.2523(10) 0.4790(13)
N1_8 N 0.6377(7) 0.6910(10) 0.5538(15)
O2_8 O 0.5791(6) 0.7896(8) 0.3984(12)
N2_8 N 0.6265(7) 0.6958(12) 0.6817(14)
N3_8 N 0.5697(7) 0.8069(10) 0.6083(17)
H1_8 H 0.5713 0.7997 0.6898
O3_8 O 0.5968(6) 0.9298(8) 0.4719(11)
C1_8 C 0.5830(9) 0.7801(13) 0.5171(18)
C2_8 C 0.6070(8) 0.7276(14) 0.6843(18)
H2_8 H 0.5973 0.7383 0.7614
C3_8 C 0.6019(8) 0.7442(11) 0.5616(17)
C4_8 C 0.5538(9) 0.8445(12) 0.5808(19)
H3_8 H 0.5303 0.8436 0.6510
H4_8 H 0.5329 0.8341 0.5000
C5_8 C 0.6231(8) 0.7197(11) 0.4780(19)
H5_8 H 0.6261 0.7228 0.3868
C6_8 C 0.5988(13) 0.9000(16) 0.5667(19)
O4_8 O 0.7477(10) 0.6958(12) 0.4790(13)
O4_9 O 0.3042(12) 0.0520(6) 0.4790(13)
N1_9 N 0.3090(10) 0.9466(7) 0.5538(15)
O2_9 O 0.2104(8) 0.7894(6) 0.3984(12)
N2_9 N 0.3042(12) 0.9306(10) 0.6817(14)
N3_9 N 0.1931(10) 0.7627(7) 0.6083(17)
H1_9 H 0.2003 0.7715 0.6898
O3_9 O 0.0702(8) 0.6669(6) 0.4719(11)
C1_9 C 0.2199(13) 0.8028(9) 0.5171(18)
C2_9 C 0.2724(14) 0.8793(11) 0.6843(18)
H2_9 H 0.2617 0.8589 0.7614
C3_9 C 0.2558(11) 0.8576(8) 0.5616(17)
C4_9 C 0.1555(12) 0.7092(8) 0.5808(19)
H3_9 H 0.1564 0.6866 0.6510
H4_9 H 0.1659 0.6987 0.5000
C5_9 C 0.2803(11) 0.9033(8) 0.4780(19)
H5_9 H 0.2772 0.9032 0.3868
C6_9 C 0.1000(16) 0.6987(9) 0.5667(19)
N1_10 N 0.3090(10) 0.3623(7) 0.0538(15)
N2_10 N 0.3042(12) 0.3735(7) 0.1817(14)
N3_10 N 0.1931(10) 0.4303(7) 0.1083(17)
H1_10 H 0.2003 0.4287 0.1898
C1_10 C 0.2199(13) 0.4170(9) 0.0171(18)
C2_10 C 0.2724(14) 0.3930(8) 0.1843(18)
H2_10 H 0.2617 0.4027 0.2614
C3_10 C 0.2558(11) 0.3981(8) 0.0616(17)
C4_10 C 0.1555(12) 0.4462(9) 0.0808(19)
H3_10 H 0.1564 0.4697 0.1510
H4_10 H 0.1659 0.4671 0.0000
C6_10 C 0.1000(16) 0.4012(13) 0.0667(19)
O2_10 O 0.2104(8) 0.4209(6) 0.8984(12)
O3_10 O 0.0702(8) 0.4032(6) 0.9719(11)
H4_11 H 0.1659 0.4671 1.0000
C5_10 C 0.2803(11) 0.3769(8) 0.9780(19)
H5_10 H 0.2772 0.3739 0.8868
O4_10 O 0.3042(12) 0.2523(10) 0.9790(13)
N1_11 N 0.0534(7) 0.6910(10) 0.0538(15)
N2_11 N 0.0694(10) 0.6958(12) 0.1817(14)
N3_11 N 0.2373(7) 0.8069(10) 0.1083(17)
H1_11 H 0.2285 0.7997 0.1898
C1_11 C 0.1972(9) 0.7801(13) 0.0171(18)
C2_11 C 0.1207(11) 0.7276(14) 0.1843(18)
H2_11 H 0.1411 0.7383 0.2614
C3_11 C 0.1424(8) 0.7442(11) 0.0616(17)
C4_11 C 0.2908(8) 0.8445(12) 0.0808(19)
H3_11 H 0.3134 0.8436 0.1510
H4_12 H 0.3013 0.8341 0.0000
C6_11 C 0.3013(9) 0.9000(16) 0.0667(19)
O2_11 O 0.2106(6) 0.7896(8) 0.8984(12)
O3_11 O 0.3331(6) 0.9298(8) 0.9719(11)
H4_13 H 0.3013 0.8341 1.0000
C5_11 C 0.0967(8) 0.7197(11) 0.9780(19)
H5_11 H 0.0968 0.7228 0.8868
O4_11 O 0.9480(6) 0.6958(12) 0.9790(13)
O4_12 O 0.7477(10) 0.0520(6) 0.9790(13)
N1_12 N 0.6377(7) 0.9466(7) 0.0538(15)
N2_12 N 0.6265(7) 0.9306(10) 0.1817(14)
N3_12 N 0.5697(7) 0.7627(7) 0.1083(17)
H1_12 H 0.5713 0.7715 0.1898
C1_12 C 0.5830(9) 0.8028(9) 0.0171(18)
C2_12 C 0.6070(8) 0.8793(11) 0.1843(18)
H2_12 H 0.5973 0.8589 0.2614
C3_12 C 0.6019(8) 0.8576(8) 0.0616(17)
C4_12 C 0.5538(9) 0.7092(8) 0.0808(19)
H3_12 H 0.5303 0.6866 0.1510
H4_14 H 0.5329 0.6987 0.0000
C6_12 C 0.5988(13) 0.6987(9) 0.0667(19)
O2_12 O 0.5791(6) 0.7894(6) 0.8984(12)
O3_12 O 0.5968(6) 0.6669(6) 0.9719(11)
H4_15 H 0.5329 0.6987 1.0000
C5_12 C 0.6231(8) 0.9033(8) 0.9780(19)
H5_12 H 0.6261 0.9032 0.8868
H1_13 H 0.8951 0.7621 0.0232
C2_13 C 0.7873(11) 0.7264(8) 0.0177(18)
H2_13 H 0.8077 0.7361 0.0948
N1_13 N 0.7200(7) 0.6957(7) 0.8872(15)
O2_13 O 0.8772(6) 0.7543(6) 0.7318(12)
N3_13 N 0.9039(7) 0.7637(7) 0.9417(17)
C1_13 C 0.8638(9) 0.7504(9) 0.8505(18)
C3_13 C 0.8090(8) 0.7315(8) 0.8950(17)
C4_13 C 0.9574(8) 0.7796(9) 0.9142(19)
H3_13 H 0.9800 0.8031 0.9844
H4_16 H 0.9679 0.8005 0.8334
C5_13 C 0.7633(8) 0.7103(8) 0.8114(19)
H5_13 H 0.7634 0.7073 0.7202
C6_13 C 0.9679(9) 0.7346(13) 0.9001(19)
H1_14 H 0.2379 0.1331 0.0232
C2_14 C 0.2736(8) 0.0610(14) 0.0177(18)
H2_14 H 0.2639 0.0717 0.0948
N1_14 N 0.3043(7) 0.0244(10) 0.8872(15)
O2_14 O 0.2457(6) 0.1230(8) 0.7318(12)
N3_14 N 0.2363(7) 0.1403(10) 0.9417(17)
C1_14 C 0.2496(9) 0.1135(13) 0.8505(18)
C3_14 C 0.2685(8) 0.0776(11) 0.8950(17)
C4_14 C 0.2204(9) 0.1779(12) 0.9142(19)
H3_14 H 0.1969 0.1770 0.9844
H4_17 H 0.1995 0.1675 0.8334
C5_14 C 0.2897(8) 0.0531(11) 0.8114(19)
H5_14 H 0.2927 0.0562 0.7202
C6_14 C 0.2654(13) 0.2334(16) 0.9001(19)
H1_15 H 0.8669 0.1049 0.0232
C2_15 C 0.9390(14) 0.2127(11) 0.0177(18)
H2_15 H 0.9283 0.1923 0.0948
N1_15 N 0.9756(10) 0.2800(7) 0.8872(15)
O2_15 O 0.8770(8) 0.1228(6) 0.7318(12)
N3_15 N 0.8597(10) 0.0961(7) 0.9417(17)
C1_15 C 0.8865(13) 0.1362(9) 0.8505(18)
C3_15 C 0.9224(11) 0.1910(8) 0.8950(17)
C4_15 C 0.8221(12) 0.0426(8) 0.9142(19)
H3_15 H 0.8230 0.0200 0.9844
H4_18 H 0.8325 0.0321 0.8334
C5_15 C 0.9469(11) 0.2367(8) 0.8114(19)
H5_15 H 0.9438 0.2366 0.7202
C6_15 C 0.7666(16) 0.0321(9) 0.9001(19)
N1_16 N 0.9756(10) 0.6957(7) 0.3872(15)
O2_16 O 0.8770(8) 0.7543(6) 0.2318(12)
N3_16 N 0.8597(10) 0.7637(7) 0.4417(17)
H1_16 H 0.8669 0.7621 0.5232
C1_16 C 0.8865(13) 0.7504(9) 0.3505(18)
C2_16 C 0.9390(14) 0.7264(8) 0.5177(18)
H2_16 H 0.9283 0.7361 0.5948
C3_16 C 0.9224(11) 0.7315(8) 0.3950(17)
C4_16 C 0.8221(12) 0.7796(9) 0.4142(19)
H3_16 H 0.8230 0.8031 0.4844
H4_19 H 0.8325 0.8005 0.3334
C5_16 C 0.9469(11) 0.7103(8) 0.3114(19)
H5_16 H 0.9438 0.7073 0.2202
C6_16 C 0.7666(16) 0.7346(13) 0.4001(19)
N1_17 N 0.7200(7) 0.0244(10) 0.3872(15)
O2_17 O 0.8772(6) 0.1230(8) 0.2318(12)
N3_17 N 0.9039(7) 0.1403(10) 0.4417(17)
H1_17 H 0.8951 0.1331 0.5232
C1_17 C 0.8638(9) 0.1135(13) 0.3505(18)
C2_17 C 0.7873(11) 0.0610(14) 0.5177(18)
H2_17 H 0.8077 0.0717 0.5948
C3_17 C 0.8090(8) 0.0776(11) 0.3950(17)
C4_17 C 0.9574(8) 0.1779(12) 0.4142(19)
H3_17 H 0.9800 0.1770 0.4844
H4_20 H 0.9679 0.1675 0.3334
C5_17 C 0.7633(8) 0.0531(11) 0.3114(19)
H5_17 H 0.7634 0.0562 0.2202
C6_17 C 0.9679(9) 0.2334(16) 0.4001(19)
N1_18 N 0.3043(7) 0.2800(7) 0.3872(15)
O2_18 O 0.2457(6) 0.1228(6) 0.2318(12)
N3_18 N 0.2363(7) 0.0961(7) 0.4417(17)
H1_18 H 0.2379 0.1049 0.5232
C1_18 C 0.2496(9) 0.1362(9) 0.3505(18)
C2_18 C 0.2736(8) 0.2127(11) 0.5177(18)
H2_18 H 0.2639 0.1923 0.5948
C3_18 C 0.2685(8) 0.1910(8) 0.3950(17)
C4_18 C 0.2204(9) 0.0426(8) 0.4142(19)
H3_18 H 0.1969 0.0200 0.4844
H4_21 H 0.1995 0.0321 0.3334
C5_18 C 0.2897(8) 0.2367(8) 0.3114(19)
H5_18 H 0.2927 0.2366 0.2202
C6_18 C 0.2654(13) 0.0321(9) 0.4001(19)
loop_
_geom_bond_atom_site_label_1
_geom_bond_atom_site_label_2
_geom_bond_site_symmetry_1
_geom_bond_site_symmetry_2
N1 N2 1_555 1_555
O1 C6 1_555 1_555
O2 C1 1_555 1_555
N2 C2 1_555 1_555
N3 H1 1_555 1_555
O3 C6 1_555 1_555
C1 N3 1_555 1_555
C2 H2 1_555 1_555
C3 C1 1_555 1_555
C4 N3 1_555 1_555
H3 C4 1_555 1_555
H4 C4 1_555 1_555
C5 N1 1_555 1_555
H5 C5 1_555 1_555
C6 C4 1_555 1_555
Zn2 N2 1_555 1_555
C2 C3 1_555 1_555
C3 C5 1_555 1_555
O4 Zn1 1_555 1_555
O4_2 Zn1_2 1_555 1_555
N1_2 N2_2 1_555 1_555
O1_2 C6_2 1_555 1_555
O2_2 C1_2 1_555 1_555
N2_2 C2_2 1_555 1_555
N3_2 H1_2 1_555 1_555
O3_2 C6_2 1_555 1_555
C1_2 N3_2 1_555 1_555
C2_2 H2_2 1_555 1_555
C3_2 C1_2 1_555 1_555
C4_2 N3_2 1_555 1_555
H3_2 C4_2 1_555 1_555
H4_2 C4_2 1_555 1_555
C5_2 N1_2 1_555 1_555
H5_2 C5_2 1_555 1_555
C6_2 C4_2 1_555 1_555
Zn2_2 N2_2 1_555 1_555
C2_2 C3_2 1_555 1_555
C3_2 C5_2 1_555 1_555
Zn1_3 N1_3 1_555 1_555
N1_3 N2_3 1_555 1_555
O1_3 C6_3 1_555 1_555
O2_3 C1_3 1_555 1_555
N2_3 C2_3 1_555 1_555
N3_3 H1_3 1_555 1_555
O3_3 C6_3 1_555 1_555
C1_3 N3_3 1_555 1_555
C2_3 H2_3 1_555 1_555
C3_3 C1_3 1_555 1_555
C4_3 N3_3 1_555 1_555
H3_3 C4_3 1_555 1_555
H4_3 C4_3 1_555 1_555
C5_3 N1_3 1_555 1_555
H5_3 C5_3 1_555 1_555
C6_3 C4_3 1_555 1_555
Zn2_3 N2_3 1_555 1_555
Zn4_3 O1_3 1_555 1_555
O4_3 Zn1_3 1_555 1_555
N4_3 Zn1_3 1_555 1_555
O5_3 Zn1_3 1_555 1_555
C2_3 C3_3 1_555 1_555
C3_3 C5_3 1_555 1_555
N1_4 N2_4 1_555 1_555
O1_4 C6_4 1_555 1_555
O2_4 C1_4 1_555 1_555
N2_4 C2_4 1_555 1_555
N3_4 H1_4 1_555 1_555
O3_4 C6_4 1_555 1_555
C1_4 N3_4 1_555 1_555
C2_4 H2_4 1_555 1_555
C3_4 C1_4 1_555 1_555
C4_4 N3_4 1_555 1_555
H3_4 C4_4 1_555 1_555
H4_4 C4_4 1_555 1_555
C5_4 N1_4 1_555 1_555
H5_4 C5_4 1_555 1_555
C6_4 C4_4 1_555 1_555
Zn3 N2_4 1_555 1_555
Zn2 O3_4 1_555 1_555
C2_4 C3_4 1_555 1_555
C3_4 C5_4 1_555 1_555
O4_4 Zn1_4 1_555 1_555
Zn1_5 N1_5 1_555 1_555
N1_5 N2_5 1_555 1_555
O1_5 C6_5 1_555 1_555
O2_5 C1_5 1_555 1_555
N2_5 C2_5 1_555 1_555
N3_5 H1_5 1_555 1_555
O3_5 C6_5 1_555 1_555
C1_5 N3_5 1_555 1_555
C2_5 H2_5 1_555 1_555
C3_5 C1_5 1_555 1_555
C4_5 N3_5 1_555 1_555
H3_5 C4_5 1_555 1_555
H4_5 C4_5 1_555 1_555
C5_5 N1_5 1_555 1_555
H5_5 C5_5 1_555 1_555
C6_5 C4_5 1_555 1_555
Zn3_3 N2_5 1_555 1_555
Zn2_3 O3_5 1_555 1_555
Zn4_5 O1_5 1_555 1_555
O4_5 Zn1_5 1_555 1_555
N4_5 Zn1_5 1_555 1_555
O5_5 Zn1_5 1_555 1_555
C2_5 C3_5 1_555 1_555
C3_5 C5_5 1_555 1_555
O4_6 Zn1_6 1_555 1_555
N1_6 N2_6 1_555 1_555
O1_6 C6_6 1_555 1_555
O2_6 C1_6 1_555 1_555
N2_6 C2_6 1_555 1_555
N3_6 H1_6 1_555 1_555
O3_6 C6_6 1_555 1_555
C1_6 N3_6 1_555 1_555
C2_6 H2_6 1_555 1_555
C3_6 C1_6 1_555 1_555
C4_6 N3_6 1_555 1_555
H3_6 C4_6 1_555 1_555
H4_6 C4_6 1_555 1_555
C5_6 N1_6 1_555 1_555
H5_6 C5_6 1_555 1_555
C6_6 C4_6 1_555 1_555
Zn3_2 N2_6 1_555 1_555
Zn2_2 O3_6 1_555 1_555
C2_6 C3_6 1_555 1_555
C3_6 C5_6 1_555 1_555
N1_7 N2_7 1_555 1_555
O4_5 C6_7 1_555 1_555
O2_7 C1_7 1_555 1_555
N2_7 C2_7 1_555 1_555
N3_7 H1_7 1_555 1_555
O3_7 C6_7 1_555 1_555
C1_7 N3_7 1_555 1_555
C2_7 H2_7 1_555 1_555
C3_7 C1_7 1_555 1_555
C4_7 N3_7 1_555 1_555
H3_7 C4_7 1_555 1_555
H4_7 C4_7 1_555 1_555
C5_7 N1_7 1_555 1_555
H5_7 C5_7 1_555 1_555
C6_7 C4_7 1_555 1_555
Zn4_6 N2_7 1_555 1_555
Zn4_3 O3_7 1_555 1_555
C2_7 C3_7 1_555 1_555
C3_7 C5_7 1_555 1_555
O4_7 Zn2_2 1_555 1_555
Zn2_3 N1_8 1_555 1_555
N1_8 N2_8 1_555 1_555
O4_4 C6_8 1_555 1_555
O2_8 C1_8 1_555 1_555
N2_8 C2_8 1_555 1_555
N3_8 H1_8 1_555 1_555
O3_8 C6_8 1_555 1_555
C1_8 N3_8 1_555 1_555
C2_8 H2_8 1_555 1_555
C3_8 C1_8 1_555 1_555
C4_8 N3_8 1_555 1_555
H3_8 C4_8 1_555 1_555
H4_8 C4_8 1_555 1_555
C5_8 N1_8 1_555 1_555
H5_8 C5_8 1_555 1_555
C6_8 C4_8 1_555 1_555
Zn4_5 N2_8 1_555 1_555
Zn4 O3_8 1_555 1_555
O4_8 Zn2_3 1_555 1_555
C2_8 C3_8 1_555 1_555
C3_8 C5_8 1_555 1_555
O4_9 Zn2 1_555 1_555
N1_9 N2_9 1_555 1_555
O4_6 C6_9 1_555 1_555
O2_9 C1_9 1_555 1_555
N2_9 C2_9 1_555 1_555
N3_9 H1_9 1_555 1_555
O3_9 C6_9 1_555 1_555
C1_9 N3_9 1_555 1_555
C2_9 H2_9 1_555 1_555
C3_9 C1_9 1_555 1_555
C4_9 N3_9 1_555 1_555
H3_9 C4_9 1_555 1_555
H4_9 C4_9 1_555 1_555
C5_9 N1_9 1_555 1_555
H5_9 C5_9 1_555 1_555
C6_9 C4_9 1_555 1_555
Zn4_4 N2_9 1_555 1_555
Zn4_2 O3_9 1_555 1_555
C2_9 C3_9 1_555 1_555
C3_9 C5_9 1_555 1_555
N1_10 N2_10 1_555 1_555
O4_2 C6_10 1_555 1_555
N2_10 C2_10 1_555 1_555
N3_10 H1_10 1_555 1_555
C1_10 N3_10 1_555 1_555
C2_10 H2_10 1_555 1_555
C3_10 C1_10 1_555 1_555
C4_10 N3_10 1_555 1_555
H3_10 C4_10 1_555 1_555
H4_10 C4_10 1_555 1_555
C6_10 C4_10 1_555 1_555
Zn4_3 N2_10 1_555 1_555
C2_10 C3_10 1_555 1_555
H5_10 C5_10 1_555 1_555
Zn4_6 O3_10 1_555 1_555
O4_10 Zn3_3 1_555 1_555
N1_11 N2_11 1_555 1_555
O4 C6_11 1_555 1_555
N2_11 C2_11 1_555 1_555
N3_11 H1_11 1_555 1_555
C1_11 N3_11 1_555 1_555
C2_11 H2_11 1_555 1_555
C3_11 C1_11 1_555 1_555
C4_11 N3_11 1_555 1_555
H3_11 C4_11 1_555 1_555
H4_12 C4_11 1_555 1_555
C6_11 C4_11 1_555 1_555
Zn4_2 N2_11 1_555 1_555
C2_11 C3_11 1_555 1_555
H5_11 C5_11 1_555 1_555
Zn4_4 O3_11 1_555 1_555
O4_11 Zn3_2 1_555 1_555
O4_12 Zn3 1_555 1_555
N1_12 N2_12 1_555 1_555
O4_3 C6_12 1_555 1_555
N2_12 C2_12 1_555 1_555
N3_12 H1_12 1_555 1_555
C1_12 N3_12 1_555 1_555
C2_12 H2_12 1_555 1_555
C3_12 C1_12 1_555 1_555
C4_12 N3_12 1_555 1_555
H3_12 C4_12 1_555 1_555
H4_14 C4_12 1_555 1_555
C6_12 C4_12 1_555 1_555
Zn4 N2_12 1_555 1_555
C2_12 C3_12 1_555 1_555
H5_12 C5_12 1_555 1_555
Zn4_5 O3_12 1_555 1_555
N4_3 C2_13 1_555 1_555
C2_13 H2_13 1_555 1_555
Zn4_5 N1_13 1_555 1_555
O4_11 C6_13 1_555 1_555
O2_13 C1_13 1_555 1_555
O5_6 C6_13 1_555 1_555
C1_13 N3_13 1_555 1_555
C3_13 C1_13 1_555 1_555
C4_13 N3_13 1_555 1_555
H3_13 C4_13 1_555 1_555
H4_16 C4_13 1_555 1_555
C5_13 N1_13 1_555 1_555
H5_13 C5_13 1_555 1_555
C6_13 C4_13 1_555 1_555
C3_13 C5_13 1_555 1_555
N4 C2_14 1_555 1_555
C2_14 H2_14 1_555 1_555
O4_10 C6_14 1_555 1_555
O2_14 C1_14 1_555 1_555
O5_5 C6_14 1_555 1_555
C1_14 N3_14 1_555 1_555
C3_14 C1_14 1_555 1_555
C4_14 N3_14 1_555 1_555
H3_14 C4_14 1_555 1_555
H4_17 C4_14 1_555 1_555
C5_14 N1_14 1_555 1_555
H5_14 C5_14 1_555 1_555
C6_14 C4_14 1_555 1_555
C3_14 C5_14 1_555 1_555
N4_2 C2_15 1_555 1_555
C2_15 H2_15 1_555 1_555
O4_12 C6_15 1_555 1_555
O2_15 C1_15 1_555 1_555
O5_4 C6_15 1_555 1_555
C1_15 N3_15 1_555 1_555
C3_15 C1_15 1_555 1_555
C4_15 N3_15 1_555 1_555
H3_15 C4_15 1_555 1_555
H4_18 C4_15 1_555 1_555
C5_15 N1_15 1_555 1_555
H5_15 C5_15 1_555 1_555
C6_15 C4_15 1_555 1_555
C3_15 C5_15 1_555 1_555
N1_16 N4_6 1_555 1_555
O4_8 C6_16 1_555 1_555
O2_16 C1_16 1_555 1_555
N4_6 C2_16 1_555 1_555
N3_16 H1_16 1_555 1_555
O5_3 C6_16 1_555 1_555
C1_16 N3_16 1_555 1_555
C2_16 H2_16 1_555 1_555
C3_16 C1_16 1_555 1_555
C4_16 N3_16 1_555 1_555
H3_16 C4_16 1_555 1_555
H4_19 C4_16 1_555 1_555
C5_16 N1_16 1_555 1_555
H5_16 C5_16 1_555 1_555
C6_16 C4_16 1_555 1_555
C2_16 C3_16 1_555 1_555
C3_16 C5_16 1_555 1_555
N1_17 N4_4 1_555 1_555
O4_7 C6_17 1_555 1_555
O2_17 C1_17 1_555 1_555
N4_4 C2_17 1_555 1_555
N3_17 H1_17 1_555 1_555
O5_2 C6_17 1_555 1_555
C1_17 N3_17 1_555 1_555
C2_17 H2_17 1_555 1_555
C3_17 C1_17 1_555 1_555
C4_17 N3_17 1_555 1_555
H3_17 C4_17 1_555 1_555
H4_20 C4_17 1_555 1_555
C5_17 N1_17 1_555 1_555
H5_17 C5_17 1_555 1_555
C6_17 C4_17 1_555 1_555
C2_17 C3_17 1_555 1_555
C3_17 C5_17 1_555 1_555
Zn4_3 N1_18 1_555 1_555
N1_18 N4_5 1_555 1_555
O4_9 C6_18 1_555 1_555
O2_18 C1_18 1_555 1_555
N4_5 C2_18 1_555 1_555
N3_18 H1_18 1_555 1_555
O5 C6_18 1_555 1_555
C1_18 N3_18 1_555 1_555
C2_18 H2_18 1_555 1_555
C3_18 C1_18 1_555 1_555
C4_18 N3_18 1_555 1_555
H3_18 C4_18 1_555 1_555
H4_21 C4_18 1_555 1_555
C5_18 N1_18 1_555 1_555
H5_18 C5_18 1_555 1_555
C6_18 C4_18 1_555 1_555
C2_18 C3_18 1_555 1_555
C3_18 C5_18 1_555 1_555

#END
