
###############################################################################
#
# This file contains modified crystal structure data generated from the
# MOF subset of the Cambridge Structural Database (CSD) v543 
# hosted by the Cambridge Crystallographic Data Centre (CCDC).
#
# This work is licensed under the Creative Commons
# Attribution-NonCommercial-ShareAlike 4.0 International License.
# To view a copy of this license, visit
# http://creativecommons.org/licenses/by-nc-sa/4.0/
# or send a letter to
# Creative Commons, PO Box 1866, Mountain View, CA 94042, USA.
#
# CIF created using the CSD Python API on 29 September 2022
# The structure has been converted into the P1 space group
# The structure has a 3D framework
# The original CSD entry VUWVUH is in the rhombohedral crystal system
# The framework has been calculated to contain at least 10.0% void space
# The void calculation uses a probe of radius 1.32A, grid spacing 0.4
#
###############################################################################

data_VUWVUH
_chemical_formula_moiety         '(C108 H90 N54 O51 Zn15)n'
_symmetry_cell_setting           triclinic
_symmetry_space_group_name_H-M   'P 1'
_symmetry_Int_Tables_number      1
_space_group_name_Hall           'P 1'
loop_
_symmetry_equiv_pos_site_id
_symmetry_equiv_pos_as_xyz
1 x,y,z
_cell_length_a                   27.0749(11)
_cell_length_b                   27.0749(11)
_cell_length_c                   10.1437(4)
_cell_angle_alpha                90
_cell_angle_beta                 90
_cell_angle_gamma                120
_cell_volume                     6439.63
loop_
_atom_site_label
_atom_site_type_symbol
_atom_site_fract_x
_atom_site_fract_y
_atom_site_fract_z
Zn1 Zn 0.67513(4) 0.64786(4) 0.42658(9)
N1 N 0.4042(3) 0.3543(3) 0.7755(7)
O1 O 0.6765(3) 0.5978(3) 0.5654(6)
N2 N 0.3877(4) 0.3520(3) 0.6471(7)
O2 O 0.6190(4) 0.5778(3) 0.7391(6)
N3 N 0.5826(4) 0.4629(3) 0.7031(8)
H1 H 0.5743 0.4516 0.7855
C1 C 0.6443(4) 0.5645(4) 0.6569(9)
O3 O 0.5539(3) 0.4470(3) 0.4909(6)
C2 C 0.5420(4) 0.4389(4) 0.6103(9)
C3 C 0.4597(4) 0.3834(4) 0.7784(9)
H2 H 0.4819 0.3913 0.8562
C4 C 0.6393(4) 0.5066(4) 0.6698(9)
H3 H 0.6506 0.4967 0.5855
H4 H 0.6660 0.5084 0.7388
C5 C 0.4822(4) 0.4015(4) 0.6535(9)
C6 C 0.4346(6) 0.3797(4) 0.5739(10)
H5 H 0.4352 0.3839 0.4808
Zn2 Zn 0.35214(4) 0.32487(4) 0.92658(9)
Zn3 Zn 0.63940(6) 0.65820(4) 0.75991(9)
Zn4 Zn 0.30606(6) 0.31453(4) 0.59325(9)
N4 N 0.6457(3) 0.5958(3) 0.2755(7)
N5 N 0.6310(5) 0.6853(3) 0.4804(7)
O4 O 0.7555(3) 0.7079(5) 0.4058(6)
Zn1_2 Zn 0.35214(4) 0.02727(6) 0.42658(9)
N1_2 N 0.6457(3) 0.0499(4) 0.7755(7)
O1_2 O 0.4022(3) 0.0787(4) 0.5654(6)
N2_2 N 0.6480(3) 0.0357(5) 0.6471(7)
O2_2 O 0.4222(3) 0.0412(5) 0.7391(6)
N3_2 N 0.5371(3) 0.1197(5) 0.7031(8)
H1_2 H 0.5484 0.1227 0.7855
C1_2 C 0.4355(4) 0.0798(6) 0.6569(9)
O3_2 O 0.5530(3) 0.1069(4) 0.4909(6)
C2_2 C 0.5611(4) 0.1031(6) 0.6103(9)
C3_2 C 0.6166(4) 0.0763(6) 0.7784(9)
H2_2 H 0.6087 0.0906 0.8562
C4_2 C 0.4934(4) 0.1327(6) 0.6698(9)
H3_2 H 0.5033 0.1539 0.5855
H4_2 H 0.4916 0.1576 0.7388
C5_2 C 0.5985(4) 0.0807(6) 0.6535(9)
C6_2 C 0.6203(4) 0.0549(7) 0.5739(10)
H5_2 H 0.6161 0.0513 0.4808
Zn2_2 Zn 0.67513(4) 0.02727(6) 0.92658(9)
N4_2 N 0.4042(3) 0.0499(4) 0.2755(7)
O4_2 O 0.2921(5) 0.0477(6) 0.4058(6)
Zn3_2 Zn 0.34180(4) 0.98119(7) 0.75991(9)
Zn4_2 Zn 0.68547(4) 0.99154(7) 0.59325(9)
N5_2 N 0.3147(3) 0.9456(6) 0.4804(7)
Zn3_3 Zn 0.01881(7) 0.36060(6) 0.75991(9)
Zn4_3 Zn 0.00846(7) 0.69394(6) 0.59325(9)
N5_3 N 0.0544(6) 0.3690(5) 0.4804(7)
Zn1_3 Zn 0.97273(6) 0.32487(4) 0.42658(9)
N1_3 N 0.9501(4) 0.5958(3) 0.7755(7)
O1_3 O 0.9213(4) 0.3235(3) 0.5654(6)
N2_3 N 0.9643(5) 0.6123(4) 0.6471(7)
O2_3 O 0.9588(5) 0.3810(4) 0.7391(6)
N3_3 N 0.8803(5) 0.4174(4) 0.7031(8)
H1_3 H 0.8773 0.4257 0.7855
C1_3 C 0.9202(6) 0.3557(4) 0.6569(9)
O3_3 O 0.8931(4) 0.4461(3) 0.4909(6)
C2_3 C 0.8969(6) 0.4580(4) 0.6103(9)
C3_3 C 0.9237(6) 0.5403(4) 0.7784(9)
H2_3 H 0.9094 0.5181 0.8562
C4_3 C 0.8673(6) 0.3607(4) 0.6698(9)
H3_3 H 0.8461 0.3494 0.5855
H4_3 H 0.8424 0.3340 0.7388
C5_3 C 0.9193(6) 0.5178(4) 0.6535(9)
C6_3 C 0.9451(7) 0.5654(6) 0.5739(10)
H5_3 H 0.9487 0.5648 0.4808
Zn2_3 Zn 0.97273(6) 0.64786(4) 0.92658(9)
N4_3 N 0.9501(4) 0.3543(3) 0.2755(7)
O4_3 O 0.9523(6) 0.2445(3) 0.4058(6)
Zn3_4 Zn 0.01881(7) 0.65820(4) 0.25991(9)
Zn4_4 Zn 0.00846(7) 0.31453(4) 0.09325(9)
N5_4 N 0.0544(6) 0.6853(3) 0.9804(7)
O1_4 O 0.9213(4) 0.5978(3) 0.0654(6)
N2_4 N 0.9643(5) 0.3520(3) 0.1471(7)
O2_4 O 0.9588(5) 0.5778(3) 0.2391(6)
N3_4 N 0.8803(5) 0.4629(3) 0.2031(8)
H1_4 H 0.8773 0.4516 0.2855
C1_4 C 0.9202(6) 0.5645(4) 0.1569(9)
C2_4 C 0.8969(6) 0.4389(4) 0.1103(9)
C3_4 C 0.9237(6) 0.3834(4) 0.2784(9)
H2_4 H 0.9094 0.3913 0.3562
C4_4 C 0.8673(6) 0.5066(4) 0.1698(9)
H3_4 H 0.8461 0.4967 0.0855
H4_4 H 0.8424 0.5084 0.2388
C5_4 C 0.9193(6) 0.4015(4) 0.1535(9)
C6_4 C 0.9451(7) 0.3797(4) 0.0739(10)
O3_4 O 0.8931(4) 0.4470(3) 0.9909(6)
H5_4 H 0.9487 0.3839 0.9808
O4_4 O 0.9523(6) 0.7079(5) 0.9058(6)
O1_5 O 0.6765(3) 0.0787(4) 0.0654(6)
N2_5 N 0.3877(4) 0.0357(5) 0.1471(7)
O2_5 O 0.6190(4) 0.0412(5) 0.2391(6)
N3_5 N 0.5826(4) 0.1197(5) 0.2031(8)
H1_5 H 0.5743 0.1227 0.2855
C1_5 C 0.6443(4) 0.0798(6) 0.1569(9)
C2_5 C 0.5420(4) 0.1031(6) 0.1103(9)
C3_5 C 0.4597(4) 0.0763(6) 0.2784(9)
H2_5 H 0.4819 0.0906 0.3562
C4_5 C 0.6393(4) 0.1327(6) 0.1698(9)
H3_5 H 0.6506 0.1539 0.0855
H4_5 H 0.6660 0.1576 0.2388
C5_5 C 0.4822(4) 0.0807(6) 0.1535(9)
C6_5 C 0.4346(6) 0.0549(7) 0.0739(10)
O3_5 O 0.5539(3) 0.1069(4) 0.9909(6)
H5_5 H 0.4352 0.0513 0.9808
O4_5 O 0.7555(3) 0.0477(6) 0.9058(6)
Zn3_5 Zn 0.63940(6) 0.98119(7) 0.25991(9)
Zn4_5 Zn 0.30606(6) 0.99154(7) 0.09325(9)
N5_5 N 0.6310(5) 0.9456(6) 0.9804(7)
O1_6 O 0.4022(3) 0.3235(3) 0.0654(6)
N2_6 N 0.6480(3) 0.6123(4) 0.1471(7)
O2_6 O 0.4222(3) 0.3810(4) 0.2391(6)
N3_6 N 0.5371(3) 0.4174(4) 0.2031(8)
H1_6 H 0.5484 0.4257 0.2855
C1_6 C 0.4355(4) 0.3557(4) 0.1569(9)
C2_6 C 0.5611(4) 0.4580(4) 0.1103(9)
C3_6 C 0.6166(4) 0.5403(4) 0.2784(9)
H2_6 H 0.6087 0.5181 0.3562
C4_6 C 0.4934(4) 0.3607(4) 0.1698(9)
H3_6 H 0.5033 0.3494 0.0855
H4_6 H 0.4916 0.3340 0.2388
C5_6 C 0.5985(4) 0.5178(4) 0.1535(9)
C6_6 C 0.6203(4) 0.5654(6) 0.0739(10)
Zn3_6 Zn 0.34180(4) 0.36060(6) 0.25991(9)
Zn4_6 Zn 0.68547(4) 0.69394(6) 0.09325(9)
O3_6 O 0.5530(3) 0.4461(3) 0.9909(6)
H5_6 H 0.6161 0.5648 0.9808
N5_6 N 0.3147(3) 0.3690(5) 0.9804(7)
O4_6 O 0.2921(5) 0.2445(3) 0.9058(6)
N5_7 N 0.2976(5) 0.0187(3) 0.8138(7)
N1_4 N 0.0709(3) 0.6876(3) 0.1088(7)
O2_7 O 0.2857(4) 0.9111(3) 0.0724(6)
N3_7 N 0.2493(4) 0.7962(3) 0.0364(8)
H1_7 H 0.2410 0.7849 0.1188
C3_7 C 0.1264(4) 0.7167(4) 0.1117(9)
H2_7 H 0.1486 0.7246 0.1895
C4_7 C 0.3060(4) 0.8399(4) 0.0031(9)
H4_7 H 0.3327 0.8417 0.0721
O1_7 O 0.3432(3) 0.9311(3) 0.8987(6)
C1_7 C 0.3110(4) 0.8978(4) 0.9902(9)
O3_7 O 0.2206(3) 0.7803(3) 0.8242(6)
C2_7 C 0.2087(4) 0.7722(4) 0.9436(9)
H3_7 H 0.3173 0.8300 0.9188
C5_7 C 0.1489(4) 0.7348(4) 0.9868(9)
C6_7 C 0.1013(6) 0.7130(4) 0.9072(10)
H5_7 H 0.1019 0.7172 0.8141
N4_4 N 0.3124(3) 0.9291(3) 0.6088(7)
N1_5 N 0.3124(3) 0.3832(4) 0.1088(7)
O2_8 O 0.0889(3) 0.3745(5) 0.0724(6)
N3_8 N 0.2038(3) 0.4530(5) 0.0364(8)
H1_8 H 0.2151 0.4560 0.1188
C3_8 C 0.2833(4) 0.4096(6) 0.1117(9)
H2_8 H 0.2754 0.4239 0.1895
C4_8 C 0.1601(4) 0.4660(6) 0.0031(9)
H4_8 H 0.1583 0.4909 0.0721
O1_8 O 0.0689(3) 0.4120(4) 0.8987(6)
C1_8 C 0.1022(4) 0.4131(6) 0.9902(9)
O3_8 O 0.2197(3) 0.4402(4) 0.8242(6)
C2_8 C 0.2278(4) 0.4364(6) 0.9436(9)
H3_8 H 0.1700 0.4872 0.9188
C5_8 C 0.2652(4) 0.4140(6) 0.9868(9)
C6_8 C 0.2870(4) 0.3882(7) 0.9072(10)
H5_8 H 0.2828 0.3846 0.8141
N4_5 N 0.0709(3) 0.3832(4) 0.6088(7)
N5_8 N 0.9813(3) 0.2790(6) 0.8138(7)
N1_6 N 0.6168(4) 0.9291(3) 0.1088(7)
O2_9 O 0.6255(5) 0.7143(4) 0.0724(6)
N3_9 N 0.5470(5) 0.7507(4) 0.0364(8)
H1_9 H 0.5440 0.7590 0.1188
C3_9 C 0.5904(6) 0.8736(4) 0.1117(9)
H2_9 H 0.5761 0.8514 0.1895
C4_9 C 0.5340(6) 0.6940(4) 0.0031(9)
H4_9 H 0.5091 0.6673 0.0721
O1_9 O 0.5880(4) 0.6568(3) 0.8987(6)
C1_9 C 0.5869(6) 0.6890(4) 0.9902(9)
O3_9 O 0.5598(4) 0.7794(3) 0.8242(6)
C2_9 C 0.5636(6) 0.7913(4) 0.9436(9)
H3_9 H 0.5128 0.6827 0.9188
C5_9 C 0.5860(6) 0.8511(4) 0.9868(9)
C6_9 C 0.6118(7) 0.8987(6) 0.9072(10)
H5_9 H 0.6154 0.8981 0.8141
N4_6 N 0.6168(4) 0.6876(3) 0.6088(7)
N5_9 N 0.7210(6) 0.7024(5) 0.8138(7)
N5_10 N 0.7210(6) 0.0187(3) 0.3138(7)
O1_10 O 0.5880(4) 0.9311(3) 0.3987(6)
O2_10 O 0.6255(5) 0.9111(3) 0.5724(6)
N3_10 N 0.5470(5) 0.7962(3) 0.5364(8)
H1_10 H 0.5440 0.7849 0.6188
C1_10 C 0.5869(6) 0.8978(4) 0.4902(9)
O3_10 O 0.5598(4) 0.7803(3) 0.3242(6)
C2_10 C 0.5636(6) 0.7722(4) 0.4436(9)
C3_10 C 0.5904(6) 0.7167(4) 0.6117(9)
H2_10 H 0.5761 0.7246 0.6895
C4_10 C 0.5340(6) 0.8399(4) 0.5031(9)
H3_10 H 0.5128 0.8300 0.4188
H4_10 H 0.5091 0.8417 0.5721
C5_10 C 0.5860(6) 0.7348(4) 0.4868(9)
C6_10 C 0.6118(7) 0.7130(4) 0.4072(10)
H5_10 H 0.6154 0.7172 0.3141
O1_11 O 0.3432(3) 0.4120(4) 0.3987(6)
O2_11 O 0.2857(4) 0.3745(5) 0.5724(6)
N3_11 N 0.2493(4) 0.4530(5) 0.5364(8)
H1_11 H 0.2410 0.4560 0.6188
C1_11 C 0.3110(4) 0.4131(6) 0.4902(9)
O3_11 O 0.2206(3) 0.4402(4) 0.3242(6)
C2_11 C 0.2087(4) 0.4364(6) 0.4436(9)
C3_11 C 0.1264(4) 0.4096(6) 0.6117(9)
H2_11 H 0.1486 0.4239 0.6895
C4_11 C 0.3060(4) 0.4660(6) 0.5031(9)
H3_11 H 0.3173 0.4872 0.4188
H4_11 H 0.3327 0.4909 0.5721
C5_11 C 0.1489(4) 0.4140(6) 0.4868(9)
C6_11 C 0.1013(6) 0.3882(7) 0.4072(10)
H5_11 H 0.1019 0.3846 0.3141
N5_11 N 0.2976(5) 0.2790(6) 0.3138(7)
O1_12 O 0.0689(3) 0.6568(3) 0.3987(6)
O2_12 O 0.0889(3) 0.7143(4) 0.5724(6)
N3_12 N 0.2038(3) 0.7507(4) 0.5364(8)
H1_12 H 0.2151 0.7590 0.6188
C1_12 C 0.1022(4) 0.6890(4) 0.4902(9)
O3_12 O 0.2197(3) 0.7794(3) 0.3242(6)
C2_12 C 0.2278(4) 0.7913(4) 0.4436(9)
C3_12 C 0.2833(4) 0.8736(4) 0.6117(9)
H2_12 H 0.2754 0.8514 0.6895
C4_12 C 0.1601(4) 0.6940(4) 0.5031(9)
H3_12 H 0.1700 0.6827 0.4188
H4_12 H 0.1583 0.6673 0.5721
C5_12 C 0.2652(4) 0.8511(4) 0.4868(9)
C6_12 C 0.2870(4) 0.8987(6) 0.4072(10)
H5_12 H 0.2828 0.8981 0.3141
N5_12 N 0.9813(3) 0.7024(5) 0.3138(7)
O1_13 O 0.0098(3) 0.2645(3) 0.2321(6)
N1_7 N 0.7375(3) 0.0210(3) 0.4422(7)
N3_13 N 0.9159(4) 0.1296(3) 0.3698(8)
H1_13 H 0.9076 0.1183 0.4522
C1_13 C 0.9776(4) 0.2312(4) 0.3236(9)
O3_13 O 0.8872(3) 0.1137(3) 0.1576(6)
C2_13 C 0.8753(4) 0.1056(4) 0.2770(9)
C3_13 C 0.7930(4) 0.0501(4) 0.4451(9)
H2_13 H 0.8152 0.0580 0.5229
C4_13 C 0.9726(4) 0.1733(4) 0.3365(9)
H3_13 H 0.9839 0.1634 0.2522
H4_13 H 0.9993 0.1751 0.4055
C5_13 C 0.8155(4) 0.0682(4) 0.3202(9)
C6_13 C 0.7679(6) 0.0464(4) 0.2406(10)
H5_13 H 0.7685 0.0506 0.1475
N4_7 N 0.9790(3) 0.2625(3) 0.9422(7)
N1_8 N 0.9790(3) 0.7166(4) 0.4422(7)
O1_14 O 0.7355(3) 0.7454(4) 0.2321(6)
N3_14 N 0.8704(3) 0.7864(5) 0.3698(8)
H1_14 H 0.8817 0.7894 0.4522
C1_14 C 0.7688(4) 0.7465(6) 0.3236(9)
O3_14 O 0.8863(3) 0.7736(4) 0.1576(6)
C2_14 C 0.8944(4) 0.7698(6) 0.2770(9)
C3_14 C 0.9499(4) 0.7430(6) 0.4451(9)
H2_14 H 0.9420 0.7573 0.5229
C4_14 C 0.8267(4) 0.7994(6) 0.3365(9)
H3_14 H 0.8366 0.8206 0.2522
H4_14 H 0.8249 0.8243 0.4055
C5_14 C 0.9318(4) 0.7474(6) 0.3202(9)
C6_14 C 0.9536(4) 0.7216(7) 0.2406(10)
H5_14 H 0.9494 0.7180 0.1475
N4_8 N 0.7375(3) 0.7166(4) 0.9422(7)
N1_9 N 0.2834(4) 0.2625(3) 0.4422(7)
N3_15 N 0.2136(5) 0.0841(4) 0.3698(8)
H1_15 H 0.2106 0.0924 0.4522
C1_15 C 0.2535(6) 0.0224(4) 0.3236(9)
O3_15 O 0.2264(4) 0.1128(3) 0.1576(6)
C2_15 C 0.2302(6) 0.1247(4) 0.2770(9)
C3_15 C 0.2570(6) 0.2070(4) 0.4451(9)
H2_15 H 0.2427 0.1848 0.5229
C4_15 C 0.2006(6) 0.0274(4) 0.3365(9)
H3_15 H 0.1794 0.0161 0.2522
H4_15 H 0.1757 0.0007 0.4055
C5_15 C 0.2526(6) 0.1845(4) 0.3202(9)
C6_15 C 0.2784(7) 0.2321(6) 0.2406(10)
H5_15 H 0.2820 0.2315 0.1475
N4_9 N 0.2834(4) 0.0210(3) 0.9422(7)
O1_15 O 0.2546(4) 0.9902(3) 0.2321(6)
O1_16 O 0.2546(4) 0.2645(3) 0.7321(6)
N3_16 N 0.2136(5) 0.1296(3) 0.8698(8)
H1_16 H 0.2106 0.1183 0.9522
C1_16 C 0.2535(6) 0.2312(4) 0.8236(9)
O3_16 O 0.2264(4) 0.1137(3) 0.6576(6)
C2_16 C 0.2302(6) 0.1056(4) 0.7770(9)
C3_16 C 0.2570(6) 0.0501(4) 0.9451(9)
C4_16 C 0.2006(6) 0.1733(4) 0.8365(9)
H3_16 H 0.1794 0.1634 0.7522
H4_16 H 0.1757 0.1751 0.9055
C5_16 C 0.2526(6) 0.0682(4) 0.8202(9)
C6_16 C 0.2784(7) 0.0464(4) 0.7406(10)
H5_16 H 0.2820 0.0506 0.6475
O1_17 O 0.0098(3) 0.7454(4) 0.7321(6)
H2_16 H 0.8152 0.7573 0.0229
N3_17 N 0.9159(4) 0.7864(5) 0.8698(8)
H1_17 H 0.9076 0.7894 0.9522
C1_17 C 0.9776(4) 0.7465(6) 0.8236(9)
O3_17 O 0.8872(3) 0.7736(4) 0.6576(6)
C2_17 C 0.8753(4) 0.7698(6) 0.7770(9)
C3_17 C 0.7930(4) 0.7430(6) 0.9451(9)
C4_17 C 0.9726(4) 0.7994(6) 0.8365(9)
H3_17 H 0.9839 0.8206 0.7522
H4_17 H 0.9993 0.8243 0.9055
C5_17 C 0.8155(4) 0.7474(6) 0.8202(9)
C6_17 C 0.7679(6) 0.7216(7) 0.7406(10)
H5_17 H 0.7685 0.7180 0.6475
N3_18 N 0.8704(3) 0.0841(4) 0.8698(8)
H1_18 H 0.8817 0.0924 0.9522
C1_18 C 0.7688(4) 0.0224(4) 0.8236(9)
O3_18 O 0.8863(3) 0.1128(3) 0.6576(6)
C2_18 C 0.8944(4) 0.1247(4) 0.7770(9)
C3_18 C 0.9499(4) 0.2070(4) 0.9451(9)
C4_18 C 0.8267(4) 0.0274(4) 0.8365(9)
H3_18 H 0.8366 0.0161 0.7522
H4_18 H 0.8249 0.0007 0.9055
C5_18 C 0.9318(4) 0.1845(4) 0.8202(9)
C6_18 C 0.9536(4) 0.2321(6) 0.7406(10)
H5_18 H 0.9494 0.2315 0.6475
O1_18 O 0.7355(3) 0.9902(3) 0.7321(6)
H2_17 H 0.2427 0.0580 0.0229
H2_18 H 0.9420 0.1848 0.0229
loop_
_geom_bond_atom_site_label_1
_geom_bond_atom_site_label_2
_geom_bond_site_symmetry_1
_geom_bond_site_symmetry_2
Zn1 O1 1_555 1_555
N1 N2 1_555 1_555
O1 C1 1_555 1_555
N2 C6 1_555 1_555
O2 C1 1_555 1_555
N3 H1 1_555 1_555
C1 C4 1_555 1_555
O3 C2 1_555 1_555
C2 N3 1_555 1_555
C3 N1 1_555 1_555
H2 C3 1_555 1_555
C4 N3 1_555 1_555
H3 C4 1_555 1_555
H4 C4 1_555 1_555
C5 C2 1_555 1_555
C6 C5 1_555 1_555
H5 C6 1_555 1_555
Zn2 N1 1_555 1_555
Zn3 O2 1_555 1_555
Zn4 N2 1_555 1_555
N4 Zn1 1_555 1_555
N5 Zn1 1_555 1_555
O4 Zn1 1_555 1_555
C3 C5 1_555 1_555
Zn1_2 O1_2 1_555 1_555
N1_2 N2_2 1_555 1_555
O1_2 C1_2 1_555 1_555
N2_2 C6_2 1_555 1_555
O2_2 C1_2 1_555 1_555
N3_2 H1_2 1_555 1_555
C1_2 C4_2 1_555 1_555
O3_2 C2_2 1_555 1_555
C2_2 N3_2 1_555 1_555
C3_2 N1_2 1_555 1_555
H2_2 C3_2 1_555 1_555
C4_2 N3_2 1_555 1_555
H3_2 C4_2 1_555 1_555
H4_2 C4_2 1_555 1_555
C5_2 C2_2 1_555 1_555
C6_2 C5_2 1_555 1_555
H5_2 C6_2 1_555 1_555
Zn2_2 N1_2 1_555 1_555
N4_2 Zn1_2 1_555 1_555
O4_2 Zn1_2 1_555 1_555
C3_2 C5_2 1_555 1_555
Zn1_3 O1_3 1_555 1_555
N1_3 N2_3 1_555 1_555
O1_3 C1_3 1_555 1_555
N2_3 C6_3 1_555 1_555
O2_3 C1_3 1_555 1_555
N3_3 H1_3 1_555 1_555
C1_3 C4_3 1_555 1_555
O3_3 C2_3 1_555 1_555
C2_3 N3_3 1_555 1_555
C3_3 N1_3 1_555 1_555
H2_3 C3_3 1_555 1_555
C4_3 N3_3 1_555 1_555
H3_3 C4_3 1_555 1_555
H4_3 C4_3 1_555 1_555
C5_3 C2_3 1_555 1_555
C6_3 C5_3 1_555 1_555
H5_3 C6_3 1_555 1_555
Zn2_3 N1_3 1_555 1_555
N4_3 Zn1_3 1_555 1_555
O4_3 Zn1_3 1_555 1_555
C3_3 C5_3 1_555 1_555
N4_3 N2_4 1_555 1_555
O1_4 C1_4 1_555 1_555
N2_4 C6_4 1_555 1_555
O2_4 C1_4 1_555 1_555
N3_4 H1_4 1_555 1_555
C1_4 C4_4 1_555 1_555
C2_4 N3_4 1_555 1_555
C3_4 N4_3 1_555 1_555
H2_4 C3_4 1_555 1_555
C4_4 N3_4 1_555 1_555
H3_4 C4_4 1_555 1_555
H4_4 C4_4 1_555 1_555
C5_4 C2_4 1_555 1_555
C6_4 C5_4 1_555 1_555
C3_4 C5_4 1_555 1_555
O4_4 Zn2_3 1_555 1_555
N4_2 N2_5 1_555 1_555
O1_5 C1_5 1_555 1_555
N2_5 C6_5 1_555 1_555
O2_5 C1_5 1_555 1_555
N3_5 H1_5 1_555 1_555
C1_5 C4_5 1_555 1_555
C2_5 N3_5 1_555 1_555
C3_5 N4_2 1_555 1_555
H2_5 C3_5 1_555 1_555
C4_5 N3_5 1_555 1_555
H3_5 C4_5 1_555 1_555
H4_5 C4_5 1_555 1_555
C5_5 C2_5 1_555 1_555
C6_5 C5_5 1_555 1_555
C3_5 C5_5 1_555 1_555
O4_5 Zn2_2 1_555 1_555
N4 N2_6 1_555 1_555
O1_6 C1_6 1_555 1_555
N2_6 C6_6 1_555 1_555
O2_6 C1_6 1_555 1_555
N3_6 H1_6 1_555 1_555
C1_6 C4_6 1_555 1_555
C2_6 N3_6 1_555 1_555
C3_6 N4 1_555 1_555
H2_6 C3_6 1_555 1_555
C4_6 N3_6 1_555 1_555
H3_6 C4_6 1_555 1_555
H4_6 C4_6 1_555 1_555
C5_6 C2_6 1_555 1_555
C6_6 C5_6 1_555 1_555
Zn3_6 O2_6 1_555 1_555
Zn4_6 N2_6 1_555 1_555
C3_6 C5_6 1_555 1_555
N5_6 Zn2 1_555 1_555
O4_6 Zn2 1_555 1_555
N3_7 H1_7 1_555 1_555
C3_7 N1_4 1_555 1_555
H2_7 C3_7 1_555 1_555
C4_7 N3_7 1_555 1_555
H4_7 C4_7 1_555 1_555
Zn3_4 N1_4 1_555 1_555
Zn4_5 O2_7 1_555 1_555
Zn3_2 O1_7 1_555 1_555
O1_7 C1_7 1_555 1_555
N5_4 C6_7 1_555 1_555
O3_7 C2_7 1_555 1_555
C5_7 C2_7 1_555 1_555
C6_7 C5_7 1_555 1_555
H5_7 C6_7 1_555 1_555
N4_4 Zn3_2 1_555 1_555
N3_8 H1_8 1_555 1_555
C3_8 N1_5 1_555 1_555
H2_8 C3_8 1_555 1_555
C4_8 N3_8 1_555 1_555
H4_8 C4_8 1_555 1_555
Zn3_6 N1_5 1_555 1_555
Zn4_4 O2_8 1_555 1_555
Zn3_3 O1_8 1_555 1_555
O1_8 C1_8 1_555 1_555
N5_6 C6_8 1_555 1_555
O3_8 C2_8 1_555 1_555
C5_8 C2_8 1_555 1_555
C6_8 C5_8 1_555 1_555
H5_8 C6_8 1_555 1_555
N4_5 Zn3_3 1_555 1_555
N3_9 H1_9 1_555 1_555
C3_9 N1_6 1_555 1_555
H2_9 C3_9 1_555 1_555
C4_9 N3_9 1_555 1_555
H4_9 C4_9 1_555 1_555
Zn3_5 N1_6 1_555 1_555
Zn4_6 O2_9 1_555 1_555
Zn3 O1_9 1_555 1_555
O1_9 C1_9 1_555 1_555
N5_5 C6_9 1_555 1_555
O3_9 C2_9 1_555 1_555
C5_9 C2_9 1_555 1_555
C6_9 C5_9 1_555 1_555
H5_9 C6_9 1_555 1_555
N4_6 Zn3 1_555 1_555
N5_9 Zn3 1_555 1_555
Zn3_5 O1_10 1_555 1_555
N4_6 N5 1_555 1_555
O1_10 C1_10 1_555 1_555
N5 C6_10 1_555 1_555
O2_10 C1_10 1_555 1_555
N3_10 H1_10 1_555 1_555
C1_10 C4_10 1_555 1_555
O3_10 C2_10 1_555 1_555
C2_10 N3_10 1_555 1_555
C3_10 N4_6 1_555 1_555
H2_10 C3_10 1_555 1_555
C4_10 N3_10 1_555 1_555
H3_10 C4_10 1_555 1_555
H4_10 C4_10 1_555 1_555
C5_10 C2_10 1_555 1_555
C6_10 C5_10 1_555 1_555
H5_10 C6_10 1_555 1_555
Zn4_2 O2_10 1_555 1_555
C3_10 C5_10 1_555 1_555
Zn3_6 O1_11 1_555 1_555
N4_5 N5_3 1_555 1_555
O1_11 C1_11 1_555 1_555
N5_3 C6_11 1_555 1_555
O2_11 C1_11 1_555 1_555
N3_11 H1_11 1_555 1_555
C1_11 C4_11 1_555 1_555
O3_11 C2_11 1_555 1_555
C2_11 N3_11 1_555 1_555
C3_11 N4_5 1_555 1_555
H2_11 C3_11 1_555 1_555
C4_11 N3_11 1_555 1_555
H3_11 C4_11 1_555 1_555
H4_11 C4_11 1_555 1_555
C5_11 C2_11 1_555 1_555
C6_11 C5_11 1_555 1_555
H5_11 C6_11 1_555 1_555
Zn4 O2_11 1_555 1_555
N5_11 Zn3_6 1_555 1_555
C3_11 C5_11 1_555 1_555
Zn3_4 O1_12 1_555 1_555
N4_4 N5_2 1_555 1_555
O1_12 C1_12 1_555 1_555
N5_2 C6_12 1_555 1_555
O2_12 C1_12 1_555 1_555
N3_12 H1_12 1_555 1_555
C1_12 C4_12 1_555 1_555
O3_12 C2_12 1_555 1_555
C2_12 N3_12 1_555 1_555
C3_12 N4_4 1_555 1_555
H2_12 C3_12 1_555 1_555
C4_12 N3_12 1_555 1_555
H3_12 C4_12 1_555 1_555
H4_12 C4_12 1_555 1_555
C5_12 C2_12 1_555 1_555
C6_12 C5_12 1_555 1_555
H5_12 C6_12 1_555 1_555
Zn4_3 O2_12 1_555 1_555
C3_12 C5_12 1_555 1_555
Zn4_4 O1_13 1_555 1_555
N1_7 N5_10 1_555 1_555
N5_10 C6_13 1_555 1_555
O4_3 C1_13 1_555 1_555
N3_13 H1_13 1_555 1_555
C1_13 C4_13 1_555 1_555
O3_13 C2_13 1_555 1_555
C2_13 N3_13 1_555 1_555
C3_13 N1_7 1_555 1_555
H2_13 C3_13 1_555 1_555
C4_13 N3_13 1_555 1_555
H3_13 C4_13 1_555 1_555
H4_13 C4_13 1_555 1_555
C5_13 C2_13 1_555 1_555
C6_13 C5_13 1_555 1_555
H5_13 C6_13 1_555 1_555
C3_13 C5_13 1_555 1_555
Zn4_6 O1_14 1_555 1_555
N1_8 N5_12 1_555 1_555
O1_14 C1_14 1_555 1_555
N5_12 C6_14 1_555 1_555
O4 C1_14 1_555 1_555
N3_14 H1_14 1_555 1_555
C1_14 C4_14 1_555 1_555
O3_14 C2_14 1_555 1_555
C2_14 N3_14 1_555 1_555
C3_14 N1_8 1_555 1_555
H2_14 C3_14 1_555 1_555
C4_14 N3_14 1_555 1_555
H3_14 C4_14 1_555 1_555
H4_14 C4_14 1_555 1_555
C5_14 C2_14 1_555 1_555
C6_14 C5_14 1_555 1_555
H5_14 C6_14 1_555 1_555
C3_14 C5_14 1_555 1_555
N1_9 N5_11 1_555 1_555
N5_11 C6_15 1_555 1_555
O4_2 C1_15 1_555 1_555
N3_15 H1_15 1_555 1_555
C1_15 C4_15 1_555 1_555
O3_15 C2_15 1_555 1_555
C2_15 N3_15 1_555 1_555
C3_15 N1_9 1_555 1_555
H2_15 C3_15 1_555 1_555
C4_15 N3_15 1_555 1_555
H3_15 C4_15 1_555 1_555
H4_15 C4_15 1_555 1_555
C5_15 C2_15 1_555 1_555
C6_15 C5_15 1_555 1_555
H5_15 C6_15 1_555 1_555
Zn4 N1_9 1_555 1_555
C3_15 C5_15 1_555 1_555
Zn4_5 O1_15 1_555 1_555
Zn4 O1_16 1_555 1_555
N4_9 N5_7 1_555 1_555
O1_16 C1_16 1_555 1_555
N5_7 C6_16 1_555 1_555
O4_6 C1_16 1_555 1_555
N3_16 H1_16 1_555 1_555
C1_16 C4_16 1_555 1_555
O3_16 C2_16 1_555 1_555
C2_16 N3_16 1_555 1_555
C3_16 N4_9 1_555 1_555
C4_16 N3_16 1_555 1_555
H3_16 C4_16 1_555 1_555
H4_16 C4_16 1_555 1_555
C5_16 C2_16 1_555 1_555
C6_16 C5_16 1_555 1_555
H5_16 C6_16 1_555 1_555
C3_16 C5_16 1_555 1_555
Zn4_3 O1_17 1_555 1_555
N4_8 N5_9 1_555 1_555
N5_9 C6_17 1_555 1_555
O4_4 C1_17 1_555 1_555
N3_17 H1_17 1_555 1_555
C1_17 C4_17 1_555 1_555
O3_17 C2_17 1_555 1_555
C2_17 N3_17 1_555 1_555
C3_17 N4_8 1_555 1_555
C4_17 N3_17 1_555 1_555
H3_17 C4_17 1_555 1_555
H4_17 C4_17 1_555 1_555
C5_17 C2_17 1_555 1_555
C6_17 C5_17 1_555 1_555
H5_17 C6_17 1_555 1_555
C3_17 C5_17 1_555 1_555
N4_7 N5_8 1_555 1_555
N5_8 C6_18 1_555 1_555
O4_5 C1_18 1_555 1_555
N3_18 H1_18 1_555 1_555
C1_18 C4_18 1_555 1_555
O3_18 C2_18 1_555 1_555
C2_18 N3_18 1_555 1_555
C3_18 N4_7 1_555 1_555
C4_18 N3_18 1_555 1_555
H3_18 C4_18 1_555 1_555
H4_18 C4_18 1_555 1_555
C5_18 C2_18 1_555 1_555
C6_18 C5_18 1_555 1_555
H5_18 C6_18 1_555 1_555
C3_18 C5_18 1_555 1_555
Zn4_2 O1_18 1_555 1_555

#END
