
###############################################################################
#
# This file contains modified crystal structure data generated from the
# MOF subset of the Cambridge Structural Database (CSD) v543 
# hosted by the Cambridge Crystallographic Data Centre (CCDC).
#
# This work is licensed under the Creative Commons
# Attribution-NonCommercial-ShareAlike 4.0 International License.
# To view a copy of this license, visit
# http://creativecommons.org/licenses/by-nc-sa/4.0/
# or send a letter to
# Creative Commons, PO Box 1866, Mountain View, CA 94042, USA.
#
# CIF created using the CSD Python API on 29 September 2022
# The structure has been converted into the P1 space group
# The structure has a 3D framework
# The original CSD entry VUWVOB is in the rhombohedral crystal system
# The framework has been calculated to contain at least 10.0% void space
# The void calculation uses a probe of radius 1.32A, grid spacing 0.4
#
###############################################################################

data_VUWVOB
_chemical_formula_moiety         '(C108 H90 N54 O51 Zn15)n'
_symmetry_cell_setting           triclinic
_symmetry_space_group_name_H-M   'P 1'
_symmetry_Int_Tables_number      1
_space_group_name_Hall           'P 1'
loop_
_symmetry_equiv_pos_site_id
_symmetry_equiv_pos_as_xyz
1 x,y,z
_cell_length_a                   28.7263(9)
_cell_length_b                   28.7263(9)
_cell_length_c                   10.1348(4)
_cell_angle_alpha                90
_cell_angle_beta                 90
_cell_angle_gamma                120
_cell_volume                     7242.78
loop_
_atom_site_label
_atom_site_type_symbol
_atom_site_fract_x
_atom_site_fract_y
_atom_site_fract_z
N4 N 0.0263(3) 0.3076(5) 0.0796(7)
O4 O 0.0280(4) 0.4158(2) 0.1535(6)
Zn1 Zn 0.98019(3) 0.33703(4) 0.13220(12)
O1 O 0.7909(3) 0.2073(3) 0.0686(6)
H5 H 0.7279 0.0965 0.0765
N5 N 0.9317(3) 0.3037(3) 0.2822(7)
N1 N 0.6930(3) 0.0521(4) 0.9129(7)
C1 C 0.9023(3) 0.3007(3) 0.9039(8)
O2 O 0.9325(2) 0.3339(2) 0.9902(6)
N2 N 0.6963(3) 0.0683(3) 0.7822(7)
C2 C 0.7832(3) 0.1962(3) 0.9490(8)
N3 N 0.8069(3) 0.2340(3) 0.8554(7)
H1 H 0.7991 0.2253 0.7718
O3 O 0.9175(2) 0.2788(3) 0.8202(6)
C3 C 0.8460(3) 0.2896(3) 0.8917(8)
H2 H 0.8350 0.2981 0.9768
H3 H 0.8450 0.3140 0.8242
C4 C 0.7471(3) 0.1413(3) 0.9046(8)
C5 C 0.7294(3) 0.1219(3) 0.7788(8)
H4 H 0.7392 0.1433 0.7012
C6 C 0.7233(4) 0.0962(6) 0.9837(8)
Zn2 Zn 0.66297(4) 0.01981(3) 0.63220(12)
Zn4 Zn 0.99630(4) 0.30983(5) 0.79887(12)
Zn3 Zn 0.64686(3) 0.97649(5) 0.96553(12)
Zn3_2 Zn 0.02351(5) 0.67036(6) 0.96553(12)
Zn1_2 Zn 0.66297(4) 0.64316(5) 0.13220(12)
O1_2 O 0.7927(3) 0.5836(4) 0.0686(6)
H5_2 H 0.9035 0.6314 0.0765
N4_2 N 0.6924(5) 0.7188(6) 0.0796(7)
N5_2 N 0.6963(3) 0.6280(4) 0.2822(7)
O4_2 O 0.5842(2) 0.6121(4) 0.1535(6)
N1_2 N 0.9479(4) 0.6409(5) 0.9129(7)
C1_2 C 0.6993(3) 0.6016(4) 0.9039(8)
O2_2 O 0.6661(2) 0.5986(3) 0.9902(6)
N2_2 N 0.9317(3) 0.6280(4) 0.7822(7)
C2_2 C 0.8038(3) 0.5870(4) 0.9490(8)
N3_2 N 0.7660(3) 0.5729(4) 0.8554(7)
H1_2 H 0.7747 0.5738 0.7718
O3_2 O 0.7212(3) 0.6387(4) 0.8202(6)
C3_2 C 0.7104(3) 0.5564(4) 0.8917(8)
H2_2 H 0.7019 0.5369 0.9768
H3_2 H 0.6860 0.5310 0.8242
C4_2 C 0.8587(3) 0.6058(4) 0.9046(8)
C5_2 C 0.8781(3) 0.6075(4) 0.7788(8)
H4_2 H 0.8567 0.5959 0.7012
C6_2 C 0.9038(6) 0.6271(7) 0.9837(8)
Zn2_2 Zn 0.98019(3) 0.64316(5) 0.63220(12)
Zn4_2 Zn 0.69017(5) 0.68648(6) 0.79887(12)
Zn1_3 Zn 0.35684(5) 0.01981(3) 0.13220(12)
O1_3 O 0.4164(4) 0.2091(3) 0.0686(6)
H5_3 H 0.3686 0.2721 0.0765
N5_3 N 0.3720(4) 0.0683(3) 0.2822(7)
N1_3 N 0.3591(5) 0.3070(3) 0.9129(7)
C1_3 C 0.3984(4) 0.0977(3) 0.9039(8)
O2_3 O 0.4014(3) 0.0675(2) 0.9902(6)
N2_3 N 0.3720(4) 0.3037(3) 0.7822(7)
C2_3 C 0.4130(4) 0.2168(3) 0.9490(8)
N3_3 N 0.4271(4) 0.1931(3) 0.8554(7)
H1_3 H 0.4262 0.2009 0.7718
O3_3 O 0.3613(4) 0.0825(2) 0.8202(6)
C3_3 C 0.4436(4) 0.1540(3) 0.8917(8)
H2_3 H 0.4631 0.1650 0.9768
H3_3 H 0.4690 0.1550 0.8242
C4_3 C 0.3942(4) 0.2529(3) 0.9046(8)
C5_3 C 0.3925(4) 0.2706(3) 0.7788(8)
H4_3 H 0.4041 0.2608 0.7012
C6_3 C 0.3729(7) 0.2767(4) 0.9837(8)
Zn2_3 Zn 0.35684(5) 0.33703(4) 0.63220(12)
Zn3_3 Zn 0.32964(6) 0.35314(3) 0.96553(12)
Zn4_3 Zn 0.31352(6) 0.00370(4) 0.79887(12)
N4_3 N 0.2812(6) 0.9737(3) 0.0796(7)
O4_3 O 0.3879(4) 0.9720(4) 0.1535(6)
N1_4 N 0.3591(5) 0.0521(4) 0.4129(7)
O1_4 O 0.4164(4) 0.2073(3) 0.5686(6)
C1_4 C 0.3984(4) 0.3007(3) 0.4039(8)
O2_4 O 0.4014(3) 0.3339(2) 0.4902(6)
C2_4 C 0.4130(4) 0.1962(3) 0.4490(8)
N3_4 N 0.4271(4) 0.2340(3) 0.3554(7)
H1_4 H 0.4262 0.2253 0.2718
O3_4 O 0.3613(4) 0.2788(3) 0.3202(6)
C3_4 C 0.4436(4) 0.2896(3) 0.3917(8)
H2_4 H 0.4631 0.2981 0.4768
H3_4 H 0.4690 0.3140 0.3242
C4_4 C 0.3942(4) 0.1413(3) 0.4046(8)
C5_4 C 0.3925(4) 0.1219(3) 0.2788(8)
H4_4 H 0.4041 0.1433 0.2012
C6_4 C 0.3729(7) 0.0962(6) 0.4837(8)
H5_4 H 0.3686 0.0965 0.5765
Zn4_4 Zn 0.31352(6) 0.30983(5) 0.29887(12)
N4_4 N 0.2812(6) 0.3076(5) 0.5796(7)
O4_4 O 0.3879(4) 0.4158(2) 0.6535(6)
Zn3_4 Zn 0.32964(6) 0.97649(5) 0.46553(12)
N4_5 N 0.0263(3) 0.7188(6) 0.5796(7)
O4_5 O 0.0280(4) 0.6121(4) 0.6535(6)
N1_5 N 0.6930(3) 0.6409(5) 0.4129(7)
O1_5 O 0.7909(3) 0.5836(4) 0.5686(6)
C1_5 C 0.9023(3) 0.6016(4) 0.4039(8)
O2_5 O 0.9325(2) 0.5986(3) 0.4902(6)
C2_5 C 0.7832(3) 0.5870(4) 0.4490(8)
N3_5 N 0.8069(3) 0.5729(4) 0.3554(7)
H1_5 H 0.7991 0.5738 0.2718
O3_5 O 0.9175(2) 0.6387(4) 0.3202(6)
C3_5 C 0.8460(3) 0.5564(4) 0.3917(8)
H2_5 H 0.8350 0.5369 0.4768
H3_5 H 0.8450 0.5310 0.3242
C4_5 C 0.7471(3) 0.6058(4) 0.4046(8)
C5_5 C 0.7294(3) 0.6075(4) 0.2788(8)
H4_5 H 0.7392 0.5959 0.2012
C6_5 C 0.7233(4) 0.6271(7) 0.4837(8)
H5_5 H 0.7279 0.6314 0.5765
Zn3_5 Zn 0.64686(3) 0.67036(6) 0.46553(12)
Zn4_5 Zn 0.99630(4) 0.68648(6) 0.29887(12)
Zn3_6 Zn 0.02351(5) 0.35314(3) 0.46553(12)
N1_6 N 0.9479(4) 0.3070(3) 0.4129(7)
O1_6 O 0.7927(3) 0.2091(3) 0.5686(6)
C1_6 C 0.6993(3) 0.0977(3) 0.4039(8)
O2_6 O 0.6661(2) 0.0675(2) 0.4902(6)
C2_6 C 0.8038(3) 0.2168(3) 0.4490(8)
N3_6 N 0.7660(3) 0.1931(3) 0.3554(7)
H1_6 H 0.7747 0.2009 0.2718
O3_6 O 0.7212(3) 0.0825(2) 0.3202(6)
C3_6 C 0.7104(3) 0.1540(3) 0.3917(8)
H2_6 H 0.7019 0.1650 0.4768
H3_6 H 0.6860 0.1550 0.3242
C4_6 C 0.8587(3) 0.2529(3) 0.4046(8)
C5_6 C 0.8781(3) 0.2706(3) 0.2788(8)
H4_6 H 0.8567 0.2608 0.2012
C6_6 C 0.9038(6) 0.2767(4) 0.4837(8)
H5_6 H 0.9035 0.2721 0.5765
Zn4_6 Zn 0.69017(5) 0.00370(4) 0.29887(12)
N4_6 N 0.6924(5) 0.9737(3) 0.5796(7)
O4_6 O 0.5842(2) 0.9720(4) 0.6535(6)
N1_7 N 0.3597(3) 0.3854(4) 0.2462(7)
O1_7 O 0.4576(3) 0.5406(3) 0.4019(6)
C1_7 C 0.5690(3) 0.6340(3) 0.2372(8)
O2_7 O 0.5992(2) 0.6672(2) 0.3235(6)
N2_4 N 0.3630(3) 0.4016(3) 0.1155(7)
C2_7 C 0.4499(3) 0.5295(3) 0.2823(8)
N3_7 N 0.4736(3) 0.5673(3) 0.1887(7)
H1_7 H 0.4658 0.5586 0.1051
C3_7 C 0.5127(3) 0.6229(3) 0.2250(8)
H2_7 H 0.5017 0.6314 0.3101
H3_7 H 0.5117 0.6473 0.1575
C4_7 C 0.4138(3) 0.4746(3) 0.2379(8)
C5_7 C 0.3961(3) 0.4552(3) 0.1121(8)
H4_7 H 0.4059 0.4766 0.0345
C6_7 C 0.3900(4) 0.4295(6) 0.3170(8)
H5_7 H 0.3946 0.4298 0.4098
N5_4 N 0.5984(3) 0.6370(3) 0.6155(7)
O4_7 O 0.6946(4) 0.7492(2) 0.4869(6)
N1_8 N 0.6146(4) 0.9742(5) 0.2462(7)
O1_8 O 0.4594(3) 0.9169(4) 0.4019(6)
C1_8 C 0.3660(3) 0.9349(4) 0.2372(8)
O2_8 O 0.3328(2) 0.9319(3) 0.3235(6)
N2_5 N 0.5984(3) 0.9613(4) 0.1155(7)
C2_8 C 0.4705(3) 0.9203(4) 0.2823(8)
N3_8 N 0.4327(3) 0.9062(4) 0.1887(7)
H1_8 H 0.4414 0.9071 0.1051
C3_8 C 0.3771(3) 0.8897(4) 0.2250(8)
H2_8 H 0.3686 0.8702 0.3101
H3_8 H 0.3527 0.8643 0.1575
C4_8 C 0.5254(3) 0.9391(4) 0.2379(8)
C5_8 C 0.5448(3) 0.9408(4) 0.1121(8)
H4_8 H 0.5234 0.9292 0.0345
C6_8 C 0.5705(6) 0.9604(7) 0.3170(8)
H5_8 H 0.5702 0.9647 0.4098
N5_5 N 0.3630(3) 0.9613(4) 0.6155(7)
O4_8 O 0.2508(2) 0.9455(4) 0.4869(6)
N1_9 N 0.0258(5) 0.6403(3) 0.2462(7)
O1_9 O 0.0831(4) 0.5424(3) 0.4019(6)
C1_9 C 0.0651(4) 0.4310(3) 0.2372(8)
O2_9 O 0.0681(3) 0.4008(2) 0.3235(6)
N2_6 N 0.0387(4) 0.6370(3) 0.1155(7)
C2_9 C 0.0797(4) 0.5501(3) 0.2823(8)
N3_9 N 0.0938(4) 0.5264(3) 0.1887(7)
H1_9 H 0.0929 0.5342 0.1051
C3_9 C 0.1103(4) 0.4873(3) 0.2250(8)
H2_9 H 0.1298 0.4983 0.3101
H3_9 H 0.1357 0.4883 0.1575
C4_9 C 0.0609(4) 0.5862(3) 0.2379(8)
C5_9 C 0.0592(4) 0.6039(3) 0.1121(8)
H4_9 H 0.0708 0.5941 0.0345
C6_9 C 0.0396(7) 0.6100(4) 0.3170(8)
H5_9 H 0.0353 0.6054 0.4098
N5_6 N 0.0387(4) 0.4016(3) 0.6155(7)
O4_9 O 0.0545(4) 0.3054(4) 0.4869(6)
N1_10 N 0.0258(5) 0.3854(4) 0.7462(7)
O1_10 O 0.0831(4) 0.5406(3) 0.9019(6)
C1_10 C 0.0651(4) 0.6340(3) 0.7372(8)
O2_10 O 0.0681(3) 0.6672(2) 0.8235(6)
C2_10 C 0.0797(4) 0.5295(3) 0.7823(8)
N3_10 N 0.0938(4) 0.5673(3) 0.6887(7)
H1_10 H 0.0929 0.5586 0.6051
C3_10 C 0.1103(4) 0.6229(3) 0.7250(8)
H2_10 H 0.1298 0.6314 0.8101
H3_10 H 0.1357 0.6473 0.6575
C4_10 C 0.0609(4) 0.4746(3) 0.7379(8)
C5_10 C 0.0592(4) 0.4552(3) 0.6121(8)
H4_10 H 0.0708 0.4766 0.5345
C6_10 C 0.0396(7) 0.4295(6) 0.8170(8)
H5_10 H 0.0353 0.4298 0.9098
O4_10 O 0.0545(4) 0.7492(2) 0.9869(6)
N1_11 N 0.3597(3) 0.9742(5) 0.7462(7)
O1_11 O 0.4576(3) 0.9169(4) 0.9019(6)
C1_11 C 0.5690(3) 0.9349(4) 0.7372(8)
O2_11 O 0.5992(2) 0.9319(3) 0.8235(6)
C2_11 C 0.4499(3) 0.9203(4) 0.7823(8)
N3_11 N 0.4736(3) 0.9062(4) 0.6887(7)
H1_11 H 0.4658 0.9071 0.6051
C3_11 C 0.5127(3) 0.8897(4) 0.7250(8)
H2_11 H 0.5017 0.8702 0.8101
H3_11 H 0.5117 0.8643 0.6575
C4_11 C 0.4138(3) 0.9391(4) 0.7379(8)
C5_11 C 0.3961(3) 0.9408(4) 0.6121(8)
H4_11 H 0.4059 0.9292 0.5345
C6_11 C 0.3900(4) 0.9604(7) 0.8170(8)
H5_11 H 0.3946 0.9647 0.9098
O4_11 O 0.6946(4) 0.9455(4) 0.9869(6)
N1_12 N 0.6146(4) 0.6403(3) 0.7462(7)
O1_12 O 0.4594(3) 0.5424(3) 0.9019(6)
C1_12 C 0.3660(3) 0.4310(3) 0.7372(8)
O2_12 O 0.3328(2) 0.4008(2) 0.8235(6)
C2_12 C 0.4705(3) 0.5501(3) 0.7823(8)
N3_12 N 0.4327(3) 0.5264(3) 0.6887(7)
H1_12 H 0.4414 0.5342 0.6051
C3_12 C 0.3771(3) 0.4873(3) 0.7250(8)
H2_12 H 0.3686 0.4983 0.8101
H3_12 H 0.3527 0.4883 0.6575
C4_12 C 0.5254(3) 0.5862(3) 0.7379(8)
C5_12 C 0.5448(3) 0.6039(3) 0.6121(8)
H4_12 H 0.5234 0.5941 0.5345
C6_12 C 0.5705(6) 0.6100(4) 0.8170(8)
H5_12 H 0.5702 0.6054 0.9098
O4_12 O 0.2508(2) 0.3054(4) 0.9869(6)
O2_13 O 0.2658(2) 0.0006(2) 0.6569(6)
O1_13 O 0.1242(3) 0.8740(3) 0.7353(6)
C1_13 C 0.2356(3) 0.9674(3) 0.5706(8)
N2_7 N 0.0296(3) 0.7350(3) 0.4489(7)
C2_13 C 0.1165(3) 0.8629(3) 0.6157(8)
N3_13 N 0.1402(3) 0.9007(3) 0.5221(7)
H1_13 H 0.1324 0.8920 0.4385
C3_13 C 0.1793(3) 0.9563(3) 0.5584(8)
H2_13 H 0.1683 0.9648 0.6435
H3_13 H 0.1783 0.9807 0.4909
C4_13 C 0.0804(3) 0.8080(3) 0.5713(8)
C5_13 C 0.0627(3) 0.7886(3) 0.4455(8)
H4_13 H 0.0725 0.8100 0.3679
C6_13 C 0.0566(4) 0.7629(6) 0.6504(8)
H5_13 H 0.0612 0.7632 0.7432
N5_7 N 0.2650(3) 0.9704(3) 0.9489(7)
O1_14 O 0.1260(3) 0.2503(4) 0.7353(6)
C1_14 C 0.0326(3) 0.2683(4) 0.5706(8)
N2_8 N 0.2650(3) 0.2947(4) 0.4489(7)
C2_14 C 0.1371(3) 0.2537(4) 0.6157(8)
N3_14 N 0.0993(3) 0.2396(4) 0.5221(7)
H1_14 H 0.1080 0.2405 0.4385
C3_14 C 0.0437(3) 0.2231(4) 0.5584(8)
H2_14 H 0.0352 0.2036 0.6435
H3_14 H 0.0193 0.1977 0.4909
C4_14 C 0.1920(3) 0.2725(4) 0.5713(8)
C5_14 C 0.2114(3) 0.2742(4) 0.4455(8)
H4_14 H 0.1900 0.2626 0.3679
C6_14 C 0.2371(6) 0.2938(7) 0.6504(8)
H5_14 H 0.2368 0.2981 0.7432
N5_8 N 0.0296(3) 0.2947(4) 0.9489(7)
O2_14 O 0.9994(2) 0.2653(3) 0.6569(6)
O1_15 O 0.7497(4) 0.8758(3) 0.7353(6)
C1_15 C 0.7317(4) 0.7644(3) 0.5706(8)
O2_15 O 0.7347(3) 0.7342(2) 0.6569(6)
N2_9 N 0.7053(4) 0.9704(3) 0.4489(7)
C2_15 C 0.7463(4) 0.8835(3) 0.6157(8)
N3_15 N 0.7604(4) 0.8598(3) 0.5221(7)
H1_15 H 0.7595 0.8676 0.4385
C3_15 C 0.7769(4) 0.8207(3) 0.5584(8)
H2_15 H 0.7964 0.8317 0.6435
H3_15 H 0.8023 0.8217 0.4909
C4_15 C 0.7275(4) 0.9196(3) 0.5713(8)
C5_15 C 0.7258(4) 0.9373(3) 0.4455(8)
H4_15 H 0.7374 0.9275 0.3679
C6_15 C 0.7062(7) 0.9434(4) 0.6504(8)
H5_15 H 0.7019 0.9388 0.7432
N5_9 N 0.7053(4) 0.7350(3) 0.9489(7)
O2_16 O 0.7347(3) 0.0006(2) 0.1569(6)
O1_16 O 0.7497(4) 0.8740(3) 0.2353(6)
C1_16 C 0.7317(4) 0.9674(3) 0.0706(8)
C2_16 C 0.7463(4) 0.8629(3) 0.1157(8)
N3_16 N 0.7604(4) 0.9007(3) 0.0221(7)
C3_16 C 0.7769(4) 0.9563(3) 0.0584(8)
H2_16 H 0.7964 0.9648 0.1435
C4_16 C 0.7275(4) 0.8080(3) 0.0713(8)
C6_16 C 0.7062(7) 0.7629(6) 0.1504(8)
H5_16 H 0.7019 0.7632 0.2432
H1_16 H 0.7595 0.8920 0.9385
H3_16 H 0.8023 0.9807 0.9909
C5_16 C 0.7258(4) 0.7886(3) 0.9455(8)
H4_16 H 0.7374 0.8100 0.8679
O1_17 O 0.1242(3) 0.2503(4) 0.2353(6)
C1_17 C 0.2356(3) 0.2683(4) 0.0706(8)
O2_17 O 0.2658(2) 0.2653(3) 0.1569(6)
C2_17 C 0.1165(3) 0.2537(4) 0.1157(8)
N3_17 N 0.1402(3) 0.2396(4) 0.0221(7)
C3_17 C 0.1793(3) 0.2231(4) 0.0584(8)
H2_17 H 0.1683 0.2036 0.1435
C4_17 C 0.0804(3) 0.2725(4) 0.0713(8)
C6_17 C 0.0566(4) 0.2938(7) 0.1504(8)
H5_17 H 0.0612 0.2981 0.2432
H1_17 H 0.1324 0.2405 0.9385
H3_17 H 0.1783 0.1977 0.9909
C5_17 C 0.0627(3) 0.2742(4) 0.9455(8)
H4_17 H 0.0725 0.2626 0.8679
O1_18 O 0.1260(3) 0.8758(3) 0.2353(6)
C1_18 C 0.0326(3) 0.7644(3) 0.0706(8)
C2_18 C 0.1371(3) 0.8835(3) 0.1157(8)
N3_18 N 0.0993(3) 0.8598(3) 0.0221(7)
C3_18 C 0.0437(3) 0.8207(3) 0.0584(8)
H2_18 H 0.0352 0.8317 0.1435
C4_18 C 0.1920(3) 0.9196(3) 0.0713(8)
C6_18 C 0.2371(6) 0.9434(4) 0.1504(8)
H5_18 H 0.2368 0.9388 0.2432
H1_18 H 0.1080 0.8676 0.9385
H3_18 H 0.0193 0.8217 0.9909
C5_18 C 0.2114(3) 0.9373(3) 0.9455(8)
H4_18 H 0.1900 0.9275 0.8679
O2_18 O 0.9994(2) 0.7342(2) 0.1569(6)
loop_
_geom_bond_atom_site_label_1
_geom_bond_atom_site_label_2
_geom_bond_site_symmetry_1
_geom_bond_site_symmetry_2
N5 Zn1 1_555 1_555
N1 N2 1_555 1_555
C1 O2 1_555 1_555
N2 C5 1_555 1_555
C2 N3 1_555 1_555
N3 H1 1_555 1_555
O3 C1 1_555 1_555
C3 C1 1_555 1_555
H2 C3 1_555 1_555
H3 C3 1_555 1_555
C4 C2 1_555 1_555
C5 C4 1_555 1_555
H4 C5 1_555 1_555
C6 N1 1_555 1_555
Zn2 N2 1_555 1_555
Zn4 O3 1_555 1_555
N3 C3 1_555 1_555
C4 C6 1_555 1_555
N4_2 Zn1_2 1_555 1_555
N5_2 Zn1_2 1_555 1_555
O4_2 Zn1_2 1_555 1_555
N1_2 N2_2 1_555 1_555
C1_2 O2_2 1_555 1_555
N2_2 C5_2 1_555 1_555
C2_2 N3_2 1_555 1_555
N3_2 H1_2 1_555 1_555
O3_2 C1_2 1_555 1_555
C3_2 C1_2 1_555 1_555
H2_2 C3_2 1_555 1_555
H3_2 C3_2 1_555 1_555
C4_2 C2_2 1_555 1_555
C5_2 C4_2 1_555 1_555
H4_2 C5_2 1_555 1_555
C6_2 N1_2 1_555 1_555
Zn2_2 N2_2 1_555 1_555
Zn4_2 O3_2 1_555 1_555
N3_2 C3_2 1_555 1_555
C4_2 C6_2 1_555 1_555
N5_3 Zn1_3 1_555 1_555
N1_3 N2_3 1_555 1_555
C1_3 O2_3 1_555 1_555
N2_3 C5_3 1_555 1_555
C2_3 N3_3 1_555 1_555
N3_3 H1_3 1_555 1_555
O3_3 C1_3 1_555 1_555
C3_3 C1_3 1_555 1_555
H2_3 C3_3 1_555 1_555
H3_3 C3_3 1_555 1_555
C4_3 C2_3 1_555 1_555
C5_3 C4_3 1_555 1_555
H4_3 C5_3 1_555 1_555
C6_3 N1_3 1_555 1_555
Zn2_3 N2_3 1_555 1_555
Zn3_3 N1_3 1_555 1_555
Zn4_3 O3_3 1_555 1_555
N3_3 C3_3 1_555 1_555
C4_3 C6_3 1_555 1_555
Zn2_3 O2_4 1_555 1_555
N1_4 N5_3 1_555 1_555
O1_4 C2_4 1_555 1_555
C1_4 O2_4 1_555 1_555
N5_3 C5_4 1_555 1_555
C2_4 N3_4 1_555 1_555
N3_4 H1_4 1_555 1_555
O3_4 C1_4 1_555 1_555
C3_4 C1_4 1_555 1_555
H2_4 C3_4 1_555 1_555
H3_4 C3_4 1_555 1_555
C4_4 C2_4 1_555 1_555
C5_4 C4_4 1_555 1_555
H4_4 C5_4 1_555 1_555
C6_4 N1_4 1_555 1_555
H5_4 C6_4 1_555 1_555
Zn4_4 O3_4 1_555 1_555
N4_4 Zn2_3 1_555 1_555
O4_4 Zn2_3 1_555 1_555
N3_4 C3_4 1_555 1_555
C4_4 C6_4 1_555 1_555
Zn2_2 O2_5 1_555 1_555
N1_5 N5_2 1_555 1_555
O1_5 C2_5 1_555 1_555
C1_5 O2_5 1_555 1_555
N5_2 C5_5 1_555 1_555
C2_5 N3_5 1_555 1_555
N3_5 H1_5 1_555 1_555
O3_5 C1_5 1_555 1_555
C3_5 C1_5 1_555 1_555
H2_5 C3_5 1_555 1_555
H3_5 C3_5 1_555 1_555
C4_5 C2_5 1_555 1_555
C5_5 C4_5 1_555 1_555
H4_5 C5_5 1_555 1_555
C6_5 N1_5 1_555 1_555
H5_5 C6_5 1_555 1_555
Zn3_5 N1_5 1_555 1_555
Zn4_5 O3_5 1_555 1_555
N3_5 C3_5 1_555 1_555
C4_5 C6_5 1_555 1_555
Zn2 O2_6 1_555 1_555
N1_6 N5 1_555 1_555
O1_6 C2_6 1_555 1_555
C1_6 O2_6 1_555 1_555
N5 C5_6 1_555 1_555
C2_6 N3_6 1_555 1_555
N3_6 H1_6 1_555 1_555
O3_6 C1_6 1_555 1_555
C3_6 C1_6 1_555 1_555
H2_6 C3_6 1_555 1_555
H3_6 C3_6 1_555 1_555
C4_6 C2_6 1_555 1_555
C5_6 C4_6 1_555 1_555
H4_6 C5_6 1_555 1_555
C6_6 N1_6 1_555 1_555
H5_6 C6_6 1_555 1_555
Zn4_6 O3_6 1_555 1_555
N3_6 C3_6 1_555 1_555
C4_6 C6_6 1_555 1_555
Zn3_5 O2_7 1_555 1_555
N1_7 N2_4 1_555 1_555
O1_7 C2_7 1_555 1_555
C1_7 O2_7 1_555 1_555
N2_4 C5_7 1_555 1_555
C2_7 N3_7 1_555 1_555
N3_7 H1_7 1_555 1_555
O4_2 C1_7 1_555 1_555
C3_7 C1_7 1_555 1_555
H2_7 C3_7 1_555 1_555
H3_7 C3_7 1_555 1_555
C4_7 C2_7 1_555 1_555
C5_7 C4_7 1_555 1_555
H4_7 C5_7 1_555 1_555
C6_7 N1_7 1_555 1_555
H5_7 C6_7 1_555 1_555
Zn4_4 N1_7 1_555 1_555
N5_4 Zn3_5 1_555 1_555
O4_7 Zn3_5 1_555 1_555
N3_7 C3_7 1_555 1_555
C4_7 C6_7 1_555 1_555
Zn3_4 O2_8 1_555 1_555
N1_8 N2_5 1_555 1_555
O1_8 C2_8 1_555 1_555
C1_8 O2_8 1_555 1_555
N2_5 C5_8 1_555 1_555
C2_8 N3_8 1_555 1_555
N3_8 H1_8 1_555 1_555
O4_3 C1_8 1_555 1_555
C3_8 C1_8 1_555 1_555
H2_8 C3_8 1_555 1_555
H3_8 C3_8 1_555 1_555
C4_8 C2_8 1_555 1_555
C5_8 C4_8 1_555 1_555
H4_8 C5_8 1_555 1_555
C6_8 N1_8 1_555 1_555
H5_8 C6_8 1_555 1_555
N5_5 Zn3_4 1_555 1_555
O4_8 Zn3_4 1_555 1_555
N3_8 C3_8 1_555 1_555
C4_8 C6_8 1_555 1_555
Zn3_6 O2_9 1_555 1_555
N1_9 N2_6 1_555 1_555
O1_9 C2_9 1_555 1_555
C1_9 O2_9 1_555 1_555
N2_6 C5_9 1_555 1_555
C2_9 N3_9 1_555 1_555
N3_9 H1_9 1_555 1_555
O4 C1_9 1_555 1_555
C3_9 C1_9 1_555 1_555
H2_9 C3_9 1_555 1_555
H3_9 C3_9 1_555 1_555
C4_9 C2_9 1_555 1_555
C5_9 C4_9 1_555 1_555
H4_9 C5_9 1_555 1_555
C6_9 N1_9 1_555 1_555
H5_9 C6_9 1_555 1_555
N5_6 Zn3_6 1_555 1_555
O4_9 Zn3_6 1_555 1_555
N3_9 C3_9 1_555 1_555
C4_9 C6_9 1_555 1_555
Zn3_2 O2_10 1_555 1_555
N1_10 N5_6 1_555 1_555
O1_10 C2_10 1_555 1_555
C1_10 O2_10 1_555 1_555
N5_6 C5_10 1_555 1_555
C2_10 N3_10 1_555 1_555
N3_10 H1_10 1_555 1_555
O4_5 C1_10 1_555 1_555
C3_10 C1_10 1_555 1_555
H2_10 C3_10 1_555 1_555
H3_10 C3_10 1_555 1_555
C4_10 C2_10 1_555 1_555
C5_10 C4_10 1_555 1_555
H4_10 C5_10 1_555 1_555
C6_10 N1_10 1_555 1_555
H5_10 C6_10 1_555 1_555
O4_10 Zn3_2 1_555 1_555
N3_10 C3_10 1_555 1_555
C4_10 C6_10 1_555 1_555
Zn3 O2_11 1_555 1_555
N1_11 N5_5 1_555 1_555
O1_11 C2_11 1_555 1_555
C1_11 O2_11 1_555 1_555
N5_5 C5_11 1_555 1_555
C2_11 N3_11 1_555 1_555
N3_11 H1_11 1_555 1_555
O4_6 C1_11 1_555 1_555
C3_11 C1_11 1_555 1_555
H2_11 C3_11 1_555 1_555
H3_11 C3_11 1_555 1_555
C4_11 C2_11 1_555 1_555
C5_11 C4_11 1_555 1_555
H4_11 C5_11 1_555 1_555
C6_11 N1_11 1_555 1_555
H5_11 C6_11 1_555 1_555
O4_11 Zn3 1_555 1_555
N3_11 C3_11 1_555 1_555
C4_11 C6_11 1_555 1_555
Zn3_3 O2_12 1_555 1_555
N1_12 N5_4 1_555 1_555
O1_12 C2_12 1_555 1_555
C1_12 O2_12 1_555 1_555
N5_4 C5_12 1_555 1_555
C2_12 N3_12 1_555 1_555
N3_12 H1_12 1_555 1_555
O4_4 C1_12 1_555 1_555
C3_12 C1_12 1_555 1_555
H2_12 C3_12 1_555 1_555
H3_12 C3_12 1_555 1_555
C4_12 C2_12 1_555 1_555
C5_12 C4_12 1_555 1_555
H4_12 C5_12 1_555 1_555
C6_12 N1_12 1_555 1_555
H5_12 C6_12 1_555 1_555
Zn4_2 N1_12 1_555 1_555
O4_12 Zn3_3 1_555 1_555
N3_12 C3_12 1_555 1_555
C4_12 C6_12 1_555 1_555
Zn4_3 O2_13 1_555 1_555
N4_5 N2_7 1_555 1_555
O1_13 C2_13 1_555 1_555
N2_7 C5_13 1_555 1_555
C2_13 N3_13 1_555 1_555
N3_13 H1_13 1_555 1_555
O4_8 C1_13 1_555 1_555
C3_13 C1_13 1_555 1_555
H2_13 C3_13 1_555 1_555
H3_13 C3_13 1_555 1_555
C4_13 C2_13 1_555 1_555
C5_13 C4_13 1_555 1_555
H4_13 C5_13 1_555 1_555
C6_13 N4_5 1_555 1_555
H5_13 C6_13 1_555 1_555
N3_13 C3_13 1_555 1_555
C4_13 C6_13 1_555 1_555
N4_4 N2_8 1_555 1_555
O1_14 C2_14 1_555 1_555
N2_8 C5_14 1_555 1_555
C2_14 N3_14 1_555 1_555
N3_14 H1_14 1_555 1_555
O4_9 C1_14 1_555 1_555
C3_14 C1_14 1_555 1_555
H2_14 C3_14 1_555 1_555
H3_14 C3_14 1_555 1_555
C4_14 C2_14 1_555 1_555
C5_14 C4_14 1_555 1_555
H4_14 C5_14 1_555 1_555
C6_14 N4_4 1_555 1_555
H5_14 C6_14 1_555 1_555
Zn4_4 N2_8 1_555 1_555
N3_14 C3_14 1_555 1_555
C4_14 C6_14 1_555 1_555
Zn4 O2_14 1_555 1_555
Zn4_2 O2_15 1_555 1_555
N4_6 N2_9 1_555 1_555
O1_15 C2_15 1_555 1_555
C1_15 O2_15 1_555 1_555
N2_9 C5_15 1_555 1_555
C2_15 N3_15 1_555 1_555
N3_15 H1_15 1_555 1_555
O4_7 C1_15 1_555 1_555
C3_15 C1_15 1_555 1_555
H2_15 C3_15 1_555 1_555
H3_15 C3_15 1_555 1_555
C4_15 C2_15 1_555 1_555
C5_15 C4_15 1_555 1_555
H4_15 C5_15 1_555 1_555
C6_15 N4_6 1_555 1_555
H5_15 C6_15 1_555 1_555
N5_9 Zn4_2 1_555 1_555
N3_15 C3_15 1_555 1_555
C4_15 C6_15 1_555 1_555
Zn4_6 O2_16 1_555 1_555
O1_16 C2_16 1_555 1_555
C2_16 N3_16 1_555 1_555
C3_16 C1_16 1_555 1_555
H2_16 C3_16 1_555 1_555
C4_16 C2_16 1_555 1_555
C6_16 N4_2 1_555 1_555
H5_16 C6_16 1_555 1_555
N3_16 C3_16 1_555 1_555
C4_16 C6_16 1_555 1_555
N5_9 C5_16 1_555 1_555
H4_16 C5_16 1_555 1_555
Zn4_4 O2_17 1_555 1_555
O1_17 C2_17 1_555 1_555
C1_17 O2_17 1_555 1_555
C2_17 N3_17 1_555 1_555
C3_17 C1_17 1_555 1_555
H2_17 C3_17 1_555 1_555
C4_17 C2_17 1_555 1_555
C6_17 N4 1_555 1_555
H5_17 C6_17 1_555 1_555
N3_17 C3_17 1_555 1_555
C4_17 C6_17 1_555 1_555
N5_8 C5_17 1_555 1_555
H4_17 C5_17 1_555 1_555
O1_18 C2_18 1_555 1_555
C2_18 N3_18 1_555 1_555
C3_18 C1_18 1_555 1_555
H2_18 C3_18 1_555 1_555
C4_18 C2_18 1_555 1_555
C6_18 N4_3 1_555 1_555
H5_18 C6_18 1_555 1_555
N3_18 C3_18 1_555 1_555
C4_18 C6_18 1_555 1_555
N5_7 C5_18 1_555 1_555
H4_18 C5_18 1_555 1_555
Zn4_5 O2_18 1_555 1_555

#END
