
###############################################################################
#
# This file contains modified crystal structure data generated from the
# MOF subset of the Cambridge Structural Database (CSD) v543 
# hosted by the Cambridge Crystallographic Data Centre (CCDC).
#
# This work is licensed under the Creative Commons
# Attribution-NonCommercial-ShareAlike 4.0 International License.
# To view a copy of this license, visit
# http://creativecommons.org/licenses/by-nc-sa/4.0/
# or send a letter to
# Creative Commons, PO Box 1866, Mountain View, CA 94042, USA.
#
# CIF created using the CSD Python API on 29 September 2022
# The structure has been converted into the P1 space group
# The structure has a 3D framework
# The original CSD entry VUWVER is in the rhombohedral crystal system
# The framework has been calculated to contain at least 10.0% void space
# The void calculation uses a probe of radius 1.32A, grid spacing 0.4
#
###############################################################################

data_VUWVER
_chemical_formula_moiety         '(C108 H90 N54 O47 Zn6)n'
_symmetry_cell_setting           triclinic
_symmetry_space_group_name_H-M   'P 1'
_symmetry_Int_Tables_number      1
_space_group_name_Hall           'P 1'
loop_
_symmetry_equiv_pos_site_id
_symmetry_equiv_pos_as_xyz
1 x,y,z
_cell_length_a                   26.3829(10)
_cell_length_b                   26.3829(10)
_cell_length_c                   10.1215(4)
_cell_angle_alpha                90
_cell_angle_beta                 90
_cell_angle_gamma                120
_cell_volume                     6101.27
loop_
_atom_site_label
_atom_site_type_symbol
_atom_site_fract_x
_atom_site_fract_y
_atom_site_fract_z
Zn1 Zn 0.32157(4) 0.35138(4) 0.46165(9)
O1 O 0.4171(4) 0.0677(2) 0.4877(5)
O2 O 0.4452(3) 0.2217(3) 0.5684(5)
N1 N 0.3891(4) 0.3190(3) 0.2840(6)
N2 N 0.3726(3) 0.3193(3) 0.4107(6)
O3 O 0.3778(3) 0.0929(3) 0.3215(5)
C1 C 0.4441(3) 0.2327(3) 0.4495(8)
N3 N 0.4621(3) 0.2096(3) 0.3557(6)
H1 H 0.4663 0.2221 0.2737
C2 C 0.3917(4) 0.2905(4) 0.4840(8)
H2 H 0.3856 0.2842 0.5765
C3 C 0.4190(6) 0.2907(4) 0.2803(8)
H3 H 0.4360 0.2848 0.2032
C4 C 0.4186(6) 0.1040(4) 0.4024(8)
C5 C 0.4217(4) 0.2709(4) 0.4060(8)
C6 C 0.4748(4) 0.1634(4) 0.3911(8)
H4 H 0.4959 0.1731 0.4765
H5 H 0.5006 0.1611 0.3231
Zn2 Zn 0.31529(4) 0.01176(4) 0.29498(9)
Zn3 Zn 0.36314(6) 0.34510(4) 0.12832(9)
Zn4 Zn 0.36314(6) 0.01805(4) 0.62832(9)
O4 O 0.3173(4) 0.4010(2) 0.3210(5)
N4 N 0.3477(3) 0.4034(5) 0.6173(6)
O5 O 0.2404(3) 0.2889(3) 0.4882(5)
O1_2 O 0.9323(2) 0.3494(4) 0.4877(5)
O2_2 O 0.7783(3) 0.2235(4) 0.5684(5)
N1_2 N 0.6810(3) 0.0701(5) 0.2840(6)
N2_2 N 0.6807(3) 0.0533(4) 0.4107(6)
O3_2 O 0.9071(3) 0.2849(4) 0.3215(5)
C1_2 C 0.7673(3) 0.2114(4) 0.4495(8)
N3_2 N 0.7904(3) 0.2525(4) 0.3557(6)
H1_2 H 0.7779 0.2442 0.2737
C2_2 C 0.7095(4) 0.1012(6) 0.4840(8)
H2_2 H 0.7158 0.1014 0.5765
C3_2 C 0.7093(4) 0.1283(7) 0.2803(8)
H3_2 H 0.7152 0.1512 0.2032
C4_2 C 0.8960(4) 0.3146(7) 0.4024(8)
C5_2 C 0.7291(4) 0.1508(6) 0.4060(8)
C6_2 C 0.8366(4) 0.3114(6) 0.3911(8)
H4_2 H 0.8269 0.3228 0.4765
H5_2 H 0.8389 0.3395 0.3231
Zn2_2 Zn 0.98824(4) 0.30352(6) 0.29498(9)
Zn3_2 Zn 0.65490(4) 0.01805(7) 0.12832(9)
Zn4_2 Zn 0.98195(4) 0.34510(7) 0.62832(9)
Zn1_2 Zn 0.64862(4) 0.97019(6) 0.46165(9)
O4_2 O 0.5990(2) 0.9162(4) 0.3210(5)
N4_2 N 0.5966(5) 0.9442(6) 0.6173(6)
O5_2 O 0.7111(3) 0.9516(4) 0.4882(5)
Zn1_3 Zn 0.02981(6) 0.67843(4) 0.46165(9)
O4_3 O 0.0838(4) 0.6827(4) 0.3210(5)
N4_3 N 0.0558(6) 0.6523(3) 0.6173(6)
O5_3 O 0.0484(4) 0.7596(3) 0.4882(5)
O1_3 O 0.6506(4) 0.5829(4) 0.4877(5)
O2_3 O 0.7765(4) 0.5548(3) 0.5684(5)
N1_3 N 0.9299(5) 0.6109(4) 0.2840(6)
N2_3 N 0.9467(4) 0.6274(3) 0.4107(6)
O3_3 O 0.7151(4) 0.6222(3) 0.3215(5)
C1_3 C 0.7886(4) 0.5559(3) 0.4495(8)
N3_3 N 0.7475(4) 0.5379(3) 0.3557(6)
H1_3 H 0.7558 0.5337 0.2737
C2_3 C 0.8988(6) 0.6083(4) 0.4840(8)
H2_3 H 0.8986 0.6144 0.5765
C3_3 C 0.8717(7) 0.5810(6) 0.2803(8)
H3_3 H 0.8488 0.5640 0.2032
C4_3 C 0.6854(7) 0.5814(6) 0.4024(8)
C5_3 C 0.8492(6) 0.5783(4) 0.4060(8)
C6_3 C 0.6886(6) 0.5252(4) 0.3911(8)
H4_3 H 0.6772 0.5041 0.4765
H5_3 H 0.6605 0.4994 0.3231
Zn2_3 Zn 0.69648(6) 0.68471(4) 0.29498(9)
Zn3_3 Zn 0.98195(7) 0.63686(6) 0.12832(9)
Zn4_3 Zn 0.65490(7) 0.63686(6) 0.62832(9)
N4_4 N 0.0558(6) 0.4034(5) 0.1173(6)
Zn1_4 Zn 0.02981(6) 0.35138(4) 0.96165(9)
O4_4 O 0.0838(4) 0.4010(2) 0.8210(5)
O5_4 O 0.0484(4) 0.2889(3) 0.9882(5)
O2_4 O 0.7765(4) 0.2217(3) 0.0684(5)
H2_4 H 0.8986 0.2842 0.0765
O1_4 O 0.6506(4) 0.0677(2) 0.9877(5)
N1_4 N 0.9299(5) 0.3190(3) 0.7840(6)
N2_4 N 0.9467(4) 0.3193(3) 0.9107(6)
O3_4 O 0.7151(4) 0.0929(3) 0.8215(5)
C1_4 C 0.7886(4) 0.2327(3) 0.9495(8)
N3_4 N 0.7475(4) 0.2096(3) 0.8557(6)
H1_4 H 0.7558 0.2221 0.7737
C2_4 C 0.8988(6) 0.2905(4) 0.9840(8)
C3_4 C 0.8717(7) 0.2907(4) 0.7803(8)
H3_4 H 0.8488 0.2848 0.7032
C4_4 C 0.6854(7) 0.1040(4) 0.9024(8)
C5_4 C 0.8492(6) 0.2709(4) 0.9060(8)
C6_4 C 0.6886(6) 0.1634(4) 0.8911(8)
H4_4 H 0.6772 0.1731 0.9765
H5_4 H 0.6605 0.1611 0.8231
Zn2_4 Zn 0.69648(6) 0.01176(4) 0.79498(9)
O2_5 O 0.4452(3) 0.2235(4) 0.0684(5)
H2_5 H 0.3856 0.1014 0.0765
O1_5 O 0.4171(4) 0.3494(4) 0.9877(5)
N1_5 N 0.3891(4) 0.0701(5) 0.7840(6)
N2_5 N 0.3726(3) 0.0533(4) 0.9107(6)
O3_5 O 0.3778(3) 0.2849(4) 0.8215(5)
C1_5 C 0.4441(3) 0.2114(4) 0.9495(8)
N3_5 N 0.4621(3) 0.2525(4) 0.8557(6)
H1_5 H 0.4663 0.2442 0.7737
C2_5 C 0.3917(4) 0.1012(6) 0.9840(8)
C3_5 C 0.4190(6) 0.1283(7) 0.7803(8)
H3_5 H 0.4360 0.1512 0.7032
C4_5 C 0.4186(6) 0.3146(7) 0.9024(8)
C5_5 C 0.4217(4) 0.1508(6) 0.9060(8)
C6_5 C 0.4748(4) 0.3114(6) 0.8911(8)
H4_5 H 0.4959 0.3228 0.9765
H5_5 H 0.5006 0.3395 0.8231
Zn2_5 Zn 0.31529(4) 0.30352(6) 0.79498(9)
N4_5 N 0.3477(3) 0.9442(6) 0.1173(6)
Zn1_5 Zn 0.32157(4) 0.97019(6) 0.96165(9)
O4_5 O 0.3173(4) 0.9162(4) 0.8210(5)
O5_5 O 0.2404(3) 0.9516(4) 0.9882(5)
O2_6 O 0.7783(3) 0.5548(3) 0.0684(5)
H2_6 H 0.7158 0.6144 0.0765
N4_6 N 0.5966(5) 0.6523(3) 0.1173(6)
Zn1_6 Zn 0.64862(4) 0.67843(4) 0.96165(9)
O1_6 O 0.9323(2) 0.5829(4) 0.9877(5)
N1_6 N 0.6810(3) 0.6109(4) 0.7840(6)
N2_6 N 0.6807(3) 0.6274(3) 0.9107(6)
O3_6 O 0.9071(3) 0.6222(3) 0.8215(5)
C1_6 C 0.7673(3) 0.5559(3) 0.9495(8)
N3_6 N 0.7904(3) 0.5379(3) 0.8557(6)
H1_6 H 0.7779 0.5337 0.7737
C2_6 C 0.7095(4) 0.6083(4) 0.9840(8)
C3_6 C 0.7093(4) 0.5810(6) 0.7803(8)
H3_6 H 0.7152 0.5640 0.7032
C4_6 C 0.8960(4) 0.5814(6) 0.9024(8)
C5_6 C 0.7291(4) 0.5783(4) 0.9060(8)
C6_6 C 0.8366(4) 0.5252(4) 0.8911(8)
H4_6 H 0.8269 0.5041 0.9765
H5_6 H 0.8389 0.4994 0.8231
Zn2_6 Zn 0.98824(4) 0.68471(4) 0.79498(9)
O4_6 O 0.5990(2) 0.6827(4) 0.8210(5)
O5_6 O 0.7111(3) 0.7596(3) 0.9882(5)
O2_7 O 0.1119(3) 0.5550(3) 0.9017(5)
N2_7 N 0.0393(3) 0.6526(3) 0.7440(6)
O3_7 O 0.0445(3) 0.4262(3) 0.6548(5)
C1_7 C 0.1108(3) 0.5660(3) 0.7828(8)
N3_7 N 0.1288(3) 0.5429(3) 0.6890(6)
H1_7 H 0.1330 0.5554 0.6070
C2_7 C 0.0584(4) 0.6238(4) 0.8173(8)
H2_7 H 0.0523 0.6175 0.9098
C3_7 C 0.0857(6) 0.6240(4) 0.6136(8)
H3_7 H 0.1027 0.6181 0.5365
C4_7 C 0.0853(6) 0.4373(4) 0.7357(8)
C5_7 C 0.0884(4) 0.6042(4) 0.7393(8)
C6_7 C 0.1415(4) 0.4967(4) 0.7244(8)
H4_7 H 0.1626 0.5064 0.8098
H5_7 H 0.1673 0.4944 0.6564
N4_7 N 0.0143(3) 0.7368(5) 0.9507(6)
O4_7 O 0.9839(4) 0.7344(2) 0.6544(5)
O2_8 O 0.4450(3) 0.5568(4) 0.9017(5)
N2_8 N 0.3474(3) 0.3866(4) 0.7440(6)
O3_8 O 0.5738(3) 0.6182(4) 0.6548(5)
C1_8 C 0.4340(3) 0.5447(4) 0.7828(8)
N3_8 N 0.4571(3) 0.5858(4) 0.6890(6)
H1_8 H 0.4446 0.5775 0.6070
C2_8 C 0.3762(4) 0.4345(6) 0.8173(8)
H2_8 H 0.3825 0.4347 0.9098
C3_8 C 0.3760(4) 0.4616(7) 0.6136(8)
H3_8 H 0.3819 0.4845 0.5365
C4_8 C 0.5627(4) 0.6479(7) 0.7357(8)
C5_8 C 0.3958(4) 0.4841(6) 0.7393(8)
C6_8 C 0.5033(4) 0.6447(6) 0.7244(8)
H4_8 H 0.4936 0.6561 0.8098
H5_8 H 0.5056 0.6728 0.6564
O4_8 O 0.2656(2) 0.2496(4) 0.6544(5)
N4_8 N 0.2632(5) 0.2776(6) 0.9507(6)
O4_9 O 0.7504(4) 0.0161(4) 0.6544(5)
O2_9 O 0.4432(4) 0.8881(3) 0.9017(5)
N2_9 N 0.6134(4) 0.9607(3) 0.7440(6)
O3_9 O 0.3818(4) 0.9555(3) 0.6548(5)
C1_9 C 0.4553(4) 0.8892(3) 0.7828(8)
N3_9 N 0.4142(4) 0.8712(3) 0.6890(6)
H1_9 H 0.4225 0.8670 0.6070
C2_9 C 0.5655(6) 0.9416(4) 0.8173(8)
H2_9 H 0.5653 0.9477 0.9098
C3_9 C 0.5384(7) 0.9143(6) 0.6136(8)
H3_9 H 0.5155 0.8973 0.5365
C4_9 C 0.3521(7) 0.9147(6) 0.7357(8)
C5_9 C 0.5159(6) 0.9116(4) 0.7393(8)
C6_9 C 0.3553(6) 0.8585(4) 0.7244(8)
H4_9 H 0.3439 0.8374 0.8098
H5_9 H 0.3272 0.8327 0.6564
N4_9 N 0.7224(6) 0.9857(3) 0.9507(6)
O2_10 O 0.4432(4) 0.5550(3) 0.4017(5)
N2_10 N 0.6134(4) 0.6526(3) 0.2440(6)
O3_10 O 0.3818(4) 0.4262(3) 0.1548(5)
C1_10 C 0.4553(4) 0.5660(3) 0.2828(8)
N3_10 N 0.4142(4) 0.5429(3) 0.1890(6)
H1_10 H 0.4225 0.5554 0.1070
C2_10 C 0.5655(6) 0.6238(4) 0.3173(8)
H2_10 H 0.5653 0.6175 0.4098
C3_10 C 0.5384(7) 0.6240(4) 0.1136(8)
H3_10 H 0.5155 0.6181 0.0365
C4_10 C 0.3521(7) 0.4373(4) 0.2357(8)
C5_10 C 0.5159(6) 0.6042(4) 0.2393(8)
C6_10 C 0.3553(6) 0.4967(4) 0.2244(8)
H4_10 H 0.3439 0.5064 0.3098
H5_10 H 0.3272 0.4944 0.1564
O4_10 O 0.7504(4) 0.7344(2) 0.1544(5)
N4_10 N 0.7224(6) 0.7368(5) 0.4507(6)
O2_11 O 0.1119(3) 0.5568(4) 0.4017(5)
N2_11 N 0.0393(3) 0.3866(4) 0.2440(6)
O3_11 O 0.0445(3) 0.6182(4) 0.1548(5)
C1_11 C 0.1108(3) 0.5447(4) 0.2828(8)
N3_11 N 0.1288(3) 0.5858(4) 0.1890(6)
H1_11 H 0.1330 0.5775 0.1070
C2_11 C 0.0584(4) 0.4345(6) 0.3173(8)
H2_11 H 0.0523 0.4347 0.4098
C3_11 C 0.0857(6) 0.4616(7) 0.1136(8)
H3_11 H 0.1027 0.4845 0.0365
C4_11 C 0.0853(6) 0.6479(7) 0.2357(8)
C5_11 C 0.0884(4) 0.4841(6) 0.2393(8)
C6_11 C 0.1415(4) 0.6447(6) 0.2244(8)
H4_11 H 0.1626 0.6561 0.3098
H5_11 H 0.1673 0.6728 0.1564
N4_11 N 0.0143(3) 0.2776(6) 0.4507(6)
O4_11 O 0.9839(4) 0.2496(4) 0.1544(5)
O4_12 O 0.2656(2) 0.0161(4) 0.1544(5)
O2_12 O 0.4450(3) 0.8881(3) 0.4017(5)
N2_12 N 0.3474(3) 0.9607(3) 0.2440(6)
O3_12 O 0.5738(3) 0.9555(3) 0.1548(5)
C1_12 C 0.4340(3) 0.8892(3) 0.2828(8)
N3_12 N 0.4571(3) 0.8712(3) 0.1890(6)
H1_12 H 0.4446 0.8670 0.1070
C2_12 C 0.3762(4) 0.9416(4) 0.3173(8)
H2_12 H 0.3825 0.9477 0.4098
C3_12 C 0.3760(4) 0.9143(6) 0.1136(8)
H3_12 H 0.3819 0.8973 0.0365
C4_12 C 0.5627(4) 0.9147(6) 0.2357(8)
C5_12 C 0.3958(4) 0.9116(4) 0.2393(8)
C6_12 C 0.5033(4) 0.8585(4) 0.2244(8)
H4_12 H 0.4936 0.8374 0.3098
H5_12 H 0.5056 0.8327 0.1564
N4_12 N 0.2632(5) 0.9857(3) 0.4507(6)
O2_13 O 0.7785(3) 0.8884(3) 0.2351(5)
N2_13 N 0.7059(3) 0.9860(3) 0.0774(6)
C1_13 C 0.7774(3) 0.8994(3) 0.1162(8)
N3_13 N 0.7954(3) 0.8763(3) 0.0224(6)
C2_13 C 0.7250(4) 0.9572(4) 0.1507(8)
H2_13 H 0.7189 0.9509 0.2432
C4_13 C 0.7519(6) 0.7707(4) 0.0691(8)
C5_13 C 0.7550(4) 0.9376(4) 0.0727(8)
C6_13 C 0.8081(4) 0.8301(4) 0.0578(8)
H4_13 H 0.8292 0.8398 0.1432
H1_13 H 0.7996 0.8888 0.9404
C3_13 C 0.7523(6) 0.9574(4) 0.9470(8)
H3_13 H 0.7693 0.9515 0.8699
H5_13 H 0.8339 0.8278 0.9898
O2_14 O 0.1116(3) 0.8902(4) 0.2351(5)
N2_14 N 0.0140(3) 0.7200(4) 0.0774(6)
C1_14 C 0.1006(3) 0.8781(4) 0.1162(8)
N3_14 N 0.1237(3) 0.9192(4) 0.0224(6)
C2_14 C 0.0428(4) 0.7679(6) 0.1507(8)
H2_14 H 0.0491 0.7681 0.2432
C4_14 C 0.2293(4) 0.9813(7) 0.0691(8)
C5_14 C 0.0624(4) 0.8175(6) 0.0727(8)
C6_14 C 0.1699(4) 0.9781(6) 0.0578(8)
H4_14 H 0.1602 0.9895 0.1432
H1_14 H 0.1112 0.9109 0.9404
C3_14 C 0.0426(4) 0.7950(7) 0.9470(8)
H3_14 H 0.0485 0.8179 0.8699
O2_15 O 0.1098(4) 0.2215(3) 0.2351(5)
N2_15 N 0.2800(4) 0.2941(3) 0.0774(6)
C1_15 C 0.1219(4) 0.2226(3) 0.1162(8)
N3_15 N 0.0808(4) 0.2046(3) 0.0224(6)
C2_15 C 0.2321(6) 0.2750(4) 0.1507(8)
H2_15 H 0.2319 0.2811 0.2432
C4_15 C 0.0187(7) 0.2481(6) 0.0691(8)
C5_15 C 0.1825(6) 0.2450(4) 0.0727(8)
C6_15 C 0.0219(6) 0.1919(4) 0.0578(8)
H4_15 H 0.0105 0.1708 0.1432
H1_15 H 0.0891 0.2004 0.9404
C3_15 C 0.2050(7) 0.2477(6) 0.9470(8)
H3_15 H 0.1821 0.2307 0.8699
O2_16 O 0.1098(4) 0.8884(3) 0.7351(5)
N2_16 N 0.2800(4) 0.9860(3) 0.5774(6)
C1_16 C 0.1219(4) 0.8994(3) 0.6162(8)
N3_16 N 0.0808(4) 0.8763(3) 0.5224(6)
H1_16 H 0.0891 0.8888 0.4404
C2_16 C 0.2321(6) 0.9572(4) 0.6507(8)
H2_16 H 0.2319 0.9509 0.7432
C3_16 C 0.2050(7) 0.9574(4) 0.4470(8)
H3_16 H 0.1821 0.9515 0.3699
C4_16 C 0.0187(7) 0.7707(4) 0.5691(8)
C5_16 C 0.1825(6) 0.9376(4) 0.5727(8)
C6_16 C 0.0219(6) 0.8301(4) 0.5578(8)
H4_16 H 0.0105 0.8398 0.6432
H5_14 H 0.9938 0.8278 0.4898
H5_15 H 0.8339 0.0062 0.4898
O2_17 O 0.7785(3) 0.8902(4) 0.7351(5)
N2_17 N 0.7059(3) 0.7200(4) 0.5774(6)
C1_17 C 0.7774(3) 0.8781(4) 0.6162(8)
N3_17 N 0.7954(3) 0.9192(4) 0.5224(6)
H1_17 H 0.7996 0.9109 0.4404
C2_17 C 0.7250(4) 0.7679(6) 0.6507(8)
H2_17 H 0.7189 0.7681 0.7432
C3_17 C 0.7523(6) 0.7950(7) 0.4470(8)
H3_17 H 0.7693 0.8179 0.3699
C4_17 C 0.7519(6) 0.9813(7) 0.5691(8)
C5_17 C 0.7550(4) 0.8175(6) 0.5727(8)
C6_17 C 0.8081(4) 0.9781(6) 0.5578(8)
H4_17 H 0.8292 0.9895 0.6432
O2_18 O 0.1116(3) 0.2215(3) 0.7351(5)
N2_18 N 0.0140(3) 0.2941(3) 0.5774(6)
C1_18 C 0.1006(3) 0.2226(3) 0.6162(8)
N3_18 N 0.1237(3) 0.2046(3) 0.5224(6)
H1_18 H 0.1112 0.2004 0.4404
C2_18 C 0.0428(4) 0.2750(4) 0.6507(8)
H2_18 H 0.0491 0.2811 0.7432
C3_18 C 0.0426(4) 0.2477(6) 0.4470(8)
H3_18 H 0.0485 0.2307 0.3699
C4_18 C 0.2293(4) 0.2481(6) 0.5691(8)
C5_18 C 0.0624(4) 0.2450(4) 0.5727(8)
C6_18 C 0.1699(4) 0.1919(4) 0.5578(8)
H4_18 H 0.1602 0.1708 0.6432
H5_16 H 0.1722 0.1661 0.4898
H5_17 H 0.1722 0.0062 0.9898
H5_18 H 0.9938 0.1661 0.9898
loop_
_geom_bond_atom_site_label_1
_geom_bond_atom_site_label_2
_geom_bond_site_symmetry_1
_geom_bond_site_symmetry_2
Zn1 N2 1_555 1_555
O1 C4 1_555 1_555
O2 C1 1_555 1_555
N1 N2 1_555 1_555
N2 C2 1_555 1_555
O3 C4 1_555 1_555
C1 N3 1_555 1_555
N3 H1 1_555 1_555
C2 H2 1_555 1_555
C3 N1 1_555 1_555
H3 C3 1_555 1_555
C4 C6 1_555 1_555
C5 C1 1_555 1_555
C6 N3 1_555 1_555
H4 C6 1_555 1_555
H5 C6 1_555 1_555
Zn2 O3 1_555 1_555
Zn3 N1 1_555 1_555
Zn4 O1 1_555 1_555
O4 Zn1 1_555 1_555
N4 Zn1 1_555 1_555
O5 Zn1 1_555 1_555
C2 C5 1_555 1_555
C3 C5 1_555 1_555
O1_2 C4_2 1_555 1_555
O2_2 C1_2 1_555 1_555
N1_2 N2_2 1_555 1_555
N2_2 C2_2 1_555 1_555
O3_2 C4_2 1_555 1_555
C1_2 N3_2 1_555 1_555
N3_2 H1_2 1_555 1_555
C2_2 H2_2 1_555 1_555
C3_2 N1_2 1_555 1_555
H3_2 C3_2 1_555 1_555
C4_2 C6_2 1_555 1_555
C5_2 C1_2 1_555 1_555
C6_2 N3_2 1_555 1_555
H4_2 C6_2 1_555 1_555
H5_2 C6_2 1_555 1_555
Zn2_2 O3_2 1_555 1_555
Zn3_2 N1_2 1_555 1_555
Zn4_2 O1_2 1_555 1_555
C2_2 C5_2 1_555 1_555
C3_2 C5_2 1_555 1_555
O4_2 Zn1_2 1_555 1_555
N4_2 Zn1_2 1_555 1_555
O5_2 Zn1_2 1_555 1_555
O4_3 Zn1_3 1_555 1_555
N4_3 Zn1_3 1_555 1_555
O5_3 Zn1_3 1_555 1_555
O1_3 C4_3 1_555 1_555
O2_3 C1_3 1_555 1_555
N1_3 N2_3 1_555 1_555
N2_3 C2_3 1_555 1_555
O3_3 C4_3 1_555 1_555
C1_3 N3_3 1_555 1_555
N3_3 H1_3 1_555 1_555
C2_3 H2_3 1_555 1_555
C3_3 N1_3 1_555 1_555
H3_3 C3_3 1_555 1_555
C4_3 C6_3 1_555 1_555
C5_3 C1_3 1_555 1_555
C6_3 N3_3 1_555 1_555
H4_3 C6_3 1_555 1_555
H5_3 C6_3 1_555 1_555
Zn2_3 O3_3 1_555 1_555
Zn3_3 N1_3 1_555 1_555
Zn4_3 O1_3 1_555 1_555
C2_3 C5_3 1_555 1_555
C3_3 C5_3 1_555 1_555
O4_4 Zn1_4 1_555 1_555
O5_4 Zn1_4 1_555 1_555
O1_4 C4_4 1_555 1_555
N1_4 N2_4 1_555 1_555
N2_4 C2_4 1_555 1_555
O3_4 C4_4 1_555 1_555
C1_4 N3_4 1_555 1_555
N3_4 H1_4 1_555 1_555
C3_4 N1_4 1_555 1_555
H3_4 C3_4 1_555 1_555
C4_4 C6_4 1_555 1_555
C5_4 C1_4 1_555 1_555
C6_4 N3_4 1_555 1_555
H4_4 C6_4 1_555 1_555
H5_4 C6_4 1_555 1_555
Zn2_4 O3_4 1_555 1_555
Zn4_2 N1_4 1_555 1_555
C2_4 C5_4 1_555 1_555
C3_4 C5_4 1_555 1_555
O1_5 C4_5 1_555 1_555
N1_5 N2_5 1_555 1_555
N2_5 C2_5 1_555 1_555
O3_5 C4_5 1_555 1_555
C1_5 N3_5 1_555 1_555
N3_5 H1_5 1_555 1_555
C3_5 N1_5 1_555 1_555
H3_5 C3_5 1_555 1_555
C4_5 C6_5 1_555 1_555
C5_5 C1_5 1_555 1_555
C6_5 N3_5 1_555 1_555
H4_5 C6_5 1_555 1_555
H5_5 C6_5 1_555 1_555
Zn2_5 O3_5 1_555 1_555
Zn4 N1_5 1_555 1_555
C2_5 C5_5 1_555 1_555
C3_5 C5_5 1_555 1_555
O4_5 Zn1_5 1_555 1_555
O5_5 Zn1_5 1_555 1_555
Zn1_6 N2_6 1_555 1_555
O1_6 C4_6 1_555 1_555
N1_6 N2_6 1_555 1_555
N2_6 C2_6 1_555 1_555
O3_6 C4_6 1_555 1_555
C1_6 N3_6 1_555 1_555
N3_6 H1_6 1_555 1_555
C3_6 N1_6 1_555 1_555
H3_6 C3_6 1_555 1_555
C4_6 C6_6 1_555 1_555
C5_6 C1_6 1_555 1_555
C6_6 N3_6 1_555 1_555
H4_6 C6_6 1_555 1_555
H5_6 C6_6 1_555 1_555
Zn2_6 O3_6 1_555 1_555
Zn4_3 N1_6 1_555 1_555
O4_6 Zn1_6 1_555 1_555
O5_6 Zn1_6 1_555 1_555
C2_6 C5_6 1_555 1_555
C3_6 C5_6 1_555 1_555
O4_4 C4_7 1_555 1_555
O2_7 C1_7 1_555 1_555
N4_3 N2_7 1_555 1_555
N2_7 C2_7 1_555 1_555
O3_7 C4_7 1_555 1_555
C1_7 N3_7 1_555 1_555
N3_7 H1_7 1_555 1_555
C2_7 H2_7 1_555 1_555
C3_7 N4_3 1_555 1_555
H3_7 C3_7 1_555 1_555
C4_7 C6_7 1_555 1_555
C5_7 C1_7 1_555 1_555
C6_7 N3_7 1_555 1_555
H4_7 C6_7 1_555 1_555
H5_7 C6_7 1_555 1_555
C2_7 C5_7 1_555 1_555
C3_7 C5_7 1_555 1_555
O4_7 Zn2_6 1_555 1_555
Zn2_5 N2_8 1_555 1_555
O4_6 C4_8 1_555 1_555
O2_8 C1_8 1_555 1_555
N4 N2_8 1_555 1_555
N2_8 C2_8 1_555 1_555
O3_8 C4_8 1_555 1_555
C1_8 N3_8 1_555 1_555
N3_8 H1_8 1_555 1_555
C2_8 H2_8 1_555 1_555
C3_8 N4 1_555 1_555
H3_8 C3_8 1_555 1_555
C4_8 C6_8 1_555 1_555
C5_8 C1_8 1_555 1_555
C6_8 N3_8 1_555 1_555
H4_8 C6_8 1_555 1_555
H5_8 C6_8 1_555 1_555
Zn4_3 O3_8 1_555 1_555
O4_8 Zn2_5 1_555 1_555
N4_8 Zn2_5 1_555 1_555
C2_8 C5_8 1_555 1_555
C3_8 C5_8 1_555 1_555
O4_9 Zn2_4 1_555 1_555
O4_5 C4_9 1_555 1_555
O2_9 C1_9 1_555 1_555
N4_2 N2_9 1_555 1_555
N2_9 C2_9 1_555 1_555
O3_9 C4_9 1_555 1_555
C1_9 N3_9 1_555 1_555
N3_9 H1_9 1_555 1_555
C2_9 H2_9 1_555 1_555
C3_9 N4_2 1_555 1_555
H3_9 C3_9 1_555 1_555
C4_9 C6_9 1_555 1_555
C5_9 C1_9 1_555 1_555
C6_9 N3_9 1_555 1_555
H4_9 C6_9 1_555 1_555
H5_9 C6_9 1_555 1_555
C2_9 C5_9 1_555 1_555
C3_9 C5_9 1_555 1_555
Zn2_3 N2_10 1_555 1_555
O4 C4_10 1_555 1_555
O2_10 C1_10 1_555 1_555
N4_6 N2_10 1_555 1_555
N2_10 C2_10 1_555 1_555
O3_10 C4_10 1_555 1_555
C1_10 N3_10 1_555 1_555
N3_10 H1_10 1_555 1_555
C2_10 H2_10 1_555 1_555
C3_10 N4_6 1_555 1_555
H3_10 C3_10 1_555 1_555
C4_10 C6_10 1_555 1_555
C5_10 C1_10 1_555 1_555
C6_10 N3_10 1_555 1_555
H4_10 C6_10 1_555 1_555
H5_10 C6_10 1_555 1_555
Zn3 O3_10 1_555 1_555
O4_10 Zn2_3 1_555 1_555
N4_10 Zn2_3 1_555 1_555
C2_10 C5_10 1_555 1_555
C3_10 C5_10 1_555 1_555
O4_3 C4_11 1_555 1_555
O2_11 C1_11 1_555 1_555
N4_4 N2_11 1_555 1_555
N2_11 C2_11 1_555 1_555
O3_11 C4_11 1_555 1_555
C1_11 N3_11 1_555 1_555
N3_11 H1_11 1_555 1_555
C2_11 H2_11 1_555 1_555
C3_11 N4_4 1_555 1_555
H3_11 C3_11 1_555 1_555
C4_11 C6_11 1_555 1_555
C5_11 C1_11 1_555 1_555
C6_11 N3_11 1_555 1_555
H4_11 C6_11 1_555 1_555
H5_11 C6_11 1_555 1_555
C2_11 C5_11 1_555 1_555
C3_11 C5_11 1_555 1_555
O4_11 Zn2_2 1_555 1_555
O4_12 Zn2 1_555 1_555
O4_2 C4_12 1_555 1_555
O2_12 C1_12 1_555 1_555
N4_5 N2_12 1_555 1_555
N2_12 C2_12 1_555 1_555
O3_12 C4_12 1_555 1_555
C1_12 N3_12 1_555 1_555
N3_12 H1_12 1_555 1_555
C2_12 H2_12 1_555 1_555
C3_12 N4_5 1_555 1_555
H3_12 C3_12 1_555 1_555
C4_12 C6_12 1_555 1_555
C5_12 C1_12 1_555 1_555
C6_12 N3_12 1_555 1_555
H4_12 C6_12 1_555 1_555
H5_12 C6_12 1_555 1_555
C2_12 C5_12 1_555 1_555
C3_12 C5_12 1_555 1_555
O4_10 C4_13 1_555 1_555
O2_13 C1_13 1_555 1_555
N2_13 C2_13 1_555 1_555
C1_13 N3_13 1_555 1_555
C2_13 H2_13 1_555 1_555
C4_13 C6_13 1_555 1_555
C5_13 C1_13 1_555 1_555
C6_13 N3_13 1_555 1_555
H4_13 C6_13 1_555 1_555
C2_13 C5_13 1_555 1_555
C3_13 N4_9 1_555 1_555
H3_13 C3_13 1_555 1_555
O2_14 C1_14 1_555 1_555
N2_14 C2_14 1_555 1_555
C1_14 N3_14 1_555 1_555
C2_14 H2_14 1_555 1_555
C4_14 C6_14 1_555 1_555
C5_14 C1_14 1_555 1_555
C6_14 N3_14 1_555 1_555
H4_14 C6_14 1_555 1_555
C2_14 C5_14 1_555 1_555
C3_14 N4_7 1_555 1_555
H3_14 C3_14 1_555 1_555
Zn3 N2_15 1_555 1_555
O2_15 C1_15 1_555 1_555
N2_15 C2_15 1_555 1_555
C1_15 N3_15 1_555 1_555
C2_15 H2_15 1_555 1_555
C4_15 C6_15 1_555 1_555
C5_15 C1_15 1_555 1_555
C6_15 N3_15 1_555 1_555
H4_15 C6_15 1_555 1_555
C2_15 C5_15 1_555 1_555
C3_15 N4_8 1_555 1_555
H3_15 C3_15 1_555 1_555
O2_16 C1_16 1_555 1_555
N4_12 N2_16 1_555 1_555
N2_16 C2_16 1_555 1_555
O5_3 C4_16 1_555 1_555
C1_16 N3_16 1_555 1_555
N3_16 H1_16 1_555 1_555
C2_16 H2_16 1_555 1_555
C3_16 N4_12 1_555 1_555
H3_16 C3_16 1_555 1_555
C4_16 C6_16 1_555 1_555
C5_16 C1_16 1_555 1_555
C6_16 N3_16 1_555 1_555
H4_16 C6_16 1_555 1_555
C2_16 C5_16 1_555 1_555
C3_16 C5_16 1_555 1_555
Zn4_3 N2_17 1_555 1_555
O2_17 C1_17 1_555 1_555
N4_10 N2_17 1_555 1_555
N2_17 C2_17 1_555 1_555
O5_2 C4_17 1_555 1_555
C1_17 N3_17 1_555 1_555
N3_17 H1_17 1_555 1_555
C2_17 H2_17 1_555 1_555
C3_17 N4_10 1_555 1_555
H3_17 C3_17 1_555 1_555
C4_17 C6_17 1_555 1_555
C5_17 C1_17 1_555 1_555
C6_17 N3_17 1_555 1_555
H4_17 C6_17 1_555 1_555
C2_17 C5_17 1_555 1_555
C3_17 C5_17 1_555 1_555
O4_8 C4_18 1_555 1_555
O2_18 C1_18 1_555 1_555
N4_11 N2_18 1_555 1_555
N2_18 C2_18 1_555 1_555
O5 C4_18 1_555 1_555
C1_18 N3_18 1_555 1_555
N3_18 H1_18 1_555 1_555
C2_18 H2_18 1_555 1_555
C3_18 N4_11 1_555 1_555
H3_18 C3_18 1_555 1_555
C4_18 C6_18 1_555 1_555
C5_18 C1_18 1_555 1_555
C6_18 N3_18 1_555 1_555
H4_18 C6_18 1_555 1_555
H5_16 C6_18 1_555 1_555
C2_18 C5_18 1_555 1_555
C3_18 C5_18 1_555 1_555

#END
