
###############################################################################
#
# This file contains modified crystal structure data generated from the
# MOF subset of the Cambridge Structural Database (CSD) v543 
# hosted by the Cambridge Crystallographic Data Centre (CCDC).
#
# This work is licensed under the Creative Commons
# Attribution-NonCommercial-ShareAlike 4.0 International License.
# To view a copy of this license, visit
# http://creativecommons.org/licenses/by-nc-sa/4.0/
# or send a letter to
# Creative Commons, PO Box 1866, Mountain View, CA 94042, USA.
#
# CIF created using the CSD Python API on 29 September 2022
# The structure has been converted into the P1 space group
# The structure has a 3D framework
# The original CSD entry VUWWOC is in the rhombohedral crystal system
# The framework has been calculated to contain at least 10.0% void space
# The void calculation uses a probe of radius 1.32A, grid spacing 0.4
#
###############################################################################

data_VUWWOC
_chemical_formula_moiety         '(C108 H90 N54 O51 Zn11)n'
_symmetry_cell_setting           triclinic
_symmetry_space_group_name_H-M   'P 1'
_symmetry_Int_Tables_number      1
_space_group_name_Hall           'P 1'
loop_
_symmetry_equiv_pos_site_id
_symmetry_equiv_pos_as_xyz
1 x,y,z
_cell_length_a                   27.4717(8)
_cell_length_b                   27.4717(8)
_cell_length_c                   10.1111(2)
_cell_angle_alpha                90
_cell_angle_beta                 90
_cell_angle_gamma                120
_cell_volume                     6608.46
loop_
_atom_site_label
_atom_site_type_symbol
_atom_site_fract_x
_atom_site_fract_y
_atom_site_fract_z
Zn1 Zn 0.67210(3) 0.64660(3) 0.73769(9)
N1 N 0.6439(2) 0.5960(3) 0.5855(6)
O1 O 0.4013(2) 0.3257(2) 0.3803(5)
C1 C 0.6138(3) 0.5398(3) 0.5920(7)
H1 H 0.6057 0.5179 0.6702
O2 O 0.4194(2) 0.3837(3) 0.5531(5)
C2 C 0.6184(3) 0.5658(3) 0.3831(7)
H2 H 0.6144 0.5652 0.2897
N2 N 0.6464(2) 0.6123(4) 0.4562(5)
C3 C 0.4333(3) 0.3580(3) 0.4703(6)
O3 O 0.5534(3) 0.4468(3) 0.3025(6)
C4 C 0.5961(3) 0.5185(3) 0.4635(7)
C5 C 0.4916(3) 0.3645(3) 0.4831(7)
H3 H 0.5018 0.3537 0.3986
H4 H 0.4908 0.3387 0.5527
C6 C 0.5601(3) 0.4606(3) 0.4212(7)
N3 N 0.5340(3) 0.4218(2) 0.5163(6)
H5 H 0.5426 0.4313 0.5997
Zn2 Zn 0.35340(3) 0.32790(3) 0.23769(9)
Zn3 Zn 0.33877(3) 0.35883(4) 0.57102(9)
Zn4 Zn 0.68673(3) 0.69217(4) 0.40436(9)
O4 O 0.6743(2) 0.5987(2) 0.8803(5)
O5 O 0.7527(2) 0.7024(4) 0.7198(5)
N4 N 0.6326(4) 0.6869(2) 0.7895(5)
Zn1_2 Zn 0.35340(3) 0.02550(4) 0.73769(9)
N1_2 N 0.4040(3) 0.0479(4) 0.5855(6)
O1_2 O 0.6743(2) 0.0756(3) 0.3803(5)
C1_2 C 0.4602(3) 0.0740(4) 0.5920(7)
H1_2 H 0.4821 0.0878 0.6702
O2_2 O 0.6163(3) 0.0357(4) 0.5531(5)
C2_2 C 0.4342(3) 0.0526(4) 0.3831(7)
H2_2 H 0.4348 0.0492 0.2897
N2_2 N 0.3877(4) 0.0341(4) 0.4562(5)
C3_2 C 0.6420(3) 0.0753(4) 0.4703(6)
O3_2 O 0.5532(3) 0.1066(4) 0.3025(6)
C4_2 C 0.4815(3) 0.0776(4) 0.4635(7)
C5_2 C 0.6355(3) 0.1271(4) 0.4831(7)
H3_2 H 0.6463 0.1481 0.3986
H4_2 H 0.6613 0.1521 0.5527
C6_2 C 0.5394(3) 0.0995(4) 0.4212(7)
N3_2 N 0.5782(2) 0.1122(4) 0.5163(6)
H5_2 H 0.5687 0.1113 0.5997
Zn2_2 Zn 0.67210(3) 0.02550(4) 0.23769(9)
O4_2 O 0.4013(2) 0.0756(3) 0.8803(5)
O5_2 O 0.2976(4) 0.0504(4) 0.7198(5)
Zn3_2 Zn 0.64117(4) 0.97993(5) 0.57102(9)
Zn4_2 Zn 0.30783(4) 0.99457(5) 0.40436(9)
N4_2 N 0.3131(2) 0.9456(4) 0.7895(5)
Zn3_3 Zn 0.02007(5) 0.66123(3) 0.57102(9)
Zn4_3 Zn 0.00543(5) 0.31327(3) 0.40436(9)
N4_3 N 0.0544(4) 0.3674(4) 0.7895(5)
Zn1_3 Zn 0.97450(4) 0.32790(3) 0.73769(9)
N1_3 N 0.9521(4) 0.3561(2) 0.5855(6)
O1_3 O 0.9244(3) 0.5987(2) 0.3803(5)
C1_3 C 0.9260(4) 0.3862(3) 0.5920(7)
H1_3 H 0.9122 0.3943 0.6702
O2_3 O 0.9643(4) 0.5806(2) 0.5531(5)
C2_3 C 0.9474(4) 0.3816(3) 0.3831(7)
H2_3 H 0.9508 0.3856 0.2897
N2_3 N 0.9659(4) 0.3536(2) 0.4562(5)
C3_3 C 0.9247(4) 0.5667(3) 0.4703(6)
O3_3 O 0.8934(4) 0.4466(3) 0.3025(6)
C4_3 C 0.9224(4) 0.4039(3) 0.4635(7)
C5_3 C 0.8729(4) 0.5084(3) 0.4831(7)
H3_3 H 0.8519 0.4982 0.3986
H4_3 H 0.8479 0.5092 0.5527
C6_3 C 0.9005(4) 0.4399(3) 0.4212(7)
N3_3 N 0.8878(4) 0.4660(3) 0.5163(6)
H5_3 H 0.8887 0.4574 0.5997
Zn2_3 Zn 0.97450(4) 0.64660(3) 0.23769(9)
O4_3 O 0.9244(3) 0.3257(2) 0.8803(5)
O5_3 O 0.9496(4) 0.2473(2) 0.7198(5)
Zn3_4 Zn 0.02007(5) 0.35883(4) 0.07102(9)
N4_4 N 0.0544(4) 0.6869(2) 0.2895(5)
Zn4_4 Zn 0.00543(5) 0.69217(4) 0.90436(9)
N1_4 N 0.9521(4) 0.5960(3) 0.0855(6)
C1_4 C 0.9260(4) 0.5398(3) 0.0920(7)
H1_4 H 0.9122 0.5179 0.1702
O2_4 O 0.9643(4) 0.3837(3) 0.0531(5)
H4_4 H 0.8479 0.3387 0.0527
N3_4 N 0.8878(4) 0.4218(2) 0.0163(6)
H5_4 H 0.8887 0.4313 0.0997
O5_4 O 0.9496(4) 0.7024(4) 0.2198(5)
C2_4 C 0.9474(4) 0.5658(3) 0.8831(7)
H2_4 H 0.9508 0.5652 0.7897
N2_4 N 0.9659(4) 0.6123(4) 0.9562(5)
C3_4 C 0.9247(4) 0.3580(3) 0.9703(6)
O3_4 O 0.8934(4) 0.4468(3) 0.8025(6)
C4_4 C 0.9224(4) 0.5185(3) 0.9635(7)
C5_4 C 0.8729(4) 0.3645(3) 0.9831(7)
H3_4 H 0.8519 0.3537 0.8986
C6_4 C 0.9005(4) 0.4606(3) 0.9212(7)
N1_5 N 0.6439(2) 0.0479(4) 0.0855(6)
C1_5 C 0.6138(3) 0.0740(4) 0.0920(7)
H1_5 H 0.6057 0.0878 0.1702
O2_5 O 0.4194(2) 0.0357(4) 0.0531(5)
H4_5 H 0.4908 0.1521 0.0527
N3_5 N 0.5340(3) 0.1122(4) 0.0163(6)
H5_5 H 0.5426 0.1113 0.0997
O5_5 O 0.7527(2) 0.0504(4) 0.2198(5)
C2_5 C 0.6184(3) 0.0526(4) 0.8831(7)
H2_5 H 0.6144 0.0492 0.7897
N2_5 N 0.6464(2) 0.0341(4) 0.9562(5)
C3_5 C 0.4333(3) 0.0753(4) 0.9703(6)
O3_5 O 0.5534(3) 0.1066(4) 0.8025(6)
C4_5 C 0.5961(3) 0.0776(4) 0.9635(7)
C5_5 C 0.4916(3) 0.1271(4) 0.9831(7)
H3_5 H 0.5018 0.1481 0.8986
C6_5 C 0.5601(3) 0.0995(4) 0.9212(7)
Zn3_5 Zn 0.33877(3) 0.97993(5) 0.07102(9)
N4_5 N 0.6326(4) 0.9456(4) 0.2895(5)
Zn4_5 Zn 0.68673(3) 0.99457(5) 0.90436(9)
N1_6 N 0.4040(3) 0.3561(2) 0.0855(6)
C1_6 C 0.4602(3) 0.3862(3) 0.0920(7)
H1_6 H 0.4821 0.3943 0.1702
O2_6 O 0.6163(3) 0.5806(2) 0.0531(5)
H4_6 H 0.6613 0.5092 0.0527
N3_6 N 0.5782(2) 0.4660(3) 0.0163(6)
H5_6 H 0.5687 0.4574 0.0997
Zn3_6 Zn 0.64117(4) 0.66123(3) 0.07102(9)
O5_6 O 0.2976(4) 0.2473(2) 0.2198(5)
N4_6 N 0.3131(2) 0.3674(4) 0.2895(5)
C2_6 C 0.4342(3) 0.3816(3) 0.8831(7)
H2_6 H 0.4348 0.3856 0.7897
N2_6 N 0.3877(4) 0.3536(2) 0.9562(5)
C3_6 C 0.6420(3) 0.5667(3) 0.9703(6)
O3_6 O 0.5532(3) 0.4466(3) 0.8025(6)
C4_6 C 0.4815(3) 0.4039(3) 0.9635(7)
C5_6 C 0.6355(3) 0.5084(3) 0.9831(7)
H3_6 H 0.6463 0.4982 0.8986
C6_6 C 0.5394(3) 0.4399(3) 0.9212(7)
Zn4_6 Zn 0.30783(4) 0.31327(3) 0.90436(9)
N4_7 N 0.2992(4) 0.0203(2) 0.1229(5)
H1_7 H 0.2724 0.8512 0.0035
O4_4 O 0.3410(2) 0.9320(2) 0.2136(5)
N1_7 N 0.3106(2) 0.9293(3) 0.9188(6)
O1_4 O 0.0680(2) 0.6590(2) 0.7136(5)
C1_7 C 0.2805(3) 0.8731(3) 0.9253(7)
O2_7 O 0.0861(2) 0.7170(3) 0.8864(5)
C2_7 C 0.2851(3) 0.8991(3) 0.7164(7)
H2_7 H 0.2811 0.8985 0.6230
C3_7 C 0.1000(3) 0.6913(3) 0.8036(6)
O3_7 O 0.2201(3) 0.7801(3) 0.6358(6)
C4_7 C 0.2628(3) 0.8518(3) 0.7968(7)
C5_7 C 0.1583(3) 0.6978(3) 0.8164(7)
H3_7 H 0.1685 0.6870 0.7319
H4_7 H 0.1575 0.6720 0.8860
C6_7 C 0.2268(3) 0.7939(3) 0.7545(7)
N3_7 N 0.2007(3) 0.7551(2) 0.8496(6)
H5_7 H 0.2093 0.7646 0.9330
H1_8 H 0.1488 0.4211 0.0035
O4_5 O 0.0680(2) 0.4089(3) 0.2136(5)
N1_8 N 0.0707(3) 0.3812(4) 0.9188(6)
O1_5 O 0.3410(2) 0.4089(3) 0.7136(5)
C1_8 C 0.1269(3) 0.4073(4) 0.9253(7)
O2_8 O 0.2830(3) 0.3690(4) 0.8864(5)
C2_8 C 0.1009(3) 0.3859(4) 0.7164(7)
H2_8 H 0.1015 0.3825 0.6230
C3_8 C 0.3087(3) 0.4086(4) 0.8036(6)
O3_8 O 0.2199(3) 0.4399(4) 0.6358(6)
C4_8 C 0.1482(3) 0.4109(4) 0.7968(7)
C5_8 C 0.3022(3) 0.4604(4) 0.8164(7)
H3_8 H 0.3130 0.4814 0.7319
H4_8 H 0.3280 0.4854 0.8860
C6_8 C 0.2061(3) 0.4328(4) 0.7545(7)
N3_8 N 0.2449(2) 0.4455(4) 0.8496(6)
H5_8 H 0.2354 0.4446 0.9330
N4_8 N 0.9797(2) 0.2790(4) 0.1229(5)
H1_9 H 0.5789 0.7276 0.0035
O4_6 O 0.5911(3) 0.6590(2) 0.2136(5)
N4_9 N 0.7210(4) 0.7008(4) 0.1229(5)
N1_9 N 0.6188(4) 0.6894(2) 0.9188(6)
O1_6 O 0.5911(3) 0.9320(2) 0.7136(5)
C1_9 C 0.5927(4) 0.7195(3) 0.9253(7)
O2_9 O 0.6310(4) 0.9139(2) 0.8864(5)
C2_9 C 0.6141(4) 0.7149(3) 0.7164(7)
H2_9 H 0.6175 0.7189 0.6230
C3_9 C 0.5914(4) 0.9000(3) 0.8036(6)
O3_9 O 0.5601(4) 0.7799(3) 0.6358(6)
C4_9 C 0.5891(4) 0.7372(3) 0.7968(7)
C5_9 C 0.5396(4) 0.8417(3) 0.8164(7)
H3_9 H 0.5186 0.8315 0.7319
H4_9 H 0.5146 0.8425 0.8860
C6_9 C 0.5672(4) 0.7732(3) 0.7545(7)
N3_9 N 0.5545(4) 0.7993(3) 0.8496(6)
H5_9 H 0.5554 0.7907 0.9330
N4_10 N 0.7210(4) 0.0203(2) 0.6229(5)
N1_10 N 0.6188(4) 0.9293(3) 0.4188(6)
C1_10 C 0.5927(4) 0.8731(3) 0.4253(7)
H1_10 H 0.5789 0.8512 0.5035
O2_10 O 0.6310(4) 0.7170(3) 0.3864(5)
C2_10 C 0.6141(4) 0.8991(3) 0.2164(7)
H2_10 H 0.6175 0.8985 0.1230
C3_10 C 0.5914(4) 0.6913(3) 0.3036(6)
O3_10 O 0.5601(4) 0.7801(3) 0.1358(6)
C4_10 C 0.5891(4) 0.8518(3) 0.2968(7)
C5_10 C 0.5396(4) 0.6978(3) 0.3164(7)
H3_10 H 0.5186 0.6870 0.2319
H4_10 H 0.5146 0.6720 0.3860
C6_10 C 0.5672(4) 0.7939(3) 0.2545(7)
N3_10 N 0.5545(4) 0.7551(2) 0.3496(6)
H5_10 H 0.5554 0.7646 0.4330
N1_11 N 0.3106(2) 0.3812(4) 0.4188(6)
C1_11 C 0.2805(3) 0.4073(4) 0.4253(7)
H1_11 H 0.2724 0.4211 0.5035
O2_11 O 0.0861(2) 0.3690(4) 0.3864(5)
C2_11 C 0.2851(3) 0.3859(4) 0.2164(7)
H2_11 H 0.2811 0.3825 0.1230
C3_11 C 0.1000(3) 0.4086(4) 0.3036(6)
O3_11 O 0.2201(3) 0.4399(4) 0.1358(6)
C4_11 C 0.2628(3) 0.4109(4) 0.2968(7)
C5_11 C 0.1583(3) 0.4604(4) 0.3164(7)
H3_11 H 0.1685 0.4814 0.2319
H4_11 H 0.1575 0.4854 0.3860
C6_11 C 0.2268(3) 0.4328(4) 0.2545(7)
N3_11 N 0.2007(3) 0.4455(4) 0.3496(6)
H5_11 H 0.2093 0.4446 0.4330
N4_11 N 0.2992(4) 0.2790(4) 0.6229(5)
N1_12 N 0.0707(3) 0.6894(2) 0.4188(6)
C1_12 C 0.1269(3) 0.7195(3) 0.4253(7)
H1_12 H 0.1488 0.7276 0.5035
O2_12 O 0.2830(3) 0.9139(2) 0.3864(5)
C2_12 C 0.1009(3) 0.7149(3) 0.2164(7)
H2_12 H 0.1015 0.7189 0.1230
C3_12 C 0.3087(3) 0.9000(3) 0.3036(6)
O3_12 O 0.2199(3) 0.7799(3) 0.1358(6)
C4_12 C 0.1482(3) 0.7372(3) 0.2968(7)
C5_12 C 0.3022(3) 0.8417(3) 0.3164(7)
H3_12 H 0.3130 0.8315 0.2319
H4_12 H 0.3280 0.8425 0.3860
C6_12 C 0.2061(3) 0.7732(3) 0.2545(7)
N3_12 N 0.2449(2) 0.7993(3) 0.3496(6)
H5_12 H 0.2354 0.7907 0.4330
N4_12 N 0.9797(2) 0.7008(4) 0.6229(5)
O4_7 O 0.0076(2) 0.2654(2) 0.5470(5)
N1_13 N 0.9772(2) 0.2627(3) 0.2522(6)
C1_13 C 0.9471(3) 0.2065(3) 0.2587(7)
H1_13 H 0.9390 0.1846 0.3369
C2_13 C 0.9517(3) 0.2325(3) 0.0498(7)
C3_13 C 0.7666(3) 0.0247(3) 0.1370(6)
C4_13 C 0.9294(3) 0.1852(3) 0.1302(7)
C5_13 C 0.8249(3) 0.0312(3) 0.1498(7)
H3_13 H 0.8351 0.0204 0.0653
H4_13 H 0.8241 0.0054 0.2194
C6_13 C 0.8934(3) 0.1273(3) 0.0879(7)
N3_13 N 0.8673(3) 0.0885(2) 0.1830(6)
H5_13 H 0.8759 0.0980 0.2664
N1_14 N 0.7373(3) 0.7146(4) 0.2522(6)
C1_14 C 0.7935(3) 0.7407(4) 0.2587(7)
H1_14 H 0.8154 0.7545 0.3369
C2_14 C 0.7675(3) 0.7193(4) 0.0498(7)
C3_14 C 0.9753(3) 0.7420(4) 0.1370(6)
C4_14 C 0.8148(3) 0.7443(4) 0.1302(7)
C5_14 C 0.9688(3) 0.7938(4) 0.1498(7)
H3_14 H 0.9796 0.8148 0.0653
H4_14 H 0.9946 0.8188 0.2194
C6_14 C 0.8727(3) 0.7662(4) 0.0879(7)
N3_14 N 0.9115(2) 0.7789(4) 0.1830(6)
H5_14 H 0.9020 0.7780 0.2664
O4_8 O 0.7346(2) 0.7423(3) 0.5470(5)
N1_15 N 0.2854(4) 0.0228(2) 0.2522(6)
O1_7 O 0.2577(3) 0.2654(2) 0.0470(5)
C1_15 C 0.2593(4) 0.0529(3) 0.2587(7)
H1_15 H 0.2455 0.0610 0.3369
C2_15 C 0.2807(4) 0.0483(3) 0.0498(7)
C3_15 C 0.2580(4) 0.2334(3) 0.1370(6)
C4_15 C 0.2557(4) 0.0706(3) 0.1302(7)
C5_15 C 0.2062(4) 0.1751(3) 0.1498(7)
H3_15 H 0.1852 0.1649 0.0653
H4_15 H 0.1812 0.1759 0.2194
C6_15 C 0.2338(4) 0.1066(3) 0.0879(7)
N3_15 N 0.2211(4) 0.1327(3) 0.1830(6)
H5_15 H 0.2220 0.1241 0.2664
H2_13 H 0.2841 0.0523 0.9564
O3_13 O 0.2267(4) 0.1133(3) 0.9692(6)
O4_9 O 0.2577(3) 0.9924(2) 0.5470(5)
N1_16 N 0.2854(4) 0.2627(3) 0.7522(6)
C1_16 C 0.2593(4) 0.2065(3) 0.7587(7)
H1_16 H 0.2455 0.1846 0.8369
C2_16 C 0.2807(4) 0.2325(3) 0.5498(7)
H2_14 H 0.2841 0.2319 0.4564
C3_16 C 0.2580(4) 0.0247(3) 0.6370(6)
O3_14 O 0.2267(4) 0.1135(3) 0.4692(6)
C4_16 C 0.2557(4) 0.1852(3) 0.6302(7)
C5_16 C 0.2062(4) 0.0312(3) 0.6498(7)
H3_16 H 0.1852 0.0204 0.5653
H4_16 H 0.1812 0.0054 0.7194
C6_16 C 0.2338(4) 0.1273(3) 0.5879(7)
N3_16 N 0.2211(4) 0.0885(2) 0.6830(6)
H5_16 H 0.2220 0.0980 0.7664
N1_17 N 0.9772(2) 0.7146(4) 0.7522(6)
C1_17 C 0.9471(3) 0.7407(4) 0.7587(7)
H1_17 H 0.9390 0.7545 0.8369
C2_17 C 0.9517(3) 0.7193(4) 0.5498(7)
H2_15 H 0.9477 0.7159 0.4564
C3_17 C 0.7666(3) 0.7420(4) 0.6370(6)
O3_15 O 0.8867(3) 0.7733(4) 0.4692(6)
C4_17 C 0.9294(3) 0.7443(4) 0.6302(7)
C5_17 C 0.8249(3) 0.7938(4) 0.6498(7)
H3_17 H 0.8351 0.8148 0.5653
H4_17 H 0.8241 0.8188 0.7194
C6_17 C 0.8934(3) 0.7662(4) 0.5879(7)
N3_17 N 0.8673(3) 0.7789(4) 0.6830(6)
H5_17 H 0.8759 0.7780 0.7664
N1_18 N 0.7373(3) 0.0228(2) 0.7522(6)
C1_18 C 0.7935(3) 0.0529(3) 0.7587(7)
H1_18 H 0.8154 0.0610 0.8369
C2_18 C 0.7675(3) 0.0483(3) 0.5498(7)
H2_16 H 0.7681 0.0523 0.4564
C3_18 C 0.9753(3) 0.2334(3) 0.6370(6)
O3_16 O 0.8865(3) 0.1133(3) 0.4692(6)
C4_18 C 0.8148(3) 0.0706(3) 0.6302(7)
C5_18 C 0.9688(3) 0.1751(3) 0.6498(7)
H3_18 H 0.9796 0.1649 0.5653
H4_18 H 0.9946 0.1759 0.7194
C6_18 C 0.8727(3) 0.1066(3) 0.5879(7)
N3_18 N 0.9115(2) 0.1327(3) 0.6830(6)
H5_18 H 0.9020 0.1241 0.7664
H2_17 H 0.9477 0.2319 0.9564
O3_17 O 0.8867(3) 0.1135(3) 0.9692(6)
O1_8 O 0.7346(2) 0.9924(2) 0.0470(5)
O1_9 O 0.0076(2) 0.7423(3) 0.0470(5)
H2_18 H 0.7681 0.7159 0.9564
O3_18 O 0.8865(3) 0.7733(4) 0.9692(6)
loop_
_geom_bond_atom_site_label_1
_geom_bond_atom_site_label_2
_geom_bond_site_symmetry_1
_geom_bond_site_symmetry_2
Zn1 N1 1_555 1_555
N1 C1 1_555 1_555
O1 C3 1_555 1_555
C1 H1 1_555 1_555
O2 C3 1_555 1_555
C2 H2 1_555 1_555
N2 N1 1_555 1_555
C3 C5 1_555 1_555
O3 C6 1_555 1_555
C4 C1 1_555 1_555
C5 H3 1_555 1_555
H4 C5 1_555 1_555
C6 C4 1_555 1_555
N3 C5 1_555 1_555
H5 N3 1_555 1_555
Zn2 O1 1_555 1_555
Zn3 O2 1_555 1_555
Zn4 N2 1_555 1_555
O4 Zn1 1_555 1_555
O5 Zn1 1_555 1_555
N4 Zn1 1_555 1_555
C2 N2 1_555 1_555
C2 C4 1_555 1_555
C6 N3 1_555 1_555
Zn1_2 N1_2 1_555 1_555
N1_2 C1_2 1_555 1_555
O1_2 C3_2 1_555 1_555
C1_2 H1_2 1_555 1_555
O2_2 C3_2 1_555 1_555
C2_2 H2_2 1_555 1_555
N2_2 N1_2 1_555 1_555
C3_2 C5_2 1_555 1_555
O3_2 C6_2 1_555 1_555
C4_2 C1_2 1_555 1_555
C5_2 H3_2 1_555 1_555
H4_2 C5_2 1_555 1_555
C6_2 C4_2 1_555 1_555
N3_2 C5_2 1_555 1_555
H5_2 N3_2 1_555 1_555
Zn2_2 O1_2 1_555 1_555
O4_2 Zn1_2 1_555 1_555
O5_2 Zn1_2 1_555 1_555
C2_2 N2_2 1_555 1_555
C2_2 C4_2 1_555 1_555
C6_2 N3_2 1_555 1_555
Zn1_3 N1_3 1_555 1_555
N1_3 C1_3 1_555 1_555
O1_3 C3_3 1_555 1_555
C1_3 H1_3 1_555 1_555
O2_3 C3_3 1_555 1_555
C2_3 H2_3 1_555 1_555
N2_3 N1_3 1_555 1_555
C3_3 C5_3 1_555 1_555
O3_3 C6_3 1_555 1_555
C4_3 C1_3 1_555 1_555
C5_3 H3_3 1_555 1_555
H4_3 C5_3 1_555 1_555
C6_3 C4_3 1_555 1_555
N3_3 C5_3 1_555 1_555
H5_3 N3_3 1_555 1_555
Zn2_3 O1_3 1_555 1_555
O4_3 Zn1_3 1_555 1_555
O5_3 Zn1_3 1_555 1_555
C2_3 N2_3 1_555 1_555
C2_3 C4_3 1_555 1_555
C6_3 N3_3 1_555 1_555
Zn2_3 N1_4 1_555 1_555
N1_4 C1_4 1_555 1_555
C1_4 H1_4 1_555 1_555
H5_4 N3_4 1_555 1_555
O5_4 Zn2_3 1_555 1_555
O4_3 C3_4 1_555 1_555
C2_4 H2_4 1_555 1_555
C3_4 C5_4 1_555 1_555
O3_4 C6_4 1_555 1_555
C5_4 H3_4 1_555 1_555
C6_4 C4_4 1_555 1_555
C2_4 N2_4 1_555 1_555
C2_4 C4_4 1_555 1_555
Zn2_2 N1_5 1_555 1_555
N1_5 C1_5 1_555 1_555
C1_5 H1_5 1_555 1_555
H5_5 N3_5 1_555 1_555
O5_5 Zn2_2 1_555 1_555
O4_2 C3_5 1_555 1_555
C2_5 H2_5 1_555 1_555
C3_5 C5_5 1_555 1_555
O3_5 C6_5 1_555 1_555
C5_5 H3_5 1_555 1_555
C6_5 C4_5 1_555 1_555
C2_5 N2_5 1_555 1_555
C2_5 C4_5 1_555 1_555
Zn2 N1_6 1_555 1_555
N1_6 C1_6 1_555 1_555
C1_6 H1_6 1_555 1_555
H5_6 N3_6 1_555 1_555
Zn3_6 O2_6 1_555 1_555
O5_6 Zn2 1_555 1_555
N4_6 Zn2 1_555 1_555
O4 C3_6 1_555 1_555
C2_6 H2_6 1_555 1_555
C3_6 C5_6 1_555 1_555
O3_6 C6_6 1_555 1_555
C5_6 H3_6 1_555 1_555
C6_6 C4_6 1_555 1_555
Zn4_6 N2_6 1_555 1_555
C2_6 N2_6 1_555 1_555
C2_6 C4_6 1_555 1_555
O4_4 Zn3_5 1_555 1_555
N1_7 C1_7 1_555 1_555
O1_4 C3_7 1_555 1_555
O2_7 C3_7 1_555 1_555
C2_7 H2_7 1_555 1_555
N4_2 N1_7 1_555 1_555
C3_7 C5_7 1_555 1_555
O3_7 C6_7 1_555 1_555
C4_7 C1_7 1_555 1_555
C5_7 H3_7 1_555 1_555
H4_7 C5_7 1_555 1_555
C6_7 C4_7 1_555 1_555
N3_7 C5_7 1_555 1_555
H5_7 N3_7 1_555 1_555
Zn3_3 O1_4 1_555 1_555
Zn4_4 O2_7 1_555 1_555
C2_7 N4_2 1_555 1_555
C2_7 C4_7 1_555 1_555
C6_7 N3_7 1_555 1_555
O4_5 Zn3_4 1_555 1_555
N1_8 C1_8 1_555 1_555
O1_5 C3_8 1_555 1_555
O2_8 C3_8 1_555 1_555
C2_8 H2_8 1_555 1_555
N4_3 N1_8 1_555 1_555
C3_8 C5_8 1_555 1_555
O3_8 C6_8 1_555 1_555
C4_8 C1_8 1_555 1_555
C5_8 H3_8 1_555 1_555
H4_8 C5_8 1_555 1_555
C6_8 C4_8 1_555 1_555
N3_8 C5_8 1_555 1_555
H5_8 N3_8 1_555 1_555
Zn3 O1_5 1_555 1_555
Zn4_6 O2_8 1_555 1_555
C2_8 N4_3 1_555 1_555
C2_8 C4_8 1_555 1_555
C6_8 N3_8 1_555 1_555
O4_6 Zn3_6 1_555 1_555
N4_9 Zn3_6 1_555 1_555
N1_9 C1_9 1_555 1_555
O1_6 C3_9 1_555 1_555
O2_9 C3_9 1_555 1_555
C2_9 H2_9 1_555 1_555
N4 N1_9 1_555 1_555
C3_9 C5_9 1_555 1_555
O3_9 C6_9 1_555 1_555
C4_9 C1_9 1_555 1_555
C5_9 H3_9 1_555 1_555
H4_9 C5_9 1_555 1_555
C6_9 C4_9 1_555 1_555
N3_9 C5_9 1_555 1_555
H5_9 N3_9 1_555 1_555
Zn3_2 O1_6 1_555 1_555
Zn4_5 O2_9 1_555 1_555
C2_9 N4 1_555 1_555
C2_9 C4_9 1_555 1_555
C6_9 N3_9 1_555 1_555
Zn3_2 N1_10 1_555 1_555
N1_10 C1_10 1_555 1_555
O4_6 C3_10 1_555 1_555
C1_10 H1_10 1_555 1_555
O2_10 C3_10 1_555 1_555
C2_10 H2_10 1_555 1_555
N4_5 N1_10 1_555 1_555
C3_10 C5_10 1_555 1_555
O3_10 C6_10 1_555 1_555
C4_10 C1_10 1_555 1_555
C5_10 H3_10 1_555 1_555
H4_10 C5_10 1_555 1_555
C6_10 C4_10 1_555 1_555
N3_10 C5_10 1_555 1_555
H5_10 N3_10 1_555 1_555
Zn4 O2_10 1_555 1_555
C2_10 N4_5 1_555 1_555
C2_10 C4_10 1_555 1_555
C6_10 N3_10 1_555 1_555
Zn3 N1_11 1_555 1_555
N1_11 C1_11 1_555 1_555
O4_5 C3_11 1_555 1_555
C1_11 H1_11 1_555 1_555
O2_11 C3_11 1_555 1_555
C2_11 H2_11 1_555 1_555
N4_6 N1_11 1_555 1_555
C3_11 C5_11 1_555 1_555
O3_11 C6_11 1_555 1_555
C4_11 C1_11 1_555 1_555
C5_11 H3_11 1_555 1_555
H4_11 C5_11 1_555 1_555
C6_11 C4_11 1_555 1_555
N3_11 C5_11 1_555 1_555
H5_11 N3_11 1_555 1_555
Zn4_3 O2_11 1_555 1_555
N4_11 Zn3 1_555 1_555
C2_11 N4_6 1_555 1_555
C2_11 C4_11 1_555 1_555
C6_11 N3_11 1_555 1_555
Zn3_3 N1_12 1_555 1_555
N1_12 C1_12 1_555 1_555
O4_4 C3_12 1_555 1_555
C1_12 H1_12 1_555 1_555
O2_12 C3_12 1_555 1_555
C2_12 H2_12 1_555 1_555
N4_4 N1_12 1_555 1_555
C3_12 C5_12 1_555 1_555
O3_12 C6_12 1_555 1_555
C4_12 C1_12 1_555 1_555
C5_12 H3_12 1_555 1_555
H4_12 C5_12 1_555 1_555
C6_12 C4_12 1_555 1_555
N3_12 C5_12 1_555 1_555
H5_12 N3_12 1_555 1_555
Zn4_2 O2_12 1_555 1_555
C2_12 N4_4 1_555 1_555
C2_12 C4_12 1_555 1_555
C6_12 N3_12 1_555 1_555
O4_7 Zn4_3 1_555 1_555
N1_13 C1_13 1_555 1_555
C1_13 H1_13 1_555 1_555
O5_5 C3_13 1_555 1_555
N4_8 N1_13 1_555 1_555
C3_13 C5_13 1_555 1_555
C4_13 C1_13 1_555 1_555
C5_13 H3_13 1_555 1_555
H4_13 C5_13 1_555 1_555
C6_13 C4_13 1_555 1_555
N3_13 C5_13 1_555 1_555
H5_13 N3_13 1_555 1_555
C2_13 N4_8 1_555 1_555
C2_13 C4_13 1_555 1_555
C6_13 N3_13 1_555 1_555
Zn4 N1_14 1_555 1_555
N1_14 C1_14 1_555 1_555
C1_14 H1_14 1_555 1_555
O5_4 C3_14 1_555 1_555
N4_9 N1_14 1_555 1_555
C3_14 C5_14 1_555 1_555
C4_14 C1_14 1_555 1_555
C5_14 H3_14 1_555 1_555
H4_14 C5_14 1_555 1_555
C6_14 C4_14 1_555 1_555
N3_14 C5_14 1_555 1_555
H5_14 N3_14 1_555 1_555
O4_8 Zn4 1_555 1_555
C2_14 N4_9 1_555 1_555
C2_14 C4_14 1_555 1_555
C6_14 N3_14 1_555 1_555
N1_15 C1_15 1_555 1_555
O1_7 C3_15 1_555 1_555
C1_15 H1_15 1_555 1_555
O5_6 C3_15 1_555 1_555
N4_7 N1_15 1_555 1_555
C3_15 C5_15 1_555 1_555
C4_15 C1_15 1_555 1_555
C5_15 H3_15 1_555 1_555
H4_15 C5_15 1_555 1_555
C6_15 C4_15 1_555 1_555
N3_15 C5_15 1_555 1_555
H5_15 N3_15 1_555 1_555
C2_15 N4_7 1_555 1_555
C2_15 C4_15 1_555 1_555
C6_15 N3_15 1_555 1_555
O4_9 Zn4_2 1_555 1_555
Zn4_6 N1_16 1_555 1_555
N1_16 C1_16 1_555 1_555
C1_16 H1_16 1_555 1_555
O5_2 C3_16 1_555 1_555
C2_16 H2_14 1_555 1_555
N4_11 N1_16 1_555 1_555
C3_16 C5_16 1_555 1_555
O3_14 C6_16 1_555 1_555
C4_16 C1_16 1_555 1_555
C5_16 H3_16 1_555 1_555
H4_16 C5_16 1_555 1_555
C6_16 C4_16 1_555 1_555
N3_16 C5_16 1_555 1_555
H5_16 N3_16 1_555 1_555
C2_16 N4_11 1_555 1_555
C2_16 C4_16 1_555 1_555
C6_16 N3_16 1_555 1_555
N1_17 C1_17 1_555 1_555
O4_8 C3_17 1_555 1_555
C1_17 H1_17 1_555 1_555
O5 C3_17 1_555 1_555
C2_17 H2_15 1_555 1_555
N4_12 N1_17 1_555 1_555
C3_17 C5_17 1_555 1_555
O3_15 C6_17 1_555 1_555
C4_17 C1_17 1_555 1_555
C5_17 H3_17 1_555 1_555
H4_17 C5_17 1_555 1_555
C6_17 C4_17 1_555 1_555
N3_17 C5_17 1_555 1_555
H5_17 N3_17 1_555 1_555
C2_17 N4_12 1_555 1_555
C2_17 C4_17 1_555 1_555
C6_17 N3_17 1_555 1_555
N1_18 C1_18 1_555 1_555
C1_18 H1_18 1_555 1_555
O5_3 C3_18 1_555 1_555
C2_18 H2_16 1_555 1_555
N4_10 N1_18 1_555 1_555
C3_18 C5_18 1_555 1_555
O3_16 C6_18 1_555 1_555
C4_18 C1_18 1_555 1_555
C5_18 H3_18 1_555 1_555
H4_18 C5_18 1_555 1_555
C6_18 C4_18 1_555 1_555
N3_18 C5_18 1_555 1_555
H5_18 N3_18 1_555 1_555
C2_18 N4_10 1_555 1_555
C2_18 C4_18 1_555 1_555
C6_18 N3_18 1_555 1_555

#END
