
###############################################################################
#
# This file contains modified crystal structure data generated from the
# MOF subset of the Cambridge Structural Database (CSD) v543 
# hosted by the Cambridge Crystallographic Data Centre (CCDC).
#
# This work is licensed under the Creative Commons
# Attribution-NonCommercial-ShareAlike 4.0 International License.
# To view a copy of this license, visit
# http://creativecommons.org/licenses/by-nc-sa/4.0/
# or send a letter to
# Creative Commons, PO Box 1866, Mountain View, CA 94042, USA.
#
# CIF created using the CSD Python API on 29 September 2022
# The structure has been converted into the P1 space group
# The structure has a 3D framework
# The original CSD entry VUWWES is in the rhombohedral crystal system
# The framework has been calculated to contain at least 10.0% void space
# The void calculation uses a probe of radius 1.32A, grid spacing 0.4
#
###############################################################################

data_VUWWES
_chemical_formula_moiety         '(C108 H90 N54 O47 Zn14)n'
_symmetry_cell_setting           triclinic
_symmetry_space_group_name_H-M   'P 1'
_symmetry_Int_Tables_number      1
_space_group_name_Hall           'P 1'
loop_
_symmetry_equiv_pos_site_id
_symmetry_equiv_pos_as_xyz
1 x,y,z
_cell_length_a                   28.5688(5)
_cell_length_b                   28.5688(5)
_cell_length_c                   10.12978(18)
_cell_angle_alpha                90
_cell_angle_beta                 90
_cell_angle_gamma                120
_cell_volume                     7160.03
loop_
_atom_site_label
_atom_site_type_symbol
_atom_site_fract_x
_atom_site_fract_y
_atom_site_fract_z
N5 N 0.0295(2) 0.2948(4) 0.0071(5)
N4 N 0.0272(5) 0.3856(3) 0.8039(6)
O2 O 0.93145(27) 0.33433(19) 0.0498(4)
O3 O 0.7900(2) 0.2085(2) 0.1254(5)
H3 H 0.8336 0.2999 0.0334
C5 C 0.7225(4) 0.0970(3) 0.0422(7)
H5 H 0.7274 0.0975 0.1350
C6 C 0.7818(3) 0.1973(3) 0.0074(7)
Zn2 Zn 0.98047(4) 0.33772(3) 0.19058(10)
Zn1 Zn 0.99561(3) 0.30941(3) 0.85725(10)
N1 N 0.6918(4) 0.0523(3) 0.9706(6)
O1 O 0.91703(19) 0.2787(2) 0.8794(5)
N2 N 0.6962(2) 0.0681(3) 0.8404(5)
C1 C 0.9018(3) 0.3018(2) 0.9618(7)
C2 C 0.7286(3) 0.1223(4) 0.8357(6)
H1 H 0.7380 0.1436 0.7579
N3 N 0.8061(2) 0.2359(2) 0.9120(6)
H2 H 0.800(4) 0.222(4) 0.830(10)
C3 C 0.8449(3) 0.2914(3) 0.9484(7)
H4 H 0.8442 0.3160 0.8807
C4 C 0.7460(3) 0.1419(3) 0.9628(6)
Zn3 Zn 0.66228(3) 0.01953(4) 0.69058(10)
O4 O 0.99900(19) 0.26379(33) 0.7165(4)
Zn4 Zn 0.64713(4) 0.97608(3) 0.02392(10)
Zn4_2 Zn 0.02392(3) 0.67106(5) 0.02392(10)
O2_2 O 0.66567(19) 0.59712(33) 0.0498(4)
O3_2 O 0.7915(2) 0.5815(3) 0.1254(5)
H3_2 H 0.7001 0.5337 0.0334
C5_2 C 0.9030(3) 0.6255(5) 0.0422(7)
H5_2 H 0.9025 0.6299 0.1350
C6_2 C 0.8027(3) 0.5845(4) 0.0074(7)
Zn2_2 Zn 0.66228(3) 0.64274(5) 0.19058(10)
N5_2 N 0.7052(4) 0.7348(4) 0.0071(5)
Zn1_2 Zn 0.69059(3) 0.68620(4) 0.85725(10)
N1_2 N 0.9477(3) 0.6395(5) 0.9706(6)
O1_2 O 0.7213(2) 0.63833(28) 0.8794(5)
N2_2 N 0.9319(3) 0.6281(4) 0.8404(5)
C1_2 C 0.6982(2) 0.6000(4) 0.9618(7)
C2_2 C 0.8777(4) 0.6063(5) 0.8357(6)
H1_2 H 0.8564 0.5944 0.7579
N3_2 N 0.7641(2) 0.5702(3) 0.9120(6)
H2_2 H 0.778(4) 0.578(6) 0.830(10)
C3_2 C 0.7086(3) 0.5535(4) 0.9484(7)
H4_2 H 0.6840 0.5282 0.8807
C4_2 C 0.8581(3) 0.6041(4) 0.9628(6)
Zn3_2 Zn 0.98047(4) 0.64274(5) 0.69058(10)
N4_2 N 0.6144(3) 0.6415(6) 0.8039(6)
O4_2 O 0.73621(33) 0.73522(38) 0.7165(4)
O2_3 O 0.40288(33) 0.06855(27) 0.0498(4)
O3_3 O 0.4185(3) 0.2100(2) 0.1254(5)
H3_3 H 0.4663 0.1664 0.0334
C5_3 C 0.3745(5) 0.2775(4) 0.0422(7)
H5_3 H 0.3701 0.2726 0.1350
C6_3 C 0.4155(4) 0.2182(3) 0.0074(7)
Zn2_3 Zn 0.35726(5) 0.01953(4) 0.19058(10)
Zn4_3 Zn 0.32894(5) 0.35287(4) 0.02392(10)
Zn1_3 Zn 0.31380(4) 0.00439(3) 0.85725(10)
N1_3 N 0.3605(5) 0.3082(4) 0.9706(6)
O1_3 O 0.36167(28) 0.08297(19) 0.8794(5)
N2_3 N 0.3719(4) 0.3038(2) 0.8404(5)
C1_3 C 0.4000(4) 0.0982(3) 0.9618(7)
C2_3 C 0.3937(5) 0.2714(3) 0.8357(6)
H1_3 H 0.4056 0.2620 0.7579
N3_3 N 0.4298(3) 0.1939(2) 0.9120(6)
H2_3 H 0.422(6) 0.200(4) 0.830(10)
C3_3 C 0.4465(4) 0.1551(3) 0.9484(7)
H4_3 H 0.4718 0.1558 0.8807
C4_3 C 0.3959(4) 0.2540(3) 0.9628(6)
Zn3_3 Zn 0.35726(5) 0.33772(3) 0.69058(10)
O4_3 O 0.26478(38) 0.00100(19) 0.7165(4)
N5_3 N 0.2652(4) 0.9705(2) 0.0071(5)
N4_3 N 0.3585(6) 0.9728(5) 0.8039(6)
Zn1_4 Zn 0.31380(4) 0.30941(3) 0.35725(10)
N1_4 N 0.3605(5) 0.0523(3) 0.4706(6)
O1_4 O 0.36167(28) 0.2787(2) 0.3794(5)
N2_4 N 0.3719(4) 0.0681(3) 0.3404(5)
O2_4 O 0.40288(33) 0.33433(19) 0.5498(4)
O3_4 O 0.4185(3) 0.2085(2) 0.6254(5)
C1_4 C 0.4000(4) 0.3018(2) 0.4618(7)
C2_4 C 0.3937(5) 0.1223(4) 0.3357(6)
H1_4 H 0.4056 0.1436 0.2579
N3_4 N 0.4298(3) 0.2359(2) 0.4120(6)
H2_4 H 0.422(6) 0.222(4) 0.330(10)
C3_4 C 0.4465(4) 0.2914(3) 0.4484(7)
H3_4 H 0.4663 0.2999 0.5334
H4_4 H 0.4718 0.3160 0.3807
C4_4 C 0.3959(4) 0.1419(3) 0.4628(6)
C5_4 C 0.3745(5) 0.0970(3) 0.5422(7)
H5_4 H 0.3701 0.0975 0.6350
C6_4 C 0.4155(4) 0.1973(3) 0.5074(7)
N4_4 N 0.3585(6) 0.3856(3) 0.3039(6)
N5_4 N 0.2652(4) 0.2948(4) 0.5071(5)
O4_4 O 0.26478(38) 0.26379(33) 0.2165(4)
Zn4_4 Zn 0.32894(5) 0.97608(3) 0.52392(10)
N4_5 N 0.0272(5) 0.6415(6) 0.3039(6)
N5_5 N 0.0295(2) 0.7348(4) 0.5071(5)
Zn1_5 Zn 0.99561(3) 0.68620(4) 0.35725(10)
N1_5 N 0.6918(4) 0.6395(5) 0.4706(6)
O1_5 O 0.91703(19) 0.63833(28) 0.3794(5)
N2_5 N 0.6962(2) 0.6281(4) 0.3404(5)
O2_5 O 0.93145(27) 0.59712(33) 0.5498(4)
O3_5 O 0.7900(2) 0.5815(3) 0.6254(5)
C1_5 C 0.9018(3) 0.6000(4) 0.4618(7)
C2_5 C 0.7286(3) 0.6063(5) 0.3357(6)
H1_5 H 0.7380 0.5944 0.2579
N3_5 N 0.8061(2) 0.5702(3) 0.4120(6)
H2_5 H 0.800(4) 0.578(6) 0.330(10)
C3_5 C 0.8449(3) 0.5535(4) 0.4484(7)
H3_5 H 0.8336 0.5337 0.5334
H4_5 H 0.8442 0.5282 0.3807
C4_5 C 0.7460(3) 0.6041(4) 0.4628(6)
C5_5 C 0.7225(4) 0.6255(5) 0.5422(7)
H5_5 H 0.7274 0.6299 0.6350
C6_5 C 0.7818(3) 0.5845(4) 0.5074(7)
Zn4_5 Zn 0.64713(4) 0.67106(5) 0.52392(10)
O4_5 O 0.99900(19) 0.73522(38) 0.2165(4)
Zn4_6 Zn 0.02392(3) 0.35287(4) 0.52392(10)
Zn1_6 Zn 0.69059(3) 0.00439(3) 0.35725(10)
N1_6 N 0.9477(3) 0.3082(4) 0.4706(6)
O1_6 O 0.7213(2) 0.08297(19) 0.3794(5)
N2_6 N 0.9319(3) 0.3038(2) 0.3404(5)
O2_6 O 0.66567(19) 0.06855(27) 0.5498(4)
O3_6 O 0.7915(2) 0.2100(2) 0.6254(5)
C1_6 C 0.6982(2) 0.0982(3) 0.4618(7)
C2_6 C 0.8777(4) 0.2714(3) 0.3357(6)
H1_6 H 0.8564 0.2620 0.2579
N3_6 N 0.7641(2) 0.1939(2) 0.4120(6)
H2_6 H 0.778(4) 0.200(4) 0.330(10)
C3_6 C 0.7086(3) 0.1551(3) 0.4484(7)
H3_6 H 0.7001 0.1664 0.5334
H4_6 H 0.6840 0.1558 0.3807
C4_6 C 0.8581(3) 0.2540(3) 0.4628(6)
C5_6 C 0.9030(3) 0.2775(4) 0.5422(7)
H5_6 H 0.9025 0.2726 0.6350
C6_6 C 0.8027(3) 0.2182(3) 0.5074(7)
O4_6 O 0.73621(33) 0.00100(19) 0.2165(4)
N4_6 N 0.6144(3) 0.9728(5) 0.3039(6)
N5_6 N 0.7052(4) 0.9705(2) 0.5071(5)
O1_7 O 0.58370(19) 0.6120(2) 0.2127(5)
N2_7 N 0.3629(2) 0.4014(3) 0.1737(5)
O2_7 O 0.59812(27) 0.66766(19) 0.3831(4)
O3_7 O 0.4567(2) 0.5418(2) 0.4587(5)
C1_7 C 0.5685(3) 0.6351(2) 0.2951(7)
C2_7 C 0.3953(3) 0.4556(4) 0.1690(6)
H1_7 H 0.4047 0.4769 0.0912
N3_7 N 0.4728(2) 0.5692(2) 0.2453(6)
H2_7 H 0.467(4) 0.555(4) 0.163(10)
C3_7 C 0.5116(3) 0.6247(3) 0.2817(7)
H3_7 H 0.5003 0.6332 0.3667
H4_7 H 0.5109 0.6493 0.2140
C4_7 C 0.4127(3) 0.4752(3) 0.2961(6)
C5_7 C 0.3892(4) 0.4303(3) 0.3755(7)
H5_7 H 0.3941 0.4308 0.4683
C6_7 C 0.4485(3) 0.5306(3) 0.3407(7)
N4_7 N 0.6938(5) 0.7190(3) 0.1373(6)
O1_8 O 0.3880(2) 0.97166(28) 0.2127(5)
N2_8 N 0.5986(3) 0.9614(4) 0.1737(5)
O2_8 O 0.33234(19) 0.93045(33) 0.3831(4)
O3_8 O 0.4582(2) 0.9148(3) 0.4587(5)
C1_8 C 0.3649(2) 0.9333(4) 0.2951(7)
C2_8 C 0.5444(4) 0.9396(5) 0.1690(6)
H1_8 H 0.5231 0.9277 0.0912
N3_8 N 0.4308(2) 0.9035(3) 0.2453(6)
H2_8 H 0.445(4) 0.911(6) 0.163(10)
C3_8 C 0.3753(3) 0.8868(4) 0.2817(7)
H3_8 H 0.3668 0.8670 0.3667
H4_8 H 0.3507 0.8615 0.2140
C4_8 C 0.5248(3) 0.9374(4) 0.2961(6)
C5_8 C 0.5697(3) 0.9588(5) 0.3755(7)
H5_8 H 0.5692 0.9632 0.4683
C6_8 C 0.4694(3) 0.9178(4) 0.3407(7)
N4_8 N 0.2810(3) 0.9749(6) 0.1373(6)
O1_9 O 0.02834(28) 0.41630(19) 0.2127(5)
N2_9 N 0.0386(4) 0.6371(2) 0.1737(5)
O2_9 O 0.06955(33) 0.40188(27) 0.3831(4)
O3_9 O 0.0852(3) 0.5433(2) 0.4587(5)
C1_9 C 0.0667(4) 0.4315(3) 0.2951(7)
C2_9 C 0.0604(5) 0.6047(3) 0.1690(6)
H1_9 H 0.0723 0.5953 0.0912
N3_9 N 0.0965(3) 0.5272(2) 0.2453(6)
H2_9 H 0.089(6) 0.533(4) 0.163(10)
C3_9 C 0.1132(4) 0.4884(3) 0.2817(7)
H3_9 H 0.1330 0.4997 0.3667
H4_9 H 0.1385 0.4891 0.2140
C4_9 C 0.0626(4) 0.5873(3) 0.2961(6)
C5_9 C 0.0412(5) 0.6108(4) 0.3755(7)
H5_9 H 0.0368 0.6059 0.4683
C6_9 C 0.0822(4) 0.5515(3) 0.3407(7)
N4_9 N 0.0251(6) 0.3062(5) 0.1373(6)
O1_10 O 0.02834(28) 0.6120(2) 0.7127(5)
N2_10 N 0.0386(4) 0.4014(3) 0.6737(5)
O2_10 O 0.06955(33) 0.66766(19) 0.8831(4)
O3_10 O 0.0852(3) 0.5418(2) 0.9587(5)
C1_10 C 0.0667(4) 0.6351(2) 0.7951(7)
C2_10 C 0.0604(5) 0.4556(4) 0.6690(6)
H1_10 H 0.0723 0.4769 0.5912
N3_10 N 0.0965(3) 0.5692(2) 0.7453(6)
H2_10 H 0.089(6) 0.555(4) 0.663(10)
C3_10 C 0.1132(4) 0.6247(3) 0.7817(7)
H3_10 H 0.1330 0.6332 0.8667
H4_10 H 0.1385 0.6493 0.7140
C4_10 C 0.0626(4) 0.4752(3) 0.7961(6)
C5_10 C 0.0412(5) 0.4303(3) 0.8755(7)
H5_10 H 0.0368 0.4308 0.9683
C6_10 C 0.0822(4) 0.5306(3) 0.8407(7)
N4_10 N 0.0251(6) 0.7190(3) 0.6373(6)
O1_11 O 0.58370(19) 0.97166(28) 0.7127(5)
N2_11 N 0.3629(2) 0.9614(4) 0.6737(5)
O2_11 O 0.59812(27) 0.93045(33) 0.8831(4)
O3_11 O 0.4567(2) 0.9148(3) 0.9587(5)
C1_11 C 0.5685(3) 0.9333(4) 0.7951(7)
C2_11 C 0.3953(3) 0.9396(5) 0.6690(6)
H1_11 H 0.4047 0.9277 0.5912
N3_11 N 0.4728(2) 0.9035(3) 0.7453(6)
H2_11 H 0.467(4) 0.911(6) 0.663(10)
C3_11 C 0.5116(3) 0.8868(4) 0.7817(7)
H3_11 H 0.5003 0.8670 0.8667
H4_11 H 0.5109 0.8615 0.7140
C4_11 C 0.4127(3) 0.9374(4) 0.7961(6)
C5_11 C 0.3892(4) 0.9588(5) 0.8755(7)
H5_11 H 0.3941 0.9632 0.9683
C6_11 C 0.4485(3) 0.9178(4) 0.8407(7)
N4_11 N 0.6938(5) 0.9749(6) 0.6373(6)
O1_12 O 0.3880(2) 0.41630(19) 0.7127(5)
N2_12 N 0.5986(3) 0.6371(2) 0.6737(5)
O2_12 O 0.33234(19) 0.40188(27) 0.8831(4)
O3_12 O 0.4582(2) 0.5433(2) 0.9587(5)
C1_12 C 0.3649(2) 0.4315(3) 0.7951(7)
C2_12 C 0.5444(4) 0.6047(3) 0.6690(6)
H1_12 H 0.5231 0.5953 0.5912
N3_12 N 0.4308(2) 0.5272(2) 0.7453(6)
H2_12 H 0.445(4) 0.533(4) 0.663(10)
C3_12 C 0.3753(3) 0.4884(3) 0.7817(7)
H3_12 H 0.3668 0.4997 0.8667
H4_12 H 0.3507 0.4891 0.7140
C4_12 C 0.5248(3) 0.5873(3) 0.7961(6)
C5_12 C 0.5697(3) 0.6108(4) 0.8755(7)
H5_12 H 0.5692 0.6059 0.9683
C6_12 C 0.4694(3) 0.5515(3) 0.8407(7)
N4_12 N 0.2810(3) 0.3062(5) 0.6373(6)
O1_13 O 0.25036(19) 0.9454(2) 0.5461(5)
O3_13 O 0.1233(2) 0.8752(2) 0.7921(5)
C1_13 C 0.2351(3) 0.9685(2) 0.6285(7)
C2_13 C 0.0619(3) 0.7890(4) 0.5024(6)
H1_13 H 0.0713 0.8103 0.4246
N3_13 N 0.1394(2) 0.9026(2) 0.5787(6)
H2_13 H 0.133(4) 0.889(4) 0.497(10)
C3_13 C 0.1782(3) 0.9581(3) 0.6151(7)
H3_13 H 0.1669 0.9666 0.7001
H4_13 H 0.1775 0.9827 0.5474
C4_13 C 0.0793(3) 0.8086(3) 0.6295(6)
C5_13 C 0.0558(4) 0.7637(3) 0.7089(7)
H5_13 H 0.0607 0.7642 0.8017
C6_13 C 0.1151(3) 0.8640(3) 0.6741(7)
O1_14 O 0.0546(2) 0.30500(28) 0.5461(5)
O3_14 O 0.1248(2) 0.2482(3) 0.7921(5)
C1_14 C 0.0315(2) 0.2667(4) 0.6285(7)
C2_14 C 0.2110(4) 0.2730(5) 0.5024(6)
H1_14 H 0.1897 0.2611 0.4246
N3_14 N 0.0974(2) 0.2369(3) 0.5787(6)
H2_14 H 0.111(4) 0.245(6) 0.497(10)
C3_14 C 0.0419(3) 0.2202(4) 0.6151(7)
H3_14 H 0.0334 0.2004 0.7001
H4_14 H 0.0173 0.1949 0.5474
C4_14 C 0.1914(3) 0.2708(4) 0.6295(6)
C5_14 C 0.2363(3) 0.2922(5) 0.7089(7)
H5_14 H 0.2358 0.2966 0.8017
C6_14 C 0.1360(3) 0.2512(4) 0.6741(7)
O1_15 O 0.69500(28) 0.74964(19) 0.5461(5)
O3_15 O 0.7518(3) 0.8767(2) 0.7921(5)
C1_15 C 0.7333(4) 0.7649(3) 0.6285(7)
C2_15 C 0.7270(5) 0.9381(3) 0.5024(6)
H1_15 H 0.7389 0.9287 0.4246
N3_15 N 0.7631(3) 0.8606(2) 0.5787(6)
H2_15 H 0.755(6) 0.867(4) 0.497(10)
C3_15 C 0.7798(4) 0.8218(3) 0.6151(7)
H3_15 H 0.7996 0.8331 0.7001
H4_15 H 0.8051 0.8225 0.5474
C4_15 C 0.7292(4) 0.9207(3) 0.6295(6)
C5_15 C 0.7078(5) 0.9442(4) 0.7089(7)
H5_15 H 0.7034 0.9393 0.8017
C6_15 C 0.7488(4) 0.8849(3) 0.6741(7)
O1_16 O 0.69500(28) 0.9454(2) 0.0461(5)
O3_16 O 0.7518(3) 0.8752(2) 0.2921(5)
C1_16 C 0.7333(4) 0.9685(2) 0.1285(7)
C2_16 C 0.7270(5) 0.7890(4) 0.0024(6)
N3_16 N 0.7631(3) 0.9026(2) 0.0787(6)
C3_16 C 0.7798(4) 0.9581(3) 0.1151(7)
H3_16 H 0.7996 0.9666 0.2001
H4_16 H 0.8051 0.9827 0.0474
C4_16 C 0.7292(4) 0.8086(3) 0.1295(6)
C5_16 C 0.7078(5) 0.7637(3) 0.2089(7)
H5_16 H 0.7034 0.7642 0.3017
C6_16 C 0.7488(4) 0.8640(3) 0.1741(7)
H1_16 H 0.7389 0.8103 0.9246
H2_16 H 0.755(6) 0.889(4) 0.997(10)
O1_17 O 0.25036(19) 0.30500(28) 0.0461(5)
O3_17 O 0.1233(2) 0.2482(3) 0.2921(5)
C1_17 C 0.2351(3) 0.2667(4) 0.1285(7)
C2_17 C 0.0619(3) 0.2730(5) 0.0024(6)
N3_17 N 0.1394(2) 0.2369(3) 0.0787(6)
C3_17 C 0.1782(3) 0.2202(4) 0.1151(7)
H3_17 H 0.1669 0.2004 0.2001
H4_17 H 0.1775 0.1949 0.0474
C4_17 C 0.0793(3) 0.2708(4) 0.1295(6)
C5_17 C 0.0558(4) 0.2922(5) 0.2089(7)
H5_17 H 0.0607 0.2966 0.3017
C6_17 C 0.1151(3) 0.2512(4) 0.1741(7)
H1_17 H 0.0713 0.2611 0.9246
H2_17 H 0.133(4) 0.245(6) 0.997(10)
O1_18 O 0.0546(2) 0.74964(19) 0.0461(5)
O3_18 O 0.1248(2) 0.8767(2) 0.2921(5)
C1_18 C 0.0315(2) 0.7649(3) 0.1285(7)
C2_18 C 0.2110(4) 0.9381(3) 0.0024(6)
N3_18 N 0.0974(2) 0.8606(2) 0.0787(6)
C3_18 C 0.0419(3) 0.8218(3) 0.1151(7)
H3_18 H 0.0334 0.8331 0.2001
H4_18 H 0.0173 0.8225 0.0474
C4_18 C 0.1914(3) 0.9207(3) 0.1295(6)
C5_18 C 0.2363(3) 0.9442(4) 0.2089(7)
H5_18 H 0.2358 0.9393 0.3017
C6_18 C 0.1360(3) 0.8849(3) 0.1741(7)
H1_18 H 0.1897 0.9287 0.9246
H2_18 H 0.111(4) 0.867(4) 0.997(10)
loop_
_geom_bond_atom_site_label_1
_geom_bond_atom_site_label_2
_geom_bond_site_symmetry_1
_geom_bond_site_symmetry_2
O3 C6 1_555 1_555
H5 C5 1_555 1_555
Zn2 O2 1_555 1_555
Zn1 O1 1_555 1_555
N1 N2 1_555 1_555
O1 C1 1_555 1_555
N2 C2 1_555 1_555
C1 C3 1_555 1_555
C2 H1 1_555 1_555
N3 H2 1_555 1_555
C3 N3 1_555 1_555
H4 C3 1_555 1_555
C4 C2 1_555 1_555
Zn3 N2 1_555 1_555
O4 Zn1 1_555 1_555
O3_2 C6_2 1_555 1_555
H5_2 C5_2 1_555 1_555
Zn2_2 O2_2 1_555 1_555
Zn1_2 O1_2 1_555 1_555
N1_2 N2_2 1_555 1_555
O1_2 C1_2 1_555 1_555
N2_2 C2_2 1_555 1_555
C1_2 C3_2 1_555 1_555
C2_2 H1_2 1_555 1_555
N3_2 H2_2 1_555 1_555
C3_2 N3_2 1_555 1_555
H4_2 C3_2 1_555 1_555
C4_2 C2_2 1_555 1_555
Zn3_2 N2_2 1_555 1_555
N4_2 Zn1_2 1_555 1_555
O4_2 Zn1_2 1_555 1_555
O3_3 C6_3 1_555 1_555
H5_3 C5_3 1_555 1_555
Zn2_3 O2_3 1_555 1_555
Zn1_3 O1_3 1_555 1_555
N1_3 N2_3 1_555 1_555
O1_3 C1_3 1_555 1_555
N2_3 C2_3 1_555 1_555
C1_3 C3_3 1_555 1_555
C2_3 H1_3 1_555 1_555
N3_3 H2_3 1_555 1_555
C3_3 N3_3 1_555 1_555
H4_3 C3_3 1_555 1_555
C4_3 C2_3 1_555 1_555
Zn3_3 N2_3 1_555 1_555
O4_3 Zn1_3 1_555 1_555
Zn1_4 O1_4 1_555 1_555
N1_4 N2_4 1_555 1_555
O1_4 C1_4 1_555 1_555
N2_4 C2_4 1_555 1_555
O2_4 C1_4 1_555 1_555
O3_4 C6_4 1_555 1_555
C1_4 C3_4 1_555 1_555
C2_4 H1_4 1_555 1_555
N3_4 H2_4 1_555 1_555
C3_4 N3_4 1_555 1_555
H3_4 C3_4 1_555 1_555
H4_4 C3_4 1_555 1_555
C4_4 C2_4 1_555 1_555
C5_4 N1_4 1_555 1_555
H5_4 C5_4 1_555 1_555
C6_4 N3_4 1_555 1_555
Zn3_3 O2_4 1_555 1_555
Zn2_3 N2_4 1_555 1_555
N4_4 Zn1_4 1_555 1_555
N5_4 Zn1_4 1_555 1_555
O4_4 Zn1_4 1_555 1_555
C4_4 C5_4 1_555 1_555
C4_4 C6_4 1_555 1_555
Zn1_5 O1_5 1_555 1_555
N1_5 N2_5 1_555 1_555
O1_5 C1_5 1_555 1_555
N2_5 C2_5 1_555 1_555
O2_5 C1_5 1_555 1_555
O3_5 C6_5 1_555 1_555
C1_5 C3_5 1_555 1_555
C2_5 H1_5 1_555 1_555
N3_5 H2_5 1_555 1_555
C3_5 N3_5 1_555 1_555
H3_5 C3_5 1_555 1_555
H4_5 C3_5 1_555 1_555
C4_5 C2_5 1_555 1_555
C5_5 N1_5 1_555 1_555
H5_5 C5_5 1_555 1_555
C6_5 N3_5 1_555 1_555
Zn3_2 O2_5 1_555 1_555
Zn2_2 N2_5 1_555 1_555
Zn4_5 N1_5 1_555 1_555
O4_5 Zn1_5 1_555 1_555
C4_5 C5_5 1_555 1_555
C4_5 C6_5 1_555 1_555
Zn1_6 O1_6 1_555 1_555
N1_6 N2_6 1_555 1_555
O1_6 C1_6 1_555 1_555
N2_6 C2_6 1_555 1_555
O2_6 C1_6 1_555 1_555
O3_6 C6_6 1_555 1_555
C1_6 C3_6 1_555 1_555
C2_6 H1_6 1_555 1_555
N3_6 H2_6 1_555 1_555
C3_6 N3_6 1_555 1_555
H3_6 C3_6 1_555 1_555
H4_6 C3_6 1_555 1_555
C4_6 C2_6 1_555 1_555
C5_6 N1_6 1_555 1_555
H5_6 C5_6 1_555 1_555
C6_6 N3_6 1_555 1_555
Zn3 O2_6 1_555 1_555
Zn2 N2_6 1_555 1_555
O4_6 Zn1_6 1_555 1_555
C4_6 C5_6 1_555 1_555
C4_6 C6_6 1_555 1_555
Zn2_2 O1_7 1_555 1_555
N4_4 N2_7 1_555 1_555
O1_7 C1_7 1_555 1_555
N2_7 C2_7 1_555 1_555
O2_7 C1_7 1_555 1_555
O3_7 C6_7 1_555 1_555
C1_7 C3_7 1_555 1_555
C2_7 H1_7 1_555 1_555
N3_7 H2_7 1_555 1_555
C3_7 N3_7 1_555 1_555
H3_7 C3_7 1_555 1_555
H4_7 C3_7 1_555 1_555
C4_7 C2_7 1_555 1_555
C5_7 N4_4 1_555 1_555
H5_7 C5_7 1_555 1_555
C6_7 N3_7 1_555 1_555
Zn4_5 O2_7 1_555 1_555
Zn4_3 N2_7 1_555 1_555
N4_7 Zn2_2 1_555 1_555
C4_7 C5_7 1_555 1_555
C4_7 C6_7 1_555 1_555
N4_6 N2_8 1_555 1_555
O1_8 C1_8 1_555 1_555
N2_8 C2_8 1_555 1_555
O2_8 C1_8 1_555 1_555
O3_8 C6_8 1_555 1_555
C1_8 C3_8 1_555 1_555
C2_8 H1_8 1_555 1_555
N3_8 H2_8 1_555 1_555
C3_8 N3_8 1_555 1_555
H3_8 C3_8 1_555 1_555
H4_8 C3_8 1_555 1_555
C4_8 C2_8 1_555 1_555
C5_8 N4_6 1_555 1_555
H5_8 C5_8 1_555 1_555
C6_8 N3_8 1_555 1_555
Zn4_4 O2_8 1_555 1_555
Zn4 N2_8 1_555 1_555
C4_8 C5_8 1_555 1_555
C4_8 C6_8 1_555 1_555
N4_5 N2_9 1_555 1_555
O1_9 C1_9 1_555 1_555
N2_9 C2_9 1_555 1_555
O2_9 C1_9 1_555 1_555
O3_9 C6_9 1_555 1_555
C1_9 C3_9 1_555 1_555
C2_9 H1_9 1_555 1_555
N3_9 H2_9 1_555 1_555
C3_9 N3_9 1_555 1_555
H3_9 C3_9 1_555 1_555
H4_9 C3_9 1_555 1_555
C4_9 C2_9 1_555 1_555
C5_9 N4_5 1_555 1_555
H5_9 C5_9 1_555 1_555
C6_9 N3_9 1_555 1_555
Zn4_6 O2_9 1_555 1_555
Zn4_2 N2_9 1_555 1_555
C4_9 C5_9 1_555 1_555
C4_9 C6_9 1_555 1_555
N4 N2_10 1_555 1_555
O1_10 C1_10 1_555 1_555
N2_10 C2_10 1_555 1_555
O2_10 C1_10 1_555 1_555
O3_10 C6_10 1_555 1_555
C1_10 C3_10 1_555 1_555
C2_10 H1_10 1_555 1_555
N3_10 H2_10 1_555 1_555
C3_10 N3_10 1_555 1_555
H3_10 C3_10 1_555 1_555
H4_10 C3_10 1_555 1_555
C4_10 C2_10 1_555 1_555
C5_10 N4 1_555 1_555
H5_10 C5_10 1_555 1_555
C6_10 N3_10 1_555 1_555
Zn4_6 N2_10 1_555 1_555
C4_10 C5_10 1_555 1_555
C4_10 C6_10 1_555 1_555
N4_3 N2_11 1_555 1_555
O1_11 C1_11 1_555 1_555
N2_11 C2_11 1_555 1_555
O2_11 C1_11 1_555 1_555
O3_11 C6_11 1_555 1_555
C1_11 C3_11 1_555 1_555
C2_11 H1_11 1_555 1_555
N3_11 H2_11 1_555 1_555
C3_11 N3_11 1_555 1_555
H3_11 C3_11 1_555 1_555
H4_11 C3_11 1_555 1_555
C4_11 C2_11 1_555 1_555
C5_11 N4_3 1_555 1_555
H5_11 C5_11 1_555 1_555
C6_11 N3_11 1_555 1_555
Zn4_4 N2_11 1_555 1_555
C4_11 C5_11 1_555 1_555
C4_11 C6_11 1_555 1_555
Zn3_3 O1_12 1_555 1_555
N4_2 N2_12 1_555 1_555
O1_12 C1_12 1_555 1_555
N2_12 C2_12 1_555 1_555
O2_12 C1_12 1_555 1_555
O3_12 C6_12 1_555 1_555
C1_12 C3_12 1_555 1_555
C2_12 H1_12 1_555 1_555
N3_12 H2_12 1_555 1_555
C3_12 N3_12 1_555 1_555
H3_12 C3_12 1_555 1_555
H4_12 C3_12 1_555 1_555
C4_12 C2_12 1_555 1_555
C5_12 N4_2 1_555 1_555
H5_12 C5_12 1_555 1_555
C6_12 N3_12 1_555 1_555
Zn4_5 N2_12 1_555 1_555
N4_12 Zn3_3 1_555 1_555
C4_12 C5_12 1_555 1_555
C4_12 C6_12 1_555 1_555
Zn4_4 O1_13 1_555 1_555
N4_10 N5_5 1_555 1_555
O1_13 C1_13 1_555 1_555
N5_5 C2_13 1_555 1_555
O3_13 C6_13 1_555 1_555
C1_13 C3_13 1_555 1_555
C2_13 H1_13 1_555 1_555
N3_13 H2_13 1_555 1_555
C3_13 N3_13 1_555 1_555
H3_13 C3_13 1_555 1_555
H4_13 C3_13 1_555 1_555
C4_13 C2_13 1_555 1_555
C5_13 N4_10 1_555 1_555
H5_13 C5_13 1_555 1_555
C6_13 N3_13 1_555 1_555
C4_13 C5_13 1_555 1_555
C4_13 C6_13 1_555 1_555
Zn4_6 O1_14 1_555 1_555
N4_12 N5_4 1_555 1_555
O1_14 C1_14 1_555 1_555
N5_4 C2_14 1_555 1_555
O3_14 C6_14 1_555 1_555
C1_14 C3_14 1_555 1_555
C2_14 H1_14 1_555 1_555
N3_14 H2_14 1_555 1_555
C3_14 N3_14 1_555 1_555
H3_14 C3_14 1_555 1_555
H4_14 C3_14 1_555 1_555
C4_14 C2_14 1_555 1_555
C5_14 N4_12 1_555 1_555
H5_14 C5_14 1_555 1_555
C6_14 N3_14 1_555 1_555
C4_14 C5_14 1_555 1_555
C4_14 C6_14 1_555 1_555
Zn4_5 O1_15 1_555 1_555
N4_11 N5_6 1_555 1_555
O1_15 C1_15 1_555 1_555
N5_6 C2_15 1_555 1_555
O4_2 C1_15 1_555 1_555
O3_15 C6_15 1_555 1_555
C1_15 C3_15 1_555 1_555
C2_15 H1_15 1_555 1_555
N3_15 H2_15 1_555 1_555
C3_15 N3_15 1_555 1_555
H3_15 C3_15 1_555 1_555
H4_15 C3_15 1_555 1_555
C4_15 C2_15 1_555 1_555
C5_15 N4_11 1_555 1_555
H5_15 C5_15 1_555 1_555
C6_15 N3_15 1_555 1_555
C4_15 C5_15 1_555 1_555
C4_15 C6_15 1_555 1_555
Zn4 O1_16 1_555 1_555
N4_7 N5_2 1_555 1_555
O1_16 C1_16 1_555 1_555
N5_2 C2_16 1_555 1_555
O3_16 C6_16 1_555 1_555
C1_16 C3_16 1_555 1_555
C3_16 N3_16 1_555 1_555
H3_16 C3_16 1_555 1_555
H4_16 C3_16 1_555 1_555
C4_16 C2_16 1_555 1_555
C5_16 N4_7 1_555 1_555
H5_16 C5_16 1_555 1_555
C6_16 N3_16 1_555 1_555
C4_16 C5_16 1_555 1_555
C4_16 C6_16 1_555 1_555
Zn4_3 O1_17 1_555 1_555
N4_9 N5 1_555 1_555
O1_17 C1_17 1_555 1_555
N5 C2_17 1_555 1_555
O4_4 C1_17 1_555 1_555
O3_17 C6_17 1_555 1_555
C1_17 C3_17 1_555 1_555
C3_17 N3_17 1_555 1_555
H3_17 C3_17 1_555 1_555
H4_17 C3_17 1_555 1_555
C4_17 C2_17 1_555 1_555
C5_17 N4_9 1_555 1_555
H5_17 C5_17 1_555 1_555
C6_17 N3_17 1_555 1_555
C4_17 C5_17 1_555 1_555
C4_17 C6_17 1_555 1_555
Zn4_2 O1_18 1_555 1_555
N4_8 N5_3 1_555 1_555
O1_18 C1_18 1_555 1_555
N5_3 C2_18 1_555 1_555
O3_18 C6_18 1_555 1_555
C1_18 C3_18 1_555 1_555
C3_18 N3_18 1_555 1_555
H3_18 C3_18 1_555 1_555
H4_18 C3_18 1_555 1_555
C4_18 C2_18 1_555 1_555
C5_18 N4_8 1_555 1_555
H5_18 C5_18 1_555 1_555
C6_18 N3_18 1_555 1_555
C4_18 C5_18 1_555 1_555
C4_18 C6_18 1_555 1_555

#END
