
###############################################################################
#
# This file contains modified crystal structure data generated from the
# MOF subset of the Cambridge Structural Database (CSD) v543 
# hosted by the Cambridge Crystallographic Data Centre (CCDC).
#
# This work is licensed under the Creative Commons
# Attribution-NonCommercial-ShareAlike 4.0 International License.
# To view a copy of this license, visit
# http://creativecommons.org/licenses/by-nc-sa/4.0/
# or send a letter to
# Creative Commons, PO Box 1866, Mountain View, CA 94042, USA.
#
# CIF created using the CSD Python API on 29 September 2022
# The structure has been converted into the P1 space group
# The structure has a 3D framework
# The original CSD entry VUWXUJ03 is in the rhombohedral crystal system
# The original CSD entry VUWXUJ03 is in a Sohncke space group
# The framework has been calculated to contain at least 10.0% void space
# The void calculation uses a probe of radius 1.32A, grid spacing 0.4
#
###############################################################################

data_VUWXUJ03
_chemical_formula_moiety         '(C126 H126 N54 O54 Zn14)n'
_symmetry_cell_setting           triclinic
_symmetry_space_group_name_H-M   'P 1'
_symmetry_Int_Tables_number      1
_space_group_name_Hall           'P 1'
loop_
_symmetry_equiv_pos_site_id
_symmetry_equiv_pos_as_xyz
1 x,y,z
_cell_length_a                   28.3671(9)
_cell_length_b                   28.3671(9)
_cell_length_c                   10.1749(4)
_cell_angle_alpha                90
_cell_angle_beta                 90
_cell_angle_gamma                120
_cell_volume                     7090.73
loop_
_atom_site_label
_atom_site_type_symbol
_atom_site_fract_x
_atom_site_fract_y
_atom_site_fract_z
Zn4 Zn 0.01957(7) 0.66194(5) 0.54243(10)
Zn5 Zn 0.00473(5) 0.69096(5) 0.87576(10)
Zn1 Zn 0.66991(5) 0.64565(5) 0.70848(10)
Zn2 Zn 0.33806(5) 0.35763(5) 0.54243(10)
O1 O 0.7483(3) 0.6958(3) 0.6875(8)
O2 O 0.4169(3) 0.3869(3) 0.5251(8)
O3 O 0.4037(3) 0.3347(3) 0.3499(7)
O4 O 0.7402(3) 0.7371(3) 0.5106(7)
O5 O 0.8715(4) 0.7494(4) 0.4471(8)
O6 O 0.5450(4) 0.4544(3) 0.2745(8)
N1 N 0.6379(4) 0.5976(4) 0.5561(8)
N2 N 0.8609(4) 0.7644(4) 0.6601(9)
H1 H 0.8710 0.7642 0.7418
N3 N 0.5273(4) 0.4294(4) 0.4882(9)
H2 H 0.5346 0.4389 0.5713
N4 N 0.6436(4) 0.6137(4) 0.4267(9)
N5 N 0.9737(4) 0.6934(4) 0.5966(9)
N6 N 0.9712(4) 0.7062(4) 0.7246(9)
C1 C 0.9197(5) 0.7288(5) 0.6067(10)
C2 C 0.8823(5) 0.7479(5) 0.5657(11)
C3 C 0.4898(5) 0.3738(5) 0.4559(11)
H3 H 0.5012 0.3640 0.3721
C4 C 0.5895(5) 0.5247(5) 0.4360(10)
C5 C 0.8219(5) 0.7824(5) 0.6357(11)
H4 H 0.8177 0.7963 0.7226
C6 C 0.6145(5) 0.5693(5) 0.3552(11)
H5 H 0.6114 0.5685 0.2621
C7 C 0.9439(5) 0.7071(5) 0.5269(11)
H6 H 0.9393 0.7029 0.4343
C8 C 0.4326(4) 0.3653(4) 0.4406(10)
C9 C 0.7662(4) 0.7346(4) 0.6064(10)
C10 C 0.6056(5) 0.5440(4) 0.5608(10)
H7 H 0.5953 0.5225 0.6384
C11 C 0.5518(5) 0.4675(5) 0.3933(11)
C12 C 0.9381(5) 0.7272(5) 0.7299(11)
H8 H 0.9289 0.7393 0.8078
C13 C 0.4877(6) 0.3363(5) 0.5660(14)
H9 H 0.5241 0.3413 0.5798
H10 H 0.4625 0.2983 0.5417
H11 H 0.4751 0.3450 0.6472
C14 C 0.8429(7) 0.8307(8) 0.546(2)
H12 H 0.8770 0.8604 0.5811
H13 H 0.8159 0.8425 0.5393
H14 H 0.8495 0.8206 0.4585
Zn3 Zn 0.68768(5) 0.69093(7) 0.37515(10)
Zn6 Zn 0.35290(7) 0.32861(5) 0.20910(10)
O7 O 0.3320(3) 0.4023(4) 0.6832(7)
O8 O 0.6636(4) 0.5931(3) 0.8439(7)
N7 N 0.6368(6) 0.6897(4) 0.7600(9)
N8 N 0.3066(4) 0.2803(6) 0.5966(9)
N9 N 0.3045(4) 0.3729(4) 0.3913(9)
Zn1_2 Zn 0.35435(5) 0.02426(7) 0.70848(10)
O1_2 O 0.3042(3) 0.0525(4) 0.6875(8)
O2_2 O 0.6131(3) 0.0300(4) 0.5251(8)
O3_2 O 0.6653(3) 0.0690(4) 0.3499(7)
O4_2 O 0.2629(3) 0.0031(4) 0.5106(7)
O5_2 O 0.2506(4) 0.1221(6) 0.4471(8)
O6_2 O 0.5456(3) 0.0906(5) 0.2745(8)
N1_2 N 0.4024(4) 0.0403(6) 0.5561(8)
N2_2 N 0.2356(4) 0.0965(6) 0.6601(9)
H1_2 H 0.2358 0.1068 0.7418
N3_2 N 0.5706(4) 0.0979(6) 0.4882(9)
H2_2 H 0.5611 0.0957 0.5713
N4_2 N 0.3863(4) 0.0299(6) 0.4267(9)
N6_2 N 0.2938(4) 0.2650(6) 0.7246(9)
C1_2 C 0.2712(5) 0.1909(7) 0.6067(10)
C2_2 C 0.2521(5) 0.1344(7) 0.5657(11)
C3_2 C 0.6262(5) 0.1160(7) 0.4559(11)
H3_2 H 0.6360 0.1372 0.3721
C4_2 C 0.4753(5) 0.0648(7) 0.4360(10)
C5_2 C 0.2176(5) 0.0395(7) 0.6357(11)
H4_2 H 0.2037 0.0214 0.7226
C6_2 C 0.4307(5) 0.0452(7) 0.3552(11)
H5_2 H 0.4315 0.0429 0.2621
C7_2 C 0.2929(5) 0.2368(7) 0.5269(11)
H6_2 H 0.2971 0.2364 0.4343
C8_2 C 0.6347(4) 0.0673(6) 0.4406(10)
C9_2 C 0.2654(4) 0.0316(6) 0.6064(10)
C10_2 C 0.4560(4) 0.0616(6) 0.5608(10)
H7_2 H 0.4775 0.0728 0.6384
C11_2 C 0.5325(5) 0.0843(7) 0.3933(11)
C12_2 C 0.2728(5) 0.2109(7) 0.7299(11)
H8_2 H 0.2607 0.1896 0.8078
C13_2 C 0.6637(5) 0.1514(8) 0.5660(14)
H9_2 H 0.6587 0.1828 0.5798
H10_2 H 0.7017 0.1642 0.5417
H11_2 H 0.6550 0.1301 0.6472
C14_2 C 0.1693(8) 0.0122(11) 0.546(2)
H12_2 H 0.1396 0.0166 0.5811
H14_2 H 0.1794 0.0289 0.4585
Zn5_2 Zn 0.30904(5) 0.31376(7) 0.87576(10)
Zn6_2 Zn 0.67139(5) 0.02430(9) 0.20910(10)
O8_2 O 0.4069(3) 0.0704(5) 0.8439(7)
N8_2 N 0.7197(6) 0.0263(7) 0.5966(9)
Zn2_2 Zn 0.64237(5) 0.98043(7) 0.54243(10)
H13_2 H 0.1575 0.9734 0.5393
Zn3_2 Zn 0.30907(7) 0.99676(9) 0.37515(10)
O7_2 O 0.5977(4) 0.9296(5) 0.6832(7)
N7_2 N 0.3103(4) 0.9470(7) 0.7600(9)
N9_2 N 0.6271(4) 0.9317(6) 0.3913(9)
H13_3 H 0.0266 0.1841 0.5393
Zn3_3 Zn 0.00324(9) 0.31232(5) 0.37515(10)
O7_3 O 0.0704(5) 0.6680(3) 0.6832(7)
N7_3 N 0.0530(7) 0.3632(6) 0.7600(9)
N9_3 N 0.0683(6) 0.6955(4) 0.3913(9)
Zn1_3 Zn 0.97574(7) 0.33009(5) 0.70848(10)
O1_3 O 0.9475(4) 0.2517(3) 0.6875(8)
O2_3 O 0.9700(4) 0.5831(3) 0.5251(8)
O3_3 O 0.9310(4) 0.5963(3) 0.3499(7)
O4_3 O 0.9969(4) 0.2598(3) 0.5106(7)
O5_3 O 0.8779(6) 0.1285(4) 0.4471(8)
O6_3 O 0.9094(5) 0.4550(4) 0.2745(8)
N1_3 N 0.9597(6) 0.3621(4) 0.5561(8)
N2_3 N 0.9035(6) 0.1391(4) 0.6601(9)
H1_3 H 0.8932 0.1290 0.7418
N3_3 N 0.9021(6) 0.4727(4) 0.4882(9)
H2_3 H 0.9043 0.4654 0.5713
N4_3 N 0.9701(6) 0.3564(4) 0.4267(9)
N6_3 N 0.7350(6) 0.0288(4) 0.7246(9)
C1_3 C 0.8091(7) 0.0803(5) 0.6067(10)
C2_3 C 0.8656(7) 0.1177(5) 0.5657(11)
C3_3 C 0.8840(7) 0.5102(5) 0.4559(11)
H3_3 H 0.8628 0.4988 0.3721
C4_3 C 0.9352(7) 0.4105(5) 0.4360(10)
C5_3 C 0.9605(7) 0.1781(5) 0.6357(11)
H4_3 H 0.9786 0.1823 0.7226
C6_3 C 0.9548(7) 0.3855(5) 0.3552(11)
H5_3 H 0.9571 0.3886 0.2621
C7_3 C 0.7632(7) 0.0561(5) 0.5269(11)
H6_3 H 0.7636 0.0607 0.4343
C8_3 C 0.9327(6) 0.5674(4) 0.4406(10)
C9_3 C 0.9684(6) 0.2338(4) 0.6064(10)
C10_3 C 0.9384(6) 0.3944(5) 0.5608(10)
H7_3 H 0.9272 0.4047 0.6384
C11_3 C 0.9157(7) 0.4482(5) 0.3933(11)
C12_3 C 0.7891(7) 0.0619(5) 0.7299(11)
H8_3 H 0.8104 0.0711 0.8078
C13_3 C 0.8486(8) 0.5123(6) 0.5660(14)
H9_3 H 0.8172 0.4759 0.5798
H10_3 H 0.8358 0.5375 0.5417
H11_3 H 0.8699 0.5249 0.6472
C14_3 C 0.9878(11) 0.1571(7) 0.546(2)
H12_3 H 0.9834 0.1230 0.5811
H14_3 H 0.9711 0.1505 0.4585
Zn6_3 Zn 0.97570(9) 0.64710(7) 0.20910(10)
O8_3 O 0.9296(5) 0.3364(4) 0.8439(7)
Zn5_3 Zn 0.68624(7) 0.99527(5) 0.87576(10)
O1_4 O 0.4150(3) 0.0291(3) 0.0208(8)
H1_4 H 0.5377 0.0975 0.0751
N6_4 N 0.6379(4) 0.0395(4) 0.0579(9)
H4_4 H 0.4844 0.1296 0.0559
C12_4 C 0.6048(5) 0.0605(5) 0.0632(11)
H8_4 H 0.5956 0.0726 0.1411
N7_4 N 0.3034(6) 0.0231(4) 0.0934(9)
O5_4 O 0.5382(4) 0.0827(4) 0.7804(8)
N2_4 N 0.5276(4) 0.0977(4) 0.9934(9)
N5_2 N 0.6404(4) 0.0267(4) 0.9299(9)
C1_4 C 0.5864(5) 0.0621(5) 0.9400(10)
C2_4 C 0.5490(5) 0.0812(5) 0.8990(11)
C5_4 C 0.4886(5) 0.1157(5) 0.9690(11)
C7_4 C 0.6106(5) 0.0404(5) 0.8602(11)
H6_4 H 0.6060 0.0362 0.7676
C9_4 C 0.4329(4) 0.0679(4) 0.9397(10)
C14_4 C 0.5096(7) 0.1640(8) 0.879(2)
H12_4 H 0.5437 0.1937 0.9144
H13_4 H 0.4826 0.1758 0.8726
H14_4 H 0.5162 0.1539 0.7918
Zn1_4 Zn 0.33658(5) 0.97898(5) 0.04181(10)
O8_4 O 0.3302(4) 0.9265(3) 0.1773(7)
O2_4 O 0.0836(3) 0.7202(3) 0.8584(8)
O6_4 O 0.2117(4) 0.7877(3) 0.6078(8)
N1_4 N 0.3046(4) 0.9309(4) 0.8894(8)
N3_4 N 0.1940(4) 0.7627(4) 0.8215(9)
H2_4 H 0.2013 0.7722 0.9046
C3_4 C 0.1565(5) 0.7071(5) 0.7892(11)
H3_4 H 0.1679 0.6973 0.7054
C4_4 C 0.2562(5) 0.8580(5) 0.7693(10)
C6_4 C 0.2812(5) 0.9026(5) 0.6885(11)
H5_4 H 0.2781 0.9018 0.5954
C8_4 C 0.0993(4) 0.6986(4) 0.7739(10)
C10_4 C 0.2723(5) 0.8773(4) 0.8941(10)
H7_4 H 0.2620 0.8558 0.9717
C11_4 C 0.2185(5) 0.8008(5) 0.7266(11)
C13_4 C 0.1544(6) 0.6696(5) 0.8993(14)
H9_4 H 0.1908 0.6746 0.9131
H10_4 H 0.1292 0.6316 0.8750
H11_4 H 0.1418 0.6783 0.9805
O7_4 O 0.9986(3) 0.7357(4) 0.0166(7)
N8_3 N 0.9733(4) 0.6136(6) 0.9299(9)
Zn1_5 Zn 0.02102(5) 0.35759(7) 0.04181(10)
O7_5 O 0.2643(4) 0.2630(5) 0.0166(7)
O8_5 O 0.0735(3) 0.4038(5) 0.1773(7)
O2_5 O 0.2798(3) 0.3633(4) 0.8584(8)
O6_5 O 0.2123(3) 0.4239(5) 0.6078(8)
N1_5 N 0.0691(4) 0.3736(6) 0.8894(8)
N3_5 N 0.2373(4) 0.4312(6) 0.8215(9)
H2_5 H 0.2278 0.4290 0.9046
C3_5 C 0.2929(5) 0.4493(7) 0.7892(11)
H3_5 H 0.3027 0.4705 0.7054
C4_5 C 0.1420(5) 0.3981(7) 0.7693(10)
C6_5 C 0.0974(5) 0.3785(7) 0.6885(11)
H5_5 H 0.0982 0.3762 0.5954
C8_5 C 0.3014(4) 0.4006(6) 0.7739(10)
C10_5 C 0.1227(4) 0.3949(6) 0.8941(10)
H7_5 H 0.1442 0.4061 0.9717
C11_5 C 0.1992(5) 0.4176(7) 0.7266(11)
C13_5 C 0.3304(5) 0.4847(8) 0.8993(14)
H9_5 H 0.3254 0.5161 0.9131
H10_5 H 0.3684 0.4975 0.8750
H11_5 H 0.3217 0.4634 0.9805
N8_4 N 0.3864(6) 0.3596(7) 0.9299(9)
O1_5 O 0.9709(3) 0.3858(4) 0.0208(8)
H1_5 H 0.9025 0.4401 0.0751
N6_5 N 0.9605(4) 0.5983(6) 0.0579(9)
H4_5 H 0.8704 0.3547 0.0559
C12_5 C 0.9395(5) 0.5442(7) 0.0632(11)
H8_5 H 0.9274 0.5229 0.1411
N7_5 N 0.9769(4) 0.2804(7) 0.0934(9)
O5_5 O 0.9173(4) 0.4554(6) 0.7804(8)
N2_5 N 0.9023(4) 0.4298(6) 0.9934(9)
C1_5 C 0.9379(5) 0.5242(7) 0.9400(10)
C2_5 C 0.9188(5) 0.4677(7) 0.8990(11)
C5_5 C 0.8843(5) 0.3728(7) 0.9690(11)
C7_5 C 0.9596(5) 0.5701(7) 0.8602(11)
H6_5 H 0.9638 0.5697 0.7676
C9_5 C 0.9321(4) 0.3649(6) 0.9397(10)
C14_5 C 0.8360(8) 0.3455(11) 0.879(2)
H12_5 H 0.8063 0.3499 0.9144
H13_5 H 0.8242 0.3067 0.8726
H14_5 H 0.8461 0.3622 0.7918
O7_6 O 0.7370(5) 0.0014(3) 0.0166(7)
Zn1_6 Zn 0.64241(7) 0.66342(5) 0.04181(10)
O1_6 O 0.6142(4) 0.5850(3) 0.0208(8)
H1_6 H 0.5599 0.4623 0.0751
N6_6 N 0.4017(6) 0.3621(4) 0.0579(9)
H4_6 H 0.6453 0.5156 0.0559
C12_6 C 0.4558(7) 0.3952(5) 0.0632(11)
H8_6 H 0.4771 0.4044 0.1411
O8_6 O 0.5962(5) 0.6698(4) 0.1773(7)
N7_6 N 0.7196(7) 0.6966(6) 0.0934(9)
O2_6 O 0.6367(4) 0.9164(3) 0.8584(8)
O5_6 O 0.5446(6) 0.4618(4) 0.7804(8)
O6_6 O 0.5761(5) 0.7883(4) 0.6078(8)
N1_6 N 0.6264(6) 0.6954(4) 0.8894(8)
N2_6 N 0.5702(6) 0.4724(4) 0.9934(9)
N3_6 N 0.5688(6) 0.8060(4) 0.8215(9)
H2_6 H 0.5710 0.7987 0.9046
C1_6 C 0.4758(7) 0.4136(5) 0.9400(10)
C2_6 C 0.5323(7) 0.4510(5) 0.8990(11)
C3_6 C 0.5507(7) 0.8435(5) 0.7892(11)
H3_6 H 0.5295 0.8321 0.7054
C4_6 C 0.6019(7) 0.7438(5) 0.7693(10)
C5_6 C 0.6272(7) 0.5114(5) 0.9690(11)
C6_6 C 0.6215(7) 0.7188(5) 0.6885(11)
H5_6 H 0.6238 0.7219 0.5954
C7_6 C 0.4299(7) 0.3894(5) 0.8602(11)
H6_6 H 0.4303 0.3940 0.7676
C8_6 C 0.5994(6) 0.9007(4) 0.7739(10)
C9_6 C 0.6351(6) 0.5671(4) 0.9397(10)
C10_6 C 0.6051(6) 0.7277(5) 0.8941(10)
H7_6 H 0.5939 0.7380 0.9717
C11_6 C 0.5824(7) 0.7815(5) 0.7266(11)
C13_6 C 0.5153(8) 0.8456(6) 0.8993(14)
H9_6 H 0.4839 0.8092 0.9131
H10_6 H 0.5025 0.8708 0.8750
H11_6 H 0.5366 0.8582 0.9805
C14_6 C 0.6545(11) 0.4904(7) 0.879(2)
H12_6 H 0.6501 0.4563 0.9144
H13_6 H 0.6933 0.5174 0.8726
H14_6 H 0.6378 0.4838 0.7918
O1_7 O 0.0816(3) 0.3625(3) 0.3542(8)
O5_7 O 0.2048(4) 0.4161(4) 0.1138(8)
N2_7 N 0.1942(4) 0.4311(4) 0.3268(9)
H1_7 H 0.2043 0.4309 0.4085
N5_3 N 0.3070(4) 0.3601(4) 0.2633(9)
C1_7 C 0.2530(5) 0.3955(5) 0.2734(10)
C2_7 C 0.2156(5) 0.4146(5) 0.2324(11)
C5_7 C 0.1552(5) 0.4491(5) 0.3024(11)
H4_7 H 0.1510 0.4630 0.3893
C7_7 C 0.2772(5) 0.3738(5) 0.1936(11)
H6_7 H 0.2726 0.3696 0.1010
C9_7 C 0.0995(4) 0.4013(4) 0.2731(10)
C12_7 C 0.2714(5) 0.3939(5) 0.3966(11)
H8_7 H 0.2622 0.4060 0.4745
C14_7 C 0.1762(7) 0.4974(8) 0.213(2)
H12_7 H 0.2103 0.5271 0.2478
H13_7 H 0.1492 0.5092 0.2060
H14_7 H 0.1828 0.4873 0.1252
O2_7 O 0.7502(3) 0.0536(3) 0.1918(8)
N1_7 N 0.9712(4) 0.2643(4) 0.2228(8)
N3_7 N 0.8606(4) 0.0961(4) 0.1549(9)
H2_7 H 0.8679 0.1056 0.2380
C3_7 C 0.8231(5) 0.0405(5) 0.1226(11)
H3_7 H 0.8345 0.0307 0.0388
C4_7 C 0.9228(5) 0.1914(5) 0.1027(10)
C6_7 C 0.9478(5) 0.2360(5) 0.0219(11)
C8_7 C 0.7659(4) 0.0320(4) 0.1073(10)
C10_7 C 0.9389(5) 0.2107(4) 0.2275(10)
H7_7 H 0.9286 0.1892 0.3051
C11_7 C 0.8851(5) 0.1342(5) 0.0600(11)
C13_7 C 0.8210(6) 0.0030(5) 0.2327(14)
H9_7 H 0.8574 0.0080 0.2465
H11_7 H 0.8084 0.0117 0.3139
H10_7 H 0.7958 0.9650 0.2084
N8_5 N 0.6399(4) 0.9470(6) 0.2633(9)
H10_8 H 0.0350 0.8309 0.2084
N8_6 N 0.0530(6) 0.6930(7) 0.2633(9)
O1_8 O 0.6375(3) 0.7192(4) 0.3542(8)
O2_8 O 0.9464(3) 0.6967(4) 0.1918(8)
O5_8 O 0.5839(4) 0.7888(6) 0.1138(8)
N1_8 N 0.7357(4) 0.7070(6) 0.2228(8)
N2_8 N 0.5689(4) 0.7632(6) 0.3268(9)
H1_8 H 0.5691 0.7735 0.4085
N3_8 N 0.9039(4) 0.7646(6) 0.1549(9)
H2_8 H 0.8944 0.7624 0.2380
C1_8 C 0.6045(5) 0.8576(7) 0.2734(10)
C2_8 C 0.5854(5) 0.8011(7) 0.2324(11)
C3_8 C 0.9595(5) 0.7827(7) 0.1226(11)
H3_8 H 0.9693 0.8039 0.0388
C4_8 C 0.8086(5) 0.7315(7) 0.1027(10)
C5_8 C 0.5509(5) 0.7062(7) 0.3024(11)
H4_8 H 0.5370 0.6881 0.3893
C6_8 C 0.7640(5) 0.7119(7) 0.0219(11)
C7_8 C 0.6262(5) 0.9035(7) 0.1936(11)
H6_8 H 0.6304 0.9031 0.1010
C8_8 C 0.9680(4) 0.7340(6) 0.1073(10)
C9_8 C 0.5987(4) 0.6983(6) 0.2731(10)
C10_8 C 0.7893(4) 0.7283(6) 0.2275(10)
H7_8 H 0.8108 0.7395 0.3051
C11_8 C 0.8658(5) 0.7510(7) 0.0600(11)
C12_8 C 0.6061(5) 0.8776(7) 0.3966(11)
H8_8 H 0.5940 0.8563 0.4745
C13_8 C 0.9970(5) 0.8181(8) 0.2327(14)
H9_8 H 0.9920 0.8495 0.2465
H11_8 H 0.9883 0.7968 0.3139
C14_8 C 0.5026(8) 0.6789(11) 0.213(2)
H12_8 H 0.4729 0.6833 0.2478
H13_8 H 0.4908 0.6401 0.2060
H14_8 H 0.5127 0.6956 0.1252
O2_9 O 0.3033(4) 0.2498(3) 0.1918(8)
N1_9 N 0.2930(6) 0.0288(4) 0.2228(8)
N3_9 N 0.2354(6) 0.1394(4) 0.1549(9)
H2_9 H 0.2376 0.1321 0.2380
C3_9 C 0.2173(7) 0.1769(5) 0.1226(11)
H3_9 H 0.1961 0.1655 0.0388
C4_9 C 0.2685(7) 0.0772(5) 0.1027(10)
C6_9 C 0.2881(7) 0.0522(5) 0.0219(11)
C8_9 C 0.2660(6) 0.2341(4) 0.1073(10)
C10_9 C 0.2717(6) 0.0611(5) 0.2275(10)
H7_9 H 0.2605 0.0714 0.3051
C11_9 C 0.2490(7) 0.1149(5) 0.0600(11)
C13_9 C 0.1819(8) 0.1790(6) 0.2327(14)
H9_9 H 0.1505 0.1426 0.2465
H10_9 H 0.1691 0.2042 0.2084
H11_9 H 0.2032 0.1916 0.3139
O6_7 O 0.2427(5) 0.1217(4) 0.9412(8)
H5_7 H 0.2904 0.0553 0.9288
O1_9 O 0.2808(4) 0.9184(3) 0.3542(8)
O5_9 O 0.2112(6) 0.7952(4) 0.1138(8)
N2_9 N 0.2368(6) 0.8058(4) 0.3268(9)
H1_9 H 0.2265 0.7957 0.4085
C1_9 C 0.1424(7) 0.7470(5) 0.2734(10)
C2_9 C 0.1989(7) 0.7844(5) 0.2324(11)
C5_9 C 0.2938(7) 0.8448(5) 0.3024(11)
H4_9 H 0.3119 0.8490 0.3893
C7_9 C 0.0965(7) 0.7228(5) 0.1936(11)
H6_9 H 0.0969 0.7274 0.1010
C9_9 C 0.3017(6) 0.9005(4) 0.2731(10)
C12_9 C 0.1224(7) 0.7286(5) 0.3966(11)
H8_9 H 0.1437 0.7378 0.4745
C14_9 C 0.3211(11) 0.8238(7) 0.213(2)
H12_9 H 0.3167 0.7897 0.2478
H13_9 H 0.3599 0.8508 0.2060
H14_9 H 0.3044 0.8172 0.1252
O6_8 O 0.8783(4) 0.1211(3) 0.9412(8)
H5_8 H 0.9447 0.2352 0.9288
O6_9 O 0.8789(3) 0.7573(5) 0.9412(8)
H5_9 H 0.7648 0.7096 0.9288
loop_
_geom_bond_atom_site_label_1
_geom_bond_atom_site_label_2
_geom_bond_site_symmetry_1
_geom_bond_site_symmetry_2
Zn1 O1 1_555 1_555
Zn2 O2 1_555 1_555
O1 C9 1_555 1_555
O2 C8 1_555 1_555
O3 C8 1_555 1_555
O4 C9 1_555 1_555
O5 C2 1_555 1_555
O6 C11 1_555 1_555
N1 Zn1 1_555 1_555
N2 H1 1_555 1_555
N3 H2 1_555 1_555
N4 N1 1_555 1_555
N5 N6 1_555 1_555
N6 C12 1_555 1_555
C1 C2 1_555 1_555
C2 N2 1_555 1_555
C3 N3 1_555 1_555
H3 C3 1_555 1_555
C4 C6 1_555 1_555
C5 N2 1_555 1_555
H4 C5 1_555 1_555
C6 N4 1_555 1_555
H5 C6 1_555 1_555
C7 N5 1_555 1_555
H6 C7 1_555 1_555
C8 C3 1_555 1_555
C9 C5 1_555 1_555
C10 N1 1_555 1_555
H7 C10 1_555 1_555
C11 N3 1_555 1_555
C12 C1 1_555 1_555
H8 C12 1_555 1_555
C13 C3 1_555 1_555
H9 C13 1_555 1_555
H10 C13 1_555 1_555
H11 C13 1_555 1_555
C14 C5 1_555 1_555
H12 C14 1_555 1_555
H13 C14 1_555 1_555
H14 C14 1_555 1_555
Zn3 O4 1_555 1_555
Zn6 O3 1_555 1_555
O7 Zn2 1_555 1_555
O8 Zn1 1_555 1_555
N7 Zn1 1_555 1_555
N8 Zn2 1_555 1_555
N9 Zn2 1_555 1_555
N4 Zn3 1_555 1_555
C1 C7 1_555 1_555
C4 C10 1_555 1_555
C4 C11 1_555 1_555
Zn1_2 O1_2 1_555 1_555
O1_2 C9_2 1_555 1_555
O2_2 C8_2 1_555 1_555
O3_2 C8_2 1_555 1_555
O4_2 C9_2 1_555 1_555
O5_2 C2_2 1_555 1_555
O6_2 C11_2 1_555 1_555
N1_2 Zn1_2 1_555 1_555
N2_2 H1_2 1_555 1_555
N3_2 H2_2 1_555 1_555
N4_2 N1_2 1_555 1_555
N8 N6_2 1_555 1_555
N6_2 C12_2 1_555 1_555
C1_2 C2_2 1_555 1_555
C2_2 N2_2 1_555 1_555
C3_2 N3_2 1_555 1_555
H3_2 C3_2 1_555 1_555
C4_2 C6_2 1_555 1_555
C5_2 N2_2 1_555 1_555
H4_2 C5_2 1_555 1_555
C6_2 N4_2 1_555 1_555
H5_2 C6_2 1_555 1_555
C7_2 N8 1_555 1_555
H6_2 C7_2 1_555 1_555
C8_2 C3_2 1_555 1_555
C9_2 C5_2 1_555 1_555
C10_2 N1_2 1_555 1_555
H7_2 C10_2 1_555 1_555
C11_2 N3_2 1_555 1_555
C12_2 C1_2 1_555 1_555
H8_2 C12_2 1_555 1_555
C13_2 C3_2 1_555 1_555
H9_2 C13_2 1_555 1_555
H10_2 C13_2 1_555 1_555
H11_2 C13_2 1_555 1_555
C14_2 C5_2 1_555 1_555
H12_2 C14_2 1_555 1_555
H14_2 C14_2 1_555 1_555
Zn5_2 N6_2 1_555 1_555
Zn6_2 O3_2 1_555 1_555
O8_2 Zn1_2 1_555 1_555
C1_2 C7_2 1_555 1_555
C4_2 C10_2 1_555 1_555
C4_2 C11_2 1_555 1_555
O7_2 Zn2_2 1_555 1_555
N9_2 Zn2_2 1_555 1_555
O7_3 Zn4 1_555 1_555
N9_3 Zn4 1_555 1_555
Zn1_3 O1_3 1_555 1_555
O1_3 C9_3 1_555 1_555
O2_3 C8_3 1_555 1_555
O3_3 C8_3 1_555 1_555
O4_3 C9_3 1_555 1_555
O5_3 C2_3 1_555 1_555
O6_3 C11_3 1_555 1_555
N1_3 Zn1_3 1_555 1_555
N2_3 H1_3 1_555 1_555
N3_3 H2_3 1_555 1_555
N4_3 N1_3 1_555 1_555
N8_2 N6_3 1_555 1_555
N6_3 C12_3 1_555 1_555
C1_3 C2_3 1_555 1_555
C2_3 N2_3 1_555 1_555
C3_3 N3_3 1_555 1_555
H3_3 C3_3 1_555 1_555
C4_3 C6_3 1_555 1_555
C5_3 N2_3 1_555 1_555
H4_3 C5_3 1_555 1_555
C6_3 N4_3 1_555 1_555
H5_3 C6_3 1_555 1_555
C7_3 N8_2 1_555 1_555
H6_3 C7_3 1_555 1_555
C8_3 C3_3 1_555 1_555
C9_3 C5_3 1_555 1_555
C10_3 N1_3 1_555 1_555
H7_3 C10_3 1_555 1_555
C11_3 N3_3 1_555 1_555
C12_3 C1_3 1_555 1_555
H8_3 C12_3 1_555 1_555
C13_3 C3_3 1_555 1_555
H9_3 C13_3 1_555 1_555
H10_3 C13_3 1_555 1_555
H11_3 C13_3 1_555 1_555
C14_3 C5_3 1_555 1_555
H12_3 C14_3 1_555 1_555
H14_3 C14_3 1_555 1_555
Zn6_3 O3_3 1_555 1_555
O8_3 Zn1_3 1_555 1_555
C1_3 C7_3 1_555 1_555
C4_3 C10_3 1_555 1_555
C4_3 C11_3 1_555 1_555
N6_4 C12_4 1_555 1_555
H8_4 C12_4 1_555 1_555
Zn6_2 N6_4 1_555 1_555
O8_2 C9_4 1_555 1_555
O5_4 C2_4 1_555 1_555
C1_4 C2_4 1_555 1_555
C2_4 N2_4 1_555 1_555
C5_4 N2_4 1_555 1_555
C7_4 N5_2 1_555 1_555
H6_4 C7_4 1_555 1_555
C9_4 C5_4 1_555 1_555
C14_4 C5_4 1_555 1_555
H12_4 C14_4 1_555 1_555
H13_4 C14_4 1_555 1_555
H14_4 C14_4 1_555 1_555
C1_4 C7_4 1_555 1_555
O8_4 Zn1_4 1_555 1_555
Zn5 O2_4 1_555 1_555
O2_4 C8_4 1_555 1_555
O7_3 C8_4 1_555 1_555
O6_4 C11_4 1_555 1_555
N3_4 H2_4 1_555 1_555
N7_2 N1_4 1_555 1_555
C3_4 N3_4 1_555 1_555
H3_4 C3_4 1_555 1_555
C4_4 C6_4 1_555 1_555
C6_4 N7_2 1_555 1_555
H5_4 C6_4 1_555 1_555
C8_4 C3_4 1_555 1_555
C10_4 N1_4 1_555 1_555
H7_4 C10_4 1_555 1_555
C11_4 N3_4 1_555 1_555
C13_4 C3_4 1_555 1_555
H9_4 C13_4 1_555 1_555
H10_4 C13_4 1_555 1_555
H11_4 C13_4 1_555 1_555
C4_4 C10_4 1_555 1_555
C4_4 C11_4 1_555 1_555
O8_5 Zn1_5 1_555 1_555
Zn5_2 O2_5 1_555 1_555
O2_5 C8_5 1_555 1_555
O7 C8_5 1_555 1_555
O6_5 C11_5 1_555 1_555
N3_5 H2_5 1_555 1_555
N7_3 N1_5 1_555 1_555
C3_5 N3_5 1_555 1_555
H3_5 C3_5 1_555 1_555
C4_5 C6_5 1_555 1_555
C6_5 N7_3 1_555 1_555
H5_5 C6_5 1_555 1_555
C8_5 C3_5 1_555 1_555
C10_5 N1_5 1_555 1_555
H7_5 C10_5 1_555 1_555
C11_5 N3_5 1_555 1_555
C13_5 C3_5 1_555 1_555
H9_5 C13_5 1_555 1_555
H10_5 C13_5 1_555 1_555
H11_5 C13_5 1_555 1_555
N8_4 Zn5_2 1_555 1_555
C4_5 C10_5 1_555 1_555
C4_5 C11_5 1_555 1_555
N6_5 C12_5 1_555 1_555
H8_5 C12_5 1_555 1_555
Zn6_3 N6_5 1_555 1_555
O8_3 C9_5 1_555 1_555
O5_5 C2_5 1_555 1_555
C1_5 C2_5 1_555 1_555
C2_5 N2_5 1_555 1_555
C5_5 N2_5 1_555 1_555
C7_5 N8_3 1_555 1_555
H6_5 C7_5 1_555 1_555
C9_5 C5_5 1_555 1_555
C14_5 C5_5 1_555 1_555
H12_5 C14_5 1_555 1_555
H13_5 C14_5 1_555 1_555
H14_5 C14_5 1_555 1_555
C1_5 C7_5 1_555 1_555
Zn1_6 O1_6 1_555 1_555
N6_6 C12_6 1_555 1_555
H8_6 C12_6 1_555 1_555
Zn6 N6_6 1_555 1_555
O8_6 Zn1_6 1_555 1_555
N7_6 Zn1_6 1_555 1_555
Zn5_3 O2_6 1_555 1_555
O2_6 C8_6 1_555 1_555
O7_2 C8_6 1_555 1_555
O8 C9_6 1_555 1_555
O5_6 C2_6 1_555 1_555
O6_6 C11_6 1_555 1_555
N3_6 H2_6 1_555 1_555
N7 N1_6 1_555 1_555
C1_6 C2_6 1_555 1_555
C2_6 N2_6 1_555 1_555
C3_6 N3_6 1_555 1_555
H3_6 C3_6 1_555 1_555
C4_6 C6_6 1_555 1_555
C5_6 N2_6 1_555 1_555
C6_6 N7 1_555 1_555
H5_6 C6_6 1_555 1_555
C7_6 N8_4 1_555 1_555
H6_6 C7_6 1_555 1_555
C8_6 C3_6 1_555 1_555
C9_6 C5_6 1_555 1_555
C10_6 N1_6 1_555 1_555
H7_6 C10_6 1_555 1_555
C11_6 N3_6 1_555 1_555
C13_6 C3_6 1_555 1_555
H9_6 C13_6 1_555 1_555
H10_6 C13_6 1_555 1_555
H11_6 C13_6 1_555 1_555
C14_6 C5_6 1_555 1_555
H12_6 C14_6 1_555 1_555
H13_6 C14_6 1_555 1_555
H14_6 C14_6 1_555 1_555
C1_6 C7_6 1_555 1_555
C4_6 C10_6 1_555 1_555
C4_6 C11_6 1_555 1_555
Zn3_3 O1_7 1_555 1_555
O1_7 C9_7 1_555 1_555
O8_5 C9_7 1_555 1_555
O5_7 C2_7 1_555 1_555
N2_7 H1_7 1_555 1_555
N5_3 N9 1_555 1_555
N9 C12_7 1_555 1_555
C1_7 C2_7 1_555 1_555
C2_7 N2_7 1_555 1_555
C5_7 N2_7 1_555 1_555
H4_7 C5_7 1_555 1_555
C7_7 N5_3 1_555 1_555
H6_7 C7_7 1_555 1_555
C9_7 C5_7 1_555 1_555
C12_7 C1_7 1_555 1_555
H8_7 C12_7 1_555 1_555
C14_7 C5_7 1_555 1_555
H12_7 C14_7 1_555 1_555
H13_7 C14_7 1_555 1_555
H14_7 C14_7 1_555 1_555
Zn6 N5_3 1_555 1_555
C1_7 C7_7 1_555 1_555
Zn6_2 O2_7 1_555 1_555
O2_7 C8_7 1_555 1_555
O7_6 C8_7 1_555 1_555
N3_7 H2_7 1_555 1_555
N7_5 N1_7 1_555 1_555
C3_7 N3_7 1_555 1_555
H3_7 C3_7 1_555 1_555
C4_7 C6_7 1_555 1_555
C6_7 N7_5 1_555 1_555
C8_7 C3_7 1_555 1_555
C10_7 N1_7 1_555 1_555
H7_7 C10_7 1_555 1_555
C11_7 N3_7 1_555 1_555
C13_7 C3_7 1_555 1_555
H9_7 C13_7 1_555 1_555
H11_7 C13_7 1_555 1_555
C4_7 C10_7 1_555 1_555
C4_7 C11_7 1_555 1_555
Zn3 O1_8 1_555 1_555
Zn6_3 O2_8 1_555 1_555
O1_8 C9_8 1_555 1_555
O2_8 C8_8 1_555 1_555
O7_4 C8_8 1_555 1_555
O8_6 C9_8 1_555 1_555
O5_8 C2_8 1_555 1_555
N1_8 Zn3 1_555 1_555
N2_8 H1_8 1_555 1_555
N3_8 H2_8 1_555 1_555
N7_6 N1_8 1_555 1_555
N8_5 N9_2 1_555 1_555
N9_2 C12_8 1_555 1_555
C1_8 C2_8 1_555 1_555
C2_8 N2_8 1_555 1_555
C3_8 N3_8 1_555 1_555
H3_8 C3_8 1_555 1_555
C4_8 C6_8 1_555 1_555
C5_8 N2_8 1_555 1_555
H4_8 C5_8 1_555 1_555
C6_8 N7_6 1_555 1_555
C7_8 N8_5 1_555 1_555
H6_8 C7_8 1_555 1_555
C8_8 C3_8 1_555 1_555
C9_8 C5_8 1_555 1_555
C10_8 N1_8 1_555 1_555
H7_8 C10_8 1_555 1_555
C11_8 N3_8 1_555 1_555
C12_8 C1_8 1_555 1_555
H8_8 C12_8 1_555 1_555
C13_8 C3_8 1_555 1_555
H9_8 C13_8 1_555 1_555
H11_8 C13_8 1_555 1_555
C14_8 C5_8 1_555 1_555
H12_8 C14_8 1_555 1_555
H13_8 C14_8 1_555 1_555
H14_8 C14_8 1_555 1_555
C1_8 C7_8 1_555 1_555
C4_8 C10_8 1_555 1_555
C4_8 C11_8 1_555 1_555
Zn6 O2_9 1_555 1_555
O2_9 C8_9 1_555 1_555
O7_5 C8_9 1_555 1_555
N3_9 H2_9 1_555 1_555
N7_4 N1_9 1_555 1_555
C3_9 N3_9 1_555 1_555
H3_9 C3_9 1_555 1_555
C4_9 C6_9 1_555 1_555
C6_9 N7_4 1_555 1_555
C8_9 C3_9 1_555 1_555
C10_9 N1_9 1_555 1_555
H7_9 C10_9 1_555 1_555
C11_9 N3_9 1_555 1_555
C13_9 C3_9 1_555 1_555
H9_9 C13_9 1_555 1_555
H10_9 C13_9 1_555 1_555
H11_9 C13_9 1_555 1_555
C4_9 C10_9 1_555 1_555
C4_9 C11_9 1_555 1_555
Zn3_2 O1_9 1_555 1_555
O1_9 C9_9 1_555 1_555
O8_4 C9_9 1_555 1_555
O5_9 C2_9 1_555 1_555
N2_9 H1_9 1_555 1_555
N8_6 N9_3 1_555 1_555
N9_3 C12_9 1_555 1_555
C1_9 C2_9 1_555 1_555
C2_9 N2_9 1_555 1_555
C5_9 N2_9 1_555 1_555
H4_9 C5_9 1_555 1_555
C7_9 N8_6 1_555 1_555
H6_9 C7_9 1_555 1_555
C9_9 C5_9 1_555 1_555
C12_9 C1_9 1_555 1_555
H8_9 C12_9 1_555 1_555
C14_9 C5_9 1_555 1_555
H12_9 C14_9 1_555 1_555
H13_9 C14_9 1_555 1_555
H14_9 C14_9 1_555 1_555
C1_9 C7_9 1_555 1_555

#END
