
###############################################################################
#
# This file contains modified crystal structure data generated from the
# MOF subset of the Cambridge Structural Database (CSD) v543 
# hosted by the Cambridge Crystallographic Data Centre (CCDC).
#
# This work is licensed under the Creative Commons
# Attribution-NonCommercial-ShareAlike 4.0 International License.
# To view a copy of this license, visit
# http://creativecommons.org/licenses/by-nc-sa/4.0/
# or send a letter to
# Creative Commons, PO Box 1866, Mountain View, CA 94042, USA.
#
# CIF created using the CSD Python API on 29 September 2022
# The structure has been converted into the P1 space group
# The structure has a 3D framework
# The original CSD entry VUWXUJ05 is in the rhombohedral crystal system
# The original CSD entry VUWXUJ05 is in a Sohncke space group
# The framework has been calculated to contain at least 10.0% void space
# The void calculation uses a probe of radius 1.32A, grid spacing 0.4
#
###############################################################################

data_VUWXUJ05
_chemical_formula_moiety         '(C126 H126 N54 O52 Zn14)n'
_symmetry_cell_setting           triclinic
_symmetry_space_group_name_H-M   'P 1'
_symmetry_Int_Tables_number      1
_space_group_name_Hall           'P 1'
loop_
_symmetry_equiv_pos_site_id
_symmetry_equiv_pos_as_xyz
1 x,y,z
_cell_length_a                   28.1768(4)
_cell_length_b                   28.1768(4)
_cell_length_c                   10.17330(10)
_cell_angle_alpha                90
_cell_angle_beta                 90
_cell_angle_gamma                120
_cell_volume                     6994.81
loop_
_atom_site_label
_atom_site_type_symbol
_atom_site_fract_x
_atom_site_fract_y
_atom_site_fract_z
Zn2 Zn 0.35805(3) 0.02126(3) 0.46521(5)
O2 O 0.73726(19) 0.00062(18) 0.4934(4)
H10 H 0.8344 0.0375 0.3059
Zn3 Zn 0.69114(3) 0.00515(4) 0.63301(5)
O8 O 0.40599(19) 0.07328(27) 0.3293(4)
N8 N 0.6925(3) 0.0530(2) 0.2443(5)
N9 N 0.3749(2) 0.0693(2) 0.6190(4)
Zn1 Zn 0.64735(3) 0.97553(3) 0.29968(5)
O1 O 0.69778(19) 0.94660(19) 0.3182(4)
O3 O 0.33395(19) 0.92734(19) 0.6626(4)
O4 O 0.3842(2) 0.96915(19) 0.4848(4)
N1 N 0.6989(2) 0.7202(2) 0.4142(4)
N2 N 0.6137(2) 0.9729(2) 0.5776(5)
N3 N 0.5982(2) 0.9599(2) 0.4500(4)
O5 O 0.4542(2) 0.9159(3) 0.7265(4)
N4 N 0.4286(2) 0.9000(2) 0.5142(5)
H1 H 0.4394 0.9006 0.4327
N5 N 0.7082(2) 0.7360(2) 0.2857(4)
N6 N 0.7683(2) 0.9055(2) 0.3534(5)
H2 H 0.7661 0.8958 0.2704
O6 O 0.7614(3) 0.8802(2) 0.5668(4)
C1 C 0.5228(3) 0.9364(3) 0.5671(5)
C2 C 0.3704(3) 0.8808(3) 0.5375(6)
H3 H 0.3528 0.8674 0.4497
C3 C 0.7853(3) 0.9617(3) 0.3859(6)
H4 H 0.8063 0.9715 0.4703
C4 C 0.5695(3) 0.9594(3) 0.6488(5)
H5 H 0.5692 0.9645 0.7411
C5 C 0.7350(3) 0.8104(3) 0.4065(5)
C6 C 0.7357(2) 0.9692(2) 0.4027(5)
C7 C 0.7303(3) 0.7897(2) 0.2805(5)
H6 H 0.7414 0.8110 0.2023
C8 C 0.5440(3) 0.9385(3) 0.4430(6)
H7 H 0.5230 0.9265 0.3644
C9 C 0.3622(2) 0.9297(2) 0.5675(5)
C10 C 0.7144(3) 0.7647(3) 0.4863(6)
H8 H 0.7117 0.7652 0.5793
C11 C 0.4658(3) 0.9165(3) 0.6088(6)
C12 C 0.8214(3) 0.9995(3) 0.2801(8)
H9 H 0.8528 0.9941 0.2670
H11 H 0.8005 0.9914 0.1980
C13 C 0.7558(3) 0.8676(3) 0.4494(6)
C14 C 0.3436(4) 0.8328(4) 0.6219(11)
H12 H 0.3477 0.8031 0.5838
H13 H 0.3046 0.8211 0.6294
H14 H 0.3605 0.8419 0.7093
Zn4 Zn 0.66321(4) 0.64195(3) 0.46521(5)
Zn5 Zn 0.32988(4) 0.97528(3) 0.79854(5)
Zn6 Zn 0.69138(3) 0.68793(3) 0.13188(5)
O7 O 0.59669(26) 0.92941(19) 0.1601(4)
N7 N 0.2798(2) 0.9787(3) 0.4142(4)
Zn6_2 Zn 0.31207(3) 0.00346(4) 0.13188(5)
Zn1_2 Zn 0.02447(3) 0.67182(4) 0.29968(5)
O1_2 O 0.05340(19) 0.75118(27) 0.3182(4)
O3_2 O 0.07266(19) 0.40661(27) 0.6626(4)
O4_2 O 0.03085(19) 0.41505(28) 0.4848(4)
N2_2 N 0.0271(2) 0.6408(3) 0.5776(5)
N3_2 N 0.0401(2) 0.6383(3) 0.4500(4)
O5_2 O 0.0841(3) 0.5383(4) 0.7265(4)
N4_2 N 0.1000(2) 0.5286(3) 0.5142(5)
H1_2 H 0.0994 0.5388 0.4327
N5_2 N 0.2640(2) 0.9722(3) 0.2857(4)
N6_2 N 0.0945(2) 0.8628(3) 0.3534(5)
H2_2 H 0.1042 0.8703 0.2704
O6_2 O 0.1198(2) 0.8812(4) 0.5668(4)
C1_2 C 0.0636(3) 0.5864(4) 0.5671(5)
C2_2 C 0.1192(3) 0.4896(4) 0.5375(6)
H3_2 H 0.1326 0.4854 0.4497
C3_2 C 0.0383(3) 0.8236(4) 0.3859(6)
H4_2 H 0.0285 0.8348 0.4703
C4_2 C 0.0406(3) 0.6101(4) 0.6488(5)
H5_2 H 0.0355 0.6047 0.7411
C5_2 C 0.1896(3) 0.9246(4) 0.4065(5)
C6_2 C 0.0308(2) 0.7665(3) 0.4027(5)
C7_2 C 0.2103(2) 0.9406(4) 0.2805(5)
H6_2 H 0.1890 0.9304 0.2023
C8_2 C 0.0615(3) 0.6055(4) 0.4430(6)
H7_2 H 0.0735 0.5965 0.3644
C9_2 C 0.0703(2) 0.4325(3) 0.5675(5)
C10_2 C 0.2353(3) 0.9497(4) 0.4863(6)
H8_2 H 0.2348 0.9465 0.5793
C11_2 C 0.0835(3) 0.5493(4) 0.6088(6)
C12_2 C 0.0005(3) 0.8219(4) 0.2801(8)
H9_2 H 0.0059 0.8587 0.2670
H11_2 H 0.0086 0.8091 0.1980
C13_2 C 0.1324(3) 0.8882(4) 0.4494(6)
C14_2 C 0.1672(4) 0.5108(6) 0.6219(11)
H12_2 H 0.1969 0.5446 0.5838
H13_2 H 0.1789 0.4835 0.6294
H14_2 H 0.1581 0.5186 0.7093
Zn5_2 Zn 0.02472(3) 0.35459(5) 0.79854(5)
O7_2 O 0.07059(19) 0.66729(32) 0.1601(4)
N7_2 N 0.0213(3) 0.3011(4) 0.4142(4)
Zn2_2 Zn 0.97874(3) 0.33679(4) 0.46521(5)
O2_2 O 0.99938(18) 0.73664(26) 0.4934(4)
H10_2 H 0.9625 0.7969 0.3059
Zn3_2 Zn 0.99485(4) 0.68598(5) 0.63301(5)
O8_2 O 0.92672(27) 0.33272(33) 0.3293(4)
N8_2 N 0.9470(2) 0.6396(4) 0.2443(5)
N9_2 N 0.9307(2) 0.3055(3) 0.6190(4)
Zn1_3 Zn 0.32818(4) 0.35265(3) 0.29968(5)
O1_3 O 0.24882(27) 0.30222(19) 0.3182(4)
O2_3 O 0.26336(26) 0.26274(19) 0.4934(4)
O3_3 O 0.59339(27) 0.66605(19) 0.6626(4)
O4_3 O 0.58495(28) 0.6158(2) 0.4848(4)
N2_3 N 0.3592(3) 0.3863(2) 0.5776(5)
N3_3 N 0.3617(3) 0.4018(2) 0.4500(4)
O5_3 O 0.4617(4) 0.5458(2) 0.7265(4)
N4_3 N 0.4714(3) 0.5714(2) 0.5142(5)
H1_3 H 0.4612 0.5606 0.4327
N5_3 N 0.0278(3) 0.2918(2) 0.2857(4)
N6_3 N 0.1372(3) 0.2317(2) 0.3534(5)
H2_3 H 0.1297 0.2339 0.2704
O6_3 O 0.1188(4) 0.2386(3) 0.5668(4)
C1_3 C 0.4136(4) 0.4772(3) 0.5671(5)
C2_3 C 0.5104(4) 0.6296(3) 0.5375(6)
H3_3 H 0.5146 0.6472 0.4497
C3_3 C 0.1764(4) 0.2147(3) 0.3859(6)
H4_3 H 0.1652 0.1937 0.4703
C4_3 C 0.3899(4) 0.4305(3) 0.6488(5)
H5_3 H 0.3953 0.4308 0.7411
C5_3 C 0.0754(4) 0.2650(3) 0.4065(5)
C6_3 C 0.2335(3) 0.2643(2) 0.4027(5)
C7_3 C 0.0594(4) 0.2697(3) 0.2805(5)
H6_3 H 0.0696 0.2586 0.2023
C8_3 C 0.3945(4) 0.4560(3) 0.4430(6)
H7_3 H 0.4035 0.4770 0.3644
C9_3 C 0.5675(3) 0.6378(2) 0.5675(5)
C10_3 C 0.0503(4) 0.2856(3) 0.4863(6)
H8_3 H 0.0535 0.2883 0.5793
C11_3 C 0.4507(4) 0.5342(3) 0.6088(6)
C12_3 C 0.1781(4) 0.1786(3) 0.2801(8)
H9_3 H 0.1413 0.1472 0.2670
H10_3 H 0.2031 0.1656 0.3059
H11_3 H 0.1909 0.1995 0.1980
C13_3 C 0.1118(4) 0.2442(3) 0.4494(6)
C14_3 C 0.4892(6) 0.6564(4) 0.6219(11)
H12_3 H 0.4554 0.6523 0.5838
H13_3 H 0.5165 0.6954 0.6294
H14_3 H 0.4814 0.6395 0.7093
Zn3_3 Zn 0.31402(5) 0.30886(3) 0.63301(5)
Zn5_3 Zn 0.64541(5) 0.67012(4) 0.79854(5)
O7_3 O 0.33271(32) 0.40331(26) 0.1601(4)
O8_3 O 0.66728(33) 0.59401(19) 0.3293(4)
N8_3 N 0.3604(4) 0.3075(3) 0.2443(5)
N9_3 N 0.6945(3) 0.6251(2) 0.6190(4)
Zn6_3 Zn 0.99654(4) 0.30862(3) 0.13188(5)
O1_4 O 0.36445(19) 0.27993(19) 0.6515(4)
O2_4 O 0.40393(19) 0.33395(18) 0.8267(4)
O3_4 O 0.00062(19) 0.26067(19) 0.9959(4)
O4_4 O 0.0509(2) 0.30248(19) 0.8181(4)
N1_2 N 0.3656(2) 0.0535(2) 0.7475(4)
N2_4 N 0.2804(2) 0.3062(2) 0.9109(5)
N3_4 N 0.2649(2) 0.2932(2) 0.7833(4)
N4_4 N 0.0953(2) 0.2333(2) 0.8475(5)
H1_4 H 0.1061 0.2339 0.7660
N6_4 N 0.4350(2) 0.2388(2) 0.6867(5)
H2_4 H 0.4328 0.2291 0.6037
O6_4 O 0.4281(3) 0.2135(2) 0.9001(4)
C1_4 C 0.1895(3) 0.2697(3) 0.9004(5)
C2_4 C 0.0371(3) 0.2141(3) 0.8708(6)
H3_4 H 0.0195 0.2007 0.7830
C3_4 C 0.4520(3) 0.2950(3) 0.7192(6)
H4_4 H 0.4730 0.3048 0.8036
C4_4 C 0.2362(3) 0.2927(3) 0.9821(5)
C5_4 C 0.4017(3) 0.1437(3) 0.7398(5)
C6_4 C 0.4024(2) 0.3025(2) 0.7360(5)
C7_4 C 0.3970(3) 0.1230(2) 0.6138(5)
H6_4 H 0.4081 0.1443 0.5356
C8_4 C 0.2107(3) 0.2718(3) 0.7763(6)
H7_4 H 0.1897 0.2598 0.6977
C9_4 C 0.0289(2) 0.2630(2) 0.9008(5)
C10_4 C 0.3811(3) 0.0980(3) 0.8196(6)
H8_4 H 0.3784 0.0985 0.9126
C11_4 C 0.1325(3) 0.2498(3) 0.9421(6)
C12_4 C 0.4881(3) 0.3328(3) 0.6134(8)
H9_4 H 0.5195 0.3274 0.6003
H10_4 H 0.5011 0.3708 0.6392
H11_4 H 0.4672 0.3247 0.5313
C13_4 C 0.4225(3) 0.2009(3) 0.7827(6)
C14_4 C 0.0103(4) 0.1661(4) 0.9552(11)
H12_4 H 0.0144 0.1364 0.9171
Zn3_4 Zn 0.35780(3) 0.33849(4) 0.96635(5)
N9_4 N 0.0415(2) 0.4027(2) 0.9524(4)
H13_4 H 0.9713 0.1544 0.9627
N7_3 N 0.9465(2) 0.3120(3) 0.7475(4)
O1_5 O 0.72007(19) 0.08451(27) 0.6515(4)
O2_5 O 0.66605(18) 0.06997(26) 0.8267(4)
N6_5 N 0.7612(2) 0.1961(3) 0.6867(5)
H2_5 H 0.7709 0.2036 0.6037
O6_5 O 0.7865(2) 0.2145(4) 0.9001(4)
C3_5 C 0.7050(3) 0.1569(4) 0.7192(6)
H4_5 H 0.6952 0.1681 0.8036
C5_5 C 0.8563(3) 0.2579(4) 0.7398(5)
C6_5 C 0.6975(2) 0.0998(3) 0.7360(5)
C7_5 C 0.8770(2) 0.2739(4) 0.6138(5)
H6_5 H 0.8557 0.2637 0.5356
C10_5 C 0.9020(3) 0.2830(4) 0.8196(6)
H8_5 H 0.9015 0.2798 0.9126
C12_5 C 0.6672(3) 0.1552(4) 0.6134(8)
H9_5 H 0.6726 0.1920 0.6003
H10_5 H 0.6292 0.1302 0.6392
H11_5 H 0.6753 0.1424 0.5313
C13_5 C 0.7991(3) 0.2215(4) 0.7827(6)
Zn3_5 Zn 0.66151(4) 0.01932(5) 0.96635(5)
O5_4 O 0.7508(3) 0.8716(4) 0.0598(4)
H5_4 H 0.7022 0.9380 0.0744
H14_4 H 0.8248 0.8519 0.0426
O3_5 O 0.73933(19) 0.73994(27) 0.9959(4)
O4_5 O 0.69752(19) 0.74838(28) 0.8181(4)
N2_5 N 0.6938(2) 0.9741(3) 0.9109(5)
N3_5 N 0.7068(2) 0.9716(3) 0.7833(4)
N4_5 N 0.7667(2) 0.8619(3) 0.8475(5)
H1_5 H 0.7661 0.8721 0.7660
C1_5 C 0.7303(3) 0.9197(4) 0.9004(5)
C2_5 C 0.7859(3) 0.8229(4) 0.8708(6)
H3_5 H 0.7993 0.8187 0.7830
C4_5 C 0.7073(3) 0.9434(4) 0.9821(5)
C8_5 C 0.7282(3) 0.9388(4) 0.7763(6)
H7_5 H 0.7402 0.9298 0.6977
C9_5 C 0.7370(2) 0.7658(3) 0.9008(5)
C11_5 C 0.7502(3) 0.8826(4) 0.9421(6)
C14_5 C 0.8339(4) 0.8441(6) 0.9552(11)
H12_5 H 0.8636 0.8779 0.9171
H13_5 H 0.8456 0.8168 0.9627
N7_4 N 0.6880(3) 0.6344(4) 0.7475(4)
N9_5 N 0.5973(2) 0.6389(3) 0.9524(4)
H13_6 H 0.1832 0.0287 0.9627
O3_6 O 0.26006(27) 0.99938(19) 0.9959(4)
O4_6 O 0.25162(28) 0.9491(2) 0.8181(4)
N2_6 N 0.0259(3) 0.7196(2) 0.9109(5)
N3_6 N 0.0284(3) 0.7351(2) 0.7833(4)
N4_6 N 0.1381(3) 0.9047(2) 0.8475(5)
H1_6 H 0.1279 0.8939 0.7660
C1_6 C 0.0803(4) 0.8105(3) 0.9004(5)
C2_6 C 0.1771(4) 0.9629(3) 0.8708(6)
H3_6 H 0.1813 0.9805 0.7830
C4_6 C 0.0566(4) 0.7638(3) 0.9821(5)
C8_6 C 0.0612(4) 0.7893(3) 0.7763(6)
H7_6 H 0.0702 0.8103 0.6977
C9_6 C 0.2342(3) 0.9711(2) 0.9008(5)
C11_6 C 0.1174(4) 0.8675(3) 0.9421(6)
C14_6 C 0.1559(6) 0.9897(4) 0.9552(11)
H12_6 H 0.1221 0.9856 0.9171
N9_6 N 0.3611(3) 0.9585(2) 0.9524(4)
O1_6 O 0.91549(27) 0.63555(19) 0.6515(4)
O2_6 O 0.93003(26) 0.59607(19) 0.8267(4)
N6_6 N 0.8039(3) 0.5650(2) 0.6867(5)
H2_6 H 0.7964 0.5672 0.6037
O6_6 O 0.7855(4) 0.5719(3) 0.9001(4)
C3_6 C 0.8431(4) 0.5480(3) 0.7192(6)
H4_6 H 0.8319 0.5270 0.8036
C5_6 C 0.7421(4) 0.5983(3) 0.7398(5)
C6_6 C 0.9002(3) 0.5976(2) 0.7360(5)
C7_6 C 0.7261(4) 0.6030(3) 0.6138(5)
H6_6 H 0.7363 0.5919 0.5356
C10_6 C 0.7170(4) 0.6189(3) 0.8196(6)
H8_6 H 0.7202 0.6216 0.9126
C12_6 C 0.8448(4) 0.5119(3) 0.6134(8)
H9_6 H 0.8080 0.4805 0.6003
H10_6 H 0.8698 0.4989 0.6392
H11_6 H 0.8576 0.5328 0.5313
C13_6 C 0.7785(4) 0.5775(3) 0.7827(6)
Zn3_6 Zn 0.98068(5) 0.64220(3) 0.96635(5)
N1_3 N 0.0322(2) 0.3869(2) 0.0809(4)
N6_7 N 0.1016(2) 0.5722(2) 0.0201(5)
O6_7 O 0.0947(3) 0.5469(2) 0.2335(4)
C3_7 C 0.1186(3) 0.6284(3) 0.0526(6)
H4_7 H 0.1396 0.6382 0.1370
C5_7 C 0.0683(3) 0.4771(3) 0.0732(5)
C6_7 C 0.0690(2) 0.6359(2) 0.0694(5)
C10_7 C 0.0477(3) 0.4314(3) 0.1530(6)
H8_7 H 0.0450 0.4319 0.2460
C13_7 C 0.0891(3) 0.5343(3) 0.1161(6)
O1_7 O 0.03111(19) 0.61327(19) 0.9849(4)
H2_7 H 0.0994 0.5625 0.9371
C7_7 C 0.0636(3) 0.4564(2) 0.9472(5)
H6_7 H 0.0747 0.4777 0.8690
C12_7 C 0.1547(3) 0.6662(3) 0.9468(8)
H9_7 H 0.1861 0.6608 0.9337
H10_7 H 0.1677 0.7042 0.9726
H11_7 H 0.1338 0.6581 0.8647
O4_7 O 0.7175(2) 0.63582(19) 0.1515(4)
N3_7 N 0.9315(2) 0.6266(2) 0.1167(4)
O5_5 O 0.7875(2) 0.5826(3) 0.3932(4)
N4_7 N 0.7619(2) 0.5667(2) 0.1809(5)
H1_7 H 0.7727 0.5673 0.0994
C1_7 C 0.8561(3) 0.6031(3) 0.2338(5)
C2_7 C 0.7037(3) 0.5475(3) 0.2042(6)
H3_7 H 0.6861 0.5341 0.1164
C4_7 C 0.9028(3) 0.6261(3) 0.3155(5)
H5_5 H 0.9025 0.6312 0.4078
C8_7 C 0.8773(3) 0.6052(3) 0.1097(6)
H7_7 H 0.8563 0.5932 0.0311
C9_7 C 0.6955(2) 0.5964(2) 0.2342(5)
C11_7 C 0.7991(3) 0.5832(3) 0.2755(6)
C14_7 C 0.6769(4) 0.4995(4) 0.2886(11)
H12_7 H 0.6810 0.4698 0.2505
H13_7 H 0.6379 0.4878 0.2961
H14_5 H 0.6938 0.5086 0.3760
N7_5 N 0.6131(2) 0.6454(3) 0.0809(4)
O4_8 O 0.36418(19) 0.08172(28) 0.1515(4)
N3_8 N 0.3734(2) 0.3050(3) 0.1167(4)
O5_6 O 0.4174(3) 0.2050(4) 0.3932(4)
N4_8 N 0.4333(2) 0.1953(3) 0.1809(5)
H1_8 H 0.4327 0.2055 0.0994
N6_8 N 0.4278(2) 0.5295(3) 0.0201(5)
O6_8 O 0.4531(2) 0.5479(4) 0.2335(4)
C1_8 C 0.3969(3) 0.2531(4) 0.2338(5)
C2_8 C 0.4525(3) 0.1563(4) 0.2042(6)
H3_8 H 0.4659 0.1521 0.1164
C3_8 C 0.3716(3) 0.4903(4) 0.0526(6)
H4_8 H 0.3618 0.5015 0.1370
C4_8 C 0.3739(3) 0.2768(4) 0.3155(5)
H5_6 H 0.3688 0.2714 0.4078
C5_8 C 0.5229(3) 0.5913(4) 0.0732(5)
C6_8 C 0.3641(2) 0.4332(3) 0.0694(5)
C8_8 C 0.3948(3) 0.2722(4) 0.1097(6)
H7_8 H 0.4068 0.2632 0.0311
C9_8 C 0.4036(2) 0.0992(3) 0.2342(5)
C10_8 C 0.5686(3) 0.6164(4) 0.1530(6)
H8_8 H 0.5681 0.6132 0.2460
C11_8 C 0.4168(3) 0.2160(4) 0.2755(6)
C13_8 C 0.4657(3) 0.5549(4) 0.1161(6)
C14_8 C 0.5005(4) 0.1775(6) 0.2886(11)
H12_8 H 0.5302 0.2113 0.2505
H13_8 H 0.5122 0.1502 0.2961
H14_6 H 0.4914 0.1853 0.3760
O1_8 O 0.38673(19) 0.41785(27) 0.9849(4)
H2_8 H 0.4375 0.5370 0.9371
C7_8 C 0.5436(2) 0.6073(4) 0.9472(5)
H6_8 H 0.5223 0.5971 0.8690
C12_8 C 0.3338(3) 0.4886(4) 0.9468(8)
H9_8 H 0.3392 0.5254 0.9337
H10_8 H 0.2958 0.4636 0.9726
H11_8 H 0.3419 0.4758 0.8647
N7_6 N 0.3546(3) 0.9678(4) 0.0809(4)
O4_9 O 0.91828(28) 0.2825(2) 0.1515(4)
N3_9 N 0.6950(3) 0.0685(2) 0.1167(4)
O5_7 O 0.7950(4) 0.2125(2) 0.3932(4)
N4_9 N 0.8047(3) 0.2381(2) 0.1809(5)
H1_9 H 0.7945 0.2273 0.0994
C1_9 C 0.7469(4) 0.1439(3) 0.2338(5)
C2_9 C 0.8437(4) 0.2963(3) 0.2042(6)
H3_9 H 0.8479 0.3139 0.1164
C4_9 C 0.7232(4) 0.0972(3) 0.3155(5)
H5_7 H 0.7286 0.0975 0.4078
C8_9 C 0.7278(4) 0.1227(3) 0.1097(6)
H7_9 H 0.7368 0.1437 0.0311
C9_9 C 0.9008(3) 0.3045(2) 0.2342(5)
C11_9 C 0.7840(4) 0.2009(3) 0.2755(6)
C14_9 C 0.8225(6) 0.3231(4) 0.2886(11)
H12_9 H 0.7887 0.3190 0.2505
H13_9 H 0.8498 0.3621 0.2961
H14_7 H 0.8147 0.3062 0.3760
N6_9 N 0.4705(3) 0.8984(2) 0.0201(5)
O6_9 O 0.4521(4) 0.9053(3) 0.2335(4)
C3_9 C 0.5097(4) 0.8814(3) 0.0526(6)
H4_9 H 0.4985 0.8604 0.1370
C5_9 C 0.4087(4) 0.9317(3) 0.0732(5)
C6_9 C 0.5668(3) 0.9310(2) 0.0694(5)
C10_9 C 0.3836(4) 0.9523(3) 0.1530(6)
H8_9 H 0.3868 0.9550 0.2460
C13_9 C 0.4451(4) 0.9109(3) 0.1161(6)
O1_9 O 0.58215(27) 0.96889(19) 0.9849(4)
H2_9 H 0.4630 0.9006 0.9371
C7_9 C 0.3927(4) 0.9364(3) 0.9472(5)
H6_9 H 0.4029 0.9253 0.8690
C12_9 C 0.5114(4) 0.8453(3) 0.9468(8)
H9_9 H 0.4746 0.8139 0.9337
H10_9 H 0.5364 0.8323 0.9726
H11_9 H 0.5242 0.8662 0.8647
O5_8 O 0.1209(2) 0.2492(3) 0.0598(4)
H5_8 H 0.2359 0.2978 0.0744
H14_8 H 0.0272 0.1752 0.0426
O5_9 O 0.1284(4) 0.8791(2) 0.0598(4)
H5_9 H 0.0620 0.7641 0.0744
H14_9 H 0.1481 0.9728 0.0426
loop_
_geom_bond_atom_site_label_1
_geom_bond_atom_site_label_2
_geom_bond_site_symmetry_1
_geom_bond_site_symmetry_2
Zn3 O2 1_555 1_555
O8 Zn2 1_555 1_555
N9 Zn2 1_555 1_555
Zn1 O1 1_555 1_555
O1 C6 1_555 1_555
O3 C9 1_555 1_555
O4 C9 1_555 1_555
N1 N5 1_555 1_555
N2 N3 1_555 1_555
N3 Zn1 1_555 1_555
O5 C11 1_555 1_555
N4 H1 1_555 1_555
N5 C7 1_555 1_555
N6 H2 1_555 1_555
O6 C13 1_555 1_555
C1 C4 1_555 1_555
C2 N4 1_555 1_555
H3 C2 1_555 1_555
C3 N6 1_555 1_555
H4 C3 1_555 1_555
C4 N2 1_555 1_555
H5 C4 1_555 1_555
C5 C7 1_555 1_555
C6 C3 1_555 1_555
C7 H6 1_555 1_555
C8 N3 1_555 1_555
H7 C8 1_555 1_555
C9 C2 1_555 1_555
C10 N1 1_555 1_555
H8 C10 1_555 1_555
C11 N4 1_555 1_555
C12 C3 1_555 1_555
H9 C12 1_555 1_555
H11 C12 1_555 1_555
C13 N6 1_555 1_555
C14 C2 1_555 1_555
H12 C14 1_555 1_555
H13 C14 1_555 1_555
H14 C14 1_555 1_555
Zn4 N1 1_555 1_555
Zn5 O3 1_555 1_555
Zn6 N5 1_555 1_555
O7 Zn1 1_555 1_555
C1 C8 1_555 1_555
C1 C11 1_555 1_555
C5 C10 1_555 1_555
C5 C13 1_555 1_555
Zn1_2 O1_2 1_555 1_555
O1_2 C6_2 1_555 1_555
O3_2 C9_2 1_555 1_555
O4_2 C9_2 1_555 1_555
N7 N5_2 1_555 1_555
N2_2 N3_2 1_555 1_555
N3_2 Zn1_2 1_555 1_555
O5_2 C11_2 1_555 1_555
N4_2 H1_2 1_555 1_555
N5_2 C7_2 1_555 1_555
N6_2 H2_2 1_555 1_555
O6_2 C13_2 1_555 1_555
C1_2 C4_2 1_555 1_555
C2_2 N4_2 1_555 1_555
H3_2 C2_2 1_555 1_555
C3_2 N6_2 1_555 1_555
H4_2 C3_2 1_555 1_555
C4_2 N2_2 1_555 1_555
H5_2 C4_2 1_555 1_555
C5_2 C7_2 1_555 1_555
C6_2 C3_2 1_555 1_555
C7_2 H6_2 1_555 1_555
C8_2 N3_2 1_555 1_555
H7_2 C8_2 1_555 1_555
C9_2 C2_2 1_555 1_555
C10_2 N7 1_555 1_555
H8_2 C10_2 1_555 1_555
C11_2 N4_2 1_555 1_555
C12_2 C3_2 1_555 1_555
H9_2 C12_2 1_555 1_555
H11_2 C12_2 1_555 1_555
C13_2 N6_2 1_555 1_555
C14_2 C2_2 1_555 1_555
H12_2 C14_2 1_555 1_555
H13_2 C14_2 1_555 1_555
H14_2 C14_2 1_555 1_555
Zn5_2 O3_2 1_555 1_555
O7_2 Zn1_2 1_555 1_555
C1_2 C8_2 1_555 1_555
C1_2 C11_2 1_555 1_555
C5_2 C10_2 1_555 1_555
C5_2 C13_2 1_555 1_555
Zn3_2 O2_2 1_555 1_555
O8_2 Zn2_2 1_555 1_555
N9_2 Zn2_2 1_555 1_555
Zn1_3 O1_3 1_555 1_555
Zn4 O4_3 1_555 1_555
O1_3 C6_3 1_555 1_555
O2_3 C6_3 1_555 1_555
O3_3 C9_3 1_555 1_555
O4_3 C9_3 1_555 1_555
N7_2 N5_3 1_555 1_555
N2_3 N3_3 1_555 1_555
N3_3 Zn1_3 1_555 1_555
O5_3 C11_3 1_555 1_555
N4_3 H1_3 1_555 1_555
N5_3 C7_3 1_555 1_555
N6_3 H2_3 1_555 1_555
O6_3 C13_3 1_555 1_555
C1_3 C4_3 1_555 1_555
C2_3 N4_3 1_555 1_555
H3_3 C2_3 1_555 1_555
C3_3 N6_3 1_555 1_555
H4_3 C3_3 1_555 1_555
C4_3 N2_3 1_555 1_555
H5_3 C4_3 1_555 1_555
C5_3 C7_3 1_555 1_555
C6_3 C3_3 1_555 1_555
C7_3 H6_3 1_555 1_555
C8_3 N3_3 1_555 1_555
H7_3 C8_3 1_555 1_555
C9_3 C2_3 1_555 1_555
C10_3 N7_2 1_555 1_555
H8_3 C10_3 1_555 1_555
C11_3 N4_3 1_555 1_555
C12_3 C3_3 1_555 1_555
H9_3 C12_3 1_555 1_555
H10_3 C12_3 1_555 1_555
H11_3 C12_3 1_555 1_555
C13_3 N6_3 1_555 1_555
C14_3 C2_3 1_555 1_555
H12_3 C14_3 1_555 1_555
H13_3 C14_3 1_555 1_555
H14_3 C14_3 1_555 1_555
Zn3_3 O2_3 1_555 1_555
Zn5_3 O3_3 1_555 1_555
O7_3 Zn1_3 1_555 1_555
O8_3 Zn4 1_555 1_555
N8_3 Zn1_3 1_555 1_555
N9_3 Zn4 1_555 1_555
N2_3 Zn3_3 1_555 1_555
C1_3 C8_3 1_555 1_555
C1_3 C11_3 1_555 1_555
C5_3 C10_3 1_555 1_555
C5_3 C13_3 1_555 1_555
Zn3_3 O1_4 1_555 1_555
Zn5_2 O4_4 1_555 1_555
O1_4 C6_4 1_555 1_555
O2_4 C6_4 1_555 1_555
O3_4 C9_4 1_555 1_555
O4_4 C9_4 1_555 1_555
N1_2 N9 1_555 1_555
N2_4 N3_4 1_555 1_555
N3_4 Zn3_3 1_555 1_555
N4_4 H1_4 1_555 1_555
N9 C7_4 1_555 1_555
N6_4 H2_4 1_555 1_555
O6_4 C13_4 1_555 1_555
C1_4 C4_4 1_555 1_555
C2_4 N4_4 1_555 1_555
H3_4 C2_4 1_555 1_555
C3_4 N6_4 1_555 1_555
H4_4 C3_4 1_555 1_555
C4_4 N2_4 1_555 1_555
C5_4 C7_4 1_555 1_555
C6_4 C3_4 1_555 1_555
C7_4 H6_4 1_555 1_555
C8_4 N3_4 1_555 1_555
H7_4 C8_4 1_555 1_555
C9_4 C2_4 1_555 1_555
C10_4 N1_2 1_555 1_555
H8_4 C10_4 1_555 1_555
C11_4 N4_4 1_555 1_555
C12_4 C3_4 1_555 1_555
H9_4 C12_4 1_555 1_555
H10_4 C12_4 1_555 1_555
H11_4 C12_4 1_555 1_555
C13_4 N6_4 1_555 1_555
C14_4 C2_4 1_555 1_555
H12_4 C14_4 1_555 1_555
Zn3_4 O2_4 1_555 1_555
N9_4 Zn5_2 1_555 1_555
N2_4 Zn3_4 1_555 1_555
C1_4 C8_4 1_555 1_555
C1_4 C11_4 1_555 1_555
C5_4 C10_4 1_555 1_555
C5_4 C13_4 1_555 1_555
Zn3 O1_5 1_555 1_555
O1_5 C6_5 1_555 1_555
O2_5 C6_5 1_555 1_555
N7_3 N9_2 1_555 1_555
N9_2 C7_5 1_555 1_555
N6_5 H2_5 1_555 1_555
O6_5 C13_5 1_555 1_555
C3_5 N6_5 1_555 1_555
H4_5 C3_5 1_555 1_555
C5_5 C7_5 1_555 1_555
C6_5 C3_5 1_555 1_555
C7_5 H6_5 1_555 1_555
C10_5 N7_3 1_555 1_555
H8_5 C10_5 1_555 1_555
C12_5 C3_5 1_555 1_555
H9_5 C12_5 1_555 1_555
H10_5 C12_5 1_555 1_555
H11_5 C12_5 1_555 1_555
C13_5 N6_5 1_555 1_555
Zn3_5 O2_5 1_555 1_555
C5_5 C10_5 1_555 1_555
C5_5 C13_5 1_555 1_555
Zn5_3 O4_5 1_555 1_555
O3_5 C9_5 1_555 1_555
O4_5 C9_5 1_555 1_555
N2_5 N3_5 1_555 1_555
N4_5 H1_5 1_555 1_555
C1_5 C4_5 1_555 1_555
C2_5 N4_5 1_555 1_555
H3_5 C2_5 1_555 1_555
C4_5 N2_5 1_555 1_555
C8_5 N3_5 1_555 1_555
H7_5 C8_5 1_555 1_555
C9_5 C2_5 1_555 1_555
C11_5 N4_5 1_555 1_555
C14_5 C2_5 1_555 1_555
H12_5 C14_5 1_555 1_555
H13_5 C14_5 1_555 1_555
N7_4 Zn5_3 1_555 1_555
N9_5 Zn5_3 1_555 1_555
C1_5 C8_5 1_555 1_555
C1_5 C11_5 1_555 1_555
Zn5 O4_6 1_555 1_555
O3_6 C9_6 1_555 1_555
O4_6 C9_6 1_555 1_555
N2_6 N3_6 1_555 1_555
N4_6 H1_6 1_555 1_555
C1_6 C4_6 1_555 1_555
C2_6 N4_6 1_555 1_555
H3_6 C2_6 1_555 1_555
C4_6 N2_6 1_555 1_555
C8_6 N3_6 1_555 1_555
H7_6 C8_6 1_555 1_555
C9_6 C2_6 1_555 1_555
C11_6 N4_6 1_555 1_555
C14_6 C2_6 1_555 1_555
H12_6 C14_6 1_555 1_555
N9_6 Zn5 1_555 1_555
C1_6 C8_6 1_555 1_555
C1_6 C11_6 1_555 1_555
Zn3_2 O1_6 1_555 1_555
O1_6 C6_6 1_555 1_555
O2_6 C6_6 1_555 1_555
N7_4 N9_3 1_555 1_555
N9_3 C7_6 1_555 1_555
N6_6 H2_6 1_555 1_555
O6_6 C13_6 1_555 1_555
C3_6 N6_6 1_555 1_555
H4_6 C3_6 1_555 1_555
C5_6 C7_6 1_555 1_555
C6_6 C3_6 1_555 1_555
C7_6 H6_6 1_555 1_555
C10_6 N7_4 1_555 1_555
H8_6 C10_6 1_555 1_555
C12_6 C3_6 1_555 1_555
H9_6 C12_6 1_555 1_555
H10_6 C12_6 1_555 1_555
H11_6 C12_6 1_555 1_555
C13_6 N6_6 1_555 1_555
Zn3_6 O2_6 1_555 1_555
C5_6 C10_6 1_555 1_555
C5_6 C13_6 1_555 1_555
O7_2 C6_7 1_555 1_555
O6_7 C13_7 1_555 1_555
C3_7 N6_7 1_555 1_555
H4_7 C3_7 1_555 1_555
C6_7 C3_7 1_555 1_555
C10_7 N1_3 1_555 1_555
H8_7 C10_7 1_555 1_555
C13_7 N6_7 1_555 1_555
C5_7 C10_7 1_555 1_555
C5_7 C13_7 1_555 1_555
N9_4 C7_7 1_555 1_555
C7_7 H6_7 1_555 1_555
H9_7 C12_7 1_555 1_555
H10_7 C12_7 1_555 1_555
H11_7 C12_7 1_555 1_555
Zn6 O4_7 1_555 1_555
O8_3 C9_7 1_555 1_555
O4_7 C9_7 1_555 1_555
N8_2 N3_7 1_555 1_555
O5_5 C11_7 1_555 1_555
N4_7 H1_7 1_555 1_555
C1_7 C4_7 1_555 1_555
C2_7 N4_7 1_555 1_555
H3_7 C2_7 1_555 1_555
C4_7 N8_2 1_555 1_555
H5_5 C4_7 1_555 1_555
C8_7 N3_7 1_555 1_555
H7_7 C8_7 1_555 1_555
C9_7 C2_7 1_555 1_555
C11_7 N4_7 1_555 1_555
C14_7 C2_7 1_555 1_555
H12_7 C14_7 1_555 1_555
H13_7 C14_7 1_555 1_555
H14_5 C14_7 1_555 1_555
N7_5 Zn6 1_555 1_555
C1_7 C8_7 1_555 1_555
C1_7 C11_7 1_555 1_555
Zn6_2 O4_8 1_555 1_555
O7_3 C6_8 1_555 1_555
O8 C9_8 1_555 1_555
O4_8 C9_8 1_555 1_555
N8_3 N3_8 1_555 1_555
O5_6 C11_8 1_555 1_555
N4_8 H1_8 1_555 1_555
O6_8 C13_8 1_555 1_555
C1_8 C4_8 1_555 1_555
C2_8 N4_8 1_555 1_555
H3_8 C2_8 1_555 1_555
C3_8 N6_8 1_555 1_555
H4_8 C3_8 1_555 1_555
C4_8 N8_3 1_555 1_555
H5_6 C4_8 1_555 1_555
C6_8 C3_8 1_555 1_555
C8_8 N3_8 1_555 1_555
H7_8 C8_8 1_555 1_555
C9_8 C2_8 1_555 1_555
C10_8 N7_5 1_555 1_555
H8_8 C10_8 1_555 1_555
C11_8 N4_8 1_555 1_555
C13_8 N6_8 1_555 1_555
C14_8 C2_8 1_555 1_555
H12_8 C14_8 1_555 1_555
H13_8 C14_8 1_555 1_555
H14_6 C14_8 1_555 1_555
C1_8 C8_8 1_555 1_555
C1_8 C11_8 1_555 1_555
C5_8 C10_8 1_555 1_555
C5_8 C13_8 1_555 1_555
Zn3_4 O1_8 1_555 1_555
N9_5 C7_8 1_555 1_555
C7_8 H6_8 1_555 1_555
H9_8 C12_8 1_555 1_555
H10_8 C12_8 1_555 1_555
H11_8 C12_8 1_555 1_555
Zn6_3 O4_9 1_555 1_555
O8_2 C9_9 1_555 1_555
O4_9 C9_9 1_555 1_555
N8 N3_9 1_555 1_555
O5_7 C11_9 1_555 1_555
N4_9 H1_9 1_555 1_555
C1_9 C4_9 1_555 1_555
C2_9 N4_9 1_555 1_555
H3_9 C2_9 1_555 1_555
C4_9 N8 1_555 1_555
H5_7 C4_9 1_555 1_555
C8_9 N3_9 1_555 1_555
H7_9 C8_9 1_555 1_555
C9_9 C2_9 1_555 1_555
C11_9 N4_9 1_555 1_555
C14_9 C2_9 1_555 1_555
H12_9 C14_9 1_555 1_555
H13_9 C14_9 1_555 1_555
H14_7 C14_9 1_555 1_555
C1_9 C8_9 1_555 1_555
C1_9 C11_9 1_555 1_555
O7 C6_9 1_555 1_555
O6_9 C13_9 1_555 1_555
C3_9 N6_9 1_555 1_555
H4_9 C3_9 1_555 1_555
C6_9 C3_9 1_555 1_555
C10_9 N7_6 1_555 1_555
H8_9 C10_9 1_555 1_555
C13_9 N6_9 1_555 1_555
C5_9 C10_9 1_555 1_555
C5_9 C13_9 1_555 1_555
N9_6 C7_9 1_555 1_555
C7_9 H6_9 1_555 1_555
H9_9 C12_9 1_555 1_555
H10_9 C12_9 1_555 1_555
H11_9 C12_9 1_555 1_555

#END
