
###############################################################################
#
# This file contains modified crystal structure data generated from the
# MOF subset of the Cambridge Structural Database (CSD) v543 
# hosted by the Cambridge Crystallographic Data Centre (CCDC).
#
# This work is licensed under the Creative Commons
# Attribution-NonCommercial-ShareAlike 4.0 International License.
# To view a copy of this license, visit
# http://creativecommons.org/licenses/by-nc-sa/4.0/
# or send a letter to
# Creative Commons, PO Box 1866, Mountain View, CA 94042, USA.
#
# CIF created using the CSD Python API on 29 September 2022
# The structure has been converted into the P1 space group
# The structure has a 3D framework
# The original CSD entry VUWXIX is in the rhombohedral crystal system
# The framework has been calculated to contain at least 10.0% void space
# The void calculation uses a probe of radius 1.32A, grid spacing 0.4
#
###############################################################################

data_VUWXIX
_chemical_formula_moiety         '(C108 H90 N54 O47 Zn13)n'
_symmetry_cell_setting           triclinic
_symmetry_space_group_name_H-M   'P 1'
_symmetry_Int_Tables_number      1
_space_group_name_Hall           'P 1'
loop_
_symmetry_equiv_pos_site_id
_symmetry_equiv_pos_as_xyz
1 x,y,z
_cell_length_a                   26.4227(7)
_cell_length_b                   26.4227(7)
_cell_length_c                   10.1231(2)
_cell_angle_alpha                90
_cell_angle_beta                 90
_cell_angle_gamma                120
_cell_volume                     6120.66
loop_
_atom_site_label
_atom_site_type_symbol
_atom_site_fract_x
_atom_site_fract_y
_atom_site_fract_z
N4 N 0.2959(7) 0.0165(4) 0.3447(8)
O5 O 0.4241(3) 0.0454(5) 0.2673(7)
Zn4 Zn 0.35187(4) 0.02861(6) 0.95720(11)
Zn1 Zn 0.34340(4) 0.98146(4) 0.29053(11)
N1 N 0.3147(4) 0.9286(4) 0.1380(8)
N2 N 0.2070(3) 0.7463(4) 0.0662(8)
H1 H 0.2183 0.7549 0.1490
N3 N 0.3168(4) 0.9460(6) 0.0114(8)
O3 O 0.0908(3) 0.7121(4) 0.1006(7)
C1 C 0.2682(4) 0.8481(4) 0.0146(10)
C3 C 0.1623(4) 0.6885(4) 0.0304(9)
H2 H 0.1602 0.6604 0.0981
C4 C 0.2855(4) 0.8712(4) 0.1420(10)
H4 H 0.2772 0.8486 0.2203
C5 C 0.1036(4) 0.6842(4) 0.0187(9)
Zn3 Zn 0.01007(4) 0.69527(6) 0.12386(11)
O4 O 0.3487(3) 0.9322(3) 0.4283(6)
O1 O 0.0678(3) 0.6513(3) 0.9283(6)
O2 O 0.2228(3) 0.7751(3) 0.8535(7)
C2 C 0.2317(4) 0.7876(4) 0.9707(10)
H3 H 0.1725 0.6776 0.9450
C6 C 0.2897(4) 0.8973(4) 0.9370(11)
H5 H 0.2859 0.8970 0.8437
Zn2 Zn 0.01854(4) 0.65660(4) 0.79053(11)
Zn1_2 Zn 0.01854(4) 0.36194(6) 0.29053(11)
N1_2 N 0.0714(4) 0.3861(6) 0.1380(8)
N2_2 N 0.2537(4) 0.4607(5) 0.0662(8)
H1_2 H 0.2451 0.4634 0.1490
N3_2 N 0.0540(6) 0.3708(7) 0.0114(8)
O3_2 O 0.2879(4) 0.3787(5) 0.1006(7)
C1_2 C 0.1519(4) 0.4201(6) 0.0146(10)
C3_2 C 0.3115(4) 0.4738(6) 0.0304(9)
H2_2 H 0.3396 0.4998 0.0981
C4_2 C 0.1288(4) 0.4143(6) 0.1420(10)
H4_2 H 0.1514 0.4286 0.2203
C5_2 C 0.3158(4) 0.4194(6) 0.0187(9)
Zn3_2 Zn 0.30473(6) 0.31479(7) 0.12386(11)
O4_2 O 0.0678(3) 0.4165(4) 0.4283(6)
O1_2 O 0.3487(3) 0.4165(4) 0.9283(6)
O2_2 O 0.2249(3) 0.4477(4) 0.8535(7)
C2_2 C 0.2124(4) 0.4441(6) 0.9707(10)
H3_2 H 0.3224 0.4949 0.9450
C6_2 C 0.1027(4) 0.3924(6) 0.9370(11)
H5_2 H 0.1030 0.3889 0.8437
Zn2_2 Zn 0.34340(4) 0.36194(6) 0.79053(11)
N4_2 N 0.9835(4) 0.2793(8) 0.3447(8)
O5_2 O 0.9546(5) 0.3788(6) 0.2673(7)
Zn4_2 Zn 0.97139(6) 0.32327(7) 0.95720(11)
Zn1_3 Zn 0.63806(6) 0.65660(4) 0.29053(11)
N1_3 N 0.6139(6) 0.6853(4) 0.1380(8)
N2_3 N 0.5393(5) 0.7930(3) 0.0662(8)
H1_3 H 0.5366 0.7817 0.1490
N3_3 N 0.6292(7) 0.6832(4) 0.0114(8)
O3_3 O 0.6213(5) 0.9092(3) 0.1006(7)
C1_3 C 0.5799(6) 0.7318(4) 0.0146(10)
C3_3 C 0.5262(6) 0.8377(4) 0.0304(9)
H2_3 H 0.5002 0.8398 0.0981
C4_3 C 0.5857(6) 0.7145(4) 0.1420(10)
H4_3 H 0.5714 0.7228 0.2203
C5_3 C 0.5806(6) 0.8964(4) 0.0187(9)
Zn3_3 Zn 0.68521(7) 0.98993(4) 0.12386(11)
O4_3 O 0.5835(4) 0.6513(3) 0.4283(6)
N4_3 N 0.7207(8) 0.7041(7) 0.3447(8)
O5_3 O 0.6212(6) 0.5759(3) 0.2673(7)
O1_3 O 0.5835(4) 0.9322(3) 0.9283(6)
O2_3 O 0.5523(4) 0.7772(3) 0.8535(7)
C2_3 C 0.5559(6) 0.7683(4) 0.9707(10)
H3_3 H 0.5051 0.8275 0.9450
C6_3 C 0.6076(6) 0.7103(4) 0.9370(11)
H5_3 H 0.6111 0.7141 0.8437
Zn2_3 Zn 0.63806(6) 0.98146(4) 0.79053(11)
Zn4_3 Zn 0.67673(7) 0.64813(4) 0.95720(11)
Zn4_4 Zn 0.67673(7) 0.02861(6) 0.45720(11)
N4_4 N 0.7207(8) 0.0165(4) 0.8447(8)
O5_4 O 0.6212(6) 0.0454(5) 0.7673(7)
N1_4 N 0.6139(6) 0.9286(4) 0.6380(8)
N2_4 N 0.5393(5) 0.7463(4) 0.5662(8)
H1_4 H 0.5366 0.7549 0.6490
O2_4 O 0.5523(4) 0.7751(3) 0.3535(7)
N3_4 N 0.6292(7) 0.9460(6) 0.5114(8)
O3_4 O 0.6213(5) 0.7121(4) 0.6006(7)
C1_4 C 0.5799(6) 0.8481(4) 0.5146(10)
C2_4 C 0.5559(6) 0.7876(4) 0.4707(10)
C3_4 C 0.5262(6) 0.6885(4) 0.5304(9)
H2_4 H 0.5002 0.6604 0.5981
H3_4 H 0.5051 0.6776 0.4450
C4_4 C 0.5857(6) 0.8712(4) 0.6420(10)
H4_4 H 0.5714 0.8486 0.7203
C5_4 C 0.5806(6) 0.6842(4) 0.5187(9)
C6_4 C 0.6076(6) 0.8973(4) 0.4370(11)
H5_4 H 0.6111 0.8970 0.3437
Zn3_4 Zn 0.68521(7) 0.69527(6) 0.62386(11)
N1_5 N 0.3147(4) 0.3861(6) 0.6380(8)
N2_5 N 0.2070(3) 0.4607(5) 0.5662(8)
H1_5 H 0.2183 0.4634 0.6490
O2_5 O 0.2228(3) 0.4477(4) 0.3535(7)
N3_5 N 0.3168(4) 0.3708(7) 0.5114(8)
O3_5 O 0.0908(3) 0.3787(5) 0.6006(7)
C1_5 C 0.2682(4) 0.4201(6) 0.5146(10)
C2_5 C 0.2317(4) 0.4441(6) 0.4707(10)
C3_5 C 0.1623(4) 0.4738(6) 0.5304(9)
H2_5 H 0.1602 0.4998 0.5981
H3_5 H 0.1725 0.4949 0.4450
C4_5 C 0.2855(4) 0.4143(6) 0.6420(10)
H4_5 H 0.2772 0.4286 0.7203
C5_5 C 0.1036(4) 0.4194(6) 0.5187(9)
C6_5 C 0.2897(4) 0.3924(6) 0.4370(11)
H5_5 H 0.2859 0.3889 0.3437
Zn3_5 Zn 0.01007(4) 0.31479(7) 0.62386(11)
Zn4_5 Zn 0.35187(4) 0.32327(7) 0.45720(11)
N4_5 N 0.2959(7) 0.2793(8) 0.8447(8)
O5_5 O 0.4241(3) 0.3788(6) 0.7673(7)
N1_6 N 0.0714(4) 0.6853(4) 0.6380(8)
N2_6 N 0.2537(4) 0.7930(3) 0.5662(8)
H1_6 H 0.2451 0.7817 0.6490
O2_6 O 0.2249(3) 0.7772(3) 0.3535(7)
N3_6 N 0.0540(6) 0.6832(4) 0.5114(8)
O3_6 O 0.2879(4) 0.9092(3) 0.6006(7)
C1_6 C 0.1519(4) 0.7318(4) 0.5146(10)
C2_6 C 0.2124(4) 0.7683(4) 0.4707(10)
C3_6 C 0.3115(4) 0.8377(4) 0.5304(9)
H2_6 H 0.3396 0.8398 0.5981
H3_6 H 0.3224 0.8275 0.4450
C4_6 C 0.1288(4) 0.7145(4) 0.6420(10)
H4_6 H 0.1514 0.7228 0.7203
C5_6 C 0.3158(4) 0.8964(4) 0.5187(9)
C6_6 C 0.1027(4) 0.7103(4) 0.4370(11)
H5_6 H 0.1030 0.7141 0.3437
Zn3_6 Zn 0.30473(6) 0.98993(4) 0.62386(11)
Zn4_6 Zn 0.97139(6) 0.64813(4) 0.45720(11)
N4_6 N 0.9835(4) 0.7041(7) 0.8447(8)
O5_6 O 0.9546(5) 0.5759(3) 0.7673(7)
O4_4 O 0.0154(3) 0.2655(3) 0.7616(6)
N1_7 N 0.9814(4) 0.2619(4) 0.4713(8)
N2_7 N 0.8737(3) 0.0796(4) 0.3995(8)
H1_7 H 0.8850 0.0882 0.4823
O2_7 O 0.8895(3) 0.1084(3) 0.1868(7)
O3_7 O 0.7575(3) 0.0454(4) 0.4339(7)
C1_7 C 0.9349(4) 0.1814(4) 0.3479(10)
C2_7 C 0.8984(4) 0.1209(4) 0.3040(10)
C3_7 C 0.8290(4) 0.0218(4) 0.3637(9)
H3_7 H 0.8392 0.0109 0.2783
C4_7 C 0.9522(4) 0.2045(4) 0.4753(10)
H4_7 H 0.9439 0.1819 0.5536
C5_7 C 0.7703(4) 0.0175(4) 0.3520(9)
C6_7 C 0.9564(4) 0.2306(4) 0.2703(11)
H5_7 H 0.9526 0.2303 0.1770
N4_7 N 0.9625(7) 0.3499(4) 0.6781(8)
O1_4 O 0.7345(3) 0.9846(3) 0.2616(6)
H2_7 H 0.8269 0.9937 0.4314
O1_5 O 0.0154(3) 0.7498(4) 0.2616(6)
H2_8 H 0.0063 0.8331 0.4314
N1_8 N 0.7381(4) 0.7194(6) 0.4713(8)
N2_8 N 0.9204(4) 0.7940(5) 0.3995(8)
H1_8 H 0.9118 0.7967 0.4823
O2_8 O 0.8916(3) 0.7810(4) 0.1868(7)
O3_8 O 0.9546(4) 0.7120(5) 0.4339(7)
C1_8 C 0.8186(4) 0.7534(6) 0.3479(10)
C2_8 C 0.8791(4) 0.7774(6) 0.3040(10)
C3_8 C 0.9782(4) 0.8071(6) 0.3637(9)
H3_8 H 0.9891 0.8282 0.2783
C4_8 C 0.7955(4) 0.7476(6) 0.4753(10)
H4_8 H 0.8181 0.7619 0.5536
C5_8 C 0.9825(4) 0.7527(6) 0.3520(9)
C6_8 C 0.7694(4) 0.7257(6) 0.2703(11)
H5_8 H 0.7697 0.7222 0.1770
O4_5 O 0.7345(3) 0.7498(4) 0.7616(6)
N4_8 N 0.6501(4) 0.6127(8) 0.6781(8)
O1_6 O 0.2502(4) 0.2655(3) 0.2616(6)
N1_9 N 0.2806(6) 0.0186(4) 0.4713(8)
N2_9 N 0.2060(5) 0.1263(3) 0.3995(8)
H1_9 H 0.2033 0.1150 0.4823
O2_9 O 0.2190(4) 0.1105(3) 0.1868(7)
O3_9 O 0.2880(5) 0.2425(3) 0.4339(7)
C1_9 C 0.2466(6) 0.0651(4) 0.3479(10)
C2_9 C 0.2226(6) 0.1016(4) 0.3040(10)
C3_9 C 0.1929(6) 0.1710(4) 0.3637(9)
H2_9 H 0.1669 0.1731 0.4314
H3_9 H 0.1718 0.1608 0.2783
C4_9 C 0.2524(6) 0.0478(4) 0.4753(10)
H4_9 H 0.2381 0.0561 0.5536
C5_9 C 0.2473(6) 0.2297(4) 0.3520(9)
C6_9 C 0.2743(6) 0.0436(4) 0.2703(11)
H5_9 H 0.2778 0.0474 0.1770
N4_9 N 0.3873(8) 0.0375(7) 0.6781(8)
O4_6 O 0.2502(4) 0.9846(3) 0.7616(6)
H4_10 H 0.2381 0.1819 0.0536
N4_10 N 0.3873(8) 0.3499(4) 0.1781(8)
N1_10 N 0.2806(6) 0.2619(4) 0.9713(8)
N2_10 N 0.2060(5) 0.0796(4) 0.8995(8)
H1_10 H 0.2033 0.0882 0.9823
O2_10 O 0.2190(4) 0.1084(3) 0.6868(7)
O3_10 O 0.2880(5) 0.0454(4) 0.9339(7)
C1_10 C 0.2466(6) 0.1814(4) 0.8479(10)
C2_10 C 0.2226(6) 0.1209(4) 0.8040(10)
C3_10 C 0.1929(6) 0.0218(4) 0.8637(9)
H3_10 H 0.1718 0.0109 0.7783
C4_10 C 0.2524(6) 0.2045(4) 0.9753(10)
C5_10 C 0.2473(6) 0.0175(4) 0.8520(9)
C6_10 C 0.2743(6) 0.2306(4) 0.7703(11)
H5_10 H 0.2778 0.2303 0.6770
H2_10 H 0.1669 0.9937 0.9314
H4_11 H 0.9439 0.7619 0.0536
N4_11 N 0.9625(7) 0.6127(8) 0.1781(8)
N1_11 N 0.9814(4) 0.7194(6) 0.9713(8)
N2_11 N 0.8737(3) 0.7940(5) 0.8995(8)
H1_11 H 0.8850 0.7967 0.9823
O2_11 O 0.8895(3) 0.7810(4) 0.6868(7)
O3_11 O 0.7575(3) 0.7120(5) 0.9339(7)
C1_11 C 0.9349(4) 0.7534(6) 0.8479(10)
C2_11 C 0.8984(4) 0.7774(6) 0.8040(10)
C3_11 C 0.8290(4) 0.8071(6) 0.8637(9)
H2_11 H 0.8269 0.8331 0.9314
H3_11 H 0.8392 0.8282 0.7783
C4_11 C 0.9522(4) 0.7476(6) 0.9753(10)
C5_11 C 0.7703(4) 0.7527(6) 0.8520(9)
C6_11 C 0.9564(4) 0.7257(6) 0.7703(11)
H5_11 H 0.9526 0.7222 0.6770
H2_12 H 0.0063 0.1731 0.9314
H4_12 H 0.8181 0.0561 0.0536
N4_12 N 0.6501(4) 0.0375(7) 0.1781(8)
N1_12 N 0.7381(4) 0.0186(4) 0.9713(8)
N2_12 N 0.9204(4) 0.1263(3) 0.8995(8)
H1_12 H 0.9118 0.1150 0.9823
O2_12 O 0.8916(3) 0.1105(3) 0.6868(7)
O3_12 O 0.9546(4) 0.2425(3) 0.9339(7)
C1_12 C 0.8186(4) 0.0651(4) 0.8479(10)
C2_12 C 0.8791(4) 0.1016(4) 0.8040(10)
C3_12 C 0.9782(4) 0.1710(4) 0.8637(9)
H3_12 H 0.9891 0.1608 0.7783
C4_12 C 0.7955(4) 0.0478(4) 0.9753(10)
C5_12 C 0.9825(4) 0.2297(4) 0.8520(9)
C6_12 C 0.7694(4) 0.0436(4) 0.7703(11)
H5_12 H 0.7697 0.0474 0.6770
O4_7 O 0.6820(3) 0.5989(3) 0.0950(6)
O1_7 O 0.4011(3) 0.3180(3) 0.5950(6)
N1_13 N 0.6480(4) 0.5953(4) 0.8047(8)
N2_13 N 0.5403(3) 0.4130(4) 0.7329(8)
H1_13 H 0.5516 0.4216 0.8157
O2_13 O 0.5561(3) 0.4418(3) 0.5202(7)
C1_13 C 0.6015(4) 0.5148(4) 0.6813(10)
C2_13 C 0.5650(4) 0.4543(4) 0.6374(10)
C3_13 C 0.4956(4) 0.3552(4) 0.6971(9)
H2_13 H 0.4935 0.3271 0.7648
H3_13 H 0.5058 0.3443 0.6117
C4_13 C 0.6188(4) 0.5379(4) 0.8087(10)
H4_13 H 0.6105 0.5153 0.8870
C5_13 C 0.4369(4) 0.3509(4) 0.6854(9)
C6_13 C 0.6230(4) 0.5640(4) 0.6037(11)
H5_13 H 0.6192 0.5637 0.5104
O4_8 O 0.4011(3) 0.0832(4) 0.0950(6)
O1_8 O 0.6820(3) 0.0832(4) 0.5950(6)
N1_14 N 0.4047(4) 0.0528(6) 0.8047(8)
N2_14 N 0.5870(4) 0.1274(5) 0.7329(8)
H1_14 H 0.5784 0.1301 0.8157
O2_14 O 0.5582(3) 0.1144(4) 0.5202(7)
C1_14 C 0.4852(4) 0.0868(6) 0.6813(10)
C2_14 C 0.5457(4) 0.1108(6) 0.6374(10)
C3_14 C 0.6448(4) 0.1405(6) 0.6971(9)
H2_14 H 0.6729 0.1665 0.7648
H3_14 H 0.6557 0.1616 0.6117
C4_14 C 0.4621(4) 0.0810(6) 0.8087(10)
H4_14 H 0.4847 0.0953 0.8870
C5_14 C 0.6491(4) 0.0861(6) 0.6854(9)
C6_14 C 0.4360(4) 0.0591(6) 0.6037(11)
H5_14 H 0.4363 0.0556 0.5104
O4_9 O 0.9168(4) 0.3180(3) 0.0950(6)
O1_9 O 0.9168(4) 0.5989(3) 0.5950(6)
N1_15 N 0.9472(6) 0.3520(4) 0.8047(8)
N2_15 N 0.8726(5) 0.4597(3) 0.7329(8)
H1_15 H 0.8699 0.4484 0.8157
O2_15 O 0.8856(4) 0.4439(3) 0.5202(7)
C1_15 C 0.9132(6) 0.3985(4) 0.6813(10)
C2_15 C 0.8892(6) 0.4350(4) 0.6374(10)
C3_15 C 0.8595(6) 0.5044(4) 0.6971(9)
H2_15 H 0.8335 0.5065 0.7648
H3_15 H 0.8384 0.4942 0.6117
C4_15 C 0.9190(6) 0.3812(4) 0.8087(10)
H4_15 H 0.9047 0.3895 0.8870
C5_15 C 0.9139(6) 0.5631(4) 0.6854(9)
C6_15 C 0.9409(6) 0.3770(4) 0.6037(11)
H5_15 H 0.9444 0.3808 0.5104
N1_16 N 0.9472(6) 0.5953(4) 0.3047(8)
N2_16 N 0.8726(5) 0.4130(4) 0.2329(8)
H1_16 H 0.8699 0.4216 0.3157
O2_16 O 0.8856(4) 0.4418(3) 0.0202(7)
C1_16 C 0.9132(6) 0.5148(4) 0.1813(10)
C2_16 C 0.8892(6) 0.4543(4) 0.1374(10)
C3_16 C 0.8595(6) 0.3552(4) 0.1971(9)
H2_16 H 0.8335 0.3271 0.2648
H3_16 H 0.8384 0.3443 0.1117
C4_16 C 0.9190(6) 0.5379(4) 0.3087(10)
H4_16 H 0.9047 0.5153 0.3870
C5_16 C 0.9139(6) 0.3509(4) 0.1854(9)
C6_16 C 0.9409(6) 0.5640(4) 0.1037(11)
H5_16 H 0.9444 0.5637 0.0104
N1_17 N 0.6480(4) 0.0528(6) 0.3047(8)
N2_17 N 0.5403(3) 0.1274(5) 0.2329(8)
H1_17 H 0.5516 0.1301 0.3157
O2_17 O 0.5561(3) 0.1144(4) 0.0202(7)
C1_17 C 0.6015(4) 0.0868(6) 0.1813(10)
C2_17 C 0.5650(4) 0.1108(6) 0.1374(10)
C3_17 C 0.4956(4) 0.1405(6) 0.1971(9)
H2_17 H 0.4935 0.1665 0.2648
H3_17 H 0.5058 0.1616 0.1117
C4_17 C 0.6188(4) 0.0810(6) 0.3087(10)
H4_17 H 0.6105 0.0953 0.3870
C5_17 C 0.4369(4) 0.0861(6) 0.1854(9)
C6_17 C 0.6230(4) 0.0591(6) 0.1037(11)
H5_17 H 0.6192 0.0556 0.0104
N1_18 N 0.4047(4) 0.3520(4) 0.3047(8)
N2_18 N 0.5870(4) 0.4597(3) 0.2329(8)
H1_18 H 0.5784 0.4484 0.3157
O2_18 O 0.5582(3) 0.4439(3) 0.0202(7)
C1_18 C 0.4852(4) 0.3985(4) 0.1813(10)
C2_18 C 0.5457(4) 0.4350(4) 0.1374(10)
C3_18 C 0.6448(4) 0.5044(4) 0.1971(9)
H2_18 H 0.6729 0.5065 0.2648
H3_18 H 0.6557 0.4942 0.1117
C4_18 C 0.4621(4) 0.3812(4) 0.3087(10)
H4_18 H 0.4847 0.3895 0.3870
C5_18 C 0.6491(4) 0.5631(4) 0.1854(9)
C6_18 C 0.4360(4) 0.3770(4) 0.1037(11)
H5_18 H 0.4363 0.3808 0.0104
loop_
_geom_bond_atom_site_label_1
_geom_bond_atom_site_label_2
_geom_bond_site_symmetry_1
_geom_bond_site_symmetry_2
Zn1 N1 1_555 1_555
N1 N3 1_555 1_555
N2 H1 1_555 1_555
O3 C5 1_555 1_555
C3 N2 1_555 1_555
H2 C3 1_555 1_555
C4 N1 1_555 1_555
H4 C4 1_555 1_555
C5 C3 1_555 1_555
Zn3 O3 1_555 1_555
O4 Zn1 1_555 1_555
C1 C4 1_555 1_555
O2 C2 1_555 1_555
H5 C6 1_555 1_555
Zn2 O1 1_555 1_555
Zn1_2 N1_2 1_555 1_555
N1_2 N3_2 1_555 1_555
N2_2 H1_2 1_555 1_555
O3_2 C5_2 1_555 1_555
C3_2 N2_2 1_555 1_555
H2_2 C3_2 1_555 1_555
C4_2 N1_2 1_555 1_555
H4_2 C4_2 1_555 1_555
C5_2 C3_2 1_555 1_555
Zn3_2 O3_2 1_555 1_555
O4_2 Zn1_2 1_555 1_555
C1_2 C4_2 1_555 1_555
O2_2 C2_2 1_555 1_555
H5_2 C6_2 1_555 1_555
Zn2_2 O1_2 1_555 1_555
Zn1_3 N1_3 1_555 1_555
N1_3 N3_3 1_555 1_555
N2_3 H1_3 1_555 1_555
O3_3 C5_3 1_555 1_555
C3_3 N2_3 1_555 1_555
H2_3 C3_3 1_555 1_555
C4_3 N1_3 1_555 1_555
H4_3 C4_3 1_555 1_555
C5_3 C3_3 1_555 1_555
Zn3_3 O3_3 1_555 1_555
O4_3 Zn1_3 1_555 1_555
N4_3 Zn1_3 1_555 1_555
O5_3 Zn1_3 1_555 1_555
C1_3 C4_3 1_555 1_555
O2_3 C2_3 1_555 1_555
H5_3 C6_3 1_555 1_555
Zn2_3 O1_3 1_555 1_555
Zn2_3 N1_4 1_555 1_555
O4_3 C5_4 1_555 1_555
N1_4 N3_4 1_555 1_555
N2_4 H1_4 1_555 1_555
O2_4 C2_4 1_555 1_555
N3_4 C6_4 1_555 1_555
O3_4 C5_4 1_555 1_555
C1_4 C2_4 1_555 1_555
C2_4 N2_4 1_555 1_555
C3_4 N2_4 1_555 1_555
H2_4 C3_4 1_555 1_555
H3_4 C3_4 1_555 1_555
C4_4 N1_4 1_555 1_555
H4_4 C4_4 1_555 1_555
C5_4 C3_4 1_555 1_555
C6_4 C1_4 1_555 1_555
H5_4 C6_4 1_555 1_555
Zn3_4 O3_4 1_555 1_555
C1_4 C4_4 1_555 1_555
Zn2_2 N1_5 1_555 1_555
O4_2 C5_5 1_555 1_555
N1_5 N3_5 1_555 1_555
N2_5 H1_5 1_555 1_555
O2_5 C2_5 1_555 1_555
N3_5 C6_5 1_555 1_555
O3_5 C5_5 1_555 1_555
C1_5 C2_5 1_555 1_555
C2_5 N2_5 1_555 1_555
C3_5 N2_5 1_555 1_555
H2_5 C3_5 1_555 1_555
H3_5 C3_5 1_555 1_555
C4_5 N1_5 1_555 1_555
H4_5 C4_5 1_555 1_555
C5_5 C3_5 1_555 1_555
C6_5 C1_5 1_555 1_555
H5_5 C6_5 1_555 1_555
Zn3_5 O3_5 1_555 1_555
Zn4_5 N3_5 1_555 1_555
N4_5 Zn2_2 1_555 1_555
O5_5 Zn2_2 1_555 1_555
C1_5 C4_5 1_555 1_555
Zn2 N1_6 1_555 1_555
O4 C5_6 1_555 1_555
N1_6 N3_6 1_555 1_555
N2_6 H1_6 1_555 1_555
O2_6 C2_6 1_555 1_555
N3_6 C6_6 1_555 1_555
O3_6 C5_6 1_555 1_555
C1_6 C2_6 1_555 1_555
C2_6 N2_6 1_555 1_555
C3_6 N2_6 1_555 1_555
H2_6 C3_6 1_555 1_555
H3_6 C3_6 1_555 1_555
C4_6 N1_6 1_555 1_555
H4_6 C4_6 1_555 1_555
C5_6 C3_6 1_555 1_555
C6_6 C1_6 1_555 1_555
H5_6 C6_6 1_555 1_555
Zn3_6 O3_6 1_555 1_555
C1_6 C4_6 1_555 1_555
O4_4 Zn3_5 1_555 1_555
N1_7 N4_2 1_555 1_555
N2_7 H1_7 1_555 1_555
O2_7 C2_7 1_555 1_555
N4_2 C6_7 1_555 1_555
O3_7 C5_7 1_555 1_555
C1_7 C2_7 1_555 1_555
C2_7 N2_7 1_555 1_555
C3_7 N2_7 1_555 1_555
H3_7 C3_7 1_555 1_555
C4_7 N1_7 1_555 1_555
H4_7 C4_7 1_555 1_555
C5_7 C3_7 1_555 1_555
C6_7 C1_7 1_555 1_555
H5_7 C6_7 1_555 1_555
Zn4_4 O3_7 1_555 1_555
C1_7 C4_7 1_555 1_555
Zn3_3 O1_4 1_555 1_555
Zn3 O1_5 1_555 1_555
Zn3_4 N1_8 1_555 1_555
N1_8 N4_3 1_555 1_555
N2_8 H1_8 1_555 1_555
O2_8 C2_8 1_555 1_555
N4_3 C6_8 1_555 1_555
O3_8 C5_8 1_555 1_555
C1_8 C2_8 1_555 1_555
C2_8 N2_8 1_555 1_555
C3_8 N2_8 1_555 1_555
H3_8 C3_8 1_555 1_555
C4_8 N1_8 1_555 1_555
H4_8 C4_8 1_555 1_555
C5_8 C3_8 1_555 1_555
C6_8 C1_8 1_555 1_555
H5_8 C6_8 1_555 1_555
Zn4_6 O3_8 1_555 1_555
O4_5 Zn3_4 1_555 1_555
N4_8 Zn3_4 1_555 1_555
C1_8 C4_8 1_555 1_555
O1_6 C5_9 1_555 1_555
N1_9 N4 1_555 1_555
N2_9 H1_9 1_555 1_555
O2_9 C2_9 1_555 1_555
N4 C6_9 1_555 1_555
O3_9 C5_9 1_555 1_555
C1_9 C2_9 1_555 1_555
C2_9 N2_9 1_555 1_555
C3_9 N2_9 1_555 1_555
H2_9 C3_9 1_555 1_555
H3_9 C3_9 1_555 1_555
C4_9 N1_9 1_555 1_555
H4_9 C4_9 1_555 1_555
C5_9 C3_9 1_555 1_555
C6_9 C1_9 1_555 1_555
H5_9 C6_9 1_555 1_555
Zn3_2 O1_6 1_555 1_555
Zn4_5 O3_9 1_555 1_555
C1_9 C4_9 1_555 1_555
O4_6 Zn3_6 1_555 1_555
N4_10 Zn3_2 1_555 1_555
N1_10 N4_5 1_555 1_555
N2_10 H1_10 1_555 1_555
O2_10 C2_10 1_555 1_555
N4_5 C6_10 1_555 1_555
O3_10 C5_10 1_555 1_555
C1_10 C2_10 1_555 1_555
C2_10 N2_10 1_555 1_555
C3_10 N2_10 1_555 1_555
H3_10 C3_10 1_555 1_555
C4_10 N1_10 1_555 1_555
C5_10 C3_10 1_555 1_555
C6_10 C1_10 1_555 1_555
H5_10 C6_10 1_555 1_555
Zn4 O3_10 1_555 1_555
C1_10 C4_10 1_555 1_555
O4_5 C5_11 1_555 1_555
N1_11 N4_6 1_555 1_555
N2_11 H1_11 1_555 1_555
O2_11 C2_11 1_555 1_555
N4_6 C6_11 1_555 1_555
O3_11 C5_11 1_555 1_555
C1_11 C2_11 1_555 1_555
C2_11 N2_11 1_555 1_555
C3_11 N2_11 1_555 1_555
H2_11 C3_11 1_555 1_555
H3_11 C3_11 1_555 1_555
C4_11 N1_11 1_555 1_555
C5_11 C3_11 1_555 1_555
C6_11 C1_11 1_555 1_555
H5_11 C6_11 1_555 1_555
Zn4_3 O3_11 1_555 1_555
C1_11 C4_11 1_555 1_555
N1_12 N4_4 1_555 1_555
N2_12 H1_12 1_555 1_555
O2_12 C2_12 1_555 1_555
N4_4 C6_12 1_555 1_555
O3_12 C5_12 1_555 1_555
C1_12 C2_12 1_555 1_555
C2_12 N2_12 1_555 1_555
C3_12 N2_12 1_555 1_555
H3_12 C3_12 1_555 1_555
C4_12 N1_12 1_555 1_555
C5_12 C3_12 1_555 1_555
C6_12 C1_12 1_555 1_555
H5_12 C6_12 1_555 1_555
Zn4_2 O3_12 1_555 1_555
C1_12 C4_12 1_555 1_555
Zn4_3 N1_13 1_555 1_555
O1_7 C5_13 1_555 1_555
N1_13 N4_8 1_555 1_555
N2_13 H1_13 1_555 1_555
O2_13 C2_13 1_555 1_555
N4_8 C6_13 1_555 1_555
O5_5 C5_13 1_555 1_555
C1_13 C2_13 1_555 1_555
C2_13 N2_13 1_555 1_555
C3_13 N2_13 1_555 1_555
H2_13 C3_13 1_555 1_555
H3_13 C3_13 1_555 1_555
C4_13 N1_13 1_555 1_555
H4_13 C4_13 1_555 1_555
C5_13 C3_13 1_555 1_555
C6_13 C1_13 1_555 1_555
H5_13 C6_13 1_555 1_555
Zn4_5 O1_7 1_555 1_555
C1_13 C4_13 1_555 1_555
Zn4 N1_14 1_555 1_555
O1_8 C5_14 1_555 1_555
N1_14 N4_9 1_555 1_555
N2_14 H1_14 1_555 1_555
O2_14 C2_14 1_555 1_555
N4_9 C6_14 1_555 1_555
O5_4 C5_14 1_555 1_555
C1_14 C2_14 1_555 1_555
C2_14 N2_14 1_555 1_555
C3_14 N2_14 1_555 1_555
H2_14 C3_14 1_555 1_555
H3_14 C3_14 1_555 1_555
C4_14 N1_14 1_555 1_555
H4_14 C4_14 1_555 1_555
C5_14 C3_14 1_555 1_555
C6_14 C1_14 1_555 1_555
H5_14 C6_14 1_555 1_555
Zn4_4 O1_8 1_555 1_555
C1_14 C4_14 1_555 1_555
Zn4_2 N1_15 1_555 1_555
O1_9 C5_15 1_555 1_555
N1_15 N4_7 1_555 1_555
N2_15 H1_15 1_555 1_555
O2_15 C2_15 1_555 1_555
N4_7 C6_15 1_555 1_555
O5_6 C5_15 1_555 1_555
C1_15 C2_15 1_555 1_555
C2_15 N2_15 1_555 1_555
C3_15 N2_15 1_555 1_555
H2_15 C3_15 1_555 1_555
H3_15 C3_15 1_555 1_555
C4_15 N1_15 1_555 1_555
H4_15 C4_15 1_555 1_555
C5_15 C3_15 1_555 1_555
C6_15 C1_15 1_555 1_555
H5_15 C6_15 1_555 1_555
Zn4_6 O1_9 1_555 1_555
C1_15 C4_15 1_555 1_555
Zn4_6 N1_16 1_555 1_555
O4_9 C5_16 1_555 1_555
N1_16 N4_11 1_555 1_555
N2_16 H1_16 1_555 1_555
O2_16 C2_16 1_555 1_555
N4_11 C6_16 1_555 1_555
O5_2 C5_16 1_555 1_555
C1_16 C2_16 1_555 1_555
C2_16 N2_16 1_555 1_555
C3_16 N2_16 1_555 1_555
H2_16 C3_16 1_555 1_555
H3_16 C3_16 1_555 1_555
C4_16 N1_16 1_555 1_555
H4_16 C4_16 1_555 1_555
C5_16 C3_16 1_555 1_555
C6_16 C1_16 1_555 1_555
H5_16 C6_16 1_555 1_555
C1_16 C4_16 1_555 1_555
Zn4_4 N1_17 1_555 1_555
O4_8 C5_17 1_555 1_555
N1_17 N4_12 1_555 1_555
N2_17 H1_17 1_555 1_555
O2_17 C2_17 1_555 1_555
N4_12 C6_17 1_555 1_555
O5 C5_17 1_555 1_555
C1_17 C2_17 1_555 1_555
C2_17 N2_17 1_555 1_555
C3_17 N2_17 1_555 1_555
H2_17 C3_17 1_555 1_555
H3_17 C3_17 1_555 1_555
C4_17 N1_17 1_555 1_555
H4_17 C4_17 1_555 1_555
C5_17 C3_17 1_555 1_555
C6_17 C1_17 1_555 1_555
H5_17 C6_17 1_555 1_555
C1_17 C4_17 1_555 1_555
Zn4_5 N1_18 1_555 1_555
O4_7 C5_18 1_555 1_555
N1_18 N4_10 1_555 1_555
N2_18 H1_18 1_555 1_555
O2_18 C2_18 1_555 1_555
N4_10 C6_18 1_555 1_555
O5_3 C5_18 1_555 1_555
C1_18 C2_18 1_555 1_555
C2_18 N2_18 1_555 1_555
C3_18 N2_18 1_555 1_555
H2_18 C3_18 1_555 1_555
H3_18 C3_18 1_555 1_555
C4_18 N1_18 1_555 1_555
H4_18 C4_18 1_555 1_555
C5_18 C3_18 1_555 1_555
C6_18 C1_18 1_555 1_555
H5_18 C6_18 1_555 1_555
C1_18 C4_18 1_555 1_555

#END
