
###############################################################################
#
# This file contains modified crystal structure data generated from the
# MOF subset of the Cambridge Structural Database (CSD) v543 
# hosted by the Cambridge Crystallographic Data Centre (CCDC).
#
# This work is licensed under the Creative Commons
# Attribution-NonCommercial-ShareAlike 4.0 International License.
# To view a copy of this license, visit
# http://creativecommons.org/licenses/by-nc-sa/4.0/
# or send a letter to
# Creative Commons, PO Box 1866, Mountain View, CA 94042, USA.
#
# CIF created using the CSD Python API on 29 September 2022
# The structure has been converted into the P1 space group
# The structure has a 3D framework
# The original CSD entry VUWXUJ01 is in the rhombohedral crystal system
# The original CSD entry VUWXUJ01 is in a Sohncke space group
# The framework has been calculated to contain at least 10.0% void space
# The void calculation uses a probe of radius 1.32A, grid spacing 0.4
#
###############################################################################

data_VUWXUJ01
_chemical_formula_moiety         '(C126 H126 N54 O52 Zn18)n'
_symmetry_cell_setting           triclinic
_symmetry_space_group_name_H-M   'P 1'
_symmetry_Int_Tables_number      1
_space_group_name_Hall           'P 1'
loop_
_symmetry_equiv_pos_site_id
_symmetry_equiv_pos_as_xyz
1 x,y,z
_cell_length_a                   27.9972(4)
_cell_length_b                   27.9972(4)
_cell_length_c                   10.18666(17)
_cell_angle_alpha                90
_cell_angle_beta                 90
_cell_angle_gamma                120
_cell_volume                     6914.99
loop_
_atom_site_label
_atom_site_type_symbol
_atom_site_fract_x
_atom_site_fract_y
_atom_site_fract_z
Zn1 Zn 0.00443(2) 0.31270(2) 0.51893(3)
O1 O 0.00061(10) 0.26000(10) 0.6535(2)
H13 H 0.0326 0.1845 0.6820
O7 O 0.08344(10) 0.36587(17) 0.4977(2)
N9 N 0.64227(12) 0.02870(17) 0.0790(3)
N2 N 0.90740(12) 0.13619(12) 0.8063(3)
H2 H 0.8977 0.1250 0.8856
O2 O 0.94909(14) 0.24989(10) 0.8310(2)
C3 C 0.79055(15) 0.05847(14) 0.8794(3)
H4 H 0.8117 0.0665 0.9553
C4 C 0.86875(15) 0.11587(15) 0.7121(3)
C7 C 0.96534(14) 0.17649(15) 0.7806(3)
H6 H 0.9841 0.1811 0.8648
N4 N 0.73581(13) 0.02637(12) 0.8743(3)
N6 N 0.71977(12) 0.02440(12) 0.7457(3)
C8 C 0.81142(15) 0.07814(14) 0.7546(3)
C9 C 0.76475(15) 0.05534(15) 0.6747(3)
H7 H 0.7650 0.0610 0.5846
C13 C 0.9941(2) 0.1574(2) 0.6861(5)
H12 H 0.9899 0.1230 0.7159
H14 H 0.9781 0.1526 0.6004
O6 O 0.87973(11) 0.12771(12) 0.5943(2)
C14 C 0.97162(14) 0.23326(14) 0.7507(3)
Zn4 Zn 0.97494(3) 0.32890(2) 0.85226(3)
N7 N 0.96798(13) 0.35488(12) 0.5705(3)
N8 N 0.97291(12) 0.26410(18) 0.3669(3)
Zn2 Zn 0.68632(2) 0.99433(2) 0.02496(3)
H1 H 0.5643 0.7943 0.0500
C5 C 0.60170(15) 0.72540(14) 0.0389(3)
H5 H 0.5907 0.7352 0.1157
O3 O 0.63344(10) 0.91494(10) 0.0048(2)
N5 N 0.62453(13) 0.69376(12) 0.0336(3)
C12 C 0.50903(16) 0.84413(17) 0.0503(4)
H9 H 0.4756 0.8092 0.0563
H10 H 0.5002 0.8725 0.0324
H11 H 0.5287 0.8519 0.1319
Zn5 Zn 0.64160(3) 0.66224(2) 0.18560(3)
O8 O 0.73742(10) 0.99777(14) 0.1632(2)
N1 N 0.56209(12) 0.80234(12) 0.9696(3)
N3 N 0.63465(13) 0.68821(12) 0.9038(3)
C1 C 0.54466(15) 0.84227(14) 0.9404(3)
H3 H 0.5232 0.8314 0.8589
C2 C 0.59499(14) 0.89986(14) 0.9222(3)
C6 C 0.57478(15) 0.77771(15) 0.8728(3)
O4 O 0.59369(10) 0.92925(10) 0.8299(2)
O5 O 0.56814(12) 0.78471(12) 0.7553(2)
C10 C 0.59645(15) 0.74188(14) 0.9134(3)
C11 C 0.61792(15) 0.71728(15) 0.8322(3)
H8 H 0.6204 0.7205 0.7413
Zn3 Zn 0.67110(2) 0.64603(2) 0.85226(3)
Zn6 Zn 0.64134(3) 0.98035(2) 0.69163(3)
Zn3_2 Zn 0.35397(2) 0.02506(3) 0.85226(3)
Zn2_2 Zn 0.00567(2) 0.69199(3) 0.02496(3)
H1_2 H 0.2057 0.7700 0.0500
C5_2 C 0.27460(14) 0.87630(21) 0.0389(3)
H5_2 H 0.2648 0.8555 0.1157
O3_2 O 0.08506(10) 0.71850(14) 0.0048(2)
N5_2 N 0.30624(12) 0.93077(18) 0.0336(3)
C12_2 C 0.15587(17) 0.66490(23) 0.0503(4)
H9_2 H 0.1908 0.6664 0.0563
H10_2 H 0.1275 0.6277 0.0324
H11_2 H 0.1481 0.6768 0.1319
Zn5_2 Zn 0.33776(2) 0.97937(4) 0.18560(3)
O8_2 O 0.00223(14) 0.73964(17) 0.1632(2)
N1_2 N 0.19766(12) 0.75975(17) 0.9696(3)
N3_2 N 0.31179(12) 0.94644(18) 0.9038(3)
C1_2 C 0.15773(14) 0.70239(21) 0.9404(3)
H3_2 H 0.1686 0.6918 0.8589
C2_2 C 0.10014(14) 0.69513(20) 0.9222(3)
C6_2 C 0.22229(15) 0.79707(21) 0.8728(3)
O4_2 O 0.07075(10) 0.66444(14) 0.8299(2)
O5_2 O 0.21529(12) 0.78343(17) 0.7553(2)
C10_2 C 0.25812(14) 0.85457(21) 0.9134(3)
C11_2 C 0.28272(15) 0.90064(21) 0.8322(3)
H8_2 H 0.2795 0.8999 0.7413
Zn6_2 Zn 0.01965(2) 0.66100(4) 0.69163(3)
N9_2 N 0.97130(17) 0.61356(21) 0.0790(3)
Zn1_2 Zn 0.68730(2) 0.69173(3) 0.51893(3)
N2_2 N 0.86381(12) 0.77121(17) 0.8063(3)
H2_2 H 0.8750 0.7727 0.8856
O1_2 O 0.74000(10) 0.74061(14) 0.6535(2)
O2_2 O 0.75011(10) 0.69920(17) 0.8310(2)
C3_2 C 0.94153(14) 0.73208(21) 0.8794(3)
H4_2 H 0.9335 0.7452 0.9553
C4_2 C 0.88413(15) 0.75288(21) 0.7121(3)
C7_2 C 0.82351(15) 0.78885(21) 0.7806(3)
H6_2 H 0.8189 0.8030 0.8648
N4_2 N 0.97363(12) 0.70944(18) 0.8743(3)
N6_2 N 0.97560(12) 0.69537(17) 0.7457(3)
C8_2 C 0.92186(14) 0.73328(21) 0.7546(3)
C9_2 C 0.94466(15) 0.70941(21) 0.6747(3)
H7_2 H 0.9390 0.7040 0.5846
C13_2 C 0.8426(2) 0.8367(3) 0.6861(5)
H12_2 H 0.8770 0.8669 0.7159
H13_2 H 0.8155 0.8481 0.6820
H14_2 H 0.8474 0.8255 0.6004
O6_2 O 0.87229(12) 0.75202(16) 0.5943(2)
C14_2 C 0.76674(14) 0.73836(20) 0.7507(3)
N7_2 N 0.64512(12) 0.61311(18) 0.5705(3)
O7_2 O 0.63413(17) 0.71758(20) 0.4977(2)
N8_2 N 0.73590(18) 0.70880(22) 0.3669(3)
Zn2_3 Zn 0.30801(3) 0.31368(2) 0.02496(3)
H1_3 H 0.2300 0.4357 0.0500
C5_3 C 0.12370(21) 0.39830(15) 0.0389(3)
H5_3 H 0.1445 0.4093 0.1157
O3_3 O 0.28150(14) 0.36656(10) 0.0048(2)
N5_3 N 0.06923(18) 0.37547(13) 0.0336(3)
C12_3 C 0.33510(23) 0.49097(16) 0.0503(4)
H9_3 H 0.3336 0.5244 0.0563
H10_3 H 0.3723 0.4998 0.0324
H11_3 H 0.3232 0.4713 0.1319
Zn5_3 Zn 0.02063(4) 0.35840(3) 0.18560(3)
O8_3 O 0.26036(17) 0.26258(10) 0.1632(2)
N9_3 N 0.38644(21) 0.35773(12) 0.0790(3)
N1_3 N 0.24025(17) 0.43791(12) 0.9696(3)
N2_3 N 0.22879(17) 0.09260(12) 0.8063(3)
H2_3 H 0.2273 0.1023 0.8856
N3_3 N 0.05356(18) 0.36535(13) 0.9038(3)
C1_3 C 0.29761(21) 0.45534(15) 0.9404(3)
H3_3 H 0.3082 0.4768 0.8589
O2_3 O 0.30080(17) 0.05091(14) 0.8310(2)
C2_3 C 0.30487(20) 0.40501(14) 0.9222(3)
C3_3 C 0.26792(21) 0.20945(15) 0.8794(3)
H4_3 H 0.2548 0.1883 0.9553
C4_3 C 0.24712(21) 0.13125(15) 0.7121(3)
C6_3 C 0.20293(21) 0.42522(15) 0.8728(3)
C7_3 C 0.21115(21) 0.03466(14) 0.7806(3)
H6_3 H 0.1970 0.0159 0.8648
N4_3 N 0.29056(18) 0.26419(13) 0.8743(3)
O4_3 O 0.33556(14) 0.40631(10) 0.8299(2)
N6_3 N 0.30463(17) 0.28023(12) 0.7457(3)
O5_3 O 0.21657(17) 0.43186(12) 0.7553(2)
C8_3 C 0.26672(21) 0.18858(15) 0.7546(3)
C9_3 C 0.29059(21) 0.23525(15) 0.6747(3)
H7_3 H 0.2960 0.2350 0.5846
C10_3 C 0.14543(21) 0.40355(15) 0.9134(3)
C11_3 C 0.09936(21) 0.38208(15) 0.8322(3)
H8_3 H 0.1001 0.3796 0.7413
C13_3 C 0.1633(3) 0.0059(2) 0.6861(5)
H12_3 H 0.1331 0.0101 0.7159
H14_3 H 0.1745 0.0219 0.6004
O6_3 O 0.24798(16) 0.12027(11) 0.5943(2)
C14_3 C 0.26164(20) 0.02838(14) 0.7507(3)
Zn6_3 Zn 0.33900(4) 0.35866(3) 0.69163(3)
N7_3 N 0.38689(18) 0.03202(13) 0.5705(3)
N8_3 N 0.29120(22) 0.02709(12) 0.3669(3)
Zn1_3 Zn 0.30827(3) 0.99557(2) 0.51893(3)
O1_3 O 0.25939(14) 0.99939(10) 0.6535(2)
H13_3 H 0.1519 0.9674 0.6820
O7_3 O 0.28242(20) 0.91656(10) 0.4977(2)
Zn2_4 Zn 0.35299(2) 0.32766(2) 0.35829(3)
N1_4 N 0.22876(12) 0.13567(12) 0.3029(3)
H1_4 H 0.2310 0.1276 0.3833
N2_4 N 0.57407(12) 0.46952(12) 0.1396(3)
H2_4 H 0.5644 0.4583 0.2189
N3_4 N 0.30132(13) 0.02154(12) 0.2371(3)
C1_4 C 0.21133(15) 0.17560(14) 0.2737(3)
H3_4 H 0.1899 0.1647 0.1922
O2_4 O 0.61576(14) 0.58322(10) 0.1643(2)
C2_4 C 0.26166(14) 0.23319(14) 0.2555(3)
C3_4 C 0.45722(15) 0.39180(14) 0.2127(3)
H4_4 H 0.4784 0.3998 0.2886
C4_4 C 0.53542(15) 0.44920(15) 0.0454(3)
C5_4 C 0.26837(15) 0.05873(14) 0.3722(3)
H5_4 H 0.2574 0.0685 0.4490
C6_4 C 0.24145(15) 0.11104(15) 0.2061(3)
C7_4 C 0.63201(14) 0.50982(15) 0.1139(3)
H6_4 H 0.6508 0.5144 0.1981
N4_4 N 0.40248(13) 0.35970(12) 0.2076(3)
O3_4 O 0.30011(10) 0.24827(10) 0.3381(2)
O5_4 O 0.23481(12) 0.11804(12) 0.0886(2)
C8_4 C 0.47809(15) 0.41147(14) 0.0879(3)
C9_4 C 0.43142(15) 0.38867(15) 0.0080(3)
C10_4 C 0.26312(15) 0.07521(14) 0.2467(3)
C11_4 C 0.28459(15) 0.05061(15) 0.1655(3)
H8_4 H 0.2871 0.0538 0.0746
C12_4 C 0.17570(16) 0.17746(17) 0.3836(4)
H9_4 H 0.1423 0.1425 0.3896
H10_4 H 0.1669 0.2058 0.3657
H11_4 H 0.1954 0.1852 0.4652
C13_4 C 0.6608(2) 0.4907(2) 0.0194(5)
H12_4 H 0.6566 0.4563 0.0492
H13_4 H 0.6993 0.5178 0.0153
C14_4 C 0.63829(14) 0.56659(14) 0.0840(3)
O8_4 O 0.40408(10) 0.33111(14) 0.4966(2)
N9_4 N 0.30893(12) 0.36204(17) 0.4124(3)
O1_4 O 0.66728(10) 0.59333(10) 0.9868(2)
H7_4 H 0.4317 0.3943 0.9179
H14_4 H 0.6448 0.4859 0.9337
O6_4 O 0.54640(11) 0.46104(12) 0.9276(2)
N8_4 N 0.63957(12) 0.59744(18) 0.7003(3)
Zn2_5 Zn 0.67234(2) 0.02532(3) 0.35829(3)
N1_5 N 0.86433(12) 0.09308(17) 0.3029(3)
H1_5 H 0.8724 0.1033 0.3833
N2_5 N 0.53048(12) 0.10454(17) 0.1396(3)
H2_5 H 0.5417 0.1060 0.2189
N3_5 N 0.97846(12) 0.27977(18) 0.2371(3)
C1_5 C 0.82440(14) 0.03572(21) 0.2737(3)
H3_5 H 0.8353 0.0251 0.1922
O2_5 O 0.41678(10) 0.03253(17) 0.1643(2)
C2_5 C 0.76681(14) 0.02846(20) 0.2555(3)
C3_5 C 0.60820(14) 0.06541(21) 0.2127(3)
H4_5 H 0.6002 0.0785 0.2886
C4_5 C 0.55080(15) 0.08621(21) 0.0454(3)
C5_5 C 0.94127(14) 0.20963(21) 0.3722(3)
H5_5 H 0.9315 0.1888 0.4490
C6_5 C 0.88896(15) 0.13040(21) 0.2061(3)
C7_5 C 0.49018(15) 0.12218(21) 0.1139(3)
H6_5 H 0.4856 0.1363 0.1981
N4_5 N 0.64030(12) 0.04277(18) 0.2076(3)
O3_5 O 0.75173(10) 0.05183(14) 0.3381(2)
O5_5 O 0.88196(12) 0.11676(17) 0.0886(2)
C8_5 C 0.58853(14) 0.06661(21) 0.0879(3)
C9_5 C 0.61133(15) 0.04274(21) 0.0080(3)
C10_5 C 0.92479(14) 0.18790(21) 0.2467(3)
C11_5 C 0.94939(15) 0.23397(21) 0.1655(3)
H8_5 H 0.9462 0.2332 0.0746
H11_5 H 0.8148 0.0101 0.4652
C13_5 C 0.5093(2) 0.1700(3) 0.0194(5)
H12_5 H 0.5437 0.2002 0.0492
H13_5 H 0.4822 0.1814 0.0153
C14_5 C 0.43341(14) 0.07169(20) 0.0840(3)
O8_5 O 0.66889(14) 0.07298(17) 0.4966(2)
O1_5 O 0.40667(10) 0.07394(14) 0.9868(2)
H7_5 H 0.6057 0.0373 0.9179
H14_5 H 0.5141 0.1588 0.9337
O6_5 O 0.53896(12) 0.08535(16) 0.9276(2)
N8_5 N 0.40256(18) 0.04214(22) 0.7003(3)
C12_5 C 0.82254(17) 0.99823(23) 0.3836(4)
H9_5 H 0.8575 0.9997 0.3896
H10_5 H 0.7942 0.9610 0.3657
N9_5 N 0.63796(17) 0.94690(21) 0.4124(3)
C12_6 C 0.00177(23) 0.82430(16) 0.3836(4)
H9_6 H 0.0003 0.8577 0.3896
H10_6 H 0.0390 0.8331 0.3657
N9_6 N 0.05310(21) 0.69107(12) 0.4124(3)
Zn2_6 Zn 0.97468(3) 0.64701(2) 0.35829(3)
N1_6 N 0.90692(17) 0.77124(12) 0.3029(3)
H1_6 H 0.8967 0.7690 0.3833
N2_6 N 0.89546(17) 0.42593(12) 0.1396(3)
H2_6 H 0.8940 0.4356 0.2189
N3_6 N 0.72023(18) 0.69868(13) 0.2371(3)
C1_6 C 0.96428(21) 0.78867(15) 0.2737(3)
H3_6 H 0.9749 0.8101 0.1922
O2_6 O 0.96747(17) 0.38424(14) 0.1643(2)
C2_6 C 0.97154(20) 0.73834(14) 0.2555(3)
C3_6 C 0.93459(21) 0.54278(15) 0.2127(3)
H4_6 H 0.9215 0.5216 0.2886
C4_6 C 0.91379(21) 0.46458(15) 0.0454(3)
C5_6 C 0.79037(21) 0.73163(15) 0.3722(3)
H5_6 H 0.8112 0.7426 0.4490
C6_6 C 0.86960(21) 0.75855(15) 0.2061(3)
C7_6 C 0.87782(21) 0.36799(14) 0.1139(3)
H6_6 H 0.8637 0.3492 0.1981
N4_6 N 0.95723(18) 0.59752(13) 0.2076(3)
O3_6 O 0.94817(14) 0.69989(10) 0.3381(2)
O5_6 O 0.88324(17) 0.76519(12) 0.0886(2)
C8_6 C 0.93339(21) 0.52191(15) 0.0879(3)
C9_6 C 0.95726(21) 0.56858(15) 0.0080(3)
C10_6 C 0.81210(21) 0.73688(15) 0.2467(3)
C11_6 C 0.76603(21) 0.71541(15) 0.1655(3)
H8_6 H 0.7668 0.7129 0.0746
H11_6 H 0.9899 0.8046 0.4652
C13_6 C 0.8300(3) 0.3392(2) 0.0194(5)
H12_6 H 0.7998 0.3434 0.0492
H13_6 H 0.8186 0.3007 0.0153
C14_6 C 0.92831(20) 0.36171(14) 0.0840(3)
O8_6 O 0.92702(17) 0.59592(10) 0.4966(2)
O1_6 O 0.92606(14) 0.33272(10) 0.9868(2)
H7_6 H 0.9627 0.5683 0.9179
H14_6 H 0.8412 0.3552 0.9337
O6_6 O 0.91465(16) 0.45360(11) 0.9276(2)
N8_6 N 0.95786(22) 0.36043(12) 0.7003(3)
N2_7 N 0.24073(12) 0.80286(12) 0.4730(3)
H2_7 H 0.2310 0.7917 0.5523
O1_7 O 0.33394(10) 0.92667(10) 0.3202(2)
C3_7 C 0.12388(15) 0.72514(14) 0.5461(3)
H4_7 H 0.1450 0.7332 0.6220
C4_7 C 0.20208(15) 0.78254(15) 0.3788(3)
C7_7 C 0.29867(14) 0.84316(15) 0.4473(3)
H6_7 H 0.3174 0.8478 0.5315
N4_7 N 0.06914(13) 0.69304(12) 0.5410(3)
C8_7 C 0.14475(15) 0.74481(14) 0.4213(3)
C9_7 C 0.09808(15) 0.72201(15) 0.3414(3)
H7_7 H 0.0983 0.7277 0.2513
C13_7 C 0.3274(2) 0.8241(2) 0.3528(5)
H12_7 H 0.3232 0.7897 0.3826
H13_7 H 0.3659 0.8512 0.3487
H14_7 H 0.3114 0.8193 0.2671
O6_7 O 0.21306(11) 0.79438(12) 0.2610(2)
C14_7 C 0.30495(14) 0.89993(14) 0.4174(3)
N1_7 N 0.89542(12) 0.46901(12) 0.6363(3)
H1_7 H 0.8976 0.4610 0.7167
C1_7 C 0.87799(15) 0.50894(14) 0.6071(3)
H3_7 H 0.8565 0.4981 0.5256
C2_7 C 0.92832(14) 0.56653(14) 0.5889(3)
C5_7 C 0.93503(15) 0.39207(14) 0.7056(3)
H5_7 H 0.9240 0.4019 0.7824
C6_7 C 0.90811(15) 0.44438(15) 0.5395(3)
O3_7 O 0.96677(10) 0.58161(10) 0.6715(2)
O5_7 O 0.90147(12) 0.45138(12) 0.4220(2)
C10_7 C 0.92978(15) 0.40855(14) 0.5801(3)
C11_7 C 0.95125(15) 0.38395(15) 0.4989(3)
H8_7 H 0.9537 0.3872 0.4080
C12_7 C 0.84236(16) 0.51080(17) 0.7170(4)
H9_7 H 0.8089 0.4759 0.7230
H10_7 H 0.8335 0.5392 0.6991
H11_7 H 0.8620 0.5186 0.7986
N1_8 N 0.53099(12) 0.42642(17) 0.6363(3)
H1_8 H 0.5390 0.4367 0.7167
N2_8 N 0.19714(12) 0.43788(17) 0.4730(3)
H2_8 H 0.2083 0.4394 0.5523
O1_8 O 0.07333(10) 0.40728(14) 0.3202(2)
C1_8 C 0.49106(14) 0.36906(21) 0.6071(3)
H3_8 H 0.5019 0.3585 0.5256
C2_8 C 0.43347(14) 0.36180(20) 0.5889(3)
C3_8 C 0.27486(14) 0.39875(21) 0.5461(3)
H4_8 H 0.2668 0.4119 0.6220
C4_8 C 0.21746(15) 0.41955(21) 0.3788(3)
C5_8 C 0.60793(14) 0.54297(21) 0.7056(3)
H5_8 H 0.5981 0.5222 0.7824
C6_8 C 0.55562(15) 0.46374(21) 0.5395(3)
C7_8 C 0.15684(15) 0.45552(21) 0.4473(3)
H6_8 H 0.1522 0.4697 0.5315
N4_8 N 0.30696(12) 0.37611(18) 0.5410(3)
O3_8 O 0.41839(10) 0.38517(14) 0.6715(2)
O5_8 O 0.54862(12) 0.45010(17) 0.4220(2)
C8_8 C 0.25519(14) 0.39995(21) 0.4213(3)
C9_8 C 0.27799(15) 0.37608(21) 0.3414(3)
H7_8 H 0.2723 0.3707 0.2513
C10_8 C 0.59145(14) 0.52124(21) 0.5801(3)
C11_8 C 0.61605(15) 0.56731(21) 0.4989(3)
H8_8 H 0.6128 0.5666 0.4080
C12_8 C 0.48920(17) 0.33157(23) 0.7170(4)
H9_8 H 0.5241 0.3331 0.7230
H10_8 H 0.4608 0.2944 0.6991
H11_8 H 0.4814 0.3435 0.7986
C13_8 C 0.1759(2) 0.5034(3) 0.3528(5)
H12_8 H 0.2103 0.5336 0.3826
H13_8 H 0.1488 0.5148 0.3487
H14_8 H 0.1807 0.4922 0.2671
O6_8 O 0.20562(12) 0.41869(16) 0.2610(2)
C14_8 C 0.10007(14) 0.40503(20) 0.4174(3)
N1_9 N 0.57358(17) 0.10458(12) 0.6363(3)
H1_9 H 0.5633 0.1024 0.7167
C1_9 C 0.63094(21) 0.12201(15) 0.6071(3)
H3_9 H 0.6415 0.1435 0.5256
C2_9 C 0.63820(20) 0.07168(14) 0.5889(3)
C5_9 C 0.45703(21) 0.06497(15) 0.7056(3)
H5_9 H 0.4778 0.0760 0.7824
C6_9 C 0.53626(21) 0.09189(15) 0.5395(3)
O3_9 O 0.61483(14) 0.03323(10) 0.6715(2)
O5_9 O 0.54990(17) 0.09853(12) 0.4220(2)
C10_9 C 0.47876(21) 0.07022(15) 0.5801(3)
C11_9 C 0.43269(21) 0.04875(15) 0.4989(3)
H8_9 H 0.4334 0.0463 0.4080
C12_9 C 0.66843(23) 0.15764(16) 0.7170(4)
H9_9 H 0.6669 0.1911 0.7230
H10_9 H 0.7056 0.1665 0.6991
H11_9 H 0.6565 0.1380 0.7986
N2_9 N 0.56212(17) 0.75927(12) 0.4730(3)
H2_9 H 0.5606 0.7690 0.5523
O1_9 O 0.59272(14) 0.66606(10) 0.3202(2)
C3_9 C 0.60125(21) 0.87612(15) 0.5461(3)
H4_9 H 0.5881 0.8550 0.6220
C4_9 C 0.58045(21) 0.79792(15) 0.3788(3)
C7_9 C 0.54448(21) 0.70133(14) 0.4473(3)
H6_9 H 0.5303 0.6826 0.5315
N4_9 N 0.62389(18) 0.93086(13) 0.5410(3)
C8_9 C 0.60005(21) 0.85525(15) 0.4213(3)
C9_9 C 0.62392(21) 0.90192(15) 0.3414(3)
H7_9 H 0.6293 0.9017 0.2513
C13_9 C 0.4966(3) 0.6726(2) 0.3528(5)
H12_9 H 0.4664 0.6768 0.3826
H13_9 H 0.4852 0.6341 0.3487
H14_9 H 0.5078 0.6886 0.2671
O6_9 O 0.58131(16) 0.78694(11) 0.2610(2)
C14_9 C 0.59497(20) 0.69505(14) 0.4174(3)
loop_
_geom_bond_atom_site_label_1
_geom_bond_atom_site_label_2
_geom_bond_site_symmetry_1
_geom_bond_site_symmetry_2
Zn1 O1 1_555 1_555
O7 Zn1 1_555 1_555
N2 H2 1_555 1_555
O2 C14 1_555 1_555
C3 H4 1_555 1_555
C4 N2 1_555 1_555
C7 N2 1_555 1_555
H6 C7 1_555 1_555
N4 C3 1_555 1_555
N6 N4 1_555 1_555
C8 C3 1_555 1_555
C9 N6 1_555 1_555
H7 C9 1_555 1_555
C13 C7 1_555 1_555
H12 C13 1_555 1_555
H14 C13 1_555 1_555
O6 C4 1_555 1_555
C14 C7 1_555 1_555
Zn4 O2 1_555 1_555
C4 C8 1_555 1_555
C8 C9 1_555 1_555
C5 H5 1_555 1_555
O3 Zn2 1_555 1_555
N5 C5 1_555 1_555
H9 C12 1_555 1_555
H10 C12 1_555 1_555
H11 C12 1_555 1_555
Zn5 N5 1_555 1_555
O8 Zn2 1_555 1_555
C1 N1 1_555 1_555
H3 C1 1_555 1_555
C2 C1 1_555 1_555
C6 N1 1_555 1_555
O4 C2 1_555 1_555
O5 C6 1_555 1_555
C11 N3 1_555 1_555
H8 C11 1_555 1_555
Zn3 N3 1_555 1_555
Zn6 O4 1_555 1_555
C6 C10 1_555 1_555
C10 C11 1_555 1_555
C5_2 H5_2 1_555 1_555
O3_2 Zn2_2 1_555 1_555
N5_2 C5_2 1_555 1_555
H9_2 C12_2 1_555 1_555
H10_2 C12_2 1_555 1_555
H11_2 C12_2 1_555 1_555
Zn5_2 N5_2 1_555 1_555
O8_2 Zn2_2 1_555 1_555
C1_2 N1_2 1_555 1_555
H3_2 C1_2 1_555 1_555
C2_2 C1_2 1_555 1_555
C6_2 N1_2 1_555 1_555
O4_2 C2_2 1_555 1_555
O5_2 C6_2 1_555 1_555
C11_2 N3_2 1_555 1_555
H8_2 C11_2 1_555 1_555
Zn6_2 O4_2 1_555 1_555
C6_2 C10_2 1_555 1_555
C10_2 C11_2 1_555 1_555
Zn1_2 O1_2 1_555 1_555
N2_2 H2_2 1_555 1_555
O1_2 C14_2 1_555 1_555
O2_2 C14_2 1_555 1_555
C3_2 H4_2 1_555 1_555
C4_2 N2_2 1_555 1_555
C7_2 N2_2 1_555 1_555
H6_2 C7_2 1_555 1_555
N4_2 C3_2 1_555 1_555
N6_2 N4_2 1_555 1_555
C8_2 C3_2 1_555 1_555
C9_2 N6_2 1_555 1_555
H7_2 C9_2 1_555 1_555
C13_2 C7_2 1_555 1_555
H12_2 C13_2 1_555 1_555
H13_2 C13_2 1_555 1_555
H14_2 C13_2 1_555 1_555
O6_2 C4_2 1_555 1_555
C14_2 C7_2 1_555 1_555
Zn3 O2_2 1_555 1_555
N7_2 Zn1_2 1_555 1_555
O7_2 Zn1_2 1_555 1_555
N8_2 Zn1_2 1_555 1_555
C4_2 C8_2 1_555 1_555
C8_2 C9_2 1_555 1_555
C5_3 H5_3 1_555 1_555
O3_3 Zn2_3 1_555 1_555
N5_3 C5_3 1_555 1_555
H9_3 C12_3 1_555 1_555
H10_3 C12_3 1_555 1_555
H11_3 C12_3 1_555 1_555
Zn5_3 N5_3 1_555 1_555
O8_3 Zn2_3 1_555 1_555
N9_3 Zn2_3 1_555 1_555
N2_3 H2_3 1_555 1_555
C1_3 N1_3 1_555 1_555
H3_3 C1_3 1_555 1_555
O2_3 C14_3 1_555 1_555
C2_3 C1_3 1_555 1_555
C3_3 H4_3 1_555 1_555
C4_3 N2_3 1_555 1_555
C6_3 N1_3 1_555 1_555
C7_3 N2_3 1_555 1_555
H6_3 C7_3 1_555 1_555
N4_3 C3_3 1_555 1_555
O4_3 C2_3 1_555 1_555
N6_3 N4_3 1_555 1_555
O5_3 C6_3 1_555 1_555
C8_3 C3_3 1_555 1_555
C9_3 N6_3 1_555 1_555
H7_3 C9_3 1_555 1_555
C11_3 N3_3 1_555 1_555
H8_3 C11_3 1_555 1_555
C13_3 C7_3 1_555 1_555
H12_3 C13_3 1_555 1_555
H14_3 C13_3 1_555 1_555
O6_3 C4_3 1_555 1_555
C14_3 C7_3 1_555 1_555
Zn3_2 O2_3 1_555 1_555
Zn6_3 O4_3 1_555 1_555
C4_3 C8_3 1_555 1_555
C6_3 C10_3 1_555 1_555
N6_3 Zn6_3 1_555 1_555
C8_3 C9_3 1_555 1_555
C10_3 C11_3 1_555 1_555
Zn1_3 O1_3 1_555 1_555
O7_3 Zn1_3 1_555 1_555
Zn2_4 N4_4 1_555 1_555
N1_4 H1_4 1_555 1_555
N2_4 H2_4 1_555 1_555
N3_4 N8_3 1_555 1_555
C1_4 N1_4 1_555 1_555
H3_4 C1_4 1_555 1_555
O2_4 C14_4 1_555 1_555
C2_4 C1_4 1_555 1_555
C3_4 H4_4 1_555 1_555
C4_4 N2_4 1_555 1_555
C5_4 H5_4 1_555 1_555
C6_4 N1_4 1_555 1_555
C7_4 N2_4 1_555 1_555
H6_4 C7_4 1_555 1_555
N4_4 C3_4 1_555 1_555
O3_4 Zn2_4 1_555 1_555
O8_3 C2_4 1_555 1_555
N8_3 C5_4 1_555 1_555
N9_3 N4_4 1_555 1_555
O5_4 C6_4 1_555 1_555
C8_4 C3_4 1_555 1_555
C9_4 N9_3 1_555 1_555
C10_4 C5_4 1_555 1_555
C11_4 N3_4 1_555 1_555
H8_4 C11_4 1_555 1_555
C12_4 C1_4 1_555 1_555
H9_4 C12_4 1_555 1_555
H10_4 C12_4 1_555 1_555
H11_4 C12_4 1_555 1_555
C13_4 C7_4 1_555 1_555
H12_4 C13_4 1_555 1_555
H13_4 C13_4 1_555 1_555
C14_4 C7_4 1_555 1_555
Zn5 O2_4 1_555 1_555
O8_4 Zn2_4 1_555 1_555
N9_4 Zn2_4 1_555 1_555
C2_4 O3_4 1_555 1_555
C4_4 C8_4 1_555 1_555
C6_4 C10_4 1_555 1_555
C8_4 C9_4 1_555 1_555
C10_4 C11_4 1_555 1_555
Zn3 O1_4 1_555 1_555
N8_4 Zn3 1_555 1_555
Zn2_5 N4_5 1_555 1_555
N1_5 H1_5 1_555 1_555
N2_5 H2_5 1_555 1_555
N3_5 N8 1_555 1_555
C1_5 N1_5 1_555 1_555
H3_5 C1_5 1_555 1_555
O2_5 C14_5 1_555 1_555
C2_5 C1_5 1_555 1_555
C3_5 H4_5 1_555 1_555
C4_5 N2_5 1_555 1_555
C5_5 H5_5 1_555 1_555
C6_5 N1_5 1_555 1_555
C7_5 N2_5 1_555 1_555
H6_5 C7_5 1_555 1_555
N4_5 C3_5 1_555 1_555
O3_5 Zn2_5 1_555 1_555
N8 C5_5 1_555 1_555
N9 N4_5 1_555 1_555
O5_5 C6_5 1_555 1_555
C8_5 C3_5 1_555 1_555
C9_5 N9 1_555 1_555
C10_5 C5_5 1_555 1_555
C11_5 N3_5 1_555 1_555
H8_5 C11_5 1_555 1_555
C13_5 C7_5 1_555 1_555
H12_5 C13_5 1_555 1_555
H13_5 C13_5 1_555 1_555
C14_5 C7_5 1_555 1_555
O8_5 Zn2_5 1_555 1_555
C2_5 O3_5 1_555 1_555
C4_5 C8_5 1_555 1_555
C6_5 C10_5 1_555 1_555
C8_5 C9_5 1_555 1_555
C10_5 C11_5 1_555 1_555
Zn3_2 O1_5 1_555 1_555
N8_5 Zn3_2 1_555 1_555
H9_5 C12_5 1_555 1_555
H10_5 C12_5 1_555 1_555
H9_6 C12_6 1_555 1_555
H10_6 C12_6 1_555 1_555
Zn2_6 N4_6 1_555 1_555
N1_6 H1_6 1_555 1_555
N2_6 H2_6 1_555 1_555
N3_6 N8_2 1_555 1_555
C1_6 N1_6 1_555 1_555
H3_6 C1_6 1_555 1_555
O2_6 C14_6 1_555 1_555
C2_6 C1_6 1_555 1_555
C3_6 H4_6 1_555 1_555
C4_6 N2_6 1_555 1_555
C5_6 H5_6 1_555 1_555
C6_6 N1_6 1_555 1_555
C7_6 N2_6 1_555 1_555
H6_6 C7_6 1_555 1_555
N4_6 C3_6 1_555 1_555
O3_6 Zn2_6 1_555 1_555
N8_2 C5_6 1_555 1_555
N9_2 N4_6 1_555 1_555
O5_6 C6_6 1_555 1_555
C8_6 C3_6 1_555 1_555
C9_6 N9_2 1_555 1_555
C10_6 C5_6 1_555 1_555
C11_6 N3_6 1_555 1_555
H8_6 C11_6 1_555 1_555
C13_6 C7_6 1_555 1_555
H12_6 C13_6 1_555 1_555
H13_6 C13_6 1_555 1_555
C14_6 C7_6 1_555 1_555
Zn5 N3_6 1_555 1_555
O8_6 Zn2_6 1_555 1_555
C2_6 O3_6 1_555 1_555
C4_6 C8_6 1_555 1_555
C6_6 C10_6 1_555 1_555
C8_6 C9_6 1_555 1_555
C10_6 C11_6 1_555 1_555
Zn4 O1_6 1_555 1_555
N8_6 Zn4 1_555 1_555
Zn5_2 O1_7 1_555 1_555
Zn6_2 N4_7 1_555 1_555
N2_7 H2_7 1_555 1_555
O1_7 C14_7 1_555 1_555
O7_3 C14_7 1_555 1_555
C3_7 H4_7 1_555 1_555
C4_7 N2_7 1_555 1_555
C7_7 N2_7 1_555 1_555
H6_7 C7_7 1_555 1_555
N4_7 C3_7 1_555 1_555
N9_6 N4_7 1_555 1_555
C8_7 C3_7 1_555 1_555
C9_7 N9_6 1_555 1_555
H7_7 C9_7 1_555 1_555
C13_7 C7_7 1_555 1_555
H12_7 C13_7 1_555 1_555
H13_7 C13_7 1_555 1_555
H14_7 C13_7 1_555 1_555
O6_7 C4_7 1_555 1_555
C14_7 C7_7 1_555 1_555
C4_7 C8_7 1_555 1_555
C8_7 C9_7 1_555 1_555
N1_7 H1_7 1_555 1_555
N7 N8_6 1_555 1_555
C1_7 N1_7 1_555 1_555
H3_7 C1_7 1_555 1_555
C2_7 C1_7 1_555 1_555
C5_7 H5_7 1_555 1_555
C6_7 N1_7 1_555 1_555
O8_6 C2_7 1_555 1_555
N8_6 C5_7 1_555 1_555
O5_7 C6_7 1_555 1_555
C10_7 C5_7 1_555 1_555
C11_7 N7 1_555 1_555
H8_7 C11_7 1_555 1_555
C12_7 C1_7 1_555 1_555
H9_7 C12_7 1_555 1_555
H10_7 C12_7 1_555 1_555
H11_7 C12_7 1_555 1_555
C2_7 O3_7 1_555 1_555
C6_7 C10_7 1_555 1_555
C10_7 C11_7 1_555 1_555
Zn5_3 O1_8 1_555 1_555
Zn6_3 N4_8 1_555 1_555
N1_8 H1_8 1_555 1_555
N2_8 H2_8 1_555 1_555
N7_2 N8_4 1_555 1_555
O1_8 C14_8 1_555 1_555
C1_8 N1_8 1_555 1_555
H3_8 C1_8 1_555 1_555
O7 C14_8 1_555 1_555
C2_8 C1_8 1_555 1_555
C3_8 H4_8 1_555 1_555
C4_8 N2_8 1_555 1_555
C5_8 H5_8 1_555 1_555
C6_8 N1_8 1_555 1_555
C7_8 N2_8 1_555 1_555
H6_8 C7_8 1_555 1_555
N4_8 C3_8 1_555 1_555
O3_8 Zn6_3 1_555 1_555
O8_4 C2_8 1_555 1_555
N8_4 C5_8 1_555 1_555
N9_4 N4_8 1_555 1_555
O5_8 C6_8 1_555 1_555
C8_8 C3_8 1_555 1_555
C9_8 N9_4 1_555 1_555
H7_8 C9_8 1_555 1_555
C10_8 C5_8 1_555 1_555
C11_8 N7_2 1_555 1_555
H8_8 C11_8 1_555 1_555
C12_8 C1_8 1_555 1_555
H9_8 C12_8 1_555 1_555
H10_8 C12_8 1_555 1_555
H11_8 C12_8 1_555 1_555
C13_8 C7_8 1_555 1_555
H12_8 C13_8 1_555 1_555
H13_8 C13_8 1_555 1_555
H14_8 C13_8 1_555 1_555
O6_8 C4_8 1_555 1_555
C14_8 C7_8 1_555 1_555
C2_8 O3_8 1_555 1_555
C4_8 C8_8 1_555 1_555
C6_8 C10_8 1_555 1_555
C8_8 C9_8 1_555 1_555
C10_8 C11_8 1_555 1_555
N1_9 H1_9 1_555 1_555
N7_3 N8_5 1_555 1_555
C1_9 N1_9 1_555 1_555
H3_9 C1_9 1_555 1_555
C2_9 C1_9 1_555 1_555
C5_9 H5_9 1_555 1_555
C6_9 N1_9 1_555 1_555
O8_5 C2_9 1_555 1_555
N8_5 C5_9 1_555 1_555
O5_9 C6_9 1_555 1_555
C10_9 C5_9 1_555 1_555
C11_9 N7_3 1_555 1_555
H8_9 C11_9 1_555 1_555
C12_9 C1_9 1_555 1_555
H9_9 C12_9 1_555 1_555
H10_9 C12_9 1_555 1_555
H11_9 C12_9 1_555 1_555
C2_9 O3_9 1_555 1_555
C6_9 C10_9 1_555 1_555
C10_9 C11_9 1_555 1_555
Zn5 O1_9 1_555 1_555
Zn6 N4_9 1_555 1_555
N2_9 H2_9 1_555 1_555
O1_9 C14_9 1_555 1_555
O7_2 C14_9 1_555 1_555
C3_9 H4_9 1_555 1_555
C4_9 N2_9 1_555 1_555
C7_9 N2_9 1_555 1_555
H6_9 C7_9 1_555 1_555
N4_9 C3_9 1_555 1_555
N9_5 N4_9 1_555 1_555
C8_9 C3_9 1_555 1_555
C9_9 N9_5 1_555 1_555
H7_9 C9_9 1_555 1_555
C13_9 C7_9 1_555 1_555
H12_9 C13_9 1_555 1_555
H13_9 C13_9 1_555 1_555
H14_9 C13_9 1_555 1_555
O6_9 C4_9 1_555 1_555
C14_9 C7_9 1_555 1_555
C4_9 C8_9 1_555 1_555
C8_9 C9_9 1_555 1_555

#END
