
###############################################################################
#
# This file contains modified crystal structure data generated from the
# MOF subset of the Cambridge Structural Database (CSD) v543 
# hosted by the Cambridge Crystallographic Data Centre (CCDC).
#
# This work is licensed under the Creative Commons
# Attribution-NonCommercial-ShareAlike 4.0 International License.
# To view a copy of this license, visit
# http://creativecommons.org/licenses/by-nc-sa/4.0/
# or send a letter to
# Creative Commons, PO Box 1866, Mountain View, CA 94042, USA.
#
# CIF created using the CSD Python API on 29 September 2022
# The structure has been converted into the P1 space group
# The structure has a 3D framework
# The original CSD entry VUWXOD is in the rhombohedral crystal system
# The original CSD entry VUWXOD is in a Sohncke space group
# The framework has been calculated to contain at least 10.0% void space
# The void calculation uses a probe of radius 1.32A, grid spacing 0.4
#
###############################################################################

data_VUWXOD
_chemical_formula_moiety         '(C126 H126 N54 O52 Zn14)n'
_symmetry_cell_setting           triclinic
_symmetry_space_group_name_H-M   'P 1'
_symmetry_Int_Tables_number      1
_space_group_name_Hall           'P 1'
loop_
_symmetry_equiv_pos_site_id
_symmetry_equiv_pos_as_xyz
1 x,y,z
_cell_length_a                   24.035(3)
_cell_length_b                   24.035(3)
_cell_length_c                   10.2251(5)
_cell_angle_alpha                90
_cell_angle_beta                 90
_cell_angle_gamma                120
_cell_volume                     5115.48
loop_
_atom_site_label
_atom_site_type_symbol
_atom_site_fract_x
_atom_site_fract_y
_atom_site_fract_z
Zn1 Zn 0.68194(16) 0.64767(16) 0.2195(2)
Zn2 Zn 0.34884(16) 0.36604(15) 0.0483(2)
N1 N 0.6596(10) 0.5924(9) 0.0601(17)
O1 O 0.4271(11) 0.3651(10) 0.0328(16)
H2 H 0.5632 0.4013 0.0640
C7 C 0.6367(13) 0.5338(13) 0.059(2)
H4 H 0.6302 0.5098 0.1366
C10 C 0.4930(15) 0.2837(13) 0.049(3)
H6 H 0.4976 0.2500 0.0051
H7 H 0.4503 0.2648 0.0892
H8 H 0.5259 0.3036 0.1173
N7 N 0.6136(15) 0.6701(11) 0.2795(19)
O7 O 0.6953(13) 0.5966(9) 0.3574(16)
O8 O 0.3606(10) 0.4286(14) 0.1874(18)
O9 O 0.7606(10) 0.7292(11) 0.2010(16)
N8 N 0.2821(12) 0.2782(16) 0.104(2)
N2 N 0.3268(10) 0.4002(11) 0.8963(18)
N3 N 0.6632(11) 0.6101(10) 0.9462(19)
O2 O 0.0701(9) 0.4321(9) 0.6907(16)
O3 O 0.4014(10) 0.3061(10) 0.8541(18)
O4 O 0.0939(10) 0.3959(11) 0.8677(16)
O5 O 0.5765(10) 0.4249(9) 0.7755(17)
O6 O 0.2390(10) 0.4835(10) 0.6103(19)
N4 N 0.2190(11) 0.4925(12) 0.827(2)
H1 H 0.2332 0.4965 0.9081
C1 C 0.2489(13) 0.4775(14) 0.732(2)
N5 N 0.5525(13) 0.3928(12) 0.981(2)
C2 C 0.2860(13) 0.4460(13) 0.779(2)
N6 N 0.3295(11) 0.3846(12) 0.771(2)
C3 C 0.5893(17) 0.4412(15) 0.893(3)
C4 C 0.3058(13) 0.4428(14) 0.898(2)
H3 H 0.3053 0.4664 0.9722
C5 C 0.6214(14) 0.5060(13) 0.941(2)
C6 C 0.1076(14) 0.4388(15) 0.780(2)
C8 C 0.4376(16) 0.3351(16) 0.942(3)
C9 C 0.6443(14) 0.5582(13) 0.854(3)
H5 H 0.6466 0.5590 0.7609
C11 C 0.5007(14) 0.3324(13) 0.954(2)
H9 H 0.5089 0.3188 0.8672
C12 C 0.1673(16) 0.5017(15) 0.804(3)
H10 H 0.1592 0.5141 0.8919
C13 C 0.3046(15) 0.4142(15) 0.691(3)
H11 H 0.3012 0.4128 0.5983
C14 C 0.186(2) 0.5591(18) 0.728(4)
H12 H 0.2194 0.5964 0.7754
H13 H 0.1485 0.5645 0.7153
H14 H 0.2026 0.5554 0.6432
Zn3 Zn 0.01900(16) 0.36760(23) 0.5528(2)
Zn4 Zn 0.01527(16) 0.31434(16) 0.8862(2)
Zn5 Zn 0.68566(16) 0.70094(23) 0.8862(2)
Zn6 Zn 0.35053(22) 0.31783(16) 0.7150(2)
Zn1_2 Zn 0.35233(16) 0.03427(23) 0.2195(2)
N1_2 N 0.4076(9) 0.0672(13) 0.0601(17)
O1_2 O 0.6349(10) 0.0620(15) 0.0328(16)
H2_2 H 0.5987 0.1619 0.0640
C7_2 C 0.4662(13) 0.1029(18) 0.059(2)
H4_2 H 0.4902 0.1204 0.1366
C10_2 C 0.7163(13) 0.2093(20) 0.049(3)
H6_2 H 0.7500 0.2476 0.0051
H7_2 H 0.7352 0.1855 0.0892
H8_2 H 0.6964 0.2223 0.1173
O7_2 O 0.4034(9) 0.0988(16) 0.3574(16)
O9_2 O 0.2708(11) 0.0313(15) 0.2010(16)
N8_2 N 0.7218(16) 0.0038(20) 0.104(2)
N3_2 N 0.3899(10) 0.0531(15) 0.9462(19)
O3_2 O 0.6939(10) 0.0953(14) 0.8541(18)
O5_2 O 0.5751(9) 0.1516(13) 0.7755(17)
N5_2 N 0.6072(12) 0.1597(18) 0.981(2)
C3_2 C 0.5588(15) 0.1481(23) 0.893(3)
C5_2 C 0.4940(13) 0.1154(19) 0.941(2)
C8_2 C 0.6649(16) 0.1025(23) 0.942(3)
C9_2 C 0.4418(13) 0.0861(19) 0.854(3)
H5_2 H 0.4410 0.0876 0.7609
C11_2 C 0.6676(13) 0.1683(19) 0.954(2)
H9_2 H 0.6812 0.1901 0.8672
Zn6_2 Zn 0.68217(16) 0.03271(27) 0.7150(2)
Zn2_2 Zn 0.63396(15) 0.98280(22) 0.0483(2)
N7_2 N 0.3299(11) 0.9434(19) 0.2795(19)
O8_2 O 0.5714(14) 0.9319(17) 0.1874(18)
N2_2 N 0.5998(11) 0.9266(15) 0.8963(18)
O2_2 O 0.5679(9) 0.6380(13) 0.6907(16)
O4_2 O 0.6041(11) 0.6980(15) 0.8677(16)
O6_2 O 0.5165(10) 0.7555(14) 0.6103(19)
N4_2 N 0.5075(12) 0.7265(16) 0.827(2)
H1_2 H 0.5035 0.7367 0.9081
C1_2 C 0.5225(14) 0.7714(19) 0.732(2)
C2_2 C 0.5540(13) 0.8400(18) 0.779(2)
N6_2 N 0.6154(12) 0.9449(16) 0.771(2)
C4_2 C 0.5572(14) 0.8630(19) 0.898(2)
H3_2 H 0.5336 0.8389 0.9722
C6_2 C 0.5612(15) 0.6688(21) 0.780(2)
C12_2 C 0.4983(15) 0.6656(22) 0.804(3)
H10_2 H 0.4859 0.6451 0.8919
C13_2 C 0.5858(15) 0.8904(21) 0.691(3)
H11_2 H 0.5872 0.8884 0.5983
C14_2 C 0.4409(18) 0.6269(27) 0.728(4)
H12_2 H 0.4036 0.6230 0.7754
H13_2 H 0.4355 0.5840 0.7153
H14_2 H 0.4446 0.6472 0.6432
Zn3_2 Zn 0.63240(23) 0.65139(28) 0.5528(2)
Zn5_2 Zn 0.29906(23) 0.98473(28) 0.8862(2)
Zn2_3 Zn 0.01720(22) 0.65116(16) 0.0483(2)
N7_3 N 0.0566(19) 0.3864(15) 0.2795(19)
O8_3 O 0.0681(17) 0.6394(10) 0.1874(18)
N2_3 N 0.0734(15) 0.6732(10) 0.8963(18)
O2_3 O 0.3620(13) 0.9299(9) 0.6907(16)
O4_3 O 0.3020(15) 0.9061(10) 0.8677(16)
O6_3 O 0.2445(14) 0.7610(10) 0.6103(19)
N4_3 N 0.2735(16) 0.7810(11) 0.827(2)
H1_3 H 0.2633 0.7668 0.9081
C1_3 C 0.2286(19) 0.7511(13) 0.732(2)
C2_3 C 0.1600(18) 0.7140(13) 0.779(2)
N6_3 N 0.0551(16) 0.6705(11) 0.771(2)
C4_3 C 0.1370(19) 0.6942(13) 0.898(2)
H3_3 H 0.1611 0.6947 0.9722
C6_3 C 0.3312(21) 0.8924(14) 0.780(2)
C12_3 C 0.3344(22) 0.8327(16) 0.804(3)
H10_3 H 0.3549 0.8408 0.8919
C13_3 C 0.1096(21) 0.6954(15) 0.691(3)
H11_3 H 0.1116 0.6988 0.5983
C14_3 C 0.3731(27) 0.814(2) 0.728(4)
H12_3 H 0.3770 0.7806 0.7754
H13_3 H 0.4160 0.8515 0.7153
H14_3 H 0.3528 0.7974 0.6432
Zn3_3 Zn 0.34861(28) 0.98100(16) 0.5528(2)
Zn1_3 Zn 0.96573(23) 0.31806(16) 0.2195(2)
N1_3 N 0.9328(13) 0.3404(10) 0.0601(17)
O1_3 O 0.9380(15) 0.5729(11) 0.0328(16)
H2_3 H 0.8381 0.4368 0.0640
C7_3 C 0.8971(18) 0.3633(13) 0.059(2)
H4_3 H 0.8796 0.3698 0.1366
C10_3 C 0.7907(20) 0.5070(15) 0.049(3)
H6_3 H 0.7524 0.5024 0.0051
H7_3 H 0.8145 0.5497 0.0892
H8_3 H 0.7777 0.4741 0.1173
O7_3 O 0.9012(16) 0.3047(13) 0.3574(16)
O9_3 O 0.9687(15) 0.2394(10) 0.2010(16)
N8_3 N 0.9962(20) 0.7179(12) 0.104(2)
N3_3 N 0.9469(15) 0.3368(11) 0.9462(19)
O3_3 O 0.9047(14) 0.5986(10) 0.8541(18)
O5_3 O 0.8484(13) 0.4235(10) 0.7755(17)
N5_3 N 0.8403(18) 0.4475(13) 0.981(2)
C3_3 C 0.8519(23) 0.4107(17) 0.893(3)
C5_3 C 0.8846(19) 0.3786(14) 0.941(2)
C8_3 C 0.8975(23) 0.5624(16) 0.942(3)
C9_3 C 0.9139(19) 0.3557(14) 0.854(3)
H5_3 H 0.9124 0.3534 0.7609
C11_3 C 0.8317(19) 0.4993(14) 0.954(2)
H9_3 H 0.8099 0.4911 0.8672
Zn6_3 Zn 0.96729(27) 0.64947(22) 0.7150(2)
N7_4 N 0.2802(15) 0.0035(11) 0.6129(19)
O9_4 O 0.4272(10) 0.0626(11) 0.5344(16)
Zn2_4 Zn 0.01551(16) 0.69937(15) 0.3816(2)
N1_4 N 0.3263(10) 0.9257(9) 0.3934(17)
O1_4 O 0.0938(11) 0.6984(10) 0.3661(16)
O5_4 O 0.2432(10) 0.7582(9) 0.1088(17)
N5_4 N 0.2192(13) 0.7261(12) 0.314(2)
H2_4 H 0.2299 0.7346 0.3973
C3_4 C 0.2560(17) 0.7745(15) 0.226(3)
C5_4 C 0.2881(14) 0.8393(13) 0.274(2)
C7_4 C 0.3034(13) 0.8671(13) 0.392(2)
H4_4 H 0.2969 0.8431 0.4699
C8_4 C 0.1043(16) 0.6684(16) 0.275(3)
C9_4 C 0.3110(14) 0.8915(13) 0.187(3)
H5_4 H 0.3133 0.8923 0.0942
C10_4 C 0.1597(15) 0.6170(13) 0.382(3)
H6_4 H 0.1643 0.5833 0.3384
H7_4 H 0.1170 0.5981 0.4225
H8_4 H 0.1926 0.6369 0.4506
C11_4 C 0.1674(14) 0.6657(13) 0.287(2)
H9_4 H 0.1756 0.6521 0.2005
O8_4 O 0.0272(10) 0.7620(14) 0.5208(18)
N2_4 N 0.9935(10) 0.7335(11) 0.2296(18)
O2_4 O 0.7368(9) 0.7654(9) 0.0240(16)
N4_4 N 0.8857(11) 0.8258(12) 0.160(2)
H1_4 H 0.8999 0.8298 0.2414
C1_4 C 0.9156(13) 0.8108(14) 0.065(2)
C2_4 C 0.9527(13) 0.7793(13) 0.112(2)
C4_4 C 0.9725(13) 0.7761(14) 0.231(2)
H3_4 H 0.9720 0.7997 0.3055
C6_4 C 0.7743(14) 0.7721(15) 0.113(2)
C12_4 C 0.8340(16) 0.8350(15) 0.137(3)
H10_4 H 0.8259 0.8474 0.2252
C13_4 C 0.9713(15) 0.7475(15) 0.024(3)
C14_4 C 0.853(2) 0.8924(18) 0.061(4)
H12_4 H 0.8861 0.9297 0.1087
H13_4 H 0.8152 0.8978 0.0486
N8_4 N 0.9487(12) 0.6116(16) 0.438(2)
O6_4 O 0.9057(10) 0.8168(10) 0.9436(19)
H11_4 H 0.9679 0.7461 0.9316
H14_4 H 0.8693 0.8887 0.9765
Zn2_5 Zn 0.30063(15) 0.31613(22) 0.3816(2)
N1_5 N 0.0743(9) 0.4005(13) 0.3934(17)
N2_5 N 0.2665(11) 0.2599(15) 0.2296(18)
O1_5 O 0.3016(10) 0.3953(15) 0.3661(16)
O5_5 O 0.2418(9) 0.4849(13) 0.1088(17)
N4_5 N 0.1742(12) 0.0598(16) 0.160(2)
H1_5 H 0.1702 0.0700 0.2414
C1_5 C 0.1892(14) 0.1047(19) 0.065(2)
N5_5 N 0.2739(12) 0.4930(18) 0.314(2)
H2_5 H 0.2654 0.4952 0.3973
C2_5 C 0.2207(13) 0.1733(18) 0.112(2)
C3_5 C 0.2255(15) 0.4814(23) 0.226(3)
C4_5 C 0.2239(14) 0.1963(19) 0.231(2)
H3_5 H 0.2003 0.1722 0.3055
C5_5 C 0.1607(13) 0.4487(19) 0.274(2)
C6_5 C 0.2279(15) 0.0021(21) 0.113(2)
C7_5 C 0.1329(13) 0.4362(18) 0.392(2)
H4_5 H 0.1569 0.4537 0.4699
C8_5 C 0.3316(16) 0.4358(23) 0.275(3)
C9_5 C 0.1085(13) 0.4194(19) 0.187(3)
H5_5 H 0.1077 0.4209 0.0942
C10_5 C 0.3830(13) 0.5426(20) 0.382(3)
H6_5 H 0.4167 0.5809 0.3384
H7_5 H 0.4019 0.5188 0.4225
H8_5 H 0.3631 0.5556 0.4506
C11_5 C 0.3343(13) 0.5016(19) 0.287(2)
H9_5 H 0.3479 0.5234 0.2005
C13_5 C 0.2525(15) 0.2237(21) 0.024(3)
O8_5 O 0.2380(14) 0.2653(17) 0.5208(18)
N8_5 N 0.3884(16) 0.3372(20) 0.438(2)
H14_5 H 0.1113 0.9805 0.9765
N7_5 N 0.9965(11) 0.2768(19) 0.6129(19)
O9_5 O 0.9374(11) 0.3647(15) 0.5344(16)
H14_6 H 0.0195 0.1307 0.9765
N2_6 N 0.7401(15) 0.0065(10) 0.2296(18)
N4_6 N 0.9402(16) 0.1143(11) 0.160(2)
H1_6 H 0.9300 0.1001 0.2414
C1_6 C 0.8953(19) 0.0844(13) 0.065(2)
C2_6 C 0.8267(18) 0.0473(13) 0.112(2)
C4_6 C 0.8037(19) 0.0275(13) 0.231(2)
H3_6 H 0.8278 0.0280 0.3055
C6_6 C 0.9979(21) 0.2257(14) 0.113(2)
C13_6 C 0.7763(21) 0.0287(15) 0.024(3)
N8_6 N 0.6628(20) 0.0513(12) 0.438(2)
Zn2_6 Zn 0.68387(22) 0.98449(16) 0.3816(2)
N1_6 N 0.5995(13) 0.6737(10) 0.3934(17)
O1_6 O 0.6047(15) 0.9062(11) 0.3661(16)
O5_6 O 0.5151(13) 0.7568(10) 0.1088(17)
N5_6 N 0.5070(18) 0.7808(13) 0.314(2)
H2_6 H 0.5048 0.7701 0.3973
C3_6 C 0.5186(23) 0.7440(17) 0.226(3)
C5_6 C 0.5513(19) 0.7119(14) 0.274(2)
C7_6 C 0.5638(18) 0.6966(13) 0.392(2)
H4_6 H 0.5463 0.7031 0.4699
C8_6 C 0.5642(23) 0.8957(16) 0.275(3)
C9_6 C 0.5806(19) 0.6890(14) 0.187(3)
H5_6 H 0.5791 0.6867 0.0942
C10_6 C 0.4574(20) 0.8403(15) 0.382(3)
H6_6 H 0.4191 0.8357 0.3384
H7_6 H 0.4812 0.8830 0.4225
H8_6 H 0.4444 0.8074 0.4506
C11_6 C 0.4984(19) 0.8326(14) 0.287(2)
H9_6 H 0.4766 0.8244 0.2005
N7_6 N 0.7232(19) 0.7198(15) 0.6129(19)
O8_6 O 0.7347(17) 0.9728(10) 0.5208(18)
O9_6 O 0.6353(15) 0.5728(10) 0.5344(16)
N1_7 N 0.9929(10) 0.2591(9) 0.7268(17)
N2_7 N 0.6601(10) 0.0669(11) 0.5630(18)
O1_7 O 0.7604(11) 0.0318(10) 0.6995(16)
O5_7 O 0.9098(10) 0.0916(9) 0.4422(17)
O6_5 O 0.5723(10) 0.1502(10) 0.2770(19)
N4_7 N 0.5523(11) 0.1592(12) 0.494(2)
H1_7 H 0.5665 0.1632 0.5748
C1_7 C 0.5822(13) 0.1442(14) 0.399(2)
N5_7 N 0.8858(13) 0.0595(12) 0.648(2)
H2_7 H 0.8965 0.0680 0.7307
C2_7 C 0.6193(13) 0.1127(13) 0.446(2)
C3_7 C 0.9226(17) 0.1079(15) 0.560(3)
C4_7 C 0.6391(13) 0.1095(14) 0.565(2)
H3_7 H 0.6386 0.1331 0.6389
C5_7 C 0.9547(14) 0.1727(13) 0.608(2)
C6_7 C 0.4409(14) 0.1055(15) 0.447(2)
C7_7 C 0.9700(13) 0.2005(13) 0.726(2)
H4_7 H 0.9635 0.1765 0.8033
C8_7 C 0.7709(16) 0.0018(16) 0.609(3)
C9_7 C 0.9776(14) 0.2249(13) 0.521(3)
H5_7 H 0.9799 0.2257 0.4276
C12_5 C 0.5006(16) 0.1684(15) 0.471(3)
H10_5 H 0.4925 0.1808 0.5586
C13_7 C 0.6379(15) 0.0809(15) 0.358(3)
H11_5 H 0.6345 0.0795 0.2650
C14_5 C 0.519(2) 0.2258(18) 0.395(4)
H12_5 H 0.5527 0.2631 0.4421
H13_5 H 0.4818 0.2312 0.3820
H14_7 H 0.5359 0.2221 0.3099
C10_7 C 0.8263(15) 0.9504(13) 0.716(3)
H6_7 H 0.8309 0.9167 0.6718
H7_7 H 0.7836 0.9315 0.7559
H8_7 H 0.8592 0.9703 0.7840
C11_7 C 0.8340(14) 0.9991(13) 0.621(2)
H9_7 H 0.8422 0.9855 0.5339
C10_8 C 0.0496(13) 0.8760(20) 0.716(3)
H6_8 H 0.0833 0.9143 0.6718
H7_8 H 0.0685 0.8522 0.7559
H8_8 H 0.0297 0.8890 0.7840
C11_8 C 0.0009(13) 0.8350(19) 0.621(2)
H9_8 H 0.0145 0.8568 0.5339
N1_8 N 0.7409(9) 0.7339(13) 0.7268(17)
N2_8 N 0.9331(11) 0.5933(15) 0.5630(18)
O1_8 O 0.9682(10) 0.7287(15) 0.6995(16)
O5_8 O 0.9084(9) 0.8183(13) 0.4422(17)
O6_6 O 0.8498(10) 0.4222(14) 0.2770(19)
N4_8 N 0.8408(12) 0.3932(16) 0.494(2)
H1_8 H 0.8368 0.4034 0.5748
C1_8 C 0.8558(14) 0.4381(19) 0.399(2)
N5_8 N 0.9405(12) 0.8264(18) 0.648(2)
H2_8 H 0.9320 0.8286 0.7307
C2_8 C 0.8873(13) 0.5067(18) 0.446(2)
C3_8 C 0.8921(15) 0.8148(23) 0.560(3)
C4_8 C 0.8905(14) 0.5297(19) 0.565(2)
H3_8 H 0.8669 0.5056 0.6389
C5_8 C 0.8273(13) 0.7821(19) 0.608(2)
C6_8 C 0.8945(15) 0.3355(21) 0.447(2)
C7_8 C 0.7995(13) 0.7696(18) 0.726(2)
H4_8 H 0.8235 0.7871 0.8033
C8_8 C 0.9982(16) 0.7692(23) 0.609(3)
C9_8 C 0.7751(13) 0.7528(19) 0.521(3)
H5_8 H 0.7743 0.7543 0.4276
C12_6 C 0.8316(15) 0.3323(22) 0.471(3)
H10_6 H 0.8192 0.3118 0.5586
C13_8 C 0.9191(15) 0.5571(21) 0.358(3)
H11_6 H 0.9205 0.5551 0.2650
C14_6 C 0.7742(18) 0.2936(27) 0.395(4)
H12_6 H 0.7369 0.2897 0.4421
H13_6 H 0.7688 0.2507 0.3820
H14_8 H 0.7779 0.3139 0.3099
N1_9 N 0.2661(13) 0.0071(10) 0.7268(17)
N2_9 N 0.4067(15) 0.3399(10) 0.5630(18)
O1_9 O 0.2713(15) 0.2396(11) 0.6995(16)
O5_9 O 0.1817(13) 0.0902(10) 0.4422(17)
O6_7 O 0.5778(14) 0.4277(10) 0.2770(19)
N4_9 N 0.6068(16) 0.4477(11) 0.494(2)
H1_9 H 0.5966 0.4335 0.5748
C1_9 C 0.5619(19) 0.4178(13) 0.399(2)
N5_9 N 0.1736(18) 0.1142(13) 0.648(2)
H2_9 H 0.1714 0.1035 0.7307
C2_9 C 0.4933(18) 0.3807(13) 0.446(2)
C3_9 C 0.1852(23) 0.0774(17) 0.560(3)
C4_9 C 0.4703(19) 0.3609(13) 0.565(2)
H3_9 H 0.4944 0.3614 0.6389
C5_9 C 0.2179(19) 0.0453(14) 0.608(2)
C6_9 C 0.6645(21) 0.5591(14) 0.447(2)
C7_9 C 0.2304(18) 0.0300(13) 0.726(2)
H4_9 H 0.2129 0.0365 0.8033
C8_9 C 0.2308(23) 0.2291(16) 0.609(3)
C9_9 C 0.2472(19) 0.0224(14) 0.521(3)
H5_9 H 0.2457 0.0201 0.4276
C10_9 C 0.1240(20) 0.1737(15) 0.716(3)
H6_9 H 0.0857 0.1691 0.6718
H7_9 H 0.1478 0.2164 0.7559
H8_9 H 0.1110 0.1408 0.7840
C11_9 C 0.1650(19) 0.1660(14) 0.621(2)
H9_9 H 0.1432 0.1578 0.5339
C12_7 C 0.6677(22) 0.4994(16) 0.471(3)
H10_7 H 0.6882 0.5075 0.5586
C13_9 C 0.4429(21) 0.3621(15) 0.358(3)
H11_7 H 0.4449 0.3655 0.2650
C14_7 C 0.7064(27) 0.481(2) 0.395(4)
H12_7 H 0.7103 0.4473 0.4421
H13_7 H 0.7493 0.5182 0.3820
H14_9 H 0.6861 0.4641 0.3099
O6_8 O 0.1832(10) 0.0888(14) 0.9436(19)
H11_8 H 0.2539 0.2217 0.9316
O2_5 O 0.2346(9) 0.9713(13) 0.0240(16)
C12_8 C 0.1650(15) 0.9989(22) 0.137(3)
H10_8 H 0.1526 0.9784 0.2252
C14_8 C 0.1076(18) 0.9602(27) 0.061(4)
H12_8 H 0.0703 0.9563 0.1087
H13_8 H 0.1022 0.9173 0.0486
O2_6 O 0.0287(13) 0.2632(9) 0.0240(16)
C12_9 C 0.0011(22) 0.1660(16) 0.137(3)
H10_9 H 0.0216 0.1741 0.2252
C14_9 C 0.0398(27) 0.147(2) 0.061(4)
H12_9 H 0.0437 0.1139 0.1087
H13_9 H 0.0827 0.1848 0.0486
O6_9 O 0.9112(14) 0.0943(10) 0.9436(19)
H11_9 H 0.7783 0.0321 0.9316
loop_
_geom_bond_atom_site_label_1
_geom_bond_atom_site_label_2
_geom_bond_site_symmetry_1
_geom_bond_site_symmetry_2
Zn1 N1 1_555 1_555
O1 Zn2 1_555 1_555
C7 N1 1_555 1_555
H4 C7 1_555 1_555
C10 H6 1_555 1_555
H7 C10 1_555 1_555
H8 C10 1_555 1_555
N7 Zn1 1_555 1_555
O7 Zn1 1_555 1_555
O8 Zn2 1_555 1_555
O9 Zn1 1_555 1_555
N8 Zn2 1_555 1_555
N2 N6 1_555 1_555
N3 C9 1_555 1_555
O2 C6 1_555 1_555
O3 C8 1_555 1_555
O4 C6 1_555 1_555
O5 C3 1_555 1_555
O6 C1 1_555 1_555
N4 H1 1_555 1_555
C1 N4 1_555 1_555
C2 C1 1_555 1_555
N6 C13 1_555 1_555
C3 N5 1_555 1_555
C4 N2 1_555 1_555
H3 C4 1_555 1_555
C5 C3 1_555 1_555
C6 C12 1_555 1_555
C9 C5 1_555 1_555
H5 C9 1_555 1_555
C11 N5 1_555 1_555
H9 C11 1_555 1_555
C12 N4 1_555 1_555
H10 C12 1_555 1_555
C13 C2 1_555 1_555
H11 C13 1_555 1_555
C14 C12 1_555 1_555
H12 C14 1_555 1_555
H13 C14 1_555 1_555
H14 C14 1_555 1_555
Zn3 O2 1_555 1_555
Zn4 O4 1_555 1_555
Zn5 N3 1_555 1_555
Zn6 O3 1_555 1_555
C2 C4 1_555 1_555
N6 Zn6 1_555 1_555
C8 C11 1_555 1_555
Zn1_2 N1_2 1_555 1_555
C7_2 N1_2 1_555 1_555
H4_2 C7_2 1_555 1_555
C10_2 H6_2 1_555 1_555
H7_2 C10_2 1_555 1_555
H8_2 C10_2 1_555 1_555
O7_2 Zn1_2 1_555 1_555
O9_2 Zn1_2 1_555 1_555
N3_2 C9_2 1_555 1_555
O3_2 C8_2 1_555 1_555
O5_2 C3_2 1_555 1_555
C3_2 N5_2 1_555 1_555
C5_2 C3_2 1_555 1_555
C9_2 C5_2 1_555 1_555
H5_2 C9_2 1_555 1_555
C11_2 N5_2 1_555 1_555
H9_2 C11_2 1_555 1_555
Zn6_2 O3_2 1_555 1_555
C8_2 C11_2 1_555 1_555
O8_2 Zn2_2 1_555 1_555
N2_2 N6_2 1_555 1_555
O2_2 C6_2 1_555 1_555
O4_2 C6_2 1_555 1_555
O6_2 C1_2 1_555 1_555
N4_2 H1_2 1_555 1_555
C1_2 N4_2 1_555 1_555
C2_2 C1_2 1_555 1_555
N6_2 C13_2 1_555 1_555
C4_2 N2_2 1_555 1_555
H3_2 C4_2 1_555 1_555
C6_2 C12_2 1_555 1_555
C12_2 N4_2 1_555 1_555
H10_2 C12_2 1_555 1_555
C13_2 C2_2 1_555 1_555
H11_2 C13_2 1_555 1_555
C14_2 C12_2 1_555 1_555
H12_2 C14_2 1_555 1_555
H13_2 C14_2 1_555 1_555
H14_2 C14_2 1_555 1_555
Zn3_2 O2_2 1_555 1_555
Zn5 O4_2 1_555 1_555
C2_2 C4_2 1_555 1_555
O8_3 Zn2_3 1_555 1_555
N2_3 N6_3 1_555 1_555
O2_3 C6_3 1_555 1_555
O4_3 C6_3 1_555 1_555
O6_3 C1_3 1_555 1_555
N4_3 H1_3 1_555 1_555
C1_3 N4_3 1_555 1_555
C2_3 C1_3 1_555 1_555
N6_3 C13_3 1_555 1_555
C4_3 N2_3 1_555 1_555
H3_3 C4_3 1_555 1_555
C6_3 C12_3 1_555 1_555
C12_3 N4_3 1_555 1_555
H10_3 C12_3 1_555 1_555
C13_3 C2_3 1_555 1_555
H11_3 C13_3 1_555 1_555
C14_3 C12_3 1_555 1_555
H12_3 C14_3 1_555 1_555
H13_3 C14_3 1_555 1_555
H14_3 C14_3 1_555 1_555
Zn3_3 O2_3 1_555 1_555
Zn5_2 O4_3 1_555 1_555
C2_3 C4_3 1_555 1_555
Zn1_3 N1_3 1_555 1_555
C7_3 N1_3 1_555 1_555
H4_3 C7_3 1_555 1_555
C10_3 H6_3 1_555 1_555
H7_3 C10_3 1_555 1_555
H8_3 C10_3 1_555 1_555
O7_3 Zn1_3 1_555 1_555
O9_3 Zn1_3 1_555 1_555
N3_3 C9_3 1_555 1_555
O3_3 C8_3 1_555 1_555
O5_3 C3_3 1_555 1_555
C3_3 N5_3 1_555 1_555
C5_3 C3_3 1_555 1_555
C9_3 C5_3 1_555 1_555
H5_3 C9_3 1_555 1_555
C11_3 N5_3 1_555 1_555
H9_3 C11_3 1_555 1_555
Zn6_3 O3_3 1_555 1_555
C8_3 C11_3 1_555 1_555
Zn3_3 N1_4 1_555 1_555
N1_4 N7_2 1_555 1_555
O1_4 Zn2_4 1_555 1_555
N7_2 C9_4 1_555 1_555
O8_3 C8_4 1_555 1_555
O5_4 C3_4 1_555 1_555
N5_4 H2_4 1_555 1_555
C3_4 N5_4 1_555 1_555
C5_4 C3_4 1_555 1_555
C7_4 N1_4 1_555 1_555
H4_4 C7_4 1_555 1_555
C8_4 O1_4 1_555 1_555
C9_4 C5_4 1_555 1_555
H5_4 C9_4 1_555 1_555
C10_4 H6_4 1_555 1_555
H7_4 C10_4 1_555 1_555
H8_4 C10_4 1_555 1_555
C11_4 N5_4 1_555 1_555
H9_4 C11_4 1_555 1_555
O8_4 Zn2_4 1_555 1_555
C5_4 C7_4 1_555 1_555
C8_4 C11_4 1_555 1_555
C10_4 C11_4 1_555 1_555
N2_4 N8_3 1_555 1_555
O2_4 C6_4 1_555 1_555
O9 C6_4 1_555 1_555
N4_4 H1_4 1_555 1_555
C1_4 N4_4 1_555 1_555
C2_4 C1_4 1_555 1_555
N8_3 C13_4 1_555 1_555
C4_4 N2_4 1_555 1_555
H3_4 C4_4 1_555 1_555
C6_4 C12_4 1_555 1_555
C12_4 N4_4 1_555 1_555
H10_4 C12_4 1_555 1_555
C13_4 C2_4 1_555 1_555
C14_4 C12_4 1_555 1_555
H12_4 C14_4 1_555 1_555
H13_4 C14_4 1_555 1_555
C2_4 C4_4 1_555 1_555
Zn3 N1_5 1_555 1_555
Zn2_5 N2_5 1_555 1_555
N1_5 N7_3 1_555 1_555
N2_5 N8 1_555 1_555
O1_5 Zn2_5 1_555 1_555
N7_3 C9_5 1_555 1_555
O8 C8_5 1_555 1_555
O9_2 C6_5 1_555 1_555
O5_5 C3_5 1_555 1_555
N4_5 H1_5 1_555 1_555
C1_5 N4_5 1_555 1_555
N5_5 H2_5 1_555 1_555
C2_5 C1_5 1_555 1_555
N8 C13_5 1_555 1_555
C3_5 N5_5 1_555 1_555
C4_5 N2_5 1_555 1_555
H3_5 C4_5 1_555 1_555
C5_5 C3_5 1_555 1_555
C7_5 N1_5 1_555 1_555
H4_5 C7_5 1_555 1_555
C8_5 O1_5 1_555 1_555
C9_5 C5_5 1_555 1_555
H5_5 C9_5 1_555 1_555
C10_5 H6_5 1_555 1_555
H7_5 C10_5 1_555 1_555
H8_5 C10_5 1_555 1_555
C11_5 N5_5 1_555 1_555
H9_5 C11_5 1_555 1_555
C13_5 C2_5 1_555 1_555
O8_5 Zn2_5 1_555 1_555
N8_5 Zn2_5 1_555 1_555
C2_5 C4_5 1_555 1_555
C5_5 C7_5 1_555 1_555
C8_5 C11_5 1_555 1_555
C10_5 C11_5 1_555 1_555
N2_6 N8_2 1_555 1_555
O9_3 C6_6 1_555 1_555
N4_6 H1_6 1_555 1_555
C1_6 N4_6 1_555 1_555
C2_6 C1_6 1_555 1_555
N8_2 C13_6 1_555 1_555
C4_6 N2_6 1_555 1_555
H3_6 C4_6 1_555 1_555
C13_6 C2_6 1_555 1_555
C2_6 C4_6 1_555 1_555
Zn3_2 N1_6 1_555 1_555
N1_6 N7 1_555 1_555
O1_6 Zn2_6 1_555 1_555
N7 C9_6 1_555 1_555
O8_2 C8_6 1_555 1_555
O5_6 C3_6 1_555 1_555
N5_6 H2_6 1_555 1_555
C3_6 N5_6 1_555 1_555
C5_6 C3_6 1_555 1_555
C7_6 N1_6 1_555 1_555
H4_6 C7_6 1_555 1_555
C8_6 O1_6 1_555 1_555
C9_6 C5_6 1_555 1_555
H5_6 C9_6 1_555 1_555
C10_6 H6_6 1_555 1_555
H7_6 C10_6 1_555 1_555
H8_6 C10_6 1_555 1_555
C11_6 N5_6 1_555 1_555
H9_6 C11_6 1_555 1_555
N7_6 Zn3_2 1_555 1_555
O8_6 Zn2_6 1_555 1_555
O9_6 Zn3_2 1_555 1_555
C5_6 C7_6 1_555 1_555
C8_6 C11_6 1_555 1_555
C10_6 C11_6 1_555 1_555
Zn6_2 N2_7 1_555 1_555
N1_7 N7_5 1_555 1_555
N2_7 N8_6 1_555 1_555
O1_7 Zn6_2 1_555 1_555
N7_5 C9_7 1_555 1_555
O7_2 C6_7 1_555 1_555
O9_4 C6_7 1_555 1_555
O5_7 C3_7 1_555 1_555
O6_5 C1_7 1_555 1_555
N4_7 H1_7 1_555 1_555
C1_7 N4_7 1_555 1_555
N5_7 H2_7 1_555 1_555
C2_7 C1_7 1_555 1_555
N8_6 C13_7 1_555 1_555
C3_7 N5_7 1_555 1_555
C4_7 N2_7 1_555 1_555
H3_7 C4_7 1_555 1_555
C5_7 C3_7 1_555 1_555
C6_7 C12_5 1_555 1_555
C7_7 N1_7 1_555 1_555
H4_7 C7_7 1_555 1_555
C8_7 O1_7 1_555 1_555
C9_7 C5_7 1_555 1_555
H5_7 C9_7 1_555 1_555
C12_5 N4_7 1_555 1_555
H10_5 C12_5 1_555 1_555
C13_7 C2_7 1_555 1_555
H11_5 C13_7 1_555 1_555
C14_5 C12_5 1_555 1_555
H12_5 C14_5 1_555 1_555
H13_5 C14_5 1_555 1_555
H14_7 C14_5 1_555 1_555
C2_7 C4_7 1_555 1_555
C5_7 C7_7 1_555 1_555
C10_7 H6_7 1_555 1_555
H7_7 C10_7 1_555 1_555
H8_7 C10_7 1_555 1_555
H9_7 C11_7 1_555 1_555
C10_7 C11_7 1_555 1_555
C10_8 H6_8 1_555 1_555
H7_8 C10_8 1_555 1_555
H8_8 C10_8 1_555 1_555
H9_8 C11_8 1_555 1_555
C10_8 C11_8 1_555 1_555
Zn5 N1_8 1_555 1_555
Zn6_3 N2_8 1_555 1_555
N1_8 N7_6 1_555 1_555
N2_8 N8_4 1_555 1_555
O1_8 Zn6_3 1_555 1_555
N7_6 C9_8 1_555 1_555
O7_3 C6_8 1_555 1_555
O9_5 C6_8 1_555 1_555
O5_8 C3_8 1_555 1_555
O6_6 C1_8 1_555 1_555
N4_8 H1_8 1_555 1_555
C1_8 N4_8 1_555 1_555
N5_8 H2_8 1_555 1_555
C2_8 C1_8 1_555 1_555
N8_4 C13_8 1_555 1_555
C3_8 N5_8 1_555 1_555
C4_8 N2_8 1_555 1_555
H3_8 C4_8 1_555 1_555
C5_8 C3_8 1_555 1_555
C6_8 C12_6 1_555 1_555
C7_8 N1_8 1_555 1_555
H4_8 C7_8 1_555 1_555
C8_8 O1_8 1_555 1_555
C9_8 C5_8 1_555 1_555
H5_8 C9_8 1_555 1_555
C12_6 N4_8 1_555 1_555
H10_6 C12_6 1_555 1_555
C13_8 C2_8 1_555 1_555
H11_6 C13_8 1_555 1_555
C14_6 C12_6 1_555 1_555
H12_6 C14_6 1_555 1_555
H13_6 C14_6 1_555 1_555
H14_8 C14_6 1_555 1_555
C2_8 C4_8 1_555 1_555
C5_8 C7_8 1_555 1_555
Zn6 N2_9 1_555 1_555
N1_9 N7_4 1_555 1_555
N2_9 N8_5 1_555 1_555
O1_9 Zn6 1_555 1_555
N7_4 C9_9 1_555 1_555
O7 C6_9 1_555 1_555
O8_5 C8_9 1_555 1_555
O9_6 C6_9 1_555 1_555
O5_9 C3_9 1_555 1_555
O6_7 C1_9 1_555 1_555
N4_9 H1_9 1_555 1_555
C1_9 N4_9 1_555 1_555
N5_9 H2_9 1_555 1_555
C2_9 C1_9 1_555 1_555
N8_5 C13_9 1_555 1_555
C3_9 N5_9 1_555 1_555
C4_9 N2_9 1_555 1_555
H3_9 C4_9 1_555 1_555
C5_9 C3_9 1_555 1_555
C6_9 C12_7 1_555 1_555
C7_9 N1_9 1_555 1_555
H4_9 C7_9 1_555 1_555
C8_9 O1_9 1_555 1_555
C9_9 C5_9 1_555 1_555
H5_9 C9_9 1_555 1_555
C10_9 H6_9 1_555 1_555
H7_9 C10_9 1_555 1_555
H8_9 C10_9 1_555 1_555
C11_9 N5_9 1_555 1_555
H9_9 C11_9 1_555 1_555
C12_7 N4_9 1_555 1_555
H10_7 C12_7 1_555 1_555
C13_9 C2_9 1_555 1_555
H11_7 C13_9 1_555 1_555
C14_7 C12_7 1_555 1_555
H12_7 C14_7 1_555 1_555
H13_7 C14_7 1_555 1_555
H14_9 C14_7 1_555 1_555
C2_9 C4_9 1_555 1_555
C5_9 C7_9 1_555 1_555
C8_9 C11_9 1_555 1_555
C10_9 C11_9 1_555 1_555
H10_8 C12_8 1_555 1_555
C14_8 C12_8 1_555 1_555
H12_8 C14_8 1_555 1_555
H13_8 C14_8 1_555 1_555
H10_9 C12_9 1_555 1_555
C14_9 C12_9 1_555 1_555
H12_9 C14_9 1_555 1_555
H13_9 C14_9 1_555 1_555

#END
