
###############################################################################
#
# This file contains modified crystal structure data generated from the
# MOF subset of the Cambridge Structural Database (CSD) v543 
# hosted by the Cambridge Crystallographic Data Centre (CCDC).
#
# This work is licensed under the Creative Commons
# Attribution-NonCommercial-ShareAlike 4.0 International License.
# To view a copy of this license, visit
# http://creativecommons.org/licenses/by-nc-sa/4.0/
# or send a letter to
# Creative Commons, PO Box 1866, Mountain View, CA 94042, USA.
#
# CIF created using the CSD Python API on 29 September 2022
# The structure has been converted into the P1 space group
# The structure has a 3D framework
# The original CSD entry VUWXUJ is in the rhombohedral crystal system
# The original CSD entry VUWXUJ is in a Sohncke space group
# The framework has been calculated to contain at least 10.0% void space
# The void calculation uses a probe of radius 1.32A, grid spacing 0.4
#
###############################################################################

data_VUWXUJ
_chemical_formula_moiety         '(C126 H126 N54 O53 Zn16)n'
_symmetry_cell_setting           triclinic
_symmetry_space_group_name_H-M   'P 1'
_symmetry_Int_Tables_number      1
_space_group_name_Hall           'P 1'
loop_
_symmetry_equiv_pos_site_id
_symmetry_equiv_pos_as_xyz
1 x,y,z
_cell_length_a                   28.2673(9)
_cell_length_b                   28.2673(9)
_cell_length_c                   10.1143(2)
_cell_angle_alpha                90
_cell_angle_beta                 90
_cell_angle_gamma                120
_cell_volume                     6998.99
loop_
_atom_site_label
_atom_site_type_symbol
_atom_site_fract_x
_atom_site_fract_y
_atom_site_fract_z
Zn1 Zn 0.02499(6) 0.35350(6) 0.80407(11)
Zn2 Zn 0.02484(6) 0.67193(6) 0.30177(11)
O1 O 0.0713(4) 0.4057(4) 0.6681(8)
O2 O 0.0870(5) 0.5455(4) 0.2374(9)
N2 N 0.0410(5) 0.6387(5) 0.4547(9)
N3 N 0.0287(6) 0.3869(4) 0.0851(9)
C1 C 0.0700(6) 0.6358(5) 0.0731(11)
O3 O 0.0305(4) 0.4163(6) 0.4922(8)
O4 O 0.0718(4) 0.6673(4) 0.1621(8)
C2 C 0.0836(6) 0.5333(5) 0.1195(12)
C3 C 0.0695(5) 0.4345(5) 0.5730(11)
O5 O 0.0817(5) 0.5374(4) 0.7329(9)
C4 C 0.0818(5) 0.5486(5) 0.6157(11)
C5 C 0.0628(5) 0.6071(5) 0.4487(11)
H1 H 0.0761 0.5993 0.3702
N4 N 0.0266(4) 0.6403(6) 0.5818(9)
C6 C 0.1176(6) 0.6278(6) 0.0517(12)
H2 H 0.1400 0.6386 0.1343
C7 C 0.1177(6) 0.4889(5) 0.5470(12)
H3 H 0.1330 0.4851 0.4613
N5 N 0.0993(5) 0.5699(5) 0.0234(9)
N6 N 0.0988(5) 0.5287(4) 0.5203(10)
H6 H 0.0990 0.5393 0.4384
C9 C 0.0637(5) 0.5869(5) 0.5728(10)
C10 C 0.0638(6) 0.4747(6) 0.0752(11)
C11 C 0.0430(7) 0.4300(5) 0.1544(13)
H7 H 0.0394 0.4305 0.2477
C12 C 0.0405(6) 0.6110(6) 0.6530(12)
H8 H 0.0358 0.6064 0.7460
C14 C 0.1649(12) 0.5100(11) 0.645(3)
H12 H 0.1512 0.5095 0.7346
H13 H 0.1925 0.5475 0.6219
H14 H 0.1812 0.4866 0.6424
N7 N 0.0407(5) 0.4025(4) 0.9559(9)
O7 O 0.0525(7) 0.3028(4) 0.8255(8)
O8 O 0.0532(4) 0.7504(7) 0.3234(8)
O6 O 0.0306(6) 0.6135(4) 0.9901(8)
C8 C 0.0628(6) 0.4548(6) 0.9525(11)
H4 H 0.0765 0.4764 0.8749
H5 H 0.0988 0.5595 0.9412
C13 C 0.1522(7) 0.6637(6) 0.9420(16)
H9 H 0.1340 0.6488 0.8573
H10 H 0.1877 0.6655 0.9429
H11 H 0.1576 0.7005 0.9539
Zn4 Zn 0.99518(8) 0.30834(6) 0.13740(11)
Zn5 Zn 0.97983(6) 0.33816(8) 0.47074(11)
Zn6 Zn 0.99474(6) 0.68624(8) 0.63510(11)
N8 N 0.9464(4) 0.3085(7) 0.7518(9)
N9 N 0.9470(7) 0.6401(4) 0.2485(9)
Zn7 Zn 0.98042(8) 0.64183(6) 0.96844(11)
Zn1_2 Zn 0.64650(6) 0.67149(8) 0.80407(11)
Zn2_2 Zn 0.32807(6) 0.35291(8) 0.30177(11)
O1_2 O 0.5943(4) 0.6656(6) 0.6681(8)
O2_2 O 0.4545(4) 0.5415(6) 0.2374(9)
N2_2 N 0.3613(5) 0.4023(7) 0.4547(9)
N3_2 N 0.6131(4) 0.6418(7) 0.0851(9)
C1_2 C 0.3642(5) 0.4342(8) 0.0731(11)
O3_2 O 0.5837(6) 0.6142(7) 0.4922(8)
O4_2 O 0.3327(4) 0.4045(6) 0.1621(8)
C2_2 C 0.4667(5) 0.5503(8) 0.1195(12)
C3_2 C 0.5655(5) 0.6350(7) 0.5730(11)
O5_2 O 0.4626(4) 0.5443(6) 0.7329(9)
C4_2 C 0.4514(5) 0.5332(7) 0.6157(11)
C5_2 C 0.3929(5) 0.4557(7) 0.4487(11)
H1_2 H 0.4007 0.4768 0.3702
N4_2 N 0.3597(6) 0.3863(7) 0.5818(9)
C6_2 C 0.3722(6) 0.4898(8) 0.0517(12)
H2_2 H 0.3614 0.5014 0.1343
C7_2 C 0.5111(5) 0.6288(8) 0.5470(12)
H3_2 H 0.5149 0.6479 0.4613
N5_2 N 0.4301(5) 0.5294(7) 0.0234(9)
N6_2 N 0.4713(4) 0.5701(6) 0.5203(10)
H6_2 H 0.4607 0.5597 0.4384
C9_2 C 0.4131(5) 0.4768(7) 0.5728(10)
C10_2 C 0.5253(6) 0.5891(8) 0.0752(11)
C11_2 C 0.5700(5) 0.6130(9) 0.1544(13)
H7_2 H 0.5695 0.6089 0.2477
C12_2 C 0.3890(6) 0.4295(8) 0.6530(12)
H8_2 H 0.3936 0.4294 0.7460
C14_2 C 0.4900(11) 0.6549(16) 0.645(3)
H12_2 H 0.4905 0.6417 0.7346
H13_2 H 0.4525 0.6450 0.6219
H14_2 H 0.5134 0.6946 0.6424
Zn4_2 Zn 0.69166(6) 0.68683(10) 0.13740(11)
Zn5_2 Zn 0.66184(8) 0.64168(10) 0.47074(11)
Zn6_2 Zn 0.31376(8) 0.30849(10) 0.63510(11)
N7_2 N 0.5975(4) 0.6382(6) 0.9559(9)
N8_2 N 0.6915(7) 0.6380(8) 0.7518(9)
O7_2 O 0.6972(4) 0.7496(8) 0.8255(8)
O8_2 O 0.2496(7) 0.3027(8) 0.3234(8)
N9_2 N 0.3599(4) 0.3070(8) 0.2485(9)
O6_2 O 0.3865(4) 0.4171(7) 0.9901(8)
C8_2 C 0.5452(6) 0.6080(8) 0.9525(11)
H4_2 H 0.5236 0.6001 0.8749
H5_2 H 0.4405 0.5393 0.9412
C13_2 C 0.3363(6) 0.4885(9) 0.9420(16)
H9_2 H 0.3512 0.4852 0.8573
H10_2 H 0.3345 0.5222 0.9429
H11_2 H 0.2995 0.4571 0.9539
Zn7_2 Zn 0.35817(6) 0.33860(10) 0.96844(11)
Zn4_3 Zn 0.31317(10) 0.00482(8) 0.13740(11)
Zn5_3 Zn 0.35832(10) 0.02017(6) 0.47074(11)
Zn6_3 Zn 0.69151(10) 0.00526(6) 0.63510(11)
N8_3 N 0.3620(8) 0.0536(4) 0.7518(9)
N9_3 N 0.6930(8) 0.0530(7) 0.2485(9)
Zn7_3 Zn 0.66140(10) 0.01958(8) 0.96844(11)
Zn1_3 Zn 0.32851(8) 0.97501(6) 0.80407(11)
Zn2_3 Zn 0.64709(8) 0.97516(6) 0.30177(11)
O1_3 O 0.3344(6) 0.9287(4) 0.6681(8)
O2_3 O 0.4585(6) 0.9130(5) 0.2374(9)
N2_3 N 0.5977(7) 0.9590(5) 0.4547(9)
N3_3 N 0.3582(7) 0.9713(6) 0.0851(9)
C1_3 C 0.5658(8) 0.9300(6) 0.0731(11)
O3_3 O 0.3858(7) 0.9695(4) 0.4922(8)
O4_3 O 0.5955(6) 0.9282(4) 0.1621(8)
C2_3 C 0.4497(8) 0.9164(6) 0.1195(12)
C3_3 C 0.3650(7) 0.9305(5) 0.5730(11)
O5_3 O 0.4557(6) 0.9183(5) 0.7329(9)
C4_3 C 0.4668(7) 0.9182(5) 0.6157(11)
C5_3 C 0.5443(7) 0.9372(5) 0.4487(11)
H1_3 H 0.5232 0.9239 0.3702
N4_3 N 0.6137(7) 0.9734(4) 0.5818(9)
C6_3 C 0.5102(8) 0.8824(6) 0.0517(12)
H2_3 H 0.4986 0.8600 0.1343
C7_3 C 0.3712(8) 0.8823(6) 0.5470(12)
H3_3 H 0.3521 0.8670 0.4613
N5_3 N 0.4706(7) 0.9007(5) 0.0234(9)
N6_3 N 0.4299(6) 0.9012(5) 0.5203(10)
H6_3 H 0.4403 0.9010 0.4384
C9_3 C 0.5232(7) 0.9363(5) 0.5728(10)
C10_3 C 0.4109(8) 0.9362(6) 0.0752(11)
C11_3 C 0.3870(9) 0.9570(7) 0.1544(13)
H7_3 H 0.3911 0.9606 0.2477
C12_3 C 0.5705(8) 0.9595(6) 0.6530(12)
H8_3 H 0.5706 0.9642 0.7460
C14_3 C 0.3451(16) 0.8351(12) 0.645(3)
H12_3 H 0.3583 0.8488 0.7346
H13_3 H 0.3550 0.8075 0.6219
H14_3 H 0.3054 0.8188 0.6424
N7_3 N 0.3618(6) 0.9593(5) 0.9559(9)
O7_3 O 0.2504(8) 0.9475(7) 0.8255(8)
O8_3 O 0.6973(8) 0.9468(4) 0.3234(8)
O6_3 O 0.5829(7) 0.9694(6) 0.9901(8)
C8_3 C 0.3920(8) 0.9372(6) 0.9525(11)
H4_3 H 0.3999 0.9235 0.8749
H5_3 H 0.4607 0.9012 0.9412
C13_3 C 0.5115(9) 0.8478(7) 0.9420(16)
H9_3 H 0.5148 0.8660 0.8573
H10_3 H 0.4778 0.8123 0.9429
H11_3 H 0.5429 0.8424 0.9539
O4_4 O 0.7385(4) 0.0006(4) 0.4954(8)
H11_4 H 0.8243 0.0338 0.2872
O8_4 O 0.7198(4) 0.0838(7) 0.6568(8)
O1_4 O 0.7380(4) 0.7390(4) 0.0014(8)
O5_4 O 0.7484(5) 0.8707(4) 0.0662(9)
H8_4 H 0.7025 0.9397 0.0793
H12_4 H 0.8179 0.8428 0.0679
N7_4 N 0.7074(5) 0.7358(4) 0.2892(9)
O7_4 O 0.7191(7) 0.6362(4) 0.1589(8)
O2_4 O 0.7537(5) 0.8788(4) 0.5707(9)
N2_4 N 0.7077(5) 0.9720(5) 0.7880(9)
N3_4 N 0.6954(6) 0.7202(4) 0.4184(9)
C1_4 C 0.7367(6) 0.9691(5) 0.4064(11)
C2_4 C 0.7503(6) 0.8666(5) 0.4528(12)
C3_4 C 0.7362(5) 0.7678(5) 0.9063(11)
C4_4 C 0.7485(5) 0.8819(5) 0.9490(11)
C5_4 C 0.7295(5) 0.9404(5) 0.7820(11)
H1_4 H 0.7428 0.9326 0.7035
N4_4 N 0.6933(4) 0.9736(6) 0.9151(9)
C6_4 C 0.7843(6) 0.9611(6) 0.3850(12)
H2_4 H 0.8067 0.9719 0.4676
C7_4 C 0.7844(6) 0.8222(5) 0.8803(12)
H3_4 H 0.7997 0.8184 0.7946
C8_4 C 0.7295(6) 0.7881(6) 0.2858(11)
H4_4 H 0.7432 0.8097 0.2082
N5_4 N 0.7660(5) 0.9032(5) 0.3567(9)
H5_4 H 0.7655 0.8928 0.2745
N6_4 N 0.7655(5) 0.8620(4) 0.8536(10)
H6_4 H 0.7657 0.8726 0.7717
C9_4 C 0.7304(5) 0.9202(5) 0.9061(10)
C10_4 C 0.7305(6) 0.8080(6) 0.4085(11)
C11_4 C 0.7097(7) 0.7633(5) 0.4877(13)
H7_4 H 0.7061 0.7638 0.5810
C12_4 C 0.7072(6) 0.9443(6) 0.9863(12)
C13_4 C 0.8189(7) 0.9970(6) 0.2753(16)
H9_4 H 0.8007 0.9821 0.1906
H10_4 H 0.8544 0.9988 0.2762
C14_4 C 0.8316(12) 0.8433(11) 0.978(3)
H13_4 H 0.8592 0.8808 0.9552
H14_4 H 0.8479 0.8199 0.9757
O7_5 O 0.3638(4) 0.0830(8) 0.1589(8)
H14_5 H 0.1801 0.0279 0.9757
O1_5 O 0.2610(4) 0.9989(6) 0.0014(8)
O5_5 O 0.1293(4) 0.8776(6) 0.0662(9)
H8_5 H 0.0603 0.7627 0.0793
H12_5 H 0.1572 0.9750 0.0679
N7_5 N 0.2642(4) 0.9715(6) 0.2892(9)
O2_5 O 0.1212(4) 0.8748(6) 0.5707(9)
N2_5 N 0.0280(5) 0.7356(7) 0.7880(9)
N3_5 N 0.2798(4) 0.9751(7) 0.4184(9)
C1_5 C 0.0309(5) 0.7675(8) 0.4064(11)
C2_5 C 0.1334(5) 0.8836(8) 0.4528(12)
C3_5 C 0.2322(5) 0.9683(7) 0.9063(11)
C4_5 C 0.1181(5) 0.8665(7) 0.9490(11)
C5_5 C 0.0596(5) 0.7890(7) 0.7820(11)
H1_5 H 0.0674 0.8101 0.7035
N4_5 N 0.0264(6) 0.7196(7) 0.9151(9)
C6_5 C 0.0389(6) 0.8231(8) 0.3850(12)
H2_5 H 0.0281 0.8347 0.4676
C7_5 C 0.1778(5) 0.9621(8) 0.8803(12)
H3_5 H 0.1816 0.9812 0.7946
C8_5 C 0.2119(6) 0.9413(8) 0.2858(11)
H4_5 H 0.1903 0.9334 0.2082
N5_5 N 0.0968(5) 0.8627(7) 0.3567(9)
H5_5 H 0.1072 0.8726 0.2745
N6_5 N 0.1380(4) 0.9034(6) 0.8536(10)
H6_5 H 0.1274 0.8930 0.7717
C9_5 C 0.0798(5) 0.8101(7) 0.9061(10)
C10_5 C 0.1920(6) 0.9224(8) 0.4085(11)
C11_5 C 0.2367(5) 0.9463(9) 0.4877(13)
H7_5 H 0.2362 0.9422 0.5810
C12_5 C 0.0557(6) 0.7628(8) 0.9863(12)
C13_5 C 0.0030(6) 0.8218(9) 0.2753(16)
H9_5 H 0.0179 0.8185 0.1906
H10_5 H 0.0012 0.8555 0.2762
C14_5 C 0.1567(11) 0.9882(16) 0.978(3)
H13_5 H 0.1192 0.9783 0.9552
O4_5 O 0.9994(4) 0.7378(6) 0.4954(8)
H11_5 H 0.9662 0.7904 0.2872
O8_5 O 0.9162(7) 0.6361(8) 0.6568(8)
O1_6 O 0.0011(6) 0.2620(4) 0.0014(8)
O5_6 O 0.1224(6) 0.2516(5) 0.0662(9)
H8_6 H 0.2373 0.2975 0.0793
H12_6 H 0.0250 0.1821 0.0679
N7_6 N 0.0285(6) 0.2926(5) 0.2892(9)
O2_6 O 0.1252(6) 0.2463(5) 0.5707(9)
N2_6 N 0.2644(7) 0.2923(5) 0.7880(9)
N3_6 N 0.0249(7) 0.3046(6) 0.4184(9)
C1_6 C 0.2325(8) 0.2633(6) 0.4064(11)
O4_6 O 0.2622(6) 0.2615(4) 0.4954(8)
C2_6 C 0.1164(8) 0.2497(6) 0.4528(12)
C3_6 C 0.0317(7) 0.2638(5) 0.9063(11)
C4_6 C 0.1335(7) 0.2515(5) 0.9490(11)
C5_6 C 0.2110(7) 0.2705(5) 0.7820(11)
H1_6 H 0.1899 0.2572 0.7035
N4_6 N 0.2804(7) 0.3067(4) 0.9151(9)
C6_6 C 0.1769(8) 0.2157(6) 0.3850(12)
H2_6 H 0.1653 0.1933 0.4676
C7_6 C 0.0379(8) 0.2156(6) 0.8803(12)
H3_6 H 0.0188 0.2003 0.7946
C8_6 C 0.0587(8) 0.2705(6) 0.2858(11)
H4_6 H 0.0666 0.2568 0.2082
N5_6 N 0.1373(7) 0.2340(5) 0.3567(9)
H5_6 H 0.1274 0.2345 0.2745
N6_6 N 0.0966(6) 0.2345(5) 0.8536(10)
H6_6 H 0.1070 0.2343 0.7717
C9_6 C 0.1899(7) 0.2696(5) 0.9061(10)
C10_6 C 0.0776(8) 0.2695(6) 0.4085(11)
C11_6 C 0.0537(9) 0.2903(7) 0.4877(13)
H7_6 H 0.0578 0.2939 0.5810
C12_6 C 0.2372(8) 0.2928(6) 0.9863(12)
C13_6 C 0.1782(9) 0.1811(7) 0.2753(16)
H9_6 H 0.1815 0.1993 0.1906
H10_6 H 0.1445 0.1456 0.2762
H11_6 H 0.2096 0.1757 0.2872
C14_6 C 0.0118(16) 0.1684(12) 0.978(3)
H13_6 H 0.0217 0.1408 0.9552
O8_6 O 0.3639(8) 0.2802(4) 0.6568(8)
O7_6 O 0.9170(8) 0.2809(7) 0.1589(8)
H14_6 H 0.9721 0.1521 0.9757
O1_7 O 0.4046(4) 0.0724(4) 0.3348(8)
N2_7 N 0.3743(5) 0.3054(5) 0.1214(9)
C3_7 C 0.4028(5) 0.1012(5) 0.2397(11)
O5_7 O 0.4150(5) 0.2041(4) 0.3996(9)
C4_7 C 0.4151(5) 0.2153(5) 0.2824(11)
C5_7 C 0.3961(5) 0.2738(5) 0.1154(11)
H1_7 H 0.4094 0.2660 0.0369
C7_7 C 0.4510(6) 0.1556(5) 0.2137(12)
H3_7 H 0.4663 0.1518 0.1280
N6_7 N 0.4321(5) 0.1954(4) 0.1870(10)
H6_7 H 0.4323 0.2060 0.1051
C9_7 C 0.3970(5) 0.2536(5) 0.2395(10)
C12_7 C 0.3738(6) 0.2777(6) 0.3197(12)
H8_7 H 0.3691 0.2731 0.4127
C14_7 C 0.4982(12) 0.1767(11) 0.312(3)
H12_7 H 0.4845 0.1762 0.4013
H13_7 H 0.5258 0.2142 0.2886
H14_7 H 0.5145 0.1533 0.3091
N7_7 N 0.3740(5) 0.0692(4) 0.6226(9)
O2_7 O 0.4203(5) 0.2122(4) 0.9041(9)
C1_7 C 0.4033(6) 0.3025(5) 0.7398(11)
O4_7 O 0.4051(4) 0.3340(4) 0.8288(8)
C2_7 C 0.4169(6) 0.2000(5) 0.7862(12)
C6_7 C 0.4509(6) 0.2945(6) 0.7184(12)
H2_7 H 0.4733 0.3053 0.8010
C8_7 C 0.3961(6) 0.1215(6) 0.6192(11)
H4_7 H 0.4098 0.1431 0.5416
N5_7 N 0.4326(5) 0.2366(5) 0.6901(9)
H5_7 H 0.4321 0.2262 0.6079
C10_7 C 0.3971(6) 0.1414(6) 0.7419(11)
C11_7 C 0.3763(7) 0.0967(5) 0.8211(13)
H7_7 H 0.3727 0.0972 0.9144
C13_7 C 0.4855(7) 0.3304(6) 0.6087(16)
H9_7 H 0.4673 0.3155 0.5240
H10_7 H 0.5210 0.3322 0.6096
H11_7 H 0.4909 0.3672 0.6206
O1_8 O 0.9276(4) 0.3323(6) 0.3348(8)
N2_8 N 0.6946(5) 0.0690(7) 0.1214(9)
C3_8 C 0.8988(5) 0.3017(7) 0.2397(11)
O5_8 O 0.7959(4) 0.2110(6) 0.3996(9)
C4_8 C 0.7847(5) 0.1999(7) 0.2824(11)
C5_8 C 0.7262(5) 0.1224(7) 0.1154(11)
H1_8 H 0.7340 0.1435 0.0369
C7_8 C 0.8444(5) 0.2955(8) 0.2137(12)
H3_8 H 0.8482 0.3146 0.1280
N6_8 N 0.8046(4) 0.2368(6) 0.1870(10)
H6_8 H 0.7940 0.2264 0.1051
C9_8 C 0.7464(5) 0.1435(7) 0.2395(10)
C12_8 C 0.7223(6) 0.0962(8) 0.3197(12)
H8_8 H 0.7269 0.0961 0.4127
C14_8 C 0.8233(11) 0.3216(16) 0.312(3)
H12_8 H 0.8238 0.3084 0.4013
H13_8 H 0.7858 0.3117 0.2886
H14_8 H 0.8467 0.3613 0.3091
N7_8 N 0.9308(4) 0.3049(6) 0.6226(9)
O2_8 O 0.7878(4) 0.2082(6) 0.9041(9)
C1_8 C 0.6975(5) 0.1009(8) 0.7398(11)
O4_8 O 0.6660(4) 0.0712(6) 0.8288(8)
C2_8 C 0.8000(5) 0.2170(8) 0.7862(12)
C6_8 C 0.7055(6) 0.1565(8) 0.7184(12)
H2_8 H 0.6947 0.1681 0.8010
C8_8 C 0.8785(6) 0.2747(8) 0.6192(11)
H4_8 H 0.8569 0.2668 0.5416
N5_8 N 0.7634(5) 0.1961(7) 0.6901(9)
H5_8 H 0.7738 0.2060 0.6079
C10_8 C 0.8586(6) 0.2558(8) 0.7419(11)
C11_8 C 0.9033(5) 0.2797(9) 0.8211(13)
H7_8 H 0.9028 0.2756 0.9144
C13_8 C 0.6696(6) 0.1552(9) 0.6087(16)
H9_8 H 0.6845 0.1519 0.5240
H10_8 H 0.6678 0.1889 0.6096
H11_8 H 0.6328 0.1238 0.6206
O1_9 O 0.6677(6) 0.5954(4) 0.3348(8)
N2_9 N 0.9310(7) 0.6257(5) 0.1214(9)
C3_9 C 0.6983(7) 0.5972(5) 0.2397(11)
O5_9 O 0.7890(6) 0.5850(5) 0.3996(9)
C4_9 C 0.8001(7) 0.5849(5) 0.2824(11)
C5_9 C 0.8776(7) 0.6039(5) 0.1154(11)
H1_9 H 0.8565 0.5906 0.0369
C7_9 C 0.7045(8) 0.5490(6) 0.2137(12)
H3_9 H 0.6854 0.5337 0.1280
N6_9 N 0.7632(6) 0.5679(5) 0.1870(10)
H6_9 H 0.7736 0.5677 0.1051
C9_9 C 0.8565(7) 0.6030(5) 0.2395(10)
C12_9 C 0.9038(8) 0.6262(6) 0.3197(12)
H8_9 H 0.9039 0.6309 0.4127
C14_9 C 0.6784(16) 0.5018(12) 0.312(3)
H12_9 H 0.6916 0.5155 0.4013
H13_9 H 0.6883 0.4742 0.2886
H14_9 H 0.6387 0.4855 0.3091
N7_9 N 0.6951(6) 0.6260(5) 0.6226(9)
O2_9 O 0.7918(6) 0.5797(5) 0.9041(9)
C1_9 C 0.8991(8) 0.5967(6) 0.7398(11)
O4_9 O 0.9288(6) 0.5949(4) 0.8288(8)
C2_9 C 0.7830(8) 0.5831(6) 0.7862(12)
C6_9 C 0.8435(8) 0.5491(6) 0.7184(12)
H2_9 H 0.8319 0.5267 0.8010
C8_9 C 0.7253(8) 0.6039(6) 0.6192(11)
H4_9 H 0.7332 0.5902 0.5416
N5_9 N 0.8039(7) 0.5674(5) 0.6901(9)
H5_9 H 0.7940 0.5679 0.6079
C10_9 C 0.7442(8) 0.6029(6) 0.7419(11)
C11_9 C 0.7203(9) 0.6237(7) 0.8211(13)
H7_9 H 0.7244 0.6273 0.9144
C13_9 C 0.8448(9) 0.5145(7) 0.6087(16)
H9_9 H 0.8481 0.5327 0.5240
H10_9 H 0.8111 0.4790 0.6096
H11_9 H 0.8762 0.5091 0.6206
loop_
_geom_bond_atom_site_label_1
_geom_bond_atom_site_label_2
_geom_bond_site_symmetry_1
_geom_bond_site_symmetry_2
Zn1 O1 1_555 1_555
Zn2 N2 1_555 1_555
O1 C3 1_555 1_555
O2 C2 1_555 1_555
N2 C5 1_555 1_555
N3 C11 1_555 1_555
C1 O4 1_555 1_555
O3 C3 1_555 1_555
O4 Zn2 1_555 1_555
C2 N5 1_555 1_555
C3 C7 1_555 1_555
O5 C4 1_555 1_555
C4 N6 1_555 1_555
C5 H1 1_555 1_555
N4 N2 1_555 1_555
C6 C1 1_555 1_555
H2 C6 1_555 1_555
C7 H3 1_555 1_555
N5 C6 1_555 1_555
N6 C7 1_555 1_555
H6 N6 1_555 1_555
C9 C4 1_555 1_555
C10 C2 1_555 1_555
C11 C10 1_555 1_555
H7 C11 1_555 1_555
C12 N4 1_555 1_555
H8 C12 1_555 1_555
C14 C7 1_555 1_555
H12 C14 1_555 1_555
H13 C14 1_555 1_555
H14 C14 1_555 1_555
N7 Zn1 1_555 1_555
O7 Zn1 1_555 1_555
O8 Zn2 1_555 1_555
C5 C9 1_555 1_555
C9 C12 1_555 1_555
C8 N7 1_555 1_555
H4 C8 1_555 1_555
H9 C13 1_555 1_555
H10 C13 1_555 1_555
H11 C13 1_555 1_555
Zn1_2 O1_2 1_555 1_555
Zn2_2 N2_2 1_555 1_555
O1_2 C3_2 1_555 1_555
O2_2 C2_2 1_555 1_555
N2_2 C5_2 1_555 1_555
N3_2 C11_2 1_555 1_555
C1_2 O4_2 1_555 1_555
O3_2 C3_2 1_555 1_555
O4_2 Zn2_2 1_555 1_555
C2_2 N5_2 1_555 1_555
C3_2 C7_2 1_555 1_555
O5_2 C4_2 1_555 1_555
C4_2 N6_2 1_555 1_555
C5_2 H1_2 1_555 1_555
N4_2 N2_2 1_555 1_555
C6_2 C1_2 1_555 1_555
H2_2 C6_2 1_555 1_555
C7_2 H3_2 1_555 1_555
N5_2 C6_2 1_555 1_555
N6_2 C7_2 1_555 1_555
H6_2 N6_2 1_555 1_555
C9_2 C4_2 1_555 1_555
C10_2 C2_2 1_555 1_555
C11_2 C10_2 1_555 1_555
H7_2 C11_2 1_555 1_555
C12_2 N4_2 1_555 1_555
H8_2 C12_2 1_555 1_555
C14_2 C7_2 1_555 1_555
H12_2 C14_2 1_555 1_555
H13_2 C14_2 1_555 1_555
H14_2 C14_2 1_555 1_555
Zn4_2 N3_2 1_555 1_555
Zn5_2 O3_2 1_555 1_555
Zn6_2 N4_2 1_555 1_555
N7_2 Zn1_2 1_555 1_555
N8_2 Zn1_2 1_555 1_555
O7_2 Zn1_2 1_555 1_555
O8_2 Zn2_2 1_555 1_555
N9_2 Zn2_2 1_555 1_555
C5_2 C9_2 1_555 1_555
C9_2 C12_2 1_555 1_555
C8_2 N7_2 1_555 1_555
H4_2 C8_2 1_555 1_555
H9_2 C13_2 1_555 1_555
H10_2 C13_2 1_555 1_555
H11_2 C13_2 1_555 1_555
Zn7_2 O6_2 1_555 1_555
Zn1_3 O1_3 1_555 1_555
Zn2_3 N2_3 1_555 1_555
O1_3 C3_3 1_555 1_555
O2_3 C2_3 1_555 1_555
N2_3 C5_3 1_555 1_555
N3_3 C11_3 1_555 1_555
C1_3 O4_3 1_555 1_555
O3_3 C3_3 1_555 1_555
O4_3 Zn2_3 1_555 1_555
C2_3 N5_3 1_555 1_555
C3_3 C7_3 1_555 1_555
O5_3 C4_3 1_555 1_555
C4_3 N6_3 1_555 1_555
C5_3 H1_3 1_555 1_555
N4_3 N2_3 1_555 1_555
C6_3 C1_3 1_555 1_555
H2_3 C6_3 1_555 1_555
C7_3 H3_3 1_555 1_555
N5_3 C6_3 1_555 1_555
N6_3 C7_3 1_555 1_555
H6_3 N6_3 1_555 1_555
C9_3 C4_3 1_555 1_555
C10_3 C2_3 1_555 1_555
C11_3 C10_3 1_555 1_555
H7_3 C11_3 1_555 1_555
C12_3 N4_3 1_555 1_555
H8_3 C12_3 1_555 1_555
C14_3 C7_3 1_555 1_555
H12_3 C14_3 1_555 1_555
H13_3 C14_3 1_555 1_555
H14_3 C14_3 1_555 1_555
N7_3 Zn1_3 1_555 1_555
O7_3 Zn1_3 1_555 1_555
O8_3 Zn2_3 1_555 1_555
C5_3 C9_3 1_555 1_555
C9_3 C12_3 1_555 1_555
C8_3 N7_3 1_555 1_555
H4_3 C8_3 1_555 1_555
H9_3 C13_3 1_555 1_555
H10_3 C13_3 1_555 1_555
H11_3 C13_3 1_555 1_555
O4_4 Zn6_3 1_555 1_555
O8_4 Zn6_3 1_555 1_555
Zn4_2 O1_4 1_555 1_555
N7_4 Zn4_2 1_555 1_555
O7_4 Zn4_2 1_555 1_555
N7_4 N3_4 1_555 1_555
O2_4 C2_4 1_555 1_555
N2_4 C5_4 1_555 1_555
N3_4 C11_4 1_555 1_555
O7_2 C3_4 1_555 1_555
C2_4 N5_4 1_555 1_555
C3_4 C7_4 1_555 1_555
C4_4 N6_4 1_555 1_555
O8_3 C1_4 1_555 1_555
C5_4 H1_4 1_555 1_555
N4_4 N2_4 1_555 1_555
C6_4 C1_4 1_555 1_555
H2_4 C6_4 1_555 1_555
C7_4 H3_4 1_555 1_555
C8_4 N7_4 1_555 1_555
H4_4 C8_4 1_555 1_555
N5_4 C6_4 1_555 1_555
H5_4 N5_4 1_555 1_555
N6_4 C7_4 1_555 1_555
H6_4 N6_4 1_555 1_555
C9_4 C4_4 1_555 1_555
C10_4 C2_4 1_555 1_555
C11_4 C10_4 1_555 1_555
H7_4 C11_4 1_555 1_555
C12_4 N4_4 1_555 1_555
C13_4 C6_4 1_555 1_555
H9_4 C13_4 1_555 1_555
H10_4 C13_4 1_555 1_555
C14_4 C7_4 1_555 1_555
H13_4 C14_4 1_555 1_555
H14_4 C14_4 1_555 1_555
Zn5_2 N3_4 1_555 1_555
C5_4 C9_4 1_555 1_555
C8_4 C10_4 1_555 1_555
C9_4 C12_4 1_555 1_555
O7_5 Zn4_3 1_555 1_555
N7_5 N3_5 1_555 1_555
O2_5 C2_5 1_555 1_555
N2_5 C5_5 1_555 1_555
N3_5 C11_5 1_555 1_555
O7_3 C3_5 1_555 1_555
C2_5 N5_5 1_555 1_555
C3_5 C7_5 1_555 1_555
C4_5 N6_5 1_555 1_555
O8 C1_5 1_555 1_555
C5_5 H1_5 1_555 1_555
N4_5 N2_5 1_555 1_555
C6_5 C1_5 1_555 1_555
H2_5 C6_5 1_555 1_555
C7_5 H3_5 1_555 1_555
C8_5 N7_5 1_555 1_555
H4_5 C8_5 1_555 1_555
N5_5 C6_5 1_555 1_555
H5_5 N5_5 1_555 1_555
N6_5 C7_5 1_555 1_555
H6_5 N6_5 1_555 1_555
C9_5 C4_5 1_555 1_555
C10_5 C2_5 1_555 1_555
C11_5 C10_5 1_555 1_555
H7_5 C11_5 1_555 1_555
C12_5 N4_5 1_555 1_555
C13_5 C6_5 1_555 1_555
H9_5 C13_5 1_555 1_555
H10_5 C13_5 1_555 1_555
C14_5 C7_5 1_555 1_555
H13_5 C14_5 1_555 1_555
C5_5 C9_5 1_555 1_555
C8_5 C10_5 1_555 1_555
C9_5 C12_5 1_555 1_555
O4_5 Zn6 1_555 1_555
O8_5 Zn6 1_555 1_555
Zn6_2 N2_6 1_555 1_555
N7_6 N3_6 1_555 1_555
O2_6 C2_6 1_555 1_555
N2_6 C5_6 1_555 1_555
N3_6 C11_6 1_555 1_555
C1_6 O4_6 1_555 1_555
O7 C3_6 1_555 1_555
O4_6 Zn6_2 1_555 1_555
C2_6 N5_6 1_555 1_555
C3_6 C7_6 1_555 1_555
C4_6 N6_6 1_555 1_555
O8_2 C1_6 1_555 1_555
C5_6 H1_6 1_555 1_555
N4_6 N2_6 1_555 1_555
C6_6 C1_6 1_555 1_555
H2_6 C6_6 1_555 1_555
C7_6 H3_6 1_555 1_555
C8_6 N7_6 1_555 1_555
H4_6 C8_6 1_555 1_555
N5_6 C6_6 1_555 1_555
H5_6 N5_6 1_555 1_555
N6_6 C7_6 1_555 1_555
H6_6 N6_6 1_555 1_555
C9_6 C4_6 1_555 1_555
C10_6 C2_6 1_555 1_555
C11_6 C10_6 1_555 1_555
H7_6 C11_6 1_555 1_555
C12_6 N4_6 1_555 1_555
C13_6 C6_6 1_555 1_555
H9_6 C13_6 1_555 1_555
H10_6 C13_6 1_555 1_555
H11_6 C13_6 1_555 1_555
C14_6 C7_6 1_555 1_555
H13_6 C14_6 1_555 1_555
Zn7_2 N4_6 1_555 1_555
O8_6 Zn6_2 1_555 1_555
C5_6 C9_6 1_555 1_555
C8_6 C10_6 1_555 1_555
C9_6 C12_6 1_555 1_555
O7_6 Zn4 1_555 1_555
Zn5_3 O1_7 1_555 1_555
O1_7 C3_7 1_555 1_555
N2_7 C5_7 1_555 1_555
O7_5 C3_7 1_555 1_555
C3_7 C7_7 1_555 1_555
O5_7 C4_7 1_555 1_555
C4_7 N6_7 1_555 1_555
C5_7 H1_7 1_555 1_555
N9_2 N2_7 1_555 1_555
C7_7 H3_7 1_555 1_555
N6_7 C7_7 1_555 1_555
H6_7 N6_7 1_555 1_555
C9_7 C4_7 1_555 1_555
C12_7 N9_2 1_555 1_555
H8_7 C12_7 1_555 1_555
C14_7 C7_7 1_555 1_555
H12_7 C14_7 1_555 1_555
H13_7 C14_7 1_555 1_555
H14_7 C14_7 1_555 1_555
N7_7 Zn5_3 1_555 1_555
C5_7 C9_7 1_555 1_555
C9_7 C12_7 1_555 1_555
N7_7 N8_3 1_555 1_555
O2_7 C2_7 1_555 1_555
N8_3 C11_7 1_555 1_555
C1_7 O4_7 1_555 1_555
O4_7 Zn7_2 1_555 1_555
C2_7 N5_7 1_555 1_555
O8_6 C1_7 1_555 1_555
C6_7 C1_7 1_555 1_555
H2_7 C6_7 1_555 1_555
C8_7 N7_7 1_555 1_555
H4_7 C8_7 1_555 1_555
N5_7 C6_7 1_555 1_555
H5_7 N5_7 1_555 1_555
C10_7 C2_7 1_555 1_555
C11_7 C10_7 1_555 1_555
H7_7 C11_7 1_555 1_555
C13_7 C6_7 1_555 1_555
H9_7 C13_7 1_555 1_555
H10_7 C13_7 1_555 1_555
H11_7 C13_7 1_555 1_555
C8_7 C10_7 1_555 1_555
Zn5 O1_8 1_555 1_555
O1_8 C3_8 1_555 1_555
N2_8 C5_8 1_555 1_555
O7_6 C3_8 1_555 1_555
C3_8 C7_8 1_555 1_555
O5_8 C4_8 1_555 1_555
C4_8 N6_8 1_555 1_555
C5_8 H1_8 1_555 1_555
N9_3 N2_8 1_555 1_555
C7_8 H3_8 1_555 1_555
N6_8 C7_8 1_555 1_555
H6_8 N6_8 1_555 1_555
C9_8 C4_8 1_555 1_555
C12_8 N9_3 1_555 1_555
H8_8 C12_8 1_555 1_555
C14_8 C7_8 1_555 1_555
H12_8 C14_8 1_555 1_555
H13_8 C14_8 1_555 1_555
H14_8 C14_8 1_555 1_555
N7_8 Zn5 1_555 1_555
C5_8 C9_8 1_555 1_555
C9_8 C12_8 1_555 1_555
N7_8 N8 1_555 1_555
O2_8 C2_8 1_555 1_555
N8 C11_8 1_555 1_555
C1_8 O4_8 1_555 1_555
O4_8 Zn7_3 1_555 1_555
C2_8 N5_8 1_555 1_555
O8_4 C1_8 1_555 1_555
C6_8 C1_8 1_555 1_555
H2_8 C6_8 1_555 1_555
C8_8 N7_8 1_555 1_555
H4_8 C8_8 1_555 1_555
N5_8 C6_8 1_555 1_555
H5_8 N5_8 1_555 1_555
C10_8 C2_8 1_555 1_555
C11_8 C10_8 1_555 1_555
H7_8 C11_8 1_555 1_555
C13_8 C6_8 1_555 1_555
H9_8 C13_8 1_555 1_555
H10_8 C13_8 1_555 1_555
H11_8 C13_8 1_555 1_555
C8_8 C10_8 1_555 1_555
Zn5_2 O1_9 1_555 1_555
O1_9 C3_9 1_555 1_555
N2_9 C5_9 1_555 1_555
O7_4 C3_9 1_555 1_555
C3_9 C7_9 1_555 1_555
O5_9 C4_9 1_555 1_555
C4_9 N6_9 1_555 1_555
C5_9 H1_9 1_555 1_555
N9 N2_9 1_555 1_555
C7_9 H3_9 1_555 1_555
N6_9 C7_9 1_555 1_555
H6_9 N6_9 1_555 1_555
C9_9 C4_9 1_555 1_555
C12_9 N9 1_555 1_555
H8_9 C12_9 1_555 1_555
C14_9 C7_9 1_555 1_555
H12_9 C14_9 1_555 1_555
H13_9 C14_9 1_555 1_555
H14_9 C14_9 1_555 1_555
N7_9 Zn5_2 1_555 1_555
C5_9 C9_9 1_555 1_555
C9_9 C12_9 1_555 1_555
N7_9 N8_2 1_555 1_555
O2_9 C2_9 1_555 1_555
N8_2 C11_9 1_555 1_555
C1_9 O4_9 1_555 1_555
O4_9 Zn7 1_555 1_555
C2_9 N5_9 1_555 1_555
O8_5 C1_9 1_555 1_555
C6_9 C1_9 1_555 1_555
H2_9 C6_9 1_555 1_555
C8_9 N7_9 1_555 1_555
H4_9 C8_9 1_555 1_555
N5_9 C6_9 1_555 1_555
H5_9 N5_9 1_555 1_555
C10_9 C2_9 1_555 1_555
C11_9 C10_9 1_555 1_555
H7_9 C11_9 1_555 1_555
C13_9 C6_9 1_555 1_555
H9_9 C13_9 1_555 1_555
H10_9 C13_9 1_555 1_555
H11_9 C13_9 1_555 1_555
C8_9 C10_9 1_555 1_555

#END
