
###############################################################################
#
# This file contains modified crystal structure data generated from the
# MOF subset of the Cambridge Structural Database (CSD) v543 
# hosted by the Cambridge Crystallographic Data Centre (CCDC).
#
# This work is licensed under the Creative Commons
# Attribution-NonCommercial-ShareAlike 4.0 International License.
# To view a copy of this license, visit
# http://creativecommons.org/licenses/by-nc-sa/4.0/
# or send a letter to
# Creative Commons, PO Box 1866, Mountain View, CA 94042, USA.
#
# CIF created using the CSD Python API on 29 September 2022
# The structure has been converted into the P1 space group
# The structure has a 3D framework
# The original CSD entry VUWXUJ06 is in the rhombohedral crystal system
# The original CSD entry VUWXUJ06 is in a Sohncke space group
# The framework has been calculated to contain at least 10.0% void space
# The void calculation uses a probe of radius 1.32A, grid spacing 0.4
#
###############################################################################

data_VUWXUJ06
_chemical_formula_moiety         '(C126 H126 N54 O51 Zn13)n'
_symmetry_cell_setting           triclinic
_symmetry_space_group_name_H-M   'P 1'
_symmetry_Int_Tables_number      1
_space_group_name_Hall           'P 1'
loop_
_symmetry_equiv_pos_site_id
_symmetry_equiv_pos_as_xyz
1 x,y,z
_cell_length_a                   23.8254(4)
_cell_length_b                   23.8254(4)
_cell_length_c                   10.29019(11)
_cell_angle_alpha                90
_cell_angle_beta                 90
_cell_angle_gamma                120
_cell_volume                     5058.65
loop_
_atom_site_label
_atom_site_type_symbol
_atom_site_fract_x
_atom_site_fract_y
_atom_site_fract_z
_atom_site_U_iso_or_equiv
_atom_site_thermal_displace_type
N8 N 0.7345(14) 0.0026(18) 0.643(6) 0.0507 Uiso
N9 N 0.6623(15) 0.0495(19) 0.847(6) 0.0507 Uiso
H8 H 0.6925(13) 0.5141(17) 0.016(3) 0.0507 Uiso
H12 H 0.5894(14) 0.4386(17) 0.026(4) 0.0507 Uiso
H13 H 0.4875(17) 0.368(2) 0.084(6) 0.0507 Uiso
Zn4 Zn 0.3483(5) 0.3205(5) 0.1364(16) 0.0507 Uiso
Zn1 Zn 0.6816(5) 0.9872(5) 0.8031(16) 0.0507 Uiso
Zn2 Zn 0.6831(5) 0.6431(5) 0.6381(16) 0.0507 Uiso
O1 O 0.6027(9) 0.9058(7) 0.776(2) 0.0507 Uiso
C1 C 0.5604(10) 0.8967(9) 0.690(2) 0.0507 Uiso
C2 C 0.4941(10) 0.8342(11) 0.704(3) 0.0507 Uiso
O2 O 0.5677(13) 0.9349(11) 0.597(2) 0.0507 Uiso
C3 C 0.4546(9) 0.8431(13) 0.811(4) 0.0507 Uiso
H1 H 0.4690(13) 0.8242(13) 0.610(4) 0.0507 Uiso
N1 N 0.5045(12) 0.7803(8) 0.735(3) 0.0507 Uiso
H2 H 0.4483(10) 0.8850(15) 0.789(4) 0.0507 Uiso
H3 H 0.4064(9) 0.7994(15) 0.817(5) 0.0507 Uiso
H4 H 0.4790(12) 0.8511(12) 0.906(3) 0.0507 Uiso
C4 C 0.5223(17) 0.7525(9) 0.639(3) 0.0507 Uiso
H5 H 0.5179(12) 0.7785(8) 0.829(3) 0.0507 Uiso
C5 C 0.5540(19) 0.7164(9) 0.681(3) 0.0507 Uiso
O3 O 0.514(2) 0.7598(12) 0.521(3) 0.0507 Uiso
C6 C 0.5647(19) 0.7023(10) 0.808(3) 0.0507 Uiso
C7 C 0.589(2) 0.6970(12) 0.602(3) 0.0507 Uiso
H6 H 0.5473(18) 0.7096(10) 0.901(3) 0.0507 Uiso
N2 N 0.603(2) 0.6766(13) 0.804(4) 0.0507 Uiso
H7 H 0.595(3) 0.7007(14) 0.497(3) 0.0507 Uiso
N3 N 0.619(3) 0.6734(15) 0.677(4) 0.0507 Uiso
O4 O 0.6961(8) 0.5962(8) 0.780(2) 0.0507 Uiso
C8 C 0.6657(9) 0.5625(10) 0.878(2) 0.0507 Uiso
C9 C 0.6722(11) 0.5030(12) 0.917(3) 0.0507 Uiso
O5 O 0.6296(10) 0.5732(13) 0.954(2) 0.0507 Uiso
C10 C 0.7173(12) 0.4913(10) 0.830(4) 0.0507 Uiso
N4 N 0.6070(13) 0.4469(12) 0.932(4) 0.0507 Uiso
H9 H 0.7661(11) 0.5343(11) 0.831(3) 0.0507 Uiso
H10 H 0.7205(15) 0.4497(12) 0.868(5) 0.0507 Uiso
H11 H 0.6996(11) 0.4811(9) 0.730(4) 0.0507 Uiso
C11 C 0.5639(11) 0.4232(9) 0.832(5) 0.0507 Uiso
C12 C 0.4951(12) 0.3834(11) 0.867(5) 0.0507 Uiso
O6 O 0.5808(11) 0.4367(9) 0.716(4) 0.0507 Uiso
C13 C 0.4656(14) 0.3632(17) 0.989(6) 0.0507 Uiso
C14 C 0.4433(11) 0.3659(12) 0.781(6) 0.0507 Uiso
N5 N 0.4012(14) 0.3359(18) 0.976(6) 0.0507 Uiso
H14 H 0.4449(11) 0.3736(14) 0.676(6) 0.0507 Uiso
N6 N 0.3872(11) 0.3377(15) 0.847(6) 0.0507 Uiso
Zn3 Zn 0.3056(7) 0.3184(5) 0.8031(16) 0.0507 Uiso
Zn5 Zn 0.6389(7) 0.9851(5) 0.4698(16) 0.0507 Uiso
Zn6 Zn 0.6267(7) 0.6502(5) 0.9714(16) 0.0507 Uiso
O7 O 0.7318(11) 0.9661(17) 0.930(2) 0.0507 Uiso
N7 N 0.6567(13) 0.5931(24) 0.471(4) 0.0507 Uiso
O8 O 0.7601(13) 0.7231(16) 0.621(2) 0.0507 Uiso
H8_2 H 0.4859(17) 0.1784(21) 0.016(3) 0.0507 Uiso
H12_2 H 0.5614(17) 0.1508(22) 0.026(4) 0.0507 Uiso
H13_2 H 0.632(2) 0.1195(26) 0.084(6) 0.0507 Uiso
Zn4_2 Zn 0.6795(5) 0.0277(7) 0.1364(16) 0.0507 Uiso
Zn2_2 Zn 0.3569(5) 0.0400(7) 0.6381(16) 0.0507 Uiso
O4_2 O 0.4038(8) 0.0999(11) 0.780(2) 0.0507 Uiso
C8_2 C 0.4375(10) 0.1032(13) 0.878(2) 0.0507 Uiso
C9_2 C 0.4970(12) 0.1692(16) 0.917(3) 0.0507 Uiso
O5_2 O 0.4268(13) 0.0564(16) 0.954(2) 0.0507 Uiso
C10_2 C 0.5087(10) 0.2260(16) 0.830(4) 0.0507 Uiso
N4_2 N 0.5531(12) 0.1601(18) 0.932(4) 0.0507 Uiso
H9_2 H 0.4657(11) 0.2318(16) 0.831(3) 0.0507 Uiso
H10_2 H 0.5503(12) 0.2708(19) 0.868(5) 0.0507 Uiso
H11_2 H 0.5189(9) 0.2185(14) 0.730(4) 0.0507 Uiso
C11_2 C 0.5768(9) 0.1407(14) 0.832(5) 0.0507 Uiso
C12_2 C 0.6166(11) 0.1117(16) 0.867(5) 0.0507 Uiso
O6_2 O 0.5633(9) 0.1441(14) 0.716(4) 0.0507 Uiso
C13_2 C 0.6368(17) 0.1024(22) 0.989(6) 0.0507 Uiso
C14_2 C 0.6341(12) 0.0774(16) 0.781(6) 0.0507 Uiso
N5_2 N 0.6641(18) 0.0653(23) 0.976(6) 0.0507 Uiso
H14_2 H 0.6264(14) 0.0713(18) 0.676(6) 0.0507 Uiso
N7_2 N 0.4069(24) 0.0637(27) 0.471(4) 0.0507 Uiso
O8_2 O 0.2769(16) 0.0371(21) 0.621(2) 0.0507 Uiso
Zn1_2 Zn 0.0128(5) 0.6944(7) 0.8031(16) 0.0507 Uiso
O1_2 O 0.0942(7) 0.6969(11) 0.776(2) 0.0507 Uiso
C1_2 C 0.1033(9) 0.6637(13) 0.690(2) 0.0507 Uiso
C2_2 C 0.1658(11) 0.6599(15) 0.704(3) 0.0507 Uiso
O2_2 O 0.0651(11) 0.6328(17) 0.597(2) 0.0507 Uiso
C3_2 C 0.1569(13) 0.6115(16) 0.811(4) 0.0507 Uiso
H1_2 H 0.1758(13) 0.6448(18) 0.610(4) 0.0507 Uiso
N1_2 N 0.2197(8) 0.7242(14) 0.735(3) 0.0507 Uiso
H2_2 H 0.1150(15) 0.5633(18) 0.789(4) 0.0507 Uiso
H3_2 H 0.2006(15) 0.6070(17) 0.817(5) 0.0507 Uiso
H4_2 H 0.1489(12) 0.6279(17) 0.906(3) 0.0507 Uiso
C4_2 C 0.2475(9) 0.7698(19) 0.639(3) 0.0507 Uiso
H5_2 H 0.2215(8) 0.7394(14) 0.829(3) 0.0507 Uiso
C5_2 C 0.2836(9) 0.8376(21) 0.681(3) 0.0507 Uiso
O3_2 O 0.2402(12) 0.7542(23) 0.521(3) 0.0507 Uiso
C6_2 C 0.2977(10) 0.8624(21) 0.808(3) 0.0507 Uiso
C7_2 C 0.3030(12) 0.8920(23) 0.602(3) 0.0507 Uiso
H6_2 H 0.2904(10) 0.8377(21) 0.901(3) 0.0507 Uiso
N2_2 N 0.3234(13) 0.9264(24) 0.804(4) 0.0507 Uiso
H7_2 H 0.2993(14) 0.8943(33) 0.497(3) 0.0507 Uiso
N3_2 N 0.3266(15) 0.9456(34) 0.677(4) 0.0507 Uiso
Zn5_2 Zn 0.0149(5) 0.6539(9) 0.4698(16) 0.0507 Uiso
Zn6_2 Zn 0.3498(5) 0.9764(9) 0.9714(16) 0.0507 Uiso
O7_2 O 0.0339(17) 0.7656(20) 0.930(2) 0.0507 Uiso
N8_2 N 0.9974(18) 0.7320(23) 0.643(6) 0.0507 Uiso
N9_2 N 0.9505(19) 0.6128(24) 0.847(6) 0.0507 Uiso
O1_3 O 0.3031(11) 0.3973(9) 0.776(2) 0.0507 Uiso
C1_3 C 0.3363(13) 0.4396(10) 0.690(2) 0.0507 Uiso
C2_3 C 0.3401(15) 0.5059(10) 0.704(3) 0.0507 Uiso
O2_3 O 0.3672(17) 0.4323(13) 0.597(2) 0.0507 Uiso
C3_3 C 0.3885(16) 0.5454(9) 0.811(4) 0.0507 Uiso
H1_3 H 0.3552(18) 0.5310(13) 0.610(4) 0.0507 Uiso
N1_3 N 0.2758(14) 0.4955(12) 0.735(3) 0.0507 Uiso
H2_3 H 0.4367(18) 0.5517(10) 0.789(4) 0.0507 Uiso
H3_3 H 0.3930(17) 0.5936(9) 0.817(5) 0.0507 Uiso
H4_3 H 0.3721(17) 0.5210(12) 0.906(3) 0.0507 Uiso
C4_3 C 0.2302(19) 0.4777(17) 0.639(3) 0.0507 Uiso
H5_3 H 0.2606(14) 0.4821(12) 0.829(3) 0.0507 Uiso
C5_3 C 0.1624(21) 0.4460(19) 0.681(3) 0.0507 Uiso
O3_3 O 0.2458(23) 0.486(2) 0.521(3) 0.0507 Uiso
C6_3 C 0.1376(21) 0.4353(19) 0.808(3) 0.0507 Uiso
C7_3 C 0.1080(23) 0.411(2) 0.602(3) 0.0507 Uiso
H6_3 H 0.1623(21) 0.4527(18) 0.901(3) 0.0507 Uiso
N2_3 N 0.0736(24) 0.397(2) 0.804(4) 0.0507 Uiso
H7_3 H 0.1057(33) 0.405(3) 0.497(3) 0.0507 Uiso
N3_3 N 0.0544(34) 0.381(3) 0.677(4) 0.0507 Uiso
Zn5_3 Zn 0.3461(9) 0.3611(7) 0.4698(16) 0.0507 Uiso
Zn6_3 Zn 0.0236(9) 0.3733(7) 0.9714(16) 0.0507 Uiso
O7_3 O 0.2344(20) 0.2682(11) 0.930(2) 0.0507 Uiso
N8_3 N 0.2680(23) 0.2655(14) 0.643(6) 0.0507 Uiso
H8_3 H 0.8216(21) 0.3075(13) 0.016(3) 0.0507 Uiso
H12_3 H 0.8492(22) 0.4106(14) 0.026(4) 0.0507 Uiso
H13_3 H 0.8805(26) 0.5125(17) 0.084(6) 0.0507 Uiso
Zn4_3 Zn 0.9723(7) 0.6517(5) 0.1364(16) 0.0507 Uiso
Zn2_3 Zn 0.9600(7) 0.3169(5) 0.6381(16) 0.0507 Uiso
O4_3 O 0.9001(11) 0.3039(8) 0.780(2) 0.0507 Uiso
C8_3 C 0.8968(13) 0.3343(9) 0.878(2) 0.0507 Uiso
C9_3 C 0.8308(16) 0.3278(11) 0.917(3) 0.0507 Uiso
O5_3 O 0.9436(16) 0.3704(10) 0.954(2) 0.0507 Uiso
C10_3 C 0.7740(16) 0.2827(12) 0.830(4) 0.0507 Uiso
N4_3 N 0.8399(18) 0.3930(13) 0.932(4) 0.0507 Uiso
H9_3 H 0.7682(16) 0.2339(11) 0.831(3) 0.0507 Uiso
H10_3 H 0.7292(19) 0.2795(15) 0.868(5) 0.0507 Uiso
H11_3 H 0.7815(14) 0.3004(11) 0.730(4) 0.0507 Uiso
C11_3 C 0.8593(14) 0.4361(11) 0.832(5) 0.0507 Uiso
C12_3 C 0.8883(16) 0.5049(12) 0.867(5) 0.0507 Uiso
O6_3 O 0.8559(14) 0.4192(11) 0.716(4) 0.0507 Uiso
C13_3 C 0.8976(22) 0.5344(14) 0.989(6) 0.0507 Uiso
C14_3 C 0.9226(16) 0.5567(11) 0.781(6) 0.0507 Uiso
N5_3 N 0.9347(23) 0.5988(14) 0.976(6) 0.0507 Uiso
H14_3 H 0.9287(18) 0.5551(11) 0.676(6) 0.0507 Uiso
N7_3 N 0.9363(27) 0.3433(13) 0.471(4) 0.0507 Uiso
O8_3 O 0.9629(21) 0.2399(13) 0.621(2) 0.0507 Uiso
O1_4 O 0.2694(9) 0.2391(7) 0.109(2) 0.0507 Uiso
C1_4 C 0.2271(10) 0.2300(9) 0.023(2) 0.0507 Uiso
C2_4 C 0.1608(10) 0.1675(11) 0.037(3) 0.0507 Uiso
C3_4 C 0.1213(9) 0.1764(13) 0.144(4) 0.0507 Uiso
N1_4 N 0.1712(12) 0.1136(8) 0.068(3) 0.0507 Uiso
H2_4 H 0.1150(10) 0.2183(15) 0.122(4) 0.0507 Uiso
H3_4 H 0.0731(9) 0.1327(15) 0.150(5) 0.0507 Uiso
H4_4 H 0.1457(12) 0.1844(12) 0.239(3) 0.0507 Uiso
H5_4 H 0.1846(12) 0.1118(8) 0.162(3) 0.0507 Uiso
C5_4 C 0.2207(19) 0.0497(9) 0.014(3) 0.0507 Uiso
C6_4 C 0.2314(19) 0.0356(10) 0.141(3) 0.0507 Uiso
H6_4 H 0.2140(18) 0.0429(10) 0.234(3) 0.0507 Uiso
N2_4 N 0.270(2) 0.0099(13) 0.137(4) 0.0507 Uiso
N3_4 N 0.286(3) 0.0067(15) 0.010(4) 0.0507 Uiso
O7_4 O 0.3984(11) 0.2995(17) 0.264(2) 0.0507 Uiso
N9_3 N 0.3290(15) 0.3828(19) 0.180(6) 0.0507 Uiso
H1_4 H 0.1357(13) 0.1575(13) 0.943(4) 0.0507 Uiso
C4_4 C 0.1890(17) 0.0858(9) 0.972(3) 0.0507 Uiso
O3_4 O 0.181(2) 0.0931(12) 0.854(3) 0.0507 Uiso
C7_4 C 0.256(2) 0.0303(12) 0.935(3) 0.0507 Uiso
H7_4 H 0.262(3) 0.0340(14) 0.830(3) 0.0507 Uiso
O4_4 O 0.3628(8) 0.9295(8) 0.113(2) 0.0507 Uiso
C8_4 C 0.3324(9) 0.8958(10) 0.211(2) 0.0507 Uiso
C9_4 C 0.3389(11) 0.8363(12) 0.250(3) 0.0507 Uiso
O5_4 O 0.2963(10) 0.9065(13) 0.287(2) 0.0507 Uiso
C10_4 C 0.3840(12) 0.8246(10) 0.163(4) 0.0507 Uiso
H8_4 H 0.3592(13) 0.8474(17) 0.349(3) 0.0507 Uiso
N4_4 N 0.2737(13) 0.7802(12) 0.265(4) 0.0507 Uiso
H9_4 H 0.4328(11) 0.8676(11) 0.164(3) 0.0507 Uiso
H10_4 H 0.3872(15) 0.7830(12) 0.201(5) 0.0507 Uiso
H11_4 H 0.3663(11) 0.8144(9) 0.063(4) 0.0507 Uiso
C11_4 C 0.2306(11) 0.7565(9) 0.165(5) 0.0507 Uiso
H12_4 H 0.2561(14) 0.7719(17) 0.359(4) 0.0507 Uiso
C12_4 C 0.1618(12) 0.7167(11) 0.200(5) 0.0507 Uiso
O6_4 O 0.2475(11) 0.7700(9) 0.049(4) 0.0507 Uiso
C13_4 C 0.1323(14) 0.6965(17) 0.322(6) 0.0507 Uiso
C14_4 C 0.1100(11) 0.6992(12) 0.114(6) 0.0507 Uiso
H13_4 H 0.1542(17) 0.701(2) 0.417(6) 0.0507 Uiso
N5_4 N 0.0679(14) 0.6692(18) 0.309(6) 0.0507 Uiso
H14_4 H 0.1116(11) 0.7069(14) 0.009(6) 0.0507 Uiso
N6_2 N 0.0539(11) 0.6710(15) 0.180(6) 0.0507 Uiso
Zn6_4 Zn 0.2933(7) 0.9836(5) 0.3048(16) 0.0507 Uiso
O4_5 O 0.0705(8) 0.4332(11) 0.113(2) 0.0507 Uiso
C8_5 C 0.1042(10) 0.4365(13) 0.211(2) 0.0507 Uiso
C9_5 C 0.1637(12) 0.5025(16) 0.250(3) 0.0507 Uiso
O5_5 O 0.0935(13) 0.3897(16) 0.287(2) 0.0507 Uiso
C10_5 C 0.1754(10) 0.5593(16) 0.163(4) 0.0507 Uiso
H8_5 H 0.1526(17) 0.5117(21) 0.349(3) 0.0507 Uiso
N4_5 N 0.2198(12) 0.4934(18) 0.265(4) 0.0507 Uiso
H9_5 H 0.1324(11) 0.5651(16) 0.164(3) 0.0507 Uiso
H10_5 H 0.2170(12) 0.6041(19) 0.201(5) 0.0507 Uiso
H11_5 H 0.1856(9) 0.5518(14) 0.063(4) 0.0507 Uiso
C11_5 C 0.2435(9) 0.4740(14) 0.165(5) 0.0507 Uiso
H12_5 H 0.2281(17) 0.4841(22) 0.359(4) 0.0507 Uiso
C12_5 C 0.2833(11) 0.4450(16) 0.200(5) 0.0507 Uiso
O6_5 O 0.2300(9) 0.4774(14) 0.049(4) 0.0507 Uiso
C13_5 C 0.3035(17) 0.4357(22) 0.322(6) 0.0507 Uiso
C14_5 C 0.3008(12) 0.4107(16) 0.114(6) 0.0507 Uiso
H13_5 H 0.299(2) 0.4528(26) 0.417(6) 0.0507 Uiso
N5_5 N 0.3308(18) 0.3986(23) 0.309(6) 0.0507 Uiso
H14_5 H 0.2931(14) 0.4046(18) 0.009(6) 0.0507 Uiso
Zn6_5 Zn 0.0164(5) 0.3098(9) 0.3048(16) 0.0507 Uiso
O1_5 O 0.7609(7) 0.0302(11) 0.109(2) 0.0507 Uiso
N1_5 N 0.8864(8) 0.0575(14) 0.068(3) 0.0507 Uiso
H5_5 H 0.8882(8) 0.0727(14) 0.162(3) 0.0507 Uiso
C5_5 C 0.9503(9) 0.1709(21) 0.014(3) 0.0507 Uiso
C6_5 C 0.9644(10) 0.1957(21) 0.141(3) 0.0507 Uiso
H6_5 H 0.9571(10) 0.1710(21) 0.234(3) 0.0507 Uiso
N2_5 N 0.9901(13) 0.2597(24) 0.137(4) 0.0507 Uiso
N3_5 N 0.9933(15) 0.2789(34) 0.010(4) 0.0507 Uiso
O7_5 O 0.7005(17) 0.0990(20) 0.264(2) 0.0507 Uiso
C4_5 C 0.9142(9) 0.1031(19) 0.972(3) 0.0507 Uiso
O3_5 O 0.9069(12) 0.0875(23) 0.854(3) 0.0507 Uiso
C7_5 C 0.9697(12) 0.2253(23) 0.935(3) 0.0507 Uiso
H7_5 H 0.9660(14) 0.2276(33) 0.830(3) 0.0507 Uiso
C1_5 C 0.7700(9) 0.9970(13) 0.023(2) 0.0507 Uiso
C2_5 C 0.8325(11) 0.9932(15) 0.037(3) 0.0507 Uiso
C3_5 C 0.8236(13) 0.9448(16) 0.144(4) 0.0507 Uiso
H2_5 H 0.7817(15) 0.8966(18) 0.122(4) 0.0507 Uiso
H3_5 H 0.8673(15) 0.9403(17) 0.150(5) 0.0507 Uiso
H4_5 H 0.8156(12) 0.9612(17) 0.239(3) 0.0507 Uiso
N9_4 N 0.6172(19) 0.9461(24) 0.180(6) 0.0507 Uiso
H1_5 H 0.8425(13) 0.9781(18) 0.943(4) 0.0507 Uiso
C1_6 C 0.0030(13) 0.7729(10) 0.023(2) 0.0507 Uiso
C2_6 C 0.0068(15) 0.8392(10) 0.037(3) 0.0507 Uiso
C3_6 C 0.0552(16) 0.8787(9) 0.144(4) 0.0507 Uiso
H2_6 H 0.1034(18) 0.8850(10) 0.122(4) 0.0507 Uiso
H3_6 H 0.0597(17) 0.9269(9) 0.150(5) 0.0507 Uiso
H4_6 H 0.0388(17) 0.8543(12) 0.239(3) 0.0507 Uiso
H1_6 H 0.0219(18) 0.8643(13) 0.943(4) 0.0507 Uiso
O1_6 O 0.9698(11) 0.7306(9) 0.109(2) 0.0507 Uiso
N1_6 N 0.9425(14) 0.8288(12) 0.068(3) 0.0507 Uiso
H5_6 H 0.9273(14) 0.8154(12) 0.162(3) 0.0507 Uiso
C5_6 C 0.8291(21) 0.7793(19) 0.014(3) 0.0507 Uiso
C6_6 C 0.8043(21) 0.7686(19) 0.141(3) 0.0507 Uiso
H6_6 H 0.8290(21) 0.7860(18) 0.234(3) 0.0507 Uiso
N2_6 N 0.7403(24) 0.730(2) 0.137(4) 0.0507 Uiso
N3_6 N 0.7211(34) 0.714(3) 0.010(4) 0.0507 Uiso
O4_6 O 0.5668(11) 0.6372(8) 0.113(2) 0.0507 Uiso
C8_6 C 0.5635(13) 0.6676(9) 0.211(2) 0.0507 Uiso
C9_6 C 0.4975(16) 0.6611(11) 0.250(3) 0.0507 Uiso
O5_6 O 0.6103(16) 0.7037(10) 0.287(2) 0.0507 Uiso
C10_6 C 0.4407(16) 0.6160(12) 0.163(4) 0.0507 Uiso
H8_6 H 0.4883(21) 0.6408(13) 0.349(3) 0.0507 Uiso
N4_6 N 0.5066(18) 0.7263(13) 0.265(4) 0.0507 Uiso
H9_6 H 0.4349(16) 0.5672(11) 0.164(3) 0.0507 Uiso
H10_6 H 0.3959(19) 0.6128(15) 0.201(5) 0.0507 Uiso
H11_6 H 0.4482(14) 0.6337(11) 0.063(4) 0.0507 Uiso
C11_6 C 0.5260(14) 0.7694(11) 0.165(5) 0.0507 Uiso
H12_6 H 0.5159(22) 0.7439(14) 0.359(4) 0.0507 Uiso
C12_6 C 0.5550(16) 0.8382(12) 0.200(5) 0.0507 Uiso
O6_6 O 0.5226(14) 0.7525(11) 0.049(4) 0.0507 Uiso
C13_6 C 0.5643(22) 0.8677(14) 0.322(6) 0.0507 Uiso
C14_6 C 0.5893(16) 0.8900(11) 0.114(6) 0.0507 Uiso
H13_6 H 0.5472(26) 0.8458(17) 0.417(6) 0.0507 Uiso
N5_6 N 0.6014(23) 0.9321(14) 0.309(6) 0.0507 Uiso
H14_6 H 0.5954(18) 0.8884(11) 0.009(6) 0.0507 Uiso
Zn6_6 Zn 0.6902(9) 0.7067(7) 0.3048(16) 0.0507 Uiso
O7_6 O 0.9010(20) 0.6016(11) 0.264(2) 0.0507 Uiso
C4_6 C 0.8969(19) 0.8110(17) 0.972(3) 0.0507 Uiso
O3_6 O 0.9125(23) 0.819(2) 0.854(3) 0.0507 Uiso
C7_6 C 0.7747(23) 0.744(2) 0.935(3) 0.0507 Uiso
H7_6 H 0.7724(33) 0.738(3) 0.830(3) 0.0507 Uiso
O4_7 O 0.0294(8) 0.2629(8) 0.447(2) 0.0507 Uiso
C9_7 C 0.0055(11) 0.1697(12) 0.584(3) 0.0507 Uiso
C10_7 C 0.0506(12) 0.1580(10) 0.497(4) 0.0507 Uiso
H8_7 H 0.0258(13) 0.1808(17) 0.683(3) 0.0507 Uiso
H9_7 H 0.0994(11) 0.2010(11) 0.498(3) 0.0507 Uiso
H10_7 H 0.0538(15) 0.1164(12) 0.535(5) 0.0507 Uiso
H11_7 H 0.0329(11) 0.1478(9) 0.397(4) 0.0507 Uiso
O1_7 O 0.9360(9) 0.5725(7) 0.443(2) 0.0507 Uiso
C1_7 C 0.8937(10) 0.5634(9) 0.357(2) 0.0507 Uiso
C2_7 C 0.8274(10) 0.5009(11) 0.371(3) 0.0507 Uiso
C3_7 C 0.7879(9) 0.5098(13) 0.478(4) 0.0507 Uiso
H1_7 H 0.8023(13) 0.4909(13) 0.277(4) 0.0507 Uiso
N1_7 N 0.8378(12) 0.4470(8) 0.402(3) 0.0507 Uiso
H2_7 H 0.7816(10) 0.5517(15) 0.456(4) 0.0507 Uiso
H3_7 H 0.7397(9) 0.4661(15) 0.484(5) 0.0507 Uiso
H4_7 H 0.8123(12) 0.5178(12) 0.573(3) 0.0507 Uiso
C4_7 C 0.8556(17) 0.4192(9) 0.306(3) 0.0507 Uiso
H5_7 H 0.8512(12) 0.4452(8) 0.496(3) 0.0507 Uiso
C5_7 C 0.8873(19) 0.3831(9) 0.348(3) 0.0507 Uiso
O3_7 O 0.847(2) 0.4265(12) 0.188(3) 0.0507 Uiso
C6_7 C 0.8980(19) 0.3690(10) 0.475(3) 0.0507 Uiso
C7_7 C 0.922(2) 0.3637(12) 0.269(3) 0.0507 Uiso
H6_7 H 0.8806(18) 0.3763(10) 0.568(3) 0.0507 Uiso
H7_7 H 0.928(3) 0.3674(14) 0.164(3) 0.0507 Uiso
N3_7 N 0.952(3) 0.3401(15) 0.344(4) 0.0507 Uiso
C8_7 C 0.9990(9) 0.2292(10) 0.545(2) 0.0507 Uiso
N4_7 N 0.9403(13) 0.1136(12) 0.599(4) 0.0507 Uiso
C11_7 C 0.8972(11) 0.0899(9) 0.499(5) 0.0507 Uiso
H12_7 H 0.9227(14) 0.1053(17) 0.693(4) 0.0507 Uiso
C12_7 C 0.8284(12) 0.0501(11) 0.534(5) 0.0507 Uiso
O6_7 O 0.9141(11) 0.1034(9) 0.383(4) 0.0507 Uiso
C13_7 C 0.7989(14) 0.0299(17) 0.656(6) 0.0507 Uiso
C14_7 C 0.7766(11) 0.0326(12) 0.448(6) 0.0507 Uiso
H13_7 H 0.8208(17) 0.035(2) 0.751(6) 0.0507 Uiso
H14_7 H 0.7782(11) 0.0403(14) 0.343(6) 0.0507 Uiso
N6_3 N 0.7205(11) 0.0044(15) 0.514(6) 0.0507 Uiso
N9_5 N 0.9956(15) 0.7162(19) 0.514(6) 0.0507 Uiso
O1_8 O 0.4275(7) 0.3636(11) 0.443(2) 0.0507 Uiso
C1_8 C 0.4366(9) 0.3304(13) 0.357(2) 0.0507 Uiso
C2_8 C 0.4991(11) 0.3266(15) 0.371(3) 0.0507 Uiso
C3_8 C 0.4902(13) 0.2782(16) 0.478(4) 0.0507 Uiso
H1_8 H 0.5091(13) 0.3115(18) 0.277(4) 0.0507 Uiso
N1_8 N 0.5530(8) 0.3909(14) 0.402(3) 0.0507 Uiso
H2_8 H 0.4483(15) 0.2300(18) 0.456(4) 0.0507 Uiso
H3_8 H 0.5339(15) 0.2737(17) 0.484(5) 0.0507 Uiso
H4_8 H 0.4822(12) 0.2946(17) 0.573(3) 0.0507 Uiso
C4_8 C 0.5808(9) 0.4365(19) 0.306(3) 0.0507 Uiso
H5_8 H 0.5548(8) 0.4061(14) 0.496(3) 0.0507 Uiso
C5_8 C 0.6169(9) 0.5043(21) 0.348(3) 0.0507 Uiso
O3_8 O 0.5735(12) 0.4209(23) 0.188(3) 0.0507 Uiso
C6_8 C 0.6310(10) 0.5291(21) 0.475(3) 0.0507 Uiso
C7_8 C 0.6363(12) 0.5587(23) 0.269(3) 0.0507 Uiso
H6_8 H 0.6237(10) 0.5044(21) 0.568(3) 0.0507 Uiso
H7_8 H 0.6326(14) 0.5610(33) 0.164(3) 0.0507 Uiso
N3_8 N 0.6599(15) 0.6123(34) 0.344(4) 0.0507 Uiso
O4_8 O 0.7371(8) 0.7666(11) 0.447(2) 0.0507 Uiso
C8_8 C 0.7708(10) 0.7699(13) 0.545(2) 0.0507 Uiso
C9_8 C 0.8303(12) 0.8359(16) 0.584(3) 0.0507 Uiso
C10_8 C 0.8420(10) 0.8927(16) 0.497(4) 0.0507 Uiso
H8_8 H 0.8192(17) 0.8451(21) 0.683(3) 0.0507 Uiso
N4_8 N 0.8864(12) 0.8268(18) 0.599(4) 0.0507 Uiso
H9_8 H 0.7990(11) 0.8985(16) 0.498(3) 0.0507 Uiso
H10_8 H 0.8836(12) 0.9375(19) 0.535(5) 0.0507 Uiso
H11_8 H 0.8522(9) 0.8852(14) 0.397(4) 0.0507 Uiso
C11_8 C 0.9101(9) 0.8074(14) 0.499(5) 0.0507 Uiso
H12_8 H 0.8947(17) 0.8175(22) 0.693(4) 0.0507 Uiso
C12_8 C 0.9499(11) 0.7784(16) 0.534(5) 0.0507 Uiso
O6_8 O 0.8966(9) 0.8108(14) 0.383(4) 0.0507 Uiso
C13_8 C 0.9701(17) 0.7691(22) 0.656(6) 0.0507 Uiso
C14_8 C 0.9674(12) 0.7441(16) 0.448(6) 0.0507 Uiso
H13_8 H 0.965(2) 0.7862(26) 0.751(6) 0.0507 Uiso
H14_8 H 0.9597(14) 0.7380(18) 0.343(6) 0.0507 Uiso
N9_6 N 0.2838(19) 0.2795(24) 0.514(6) 0.0507 Uiso
O1_9 O 0.6364(11) 0.0640(9) 0.443(2) 0.0507 Uiso
C1_9 C 0.6696(13) 0.1063(10) 0.357(2) 0.0507 Uiso
C2_9 C 0.6734(15) 0.1726(10) 0.371(3) 0.0507 Uiso
C3_9 C 0.7218(16) 0.2121(9) 0.478(4) 0.0507 Uiso
H1_9 H 0.6885(18) 0.1977(13) 0.277(4) 0.0507 Uiso
N1_9 N 0.6091(14) 0.1622(12) 0.402(3) 0.0507 Uiso
H2_9 H 0.7700(18) 0.2184(10) 0.456(4) 0.0507 Uiso
H3_9 H 0.7263(17) 0.2603(9) 0.484(5) 0.0507 Uiso
H4_9 H 0.7054(17) 0.1877(12) 0.573(3) 0.0507 Uiso
C4_9 C 0.5635(19) 0.1444(17) 0.306(3) 0.0507 Uiso
H5_9 H 0.5939(14) 0.1488(12) 0.496(3) 0.0507 Uiso
C5_9 C 0.4957(21) 0.1127(19) 0.348(3) 0.0507 Uiso
O3_9 O 0.5791(23) 0.153(2) 0.188(3) 0.0507 Uiso
C6_9 C 0.4709(21) 0.1020(19) 0.475(3) 0.0507 Uiso
C7_9 C 0.4413(23) 0.078(2) 0.269(3) 0.0507 Uiso
H6_9 H 0.4956(21) 0.1194(18) 0.568(3) 0.0507 Uiso
H7_9 H 0.4390(33) 0.072(3) 0.164(3) 0.0507 Uiso
N3_9 N 0.3877(34) 0.048(3) 0.344(4) 0.0507 Uiso
C8_9 C 0.2301(13) 0.0010(9) 0.545(2) 0.0507 Uiso
N4_9 N 0.1732(18) 0.0597(13) 0.599(4) 0.0507 Uiso
C11_9 C 0.1926(14) 0.1028(11) 0.499(5) 0.0507 Uiso
H12_9 H 0.1825(22) 0.0773(14) 0.693(4) 0.0507 Uiso
C12_9 C 0.2216(16) 0.1716(12) 0.534(5) 0.0507 Uiso
O6_9 O 0.1892(14) 0.0859(11) 0.383(4) 0.0507 Uiso
C13_9 C 0.2309(22) 0.2011(14) 0.656(6) 0.0507 Uiso
C14_9 C 0.2559(16) 0.2234(11) 0.448(6) 0.0507 Uiso
H13_9 H 0.2138(26) 0.1792(17) 0.751(6) 0.0507 Uiso
H14_9 H 0.2620(18) 0.2218(11) 0.343(6) 0.0507 Uiso
O4_9 O 0.2334(11) 0.9706(8) 0.447(2) 0.0507 Uiso
C9_9 C 0.1641(16) 0.9945(11) 0.584(3) 0.0507 Uiso
C10_9 C 0.1073(16) 0.9494(12) 0.497(4) 0.0507 Uiso
H8_9 H 0.1549(21) 0.9742(13) 0.683(3) 0.0507 Uiso
H9_9 H 0.1015(16) 0.9006(11) 0.498(3) 0.0507 Uiso
H10_9 H 0.0625(19) 0.9462(15) 0.535(5) 0.0507 Uiso
H11_9 H 0.1148(14) 0.9671(11) 0.397(4) 0.0507 Uiso
loop_
_geom_bond_atom_site_label_1
_geom_bond_atom_site_label_2
_geom_bond_site_symmetry_1
_geom_bond_site_symmetry_2
Zn1 O1 1_555 1_555
Zn2 N3 1_555 1_555
O1 C1 1_555 1_555
C1 C2 1_555 1_555
C2 C3 1_555 1_555
O2 C1 1_555 1_555
C3 H2 1_555 1_555
H1 C2 1_555 1_555
N1 C2 1_555 1_555
H3 C3 1_555 1_555
H4 C3 1_555 1_555
C4 N1 1_555 1_555
H5 N1 1_555 1_555
C5 C4 1_555 1_555
O3 C4 1_555 1_555
C6 C5 1_555 1_555
C7 C5 1_555 1_555
H6 C6 1_555 1_555
N2 C6 1_555 1_555
H7 C7 1_555 1_555
N3 C7 1_555 1_555
O4 Zn2 1_555 1_555
C8 O4 1_555 1_555
C9 C8 1_555 1_555
O5 C8 1_555 1_555
C10 C9 1_555 1_555
N4 C9 1_555 1_555
H9 C10 1_555 1_555
H10 C10 1_555 1_555
H11 C10 1_555 1_555
C11 N4 1_555 1_555
C12 C11 1_555 1_555
O6 C11 1_555 1_555
C13 C12 1_555 1_555
C14 C12 1_555 1_555
N5 C13 1_555 1_555
H14 C14 1_555 1_555
N6 C14 1_555 1_555
Zn3 N6 1_555 1_555
Zn5 O2 1_555 1_555
Zn6 N2 1_555 1_555
O7 Zn1 1_555 1_555
N7 Zn2 1_555 1_555
O8 Zn2 1_555 1_555
N2 N3 1_555 1_555
O5 Zn6 1_555 1_555
N5 N6 1_555 1_555
O4_2 Zn2_2 1_555 1_555
C8_2 O4_2 1_555 1_555
C9_2 C8_2 1_555 1_555
O5_2 C8_2 1_555 1_555
C10_2 C9_2 1_555 1_555
N4_2 C9_2 1_555 1_555
H9_2 C10_2 1_555 1_555
H10_2 C10_2 1_555 1_555
H11_2 C10_2 1_555 1_555
C11_2 N4_2 1_555 1_555
C12_2 C11_2 1_555 1_555
O6_2 C11_2 1_555 1_555
C13_2 C12_2 1_555 1_555
C14_2 C12_2 1_555 1_555
N5_2 C13_2 1_555 1_555
H14_2 C14_2 1_555 1_555
N9 C14_2 1_555 1_555
N7_2 Zn2_2 1_555 1_555
O8_2 Zn2_2 1_555 1_555
N5_2 N9 1_555 1_555
Zn1_2 O1_2 1_555 1_555
O1_2 C1_2 1_555 1_555
C1_2 C2_2 1_555 1_555
C2_2 C3_2 1_555 1_555
O2_2 C1_2 1_555 1_555
C3_2 H2_2 1_555 1_555
H1_2 C2_2 1_555 1_555
N1_2 C2_2 1_555 1_555
H3_2 C3_2 1_555 1_555
H4_2 C3_2 1_555 1_555
C4_2 N1_2 1_555 1_555
H5_2 N1_2 1_555 1_555
C5_2 C4_2 1_555 1_555
O3_2 C4_2 1_555 1_555
C6_2 C5_2 1_555 1_555
C7_2 C5_2 1_555 1_555
H6_2 C6_2 1_555 1_555
N2_2 C6_2 1_555 1_555
H7_2 C7_2 1_555 1_555
N3_2 C7_2 1_555 1_555
Zn5_2 O2_2 1_555 1_555
Zn6_2 N2_2 1_555 1_555
O7_2 Zn1_2 1_555 1_555
N2_2 N3_2 1_555 1_555
Zn3 O1_3 1_555 1_555
O1_3 C1_3 1_555 1_555
C1_3 C2_3 1_555 1_555
C2_3 C3_3 1_555 1_555
O2_3 C1_3 1_555 1_555
C3_3 H2_3 1_555 1_555
H1_3 C2_3 1_555 1_555
N1_3 C2_3 1_555 1_555
H3_3 C3_3 1_555 1_555
H4_3 C3_3 1_555 1_555
C4_3 N1_3 1_555 1_555
H5_3 N1_3 1_555 1_555
C5_3 C4_3 1_555 1_555
O3_3 C4_3 1_555 1_555
C6_3 C5_3 1_555 1_555
C7_3 C5_3 1_555 1_555
H6_3 C6_3 1_555 1_555
N2_3 C6_3 1_555 1_555
H7_3 C7_3 1_555 1_555
N3_3 C7_3 1_555 1_555
Zn5_3 O2_3 1_555 1_555
Zn6_3 N2_3 1_555 1_555
O7_3 Zn3 1_555 1_555
N8_3 Zn3 1_555 1_555
N2_3 N3_3 1_555 1_555
O4_3 Zn2_3 1_555 1_555
C8_3 O4_3 1_555 1_555
C9_3 C8_3 1_555 1_555
O5_3 C8_3 1_555 1_555
C10_3 C9_3 1_555 1_555
N4_3 C9_3 1_555 1_555
H9_3 C10_3 1_555 1_555
H10_3 C10_3 1_555 1_555
H11_3 C10_3 1_555 1_555
C11_3 N4_3 1_555 1_555
C12_3 C11_3 1_555 1_555
O6_3 C11_3 1_555 1_555
C13_3 C12_3 1_555 1_555
C14_3 C12_3 1_555 1_555
N5_3 C13_3 1_555 1_555
H14_3 C14_3 1_555 1_555
N9_2 C14_3 1_555 1_555
N7_3 Zn2_3 1_555 1_555
O8_3 Zn2_3 1_555 1_555
N5_3 N9_2 1_555 1_555
Zn4 O1_4 1_555 1_555
O1_4 C1_4 1_555 1_555
C1_4 C2_4 1_555 1_555
C2_4 C3_4 1_555 1_555
C3_4 H2_4 1_555 1_555
N1_4 C2_4 1_555 1_555
H3_4 C3_4 1_555 1_555
H4_4 C3_4 1_555 1_555
H5_4 N1_4 1_555 1_555
C6_4 C5_4 1_555 1_555
H6_4 C6_4 1_555 1_555
N2_4 C6_4 1_555 1_555
O7_4 Zn4 1_555 1_555
N9_3 Zn4 1_555 1_555
N2_4 N3_4 1_555 1_555
O3_4 C4_4 1_555 1_555
H7_4 C7_4 1_555 1_555
C8_4 O4_4 1_555 1_555
C9_4 C8_4 1_555 1_555
O5_4 C8_4 1_555 1_555
C10_4 C9_4 1_555 1_555
H8_4 C9_4 1_555 1_555
N4_4 C9_4 1_555 1_555
H9_4 C10_4 1_555 1_555
H10_4 C10_4 1_555 1_555
H11_4 C10_4 1_555 1_555
C11_4 N4_4 1_555 1_555
H12_4 N4_4 1_555 1_555
C12_4 C11_4 1_555 1_555
O6_4 C11_4 1_555 1_555
C13_4 C12_4 1_555 1_555
C14_4 C12_4 1_555 1_555
H13_4 C13_4 1_555 1_555
N5_4 C13_4 1_555 1_555
H14_4 C14_4 1_555 1_555
N6_2 C14_4 1_555 1_555
Zn5_2 N5_4 1_555 1_555
O5_4 Zn6_4 1_555 1_555
N5_4 N6_2 1_555 1_555
C8_5 O4_5 1_555 1_555
C9_5 C8_5 1_555 1_555
O5_5 C8_5 1_555 1_555
C10_5 C9_5 1_555 1_555
H8_5 C9_5 1_555 1_555
N4_5 C9_5 1_555 1_555
H9_5 C10_5 1_555 1_555
H10_5 C10_5 1_555 1_555
H11_5 C10_5 1_555 1_555
C11_5 N4_5 1_555 1_555
H12_5 N4_5 1_555 1_555
C12_5 C11_5 1_555 1_555
O6_5 C11_5 1_555 1_555
C13_5 C12_5 1_555 1_555
C14_5 C12_5 1_555 1_555
H13_5 C13_5 1_555 1_555
N5_5 C13_5 1_555 1_555
H14_5 C14_5 1_555 1_555
N9_3 C14_5 1_555 1_555
Zn5_3 N5_5 1_555 1_555
O5_5 Zn6_5 1_555 1_555
N5_5 N9_3 1_555 1_555
Zn4_2 O1_5 1_555 1_555
H5_5 N1_5 1_555 1_555
C6_5 C5_5 1_555 1_555
H6_5 C6_5 1_555 1_555
N2_5 C6_5 1_555 1_555
O7_5 Zn4_2 1_555 1_555
N2_5 N3_5 1_555 1_555
O3_5 C4_5 1_555 1_555
H7_5 C7_5 1_555 1_555
C1_5 C2_5 1_555 1_555
C2_5 C3_5 1_555 1_555
C3_5 H2_5 1_555 1_555
H3_5 C3_5 1_555 1_555
H4_5 C3_5 1_555 1_555
C1_6 C2_6 1_555 1_555
C2_6 C3_6 1_555 1_555
C3_6 H2_6 1_555 1_555
H3_6 C3_6 1_555 1_555
H4_6 C3_6 1_555 1_555
Zn4_3 O1_6 1_555 1_555
H5_6 N1_6 1_555 1_555
C6_6 C5_6 1_555 1_555
H6_6 C6_6 1_555 1_555
N2_6 C6_6 1_555 1_555
C8_6 O4_6 1_555 1_555
C9_6 C8_6 1_555 1_555
O5_6 C8_6 1_555 1_555
C10_6 C9_6 1_555 1_555
H8_6 C9_6 1_555 1_555
N4_6 C9_6 1_555 1_555
H9_6 C10_6 1_555 1_555
H10_6 C10_6 1_555 1_555
H11_6 C10_6 1_555 1_555
C11_6 N4_6 1_555 1_555
H12_6 N4_6 1_555 1_555
C12_6 C11_6 1_555 1_555
O6_6 C11_6 1_555 1_555
C13_6 C12_6 1_555 1_555
C14_6 C12_6 1_555 1_555
H13_6 C13_6 1_555 1_555
N5_6 C13_6 1_555 1_555
H14_6 C14_6 1_555 1_555
N9_4 C14_6 1_555 1_555
Zn5 N5_6 1_555 1_555
Zn6_6 N2_6 1_555 1_555
O7_6 Zn4_3 1_555 1_555
N2_6 N3_6 1_555 1_555
O5_6 Zn6_6 1_555 1_555
N5_6 N9_4 1_555 1_555
O3_6 C4_6 1_555 1_555
H7_6 C7_6 1_555 1_555
O4_7 Zn6_5 1_555 1_555
C10_7 C9_7 1_555 1_555
H8_7 C9_7 1_555 1_555
H9_7 C10_7 1_555 1_555
H10_7 C10_7 1_555 1_555
H11_7 C10_7 1_555 1_555
O1_7 C1_7 1_555 1_555
C1_7 C2_7 1_555 1_555
C2_7 C3_7 1_555 1_555
O7_6 C1_7 1_555 1_555
C3_7 H2_7 1_555 1_555
H1_7 C2_7 1_555 1_555
N1_7 C2_7 1_555 1_555
H3_7 C3_7 1_555 1_555
H4_7 C3_7 1_555 1_555
C4_7 N1_7 1_555 1_555
H5_7 N1_7 1_555 1_555
C5_7 C4_7 1_555 1_555
O3_7 C4_7 1_555 1_555
C6_7 C5_7 1_555 1_555
C7_7 C5_7 1_555 1_555
H6_7 C6_7 1_555 1_555
N7_3 C6_7 1_555 1_555
H7_7 C7_7 1_555 1_555
N3_7 C7_7 1_555 1_555
O8_3 C8_7 1_555 1_555
C11_7 N4_7 1_555 1_555
H12_7 N4_7 1_555 1_555
C12_7 C11_7 1_555 1_555
O6_7 C11_7 1_555 1_555
C13_7 C12_7 1_555 1_555
C14_7 C12_7 1_555 1_555
H13_7 C13_7 1_555 1_555
N8 C13_7 1_555 1_555
H14_7 C14_7 1_555 1_555
N6_3 C14_7 1_555 1_555
N7_3 N3_7 1_555 1_555
N8 N6_3 1_555 1_555
Zn5_3 O1_8 1_555 1_555
Zn6_6 N3_8 1_555 1_555
O1_8 C1_8 1_555 1_555
C1_8 C2_8 1_555 1_555
C2_8 C3_8 1_555 1_555
O7_4 C1_8 1_555 1_555
C3_8 H2_8 1_555 1_555
H1_8 C2_8 1_555 1_555
N1_8 C2_8 1_555 1_555
H3_8 C3_8 1_555 1_555
H4_8 C3_8 1_555 1_555
C4_8 N1_8 1_555 1_555
H5_8 N1_8 1_555 1_555
C5_8 C4_8 1_555 1_555
O3_8 C4_8 1_555 1_555
C6_8 C5_8 1_555 1_555
C7_8 C5_8 1_555 1_555
H6_8 C6_8 1_555 1_555
N7 C6_8 1_555 1_555
H7_8 C7_8 1_555 1_555
N3_8 C7_8 1_555 1_555
O4_8 Zn6_6 1_555 1_555
C8_8 O4_8 1_555 1_555
C9_8 C8_8 1_555 1_555
O8 C8_8 1_555 1_555
C10_8 C9_8 1_555 1_555
H8_8 C9_8 1_555 1_555
N4_8 C9_8 1_555 1_555
H9_8 C10_8 1_555 1_555
H10_8 C10_8 1_555 1_555
H11_8 C10_8 1_555 1_555
C11_8 N4_8 1_555 1_555
H12_8 N4_8 1_555 1_555
C12_8 C11_8 1_555 1_555
O6_8 C11_8 1_555 1_555
C13_8 C12_8 1_555 1_555
C14_8 C12_8 1_555 1_555
H13_8 C13_8 1_555 1_555
N8_2 C13_8 1_555 1_555
H14_8 C14_8 1_555 1_555
N9_5 C14_8 1_555 1_555
N9_6 Zn5_3 1_555 1_555
N7 N3_8 1_555 1_555
N8_2 N9_5 1_555 1_555
O1_9 C1_9 1_555 1_555
C1_9 C2_9 1_555 1_555
C2_9 C3_9 1_555 1_555
O7_5 C1_9 1_555 1_555
C3_9 H2_9 1_555 1_555
H1_9 C2_9 1_555 1_555
N1_9 C2_9 1_555 1_555
H3_9 C3_9 1_555 1_555
H4_9 C3_9 1_555 1_555
C4_9 N1_9 1_555 1_555
H5_9 N1_9 1_555 1_555
C5_9 C4_9 1_555 1_555
O3_9 C4_9 1_555 1_555
C6_9 C5_9 1_555 1_555
C7_9 C5_9 1_555 1_555
H6_9 C6_9 1_555 1_555
N7_2 C6_9 1_555 1_555
H7_9 C7_9 1_555 1_555
N3_9 C7_9 1_555 1_555
O8_2 C8_9 1_555 1_555
C11_9 N4_9 1_555 1_555
H12_9 N4_9 1_555 1_555
C12_9 C11_9 1_555 1_555
O6_9 C11_9 1_555 1_555
C13_9 C12_9 1_555 1_555
C14_9 C12_9 1_555 1_555
H13_9 C13_9 1_555 1_555
N8_3 C13_9 1_555 1_555
H14_9 C14_9 1_555 1_555
N9_6 C14_9 1_555 1_555
N7_2 N3_9 1_555 1_555
N8_3 N9_6 1_555 1_555
O4_9 Zn6_4 1_555 1_555
C10_9 C9_9 1_555 1_555
H8_9 C9_9 1_555 1_555
H9_9 C10_9 1_555 1_555
H10_9 C10_9 1_555 1_555
H11_9 C10_9 1_555 1_555

#END
