
###############################################################################
#
# This file contains modified crystal structure data generated from the
# MOF subset of the Cambridge Structural Database (CSD) v543 
# hosted by the Cambridge Crystallographic Data Centre (CCDC).
#
# This work is licensed under the Creative Commons
# Attribution-NonCommercial-ShareAlike 4.0 International License.
# To view a copy of this license, visit
# http://creativecommons.org/licenses/by-nc-sa/4.0/
# or send a letter to
# Creative Commons, PO Box 1866, Mountain View, CA 94042, USA.
#
# CIF created using the CSD Python API on 29 September 2022
# The structure has been converted into the P1 space group
# The structure has a 3D framework
# The original CSD entry VUWXUJ02 is in the rhombohedral crystal system
# The original CSD entry VUWXUJ02 is in a Sohncke space group
# The framework has been calculated to contain at least 10.0% void space
# The void calculation uses a probe of radius 1.32A, grid spacing 0.4
#
###############################################################################

data_VUWXUJ02
_chemical_formula_moiety         '(C126 H126 N54 O53 Zn13)n'
_symmetry_cell_setting           triclinic
_symmetry_space_group_name_H-M   'P 1'
_symmetry_Int_Tables_number      1
_space_group_name_Hall           'P 1'
loop_
_symmetry_equiv_pos_site_id
_symmetry_equiv_pos_as_xyz
1 x,y,z
_cell_length_a                   28.9145(3)
_cell_length_b                   28.9145(3)
_cell_length_c                   10.15210(10)
_cell_angle_alpha                90
_cell_angle_beta                 90
_cell_angle_gamma                120
_cell_volume                     7350.52
loop_
_atom_site_label
_atom_site_type_symbol
_atom_site_fract_x
_atom_site_fract_y
_atom_site_fract_z
Zn2 Zn 0.00110(3) 0.68857(3) 0.80304(5)
Zn6 Zn 0.02080(4) 0.66557(3) 0.46971(5)
O8 O 0.0798(2) 0.7216(2) 0.7823(5)
Zn1 Zn 0.66897(3) 0.64627(3) 0.62648(5)
O1 O 0.7463(2) 0.6918(2) 0.6040(5)
O2 O 0.7391(2) 0.7349(2) 0.4288(5)
O3 O 0.4131(2) 0.3883(2) 0.4490(5)
O4 O 0.4027(2) 0.3358(2) 0.2759(5)
N1 N 0.8572(2) 0.7566(2) 0.5811(5)
H1 H 0.8661 0.7561 0.6618
N2 N 0.6349(2) 0.5992(2) 0.4755(5)
N3 N 0.5237(2) 0.4350(2) 0.4121(5)
H2 H 0.5287 0.4457 0.4926
O5 O 0.5436(3) 0.4575(2) 0.1978(5)
N4 N 0.6424(2) 0.6144(2) 0.3459(5)
O6 O 0.8651(3) 0.7364(3) 0.3719(6)
N5 N 0.9701(3) 0.6887(3) 0.5237(6)
N6 N 0.9677(3) 0.7023(3) 0.6519(5)
C1 C 0.8212(3) 0.7768(3) 0.5501(7)
H3 H 0.8181 0.7929 0.6322
C2 C 0.9145(3) 0.7208(3) 0.5305(7)
C3 C 0.5862(3) 0.5262(3) 0.3561(6)
C4 C 0.9384(3) 0.6997(4) 0.4522(7)
H4 H 0.9331 0.6939 0.3620
C5 C 0.4300(3) 0.3673(3) 0.3674(6)
C6 C 0.8770(3) 0.7386(3) 0.4859(7)
C7 C 0.4875(3) 0.3793(3) 0.3841(7)
H5 H 0.4989 0.3697 0.3027
C8 C 0.7643(3) 0.7305(3) 0.5222(7)
C9 C 0.6018(3) 0.5467(3) 0.4817(6)
H6 H 0.5907 0.5268 0.5589
C10 C 0.5500(3) 0.4708(3) 0.3147(7)
C11 C 0.9346(3) 0.7225(4) 0.6565(7)
H7 H 0.9265 0.7355 0.7316
C12 C 0.6124(3) 0.5699(3) 0.2725(7)
H8 H 0.6098 0.5688 0.1811
C13 C 0.4884(4) 0.3446(3) 0.4962(9)
H9 H 0.5233 0.3484 0.5021
H10 H 0.4625 0.3079 0.4794
H11 H 0.4800 0.3556 0.5777
C14 C 0.8440(5) 0.8214(5) 0.4528(13)
H12 H 0.8761 0.8508 0.4879
H13 H 0.8185 0.8327 0.4353
H14 H 0.8521 0.8094 0.3724
Zn3 Zn 0.68706(3) 0.68937(4) 0.29315(5)
Zn4 Zn 0.35414(4) 0.33223(3) 0.13637(5)
Zn5 Zn 0.33443(3) 0.35524(3) 0.46971(5)
O7 O 0.6625(3) 0.5942(2) 0.7621(5)
O9 O 0.9975(2) 0.7336(3) 0.9426(5)
N7 N 0.6387(3) 0.6909(2) 0.6792(5)
N8 N 0.9780(3) 0.6147(4) 0.8570(6)
Zn1_2 Zn 0.35373(3) 0.02270(4) 0.62648(5)
Zn2_2 Zn 0.31143(3) 0.31253(4) 0.80304(5)
O1_2 O 0.3082(2) 0.0545(3) 0.6040(5)
O2_2 O 0.2651(2) 0.0042(3) 0.4288(5)
O3_2 O 0.6117(2) 0.0248(3) 0.4490(5)
O4_2 O 0.6642(2) 0.0669(3) 0.2759(5)
N1_2 N 0.2434(2) 0.1006(3) 0.5811(5)
H1_2 H 0.2439 0.1100 0.6618
N2_2 N 0.4008(2) 0.0357(3) 0.4755(5)
N3_2 N 0.5650(2) 0.0887(3) 0.4121(5)
H2_2 H 0.5543 0.0830 0.4926
O5_2 O 0.5425(2) 0.0861(4) 0.1978(5)
N4_2 N 0.3856(2) 0.0280(3) 0.3459(5)
O6_2 O 0.2636(3) 0.1287(4) 0.3719(6)
N5_2 N 0.3113(3) 0.2814(4) 0.5237(6)
N6_2 N 0.2977(3) 0.2654(4) 0.6519(5)
C1_2 C 0.2232(3) 0.0444(4) 0.5501(7)
H3_2 H 0.2071 0.0252 0.6322
C2_2 C 0.2792(3) 0.1937(4) 0.5305(7)
C3_2 C 0.4738(3) 0.0600(4) 0.3561(6)
C4_2 C 0.3003(4) 0.2387(5) 0.4522(7)
H4_2 H 0.3061 0.2392 0.3620
C5_2 C 0.6327(3) 0.0627(4) 0.3674(6)
C6_2 C 0.2614(3) 0.1384(4) 0.4859(7)
C7_2 C 0.6207(3) 0.1082(4) 0.3841(7)
H5_2 H 0.6303 0.1292 0.3027
C8_2 C 0.2695(3) 0.0338(4) 0.5222(7)
C9_2 C 0.4533(3) 0.0551(4) 0.4817(6)
H6_2 H 0.4732 0.0639 0.5589
C10_2 C 0.5292(3) 0.0792(4) 0.3147(7)
C11_2 C 0.2775(4) 0.2121(5) 0.6565(7)
H7_2 H 0.2645 0.1910 0.7316
C12_2 C 0.4301(3) 0.0425(4) 0.2725(7)
H8_2 H 0.4312 0.0410 0.1811
C13_2 C 0.6554(3) 0.1438(5) 0.4962(9)
H9_2 H 0.6516 0.1749 0.5021
H10_2 H 0.6921 0.1546 0.4794
H11_2 H 0.6444 0.1244 0.5777
C14_2 C 0.1786(5) 0.0226(7) 0.4528(13)
H12_2 H 0.1492 0.0253 0.4879
H14_2 H 0.1906 0.0427 0.3724
Zn4_2 Zn 0.66777(3) 0.02190(5) 0.13637(5)
O7_2 O 0.4058(2) 0.0682(4) 0.7621(5)
O8_2 O 0.2784(2) 0.3581(3) 0.7823(5)
O9_2 O 0.2664(3) 0.2640(4) 0.9426(5)
N8_2 N 0.3853(4) 0.3632(5) 0.8570(6)
H13_2 H 0.1673 0.9858 0.4353
Zn3_2 Zn 0.31063(4) 0.99770(5) 0.29315(5)
Zn5_2 Zn 0.64476(3) 0.97920(4) 0.46971(5)
N7_2 N 0.3091(2) 0.9477(4) 0.6792(5)
H13_3 H 0.0142 0.1815 0.4353
Zn3_3 Zn 0.00230(5) 0.31294(3) 0.29315(5)
N7_3 N 0.0523(4) 0.3613(3) 0.6792(5)
Zn1_3 Zn 0.97730(4) 0.33103(3) 0.62648(5)
O1_3 O 0.9455(3) 0.2537(2) 0.6040(5)
O2_3 O 0.9958(3) 0.2609(2) 0.4288(5)
O3_3 O 0.9752(3) 0.5869(2) 0.4490(5)
O4_3 O 0.9331(3) 0.5973(2) 0.2759(5)
N1_3 N 0.8994(3) 0.1428(2) 0.5811(5)
H1_3 H 0.8900 0.1339 0.6618
N2_3 N 0.9643(3) 0.3651(2) 0.4755(5)
N3_3 N 0.9113(3) 0.4763(2) 0.4121(5)
H2_3 H 0.9170 0.4713 0.4926
O5_3 O 0.9139(4) 0.4564(3) 0.1978(5)
N4_3 N 0.9720(3) 0.3576(2) 0.3459(5)
O6_3 O 0.8713(4) 0.1349(3) 0.3719(6)
N5_3 N 0.7186(4) 0.0299(3) 0.5237(6)
N6_3 N 0.7346(4) 0.0323(3) 0.6519(5)
C1_3 C 0.9556(4) 0.1788(3) 0.5501(7)
H3_3 H 0.9748 0.1819 0.6322
C2_3 C 0.8063(4) 0.0855(3) 0.5305(7)
C3_3 C 0.9400(4) 0.4138(3) 0.3561(6)
C4_3 C 0.7613(5) 0.0616(3) 0.4522(7)
H4_3 H 0.7608 0.0669 0.3620
C5_3 C 0.9373(4) 0.5700(3) 0.3674(6)
C6_3 C 0.8616(4) 0.1230(3) 0.4859(7)
C7_3 C 0.8918(4) 0.5125(3) 0.3841(7)
H5_3 H 0.8708 0.5011 0.3027
C8_3 C 0.9662(4) 0.2357(3) 0.5222(7)
C9_3 C 0.9449(4) 0.3982(3) 0.4817(6)
H6_3 H 0.9361 0.4093 0.5589
C10_3 C 0.9208(4) 0.4500(3) 0.3147(7)
C11_3 C 0.7879(5) 0.0654(3) 0.6565(7)
H7_3 H 0.8090 0.0735 0.7316
C12_3 C 0.9575(4) 0.3876(3) 0.2725(7)
H8_3 H 0.9590 0.3902 0.1811
C13_3 C 0.8562(5) 0.5116(4) 0.4962(9)
H9_3 H 0.8251 0.4767 0.5021
H10_3 H 0.8454 0.5375 0.4794
H11_3 H 0.8756 0.5200 0.5777
C14_3 C 0.9774(7) 0.1560(5) 0.4528(13)
H12_3 H 0.9747 0.1239 0.4879
H14_3 H 0.9573 0.1479 0.3724
Zn4_3 Zn 0.97810(5) 0.64586(4) 0.13637(5)
O7_3 O 0.9318(4) 0.3375(3) 0.7621(5)
O9_3 O 0.7360(4) 0.0025(2) 0.9426(5)
N8_3 N 0.6368(5) 0.0220(3) 0.8570(6)
Zn2_3 Zn 0.68747(4) 0.99890(3) 0.80304(5)
O8_3 O 0.6419(3) 0.9202(2) 0.7823(5)
H7_4 H 0.5932 0.0688 0.0649
O8_4 O 0.7464(2) 0.0550(2) 0.1157(5)
N7_4 N 0.3053(3) 0.0243(2) 0.0126(5)
O1_4 O 0.4130(2) 0.0251(2) 0.9373(5)
N1_4 N 0.5239(2) 0.0899(2) 0.9144(5)
H1_4 H 0.5328 0.0894 0.9951
O6_4 O 0.5318(3) 0.0697(3) 0.7052(6)
N6_4 N 0.6344(3) 0.0356(3) 0.9852(5)
C1_4 C 0.4879(3) 0.1101(3) 0.8834(7)
H3_4 H 0.4848 0.1262 0.9655
C2_4 C 0.5812(3) 0.0541(3) 0.8638(7)
C4_4 C 0.6051(3) 0.0330(4) 0.7855(7)
H4_4 H 0.5998 0.0272 0.6953
C6_4 C 0.5437(3) 0.0719(3) 0.8192(7)
C8_4 C 0.4310(3) 0.0638(3) 0.8555(7)
C11_4 C 0.6013(3) 0.0558(4) 0.9898(7)
C14_4 C 0.5107(5) 0.1547(5) 0.7861(13)
H12_4 H 0.5428 0.1841 0.8212
H13_4 H 0.4852 0.1660 0.7686
H14_4 H 0.5188 0.1427 0.7057
O7_4 O 0.3291(3) 0.9276(2) 0.0955(5)
N8_4 N 0.6446(3) 0.9481(4) 0.1904(6)
Zn1_4 Zn 0.33564(3) 0.97960(3) 0.95981(5)
O4_4 O 0.0694(2) 0.6691(2) 0.6092(5)
N2_4 N 0.3016(2) 0.9325(2) 0.8088(5)
N3_4 N 0.1904(2) 0.7683(2) 0.7454(5)
H2_4 H 0.1954 0.7790 0.8259
O5_4 O 0.2103(3) 0.7908(2) 0.5311(5)
C3_4 C 0.2529(3) 0.8595(3) 0.6894(6)
C5_4 C 0.0967(3) 0.7006(3) 0.7007(6)
C7_4 C 0.1542(3) 0.7126(3) 0.7174(7)
H5_4 H 0.1656 0.7030 0.6360
C9_4 C 0.2685(3) 0.8800(3) 0.8150(6)
H6_4 H 0.2574 0.8601 0.8922
C10_4 C 0.2167(3) 0.8041(3) 0.6480(7)
C12_4 C 0.2791(3) 0.9032(3) 0.6058(7)
H8_4 H 0.2765 0.9021 0.5144
C13_4 C 0.1551(4) 0.6779(3) 0.8295(9)
H9_4 H 0.1900 0.6817 0.8354
H10_4 H 0.1292 0.6412 0.8127
H11_4 H 0.1467 0.6889 0.9110
O7_5 O 0.0724(2) 0.4016(4) 0.0955(5)
N8_5 N 0.0519(4) 0.6966(5) 0.1904(6)
Zn1_5 Zn 0.02040(3) 0.35603(4) 0.95981(5)
O4_5 O 0.3309(2) 0.4002(3) 0.6092(5)
N2_5 N 0.0675(2) 0.3690(3) 0.8088(5)
N3_5 N 0.2317(2) 0.4220(3) 0.7454(5)
H2_5 H 0.2210 0.4163 0.8259
O5_5 O 0.2092(2) 0.4194(4) 0.5311(5)
C3_5 C 0.1405(3) 0.3933(4) 0.6894(6)
C5_5 C 0.2994(3) 0.3960(4) 0.7007(6)
C7_5 C 0.2874(3) 0.4415(4) 0.7174(7)
H5_5 H 0.2970 0.4625 0.6360
C9_5 C 0.1200(3) 0.3884(4) 0.8150(6)
H6_5 H 0.1399 0.3972 0.8922
C10_5 C 0.1959(3) 0.4125(4) 0.6480(7)
C12_5 C 0.0968(3) 0.3758(4) 0.6058(7)
H8_5 H 0.0979 0.3743 0.5144
C13_5 C 0.3221(3) 0.4771(5) 0.8295(9)
H9_5 H 0.3183 0.5082 0.8354
H10_5 H 0.3588 0.4879 0.8127
H11_5 H 0.3111 0.4577 0.9110
H7_5 H 0.9312 0.5243 0.0649
O8_5 O 0.9450(2) 0.6915(3) 0.1157(5)
N7_5 N 0.9757(2) 0.2811(4) 0.0126(5)
O1_5 O 0.9749(2) 0.3878(3) 0.9373(5)
N1_5 N 0.9101(2) 0.4339(3) 0.9144(5)
H1_5 H 0.9106 0.4433 0.9951
O6_5 O 0.9303(3) 0.4620(4) 0.7052(6)
N6_5 N 0.9644(3) 0.5987(4) 0.9852(5)
C1_5 C 0.8899(3) 0.3777(4) 0.8834(7)
H3_5 H 0.8738 0.3585 0.9655
C2_5 C 0.9459(3) 0.5270(4) 0.8638(7)
C4_5 C 0.9670(4) 0.5720(5) 0.7855(7)
H4_5 H 0.9728 0.5725 0.6953
C6_5 C 0.9281(3) 0.4717(4) 0.8192(7)
C8_5 C 0.9362(3) 0.3671(4) 0.8555(7)
C11_5 C 0.9442(4) 0.5454(5) 0.9898(7)
C14_5 C 0.8453(5) 0.3559(7) 0.7861(13)
H12_5 H 0.8159 0.3586 0.8212
H13_5 H 0.8340 0.3191 0.7686
H14_5 H 0.8573 0.3760 0.7057
H7_6 H 0.4757 0.4068 0.0649
O7_6 O 0.5984(4) 0.6709(3) 0.0955(5)
O8_6 O 0.3085(3) 0.2536(2) 0.1157(5)
N7_6 N 0.7189(4) 0.6947(3) 0.0126(5)
N8_6 N 0.3034(5) 0.3554(3) 0.1904(6)
Zn1_6 Zn 0.64397(4) 0.66436(3) 0.95981(5)
O1_6 O 0.6122(3) 0.5870(2) 0.9373(5)
O4_6 O 0.5998(3) 0.9306(2) 0.6092(5)
N1_6 N 0.5661(3) 0.4761(2) 0.9144(5)
H1_6 H 0.5567 0.4672 0.9951
N2_6 N 0.6310(3) 0.6984(2) 0.8088(5)
N3_6 N 0.5780(3) 0.8096(2) 0.7454(5)
H2_6 H 0.5837 0.8046 0.8259
O5_6 O 0.5806(4) 0.7897(3) 0.5311(5)
O6_6 O 0.5380(4) 0.4682(3) 0.7052(6)
N6_6 N 0.4013(4) 0.3656(3) 0.9852(5)
C1_6 C 0.6223(4) 0.5121(3) 0.8834(7)
H3_6 H 0.6415 0.5152 0.9655
C2_6 C 0.4730(4) 0.4188(3) 0.8638(7)
C3_6 C 0.6067(4) 0.7471(3) 0.6894(6)
C4_6 C 0.4280(5) 0.3949(3) 0.7855(7)
H4_6 H 0.4275 0.4002 0.6953
C5_6 C 0.6040(4) 0.9033(3) 0.7007(6)
C6_6 C 0.5283(4) 0.4563(3) 0.8192(7)
C7_6 C 0.5585(4) 0.8458(3) 0.7174(7)
H5_6 H 0.5375 0.8344 0.6360
C8_6 C 0.6329(4) 0.5690(3) 0.8555(7)
C9_6 C 0.6116(4) 0.7315(3) 0.8150(6)
H6_6 H 0.6028 0.7426 0.8922
C10_6 C 0.5875(4) 0.7833(3) 0.6480(7)
C11_6 C 0.4546(5) 0.3987(3) 0.9898(7)
C12_6 C 0.6242(4) 0.7209(3) 0.6058(7)
H8_6 H 0.6257 0.7235 0.5144
C13_6 C 0.5229(5) 0.8449(4) 0.8295(9)
H9_6 H 0.4918 0.8100 0.8354
H10_6 H 0.5121 0.8708 0.8127
H11_6 H 0.5423 0.8533 0.9110
C14_6 C 0.6441(7) 0.4893(5) 0.7861(13)
H12_6 H 0.6414 0.4572 0.8212
H13_6 H 0.6809 0.5148 0.7686
H14_6 H 0.6240 0.4812 0.7057
O1_7 O 0.0796(2) 0.3585(2) 0.2707(5)
N1_7 N 0.1905(2) 0.4233(2) 0.2478(5)
H1_7 H 0.1994 0.4228 0.3285
O6_7 O 0.1984(3) 0.4031(3) 0.0386(6)
N6_7 N 0.3010(3) 0.3690(3) 0.3186(5)
C1_7 C 0.1545(3) 0.4435(3) 0.2168(7)
H3_7 H 0.1514 0.4596 0.2989
C2_7 C 0.2478(3) 0.3875(3) 0.1972(7)
C4_7 C 0.2717(3) 0.3664(4) 0.1189(7)
H4_7 H 0.2664 0.3606 0.0287
C6_7 C 0.2103(3) 0.4053(3) 0.1526(7)
C8_7 C 0.0976(3) 0.3972(3) 0.1889(7)
C11_7 C 0.2679(3) 0.3892(4) 0.3232(7)
H7_7 H 0.2598 0.4022 0.3983
C14_7 C 0.1773(5) 0.4881(5) 0.1195(13)
H12_7 H 0.2094 0.5175 0.1546
H13_7 H 0.1518 0.4994 0.1020
H14_7 H 0.1854 0.4761 0.0391
N2_7 N 0.9682(2) 0.2659(2) 0.1422(5)
N3_7 N 0.8570(2) 0.1017(2) 0.0788(5)
H2_7 H 0.8620 0.1124 0.1593
C3_7 C 0.9195(3) 0.1929(3) 0.0228(6)
C5_7 C 0.7633(3) 0.0340(3) 0.0341(6)
C7_7 C 0.8208(3) 0.0460(3) 0.0508(7)
C9_7 C 0.9351(3) 0.2134(3) 0.1484(6)
H6_7 H 0.9240 0.1935 0.2256
C13_7 C 0.8217(4) 0.0113(3) 0.1629(9)
H9_7 H 0.8566 0.0151 0.1688
H11_7 H 0.8133 0.0223 0.2444
O5_7 O 0.8769(3) 0.1242(2) 0.8645(5)
H5_7 H 0.8322 0.0364 0.9694
C10_7 C 0.8833(3) 0.1375(3) 0.9814(7)
C12_7 C 0.9457(3) 0.2366(3) 0.9392(7)
H8_7 H 0.9431 0.2355 0.8478
O1_8 O 0.6415(2) 0.7212(3) 0.2707(5)
N1_8 N 0.5767(2) 0.7673(3) 0.2478(5)
H1_8 H 0.5772 0.7767 0.3285
N2_8 N 0.7341(2) 0.7024(3) 0.1422(5)
N3_8 N 0.8983(2) 0.7554(3) 0.0788(5)
H2_8 H 0.8876 0.7497 0.1593
O6_8 O 0.5969(3) 0.7954(4) 0.0386(6)
N6_8 N 0.6310(3) 0.9321(4) 0.3186(5)
C1_8 C 0.5565(3) 0.7111(4) 0.2168(7)
H3_8 H 0.5404 0.6919 0.2989
C2_8 C 0.6125(3) 0.8604(4) 0.1972(7)
C3_8 C 0.8071(3) 0.7267(4) 0.0228(6)
C4_8 C 0.6336(4) 0.9054(5) 0.1189(7)
H4_8 H 0.6394 0.9059 0.0287
C5_8 C 0.9660(3) 0.7294(4) 0.0341(6)
C6_8 C 0.5947(3) 0.8051(4) 0.1526(7)
C7_8 C 0.9540(3) 0.7749(4) 0.0508(7)
C8_8 C 0.6028(3) 0.7005(4) 0.1889(7)
C9_8 C 0.7866(3) 0.7218(4) 0.1484(6)
H6_8 H 0.8065 0.7306 0.2256
C11_8 C 0.6108(4) 0.8788(5) 0.3232(7)
H7_8 H 0.5978 0.8577 0.3983
C13_8 C 0.9887(3) 0.8105(5) 0.1629(9)
H9_8 H 0.9849 0.8416 0.1688
H11_8 H 0.9777 0.7911 0.2444
C14_8 C 0.5119(5) 0.6893(7) 0.1195(13)
H12_8 H 0.4825 0.6920 0.1546
H13_8 H 0.5006 0.6525 0.1020
H14_8 H 0.5239 0.7094 0.0391
O5_8 O 0.8758(2) 0.7528(4) 0.8645(5)
H5_8 H 0.9636 0.7959 0.9694
C10_8 C 0.8625(3) 0.7459(4) 0.9814(7)
C12_8 C 0.7634(3) 0.7092(4) 0.9392(7)
H8_8 H 0.7645 0.7077 0.8478
N2_9 N 0.2976(3) 0.0318(2) 0.1422(5)
N3_9 N 0.2446(3) 0.1430(2) 0.0788(5)
H2_9 H 0.2503 0.1380 0.1593
C3_9 C 0.2733(4) 0.0805(3) 0.0228(6)
C5_9 C 0.2706(4) 0.2367(3) 0.0341(6)
C7_9 C 0.2251(4) 0.1792(3) 0.0508(7)
C9_9 C 0.2782(4) 0.0649(3) 0.1484(6)
H6_9 H 0.2694 0.0760 0.2256
C13_9 C 0.1895(5) 0.1783(4) 0.1629(9)
H9_9 H 0.1584 0.1434 0.1688
H10_7 H 0.1787 0.2042 0.1461
H11_9 H 0.2089 0.1867 0.2444
O5_9 O 0.2472(4) 0.1231(3) 0.8645(5)
H5_9 H 0.2041 0.1678 0.9694
C10_9 C 0.2541(4) 0.1167(3) 0.9814(7)
C12_9 C 0.2908(4) 0.0543(3) 0.9392(7)
H8_9 H 0.2923 0.0569 0.8478
O1_9 O 0.2788(3) 0.9204(2) 0.2707(5)
N1_9 N 0.2327(3) 0.8095(2) 0.2478(5)
H1_9 H 0.2233 0.8006 0.3285
O6_9 O 0.2046(4) 0.8016(3) 0.0386(6)
N6_9 N 0.0679(4) 0.6990(3) 0.3186(5)
C1_9 C 0.2889(4) 0.8455(3) 0.2168(7)
H3_9 H 0.3081 0.8486 0.2989
C2_9 C 0.1396(4) 0.7522(3) 0.1972(7)
C4_9 C 0.0946(5) 0.7283(3) 0.1189(7)
H4_9 H 0.0941 0.7336 0.0287
C6_9 C 0.1949(4) 0.7897(3) 0.1526(7)
C8_9 C 0.2995(4) 0.9024(3) 0.1889(7)
C11_9 C 0.1212(5) 0.7321(3) 0.3232(7)
H7_9 H 0.1423 0.7402 0.3983
C14_9 C 0.3107(7) 0.8227(5) 0.1195(13)
H12_9 H 0.3080 0.7906 0.1546
H13_9 H 0.3475 0.8482 0.1020
H14_9 H 0.2906 0.8146 0.0391
H10_8 H 0.7958 0.9746 0.1461
H10_9 H 0.0254 0.8213 0.1461
loop_
_geom_bond_atom_site_label_1
_geom_bond_atom_site_label_2
_geom_bond_site_symmetry_1
_geom_bond_site_symmetry_2
O8 Zn2 1_555 1_555
Zn1 O1 1_555 1_555
O1 C8 1_555 1_555
O2 C8 1_555 1_555
O3 C5 1_555 1_555
O4 C5 1_555 1_555
N1 H1 1_555 1_555
N2 Zn1 1_555 1_555
N3 H2 1_555 1_555
O5 C10 1_555 1_555
N4 N2 1_555 1_555
O6 C6 1_555 1_555
N5 N6 1_555 1_555
N6 C11 1_555 1_555
C1 N1 1_555 1_555
H3 C1 1_555 1_555
C2 C4 1_555 1_555
C3 C9 1_555 1_555
C4 N5 1_555 1_555
H4 C4 1_555 1_555
C5 C7 1_555 1_555
C6 N1 1_555 1_555
C7 N3 1_555 1_555
H5 C7 1_555 1_555
C8 C1 1_555 1_555
C9 N2 1_555 1_555
H6 C9 1_555 1_555
C10 N3 1_555 1_555
C11 C2 1_555 1_555
H7 C11 1_555 1_555
C12 N4 1_555 1_555
H8 C12 1_555 1_555
C13 C7 1_555 1_555
H9 C13 1_555 1_555
H10 C13 1_555 1_555
H11 C13 1_555 1_555
C14 C1 1_555 1_555
H12 C14 1_555 1_555
H13 C14 1_555 1_555
H14 C14 1_555 1_555
Zn3 O2 1_555 1_555
Zn4 O4 1_555 1_555
Zn5 O3 1_555 1_555
O7 Zn1 1_555 1_555
N7 Zn1 1_555 1_555
N4 Zn3 1_555 1_555
C2 C6 1_555 1_555
C3 C10 1_555 1_555
C3 C12 1_555 1_555
Zn1_2 O1_2 1_555 1_555
Zn2_2 N6_2 1_555 1_555
O1_2 C8_2 1_555 1_555
O2_2 C8_2 1_555 1_555
O3_2 C5_2 1_555 1_555
O4_2 C5_2 1_555 1_555
N1_2 H1_2 1_555 1_555
N2_2 Zn1_2 1_555 1_555
N3_2 H2_2 1_555 1_555
O5_2 C10_2 1_555 1_555
N4_2 N2_2 1_555 1_555
O6_2 C6_2 1_555 1_555
N5_2 N6_2 1_555 1_555
N6_2 C11_2 1_555 1_555
C1_2 N1_2 1_555 1_555
H3_2 C1_2 1_555 1_555
C2_2 C4_2 1_555 1_555
C3_2 C9_2 1_555 1_555
C4_2 N5_2 1_555 1_555
H4_2 C4_2 1_555 1_555
C5_2 C7_2 1_555 1_555
C6_2 N1_2 1_555 1_555
C7_2 N3_2 1_555 1_555
H5_2 C7_2 1_555 1_555
C8_2 C1_2 1_555 1_555
C9_2 N2_2 1_555 1_555
H6_2 C9_2 1_555 1_555
C10_2 N3_2 1_555 1_555
C11_2 C2_2 1_555 1_555
H7_2 C11_2 1_555 1_555
C12_2 N4_2 1_555 1_555
H8_2 C12_2 1_555 1_555
C13_2 C7_2 1_555 1_555
H9_2 C13_2 1_555 1_555
H10_2 C13_2 1_555 1_555
H11_2 C13_2 1_555 1_555
C14_2 C1_2 1_555 1_555
H12_2 C14_2 1_555 1_555
H14_2 C14_2 1_555 1_555
Zn4_2 O4_2 1_555 1_555
Zn5 N5_2 1_555 1_555
O7_2 Zn1_2 1_555 1_555
O8_2 Zn2_2 1_555 1_555
O9_2 Zn2_2 1_555 1_555
N8_2 Zn2_2 1_555 1_555
C2_2 C6_2 1_555 1_555
C3_2 C10_2 1_555 1_555
C3_2 C12_2 1_555 1_555
Zn1_3 O1_3 1_555 1_555
O1_3 C8_3 1_555 1_555
O2_3 C8_3 1_555 1_555
O3_3 C5_3 1_555 1_555
O4_3 C5_3 1_555 1_555
N1_3 H1_3 1_555 1_555
N2_3 Zn1_3 1_555 1_555
N3_3 H2_3 1_555 1_555
O5_3 C10_3 1_555 1_555
N4_3 N2_3 1_555 1_555
O6_3 C6_3 1_555 1_555
N5_3 N6_3 1_555 1_555
N6_3 C11_3 1_555 1_555
C1_3 N1_3 1_555 1_555
H3_3 C1_3 1_555 1_555
C2_3 C4_3 1_555 1_555
C3_3 C9_3 1_555 1_555
C4_3 N5_3 1_555 1_555
H4_3 C4_3 1_555 1_555
C5_3 C7_3 1_555 1_555
C6_3 N1_3 1_555 1_555
C7_3 N3_3 1_555 1_555
H5_3 C7_3 1_555 1_555
C8_3 C1_3 1_555 1_555
C9_3 N2_3 1_555 1_555
H6_3 C9_3 1_555 1_555
C10_3 N3_3 1_555 1_555
C11_3 C2_3 1_555 1_555
H7_3 C11_3 1_555 1_555
C12_3 N4_3 1_555 1_555
H8_3 C12_3 1_555 1_555
C13_3 C7_3 1_555 1_555
H9_3 C13_3 1_555 1_555
H10_3 C13_3 1_555 1_555
H11_3 C13_3 1_555 1_555
C14_3 C1_3 1_555 1_555
H12_3 C14_3 1_555 1_555
H14_3 C14_3 1_555 1_555
Zn4_3 O4_3 1_555 1_555
O7_3 Zn1_3 1_555 1_555
C2_3 C6_3 1_555 1_555
C3_3 C10_3 1_555 1_555
C3_3 C12_3 1_555 1_555
O8_3 Zn2_3 1_555 1_555
O8_4 Zn4_2 1_555 1_555
O1_4 C8_4 1_555 1_555
O7_2 C8_4 1_555 1_555
N1_4 H1_4 1_555 1_555
O6_4 C6_4 1_555 1_555
N8_3 N6_4 1_555 1_555
N6_4 C11_4 1_555 1_555
C1_4 N1_4 1_555 1_555
H3_4 C1_4 1_555 1_555
C2_4 C4_4 1_555 1_555
C4_4 N8_3 1_555 1_555
H4_4 C4_4 1_555 1_555
C6_4 N1_4 1_555 1_555
C8_4 C1_4 1_555 1_555
C11_4 C2_4 1_555 1_555
C14_4 C1_4 1_555 1_555
H12_4 C14_4 1_555 1_555
H13_4 C14_4 1_555 1_555
H14_4 C14_4 1_555 1_555
C2_4 C6_4 1_555 1_555
O8 C5_4 1_555 1_555
O4_4 C5_4 1_555 1_555
N2_4 Zn1_4 1_555 1_555
N3_4 H2_4 1_555 1_555
O5_4 C10_4 1_555 1_555
N7_2 N2_4 1_555 1_555
C3_4 C9_4 1_555 1_555
C5_4 C7_4 1_555 1_555
C7_4 N3_4 1_555 1_555
H5_4 C7_4 1_555 1_555
C9_4 N2_4 1_555 1_555
H6_4 C9_4 1_555 1_555
C10_4 N3_4 1_555 1_555
C12_4 N7_2 1_555 1_555
H8_4 C12_4 1_555 1_555
C13_4 C7_4 1_555 1_555
H9_4 C13_4 1_555 1_555
H10_4 C13_4 1_555 1_555
H11_4 C13_4 1_555 1_555
Zn6 O4_4 1_555 1_555
C3_4 C10_4 1_555 1_555
C3_4 C12_4 1_555 1_555
O8_2 C5_5 1_555 1_555
O4_5 C5_5 1_555 1_555
N2_5 Zn1_5 1_555 1_555
N3_5 H2_5 1_555 1_555
O5_5 C10_5 1_555 1_555
N7_3 N2_5 1_555 1_555
C3_5 C9_5 1_555 1_555
C5_5 C7_5 1_555 1_555
C7_5 N3_5 1_555 1_555
H5_5 C7_5 1_555 1_555
C9_5 N2_5 1_555 1_555
H6_5 C9_5 1_555 1_555
C10_5 N3_5 1_555 1_555
C12_5 N7_3 1_555 1_555
H8_5 C12_5 1_555 1_555
C13_5 C7_5 1_555 1_555
H9_5 C13_5 1_555 1_555
H10_5 C13_5 1_555 1_555
H11_5 C13_5 1_555 1_555
Zn5 O4_5 1_555 1_555
C3_5 C10_5 1_555 1_555
C3_5 C12_5 1_555 1_555
O8_5 Zn4_3 1_555 1_555
O1_5 C8_5 1_555 1_555
O7_3 C8_5 1_555 1_555
N1_5 H1_5 1_555 1_555
O6_5 C6_5 1_555 1_555
N8 N6_5 1_555 1_555
N6_5 C11_5 1_555 1_555
C1_5 N1_5 1_555 1_555
H3_5 C1_5 1_555 1_555
C2_5 C4_5 1_555 1_555
C4_5 N8 1_555 1_555
H4_5 C4_5 1_555 1_555
C6_5 N1_5 1_555 1_555
C8_5 C1_5 1_555 1_555
C11_5 C2_5 1_555 1_555
C14_5 C1_5 1_555 1_555
H12_5 C14_5 1_555 1_555
H13_5 C14_5 1_555 1_555
H14_5 C14_5 1_555 1_555
C2_5 C6_5 1_555 1_555
O8_6 Zn4 1_555 1_555
N8_6 Zn4 1_555 1_555
Zn1_6 O1_6 1_555 1_555
O1_6 C8_6 1_555 1_555
O7 C8_6 1_555 1_555
O8_3 C5_6 1_555 1_555
O4_6 C5_6 1_555 1_555
N1_6 H1_6 1_555 1_555
N2_6 Zn1_6 1_555 1_555
N3_6 H2_6 1_555 1_555
O5_6 C10_6 1_555 1_555
N7 N2_6 1_555 1_555
O6_6 C6_6 1_555 1_555
N8_2 N6_6 1_555 1_555
N6_6 C11_6 1_555 1_555
C1_6 N1_6 1_555 1_555
H3_6 C1_6 1_555 1_555
C2_6 C4_6 1_555 1_555
C3_6 C9_6 1_555 1_555
C4_6 N8_2 1_555 1_555
H4_6 C4_6 1_555 1_555
C5_6 C7_6 1_555 1_555
C6_6 N1_6 1_555 1_555
C7_6 N3_6 1_555 1_555
H5_6 C7_6 1_555 1_555
C8_6 C1_6 1_555 1_555
C9_6 N2_6 1_555 1_555
H6_6 C9_6 1_555 1_555
C10_6 N3_6 1_555 1_555
C11_6 C2_6 1_555 1_555
C12_6 N7 1_555 1_555
H8_6 C12_6 1_555 1_555
C13_6 C7_6 1_555 1_555
H9_6 C13_6 1_555 1_555
H10_6 C13_6 1_555 1_555
H11_6 C13_6 1_555 1_555
C14_6 C1_6 1_555 1_555
H12_6 C14_6 1_555 1_555
H13_6 C14_6 1_555 1_555
H14_6 C14_6 1_555 1_555
Zn5_2 O4_6 1_555 1_555
C2_6 C6_6 1_555 1_555
C3_6 C10_6 1_555 1_555
C3_6 C12_6 1_555 1_555
Zn3_3 O1_7 1_555 1_555
Zn5 N6_7 1_555 1_555
O1_7 C8_7 1_555 1_555
O7_5 C8_7 1_555 1_555
N1_7 H1_7 1_555 1_555
O6_7 C6_7 1_555 1_555
N8_6 N6_7 1_555 1_555
N6_7 C11_7 1_555 1_555
C1_7 N1_7 1_555 1_555
H3_7 C1_7 1_555 1_555
C2_7 C4_7 1_555 1_555
C4_7 N8_6 1_555 1_555
H4_7 C4_7 1_555 1_555
C6_7 N1_7 1_555 1_555
C8_7 C1_7 1_555 1_555
C11_7 C2_7 1_555 1_555
H7_7 C11_7 1_555 1_555
C14_7 C1_7 1_555 1_555
H12_7 C14_7 1_555 1_555
H13_7 C14_7 1_555 1_555
H14_7 C14_7 1_555 1_555
C2_7 C6_7 1_555 1_555
O8_4 C5_7 1_555 1_555
N3_7 H2_7 1_555 1_555
N7_5 N2_7 1_555 1_555
C3_7 C9_7 1_555 1_555
C5_7 C7_7 1_555 1_555
C7_7 N3_7 1_555 1_555
C9_7 N2_7 1_555 1_555
H6_7 C9_7 1_555 1_555
C13_7 C7_7 1_555 1_555
H9_7 C13_7 1_555 1_555
H11_7 C13_7 1_555 1_555
O5_7 C10_7 1_555 1_555
H8_7 C12_7 1_555 1_555
Zn3 O1_8 1_555 1_555
Zn5_2 N6_8 1_555 1_555
O1_8 C8_8 1_555 1_555
O7_6 C8_8 1_555 1_555
O8_5 C5_8 1_555 1_555
N1_8 H1_8 1_555 1_555
N2_8 Zn3 1_555 1_555
N3_8 H2_8 1_555 1_555
N7_6 N2_8 1_555 1_555
O6_8 C6_8 1_555 1_555
N8_4 N6_8 1_555 1_555
N6_8 C11_8 1_555 1_555
C1_8 N1_8 1_555 1_555
H3_8 C1_8 1_555 1_555
C2_8 C4_8 1_555 1_555
C3_8 C9_8 1_555 1_555
C4_8 N8_4 1_555 1_555
H4_8 C4_8 1_555 1_555
C5_8 C7_8 1_555 1_555
C6_8 N1_8 1_555 1_555
C7_8 N3_8 1_555 1_555
C8_8 C1_8 1_555 1_555
C9_8 N2_8 1_555 1_555
H6_8 C9_8 1_555 1_555
C11_8 C2_8 1_555 1_555
H7_8 C11_8 1_555 1_555
C13_8 C7_8 1_555 1_555
H9_8 C13_8 1_555 1_555
H11_8 C13_8 1_555 1_555
C14_8 C1_8 1_555 1_555
H12_8 C14_8 1_555 1_555
H13_8 C14_8 1_555 1_555
H14_8 C14_8 1_555 1_555
C2_8 C6_8 1_555 1_555
O5_8 C10_8 1_555 1_555
H8_8 C12_8 1_555 1_555
O8_6 C5_9 1_555 1_555
N3_9 H2_9 1_555 1_555
N7_4 N2_9 1_555 1_555
C3_9 C9_9 1_555 1_555
C5_9 C7_9 1_555 1_555
C7_9 N3_9 1_555 1_555
C9_9 N2_9 1_555 1_555
H6_9 C9_9 1_555 1_555
C13_9 C7_9 1_555 1_555
H9_9 C13_9 1_555 1_555
H10_7 C13_9 1_555 1_555
H11_9 C13_9 1_555 1_555
O5_9 C10_9 1_555 1_555
H8_9 C12_9 1_555 1_555
Zn3_2 O1_9 1_555 1_555
Zn6 N6_9 1_555 1_555
O1_9 C8_9 1_555 1_555
O7_4 C8_9 1_555 1_555
N1_9 H1_9 1_555 1_555
O6_9 C6_9 1_555 1_555
N8_5 N6_9 1_555 1_555
N6_9 C11_9 1_555 1_555
C1_9 N1_9 1_555 1_555
H3_9 C1_9 1_555 1_555
C2_9 C4_9 1_555 1_555
C4_9 N8_5 1_555 1_555
H4_9 C4_9 1_555 1_555
C6_9 N1_9 1_555 1_555
C8_9 C1_9 1_555 1_555
C11_9 C2_9 1_555 1_555
H7_9 C11_9 1_555 1_555
C14_9 C1_9 1_555 1_555
H12_9 C14_9 1_555 1_555
H13_9 C14_9 1_555 1_555
H14_9 C14_9 1_555 1_555
C2_9 C6_9 1_555 1_555

#END
