
###############################################################################
#
# This file contains modified crystal structure data generated from the
# MOF subset of the Cambridge Structural Database (CSD) v543 
# hosted by the Cambridge Crystallographic Data Centre (CCDC).
#
# This work is licensed under the Creative Commons
# Attribution-NonCommercial-ShareAlike 4.0 International License.
# To view a copy of this license, visit
# http://creativecommons.org/licenses/by-nc-sa/4.0/
# or send a letter to
# Creative Commons, PO Box 1866, Mountain View, CA 94042, USA.
#
# CIF created using the CSD Python API on 29 September 2022
# The structure has been converted into the P1 space group
# The structure has a 3D framework
# The original CSD entry VUWXUJ04 is in the rhombohedral crystal system
# The original CSD entry VUWXUJ04 is in a Sohncke space group
# The framework has been calculated to contain at least 10.0% void space
# The void calculation uses a probe of radius 1.32A, grid spacing 0.4
#
###############################################################################

data_VUWXUJ04
_chemical_formula_moiety         '(C126 H126 N54 O53 Zn13)n'
_symmetry_cell_setting           triclinic
_symmetry_space_group_name_H-M   'P 1'
_symmetry_Int_Tables_number      1
_space_group_name_Hall           'P 1'
loop_
_symmetry_equiv_pos_site_id
_symmetry_equiv_pos_as_xyz
1 x,y,z
_cell_length_a                   28.2634(9)
_cell_length_b                   28.2634(9)
_cell_length_c                   10.1714(3)
_cell_angle_alpha                90
_cell_angle_beta                 90
_cell_angle_gamma                120
_cell_volume                     7036.56
loop_
_atom_site_label
_atom_site_type_symbol
_atom_site_fract_x
_atom_site_fract_y
_atom_site_fract_z
Zn1 Zn 0.66319(4) 0.64215(4) 0.03334(8)
O1 O 0.9158(2) 0.6357(3) 0.2171(6)
O2 O 0.5931(3) 0.6646(3) 0.2319(6)
O3 O 0.9299(3) 0.5969(3) 0.3925(6)
O4 O 0.5847(3) 0.6145(3) 0.0545(7)
O5 O 0.4615(3) 0.5452(3) 0.2938(7)
N1 N 0.8047(3) 0.5664(3) 0.2542(7)
H1 H 0.7971 0.5687 0.1713
O6 O 0.7873(3) 0.5740(4) 0.4669(7)
N2 N 0.4718(3) 0.5708(3) 0.0816(8)
H2 H 0.4615 0.5603 0.0001
N3 N 0.6892(3) 0.6359(3) 0.3148(7)
N4 N 0.6953(3) 0.6262(3) 0.1861(7)
N5 N 0.3589(3) 0.3865(3) 0.1446(8)
N6 N 0.3615(3) 0.4017(3) 0.0172(7)
C1 C 0.4131(4) 0.4765(4) 0.1347(8)
C2 C 0.4507(4) 0.5332(4) 0.1763(9)
C3 C 0.7430(4) 0.6003(4) 0.3064(9)
C4 C 0.8432(4) 0.5486(4) 0.2856(9)
H3 H 0.8320 0.5274 0.3695
C5 C 0.7179(4) 0.6205(4) 0.3867(9)
H4 H 0.7208 0.6228 0.4798
C6 C 0.5109(4) 0.6285(4) 0.1055(10)
H5 H 0.5153 0.6468 0.0185
C7 C 0.5668(4) 0.6358(4) 0.1359(8)
C8 C 0.3890(4) 0.4301(4) 0.2148(9)
H6 H 0.3938 0.4303 0.3073
C9 C 0.9005(3) 0.5980(4) 0.3011(8)
C10 C 0.7801(4) 0.5798(4) 0.3492(9)
C11 C 0.3940(4) 0.4559(4) 0.0113(9)
C12 C 0.7270(4) 0.6044(4) 0.1807(9)
H8 H 0.7372 0.5932 0.1027
C13 C 0.8447(4) 0.5131(4) 0.1765(12)
H9 H 0.8076 0.4833 0.1588
H10 H 0.8678 0.4980 0.2032
H11 H 0.8598 0.5352 0.0968
C14 C 0.4905(6) 0.6562(6) 0.1965(15)
H12 H 0.4562 0.6520 0.1623
H13 H 0.5178 0.6951 0.2027
H14 H 0.4842 0.6395 0.2839
Zn3 Zn 0.64563(6) 0.67014(4) 0.36667(8)
Zn4 Zn 0.99490(4) 0.68618(4) 0.19920(8)
Zn5 Zn 0.31382(4) 0.30871(6) 0.19920(8)
Zn6 Zn 0.98048(4) 0.64205(6) 0.53254(8)
Zn2 Zn 0.32823(4) 0.35285(4) 0.86587(8)
H7 H 0.4027 0.4772 0.9333
O7 O 0.2491(2) 0.3024(3) 0.8838(6)
O8 O 0.6687(3) 0.5952(4) 0.8986(6)
O9 O 0.3337(4) 0.4034(3) 0.7258(6)
N7 N 0.6974(3) 0.7200(4) 0.9815(7)
N8 N 0.3609(4) 0.3078(3) 0.8113(8)
Zn1_2 Zn 0.35785(4) 0.02104(6) 0.03334(8)
O1_2 O 0.3643(3) 0.2801(4) 0.2171(6)
O3_2 O 0.4031(3) 0.3330(4) 0.3925(6)
N1_2 N 0.4336(3) 0.2383(4) 0.2542(7)
H1_2 H 0.4313 0.2284 0.1713
O6_2 O 0.4260(4) 0.2133(5) 0.4669(7)
N3_2 N 0.3641(3) 0.0533(4) 0.3148(7)
N4_2 N 0.3738(3) 0.0691(4) 0.1861(7)
C3_2 C 0.3997(4) 0.1427(6) 0.3064(9)
C4_2 C 0.4514(4) 0.2946(6) 0.2856(9)
H3_2 H 0.4726 0.3046 0.3695
C5_2 C 0.3795(4) 0.0974(6) 0.3867(9)
H4_2 H 0.3772 0.0980 0.4798
C9_2 C 0.4020(4) 0.3025(5) 0.3011(8)
C10_2 C 0.4202(4) 0.2003(6) 0.3492(9)
C12_2 C 0.3956(4) 0.1226(6) 0.1807(9)
H8_2 H 0.4068 0.1440 0.1027
C13_2 C 0.4869(4) 0.3316(6) 0.1765(12)
H9_2 H 0.5167 0.3243 0.1588
H10_2 H 0.5020 0.3698 0.2032
H11_2 H 0.4648 0.3246 0.0968
Zn5_2 Zn 0.69129(6) 0.00510(7) 0.19920(8)
Zn6_2 Zn 0.35795(6) 0.33844(7) 0.53254(8)
O8_2 O 0.4048(4) 0.0736(5) 0.8986(6)
N8_2 N 0.6922(3) 0.0532(5) 0.8113(8)
O2_2 O 0.3354(3) 0.9285(4) 0.2319(6)
O4_2 O 0.3855(3) 0.9702(4) 0.0545(7)
O5_2 O 0.4548(3) 0.9163(4) 0.2938(7)
N2_2 N 0.4292(3) 0.9010(4) 0.0816(8)
H2_2 H 0.4397 0.9012 0.0001
N5_2 N 0.6135(3) 0.9724(4) 0.1446(8)
N6_2 N 0.5983(3) 0.9598(4) 0.0172(7)
C1_2 C 0.5235(4) 0.9366(6) 0.1347(8)
C2_2 C 0.4668(4) 0.9175(6) 0.1763(9)
C6_2 C 0.3715(4) 0.8824(6) 0.1055(10)
H5_2 H 0.3532 0.8685 0.0185
C7_2 C 0.3642(4) 0.9310(6) 0.1359(8)
C8_2 C 0.5699(4) 0.9589(6) 0.2148(9)
H6_2 H 0.5697 0.9635 0.3073
C11_2 C 0.5441(4) 0.9381(6) 0.0113(9)
C14_2 C 0.3438(6) 0.8343(8) 0.1965(15)
H12_2 H 0.3480 0.8042 0.1623
H13_2 H 0.3049 0.8227 0.2027
H14_2 H 0.3605 0.8447 0.2839
Zn3_2 Zn 0.32986(4) 0.97548(7) 0.36667(8)
Zn2_2 Zn 0.64715(4) 0.97538(6) 0.86587(8)
H7_2 H 0.5228 0.9255 0.9333
O7_2 O 0.6976(3) 0.9468(4) 0.8838(6)
O9_2 O 0.5966(3) 0.9302(5) 0.7258(6)
N7_2 N 0.2800(4) 0.9775(5) 0.9815(7)
O2_3 O 0.0715(4) 0.4069(3) 0.2319(6)
O4_3 O 0.0298(4) 0.4153(3) 0.0545(7)
O5_3 O 0.0837(4) 0.5385(3) 0.2938(7)
N2_3 N 0.0990(4) 0.5282(3) 0.0816(8)
H2_3 H 0.0988 0.5385 0.0001
N5_3 N 0.0276(4) 0.6411(3) 0.1446(8)
N6_3 N 0.0402(4) 0.6385(3) 0.0172(7)
C1_3 C 0.0634(6) 0.5869(4) 0.1347(8)
C2_3 C 0.0825(6) 0.5493(4) 0.1763(9)
C6_3 C 0.1176(6) 0.4891(4) 0.1055(10)
H5_3 H 0.1315 0.4847 0.0185
C7_3 C 0.0690(6) 0.4332(4) 0.1359(8)
C8_3 C 0.0411(6) 0.6110(4) 0.2148(9)
H6_3 H 0.0365 0.6062 0.3073
C11_3 C 0.0619(6) 0.6060(4) 0.0113(9)
C14_3 C 0.1657(8) 0.5095(6) 0.1965(15)
H12_3 H 0.1958 0.5438 0.1623
H13_3 H 0.1773 0.4822 0.2027
H14_3 H 0.1553 0.5158 0.2839
Zn3_3 Zn 0.02452(7) 0.35437(6) 0.36667(8)
Zn2_3 Zn 0.02462(6) 0.67177(4) 0.86587(8)
H7_3 H 0.0745 0.5973 0.9333
O7_3 O 0.0532(4) 0.7509(2) 0.8838(6)
O9_3 O 0.0698(5) 0.6663(4) 0.7258(6)
N7_3 N 0.0225(5) 0.3026(3) 0.9815(7)
Zn1_3 Zn 0.97896(6) 0.33681(4) 0.03334(8)
O1_3 O 0.7199(4) 0.0842(2) 0.2171(6)
O3_3 O 0.6670(4) 0.0701(3) 0.3925(6)
N1_3 N 0.7617(4) 0.1953(3) 0.2542(7)
H1_3 H 0.7716 0.2029 0.1713
O6_3 O 0.7867(5) 0.2127(3) 0.4669(7)
N3_3 N 0.9467(4) 0.3108(3) 0.3148(7)
N4_3 N 0.9309(4) 0.3047(3) 0.1861(7)
C3_3 C 0.8573(6) 0.2570(4) 0.3064(9)
C4_3 C 0.7054(6) 0.1568(4) 0.2856(9)
H3_3 H 0.6954 0.1680 0.3695
C5_3 C 0.9026(6) 0.2821(4) 0.3867(9)
H4_3 H 0.9020 0.2792 0.4798
C9_3 C 0.6975(5) 0.0995(3) 0.3011(8)
C10_3 C 0.7997(6) 0.2199(4) 0.3492(9)
C12_3 C 0.8774(6) 0.2730(4) 0.1807(9)
H8_3 H 0.8560 0.2628 0.1027
C13_3 C 0.6684(6) 0.1553(4) 0.1765(12)
H9_3 H 0.6757 0.1924 0.1588
H10_3 H 0.6302 0.1322 0.2032
H11_3 H 0.6754 0.1402 0.0968
Zn6_3 Zn 0.66156(7) 0.01952(4) 0.53254(8)
O8_3 O 0.9264(5) 0.3313(3) 0.8986(6)
N8_3 N 0.9468(5) 0.6391(4) 0.8113(8)
H13_4 H 0.1845 0.0284 0.5360
Zn3_4 Zn 0.31229(6) 0.00348(4) 0.70001(8)
O1_4 O 0.5825(2) 0.9690(3) 0.5504(6)
O2_4 O 0.2598(3) 0.9979(3) 0.5652(6)
O4_4 O 0.2514(3) 0.9478(3) 0.3878(7)
O5_4 O 0.1282(3) 0.8785(3) 0.6271(7)
N1_4 N 0.4714(3) 0.8997(3) 0.5875(7)
H1_4 H 0.4638 0.9020 0.5046
O6_4 O 0.4540(3) 0.9073(4) 0.8002(7)
N2_4 N 0.1385(3) 0.9041(3) 0.4149(8)
H2_4 H 0.1282 0.8936 0.3334
N3_4 N 0.3559(3) 0.9692(3) 0.6481(7)
N4_4 N 0.3620(3) 0.9595(3) 0.5194(7)
N5_4 N 0.0256(3) 0.7198(3) 0.4779(8)
N6_4 N 0.0282(3) 0.7350(3) 0.3505(7)
C1_4 C 0.0798(4) 0.8098(4) 0.4680(8)
C2_4 C 0.1174(4) 0.8665(4) 0.5096(9)
C3_4 C 0.4097(4) 0.9336(4) 0.6397(9)
C4_4 C 0.5099(4) 0.8819(4) 0.6189(9)
H3_4 H 0.4987 0.8607 0.7028
C5_4 C 0.3846(4) 0.9538(4) 0.7200(9)
H4_4 H 0.3875 0.9561 0.8131
C6_4 C 0.1776(4) 0.9618(4) 0.4388(10)
H5_4 H 0.1820 0.9801 0.3518
C7_4 C 0.2335(4) 0.9691(4) 0.4692(8)
C8_4 C 0.0557(4) 0.7634(4) 0.5481(9)
H6_4 H 0.0605 0.7636 0.6406
C9_4 C 0.5672(3) 0.9313(4) 0.6344(8)
C10_4 C 0.4468(4) 0.9131(4) 0.6825(9)
C11_4 C 0.0607(4) 0.7892(4) 0.3446(9)
H7_4 H 0.0694 0.8105 0.2666
C12_4 C 0.3937(4) 0.9377(4) 0.5140(9)
H8_4 H 0.4039 0.9265 0.4360
C13_4 C 0.5114(4) 0.8464(4) 0.5098(12)
H9_4 H 0.4743 0.8166 0.4921
H10_4 H 0.5345 0.8313 0.5365
H11_4 H 0.5265 0.8685 0.4301
C14_4 C 0.1572(6) 0.9895(6) 0.5298(15)
H12_4 H 0.1229 0.9853 0.4956
H14_4 H 0.1509 0.9728 0.6172
O9_4 O 0.0003(4) 0.7368(3) 0.0592(6)
O1_5 O 0.0310(3) 0.6134(4) 0.5504(6)
O2_5 O 0.0021(3) 0.2618(4) 0.5652(6)
O4_5 O 0.0522(3) 0.3035(4) 0.3878(7)
O5_5 O 0.1215(3) 0.2496(4) 0.6271(7)
N1_5 N 0.1003(3) 0.5716(4) 0.5875(7)
H1_5 H 0.0980 0.5617 0.5046
O6_5 O 0.0927(4) 0.5466(5) 0.8002(7)
N2_5 N 0.0959(3) 0.2343(4) 0.4149(8)
H2_5 H 0.1064 0.2345 0.3334
N3_5 N 0.0308(3) 0.3866(4) 0.6481(7)
N4_5 N 0.0405(3) 0.4024(4) 0.5194(7)
N5_5 N 0.2802(3) 0.3057(4) 0.4779(8)
N6_5 N 0.2650(3) 0.2931(4) 0.3505(7)
C1_5 C 0.1902(4) 0.2699(6) 0.4680(8)
C2_5 C 0.1335(4) 0.2508(6) 0.5096(9)
C3_5 C 0.0664(4) 0.4760(6) 0.6397(9)
C4_5 C 0.1181(4) 0.6279(6) 0.6189(9)
H3_5 H 0.1393 0.6379 0.7028
C5_5 C 0.0462(4) 0.4307(6) 0.7200(9)
H4_5 H 0.0439 0.4313 0.8131
C6_5 C 0.0382(4) 0.2157(6) 0.4388(10)
H5_5 H 0.0199 0.2018 0.3518
C7_5 C 0.0309(4) 0.2643(6) 0.4692(8)
C8_5 C 0.2366(4) 0.2922(6) 0.5481(9)
H6_5 H 0.2364 0.2968 0.6406
C9_5 C 0.0687(4) 0.6358(5) 0.6344(8)
C10_5 C 0.0869(4) 0.5336(6) 0.6825(9)
C11_5 C 0.2108(4) 0.2714(6) 0.3446(9)
H7_5 H 0.1895 0.2588 0.2666
C12_5 C 0.0623(4) 0.4559(6) 0.5140(9)
H8_5 H 0.0735 0.4773 0.4360
C13_5 C 0.1536(4) 0.6649(6) 0.5098(12)
H9_5 H 0.1834 0.6576 0.4921
H10_5 H 0.1687 0.7031 0.5365
H11_5 H 0.1315 0.6579 0.4301
C14_5 C 0.0105(6) 0.1676(8) 0.5298(15)
H12_5 H 0.0147 0.1375 0.4956
H14_5 H 0.0272 0.1780 0.6172
O9_5 O 0.2632(3) 0.2636(5) 0.0592(6)
H13_5 H 0.9716 0.1560 0.5360
Zn3_5 Zn 0.99652(4) 0.30882(7) 0.70001(8)
O1_6 O 0.3866(4) 0.4175(2) 0.5504(6)
O2_6 O 0.7382(4) 0.7402(3) 0.5652(6)
O4_6 O 0.6965(4) 0.7486(3) 0.3878(7)
O5_6 O 0.7504(4) 0.8718(3) 0.6271(7)
N1_6 N 0.4284(4) 0.5286(3) 0.5875(7)
H1_6 H 0.4383 0.5362 0.5046
O6_6 O 0.4534(5) 0.5460(3) 0.8002(7)
N2_6 N 0.7657(4) 0.8615(3) 0.4149(8)
H2_6 H 0.7655 0.8718 0.3334
N3_6 N 0.6134(4) 0.6441(3) 0.6481(7)
N4_6 N 0.5976(4) 0.6380(3) 0.5194(7)
N5_6 N 0.6943(4) 0.9744(3) 0.4779(8)
N6_6 N 0.7069(4) 0.9718(3) 0.3505(7)
C1_6 C 0.7301(6) 0.9202(4) 0.4680(8)
C2_6 C 0.7492(6) 0.8826(4) 0.5096(9)
C3_6 C 0.5240(6) 0.5903(4) 0.6397(9)
C4_6 C 0.3721(6) 0.4901(4) 0.6189(9)
H3_6 H 0.3621 0.5013 0.7028
C5_6 C 0.5693(6) 0.6154(4) 0.7200(9)
H4_6 H 0.5687 0.6125 0.8131
C6_6 C 0.7843(6) 0.8224(4) 0.4388(10)
H5_6 H 0.7982 0.8180 0.3518
C7_6 C 0.7357(6) 0.7665(4) 0.4692(8)
C8_6 C 0.7078(6) 0.9443(4) 0.5481(9)
H6_6 H 0.7032 0.9395 0.6406
C9_6 C 0.3642(5) 0.4328(3) 0.6344(8)
C10_6 C 0.4664(6) 0.5532(4) 0.6825(9)
C11_6 C 0.7286(6) 0.9393(4) 0.3446(9)
H7_6 H 0.7412 0.9306 0.2666
C12_6 C 0.5441(6) 0.6063(4) 0.5140(9)
H8_6 H 0.5227 0.5961 0.4360
C13_6 C 0.3351(6) 0.4886(4) 0.5098(12)
H9_6 H 0.3424 0.5257 0.4921
H10_6 H 0.2969 0.4655 0.5365
H11_6 H 0.3421 0.4735 0.4301
C14_6 C 0.8324(8) 0.8428(6) 0.5298(15)
H12_6 H 0.8625 0.8771 0.4956
H13_6 H 0.8440 0.8155 0.5360
H14_6 H 0.8220 0.8491 0.6172
Zn3_6 Zn 0.69118(7) 0.68771(6) 0.70001(8)
O9_6 O 0.7364(5) 0.9997(4) 0.0592(6)
O6_7 O 0.1206(3) 0.2407(4) 0.1336(7)
H3_7 H 0.1653 0.1941 0.0362
C5_7 C 0.0512(4) 0.2872(4) 0.0534(9)
H4_7 H 0.0541 0.2895 0.1465
C10_7 C 0.1134(4) 0.2465(4) 0.0159(9)
N1_7 N 0.1380(3) 0.2331(3) 0.9209(7)
H1_7 H 0.1304 0.2354 0.8380
N4_7 N 0.0286(3) 0.2929(3) 0.8528(7)
C3_7 C 0.0763(4) 0.2670(4) 0.9731(9)
C4_7 C 0.1765(4) 0.2153(4) 0.9523(9)
C9_7 C 0.2338(3) 0.2647(4) 0.9678(8)
C12_7 C 0.0603(4) 0.2711(4) 0.8474(9)
H8_7 H 0.0705 0.2599 0.7694
C13_7 C 0.1780(4) 0.1798(4) 0.8432(12)
H9_7 H 0.1409 0.1500 0.8255
H10_7 H 0.2011 0.1647 0.8699
H11_7 H 0.1931 0.2019 0.7635
O4_7 O 0.9180(3) 0.2812(3) 0.7212(7)
O5_7 O 0.7948(3) 0.2119(3) 0.9605(7)
N2_7 N 0.8051(3) 0.2375(3) 0.7483(8)
H2_7 H 0.7948 0.2270 0.6668
N6_7 N 0.6948(3) 0.0684(3) 0.6839(7)
C1_7 C 0.7464(4) 0.1432(4) 0.8014(8)
C2_7 C 0.7840(4) 0.1999(4) 0.8430(9)
C6_7 C 0.8442(4) 0.2952(4) 0.7722(10)
H5_7 H 0.8486 0.3135 0.6852
C7_7 C 0.9001(4) 0.3025(4) 0.8026(8)
C8_7 C 0.7223(4) 0.0968(4) 0.8815(9)
H6_7 H 0.7271 0.0970 0.9740
C11_7 C 0.7273(4) 0.1226(4) 0.6780(9)
H7_7 H 0.7360 0.1439 0.6000
C14_7 C 0.8238(6) 0.3229(6) 0.8632(15)
H12_7 H 0.7895 0.3187 0.8290
H13_7 H 0.8511 0.3618 0.8694
H14_7 H 0.8175 0.3062 0.9506
O6_8 O 0.7593(4) 0.8800(5) 0.1336(7)
H3_8 H 0.8059 0.9713 0.0362
C5_8 C 0.7128(4) 0.7641(6) 0.0534(9)
H4_8 H 0.7105 0.7647 0.1465
C10_8 C 0.7535(4) 0.8670(6) 0.0159(9)
O4_8 O 0.7188(3) 0.6369(4) 0.7212(7)
O5_8 O 0.7881(3) 0.5830(4) 0.9605(7)
N1_8 N 0.7669(3) 0.9050(4) 0.9209(7)
H1_8 H 0.7646 0.8951 0.8380
N2_8 N 0.7625(3) 0.5677(4) 0.7483(8)
H2_8 H 0.7730 0.5679 0.6668
N4_8 N 0.7071(3) 0.7358(4) 0.8528(7)
N6_8 N 0.9316(3) 0.6265(4) 0.6839(7)
C1_8 C 0.8568(4) 0.6033(6) 0.8014(8)
C2_8 C 0.8001(4) 0.5842(6) 0.8430(9)
C3_8 C 0.7330(4) 0.8094(6) 0.9731(9)
C4_8 C 0.7847(4) 0.9613(6) 0.9523(9)
C6_8 C 0.7048(4) 0.5491(6) 0.7722(10)
H5_8 H 0.6865 0.5352 0.6852
C7_8 C 0.6975(4) 0.5977(6) 0.8026(8)
C8_8 C 0.9032(4) 0.6256(6) 0.8815(9)
H6_8 H 0.9030 0.6302 0.9740
C9_8 C 0.7353(4) 0.9692(5) 0.9678(8)
C11_8 C 0.8774(4) 0.6048(6) 0.6780(9)
H7_8 H 0.8561 0.5922 0.6000
C12_8 C 0.7289(4) 0.7893(6) 0.8474(9)
H8_8 H 0.7401 0.8107 0.7694
C13_8 C 0.8202(4) 0.9983(6) 0.8432(12)
H9_8 H 0.8500 0.9910 0.8255
H11_8 H 0.7981 0.9913 0.7635
C14_8 C 0.6771(6) 0.5010(8) 0.8632(15)
H12_8 H 0.6813 0.4709 0.8290
H13_8 H 0.6382 0.4894 0.8694
H14_8 H 0.6938 0.5114 0.9506
O4_9 O 0.3631(4) 0.0820(3) 0.7212(7)
O5_9 O 0.4170(4) 0.2052(3) 0.9605(7)
N2_9 N 0.4323(4) 0.1949(3) 0.7483(8)
H2_9 H 0.4321 0.2052 0.6668
N6_9 N 0.3735(4) 0.3052(3) 0.6839(7)
C1_9 C 0.3967(6) 0.2536(4) 0.8014(8)
C2_9 C 0.4158(6) 0.2160(4) 0.8430(9)
C6_9 C 0.4509(6) 0.1558(4) 0.7722(10)
H5_9 H 0.4648 0.1514 0.6852
C7_9 C 0.4023(6) 0.0999(4) 0.8026(8)
C8_9 C 0.3744(6) 0.2777(4) 0.8815(9)
H6_9 H 0.3698 0.2729 0.9740
C11_9 C 0.3952(6) 0.2727(4) 0.6780(9)
H7_9 H 0.4078 0.2640 0.6000
C14_9 C 0.4990(8) 0.1762(6) 0.8632(15)
H12_9 H 0.5291 0.2105 0.8290
H13_9 H 0.5106 0.1489 0.8694
H14_9 H 0.4886 0.1825 0.9506
O6_9 O 0.1200(5) 0.8794(3) 0.1336(7)
H3_9 H 0.0287 0.8347 0.0362
C5_9 C 0.2359(6) 0.9488(4) 0.0534(9)
H4_9 H 0.2353 0.9459 0.1465
C10_9 C 0.1330(6) 0.8866(4) 0.0159(9)
N1_9 N 0.0950(4) 0.8620(3) 0.9209(7)
H1_9 H 0.1049 0.8696 0.8380
N4_9 N 0.2642(4) 0.9714(3) 0.8528(7)
C3_9 C 0.1906(6) 0.9237(4) 0.9731(9)
C4_9 C 0.0387(6) 0.8235(4) 0.9523(9)
C9_9 C 0.0308(5) 0.7662(3) 0.9678(8)
C12_9 C 0.2107(6) 0.9397(4) 0.8474(9)
H8_9 H 0.1893 0.9295 0.7694
C13_9 C 0.0017(6) 0.8220(4) 0.8432(12)
H9_9 H 0.0090 0.8591 0.8255
H11_9 H 0.0087 0.8069 0.7635
H10_8 H 0.8353 0.0365 0.8699
H10_9 H 0.9635 0.7989 0.8699
loop_
_geom_bond_atom_site_label_1
_geom_bond_atom_site_label_2
_geom_bond_site_symmetry_1
_geom_bond_site_symmetry_2
Zn1 O4 1_555 1_555
O1 C9 1_555 1_555
O2 C7 1_555 1_555
O3 C9 1_555 1_555
O4 C7 1_555 1_555
O5 C2 1_555 1_555
N1 H1 1_555 1_555
O6 C10 1_555 1_555
N2 H2 1_555 1_555
N3 N4 1_555 1_555
N4 Zn1 1_555 1_555
N5 N6 1_555 1_555
N6 C11 1_555 1_555
C1 C2 1_555 1_555
C2 N2 1_555 1_555
C3 C5 1_555 1_555
C4 N1 1_555 1_555
H3 C4 1_555 1_555
C5 N3 1_555 1_555
H4 C5 1_555 1_555
C6 N2 1_555 1_555
H5 C6 1_555 1_555
C7 C6 1_555 1_555
C8 N5 1_555 1_555
H6 C8 1_555 1_555
C9 C4 1_555 1_555
C10 N1 1_555 1_555
C11 C1 1_555 1_555
C12 N4 1_555 1_555
H8 C12 1_555 1_555
C13 C4 1_555 1_555
H9 C13 1_555 1_555
H10 C13 1_555 1_555
H11 C13 1_555 1_555
C14 C6 1_555 1_555
H12 C14 1_555 1_555
H13 C14 1_555 1_555
H14 C14 1_555 1_555
Zn3 O2 1_555 1_555
Zn4 O1 1_555 1_555
Zn5 N5 1_555 1_555
Zn6 O3 1_555 1_555
N3 Zn3 1_555 1_555
C1 C8 1_555 1_555
C3 C10 1_555 1_555
C3 C12 1_555 1_555
O7 Zn2 1_555 1_555
O9 Zn2 1_555 1_555
N8 Zn2 1_555 1_555
O1_2 C9_2 1_555 1_555
O3_2 C9_2 1_555 1_555
N1_2 H1_2 1_555 1_555
O6_2 C10_2 1_555 1_555
N3_2 N4_2 1_555 1_555
N4_2 Zn1_2 1_555 1_555
C3_2 C5_2 1_555 1_555
C4_2 N1_2 1_555 1_555
H3_2 C4_2 1_555 1_555
C5_2 N3_2 1_555 1_555
H4_2 C5_2 1_555 1_555
C9_2 C4_2 1_555 1_555
C10_2 N1_2 1_555 1_555
C12_2 N4_2 1_555 1_555
H8_2 C12_2 1_555 1_555
C13_2 C4_2 1_555 1_555
H9_2 C13_2 1_555 1_555
H10_2 C13_2 1_555 1_555
H11_2 C13_2 1_555 1_555
Zn5 O1_2 1_555 1_555
Zn6_2 O3_2 1_555 1_555
C3_2 C10_2 1_555 1_555
C3_2 C12_2 1_555 1_555
O2_2 C7_2 1_555 1_555
O4_2 C7_2 1_555 1_555
O5_2 C2_2 1_555 1_555
N2_2 H2_2 1_555 1_555
N5_2 N6_2 1_555 1_555
N6_2 C11_2 1_555 1_555
C1_2 C2_2 1_555 1_555
C2_2 N2_2 1_555 1_555
C6_2 N2_2 1_555 1_555
H5_2 C6_2 1_555 1_555
C7_2 C6_2 1_555 1_555
C8_2 N5_2 1_555 1_555
H6_2 C8_2 1_555 1_555
C11_2 C1_2 1_555 1_555
C14_2 C6_2 1_555 1_555
H12_2 C14_2 1_555 1_555
H13_2 C14_2 1_555 1_555
H14_2 C14_2 1_555 1_555
Zn3_2 O2_2 1_555 1_555
C1_2 C8_2 1_555 1_555
O7_2 Zn2_2 1_555 1_555
O9_2 Zn2_2 1_555 1_555
O2_3 C7_3 1_555 1_555
O4_3 C7_3 1_555 1_555
O5_3 C2_3 1_555 1_555
N2_3 H2_3 1_555 1_555
N5_3 N6_3 1_555 1_555
N6_3 C11_3 1_555 1_555
C1_3 C2_3 1_555 1_555
C2_3 N2_3 1_555 1_555
C6_3 N2_3 1_555 1_555
H5_3 C6_3 1_555 1_555
C7_3 C6_3 1_555 1_555
C8_3 N5_3 1_555 1_555
H6_3 C8_3 1_555 1_555
C11_3 C1_3 1_555 1_555
C14_3 C6_3 1_555 1_555
H12_3 C14_3 1_555 1_555
H13_3 C14_3 1_555 1_555
H14_3 C14_3 1_555 1_555
Zn3_3 O2_3 1_555 1_555
C1_3 C8_3 1_555 1_555
O7_3 Zn2_3 1_555 1_555
O9_3 Zn2_3 1_555 1_555
O1_3 C9_3 1_555 1_555
O3_3 C9_3 1_555 1_555
N1_3 H1_3 1_555 1_555
O6_3 C10_3 1_555 1_555
N3_3 N4_3 1_555 1_555
N4_3 Zn1_3 1_555 1_555
C3_3 C5_3 1_555 1_555
C4_3 N1_3 1_555 1_555
H3_3 C4_3 1_555 1_555
C5_3 N3_3 1_555 1_555
H4_3 C5_3 1_555 1_555
C9_3 C4_3 1_555 1_555
C10_3 N1_3 1_555 1_555
C12_3 N4_3 1_555 1_555
H8_3 C12_3 1_555 1_555
C13_3 C4_3 1_555 1_555
H9_3 C13_3 1_555 1_555
H10_3 C13_3 1_555 1_555
H11_3 C13_3 1_555 1_555
Zn5_2 O1_3 1_555 1_555
Zn6_3 O3_3 1_555 1_555
C3_3 C10_3 1_555 1_555
C3_3 C12_3 1_555 1_555
Zn3_2 O4_4 1_555 1_555
O1_4 C9_4 1_555 1_555
O2_4 C7_4 1_555 1_555
O9_2 C9_4 1_555 1_555
O4_4 C7_4 1_555 1_555
O5_4 C2_4 1_555 1_555
N1_4 H1_4 1_555 1_555
O6_4 C10_4 1_555 1_555
N2_4 H2_4 1_555 1_555
N3_4 N4_4 1_555 1_555
N4_4 Zn3_2 1_555 1_555
N5_4 N6_4 1_555 1_555
N6_4 C11_4 1_555 1_555
C1_4 C2_4 1_555 1_555
C2_4 N2_4 1_555 1_555
C3_4 C5_4 1_555 1_555
C4_4 N1_4 1_555 1_555
H3_4 C4_4 1_555 1_555
C5_4 N3_4 1_555 1_555
H4_4 C5_4 1_555 1_555
C6_4 N2_4 1_555 1_555
H5_4 C6_4 1_555 1_555
C7_4 C6_4 1_555 1_555
C8_4 N5_4 1_555 1_555
H6_4 C8_4 1_555 1_555
C9_4 C4_4 1_555 1_555
C10_4 N1_4 1_555 1_555
C11_4 C1_4 1_555 1_555
H7_4 C11_4 1_555 1_555
C12_4 N4_4 1_555 1_555
H8_4 C12_4 1_555 1_555
C13_4 C4_4 1_555 1_555
H9_4 C13_4 1_555 1_555
H10_4 C13_4 1_555 1_555
H11_4 C13_4 1_555 1_555
C14_4 C6_4 1_555 1_555
H12_4 C14_4 1_555 1_555
H14_4 C14_4 1_555 1_555
C1_4 C8_4 1_555 1_555
C3_4 C10_4 1_555 1_555
C3_4 C12_4 1_555 1_555
Zn3_3 O4_5 1_555 1_555
Zn5 N6_5 1_555 1_555
O1_5 C9_5 1_555 1_555
O2_5 C7_5 1_555 1_555
O9_3 C9_5 1_555 1_555
O4_5 C7_5 1_555 1_555
O5_5 C2_5 1_555 1_555
N1_5 H1_5 1_555 1_555
O6_5 C10_5 1_555 1_555
N2_5 H2_5 1_555 1_555
N3_5 N4_5 1_555 1_555
N4_5 Zn3_3 1_555 1_555
N5_5 N6_5 1_555 1_555
N6_5 C11_5 1_555 1_555
C1_5 C2_5 1_555 1_555
C2_5 N2_5 1_555 1_555
C3_5 C5_5 1_555 1_555
C4_5 N1_5 1_555 1_555
H3_5 C4_5 1_555 1_555
C5_5 N3_5 1_555 1_555
H4_5 C5_5 1_555 1_555
C6_5 N2_5 1_555 1_555
H5_5 C6_5 1_555 1_555
C7_5 C6_5 1_555 1_555
C8_5 N5_5 1_555 1_555
H6_5 C8_5 1_555 1_555
C9_5 C4_5 1_555 1_555
C10_5 N1_5 1_555 1_555
C11_5 C1_5 1_555 1_555
H7_5 C11_5 1_555 1_555
C12_5 N4_5 1_555 1_555
H8_5 C12_5 1_555 1_555
C13_5 C4_5 1_555 1_555
H9_5 C13_5 1_555 1_555
H10_5 C13_5 1_555 1_555
H11_5 C13_5 1_555 1_555
C14_5 C6_5 1_555 1_555
H12_5 C14_5 1_555 1_555
H14_5 C14_5 1_555 1_555
Zn6_2 N5_5 1_555 1_555
O9_5 Zn5 1_555 1_555
C1_5 C8_5 1_555 1_555
C3_5 C10_5 1_555 1_555
C3_5 C12_5 1_555 1_555
Zn3 O4_6 1_555 1_555
O1_6 C9_6 1_555 1_555
O2_6 C7_6 1_555 1_555
O9 C9_6 1_555 1_555
O4_6 C7_6 1_555 1_555
O5_6 C2_6 1_555 1_555
N1_6 H1_6 1_555 1_555
O6_6 C10_6 1_555 1_555
N2_6 H2_6 1_555 1_555
N3_6 N4_6 1_555 1_555
N4_6 Zn3 1_555 1_555
N5_6 N6_6 1_555 1_555
N6_6 C11_6 1_555 1_555
C1_6 C2_6 1_555 1_555
C2_6 N2_6 1_555 1_555
C3_6 C5_6 1_555 1_555
C4_6 N1_6 1_555 1_555
H3_6 C4_6 1_555 1_555
C5_6 N3_6 1_555 1_555
H4_6 C5_6 1_555 1_555
C6_6 N2_6 1_555 1_555
H5_6 C6_6 1_555 1_555
C7_6 C6_6 1_555 1_555
C8_6 N5_6 1_555 1_555
H6_6 C8_6 1_555 1_555
C9_6 C4_6 1_555 1_555
C10_6 N1_6 1_555 1_555
C11_6 C1_6 1_555 1_555
H7_6 C11_6 1_555 1_555
C12_6 N4_6 1_555 1_555
H8_6 C12_6 1_555 1_555
C13_6 C4_6 1_555 1_555
H9_6 C13_6 1_555 1_555
H10_6 C13_6 1_555 1_555
H11_6 C13_6 1_555 1_555
C14_6 C6_6 1_555 1_555
H12_6 C14_6 1_555 1_555
H13_6 C14_6 1_555 1_555
H14_6 C14_6 1_555 1_555
Zn3_6 O2_6 1_555 1_555
Zn6_2 O1_6 1_555 1_555
N3_6 Zn3_6 1_555 1_555
C1_6 C8_6 1_555 1_555
C3_6 C10_6 1_555 1_555
C3_6 C12_6 1_555 1_555
O6_7 C10_7 1_555 1_555
H4_7 C5_7 1_555 1_555
O7 C9_7 1_555 1_555
N1_7 H1_7 1_555 1_555
N7_3 N4_7 1_555 1_555
C4_7 N1_7 1_555 1_555
C9_7 C4_7 1_555 1_555
C12_7 N4_7 1_555 1_555
H8_7 C12_7 1_555 1_555
C13_7 C4_7 1_555 1_555
H9_7 C13_7 1_555 1_555
H10_7 C13_7 1_555 1_555
H11_7 C13_7 1_555 1_555
C3_7 C12_7 1_555 1_555
Zn3_5 O4_7 1_555 1_555
Zn6_3 N6_7 1_555 1_555
O8_3 C7_7 1_555 1_555
O4_7 C7_7 1_555 1_555
O5_7 C2_7 1_555 1_555
N2_7 H2_7 1_555 1_555
N8_2 N6_7 1_555 1_555
N6_7 C11_7 1_555 1_555
C1_7 C2_7 1_555 1_555
C2_7 N2_7 1_555 1_555
C6_7 N2_7 1_555 1_555
H5_7 C6_7 1_555 1_555
C7_7 C6_7 1_555 1_555
C8_7 N8_2 1_555 1_555
H6_7 C8_7 1_555 1_555
C11_7 C1_7 1_555 1_555
H7_7 C11_7 1_555 1_555
C14_7 C6_7 1_555 1_555
H12_7 C14_7 1_555 1_555
H13_7 C14_7 1_555 1_555
H14_7 C14_7 1_555 1_555
C1_7 C8_7 1_555 1_555
O6_8 C10_8 1_555 1_555
H4_8 C5_8 1_555 1_555
Zn3_6 O4_8 1_555 1_555
Zn6 N6_8 1_555 1_555
O7_2 C9_8 1_555 1_555
O8 C7_8 1_555 1_555
O4_8 C7_8 1_555 1_555
O5_8 C2_8 1_555 1_555
N1_8 H1_8 1_555 1_555
N2_8 H2_8 1_555 1_555
N7 N4_8 1_555 1_555
N4_8 Zn3_6 1_555 1_555
N8_3 N6_8 1_555 1_555
N6_8 C11_8 1_555 1_555
C1_8 C2_8 1_555 1_555
C2_8 N2_8 1_555 1_555
C4_8 N1_8 1_555 1_555
C6_8 N2_8 1_555 1_555
H5_8 C6_8 1_555 1_555
C7_8 C6_8 1_555 1_555
C8_8 N8_3 1_555 1_555
H6_8 C8_8 1_555 1_555
C9_8 C4_8 1_555 1_555
C11_8 C1_8 1_555 1_555
H7_8 C11_8 1_555 1_555
C12_8 N4_8 1_555 1_555
H8_8 C12_8 1_555 1_555
C13_8 C4_8 1_555 1_555
H9_8 C13_8 1_555 1_555
H11_8 C13_8 1_555 1_555
C14_8 C6_8 1_555 1_555
H12_8 C14_8 1_555 1_555
H13_8 C14_8 1_555 1_555
H14_8 C14_8 1_555 1_555
C1_8 C8_8 1_555 1_555
C3_8 C12_8 1_555 1_555
Zn3_4 O4_9 1_555 1_555
Zn6_2 N6_9 1_555 1_555
O8_2 C7_9 1_555 1_555
O4_9 C7_9 1_555 1_555
O5_9 C2_9 1_555 1_555
N2_9 H2_9 1_555 1_555
N8 N6_9 1_555 1_555
N6_9 C11_9 1_555 1_555
C1_9 C2_9 1_555 1_555
C2_9 N2_9 1_555 1_555
C6_9 N2_9 1_555 1_555
H5_9 C6_9 1_555 1_555
C7_9 C6_9 1_555 1_555
C8_9 N8 1_555 1_555
H6_9 C8_9 1_555 1_555
C11_9 C1_9 1_555 1_555
H7_9 C11_9 1_555 1_555
C14_9 C6_9 1_555 1_555
H12_9 C14_9 1_555 1_555
H13_9 C14_9 1_555 1_555
H14_9 C14_9 1_555 1_555
C1_9 C8_9 1_555 1_555
O6_9 C10_9 1_555 1_555
H4_9 C5_9 1_555 1_555
O7_3 C9_9 1_555 1_555
N1_9 H1_9 1_555 1_555
N7_2 N4_9 1_555 1_555
C4_9 N1_9 1_555 1_555
C9_9 C4_9 1_555 1_555
C12_9 N4_9 1_555 1_555
H8_9 C12_9 1_555 1_555
C13_9 C4_9 1_555 1_555
H9_9 C13_9 1_555 1_555
H11_9 C13_9 1_555 1_555
C3_9 C12_9 1_555 1_555

#END
