
###############################################################################
#
# This file contains modified crystal structure data generated from the
# MOF subset of the Cambridge Structural Database (CSD) v543 
# hosted by the Cambridge Crystallographic Data Centre (CCDC).
#
# This work is licensed under the Creative Commons
# Attribution-NonCommercial-ShareAlike 4.0 International License.
# To view a copy of this license, visit
# http://creativecommons.org/licenses/by-nc-sa/4.0/
# or send a letter to
# Creative Commons, PO Box 1866, Mountain View, CA 94042, USA.
#
# CIF created using the CSD Python API on 29 September 2022
# The structure has been converted into the P1 space group
# The structure has a 3D framework
# The original CSD entry VUWXET is in the rhombohedral crystal system
# The framework has been calculated to contain at least 10.0% void space
# The void calculation uses a probe of radius 1.32A, grid spacing 0.4
#
###############################################################################

data_VUWXET
_chemical_formula_moiety         '(C111 H90 N54 O54 Zn15)n'
_symmetry_cell_setting           triclinic
_symmetry_space_group_name_H-M   'P 1'
_symmetry_Int_Tables_number      1
_space_group_name_Hall           'P 1'
loop_
_symmetry_equiv_pos_site_id
_symmetry_equiv_pos_as_xyz
1 x,y,z
_cell_length_a                   27.0471(11)
_cell_length_b                   27.0471(11)
_cell_length_c                   10.1495(4)
_cell_angle_alpha                90
_cell_angle_beta                 90
_cell_angle_gamma                120
_cell_volume                     6430.08
loop_
_atom_site_label
_atom_site_type_symbol
_atom_site_fract_x
_atom_site_fract_y
_atom_site_fract_z
Zn1 Zn 0.64760(4) 0.67461(4) 0.51904(10)
N1 N 0.3552(4) 0.4048(4) 0.1706(7)
O1 O 0.5980(3) 0.6768(3) 0.3794(6)
O2 O 0.4460(3) 0.5543(3) 0.4554(6)
N2 N 0.4633(4) 0.5817(4) 0.2428(8)
H1 H 0.4529 0.5730 0.1600
N3 N 0.3509(4) 0.3882(6) 0.2987(8)
O3 O 0.5783(3) 0.6179(4) 0.2079(6)
C1 C 0.4382(5) 0.5418(5) 0.3362(9)
C2 C 0.5642(4) 0.6443(4) 0.2898(9)
C3 C 0.3850(4) 0.4602(4) 0.1666(9)
H2 H 0.3943 0.4824 0.0883
C4 C 0.5069(4) 0.6385(4) 0.2756(9)
H3 H 0.4966 0.6499 0.3593
H4 H 0.5086 0.6650 0.2061
C5 C 0.4014(4) 0.4828(4) 0.2931(9)
C6 C 0.3779(4) 0.4344(6) 0.3719(9)
H5 H 0.3808 0.4346 0.4652
Zn2 Zn 0.32539(4) 0.35240(4) 0.01904(10)
Zn3 Zn 0.31427(4) 0.30632(6) 0.35237(10)
Zn4 Zn 0.65872(4) 0.63966(6) 0.18571(10)
N4 N 0.5952(4) 0.6448(4) 0.6706(7)
N5 N 0.6842(4) 0.6294(7) 0.4654(8)
O4 O 0.7063(5) 0.7550(3) 0.5412(6)
Zn3_2 Zn 0.69368(6) 0.00794(7) 0.35237(10)
Zn4_2 Zn 0.36034(6) 0.01907(7) 0.18571(10)
N5_2 N 0.3706(7) 0.0549(8) 0.4654(8)
Zn1_2 Zn 0.32539(4) 0.97299(6) 0.51904(10)
N1_2 N 0.5952(4) 0.9504(6) 0.1706(7)
O1_2 O 0.3232(3) 0.9212(4) 0.3794(6)
O2_2 O 0.4457(3) 0.8917(4) 0.4554(6)
N2_2 N 0.4183(4) 0.8816(6) 0.2428(8)
H1_2 H 0.4270 0.8799 0.1600
N3_2 N 0.6118(6) 0.9627(7) 0.2987(8)
O3_2 O 0.3821(4) 0.9604(5) 0.2079(6)
C1_2 C 0.4582(5) 0.8964(7) 0.3362(9)
C2_2 C 0.3557(4) 0.9199(6) 0.2898(9)
C3_2 C 0.5398(4) 0.9248(6) 0.1666(9)
H2_2 H 0.5176 0.9119 0.0883
C4_2 C 0.3615(4) 0.8684(6) 0.2756(9)
H3_2 H 0.3501 0.8467 0.3593
H4_2 H 0.3350 0.8436 0.2061
C5_2 C 0.5172(4) 0.9186(6) 0.2931(9)
C6_2 C 0.5656(6) 0.9435(7) 0.3719(9)
H5_2 H 0.5654 0.9462 0.4652
Zn2_2 Zn 0.64760(4) 0.97299(6) 0.01904(10)
N4_2 N 0.3552(4) 0.9504(6) 0.6706(7)
O4_2 O 0.2450(3) 0.9512(6) 0.5412(6)
Zn1_3 Zn 0.02701(6) 0.35240(4) 0.51904(10)
N1_3 N 0.0496(6) 0.6448(4) 0.1706(7)
O1_3 O 0.0788(4) 0.4020(3) 0.3794(6)
O2_3 O 0.1083(4) 0.5540(3) 0.4554(6)
N2_3 N 0.1184(6) 0.5367(4) 0.2428(8)
H1_3 H 0.1201 0.5471 0.1600
N3_3 N 0.0373(7) 0.6491(4) 0.2987(8)
O3_3 O 0.0396(5) 0.4217(3) 0.2079(6)
C1_3 C 0.1036(7) 0.5618(5) 0.3362(9)
C2_3 C 0.0801(6) 0.4358(4) 0.2898(9)
C3_3 C 0.0752(6) 0.6150(4) 0.1666(9)
H2_3 H 0.0881 0.6057 0.0883
C4_3 C 0.1316(6) 0.4931(4) 0.2756(9)
H3_3 H 0.1533 0.5034 0.3593
H4_3 H 0.1564 0.4914 0.2061
C5_3 C 0.0814(6) 0.5986(4) 0.2931(9)
C6_3 C 0.0565(7) 0.6221(4) 0.3719(9)
H5_3 H 0.0538 0.6192 0.4652
Zn2_3 Zn 0.02701(6) 0.67461(4) 0.01904(10)
N4_3 N 0.0496(6) 0.4048(4) 0.6706(7)
O4_3 O 0.0488(6) 0.2937(5) 0.5412(6)
Zn3_3 Zn 0.99206(7) 0.68573(4) 0.35237(10)
Zn4_3 Zn 0.98093(7) 0.34128(4) 0.18571(10)
N5_3 N 0.9451(8) 0.3158(4) 0.4654(8)
O4_4 O 0.0488(6) 0.7550(3) 0.0412(6)
O1_4 O 0.0788(4) 0.6768(3) 0.8794(6)
O2_4 O 0.1083(4) 0.5543(3) 0.9554(6)
N2_4 N 0.1184(6) 0.5817(4) 0.7428(8)
H1_4 H 0.1201 0.5730 0.6600
N3_4 N 0.0373(7) 0.3882(6) 0.7987(8)
O3_4 O 0.0396(5) 0.6179(4) 0.7079(6)
C1_4 C 0.1036(7) 0.5418(5) 0.8362(9)
C2_4 C 0.0801(6) 0.6443(4) 0.7898(9)
C3_4 C 0.0752(6) 0.4602(4) 0.6666(9)
H2_4 H 0.0881 0.4824 0.5883
C4_4 C 0.1316(6) 0.6385(4) 0.7756(9)
H3_4 H 0.1533 0.6499 0.8593
H4_4 H 0.1564 0.6650 0.7061
C5_4 C 0.0814(6) 0.4828(4) 0.7931(9)
C6_4 C 0.0565(7) 0.4344(6) 0.8719(9)
H5_4 H 0.0538 0.4346 0.9652
Zn3_4 Zn 0.99206(7) 0.30632(6) 0.85237(10)
Zn4_4 Zn 0.98093(7) 0.63966(6) 0.68571(10)
N5_4 N 0.9451(8) 0.6294(7) 0.9654(8)
Zn3_5 Zn 0.31427(4) 0.00794(7) 0.85237(10)
Zn4_5 Zn 0.65872(4) 0.01907(7) 0.68571(10)
N5_5 N 0.6842(4) 0.0549(8) 0.9654(8)
O4_5 O 0.7063(5) 0.9512(6) 0.0412(6)
O1_5 O 0.5980(3) 0.9212(4) 0.8794(6)
O2_5 O 0.4460(3) 0.8917(4) 0.9554(6)
N2_5 N 0.4633(4) 0.8816(6) 0.7428(8)
H1_5 H 0.4529 0.8799 0.6600
N3_5 N 0.3509(4) 0.9627(7) 0.7987(8)
O3_5 O 0.5783(3) 0.9604(5) 0.7079(6)
C1_5 C 0.4382(5) 0.8964(7) 0.8362(9)
C2_5 C 0.5642(4) 0.9199(6) 0.7898(9)
C3_5 C 0.3850(4) 0.9248(6) 0.6666(9)
H2_5 H 0.3943 0.9119 0.5883
C4_5 C 0.5069(4) 0.8684(6) 0.7756(9)
H3_5 H 0.4966 0.8467 0.8593
H4_5 H 0.5086 0.8436 0.7061
C5_5 C 0.4014(4) 0.9186(6) 0.7931(9)
C6_5 C 0.3779(4) 0.9435(7) 0.8719(9)
H5_5 H 0.3808 0.9462 0.9652
O4_6 O 0.2450(3) 0.2937(5) 0.0412(6)
O1_6 O 0.3232(3) 0.4020(3) 0.8794(6)
O2_6 O 0.4457(3) 0.5540(3) 0.9554(6)
N2_6 N 0.4183(4) 0.5367(4) 0.7428(8)
H1_6 H 0.4270 0.5471 0.6600
N3_6 N 0.6118(6) 0.6491(4) 0.7987(8)
O3_6 O 0.3821(4) 0.4217(3) 0.7079(6)
C1_6 C 0.4582(5) 0.5618(5) 0.8362(9)
C2_6 C 0.3557(4) 0.4358(4) 0.7898(9)
C3_6 C 0.5398(4) 0.6150(4) 0.6666(9)
H2_6 H 0.5176 0.6057 0.5883
C4_6 C 0.3615(4) 0.4931(4) 0.7756(9)
H3_6 H 0.3501 0.5034 0.8593
H4_6 H 0.3350 0.4914 0.7061
C5_6 C 0.5172(4) 0.5986(4) 0.7931(9)
C6_6 C 0.5656(6) 0.6221(4) 0.8719(9)
H5_6 H 0.5654 0.6192 0.9652
Zn3_6 Zn 0.69368(6) 0.68573(4) 0.85237(10)
Zn4_6 Zn 0.36034(6) 0.34128(4) 0.68571(10)
N5_6 N 0.3706(7) 0.3158(4) 0.9654(8)
O1_7 O 0.2647(3) 0.0101(3) 0.7127(6)
O4_7 O 0.3729(5) 0.0884(3) 0.8746(6)
N4_4 N 0.2619(4) 0.9781(4) 0.0039(7)
N1_4 N 0.0219(4) 0.7381(4) 0.5039(7)
O2_7 O 0.1127(3) 0.8876(3) 0.7887(6)
N2_7 N 0.1300(4) 0.9150(4) 0.5761(8)
H1_7 H 0.1196 0.9063 0.4933
N3_7 N 0.0176(4) 0.7215(6) 0.6320(8)
C1_7 C 0.1049(5) 0.8751(5) 0.6695(9)
C2_7 C 0.2309(4) 0.9776(4) 0.6231(9)
C3_7 C 0.0517(4) 0.7935(4) 0.4999(9)
H2_7 H 0.0610 0.8157 0.4216
C4_7 C 0.1736(4) 0.9718(4) 0.6089(9)
H3_7 H 0.1633 0.9832 0.6926
H4_7 H 0.1753 0.9983 0.5394
C5_7 C 0.0681(4) 0.8161(4) 0.6264(9)
C6_7 C 0.0446(4) 0.7677(6) 0.7052(9)
H5_7 H 0.0475 0.7679 0.7985
N4_5 N 0.0219(4) 0.2837(6) 0.0039(7)
N1_5 N 0.2619(4) 0.2837(6) 0.5039(7)
O2_8 O 0.1124(3) 0.2250(4) 0.7887(6)
N2_8 N 0.0850(4) 0.2149(6) 0.5761(8)
H1_8 H 0.0937 0.2132 0.4933
N3_8 N 0.2785(6) 0.2960(7) 0.6320(8)
C1_8 C 0.1249(5) 0.2297(7) 0.6695(9)
C2_8 C 0.0224(4) 0.2532(6) 0.6231(9)
C3_8 C 0.2065(4) 0.2581(6) 0.4999(9)
H2_8 H 0.1843 0.2452 0.4216
C4_8 C 0.0282(4) 0.2017(6) 0.6089(9)
H3_8 H 0.0168 0.1800 0.6926
H4_8 H 0.0017 0.1769 0.5394
C5_8 C 0.1839(4) 0.2519(6) 0.6264(9)
C6_8 C 0.2323(6) 0.2768(7) 0.7052(9)
H5_8 H 0.2321 0.2795 0.7985
O1_8 O 0.9899(3) 0.2545(4) 0.7127(6)
O4_8 O 0.9116(3) 0.2846(6) 0.8746(6)
N4_6 N 0.7163(6) 0.7381(4) 0.0039(7)
N1_6 N 0.7163(6) 0.9781(4) 0.5039(7)
O1_9 O 0.7455(4) 0.7353(3) 0.7127(6)
O2_9 O 0.7750(4) 0.8873(3) 0.7887(6)
N2_9 N 0.7851(6) 0.8700(4) 0.5761(8)
H1_9 H 0.7868 0.8804 0.4933
N3_9 N 0.7040(7) 0.9824(4) 0.6320(8)
C1_9 C 0.7703(7) 0.8951(5) 0.6695(9)
C2_9 C 0.7468(6) 0.7691(4) 0.6231(9)
C3_9 C 0.7419(6) 0.9483(4) 0.4999(9)
H2_9 H 0.7548 0.9390 0.4216
C4_9 C 0.7983(6) 0.8264(4) 0.6089(9)
H3_9 H 0.8200 0.8367 0.6926
H4_9 H 0.8231 0.8247 0.5394
C5_9 C 0.7481(6) 0.9319(4) 0.6264(9)
C6_9 C 0.7232(7) 0.9554(4) 0.7052(9)
H5_9 H 0.7205 0.9525 0.7985
O4_9 O 0.7154(6) 0.6271(5) 0.8746(6)
O1_10 O 0.7455(4) 0.0101(3) 0.2127(6)
O4_10 O 0.7154(6) 0.0884(3) 0.3746(6)
O2_10 O 0.7750(4) 0.8876(3) 0.2887(6)
N2_10 N 0.7851(6) 0.9150(4) 0.0761(8)
N3_10 N 0.7040(7) 0.7215(6) 0.1320(8)
C1_10 C 0.7703(7) 0.8751(5) 0.1695(9)
C2_10 C 0.7468(6) 0.9776(4) 0.1231(9)
C3_10 C 0.7419(6) 0.7935(4) -0.0001(9)
C4_10 C 0.7983(6) 0.9718(4) 0.1089(9)
H3_10 H 0.8200 0.9832 0.1926
H4_10 H 0.8231 0.9983 0.0394
C5_10 C 0.7481(6) 0.8161(4) 0.1264(9)
C6_10 C 0.7232(7) 0.7677(6) 0.2052(9)
H5_10 H 0.7205 0.7679 0.2985
H1_10 H 0.7868 0.9063 0.9933
C3_11 C 0.7419(6) 0.7935(4) 0.9999(9)
H2_10 H 0.7548 0.8157 0.9216
O1_11 O 0.2647(3) 0.2545(4) 0.2127(6)
O2_11 O 0.1127(3) 0.2250(4) 0.2887(6)
N2_11 N 0.1300(4) 0.2149(6) 0.0761(8)
N3_11 N 0.0176(4) 0.2960(7) 0.1320(8)
C1_11 C 0.1049(5) 0.2297(7) 0.1695(9)
C2_11 C 0.2309(4) 0.2532(6) 0.1231(9)
C3_12 C 0.0517(4) 0.2581(6) -0.0001(9)
C4_11 C 0.1736(4) 0.2017(6) 0.1089(9)
H3_11 H 0.1633 0.1800 0.1926
H4_11 H 0.1753 0.1769 0.0394
C5_11 C 0.0681(4) 0.2519(6) 0.1264(9)
C6_11 C 0.0446(4) 0.2768(7) 0.2052(9)
H5_11 H 0.0475 0.2795 0.2985
O4_11 O 0.3729(5) 0.2846(6) 0.3746(6)
O2_12 O 0.1124(3) 0.8873(3) 0.2887(6)
N2_12 N 0.0850(4) 0.8700(4) 0.0761(8)
N3_12 N 0.2785(6) 0.9824(4) 0.1320(8)
C1_12 C 0.1249(5) 0.8951(5) 0.1695(9)
C2_12 C 0.0224(4) 0.7691(4) 0.1231(9)
C3_13 C 0.2065(4) 0.9483(4) -0.0001(9)
C4_12 C 0.0282(4) 0.8264(4) 0.1089(9)
H3_12 H 0.0168 0.8367 0.1926
H4_12 H 0.0017 0.8247 0.0394
C5_12 C 0.1839(4) 0.9319(4) 0.1264(9)
C6_12 C 0.2323(6) 0.9554(4) 0.2052(9)
H5_12 H 0.2321 0.9525 0.2985
O1_12 O 0.9899(3) 0.7353(3) 0.2127(6)
O4_12 O 0.9116(3) 0.6271(5) 0.3746(6)
O1_13 O 0.9313(3) 0.3435(3) 0.0461(6)
O2_13 O 0.7793(3) 0.2210(3) 0.1221(6)
C1_13 C 0.7715(5) 0.2085(5) 0.0029(9)
H3_13 H 0.8299 0.3166 0.0260
C6_13 C 0.7112(4) 0.1011(6) 0.0386(9)
H5_13 H 0.7141 0.1013 0.1319
N4_7 N 0.9285(4) 0.3115(4) 0.3373(7)
N1_7 N 0.6885(4) 0.0715(4) 0.8373(7)
N2_13 N 0.7966(4) 0.2484(4) 0.9095(8)
H1_11 H 0.7862 0.2397 0.8267
C2_13 C 0.8975(4) 0.3110(4) 0.9565(9)
C3_14 C 0.7183(4) 0.1269(4) 0.8333(9)
H2_11 H 0.7276 0.1491 0.7550
C4_13 C 0.8402(4) 0.3052(4) 0.9423(9)
H4_13 H 0.8419 0.3317 0.8728
C5_13 C 0.7347(4) 0.1495(4) 0.9598(9)
O1_14 O 0.6565(3) 0.5879(4) 0.0461(6)
O2_14 O 0.7790(3) 0.5584(4) 0.1221(6)
C1_14 C 0.7915(5) 0.5631(7) 0.0029(9)
H3_14 H 0.6834 0.5134 0.0260
C6_14 C 0.8989(6) 0.6102(7) 0.0386(9)
H5_14 H 0.8987 0.6129 0.1319
N4_8 N 0.6885(4) 0.6171(6) 0.3373(7)
N1_8 N 0.9285(4) 0.6171(6) 0.8373(7)
N2_14 N 0.7516(4) 0.5483(6) 0.9095(8)
H1_12 H 0.7603 0.5466 0.8267
C2_14 C 0.6890(4) 0.5866(6) 0.9565(9)
C3_15 C 0.8731(4) 0.5915(6) 0.8333(9)
H2_12 H 0.8509 0.5786 0.7550
C4_14 C 0.6948(4) 0.5351(6) 0.9423(9)
H4_14 H 0.6683 0.5103 0.8728
C5_14 C 0.8505(4) 0.5853(6) 0.9598(9)
O1_15 O 0.4121(4) 0.0687(3) 0.0461(6)
O2_15 O 0.4416(4) 0.2207(3) 0.1221(6)
C1_15 C 0.4369(7) 0.2285(5) 0.0029(9)
H3_15 H 0.4866 0.1701 0.0260
C6_15 C 0.3898(7) 0.2888(4) 0.0386(9)
H5_15 H 0.3871 0.2859 0.1319
N4_9 N 0.3829(6) 0.0715(4) 0.3373(7)
N1_9 N 0.3829(6) 0.3115(4) 0.8373(7)
N2_15 N 0.4517(6) 0.2034(4) 0.9095(8)
H1_13 H 0.4534 0.2138 0.8267
C2_15 C 0.4134(6) 0.1025(4) 0.9565(9)
C3_16 C 0.4085(6) 0.2817(4) 0.8333(9)
H2_13 H 0.4214 0.2724 0.7550
C4_15 C 0.4649(6) 0.1598(4) 0.9423(9)
H4_15 H 0.4897 0.1581 0.8728
C5_15 C 0.4147(6) 0.2653(4) 0.9598(9)
O1_16 O 0.4121(4) 0.3435(3) 0.5461(6)
O2_16 O 0.4416(4) 0.2210(3) 0.6221(6)
N2_16 N 0.4517(6) 0.2484(4) 0.4095(8)
H1_14 H 0.4534 0.2397 0.3267
C1_16 C 0.4369(7) 0.2085(5) 0.5029(9)
C2_16 C 0.4134(6) 0.3110(4) 0.4565(9)
C3_17 C 0.4085(6) 0.1269(4) 0.3333(9)
H2_14 H 0.4214 0.1491 0.2550
C4_16 C 0.4649(6) 0.3052(4) 0.4423(9)
H3_16 H 0.4866 0.3166 0.5260
H4_16 H 0.4897 0.3317 0.3728
C5_16 C 0.4147(6) 0.1495(4) 0.4598(9)
C6_16 C 0.3898(7) 0.1011(6) 0.5386(9)
H5_16 H 0.3871 0.1013 0.6319
O1_17 O 0.9313(3) 0.5879(4) 0.5461(6)
O2_17 O 0.7793(3) 0.5584(4) 0.6221(6)
N2_17 N 0.7966(4) 0.5483(6) 0.4095(8)
H1_15 H 0.7862 0.5466 0.3267
C1_17 C 0.7715(5) 0.5631(7) 0.5029(9)
C2_17 C 0.8975(4) 0.5866(6) 0.4565(9)
C3_18 C 0.7183(4) 0.5915(6) 0.3333(9)
H2_15 H 0.7276 0.5786 0.2550
C4_17 C 0.8402(4) 0.5351(6) 0.4423(9)
H3_17 H 0.8299 0.5134 0.5260
H4_17 H 0.8419 0.5103 0.3728
C5_17 C 0.7347(4) 0.5853(6) 0.4598(9)
C6_17 C 0.7112(4) 0.6102(7) 0.5386(9)
H5_17 H 0.7141 0.6129 0.6319
O1_18 O 0.6565(3) 0.0687(3) 0.5461(6)
O2_18 O 0.7790(3) 0.2207(3) 0.6221(6)
N2_18 N 0.7516(4) 0.2034(4) 0.4095(8)
H1_16 H 0.7603 0.2138 0.3267
C1_18 C 0.7915(5) 0.2285(5) 0.5029(9)
C2_18 C 0.6890(4) 0.1025(4) 0.4565(9)
C3_19 C 0.8731(4) 0.2817(4) 0.3333(9)
H2_16 H 0.8509 0.2724 0.2550
C4_18 C 0.6948(4) 0.1598(4) 0.4423(9)
H3_18 H 0.6834 0.1701 0.5260
H4_18 H 0.6683 0.1581 0.3728
C5_18 C 0.8505(4) 0.2653(4) 0.4598(9)
C6_18 C 0.8989(6) 0.2888(4) 0.5386(9)
H5_18 H 0.8987 0.2859 0.6319
H1_17 H 0.1196 0.2132 0.9933
C3_20 C 0.0517(4) 0.2581(6) 0.9999(9)
H2_17 H 0.0610 0.2452 0.9216
H1_18 H 0.0937 0.8804 0.9933
C3_21 C 0.2065(4) 0.9483(4) 0.9999(9)
H2_18 H 0.1843 0.9390 0.9216
loop_
_geom_bond_atom_site_label_1
_geom_bond_atom_site_label_2
_geom_bond_site_symmetry_1
_geom_bond_site_symmetry_2
Zn1 O1 1_555 1_555
N1 N3 1_555 1_555
O1 C2 1_555 1_555
O2 C1 1_555 1_555
N2 H1 1_555 1_555
N3 C6 1_555 1_555
O3 C2 1_555 1_555
C1 N2 1_555 1_555
C2 C4 1_555 1_555
C3 N1 1_555 1_555
H2 C3 1_555 1_555
C4 N2 1_555 1_555
H3 C4 1_555 1_555
H4 C4 1_555 1_555
C5 C1 1_555 1_555
C6 C5 1_555 1_555
H5 C6 1_555 1_555
Zn2 N1 1_555 1_555
Zn3 N3 1_555 1_555
Zn4 O3 1_555 1_555
N4 Zn1 1_555 1_555
N5 Zn1 1_555 1_555
O4 Zn1 1_555 1_555
C3 C5 1_555 1_555
Zn1_2 O1_2 1_555 1_555
N1_2 N3_2 1_555 1_555
O1_2 C2_2 1_555 1_555
O2_2 C1_2 1_555 1_555
N2_2 H1_2 1_555 1_555
N3_2 C6_2 1_555 1_555
O3_2 C2_2 1_555 1_555
C1_2 N2_2 1_555 1_555
C2_2 C4_2 1_555 1_555
C3_2 N1_2 1_555 1_555
H2_2 C3_2 1_555 1_555
C4_2 N2_2 1_555 1_555
H3_2 C4_2 1_555 1_555
H4_2 C4_2 1_555 1_555
C5_2 C1_2 1_555 1_555
C6_2 C5_2 1_555 1_555
H5_2 C6_2 1_555 1_555
Zn2_2 N1_2 1_555 1_555
N4_2 Zn1_2 1_555 1_555
O4_2 Zn1_2 1_555 1_555
C3_2 C5_2 1_555 1_555
Zn1_3 O1_3 1_555 1_555
N1_3 N3_3 1_555 1_555
O1_3 C2_3 1_555 1_555
O2_3 C1_3 1_555 1_555
N2_3 H1_3 1_555 1_555
N3_3 C6_3 1_555 1_555
O3_3 C2_3 1_555 1_555
C1_3 N2_3 1_555 1_555
C2_3 C4_3 1_555 1_555
C3_3 N1_3 1_555 1_555
H2_3 C3_3 1_555 1_555
C4_3 N2_3 1_555 1_555
H3_3 C4_3 1_555 1_555
H4_3 C4_3 1_555 1_555
C5_3 C1_3 1_555 1_555
C6_3 C5_3 1_555 1_555
H5_3 C6_3 1_555 1_555
Zn2_3 N1_3 1_555 1_555
N4_3 Zn1_3 1_555 1_555
O4_3 Zn1_3 1_555 1_555
C3_3 C5_3 1_555 1_555
O4_4 Zn2_3 1_555 1_555
N4_3 N3_4 1_555 1_555
O1_4 C2_4 1_555 1_555
O2_4 C1_4 1_555 1_555
N2_4 H1_4 1_555 1_555
N3_4 C6_4 1_555 1_555
O3_4 C2_4 1_555 1_555
C1_4 N2_4 1_555 1_555
C2_4 C4_4 1_555 1_555
C3_4 N4_3 1_555 1_555
H2_4 C3_4 1_555 1_555
C4_4 N2_4 1_555 1_555
H3_4 C4_4 1_555 1_555
H4_4 C4_4 1_555 1_555
C5_4 C1_4 1_555 1_555
C6_4 C5_4 1_555 1_555
H5_4 C6_4 1_555 1_555
C3_4 C5_4 1_555 1_555
O4_5 Zn2_2 1_555 1_555
N4_2 N3_5 1_555 1_555
O1_5 C2_5 1_555 1_555
O2_5 C1_5 1_555 1_555
N2_5 H1_5 1_555 1_555
N3_5 C6_5 1_555 1_555
O3_5 C2_5 1_555 1_555
C1_5 N2_5 1_555 1_555
C2_5 C4_5 1_555 1_555
C3_5 N4_2 1_555 1_555
H2_5 C3_5 1_555 1_555
C4_5 N2_5 1_555 1_555
H3_5 C4_5 1_555 1_555
H4_5 C4_5 1_555 1_555
C5_5 C1_5 1_555 1_555
C6_5 C5_5 1_555 1_555
H5_5 C6_5 1_555 1_555
C3_5 C5_5 1_555 1_555
O4_6 Zn2 1_555 1_555
N4 N3_6 1_555 1_555
O1_6 C2_6 1_555 1_555
O2_6 C1_6 1_555 1_555
N2_6 H1_6 1_555 1_555
N3_6 C6_6 1_555 1_555
O3_6 C2_6 1_555 1_555
C1_6 N2_6 1_555 1_555
C2_6 C4_6 1_555 1_555
C3_6 N4 1_555 1_555
H2_6 C3_6 1_555 1_555
C4_6 N2_6 1_555 1_555
H3_6 C4_6 1_555 1_555
H4_6 C4_6 1_555 1_555
C5_6 C1_6 1_555 1_555
C6_6 C5_6 1_555 1_555
H5_6 C6_6 1_555 1_555
Zn3_6 N3_6 1_555 1_555
Zn4_6 O3_6 1_555 1_555
C3_6 C5_6 1_555 1_555
Zn3_5 O1_7 1_555 1_555
O4_7 Zn3_5 1_555 1_555
N1_4 N3_7 1_555 1_555
O2_7 C1_7 1_555 1_555
N2_7 H1_7 1_555 1_555
N3_7 C6_7 1_555 1_555
O4_2 C2_7 1_555 1_555
C1_7 N2_7 1_555 1_555
C2_7 C4_7 1_555 1_555
C3_7 N1_4 1_555 1_555
H2_7 C3_7 1_555 1_555
C4_7 N2_7 1_555 1_555
H3_7 C4_7 1_555 1_555
H4_7 C4_7 1_555 1_555
C5_7 C1_7 1_555 1_555
C6_7 C5_7 1_555 1_555
H5_7 C6_7 1_555 1_555
C3_7 C5_7 1_555 1_555
N1_5 N3_8 1_555 1_555
O2_8 C1_8 1_555 1_555
N2_8 H1_8 1_555 1_555
N3_8 C6_8 1_555 1_555
O4_3 C2_8 1_555 1_555
C1_8 N2_8 1_555 1_555
C2_8 C4_8 1_555 1_555
C3_8 N1_5 1_555 1_555
H2_8 C3_8 1_555 1_555
C4_8 N2_8 1_555 1_555
H3_8 C4_8 1_555 1_555
H4_8 C4_8 1_555 1_555
C5_8 C1_8 1_555 1_555
C6_8 C5_8 1_555 1_555
H5_8 C6_8 1_555 1_555
Zn3 N1_5 1_555 1_555
Zn4_6 N3_8 1_555 1_555
C3_8 C5_8 1_555 1_555
Zn3_4 O1_8 1_555 1_555
O4_8 Zn3_4 1_555 1_555
Zn3_6 O1_9 1_555 1_555
N1_6 N3_9 1_555 1_555
O1_9 C2_9 1_555 1_555
O2_9 C1_9 1_555 1_555
N2_9 H1_9 1_555 1_555
N3_9 C6_9 1_555 1_555
O4 C2_9 1_555 1_555
C1_9 N2_9 1_555 1_555
C2_9 C4_9 1_555 1_555
C3_9 N1_6 1_555 1_555
H2_9 C3_9 1_555 1_555
C4_9 N2_9 1_555 1_555
H3_9 C4_9 1_555 1_555
H4_9 C4_9 1_555 1_555
C5_9 C1_9 1_555 1_555
C6_9 C5_9 1_555 1_555
H5_9 C6_9 1_555 1_555
O4_9 Zn3_6 1_555 1_555
C3_9 C5_9 1_555 1_555
Zn3_2 O1_10 1_555 1_555
O4_10 Zn3_2 1_555 1_555
N4_6 N3_10 1_555 1_555
O2_10 C1_10 1_555 1_555
N3_10 C6_10 1_555 1_555
O4_5 C2_10 1_555 1_555
C1_10 N2_10 1_555 1_555
C2_10 C4_10 1_555 1_555
C3_10 N4_6 1_555 1_555
C4_10 N2_10 1_555 1_555
H3_10 C4_10 1_555 1_555
H4_10 C4_10 1_555 1_555
C5_10 C1_10 1_555 1_555
C6_10 C5_10 1_555 1_555
H5_10 C6_10 1_555 1_555
Zn4 N3_10 1_555 1_555
C3_10 C5_10 1_555 1_555
H2_10 C3_11 1_555 1_555
Zn3 O1_11 1_555 1_555
N4_5 N3_11 1_555 1_555
O1_11 C2_11 1_555 1_555
O2_11 C1_11 1_555 1_555
N3_11 C6_11 1_555 1_555
O4_6 C2_11 1_555 1_555
C1_11 N2_11 1_555 1_555
C2_11 C4_11 1_555 1_555
C3_12 N4_5 1_555 1_555
C4_11 N2_11 1_555 1_555
H3_11 C4_11 1_555 1_555
H4_11 C4_11 1_555 1_555
C5_11 C1_11 1_555 1_555
C6_11 C5_11 1_555 1_555
H5_11 C6_11 1_555 1_555
O4_11 Zn3 1_555 1_555
C3_12 C5_11 1_555 1_555
N4_4 N3_12 1_555 1_555
O2_12 C1_12 1_555 1_555
N3_12 C6_12 1_555 1_555
O4_4 C2_12 1_555 1_555
C1_12 N2_12 1_555 1_555
C2_12 C4_12 1_555 1_555
C3_13 N4_4 1_555 1_555
C4_12 N2_12 1_555 1_555
H3_12 C4_12 1_555 1_555
H4_12 C4_12 1_555 1_555
C5_12 C1_12 1_555 1_555
C6_12 C5_12 1_555 1_555
H5_12 C6_12 1_555 1_555
C3_13 C5_12 1_555 1_555
Zn3_3 O1_12 1_555 1_555
O4_12 Zn3_3 1_555 1_555
Zn4_3 O1_13 1_555 1_555
O2_13 C1_13 1_555 1_555
H5_13 C6_13 1_555 1_555
N4_7 Zn4_3 1_555 1_555
N1_7 N5_5 1_555 1_555
N2_13 H1_11 1_555 1_555
O4_8 C2_13 1_555 1_555
C2_13 C4_13 1_555 1_555
C3_14 N1_7 1_555 1_555
H2_11 C3_14 1_555 1_555
C4_13 N2_13 1_555 1_555
H4_13 C4_13 1_555 1_555
Zn4_5 N1_7 1_555 1_555
C3_14 C5_13 1_555 1_555
Zn4 O1_14 1_555 1_555
O2_14 C1_14 1_555 1_555
H5_14 C6_14 1_555 1_555
N4_8 Zn4 1_555 1_555
N1_8 N5_4 1_555 1_555
N2_14 H1_12 1_555 1_555
O4_9 C2_14 1_555 1_555
C2_14 C4_14 1_555 1_555
C3_15 N1_8 1_555 1_555
H2_12 C3_15 1_555 1_555
C4_14 N2_14 1_555 1_555
H4_14 C4_14 1_555 1_555
Zn4_4 N1_8 1_555 1_555
C3_15 C5_14 1_555 1_555
Zn4_2 O1_15 1_555 1_555
O2_15 C1_15 1_555 1_555
H5_15 C6_15 1_555 1_555
N4_9 Zn4_2 1_555 1_555
N1_9 N5_6 1_555 1_555
N2_15 H1_13 1_555 1_555
O4_7 C2_15 1_555 1_555
C2_15 C4_15 1_555 1_555
C3_16 N1_9 1_555 1_555
H2_13 C3_16 1_555 1_555
C4_15 N2_15 1_555 1_555
H4_15 C4_15 1_555 1_555
Zn4_6 N1_9 1_555 1_555
C3_16 C5_15 1_555 1_555
Zn4_6 O1_16 1_555 1_555
N4_9 N5_2 1_555 1_555
O1_16 C2_16 1_555 1_555
O2_16 C1_16 1_555 1_555
N2_16 H1_14 1_555 1_555
N5_2 C6_16 1_555 1_555
O4_11 C2_16 1_555 1_555
C1_16 N2_16 1_555 1_555
C2_16 C4_16 1_555 1_555
C3_17 N4_9 1_555 1_555
H2_14 C3_17 1_555 1_555
C4_16 N2_16 1_555 1_555
H3_16 C4_16 1_555 1_555
H4_16 C4_16 1_555 1_555
C5_16 C1_16 1_555 1_555
C6_16 C5_16 1_555 1_555
H5_16 C6_16 1_555 1_555
C3_17 C5_16 1_555 1_555
Zn4_4 O1_17 1_555 1_555
N4_8 N5 1_555 1_555
O1_17 C2_17 1_555 1_555
O2_17 C1_17 1_555 1_555
N2_17 H1_15 1_555 1_555
N5 C6_17 1_555 1_555
O4_12 C2_17 1_555 1_555
C1_17 N2_17 1_555 1_555
C2_17 C4_17 1_555 1_555
C3_18 N4_8 1_555 1_555
H2_15 C3_18 1_555 1_555
C4_17 N2_17 1_555 1_555
H3_17 C4_17 1_555 1_555
H4_17 C4_17 1_555 1_555
C5_17 C1_17 1_555 1_555
C6_17 C5_17 1_555 1_555
H5_17 C6_17 1_555 1_555
C3_18 C5_17 1_555 1_555
Zn4_5 O1_18 1_555 1_555
N4_7 N5_3 1_555 1_555
O1_18 C2_18 1_555 1_555
O2_18 C1_18 1_555 1_555
N2_18 H1_16 1_555 1_555
N5_3 C6_18 1_555 1_555
O4_10 C2_18 1_555 1_555
C1_18 N2_18 1_555 1_555
C2_18 C4_18 1_555 1_555
C3_19 N4_7 1_555 1_555
H2_16 C3_19 1_555 1_555
C4_18 N2_18 1_555 1_555
H3_18 C4_18 1_555 1_555
H4_18 C4_18 1_555 1_555
C5_18 C1_18 1_555 1_555
C6_18 C5_18 1_555 1_555
H5_18 C6_18 1_555 1_555
C3_19 C5_18 1_555 1_555
H2_17 C3_20 1_555 1_555
H2_18 C3_21 1_555 1_555

#END
