
###############################################################################
#
# This file contains modified crystal structure data generated from the
# MOF subset of the Cambridge Structural Database (CSD) v543 
# hosted by the Cambridge Crystallographic Data Centre (CCDC).
#
# This work is licensed under the Creative Commons
# Attribution-NonCommercial-ShareAlike 4.0 International License.
# To view a copy of this license, visit
# http://creativecommons.org/licenses/by-nc-sa/4.0/
# or send a letter to
# Creative Commons, PO Box 1866, Mountain View, CA 94042, USA.
#
# CIF created using the CSD Python API on 29 September 2022
# The structure has been converted into the P1 space group
# The structure has a 3D framework
# The original CSD entry VUWYUK is in the rhombohedral crystal system
# The original CSD entry VUWYUK is in a Sohncke space group
# The framework has been calculated to contain at least 10.0% void space
# The void calculation uses a probe of radius 1.32A, grid spacing 0.4
#
###############################################################################

data_VUWYUK
_chemical_formula_moiety         '(C126 H126 N54 O51 Zn13)n'
_symmetry_cell_setting           triclinic
_symmetry_space_group_name_H-M   'P 1'
_symmetry_Int_Tables_number      1
_space_group_name_Hall           'P 1'
loop_
_symmetry_equiv_pos_site_id
_symmetry_equiv_pos_as_xyz
1 x,y,z
_cell_length_a                   28.2675(5)
_cell_length_b                   28.2675(5)
_cell_length_c                   10.1239(2)
_cell_angle_alpha                90
_cell_angle_beta                 90
_cell_angle_gamma                120
_cell_volume                     7005.73
loop_
_atom_site_label
_atom_site_type_symbol
_atom_site_fract_x
_atom_site_fract_y
_atom_site_fract_z
Zn1 Zn 0.35796(4) 0.02000(4) 0.39307(7)
O1 O 0.4047(2) 0.3356(2) 0.7366(5)
O4 O 0.3648(2) 0.2810(3) 0.5627(6)
N1 N 0.4324(3) 0.2365(3) 0.6078(7)
H1 H 0.4269 0.2250 0.5254
N3 N 0.3755(3) 0.0686(3) 0.5452(6)
O6 O 0.4344(4) 0.2149(3) 0.8231(6)
N4 N 0.3643(3) 0.0532(3) 0.6751(6)
C3 C 0.3807(4) 0.0981(3) 0.7473(8)
H3 H 0.3778 0.0990 0.8406
C6 C 0.4506(4) 0.2937(3) 0.6351(8)
H5 H 0.4718 0.3048 0.7194
C7 C 0.3989(4) 0.1228(3) 0.5384(8)
H6 H 0.4111 0.1439 0.4599
C8 C 0.4237(4) 0.2007(4) 0.7055(8)
C9 C 0.4025(4) 0.1434(3) 0.6656(7)
C10 C 0.4029(3) 0.3035(3) 0.6459(7)
C13 C 0.4874(5) 0.3287(4) 0.5212(13)
H9 H 0.5173 0.3210 0.5090
H10 H 0.5025 0.3675 0.5422
H11 H 0.4659 0.3200 0.4397
Zn4 Zn 0.31275(4) 0.30850(4) 0.54502(7)
Zn5 Zn 0.69150(4) 0.00424(6) 0.54502(7)
Zn6 Zn 0.35816(4) 0.33758(6) 0.87836(7)
O8 O 0.4045(3) 0.0712(4) 0.2542(6)
N8 N 0.6897(4) 0.0519(3) 0.1588(7)
Zn2 Zn 0.64608(4) 0.97517(4) 0.21169(7)
O2 O 0.3857(2) 0.9686(2) 0.4128(6)
O3 O 0.3333(3) 0.9288(3) 0.5875(6)
N2 N 0.4286(3) 0.8999(3) 0.4424(7)
H2 H 0.4373 0.8987 0.3595
O5 O 0.4585(3) 0.9220(4) 0.6502(7)
N5 N 0.5974(3) 0.9563(3) 0.3635(6)
C1 C 0.4680(4) 0.9184(4) 0.5328(8)
C2 C 0.5238(4) 0.9359(4) 0.4858(8)
N6 N 0.6148(3) 0.9712(3) 0.4921(7)
C4 C 0.3720(4) 0.8817(4) 0.4740(9)
H4 H 0.3509 0.8632 0.3923
C5 C 0.3638(3) 0.9310(3) 0.4946(8)
C11 C 0.5423(4) 0.9349(4) 0.3608(8)
H7 H 0.5200 0.9213 0.2843
C12 C 0.5703(4) 0.9582(4) 0.5651(8)
H8 H 0.5705 0.9635 0.6578
C14 C 0.3503(8) 0.8383(7) 0.5796(18)
H12 H 0.3516 0.8062 0.5479
H13 H 0.3124 0.8279 0.6002
H14 H 0.3727 0.8525 0.6593
Zn3 Zn 0.32871(6) 0.97537(4) 0.72640(7)
O7 O 0.5976(3) 0.9286(2) 0.0699(5)
O9 O 0.6981(2) 0.9477(3) 0.2294(6)
N7 N 0.2801(3) 0.9778(4) 0.3418(6)
Zn2_2 Zn 0.02483(4) 0.67091(6) 0.21169(7)
O2_2 O 0.0314(2) 0.4171(3) 0.4128(6)
O3_2 O 0.0712(3) 0.4045(4) 0.5875(6)
N2_2 N 0.1001(3) 0.5287(4) 0.4424(7)
H2_2 H 0.1013 0.5386 0.3595
O5_2 O 0.0780(4) 0.5365(5) 0.6502(7)
N5_2 N 0.0437(3) 0.6411(4) 0.3635(6)
C1_2 C 0.0816(4) 0.5496(6) 0.5328(8)
C2_2 C 0.0641(4) 0.5879(6) 0.4858(8)
N6_2 N 0.0288(3) 0.6436(4) 0.4921(7)
C4_2 C 0.1183(4) 0.4903(6) 0.4740(9)
H4_2 H 0.1368 0.4877 0.3923
C5_2 C 0.0690(3) 0.4328(4) 0.4946(8)
C11_2 C 0.0651(4) 0.6074(6) 0.3608(8)
H7_2 H 0.0787 0.5987 0.2843
C12_2 C 0.0418(4) 0.6121(6) 0.5651(8)
H8_2 H 0.0365 0.6070 0.6578
C14_2 C 0.1617(7) 0.5120(11) 0.5796(18)
H12_2 H 0.1938 0.5454 0.5479
H13_2 H 0.1721 0.4845 0.6002
H14_2 H 0.1475 0.5202 0.6593
Zn3_2 Zn 0.02463(4) 0.35333(7) 0.72640(7)
O7_2 O 0.0714(2) 0.6689(4) 0.0699(5)
O9_2 O 0.0523(3) 0.7505(4) 0.2294(6)
N7_2 N 0.0222(4) 0.3024(5) 0.3418(6)
Zn1_2 Zn 0.98000(4) 0.33796(6) 0.39307(7)
O1_2 O 0.6644(2) 0.0691(3) 0.7366(5)
O4_2 O 0.7190(3) 0.0838(4) 0.5627(6)
N1_2 N 0.7635(3) 0.1959(4) 0.6078(7)
H1_2 H 0.7750 0.2019 0.5254
N3_2 N 0.9314(3) 0.3069(4) 0.5452(6)
O6_2 O 0.7851(3) 0.2195(5) 0.8231(6)
N4_2 N 0.9468(3) 0.3111(4) 0.6751(6)
C3_2 C 0.9019(3) 0.2826(5) 0.7473(8)
H3_2 H 0.9010 0.2788 0.8406
C6_2 C 0.7063(3) 0.1569(5) 0.6351(8)
H5_2 H 0.6952 0.1670 0.7194
C7_2 C 0.8772(3) 0.2761(5) 0.5384(8)
H6_2 H 0.8561 0.2672 0.4599
C8_2 C 0.7993(4) 0.2230(6) 0.7055(8)
C9_2 C 0.8566(3) 0.2591(5) 0.6656(7)
C10_2 C 0.6965(3) 0.0994(4) 0.6459(7)
C13_2 C 0.6713(4) 0.1587(6) 0.5212(13)
H9_2 H 0.6790 0.1963 0.5090
H10_2 H 0.6325 0.1350 0.5422
H11_2 H 0.6800 0.1459 0.4397
Zn5_2 Zn 0.99576(6) 0.68725(7) 0.54502(7)
Zn6_2 Zn 0.66242(6) 0.02059(7) 0.87836(7)
O8_2 O 0.9288(4) 0.3334(5) 0.2542(6)
N8_2 N 0.9481(3) 0.6379(5) 0.1588(7)
Zn1_3 Zn 0.66204(6) 0.64204(4) 0.39307(7)
Zn2_3 Zn 0.32909(6) 0.35392(4) 0.21169(7)
O1_3 O 0.9309(3) 0.5953(2) 0.7366(5)
O2_3 O 0.5829(3) 0.6143(2) 0.4128(6)
O3_3 O 0.5955(4) 0.6667(3) 0.5875(6)
O4_3 O 0.9162(4) 0.6352(2) 0.5627(6)
N1_3 N 0.8041(4) 0.5676(3) 0.6078(7)
H1_3 H 0.7981 0.5731 0.5254
N2_3 N 0.4713(4) 0.5714(3) 0.4424(7)
H2_3 H 0.4614 0.5627 0.3595
N3_3 N 0.6931(4) 0.6245(3) 0.5452(6)
O5_3 O 0.4635(5) 0.5415(3) 0.6502(7)
O6_3 O 0.7805(5) 0.5656(4) 0.8231(6)
N4_3 N 0.6889(4) 0.6357(3) 0.6751(6)
N5_3 N 0.3589(4) 0.4026(3) 0.3635(6)
C1_3 C 0.4504(6) 0.5320(4) 0.5328(8)
C2_3 C 0.4121(6) 0.4762(4) 0.4858(8)
N6_3 N 0.3564(4) 0.3852(3) 0.4921(7)
C3_3 C 0.7174(5) 0.6193(4) 0.7473(8)
H3_3 H 0.7212 0.6222 0.8406
C4_3 C 0.5097(6) 0.6280(4) 0.4740(9)
H4_3 H 0.5123 0.6491 0.3923
C5_3 C 0.5672(4) 0.6362(3) 0.4946(8)
C6_3 C 0.8431(5) 0.5494(4) 0.6351(8)
H5_3 H 0.8330 0.5282 0.7194
C7_3 C 0.7239(5) 0.6011(4) 0.5384(8)
H6_3 H 0.7328 0.5889 0.4599
C8_3 C 0.7770(6) 0.5763(4) 0.7055(8)
C9_3 C 0.7409(5) 0.5975(4) 0.6656(7)
C10_3 C 0.9006(4) 0.5971(3) 0.6459(7)
C11_3 C 0.3926(6) 0.4577(4) 0.3608(8)
H7_3 H 0.4013 0.4800 0.2843
C12_3 C 0.3879(6) 0.4297(4) 0.5651(8)
H8_3 H 0.3930 0.4295 0.6578
C13_3 C 0.8413(6) 0.5126(5) 0.5212(13)
H9_3 H 0.8037 0.4827 0.5090
H10_3 H 0.8650 0.4975 0.5422
H11_3 H 0.8541 0.5341 0.4397
C14_3 C 0.4880(11) 0.6497(8) 0.5796(18)
H12_3 H 0.4546 0.6484 0.5479
H13_3 H 0.5155 0.6876 0.6002
H14_3 H 0.4798 0.6273 0.6593
Zn3_3 Zn 0.64667(7) 0.67129(6) 0.72640(7)
Zn6_3 Zn 0.97941(7) 0.64184(4) 0.87836(7)
O7_3 O 0.3311(4) 0.4024(3) 0.0699(5)
O8_3 O 0.6666(5) 0.5955(3) 0.2542(6)
O9_3 O 0.2495(4) 0.3019(2) 0.2294(6)
N7_3 N 0.6976(5) 0.7199(3) 0.3418(6)
N8_3 N 0.3621(5) 0.3103(4) 0.1588(7)
O6_4 O 0.1011(4) 0.5482(3) 0.1564(6)
N4_4 N 0.0310(3) 0.3865(3) 0.0084(6)
C3_4 C 0.0474(4) 0.4314(3) 0.0806(8)
H3_4 H 0.0445 0.4323 0.1739
H5_4 H 0.1385 0.6381 0.0527
C8_4 C 0.0904(4) 0.5340(4) 0.0388(8)
O2_4 O 0.0524(2) 0.3019(2) 0.7461(6)
O3_4 O -0.0000(3) 0.2621(3) 0.9208(6)
O4_4 O 0.0315(2) 0.6143(3) 0.8960(6)
N1_4 N 0.0991(3) 0.5698(3) 0.9411(7)
H1_4 H 0.0936 0.5583 0.8587
N2_4 N 0.0953(3) 0.2332(3) 0.7757(7)
H2_4 H 0.1040 0.2320 0.6928
N3_4 N 0.0422(3) 0.4019(3) 0.8785(6)
O5_4 O 0.1252(3) 0.2553(4) 0.9835(7)
N5_4 N 0.2641(3) 0.2896(3) 0.6968(6)
C1_4 C 0.1347(4) 0.2517(4) 0.8661(8)
C2_4 C 0.1905(4) 0.2692(4) 0.8191(8)
N6_4 N 0.2815(3) 0.3045(3) 0.8254(7)
C4_4 C 0.0387(4) 0.2150(4) 0.8073(9)
H4_4 H 0.0176 0.1965 0.7256
C5_4 C 0.0305(3) 0.2643(3) 0.8279(8)
C6_4 C 0.1173(4) 0.6270(3) 0.9684(8)
C7_4 C 0.0656(4) 0.4561(3) 0.8717(8)
H6_4 H 0.0778 0.4772 0.7932
C9_4 C 0.0692(4) 0.4767(3) 0.9989(7)
C10_4 C 0.0696(3) 0.6368(3) 0.9792(7)
C11_4 C 0.2090(4) 0.2682(4) 0.6941(8)
H7_4 H 0.1867 0.2546 0.6176
C12_4 C 0.2370(4) 0.2915(4) 0.8984(8)
H8_4 H 0.2372 0.2968 0.9911
C13_4 C 0.1541(5) 0.6620(4) 0.8545(13)
H9_4 H 0.1840 0.6543 0.8423
H10_4 H 0.1692 0.7008 0.8755
H11_4 H 0.1326 0.6533 0.7730
C14_4 C 0.0170(8) 0.1716(7) 0.9129(18)
H12_4 H 0.0183 0.1395 0.8812
H14_4 H 0.0394 0.1858 0.9926
O7_4 O 0.2642(3) 0.2620(2) 0.4033(5)
Zn3_4 Zn 0.99537(6) 0.30871(4) 0.05974(7)
O3_5 O 1.0000(3) 0.2621(3) 0.9208(6)
H13_4 H 0.9791 0.1612 0.9335
O7_5 O 0.7380(2) 0.0023(4) 0.4033(5)
O6_5 O 0.4518(3) 0.5528(5) 0.1564(6)
N4_5 N 0.6135(3) 0.6444(4) 0.0084(6)
C3_5 C 0.5686(3) 0.6159(5) 0.0806(8)
H3_5 H 0.5677 0.6121 0.1739
H5_5 H 0.3619 0.5003 0.0527
C8_5 C 0.4660(4) 0.5563(6) 0.0388(8)
Zn3_5 Zn 0.69129(4) 0.68667(7) 0.05974(7)
O2_5 O 0.6981(2) 0.7504(3) 0.7461(6)
O3_6 O 0.7379(3) 0.7378(4) 0.9208(6)
O4_5 O 0.3857(3) 0.4171(4) 0.8960(6)
N1_5 N 0.4302(3) 0.5292(4) 0.9411(7)
H1_5 H 0.4417 0.5352 0.8587
N2_5 N 0.7668(3) 0.8620(4) 0.7757(7)
H2_5 H 0.7680 0.8719 0.6928
N3_5 N 0.5981(3) 0.6402(4) 0.8785(6)
O5_5 O 0.7447(4) 0.8698(5) 0.9835(7)
N5_5 N 0.7104(3) 0.9744(4) 0.6968(6)
C1_5 C 0.7483(4) 0.8829(6) 0.8661(8)
C2_5 C 0.7308(4) 0.9212(6) 0.8191(8)
N6_5 N 0.6955(3) 0.9769(4) 0.8254(7)
C4_5 C 0.7850(4) 0.8236(6) 0.8073(9)
H4_5 H 0.8035 0.8210 0.7256
C5_5 C 0.7357(3) 0.7661(4) 0.8279(8)
C6_5 C 0.3730(3) 0.4902(5) 0.9684(8)
C7_5 C 0.5439(3) 0.6094(5) 0.8717(8)
H6_5 H 0.5228 0.6005 0.7932
C9_5 C 0.5233(3) 0.5924(5) 0.9989(7)
C10_5 C 0.3632(3) 0.4327(4) 0.9792(7)
C11_5 C 0.7318(4) 0.9407(6) 0.6941(8)
H7_5 H 0.7454 0.9320 0.6176
C12_5 C 0.7085(4) 0.9454(6) 0.8984(8)
H8_5 H 0.7032 0.9403 0.9911
C13_5 C 0.3380(4) 0.4920(6) 0.8545(13)
H9_5 H 0.3457 0.5296 0.8423
H10_5 H 0.2992 0.4683 0.8755
H11_5 H 0.3467 0.4792 0.7730
C14_5 C 0.8284(7) 0.8453(11) 0.9129(18)
H12_5 H 0.8605 0.8787 0.8812
H13_5 H 0.8388 0.8178 0.9335
H14_5 H 0.8142 0.8535 0.9926
Zn3_6 Zn 0.31333(7) 0.00463(6) 0.05974(7)
O3_7 O 0.2622(4) 0.0000(3) 0.9208(6)
H13_6 H 0.1822 0.0209 0.9335
O6_6 O 0.4472(5) 0.8989(4) 0.1564(6)
N4_6 N 0.3556(4) 0.9690(3) 0.0084(6)
C3_6 C 0.3841(5) 0.9526(4) 0.0806(8)
H3_6 H 0.3879 0.9555 0.1739
H5_6 H 0.4997 0.8615 0.0527
C8_6 C 0.4437(6) 0.9096(4) 0.0388(8)
O2_6 O 0.2496(3) 0.9476(2) 0.7461(6)
O3_8 O 0.2622(4) 1.0000(3) 0.9208(6)
O4_6 O 0.5829(4) 0.9685(2) 0.8960(6)
N1_6 N 0.4708(4) 0.9009(3) 0.9411(7)
H1_6 H 0.4648 0.9064 0.8587
N2_6 N 0.1380(4) 0.9047(3) 0.7757(7)
H2_6 H 0.1281 0.8960 0.6928
N3_6 N 0.3598(4) 0.9578(3) 0.8785(6)
O5_6 O 0.1302(5) 0.8748(3) 0.9835(7)
N5_6 N 0.0256(4) 0.7359(3) 0.6968(6)
C1_6 C 0.1171(6) 0.8653(4) 0.8661(8)
C2_6 C 0.0788(6) 0.8095(4) 0.8191(8)
N6_6 N 0.0231(4) 0.7185(3) 0.8254(7)
C4_6 C 0.1764(6) 0.9613(4) 0.8073(9)
H4_6 H 0.1790 0.9824 0.7256
C5_6 C 0.2339(4) 0.9695(3) 0.8279(8)
C6_6 C 0.5098(5) 0.8827(4) 0.9684(8)
C7_6 C 0.3906(5) 0.9344(4) 0.8717(8)
H6_6 H 0.3995 0.9222 0.7932
C9_6 C 0.4076(5) 0.9308(4) 0.9989(7)
C10_6 C 0.5673(4) 0.9304(3) 0.9792(7)
C11_6 C 0.0593(6) 0.7910(4) 0.6941(8)
H7_6 H 0.0680 0.8133 0.6176
C12_6 C 0.0546(6) 0.7630(4) 0.8984(8)
H8_6 H 0.0597 0.7628 0.9911
C13_6 C 0.5080(6) 0.8459(5) 0.8545(13)
H9_6 H 0.4704 0.8160 0.8423
H10_6 H 0.5317 0.8308 0.8755
H11_6 H 0.5208 0.8674 0.7730
C14_6 C 0.1547(11) 0.9830(8) 0.9129(18)
H12_6 H 0.1213 0.9817 0.8812
H14_6 H 0.1465 0.9606 0.9926
O7_6 O 0.9977(4) 0.7358(3) 0.4033(5)
H10_7 H 0.8358 0.0342 0.2089
O2_7 O 0.7190(2) 0.6353(2) 0.0795(6)
N1_7 N 0.7657(3) 0.9032(3) 0.2745(7)
H1_7 H 0.7602 0.8917 0.1921
N2_7 N 0.7619(3) 0.5666(3) 0.1091(7)
H2_7 H 0.7706 0.5654 0.0262
N3_7 N 0.7088(3) 0.7353(3) 0.2119(6)
O5_7 O 0.7918(3) 0.5887(4) 0.3169(7)
O6_7 O 0.7677(4) 0.8816(3) 0.4898(6)
N5_7 N 0.9307(3) 0.6230(3) 0.0302(6)
C1_7 C 0.8013(4) 0.5851(4) 0.1995(8)
C2_7 C 0.8571(4) 0.6026(4) 0.1525(8)
C3_7 C 0.7140(4) 0.7648(3) 0.4140(8)
H3_7 H 0.7111 0.7657 0.5073
C4_7 C 0.7053(4) 0.5484(4) 0.1407(9)
H4_7 H 0.6842 0.5299 0.0590
C5_7 C 0.6971(3) 0.5977(3) 0.1613(8)
C6_7 C 0.7839(4) 0.9604(3) 0.3018(8)
H5_7 H 0.8051 0.9715 0.3861
C7_7 C 0.7322(4) 0.7895(3) 0.2051(8)
H6_7 H 0.7444 0.8106 0.1266
C8_7 C 0.7570(4) 0.8674(4) 0.3722(8)
C9_7 C 0.7358(4) 0.8101(3) 0.3323(7)
C10_7 C 0.7362(3) 0.9702(3) 0.3126(7)
C11_7 C 0.8756(4) 0.6016(4) 0.0275(8)
C12_7 C 0.9036(4) 0.6249(4) 0.2318(8)
H8_7 H 0.9038 0.6302 0.3245
C13_7 C 0.8207(5) 0.9954(4) 0.1879(13)
H9_7 H 0.8506 0.9877 0.1757
H11_7 H 0.7992 0.9867 0.1064
C14_7 C 0.6836(8) 0.5050(7) 0.2463(18)
H12_7 H 0.6849 0.4729 0.2146
H13_7 H 0.6457 0.4946 0.2669
H14_7 H 0.7060 0.5192 0.3260
H7_7 H 0.8533 0.5880 0.9510
O2_8 O 0.3647(2) 0.0838(3) 0.0795(6)
N2_8 N 0.4334(3) 0.1954(4) 0.1091(7)
H2_8 H 0.4346 0.2053 0.0262
O5_8 O 0.4113(4) 0.2032(5) 0.3169(7)
N5_8 N 0.3770(3) 0.3078(4) 0.0302(6)
C1_8 C 0.4149(4) 0.2163(6) 0.1995(8)
C2_8 C 0.3974(4) 0.2546(6) 0.1525(8)
C4_8 C 0.4516(4) 0.1570(6) 0.1407(9)
H4_8 H 0.4701 0.1544 0.0590
C5_8 C 0.4023(3) 0.0995(4) 0.1613(8)
C11_8 C 0.3984(4) 0.2741(6) 0.0275(8)
C12_8 C 0.3751(4) 0.2788(6) 0.2318(8)
H8_8 H 0.3698 0.2737 0.3245
C14_8 C 0.4950(7) 0.1787(11) 0.2463(18)
H12_8 H 0.5271 0.2121 0.2146
H13_8 H 0.5054 0.1512 0.2669
H14_8 H 0.4808 0.1869 0.3260
H7_8 H 0.4120 0.2654 0.9510
N1_8 N 0.0968(3) 0.8626(4) 0.2745(7)
H1_8 H 0.1083 0.8686 0.1921
N3_8 N 0.2647(3) 0.9736(4) 0.2119(6)
O6_8 O 0.1184(3) 0.8862(5) 0.4898(6)
C3_8 C 0.2352(3) 0.9493(5) 0.4140(8)
H3_8 H 0.2343 0.9455 0.5073
C6_8 C 0.0396(3) 0.8236(5) 0.3018(8)
H5_8 H 0.0285 0.8337 0.3861
C7_8 C 0.2105(3) 0.9428(5) 0.2051(8)
H6_8 H 0.1894 0.9339 0.1266
C8_8 C 0.1326(4) 0.8897(6) 0.3722(8)
C9_8 C 0.1899(3) 0.9258(5) 0.3323(7)
C10_8 C 0.0298(3) 0.7661(4) 0.3126(7)
C13_8 C 0.0046(4) 0.8254(6) 0.1879(13)
H9_8 H 0.0123 0.8630 0.1757
H11_8 H 0.0133 0.8126 0.1064
H10_8 H 0.9658 0.8017 0.2089
N1_9 N 0.1374(4) 0.2343(3) 0.2745(7)
H1_9 H 0.1314 0.2398 0.1921
N3_9 N 0.0264(4) 0.2912(3) 0.2119(6)
O6_9 O 0.1138(5) 0.2323(4) 0.4898(6)
C3_9 C 0.0507(5) 0.2860(4) 0.4140(8)
H3_9 H 0.0545 0.2889 0.5073
C6_9 C 0.1764(5) 0.2161(4) 0.3018(8)
H5_9 H 0.1663 0.1949 0.3861
C7_9 C 0.0572(5) 0.2678(4) 0.2051(8)
H6_9 H 0.0661 0.2556 0.1266
C8_9 C 0.1103(6) 0.2430(4) 0.3722(8)
C9_9 C 0.0742(5) 0.2642(4) 0.3323(7)
C10_9 C 0.2339(4) 0.2638(3) 0.3126(7)
C13_9 C 0.1746(6) 0.1793(5) 0.1879(13)
H9_9 H 0.1370 0.1494 0.1757
H10_9 H 0.1983 0.1642 0.2089
H11_9 H 0.1874 0.2008 0.1064
O2_9 O 0.9162(3) 0.2810(2) 0.0795(6)
N2_9 N 0.8046(4) 0.2381(3) 0.1091(7)
H2_9 H 0.7947 0.2294 0.0262
O5_9 O 0.7968(5) 0.2082(3) 0.3169(7)
N5_9 N 0.6922(4) 0.0693(3) 0.0302(6)
C1_9 C 0.7837(6) 0.1987(4) 0.1995(8)
C2_9 C 0.7454(6) 0.1429(4) 0.1525(8)
C4_9 C 0.8430(6) 0.2947(4) 0.1407(9)
H4_9 H 0.8456 0.3158 0.0590
C5_9 C 0.9005(4) 0.3029(3) 0.1613(8)
C11_9 C 0.7259(6) 0.1244(4) 0.0275(8)
C12_9 C 0.7212(6) 0.0964(4) 0.2318(8)
H8_9 H 0.7263 0.0962 0.3245
C14_9 C 0.8213(11) 0.3164(8) 0.2463(18)
H12_9 H 0.7879 0.3151 0.2146
H13_9 H 0.8488 0.3543 0.2669
H14_9 H 0.8131 0.2940 0.3260
H7_9 H 0.7346 0.1467 0.9510
loop_
_geom_bond_atom_site_label_1
_geom_bond_atom_site_label_2
_geom_bond_site_symmetry_1
_geom_bond_site_symmetry_2
O1 C10 1_555 1_555
O4 C10 1_555 1_555
N1 H1 1_555 1_555
N3 Zn1 1_555 1_555
O6 C8 1_555 1_555
N4 N3 1_555 1_555
C3 N4 1_555 1_555
H3 C3 1_555 1_555
C6 N1 1_555 1_555
H5 C6 1_555 1_555
C7 N3 1_555 1_555
H6 C7 1_555 1_555
C8 N1 1_555 1_555
C9 C3 1_555 1_555
C10 C6 1_555 1_555
C13 C6 1_555 1_555
H9 C13 1_555 1_555
H10 C13 1_555 1_555
H11 C13 1_555 1_555
Zn4 O4 1_555 1_555
Zn6 O1 1_555 1_555
O8 Zn1 1_555 1_555
C7 C9 1_555 1_555
C8 C9 1_555 1_555
Zn2 N5 1_555 1_555
O2 C5 1_555 1_555
O3 C5 1_555 1_555
N2 H2 1_555 1_555
O5 C1 1_555 1_555
N5 N6 1_555 1_555
C1 N2 1_555 1_555
C2 C1 1_555 1_555
N6 C12 1_555 1_555
C4 N2 1_555 1_555
H4 C4 1_555 1_555
C5 C4 1_555 1_555
C11 N5 1_555 1_555
H7 C11 1_555 1_555
C12 C2 1_555 1_555
H8 C12 1_555 1_555
C14 C4 1_555 1_555
H12 C14 1_555 1_555
H13 C14 1_555 1_555
H14 C14 1_555 1_555
Zn3 O3 1_555 1_555
O7 Zn2 1_555 1_555
O9 Zn2 1_555 1_555
C2 C11 1_555 1_555
Zn2_2 N5_2 1_555 1_555
O2_2 C5_2 1_555 1_555
O3_2 C5_2 1_555 1_555
N2_2 H2_2 1_555 1_555
O5_2 C1_2 1_555 1_555
N5_2 N6_2 1_555 1_555
C1_2 N2_2 1_555 1_555
C2_2 C1_2 1_555 1_555
N6_2 C12_2 1_555 1_555
C4_2 N2_2 1_555 1_555
H4_2 C4_2 1_555 1_555
C5_2 C4_2 1_555 1_555
C11_2 N5_2 1_555 1_555
H7_2 C11_2 1_555 1_555
C12_2 C2_2 1_555 1_555
H8_2 C12_2 1_555 1_555
C14_2 C4_2 1_555 1_555
H12_2 C14_2 1_555 1_555
H13_2 C14_2 1_555 1_555
H14_2 C14_2 1_555 1_555
Zn3_2 O3_2 1_555 1_555
O7_2 Zn2_2 1_555 1_555
O9_2 Zn2_2 1_555 1_555
C2_2 C11_2 1_555 1_555
O1_2 C10_2 1_555 1_555
O4_2 C10_2 1_555 1_555
N1_2 H1_2 1_555 1_555
N3_2 Zn1_2 1_555 1_555
O6_2 C8_2 1_555 1_555
N4_2 N3_2 1_555 1_555
C3_2 N4_2 1_555 1_555
H3_2 C3_2 1_555 1_555
C6_2 N1_2 1_555 1_555
H5_2 C6_2 1_555 1_555
C7_2 N3_2 1_555 1_555
H6_2 C7_2 1_555 1_555
C8_2 N1_2 1_555 1_555
C9_2 C3_2 1_555 1_555
C10_2 C6_2 1_555 1_555
C13_2 C6_2 1_555 1_555
H9_2 C13_2 1_555 1_555
H10_2 C13_2 1_555 1_555
H11_2 C13_2 1_555 1_555
Zn5 O4_2 1_555 1_555
Zn6_2 O1_2 1_555 1_555
O8_2 Zn1_2 1_555 1_555
C7_2 C9_2 1_555 1_555
C8_2 C9_2 1_555 1_555
Zn1_3 O2_3 1_555 1_555
Zn2_3 N5_3 1_555 1_555
O1_3 C10_3 1_555 1_555
O2_3 C5_3 1_555 1_555
O3_3 C5_3 1_555 1_555
O4_3 C10_3 1_555 1_555
N1_3 H1_3 1_555 1_555
N2_3 H2_3 1_555 1_555
N3_3 Zn1_3 1_555 1_555
O5_3 C1_3 1_555 1_555
O6_3 C8_3 1_555 1_555
N4_3 N3_3 1_555 1_555
N5_3 N6_3 1_555 1_555
C1_3 N2_3 1_555 1_555
C2_3 C1_3 1_555 1_555
N6_3 C12_3 1_555 1_555
C3_3 N4_3 1_555 1_555
H3_3 C3_3 1_555 1_555
C4_3 N2_3 1_555 1_555
H4_3 C4_3 1_555 1_555
C5_3 C4_3 1_555 1_555
C6_3 N1_3 1_555 1_555
H5_3 C6_3 1_555 1_555
C7_3 N3_3 1_555 1_555
H6_3 C7_3 1_555 1_555
C8_3 N1_3 1_555 1_555
C9_3 C3_3 1_555 1_555
C10_3 C6_3 1_555 1_555
C11_3 N5_3 1_555 1_555
H7_3 C11_3 1_555 1_555
C12_3 C2_3 1_555 1_555
H8_3 C12_3 1_555 1_555
C13_3 C6_3 1_555 1_555
H9_3 C13_3 1_555 1_555
H10_3 C13_3 1_555 1_555
H11_3 C13_3 1_555 1_555
C14_3 C4_3 1_555 1_555
H12_3 C14_3 1_555 1_555
H13_3 C14_3 1_555 1_555
H14_3 C14_3 1_555 1_555
Zn3_3 O3_3 1_555 1_555
Zn5_2 O4_3 1_555 1_555
Zn4 N6_3 1_555 1_555
Zn6_3 O1_3 1_555 1_555
O7_3 Zn2_3 1_555 1_555
O8_3 Zn1_3 1_555 1_555
O9_3 Zn2_3 1_555 1_555
N7_3 Zn1_3 1_555 1_555
N8_3 Zn2_3 1_555 1_555
N4_3 Zn3_3 1_555 1_555
C2_3 C11_3 1_555 1_555
C7_3 C9_3 1_555 1_555
C8_3 C9_3 1_555 1_555
O6_4 C8_4 1_555 1_555
C3_4 N4_4 1_555 1_555
H3_4 C3_4 1_555 1_555
Zn3_2 O2_4 1_555 1_555
Zn4 N5_4 1_555 1_555
O2_4 C5_4 1_555 1_555
O3_4 C5_4 1_555 1_555
O4_4 C10_4 1_555 1_555
N1_4 H1_4 1_555 1_555
N2_4 H2_4 1_555 1_555
N3_4 Zn3_2 1_555 1_555
O5_4 C1_4 1_555 1_555
N5_4 N6_4 1_555 1_555
C1_4 N2_4 1_555 1_555
C2_4 C1_4 1_555 1_555
N6_4 C12_4 1_555 1_555
C4_4 N2_4 1_555 1_555
H4_4 C4_4 1_555 1_555
C5_4 C4_4 1_555 1_555
C6_4 N1_4 1_555 1_555
C7_4 N3_4 1_555 1_555
H6_4 C7_4 1_555 1_555
C10_4 C6_4 1_555 1_555
C11_4 N5_4 1_555 1_555
H7_4 C11_4 1_555 1_555
C12_4 C2_4 1_555 1_555
H8_4 C12_4 1_555 1_555
C13_4 C6_4 1_555 1_555
H9_4 C13_4 1_555 1_555
H10_4 C13_4 1_555 1_555
H11_4 C13_4 1_555 1_555
C14_4 C4_4 1_555 1_555
H12_4 C14_4 1_555 1_555
H14_4 C14_4 1_555 1_555
Zn6 N6_4 1_555 1_555
O7_4 Zn4 1_555 1_555
C2_4 C11_4 1_555 1_555
C7_4 C9_4 1_555 1_555
O7_5 Zn5 1_555 1_555
O6_5 C8_5 1_555 1_555
C3_5 N4_5 1_555 1_555
H3_5 C3_5 1_555 1_555
N4_5 Zn3_5 1_555 1_555
Zn3_3 O2_5 1_555 1_555
O2_5 C5_5 1_555 1_555
O3_6 C5_5 1_555 1_555
O4_5 C10_5 1_555 1_555
N1_5 H1_5 1_555 1_555
N2_5 H2_5 1_555 1_555
N3_5 Zn3_3 1_555 1_555
O5_5 C1_5 1_555 1_555
N5_5 N6_5 1_555 1_555
C1_5 N2_5 1_555 1_555
C2_5 C1_5 1_555 1_555
N6_5 C12_5 1_555 1_555
C4_5 N2_5 1_555 1_555
H4_5 C4_5 1_555 1_555
C5_5 C4_5 1_555 1_555
C6_5 N1_5 1_555 1_555
C7_5 N3_5 1_555 1_555
H6_5 C7_5 1_555 1_555
C10_5 C6_5 1_555 1_555
C11_5 N5_5 1_555 1_555
H7_5 C11_5 1_555 1_555
C12_5 C2_5 1_555 1_555
H8_5 C12_5 1_555 1_555
C13_5 C6_5 1_555 1_555
H9_5 C13_5 1_555 1_555
H10_5 C13_5 1_555 1_555
H11_5 C13_5 1_555 1_555
C14_5 C4_5 1_555 1_555
H12_5 C14_5 1_555 1_555
H13_5 C14_5 1_555 1_555
H14_5 C14_5 1_555 1_555
Zn6 O4_5 1_555 1_555
C2_5 C11_5 1_555 1_555
C7_5 C9_5 1_555 1_555
O6_6 C8_6 1_555 1_555
C3_6 N4_6 1_555 1_555
H3_6 C3_6 1_555 1_555
Zn3 O2_6 1_555 1_555
O2_6 C5_6 1_555 1_555
O3_8 C5_6 1_555 1_555
O4_6 C10_6 1_555 1_555
N1_6 H1_6 1_555 1_555
N2_6 H2_6 1_555 1_555
N3_6 Zn3 1_555 1_555
O5_6 C1_6 1_555 1_555
N5_6 N6_6 1_555 1_555
C1_6 N2_6 1_555 1_555
C2_6 C1_6 1_555 1_555
N6_6 C12_6 1_555 1_555
C4_6 N2_6 1_555 1_555
H4_6 C4_6 1_555 1_555
C5_6 C4_6 1_555 1_555
C6_6 N1_6 1_555 1_555
C7_6 N3_6 1_555 1_555
H6_6 C7_6 1_555 1_555
C10_6 C6_6 1_555 1_555
C11_6 N5_6 1_555 1_555
H7_6 C11_6 1_555 1_555
C12_6 C2_6 1_555 1_555
H8_6 C12_6 1_555 1_555
C13_6 C6_6 1_555 1_555
H9_6 C13_6 1_555 1_555
H10_6 C13_6 1_555 1_555
H11_6 C13_6 1_555 1_555
C14_6 C4_6 1_555 1_555
H12_6 C14_6 1_555 1_555
H14_6 C14_6 1_555 1_555
C2_6 C11_6 1_555 1_555
C7_6 C9_6 1_555 1_555
O7_6 Zn5_2 1_555 1_555
Zn3_5 O2_7 1_555 1_555
O2_7 C5_7 1_555 1_555
O8_3 C5_7 1_555 1_555
O9 C10_7 1_555 1_555
N1_7 H1_7 1_555 1_555
N2_7 H2_7 1_555 1_555
N3_7 Zn3_5 1_555 1_555
O5_7 C1_7 1_555 1_555
O6_7 C8_7 1_555 1_555
N7_3 N3_7 1_555 1_555
N5_7 N8_2 1_555 1_555
C1_7 N2_7 1_555 1_555
C2_7 C1_7 1_555 1_555
N8_2 C12_7 1_555 1_555
C3_7 N7_3 1_555 1_555
H3_7 C3_7 1_555 1_555
C4_7 N2_7 1_555 1_555
H4_7 C4_7 1_555 1_555
C5_7 C4_7 1_555 1_555
C6_7 N1_7 1_555 1_555
H5_7 C6_7 1_555 1_555
C7_7 N3_7 1_555 1_555
H6_7 C7_7 1_555 1_555
C8_7 N1_7 1_555 1_555
C9_7 C3_7 1_555 1_555
C10_7 C6_7 1_555 1_555
C11_7 N5_7 1_555 1_555
C12_7 C2_7 1_555 1_555
H8_7 C12_7 1_555 1_555
C13_7 C6_7 1_555 1_555
H9_7 C13_7 1_555 1_555
H11_7 C13_7 1_555 1_555
C14_7 C4_7 1_555 1_555
H12_7 C14_7 1_555 1_555
H13_7 C14_7 1_555 1_555
H14_7 C14_7 1_555 1_555
C2_7 C11_7 1_555 1_555
C7_7 C9_7 1_555 1_555
C8_7 C9_7 1_555 1_555
Zn3_6 O2_8 1_555 1_555
O2_8 C5_8 1_555 1_555
O8 C5_8 1_555 1_555
N2_8 H2_8 1_555 1_555
O5_8 C1_8 1_555 1_555
N5_8 N8_3 1_555 1_555
C1_8 N2_8 1_555 1_555
C2_8 C1_8 1_555 1_555
N8_3 C12_8 1_555 1_555
C4_8 N2_8 1_555 1_555
H4_8 C4_8 1_555 1_555
C5_8 C4_8 1_555 1_555
C11_8 N5_8 1_555 1_555
C12_8 C2_8 1_555 1_555
H8_8 C12_8 1_555 1_555
C14_8 C4_8 1_555 1_555
H12_8 C14_8 1_555 1_555
H13_8 C14_8 1_555 1_555
H14_8 C14_8 1_555 1_555
C2_8 C11_8 1_555 1_555
O9_2 C10_8 1_555 1_555
N1_8 H1_8 1_555 1_555
O6_8 C8_8 1_555 1_555
N7 N3_8 1_555 1_555
C3_8 N7 1_555 1_555
H3_8 C3_8 1_555 1_555
C6_8 N1_8 1_555 1_555
H5_8 C6_8 1_555 1_555
C7_8 N3_8 1_555 1_555
H6_8 C7_8 1_555 1_555
C8_8 N1_8 1_555 1_555
C9_8 C3_8 1_555 1_555
C10_8 C6_8 1_555 1_555
C13_8 C6_8 1_555 1_555
H9_8 C13_8 1_555 1_555
H11_8 C13_8 1_555 1_555
C7_8 C9_8 1_555 1_555
C8_8 C9_8 1_555 1_555
O7_4 C10_9 1_555 1_555
O9_3 C10_9 1_555 1_555
N1_9 H1_9 1_555 1_555
O6_9 C8_9 1_555 1_555
N7_2 N3_9 1_555 1_555
C3_9 N7_2 1_555 1_555
H3_9 C3_9 1_555 1_555
C6_9 N1_9 1_555 1_555
H5_9 C6_9 1_555 1_555
C7_9 N3_9 1_555 1_555
H6_9 C7_9 1_555 1_555
C8_9 N1_9 1_555 1_555
C9_9 C3_9 1_555 1_555
C10_9 C6_9 1_555 1_555
C13_9 C6_9 1_555 1_555
H9_9 C13_9 1_555 1_555
H10_9 C13_9 1_555 1_555
H11_9 C13_9 1_555 1_555
C7_9 C9_9 1_555 1_555
C8_9 C9_9 1_555 1_555
Zn3_4 O2_9 1_555 1_555
O2_9 C5_9 1_555 1_555
O8_2 C5_9 1_555 1_555
N2_9 H2_9 1_555 1_555
O5_9 C1_9 1_555 1_555
N5_9 N8 1_555 1_555
C1_9 N2_9 1_555 1_555
C2_9 C1_9 1_555 1_555
N8 C12_9 1_555 1_555
C4_9 N2_9 1_555 1_555
H4_9 C4_9 1_555 1_555
C5_9 C4_9 1_555 1_555
C11_9 N5_9 1_555 1_555
C12_9 C2_9 1_555 1_555
H8_9 C12_9 1_555 1_555
C14_9 C4_9 1_555 1_555
H12_9 C14_9 1_555 1_555
H13_9 C14_9 1_555 1_555
H14_9 C14_9 1_555 1_555
C2_9 C11_9 1_555 1_555

#END
