
###############################################################################
#
# This file contains modified crystal structure data generated from the
# MOF subset of the Cambridge Structural Database (CSD) v543 
# hosted by the Cambridge Crystallographic Data Centre (CCDC).
#
# This work is licensed under the Creative Commons
# Attribution-NonCommercial-ShareAlike 4.0 International License.
# To view a copy of this license, visit
# http://creativecommons.org/licenses/by-nc-sa/4.0/
# or send a letter to
# Creative Commons, PO Box 1866, Mountain View, CA 94042, USA.
#
# CIF created using the CSD Python API on 29 September 2022
# The structure has been converted into the P1 space group
# The structure has a 3D framework
# The original CSD entry VUWYOE is in the rhombohedral crystal system
# The original CSD entry VUWYOE is in a Sohncke space group
# The framework has been calculated to contain at least 10.0% void space
# The void calculation uses a probe of radius 1.32A, grid spacing 0.4
#
###############################################################################

data_VUWYOE
_chemical_formula_moiety         '(C126 H126 N54 O51 Zn13)n'
_symmetry_cell_setting           triclinic
_symmetry_space_group_name_H-M   'P 1'
_symmetry_Int_Tables_number      1
_space_group_name_Hall           'P 1'
loop_
_symmetry_equiv_pos_site_id
_symmetry_equiv_pos_as_xyz
1 x,y,z
_cell_length_a                   28.3178(4)
_cell_length_b                   28.3178(4)
_cell_length_c                   10.1489(2)
_cell_angle_alpha                90
_cell_angle_beta                 90
_cell_angle_gamma                120
_cell_volume                     7048.04
loop_
_atom_site_label
_atom_site_type_symbol
_atom_site_fract_x
_atom_site_fract_y
_atom_site_fract_z
Zn1 Zn 0.67010(3) 0.64613(3) 0.79363(5)
Zn2 Zn 0.33712(3) 0.35718(3) 0.63695(6)
O1 O 0.40224(19) 0.33203(18) 0.4442(4)
O2 O 0.41625(19) 0.3854(2) 0.6200(5)
O3 O 0.07339(19) 0.40583(19) 0.2604(4)
O4 O 0.1997(2) 0.4095(2) 0.2070(5)
O5 O 0.08176(18) 0.36250(19) 0.4355(5)
N1 N 0.1950(2) 0.4330(2) 0.4172(5)
H1 H 0.2067 0.4351 0.4985
N2 N 0.5277(2) 0.4293(2) 0.5787(5)
H2 H 0.5340 0.4403 0.6612
O6 O 0.5501(2) 0.4514(2) 0.3644(5)
N3 N 0.6375(2) 0.5978(2) 0.6415(5)
N4 N 0.3067(2) 0.3598(2) 0.3580(5)
C1 C 0.2515(3) 0.3952(3) 0.3662(6)
N5 N 0.3048(2) 0.3739(2) 0.4856(5)
N6 N 0.6441(2) 0.6133(2) 0.5115(5)
C2 C 0.2136(2) 0.4134(3) 0.3243(6)
C3 C 0.1556(2) 0.4513(3) 0.3896(7)
H3 H 0.1509 0.4662 0.4749
C4 C 0.4891(3) 0.3724(3) 0.5512(7)
H4 H 0.4998 0.3613 0.4678
C5 C 0.2723(2) 0.3958(3) 0.4907(6)
H5 H 0.2647 0.4098 0.5680
C6 C 0.5899(3) 0.5229(3) 0.5215(6)
C7 C 0.4320(3) 0.3640(2) 0.5363(6)
C8 C 0.5543(3) 0.4659(3) 0.4818(6)
C9 C 0.2749(3) 0.3720(3) 0.2858(6)
H6 H 0.2690 0.3659 0.1937
C10 C 0.6052(3) 0.5442(3) 0.6479(6)
H7 H 0.5941 0.5235 0.7269
C11 C 0.6154(3) 0.5680(3) 0.4395(6)
H8 H 0.6129 0.5670 0.3461
C12 C 0.0994(3) 0.4020(3) 0.3574(6)
C13 C 0.4879(3) 0.3360(3) 0.6645(9)
H9 H 0.5223 0.3355 0.6661
H10 H 0.4575 0.2988 0.6516
H11 H 0.4832 0.3504 0.7483
C14 C 0.1764(3) 0.4980(3) 0.2932(9)
H12 H 0.2100 0.5289 0.3273
H13 H 0.1488 0.5088 0.2810
H14 H 0.1839 0.4865 0.2084
Zn3 Zn 0.02054(3) 0.35730(4) 0.12696(5)
Zn4 Zn 0.00343(3) 0.31280(3) 0.46030(5)
Zn5 Zn 0.68720(3) 0.69064(4) 0.46030(5)
Zn6 Zn 0.35339(4) 0.32955(3) 0.30362(6)
O7 O 0.33464(18) 0.40354(26) 0.7775(4)
O8 O 0.66577(27) 0.59328(19) 0.9271(4)
O9 O 0.74843(18) 0.69583(19) 0.7688(5)
N7 N 0.3069(2) 0.2802(3) 0.6913(5)
N8 N 0.6359(3) 0.6892(2) 0.8448(5)
Zn1_2 Zn 0.35387(3) 0.02397(4) 0.79363(5)
O1_2 O 0.66797(18) 0.07021(26) 0.4442(4)
O2_2 O 0.6146(2) 0.03085(28) 0.6200(5)
N2_2 N 0.5707(2) 0.0984(3) 0.5787(5)
H2_2 H 0.5597 0.0937 0.6612
O6_2 O 0.5486(2) 0.0987(3) 0.3644(5)
N3_2 N 0.4022(2) 0.0397(3) 0.6415(5)
N6_2 N 0.3867(2) 0.0308(3) 0.5115(5)
C4_2 C 0.6276(3) 0.1167(4) 0.5512(7)
H4_2 H 0.6387 0.1385 0.4678
C6_2 C 0.4771(3) 0.0670(4) 0.5215(6)
C7_2 C 0.6360(2) 0.0680(4) 0.5363(6)
C8_2 C 0.5341(3) 0.0884(4) 0.4818(6)
C10_2 C 0.4558(3) 0.0610(4) 0.6479(6)
H7_2 H 0.4765 0.0706 0.7269
C11_2 C 0.4320(3) 0.0474(4) 0.4395(6)
H8_2 H 0.4330 0.0459 0.3461
C13_2 C 0.6640(3) 0.1519(4) 0.6645(9)
H9_2 H 0.6645 0.1868 0.6661
H10_2 H 0.7012 0.1587 0.6516
H11_2 H 0.6496 0.1328 0.7483
Zn6_2 Zn 0.67045(3) 0.02385(5) 0.30362(6)
O8_2 O 0.40672(19) 0.07250(33) 0.9271(4)
O9_2 O 0.30417(19) 0.05259(26) 0.7688(5)
N7_2 N 0.7198(3) 0.0266(4) 0.6913(5)
Zn2_2 Zn 0.64282(3) 0.97994(4) 0.63695(6)
O3_2 O 0.59417(19) 0.66756(27) 0.2604(4)
O4_2 O 0.5905(2) 0.7902(3) 0.2070(5)
O5_2 O 0.63750(19) 0.71926(26) 0.4355(5)
N1_2 N 0.5670(2) 0.7620(3) 0.4172(5)
H1_2 H 0.5649 0.7716 0.4985
N4_2 N 0.6402(2) 0.9469(3) 0.3580(5)
C1_2 C 0.6048(3) 0.8563(4) 0.3662(6)
N5_2 N 0.6261(2) 0.9309(3) 0.4856(5)
C2_2 C 0.5866(3) 0.8002(4) 0.3243(6)
C3_2 C 0.5487(3) 0.7043(4) 0.3896(7)
H3_2 H 0.5338 0.6847 0.4749
C5_2 C 0.6042(3) 0.8765(4) 0.4907(6)
H5_2 H 0.5902 0.8549 0.5680
C9_2 C 0.6280(3) 0.9029(4) 0.2858(6)
H6_2 H 0.6341 0.9031 0.1937
C12_2 C 0.5980(3) 0.6974(4) 0.3574(6)
C14_2 C 0.5020(3) 0.6784(4) 0.2932(9)
H12_2 H 0.4711 0.6811 0.3273
H13_2 H 0.4912 0.6400 0.2810
H14_2 H 0.5135 0.6974 0.2084
Zn3_2 Zn 0.64270(4) 0.66323(5) 0.12696(5)
Zn5_2 Zn 0.30936(4) 0.99657(5) 0.46030(5)
O7_2 O 0.59646(26) 0.93109(32) 0.7775(4)
N8_2 N 0.3108(2) 0.9466(4) 0.8448(5)
Zn2_3 Zn 0.02006(4) 0.66288(3) 0.63695(6)
O3_3 O 0.33244(27) 0.92661(19) 0.2604(4)
O4_3 O 0.2098(3) 0.8003(2) 0.2070(5)
O5_3 O 0.28074(26) 0.91824(18) 0.4355(5)
N1_3 N 0.2380(3) 0.8050(2) 0.4172(5)
H1_3 H 0.2284 0.7933 0.4985
N4_3 N 0.0531(3) 0.6933(2) 0.3580(5)
C1_3 C 0.1437(4) 0.7485(3) 0.3662(6)
N5_3 N 0.0691(3) 0.6952(2) 0.4856(5)
C2_3 C 0.1998(4) 0.7864(2) 0.3243(6)
C3_3 C 0.2957(4) 0.8444(2) 0.3896(7)
H3_3 H 0.3153 0.8491 0.4749
C5_3 C 0.1235(4) 0.7277(2) 0.4907(6)
H5_3 H 0.1451 0.7353 0.5680
C9_3 C 0.0971(4) 0.7251(3) 0.2858(6)
H6_3 H 0.0969 0.7310 0.1937
C12_3 C 0.3026(4) 0.9006(3) 0.3574(6)
C14_3 C 0.3216(4) 0.8236(3) 0.2932(9)
H12_3 H 0.3189 0.7900 0.3273
H13_3 H 0.3600 0.8512 0.2810
H14_3 H 0.3026 0.8161 0.2084
Zn3_3 Zn 0.33677(5) 0.97946(3) 0.12696(5)
O7_3 O 0.06891(32) 0.66536(18) 0.7775(4)
N8_3 N 0.0534(4) 0.3641(3) 0.8448(5)
Zn1_3 Zn 0.97603(4) 0.32990(3) 0.79363(5)
O1_3 O 0.92979(26) 0.59776(19) 0.4442(4)
O2_3 O 0.96915(28) 0.58375(19) 0.6200(5)
N2_3 N 0.9016(3) 0.4723(2) 0.5787(5)
H2_3 H 0.9063 0.4660 0.6612
O6_3 O 0.9013(3) 0.4499(2) 0.3644(5)
N3_3 N 0.9603(3) 0.3625(2) 0.6415(5)
N6_3 N 0.9692(3) 0.3559(2) 0.5115(5)
C4_3 C 0.8833(4) 0.5109(3) 0.5512(7)
H4_3 H 0.8615 0.5002 0.4678
C6_3 C 0.9330(4) 0.4101(3) 0.5215(6)
C7_3 C 0.9320(4) 0.5680(3) 0.5363(6)
C8_3 C 0.9116(4) 0.4457(3) 0.4818(6)
C10_3 C 0.9390(4) 0.3948(3) 0.6479(6)
H7_3 H 0.9294 0.4059 0.7269
C11_3 C 0.9526(4) 0.3846(3) 0.4395(6)
H8_3 H 0.9541 0.3871 0.3461
C13_3 C 0.8481(4) 0.5121(3) 0.6645(9)
H9_3 H 0.8132 0.4777 0.6661
H10_3 H 0.8413 0.5425 0.6516
H11_3 H 0.8672 0.5168 0.7483
Zn6_3 Zn 0.97615(5) 0.64661(4) 0.30362(6)
O8_3 O 0.92750(33) 0.33423(27) 0.9271(4)
O9_3 O 0.94741(26) 0.25157(18) 0.7688(5)
N7_3 N 0.9734(4) 0.6931(2) 0.6913(5)
O9_4 O 0.41509(18) 0.02917(19) 0.1022(5)
N8_4 N 0.3025(3) 0.0226(2) 0.1782(5)
H7_4 H 0.2608 0.8568 0.0602
H11_4 H 0.1499 0.6837 0.0816
O7_4 O 0.00130(18) 0.73688(26) 0.1109(4)
Zn2_4 Zn 0.00379(3) 0.69051(3) 0.97028(6)
O2_4 O 0.08292(19) 0.7187(2) 0.9533(5)
N2_4 N 0.1944(2) 0.7626(2) 0.9120(5)
H2_4 H 0.2007 0.7736 0.9945
O6_4 O 0.2168(2) 0.7847(2) 0.6977(5)
N3_4 N 0.3042(2) 0.9311(2) 0.9748(5)
C4_4 C 0.1558(3) 0.7057(3) 0.8845(7)
H4_4 H 0.1665 0.6946 0.8011
C6_4 C 0.2566(3) 0.8562(3) 0.8548(6)
C7_4 C 0.0987(3) 0.6973(2) 0.8696(6)
C8_4 C 0.2210(3) 0.7992(3) 0.8151(6)
C10_4 C 0.2719(3) 0.8775(3) 0.9812(6)
C11_4 C 0.2821(3) 0.9013(3) 0.7728(6)
H8_4 H 0.2796 0.9003 0.6794
C13_4 C 0.1546(3) 0.6693(3) 0.9978(9)
H9_4 H 0.1890 0.6688 0.9994
H10_4 H 0.1242 0.6321 0.9849
N7_4 N 0.9735(2) 0.6136(3) 0.0247(5)
O3_4 O 0.74006(19) 0.73916(19) 0.5937(4)
O4_4 O 0.8664(2) 0.7428(2) 0.5403(5)
N1_4 N 0.8617(2) 0.7663(2) 0.7505(5)
H1_4 H 0.8734 0.7684 0.8318
C1_4 C 0.9182(3) 0.7285(3) 0.6995(6)
N5_4 N 0.9715(2) 0.7072(2) 0.8189(5)
C2_4 C 0.8803(2) 0.7467(3) 0.6576(6)
C3_4 C 0.8223(2) 0.7846(3) 0.7229(7)
H3_4 H 0.8176 0.7995 0.8082
C5_4 C 0.9390(2) 0.7291(3) 0.8240(6)
H5_4 H 0.9314 0.7431 0.9013
C9_4 C 0.9416(3) 0.7053(3) 0.6191(6)
H6_4 H 0.9357 0.6992 0.5270
C12_4 C 0.7661(3) 0.7353(3) 0.6907(6)
C14_4 C 0.8431(3) 0.8313(3) 0.6265(9)
H12_4 H 0.8767 0.8622 0.6606
H13_4 H 0.8155 0.8421 0.6143
H14_4 H 0.8506 0.8198 0.5417
H7_5 H 0.1432 0.4039 0.0602
H11_5 H 0.3163 0.4661 0.0816
O7_5 O 0.26312(26) 0.26443(32) 0.1109(4)
N7_5 N 0.3864(3) 0.3600(4) 0.0247(5)
Zn2_5 Zn 0.30949(3) 0.31327(4) 0.97028(6)
O2_5 O 0.2813(2) 0.36418(28) 0.9533(5)
O3_5 O 0.26084(19) 0.00089(27) 0.5937(4)
O4_5 O 0.2572(2) 0.1235(3) 0.5403(5)
N1_5 N 0.2337(2) 0.0953(3) 0.7505(5)
H1_5 H 0.2316 0.1049 0.8318
N2_5 N 0.2374(2) 0.4317(3) 0.9120(5)
H2_5 H 0.2264 0.4270 0.9945
O6_5 O 0.2153(2) 0.4320(3) 0.6977(5)
N3_5 N 0.0689(2) 0.3730(3) 0.9748(5)
C1_5 C 0.2715(3) 0.1896(4) 0.6995(6)
N5_5 N 0.2928(2) 0.2642(3) 0.8189(5)
C2_5 C 0.2533(3) 0.1335(4) 0.6576(6)
C3_5 C 0.2154(3) 0.0376(4) 0.7229(7)
H3_5 H 0.2005 0.0180 0.8082
C4_5 C 0.2943(3) 0.4500(4) 0.8845(7)
H4_5 H 0.3054 0.4718 0.8011
C5_5 C 0.2709(3) 0.2098(4) 0.8240(6)
H5_5 H 0.2569 0.1882 0.9013
C6_5 C 0.1438(3) 0.4003(4) 0.8548(6)
C7_5 C 0.3027(2) 0.4013(4) 0.8696(6)
C8_5 C 0.2008(3) 0.4217(4) 0.8151(6)
C9_5 C 0.2947(3) 0.2362(4) 0.6191(6)
H6_5 H 0.3008 0.2364 0.5270
C10_5 C 0.1225(3) 0.3943(4) 0.9812(6)
C11_5 C 0.0987(3) 0.3807(4) 0.7728(6)
H8_5 H 0.0997 0.3792 0.6794
C12_5 C 0.2647(3) 0.0307(4) 0.6907(6)
C13_5 C 0.3307(3) 0.4852(4) 0.9978(9)
H9_5 H 0.3312 0.5201 0.9994
H10_5 H 0.3679 0.4920 0.9849
C14_5 C 0.1687(3) 0.0117(4) 0.6265(9)
H12_5 H 0.1378 0.0144 0.6606
H14_5 H 0.1802 0.0307 0.5417
H13_5 H 0.1579 0.9733 0.6143
O9_5 O 0.97083(19) 0.38593(26) 0.1022(5)
N8_5 N 0.9774(2) 0.2800(4) 0.1782(5)
H13_6 H 0.0267 0.1845 0.6143
N7_6 N 0.6400(4) 0.0265(2) 0.0247(5)
O3_6 O 0.99911(27) 0.25994(19) 0.5937(4)
O4_6 O 0.8765(3) 0.1336(2) 0.5403(5)
N1_6 N 0.9047(3) 0.1383(2) 0.7505(5)
H1_6 H 0.8951 0.1266 0.8318
C1_6 C 0.8104(4) 0.0818(3) 0.6995(6)
N5_6 N 0.7358(3) 0.0285(2) 0.8189(5)
C2_6 C 0.8665(4) 0.1197(2) 0.6576(6)
C3_6 C 0.9624(4) 0.1777(2) 0.7229(7)
H3_6 H 0.9820 0.1824 0.8082
C5_6 C 0.7902(4) 0.0610(2) 0.8240(6)
H5_6 H 0.8118 0.0686 0.9013
C9_6 C 0.7638(4) 0.0584(3) 0.6191(6)
H6_6 H 0.7636 0.0643 0.5270
C12_6 C 0.9693(4) 0.2339(3) 0.6907(6)
C14_6 C 0.9883(4) 0.1569(3) 0.6265(9)
H12_6 H 0.9856 0.1233 0.6606
H14_6 H 0.9693 0.1494 0.5417
H7_6 H 0.5961 0.7392 0.0602
H11_6 H 0.5339 0.8501 0.0816
O7_6 O 0.73557(32) 0.99870(18) 0.1109(4)
O9_6 O 0.61407(26) 0.58491(18) 0.1022(5)
N8_6 N 0.7200(4) 0.6975(3) 0.1782(5)
Zn2_6 Zn 0.68673(4) 0.99621(3) 0.97028(6)
O2_6 O 0.63582(28) 0.91708(19) 0.9533(5)
N2_6 N 0.5683(3) 0.8056(2) 0.9120(5)
H2_6 H 0.5730 0.7993 0.9945
O6_6 O 0.5680(3) 0.7832(2) 0.6977(5)
N3_6 N 0.6270(3) 0.6958(2) 0.9748(5)
C4_6 C 0.5500(4) 0.8442(3) 0.8845(7)
H4_6 H 0.5282 0.8335 0.8011
C6_6 C 0.5997(4) 0.7434(3) 0.8548(6)
C7_6 C 0.5987(4) 0.9013(3) 0.8696(6)
C8_6 C 0.5783(4) 0.7790(3) 0.8151(6)
C10_6 C 0.6057(4) 0.7281(3) 0.9812(6)
C11_6 C 0.6193(4) 0.7179(3) 0.7728(6)
H8_6 H 0.6208 0.7204 0.6794
C13_6 C 0.5148(4) 0.8454(3) 0.9978(9)
H9_6 H 0.4799 0.8110 0.9994
H10_6 H 0.5080 0.8758 0.9849
O2_7 O 0.74958(19) 0.0521(2) 0.2867(5)
N1_7 N 0.5283(2) 0.0997(2) 0.0839(5)
H1_7 H 0.5400 0.1018 0.1652
N2_7 N 0.8610(2) 0.0960(2) 0.2454(5)
H2_7 H 0.8673 0.1070 0.3279
O6_7 O 0.8834(2) 0.1181(2) 0.0311(5)
N3_7 N 0.9708(2) 0.2645(2) 0.3082(5)
C1_7 C 0.5848(3) 0.0619(3) 0.0329(6)
N5_7 N 0.6381(2) 0.0406(2) 0.1523(5)
C3_7 C 0.4889(2) 0.1180(3) 0.0563(7)
H3_7 H 0.4842 0.1329 0.1416
C4_7 C 0.8224(3) 0.0391(3) 0.2179(7)
H4_7 H 0.8331 0.0280 0.1345
C5_7 C 0.6056(2) 0.0625(3) 0.1574(6)
H5_7 H 0.5980 0.0765 0.2347
C6_7 C 0.9232(3) 0.1896(3) 0.1882(6)
C7_7 C 0.7653(3) 0.0307(2) 0.2030(6)
C8_7 C 0.8876(3) 0.1326(3) 0.1485(6)
C10_7 C 0.9385(3) 0.2109(3) 0.3146(6)
H7_7 H 0.9274 0.1902 0.3936
C11_7 C 0.9487(3) 0.2347(3) 0.1062(6)
H8_7 H 0.9462 0.2337 0.0128
C12_7 C 0.4327(3) 0.0687(3) 0.0241(6)
C13_7 C 0.8212(3) 0.0027(3) 0.3312(9)
H9_7 H 0.8556 0.0022 0.3328
H11_7 H 0.8165 0.0171 0.4150
O4_7 O 0.5330(2) 0.0762(2) 0.8737(5)
C2_7 C 0.5469(2) 0.0801(3) 0.9910(6)
C9_7 C 0.6082(3) 0.0387(3) 0.9525(6)
H6_7 H 0.6023 0.0326 0.8604
C14_7 C 0.5097(3) 0.1647(3) 0.9599(9)
H12_7 H 0.5433 0.1956 0.9940
H13_7 H 0.4821 0.1755 0.9477
H14_7 H 0.5172 0.1532 0.8751
H10_7 H 0.7908 0.9655 0.3183
H10_8 H 0.0345 0.8254 0.3183
O2_8 O 0.9479(2) 0.69752(28) 0.2867(5)
N1_8 N 0.9003(2) 0.4287(3) 0.0839(5)
H1_8 H 0.8982 0.4383 0.1652
N2_8 N 0.9040(2) 0.7651(3) 0.2454(5)
H2_8 H 0.8930 0.7604 0.3279
O6_8 O 0.8819(2) 0.7654(3) 0.0311(5)
N3_8 N 0.7355(2) 0.7064(3) 0.3082(5)
C1_8 C 0.9381(3) 0.5230(4) 0.0329(6)
N5_8 N 0.9594(2) 0.5976(3) 0.1523(5)
C3_8 C 0.8820(3) 0.3710(4) 0.0563(7)
H3_8 H 0.8671 0.3514 0.1416
C4_8 C 0.9609(3) 0.7834(4) 0.2179(7)
H4_8 H 0.9720 0.8052 0.1345
C5_8 C 0.9375(3) 0.5432(4) 0.1574(6)
H5_8 H 0.9235 0.5216 0.2347
C6_8 C 0.8104(3) 0.7337(4) 0.1882(6)
C7_8 C 0.9693(2) 0.7347(4) 0.2030(6)
C8_8 C 0.8674(3) 0.7551(4) 0.1485(6)
C10_8 C 0.7891(3) 0.7277(4) 0.3146(6)
H7_8 H 0.8098 0.7373 0.3936
C11_8 C 0.7653(3) 0.7141(4) 0.1062(6)
H8_8 H 0.7663 0.7126 0.0128
C12_8 C 0.9313(3) 0.3641(4) 0.0241(6)
C13_8 C 0.9973(3) 0.8186(4) 0.3312(9)
H9_8 H 0.9978 0.8535 0.3328
H11_8 H 0.9829 0.7995 0.4150
O4_8 O 0.9238(2) 0.4569(3) 0.8737(5)
C2_8 C 0.9199(3) 0.4669(4) 0.9910(6)
C9_8 C 0.9613(3) 0.5696(4) 0.9525(6)
H6_8 H 0.9674 0.5698 0.8604
C14_8 C 0.8353(3) 0.3451(4) 0.9599(9)
H12_8 H 0.8044 0.3478 0.9940
H13_8 H 0.8245 0.3067 0.9477
H14_8 H 0.8468 0.3641 0.8751
O2_9 O 0.30248(28) 0.25042(19) 0.2867(5)
N1_9 N 0.5713(3) 0.4717(2) 0.0839(5)
H1_9 H 0.5617 0.4600 0.1652
N2_9 N 0.2349(3) 0.1390(2) 0.2454(5)
H2_9 H 0.2396 0.1327 0.3279
O6_9 O 0.2346(3) 0.1166(2) 0.0311(5)
N3_9 N 0.2936(3) 0.0292(2) 0.3082(5)
C1_9 C 0.4770(4) 0.4152(3) 0.0329(6)
N5_9 N 0.4024(3) 0.3619(2) 0.1523(5)
C3_9 C 0.6290(4) 0.5111(2) 0.0563(7)
H3_9 H 0.6486 0.5158 0.1416
C4_9 C 0.2166(4) 0.1776(3) 0.2179(7)
H4_9 H 0.1948 0.1669 0.1345
C5_9 C 0.4568(4) 0.3944(2) 0.1574(6)
H5_9 H 0.4784 0.4020 0.2347
C6_9 C 0.2663(4) 0.0768(3) 0.1882(6)
C7_9 C 0.2653(4) 0.2347(3) 0.2030(6)
C8_9 C 0.2449(4) 0.1124(3) 0.1485(6)
C10_9 C 0.2723(4) 0.0615(3) 0.3146(6)
H7_9 H 0.2627 0.0726 0.3936
C11_9 C 0.2859(4) 0.0513(3) 0.1062(6)
H8_9 H 0.2874 0.0538 0.0128
C12_9 C 0.6359(4) 0.5673(3) 0.0241(6)
C13_9 C 0.1814(4) 0.1788(3) 0.3312(9)
H9_9 H 0.1465 0.1444 0.3328
H10_9 H 0.1746 0.2092 0.3183
H11_9 H 0.2005 0.1835 0.4150
O4_9 O 0.5431(3) 0.4670(2) 0.8737(5)
C2_9 C 0.5331(4) 0.4531(2) 0.9910(6)
C9_9 C 0.4304(4) 0.3918(3) 0.9525(6)
H6_9 H 0.4302 0.3977 0.8604
C14_9 C 0.6549(4) 0.4903(3) 0.9599(9)
H12_9 H 0.6522 0.4567 0.9940
H13_9 H 0.6933 0.5179 0.9477
H14_9 H 0.6359 0.4828 0.8751
loop_
_geom_bond_atom_site_label_1
_geom_bond_atom_site_label_2
_geom_bond_site_symmetry_1
_geom_bond_site_symmetry_2
Zn1 N3 1_555 1_555
Zn2 O2 1_555 1_555
O1 C7 1_555 1_555
O2 C7 1_555 1_555
O3 C12 1_555 1_555
O4 C2 1_555 1_555
O5 C12 1_555 1_555
N1 H1 1_555 1_555
N2 H2 1_555 1_555
O6 C8 1_555 1_555
N3 N6 1_555 1_555
N4 N5 1_555 1_555
C1 C2 1_555 1_555
N5 Zn2 1_555 1_555
N6 C11 1_555 1_555
C2 N1 1_555 1_555
C3 N1 1_555 1_555
H3 C3 1_555 1_555
C4 N2 1_555 1_555
H4 C4 1_555 1_555
C5 C1 1_555 1_555
H5 C5 1_555 1_555
C6 C8 1_555 1_555
C7 C4 1_555 1_555
C8 N2 1_555 1_555
C9 N4 1_555 1_555
H6 C9 1_555 1_555
C10 N3 1_555 1_555
H7 C10 1_555 1_555
C11 C6 1_555 1_555
H8 C11 1_555 1_555
C12 C3 1_555 1_555
C13 C4 1_555 1_555
H9 C13 1_555 1_555
H10 C13 1_555 1_555
H11 C13 1_555 1_555
C14 C3 1_555 1_555
H12 C14 1_555 1_555
H13 C14 1_555 1_555
H14 C14 1_555 1_555
Zn3 O3 1_555 1_555
Zn4 O5 1_555 1_555
Zn5 N6 1_555 1_555
Zn6 O1 1_555 1_555
O7 Zn2 1_555 1_555
O8 Zn1 1_555 1_555
O9 Zn1 1_555 1_555
N7 Zn2 1_555 1_555
N8 Zn1 1_555 1_555
N4 Zn6 1_555 1_555
C1 C9 1_555 1_555
N5 C5 1_555 1_555
C6 C10 1_555 1_555
Zn1_2 N3_2 1_555 1_555
O1_2 C7_2 1_555 1_555
O2_2 C7_2 1_555 1_555
N2_2 H2_2 1_555 1_555
O6_2 C8_2 1_555 1_555
N3_2 N6_2 1_555 1_555
N6_2 C11_2 1_555 1_555
C4_2 N2_2 1_555 1_555
H4_2 C4_2 1_555 1_555
C6_2 C8_2 1_555 1_555
C7_2 C4_2 1_555 1_555
C8_2 N2_2 1_555 1_555
C10_2 N3_2 1_555 1_555
H7_2 C10_2 1_555 1_555
C11_2 C6_2 1_555 1_555
H8_2 C11_2 1_555 1_555
C13_2 C4_2 1_555 1_555
H9_2 C13_2 1_555 1_555
H10_2 C13_2 1_555 1_555
H11_2 C13_2 1_555 1_555
Zn6_2 O1_2 1_555 1_555
O8_2 Zn1_2 1_555 1_555
O9_2 Zn1_2 1_555 1_555
C6_2 C10_2 1_555 1_555
O3_2 C12_2 1_555 1_555
O4_2 C2_2 1_555 1_555
O5_2 C12_2 1_555 1_555
N1_2 H1_2 1_555 1_555
N4_2 N5_2 1_555 1_555
C1_2 C2_2 1_555 1_555
N5_2 Zn2_2 1_555 1_555
C2_2 N1_2 1_555 1_555
C3_2 N1_2 1_555 1_555
H3_2 C3_2 1_555 1_555
C5_2 C1_2 1_555 1_555
H5_2 C5_2 1_555 1_555
C9_2 N4_2 1_555 1_555
H6_2 C9_2 1_555 1_555
C12_2 C3_2 1_555 1_555
C14_2 C3_2 1_555 1_555
H12_2 C14_2 1_555 1_555
H13_2 C14_2 1_555 1_555
H14_2 C14_2 1_555 1_555
Zn3_2 O3_2 1_555 1_555
Zn5 O5_2 1_555 1_555
O7_2 Zn2_2 1_555 1_555
C1_2 C9_2 1_555 1_555
N5_2 C5_2 1_555 1_555
O3_3 C12_3 1_555 1_555
O4_3 C2_3 1_555 1_555
O5_3 C12_3 1_555 1_555
N1_3 H1_3 1_555 1_555
N4_3 N5_3 1_555 1_555
C1_3 C2_3 1_555 1_555
N5_3 Zn2_3 1_555 1_555
C2_3 N1_3 1_555 1_555
C3_3 N1_3 1_555 1_555
H3_3 C3_3 1_555 1_555
C5_3 C1_3 1_555 1_555
H5_3 C5_3 1_555 1_555
C9_3 N4_3 1_555 1_555
H6_3 C9_3 1_555 1_555
C12_3 C3_3 1_555 1_555
C14_3 C3_3 1_555 1_555
H12_3 C14_3 1_555 1_555
H13_3 C14_3 1_555 1_555
H14_3 C14_3 1_555 1_555
Zn3_3 O3_3 1_555 1_555
Zn5_2 O5_3 1_555 1_555
O7_3 Zn2_3 1_555 1_555
C1_3 C9_3 1_555 1_555
N5_3 C5_3 1_555 1_555
Zn1_3 N3_3 1_555 1_555
O1_3 C7_3 1_555 1_555
O2_3 C7_3 1_555 1_555
N2_3 H2_3 1_555 1_555
O6_3 C8_3 1_555 1_555
N3_3 N6_3 1_555 1_555
N6_3 C11_3 1_555 1_555
C4_3 N2_3 1_555 1_555
H4_3 C4_3 1_555 1_555
C6_3 C8_3 1_555 1_555
C7_3 C4_3 1_555 1_555
C8_3 N2_3 1_555 1_555
C10_3 N3_3 1_555 1_555
H7_3 C10_3 1_555 1_555
C11_3 C6_3 1_555 1_555
H8_3 C11_3 1_555 1_555
C13_3 C4_3 1_555 1_555
H9_3 C13_3 1_555 1_555
H10_3 C13_3 1_555 1_555
H11_3 C13_3 1_555 1_555
Zn6_3 O1_3 1_555 1_555
O8_3 Zn1_3 1_555 1_555
O9_3 Zn1_3 1_555 1_555
C6_3 C10_3 1_555 1_555
Zn2_4 O2_4 1_555 1_555
O7_3 C7_4 1_555 1_555
O2_4 C7_4 1_555 1_555
N2_4 H2_4 1_555 1_555
O6_4 C8_4 1_555 1_555
N3_4 N8_2 1_555 1_555
N8_2 C11_4 1_555 1_555
C4_4 N2_4 1_555 1_555
H4_4 C4_4 1_555 1_555
C6_4 C8_4 1_555 1_555
C7_4 C4_4 1_555 1_555
C8_4 N2_4 1_555 1_555
C10_4 N3_4 1_555 1_555
C11_4 C6_4 1_555 1_555
H8_4 C11_4 1_555 1_555
C13_4 C4_4 1_555 1_555
H9_4 C13_4 1_555 1_555
H10_4 C13_4 1_555 1_555
C6_4 C10_4 1_555 1_555
O3_4 C12_4 1_555 1_555
O4_4 C2_4 1_555 1_555
O9 C12_4 1_555 1_555
N1_4 H1_4 1_555 1_555
N7_3 N5_4 1_555 1_555
C1_4 C2_4 1_555 1_555
C2_4 N1_4 1_555 1_555
C3_4 N1_4 1_555 1_555
H3_4 C3_4 1_555 1_555
C5_4 C1_4 1_555 1_555
H5_4 C5_4 1_555 1_555
C9_4 N7_3 1_555 1_555
H6_4 C9_4 1_555 1_555
C12_4 C3_4 1_555 1_555
C14_4 C3_4 1_555 1_555
H12_4 C14_4 1_555 1_555
H13_4 C14_4 1_555 1_555
H14_4 C14_4 1_555 1_555
Zn5 O3_4 1_555 1_555
C1_4 C9_4 1_555 1_555
N5_4 C5_4 1_555 1_555
Zn2_5 O2_5 1_555 1_555
O7 C7_5 1_555 1_555
O2_5 C7_5 1_555 1_555
O3_5 C12_5 1_555 1_555
O4_5 C2_5 1_555 1_555
O9_2 C12_5 1_555 1_555
N1_5 H1_5 1_555 1_555
N2_5 H2_5 1_555 1_555
O6_5 C8_5 1_555 1_555
N3_5 N8_3 1_555 1_555
N7 N5_5 1_555 1_555
C1_5 C2_5 1_555 1_555
N5_5 Zn2_5 1_555 1_555
N8_3 C11_5 1_555 1_555
C2_5 N1_5 1_555 1_555
C3_5 N1_5 1_555 1_555
H3_5 C3_5 1_555 1_555
C4_5 N2_5 1_555 1_555
H4_5 C4_5 1_555 1_555
C5_5 C1_5 1_555 1_555
H5_5 C5_5 1_555 1_555
C6_5 C8_5 1_555 1_555
C7_5 C4_5 1_555 1_555
C8_5 N2_5 1_555 1_555
C9_5 N7 1_555 1_555
H6_5 C9_5 1_555 1_555
C10_5 N3_5 1_555 1_555
C11_5 C6_5 1_555 1_555
H8_5 C11_5 1_555 1_555
C12_5 C3_5 1_555 1_555
C13_5 C4_5 1_555 1_555
H9_5 C13_5 1_555 1_555
H10_5 C13_5 1_555 1_555
C14_5 C3_5 1_555 1_555
H12_5 C14_5 1_555 1_555
H14_5 C14_5 1_555 1_555
C1_5 C9_5 1_555 1_555
N5_5 C5_5 1_555 1_555
C6_5 C10_5 1_555 1_555
O3_6 C12_6 1_555 1_555
O4_6 C2_6 1_555 1_555
O9_3 C12_6 1_555 1_555
N1_6 H1_6 1_555 1_555
N7_2 N5_6 1_555 1_555
C1_6 C2_6 1_555 1_555
C2_6 N1_6 1_555 1_555
C3_6 N1_6 1_555 1_555
H3_6 C3_6 1_555 1_555
C5_6 C1_6 1_555 1_555
H5_6 C5_6 1_555 1_555
C9_6 N7_2 1_555 1_555
H6_6 C9_6 1_555 1_555
C12_6 C3_6 1_555 1_555
C14_6 C3_6 1_555 1_555
H12_6 C14_6 1_555 1_555
H14_6 C14_6 1_555 1_555
C1_6 C9_6 1_555 1_555
N5_6 C5_6 1_555 1_555
O9_6 Zn3_2 1_555 1_555
N8_6 Zn3_2 1_555 1_555
Zn2_6 O2_6 1_555 1_555
O7_2 C7_6 1_555 1_555
O2_6 C7_6 1_555 1_555
N2_6 H2_6 1_555 1_555
O6_6 C8_6 1_555 1_555
N3_6 N8 1_555 1_555
N8 C11_6 1_555 1_555
C4_6 N2_6 1_555 1_555
H4_6 C4_6 1_555 1_555
C6_6 C8_6 1_555 1_555
C7_6 C4_6 1_555 1_555
C8_6 N2_6 1_555 1_555
C10_6 N3_6 1_555 1_555
C11_6 C6_6 1_555 1_555
H8_6 C11_6 1_555 1_555
C13_6 C4_6 1_555 1_555
H9_6 C13_6 1_555 1_555
H10_6 C13_6 1_555 1_555
C6_6 C10_6 1_555 1_555
Zn6_2 O2_7 1_555 1_555
O2_7 C7_7 1_555 1_555
O9_4 C12_7 1_555 1_555
N1_7 H1_7 1_555 1_555
N2_7 H2_7 1_555 1_555
O6_7 C8_7 1_555 1_555
N3_7 N8_5 1_555 1_555
N7_6 N5_7 1_555 1_555
N5_7 Zn6_2 1_555 1_555
N8_5 C11_7 1_555 1_555
C3_7 N1_7 1_555 1_555
H3_7 C3_7 1_555 1_555
C4_7 N2_7 1_555 1_555
H4_7 C4_7 1_555 1_555
C5_7 C1_7 1_555 1_555
H5_7 C5_7 1_555 1_555
C6_7 C8_7 1_555 1_555
C7_7 C4_7 1_555 1_555
C8_7 N2_7 1_555 1_555
C10_7 N3_7 1_555 1_555
H7_7 C10_7 1_555 1_555
C11_7 C6_7 1_555 1_555
H8_7 C11_7 1_555 1_555
C12_7 C3_7 1_555 1_555
C13_7 C4_7 1_555 1_555
H9_7 C13_7 1_555 1_555
H11_7 C13_7 1_555 1_555
N5_7 C5_7 1_555 1_555
C6_7 C10_7 1_555 1_555
O4_7 C2_7 1_555 1_555
H6_7 C9_7 1_555 1_555
H12_7 C14_7 1_555 1_555
H13_7 C14_7 1_555 1_555
H14_7 C14_7 1_555 1_555
Zn5 N3_8 1_555 1_555
Zn6_3 O2_8 1_555 1_555
O2_8 C7_8 1_555 1_555
O9_5 C12_8 1_555 1_555
N1_8 H1_8 1_555 1_555
N2_8 H2_8 1_555 1_555
O6_8 C8_8 1_555 1_555
N3_8 N8_6 1_555 1_555
N7_4 N5_8 1_555 1_555
N5_8 Zn6_3 1_555 1_555
N8_6 C11_8 1_555 1_555
C3_8 N1_8 1_555 1_555
H3_8 C3_8 1_555 1_555
C4_8 N2_8 1_555 1_555
H4_8 C4_8 1_555 1_555
C5_8 C1_8 1_555 1_555
H5_8 C5_8 1_555 1_555
C6_8 C8_8 1_555 1_555
C7_8 C4_8 1_555 1_555
C8_8 N2_8 1_555 1_555
C10_8 N3_8 1_555 1_555
H7_8 C10_8 1_555 1_555
C11_8 C6_8 1_555 1_555
H8_8 C11_8 1_555 1_555
C12_8 C3_8 1_555 1_555
C13_8 C4_8 1_555 1_555
H9_8 C13_8 1_555 1_555
H11_8 C13_8 1_555 1_555
N5_8 C5_8 1_555 1_555
C6_8 C10_8 1_555 1_555
O4_8 C2_8 1_555 1_555
H6_8 C9_8 1_555 1_555
H12_8 C14_8 1_555 1_555
H13_8 C14_8 1_555 1_555
H14_8 C14_8 1_555 1_555
Zn6 O2_9 1_555 1_555
O7_5 C7_9 1_555 1_555
O2_9 C7_9 1_555 1_555
O9_6 C12_9 1_555 1_555
N1_9 H1_9 1_555 1_555
N2_9 H2_9 1_555 1_555
O6_9 C8_9 1_555 1_555
N3_9 N8_4 1_555 1_555
N7_5 N5_9 1_555 1_555
N5_9 Zn6 1_555 1_555
N8_4 C11_9 1_555 1_555
C3_9 N1_9 1_555 1_555
H3_9 C3_9 1_555 1_555
C4_9 N2_9 1_555 1_555
H4_9 C4_9 1_555 1_555
C5_9 C1_9 1_555 1_555
H5_9 C5_9 1_555 1_555
C6_9 C8_9 1_555 1_555
C7_9 C4_9 1_555 1_555
C8_9 N2_9 1_555 1_555
C10_9 N3_9 1_555 1_555
H7_9 C10_9 1_555 1_555
C11_9 C6_9 1_555 1_555
H8_9 C11_9 1_555 1_555
C12_9 C3_9 1_555 1_555
C13_9 C4_9 1_555 1_555
H9_9 C13_9 1_555 1_555
H10_9 C13_9 1_555 1_555
H11_9 C13_9 1_555 1_555
N5_9 C5_9 1_555 1_555
C6_9 C10_9 1_555 1_555
O4_9 C2_9 1_555 1_555
H6_9 C9_9 1_555 1_555
H12_9 C14_9 1_555 1_555
H13_9 C14_9 1_555 1_555
H14_9 C14_9 1_555 1_555

#END
