
###############################################################################
#
# This file contains modified crystal structure data generated from the
# MOF subset of the Cambridge Structural Database (CSD) v543 
# hosted by the Cambridge Crystallographic Data Centre (CCDC).
#
# This work is licensed under the Creative Commons
# Attribution-NonCommercial-ShareAlike 4.0 International License.
# To view a copy of this license, visit
# http://creativecommons.org/licenses/by-nc-sa/4.0/
# or send a letter to
# Creative Commons, PO Box 1866, Mountain View, CA 94042, USA.
#
# CIF created using the CSD Python API on 29 September 2022
# The structure has been converted into the P1 space group
# The structure has a 3D framework
# The original CSD entry VUWYAQ is in the rhombohedral crystal system
# The original CSD entry VUWYAQ is in a Sohncke space group
# The framework has been calculated to contain at least 10.0% void space
# The void calculation uses a probe of radius 1.32A, grid spacing 0.4
#
###############################################################################

data_VUWYAQ
_chemical_formula_moiety         '(C126 H126 N54 O54 Zn14)n'
_symmetry_cell_setting           triclinic
_symmetry_space_group_name_H-M   'P 1'
_symmetry_Int_Tables_number      1
_space_group_name_Hall           'P 1'
loop_
_symmetry_equiv_pos_site_id
_symmetry_equiv_pos_as_xyz
1 x,y,z
_cell_length_a                   28.1915(6)
_cell_length_b                   28.1915(6)
_cell_length_c                   10.2028(2)
_cell_angle_alpha                90
_cell_angle_beta                 90
_cell_angle_gamma                120
_cell_volume                     7022.41
loop_
_atom_site_label
_atom_site_type_symbol
_atom_site_fract_x
_atom_site_fract_y
_atom_site_fract_z
Zn2 Zn 0.64137(3) 0.66267(3) 0.03868(5)
O3 O 0.6132(2) 0.58393(19) 0.0122(4)
N2 N 0.4018(2) 0.3637(3) 0.0497(5)
H3 H 0.5597 0.4600 0.0709
H6 H 0.6455 0.5164 0.0586
C9 C 0.4556(3) 0.3953(4) 0.0568(6)
H7 H 0.4768 0.4038 0.1347
Zn3 Zn 0.35247(3) 0.32840(4) 0.19799(5)
Zn5 Zn 0.02130(4) 0.35863(3) 0.03868(5)
O7 O 0.59367(31) 0.66782(18) 0.1731(4)
O8 O 0.26284(19) 0.26292(26) 0.0033(4)
N9 N 0.7184(4) 0.6925(3) 0.0922(5)
Zn1 Zn 0.30927(3) 0.31420(3) 0.86466(5)
N1 N 0.0682(3) 0.3714(2) 0.8859(4)
O1 O 0.2106(2) 0.4223(2) 0.6023(4)
O2 O 0.28038(18) 0.36438(17) 0.8455(4)
C1 C 0.5338(3) 0.4500(3) 0.8912(6)
N3 N 0.2375(2) 0.4336(2) 0.8117(5)
H1 H 0.2287 0.4332 0.8946
C2 C 0.1996(3) 0.4182(3) 0.7193(5)
N4 N 0.3862(2) 0.3603(2) 0.9204(5)
C3 C 0.3030(2) 0.4025(2) 0.7606(5)
C4 C 0.6363(2) 0.5670(3) 0.9350(6)
C5 C 0.2940(2) 0.4510(2) 0.7754(6)
H2 H 0.3028 0.4715 0.6906
O4 O 0.66551(18) 0.59251(25) 0.8398(4)
N5 N 0.5710(2) 0.4710(2) 0.9904(5)
C6 C 0.1224(3) 0.3938(2) 0.8906(6)
H4 H 0.1439 0.4059 0.9681
O5 O 0.5475(2) 0.4606(2) 0.7761(4)
C7 C 0.4314(3) 0.3909(3) 0.8510(5)
H5 H 0.4324 0.3958 0.7588
C8 C 0.6289(3) 0.5110(3) 0.9694(7)
C10 C 0.4763(3) 0.4143(3) 0.9316(5)
O6 O 0.33342(18) 0.40383(19) 0.6700(4)
C11 C 0.1429(4) 0.3967(3) 0.7640(6)
N6 N 0.0517(4) 0.3592(3) 0.7589(5)
C12 C 0.0961(5) 0.3750(4) 0.6857(6)
H8 H 0.0960 0.3719 0.5930
C13 C 0.3331(3) 0.4890(3) 0.8827(8)
H9 H 0.3287 0.5212 0.8918
H10 H 0.3710 0.5007 0.8583
H11 H 0.3244 0.4692 0.9663
C14 C 0.6593(4) 0.4921(4) 0.8904(10)
H12 H 0.6419 0.4803 0.8042
H13 H 0.6593 0.4612 0.9344
H14 H 0.6971 0.5220 0.8794
Zn4 Zn 0.33826(4) 0.35740(3) 0.53133(5)
Zn7 Zn 0.67066(3) 0.64537(4) 0.70535(5)
N7 N 0.6286(2) 0.6968(4) 0.8859(4)
N8 N 0.2952(4) 0.2649(2) 0.7164(5)
Zn6 Zn 0.97470(3) 0.32934(3) 0.70535(5)
O3_2 O 0.41607(19) 0.02927(28) 0.0122(4)
N2_2 N 0.6363(3) 0.0381(4) 0.0497(5)
H3_2 H 0.5400 0.0997 0.0709
H6_2 H 0.4836 0.1291 0.0586
C9_2 C 0.6047(4) 0.0603(5) 0.0568(6)
H7_2 H 0.5962 0.0730 0.1347
Zn3_2 Zn 0.67160(4) 0.02406(5) 0.19799(5)
N9_2 N 0.3075(3) 0.0258(5) 0.0922(5)
C1_2 C 0.5500(3) 0.0838(4) 0.8912(6)
N4_2 N 0.6397(2) 0.0259(3) 0.9204(5)
C4_2 C 0.4330(3) 0.0693(4) 0.9350(6)
O4_2 O 0.40749(25) 0.07300(31) 0.8398(4)
N5_2 N 0.5290(2) 0.1000(3) 0.9904(5)
O5_2 O 0.5394(2) 0.0869(3) 0.7761(4)
C7_2 C 0.6091(3) 0.0405(4) 0.8510(5)
H5_2 H 0.6042 0.0366 0.7588
C8_2 C 0.4890(3) 0.1179(4) 0.9694(7)
C10_2 C 0.5857(3) 0.0620(4) 0.9316(5)
C14_2 C 0.5079(4) 0.1672(6) 0.8904(10)
H12_2 H 0.5197 0.1616 0.8042
H13_2 H 0.5388 0.1981 0.9344
H14_2 H 0.4780 0.1751 0.8794
Zn7_2 Zn 0.35463(4) 0.02530(5) 0.70535(5)
N8_2 N 0.7351(2) 0.0304(4) 0.7164(5)
Zn2_2 Zn 0.33733(3) 0.97870(4) 0.03868(5)
O7_2 O 0.33218(18) 0.92584(36) 0.1731(4)
O8_2 O 0.73708(26) 0.99991(32) 0.0033(4)
Zn1_2 Zn 0.68580(3) 0.99507(4) 0.86466(5)
O1_2 O 0.5777(2) 0.7883(3) 0.6023(4)
O2_2 O 0.63562(17) 0.91600(25) 0.8455(4)
N3_2 N 0.5664(2) 0.8039(3) 0.8117(5)
H1_2 H 0.5668 0.7955 0.8946
C2_2 C 0.5818(3) 0.7814(4) 0.7193(5)
C3_2 C 0.5975(2) 0.9005(3) 0.7606(5)
C5_2 C 0.5490(2) 0.8430(3) 0.7754(6)
H2_2 H 0.5285 0.8313 0.6906
C6_2 C 0.6062(2) 0.7286(4) 0.8906(6)
H4_2 H 0.5941 0.7380 0.9681
O6_2 O 0.59617(19) 0.92959(26) 0.6700(4)
C11_2 C 0.6033(3) 0.7462(5) 0.7640(6)
N6_2 N 0.6408(3) 0.6925(5) 0.7589(5)
C12_2 C 0.6250(4) 0.7211(6) 0.6857(6)
H8_2 H 0.6281 0.7241 0.5930
C13_2 C 0.5110(3) 0.8441(4) 0.8827(8)
H9_2 H 0.4788 0.8075 0.8918
H10_2 H 0.4993 0.8703 0.8583
H11_2 H 0.5308 0.8552 0.9663
Zn4_2 Zn 0.64260(3) 0.98087(5) 0.53133(5)
N7_2 N 0.3032(4) 0.9318(4) 0.8859(4)
O7_3 O 0.07416(36) 0.40633(31) 0.1731(4)
O8_3 O 0.00009(32) 0.73716(19) 0.0033(4)
Zn1_3 Zn 0.00493(4) 0.69073(3) 0.86466(5)
O1_3 O 0.2117(3) 0.7894(2) 0.6023(4)
O2_3 O 0.08400(25) 0.71962(18) 0.8455(4)
N3_3 N 0.1961(3) 0.7625(2) 0.8117(5)
H1_3 H 0.2045 0.7713 0.8946
C2_3 C 0.2186(4) 0.8004(3) 0.7193(5)
C3_3 C 0.0995(3) 0.6970(2) 0.7606(5)
C5_3 C 0.1570(3) 0.7060(2) 0.7754(6)
H2_3 H 0.1687 0.6972 0.6906
C6_3 C 0.2714(4) 0.8776(3) 0.8906(6)
H4_3 H 0.2620 0.8561 0.9681
O6_3 O 0.07041(26) 0.66658(18) 0.6700(4)
C11_3 C 0.2538(5) 0.8571(4) 0.7640(6)
N6_3 N 0.3075(5) 0.9483(4) 0.7589(5)
C12_3 C 0.2789(6) 0.9039(5) 0.6857(6)
H8_3 H 0.2759 0.9040 0.5930
C13_3 C 0.1559(4) 0.6669(3) 0.8827(8)
H9_3 H 0.1925 0.6713 0.8918
H10_3 H 0.1297 0.6290 0.8583
H11_3 H 0.1448 0.6756 0.9663
Zn4_3 Zn 0.01913(5) 0.66174(4) 0.53133(5)
O3_3 O 0.97073(28) 0.3868(2) 0.0122(4)
N2_3 N 0.9619(4) 0.5982(2) 0.0497(5)
H3_3 H 0.9003 0.4403 0.0709
H6_3 H 0.8709 0.3545 0.0586
C9_3 C 0.9397(5) 0.5444(3) 0.0568(6)
H7_3 H 0.9270 0.5232 0.1347
Zn3_3 Zn 0.97594(5) 0.64753(3) 0.19799(5)
N9_3 N 0.9742(5) 0.2816(4) 0.0922(5)
C1_3 C 0.9162(4) 0.4662(3) 0.8912(6)
N4_3 N 0.9741(3) 0.6138(2) 0.9204(5)
C4_3 C 0.9307(4) 0.3637(2) 0.9350(6)
O4_3 O 0.92700(31) 0.33449(18) 0.8398(4)
N5_3 N 0.9000(3) 0.4290(2) 0.9904(5)
O5_3 O 0.9131(3) 0.4525(2) 0.7761(4)
C7_3 C 0.9595(4) 0.5686(3) 0.8510(5)
H5_3 H 0.9634 0.5676 0.7588
C8_3 C 0.8821(4) 0.3711(3) 0.9694(7)
C10_3 C 0.9380(4) 0.5237(3) 0.9316(5)
C14_3 C 0.8328(6) 0.3407(4) 0.8904(10)
H12_3 H 0.8384 0.3581 0.8042
H13_3 H 0.8019 0.3407 0.9344
H14_3 H 0.8249 0.3029 0.8794
N8_3 N 0.9696(4) 0.7048(4) 0.7164(5)
N7_3 N 0.2953(2) 0.0301(4) 0.2192(4)
O7_4 O 0.26033(31) 0.00116(18) 0.5065(4)
N9_4 N 0.3850(4) 0.0259(3) 0.4256(5)
Zn2_3 Zn 0.30804(3) 0.99600(3) 0.37201(5)
O3_4 O 0.2799(2) 0.91726(19) 0.3455(4)
C1_4 C 0.2005(3) 0.7833(3) 0.2245(6)
N2_4 N 0.0685(2) 0.6970(3) 0.3830(5)
N4_4 N 0.0529(2) 0.6936(2) 0.2537(5)
C4_4 C 0.3030(2) 0.9003(3) 0.2683(6)
N5_4 N 0.2377(2) 0.8043(2) 0.3237(5)
H3_4 H 0.2264 0.7933 0.4042
O5_4 O 0.2142(2) 0.7939(2) 0.1094(4)
C7_4 C 0.0981(3) 0.7242(3) 0.1843(5)
H5_4 H 0.0991 0.7291 0.0921
C8_4 C 0.2956(3) 0.8443(3) 0.3027(7)
H6_4 H 0.3122 0.8497 0.3919
C9_4 C 0.1223(3) 0.7286(4) 0.3901(6)
H7_4 H 0.1435 0.7371 0.4680
C10_4 C 0.1430(3) 0.7476(3) 0.2649(5)
H10_4 H 0.0377 0.8340 0.1916
C14_4 C 0.3260(4) 0.8254(4) 0.2237(10)
H12_4 H 0.3086 0.8136 0.1375
H13_4 H 0.3260 0.7945 0.2677
H14_4 H 0.3638 0.8553 0.2127
N1_2 N 0.7349(3) 0.7047(2) 0.2192(4)
O2_4 O 0.94705(18) 0.69771(17) 0.1788(4)
N3_4 N 0.9042(2) 0.7669(2) 0.1450(5)
H1_4 H 0.8954 0.7665 0.2279
C2_4 C 0.8663(3) 0.7515(3) 0.0526(5)
C3_4 C 0.9697(2) 0.7358(2) 0.0939(5)
C5_4 C 0.9607(2) 0.7843(2) 0.1087(6)
H2_4 H 0.9695 0.8048 0.0239
C6_4 C 0.7891(3) 0.7271(2) 0.2239(6)
H4_4 H 0.8106 0.7392 0.3014
C11_4 C 0.8096(4) 0.7300(3) 0.0973(6)
C12_4 C 0.7628(5) 0.7083(4) 0.0190(6)
C13_4 C 0.9998(3) 0.8223(3) 0.2160(8)
H9_4 H 0.9954 0.8545 0.2251
H11_4 H 0.9911 0.8025 0.2996
Zn5_2 Zn 0.68797(4) 0.69196(3) 0.37201(5)
O8_4 O 0.92950(19) 0.59626(26) 0.3367(4)
Zn2_4 Zn 0.00400(3) 0.31203(4) 0.37201(5)
O2_5 O 0.30229(17) 0.24933(25) 0.1788(4)
O3_5 O 0.08274(19) 0.36260(28) 0.3455(4)
C1_5 C 0.2167(3) 0.4171(4) 0.2245(6)
N2_5 N 0.3030(3) 0.3714(4) 0.3830(5)
N3_5 N 0.2331(2) 0.1372(3) 0.1450(5)
H1_5 H 0.2335 0.1288 0.2279
C2_5 C 0.2485(3) 0.1147(4) 0.0526(5)
N4_5 N 0.3064(2) 0.3592(3) 0.2537(5)
C3_5 C 0.2642(2) 0.2338(3) 0.0939(5)
C4_5 C 0.0997(3) 0.4026(4) 0.2683(6)
C5_5 C 0.2157(2) 0.1763(3) 0.1087(6)
H2_5 H 0.1952 0.1646 0.0239
N5_5 N 0.1957(2) 0.4333(3) 0.3237(5)
H3_5 H 0.2067 0.4330 0.4042
C6_5 C 0.2729(2) 0.0619(4) 0.2239(6)
H4_5 H 0.2608 0.0713 0.3014
O5_5 O 0.2061(2) 0.4202(3) 0.1094(4)
C7_5 C 0.2758(3) 0.3738(4) 0.1843(5)
H5_5 H 0.2709 0.3699 0.0921
C8_5 C 0.1557(3) 0.4512(4) 0.3027(7)
H6_5 H 0.1503 0.4624 0.3919
C9_5 C 0.2714(4) 0.3936(5) 0.3901(6)
H7_5 H 0.2629 0.4063 0.4680
C10_5 C 0.2524(3) 0.3953(4) 0.2649(5)
C11_5 C 0.2700(3) 0.0795(5) 0.0973(6)
C12_5 C 0.2917(4) 0.0544(6) 0.0190(6)
C13_5 C 0.1777(3) 0.1774(4) 0.2160(8)
H9_5 H 0.1455 0.1408 0.2251
H10_5 H 0.1660 0.2036 0.1916
H11_5 H 0.1975 0.1885 0.2996
C14_5 C 0.1746(4) 0.5005(6) 0.2237(10)
H12_5 H 0.1864 0.4949 0.1375
H13_5 H 0.2055 0.5314 0.2677
H14_5 H 0.1447 0.5084 0.2127
O8_5 O 0.40374(26) 0.33325(32) 0.3367(4)
O1_4 O 0.2444(2) 0.1216(3) 0.9356(4)
H8_4 H 0.2948 0.0574 0.9263
N7_4 N 0.9699(4) 0.2651(4) 0.2192(4)
O7_5 O 0.99884(18) 0.25918(36) 0.5065(4)
N9_5 N 0.9741(3) 0.3592(5) 0.4256(5)
O2_6 O 0.75067(25) 0.05295(18) 0.1788(4)
N3_6 N 0.8628(3) 0.0958(2) 0.1450(5)
H1_6 H 0.8712 0.1046 0.2279
C2_6 C 0.8853(4) 0.1337(3) 0.0526(5)
C3_6 C 0.7662(3) 0.0303(2) 0.0939(5)
C5_6 C 0.8237(3) 0.0393(2) 0.1087(6)
H2_6 H 0.8354 0.0305 0.0239
C6_6 C 0.9381(4) 0.2109(3) 0.2239(6)
H4_6 H 0.9287 0.1894 0.3014
C11_6 C 0.9205(5) 0.1904(4) 0.0973(6)
C12_6 C 0.9456(6) 0.2372(5) 0.0190(6)
C13_6 C 0.8226(4) 0.0002(3) 0.2160(8)
H9_6 H 0.8592 0.0046 0.2251
H11_6 H 0.8115 0.0089 0.2996
O8_6 O 0.66675(32) 0.07050(19) 0.3367(4)
O3_6 O 0.63740(28) 0.7201(2) 0.3455(4)
C1_6 C 0.5829(4) 0.7995(3) 0.2245(6)
N2_6 N 0.6286(4) 0.9315(2) 0.3830(5)
N4_6 N 0.6408(3) 0.9471(2) 0.2537(5)
C4_6 C 0.5974(4) 0.6970(2) 0.2683(6)
N5_6 N 0.5667(3) 0.7623(2) 0.3237(5)
H3_6 H 0.5670 0.7736 0.4042
O5_6 O 0.5798(3) 0.7858(2) 0.1094(4)
C7_6 C 0.6262(4) 0.9019(3) 0.1843(5)
H5_6 H 0.6301 0.9009 0.0921
C8_6 C 0.5488(4) 0.7044(3) 0.3027(7)
H6_6 H 0.5376 0.6878 0.3919
C9_6 C 0.6064(5) 0.8777(3) 0.3901(6)
H7_6 H 0.5937 0.8565 0.4680
C10_6 C 0.6047(4) 0.8570(3) 0.2649(5)
H10_6 H 0.7964 0.9623 0.1916
C14_6 C 0.4995(6) 0.6740(4) 0.2237(10)
H12_6 H 0.5051 0.6914 0.1375
H13_6 H 0.4686 0.6740 0.2677
H14_6 H 0.4916 0.6362 0.2127
O7_6 O 0.74082(36) 0.73967(31) 0.5065(4)
N9_6 N 0.6408(5) 0.6150(4) 0.4256(5)
H14_7 H 0.0304 0.1887 0.5461
N1_3 N 0.4015(3) 0.0381(2) 0.5526(4)
O1_5 O 0.5439(2) 0.0890(2) 0.2690(4)
O2_7 O 0.61371(18) 0.03105(17) 0.5122(4)
O3_7 O 0.9465(2) 0.25060(19) 0.6789(4)
C1_7 C 0.8671(3) 0.1167(3) 0.5579(6)
N3_7 N 0.5708(2) 0.1003(2) 0.4784(5)
H1_7 H 0.5620 0.0999 0.5613
C2_7 C 0.5329(3) 0.0849(3) 0.3860(5)
N4_7 N 0.7195(2) 0.0270(2) 0.5871(5)
C3_7 C 0.6363(2) 0.0692(2) 0.4273(5)
C4_7 C 0.9696(2) 0.2337(3) 0.6017(6)
C5_7 C 0.6273(2) 0.1177(2) 0.4421(6)
H2_7 H 0.6361 0.1382 0.3573
N5_7 N 0.9043(2) 0.1377(2) 0.6571(5)
H3_7 H 0.8930 0.1267 0.7376
C6_7 C 0.4557(3) 0.0605(2) 0.5573(6)
H4_7 H 0.4772 0.0726 0.6348
O5_7 O 0.8808(2) 0.1273(2) 0.4428(4)
C7_7 C 0.7647(3) 0.0576(3) 0.5177(5)
H5_7 H 0.7657 0.0625 0.4255
C8_7 C 0.9622(3) 0.1777(3) 0.6361(7)
H6_7 H 0.9788 0.1831 0.7253
C9_7 C 0.7889(3) 0.0620(4) 0.7235(6)
H7_7 H 0.8101 0.0705 0.8014
C10_7 C 0.8096(3) 0.0810(3) 0.5983(5)
C11_7 C 0.4762(4) 0.0634(3) 0.4307(6)
C12_7 C 0.4294(5) 0.0417(4) 0.3524(6)
H8_5 H 0.4293 0.0386 0.2597
C13_7 C 0.6664(3) 0.1557(3) 0.5494(8)
H9_7 H 0.6620 0.1879 0.5585
H10_7 H 0.7043 0.1674 0.5250
H11_7 H 0.6577 0.1359 0.6330
C14_7 C 0.9926(4) 0.1588(4) 0.5571(10)
H12_7 H 0.9752 0.1470 0.4709
H13_7 H 0.9926 0.1279 0.6011
N7_5 N 0.9619(2) 0.3635(4) 0.5526(4)
O1_6 O 0.9110(2) 0.4550(3) 0.2690(4)
O2_8 O 0.96895(17) 0.58267(25) 0.5122(4)
O3_8 O 0.74940(19) 0.69594(28) 0.6789(4)
C1_8 C 0.8833(3) 0.7505(4) 0.5579(6)
N3_8 N 0.8997(2) 0.4706(3) 0.4784(5)
H1_8 H 0.9001 0.4622 0.5613
C2_8 C 0.9151(3) 0.4481(4) 0.3860(5)
N4_8 N 0.9730(2) 0.6926(3) 0.5871(5)
C3_8 C 0.9308(2) 0.5672(3) 0.4273(5)
C4_8 C 0.7663(3) 0.7360(4) 0.6017(6)
C5_8 C 0.8823(2) 0.5097(3) 0.4421(6)
H2_8 H 0.8618 0.4980 0.3573
N5_8 N 0.8623(2) 0.7667(3) 0.6571(5)
H3_8 H 0.8733 0.7664 0.7376
C6_8 C 0.9395(2) 0.3953(4) 0.5573(6)
H4_8 H 0.9274 0.4047 0.6348
O5_8 O 0.8727(2) 0.7536(3) 0.4428(4)
C7_8 C 0.9424(3) 0.7072(4) 0.5177(5)
H5_8 H 0.9375 0.7033 0.4255
C8_8 C 0.8223(3) 0.7846(4) 0.6361(7)
H6_8 H 0.8169 0.7958 0.7253
C9_8 C 0.9380(4) 0.7270(5) 0.7235(6)
H7_8 H 0.9295 0.7397 0.8014
C10_8 C 0.9190(3) 0.7287(4) 0.5983(5)
C11_8 C 0.9366(3) 0.4129(5) 0.4307(6)
C12_8 C 0.9583(4) 0.3878(6) 0.3524(6)
H8_6 H 0.9614 0.3908 0.2597
C13_8 C 0.8443(3) 0.5108(4) 0.5494(8)
H9_8 H 0.8121 0.4742 0.5585
H10_8 H 0.8326 0.5370 0.5250
H11_8 H 0.8641 0.5219 0.6330
C14_8 C 0.8412(4) 0.8339(6) 0.5571(10)
H12_8 H 0.8530 0.8283 0.4709
H13_8 H 0.8721 0.8648 0.6011
H14_8 H 0.8113 0.8418 0.5461
N7_6 N 0.6365(4) 0.5985(4) 0.5526(4)
O1_7 O 0.5450(3) 0.4561(2) 0.2690(4)
O2_9 O 0.41733(25) 0.38629(18) 0.5122(4)
O3_9 O 0.30406(28) 0.0535(2) 0.6789(4)
C1_9 C 0.2495(4) 0.1329(3) 0.5579(6)
N3_9 N 0.5294(3) 0.4292(2) 0.4784(5)
H1_9 H 0.5378 0.4380 0.5613
C2_9 C 0.5519(4) 0.4671(3) 0.3860(5)
N4_9 N 0.3074(3) 0.2805(2) 0.5871(5)
C3_9 C 0.4328(3) 0.3637(2) 0.4273(5)
C4_9 C 0.2640(4) 0.0304(2) 0.6017(6)
C5_9 C 0.4903(3) 0.3727(2) 0.4421(6)
H2_9 H 0.5020 0.3639 0.3573
N5_9 N 0.2333(3) 0.0957(2) 0.6571(5)
H3_9 H 0.2336 0.1070 0.7376
C6_9 C 0.6047(4) 0.5443(3) 0.5573(6)
H4_9 H 0.5953 0.5228 0.6348
O5_9 O 0.2464(3) 0.1192(2) 0.4428(4)
C7_9 C 0.2928(4) 0.2353(3) 0.5177(5)
H5_9 H 0.2967 0.2343 0.4255
C8_9 C 0.2154(4) 0.0378(3) 0.6361(7)
H6_9 H 0.2042 0.0212 0.7253
C9_9 C 0.2730(5) 0.2111(3) 0.7235(6)
H7_9 H 0.2603 0.1899 0.8014
C10_9 C 0.2713(4) 0.1904(3) 0.5983(5)
C11_9 C 0.5871(5) 0.5238(4) 0.4307(6)
C12_9 C 0.6122(6) 0.5706(5) 0.3524(6)
H8_7 H 0.6092 0.5707 0.2597
C13_9 C 0.4892(4) 0.3336(3) 0.5494(8)
H9_9 H 0.5258 0.3380 0.5585
H10_9 H 0.4630 0.2957 0.5250
H11_9 H 0.4781 0.3423 0.6330
C14_9 C 0.1661(6) 0.0074(4) 0.5571(10)
H12_9 H 0.1717 0.0248 0.4709
H13_9 H 0.1352 0.0074 0.6011
H14_9 H 0.1582 0.9696 0.5461
O1_8 O 0.8773(2) 0.7556(2) 0.9356(4)
H8_8 H 0.7627 0.7052 0.9263
O1_9 O 0.8784(3) 0.1227(2) 0.9356(4)
H8_9 H 0.9426 0.2373 0.9263
loop_
_geom_bond_atom_site_label_1
_geom_bond_atom_site_label_2
_geom_bond_site_symmetry_1
_geom_bond_site_symmetry_2
Zn2 O3 1_555 1_555
C9 N2 1_555 1_555
H7 C9 1_555 1_555
Zn3 N2 1_555 1_555
O7 Zn2 1_555 1_555
N9 Zn2 1_555 1_555
Zn1 O2 1_555 1_555
N1 C6 1_555 1_555
O1 C2 1_555 1_555
O2 C3 1_555 1_555
C1 N5 1_555 1_555
N3 H1 1_555 1_555
C2 N3 1_555 1_555
N4 Zn1 1_555 1_555
C3 C5 1_555 1_555
C4 O4 1_555 1_555
C5 N3 1_555 1_555
H2 C5 1_555 1_555
O4 Zn7 1_555 1_555
C6 H4 1_555 1_555
O5 C1 1_555 1_555
C7 N4 1_555 1_555
H5 C7 1_555 1_555
C8 C4 1_555 1_555
C10 C1 1_555 1_555
O6 C3 1_555 1_555
C11 C2 1_555 1_555
N6 N1 1_555 1_555
C12 C11 1_555 1_555
H8 C12 1_555 1_555
C13 C5 1_555 1_555
H9 C13 1_555 1_555
H10 C13 1_555 1_555
H11 C13 1_555 1_555
C14 C8 1_555 1_555
H12 C14 1_555 1_555
H13 C14 1_555 1_555
H14 C14 1_555 1_555
Zn4 O6 1_555 1_555
N8 Zn1 1_555 1_555
N5 C8 1_555 1_555
C6 C11 1_555 1_555
C7 C10 1_555 1_555
N6 C12 1_555 1_555
C9_2 N2_2 1_555 1_555
H7_2 C9_2 1_555 1_555
Zn3_2 N2_2 1_555 1_555
C1_2 N5_2 1_555 1_555
C4_2 O4_2 1_555 1_555
O4_2 Zn7_2 1_555 1_555
O5_2 C1_2 1_555 1_555
C7_2 N4_2 1_555 1_555
H5_2 C7_2 1_555 1_555
C8_2 C4_2 1_555 1_555
C10_2 C1_2 1_555 1_555
C14_2 C8_2 1_555 1_555
H12_2 C14_2 1_555 1_555
H13_2 C14_2 1_555 1_555
H14_2 C14_2 1_555 1_555
N5_2 C8_2 1_555 1_555
C7_2 C10_2 1_555 1_555
O7_2 Zn2_2 1_555 1_555
Zn1_2 O2_2 1_555 1_555
N7 C6_2 1_555 1_555
O1_2 C2_2 1_555 1_555
O2_2 C3_2 1_555 1_555
N3_2 H1_2 1_555 1_555
C2_2 N3_2 1_555 1_555
C3_2 C5_2 1_555 1_555
C5_2 N3_2 1_555 1_555
H2_2 C5_2 1_555 1_555
C6_2 H4_2 1_555 1_555
O6_2 C3_2 1_555 1_555
C11_2 C2_2 1_555 1_555
N6_2 N7 1_555 1_555
C12_2 C11_2 1_555 1_555
H8_2 C12_2 1_555 1_555
C13_2 C5_2 1_555 1_555
H9_2 C13_2 1_555 1_555
H10_2 C13_2 1_555 1_555
H11_2 C13_2 1_555 1_555
Zn4_2 O6_2 1_555 1_555
Zn7 N6_2 1_555 1_555
C6_2 C11_2 1_555 1_555
N6_2 C12_2 1_555 1_555
O7_3 Zn5 1_555 1_555
Zn1_3 O2_3 1_555 1_555
N7_2 C6_3 1_555 1_555
O1_3 C2_3 1_555 1_555
O2_3 C3_3 1_555 1_555
N3_3 H1_3 1_555 1_555
C2_3 N3_3 1_555 1_555
C3_3 C5_3 1_555 1_555
C5_3 N3_3 1_555 1_555
H2_3 C5_3 1_555 1_555
C6_3 H4_3 1_555 1_555
O6_3 C3_3 1_555 1_555
C11_3 C2_3 1_555 1_555
N6_3 N7_2 1_555 1_555
C12_3 C11_3 1_555 1_555
H8_3 C12_3 1_555 1_555
C13_3 C5_3 1_555 1_555
H9_3 C13_3 1_555 1_555
H10_3 C13_3 1_555 1_555
H11_3 C13_3 1_555 1_555
Zn4_3 O6_3 1_555 1_555
C6_3 C11_3 1_555 1_555
N6_3 C12_3 1_555 1_555
C9_3 N2_3 1_555 1_555
H7_3 C9_3 1_555 1_555
Zn3_3 N2_3 1_555 1_555
C1_3 N5_3 1_555 1_555
C4_3 O4_3 1_555 1_555
O4_3 Zn6 1_555 1_555
O5_3 C1_3 1_555 1_555
C7_3 N4_3 1_555 1_555
H5_3 C7_3 1_555 1_555
C8_3 C4_3 1_555 1_555
C10_3 C1_3 1_555 1_555
C14_3 C8_3 1_555 1_555
H12_3 C14_3 1_555 1_555
H13_3 C14_3 1_555 1_555
H14_3 C14_3 1_555 1_555
N5_3 C8_3 1_555 1_555
C7_3 C10_3 1_555 1_555
Zn2_3 O3_4 1_555 1_555
O3_4 C4_4 1_555 1_555
C1_4 N5_4 1_555 1_555
N2_4 N4_4 1_555 1_555
C4_4 O7_2 1_555 1_555
N5_4 H3_4 1_555 1_555
O5_4 C1_4 1_555 1_555
C7_4 N4_4 1_555 1_555
H5_4 C7_4 1_555 1_555
C8_4 C4_4 1_555 1_555
H6_4 C8_4 1_555 1_555
C9_4 N2_4 1_555 1_555
H7_4 C9_4 1_555 1_555
C10_4 C1_4 1_555 1_555
C14_4 C8_4 1_555 1_555
H12_4 C14_4 1_555 1_555
H13_4 C14_4 1_555 1_555
H14_4 C14_4 1_555 1_555
Zn4_3 N2_4 1_555 1_555
N5_4 C8_4 1_555 1_555
C7_4 C10_4 1_555 1_555
C9_4 C10_4 1_555 1_555
Zn3_3 O2_4 1_555 1_555
N1_2 C6_4 1_555 1_555
O2_4 C3_4 1_555 1_555
N3_4 H1_4 1_555 1_555
C2_4 N3_4 1_555 1_555
C3_4 C5_4 1_555 1_555
C5_4 N3_4 1_555 1_555
H2_4 C5_4 1_555 1_555
C6_4 H4_4 1_555 1_555
C11_4 C2_4 1_555 1_555
N9 N1_2 1_555 1_555
C12_4 C11_4 1_555 1_555
C13_4 C5_4 1_555 1_555
H9_4 C13_4 1_555 1_555
H11_4 C13_4 1_555 1_555
Zn5_2 N1_2 1_555 1_555
O8_4 Zn3_3 1_555 1_555
C6_4 C11_4 1_555 1_555
N9 C12_4 1_555 1_555
Zn3 O2_5 1_555 1_555
Zn2_4 O3_5 1_555 1_555
N7_3 C6_5 1_555 1_555
O2_5 C3_5 1_555 1_555
O3_5 C4_5 1_555 1_555
C1_5 N5_5 1_555 1_555
N2_5 N4_5 1_555 1_555
N3_5 H1_5 1_555 1_555
C2_5 N3_5 1_555 1_555
N4_5 Zn3 1_555 1_555
C3_5 C5_5 1_555 1_555
C4_5 O7_3 1_555 1_555
C5_5 N3_5 1_555 1_555
H2_5 C5_5 1_555 1_555
N5_5 H3_5 1_555 1_555
C6_5 H4_5 1_555 1_555
O5_5 C1_5 1_555 1_555
C7_5 N4_5 1_555 1_555
H5_5 C7_5 1_555 1_555
C8_5 C4_5 1_555 1_555
H6_5 C8_5 1_555 1_555
C9_5 N2_5 1_555 1_555
H7_5 C9_5 1_555 1_555
C10_5 C1_5 1_555 1_555
O8 C3_5 1_555 1_555
C11_5 C2_5 1_555 1_555
N9_2 N7_3 1_555 1_555
C12_5 C11_5 1_555 1_555
C13_5 C5_5 1_555 1_555
H9_5 C13_5 1_555 1_555
H10_5 C13_5 1_555 1_555
H11_5 C13_5 1_555 1_555
C14_5 C8_5 1_555 1_555
H12_5 C14_5 1_555 1_555
H13_5 C14_5 1_555 1_555
H14_5 C14_5 1_555 1_555
Zn4 N2_5 1_555 1_555
O8_5 Zn3 1_555 1_555
N5_5 C8_5 1_555 1_555
C6_5 C11_5 1_555 1_555
C7_5 C10_5 1_555 1_555
C9_5 C10_5 1_555 1_555
N9_2 C12_5 1_555 1_555
Zn3_2 O2_6 1_555 1_555
N7_4 C6_6 1_555 1_555
O2_6 C3_6 1_555 1_555
N3_6 H1_6 1_555 1_555
C2_6 N3_6 1_555 1_555
C3_6 C5_6 1_555 1_555
C5_6 N3_6 1_555 1_555
H2_6 C5_6 1_555 1_555
C6_6 H4_6 1_555 1_555
C11_6 C2_6 1_555 1_555
N9_3 N7_4 1_555 1_555
C12_6 C11_6 1_555 1_555
C13_6 C5_6 1_555 1_555
H9_6 C13_6 1_555 1_555
H11_6 C13_6 1_555 1_555
O8_6 Zn3_2 1_555 1_555
C6_6 C11_6 1_555 1_555
N9_3 C12_6 1_555 1_555
Zn5_2 O3_6 1_555 1_555
O3_6 C4_6 1_555 1_555
C1_6 N5_6 1_555 1_555
N2_6 N4_6 1_555 1_555
C4_6 O7 1_555 1_555
N5_6 H3_6 1_555 1_555
O5_6 C1_6 1_555 1_555
C7_6 N4_6 1_555 1_555
H5_6 C7_6 1_555 1_555
C8_6 C4_6 1_555 1_555
H6_6 C8_6 1_555 1_555
C9_6 N2_6 1_555 1_555
H7_6 C9_6 1_555 1_555
C10_6 C1_6 1_555 1_555
C14_6 C8_6 1_555 1_555
H12_6 C14_6 1_555 1_555
H13_6 C14_6 1_555 1_555
H14_6 C14_6 1_555 1_555
Zn4_2 N2_6 1_555 1_555
O7_6 Zn5_2 1_555 1_555
N9_6 Zn5_2 1_555 1_555
N5_6 C8_6 1_555 1_555
C7_6 C10_6 1_555 1_555
C9_6 C10_6 1_555 1_555
Zn6 O3_7 1_555 1_555
N1_3 C6_7 1_555 1_555
O1_5 C2_7 1_555 1_555
O2_7 C3_7 1_555 1_555
O3_7 C4_7 1_555 1_555
C1_7 N5_7 1_555 1_555
N8_2 N4_7 1_555 1_555
N3_7 H1_7 1_555 1_555
C2_7 N3_7 1_555 1_555
C3_7 C5_7 1_555 1_555
C4_7 O7_5 1_555 1_555
C5_7 N3_7 1_555 1_555
H2_7 C5_7 1_555 1_555
N5_7 H3_7 1_555 1_555
C6_7 H4_7 1_555 1_555
O5_7 C1_7 1_555 1_555
C7_7 N4_7 1_555 1_555
H5_7 C7_7 1_555 1_555
C8_7 C4_7 1_555 1_555
H6_7 C8_7 1_555 1_555
C9_7 N8_2 1_555 1_555
H7_7 C9_7 1_555 1_555
C10_7 C1_7 1_555 1_555
O8_6 C3_7 1_555 1_555
C11_7 C2_7 1_555 1_555
N9_4 N1_3 1_555 1_555
C12_7 C11_7 1_555 1_555
H8_5 C12_7 1_555 1_555
C13_7 C5_7 1_555 1_555
H9_7 C13_7 1_555 1_555
H10_7 C13_7 1_555 1_555
H11_7 C13_7 1_555 1_555
C14_7 C8_7 1_555 1_555
H12_7 C14_7 1_555 1_555
H13_7 C14_7 1_555 1_555
Zn7_2 N1_3 1_555 1_555
N7_5 Zn6 1_555 1_555
N5_7 C8_7 1_555 1_555
C6_7 C11_7 1_555 1_555
C7_7 C10_7 1_555 1_555
C9_7 C10_7 1_555 1_555
N9_4 C12_7 1_555 1_555
Zn7 O3_8 1_555 1_555
N7_5 C6_8 1_555 1_555
O1_6 C2_8 1_555 1_555
O2_8 C3_8 1_555 1_555
O3_8 C4_8 1_555 1_555
C1_8 N5_8 1_555 1_555
N8_3 N4_8 1_555 1_555
N3_8 H1_8 1_555 1_555
C2_8 N3_8 1_555 1_555
C3_8 C5_8 1_555 1_555
C4_8 O7_6 1_555 1_555
C5_8 N3_8 1_555 1_555
H2_8 C5_8 1_555 1_555
N5_8 H3_8 1_555 1_555
C6_8 H4_8 1_555 1_555
O5_8 C1_8 1_555 1_555
C7_8 N4_8 1_555 1_555
H5_8 C7_8 1_555 1_555
C8_8 C4_8 1_555 1_555
H6_8 C8_8 1_555 1_555
C9_8 N8_3 1_555 1_555
H7_8 C9_8 1_555 1_555
C10_8 C1_8 1_555 1_555
O8_4 C3_8 1_555 1_555
C11_8 C2_8 1_555 1_555
N9_5 N7_5 1_555 1_555
C12_8 C11_8 1_555 1_555
H8_6 C12_8 1_555 1_555
C13_8 C5_8 1_555 1_555
H9_8 C13_8 1_555 1_555
H10_8 C13_8 1_555 1_555
H11_8 C13_8 1_555 1_555
C14_8 C8_8 1_555 1_555
H12_8 C14_8 1_555 1_555
H13_8 C14_8 1_555 1_555
H14_8 C14_8 1_555 1_555
N7_6 Zn7 1_555 1_555
N5_8 C8_8 1_555 1_555
C6_8 C11_8 1_555 1_555
C7_8 C10_8 1_555 1_555
C9_8 C10_8 1_555 1_555
N9_5 C12_8 1_555 1_555
Zn4 O2_9 1_555 1_555
Zn7_2 O3_9 1_555 1_555
N7_6 C6_9 1_555 1_555
O1_7 C2_9 1_555 1_555
O2_9 C3_9 1_555 1_555
O3_9 C4_9 1_555 1_555
C1_9 N5_9 1_555 1_555
N8 N4_9 1_555 1_555
N3_9 H1_9 1_555 1_555
C2_9 N3_9 1_555 1_555
N4_9 Zn4 1_555 1_555
C3_9 C5_9 1_555 1_555
C4_9 O7_4 1_555 1_555
C5_9 N3_9 1_555 1_555
H2_9 C5_9 1_555 1_555
N5_9 H3_9 1_555 1_555
C6_9 H4_9 1_555 1_555
O5_9 C1_9 1_555 1_555
C7_9 N4_9 1_555 1_555
H5_9 C7_9 1_555 1_555
C8_9 C4_9 1_555 1_555
H6_9 C8_9 1_555 1_555
C9_9 N8 1_555 1_555
H7_9 C9_9 1_555 1_555
C10_9 C1_9 1_555 1_555
O8_5 C3_9 1_555 1_555
C11_9 C2_9 1_555 1_555
N9_6 N7_6 1_555 1_555
C12_9 C11_9 1_555 1_555
H8_7 C12_9 1_555 1_555
C13_9 C5_9 1_555 1_555
H9_9 C13_9 1_555 1_555
H10_9 C13_9 1_555 1_555
H11_9 C13_9 1_555 1_555
C14_9 C8_9 1_555 1_555
H12_9 C14_9 1_555 1_555
H13_9 C14_9 1_555 1_555
N5_9 C8_9 1_555 1_555
C6_9 C11_9 1_555 1_555
C7_9 C10_9 1_555 1_555
C9_9 C10_9 1_555 1_555
N9_6 C12_9 1_555 1_555

#END
