
###############################################################################
#
# This file contains modified crystal structure data generated from the
# MOF subset of the Cambridge Structural Database (CSD) v543 
# hosted by the Cambridge Crystallographic Data Centre (CCDC).
#
# This work is licensed under the Creative Commons
# Attribution-NonCommercial-ShareAlike 4.0 International License.
# To view a copy of this license, visit
# http://creativecommons.org/licenses/by-nc-sa/4.0/
# or send a letter to
# Creative Commons, PO Box 1866, Mountain View, CA 94042, USA.
#
# CIF created using the CSD Python API on 29 September 2022
# The structure has been converted into the P1 space group
# The structure has a 3D framework
# The original CSD entry VUWZEV is in the rhombohedral crystal system
# The original CSD entry VUWZEV is in a Sohncke space group
# The framework has been calculated to contain at least 10.0% void space
# The void calculation uses a probe of radius 1.32A, grid spacing 0.4
#
###############################################################################

data_VUWZEV
_chemical_formula_moiety         '(C126 H126 N54 O54 Zn14)n'
_symmetry_cell_setting           triclinic
_symmetry_space_group_name_H-M   'P 1'
_symmetry_Int_Tables_number      1
_space_group_name_Hall           'P 1'
loop_
_symmetry_equiv_pos_site_id
_symmetry_equiv_pos_as_xyz
1 x,y,z
_cell_length_a                   28.8315(4)
_cell_length_b                   28.8315(4)
_cell_length_c                   10.1304(2)
_cell_angle_alpha                90
_cell_angle_beta                 90
_cell_angle_gamma                120
_cell_volume                     7292.76
loop_
_atom_site_label
_atom_site_type_symbol
_atom_site_fract_x
_atom_site_fract_y
_atom_site_fract_z
O4 O 0.59484(19) 0.66229(18) 0.1639(5)
N2 N 0.3606(2) 0.3851(2) 0.0784(6)
N4 N 0.4751(2) 0.5662(2) 0.0162(6)
O5 O 0.4649(3) 0.5398(2) 0.2295(6)
C2 C 0.4159(3) 0.4738(3) 0.0677(7)
C3 C 0.4539(3) 0.5291(3) 0.1117(7)
C5 C 0.5119(2) 0.6232(3) 0.0441(7)
C9 C 0.3923(3) 0.4288(3) 0.1509(7)
H6 H 0.3979 0.4292 0.2434
C12 C 0.5686(2) 0.6328(2) 0.0698(6)
C14 C 0.4941(5) 0.6492(5) 0.1399(15)
H12 H 0.4620 0.6488 0.1063
H13 H 0.5226 0.6863 0.1533
H14 H 0.4858 0.6299 0.2240
Zn4 Zn 0.64614(4) 0.66950(3) 0.30159(6)
Zn6 Zn 0.31330(3) 0.31017(4) 0.13174(6)
N9 N 0.6962(2) 0.6286(3) 0.1209(5)
Zn1 Zn 0.66383(3) 0.64330(3) 0.96826(6)
Zn2 Zn 0.33021(3) 0.35337(3) 0.79841(6)
O1 O 0.58631(18) 0.61279(19) 0.9867(5)
O2 O 0.38836(19) 0.41442(18) 0.4836(5)
O3 O 0.33669(18) 0.40347(19) 0.6589(5)
N1 N 0.6140(2) 0.6413(2) 0.5825(5)
N3 N 0.5990(2) 0.6371(2) 0.4542(5)
H1 H 0.4665 0.5561 0.9336
N5 N 0.4339(2) 0.5253(2) 0.5189(6)
H2 H 0.4439 0.5322 0.4358
N6 N 0.3636(2) 0.4011(2) 0.9493(5)
O6 O 0.4587(2) 0.5409(2) 0.7333(5)
C1 C 0.5261(3) 0.5864(3) 0.5743(7)
C4 C 0.3678(2) 0.4317(2) 0.5656(7)
H3 H 0.5149 0.6418 0.9587
C6 C 0.4709(3) 0.5494(3) 0.6153(7)
C7 C 0.3781(3) 0.4882(3) 0.5497(7)
H4 H 0.3684 0.4997 0.6334
C8 C 0.5704(3) 0.6108(3) 0.6553(7)
H5 H 0.5700 0.6066 0.7483
C10 C 0.3973(3) 0.4545(3) 0.9438(7)
H7 H 0.4067 0.4756 0.8657
C11 C 0.5464(3) 0.6043(3) 0.4482(7)
H8 H 0.5257 0.5945 0.3695
C13 C 0.3421(3) 0.4880(3) 0.4371(9)
H9 H 0.3462 0.5237 0.4284
H10 H 0.3046 0.4619 0.4570
H11 H 0.3524 0.4781 0.3541
Zn5 Zn 0.69003(3) 0.68720(4) 0.63493(6)
Zn7 Zn 0.35649(4) 0.33646(3) 0.46508(6)
O7 O 0.25225(18) 0.30727(26) 0.8169(5)
O8 O 0.67104(18) 0.59922(26) 0.8306(5)
N7 N 0.6940(3) 0.7193(2) 0.9158(5)
N8 N 0.3578(3) 0.3061(2) 0.7451(6)
Zn6_2 Zn 0.68983(4) 0.00312(5) 0.13174(6)
N9_2 N 0.3714(3) 0.0677(4) 0.1209(5)
Zn1_2 Zn 0.35670(3) 0.02053(4) 0.96826(6)
Zn5_2 Zn 0.31280(4) 0.00284(5) 0.63493(6)
Zn7_2 Zn 0.66354(3) 0.02004(5) 0.46508(6)
O8_2 O 0.40078(26) 0.07183(32) 0.8306(5)
N8_2 N 0.6939(2) 0.0518(4) 0.7451(6)
O4_2 O 0.33771(18) 0.93255(26) 0.1639(5)
N2_2 N 0.6149(2) 0.9755(3) 0.0784(6)
N4_2 N 0.4338(2) 0.9089(3) 0.0162(6)
O5_2 O 0.4602(2) 0.9251(4) 0.2295(6)
C2_2 C 0.5262(3) 0.9421(4) 0.0677(7)
C3_2 C 0.4709(3) 0.9248(4) 0.1117(7)
C5_2 C 0.3768(3) 0.8887(4) 0.0441(7)
C9_2 C 0.5712(3) 0.9635(4) 0.1509(7)
H6_2 H 0.5708 0.9687 0.2434
C12_2 C 0.3672(2) 0.9358(3) 0.0698(6)
C14_2 C 0.3508(5) 0.8449(7) 0.1399(15)
H12_2 H 0.3512 0.8132 0.1063
H13_2 H 0.3137 0.8363 0.1533
H14_2 H 0.3701 0.8559 0.2240
Zn4_2 Zn 0.33050(3) 0.97663(5) 0.30159(6)
Zn2_2 Zn 0.64663(3) 0.97684(4) 0.79841(6)
O1_2 O 0.38721(19) 0.97352(26) 0.9867(5)
O2_2 O 0.58558(18) 0.97394(26) 0.4836(5)
O3_2 O 0.59653(19) 0.93322(26) 0.6589(5)
N1_2 N 0.3587(2) 0.9727(3) 0.5825(5)
N3_2 N 0.3629(2) 0.9619(3) 0.4542(5)
H1_2 H 0.4439 0.9104 0.9336
N5_2 N 0.4747(2) 0.9086(3) 0.5189(6)
H2_2 H 0.4678 0.9117 0.4358
N6_2 N 0.5989(2) 0.9625(3) 0.9493(5)
O6_2 O 0.4591(2) 0.9178(3) 0.7333(5)
C1_2 C 0.4136(3) 0.9397(4) 0.5743(7)
C4_2 C 0.5683(2) 0.9361(3) 0.5656(7)
H3_2 H 0.3582 0.8731 0.9587
C6_2 C 0.4506(3) 0.9215(4) 0.6153(7)
C7_2 C 0.5118(3) 0.8899(4) 0.5497(7)
H4_2 H 0.5003 0.8687 0.6334
C8_2 C 0.3892(3) 0.9596(4) 0.6553(7)
H5_2 H 0.3934 0.9634 0.7483
C10_2 C 0.5455(3) 0.9428(4) 0.9438(7)
H7_2 H 0.5244 0.9311 0.8657
C11_2 C 0.3957(3) 0.9421(4) 0.4482(7)
H8_2 H 0.4055 0.9312 0.3695
C13_2 C 0.5120(3) 0.8541(4) 0.4371(9)
H9_2 H 0.4763 0.8225 0.4284
H10_2 H 0.5381 0.8427 0.4570
H11_2 H 0.5219 0.8743 0.3541
O7_2 O 0.69273(26) 0.94497(32) 0.8169(5)
N7_2 N 0.2807(2) 0.9746(4) 0.9158(5)
O4_3 O 0.06745(26) 0.40516(19) 0.1639(5)
N2_3 N 0.0245(3) 0.6394(2) 0.0784(6)
N4_3 N 0.0911(3) 0.5249(2) 0.0162(6)
O5_3 O 0.0749(4) 0.5351(3) 0.2295(6)
C2_3 C 0.0579(4) 0.5841(3) 0.0677(7)
C3_3 C 0.0752(4) 0.5461(3) 0.1117(7)
C5_3 C 0.1113(4) 0.4881(2) 0.0441(7)
C9_3 C 0.0365(4) 0.6077(3) 0.1509(7)
H6_3 H 0.0313 0.6021 0.2434
C12_3 C 0.0642(3) 0.4314(2) 0.0698(6)
C14_3 C 0.1551(7) 0.5059(5) 0.1399(15)
H12_3 H 0.1868 0.5380 0.1063
H13_3 H 0.1637 0.4774 0.1533
H14_3 H 0.1441 0.5142 0.2240
Zn4_3 Zn 0.02337(5) 0.35386(4) 0.30159(6)
Zn2_3 Zn 0.02316(4) 0.66979(3) 0.79841(6)
O1_3 O 0.02648(26) 0.41369(18) 0.9867(5)
O2_3 O 0.02606(26) 0.61164(19) 0.4836(5)
O3_3 O 0.06678(26) 0.66331(18) 0.6589(5)
N1_3 N 0.0273(3) 0.3860(2) 0.5825(5)
N3_3 N 0.0381(3) 0.4010(2) 0.4542(5)
H1_3 H 0.0896 0.5335 0.9336
N5_3 N 0.0914(3) 0.5661(2) 0.5189(6)
H2_3 H 0.0883 0.5561 0.4358
N6_3 N 0.0375(3) 0.6364(2) 0.9493(5)
O6_3 O 0.0822(3) 0.5413(2) 0.7333(5)
C1_3 C 0.0603(4) 0.4739(3) 0.5743(7)
C4_3 C 0.0639(3) 0.6322(2) 0.5656(7)
H3_3 H 0.1269 0.4851 0.9587
C6_3 C 0.0785(4) 0.5291(3) 0.6153(7)
C7_3 C 0.1101(4) 0.6219(3) 0.5497(7)
H4_3 H 0.1313 0.6316 0.6334
C8_3 C 0.0404(4) 0.4296(3) 0.6553(7)
H5_3 H 0.0366 0.4300 0.7483
C10_3 C 0.0572(4) 0.6027(3) 0.9438(7)
H7_3 H 0.0689 0.5933 0.8657
C11_3 C 0.0579(4) 0.4536(3) 0.4482(7)
H8_3 H 0.0688 0.4743 0.3695
C13_3 C 0.1459(4) 0.6579(3) 0.4371(9)
H9_3 H 0.1775 0.6538 0.4284
H10_3 H 0.1573 0.6954 0.4570
H11_3 H 0.1257 0.6476 0.3541
O7_3 O 0.05503(32) 0.74775(18) 0.8169(5)
N7_3 N 0.0254(4) 0.3060(3) 0.9158(5)
Zn6_3 Zn 0.99688(5) 0.68670(3) 0.13174(6)
N9_3 N 0.9323(4) 0.3038(2) 0.1209(5)
Zn1_3 Zn 0.97947(4) 0.33617(3) 0.96826(6)
Zn5_3 Zn 0.99716(5) 0.30997(3) 0.63493(6)
Zn7_3 Zn 0.97996(5) 0.64351(4) 0.46508(6)
O8_3 O 0.92817(32) 0.32896(18) 0.8306(5)
N8_3 N 0.9482(4) 0.6422(3) 0.7451(6)
H13_4 H 0.1893 0.0196 0.4866
N7_4 N 0.3606(3) 0.0527(2) 0.2492(5)
O1_4 O 0.25298(18) 0.94612(19) 0.3200(5)
O4_4 O 0.26151(19) 0.99562(18) 0.4972(5)
N2_4 N 0.0273(2) 0.7184(2) 0.4117(6)
N4_4 N 0.1418(2) 0.8995(2) 0.3495(6)
H1_4 H 0.1332 0.8894 0.2669
N6_4 N 0.0303(2) 0.7344(2) 0.2826(5)
O5_4 O 0.1316(3) 0.8731(2) 0.5628(6)
O6_4 O 0.1254(2) 0.8742(2) 0.0666(5)
C2_4 C 0.0826(3) 0.8071(3) 0.4010(7)
C3_4 C 0.1206(3) 0.8624(3) 0.4450(7)
C5_4 C 0.1786(2) 0.9565(3) 0.3774(7)
H3_4 H 0.1816 0.9751 0.2920
H5_4 H 0.2367 0.9399 0.0816
C9_4 C 0.0590(3) 0.7621(3) 0.4842(7)
H6_4 H 0.0646 0.7625 0.5767
C10_4 C 0.0640(3) 0.7878(3) 0.2771(7)
H7_4 H 0.0734 0.8089 0.1990
C12_4 C 0.2353(2) 0.9661(2) 0.4031(6)
C14_4 C 0.1608(5) 0.9825(5) 0.4732(15)
H12_4 H 0.1287 0.9821 0.4396
H14_4 H 0.1525 0.9632 0.5573
O3_4 O 0.00336(18) 0.73680(19) 0.9922(5)
N3_4 N 0.2657(2) 0.9704(2) 0.7875(5)
N5_4 N 0.1006(2) 0.8586(2) 0.8522(6)
H2_4 H 0.1106 0.8655 0.7691
C1_4 C 0.1928(3) 0.9197(3) 0.9076(7)
C4_4 C 0.0345(2) 0.7650(2) 0.8989(7)
C6_4 C 0.1376(3) 0.8827(3) 0.9486(7)
C7_4 C 0.0448(3) 0.8215(3) 0.8830(7)
H4_4 H 0.0351 0.8330 0.9667
C8_4 C 0.2371(3) 0.9441(3) 0.9886(7)
C11_4 C 0.2131(3) 0.9376(3) 0.7815(7)
H8_4 H 0.1924 0.9278 0.7028
C13_4 C 0.0088(3) 0.8213(3) 0.7704(9)
H9_4 H 0.0129 0.8570 0.7617
H11_4 H 0.0191 0.8114 0.6874
O7_4 O 0.91891(18) 0.64061(26) 0.1503(5)
O1_5 O 0.05388(19) 0.30685(26) 0.3200(5)
O4_5 O 0.00438(18) 0.26588(26) 0.4972(5)
N2_5 N 0.2816(2) 0.3088(3) 0.4117(6)
N4_5 N 0.1005(2) 0.2422(3) 0.3495(6)
H1_5 H 0.1106 0.2437 0.2669
N6_5 N 0.2656(2) 0.2958(3) 0.2826(5)
O5_5 O 0.1269(2) 0.2584(4) 0.5628(6)
O6_5 O 0.1258(2) 0.2511(3) 0.0666(5)
C2_5 C 0.1929(3) 0.2754(4) 0.4010(7)
C3_5 C 0.1376(3) 0.2581(4) 0.4450(7)
C5_5 C 0.0435(3) 0.2220(4) 0.3774(7)
H3_5 H 0.0249 0.2064 0.2920
H5_5 H 0.0601 0.2967 0.0816
C9_5 C 0.2379(3) 0.2968(4) 0.4842(7)
H6_5 H 0.2375 0.3020 0.5767
C10_5 C 0.2122(3) 0.2761(4) 0.2771(7)
H7_5 H 0.1911 0.2644 0.1990
C12_5 C 0.0339(2) 0.2691(3) 0.4031(6)
C14_5 C 0.0175(5) 0.1782(7) 0.4732(15)
H12_5 H 0.0179 0.1465 0.4396
H14_5 H 0.0368 0.1892 0.5573
O7_5 O 0.35939(26) 0.27831(32) 0.1503(5)
O3_5 O 0.26320(19) 0.26655(26) 0.9922(5)
N3_5 N 0.0296(2) 0.2952(3) 0.7875(5)
N5_5 N 0.1414(2) 0.2419(3) 0.8522(6)
H2_5 H 0.1345 0.2450 0.7691
C1_5 C 0.0803(3) 0.2730(4) 0.9076(7)
C4_5 C 0.2350(2) 0.2694(3) 0.8989(7)
C6_5 C 0.1173(3) 0.2548(4) 0.9486(7)
C7_5 C 0.1785(3) 0.2232(4) 0.8830(7)
H4_5 H 0.1670 0.2020 0.9667
C8_5 C 0.0559(3) 0.2929(4) 0.9886(7)
C11_5 C 0.0624(3) 0.2754(4) 0.7815(7)
H8_5 H 0.0722 0.2645 0.7028
C13_5 C 0.1787(3) 0.1874(4) 0.7704(9)
H9_5 H 0.1430 0.1558 0.7617
H10_4 H 0.2048 0.1760 0.7903
H11_5 H 0.1886 0.2076 0.6874
H13_5 H 0.9804 0.1696 0.4866
N7_5 N 0.9473(2) 0.3080(4) 0.2492(5)
O7_6 O 0.72169(32) 0.08109(18) 0.1503(5)
O1_6 O 0.69315(26) 0.74702(18) 0.3200(5)
O4_6 O 0.73412(26) 0.73849(19) 0.4972(5)
N2_6 N 0.6912(3) 0.9727(2) 0.4117(6)
N4_6 N 0.7578(3) 0.8582(2) 0.3495(6)
H1_6 H 0.7563 0.8668 0.2669
N6_6 N 0.7042(3) 0.9697(2) 0.2826(5)
O5_6 O 0.7416(4) 0.8684(3) 0.5628(6)
O6_6 O 0.7489(3) 0.8746(2) 0.0666(5)
C2_6 C 0.7246(4) 0.9174(3) 0.4010(7)
C3_6 C 0.7419(4) 0.8794(3) 0.4450(7)
C5_6 C 0.7780(4) 0.8214(2) 0.3774(7)
H3_6 H 0.7936 0.8184 0.2920
H5_6 H 0.7033 0.7633 0.0816
C9_6 C 0.7032(4) 0.9410(3) 0.4842(7)
H6_6 H 0.6980 0.9354 0.5767
C10_6 C 0.7239(4) 0.9360(3) 0.2771(7)
H7_6 H 0.7356 0.9266 0.1990
C12_6 C 0.7309(3) 0.7647(2) 0.4031(6)
C14_6 C 0.8218(7) 0.8392(5) 0.4732(15)
H12_6 H 0.8535 0.8713 0.4396
H13_6 H 0.8304 0.8107 0.4866
H14_6 H 0.8108 0.8475 0.5573
N7_6 N 0.6920(4) 0.6394(3) 0.2492(5)
O3_6 O 0.73345(26) 0.99664(18) 0.9922(5)
N3_6 N 0.7048(3) 0.7343(2) 0.7875(5)
N5_6 N 0.7581(3) 0.8994(2) 0.8522(6)
H2_6 H 0.7550 0.8894 0.7691
C1_6 C 0.7270(4) 0.8072(3) 0.9076(7)
C4_6 C 0.7306(3) 0.9655(2) 0.8989(7)
C6_6 C 0.7452(4) 0.8624(3) 0.9486(7)
C7_6 C 0.7768(4) 0.9552(3) 0.8830(7)
H4_6 H 0.7980 0.9649 0.9667
C8_6 C 0.7071(4) 0.7629(3) 0.9886(7)
C11_6 C 0.7246(4) 0.7869(3) 0.7815(7)
H8_6 H 0.7355 0.8076 0.7028
C13_6 C 0.8126(4) 0.9912(3) 0.7704(9)
H9_6 H 0.8442 0.9871 0.7617
H11_6 H 0.7924 0.9809 0.6874
O1_7 O 0.91964(18) 0.27946(19) 0.6534(5)
O3_7 O 0.67002(18) 0.07014(19) 0.3256(5)
N4_7 N 0.8084(2) 0.2329(2) 0.6829(6)
H1_7 H 0.7998 0.2228 0.6003
N5_7 N 0.7672(2) 0.1920(2) 0.1856(6)
H2_7 H 0.7772 0.1989 0.1025
N6_7 N 0.6969(2) 0.0678(2) 0.6160(5)
O5_7 O 0.7982(3) 0.2065(2) 0.8962(6)
O6_7 O 0.7920(2) 0.2076(2) 0.4000(5)
C1_7 C 0.8594(3) 0.2531(3) 0.2410(7)
C2_7 C 0.7492(3) 0.1405(3) 0.7344(7)
C3_7 C 0.7872(3) 0.1958(3) 0.7784(7)
C4_7 C 0.7011(2) 0.0984(2) 0.2323(7)
C5_7 C 0.8452(2) 0.2899(3) 0.7108(7)
H3_7 H 0.8482 0.3085 0.6254
C6_7 C 0.8042(3) 0.2161(3) 0.2820(7)
C7_7 C 0.7114(3) 0.1549(3) 0.2164(7)
H4_7 H 0.7017 0.1664 0.3001
C8_7 C 0.9037(3) 0.2775(3) 0.3220(7)
H5_7 H 0.9033 0.2733 0.4150
C9_7 C 0.7256(3) 0.0955(3) 0.8176(7)
H6_7 H 0.7312 0.0959 0.9101
C10_7 C 0.7306(3) 0.1212(3) 0.6105(7)
H7_7 H 0.7400 0.1423 0.5324
C11_7 C 0.8797(3) 0.2710(3) 0.1149(7)
H8_7 H 0.8590 0.2612 0.0362
C12_7 C 0.9019(2) 0.2995(2) 0.7365(6)
C13_7 C 0.6754(3) 0.1547(3) 0.1038(9)
H9_7 H 0.6795 0.1904 0.0951
H10_5 H 0.6379 0.1286 0.1237
H11_7 H 0.6857 0.1448 0.0208
C14_7 C 0.8274(5) 0.3159(5) 0.8066(15)
H12_7 H 0.7953 0.3155 0.7730
H13_7 H 0.8559 0.3530 0.8200
H14_7 H 0.8191 0.2966 0.8907
O1_8 O 0.72054(19) 0.64019(26) 0.6534(5)
O3_8 O 0.92986(19) 0.59989(26) 0.3256(5)
N4_8 N 0.7671(2) 0.5756(3) 0.6829(6)
H1_8 H 0.7772 0.5771 0.6003
N5_8 N 0.8080(2) 0.5753(3) 0.1856(6)
H2_8 H 0.8011 0.5784 0.1025
N6_8 N 0.9322(2) 0.6292(3) 0.6160(5)
O5_8 O 0.7935(2) 0.5918(4) 0.8962(6)
O6_8 O 0.7924(2) 0.5845(3) 0.4000(5)
C1_8 C 0.7469(3) 0.6064(4) 0.2410(7)
C2_8 C 0.8595(3) 0.6088(4) 0.7344(7)
C3_8 C 0.8042(3) 0.5915(4) 0.7784(7)
C4_8 C 0.9016(2) 0.6028(3) 0.2323(7)
C5_8 C 0.7101(3) 0.5554(4) 0.7108(7)
H3_8 H 0.6915 0.5398 0.6254
C6_8 C 0.7839(3) 0.5882(4) 0.2820(7)
C7_8 C 0.8451(3) 0.5566(4) 0.2164(7)
H4_8 H 0.8336 0.5354 0.3001
C8_8 C 0.7225(3) 0.6263(4) 0.3220(7)
H5_8 H 0.7267 0.6301 0.4150
C9_8 C 0.9045(3) 0.6302(4) 0.8176(7)
H6_8 H 0.9041 0.6354 0.9101
C10_8 C 0.8788(3) 0.6095(4) 0.6105(7)
H7_8 H 0.8577 0.5978 0.5324
C11_8 C 0.7290(3) 0.6088(4) 0.1149(7)
H8_8 H 0.7388 0.5979 0.0362
C12_8 C 0.7005(2) 0.6025(3) 0.7365(6)
C13_8 C 0.8453(3) 0.5208(4) 0.1038(9)
H9_8 H 0.8096 0.4892 0.0951
H10_6 H 0.8714 0.5094 0.1237
H11_8 H 0.8552 0.5410 0.0208
C14_8 C 0.6841(5) 0.5116(7) 0.8066(15)
H12_8 H 0.6845 0.4799 0.7730
H13_8 H 0.6470 0.5030 0.8200
H14_8 H 0.7034 0.5226 0.8907
O1_9 O 0.35981(26) 0.08036(18) 0.6534(5)
O3_9 O 0.40011(26) 0.32998(18) 0.3256(5)
N4_9 N 0.4244(3) 0.1916(2) 0.6829(6)
H1_9 H 0.4229 0.2002 0.6003
N5_9 N 0.4247(3) 0.2328(2) 0.1856(6)
H2_9 H 0.4216 0.2228 0.1025
N6_9 N 0.3708(3) 0.3031(2) 0.6160(5)
O5_9 O 0.4082(4) 0.2018(3) 0.8962(6)
O6_9 O 0.4155(3) 0.2080(2) 0.4000(5)
C1_9 C 0.3936(4) 0.1406(3) 0.2410(7)
C2_9 C 0.3912(4) 0.2508(3) 0.7344(7)
C3_9 C 0.4085(4) 0.2128(3) 0.7784(7)
C4_9 C 0.3972(3) 0.2989(2) 0.2323(7)
C5_9 C 0.4446(4) 0.1548(2) 0.7108(7)
H3_9 H 0.4602 0.1518 0.6254
C6_9 C 0.4118(4) 0.1958(3) 0.2820(7)
C7_9 C 0.4434(4) 0.2886(3) 0.2164(7)
H4_9 H 0.4646 0.2983 0.3001
C8_9 C 0.3737(4) 0.0963(3) 0.3220(7)
H5_9 H 0.3699 0.0967 0.4150
C9_9 C 0.3698(4) 0.2744(3) 0.8176(7)
H6_9 H 0.3646 0.2688 0.9101
C10_9 C 0.3905(4) 0.2694(3) 0.6105(7)
H7_9 H 0.4022 0.2600 0.5324
C11_9 C 0.3912(4) 0.1203(3) 0.1149(7)
H8_9 H 0.4021 0.1410 0.0362
C12_9 C 0.3975(3) 0.0981(2) 0.7365(6)
C13_9 C 0.4792(4) 0.3246(3) 0.1038(9)
H9_9 H 0.5108 0.3205 0.0951
H10_7 H 0.4906 0.3621 0.1237
H11_9 H 0.4590 0.3143 0.0208
C14_9 C 0.4884(7) 0.1726(5) 0.8066(15)
H12_9 H 0.5201 0.2047 0.7730
H13_9 H 0.4970 0.1441 0.8200
H14_9 H 0.4774 0.1809 0.8907
H10_8 H 0.9713 0.7952 0.7903
H10_9 H 0.8240 0.0287 0.7903
loop_
_geom_bond_atom_site_label_1
_geom_bond_atom_site_label_2
_geom_bond_site_symmetry_1
_geom_bond_site_symmetry_2
O4 C12 1_555 1_555
O5 C3 1_555 1_555
C2 C3 1_555 1_555
C3 N4 1_555 1_555
C5 N4 1_555 1_555
C9 N2 1_555 1_555
H6 C9 1_555 1_555
C12 C5 1_555 1_555
C14 C5 1_555 1_555
H12 C14 1_555 1_555
H13 C14 1_555 1_555
H14 C14 1_555 1_555
Zn4 O4 1_555 1_555
Zn6 N2 1_555 1_555
C2 C9 1_555 1_555
Zn1 O1 1_555 1_555
Zn2 O3 1_555 1_555
O2 C4 1_555 1_555
O3 C4 1_555 1_555
N1 N3 1_555 1_555
N3 C11 1_555 1_555
N5 H2 1_555 1_555
N6 Zn2 1_555 1_555
O6 C6 1_555 1_555
C1 C6 1_555 1_555
C4 C7 1_555 1_555
C6 N5 1_555 1_555
C7 N5 1_555 1_555
H4 C7 1_555 1_555
C8 N1 1_555 1_555
H5 C8 1_555 1_555
C10 N6 1_555 1_555
H7 C10 1_555 1_555
C11 C1 1_555 1_555
H8 C11 1_555 1_555
C13 C7 1_555 1_555
H9 C13 1_555 1_555
H10 C13 1_555 1_555
H11 C13 1_555 1_555
Zn4 N3 1_555 1_555
Zn5 N1 1_555 1_555
Zn7 O2 1_555 1_555
O7 Zn2 1_555 1_555
O8 Zn1 1_555 1_555
N7 Zn1 1_555 1_555
N8 Zn2 1_555 1_555
C1 C8 1_555 1_555
O8_2 Zn1_2 1_555 1_555
O4_2 C12_2 1_555 1_555
O5_2 C3_2 1_555 1_555
C2_2 C3_2 1_555 1_555
C3_2 N4_2 1_555 1_555
C5_2 N4_2 1_555 1_555
C9_2 N2_2 1_555 1_555
H6_2 C9_2 1_555 1_555
C12_2 C5_2 1_555 1_555
C14_2 C5_2 1_555 1_555
H12_2 C14_2 1_555 1_555
H13_2 C14_2 1_555 1_555
H14_2 C14_2 1_555 1_555
Zn4_2 O4_2 1_555 1_555
C2_2 C9_2 1_555 1_555
Zn2_2 O3_2 1_555 1_555
O2_2 C4_2 1_555 1_555
O3_2 C4_2 1_555 1_555
N1_2 N3_2 1_555 1_555
N3_2 C11_2 1_555 1_555
N5_2 H2_2 1_555 1_555
N6_2 Zn2_2 1_555 1_555
O6_2 C6_2 1_555 1_555
C1_2 C6_2 1_555 1_555
C4_2 C7_2 1_555 1_555
C6_2 N5_2 1_555 1_555
C7_2 N5_2 1_555 1_555
H4_2 C7_2 1_555 1_555
C8_2 N1_2 1_555 1_555
H5_2 C8_2 1_555 1_555
C10_2 N6_2 1_555 1_555
H7_2 C10_2 1_555 1_555
C11_2 C1_2 1_555 1_555
H8_2 C11_2 1_555 1_555
C13_2 C7_2 1_555 1_555
H9_2 C13_2 1_555 1_555
H10_2 C13_2 1_555 1_555
H11_2 C13_2 1_555 1_555
Zn4_2 N3_2 1_555 1_555
O7_2 Zn2_2 1_555 1_555
C1_2 C8_2 1_555 1_555
O4_3 C12_3 1_555 1_555
O5_3 C3_3 1_555 1_555
C2_3 C3_3 1_555 1_555
C3_3 N4_3 1_555 1_555
C5_3 N4_3 1_555 1_555
C9_3 N2_3 1_555 1_555
H6_3 C9_3 1_555 1_555
C12_3 C5_3 1_555 1_555
C14_3 C5_3 1_555 1_555
H12_3 C14_3 1_555 1_555
H13_3 C14_3 1_555 1_555
H14_3 C14_3 1_555 1_555
Zn4_3 O4_3 1_555 1_555
C2_3 C9_3 1_555 1_555
Zn2_3 O3_3 1_555 1_555
O2_3 C4_3 1_555 1_555
O3_3 C4_3 1_555 1_555
N1_3 N3_3 1_555 1_555
N3_3 C11_3 1_555 1_555
N5_3 H2_3 1_555 1_555
N6_3 Zn2_3 1_555 1_555
O6_3 C6_3 1_555 1_555
C1_3 C6_3 1_555 1_555
C4_3 C7_3 1_555 1_555
C6_3 N5_3 1_555 1_555
C7_3 N5_3 1_555 1_555
H4_3 C7_3 1_555 1_555
C8_3 N1_3 1_555 1_555
H5_3 C8_3 1_555 1_555
C10_3 N6_3 1_555 1_555
H7_3 C10_3 1_555 1_555
C11_3 C1_3 1_555 1_555
H8_3 C11_3 1_555 1_555
C13_3 C7_3 1_555 1_555
H9_3 C13_3 1_555 1_555
H10_3 C13_3 1_555 1_555
H11_3 C13_3 1_555 1_555
Zn4_3 N3_3 1_555 1_555
O7_3 Zn2_3 1_555 1_555
C1_3 C8_3 1_555 1_555
O8_3 Zn1_3 1_555 1_555
Zn4_2 O1_4 1_555 1_555
O1_4 C12_4 1_555 1_555
O4_4 C12_4 1_555 1_555
N2_4 N6_4 1_555 1_555
N4_4 H1_4 1_555 1_555
O5_4 C3_4 1_555 1_555
C2_4 C3_4 1_555 1_555
C3_4 N4_4 1_555 1_555
C5_4 N4_4 1_555 1_555
H3_4 C5_4 1_555 1_555
C9_4 N2_4 1_555 1_555
H6_4 C9_4 1_555 1_555
C10_4 N6_4 1_555 1_555
H7_4 C10_4 1_555 1_555
C12_4 C5_4 1_555 1_555
C14_4 C5_4 1_555 1_555
H12_4 C14_4 1_555 1_555
H14_4 C14_4 1_555 1_555
C2_4 C9_4 1_555 1_555
C2_4 C10_4 1_555 1_555
O7_3 C4_4 1_555 1_555
O3_4 C4_4 1_555 1_555
N7_2 N3_4 1_555 1_555
N3_4 C11_4 1_555 1_555
N5_4 H2_4 1_555 1_555
C1_4 C6_4 1_555 1_555
C4_4 C7_4 1_555 1_555
C6_4 N5_4 1_555 1_555
C7_4 N5_4 1_555 1_555
H4_4 C7_4 1_555 1_555
C8_4 N7_2 1_555 1_555
C11_4 C1_4 1_555 1_555
H8_4 C11_4 1_555 1_555
C13_4 C7_4 1_555 1_555
H9_4 C13_4 1_555 1_555
H11_4 C13_4 1_555 1_555
C1_4 C8_4 1_555 1_555
O7_4 Zn6_3 1_555 1_555
Zn4_3 O1_5 1_555 1_555
O1_5 C12_5 1_555 1_555
O4_5 C12_5 1_555 1_555
N2_5 N6_5 1_555 1_555
N4_5 H1_5 1_555 1_555
N6_5 Zn6 1_555 1_555
O5_5 C3_5 1_555 1_555
C2_5 C3_5 1_555 1_555
C3_5 N4_5 1_555 1_555
C5_5 N4_5 1_555 1_555
H3_5 C5_5 1_555 1_555
C9_5 N2_5 1_555 1_555
H6_5 C9_5 1_555 1_555
C10_5 N6_5 1_555 1_555
H7_5 C10_5 1_555 1_555
C12_5 C5_5 1_555 1_555
C14_5 C5_5 1_555 1_555
H12_5 C14_5 1_555 1_555
H14_5 C14_5 1_555 1_555
Zn7 N2_5 1_555 1_555
O7_5 Zn6 1_555 1_555
C2_5 C9_5 1_555 1_555
C2_5 C10_5 1_555 1_555
O7 C4_5 1_555 1_555
O3_5 C4_5 1_555 1_555
N7_3 N3_5 1_555 1_555
N3_5 C11_5 1_555 1_555
N5_5 H2_5 1_555 1_555
C1_5 C6_5 1_555 1_555
C4_5 C7_5 1_555 1_555
C6_5 N5_5 1_555 1_555
C7_5 N5_5 1_555 1_555
H4_5 C7_5 1_555 1_555
C8_5 N7_3 1_555 1_555
C11_5 C1_5 1_555 1_555
H8_5 C11_5 1_555 1_555
C13_5 C7_5 1_555 1_555
H9_5 C13_5 1_555 1_555
H10_4 C13_5 1_555 1_555
H11_5 C13_5 1_555 1_555
C1_5 C8_5 1_555 1_555
O7_6 Zn6_2 1_555 1_555
Zn4 O1_6 1_555 1_555
O1_6 C12_6 1_555 1_555
O4_6 C12_6 1_555 1_555
N2_6 N6_6 1_555 1_555
N4_6 H1_6 1_555 1_555
O5_6 C3_6 1_555 1_555
C2_6 C3_6 1_555 1_555
C3_6 N4_6 1_555 1_555
C5_6 N4_6 1_555 1_555
H3_6 C5_6 1_555 1_555
C9_6 N2_6 1_555 1_555
H6_6 C9_6 1_555 1_555
C10_6 N6_6 1_555 1_555
H7_6 C10_6 1_555 1_555
C12_6 C5_6 1_555 1_555
C14_6 C5_6 1_555 1_555
H12_6 C14_6 1_555 1_555
H13_6 C14_6 1_555 1_555
H14_6 C14_6 1_555 1_555
Zn5 O4_6 1_555 1_555
N7_6 Zn4 1_555 1_555
C2_6 C9_6 1_555 1_555
C2_6 C10_6 1_555 1_555
O7_2 C4_6 1_555 1_555
O3_6 C4_6 1_555 1_555
N7 N3_6 1_555 1_555
N3_6 C11_6 1_555 1_555
N5_6 H2_6 1_555 1_555
C1_6 C6_6 1_555 1_555
C4_6 C7_6 1_555 1_555
C6_6 N5_6 1_555 1_555
C7_6 N5_6 1_555 1_555
H4_6 C7_6 1_555 1_555
C8_6 N7 1_555 1_555
C11_6 C1_6 1_555 1_555
H8_6 C11_6 1_555 1_555
C13_6 C7_6 1_555 1_555
H9_6 C13_6 1_555 1_555
H11_6 C13_6 1_555 1_555
Zn5 N3_6 1_555 1_555
C1_6 C8_6 1_555 1_555
Zn5_3 O1_7 1_555 1_555
Zn7_2 O3_7 1_555 1_555
O1_7 C12_7 1_555 1_555
O7_6 C4_7 1_555 1_555
O3_7 C4_7 1_555 1_555
O8_3 C12_7 1_555 1_555
N7_5 N9_3 1_555 1_555
N8_2 N6_7 1_555 1_555
N9_3 C11_7 1_555 1_555
N4_7 H1_7 1_555 1_555
N5_7 H2_7 1_555 1_555
N6_7 Zn7_2 1_555 1_555
O5_7 C3_7 1_555 1_555
O6_7 C6_7 1_555 1_555
C1_7 C6_7 1_555 1_555
C2_7 C3_7 1_555 1_555
C3_7 N4_7 1_555 1_555
C4_7 C7_7 1_555 1_555
C5_7 N4_7 1_555 1_555
H3_7 C5_7 1_555 1_555
C6_7 N5_7 1_555 1_555
C7_7 N5_7 1_555 1_555
H4_7 C7_7 1_555 1_555
C8_7 N7_5 1_555 1_555
H5_7 C8_7 1_555 1_555
C9_7 N8_2 1_555 1_555
H6_7 C9_7 1_555 1_555
C10_7 N6_7 1_555 1_555
H7_7 C10_7 1_555 1_555
C11_7 C1_7 1_555 1_555
H8_7 C11_7 1_555 1_555
C12_7 C5_7 1_555 1_555
C13_7 C7_7 1_555 1_555
H9_7 C13_7 1_555 1_555
H10_5 C13_7 1_555 1_555
H11_7 C13_7 1_555 1_555
C14_7 C5_7 1_555 1_555
H12_7 C14_7 1_555 1_555
H13_7 C14_7 1_555 1_555
H14_7 C14_7 1_555 1_555
C1_7 C8_7 1_555 1_555
C2_7 C9_7 1_555 1_555
C2_7 C10_7 1_555 1_555
Zn5 O1_8 1_555 1_555
Zn7_3 O3_8 1_555 1_555
O1_8 C12_8 1_555 1_555
O7_4 C4_8 1_555 1_555
O3_8 C4_8 1_555 1_555
O8 C12_8 1_555 1_555
N7_6 N9 1_555 1_555
N8_3 N6_8 1_555 1_555
N9 C11_8 1_555 1_555
N4_8 H1_8 1_555 1_555
N5_8 H2_8 1_555 1_555
N6_8 Zn7_3 1_555 1_555
O5_8 C3_8 1_555 1_555
O6_8 C6_8 1_555 1_555
C1_8 C6_8 1_555 1_555
C2_8 C3_8 1_555 1_555
C3_8 N4_8 1_555 1_555
C4_8 C7_8 1_555 1_555
C5_8 N4_8 1_555 1_555
H3_8 C5_8 1_555 1_555
C6_8 N5_8 1_555 1_555
C7_8 N5_8 1_555 1_555
H4_8 C7_8 1_555 1_555
C8_8 N7_6 1_555 1_555
H5_8 C8_8 1_555 1_555
C9_8 N8_3 1_555 1_555
H6_8 C9_8 1_555 1_555
C10_8 N6_8 1_555 1_555
H7_8 C10_8 1_555 1_555
C11_8 C1_8 1_555 1_555
H8_8 C11_8 1_555 1_555
C12_8 C5_8 1_555 1_555
C13_8 C7_8 1_555 1_555
H9_8 C13_8 1_555 1_555
H10_6 C13_8 1_555 1_555
H11_8 C13_8 1_555 1_555
C14_8 C5_8 1_555 1_555
H12_8 C14_8 1_555 1_555
H13_8 C14_8 1_555 1_555
H14_8 C14_8 1_555 1_555
C1_8 C8_8 1_555 1_555
C2_8 C9_8 1_555 1_555
C2_8 C10_8 1_555 1_555
Zn5_2 O1_9 1_555 1_555
Zn7 O3_9 1_555 1_555
O1_9 C12_9 1_555 1_555
O7_5 C4_9 1_555 1_555
O3_9 C4_9 1_555 1_555
O8_2 C12_9 1_555 1_555
N7_4 N9_2 1_555 1_555
N8 N6_9 1_555 1_555
N9_2 C11_9 1_555 1_555
N4_9 H1_9 1_555 1_555
N5_9 H2_9 1_555 1_555
N6_9 Zn7 1_555 1_555
O5_9 C3_9 1_555 1_555
O6_9 C6_9 1_555 1_555
C1_9 C6_9 1_555 1_555
C2_9 C3_9 1_555 1_555
C3_9 N4_9 1_555 1_555
C4_9 C7_9 1_555 1_555
C5_9 N4_9 1_555 1_555
H3_9 C5_9 1_555 1_555
C6_9 N5_9 1_555 1_555
C7_9 N5_9 1_555 1_555
H4_9 C7_9 1_555 1_555
C8_9 N7_4 1_555 1_555
H5_9 C8_9 1_555 1_555
C9_9 N8 1_555 1_555
H6_9 C9_9 1_555 1_555
C10_9 N6_9 1_555 1_555
H7_9 C10_9 1_555 1_555
C11_9 C1_9 1_555 1_555
H8_9 C11_9 1_555 1_555
C12_9 C5_9 1_555 1_555
C13_9 C7_9 1_555 1_555
H9_9 C13_9 1_555 1_555
H10_7 C13_9 1_555 1_555
H11_9 C13_9 1_555 1_555
C14_9 C5_9 1_555 1_555
H12_9 C14_9 1_555 1_555
H13_9 C14_9 1_555 1_555
H14_9 C14_9 1_555 1_555
C1_9 C8_9 1_555 1_555
C2_9 C9_9 1_555 1_555
C2_9 C10_9 1_555 1_555

#END
