
###############################################################################
#
# This file contains modified crystal structure data generated from the
# MOF subset of the Cambridge Structural Database (CSD) v543 
# hosted by the Cambridge Crystallographic Data Centre (CCDC).
#
# This work is licensed under the Creative Commons
# Attribution-NonCommercial-ShareAlike 4.0 International License.
# To view a copy of this license, visit
# http://creativecommons.org/licenses/by-nc-sa/4.0/
# or send a letter to
# Creative Commons, PO Box 1866, Mountain View, CA 94042, USA.
#
# CIF created using the CSD Python API on 29 September 2022
# The structure has been converted into the P1 space group
# The structure has a 3D framework
# The original CSD entry VUWZAR is in the rhombohedral crystal system
# The original CSD entry VUWZAR is in a Sohncke space group
# The framework has been calculated to contain at least 10.0% void space
# The void calculation uses a probe of radius 1.32A, grid spacing 0.4
#
###############################################################################

data_VUWZAR
_chemical_formula_moiety         '(C126 H126 N54 O52 Zn13)n'
_symmetry_cell_setting           triclinic
_symmetry_space_group_name_H-M   'P 1'
_symmetry_Int_Tables_number      1
_space_group_name_Hall           'P 1'
loop_
_symmetry_equiv_pos_site_id
_symmetry_equiv_pos_as_xyz
1 x,y,z
_cell_length_a                   27.7361(9)
_cell_length_b                   27.7361(9)
_cell_length_c                   10.1353(3)
_cell_angle_alpha                90
_cell_angle_beta                 90
_cell_angle_gamma                120
_cell_volume                     6752.4
loop_
_atom_site_label
_atom_site_type_symbol
_atom_site_fract_x
_atom_site_fract_y
_atom_site_fract_z
Zn1 Zn 0.64587(5) 0.67294(5) 0.48091(11)
O1 O 0.3287(4) 0.4027(4) 0.8431(8)
O2 O 0.5945(4) 0.6704(4) 0.3427(8)
O3 O 0.5811(4) 0.6171(4) 0.1665(8)
O4 O 0.4581(4) 0.5491(4) 0.4138(9)
O5 O 0.3859(4) 0.4195(3) 0.6696(8)
N1 N 0.5974(4) 0.6441(4) 0.6345(9)
N2 N 0.4263(4) 0.5325(4) 0.7065(10)
H1 H 0.4363 0.5407 0.6235
N3 N 0.3568(5) 0.4033(5) 0.1354(9)
C1 C 0.4074(5) 0.4793(5) 0.2552(11)
O6 O 0.4531(4) 0.5471(5) 0.9198(9)
N4 N 0.4669(4) 0.5757(4) 0.2012(10)
H2 H 0.4555 0.5646 0.1200
N5 N 0.6148(4) 0.6474(4) 0.7640(9)
C2 C 0.5224(5) 0.5947(5) 0.7589(11)
C3 C 0.5649(5) 0.6403(5) 0.2486(11)
C4 C 0.5089(5) 0.6358(5) 0.2237(13)
H3 H 0.5128 0.6540 0.1362
N6 N 0.3568(4) 0.3877(5) 0.2651(10)
C5 C 0.3618(5) 0.4347(5) 0.7517(11)
C6 C 0.4458(5) 0.5379(5) 0.2990(11)
C7 C 0.3872(5) 0.4592(5) 0.1314(11)
H4 H 0.3938 0.4814 0.0548
C8 C 0.3681(5) 0.4926(5) 0.7384(12)
H5 H 0.3580 0.5033 0.8238
C9 C 0.5425(5) 0.6127(5) 0.6307(12)
H6 H 0.5202 0.6037 0.5534
C10 C 0.4635(5) 0.5563(5) 0.7997(11)
C11 C 0.3858(6) 0.4312(5) 0.3352(11)
H7 H 0.3919 0.4312 0.4274
C12 C 0.5694(6) 0.6180(5) 0.8355(12)
H8 H 0.5694 0.6135 0.9284
C13 C 0.3300(6) 0.4919(7) 0.6305(15)
H9 H 0.3357 0.5294 0.6189
H10 H 0.2912 0.4663 0.6550
H11 H 0.3386 0.4794 0.5477
C14 C 0.4908(7) 0.6656(8) 0.3154(18)
H12 H 0.4542 0.6594 0.2883
H13 H 0.5179 0.7056 0.3132
H14 H 0.4884 0.6516 0.4053
Zn3 Zn 0.69374(7) 0.68746(5) 0.81424(11)
Zn4 Zn 0.66039(5) 0.63960(7) 0.14758(11)
Zn5 Zn 0.32730(6) 0.35287(5) 0.98430(11)
Zn6 Zn 0.31380(5) 0.30776(8) 0.31763(11)
Zn7 Zn 0.35890(8) 0.33937(6) 0.65097(11)
O8 O 0.7027(6) 0.7522(4) 0.4998(8)
O9 O 0.2472(3) 0.2997(5) 0.0029(8)
N7 N 0.6859(4) 0.6341(6) 0.4307(9)
N8 N 0.3642(6) 0.3099(4) 0.9318(10)
Zn3_2 Zn 0.31254(5) 0.00627(9) 0.81424(11)
Zn4_2 Zn 0.36040(7) 0.02080(9) 0.14758(11)
Zn6_2 Zn 0.69224(8) 0.00603(9) 0.31763(11)
Zn7_2 Zn 0.66063(6) 0.01954(10) 0.65097(11)
N7_2 N 0.3659(6) 0.0519(7) 0.4307(9)
N8_2 N 0.6901(4) 0.0544(7) 0.9318(10)
Zn1_2 Zn 0.32706(5) 0.97293(7) 0.48091(11)
O1_2 O 0.5973(4) 0.9260(6) 0.8431(8)
O2_2 O 0.3296(4) 0.9241(6) 0.3427(8)
O3_2 O 0.3829(4) 0.9640(6) 0.1665(8)
O4_2 O 0.4509(4) 0.9090(6) 0.4138(9)
O5_2 O 0.5805(3) 0.9664(5) 0.6696(8)
N1_2 N 0.3559(4) 0.9533(6) 0.6345(9)
N2_2 N 0.4675(4) 0.8938(6) 0.7065(10)
H1_2 H 0.4593 0.8956 0.6235
N3_2 N 0.5967(5) 0.9535(7) 0.1354(9)
C1_2 C 0.5207(5) 0.9281(7) 0.2552(11)
O6_2 O 0.4529(5) 0.9060(6) 0.9198(9)
N4_2 N 0.4243(4) 0.8912(6) 0.2012(10)
H2_2 H 0.4354 0.8909 0.1200
N5_2 N 0.3526(4) 0.9674(6) 0.7640(9)
C2_2 C 0.4053(5) 0.9277(7) 0.7589(11)
C3_2 C 0.3597(5) 0.9246(7) 0.2486(11)
C4_2 C 0.3642(5) 0.8731(7) 0.2237(13)
H3_2 H 0.3460 0.8588 0.1362
N6_2 N 0.6123(5) 0.9691(6) 0.2651(10)
C5_2 C 0.5653(5) 0.9271(7) 0.7517(11)
C6_2 C 0.4621(5) 0.9079(7) 0.2990(11)
C7_2 C 0.5408(5) 0.9280(7) 0.1314(11)
H4_2 H 0.5186 0.9124 0.0548
C8_2 C 0.5074(5) 0.8755(7) 0.7384(12)
H5_2 H 0.4967 0.8547 0.8238
C9_2 C 0.3873(5) 0.9298(7) 0.6307(12)
H6_2 H 0.3963 0.9165 0.5534
C10_2 C 0.4437(5) 0.9072(7) 0.7997(11)
C11_2 C 0.5688(5) 0.9546(8) 0.3352(11)
H7_2 H 0.5688 0.9607 0.4274
C12_2 C 0.3820(5) 0.9514(8) 0.8355(12)
H8_2 H 0.3865 0.9559 0.9284
C13_2 C 0.5081(7) 0.8381(9) 0.6305(15)
H9_2 H 0.4706 0.8063 0.6189
H10_2 H 0.5337 0.8249 0.6550
H11_2 H 0.5206 0.8592 0.5477
C14_2 C 0.3344(8) 0.8252(11) 0.3154(18)
H12_2 H 0.3406 0.7948 0.2883
H13_2 H 0.2944 0.8123 0.3132
H14_2 H 0.3484 0.8368 0.4053
Zn5_2 Zn 0.64713(5) 0.97443(8) 0.98430(11)
O8_2 O 0.2478(4) 0.9504(7) 0.4998(8)
O9_2 O 0.7003(5) 0.9474(6) 0.0029(8)
Zn1_3 Zn 0.02707(7) 0.35413(5) 0.48091(11)
O1_3 O 0.0740(6) 0.6713(4) 0.8431(8)
O2_3 O 0.0759(6) 0.4055(4) 0.3427(8)
O3_3 O 0.0360(6) 0.4189(4) 0.1665(8)
O4_3 O 0.0910(6) 0.5419(4) 0.4138(9)
O5_3 O 0.0336(5) 0.6141(4) 0.6696(8)
N1_3 N 0.0467(6) 0.4026(4) 0.6345(9)
N2_3 N 0.1062(6) 0.5737(4) 0.7065(10)
H1_3 H 0.1044 0.5637 0.6235
N3_3 N 0.0465(7) 0.6432(5) 0.1354(9)
C1_3 C 0.0719(7) 0.5926(5) 0.2552(11)
O6_3 O 0.0940(6) 0.5469(4) 0.9198(9)
N4_3 N 0.1088(6) 0.5331(4) 0.2012(10)
H2_3 H 0.1091 0.5445 0.1200
N5_3 N 0.0326(6) 0.3852(4) 0.7640(9)
C2_3 C 0.0723(7) 0.4776(5) 0.7589(11)
C3_3 C 0.0754(7) 0.4351(5) 0.2486(11)
C4_3 C 0.1269(7) 0.4911(5) 0.2237(13)
H3_3 H 0.1412 0.4872 0.1362
N6_3 N 0.0309(6) 0.6432(4) 0.2651(10)
C5_3 C 0.0729(7) 0.6382(5) 0.7517(11)
C6_3 C 0.0921(7) 0.5542(5) 0.2990(11)
C7_3 C 0.0720(7) 0.6128(5) 0.1314(11)
H4_3 H 0.0876 0.6062 0.0548
C8_3 C 0.1245(7) 0.6319(5) 0.7384(12)
H5_3 H 0.1453 0.6420 0.8238
C9_3 C 0.0702(7) 0.4575(5) 0.6307(12)
H6_3 H 0.0835 0.4798 0.5534
C10_3 C 0.0928(7) 0.5365(5) 0.7997(11)
C11_3 C 0.0454(8) 0.6142(6) 0.3352(11)
H7_3 H 0.0393 0.6081 0.4274
C12_3 C 0.0486(8) 0.4306(6) 0.8355(12)
H8_3 H 0.0441 0.4306 0.9284
C13_3 C 0.1619(9) 0.6700(6) 0.6305(15)
H9_3 H 0.1937 0.6643 0.6189
H10_3 H 0.1751 0.7088 0.6550
H11_3 H 0.1408 0.6614 0.5477
C14_3 C 0.1748(11) 0.5092(7) 0.3154(18)
H12_3 H 0.2052 0.5458 0.2883
H13_3 H 0.1877 0.4821 0.3132
H14_3 H 0.1632 0.5116 0.4053
Zn5_3 Zn 0.02557(8) 0.67270(6) 0.98430(11)
O8_3 O 0.0496(7) 0.2973(6) 0.4998(8)
O9_3 O 0.0526(6) 0.7528(3) 0.0029(8)
Zn3_3 Zn 0.99373(9) 0.30626(7) 0.81424(11)
Zn4_3 Zn 0.97920(9) 0.33961(5) 0.14758(11)
Zn6_3 Zn 0.99397(9) 0.68620(5) 0.31763(11)
Zn7_3 Zn 0.98046(10) 0.64110(8) 0.65097(11)
N7_3 N 0.9481(7) 0.3141(4) 0.4307(9)
N8_3 N 0.9456(7) 0.6358(6) 0.9318(10)
O2_4 O 0.2612(4) 0.0037(4) 0.6760(8)
H13_4 H 0.1846 0.0389 0.6465
O8_4 O 0.3693(6) 0.0856(4) 0.8332(8)
N2_4 N 0.0930(4) 0.8658(4) 0.0398(10)
O6_4 O 0.1198(4) 0.8804(5) 0.2531(9)
N5_4 N 0.2815(4) 0.9807(4) 0.0973(9)
C2_4 C 0.1891(5) 0.9280(5) 0.0922(11)
C5_4 C 0.0285(5) 0.7680(5) 0.0850(11)
C8_4 C 0.0348(5) 0.8259(5) 0.0717(12)
H5_4 H 0.0247 0.8366 0.1571
C10_4 C 0.1302(5) 0.8896(5) 0.1330(11)
C12_4 C 0.2361(6) 0.9513(5) 0.1688(12)
H8_4 H 0.2361 0.9468 0.2617
O4_4 O 0.1248(4) 0.8824(4) 0.7471(9)
N1_4 N 0.2641(4) 0.9774(4) 0.9678(9)
H1_4 H 0.1030 0.8740 0.9568
N3_4 N 0.0235(5) 0.7366(5) 0.4687(9)
C1_4 C 0.0741(5) 0.8126(5) 0.5885(11)
N4_4 N 0.1336(4) 0.9090(4) 0.5345(10)
H2_4 H 0.1222 0.8979 0.4533
C3_4 C 0.2316(5) 0.9736(5) 0.5819(11)
C4_4 C 0.1756(5) 0.9691(5) 0.5570(13)
H3_4 H 0.1795 0.9873 0.4695
N6_4 N 0.0235(4) 0.7210(5) 0.5984(10)
C6_4 C 0.1125(5) 0.8712(5) 0.6323(11)
C7_4 C 0.0539(5) 0.7925(5) 0.4647(11)
H4_4 H 0.0605 0.8147 0.3881
C9_4 C 0.2092(5) 0.9460(5) 0.9640(12)
H6_4 H 0.1869 0.9370 0.8867
C11_4 C 0.0525(6) 0.7645(5) 0.6685(11)
H7_4 H 0.0586 0.7645 0.7607
H9_4 H 0.0024 0.8627 0.9522
H11_4 H 0.0053 0.8127 0.8810
C14_4 C 0.1575(7) 0.9989(8) 0.6487(18)
H12_4 H 0.1209 0.9927 0.6216
H14_4 H 0.1551 0.9849 0.7386
O1_4 O 0.9954(4) 0.7360(4) 0.1764(8)
C13_4 C 0.9967(6) 0.8252(7) 0.9638(15)
H10_4 H 0.9579 0.7996 0.9883
O9_4 O 0.9138(3) 0.6331(5) 0.3363(8)
O1_5 O 0.2640(4) 0.2593(6) 0.1764(8)
N2_5 N 0.1342(4) 0.2271(6) 0.0398(10)
O6_5 O 0.1196(5) 0.2393(6) 0.2531(9)
N5_5 N 0.0193(4) 0.3007(6) 0.0973(9)
C2_5 C 0.0720(5) 0.2610(7) 0.0922(11)
C5_5 C 0.2320(5) 0.2604(7) 0.0850(11)
C8_5 C 0.1741(5) 0.2088(7) 0.0717(12)
H5_5 H 0.1634 0.1880 0.1571
C10_5 C 0.1104(5) 0.2405(7) 0.1330(11)
C12_5 C 0.0487(5) 0.2847(8) 0.1688(12)
H8_5 H 0.0532 0.2892 0.2617
O4_5 O 0.1176(4) 0.2423(6) 0.7471(9)
N1_5 N 0.0226(4) 0.2866(6) 0.9678(9)
H1_5 H 0.1260 0.2289 0.9568
N3_5 N 0.2634(5) 0.2868(7) 0.4687(9)
C1_5 C 0.1874(5) 0.2614(7) 0.5885(11)
N4_5 N 0.0910(4) 0.2245(6) 0.5345(10)
H2_5 H 0.1021 0.2242 0.4533
C3_5 C 0.0264(5) 0.2579(7) 0.5819(11)
C4_5 C 0.0309(5) 0.2064(7) 0.5570(13)
H3_5 H 0.0127 0.1921 0.4695
N6_5 N 0.2790(5) 0.3024(6) 0.5984(10)
C6_5 C 0.1288(5) 0.2412(7) 0.6323(11)
C7_5 C 0.2075(5) 0.2613(7) 0.4647(11)
H4_5 H 0.1853 0.2457 0.3881
C9_5 C 0.0540(5) 0.2631(7) 0.9640(12)
H6_5 H 0.0630 0.2498 0.8867
C11_5 C 0.2355(5) 0.2879(8) 0.6685(11)
H7_5 H 0.2355 0.2940 0.7607
C13_5 C 0.1748(7) 0.1714(9) 0.9638(15)
H9_5 H 0.1373 0.1396 0.9522
H10_5 H 0.2004 0.1582 0.9883
H11_5 H 0.1873 0.1925 0.8810
C14_5 C 0.0011(8) 0.1585(11) 0.6487(18)
H12_5 H 0.0073 0.1281 0.6216
H14_5 H 0.0151 0.1701 0.7386
O9_5 O 0.3669(5) 0.2808(6) 0.3363(8)
O2_5 O 0.9963(4) 0.2574(6) 0.6760(8)
H13_5 H 0.9611 0.1456 0.6465
O8_5 O 0.9144(4) 0.2838(7) 0.8332(8)
O1_6 O 0.7407(6) 0.0046(4) 0.1764(8)
C13_6 C 0.8286(9) 0.0033(6) 0.9638(15)
H10_6 H 0.8418 0.0421 0.9883
O9_6 O 0.7192(6) 0.0862(3) 0.3363(8)
N2_6 N 0.7729(6) 0.9070(4) 0.0398(10)
O6_6 O 0.7607(6) 0.8802(4) 0.2531(9)
N5_6 N 0.6993(6) 0.7185(4) 0.0973(9)
C2_6 C 0.7390(7) 0.8109(5) 0.0922(11)
C5_6 C 0.7396(7) 0.9715(5) 0.0850(11)
C8_6 C 0.7912(7) 0.9652(5) 0.0717(12)
H5_6 H 0.8120 0.9753 0.1571
C10_6 C 0.7595(7) 0.8698(5) 0.1330(11)
C12_6 C 0.7153(8) 0.7639(6) 0.1688(12)
H8_6 H 0.7108 0.7639 0.2617
O2_6 O 0.7426(6) 0.7388(4) 0.6760(8)
O4_6 O 0.7577(6) 0.8752(4) 0.7471(9)
N1_6 N 0.7134(6) 0.7359(4) 0.9678(9)
H1_6 H 0.7711 0.8970 0.9568
N3_6 N 0.7132(7) 0.9765(5) 0.4687(9)
C1_6 C 0.7386(7) 0.9259(5) 0.5885(11)
N4_6 N 0.7755(6) 0.8664(4) 0.5345(10)
H2_6 H 0.7758 0.8778 0.4533
C3_6 C 0.7421(7) 0.7684(5) 0.5819(11)
C4_6 C 0.7936(7) 0.8244(5) 0.5570(13)
H3_6 H 0.8079 0.8205 0.4695
N6_6 N 0.6976(6) 0.9765(4) 0.5984(10)
C6_6 C 0.7588(7) 0.8875(5) 0.6323(11)
C7_6 C 0.7387(7) 0.9461(5) 0.4647(11)
H4_6 H 0.7543 0.9395 0.3881
C9_6 C 0.7369(7) 0.7908(5) 0.9640(12)
H6_6 H 0.7502 0.8131 0.8867
C11_6 C 0.7121(8) 0.9475(6) 0.6685(11)
H7_6 H 0.7060 0.9414 0.7607
H9_6 H 0.8604 0.9976 0.9522
H11_6 H 0.8075 0.9947 0.8810
C14_6 C 0.8415(11) 0.8425(7) 0.6487(18)
H12_6 H 0.8719 0.8791 0.6216
H13_6 H 0.8544 0.8154 0.6465
H14_6 H 0.8299 0.8449 0.7386
O8_6 O 0.7162(7) 0.6307(6) 0.8332(8)
O1_7 O 0.6620(4) 0.0694(4) 0.5098(8)
O2_7 O 0.9278(4) 0.3371(4) 0.0094(8)
O4_7 O 0.7914(4) 0.2158(4) 0.0805(9)
N1_7 N 0.9307(4) 0.3108(4) 0.3012(9)
N2_7 N 0.7596(4) 0.1992(4) 0.3732(10)
H1_7 H 0.7696 0.2074 0.2902
O6_7 O 0.7864(4) 0.2138(5) 0.5865(9)
C2_7 C 0.8557(5) 0.2614(5) 0.4256(11)
C5_7 C 0.6951(5) 0.1014(5) 0.4184(11)
C8_7 C 0.7014(5) 0.1593(5) 0.4051(12)
H5_7 H 0.6913 0.1700 0.4905
C9_7 C 0.8758(5) 0.2794(5) 0.2974(12)
H6_7 H 0.8535 0.2704 0.2201
C10_7 C 0.7968(5) 0.2230(5) 0.4664(11)
C11_7 C 0.7191(6) 0.0979(5) 0.0019(11)
H7_7 H 0.7252 0.0979 0.0941
C12_7 C 0.9027(6) 0.2847(5) 0.5022(12)
H8_7 H 0.9027 0.2802 0.5951
C13_7 C 0.6633(6) 0.1586(7) 0.2972(15)
H9_7 H 0.6690 0.1961 0.2856
H10_7 H 0.6245 0.1330 0.3217
H11_7 H 0.6719 0.1461 0.2144
H14_7 H 0.8217 0.3183 0.0720
N3_7 N 0.6901(5) 0.0700(5) 0.8021(9)
C1_7 C 0.7407(5) 0.1460(5) 0.9219(11)
N4_7 N 0.8002(4) 0.2424(4) 0.8679(10)
H2_7 H 0.7888 0.2313 0.7867
C3_7 C 0.8982(5) 0.3070(5) 0.9153(11)
C4_7 C 0.8422(5) 0.3025(5) 0.8904(13)
H3_7 H 0.8461 0.3207 0.8029
C6_7 C 0.7791(5) 0.2046(5) 0.9657(11)
C7_7 C 0.7205(5) 0.1259(5) 0.7981(11)
H4_7 H 0.7271 0.1481 0.7215
C14_7 C 0.8241(7) 0.3323(8) 0.9821(18)
H12_7 H 0.7875 0.3261 0.9550
H13_7 H 0.8512 0.3723 0.9799
O1_8 O 0.9306(4) 0.5927(6) 0.5098(8)
O2_8 O 0.6629(4) 0.5908(6) 0.0094(8)
O4_8 O 0.7842(4) 0.5757(6) 0.0805(9)
N1_8 N 0.6892(4) 0.6200(6) 0.3012(9)
N2_8 N 0.8008(4) 0.5605(6) 0.3732(10)
H1_8 H 0.7926 0.5623 0.2902
O6_8 O 0.7862(5) 0.5727(6) 0.5865(9)
C2_8 C 0.7386(5) 0.5944(7) 0.4256(11)
C5_8 C 0.8986(5) 0.5938(7) 0.4184(11)
C8_8 C 0.8407(5) 0.5422(7) 0.4051(12)
H5_8 H 0.8300 0.5214 0.4905
C9_8 C 0.7206(5) 0.5965(7) 0.2974(12)
H6_8 H 0.7296 0.5832 0.2201
C10_8 C 0.7770(5) 0.5739(7) 0.4664(11)
C11_8 C 0.9021(5) 0.6213(8) 0.0019(11)
H7_8 H 0.9021 0.6274 0.0941
C12_8 C 0.7153(5) 0.6181(8) 0.5022(12)
H8_8 H 0.7198 0.6226 0.5951
C13_8 C 0.8414(7) 0.5048(9) 0.2972(15)
H9_8 H 0.8039 0.4730 0.2856
H10_8 H 0.8670 0.4916 0.3217
H11_8 H 0.8539 0.5259 0.2144
H14_8 H 0.6817 0.5035 0.0720
N3_8 N 0.9300(5) 0.6202(7) 0.8021(9)
C1_8 C 0.8540(5) 0.5948(7) 0.9219(11)
N4_8 N 0.7576(4) 0.5579(6) 0.8679(10)
H2_8 H 0.7687 0.5576 0.7867
C3_8 C 0.6930(5) 0.5913(7) 0.9153(11)
C4_8 C 0.6975(5) 0.5398(7) 0.8904(13)
H3_8 H 0.6793 0.5255 0.8029
C6_8 C 0.7954(5) 0.5746(7) 0.9657(11)
C7_8 C 0.8741(5) 0.5947(7) 0.7981(11)
H4_8 H 0.8519 0.5791 0.7215
C14_8 C 0.6677(8) 0.4919(11) 0.9821(18)
H12_8 H 0.6739 0.4615 0.9550
H13_8 H 0.6277 0.4790 0.9799
O1_9 O 0.4073(6) 0.3380(4) 0.5098(8)
O2_9 O 0.4092(6) 0.0722(4) 0.0094(8)
O4_9 O 0.4243(6) 0.2086(4) 0.0805(9)
N1_9 N 0.3800(6) 0.0693(4) 0.3012(9)
N2_9 N 0.4395(6) 0.2404(4) 0.3732(10)
H1_9 H 0.4377 0.2304 0.2902
O6_9 O 0.4273(6) 0.2136(4) 0.5865(9)
C2_9 C 0.4056(7) 0.1443(5) 0.4256(11)
C5_9 C 0.4062(7) 0.3049(5) 0.4184(11)
C8_9 C 0.4578(7) 0.2986(5) 0.4051(12)
H5_9 H 0.4786 0.3087 0.4905
C9_9 C 0.4035(7) 0.1242(5) 0.2974(12)
H6_9 H 0.4168 0.1465 0.2201
C10_9 C 0.4261(7) 0.2032(5) 0.4664(11)
C11_9 C 0.3787(8) 0.2809(6) 0.0019(11)
H7_9 H 0.3726 0.2748 0.0941
C12_9 C 0.3819(8) 0.0973(6) 0.5022(12)
H8_9 H 0.3774 0.0973 0.5951
C13_9 C 0.4952(9) 0.3367(6) 0.2972(15)
H9_9 H 0.5270 0.3310 0.2856
H10_9 H 0.5084 0.3755 0.3217
H11_9 H 0.4741 0.3281 0.2144
H14_9 H 0.4965 0.1783 0.0720
N3_9 N 0.3798(7) 0.3099(5) 0.8021(9)
C1_9 C 0.4052(7) 0.2593(5) 0.9219(11)
N4_9 N 0.4421(6) 0.1998(4) 0.8679(10)
H2_9 H 0.4424 0.2112 0.7867
C3_9 C 0.4087(7) 0.1018(5) 0.9153(11)
C4_9 C 0.4602(7) 0.1578(5) 0.8904(13)
H3_9 H 0.4745 0.1539 0.8029
C6_9 C 0.4254(7) 0.2209(5) 0.9657(11)
C7_9 C 0.4053(7) 0.2795(5) 0.7981(11)
H4_9 H 0.4209 0.2729 0.7215
C14_9 C 0.5081(11) 0.1759(7) 0.9821(18)
H12_9 H 0.5385 0.2125 0.9550
H13_9 H 0.5210 0.1488 0.9799
loop_
_geom_bond_atom_site_label_1
_geom_bond_atom_site_label_2
_geom_bond_site_symmetry_1
_geom_bond_site_symmetry_2
Zn1 O2 1_555 1_555
O1 C5 1_555 1_555
O2 C3 1_555 1_555
O3 C3 1_555 1_555
O4 C6 1_555 1_555
O5 C5 1_555 1_555
N1 Zn1 1_555 1_555
N2 H1 1_555 1_555
N3 N6 1_555 1_555
C1 C6 1_555 1_555
O6 C10 1_555 1_555
N4 H2 1_555 1_555
N5 N1 1_555 1_555
C2 C9 1_555 1_555
C3 C4 1_555 1_555
C4 N4 1_555 1_555
H3 C4 1_555 1_555
N6 C11 1_555 1_555
C5 C8 1_555 1_555
C6 N4 1_555 1_555
C7 N3 1_555 1_555
H4 C7 1_555 1_555
C8 N2 1_555 1_555
H5 C8 1_555 1_555
C9 N1 1_555 1_555
H6 C9 1_555 1_555
C10 N2 1_555 1_555
C11 C1 1_555 1_555
H7 C11 1_555 1_555
C12 N5 1_555 1_555
H8 C12 1_555 1_555
C13 C8 1_555 1_555
H9 C13 1_555 1_555
H10 C13 1_555 1_555
H11 C13 1_555 1_555
C14 C4 1_555 1_555
H12 C14 1_555 1_555
H13 C14 1_555 1_555
H14 C14 1_555 1_555
Zn3 N5 1_555 1_555
Zn4 O3 1_555 1_555
Zn5 O1 1_555 1_555
Zn6 N6 1_555 1_555
Zn7 O5 1_555 1_555
O8 Zn1 1_555 1_555
N7 Zn1 1_555 1_555
C1 C7 1_555 1_555
C2 C10 1_555 1_555
C2 C12 1_555 1_555
N8 Zn5 1_555 1_555
Zn1_2 O2_2 1_555 1_555
O1_2 C5_2 1_555 1_555
O2_2 C3_2 1_555 1_555
O3_2 C3_2 1_555 1_555
O4_2 C6_2 1_555 1_555
O5_2 C5_2 1_555 1_555
N1_2 Zn1_2 1_555 1_555
N2_2 H1_2 1_555 1_555
N3_2 N6_2 1_555 1_555
C1_2 C6_2 1_555 1_555
O6_2 C10_2 1_555 1_555
N4_2 H2_2 1_555 1_555
N5_2 N1_2 1_555 1_555
C2_2 C9_2 1_555 1_555
C3_2 C4_2 1_555 1_555
C4_2 N4_2 1_555 1_555
H3_2 C4_2 1_555 1_555
N6_2 C11_2 1_555 1_555
C5_2 C8_2 1_555 1_555
C6_2 N4_2 1_555 1_555
C7_2 N3_2 1_555 1_555
H4_2 C7_2 1_555 1_555
C8_2 N2_2 1_555 1_555
H5_2 C8_2 1_555 1_555
C9_2 N1_2 1_555 1_555
H6_2 C9_2 1_555 1_555
C10_2 N2_2 1_555 1_555
C11_2 C1_2 1_555 1_555
H7_2 C11_2 1_555 1_555
C12_2 N5_2 1_555 1_555
H8_2 C12_2 1_555 1_555
C13_2 C8_2 1_555 1_555
H9_2 C13_2 1_555 1_555
H10_2 C13_2 1_555 1_555
H11_2 C13_2 1_555 1_555
C14_2 C4_2 1_555 1_555
H12_2 C14_2 1_555 1_555
H13_2 C14_2 1_555 1_555
H14_2 C14_2 1_555 1_555
Zn5_2 O1_2 1_555 1_555
O8_2 Zn1_2 1_555 1_555
C1_2 C7_2 1_555 1_555
C2_2 C10_2 1_555 1_555
C2_2 C12_2 1_555 1_555
Zn1_3 O2_3 1_555 1_555
O1_3 C5_3 1_555 1_555
O2_3 C3_3 1_555 1_555
O3_3 C3_3 1_555 1_555
O4_3 C6_3 1_555 1_555
O5_3 C5_3 1_555 1_555
N1_3 Zn1_3 1_555 1_555
N2_3 H1_3 1_555 1_555
N3_3 N6_3 1_555 1_555
C1_3 C6_3 1_555 1_555
O6_3 C10_3 1_555 1_555
N4_3 H2_3 1_555 1_555
N5_3 N1_3 1_555 1_555
C2_3 C9_3 1_555 1_555
C3_3 C4_3 1_555 1_555
C4_3 N4_3 1_555 1_555
H3_3 C4_3 1_555 1_555
N6_3 C11_3 1_555 1_555
C5_3 C8_3 1_555 1_555
C6_3 N4_3 1_555 1_555
C7_3 N3_3 1_555 1_555
H4_3 C7_3 1_555 1_555
C8_3 N2_3 1_555 1_555
H5_3 C8_3 1_555 1_555
C9_3 N1_3 1_555 1_555
H6_3 C9_3 1_555 1_555
C10_3 N2_3 1_555 1_555
C11_3 C1_3 1_555 1_555
H7_3 C11_3 1_555 1_555
C12_3 N5_3 1_555 1_555
H8_3 C12_3 1_555 1_555
C13_3 C8_3 1_555 1_555
H9_3 C13_3 1_555 1_555
H10_3 C13_3 1_555 1_555
H11_3 C13_3 1_555 1_555
C14_3 C4_3 1_555 1_555
H12_3 C14_3 1_555 1_555
H13_3 C14_3 1_555 1_555
H14_3 C14_3 1_555 1_555
Zn5_3 O1_3 1_555 1_555
O8_3 Zn1_3 1_555 1_555
C1_3 C7_3 1_555 1_555
C2_3 C10_3 1_555 1_555
C2_3 C12_3 1_555 1_555
Zn3_2 O2_4 1_555 1_555
O8_4 Zn3_2 1_555 1_555
O9_3 C5_4 1_555 1_555
O6_4 C10_4 1_555 1_555
C5_4 C8_4 1_555 1_555
C8_4 N2_4 1_555 1_555
H5_4 C8_4 1_555 1_555
C10_4 N2_4 1_555 1_555
C12_4 N5_4 1_555 1_555
H8_4 C12_4 1_555 1_555
C2_4 C10_4 1_555 1_555
C2_4 C12_4 1_555 1_555
O8_2 C3_4 1_555 1_555
O4_4 C6_4 1_555 1_555
N3_4 N6_4 1_555 1_555
C1_4 C6_4 1_555 1_555
N4_4 H2_4 1_555 1_555
C3_4 C4_4 1_555 1_555
C4_4 N4_4 1_555 1_555
H3_4 C4_4 1_555 1_555
N6_4 C11_4 1_555 1_555
C6_4 N4_4 1_555 1_555
C7_4 N3_4 1_555 1_555
H4_4 C7_4 1_555 1_555
C9_4 N1_4 1_555 1_555
H6_4 C9_4 1_555 1_555
C11_4 C1_4 1_555 1_555
H7_4 C11_4 1_555 1_555
C14_4 C4_4 1_555 1_555
H12_4 C14_4 1_555 1_555
H14_4 C14_4 1_555 1_555
C1_4 C7_4 1_555 1_555
Zn6_3 O1_4 1_555 1_555
H10_4 C13_4 1_555 1_555
O9_4 Zn6_3 1_555 1_555
O1_5 C5_5 1_555 1_555
O9 C5_5 1_555 1_555
O6_5 C10_5 1_555 1_555
C5_5 C8_5 1_555 1_555
C8_5 N2_5 1_555 1_555
H5_5 C8_5 1_555 1_555
C10_5 N2_5 1_555 1_555
C12_5 N5_5 1_555 1_555
H8_5 C12_5 1_555 1_555
Zn6 O1_5 1_555 1_555
C2_5 C10_5 1_555 1_555
C2_5 C12_5 1_555 1_555
Zn6 N3_5 1_555 1_555
O8_3 C3_5 1_555 1_555
O4_5 C6_5 1_555 1_555
N3_5 N6_5 1_555 1_555
C1_5 C6_5 1_555 1_555
N4_5 H2_5 1_555 1_555
C3_5 C4_5 1_555 1_555
C4_5 N4_5 1_555 1_555
H3_5 C4_5 1_555 1_555
N6_5 C11_5 1_555 1_555
C6_5 N4_5 1_555 1_555
C7_5 N3_5 1_555 1_555
H4_5 C7_5 1_555 1_555
C9_5 N1_5 1_555 1_555
H6_5 C9_5 1_555 1_555
C11_5 C1_5 1_555 1_555
H7_5 C11_5 1_555 1_555
H9_5 C13_5 1_555 1_555
H10_5 C13_5 1_555 1_555
H11_5 C13_5 1_555 1_555
C14_5 C4_5 1_555 1_555
H12_5 C14_5 1_555 1_555
H14_5 C14_5 1_555 1_555
Zn7 N6_5 1_555 1_555
O9_5 Zn6 1_555 1_555
C1_5 C7_5 1_555 1_555
Zn3_3 O2_5 1_555 1_555
O8_5 Zn3_3 1_555 1_555
Zn6_2 O1_6 1_555 1_555
H10_6 C13_6 1_555 1_555
O9_6 Zn6_2 1_555 1_555
O9_2 C5_6 1_555 1_555
O6_6 C10_6 1_555 1_555
C5_6 C8_6 1_555 1_555
C8_6 N2_6 1_555 1_555
H5_6 C8_6 1_555 1_555
C10_6 N2_6 1_555 1_555
C12_6 N5_6 1_555 1_555
H8_6 C12_6 1_555 1_555
Zn4 N5_6 1_555 1_555
C2_6 C10_6 1_555 1_555
C2_6 C12_6 1_555 1_555
Zn3 O2_6 1_555 1_555
O2_6 C3_6 1_555 1_555
O8 C3_6 1_555 1_555
O4_6 C6_6 1_555 1_555
N1_6 Zn3 1_555 1_555
N3_6 N6_6 1_555 1_555
C1_6 C6_6 1_555 1_555
N4_6 H2_6 1_555 1_555
C3_6 C4_6 1_555 1_555
C4_6 N4_6 1_555 1_555
H3_6 C4_6 1_555 1_555
N6_6 C11_6 1_555 1_555
C6_6 N4_6 1_555 1_555
C7_6 N3_6 1_555 1_555
H4_6 C7_6 1_555 1_555
C9_6 N1_6 1_555 1_555
H6_6 C9_6 1_555 1_555
C11_6 C1_6 1_555 1_555
H7_6 C11_6 1_555 1_555
C14_6 C4_6 1_555 1_555
H12_6 C14_6 1_555 1_555
H13_6 C14_6 1_555 1_555
H14_6 C14_6 1_555 1_555
O8_6 Zn3 1_555 1_555
C1_6 C7_6 1_555 1_555
Zn4_3 O2_7 1_555 1_555
O1_7 C5_7 1_555 1_555
O9_6 C5_7 1_555 1_555
N1_7 Zn4_3 1_555 1_555
N2_7 H1_7 1_555 1_555
O6_7 C10_7 1_555 1_555
N7_3 N1_7 1_555 1_555
C2_7 C9_7 1_555 1_555
C5_7 C8_7 1_555 1_555
C8_7 N2_7 1_555 1_555
H5_7 C8_7 1_555 1_555
C9_7 N1_7 1_555 1_555
H6_7 C9_7 1_555 1_555
C10_7 N2_7 1_555 1_555
H7_7 C11_7 1_555 1_555
C12_7 N7_3 1_555 1_555
H8_7 C12_7 1_555 1_555
C13_7 C8_7 1_555 1_555
H9_7 C13_7 1_555 1_555
H10_7 C13_7 1_555 1_555
H11_7 C13_7 1_555 1_555
Zn7_2 O1_7 1_555 1_555
C2_7 C10_7 1_555 1_555
C2_7 C12_7 1_555 1_555
Zn7_2 N3_7 1_555 1_555
O8_5 C3_7 1_555 1_555
N3_7 N8_2 1_555 1_555
C1_7 C6_7 1_555 1_555
N4_7 H2_7 1_555 1_555
C3_7 C4_7 1_555 1_555
C4_7 N4_7 1_555 1_555
H3_7 C4_7 1_555 1_555
C6_7 N4_7 1_555 1_555
C7_7 N3_7 1_555 1_555
H4_7 C7_7 1_555 1_555
C14_7 C4_7 1_555 1_555
H12_7 C14_7 1_555 1_555
H13_7 C14_7 1_555 1_555
C1_7 C7_7 1_555 1_555
Zn4 O2_8 1_555 1_555
O1_8 C5_8 1_555 1_555
O9_4 C5_8 1_555 1_555
N1_8 Zn4 1_555 1_555
N2_8 H1_8 1_555 1_555
O6_8 C10_8 1_555 1_555
N7 N1_8 1_555 1_555
C2_8 C9_8 1_555 1_555
C5_8 C8_8 1_555 1_555
C8_8 N2_8 1_555 1_555
H5_8 C8_8 1_555 1_555
C9_8 N1_8 1_555 1_555
H6_8 C9_8 1_555 1_555
C10_8 N2_8 1_555 1_555
H7_8 C11_8 1_555 1_555
C12_8 N7 1_555 1_555
H8_8 C12_8 1_555 1_555
C13_8 C8_8 1_555 1_555
H9_8 C13_8 1_555 1_555
H10_8 C13_8 1_555 1_555
H11_8 C13_8 1_555 1_555
Zn7_3 O1_8 1_555 1_555
C2_8 C10_8 1_555 1_555
C2_8 C12_8 1_555 1_555
Zn7_3 N3_8 1_555 1_555
O8_6 C3_8 1_555 1_555
N3_8 N8_3 1_555 1_555
C1_8 C6_8 1_555 1_555
N4_8 H2_8 1_555 1_555
C3_8 C4_8 1_555 1_555
C4_8 N4_8 1_555 1_555
H3_8 C4_8 1_555 1_555
C6_8 N4_8 1_555 1_555
C7_8 N3_8 1_555 1_555
H4_8 C7_8 1_555 1_555
C14_8 C4_8 1_555 1_555
H12_8 C14_8 1_555 1_555
H13_8 C14_8 1_555 1_555
C1_8 C7_8 1_555 1_555
Zn4_2 O2_9 1_555 1_555
O1_9 C5_9 1_555 1_555
O9_5 C5_9 1_555 1_555
N1_9 Zn4_2 1_555 1_555
N2_9 H1_9 1_555 1_555
O6_9 C10_9 1_555 1_555
N7_2 N1_9 1_555 1_555
C2_9 C9_9 1_555 1_555
C5_9 C8_9 1_555 1_555
C8_9 N2_9 1_555 1_555
H5_9 C8_9 1_555 1_555
C9_9 N1_9 1_555 1_555
H6_9 C9_9 1_555 1_555
C10_9 N2_9 1_555 1_555
H7_9 C11_9 1_555 1_555
C12_9 N7_2 1_555 1_555
H8_9 C12_9 1_555 1_555
C13_9 C8_9 1_555 1_555
H9_9 C13_9 1_555 1_555
H10_9 C13_9 1_555 1_555
H11_9 C13_9 1_555 1_555
Zn7 O1_9 1_555 1_555
C2_9 C10_9 1_555 1_555
C2_9 C12_9 1_555 1_555
Zn7 N3_9 1_555 1_555
O8_4 C3_9 1_555 1_555
N3_9 N8 1_555 1_555
C1_9 C6_9 1_555 1_555
N4_9 H2_9 1_555 1_555
C3_9 C4_9 1_555 1_555
C4_9 N4_9 1_555 1_555
H3_9 C4_9 1_555 1_555
C6_9 N4_9 1_555 1_555
C7_9 N3_9 1_555 1_555
H4_9 C7_9 1_555 1_555
C14_9 C4_9 1_555 1_555
H12_9 C14_9 1_555 1_555
H13_9 C14_9 1_555 1_555
C1_9 C7_9 1_555 1_555

#END
