
###############################################################################
#
# This file contains modified crystal structure data generated from the
# MOF subset of the Cambridge Structural Database (CSD) v543 
# hosted by the Cambridge Crystallographic Data Centre (CCDC).
#
# This work is licensed under the Creative Commons
# Attribution-NonCommercial-ShareAlike 4.0 International License.
# To view a copy of this license, visit
# http://creativecommons.org/licenses/by-nc-sa/4.0/
# or send a letter to
# Creative Commons, PO Box 1866, Mountain View, CA 94042, USA.
#
# CIF created using the CSD Python API on 29 September 2022
# The structure has been converted into the P1 space group
# The structure has a 3D framework
# The original CSD entry VUWZOF is in the rhombohedral crystal system
# The original CSD entry VUWZOF is in a Sohncke space group
# The framework has been calculated to contain at least 10.0% void space
# The void calculation uses a probe of radius 1.32A, grid spacing 0.4
#
###############################################################################

data_VUWZOF
_chemical_formula_moiety         '(C126 H126 N54 O54 Zn14)n'
_symmetry_cell_setting           triclinic
_symmetry_space_group_name_H-M   'P 1'
_symmetry_Int_Tables_number      1
_space_group_name_Hall           'P 1'
loop_
_symmetry_equiv_pos_site_id
_symmetry_equiv_pos_as_xyz
1 x,y,z
_cell_length_a                   28.6845(7)
_cell_length_b                   28.6845(7)
_cell_length_c                   10.1435(2)
_cell_angle_alpha                90
_cell_angle_beta                 90
_cell_angle_gamma                120
_cell_volume                     7227.91
loop_
_atom_site_label
_atom_site_type_symbol
_atom_site_fract_x
_atom_site_fract_y
_atom_site_fract_z
Zn4 Zn 0.01978(6) 0.66325(4) 0.54063(8)
Zn5 Zn 0.00342(4) 0.68986(5) 0.87396(8)
Zn1 Zn 0.66918(5) 0.64617(4) 0.69844(8)
Zn2 Zn 0.33675(4) 0.35653(5) 0.54063(8)
O1 O 0.4024(3) 0.3351(3) 0.3485(6)
O2 O 0.7473(3) 0.6946(3) 0.6783(7)
O3 O 0.4148(3) 0.3870(3) 0.5218(7)
O4 O 0.7384(3) 0.7360(3) 0.5017(7)
N1 N 0.5254(3) 0.4326(3) 0.4820(8)
H1 H 0.5309 0.4430 0.5629
N2 N 0.8580(3) 0.7598(4) 0.6517(8)
H2 H 0.8664 0.7593 0.7328
N3 N 0.6430(4) 0.6135(4) 0.4187(8)
C1 C 0.9153(4) 0.7228(4) 0.6037(9)
O5 O 0.5475(4) 0.4547(4) 0.2677(8)
N4 N 0.9721(4) 0.6905(4) 0.5966(8)
O6 O 0.8664(5) 0.7403(5) 0.4431(8)
N5 N 0.9675(3) 0.7028(3) 0.7246(8)
N6 N 0.6349(4) 0.5986(3) 0.5470(8)
C2 C 0.8219(4) 0.7794(4) 0.6204(11)
H3 H 0.8190 0.7960 0.7021
C3 C 0.5868(4) 0.5254(4) 0.4279(9)
C4 C 0.8789(5) 0.7424(5) 0.5599(10)
C5 C 0.4882(4) 0.3769(4) 0.4531(10)
H4 H 0.4992 0.3670 0.3710
C6 C 0.4318(4) 0.3668(4) 0.4377(9)
C7 C 0.5517(4) 0.4691(4) 0.3864(10)
C8 C 0.7651(4) 0.7321(4) 0.5958(10)
C9 C 0.9345(4) 0.7223(4) 0.7306(9)
H5 H 0.9253 0.7339 0.8069
C10 C 0.4885(5) 0.3414(5) 0.5641(13)
H6 H 0.5244 0.3478 0.5767
H7 H 0.4650 0.3042 0.5417
H8 H 0.4761 0.3496 0.6439
C11 C 0.6023(4) 0.5452(4) 0.5537(10)
H9 H 0.5920 0.5248 0.6306
C12 C 0.6143(5) 0.5697(4) 0.3465(10)
H10 H 0.6130 0.5688 0.2549
C13 C 0.9396(4) 0.7022(4) 0.5247(11)
H11 H 0.9343 0.6970 0.4342
C14 C 0.8448(8) 0.8233(8) 0.5243(18)
H12 H 0.8808 0.8493 0.5502
H13 H 0.8232 0.8402 0.5208
H14 H 0.8455 0.8092 0.4390
Zn3 Zn 0.68716(4) 0.68968(6) 0.36511(8)
Zn6 Zn 0.35311(6) 0.32992(4) 0.20730(8)
O7 O 0.3316(3) 0.4006(4) 0.6818(6)
O8 O 0.6643(4) 0.5949(3) 0.8350(7)
N7 N 0.6372(6) 0.6903(4) 0.7520(8)
N8 N 0.3095(4) 0.2816(6) 0.5966(8)
N9 N 0.3008(3) 0.3695(3) 0.3913(8)
Zn1_2 Zn 0.35383(4) 0.02301(6) 0.69844(8)
O1_2 O 0.6649(3) 0.0673(4) 0.3485(6)
O2_2 O 0.3054(3) 0.0527(4) 0.6783(7)
O3_2 O 0.6130(3) 0.0278(4) 0.5218(7)
O4_2 O 0.2640(3) 0.0024(4) 0.5017(7)
N1_2 N 0.5674(3) 0.0928(4) 0.4820(8)
H1_2 H 0.5570 0.0879 0.5629
N2_2 N 0.2402(4) 0.0982(5) 0.6517(8)
H2_2 H 0.2407 0.1071 0.7328
N3_2 N 0.3865(4) 0.0295(6) 0.4187(8)
C1_2 C 0.2772(4) 0.1925(6) 0.6037(9)
O5_2 O 0.5453(4) 0.0928(6) 0.2677(8)
O6_2 O 0.2597(5) 0.1261(7) 0.4431(8)
N5_2 N 0.2972(3) 0.2647(4) 0.7246(8)
N6_2 N 0.4014(3) 0.0363(5) 0.5470(8)
C2_2 C 0.2206(4) 0.0425(6) 0.6204(11)
H3_2 H 0.2040 0.0230 0.7021
C3_2 C 0.4746(4) 0.0614(6) 0.4279(9)
C4_2 C 0.2576(5) 0.1365(7) 0.5599(10)
C5_2 C 0.6231(4) 0.1113(6) 0.4531(10)
H4_2 H 0.6330 0.1322 0.3710
C6_2 C 0.6332(4) 0.0650(6) 0.4377(9)
C7_2 C 0.5309(4) 0.0826(6) 0.3864(10)
C8_2 C 0.2679(4) 0.0330(6) 0.5958(10)
C9_2 C 0.2777(4) 0.2122(6) 0.7306(9)
H5_2 H 0.2661 0.1914 0.8069
C10_2 C 0.6586(5) 0.1471(7) 0.5641(13)
H6_2 H 0.6522 0.1766 0.5767
H7_2 H 0.6958 0.1608 0.5417
H8_2 H 0.6504 0.1265 0.6439
C11_2 C 0.4548(4) 0.0571(6) 0.5537(10)
H9_2 H 0.4752 0.0672 0.6306
C12_2 C 0.4303(4) 0.0446(6) 0.3465(10)
H10_2 H 0.4312 0.0442 0.2549
C13_2 C 0.2978(4) 0.2374(6) 0.5247(11)
H11_2 H 0.3030 0.2373 0.4342
C14_2 C 0.1767(8) 0.0215(11) 0.5243(18)
H12_2 H 0.1507 0.0315 0.5502
H14_2 H 0.1908 0.0363 0.4390
Zn5_2 Zn 0.31014(5) 0.31355(6) 0.87396(8)
Zn6_2 Zn 0.67008(4) 0.02320(7) 0.20730(8)
O8_2 O 0.4051(3) 0.0693(5) 0.8350(7)
N8_2 N 0.7184(6) 0.0279(7) 0.5966(8)
Zn2_2 Zn 0.64347(5) 0.98022(6) 0.54063(8)
H13_2 H 0.1598 0.9830 0.5208
Zn3_2 Zn 0.31032(6) 0.99749(7) 0.36511(8)
O7_2 O 0.5994(4) 0.9309(5) 0.6818(6)
N7_2 N 0.3097(4) 0.9468(7) 0.7520(8)
N9_2 N 0.6305(3) 0.9314(4) 0.3913(8)
H13_3 H 0.0170 0.1768 0.5208
Zn3_3 Zn 0.00251(7) 0.31284(4) 0.36511(8)
O7_3 O 0.0691(5) 0.6684(3) 0.6818(6)
N7_3 N 0.0532(7) 0.3628(6) 0.7520(8)
N9_3 N 0.0686(4) 0.6992(3) 0.3913(8)
Zn1_3 Zn 0.97699(6) 0.33082(5) 0.69844(8)
O1_3 O 0.9327(4) 0.5976(3) 0.3485(6)
O2_3 O 0.9473(4) 0.2527(3) 0.6783(7)
O3_3 O 0.9722(4) 0.5852(3) 0.5218(7)
O4_3 O 0.9976(4) 0.2616(3) 0.5017(7)
N1_3 N 0.9072(4) 0.4746(3) 0.4820(8)
H1_3 H 0.9121 0.4691 0.5629
N2_3 N 0.9018(5) 0.1420(3) 0.6517(8)
H2_3 H 0.8929 0.1336 0.7328
N3_3 N 0.9705(6) 0.3570(4) 0.4187(8)
C1_3 C 0.8075(6) 0.0847(4) 0.6037(9)
O5_3 O 0.9072(6) 0.4525(4) 0.2677(8)
O6_3 O 0.8739(7) 0.1336(5) 0.4431(8)
N5_3 N 0.7353(4) 0.0325(3) 0.7246(8)
N6_3 N 0.9637(5) 0.3651(4) 0.5470(8)
C2_3 C 0.9575(6) 0.1781(4) 0.6204(11)
H3_3 H 0.9770 0.1810 0.7021
C3_3 C 0.9386(6) 0.4132(4) 0.4279(9)
C4_3 C 0.8635(7) 0.1211(5) 0.5599(10)
C5_3 C 0.8887(6) 0.5118(4) 0.4531(10)
H4_3 H 0.8678 0.5008 0.3710
C6_3 C 0.9350(6) 0.5682(4) 0.4377(9)
C7_3 C 0.9174(6) 0.4483(4) 0.3864(10)
C8_3 C 0.9670(6) 0.2349(4) 0.5958(10)
C9_3 C 0.7878(6) 0.0655(4) 0.7306(9)
H5_3 H 0.8086 0.0747 0.8069
C10_3 C 0.8529(7) 0.5115(5) 0.5641(13)
H6_3 H 0.8234 0.4756 0.5767
H7_3 H 0.8392 0.5350 0.5417
H8_3 H 0.8735 0.5239 0.6439
C11_3 C 0.9429(6) 0.3977(4) 0.5537(10)
H9_3 H 0.9328 0.4080 0.6306
C12_3 C 0.9554(6) 0.3857(5) 0.3465(10)
H10_3 H 0.9558 0.3870 0.2549
C13_3 C 0.7626(6) 0.0604(4) 0.5247(11)
H11_3 H 0.7627 0.0657 0.4342
C14_3 C 0.9785(11) 0.1552(8) 0.5243(18)
H12_3 H 0.9685 0.1192 0.5502
H14_3 H 0.9637 0.1545 0.4390
Zn6_3 Zn 0.97680(7) 0.64689(6) 0.20730(8)
O8_3 O 0.9307(5) 0.3357(4) 0.8350(7)
Zn5_3 Zn 0.68645(6) 0.99658(4) 0.87396(8)
O2_4 O 0.4140(3) 0.0279(3) 0.0116(7)
H2_4 H 0.5331 0.0926 0.0661
N5_4 N 0.6342(3) 0.0361(3) 0.0579(8)
H3_4 H 0.4857 0.1293 0.0354
C9_4 C 0.6012(4) 0.0556(4) 0.0639(9)
H5_4 H 0.5920 0.0672 0.1402
N7_4 N 0.3038(6) 0.0237(4) 0.0854(8)
N2_4 N 0.5247(3) 0.0931(4) 0.9850(8)
C1_4 C 0.5820(4) 0.0561(4) 0.9370(9)
N4_2 N 0.6388(4) 0.0238(4) 0.9299(8)
O6_4 O 0.5331(5) 0.0736(5) 0.7764(8)
C2_4 C 0.4886(4) 0.1127(4) 0.9537(11)
C4_4 C 0.5456(5) 0.0757(5) 0.8932(10)
C8_4 C 0.4318(4) 0.0654(4) 0.9291(10)
C13_4 C 0.6063(4) 0.0355(4) 0.8580(11)
H11_4 H 0.6010 0.0303 0.7675
C14_4 C 0.5115(8) 0.1566(8) 0.8576(18)
H12_4 H 0.5475 0.1826 0.8835
H13_4 H 0.4899 0.1735 0.8541
H14_4 H 0.5122 0.1425 0.7723
Zn1_4 Zn 0.33585(5) 0.97950(4) 0.03177(8)
O8_4 O 0.3309(4) 0.9283(3) 0.1684(7)
O3_4 O 0.0815(3) 0.7203(3) 0.8551(7)
N1_4 N 0.1921(3) 0.7659(3) 0.8153(8)
H1_4 H 0.1976 0.7763 0.8962
O5_4 O 0.2142(4) 0.7880(4) 0.6010(8)
N6_4 N 0.3016(4) 0.9319(3) 0.8803(8)
C3_4 C 0.2535(4) 0.8587(4) 0.7612(9)
C5_4 C 0.1549(4) 0.7102(4) 0.7864(10)
H4_4 H 0.1659 0.7003 0.7043
C6_4 C 0.0985(4) 0.7001(4) 0.7710(9)
C7_4 C 0.2184(4) 0.8024(4) 0.7197(10)
C10_4 C 0.1552(5) 0.6747(5) 0.8974(13)
H6_4 H 0.1911 0.6811 0.9100
H7_4 H 0.1317 0.6375 0.8750
H8_4 H 0.1428 0.6829 0.9772
C11_4 C 0.2690(4) 0.8785(4) 0.8870(10)
H9_4 H 0.2587 0.8581 0.9639
C12_4 C 0.2810(5) 0.9030(4) 0.6798(10)
H10_4 H 0.2797 0.9021 0.5882
O7_4 O 0.9982(3) 0.7340(4) 0.0152(6)
N8_3 N 0.9762(4) 0.6149(6) 0.9299(8)
Zn1_5 Zn 0.02050(4) 0.35634(6) 0.03177(8)
O7_5 O 0.2660(4) 0.2643(5) 0.0152(6)
O8_5 O 0.0717(3) 0.4027(5) 0.1684(7)
O3_5 O 0.2797(3) 0.3611(4) 0.8551(7)
N1_5 N 0.2341(3) 0.4261(4) 0.8153(8)
H1_5 H 0.2237 0.4212 0.8962
O5_5 O 0.2120(4) 0.4261(6) 0.6010(8)
N6_5 N 0.0681(3) 0.3696(5) 0.8803(8)
C3_5 C 0.1413(4) 0.3947(6) 0.7612(9)
C5_5 C 0.2898(4) 0.4446(6) 0.7864(10)
H4_5 H 0.2997 0.4655 0.7043
C6_5 C 0.2999(4) 0.3983(6) 0.7710(9)
C7_5 C 0.1976(4) 0.4159(6) 0.7197(10)
C10_5 C 0.3253(5) 0.4804(7) 0.8974(13)
H6_5 H 0.3189 0.5099 0.9100
H7_5 H 0.3625 0.4941 0.8750
H8_5 H 0.3171 0.4598 0.9772
C11_5 C 0.1215(4) 0.3904(6) 0.8870(10)
H9_5 H 0.1419 0.4005 0.9639
C12_5 C 0.0970(4) 0.3779(6) 0.6798(10)
H10_5 H 0.0979 0.3775 0.5882
N8_4 N 0.3851(6) 0.3612(7) 0.9299(8)
O2_5 O 0.9721(3) 0.3860(4) 0.0116(7)
H2_5 H 0.9074 0.4404 0.0661
N5_5 N 0.9639(3) 0.5980(4) 0.0579(8)
H3_5 H 0.8707 0.3563 0.0354
C9_5 C 0.9444(4) 0.5455(6) 0.0639(9)
H5_5 H 0.9328 0.5247 0.1402
N7_5 N 0.9763(4) 0.2802(7) 0.0854(8)
N2_5 N 0.9069(4) 0.4315(5) 0.9850(8)
C1_5 C 0.9439(4) 0.5258(6) 0.9370(9)
O6_5 O 0.9264(5) 0.4594(7) 0.7764(8)
C2_5 C 0.8873(4) 0.3758(6) 0.9537(11)
C4_5 C 0.9243(5) 0.4698(7) 0.8932(10)
C8_5 C 0.9346(4) 0.3663(6) 0.9291(10)
C13_5 C 0.9645(4) 0.5707(6) 0.8580(11)
H11_5 H 0.9697 0.5706 0.7675
C14_5 C 0.8434(8) 0.3548(11) 0.8576(18)
H12_5 H 0.8174 0.3648 0.8835
H13_5 H 0.8265 0.3163 0.8541
H14_5 H 0.8575 0.3696 0.7723
O7_6 O 0.7357(5) 0.0018(3) 0.0152(6)
Zn1_6 Zn 0.64366(6) 0.66415(5) 0.03177(8)
O2_6 O 0.6140(4) 0.5860(3) 0.0116(7)
H2_6 H 0.5596 0.4669 0.0661
N5_6 N 0.4020(4) 0.3658(3) 0.0579(8)
H3_6 H 0.6437 0.5143 0.0354
C9_6 C 0.4545(6) 0.3988(4) 0.0639(9)
H5_6 H 0.4753 0.4080 0.1402
O8_6 O 0.5973(5) 0.6691(4) 0.1684(7)
N7_6 N 0.7198(7) 0.6962(6) 0.0854(8)
O3_6 O 0.6389(4) 0.9185(3) 0.8551(7)
N1_6 N 0.5739(4) 0.8079(3) 0.8153(8)
H1_6 H 0.5788 0.8024 0.8962
N2_6 N 0.5685(5) 0.4753(3) 0.9850(8)
C1_6 C 0.4742(6) 0.4180(4) 0.9370(9)
O5_6 O 0.5739(6) 0.7858(4) 0.6010(8)
O6_6 O 0.5406(7) 0.4669(5) 0.7764(8)
N6_6 N 0.6304(5) 0.6984(4) 0.8803(8)
C2_6 C 0.6242(6) 0.5114(4) 0.9537(11)
C3_6 C 0.6053(6) 0.7465(4) 0.7612(9)
C4_6 C 0.5302(7) 0.4544(5) 0.8932(10)
C5_6 C 0.5554(6) 0.8451(4) 0.7864(10)
H4_6 H 0.5345 0.8341 0.7043
C6_6 C 0.6017(6) 0.9015(4) 0.7710(9)
C7_6 C 0.5841(6) 0.7816(4) 0.7197(10)
C8_6 C 0.6337(6) 0.5682(4) 0.9291(10)
C10_6 C 0.5196(7) 0.8448(5) 0.8974(13)
H6_6 H 0.4901 0.8089 0.9100
H7_6 H 0.5059 0.8683 0.8750
H8_6 H 0.5402 0.8572 0.9772
C11_6 C 0.6096(6) 0.7310(4) 0.8870(10)
H9_6 H 0.5995 0.7413 0.9639
C12_6 C 0.6221(6) 0.7190(5) 0.6798(10)
H10_6 H 0.6225 0.7203 0.5882
C13_6 C 0.4293(6) 0.3937(4) 0.8580(11)
H11_6 H 0.4294 0.3990 0.7675
C14_6 C 0.6452(11) 0.4885(8) 0.8576(18)
H12_6 H 0.6352 0.4525 0.8835
H13_6 H 0.6837 0.5101 0.8541
H14_6 H 0.6304 0.4878 0.7723
O2_7 O 0.0806(3) 0.3613(3) 0.3450(7)
N2_7 N 0.1913(3) 0.4265(4) 0.3184(8)
H2_7 H 0.1997 0.4260 0.3995
C1_7 C 0.2486(4) 0.3895(4) 0.2704(9)
N4_3 N 0.3054(4) 0.3572(4) 0.2633(8)
O6_7 O 0.1997(5) 0.4070(5) 0.1098(8)
C2_7 C 0.1552(4) 0.4461(4) 0.2871(11)
H3_7 H 0.1523 0.4627 0.3688
C4_7 C 0.2122(5) 0.4091(5) 0.2266(10)
C8_7 C 0.0984(4) 0.3988(4) 0.2625(10)
C9_7 C 0.2678(4) 0.3890(4) 0.3973(9)
H5_7 H 0.2586 0.4006 0.4736
C13_7 C 0.2729(4) 0.3689(4) 0.1914(11)
H11_7 H 0.2676 0.3637 0.1009
C14_7 C 0.1781(8) 0.4900(8) 0.1910(18)
H12_7 H 0.2141 0.5160 0.2169
H13_7 H 0.1565 0.5069 0.1875
H14_7 H 0.1788 0.4759 0.1057
O3_7 O 0.7481(3) 0.0537(3) 0.1885(7)
N1_7 N 0.8587(3) 0.0993(3) 0.1487(8)
H1_7 H 0.8642 0.1097 0.2296
N6_7 N 0.9682(4) 0.2653(3) 0.2137(8)
C3_7 C 0.9201(4) 0.1921(4) 0.0946(9)
C5_7 C 0.8215(4) 0.0436(4) 0.1198(10)
H4_7 H 0.8325 0.0337 0.0377
C6_7 C 0.7651(4) 0.0335(4) 0.1044(9)
C7_7 C 0.8850(4) 0.1358(4) 0.0531(10)
C10_7 C 0.8218(5) 0.0081(5) 0.2308(13)
H6_7 H 0.8577 0.0145 0.2434
H8_7 H 0.8094 0.0163 0.3106
C11_7 C 0.9356(4) 0.2119(4) 0.2204(10)
H9_7 H 0.9253 0.1915 0.2973
C12_7 C 0.9476(5) 0.2364(4) 0.0132(10)
H7_7 H 0.7983 0.9709 0.2084
N8_5 N 0.6428(4) 0.9483(6) 0.2633(8)
H7_8 H 0.0291 0.8275 0.2084
N8_6 N 0.0517(6) 0.6946(7) 0.2633(8)
O2_8 O 0.6387(3) 0.7194(4) 0.3450(7)
O3_8 O 0.9463(3) 0.6945(4) 0.1885(7)
N1_8 N 0.9007(3) 0.7595(4) 0.1487(8)
H1_8 H 0.8903 0.7546 0.2296
N2_8 N 0.5735(4) 0.7649(5) 0.3184(8)
H2_8 H 0.5740 0.7738 0.3995
C1_8 C 0.6105(4) 0.8592(6) 0.2704(9)
O6_8 O 0.5930(5) 0.7928(7) 0.1098(8)
N6_8 N 0.7347(3) 0.7030(5) 0.2137(8)
C2_8 C 0.5539(4) 0.7092(6) 0.2871(11)
H3_8 H 0.5373 0.6897 0.3688
C3_8 C 0.8079(4) 0.7281(6) 0.0946(9)
C4_8 C 0.5909(5) 0.8032(7) 0.2266(10)
C5_8 C 0.9564(4) 0.7780(6) 0.1198(10)
H4_8 H 0.9663 0.7989 0.0377
C6_8 C 0.9665(4) 0.7317(6) 0.1044(9)
C7_8 C 0.8642(4) 0.7493(6) 0.0531(10)
C8_8 C 0.6012(4) 0.6997(6) 0.2625(10)
C9_8 C 0.6110(4) 0.8789(6) 0.3973(9)
H5_8 H 0.5994 0.8581 0.4736
C10_8 C 0.9919(5) 0.8138(7) 0.2308(13)
H6_8 H 0.9855 0.8433 0.2434
H8_8 H 0.9837 0.7932 0.3106
C11_8 C 0.7881(4) 0.7238(6) 0.2204(10)
H9_8 H 0.8085 0.7339 0.2973
C12_8 C 0.7636(4) 0.7113(6) 0.0132(10)
C13_8 C 0.6311(4) 0.9041(6) 0.1914(11)
H11_8 H 0.6363 0.9040 0.1009
C14_8 C 0.5100(8) 0.6882(11) 0.1910(18)
H12_8 H 0.4840 0.6982 0.2169
H13_8 H 0.4931 0.6497 0.1875
H14_8 H 0.5241 0.7030 0.1057
O3_9 O 0.3055(4) 0.2519(3) 0.1885(7)
N1_9 N 0.2405(4) 0.1413(3) 0.1487(8)
H1_9 H 0.2454 0.1358 0.2296
N6_9 N 0.2970(5) 0.0318(4) 0.2137(8)
C3_9 C 0.2719(6) 0.0799(4) 0.0946(9)
C5_9 C 0.2220(6) 0.1785(4) 0.1198(10)
H4_9 H 0.2011 0.1675 0.0377
C6_9 C 0.2683(6) 0.2349(4) 0.1044(9)
C7_9 C 0.2507(6) 0.1150(4) 0.0531(10)
C10_9 C 0.1862(7) 0.1782(5) 0.2308(13)
H6_9 H 0.1567 0.1423 0.2434
H7_9 H 0.1725 0.2017 0.2084
H8_9 H 0.2068 0.1906 0.3106
C11_9 C 0.2762(6) 0.0644(4) 0.2204(10)
H9_9 H 0.2661 0.0747 0.2973
C12_9 C 0.2887(6) 0.0524(5) 0.0132(10)
O5_7 O 0.2405(6) 0.1192(4) 0.9344(8)
H10_7 H 0.2891 0.0537 0.9216
O2_9 O 0.2806(4) 0.9194(3) 0.3450(7)
N2_9 N 0.2351(5) 0.8087(3) 0.3184(8)
H2_9 H 0.2262 0.8003 0.3995
C1_9 C 0.1408(6) 0.7514(4) 0.2704(9)
O6_9 O 0.2072(7) 0.8003(5) 0.1098(8)
C2_9 C 0.2908(6) 0.8448(4) 0.2871(11)
H3_9 H 0.3103 0.8477 0.3688
C4_9 C 0.1968(7) 0.7878(5) 0.2266(10)
C8_9 C 0.3003(6) 0.9016(4) 0.2625(10)
C9_9 C 0.1211(6) 0.7322(4) 0.3973(9)
H5_9 H 0.1419 0.7414 0.4736
C13_9 C 0.0959(6) 0.7271(4) 0.1914(11)
H11_9 H 0.0960 0.7324 0.1009
C14_9 C 0.3118(11) 0.8219(8) 0.1910(18)
H12_9 H 0.3018 0.7859 0.2169
H13_9 H 0.3503 0.8435 0.1875
H14_9 H 0.2970 0.8212 0.1057
O5_8 O 0.8808(4) 0.1214(4) 0.9344(8)
H10_8 H 0.9463 0.2355 0.9216
O5_9 O 0.8786(4) 0.7595(6) 0.9344(8)
H10_9 H 0.7645 0.7109 0.9216
loop_
_geom_bond_atom_site_label_1
_geom_bond_atom_site_label_2
_geom_bond_site_symmetry_1
_geom_bond_site_symmetry_2
Zn1 O2 1_555 1_555
Zn2 O3 1_555 1_555
O1 C6 1_555 1_555
O2 C8 1_555 1_555
O3 C6 1_555 1_555
O4 C8 1_555 1_555
N1 H1 1_555 1_555
N2 H2 1_555 1_555
N3 N6 1_555 1_555
C1 C4 1_555 1_555
O5 C7 1_555 1_555
N4 N5 1_555 1_555
O6 C4 1_555 1_555
N5 C9 1_555 1_555
N6 Zn1 1_555 1_555
C2 N2 1_555 1_555
H3 C2 1_555 1_555
C3 C7 1_555 1_555
C4 N2 1_555 1_555
C5 N1 1_555 1_555
H4 C5 1_555 1_555
C6 C5 1_555 1_555
C7 N1 1_555 1_555
C8 C2 1_555 1_555
C9 C1 1_555 1_555
H5 C9 1_555 1_555
C10 C5 1_555 1_555
H6 C10 1_555 1_555
H7 C10 1_555 1_555
H8 C10 1_555 1_555
C11 N6 1_555 1_555
H9 C11 1_555 1_555
C12 N3 1_555 1_555
H10 C12 1_555 1_555
C13 C1 1_555 1_555
H11 C13 1_555 1_555
C14 C2 1_555 1_555
H12 C14 1_555 1_555
H13 C14 1_555 1_555
H14 C14 1_555 1_555
Zn3 O4 1_555 1_555
Zn6 O1 1_555 1_555
O7 Zn2 1_555 1_555
O8 Zn1 1_555 1_555
N7 Zn1 1_555 1_555
N8 Zn2 1_555 1_555
N9 Zn2 1_555 1_555
N3 Zn3 1_555 1_555
N4 C13 1_555 1_555
C3 C11 1_555 1_555
C3 C12 1_555 1_555
Zn1_2 O2_2 1_555 1_555
O1_2 C6_2 1_555 1_555
O2_2 C8_2 1_555 1_555
O3_2 C6_2 1_555 1_555
O4_2 C8_2 1_555 1_555
N1_2 H1_2 1_555 1_555
N2_2 H2_2 1_555 1_555
N3_2 N6_2 1_555 1_555
C1_2 C4_2 1_555 1_555
O5_2 C7_2 1_555 1_555
N8 N5_2 1_555 1_555
O6_2 C4_2 1_555 1_555
N5_2 C9_2 1_555 1_555
N6_2 Zn1_2 1_555 1_555
C2_2 N2_2 1_555 1_555
H3_2 C2_2 1_555 1_555
C3_2 C7_2 1_555 1_555
C4_2 N2_2 1_555 1_555
C5_2 N1_2 1_555 1_555
H4_2 C5_2 1_555 1_555
C6_2 C5_2 1_555 1_555
C7_2 N1_2 1_555 1_555
C8_2 C2_2 1_555 1_555
C9_2 C1_2 1_555 1_555
H5_2 C9_2 1_555 1_555
C10_2 C5_2 1_555 1_555
H6_2 C10_2 1_555 1_555
H7_2 C10_2 1_555 1_555
H8_2 C10_2 1_555 1_555
C11_2 N6_2 1_555 1_555
H9_2 C11_2 1_555 1_555
C12_2 N3_2 1_555 1_555
H10_2 C12_2 1_555 1_555
C13_2 C1_2 1_555 1_555
H11_2 C13_2 1_555 1_555
C14_2 C2_2 1_555 1_555
H12_2 C14_2 1_555 1_555
H14_2 C14_2 1_555 1_555
Zn5_2 N5_2 1_555 1_555
Zn6_2 O1_2 1_555 1_555
O8_2 Zn1_2 1_555 1_555
N8 C13_2 1_555 1_555
C3_2 C11_2 1_555 1_555
C3_2 C12_2 1_555 1_555
O7_2 Zn2_2 1_555 1_555
N9_2 Zn2_2 1_555 1_555
O7_3 Zn4 1_555 1_555
N9_3 Zn4 1_555 1_555
Zn1_3 O2_3 1_555 1_555
O1_3 C6_3 1_555 1_555
O2_3 C8_3 1_555 1_555
O3_3 C6_3 1_555 1_555
O4_3 C8_3 1_555 1_555
N1_3 H1_3 1_555 1_555
N2_3 H2_3 1_555 1_555
N3_3 N6_3 1_555 1_555
C1_3 C4_3 1_555 1_555
O5_3 C7_3 1_555 1_555
N8_2 N5_3 1_555 1_555
O6_3 C4_3 1_555 1_555
N5_3 C9_3 1_555 1_555
N6_3 Zn1_3 1_555 1_555
C2_3 N2_3 1_555 1_555
H3_3 C2_3 1_555 1_555
C3_3 C7_3 1_555 1_555
C4_3 N2_3 1_555 1_555
C5_3 N1_3 1_555 1_555
H4_3 C5_3 1_555 1_555
C6_3 C5_3 1_555 1_555
C7_3 N1_3 1_555 1_555
C8_3 C2_3 1_555 1_555
C9_3 C1_3 1_555 1_555
H5_3 C9_3 1_555 1_555
C10_3 C5_3 1_555 1_555
H6_3 C10_3 1_555 1_555
H7_3 C10_3 1_555 1_555
H8_3 C10_3 1_555 1_555
C11_3 N6_3 1_555 1_555
H9_3 C11_3 1_555 1_555
C12_3 N3_3 1_555 1_555
H10_3 C12_3 1_555 1_555
C13_3 C1_3 1_555 1_555
H11_3 C13_3 1_555 1_555
C14_3 C2_3 1_555 1_555
H12_3 C14_3 1_555 1_555
H14_3 C14_3 1_555 1_555
Zn6_3 O1_3 1_555 1_555
O8_3 Zn1_3 1_555 1_555
N8_2 C13_3 1_555 1_555
C3_3 C11_3 1_555 1_555
C3_3 C12_3 1_555 1_555
N5_4 C9_4 1_555 1_555
H5_4 C9_4 1_555 1_555
Zn6_2 N5_4 1_555 1_555
O8_2 C8_4 1_555 1_555
C1_4 C4_4 1_555 1_555
O6_4 C4_4 1_555 1_555
C2_4 N2_4 1_555 1_555
C4_4 N2_4 1_555 1_555
C8_4 C2_4 1_555 1_555
C13_4 C1_4 1_555 1_555
H11_4 C13_4 1_555 1_555
C14_4 C2_4 1_555 1_555
H12_4 C14_4 1_555 1_555
H13_4 C14_4 1_555 1_555
H14_4 C14_4 1_555 1_555
N4_2 C13_4 1_555 1_555
O8_4 Zn1_4 1_555 1_555
Zn5 O3_4 1_555 1_555
O7_3 C6_4 1_555 1_555
O3_4 C6_4 1_555 1_555
N1_4 H1_4 1_555 1_555
N7_2 N6_4 1_555 1_555
O5_4 C7_4 1_555 1_555
C3_4 C7_4 1_555 1_555
C5_4 N1_4 1_555 1_555
H4_4 C5_4 1_555 1_555
C6_4 C5_4 1_555 1_555
C7_4 N1_4 1_555 1_555
C10_4 C5_4 1_555 1_555
H6_4 C10_4 1_555 1_555
H7_4 C10_4 1_555 1_555
H8_4 C10_4 1_555 1_555
C11_4 N6_4 1_555 1_555
H9_4 C11_4 1_555 1_555
C12_4 N7_2 1_555 1_555
H10_4 C12_4 1_555 1_555
C3_4 C11_4 1_555 1_555
C3_4 C12_4 1_555 1_555
O8_5 Zn1_5 1_555 1_555
Zn5_2 O3_5 1_555 1_555
O7 C6_5 1_555 1_555
O3_5 C6_5 1_555 1_555
N1_5 H1_5 1_555 1_555
N7_3 N6_5 1_555 1_555
O5_5 C7_5 1_555 1_555
C3_5 C7_5 1_555 1_555
C5_5 N1_5 1_555 1_555
H4_5 C5_5 1_555 1_555
C6_5 C5_5 1_555 1_555
C7_5 N1_5 1_555 1_555
C10_5 C5_5 1_555 1_555
H6_5 C10_5 1_555 1_555
H7_5 C10_5 1_555 1_555
H8_5 C10_5 1_555 1_555
C11_5 N6_5 1_555 1_555
H9_5 C11_5 1_555 1_555
C12_5 N7_3 1_555 1_555
H10_5 C12_5 1_555 1_555
N8_4 Zn5_2 1_555 1_555
C3_5 C11_5 1_555 1_555
C3_5 C12_5 1_555 1_555
N5_5 C9_5 1_555 1_555
H5_5 C9_5 1_555 1_555
Zn6_3 N5_5 1_555 1_555
O8_3 C8_5 1_555 1_555
C1_5 C4_5 1_555 1_555
O6_5 C4_5 1_555 1_555
C2_5 N2_5 1_555 1_555
C4_5 N2_5 1_555 1_555
C8_5 C2_5 1_555 1_555
C13_5 C1_5 1_555 1_555
H11_5 C13_5 1_555 1_555
C14_5 C2_5 1_555 1_555
H12_5 C14_5 1_555 1_555
H13_5 C14_5 1_555 1_555
H14_5 C14_5 1_555 1_555
N8_3 C13_5 1_555 1_555
Zn1_6 O2_6 1_555 1_555
N5_6 C9_6 1_555 1_555
H5_6 C9_6 1_555 1_555
Zn6 N5_6 1_555 1_555
O8_6 Zn1_6 1_555 1_555
N7_6 Zn1_6 1_555 1_555
Zn5_3 O3_6 1_555 1_555
O7_2 C6_6 1_555 1_555
O3_6 C6_6 1_555 1_555
O8 C8_6 1_555 1_555
N1_6 H1_6 1_555 1_555
N7 N6_6 1_555 1_555
C1_6 C4_6 1_555 1_555
O5_6 C7_6 1_555 1_555
O6_6 C4_6 1_555 1_555
C2_6 N2_6 1_555 1_555
C3_6 C7_6 1_555 1_555
C4_6 N2_6 1_555 1_555
C5_6 N1_6 1_555 1_555
H4_6 C5_6 1_555 1_555
C6_6 C5_6 1_555 1_555
C7_6 N1_6 1_555 1_555
C8_6 C2_6 1_555 1_555
C10_6 C5_6 1_555 1_555
H6_6 C10_6 1_555 1_555
H7_6 C10_6 1_555 1_555
H8_6 C10_6 1_555 1_555
C11_6 N6_6 1_555 1_555
H9_6 C11_6 1_555 1_555
C12_6 N7 1_555 1_555
H10_6 C12_6 1_555 1_555
C13_6 C1_6 1_555 1_555
H11_6 C13_6 1_555 1_555
C14_6 C2_6 1_555 1_555
H12_6 C14_6 1_555 1_555
H13_6 C14_6 1_555 1_555
H14_6 C14_6 1_555 1_555
N8_4 C13_6 1_555 1_555
C3_6 C11_6 1_555 1_555
C3_6 C12_6 1_555 1_555
Zn3_3 O2_7 1_555 1_555
O2_7 C8_7 1_555 1_555
O8_5 C8_7 1_555 1_555
N2_7 H2_7 1_555 1_555
C1_7 C4_7 1_555 1_555
N4_3 N9 1_555 1_555
O6_7 C4_7 1_555 1_555
N9 C9_7 1_555 1_555
C2_7 N2_7 1_555 1_555
H3_7 C2_7 1_555 1_555
C4_7 N2_7 1_555 1_555
C8_7 C2_7 1_555 1_555
C9_7 C1_7 1_555 1_555
H5_7 C9_7 1_555 1_555
C13_7 C1_7 1_555 1_555
H11_7 C13_7 1_555 1_555
C14_7 C2_7 1_555 1_555
H12_7 C14_7 1_555 1_555
H13_7 C14_7 1_555 1_555
H14_7 C14_7 1_555 1_555
Zn6 N4_3 1_555 1_555
N4_3 C13_7 1_555 1_555
Zn6_2 O3_7 1_555 1_555
O7_6 C6_7 1_555 1_555
O3_7 C6_7 1_555 1_555
N1_7 H1_7 1_555 1_555
N7_5 N6_7 1_555 1_555
C3_7 C7_7 1_555 1_555
C5_7 N1_7 1_555 1_555
H4_7 C5_7 1_555 1_555
C6_7 C5_7 1_555 1_555
C7_7 N1_7 1_555 1_555
C10_7 C5_7 1_555 1_555
H6_7 C10_7 1_555 1_555
H8_7 C10_7 1_555 1_555
C11_7 N6_7 1_555 1_555
H9_7 C11_7 1_555 1_555
C12_7 N7_5 1_555 1_555
C3_7 C11_7 1_555 1_555
C3_7 C12_7 1_555 1_555
Zn3 O2_8 1_555 1_555
Zn6_3 O3_8 1_555 1_555
O7_4 C6_8 1_555 1_555
O2_8 C8_8 1_555 1_555
O3_8 C6_8 1_555 1_555
O8_6 C8_8 1_555 1_555
N1_8 H1_8 1_555 1_555
N2_8 H2_8 1_555 1_555
N7_6 N6_8 1_555 1_555
C1_8 C4_8 1_555 1_555
N8_5 N9_2 1_555 1_555
O6_8 C4_8 1_555 1_555
N9_2 C9_8 1_555 1_555
N6_8 Zn3 1_555 1_555
C2_8 N2_8 1_555 1_555
H3_8 C2_8 1_555 1_555
C3_8 C7_8 1_555 1_555
C4_8 N2_8 1_555 1_555
C5_8 N1_8 1_555 1_555
H4_8 C5_8 1_555 1_555
C6_8 C5_8 1_555 1_555
C7_8 N1_8 1_555 1_555
C8_8 C2_8 1_555 1_555
C9_8 C1_8 1_555 1_555
H5_8 C9_8 1_555 1_555
C10_8 C5_8 1_555 1_555
H6_8 C10_8 1_555 1_555
H8_8 C10_8 1_555 1_555
C11_8 N6_8 1_555 1_555
H9_8 C11_8 1_555 1_555
C12_8 N7_6 1_555 1_555
C13_8 C1_8 1_555 1_555
H11_8 C13_8 1_555 1_555
C14_8 C2_8 1_555 1_555
H12_8 C14_8 1_555 1_555
H13_8 C14_8 1_555 1_555
H14_8 C14_8 1_555 1_555
N8_5 C13_8 1_555 1_555
C3_8 C11_8 1_555 1_555
C3_8 C12_8 1_555 1_555
Zn6 O3_9 1_555 1_555
O7_5 C6_9 1_555 1_555
O3_9 C6_9 1_555 1_555
N1_9 H1_9 1_555 1_555
N7_4 N6_9 1_555 1_555
C3_9 C7_9 1_555 1_555
C5_9 N1_9 1_555 1_555
H4_9 C5_9 1_555 1_555
C6_9 C5_9 1_555 1_555
C7_9 N1_9 1_555 1_555
C10_9 C5_9 1_555 1_555
H6_9 C10_9 1_555 1_555
H7_9 C10_9 1_555 1_555
H8_9 C10_9 1_555 1_555
C11_9 N6_9 1_555 1_555
H9_9 C11_9 1_555 1_555
C12_9 N7_4 1_555 1_555
C3_9 C11_9 1_555 1_555
C3_9 C12_9 1_555 1_555
Zn3_2 O2_9 1_555 1_555
O2_9 C8_9 1_555 1_555
O8_4 C8_9 1_555 1_555
N2_9 H2_9 1_555 1_555
C1_9 C4_9 1_555 1_555
N8_6 N9_3 1_555 1_555
O6_9 C4_9 1_555 1_555
N9_3 C9_9 1_555 1_555
C2_9 N2_9 1_555 1_555
H3_9 C2_9 1_555 1_555
C4_9 N2_9 1_555 1_555
C8_9 C2_9 1_555 1_555
C9_9 C1_9 1_555 1_555
H5_9 C9_9 1_555 1_555
C13_9 C1_9 1_555 1_555
H11_9 C13_9 1_555 1_555
C14_9 C2_9 1_555 1_555
H12_9 C14_9 1_555 1_555
H13_9 C14_9 1_555 1_555
H14_9 C14_9 1_555 1_555
N8_6 C13_9 1_555 1_555

#END
