
###############################################################################
#
# This file contains modified crystal structure data generated from the
# MOF subset of the Cambridge Structural Database (CSD) v543 
# hosted by the Cambridge Crystallographic Data Centre (CCDC).
#
# This work is licensed under the Creative Commons
# Attribution-NonCommercial-ShareAlike 4.0 International License.
# To view a copy of this license, visit
# http://creativecommons.org/licenses/by-nc-sa/4.0/
# or send a letter to
# Creative Commons, PO Box 1866, Mountain View, CA 94042, USA.
#
# CIF created using the CSD Python API on 29 September 2022
# The structure has been converted into the P1 space group
# The structure has a 3D framework
# The original CSD entry VUXBAU is in the rhombohedral crystal system
# The original CSD entry VUXBAU is in a Sohncke space group
# The framework has been calculated to contain at least 10.0% void space
# The void calculation uses a probe of radius 1.32A, grid spacing 0.4
#
###############################################################################

data_VUXBAU
_chemical_formula_moiety         '(C126 H126 N54 O54 Zn10)n'
_symmetry_cell_setting           triclinic
_symmetry_space_group_name_H-M   'P 1'
_symmetry_Int_Tables_number      1
_space_group_name_Hall           'P 1'
loop_
_symmetry_equiv_pos_site_id
_symmetry_equiv_pos_as_xyz
1 x,y,z
_cell_length_a                   28.8656(10)
_cell_length_b                   28.8656(10)
_cell_length_c                   10.1277(3)
_cell_angle_alpha                90
_cell_angle_beta                 90
_cell_angle_gamma                120
_cell_volume                     7308.07
loop_
_atom_site_label
_atom_site_type_symbol
_atom_site_fract_x
_atom_site_fract_y
_atom_site_fract_z
Zn1 Zn 0.66629(4) 0.02177(4) 0.45399(7)
Zn5 Zn 0.68881(6) 0.00038(4) 0.12066(7)
O9 O 0.6681(2) 0.0692(3) 0.3117(6)
N8 N 0.6990(3) 0.0690(5) 0.6081(6)
Zn2 Zn 0.64696(4) 0.66996(4) 0.30443(7)
O1 O 0.6912(3) 0.7472(2) 0.3296(6)
O2 O 0.3887(3) 0.4132(2) 0.4745(6)
O3 O 0.7344(3) 0.7386(3) 0.5027(6)
N1 N 0.7583(3) 0.8579(3) 0.3487(7)
H1 H 0.7609 0.8688 0.2665
N2 N 0.4351(3) 0.5236(3) 0.5129(7)
H2 H 0.4468 0.5293 0.4310
O4 O 0.3348(2) 0.4025(3) 0.6450(6)
C1 C 0.3791(4) 0.4867(4) 0.5372(9)
H3 H 0.3680 0.4982 0.6187
O5 O 0.7316(4) 0.8614(3) 0.5557(6)
O6 O 0.4553(3) 0.5444(3) 0.7289(6)
C2 C 0.7373(4) 0.8759(4) 0.4387(8)
N3 N 0.5991(3) 0.6347(3) 0.4547(7)
N4 N 0.6140(3) 0.6402(3) 0.5855(7)
C3 C 0.7211(4) 0.9151(4) 0.3957(8)
C4 C 0.7768(4) 0.8213(4) 0.3804(9)
H4 H 0.7943 0.8180 0.2984
N5 N 0.7034(4) 0.9677(3) 0.2748(6)
C5 C 0.5255(4) 0.5849(3) 0.5735(8)
N6 N 0.6873(3) 0.9693(3) 0.4023(7)
C6 C 0.5702(4) 0.6109(4) 0.6566(8)
H5 H 0.5692 0.6080 0.7501
C7 C 0.4697(4) 0.5496(4) 0.6108(9)
C8 C 0.6981(4) 0.9367(4) 0.4732(8)
H6 H 0.6908 0.9295 0.5648
C9 C 0.3669(4) 0.4300(4) 0.5553(8)
C10 C 0.7235(4) 0.9353(4) 0.2712(8)
H7 H 0.7373 0.9273 0.1949
C11 C 0.7303(4) 0.7653(3) 0.4086(8)
C12 C 0.3457(5) 0.4875(5) 0.4207(11)
H8 H 0.3510 0.5236 0.4104
H9 H 0.3077 0.4622 0.4373
H10 H 0.3569 0.4772 0.3398
C13 C 0.5474(4) 0.6023(3) 0.4485(8)
H11 H 0.5273 0.5921 0.3688
C14 C 0.8209(5) 0.8450(5) 0.4852(14)
H12 H 0.8328 0.8194 0.5051
H13 H 0.8511 0.8783 0.4519
H14 H 0.8069 0.8524 0.5656
Zn3 Zn 0.35548(6) 0.33371(4) 0.45399(7)
Zn4 Zn 0.33296(4) 0.35510(4) 0.78732(7)
Zn6 Zn 0.68967(6) 0.68637(4) 0.63776(7)
O7 O 0.5868(2) 0.9755(4) 0.4745(6)
O8 O 0.5947(3) 0.6625(4) 0.1694(6)
N7 N 0.6931(3) 0.6405(4) 0.2522(7)
H12_2 H 0.1806 0.0134 0.5051
Zn6_2 Zn 0.31363(4) 0.00329(7) 0.63776(7)
N7_2 N 0.3595(4) 0.0527(5) 0.2522(7)
Zn2_2 Zn 0.33004(4) 0.97700(6) 0.30443(7)
O1_2 O 0.2528(2) 0.9440(4) 0.3296(6)
O3_2 O 0.2614(3) 0.9958(4) 0.5027(6)
N1_2 N 0.1421(3) 0.9004(4) 0.3487(7)
H1_2 H 0.1312 0.8921 0.2665
N2_2 N 0.4764(3) 0.9115(4) 0.5129(7)
H2_2 H 0.4707 0.9175 0.4310
O4_2 O 0.5975(3) 0.9323(4) 0.6450(6)
C1_2 C 0.5133(4) 0.8924(6) 0.5372(9)
H3_2 H 0.5018 0.8698 0.6187
O5_2 O 0.1386(3) 0.8702(5) 0.5557(6)
O6_2 O 0.4556(3) 0.9109(4) 0.7289(6)
C2_2 C 0.1241(4) 0.8614(6) 0.4387(8)
N3_2 N 0.3653(3) 0.9644(4) 0.4547(7)
N4_2 N 0.3598(3) 0.9738(4) 0.5855(7)
C3_2 C 0.0849(4) 0.8060(6) 0.3957(8)
C4_2 C 0.1787(4) 0.9555(6) 0.3804(9)
H4_2 H 0.1820 0.9763 0.2984
N5_2 N 0.0323(3) 0.7357(5) 0.2748(6)
C5_2 C 0.4151(3) 0.9406(5) 0.5735(8)
N6_2 N 0.0307(3) 0.7180(4) 0.4023(7)
C6_2 C 0.3891(4) 0.9593(6) 0.6566(8)
H5_2 H 0.3920 0.9612 0.7501
C7_2 C 0.4504(4) 0.9201(6) 0.6108(9)
C8_2 C 0.0633(4) 0.7614(6) 0.4732(8)
H6_2 H 0.0705 0.7613 0.5648
C9_2 C 0.5700(4) 0.9369(6) 0.5553(8)
C10_2 C 0.0647(4) 0.7882(6) 0.2712(8)
H7_2 H 0.0727 0.8100 0.1949
C11_2 C 0.2347(3) 0.9650(5) 0.4086(8)
C12_2 C 0.5125(5) 0.8582(7) 0.4207(11)
H8_2 H 0.4764 0.8274 0.4104
H9_2 H 0.5378 0.8455 0.4373
H10_2 H 0.5228 0.8797 0.3398
C13_2 C 0.3977(3) 0.9451(5) 0.4485(8)
H11_2 H 0.4079 0.9352 0.3688
C14_2 C 0.1550(5) 0.9759(7) 0.4852(14)
H13_2 H 0.1217 0.9728 0.4519
H14_2 H 0.1476 0.9545 0.5656
Zn4_2 Zn 0.64490(4) 0.97785(6) 0.78732(7)
O7_2 O 0.0245(4) 0.6113(4) 0.4745(6)
O8_2 O 0.3375(4) 0.9323(5) 0.1694(6)
Zn1_2 Zn 0.97823(4) 0.64452(6) 0.45399(7)
Zn5_2 Zn 0.99962(4) 0.68844(7) 0.12066(7)
O9_2 O 0.9308(3) 0.5990(4) 0.3117(6)
N8_2 N 0.9310(5) 0.6299(6) 0.6081(6)
Zn2_3 Zn 0.02300(6) 0.35304(4) 0.30443(7)
O1_3 O 0.0560(4) 0.3088(3) 0.3296(6)
O3_3 O 0.0042(4) 0.2656(3) 0.5027(6)
N1_3 N 0.0996(4) 0.2417(3) 0.3487(7)
H1_3 H 0.1079 0.2391 0.2665
N2_3 N 0.0885(4) 0.5649(3) 0.5129(7)
H2_3 H 0.0825 0.5532 0.4310
O4_3 O 0.0677(4) 0.6652(2) 0.6450(6)
C1_3 C 0.1076(6) 0.6209(4) 0.5372(9)
H3_3 H 0.1302 0.6320 0.6187
O5_3 O 0.1298(5) 0.2684(4) 0.5557(6)
O6_3 O 0.0891(4) 0.5447(3) 0.7289(6)
C2_3 C 0.1386(6) 0.2627(4) 0.4387(8)
N3_3 N 0.0356(4) 0.4009(3) 0.4547(7)
N4_3 N 0.0262(4) 0.3860(3) 0.5855(7)
C3_3 C 0.1940(6) 0.2789(4) 0.3957(8)
C4_3 C 0.0445(6) 0.2232(4) 0.3804(9)
H4_3 H 0.0237 0.2057 0.2984
N5_3 N 0.2643(5) 0.2966(4) 0.2748(6)
C5_3 C 0.0594(5) 0.4745(4) 0.5735(8)
N6_3 N 0.2820(4) 0.3127(3) 0.4023(7)
C6_3 C 0.0407(6) 0.4298(4) 0.6566(8)
H5_3 H 0.0388 0.4308 0.7501
C7_3 C 0.0799(6) 0.5303(4) 0.6108(9)
C8_3 C 0.2386(6) 0.3019(4) 0.4732(8)
H6_3 H 0.2387 0.3092 0.5648
C9_3 C 0.0631(6) 0.6331(4) 0.5553(8)
C10_3 C 0.2118(6) 0.2765(4) 0.2712(8)
H7_3 H 0.1900 0.2627 0.1949
C11_3 C 0.0350(5) 0.2697(4) 0.4086(8)
C12_3 C 0.1418(7) 0.6543(5) 0.4207(11)
H8_3 H 0.1726 0.6490 0.4104
H9_3 H 0.1545 0.6923 0.4373
H10_3 H 0.1203 0.6431 0.3398
C13_3 C 0.0549(5) 0.4526(4) 0.4485(8)
H11_3 H 0.0648 0.4727 0.3688
C14_3 C 0.0241(7) 0.1791(5) 0.4852(14)
H13_3 H 0.0272 0.1489 0.4519
H14_3 H 0.0455 0.1931 0.5656
Zn4_3 Zn 0.02215(6) 0.66704(4) 0.78732(7)
Zn5_3 Zn 0.31156(7) 0.31119(6) 0.12066(7)
O8_3 O 0.0677(5) 0.4053(3) 0.1694(6)
O9_3 O 0.4010(4) 0.3319(2) 0.3117(6)
N8_3 N 0.3701(6) 0.3010(3) 0.6081(6)
H12_3 H 0.9866 0.1672 0.5051
Zn6_3 Zn 0.99671(7) 0.31033(6) 0.63776(7)
N7_3 N 0.9473(5) 0.3069(3) 0.2522(7)
O1_4 O 0.3579(3) 0.0805(2) 0.6629(6)
O3_4 O 0.4011(3) 0.0719(3) 0.8360(6)
N1_4 N 0.4250(3) 0.1912(3) 0.6820(7)
H1_4 H 0.4276 0.2021 0.5998
O5_4 O 0.3983(4) 0.1947(3) 0.8890(6)
C2_4 C 0.4040(4) 0.2092(4) 0.7720(8)
C3_4 C 0.3878(4) 0.2484(4) 0.7290(8)
C4_4 C 0.4435(4) 0.1546(4) 0.7137(9)
H4_4 H 0.4610 0.1513 0.6317
N6_4 N 0.3540(3) 0.3026(3) 0.7356(7)
C8_4 C 0.3648(4) 0.2700(4) 0.8065(8)
H6_4 H 0.3575 0.2628 0.8981
C10_4 C 0.3902(4) 0.2686(4) 0.6045(8)
H7_4 H 0.4040 0.2606 0.5282
C11_4 C 0.3970(4) 0.0986(3) 0.7419(8)
C14_4 C 0.4876(5) 0.1783(5) 0.8185(14)
H12_4 H 0.4995 0.1527 0.8384
H13_4 H 0.5178 0.2116 0.7852
H14_4 H 0.4736 0.1857 0.8989
Zn6_4 Zn 0.35633(6) 0.01971(4) 0.97110(7)
O7_3 O 0.2535(2) 0.3088(4) 0.8078(6)
N8_4 N 0.3656(3) 0.4024(5) 0.9415(6)
O2_2 O 0.0554(3) 0.7465(2) 0.8078(6)
N2_4 N 0.1018(3) 0.8569(3) 0.8462(7)
H2_4 H 0.1135 0.8626 0.7643
O4_4 O 0.0015(2) 0.7358(3) 0.9783(6)
C1_4 C 0.0458(4) 0.8200(4) 0.8705(9)
H3_4 H 0.0347 0.8315 0.9520
N3_4 N 0.2658(3) 0.9680(3) 0.7880(7)
N4_4 N 0.2807(3) 0.9735(3) 0.9188(7)
C5_4 C 0.1922(4) 0.9182(3) 0.9068(8)
C6_4 C 0.2369(4) 0.9442(4) 0.9899(8)
C7_4 C 0.1364(4) 0.8829(4) 0.9441(9)
C9_4 C 0.0336(4) 0.7633(4) 0.8886(8)
C12_4 C 0.0124(5) 0.8208(5) 0.7540(11)
H8_4 H 0.0177 0.8569 0.7437
H10_4 H 0.0236 0.8105 0.6731
C13_4 C 0.2141(4) 0.9356(3) 0.7818(8)
H11_4 H 0.1940 0.9254 0.7021
O6_4 O 0.1223(3) 0.2442(4) 0.0622(6)
H5_4 H 0.0587 0.2945 0.0834
N2_5 N 0.1431(3) 0.2448(4) 0.8462(7)
H2_5 H 0.1374 0.2508 0.7643
O4_5 O 0.2642(3) 0.2656(4) 0.9783(6)
C1_5 C 0.1800(4) 0.2257(6) 0.8705(9)
H3_5 H 0.1685 0.2031 0.9520
N3_5 N 0.0320(3) 0.2977(4) 0.7880(7)
N4_5 N 0.0265(3) 0.3071(4) 0.9188(7)
C5_5 C 0.0818(3) 0.2739(5) 0.9068(8)
C6_5 C 0.0558(4) 0.2926(6) 0.9899(8)
C7_5 C 0.1171(4) 0.2534(6) 0.9441(9)
C9_5 C 0.2367(4) 0.2702(6) 0.8886(8)
C12_5 C 0.1792(5) 0.1915(7) 0.7540(11)
H8_5 H 0.1431 0.1607 0.7437
H9_4 H 0.2045 0.1788 0.7706
H10_5 H 0.1895 0.2130 0.6731
C13_5 C 0.0644(3) 0.2784(5) 0.7818(8)
H11_5 H 0.0746 0.2685 0.7021
O1_5 O 0.9195(2) 0.2773(4) 0.6629(6)
O3_5 O 0.9281(3) 0.3291(4) 0.8360(6)
N1_5 N 0.8088(3) 0.2337(4) 0.6820(7)
H1_5 H 0.7979 0.2254 0.5998
O5_5 O 0.8053(3) 0.2035(5) 0.8890(6)
C2_5 C 0.7908(4) 0.1947(6) 0.7720(8)
C3_5 C 0.7516(4) 0.1393(6) 0.7290(8)
C4_5 C 0.8454(4) 0.2888(6) 0.7137(9)
H4_5 H 0.8487 0.3096 0.6317
N6_5 N 0.6974(3) 0.0513(4) 0.7356(7)
C8_5 C 0.7300(4) 0.0947(6) 0.8065(8)
H6_5 H 0.7372 0.0946 0.8981
C10_5 C 0.7314(4) 0.1215(6) 0.6045(8)
H7_5 H 0.7394 0.1433 0.5282
C11_5 C 0.9014(3) 0.2983(5) 0.7419(8)
C14_5 C 0.8217(5) 0.3092(7) 0.8185(14)
H12_5 H 0.8473 0.3467 0.8384
H13_5 H 0.7884 0.3061 0.7852
H14_5 H 0.8143 0.2878 0.8989
Zn6_5 Zn 0.98029(4) 0.33663(7) 0.97110(7)
O7_4 O 0.6912(4) 0.9446(4) 0.8078(6)
N8_5 N 0.5976(5) 0.9633(6) 0.9415(6)
N8_6 N 0.0367(6) 0.6344(3) 0.9415(6)
O1_6 O 0.7227(4) 0.6421(3) 0.6629(6)
O3_6 O 0.6709(4) 0.5989(3) 0.8360(6)
N1_6 N 0.7663(4) 0.5750(3) 0.6820(7)
H1_6 H 0.7746 0.5724 0.5998
N2_6 N 0.7552(4) 0.8982(3) 0.8462(7)
H2_6 H 0.7492 0.8865 0.7643
O4_6 O 0.7344(4) 0.9985(2) 0.9783(6)
C1_6 C 0.7743(6) 0.9542(4) 0.8705(9)
H3_6 H 0.7969 0.9653 0.9520
O5_6 O 0.7965(5) 0.6017(4) 0.8890(6)
C2_6 C 0.8053(6) 0.5960(4) 0.7720(8)
N3_6 N 0.7023(4) 0.7342(3) 0.7880(7)
N4_6 N 0.6929(4) 0.7193(3) 0.9188(7)
C3_6 C 0.8607(6) 0.6122(4) 0.7290(8)
C4_6 C 0.7112(6) 0.5565(4) 0.7137(9)
H4_6 H 0.6904 0.5390 0.6317
C5_6 C 0.7261(5) 0.8078(4) 0.9068(8)
N6_6 N 0.9487(4) 0.6460(3) 0.7356(7)
C6_6 C 0.7074(6) 0.7631(4) 0.9899(8)
C7_6 C 0.7466(6) 0.8636(4) 0.9441(9)
C8_6 C 0.9053(6) 0.6352(4) 0.8065(8)
H6_6 H 0.9054 0.6425 0.8981
C9_6 C 0.7298(6) 0.9664(4) 0.8886(8)
C10_6 C 0.8785(6) 0.6098(4) 0.6045(8)
H7_6 H 0.8567 0.5960 0.5282
C11_6 C 0.7017(5) 0.6030(4) 0.7419(8)
C12_6 C 0.8085(7) 0.9876(5) 0.7540(11)
H8_6 H 0.8393 0.9823 0.7437
H10_6 H 0.7870 0.9764 0.6731
C13_6 C 0.7216(5) 0.7859(4) 0.7818(8)
H11_6 H 0.7315 0.8060 0.7021
C14_6 C 0.6908(7) 0.5124(5) 0.8185(14)
H12_6 H 0.6533 0.5005 0.8384
H13_6 H 0.6939 0.4822 0.7852
H14_6 H 0.7122 0.5264 0.8989
Zn6_6 Zn 0.66337(7) 0.64367(6) 0.97110(7)
N1_7 N 0.0916(3) 0.5246(3) 0.0154(7)
O5_7 O 0.0649(4) 0.5281(3) 0.2224(6)
C2_7 C 0.0706(4) 0.5426(4) 0.1054(8)
C3_7 C 0.0544(4) 0.5818(4) 0.0624(8)
C4_7 C 0.1101(4) 0.4880(4) 0.0471(9)
N6_7 N 0.0206(3) 0.6360(3) 0.0690(7)
C8_7 C 0.0314(4) 0.6034(4) 0.1399(8)
H6_7 H 0.0241 0.5962 0.2315
C11_7 C 0.0636(4) 0.4320(3) 0.0753(8)
C14_7 C 0.1542(5) 0.5117(5) 0.1519(14)
H12_7 H 0.1661 0.4861 0.1718
H13_7 H 0.1844 0.5450 0.1186
H14_7 H 0.1402 0.5191 0.2323
O1_7 O 0.0245(3) 0.4139(2) 0.9963(6)
H1_7 H 0.0942 0.5355 0.9332
H4_7 H 0.1276 0.4847 0.9651
C10_7 C 0.0568(4) 0.6020(4) 0.9379(8)
H7_7 H 0.0706 0.5940 0.8616
O2_3 O 0.7220(3) 0.0799(2) 0.1412(6)
N2_7 N 0.7684(3) 0.1903(3) 0.1796(7)
H2_7 H 0.7801 0.1960 0.0977
C1_7 C 0.7124(4) 0.1534(4) 0.2039(9)
H3_7 H 0.7013 0.1649 0.2854
O6_5 O 0.7886(3) 0.2111(3) 0.3956(6)
N3_7 N 0.9324(3) 0.3014(3) 0.1214(7)
C5_7 C 0.8588(4) 0.2516(3) 0.2402(8)
C6_7 C 0.9035(4) 0.2776(4) 0.3233(8)
H5_5 H 0.9025 0.2747 0.4168
C7_7 C 0.8030(4) 0.2163(4) 0.2775(9)
C9_7 C 0.7002(4) 0.0967(4) 0.2220(8)
C12_7 C 0.6790(5) 0.1542(5) 0.0874(11)
H8_7 H 0.6843 0.1903 0.0771
H9_5 H 0.6410 0.1289 0.1040
H10_7 H 0.6902 0.1439 0.0065
C13_7 C 0.8807(4) 0.2690(3) 0.1152(8)
H11_7 H 0.8606 0.2588 0.0355
O7_5 O 0.9201(2) 0.6422(4) 0.1412(6)
N1_8 N 0.4754(3) 0.5671(4) 0.0154(7)
N2_8 N 0.8097(3) 0.5782(4) 0.1796(7)
H2_8 H 0.8040 0.5842 0.0977
C1_8 C 0.8466(4) 0.5591(6) 0.2039(9)
H3_8 H 0.8351 0.5365 0.2854
O5_8 O 0.4719(3) 0.5369(5) 0.2224(6)
O6_6 O 0.7889(3) 0.5776(4) 0.3956(6)
C2_8 C 0.4574(4) 0.5281(6) 0.1054(8)
N3_8 N 0.6986(3) 0.6311(4) 0.1214(7)
C3_8 C 0.4182(4) 0.4727(6) 0.0624(8)
C4_8 C 0.5120(4) 0.6222(6) 0.0471(9)
C5_8 C 0.7484(3) 0.6073(5) 0.2402(8)
N6_8 N 0.3640(3) 0.3847(4) 0.0690(7)
C6_8 C 0.7224(4) 0.6260(6) 0.3233(8)
H5_6 H 0.7253 0.6279 0.4168
C7_8 C 0.7837(4) 0.5868(6) 0.2775(9)
C8_8 C 0.3966(4) 0.4281(6) 0.1399(8)
H6_8 H 0.4038 0.4280 0.2315
C9_8 C 0.9033(4) 0.6036(6) 0.2220(8)
C11_8 C 0.5680(3) 0.6317(5) 0.0753(8)
C12_8 C 0.8458(5) 0.5249(7) 0.0874(11)
H8_8 H 0.8097 0.4941 0.0771
H9_6 H 0.8711 0.5122 0.1040
H10_8 H 0.8561 0.5464 0.0065
C13_8 C 0.7310(3) 0.6118(5) 0.1152(8)
H11_8 H 0.7412 0.6019 0.0355
C14_8 C 0.4883(5) 0.6426(7) 0.1519(14)
H12_8 H 0.5139 0.6801 0.1718
H13_8 H 0.4550 0.6395 0.1186
H14_8 H 0.4809 0.6212 0.2323
O7_6 O 0.3578(4) 0.2780(4) 0.1412(6)
O1_8 O 0.5861(2) 0.6107(4) 0.9963(6)
H1_8 H 0.4645 0.5588 0.9332
H4_8 H 0.5153 0.6430 0.9651
C10_8 C 0.3980(4) 0.4549(6) 0.9379(8)
H7_8 H 0.4060 0.4767 0.8616
N2_9 N 0.4218(4) 0.2316(3) 0.1796(7)
H2_9 H 0.4158 0.2199 0.0977
C1_9 C 0.4409(6) 0.2876(4) 0.2039(9)
H3_9 H 0.4635 0.2987 0.2854
O6_7 O 0.4224(4) 0.2114(3) 0.3956(6)
N3_9 N 0.3689(4) 0.0676(3) 0.1214(7)
C5_9 C 0.3927(5) 0.1412(4) 0.2402(8)
C6_9 C 0.3740(6) 0.0965(4) 0.3233(8)
H5_7 H 0.3721 0.0975 0.4168
C7_9 C 0.4132(6) 0.1970(4) 0.2775(9)
C9_9 C 0.3964(6) 0.2998(4) 0.2220(8)
C12_9 C 0.4751(7) 0.3210(5) 0.0874(11)
H8_9 H 0.5059 0.3157 0.0771
H9_7 H 0.4878 0.3590 0.1040
H10_9 H 0.4536 0.3098 0.0065
C13_9 C 0.3882(5) 0.1193(4) 0.1152(8)
H11_9 H 0.3981 0.1394 0.0355
N1_9 N 0.4329(4) 0.9084(3) 0.0154(7)
O5_9 O 0.4631(5) 0.9351(4) 0.2224(6)
C2_9 C 0.4719(6) 0.9294(4) 0.1054(8)
C3_9 C 0.5273(6) 0.9456(4) 0.0624(8)
C4_9 C 0.3778(6) 0.8899(4) 0.0471(9)
N6_9 N 0.6153(4) 0.9794(3) 0.0690(7)
C8_9 C 0.5719(6) 0.9686(4) 0.1399(8)
H6_9 H 0.5720 0.9759 0.2315
C11_9 C 0.3683(5) 0.9364(4) 0.0753(8)
C14_9 C 0.3574(7) 0.8458(5) 0.1519(14)
H12_9 H 0.3199 0.8339 0.1718
H13_9 H 0.3605 0.8156 0.1186
H14_9 H 0.3788 0.8598 0.2323
O1_9 O 0.3893(4) 0.9755(3) 0.9963(6)
H1_9 H 0.4412 0.9058 0.9332
H4_9 H 0.3570 0.8724 0.9651
C10_9 C 0.5451(6) 0.9432(4) 0.9379(8)
H7_9 H 0.5233 0.9294 0.8616
O6_8 O 0.1220(3) 0.8777(3) 0.0622(6)
H5_8 H 0.2359 0.9413 0.0834
H9_8 H 0.9744 0.7955 0.7706
H9_9 H 0.8212 0.0256 0.7706
O6_9 O 0.7558(4) 0.8780(3) 0.0622(6)
H5_9 H 0.7055 0.7641 0.0834
loop_
_geom_bond_atom_site_label_1
_geom_bond_atom_site_label_2
_geom_bond_site_symmetry_1
_geom_bond_site_symmetry_2
O9 Zn1 1_555 1_555
N8 Zn1 1_555 1_555
Zn2 O1 1_555 1_555
O1 C11 1_555 1_555
O2 C9 1_555 1_555
O3 C11 1_555 1_555
N1 H1 1_555 1_555
N2 H2 1_555 1_555
O4 C9 1_555 1_555
C1 N2 1_555 1_555
H3 C1 1_555 1_555
O5 C2 1_555 1_555
O6 C7 1_555 1_555
C2 N1 1_555 1_555
N3 Zn2 1_555 1_555
N4 N3 1_555 1_555
C3 C2 1_555 1_555
C4 N1 1_555 1_555
H4 C4 1_555 1_555
N5 N6 1_555 1_555
C5 C6 1_555 1_555
N6 C8 1_555 1_555
C6 N4 1_555 1_555
H5 C6 1_555 1_555
C7 N2 1_555 1_555
C8 C3 1_555 1_555
H6 C8 1_555 1_555
C9 C1 1_555 1_555
C10 C3 1_555 1_555
H7 C10 1_555 1_555
C11 C4 1_555 1_555
C12 C1 1_555 1_555
H8 C12 1_555 1_555
H9 C12 1_555 1_555
H10 C12 1_555 1_555
C13 N3 1_555 1_555
H11 C13 1_555 1_555
C14 C4 1_555 1_555
H12 C14 1_555 1_555
H13 C14 1_555 1_555
H14 C14 1_555 1_555
Zn3 O2 1_555 1_555
Zn4 O4 1_555 1_555
Zn6 O3 1_555 1_555
O8 Zn2 1_555 1_555
N7 Zn2 1_555 1_555
N4 Zn6 1_555 1_555
N5 C10 1_555 1_555
C5 C7 1_555 1_555
C5 C13 1_555 1_555
Zn2_2 O1_2 1_555 1_555
O1_2 C11_2 1_555 1_555
O7 C9_2 1_555 1_555
O3_2 C11_2 1_555 1_555
N1_2 H1_2 1_555 1_555
N2_2 H2_2 1_555 1_555
O4_2 C9_2 1_555 1_555
C1_2 N2_2 1_555 1_555
H3_2 C1_2 1_555 1_555
O5_2 C2_2 1_555 1_555
O6_2 C7_2 1_555 1_555
C2_2 N1_2 1_555 1_555
N3_2 Zn2_2 1_555 1_555
N4_2 N3_2 1_555 1_555
C3_2 C2_2 1_555 1_555
C4_2 N1_2 1_555 1_555
H4_2 C4_2 1_555 1_555
N5_2 N6_2 1_555 1_555
C5_2 C6_2 1_555 1_555
N6_2 C8_2 1_555 1_555
C6_2 N4_2 1_555 1_555
H5_2 C6_2 1_555 1_555
C7_2 N2_2 1_555 1_555
C8_2 C3_2 1_555 1_555
H6_2 C8_2 1_555 1_555
C9_2 C1_2 1_555 1_555
C10_2 C3_2 1_555 1_555
H7_2 C10_2 1_555 1_555
C11_2 C4_2 1_555 1_555
C12_2 C1_2 1_555 1_555
H8_2 C12_2 1_555 1_555
H9_2 C12_2 1_555 1_555
H10_2 C12_2 1_555 1_555
C13_2 N3_2 1_555 1_555
H11_2 C13_2 1_555 1_555
C14_2 C4_2 1_555 1_555
H13_2 C14_2 1_555 1_555
H14_2 C14_2 1_555 1_555
Zn4_2 O4_2 1_555 1_555
O8_2 Zn2_2 1_555 1_555
N5_2 C10_2 1_555 1_555
C5_2 C7_2 1_555 1_555
C5_2 C13_2 1_555 1_555
O9_2 Zn1_2 1_555 1_555
N8_2 Zn1_2 1_555 1_555
Zn3 N6_3 1_555 1_555
Zn2_3 O1_3 1_555 1_555
O1_3 C11_3 1_555 1_555
O7_2 C9_3 1_555 1_555
O3_3 C11_3 1_555 1_555
N1_3 H1_3 1_555 1_555
N2_3 H2_3 1_555 1_555
O4_3 C9_3 1_555 1_555
C1_3 N2_3 1_555 1_555
H3_3 C1_3 1_555 1_555
O5_3 C2_3 1_555 1_555
O6_3 C7_3 1_555 1_555
C2_3 N1_3 1_555 1_555
N3_3 Zn2_3 1_555 1_555
N4_3 N3_3 1_555 1_555
C3_3 C2_3 1_555 1_555
C4_3 N1_3 1_555 1_555
H4_3 C4_3 1_555 1_555
N5_3 N6_3 1_555 1_555
C5_3 C6_3 1_555 1_555
N6_3 C8_3 1_555 1_555
C6_3 N4_3 1_555 1_555
H5_3 C6_3 1_555 1_555
C7_3 N2_3 1_555 1_555
C8_3 C3_3 1_555 1_555
H6_3 C8_3 1_555 1_555
C9_3 C1_3 1_555 1_555
C10_3 C3_3 1_555 1_555
H7_3 C10_3 1_555 1_555
C11_3 C4_3 1_555 1_555
C12_3 C1_3 1_555 1_555
H8_3 C12_3 1_555 1_555
H9_3 C12_3 1_555 1_555
H10_3 C12_3 1_555 1_555
C13_3 N3_3 1_555 1_555
H11_3 C13_3 1_555 1_555
C14_3 C4_3 1_555 1_555
H13_3 C14_3 1_555 1_555
H14_3 C14_3 1_555 1_555
Zn4_3 O4_3 1_555 1_555
Zn5_3 N5_3 1_555 1_555
O8_3 Zn2_3 1_555 1_555
O9_3 Zn3 1_555 1_555
N8_3 Zn3 1_555 1_555
N5_3 C10_3 1_555 1_555
C5_3 C7_3 1_555 1_555
C5_3 C13_3 1_555 1_555
Zn4 N6_4 1_555 1_555
Zn6_2 O1_4 1_555 1_555
O1_4 C11_4 1_555 1_555
O3_4 C11_4 1_555 1_555
N1_4 H1_4 1_555 1_555
O5_4 C2_4 1_555 1_555
C2_4 N1_4 1_555 1_555
C3_4 C2_4 1_555 1_555
C4_4 N1_4 1_555 1_555
H4_4 C4_4 1_555 1_555
N8_3 N6_4 1_555 1_555
N6_4 C8_4 1_555 1_555
C8_4 C3_4 1_555 1_555
H6_4 C8_4 1_555 1_555
C10_4 C3_4 1_555 1_555
H7_4 C10_4 1_555 1_555
C11_4 C4_4 1_555 1_555
C14_4 C4_4 1_555 1_555
H12_4 C14_4 1_555 1_555
H13_4 C14_4 1_555 1_555
H14_4 C14_4 1_555 1_555
Zn6_4 O3_4 1_555 1_555
O7_3 Zn4 1_555 1_555
N8_4 Zn4 1_555 1_555
N8_3 C10_4 1_555 1_555
O2_2 C9_4 1_555 1_555
N2_4 H2_4 1_555 1_555
O4_4 C9_4 1_555 1_555
C1_4 N2_4 1_555 1_555
H3_4 C1_4 1_555 1_555
N4_4 N3_4 1_555 1_555
C5_4 C6_4 1_555 1_555
C6_4 N4_4 1_555 1_555
C7_4 N2_4 1_555 1_555
C9_4 C1_4 1_555 1_555
C12_4 C1_4 1_555 1_555
H8_4 C12_4 1_555 1_555
H10_4 C12_4 1_555 1_555
C13_4 N3_4 1_555 1_555
H11_4 C13_4 1_555 1_555
Zn4_3 O2_2 1_555 1_555
C5_4 C7_4 1_555 1_555
C5_4 C13_4 1_555 1_555
O7_3 C9_5 1_555 1_555
N2_5 H2_5 1_555 1_555
O4_5 C9_5 1_555 1_555
C1_5 N2_5 1_555 1_555
H3_5 C1_5 1_555 1_555
N4_5 N3_5 1_555 1_555
C5_5 C6_5 1_555 1_555
C6_5 N4_5 1_555 1_555
C7_5 N2_5 1_555 1_555
C9_5 C1_5 1_555 1_555
C12_5 C1_5 1_555 1_555
H8_5 C12_5 1_555 1_555
H9_4 C12_5 1_555 1_555
H10_5 C12_5 1_555 1_555
C13_5 N3_5 1_555 1_555
H11_5 C13_5 1_555 1_555
C5_5 C7_5 1_555 1_555
C5_5 C13_5 1_555 1_555
Zn6_3 O1_5 1_555 1_555
O1_5 C11_5 1_555 1_555
O3_5 C11_5 1_555 1_555
N1_5 H1_5 1_555 1_555
O5_5 C2_5 1_555 1_555
C2_5 N1_5 1_555 1_555
C3_5 C2_5 1_555 1_555
C4_5 N1_5 1_555 1_555
H4_5 C4_5 1_555 1_555
N8 N6_5 1_555 1_555
N6_5 C8_5 1_555 1_555
C8_5 C3_5 1_555 1_555
H6_5 C8_5 1_555 1_555
C10_5 C3_5 1_555 1_555
H7_5 C10_5 1_555 1_555
C11_5 C4_5 1_555 1_555
C14_5 C4_5 1_555 1_555
H12_5 C14_5 1_555 1_555
H13_5 C14_5 1_555 1_555
H14_5 C14_5 1_555 1_555
Zn6_5 O3_5 1_555 1_555
N8 C10_5 1_555 1_555
O7_4 Zn4_2 1_555 1_555
N8_5 Zn4_2 1_555 1_555
N8_6 Zn4_3 1_555 1_555
Zn6 O1_6 1_555 1_555
O1_6 C11_6 1_555 1_555
O7_4 C9_6 1_555 1_555
O3_6 C11_6 1_555 1_555
N1_6 H1_6 1_555 1_555
N2_6 H2_6 1_555 1_555
O4_6 C9_6 1_555 1_555
C1_6 N2_6 1_555 1_555
H3_6 C1_6 1_555 1_555
O5_6 C2_6 1_555 1_555
C2_6 N1_6 1_555 1_555
N3_6 Zn6 1_555 1_555
N4_6 N3_6 1_555 1_555
C3_6 C2_6 1_555 1_555
C4_6 N1_6 1_555 1_555
H4_6 C4_6 1_555 1_555
N8_2 N6_6 1_555 1_555
C5_6 C6_6 1_555 1_555
N6_6 C8_6 1_555 1_555
C6_6 N4_6 1_555 1_555
C7_6 N2_6 1_555 1_555
C8_6 C3_6 1_555 1_555
H6_6 C8_6 1_555 1_555
C9_6 C1_6 1_555 1_555
C10_6 C3_6 1_555 1_555
H7_6 C10_6 1_555 1_555
C11_6 C4_6 1_555 1_555
C12_6 C1_6 1_555 1_555
H8_6 C12_6 1_555 1_555
H10_6 C12_6 1_555 1_555
C13_6 N3_6 1_555 1_555
H11_6 C13_6 1_555 1_555
C14_6 C4_6 1_555 1_555
H12_6 C14_6 1_555 1_555
H13_6 C14_6 1_555 1_555
H14_6 C14_6 1_555 1_555
Zn6_6 O3_6 1_555 1_555
N4_6 Zn6_6 1_555 1_555
N8_2 C10_6 1_555 1_555
C5_6 C7_6 1_555 1_555
C5_6 C13_6 1_555 1_555
O8_3 C11_7 1_555 1_555
O5_7 C2_7 1_555 1_555
C2_7 N1_7 1_555 1_555
C3_7 C2_7 1_555 1_555
C4_7 N1_7 1_555 1_555
N6_7 C8_7 1_555 1_555
C8_7 C3_7 1_555 1_555
H6_7 C8_7 1_555 1_555
C11_7 C4_7 1_555 1_555
C14_7 C4_7 1_555 1_555
H12_7 C14_7 1_555 1_555
H13_7 C14_7 1_555 1_555
H14_7 C14_7 1_555 1_555
H7_7 C10_7 1_555 1_555
N8_6 C10_7 1_555 1_555
O2_3 C9_7 1_555 1_555
N2_7 H2_7 1_555 1_555
O9 C9_7 1_555 1_555
C1_7 N2_7 1_555 1_555
H3_7 C1_7 1_555 1_555
O6_5 C7_7 1_555 1_555
N7_3 N3_7 1_555 1_555
C5_7 C6_7 1_555 1_555
C6_7 N7_3 1_555 1_555
H5_5 C6_7 1_555 1_555
C7_7 N2_7 1_555 1_555
C9_7 C1_7 1_555 1_555
C12_7 C1_7 1_555 1_555
H8_7 C12_7 1_555 1_555
H9_5 C12_7 1_555 1_555
H10_7 C12_7 1_555 1_555
C13_7 N3_7 1_555 1_555
H11_7 C13_7 1_555 1_555
Zn5 O2_3 1_555 1_555
O7_5 Zn5_2 1_555 1_555
C5_7 C7_7 1_555 1_555
C5_7 C13_7 1_555 1_555
Zn5_3 N6_8 1_555 1_555
O7_5 C9_8 1_555 1_555
O8 C11_8 1_555 1_555
N2_8 H2_8 1_555 1_555
O9_2 C9_8 1_555 1_555
C1_8 N2_8 1_555 1_555
H3_8 C1_8 1_555 1_555
O5_8 C2_8 1_555 1_555
O6_6 C7_8 1_555 1_555
C2_8 N1_8 1_555 1_555
N7 N3_8 1_555 1_555
C3_8 C2_8 1_555 1_555
C4_8 N1_8 1_555 1_555
C5_8 C6_8 1_555 1_555
N6_8 C8_8 1_555 1_555
C6_8 N7 1_555 1_555
H5_6 C6_8 1_555 1_555
C7_8 N2_8 1_555 1_555
C8_8 C3_8 1_555 1_555
H6_8 C8_8 1_555 1_555
C9_8 C1_8 1_555 1_555
C11_8 C4_8 1_555 1_555
C12_8 C1_8 1_555 1_555
H8_8 C12_8 1_555 1_555
H9_6 C12_8 1_555 1_555
H10_8 C12_8 1_555 1_555
C13_8 N3_8 1_555 1_555
H11_8 C13_8 1_555 1_555
C14_8 C4_8 1_555 1_555
H12_8 C14_8 1_555 1_555
H13_8 C14_8 1_555 1_555
H14_8 C14_8 1_555 1_555
O7_6 Zn5_3 1_555 1_555
C5_8 C7_8 1_555 1_555
C5_8 C13_8 1_555 1_555
Zn6_6 O1_8 1_555 1_555
H7_8 C10_8 1_555 1_555
N8_4 C10_8 1_555 1_555
O7_6 C9_9 1_555 1_555
N2_9 H2_9 1_555 1_555
O9_3 C9_9 1_555 1_555
C1_9 N2_9 1_555 1_555
H3_9 C1_9 1_555 1_555
O6_7 C7_9 1_555 1_555
N7_2 N3_9 1_555 1_555
C5_9 C6_9 1_555 1_555
C6_9 N7_2 1_555 1_555
H5_7 C6_9 1_555 1_555
C7_9 N2_9 1_555 1_555
C9_9 C1_9 1_555 1_555
C12_9 C1_9 1_555 1_555
H8_9 C12_9 1_555 1_555
H9_7 C12_9 1_555 1_555
H10_9 C12_9 1_555 1_555
C13_9 N3_9 1_555 1_555
H11_9 C13_9 1_555 1_555
C5_9 C7_9 1_555 1_555
C5_9 C13_9 1_555 1_555
O8_2 C11_9 1_555 1_555
O5_9 C2_9 1_555 1_555
C2_9 N1_9 1_555 1_555
C3_9 C2_9 1_555 1_555
C4_9 N1_9 1_555 1_555
N6_9 C8_9 1_555 1_555
C8_9 C3_9 1_555 1_555
H6_9 C8_9 1_555 1_555
C11_9 C4_9 1_555 1_555
C14_9 C4_9 1_555 1_555
H12_9 C14_9 1_555 1_555
H13_9 C14_9 1_555 1_555
H14_9 C14_9 1_555 1_555
H7_9 C10_9 1_555 1_555
N8_5 C10_9 1_555 1_555

#END
