
###############################################################################
#
# This file contains modified crystal structure data generated from the
# MOF subset of the Cambridge Structural Database (CSD) v543 
# hosted by the Cambridge Crystallographic Data Centre (CCDC).
#
# This work is licensed under the Creative Commons
# Attribution-NonCommercial-ShareAlike 4.0 International License.
# To view a copy of this license, visit
# http://creativecommons.org/licenses/by-nc-sa/4.0/
# or send a letter to
# Creative Commons, PO Box 1866, Mountain View, CA 94042, USA.
#
# CIF created using the CSD Python API on 29 September 2022
# The structure has been converted into the P1 space group
# The structure has a 3D framework
# The original CSD entry VUXBEY is in the rhombohedral crystal system
# The original CSD entry VUXBEY is in a Sohncke space group
# The framework has been calculated to contain at least 10.0% void space
# The void calculation uses a probe of radius 1.32A, grid spacing 0.4
#
###############################################################################

data_VUXBEY
_chemical_formula_moiety         '(C126 H126 N54 O54 Zn16)n'
_symmetry_cell_setting           triclinic
_symmetry_space_group_name_H-M   'P 1'
_symmetry_Int_Tables_number      1
_space_group_name_Hall           'P 1'
loop_
_symmetry_equiv_pos_site_id
_symmetry_equiv_pos_as_xyz
1 x,y,z
_cell_length_a                   28.6590(13)
_cell_length_b                   28.6590(13)
_cell_length_c                   10.1251(4)
_cell_angle_alpha                90
_cell_angle_beta                 90
_cell_angle_gamma                120
_cell_volume                     7201.98
loop_
_atom_site_label
_atom_site_type_symbol
_atom_site_fract_x
_atom_site_fract_y
_atom_site_fract_z
O7 O 0.7361(4) 0.0010(6) 0.6848(8)
N8 N 0.6394(5) 0.0243(6) 0.5985(11)
N9 N 0.7353(5) 0.0302(5) 0.3923(10)
Zn1 Zn 0.68645(6) 0.99612(6) 0.54485(12)
Zn2 Zn 0.64325(6) 0.66344(6) 0.70246(11)
O1 O 0.6386(4) 0.9177(4) 0.5249(9)
O2 O 0.5983(4) 0.9306(4) 0.3515(8)
O3 O 0.6632(4) 0.5942(4) 0.5046(9)
O4 O 0.6134(4) 0.5853(4) 0.6821(9)
N1 N 0.5734(5) 0.8076(5) 0.4891(11)
H1 H 0.5783 0.8014 0.5717
C1 C 0.5291(6) 0.4535(6) 0.5632(14)
O5 O 0.5748(5) 0.7873(5) 0.2716(9)
N2 N 0.6372(5) 0.6901(5) 0.4205(10)
N3 N 0.5678(5) 0.4749(4) 0.6557(11)
H2 H 0.5582 0.4660 0.7386
N4 N 0.3849(4) 0.3606(5) 0.5985(11)
N5 N 0.4020(5) 0.3635(5) 0.7256(10)
O6 O 0.5392(4) 0.4674(5) 0.4454(9)
N6 N 0.6289(5) 0.6969(5) 0.5511(10)
C2 C 0.4740(5) 0.4160(5) 0.6072(11)
C3 C 0.6243(5) 0.5117(6) 0.6282(14)
H3 H 0.6434 0.5145 0.7130
C4 C 0.5555(5) 0.8451(6) 0.4612(13)
H4 H 0.5335 0.8335 0.3784
C5 C 0.5829(6) 0.7811(5) 0.3902(13)
C6 C 0.6006(6) 0.9015(5) 0.4428(12)
C7 C 0.6041(5) 0.7453(5) 0.4322(12)
C8 C 0.6217(6) 0.7198(5) 0.3505(13)
H5 H 0.6229 0.7226 0.2569
C9 C 0.4284(5) 0.3932(5) 0.5278(14)
H6 H 0.4283 0.3998 0.4359
C10 C 0.4545(5) 0.3957(5) 0.7312(12)
H7 H 0.4757 0.4038 0.8089
C11 C 0.6341(5) 0.5677(5) 0.6024(12)
C12 C 0.5203(7) 0.8467(8) 0.5736(16)
H8 H 0.4886 0.8108 0.5850
H9 H 0.5086 0.8726 0.5517
H10 H 0.5412 0.8577 0.6557
C13 C 0.6081(6) 0.7286(5) 0.5554(13)
H11 H 0.5973 0.7387 0.6341
C14 C 0.6487(7) 0.4901(8) 0.528(2)
H12 H 0.6421 0.4546 0.5564
H13 H 0.6876 0.5150 0.5215
H14 H 0.6321 0.4868 0.4413
Zn3 Zn 0.30967(8) 0.31355(6) 0.54485(12)
Zn4 Zn 0.35312(6) 0.32945(6) 0.87818(12)
Zn5 Zn 0.64300(8) 0.98022(6) 0.21152(12)
Zn6 Zn 0.66989(6) 0.64648(8) 0.36913(11)
O8 O 0.5977(6) 0.6701(4) 0.8379(9)
N7 N 0.7196(7) 0.6961(5) 0.7538(10)
O3_2 O 0.4058(4) 0.0690(6) 0.5046(9)
O4_2 O 0.4147(4) 0.0281(6) 0.6821(9)
C1_2 C 0.5465(6) 0.0756(8) 0.5632(14)
N3_2 N 0.5251(4) 0.0929(6) 0.6557(11)
H2_2 H 0.5340 0.0922 0.7386
N5_2 N 0.6365(5) 0.0385(7) 0.7256(10)
O6_2 O 0.5326(5) 0.0718(6) 0.4454(9)
C2_2 C 0.5840(5) 0.0580(7) 0.6072(11)
C3_2 C 0.4883(6) 0.1126(8) 0.6282(14)
H3_2 H 0.4855 0.1289 0.7130
C9_2 C 0.6068(5) 0.0352(7) 0.5278(14)
H6_2 H 0.6002 0.0285 0.4359
C10_2 C 0.6043(5) 0.0588(7) 0.7312(12)
H7_2 H 0.5962 0.0719 0.8089
C11_2 C 0.4323(5) 0.0664(7) 0.6024(12)
C14_2 C 0.5099(8) 0.1586(11) 0.528(2)
H12_2 H 0.5454 0.1875 0.5564
H13_2 H 0.4850 0.1726 0.5215
H14_2 H 0.5132 0.1453 0.4413
Zn4_2 Zn 0.67055(6) 0.02366(8) 0.87818(12)
Zn6_2 Zn 0.35352(8) 0.02342(10) 0.36913(11)
N7_2 N 0.3039(5) 0.0234(9) 0.7538(10)
Zn1_2 Zn 0.00388(6) 0.69033(8) 0.54485(12)
Zn2_2 Zn 0.33656(6) 0.97981(8) 0.70246(11)
O1_2 O 0.0823(4) 0.7209(6) 0.5249(9)
O2_2 O 0.0694(4) 0.6677(6) 0.3515(8)
N1_2 N 0.1924(5) 0.7658(7) 0.4891(11)
H1_2 H 0.1986 0.7769 0.5717
O5_2 O 0.2127(5) 0.7875(7) 0.2716(9)
N2_2 N 0.3099(5) 0.9471(7) 0.4205(10)
N6_2 N 0.3031(5) 0.9320(7) 0.5511(10)
C4_2 C 0.1549(6) 0.7104(8) 0.4612(13)
H4_2 H 0.1665 0.7000 0.3784
C5_2 C 0.2189(5) 0.8018(8) 0.3902(13)
C6_2 C 0.0985(5) 0.6991(8) 0.4428(12)
C7_2 C 0.2547(5) 0.8588(7) 0.4322(12)
C8_2 C 0.2802(5) 0.9019(8) 0.3505(13)
H5_2 H 0.2774 0.9003 0.2569
C12_2 C 0.1533(8) 0.6736(11) 0.5736(16)
H8_2 H 0.1892 0.6778 0.5850
H9_2 H 0.1274 0.6360 0.5517
H10_2 H 0.1423 0.6835 0.6557
C13_2 C 0.2714(5) 0.8795(8) 0.5554(13)
H11_2 H 0.2613 0.8586 0.6341
Zn5_2 Zn 0.01978(6) 0.66279(10) 0.21152(12)
O8_2 O 0.3299(4) 0.9275(7) 0.8379(9)
O7_2 O 0.9990(6) 0.7350(7) 0.6848(8)
N8_2 N 0.9757(6) 0.6151(8) 0.5985(11)
N9_2 N 0.9698(5) 0.7052(7) 0.3923(10)
Zn2_3 Zn 0.02019(8) 0.35675(6) 0.70246(11)
O1_3 O 0.2791(6) 0.3614(4) 0.5249(9)
O2_3 O 0.3323(6) 0.4017(4) 0.3515(8)
N1_3 N 0.2342(7) 0.4266(5) 0.4891(11)
H1_3 H 0.2231 0.4217 0.5717
O5_3 O 0.2125(7) 0.4252(5) 0.2716(9)
N2_3 N 0.0529(7) 0.3628(5) 0.4205(10)
N6_3 N 0.0680(7) 0.3711(5) 0.5511(10)
C4_3 C 0.2896(8) 0.4445(5) 0.4612(13)
H4_3 H 0.3000 0.4665 0.3784
C5_3 C 0.1982(8) 0.4171(6) 0.3902(13)
C6_3 C 0.3009(8) 0.3994(6) 0.4428(12)
C7_3 C 0.1412(7) 0.3959(5) 0.4322(12)
C8_3 C 0.0981(8) 0.3783(6) 0.3505(13)
H5_3 H 0.0997 0.3771 0.2569
C12_3 C 0.3264(11) 0.4797(7) 0.5736(16)
H8_3 H 0.3222 0.5114 0.5850
H9_3 H 0.3640 0.4914 0.5517
H10_3 H 0.3165 0.4588 0.6557
C13_3 C 0.1205(8) 0.3919(6) 0.5554(13)
H11_3 H 0.1414 0.4027 0.6341
Zn5_3 Zn 0.33721(10) 0.35700(8) 0.21152(12)
O7_3 O 0.2650(7) 0.2639(4) 0.6848(8)
O8_3 O 0.0725(7) 0.4023(6) 0.8379(9)
N9_3 N 0.2948(7) 0.2647(5) 0.3923(10)
O3_3 O 0.9310(6) 0.3368(4) 0.5046(9)
O4_3 O 0.9719(6) 0.3866(4) 0.6821(9)
C1_3 C 0.9244(8) 0.4709(6) 0.5632(14)
N3_3 N 0.9071(6) 0.4322(5) 0.6557(11)
H2_3 H 0.9078 0.4418 0.7386
N5_3 N 0.9615(7) 0.5980(5) 0.7256(10)
O6_3 O 0.9282(6) 0.4608(4) 0.4454(9)
C2_3 C 0.9420(7) 0.5260(5) 0.6072(11)
C3_3 C 0.8874(8) 0.3757(5) 0.6282(14)
H3_3 H 0.8711 0.3566 0.7130
C9_3 C 0.9648(7) 0.5716(5) 0.5278(14)
H6_3 H 0.9715 0.5717 0.4359
C10_3 C 0.9412(7) 0.5455(5) 0.7312(12)
H7_3 H 0.9281 0.5243 0.8089
C11_3 C 0.9336(7) 0.3659(5) 0.6024(12)
C14_3 C 0.8414(11) 0.3513(7) 0.528(2)
H12_3 H 0.8125 0.3579 0.5564
H13_3 H 0.8274 0.3124 0.5215
H14_3 H 0.8547 0.3679 0.4413
Zn4_3 Zn 0.97634(8) 0.64688(6) 0.87818(12)
Zn6_3 Zn 0.97658(10) 0.33011(6) 0.36913(11)
N7_3 N 0.9766(9) 0.2804(7) 0.7538(10)
O7_4 O 0.4027(4) 0.3344(6) 0.0182(8)
O8_4 O 0.2643(6) 0.0035(4) 0.1713(9)
N7_4 N 0.3862(7) 0.0295(5) 0.0872(10)
O1_4 O 0.3053(4) 0.2510(4) 0.8582(9)
N1_4 N 0.2401(5) 0.1409(5) 0.8224(11)
H1_4 H 0.2450 0.1347 0.9050
O5_4 O 0.2415(5) 0.1206(5) 0.6049(9)
N6_4 N 0.2956(5) 0.0302(5) 0.8844(10)
C4_4 C 0.2222(5) 0.1784(6) 0.7945(13)
H4_4 H 0.2002 0.1668 0.7117
C5_4 C 0.2496(6) 0.1144(5) 0.7235(13)
C6_4 C 0.2673(6) 0.2348(5) 0.7761(12)
C7_4 C 0.2708(5) 0.0786(5) 0.7655(12)
C8_4 C 0.2884(6) 0.0531(5) 0.6838(13)
H5_4 H 0.2896 0.0559 0.5902
C12_4 C 0.1870(7) 0.1800(8) 0.9069(16)
H8_4 H 0.1553 0.1441 0.9183
H9_4 H 0.1753 0.2059 0.8850
H10_4 H 0.2079 0.1910 0.9890
C13_4 C 0.2748(6) 0.0619(5) 0.8887(13)
H11_4 H 0.2640 0.0720 0.9674
N8_3 N 0.3061(5) 0.3576(6) 0.9318(11)
Zn2_4 Zn 0.30992(6) 0.99677(6) 0.03579(11)
O4_4 O 0.2801(4) 0.9186(4) 0.0154(9)
H2_4 H 0.2249 0.7993 0.0719
N5_4 N 0.0687(5) 0.6968(5) 0.0589(10)
H3_4 H 0.3101 0.8478 0.0463
C10_4 C 0.1212(5) 0.7290(5) 0.0645(12)
H7_4 H 0.1424 0.7371 0.1422
C1_4 C 0.1958(6) 0.7868(6) 0.8965(14)
N3_4 N 0.2345(5) 0.8082(4) 0.9890(11)
N4_2 N 0.0516(4) 0.6939(5) 0.9318(11)
O6_4 O 0.2059(4) 0.8007(5) 0.7787(9)
C2_4 C 0.1407(5) 0.7493(5) 0.9405(11)
C3_4 C 0.2910(5) 0.8450(6) 0.9615(14)
C9_4 C 0.0951(5) 0.7265(5) 0.8611(14)
H6_4 H 0.0950 0.7331 0.7692
C11_4 C 0.3008(5) 0.9010(5) 0.9357(12)
C14_4 C 0.3154(7) 0.8234(8) 0.861(2)
H12_4 H 0.3088 0.7879 0.8897
H13_4 H 0.3543 0.8483 0.8548
H14_4 H 0.2988 0.8201 0.7746
Zn2_5 Zn 0.00323(6) 0.31314(8) 0.03579(11)
O4_5 O 0.0814(4) 0.3614(6) 0.0154(9)
H2_5 H 0.2007 0.4255 0.0719
N5_5 N 0.3032(5) 0.3718(7) 0.0589(10)
H3_5 H 0.1522 0.4622 0.0463
C10_5 C 0.2710(5) 0.3921(7) 0.0645(12)
H7_5 H 0.2629 0.4052 0.1422
C1_5 C 0.2132(6) 0.4089(8) 0.8965(14)
N3_5 N 0.1918(4) 0.4262(6) 0.9890(11)
O6_5 O 0.1993(5) 0.4051(6) 0.7787(9)
C2_5 C 0.2507(5) 0.3913(7) 0.9405(11)
C3_5 C 0.1550(6) 0.4459(8) 0.9615(14)
C9_5 C 0.2735(5) 0.3685(7) 0.8611(14)
H6_5 H 0.2669 0.3618 0.7692
C11_5 C 0.0990(5) 0.3997(7) 0.9357(12)
C14_5 C 0.1766(8) 0.4919(11) 0.861(2)
H12_5 H 0.2121 0.5208 0.8897
H13_5 H 0.1517 0.5059 0.8548
H14_5 H 0.1799 0.4786 0.7746
O7_5 O 0.6656(6) 0.0684(7) 0.0182(8)
O8_5 O 0.9965(4) 0.2609(7) 0.1713(9)
N7_5 N 0.9705(5) 0.3568(9) 0.0872(10)
O1_5 O 0.7490(4) 0.0542(6) 0.8582(9)
N1_5 N 0.8591(5) 0.0991(7) 0.8224(11)
H1_5 H 0.8653 0.1102 0.9050
O5_5 O 0.8794(5) 0.1208(7) 0.6049(9)
N6_5 N 0.9698(5) 0.2653(7) 0.8844(10)
C4_5 C 0.8216(6) 0.0437(8) 0.7945(13)
H4_5 H 0.8332 0.0333 0.7117
C5_5 C 0.8856(5) 0.1351(8) 0.7235(13)
C6_5 C 0.7652(5) 0.0324(8) 0.7761(12)
C7_5 C 0.9214(5) 0.1921(7) 0.7655(12)
C8_5 C 0.9469(5) 0.2352(8) 0.6838(13)
H5_5 H 0.9441 0.2336 0.5902
C12_5 C 0.8200(8) 0.0069(11) 0.9069(16)
H8_5 H 0.8559 0.0111 0.9183
H10_5 H 0.8090 0.0168 0.9890
C13_5 C 0.9381(5) 0.2128(8) 0.8887(13)
H11_5 H 0.9280 0.1919 0.9674
H9_5 H 0.7941 0.9693 0.8850
N8_4 N 0.6424(6) 0.9484(8) 0.9318(11)
H9_6 H 0.0307 0.8247 0.8850
Zn2_6 Zn 0.68686(8) 0.69008(6) 0.03579(11)
O4_6 O 0.6386(6) 0.7199(4) 0.0154(9)
H2_6 H 0.5745 0.7751 0.0719
N5_6 N 0.6282(7) 0.9313(5) 0.0589(10)
H3_6 H 0.5378 0.6899 0.0463
C10_6 C 0.6079(7) 0.8788(5) 0.0645(12)
H7_6 H 0.5948 0.8576 0.1422
O7_6 O 0.9316(7) 0.5973(4) 0.0182(8)
O8_6 O 0.7391(7) 0.7357(6) 0.1713(9)
N7_6 N 0.6432(9) 0.6138(7) 0.0872(10)
O1_6 O 0.9458(6) 0.6947(4) 0.8582(9)
N1_6 N 0.9009(7) 0.7599(5) 0.8224(11)
H1_6 H 0.8898 0.7550 0.9050
C1_6 C 0.5911(8) 0.8042(6) 0.8965(14)
O5_6 O 0.8792(7) 0.7585(5) 0.6049(9)
N3_6 N 0.5738(6) 0.7655(5) 0.9890(11)
O6_6 O 0.5949(6) 0.7941(4) 0.7787(9)
N6_6 N 0.7347(7) 0.7044(5) 0.8844(10)
C2_6 C 0.6087(7) 0.8593(5) 0.9405(11)
C3_6 C 0.5541(8) 0.7090(5) 0.9615(14)
C4_6 C 0.9563(8) 0.7778(5) 0.7945(13)
H4_6 H 0.9667 0.7998 0.7117
C5_6 C 0.8649(8) 0.7504(6) 0.7235(13)
C6_6 C 0.9676(8) 0.7327(6) 0.7761(12)
C7_6 C 0.8079(7) 0.7292(5) 0.7655(12)
C8_6 C 0.7648(8) 0.7116(6) 0.6838(13)
H5_6 H 0.7664 0.7104 0.5902
C9_6 C 0.6315(7) 0.9049(5) 0.8611(14)
H6_6 H 0.6382 0.9050 0.7692
C11_6 C 0.6003(7) 0.6992(5) 0.9357(12)
C12_6 C 0.9931(11) 0.8130(7) 0.9069(16)
H8_6 H 0.9889 0.8447 0.9183
H10_6 H 0.9832 0.7921 0.9890
C13_6 C 0.7872(8) 0.7252(6) 0.8887(13)
H11_6 H 0.8081 0.7360 0.9674
C14_6 C 0.5081(11) 0.6846(7) 0.861(2)
H12_6 H 0.4792 0.6912 0.8897
H13_6 H 0.4941 0.6457 0.8548
H14_6 H 0.5214 0.7012 0.7746
H13_7 H 0.0209 0.1817 0.1882
O1_7 O 0.9719(4) 0.5844(4) 0.1916(9)
O4_7 O 0.9467(4) 0.2520(4) 0.3488(9)
N1_7 N 0.9067(5) 0.4743(5) 0.1558(11)
H1_7 H 0.9116 0.4681 0.2384
C1_7 C 0.8624(6) 0.1202(6) 0.2299(14)
N3_7 N 0.9011(5) 0.1416(4) 0.3224(11)
H2_7 H 0.8915 0.1327 0.4053
N4_3 N 0.7182(4) 0.0273(5) 0.2652(11)
O6_7 O 0.8725(4) 0.1341(5) 0.1121(9)
N6_7 N 0.9622(5) 0.3636(5) 0.2178(10)
C2_7 C 0.8073(5) 0.0827(5) 0.2739(11)
C3_7 C 0.9576(5) 0.1784(6) 0.2949(14)
H3_7 H 0.9767 0.1812 0.3797
C4_7 C 0.8888(5) 0.5118(6) 0.1279(13)
H4_7 H 0.8668 0.5002 0.0451
C5_7 C 0.9162(6) 0.4478(5) 0.0569(13)
C6_7 C 0.9339(6) 0.5682(5) 0.1095(12)
C7_7 C 0.9374(5) 0.4120(5) 0.0989(12)
C8_7 C 0.9550(6) 0.3865(5) 0.0172(13)
C9_7 C 0.7617(5) 0.0599(5) 0.1945(14)
H6_7 H 0.7616 0.0665 0.1026
C10_7 C 0.7878(5) 0.0624(5) 0.3979(12)
H7_7 H 0.8090 0.0705 0.4756
C11_7 C 0.9674(5) 0.2344(5) 0.2691(12)
C12_7 C 0.8536(7) 0.5134(8) 0.2403(16)
H8_7 H 0.8219 0.4775 0.2517
H9_7 H 0.8419 0.5393 0.2184
H10_7 H 0.8745 0.5244 0.3224
C13_7 C 0.9414(6) 0.3953(5) 0.2221(13)
H11_7 H 0.9306 0.4054 0.3008
C14_7 C 0.9820(7) 0.1568(8) 0.195(2)
H12_7 H 0.9754 0.1213 0.2231
H14_7 H 0.9654 0.1535 0.1080
N8_5 N 0.9727(5) 0.6910(6) 0.2652(11)
O5_7 O 0.9081(5) 0.4540(5) 0.9383(9)
H5_7 H 0.9562 0.3893 0.9236
O1_8 O 0.4156(4) 0.3876(6) 0.1916(9)
O4_8 O 0.7480(4) 0.6948(6) 0.3488(9)
N1_8 N 0.5257(5) 0.4325(7) 0.1558(11)
H1_8 H 0.5319 0.4436 0.2384
C1_8 C 0.8798(6) 0.7423(8) 0.2299(14)
N3_8 N 0.8584(4) 0.7596(6) 0.3224(11)
H2_8 H 0.8673 0.7589 0.4053
O6_8 O 0.8659(5) 0.7385(6) 0.1121(9)
N6_8 N 0.6364(5) 0.5987(7) 0.2178(10)
C2_8 C 0.9173(5) 0.7247(7) 0.2739(11)
C3_8 C 0.8216(6) 0.7793(8) 0.2949(14)
H3_8 H 0.8188 0.7956 0.3797
C4_8 C 0.4882(6) 0.3771(8) 0.1279(13)
H4_8 H 0.4998 0.3667 0.0451
C5_8 C 0.5522(5) 0.4685(8) 0.0569(13)
C6_8 C 0.4318(5) 0.3658(8) 0.1095(12)
C7_8 C 0.5880(5) 0.5255(7) 0.0989(12)
C8_8 C 0.6135(5) 0.5686(8) 0.0172(13)
C9_8 C 0.9401(5) 0.7019(7) 0.1945(14)
H6_8 H 0.9335 0.6952 0.1026
C10_8 C 0.9376(5) 0.7255(7) 0.3979(12)
H7_8 H 0.9295 0.7386 0.4756
C11_8 C 0.7656(5) 0.7331(7) 0.2691(12)
C12_8 C 0.4866(8) 0.3403(11) 0.2403(16)
H8_8 H 0.5225 0.3445 0.2517
H9_8 H 0.4607 0.3027 0.2184
H10_8 H 0.4756 0.3502 0.3224
C13_8 C 0.6047(5) 0.5462(8) 0.2221(13)
H11_8 H 0.5946 0.5253 0.3008
C14_8 C 0.8432(8) 0.8253(11) 0.195(2)
H12_8 H 0.8787 0.8542 0.2231
H13_8 H 0.8183 0.8393 0.1882
H14_8 H 0.8465 0.8120 0.1080
N8_6 N 0.3090(6) 0.2818(8) 0.2652(11)
O5_8 O 0.5460(5) 0.4542(7) 0.9383(9)
H5_8 H 0.6107 0.5670 0.9236
O1_9 O 0.6124(6) 0.0281(4) 0.1916(9)
O4_9 O 0.3052(6) 0.0533(4) 0.3488(9)
N1_9 N 0.5675(7) 0.0933(5) 0.1558(11)
H1_9 H 0.5564 0.0884 0.2384
C1_9 C 0.2577(8) 0.1376(6) 0.2299(14)
N3_9 N 0.2404(6) 0.0989(5) 0.3224(11)
H2_9 H 0.2411 0.1085 0.4053
O6_9 O 0.2615(6) 0.1275(4) 0.1121(9)
N6_9 N 0.4013(7) 0.0378(5) 0.2178(10)
C2_9 C 0.2753(7) 0.1927(5) 0.2739(11)
C3_9 C 0.2207(8) 0.0424(5) 0.2949(14)
H3_9 H 0.2044 0.0233 0.3797
C4_9 C 0.6229(8) 0.1112(5) 0.1279(13)
H4_9 H 0.6333 0.1332 0.0451
C5_9 C 0.5315(8) 0.0838(6) 0.0569(13)
C6_9 C 0.6342(8) 0.0661(6) 0.1095(12)
C7_9 C 0.4745(7) 0.0626(5) 0.0989(12)
C8_9 C 0.4314(8) 0.0450(6) 0.0172(13)
C9_9 C 0.2981(7) 0.2383(5) 0.1945(14)
H6_9 H 0.3048 0.2384 0.1026
C10_9 C 0.2745(7) 0.2122(5) 0.3979(12)
H7_9 H 0.2614 0.1910 0.4756
C11_9 C 0.2669(7) 0.0326(5) 0.2691(12)
C12_9 C 0.6597(11) 0.1464(7) 0.2403(16)
H8_9 H 0.6555 0.1781 0.2517
H9_9 H 0.6973 0.1581 0.2184
H10_9 H 0.6498 0.1255 0.3224
C13_9 C 0.4538(8) 0.0586(6) 0.2221(13)
H11_9 H 0.4747 0.0694 0.3008
C14_9 C 0.1747(11) 0.0180(7) 0.195(2)
H12_9 H 0.1458 0.0246 0.2231
H14_9 H 0.1880 0.0346 0.1080
O5_9 O 0.5458(7) 0.0919(5) 0.9383(9)
H5_9 H 0.4330 0.0438 0.9236
H13_9 H 0.1607 0.9791 0.1882
loop_
_geom_bond_atom_site_label_1
_geom_bond_atom_site_label_2
_geom_bond_site_symmetry_1
_geom_bond_site_symmetry_2
Zn1 O1 1_555 1_555
Zn2 O4 1_555 1_555
O1 C6 1_555 1_555
O2 C6 1_555 1_555
O3 C11 1_555 1_555
O4 C11 1_555 1_555
N1 H1 1_555 1_555
C1 N3 1_555 1_555
O5 C5 1_555 1_555
N2 N6 1_555 1_555
N3 H2 1_555 1_555
N4 N5 1_555 1_555
N5 C10 1_555 1_555
O6 C1 1_555 1_555
N6 Zn2 1_555 1_555
C2 C1 1_555 1_555
C3 N3 1_555 1_555
H3 C3 1_555 1_555
C4 N1 1_555 1_555
H4 C4 1_555 1_555
C5 N1 1_555 1_555
C6 C4 1_555 1_555
C7 C5 1_555 1_555
C8 N2 1_555 1_555
H5 C8 1_555 1_555
C9 N4 1_555 1_555
H6 C9 1_555 1_555
C10 C2 1_555 1_555
H7 C10 1_555 1_555
C11 C3 1_555 1_555
C12 C4 1_555 1_555
H8 C12 1_555 1_555
H9 C12 1_555 1_555
H10 C12 1_555 1_555
C13 N6 1_555 1_555
H11 C13 1_555 1_555
C14 C3 1_555 1_555
H12 C14 1_555 1_555
H13 C14 1_555 1_555
H14 C14 1_555 1_555
Zn3 N4 1_555 1_555
Zn4 N5 1_555 1_555
Zn5 O2 1_555 1_555
Zn6 O3 1_555 1_555
O8 Zn2 1_555 1_555
N7 Zn2 1_555 1_555
N2 Zn6 1_555 1_555
C2 C9 1_555 1_555
C7 C8 1_555 1_555
C7 C13 1_555 1_555
O3_2 C11_2 1_555 1_555
O4_2 C11_2 1_555 1_555
C1_2 N3_2 1_555 1_555
N3_2 H2_2 1_555 1_555
N8 N5_2 1_555 1_555
N5_2 C10_2 1_555 1_555
O6_2 C1_2 1_555 1_555
C2_2 C1_2 1_555 1_555
C3_2 N3_2 1_555 1_555
H3_2 C3_2 1_555 1_555
C9_2 N8 1_555 1_555
H6_2 C9_2 1_555 1_555
C10_2 C2_2 1_555 1_555
H7_2 C10_2 1_555 1_555
C11_2 C3_2 1_555 1_555
C14_2 C3_2 1_555 1_555
H12_2 C14_2 1_555 1_555
H13_2 C14_2 1_555 1_555
H14_2 C14_2 1_555 1_555
Zn4_2 N5_2 1_555 1_555
Zn6_2 O3_2 1_555 1_555
C2_2 C9_2 1_555 1_555
Zn1_2 O1_2 1_555 1_555
O1_2 C6_2 1_555 1_555
O2_2 C6_2 1_555 1_555
N1_2 H1_2 1_555 1_555
O5_2 C5_2 1_555 1_555
N2_2 N6_2 1_555 1_555
N6_2 Zn2_2 1_555 1_555
C4_2 N1_2 1_555 1_555
H4_2 C4_2 1_555 1_555
C5_2 N1_2 1_555 1_555
C6_2 C4_2 1_555 1_555
C7_2 C5_2 1_555 1_555
C8_2 N2_2 1_555 1_555
H5_2 C8_2 1_555 1_555
C12_2 C4_2 1_555 1_555
H8_2 C12_2 1_555 1_555
H9_2 C12_2 1_555 1_555
H10_2 C12_2 1_555 1_555
C13_2 N6_2 1_555 1_555
H11_2 C13_2 1_555 1_555
Zn5_2 O2_2 1_555 1_555
O8_2 Zn2_2 1_555 1_555
C7_2 C8_2 1_555 1_555
C7_2 C13_2 1_555 1_555
Zn3 O1_3 1_555 1_555
O1_3 C6_3 1_555 1_555
O2_3 C6_3 1_555 1_555
N1_3 H1_3 1_555 1_555
O5_3 C5_3 1_555 1_555
N2_3 N6_3 1_555 1_555
N6_3 Zn2_3 1_555 1_555
C4_3 N1_3 1_555 1_555
H4_3 C4_3 1_555 1_555
C5_3 N1_3 1_555 1_555
C6_3 C4_3 1_555 1_555
C7_3 C5_3 1_555 1_555
C8_3 N2_3 1_555 1_555
H5_3 C8_3 1_555 1_555
C12_3 C4_3 1_555 1_555
H8_3 C12_3 1_555 1_555
H9_3 C12_3 1_555 1_555
H10_3 C12_3 1_555 1_555
C13_3 N6_3 1_555 1_555
H11_3 C13_3 1_555 1_555
Zn5_3 O2_3 1_555 1_555
O7_3 Zn3 1_555 1_555
O8_3 Zn2_3 1_555 1_555
N9_3 Zn3 1_555 1_555
C7_3 C8_3 1_555 1_555
C7_3 C13_3 1_555 1_555
O3_3 C11_3 1_555 1_555
O4_3 C11_3 1_555 1_555
C1_3 N3_3 1_555 1_555
N3_3 H2_3 1_555 1_555
N8_2 N5_3 1_555 1_555
N5_3 C10_3 1_555 1_555
O6_3 C1_3 1_555 1_555
C2_3 C1_3 1_555 1_555
C3_3 N3_3 1_555 1_555
H3_3 C3_3 1_555 1_555
C9_3 N8_2 1_555 1_555
H6_3 C9_3 1_555 1_555
C10_3 C2_3 1_555 1_555
H7_3 C10_3 1_555 1_555
C11_3 C3_3 1_555 1_555
C14_3 C3_3 1_555 1_555
H12_3 C14_3 1_555 1_555
H13_3 C14_3 1_555 1_555
H14_3 C14_3 1_555 1_555
Zn4_3 N5_3 1_555 1_555
Zn6_3 O3_3 1_555 1_555
C2_3 C9_3 1_555 1_555
Zn4 O1_4 1_555 1_555
O1_4 C6_4 1_555 1_555
O7_3 C6_4 1_555 1_555
N1_4 H1_4 1_555 1_555
O5_4 C5_4 1_555 1_555
N7_2 N6_4 1_555 1_555
C4_4 N1_4 1_555 1_555
H4_4 C4_4 1_555 1_555
C5_4 N1_4 1_555 1_555
C6_4 C4_4 1_555 1_555
C7_4 C5_4 1_555 1_555
C8_4 N7_2 1_555 1_555
H5_4 C8_4 1_555 1_555
C12_4 C4_4 1_555 1_555
H8_4 C12_4 1_555 1_555
H9_4 C12_4 1_555 1_555
H10_4 C12_4 1_555 1_555
C13_4 N6_4 1_555 1_555
H11_4 C13_4 1_555 1_555
N8_3 Zn4 1_555 1_555
C7_4 C8_4 1_555 1_555
C7_4 C13_4 1_555 1_555
Zn2_4 O4_4 1_555 1_555
N5_4 C10_4 1_555 1_555
H7_4 C10_4 1_555 1_555
Zn5_2 N5_4 1_555 1_555
O8_2 C11_4 1_555 1_555
C1_4 N3_4 1_555 1_555
O6_4 C1_4 1_555 1_555
C2_4 C1_4 1_555 1_555
C3_4 N3_4 1_555 1_555
C9_4 N4_2 1_555 1_555
H6_4 C9_4 1_555 1_555
C11_4 C3_4 1_555 1_555
C14_4 C3_4 1_555 1_555
H12_4 C14_4 1_555 1_555
H13_4 C14_4 1_555 1_555
H14_4 C14_4 1_555 1_555
C2_4 C9_4 1_555 1_555
Zn2_5 O4_5 1_555 1_555
N5_5 C10_5 1_555 1_555
H7_5 C10_5 1_555 1_555
Zn5_3 N5_5 1_555 1_555
O8_3 C11_5 1_555 1_555
C1_5 N3_5 1_555 1_555
O6_5 C1_5 1_555 1_555
C2_5 C1_5 1_555 1_555
C3_5 N3_5 1_555 1_555
C9_5 N8_3 1_555 1_555
H6_5 C9_5 1_555 1_555
C11_5 C3_5 1_555 1_555
C14_5 C3_5 1_555 1_555
H12_5 C14_5 1_555 1_555
H13_5 C14_5 1_555 1_555
H14_5 C14_5 1_555 1_555
C2_5 C9_5 1_555 1_555
Zn4_2 O1_5 1_555 1_555
O1_5 C6_5 1_555 1_555
O7 C6_5 1_555 1_555
N1_5 H1_5 1_555 1_555
O5_5 C5_5 1_555 1_555
N7_3 N6_5 1_555 1_555
C4_5 N1_5 1_555 1_555
H4_5 C4_5 1_555 1_555
C5_5 N1_5 1_555 1_555
C6_5 C4_5 1_555 1_555
C7_5 C5_5 1_555 1_555
C8_5 N7_3 1_555 1_555
H5_5 C8_5 1_555 1_555
C12_5 C4_5 1_555 1_555
H8_5 C12_5 1_555 1_555
H10_5 C12_5 1_555 1_555
C13_5 N6_5 1_555 1_555
H11_5 C13_5 1_555 1_555
C7_5 C8_5 1_555 1_555
C7_5 C13_5 1_555 1_555
Zn2_6 O4_6 1_555 1_555
N5_6 C10_6 1_555 1_555
H7_6 C10_6 1_555 1_555
Zn5 N5_6 1_555 1_555
O8_6 Zn2_6 1_555 1_555
N7_6 Zn2_6 1_555 1_555
Zn4_3 O1_6 1_555 1_555
O1_6 C6_6 1_555 1_555
O7_2 C6_6 1_555 1_555
O8 C11_6 1_555 1_555
N1_6 H1_6 1_555 1_555
C1_6 N3_6 1_555 1_555
O5_6 C5_6 1_555 1_555
N7 N6_6 1_555 1_555
O6_6 C1_6 1_555 1_555
C2_6 C1_6 1_555 1_555
C3_6 N3_6 1_555 1_555
C4_6 N1_6 1_555 1_555
H4_6 C4_6 1_555 1_555
C5_6 N1_6 1_555 1_555
C6_6 C4_6 1_555 1_555
C7_6 C5_6 1_555 1_555
C8_6 N7 1_555 1_555
H5_6 C8_6 1_555 1_555
C9_6 N8_4 1_555 1_555
H6_6 C9_6 1_555 1_555
C11_6 C3_6 1_555 1_555
C12_6 C4_6 1_555 1_555
H8_6 C12_6 1_555 1_555
H10_6 C12_6 1_555 1_555
C13_6 N6_6 1_555 1_555
H11_6 C13_6 1_555 1_555
C14_6 C3_6 1_555 1_555
H12_6 C14_6 1_555 1_555
H13_6 C14_6 1_555 1_555
H14_6 C14_6 1_555 1_555
C2_6 C9_6 1_555 1_555
C7_6 C8_6 1_555 1_555
C7_6 C13_6 1_555 1_555
Zn6_3 O4_7 1_555 1_555
O1_7 C6_7 1_555 1_555
O7_6 C6_7 1_555 1_555
O8_5 C11_7 1_555 1_555
O4_7 C11_7 1_555 1_555
N1_7 H1_7 1_555 1_555
C1_7 N3_7 1_555 1_555
N7_5 N6_7 1_555 1_555
N3_7 H2_7 1_555 1_555
N4_3 N9 1_555 1_555
N9 C10_7 1_555 1_555
O6_7 C1_7 1_555 1_555
N6_7 Zn6_3 1_555 1_555
C2_7 C1_7 1_555 1_555
C3_7 N3_7 1_555 1_555
H3_7 C3_7 1_555 1_555
C4_7 N1_7 1_555 1_555
H4_7 C4_7 1_555 1_555
C5_7 N1_7 1_555 1_555
C6_7 C4_7 1_555 1_555
C7_7 C5_7 1_555 1_555
C8_7 N7_5 1_555 1_555
C9_7 N4_3 1_555 1_555
H6_7 C9_7 1_555 1_555
C10_7 C2_7 1_555 1_555
H7_7 C10_7 1_555 1_555
C11_7 C3_7 1_555 1_555
C12_7 C4_7 1_555 1_555
H8_7 C12_7 1_555 1_555
H9_7 C12_7 1_555 1_555
H10_7 C12_7 1_555 1_555
C13_7 N6_7 1_555 1_555
H11_7 C13_7 1_555 1_555
C14_7 C3_7 1_555 1_555
H12_7 C14_7 1_555 1_555
H14_7 C14_7 1_555 1_555
C2_7 C9_7 1_555 1_555
C7_7 C8_7 1_555 1_555
C7_7 C13_7 1_555 1_555
Zn5_3 O1_8 1_555 1_555
Zn6 O4_8 1_555 1_555
O1_8 C6_8 1_555 1_555
O7_4 C6_8 1_555 1_555
O8_6 C11_8 1_555 1_555
O4_8 C11_8 1_555 1_555
N1_8 H1_8 1_555 1_555
C1_8 N3_8 1_555 1_555
N7_6 N6_8 1_555 1_555
N3_8 H2_8 1_555 1_555
N8_5 N9_2 1_555 1_555
N9_2 C10_8 1_555 1_555
O6_8 C1_8 1_555 1_555
N6_8 Zn6 1_555 1_555
C2_8 C1_8 1_555 1_555
C3_8 N3_8 1_555 1_555
H3_8 C3_8 1_555 1_555
C4_8 N1_8 1_555 1_555
H4_8 C4_8 1_555 1_555
C5_8 N1_8 1_555 1_555
C6_8 C4_8 1_555 1_555
C7_8 C5_8 1_555 1_555
C8_8 N7_6 1_555 1_555
C9_8 N8_5 1_555 1_555
H6_8 C9_8 1_555 1_555
C10_8 C2_8 1_555 1_555
H7_8 C10_8 1_555 1_555
C11_8 C3_8 1_555 1_555
C12_8 C4_8 1_555 1_555
H8_8 C12_8 1_555 1_555
H9_8 C12_8 1_555 1_555
H10_8 C12_8 1_555 1_555
C13_8 N6_8 1_555 1_555
H11_8 C13_8 1_555 1_555
C14_8 C3_8 1_555 1_555
H12_8 C14_8 1_555 1_555
H13_8 C14_8 1_555 1_555
H14_8 C14_8 1_555 1_555
N8_6 Zn5_3 1_555 1_555
C2_8 C9_8 1_555 1_555
C7_8 C8_8 1_555 1_555
C7_8 C13_8 1_555 1_555
Zn6_2 O4_9 1_555 1_555
O1_9 C6_9 1_555 1_555
O7_5 C6_9 1_555 1_555
O8_4 C11_9 1_555 1_555
O4_9 C11_9 1_555 1_555
N1_9 H1_9 1_555 1_555
C1_9 N3_9 1_555 1_555
N7_4 N6_9 1_555 1_555
N3_9 H2_9 1_555 1_555
N8_6 N9_3 1_555 1_555
N9_3 C10_9 1_555 1_555
O6_9 C1_9 1_555 1_555
N6_9 Zn6_2 1_555 1_555
C2_9 C1_9 1_555 1_555
C3_9 N3_9 1_555 1_555
H3_9 C3_9 1_555 1_555
C4_9 N1_9 1_555 1_555
H4_9 C4_9 1_555 1_555
C5_9 N1_9 1_555 1_555
C6_9 C4_9 1_555 1_555
C7_9 C5_9 1_555 1_555
C8_9 N7_4 1_555 1_555
C9_9 N8_6 1_555 1_555
H6_9 C9_9 1_555 1_555
C10_9 C2_9 1_555 1_555
H7_9 C10_9 1_555 1_555
C11_9 C3_9 1_555 1_555
C12_9 C4_9 1_555 1_555
H8_9 C12_9 1_555 1_555
H9_9 C12_9 1_555 1_555
H10_9 C12_9 1_555 1_555
C13_9 N6_9 1_555 1_555
H11_9 C13_9 1_555 1_555
C14_9 C3_9 1_555 1_555
H12_9 C14_9 1_555 1_555
H14_9 C14_9 1_555 1_555
C2_9 C9_9 1_555 1_555
C7_9 C8_9 1_555 1_555
C7_9 C13_9 1_555 1_555

#END
