
###############################################################################
#
# This file contains modified crystal structure data generated from the
# MOF subset of the Cambridge Structural Database (CSD) v543 
# hosted by the Cambridge Crystallographic Data Centre (CCDC).
#
# This work is licensed under the Creative Commons
# Attribution-NonCommercial-ShareAlike 4.0 International License.
# To view a copy of this license, visit
# http://creativecommons.org/licenses/by-nc-sa/4.0/
# or send a letter to
# Creative Commons, PO Box 1866, Mountain View, CA 94042, USA.
#
# CIF created using the CSD Python API on 29 September 2022
# The structure has been converted into the P1 space group
# The structure has a 3D framework
# The original CSD entry VUXBIC is in the rhombohedral crystal system
# The original CSD entry VUXBIC is in a Sohncke space group
# The framework has been calculated to contain at least 10.0% void space
# The void calculation uses a probe of radius 1.32A, grid spacing 0.4
#
###############################################################################

data_VUXBIC
_chemical_formula_moiety         '(C126 H126 N54 O51 Zn13)n'
_symmetry_cell_setting           triclinic
_symmetry_space_group_name_H-M   'P 1'
_symmetry_Int_Tables_number      1
_space_group_name_Hall           'P 1'
loop_
_symmetry_equiv_pos_site_id
_symmetry_equiv_pos_as_xyz
1 x,y,z
_cell_length_a                   28.1471(4)
_cell_length_b                   28.1471(4)
_cell_length_c                   10.16708(14)
_cell_angle_alpha                90
_cell_angle_beta                 90
_cell_angle_gamma                120
_cell_volume                     6975.8
loop_
_atom_site_label
_atom_site_type_symbol
_atom_site_fract_x
_atom_site_fract_y
_atom_site_fract_z
Zn2 Zn 0.33849(3) 0.35762(3) 0.46671(6)
N1 N 0.6455(2) 0.6126(2) 0.3500(5)
N2 N 0.3070(2) 0.3602(2) 0.1880(5)
N3 N 0.6382(2) 0.5969(2) 0.4791(5)
N4 N 0.3041(2) 0.3729(2) 0.3167(5)
O1 O 0.41793(18) 0.38594(19) 0.4467(4)
N5 N 0.5297(2) 0.4269(2) 0.4113(5)
H1 H 0.5373 0.4366 0.4942
O2 O 0.08130(19) 0.3643(2) 0.2796(5)
O3 O 0.0737(2) 0.40557(19) 0.0989(4)
C1 C 0.4901(3) 0.3705(3) 0.3797(6)
H2 H 0.5011 0.3602 0.2957
C2 C 0.4331(2) 0.3632(2) 0.3636(6)
C3 C 0.4882(3) 0.3328(3) 0.4880(8)
H3 H 0.5252 0.3388 0.5034
H4 H 0.4638 0.2946 0.4620
H5 H 0.4744 0.3406 0.5689
C4 C 0.6063(3) 0.5433(3) 0.4852(6)
H6 H 0.5953 0.5224 0.5640
C5 C 0.5554(3) 0.4648(3) 0.3159(6)
C6 C 0.5911(3) 0.5217(3) 0.3586(6)
C7 C 0.1557(3) 0.4525(3) 0.2296(7)
H7 H 0.1513 0.4664 0.3165
C8 C 0.0992(2) 0.4034(2) 0.1973(6)
C9 C 0.2527(3) 0.3967(3) 0.1991(6)
C10 C 0.2713(3) 0.3939(3) 0.3234(6)
H8 H 0.2619 0.4055 0.4022
C11 C 0.1769(4) 0.5002(4) 0.1388(10)
H9 H 0.1831 0.4895 0.0517
H10 H 0.2115 0.5302 0.1731
H11 H 0.1500 0.5125 0.1318
O4 O 0.2048(2) 0.4174(3) 0.0396(5)
N6 N 0.1949(2) 0.4336(2) 0.2524(5)
H12 H 0.2054 0.4332 0.3338
C12 C 0.2156(3) 0.4169(3) 0.1571(6)
C13 C 0.2769(3) 0.3745(3) 0.1164(6)
H13 H 0.2723 0.3705 0.0237
C14 C 0.6173(3) 0.5674(3) 0.2778(6)
H14 H 0.6155 0.5666 0.1844
O5 O 0.5486(2) 0.4517(2) 0.1979(5)
O6 O 0.40339(19) 0.33208(19) 0.2712(4)
Zn3 Zn 0.68803(3) 0.69062(3) 0.29843(6)
Zn4 Zn 0.00260(4) 0.31197(3) 0.29843(6)
Zn5 Zn 0.66926(4) 0.64531(3) 0.63177(6)
Zn6 Zn 0.35246(4) 0.32818(3) 0.13338(6)
N8 N 0.3065(2) 0.2801(3) 0.5213(5)
O8 O 0.33459(19) 0.40464(27) 0.6045(4)
Zn1 Zn 0.02136(3) 0.35729(3) 0.96510(6)
N9 N 0.0698(2) 0.3746(3) 0.8124(5)
N7 N 0.9788(2) 0.2793(2) 0.0167(5)
O7 O 0.9690(2) 0.38367(28) 0.9463(5)
N1_2 N 0.3874(2) 0.0329(3) 0.3500(5)
N3_2 N 0.4031(2) 0.0413(3) 0.4791(5)
O1_2 O 0.61406(19) 0.03199(26) 0.4467(4)
N5_2 N 0.5731(2) 0.1028(3) 0.4113(5)
H1_2 H 0.5634 0.1007 0.4942
C1_2 C 0.6295(3) 0.1196(4) 0.3797(6)
H2_2 H 0.6398 0.1409 0.2957
C2_2 C 0.6368(2) 0.0699(3) 0.3636(6)
C3_2 C 0.6672(3) 0.1554(4) 0.4880(8)
H3_2 H 0.6612 0.1864 0.5034
H4_2 H 0.7054 0.1692 0.4620
H5_2 H 0.6594 0.1338 0.5689
C4_2 C 0.4567(3) 0.0630(4) 0.4852(6)
H6_2 H 0.4776 0.0729 0.5640
C5_2 C 0.5352(3) 0.0906(4) 0.3159(6)
C6_2 C 0.4783(3) 0.0694(4) 0.3586(6)
C14_2 C 0.4326(3) 0.0499(4) 0.2778(6)
H14_2 H 0.4334 0.0489 0.1844
O5_2 O 0.5483(2) 0.0969(3) 0.1979(5)
O6_2 O 0.66792(19) 0.07131(27) 0.2712(4)
Zn5_2 Zn 0.35469(3) 0.02396(5) 0.63177(6)
Zn6_2 Zn 0.67182(3) 0.02429(5) 0.13338(6)
N8_2 N 0.7199(3) 0.0263(4) 0.5213(5)
Zn2_2 Zn 0.64238(3) 0.98087(4) 0.46671(6)
N2_2 N 0.6398(2) 0.9468(3) 0.1880(5)
N4_2 N 0.6271(2) 0.9312(3) 0.3167(5)
O2_2 O 0.6357(2) 0.71700(28) 0.2796(5)
O3_2 O 0.59443(19) 0.66813(28) 0.0989(4)
C7_2 C 0.5475(3) 0.7032(4) 0.2296(7)
H7_2 H 0.5336 0.6849 0.3165
C8_2 C 0.5966(2) 0.6958(3) 0.1973(6)
C9_2 C 0.6033(3) 0.8560(4) 0.1991(6)
C10_2 C 0.6061(3) 0.8774(4) 0.3234(6)
H8_2 H 0.5945 0.8564 0.4022
C11_2 C 0.4998(4) 0.6767(6) 0.1388(10)
H9_2 H 0.5105 0.6936 0.0517
H10_2 H 0.4698 0.6813 0.1731
H11_2 H 0.4875 0.6375 0.1318
O4_2 O 0.5826(3) 0.7874(4) 0.0396(5)
N6_2 N 0.5664(2) 0.7613(3) 0.2524(5)
H12_2 H 0.5668 0.7722 0.3338
C12_2 C 0.5831(3) 0.7987(4) 0.1571(6)
C13_2 C 0.6255(3) 0.9024(4) 0.1164(6)
H13_2 H 0.6295 0.9018 0.0237
Zn3_2 Zn 0.30938(3) 0.99740(4) 0.29843(6)
N7_2 N 0.7207(2) 0.6996(3) 0.0167(5)
O8_2 O 0.59536(27) 0.92994(33) 0.6045(4)
Zn1_2 Zn 0.64271(3) 0.66407(4) 0.96510(6)
N9_2 N 0.6254(3) 0.6951(4) 0.8124(5)
O7_2 O 0.61633(28) 0.58537(34) 0.9463(5)
N7_3 N 0.3004(3) 0.0212(2) 0.0167(5)
O7_3 O 0.41463(34) 0.0310(2) 0.9463(5)
Zn2_3 Zn 0.01913(4) 0.66151(3) 0.46671(6)
N2_3 N 0.0532(3) 0.6930(2) 0.1880(5)
N4_3 N 0.0688(3) 0.6959(2) 0.3167(5)
O2_3 O 0.28300(28) 0.91870(19) 0.2796(5)
O3_3 O 0.33187(28) 0.9263(2) 0.0989(4)
C7_3 C 0.2968(4) 0.8443(3) 0.2296(7)
H7_3 H 0.3151 0.8487 0.3165
C8_3 C 0.3042(3) 0.9008(2) 0.1973(6)
C9_3 C 0.1440(4) 0.7473(3) 0.1991(6)
C10_3 C 0.1226(4) 0.7287(3) 0.3234(6)
H8_3 H 0.1436 0.7381 0.4022
C11_3 C 0.3233(6) 0.8231(4) 0.1388(10)
H9_3 H 0.3064 0.8169 0.0517
H10_3 H 0.3187 0.7885 0.1731
H11_3 H 0.3625 0.8500 0.1318
O4_3 O 0.2126(4) 0.7952(2) 0.0396(5)
N6_3 N 0.2387(3) 0.8051(2) 0.2524(5)
H12_3 H 0.2278 0.7946 0.3338
C12_3 C 0.2013(4) 0.7844(3) 0.1571(6)
C13_3 C 0.0976(4) 0.7231(3) 0.1164(6)
H13_3 H 0.0982 0.7277 0.0237
O8_3 O 0.07006(33) 0.66541(19) 0.6045(4)
Zn1_3 Zn 0.33593(4) 0.97864(3) 0.96510(6)
N9_3 N 0.3049(4) 0.9302(2) 0.8124(5)
N1_3 N 0.9671(3) 0.3545(2) 0.3500(5)
N3_3 N 0.9587(3) 0.3618(2) 0.4791(5)
O1_3 O 0.96801(26) 0.58207(18) 0.4467(4)
N5_3 N 0.8972(3) 0.4703(2) 0.4113(5)
H1_3 H 0.8993 0.4627 0.4942
C1_3 C 0.8804(4) 0.5099(3) 0.3797(6)
H2_3 H 0.8591 0.4989 0.2957
C2_3 C 0.9301(3) 0.5669(2) 0.3636(6)
C3_3 C 0.8446(4) 0.5118(3) 0.4880(8)
H3_3 H 0.8136 0.4748 0.5034
H4_3 H 0.8308 0.5362 0.4620
H5_3 H 0.8662 0.5256 0.5689
C4_3 C 0.9370(4) 0.3937(3) 0.4852(6)
H6_3 H 0.9271 0.4047 0.5640
C5_3 C 0.9094(4) 0.4446(3) 0.3159(6)
C6_3 C 0.9306(4) 0.4089(3) 0.3586(6)
C14_3 C 0.9501(4) 0.3827(3) 0.2778(6)
H14_3 H 0.9511 0.3845 0.1844
O5_3 O 0.9031(3) 0.4514(2) 0.1979(5)
O6_3 O 0.92869(27) 0.59661(19) 0.2712(4)
Zn5_3 Zn 0.97604(5) 0.33074(4) 0.63177(6)
Zn6_3 Zn 0.97571(5) 0.64754(4) 0.13338(6)
N8_3 N 0.9737(4) 0.6935(2) 0.5213(5)
Zn2_4 Zn 0.00516(3) 0.69095(3) 0.80004(6)
N1_4 N 0.3122(2) 0.9459(2) 0.6833(5)
O1_4 O 0.08460(18) 0.71927(19) 0.7800(4)
N5_4 N 0.1964(2) 0.7602(2) 0.7446(5)
H1_4 H 0.2040 0.7699 0.8275
C1_4 C 0.1568(3) 0.7038(3) 0.7130(6)
H2_4 H 0.1678 0.6935 0.6290
C2_4 C 0.0998(2) 0.6965(2) 0.6969(6)
C3_4 C 0.1549(3) 0.6661(3) 0.8213(8)
H3_4 H 0.1919 0.6721 0.8367
H4_4 H 0.1305 0.6279 0.7953
H5_4 H 0.1411 0.6739 0.9022
C4_4 C 0.2730(3) 0.8766(3) 0.8185(6)
H6_4 H 0.2620 0.8557 0.8973
C5_4 C 0.2221(3) 0.7981(3) 0.6492(6)
C6_4 C 0.2578(3) 0.8550(3) 0.6919(6)
C14_4 C 0.2840(3) 0.9007(3) 0.6111(6)
H14_4 H 0.2822 0.8999 0.5177
O5_4 O 0.2153(2) 0.7850(2) 0.5312(5)
O8_4 O 0.00125(19) 0.73798(27) 0.9379(4)
N4_4 N 0.9708(2) 0.7062(2) 0.6500(5)
O2_4 O 0.74797(19) 0.6976(2) 0.6129(5)
O3_4 O 0.7404(2) 0.73890(19) 0.4322(4)
C7_4 C 0.8224(3) 0.7858(3) 0.5629(7)
H7_4 H 0.8180 0.7997 0.6498
C8_4 C 0.7659(2) 0.7367(2) 0.5306(6)
C9_4 C 0.9194(3) 0.7300(3) 0.5324(6)
C10_4 C 0.9380(3) 0.7272(3) 0.6567(6)
H8_4 H 0.9286 0.7388 0.7355
C11_4 C 0.8436(4) 0.8335(4) 0.4721(10)
H9_4 H 0.8498 0.8228 0.3850
H10_4 H 0.8782 0.8635 0.5064
H11_4 H 0.8167 0.8458 0.4651
O4_4 O 0.8715(2) 0.7507(3) 0.3729(5)
N6_4 N 0.8616(2) 0.7669(2) 0.5857(5)
H12_4 H 0.8721 0.7665 0.6671
C12_4 C 0.8823(3) 0.7502(3) 0.4904(6)
C13_4 C 0.9436(3) 0.7078(3) 0.4497(6)
H13_4 H 0.9390 0.7038 0.3570
N8_4 N 0.9731(2) 0.6135(3) 0.8547(5)
N9_4 N 0.7364(2) 0.7080(3) 0.1458(5)
Zn2_5 Zn 0.30905(3) 0.31420(4) 0.80004(6)
N1_5 N 0.0541(2) 0.3662(3) 0.6833(5)
N4_5 N 0.2938(2) 0.2645(3) 0.6500(5)
O1_5 O 0.28073(19) 0.36532(26) 0.7800(4)
N5_5 N 0.2398(2) 0.4361(3) 0.7446(5)
H1_5 H 0.2301 0.4340 0.8275
O2_5 O 0.3024(2) 0.05033(28) 0.6129(5)
O3_5 O 0.26110(19) 0.00146(28) 0.4322(4)
C1_5 C 0.2962(3) 0.4529(4) 0.7130(6)
H2_5 H 0.3065 0.4742 0.6290
C2_5 C 0.3035(2) 0.4032(3) 0.6969(6)
C3_5 C 0.3339(3) 0.4887(4) 0.8213(8)
H3_5 H 0.3279 0.5197 0.8367
H4_5 H 0.3721 0.5025 0.7953
H5_5 H 0.3261 0.4671 0.9022
C4_5 C 0.1234(3) 0.3963(4) 0.8185(6)
H6_5 H 0.1443 0.4062 0.8973
C5_5 C 0.2019(3) 0.4239(4) 0.6492(6)
C6_5 C 0.1450(3) 0.4027(4) 0.6919(6)
C7_5 C 0.2142(3) 0.0365(4) 0.5629(7)
H7_5 H 0.2003 0.0182 0.6498
C8_5 C 0.2633(2) 0.0291(3) 0.5306(6)
C9_5 C 0.2700(3) 0.1893(4) 0.5324(6)
C10_5 C 0.2728(3) 0.2107(4) 0.6567(6)
H8_5 H 0.2612 0.1897 0.7355
C11_5 C 0.1665(4) 0.0100(6) 0.4721(10)
H9_5 H 0.1772 0.0269 0.3850
H10_5 H 0.1365 0.0146 0.5064
O4_5 O 0.2493(3) 0.1207(4) 0.3729(5)
N6_5 N 0.2331(2) 0.0946(3) 0.5857(5)
H12_5 H 0.2335 0.1055 0.6671
C12_5 C 0.2498(3) 0.1320(4) 0.4904(6)
C13_5 C 0.2922(3) 0.2357(4) 0.4497(6)
H13_5 H 0.2962 0.2351 0.3570
C14_5 C 0.0993(3) 0.3832(4) 0.6111(6)
H14_5 H 0.1001 0.3822 0.5177
O5_5 O 0.2150(2) 0.4302(3) 0.5312(5)
N8_5 N 0.3865(3) 0.3597(4) 0.8547(5)
N9_5 N 0.2920(3) 0.0285(4) 0.1458(5)
O8_5 O 0.26202(27) 0.26328(33) 0.9379(4)
H11_5 H 0.1542 0.9708 0.4651
H11_6 H 0.0292 0.1833 0.4651
N4_6 N 0.7355(3) 0.0292(2) 0.6500(5)
O2_6 O 0.94967(28) 0.25203(19) 0.6129(5)
O3_6 O 0.99854(28) 0.2596(2) 0.4322(4)
C7_6 C 0.9635(4) 0.1776(3) 0.5629(7)
H7_6 H 0.9818 0.1820 0.6498
C8_6 C 0.9709(3) 0.2341(2) 0.5306(6)
C9_6 C 0.8107(4) 0.0806(3) 0.5324(6)
C10_6 C 0.7893(4) 0.0620(3) 0.6567(6)
H8_6 H 0.8103 0.0714 0.7355
C11_6 C 0.9900(6) 0.1564(4) 0.4721(10)
H9_6 H 0.9731 0.1502 0.3850
H10_6 H 0.9854 0.1218 0.5064
O4_6 O 0.8793(4) 0.1285(2) 0.3729(5)
N6_6 N 0.9054(3) 0.1384(2) 0.5857(5)
H12_6 H 0.8945 0.1279 0.6671
C12_6 C 0.8680(4) 0.1177(3) 0.4904(6)
C13_6 C 0.7643(4) 0.0564(3) 0.4497(6)
H13_6 H 0.7649 0.0610 0.3570
N8_6 N 0.6403(4) 0.0269(2) 0.8547(5)
N9_6 N 0.9715(4) 0.2636(2) 0.1458(5)
Zn2_6 Zn 0.68580(4) 0.99484(3) 0.80004(6)
N1_6 N 0.6338(3) 0.6878(2) 0.6833(5)
O1_6 O 0.63468(26) 0.91540(18) 0.7800(4)
N5_6 N 0.5639(3) 0.8036(2) 0.7446(5)
H1_6 H 0.5660 0.7960 0.8275
C1_6 C 0.5471(4) 0.8432(3) 0.7130(6)
H2_6 H 0.5258 0.8322 0.6290
C2_6 C 0.5968(3) 0.9002(2) 0.6969(6)
C3_6 C 0.5113(4) 0.8451(3) 0.8213(8)
H3_6 H 0.4803 0.8081 0.8367
H4_6 H 0.4975 0.8695 0.7953
H5_6 H 0.5329 0.8589 0.9022
C4_6 C 0.6037(4) 0.7270(3) 0.8185(6)
H6_6 H 0.5938 0.7380 0.8973
C5_6 C 0.5761(4) 0.7779(3) 0.6492(6)
C6_6 C 0.5973(4) 0.7422(3) 0.6919(6)
C14_6 C 0.6168(4) 0.7160(3) 0.6111(6)
H14_6 H 0.6178 0.7178 0.5177
O5_6 O 0.5698(3) 0.7847(2) 0.5312(5)
O8_6 O 0.73672(33) 0.99875(19) 0.9379(4)
O1_7 O 0.75126(18) 0.05261(19) 0.1134(4)
N5_7 N 0.8630(2) 0.0936(2) 0.0780(5)
H1_7 H 0.8706 0.1033 0.1609
C1_7 C 0.8234(3) 0.0372(3) 0.0464(6)
C2_7 C 0.7664(2) 0.0299(2) 0.0303(6)
H3_7 H 0.8585 0.0055 0.1701
H5_7 H 0.8077 0.0073 0.2356
C4_7 C 0.9396(3) 0.2100(3) 0.1519(6)
H6_7 H 0.9286 0.1891 0.2307
C6_7 C 0.9244(3) 0.1884(3) 0.0253(6)
H8_7 H 0.5952 0.0722 0.0689
H12_7 H 0.5387 0.0999 0.0005
N4_7 N 0.6374(2) 0.0396(2) 0.9834(5)
O3_7 O 0.4070(2) 0.07224(19) 0.7656(4)
H2_7 H 0.8344 0.0269 0.9624
C5_7 C 0.8887(3) 0.1315(3) 0.9826(6)
C7_7 C 0.4890(3) 0.1192(3) 0.8963(7)
H7_7 H 0.4846 0.1331 0.9832
C8_7 C 0.4325(2) 0.0701(2) 0.8640(6)
C9_7 C 0.5860(3) 0.0634(3) 0.8658(6)
C10_7 C 0.6046(3) 0.0606(3) 0.9901(6)
C11_7 C 0.5102(4) 0.1669(4) 0.8055(10)
H9_7 H 0.5164 0.1562 0.7184
H10_7 H 0.5448 0.1969 0.8398
H11_7 H 0.4833 0.1792 0.7985
O4_7 O 0.5381(2) 0.0841(3) 0.7063(5)
N6_7 N 0.5282(2) 0.1003(2) 0.9191(5)
C12_7 C 0.5489(3) 0.0836(3) 0.8238(6)
C13_7 C 0.6102(3) 0.0412(3) 0.7831(6)
H13_7 H 0.6056 0.0372 0.6904
C14_7 C 0.9506(3) 0.2341(3) 0.9445(6)
H14_7 H 0.9488 0.2333 0.8511
O5_7 O 0.8819(2) 0.1184(2) 0.8646(5)
C3_7 C 0.8215(3) 0.9995(3) 0.1547(8)
H4_7 H 0.7971 0.9613 0.1287
C3_8 C 0.0005(3) 0.8221(4) 0.1547(8)
H4_8 H 0.0387 0.8359 0.1287
O1_8 O 0.94739(19) 0.69866(26) 0.1134(4)
N5_8 N 0.9064(2) 0.7695(3) 0.0780(5)
H1_8 H 0.8967 0.7674 0.1609
C1_8 C 0.9628(3) 0.7863(4) 0.0464(6)
C2_8 C 0.9701(2) 0.7366(3) 0.0303(6)
H3_8 H 0.9945 0.8531 0.1701
H5_8 H 0.9927 0.8005 0.2356
C4_8 C 0.7900(3) 0.7297(4) 0.1519(6)
H6_8 H 0.8109 0.7396 0.2307
C6_8 C 0.8116(3) 0.7361(4) 0.0253(6)
H8_8 H 0.9278 0.5231 0.0689
H12_8 H 0.9001 0.4389 0.0005
N4_8 N 0.9604(2) 0.5979(3) 0.9834(5)
O3_8 O 0.92776(19) 0.33480(28) 0.7656(4)
H2_8 H 0.9731 0.8076 0.9624
C5_8 C 0.8685(3) 0.7573(4) 0.9826(6)
C7_8 C 0.8808(3) 0.3699(4) 0.8963(7)
H7_8 H 0.8669 0.3516 0.9832
C8_8 C 0.9299(2) 0.3625(3) 0.8640(6)
C9_8 C 0.9366(3) 0.5227(4) 0.8658(6)
C10_8 C 0.9394(3) 0.5441(4) 0.9901(6)
C11_8 C 0.8331(4) 0.3434(6) 0.8055(10)
H9_8 H 0.8438 0.3603 0.7184
H10_8 H 0.8031 0.3480 0.8398
H11_8 H 0.8208 0.3042 0.7985
O4_8 O 0.9159(3) 0.4541(4) 0.7063(5)
N6_8 N 0.8997(2) 0.4280(3) 0.9191(5)
C12_8 C 0.9164(3) 0.4654(4) 0.8238(6)
C13_8 C 0.9588(3) 0.5691(4) 0.7831(6)
H13_8 H 0.9628 0.5685 0.6904
C14_8 C 0.7659(3) 0.7166(4) 0.9445(6)
H14_8 H 0.7667 0.7156 0.8511
O5_8 O 0.8816(2) 0.7636(3) 0.8646(5)
O1_9 O 0.30134(26) 0.24874(18) 0.1134(4)
N5_9 N 0.2305(3) 0.1370(2) 0.0780(5)
H1_9 H 0.2326 0.1294 0.1609
C1_9 C 0.2137(4) 0.1766(3) 0.0464(6)
C2_9 C 0.2634(3) 0.2336(2) 0.0303(6)
C3_9 C 0.1779(4) 0.1785(3) 0.1547(8)
H3_9 H 0.1469 0.1415 0.1701
H4_9 H 0.1641 0.2029 0.1287
H5_9 H 0.1995 0.1923 0.2356
C4_9 C 0.2703(4) 0.0604(3) 0.1519(6)
H6_9 H 0.2604 0.0714 0.2307
C6_9 C 0.2639(4) 0.0756(3) 0.0253(6)
H8_9 H 0.4769 0.4048 0.0689
H12_9 H 0.5611 0.4613 0.0005
N4_9 N 0.4021(3) 0.3626(2) 0.9834(5)
O3_9 O 0.66520(28) 0.5930(2) 0.7656(4)
H2_9 H 0.1924 0.1656 0.9624
C5_9 C 0.2427(4) 0.1113(3) 0.9826(6)
C7_9 C 0.6301(4) 0.5110(3) 0.8963(7)
H7_9 H 0.6484 0.5154 0.9832
C8_9 C 0.6375(3) 0.5675(2) 0.8640(6)
C9_9 C 0.4773(4) 0.4140(3) 0.8658(6)
C10_9 C 0.4559(4) 0.3954(3) 0.9901(6)
C11_9 C 0.6566(6) 0.4898(4) 0.8055(10)
H9_9 H 0.6397 0.4836 0.7184
H10_9 H 0.6520 0.4552 0.8398
H11_9 H 0.6958 0.5167 0.7985
O4_9 O 0.5459(4) 0.4619(2) 0.7063(5)
N6_9 N 0.5720(3) 0.4718(2) 0.9191(5)
C12_9 C 0.5346(4) 0.4511(3) 0.8238(6)
C13_9 C 0.4309(4) 0.3898(3) 0.7831(6)
H13_9 H 0.4315 0.3944 0.6904
C14_9 C 0.2834(4) 0.0494(3) 0.9445(6)
H14_9 H 0.2844 0.0512 0.8511
O5_9 O 0.2364(3) 0.1181(2) 0.8646(5)
loop_
_geom_bond_atom_site_label_1
_geom_bond_atom_site_label_2
_geom_bond_site_symmetry_1
_geom_bond_site_symmetry_2
Zn2 N4 1_555 1_555
N1 N3 1_555 1_555
N2 N4 1_555 1_555
N3 C4 1_555 1_555
N4 C10 1_555 1_555
O1 Zn2 1_555 1_555
N5 H1 1_555 1_555
O2 C8 1_555 1_555
O3 C8 1_555 1_555
C1 N5 1_555 1_555
H2 C1 1_555 1_555
C2 O1 1_555 1_555
C3 C1 1_555 1_555
H3 C3 1_555 1_555
H4 C3 1_555 1_555
H5 C3 1_555 1_555
C4 H6 1_555 1_555
C5 N5 1_555 1_555
C6 C4 1_555 1_555
C7 H7 1_555 1_555
C8 C7 1_555 1_555
C9 C10 1_555 1_555
C10 H8 1_555 1_555
C11 C7 1_555 1_555
H9 C11 1_555 1_555
H10 C11 1_555 1_555
H11 C11 1_555 1_555
O4 C12 1_555 1_555
N6 C7 1_555 1_555
H12 N6 1_555 1_555
C12 C9 1_555 1_555
C13 N2 1_555 1_555
H13 C13 1_555 1_555
C14 N1 1_555 1_555
H14 C14 1_555 1_555
O5 C5 1_555 1_555
O6 C2 1_555 1_555
Zn3 N1 1_555 1_555
Zn4 O2 1_555 1_555
Zn5 N3 1_555 1_555
Zn6 N2 1_555 1_555
N8 Zn2 1_555 1_555
O8 Zn2 1_555 1_555
C1 C2 1_555 1_555
C5 C6 1_555 1_555
C6 C14 1_555 1_555
C9 C13 1_555 1_555
N6 C12 1_555 1_555
O6 Zn6 1_555 1_555
N9 Zn1 1_555 1_555
N1_2 N3_2 1_555 1_555
N3_2 C4_2 1_555 1_555
N5_2 H1_2 1_555 1_555
C1_2 N5_2 1_555 1_555
H2_2 C1_2 1_555 1_555
C2_2 O1_2 1_555 1_555
C3_2 C1_2 1_555 1_555
H3_2 C3_2 1_555 1_555
H4_2 C3_2 1_555 1_555
H5_2 C3_2 1_555 1_555
C4_2 H6_2 1_555 1_555
C5_2 N5_2 1_555 1_555
C6_2 C4_2 1_555 1_555
C14_2 N1_2 1_555 1_555
H14_2 C14_2 1_555 1_555
O5_2 C5_2 1_555 1_555
O6_2 C2_2 1_555 1_555
Zn5_2 N3_2 1_555 1_555
C1_2 C2_2 1_555 1_555
C5_2 C6_2 1_555 1_555
C6_2 C14_2 1_555 1_555
O6_2 Zn6_2 1_555 1_555
Zn2_2 N4_2 1_555 1_555
N2_2 N4_2 1_555 1_555
N4_2 C10_2 1_555 1_555
O2_2 C8_2 1_555 1_555
O3_2 C8_2 1_555 1_555
C7_2 H7_2 1_555 1_555
C8_2 C7_2 1_555 1_555
C9_2 C10_2 1_555 1_555
C10_2 H8_2 1_555 1_555
C11_2 C7_2 1_555 1_555
H9_2 C11_2 1_555 1_555
H10_2 C11_2 1_555 1_555
H11_2 C11_2 1_555 1_555
O4_2 C12_2 1_555 1_555
N6_2 C7_2 1_555 1_555
H12_2 N6_2 1_555 1_555
C12_2 C9_2 1_555 1_555
C13_2 N2_2 1_555 1_555
H13_2 C13_2 1_555 1_555
Zn3 O2_2 1_555 1_555
O8_2 Zn2_2 1_555 1_555
C9_2 C13_2 1_555 1_555
N6_2 C12_2 1_555 1_555
N9_2 Zn1_2 1_555 1_555
O7_2 Zn1_2 1_555 1_555
Zn2_3 N4_3 1_555 1_555
N2_3 N4_3 1_555 1_555
N4_3 C10_3 1_555 1_555
O2_3 C8_3 1_555 1_555
O3_3 C8_3 1_555 1_555
C7_3 H7_3 1_555 1_555
C8_3 C7_3 1_555 1_555
C9_3 C10_3 1_555 1_555
C10_3 H8_3 1_555 1_555
C11_3 C7_3 1_555 1_555
H9_3 C11_3 1_555 1_555
H10_3 C11_3 1_555 1_555
H11_3 C11_3 1_555 1_555
O4_3 C12_3 1_555 1_555
N6_3 C7_3 1_555 1_555
H12_3 N6_3 1_555 1_555
C12_3 C9_3 1_555 1_555
C13_3 N2_3 1_555 1_555
H13_3 C13_3 1_555 1_555
Zn3_2 O2_3 1_555 1_555
O8_3 Zn2_3 1_555 1_555
C9_3 C13_3 1_555 1_555
N6_3 C12_3 1_555 1_555
N9_3 Zn1_3 1_555 1_555
N1_3 N3_3 1_555 1_555
N3_3 C4_3 1_555 1_555
N5_3 H1_3 1_555 1_555
C1_3 N5_3 1_555 1_555
H2_3 C1_3 1_555 1_555
C2_3 O1_3 1_555 1_555
C3_3 C1_3 1_555 1_555
H3_3 C3_3 1_555 1_555
H4_3 C3_3 1_555 1_555
H5_3 C3_3 1_555 1_555
C4_3 H6_3 1_555 1_555
C5_3 N5_3 1_555 1_555
C6_3 C4_3 1_555 1_555
C14_3 N1_3 1_555 1_555
H14_3 C14_3 1_555 1_555
O5_3 C5_3 1_555 1_555
O6_3 C2_3 1_555 1_555
Zn5_3 N3_3 1_555 1_555
C1_3 C2_3 1_555 1_555
C5_3 C6_3 1_555 1_555
C6_3 C14_3 1_555 1_555
O6_3 Zn6_3 1_555 1_555
N1_4 N9_3 1_555 1_555
N9_3 C4_4 1_555 1_555
O1_4 Zn2_4 1_555 1_555
N5_4 H1_4 1_555 1_555
C1_4 N5_4 1_555 1_555
H2_4 C1_4 1_555 1_555
C2_4 O1_4 1_555 1_555
C3_4 C1_4 1_555 1_555
H3_4 C3_4 1_555 1_555
H4_4 C3_4 1_555 1_555
H5_4 C3_4 1_555 1_555
C4_4 H6_4 1_555 1_555
C5_4 N5_4 1_555 1_555
C6_4 C4_4 1_555 1_555
C14_4 N1_4 1_555 1_555
H14_4 C14_4 1_555 1_555
O5_4 C5_4 1_555 1_555
O8_3 C2_4 1_555 1_555
O8_4 Zn2_4 1_555 1_555
C1_4 C2_4 1_555 1_555
C5_4 C6_4 1_555 1_555
C6_4 C14_4 1_555 1_555
Zn3 O3_4 1_555 1_555
N8_3 N4_4 1_555 1_555
N4_4 C10_4 1_555 1_555
O2_4 C8_4 1_555 1_555
O3_4 C8_4 1_555 1_555
C7_4 H7_4 1_555 1_555
C8_4 C7_4 1_555 1_555
C9_4 C10_4 1_555 1_555
C10_4 H8_4 1_555 1_555
C11_4 C7_4 1_555 1_555
H9_4 C11_4 1_555 1_555
H10_4 C11_4 1_555 1_555
H11_4 C11_4 1_555 1_555
O4_4 C12_4 1_555 1_555
N6_4 C7_4 1_555 1_555
H12_4 N6_4 1_555 1_555
C12_4 C9_4 1_555 1_555
C13_4 N8_3 1_555 1_555
H13_4 C13_4 1_555 1_555
Zn5 O2_4 1_555 1_555
N9_4 Zn3 1_555 1_555
C9_4 C13_4 1_555 1_555
N6_4 C12_4 1_555 1_555
Zn2_5 N4_5 1_555 1_555
N1_5 N9 1_555 1_555
N8 N4_5 1_555 1_555
N9 C4_5 1_555 1_555
N4_5 C10_5 1_555 1_555
O1_5 Zn2_5 1_555 1_555
N5_5 H1_5 1_555 1_555
O2_5 C8_5 1_555 1_555
O3_5 C8_5 1_555 1_555
C1_5 N5_5 1_555 1_555
H2_5 C1_5 1_555 1_555
C2_5 O1_5 1_555 1_555
C3_5 C1_5 1_555 1_555
H3_5 C3_5 1_555 1_555
H4_5 C3_5 1_555 1_555
H5_5 C3_5 1_555 1_555
C4_5 H6_5 1_555 1_555
C5_5 N5_5 1_555 1_555
C6_5 C4_5 1_555 1_555
C7_5 H7_5 1_555 1_555
C8_5 C7_5 1_555 1_555
C9_5 C10_5 1_555 1_555
C10_5 H8_5 1_555 1_555
C11_5 C7_5 1_555 1_555
H9_5 C11_5 1_555 1_555
H10_5 C11_5 1_555 1_555
O4_5 C12_5 1_555 1_555
N6_5 C7_5 1_555 1_555
H12_5 N6_5 1_555 1_555
C12_5 C9_5 1_555 1_555
C13_5 N8 1_555 1_555
H13_5 C13_5 1_555 1_555
C14_5 N1_5 1_555 1_555
H14_5 C14_5 1_555 1_555
O5_5 C5_5 1_555 1_555
O8 C2_5 1_555 1_555
Zn5_2 O2_5 1_555 1_555
N8_5 Zn2_5 1_555 1_555
O8_5 Zn2_5 1_555 1_555
C1_5 C2_5 1_555 1_555
C5_5 C6_5 1_555 1_555
C6_5 C14_5 1_555 1_555
C9_5 C13_5 1_555 1_555
N6_5 C12_5 1_555 1_555
N8_2 N4_6 1_555 1_555
N4_6 C10_6 1_555 1_555
O2_6 C8_6 1_555 1_555
O3_6 C8_6 1_555 1_555
C7_6 H7_6 1_555 1_555
C8_6 C7_6 1_555 1_555
C9_6 C10_6 1_555 1_555
C10_6 H8_6 1_555 1_555
C11_6 C7_6 1_555 1_555
H9_6 C11_6 1_555 1_555
H10_6 C11_6 1_555 1_555
O4_6 C12_6 1_555 1_555
N6_6 C7_6 1_555 1_555
H12_6 N6_6 1_555 1_555
C12_6 C9_6 1_555 1_555
C13_6 N8_2 1_555 1_555
H13_6 C13_6 1_555 1_555
Zn5_3 O2_6 1_555 1_555
C9_6 C13_6 1_555 1_555
N6_6 C12_6 1_555 1_555
N1_6 N9_2 1_555 1_555
N9_2 C4_6 1_555 1_555
O1_6 Zn2_6 1_555 1_555
N5_6 H1_6 1_555 1_555
C1_6 N5_6 1_555 1_555
H2_6 C1_6 1_555 1_555
C2_6 O1_6 1_555 1_555
C3_6 C1_6 1_555 1_555
H3_6 C3_6 1_555 1_555
H4_6 C3_6 1_555 1_555
H5_6 C3_6 1_555 1_555
C4_6 H6_6 1_555 1_555
C5_6 N5_6 1_555 1_555
C6_6 C4_6 1_555 1_555
C14_6 N1_6 1_555 1_555
H14_6 C14_6 1_555 1_555
O5_6 C5_6 1_555 1_555
O8_2 C2_6 1_555 1_555
Zn5 N1_6 1_555 1_555
O8_6 Zn2_6 1_555 1_555
C1_6 C2_6 1_555 1_555
C5_6 C6_6 1_555 1_555
C6_6 C14_6 1_555 1_555
N7 N9_6 1_555 1_555
N9_6 C4_7 1_555 1_555
O1_7 Zn6_2 1_555 1_555
N5_7 H1_7 1_555 1_555
C1_7 N5_7 1_555 1_555
C2_7 O1_7 1_555 1_555
C4_7 H6_7 1_555 1_555
C6_7 C4_7 1_555 1_555
C1_7 C2_7 1_555 1_555
Zn5_2 O3_7 1_555 1_555
N8_6 N4_7 1_555 1_555
N4_7 C10_7 1_555 1_555
O7_3 C8_7 1_555 1_555
O3_7 C8_7 1_555 1_555
C7_7 H7_7 1_555 1_555
C8_7 C7_7 1_555 1_555
C9_7 C10_7 1_555 1_555
C11_7 C7_7 1_555 1_555
H9_7 C11_7 1_555 1_555
H10_7 C11_7 1_555 1_555
H11_7 C11_7 1_555 1_555
O4_7 C12_7 1_555 1_555
N6_7 C7_7 1_555 1_555
C12_7 C9_7 1_555 1_555
C13_7 N8_6 1_555 1_555
H13_7 C13_7 1_555 1_555
H14_7 C14_7 1_555 1_555
O5_7 C5_7 1_555 1_555
C9_7 C13_7 1_555 1_555
N6_7 C12_7 1_555 1_555
H4_7 C3_7 1_555 1_555
H4_8 C3_8 1_555 1_555
N7_2 N9_4 1_555 1_555
N9_4 C4_8 1_555 1_555
O1_8 Zn6_3 1_555 1_555
N5_8 H1_8 1_555 1_555
C1_8 N5_8 1_555 1_555
C2_8 O1_8 1_555 1_555
C4_8 H6_8 1_555 1_555
C6_8 C4_8 1_555 1_555
C1_8 C2_8 1_555 1_555
Zn5_3 O3_8 1_555 1_555
N8_4 N4_8 1_555 1_555
N4_8 C10_8 1_555 1_555
O7 C8_8 1_555 1_555
O3_8 C8_8 1_555 1_555
C7_8 H7_8 1_555 1_555
C8_8 C7_8 1_555 1_555
C9_8 C10_8 1_555 1_555
C11_8 C7_8 1_555 1_555
H9_8 C11_8 1_555 1_555
H10_8 C11_8 1_555 1_555
H11_8 C11_8 1_555 1_555
O4_8 C12_8 1_555 1_555
N6_8 C7_8 1_555 1_555
C12_8 C9_8 1_555 1_555
C13_8 N8_4 1_555 1_555
H13_8 C13_8 1_555 1_555
H14_8 C14_8 1_555 1_555
O5_8 C5_8 1_555 1_555
C9_8 C13_8 1_555 1_555
N6_8 C12_8 1_555 1_555
N7_3 N9_5 1_555 1_555
N9_5 C4_9 1_555 1_555
O1_9 Zn6 1_555 1_555
N5_9 H1_9 1_555 1_555
C1_9 N5_9 1_555 1_555
C2_9 O1_9 1_555 1_555
C3_9 C1_9 1_555 1_555
H3_9 C3_9 1_555 1_555
H4_9 C3_9 1_555 1_555
H5_9 C3_9 1_555 1_555
C4_9 H6_9 1_555 1_555
C6_9 C4_9 1_555 1_555
C1_9 C2_9 1_555 1_555
Zn5 O3_9 1_555 1_555
N8_5 N4_9 1_555 1_555
N4_9 C10_9 1_555 1_555
O7_2 C8_9 1_555 1_555
O3_9 C8_9 1_555 1_555
C7_9 H7_9 1_555 1_555
C8_9 C7_9 1_555 1_555
C9_9 C10_9 1_555 1_555
C11_9 C7_9 1_555 1_555
H9_9 C11_9 1_555 1_555
H10_9 C11_9 1_555 1_555
H11_9 C11_9 1_555 1_555
O4_9 C12_9 1_555 1_555
N6_9 C7_9 1_555 1_555
C12_9 C9_9 1_555 1_555
C13_9 N8_5 1_555 1_555
H13_9 C13_9 1_555 1_555
H14_9 C14_9 1_555 1_555
O5_9 C5_9 1_555 1_555
C9_9 C13_9 1_555 1_555
N6_9 C12_9 1_555 1_555

#END
