
###############################################################################
#
# This file contains modified crystal structure data generated from the
# MOF subset of the Cambridge Structural Database (CSD) v543 
# hosted by the Cambridge Crystallographic Data Centre (CCDC).
#
# This work is licensed under the Creative Commons
# Attribution-NonCommercial-ShareAlike 4.0 International License.
# To view a copy of this license, visit
# http://creativecommons.org/licenses/by-nc-sa/4.0/
# or send a letter to
# Creative Commons, PO Box 1866, Mountain View, CA 94042, USA.
#
# CIF created using the CSD Python API on 29 September 2022
# The structure has been converted into the P1 space group
# The structure has a 3D framework
# The original CSD entry VUXBOI is in the rhombohedral crystal system
# The original CSD entry VUXBOI is in a Sohncke space group
# The framework has been calculated to contain at least 10.0% void space
# The void calculation uses a probe of radius 1.32A, grid spacing 0.4
#
###############################################################################

data_VUXBOI
_chemical_formula_moiety         '(C126 H126 N54 O52 Zn14)n'
_symmetry_cell_setting           triclinic
_symmetry_space_group_name_H-M   'P 1'
_symmetry_Int_Tables_number      1
_space_group_name_Hall           'P 1'
loop_
_symmetry_equiv_pos_site_id
_symmetry_equiv_pos_as_xyz
1 x,y,z
_cell_length_a                   27.9529(9)
_cell_length_b                   27.9529(9)
_cell_length_c                   10.1479(3)
_cell_angle_alpha                90
_cell_angle_beta                 90
_cell_angle_gamma                120
_cell_volume                     6866.9
loop_
_atom_site_label
_atom_site_type_symbol
_atom_site_fract_x
_atom_site_fract_y
_atom_site_fract_z
Zn2 Zn 0.02073(5) 0.35875(5) 0.53292(9)
O1 O 0.0021(3) 0.7397(3) 0.5102(7)
C11 C 0.0020(5) 0.8247(5) 0.7287(12)
H9 H 0.0404 0.8362 0.7065
Zn3 Zn 0.00652(7) 0.69269(5) 0.37012(10)
O8 O 0.0730(4) 0.4072(3) 0.6676(7)
N7 N 0.0702(4) 0.3784(4) 0.3790(8)
N9 N 0.0530(4) 0.6903(6) 0.7562(8)
Zn1 Zn 0.97398(5) 0.64717(5) 0.70345(10)
O2 O 0.9483(3) 0.7005(3) 0.6857(7)
O3 O 0.9261(3) 0.3324(3) 0.3343(7)
O4 O 0.9671(3) 0.3840(3) 0.5133(7)
O5 O 0.9138(4) 0.4534(3) 0.2715(7)
N1 N 0.9561(4) 0.5978(4) 0.5514(8)
N2 N 0.9066(4) 0.7711(4) 0.6477(8)
H1 H 0.8957 0.7672 0.7304
N3 N 0.7369(4) 0.7117(4) 0.7123(8)
O6 O 0.8828(3) 0.7658(4) 0.4323(7)
N4 N 0.7200(4) 0.7001(4) 0.5841(8)
N5 N 0.8961(4) 0.4270(4) 0.4849(8)
H2 H 0.8949 0.4373 0.5663
C1 C 0.9329(4) 0.5222(5) 0.4324(10)
N6 N 0.9707(4) 0.6137(4) 0.4229(8)
C2 C 0.9134(4) 0.4649(4) 0.3906(9)
C3 C 0.7658(4) 0.7169(5) 0.5122(9)
H3 H 0.7665 0.7138 0.4190
C4 C 0.9284(4) 0.3619(4) 0.4318(10)
C5 C 0.9640(5) 0.7886(5) 0.6179(10)
H4 H 0.9748 0.8103 0.5341
C6 C 0.8784(5) 0.3679(5) 0.4602(11)
H5 H 0.8640 0.3491 0.5468
C7 C 0.9324(5) 0.5425(4) 0.5548(10)
H6 H 0.9173 0.5205 0.6316
C8 C 0.9579(4) 0.5691(4) 0.3532(10)
H7 H 0.9649 0.5691 0.2616
C9 C 0.8114(5) 0.7390(5) 0.5914(10)
C10 C 0.9712(4) 0.7386(4) 0.6014(9)
H8 H 0.9981 0.8574 0.7396
H10 H 0.9919 0.8035 0.8110
C12 C 0.8699(5) 0.7608(5) 0.5508(10)
C13 C 0.7901(4) 0.7345(5) 0.7168(10)
H11 H 0.8116 0.7465 0.7951
C14 C 0.8291(6) 0.3388(7) 0.3638(18)
H12 H 0.7983 0.3431 0.3954
H13 H 0.8174 0.2994 0.3588
H14 H 0.8404 0.3554 0.2761
Zn4 Zn 0.64125(5) 0.66198(7) 0.53292(9)
Zn5 Zn 0.68740(5) 0.69208(5) 0.86625(9)
Zn6 Zn 0.97458(5) 0.32865(7) 0.19959(9)
O7 O 0.9270(3) 0.5957(4) 0.8435(7)
N8 N 0.9801(6) 0.2800(4) 0.5841(8)
Zn1_2 Zn 0.35283(5) 0.32681(7) 0.70345(10)
O1_2 O 0.2603(3) 0.2624(4) 0.5102(7)
O2_2 O 0.2995(3) 0.2478(4) 0.6857(7)
O3_2 O 0.6676(3) 0.5937(4) 0.3343(7)
O4_2 O 0.6160(3) 0.5831(4) 0.5133(7)
O5_2 O 0.5466(3) 0.4604(5) 0.2715(7)
N1_2 N 0.4022(4) 0.3583(6) 0.5514(8)
N2_2 N 0.2289(4) 0.1355(6) 0.6477(8)
H1_2 H 0.2328 0.1285 0.7304
N3_2 N 0.2883(4) 0.0252(6) 0.7123(8)
O6_2 O 0.2342(4) 0.1170(5) 0.4323(7)
N4_2 N 0.2999(4) 0.0199(6) 0.5841(8)
N5_2 N 0.5730(4) 0.4691(6) 0.4849(8)
H2_2 H 0.5627 0.4576 0.5663
C1_2 C 0.4778(5) 0.4107(6) 0.4324(10)
N6_2 N 0.3863(4) 0.3570(6) 0.4229(8)
C2_2 C 0.5351(4) 0.4485(6) 0.3906(9)
C3_2 C 0.2831(5) 0.0489(6) 0.5122(9)
H3_2 H 0.2862 0.0527 0.4190
C4_2 C 0.6381(4) 0.5665(6) 0.4318(10)
C5_2 C 0.2114(5) 0.1754(7) 0.6179(10)
H4_2 H 0.1897 0.1645 0.5341
C6_2 C 0.6321(5) 0.5105(7) 0.4602(11)
H5_2 H 0.6509 0.5149 0.5468
C7_2 C 0.4575(4) 0.3899(6) 0.5548(10)
H6_2 H 0.4795 0.3968 0.6316
C8_2 C 0.4309(4) 0.3888(6) 0.3532(10)
H7_2 H 0.4309 0.3958 0.2616
C9_2 C 0.2610(5) 0.0724(7) 0.5914(10)
C10_2 C 0.2614(4) 0.2326(6) 0.6014(9)
C11_2 C 0.1753(5) 0.1773(7) 0.7287(12)
H8_2 H 0.1426 0.1407 0.7396
H9_2 H 0.1638 0.2042 0.7065
H10_2 H 0.1965 0.1884 0.8110
C12_2 C 0.2392(5) 0.1091(7) 0.5508(10)
C13_2 C 0.2655(5) 0.0556(6) 0.7168(10)
H11_2 H 0.2535 0.0651 0.7951
C14_2 C 0.6612(7) 0.4903(9) 0.3638(18)
H12_2 H 0.6569 0.4552 0.3954
H13_2 H 0.7006 0.5180 0.3588
H14_2 H 0.6446 0.4850 0.2761
Zn3_2 Zn 0.30731(5) 0.31384(9) 0.37012(10)
Zn6_2 Zn 0.67135(7) 0.64594(9) 0.19959(9)
O7_2 O 0.4043(4) 0.3312(5) 0.8435(7)
O8_2 O 0.5928(3) 0.6657(5) 0.6676(7)
N7_2 N 0.6216(4) 0.6919(6) 0.3790(8)
N9_2 N 0.3097(6) 0.3626(7) 0.7562(8)
Zn4_2 Zn 0.33802(7) 0.97927(9) 0.53292(9)
Zn5_2 Zn 0.30792(5) 0.99531(7) 0.86625(9)
Zn5_3 Zn 0.00469(7) 0.31260(5) 0.86625(9)
Zn1_3 Zn 0.67319(7) 0.02602(5) 0.70345(10)
O2_3 O 0.7522(4) 0.0517(3) 0.6857(7)
O3_3 O 0.4063(4) 0.0739(3) 0.3343(7)
O4_3 O 0.4169(4) 0.0329(3) 0.5133(7)
O5_3 O 0.5396(5) 0.0862(4) 0.2715(7)
N1_3 N 0.6417(6) 0.0439(4) 0.5514(8)
N2_3 N 0.8645(6) 0.0934(4) 0.6477(8)
H1_3 H 0.8715 0.1043 0.7304
N3_3 N 0.9748(6) 0.2631(4) 0.7123(8)
O6_3 O 0.8830(5) 0.1172(3) 0.4323(7)
N5_3 N 0.5309(6) 0.1039(4) 0.4849(8)
H2_3 H 0.5424 0.1051 0.5663
C1_3 C 0.5893(6) 0.0671(4) 0.4324(10)
N6_3 N 0.6430(6) 0.0293(4) 0.4229(8)
C2_3 C 0.5515(6) 0.0866(4) 0.3906(9)
C3_3 C 0.9511(6) 0.2342(4) 0.5122(9)
H3_3 H 0.9473 0.2335 0.4190
C4_3 C 0.4335(6) 0.0716(4) 0.4318(10)
C5_3 C 0.8246(7) 0.0360(5) 0.6179(10)
H4_3 H 0.8355 0.0252 0.5341
C6_3 C 0.4895(7) 0.1216(5) 0.4602(11)
H5_3 H 0.4851 0.1360 0.5468
C7_3 C 0.6101(6) 0.0676(5) 0.5548(10)
H6_3 H 0.6032 0.0827 0.6316
C8_3 C 0.6112(6) 0.0421(4) 0.3532(10)
H7_3 H 0.6042 0.0351 0.2616
C9_3 C 0.9276(7) 0.1886(5) 0.5914(10)
C10_3 C 0.7674(6) 0.0288(4) 0.6014(9)
H8_3 H 0.8593 0.0019 0.7396
H10_3 H 0.8116 0.0081 0.8110
C12_3 C 0.8909(7) 0.1301(5) 0.5508(10)
C13_3 C 0.9444(6) 0.2099(4) 0.7168(10)
H11_3 H 0.9349 0.1884 0.7951
C14_3 C 0.5097(9) 0.1709(6) 0.3638(18)
H12_3 H 0.5448 0.2017 0.3954
H13_3 H 0.4820 0.1826 0.3588
H14_3 H 0.5150 0.1596 0.2761
Zn6_3 Zn 0.35406(9) 0.02542(5) 0.19959(9)
O7_3 O 0.6688(5) 0.0730(3) 0.8435(7)
O1_3 O 0.7376(4) 0.9979(3) 0.5102(7)
C11_3 C 0.8227(7) 0.9980(5) 0.7287(12)
H9_3 H 0.7958 0.9596 0.7065
Zn3_3 Zn 0.68616(9) 0.99348(7) 0.37012(10)
O8_3 O 0.3343(5) 0.9270(4) 0.6676(7)
N7_3 N 0.3081(6) 0.9298(4) 0.3790(8)
N9_3 N 0.6374(7) 0.9470(4) 0.7562(8)
O2_4 O 0.6150(3) 0.0338(3) 0.0190(7)
H1_4 H 0.5624 0.1005 0.0637
N3_4 N 0.4036(4) 0.0450(4) 0.0456(8)
C11_4 C 0.6687(5) 0.1580(5) 0.0620(12)
H8_4 H 0.6648 0.1907 0.0729
H9_4 H 0.7071 0.1695 0.0398
H10_4 H 0.6586 0.1368 0.1443
C13_4 C 0.4568(4) 0.0678(5) 0.0501(10)
H11_4 H 0.4783 0.0798 0.1284
N9_4 N 0.7196(4) 0.0237(6) 0.0896(8)
N2_4 N 0.5733(4) 0.1044(4) 0.9810(8)
O6_4 O 0.5495(3) 0.0991(4) 0.7656(7)
N4_3 N 0.3867(4) 0.0334(4) 0.9174(8)
C3_4 C 0.4325(4) 0.0502(5) 0.8455(9)
H3_4 H 0.4332 0.0471 0.7523
C5_4 C 0.6307(5) 0.1219(5) 0.9512(10)
H4_4 H 0.6415 0.1436 0.8674
C9_4 C 0.4781(5) 0.0723(5) 0.9247(10)
C10_4 C 0.6379(4) 0.0719(4) 0.9347(9)
C12_4 C 0.5366(5) 0.0941(5) 0.8841(10)
Zn1_4 Zn 0.64065(5) 0.98050(5) 0.03678(10)
O7_4 O 0.5936(3) 0.9291(4) 0.1769(7)
O8_4 O 0.7396(4) 0.7406(3) 0.0010(7)
O4_4 O 0.6338(3) 0.7173(3) 0.8466(7)
O5_4 O 0.5805(4) 0.7867(3) 0.6048(7)
N1_4 N 0.6228(4) 0.9311(4) 0.8847(8)
N5_4 N 0.5628(4) 0.7603(4) 0.8182(8)
H2_4 H 0.5616 0.7706 0.8996
C1_4 C 0.5996(4) 0.8555(5) 0.7657(10)
C2_4 C 0.5801(4) 0.7982(4) 0.7239(9)
C4_4 C 0.5951(4) 0.6952(4) 0.7651(10)
C6_4 C 0.5451(5) 0.7012(5) 0.7935(11)
H5_4 H 0.5307 0.6824 0.8801
C7_4 C 0.5991(5) 0.8758(4) 0.8881(10)
H6_4 H 0.5840 0.8538 0.9649
C8_4 C 0.6246(4) 0.9024(4) 0.6865(10)
H7_4 H 0.6316 0.9024 0.5949
C14_4 C 0.4958(6) 0.6721(7) 0.6971(18)
H12_4 H 0.4650 0.6764 0.7287
H13_4 H 0.4841 0.6327 0.6921
H14_4 H 0.5071 0.6887 0.6094
N8_2 N 0.6468(6) 0.6133(4) 0.9174(8)
Zn1_5 Zn 0.01950(5) 0.66014(7) 0.03678(10)
O7_5 O 0.0709(4) 0.6646(5) 0.1769(7)
O8_5 O 0.2594(3) 0.9991(5) 0.0010(7)
O4_5 O 0.2827(3) 0.9164(4) 0.8466(7)
O5_5 O 0.2133(3) 0.7937(5) 0.6048(7)
N1_5 N 0.0689(4) 0.6916(6) 0.8847(8)
N5_5 N 0.2397(4) 0.8024(6) 0.8182(8)
H2_5 H 0.2294 0.7909 0.8996
C1_5 C 0.1445(5) 0.7440(6) 0.7657(10)
C2_5 C 0.2018(4) 0.7818(6) 0.7239(9)
C4_5 C 0.3048(4) 0.8998(6) 0.7651(10)
C6_5 C 0.2988(5) 0.8438(7) 0.7935(11)
H5_5 H 0.3176 0.8482 0.8801
C7_5 C 0.1242(4) 0.7232(6) 0.8881(10)
H6_5 H 0.1462 0.7301 0.9649
C8_5 C 0.0976(4) 0.7221(6) 0.6865(10)
H7_5 H 0.0976 0.7291 0.5949
C14_5 C 0.3279(7) 0.8236(9) 0.6971(18)
H12_5 H 0.3236 0.7885 0.7287
H13_5 H 0.3673 0.8513 0.6921
H14_5 H 0.3113 0.8183 0.6094
O2_5 O 0.9662(3) 0.5811(4) 0.0190(7)
H1_5 H 0.8995 0.4618 0.0637
N3_5 N 0.9550(4) 0.3585(6) 0.0456(8)
C11_5 C 0.8420(5) 0.5106(7) 0.0620(12)
H8_5 H 0.8093 0.4740 0.0729
H9_5 H 0.8305 0.5375 0.0398
H10_5 H 0.8632 0.5217 0.1443
C13_5 C 0.9322(5) 0.3889(6) 0.0501(10)
H11_5 H 0.9202 0.3984 0.1284
N9_5 N 0.9763(6) 0.6960(7) 0.0896(8)
N2_5 N 0.8956(4) 0.4688(6) 0.9810(8)
O6_5 O 0.9009(4) 0.4503(5) 0.7656(7)
N4_4 N 0.9666(4) 0.3532(6) 0.9174(8)
C3_5 C 0.9498(5) 0.3822(6) 0.8455(9)
H3_5 H 0.9529 0.3860 0.7523
C5_5 C 0.8781(5) 0.5087(7) 0.9512(10)
H4_5 H 0.8564 0.4978 0.8674
C9_5 C 0.9277(5) 0.4057(7) 0.9247(10)
C10_5 C 0.9281(4) 0.5659(6) 0.9347(9)
C12_5 C 0.9059(5) 0.4424(7) 0.8841(10)
Zn1_6 Zn 0.33986(7) 0.35935(5) 0.03678(10)
O2_6 O 0.4189(4) 0.3850(3) 0.0190(7)
H1_6 H 0.5382 0.4376 0.0637
N3_6 N 0.6415(6) 0.5964(4) 0.0456(8)
C11_6 C 0.4894(7) 0.3313(5) 0.0620(12)
H8_6 H 0.5260 0.3352 0.0729
H9_6 H 0.4625 0.2929 0.0398
H10_6 H 0.4783 0.3414 0.1443
C13_6 C 0.6111(6) 0.5432(4) 0.0501(10)
H11_6 H 0.6016 0.5217 0.1284
O7_6 O 0.3354(5) 0.4064(3) 0.1769(7)
O8_6 O 0.0009(5) 0.2604(4) 0.0010(7)
N9_6 N 0.3040(7) 0.2804(4) 0.0896(8)
O4_6 O 0.0836(4) 0.3662(3) 0.8466(7)
O5_6 O 0.2063(5) 0.4195(4) 0.6048(7)
N1_6 N 0.3084(6) 0.3772(4) 0.8847(8)
N2_6 N 0.5312(6) 0.4267(4) 0.9810(8)
O6_6 O 0.5497(5) 0.4505(3) 0.7656(7)
N5_6 N 0.1976(6) 0.4372(4) 0.8182(8)
H2_6 H 0.2091 0.4384 0.8996
C1_6 C 0.2560(6) 0.4004(4) 0.7657(10)
C2_6 C 0.2182(6) 0.4199(4) 0.7239(9)
C3_6 C 0.6178(6) 0.5675(4) 0.8455(9)
H3_6 H 0.6140 0.5668 0.7523
C4_6 C 0.1002(6) 0.4049(4) 0.7651(10)
C5_6 C 0.4913(7) 0.3693(5) 0.9512(10)
H4_6 H 0.5022 0.3585 0.8674
C6_6 C 0.1562(7) 0.4549(5) 0.7935(11)
H5_6 H 0.1518 0.4693 0.8801
C7_6 C 0.2768(6) 0.4009(5) 0.8881(10)
H6_6 H 0.2699 0.4160 0.9649
C8_6 C 0.2779(6) 0.3754(4) 0.6865(10)
H7_6 H 0.2709 0.3684 0.5949
C9_6 C 0.5943(7) 0.5219(5) 0.9247(10)
C10_6 C 0.4341(6) 0.3621(4) 0.9347(9)
C12_6 C 0.5576(7) 0.4634(5) 0.8841(10)
C14_6 C 0.1764(9) 0.5042(6) 0.6971(18)
H12_6 H 0.2115 0.5350 0.7287
H13_6 H 0.1487 0.5159 0.6921
H14_6 H 0.1817 0.4929 0.6094
O2_7 O 0.2816(3) 0.3672(3) 0.3524(7)
O4_7 O 0.3004(3) 0.0507(3) 0.1800(7)
N1_7 N 0.2894(4) 0.2645(4) 0.2181(8)
N2_7 N 0.2399(4) 0.4378(4) 0.3144(8)
H1_7 H 0.2290 0.4339 0.3971
O6_7 O 0.2161(3) 0.4325(4) 0.0990(7)
N4_5 N 0.0533(4) 0.3668(4) 0.2508(8)
N5_7 N 0.2294(4) 0.0937(4) 0.1516(8)
H2_7 H 0.2282 0.1040 0.2330
C1_7 C 0.2662(4) 0.1889(5) 0.0991(10)
C2_7 C 0.2467(4) 0.1316(4) 0.0573(9)
C3_7 C 0.0991(4) 0.3836(5) 0.1789(9)
H3_7 H 0.0998 0.3805 0.0857
C4_7 C 0.2617(4) 0.0286(4) 0.0985(10)
C5_7 C 0.2973(5) 0.4553(5) 0.2846(10)
H4_7 H 0.3081 0.4770 0.2008
C6_7 C 0.2117(5) 0.0346(5) 0.1269(11)
H5_7 H 0.1973 0.0158 0.2135
C7_7 C 0.2657(5) 0.2092(4) 0.2215(10)
H6_7 H 0.2506 0.1872 0.2983
C8_7 C 0.2912(4) 0.2358(4) 0.0199(10)
C9_7 C 0.1447(5) 0.4057(5) 0.2581(10)
C10_7 C 0.3045(4) 0.4053(4) 0.2681(9)
C11_7 C 0.3353(5) 0.4914(5) 0.3954(12)
H8_7 H 0.3314 0.5241 0.4063
H9_7 H 0.3737 0.5029 0.3732
H10_7 H 0.3252 0.4702 0.4777
C12_7 C 0.2032(5) 0.4275(5) 0.2175(10)
C13_7 C 0.1234(4) 0.4012(5) 0.3835(10)
H11_7 H 0.1449 0.4132 0.4618
C14_7 C 0.1624(6) 0.0055(7) 0.0305(18)
H12_7 H 0.1316 0.0098 0.0621
H13_7 H 0.1507 0.9661 0.0255
N8_3 N 0.3134(6) 0.9467(4) 0.2508(8)
H13_8 H 0.0339 0.1847 0.0255
O4_8 O 0.9493(3) 0.2498(4) 0.1800(7)
N1_8 N 0.7355(4) 0.0250(6) 0.2181(8)
N5_8 N 0.9063(4) 0.1358(6) 0.1516(8)
H2_8 H 0.8960 0.1243 0.2330
C1_8 C 0.8111(5) 0.0774(6) 0.0991(10)
C2_8 C 0.8684(4) 0.1152(6) 0.0573(9)
C4_8 C 0.9714(4) 0.2332(6) 0.0985(10)
C6_8 C 0.9654(5) 0.1772(7) 0.1269(11)
H5_8 H 0.9842 0.1816 0.2135
C7_8 C 0.7908(4) 0.0566(6) 0.2215(10)
H6_8 H 0.8128 0.0635 0.2983
C8_8 C 0.7642(4) 0.0555(6) 0.0199(10)
C14_8 C 0.9945(7) 0.1570(9) 0.0305(18)
H12_8 H 0.9902 0.1219 0.0621
O2_8 O 0.6328(3) 0.9145(4) 0.3524(7)
N2_8 N 0.5622(4) 0.8022(6) 0.3144(8)
H1_8 H 0.5661 0.7952 0.3971
O6_8 O 0.5675(4) 0.7837(5) 0.0990(7)
N4_6 N 0.6332(4) 0.6866(6) 0.2508(8)
C3_8 C 0.6164(5) 0.7156(6) 0.1789(9)
H3_8 H 0.6195 0.7194 0.0857
C5_8 C 0.5447(5) 0.8421(7) 0.2846(10)
H4_8 H 0.5230 0.8312 0.2008
C9_8 C 0.5943(5) 0.7391(7) 0.2581(10)
C10_8 C 0.5947(4) 0.8993(6) 0.2681(9)
C11_8 C 0.5086(5) 0.8440(7) 0.3954(12)
H8_8 H 0.4759 0.8074 0.4063
H9_8 H 0.4971 0.8709 0.3732
H10_8 H 0.5298 0.8551 0.4777
C12_8 C 0.5725(5) 0.7758(7) 0.2175(10)
C13_8 C 0.5988(5) 0.7223(6) 0.3835(10)
H11_8 H 0.5868 0.7318 0.4618
O2_9 O 0.0855(4) 0.7184(3) 0.3524(7)
N2_9 N 0.1978(6) 0.7601(4) 0.3144(8)
H1_9 H 0.2048 0.7710 0.3971
O6_9 O 0.2163(5) 0.7839(3) 0.0990(7)
C3_9 C 0.2844(6) 0.9009(4) 0.1789(9)
H3_9 H 0.2806 0.9002 0.0857
C5_9 C 0.1579(7) 0.7027(5) 0.2846(10)
H4_9 H 0.1688 0.6919 0.2008
C9_9 C 0.2609(7) 0.8553(5) 0.2581(10)
C10_9 C 0.1007(6) 0.6955(4) 0.2681(9)
C11_9 C 0.1560(7) 0.6647(5) 0.3954(12)
H8_9 H 0.1926 0.6686 0.4063
H9_9 H 0.1291 0.6263 0.3732
H10_9 H 0.1449 0.6748 0.4777
C12_9 C 0.2242(7) 0.7968(5) 0.2175(10)
C13_9 C 0.2777(6) 0.8766(4) 0.3835(10)
H11_9 H 0.2682 0.8551 0.4618
O4_9 O 0.7502(4) 0.6996(3) 0.1800(7)
N1_9 N 0.9750(6) 0.7106(4) 0.2181(8)
N5_9 N 0.8642(6) 0.7706(4) 0.1516(8)
H2_9 H 0.8757 0.7718 0.2330
C1_9 C 0.9226(6) 0.7338(4) 0.0991(10)
C2_9 C 0.8848(6) 0.7533(4) 0.0573(9)
C4_9 C 0.7668(6) 0.7383(4) 0.0985(10)
C6_9 C 0.8228(7) 0.7883(5) 0.1269(11)
H5_9 H 0.8184 0.8027 0.2135
C7_9 C 0.9434(6) 0.7343(5) 0.2215(10)
H6_9 H 0.9365 0.7494 0.2983
C8_9 C 0.9445(6) 0.7088(4) 0.0199(10)
C14_9 C 0.8430(9) 0.8376(6) 0.0305(18)
H12_9 H 0.8781 0.8684 0.0621
H13_9 H 0.8153 0.8493 0.0255
O5_7 O 0.8729(5) 0.7529(4) 0.9382(7)
H7_7 H 0.9375 0.7018 0.9283
H14_7 H 0.8483 0.8263 0.9428
O5_8 O 0.2471(4) 0.1201(3) 0.9382(7)
H7_8 H 0.2982 0.2358 0.9283
H14_8 H 0.1737 0.0221 0.9428
O5_9 O 0.8799(3) 0.1271(5) 0.9382(7)
H7_9 H 0.7642 0.0625 0.9283
H14_9 H 0.9779 0.1517 0.9428
loop_
_geom_bond_atom_site_label_1
_geom_bond_atom_site_label_2
_geom_bond_site_symmetry_1
_geom_bond_site_symmetry_2
H9 C11 1_555 1_555
Zn3 O1 1_555 1_555
O8 Zn2 1_555 1_555
N7 Zn2 1_555 1_555
Zn1 O2 1_555 1_555
O2 C10 1_555 1_555
O3 C4 1_555 1_555
O4 C4 1_555 1_555
O5 C2 1_555 1_555
N1 Zn1 1_555 1_555
N2 H1 1_555 1_555
N3 N4 1_555 1_555
O6 C12 1_555 1_555
N4 C3 1_555 1_555
N5 H2 1_555 1_555
C1 C2 1_555 1_555
N6 N1 1_555 1_555
C2 N5 1_555 1_555
C3 H3 1_555 1_555
C4 C6 1_555 1_555
C5 N2 1_555 1_555
H4 C5 1_555 1_555
C6 N5 1_555 1_555
H5 C6 1_555 1_555
C7 N1 1_555 1_555
H6 C7 1_555 1_555
C8 C1 1_555 1_555
H7 C8 1_555 1_555
C9 C3 1_555 1_555
C10 C5 1_555 1_555
C12 N2 1_555 1_555
C13 N3 1_555 1_555
H11 C13 1_555 1_555
C14 C6 1_555 1_555
H12 C14 1_555 1_555
H13 C14 1_555 1_555
H14 C14 1_555 1_555
Zn4 N4 1_555 1_555
Zn5 N3 1_555 1_555
Zn6 O3 1_555 1_555
O7 Zn1 1_555 1_555
C1 C7 1_555 1_555
N6 C8 1_555 1_555
C9 C12 1_555 1_555
C9 C13 1_555 1_555
Zn1_2 O2_2 1_555 1_555
Zn4 O4_2 1_555 1_555
O1_2 C10_2 1_555 1_555
O2_2 C10_2 1_555 1_555
O3_2 C4_2 1_555 1_555
O4_2 C4_2 1_555 1_555
O5_2 C2_2 1_555 1_555
N1_2 Zn1_2 1_555 1_555
N2_2 H1_2 1_555 1_555
N3_2 N4_2 1_555 1_555
O6_2 C12_2 1_555 1_555
N4_2 C3_2 1_555 1_555
N5_2 H2_2 1_555 1_555
C1_2 C2_2 1_555 1_555
N6_2 N1_2 1_555 1_555
C2_2 N5_2 1_555 1_555
C3_2 H3_2 1_555 1_555
C4_2 C6_2 1_555 1_555
C5_2 N2_2 1_555 1_555
H4_2 C5_2 1_555 1_555
C6_2 N5_2 1_555 1_555
H5_2 C6_2 1_555 1_555
C7_2 N1_2 1_555 1_555
H6_2 C7_2 1_555 1_555
C8_2 C1_2 1_555 1_555
H7_2 C8_2 1_555 1_555
C9_2 C3_2 1_555 1_555
C10_2 C5_2 1_555 1_555
C11_2 C5_2 1_555 1_555
H8_2 C11_2 1_555 1_555
H9_2 C11_2 1_555 1_555
H10_2 C11_2 1_555 1_555
C12_2 N2_2 1_555 1_555
C13_2 N3_2 1_555 1_555
H11_2 C13_2 1_555 1_555
C14_2 C6_2 1_555 1_555
H12_2 C14_2 1_555 1_555
H13_2 C14_2 1_555 1_555
H14_2 C14_2 1_555 1_555
Zn3_2 O1_2 1_555 1_555
Zn6_2 O3_2 1_555 1_555
O7_2 Zn1_2 1_555 1_555
O8_2 Zn4 1_555 1_555
N7_2 Zn4 1_555 1_555
N9_2 Zn1_2 1_555 1_555
C1_2 C7_2 1_555 1_555
N6_2 C8_2 1_555 1_555
N6_2 Zn3_2 1_555 1_555
C9_2 C12_2 1_555 1_555
C9_2 C13_2 1_555 1_555
Zn1_3 O2_3 1_555 1_555
O2_3 C10_3 1_555 1_555
O3_3 C4_3 1_555 1_555
O4_3 C4_3 1_555 1_555
O5_3 C2_3 1_555 1_555
N1_3 Zn1_3 1_555 1_555
N2_3 H1_3 1_555 1_555
N3_3 N8 1_555 1_555
O6_3 C12_3 1_555 1_555
N8 C3_3 1_555 1_555
N5_3 H2_3 1_555 1_555
C1_3 C2_3 1_555 1_555
N6_3 N1_3 1_555 1_555
C2_3 N5_3 1_555 1_555
C3_3 H3_3 1_555 1_555
C4_3 C6_3 1_555 1_555
C5_3 N2_3 1_555 1_555
H4_3 C5_3 1_555 1_555
C6_3 N5_3 1_555 1_555
H5_3 C6_3 1_555 1_555
C7_3 N1_3 1_555 1_555
H6_3 C7_3 1_555 1_555
C8_3 C1_3 1_555 1_555
H7_3 C8_3 1_555 1_555
C9_3 C3_3 1_555 1_555
C10_3 C5_3 1_555 1_555
C12_3 N2_3 1_555 1_555
C13_3 N3_3 1_555 1_555
H11_3 C13_3 1_555 1_555
C14_3 C6_3 1_555 1_555
H12_3 C14_3 1_555 1_555
H13_3 C14_3 1_555 1_555
H14_3 C14_3 1_555 1_555
Zn6_3 O3_3 1_555 1_555
O7_3 Zn1_3 1_555 1_555
C1_3 C7_3 1_555 1_555
N6_3 C8_3 1_555 1_555
C9_3 C12_3 1_555 1_555
C9_3 C13_3 1_555 1_555
H9_3 C11_3 1_555 1_555
Zn3_3 O1_3 1_555 1_555
O8_3 Zn4_2 1_555 1_555
N7_3 Zn4_2 1_555 1_555
H8_4 C11_4 1_555 1_555
H9_4 C11_4 1_555 1_555
H10_4 C11_4 1_555 1_555
C13_4 N3_4 1_555 1_555
H11_4 C13_4 1_555 1_555
Zn6_3 N3_4 1_555 1_555
O7_3 C10_4 1_555 1_555
O6_4 C12_4 1_555 1_555
N4_3 C3_4 1_555 1_555
C3_4 H3_4 1_555 1_555
C5_4 N2_4 1_555 1_555
H4_4 C5_4 1_555 1_555
C9_4 C3_4 1_555 1_555
C10_4 C5_4 1_555 1_555
C12_4 N2_4 1_555 1_555
C9_4 C12_4 1_555 1_555
O7_4 Zn1_4 1_555 1_555
Zn5 O4_4 1_555 1_555
O8_2 C4_4 1_555 1_555
O4_4 C4_4 1_555 1_555
O5_4 C2_4 1_555 1_555
N5_4 H2_4 1_555 1_555
C1_4 C2_4 1_555 1_555
N9_3 N1_4 1_555 1_555
C2_4 N5_4 1_555 1_555
C4_4 C6_4 1_555 1_555
C6_4 N5_4 1_555 1_555
H5_4 C6_4 1_555 1_555
C7_4 N1_4 1_555 1_555
H6_4 C7_4 1_555 1_555
C8_4 C1_4 1_555 1_555
H7_4 C8_4 1_555 1_555
C14_4 C6_4 1_555 1_555
H12_4 C14_4 1_555 1_555
H13_4 C14_4 1_555 1_555
H14_4 C14_4 1_555 1_555
N8_2 Zn5 1_555 1_555
C1_4 C7_4 1_555 1_555
N9_3 C8_4 1_555 1_555
O7_5 Zn1_5 1_555 1_555
Zn5_2 O4_5 1_555 1_555
O8_3 C4_5 1_555 1_555
O4_5 C4_5 1_555 1_555
O5_5 C2_5 1_555 1_555
N5_5 H2_5 1_555 1_555
C1_5 C2_5 1_555 1_555
N9 N1_5 1_555 1_555
C2_5 N5_5 1_555 1_555
C4_5 C6_5 1_555 1_555
C6_5 N5_5 1_555 1_555
H5_5 C6_5 1_555 1_555
C7_5 N1_5 1_555 1_555
H6_5 C7_5 1_555 1_555
C8_5 C1_5 1_555 1_555
H7_5 C8_5 1_555 1_555
C14_5 C6_5 1_555 1_555
H12_5 C14_5 1_555 1_555
H13_5 C14_5 1_555 1_555
H14_5 C14_5 1_555 1_555
C1_5 C7_5 1_555 1_555
N9 C8_5 1_555 1_555
H8_5 C11_5 1_555 1_555
H9_5 C11_5 1_555 1_555
H10_5 C11_5 1_555 1_555
C13_5 N3_5 1_555 1_555
H11_5 C13_5 1_555 1_555
Zn6 N3_5 1_555 1_555
O7 C10_5 1_555 1_555
O6_5 C12_5 1_555 1_555
N4_4 C3_5 1_555 1_555
C3_5 H3_5 1_555 1_555
C5_5 N2_5 1_555 1_555
H4_5 C5_5 1_555 1_555
C9_5 C3_5 1_555 1_555
C10_5 C5_5 1_555 1_555
C12_5 N2_5 1_555 1_555
C9_5 C12_5 1_555 1_555
Zn1_6 O2_6 1_555 1_555
H8_6 C11_6 1_555 1_555
H9_6 C11_6 1_555 1_555
H10_6 C11_6 1_555 1_555
C13_6 N3_6 1_555 1_555
H11_6 C13_6 1_555 1_555
Zn6_2 N3_6 1_555 1_555
O7_6 Zn1_6 1_555 1_555
N9_6 Zn1_6 1_555 1_555
Zn5_3 O4_6 1_555 1_555
O7_2 C10_6 1_555 1_555
O8 C4_6 1_555 1_555
O4_6 C4_6 1_555 1_555
O5_6 C2_6 1_555 1_555
O6_6 C12_6 1_555 1_555
N8_2 C3_6 1_555 1_555
N5_6 H2_6 1_555 1_555
C1_6 C2_6 1_555 1_555
N9_2 N1_6 1_555 1_555
C2_6 N5_6 1_555 1_555
C3_6 H3_6 1_555 1_555
C4_6 C6_6 1_555 1_555
C5_6 N2_6 1_555 1_555
H4_6 C5_6 1_555 1_555
C6_6 N5_6 1_555 1_555
H5_6 C6_6 1_555 1_555
C7_6 N1_6 1_555 1_555
H6_6 C7_6 1_555 1_555
C8_6 C1_6 1_555 1_555
H7_6 C8_6 1_555 1_555
C9_6 C3_6 1_555 1_555
C10_6 C5_6 1_555 1_555
C12_6 N2_6 1_555 1_555
C14_6 C6_6 1_555 1_555
H12_6 C14_6 1_555 1_555
H13_6 C14_6 1_555 1_555
H14_6 C14_6 1_555 1_555
C1_6 C7_6 1_555 1_555
N9_2 C8_6 1_555 1_555
C9_6 C12_6 1_555 1_555
Zn3_2 O2_7 1_555 1_555
Zn6_3 O4_7 1_555 1_555
O7_6 C10_7 1_555 1_555
O2_7 C10_7 1_555 1_555
O4_7 C4_7 1_555 1_555
N1_7 Zn3_2 1_555 1_555
N2_7 H1_7 1_555 1_555
N7 N4_5 1_555 1_555
O6_7 C12_7 1_555 1_555
N4_5 C3_7 1_555 1_555
N5_7 H2_7 1_555 1_555
C1_7 C2_7 1_555 1_555
N9_6 N1_7 1_555 1_555
C2_7 N5_7 1_555 1_555
C3_7 H3_7 1_555 1_555
C4_7 C6_7 1_555 1_555
C5_7 N2_7 1_555 1_555
H4_7 C5_7 1_555 1_555
C6_7 N5_7 1_555 1_555
H5_7 C6_7 1_555 1_555
C7_7 N1_7 1_555 1_555
H6_7 C7_7 1_555 1_555
C8_7 C1_7 1_555 1_555
C9_7 C3_7 1_555 1_555
C10_7 C5_7 1_555 1_555
C11_7 C5_7 1_555 1_555
H8_7 C11_7 1_555 1_555
H9_7 C11_7 1_555 1_555
H10_7 C11_7 1_555 1_555
C12_7 N2_7 1_555 1_555
C13_7 N7 1_555 1_555
H11_7 C13_7 1_555 1_555
C14_7 C6_7 1_555 1_555
H12_7 C14_7 1_555 1_555
C1_7 C7_7 1_555 1_555
N9_6 C8_7 1_555 1_555
C9_7 C12_7 1_555 1_555
C9_7 C13_7 1_555 1_555
Zn6 O4_8 1_555 1_555
O4_8 C4_8 1_555 1_555
N5_8 H2_8 1_555 1_555
C1_8 C2_8 1_555 1_555
N9_4 N1_8 1_555 1_555
C2_8 N5_8 1_555 1_555
C4_8 C6_8 1_555 1_555
C6_8 N5_8 1_555 1_555
H5_8 C6_8 1_555 1_555
C7_8 N1_8 1_555 1_555
H6_8 C7_8 1_555 1_555
C8_8 C1_8 1_555 1_555
C14_8 C6_8 1_555 1_555
H12_8 C14_8 1_555 1_555
C1_8 C7_8 1_555 1_555
N9_4 C8_8 1_555 1_555
Zn3_3 O2_8 1_555 1_555
O7_4 C10_8 1_555 1_555
O2_8 C10_8 1_555 1_555
N2_8 H1_8 1_555 1_555
N7_2 N4_6 1_555 1_555
O6_8 C12_8 1_555 1_555
N4_6 C3_8 1_555 1_555
C3_8 H3_8 1_555 1_555
C5_8 N2_8 1_555 1_555
H4_8 C5_8 1_555 1_555
C9_8 C3_8 1_555 1_555
C10_8 C5_8 1_555 1_555
C11_8 C5_8 1_555 1_555
H8_8 C11_8 1_555 1_555
H9_8 C11_8 1_555 1_555
H10_8 C11_8 1_555 1_555
C12_8 N2_8 1_555 1_555
C13_8 N7_2 1_555 1_555
H11_8 C13_8 1_555 1_555
Zn6_2 N4_6 1_555 1_555
C9_8 C12_8 1_555 1_555
C9_8 C13_8 1_555 1_555
Zn3 O2_9 1_555 1_555
O7_5 C10_9 1_555 1_555
O2_9 C10_9 1_555 1_555
N2_9 H1_9 1_555 1_555
N7_3 N8_3 1_555 1_555
O6_9 C12_9 1_555 1_555
N8_3 C3_9 1_555 1_555
C3_9 H3_9 1_555 1_555
C5_9 N2_9 1_555 1_555
H4_9 C5_9 1_555 1_555
C9_9 C3_9 1_555 1_555
C10_9 C5_9 1_555 1_555
C11_9 C5_9 1_555 1_555
H8_9 C11_9 1_555 1_555
H9_9 C11_9 1_555 1_555
H10_9 C11_9 1_555 1_555
C12_9 N2_9 1_555 1_555
C13_9 N7_3 1_555 1_555
H11_9 C13_9 1_555 1_555
C9_9 C12_9 1_555 1_555
C9_9 C13_9 1_555 1_555
Zn6_2 O4_9 1_555 1_555
O8_4 C4_9 1_555 1_555
O4_9 C4_9 1_555 1_555
N5_9 H2_9 1_555 1_555
C1_9 C2_9 1_555 1_555
N9_5 N1_9 1_555 1_555
C2_9 N5_9 1_555 1_555
C4_9 C6_9 1_555 1_555
C6_9 N5_9 1_555 1_555
H5_9 C6_9 1_555 1_555
C7_9 N1_9 1_555 1_555
H6_9 C7_9 1_555 1_555
C8_9 C1_9 1_555 1_555
C14_9 C6_9 1_555 1_555
H12_9 C14_9 1_555 1_555
H13_9 C14_9 1_555 1_555
C1_9 C7_9 1_555 1_555
N9_5 C8_9 1_555 1_555

#END
