
###############################################################################
#
# This file contains modified crystal structure data generated from the
# MOF subset of the Cambridge Structural Database (CSD) v543 
# hosted by the Cambridge Crystallographic Data Centre (CCDC).
#
# This work is licensed under the Creative Commons
# Attribution-NonCommercial-ShareAlike 4.0 International License.
# To view a copy of this license, visit
# http://creativecommons.org/licenses/by-nc-sa/4.0/
# or send a letter to
# Creative Commons, PO Box 1866, Mountain View, CA 94042, USA.
#
# CIF created using the CSD Python API on 29 September 2022
# The structure has been converted into the P1 space group
# The structure has a 3D framework
# The original CSD entry VUXCUP is in the rhombohedral crystal system
# The original CSD entry VUXCUP is in a Sohncke space group
# The framework has been calculated to contain at least 10.0% void space
# The void calculation uses a probe of radius 1.32A, grid spacing 0.4
#
###############################################################################

data_VUXCUP
_chemical_formula_moiety         '(C126 H126 N54 O51 Zn13)n'
_symmetry_cell_setting           triclinic
_symmetry_space_group_name_H-M   'P 1'
_symmetry_Int_Tables_number      1
_space_group_name_Hall           'P 1'
loop_
_symmetry_equiv_pos_site_id
_symmetry_equiv_pos_as_xyz
1 x,y,z
_cell_length_a                   27.9364(3)
_cell_length_b                   27.9364(3)
_cell_length_c                   10.20684(10)
_cell_angle_alpha                90
_cell_angle_beta                 90
_cell_angle_gamma                120
_cell_volume                     6898.63
loop_
_atom_site_label
_atom_site_type_symbol
_atom_site_fract_x
_atom_site_fract_y
_atom_site_fract_z
_atom_site_U_iso_or_equiv
_atom_site_thermal_displace_type
N8 N 0.7316(14) 0.0361(16) 0.644(10) 0.0080 Uiso
N9 N 0.6358(12) 0.0242(16) 0.844(10) 0.0080 Uiso
H8 H 0.6469(15) 0.5214(17) 0.023(3) 0.0080 Uiso
H9 H 0.5595(15) 0.4667(17) 0.025(6) 0.0080 Uiso
H13 H 0.4701(17) 0.411(2) 0.076(8) 0.0080 Uiso
Zn4 Zn 0.3485(3) 0.3246(3) 0.1340(12) 0.0080 Uiso
Zn1 Zn 0.6818(3) 0.9913(3) 0.8007(12) 0.0080 Uiso
Zn2 Zn 0.6674(5) 0.6412(4) 0.6355(12) 0.0080 Uiso
O1 O 0.6315(8) 0.9135(7) 0.772(2) 0.0080 Uiso
C1 C 0.5928(9) 0.8985(9) 0.690(3) 0.0080 Uiso
C2 C 0.5420(10) 0.8412(11) 0.709(3) 0.0080 Uiso
O2 O 0.5918(11) 0.9278(13) 0.597(3) 0.0080 Uiso
N1 N 0.5588(15) 0.8007(8) 0.739(4) 0.0080 Uiso
H1 H 0.5202(13) 0.8302(14) 0.628(4) 0.0080 Uiso
C3 C 0.5068(8) 0.8440(15) 0.819(4) 0.0080 Uiso
H2 H 0.5611(14) 0.7929(8) 0.819(4) 0.0080 Uiso
C4 C 0.571(2) 0.7753(9) 0.643(4) 0.0080 Uiso
H3 H 0.4730(9) 0.8092(17) 0.825(5) 0.0080 Uiso
H4 H 0.4984(9) 0.8727(18) 0.800(5) 0.0080 Uiso
H5 H 0.5267(10) 0.8519(14) 0.900(4) 0.0080 Uiso
O3 O 0.564(3) 0.7820(13) 0.525(4) 0.0080 Uiso
C5 C 0.592(3) 0.7390(11) 0.684(6) 0.0080 Uiso
C6 C 0.597(3) 0.7228(12) 0.810(7) 0.0080 Uiso
C7 C 0.613(3) 0.7135(16) 0.604(8) 0.0080 Uiso
H6 H 0.587(2) 0.7331(11) 0.886(6) 0.0080 Uiso
N2 N 0.619(3) 0.6905(17) 0.805(9) 0.0080 Uiso
N3 N 0.629(4) 0.6842(18) 0.676(10) 0.0080 Uiso
H7 H 0.615(4) 0.7164(18) 0.513(8) 0.0080 Uiso
O4 O 0.6752(8) 0.5949(8) 0.793(2) 0.0080 Uiso
C8 C 0.6414(9) 0.5710(10) 0.885(2) 0.0080 Uiso
O5 O 0.6161(11) 0.5903(13) 0.948(3) 0.0080 Uiso
C9 C 0.6322(11) 0.5147(12) 0.933(4) 0.0080 Uiso
N4 N 0.5730(12) 0.4757(13) 0.947(5) 0.0080 Uiso
C10 C 0.6642(10) 0.4925(10) 0.861(4) 0.0080 Uiso
C11 C 0.5388(9) 0.4532(9) 0.845(6) 0.0080 Uiso
H10 H 0.6577(12) 0.4587(11) 0.901(5) 0.0080 Uiso
H11 H 0.7030(10) 0.5192(10) 0.864(4) 0.0080 Uiso
H12 H 0.6523(9) 0.4856(8) 0.771(4) 0.0080 Uiso
C12 C 0.4795(10) 0.4172(11) 0.875(8) 0.0080 Uiso
O6 O 0.5554(9) 0.4617(10) 0.730(6) 0.0080 Uiso
C13 C 0.4527(14) 0.4011(16) 0.995(8) 0.0080 Uiso
C14 C 0.4368(9) 0.3927(11) 0.783(9) 0.0080 Uiso
N5 N 0.3983(14) 0.3694(16) 0.977(10) 0.0080 Uiso
N6 N 0.3884(10) 0.3642(12) 0.844(10) 0.0080 Uiso
H14 H 0.4413(10) 0.3959(13) 0.693(9) 0.0080 Uiso
Zn3 Zn 0.3095(4) 0.3182(3) 0.8007(12) 0.0080 Uiso
Zn5 Zn 0.6428(4) 0.9849(3) 0.4674(12) 0.0080 Uiso
Zn6 Zn 0.6405(6) 0.6659(5) 0.9688(12) 0.0080 Uiso
O7 O 0.7389(13) 0.9973(17) 0.930(3) 0.0080 Uiso
N7 N 0.6428(17) 0.5952(34) 0.472(9) 0.0080 Uiso
O8 O 0.7430(13) 0.6925(17) 0.615(3) 0.0080 Uiso
H8_2 H 0.4786(17) 0.1255(23) 0.023(3) 0.0080 Uiso
H9_2 H 0.5333(17) 0.0928(23) 0.025(6) 0.0080 Uiso
H13_2 H 0.589(2) 0.0591(26) 0.076(8) 0.0080 Uiso
Zn4_2 Zn 0.6754(3) 0.0238(4) 0.1340(12) 0.0080 Uiso
Zn2_2 Zn 0.3588(4) 0.0262(6) 0.6355(12) 0.0080 Uiso
O4_2 O 0.4051(8) 0.0803(11) 0.793(2) 0.0080 Uiso
C8_2 C 0.4290(10) 0.0704(13) 0.885(2) 0.0080 Uiso
O5_2 O 0.4097(13) 0.0258(17) 0.948(3) 0.0080 Uiso
C9_2 C 0.4853(12) 0.1175(16) 0.933(4) 0.0080 Uiso
N4_2 N 0.5243(13) 0.0973(18) 0.947(5) 0.0080 Uiso
C10_2 C 0.5075(10) 0.1717(14) 0.861(4) 0.0080 Uiso
C11_2 C 0.5468(9) 0.0856(13) 0.845(6) 0.0080 Uiso
H10_2 H 0.5413(11) 0.1990(16) 0.901(5) 0.0080 Uiso
H11_2 H 0.4808(10) 0.1838(14) 0.864(4) 0.0080 Uiso
H12_2 H 0.5144(8) 0.1667(12) 0.771(4) 0.0080 Uiso
C12_2 C 0.5828(11) 0.0623(15) 0.875(8) 0.0080 Uiso
O6_2 O 0.5383(10) 0.0937(13) 0.730(6) 0.0080 Uiso
C13_2 C 0.5989(16) 0.0516(21) 0.995(8) 0.0080 Uiso
C14_2 C 0.6073(11) 0.0441(14) 0.783(9) 0.0080 Uiso
N5_2 N 0.6306(16) 0.0289(21) 0.977(10) 0.0080 Uiso
H14_2 H 0.6041(13) 0.0454(16) 0.693(9) 0.0080 Uiso
N7_2 N 0.4048(34) 0.0477(38) 0.472(9) 0.0080 Uiso
O8_2 O 0.3075(17) 0.0506(21) 0.615(3) 0.0080 Uiso
Zn1_2 Zn 0.0087(3) 0.6905(4) 0.8007(12) 0.0080 Uiso
O1_2 O 0.0865(7) 0.7180(11) 0.772(2) 0.0080 Uiso
C1_2 C 0.1015(9) 0.6943(13) 0.690(3) 0.0080 Uiso
C2_2 C 0.1588(11) 0.7008(15) 0.709(3) 0.0080 Uiso
O2_2 O 0.0722(13) 0.6640(17) 0.597(3) 0.0080 Uiso
N1_2 N 0.1993(8) 0.7581(17) 0.739(4) 0.0080 Uiso
H1_2 H 0.1698(14) 0.6900(19) 0.628(4) 0.0080 Uiso
C3_2 C 0.1560(15) 0.6628(17) 0.819(4) 0.0080 Uiso
H2_2 H 0.2071(8) 0.7682(16) 0.819(4) 0.0080 Uiso
C4_2 C 0.2247(9) 0.7957(22) 0.643(4) 0.0080 Uiso
H3_2 H 0.1908(17) 0.6638(19) 0.825(5) 0.0080 Uiso
H4_2 H 0.1273(18) 0.6257(20) 0.800(5) 0.0080 Uiso
H5_2 H 0.1481(14) 0.6748(17) 0.900(4) 0.0080 Uiso
O3_2 O 0.2180(13) 0.7820(33) 0.525(4) 0.0080 Uiso
C5_2 C 0.2610(11) 0.8530(32) 0.684(6) 0.0080 Uiso
C6_2 C 0.2772(12) 0.8742(32) 0.810(7) 0.0080 Uiso
C7_2 C 0.2865(16) 0.8995(34) 0.604(8) 0.0080 Uiso
H6_2 H 0.2669(11) 0.8539(23) 0.886(6) 0.0080 Uiso
N2_2 N 0.3095(17) 0.9285(34) 0.805(9) 0.0080 Uiso
N3_2 N 0.3158(18) 0.9448(44) 0.676(10) 0.0080 Uiso
H7_2 H 0.2836(18) 0.8986(44) 0.513(8) 0.0080 Uiso
Zn5_2 Zn 0.0151(3) 0.6580(5) 0.4674(12) 0.0080 Uiso
Zn6_2 Zn 0.3341(5) 0.9745(8) 0.9688(12) 0.0080 Uiso
O7_2 O 0.0027(17) 0.7415(21) 0.930(3) 0.0080 Uiso
N8_2 N 0.9639(16) 0.6956(21) 0.644(10) 0.0080 Uiso
N9_2 N 0.9758(16) 0.6116(20) 0.844(10) 0.0080 Uiso
O1_3 O 0.2820(11) 0.3685(8) 0.772(2) 0.0080 Uiso
C1_3 C 0.3057(13) 0.4072(9) 0.690(3) 0.0080 Uiso
C2_3 C 0.2992(15) 0.4580(10) 0.709(3) 0.0080 Uiso
O2_3 O 0.3360(17) 0.4082(11) 0.597(3) 0.0080 Uiso
N1_3 N 0.2419(17) 0.4412(15) 0.739(4) 0.0080 Uiso
H1_3 H 0.3100(19) 0.4798(13) 0.628(4) 0.0080 Uiso
C3_3 C 0.3372(17) 0.4932(8) 0.819(4) 0.0080 Uiso
H2_3 H 0.2318(16) 0.4389(14) 0.819(4) 0.0080 Uiso
C4_3 C 0.2043(22) 0.429(2) 0.643(4) 0.0080 Uiso
H3_3 H 0.3362(19) 0.5270(9) 0.825(5) 0.0080 Uiso
H4_3 H 0.3743(20) 0.5016(9) 0.800(5) 0.0080 Uiso
H5_3 H 0.3252(17) 0.4733(10) 0.900(4) 0.0080 Uiso
O3_3 O 0.2180(33) 0.436(3) 0.525(4) 0.0080 Uiso
C5_3 C 0.1470(32) 0.408(3) 0.684(6) 0.0080 Uiso
C6_3 C 0.1258(32) 0.403(3) 0.810(7) 0.0080 Uiso
C7_3 C 0.1005(34) 0.387(3) 0.604(8) 0.0080 Uiso
H6_3 H 0.1461(23) 0.413(2) 0.886(6) 0.0080 Uiso
N2_3 N 0.0715(34) 0.381(3) 0.805(9) 0.0080 Uiso
N3_3 N 0.0552(44) 0.371(4) 0.676(10) 0.0080 Uiso
H7_3 H 0.1014(44) 0.385(4) 0.513(8) 0.0080 Uiso
Zn5_3 Zn 0.3420(5) 0.3572(4) 0.4674(12) 0.0080 Uiso
Zn6_3 Zn 0.0255(8) 0.3595(6) 0.9688(12) 0.0080 Uiso
O7_3 O 0.2585(21) 0.2611(13) 0.930(3) 0.0080 Uiso
N8_3 N 0.3044(21) 0.2684(14) 0.644(10) 0.0080 Uiso
H8_3 H 0.8745(23) 0.3531(15) 0.023(3) 0.0080 Uiso
H9_3 H 0.9072(23) 0.4405(15) 0.025(6) 0.0080 Uiso
H13_3 H 0.9409(26) 0.5299(17) 0.076(8) 0.0080 Uiso
Zn4_3 Zn 0.9762(4) 0.6515(3) 0.1340(12) 0.0080 Uiso
Zn2_3 Zn 0.9738(6) 0.3326(5) 0.6355(12) 0.0080 Uiso
O4_3 O 0.9197(11) 0.3248(8) 0.793(2) 0.0080 Uiso
C8_3 C 0.9296(13) 0.3586(9) 0.885(2) 0.0080 Uiso
O5_3 O 0.9742(17) 0.3839(11) 0.948(3) 0.0080 Uiso
C9_3 C 0.8825(16) 0.3678(11) 0.933(4) 0.0080 Uiso
N4_3 N 0.9027(18) 0.4270(12) 0.947(5) 0.0080 Uiso
C10_3 C 0.8283(14) 0.3358(10) 0.861(4) 0.0080 Uiso
C11_3 C 0.9144(13) 0.4612(9) 0.845(6) 0.0080 Uiso
H10_3 H 0.8010(16) 0.3423(12) 0.901(5) 0.0080 Uiso
H11_3 H 0.8162(14) 0.2970(10) 0.864(4) 0.0080 Uiso
H12_3 H 0.8333(12) 0.3477(9) 0.771(4) 0.0080 Uiso
C12_3 C 0.9377(15) 0.5205(10) 0.875(8) 0.0080 Uiso
O6_3 O 0.9063(13) 0.4446(9) 0.730(6) 0.0080 Uiso
C13_3 C 0.9484(21) 0.5473(14) 0.995(8) 0.0080 Uiso
C14_3 C 0.9559(14) 0.5632(9) 0.783(9) 0.0080 Uiso
N5_3 N 0.9711(21) 0.6017(14) 0.977(10) 0.0080 Uiso
H14_3 H 0.9546(16) 0.5587(10) 0.693(9) 0.0080 Uiso
N7_3 N 0.9523(38) 0.3572(17) 0.472(9) 0.0080 Uiso
O8_3 O 0.9494(21) 0.2570(13) 0.615(3) 0.0080 Uiso
O1_4 O 0.2982(8) 0.2468(7) 0.105(2) 0.0080 Uiso
C1_4 C 0.2595(9) 0.2318(9) 0.023(3) 0.0080 Uiso
C2_4 C 0.2087(10) 0.1745(11) 0.042(3) 0.0080 Uiso
N1_4 N 0.2255(15) 0.1340(8) 0.072(4) 0.0080 Uiso
C3_4 C 0.1735(8) 0.1773(15) 0.152(4) 0.0080 Uiso
H2_4 H 0.2278(14) 0.1262(8) 0.152(4) 0.0080 Uiso
H3_4 H 0.1397(9) 0.1425(17) 0.158(5) 0.0080 Uiso
H4_4 H 0.1651(9) 0.2060(18) 0.133(5) 0.0080 Uiso
H5_4 H 0.1934(10) 0.1852(14) 0.233(4) 0.0080 Uiso
C5_4 C 0.259(3) 0.0723(11) 0.017(6) 0.0080 Uiso
C6_4 C 0.264(3) 0.0561(12) 0.143(7) 0.0080 Uiso
H6_4 H 0.254(2) 0.0664(11) 0.219(6) 0.0080 Uiso
N2_4 N 0.286(3) 0.0238(17) 0.138(9) 0.0080 Uiso
N3_4 N 0.296(4) 0.0175(18) 0.009(10) 0.0080 Uiso
O7_4 O 0.4055(13) 0.3307(17) 0.264(3) 0.0080 Uiso
N9_3 N 0.3025(12) 0.3575(16) 0.177(10) 0.0080 Uiso
H1_4 H 0.1869(13) 0.1635(14) 0.961(4) 0.0080 Uiso
C4_4 C 0.238(2) 0.1086(9) 0.976(4) 0.0080 Uiso
O3_4 O 0.231(3) 0.1153(13) 0.858(4) 0.0080 Uiso
C7_4 C 0.280(3) 0.0468(16) 0.937(8) 0.0080 Uiso
H7_4 H 0.282(4) 0.0497(18) 0.846(8) 0.0080 Uiso
O4_4 O 0.3419(8) 0.9282(8) 0.126(2) 0.0080 Uiso
C8_4 C 0.3081(9) 0.9043(10) 0.218(2) 0.0080 Uiso
O5_4 O 0.2828(11) 0.9236(13) 0.281(3) 0.0080 Uiso
C9_4 C 0.2989(11) 0.8480(12) 0.266(4) 0.0080 Uiso
N4_4 N 0.2397(12) 0.8090(13) 0.280(5) 0.0080 Uiso
H8_4 H 0.3136(15) 0.8547(17) 0.356(3) 0.0080 Uiso
C10_4 C 0.3309(10) 0.8258(10) 0.194(4) 0.0080 Uiso
H9_4 H 0.2262(15) 0.8000(17) 0.358(6) 0.0080 Uiso
C11_4 C 0.2055(9) 0.7865(9) 0.178(6) 0.0080 Uiso
H10_4 H 0.3244(12) 0.7920(11) 0.234(5) 0.0080 Uiso
H11_4 H 0.3697(10) 0.8525(10) 0.197(4) 0.0080 Uiso
H12_4 H 0.3190(9) 0.8189(8) 0.104(4) 0.0080 Uiso
C12_4 C 0.1462(10) 0.7505(11) 0.208(8) 0.0080 Uiso
O6_4 O 0.2221(9) 0.7950(10) 0.063(6) 0.0080 Uiso
C13_4 C 0.1194(14) 0.7344(16) 0.328(8) 0.0080 Uiso
C14_4 C 0.1035(9) 0.7260(11) 0.116(9) 0.0080 Uiso
H13_4 H 0.1368(17) 0.744(2) 0.409(8) 0.0080 Uiso
N5_4 N 0.0650(14) 0.7027(16) 0.310(10) 0.0080 Uiso
N6_2 N 0.0551(10) 0.6975(12) 0.177(10) 0.0080 Uiso
H14_4 H 0.1080(10) 0.7292(13) 0.026(9) 0.0080 Uiso
Zn6_4 Zn 0.3071(6) 0.9993(5) 0.3022(12) 0.0080 Uiso
O4_5 O 0.0718(8) 0.4136(11) 0.126(2) 0.0080 Uiso
C8_5 C 0.0957(10) 0.4037(13) 0.218(2) 0.0080 Uiso
O5_5 O 0.0764(13) 0.3591(17) 0.281(3) 0.0080 Uiso
C9_5 C 0.1520(12) 0.4508(16) 0.266(4) 0.0080 Uiso
N4_5 N 0.1910(13) 0.4306(18) 0.280(5) 0.0080 Uiso
H8_5 H 0.1453(17) 0.4588(23) 0.356(3) 0.0080 Uiso
C10_5 C 0.1742(10) 0.5050(14) 0.194(4) 0.0080 Uiso
H9_5 H 0.2000(17) 0.4261(23) 0.358(6) 0.0080 Uiso
C11_5 C 0.2135(9) 0.4189(13) 0.178(6) 0.0080 Uiso
H10_5 H 0.2080(11) 0.5323(16) 0.234(5) 0.0080 Uiso
H11_5 H 0.1475(10) 0.5171(14) 0.197(4) 0.0080 Uiso
H12_5 H 0.1811(8) 0.5000(12) 0.104(4) 0.0080 Uiso
C12_5 C 0.2495(11) 0.3956(15) 0.208(8) 0.0080 Uiso
O6_5 O 0.2050(10) 0.4270(13) 0.063(6) 0.0080 Uiso
C13_5 C 0.2656(16) 0.3849(21) 0.328(8) 0.0080 Uiso
C14_5 C 0.2740(11) 0.3774(14) 0.116(9) 0.0080 Uiso
H13_5 H 0.256(2) 0.3924(26) 0.409(8) 0.0080 Uiso
N5_5 N 0.2973(16) 0.3622(21) 0.310(10) 0.0080 Uiso
H14_5 H 0.2708(13) 0.3787(16) 0.026(9) 0.0080 Uiso
Zn6_5 Zn 0.0007(5) 0.3079(8) 0.3022(12) 0.0080 Uiso
O1_5 O 0.7532(7) 0.0513(11) 0.105(2) 0.0080 Uiso
C1_5 C 0.7682(9) 0.0276(13) 0.023(3) 0.0080 Uiso
C2_5 C 0.8255(11) 0.0341(15) 0.042(3) 0.0080 Uiso
N1_5 N 0.8660(8) 0.0914(17) 0.072(4) 0.0080 Uiso
H2_5 H 0.8738(8) 0.1015(16) 0.152(4) 0.0080 Uiso
H5_5 H 0.8148(14) 0.0081(17) 0.233(4) 0.0080 Uiso
C5_5 C 0.9277(11) 0.1863(32) 0.017(6) 0.0080 Uiso
C6_5 C 0.9439(12) 0.2075(32) 0.143(7) 0.0080 Uiso
H6_5 H 0.9336(11) 0.1872(23) 0.219(6) 0.0080 Uiso
N2_5 N 0.9762(17) 0.2618(34) 0.138(9) 0.0080 Uiso
N3_5 N 0.9825(18) 0.2781(44) 0.009(10) 0.0080 Uiso
O7_5 O 0.6693(17) 0.0749(21) 0.264(3) 0.0080 Uiso
H1_5 H 0.8365(14) 0.0233(19) 0.961(4) 0.0080 Uiso
C4_5 C 0.8914(9) 0.1290(22) 0.976(4) 0.0080 Uiso
O3_5 O 0.8847(13) 0.1153(33) 0.858(4) 0.0080 Uiso
C7_5 C 0.9532(16) 0.2328(34) 0.937(8) 0.0080 Uiso
H7_5 H 0.9503(18) 0.2319(44) 0.846(8) 0.0080 Uiso
C3_5 C 0.8227(15) 0.9961(17) 0.152(4) 0.0080 Uiso
H3_5 H 0.8575(17) 0.9971(19) 0.158(5) 0.0080 Uiso
H4_5 H 0.7940(18) 0.9590(20) 0.133(5) 0.0080 Uiso
N9_4 N 0.6425(16) 0.9449(20) 0.177(10) 0.0080 Uiso
C3_6 C 0.0039(17) 0.8265(8) 0.152(4) 0.0080 Uiso
H3_6 H 0.0029(19) 0.8603(9) 0.158(5) 0.0080 Uiso
H4_6 H 0.0410(20) 0.8349(9) 0.133(5) 0.0080 Uiso
O1_6 O 0.9487(11) 0.7018(8) 0.105(2) 0.0080 Uiso
C1_6 C 0.9724(13) 0.7405(9) 0.023(3) 0.0080 Uiso
C2_6 C 0.9659(15) 0.7913(10) 0.042(3) 0.0080 Uiso
N1_6 N 0.9086(17) 0.7745(15) 0.072(4) 0.0080 Uiso
H2_6 H 0.8985(16) 0.7722(14) 0.152(4) 0.0080 Uiso
H5_6 H 0.9919(17) 0.8066(10) 0.233(4) 0.0080 Uiso
C5_6 C 0.8137(32) 0.741(3) 0.017(6) 0.0080 Uiso
C6_6 C 0.7925(32) 0.736(3) 0.143(7) 0.0080 Uiso
H6_6 H 0.8128(23) 0.746(2) 0.219(6) 0.0080 Uiso
N2_6 N 0.7382(34) 0.714(3) 0.138(9) 0.0080 Uiso
N3_6 N 0.7219(44) 0.704(4) 0.009(10) 0.0080 Uiso
O4_6 O 0.5864(11) 0.6581(8) 0.126(2) 0.0080 Uiso
C8_6 C 0.5963(13) 0.6919(9) 0.218(2) 0.0080 Uiso
O5_6 O 0.6409(17) 0.7172(11) 0.281(3) 0.0080 Uiso
C9_6 C 0.5492(16) 0.7011(11) 0.266(4) 0.0080 Uiso
N4_6 N 0.5694(18) 0.7603(12) 0.280(5) 0.0080 Uiso
H8_6 H 0.5412(23) 0.6864(15) 0.356(3) 0.0080 Uiso
C10_6 C 0.4950(14) 0.6691(10) 0.194(4) 0.0080 Uiso
H9_6 H 0.5739(23) 0.7738(15) 0.358(6) 0.0080 Uiso
C11_6 C 0.5811(13) 0.7945(9) 0.178(6) 0.0080 Uiso
H10_6 H 0.4677(16) 0.6756(12) 0.234(5) 0.0080 Uiso
H11_6 H 0.4829(14) 0.6303(10) 0.197(4) 0.0080 Uiso
H12_6 H 0.5000(12) 0.6810(9) 0.104(4) 0.0080 Uiso
C12_6 C 0.6044(15) 0.8538(10) 0.208(8) 0.0080 Uiso
O6_6 O 0.5730(13) 0.7779(9) 0.063(6) 0.0080 Uiso
C13_6 C 0.6151(21) 0.8806(14) 0.328(8) 0.0080 Uiso
C14_6 C 0.6226(14) 0.8965(9) 0.116(9) 0.0080 Uiso
H13_6 H 0.6076(26) 0.8632(17) 0.409(8) 0.0080 Uiso
N5_6 N 0.6378(21) 0.9350(14) 0.310(10) 0.0080 Uiso
H14_6 H 0.6213(16) 0.8920(10) 0.026(9) 0.0080 Uiso
Zn6_6 Zn 0.6921(8) 0.6929(6) 0.3022(12) 0.0080 Uiso
O7_6 O 0.9251(21) 0.5945(13) 0.264(3) 0.0080 Uiso
H1_6 H 0.9767(19) 0.8131(13) 0.961(4) 0.0080 Uiso
C4_6 C 0.8710(22) 0.762(2) 0.976(4) 0.0080 Uiso
O3_6 O 0.8847(33) 0.769(3) 0.858(4) 0.0080 Uiso
C7_6 C 0.7672(34) 0.720(3) 0.937(8) 0.0080 Uiso
H7_6 H 0.7681(44) 0.718(4) 0.846(8) 0.0080 Uiso
O4_7 O 0.0085(8) 0.2616(8) 0.460(2) 0.0080 Uiso
H11_7 H 0.0363(10) 0.1859(10) 0.531(4) 0.0080 Uiso
O1_7 O 0.9648(8) 0.5802(7) 0.439(2) 0.0080 Uiso
C1_7 C 0.9261(9) 0.5652(9) 0.357(3) 0.0080 Uiso
C2_7 C 0.8753(10) 0.5079(11) 0.376(3) 0.0080 Uiso
N1_7 N 0.8921(15) 0.4674(8) 0.406(4) 0.0080 Uiso
H1_7 H 0.8535(13) 0.4969(14) 0.295(4) 0.0080 Uiso
C3_7 C 0.8401(8) 0.5107(15) 0.486(4) 0.0080 Uiso
H2_7 H 0.8944(14) 0.4596(8) 0.486(4) 0.0080 Uiso
C4_7 C 0.904(2) 0.4420(9) 0.310(4) 0.0080 Uiso
H3_7 H 0.8063(9) 0.4759(17) 0.492(5) 0.0080 Uiso
H4_7 H 0.8317(9) 0.5394(18) 0.467(5) 0.0080 Uiso
H5_7 H 0.8600(10) 0.5186(14) 0.567(4) 0.0080 Uiso
O3_7 O 0.897(3) 0.4487(13) 0.192(4) 0.0080 Uiso
C5_7 C 0.925(3) 0.4057(11) 0.351(6) 0.0080 Uiso
C6_7 C 0.930(3) 0.3895(12) 0.477(7) 0.0080 Uiso
C7_7 C 0.946(3) 0.3802(16) 0.271(8) 0.0080 Uiso
H6_7 H 0.920(2) 0.3998(11) 0.553(6) 0.0080 Uiso
N3_7 N 0.962(4) 0.3509(18) 0.343(10) 0.0080 Uiso
H7_7 H 0.948(4) 0.3831(18) 0.180(8) 0.0080 Uiso
C8_7 C 0.9747(9) 0.2377(10) 0.552(2) 0.0080 Uiso
C9_7 C 0.9655(11) 0.1814(12) 0.600(4) 0.0080 Uiso
N4_7 N 0.9063(12) 0.1424(13) 0.614(5) 0.0080 Uiso
H8_7 H 0.9802(15) 0.1881(17) 0.690(3) 0.0080 Uiso
C10_7 C 0.9975(10) 0.1592(10) 0.528(4) 0.0080 Uiso
H9_7 H 0.8928(15) 0.1334(17) 0.692(6) 0.0080 Uiso
C11_7 C 0.8721(9) 0.1199(9) 0.512(6) 0.0080 Uiso
H10_7 H 0.9910(12) 0.1254(11) 0.568(5) 0.0080 Uiso
H12_7 H 0.9856(9) 0.1523(8) 0.438(4) 0.0080 Uiso
C12_7 C 0.8128(10) 0.0839(11) 0.542(8) 0.0080 Uiso
O6_7 O 0.8887(9) 0.1284(10) 0.397(6) 0.0080 Uiso
C13_7 C 0.7860(14) 0.0678(16) 0.662(8) 0.0080 Uiso
C14_7 C 0.7701(9) 0.0594(11) 0.450(9) 0.0080 Uiso
H13_7 H 0.8034(17) 0.078(2) 0.743(8) 0.0080 Uiso
N6_3 N 0.7217(10) 0.0309(12) 0.511(10) 0.0080 Uiso
H14_7 H 0.7746(10) 0.0626(13) 0.360(9) 0.0080 Uiso
N9_5 N 0.9691(12) 0.6909(16) 0.511(10) 0.0080 Uiso
O1_8 O 0.4198(7) 0.3847(11) 0.439(2) 0.0080 Uiso
C1_8 C 0.4348(9) 0.3610(13) 0.357(3) 0.0080 Uiso
C2_8 C 0.4921(11) 0.3675(15) 0.376(3) 0.0080 Uiso
N1_8 N 0.5326(8) 0.4248(17) 0.406(4) 0.0080 Uiso
H1_8 H 0.5031(14) 0.3567(19) 0.295(4) 0.0080 Uiso
C3_8 C 0.4893(15) 0.3295(17) 0.486(4) 0.0080 Uiso
H2_8 H 0.5404(8) 0.4349(16) 0.486(4) 0.0080 Uiso
C4_8 C 0.5580(9) 0.4624(22) 0.310(4) 0.0080 Uiso
H3_8 H 0.5241(17) 0.3305(19) 0.492(5) 0.0080 Uiso
H4_8 H 0.4606(18) 0.2924(20) 0.467(5) 0.0080 Uiso
H5_8 H 0.4814(14) 0.3415(17) 0.567(4) 0.0080 Uiso
O3_8 O 0.5513(13) 0.4487(33) 0.192(4) 0.0080 Uiso
C5_8 C 0.5943(11) 0.5197(32) 0.351(6) 0.0080 Uiso
C6_8 C 0.6105(12) 0.5409(32) 0.477(7) 0.0080 Uiso
C7_8 C 0.6198(16) 0.5662(34) 0.271(8) 0.0080 Uiso
H6_8 H 0.6002(11) 0.5206(23) 0.553(6) 0.0080 Uiso
N3_8 N 0.6491(18) 0.6115(44) 0.343(10) 0.0080 Uiso
H7_8 H 0.6169(18) 0.5653(44) 0.180(8) 0.0080 Uiso
O4_8 O 0.7384(8) 0.7470(11) 0.460(2) 0.0080 Uiso
C8_8 C 0.7623(10) 0.7371(13) 0.552(2) 0.0080 Uiso
C9_8 C 0.8186(12) 0.7842(16) 0.600(4) 0.0080 Uiso
N4_8 N 0.8576(13) 0.7640(18) 0.614(5) 0.0080 Uiso
H8_8 H 0.8119(17) 0.7922(23) 0.690(3) 0.0080 Uiso
C10_8 C 0.8408(10) 0.8384(14) 0.528(4) 0.0080 Uiso
H9_8 H 0.8666(17) 0.7595(23) 0.692(6) 0.0080 Uiso
C11_8 C 0.8801(9) 0.7523(13) 0.512(6) 0.0080 Uiso
H10_8 H 0.8746(11) 0.8657(16) 0.568(5) 0.0080 Uiso
H11_8 H 0.8141(10) 0.8505(14) 0.531(4) 0.0080 Uiso
H12_8 H 0.8477(8) 0.8334(12) 0.438(4) 0.0080 Uiso
C12_8 C 0.9161(11) 0.7290(15) 0.542(8) 0.0080 Uiso
O6_8 O 0.8716(10) 0.7604(13) 0.397(6) 0.0080 Uiso
C13_8 C 0.9322(16) 0.7183(21) 0.662(8) 0.0080 Uiso
C14_8 C 0.9406(11) 0.7108(14) 0.450(9) 0.0080 Uiso
H13_8 H 0.922(2) 0.7258(26) 0.743(8) 0.0080 Uiso
H14_8 H 0.9374(13) 0.7121(16) 0.360(9) 0.0080 Uiso
N9_6 N 0.3091(16) 0.2783(20) 0.511(10) 0.0080 Uiso
O1_9 O 0.6153(11) 0.0352(8) 0.439(2) 0.0080 Uiso
C1_9 C 0.6390(13) 0.0739(9) 0.357(3) 0.0080 Uiso
C2_9 C 0.6325(15) 0.1247(10) 0.376(3) 0.0080 Uiso
N1_9 N 0.5752(17) 0.1079(15) 0.406(4) 0.0080 Uiso
H1_9 H 0.6433(19) 0.1465(13) 0.295(4) 0.0080 Uiso
C3_9 C 0.6705(17) 0.1599(8) 0.486(4) 0.0080 Uiso
H2_9 H 0.5651(16) 0.1056(14) 0.486(4) 0.0080 Uiso
C4_9 C 0.5376(22) 0.096(2) 0.310(4) 0.0080 Uiso
H3_9 H 0.6695(19) 0.1937(9) 0.492(5) 0.0080 Uiso
H4_9 H 0.7076(20) 0.1683(9) 0.467(5) 0.0080 Uiso
H5_9 H 0.6585(17) 0.1400(10) 0.567(4) 0.0080 Uiso
O3_9 O 0.5513(33) 0.103(3) 0.192(4) 0.0080 Uiso
C5_9 C 0.4803(32) 0.075(3) 0.351(6) 0.0080 Uiso
C6_9 C 0.4591(32) 0.070(3) 0.477(7) 0.0080 Uiso
C7_9 C 0.4338(34) 0.054(3) 0.271(8) 0.0080 Uiso
H6_9 H 0.4794(23) 0.080(2) 0.553(6) 0.0080 Uiso
N3_9 N 0.3885(44) 0.038(4) 0.343(10) 0.0080 Uiso
H7_9 H 0.4347(44) 0.052(4) 0.180(8) 0.0080 Uiso
C8_9 C 0.2629(13) 0.0253(9) 0.552(2) 0.0080 Uiso
C9_9 C 0.2158(16) 0.0345(11) 0.600(4) 0.0080 Uiso
N4_9 N 0.2360(18) 0.0937(12) 0.614(5) 0.0080 Uiso
H8_9 H 0.2078(23) 0.0198(15) 0.690(3) 0.0080 Uiso
C10_9 C 0.1616(14) 0.0025(10) 0.528(4) 0.0080 Uiso
H9_9 H 0.2405(23) 0.1072(15) 0.692(6) 0.0080 Uiso
C11_9 C 0.2477(13) 0.1279(9) 0.512(6) 0.0080 Uiso
H10_9 H 0.1343(16) 0.0090(12) 0.568(5) 0.0080 Uiso
H12_9 H 0.1666(12) 0.0144(9) 0.438(4) 0.0080 Uiso
C12_9 C 0.2710(15) 0.1872(10) 0.542(8) 0.0080 Uiso
O6_9 O 0.2396(13) 0.1113(9) 0.397(6) 0.0080 Uiso
C13_9 C 0.2817(21) 0.2140(14) 0.662(8) 0.0080 Uiso
C14_9 C 0.2892(14) 0.2299(9) 0.450(9) 0.0080 Uiso
H13_9 H 0.2742(26) 0.1966(17) 0.743(8) 0.0080 Uiso
H14_9 H 0.2879(16) 0.2254(10) 0.360(9) 0.0080 Uiso
O4_9 O 0.2530(11) 0.9915(8) 0.460(2) 0.0080 Uiso
H11_9 H 0.1495(14) 0.9637(10) 0.531(4) 0.0080 Uiso
loop_
_geom_bond_atom_site_label_1
_geom_bond_atom_site_label_2
_geom_bond_site_symmetry_1
_geom_bond_site_symmetry_2
Zn1 O1 1_555 1_555
Zn2 N3 1_555 1_555
O1 C1 1_555 1_555
C1 C2 1_555 1_555
C2 N1 1_555 1_555
O2 C1 1_555 1_555
N1 H2 1_555 1_555
H1 C2 1_555 1_555
C3 C2 1_555 1_555
C4 N1 1_555 1_555
H3 C3 1_555 1_555
H4 C3 1_555 1_555
H5 C3 1_555 1_555
O3 C4 1_555 1_555
C5 C4 1_555 1_555
C6 C5 1_555 1_555
C7 C5 1_555 1_555
H6 C6 1_555 1_555
N2 C6 1_555 1_555
N3 C7 1_555 1_555
H7 C7 1_555 1_555
O4 Zn2 1_555 1_555
C8 O4 1_555 1_555
O5 C8 1_555 1_555
C9 C8 1_555 1_555
N4 C9 1_555 1_555
C10 C9 1_555 1_555
C11 N4 1_555 1_555
H10 C10 1_555 1_555
H11 C10 1_555 1_555
H12 C10 1_555 1_555
C12 C11 1_555 1_555
O6 C11 1_555 1_555
C13 C12 1_555 1_555
C14 C12 1_555 1_555
N5 C13 1_555 1_555
N6 C14 1_555 1_555
H14 C14 1_555 1_555
Zn3 N6 1_555 1_555
Zn5 O2 1_555 1_555
Zn6 N2 1_555 1_555
O7 Zn1 1_555 1_555
N7 Zn2 1_555 1_555
O8 Zn2 1_555 1_555
N2 N3 1_555 1_555
O5 Zn6 1_555 1_555
N5 N6 1_555 1_555
O4_2 Zn2_2 1_555 1_555
C8_2 O4_2 1_555 1_555
O5_2 C8_2 1_555 1_555
C9_2 C8_2 1_555 1_555
N4_2 C9_2 1_555 1_555
C10_2 C9_2 1_555 1_555
C11_2 N4_2 1_555 1_555
H10_2 C10_2 1_555 1_555
H11_2 C10_2 1_555 1_555
H12_2 C10_2 1_555 1_555
C12_2 C11_2 1_555 1_555
O6_2 C11_2 1_555 1_555
C13_2 C12_2 1_555 1_555
C14_2 C12_2 1_555 1_555
N5_2 C13_2 1_555 1_555
N9 C14_2 1_555 1_555
H14_2 C14_2 1_555 1_555
N7_2 Zn2_2 1_555 1_555
O8_2 Zn2_2 1_555 1_555
N5_2 N9 1_555 1_555
Zn1_2 O1_2 1_555 1_555
O1_2 C1_2 1_555 1_555
C1_2 C2_2 1_555 1_555
C2_2 N1_2 1_555 1_555
O2_2 C1_2 1_555 1_555
N1_2 H2_2 1_555 1_555
H1_2 C2_2 1_555 1_555
C3_2 C2_2 1_555 1_555
C4_2 N1_2 1_555 1_555
H3_2 C3_2 1_555 1_555
H4_2 C3_2 1_555 1_555
H5_2 C3_2 1_555 1_555
O3_2 C4_2 1_555 1_555
C5_2 C4_2 1_555 1_555
C6_2 C5_2 1_555 1_555
C7_2 C5_2 1_555 1_555
H6_2 C6_2 1_555 1_555
N2_2 C6_2 1_555 1_555
N3_2 C7_2 1_555 1_555
H7_2 C7_2 1_555 1_555
Zn5_2 O2_2 1_555 1_555
Zn6_2 N2_2 1_555 1_555
O7_2 Zn1_2 1_555 1_555
N2_2 N3_2 1_555 1_555
Zn3 O1_3 1_555 1_555
O1_3 C1_3 1_555 1_555
C1_3 C2_3 1_555 1_555
C2_3 N1_3 1_555 1_555
O2_3 C1_3 1_555 1_555
N1_3 H2_3 1_555 1_555
H1_3 C2_3 1_555 1_555
C3_3 C2_3 1_555 1_555
C4_3 N1_3 1_555 1_555
H3_3 C3_3 1_555 1_555
H4_3 C3_3 1_555 1_555
H5_3 C3_3 1_555 1_555
O3_3 C4_3 1_555 1_555
C5_3 C4_3 1_555 1_555
C6_3 C5_3 1_555 1_555
C7_3 C5_3 1_555 1_555
H6_3 C6_3 1_555 1_555
N2_3 C6_3 1_555 1_555
N3_3 C7_3 1_555 1_555
H7_3 C7_3 1_555 1_555
Zn5_3 O2_3 1_555 1_555
Zn6_3 N2_3 1_555 1_555
O7_3 Zn3 1_555 1_555
N8_3 Zn3 1_555 1_555
N2_3 N3_3 1_555 1_555
O4_3 Zn2_3 1_555 1_555
C8_3 O4_3 1_555 1_555
O5_3 C8_3 1_555 1_555
C9_3 C8_3 1_555 1_555
N4_3 C9_3 1_555 1_555
C10_3 C9_3 1_555 1_555
C11_3 N4_3 1_555 1_555
H10_3 C10_3 1_555 1_555
H11_3 C10_3 1_555 1_555
H12_3 C10_3 1_555 1_555
C12_3 C11_3 1_555 1_555
O6_3 C11_3 1_555 1_555
C13_3 C12_3 1_555 1_555
C14_3 C12_3 1_555 1_555
N5_3 C13_3 1_555 1_555
N9_2 C14_3 1_555 1_555
H14_3 C14_3 1_555 1_555
N7_3 Zn2_3 1_555 1_555
O8_3 Zn2_3 1_555 1_555
N5_3 N9_2 1_555 1_555
Zn4 O1_4 1_555 1_555
O1_4 C1_4 1_555 1_555
C1_4 C2_4 1_555 1_555
C2_4 N1_4 1_555 1_555
N1_4 H2_4 1_555 1_555
C3_4 C2_4 1_555 1_555
H3_4 C3_4 1_555 1_555
H4_4 C3_4 1_555 1_555
H5_4 C3_4 1_555 1_555
C6_4 C5_4 1_555 1_555
H6_4 C6_4 1_555 1_555
N2_4 C6_4 1_555 1_555
O7_4 Zn4 1_555 1_555
N9_3 Zn4 1_555 1_555
N2_4 N3_4 1_555 1_555
O3_4 C4_4 1_555 1_555
H7_4 C7_4 1_555 1_555
C8_4 O4_4 1_555 1_555
O5_4 C8_4 1_555 1_555
C9_4 C8_4 1_555 1_555
N4_4 C9_4 1_555 1_555
H8_4 C9_4 1_555 1_555
C10_4 C9_4 1_555 1_555
H9_4 N4_4 1_555 1_555
C11_4 N4_4 1_555 1_555
H10_4 C10_4 1_555 1_555
H11_4 C10_4 1_555 1_555
H12_4 C10_4 1_555 1_555
C12_4 C11_4 1_555 1_555
O6_4 C11_4 1_555 1_555
C13_4 C12_4 1_555 1_555
C14_4 C12_4 1_555 1_555
H13_4 C13_4 1_555 1_555
N5_4 C13_4 1_555 1_555
N6_2 C14_4 1_555 1_555
H14_4 C14_4 1_555 1_555
Zn5_2 N5_4 1_555 1_555
O5_4 Zn6_4 1_555 1_555
N5_4 N6_2 1_555 1_555
C8_5 O4_5 1_555 1_555
O5_5 C8_5 1_555 1_555
C9_5 C8_5 1_555 1_555
N4_5 C9_5 1_555 1_555
H8_5 C9_5 1_555 1_555
C10_5 C9_5 1_555 1_555
H9_5 N4_5 1_555 1_555
C11_5 N4_5 1_555 1_555
H10_5 C10_5 1_555 1_555
H11_5 C10_5 1_555 1_555
H12_5 C10_5 1_555 1_555
C12_5 C11_5 1_555 1_555
O6_5 C11_5 1_555 1_555
C13_5 C12_5 1_555 1_555
C14_5 C12_5 1_555 1_555
H13_5 C13_5 1_555 1_555
N5_5 C13_5 1_555 1_555
N9_3 C14_5 1_555 1_555
H14_5 C14_5 1_555 1_555
Zn5_3 N5_5 1_555 1_555
O5_5 Zn6_5 1_555 1_555
N5_5 N9_3 1_555 1_555
Zn4_2 O1_5 1_555 1_555
O1_5 C1_5 1_555 1_555
C1_5 C2_5 1_555 1_555
C2_5 N1_5 1_555 1_555
N1_5 H2_5 1_555 1_555
C6_5 C5_5 1_555 1_555
H6_5 C6_5 1_555 1_555
N2_5 C6_5 1_555 1_555
O7_5 Zn4_2 1_555 1_555
N2_5 N3_5 1_555 1_555
O3_5 C4_5 1_555 1_555
H7_5 C7_5 1_555 1_555
H3_5 C3_5 1_555 1_555
H4_5 C3_5 1_555 1_555
H3_6 C3_6 1_555 1_555
H4_6 C3_6 1_555 1_555
Zn4_3 O1_6 1_555 1_555
O1_6 C1_6 1_555 1_555
C1_6 C2_6 1_555 1_555
C2_6 N1_6 1_555 1_555
N1_6 H2_6 1_555 1_555
C6_6 C5_6 1_555 1_555
H6_6 C6_6 1_555 1_555
N2_6 C6_6 1_555 1_555
C8_6 O4_6 1_555 1_555
O5_6 C8_6 1_555 1_555
C9_6 C8_6 1_555 1_555
N4_6 C9_6 1_555 1_555
H8_6 C9_6 1_555 1_555
C10_6 C9_6 1_555 1_555
H9_6 N4_6 1_555 1_555
C11_6 N4_6 1_555 1_555
H10_6 C10_6 1_555 1_555
H11_6 C10_6 1_555 1_555
H12_6 C10_6 1_555 1_555
C12_6 C11_6 1_555 1_555
O6_6 C11_6 1_555 1_555
C13_6 C12_6 1_555 1_555
C14_6 C12_6 1_555 1_555
H13_6 C13_6 1_555 1_555
N5_6 C13_6 1_555 1_555
N9_4 C14_6 1_555 1_555
H14_6 C14_6 1_555 1_555
Zn5 N5_6 1_555 1_555
Zn6_6 N2_6 1_555 1_555
O7_6 Zn4_3 1_555 1_555
N2_6 N3_6 1_555 1_555
O5_6 Zn6_6 1_555 1_555
N5_6 N9_4 1_555 1_555
O3_6 C4_6 1_555 1_555
H7_6 C7_6 1_555 1_555
O4_7 Zn6_5 1_555 1_555
O1_7 C1_7 1_555 1_555
C1_7 C2_7 1_555 1_555
C2_7 N1_7 1_555 1_555
O7_6 C1_7 1_555 1_555
N1_7 H2_7 1_555 1_555
H1_7 C2_7 1_555 1_555
C3_7 C2_7 1_555 1_555
C4_7 N1_7 1_555 1_555
H3_7 C3_7 1_555 1_555
H4_7 C3_7 1_555 1_555
H5_7 C3_7 1_555 1_555
O3_7 C4_7 1_555 1_555
C5_7 C4_7 1_555 1_555
C6_7 C5_7 1_555 1_555
C7_7 C5_7 1_555 1_555
H6_7 C6_7 1_555 1_555
N7_3 C6_7 1_555 1_555
N3_7 C7_7 1_555 1_555
H7_7 C7_7 1_555 1_555
O8_3 C8_7 1_555 1_555
C9_7 C8_7 1_555 1_555
N4_7 C9_7 1_555 1_555
H8_7 C9_7 1_555 1_555
C10_7 C9_7 1_555 1_555
H9_7 N4_7 1_555 1_555
C11_7 N4_7 1_555 1_555
H10_7 C10_7 1_555 1_555
H12_7 C10_7 1_555 1_555
C12_7 C11_7 1_555 1_555
O6_7 C11_7 1_555 1_555
C13_7 C12_7 1_555 1_555
C14_7 C12_7 1_555 1_555
H13_7 C13_7 1_555 1_555
N8 C13_7 1_555 1_555
N6_3 C14_7 1_555 1_555
H14_7 C14_7 1_555 1_555
N7_3 N3_7 1_555 1_555
N8 N6_3 1_555 1_555
Zn5_3 O1_8 1_555 1_555
Zn6_6 N3_8 1_555 1_555
O1_8 C1_8 1_555 1_555
C1_8 C2_8 1_555 1_555
C2_8 N1_8 1_555 1_555
O7_4 C1_8 1_555 1_555
N1_8 H2_8 1_555 1_555
H1_8 C2_8 1_555 1_555
C3_8 C2_8 1_555 1_555
C4_8 N1_8 1_555 1_555
H3_8 C3_8 1_555 1_555
H4_8 C3_8 1_555 1_555
H5_8 C3_8 1_555 1_555
O3_8 C4_8 1_555 1_555
C5_8 C4_8 1_555 1_555
C6_8 C5_8 1_555 1_555
C7_8 C5_8 1_555 1_555
H6_8 C6_8 1_555 1_555
N7 C6_8 1_555 1_555
N3_8 C7_8 1_555 1_555
H7_8 C7_8 1_555 1_555
O4_8 Zn6_6 1_555 1_555
C8_8 O4_8 1_555 1_555
O8 C8_8 1_555 1_555
C9_8 C8_8 1_555 1_555
N4_8 C9_8 1_555 1_555
H8_8 C9_8 1_555 1_555
C10_8 C9_8 1_555 1_555
H9_8 N4_8 1_555 1_555
C11_8 N4_8 1_555 1_555
H10_8 C10_8 1_555 1_555
H11_8 C10_8 1_555 1_555
H12_8 C10_8 1_555 1_555
C12_8 C11_8 1_555 1_555
O6_8 C11_8 1_555 1_555
C13_8 C12_8 1_555 1_555
C14_8 C12_8 1_555 1_555
H13_8 C13_8 1_555 1_555
N8_2 C13_8 1_555 1_555
N9_5 C14_8 1_555 1_555
H14_8 C14_8 1_555 1_555
N9_6 Zn5_3 1_555 1_555
N7 N3_8 1_555 1_555
N8_2 N9_5 1_555 1_555
O1_9 C1_9 1_555 1_555
C1_9 C2_9 1_555 1_555
C2_9 N1_9 1_555 1_555
O7_5 C1_9 1_555 1_555
N1_9 H2_9 1_555 1_555
H1_9 C2_9 1_555 1_555
C3_9 C2_9 1_555 1_555
C4_9 N1_9 1_555 1_555
H3_9 C3_9 1_555 1_555
H4_9 C3_9 1_555 1_555
H5_9 C3_9 1_555 1_555
O3_9 C4_9 1_555 1_555
C5_9 C4_9 1_555 1_555
C6_9 C5_9 1_555 1_555
C7_9 C5_9 1_555 1_555
H6_9 C6_9 1_555 1_555
N7_2 C6_9 1_555 1_555
N3_9 C7_9 1_555 1_555
H7_9 C7_9 1_555 1_555
O8_2 C8_9 1_555 1_555
C9_9 C8_9 1_555 1_555
N4_9 C9_9 1_555 1_555
H8_9 C9_9 1_555 1_555
C10_9 C9_9 1_555 1_555
H9_9 N4_9 1_555 1_555
C11_9 N4_9 1_555 1_555
H10_9 C10_9 1_555 1_555
H12_9 C10_9 1_555 1_555
C12_9 C11_9 1_555 1_555
O6_9 C11_9 1_555 1_555
C13_9 C12_9 1_555 1_555
C14_9 C12_9 1_555 1_555
H13_9 C13_9 1_555 1_555
N8_3 C13_9 1_555 1_555
N9_6 C14_9 1_555 1_555
H14_9 C14_9 1_555 1_555
N7_2 N3_9 1_555 1_555
N8_3 N9_6 1_555 1_555
O4_9 Zn6_4 1_555 1_555

#END
