
###############################################################################
#
# This file contains modified crystal structure data generated from the
# MOF subset of the Cambridge Structural Database (CSD) v543 
# hosted by the Cambridge Crystallographic Data Centre (CCDC).
#
# This work is licensed under the Creative Commons
# Attribution-NonCommercial-ShareAlike 4.0 International License.
# To view a copy of this license, visit
# http://creativecommons.org/licenses/by-nc-sa/4.0/
# or send a letter to
# Creative Commons, PO Box 1866, Mountain View, CA 94042, USA.
#
# CIF created using the CSD Python API on 29 September 2022
# The structure has been converted into the P1 space group
# The structure has a 3D framework
# The original CSD entry VUXCOJ is in the rhombohedral crystal system
# The original CSD entry VUXCOJ is in a Sohncke space group
# The framework has been calculated to contain at least 10.0% void space
# The void calculation uses a probe of radius 1.32A, grid spacing 0.4
#
###############################################################################

data_VUXCOJ
_chemical_formula_moiety         '(C126 H126 N54 O51 Zn13)n'
_symmetry_cell_setting           triclinic
_symmetry_space_group_name_H-M   'P 1'
_symmetry_Int_Tables_number      1
_space_group_name_Hall           'P 1'
loop_
_symmetry_equiv_pos_site_id
_symmetry_equiv_pos_as_xyz
1 x,y,z
_cell_length_a                   24.01615(19)
_cell_length_b                   24.01615(19)
_cell_length_c                   10.22311(6)
_cell_angle_alpha                90
_cell_angle_beta                 90
_cell_angle_gamma                120
_cell_volume                     5106.47
loop_
_atom_site_label
_atom_site_type_symbol
_atom_site_fract_x
_atom_site_fract_y
_atom_site_fract_z
_atom_site_U_iso_or_equiv
_atom_site_thermal_displace_type
N8 N 0.7350(11) 0.0012(13) 0.661(5) 0.0246 Uiso
N9 N 0.6615(11) 0.0482(14) 0.865(5) 0.0246 Uiso
H8 H 0.6915(10) 0.5076(12) 0.026(2) 0.0246 Uiso
H12 H 0.5889(11) 0.4336(12) 0.037(3) 0.0246 Uiso
C13 C 0.4657(11) 0.3606(12) 0.004(4) 0.0246 Uiso
H13 H 0.4881(13) 0.3632(15) 0.098(4) 0.0246 Uiso
Zn4 Zn 0.3494(4) 0.3168(4) 0.1518(10) 0.0246 Uiso
Zn1 Zn 0.6827(4) 0.9835(4) 0.8185(10) 0.0246 Uiso
Zn2 Zn 0.6808(4) 0.6466(4) 0.6550(11) 0.0246 Uiso
O1 O 0.6011(6) 0.9009(7) 0.7988(15) 0.0246 Uiso
C1 C 0.5597(7) 0.8927(8) 0.7115(18) 0.0246 Uiso
C2 C 0.4934(7) 0.8312(9) 0.725(3) 0.0246 Uiso
O2 O 0.5679(11) 0.9310(9) 0.6179(18) 0.0246 Uiso
C3 C 0.4542(6) 0.8405(10) 0.831(3) 0.0246 Uiso
H1 H 0.4689(10) 0.8219(11) 0.630(3) 0.0246 Uiso
N1 N 0.5027(8) 0.7771(7) 0.756(3) 0.0246 Uiso
H2 H 0.4488(7) 0.8825(12) 0.810(4) 0.0246 Uiso
H3 H 0.4061(6) 0.7976(12) 0.837(4) 0.0246 Uiso
H4 H 0.4779(9) 0.8479(10) 0.927(3) 0.0246 Uiso
C4 C 0.5200(13) 0.7492(8) 0.660(2) 0.0246 Uiso
H5 H 0.5154(8) 0.7748(7) 0.851(2) 0.0246 Uiso
C5 C 0.5505(14) 0.7125(8) 0.702(2) 0.0246 Uiso
O3 O 0.5127(17) 0.7570(10) 0.541(3) 0.0246 Uiso
C6 C 0.5602(14) 0.6978(8) 0.830(3) 0.0246 Uiso
C7 C 0.5852(19) 0.6928(10) 0.623(3) 0.0246 Uiso
H6 H 0.5429(13) 0.7053(8) 0.923(3) 0.0246 Uiso
N2 N 0.5979(16) 0.6715(10) 0.827(3) 0.0246 Uiso
H7 H 0.592(2) 0.6966(12) 0.517(3) 0.0246 Uiso
N3 N 0.6138(19) 0.6685(11) 0.699(3) 0.0246 Uiso
O4 O 0.6942(7) 0.5932(6) 0.7971(17) 0.0246 Uiso
C8 C 0.6646(7) 0.5584(7) 0.8953(18) 0.0246 Uiso
C9 C 0.6704(9) 0.4984(8) 0.927(3) 0.0246 Uiso
O5 O 0.6300(8) 0.5685(10) 0.9761(18) 0.0246 Uiso
C10 C 0.7138(9) 0.4873(7) 0.834(3) 0.0246 Uiso
N4 N 0.6055(10) 0.4430(9) 0.942(3) 0.0246 Uiso
H9 H 0.7625(9) 0.5296(8) 0.835(2) 0.0246 Uiso
H10 H 0.7167(11) 0.4451(9) 0.867(4) 0.0246 Uiso
H11 H 0.6952(9) 0.4790(7) 0.734(3) 0.0246 Uiso
C11 C 0.5618(9) 0.4215(6) 0.843(4) 0.0246 Uiso
C12 C 0.4938(10) 0.3823(8) 0.880(4) 0.0246 Uiso
O6 O 0.5775(8) 0.4366(7) 0.726(3) 0.0246 Uiso
C14 C 0.4418(9) 0.3668(9) 0.796(4) 0.0246 Uiso
N5 N 0.4017(11) 0.3345(13) 0.994(5) 0.0246 Uiso
H14 H 0.4425(8) 0.3762(11) 0.692(4) 0.0246 Uiso
N6 N 0.3867(9) 0.3385(11) 0.865(5) 0.0246 Uiso
Zn3 Zn 0.3008(6) 0.3173(4) 0.8185(10) 0.0246 Uiso
Zn5 Zn 0.6341(6) 0.9840(4) 0.4852(10) 0.0246 Uiso
Zn6 Zn 0.6325(6) 0.6525(4) 0.9883(11) 0.0246 Uiso
O7 O 0.7357(9) 0.9702(14) 0.9512(18) 0.0246 Uiso
N7 N 0.6618(10) 0.5931(19) 0.494(3) 0.0246 Uiso
O8 O 0.7648(10) 0.7282(13) 0.6428(18) 0.0246 Uiso
H8_2 H 0.4924(12) 0.1839(16) 0.026(2) 0.0246 Uiso
H12_2 H 0.5664(12) 0.1553(16) 0.037(3) 0.0246 Uiso
C13_2 C 0.6394(12) 0.1051(16) 0.004(4) 0.0246 Uiso
H13_2 H 0.6368(15) 0.1249(20) 0.098(4) 0.0246 Uiso
Zn4_2 Zn 0.6832(4) 0.0325(6) 0.1518(10) 0.0246 Uiso
Zn2_2 Zn 0.3534(4) 0.0342(6) 0.6550(11) 0.0246 Uiso
O4_2 O 0.4068(6) 0.1010(9) 0.7971(17) 0.0246 Uiso
C8_2 C 0.4416(7) 0.1062(10) 0.8953(18) 0.0246 Uiso
C9_2 C 0.5016(8) 0.1720(12) 0.927(3) 0.0246 Uiso
O5_2 O 0.4315(10) 0.0615(13) 0.9761(18) 0.0246 Uiso
C10_2 C 0.5127(7) 0.2265(11) 0.834(3) 0.0246 Uiso
N4_2 N 0.5570(9) 0.1625(13) 0.942(3) 0.0246 Uiso
H9_2 H 0.4704(8) 0.2329(12) 0.835(2) 0.0246 Uiso
H10_2 H 0.5549(9) 0.2716(14) 0.867(4) 0.0246 Uiso
H11_2 H 0.5210(7) 0.2162(11) 0.734(3) 0.0246 Uiso
C11_2 C 0.5785(6) 0.1403(11) 0.843(4) 0.0246 Uiso
C12_2 C 0.6177(8) 0.1115(13) 0.880(4) 0.0246 Uiso
O6_2 O 0.5634(7) 0.1409(11) 0.726(3) 0.0246 Uiso
C14_2 C 0.6332(9) 0.0750(13) 0.796(4) 0.0246 Uiso
N5_2 N 0.6655(13) 0.0672(17) 0.994(5) 0.0246 Uiso
H14_2 H 0.6238(11) 0.0663(14) 0.692(4) 0.0246 Uiso
N7_2 N 0.4069(19) 0.0688(21) 0.494(3) 0.0246 Uiso
O8_2 O 0.2718(13) 0.0367(16) 0.6428(18) 0.0246 Uiso
Zn1_2 Zn 0.0165(4) 0.6992(6) 0.8185(10) 0.0246 Uiso
O1_2 O 0.0991(7) 0.7002(9) 0.7988(15) 0.0246 Uiso
C1_2 C 0.1073(8) 0.6670(11) 0.7115(18) 0.0246 Uiso
C2_2 C 0.1688(9) 0.6622(11) 0.725(3) 0.0246 Uiso
O2_2 O 0.0690(9) 0.6369(14) 0.6179(18) 0.0246 Uiso
C3_2 C 0.1595(10) 0.6137(12) 0.831(3) 0.0246 Uiso
H1_2 H 0.1781(11) 0.6470(15) 0.630(3) 0.0246 Uiso
N1_2 N 0.2229(7) 0.7256(11) 0.756(3) 0.0246 Uiso
H2_2 H 0.1175(12) 0.5663(14) 0.810(4) 0.0246 Uiso
H3_2 H 0.2024(12) 0.6085(13) 0.837(4) 0.0246 Uiso
H4_2 H 0.1521(10) 0.6300(13) 0.927(3) 0.0246 Uiso
C4_2 C 0.2508(8) 0.7708(15) 0.660(2) 0.0246 Uiso
H5_2 H 0.2252(7) 0.7406(11) 0.851(2) 0.0246 Uiso
C5_2 C 0.2875(8) 0.8380(16) 0.702(2) 0.0246 Uiso
O3_2 O 0.2430(10) 0.7557(20) 0.541(3) 0.0246 Uiso
C6_2 C 0.3022(8) 0.8624(16) 0.830(3) 0.0246 Uiso
C7_2 C 0.3072(10) 0.8924(21) 0.623(3) 0.0246 Uiso
H6_2 H 0.2947(8) 0.8376(15) 0.923(3) 0.0246 Uiso
N2_2 N 0.3285(10) 0.9264(19) 0.827(3) 0.0246 Uiso
H7_2 H 0.3034(12) 0.8954(23) 0.517(3) 0.0246 Uiso
N3_2 N 0.3315(11) 0.9453(22) 0.699(3) 0.0246 Uiso
Zn5_2 Zn 0.0160(4) 0.6502(7) 0.4852(10) 0.0246 Uiso
Zn6_2 Zn 0.3475(4) 0.9799(7) 0.9883(11) 0.0246 Uiso
O7_2 O 0.0298(14) 0.7654(17) 0.9512(18) 0.0246 Uiso
N8_2 N 0.9988(13) 0.7339(17) 0.661(5) 0.0246 Uiso
N9_2 N 0.9518(14) 0.6133(18) 0.865(5) 0.0246 Uiso
O1_3 O 0.2998(9) 0.3989(6) 0.7988(15) 0.0246 Uiso
C1_3 C 0.3330(11) 0.4403(7) 0.7115(18) 0.0246 Uiso
C2_3 C 0.3378(11) 0.5066(7) 0.725(3) 0.0246 Uiso
O2_3 O 0.3631(14) 0.4321(11) 0.6179(18) 0.0246 Uiso
C3_3 C 0.3863(12) 0.5458(6) 0.831(3) 0.0246 Uiso
H1_3 H 0.3530(15) 0.5311(10) 0.630(3) 0.0246 Uiso
N1_3 N 0.2744(11) 0.4973(8) 0.756(3) 0.0246 Uiso
H2_3 H 0.4337(14) 0.5512(7) 0.810(4) 0.0246 Uiso
H3_3 H 0.3915(13) 0.5939(6) 0.837(4) 0.0246 Uiso
H4_3 H 0.3700(13) 0.5221(9) 0.927(3) 0.0246 Uiso
C4_3 C 0.2292(15) 0.4800(13) 0.660(2) 0.0246 Uiso
H5_3 H 0.2594(11) 0.4846(8) 0.851(2) 0.0246 Uiso
C5_3 C 0.1620(16) 0.4495(14) 0.702(2) 0.0246 Uiso
O3_3 O 0.2443(20) 0.4873(17) 0.541(3) 0.0246 Uiso
C6_3 C 0.1376(16) 0.4398(14) 0.830(3) 0.0246 Uiso
C7_3 C 0.1076(21) 0.4148(19) 0.623(3) 0.0246 Uiso
H6_3 H 0.1624(15) 0.4571(13) 0.923(3) 0.0246 Uiso
N2_3 N 0.0736(19) 0.4021(16) 0.827(3) 0.0246 Uiso
H7_3 H 0.1046(23) 0.408(2) 0.517(3) 0.0246 Uiso
N3_3 N 0.0547(22) 0.3862(19) 0.699(3) 0.0246 Uiso
Zn5_3 Zn 0.3498(7) 0.3659(6) 0.4852(10) 0.0246 Uiso
Zn6_3 Zn 0.0201(7) 0.3675(6) 0.9883(11) 0.0246 Uiso
O7_3 O 0.2346(17) 0.2643(9) 0.9512(18) 0.0246 Uiso
N8_3 N 0.2661(17) 0.2650(11) 0.661(5) 0.0246 Uiso
H8_3 H 0.8161(16) 0.3085(10) 0.026(2) 0.0246 Uiso
H12_3 H 0.8447(16) 0.4111(11) 0.037(3) 0.0246 Uiso
C13_3 C 0.8949(16) 0.5343(11) 0.004(4) 0.0246 Uiso
H13_3 H 0.8751(20) 0.5119(13) 0.098(4) 0.0246 Uiso
Zn4_3 Zn 0.9675(6) 0.6506(4) 0.1518(10) 0.0246 Uiso
Zn2_3 Zn 0.9658(6) 0.3192(4) 0.6550(11) 0.0246 Uiso
O4_3 O 0.8990(9) 0.3058(7) 0.7971(17) 0.0246 Uiso
C8_3 C 0.8938(10) 0.3354(7) 0.8953(18) 0.0246 Uiso
C9_3 C 0.8280(12) 0.3296(9) 0.927(3) 0.0246 Uiso
O5_3 O 0.9385(13) 0.3700(8) 0.9761(18) 0.0246 Uiso
C10_3 C 0.7735(11) 0.2862(9) 0.834(3) 0.0246 Uiso
N4_3 N 0.8375(13) 0.3945(10) 0.942(3) 0.0246 Uiso
H9_3 H 0.7671(12) 0.2375(9) 0.835(2) 0.0246 Uiso
H10_3 H 0.7284(14) 0.2833(11) 0.867(4) 0.0246 Uiso
H11_3 H 0.7838(11) 0.3048(9) 0.734(3) 0.0246 Uiso
C11_3 C 0.8597(11) 0.4382(9) 0.843(4) 0.0246 Uiso
C12_3 C 0.8885(13) 0.5062(10) 0.880(4) 0.0246 Uiso
O6_3 O 0.8591(11) 0.4225(8) 0.726(3) 0.0246 Uiso
C14_3 C 0.9250(13) 0.5582(9) 0.796(4) 0.0246 Uiso
N5_3 N 0.9328(17) 0.5983(11) 0.994(5) 0.0246 Uiso
H14_3 H 0.9337(14) 0.5575(8) 0.692(4) 0.0246 Uiso
N7_3 N 0.9312(21) 0.3382(10) 0.494(3) 0.0246 Uiso
O8_3 O 0.9633(16) 0.2352(10) 0.6428(18) 0.0246 Uiso
O1_4 O 0.2678(6) 0.2342(7) 0.1321(15) 0.0246 Uiso
C1_4 C 0.2264(7) 0.2260(8) 0.0448(18) 0.0246 Uiso
C2_4 C 0.1601(7) 0.1645(9) 0.058(3) 0.0246 Uiso
C3_4 C 0.1209(6) 0.1738(10) 0.164(3) 0.0246 Uiso
N1_4 N 0.1694(8) 0.1104(7) 0.089(3) 0.0246 Uiso
H2_4 H 0.1155(7) 0.2158(12) 0.143(4) 0.0246 Uiso
H3_4 H 0.0728(6) 0.1309(12) 0.170(4) 0.0246 Uiso
H4_4 H 0.1446(9) 0.1812(10) 0.260(3) 0.0246 Uiso
H5_4 H 0.1821(8) 0.1081(7) 0.184(2) 0.0246 Uiso
C5_4 C 0.2172(14) 0.0458(8) 0.035(2) 0.0246 Uiso
C6_4 C 0.2269(14) 0.0311(8) 0.163(3) 0.0246 Uiso
H6_4 H 0.2096(13) 0.0386(8) 0.256(3) 0.0246 Uiso
N2_4 N 0.2646(16) 0.0048(10) 0.160(3) 0.0246 Uiso
N3_4 N 0.2805(19) 0.0018(11) 0.032(3) 0.0246 Uiso
O7_4 O 0.4023(9) 0.3036(14) 0.2846(18) 0.0246 Uiso
N9_3 N 0.3282(11) 0.3815(14) 0.198(5) 0.0246 Uiso
H1_4 H 0.1356(10) 0.1552(11) 0.963(3) 0.0246 Uiso
C4_4 C 0.1867(13) 0.0825(8) 0.993(2) 0.0246 Uiso
O3_4 O 0.1794(17) 0.0903(10) 0.874(3) 0.0246 Uiso
C7_4 C 0.2519(19) 0.0261(10) 0.956(3) 0.0246 Uiso
H7_4 H 0.259(2) 0.0299(12) 0.850(3) 0.0246 Uiso
O4_4 O 0.3609(7) 0.9265(6) 0.1304(17) 0.0246 Uiso
C8_4 C 0.3313(7) 0.8917(7) 0.2286(18) 0.0246 Uiso
C9_4 C 0.3371(9) 0.8317(8) 0.260(3) 0.0246 Uiso
O5_4 O 0.2967(8) 0.9018(10) 0.3094(18) 0.0246 Uiso
C10_4 C 0.3805(9) 0.8206(7) 0.167(3) 0.0246 Uiso
H8_4 H 0.3582(10) 0.8409(12) 0.359(2) 0.0246 Uiso
N4_4 N 0.2722(10) 0.7763(9) 0.275(3) 0.0246 Uiso
H9_4 H 0.4292(9) 0.8629(8) 0.168(2) 0.0246 Uiso
H10_4 H 0.3834(11) 0.7784(9) 0.200(4) 0.0246 Uiso
H11_4 H 0.3619(9) 0.8123(7) 0.067(3) 0.0246 Uiso
C11_4 C 0.2285(9) 0.7548(6) 0.176(4) 0.0246 Uiso
H12_4 H 0.2556(11) 0.7669(12) 0.370(3) 0.0246 Uiso
C12_4 C 0.1605(10) 0.7156(8) 0.213(4) 0.0246 Uiso
O6_4 O 0.2442(8) 0.7699(7) 0.059(3) 0.0246 Uiso
C13_4 C 0.1324(11) 0.6939(12) 0.337(4) 0.0246 Uiso
C14_4 C 0.1085(9) 0.7001(9) 0.129(4) 0.0246 Uiso
H13_4 H 0.1548(13) 0.6965(15) 0.431(4) 0.0246 Uiso
N5_4 N 0.0684(11) 0.6678(13) 0.327(5) 0.0246 Uiso
H14_4 H 0.1092(8) 0.7095(11) 0.025(4) 0.0246 Uiso
N6_2 N 0.0534(9) 0.6718(11) 0.198(5) 0.0246 Uiso
Zn6_4 Zn 0.2991(6) 0.9859(4) 0.3217(11) 0.0246 Uiso
O4_5 O 0.0735(6) 0.4343(9) 0.1304(17) 0.0246 Uiso
C8_5 C 0.1083(7) 0.4395(10) 0.2286(18) 0.0246 Uiso
C9_5 C 0.1683(8) 0.5053(12) 0.260(3) 0.0246 Uiso
O5_5 O 0.0982(10) 0.3948(13) 0.3094(18) 0.0246 Uiso
C10_5 C 0.1794(7) 0.5598(11) 0.167(3) 0.0246 Uiso
H8_5 H 0.1591(12) 0.5172(16) 0.359(2) 0.0246 Uiso
N4_5 N 0.2237(9) 0.4958(13) 0.275(3) 0.0246 Uiso
H9_5 H 0.1371(8) 0.5662(12) 0.168(2) 0.0246 Uiso
H10_5 H 0.2216(9) 0.6049(14) 0.200(4) 0.0246 Uiso
H11_5 H 0.1877(7) 0.5495(11) 0.067(3) 0.0246 Uiso
C11_5 C 0.2452(6) 0.4736(11) 0.176(4) 0.0246 Uiso
H12_5 H 0.2331(12) 0.4886(16) 0.370(3) 0.0246 Uiso
C12_5 C 0.2844(8) 0.4448(13) 0.213(4) 0.0246 Uiso
O6_5 O 0.2301(7) 0.4742(11) 0.059(3) 0.0246 Uiso
C13_5 C 0.3061(12) 0.4384(16) 0.337(4) 0.0246 Uiso
C14_5 C 0.2999(9) 0.4083(13) 0.129(4) 0.0246 Uiso
H13_5 H 0.3035(15) 0.4582(20) 0.431(4) 0.0246 Uiso
N5_5 N 0.3322(13) 0.4005(17) 0.327(5) 0.0246 Uiso
H14_5 H 0.2905(11) 0.3996(14) 0.025(4) 0.0246 Uiso
Zn6_5 Zn 0.0141(4) 0.3133(7) 0.3217(11) 0.0246 Uiso
O1_5 O 0.7658(7) 0.0335(9) 0.1321(15) 0.0246 Uiso
C1_5 C 0.7740(8) 0.0003(11) 0.0448(18) 0.0246 Uiso
N1_5 N 0.8896(7) 0.0589(11) 0.089(3) 0.0246 Uiso
H5_5 H 0.8919(7) 0.0739(11) 0.184(2) 0.0246 Uiso
C5_5 C 0.9542(8) 0.1713(16) 0.035(2) 0.0246 Uiso
C6_5 C 0.9689(8) 0.1957(16) 0.163(3) 0.0246 Uiso
H6_5 H 0.9614(8) 0.1709(15) 0.256(3) 0.0246 Uiso
N2_5 N 0.9952(10) 0.2597(19) 0.160(3) 0.0246 Uiso
N3_5 N 0.9982(11) 0.2786(22) 0.032(3) 0.0246 Uiso
O7_5 O 0.6964(14) 0.0988(17) 0.2846(18) 0.0246 Uiso
C4_5 C 0.9175(8) 0.1041(15) 0.993(2) 0.0246 Uiso
O3_5 O 0.9097(10) 0.0890(20) 0.874(3) 0.0246 Uiso
C7_5 C 0.9739(10) 0.2257(21) 0.956(3) 0.0246 Uiso
H7_5 H 0.9701(12) 0.2287(23) 0.850(3) 0.0246 Uiso
C2_5 C 0.8355(9) 0.9955(11) 0.058(3) 0.0246 Uiso
C3_5 C 0.8262(10) 0.9470(12) 0.164(3) 0.0246 Uiso
H2_5 H 0.7842(12) 0.8996(14) 0.143(4) 0.0246 Uiso
H3_5 H 0.8691(12) 0.9418(13) 0.170(4) 0.0246 Uiso
H4_5 H 0.8188(10) 0.9633(13) 0.260(3) 0.0246 Uiso
N9_4 N 0.6185(14) 0.9466(18) 0.198(5) 0.0246 Uiso
H1_5 H 0.8448(11) 0.9803(15) 0.963(3) 0.0246 Uiso
C2_6 C 0.0045(11) 0.8399(7) 0.058(3) 0.0246 Uiso
C3_6 C 0.0530(12) 0.8791(6) 0.164(3) 0.0246 Uiso
H2_6 H 0.1004(14) 0.8845(7) 0.143(4) 0.0246 Uiso
H3_6 H 0.0582(13) 0.9272(6) 0.170(4) 0.0246 Uiso
H4_6 H 0.0367(13) 0.8554(9) 0.260(3) 0.0246 Uiso
H1_6 H 0.0197(15) 0.8644(10) 0.963(3) 0.0246 Uiso
O1_6 O 0.9665(9) 0.7322(6) 0.1321(15) 0.0246 Uiso
C1_6 C 0.9997(11) 0.7736(7) 0.0448(18) 0.0246 Uiso
N1_6 N 0.9411(11) 0.8306(8) 0.089(3) 0.0246 Uiso
H5_6 H 0.9261(11) 0.8179(8) 0.184(2) 0.0246 Uiso
C5_6 C 0.8287(16) 0.7828(14) 0.035(2) 0.0246 Uiso
C6_6 C 0.8043(16) 0.7731(14) 0.163(3) 0.0246 Uiso
H6_6 H 0.8291(15) 0.7904(13) 0.256(3) 0.0246 Uiso
N2_6 N 0.7403(19) 0.7354(16) 0.160(3) 0.0246 Uiso
N3_6 N 0.7214(22) 0.7195(19) 0.032(3) 0.0246 Uiso
O4_6 O 0.5657(9) 0.6391(7) 0.1304(17) 0.0246 Uiso
C8_6 C 0.5605(10) 0.6687(7) 0.2286(18) 0.0246 Uiso
C9_6 C 0.4947(12) 0.6629(9) 0.260(3) 0.0246 Uiso
O5_6 O 0.6052(13) 0.7033(8) 0.3094(18) 0.0246 Uiso
C10_6 C 0.4402(11) 0.6195(9) 0.167(3) 0.0246 Uiso
H8_6 H 0.4828(16) 0.6418(10) 0.359(2) 0.0246 Uiso
N4_6 N 0.5042(13) 0.7278(10) 0.275(3) 0.0246 Uiso
H9_6 H 0.4338(12) 0.5708(9) 0.168(2) 0.0246 Uiso
H10_6 H 0.3951(14) 0.6166(11) 0.200(4) 0.0246 Uiso
H11_6 H 0.4505(11) 0.6381(9) 0.067(3) 0.0246 Uiso
C11_6 C 0.5264(11) 0.7715(9) 0.176(4) 0.0246 Uiso
H12_6 H 0.5114(16) 0.7444(11) 0.370(3) 0.0246 Uiso
C12_6 C 0.5552(13) 0.8395(10) 0.213(4) 0.0246 Uiso
O6_6 O 0.5258(11) 0.7558(8) 0.059(3) 0.0246 Uiso
C13_6 C 0.5616(16) 0.8676(11) 0.337(4) 0.0246 Uiso
C14_6 C 0.5917(13) 0.8915(9) 0.129(4) 0.0246 Uiso
H13_6 H 0.5418(20) 0.8452(13) 0.431(4) 0.0246 Uiso
N5_6 N 0.5995(17) 0.9316(11) 0.327(5) 0.0246 Uiso
H14_6 H 0.6004(14) 0.8908(8) 0.025(4) 0.0246 Uiso
Zn6_6 Zn 0.6867(7) 0.7009(6) 0.3217(11) 0.0246 Uiso
O7_6 O 0.9012(17) 0.5977(9) 0.2846(18) 0.0246 Uiso
C4_6 C 0.8959(15) 0.8133(13) 0.993(2) 0.0246 Uiso
O3_6 O 0.9110(20) 0.8206(17) 0.874(3) 0.0246 Uiso
C7_6 C 0.7743(21) 0.7481(19) 0.956(3) 0.0246 Uiso
H7_6 H 0.7713(23) 0.741(2) 0.850(3) 0.0246 Uiso
O4_7 O 0.0275(7) 0.2599(6) 0.4638(17) 0.0246 Uiso
C9_7 C 0.0037(9) 0.1651(8) 0.594(3) 0.0246 Uiso
C10_7 C 0.0471(9) 0.1540(7) 0.501(3) 0.0246 Uiso
H8_7 H 0.0248(10) 0.1743(12) 0.693(2) 0.0246 Uiso
H9_7 H 0.0958(9) 0.1963(8) 0.502(2) 0.0246 Uiso
H10_7 H 0.0500(11) 0.1118(9) 0.534(4) 0.0246 Uiso
H11_7 H 0.0285(9) 0.1457(7) 0.401(3) 0.0246 Uiso
O1_7 O 0.9344(6) 0.5676(7) 0.4655(15) 0.0246 Uiso
C1_7 C 0.8930(7) 0.5594(8) 0.3782(18) 0.0246 Uiso
C2_7 C 0.8267(7) 0.4979(9) 0.392(3) 0.0246 Uiso
C3_7 C 0.7875(6) 0.5072(10) 0.498(3) 0.0246 Uiso
H1_7 H 0.8022(10) 0.4886(11) 0.297(3) 0.0246 Uiso
N1_7 N 0.8360(8) 0.4438(7) 0.423(3) 0.0246 Uiso
H2_7 H 0.7821(7) 0.5492(12) 0.477(4) 0.0246 Uiso
H3_7 H 0.7394(6) 0.4643(12) 0.504(4) 0.0246 Uiso
H4_7 H 0.8112(9) 0.5146(10) 0.594(3) 0.0246 Uiso
C4_7 C 0.8533(13) 0.4159(8) 0.327(2) 0.0246 Uiso
H5_7 H 0.8487(8) 0.4415(7) 0.518(2) 0.0246 Uiso
C5_7 C 0.8838(14) 0.3792(8) 0.369(2) 0.0246 Uiso
O3_7 O 0.8460(17) 0.4237(10) 0.208(3) 0.0246 Uiso
C6_7 C 0.8935(14) 0.3645(8) 0.497(3) 0.0246 Uiso
C7_7 C 0.9185(19) 0.3595(10) 0.290(3) 0.0246 Uiso
H6_7 H 0.8762(13) 0.3720(8) 0.590(3) 0.0246 Uiso
H7_7 H 0.925(2) 0.3633(12) 0.184(3) 0.0246 Uiso
N3_7 N 0.9471(19) 0.3352(11) 0.366(3) 0.0246 Uiso
C8_7 C 0.9979(7) 0.2251(7) 0.5620(18) 0.0246 Uiso
N4_7 N 0.9388(10) 0.1097(9) 0.609(3) 0.0246 Uiso
C11_7 C 0.8951(9) 0.0882(6) 0.510(4) 0.0246 Uiso
H12_7 H 0.9222(11) 0.1003(12) 0.704(3) 0.0246 Uiso
C12_7 C 0.8271(10) 0.0490(8) 0.547(4) 0.0246 Uiso
O6_7 O 0.9108(8) 0.1033(7) 0.393(3) 0.0246 Uiso
C13_7 C 0.7990(11) 0.0273(12) 0.671(4) 0.0246 Uiso
C14_7 C 0.7751(9) 0.0335(9) 0.463(4) 0.0246 Uiso
H13_7 H 0.8214(13) 0.0299(15) 0.765(4) 0.0246 Uiso
H14_7 H 0.7758(8) 0.0429(11) 0.359(4) 0.0246 Uiso
N6_3 N 0.7200(9) 0.0052(11) 0.532(5) 0.0246 Uiso
N9_5 N 0.9948(11) 0.7149(14) 0.532(5) 0.0246 Uiso
O1_8 O 0.4324(7) 0.3669(9) 0.4655(15) 0.0246 Uiso
C1_8 C 0.4406(8) 0.3337(11) 0.3782(18) 0.0246 Uiso
C2_8 C 0.5021(9) 0.3289(11) 0.392(3) 0.0246 Uiso
C3_8 C 0.4928(10) 0.2804(12) 0.498(3) 0.0246 Uiso
H1_8 H 0.5114(11) 0.3137(15) 0.297(3) 0.0246 Uiso
N1_8 N 0.5562(7) 0.3923(11) 0.423(3) 0.0246 Uiso
H2_8 H 0.4508(12) 0.2330(14) 0.477(4) 0.0246 Uiso
H3_8 H 0.5357(12) 0.2752(13) 0.504(4) 0.0246 Uiso
H4_8 H 0.4854(10) 0.2967(13) 0.594(3) 0.0246 Uiso
C4_8 C 0.5841(8) 0.4375(15) 0.327(2) 0.0246 Uiso
H5_8 H 0.5585(7) 0.4073(11) 0.518(2) 0.0246 Uiso
C5_8 C 0.6208(8) 0.5047(16) 0.369(2) 0.0246 Uiso
O3_8 O 0.5763(10) 0.4224(20) 0.208(3) 0.0246 Uiso
C6_8 C 0.6355(8) 0.5291(16) 0.497(3) 0.0246 Uiso
C7_8 C 0.6405(10) 0.5591(21) 0.290(3) 0.0246 Uiso
H6_8 H 0.6280(8) 0.5043(15) 0.590(3) 0.0246 Uiso
H7_8 H 0.6367(12) 0.5621(23) 0.184(3) 0.0246 Uiso
N3_8 N 0.6648(11) 0.6120(22) 0.366(3) 0.0246 Uiso
O4_8 O 0.7401(6) 0.7677(9) 0.4638(17) 0.0246 Uiso
C8_8 C 0.7749(7) 0.7729(10) 0.5620(18) 0.0246 Uiso
C9_8 C 0.8349(8) 0.8387(12) 0.594(3) 0.0246 Uiso
C10_8 C 0.8460(7) 0.8932(11) 0.501(3) 0.0246 Uiso
H8_8 H 0.8257(12) 0.8506(16) 0.693(2) 0.0246 Uiso
N4_8 N 0.8903(9) 0.8292(13) 0.609(3) 0.0246 Uiso
H9_8 H 0.8037(8) 0.8996(12) 0.502(2) 0.0246 Uiso
H10_8 H 0.8882(9) 0.9383(14) 0.534(4) 0.0246 Uiso
H11_8 H 0.8543(7) 0.8829(11) 0.401(3) 0.0246 Uiso
C11_8 C 0.9118(6) 0.8070(11) 0.510(4) 0.0246 Uiso
H12_8 H 0.8997(12) 0.8220(16) 0.704(3) 0.0246 Uiso
C12_8 C 0.9510(8) 0.7782(13) 0.547(4) 0.0246 Uiso
O6_8 O 0.8967(7) 0.8076(11) 0.393(3) 0.0246 Uiso
C13_8 C 0.9727(12) 0.7718(16) 0.671(4) 0.0246 Uiso
C14_8 C 0.9665(9) 0.7417(13) 0.463(4) 0.0246 Uiso
H13_8 H 0.9701(15) 0.7916(20) 0.765(4) 0.0246 Uiso
H14_8 H 0.9571(11) 0.7330(14) 0.359(4) 0.0246 Uiso
N9_6 N 0.2851(14) 0.2800(18) 0.532(5) 0.0246 Uiso
O1_9 O 0.6331(9) 0.0656(6) 0.4655(15) 0.0246 Uiso
C1_9 C 0.6663(11) 0.1070(7) 0.3782(18) 0.0246 Uiso
C2_9 C 0.6711(11) 0.1733(7) 0.392(3) 0.0246 Uiso
C3_9 C 0.7196(12) 0.2125(6) 0.498(3) 0.0246 Uiso
H1_9 H 0.6863(15) 0.1978(10) 0.297(3) 0.0246 Uiso
N1_9 N 0.6077(11) 0.1640(8) 0.423(3) 0.0246 Uiso
H2_9 H 0.7670(14) 0.2179(7) 0.477(4) 0.0246 Uiso
H3_9 H 0.7248(13) 0.2606(6) 0.504(4) 0.0246 Uiso
H4_9 H 0.7033(13) 0.1888(9) 0.594(3) 0.0246 Uiso
C4_9 C 0.5625(15) 0.1467(13) 0.327(2) 0.0246 Uiso
H5_9 H 0.5927(11) 0.1513(8) 0.518(2) 0.0246 Uiso
C5_9 C 0.4953(16) 0.1162(14) 0.369(2) 0.0246 Uiso
O3_9 O 0.5776(20) 0.1540(17) 0.208(3) 0.0246 Uiso
C6_9 C 0.4709(16) 0.1065(14) 0.497(3) 0.0246 Uiso
C7_9 C 0.4409(21) 0.0815(19) 0.290(3) 0.0246 Uiso
H6_9 H 0.4957(15) 0.1238(13) 0.590(3) 0.0246 Uiso
H7_9 H 0.4379(23) 0.075(2) 0.184(3) 0.0246 Uiso
N3_9 N 0.3880(22) 0.0529(19) 0.366(3) 0.0246 Uiso
C8_9 C 0.2271(10) 0.0021(7) 0.5620(18) 0.0246 Uiso
N4_9 N 0.1708(13) 0.0612(10) 0.609(3) 0.0246 Uiso
C11_9 C 0.1930(11) 0.1049(9) 0.510(4) 0.0246 Uiso
H12_9 H 0.1780(16) 0.0778(11) 0.704(3) 0.0246 Uiso
C12_9 C 0.2218(13) 0.1729(10) 0.547(4) 0.0246 Uiso
O6_9 O 0.1924(11) 0.0892(8) 0.393(3) 0.0246 Uiso
C13_9 C 0.2282(16) 0.2010(11) 0.671(4) 0.0246 Uiso
C14_9 C 0.2583(13) 0.2249(9) 0.463(4) 0.0246 Uiso
H13_9 H 0.2084(20) 0.1786(13) 0.765(4) 0.0246 Uiso
H14_9 H 0.2670(14) 0.2242(8) 0.359(4) 0.0246 Uiso
O4_9 O 0.2323(9) 0.9725(7) 0.4638(17) 0.0246 Uiso
C9_9 C 0.1613(12) 0.9963(9) 0.594(3) 0.0246 Uiso
C10_9 C 0.1068(11) 0.9529(9) 0.501(3) 0.0246 Uiso
H8_9 H 0.1494(16) 0.9752(10) 0.693(2) 0.0246 Uiso
H9_9 H 0.1004(12) 0.9042(9) 0.502(2) 0.0246 Uiso
H10_9 H 0.0617(14) 0.9500(11) 0.534(4) 0.0246 Uiso
H11_9 H 0.1171(11) 0.9715(9) 0.401(3) 0.0246 Uiso
loop_
_geom_bond_atom_site_label_1
_geom_bond_atom_site_label_2
_geom_bond_site_symmetry_1
_geom_bond_site_symmetry_2
H13 C13 1_555 1_555
Zn1 O1 1_555 1_555
Zn2 N3 1_555 1_555
O1 C1 1_555 1_555
C1 C2 1_555 1_555
C2 C3 1_555 1_555
O2 C1 1_555 1_555
C3 H2 1_555 1_555
H1 C2 1_555 1_555
N1 C2 1_555 1_555
H3 C3 1_555 1_555
H4 C3 1_555 1_555
C4 N1 1_555 1_555
H5 N1 1_555 1_555
C5 C4 1_555 1_555
O3 C4 1_555 1_555
C6 C5 1_555 1_555
C7 C5 1_555 1_555
H6 C6 1_555 1_555
N2 C6 1_555 1_555
H7 C7 1_555 1_555
N3 C7 1_555 1_555
O4 Zn2 1_555 1_555
C8 O4 1_555 1_555
C9 C8 1_555 1_555
O5 C8 1_555 1_555
C10 C9 1_555 1_555
N4 C9 1_555 1_555
H9 C10 1_555 1_555
H10 C10 1_555 1_555
H11 C10 1_555 1_555
C11 N4 1_555 1_555
C12 C11 1_555 1_555
O6 C11 1_555 1_555
C14 C12 1_555 1_555
H14 C14 1_555 1_555
N6 C14 1_555 1_555
Zn3 N6 1_555 1_555
Zn5 O2 1_555 1_555
Zn6 N2 1_555 1_555
O7 Zn1 1_555 1_555
N7 Zn2 1_555 1_555
O8 Zn2 1_555 1_555
N2 N3 1_555 1_555
O5 Zn6 1_555 1_555
N5 N6 1_555 1_555
H13_2 C13_2 1_555 1_555
O4_2 Zn2_2 1_555 1_555
C8_2 O4_2 1_555 1_555
C9_2 C8_2 1_555 1_555
O5_2 C8_2 1_555 1_555
C10_2 C9_2 1_555 1_555
N4_2 C9_2 1_555 1_555
H9_2 C10_2 1_555 1_555
H10_2 C10_2 1_555 1_555
H11_2 C10_2 1_555 1_555
C11_2 N4_2 1_555 1_555
C12_2 C11_2 1_555 1_555
O6_2 C11_2 1_555 1_555
C14_2 C12_2 1_555 1_555
H14_2 C14_2 1_555 1_555
N9 C14_2 1_555 1_555
N7_2 Zn2_2 1_555 1_555
O8_2 Zn2_2 1_555 1_555
N5_2 N9 1_555 1_555
Zn1_2 O1_2 1_555 1_555
O1_2 C1_2 1_555 1_555
C1_2 C2_2 1_555 1_555
C2_2 C3_2 1_555 1_555
O2_2 C1_2 1_555 1_555
C3_2 H2_2 1_555 1_555
H1_2 C2_2 1_555 1_555
N1_2 C2_2 1_555 1_555
H3_2 C3_2 1_555 1_555
H4_2 C3_2 1_555 1_555
C4_2 N1_2 1_555 1_555
H5_2 N1_2 1_555 1_555
C5_2 C4_2 1_555 1_555
O3_2 C4_2 1_555 1_555
C6_2 C5_2 1_555 1_555
C7_2 C5_2 1_555 1_555
H6_2 C6_2 1_555 1_555
N2_2 C6_2 1_555 1_555
H7_2 C7_2 1_555 1_555
N3_2 C7_2 1_555 1_555
Zn5_2 O2_2 1_555 1_555
Zn6_2 N2_2 1_555 1_555
O7_2 Zn1_2 1_555 1_555
N2_2 N3_2 1_555 1_555
Zn3 O1_3 1_555 1_555
O1_3 C1_3 1_555 1_555
C1_3 C2_3 1_555 1_555
C2_3 C3_3 1_555 1_555
O2_3 C1_3 1_555 1_555
C3_3 H2_3 1_555 1_555
H1_3 C2_3 1_555 1_555
N1_3 C2_3 1_555 1_555
H3_3 C3_3 1_555 1_555
H4_3 C3_3 1_555 1_555
C4_3 N1_3 1_555 1_555
H5_3 N1_3 1_555 1_555
C5_3 C4_3 1_555 1_555
O3_3 C4_3 1_555 1_555
C6_3 C5_3 1_555 1_555
C7_3 C5_3 1_555 1_555
H6_3 C6_3 1_555 1_555
N2_3 C6_3 1_555 1_555
H7_3 C7_3 1_555 1_555
N3_3 C7_3 1_555 1_555
Zn5_3 O2_3 1_555 1_555
Zn6_3 N2_3 1_555 1_555
O7_3 Zn3 1_555 1_555
N8_3 Zn3 1_555 1_555
N2_3 N3_3 1_555 1_555
H13_3 C13_3 1_555 1_555
O4_3 Zn2_3 1_555 1_555
C8_3 O4_3 1_555 1_555
C9_3 C8_3 1_555 1_555
O5_3 C8_3 1_555 1_555
C10_3 C9_3 1_555 1_555
N4_3 C9_3 1_555 1_555
H9_3 C10_3 1_555 1_555
H10_3 C10_3 1_555 1_555
H11_3 C10_3 1_555 1_555
C11_3 N4_3 1_555 1_555
C12_3 C11_3 1_555 1_555
O6_3 C11_3 1_555 1_555
C14_3 C12_3 1_555 1_555
H14_3 C14_3 1_555 1_555
N9_2 C14_3 1_555 1_555
N7_3 Zn2_3 1_555 1_555
O8_3 Zn2_3 1_555 1_555
N5_3 N9_2 1_555 1_555
Zn4 O1_4 1_555 1_555
O1_4 C1_4 1_555 1_555
C1_4 C2_4 1_555 1_555
C2_4 C3_4 1_555 1_555
C3_4 H2_4 1_555 1_555
N1_4 C2_4 1_555 1_555
H3_4 C3_4 1_555 1_555
H4_4 C3_4 1_555 1_555
H5_4 N1_4 1_555 1_555
C6_4 C5_4 1_555 1_555
H6_4 C6_4 1_555 1_555
N2_4 C6_4 1_555 1_555
O7_4 Zn4 1_555 1_555
N9_3 Zn4 1_555 1_555
N2_4 N3_4 1_555 1_555
O3_4 C4_4 1_555 1_555
H7_4 C7_4 1_555 1_555
C8_4 O4_4 1_555 1_555
C9_4 C8_4 1_555 1_555
O5_4 C8_4 1_555 1_555
C10_4 C9_4 1_555 1_555
H8_4 C9_4 1_555 1_555
N4_4 C9_4 1_555 1_555
H9_4 C10_4 1_555 1_555
H10_4 C10_4 1_555 1_555
H11_4 C10_4 1_555 1_555
C11_4 N4_4 1_555 1_555
H12_4 N4_4 1_555 1_555
C12_4 C11_4 1_555 1_555
O6_4 C11_4 1_555 1_555
C13_4 C12_4 1_555 1_555
C14_4 C12_4 1_555 1_555
H13_4 C13_4 1_555 1_555
N5_4 C13_4 1_555 1_555
H14_4 C14_4 1_555 1_555
N6_2 C14_4 1_555 1_555
Zn5_2 N5_4 1_555 1_555
O5_4 Zn6_4 1_555 1_555
N5_4 N6_2 1_555 1_555
C8_5 O4_5 1_555 1_555
C9_5 C8_5 1_555 1_555
O5_5 C8_5 1_555 1_555
C10_5 C9_5 1_555 1_555
H8_5 C9_5 1_555 1_555
N4_5 C9_5 1_555 1_555
H9_5 C10_5 1_555 1_555
H10_5 C10_5 1_555 1_555
H11_5 C10_5 1_555 1_555
C11_5 N4_5 1_555 1_555
H12_5 N4_5 1_555 1_555
C12_5 C11_5 1_555 1_555
O6_5 C11_5 1_555 1_555
C13_5 C12_5 1_555 1_555
C14_5 C12_5 1_555 1_555
H13_5 C13_5 1_555 1_555
N5_5 C13_5 1_555 1_555
H14_5 C14_5 1_555 1_555
N9_3 C14_5 1_555 1_555
Zn5_3 N5_5 1_555 1_555
O5_5 Zn6_5 1_555 1_555
N5_5 N9_3 1_555 1_555
Zn4_2 O1_5 1_555 1_555
O1_5 C1_5 1_555 1_555
H5_5 N1_5 1_555 1_555
C6_5 C5_5 1_555 1_555
H6_5 C6_5 1_555 1_555
N2_5 C6_5 1_555 1_555
O7_5 Zn4_2 1_555 1_555
N2_5 N3_5 1_555 1_555
O3_5 C4_5 1_555 1_555
H7_5 C7_5 1_555 1_555
C2_5 C3_5 1_555 1_555
C3_5 H2_5 1_555 1_555
H3_5 C3_5 1_555 1_555
H4_5 C3_5 1_555 1_555
C2_6 C3_6 1_555 1_555
C3_6 H2_6 1_555 1_555
H3_6 C3_6 1_555 1_555
H4_6 C3_6 1_555 1_555
Zn4_3 O1_6 1_555 1_555
O1_6 C1_6 1_555 1_555
H5_6 N1_6 1_555 1_555
C6_6 C5_6 1_555 1_555
H6_6 C6_6 1_555 1_555
N2_6 C6_6 1_555 1_555
C8_6 O4_6 1_555 1_555
C9_6 C8_6 1_555 1_555
O5_6 C8_6 1_555 1_555
C10_6 C9_6 1_555 1_555
H8_6 C9_6 1_555 1_555
N4_6 C9_6 1_555 1_555
H9_6 C10_6 1_555 1_555
H10_6 C10_6 1_555 1_555
H11_6 C10_6 1_555 1_555
C11_6 N4_6 1_555 1_555
H12_6 N4_6 1_555 1_555
C12_6 C11_6 1_555 1_555
O6_6 C11_6 1_555 1_555
C13_6 C12_6 1_555 1_555
C14_6 C12_6 1_555 1_555
H13_6 C13_6 1_555 1_555
N5_6 C13_6 1_555 1_555
H14_6 C14_6 1_555 1_555
N9_4 C14_6 1_555 1_555
Zn5 N5_6 1_555 1_555
Zn6_6 N2_6 1_555 1_555
O7_6 Zn4_3 1_555 1_555
N2_6 N3_6 1_555 1_555
O5_6 Zn6_6 1_555 1_555
N5_6 N9_4 1_555 1_555
O3_6 C4_6 1_555 1_555
H7_6 C7_6 1_555 1_555
O4_7 Zn6_5 1_555 1_555
C10_7 C9_7 1_555 1_555
H8_7 C9_7 1_555 1_555
H9_7 C10_7 1_555 1_555
H10_7 C10_7 1_555 1_555
H11_7 C10_7 1_555 1_555
O1_7 C1_7 1_555 1_555
C1_7 C2_7 1_555 1_555
C2_7 C3_7 1_555 1_555
O7_6 C1_7 1_555 1_555
C3_7 H2_7 1_555 1_555
H1_7 C2_7 1_555 1_555
N1_7 C2_7 1_555 1_555
H3_7 C3_7 1_555 1_555
H4_7 C3_7 1_555 1_555
C4_7 N1_7 1_555 1_555
H5_7 N1_7 1_555 1_555
C5_7 C4_7 1_555 1_555
O3_7 C4_7 1_555 1_555
C6_7 C5_7 1_555 1_555
C7_7 C5_7 1_555 1_555
H6_7 C6_7 1_555 1_555
N7_3 C6_7 1_555 1_555
H7_7 C7_7 1_555 1_555
N3_7 C7_7 1_555 1_555
O8_3 C8_7 1_555 1_555
C11_7 N4_7 1_555 1_555
H12_7 N4_7 1_555 1_555
C12_7 C11_7 1_555 1_555
O6_7 C11_7 1_555 1_555
C13_7 C12_7 1_555 1_555
C14_7 C12_7 1_555 1_555
H13_7 C13_7 1_555 1_555
N8 C13_7 1_555 1_555
H14_7 C14_7 1_555 1_555
N6_3 C14_7 1_555 1_555
N7_3 N3_7 1_555 1_555
N8 N6_3 1_555 1_555
Zn5_3 O1_8 1_555 1_555
Zn6_6 N3_8 1_555 1_555
O1_8 C1_8 1_555 1_555
C1_8 C2_8 1_555 1_555
C2_8 C3_8 1_555 1_555
O7_4 C1_8 1_555 1_555
C3_8 H2_8 1_555 1_555
H1_8 C2_8 1_555 1_555
N1_8 C2_8 1_555 1_555
H3_8 C3_8 1_555 1_555
H4_8 C3_8 1_555 1_555
C4_8 N1_8 1_555 1_555
H5_8 N1_8 1_555 1_555
C5_8 C4_8 1_555 1_555
O3_8 C4_8 1_555 1_555
C6_8 C5_8 1_555 1_555
C7_8 C5_8 1_555 1_555
H6_8 C6_8 1_555 1_555
N7 C6_8 1_555 1_555
H7_8 C7_8 1_555 1_555
N3_8 C7_8 1_555 1_555
O4_8 Zn6_6 1_555 1_555
C8_8 O4_8 1_555 1_555
C9_8 C8_8 1_555 1_555
O8 C8_8 1_555 1_555
C10_8 C9_8 1_555 1_555
H8_8 C9_8 1_555 1_555
N4_8 C9_8 1_555 1_555
H9_8 C10_8 1_555 1_555
H10_8 C10_8 1_555 1_555
H11_8 C10_8 1_555 1_555
C11_8 N4_8 1_555 1_555
H12_8 N4_8 1_555 1_555
C12_8 C11_8 1_555 1_555
O6_8 C11_8 1_555 1_555
C13_8 C12_8 1_555 1_555
C14_8 C12_8 1_555 1_555
H13_8 C13_8 1_555 1_555
N8_2 C13_8 1_555 1_555
H14_8 C14_8 1_555 1_555
N9_5 C14_8 1_555 1_555
N9_6 Zn5_3 1_555 1_555
N7 N3_8 1_555 1_555
N8_2 N9_5 1_555 1_555
O1_9 C1_9 1_555 1_555
C1_9 C2_9 1_555 1_555
C2_9 C3_9 1_555 1_555
O7_5 C1_9 1_555 1_555
C3_9 H2_9 1_555 1_555
H1_9 C2_9 1_555 1_555
N1_9 C2_9 1_555 1_555
H3_9 C3_9 1_555 1_555
H4_9 C3_9 1_555 1_555
C4_9 N1_9 1_555 1_555
H5_9 N1_9 1_555 1_555
C5_9 C4_9 1_555 1_555
O3_9 C4_9 1_555 1_555
C6_9 C5_9 1_555 1_555
C7_9 C5_9 1_555 1_555
H6_9 C6_9 1_555 1_555
N7_2 C6_9 1_555 1_555
H7_9 C7_9 1_555 1_555
N3_9 C7_9 1_555 1_555
O8_2 C8_9 1_555 1_555
C11_9 N4_9 1_555 1_555
H12_9 N4_9 1_555 1_555
C12_9 C11_9 1_555 1_555
O6_9 C11_9 1_555 1_555
C13_9 C12_9 1_555 1_555
C14_9 C12_9 1_555 1_555
H13_9 C13_9 1_555 1_555
N8_3 C13_9 1_555 1_555
H14_9 C14_9 1_555 1_555
N9_6 C14_9 1_555 1_555
N7_2 N3_9 1_555 1_555
N8_3 N9_6 1_555 1_555
O4_9 Zn6_4 1_555 1_555
C10_9 C9_9 1_555 1_555
H8_9 C9_9 1_555 1_555
H9_9 C10_9 1_555 1_555
H10_9 C10_9 1_555 1_555
H11_9 C10_9 1_555 1_555

#END
