
###############################################################################
#
# This file contains modified crystal structure data generated from the
# MOF subset of the Cambridge Structural Database (CSD) v543 
# hosted by the Cambridge Crystallographic Data Centre (CCDC).
#
# This work is licensed under the Creative Commons
# Attribution-NonCommercial-ShareAlike 4.0 International License.
# To view a copy of this license, visit
# http://creativecommons.org/licenses/by-nc-sa/4.0/
# or send a letter to
# Creative Commons, PO Box 1866, Mountain View, CA 94042, USA.
#
# CIF created using the CSD Python API on 29 September 2022
# The structure has been converted into the P1 space group
# The structure has a 3D framework
# The original CSD entry VUXCID is in the rhombohedral crystal system
# The original CSD entry VUXCID is in a Sohncke space group
# The framework has been calculated to contain at least 10.0% void space
# The void calculation uses a probe of radius 1.32A, grid spacing 0.4
#
###############################################################################

data_VUXCID
_chemical_formula_moiety         '(C126 H126 N54 O49 Zn11)n'
_symmetry_cell_setting           triclinic
_symmetry_space_group_name_H-M   'P 1'
_symmetry_Int_Tables_number      1
_space_group_name_Hall           'P 1'
loop_
_symmetry_equiv_pos_site_id
_symmetry_equiv_pos_as_xyz
1 x,y,z
_cell_length_a                   28.3977(8)
_cell_length_b                   28.3977(8)
_cell_length_c                   10.1062(2)
_cell_angle_alpha                90
_cell_angle_beta                 90
_cell_angle_gamma                120
_cell_volume                     7058.05
loop_
_atom_site_label
_atom_site_type_symbol
_atom_site_fract_x
_atom_site_fract_y
_atom_site_fract_z
Zn1 Zn 0.35502(4) 0.33193(4) 0.03225(7)
O8 O 0.4018(2) 0.3316(2) 0.1744(5)
O9 O 0.3035(3) 0.2526(2) 0.0160(5)
N8 N 0.3068(3) 0.3601(4) 0.0837(5)
Zn2 Zn 0.67026(4) 0.64636(4) 0.51584(7)
O1 O 0.6139(2) 0.5850(2) 0.8251(5)
O3 O 0.6663(2) 0.5943(2) 0.6510(5)
O4 O 0.5410(3) 0.4712(3) 0.5981(6)
O5 O 0.4141(2) 0.3843(2) 0.3493(5)
O6 O 0.5495(3) 0.4512(3) 0.0886(6)
N1 N 0.4035(3) 0.3617(3) 0.8789(5)
N2 N 0.5714(3) 0.4724(3) 0.8070(6)
H1 H 0.5625 0.4599 0.8883
N3 N 0.5268(3) 0.4314(3) 0.3030(6)
H2 H 0.5325 0.4439 0.3846
N4 N 0.6379(3) 0.5982(3) 0.3633(6)
N5 N 0.6438(3) 0.6136(3) 0.2328(6)
N6 N 0.3867(3) 0.3599(3) 0.7504(5)
C1 C 0.5323(3) 0.4552(3) 0.7146(7)
C2 C 0.4308(3) 0.3636(3) 0.2661(7)
C3 C 0.4774(3) 0.4162(3) 0.7575(7)
C4 C 0.5541(3) 0.4663(4) 0.2040(7)
C5 C 0.4885(3) 0.3740(3) 0.2812(8)
H3 H 0.4989 0.3622 0.1983
C6 C 0.6278(3) 0.5110(3) 0.7767(7)
H4 H 0.6481 0.5153 0.8609
C7 C 0.4570(3) 0.3944(3) 0.8842(7)
H5 H 0.4784 0.4021 0.9619
C8 C 0.5887(3) 0.5233(3) 0.2454(7)
C9 C 0.6059(3) 0.5450(3) 0.3710(7)
H6 H 0.5961 0.5245 0.4507
C10 C 0.6144(3) 0.5690(3) 0.1602(7)
H7 H 0.6112 0.5681 0.0665
C11 C 0.6358(3) 0.5674(3) 0.7468(7)
C12 C 0.4303(3) 0.3926(3) 0.6788(7)
H8 H 0.4296 0.3992 0.5868
C13 C 0.6521(4) 0.4889(4) 0.6764(10)
H9 H 0.6485 0.4548 0.7094
H10 H 0.6907 0.5156 0.6633
H11 H 0.6328 0.4822 0.5920
C14 C 0.4902(5) 0.3406(4) 0.3948(11)
H12 H 0.5279 0.3500 0.4113
H13 H 0.4685 0.3019 0.3728
H14 H 0.4753 0.3482 0.4742
Zn4 Zn 0.33474(4) 0.35642(6) 0.36558(7)
Zn5 Zn 0.31024(6) 0.31165(4) 0.69892(7)
Zn6 Zn 0.64277(6) 0.66307(4) 0.84917(7)
Zn7 Zn 0.68697(4) 0.69057(6) 0.18251(7)
O7 O 0.7483(2) 0.6956(3) 0.4918(5)
N7 N 0.6365(4) 0.6895(3) 0.5661(6)
Zn1_2 Zn 0.66807(4) 0.02309(6) 0.03225(7)
O8_2 O 0.6684(2) 0.0702(3) 0.1744(5)
O9_2 O 0.7474(2) 0.0510(4) 0.0160(5)
Zn2_2 Zn 0.35364(4) 0.02390(6) 0.51584(7)
O1_2 O 0.4150(2) 0.0289(3) 0.8251(5)
O3_2 O 0.4057(2) 0.0720(3) 0.6510(5)
O4_2 O 0.5288(3) 0.0698(4) 0.5981(6)
O5_2 O 0.6157(2) 0.0298(3) 0.3493(5)
O6_2 O 0.5488(3) 0.0983(4) 0.0886(6)
N1_2 N 0.6383(3) 0.0418(4) 0.8789(5)
N2_2 N 0.5276(3) 0.0990(4) 0.8070(6)
H1_2 H 0.5401 0.1026 0.8883
N3_2 N 0.5686(3) 0.0954(4) 0.3030(6)
H2_2 H 0.5561 0.0886 0.3846
N4_2 N 0.4018(3) 0.0397(4) 0.3633(6)
N5_2 N 0.3864(3) 0.0302(4) 0.2328(6)
N6_2 N 0.6401(3) 0.0268(4) 0.7504(5)
C1_2 C 0.5448(3) 0.0771(4) 0.7146(7)
C2_2 C 0.6364(3) 0.0672(4) 0.2661(7)
C3_2 C 0.5838(3) 0.0612(4) 0.7575(7)
C4_2 C 0.5337(4) 0.0878(5) 0.2040(7)
C5_2 C 0.6260(3) 0.1145(4) 0.2812(8)
H3_2 H 0.6378 0.1367 0.1983
C6_2 C 0.4890(3) 0.1168(4) 0.7767(7)
H4_2 H 0.4847 0.1328 0.8609
C7_2 C 0.6056(3) 0.0626(4) 0.8842(7)
H5_2 H 0.5979 0.0763 0.9619
C8_2 C 0.4767(3) 0.0654(4) 0.2454(7)
C9_2 C 0.4550(3) 0.0609(4) 0.3710(7)
H6_2 H 0.4755 0.0716 0.4507
C10_2 C 0.4310(3) 0.0454(4) 0.1602(7)
H7_2 H 0.4319 0.0431 0.0665
C11_2 C 0.4326(3) 0.0684(4) 0.7468(7)
C12_2 C 0.6074(3) 0.0377(4) 0.6788(7)
H8_2 H 0.6008 0.0304 0.5868
C13_2 C 0.5111(4) 0.1632(6) 0.6764(10)
H9_2 H 0.5452 0.1937 0.7094
H10_2 H 0.4844 0.1751 0.6633
H11_2 H 0.5178 0.1506 0.5920
C14_2 C 0.6594(4) 0.1496(6) 0.3948(11)
H12_2 H 0.6500 0.1779 0.4113
H13_2 H 0.6981 0.1666 0.3728
H14_2 H 0.6518 0.1271 0.4742
O7_2 O 0.3044(3) 0.0528(4) 0.4918(5)
N8_2 N 0.6399(4) 0.9466(5) 0.0837(5)
Zn4_2 Zn 0.64358(6) 0.97831(7) 0.36558(7)
Zn5_2 Zn 0.68835(4) 0.99860(7) 0.69892(7)
Zn6_2 Zn 0.33693(4) 0.97969(7) 0.84917(7)
Zn7_2 Zn 0.30943(6) 0.99641(7) 0.18251(7)
N7_2 N 0.3105(3) 0.9469(5) 0.5661(6)
N8_3 N 0.0534(5) 0.6932(3) 0.0837(5)
Zn4_3 Zn 0.02169(7) 0.66526(4) 0.36558(7)
Zn5_3 Zn 0.00140(7) 0.68976(6) 0.69892(7)
Zn6_3 Zn 0.02031(7) 0.35723(6) 0.84917(7)
Zn7_3 Zn 0.00359(7) 0.31303(4) 0.18251(7)
N7_3 N 0.0531(5) 0.3635(4) 0.5661(6)
Zn1_3 Zn 0.97691(6) 0.64498(4) 0.03225(7)
O8_3 O 0.9298(3) 0.5982(2) 0.1744(5)
O9_3 O 0.9490(4) 0.6965(3) 0.0160(5)
Zn2_3 Zn 0.97610(6) 0.32974(4) 0.51584(7)
O1_3 O 0.9711(3) 0.3861(2) 0.8251(5)
O3_3 O 0.9280(3) 0.3337(2) 0.6510(5)
O4_3 O 0.9302(4) 0.4590(3) 0.5981(6)
O5_3 O 0.9702(3) 0.5859(2) 0.3493(5)
O6_3 O 0.9017(4) 0.4505(3) 0.0886(6)
N1_3 N 0.9582(4) 0.5965(3) 0.8789(5)
N2_3 N 0.9010(4) 0.4286(3) 0.8070(6)
H1_3 H 0.8974 0.4375 0.8883
N3_3 N 0.9046(4) 0.4732(3) 0.3030(6)
H2_3 H 0.9114 0.4675 0.3846
N4_3 N 0.9603(4) 0.3621(3) 0.3633(6)
N5_3 N 0.9698(4) 0.3562(3) 0.2328(6)
N6_3 N 0.9732(4) 0.6133(3) 0.7504(5)
C1_3 C 0.9229(4) 0.4677(3) 0.7146(7)
C2_3 C 0.9328(4) 0.5692(3) 0.2661(7)
C3_3 C 0.9388(4) 0.5226(3) 0.7575(7)
C4_3 C 0.9122(5) 0.4459(3) 0.2040(7)
C5_3 C 0.8855(4) 0.5115(3) 0.2812(8)
H3_3 H 0.8633 0.5011 0.1983
C6_3 C 0.8832(4) 0.3722(3) 0.7767(7)
H4_3 H 0.8672 0.3519 0.8609
C7_3 C 0.9374(4) 0.5430(3) 0.8842(7)
H5_3 H 0.9237 0.5216 0.9619
C8_3 C 0.9346(4) 0.4113(3) 0.2454(7)
C9_3 C 0.9391(4) 0.3941(3) 0.3710(7)
H6_3 H 0.9284 0.4039 0.4507
C10_3 C 0.9546(4) 0.3856(3) 0.1602(7)
H7_3 H 0.9569 0.3888 0.0665
C11_3 C 0.9316(4) 0.3642(3) 0.7468(7)
C12_3 C 0.9623(4) 0.5697(3) 0.6788(7)
H8_3 H 0.9696 0.5704 0.5868
C13_3 C 0.8368(6) 0.3479(4) 0.6764(10)
H9_3 H 0.8063 0.3515 0.7094
H10_3 H 0.8249 0.3093 0.6633
H11_3 H 0.8494 0.3672 0.5920
C14_3 C 0.8504(6) 0.5098(5) 0.3948(11)
H12_3 H 0.8221 0.4721 0.4113
H13_3 H 0.8334 0.5315 0.3728
H14_3 H 0.8729 0.5247 0.4742
O7_3 O 0.9472(4) 0.2517(2) 0.4918(5)
N7_4 N 0.3031(4) 0.0229(3) 0.8995(6)
O1_4 O 0.2806(2) 0.9183(2) 0.1584(5)
N1_4 N 0.0702(3) 0.6950(3) 0.2122(5)
N2_4 N 0.2381(3) 0.8057(3) 0.1403(6)
H1_4 H 0.2292 0.7932 0.2216
C1_4 C 0.1990(3) 0.7885(3) 0.0479(7)
C3_4 C 0.1441(3) 0.7495(3) 0.0908(7)
C6_4 C 0.2945(3) 0.8443(3) 0.1100(7)
H4_4 H 0.3148 0.8486 0.1942
C7_4 C 0.1237(3) 0.7277(3) 0.2175(7)
H5_4 H 0.1451 0.7354 0.2952
C11_4 C 0.3025(3) 0.9007(3) 0.0801(7)
C12_4 C 0.0970(3) 0.7259(3) 0.0121(7)
C13_4 C 0.3188(4) 0.8222(4) 0.0097(10)
H9_4 H 0.3152 0.7881 0.0427
O8_4 O 0.0685(2) 0.6649(2) 0.5077(5)
O3_4 O 0.3330(2) 0.9276(2) 0.9843(5)
O4_4 O 0.2077(3) 0.8045(3) 0.9314(6)
O5_4 O 0.0808(2) 0.7176(2) 0.6826(5)
O6_4 O 0.2162(3) 0.7845(3) 0.4219(6)
N3_4 N 0.1935(3) 0.7647(3) 0.6363(6)
H2_4 H 0.1992 0.7772 0.7179
N4_4 N 0.3046(3) 0.9315(3) 0.6966(6)
C2_4 C 0.0975(3) 0.6969(3) 0.5994(7)
C4_4 C 0.2208(3) 0.7996(4) 0.5373(7)
C5_4 C 0.1552(3) 0.7073(3) 0.6145(8)
H3_4 H 0.1656 0.6955 0.5316
C8_4 C 0.2554(3) 0.8566(3) 0.5787(7)
C9_4 C 0.2726(3) 0.8783(3) 0.7043(7)
H6_4 H 0.2628 0.8578 0.7840
C10_4 C 0.2811(3) 0.9023(3) 0.4935(7)
H7_4 H 0.2779 0.9014 0.3998
H8_4 H 0.0963 0.7325 0.9201
H10_4 H 0.3574 0.8489 0.9966
H11_4 H 0.2995 0.8155 0.9253
C14_4 C 0.1569(5) 0.6739(4) 0.7281(11)
H12_4 H 0.1946 0.6833 0.7446
H13_4 H 0.1352 0.6352 0.7061
H14_4 H 0.1420 0.6815 0.8075
N8_4 N 0.9734(3) 0.6935(4) 0.4171(5)
O1_5 O 0.0817(2) 0.3622(3) 0.1584(5)
N1_5 N 0.3050(3) 0.3751(4) 0.2122(5)
N2_5 N 0.1943(3) 0.4323(4) 0.1403(6)
H1_5 H 0.2068 0.4359 0.2216
C1_5 C 0.2115(3) 0.4104(4) 0.0479(7)
C3_5 C 0.2505(3) 0.3945(4) 0.0908(7)
C6_5 C 0.1557(3) 0.4501(4) 0.1100(7)
H4_5 H 0.1514 0.4661 0.1942
C7_5 C 0.2723(3) 0.3959(4) 0.2175(7)
H5_5 H 0.2646 0.4096 0.2952
C11_5 C 0.0993(3) 0.4017(4) 0.0801(7)
C12_5 C 0.2741(3) 0.3710(4) 0.0121(7)
C13_5 C 0.1778(4) 0.4965(6) 0.0097(10)
H9_5 H 0.2119 0.5270 0.0427
O8_5 O 0.3351(2) 0.4035(3) 0.5077(5)
N8_5 N 0.3065(4) 0.2800(5) 0.4171(5)
O3_5 O 0.0724(2) 0.4053(3) 0.9843(5)
O4_5 O 0.1955(3) 0.4031(4) 0.9314(6)
O5_5 O 0.2824(2) 0.3631(3) 0.6826(5)
O6_5 O 0.2155(3) 0.4316(4) 0.4219(6)
N3_5 N 0.2353(3) 0.4287(4) 0.6363(6)
H2_5 H 0.2228 0.4219 0.7179
N4_5 N 0.0685(3) 0.3730(4) 0.6966(6)
C2_5 C 0.3031(3) 0.4005(4) 0.5994(7)
C4_5 C 0.2004(4) 0.4211(5) 0.5373(7)
C5_5 C 0.2927(3) 0.4478(4) 0.6145(8)
H3_5 H 0.3045 0.4700 0.5316
C8_5 C 0.1434(3) 0.3987(4) 0.5787(7)
C9_5 C 0.1217(3) 0.3942(4) 0.7043(7)
H6_5 H 0.1422 0.4049 0.7840
C10_5 C 0.0977(3) 0.3787(4) 0.4935(7)
H7_5 H 0.0986 0.3764 0.3998
H8_5 H 0.2675 0.3637 0.9201
H10_5 H 0.1511 0.5084 0.9966
H11_5 H 0.1845 0.4839 0.9253
C14_5 C 0.3261(4) 0.4829(6) 0.7281(11)
H12_5 H 0.3167 0.5112 0.7446
H13_5 H 0.3648 0.4999 0.7061
H14_5 H 0.3185 0.4604 0.8075
N7_5 N 0.9771(3) 0.2803(5) 0.8995(6)
N8_6 N 0.7200(5) 0.0266(3) 0.4171(5)
O1_6 O 0.6378(3) 0.7194(2) 0.1584(5)
N1_6 N 0.6249(4) 0.9298(3) 0.2122(5)
N2_6 N 0.5677(4) 0.7619(3) 0.1403(6)
H1_6 H 0.5641 0.7708 0.2216
C1_6 C 0.5896(4) 0.8010(3) 0.0479(7)
C3_6 C 0.6055(4) 0.8559(3) 0.0908(7)
C6_6 C 0.5499(4) 0.7055(3) 0.1100(7)
H4_6 H 0.5339 0.6852 0.1942
C7_6 C 0.6041(4) 0.8763(3) 0.2175(7)
H5_6 H 0.5904 0.8549 0.2952
C11_6 C 0.5983(4) 0.6975(3) 0.0801(7)
C12_6 C 0.6290(4) 0.9030(3) 0.0121(7)
C13_6 C 0.5035(6) 0.6812(4) 0.0097(10)
H9_6 H 0.4730 0.6848 0.0427
O8_6 O 0.5965(3) 0.9315(2) 0.5077(5)
O3_6 O 0.5947(3) 0.6670(2) 0.9843(5)
O4_6 O 0.5969(4) 0.7923(3) 0.9314(6)
O5_6 O 0.6369(3) 0.9192(2) 0.6826(5)
O6_6 O 0.5684(4) 0.7838(3) 0.4219(6)
N3_6 N 0.5713(4) 0.8065(3) 0.6363(6)
H2_6 H 0.5781 0.8008 0.7179
N4_6 N 0.6270(4) 0.6954(3) 0.6966(6)
C2_6 C 0.5995(4) 0.9025(3) 0.5994(7)
C4_6 C 0.5789(5) 0.7792(3) 0.5373(7)
C5_6 C 0.5522(4) 0.8448(3) 0.6145(8)
H3_6 H 0.5300 0.8344 0.5316
C8_6 C 0.6013(4) 0.7446(3) 0.5787(7)
C9_6 C 0.6058(4) 0.7274(3) 0.7043(7)
H6_6 H 0.5951 0.7372 0.7840
C10_6 C 0.6213(4) 0.7189(3) 0.4935(7)
H7_6 H 0.6236 0.7221 0.3998
H8_6 H 0.6363 0.9037 0.9201
H10_6 H 0.4916 0.6426 0.9966
H11_6 H 0.5161 0.7005 0.9253
C14_6 C 0.5171(6) 0.8431(5) 0.7281(11)
H12_6 H 0.4888 0.8054 0.7446
H13_6 H 0.5001 0.8648 0.7061
H14_6 H 0.5396 0.8580 0.8075
N7_6 N 0.7197(5) 0.6969(4) 0.8995(6)
H10_7 H 0.0240 0.1823 0.3300
O3_7 O 0.9996(2) 0.2610(2) 0.3177(5)
O4_7 O 0.8743(3) 0.1379(3) 0.2648(6)
N1_7 N 0.7368(3) 0.0284(3) 0.5456(5)
N2_7 N 0.9047(3) 0.1391(3) 0.4737(6)
H1_7 H 0.8958 0.1266 0.5550
H2_7 H 0.8658 0.1106 0.0513
N4_7 N 0.9712(3) 0.2649(3) 0.0300(6)
C1_7 C 0.8656(3) 0.1219(3) 0.3813(7)
C3_7 C 0.8107(3) 0.0829(3) 0.4242(7)
C6_7 C 0.9611(3) 0.1777(3) 0.4434(7)
H4_7 H 0.9814 0.1820 0.5276
C7_7 C 0.7903(3) 0.0611(3) 0.5509(7)
H5_7 H 0.8117 0.0688 0.6286
C9_7 C 0.9392(3) 0.2117(3) 0.0377(7)
H6_7 H 0.9294 0.1912 0.1174
C11_7 C 0.9691(3) 0.2341(3) 0.4135(7)
C12_7 C 0.7636(3) 0.0593(3) 0.3455(7)
H8_7 H 0.7629 0.0659 0.2535
C13_7 C 0.9854(4) 0.1556(4) 0.3431(10)
H9_7 H 0.9818 0.1215 0.3761
H11_7 H 0.9661 0.1489 0.2587
C14_7 C 0.8235(5) 0.0073(4) 0.0615(11)
H12_7 H 0.8612 0.0167 0.0780
H14_7 H 0.8086 0.0149 0.1409
O6_7 O 0.8828(3) 0.1179(3) 0.7553(6)
N3_7 N 0.8601(3) 0.0981(3) 0.9697(6)
C2_7 C 0.7641(3) 0.0303(3) 0.9328(7)
C4_7 C 0.8874(3) 0.1330(4) 0.8707(7)
C5_7 C 0.8218(3) 0.0407(3) 0.9479(8)
H3_7 H 0.8322 0.0289 0.8650
C8_7 C 0.9220(3) 0.1900(3) 0.9121(7)
C10_7 C 0.9477(3) 0.2357(3) 0.8269(7)
H7_7 H 0.9445 0.2348 0.7332
H13_7 H 0.8018 0.9686 0.0395
O8_7 O 0.7351(2) 0.9983(2) 0.8411(5)
H13_8 H 0.0314 0.8333 0.0395
O8_8 O 0.0017(2) 0.7369(3) 0.8411(5)
O3_8 O 0.7390(2) 0.7387(3) 0.3177(5)
O4_8 O 0.8621(3) 0.7365(4) 0.2648(6)
N1_8 N 0.9716(3) 0.7085(4) 0.5456(5)
N2_8 N 0.8609(3) 0.7657(4) 0.4737(6)
H1_8 H 0.8734 0.7693 0.5550
H2_8 H 0.8894 0.7553 0.0513
N4_8 N 0.7351(3) 0.7064(4) 0.0300(6)
C1_8 C 0.8781(3) 0.7438(4) 0.3813(7)
C3_8 C 0.9171(3) 0.7279(4) 0.4242(7)
C6_8 C 0.8223(3) 0.7835(4) 0.4434(7)
H4_8 H 0.8180 0.7995 0.5276
C7_8 C 0.9389(3) 0.7293(4) 0.5509(7)
H5_8 H 0.9312 0.7430 0.6286
C9_8 C 0.7883(3) 0.7276(4) 0.0377(7)
H6_8 H 0.8088 0.7383 0.1174
C11_8 C 0.7659(3) 0.7351(4) 0.4135(7)
C12_8 C 0.9407(3) 0.7044(4) 0.3455(7)
H8_8 H 0.9341 0.6971 0.2535
C13_8 C 0.8444(4) 0.8299(6) 0.3431(10)
H9_8 H 0.8785 0.8604 0.3761
H10_8 H 0.8177 0.8418 0.3300
H11_8 H 0.8511 0.8173 0.2587
C14_8 C 0.9927(4) 0.8163(6) 0.0615(11)
H12_8 H 0.9833 0.8446 0.0780
H14_8 H 0.9851 0.7938 0.1409
O6_8 O 0.8821(3) 0.7650(4) 0.7553(6)
N3_8 N 0.9019(3) 0.7621(4) 0.9697(6)
C2_8 C 0.9697(3) 0.7339(4) 0.9328(7)
C4_8 C 0.8670(4) 0.7545(5) 0.8707(7)
C5_8 C 0.9593(3) 0.7812(4) 0.9479(8)
H3_8 H 0.9711 0.8034 0.8650
C8_8 C 0.8100(3) 0.7321(4) 0.9121(7)
C10_8 C 0.7643(3) 0.7121(4) 0.8269(7)
H7_8 H 0.7652 0.7098 0.7332
O3_9 O 0.2613(3) 0.0004(2) 0.3177(5)
O4_9 O 0.2635(4) 0.1257(3) 0.2648(6)
N1_9 N 0.2915(4) 0.2632(3) 0.5456(5)
N2_9 N 0.2343(4) 0.0953(3) 0.4737(6)
H1_9 H 0.2307 0.1042 0.5550
H2_9 H 0.2447 0.1342 0.0513
N4_9 N 0.2936(4) 0.0288(3) 0.0300(6)
C1_9 C 0.2562(4) 0.1344(3) 0.3813(7)
C3_9 C 0.2721(4) 0.1893(3) 0.4242(7)
C6_9 C 0.2165(4) 0.0389(3) 0.4434(7)
H4_9 H 0.2005 0.0186 0.5276
C7_9 C 0.2707(4) 0.2097(3) 0.5509(7)
H5_9 H 0.2570 0.1883 0.6286
C9_9 C 0.2724(4) 0.0608(3) 0.0377(7)
H6_9 H 0.2617 0.0706 0.1174
C11_9 C 0.2649(4) 0.0309(3) 0.4135(7)
C12_9 C 0.2956(4) 0.2364(3) 0.3455(7)
H8_9 H 0.3029 0.2371 0.2535
C13_9 C 0.1701(6) 0.0146(4) 0.3431(10)
H9_9 H 0.1396 0.0182 0.3761
H11_9 H 0.1827 0.0339 0.2587
C14_9 C 0.1837(6) 0.1765(5) 0.0615(11)
H12_9 H 0.1554 0.1388 0.0780
H13_9 H 0.1667 0.1982 0.0395
H14_9 H 0.2062 0.1914 0.1409
O8_9 O 0.2631(3) 0.2649(2) 0.8411(5)
O6_9 O 0.2350(4) 0.1172(3) 0.7553(6)
N3_9 N 0.2379(4) 0.1399(3) 0.9697(6)
C2_9 C 0.2661(4) 0.2359(3) 0.9328(7)
C4_9 C 0.2455(5) 0.1126(3) 0.8707(7)
C5_9 C 0.2188(4) 0.1782(3) 0.9479(8)
H3_9 H 0.1966 0.1678 0.8650
C8_9 C 0.2679(4) 0.0780(3) 0.9121(7)
C10_9 C 0.2879(4) 0.0523(3) 0.8269(7)
H7_9 H 0.2902 0.0555 0.7332
H10_9 H 0.1582 0.9760 0.3300
loop_
_geom_bond_atom_site_label_1
_geom_bond_atom_site_label_2
_geom_bond_site_symmetry_1
_geom_bond_site_symmetry_2
O8 Zn1 1_555 1_555
O9 Zn1 1_555 1_555
N8 Zn1 1_555 1_555
Zn2 O3 1_555 1_555
O1 C11 1_555 1_555
O8 C2 1_555 1_555
O3 C11 1_555 1_555
O4 C1 1_555 1_555
O5 C2 1_555 1_555
O6 C4 1_555 1_555
N1 N6 1_555 1_555
N2 H1 1_555 1_555
N3 H2 1_555 1_555
N4 Zn2 1_555 1_555
N5 N4 1_555 1_555
N6 C12 1_555 1_555
C1 N2 1_555 1_555
C2 C5 1_555 1_555
C3 C1 1_555 1_555
C4 N3 1_555 1_555
C5 N3 1_555 1_555
H3 C5 1_555 1_555
C6 N2 1_555 1_555
H4 C6 1_555 1_555
C7 N1 1_555 1_555
H5 C7 1_555 1_555
C8 C4 1_555 1_555
C9 N4 1_555 1_555
H6 C9 1_555 1_555
C10 N5 1_555 1_555
H7 C10 1_555 1_555
C11 C6 1_555 1_555
C12 C3 1_555 1_555
H8 C12 1_555 1_555
C13 C6 1_555 1_555
H9 C13 1_555 1_555
H10 C13 1_555 1_555
H11 C13 1_555 1_555
C14 C5 1_555 1_555
H12 C14 1_555 1_555
H13 C14 1_555 1_555
H14 C14 1_555 1_555
Zn4 O5 1_555 1_555
Zn5 N6 1_555 1_555
Zn6 O1 1_555 1_555
Zn7 N5 1_555 1_555
O7 Zn2 1_555 1_555
N7 Zn2 1_555 1_555
C3 C7 1_555 1_555
C8 C9 1_555 1_555
C8 C10 1_555 1_555
O8_2 Zn1_2 1_555 1_555
O9_2 Zn1_2 1_555 1_555
Zn2_2 O3_2 1_555 1_555
O1_2 C11_2 1_555 1_555
O8_2 C2_2 1_555 1_555
O3_2 C11_2 1_555 1_555
O4_2 C1_2 1_555 1_555
O5_2 C2_2 1_555 1_555
O6_2 C4_2 1_555 1_555
N1_2 N6_2 1_555 1_555
N2_2 H1_2 1_555 1_555
N3_2 H2_2 1_555 1_555
N4_2 Zn2_2 1_555 1_555
N5_2 N4_2 1_555 1_555
N6_2 C12_2 1_555 1_555
C1_2 N2_2 1_555 1_555
C2_2 C5_2 1_555 1_555
C3_2 C1_2 1_555 1_555
C4_2 N3_2 1_555 1_555
C5_2 N3_2 1_555 1_555
H3_2 C5_2 1_555 1_555
C6_2 N2_2 1_555 1_555
H4_2 C6_2 1_555 1_555
C7_2 N1_2 1_555 1_555
H5_2 C7_2 1_555 1_555
C8_2 C4_2 1_555 1_555
C9_2 N4_2 1_555 1_555
H6_2 C9_2 1_555 1_555
C10_2 N5_2 1_555 1_555
H7_2 C10_2 1_555 1_555
C11_2 C6_2 1_555 1_555
C12_2 C3_2 1_555 1_555
H8_2 C12_2 1_555 1_555
C13_2 C6_2 1_555 1_555
H9_2 C13_2 1_555 1_555
H10_2 C13_2 1_555 1_555
H11_2 C13_2 1_555 1_555
C14_2 C5_2 1_555 1_555
H12_2 C14_2 1_555 1_555
H13_2 C14_2 1_555 1_555
H14_2 C14_2 1_555 1_555
O7_2 Zn2_2 1_555 1_555
C3_2 C7_2 1_555 1_555
C8_2 C9_2 1_555 1_555
C8_2 C10_2 1_555 1_555
O8_3 Zn1_3 1_555 1_555
O9_3 Zn1_3 1_555 1_555
Zn2_3 O3_3 1_555 1_555
O1_3 C11_3 1_555 1_555
O8_3 C2_3 1_555 1_555
O3_3 C11_3 1_555 1_555
O4_3 C1_3 1_555 1_555
O5_3 C2_3 1_555 1_555
O6_3 C4_3 1_555 1_555
N1_3 N6_3 1_555 1_555
N2_3 H1_3 1_555 1_555
N3_3 H2_3 1_555 1_555
N4_3 Zn2_3 1_555 1_555
N5_3 N4_3 1_555 1_555
N6_3 C12_3 1_555 1_555
C1_3 N2_3 1_555 1_555
C2_3 C5_3 1_555 1_555
C3_3 C1_3 1_555 1_555
C4_3 N3_3 1_555 1_555
C5_3 N3_3 1_555 1_555
H3_3 C5_3 1_555 1_555
C6_3 N2_3 1_555 1_555
H4_3 C6_3 1_555 1_555
C7_3 N1_3 1_555 1_555
H5_3 C7_3 1_555 1_555
C8_3 C4_3 1_555 1_555
C9_3 N4_3 1_555 1_555
H6_3 C9_3 1_555 1_555
C10_3 N5_3 1_555 1_555
H7_3 C10_3 1_555 1_555
C11_3 C6_3 1_555 1_555
C12_3 C3_3 1_555 1_555
H8_3 C12_3 1_555 1_555
C13_3 C6_3 1_555 1_555
H9_3 C13_3 1_555 1_555
H10_3 C13_3 1_555 1_555
H11_3 C13_3 1_555 1_555
C14_3 C5_3 1_555 1_555
H12_3 C14_3 1_555 1_555
H13_3 C14_3 1_555 1_555
H14_3 C14_3 1_555 1_555
O7_3 Zn2_3 1_555 1_555
C3_3 C7_3 1_555 1_555
C8_3 C9_3 1_555 1_555
C8_3 C10_3 1_555 1_555
Zn4_3 N1_4 1_555 1_555
O1_4 C11_4 1_555 1_555
N1_4 N8_3 1_555 1_555
N2_4 H1_4 1_555 1_555
N8_3 C12_4 1_555 1_555
C1_4 N2_4 1_555 1_555
C3_4 C1_4 1_555 1_555
C6_4 N2_4 1_555 1_555
H4_4 C6_4 1_555 1_555
C7_4 N1_4 1_555 1_555
H5_4 C7_4 1_555 1_555
C11_4 C6_4 1_555 1_555
C12_4 C3_4 1_555 1_555
C13_4 C6_4 1_555 1_555
H9_4 C13_4 1_555 1_555
Zn7_2 O1_4 1_555 1_555
O8_4 Zn4_3 1_555 1_555
C3_4 C7_4 1_555 1_555
Zn6_2 O3_4 1_555 1_555
O8_4 C2_4 1_555 1_555
O5_4 C2_4 1_555 1_555
O6_4 C4_4 1_555 1_555
N3_4 H2_4 1_555 1_555
N4_4 Zn6_2 1_555 1_555
N7_2 N4_4 1_555 1_555
C2_4 C5_4 1_555 1_555
C4_4 N3_4 1_555 1_555
C5_4 N3_4 1_555 1_555
H3_4 C5_4 1_555 1_555
C8_4 C4_4 1_555 1_555
C9_4 N4_4 1_555 1_555
H6_4 C9_4 1_555 1_555
C10_4 N7_2 1_555 1_555
H7_4 C10_4 1_555 1_555
C14_4 C5_4 1_555 1_555
H12_4 C14_4 1_555 1_555
H13_4 C14_4 1_555 1_555
H14_4 C14_4 1_555 1_555
Zn5_3 O5_4 1_555 1_555
C8_4 C9_4 1_555 1_555
C8_4 C10_4 1_555 1_555
Zn4 N1_5 1_555 1_555
O1_5 C11_5 1_555 1_555
N1_5 N8 1_555 1_555
N2_5 H1_5 1_555 1_555
N8 C12_5 1_555 1_555
C1_5 N2_5 1_555 1_555
C3_5 C1_5 1_555 1_555
C6_5 N2_5 1_555 1_555
H4_5 C6_5 1_555 1_555
C7_5 N1_5 1_555 1_555
H5_5 C7_5 1_555 1_555
C11_5 C6_5 1_555 1_555
C12_5 C3_5 1_555 1_555
C13_5 C6_5 1_555 1_555
H9_5 C13_5 1_555 1_555
Zn7_3 O1_5 1_555 1_555
O8_5 Zn4 1_555 1_555
N8_5 Zn4 1_555 1_555
C3_5 C7_5 1_555 1_555
Zn6_3 O3_5 1_555 1_555
O8_5 C2_5 1_555 1_555
O5_5 C2_5 1_555 1_555
O6_5 C4_5 1_555 1_555
N3_5 H2_5 1_555 1_555
N4_5 Zn6_3 1_555 1_555
N7_3 N4_5 1_555 1_555
C2_5 C5_5 1_555 1_555
C4_5 N3_5 1_555 1_555
C5_5 N3_5 1_555 1_555
H3_5 C5_5 1_555 1_555
C8_5 C4_5 1_555 1_555
C9_5 N4_5 1_555 1_555
H6_5 C9_5 1_555 1_555
C10_5 N7_3 1_555 1_555
H7_5 C10_5 1_555 1_555
C14_5 C5_5 1_555 1_555
H12_5 C14_5 1_555 1_555
H13_5 C14_5 1_555 1_555
H14_5 C14_5 1_555 1_555
Zn5 O5_5 1_555 1_555
C8_5 C9_5 1_555 1_555
C8_5 C10_5 1_555 1_555
Zn4_2 N1_6 1_555 1_555
O1_6 C11_6 1_555 1_555
N1_6 N8_2 1_555 1_555
N2_6 H1_6 1_555 1_555
N8_2 C12_6 1_555 1_555
C1_6 N2_6 1_555 1_555
C3_6 C1_6 1_555 1_555
C6_6 N2_6 1_555 1_555
H4_6 C6_6 1_555 1_555
C7_6 N1_6 1_555 1_555
H5_6 C7_6 1_555 1_555
C11_6 C6_6 1_555 1_555
C12_6 C3_6 1_555 1_555
C13_6 C6_6 1_555 1_555
H9_6 C13_6 1_555 1_555
Zn7 O1_6 1_555 1_555
O8_6 Zn4_2 1_555 1_555
C3_6 C7_6 1_555 1_555
Zn6 O3_6 1_555 1_555
O8_6 C2_6 1_555 1_555
O5_6 C2_6 1_555 1_555
O6_6 C4_6 1_555 1_555
N3_6 H2_6 1_555 1_555
N4_6 Zn6 1_555 1_555
N7 N4_6 1_555 1_555
C2_6 C5_6 1_555 1_555
C4_6 N3_6 1_555 1_555
C5_6 N3_6 1_555 1_555
H3_6 C5_6 1_555 1_555
C8_6 C4_6 1_555 1_555
C9_6 N4_6 1_555 1_555
H6_6 C9_6 1_555 1_555
C10_6 N7 1_555 1_555
H7_6 C10_6 1_555 1_555
C14_6 C5_6 1_555 1_555
H12_6 C14_6 1_555 1_555
H13_6 C14_6 1_555 1_555
H14_6 C14_6 1_555 1_555
Zn5_2 O5_6 1_555 1_555
N7_6 Zn6 1_555 1_555
C8_6 C9_6 1_555 1_555
C8_6 C10_6 1_555 1_555
O7_3 C11_7 1_555 1_555
O3_7 C11_7 1_555 1_555
O4_7 C1_7 1_555 1_555
N1_7 N8_6 1_555 1_555
N2_7 H1_7 1_555 1_555
N8_6 C12_7 1_555 1_555
C1_7 N2_7 1_555 1_555
C3_7 C1_7 1_555 1_555
C6_7 N2_7 1_555 1_555
H4_7 C6_7 1_555 1_555
C7_7 N1_7 1_555 1_555
H5_7 C7_7 1_555 1_555
C9_7 N4_7 1_555 1_555
H6_7 C9_7 1_555 1_555
C11_7 C6_7 1_555 1_555
C12_7 C3_7 1_555 1_555
H8_7 C12_7 1_555 1_555
C13_7 C6_7 1_555 1_555
H9_7 C13_7 1_555 1_555
H11_7 C13_7 1_555 1_555
H12_7 C14_7 1_555 1_555
H14_7 C14_7 1_555 1_555
C3_7 C7_7 1_555 1_555
O6_7 C4_7 1_555 1_555
C2_7 C5_7 1_555 1_555
C4_7 N3_7 1_555 1_555
C5_7 N3_7 1_555 1_555
H3_7 C5_7 1_555 1_555
C8_7 C4_7 1_555 1_555
C10_7 N7_5 1_555 1_555
H7_7 C10_7 1_555 1_555
C8_7 C10_7 1_555 1_555
O8_7 Zn5_2 1_555 1_555
O8_8 Zn5_3 1_555 1_555
Zn7 O3_8 1_555 1_555
O7 C11_8 1_555 1_555
O3_8 C11_8 1_555 1_555
O4_8 C1_8 1_555 1_555
N1_8 N8_4 1_555 1_555
N2_8 H1_8 1_555 1_555
N4_8 Zn7 1_555 1_555
N8_4 C12_8 1_555 1_555
C1_8 N2_8 1_555 1_555
C3_8 C1_8 1_555 1_555
C6_8 N2_8 1_555 1_555
H4_8 C6_8 1_555 1_555
C7_8 N1_8 1_555 1_555
H5_8 C7_8 1_555 1_555
C9_8 N4_8 1_555 1_555
H6_8 C9_8 1_555 1_555
C11_8 C6_8 1_555 1_555
C12_8 C3_8 1_555 1_555
H8_8 C12_8 1_555 1_555
C13_8 C6_8 1_555 1_555
H9_8 C13_8 1_555 1_555
H10_8 C13_8 1_555 1_555
H11_8 C13_8 1_555 1_555
H12_8 C14_8 1_555 1_555
H14_8 C14_8 1_555 1_555
C3_8 C7_8 1_555 1_555
O6_8 C4_8 1_555 1_555
C2_8 C5_8 1_555 1_555
C4_8 N3_8 1_555 1_555
C5_8 N3_8 1_555 1_555
H3_8 C5_8 1_555 1_555
C8_8 C4_8 1_555 1_555
C10_8 N7_6 1_555 1_555
H7_8 C10_8 1_555 1_555
C8_8 C10_8 1_555 1_555
Zn5 N1_9 1_555 1_555
O7_2 C11_9 1_555 1_555
O3_9 C11_9 1_555 1_555
O4_9 C1_9 1_555 1_555
N1_9 N8_5 1_555 1_555
N2_9 H1_9 1_555 1_555
N8_5 C12_9 1_555 1_555
C1_9 N2_9 1_555 1_555
C3_9 C1_9 1_555 1_555
C6_9 N2_9 1_555 1_555
H4_9 C6_9 1_555 1_555
C7_9 N1_9 1_555 1_555
H5_9 C7_9 1_555 1_555
C9_9 N4_9 1_555 1_555
H6_9 C9_9 1_555 1_555
C11_9 C6_9 1_555 1_555
C12_9 C3_9 1_555 1_555
H8_9 C12_9 1_555 1_555
C13_9 C6_9 1_555 1_555
H9_9 C13_9 1_555 1_555
H11_9 C13_9 1_555 1_555
H12_9 C14_9 1_555 1_555
H13_9 C14_9 1_555 1_555
H14_9 C14_9 1_555 1_555
O8_9 Zn5 1_555 1_555
C3_9 C7_9 1_555 1_555
O8_9 C2_9 1_555 1_555
O6_9 C4_9 1_555 1_555
C2_9 C5_9 1_555 1_555
C4_9 N3_9 1_555 1_555
C5_9 N3_9 1_555 1_555
H3_9 C5_9 1_555 1_555
C8_9 C4_9 1_555 1_555
C10_9 N7_4 1_555 1_555
H7_9 C10_9 1_555 1_555
C8_9 C10_9 1_555 1_555

#END
