
###############################################################################
#
# This file contains modified crystal structure data generated from the
# MOF subset of the Cambridge Structural Database (CSD) v543 
# hosted by the Cambridge Crystallographic Data Centre (CCDC).
#
# This work is licensed under the Creative Commons
# Attribution-NonCommercial-ShareAlike 4.0 International License.
# To view a copy of this license, visit
# http://creativecommons.org/licenses/by-nc-sa/4.0/
# or send a letter to
# Creative Commons, PO Box 1866, Mountain View, CA 94042, USA.
#
# CIF created using the CSD Python API on 29 September 2022
# The structure has been converted into the P1 space group
# The structure has a 3D framework
# The original CSD entry VUXDIE is in the rhombohedral crystal system
# The framework has been calculated to contain at least 10.0% void space
# The void calculation uses a probe of radius 1.32A, grid spacing 0.4
#
###############################################################################

data_VUXDIE
_chemical_formula_moiety         '(C108 H90 N54 O49 Zn13)n'
_symmetry_cell_setting           triclinic
_symmetry_space_group_name_H-M   'P 1'
_symmetry_Int_Tables_number      1
_space_group_name_Hall           'P 1'
loop_
_symmetry_equiv_pos_site_id
_symmetry_equiv_pos_as_xyz
1 x,y,z
_cell_length_a                   27.2332(4)
_cell_length_b                   27.2332(4)
_cell_length_c                   10.19432(8)
_cell_angle_alpha                90
_cell_angle_beta                 90
_cell_angle_gamma                120
_cell_volume                     6547.66
loop_
_atom_site_label
_atom_site_type_symbol
_atom_site_fract_x
_atom_site_fract_y
_atom_site_fract_z
_atom_site_U_iso_or_equiv
_atom_site_thermal_displace_type
Zn1 Zn 0.34880(16) 0.32525(19) 0.1854(6) 0.0137 Uiso
C1 C 0.2367(4) 0.2285(4) 0.0731(9) 0.0155 Uiso
O1 O 0.2779(4) 0.2452(3) 0.1497(7) 0.0155 Uiso
C2 C 0.1871(5) 0.1679(4) 0.0953(12) 0.0167 Uiso
H1 H 0.1639(4) 0.1683(5) 0.1670(15) 0.0203 Uiso
H2 H 0.1637(6) 0.1553(5) 0.0171(14) 0.0203 Uiso
C3 C 0.2196(9) 0.1039(4) 0.0282(15) 0.0161 Uiso
N1 N 0.2057(6) 0.1287(3) 0.1250(12) 0.0143 Uiso
H3 H 0.2082(6) 0.1206(3) 0.2074(12) 0.0203 Uiso
C4 C 0.2475(11) 0.0714(5) 0.067(2) 0.0149 Uiso
C5 C 0.2572(10) 0.0574(5) 0.192(3) 0.0144 Uiso
N2 N 0.2886(12) 0.0314(7) 0.181(3) 0.0142 Uiso
H4 H 0.2443(8) 0.0647(5) 0.270(2) 0.0175 Uiso
N3 N 0.2998(15) 0.0297(8) 0.052(4) 0.0167 Uiso
O4 O 0.4086(5) 0.3069(7) 0.3177(12) 0.0155 Uiso
N4 N 0.4095(14) 0.3647(7) 0.014(3) 0.0142 Uiso
N5 N 0.3036(8) 0.3669(15) 0.219(4) 0.0167 Uiso
O2 O 0.2317(5) 0.2581(5) 0.9844(12) 0.0155 Uiso
O3 O 0.2104(11) 0.1088(5) 0.9126(14) 0.0266 Uiso
C6 C 0.2767(14) 0.0549(7) 0.985(3) 0.0182 Uiso
H5 H 0.2798(16) 0.0606(7) 0.895(3) 0.0217 Uiso
Zn4 Zn 0.30978(25) 0.31787(16) 0.8521(6) 0.0137 Uiso
Zn2 Zn 0.34142(19) 0.98453(16) 0.0187(6) 0.0137 Uiso
Zn3 Zn 0.30978(25) 0.99192(19) 0.3521(6) 0.0137 Uiso
O2_2 O 0.0264(7) 0.2581(5) 0.4844(12) 0.0155 Uiso
H1_2 H 0.0044(6) 0.1683(5) 0.6670(15) 0.0203 Uiso
Zn4_2 Zn 0.00808(30) 0.31787(16) 0.3521(6) 0.0137 Uiso
N5_2 N 0.0632(17) 0.3669(15) 0.719(4) 0.0167 Uiso
Zn1_2 Zn 0.97645(25) 0.32525(19) 0.6854(6) 0.0137 Uiso
C1_2 C 0.9918(6) 0.2285(4) 0.5731(9) 0.0155 Uiso
O1_2 O 0.9673(5) 0.2452(3) 0.6497(7) 0.0155 Uiso
C2_2 C 0.9808(6) 0.1679(4) 0.5953(12) 0.0167 Uiso
H2_2 H 0.9916(8) 0.1553(5) 0.5171(14) 0.0203 Uiso
C3_2 C 0.8843(10) 0.1039(4) 0.5282(15) 0.0161 Uiso
O3_2 O 0.8984(12) 0.1088(5) 0.4126(14) 0.0266 Uiso
N1_2 N 0.9230(7) 0.1287(3) 0.6250(12) 0.0143 Uiso
H3_2 H 0.9124(7) 0.1206(3) 0.7074(12) 0.0203 Uiso
C4_2 C 0.8239(12) 0.0714(5) 0.567(2) 0.0149 Uiso
C5_2 C 0.8002(11) 0.0574(5) 0.692(3) 0.0144 Uiso
C6_2 C 0.7782(16) 0.0549(7) 0.485(3) 0.0182 Uiso
N2_2 N 0.7428(14) 0.0314(7) 0.681(3) 0.0142 Uiso
H4_2 H 0.8204(9) 0.0647(5) 0.770(2) 0.0175 Uiso
N3_2 N 0.7299(17) 0.0297(8) 0.552(4) 0.0167 Uiso
H5_2 H 0.7808(17) 0.0606(7) 0.395(3) 0.0217 Uiso
O4_2 O 0.8984(9) 0.3069(7) 0.8177(12) 0.0155 Uiso
N4_2 N 0.9553(16) 0.3647(7) 0.514(3) 0.0142 Uiso
Zn2_2 Zn 0.64312(25) 0.98453(16) 0.5187(6) 0.0137 Uiso
Zn3_2 Zn 0.68213(31) 0.99192(19) 0.8521(6) 0.0137 Uiso
Zn2_3 Zn 0.01547(16) 0.65858(19) 0.5187(6) 0.0137 Uiso
Zn3_3 Zn 0.00808(19) 0.69022(25) 0.8521(6) 0.0137 Uiso
Zn1_3 Zn 0.67475(19) 0.65120(16) 0.6854(6) 0.0137 Uiso
C1_3 C 0.7715(4) 0.7633(4) 0.5731(9) 0.0155 Uiso
O1_3 O 0.7548(3) 0.7221(4) 0.6497(7) 0.0155 Uiso
O2_3 O 0.7419(5) 0.7683(5) 0.4844(12) 0.0155 Uiso
C2_3 C 0.8321(4) 0.8129(5) 0.5953(12) 0.0167 Uiso
H1_3 H 0.8317(5) 0.8361(4) 0.6670(15) 0.0203 Uiso
H2_3 H 0.8447(5) 0.8363(6) 0.5171(14) 0.0203 Uiso
C3_3 C 0.8961(4) 0.7804(9) 0.5282(15) 0.0161 Uiso
O3_3 O 0.8912(5) 0.7896(11) 0.4126(14) 0.0266 Uiso
N1_3 N 0.8713(3) 0.7943(6) 0.6250(12) 0.0143 Uiso
H3_3 H 0.8794(3) 0.7918(6) 0.7074(12) 0.0203 Uiso
C4_3 C 0.9286(5) 0.7525(11) 0.567(2) 0.0149 Uiso
C5_3 C 0.9426(5) 0.7428(10) 0.692(3) 0.0144 Uiso
C6_3 C 0.9451(7) 0.7233(14) 0.485(3) 0.0182 Uiso
N2_3 N 0.9686(7) 0.7114(12) 0.681(3) 0.0142 Uiso
H4_3 H 0.9353(5) 0.7557(8) 0.770(2) 0.0175 Uiso
N3_3 N 0.9703(8) 0.7002(15) 0.552(4) 0.0167 Uiso
H5_3 H 0.9394(7) 0.7202(16) 0.395(3) 0.0217 Uiso
Zn4_3 Zn 0.68213(16) 0.69022(25) 0.3521(6) 0.0137 Uiso
O4_3 O 0.6931(7) 0.5914(5) 0.8177(12) 0.0155 Uiso
N4_3 N 0.6353(7) 0.5905(14) 0.514(3) 0.0142 Uiso
N5_3 N 0.6331(15) 0.6964(8) 0.719(4) 0.0167 Uiso
Zn2_4 Zn 0.01547(16) 0.35688(25) 0.0187(6) 0.0137 Uiso
Zn1_4 Zn 0.67475(19) 0.02355(25) 0.1854(6) 0.0137 Uiso
C1_4 C 0.7715(4) 0.0082(6) 0.0731(9) 0.0155 Uiso
O1_4 O 0.7548(3) 0.0327(5) 0.1497(7) 0.0155 Uiso
C2_4 C 0.8321(4) 0.0192(6) 0.0953(12) 0.0167 Uiso
H2_4 H 0.8447(5) 0.0084(8) 0.0171(14) 0.0203 Uiso
C3_4 C 0.8961(4) 0.1157(10) 0.0282(15) 0.0161 Uiso
N1_4 N 0.8713(3) 0.0770(7) 0.1250(12) 0.0143 Uiso
H3_4 H 0.8794(3) 0.0876(7) 0.2074(12) 0.0203 Uiso
C4_4 C 0.9286(5) 0.1761(12) 0.067(2) 0.0149 Uiso
C5_4 C 0.9426(5) 0.1998(11) 0.192(3) 0.0144 Uiso
N2_4 N 0.9686(7) 0.2572(14) 0.181(3) 0.0142 Uiso
H4_4 H 0.9353(5) 0.1796(9) 0.270(2) 0.0175 Uiso
N3_4 N 0.9703(8) 0.2701(17) 0.052(4) 0.0167 Uiso
O4_4 O 0.6931(7) 0.1016(9) 0.3177(12) 0.0155 Uiso
N4_4 N 0.6353(7) 0.0447(16) 0.014(3) 0.0142 Uiso
H1_4 H 0.8317(5) 0.9956(6) 0.1670(15) 0.0203 Uiso
N5_4 N 0.6331(15) 0.9368(17) 0.219(4) 0.0167 Uiso
O2_4 O 0.7419(5) 0.9736(7) 0.9844(12) 0.0155 Uiso
H1_5 H 0.0044(6) 0.8361(4) 0.1670(15) 0.0203 Uiso
N5_5 N 0.0632(17) 0.6964(8) 0.219(4) 0.0167 Uiso
O2_5 O 0.0264(7) 0.7683(5) 0.9844(12) 0.0155 Uiso
Zn1_5 Zn 0.97645(25) 0.65120(16) 0.1854(6) 0.0137 Uiso
C1_5 C 0.9918(6) 0.7633(4) 0.0731(9) 0.0155 Uiso
O1_5 O 0.9673(5) 0.7221(4) 0.1497(7) 0.0155 Uiso
C2_5 C 0.9808(6) 0.8129(5) 0.0953(12) 0.0167 Uiso
H2_5 H 0.9916(8) 0.8363(6) 0.0171(14) 0.0203 Uiso
C3_5 C 0.8843(10) 0.7804(9) 0.0282(15) 0.0161 Uiso
N1_5 N 0.9230(7) 0.7943(6) 0.1250(12) 0.0143 Uiso
H3_5 H 0.9124(7) 0.7918(6) 0.2074(12) 0.0203 Uiso
C4_5 C 0.8239(12) 0.7525(11) 0.067(2) 0.0149 Uiso
C5_5 C 0.8002(11) 0.7428(10) 0.192(3) 0.0144 Uiso
N2_5 N 0.7428(14) 0.7114(12) 0.181(3) 0.0142 Uiso
H4_5 H 0.8204(9) 0.7557(8) 0.270(2) 0.0175 Uiso
N3_5 N 0.7299(17) 0.7002(15) 0.052(4) 0.0167 Uiso
Zn2_5 Zn 0.64312(25) 0.65858(19) 0.0187(6) 0.0137 Uiso
O4_5 O 0.8984(9) 0.5914(5) 0.3177(12) 0.0155 Uiso
N4_5 N 0.9553(16) 0.5905(14) 0.014(3) 0.0142 Uiso
Zn1_6 Zn 0.34880(16) 0.02355(25) 0.6854(6) 0.0137 Uiso
C1_6 C 0.2367(4) 0.0082(6) 0.5731(9) 0.0155 Uiso
O1_6 O 0.2779(4) 0.0327(5) 0.6497(7) 0.0155 Uiso
C2_6 C 0.1871(5) 0.0192(6) 0.5953(12) 0.0167 Uiso
H2_6 H 0.1637(6) 0.0084(8) 0.5171(14) 0.0203 Uiso
C3_6 C 0.2196(9) 0.1157(10) 0.5282(15) 0.0161 Uiso
O3_4 O 0.2104(11) 0.1016(12) 0.4126(14) 0.0266 Uiso
N1_6 N 0.2057(6) 0.0770(7) 0.6250(12) 0.0143 Uiso
H3_6 H 0.2082(6) 0.0876(7) 0.7074(12) 0.0203 Uiso
C4_6 C 0.2475(11) 0.1761(12) 0.567(2) 0.0149 Uiso
C5_6 C 0.2572(10) 0.1998(11) 0.692(3) 0.0144 Uiso
C6_4 C 0.2767(14) 0.2218(16) 0.485(3) 0.0182 Uiso
N2_6 N 0.2886(12) 0.2572(14) 0.681(3) 0.0142 Uiso
H4_6 H 0.2443(8) 0.1796(9) 0.770(2) 0.0175 Uiso
N3_6 N 0.2998(15) 0.2701(17) 0.552(4) 0.0167 Uiso
H5_4 H 0.2798(16) 0.2192(17) 0.395(3) 0.0217 Uiso
Zn2_6 Zn 0.34142(19) 0.35688(25) 0.5187(6) 0.0137 Uiso
O4_6 O 0.4086(5) 0.1016(9) 0.8177(12) 0.0155 Uiso
N4_6 N 0.4095(14) 0.0447(16) 0.514(3) 0.0142 Uiso
O2_6 O 0.2317(5) 0.9736(7) 0.4844(12) 0.0155 Uiso
H1_6 H 0.1639(4) 0.9956(6) 0.6670(15) 0.0203 Uiso
N5_6 N 0.3036(8) 0.9368(17) 0.719(4) 0.0167 Uiso
O4_7 O 0.0752(5) 0.6403(7) 0.6511(12) 0.0155 Uiso
N4_7 N 0.0761(14) 0.6981(7) 0.348(3) 0.0142 Uiso
C1_7 C 0.9034(4) 0.5618(4) 0.4064(9) 0.0155 Uiso
O1_7 O 0.9446(4) 0.5785(3) 0.4830(7) 0.0155 Uiso
C2_7 C 0.8538(5) 0.5012(4) 0.4286(12) 0.0167 Uiso
H1_7 H 0.8306(4) 0.5016(5) 0.5003(15) 0.0203 Uiso
H2_7 H 0.8304(6) 0.4886(5) 0.3504(14) 0.0203 Uiso
C3_7 C 0.8863(9) 0.4372(4) 0.3615(15) 0.0161 Uiso
O3_5 O 0.8771(11) 0.4421(5) 0.2459(14) 0.0266 Uiso
N1_7 N 0.8724(6) 0.4620(3) 0.4583(12) 0.0143 Uiso
H3_7 H 0.8749(6) 0.4539(3) 0.5407(12) 0.0203 Uiso
C4_7 C 0.9142(11) 0.4047(5) 0.400(2) 0.0149 Uiso
C5_7 C 0.9239(10) 0.3907(5) 0.525(3) 0.0144 Uiso
C6_5 C 0.9434(14) 0.3882(7) 0.318(3) 0.0182 Uiso
H4_7 H 0.9110(8) 0.3980(5) 0.603(2) 0.0175 Uiso
N3_7 N 0.9665(15) 0.3630(8) 0.385(4) 0.0167 Uiso
H5_5 H 0.9465(16) 0.3939(7) 0.228(3) 0.0217 Uiso
H1_8 H 0.6711(6) 0.5016(5) 0.0003(15) 0.0203 Uiso
H3_8 H 0.5791(7) 0.4539(3) 0.0407(12) 0.0203 Uiso
C5_8 C 0.4669(11) 0.3907(5) 0.025(3) 0.0144 Uiso
H4_8 H 0.4871(9) 0.3980(5) 0.103(2) 0.0175 Uiso
O4_8 O 0.5650(9) 0.6403(7) 0.1511(12) 0.0155 Uiso
C1_8 C 0.6585(6) 0.5618(4) 0.9064(9) 0.0155 Uiso
O1_8 O 0.6340(5) 0.5785(3) 0.9830(7) 0.0155 Uiso
C2_8 C 0.6475(6) 0.5012(4) 0.9286(12) 0.0167 Uiso
H2_8 H 0.6583(8) 0.4886(5) 0.8504(14) 0.0203 Uiso
C3_8 C 0.5510(10) 0.4372(4) 0.8615(15) 0.0161 Uiso
O3_6 O 0.5651(12) 0.4421(5) 0.7459(14) 0.0266 Uiso
N1_8 N 0.5897(7) 0.4620(3) 0.9583(12) 0.0143 Uiso
C4_8 C 0.4906(12) 0.4047(5) 0.900(2) 0.0149 Uiso
C6_6 C 0.4449(16) 0.3882(7) 0.818(3) 0.0182 Uiso
N3_8 N 0.3966(17) 0.3630(8) 0.885(4) 0.0167 Uiso
H5_6 H 0.4475(17) 0.3939(7) 0.728(3) 0.0217 Uiso
N4_8 N 0.6219(16) 0.6981(7) 0.848(3) 0.0142 Uiso
H1_9 H 0.4984(5) 0.1694(4) 0.0003(15) 0.0203 Uiso
H3_9 H 0.5461(3) 0.1251(6) 0.0407(12) 0.0203 Uiso
C5_9 C 0.6093(5) 0.0761(10) 0.025(3) 0.0144 Uiso
H4_9 H 0.6020(5) 0.0890(8) 0.103(2) 0.0175 Uiso
C1_9 C 0.4382(4) 0.0966(4) 0.9064(9) 0.0155 Uiso
O1_9 O 0.4215(3) 0.0554(4) 0.9830(7) 0.0155 Uiso
C2_9 C 0.4988(4) 0.1462(5) 0.9286(12) 0.0167 Uiso
H2_9 H 0.5114(5) 0.1696(6) 0.8504(14) 0.0203 Uiso
C3_9 C 0.5628(4) 0.1137(9) 0.8615(15) 0.0161 Uiso
O3_7 O 0.5579(5) 0.1229(11) 0.7459(14) 0.0266 Uiso
N1_9 N 0.5380(3) 0.1276(6) 0.9583(12) 0.0143 Uiso
C4_9 C 0.5953(5) 0.0858(11) 0.900(2) 0.0149 Uiso
C6_7 C 0.6118(7) 0.0566(14) 0.818(3) 0.0182 Uiso
N3_9 N 0.6370(8) 0.0335(15) 0.885(4) 0.0167 Uiso
H5_7 H 0.6061(7) 0.0535(16) 0.728(3) 0.0217 Uiso
O4_9 O 0.3597(7) 0.9248(5) 0.1511(12) 0.0155 Uiso
N4_9 N 0.3019(7) 0.9239(14) 0.848(3) 0.0142 Uiso
C1_10 C 0.4382(4) 0.3415(6) 0.4064(9) 0.0155 Uiso
O1_10 O 0.4215(3) 0.3660(5) 0.4830(7) 0.0155 Uiso
C2_10 C 0.4988(4) 0.3525(6) 0.4286(12) 0.0167 Uiso
H1_10 H 0.4984(5) 0.3289(6) 0.5003(15) 0.0203 Uiso
H2_10 H 0.5114(5) 0.3417(8) 0.3504(14) 0.0203 Uiso
C3_10 C 0.5628(4) 0.4490(10) 0.3615(15) 0.0161 Uiso
O3_8 O 0.5579(5) 0.4349(12) 0.2459(14) 0.0266 Uiso
N1_10 N 0.5380(3) 0.4103(7) 0.4583(12) 0.0143 Uiso
H3_10 H 0.5461(3) 0.4209(7) 0.5407(12) 0.0203 Uiso
C4_10 C 0.5953(5) 0.5094(12) 0.400(2) 0.0149 Uiso
C5_10 C 0.6093(5) 0.5331(11) 0.525(3) 0.0144 Uiso
C6_8 C 0.6118(7) 0.5551(16) 0.318(3) 0.0182 Uiso
H4_10 H 0.6020(5) 0.5129(9) 0.603(2) 0.0175 Uiso
N3_10 N 0.6370(8) 0.6034(17) 0.385(4) 0.0167 Uiso
H5_8 H 0.6061(7) 0.5525(17) 0.228(3) 0.0217 Uiso
O4_10 O 0.3597(7) 0.4350(9) 0.6511(12) 0.0155 Uiso
N4_10 N 0.3019(7) 0.3781(16) 0.348(3) 0.0142 Uiso
C1_11 C 0.6585(6) 0.0966(4) 0.4064(9) 0.0155 Uiso
O1_11 O 0.6340(5) 0.0554(4) 0.4830(7) 0.0155 Uiso
C2_11 C 0.6475(6) 0.1462(5) 0.4286(12) 0.0167 Uiso
H1_11 H 0.6711(6) 0.1694(4) 0.5003(15) 0.0203 Uiso
H2_11 H 0.6583(8) 0.1696(6) 0.3504(14) 0.0203 Uiso
C3_11 C 0.5510(10) 0.1137(9) 0.3615(15) 0.0161 Uiso
O3_9 O 0.5651(12) 0.1229(11) 0.2459(14) 0.0266 Uiso
N1_11 N 0.5897(7) 0.1276(6) 0.4583(12) 0.0143 Uiso
H3_11 H 0.5791(7) 0.1251(6) 0.5407(12) 0.0203 Uiso
C4_11 C 0.4906(12) 0.0858(11) 0.400(2) 0.0149 Uiso
C5_11 C 0.4669(11) 0.0761(10) 0.525(3) 0.0144 Uiso
C6_9 C 0.4449(16) 0.0566(14) 0.318(3) 0.0182 Uiso
H4_11 H 0.4871(9) 0.0890(8) 0.603(2) 0.0175 Uiso
N3_11 N 0.3966(17) 0.0335(15) 0.385(4) 0.0167 Uiso
H5_9 H 0.4475(17) 0.0535(16) 0.228(3) 0.0217 Uiso
O4_11 O 0.5650(9) 0.9248(5) 0.6511(12) 0.0155 Uiso
N4_11 N 0.6219(16) 0.9239(14) 0.348(3) 0.0142 Uiso
O4_12 O 0.0752(5) 0.4350(9) 0.1511(12) 0.0155 Uiso
N4_12 N 0.0761(14) 0.3781(16) 0.848(3) 0.0142 Uiso
H1_12 H 0.8306(4) 0.3289(6) 0.0003(15) 0.0203 Uiso
H3_12 H 0.8749(6) 0.4209(7) 0.0407(12) 0.0203 Uiso
C5_12 C 0.9239(10) 0.5331(11) 0.025(3) 0.0144 Uiso
H4_12 H 0.9110(8) 0.5129(9) 0.103(2) 0.0175 Uiso
C1_12 C 0.9034(4) 0.3415(6) 0.9064(9) 0.0155 Uiso
O1_12 O 0.9446(4) 0.3660(5) 0.9830(7) 0.0155 Uiso
C2_12 C 0.8538(5) 0.3525(6) 0.9286(12) 0.0167 Uiso
H2_12 H 0.8304(6) 0.3417(8) 0.8504(14) 0.0203 Uiso
C3_12 C 0.8863(9) 0.4490(10) 0.8615(15) 0.0161 Uiso
O3_10 O 0.8771(11) 0.4349(12) 0.7459(14) 0.0266 Uiso
N1_12 N 0.8724(6) 0.4103(7) 0.9583(12) 0.0143 Uiso
C4_12 C 0.9142(11) 0.5094(12) 0.900(2) 0.0149 Uiso
C6_10 C 0.9434(14) 0.5551(16) 0.818(3) 0.0182 Uiso
N3_12 N 0.9665(15) 0.6034(17) 0.885(4) 0.0167 Uiso
H5_10 H 0.9465(16) 0.5525(17) 0.728(3) 0.0217 Uiso
C1_13 C 0.5700(4) 0.8952(4) 0.7398(9) 0.0155 Uiso
O1_13 O 0.6112(4) 0.9119(3) 0.8164(7) 0.0155 Uiso
C2_13 C 0.5204(5) 0.8346(4) 0.7620(12) 0.0167 Uiso
H1_13 H 0.4972(4) 0.8350(5) 0.8337(15) 0.0203 Uiso
H2_13 H 0.4970(6) 0.8220(5) 0.6838(14) 0.0203 Uiso
C3_13 C 0.5529(9) 0.7706(4) 0.6949(15) 0.0161 Uiso
O3_11 O 0.5437(11) 0.7755(5) 0.5793(14) 0.0266 Uiso
N1_13 N 0.5390(6) 0.7954(3) 0.7917(12) 0.0143 Uiso
H3_13 H 0.5415(6) 0.7873(3) 0.8741(12) 0.0203 Uiso
C4_13 C 0.5808(11) 0.7381(5) 0.734(2) 0.0149 Uiso
C5_13 C 0.5905(10) 0.7241(5) 0.859(3) 0.0144 Uiso
C6_11 C 0.6100(14) 0.7216(7) 0.652(3) 0.0182 Uiso
H4_13 H 0.5776(8) 0.7314(5) 0.937(2) 0.0175 Uiso
H5_11 H 0.6131(16) 0.7273(7) 0.562(3) 0.0217 Uiso
C1_14 C 0.3251(6) 0.8952(4) 0.2398(9) 0.0155 Uiso
O1_14 O 0.3006(5) 0.9119(3) 0.3164(7) 0.0155 Uiso
C2_14 C 0.3141(6) 0.8346(4) 0.2620(12) 0.0167 Uiso
H1_14 H 0.3377(6) 0.8350(5) 0.3337(15) 0.0203 Uiso
H2_14 H 0.3249(8) 0.8220(5) 0.1838(14) 0.0203 Uiso
C3_14 C 0.2176(10) 0.7706(4) 0.1949(15) 0.0161 Uiso
O3_12 O 0.2317(12) 0.7755(5) 0.0793(14) 0.0266 Uiso
N1_14 N 0.2563(7) 0.7954(3) 0.2917(12) 0.0143 Uiso
H3_14 H 0.2457(7) 0.7873(3) 0.3741(12) 0.0203 Uiso
C4_14 C 0.1572(12) 0.7381(5) 0.234(2) 0.0149 Uiso
C5_14 C 0.1335(11) 0.7241(5) 0.359(3) 0.0144 Uiso
C6_12 C 0.1115(16) 0.7216(7) 0.152(3) 0.0182 Uiso
H4_14 H 0.1537(9) 0.7314(5) 0.437(2) 0.0175 Uiso
H5_12 H 0.1141(17) 0.7273(7) 0.062(3) 0.0217 Uiso
C1_15 C 0.1048(4) 0.4300(4) 0.2398(9) 0.0155 Uiso
O1_15 O 0.0881(3) 0.3888(4) 0.3164(7) 0.0155 Uiso
C2_15 C 0.1654(4) 0.4796(5) 0.2620(12) 0.0167 Uiso
H1_15 H 0.1650(5) 0.5028(4) 0.3337(15) 0.0203 Uiso
H2_15 H 0.1780(5) 0.5030(6) 0.1838(14) 0.0203 Uiso
C3_15 C 0.2294(4) 0.4471(9) 0.1949(15) 0.0161 Uiso
O3_13 O 0.2245(5) 0.4563(11) 0.0793(14) 0.0266 Uiso
N1_15 N 0.2046(3) 0.4610(6) 0.2917(12) 0.0143 Uiso
H3_15 H 0.2127(3) 0.4585(6) 0.3741(12) 0.0203 Uiso
C4_15 C 0.2619(5) 0.4192(11) 0.234(2) 0.0149 Uiso
C5_15 C 0.2759(5) 0.4095(10) 0.359(3) 0.0144 Uiso
C6_13 C 0.2784(7) 0.3900(14) 0.152(3) 0.0182 Uiso
H4_15 H 0.2686(5) 0.4224(8) 0.437(2) 0.0175 Uiso
H5_13 H 0.2727(7) 0.3869(16) 0.062(3) 0.0217 Uiso
C1_16 C 0.1048(4) 0.6749(6) 0.7398(9) 0.0155 Uiso
O1_16 O 0.0881(3) 0.6994(5) 0.8164(7) 0.0155 Uiso
C2_16 C 0.1654(4) 0.6859(6) 0.7620(12) 0.0167 Uiso
H1_16 H 0.1650(5) 0.6623(6) 0.8337(15) 0.0203 Uiso
H2_16 H 0.1780(5) 0.6751(8) 0.6838(14) 0.0203 Uiso
C3_16 C 0.2294(4) 0.7824(10) 0.6949(15) 0.0161 Uiso
O3_14 O 0.2245(5) 0.7683(12) 0.5793(14) 0.0266 Uiso
N1_16 N 0.2046(3) 0.7437(7) 0.7917(12) 0.0143 Uiso
H3_16 H 0.2127(3) 0.7543(7) 0.8741(12) 0.0203 Uiso
C4_16 C 0.2619(5) 0.8428(12) 0.734(2) 0.0149 Uiso
C5_16 C 0.2759(5) 0.8665(11) 0.859(3) 0.0144 Uiso
C6_14 C 0.2784(7) 0.8885(16) 0.652(3) 0.0182 Uiso
H4_16 H 0.2686(5) 0.8463(9) 0.937(2) 0.0175 Uiso
H5_14 H 0.2727(7) 0.8859(17) 0.562(3) 0.0217 Uiso
C1_17 C 0.3251(6) 0.4300(4) 0.7398(9) 0.0155 Uiso
O1_17 O 0.3006(5) 0.3888(4) 0.8164(7) 0.0155 Uiso
C2_17 C 0.3141(6) 0.4796(5) 0.7620(12) 0.0167 Uiso
H1_17 H 0.3377(6) 0.5028(4) 0.8337(15) 0.0203 Uiso
H2_17 H 0.3249(8) 0.5030(6) 0.6838(14) 0.0203 Uiso
C3_17 C 0.2176(10) 0.4471(9) 0.6949(15) 0.0161 Uiso
O3_15 O 0.2317(12) 0.4563(11) 0.5793(14) 0.0266 Uiso
N1_17 N 0.2563(7) 0.4610(6) 0.7917(12) 0.0143 Uiso
H3_17 H 0.2457(7) 0.4585(6) 0.8741(12) 0.0203 Uiso
C4_17 C 0.1572(12) 0.4192(11) 0.734(2) 0.0149 Uiso
C5_17 C 0.1335(11) 0.4095(10) 0.859(3) 0.0144 Uiso
C6_15 C 0.1115(16) 0.3900(14) 0.652(3) 0.0182 Uiso
H4_17 H 0.1537(9) 0.4224(8) 0.937(2) 0.0175 Uiso
H5_15 H 0.1141(17) 0.3869(16) 0.562(3) 0.0217 Uiso
C1_18 C 0.5700(4) 0.6749(6) 0.2398(9) 0.0155 Uiso
O1_18 O 0.6112(4) 0.6994(5) 0.3164(7) 0.0155 Uiso
C2_18 C 0.5204(5) 0.6859(6) 0.2620(12) 0.0167 Uiso
H1_18 H 0.4972(4) 0.6623(6) 0.3337(15) 0.0203 Uiso
H2_18 H 0.4970(6) 0.6751(8) 0.1838(14) 0.0203 Uiso
C3_18 C 0.5529(9) 0.7824(10) 0.1949(15) 0.0161 Uiso
O3_16 O 0.5437(11) 0.7683(12) 0.0793(14) 0.0266 Uiso
N1_18 N 0.5390(6) 0.7437(7) 0.2917(12) 0.0143 Uiso
H3_18 H 0.5415(6) 0.7543(7) 0.3741(12) 0.0203 Uiso
C4_18 C 0.5808(11) 0.8428(12) 0.234(2) 0.0149 Uiso
C5_18 C 0.5905(10) 0.8665(11) 0.359(3) 0.0144 Uiso
C6_16 C 0.6100(14) 0.8885(16) 0.152(3) 0.0182 Uiso
H4_18 H 0.5776(8) 0.8463(9) 0.437(2) 0.0175 Uiso
H5_16 H 0.6131(16) 0.8859(17) 0.062(3) 0.0217 Uiso
O3_17 O 0.8912(5) 0.1016(12) 0.9126(14) 0.0266 Uiso
C6_17 C 0.9451(7) 0.2218(16) 0.985(3) 0.0182 Uiso
H5_17 H 0.9394(7) 0.2192(17) 0.895(3) 0.0217 Uiso
O3_18 O 0.8984(12) 0.7896(11) 0.9126(14) 0.0266 Uiso
C6_18 C 0.7782(16) 0.7233(14) 0.985(3) 0.0182 Uiso
H5_18 H 0.7808(17) 0.7202(16) 0.895(3) 0.0217 Uiso
loop_
_geom_bond_atom_site_label_1
_geom_bond_atom_site_label_2
_geom_bond_site_symmetry_1
_geom_bond_site_symmetry_2
Zn1 O1 1_555 1_555
C1 O1 1_555 1_555
C2 C1 1_555 1_555
H1 C2 1_555 1_555
H2 C2 1_555 1_555
N1 C2 1_555 1_555
H3 N1 1_555 1_555
C4 C3 1_555 1_555
C5 C4 1_555 1_555
N2 C5 1_555 1_555
H4 C5 1_555 1_555
O4 Zn1 1_555 1_555
N4 Zn1 1_555 1_555
N5 Zn1 1_555 1_555
C3 N1 1_555 1_555
N2 N3 1_555 1_555
H5 C6 1_555 1_555
Zn4 O2 1_555 1_555
Zn4_2 O2_2 1_555 1_555
Zn1_2 O1_2 1_555 1_555
C1_2 O1_2 1_555 1_555
C2_2 C1_2 1_555 1_555
H2_2 C2_2 1_555 1_555
C3_2 O3_2 1_555 1_555
N1_2 C2_2 1_555 1_555
H3_2 N1_2 1_555 1_555
C4_2 C3_2 1_555 1_555
C5_2 C4_2 1_555 1_555
C6_2 C4_2 1_555 1_555
N2_2 C5_2 1_555 1_555
H4_2 C5_2 1_555 1_555
N3_2 C6_2 1_555 1_555
H5_2 C6_2 1_555 1_555
O4_2 Zn1_2 1_555 1_555
N4_2 Zn1_2 1_555 1_555
C3_2 N1_2 1_555 1_555
N2_2 N3_2 1_555 1_555
Zn1_3 O1_3 1_555 1_555
C1_3 O1_3 1_555 1_555
O2_3 C1_3 1_555 1_555
C2_3 C1_3 1_555 1_555
H1_3 C2_3 1_555 1_555
H2_3 C2_3 1_555 1_555
C3_3 O3_3 1_555 1_555
N1_3 C2_3 1_555 1_555
H3_3 N1_3 1_555 1_555
C4_3 C3_3 1_555 1_555
C5_3 C4_3 1_555 1_555
C6_3 C4_3 1_555 1_555
N2_3 C5_3 1_555 1_555
H4_3 C5_3 1_555 1_555
N3_3 C6_3 1_555 1_555
H5_3 C6_3 1_555 1_555
Zn4_3 O2_3 1_555 1_555
O4_3 Zn1_3 1_555 1_555
N4_3 Zn1_3 1_555 1_555
N5_3 Zn1_3 1_555 1_555
C3_3 N1_3 1_555 1_555
N2_3 N3_3 1_555 1_555
Zn1_4 O1_4 1_555 1_555
C1_4 O1_4 1_555 1_555
C2_4 C1_4 1_555 1_555
H2_4 C2_4 1_555 1_555
N1_4 C2_4 1_555 1_555
H3_4 N1_4 1_555 1_555
C4_4 C3_4 1_555 1_555
C5_4 C4_4 1_555 1_555
N2_4 C5_4 1_555 1_555
H4_4 C5_4 1_555 1_555
O4_4 Zn1_4 1_555 1_555
N4_4 Zn1_4 1_555 1_555
C3_4 N1_4 1_555 1_555
N2_4 N3_4 1_555 1_555
Zn3_2 O2_4 1_555 1_555
Zn3_3 O2_5 1_555 1_555
Zn1_5 O1_5 1_555 1_555
C1_5 O1_5 1_555 1_555
C2_5 C1_5 1_555 1_555
H2_5 C2_5 1_555 1_555
N1_5 C2_5 1_555 1_555
H3_5 N1_5 1_555 1_555
C4_5 C3_5 1_555 1_555
C5_5 C4_5 1_555 1_555
N2_5 C5_5 1_555 1_555
H4_5 C5_5 1_555 1_555
Zn2_5 N3_5 1_555 1_555
Zn4_3 N2_5 1_555 1_555
O4_5 Zn1_5 1_555 1_555
N4_5 Zn1_5 1_555 1_555
C3_5 N1_5 1_555 1_555
N2_5 N3_5 1_555 1_555
Zn1_6 O1_6 1_555 1_555
C1_6 O1_6 1_555 1_555
C2_6 C1_6 1_555 1_555
H2_6 C2_6 1_555 1_555
C3_6 O3_4 1_555 1_555
N1_6 C2_6 1_555 1_555
H3_6 N1_6 1_555 1_555
C4_6 C3_6 1_555 1_555
C5_6 C4_6 1_555 1_555
C6_4 C4_6 1_555 1_555
N2_6 C5_6 1_555 1_555
H4_6 C5_6 1_555 1_555
N3_6 C6_4 1_555 1_555
H5_4 C6_4 1_555 1_555
Zn2_6 N3_6 1_555 1_555
Zn4 N2_6 1_555 1_555
O4_6 Zn1_6 1_555 1_555
N4_6 Zn1_6 1_555 1_555
C3_6 N1_6 1_555 1_555
N2_6 N3_6 1_555 1_555
Zn3 O2_6 1_555 1_555
O4_7 Zn2_3 1_555 1_555
N4_7 Zn2_3 1_555 1_555
C1_7 O1_7 1_555 1_555
O4_5 C1_7 1_555 1_555
C2_7 C1_7 1_555 1_555
H1_7 C2_7 1_555 1_555
H2_7 C2_7 1_555 1_555
C3_7 O3_5 1_555 1_555
N1_7 C2_7 1_555 1_555
H3_7 N1_7 1_555 1_555
C4_7 C3_7 1_555 1_555
C5_7 C4_7 1_555 1_555
C6_5 C4_7 1_555 1_555
N4_2 C5_7 1_555 1_555
H4_7 C5_7 1_555 1_555
N3_7 C6_5 1_555 1_555
H5_5 C6_5 1_555 1_555
C3_7 N1_7 1_555 1_555
N4_2 N3_7 1_555 1_555
N4 C5_8 1_555 1_555
H4_8 C5_8 1_555 1_555
O4_8 Zn2_5 1_555 1_555
C1_8 O1_8 1_555 1_555
O4_3 C1_8 1_555 1_555
C2_8 C1_8 1_555 1_555
H2_8 C2_8 1_555 1_555
C3_8 O3_6 1_555 1_555
N1_8 C2_8 1_555 1_555
C4_8 C3_8 1_555 1_555
C6_6 C4_8 1_555 1_555
N3_8 C6_6 1_555 1_555
H5_6 C6_6 1_555 1_555
Zn4 N3_8 1_555 1_555
C3_8 N1_8 1_555 1_555
N4_4 C5_9 1_555 1_555
H4_9 C5_9 1_555 1_555
C1_9 O1_9 1_555 1_555
O4_6 C1_9 1_555 1_555
C2_9 C1_9 1_555 1_555
H2_9 C2_9 1_555 1_555
C3_9 O3_7 1_555 1_555
N1_9 C2_9 1_555 1_555
C4_9 C3_9 1_555 1_555
C6_7 C4_9 1_555 1_555
N3_9 C6_7 1_555 1_555
H5_7 C6_7 1_555 1_555
C3_9 N1_9 1_555 1_555
O4_9 Zn2 1_555 1_555
Zn2_6 O1_10 1_555 1_555
C1_10 O1_10 1_555 1_555
O4 C1_10 1_555 1_555
C2_10 C1_10 1_555 1_555
H1_10 C2_10 1_555 1_555
H2_10 C2_10 1_555 1_555
C3_10 O3_8 1_555 1_555
N1_10 C2_10 1_555 1_555
H3_10 N1_10 1_555 1_555
C4_10 C3_10 1_555 1_555
C5_10 C4_10 1_555 1_555
C6_8 C4_10 1_555 1_555
N4_3 C5_10 1_555 1_555
H4_10 C5_10 1_555 1_555
N3_10 C6_8 1_555 1_555
H5_8 C6_8 1_555 1_555
Zn4_3 N3_10 1_555 1_555
O4_10 Zn2_6 1_555 1_555
N4_10 Zn2_6 1_555 1_555
C3_10 N1_10 1_555 1_555
N4_3 N3_10 1_555 1_555
C1_11 O1_11 1_555 1_555
O4_4 C1_11 1_555 1_555
C2_11 C1_11 1_555 1_555
H1_11 C2_11 1_555 1_555
H2_11 C2_11 1_555 1_555
C3_11 O3_9 1_555 1_555
N1_11 C2_11 1_555 1_555
H3_11 N1_11 1_555 1_555
C4_11 C3_11 1_555 1_555
C5_11 C4_11 1_555 1_555
C6_9 C4_11 1_555 1_555
N4_6 C5_11 1_555 1_555
H4_11 C5_11 1_555 1_555
N3_11 C6_9 1_555 1_555
H5_9 C6_9 1_555 1_555
C3_11 N1_11 1_555 1_555
N4_6 N3_11 1_555 1_555
O4_11 Zn2_2 1_555 1_555
N4_11 Zn2_2 1_555 1_555
O4_12 Zn2_4 1_555 1_555
N4_5 C5_12 1_555 1_555
H4_12 C5_12 1_555 1_555
C1_12 O1_12 1_555 1_555
O4_2 C1_12 1_555 1_555
C2_12 C1_12 1_555 1_555
H2_12 C2_12 1_555 1_555
C3_12 O3_10 1_555 1_555
N1_12 C2_12 1_555 1_555
C4_12 C3_12 1_555 1_555
C6_10 C4_12 1_555 1_555
N3_12 C6_10 1_555 1_555
H5_10 C6_10 1_555 1_555
C3_12 N1_12 1_555 1_555
Zn3_2 O1_13 1_555 1_555
C1_13 O1_13 1_555 1_555
O4_11 C1_13 1_555 1_555
C2_13 C1_13 1_555 1_555
H1_13 C2_13 1_555 1_555
H2_13 C2_13 1_555 1_555
C3_13 O3_11 1_555 1_555
N1_13 C2_13 1_555 1_555
H3_13 N1_13 1_555 1_555
C4_13 C3_13 1_555 1_555
C5_13 C4_13 1_555 1_555
C6_11 C4_13 1_555 1_555
N4_8 C5_13 1_555 1_555
H4_13 C5_13 1_555 1_555
N5_3 C6_11 1_555 1_555
H5_11 C6_11 1_555 1_555
C3_13 N1_13 1_555 1_555
N4_8 N5_3 1_555 1_555
Zn3 O1_14 1_555 1_555
C1_14 O1_14 1_555 1_555
O4_9 C1_14 1_555 1_555
C2_14 C1_14 1_555 1_555
H1_14 C2_14 1_555 1_555
H2_14 C2_14 1_555 1_555
C3_14 O3_12 1_555 1_555
N1_14 C2_14 1_555 1_555
H3_14 N1_14 1_555 1_555
C4_14 C3_14 1_555 1_555
C5_14 C4_14 1_555 1_555
C6_12 C4_14 1_555 1_555
N4_7 C5_14 1_555 1_555
H4_14 C5_14 1_555 1_555
N5_5 C6_12 1_555 1_555
H5_12 C6_12 1_555 1_555
C3_14 N1_14 1_555 1_555
N4_7 N5_5 1_555 1_555
Zn4_2 O1_15 1_555 1_555
C1_15 O1_15 1_555 1_555
O4_12 C1_15 1_555 1_555
C2_15 C1_15 1_555 1_555
H1_15 C2_15 1_555 1_555
H2_15 C2_15 1_555 1_555
C3_15 O3_13 1_555 1_555
N1_15 C2_15 1_555 1_555
H3_15 N1_15 1_555 1_555
C4_15 C3_15 1_555 1_555
C5_15 C4_15 1_555 1_555
C6_13 C4_15 1_555 1_555
N4_10 C5_15 1_555 1_555
H4_15 C5_15 1_555 1_555
N5 C6_13 1_555 1_555
H5_13 C6_13 1_555 1_555
C3_15 N1_15 1_555 1_555
N4_10 N5 1_555 1_555
Zn3_3 O1_16 1_555 1_555
C1_16 O1_16 1_555 1_555
O4_7 C1_16 1_555 1_555
C2_16 C1_16 1_555 1_555
H1_16 C2_16 1_555 1_555
H2_16 C2_16 1_555 1_555
C3_16 O3_14 1_555 1_555
N1_16 C2_16 1_555 1_555
H3_16 N1_16 1_555 1_555
C4_16 C3_16 1_555 1_555
C5_16 C4_16 1_555 1_555
C6_14 C4_16 1_555 1_555
N4_9 C5_16 1_555 1_555
H4_16 C5_16 1_555 1_555
N5_6 C6_14 1_555 1_555
H5_14 C6_14 1_555 1_555
C3_16 N1_16 1_555 1_555
N4_9 N5_6 1_555 1_555
Zn4 O1_17 1_555 1_555
C1_17 O1_17 1_555 1_555
O4_10 C1_17 1_555 1_555
C2_17 C1_17 1_555 1_555
H1_17 C2_17 1_555 1_555
H2_17 C2_17 1_555 1_555
C3_17 O3_15 1_555 1_555
N1_17 C2_17 1_555 1_555
H3_17 N1_17 1_555 1_555
C4_17 C3_17 1_555 1_555
C5_17 C4_17 1_555 1_555
C6_15 C4_17 1_555 1_555
N4_12 C5_17 1_555 1_555
H4_17 C5_17 1_555 1_555
N5_2 C6_15 1_555 1_555
H5_15 C6_15 1_555 1_555
C3_17 N1_17 1_555 1_555
N4_12 N5_2 1_555 1_555
Zn4_3 O1_18 1_555 1_555
C1_18 O1_18 1_555 1_555
O4_8 C1_18 1_555 1_555
C2_18 C1_18 1_555 1_555
H1_18 C2_18 1_555 1_555
H2_18 C2_18 1_555 1_555
C3_18 O3_16 1_555 1_555
N1_18 C2_18 1_555 1_555
H3_18 N1_18 1_555 1_555
C4_18 C3_18 1_555 1_555
C5_18 C4_18 1_555 1_555
C6_16 C4_18 1_555 1_555
N4_11 C5_18 1_555 1_555
H4_18 C5_18 1_555 1_555
N5_4 C6_16 1_555 1_555
H5_16 C6_16 1_555 1_555
C3_18 N1_18 1_555 1_555
N4_11 N5_4 1_555 1_555
H5_17 C6_17 1_555 1_555
H5_18 C6_18 1_555 1_555

#END
