
###############################################################################
#
# This file contains modified crystal structure data generated from the
# MOF subset of the Cambridge Structural Database (CSD) v543 
# hosted by the Cambridge Crystallographic Data Centre (CCDC).
#
# This work is licensed under the Creative Commons
# Attribution-NonCommercial-ShareAlike 4.0 International License.
# To view a copy of this license, visit
# http://creativecommons.org/licenses/by-nc-sa/4.0/
# or send a letter to
# Creative Commons, PO Box 1866, Mountain View, CA 94042, USA.
#
# CIF created using the CSD Python API on 29 September 2022
# The structure has been converted into the P1 space group
# The structure has a 3D framework
# The original CSD entry VUYJIK is in the monoclinic crystal system
# The framework has been calculated to contain at least 10.0% void space
# The void calculation uses a probe of radius 1.32A, grid spacing 0.4
# H atom positions have been added when not included in the experimental data
# Generated hydrogen atom positions removed from atoms on special positions
#
###############################################################################

data_VUYJIK
_chemical_formula_moiety         '(C84 H116 Cu12 Gd4 N11 O67)n'
_symmetry_cell_setting           triclinic
_symmetry_space_group_name_H-M   'P 1'
_symmetry_Int_Tables_number      1
_space_group_name_Hall           'P 1'
loop_
_symmetry_equiv_pos_site_id
_symmetry_equiv_pos_as_xyz
1 x,y,z
_cell_length_a                   11.7915(5)
_cell_length_b                   13.1431(5)
_cell_length_c                   19.6019(8)
_cell_angle_alpha                90
_cell_angle_beta                 96.196(2)
_cell_angle_gamma                90
_cell_volume                     3020.1
loop_
_atom_site_label
_atom_site_type_symbol
_atom_site_fract_x
_atom_site_fract_y
_atom_site_fract_z
O25 O 0.0360(3) 0.0107(4) 0.13056(18)
Cu4 Cu -0.0000 -0.0000 0.0000
O37 O 0.1566(3) 0.0482(3) 0.0030(2)
Cu4_2 Cu -0.0000 -0.0000 1.0000
C15 C 0.0141(4) 0.7222(5) 0.1624(2)
H2 H 0.0360 0.4298 0.1915
O16 O 0.1069(3) 0.7650(3) 0.16163(18)
H6 H 0.0485 0.2568 0.2042
C21 C 0.0129(5) 0.9568(5) 0.1783(3)
O24 O 0.0663(4) 0.9530(3) 0.2373(2)
Gd3 Gd 0.13041(2) 0.93790(2) 0.351783(13)
Cu4_3 Cu -0.0000 1.0000 0.0000
C42 C 0.1370(4) 0.8087(5) 0.0002(3)
H17 H 0.2224 0.6764 0.0010
H18 H 0.2019 0.8493 0.0028
Cu4_4 Cu 1.0000 -0.0000 1.0000
Gd1 Gd 0.36959(2) 0.43790(2) 0.148217(13)
O1 O 0.4083(4) 0.2784(4) 0.0982(3)
O2 O 0.5707(3) 0.4023(3) 0.1512(2)
O3 O 0.2734(4) 0.3143(4) 0.2130(2)
O4 O 0.3874(4) 0.5001(5) 0.0329(2)
O5 O 0.2303(4) 0.5524(3) 0.1845(2)
O6 O 0.4591(4) 0.6065(4) 0.1603(3)
O7 O 0.1992(3) 0.3928(3) 0.08045(17)
O8 O 0.4337(4) 0.4530(3) 0.2627(2)
C1 C 0.6666(5) 0.4446(5) 0.1551(3)
C2 C 0.1579(4) 0.3795(4) 0.0191(3)
O9 O 0.6821(3) 0.5394(3) 0.1541(2)
C3 C 0.7719(4) 0.3790(5) 0.1646(3)
C4 C 0.0542(4) 0.3102(4) 0.0098(2)
Cu1 Cu 0.84024(6) 0.58384(6) 0.15656(4)
N1 N 0.8683(4) 0.4366(3) 0.1723(3)
C5 C 0.7732(4) 0.2748(5) 0.1688(3)
C6 C 0.0601(4) 0.2051(4) 0.0071(2)
N2 N 0.8098(3) 0.7311(4) 0.1535(2)
O11 O 0.9986(3) 0.6265(3) 0.16166(19)
C8 C 0.9699(5) 0.3907(5) 0.1865(3)
C9 C 0.6703(4) 0.2041(5) 0.1542(3)
C10 C 0.8811(5) 0.2300(6) 0.1856(4)
C11 C 0.1696(4) 0.1442(5) 0.0066(3)
C13 C 0.9063(4) 0.7864(4) 0.1620(2)
C14 C 0.7093(4) 0.7787(5) 0.1485(3)
C16 C 0.9777(5) 0.2876(5) 0.1938(4)
O12 O 0.6263(3) 0.2030(4) 0.0934(2)
O13 O 0.6436(4) 0.1504(4) 0.2019(2)
H3 H 0.8865 0.1599 0.1913
O15 O 0.2615(3) 0.1896(3) 0.00711(18)
C18 C 0.9059(5) 0.8901(5) 0.1674(3)
C19 C 0.7003(5) 0.8806(5) 0.1523(3)
H5 H 0.6429 0.7400 0.1421
C20 C 0.7983(5) 0.9389(5) 0.1616(3)
H8 H 0.6290 0.9115 0.1488
O18 O 0.8098(3) 0.5770(3) 0.0323(2)
Cu4_5 Cu 1.0000 1.0000 0.0000
O10 O 0.1902(3) 0.4230(3) 0.9677(2)
Cu3 Cu 0.15976(6) 0.41616(6) 0.84344(4)
N4 N 0.1317(4) 0.5634(3) 0.8277(3)
N5 N 0.1902(3) 0.2689(4) 0.8465(2)
O19 O 0.3179(3) 0.4606(3) 0.8459(2)
O20 O 0.0014(3) 0.3735(3) 0.83834(19)
C22 C 0.8421(4) 0.6205(4) 0.9809(3)
C23 C 0.2281(4) 0.6210(5) 0.8354(3)
C24 C 0.0301(5) 0.6093(5) 0.8135(3)
C25 C 0.0937(4) 0.2136(4) 0.8380(2)
C26 C 0.2907(4) 0.2213(5) 0.8515(3)
C27 C 0.3334(5) 0.5554(5) 0.8449(3)
O21 O 0.8008(3) 0.6072(3) 0.91955(17)
C29 C 0.9458(4) 0.6898(4) 0.9902(2)
C30 C 0.2268(4) 0.7252(5) 0.8312(3)
C31 C 0.0223(5) 0.7124(5) 0.8062(4)
C32 C 0.0941(5) 0.1099(5) 0.8326(3)
C33 C 0.2997(5) 0.1194(5) 0.8477(3)
H11 H 0.3571 0.2600 0.8579
O22 O 0.4293(3) 0.5977(3) 0.8488(2)
Gd2 Gd 0.63041(2) 0.56210(2) 0.851783(13)
C34 C 0.9399(4) 0.7949(4) 0.9929(2)
C36 C 0.3297(4) 0.7959(5) 0.8458(3)
C37 C 0.1189(5) 0.7700(6) 0.8144(4)
C38 C 0.2017(5) 0.0611(5) 0.8384(3)
H13 H 0.3710 0.0885 0.8512
O26 O 0.5917(4) 0.7216(4) 0.9018(3)
O27 O 0.7266(4) 0.6857(4) 0.7870(2)
O28 O 0.6126(4) 0.4999(5) 0.9671(2)
O29 O 0.7697(4) 0.4476(3) 0.8155(2)
O30 O 0.5409(4) 0.3935(4) 0.8397(3)
O31 O 0.5663(4) 0.5470(3) 0.7373(2)
C40 C 0.8304(4) 0.8558(5) 0.9934(3)
O32 O 0.3737(3) 0.7970(4) 0.9066(2)
O33 O 0.3564(4) 0.8496(4) 0.7981(2)
H15 H 0.1135 0.8401 0.8087
Cu4_6 Cu 1.0000 1.0000 1.0000
O35 O 0.8434(3) 0.9518(3) 0.9970(2)
O36 O 0.7385(3) 0.8104(3) 0.99289(18)
O38 O 0.9640(3) 0.9893(4) 0.86944(18)
H29 H 0.329305 0.466583 0.999902
C17 C 0.8630(4) 0.1913(5) 0.9998(3)
H4 H 0.7776 0.3236 0.9990
H7 H 0.7981 0.1507 0.9972
C28 C 0.9859(4) 0.2778(5) 0.8376(2)
H10 H 0.9640 0.5702 0.8085
O23 O 0.8931(3) 0.2350(3) 0.83837(18)
H12 H 0.9515 0.7432 0.7958
C39 C 0.9871(5) 0.0432(5) 0.8217(3)
O34 O 0.9337(4) 0.0470(3) 0.7627(2)
Gd4 Gd 0.86959(2) 0.06210(2) 0.648217(13)
O1_2 O 0.0917(4) 0.7784(4) 0.4018(3)
O3_2 O 0.2266(4) 0.8143(4) 0.2870(2)
O7_2 O 0.3008(3) 0.8928(3) 0.41955(17)
C2_2 C 0.3421(4) 0.8795(4) 0.4809(3)
O10_2 O 0.3098(3) 0.9230(3) 0.5323(2)
C4_2 C 0.4458(4) 0.8102(4) 0.4902(2)
C6_2 C 0.4399(4) 0.7051(4) 0.4929(2)
C7 C 0.5543(5) 0.8544(5) 0.4931(3)
N3 N 0.5358(4) 0.6461(4) 0.4982(2)
C11_2 C 0.3304(4) 0.6442(5) 0.4934(3)
C12 C 0.6501(5) 0.7945(5) 0.4985(3)
H1 H 0.5614 0.9248 0.4914
C17_2 C 0.6370(4) 0.6913(5) 0.5002(3)
Cu2 Cu 0.5000 0.5000 0.5000
O14 O 0.3434(3) 0.5482(3) 0.4970(2)
O15_2 O 0.2385(3) 0.6896(3) 0.49289(18)
H4_2 H 0.7224 0.8236 0.5010
H7_2 H 0.7019 0.6507 0.5028
O17 O 0.5360(3) 0.4893(4) 0.63056(18)
Cu3_2 Cu 0.34024(6) 0.91616(6) 0.65656(4)
N5_2 N 0.3098(3) 0.7689(4) 0.6535(2)
O19_2 O 0.1821(3) 0.9606(3) 0.6541(2)
O20_2 O 0.4986(3) 0.8735(3) 0.66166(19)
C25_2 C 0.4063(4) 0.7136(4) 0.6620(2)
C26_2 C 0.2093(4) 0.7213(5) 0.6485(3)
C28_2 C 0.5141(4) 0.7778(5) 0.6624(2)
C32_2 C 0.4059(5) 0.6099(5) 0.6674(3)
C33_2 C 0.2003(5) 0.6194(5) 0.6523(3)
H11_2 H 0.1429 0.7600 0.6421
O23_2 O 0.6069(3) 0.7350(3) 0.66163(18)
C38_2 C 0.2983(5) 0.5611(5) 0.6616(3)
C39_2 C 0.5129(5) 0.5432(5) 0.6783(3)
H13_2 H 0.1290 0.5885 0.6488
H16 H 0.2935 0.4906 0.6640
H29_2 H 0.170695 0.966583 0.500098
H38 H 0.0301642 0.897882 0.692327
O9_2 O 0.8179(3) 0.0394(3) 0.3459(2)
Cu1_2 Cu 0.65976(6) 0.08384(6) 0.34344(4)
N2_2 N 0.6902(3) 0.2311(4) 0.3465(2)
O11_2 O 0.5014(3) 0.1265(3) 0.33834(19)
C13_2 C 0.5937(4) 0.2864(4) 0.3380(2)
C14_2 C 0.7907(4) 0.2787(5) 0.3515(3)
C15_2 C 0.4859(4) 0.2222(5) 0.3376(2)
C18_2 C 0.5941(5) 0.3901(5) 0.3326(3)
C19_2 C 0.7997(5) 0.3806(5) 0.3477(3)
H5_2 H 0.8571 0.2400 0.3579
O16_2 O 0.3931(3) 0.2650(3) 0.33837(18)
C20_2 C 0.7017(5) 0.4389(5) 0.3384(3)
C21_2 C 0.4871(5) 0.4568(5) 0.3217(3)
H8_2 H 0.8710 0.4115 0.3512
H9 H 0.7065 0.5094 0.3360
O18_2 O 0.6902(3) 0.0770(3) 0.4677(2)
C22_2 C 0.6579(4) 0.1205(4) 0.5191(3)
O21_2 O 0.6992(3) 0.1072(3) 0.58045(17)
C29_2 C 0.5542(4) 0.1898(4) 0.5098(2)
C34_2 C 0.5601(4) 0.2949(4) 0.5071(2)
C35 C 0.4457(5) 0.1456(5) 0.5069(3)
O25_2 O 0.4640(3) 0.5107(4) 0.36944(18)
O26_2 O 0.9083(4) 0.2216(4) 0.5982(3)
O27_2 O 0.7734(4) 0.1857(4) 0.7130(2)
N6 N 0.4642(4) 0.3539(4) 0.5018(2)
C40_2 C 0.6696(4) 0.3558(5) 0.5066(3)
C41 C 0.3499(5) 0.2055(5) 0.5015(3)
H14 H 0.4386 0.0752 0.5086
C42_2 C 0.3630(4) 0.3087(5) 0.4998(3)
O35_2 O 0.6566(3) 0.4518(3) 0.5030(2)
O36_2 O 0.7615(3) 0.3104(3) 0.50711(18)
H17_2 H 0.2776 0.1764 0.4990
H18_2 H 0.2981 0.3493 0.4972
H21 H 0.881965 0.0579728 0.500305
H29_3 H 0.670695 0.533417 9.80783e-05
H21_2 H 0.118035 0.942027 0.499695
H29_4 H 0.829305 0.0334169 0.499902
H38_2 H 0.969836 0.102118 0.307673
C35_2 C 0.0543(5) 0.6456(5) 0.9931(3)
N6_2 N 0.0358(4) 0.8539(4) 0.9982(2)
C41_2 C 0.1501(5) 0.7055(5) 0.9985(3)
H14_2 H 0.0614 0.5752 0.9914
Cu4_7 Cu -0.0000 1.0000 1.0000
H16_2 H 0.2065 0.9906 0.8360
H9_2 H 0.7935 0.0094 0.1640
Cu4_8 Cu 1.0000 -0.0000 0.0000
N7 N 0.9642(4) 0.1461(4) 0.0018(2)
C7_2 C 0.9457(5) 0.3544(5) 0.0069(3)
C12_2 C 0.8499(5) 0.2945(5) 0.0015(3)
H1_2 H 0.9386 0.4248 0.0086
O4_2 O 0.1126(4) 0.0001(5) 0.4671(2)
O5_2 O 0.2697(4) 0.0524(3) 0.3155(2)
O6_2 O 0.0409(4) 0.1065(4) 0.3397(3)
N4_2 N 0.3683(4) 0.0634(3) 0.6723(3)
C23_2 C 0.2719(4) 0.1210(5) 0.6646(3)
C24_2 C 0.4699(5) 0.1093(5) 0.6865(3)
C27_2 C 0.1666(5) 0.0554(5) 0.6551(3)
C30_2 C 0.2732(4) 0.2252(5) 0.6688(3)
C31_2 C 0.4777(5) 0.2124(5) 0.6938(4)
H10_2 H 0.5360 0.0702 0.6915
O22_2 O 0.0707(3) 0.0977(3) 0.6512(2)
C36_2 C 0.1703(4) 0.2959(5) 0.6542(3)
C37_2 C 0.3811(5) 0.2700(6) 0.6856(4)
H12_2 H 0.5485 0.2432 0.7042
O32_2 O 0.1263(3) 0.2970(4) 0.5934(2)
O33_2 O 0.1436(4) 0.3496(4) 0.7019(2)
H15_2 H 0.3865 0.3401 0.6913
H30 H 0.12466 0.0748758 0.468592
H22 H 0.0376772 0.034314 0.467926
O2_2 O 0.9293(3) 0.9023(3) 0.3488(2)
C1_2 C 0.8334(5) 0.9446(5) 0.3449(3)
C3_2 C 0.7281(4) 0.8790(5) 0.3354(3)
N1_2 N 0.6317(4) 0.9366(3) 0.3277(3)
C5_2 C 0.7268(4) 0.7748(5) 0.3312(3)
C8_2 C 0.5301(5) 0.8907(5) 0.3135(3)
C9_2 C 0.8297(4) 0.7041(5) 0.3458(3)
C10_2 C 0.6189(5) 0.7300(6) 0.3144(4)
C16_2 C 0.5223(5) 0.7876(5) 0.3062(4)
H2_2 H 0.4640 0.9298 0.3085
O12_2 O 0.8737(3) 0.7030(4) 0.4066(2)
O13_2 O 0.8564(4) 0.6504(4) 0.2981(2)
H3_2 H 0.6135 0.6599 0.3087
H6_2 H 0.4515 0.7568 0.2958
O28_2 O 0.8874(4) 0.9999(5) 0.5329(2)
O29_2 O 0.7303(4) 0.9476(3) 0.6845(2)
O30_2 O 0.9591(4) 0.8935(4) 0.6603(3)
H22_2 H 0.962323 0.965686 0.532074
H30_2 H 0.87534 0.925124 0.531408
loop_
_geom_bond_atom_site_label_1
_geom_bond_atom_site_label_2
_geom_bond_site_symmetry_1
_geom_bond_site_symmetry_2
Cu4 O25 1_555 1_555
O37 Cu4 1_555 1_555
O16 C15 1_555 1_555
O24 C21 1_555 1_555
Gd3 O24 1_555 1_555
H18 C42 1_555 1_555
Gd1 O1 1_555 1_555
O2 Gd1 1_555 1_555
O3 Gd1 1_555 1_555
O4 Gd1 1_555 1_555
O5 Gd1 1_555 1_555
O6 Gd1 1_555 1_555
O7 Gd1 1_555 1_555
O8 Gd1 1_555 1_555
C1 O2 1_555 1_555
C2 O7 1_555 1_555
O9 C1 1_555 1_555
C3 C1 1_555 1_555
C4 C2 1_555 1_555
Cu1 O9 1_555 1_555
N1 C3 1_555 1_555
C5 C3 1_555 1_555
C6 C4 1_555 1_555
N2 Cu1 1_555 1_555
O11 Cu1 1_555 1_555
C8 N1 1_555 1_555
C9 C5 1_555 1_555
C10 C5 1_555 1_555
C11 C6 1_555 1_555
C13 N2 1_555 1_555
C14 N2 1_555 1_555
C16 C8 1_555 1_555
O12 C9 1_555 1_555
O13 C9 1_555 1_555
H3 C10 1_555 1_555
O37 C11 1_555 1_555
O15 C11 1_555 1_555
C18 C13 1_555 1_555
C19 C14 1_555 1_555
H5 C14 1_555 1_555
C20 C18 1_555 1_555
H8 C19 1_555 1_555
O18 Cu1 1_555 1_555
Cu1 N1 1_555 1_555
C10 C16 1_555 1_555
C19 C20 1_555 1_555
Cu3 O10 1_555 1_555
N4 Cu3 1_555 1_555
N5 Cu3 1_555 1_555
O19 Cu3 1_555 1_555
O20 Cu3 1_555 1_555
C23 N4 1_555 1_555
C24 N4 1_555 1_555
C25 N5 1_555 1_555
C26 N5 1_555 1_555
C27 O19 1_555 1_555
O21 C22 1_555 1_555
C29 C22 1_555 1_555
C30 C23 1_555 1_555
C31 C24 1_555 1_555
C32 C25 1_555 1_555
C33 C26 1_555 1_555
H11 C26 1_555 1_555
O22 C27 1_555 1_555
Gd2 O21 1_555 1_555
C34 C29 1_555 1_555
C36 C30 1_555 1_555
C37 C30 1_555 1_555
C38 C32 1_555 1_555
H13 C33 1_555 1_555
O26 Gd2 1_555 1_555
O27 Gd2 1_555 1_555
O28 Gd2 1_555 1_555
O29 Gd2 1_555 1_555
O30 Gd2 1_555 1_555
O31 Gd2 1_555 1_555
C40 C34 1_555 1_555
O32 C36 1_555 1_555
O33 C36 1_555 1_555
H15 C37 1_555 1_555
O35 C40 1_555 1_555
O36 C40 1_555 1_555
O38 Cu4_6 1_555 1_555
C23 C27 1_555 1_555
C31 C37 1_555 1_555
C33 C38 1_555 1_555
O22 Gd2 1_555 1_555
Cu4_6 O35 1_555 1_555
H7 C17 1_555 1_555
O23 C28 1_555 1_555
O34 C39 1_555 1_555
Gd4 O34 1_555 1_555
Gd3 O1_2 1_555 1_555
O3_2 Gd3 1_555 1_555
O7_2 Gd3 1_555 1_555
C2_2 O7_2 1_555 1_555
O10_2 C2_2 1_555 1_555
C4_2 C2_2 1_555 1_555
C6_2 C4_2 1_555 1_555
C7 C4_2 1_555 1_555
N3 C6_2 1_555 1_555
C11_2 C6_2 1_555 1_555
C12 C7 1_555 1_555
H1 C7 1_555 1_555
C17_2 N3 1_555 1_555
Cu2 N3 1_555 1_555
O14 C11_2 1_555 1_555
O15_2 C11_2 1_555 1_555
H4_2 C12 1_555 1_555
H7_2 C17_2 1_555 1_555
O17 Cu2 1_555 1_555
Cu3_2 O10_2 1_555 1_555
N5_2 Cu3_2 1_555 1_555
O19_2 Cu3_2 1_555 1_555
O20_2 Cu3_2 1_555 1_555
C25_2 N5_2 1_555 1_555
C26_2 N5_2 1_555 1_555
C28_2 O20_2 1_555 1_555
C32_2 C25_2 1_555 1_555
C33_2 C26_2 1_555 1_555
H11_2 C26_2 1_555 1_555
O23_2 C28_2 1_555 1_555
C38_2 C32_2 1_555 1_555
C39_2 O17 1_555 1_555
H13_2 C33_2 1_555 1_555
H16 C38_2 1_555 1_555
O31 C39_2 1_555 1_555
C12 C17_2 1_555 1_555
Cu2 O14 1_555 1_555
C25_2 C28_2 1_555 1_555
C32_2 C39_2 1_555 1_555
C33_2 C38_2 1_555 1_555
Cu1_2 O9_2 1_555 1_555
N2_2 Cu1_2 1_555 1_555
O11_2 Cu1_2 1_555 1_555
C13_2 N2_2 1_555 1_555
C14_2 N2_2 1_555 1_555
C15_2 O11_2 1_555 1_555
C18_2 C13_2 1_555 1_555
C19_2 C14_2 1_555 1_555
H5_2 C14_2 1_555 1_555
O16_2 C15_2 1_555 1_555
C20_2 C18_2 1_555 1_555
C21_2 C18_2 1_555 1_555
H8_2 C19_2 1_555 1_555
H9 C20_2 1_555 1_555
O18_2 Cu1_2 1_555 1_555
C22_2 O18_2 1_555 1_555
O21_2 C22_2 1_555 1_555
C29_2 C22_2 1_555 1_555
Gd4 O21_2 1_555 1_555
C34_2 C29_2 1_555 1_555
C35 C29_2 1_555 1_555
O8 C21_2 1_555 1_555
O25_2 C21_2 1_555 1_555
O26_2 Gd4 1_555 1_555
O27_2 Gd4 1_555 1_555
N6 C34_2 1_555 1_555
C40_2 C34_2 1_555 1_555
C41 C35 1_555 1_555
H14 C35 1_555 1_555
Cu2 O25_2 1_555 1_555
C42_2 N6 1_555 1_555
O35_2 C40_2 1_555 1_555
O36_2 C40_2 1_555 1_555
H17_2 C41 1_555 1_555
H18_2 C42_2 1_555 1_555
C13_2 C15_2 1_555 1_555
C19_2 C20_2 1_555 1_555
N6 Cu2 1_555 1_555
C41 C42_2 1_555 1_555
Cu2 O35_2 1_555 1_555
C41_2 C35_2 1_555 1_555
H14_2 C35_2 1_555 1_555
N6_2 Cu4_7 1_555 1_555
N7 Cu4_8 1_555 1_555
C12_2 C7_2 1_555 1_555
H1_2 C7_2 1_555 1_555
C23_2 N4_2 1_555 1_555
C24_2 N4_2 1_555 1_555
C30_2 C23_2 1_555 1_555
C31_2 C24_2 1_555 1_555
H10_2 C24_2 1_555 1_555
O22_2 C27_2 1_555 1_555
C36_2 C30_2 1_555 1_555
C37_2 C30_2 1_555 1_555
H12_2 C31_2 1_555 1_555
O32_2 C36_2 1_555 1_555
O33_2 C36_2 1_555 1_555
H15_2 C37_2 1_555 1_555
C23_2 C27_2 1_555 1_555
C31_2 C37_2 1_555 1_555
O4_2 H30 1_555 1_555
O4_2 H22 1_555 1_555
C1_2 O2_2 1_555 1_555
C3_2 C1_2 1_555 1_555
N1_2 C3_2 1_555 1_555
C5_2 C3_2 1_555 1_555
C8_2 N1_2 1_555 1_555
C9_2 C5_2 1_555 1_555
C10_2 C5_2 1_555 1_555
C16_2 C8_2 1_555 1_555
H2_2 C8_2 1_555 1_555
O12_2 C9_2 1_555 1_555
O13_2 C9_2 1_555 1_555
H3_2 C10_2 1_555 1_555
H6_2 C16_2 1_555 1_555
C10_2 C16_2 1_555 1_555
O28_2 H22_2 1_555 1_555
O28_2 H30_2 1_555 1_555

#END
