
###############################################################################
#
# This file contains modified crystal structure data generated from the
# MOF subset of the Cambridge Structural Database (CSD) v543 
# hosted by the Cambridge Crystallographic Data Centre (CCDC).
#
# This work is licensed under the Creative Commons
# Attribution-NonCommercial-ShareAlike 4.0 International License.
# To view a copy of this license, visit
# http://creativecommons.org/licenses/by-nc-sa/4.0/
# or send a letter to
# Creative Commons, PO Box 1866, Mountain View, CA 94042, USA.
#
# CIF created using the CSD Python API on 29 September 2022
# The structure has been converted into the P1 space group
# The structure has a 3D framework
# The original CSD entry VUZDIG is in the rhombohedral crystal system
# The framework has been calculated to contain at least 10.0% void space
# The void calculation uses a probe of radius 1.32A, grid spacing 0.4
#
###############################################################################

data_VUZDIG
_chemical_formula_moiety         '(C360 H234 N18 O80 Zr16)n'
_symmetry_cell_setting           triclinic
_symmetry_space_group_name_H-M   'P 1'
_symmetry_Int_Tables_number      1
_space_group_name_Hall           'P 1'
loop_
_symmetry_equiv_pos_site_id
_symmetry_equiv_pos_as_xyz
1 x,y,z
_cell_length_a                   31.172(3)
_cell_length_b                   31.172
_cell_length_c                   14.8866(14)
_cell_angle_alpha                90
_cell_angle_beta                 90
_cell_angle_gamma                120
_cell_volume                     12527.2
loop_
_atom_site_label
_atom_site_type_symbol
_atom_site_fract_x
_atom_site_fract_y
_atom_site_fract_z
O9 O 0.0245(3) 0.0916(6) 0.7881(4)
C38 C 0.0089(5) 0.1304(7) 0.6295(8)
H24 H 0.0235 0.1748 0.5138
H26 H 0.0421 0.1405 0.6458
Zr5 Zr 0.05601(3) 0.07115(3) 0.90408(5)
Zr9 Zr 0.01515(4) 0.94399(3) 0.90408(5)
Zr1 Zr 0.61066(3) 0.26218(3) 0.42925(5)
O1 O 0.6667 0.3333 0.4836(6)
O2 O 0.5300(2) 0.2190(2) 0.3968(5)
O3 O 0.5208(2) 0.2582(4) 0.2688(5)
O5 O 0.0939(2) 0.0616(3) 0.7884(4)
C1 C 0.5036(4) 0.2255(5) 0.3358(8)
C2 C 0.4495(4) 0.1933(4) 0.3411(7)
C3 C 0.4181(4) 0.2040(5) 0.2898(8)
C4 C 0.4281(4) 0.1521(5) 0.3992(8)
H1 H 0.4321 0.2324 0.2523
C5 C 0.3663(5) 0.1732(5) 0.2932(8)
C6 C 0.3769(5) 0.1229(5) 0.4044(8)
H2 H 0.4486 0.1444 0.4347
C7 C 0.3453(5) 0.1331(5) 0.3513(8)
H3 H 0.3457 0.1800 0.2557
H4 H 0.3628 0.0955 0.4444
C8 C 0.2922(4) 0.1029(5) 0.3591(8)
C9 C 0.2658(5) 0.0909(5) 0.4368(8)
C10 C 0.2611(5) 0.0817(5) 0.2747(9)
N1 N 0.2938(4) 0.1105(6) 0.5210(7)
C11 C 0.2149(4) 0.0606(5) 0.4444(8)
C12 C 0.2116(5) 0.0534(5) 0.2786(8)
H5 H 0.2772 0.0886 0.2179
H6 H 0.3161 0.0980 0.5404
H7 H 0.3191 0.1479 0.5317
C13 C 0.1860(4) 0.0498(5) 0.5272(8)
C14 C 0.1878(5) 0.0424(5) 0.3626(10)
H8 H 0.1928 0.0409 0.2250
C15 C 0.1915(4) 0.0871(5) 0.5858(9)
C16 C 0.1536(6) 0.0027(6) 0.5498(9)
H9 H 0.1528 0.0223 0.3650
C17 C 0.1634(4) 0.0782(4) 0.6602(7)
H10 H 0.2161 0.1203 0.5728
H12 H 0.1691 0.1048 0.6991
C19 C 0.1268(4) 0.0312(4) 0.6794(7)
C20 C 0.0939(4) 0.0224(6) 0.7597(7)
O6 O 0.6093(2) 0.2606(3) 0.2915(5)
Zr2 Zr 0.73782(3) 0.34848(4) 0.42925(5)
O7 O 0.7810(2) 0.3110(3) 0.3968(5)
O8 O 0.7418(4) 0.2626(4) 0.2688(5)
O10 O 0.9384(3) 0.0323(4) 0.7884(4)
C21 C 0.7745(5) 0.2781(6) 0.3358(8)
C22 C 0.8067(4) 0.2562(6) 0.3411(7)
C23 C 0.7960(5) 0.2141(6) 0.2898(8)
C24 C 0.8479(5) 0.2760(6) 0.3992(8)
H14 H 0.7676 0.1997 0.2523
C25 C 0.8268(5) 0.1931(7) 0.2932(8)
C26 C 0.8771(5) 0.2540(7) 0.4044(8)
H15 H 0.8556 0.3042 0.4347
C27 C 0.8669(5) 0.2122(7) 0.3513(8)
H16 H 0.8200 0.1657 0.2557
H17 H 0.9045 0.2673 0.4444
C28 C 0.8971(5) 0.1893(6) 0.3591(8)
C29 C 0.9091(5) 0.1749(7) 0.4368(8)
C30 C 0.9183(5) 0.1794(7) 0.2747(9)
N2 N 0.8895(6) 0.1833(7) 0.5210(7)
C31 C 0.9394(5) 0.1543(6) 0.4444(8)
C32 C 0.9466(5) 0.1582(7) 0.2786(8)
H18 H 0.9114 0.1886 0.2179
H19 H 0.9020 0.2181 0.5404
H20 H 0.8521 0.1712 0.5317
C33 C 0.9502(5) 0.1362(6) 0.5272(8)
C34 C 0.9576(5) 0.1454(7) 0.3626(10)
H21 H 0.9591 0.1519 0.2250
C35 C 0.9129(5) 0.1044(6) 0.5858(9)
C36 C 0.9973(6) 0.1509(8) 0.5498(9)
H22 H 0.9777 0.1305 0.3650
C37 C 0.9218(4) 0.0852(6) 0.6602(7)
H23 H 0.8797 0.0958 0.5728
H25 H 0.8952 0.0643 0.6991
C39 C 0.9688(4) 0.0956(6) 0.6794(7)
C40 C 0.9776(6) 0.0715(7) 0.7597(7)
O11 O 0.7394(3) 0.3487(4) 0.2915(5)
Zr3 Zr 0.65152(4) 0.38934(3) 0.42925(5)
O12 O 0.6890(3) 0.4700(2) 0.3968(5)
O13 O 0.7374(4) 0.4792(2) 0.2688(5)
O14 O 0.9084(6) 0.9329(5) 0.7881(4)
O15 O 0.9677(4) 0.9061(2) 0.7884(4)
C41 C 0.7219(6) 0.4964(4) 0.3358(8)
C42 C 0.7438(6) 0.5505(4) 0.3411(7)
C43 C 0.7859(6) 0.5819(4) 0.2898(8)
C44 C 0.7240(6) 0.5719(4) 0.3992(8)
H27 H 0.8003 0.5679 0.2523
C45 C 0.8069(7) 0.6337(5) 0.2932(8)
C46 C 0.7460(7) 0.6231(5) 0.4044(8)
H28 H 0.6958 0.5514 0.4347
C47 C 0.7878(7) 0.6547(5) 0.3513(8)
H29 H 0.8343 0.6543 0.2557
H30 H 0.7327 0.6372 0.4444
C48 C 0.8107(6) 0.7078(4) 0.3591(8)
C49 C 0.8251(7) 0.7342(5) 0.4368(8)
C50 C 0.8206(7) 0.7389(5) 0.2747(9)
N3 N 0.8167(7) 0.7062(4) 0.5210(7)
C51 C 0.8457(6) 0.7851(4) 0.4444(8)
C52 C 0.8418(7) 0.7884(5) 0.2786(8)
H31 H 0.8114 0.7228 0.2179
H32 H 0.7819 0.6839 0.5404
H33 H 0.8288 0.6809 0.5317
C53 C 0.8638(6) 0.8140(4) 0.5272(8)
C54 C 0.8546(7) 0.8122(5) 0.3626(10)
H34 H 0.8481 0.8072 0.2250
C55 C 0.8956(6) 0.8085(4) 0.5858(9)
C56 C 0.8491(8) 0.8464(6) 0.5498(9)
H35 H 0.8695 0.8472 0.3650
C57 C 0.9148(6) 0.8366(4) 0.6602(7)
H36 H 0.9042 0.7839 0.5728
C58 C 0.8696(7) 0.8785(5) 0.6295(8)
H37 H 0.8252 0.8487 0.5138
H38 H 0.9357 0.8309 0.6991
C59 C 0.9044(6) 0.8732(4) 0.6794(7)
H39 H 0.8595 0.9016 0.6458
C60 C 0.9285(7) 0.9061(4) 0.7597(7)
O16 O 0.6513(4) 0.3907(2) 0.2915(5)
Zr7 Zr 0.92885(3) 0.98485(4) 0.90408(5)
Zr10 Zr 0.72267(3) 0.40449(3) 0.23742(5)
Zr11 Zr 0.59551(3) 0.31819(4) 0.23742(5)
Zr12 Zr 0.68181(4) 0.27733(3) 0.23742(5)
O17 O 0.8125(2) 0.4085(4) 0.3979(5)
O18 O 0.5915(4) 0.4041(4) 0.3979(5)
O19 O 0.5959(4) 0.1875(2) 0.3979(5)
O20 O 0.5996(5) 0.3578(3) 0.5452(4)
O21 O 0.6422(3) 0.2417(6) 0.5452(4)
O22 O 0.7583(6) 0.4004(5) 0.5452(4)
O23 O 0.5728(2) 0.2717(3) 0.5449(4)
O24 O 0.7283(3) 0.3010(4) 0.5449(4)
O25 O 0.6990(4) 0.4272(2) 0.5449(4)
O26 O 0.7240(2) 0.4061(3) 0.3752(5)
O27 O 0.5939(3) 0.3180(4) 0.3752(5)
O28 O 0.6820(4) 0.2760(2) 0.3752(5)
O4 O 0.0671(5) 0.9755(3) 0.7881(4)
C18 C 0.1215(5) 0.9911(5) 0.6295(8)
H11 H 0.1513 0.9765 0.5138
H13 H 0.0984 0.9579 0.6458
O14_2 O 0.5751(6) 0.2662(5) 0.1214(4)
O15_2 O 0.6344(4) 0.2394(2) 0.1217(4)
H38_2 H 0.6024 0.1642 0.0324
C59_2 C 0.5711(6) 0.2065(4) 0.0127(7)
C60_2 C 0.5952(7) 0.2394(4) 0.0930(7)
O9_2 O 0.6912(3) 0.4249(6) 0.1214(4)
O10_2 O 0.6051(3) 0.3656(4) 0.1217(4)
H25_2 H 0.5619 0.3976 0.0324
C39_2 C 0.6355(4) 0.4289(6) 0.0127(7)
C40_2 C 0.6443(6) 0.4048(7) 0.0930(7)
O4_2 O 0.7338(5) 0.3088(3) 0.1214(4)
O5_2 O 0.7606(2) 0.3949(3) 0.1217(4)
H12_2 H 0.8358 0.4381 0.0324
C19_2 C 0.7935(4) 0.3645(4) 0.0127(7)
C20_2 C 0.7606(4) 0.3557(6) 0.0930(7)
O11_2 O 0.0727(3) 0.0154(4) 0.9582(5)
O13_2 O 0.0707(4) 0.1459(2) 0.9355(5)
C43_2 C 0.1192(6) 0.2486(4) 0.9565(8)
H27_2 H 0.1336 0.2346 0.9190
C45_2 C 0.1402(7) 0.3004(5) 0.9599(8)
H29_2 H 0.1676 0.3210 0.9224
C50_2 C 0.1539(7) 0.4056(5) 0.9414(9)
C52_2 C 0.1751(7) 0.4551(5) 0.9453(8)
H31_2 H 0.1447 0.3895 0.8846
H34_2 H 0.1814 0.4739 0.8917
O8_2 O 0.0751(4) 0.9293(4) 0.9355(5)
C23_2 C 0.1293(5) 0.8808(6) 0.9565(8)
H14_2 H 0.1009 0.8664 0.9190
C25_2 C 0.1601(5) 0.8598(7) 0.9599(8)
H16_2 H 0.1533 0.8324 0.9224
C30_2 C 0.2516(5) 0.8461(7) 0.9414(9)
C32_2 C 0.2799(5) 0.8249(7) 0.9453(8)
H18_2 H 0.2447 0.8553 0.8846
H21_2 H 0.2924 0.8186 0.8917
O16_2 O 0.9846(4) 0.0574(2) 0.9582(5)
O3_2 O 0.8541(2) 0.9249(4) 0.9355(5)
C3_2 C 0.7514(4) 0.8707(5) 0.9565(8)
H1_2 H 0.7654 0.8991 0.9190
C5_2 C 0.6996(5) 0.8399(5) 0.9599(8)
H3_2 H 0.6790 0.8467 0.9224
C10_2 C 0.5944(5) 0.7484(5) 0.9414(9)
C12_2 C 0.5449(5) 0.7201(5) 0.9453(8)
H5_2 H 0.6105 0.7553 0.8846
H8_2 H 0.5261 0.7076 0.8917
O6_2 O 0.9426(2) 0.9273(3) 0.9582(5)
O1_2 O 0.6666 0.3334 0.1831(6)
O2_2 O 0.8033(2) 0.4477(2) 0.2699(5)
C1_2 C 0.8297(4) 0.4412(5) 0.3309(8)
C2_2 C 0.8838(4) 0.4734(4) 0.3256(7)
C3_3 C 0.9152(4) 0.4627(5) 0.3769(8)
C4_2 C 0.9052(4) 0.5146(5) 0.2675(8)
H1_3 H 0.9012 0.4343 0.4144
C5_3 C 0.9670(5) 0.4935(5) 0.3735(8)
C6_2 C 0.9564(5) 0.5438(5) 0.2623(8)
H2_2 H 0.8847 0.5223 0.2320
C7_2 C 0.9880(5) 0.5336(5) 0.3154(8)
H3_3 H 0.9876 0.4867 0.4110
H4_2 H 0.9705 0.5712 0.2223
O7_2 O 0.5523(2) 0.3557(3) 0.2699(5)
C21_2 C 0.5588(5) 0.3886(6) 0.3309(8)
C22_2 C 0.5266(4) 0.4105(6) 0.3256(7)
C23_3 C 0.5373(5) 0.4526(6) 0.3769(8)
C24_2 C 0.4854(5) 0.3907(6) 0.2675(8)
H14_3 H 0.5657 0.4670 0.4144
C25_3 C 0.5065(5) 0.4736(7) 0.3735(8)
C26_2 C 0.4562(5) 0.4127(7) 0.2623(8)
H15_2 H 0.4777 0.3625 0.2320
C27_2 C 0.4664(5) 0.4545(7) 0.3154(8)
H16_3 H 0.5133 0.5010 0.4110
H17_2 H 0.4288 0.3994 0.2223
C28_2 C 0.4362(5) 0.4774(6) 0.3076(8)
C29_2 C 0.4242(5) 0.4918(7) 0.2299(8)
C30_3 C 0.4150(5) 0.4873(7) 0.3920(9)
N2_2 N 0.4438(6) 0.4834(7) 0.1457(7)
C31_2 C 0.3939(5) 0.5124(6) 0.2223(8)
C32_3 C 0.3867(5) 0.5085(7) 0.3881(8)
H18_3 H 0.4219 0.4781 0.4488
H19_2 H 0.4313 0.4486 0.1263
H20_2 H 0.4812 0.4955 0.1350
C33_2 C 0.3831(5) 0.5305(6) 0.1395(8)
C34_2 C 0.3757(5) 0.5213(7) 0.3041(10)
H21_3 H 0.3742 0.5148 0.4417
C35_2 C 0.4204(5) 0.5623(6) 0.0809(9)
C36_2 C 0.3360(6) 0.5158(8) 0.1169(9)
H22_2 H 0.3556 0.5362 0.3017
C37_2 C 0.4115(4) 0.5815(6) 0.0065(7)
H23_2 H 0.4536 0.5709 0.0939
C38_2 C 0.3244(5) 0.5363(7) 0.0372(8)
H24_2 H 0.3098 0.4919 0.1529
H26_2 H 0.2912 0.5262 0.0209
O12_2 O 0.6443(3) 0.1967(2) 0.2699(5)
C41_2 C 0.6114(6) 0.1703(4) 0.3309(8)
C42_2 C 0.5895(6) 0.1162(4) 0.3256(7)
C43_3 C 0.5474(6) 0.0848(4) 0.3769(8)
C44_2 C 0.6093(6) 0.0948(4) 0.2675(8)
H27_3 H 0.5330 0.0988 0.4144
C45_3 C 0.5264(7) 0.0330(5) 0.3735(8)
C46_2 C 0.5873(7) 0.0436(5) 0.2623(8)
H28_2 H 0.6375 0.1153 0.2320
C47_2 C 0.5455(7) 0.0120(5) 0.3154(8)
H29_3 H 0.4990 0.0124 0.4110
H30_2 H 0.6006 0.0295 0.2223
O2_3 O 0.1367(2) 0.1143(2) 0.9365(5)
C1_3 C 0.1631(4) 0.1078(5) 0.9975(8)
C2_3 C 0.2172(4) 0.1400(4) 0.9922(7)
C4_3 C 0.2386(4) 0.1812(5) 0.9341(8)
C6_3 C 0.2898(5) 0.2104(5) 0.9289(8)
H2_3 H 0.2181 0.1889 0.8986
C7_3 C 0.3214(5) 0.2002(5) 0.9820(8)
H4_3 H 0.3039 0.2378 0.8889
C8_2 C 0.3745(4) 0.2304(5) 0.9742(8)
C9_2 C 0.4009(5) 0.2424(5) 0.8965(8)
N1_2 N 0.3729(4) 0.2228(6) 0.8123(7)
C11_2 C 0.4518(4) 0.2727(5) 0.8889(8)
H6_2 H 0.3506 0.2353 0.7929
H7_2 H 0.3476 0.1854 0.8016
C13_2 C 0.4807(4) 0.2835(5) 0.8061(8)
C14_2 C 0.4789(5) 0.2909(5) 0.9707(10)
C15_2 C 0.4752(4) 0.2462(5) 0.7475(9)
C16_2 C 0.5131(6) 0.3306(6) 0.7835(9)
H9_2 H 0.5139 0.3110 0.9683
C17_2 C 0.5033(4) 0.2551(4) 0.6731(7)
H10_2 H 0.4506 0.2130 0.7605
C18_2 C 0.5452(5) 0.3422(5) 0.7038(8)
H11_2 H 0.5154 0.3568 0.8195
H12_3 H 0.4976 0.2285 0.6342
C19_3 C 0.5399(4) 0.3021(4) 0.6539(7)
H13_2 H 0.5683 0.3754 0.6875
C20_3 C 0.5728(4) 0.3109(6) 0.5736(7)
O1_3 O 1.0000 0.0000 0.8497(6)
O7_3 O 0.8857(2) 0.0223(3) 0.9365(5)
C21_3 C 0.8922(5) 0.0552(6) 0.9975(8)
C22_3 C 0.8600(4) 0.0771(6) 0.9922(7)
C24_3 C 0.8188(5) 0.0573(6) 0.9341(8)
C26_3 C 0.7896(5) 0.0793(7) 0.9289(8)
H15_3 H 0.8111 0.0291 0.8986
C27_3 C 0.7998(5) 0.1211(7) 0.9820(8)
H17_3 H 0.7622 0.0660 0.8889
C28_3 C 0.7696(5) 0.1440(6) 0.9742(8)
C29_3 C 0.7576(5) 0.1584(7) 0.8965(8)
N2_3 N 0.7772(6) 0.1500(7) 0.8123(7)
C31_3 C 0.7273(5) 0.1790(6) 0.8889(8)
H19_3 H 0.7647 0.1152 0.7929
H20_3 H 0.8146 0.1621 0.8016
C33_3 C 0.7165(5) 0.1971(6) 0.8061(8)
C34_3 C 0.7091(5) 0.1879(7) 0.9707(10)
C35_3 C 0.7538(5) 0.2289(6) 0.7475(9)
C36_3 C 0.6694(6) 0.1824(8) 0.7835(9)
H22_3 H 0.6890 0.2028 0.9683
C37_3 C 0.7449(4) 0.2481(6) 0.6731(7)
H23_3 H 0.7870 0.2375 0.7605
C38_3 C 0.6578(5) 0.2029(7) 0.7038(8)
H24_3 H 0.6432 0.1585 0.8195
H25_3 H 0.7715 0.2690 0.6342
C39_3 C 0.6979(4) 0.2377(6) 0.6539(7)
H26_3 H 0.6246 0.1928 0.6875
C40_3 C 0.6891(6) 0.2618(7) 0.5736(7)
O12_3 O 0.9777(3) 0.8633(2) 0.9365(5)
C41_3 C 0.9448(6) 0.8369(4) 0.9975(8)
C42_3 C 0.9229(6) 0.7828(4) 0.9922(7)
C44_3 C 0.9427(6) 0.7614(4) 0.9341(8)
C46_3 C 0.9207(7) 0.7102(5) 0.9289(8)
H28_3 H 0.9709 0.7819 0.8986
C47_3 C 0.8789(7) 0.6786(5) 0.9820(8)
H30_3 H 0.9340 0.6961 0.8889
C48_2 C 0.8560(6) 0.6255(4) 0.9742(8)
C49_2 C 0.8416(7) 0.5991(5) 0.8965(8)
N3_2 N 0.8500(7) 0.6271(4) 0.8123(7)
C51_2 C 0.8210(6) 0.5482(4) 0.8889(8)
H32_2 H 0.8848 0.6494 0.7929
H33_2 H 0.8379 0.6524 0.8016
C53_2 C 0.8029(6) 0.5193(4) 0.8061(8)
C54_2 C 0.8121(7) 0.5211(5) 0.9707(10)
C55_2 C 0.7711(6) 0.5248(4) 0.7475(9)
C56_2 C 0.8176(8) 0.4869(6) 0.7835(9)
H35_2 H 0.7972 0.4861 0.9683
C57_2 C 0.7519(6) 0.4967(4) 0.6731(7)
H36_2 H 0.7625 0.5494 0.7605
C58_2 C 0.7971(7) 0.4548(5) 0.7038(8)
H37_2 H 0.8415 0.4846 0.8195
H38_3 H 0.7310 0.5024 0.6342
C59_3 C 0.7623(6) 0.4601(4) 0.6539(7)
H39_2 H 0.8072 0.4317 0.6875
C60_3 C 0.7382(7) 0.4272(4) 0.5736(7)
O1_4 O 1.0000 0.9999 0.8497(6)
O1_5 O 0.0001 0.0000 0.8497(6)
C48_3 C 0.4774(6) 0.0411(4) 0.6924(8)
C49_3 C 0.4918(7) 0.0675(5) 0.7701(8)
C50_3 C 0.4873(7) 0.0722(5) 0.6080(9)
N3_3 N 0.4834(7) 0.0395(4) 0.8543(7)
C51_3 C 0.5124(6) 0.1184(4) 0.7777(8)
C52_3 C 0.5085(7) 0.1217(5) 0.6119(8)
H31_3 H 0.4781 0.0561 0.5512
H32_3 H 0.4486 0.0172 0.8737
H33_3 H 0.4955 0.0142 0.8650
C53_3 C 0.5305(6) 0.1473(4) 0.8605(8)
C54_3 C 0.5213(7) 0.1455(5) 0.6959(10)
H34_3 H 0.5148 0.1405 0.5583
C55_3 C 0.5623(6) 0.1418(4) 0.9191(9)
C56_3 C 0.5158(8) 0.1797(6) 0.8831(9)
H35_3 H 0.5362 0.1805 0.6983
C57_3 C 0.5815(6) 0.1699(4) 0.9935(7)
H36_3 H 0.5709 0.1172 0.9061
C58_3 C 0.5363(7) 0.2118(5) 0.9628(8)
H37_3 H 0.4919 0.1820 0.8471
H39_3 H 0.5262 0.2349 0.9791
Zr1_2 Zr 0.27733(3) 0.59551(3) 0.76258(5)
O1_6 O 0.3334 0.6666 0.8169(6)
O2_4 O 0.1967(2) 0.5523(2) 0.7301(5)
O3_3 O 0.1875(2) 0.5915(4) 0.6021(5)
C1_4 C 0.1703(4) 0.5588(5) 0.6691(8)
C2_4 C 0.1162(4) 0.5266(4) 0.6744(7)
C3_4 C 0.0848(4) 0.5373(5) 0.6231(8)
C4_4 C 0.0948(4) 0.4854(5) 0.7325(8)
H1_4 H 0.0988 0.5657 0.5856
C5_4 C 0.0330(5) 0.5065(5) 0.6265(8)
C6_4 C 0.0436(5) 0.4562(5) 0.7377(8)
H2_4 H 0.1153 0.4777 0.7680
C7_4 C 0.0120(5) 0.4664(5) 0.6846(8)
H3_4 H 0.0124 0.5133 0.5890
H4_4 H 0.0295 0.4288 0.7777
O6_3 O 0.2760(2) 0.5939(3) 0.6248(5)
Zr2_2 Zr 0.40449(3) 0.68181(4) 0.76258(5)
O7_4 O 0.4477(2) 0.6443(3) 0.7301(5)
O8_3 O 0.4085(4) 0.5959(4) 0.6021(5)
C21_4 C 0.4412(5) 0.6114(6) 0.6691(8)
C22_4 C 0.4734(4) 0.5895(6) 0.6744(7)
C23_4 C 0.4627(5) 0.5474(6) 0.6231(8)
C24_4 C 0.5146(5) 0.6093(6) 0.7325(8)
H14_4 H 0.4343 0.5330 0.5856
C25_4 C 0.4935(5) 0.5264(7) 0.6265(8)
C26_4 C 0.5438(5) 0.5873(7) 0.7377(8)
H15_4 H 0.5223 0.6375 0.7680
C27_4 C 0.5336(5) 0.5455(7) 0.6846(8)
H16_4 H 0.4867 0.4990 0.5890
H17_4 H 0.5712 0.6006 0.7777
C28_4 C 0.5638(5) 0.5226(6) 0.6924(8)
C29_4 C 0.5758(5) 0.5082(7) 0.7701(8)
C30_4 C 0.5850(5) 0.5127(7) 0.6080(9)
N2_4 N 0.5562(6) 0.5166(7) 0.8543(7)
C31_4 C 0.6061(5) 0.4876(6) 0.7777(8)
C32_4 C 0.6133(5) 0.4915(7) 0.6119(8)
H18_4 H 0.5781 0.5219 0.5512
H19_4 H 0.5687 0.5514 0.8737
H20_4 H 0.5188 0.5045 0.8650
C33_4 C 0.6169(5) 0.4695(6) 0.8605(8)
C34_4 C 0.6243(5) 0.4787(7) 0.6959(10)
H21_4 H 0.6258 0.4852 0.5583
C35_4 C 0.5796(5) 0.4377(6) 0.9191(9)
C36_4 C 0.6640(6) 0.4842(8) 0.8831(9)
H22_4 H 0.6444 0.4638 0.6983
C37_4 C 0.5885(4) 0.4185(6) 0.9935(7)
H23_4 H 0.5464 0.4291 0.9061
C38_4 C 0.6756(5) 0.4637(7) 0.9628(8)
H24_4 H 0.6902 0.5081 0.8471
H26_4 H 0.7088 0.4738 0.9791
O11_3 O 0.4061(3) 0.6820(4) 0.6248(5)
Zr3_2 Zr 0.31819(4) 0.72267(3) 0.76258(5)
O12_4 O 0.3557(3) 0.8033(2) 0.7301(5)
O13_3 O 0.4041(4) 0.8125(2) 0.6021(5)
C41_4 C 0.3886(6) 0.8297(4) 0.6691(8)
C42_4 C 0.4105(6) 0.8838(4) 0.6744(7)
C43_4 C 0.4526(6) 0.9152(4) 0.6231(8)
C44_4 C 0.3907(6) 0.9052(4) 0.7325(8)
H27_4 H 0.4670 0.9012 0.5856
C45_4 C 0.4736(7) 0.9670(5) 0.6265(8)
C46_4 C 0.4127(7) 0.9564(5) 0.7377(8)
H28_4 H 0.3625 0.8847 0.7680
C47_4 C 0.4545(7) 0.9880(5) 0.6846(8)
H29_4 H 0.5010 0.9876 0.5890
H30_4 H 0.3994 0.9705 0.7777
O16_3 O 0.3180(4) 0.7240(2) 0.6248(5)
Zr10_2 Zr 0.38934(3) 0.73782(3) 0.57075(5)
Zr11_2 Zr 0.26218(3) 0.65152(4) 0.57075(5)
Zr12_2 Zr 0.34848(4) 0.61066(3) 0.57075(5)
O17_2 O 0.4792(2) 0.7418(4) 0.7312(5)
O18_2 O 0.2582(4) 0.7374(4) 0.7312(5)
O19_2 O 0.2626(4) 0.5208(2) 0.7312(5)
O20_2 O 0.2662(5) 0.6912(3) 0.8786(4)
O21_2 O 0.3088(3) 0.5751(6) 0.8786(4)
O22_2 O 0.4249(6) 0.7338(5) 0.8786(4)
O23_2 O 0.2394(2) 0.6051(3) 0.8783(4)
O24_2 O 0.3949(3) 0.6344(4) 0.8783(4)
O25_2 O 0.3656(4) 0.7606(2) 0.8783(4)
O26_2 O 0.3907(2) 0.7394(3) 0.7085(5)
O27_2 O 0.2606(3) 0.6513(4) 0.7085(5)
O28_2 O 0.3487(4) 0.6093(2) 0.7085(5)
Zr2_3 Zr 0.07115(3) 0.01515(4) 0.09592(5)
O12_5 O 0.0223(3) 0.1367(2) 0.0635(5)
O14_3 O 0.2417(6) 0.5996(5) 0.4548(4)
O15_3 O 0.3010(4) 0.5728(2) 0.4551(4)
C41_5 C 0.0552(6) 0.1631(4) 0.0025(8)
C42_5 C 0.0771(6) 0.2172(4) 0.0078(7)
C44_5 C 0.0573(6) 0.2386(4) 0.0659(8)
C46_5 C 0.0793(7) 0.2898(5) 0.0711(8)
H28_5 H 0.0291 0.2181 0.1014
C47_5 C 0.1211(7) 0.3214(5) 0.0180(8)
H30_5 H 0.0660 0.3039 0.1111
C48_4 C 0.1440(6) 0.3745(4) 0.0258(8)
C49_4 C 0.1584(7) 0.4009(5) 0.1035(8)
N3_4 N 0.1500(7) 0.3729(4) 0.1877(7)
C51_4 C 0.1790(6) 0.4518(4) 0.1111(8)
H32_4 H 0.1152 0.3506 0.2071
H33_4 H 0.1621 0.3476 0.1984
C53_4 C 0.1971(6) 0.4807(4) 0.1939(8)
C54_4 C 0.1879(7) 0.4789(5) 0.0293(10)
C55_4 C 0.2289(6) 0.4752(4) 0.2525(9)
C56_4 C 0.1824(8) 0.5131(6) 0.2165(9)
H35_4 H 0.2028 0.5139 0.0317
C57_4 C 0.2481(6) 0.5033(4) 0.3269(7)
H36_4 H 0.2375 0.4506 0.2395
C58_4 C 0.2029(7) 0.5452(5) 0.2962(8)
H37_4 H 0.1585 0.5154 0.1805
H38_4 H 0.2690 0.4976 0.3658
C59_4 C 0.2377(6) 0.5399(4) 0.3461(7)
H39_4 H 0.1928 0.5683 0.3125
C60_4 C 0.2618(7) 0.5728(4) 0.4264(7)
O17_3 O 0.1459(2) 0.0751(4) 0.0645(5)
O22_3 O 0.0916(6) 0.0671(5) 0.2119(4)
O25_3 O 0.0323(4) 0.0939(2) 0.2116(4)
O26_3 O 0.0574(2) 0.0727(3) 0.0418(5)
O1_7 O 0.0000 1.0000 0.1503(6)
O7_5 O 0.1143(2) 0.9777(3) 0.0635(5)
O9_3 O 0.3578(3) 0.7583(6) 0.4548(4)
O10_3 O 0.2717(3) 0.6990(4) 0.4551(4)
C21_5 C 0.1078(5) 0.9448(6) 0.0025(8)
C22_5 C 0.1400(4) 0.9229(6) 0.0078(7)
C24_5 C 0.1812(5) 0.9427(6) 0.0659(8)
C26_5 C 0.2104(5) 0.9207(7) 0.0711(8)
H15_5 H 0.1889 0.9709 0.1014
C27_5 C 0.2002(5) 0.8789(7) 0.0180(8)
H17_5 H 0.2378 0.9340 0.1111
C28_5 C 0.2304(5) 0.8560(6) 0.0258(8)
C29_5 C 0.2424(5) 0.8416(7) 0.1035(8)
N2_5 N 0.2228(6) 0.8500(7) 0.1877(7)
C31_5 C 0.2727(5) 0.8210(6) 0.1111(8)
H19_5 H 0.2353 0.8848 0.2071
H20_5 H 0.1854 0.8379 0.1984
C33_5 C 0.2835(5) 0.8029(6) 0.1939(8)
C34_5 C 0.2909(5) 0.8121(7) 0.0293(10)
C35_5 C 0.2462(5) 0.7711(6) 0.2525(9)
C36_5 C 0.3306(6) 0.8176(8) 0.2165(9)
H22_5 H 0.3110 0.7972 0.0317
C37_5 C 0.2551(4) 0.7519(6) 0.3269(7)
H23_5 H 0.2130 0.7625 0.2395
C38_5 C 0.3422(5) 0.7971(7) 0.2962(8)
H24_5 H 0.3568 0.8415 0.1805
H25_4 H 0.2285 0.7310 0.3658
C39_4 C 0.3021(4) 0.7623(6) 0.3461(7)
H26_5 H 0.3754 0.8072 0.3125
C40_4 C 0.3109(6) 0.7382(7) 0.4264(7)
O24_3 O 0.0616(3) 0.9677(4) 0.2116(4)
O28_3 O 0.0154(4) 0.9426(2) 0.0418(5)
Zr3_3 Zr 0.98485(4) 0.05601(3) 0.09592(5)
O18_3 O 0.9249(4) 0.0707(4) 0.0645(5)
O20_3 O 0.9329(5) 0.0245(3) 0.2119(4)
Zr1_3 Zr 0.94399(3) 0.92885(3) 0.09592(5)
O2_5 O 0.8633(2) 0.8857(2) 0.0635(5)
O4_3 O 0.4004(5) 0.6422(3) 0.4548(4)
O5_3 O 0.4272(2) 0.7283(3) 0.4551(4)
C1_5 C 0.8369(4) 0.8922(5) 0.0025(8)
C2_5 C 0.7828(4) 0.8600(4) 0.0078(7)
C4_5 C 0.7614(4) 0.8188(5) 0.0659(8)
C6_5 C 0.7102(5) 0.7896(5) 0.0711(8)
H2_5 H 0.7819 0.8111 0.1014
C7_5 C 0.6786(5) 0.7998(5) 0.0180(8)
H4_5 H 0.6961 0.7622 0.1111
C8_3 C 0.6255(4) 0.7696(5) 0.0258(8)
C9_3 C 0.5991(5) 0.7576(5) 0.1035(8)
N1_3 N 0.6271(4) 0.7772(6) 0.1877(7)
C11_3 C 0.5482(4) 0.7273(5) 0.1111(8)
H6_3 H 0.6494 0.7647 0.2071
H7_3 H 0.6524 0.8146 0.1984
C13_3 C 0.5193(4) 0.7165(5) 0.1939(8)
C14_3 C 0.5211(5) 0.7091(5) 0.0293(10)
C15_3 C 0.5248(4) 0.7538(5) 0.2525(9)
C16_3 C 0.4869(6) 0.6694(6) 0.2165(9)
H9_3 H 0.4861 0.6890 0.0317
C17_3 C 0.4967(4) 0.7449(4) 0.3269(7)
H10_3 H 0.5494 0.7870 0.2395
C18_3 C 0.4548(5) 0.6578(5) 0.2962(8)
H11_3 H 0.4846 0.6432 0.1805
H12_4 H 0.5024 0.7715 0.3658
C19_4 C 0.4601(4) 0.6979(4) 0.3461(7)
H13_3 H 0.4317 0.6246 0.3125
C20_4 C 0.4272(4) 0.6891(6) 0.4264(7)
O19_3 O 0.9293(4) 0.8541(2) 0.0645(5)
O21_3 O 0.9755(3) 0.9084(6) 0.2119(4)
O23_3 O 0.9061(2) 0.9384(3) 0.2116(4)
O27_3 O 0.9273(3) 0.9846(4) 0.0418(5)
O1_8 O 0.0000 0.0001 0.1503(6)
O1_9 O 0.9999 1.0000 0.1503(6)
C18_4 C 0.8785(5) 0.0089(5) 0.3705(8)
H11_4 H 0.8487 0.0235 0.4862
H13_4 H 0.9016 0.0421 0.3542
O1_10 O 0.3333 0.6667 0.5164(6)
O2_6 O 0.4700(2) 0.7810(2) 0.6032(5)
C1_6 C 0.4964(4) 0.7745(5) 0.6642(8)
C2_6 C 0.5505(4) 0.8067(4) 0.6589(7)
C3_5 C 0.5819(4) 0.7960(5) 0.7102(8)
C4_6 C 0.5719(4) 0.8479(5) 0.6008(8)
H1_5 H 0.5679 0.7676 0.7477
C5_5 C 0.6337(5) 0.8268(5) 0.7068(8)
C6_6 C 0.6231(5) 0.8771(5) 0.5956(8)
H2_6 H 0.5514 0.8556 0.5653
C7_6 C 0.6547(5) 0.8669(5) 0.6487(8)
H3_5 H 0.6543 0.8200 0.7443
H4_6 H 0.6372 0.9045 0.5556
C8_4 C 0.7078(4) 0.8971(5) 0.6409(8)
C9_4 C 0.7342(5) 0.9091(5) 0.5632(8)
C10_3 C 0.7389(5) 0.9183(5) 0.7253(9)
N1_4 N 0.7062(4) 0.8895(6) 0.4790(7)
C11_4 C 0.7851(4) 0.9394(5) 0.5556(8)
C12_3 C 0.7884(5) 0.9466(5) 0.7214(8)
H5_3 H 0.7228 0.9114 0.7821
H6_4 H 0.6839 0.9020 0.4596
H7_4 H 0.6809 0.8521 0.4683
C13_4 C 0.8140(4) 0.9502(5) 0.4728(8)
C14_4 C 0.8122(5) 0.9576(5) 0.6374(10)
H8_3 H 0.8072 0.9591 0.7750
C15_4 C 0.8085(4) 0.9129(5) 0.4142(9)
C16_4 C 0.8464(6) 0.9973(6) 0.4502(9)
H9_4 H 0.8472 0.9777 0.6350
C17_4 C 0.8366(4) 0.9218(4) 0.3398(7)
H10_4 H 0.7839 0.8797 0.4272
H12_5 H 0.8309 0.8952 0.3009
C19_5 C 0.8732(4) 0.9688(4) 0.3206(7)
C20_5 C 0.9061(4) 0.9776(6) 0.2403(7)
O7_6 O 0.2190(2) 0.6890(3) 0.6032(5)
C21_6 C 0.2255(5) 0.7219(6) 0.6642(8)
C22_6 C 0.1933(4) 0.7438(6) 0.6589(7)
C23_5 C 0.2040(5) 0.7859(6) 0.7102(8)
C24_6 C 0.1521(5) 0.7240(6) 0.6008(8)
H14_5 H 0.2324 0.8003 0.7477
C25_5 C 0.1732(5) 0.8069(7) 0.7068(8)
C26_6 C 0.1229(5) 0.7460(7) 0.5956(8)
H15_6 H 0.1444 0.6958 0.5653
C27_6 C 0.1331(5) 0.7878(7) 0.6487(8)
H16_5 H 0.1800 0.8343 0.7443
H17_6 H 0.0955 0.7327 0.5556
C28_6 C 0.1029(5) 0.8107(6) 0.6409(8)
C29_6 C 0.0909(5) 0.8251(7) 0.5632(8)
C30_5 C 0.0817(5) 0.8206(7) 0.7253(9)
N2_6 N 0.1105(6) 0.8167(7) 0.4790(7)
C31_6 C 0.0606(5) 0.8457(6) 0.5556(8)
C32_5 C 0.0534(5) 0.8418(7) 0.7214(8)
H18_5 H 0.0886 0.8114 0.7821
H19_6 H 0.0980 0.7819 0.4596
H20_6 H 0.1479 0.8288 0.4683
C33_6 C 0.0498(5) 0.8638(6) 0.4728(8)
C34_6 C 0.0424(5) 0.8546(7) 0.6374(10)
H21_5 H 0.0409 0.8481 0.7750
C35_6 C 0.0871(5) 0.8956(6) 0.4142(9)
C36_6 C 0.0027(6) 0.8491(8) 0.4502(9)
H22_6 H 0.0223 0.8695 0.6350
C37_6 C 0.0782(4) 0.9148(6) 0.3398(7)
H23_6 H 0.1203 0.9042 0.4272
H25_5 H 0.1048 0.9357 0.3009
C39_5 C 0.0312(4) 0.9044(6) 0.3206(7)
C40_5 C 0.0224(6) 0.9285(7) 0.2403(7)
O12_6 O 0.3110(3) 0.5300(2) 0.6032(5)
C41_6 C 0.2781(6) 0.5036(4) 0.6642(8)
C42_6 C 0.2562(6) 0.4495(4) 0.6589(7)
C43_5 C 0.2141(6) 0.4181(4) 0.7102(8)
C44_6 C 0.2760(6) 0.4281(4) 0.6008(8)
H27_5 H 0.1997 0.4321 0.7477
C45_5 C 0.1931(7) 0.3663(5) 0.7068(8)
C46_6 C 0.2540(7) 0.3769(5) 0.5956(8)
H28_6 H 0.3042 0.4486 0.5653
C47_6 C 0.2122(7) 0.3453(5) 0.6487(8)
H29_5 H 0.1657 0.3457 0.7443
H30_6 H 0.2673 0.3628 0.5556
C48_5 C 0.1893(6) 0.2922(4) 0.6409(8)
C49_5 C 0.1749(7) 0.2658(5) 0.5632(8)
C50_4 C 0.1794(7) 0.2611(5) 0.7253(9)
N3_5 N 0.1833(7) 0.2938(4) 0.4790(7)
C51_5 C 0.1543(6) 0.2149(4) 0.5556(8)
C52_4 C 0.1582(7) 0.2116(5) 0.7214(8)
H31_4 H 0.1886 0.2772 0.7821
H32_5 H 0.2181 0.3161 0.4596
H33_5 H 0.1712 0.3191 0.4683
C53_5 C 0.1362(6) 0.1860(4) 0.4728(8)
C54_5 C 0.1454(7) 0.1878(5) 0.6374(10)
H34_4 H 0.1519 0.1928 0.7750
C55_5 C 0.1044(6) 0.1915(4) 0.4142(9)
C56_5 C 0.1509(8) 0.1536(6) 0.4502(9)
H35_5 H 0.1305 0.1528 0.6350
C57_5 C 0.0852(6) 0.1634(4) 0.3398(7)
H36_5 H 0.0958 0.2161 0.4272
C58_5 C 0.1304(7) 0.1215(5) 0.3705(8)
H37_5 H 0.1748 0.1513 0.4862
H38_5 H 0.0643 0.1691 0.3009
C59_5 C 0.0956(6) 0.1268(4) 0.3206(7)
H39_5 H 0.1405 0.0984 0.3542
C60_5 C 0.0715(7) 0.0939(4) 0.2403(7)
C38_6 C 0.9911(5) 0.8696(7) 0.3705(8)
H24_6 H 0.9765 0.8252 0.4862
H26_6 H 0.9579 0.8595 0.3542
H12_6 H 0.1642 0.5619 0.9676
C19_6 C 0.2065(4) 0.6355(4) 0.9873(7)
C20_6 C 0.2394(4) 0.6443(6) 0.9070(7)
H25_6 H 0.4381 0.6024 0.9676
C39_6 C 0.3645(4) 0.5711(6) 0.9873(7)
C40_6 C 0.3557(6) 0.5952(7) 0.9070(7)
H38_6 H 0.3976 0.8358 0.9676
C59_6 C 0.4289(6) 0.7935(4) 0.9873(7)
C60_6 C 0.4048(7) 0.7606(4) 0.9070(7)
C3_6 C 0.2486(4) 0.1293(5) 0.0435(8)
H1_6 H 0.2346 0.1009 0.0810
C5_6 C 0.3004(5) 0.1601(5) 0.0401(8)
H3_6 H 0.3210 0.1533 0.0776
C10_4 C 0.4056(5) 0.2516(5) 0.0586(9)
C12_4 C 0.4551(5) 0.2799(5) 0.0547(8)
H5_4 H 0.3895 0.2447 0.1154
H8_4 H 0.4739 0.2924 0.1083
C23_6 C 0.8707(5) 0.1192(6) 0.0435(8)
H14_6 H 0.8991 0.1336 0.0810
C25_6 C 0.8399(5) 0.1402(7) 0.0401(8)
H16_6 H 0.8467 0.1676 0.0776
C30_6 C 0.7484(5) 0.1539(7) 0.0586(9)
C32_6 C 0.7201(5) 0.1751(7) 0.0547(8)
H18_6 H 0.7553 0.1447 0.1154
H21_6 H 0.7076 0.1814 0.1083
C43_6 C 0.8808(6) 0.7514(4) 0.0435(8)
H27_6 H 0.8664 0.7654 0.0810
C45_6 C 0.8598(7) 0.6996(5) 0.0401(8)
H29_6 H 0.8324 0.6790 0.0776
C50_5 C 0.8461(7) 0.5944(5) 0.0586(9)
C52_5 C 0.8249(7) 0.5449(5) 0.0547(8)
H31_5 H 0.8553 0.6105 0.1154
H34_5 H 0.8186 0.5261 0.1083
C8_5 C 0.9589(4) 0.4362(5) 0.6924(8)
C9_5 C 0.9325(5) 0.4242(5) 0.7701(8)
C10_5 C 0.9278(5) 0.4150(5) 0.6080(9)
N1_5 N 0.9605(4) 0.4438(6) 0.8543(7)
C11_5 C 0.8816(4) 0.3939(5) 0.7777(8)
C12_5 C 0.8783(5) 0.3867(5) 0.6119(8)
H5_5 H 0.9439 0.4219 0.5512
H6_5 H 0.9828 0.4313 0.8737
H7_5 H 0.9858 0.4812 0.8650
C13_5 C 0.8527(4) 0.3831(5) 0.8605(8)
C14_5 C 0.8545(5) 0.3757(5) 0.6959(10)
H8_5 H 0.8595 0.3742 0.5583
C15_5 C 0.8582(4) 0.4204(5) 0.9191(9)
C16_5 C 0.8203(6) 0.3360(6) 0.8831(9)
H9_5 H 0.8195 0.3556 0.6983
C17_5 C 0.8301(4) 0.4115(4) 0.9935(7)
H10_5 H 0.8828 0.4536 0.9061
C18_5 C 0.7882(5) 0.3244(5) 0.9628(8)
H11_5 H 0.8180 0.3098 0.8471
H13_5 H 0.7651 0.2912 0.9791
C8_6 C 0.0411(4) 0.5638(5) 0.3076(8)
C9_6 C 0.0675(5) 0.5758(5) 0.2299(8)
C10_6 C 0.0722(5) 0.5850(5) 0.3920(9)
N1_6 N 0.0395(4) 0.5562(6) 0.1457(7)
C11_6 C 0.1184(4) 0.6061(5) 0.2223(8)
C12_6 C 0.1217(5) 0.6133(5) 0.3881(8)
H5_6 H 0.0561 0.5781 0.4488
H6_6 H 0.0172 0.5687 0.1263
H7_6 H 0.0142 0.5188 0.1350
C13_6 C 0.1473(4) 0.6169(5) 0.1395(8)
C14_6 C 0.1455(5) 0.6243(5) 0.3041(10)
H8_6 H 0.1405 0.6258 0.4417
C15_6 C 0.1418(4) 0.5796(5) 0.0809(9)
C16_6 C 0.1797(6) 0.6640(6) 0.1169(9)
H9_6 H 0.1805 0.6444 0.3017
C17_6 C 0.1699(4) 0.5885(4) 0.0065(7)
H10_6 H 0.1172 0.5464 0.0939
C18_6 C 0.2118(5) 0.6756(5) 0.0372(8)
H11_6 H 0.1820 0.6902 0.1529
H13_6 H 0.2349 0.7088 0.0209
C48_6 C 0.5226(6) 0.9589(4) 0.3076(8)
C49_6 C 0.5082(7) 0.9325(5) 0.2299(8)
C50_6 C 0.5127(7) 0.9278(5) 0.3920(9)
N3_6 N 0.5166(7) 0.9605(4) 0.1457(7)
C51_6 C 0.4876(6) 0.8816(4) 0.2223(8)
C52_6 C 0.4915(7) 0.8783(5) 0.3881(8)
H31_6 H 0.5219 0.9439 0.4488
H32_6 H 0.5514 0.9828 0.1263
H33_6 H 0.5045 0.9858 0.1350
C53_6 C 0.4695(6) 0.8527(4) 0.1395(8)
C54_6 C 0.4787(7) 0.8545(5) 0.3041(10)
H34_6 H 0.4852 0.8595 0.4417
C55_6 C 0.4377(6) 0.8582(4) 0.0809(9)
C56_6 C 0.4842(8) 0.8203(6) 0.1169(9)
H35_6 H 0.4638 0.8195 0.3017
C57_6 C 0.4185(6) 0.8301(4) 0.0065(7)
H36_6 H 0.4291 0.8828 0.0939
C58_6 C 0.4637(7) 0.7882(5) 0.0372(8)
H37_6 H 0.5081 0.8180 0.1529
H39_6 H 0.4738 0.7651 0.0209
loop_
_geom_bond_atom_site_label_1
_geom_bond_atom_site_label_2
_geom_bond_site_symmetry_1
_geom_bond_site_symmetry_2
H26 C38 1_555 1_555
Zr5 O9 1_555 1_555
Zr1 O1 1_555 1_555
O1 Zr2 1_555 1_555
O2 Zr1 1_555 1_555
O3 C1 1_555 1_555
O5 C20 1_555 1_555
C1 O2 1_555 1_555
C2 C1 1_555 1_555
C3 C2 1_555 1_555
C4 C2 1_555 1_555
H1 C3 1_555 1_555
C5 C3 1_555 1_555
C6 C4 1_555 1_555
H2 C4 1_555 1_555
C7 C5 1_555 1_555
H3 C5 1_555 1_555
H4 C6 1_555 1_555
C8 C7 1_555 1_555
C9 C8 1_555 1_555
C10 C8 1_555 1_555
N1 C9 1_555 1_555
C11 C9 1_555 1_555
C12 C10 1_555 1_555
H5 C10 1_555 1_555
H6 N1 1_555 1_555
H7 N1 1_555 1_555
C13 C11 1_555 1_555
C14 C11 1_555 1_555
H8 C12 1_555 1_555
C15 C13 1_555 1_555
C16 C13 1_555 1_555
H9 C14 1_555 1_555
C17 C15 1_555 1_555
H10 C15 1_555 1_555
H12 C17 1_555 1_555
C19 C17 1_555 1_555
C20 C19 1_555 1_555
O6 Zr1 1_555 1_555
Zr2 O7 1_555 1_555
O7 C21 1_555 1_555
O8 C21 1_555 1_555
O10 C40 1_555 1_555
C21 C22 1_555 1_555
C22 C23 1_555 1_555
C23 H14 1_555 1_555
C24 C22 1_555 1_555
C25 C23 1_555 1_555
C26 C24 1_555 1_555
H15 C24 1_555 1_555
C27 C25 1_555 1_555
H16 C25 1_555 1_555
H17 C26 1_555 1_555
C28 C27 1_555 1_555
C29 C28 1_555 1_555
C30 C28 1_555 1_555
N2 C29 1_555 1_555
C31 C29 1_555 1_555
C32 C30 1_555 1_555
H18 C30 1_555 1_555
H19 N2 1_555 1_555
H20 N2 1_555 1_555
C33 C31 1_555 1_555
C34 C31 1_555 1_555
H21 C32 1_555 1_555
C35 C33 1_555 1_555
C36 C33 1_555 1_555
H22 C34 1_555 1_555
C37 C35 1_555 1_555
H23 C35 1_555 1_555
H25 C37 1_555 1_555
C39 C37 1_555 1_555
C40 C39 1_555 1_555
O11 Zr2 1_555 1_555
Zr3 O1 1_555 1_555
O12 Zr3 1_555 1_555
O13 C41 1_555 1_555
O14 C60 1_555 1_555
O15 C60 1_555 1_555
C41 O12 1_555 1_555
C42 C41 1_555 1_555
C43 C42 1_555 1_555
C44 C42 1_555 1_555
H27 C43 1_555 1_555
C45 C43 1_555 1_555
C46 C44 1_555 1_555
H28 C44 1_555 1_555
C47 C45 1_555 1_555
H29 C45 1_555 1_555
H30 C46 1_555 1_555
C48 C47 1_555 1_555
C49 C48 1_555 1_555
C50 C48 1_555 1_555
N3 C49 1_555 1_555
C51 C49 1_555 1_555
C52 C50 1_555 1_555
H31 C50 1_555 1_555
H32 N3 1_555 1_555
H33 N3 1_555 1_555
C53 C51 1_555 1_555
C54 C51 1_555 1_555
H34 C52 1_555 1_555
C55 C53 1_555 1_555
C56 C53 1_555 1_555
H35 C54 1_555 1_555
C57 C55 1_555 1_555
H36 C55 1_555 1_555
C58 C56 1_555 1_555
H37 C56 1_555 1_555
H38 C57 1_555 1_555
C59 C57 1_555 1_555
H39 C58 1_555 1_555
C60 C59 1_555 1_555
O16 Zr3 1_555 1_555
Zr5 O5 1_555 1_555
Zr7 O14 1_555 1_555
Zr10 O11 1_555 1_555
Zr11 O3 1_555 1_555
Zr12 O6 1_555 1_555
O17 Zr2 1_555 1_555
O18 Zr3 1_555 1_555
O19 Zr1 1_555 1_555
O20 Zr3 1_555 1_555
O21 Zr1 1_555 1_555
O22 Zr2 1_555 1_555
O23 Zr1 1_555 1_555
O24 Zr2 1_555 1_555
O25 Zr3 1_555 1_555
O26 Zr2 1_555 1_555
O27 Zr1 1_555 1_555
O28 Zr1 1_555 1_555
C6 C7 1_555 1_555
C12 C14 1_555 1_555
O6 Zr11 1_555 1_555
Zr2 O28 1_555 1_555
O8 Zr12 1_555 1_555
C26 C27 1_555 1_555
C32 C34 1_555 1_555
O11 Zr12 1_555 1_555
Zr3 O26 1_555 1_555
Zr3 O27 1_555 1_555
O13 Zr10 1_555 1_555
C46 C47 1_555 1_555
C52 C54 1_555 1_555
C58 C59 1_555 1_555
O16 Zr10 1_555 1_555
O16 Zr11 1_555 1_555
Zr10 O26 1_555 1_555
Zr11 O27 1_555 1_555
Zr12 O28 1_555 1_555
H13 C18 1_555 1_555
Zr9 O4 1_555 1_555
O14_2 C60_2 1_555 1_555
O15_2 C60_2 1_555 1_555
C60_2 C59_2 1_555 1_555
Zr11 O14_2 1_555 1_555
Zr12 O15_2 1_555 1_555
O9_2 C40_2 1_555 1_555
O10_2 C40_2 1_555 1_555
C40_2 C39_2 1_555 1_555
Zr10 O9_2 1_555 1_555
Zr11 O10_2 1_555 1_555
O4_2 C20_2 1_555 1_555
O5_2 C20_2 1_555 1_555
C20_2 C19_2 1_555 1_555
Zr10 O5_2 1_555 1_555
Zr12 O4_2 1_555 1_555
H27_2 C43_2 1_555 1_555
C45_2 C43_2 1_555 1_555
H29_2 C45_2 1_555 1_555
C52_2 C50_2 1_555 1_555
H31_2 C50_2 1_555 1_555
H34_2 C52_2 1_555 1_555
Zr5 O11_2 1_555 1_555
O13_2 Zr5 1_555 1_555
C23_2 H14_2 1_555 1_555
C25_2 C23_2 1_555 1_555
H16_2 C25_2 1_555 1_555
C32_2 C30_2 1_555 1_555
H18_2 C30_2 1_555 1_555
H21_2 C32_2 1_555 1_555
O8_2 Zr9 1_555 1_555
H1_2 C3_2 1_555 1_555
C5_2 C3_2 1_555 1_555
H3_2 C5_2 1_555 1_555
C12_2 C10_2 1_555 1_555
H5_2 C10_2 1_555 1_555
H8_2 C12_2 1_555 1_555
Zr7 O3_2 1_555 1_555
O6_2 Zr7 1_555 1_555
Zr10 O1_2 1_555 1_555
O1_2 Zr11 1_555 1_555
O2_2 Zr10 1_555 1_555
O17 C1_2 1_555 1_555
C1_2 O2_2 1_555 1_555
C2_2 C1_2 1_555 1_555
C3_3 C2_2 1_555 1_555
C4_2 C2_2 1_555 1_555
H1_3 C3_3 1_555 1_555
C5_3 C3_3 1_555 1_555
C6_2 C4_2 1_555 1_555
H2_2 C4_2 1_555 1_555
C7_2 C5_3 1_555 1_555
H3_3 C5_3 1_555 1_555
H4_2 C6_2 1_555 1_555
Zr11 O7_2 1_555 1_555
O7_2 C21_2 1_555 1_555
O18 C21_2 1_555 1_555
C21_2 C22_2 1_555 1_555
C22_2 C23_3 1_555 1_555
C23_3 H14_3 1_555 1_555
C24_2 C22_2 1_555 1_555
C25_3 C23_3 1_555 1_555
C26_2 C24_2 1_555 1_555
H15_2 C24_2 1_555 1_555
C27_2 C25_3 1_555 1_555
H16_3 C25_3 1_555 1_555
H17_2 C26_2 1_555 1_555
C28_2 C27_2 1_555 1_555
C29_2 C28_2 1_555 1_555
C30_3 C28_2 1_555 1_555
N2_2 C29_2 1_555 1_555
C31_2 C29_2 1_555 1_555
C32_3 C30_3 1_555 1_555
H18_3 C30_3 1_555 1_555
H19_2 N2_2 1_555 1_555
H20_2 N2_2 1_555 1_555
C33_2 C31_2 1_555 1_555
C34_2 C31_2 1_555 1_555
H21_3 C32_3 1_555 1_555
C35_2 C33_2 1_555 1_555
C36_2 C33_2 1_555 1_555
H22_2 C34_2 1_555 1_555
C37_2 C35_2 1_555 1_555
H23_2 C35_2 1_555 1_555
C38_2 C36_2 1_555 1_555
H24_2 C36_2 1_555 1_555
H26_2 C38_2 1_555 1_555
Zr12 O1_2 1_555 1_555
O12_2 Zr12 1_555 1_555
O19 C41_2 1_555 1_555
C41_2 O12_2 1_555 1_555
C42_2 C41_2 1_555 1_555
C43_3 C42_2 1_555 1_555
C44_2 C42_2 1_555 1_555
H27_3 C43_3 1_555 1_555
C45_3 C43_3 1_555 1_555
C46_2 C44_2 1_555 1_555
H28_2 C44_2 1_555 1_555
C47_2 C45_3 1_555 1_555
H29_3 C45_3 1_555 1_555
H30_2 C46_2 1_555 1_555
C6_2 C7_2 1_555 1_555
C26_2 C27_2 1_555 1_555
C32_3 C34_2 1_555 1_555
C46_2 C47_2 1_555 1_555
O2_3 Zr5 1_555 1_555
O20 C20_3 1_555 1_555
O23 C20_3 1_555 1_555
C1_3 O2_3 1_555 1_555
C2_3 C1_3 1_555 1_555
C4_3 C2_3 1_555 1_555
C6_3 C4_3 1_555 1_555
H2_3 C4_3 1_555 1_555
H4_3 C6_3 1_555 1_555
C8_2 C7_3 1_555 1_555
C9_2 C8_2 1_555 1_555
N1_2 C9_2 1_555 1_555
C11_2 C9_2 1_555 1_555
H6_2 N1_2 1_555 1_555
H7_2 N1_2 1_555 1_555
C13_2 C11_2 1_555 1_555
C14_2 C11_2 1_555 1_555
C15_2 C13_2 1_555 1_555
C16_2 C13_2 1_555 1_555
H9_2 C14_2 1_555 1_555
C17_2 C15_2 1_555 1_555
H10_2 C15_2 1_555 1_555
C18_2 C16_2 1_555 1_555
H11_2 C16_2 1_555 1_555
H12_3 C17_2 1_555 1_555
C19_3 C17_2 1_555 1_555
H13_2 C18_2 1_555 1_555
C20_3 C19_3 1_555 1_555
C6_3 C7_3 1_555 1_555
C18_2 C19_3 1_555 1_555
O7_3 C21_3 1_555 1_555
O21 C40_3 1_555 1_555
O24 C40_3 1_555 1_555
C21_3 C22_3 1_555 1_555
C24_3 C22_3 1_555 1_555
C26_3 C24_3 1_555 1_555
H15_3 C24_3 1_555 1_555
H17_3 C26_3 1_555 1_555
C28_3 C27_3 1_555 1_555
C29_3 C28_3 1_555 1_555
N2_3 C29_3 1_555 1_555
C31_3 C29_3 1_555 1_555
H19_3 N2_3 1_555 1_555
H20_3 N2_3 1_555 1_555
C33_3 C31_3 1_555 1_555
C34_3 C31_3 1_555 1_555
C35_3 C33_3 1_555 1_555
C36_3 C33_3 1_555 1_555
H22_3 C34_3 1_555 1_555
C37_3 C35_3 1_555 1_555
H23_3 C35_3 1_555 1_555
C38_3 C36_3 1_555 1_555
H24_3 C36_3 1_555 1_555
H25_3 C37_3 1_555 1_555
C39_3 C37_3 1_555 1_555
H26_3 C38_3 1_555 1_555
C40_3 C39_3 1_555 1_555
C26_3 C27_3 1_555 1_555
C38_3 C39_3 1_555 1_555
O22 C60_3 1_555 1_555
O25 C60_3 1_555 1_555
C41_3 O12_3 1_555 1_555
C42_3 C41_3 1_555 1_555
C44_3 C42_3 1_555 1_555
C46_3 C44_3 1_555 1_555
H28_3 C44_3 1_555 1_555
H30_3 C46_3 1_555 1_555
C48_2 C47_3 1_555 1_555
C49_2 C48_2 1_555 1_555
N3_2 C49_2 1_555 1_555
C51_2 C49_2 1_555 1_555
H32_2 N3_2 1_555 1_555
H33_2 N3_2 1_555 1_555
C53_2 C51_2 1_555 1_555
C54_2 C51_2 1_555 1_555
C55_2 C53_2 1_555 1_555
C56_2 C53_2 1_555 1_555
H35_2 C54_2 1_555 1_555
C57_2 C55_2 1_555 1_555
H36_2 C55_2 1_555 1_555
C58_2 C56_2 1_555 1_555
H37_2 C56_2 1_555 1_555
H38_3 C57_2 1_555 1_555
C59_3 C57_2 1_555 1_555
H39_2 C58_2 1_555 1_555
C60_3 C59_3 1_555 1_555
C46_3 C47_3 1_555 1_555
C58_2 C59_3 1_555 1_555
Zr7 O1_4 1_555 1_555
O1_5 Zr5 1_555 1_555
C49_3 C48_3 1_555 1_555
C50_3 C48_3 1_555 1_555
N3_3 C49_3 1_555 1_555
C51_3 C49_3 1_555 1_555
C52_3 C50_3 1_555 1_555
H31_3 C50_3 1_555 1_555
H32_3 N3_3 1_555 1_555
H33_3 N3_3 1_555 1_555
C53_3 C51_3 1_555 1_555
C54_3 C51_3 1_555 1_555
H34_3 C52_3 1_555 1_555
C55_3 C53_3 1_555 1_555
C56_3 C53_3 1_555 1_555
H35_3 C54_3 1_555 1_555
C57_3 C55_3 1_555 1_555
H36_3 C55_3 1_555 1_555
C58_3 C56_3 1_555 1_555
H37_3 C56_3 1_555 1_555
H39_3 C58_3 1_555 1_555
C52_3 C54_3 1_555 1_555
Zr1_2 O1_6 1_555 1_555
O1_6 Zr2_2 1_555 1_555
O2_4 Zr1_2 1_555 1_555
O3_3 C1_4 1_555 1_555
C1_4 O2_4 1_555 1_555
C2_4 C1_4 1_555 1_555
C3_4 C2_4 1_555 1_555
C4_4 C2_4 1_555 1_555
H1_4 C3_4 1_555 1_555
C5_4 C3_4 1_555 1_555
C6_4 C4_4 1_555 1_555
H2_4 C4_4 1_555 1_555
C7_4 C5_4 1_555 1_555
H3_4 C5_4 1_555 1_555
H4_4 C6_4 1_555 1_555
O6_3 Zr1_2 1_555 1_555
Zr2_2 O7_4 1_555 1_555
O7_4 C21_4 1_555 1_555
O8_3 C21_4 1_555 1_555
C21_4 C22_4 1_555 1_555
C22_4 C23_4 1_555 1_555
C23_4 H14_4 1_555 1_555
C24_4 C22_4 1_555 1_555
C25_4 C23_4 1_555 1_555
C26_4 C24_4 1_555 1_555
H15_4 C24_4 1_555 1_555
C27_4 C25_4 1_555 1_555
H16_4 C25_4 1_555 1_555
H17_4 C26_4 1_555 1_555
C28_4 C27_4 1_555 1_555
C29_4 C28_4 1_555 1_555
C30_4 C28_4 1_555 1_555
N2_4 C29_4 1_555 1_555
C31_4 C29_4 1_555 1_555
C32_4 C30_4 1_555 1_555
H18_4 C30_4 1_555 1_555
H19_4 N2_4 1_555 1_555
H20_4 N2_4 1_555 1_555
C33_4 C31_4 1_555 1_555
C34_4 C31_4 1_555 1_555
H21_4 C32_4 1_555 1_555
C35_4 C33_4 1_555 1_555
C36_4 C33_4 1_555 1_555
H22_4 C34_4 1_555 1_555
C37_4 C35_4 1_555 1_555
H23_4 C35_4 1_555 1_555
C38_4 C36_4 1_555 1_555
H24_4 C36_4 1_555 1_555
H26_4 C38_4 1_555 1_555
O11_3 Zr2_2 1_555 1_555
Zr3_2 O1_6 1_555 1_555
O12_4 Zr3_2 1_555 1_555
O13_3 C41_4 1_555 1_555
C41_4 O12_4 1_555 1_555
C42_4 C41_4 1_555 1_555
C43_4 C42_4 1_555 1_555
C44_4 C42_4 1_555 1_555
H27_4 C43_4 1_555 1_555
C45_4 C43_4 1_555 1_555
C46_4 C44_4 1_555 1_555
H28_4 C44_4 1_555 1_555
C47_4 C45_4 1_555 1_555
H29_4 C45_4 1_555 1_555
H30_4 C46_4 1_555 1_555
O16_3 Zr3_2 1_555 1_555
Zr10_2 O11_3 1_555 1_555
Zr11_2 O3_3 1_555 1_555
Zr12_2 O6_3 1_555 1_555
O17_2 Zr2_2 1_555 1_555
O18_2 Zr3_2 1_555 1_555
O19_2 Zr1_2 1_555 1_555
O20_2 Zr3_2 1_555 1_555
O21_2 Zr1_2 1_555 1_555
O22_2 Zr2_2 1_555 1_555
O23_2 Zr1_2 1_555 1_555
O24_2 Zr2_2 1_555 1_555
O25_2 Zr3_2 1_555 1_555
O26_2 Zr2_2 1_555 1_555
O27_2 Zr1_2 1_555 1_555
O28_2 Zr1_2 1_555 1_555
C6_4 C7_4 1_555 1_555
O6_3 Zr11_2 1_555 1_555
Zr2_2 O28_2 1_555 1_555
O8_3 Zr12_2 1_555 1_555
C26_4 C27_4 1_555 1_555
C32_4 C34_4 1_555 1_555
O11_3 Zr12_2 1_555 1_555
Zr3_2 O26_2 1_555 1_555
Zr3_2 O27_2 1_555 1_555
O13_3 Zr10_2 1_555 1_555
C46_4 C47_4 1_555 1_555
O16_3 Zr10_2 1_555 1_555
O16_3 Zr11_2 1_555 1_555
Zr10_2 O26_2 1_555 1_555
Zr11_2 O27_2 1_555 1_555
Zr12_2 O28_2 1_555 1_555
O14_3 C60_4 1_555 1_555
O15_3 C60_4 1_555 1_555
C41_5 O12_5 1_555 1_555
C42_5 C41_5 1_555 1_555
C44_5 C42_5 1_555 1_555
C46_5 C44_5 1_555 1_555
H28_5 C44_5 1_555 1_555
H30_5 C46_5 1_555 1_555
C48_4 C47_5 1_555 1_555
C49_4 C48_4 1_555 1_555
N3_4 C49_4 1_555 1_555
C51_4 C49_4 1_555 1_555
H32_4 N3_4 1_555 1_555
H33_4 N3_4 1_555 1_555
C53_4 C51_4 1_555 1_555
C54_4 C51_4 1_555 1_555
C55_4 C53_4 1_555 1_555
C56_4 C53_4 1_555 1_555
H35_4 C54_4 1_555 1_555
C57_4 C55_4 1_555 1_555
H36_4 C55_4 1_555 1_555
C58_4 C56_4 1_555 1_555
H37_4 C56_4 1_555 1_555
H38_4 C57_4 1_555 1_555
C59_4 C57_4 1_555 1_555
H39_4 C58_4 1_555 1_555
C60_4 C59_4 1_555 1_555
Zr11_2 O14_3 1_555 1_555
Zr12_2 O15_3 1_555 1_555
O17_3 Zr2_3 1_555 1_555
O22_3 Zr2_3 1_555 1_555
O26_3 Zr2_3 1_555 1_555
C46_5 C47_5 1_555 1_555
C58_4 C59_4 1_555 1_555
O7_5 C21_5 1_555 1_555
O9_3 C40_4 1_555 1_555
O10_3 C40_4 1_555 1_555
C21_5 C22_5 1_555 1_555
C24_5 C22_5 1_555 1_555
C26_5 C24_5 1_555 1_555
H15_5 C24_5 1_555 1_555
H17_5 C26_5 1_555 1_555
C28_5 C27_5 1_555 1_555
C29_5 C28_5 1_555 1_555
N2_5 C29_5 1_555 1_555
C31_5 C29_5 1_555 1_555
H19_5 N2_5 1_555 1_555
H20_5 N2_5 1_555 1_555
C33_5 C31_5 1_555 1_555
C34_5 C31_5 1_555 1_555
C35_5 C33_5 1_555 1_555
C36_5 C33_5 1_555 1_555
H22_5 C34_5 1_555 1_555
C37_5 C35_5 1_555 1_555
H23_5 C35_5 1_555 1_555
C38_5 C36_5 1_555 1_555
H24_5 C36_5 1_555 1_555
H25_4 C37_5 1_555 1_555
C39_4 C37_5 1_555 1_555
H26_5 C38_5 1_555 1_555
C40_4 C39_4 1_555 1_555
Zr10_2 O9_3 1_555 1_555
Zr11_2 O10_3 1_555 1_555
C26_5 C27_5 1_555 1_555
C38_5 C39_4 1_555 1_555
O18_3 Zr3_3 1_555 1_555
O20_3 Zr3_3 1_555 1_555
O2_5 Zr1_3 1_555 1_555
O4_3 C20_4 1_555 1_555
O5_3 C20_4 1_555 1_555
C1_5 O2_5 1_555 1_555
C2_5 C1_5 1_555 1_555
C4_5 C2_5 1_555 1_555
C6_5 C4_5 1_555 1_555
H2_5 C4_5 1_555 1_555
H4_5 C6_5 1_555 1_555
C8_3 C7_5 1_555 1_555
C9_3 C8_3 1_555 1_555
N1_3 C9_3 1_555 1_555
C11_3 C9_3 1_555 1_555
H6_3 N1_3 1_555 1_555
H7_3 N1_3 1_555 1_555
C13_3 C11_3 1_555 1_555
C14_3 C11_3 1_555 1_555
C15_3 C13_3 1_555 1_555
C16_3 C13_3 1_555 1_555
H9_3 C14_3 1_555 1_555
C17_3 C15_3 1_555 1_555
H10_3 C15_3 1_555 1_555
C18_3 C16_3 1_555 1_555
H11_3 C16_3 1_555 1_555
H12_4 C17_3 1_555 1_555
C19_4 C17_3 1_555 1_555
H13_3 C18_3 1_555 1_555
C20_4 C19_4 1_555 1_555
Zr10_2 O5_3 1_555 1_555
Zr12_2 O4_3 1_555 1_555
O19_3 Zr1_3 1_555 1_555
O21_3 Zr1_3 1_555 1_555
O23_3 Zr1_3 1_555 1_555
O27_3 Zr1_3 1_555 1_555
C6_5 C7_5 1_555 1_555
C18_3 C19_4 1_555 1_555
Zr2_3 O1_8 1_555 1_555
O1_9 Zr1_3 1_555 1_555
H13_4 C18_4 1_555 1_555
Zr10_2 O1_10 1_555 1_555
O1_10 Zr11_2 1_555 1_555
O2_6 Zr10_2 1_555 1_555
O17_2 C1_6 1_555 1_555
O23_3 C20_5 1_555 1_555
C1_6 O2_6 1_555 1_555
C2_6 C1_6 1_555 1_555
C3_5 C2_6 1_555 1_555
C4_6 C2_6 1_555 1_555
H1_5 C3_5 1_555 1_555
C5_5 C3_5 1_555 1_555
C6_6 C4_6 1_555 1_555
H2_6 C4_6 1_555 1_555
C7_6 C5_5 1_555 1_555
H3_5 C5_5 1_555 1_555
H4_6 C6_6 1_555 1_555
C8_4 C7_6 1_555 1_555
C9_4 C8_4 1_555 1_555
C10_3 C8_4 1_555 1_555
N1_4 C9_4 1_555 1_555
C11_4 C9_4 1_555 1_555
C12_3 C10_3 1_555 1_555
H5_3 C10_3 1_555 1_555
H6_4 N1_4 1_555 1_555
H7_4 N1_4 1_555 1_555
C13_4 C11_4 1_555 1_555
C14_4 C11_4 1_555 1_555
H8_3 C12_3 1_555 1_555
C15_4 C13_4 1_555 1_555
C16_4 C13_4 1_555 1_555
H9_4 C14_4 1_555 1_555
C17_4 C15_4 1_555 1_555
H10_4 C15_4 1_555 1_555
H12_5 C17_4 1_555 1_555
C19_5 C17_4 1_555 1_555
C20_5 C19_5 1_555 1_555
Zr11_2 O7_6 1_555 1_555
O7_6 C21_6 1_555 1_555
O18_2 C21_6 1_555 1_555
O24_3 C40_5 1_555 1_555
C21_6 C22_6 1_555 1_555
C22_6 C23_5 1_555 1_555
C23_5 H14_5 1_555 1_555
C24_6 C22_6 1_555 1_555
C25_5 C23_5 1_555 1_555
C26_6 C24_6 1_555 1_555
H15_6 C24_6 1_555 1_555
C27_6 C25_5 1_555 1_555
H16_5 C25_5 1_555 1_555
H17_6 C26_6 1_555 1_555
C28_6 C27_6 1_555 1_555
C29_6 C28_6 1_555 1_555
C30_5 C28_6 1_555 1_555
N2_6 C29_6 1_555 1_555
C31_6 C29_6 1_555 1_555
C32_5 C30_5 1_555 1_555
H18_5 C30_5 1_555 1_555
H19_6 N2_6 1_555 1_555
H20_6 N2_6 1_555 1_555
C33_6 C31_6 1_555 1_555
C34_6 C31_6 1_555 1_555
H21_5 C32_5 1_555 1_555
C35_6 C33_6 1_555 1_555
C36_6 C33_6 1_555 1_555
H22_6 C34_6 1_555 1_555
C37_6 C35_6 1_555 1_555
H23_6 C35_6 1_555 1_555
H25_5 C37_6 1_555 1_555
C39_5 C37_6 1_555 1_555
C40_5 C39_5 1_555 1_555
Zr12_2 O1_10 1_555 1_555
O12_6 Zr12_2 1_555 1_555
O19_2 C41_6 1_555 1_555
O22_3 C60_5 1_555 1_555
O25_3 C60_5 1_555 1_555
C41_6 O12_6 1_555 1_555
C42_6 C41_6 1_555 1_555
C43_5 C42_6 1_555 1_555
C44_6 C42_6 1_555 1_555
H27_5 C43_5 1_555 1_555
C45_5 C43_5 1_555 1_555
C46_6 C44_6 1_555 1_555
H28_6 C44_6 1_555 1_555
C47_6 C45_5 1_555 1_555
H29_5 C45_5 1_555 1_555
H30_6 C46_6 1_555 1_555
C48_5 C47_6 1_555 1_555
C49_5 C48_5 1_555 1_555
C50_4 C48_5 1_555 1_555
N3_5 C49_5 1_555 1_555
C51_5 C49_5 1_555 1_555
C52_4 C50_4 1_555 1_555
H31_4 C50_4 1_555 1_555
H32_5 N3_5 1_555 1_555
H33_5 N3_5 1_555 1_555
C53_5 C51_5 1_555 1_555
C54_5 C51_5 1_555 1_555
H34_4 C52_4 1_555 1_555
C55_5 C53_5 1_555 1_555
C56_5 C53_5 1_555 1_555
H35_5 C54_5 1_555 1_555
C57_5 C55_5 1_555 1_555
H36_5 C55_5 1_555 1_555
C58_5 C56_5 1_555 1_555
H37_5 C56_5 1_555 1_555
H38_5 C57_5 1_555 1_555
C59_5 C57_5 1_555 1_555
H39_5 C58_5 1_555 1_555
C60_5 C59_5 1_555 1_555
C6_6 C7_6 1_555 1_555
C12_3 C14_4 1_555 1_555
C26_6 C27_6 1_555 1_555
C32_5 C34_6 1_555 1_555
C46_6 C47_6 1_555 1_555
C52_4 C54_5 1_555 1_555
C58_5 C59_5 1_555 1_555
H26_6 C38_6 1_555 1_555
O20_2 C20_6 1_555 1_555
O23_2 C20_6 1_555 1_555
C20_6 C19_6 1_555 1_555
O21_2 C40_6 1_555 1_555
O24_2 C40_6 1_555 1_555
C40_6 C39_6 1_555 1_555
O22_2 C60_6 1_555 1_555
O25_2 C60_6 1_555 1_555
C60_6 C59_6 1_555 1_555
H1_6 C3_6 1_555 1_555
C5_6 C3_6 1_555 1_555
H3_6 C5_6 1_555 1_555
C12_4 C10_4 1_555 1_555
H5_4 C10_4 1_555 1_555
H8_4 C12_4 1_555 1_555
C23_6 H14_6 1_555 1_555
C25_6 C23_6 1_555 1_555
H16_6 C25_6 1_555 1_555
C32_6 C30_6 1_555 1_555
H18_6 C30_6 1_555 1_555
H21_6 C32_6 1_555 1_555
H27_6 C43_6 1_555 1_555
C45_6 C43_6 1_555 1_555
H29_6 C45_6 1_555 1_555
C52_5 C50_5 1_555 1_555
H31_5 C50_5 1_555 1_555
H34_5 C52_5 1_555 1_555
C9_5 C8_5 1_555 1_555
C10_5 C8_5 1_555 1_555
N1_5 C9_5 1_555 1_555
C11_5 C9_5 1_555 1_555
C12_5 C10_5 1_555 1_555
H5_5 C10_5 1_555 1_555
H6_5 N1_5 1_555 1_555
H7_5 N1_5 1_555 1_555
C13_5 C11_5 1_555 1_555
C14_5 C11_5 1_555 1_555
H8_5 C12_5 1_555 1_555
C15_5 C13_5 1_555 1_555
C16_5 C13_5 1_555 1_555
H9_5 C14_5 1_555 1_555
C17_5 C15_5 1_555 1_555
H10_5 C15_5 1_555 1_555
C18_5 C16_5 1_555 1_555
H11_5 C16_5 1_555 1_555
H13_5 C18_5 1_555 1_555
C12_5 C14_5 1_555 1_555
C9_6 C8_6 1_555 1_555
C10_6 C8_6 1_555 1_555
N1_6 C9_6 1_555 1_555
C11_6 C9_6 1_555 1_555
C12_6 C10_6 1_555 1_555
H5_6 C10_6 1_555 1_555
H6_6 N1_6 1_555 1_555
H7_6 N1_6 1_555 1_555
C13_6 C11_6 1_555 1_555
C14_6 C11_6 1_555 1_555
H8_6 C12_6 1_555 1_555
C15_6 C13_6 1_555 1_555
C16_6 C13_6 1_555 1_555
H9_6 C14_6 1_555 1_555
C17_6 C15_6 1_555 1_555
H10_6 C15_6 1_555 1_555
C18_6 C16_6 1_555 1_555
H11_6 C16_6 1_555 1_555
H13_6 C18_6 1_555 1_555
C12_6 C14_6 1_555 1_555
C49_6 C48_6 1_555 1_555
C50_6 C48_6 1_555 1_555
N3_6 C49_6 1_555 1_555
C51_6 C49_6 1_555 1_555
C52_6 C50_6 1_555 1_555
H31_6 C50_6 1_555 1_555
H32_6 N3_6 1_555 1_555
H33_6 N3_6 1_555 1_555
C53_6 C51_6 1_555 1_555
C54_6 C51_6 1_555 1_555
H34_6 C52_6 1_555 1_555
C55_6 C53_6 1_555 1_555
C56_6 C53_6 1_555 1_555
H35_6 C54_6 1_555 1_555
C57_6 C55_6 1_555 1_555
H36_6 C55_6 1_555 1_555
C58_6 C56_6 1_555 1_555
H37_6 C56_6 1_555 1_555
H39_6 C58_6 1_555 1_555
C52_6 C54_6 1_555 1_555

#END
