
###############################################################################
#
# This file contains modified crystal structure data generated from the
# MOF subset of the Cambridge Structural Database (CSD) v543 
# hosted by the Cambridge Crystallographic Data Centre (CCDC).
#
# This work is licensed under the Creative Commons
# Attribution-NonCommercial-ShareAlike 4.0 International License.
# To view a copy of this license, visit
# http://creativecommons.org/licenses/by-nc-sa/4.0/
# or send a letter to
# Creative Commons, PO Box 1866, Mountain View, CA 94042, USA.
#
# CIF created using the CSD Python API on 29 September 2022
# The structure has been converted into the P1 space group
# The structure has a 3D framework
# The original CSD entry VUZQEP is in the cubic crystal system
# The framework has been calculated to contain at least 10.0% void space
# The void calculation uses a probe of radius 1.32A, grid spacing 0.4
#
###############################################################################

data_VUZQEP
_chemical_formula_moiety         '(C96 H96 N162 Zn12)n'
_symmetry_cell_setting           triclinic
_symmetry_space_group_name_H-M   'P 1'
_symmetry_Int_Tables_number      1
_space_group_name_Hall           'P 1'
loop_
_symmetry_equiv_pos_site_id
_symmetry_equiv_pos_as_xyz
1 x,y,z
_cell_length_a                   17.7341
_cell_length_b                   17.7341
_cell_length_c                   17.7341
_cell_angle_alpha                90
_cell_angle_beta                 90
_cell_angle_gamma                90
_cell_volume                     5577.34
loop_
_atom_site_label
_atom_site_type_symbol
_atom_site_fract_x
_atom_site_fract_y
_atom_site_fract_z
_atom_site_U_iso_or_equiv
_atom_site_thermal_displace_type
H5 H 0.30340 0.02726 0.69660 0.0000 Uiso
H6 H 0.19660 0.02726 0.80340 0.0000 Uiso
N1 N 0.25000 0.75000 0.63655 0.0914 Uiso
N2 N 0.20515 0.70515 0.59364 0.0544 Uiso
C1 C 0.22234 0.72234 0.52167 0.0400 Uiso
Zn1 Zn 0.25000 0.75000 0.75000 0.0747 Uiso
Zn2 Zn 0.12500 0.62500 0.62500 0.1037 Uiso
H1 H 0.19660 0.69660 0.47274 0.0000 Uiso
N3 N 0.29485 0.79485 0.59364 0.0544 Uiso
C2 C 0.27766 0.77766 0.52167 0.0400 Uiso
H2 H 0.30340 0.80340 0.47274 0.0000 Uiso
N4 N 0.13655 0.75000 0.75000 0.0914 Uiso
N5 N 0.09364 0.79485 0.79485 0.0544 Uiso
C3 C 0.02167 0.77766 0.77766 0.0400 Uiso
Zn3 Zn 0.12500 0.87500 0.87500 0.1037 Uiso
N6 N 0.09364 0.70515 0.70515 0.0544 Uiso
C4 C 0.02167 0.72234 0.72234 0.0400 Uiso
N7 N 0.25000 0.86345 0.75000 0.0914 Uiso
N8 N 0.29485 0.90636 0.70515 0.0544 Uiso
C5 C 0.27766 0.97833 0.72234 0.0400 Uiso
N9 N 0.20515 0.90636 0.79485 0.0544 Uiso
C6 C 0.22234 0.97833 0.77766 0.0400 Uiso
N10 N -0.00000 0.50000 0.61345 0.0914 Uiso
N11 N 0.04485 0.54485 0.65636 0.0544 Uiso
C7 C 0.02766 0.52766 0.72833 0.0400 Uiso
H7 H 0.05340 0.55340 0.77726 0.0000 Uiso
N13 N 0.11345 0.50000 0.50000 0.0914 Uiso
N14 N 0.15636 0.45515 0.45515 0.0544 Uiso
C9 C 0.22833 0.47234 0.47234 0.0400 Uiso
H9 H 0.27726 0.44660 0.44660 0.0000 Uiso
N15 N 0.15636 0.54485 0.54485 0.0544 Uiso
C10 C 0.22833 0.52766 0.52766 0.0400 Uiso
H10 H 0.27726 0.55340 0.55340 0.0000 Uiso
N16 N 0.36345 0.75000 0.75000 0.0914 Uiso
N17 N 0.40636 0.70515 0.79485 0.0544 Uiso
C11 C 0.47833 0.72234 0.77766 0.0400 Uiso
H11 H 0.52726 0.69660 0.80340 0.0000 Uiso
N18 N 0.40636 0.79485 0.70515 0.0544 Uiso
C12 C 0.47833 0.77766 0.72234 0.0400 Uiso
H12 H 0.52726 0.80340 0.69660 0.0000 Uiso
N19 N 0.25000 0.75000 0.86345 0.0914 Uiso
N20 N 0.25000 0.63655 0.75000 0.0914 Uiso
N21 N 0.04485 0.95515 0.84364 0.0544 Uiso
N22 N 0.04485 0.65636 0.54485 0.0544 Uiso
N23 N 0.04485 0.84364 0.95515 0.0544 Uiso
N24 N 0.20515 0.59364 0.70515 0.0544 Uiso
N25 N 0.15636 0.95515 0.95515 0.0544 Uiso
N26 N 0.20515 0.79485 0.90636 0.0544 Uiso
Zn4 Zn 0.00000 0.50000 0.50000 0.0747 Uiso
Zn5 Zn 0.12500 0.37500 0.37500 0.1037 Uiso
Zn6 Zn 0.37500 0.87500 0.62500 0.1037 Uiso
Zn7 Zn 0.37500 0.62500 0.87500 0.1037 Uiso
H3 H 0.97274 0.80340 0.80340 0.0000 Uiso
H4 H 0.97274 0.69660 0.69660 0.0000 Uiso
N10_2 N 1.00000 0.50000 0.61345 0.0914 Uiso
N12 N 0.95515 0.45515 0.65636 0.0544 Uiso
C8 C 0.97234 0.47234 0.72833 0.0400 Uiso
H8 H 0.94660 0.44660 0.77726 0.0000 Uiso
Zn4_2 Zn 1.00000 0.50000 0.50000 0.0747 Uiso
Zn8 Zn 0.87500 0.37500 0.62500 0.1037 Uiso
N10_3 N 0.00000 0.00000 0.11345 0.0914 Uiso
N12_2 N 0.04485 0.04485 0.15636 0.0544 Uiso
C8_2 C 0.02766 0.02766 0.22833 0.0400 Uiso
H8_2 H 0.05340 0.05340 0.27726 0.0000 Uiso
Zn4_3 Zn -0.00000 0.00000 0.00000 0.0747 Uiso
Zn8_2 Zn 0.12500 0.12500 0.12500 0.1037 Uiso
Zn4_4 Zn -0.00000 0.00000 1.00000 0.0747 Uiso
H3_2 H 0.02726 0.69660 0.30340 0.0000 Uiso
H4_2 H 0.02726 0.80340 0.19660 0.0000 Uiso
N10_4 N -0.00000 1.00000 0.11345 0.0914 Uiso
Zn4_5 Zn -0.00000 1.00000 0.00000 0.0747 Uiso
Zn4_6 Zn -0.00000 1.00000 1.00000 0.0747 Uiso
N10_5 N 1.00000 0.00000 0.11345 0.0914 Uiso
N13_2 N 0.88655 -0.00000 0.00000 0.0914 Uiso
Zn4_7 Zn 1.00000 0.00000 0.00000 0.0747 Uiso
N13_3 N 0.88655 -0.00000 1.00000 0.0914 Uiso
N14_2 N 0.84364 0.04485 0.95515 0.0544 Uiso
C9_2 C 0.77167 0.02766 0.97234 0.0400 Uiso
H9_2 H 0.72274 0.05340 0.94660 0.0000 Uiso
Zn4_8 Zn 1.00000 0.00000 1.00000 0.0747 Uiso
Zn5_2 Zn 0.87500 0.12500 0.87500 0.1037 Uiso
N1_2 N 0.75000 0.75000 0.13655 0.0914 Uiso
N2_2 N 0.79485 0.79485 0.09364 0.0544 Uiso
C1_2 C 0.77766 0.77766 0.02167 0.0400 Uiso
Zn1_2 Zn 0.75000 0.75000 0.25000 0.0747 Uiso
Zn2_2 Zn 0.87500 0.87500 0.12500 0.1037 Uiso
N3_2 N 0.70515 0.70515 0.09364 0.0544 Uiso
C2_2 C 0.72234 0.72234 0.02167 0.0400 Uiso
N4_2 N 0.86345 0.75000 0.25000 0.0914 Uiso
N5_2 N 0.90636 0.70515 0.29485 0.0544 Uiso
C3_2 C 0.97833 0.72234 0.27766 0.0400 Uiso
Zn3_2 Zn 0.87500 0.62500 0.37500 0.1037 Uiso
N6_2 N 0.90636 0.79485 0.20515 0.0544 Uiso
C4_2 C 0.97833 0.77766 0.22234 0.0400 Uiso
N7_2 N 0.75000 0.63655 0.25000 0.0914 Uiso
N8_2 N 0.70515 0.59364 0.20515 0.0544 Uiso
C5_2 C 0.72234 0.52167 0.22234 0.0400 Uiso
H5_2 H 0.69660 0.47274 0.19660 0.0000 Uiso
N9_2 N 0.79485 0.59364 0.29485 0.0544 Uiso
C6_2 C 0.77766 0.52167 0.27766 0.0400 Uiso
H6_2 H 0.80340 0.47274 0.30340 0.0000 Uiso
N10_6 N 1.00000 1.00000 0.11345 0.0914 Uiso
N11_2 N 0.95515 0.95515 0.15636 0.0544 Uiso
C7_2 C 0.97234 0.97234 0.22833 0.0400 Uiso
H7_2 H 0.94660 0.94660 0.27726 0.0000 Uiso
N13_4 N 0.88655 1.00000 0.00000 0.0914 Uiso
N15_2 N 0.84364 0.95515 0.04485 0.0544 Uiso
C10_2 C 0.77167 0.97234 0.02766 0.0400 Uiso
H10_2 H 0.72274 0.94660 0.05340 0.0000 Uiso
N16_2 N 0.63655 0.75000 0.25000 0.0914 Uiso
N17_2 N 0.59364 0.79485 0.29485 0.0544 Uiso
C11_2 C 0.52167 0.77766 0.27766 0.0400 Uiso
H11_2 H 0.47274 0.80340 0.30340 0.0000 Uiso
N18_2 N 0.59364 0.70515 0.20515 0.0544 Uiso
C12_2 C 0.52167 0.72234 0.22234 0.0400 Uiso
H12_2 H 0.47274 0.69660 0.19660 0.0000 Uiso
N19_2 N 0.75000 0.75000 0.36345 0.0914 Uiso
N20_2 N 0.75000 0.86345 0.25000 0.0914 Uiso
N21_2 N 0.95515 0.54485 0.34364 0.0544 Uiso
N22_2 N 0.95515 0.84364 0.04485 0.0544 Uiso
N23_2 N 0.95515 0.65636 0.45515 0.0544 Uiso
N24_2 N 0.79485 0.90636 0.20515 0.0544 Uiso
N25_2 N 0.84364 0.54485 0.45515 0.0544 Uiso
N26_2 N 0.79485 0.70515 0.40636 0.0544 Uiso
Zn4_9 Zn 1.00000 1.00000 0.00000 0.0747 Uiso
Zn6_2 Zn 0.62500 0.62500 0.12500 0.1037 Uiso
Zn7_2 Zn 0.62500 0.87500 0.37500 0.1037 Uiso
H1_2 H 0.80340 0.80340 0.97274 0.0000 Uiso
H2_2 H 0.69660 0.69660 0.97274 0.0000 Uiso
N13_5 N 0.88655 1.00000 1.00000 0.0914 Uiso
Zn4_10 Zn 1.00000 1.00000 1.00000 0.0747 Uiso
N1_3 N 0.25000 0.25000 0.36345 0.0914 Uiso
N2_3 N 0.29485 0.20515 0.40636 0.0544 Uiso
C1_3 C 0.27766 0.22234 0.47833 0.0400 Uiso
Zn1_3 Zn 0.25000 0.25000 0.25000 0.0747 Uiso
Zn2_3 Zn 0.37500 0.12500 0.37500 0.1037 Uiso
H1_3 H 0.30340 0.19660 0.52726 0.0000 Uiso
N3_3 N 0.20515 0.29485 0.40636 0.0544 Uiso
C2_3 C 0.22234 0.27766 0.47833 0.0400 Uiso
H2_3 H 0.19660 0.30340 0.52726 0.0000 Uiso
N4_3 N 0.36345 0.25000 0.25000 0.0914 Uiso
N5_3 N 0.40636 0.29485 0.20515 0.0544 Uiso
C3_3 C 0.47833 0.27766 0.22234 0.0400 Uiso
Zn3_3 Zn 0.37500 0.37500 0.12500 0.1037 Uiso
H3_3 H 0.52726 0.30340 0.19660 0.0000 Uiso
N6_3 N 0.40636 0.20515 0.29485 0.0544 Uiso
C4_3 C 0.47833 0.22234 0.27766 0.0400 Uiso
H4_3 H 0.52726 0.19660 0.30340 0.0000 Uiso
N7_3 N 0.25000 0.36345 0.25000 0.0914 Uiso
N8_3 N 0.20515 0.40636 0.29485 0.0544 Uiso
C5_3 C 0.22234 0.47833 0.27766 0.0400 Uiso
H5_3 H 0.19660 0.52726 0.30340 0.0000 Uiso
N9_3 N 0.29485 0.40636 0.20515 0.0544 Uiso
C6_3 C 0.27766 0.47833 0.22234 0.0400 Uiso
H6_3 H 0.30340 0.52726 0.19660 0.0000 Uiso
N10_7 N 0.50000 -0.00000 0.38655 0.0914 Uiso
N11_3 N 0.45515 0.04485 0.34364 0.0544 Uiso
C7_3 C 0.47234 0.02766 0.27167 0.0400 Uiso
H7_3 H 0.44660 0.05340 0.22274 0.0000 Uiso
N13_6 N 0.38655 0.00000 0.50000 0.0914 Uiso
N15_3 N 0.34364 0.04485 0.45515 0.0544 Uiso
C10_3 C 0.27167 0.02766 0.47234 0.0400 Uiso
H10_3 H 0.22274 0.05340 0.44660 0.0000 Uiso
N16_3 N 0.13655 0.25000 0.25000 0.0914 Uiso
N17_3 N 0.09364 0.20515 0.20515 0.0544 Uiso
C11_3 C 0.02167 0.22234 0.22234 0.0400 Uiso
N18_3 N 0.09364 0.29485 0.29485 0.0544 Uiso
C12_3 C 0.02167 0.27766 0.27766 0.0400 Uiso
N19_3 N 0.25000 0.25000 0.13655 0.0914 Uiso
N20_3 N 0.25000 0.13655 0.25000 0.0914 Uiso
N21_3 N 0.45515 0.45515 0.15636 0.0544 Uiso
N22_3 N 0.45515 0.15636 0.45515 0.0544 Uiso
N23_3 N 0.45515 0.34364 0.04485 0.0544 Uiso
N24_3 N 0.29485 0.09364 0.29485 0.0544 Uiso
N25_3 N 0.34364 0.45515 0.04485 0.0544 Uiso
N26_3 N 0.29485 0.29485 0.09364 0.0544 Uiso
Zn4_11 Zn 0.50000 -0.00000 0.50000 0.0747 Uiso
N10_8 N 0.50000 1.00000 0.38655 0.0914 Uiso
N12_3 N 0.54485 0.95515 0.34364 0.0544 Uiso
C8_3 C 0.52766 0.97234 0.27167 0.0400 Uiso
H8_3 H 0.55340 0.94660 0.22274 0.0000 Uiso
N13_7 N 0.38655 1.00000 0.50000 0.0914 Uiso
N14_3 N 0.34364 0.95515 0.54485 0.0544 Uiso
C9_3 C 0.27167 0.97234 0.52766 0.0400 Uiso
H9_3 H 0.22274 0.94660 0.55340 0.0000 Uiso
Zn4_12 Zn 0.50000 1.00000 0.50000 0.0747 Uiso
H11_3 H 0.97274 0.19660 0.19660 0.0000 Uiso
H12_3 H 0.97274 0.30340 0.30340 0.0000 Uiso
H11_4 H 0.02726 0.30340 0.69660 0.0000 Uiso
H12_4 H 0.02726 0.19660 0.80340 0.0000 Uiso
H1_4 H 0.69660 0.30340 0.02726 0.0000 Uiso
H2_4 H 0.80340 0.19660 0.02726 0.0000 Uiso
N13_8 N 0.61345 0.50000 0.00000 0.0914 Uiso
N14_4 N 0.65636 0.54485 0.04485 0.0544 Uiso
C9_4 C 0.72833 0.52766 0.02766 0.0400 Uiso
H9_4 H 0.77726 0.55340 0.05340 0.0000 Uiso
Zn4_13 Zn 0.50000 0.50000 -0.00000 0.0747 Uiso
N1_4 N 0.75000 0.25000 0.86345 0.0914 Uiso
N2_4 N 0.70515 0.29485 0.90636 0.0544 Uiso
C1_4 C 0.72234 0.27766 0.97833 0.0400 Uiso
Zn1_4 Zn 0.75000 0.25000 0.75000 0.0747 Uiso
Zn2_4 Zn 0.62500 0.37500 0.87500 0.1037 Uiso
N3_4 N 0.79485 0.20515 0.90636 0.0544 Uiso
C2_4 C 0.77766 0.22234 0.97833 0.0400 Uiso
N4_4 N 0.63655 0.25000 0.75000 0.0914 Uiso
N5_4 N 0.59364 0.20515 0.70515 0.0544 Uiso
C3_4 C 0.52167 0.22234 0.72234 0.0400 Uiso
Zn3_4 Zn 0.62500 0.12500 0.62500 0.1037 Uiso
H3_4 H 0.47274 0.19660 0.69660 0.0000 Uiso
N6_4 N 0.59364 0.29485 0.79485 0.0544 Uiso
C4_4 C 0.52167 0.27766 0.77766 0.0400 Uiso
H4_4 H 0.47274 0.30340 0.80340 0.0000 Uiso
N7_4 N 0.75000 0.13655 0.75000 0.0914 Uiso
N8_4 N 0.79485 0.09364 0.79485 0.0544 Uiso
C5_4 C 0.77766 0.02167 0.77766 0.0400 Uiso
N9_4 N 0.70515 0.09364 0.70515 0.0544 Uiso
C6_4 C 0.72234 0.02167 0.72234 0.0400 Uiso
N10_9 N 0.50000 0.50000 0.88655 0.0914 Uiso
N11_4 N 0.54485 0.45515 0.84364 0.0544 Uiso
C7_4 C 0.52766 0.47234 0.77167 0.0400 Uiso
H7_4 H 0.55340 0.44660 0.72274 0.0000 Uiso
N12_4 N 0.45515 0.54485 0.84364 0.0544 Uiso
C8_4 C 0.47234 0.52766 0.77167 0.0400 Uiso
H8_4 H 0.44660 0.55340 0.72274 0.0000 Uiso
N13_9 N 0.61345 0.50000 1.00000 0.0914 Uiso
N15_4 N 0.65636 0.45515 0.95515 0.0544 Uiso
C10_4 C 0.72833 0.47234 0.97234 0.0400 Uiso
H10_4 H 0.77726 0.44660 0.94660 0.0000 Uiso
N16_4 N 0.86345 0.25000 0.75000 0.0914 Uiso
N17_4 N 0.90636 0.29485 0.70515 0.0544 Uiso
C11_4 C 0.97833 0.27766 0.72234 0.0400 Uiso
N18_4 N 0.90636 0.20515 0.79485 0.0544 Uiso
C12_4 C 0.97833 0.22234 0.77766 0.0400 Uiso
N19_4 N 0.75000 0.25000 0.63655 0.0914 Uiso
N20_4 N 0.75000 0.36345 0.75000 0.0914 Uiso
N21_4 N 0.54485 0.04485 0.65636 0.0544 Uiso
N22_4 N 0.54485 0.34364 0.95515 0.0544 Uiso
N23_4 N 0.54485 0.15636 0.54485 0.0544 Uiso
N24_4 N 0.70515 0.40636 0.79485 0.0544 Uiso
N25_4 N 0.65636 0.04485 0.54485 0.0544 Uiso
N26_4 N 0.70515 0.20515 0.59364 0.0544 Uiso
Zn4_14 Zn 0.50000 0.50000 1.00000 0.0747 Uiso
H5_4 H 0.80340 0.97274 0.80340 0.0000 Uiso
H6_4 H 0.69660 0.97274 0.69660 0.0000 Uiso
N10_10 N 0.61345 -0.00000 0.50000 0.0914 Uiso
C7_5 C 0.72833 0.02766 0.52766 0.0400 Uiso
H7_5 H 0.77726 0.05340 0.55340 0.0000 Uiso
N13_10 N 0.50000 0.11345 0.50000 0.0914 Uiso
C9_5 C 0.47234 0.22833 0.47234 0.0400 Uiso
H9_5 H 0.44660 0.27726 0.44660 0.0000 Uiso
C10_5 C 0.52766 0.22833 0.52766 0.0400 Uiso
H10_5 H 0.55340 0.27726 0.55340 0.0000 Uiso
N17_5 N 0.79485 0.40636 0.70515 0.0544 Uiso
C11_5 C 0.77766 0.47833 0.72234 0.0400 Uiso
H11_5 H 0.80340 0.52726 0.69660 0.0000 Uiso
C12_5 C 0.72234 0.47833 0.77766 0.0400 Uiso
H12_5 H 0.69660 0.52726 0.80340 0.0000 Uiso
N23_5 N 0.95515 0.04485 0.84364 0.0544 Uiso
N25_5 N 0.95515 0.15636 0.95515 0.0544 Uiso
N10_11 N 0.61345 1.00000 0.50000 0.0914 Uiso
N12_5 N 0.65636 0.95515 0.45515 0.0544 Uiso
C8_5 C 0.72833 0.97234 0.47234 0.0400 Uiso
H8_5 H 0.77726 0.94660 0.44660 0.0000 Uiso
N10_12 N 0.11345 0.00000 0.00000 0.0914 Uiso
N12_6 N 0.15636 0.04485 0.04485 0.0544 Uiso
C8_6 C 0.22833 0.02766 0.02766 0.0400 Uiso
H8_6 H 0.27726 0.05340 0.05340 0.0000 Uiso
N10_13 N 0.11345 0.00000 1.00000 0.0914 Uiso
N10_14 N 0.11345 1.00000 0.00000 0.0914 Uiso
N13_11 N -0.00000 0.88655 -0.00000 0.0914 Uiso
N10_15 N 0.11345 1.00000 1.00000 0.0914 Uiso
C7_6 C 0.22833 0.97234 0.97234 0.0400 Uiso
H7_6 H 0.27726 0.94660 0.94660 0.0000 Uiso
N13_12 N -0.00000 0.88655 1.00000 0.0914 Uiso
C10_6 C 0.02766 0.77167 0.97234 0.0400 Uiso
H10_6 H 0.05340 0.72274 0.94660 0.0000 Uiso
N17_6 N 0.29485 0.59364 0.79485 0.0544 Uiso
C11_6 C 0.27766 0.52167 0.77766 0.0400 Uiso
H11_6 H 0.30340 0.47274 0.80340 0.0000 Uiso
C12_6 C 0.22234 0.52167 0.72234 0.0400 Uiso
H12_6 H 0.19660 0.47274 0.69660 0.0000 Uiso
N23_6 N 0.45515 0.95515 0.65636 0.0544 Uiso
N25_6 N 0.45515 0.84364 0.54485 0.0544 Uiso
N13_13 N 1.00000 0.88655 -0.00000 0.0914 Uiso
C9_6 C 0.97234 0.77167 0.02766 0.0400 Uiso
H9_6 H 0.94660 0.72274 0.05340 0.0000 Uiso
N13_14 N 1.00000 0.88655 1.00000 0.0914 Uiso
N10_16 N 0.38655 0.50000 -0.00000 0.0914 Uiso
C7_7 C 0.27167 0.47234 0.02766 0.0400 Uiso
H7_7 H 0.22274 0.44660 0.05340 0.0000 Uiso
N13_15 N 0.50000 0.38655 0.00000 0.0914 Uiso
C10_7 C 0.47234 0.27167 0.02766 0.0400 Uiso
H10_7 H 0.44660 0.22274 0.05340 0.0000 Uiso
N17_7 N 0.20515 0.09364 0.20515 0.0544 Uiso
C11_7 C 0.22234 0.02167 0.22234 0.0400 Uiso
C12_7 C 0.27766 0.02167 0.27766 0.0400 Uiso
N23_7 N 0.04485 0.45515 0.34364 0.0544 Uiso
N25_7 N 0.04485 0.34364 0.45515 0.0544 Uiso
N10_17 N 0.38655 0.50000 1.00000 0.0914 Uiso
N12_7 N 0.34364 0.54485 0.95515 0.0544 Uiso
C8_7 C 0.27167 0.52766 0.97234 0.0400 Uiso
H8_7 H 0.22274 0.55340 0.94660 0.0000 Uiso
N13_16 N 0.50000 0.38655 1.00000 0.0914 Uiso
C9_7 C 0.52766 0.27167 0.97234 0.0400 Uiso
H9_7 H 0.55340 0.22274 0.94660 0.0000 Uiso
H11_7 H 0.19660 0.97274 0.19660 0.0000 Uiso
H12_7 H 0.30340 0.97274 0.30340 0.0000 Uiso
N13_17 N -0.00000 0.61345 0.50000 0.0914 Uiso
C9_8 C 0.02766 0.72833 0.52766 0.0400 Uiso
H9_8 H 0.05340 0.77726 0.55340 0.0000 Uiso
H11_8 H 0.69660 0.02726 0.30340 0.0000 Uiso
H12_8 H 0.80340 0.02726 0.19660 0.0000 Uiso
N10_18 N 0.88655 0.50000 0.50000 0.0914 Uiso
C7_8 C 0.77167 0.52766 0.47234 0.0400 Uiso
H7_8 H 0.72274 0.55340 0.44660 0.0000 Uiso
N12_8 N 0.84364 0.45515 0.54485 0.0544 Uiso
C8_8 C 0.77167 0.47234 0.52766 0.0400 Uiso
H8_8 H 0.72274 0.44660 0.55340 0.0000 Uiso
N13_18 N 1.00000 0.61345 0.50000 0.0914 Uiso
C10_8 C 0.97234 0.72833 0.47234 0.0400 Uiso
H10_8 H 0.94660 0.77726 0.44660 0.0000 Uiso
N17_8 N 0.70515 0.90636 0.29485 0.0544 Uiso
C11_8 C 0.72234 0.97833 0.27766 0.0400 Uiso
C12_8 C 0.77766 0.97833 0.22234 0.0400 Uiso
N23_8 N 0.54485 0.54485 0.15636 0.0544 Uiso
N25_8 N 0.54485 0.65636 0.04485 0.0544 Uiso
N10_19 N 0.50000 0.61345 -0.00000 0.0914 Uiso
C7_9 C 0.52766 0.72833 0.02766 0.0400 Uiso
H7_9 H 0.55340 0.77726 0.05340 0.0000 Uiso
N13_19 N 0.50000 0.50000 0.11345 0.0914 Uiso
C9_9 C 0.47234 0.47234 0.22833 0.0400 Uiso
H9_9 H 0.44660 0.44660 0.27726 0.0000 Uiso
C10_9 C 0.52766 0.52766 0.22833 0.0400 Uiso
H10_9 H 0.55340 0.55340 0.27726 0.0000 Uiso
N17_9 N 0.70515 0.79485 0.40636 0.0544 Uiso
C11_9 C 0.72234 0.77766 0.47833 0.0400 Uiso
H11_9 H 0.69660 0.80340 0.52726 0.0000 Uiso
C12_9 C 0.77766 0.72234 0.47833 0.0400 Uiso
H12_9 H 0.80340 0.69660 0.52726 0.0000 Uiso
N10_20 N 0.50000 0.61345 1.00000 0.0914 Uiso
N12_9 N 0.45515 0.65636 0.95515 0.0544 Uiso
C8_9 C 0.47234 0.72833 0.97234 0.0400 Uiso
H8_9 H 0.44660 0.77726 0.94660 0.0000 Uiso
N10_21 N 0.00000 0.11345 0.00000 0.0914 Uiso
N12_10 N 0.04485 0.15636 0.04485 0.0544 Uiso
C8_10 C 0.02766 0.22833 0.02766 0.0400 Uiso
H8_10 H 0.05340 0.27726 0.05340 0.0000 Uiso
N10_22 N 0.00000 0.11345 1.00000 0.0914 Uiso
N13_20 N -0.00000 -0.00000 0.88655 0.0914 Uiso
N13_21 N -0.00000 1.00000 0.88655 0.0914 Uiso
C9_10 C 0.02766 0.97234 0.77167 0.0400 Uiso
H9_10 H 0.05340 0.94660 0.72274 0.0000 Uiso
N10_23 N 1.00000 0.11345 0.00000 0.0914 Uiso
N10_24 N 1.00000 0.11345 1.00000 0.0914 Uiso
C7_10 C 0.97234 0.22833 0.97234 0.0400 Uiso
H7_10 H 0.94660 0.27726 0.94660 0.0000 Uiso
N13_22 N 1.00000 -0.00000 0.88655 0.0914 Uiso
C10_10 C 0.97234 0.02766 0.77167 0.0400 Uiso
H10_10 H 0.94660 0.05340 0.72274 0.0000 Uiso
N17_10 N 0.79485 0.29485 0.59364 0.0544 Uiso
C11_10 C 0.77766 0.27766 0.52167 0.0400 Uiso
H11_10 H 0.80340 0.30340 0.47274 0.0000 Uiso
C12_10 C 0.72234 0.22234 0.52167 0.0400 Uiso
H12_10 H 0.69660 0.19660 0.47274 0.0000 Uiso
N13_23 N 1.00000 1.00000 0.88655 0.0914 Uiso
N10_25 N -0.00000 0.38655 0.50000 0.0914 Uiso
C7_11 C 0.02766 0.27167 0.47234 0.0400 Uiso
H7_11 H 0.05340 0.22274 0.44660 0.0000 Uiso
N13_24 N 0.00000 0.50000 0.38655 0.0914 Uiso
C10_11 C 0.02766 0.47234 0.27167 0.0400 Uiso
H10_11 H 0.05340 0.44660 0.22274 0.0000 Uiso
N17_11 N 0.20515 0.20515 0.09364 0.0544 Uiso
C11_11 C 0.22234 0.22234 0.02167 0.0400 Uiso
C12_11 C 0.27766 0.27766 0.02167 0.0400 Uiso
H11_11 H 0.19660 0.19660 0.97274 0.0000 Uiso
H12_11 H 0.30340 0.30340 0.97274 0.0000 Uiso
N10_26 N 1.00000 0.38655 0.50000 0.0914 Uiso
N12_11 N 0.95515 0.34364 0.54485 0.0544 Uiso
C8_11 C 0.97234 0.27167 0.52766 0.0400 Uiso
H8_11 H 0.94660 0.22274 0.55340 0.0000 Uiso
N13_25 N 1.00000 0.50000 0.38655 0.0914 Uiso
C9_11 C 0.97234 0.52766 0.27167 0.0400 Uiso
H9_11 H 0.94660 0.55340 0.22274 0.0000 Uiso
N13_26 N 0.50000 0.00000 0.61345 0.0914 Uiso
C9_12 C 0.52766 0.02766 0.72833 0.0400 Uiso
H9_12 H 0.55340 0.05340 0.77726 0.0000 Uiso
H11_12 H 0.30340 0.69660 0.02726 0.0000 Uiso
H12_12 H 0.19660 0.80340 0.02726 0.0000 Uiso
N10_27 N 0.50000 0.88655 0.50000 0.0914 Uiso
C7_12 C 0.47234 0.77167 0.52766 0.0400 Uiso
H7_12 H 0.44660 0.72274 0.55340 0.0000 Uiso
N12_12 N 0.54485 0.84364 0.45515 0.0544 Uiso
C8_12 C 0.52766 0.77167 0.47234 0.0400 Uiso
H8_12 H 0.55340 0.72274 0.44660 0.0000 Uiso
N13_27 N 0.50000 1.00000 0.61345 0.0914 Uiso
C10_12 C 0.47234 0.97234 0.72833 0.0400 Uiso
H10_12 H 0.44660 0.94660 0.77726 0.0000 Uiso
N17_12 N 0.29485 0.70515 0.90636 0.0544 Uiso
C11_12 C 0.27766 0.72234 0.97833 0.0400 Uiso
C12_12 C 0.22234 0.77766 0.97833 0.0400 Uiso
loop_
_geom_bond_atom_site_label_1
_geom_bond_atom_site_label_2
_geom_bond_site_symmetry_1
_geom_bond_site_symmetry_2
N1 N2 1_555 1_555
N2 C1 1_555 1_555
C1 H1 1_555 1_555
Zn1 N1 1_555 1_555
Zn2 N2 1_555 1_555
N3 N1 1_555 1_555
C2 C1 1_555 1_555
H2 C2 1_555 1_555
N4 Zn1 1_555 1_555
N5 N4 1_555 1_555
C3 N5 1_555 1_555
Zn3 N5 1_555 1_555
N6 Zn2 1_555 1_555
C4 C3 1_555 1_555
N7 Zn1 1_555 1_555
N8 N7 1_555 1_555
C5 N8 1_555 1_555
N9 Zn3 1_555 1_555
C6 C5 1_555 1_555
N10 N11 1_555 1_555
N11 Zn2 1_555 1_555
C7 N11 1_555 1_555
H7 C7 1_555 1_555
N13 N14 1_555 1_555
N14 C9 1_555 1_555
C9 H9 1_555 1_555
N15 Zn2 1_555 1_555
C10 C9 1_555 1_555
H10 C10 1_555 1_555
N16 Zn1 1_555 1_555
N17 N16 1_555 1_555
C11 N17 1_555 1_555
H11 C11 1_555 1_555
N18 N16 1_555 1_555
C12 C11 1_555 1_555
H12 C12 1_555 1_555
N19 Zn1 1_555 1_555
N20 Zn1 1_555 1_555
N21 Zn3 1_555 1_555
N22 Zn2 1_555 1_555
N23 Zn3 1_555 1_555
N24 Zn2 1_555 1_555
N25 Zn3 1_555 1_555
N26 Zn3 1_555 1_555
Zn4 N10 1_555 1_555
Zn5 N14 1_555 1_555
Zn6 N3 1_555 1_555
Zn7 N17 1_555 1_555
N3 C2 1_555 1_555
N4 N6 1_555 1_555
N6 C4 1_555 1_555
N7 N9 1_555 1_555
N8 Zn6 1_555 1_555
N9 C6 1_555 1_555
N13 N15 1_555 1_555
N13 Zn4 1_555 1_555
N15 C10 1_555 1_555
N18 C12 1_555 1_555
N18 Zn6 1_555 1_555
N19 N26 1_555 1_555
N20 N24 1_555 1_555
N12 N10_2 1_555 1_555
H8 C8 1_555 1_555
Zn4_2 N10_2 1_555 1_555
Zn8 N12 1_555 1_555
N12 C8 1_555 1_555
N12_2 N10_3 1_555 1_555
H8_2 C8_2 1_555 1_555
Zn4_3 N10_3 1_555 1_555
Zn8_2 N12_2 1_555 1_555
N12_2 C8_2 1_555 1_555
Zn4_5 N10_4 1_555 1_555
Zn4_7 N10_5 1_555 1_555
N13_2 Zn4_7 1_555 1_555
N13_3 N14_2 1_555 1_555
N14_2 C9_2 1_555 1_555
C9_2 H9_2 1_555 1_555
Zn5_2 N14_2 1_555 1_555
N13_3 Zn4_8 1_555 1_555
N1_2 N2_2 1_555 1_555
N2_2 C1_2 1_555 1_555
Zn1_2 N1_2 1_555 1_555
Zn2_2 N2_2 1_555 1_555
N3_2 N1_2 1_555 1_555
C2_2 C1_2 1_555 1_555
N4_2 Zn1_2 1_555 1_555
N5_2 N4_2 1_555 1_555
C3_2 N5_2 1_555 1_555
Zn3_2 N5_2 1_555 1_555
N6_2 Zn2_2 1_555 1_555
C4_2 C3_2 1_555 1_555
N7_2 Zn1_2 1_555 1_555
N8_2 N7_2 1_555 1_555
C5_2 N8_2 1_555 1_555
H5_2 C5_2 1_555 1_555
N9_2 Zn3_2 1_555 1_555
C6_2 C5_2 1_555 1_555
H6_2 C6_2 1_555 1_555
N10_6 N11_2 1_555 1_555
N11_2 Zn2_2 1_555 1_555
C7_2 N11_2 1_555 1_555
H7_2 C7_2 1_555 1_555
N15_2 Zn2_2 1_555 1_555
H10_2 C10_2 1_555 1_555
N16_2 Zn1_2 1_555 1_555
N17_2 N16_2 1_555 1_555
C11_2 N17_2 1_555 1_555
H11_2 C11_2 1_555 1_555
N18_2 N16_2 1_555 1_555
C12_2 C11_2 1_555 1_555
H12_2 C12_2 1_555 1_555
N19_2 Zn1_2 1_555 1_555
N20_2 Zn1_2 1_555 1_555
N21_2 Zn3_2 1_555 1_555
N22_2 Zn2_2 1_555 1_555
N23_2 Zn3_2 1_555 1_555
N24_2 Zn2_2 1_555 1_555
N25_2 Zn3_2 1_555 1_555
N26_2 Zn3_2 1_555 1_555
Zn4_9 N10_6 1_555 1_555
Zn6_2 N3_2 1_555 1_555
Zn7_2 N17_2 1_555 1_555
N3_2 C2_2 1_555 1_555
N4_2 N6_2 1_555 1_555
N6_2 C4_2 1_555 1_555
N7_2 N9_2 1_555 1_555
N8_2 Zn6_2 1_555 1_555
N9_2 C6_2 1_555 1_555
N13_4 N15_2 1_555 1_555
N13_4 Zn4_9 1_555 1_555
N15_2 C10_2 1_555 1_555
N18_2 C12_2 1_555 1_555
N18_2 Zn6_2 1_555 1_555
N19_2 N26_2 1_555 1_555
N20_2 N24_2 1_555 1_555
N13_5 Zn4_10 1_555 1_555
N1_3 N2_3 1_555 1_555
N2_3 C1_3 1_555 1_555
C1_3 H1_3 1_555 1_555
Zn1_3 N1_3 1_555 1_555
Zn2_3 N2_3 1_555 1_555
N3_3 N1_3 1_555 1_555
C2_3 C1_3 1_555 1_555
H2_3 C2_3 1_555 1_555
N4_3 Zn1_3 1_555 1_555
N5_3 N4_3 1_555 1_555
C3_3 N5_3 1_555 1_555
Zn3_3 N5_3 1_555 1_555
H3_3 C3_3 1_555 1_555
N6_3 Zn2_3 1_555 1_555
C4_3 C3_3 1_555 1_555
H4_3 C4_3 1_555 1_555
N7_3 Zn1_3 1_555 1_555
N8_3 N7_3 1_555 1_555
C5_3 N8_3 1_555 1_555
H5_3 C5_3 1_555 1_555
N9_3 Zn3_3 1_555 1_555
C6_3 C5_3 1_555 1_555
H6_3 C6_3 1_555 1_555
N10_7 N11_3 1_555 1_555
N11_3 Zn2_3 1_555 1_555
C7_3 N11_3 1_555 1_555
H7_3 C7_3 1_555 1_555
N15_3 Zn2_3 1_555 1_555
H10_3 C10_3 1_555 1_555
N16_3 Zn1_3 1_555 1_555
N17_3 N16_3 1_555 1_555
C11_3 N17_3 1_555 1_555
N18_3 N16_3 1_555 1_555
C12_3 C11_3 1_555 1_555
N19_3 Zn1_3 1_555 1_555
N20_3 Zn1_3 1_555 1_555
N21_3 Zn3_3 1_555 1_555
N22_3 Zn2_3 1_555 1_555
N23_3 Zn3_3 1_555 1_555
N24_3 Zn2_3 1_555 1_555
N25_3 Zn3_3 1_555 1_555
N26_3 Zn3_3 1_555 1_555
Zn4_11 N10_7 1_555 1_555
Zn5 N3_3 1_555 1_555
Zn8_2 N17_3 1_555 1_555
N3_3 C2_3 1_555 1_555
N4_3 N6_3 1_555 1_555
N6_3 C4_3 1_555 1_555
N7_3 N9_3 1_555 1_555
N8_3 Zn5 1_555 1_555
N9_3 C6_3 1_555 1_555
N13_6 N15_3 1_555 1_555
N13_6 Zn4_11 1_555 1_555
N15_3 C10_3 1_555 1_555
N18_3 C12_3 1_555 1_555
N18_3 Zn5 1_555 1_555
N19_3 N26_3 1_555 1_555
N20_3 N24_3 1_555 1_555
N12_3 N10_8 1_555 1_555
H8_3 C8_3 1_555 1_555
N13_7 N14_3 1_555 1_555
N14_3 C9_3 1_555 1_555
C9_3 H9_3 1_555 1_555
Zn4_12 N10_8 1_555 1_555
Zn6 N14_3 1_555 1_555
Zn7_2 N12_3 1_555 1_555
N12_3 C8_3 1_555 1_555
N13_7 Zn4_12 1_555 1_555
N13_8 N14_4 1_555 1_555
N14_4 C9_4 1_555 1_555
C9_4 H9_4 1_555 1_555
Zn6_2 N14_4 1_555 1_555
N13_8 Zn4_13 1_555 1_555
N1_4 N2_4 1_555 1_555
N2_4 C1_4 1_555 1_555
Zn1_4 N1_4 1_555 1_555
Zn2_4 N2_4 1_555 1_555
N3_4 N1_4 1_555 1_555
C2_4 C1_4 1_555 1_555
N4_4 Zn1_4 1_555 1_555
N5_4 N4_4 1_555 1_555
C3_4 N5_4 1_555 1_555
Zn3_4 N5_4 1_555 1_555
H3_4 C3_4 1_555 1_555
N6_4 Zn2_4 1_555 1_555
C4_4 C3_4 1_555 1_555
H4_4 C4_4 1_555 1_555
N7_4 Zn1_4 1_555 1_555
N8_4 N7_4 1_555 1_555
C5_4 N8_4 1_555 1_555
N9_4 Zn3_4 1_555 1_555
C6_4 C5_4 1_555 1_555
N10_9 N11_4 1_555 1_555
N11_4 Zn2_4 1_555 1_555
C7_4 N11_4 1_555 1_555
H7_4 C7_4 1_555 1_555
N12_4 N10_9 1_555 1_555
C8_4 C7_4 1_555 1_555
H8_4 C8_4 1_555 1_555
N15_4 Zn2_4 1_555 1_555
H10_4 C10_4 1_555 1_555
N16_4 Zn1_4 1_555 1_555
N17_4 N16_4 1_555 1_555
C11_4 N17_4 1_555 1_555
N18_4 N16_4 1_555 1_555
C12_4 C11_4 1_555 1_555
N19_4 Zn1_4 1_555 1_555
N20_4 Zn1_4 1_555 1_555
N21_4 Zn3_4 1_555 1_555
N22_4 Zn2_4 1_555 1_555
N23_4 Zn3_4 1_555 1_555
N24_4 Zn2_4 1_555 1_555
N25_4 Zn3_4 1_555 1_555
N26_4 Zn3_4 1_555 1_555
Zn4_14 N10_9 1_555 1_555
Zn5_2 N3_4 1_555 1_555
Zn8 N17_4 1_555 1_555
Zn7 N12_4 1_555 1_555
N3_4 C2_4 1_555 1_555
N4_4 N6_4 1_555 1_555
N6_4 C4_4 1_555 1_555
N7_4 N9_4 1_555 1_555
N8_4 Zn5_2 1_555 1_555
N9_4 C6_4 1_555 1_555
N12_4 C8_4 1_555 1_555
N13_9 N15_4 1_555 1_555
N13_9 Zn4_14 1_555 1_555
N15_4 C10_4 1_555 1_555
N18_4 C12_4 1_555 1_555
N18_4 Zn5_2 1_555 1_555
N19_4 N26_4 1_555 1_555
N20_4 N24_4 1_555 1_555
N10_10 N25_4 1_555 1_555
C7_5 N25_4 1_555 1_555
H7_5 C7_5 1_555 1_555
N13_10 N22_3 1_555 1_555
N22_3 C9_5 1_555 1_555
C9_5 H9_5 1_555 1_555
C10_5 C9_5 1_555 1_555
H10_5 C10_5 1_555 1_555
N17_5 N20_4 1_555 1_555
C11_5 N17_5 1_555 1_555
H11_5 C11_5 1_555 1_555
C12_5 C11_5 1_555 1_555
H12_5 C12_5 1_555 1_555
N23_5 Zn5_2 1_555 1_555
N25_5 Zn5_2 1_555 1_555
Zn4_11 N10_10 1_555 1_555
Zn8 N17_5 1_555 1_555
N13_10 N23_4 1_555 1_555
N13_10 Zn4_11 1_555 1_555
N23_4 C10_5 1_555 1_555
N24_4 C12_5 1_555 1_555
N12_5 N10_11 1_555 1_555
H8_5 C8_5 1_555 1_555
Zn4_12 N10_11 1_555 1_555
Zn7_2 N12_5 1_555 1_555
N12_5 C8_5 1_555 1_555
N12_6 N10_12 1_555 1_555
H8_6 C8_6 1_555 1_555
Zn4_3 N10_12 1_555 1_555
Zn8_2 N12_6 1_555 1_555
N12_6 C8_6 1_555 1_555
Zn4_4 N10_13 1_555 1_555
Zn4_5 N10_14 1_555 1_555
N13_11 Zn4_5 1_555 1_555
N10_15 N25 1_555 1_555
C7_6 N25 1_555 1_555
H7_6 C7_6 1_555 1_555
H10_6 C10_6 1_555 1_555
N17_6 N20 1_555 1_555
C11_6 N17_6 1_555 1_555
H11_6 C11_6 1_555 1_555
C12_6 C11_6 1_555 1_555
H12_6 C12_6 1_555 1_555
N23_6 Zn6 1_555 1_555
N25_6 Zn6 1_555 1_555
Zn4_6 N10_15 1_555 1_555
Zn7 N17_6 1_555 1_555
N13_12 N23 1_555 1_555
N13_12 Zn4_6 1_555 1_555
N23 C10_6 1_555 1_555
N24 C12_6 1_555 1_555
N13_13 N22_2 1_555 1_555
N22_2 C9_6 1_555 1_555
C9_6 H9_6 1_555 1_555
N13_13 Zn4_9 1_555 1_555
N13_14 Zn4_10 1_555 1_555
N10_16 N25_3 1_555 1_555
C7_7 N25_3 1_555 1_555
H7_7 C7_7 1_555 1_555
H10_7 C10_7 1_555 1_555
N17_7 N20_3 1_555 1_555
C11_7 N17_7 1_555 1_555
C12_7 C11_7 1_555 1_555
N23_7 Zn5 1_555 1_555
N25_7 Zn5 1_555 1_555
Zn4_13 N10_16 1_555 1_555
Zn8_2 N17_7 1_555 1_555
N13_15 N23_3 1_555 1_555
N13_15 Zn4_13 1_555 1_555
N23_3 C10_7 1_555 1_555
N24_3 C12_7 1_555 1_555
N12_7 N10_17 1_555 1_555
H8_7 C8_7 1_555 1_555
N13_16 N22_4 1_555 1_555
N22_4 C9_7 1_555 1_555
C9_7 H9_7 1_555 1_555
Zn4_14 N10_17 1_555 1_555
Zn7 N12_7 1_555 1_555
N12_7 C8_7 1_555 1_555
N13_16 Zn4_14 1_555 1_555
N13_17 N22 1_555 1_555
N22 C9_8 1_555 1_555
C9_8 H9_8 1_555 1_555
N13_17 Zn4 1_555 1_555
N10_18 N25_2 1_555 1_555
C7_8 N25_2 1_555 1_555
H7_8 C7_8 1_555 1_555
N12_8 N10_18 1_555 1_555
C8_8 C7_8 1_555 1_555
H8_8 C8_8 1_555 1_555
H10_8 C10_8 1_555 1_555
N17_8 N20_2 1_555 1_555
C11_8 N17_8 1_555 1_555
C12_8 C11_8 1_555 1_555
N23_8 Zn6_2 1_555 1_555
N25_8 Zn6_2 1_555 1_555
Zn4_2 N10_18 1_555 1_555
Zn7_2 N17_8 1_555 1_555
Zn8 N12_8 1_555 1_555
N12_8 C8_8 1_555 1_555
N13_18 N23_2 1_555 1_555
N13_18 Zn4_2 1_555 1_555
N23_2 C10_8 1_555 1_555
N24_2 C12_8 1_555 1_555
N10_19 N25_8 1_555 1_555
C7_9 N25_8 1_555 1_555
H7_9 C7_9 1_555 1_555
N13_19 N21_3 1_555 1_555
N21_3 C9_9 1_555 1_555
C9_9 H9_9 1_555 1_555
C10_9 C9_9 1_555 1_555
H10_9 C10_9 1_555 1_555
N17_9 N19_2 1_555 1_555
C11_9 N17_9 1_555 1_555
H11_9 C11_9 1_555 1_555
C12_9 C11_9 1_555 1_555
H12_9 C12_9 1_555 1_555
Zn4_13 N10_19 1_555 1_555
Zn7_2 N17_9 1_555 1_555
N13_19 N23_8 1_555 1_555
N13_19 Zn4_13 1_555 1_555
N23_8 C10_9 1_555 1_555
N26_2 C12_9 1_555 1_555
N12_9 N10_20 1_555 1_555
H8_9 C8_9 1_555 1_555
Zn4_14 N10_20 1_555 1_555
Zn7 N12_9 1_555 1_555
N12_9 C8_9 1_555 1_555
N12_10 N10_21 1_555 1_555
H8_10 C8_10 1_555 1_555
Zn4_3 N10_21 1_555 1_555
Zn8_2 N12_10 1_555 1_555
N12_10 C8_10 1_555 1_555
Zn4_4 N10_22 1_555 1_555
N13_20 Zn4_4 1_555 1_555
N13_21 N21 1_555 1_555
N21 C9_10 1_555 1_555
C9_10 H9_10 1_555 1_555
N13_21 Zn4_6 1_555 1_555
Zn4_7 N10_23 1_555 1_555
N10_24 N25_5 1_555 1_555
C7_10 N25_5 1_555 1_555
H7_10 C7_10 1_555 1_555
H10_10 C10_10 1_555 1_555
N17_10 N19_4 1_555 1_555
C11_10 N17_10 1_555 1_555
H11_10 C11_10 1_555 1_555
C12_10 C11_10 1_555 1_555
H12_10 C12_10 1_555 1_555
Zn4_8 N10_24 1_555 1_555
Zn8 N17_10 1_555 1_555
N13_22 N23_5 1_555 1_555
N13_22 Zn4_8 1_555 1_555
N23_5 C10_10 1_555 1_555
N26_4 C12_10 1_555 1_555
N13_23 Zn4_10 1_555 1_555
N10_25 N25_7 1_555 1_555
C7_11 N25_7 1_555 1_555
H7_11 C7_11 1_555 1_555
H10_11 C10_11 1_555 1_555
N17_11 N19_3 1_555 1_555
C11_11 N17_11 1_555 1_555
C12_11 C11_11 1_555 1_555
Zn4 N10_25 1_555 1_555
Zn8_2 N17_11 1_555 1_555
N13_24 N23_7 1_555 1_555
N13_24 Zn4 1_555 1_555
N23_7 C10_11 1_555 1_555
N26_3 C12_11 1_555 1_555
N12_11 N10_26 1_555 1_555
H8_11 C8_11 1_555 1_555
N13_25 N21_2 1_555 1_555
N21_2 C9_11 1_555 1_555
C9_11 H9_11 1_555 1_555
Zn4_2 N10_26 1_555 1_555
Zn8 N12_11 1_555 1_555
N12_11 C8_11 1_555 1_555
N13_25 Zn4_2 1_555 1_555
N13_26 N21_4 1_555 1_555
N21_4 C9_12 1_555 1_555
C9_12 H9_12 1_555 1_555
N13_26 Zn4_11 1_555 1_555
N10_27 N25_6 1_555 1_555
C7_12 N25_6 1_555 1_555
H7_12 C7_12 1_555 1_555
N12_12 N10_27 1_555 1_555
C8_12 C7_12 1_555 1_555
H8_12 C8_12 1_555 1_555
H10_12 C10_12 1_555 1_555
N17_12 N19 1_555 1_555
C11_12 N17_12 1_555 1_555
C12_12 C11_12 1_555 1_555
Zn4_12 N10_27 1_555 1_555
Zn7 N17_12 1_555 1_555
Zn7_2 N12_12 1_555 1_555
N12_12 C8_12 1_555 1_555
N13_27 N23_6 1_555 1_555
N13_27 Zn4_12 1_555 1_555
N23_6 C10_12 1_555 1_555
N26 C12_12 1_555 1_555

#END
