
###############################################################################
#
# This file contains modified crystal structure data generated from the
# MOF subset of the Cambridge Structural Database (CSD) v543 
# hosted by the Cambridge Crystallographic Data Centre (CCDC).
#
# This work is licensed under the Creative Commons
# Attribution-NonCommercial-ShareAlike 4.0 International License.
# To view a copy of this license, visit
# http://creativecommons.org/licenses/by-nc-sa/4.0/
# or send a letter to
# Creative Commons, PO Box 1866, Mountain View, CA 94042, USA.
#
# CIF created using the CSD Python API on 29 September 2022
# The structure has been converted into the P1 space group
# The structure has a 3D framework
# The original CSD entry VUZREQ is in the cubic crystal system
# The framework has been calculated to contain at least 10.0% void space
# The void calculation uses a probe of radius 1.32A, grid spacing 0.4
#
###############################################################################

data_VUZREQ
_chemical_formula_moiety         '(C96 H96 Mg23 N138)n'
_symmetry_cell_setting           triclinic
_symmetry_space_group_name_H-M   'P 1'
_symmetry_Int_Tables_number      1
_space_group_name_Hall           'P 1'
loop_
_symmetry_equiv_pos_site_id
_symmetry_equiv_pos_as_xyz
1 x,y,z
_cell_length_a                   16.5510
_cell_length_b                   16.5510
_cell_length_c                   16.5510
_cell_angle_alpha                90
_cell_angle_beta                 90
_cell_angle_gamma                90
_cell_volume                     4533.91
loop_
_atom_site_label
_atom_site_type_symbol
_atom_site_fract_x
_atom_site_fract_y
_atom_site_fract_z
_atom_site_U_iso_or_equiv
_atom_site_thermal_displace_type
Mg8 Mg -0.00000 0.50000 0.50000 0.0000 Uiso
Mg1 Mg 0.75000 0.25000 0.50000 0.0000 Uiso
N1 N 0.67071 0.29512 0.57929 0.0000 Uiso
C1 C 0.65424 0.37302 0.59576 0.0000 Uiso
N2 N 0.62500 0.24966 0.62500 0.0000 Uiso
H1 H 0.68251 0.42473 0.56749 0.0000 Uiso
Mg2 Mg 0.62500 0.12500 0.62500 0.0000 Uiso
N3 N 0.67071 0.17071 0.45488 0.0000 Uiso
N4 N 0.79512 0.17071 0.57929 0.0000 Uiso
N5 N 0.70488 0.32929 0.42071 0.0000 Uiso
N6 N 0.82929 0.32929 0.54512 0.0000 Uiso
N7 N 0.82929 0.20488 0.42071 0.0000 Uiso
N8 N 0.62500 0.12500 0.50034 0.0000 Uiso
C2 C 0.87302 0.15424 0.59576 0.0000 Uiso
N9 N 0.74966 0.12500 0.62500 0.0000 Uiso
C3 C 0.62698 0.34576 0.40424 0.0000 Uiso
N10 N 0.75034 0.37500 0.37500 0.0000 Uiso
C4 C 0.84576 0.34576 0.62302 0.0000 Uiso
N11 N 0.87500 0.37500 0.49966 0.0000 Uiso
C5 C 0.59576 0.37302 0.65424 0.0000 Uiso
N12 N 0.57929 0.29512 0.67071 0.0000 Uiso
H2 H 0.92473 0.18251 0.56749 0.0000 Uiso
C6 C 0.87302 0.09576 0.65424 0.0000 Uiso
N13 N 0.79512 0.07929 0.67071 0.0000 Uiso
H3 H 0.57527 0.31749 0.43251 0.0000 Uiso
C7 C 0.62698 0.40424 0.34576 0.0000 Uiso
N14 N 0.70488 0.42071 0.32929 0.0000 Uiso
Mg3 Mg 0.87500 0.37500 0.37500 0.0000 Uiso
H4 H 0.81749 0.31749 0.67473 0.0000 Uiso
C8 C 0.90424 0.40424 0.62302 0.0000 Uiso
N15 N 0.92071 0.42071 0.54512 0.0000 Uiso
H5 H 0.56749 0.42473 0.68251 0.0000 Uiso
Mg4 Mg 0.50000 0.25000 0.75000 0.0000 Uiso
N16 N 0.50034 0.12500 0.62500 0.0000 Uiso
N17 N 0.62500 0.12500 0.74966 0.0000 Uiso
N18 N 0.62500 0.00034 0.62500 0.0000 Uiso
Mg5 Mg 0.50000 0.00000 0.50000 0.0000 Uiso
H6 H 0.92473 0.06749 0.68251 0.0000 Uiso
Mg6 Mg 0.75000 0.00000 0.75000 0.0000 Uiso
H7 H 0.57527 0.43251 0.31749 0.0000 Uiso
Mg7 Mg 0.75000 0.50000 0.25000 0.0000 Uiso
H8 H 0.93251 0.43251 0.67473 0.0000 Uiso
Mg8_2 Mg 1.00000 0.50000 0.50000 0.0000 Uiso
N19 N 0.45488 0.17071 0.67071 0.0000 Uiso
N20 N 0.57929 0.17071 0.79512 0.0000 Uiso
N21 N 0.45488 0.07929 0.57929 0.0000 Uiso
N22 N 0.67071 0.07929 0.79512 0.0000 Uiso
N26 N 0.82929 0.04512 0.82929 0.0000 Uiso
C9 C 0.37698 0.15424 0.65424 0.0000 Uiso
C10 C 0.59576 0.15424 0.87302 0.0000 Uiso
C11 C 0.37698 0.09576 0.59576 0.0000 Uiso
C12 C 0.65424 0.09576 0.87302 0.0000 Uiso
H9 H 0.32527 0.18251 0.68251 0.0000 Uiso
H10 H 0.56749 0.18251 0.92473 0.0000 Uiso
H11 H 0.32527 0.06749 0.56749 0.0000 Uiso
H12 H 0.68251 0.06749 0.92473 0.0000 Uiso
Mg5_2 Mg 0.50000 1.00000 0.50000 0.0000 Uiso
Mg6_2 Mg 0.75000 1.00000 0.75000 0.0000 Uiso
N23 N 0.67071 0.95488 0.67071 0.0000 Uiso
N24 N 0.70488 0.92071 0.82929 0.0000 Uiso
N25 N 0.82929 0.92071 0.70488 0.0000 Uiso
Mg1_2 Mg -0.00000 0.00000 0.00000 0.0000 Uiso
N2_2 N 0.12500 0.00034 0.12500 0.0000 Uiso
Mg2_2 Mg 0.12500 0.12500 0.12500 0.0000 Uiso
N8_2 N 0.12500 0.12500 0.00034 0.0000 Uiso
N9_2 N 0.00034 0.12500 0.12500 0.0000 Uiso
Mg4_2 Mg 0.25000 0.00000 0.25000 0.0000 Uiso
N16_2 N 0.24966 0.12500 0.12500 0.0000 Uiso
N17_2 N 0.12500 0.12500 0.24966 0.0000 Uiso
N18_2 N 0.12500 0.24966 0.12500 0.0000 Uiso
Mg5_3 Mg 0.25000 0.25000 0.00000 0.0000 Uiso
Mg6_3 Mg 0.00000 0.25000 0.25000 0.0000 Uiso
N19_2 N 0.29512 0.07929 0.17071 0.0000 Uiso
N20_2 N 0.17071 0.07929 0.29512 0.0000 Uiso
N21_2 N 0.29512 0.17071 0.07929 0.0000 Uiso
N22_2 N 0.07929 0.17071 0.29512 0.0000 Uiso
N23_2 N 0.07929 0.29512 0.17071 0.0000 Uiso
N24_2 N 0.04512 0.32929 0.32929 0.0000 Uiso
C9_2 C 0.37302 0.09576 0.15424 0.0000 Uiso
C10_2 C 0.15424 0.09576 0.37302 0.0000 Uiso
C11_2 C 0.37302 0.15424 0.09576 0.0000 Uiso
C12_2 C 0.09576 0.15424 0.37302 0.0000 Uiso
H9_2 H 0.42473 0.06749 0.18251 0.0000 Uiso
H10_2 H 0.18251 0.06749 0.42473 0.0000 Uiso
H11_2 H 0.42473 0.18251 0.06749 0.0000 Uiso
H12_2 H 0.06749 0.18251 0.42473 0.0000 Uiso
Mg1_3 Mg -0.00000 0.00000 1.00000 0.0000 Uiso
N3_2 N 0.07929 0.07929 0.95488 0.0000 Uiso
Mg5_4 Mg 0.25000 0.25000 1.00000 0.0000 Uiso
Mg1_4 Mg -0.00000 1.00000 0.00000 0.0000 Uiso
N1_2 N 0.07929 0.95488 0.07929 0.0000 Uiso
C1_2 C 0.09576 0.87698 0.09576 0.0000 Uiso
H1_2 H 0.06749 0.82527 0.06749 0.0000 Uiso
C5_2 C 0.15424 0.87698 0.15424 0.0000 Uiso
N12_2 N 0.17071 0.95488 0.17071 0.0000 Uiso
H5_2 H 0.18251 0.82527 0.18251 0.0000 Uiso
Mg4_3 Mg 0.25000 1.00000 0.25000 0.0000 Uiso
Mg1_5 Mg -0.00000 1.00000 1.00000 0.0000 Uiso
N5_2 N 0.04512 0.92071 0.92071 0.0000 Uiso
C3_2 C 0.12302 0.90424 0.90424 0.0000 Uiso
H3_2 H 0.17473 0.93251 0.93251 0.0000 Uiso
C7_2 C 0.12302 0.84576 0.84576 0.0000 Uiso
N14_2 N 0.04512 0.82929 0.82929 0.0000 Uiso
H7_2 H 0.17473 0.81749 0.81749 0.0000 Uiso
Mg7_2 Mg 0.00000 0.75000 0.75000 0.0000 Uiso
Mg1_6 Mg 1.00000 0.00000 0.00000 0.0000 Uiso
N4_2 N 0.95488 0.07929 0.07929 0.0000 Uiso
C2_2 C 0.87698 0.09576 0.09576 0.0000 Uiso
H2_2 H 0.82527 0.06749 0.06749 0.0000 Uiso
C6_2 C 0.87698 0.15424 0.15424 0.0000 Uiso
N13_2 N 0.95488 0.17071 0.17071 0.0000 Uiso
H6_2 H 0.82527 0.18251 0.18251 0.0000 Uiso
Mg6_4 Mg 1.00000 0.25000 0.25000 0.0000 Uiso
N25_2 N 0.92071 0.32929 0.20488 0.0000 Uiso
N26_2 N 0.92071 0.20488 0.32929 0.0000 Uiso
Mg1_7 Mg 1.00000 0.00000 1.00000 0.0000 Uiso
N7_2 N 0.92071 0.04512 0.92071 0.0000 Uiso
Mg1_8 Mg 1.00000 1.00000 0.00000 0.0000 Uiso
N6_2 N 0.92071 0.92071 0.04512 0.0000 Uiso
C4_2 C 0.90424 0.90424 0.12302 0.0000 Uiso
H4_2 H 0.93251 0.93251 0.17473 0.0000 Uiso
C8_2 C 0.84576 0.84576 0.12302 0.0000 Uiso
N15_2 N 0.82929 0.82929 0.04512 0.0000 Uiso
H8_2 H 0.81749 0.81749 0.17473 0.0000 Uiso
Mg8_3 Mg 0.75000 0.75000 0.00000 0.0000 Uiso
Mg1_9 Mg 1.00000 1.00000 1.00000 0.0000 Uiso
N10_2 N 0.99966 0.87500 0.87500 0.0000 Uiso
N11_2 N 0.87500 0.87500 0.99966 0.0000 Uiso
Mg3_2 Mg 0.87500 0.87500 0.87500 0.0000 Uiso
Mg7_3 Mg 1.00000 0.75000 0.75000 0.0000 Uiso
Mg8_4 Mg 0.75000 0.75000 1.00000 0.0000 Uiso
Mg1_10 Mg 0.50000 0.75000 0.25000 0.0000 Uiso
N1_3 N 0.57929 0.79512 0.17071 0.0000 Uiso
C1_3 C 0.59576 0.87302 0.15424 0.0000 Uiso
N2_3 N 0.62500 0.74966 0.12500 0.0000 Uiso
H1_3 H 0.56749 0.92473 0.18251 0.0000 Uiso
Mg2_3 Mg 0.62500 0.62500 0.12500 0.0000 Uiso
N3_3 N 0.57929 0.67071 0.29512 0.0000 Uiso
N4_3 N 0.45488 0.67071 0.17071 0.0000 Uiso
N5_3 N 0.54512 0.82929 0.32929 0.0000 Uiso
N6_3 N 0.42071 0.82929 0.20488 0.0000 Uiso
N7_3 N 0.42071 0.70488 0.32929 0.0000 Uiso
N8_3 N 0.62500 0.62500 0.24966 0.0000 Uiso
C2_3 C 0.37698 0.65424 0.15424 0.0000 Uiso
N9_3 N 0.50034 0.62500 0.12500 0.0000 Uiso
C3_3 C 0.62302 0.84576 0.34576 0.0000 Uiso
N10_3 N 0.49966 0.87500 0.37500 0.0000 Uiso
C4_3 C 0.40424 0.84576 0.12698 0.0000 Uiso
N11_3 N 0.37500 0.87500 0.25034 0.0000 Uiso
C5_3 C 0.65424 0.87302 0.09576 0.0000 Uiso
N12_3 N 0.67071 0.79512 0.07929 0.0000 Uiso
H2_3 H 0.32527 0.68251 0.18251 0.0000 Uiso
C6_3 C 0.37698 0.59576 0.09576 0.0000 Uiso
N13_3 N 0.45488 0.57929 0.07929 0.0000 Uiso
H3_3 H 0.67473 0.81749 0.31749 0.0000 Uiso
C7_3 C 0.62302 0.90424 0.40424 0.0000 Uiso
N14_3 N 0.54512 0.92071 0.42071 0.0000 Uiso
Mg3_3 Mg 0.37500 0.87500 0.37500 0.0000 Uiso
H4_3 H 0.43251 0.81749 0.07527 0.0000 Uiso
C8_3 C 0.34576 0.90424 0.12698 0.0000 Uiso
N15_3 N 0.32929 0.92071 0.20488 0.0000 Uiso
H5_3 H 0.68251 0.92473 0.06749 0.0000 Uiso
N16_3 N 0.74966 0.62500 0.12500 0.0000 Uiso
N17_3 N 0.62500 0.62500 0.00034 0.0000 Uiso
N18_3 N 0.62500 0.50034 0.12500 0.0000 Uiso
H6_3 H 0.32527 0.56749 0.06749 0.0000 Uiso
Mg6_5 Mg 0.50000 0.50000 0.00000 0.0000 Uiso
H7_3 H 0.67473 0.93251 0.43251 0.0000 Uiso
H8_3 H 0.31749 0.93251 0.07527 0.0000 Uiso
N19_3 N 0.79512 0.67071 0.07929 0.0000 Uiso
N21_3 N 0.79512 0.57929 0.17071 0.0000 Uiso
N23_3 N 0.57929 0.45488 0.07929 0.0000 Uiso
N25_3 N 0.42071 0.42071 0.04512 0.0000 Uiso
C9_3 C 0.87302 0.65424 0.09576 0.0000 Uiso
C11_3 C 0.87302 0.59576 0.15424 0.0000 Uiso
H9_3 H 0.92473 0.68251 0.06749 0.0000 Uiso
H11_3 H 0.92473 0.56749 0.18251 0.0000 Uiso
Mg6_6 Mg 0.50000 0.50000 1.00000 0.0000 Uiso
N20_3 N 0.67071 0.67071 0.95488 0.0000 Uiso
N22_3 N 0.57929 0.57929 0.95488 0.0000 Uiso
N24_3 N 0.54512 0.42071 0.92071 0.0000 Uiso
N26_3 N 0.42071 0.54512 0.92071 0.0000 Uiso
C10_3 C 0.65424 0.65424 0.87698 0.0000 Uiso
C12_3 C 0.59576 0.59576 0.87698 0.0000 Uiso
H10_3 H 0.68251 0.68251 0.82527 0.0000 Uiso
H12_3 H 0.56749 0.56749 0.82527 0.0000 Uiso
Mg1_11 Mg 0.25000 0.50000 0.75000 0.0000 Uiso
N1_4 N 0.17071 0.45488 0.67071 0.0000 Uiso
C1_4 C 0.15424 0.37698 0.65424 0.0000 Uiso
N2_4 N 0.12500 0.50034 0.62500 0.0000 Uiso
H1_4 H 0.18251 0.32527 0.68251 0.0000 Uiso
Mg2_4 Mg 0.12500 0.62500 0.62500 0.0000 Uiso
N3_4 N 0.17071 0.57929 0.79512 0.0000 Uiso
N4_4 N 0.29512 0.57929 0.67071 0.0000 Uiso
N5_4 N 0.20488 0.42071 0.82929 0.0000 Uiso
N6_4 N 0.32929 0.42071 0.70488 0.0000 Uiso
N7_4 N 0.32929 0.54512 0.82929 0.0000 Uiso
N8_4 N 0.12500 0.62500 0.74966 0.0000 Uiso
C2_4 C 0.37302 0.59576 0.65424 0.0000 Uiso
N9_4 N 0.24966 0.62500 0.62500 0.0000 Uiso
C3_4 C 0.12698 0.40424 0.84576 0.0000 Uiso
N10_4 N 0.25034 0.37500 0.87500 0.0000 Uiso
C4_4 C 0.34576 0.40424 0.62698 0.0000 Uiso
N11_4 N 0.37500 0.37500 0.75034 0.0000 Uiso
C5_4 C 0.09576 0.37698 0.59576 0.0000 Uiso
N12_4 N 0.07929 0.45488 0.57929 0.0000 Uiso
H2_4 H 0.42473 0.56749 0.68251 0.0000 Uiso
C6_4 C 0.37302 0.65424 0.59576 0.0000 Uiso
N13_4 N 0.29512 0.67071 0.57929 0.0000 Uiso
H3_4 H 0.07527 0.43251 0.81749 0.0000 Uiso
C7_4 C 0.12698 0.34576 0.90424 0.0000 Uiso
N14_4 N 0.20488 0.32929 0.92071 0.0000 Uiso
Mg3_4 Mg 0.37500 0.37500 0.87500 0.0000 Uiso
H4_4 H 0.31749 0.43251 0.57527 0.0000 Uiso
C8_4 C 0.40424 0.34576 0.62698 0.0000 Uiso
N15_4 N 0.42071 0.32929 0.70488 0.0000 Uiso
H5_4 H 0.06749 0.32527 0.56749 0.0000 Uiso
N16_4 N 0.00034 0.62500 0.62500 0.0000 Uiso
N17_4 N 0.12500 0.62500 0.50034 0.0000 Uiso
N18_4 N 0.12500 0.74966 0.62500 0.0000 Uiso
H6_4 H 0.42473 0.68251 0.56749 0.0000 Uiso
Mg6_7 Mg 0.25000 0.75000 0.50000 0.0000 Uiso
H7_4 H 0.07527 0.31749 0.93251 0.0000 Uiso
H8_4 H 0.43251 0.31749 0.57527 0.0000 Uiso
N20_4 N 0.07929 0.57929 0.45488 0.0000 Uiso
N22_4 N 0.17071 0.67071 0.45488 0.0000 Uiso
N23_4 N 0.17071 0.79512 0.57929 0.0000 Uiso
N24_4 N 0.20488 0.82929 0.42071 0.0000 Uiso
N25_4 N 0.32929 0.82929 0.54512 0.0000 Uiso
N26_4 N 0.32929 0.70488 0.42071 0.0000 Uiso
C10_4 C 0.09576 0.59576 0.37698 0.0000 Uiso
C12_4 C 0.15424 0.65424 0.37698 0.0000 Uiso
H10_4 H 0.06749 0.56749 0.32527 0.0000 Uiso
H12_4 H 0.18251 0.68251 0.32527 0.0000 Uiso
N19_4 N 0.95488 0.57929 0.57929 0.0000 Uiso
N21_4 N 0.95488 0.67071 0.67071 0.0000 Uiso
C9_4 C 0.87698 0.59576 0.59576 0.0000 Uiso
C11_4 C 0.87698 0.65424 0.65424 0.0000 Uiso
H9_4 H 0.82527 0.56749 0.56749 0.0000 Uiso
H11_4 H 0.82527 0.68251 0.68251 0.0000 Uiso
C1_5 C 0.59576 0.65424 0.37302 0.0000 Uiso
H1_5 H 0.56749 0.68251 0.42473 0.0000 Uiso
C3_5 C 0.40424 0.62698 0.34576 0.0000 Uiso
N10_5 N 0.37500 0.75034 0.37500 0.0000 Uiso
C5_5 C 0.65424 0.59576 0.37302 0.0000 Uiso
N12_5 N 0.67071 0.57929 0.29512 0.0000 Uiso
H3_5 H 0.43251 0.57527 0.31749 0.0000 Uiso
C7_5 C 0.34576 0.62698 0.40424 0.0000 Uiso
H5_5 H 0.68251 0.56749 0.42473 0.0000 Uiso
H7_5 H 0.31749 0.57527 0.43251 0.0000 Uiso
N19_5 N 0.67071 0.45488 0.17071 0.0000 Uiso
C9_5 C 0.65424 0.37698 0.15424 0.0000 Uiso
C11_5 C 0.59576 0.37698 0.09576 0.0000 Uiso
H9_5 H 0.68251 0.32527 0.18251 0.0000 Uiso
H11_5 H 0.56749 0.32527 0.06749 0.0000 Uiso
N24_5 N 0.82929 0.70488 0.92071 0.0000 Uiso
N25_5 N 0.70488 0.82929 0.92071 0.0000 Uiso
N19_6 N 0.17071 0.29512 0.07929 0.0000 Uiso
N24_6 N 0.32929 0.04512 0.32929 0.0000 Uiso
C9_6 C 0.15424 0.37302 0.09576 0.0000 Uiso
C11_6 C 0.09576 0.37302 0.15424 0.0000 Uiso
H9_6 H 0.18251 0.42473 0.06749 0.0000 Uiso
H11_6 H 0.06749 0.42473 0.18251 0.0000 Uiso
C1_6 C 0.09576 0.09576 0.87698 0.0000 Uiso
H1_6 H 0.06749 0.06749 0.82527 0.0000 Uiso
C5_6 C 0.15424 0.15424 0.87698 0.0000 Uiso
N12_6 N 0.17071 0.17071 0.95488 0.0000 Uiso
H5_6 H 0.18251 0.18251 0.82527 0.0000 Uiso
N25_6 N 0.20488 0.92071 0.32929 0.0000 Uiso
C3_6 C 0.90424 0.12302 0.90424 0.0000 Uiso
H3_6 H 0.93251 0.17473 0.93251 0.0000 Uiso
C7_6 C 0.84576 0.12302 0.84576 0.0000 Uiso
H7_6 H 0.81749 0.17473 0.81749 0.0000 Uiso
N10_6 N 0.87500 0.99966 0.87500 0.0000 Uiso
C1_7 C 0.15424 0.59576 0.87302 0.0000 Uiso
H1_7 H 0.18251 0.56749 0.92473 0.0000 Uiso
C3_7 C 0.34576 0.62302 0.84576 0.0000 Uiso
N10_7 N 0.37500 0.49966 0.87500 0.0000 Uiso
C5_7 C 0.09576 0.65424 0.87302 0.0000 Uiso
N12_7 N 0.07929 0.67071 0.79512 0.0000 Uiso
H3_7 H 0.31749 0.67473 0.81749 0.0000 Uiso
C7_7 C 0.40424 0.62302 0.90424 0.0000 Uiso
H5_7 H 0.06749 0.68251 0.92473 0.0000 Uiso
H7_7 H 0.43251 0.67473 0.93251 0.0000 Uiso
N19_7 N 0.07929 0.79512 0.67071 0.0000 Uiso
N25_7 N 0.04512 0.42071 0.42071 0.0000 Uiso
C9_7 C 0.09576 0.87302 0.65424 0.0000 Uiso
C11_7 C 0.15424 0.87302 0.59576 0.0000 Uiso
H9_7 H 0.06749 0.92473 0.68251 0.0000 Uiso
H11_7 H 0.18251 0.92473 0.56749 0.0000 Uiso
N24_7 N 0.92071 0.54512 0.42071 0.0000 Uiso
C1_8 C 0.65424 0.15424 0.37698 0.0000 Uiso
H1_8 H 0.68251 0.18251 0.32527 0.0000 Uiso
C3_8 C 0.84576 0.12698 0.40424 0.0000 Uiso
N10_8 N 0.87500 0.25034 0.37500 0.0000 Uiso
C5_8 C 0.59576 0.09576 0.37698 0.0000 Uiso
N12_8 N 0.57929 0.07929 0.45488 0.0000 Uiso
H3_8 H 0.81749 0.07527 0.43251 0.0000 Uiso
C7_8 C 0.90424 0.12698 0.34576 0.0000 Uiso
H5_8 H 0.56749 0.06749 0.32527 0.0000 Uiso
H7_8 H 0.93251 0.07527 0.31749 0.0000 Uiso
N24_8 N 0.42071 0.20488 0.82929 0.0000 Uiso
N25_8 N 0.54512 0.32929 0.82929 0.0000 Uiso
N19_8 N 0.57929 0.95488 0.57929 0.0000 Uiso
C9_8 C 0.59576 0.87698 0.59576 0.0000 Uiso
C11_8 C 0.65424 0.87698 0.65424 0.0000 Uiso
H9_8 H 0.56749 0.82527 0.56749 0.0000 Uiso
H11_8 H 0.68251 0.82527 0.68251 0.0000 Uiso
N24_9 N 0.92071 0.82929 0.70488 0.0000 Uiso
N25_9 N 0.92071 0.70488 0.82929 0.0000 Uiso
N24_10 N 0.32929 0.32929 0.04512 0.0000 Uiso
N25_10 N 0.32929 0.20488 0.92071 0.0000 Uiso
N25_11 N 0.42071 0.04512 0.42071 0.0000 Uiso
N24_11 N 0.42071 0.92071 0.54512 0.0000 Uiso
N24_12 N 0.82929 0.42071 0.20488 0.0000 Uiso
N25_12 N 0.82929 0.54512 0.32929 0.0000 Uiso
N16_5 N 0.87500 0.75034 0.87500 0.0000 Uiso
N17_5 N 0.87500 0.87500 0.75034 0.0000 Uiso
N18_5 N 0.75034 0.87500 0.87500 0.0000 Uiso
C9_9 C 0.90424 0.62698 0.84576 0.0000 Uiso
C10_5 C 0.90424 0.84576 0.62698 0.0000 Uiso
C11_9 C 0.84576 0.62698 0.90424 0.0000 Uiso
C12_5 C 0.84576 0.90424 0.62698 0.0000 Uiso
H9_9 H 0.93251 0.57527 0.81749 0.0000 Uiso
H10_5 H 0.93251 0.81749 0.57527 0.0000 Uiso
H11_9 H 0.81749 0.57527 0.93251 0.0000 Uiso
H12_5 H 0.81749 0.93251 0.57527 0.0000 Uiso
N16_6 N 0.87500 0.49966 0.37500 0.0000 Uiso
N17_6 N 0.87500 0.37500 0.25034 0.0000 Uiso
N18_6 N 0.99966 0.37500 0.37500 0.0000 Uiso
C9_10 C 0.84576 0.62302 0.34576 0.0000 Uiso
C10_6 C 0.84576 0.40424 0.12698 0.0000 Uiso
C11_10 C 0.90424 0.62302 0.40424 0.0000 Uiso
C12_6 C 0.90424 0.34576 0.12698 0.0000 Uiso
H9_10 H 0.81749 0.67473 0.31749 0.0000 Uiso
H10_6 H 0.81749 0.43251 0.07527 0.0000 Uiso
H11_10 H 0.93251 0.67473 0.43251 0.0000 Uiso
H12_6 H 0.93251 0.31749 0.07527 0.0000 Uiso
C9_11 C 0.40424 0.12302 0.40424 0.0000 Uiso
C11_11 C 0.34576 0.12302 0.34576 0.0000 Uiso
H9_11 H 0.43251 0.17473 0.43251 0.0000 Uiso
H11_11 H 0.31749 0.17473 0.31749 0.0000 Uiso
N16_7 N 0.37500 0.99966 0.37500 0.0000 Uiso
N17_7 N 0.37500 0.87500 0.49966 0.0000 Uiso
N18_7 N 0.25034 0.87500 0.37500 0.0000 Uiso
C10_7 C 0.40424 0.90424 0.62302 0.0000 Uiso
C12_7 C 0.34576 0.84576 0.62302 0.0000 Uiso
H10_7 H 0.43251 0.93251 0.67473 0.0000 Uiso
H12_7 H 0.31749 0.81749 0.67473 0.0000 Uiso
C10_8 C 0.34576 0.34576 0.12302 0.0000 Uiso
C12_8 C 0.40424 0.40424 0.12302 0.0000 Uiso
H10_8 H 0.31749 0.31749 0.17473 0.0000 Uiso
H12_8 H 0.43251 0.43251 0.17473 0.0000 Uiso
N16_8 N 0.37500 0.25034 0.87500 0.0000 Uiso
N17_8 N 0.37500 0.37500 0.99966 0.0000 Uiso
N18_8 N 0.49966 0.37500 0.87500 0.0000 Uiso
C9_12 C 0.34576 0.12698 0.90424 0.0000 Uiso
C11_12 C 0.40424 0.12698 0.84576 0.0000 Uiso
H9_12 H 0.31749 0.07527 0.93251 0.0000 Uiso
H11_12 H 0.43251 0.07527 0.81749 0.0000 Uiso
C9_13 C 0.12698 0.90424 0.34576 0.0000 Uiso
C11_13 C 0.12698 0.84576 0.40424 0.0000 Uiso
H9_13 H 0.07527 0.93251 0.31749 0.0000 Uiso
H11_13 H 0.07527 0.81749 0.43251 0.0000 Uiso
C9_14 C 0.12302 0.40424 0.40424 0.0000 Uiso
C11_14 C 0.12302 0.34576 0.34576 0.0000 Uiso
H9_14 H 0.17473 0.43251 0.43251 0.0000 Uiso
H11_14 H 0.17473 0.31749 0.31749 0.0000 Uiso
C9_15 C 0.62302 0.34576 0.84576 0.0000 Uiso
C11_15 C 0.62302 0.40424 0.90424 0.0000 Uiso
H9_15 H 0.67473 0.31749 0.81749 0.0000 Uiso
H11_15 H 0.67473 0.43251 0.93251 0.0000 Uiso
C9_16 C 0.62698 0.84576 0.90424 0.0000 Uiso
C11_16 C 0.62698 0.90424 0.84576 0.0000 Uiso
H9_16 H 0.57527 0.81749 0.93251 0.0000 Uiso
H11_16 H 0.57527 0.93251 0.81749 0.0000 Uiso
loop_
_geom_bond_atom_site_label_1
_geom_bond_atom_site_label_2
_geom_bond_site_symmetry_1
_geom_bond_site_symmetry_2
Mg1 N1 1_555 1_555
N1 C1 1_555 1_555
C1 H1 1_555 1_555
N2 N1 1_555 1_555
Mg2 N2 1_555 1_555
N3 Mg1 1_555 1_555
N4 Mg1 1_555 1_555
N5 Mg1 1_555 1_555
N6 Mg1 1_555 1_555
N7 Mg1 1_555 1_555
N8 Mg2 1_555 1_555
C2 N4 1_555 1_555
N9 Mg2 1_555 1_555
C3 N5 1_555 1_555
N10 N5 1_555 1_555
C4 N6 1_555 1_555
N11 N6 1_555 1_555
C5 C1 1_555 1_555
N12 N2 1_555 1_555
H2 C2 1_555 1_555
C6 C2 1_555 1_555
N13 N9 1_555 1_555
H3 C3 1_555 1_555
C7 C3 1_555 1_555
N14 N10 1_555 1_555
Mg3 N10 1_555 1_555
H4 C4 1_555 1_555
C8 C4 1_555 1_555
N15 N11 1_555 1_555
H5 C5 1_555 1_555
Mg4 N12 1_555 1_555
N16 Mg2 1_555 1_555
N17 Mg2 1_555 1_555
N18 Mg2 1_555 1_555
Mg5 N21 1_555 1_555
H6 C6 1_555 1_555
Mg6 N13 1_555 1_555
H7 C7 1_555 1_555
Mg7 N14 1_555 1_555
H8 C8 1_555 1_555
Mg8_2 N15 1_555 1_555
N19 Mg4 1_555 1_555
N20 Mg4 1_555 1_555
N21 N16 1_555 1_555
N22 N17 1_555 1_555
N26 Mg6 1_555 1_555
C9 N19 1_555 1_555
C10 N20 1_555 1_555
C11 N21 1_555 1_555
C12 N22 1_555 1_555
H9 C9 1_555 1_555
H10 C10 1_555 1_555
H11 C11 1_555 1_555
H12 C12 1_555 1_555
N3 N8 1_555 1_555
N4 N9 1_555 1_555
N11 Mg3 1_555 1_555
C5 N12 1_555 1_555
C6 N13 1_555 1_555
C7 N14 1_555 1_555
C8 N15 1_555 1_555
N16 N19 1_555 1_555
N17 N20 1_555 1_555
Mg6 N22 1_555 1_555
C9 C11 1_555 1_555
C10 C12 1_555 1_555
N24 Mg6_2 1_555 1_555
N25 Mg6_2 1_555 1_555
Mg6_2 N23 1_555 1_555
Mg2_2 N2_2 1_555 1_555
N8_2 Mg2_2 1_555 1_555
N9_2 Mg2_2 1_555 1_555
N16_2 Mg2_2 1_555 1_555
N17_2 Mg2_2 1_555 1_555
N18_2 Mg2_2 1_555 1_555
Mg5_3 N21_2 1_555 1_555
N19_2 Mg4_2 1_555 1_555
N20_2 Mg4_2 1_555 1_555
N21_2 N16_2 1_555 1_555
N22_2 N17_2 1_555 1_555
N23_2 N18_2 1_555 1_555
N24_2 Mg6_3 1_555 1_555
C9_2 N19_2 1_555 1_555
C10_2 N20_2 1_555 1_555
C11_2 N21_2 1_555 1_555
C12_2 N22_2 1_555 1_555
H9_2 C9_2 1_555 1_555
H10_2 C10_2 1_555 1_555
H11_2 C11_2 1_555 1_555
H12_2 C12_2 1_555 1_555
N16_2 N19_2 1_555 1_555
N17_2 N20_2 1_555 1_555
Mg6_3 N22_2 1_555 1_555
Mg6_3 N23_2 1_555 1_555
C9_2 C11_2 1_555 1_555
C10_2 C12_2 1_555 1_555
N3_2 Mg1_3 1_555 1_555
Mg1_4 N1_2 1_555 1_555
N1_2 C1_2 1_555 1_555
C1_2 H1_2 1_555 1_555
C5_2 C1_2 1_555 1_555
H5_2 C5_2 1_555 1_555
Mg4_3 N12_2 1_555 1_555
C5_2 N12_2 1_555 1_555
N5_2 Mg1_5 1_555 1_555
C3_2 N5_2 1_555 1_555
H3_2 C3_2 1_555 1_555
C7_2 C3_2 1_555 1_555
H7_2 C7_2 1_555 1_555
Mg7_2 N14_2 1_555 1_555
C7_2 N14_2 1_555 1_555
N4_2 Mg1_6 1_555 1_555
C2_2 N4_2 1_555 1_555
H2_2 C2_2 1_555 1_555
C6_2 C2_2 1_555 1_555
H6_2 C6_2 1_555 1_555
Mg6_4 N13_2 1_555 1_555
N25_2 Mg6_4 1_555 1_555
N26_2 Mg6_4 1_555 1_555
C6_2 N13_2 1_555 1_555
N7_2 Mg1_7 1_555 1_555
N6_2 Mg1_8 1_555 1_555
C4_2 N6_2 1_555 1_555
H4_2 C4_2 1_555 1_555
C8_2 C4_2 1_555 1_555
H8_2 C8_2 1_555 1_555
Mg8_3 N15_2 1_555 1_555
C8_2 N15_2 1_555 1_555
Mg3_2 N10_2 1_555 1_555
N11_2 Mg3_2 1_555 1_555
Mg1_10 N1_3 1_555 1_555
N1_3 C1_3 1_555 1_555
C1_3 H1_3 1_555 1_555
N2_3 N1_3 1_555 1_555
Mg2_3 N2_3 1_555 1_555
N3_3 Mg1_10 1_555 1_555
N4_3 Mg1_10 1_555 1_555
N5_3 Mg1_10 1_555 1_555
N6_3 Mg1_10 1_555 1_555
N7_3 Mg1_10 1_555 1_555
N8_3 Mg2_3 1_555 1_555
C2_3 N4_3 1_555 1_555
N9_3 Mg2_3 1_555 1_555
C3_3 N5_3 1_555 1_555
N10_3 N5_3 1_555 1_555
C4_3 N6_3 1_555 1_555
N11_3 N6_3 1_555 1_555
C5_3 C1_3 1_555 1_555
N12_3 N2_3 1_555 1_555
H2_3 C2_3 1_555 1_555
C6_3 C2_3 1_555 1_555
N13_3 N9_3 1_555 1_555
H3_3 C3_3 1_555 1_555
C7_3 C3_3 1_555 1_555
N14_3 N10_3 1_555 1_555
Mg3_3 N10_3 1_555 1_555
H4_3 C4_3 1_555 1_555
C8_3 C4_3 1_555 1_555
N15_3 N11_3 1_555 1_555
H5_3 C5_3 1_555 1_555
Mg8_3 N12_3 1_555 1_555
N16_3 Mg2_3 1_555 1_555
N17_3 Mg2_3 1_555 1_555
N18_3 Mg2_3 1_555 1_555
Mg7 N21_3 1_555 1_555
H6_3 C6_3 1_555 1_555
Mg6_5 N13_3 1_555 1_555
H7_3 C7_3 1_555 1_555
Mg5_2 N14_3 1_555 1_555
H8_3 C8_3 1_555 1_555
Mg4_3 N15_3 1_555 1_555
N19_3 Mg8_3 1_555 1_555
N21_3 N16_3 1_555 1_555
N23_3 N18_3 1_555 1_555
N25_3 Mg6_5 1_555 1_555
C9_3 N19_3 1_555 1_555
C11_3 N21_3 1_555 1_555
H9_3 C9_3 1_555 1_555
H11_3 C11_3 1_555 1_555
N3_3 N8_3 1_555 1_555
N4_3 N9_3 1_555 1_555
N11_3 Mg3_3 1_555 1_555
C5_3 N12_3 1_555 1_555
C6_3 N13_3 1_555 1_555
C7_3 N14_3 1_555 1_555
C8_3 N15_3 1_555 1_555
N16_3 N19_3 1_555 1_555
Mg6_5 N23_3 1_555 1_555
C9_3 C11_3 1_555 1_555
N20_3 Mg8_4 1_555 1_555
N24_3 Mg6_6 1_555 1_555
N26_3 Mg6_6 1_555 1_555
C10_3 N20_3 1_555 1_555
C12_3 N22_3 1_555 1_555
H10_3 C10_3 1_555 1_555
H12_3 C12_3 1_555 1_555
Mg6_6 N22_3 1_555 1_555
C10_3 C12_3 1_555 1_555
Mg1_11 N1_4 1_555 1_555
N1_4 C1_4 1_555 1_555
C1_4 H1_4 1_555 1_555
N2_4 N1_4 1_555 1_555
Mg2_4 N2_4 1_555 1_555
N3_4 Mg1_11 1_555 1_555
N4_4 Mg1_11 1_555 1_555
N5_4 Mg1_11 1_555 1_555
N6_4 Mg1_11 1_555 1_555
N7_4 Mg1_11 1_555 1_555
N8_4 Mg2_4 1_555 1_555
C2_4 N4_4 1_555 1_555
N9_4 Mg2_4 1_555 1_555
C3_4 N5_4 1_555 1_555
N10_4 N5_4 1_555 1_555
C4_4 N6_4 1_555 1_555
N11_4 N6_4 1_555 1_555
C5_4 C1_4 1_555 1_555
N12_4 N2_4 1_555 1_555
H2_4 C2_4 1_555 1_555
C6_4 C2_4 1_555 1_555
N13_4 N9_4 1_555 1_555
H3_4 C3_4 1_555 1_555
C7_4 C3_4 1_555 1_555
N14_4 N10_4 1_555 1_555
Mg3_4 N10_4 1_555 1_555
H4_4 C4_4 1_555 1_555
C8_4 C4_4 1_555 1_555
N15_4 N11_4 1_555 1_555
H5_4 C5_4 1_555 1_555
Mg8 N12_4 1_555 1_555
N16_4 Mg2_4 1_555 1_555
N17_4 Mg2_4 1_555 1_555
N18_4 Mg2_4 1_555 1_555
H6_4 C6_4 1_555 1_555
Mg6_7 N13_4 1_555 1_555
H7_4 C7_4 1_555 1_555
Mg5_4 N14_4 1_555 1_555
H8_4 C8_4 1_555 1_555
Mg4 N15_4 1_555 1_555
N20_4 Mg8 1_555 1_555
N22_4 N17_4 1_555 1_555
N23_4 N18_4 1_555 1_555
N24_4 Mg6_7 1_555 1_555
N25_4 Mg6_7 1_555 1_555
N26_4 Mg6_7 1_555 1_555
C10_4 N20_4 1_555 1_555
C12_4 N22_4 1_555 1_555
H10_4 C10_4 1_555 1_555
H12_4 C12_4 1_555 1_555
N3_4 N8_4 1_555 1_555
N4_4 N9_4 1_555 1_555
N11_4 Mg3_4 1_555 1_555
C5_4 N12_4 1_555 1_555
C6_4 N13_4 1_555 1_555
C7_4 N14_4 1_555 1_555
C8_4 N15_4 1_555 1_555
N17_4 N20_4 1_555 1_555
Mg6_7 N22_4 1_555 1_555
Mg6_7 N23_4 1_555 1_555
C10_4 C12_4 1_555 1_555
Mg7_3 N21_4 1_555 1_555
N19_4 Mg8_2 1_555 1_555
C9_4 N19_4 1_555 1_555
C11_4 N21_4 1_555 1_555
H9_4 C9_4 1_555 1_555
H11_4 C11_4 1_555 1_555
C9_4 C11_4 1_555 1_555
N3_3 C1_5 1_555 1_555
C1_5 H1_5 1_555 1_555
C3_5 N7_3 1_555 1_555
N10_5 N7_3 1_555 1_555
C5_5 C1_5 1_555 1_555
N12_5 N8_3 1_555 1_555
H3_5 C3_5 1_555 1_555
C7_5 C3_5 1_555 1_555
N26_4 N10_5 1_555 1_555
Mg3_3 N10_5 1_555 1_555
H5_5 C5_5 1_555 1_555
Mg7 N12_5 1_555 1_555
H7_5 C7_5 1_555 1_555
N19_5 Mg7 1_555 1_555
C9_5 N19_5 1_555 1_555
C11_5 N23_3 1_555 1_555
H9_5 C9_5 1_555 1_555
H11_5 C11_5 1_555 1_555
C5_5 N12_5 1_555 1_555
C7_5 N26_4 1_555 1_555
N18_3 N19_5 1_555 1_555
C9_5 C11_5 1_555 1_555
N24_5 Mg8_4 1_555 1_555
N25_5 Mg8_4 1_555 1_555
N19_6 Mg5_3 1_555 1_555
N24_6 Mg4_2 1_555 1_555
C9_6 N19_6 1_555 1_555
C11_6 N23_2 1_555 1_555
H9_6 C9_6 1_555 1_555
H11_6 C11_6 1_555 1_555
N18_2 N19_6 1_555 1_555
C9_6 C11_6 1_555 1_555
N3_2 C1_6 1_555 1_555
C1_6 H1_6 1_555 1_555
C5_6 C1_6 1_555 1_555
H5_6 C5_6 1_555 1_555
Mg5_4 N12_6 1_555 1_555
C5_6 N12_6 1_555 1_555
N25_6 Mg4_3 1_555 1_555
C3_6 N7_2 1_555 1_555
H3_6 C3_6 1_555 1_555
C7_6 C3_6 1_555 1_555
H7_6 C7_6 1_555 1_555
C7_6 N26 1_555 1_555
Mg3_2 N10_6 1_555 1_555
N3_4 C1_7 1_555 1_555
C1_7 H1_7 1_555 1_555
C3_7 N7_4 1_555 1_555
N10_7 N7_4 1_555 1_555
C5_7 C1_7 1_555 1_555
N12_7 N8_4 1_555 1_555
H3_7 C3_7 1_555 1_555
C7_7 C3_7 1_555 1_555
N26_3 N10_7 1_555 1_555
Mg3_4 N10_7 1_555 1_555
H5_7 C5_7 1_555 1_555
Mg7_2 N12_7 1_555 1_555
H7_7 C7_7 1_555 1_555
N19_7 Mg7_2 1_555 1_555
N25_7 Mg8 1_555 1_555
C9_7 N19_7 1_555 1_555
C11_7 N23_4 1_555 1_555
H9_7 C9_7 1_555 1_555
H11_7 C11_7 1_555 1_555
C5_7 N12_7 1_555 1_555
C7_7 N26_3 1_555 1_555
N18_4 N19_7 1_555 1_555
C9_7 C11_7 1_555 1_555
N24_7 Mg8_2 1_555 1_555
N3 C1_8 1_555 1_555
C1_8 H1_8 1_555 1_555
C3_8 N7 1_555 1_555
N10_8 N7 1_555 1_555
C5_8 C1_8 1_555 1_555
N12_8 N8 1_555 1_555
H3_8 C3_8 1_555 1_555
C7_8 C3_8 1_555 1_555
N26_2 N10_8 1_555 1_555
Mg3 N10_8 1_555 1_555
H5_8 C5_8 1_555 1_555
Mg5 N12_8 1_555 1_555
H7_8 C7_8 1_555 1_555
N24_8 Mg4 1_555 1_555
N25_8 Mg4 1_555 1_555
C5_8 N12_8 1_555 1_555
C7_8 N26_2 1_555 1_555
N19_8 Mg5_2 1_555 1_555
C9_8 N19_8 1_555 1_555
C11_8 N23 1_555 1_555
H9_8 C9_8 1_555 1_555
H11_8 C11_8 1_555 1_555
C9_8 C11_8 1_555 1_555
N24_9 Mg7_3 1_555 1_555
N25_9 Mg7_3 1_555 1_555
N24_10 Mg5_3 1_555 1_555
N25_10 Mg5_4 1_555 1_555
N25_11 Mg5 1_555 1_555
N24_11 Mg5_2 1_555 1_555
N24_12 Mg7 1_555 1_555
N25_12 Mg7 1_555 1_555
N16_5 Mg3_2 1_555 1_555
N17_5 Mg3_2 1_555 1_555
N18_5 Mg3_2 1_555 1_555
N24_5 N16_5 1_555 1_555
N25 N17_5 1_555 1_555
N24 N18_5 1_555 1_555
C9_9 N25_9 1_555 1_555
C10_5 N24_9 1_555 1_555
C11_9 N24_5 1_555 1_555
C12_5 N25 1_555 1_555
H9_9 C9_9 1_555 1_555
H10_5 C10_5 1_555 1_555
H11_9 C11_9 1_555 1_555
H12_5 C12_5 1_555 1_555
N16_5 N25_9 1_555 1_555
N17_5 N24_9 1_555 1_555
C9_9 C11_9 1_555 1_555
C10_5 C12_5 1_555 1_555
N16_6 Mg3 1_555 1_555
N17_6 Mg3 1_555 1_555
N18_6 Mg3 1_555 1_555
N24_7 N16_6 1_555 1_555
N25_2 N17_6 1_555 1_555
C9_10 N25_12 1_555 1_555
C10_6 N24_12 1_555 1_555
C11_10 N24_7 1_555 1_555
C12_6 N25_2 1_555 1_555
H9_10 C9_10 1_555 1_555
H10_6 C10_6 1_555 1_555
H11_10 C11_10 1_555 1_555
H12_6 C12_6 1_555 1_555
N16_6 N25_12 1_555 1_555
N17_6 N24_12 1_555 1_555
C9_10 C11_10 1_555 1_555
C10_6 C12_6 1_555 1_555
C9_11 N25_11 1_555 1_555
C11_11 N24_6 1_555 1_555
H9_11 C9_11 1_555 1_555
H11_11 C11_11 1_555 1_555
C9_11 C11_11 1_555 1_555
N16_7 Mg3_3 1_555 1_555
N17_7 Mg3_3 1_555 1_555
N18_7 Mg3_3 1_555 1_555
N25_4 N17_7 1_555 1_555
N24_4 N18_7 1_555 1_555
C10_7 N24_11 1_555 1_555
C12_7 N25_4 1_555 1_555
H10_7 C10_7 1_555 1_555
H12_7 C12_7 1_555 1_555
N17_7 N24_11 1_555 1_555
C10_7 C12_7 1_555 1_555
C10_8 N24_10 1_555 1_555
C12_8 N25_3 1_555 1_555
H10_8 C10_8 1_555 1_555
H12_8 C12_8 1_555 1_555
C10_8 C12_8 1_555 1_555
N16_8 Mg3_4 1_555 1_555
N17_8 Mg3_4 1_555 1_555
N18_8 Mg3_4 1_555 1_555
N24_8 N16_8 1_555 1_555
N24_3 N18_8 1_555 1_555
C9_12 N25_10 1_555 1_555
C11_12 N24_8 1_555 1_555
H9_12 C9_12 1_555 1_555
H11_12 C11_12 1_555 1_555
N16_8 N25_10 1_555 1_555
C9_12 C11_12 1_555 1_555
C9_13 N25_6 1_555 1_555
C11_13 N24_4 1_555 1_555
H9_13 C9_13 1_555 1_555
H11_13 C11_13 1_555 1_555
N18_7 N25_6 1_555 1_555
C9_13 C11_13 1_555 1_555
C9_14 N25_7 1_555 1_555
C11_14 N24_2 1_555 1_555
H9_14 C9_14 1_555 1_555
H11_14 C11_14 1_555 1_555
C9_14 C11_14 1_555 1_555
C9_15 N25_8 1_555 1_555
C11_15 N24_3 1_555 1_555
H9_15 C9_15 1_555 1_555
H11_15 C11_15 1_555 1_555
N18_8 N25_8 1_555 1_555
C9_15 C11_15 1_555 1_555
C9_16 N25_5 1_555 1_555
C11_16 N24 1_555 1_555
H9_16 C9_16 1_555 1_555
H11_16 C11_16 1_555 1_555
N18_5 N25_5 1_555 1_555
C9_16 C11_16 1_555 1_555

#END
