
###############################################################################
#
# This file contains modified crystal structure data generated from the
# MOF subset of the Cambridge Structural Database (CSD) v543 
# hosted by the Cambridge Crystallographic Data Centre (CCDC).
#
# This work is licensed under the Creative Commons
# Attribution-NonCommercial-ShareAlike 4.0 International License.
# To view a copy of this license, visit
# http://creativecommons.org/licenses/by-nc-sa/4.0/
# or send a letter to
# Creative Commons, PO Box 1866, Mountain View, CA 94042, USA.
#
# CIF created using the CSD Python API on 29 September 2022
# The structure has been converted into the P1 space group
# The structure has a 3D framework
# The original CSD entry WACLEV is in the monoclinic crystal system
# The framework has been calculated to contain at least 10.0% void space
# The void calculation uses a probe of radius 1.32A, grid spacing 0.4
# The framework is charged, counterions have been retained in the structure
# H atom positions have been added when not included in the experimental data
#
###############################################################################

data_WACLEV
_chemical_formula_moiety         '(C202 H264 Eu8 N32 O64)n'
_symmetry_cell_setting           triclinic
_symmetry_space_group_name_H-M   'P 1'
_symmetry_Int_Tables_number      1
_space_group_name_Hall           'P 1'
loop_
_symmetry_equiv_pos_site_id
_symmetry_equiv_pos_as_xyz
1 x,y,z
_cell_length_a                   15.0230(7)
_cell_length_b                   15.2940(9)
_cell_length_c                   27.7771(13)
_cell_angle_alpha                90
_cell_angle_beta                 104.3500(10)
_cell_angle_gamma                90
_cell_volume                     6182.99
loop_
_atom_site_label
_atom_site_type_symbol
_atom_site_fract_x
_atom_site_fract_y
_atom_site_fract_z
C1 C 0.3097(6) 0.8293(7) 0.3719(4)
H1 H 0.3377 0.8322 0.4081
H2 H 0.3013 0.8900 0.3591
C2 C 0.3746(7) 0.7817(7) 0.3469(4)
H3 H 0.4093 0.8097 0.3271
C3 C 0.1704(7) 0.7857(7) 0.3087(3)
H4 H 0.1643 0.8470 0.2968
H5 H 0.2102 0.7547 0.2907
C4 C 0.0784(7) 0.7445(7) 0.2957(4)
H6 H 0.0380 0.7772 0.3126
H7 H 0.0523 0.7508 0.2595
C5 C 0.1581(7) 0.8294(7) 0.3932(3)
H8 H 0.0958 0.8033 0.3844
H9 H 0.1521 0.8923 0.3847
C6 C 0.1990(8) 0.8194(7) 0.4488(4)
H10 H 0.2602 0.8476 0.4580
H11 H 0.1590 0.8489 0.4672
C7 C 0.3144(7) 0.1261(7) 0.4587(4)
H12 H 0.3228 0.0631 0.4668
H13 H 0.3387 0.1594 0.4898
C8 C 0.3701(7) 0.1492(6) 0.4222(4)
H14 H 0.4351 0.1333 0.4367
H15 H 0.3479 0.1139 0.3917
C9 C 0.1713(7) 0.0868(7) 0.3972(4)
H16 H 0.1723 0.0255 0.4087
H17 H 0.2088 0.0900 0.3725
C10 C 0.0726(7) 0.1123(7) 0.3720(4)
H18 H 0.0512 0.0778 0.3412
H19 H 0.0325 0.0981 0.3944
C11 C 0.1627(7) 0.1295(6) 0.4820(3)
H20 H 0.0968 0.1432 0.4688
H21 H 0.1678 0.0671 0.4919
C12 C 0.2017(8) 0.1862(7) 0.5278(4)
H22 H 0.1640 0.1785 0.5521
H23 H 0.2651 0.1672 0.5438
C13 C 0.4342(7) 0.6663(7) 0.4071(3)
H24 H 0.4687 0.7083 0.4293
C14 C 0.4321(7) 0.5722(7) 0.4196(4)
C15 C 0.5057(7) 0.5182(7) 0.4191(3)
H25 H 0.5587 0.5428 0.4115
C16 C 0.5048(6) 0.4289(7) 0.4292(4)
H26 H 0.5576 0.3943 0.4301
C17 C 0.4250(7) 0.3899(7) 0.4382(4)
C18 C 0.3495(7) 0.4446(7) 0.4374(3)
H27 H 0.2952 0.4198 0.4432
C19 C 0.3518(6) 0.5319(7) 0.4285(3)
H28 H 0.2993 0.5667 0.4282
C20 C 0.4282(8) 0.2941(7) 0.4483(3)
H29 H 0.4919 0.2732 0.4521
H30 H 0.4114 0.2836 0.4801
C21 C 0.1068(7) 0.5981(7) 0.2706(3)
H31 H 0.1696 0.6163 0.2697
H32 H 0.0655 0.6094 0.2375
C22 C 0.1068(7) 0.5003(6) 0.2818(4)
C23 C 0.1721(7) 0.4641(7) 0.3201(4)
H33 H 0.2195 0.4996 0.3395
C24 C 0.1686(7) 0.3736(6) 0.3306(4)
H34 H 0.2142 0.3490 0.3571
C25 C 0.0991(7) 0.3198(6) 0.3026(3)
C26 C 0.0344(8) 0.3600(7) 0.2634(4)
C27 C 0.0397(7) 0.4478(7) 0.2542(4)
C28 C 0.0959(7) 0.2262(6) 0.3144(4)
H37 H 0.1581 0.2012 0.3184
H38 H 0.0544 0.1964 0.2859
C29 C 0.1164(6) 0.6950(7) 0.4692(4)
H39 H 0.1012 0.7270 0.4971
H40 H 0.0679 0.7080 0.4388
C30 C 0.1165(6) 0.5984(7) 0.4795(3)
C31 C 0.1163(7) 0.5385(7) 0.4422(4)
H41 H 0.1176 0.5585 0.4100
C32 C 0.1141(7) 0.4499(7) 0.4514(4)
H42 H 0.1143 0.4101 0.4252
C33 C 0.1117(6) 0.4170(7) 0.4975(4)
C34 C 0.1110(7) 0.4781(7) 0.5348(4)
H43 H 0.1080 0.4584 0.5667
C35 C 0.1148(7) 0.5679(8) 0.5259(4)
H44 H 0.1162 0.6082 0.5521
C36 C 0.1095(7) 0.3215(7) 0.5080(4)
H45 H 0.0647 0.2926 0.4804
H46 H 0.0888 0.3127 0.5388
C37 C 0.4018(6) 0.6351(7) 0.3186(3)
H47 H 0.3589 0.6493 0.2863
H48 H 0.3913 0.5732 0.3260
C38 C 0.5000(6) 0.6432(7) 0.3123(4)
C41 C 0.2824(6) 0.7046(7) 0.5030(3)
H51 H 0.3390 0.7281 0.4957
H52 H 0.2877 0.6401 0.5031
C42 C 0.2832(6) 0.7321(7) 0.5555(3)
C43 C 0.3851(6) 0.2586(7) 0.3607(3)
H53 H 0.3713 0.3209 0.3523
H54 H 0.3414 0.2234 0.3355
C44 C 0.4823(7) 0.2399(7) 0.3546(3)
C47 C 0.2763(7) 0.3301(7) 0.5465(3)
H57 H 0.2803 0.3874 0.5305
H58 H 0.3348 0.2990 0.5482
C48 C 0.2696(6) 0.3473(7) 0.5994(4)
C49 C 0.6887(7) 0.4192(7) 0.3096(4)
H59 H 0.6857 0.4322 0.3426
Eu1 Eu 0.68293(3) 0.63814(3) 0.296629(16)
N1 N 0.2169(5) 0.7856(5) 0.3631(3)
N2 N 0.3776(6) 0.6891(5) 0.3567(3)
H61 H 0.3178 0.6735 0.3567
N3 N 0.0760(5) 0.6512(5) 0.3088(3)
N4 N 0.2079(5) 0.7275(6) 0.4624(3)
N5 N 0.2138(5) 0.1443(5) 0.4407(3)
N6 N 0.3656(5) 0.2422(6) 0.4084(3)
N7 N 0.0646(5) 0.2065(5) 0.3598(3)
H62 H 0.1057 0.2347 0.3857
N8 N 0.2023(6) 0.2800(5) 0.5139(3)
O1 O 0.5501(5) 0.7089(4) 0.3258(2)
O2 O 0.5299(4) 0.5778(4) 0.2918(2)
O3 O 0.5143(5) 0.2900(4) 0.3272(2)
O4 O 0.5314(5) 0.1761(5) 0.3773(3)
O9 O 0.2549(5) 0.8096(5) 0.5637(2)
O10 O 0.3124(5) 0.6820(5) 0.5906(2)
O11 O 0.3077(5) 0.4155(4) 0.6203(2)
O12 O 0.2360(5) 0.2905(5) 0.6231(2)
O13 O 0.7218(5) 0.7884(5) 0.2768(3)
H63 H 0.760(5) 0.783(7) 0.261(3)
H64 H 0.678(5) 0.759(7) 0.264(3)
O14 O 0.6900(5) 0.4832(4) 0.2811(3)
O15 O 0.6911(5) 0.3406(5) 0.2983(2)
Eu5 Eu 0.31707(3) 0.36186(3) 0.703371(16)
Eu6 Eu 0.66644(3) 0.21192(3) 0.343923(16)
Eu8 Eu 0.33356(3) 0.78808(3) 0.656077(16)
O20 O 0.6007(5) 0.6566(5) 0.2131(2)
O21 O 0.8275(5) 0.6169(5) 0.2885(3)
O25 O 0.6923(5) 0.5845(4) 0.3797(2)
O26 O 0.7640(5) 0.7095(5) 0.3769(2)
H65 H 0.318512 0.771591 0.314036
H66 H 0.375268 0.677953 0.42249
H35 H 0.9865 0.3261 0.2432
H36 H 0.9949 0.4730 0.2276
C39 C 0.9894(6) 0.6245(7) 0.3186(3)
H49 H 0.9811 0.6578 0.3477
H50 H 0.9944 0.5620 0.3281
C40 C 0.9040(7) 0.6357(6) 0.2774(4)
C45 C 0.9730(6) 0.2418(7) 0.3595(3)
H55 H 0.9718 0.3043 0.3501
H56 H 0.9652 0.2389 0.3938
C46 C 0.8897(7) 0.1968(7) 0.3250(4)
C50 C 0.7233(9) 0.0045(7) 0.3321(4)
H60 H 0.7539 0.0258 0.3084
O5 O 0.8169(5) 0.2042(5) 0.3387(3)
O6 O 0.8993(5) 0.1566(5) 0.2869(2)
O8 O 0.9083(5) 0.6652(5) 0.2354(2)
O16 O 0.6854(5) 0.0595(5) 0.3528(2)
Eu4 Eu 0.81707(3) 0.13814(3) 0.203371(16)
Eu7 Eu 0.83356(3) 0.71192(3) 0.156077(16)
O22 O 0.5917(5) 0.1652(5) 0.2646(2)
O23 O 0.7451(5) 0.1904(5) 0.4363(2)
O24 O 0.6876(5) 0.3180(5) 0.4094(2)
C1_2 C 0.1903(6) 0.3293(7) 0.1281(4)
H1_2 H 0.1623 0.3322 0.0919
H2_2 H 0.1987 0.3900 0.1409
C2_2 C 0.1254(7) 0.2817(7) 0.1531(4)
H3_2 H 0.0907 0.3097 0.1729
C3_2 C 0.3296(7) 0.2857(7) 0.1913(3)
H4_2 H 0.3357 0.3470 0.2032
H5_2 H 0.2898 0.2547 0.2093
C4_2 C 0.4216(7) 0.2445(7) 0.2043(4)
H6_2 H 0.4620 0.2772 0.1874
H7_2 H 0.4477 0.2508 0.2405
C5_2 C 0.3419(7) 0.3294(7) 0.1068(3)
H8_2 H 0.4042 0.3033 0.1156
H9_2 H 0.3479 0.3923 0.1153
C6_2 C 0.3010(8) 0.3194(7) 0.0512(4)
H10_2 H 0.2398 0.3476 0.0420
H11_2 H 0.3410 0.3489 0.0328
C13_2 C 0.0658(7) 0.1663(7) 0.0929(3)
H24_2 H 0.0313 0.2083 0.0707
C14_2 C 0.0679(7) 0.0722(7) 0.0804(4)
C19_2 C 0.1482(6) 0.0319(7) 0.0715(3)
H28_2 H 0.2007 0.0667 0.0718
C21_2 C 0.3932(7) 0.0981(7) 0.2294(3)
H31_2 H 0.3304 0.1163 0.2303
H32_2 H 0.4345 0.1094 0.2625
C22_2 C 0.3932(7) 0.0003(6) 0.2182(4)
C29_2 C 0.3836(6) 0.1950(7) 0.0308(4)
H39_2 H 0.3988 0.2270 0.0029
H40_2 H 0.4321 0.2080 0.0612
C30_2 C 0.3835(6) 0.0984(7) 0.0205(3)
C31_2 C 0.3837(7) 0.0385(7) 0.0578(4)
H41_2 H 0.3824 0.0585 0.0900
C37_2 C 0.0982(6) 0.1351(7) 0.1814(3)
H47_2 H 0.1411 0.1493 0.2137
H48_2 H 0.1087 0.0732 0.1740
C38_2 C 0.0000(6) 0.1432(7) 0.1877(4)
C39_2 C 0.5106(6) 0.1245(7) 0.1814(3)
H49_2 H 0.5189 0.1578 0.1523
H50_2 H 0.5056 0.0620 0.1719
C40_2 C 0.5960(7) 0.1357(6) 0.2226(4)
H51_2 H 0.1610 0.2281 0.0043
N1_2 N 0.2831(5) 0.2856(5) 0.1369(3)
N2_2 N 0.1224(6) 0.1891(5) 0.1433(3)
H61_2 H 0.1822 0.1735 0.1433
N3_2 N 0.4240(5) 0.1512(5) 0.1912(3)
N4_2 N 0.2921(5) 0.2275(6) 0.0376(3)
O7 O 0.6725(5) 0.1169(5) 0.2115(3)
H65_2 H 0.181488 0.271591 0.185964
H66_2 H 0.124732 0.177953 0.0775105
C35_2 C 0.3852(7) 0.0679(8) 0.9741(4)
H44_2 H 0.3838 0.1082 0.9479
C41_2 C 0.2176(6) 0.2046(7) 0.9970(3)
H52_2 H 0.2123 0.1401 0.9969
C42_2 C 0.2168(6) 0.2321(7) 0.9445(3)
O9_2 O 0.2451(5) 0.3096(5) 0.9363(2)
O10_2 O 0.1876(5) 0.1820(5) 0.9094(2)
Eu8_2 Eu 0.16644(3) 0.28808(3) 0.843923(16)
C7_2 C 0.1856(7) 0.6261(7) 0.0413(4)
H12_2 H 0.1772 0.5631 0.0332
H13_2 H 0.1613 0.6594 0.0102
C8_2 C 0.1299(7) 0.6492(6) 0.0778(4)
H14_2 H 0.0649 0.6333 0.0633
H15_2 H 0.1521 0.6139 0.1083
C9_2 C 0.3287(7) 0.5868(7) 0.1028(4)
H16_2 H 0.3277 0.5255 0.0913
H17_2 H 0.2912 0.5900 0.1275
C10_2 C 0.4274(7) 0.6123(7) 0.1280(4)
H18_2 H 0.4488 0.5778 0.1588
H19_2 H 0.4675 0.5981 0.1056
C11_2 C 0.3373(7) 0.6295(6) 0.0180(3)
H20_2 H 0.4032 0.6432 0.0312
H21_2 H 0.3322 0.5671 0.0081
C17_2 C 0.0750(7) 0.8899(7) 0.0618(4)
C18_2 C 0.1505(7) 0.9446(7) 0.0626(3)
H27_2 H 0.2048 0.9198 0.0568
C20_2 C 0.0718(8) 0.7941(7) 0.0517(3)
H29_2 H 0.0081 0.7732 0.0479
H30_2 H 0.0886 0.7836 0.0199
C23_2 C 0.3279(7) 0.9641(7) 0.1799(4)
H33_2 H 0.2805 0.9996 0.1605
C24_2 C 0.3314(7) 0.8736(6) 0.1694(4)
H34_2 H 0.2858 0.8490 0.1429
C25_2 C 0.4009(7) 0.8198(6) 0.1974(3)
C26_2 C 0.4656(8) 0.8600(7) 0.2366(4)
H35_2 H 0.5135 0.8261 0.2568
C27_2 C 0.4603(7) 0.9478(7) 0.2458(4)
H36_2 H 0.5051 0.9730 0.2724
C28_2 C 0.4041(7) 0.7262(6) 0.1856(4)
H37_2 H 0.3419 0.7012 0.1816
H38_2 H 0.4456 0.6964 0.2141
C32_2 C 0.3859(7) 0.9499(7) 0.0486(4)
H42_2 H 0.3857 0.9101 0.0748
C33_2 C 0.3883(6) 0.9170(7) 0.0025(4)
H45_2 H 0.4353 0.7926 0.0196
C43_2 C 0.1149(6) 0.7586(7) 0.1393(3)
H53_2 H 0.1287 0.8209 0.1477
H54_2 H 0.1586 0.7234 0.1645
C44_2 C 0.0177(7) 0.7399(7) 0.1454(3)
C45_2 C 0.5270(6) 0.7418(7) 0.1405(3)
H55_2 H 0.5282 0.8043 0.1499
H56_2 H 0.5348 0.7389 0.1062
C46_2 C 0.6103(7) 0.6968(7) 0.1750(4)
C50_2 C 0.7767(9) 0.5045(7) 0.1679(4)
H60_2 H 0.7461 0.5258 0.1916
N5_2 N 0.2862(5) 0.6443(5) 0.0593(3)
N6_2 N 0.1344(5) 0.7422(6) 0.0916(3)
N7_2 N 0.4354(5) 0.7065(5) 0.1402(3)
H62_2 H 0.3943 0.7347 0.1143
O5_2 O 0.6831(5) 0.7042(5) 0.1613(3)
O16_2 O 0.8146(5) 0.5595(5) 0.1472(2)
O17 O 0.7745(6) 0.4241(6) 0.1610(3)
O18 O 0.9857(5) 0.7900(4) 0.1728(2)
O19 O 0.9686(5) 0.6761(5) 0.1227(3)
O23_2 O 0.7549(5) 0.6904(5) 0.0637(2)
O24_2 O 0.8124(5) 0.8180(5) 0.0906(2)
O27 O 0.8089(5) 0.8406(5) 0.2017(2)
C12_2 C 0.2983(8) 0.6862(7) 0.9722(4)
H22_2 H 0.3360 0.6785 0.9479
H23_2 H 0.2349 0.6672 0.9562
C34_2 C 0.3890(7) 0.9781(7) 0.9652(4)
H43_2 H 0.3920 0.9584 0.9333
C36_2 C 0.3905(7) 0.8215(7) 0.9920(4)
H46_2 H 0.4112 0.8127 0.9612
C47_2 C 0.2237(7) 0.8301(7) 0.9535(3)
H57_2 H 0.2197 0.8874 0.9695
H58_2 H 0.1652 0.7990 0.9518
C48_2 C 0.2304(6) 0.8473(7) 0.9006(4)
N8_2 N 0.2977(6) 0.7800(5) 0.9861(3)
O11_2 O 0.1923(5) 0.9155(4) 0.8797(2)
O12_2 O 0.2640(5) 0.7905(5) 0.8769(2)
Eu5_2 Eu 0.18293(3) 0.86186(3) 0.796629(16)
C15_2 C 0.9943(7) 0.0182(7) 0.0809(3)
H25_2 H 0.9413 0.0428 0.0885
C38_3 C 1.0000(6) 0.1432(7) 0.1877(4)
O1_2 O 0.9499(5) 0.2089(4) 0.1742(2)
O2_2 O 0.9701(4) 0.0778(4) 0.2082(2)
O13_2 O 0.7782(5) 0.2884(5) 0.2232(3)
H63_2 H 0.740(5) 0.283(7) 0.239(3)
H64_2 H 0.822(5) 0.259(7) 0.236(3)
O25_2 O 0.8077(5) 0.0845(4) 0.1203(2)
O26_2 O 0.7360(5) 0.2095(5) 0.1231(2)
C16_2 C 0.9952(6) 0.9289(7) 0.0708(4)
H26_2 H 0.9424 0.8943 0.0699
C49_2 C 0.8113(7) 0.9192(7) 0.1904(4)
H59_2 H 0.8143 0.9322 0.1574
O14_2 O 0.8100(5) 0.9832(4) 0.2189(3)
H35_3 H 0.0135 0.6739 0.7568
H36_3 H 0.0051 0.5270 0.7724
C39_3 C 0.0106(6) 0.3755(7) 0.6814(3)
H49_3 H 0.0189 0.3422 0.6523
H50_3 H 0.0056 0.4380 0.6719
C40_3 C 0.0960(7) 0.3643(6) 0.7226(4)
C45_3 C 0.0270(6) 0.7582(7) 0.6405(3)
H55_3 H 0.0282 0.6957 0.6499
H56_3 H 0.0348 0.7611 0.6062
C46_3 C 0.1103(7) 0.8032(7) 0.6750(4)
C50_3 C 0.2767(9) 0.9955(7) 0.6679(4)
H60_3 H 0.2461 0.9742 0.6916
O5_3 O 0.1831(5) 0.7958(5) 0.6613(3)
O6_2 O 0.1007(5) 0.8434(5) 0.7131(2)
O7_2 O 0.1725(5) 0.3831(5) 0.7115(3)
O8_2 O 0.0917(5) 0.3348(5) 0.7646(2)
O16_3 O 0.3146(5) 0.9405(5) 0.6472(2)
O18_2 O 0.4857(5) 0.7100(4) 0.6728(2)
O19_2 O 0.4686(5) 0.8239(5) 0.6227(3)
O22_2 O 0.4083(5) 0.8348(5) 0.7354(2)
O27_2 O 0.3089(5) 0.6594(5) 0.7017(2)
C1_3 C 0.6903(6) 0.1707(7) 0.6281(4)
H1_3 H 0.6623 0.1678 0.5919
H2_3 H 0.6987 0.1100 0.6409
C2_3 C 0.6254(7) 0.2183(7) 0.6531(4)
H3_3 H 0.5907 0.1903 0.6729
C3_3 C 0.8296(7) 0.2143(7) 0.6913(3)
H4_3 H 0.8357 0.1530 0.7032
H5_3 H 0.7898 0.2453 0.7093
C4_3 C 0.9216(7) 0.2555(7) 0.7043(4)
H6_3 H 0.9620 0.2228 0.6874
H7_3 H 0.9477 0.2492 0.7405
C5_3 C 0.8419(7) 0.1706(7) 0.6068(3)
H8_3 H 0.9042 0.1967 0.6156
H9_3 H 0.8479 0.1077 0.6153
C6_3 C 0.8010(8) 0.1806(7) 0.5512(4)
H10_3 H 0.7398 0.1524 0.5420
H11_3 H 0.8410 0.1511 0.5328
C7_3 C 0.6856(7) 0.8739(7) 0.5413(4)
H12_3 H 0.6772 0.9369 0.5332
H13_3 H 0.6613 0.8406 0.5102
C8_3 C 0.6299(7) 0.8508(6) 0.5778(4)
H14_3 H 0.5649 0.8667 0.5633
H15_3 H 0.6521 0.8861 0.6083
C9_3 C 0.8287(7) 0.9132(7) 0.6028(4)
H16_3 H 0.8277 0.9745 0.5913
H17_3 H 0.7912 0.9100 0.6275
C10_3 C 0.9274(7) 0.8877(7) 0.6280(4)
H18_3 H 0.9488 0.9222 0.6588
H19_3 H 0.9675 0.9019 0.6056
C11_3 C 0.8373(7) 0.8705(6) 0.5180(3)
H20_3 H 0.9032 0.8568 0.5312
H21_3 H 0.8322 0.9329 0.5081
C12_3 C 0.7983(8) 0.8138(7) 0.4722(4)
H22_3 H 0.8360 0.8215 0.4479
H23_3 H 0.7349 0.8328 0.4562
C13_3 C 0.5658(7) 0.3337(7) 0.5929(3)
H24_3 H 0.5313 0.2917 0.5707
C14_3 C 0.5679(7) 0.4278(7) 0.5804(4)
C15_3 C 0.4943(7) 0.4818(7) 0.5809(3)
H25_3 H 0.4413 0.4572 0.5885
C16_3 C 0.4952(6) 0.5711(7) 0.5708(4)
H26_3 H 0.4424 0.6057 0.5699
C17_3 C 0.5750(7) 0.6101(7) 0.5618(4)
C18_3 C 0.6505(7) 0.5554(7) 0.5626(3)
H27_3 H 0.7048 0.5802 0.5568
C19_3 C 0.6482(6) 0.4681(7) 0.5715(3)
H28_3 H 0.7007 0.4333 0.5718
C20_3 C 0.5718(8) 0.7059(7) 0.5517(3)
H29_3 H 0.5081 0.7268 0.5479
H30_3 H 0.5886 0.7164 0.5199
C21_3 C 0.8932(7) 0.4019(7) 0.7294(3)
H31_3 H 0.8304 0.3837 0.7303
H32_3 H 0.9345 0.3906 0.7625
C22_3 C 0.8932(7) 0.4997(6) 0.7182(4)
C23_3 C 0.8279(7) 0.5359(7) 0.6799(4)
H33_3 H 0.7805 0.5004 0.6605
C24_3 C 0.8314(7) 0.6264(6) 0.6694(4)
H34_3 H 0.7858 0.6510 0.6429
C25_3 C 0.9009(7) 0.6802(6) 0.6974(3)
C26_3 C 0.9656(8) 0.6400(7) 0.7366(4)
C27_3 C 0.9603(7) 0.5522(7) 0.7458(4)
C28_3 C 0.9041(7) 0.7738(6) 0.6856(4)
H37_3 H 0.8419 0.7988 0.6816
H38_3 H 0.9456 0.8036 0.7141
C29_3 C 0.8836(6) 0.3050(7) 0.5308(4)
H39_3 H 0.8988 0.2730 0.5029
H40_3 H 0.9321 0.2920 0.5612
C30_3 C 0.8835(6) 0.4016(7) 0.5205(3)
C31_3 C 0.8837(7) 0.4615(7) 0.5578(4)
H41_3 H 0.8824 0.4415 0.5900
C32_3 C 0.8859(7) 0.5501(7) 0.5486(4)
H42_3 H 0.8857 0.5899 0.5748
C33_3 C 0.8883(6) 0.5830(7) 0.5025(4)
C34_3 C 0.8890(7) 0.5219(7) 0.4652(4)
H43_3 H 0.8920 0.5416 0.4333
C35_3 C 0.8852(7) 0.4321(8) 0.4741(4)
H44_3 H 0.8838 0.3918 0.4479
C36_3 C 0.8905(7) 0.6785(7) 0.4920(4)
H45_3 H 0.9353 0.7074 0.5196
H46_3 H 0.9112 0.6873 0.4612
C37_3 C 0.5982(6) 0.3649(7) 0.6814(3)
H47_3 H 0.6411 0.3507 0.7137
H48_3 H 0.6087 0.4268 0.6740
C38_4 C 0.5000(6) 0.3568(7) 0.6877(4)
C41_3 C 0.7176(6) 0.2954(7) 0.4970(3)
H51_3 H 0.6610 0.2719 0.5043
H52_3 H 0.7123 0.3599 0.4969
C42_3 C 0.7168(6) 0.2679(7) 0.4445(3)
C43_3 C 0.6149(6) 0.7414(7) 0.6393(3)
H53_3 H 0.6287 0.6791 0.6477
H54_3 H 0.6586 0.7766 0.6645
C44_3 C 0.5177(7) 0.7601(7) 0.6454(3)
C47_3 C 0.7237(7) 0.6699(7) 0.4535(3)
H57_3 H 0.7197 0.6126 0.4695
H58_3 H 0.6652 0.7010 0.4518
C48_3 C 0.7304(6) 0.6527(7) 0.4006(4)
C49_3 C 0.3113(7) 0.5808(7) 0.6904(4)
H59_3 H 0.3143 0.5678 0.6574
N1_3 N 0.7831(5) 0.2144(5) 0.6369(3)
N2_3 N 0.6224(6) 0.3109(5) 0.6433(3)
H61_3 H 0.6822 0.3265 0.6433
N3_3 N 0.9240(5) 0.3488(5) 0.6912(3)
N4_3 N 0.7921(5) 0.2725(6) 0.5376(3)
N5_3 N 0.7862(5) 0.8557(5) 0.5593(3)
N6_3 N 0.6344(5) 0.7578(6) 0.5916(3)
N7_3 N 0.9354(5) 0.7935(5) 0.6402(3)
H62_3 H 0.8943 0.7653 0.6143
N8_3 N 0.7977(6) 0.7200(5) 0.4861(3)
O1_3 O 0.4499(5) 0.2911(4) 0.6742(2)
O2_3 O 0.4701(4) 0.4222(4) 0.7082(2)
O13_3 O 0.2782(5) 0.2116(5) 0.7232(3)
H63_3 H 0.240(5) 0.217(7) 0.739(3)
H64_3 H 0.322(5) 0.241(7) 0.736(3)
O14_3 O 0.3100(5) 0.5168(4) 0.7189(3)
O20_2 O 0.3993(5) 0.3434(5) 0.7869(2)
H65_3 H 0.681488 0.228409 0.685964
H66_3 H 0.624732 0.322047 0.57751
C16_4 C 0.0048(6) 0.0711(7) 0.9292(4)
H26_4 H 0.0576 0.1057 0.9301
C49_4 C 0.1887(7) 0.0808(7) 0.8096(4)
H59_4 H 0.1857 0.0678 0.8426
O3_2 O 0.0143(5) 0.2100(4) 0.8272(2)
O4_2 O 0.0314(5) 0.3239(5) 0.8773(3)
O14_4 O 0.1900(5) 0.0168(4) 0.7811(3)
O15_2 O 0.1911(5) 0.1594(5) 0.7983(2)
C15_4 C 0.0057(7) 0.9818(7) 0.9191(3)
H25_4 H 0.0587 0.9572 0.9115
C38_5 C 0.0000(6) 0.8568(7) 0.8123(4)
O1_4 O 0.0501(5) 0.7911(4) 0.8258(2)
O2_4 O 0.0299(4) 0.9222(4) 0.7918(2)
O13_4 O 0.2218(5) 0.7116(5) 0.7768(3)
H63_4 H 0.260(5) 0.717(7) 0.761(3)
H64_4 H 0.178(5) 0.741(7) 0.764(3)
O21_2 O 0.3275(5) 0.8831(5) 0.7885(3)
C12_4 C 0.7017(8) 0.3138(7) 0.0278(4)
H22_4 H 0.6640 0.3215 0.0521
H23_4 H 0.7651 0.3328 0.0438
C34_4 C 0.6110(7) 0.0219(7) 0.0348(4)
H43_4 H 0.6080 0.0416 0.0667
C36_4 C 0.6095(7) 0.1785(7) 0.0080(4)
H46_4 H 0.5888 0.1873 0.0388
C47_4 C 0.7763(7) 0.1699(7) 0.0465(3)
H57_4 H 0.7803 0.1126 0.0305
H58_4 H 0.8348 0.2010 0.0482
C48_4 C 0.7696(6) 0.1527(7) 0.0994(4)
N8_4 N 0.7023(6) 0.2200(5) 0.0139(3)
C7_4 C 0.8144(7) 0.3739(7) 0.9587(4)
H12_4 H 0.8228 0.4369 0.9668
H13_4 H 0.8387 0.3406 0.9898
C8_4 C 0.8701(7) 0.3508(6) 0.9222(4)
H14_4 H 0.9351 0.3667 0.9367
H15_4 H 0.8479 0.3861 0.8917
C9_4 C 0.6713(7) 0.4132(7) 0.8972(4)
H16_4 H 0.6723 0.4745 0.9087
H17_4 H 0.7088 0.4100 0.8725
C10_4 C 0.5726(7) 0.3877(7) 0.8720(4)
H18_4 H 0.5512 0.4222 0.8412
H19_4 H 0.5325 0.4019 0.8944
C11_4 C 0.6627(7) 0.3705(6) 0.9820(3)
H20_4 H 0.5968 0.3568 0.9688
H21_4 H 0.6678 0.4329 0.9919
C17_4 C 0.9250(7) 0.1101(7) 0.9382(4)
C18_4 C 0.8495(7) 0.0554(7) 0.9374(3)
H27_4 H 0.7952 0.0802 0.9432
C20_4 C 0.9282(8) 0.2059(7) 0.9483(3)
H29_4 H 0.9919 0.2268 0.9521
H30_4 H 0.9114 0.2164 0.9801
C23_4 C 0.6721(7) 0.0359(7) 0.8201(4)
H33_4 H 0.7195 0.0004 0.8395
C24_4 C 0.6686(7) 0.1264(6) 0.8306(4)
H34_4 H 0.7142 0.1510 0.8571
C25_4 C 0.5991(7) 0.1802(6) 0.8026(3)
C26_4 C 0.5344(8) 0.1400(7) 0.7634(4)
H35_4 H 0.4865 0.1739 0.7432
C27_4 C 0.5397(7) 0.0522(7) 0.7542(4)
H36_4 H 0.4949 0.0270 0.7276
C28_4 C 0.5959(7) 0.2738(6) 0.8144(4)
H37_4 H 0.6581 0.2988 0.8184
H38_4 H 0.5544 0.3036 0.7859
C32_4 C 0.6141(7) 0.0501(7) 0.9514(4)
H42_4 H 0.6143 0.0899 0.9252
C33_4 C 0.6117(6) 0.0830(7) 0.9975(4)
H45_4 H 0.5647 0.2074 0.9804
C43_4 C 0.8851(6) 0.2414(7) 0.8607(3)
H53_4 H 0.8713 0.1791 0.8523
H54_4 H 0.8414 0.2766 0.8355
C44_4 C 0.9823(7) 0.2601(7) 0.8546(3)
C45_4 C 0.4730(6) 0.2582(7) 0.8595(3)
H55_4 H 0.4718 0.1957 0.8501
H56_4 H 0.4652 0.2611 0.8938
C46_4 C 0.3897(7) 0.3032(7) 0.8250(4)
C50_4 C 0.2233(9) 0.4955(7) 0.8321(4)
H60_4 H 0.2539 0.4742 0.8084
N5_4 N 0.7138(5) 0.3557(5) 0.9407(3)
N6_4 N 0.8656(5) 0.2578(6) 0.9084(3)
N7_4 N 0.5646(5) 0.2935(5) 0.8598(3)
H62_4 H 0.6057 0.2653 0.8857
O5_4 O 0.3169(5) 0.2958(5) 0.8387(3)
O16_4 O 0.1854(5) 0.4405(5) 0.8528(2)
O17_2 O 0.2255(6) 0.5759(6) 0.8390(3)
C35_4 C 0.6148(7) 0.9321(8) 0.0259(4)
H44_4 H 0.6162 0.8918 0.0521
C41_4 C 0.7824(6) 0.7954(7) 0.0030(3)
H52_4 H 0.7877 0.8599 0.0031
C42_4 C 0.7832(6) 0.7679(7) 0.0555(3)
C1_4 C 0.8097(6) 0.6707(7) 0.8719(4)
H1_4 H 0.8377 0.6678 0.9081
H2_4 H 0.8013 0.6100 0.8591
C2_4 C 0.8746(7) 0.7183(7) 0.8469(4)
H3_4 H 0.9093 0.6903 0.8271
C3_4 C 0.6704(7) 0.7143(7) 0.8087(3)
H4_4 H 0.6643 0.6530 0.7968
H5_4 H 0.7102 0.7453 0.7907
C4_4 C 0.5784(7) 0.7555(7) 0.7957(4)
H6_4 H 0.5380 0.7228 0.8126
H7_4 H 0.5523 0.7492 0.7595
C5_4 C 0.6581(7) 0.6706(7) 0.8932(3)
H8_4 H 0.5958 0.6967 0.8844
H9_4 H 0.6521 0.6077 0.8847
C6_4 C 0.6990(8) 0.6806(7) 0.9488(4)
H10_4 H 0.7602 0.6524 0.9580
H11_4 H 0.6590 0.6511 0.9672
C13_4 C 0.9342(7) 0.8337(7) 0.9071(3)
H24_4 H 0.9687 0.7917 0.9293
C14_4 C 0.9321(7) 0.9278(7) 0.9196(4)
C19_4 C 0.8518(6) 0.9681(7) 0.9285(3)
H28_4 H 0.7993 0.9333 0.9282
C21_4 C 0.6068(7) 0.9019(7) 0.7706(3)
H31_4 H 0.6696 0.8837 0.7697
H32_4 H 0.5655 0.8906 0.7375
C22_4 C 0.6068(7) 0.9997(6) 0.7818(4)
C29_4 C 0.6164(6) 0.8050(7) 0.9692(4)
H39_4 H 0.6012 0.7730 0.9971
H40_4 H 0.5679 0.7920 0.9388
C30_4 C 0.6165(6) 0.9016(7) 0.9795(3)
C31_4 C 0.6163(7) 0.9615(7) 0.9422(4)
H41_4 H 0.6176 0.9415 0.9100
C37_4 C 0.9018(6) 0.8649(7) 0.8186(3)
H47_4 H 0.8589 0.8507 0.7863
H48_4 H 0.8913 0.9268 0.8260
C38_6 C 1.0000(6) 0.8568(7) 0.8123(4)
C39_4 C 0.4894(6) 0.8755(7) 0.8186(3)
H49_4 H 0.4811 0.8422 0.8477
H50_4 H 0.4944 0.9380 0.8281
C40_4 C 0.4040(7) 0.8643(6) 0.7774(4)
H51_4 H 0.8390 0.7719 0.9957
N1_4 N 0.7169(5) 0.7144(5) 0.8631(3)
N2_4 N 0.8776(6) 0.8109(5) 0.8567(3)
H61_4 H 0.8178 0.8265 0.8567
N3_4 N 0.5760(5) 0.8488(5) 0.8088(3)
N4_4 N 0.7079(5) 0.7725(6) 0.9624(3)
H65_4 H 0.818512 0.728409 0.814036
H66_4 H 0.875268 0.822047 0.92249
O17_3 O 0.7255(6) 0.9241(6) 0.3390(3)
O17_4 O 0.2745(6) 0.0759(6) 0.6610(3)
loop_
_geom_bond_atom_site_label_1
_geom_bond_atom_site_label_2
_geom_bond_site_symmetry_1
_geom_bond_site_symmetry_2
C1 H1 1_555 1_555
H2 C1 1_555 1_555
C2 C1 1_555 1_555
H3 C2 1_555 1_555
C3 H4 1_555 1_555
H5 C3 1_555 1_555
C4 C3 1_555 1_555
H6 C4 1_555 1_555
H7 C4 1_555 1_555
C5 H8 1_555 1_555
H9 C5 1_555 1_555
C6 C5 1_555 1_555
H10 C6 1_555 1_555
H11 C6 1_555 1_555
C7 H12 1_555 1_555
H13 C7 1_555 1_555
C8 C7 1_555 1_555
H14 C8 1_555 1_555
H15 C8 1_555 1_555
C9 H16 1_555 1_555
H17 C9 1_555 1_555
C10 C9 1_555 1_555
H18 C10 1_555 1_555
H19 C10 1_555 1_555
C11 H20 1_555 1_555
H21 C11 1_555 1_555
C12 C11 1_555 1_555
H22 C12 1_555 1_555
H23 C12 1_555 1_555
C13 H24 1_555 1_555
C14 C13 1_555 1_555
C15 C14 1_555 1_555
H25 C15 1_555 1_555
C16 C15 1_555 1_555
H26 C16 1_555 1_555
C17 C16 1_555 1_555
C18 C17 1_555 1_555
H27 C18 1_555 1_555
C19 C14 1_555 1_555
H28 C19 1_555 1_555
C20 C17 1_555 1_555
H29 C20 1_555 1_555
H30 C20 1_555 1_555
C21 H31 1_555 1_555
H32 C21 1_555 1_555
C22 C21 1_555 1_555
C23 C22 1_555 1_555
H33 C23 1_555 1_555
C24 C23 1_555 1_555
H34 C24 1_555 1_555
C25 C24 1_555 1_555
C26 C25 1_555 1_555
C27 C22 1_555 1_555
C28 C25 1_555 1_555
H37 C28 1_555 1_555
H38 C28 1_555 1_555
C29 H39 1_555 1_555
H40 C29 1_555 1_555
C30 C29 1_555 1_555
C31 C30 1_555 1_555
H41 C31 1_555 1_555
C32 C31 1_555 1_555
H42 C32 1_555 1_555
C33 C32 1_555 1_555
C34 C33 1_555 1_555
H43 C34 1_555 1_555
C35 C30 1_555 1_555
H44 C35 1_555 1_555
C36 C33 1_555 1_555
H45 C36 1_555 1_555
H46 C36 1_555 1_555
C37 H47 1_555 1_555
H48 C37 1_555 1_555
C38 C37 1_555 1_555
C41 H51 1_555 1_555
H52 C41 1_555 1_555
C42 C41 1_555 1_555
C43 H53 1_555 1_555
H54 C43 1_555 1_555
C44 C43 1_555 1_555
C47 H57 1_555 1_555
H58 C47 1_555 1_555
C48 C47 1_555 1_555
C49 H59 1_555 1_555
Eu1 O1 1_555 1_555
N1 C1 1_555 1_555
N2 C2 1_555 1_555
H61 N2 1_555 1_555
N3 C4 1_555 1_555
N4 C6 1_555 1_555
N5 C7 1_555 1_555
N6 C8 1_555 1_555
N7 C10 1_555 1_555
H62 N7 1_555 1_555
N8 C12 1_555 1_555
O1 C38 1_555 1_555
O2 C38 1_555 1_555
O3 C44 1_555 1_555
O4 C44 1_555 1_555
O9 C42 1_555 1_555
O10 C42 1_555 1_555
O11 C48 1_555 1_555
O12 C48 1_555 1_555
O13 Eu1 1_555 1_555
H63 O13 1_555 1_555
H64 O13 1_555 1_555
O14 C49 1_555 1_555
O15 C49 1_555 1_555
Eu5 O11 1_555 1_555
Eu6 O3 1_555 1_555
Eu8 O9 1_555 1_555
O20 Eu1 1_555 1_555
O21 Eu1 1_555 1_555
O25 Eu1 1_555 1_555
O26 Eu1 1_555 1_555
C3 N1 1_555 1_555
C5 N1 1_555 1_555
C9 N5 1_555 1_555
C11 N5 1_555 1_555
C13 N2 1_555 1_555
C18 C19 1_555 1_555
C20 N6 1_555 1_555
C21 N3 1_555 1_555
C26 C27 1_555 1_555
C28 N7 1_555 1_555
C29 N4 1_555 1_555
C34 C35 1_555 1_555
C36 N8 1_555 1_555
C37 N2 1_555 1_555
C41 N4 1_555 1_555
C43 N6 1_555 1_555
C47 N8 1_555 1_555
Eu1 O2 1_555 1_555
Eu1 O14 1_555 1_555
O4 Eu6 1_555 1_555
O10 Eu8 1_555 1_555
O12 Eu5 1_555 1_555
O15 Eu6 1_555 1_555
C2 H65 1_555 1_555
C13 H66 1_555 1_555
C39 H49 1_555 1_555
H50 C39 1_555 1_555
C40 C39 1_555 1_555
C45 H55 1_555 1_555
H56 C45 1_555 1_555
C46 C45 1_555 1_555
C50 H60 1_555 1_555
Eu6 O5 1_555 1_555
O5 C46 1_555 1_555
O6 C46 1_555 1_555
O21 C40 1_555 1_555
O8 C40 1_555 1_555
O16 C50 1_555 1_555
Eu4 O6 1_555 1_555
Eu7 O8 1_555 1_555
O22 Eu6 1_555 1_555
O23 Eu6 1_555 1_555
O24 Eu6 1_555 1_555
Eu6 O16 1_555 1_555
C1_2 H1_2 1_555 1_555
H2_2 C1_2 1_555 1_555
C2_2 C1_2 1_555 1_555
H3_2 C2_2 1_555 1_555
C3_2 H4_2 1_555 1_555
H5_2 C3_2 1_555 1_555
C4_2 C3_2 1_555 1_555
H6_2 C4_2 1_555 1_555
H7_2 C4_2 1_555 1_555
C5_2 H8_2 1_555 1_555
H9_2 C5_2 1_555 1_555
C6_2 C5_2 1_555 1_555
H10_2 C6_2 1_555 1_555
H11_2 C6_2 1_555 1_555
C13_2 H24_2 1_555 1_555
C14_2 C13_2 1_555 1_555
C19_2 C14_2 1_555 1_555
H28_2 C19_2 1_555 1_555
C21_2 H31_2 1_555 1_555
H32_2 C21_2 1_555 1_555
C22_2 C21_2 1_555 1_555
C29_2 H39_2 1_555 1_555
H40_2 C29_2 1_555 1_555
C30_2 C29_2 1_555 1_555
C31_2 C30_2 1_555 1_555
H41_2 C31_2 1_555 1_555
C37_2 H47_2 1_555 1_555
H48_2 C37_2 1_555 1_555
C38_2 C37_2 1_555 1_555
C39_2 H49_2 1_555 1_555
H50_2 C39_2 1_555 1_555
C40_2 C39_2 1_555 1_555
N1_2 C1_2 1_555 1_555
N2_2 C2_2 1_555 1_555
H61_2 N2_2 1_555 1_555
N3_2 C4_2 1_555 1_555
N4_2 C6_2 1_555 1_555
O7 C40_2 1_555 1_555
O22 C40_2 1_555 1_555
Eu4 O7 1_555 1_555
C3_2 N1_2 1_555 1_555
C5_2 N1_2 1_555 1_555
C13_2 N2_2 1_555 1_555
C21_2 N3_2 1_555 1_555
C29_2 N4_2 1_555 1_555
C37_2 N2_2 1_555 1_555
C39_2 N3_2 1_555 1_555
C2_2 H65_2 1_555 1_555
C13_2 H66_2 1_555 1_555
H44_2 C35_2 1_555 1_555
H52_2 C41_2 1_555 1_555
C42_2 C41_2 1_555 1_555
O9_2 C42_2 1_555 1_555
O10_2 C42_2 1_555 1_555
Eu8_2 O9_2 1_555 1_555
O10_2 Eu8_2 1_555 1_555
C7_2 H12_2 1_555 1_555
H13_2 C7_2 1_555 1_555
C8_2 C7_2 1_555 1_555
H14_2 C8_2 1_555 1_555
H15_2 C8_2 1_555 1_555
C9_2 H16_2 1_555 1_555
H17_2 C9_2 1_555 1_555
C10_2 C9_2 1_555 1_555
H18_2 C10_2 1_555 1_555
H19_2 C10_2 1_555 1_555
C11_2 H20_2 1_555 1_555
H21_2 C11_2 1_555 1_555
C18_2 C17_2 1_555 1_555
H27_2 C18_2 1_555 1_555
C20_2 C17_2 1_555 1_555
H29_2 C20_2 1_555 1_555
H30_2 C20_2 1_555 1_555
H33_2 C23_2 1_555 1_555
C24_2 C23_2 1_555 1_555
H34_2 C24_2 1_555 1_555
C25_2 C24_2 1_555 1_555
C26_2 C25_2 1_555 1_555
H35_2 C26_2 1_555 1_555
H36_2 C27_2 1_555 1_555
C28_2 C25_2 1_555 1_555
H37_2 C28_2 1_555 1_555
H38_2 C28_2 1_555 1_555
H42_2 C32_2 1_555 1_555
C33_2 C32_2 1_555 1_555
C43_2 H53_2 1_555 1_555
H54_2 C43_2 1_555 1_555
C44_2 C43_2 1_555 1_555
C45_2 H55_2 1_555 1_555
H56_2 C45_2 1_555 1_555
C46_2 C45_2 1_555 1_555
C50_2 H60_2 1_555 1_555
Eu7 O5_2 1_555 1_555
N5_2 C7_2 1_555 1_555
N6_2 C8_2 1_555 1_555
N7_2 C10_2 1_555 1_555
H62_2 N7_2 1_555 1_555
O5_2 C46_2 1_555 1_555
O20 C46_2 1_555 1_555
O16_2 C50_2 1_555 1_555
O17 C50_2 1_555 1_555
O18 Eu7 1_555 1_555
O19 Eu7 1_555 1_555
O23_2 Eu7 1_555 1_555
O24_2 Eu7 1_555 1_555
O27 Eu7 1_555 1_555
C9_2 N5_2 1_555 1_555
C11_2 N5_2 1_555 1_555
C20_2 N6_2 1_555 1_555
C26_2 C27_2 1_555 1_555
C28_2 N7_2 1_555 1_555
C43_2 N6_2 1_555 1_555
C45_2 N7_2 1_555 1_555
Eu7 O16_2 1_555 1_555
H22_2 C12_2 1_555 1_555
H23_2 C12_2 1_555 1_555
H43_2 C34_2 1_555 1_555
H46_2 C36_2 1_555 1_555
C47_2 H57_2 1_555 1_555
H58_2 C47_2 1_555 1_555
C48_2 C47_2 1_555 1_555
N8_2 C12_2 1_555 1_555
O11_2 C48_2 1_555 1_555
O12_2 C48_2 1_555 1_555
Eu5_2 O11_2 1_555 1_555
C36_2 N8_2 1_555 1_555
C47_2 N8_2 1_555 1_555
O12_2 Eu5_2 1_555 1_555
H25_2 C15_2 1_555 1_555
Eu4 O1_2 1_555 1_555
O1_2 C38_3 1_555 1_555
O2_2 C38_3 1_555 1_555
O13_2 Eu4 1_555 1_555
H63_2 O13_2 1_555 1_555
H64_2 O13_2 1_555 1_555
O25_2 Eu4 1_555 1_555
O26_2 Eu4 1_555 1_555
Eu4 O2_2 1_555 1_555
H26_2 C16_2 1_555 1_555
C49_2 H59_2 1_555 1_555
O14_2 C49_2 1_555 1_555
O27 C49_2 1_555 1_555
C39_3 H49_3 1_555 1_555
H50_3 C39_3 1_555 1_555
C40_3 C39_3 1_555 1_555
C45_3 H55_3 1_555 1_555
H56_3 C45_3 1_555 1_555
C46_3 C45_3 1_555 1_555
C50_3 H60_3 1_555 1_555
Eu8 O5_3 1_555 1_555
O5_3 C46_3 1_555 1_555
O6_2 C46_3 1_555 1_555
O7_2 C40_3 1_555 1_555
O8_2 C40_3 1_555 1_555
O16_3 C50_3 1_555 1_555
Eu5 O7_2 1_555 1_555
Eu5_2 O6_2 1_555 1_555
Eu8_2 O8_2 1_555 1_555
O18_2 Eu8 1_555 1_555
O19_2 Eu8 1_555 1_555
O22_2 Eu8 1_555 1_555
O27_2 Eu8 1_555 1_555
Eu8 O16_3 1_555 1_555
C1_3 H1_3 1_555 1_555
H2_3 C1_3 1_555 1_555
C2_3 C1_3 1_555 1_555
H3_3 C2_3 1_555 1_555
C3_3 H4_3 1_555 1_555
H5_3 C3_3 1_555 1_555
C4_3 C3_3 1_555 1_555
H6_3 C4_3 1_555 1_555
H7_3 C4_3 1_555 1_555
C5_3 H8_3 1_555 1_555
H9_3 C5_3 1_555 1_555
C6_3 C5_3 1_555 1_555
H10_3 C6_3 1_555 1_555
H11_3 C6_3 1_555 1_555
C7_3 H12_3 1_555 1_555
H13_3 C7_3 1_555 1_555
C8_3 C7_3 1_555 1_555
H14_3 C8_3 1_555 1_555
H15_3 C8_3 1_555 1_555
C9_3 H16_3 1_555 1_555
H17_3 C9_3 1_555 1_555
C10_3 C9_3 1_555 1_555
H18_3 C10_3 1_555 1_555
H19_3 C10_3 1_555 1_555
C11_3 H20_3 1_555 1_555
H21_3 C11_3 1_555 1_555
C12_3 C11_3 1_555 1_555
H22_3 C12_3 1_555 1_555
H23_3 C12_3 1_555 1_555
C13_3 H24_3 1_555 1_555
C14_3 C13_3 1_555 1_555
C15_3 C14_3 1_555 1_555
H25_3 C15_3 1_555 1_555
C16_3 C15_3 1_555 1_555
H26_3 C16_3 1_555 1_555
C17_3 C16_3 1_555 1_555
C18_3 C17_3 1_555 1_555
H27_3 C18_3 1_555 1_555
C19_3 C14_3 1_555 1_555
H28_3 C19_3 1_555 1_555
C20_3 C17_3 1_555 1_555
H29_3 C20_3 1_555 1_555
H30_3 C20_3 1_555 1_555
C21_3 H31_3 1_555 1_555
H32_3 C21_3 1_555 1_555
C22_3 C21_3 1_555 1_555
C23_3 C22_3 1_555 1_555
H33_3 C23_3 1_555 1_555
C24_3 C23_3 1_555 1_555
H34_3 C24_3 1_555 1_555
C25_3 C24_3 1_555 1_555
C26_3 C25_3 1_555 1_555
C27_3 C22_3 1_555 1_555
C28_3 C25_3 1_555 1_555
H37_3 C28_3 1_555 1_555
H38_3 C28_3 1_555 1_555
C29_3 H39_3 1_555 1_555
H40_3 C29_3 1_555 1_555
C30_3 C29_3 1_555 1_555
C31_3 C30_3 1_555 1_555
H41_3 C31_3 1_555 1_555
C32_3 C31_3 1_555 1_555
H42_3 C32_3 1_555 1_555
C33_3 C32_3 1_555 1_555
C34_3 C33_3 1_555 1_555
H43_3 C34_3 1_555 1_555
C35_3 C30_3 1_555 1_555
H44_3 C35_3 1_555 1_555
C36_3 C33_3 1_555 1_555
H45_3 C36_3 1_555 1_555
H46_3 C36_3 1_555 1_555
C37_3 H47_3 1_555 1_555
H48_3 C37_3 1_555 1_555
C38_4 C37_3 1_555 1_555
C41_3 H51_3 1_555 1_555
H52_3 C41_3 1_555 1_555
C42_3 C41_3 1_555 1_555
C43_3 H53_3 1_555 1_555
H54_3 C43_3 1_555 1_555
C44_3 C43_3 1_555 1_555
C47_3 H57_3 1_555 1_555
H58_3 C47_3 1_555 1_555
C48_3 C47_3 1_555 1_555
C49_3 H59_3 1_555 1_555
Eu5 O1_3 1_555 1_555
N1_3 C1_3 1_555 1_555
N2_3 C2_3 1_555 1_555
H61_3 N2_3 1_555 1_555
N3_3 C4_3 1_555 1_555
N4_3 C6_3 1_555 1_555
N5_3 C7_3 1_555 1_555
N6_3 C8_3 1_555 1_555
N7_3 C10_3 1_555 1_555
H62_3 N7_3 1_555 1_555
N8_3 C12_3 1_555 1_555
O1_3 C38_4 1_555 1_555
O2_3 C38_4 1_555 1_555
O18_2 C44_3 1_555 1_555
O19_2 C44_3 1_555 1_555
O23 C42_3 1_555 1_555
O24 C42_3 1_555 1_555
O25 C48_3 1_555 1_555
O26 C48_3 1_555 1_555
O13_3 Eu5 1_555 1_555
H63_3 O13_3 1_555 1_555
H64_3 O13_3 1_555 1_555
O14_3 C49_3 1_555 1_555
O27_2 C49_3 1_555 1_555
O20_2 Eu5 1_555 1_555
C3_3 N1_3 1_555 1_555
C5_3 N1_3 1_555 1_555
C9_3 N5_3 1_555 1_555
C11_3 N5_3 1_555 1_555
C13_3 N2_3 1_555 1_555
C18_3 C19_3 1_555 1_555
C20_3 N6_3 1_555 1_555
C21_3 N3_3 1_555 1_555
C26_3 C27_3 1_555 1_555
C28_3 N7_3 1_555 1_555
C29_3 N4_3 1_555 1_555
C34_3 C35_3 1_555 1_555
C36_3 N8_3 1_555 1_555
C37_3 N2_3 1_555 1_555
C41_3 N4_3 1_555 1_555
C43_3 N6_3 1_555 1_555
C47_3 N8_3 1_555 1_555
Eu5 O2_3 1_555 1_555
Eu5 O14_3 1_555 1_555
C2_3 H65_3 1_555 1_555
C13_3 H66_3 1_555 1_555
H26_4 C16_4 1_555 1_555
C49_4 H59_4 1_555 1_555
O14_4 C49_4 1_555 1_555
O15_2 C49_4 1_555 1_555
Eu8_2 O3_2 1_555 1_555
O4_2 Eu8_2 1_555 1_555
O15_2 Eu8_2 1_555 1_555
H25_4 C15_4 1_555 1_555
Eu5_2 O1_4 1_555 1_555
O1_4 C38_5 1_555 1_555
O2_4 C38_5 1_555 1_555
O13_4 Eu5_2 1_555 1_555
H63_4 O13_4 1_555 1_555
H64_4 O13_4 1_555 1_555
O21_2 Eu5_2 1_555 1_555
Eu5_2 O2_4 1_555 1_555
H22_4 C12_4 1_555 1_555
H23_4 C12_4 1_555 1_555
H43_4 C34_4 1_555 1_555
H46_4 C36_4 1_555 1_555
C47_4 H57_4 1_555 1_555
H58_4 C47_4 1_555 1_555
C48_4 C47_4 1_555 1_555
N8_4 C12_4 1_555 1_555
O25_2 C48_4 1_555 1_555
O26_2 C48_4 1_555 1_555
C36_4 N8_4 1_555 1_555
C47_4 N8_4 1_555 1_555
C7_4 H12_4 1_555 1_555
H13_4 C7_4 1_555 1_555
C8_4 C7_4 1_555 1_555
H14_4 C8_4 1_555 1_555
H15_4 C8_4 1_555 1_555
C9_4 H16_4 1_555 1_555
H17_4 C9_4 1_555 1_555
C10_4 C9_4 1_555 1_555
H18_4 C10_4 1_555 1_555
H19_4 C10_4 1_555 1_555
C11_4 H20_4 1_555 1_555
H21_4 C11_4 1_555 1_555
C18_4 C17_4 1_555 1_555
H27_4 C18_4 1_555 1_555
C20_4 C17_4 1_555 1_555
H29_4 C20_4 1_555 1_555
H30_4 C20_4 1_555 1_555
H33_4 C23_4 1_555 1_555
C24_4 C23_4 1_555 1_555
H34_4 C24_4 1_555 1_555
C25_4 C24_4 1_555 1_555
C26_4 C25_4 1_555 1_555
H35_4 C26_4 1_555 1_555
H36_4 C27_4 1_555 1_555
C28_4 C25_4 1_555 1_555
H37_4 C28_4 1_555 1_555
H38_4 C28_4 1_555 1_555
H42_4 C32_4 1_555 1_555
C33_4 C32_4 1_555 1_555
C43_4 H53_4 1_555 1_555
H54_4 C43_4 1_555 1_555
C44_4 C43_4 1_555 1_555
C45_4 H55_4 1_555 1_555
H56_4 C45_4 1_555 1_555
C46_4 C45_4 1_555 1_555
C50_4 H60_4 1_555 1_555
Eu8_2 O5_4 1_555 1_555
N5_4 C7_4 1_555 1_555
N6_4 C8_4 1_555 1_555
N7_4 C10_4 1_555 1_555
H62_4 N7_4 1_555 1_555
O5_4 C46_4 1_555 1_555
O20_2 C46_4 1_555 1_555
O16_4 C50_4 1_555 1_555
O17_2 C50_4 1_555 1_555
C9_4 N5_4 1_555 1_555
C11_4 N5_4 1_555 1_555
C20_4 N6_4 1_555 1_555
C26_4 C27_4 1_555 1_555
C28_4 N7_4 1_555 1_555
C43_4 N6_4 1_555 1_555
C45_4 N7_4 1_555 1_555
Eu8_2 O16_4 1_555 1_555
H44_4 C35_4 1_555 1_555
H52_4 C41_4 1_555 1_555
C42_4 C41_4 1_555 1_555
O23_2 C42_4 1_555 1_555
O24_2 C42_4 1_555 1_555
C1_4 H1_4 1_555 1_555
H2_4 C1_4 1_555 1_555
C2_4 C1_4 1_555 1_555
H3_4 C2_4 1_555 1_555
C3_4 H4_4 1_555 1_555
H5_4 C3_4 1_555 1_555
C4_4 C3_4 1_555 1_555
H6_4 C4_4 1_555 1_555
H7_4 C4_4 1_555 1_555
C5_4 H8_4 1_555 1_555
H9_4 C5_4 1_555 1_555
C6_4 C5_4 1_555 1_555
H10_4 C6_4 1_555 1_555
H11_4 C6_4 1_555 1_555
C13_4 H24_4 1_555 1_555
C14_4 C13_4 1_555 1_555
C19_4 C14_4 1_555 1_555
H28_4 C19_4 1_555 1_555
C21_4 H31_4 1_555 1_555
H32_4 C21_4 1_555 1_555
C22_4 C21_4 1_555 1_555
C29_4 H39_4 1_555 1_555
H40_4 C29_4 1_555 1_555
C30_4 C29_4 1_555 1_555
C31_4 C30_4 1_555 1_555
H41_4 C31_4 1_555 1_555
C37_4 H47_4 1_555 1_555
H48_4 C37_4 1_555 1_555
C38_6 C37_4 1_555 1_555
C39_4 H49_4 1_555 1_555
H50_4 C39_4 1_555 1_555
C40_4 C39_4 1_555 1_555
N1_4 C1_4 1_555 1_555
N2_4 C2_4 1_555 1_555
H61_4 N2_4 1_555 1_555
N3_4 C4_4 1_555 1_555
N4_4 C6_4 1_555 1_555
O21_2 C40_4 1_555 1_555
O22_2 C40_4 1_555 1_555
C3_4 N1_4 1_555 1_555
C5_4 N1_4 1_555 1_555
C13_4 N2_4 1_555 1_555
C21_4 N3_4 1_555 1_555
C29_4 N4_4 1_555 1_555
C37_4 N2_4 1_555 1_555
C39_4 N3_4 1_555 1_555
C2_4 H65_4 1_555 1_555
C13_4 H66_4 1_555 1_555

#END
