
###############################################################################
#
# This file contains modified crystal structure data generated from the
# MOF subset of the Cambridge Structural Database (CSD) v543 
# hosted by the Cambridge Crystallographic Data Centre (CCDC).
#
# This work is licensed under the Creative Commons
# Attribution-NonCommercial-ShareAlike 4.0 International License.
# To view a copy of this license, visit
# http://creativecommons.org/licenses/by-nc-sa/4.0/
# or send a letter to
# Creative Commons, PO Box 1866, Mountain View, CA 94042, USA.
#
# CIF created using the CSD Python API on 29 September 2022
# The structure has been converted into the P1 space group
# The structure has a 3D framework
# The original CSD entry WADGIV is in the monoclinic crystal system
# The framework has been calculated to contain at least 10.0% void space
# The void calculation uses a probe of radius 1.32A, grid spacing 0.4
#
###############################################################################

data_WADGIV
_chemical_formula_moiety         '(C120 H184 Ba8 Cr12 O109)n'
_symmetry_cell_setting           triclinic
_symmetry_space_group_name_H-M   'P 1'
_symmetry_Int_Tables_number      1
_space_group_name_Hall           'P 1'
loop_
_symmetry_equiv_pos_site_id
_symmetry_equiv_pos_as_xyz
1 x,y,z
_cell_length_a                   17.0549(8)
_cell_length_b                   21.7137(10)
_cell_length_c                   14.7796(11)
_cell_angle_alpha                90
_cell_angle_beta                 119.1110(10)
_cell_angle_gamma                90
_cell_volume                     4781.87
loop_
_atom_site_label
_atom_site_type_symbol
_atom_site_fract_x
_atom_site_fract_y
_atom_site_fract_z
Ba4 Ba 0.01200(2) 0.68119(2) 0.40940(2)
O23 O 0.44033(8) 0.02385(5) 0.07850(8)
O26 O 0.38872(8) 0.01310(6) 0.18788(9)
Cr4 Cr 0.5000 -0.0000 -0.0000
Cr2 Cr 0.5000 -0.0000 0.5000
O9 O 0.61487(8) 0.00941(5) 0.63436(8)
H14 H 0.6358 0.0454 0.6376
H15 H 0.6035 0.0081 0.6843
O10 O 0.55967(8) 0.02385(5) 0.42150(8)
O13 O 0.61128(8) 0.01310(6) 0.31212(9)
Cr4_2 Cr 0.5000 -0.0000 1.0000
O36 O 0.47147(8) 0.08524(5) 0.50565(9)
Cr1 Cr 0.7500 0.7500 -0.0000
O5 O 0.72346(8) 0.70156(5) 0.09585(8)
O6 O 0.57746(8) 0.72017(6) 0.04227(9)
O7 O 0.74714(9) 0.75093(7) 0.31386(11)
H1 H 0.7955 0.7625 0.3647
O8 O 0.82458(8) 0.66406(6) 0.33541(9)
C4 C 0.65206(11) 0.69980(8) 0.10513(12)
C5 C 0.66702(11) 0.66700(8) 0.20514(12)
C6 C 0.75489(11) 0.69291(8) 0.29176(12)
C9 C 0.67572(14) 0.59797(9) 0.19124(14)
H8 H 0.7279 0.5906 0.1817
H9 H 0.6214 0.5832 0.1303
H10 H 0.6835 0.5759 0.2529
C10 C 0.59002(13) 0.68022(12) 0.22769(15)
H11 H 0.5354 0.6596 0.1758
H12 H 0.5796 0.7247 0.2250
H13 H 0.6057 0.6648 0.2968
O24 O 0.47147(8) 0.91476(5) 0.00565(9)
O25 O 0.44627(9) 0.83125(6) 0.07077(9)
C26 C 0.40583(10) 0.99026(7) 0.12208(11)
C27 C 0.37586(11) 0.92358(7) 0.08669(12)
C28 C 0.43621(11) 0.88687(7) 0.05494(11)
H38 H 0.2426 0.9538 0.0023
C30 C 0.36404(13) 0.88784(8) 0.16845(13)
H40 H 0.3186 0.9082 0.1805
H41 H 0.4213 0.8867 0.2332
H42 H 0.3446 0.8457 0.1440
Ba6 Ba 0.98800(2) 0.68119(2) 0.09060(2)
O29 O 0.86606(7) 0.76542(5) 0.12299(8)
O30 O 0.69851(8) 0.82227(5) 0.02770(9)
Cr4_3 Cr 0.5000 1.0000 -0.0000
Ba1 Ba 0.48800(2) 0.81881(2) 0.59060(2)
Cr1_2 Cr 0.7500 0.7500 1.0000
O1 O 0.63394(7) 0.73458(5) 0.87701(8)
O2 O 0.80149(8) 0.67773(5) 0.97230(9)
O3 O 0.82451(9) 0.61872(6) 0.86788(10)
O4 O 0.57282(8) 0.71833(6) 0.70786(9)
C1 C 0.62230(10) 0.70203(7) 0.79764(12)
C2 C 0.66969(10) 0.63858(7) 0.81941(12)
C3 C 0.77158(11) 0.64530(7) 0.88854(12)
C7 C 0.64797(12) 0.60616(8) 0.71828(13)
H2 H 0.6732 0.6298 0.6820
H3 H 0.5827 0.6032 0.6745
H4 H 0.6741 0.5647 0.7334
C8 C 0.63596(12) 0.59953(8) 0.88144(14)
H5 H 0.5707 0.5948 0.8408
H6 H 0.6514 0.6203 0.9469
H7 H 0.6645 0.5589 0.8958
Cr2_2 Cr 0.5000 1.0000 0.5000
O11 O 0.52853(8) 0.91476(5) 0.49435(9)
O12 O 0.55373(9) 0.83125(6) 0.42923(9)
C11 C 0.59417(10) 0.99026(7) 0.37792(11)
C12 C 0.62414(11) 0.92358(7) 0.41331(12)
C13 C 0.56379(11) 0.88687(7) 0.44506(11)
C14 C 0.71667(11) 0.92968(9) 0.51297(13)
H16 H 0.7089 0.9504 0.5669
H17 H 0.7574 0.9538 0.4977
H18 H 0.7421 0.8886 0.5371
C15 C 0.63596(13) 0.88784(8) 0.33155(13)
H19 H 0.6814 0.9082 0.3195
H20 H 0.5787 0.8867 0.2668
H21 H 0.6554 0.8457 0.3560
O14 O 0.59533(8) 0.86244(5) 0.79798(8)
H22 H 0.6014 0.9013 0.8029
H23 H 0.6502 0.8528 0.8223
Ba2 Ba 0.51200(2) 0.81881(2) 0.90940(2)
O15 O 0.36606(7) 0.73458(5) 0.62299(8)
O16 O 0.19851(8) 0.67773(5) 0.52770(9)
O17 O 0.17549(9) 0.61872(6) 0.63212(10)
O18 O 0.42718(8) 0.71833(6) 0.79214(9)
O19 O 0.27654(8) 0.70156(5) 0.40415(8)
O20 O 0.42254(8) 0.72017(6) 0.45773(9)
O21 O 0.25286(9) 0.75093(7) 0.18614(11)
H24 H 0.2045 0.7625 0.1353
O22 O 0.17542(8) 0.66406(6) 0.16459(9)
C16 C 0.37770(10) 0.70203(7) 0.70236(12)
C17 C 0.33031(10) 0.63858(7) 0.68059(12)
C18 C 0.22842(11) 0.64530(7) 0.61146(12)
C19 C 0.34794(11) 0.69980(8) 0.39487(12)
C20 C 0.33298(11) 0.66700(8) 0.29486(12)
C21 C 0.24511(11) 0.69291(8) 0.20824(12)
C22 C 0.35203(12) 0.60616(8) 0.78172(13)
H25 H 0.3268 0.6298 0.8180
H26 H 0.4173 0.6032 0.8255
H27 H 0.3259 0.5647 0.7666
C23 C 0.36404(12) 0.59953(8) 0.61856(14)
H28 H 0.4293 0.5948 0.6592
H29 H 0.3486 0.6203 0.5531
H30 H 0.3355 0.5589 0.6042
C24 C 0.32428(14) 0.59797(9) 0.30876(14)
H31 H 0.2721 0.5906 0.3183
H32 H 0.3786 0.5832 0.3697
H33 H 0.3165 0.5759 0.2471
C25 C 0.40998(13) 0.68022(12) 0.27231(15)
H34 H 0.4646 0.6596 0.3242
H35 H 0.4204 0.7247 0.2750
H36 H 0.3943 0.6648 0.2032
C29 C 0.28333(11) 0.92968(9) 0.98703(13)
H37 H 0.2911 0.9504 0.9331
H39 H 0.2579 0.8886 0.9629
O27 O 0.40467(8) 0.86244(5) 0.70202(8)
H43 H 0.3986 0.9013 0.6971
H44 H 0.3498 0.8528 0.6777
O28 O 0.38513(8) 0.99059(5) 0.36564(8)
H45 H 0.3642 0.9546 0.3624
H46 H 0.3965 0.9919 0.3157
Cr3 Cr 0.2500 0.7500 0.5000
O31 O 0.30149(8) 0.82227(5) 0.47230(9)
O32 O 0.77654(8) 0.79844(5) 0.90415(8)
O33 O 0.67542(8) 0.83594(6) 0.66459(9)
O34 O 0.32458(8) 0.83594(6) 0.83541(9)
Cr4_4 Cr 0.5000 1.0000 1.0000
O35 O 0.44033(8) 0.97615(5) 0.57850(8)
O9_2 O 0.38513(8) 0.00941(5) 0.86564(8)
H14_2 H 0.3642 0.0454 0.8624
H15_2 H 0.3965 0.0081 0.8157
O36_2 O 0.52853(8) 0.08524(5) 0.99435(9)
O28_2 O 0.61487(8) 0.99059(5) 0.13436(8)
H45_2 H 0.6358 0.9546 0.1376
H46_2 H 0.6035 0.9919 0.1843
O29_2 O 0.13394(7) 0.76542(5) 0.37701(8)
O32_2 O 0.22346(8) 0.79844(5) 0.59585(8)
O35_2 O 0.55967(8) 0.97615(5) 0.92150(8)
Cr1_3 Cr 0.2500 0.2500 -0.0000
O5_2 O 0.22346(8) 0.20156(5) 0.09585(8)
O6_2 O 0.07746(8) 0.22017(6) 0.04227(9)
O7_2 O 0.24714(9) 0.25093(7) 0.31386(11)
H1_2 H 0.2955 0.2625 0.3647
O8_2 O 0.32458(8) 0.16406(6) 0.33541(9)
C4_2 C 0.15206(11) 0.19980(8) 0.10513(12)
C5_2 C 0.16702(11) 0.16700(8) 0.20514(12)
C6_2 C 0.25489(11) 0.19291(8) 0.29176(12)
C9_2 C 0.17572(14) 0.09797(9) 0.19124(14)
H8_2 H 0.2279 0.0906 0.1817
H9_2 H 0.1214 0.0832 0.1303
H10_2 H 0.1835 0.0759 0.2529
C10_2 C 0.09002(13) 0.18022(12) 0.22769(15)
H11_2 H 0.0354 0.1596 0.1758
H12_2 H 0.0796 0.2247 0.2250
H13_2 H 0.1057 0.1648 0.2968
Ba4_2 Ba 0.51200(2) 0.18119(2) 0.40940(2)
Ba6_2 Ba 0.48800(2) 0.18119(2) 0.09060(2)
O29_3 O 0.36606(7) 0.26542(5) 0.12299(8)
O30_2 O 0.19851(8) 0.32227(5) 0.02770(9)
Cr4_5 Cr -0.0000 0.5000 -0.0000
Cr1_4 Cr 0.2500 0.2500 1.0000
O1_2 O 0.13394(7) 0.23458(5) 0.87701(8)
O2_2 O 0.30149(8) 0.17773(5) 0.97230(9)
O3_2 O 0.32451(9) 0.11872(6) 0.86788(10)
O4_2 O 0.07282(8) 0.21833(6) 0.70786(9)
C1_2 C 0.12230(10) 0.20203(7) 0.79764(12)
C2_2 C 0.16969(10) 0.13858(7) 0.81941(12)
C3_2 C 0.27158(11) 0.14530(7) 0.88854(12)
C7_2 C 0.14797(12) 0.10616(8) 0.71828(13)
H2_2 H 0.1732 0.1298 0.6820
H3_2 H 0.0827 0.1032 0.6745
H4_2 H 0.1741 0.0647 0.7334
C8_2 C 0.13596(12) 0.09953(8) 0.88144(14)
H5_2 H 0.0707 0.0948 0.8408
H6_2 H 0.1514 0.1203 0.9469
H7_2 H 0.1645 0.0589 0.8958
Cr2_3 Cr 0.0000 0.5000 0.5000
O9_3 O 0.11487(8) 0.50941(5) 0.63436(8)
H14_3 H 0.1358 0.5454 0.6376
H15_3 H 0.1035 0.5081 0.6843
O10_2 O 0.05967(8) 0.52385(5) 0.42150(8)
O11_2 O 0.02853(8) 0.41476(5) 0.49435(9)
O12_2 O 0.05373(9) 0.33125(6) 0.42923(9)
O13_2 O 0.11128(8) 0.51310(6) 0.31212(9)
C11_2 C 0.09417(10) 0.49026(7) 0.37792(11)
C12_2 C 0.12414(11) 0.42358(7) 0.41331(12)
C13_2 C 0.06379(11) 0.38687(7) 0.44506(11)
C14_2 C 0.21667(11) 0.42968(9) 0.51297(13)
H16_2 H 0.2089 0.4504 0.5669
H17_2 H 0.2574 0.4538 0.4977
H18_2 H 0.2421 0.3886 0.5371
C15_2 C 0.13596(13) 0.38784(8) 0.33155(13)
H19_2 H 0.1814 0.4082 0.3195
H20_2 H 0.0787 0.3867 0.2668
H21_2 H 0.1554 0.3457 0.3560
O14_2 O 0.09533(8) 0.36244(5) 0.79798(8)
H22_2 H 0.1014 0.4013 0.8029
H23_2 H 0.1502 0.3528 0.8223
Ba2_2 Ba 0.01200(2) 0.31881(2) 0.90940(2)
O32_3 O 0.27654(8) 0.29844(5) 0.90415(8)
O33_2 O 0.17542(8) 0.33594(6) 0.66459(9)
Cr4_6 Cr 0.0000 0.5000 1.0000
O23_2 O 0.94033(8) 0.52385(5) 0.07850(8)
O24_2 O 0.97147(8) 0.41476(5) 0.00565(9)
O25_2 O 0.94627(9) 0.33125(6) 0.07077(9)
O26_2 O 0.88872(8) 0.51310(6) 0.18788(9)
C26_2 C 0.90583(10) 0.49026(7) 0.12208(11)
C27_2 C 0.87586(11) 0.42358(7) 0.08669(12)
C28_2 C 0.93621(11) 0.38687(7) 0.05494(11)
H38_2 H 0.7426 0.4538 0.0023
C30_2 C 0.86404(13) 0.38784(8) 0.16845(13)
H40_2 H 0.8186 0.4082 0.1805
H41_2 H 0.9213 0.3867 0.2332
H42_2 H 0.8446 0.3457 0.1440
Cr4_7 Cr 1.0000 0.5000 -0.0000
Ba1_2 Ba 0.98800(2) 0.31881(2) 0.59060(2)
Cr2_4 Cr 1.0000 0.5000 0.5000
O15_2 O 0.86606(7) 0.23458(5) 0.62299(8)
O16_2 O 0.69851(8) 0.17773(5) 0.52770(9)
O17_2 O 0.67549(9) 0.11872(6) 0.63212(10)
O18_2 O 0.92718(8) 0.21833(6) 0.79214(9)
O19_2 O 0.77654(8) 0.20156(5) 0.40415(8)
O20_2 O 0.92254(8) 0.22017(6) 0.45773(9)
O21_2 O 0.75286(9) 0.25093(7) 0.18614(11)
H24_2 H 0.7045 0.2625 0.1353
O22_2 O 0.67542(8) 0.16406(6) 0.16459(9)
C16_2 C 0.87770(10) 0.20203(7) 0.70236(12)
C17_2 C 0.83031(10) 0.13858(7) 0.68059(12)
C18_2 C 0.72842(11) 0.14530(7) 0.61146(12)
C19_2 C 0.84794(11) 0.19980(8) 0.39487(12)
C20_2 C 0.83298(11) 0.16700(8) 0.29486(12)
C21_2 C 0.74511(11) 0.19291(8) 0.20824(12)
C22_2 C 0.85203(12) 0.10616(8) 0.78172(13)
H25_2 H 0.8268 0.1298 0.8180
H26_2 H 0.9173 0.1032 0.8255
H27_2 H 0.8259 0.0647 0.7666
C23_2 C 0.86404(12) 0.09953(8) 0.61856(14)
H28_2 H 0.9293 0.0948 0.6592
H29_2 H 0.8486 0.1203 0.5531
H30_2 H 0.8355 0.0589 0.6042
C24_2 C 0.82428(14) 0.09797(9) 0.30876(14)
H31_2 H 0.7721 0.0906 0.3183
H32_2 H 0.8786 0.0832 0.3697
H33_2 H 0.8165 0.0759 0.2471
C25_2 C 0.90998(13) 0.18022(12) 0.27231(15)
H34_2 H 0.9646 0.1596 0.3242
H35_2 H 0.9204 0.2247 0.2750
H36_2 H 0.8943 0.1648 0.2032
C29_2 C 0.78333(11) 0.42968(9) 0.98703(13)
H37_2 H 0.7911 0.4504 0.9331
H39_2 H 0.7579 0.3886 0.9629
O27_2 O 0.90467(8) 0.36244(5) 0.70202(8)
H43_2 H 0.8986 0.4013 0.6971
H44_2 H 0.8498 0.3528 0.6777
O28_3 O 0.88513(8) 0.49059(5) 0.36564(8)
H45_3 H 0.8642 0.4546 0.3624
H46_3 H 0.8965 0.4919 0.3157
Cr3_2 Cr 0.7500 0.2500 0.5000
O31_2 O 0.80149(8) 0.32227(5) 0.47230(9)
O34_2 O 0.82458(8) 0.33594(6) 0.83541(9)
Cr4_8 Cr 1.0000 0.5000 1.0000
O35_3 O 0.94033(8) 0.47615(5) 0.57850(8)
O36_3 O 0.97147(8) 0.58524(5) 0.50565(9)
O28_4 O 0.11487(8) 0.49059(5) 0.13436(8)
H45_4 H 0.1358 0.4546 0.1376
H46_4 H 0.1035 0.4919 0.1843
O35_4 O 0.05967(8) 0.47615(5) 0.92150(8)
O36_4 O 0.02853(8) 0.58524(5) 0.99435(9)
O9_4 O 0.88513(8) 0.50941(5) 0.86564(8)
H14_4 H 0.8642 0.5454 0.8624
H15_4 H 0.8965 0.5081 0.8157
O29_4 O 0.63394(7) 0.26542(5) 0.37701(8)
O32_4 O 0.72346(8) 0.29844(5) 0.59585(8)
O3_3 O 0.17549(9) 0.38128(6) 0.13212(10)
O4_3 O 0.42718(8) 0.28167(6) 0.29214(9)
C1_3 C 0.37770(10) 0.29797(7) 0.20236(12)
C2_3 C 0.33031(10) 0.36142(7) 0.18059(12)
C3_3 C 0.22842(11) 0.35470(7) 0.11146(12)
C7_3 C 0.35203(12) 0.39384(8) 0.28172(13)
H2_3 H 0.3268 0.3702 0.3180
H3_3 H 0.4173 0.3968 0.3255
H4_3 H 0.3259 0.4353 0.2666
C8_3 C 0.36404(12) 0.40047(8) 0.11856(14)
H5_3 H 0.4293 0.4052 0.1592
H6_3 H 0.3486 0.3797 0.0531
H7_3 H 0.3355 0.4411 0.1042
O12_3 O 0.44627(9) 0.16875(6) 0.57077(9)
C11_3 C 0.40583(10) 0.00974(7) 0.62208(11)
C12_3 C 0.37586(11) 0.07642(7) 0.58669(12)
C13_3 C 0.43621(11) 0.11313(7) 0.55494(11)
C14_3 C 0.28333(11) 0.07032(9) 0.48703(13)
H16_3 H 0.2911 0.0496 0.4331
H17_3 H 0.2426 0.0462 0.5023
H18_3 H 0.2579 0.1114 0.4629
C15_3 C 0.36404(13) 0.11216(8) 0.66845(13)
H19_3 H 0.3186 0.0918 0.6805
H20_3 H 0.4213 0.1133 0.7332
H21_3 H 0.3446 0.1543 0.6440
O14_3 O 0.40467(8) 0.13756(5) 0.20202(8)
H22_3 H 0.3986 0.0987 0.1971
H23_3 H 0.3498 0.1472 0.1777
O17_3 O 0.82451(9) 0.38128(6) 0.36788(10)
O18_3 O 0.57282(8) 0.28167(6) 0.20786(9)
O20_3 O 0.57746(8) 0.27983(6) 0.54227(9)
O21_3 O 0.74714(9) 0.24907(7) 0.81386(11)
H24_3 H 0.7955 0.2375 0.8647
C16_3 C 0.62230(10) 0.29797(7) 0.29764(12)
C17_3 C 0.66969(10) 0.36142(7) 0.31941(12)
C18_3 C 0.77158(11) 0.35470(7) 0.38854(12)
C19_3 C 0.65206(11) 0.30020(8) 0.60513(12)
C20_3 C 0.66702(11) 0.33300(8) 0.70514(12)
C21_3 C 0.75489(11) 0.30709(8) 0.79176(12)
C22_3 C 0.64797(12) 0.39384(8) 0.21828(13)
H25_3 H 0.6732 0.3702 0.1820
H26_3 H 0.5827 0.3968 0.1745
H27_3 H 0.6741 0.4353 0.2334
C23_3 C 0.63596(12) 0.40047(8) 0.38144(14)
H28_3 H 0.5707 0.4052 0.3408
H29_3 H 0.6514 0.3797 0.4469
H30_3 H 0.6645 0.4411 0.3958
C24_3 C 0.67572(14) 0.40203(9) 0.69124(14)
H31_3 H 0.7279 0.4094 0.6817
H32_3 H 0.6214 0.4168 0.6303
H33_3 H 0.6835 0.4241 0.7529
C25_3 C 0.59002(13) 0.31978(12) 0.72769(15)
H34_3 H 0.5354 0.3404 0.6758
H35_3 H 0.5796 0.2753 0.7250
H36_3 H 0.6057 0.3352 0.7968
C29_3 C 0.71667(11) 0.07032(9) 0.01297(13)
H37_3 H 0.7089 0.0496 0.0669
H39_3 H 0.7421 0.1114 0.0371
O27_3 O 0.59533(8) 0.13756(5) 0.29798(8)
H43_3 H 0.6014 0.0987 0.3029
H44_3 H 0.6502 0.1472 0.3223
O6_3 O 0.42254(8) 0.27983(6) 0.95773(9)
O7_3 O 0.25286(9) 0.24907(7) 0.68614(11)
H1_3 H 0.2045 0.2375 0.6353
C4_3 C 0.34794(11) 0.30020(8) 0.89487(12)
C5_3 C 0.33298(11) 0.33300(8) 0.79486(12)
C6_3 C 0.24511(11) 0.30709(8) 0.70824(12)
C9_3 C 0.32428(14) 0.40203(9) 0.80876(14)
H8_3 H 0.2721 0.4094 0.8183
H9_3 H 0.3786 0.4168 0.8697
H10_3 H 0.3165 0.4241 0.7471
C10_3 C 0.40998(13) 0.31978(12) 0.77231(15)
H11_3 H 0.4646 0.3404 0.8242
H12_3 H 0.4204 0.2753 0.7750
H13_3 H 0.3943 0.3352 0.7032
O25_3 O 0.55373(9) 0.16875(6) 0.92923(9)
C26_3 C 0.59417(10) 0.00974(7) 0.87792(11)
C27_3 C 0.62414(11) 0.07642(7) 0.91331(12)
C28_3 C 0.56379(11) 0.11313(7) 0.94506(11)
H38_3 H 0.7574 0.0462 0.9977
C30_3 C 0.63596(13) 0.11216(8) 0.83155(13)
H40_3 H 0.6814 0.0918 0.8195
H41_3 H 0.5787 0.1133 0.7668
H42_3 H 0.6554 0.1543 0.8560
O13_3 O 0.38872(8) 0.98690(6) 0.68788(9)
O26_3 O 0.61128(8) 0.98690(6) 0.81212(9)
O17_4 O 0.32451(9) 0.88128(6) 0.36788(10)
O18_4 O 0.07282(8) 0.78167(6) 0.20786(9)
O20_4 O 0.07746(8) 0.77983(6) 0.54227(9)
O21_4 O 0.24714(9) 0.74907(7) 0.81386(11)
H24_4 H 0.2955 0.7375 0.8647
C16_4 C 0.12230(10) 0.79797(7) 0.29764(12)
C17_4 C 0.16969(10) 0.86142(7) 0.31941(12)
C18_4 C 0.27158(11) 0.85470(7) 0.38854(12)
C19_4 C 0.15206(11) 0.80020(8) 0.60513(12)
C20_4 C 0.16702(11) 0.83300(8) 0.70514(12)
C21_4 C 0.25489(11) 0.80709(8) 0.79176(12)
C22_4 C 0.14797(12) 0.89384(8) 0.21828(13)
H25_4 H 0.1732 0.8702 0.1820
H26_4 H 0.0827 0.8968 0.1745
H27_4 H 0.1741 0.9353 0.2334
C23_4 C 0.13596(12) 0.90047(8) 0.38144(14)
H28_4 H 0.0707 0.9052 0.3408
H29_4 H 0.1514 0.8797 0.4469
H30_4 H 0.1645 0.9411 0.3958
C24_4 C 0.17572(14) 0.90203(9) 0.69124(14)
H31_4 H 0.2279 0.9094 0.6817
H32_4 H 0.1214 0.9168 0.6303
H33_4 H 0.1835 0.9241 0.7529
C25_4 C 0.09002(13) 0.81978(12) 0.72769(15)
H34_4 H 0.0354 0.8404 0.6758
H35_4 H 0.0796 0.7753 0.7250
H36_4 H 0.1057 0.8352 0.7968
C29_4 C 0.21667(11) 0.57032(9) 0.01297(13)
H37_4 H 0.2089 0.5496 0.0669
H39_4 H 0.2421 0.6114 0.0371
O27_4 O 0.09533(8) 0.63756(5) 0.29798(8)
H43_4 H 0.1014 0.5987 0.3029
H44_4 H 0.1502 0.6472 0.3223
O25_4 O 0.05373(9) 0.66875(6) 0.92923(9)
O26_4 O 0.11128(8) 0.48690(6) 0.81212(9)
C26_4 C 0.09417(10) 0.50974(7) 0.87792(11)
C27_4 C 0.12414(11) 0.57642(7) 0.91331(12)
C28_4 C 0.06379(11) 0.61313(7) 0.94506(11)
H38_4 H 0.2574 0.5462 0.9977
C30_4 C 0.13596(13) 0.61216(8) 0.83155(13)
H40_4 H 0.1814 0.5918 0.8195
H41_4 H 0.0787 0.6133 0.7668
H42_4 H 0.1554 0.6543 0.8560
O3_4 O 0.67549(9) 0.88128(6) 0.13212(10)
O4_4 O 0.92718(8) 0.78167(6) 0.29214(9)
C1_4 C 0.87770(10) 0.79797(7) 0.20236(12)
C2_4 C 0.83031(10) 0.86142(7) 0.18059(12)
C3_4 C 0.72842(11) 0.85470(7) 0.11146(12)
C7_4 C 0.85203(12) 0.89384(8) 0.28172(13)
H2_4 H 0.8268 0.8702 0.3180
H3_4 H 0.9173 0.8968 0.3255
H4_4 H 0.8259 0.9353 0.2666
C8_4 C 0.86404(12) 0.90047(8) 0.11856(14)
H5_4 H 0.9293 0.9052 0.1592
H6_4 H 0.8486 0.8797 0.0531
H7_4 H 0.8355 0.9411 0.1042
O12_4 O 0.94627(9) 0.66875(6) 0.57077(9)
O13_4 O 0.88872(8) 0.48690(6) 0.68788(9)
C11_4 C 0.90583(10) 0.50974(7) 0.62208(11)
C12_4 C 0.87586(11) 0.57642(7) 0.58669(12)
C13_4 C 0.93621(11) 0.61313(7) 0.55494(11)
C14_4 C 0.78333(11) 0.57032(9) 0.48703(13)
H16_4 H 0.7911 0.5496 0.4331
H17_4 H 0.7426 0.5462 0.5023
H18_4 H 0.7579 0.6114 0.4629
C15_4 C 0.86404(13) 0.61216(8) 0.66845(13)
H19_4 H 0.8186 0.5918 0.6805
H20_4 H 0.9213 0.6133 0.7332
H21_4 H 0.8446 0.6543 0.6440
O14_4 O 0.90467(8) 0.63756(5) 0.20202(8)
H22_4 H 0.8986 0.5987 0.1971
H23_4 H 0.8498 0.6472 0.1777
O6_4 O 0.92254(8) 0.77983(6) 0.95773(9)
O7_4 O 0.75286(9) 0.74907(7) 0.68614(11)
H1_4 H 0.7045 0.7375 0.6353
C4_4 C 0.84794(11) 0.80020(8) 0.89487(12)
C5_4 C 0.83298(11) 0.83300(8) 0.79486(12)
C6_4 C 0.74511(11) 0.80709(8) 0.70824(12)
C9_4 C 0.82428(14) 0.90203(9) 0.80876(14)
H8_4 H 0.7721 0.9094 0.8183
H9_4 H 0.8786 0.9168 0.8697
H10_4 H 0.8165 0.9241 0.7471
C10_4 C 0.90998(13) 0.81978(12) 0.77231(15)
H11_4 H 0.9646 0.8404 0.8242
H12_4 H 0.9204 0.7753 0.7750
H13_4 H 0.8943 0.8352 0.7032
loop_
_geom_bond_atom_site_label_1
_geom_bond_atom_site_label_2
_geom_bond_site_symmetry_1
_geom_bond_site_symmetry_2
Cr4 O23 1_555 1_555
Cr2 O9 1_555 1_555
O9 H14 1_555 1_555
H15 O9 1_555 1_555
O10 Cr2 1_555 1_555
O36 Cr2 1_555 1_555
O5 Cr1 1_555 1_555
O6 C4 1_555 1_555
O7 H1 1_555 1_555
O8 C6 1_555 1_555
C4 O5 1_555 1_555
C5 C4 1_555 1_555
C6 O7 1_555 1_555
C9 C5 1_555 1_555
H8 C9 1_555 1_555
H9 C9 1_555 1_555
H10 C9 1_555 1_555
C10 C5 1_555 1_555
H11 C10 1_555 1_555
H12 C10 1_555 1_555
H13 C10 1_555 1_555
C26 C27 1_555 1_555
C27 C28 1_555 1_555
C28 O24 1_555 1_555
C30 C27 1_555 1_555
H40 C30 1_555 1_555
H41 C30 1_555 1_555
H42 C30 1_555 1_555
O29 Cr1 1_555 1_555
O30 Cr1 1_555 1_555
C5 C6 1_555 1_555
O24 Cr4_3 1_555 1_555
O25 C28 1_555 1_555
Ba6 O29 1_555 1_555
Ba1 O4 1_555 1_555
Cr1_2 O1 1_555 1_555
O1 C1 1_555 1_555
O2 Cr1_2 1_555 1_555
O3 C3 1_555 1_555
O4 C1 1_555 1_555
C1 C2 1_555 1_555
C2 C3 1_555 1_555
C3 O2 1_555 1_555
C7 C2 1_555 1_555
H2 C7 1_555 1_555
H3 C7 1_555 1_555
H4 C7 1_555 1_555
C8 C2 1_555 1_555
H5 C8 1_555 1_555
H6 C8 1_555 1_555
H7 C8 1_555 1_555
O11 Ba1 1_555 1_555
O12 Ba1 1_555 1_555
C12 C11 1_555 1_555
C13 O11 1_555 1_555
C14 C12 1_555 1_555
H16 C14 1_555 1_555
H17 C14 1_555 1_555
H18 C14 1_555 1_555
C15 C12 1_555 1_555
H19 C15 1_555 1_555
H20 C15 1_555 1_555
H21 C15 1_555 1_555
O14 Ba1 1_555 1_555
H22 O14 1_555 1_555
H23 O14 1_555 1_555
Ba2 O1 1_555 1_555
O15 Ba1 1_555 1_555
O16 C18 1_555 1_555
O17 C18 1_555 1_555
O18 Ba2 1_555 1_555
O19 C19 1_555 1_555
O20 Ba1 1_555 1_555
O21 H24 1_555 1_555
O22 C21 1_555 1_555
C16 O15 1_555 1_555
C17 C16 1_555 1_555
C18 C17 1_555 1_555
C19 O20 1_555 1_555
C20 C19 1_555 1_555
C21 O21 1_555 1_555
C22 C17 1_555 1_555
H25 C22 1_555 1_555
H26 C22 1_555 1_555
H27 C22 1_555 1_555
C23 C17 1_555 1_555
H28 C23 1_555 1_555
H29 C23 1_555 1_555
H30 C23 1_555 1_555
C24 C20 1_555 1_555
H31 C24 1_555 1_555
H32 C24 1_555 1_555
H33 C24 1_555 1_555
C25 C20 1_555 1_555
H34 C25 1_555 1_555
H35 C25 1_555 1_555
H36 C25 1_555 1_555
H37 C29 1_555 1_555
H39 C29 1_555 1_555
O27 Ba1 1_555 1_555
H43 O27 1_555 1_555
H44 O27 1_555 1_555
O28 Cr2_2 1_555 1_555
H45 O28 1_555 1_555
H46 O28 1_555 1_555
Ba4 O16 1_555 1_555
Cr3 O15 1_555 1_555
O31 Ba1 1_555 1_555
O32 Cr1_2 1_555 1_555
O33 Ba1 1_555 1_555
O34 Ba2 1_555 1_555
O35 Cr2_2 1_555 1_555
Cr2_2 O11 1_555 1_555
O12 C13 1_555 1_555
C12 C13 1_555 1_555
O14 Ba2 1_555 1_555
Ba2 O27 1_555 1_555
O16 Cr3 1_555 1_555
O18 C16 1_555 1_555
O19 Cr3 1_555 1_555
C20 C21 1_555 1_555
Cr3 O31 1_555 1_555
Cr4_2 O9_2 1_555 1_555
O9_2 H14_2 1_555 1_555
H15_2 O9_2 1_555 1_555
O36_2 Cr4_2 1_555 1_555
O28_2 Cr4_3 1_555 1_555
H45_2 O28_2 1_555 1_555
H46_2 O28_2 1_555 1_555
O29_2 Cr3 1_555 1_555
O32_2 Cr3 1_555 1_555
O35_2 Cr4_4 1_555 1_555
Ba4 O29_2 1_555 1_555
O5_2 Cr1_3 1_555 1_555
O6_2 C4_2 1_555 1_555
O7_2 H1_2 1_555 1_555
O8_2 C6_2 1_555 1_555
C4_2 O5_2 1_555 1_555
C5_2 C4_2 1_555 1_555
C6_2 O7_2 1_555 1_555
C9_2 C5_2 1_555 1_555
H8_2 C9_2 1_555 1_555
H9_2 C9_2 1_555 1_555
H10_2 C9_2 1_555 1_555
C10_2 C5_2 1_555 1_555
H11_2 C10_2 1_555 1_555
H12_2 C10_2 1_555 1_555
H13_2 C10_2 1_555 1_555
Ba4_2 O8_2 1_555 1_555
O29_3 Cr1_3 1_555 1_555
O30_2 Cr1_3 1_555 1_555
C5_2 C6_2 1_555 1_555
Ba6_2 O29_3 1_555 1_555
Cr1_4 O1_2 1_555 1_555
O1_2 C1_2 1_555 1_555
O2_2 Cr1_4 1_555 1_555
O3_2 C3_2 1_555 1_555
O4_2 C1_2 1_555 1_555
C1_2 C2_2 1_555 1_555
C2_2 C3_2 1_555 1_555
C3_2 O2_2 1_555 1_555
C7_2 C2_2 1_555 1_555
H2_2 C7_2 1_555 1_555
H3_2 C7_2 1_555 1_555
H4_2 C7_2 1_555 1_555
C8_2 C2_2 1_555 1_555
H5_2 C8_2 1_555 1_555
H6_2 C8_2 1_555 1_555
H7_2 C8_2 1_555 1_555
Cr2_3 O9_3 1_555 1_555
O9_3 H14_3 1_555 1_555
H15_3 O9_3 1_555 1_555
O10_2 Cr2_3 1_555 1_555
O13_2 C11_2 1_555 1_555
C11_2 O10_2 1_555 1_555
C12_2 C11_2 1_555 1_555
C13_2 O11_2 1_555 1_555
C14_2 C12_2 1_555 1_555
H16_2 C14_2 1_555 1_555
H17_2 C14_2 1_555 1_555
H18_2 C14_2 1_555 1_555
C15_2 C12_2 1_555 1_555
H19_2 C15_2 1_555 1_555
H20_2 C15_2 1_555 1_555
H21_2 C15_2 1_555 1_555
H22_2 O14_2 1_555 1_555
H23_2 O14_2 1_555 1_555
Ba2_2 O1_2 1_555 1_555
O32_3 Cr1_4 1_555 1_555
Cr2_3 O11_2 1_555 1_555
O12_2 C13_2 1_555 1_555
C12_2 C13_2 1_555 1_555
O14_2 Ba2_2 1_555 1_555
O23_2 C26_2 1_555 1_555
O26_2 C26_2 1_555 1_555
C26_2 C27_2 1_555 1_555
C27_2 C28_2 1_555 1_555
C28_2 O24_2 1_555 1_555
C30_2 C27_2 1_555 1_555
H40_2 C30_2 1_555 1_555
H41_2 C30_2 1_555 1_555
H42_2 C30_2 1_555 1_555
Cr4_7 O23_2 1_555 1_555
O24_2 Cr4_7 1_555 1_555
O25_2 C28_2 1_555 1_555
O15_2 Ba1_2 1_555 1_555
O16_2 C18_2 1_555 1_555
O17_2 C18_2 1_555 1_555
O19_2 C19_2 1_555 1_555
O20_2 Ba1_2 1_555 1_555
O21_2 H24_2 1_555 1_555
O22_2 C21_2 1_555 1_555
C16_2 O15_2 1_555 1_555
C17_2 C16_2 1_555 1_555
C18_2 C17_2 1_555 1_555
C19_2 O20_2 1_555 1_555
C20_2 C19_2 1_555 1_555
C21_2 O21_2 1_555 1_555
C22_2 C17_2 1_555 1_555
H25_2 C22_2 1_555 1_555
H26_2 C22_2 1_555 1_555
H27_2 C22_2 1_555 1_555
C23_2 C17_2 1_555 1_555
H28_2 C23_2 1_555 1_555
H29_2 C23_2 1_555 1_555
H30_2 C23_2 1_555 1_555
C24_2 C20_2 1_555 1_555
H31_2 C24_2 1_555 1_555
H32_2 C24_2 1_555 1_555
H33_2 C24_2 1_555 1_555
C25_2 C20_2 1_555 1_555
H34_2 C25_2 1_555 1_555
H35_2 C25_2 1_555 1_555
H36_2 C25_2 1_555 1_555
H37_2 C29_2 1_555 1_555
H39_2 C29_2 1_555 1_555
O27_2 Ba1_2 1_555 1_555
H43_2 O27_2 1_555 1_555
H44_2 O27_2 1_555 1_555
O28_3 Cr2_4 1_555 1_555
H45_3 O28_3 1_555 1_555
H46_3 O28_3 1_555 1_555
Ba4_2 O16_2 1_555 1_555
Ba6_2 O22_2 1_555 1_555
Cr3_2 O15_2 1_555 1_555
O31_2 Ba1_2 1_555 1_555
O35_3 Cr2_4 1_555 1_555
O36_3 Cr2_4 1_555 1_555
O16_2 Cr3_2 1_555 1_555
O18_2 C16_2 1_555 1_555
O19_2 Cr3_2 1_555 1_555
C20_2 C21_2 1_555 1_555
Cr3_2 O31_2 1_555 1_555
O28_4 Cr4_5 1_555 1_555
H45_4 O28_4 1_555 1_555
H46_4 O28_4 1_555 1_555
O35_4 Cr4_6 1_555 1_555
O36_4 Cr4_6 1_555 1_555
Cr4_8 O9_4 1_555 1_555
O9_4 H14_4 1_555 1_555
H15_4 O9_4 1_555 1_555
O29_4 Cr3_2 1_555 1_555
O32_4 Cr3_2 1_555 1_555
Ba4_2 O29_4 1_555 1_555
Ba4_2 O4_3 1_555 1_555
O29_3 C1_3 1_555 1_555
O3_3 C3_3 1_555 1_555
O4_3 C1_3 1_555 1_555
C1_3 C2_3 1_555 1_555
C2_3 C3_3 1_555 1_555
C3_3 O30_2 1_555 1_555
C7_3 C2_3 1_555 1_555
H2_3 C7_3 1_555 1_555
H3_3 C7_3 1_555 1_555
H4_3 C7_3 1_555 1_555
C8_3 C2_3 1_555 1_555
H5_3 C8_3 1_555 1_555
H6_3 C8_3 1_555 1_555
H7_3 C8_3 1_555 1_555
O36 Ba4_2 1_555 1_555
O12_3 Ba4_2 1_555 1_555
C12_3 C11_3 1_555 1_555
C13_3 O36 1_555 1_555
C14_3 C12_3 1_555 1_555
H16_3 C14_3 1_555 1_555
H17_3 C14_3 1_555 1_555
H18_3 C14_3 1_555 1_555
C15_3 C12_3 1_555 1_555
H19_3 C15_3 1_555 1_555
H20_3 C15_3 1_555 1_555
H21_3 C15_3 1_555 1_555
O14_3 Ba4_2 1_555 1_555
H22_3 O14_3 1_555 1_555
H23_3 O14_3 1_555 1_555
O31_2 C18_3 1_555 1_555
O17_3 C18_3 1_555 1_555
O18_3 Ba6_2 1_555 1_555
O32_4 C19_3 1_555 1_555
O20_3 Ba4_2 1_555 1_555
O21_3 H24_3 1_555 1_555
O34_2 C21_3 1_555 1_555
C16_3 O29_4 1_555 1_555
C17_3 C16_3 1_555 1_555
C18_3 C17_3 1_555 1_555
C19_3 O20_3 1_555 1_555
C20_3 C19_3 1_555 1_555
C21_3 O21_3 1_555 1_555
C22_3 C17_3 1_555 1_555
H25_3 C22_3 1_555 1_555
H26_3 C22_3 1_555 1_555
H27_3 C22_3 1_555 1_555
C23_3 C17_3 1_555 1_555
H28_3 C23_3 1_555 1_555
H29_3 C23_3 1_555 1_555
H30_3 C23_3 1_555 1_555
C24_3 C20_3 1_555 1_555
H31_3 C24_3 1_555 1_555
H32_3 C24_3 1_555 1_555
H33_3 C24_3 1_555 1_555
C25_3 C20_3 1_555 1_555
H34_3 C25_3 1_555 1_555
H35_3 C25_3 1_555 1_555
H36_3 C25_3 1_555 1_555
H37_3 C29_3 1_555 1_555
H39_3 C29_3 1_555 1_555
O27_3 Ba4_2 1_555 1_555
H43_3 O27_3 1_555 1_555
H44_3 O27_3 1_555 1_555
O12_3 C13_3 1_555 1_555
C12_3 C13_3 1_555 1_555
O14_3 Ba6_2 1_555 1_555
Ba6_2 O27_3 1_555 1_555
O18_3 C16_3 1_555 1_555
C20_3 C21_3 1_555 1_555
O6_3 C4_3 1_555 1_555
O7_3 H1_3 1_555 1_555
O33_2 C6_3 1_555 1_555
C4_3 O32_3 1_555 1_555
C5_3 C4_3 1_555 1_555
C6_3 O7_3 1_555 1_555
C9_3 C5_3 1_555 1_555
H8_3 C9_3 1_555 1_555
H9_3 C9_3 1_555 1_555
H10_3 C9_3 1_555 1_555
C10_3 C5_3 1_555 1_555
H11_3 C10_3 1_555 1_555
H12_3 C10_3 1_555 1_555
H13_3 C10_3 1_555 1_555
C26_3 C27_3 1_555 1_555
C27_3 C28_3 1_555 1_555
C28_3 O36_2 1_555 1_555
C30_3 C27_3 1_555 1_555
H40_3 C30_3 1_555 1_555
H41_3 C30_3 1_555 1_555
H42_3 C30_3 1_555 1_555
C5_3 C6_3 1_555 1_555
O25_3 C28_3 1_555 1_555
O31 C18_4 1_555 1_555
O17_4 C18_4 1_555 1_555
O32_2 C19_4 1_555 1_555
O20_4 Ba4 1_555 1_555
O21_4 H24_4 1_555 1_555
O34 C21_4 1_555 1_555
C16_4 O29_2 1_555 1_555
C17_4 C16_4 1_555 1_555
C18_4 C17_4 1_555 1_555
C19_4 O20_4 1_555 1_555
C20_4 C19_4 1_555 1_555
C21_4 O21_4 1_555 1_555
C22_4 C17_4 1_555 1_555
H25_4 C22_4 1_555 1_555
H26_4 C22_4 1_555 1_555
H27_4 C22_4 1_555 1_555
C23_4 C17_4 1_555 1_555
H28_4 C23_4 1_555 1_555
H29_4 C23_4 1_555 1_555
H30_4 C23_4 1_555 1_555
C24_4 C20_4 1_555 1_555
H31_4 C24_4 1_555 1_555
H32_4 C24_4 1_555 1_555
H33_4 C24_4 1_555 1_555
C25_4 C20_4 1_555 1_555
H34_4 C25_4 1_555 1_555
H35_4 C25_4 1_555 1_555
H36_4 C25_4 1_555 1_555
H37_4 C29_4 1_555 1_555
H39_4 C29_4 1_555 1_555
O27_4 Ba4 1_555 1_555
H43_4 O27_4 1_555 1_555
H44_4 O27_4 1_555 1_555
O18_4 C16_4 1_555 1_555
C20_4 C21_4 1_555 1_555
O35_4 C26_4 1_555 1_555
O26_4 C26_4 1_555 1_555
C26_4 C27_4 1_555 1_555
C27_4 C28_4 1_555 1_555
C28_4 O36_4 1_555 1_555
C30_4 C27_4 1_555 1_555
H40_4 C30_4 1_555 1_555
H41_4 C30_4 1_555 1_555
H42_4 C30_4 1_555 1_555
O25_4 C28_4 1_555 1_555
O29 C1_4 1_555 1_555
O3_4 C3_4 1_555 1_555
O4_4 C1_4 1_555 1_555
C1_4 C2_4 1_555 1_555
C2_4 C3_4 1_555 1_555
C3_4 O30 1_555 1_555
C7_4 C2_4 1_555 1_555
H2_4 C7_4 1_555 1_555
H3_4 C7_4 1_555 1_555
H4_4 C7_4 1_555 1_555
C8_4 C2_4 1_555 1_555
H5_4 C8_4 1_555 1_555
H6_4 C8_4 1_555 1_555
H7_4 C8_4 1_555 1_555
O13_4 C11_4 1_555 1_555
C11_4 O35_3 1_555 1_555
C12_4 C11_4 1_555 1_555
C13_4 O36_3 1_555 1_555
C14_4 C12_4 1_555 1_555
H16_4 C14_4 1_555 1_555
H17_4 C14_4 1_555 1_555
H18_4 C14_4 1_555 1_555
C15_4 C12_4 1_555 1_555
H19_4 C15_4 1_555 1_555
H20_4 C15_4 1_555 1_555
H21_4 C15_4 1_555 1_555
H22_4 O14_4 1_555 1_555
H23_4 O14_4 1_555 1_555
O12_4 C13_4 1_555 1_555
C12_4 C13_4 1_555 1_555
O14_4 Ba6 1_555 1_555
O6_4 C4_4 1_555 1_555
O7_4 H1_4 1_555 1_555
O33 C6_4 1_555 1_555
C4_4 O32 1_555 1_555
C5_4 C4_4 1_555 1_555
C6_4 O7_4 1_555 1_555
C9_4 C5_4 1_555 1_555
H8_4 C9_4 1_555 1_555
H9_4 C9_4 1_555 1_555
H10_4 C9_4 1_555 1_555
C10_4 C5_4 1_555 1_555
H11_4 C10_4 1_555 1_555
H12_4 C10_4 1_555 1_555
H13_4 C10_4 1_555 1_555
C5_4 C6_4 1_555 1_555

#END
