
###############################################################################
#
# This file contains modified crystal structure data generated from the
# MOF subset of the Cambridge Structural Database (CSD) v543 
# hosted by the Cambridge Crystallographic Data Centre (CCDC).
#
# This work is licensed under the Creative Commons
# Attribution-NonCommercial-ShareAlike 4.0 International License.
# To view a copy of this license, visit
# http://creativecommons.org/licenses/by-nc-sa/4.0/
# or send a letter to
# Creative Commons, PO Box 1866, Mountain View, CA 94042, USA.
#
# CIF created using the CSD Python API on 29 September 2022
# The structure has been converted into the P1 space group
# The structure has a 3D framework
# The original CSD entry WAFDIU is in the cubic crystal system
# The framework has been calculated to contain at least 10.0% void space
# The void calculation uses a probe of radius 1.32A, grid spacing 0.4
#
###############################################################################

data_WAFDIU
_chemical_formula_moiety         '(C1872 H1560 O432 Zr72)n'
_symmetry_cell_setting           triclinic
_symmetry_space_group_name_H-M   'P 1'
_symmetry_Int_Tables_number      1
_space_group_name_Hall           'P 1'
loop_
_symmetry_equiv_pos_site_id
_symmetry_equiv_pos_as_xyz
1 x,y,z
_cell_length_a                   55.199(7)
_cell_length_b                   55.199(7)
_cell_length_c                   55.199(7)
_cell_angle_alpha                90
_cell_angle_beta                 90
_cell_angle_gamma                90
_cell_volume                     168187
loop_
_atom_site_label
_atom_site_type_symbol
_atom_site_fract_x
_atom_site_fract_y
_atom_site_fract_z
Zr1 Zr 0.250000 0.46822(3) 0.03178(3)
Zr2 Zr 0.20493(5) 0.500000 0.000000
O1 O 0.23119(18) 0.500000 0.0273(2)
O2 O 0.22543(19) 0.46414(19) 0.000000
H1 H 0.216752 0.451638 0.000000
O3 O 0.21576(19) 0.45367(19) 0.0460(2)
O4 O 0.18551(18) 0.47475(18) 0.02563(17)
C1 C 0.1942(2) 0.4594(3) 0.0404(3)
C2 C 0.1735(3) 0.4448(2) 0.0511(3)
C3 C 0.1791(2) 0.4326(3) 0.0724(3)
H2 H 0.194970 0.433556 0.078944
C4 C 0.1615(3) 0.4189(2) 0.08402(19)
C5 C 0.1382(3) 0.4175(2) 0.0744(3)
C6 C 0.1327(2) 0.4297(3) 0.0531(3)
C7 C 0.1503(4) 0.4434(2) 0.04142(18)
H3 H 0.146505 0.451714 0.026859
C8 C 0.1061(3) 0.4139(4) 0.1061(3)
H4 H 0.110057 0.430155 0.110057
C9 C 0.1193(3) 0.4026(3) 0.0874(3)
C10 C 0.1134(3) 0.3782(3) 0.0837(4)
H5 H 0.123223 0.369393 0.072693
C11 C 0.0947(4) 0.3657(6) 0.0947(4)
H6 H 0.089761 0.349942 0.089759
C12 C 0.1671(3) 0.4050(3) 0.1073(3)
H7 H 0.152465 0.396528 0.112761
H8 H 0.179948 0.393209 0.104146
H9 H 0.172372 0.416386 0.119828
C13 C 0.1074(2) 0.4296(3) 0.0407(3)
H10 H 0.096173 0.419604 0.050176
H11 H 0.101135 0.446254 0.039895
H12 H 0.108798 0.423043 0.024304
O5 O 0.24712(17) 0.47890(17) 0.07055(17)
C14 C 0.2440(5) 0.500000 0.0783(4)
C15 C 0.2363(4) 0.500000 0.1044(4)
C16 C 0.2306(2) 0.4793(3) 0.1164(3)
H13 H 0.232600 0.464244 0.108323
C17 C 0.2222(3) 0.4791(2) 0.1398(3)
C18 C 0.2189(4) 0.500000 0.1530(3)
C19 C 0.1858(3) 0.500000 0.1858(3)
H14 H 0.173641 0.500000 0.173643
C20 C 0.2097(3) 0.500000 0.1783(3)
C21 C 0.2279(3) 0.500000 0.1955(3)
H15 H 0.244575 0.500000 0.191293
C22 C 0.2199(3) 0.500000 0.2199(3)
H16 H 0.232084 0.500000 0.232084
C23 C 0.2163(4) 0.4557(3) 0.1534(3)
H17 H 0.210566 0.459652 0.169699
H18 H 0.203678 0.446807 0.144637
H19 H 0.230925 0.445704 0.154483
O6 O 0.0460(2) 0.45367(19) 0.21576(19)
O7 O 0.02563(17) 0.47475(18) 0.18551(18)
C24 C 0.0404(3) 0.4594(3) 0.1942(2)
C25 C 0.0511(3) 0.4448(2) 0.1735(3)
C26 C 0.0724(3) 0.4326(3) 0.1791(2)
H20 H 0.078944 0.433556 0.194970
C27 C 0.08402(19) 0.4189(2) 0.1615(3)
C28 C 0.0744(3) 0.4175(2) 0.1382(3)
C29 C 0.0531(3) 0.4297(3) 0.1327(2)
C30 C 0.04142(18) 0.4434(2) 0.1503(4)
H21 H 0.026859 0.451714 0.146505
C31 C 0.0874(3) 0.4026(3) 0.1193(3)
C32 C 0.0837(4) 0.3782(3) 0.1134(3)
H22 H 0.072693 0.369393 0.123223
C33 C 0.1073(3) 0.4050(3) 0.1671(3)
H23 H 0.112761 0.396528 0.152465
H24 H 0.104146 0.393209 0.179948
H25 H 0.119828 0.416386 0.172372
C34 C 0.0407(3) 0.4296(3) 0.1074(2)
H26 H 0.050176 0.419604 0.096173
H27 H 0.039895 0.446254 0.101135
H28 H 0.024304 0.423043 0.108798
O8 O 0.07055(17) 0.52110(17) 0.24712(17)
C35 C 0.0783(4) 0.500000 0.2440(5)
C36 C 0.1044(4) 0.500000 0.2363(4)
C37 C 0.1164(3) 0.5207(3) 0.2306(2)
H29 H 0.108323 0.535756 0.232600
C38 C 0.1398(3) 0.5209(2) 0.2222(3)
C39 C 0.1530(3) 0.500000 0.2189(4)
C40 C 0.1783(3) 0.500000 0.2097(3)
C41 C 0.1955(3) 0.500000 0.2279(3)
H30 H 0.191293 0.500000 0.244575
C42 C 0.1534(3) 0.5443(3) 0.2163(4)
H31 H 0.169699 0.540348 0.210566
H32 H 0.144637 0.553193 0.203678
H33 H 0.154483 0.554296 0.230925
O9 O 0.24712(17) 0.52110(17) 0.07055(17)
C43 C 0.2306(2) 0.5207(3) 0.1164(3)
H34 H 0.232600 0.535756 0.108323
C44 C 0.2222(3) 0.5209(2) 0.1398(3)
C45 C 0.2163(4) 0.5443(3) 0.1534(3)
H35 H 0.210566 0.540348 0.169699
H36 H 0.203678 0.553193 0.144637
H37 H 0.230925 0.554296 0.154483
O10 O 0.07055(17) 0.47890(17) 0.24712(17)
C46 C 0.1164(3) 0.4793(3) 0.2306(2)
H38 H 0.108323 0.464244 0.232600
C47 C 0.1398(3) 0.4791(2) 0.2222(3)
C48 C 0.1534(3) 0.4557(3) 0.2163(4)
H39 H 0.169699 0.459652 0.210566
H40 H 0.144637 0.446807 0.203678
H41 H 0.154483 0.445704 0.230925
O12 O 0.22543(19) 0.53586(19) 0.000000
H42 H 0.216752 0.548362 0.000000
Zr4 Zr 0.03178(3) 0.53178(3) 0.250000
Zr6 Zr 0.250000 0.53178(3) 0.03178(3)
Zr8 Zr 0.03178(3) 0.46822(3) 0.250000
Zr10 Zr -0.000000 0.500000 0.20493(5)
O17 O 0.26881(18) 0.5273(2) 0.000000
O18 O 0.26881(18) 0.4727(2) 0.000000
O20 O 0.27457(19) 0.500000 0.03586(19)
O22 O 0.28424(19) 0.4540(2) 0.04633(19)
O24 O 0.18551(18) 0.52525(18) 0.02563(17)
O27 O 0.25288(17) 0.42945(17) 0.02110(17)
Zr2_2 Zr 0.20493(5) 0.500000 1.000000
O2_2 O 0.22543(19) 0.46414(19) 1.000000
H1_2 H 0.216752 0.451638 1.000000
Zr3 Zr 0.250000 0.53178(3) 0.96822(3)
O11 O 0.23119(18) 0.500000 0.9727(2)
O12_2 O 0.22543(19) 0.53586(19) 1.000000
H42_2 H 0.216752 0.548362 1.000000
O13 O 0.21576(19) 0.54633(19) 0.9540(2)
O14 O 0.18551(18) 0.52525(18) 0.97437(17)
C49 C 0.1942(2) 0.5406(3) 0.9596(3)
C50 C 0.1735(3) 0.5552(2) 0.9489(3)
C51 C 0.1791(2) 0.5674(3) 0.9276(3)
H43 H 0.194970 0.566444 0.921056
C52 C 0.1615(3) 0.5811(2) 0.91598(19)
C53 C 0.1382(3) 0.5825(2) 0.9256(3)
C54 C 0.1327(2) 0.5703(3) 0.9469(3)
C55 C 0.1503(4) 0.5566(2) 0.95858(18)
H44 H 0.146505 0.548286 0.973141
C56 C 0.1061(3) 0.5861(4) 0.8939(3)
H45 H 0.110057 0.569845 0.889943
C57 C 0.1193(3) 0.5974(3) 0.9126(3)
C58 C 0.1134(3) 0.6218(3) 0.9163(4)
H46 H 0.123223 0.630607 0.927307
C59 C 0.0947(4) 0.6343(6) 0.9053(4)
H47 H 0.089761 0.650058 0.910241
C60 C 0.1671(3) 0.5950(3) 0.8927(3)
H48 H 0.152465 0.603472 0.887239
H49 H 0.179948 0.606791 0.895854
H50 H 0.172372 0.583614 0.880172
C61 C 0.1074(2) 0.5704(3) 0.9593(3)
H51 H 0.096173 0.580396 0.949824
H52 H 0.101135 0.553746 0.960105
H53 H 0.108798 0.576957 0.975696
O15 O 0.0460(2) 0.54633(19) 0.78424(19)
O16 O 0.02563(17) 0.52525(18) 0.81449(18)
C62 C 0.0404(3) 0.5406(3) 0.8058(2)
C63 C 0.0511(3) 0.5552(2) 0.8265(3)
C64 C 0.0724(3) 0.5674(3) 0.8209(2)
H54 H 0.078944 0.566444 0.805030
C65 C 0.08402(19) 0.5811(2) 0.8385(3)
C66 C 0.0744(3) 0.5825(2) 0.8618(3)
C67 C 0.0531(3) 0.5703(3) 0.8673(2)
C68 C 0.04142(18) 0.5566(2) 0.8497(4)
H55 H 0.026859 0.548286 0.853495
C69 C 0.0874(3) 0.5974(3) 0.8807(3)
C70 C 0.0837(4) 0.6218(3) 0.8866(3)
H56 H 0.072693 0.630607 0.876777
C71 C 0.1073(3) 0.5950(3) 0.8329(3)
H57 H 0.112761 0.603472 0.847535
H58 H 0.104146 0.606791 0.820052
H59 H 0.119828 0.583614 0.827628
C72 C 0.0407(3) 0.5704(3) 0.8926(2)
H60 H 0.050176 0.580396 0.903827
H61 H 0.039895 0.553746 0.898865
H62 H 0.024304 0.576957 0.891202
Zr5 Zr 0.250000 0.46822(3) 0.96822(3)
Zr7 Zr 0.03178(3) 0.53178(3) 0.750000
Zr9 Zr 0.000000 0.500000 0.79507(5)
O17_2 O 0.26881(18) 0.5273(2) 1.000000
O18_2 O 0.26881(18) 0.4727(2) 1.000000
O19 O 0.27457(19) 0.500000 0.96414(19)
O21 O 0.28424(19) 0.5460(2) 0.95367(19)
O23 O 0.18551(18) 0.47475(18) 0.97437(17)
O25 O 0.24712(17) 0.52110(17) 0.92945(17)
O26 O 0.25288(17) 0.57055(17) 0.97890(17)
Zr10_2 Zr 1.000000 0.500000 0.20493(5)
Zr9_2 Zr 1.000000 0.500000 0.79507(5)
Zr1_2 Zr 0.53178(3) 0.250000 0.03178(3)
Zr2_3 Zr 0.500000 0.20493(5) 0.000000
O1_2 O 0.500000 0.23119(18) 0.0273(2)
O2_3 O 0.53586(19) 0.22543(19) 0.000000
H1_3 H 0.548362 0.216752 0.000000
O3_2 O 0.54633(19) 0.21576(19) 0.0460(2)
O4_2 O 0.52525(18) 0.18551(18) 0.02563(17)
C1_2 C 0.5406(3) 0.1942(2) 0.0404(3)
C2_2 C 0.5552(2) 0.1735(3) 0.0511(3)
C3_2 C 0.5674(3) 0.1791(2) 0.0724(3)
H2_2 H 0.566444 0.194970 0.078944
C4_2 C 0.5811(2) 0.1615(3) 0.08402(19)
C5_2 C 0.5825(2) 0.1382(3) 0.0744(3)
C6_2 C 0.5703(3) 0.1327(2) 0.0531(3)
C7_2 C 0.5566(2) 0.1503(4) 0.04142(18)
H3_2 H 0.548286 0.146505 0.026859
C8_2 C 0.5861(4) 0.1061(3) 0.1061(3)
H4_2 H 0.569845 0.110057 0.110057
C9_2 C 0.5974(3) 0.1193(3) 0.0874(3)
C10_2 C 0.6218(3) 0.1134(3) 0.0837(4)
H5_2 H 0.630607 0.123223 0.072693
C11_2 C 0.6343(6) 0.0947(4) 0.0947(4)
H6_2 H 0.650058 0.089761 0.089759
C12_2 C 0.5950(3) 0.1671(3) 0.1073(3)
H7_2 H 0.603472 0.152465 0.112761
H8_2 H 0.606791 0.179948 0.104146
H9_2 H 0.583614 0.172372 0.119828
C13_2 C 0.5704(3) 0.1074(2) 0.0407(3)
H10_2 H 0.580396 0.096173 0.050176
H11_2 H 0.553746 0.101135 0.039895
H12_2 H 0.576957 0.108798 0.024304
O5_2 O 0.52110(17) 0.24712(17) 0.07055(17)
C14_2 C 0.500000 0.2440(5) 0.0783(4)
C15_2 C 0.500000 0.2363(4) 0.1044(4)
C16_2 C 0.5207(3) 0.2306(2) 0.1164(3)
H13_2 H 0.535756 0.232600 0.108323
C17_2 C 0.5209(2) 0.2222(3) 0.1398(3)
C18_2 C 0.500000 0.2189(4) 0.1530(3)
C19_2 C 0.500000 0.1858(3) 0.1858(3)
H14_2 H 0.500000 0.173641 0.173643
C20_2 C 0.500000 0.2097(3) 0.1783(3)
C21_2 C 0.500000 0.2279(3) 0.1955(3)
H15_2 H 0.500000 0.244575 0.191293
C22_2 C 0.500000 0.2199(3) 0.2199(3)
H16_2 H 0.500000 0.232084 0.232084
C23_2 C 0.5443(3) 0.2163(4) 0.1534(3)
H17_2 H 0.540348 0.210566 0.169699
H18_2 H 0.553193 0.203678 0.144637
H19_2 H 0.554296 0.230925 0.154483
O6_2 O 0.54633(19) 0.0460(2) 0.21576(19)
O7_2 O 0.52525(18) 0.02563(17) 0.18551(18)
C24_2 C 0.5406(3) 0.0404(3) 0.1942(2)
C25_2 C 0.5552(2) 0.0511(3) 0.1735(3)
C26_2 C 0.5674(3) 0.0724(3) 0.1791(2)
H20_2 H 0.566444 0.078944 0.194970
C27_2 C 0.5811(2) 0.08402(19) 0.1615(3)
C28_2 C 0.5825(2) 0.0744(3) 0.1382(3)
C29_2 C 0.5703(3) 0.0531(3) 0.1327(2)
C30_2 C 0.5566(2) 0.04142(18) 0.1503(4)
H21_2 H 0.548286 0.026859 0.146505
C31_2 C 0.5974(3) 0.0874(3) 0.1193(3)
C32_2 C 0.6218(3) 0.0837(4) 0.1134(3)
H22_2 H 0.630607 0.072693 0.123223
C33_2 C 0.5950(3) 0.1073(3) 0.1671(3)
H23_2 H 0.603472 0.112761 0.152465
H24_2 H 0.606791 0.104146 0.179948
H25_2 H 0.583614 0.119828 0.172372
C34_2 C 0.5704(3) 0.0407(3) 0.1074(2)
H26_2 H 0.580396 0.050176 0.096173
H27_2 H 0.553746 0.039895 0.101135
H28_2 H 0.576957 0.024304 0.108798
O8_2 O 0.47890(17) 0.07055(17) 0.24712(17)
C35_2 C 0.500000 0.0783(4) 0.2440(5)
C36_2 C 0.500000 0.1044(4) 0.2363(4)
C37_2 C 0.4793(3) 0.1164(3) 0.2306(2)
H29_2 H 0.464244 0.108323 0.232600
C38_2 C 0.4791(2) 0.1398(3) 0.2222(3)
C39_2 C 0.500000 0.1530(3) 0.2189(4)
C40_2 C 0.500000 0.1783(3) 0.2097(3)
C41_2 C 0.500000 0.1955(3) 0.2279(3)
H30_2 H 0.500000 0.191293 0.244575
C42_2 C 0.4557(3) 0.1534(3) 0.2163(4)
H31_2 H 0.459652 0.169699 0.210566
H32_2 H 0.446807 0.144637 0.203678
H33_2 H 0.445704 0.154483 0.230925
O9_2 O 0.47890(17) 0.24712(17) 0.07055(17)
C43_2 C 0.4793(3) 0.2306(2) 0.1164(3)
H34_2 H 0.464244 0.232600 0.108323
C44_2 C 0.4791(2) 0.2222(3) 0.1398(3)
C45_2 C 0.4557(3) 0.2163(4) 0.1534(3)
H35_2 H 0.459652 0.210566 0.169699
H36_2 H 0.446807 0.203678 0.144637
H37_2 H 0.445704 0.230925 0.154483
O10_2 O 0.52110(17) 0.07055(17) 0.24712(17)
C46_2 C 0.5207(3) 0.1164(3) 0.2306(2)
H38_2 H 0.535756 0.108323 0.232600
C47_2 C 0.5209(2) 0.1398(3) 0.2222(3)
C48_2 C 0.5443(3) 0.1534(3) 0.2163(4)
H39_2 H 0.540348 0.169699 0.210566
H40_2 H 0.553193 0.144637 0.203678
H41_2 H 0.554296 0.154483 0.230925
O12_3 O 0.46414(19) 0.22543(19) 0.000000
H42_3 H 0.451638 0.216752 0.000000
Zr4_2 Zr 0.46822(3) 0.03178(3) 0.250000
Zr6_2 Zr 0.46822(3) 0.250000 0.03178(3)
Zr8_2 Zr 0.53178(3) 0.03178(3) 0.250000
Zr10_3 Zr 0.500000 0.000000 0.20493(5)
O17_3 O 0.4727(2) 0.26881(18) 0.000000
O18_3 O 0.5273(2) 0.26881(18) 0.000000
O20_2 O 0.500000 0.27457(19) 0.03586(19)
O22_2 O 0.5460(2) 0.28424(19) 0.04633(19)
O24_2 O 0.47475(18) 0.18551(18) 0.02563(17)
O27_2 O 0.57055(17) 0.25288(17) 0.02110(17)
Zr2_4 Zr 0.500000 0.20493(5) 1.000000
O2_4 O 0.53586(19) 0.22543(19) 1.000000
H1_4 H 0.548362 0.216752 1.000000
Zr3_2 Zr 0.46822(3) 0.250000 0.96822(3)
O11_2 O 0.500000 0.23119(18) 0.9727(2)
O12_4 O 0.46414(19) 0.22543(19) 1.000000
H42_4 H 0.451638 0.216752 1.000000
O13_2 O 0.45367(19) 0.21576(19) 0.9540(2)
O14_2 O 0.47475(18) 0.18551(18) 0.97437(17)
C49_2 C 0.4594(3) 0.1942(2) 0.9596(3)
C50_2 C 0.4448(2) 0.1735(3) 0.9489(3)
C51_2 C 0.4326(3) 0.1791(2) 0.9276(3)
H43_2 H 0.433556 0.194970 0.921056
C52_2 C 0.4189(2) 0.1615(3) 0.91598(19)
C53_2 C 0.4175(2) 0.1382(3) 0.9256(3)
C54_2 C 0.4297(3) 0.1327(2) 0.9469(3)
C55_2 C 0.4434(2) 0.1503(4) 0.95858(18)
H44_2 H 0.451714 0.146505 0.973141
C56_2 C 0.4139(4) 0.1061(3) 0.8939(3)
H45_2 H 0.430155 0.110057 0.889943
C57_2 C 0.4026(3) 0.1193(3) 0.9126(3)
C58_2 C 0.3782(3) 0.1134(3) 0.9163(4)
H46_2 H 0.369393 0.123223 0.927307
C59_2 C 0.3657(6) 0.0947(4) 0.9053(4)
H47_2 H 0.349942 0.089761 0.910241
C60_2 C 0.4050(3) 0.1671(3) 0.8927(3)
H48_2 H 0.396528 0.152465 0.887239
H49_2 H 0.393209 0.179948 0.895854
H50_2 H 0.416386 0.172372 0.880172
C61_2 C 0.4296(3) 0.1074(2) 0.9593(3)
H51_2 H 0.419604 0.096173 0.949824
H52_2 H 0.446254 0.101135 0.960105
H53_2 H 0.423043 0.108798 0.975696
O15_2 O 0.45367(19) 0.0460(2) 0.78424(19)
O16_2 O 0.47475(18) 0.02563(17) 0.81449(18)
C62_2 C 0.4594(3) 0.0404(3) 0.8058(2)
C63_2 C 0.4448(2) 0.0511(3) 0.8265(3)
C64_2 C 0.4326(3) 0.0724(3) 0.8209(2)
H54_2 H 0.433556 0.078944 0.805030
C65_2 C 0.4189(2) 0.08402(19) 0.8385(3)
C66_2 C 0.4175(2) 0.0744(3) 0.8618(3)
C67_2 C 0.4297(3) 0.0531(3) 0.8673(2)
C68_2 C 0.4434(2) 0.04142(18) 0.8497(4)
H55_2 H 0.451714 0.026859 0.853495
C69_2 C 0.4026(3) 0.0874(3) 0.8807(3)
C70_2 C 0.3782(3) 0.0837(4) 0.8866(3)
H56_2 H 0.369393 0.072693 0.876777
C71_2 C 0.4050(3) 0.1073(3) 0.8329(3)
H57_2 H 0.396528 0.112761 0.847535
H58_2 H 0.393209 0.104146 0.820052
H59_2 H 0.416386 0.119828 0.827628
C72_2 C 0.4296(3) 0.0407(3) 0.8926(2)
H60_2 H 0.419604 0.050176 0.903827
H61_2 H 0.446254 0.039895 0.898865
H62_2 H 0.423043 0.024304 0.891202
Zr5_2 Zr 0.53178(3) 0.250000 0.96822(3)
Zr7_2 Zr 0.46822(3) 0.03178(3) 0.750000
Zr9_3 Zr 0.500000 0.000000 0.79507(5)
O17_4 O 0.4727(2) 0.26881(18) 1.000000
O18_4 O 0.5273(2) 0.26881(18) 1.000000
O19_2 O 0.500000 0.27457(19) 0.96414(19)
O21_2 O 0.4540(2) 0.28424(19) 0.95367(19)
O23_2 O 0.52525(18) 0.18551(18) 0.97437(17)
O25_2 O 0.47890(17) 0.24712(17) 0.92945(17)
O26_2 O 0.42945(17) 0.25288(17) 0.97890(17)
Zr10_4 Zr 0.500000 1.000000 0.20493(5)
Zr9_4 Zr 0.500000 1.000000 0.79507(5)
Zr1_3 Zr 0.750000 0.53178(3) 0.03178(3)
Zr2_5 Zr 0.79507(5) 0.500000 0.000000
O1_3 O 0.76881(18) 0.500000 0.0273(2)
O2_5 O 0.77457(19) 0.53586(19) 0.000000
H1_5 H 0.783248 0.548362 0.000000
O3_3 O 0.78424(19) 0.54633(19) 0.0460(2)
O4_3 O 0.81449(18) 0.52525(18) 0.02563(17)
C1_3 C 0.8058(2) 0.5406(3) 0.0404(3)
C2_3 C 0.8265(3) 0.5552(2) 0.0511(3)
C3_3 C 0.8209(2) 0.5674(3) 0.0724(3)
H2_3 H 0.805030 0.566444 0.078944
C4_3 C 0.8385(3) 0.5811(2) 0.08402(19)
C5_3 C 0.8618(3) 0.5825(2) 0.0744(3)
C6_3 C 0.8673(2) 0.5703(3) 0.0531(3)
C7_3 C 0.8497(4) 0.5566(2) 0.04142(18)
H3_3 H 0.853495 0.548286 0.026859
C8_3 C 0.8939(3) 0.5861(4) 0.1061(3)
H4_3 H 0.889943 0.569845 0.110057
C9_3 C 0.8807(3) 0.5974(3) 0.0874(3)
C10_3 C 0.8866(3) 0.6218(3) 0.0837(4)
H5_3 H 0.876777 0.630607 0.072693
C11_3 C 0.9053(4) 0.6343(6) 0.0947(4)
H6_3 H 0.910239 0.650058 0.089759
C12_3 C 0.8329(3) 0.5950(3) 0.1073(3)
H7_3 H 0.847535 0.603472 0.112761
H8_3 H 0.820052 0.606791 0.104146
H9_3 H 0.827628 0.583614 0.119828
C13_3 C 0.8926(2) 0.5704(3) 0.0407(3)
H10_3 H 0.903827 0.580396 0.050176
H11_3 H 0.898865 0.553746 0.039895
H12_3 H 0.891202 0.576957 0.024304
O5_3 O 0.75288(17) 0.52110(17) 0.07055(17)
C14_3 C 0.7560(5) 0.500000 0.0783(4)
C15_3 C 0.7637(4) 0.500000 0.1044(4)
C16_3 C 0.7694(2) 0.5207(3) 0.1164(3)
H13_3 H 0.767400 0.535756 0.108323
C17_3 C 0.7778(3) 0.5209(2) 0.1398(3)
C18_3 C 0.7811(4) 0.500000 0.1530(3)
C19_3 C 0.8142(3) 0.500000 0.1858(3)
H14_3 H 0.826359 0.500000 0.173643
C20_3 C 0.7903(3) 0.500000 0.1783(3)
C21_3 C 0.7721(3) 0.500000 0.1955(3)
H15_3 H 0.755425 0.500000 0.191293
C22_3 C 0.7801(3) 0.500000 0.2199(3)
H16_3 H 0.767916 0.500000 0.232084
C23_3 C 0.7837(4) 0.5443(3) 0.1534(3)
H17_3 H 0.789434 0.540348 0.169699
H18_3 H 0.796322 0.553193 0.144637
H19_3 H 0.769075 0.554296 0.154483
O6_3 O 0.9540(2) 0.54633(19) 0.21576(19)
O7_3 O 0.97437(17) 0.52525(18) 0.18551(18)
C24_3 C 0.9596(3) 0.5406(3) 0.1942(2)
C25_3 C 0.9489(3) 0.5552(2) 0.1735(3)
C26_3 C 0.9276(3) 0.5674(3) 0.1791(2)
H20_3 H 0.921056 0.566444 0.194970
C27_3 C 0.91598(19) 0.5811(2) 0.1615(3)
C28_3 C 0.9256(3) 0.5825(2) 0.1382(3)
C29_3 C 0.9469(3) 0.5703(3) 0.1327(2)
C30_3 C 0.95858(18) 0.5566(2) 0.1503(4)
H21_3 H 0.973141 0.548286 0.146505
C31_3 C 0.9126(3) 0.5974(3) 0.1193(3)
C32_3 C 0.9163(4) 0.6218(3) 0.1134(3)
H22_3 H 0.927307 0.630607 0.123223
C33_3 C 0.8927(3) 0.5950(3) 0.1671(3)
H23_3 H 0.887239 0.603472 0.152465
H24_3 H 0.895854 0.606791 0.179948
H25_3 H 0.880172 0.583614 0.172372
C34_3 C 0.9593(3) 0.5704(3) 0.1074(2)
H26_3 H 0.949824 0.580396 0.096173
H27_3 H 0.960105 0.553746 0.101135
H28_3 H 0.975696 0.576957 0.108798
O8_3 O 0.92945(17) 0.47890(17) 0.24712(17)
C35_3 C 0.9217(4) 0.500000 0.2440(5)
C36_3 C 0.8956(4) 0.500000 0.2363(4)
C37_3 C 0.8836(3) 0.4793(3) 0.2306(2)
H29_3 H 0.891677 0.464244 0.232600
C38_3 C 0.8602(3) 0.4791(2) 0.2222(3)
C39_3 C 0.8470(3) 0.500000 0.2189(4)
C40_3 C 0.8217(3) 0.500000 0.2097(3)
C41_3 C 0.8045(3) 0.500000 0.2279(3)
H30_3 H 0.808707 0.500000 0.244575
C42_3 C 0.8466(3) 0.4557(3) 0.2163(4)
H31_3 H 0.830301 0.459652 0.210566
H32_3 H 0.855363 0.446807 0.203678
H33_3 H 0.845517 0.445704 0.230925
O9_3 O 0.75288(17) 0.47890(17) 0.07055(17)
C43_3 C 0.7694(2) 0.4793(3) 0.1164(3)
H34_3 H 0.767400 0.464244 0.108323
C44_3 C 0.7778(3) 0.4791(2) 0.1398(3)
C45_3 C 0.7837(4) 0.4557(3) 0.1534(3)
H35_3 H 0.789434 0.459652 0.169699
H36_3 H 0.796322 0.446807 0.144637
H37_3 H 0.769075 0.445704 0.154483
O10_3 O 0.92945(17) 0.52110(17) 0.24712(17)
C46_3 C 0.8836(3) 0.5207(3) 0.2306(2)
H38_3 H 0.891677 0.535756 0.232600
C47_3 C 0.8602(3) 0.5209(2) 0.2222(3)
C48_3 C 0.8466(3) 0.5443(3) 0.2163(4)
H39_3 H 0.830301 0.540348 0.210566
H40_3 H 0.855363 0.553193 0.203678
H41_3 H 0.845517 0.554296 0.230925
O12_5 O 0.77457(19) 0.46414(19) 0.000000
H42_5 H 0.783248 0.451638 0.000000
Zr4_3 Zr 0.96822(3) 0.46822(3) 0.250000
Zr6_3 Zr 0.750000 0.46822(3) 0.03178(3)
Zr8_3 Zr 0.96822(3) 0.53178(3) 0.250000
O17_5 O 0.73119(18) 0.4727(2) 0.000000
O18_5 O 0.73119(18) 0.5273(2) 0.000000
O20_3 O 0.72543(19) 0.500000 0.03586(19)
O22_3 O 0.71576(19) 0.5460(2) 0.04633(19)
O24_3 O 0.81449(18) 0.47475(18) 0.02563(17)
O27_3 O 0.74712(17) 0.57055(17) 0.02110(17)
Zr2_6 Zr 0.79507(5) 0.500000 1.000000
O2_6 O 0.77457(19) 0.53586(19) 1.000000
H1_6 H 0.783248 0.548362 1.000000
Zr3_3 Zr 0.750000 0.46822(3) 0.96822(3)
O11_3 O 0.76881(18) 0.500000 0.9727(2)
O12_6 O 0.77457(19) 0.46414(19) 1.000000
H42_6 H 0.783248 0.451638 1.000000
O13_3 O 0.78424(19) 0.45367(19) 0.9540(2)
O14_3 O 0.81449(18) 0.47475(18) 0.97437(17)
C49_3 C 0.8058(2) 0.4594(3) 0.9596(3)
C50_3 C 0.8265(3) 0.4448(2) 0.9489(3)
C51_3 C 0.8209(2) 0.4326(3) 0.9276(3)
H43_3 H 0.805030 0.433556 0.921056
C52_3 C 0.8385(3) 0.4189(2) 0.91598(19)
C53_3 C 0.8618(3) 0.4175(2) 0.9256(3)
C54_3 C 0.8673(2) 0.4297(3) 0.9469(3)
C55_3 C 0.8497(4) 0.4434(2) 0.95858(18)
H44_3 H 0.853495 0.451714 0.973141
C56_3 C 0.8939(3) 0.4139(4) 0.8939(3)
H45_3 H 0.889943 0.430155 0.889943
C57_3 C 0.8807(3) 0.4026(3) 0.9126(3)
C58_3 C 0.8866(3) 0.3782(3) 0.9163(4)
H46_3 H 0.876777 0.369393 0.927307
C59_3 C 0.9053(4) 0.3657(6) 0.9053(4)
H47_3 H 0.910239 0.349942 0.910241
C60_3 C 0.8329(3) 0.4050(3) 0.8927(3)
H48_3 H 0.847535 0.396528 0.887239
H49_3 H 0.820052 0.393209 0.895854
H50_3 H 0.827628 0.416386 0.880172
C61_3 C 0.8926(2) 0.4296(3) 0.9593(3)
H51_3 H 0.903827 0.419604 0.949824
H52_3 H 0.898865 0.446254 0.960105
H53_3 H 0.891202 0.423043 0.975696
O15_3 O 0.9540(2) 0.45367(19) 0.78424(19)
O16_3 O 0.97437(17) 0.47475(18) 0.81449(18)
C62_3 C 0.9596(3) 0.4594(3) 0.8058(2)
C63_3 C 0.9489(3) 0.4448(2) 0.8265(3)
C64_3 C 0.9276(3) 0.4326(3) 0.8209(2)
H54_3 H 0.921056 0.433556 0.805030
C65_3 C 0.91598(19) 0.4189(2) 0.8385(3)
C66_3 C 0.9256(3) 0.4175(2) 0.8618(3)
C67_3 C 0.9469(3) 0.4297(3) 0.8673(2)
C68_3 C 0.95858(18) 0.4434(2) 0.8497(4)
H55_3 H 0.973141 0.451714 0.853495
C69_3 C 0.9126(3) 0.4026(3) 0.8807(3)
C70_3 C 0.9163(4) 0.3782(3) 0.8866(3)
H56_3 H 0.927307 0.369393 0.876777
C71_3 C 0.8927(3) 0.4050(3) 0.8329(3)
H57_3 H 0.887239 0.396528 0.847535
H58_3 H 0.895854 0.393209 0.820052
H59_3 H 0.880172 0.416386 0.827628
C72_3 C 0.9593(3) 0.4296(3) 0.8926(2)
H60_3 H 0.949824 0.419604 0.903827
H61_3 H 0.960105 0.446254 0.898865
H62_3 H 0.975696 0.423043 0.891202
Zr5_3 Zr 0.750000 0.53178(3) 0.96822(3)
Zr7_3 Zr 0.96822(3) 0.46822(3) 0.750000
O17_6 O 0.73119(18) 0.4727(2) 1.000000
O18_6 O 0.73119(18) 0.5273(2) 1.000000
O19_3 O 0.72543(19) 0.500000 0.96414(19)
O21_3 O 0.71576(19) 0.4540(2) 0.95367(19)
O23_3 O 0.81449(18) 0.52525(18) 0.97437(17)
O25_3 O 0.75288(17) 0.47890(17) 0.92945(17)
O26_3 O 0.74712(17) 0.42945(17) 0.97890(17)
Zr1_4 Zr 0.46822(3) 0.750000 0.03178(3)
Zr2_7 Zr 0.500000 0.79507(5) 0.000000
O1_4 O 0.500000 0.76881(18) 0.0273(2)
O2_7 O 0.46414(19) 0.77457(19) 0.000000
H1_7 H 0.451638 0.783248 0.000000
O3_4 O 0.45367(19) 0.78424(19) 0.0460(2)
O4_4 O 0.47475(18) 0.81449(18) 0.02563(17)
C1_4 C 0.4594(3) 0.8058(2) 0.0404(3)
C2_4 C 0.4448(2) 0.8265(3) 0.0511(3)
C3_4 C 0.4326(3) 0.8209(2) 0.0724(3)
H2_4 H 0.433556 0.805030 0.078944
C4_4 C 0.4189(2) 0.8385(3) 0.08402(19)
C5_4 C 0.4175(2) 0.8618(3) 0.0744(3)
C6_4 C 0.4297(3) 0.8673(2) 0.0531(3)
C7_4 C 0.4434(2) 0.8497(4) 0.04142(18)
H3_4 H 0.451714 0.853495 0.026859
C8_4 C 0.4139(4) 0.8939(3) 0.1061(3)
H4_4 H 0.430155 0.889943 0.110057
C9_4 C 0.4026(3) 0.8807(3) 0.0874(3)
C10_4 C 0.3782(3) 0.8866(3) 0.0837(4)
H5_4 H 0.369393 0.876777 0.072693
C11_4 C 0.3657(6) 0.9053(4) 0.0947(4)
H6_4 H 0.349942 0.910239 0.089759
C12_4 C 0.4050(3) 0.8329(3) 0.1073(3)
H7_4 H 0.396528 0.847535 0.112761
H8_4 H 0.393209 0.820052 0.104146
H9_4 H 0.416386 0.827628 0.119828
C13_4 C 0.4296(3) 0.8926(2) 0.0407(3)
H10_4 H 0.419604 0.903827 0.050176
H11_4 H 0.446254 0.898865 0.039895
H12_4 H 0.423043 0.891202 0.024304
O5_4 O 0.47890(17) 0.75288(17) 0.07055(17)
C14_4 C 0.500000 0.7560(5) 0.0783(4)
C15_4 C 0.500000 0.7637(4) 0.1044(4)
C16_4 C 0.4793(3) 0.7694(2) 0.1164(3)
H13_4 H 0.464244 0.767400 0.108323
C17_4 C 0.4791(2) 0.7778(3) 0.1398(3)
C18_4 C 0.500000 0.7811(4) 0.1530(3)
C19_4 C 0.500000 0.8142(3) 0.1858(3)
H14_4 H 0.500000 0.826359 0.173643
C20_4 C 0.500000 0.7903(3) 0.1783(3)
C21_4 C 0.500000 0.7721(3) 0.1955(3)
H15_4 H 0.500000 0.755425 0.191293
C22_4 C 0.500000 0.7801(3) 0.2199(3)
H16_4 H 0.500000 0.767916 0.232084
C23_4 C 0.4557(3) 0.7837(4) 0.1534(3)
H17_4 H 0.459652 0.789434 0.169699
H18_4 H 0.446807 0.796322 0.144637
H19_4 H 0.445704 0.769075 0.154483
O6_4 O 0.45367(19) 0.9540(2) 0.21576(19)
O7_4 O 0.47475(18) 0.97437(17) 0.18551(18)
C24_4 C 0.4594(3) 0.9596(3) 0.1942(2)
C25_4 C 0.4448(2) 0.9489(3) 0.1735(3)
C26_4 C 0.4326(3) 0.9276(3) 0.1791(2)
H20_4 H 0.433556 0.921056 0.194970
C27_4 C 0.4189(2) 0.91598(19) 0.1615(3)
C28_4 C 0.4175(2) 0.9256(3) 0.1382(3)
C29_4 C 0.4297(3) 0.9469(3) 0.1327(2)
C30_4 C 0.4434(2) 0.95858(18) 0.1503(4)
H21_4 H 0.451714 0.973141 0.146505
C31_4 C 0.4026(3) 0.9126(3) 0.1193(3)
C32_4 C 0.3782(3) 0.9163(4) 0.1134(3)
H22_4 H 0.369393 0.927307 0.123223
C33_4 C 0.4050(3) 0.8927(3) 0.1671(3)
H23_4 H 0.396528 0.887239 0.152465
H24_4 H 0.393209 0.895854 0.179948
H25_4 H 0.416386 0.880172 0.172372
C34_4 C 0.4296(3) 0.9593(3) 0.1074(2)
H26_4 H 0.419604 0.949824 0.096173
H27_4 H 0.446254 0.960105 0.101135
H28_4 H 0.423043 0.975696 0.108798
O8_4 O 0.52110(17) 0.92945(17) 0.24712(17)
C35_4 C 0.500000 0.9217(4) 0.2440(5)
C36_4 C 0.500000 0.8956(4) 0.2363(4)
C37_4 C 0.5207(3) 0.8836(3) 0.2306(2)
H29_4 H 0.535756 0.891677 0.232600
C38_4 C 0.5209(2) 0.8602(3) 0.2222(3)
C39_4 C 0.500000 0.8470(3) 0.2189(4)
C40_4 C 0.500000 0.8217(3) 0.2097(3)
C41_4 C 0.500000 0.8045(3) 0.2279(3)
H30_4 H 0.500000 0.808707 0.244575
C42_4 C 0.5443(3) 0.8466(3) 0.2163(4)
H31_4 H 0.540348 0.830301 0.210566
H32_4 H 0.553193 0.855363 0.203678
H33_4 H 0.554296 0.845517 0.230925
O9_4 O 0.52110(17) 0.75288(17) 0.07055(17)
C43_4 C 0.5207(3) 0.7694(2) 0.1164(3)
H34_4 H 0.535756 0.767400 0.108323
C44_4 C 0.5209(2) 0.7778(3) 0.1398(3)
C45_4 C 0.5443(3) 0.7837(4) 0.1534(3)
H35_4 H 0.540348 0.789434 0.169699
H36_4 H 0.553193 0.796322 0.144637
H37_4 H 0.554296 0.769075 0.154483
O10_4 O 0.47890(17) 0.92945(17) 0.24712(17)
C46_4 C 0.4793(3) 0.8836(3) 0.2306(2)
H38_4 H 0.464244 0.891677 0.232600
C47_4 C 0.4791(2) 0.8602(3) 0.2222(3)
C48_4 C 0.4557(3) 0.8466(3) 0.2163(4)
H39_4 H 0.459652 0.830301 0.210566
H40_4 H 0.446807 0.855363 0.203678
H41_4 H 0.445704 0.845517 0.230925
O12_7 O 0.53586(19) 0.77457(19) 0.000000
H42_7 H 0.548362 0.783248 0.000000
Zr4_4 Zr 0.53178(3) 0.96822(3) 0.250000
Zr6_4 Zr 0.53178(3) 0.750000 0.03178(3)
Zr8_4 Zr 0.46822(3) 0.96822(3) 0.250000
O17_7 O 0.5273(2) 0.73119(18) 0.000000
O18_7 O 0.4727(2) 0.73119(18) 0.000000
O20_4 O 0.500000 0.72543(19) 0.03586(19)
O22_4 O 0.4540(2) 0.71576(19) 0.04633(19)
O24_4 O 0.52525(18) 0.81449(18) 0.02563(17)
O27_4 O 0.42945(17) 0.74712(17) 0.02110(17)
Zr2_8 Zr 0.500000 0.79507(5) 1.000000
O2_8 O 0.46414(19) 0.77457(19) 1.000000
H1_8 H 0.451638 0.783248 1.000000
Zr3_4 Zr 0.53178(3) 0.750000 0.96822(3)
O11_4 O 0.500000 0.76881(18) 0.9727(2)
O12_8 O 0.53586(19) 0.77457(19) 1.000000
H42_8 H 0.548362 0.783248 1.000000
O13_4 O 0.54633(19) 0.78424(19) 0.9540(2)
O14_4 O 0.52525(18) 0.81449(18) 0.97437(17)
C49_4 C 0.5406(3) 0.8058(2) 0.9596(3)
C50_4 C 0.5552(2) 0.8265(3) 0.9489(3)
C51_4 C 0.5674(3) 0.8209(2) 0.9276(3)
H43_4 H 0.566444 0.805030 0.921056
C52_4 C 0.5811(2) 0.8385(3) 0.91598(19)
C53_4 C 0.5825(2) 0.8618(3) 0.9256(3)
C54_4 C 0.5703(3) 0.8673(2) 0.9469(3)
C55_4 C 0.5566(2) 0.8497(4) 0.95858(18)
H44_4 H 0.548286 0.853495 0.973141
C56_4 C 0.5861(4) 0.8939(3) 0.8939(3)
H45_4 H 0.569845 0.889943 0.889943
C57_4 C 0.5974(3) 0.8807(3) 0.9126(3)
C58_4 C 0.6218(3) 0.8866(3) 0.9163(4)
H46_4 H 0.630607 0.876777 0.927307
C59_4 C 0.6343(6) 0.9053(4) 0.9053(4)
H47_4 H 0.650058 0.910239 0.910241
C60_4 C 0.5950(3) 0.8329(3) 0.8927(3)
H48_4 H 0.603472 0.847535 0.887239
H49_4 H 0.606791 0.820052 0.895854
H50_4 H 0.583614 0.827628 0.880172
C61_4 C 0.5704(3) 0.8926(2) 0.9593(3)
H51_4 H 0.580396 0.903827 0.949824
H52_4 H 0.553746 0.898865 0.960105
H53_4 H 0.576957 0.891202 0.975696
O15_4 O 0.54633(19) 0.9540(2) 0.78424(19)
O16_4 O 0.52525(18) 0.97437(17) 0.81449(18)
C62_4 C 0.5406(3) 0.9596(3) 0.8058(2)
C63_4 C 0.5552(2) 0.9489(3) 0.8265(3)
C64_4 C 0.5674(3) 0.9276(3) 0.8209(2)
H54_4 H 0.566444 0.921056 0.805030
C65_4 C 0.5811(2) 0.91598(19) 0.8385(3)
C66_4 C 0.5825(2) 0.9256(3) 0.8618(3)
C67_4 C 0.5703(3) 0.9469(3) 0.8673(2)
C68_4 C 0.5566(2) 0.95858(18) 0.8497(4)
H55_4 H 0.548286 0.973141 0.853495
C69_4 C 0.5974(3) 0.9126(3) 0.8807(3)
C70_4 C 0.6218(3) 0.9163(4) 0.8866(3)
H56_4 H 0.630607 0.927307 0.876777
C71_4 C 0.5950(3) 0.8927(3) 0.8329(3)
H57_4 H 0.603472 0.887239 0.847535
H58_4 H 0.606791 0.895854 0.820052
H59_4 H 0.583614 0.880172 0.827628
C72_4 C 0.5704(3) 0.9593(3) 0.8926(2)
H60_4 H 0.580396 0.949824 0.903827
H61_4 H 0.553746 0.960105 0.898865
H62_4 H 0.576957 0.975696 0.891202
Zr5_4 Zr 0.46822(3) 0.750000 0.96822(3)
Zr7_4 Zr 0.53178(3) 0.96822(3) 0.750000
O17_8 O 0.5273(2) 0.73119(18) 1.000000
O18_8 O 0.4727(2) 0.73119(18) 1.000000
O19_4 O 0.500000 0.72543(19) 0.96414(19)
O21_4 O 0.5460(2) 0.71576(19) 0.95367(19)
O23_4 O 0.47475(18) 0.81449(18) 0.97437(17)
O25_4 O 0.52110(17) 0.75288(17) 0.92945(17)
O26_4 O 0.57055(17) 0.74712(17) 0.97890(17)
Zr2_9 Zr 0.20493(5) 0.000000 0.500000
O2_9 O 0.22543(19) 0.000000 0.46414(19)
H1_9 H 0.216752 0.000000 0.451638
Zr3_5 Zr 0.250000 0.03178(3) 0.53178(3)
O11_5 O 0.23119(18) 0.0273(2) 0.500000
O12_9 O 0.22543(19) 0.000000 0.53586(19)
H42_9 H 0.216752 0.000000 0.548362
O13_5 O 0.21576(19) 0.0460(2) 0.54633(19)
O14_5 O 0.18551(18) 0.02563(17) 0.52525(18)
C49_5 C 0.1942(2) 0.0404(3) 0.5406(3)
C50_5 C 0.1735(3) 0.0511(3) 0.5552(2)
C51_5 C 0.1791(2) 0.0724(3) 0.5674(3)
H43_5 H 0.194970 0.078944 0.566444
C52_5 C 0.1615(3) 0.08402(19) 0.5811(2)
C53_5 C 0.1382(3) 0.0744(3) 0.5825(2)
C54_5 C 0.1327(2) 0.0531(3) 0.5703(3)
C55_5 C 0.1503(4) 0.04142(18) 0.5566(2)
H44_5 H 0.146505 0.026859 0.548286
C56_5 C 0.1061(3) 0.1061(3) 0.5861(4)
H45_5 H 0.110057 0.110057 0.569845
C57_5 C 0.1193(3) 0.0874(3) 0.5974(3)
C58_5 C 0.1134(3) 0.0837(4) 0.6218(3)
H46_5 H 0.123223 0.072693 0.630607
C59_5 C 0.0947(4) 0.0947(4) 0.6343(6)
H47_5 H 0.089761 0.089759 0.650058
C60_5 C 0.1671(3) 0.1073(3) 0.5950(3)
H48_5 H 0.152465 0.112761 0.603472
H49_5 H 0.179948 0.104146 0.606791
H50_5 H 0.172372 0.119828 0.583614
C61_5 C 0.1074(2) 0.0407(3) 0.5704(3)
H51_5 H 0.096173 0.050176 0.580396
H52_5 H 0.101135 0.039895 0.553746
H53_5 H 0.108798 0.024304 0.576957
O15_5 O 0.0460(2) 0.21576(19) 0.54633(19)
O16_5 O 0.02563(17) 0.18551(18) 0.52525(18)
C62_5 C 0.0404(3) 0.1942(2) 0.5406(3)
C63_5 C 0.0511(3) 0.1735(3) 0.5552(2)
C64_5 C 0.0724(3) 0.1791(2) 0.5674(3)
H54_5 H 0.078944 0.194970 0.566444
C65_5 C 0.08402(19) 0.1615(3) 0.5811(2)
C66_5 C 0.0744(3) 0.1382(3) 0.5825(2)
C67_5 C 0.0531(3) 0.1327(2) 0.5703(3)
C68_5 C 0.04142(18) 0.1503(4) 0.5566(2)
H55_5 H 0.026859 0.146505 0.548286
C69_5 C 0.0874(3) 0.1193(3) 0.5974(3)
C70_5 C 0.0837(4) 0.1134(3) 0.6218(3)
H56_5 H 0.072693 0.123223 0.630607
C71_5 C 0.1073(3) 0.1671(3) 0.5950(3)
H57_5 H 0.112761 0.152465 0.603472
H58_5 H 0.104146 0.179948 0.606791
H59_5 H 0.119828 0.172372 0.583614
C72_5 C 0.0407(3) 0.1074(2) 0.5704(3)
H60_5 H 0.050176 0.096173 0.580396
H61_5 H 0.039895 0.101135 0.553746
H62_5 H 0.024304 0.108798 0.576957
Zr5_5 Zr 0.250000 0.03178(3) 0.46822(3)
Zr7_5 Zr 0.03178(3) 0.250000 0.53178(3)
Zr9_5 Zr 0.000000 0.20493(5) 0.500000
O17_9 O 0.26881(18) 0.000000 0.5273(2)
O18_9 O 0.26881(18) 0.000000 0.4727(2)
O19_5 O 0.27457(19) 0.03586(19) 0.500000
O21_5 O 0.28424(19) 0.04633(19) 0.5460(2)
O23_5 O 0.18551(18) 0.02563(17) 0.47475(18)
O25_5 O 0.24712(17) 0.07055(17) 0.52110(17)
O26_5 O 0.25288(17) 0.02110(17) 0.57055(17)
Zr1_5 Zr 0.250000 0.96822(3) 0.46822(3)
Zr2_10 Zr 0.20493(5) 1.000000 0.500000
O1_5 O 0.23119(18) 0.9727(2) 0.500000
O2_10 O 0.22543(19) 1.000000 0.46414(19)
H1_10 H 0.216752 1.000000 0.451638
O3_5 O 0.21576(19) 0.9540(2) 0.45367(19)
O4_5 O 0.18551(18) 0.97437(17) 0.47475(18)
C1_5 C 0.1942(2) 0.9596(3) 0.4594(3)
C2_5 C 0.1735(3) 0.9489(3) 0.4448(2)
C3_5 C 0.1791(2) 0.9276(3) 0.4326(3)
H2_5 H 0.194970 0.921056 0.433556
C4_5 C 0.1615(3) 0.91598(19) 0.4189(2)
C5_5 C 0.1382(3) 0.9256(3) 0.4175(2)
C6_5 C 0.1327(2) 0.9469(3) 0.4297(3)
C7_5 C 0.1503(4) 0.95858(18) 0.4434(2)
H3_5 H 0.146505 0.973141 0.451714
C8_5 C 0.1061(3) 0.8939(3) 0.4139(4)
H4_5 H 0.110057 0.889943 0.430155
C9_5 C 0.1193(3) 0.9126(3) 0.4026(3)
C10_5 C 0.1134(3) 0.9163(4) 0.3782(3)
H5_5 H 0.123223 0.927307 0.369393
C11_5 C 0.0947(4) 0.9053(4) 0.3657(6)
H6_5 H 0.089761 0.910241 0.349942
C12_5 C 0.1671(3) 0.8927(3) 0.4050(3)
H7_5 H 0.152465 0.887239 0.396528
H8_5 H 0.179948 0.895854 0.393209
H9_5 H 0.172372 0.880172 0.416386
C13_5 C 0.1074(2) 0.9593(3) 0.4296(3)
H10_5 H 0.096173 0.949824 0.419604
H11_5 H 0.101135 0.960105 0.446254
H12_5 H 0.108798 0.975696 0.423043
O5_5 O 0.24712(17) 0.92945(17) 0.47890(17)
C14_5 C 0.2440(5) 0.9217(4) 0.500000
C15_5 C 0.2363(4) 0.8956(4) 0.500000
C16_5 C 0.2306(2) 0.8836(3) 0.4793(3)
H13_5 H 0.232600 0.891677 0.464244
C17_5 C 0.2222(3) 0.8602(3) 0.4791(2)
C18_5 C 0.2189(4) 0.8470(3) 0.500000
C19_5 C 0.1858(3) 0.8142(3) 0.500000
H14_5 H 0.173641 0.826357 0.500000
C20_5 C 0.2097(3) 0.8217(3) 0.500000
C21_5 C 0.2279(3) 0.8045(3) 0.500000
H15_5 H 0.244575 0.808707 0.500000
C22_5 C 0.2199(3) 0.7801(3) 0.500000
H16_5 H 0.232084 0.767916 0.500000
C23_5 C 0.2163(4) 0.8466(3) 0.4557(3)
H17_5 H 0.210566 0.830301 0.459652
H18_5 H 0.203678 0.855363 0.446807
H19_5 H 0.230925 0.845517 0.445704
O6_5 O 0.0460(2) 0.78424(19) 0.45367(19)
O7_5 O 0.02563(17) 0.81449(18) 0.47475(18)
C24_5 C 0.0404(3) 0.8058(2) 0.4594(3)
C25_5 C 0.0511(3) 0.8265(3) 0.4448(2)
C26_5 C 0.0724(3) 0.8209(2) 0.4326(3)
H20_5 H 0.078944 0.805030 0.433556
C27_5 C 0.08402(19) 0.8385(3) 0.4189(2)
C28_5 C 0.0744(3) 0.8618(3) 0.4175(2)
C29_5 C 0.0531(3) 0.8673(2) 0.4297(3)
C30_5 C 0.04142(18) 0.8497(4) 0.4434(2)
H21_5 H 0.026859 0.853495 0.451714
C31_5 C 0.0874(3) 0.8807(3) 0.4026(3)
C32_5 C 0.0837(4) 0.8866(3) 0.3782(3)
H22_5 H 0.072693 0.876777 0.369393
C33_5 C 0.1073(3) 0.8329(3) 0.4050(3)
H23_5 H 0.112761 0.847535 0.396528
H24_5 H 0.104146 0.820052 0.393209
H25_5 H 0.119828 0.827628 0.416386
C34_5 C 0.0407(3) 0.8926(2) 0.4296(3)
H26_5 H 0.050176 0.903827 0.419604
H27_5 H 0.039895 0.898865 0.446254
H28_5 H 0.024304 0.891202 0.423043
O8_5 O 0.07055(17) 0.75288(17) 0.52110(17)
C35_5 C 0.0783(4) 0.7560(5) 0.500000
C36_5 C 0.1044(4) 0.7637(4) 0.500000
C37_5 C 0.1164(3) 0.7694(2) 0.5207(3)
H29_5 H 0.108323 0.767400 0.535756
C38_5 C 0.1398(3) 0.7778(3) 0.5209(2)
C39_5 C 0.1530(3) 0.7811(4) 0.500000
C40_5 C 0.1783(3) 0.7903(3) 0.500000
C41_5 C 0.1955(3) 0.7721(3) 0.500000
H30_5 H 0.191293 0.755425 0.500000
C42_5 C 0.1534(3) 0.7837(4) 0.5443(3)
H31_5 H 0.169699 0.789434 0.540348
H32_5 H 0.144637 0.796322 0.553193
H33_5 H 0.154483 0.769075 0.554296
O9_5 O 0.24712(17) 0.92945(17) 0.52110(17)
C43_5 C 0.2306(2) 0.8836(3) 0.5207(3)
H34_5 H 0.232600 0.891677 0.535756
C44_5 C 0.2222(3) 0.8602(3) 0.5209(2)
C45_5 C 0.2163(4) 0.8466(3) 0.5443(3)
H35_5 H 0.210566 0.830301 0.540348
H36_5 H 0.203678 0.855363 0.553193
H37_5 H 0.230925 0.845517 0.554296
O10_5 O 0.07055(17) 0.75288(17) 0.47890(17)
C46_5 C 0.1164(3) 0.7694(2) 0.4793(3)
H38_5 H 0.108323 0.767400 0.464244
C47_5 C 0.1398(3) 0.7778(3) 0.4791(2)
C48_5 C 0.1534(3) 0.7837(4) 0.4557(3)
H39_5 H 0.169699 0.789434 0.459652
H40_5 H 0.144637 0.796322 0.446807
H41_5 H 0.154483 0.769075 0.445704
O12_10 O 0.22543(19) 1.000000 0.53586(19)
H42_10 H 0.216752 1.000000 0.548362
Zr4_5 Zr 0.03178(3) 0.750000 0.53178(3)
Zr6_5 Zr 0.250000 0.96822(3) 0.53178(3)
Zr8_5 Zr 0.03178(3) 0.750000 0.46822(3)
Zr10_5 Zr 0.000000 0.79507(5) 0.500000
O17_10 O 0.26881(18) 1.000000 0.5273(2)
O18_10 O 0.26881(18) 1.000000 0.4727(2)
O20_5 O 0.27457(19) 0.96414(19) 0.500000
O22_5 O 0.28424(19) 0.95367(19) 0.4540(2)
O24_5 O 0.18551(18) 0.97437(17) 0.52525(18)
O27_5 O 0.25288(17) 0.97890(17) 0.42945(17)
Zr9_6 Zr 1.000000 0.20493(5) 0.500000
Zr10_6 Zr 1.000000 0.79507(5) 0.500000
C14_6 C 0.2440(5) 0.500000 0.9217(4)
C15_6 C 0.2363(4) 0.500000 0.8956(4)
C16_6 C 0.2306(2) 0.5207(3) 0.8836(3)
H13_6 H 0.232600 0.535756 0.891677
C17_6 C 0.2222(3) 0.5209(2) 0.8602(3)
C18_6 C 0.2189(4) 0.500000 0.8470(3)
C19_6 C 0.1858(3) 0.500000 0.8142(3)
H14_6 H 0.173641 0.500000 0.826357
C20_6 C 0.2097(3) 0.500000 0.8217(3)
C21_6 C 0.2279(3) 0.500000 0.8045(3)
H15_6 H 0.244575 0.500000 0.808707
C22_6 C 0.2199(3) 0.500000 0.7801(3)
H16_6 H 0.232084 0.500000 0.767916
C23_6 C 0.2163(4) 0.5443(3) 0.8466(3)
H17_6 H 0.210566 0.540348 0.830301
H18_6 H 0.203678 0.553193 0.855363
H19_6 H 0.230925 0.554296 0.845517
O8_6 O 0.07055(17) 0.47890(17) 0.75288(17)
C35_6 C 0.0783(4) 0.500000 0.7560(5)
C36_6 C 0.1044(4) 0.500000 0.7637(4)
C37_6 C 0.1164(3) 0.4793(3) 0.7694(2)
H29_6 H 0.108323 0.464244 0.767400
C38_6 C 0.1398(3) 0.4791(2) 0.7778(3)
C39_6 C 0.1530(3) 0.500000 0.7811(4)
C40_6 C 0.1783(3) 0.500000 0.7903(3)
C41_6 C 0.1955(3) 0.500000 0.7721(3)
H30_6 H 0.191293 0.500000 0.755425
C42_6 C 0.1534(3) 0.4557(3) 0.7837(4)
H31_6 H 0.169699 0.459652 0.789434
H32_6 H 0.144637 0.446807 0.796322
H33_6 H 0.154483 0.445704 0.769075
O9_6 O 0.24712(17) 0.47890(17) 0.92945(17)
C43_6 C 0.2306(2) 0.4793(3) 0.8836(3)
H34_6 H 0.232600 0.464244 0.891677
C44_6 C 0.2222(3) 0.4791(2) 0.8602(3)
C45_6 C 0.2163(4) 0.4557(3) 0.8466(3)
H35_6 H 0.210566 0.459652 0.830301
H36_6 H 0.203678 0.446807 0.855363
H37_6 H 0.230925 0.445704 0.845517
O10_6 O 0.07055(17) 0.52110(17) 0.75288(17)
C46_6 C 0.1164(3) 0.5207(3) 0.7694(2)
H38_6 H 0.108323 0.535756 0.767400
C47_6 C 0.1398(3) 0.5209(2) 0.7778(3)
C48_6 C 0.1534(3) 0.5443(3) 0.7837(4)
H39_6 H 0.169699 0.540348 0.789434
H40_6 H 0.144637 0.553193 0.796322
H41_6 H 0.154483 0.554296 0.769075
Zr4_6 Zr 0.03178(3) 0.46822(3) 0.750000
C14_7 C 0.2440(5) 0.0783(4) 0.500000
C15_7 C 0.2363(4) 0.1044(4) 0.500000
C16_7 C 0.2306(2) 0.1164(3) 0.5207(3)
H13_7 H 0.232600 0.108323 0.535756
C17_7 C 0.2222(3) 0.1398(3) 0.5209(2)
C18_7 C 0.2189(4) 0.1530(3) 0.500000
C19_7 C 0.1858(3) 0.1858(3) 0.500000
H14_7 H 0.173641 0.173643 0.500000
C20_7 C 0.2097(3) 0.1783(3) 0.500000
C21_7 C 0.2279(3) 0.1955(3) 0.500000
H15_7 H 0.244575 0.191293 0.500000
C22_7 C 0.2199(3) 0.2199(3) 0.500000
H16_7 H 0.232084 0.232084 0.500000
C23_7 C 0.2163(4) 0.1534(3) 0.5443(3)
H17_7 H 0.210566 0.169699 0.540348
H18_7 H 0.203678 0.144637 0.553193
H19_7 H 0.230925 0.154483 0.554296
O8_7 O 0.07055(17) 0.24712(17) 0.47890(17)
C35_7 C 0.0783(4) 0.2440(5) 0.500000
C36_7 C 0.1044(4) 0.2363(4) 0.500000
C37_7 C 0.1164(3) 0.2306(2) 0.4793(3)
H29_7 H 0.108323 0.232600 0.464244
C38_7 C 0.1398(3) 0.2222(3) 0.4791(2)
C39_7 C 0.1530(3) 0.2189(4) 0.500000
C40_7 C 0.1783(3) 0.2097(3) 0.500000
C41_7 C 0.1955(3) 0.2279(3) 0.500000
H30_7 H 0.191293 0.244575 0.500000
C42_7 C 0.1534(3) 0.2163(4) 0.4557(3)
H31_7 H 0.169699 0.210566 0.459652
H32_7 H 0.144637 0.203678 0.446807
H33_7 H 0.154483 0.230925 0.445704
O9_7 O 0.24712(17) 0.07055(17) 0.47890(17)
C43_7 C 0.2306(2) 0.1164(3) 0.4793(3)
H34_7 H 0.232600 0.108323 0.464244
C44_7 C 0.2222(3) 0.1398(3) 0.4791(2)
C45_7 C 0.2163(4) 0.1534(3) 0.4557(3)
H35_7 H 0.210566 0.169699 0.459652
H36_7 H 0.203678 0.144637 0.446807
H37_7 H 0.230925 0.154483 0.445704
O10_7 O 0.07055(17) 0.24712(17) 0.52110(17)
C46_7 C 0.1164(3) 0.2306(2) 0.5207(3)
H38_7 H 0.108323 0.232600 0.535756
C47_7 C 0.1398(3) 0.2222(3) 0.5209(2)
C48_7 C 0.1534(3) 0.2163(4) 0.5443(3)
H39_7 H 0.169699 0.210566 0.540348
H40_7 H 0.144637 0.203678 0.553193
H41_7 H 0.154483 0.230925 0.554296
Zr4_7 Zr 0.03178(3) 0.250000 0.46822(3)
O1_6 O 0.0273(2) 0.500000 0.76881(18)
O2_11 O 0.000000 0.46414(19) 0.77457(19)
H1_11 H 0.000000 0.451638 0.783248
O3_6 O 0.0460(2) 0.45367(19) 0.78424(19)
O4_6 O 0.02563(17) 0.47475(18) 0.81449(18)
C1_6 C 0.0404(3) 0.4594(3) 0.8058(2)
C2_6 C 0.0511(3) 0.4448(2) 0.8265(3)
C3_6 C 0.0724(3) 0.4326(3) 0.8209(2)
H2_6 H 0.078944 0.433556 0.805030
C4_6 C 0.08402(19) 0.4189(2) 0.8385(3)
C5_6 C 0.0744(3) 0.4175(2) 0.8618(3)
C6_6 C 0.0531(3) 0.4297(3) 0.8673(2)
C7_6 C 0.04142(18) 0.4434(2) 0.8497(4)
H3_6 H 0.026859 0.451714 0.853495
C8_6 C 0.1061(3) 0.4139(4) 0.8939(3)
H4_6 H 0.110057 0.430155 0.889943
C9_6 C 0.0874(3) 0.4026(3) 0.8807(3)
C10_6 C 0.0837(4) 0.3782(3) 0.8866(3)
H5_6 H 0.072693 0.369393 0.876777
C11_6 C 0.0947(4) 0.3657(6) 0.9053(4)
H6_6 H 0.089759 0.349942 0.910239
C12_6 C 0.1073(3) 0.4050(3) 0.8329(3)
H7_6 H 0.112761 0.396528 0.847535
H8_6 H 0.104146 0.393209 0.820052
H9_6 H 0.119828 0.416386 0.827628
C13_6 C 0.0407(3) 0.4296(3) 0.8926(2)
H10_6 H 0.050176 0.419604 0.903827
H11_6 H 0.039895 0.446254 0.898865
H12_6 H 0.024304 0.423043 0.891202
O6_6 O 0.21576(19) 0.45367(19) 0.9540(2)
C24_6 C 0.1942(2) 0.4594(3) 0.9596(3)
C25_6 C 0.1735(3) 0.4448(2) 0.9489(3)
C26_6 C 0.1791(2) 0.4326(3) 0.9276(3)
H20_6 H 0.194970 0.433556 0.921056
C27_6 C 0.1615(3) 0.4189(2) 0.91598(19)
C28_6 C 0.1382(3) 0.4175(2) 0.9256(3)
C29_6 C 0.1327(2) 0.4297(3) 0.9469(3)
C30_6 C 0.1503(4) 0.4434(2) 0.95858(18)
H21_6 H 0.146505 0.451714 0.973141
C31_6 C 0.1193(3) 0.4026(3) 0.9126(3)
C32_6 C 0.1134(3) 0.3782(3) 0.9163(4)
H22_6 H 0.123223 0.369393 0.927307
C33_6 C 0.1671(3) 0.4050(3) 0.8927(3)
H23_6 H 0.152465 0.396528 0.887239
H24_6 H 0.179948 0.393209 0.895854
H25_6 H 0.172372 0.416386 0.880172
C34_6 C 0.1074(2) 0.4296(3) 0.9593(3)
H26_6 H 0.096173 0.419604 0.949824
H27_6 H 0.101135 0.446254 0.960105
H28_6 H 0.108798 0.423043 0.975696
O12_11 O -0.000000 0.53586(19) 0.77457(19)
H42_11 H 0.000000 0.548362 0.783248
O17_11 O 0.000000 0.5273(2) 0.73119(18)
O18_11 O 0.000000 0.4727(2) 0.73119(18)
O20_6 O 0.03586(19) 0.500000 0.72543(19)
O22_6 O 0.04633(19) 0.4540(2) 0.71576(19)
O27_6 O 0.02110(17) 0.42945(17) 0.74712(17)
O2_12 O 1.000000 0.46414(19) 0.77457(19)
H1_12 H 1.000000 0.451638 0.783248
Zr3_6 Zr 0.96822(3) 0.53178(3) 0.750000
O11_6 O 0.9727(2) 0.500000 0.76881(18)
O12_12 O 1.000000 0.53586(19) 0.77457(19)
H42_12 H 1.000000 0.548362 0.783248
O13_6 O 0.9540(2) 0.54633(19) 0.78424(19)
O14_6 O 0.97437(17) 0.52525(18) 0.81449(18)
C49_6 C 0.9596(3) 0.5406(3) 0.8058(2)
C50_6 C 0.9489(3) 0.5552(2) 0.8265(3)
C51_6 C 0.9276(3) 0.5674(3) 0.8209(2)
H43_6 H 0.921056 0.566444 0.805030
C52_6 C 0.91598(19) 0.5811(2) 0.8385(3)
C53_6 C 0.9256(3) 0.5825(2) 0.8618(3)
C54_6 C 0.9469(3) 0.5703(3) 0.8673(2)
C55_6 C 0.95858(18) 0.5566(2) 0.8497(4)
H44_6 H 0.973141 0.548286 0.853495
C56_6 C 0.8939(3) 0.5861(4) 0.8939(3)
H45_6 H 0.889943 0.569845 0.889943
C57_6 C 0.9126(3) 0.5974(3) 0.8807(3)
C58_6 C 0.9163(4) 0.6218(3) 0.8866(3)
H46_6 H 0.927307 0.630607 0.876777
C59_6 C 0.9053(4) 0.6343(6) 0.9053(4)
H47_6 H 0.910241 0.650058 0.910239
C60_6 C 0.8927(3) 0.5950(3) 0.8329(3)
H48_6 H 0.887239 0.603472 0.847535
H49_6 H 0.895854 0.606791 0.820052
H50_6 H 0.880172 0.583614 0.827628
C61_6 C 0.9593(3) 0.5704(3) 0.8926(2)
H51_6 H 0.949824 0.580396 0.903827
H52_6 H 0.960105 0.553746 0.898865
H53_6 H 0.975696 0.576957 0.891202
O15_6 O 0.78424(19) 0.54633(19) 0.9540(2)
C62_6 C 0.8058(2) 0.5406(3) 0.9596(3)
C63_6 C 0.8265(3) 0.5552(2) 0.9489(3)
C64_6 C 0.8209(2) 0.5674(3) 0.9276(3)
H54_6 H 0.805030 0.566444 0.921056
C65_6 C 0.8385(3) 0.5811(2) 0.91598(19)
C66_6 C 0.8618(3) 0.5825(2) 0.9256(3)
C67_6 C 0.8673(2) 0.5703(3) 0.9469(3)
C68_6 C 0.8497(4) 0.5566(2) 0.95858(18)
H55_6 H 0.853495 0.548286 0.973141
C69_6 C 0.8807(3) 0.5974(3) 0.9126(3)
C70_6 C 0.8866(3) 0.6218(3) 0.9163(4)
H56_6 H 0.876777 0.630607 0.927307
C71_6 C 0.8329(3) 0.5950(3) 0.8927(3)
H57_6 H 0.847535 0.603472 0.887239
H58_6 H 0.820052 0.606791 0.895854
H59_6 H 0.827628 0.583614 0.880172
C72_6 C 0.8926(2) 0.5704(3) 0.9593(3)
H60_6 H 0.903827 0.580396 0.949824
H61_6 H 0.898865 0.553746 0.960105
H62_6 H 0.891202 0.576957 0.975696
O17_12 O 1.000000 0.5273(2) 0.73119(18)
O18_12 O 1.000000 0.4727(2) 0.73119(18)
O19_6 O 0.96414(19) 0.500000 0.72543(19)
O21_6 O 0.95367(19) 0.5460(2) 0.71576(19)
O25_6 O 0.92945(17) 0.52110(17) 0.75288(17)
O26_6 O 0.97890(17) 0.57055(17) 0.74712(17)
C14_8 C 0.7560(5) 0.500000 0.9217(4)
C15_8 C 0.7637(4) 0.500000 0.8956(4)
C16_8 C 0.7694(2) 0.4793(3) 0.8836(3)
H13_8 H 0.767400 0.464244 0.891677
C17_8 C 0.7778(3) 0.4791(2) 0.8602(3)
C18_8 C 0.7811(4) 0.500000 0.8470(3)
C19_8 C 0.8142(3) 0.500000 0.8142(3)
H14_8 H 0.826359 0.500000 0.826357
C20_8 C 0.7903(3) 0.500000 0.8217(3)
C21_8 C 0.7721(3) 0.500000 0.8045(3)
H15_8 H 0.755425 0.500000 0.808707
C22_8 C 0.7801(3) 0.500000 0.7801(3)
H16_8 H 0.767916 0.500000 0.767916
C23_8 C 0.7837(4) 0.4557(3) 0.8466(3)
H17_8 H 0.789434 0.459652 0.830301
H18_8 H 0.796322 0.446807 0.855363
H19_8 H 0.769075 0.445704 0.845517
C35_8 C 0.9217(4) 0.500000 0.7560(5)
C36_8 C 0.8956(4) 0.500000 0.7637(4)
C37_8 C 0.8836(3) 0.5207(3) 0.7694(2)
H29_8 H 0.891677 0.535756 0.767400
C38_8 C 0.8602(3) 0.5209(2) 0.7778(3)
C39_8 C 0.8470(3) 0.500000 0.7811(4)
C40_8 C 0.8217(3) 0.500000 0.7903(3)
C41_8 C 0.8045(3) 0.500000 0.7721(3)
H30_8 H 0.808707 0.500000 0.755425
C42_8 C 0.8466(3) 0.5443(3) 0.7837(4)
H31_8 H 0.830301 0.540348 0.789434
H32_8 H 0.855363 0.553193 0.796322
H33_8 H 0.845517 0.554296 0.769075
O9_8 O 0.75288(17) 0.52110(17) 0.92945(17)
C43_8 C 0.7694(2) 0.5207(3) 0.8836(3)
H34_8 H 0.767400 0.535756 0.891677
C44_8 C 0.7778(3) 0.5209(2) 0.8602(3)
C45_8 C 0.7837(4) 0.5443(3) 0.8466(3)
H35_8 H 0.789434 0.540348 0.830301
H36_8 H 0.796322 0.553193 0.855363
H37_8 H 0.769075 0.554296 0.845517
O10_8 O 0.92945(17) 0.47890(17) 0.75288(17)
C46_8 C 0.8836(3) 0.4793(3) 0.7694(2)
H38_8 H 0.891677 0.464244 0.767400
C47_8 C 0.8602(3) 0.4791(2) 0.7778(3)
C48_8 C 0.8466(3) 0.4557(3) 0.7837(4)
H39_8 H 0.830301 0.459652 0.789434
H40_8 H 0.855363 0.446807 0.796322
H41_8 H 0.845517 0.445704 0.769075
O2_13 O 0.000000 0.46414(19) 0.22543(19)
H1_13 H 0.000000 0.451638 0.216752
O11_7 O 0.0273(2) 0.500000 0.23119(18)
O12_13 O 0.000000 0.53586(19) 0.22543(19)
H42_13 H 0.000000 0.548362 0.216752
O13_7 O 0.0460(2) 0.54633(19) 0.21576(19)
O14_7 O 0.02563(17) 0.52525(18) 0.18551(18)
C49_7 C 0.0404(3) 0.5406(3) 0.1942(2)
C50_7 C 0.0511(3) 0.5552(2) 0.1735(3)
C51_7 C 0.0724(3) 0.5674(3) 0.1791(2)
H43_7 H 0.078944 0.566444 0.194970
C52_7 C 0.08402(19) 0.5811(2) 0.1615(3)
C53_7 C 0.0744(3) 0.5825(2) 0.1382(3)
C54_7 C 0.0531(3) 0.5703(3) 0.1327(2)
C55_7 C 0.04142(18) 0.5566(2) 0.1503(4)
H44_7 H 0.026859 0.548286 0.146505
C56_7 C 0.1061(3) 0.5861(4) 0.1061(3)
H45_7 H 0.110057 0.569845 0.110057
C57_7 C 0.0874(3) 0.5974(3) 0.1193(3)
C58_7 C 0.0837(4) 0.6218(3) 0.1134(3)
H46_7 H 0.072693 0.630607 0.123223
C59_7 C 0.0947(4) 0.6343(6) 0.0947(4)
H47_7 H 0.089759 0.650058 0.089761
C60_7 C 0.1073(3) 0.5950(3) 0.1671(3)
H48_7 H 0.112761 0.603472 0.152465
H49_7 H 0.104146 0.606791 0.179948
H50_7 H 0.119828 0.583614 0.172372
C61_7 C 0.0407(3) 0.5704(3) 0.1074(2)
H51_7 H 0.050176 0.580396 0.096173
H52_7 H 0.039895 0.553746 0.101135
H53_7 H 0.024304 0.576957 0.108798
O15_7 O 0.21576(19) 0.54633(19) 0.0460(2)
C62_7 C 0.1942(2) 0.5406(3) 0.0404(3)
C63_7 C 0.1735(3) 0.5552(2) 0.0511(3)
C64_7 C 0.1791(2) 0.5674(3) 0.0724(3)
H54_7 H 0.194970 0.566444 0.078944
C65_7 C 0.1615(3) 0.5811(2) 0.08402(19)
C66_7 C 0.1382(3) 0.5825(2) 0.0744(3)
C67_7 C 0.1327(2) 0.5703(3) 0.0531(3)
C68_7 C 0.1503(4) 0.5566(2) 0.04142(18)
H55_7 H 0.146505 0.548286 0.026859
C69_7 C 0.1193(3) 0.5974(3) 0.0874(3)
C70_7 C 0.1134(3) 0.6218(3) 0.0837(4)
H56_7 H 0.123223 0.630607 0.072693
C71_7 C 0.1671(3) 0.5950(3) 0.1073(3)
H57_7 H 0.152465 0.603472 0.112761
H58_7 H 0.179948 0.606791 0.104146
H59_7 H 0.172372 0.583614 0.119828
C72_7 C 0.1074(2) 0.5704(3) 0.0407(3)
H60_7 H 0.096173 0.580396 0.050176
H61_7 H 0.101135 0.553746 0.039895
H62_7 H 0.108798 0.576957 0.024304
O17_13 O -0.000000 0.5273(2) 0.26881(18)
O18_13 O -0.000000 0.4727(2) 0.26881(18)
O19_7 O 0.03586(19) 0.500000 0.27457(19)
O21_7 O 0.04633(19) 0.5460(2) 0.28424(19)
O26_7 O 0.02110(17) 0.57055(17) 0.25288(17)
O1_7 O 0.9727(2) 0.500000 0.23119(18)
O2_14 O 1.000000 0.46414(19) 0.22543(19)
H1_14 H 1.000000 0.451638 0.216752
O3_7 O 0.9540(2) 0.45367(19) 0.21576(19)
O4_7 O 0.97437(17) 0.47475(18) 0.18551(18)
C1_7 C 0.9596(3) 0.4594(3) 0.1942(2)
C2_7 C 0.9489(3) 0.4448(2) 0.1735(3)
C3_7 C 0.9276(3) 0.4326(3) 0.1791(2)
H2_7 H 0.921056 0.433556 0.194970
C4_7 C 0.91598(19) 0.4189(2) 0.1615(3)
C5_7 C 0.9256(3) 0.4175(2) 0.1382(3)
C6_7 C 0.9469(3) 0.4297(3) 0.1327(2)
C7_7 C 0.95858(18) 0.4434(2) 0.1503(4)
H3_7 H 0.973141 0.451714 0.146505
C8_7 C 0.8939(3) 0.4139(4) 0.1061(3)
H4_7 H 0.889943 0.430155 0.110057
C9_7 C 0.9126(3) 0.4026(3) 0.1193(3)
C10_7 C 0.9163(4) 0.3782(3) 0.1134(3)
H5_7 H 0.927307 0.369393 0.123223
C11_7 C 0.9053(4) 0.3657(6) 0.0947(4)
H6_7 H 0.910241 0.349942 0.089761
C12_7 C 0.8927(3) 0.4050(3) 0.1671(3)
H7_7 H 0.887239 0.396528 0.152465
H8_7 H 0.895854 0.393209 0.179948
H9_7 H 0.880172 0.416386 0.172372
C13_7 C 0.9593(3) 0.4296(3) 0.1074(2)
H10_7 H 0.949824 0.419604 0.096173
H11_7 H 0.960105 0.446254 0.101135
H12_7 H 0.975696 0.423043 0.108798
O6_7 O 0.78424(19) 0.45367(19) 0.0460(2)
C24_7 C 0.8058(2) 0.4594(3) 0.0404(3)
C25_7 C 0.8265(3) 0.4448(2) 0.0511(3)
C26_7 C 0.8209(2) 0.4326(3) 0.0724(3)
H20_7 H 0.805030 0.433556 0.078944
C27_7 C 0.8385(3) 0.4189(2) 0.08402(19)
C28_7 C 0.8618(3) 0.4175(2) 0.0744(3)
C29_7 C 0.8673(2) 0.4297(3) 0.0531(3)
C30_7 C 0.8497(4) 0.4434(2) 0.04142(18)
H21_7 H 0.853495 0.451714 0.026859
C31_7 C 0.8807(3) 0.4026(3) 0.0874(3)
C32_7 C 0.8866(3) 0.3782(3) 0.0837(4)
H22_7 H 0.876777 0.369393 0.072693
C33_7 C 0.8329(3) 0.4050(3) 0.1073(3)
H23_7 H 0.847535 0.396528 0.112761
H24_7 H 0.820052 0.393209 0.104146
H25_7 H 0.827628 0.416386 0.119828
C34_7 C 0.8926(2) 0.4296(3) 0.0407(3)
H26_7 H 0.903827 0.419604 0.050176
H27_7 H 0.898865 0.446254 0.039895
H28_7 H 0.891202 0.423043 0.024304
O12_14 O 1.000000 0.53586(19) 0.22543(19)
H42_14 H 1.000000 0.548362 0.216752
O17_14 O 1.000000 0.5273(2) 0.26881(18)
O18_14 O 1.000000 0.4727(2) 0.26881(18)
O20_7 O 0.96414(19) 0.500000 0.27457(19)
O22_7 O 0.95367(19) 0.4540(2) 0.28424(19)
O27_7 O 0.97890(17) 0.42945(17) 0.25288(17)
O1_8 O 0.0273(2) 0.23119(18) 0.500000
O2_15 O 0.000000 0.22543(19) 0.46414(19)
H1_15 H 0.000000 0.216752 0.451638
O3_8 O 0.0460(2) 0.21576(19) 0.45367(19)
O4_8 O 0.02563(17) 0.18551(18) 0.47475(18)
C1_8 C 0.0404(3) 0.1942(2) 0.4594(3)
C2_8 C 0.0511(3) 0.1735(3) 0.4448(2)
C3_8 C 0.0724(3) 0.1791(2) 0.4326(3)
H2_8 H 0.078944 0.194970 0.433556
C4_8 C 0.08402(19) 0.1615(3) 0.4189(2)
C5_8 C 0.0744(3) 0.1382(3) 0.4175(2)
C6_8 C 0.0531(3) 0.1327(2) 0.4297(3)
C7_8 C 0.04142(18) 0.1503(4) 0.4434(2)
H3_8 H 0.026859 0.146505 0.451714
C8_8 C 0.1061(3) 0.1061(3) 0.4139(4)
H4_8 H 0.110057 0.110057 0.430155
C9_8 C 0.0874(3) 0.1193(3) 0.4026(3)
C10_8 C 0.0837(4) 0.1134(3) 0.3782(3)
H5_8 H 0.072693 0.123223 0.369393
C11_8 C 0.0947(4) 0.0947(4) 0.3657(6)
H6_8 H 0.089759 0.089761 0.349942
C12_8 C 0.1073(3) 0.1671(3) 0.4050(3)
H7_8 H 0.112761 0.152465 0.396528
H8_8 H 0.104146 0.179948 0.393209
H9_8 H 0.119828 0.172372 0.416386
C13_8 C 0.0407(3) 0.1074(2) 0.4296(3)
H10_8 H 0.050176 0.096173 0.419604
H11_8 H 0.039895 0.101135 0.446254
H12_8 H 0.024304 0.108798 0.423043
O6_8 O 0.21576(19) 0.0460(2) 0.45367(19)
C24_8 C 0.1942(2) 0.0404(3) 0.4594(3)
C25_8 C 0.1735(3) 0.0511(3) 0.4448(2)
C26_8 C 0.1791(2) 0.0724(3) 0.4326(3)
H20_8 H 0.194970 0.078944 0.433556
C27_8 C 0.1615(3) 0.08402(19) 0.4189(2)
C28_8 C 0.1382(3) 0.0744(3) 0.4175(2)
C29_8 C 0.1327(2) 0.0531(3) 0.4297(3)
C30_8 C 0.1503(4) 0.04142(18) 0.4434(2)
H21_8 H 0.146505 0.026859 0.451714
C31_8 C 0.1193(3) 0.0874(3) 0.4026(3)
C32_8 C 0.1134(3) 0.0837(4) 0.3782(3)
H22_8 H 0.123223 0.072693 0.369393
C33_8 C 0.1671(3) 0.1073(3) 0.4050(3)
H23_8 H 0.152465 0.112761 0.396528
H24_8 H 0.179948 0.104146 0.393209
H25_8 H 0.172372 0.119828 0.416386
C34_8 C 0.1074(2) 0.0407(3) 0.4296(3)
H26_8 H 0.096173 0.050176 0.419604
H27_8 H 0.101135 0.039895 0.446254
H28_8 H 0.108798 0.024304 0.423043
O12_15 O 0.000000 0.22543(19) 0.53586(19)
H42_15 H 0.000000 0.216752 0.548362
O17_15 O -0.000000 0.26881(18) 0.5273(2)
O18_15 O -0.000000 0.26881(18) 0.4727(2)
O20_8 O 0.03586(19) 0.27457(19) 0.500000
O22_8 O 0.04633(19) 0.28424(19) 0.4540(2)
O27_8 O 0.02110(17) 0.25288(17) 0.42945(17)
O2_16 O 1.000000 0.22543(19) 0.46414(19)
H1_16 H 1.000000 0.216752 0.451638
Zr3_7 Zr 0.96822(3) 0.250000 0.53178(3)
O11_8 O 0.9727(2) 0.23119(18) 0.500000
O12_16 O 1.000000 0.22543(19) 0.53586(19)
H42_16 H 1.000000 0.216752 0.548362
O13_8 O 0.9540(2) 0.21576(19) 0.54633(19)
O14_8 O 0.97437(17) 0.18551(18) 0.52525(18)
C49_8 C 0.9596(3) 0.1942(2) 0.5406(3)
C50_8 C 0.9489(3) 0.1735(3) 0.5552(2)
C51_8 C 0.9276(3) 0.1791(2) 0.5674(3)
H43_8 H 0.921056 0.194970 0.566444
C52_8 C 0.91598(19) 0.1615(3) 0.5811(2)
C53_8 C 0.9256(3) 0.1382(3) 0.5825(2)
C54_8 C 0.9469(3) 0.1327(2) 0.5703(3)
C55_8 C 0.95858(18) 0.1503(4) 0.5566(2)
H44_8 H 0.973141 0.146505 0.548286
C56_8 C 0.8939(3) 0.1061(3) 0.5861(4)
H45_8 H 0.889943 0.110057 0.569845
C57_8 C 0.9126(3) 0.1193(3) 0.5974(3)
C58_8 C 0.9163(4) 0.1134(3) 0.6218(3)
H46_8 H 0.927307 0.123223 0.630607
C59_8 C 0.9053(4) 0.0947(4) 0.6343(6)
H47_8 H 0.910241 0.089761 0.650058
C60_8 C 0.8927(3) 0.1671(3) 0.5950(3)
H48_8 H 0.887239 0.152465 0.603472
H49_8 H 0.895854 0.179948 0.606791
H50_8 H 0.880172 0.172372 0.583614
C61_8 C 0.9593(3) 0.1074(2) 0.5704(3)
H51_8 H 0.949824 0.096173 0.580396
H52_8 H 0.960105 0.101135 0.553746
H53_8 H 0.975696 0.108798 0.576957
O15_8 O 0.78424(19) 0.0460(2) 0.54633(19)
O16_6 O 0.81449(18) 0.02563(17) 0.52525(18)
C62_8 C 0.8058(2) 0.0404(3) 0.5406(3)
C63_8 C 0.8265(3) 0.0511(3) 0.5552(2)
C64_8 C 0.8209(2) 0.0724(3) 0.5674(3)
H54_8 H 0.805030 0.078944 0.566444
C65_8 C 0.8385(3) 0.08402(19) 0.5811(2)
C66_8 C 0.8618(3) 0.0744(3) 0.5825(2)
C67_8 C 0.8673(2) 0.0531(3) 0.5703(3)
C68_8 C 0.8497(4) 0.04142(18) 0.5566(2)
H55_8 H 0.853495 0.026859 0.548286
C69_8 C 0.8807(3) 0.0874(3) 0.5974(3)
C70_8 C 0.8866(3) 0.0837(4) 0.6218(3)
H56_8 H 0.876777 0.072693 0.630607
C71_8 C 0.8329(3) 0.1073(3) 0.5950(3)
H57_8 H 0.847535 0.112761 0.603472
H58_8 H 0.820052 0.104146 0.606791
H59_8 H 0.827628 0.119828 0.583614
C72_8 C 0.8926(2) 0.0407(3) 0.5704(3)
H60_8 H 0.903827 0.050176 0.580396
H61_8 H 0.898865 0.039895 0.553746
H62_8 H 0.891202 0.024304 0.576957
Zr5_6 Zr 0.96822(3) 0.250000 0.46822(3)
Zr7_6 Zr 0.750000 0.03178(3) 0.53178(3)
Zr9_7 Zr 0.79507(5) 0.000000 0.500000
O17_16 O 1.000000 0.26881(18) 0.5273(2)
O18_16 O 1.000000 0.26881(18) 0.4727(2)
O19_8 O 0.96414(19) 0.27457(19) 0.500000
O21_8 O 0.95367(19) 0.28424(19) 0.5460(2)
O23_6 O 0.97437(17) 0.18551(18) 0.47475(18)
O25_7 O 0.92945(17) 0.24712(17) 0.52110(17)
O26_8 O 0.97890(17) 0.25288(17) 0.57055(17)
Zr9_8 Zr 0.79507(5) 1.000000 0.500000
O1_9 O 0.500000 0.0273(2) 0.23119(18)
O2_17 O 0.46414(19) 0.000000 0.22543(19)
H1_17 H 0.451638 0.000000 0.216752
O3_9 O 0.45367(19) 0.0460(2) 0.21576(19)
O4_9 O 0.47475(18) 0.02563(17) 0.18551(18)
C1_9 C 0.4594(3) 0.0404(3) 0.1942(2)
C2_9 C 0.4448(2) 0.0511(3) 0.1735(3)
C3_9 C 0.4326(3) 0.0724(3) 0.1791(2)
H2_9 H 0.433556 0.078944 0.194970
C4_9 C 0.4189(2) 0.08402(19) 0.1615(3)
C5_9 C 0.4175(2) 0.0744(3) 0.1382(3)
C6_9 C 0.4297(3) 0.0531(3) 0.1327(2)
C7_9 C 0.4434(2) 0.04142(18) 0.1503(4)
H3_9 H 0.451714 0.026859 0.146505
C8_9 C 0.4139(4) 0.1061(3) 0.1061(3)
H4_9 H 0.430155 0.110057 0.110057
C9_9 C 0.4026(3) 0.0874(3) 0.1193(3)
C10_9 C 0.3782(3) 0.0837(4) 0.1134(3)
H5_9 H 0.369393 0.072693 0.123223
C11_9 C 0.3657(6) 0.0947(4) 0.0947(4)
H6_9 H 0.349942 0.089759 0.089761
C12_9 C 0.4050(3) 0.1073(3) 0.1671(3)
H7_9 H 0.396528 0.112761 0.152465
H8_9 H 0.393209 0.104146 0.179948
H9_9 H 0.416386 0.119828 0.172372
C13_9 C 0.4296(3) 0.0407(3) 0.1074(2)
H10_9 H 0.419604 0.050176 0.096173
H11_9 H 0.446254 0.039895 0.101135
H12_9 H 0.423043 0.024304 0.108798
O6_9 O 0.45367(19) 0.21576(19) 0.0460(2)
C24_9 C 0.4594(3) 0.1942(2) 0.0404(3)
C25_9 C 0.4448(2) 0.1735(3) 0.0511(3)
C26_9 C 0.4326(3) 0.1791(2) 0.0724(3)
H20_9 H 0.433556 0.194970 0.078944
C27_9 C 0.4189(2) 0.1615(3) 0.08402(19)
C28_9 C 0.4175(2) 0.1382(3) 0.0744(3)
C29_9 C 0.4297(3) 0.1327(2) 0.0531(3)
C30_9 C 0.4434(2) 0.1503(4) 0.04142(18)
H21_9 H 0.451714 0.146505 0.026859
C31_9 C 0.4026(3) 0.1193(3) 0.0874(3)
C32_9 C 0.3782(3) 0.1134(3) 0.0837(4)
H22_9 H 0.369393 0.123223 0.072693
C33_9 C 0.4050(3) 0.1671(3) 0.1073(3)
H23_9 H 0.396528 0.152465 0.112761
H24_9 H 0.393209 0.179948 0.104146
H25_9 H 0.416386 0.172372 0.119828
C34_9 C 0.4296(3) 0.1074(2) 0.0407(3)
H26_9 H 0.419604 0.096173 0.050176
H27_9 H 0.446254 0.101135 0.039895
H28_9 H 0.423043 0.108798 0.024304
O12_17 O 0.53586(19) 0.000000 0.22543(19)
H42_17 H 0.548362 0.000000 0.216752
O17_17 O 0.5273(2) 0.000000 0.26881(18)
O18_17 O 0.4727(2) 0.000000 0.26881(18)
O20_9 O 0.500000 0.03586(19) 0.27457(19)
O22_9 O 0.4540(2) 0.04633(19) 0.28424(19)
O27_9 O 0.42945(17) 0.02110(17) 0.25288(17)
O2_18 O 0.46414(19) 1.000000 0.22543(19)
H1_18 H 0.451638 1.000000 0.216752
O11_9 O 0.500000 0.9727(2) 0.23119(18)
O12_18 O 0.53586(19) 1.000000 0.22543(19)
H42_18 H 0.548362 1.000000 0.216752
O13_9 O 0.54633(19) 0.9540(2) 0.21576(19)
O14_9 O 0.52525(18) 0.97437(17) 0.18551(18)
C49_9 C 0.5406(3) 0.9596(3) 0.1942(2)
C50_9 C 0.5552(2) 0.9489(3) 0.1735(3)
C51_9 C 0.5674(3) 0.9276(3) 0.1791(2)
H43_9 H 0.566444 0.921056 0.194970
C52_9 C 0.5811(2) 0.91598(19) 0.1615(3)
C53_9 C 0.5825(2) 0.9256(3) 0.1382(3)
C54_9 C 0.5703(3) 0.9469(3) 0.1327(2)
C55_9 C 0.5566(2) 0.95858(18) 0.1503(4)
H44_9 H 0.548286 0.973141 0.146505
C56_9 C 0.5861(4) 0.8939(3) 0.1061(3)
H45_9 H 0.569845 0.889943 0.110057
C57_9 C 0.5974(3) 0.9126(3) 0.1193(3)
C58_9 C 0.6218(3) 0.9163(4) 0.1134(3)
H46_9 H 0.630607 0.927307 0.123223
C59_9 C 0.6343(6) 0.9053(4) 0.0947(4)
H47_9 H 0.650058 0.910241 0.089761
C60_9 C 0.5950(3) 0.8927(3) 0.1671(3)
H48_9 H 0.603472 0.887239 0.152465
H49_9 H 0.606791 0.895854 0.179948
H50_9 H 0.583614 0.880172 0.172372
C61_9 C 0.5704(3) 0.9593(3) 0.1074(2)
H51_9 H 0.580396 0.949824 0.096173
H52_9 H 0.553746 0.960105 0.101135
H53_9 H 0.576957 0.975696 0.108798
O15_9 O 0.54633(19) 0.78424(19) 0.0460(2)
C62_9 C 0.5406(3) 0.8058(2) 0.0404(3)
C63_9 C 0.5552(2) 0.8265(3) 0.0511(3)
C64_9 C 0.5674(3) 0.8209(2) 0.0724(3)
H54_9 H 0.566444 0.805030 0.078944
C65_9 C 0.5811(2) 0.8385(3) 0.08402(19)
C66_9 C 0.5825(2) 0.8618(3) 0.0744(3)
C67_9 C 0.5703(3) 0.8673(2) 0.0531(3)
C68_9 C 0.5566(2) 0.8497(4) 0.04142(18)
H55_9 H 0.548286 0.853495 0.026859
C69_9 C 0.5974(3) 0.8807(3) 0.0874(3)
C70_9 C 0.6218(3) 0.8866(3) 0.0837(4)
H56_9 H 0.630607 0.876777 0.072693
C71_9 C 0.5950(3) 0.8329(3) 0.1073(3)
H57_9 H 0.603472 0.847535 0.112761
H58_9 H 0.606791 0.820052 0.104146
H59_9 H 0.583614 0.827628 0.119828
C72_9 C 0.5704(3) 0.8926(2) 0.0407(3)
H60_9 H 0.580396 0.903827 0.050176
H61_9 H 0.553746 0.898865 0.039895
H62_9 H 0.576957 0.891202 0.024304
O17_18 O 0.5273(2) 1.000000 0.26881(18)
O18_18 O 0.4727(2) 1.000000 0.26881(18)
O19_9 O 0.500000 0.96414(19) 0.27457(19)
O21_9 O 0.5460(2) 0.95367(19) 0.28424(19)
O26_9 O 0.57055(17) 0.97890(17) 0.25288(17)
O1_10 O 0.0273(2) 0.76881(18) 0.500000
O2_19 O 0.000000 0.77457(19) 0.53586(19)
H1_19 H 0.000000 0.783248 0.548362
O3_10 O 0.0460(2) 0.78424(19) 0.54633(19)
O4_10 O 0.02563(17) 0.81449(18) 0.52525(18)
C1_10 C 0.0404(3) 0.8058(2) 0.5406(3)
C2_10 C 0.0511(3) 0.8265(3) 0.5552(2)
C3_10 C 0.0724(3) 0.8209(2) 0.5674(3)
H2_10 H 0.078944 0.805030 0.566444
C4_10 C 0.08402(19) 0.8385(3) 0.5811(2)
C5_10 C 0.0744(3) 0.8618(3) 0.5825(2)
C6_10 C 0.0531(3) 0.8673(2) 0.5703(3)
C7_10 C 0.04142(18) 0.8497(4) 0.5566(2)
H3_10 H 0.026859 0.853495 0.548286
C8_10 C 0.1061(3) 0.8939(3) 0.5861(4)
H4_10 H 0.110057 0.889943 0.569845
C9_10 C 0.0874(3) 0.8807(3) 0.5974(3)
C10_10 C 0.0837(4) 0.8866(3) 0.6218(3)
H5_10 H 0.072693 0.876777 0.630607
C11_10 C 0.0947(4) 0.9053(4) 0.6343(6)
H6_10 H 0.089759 0.910239 0.650058
C12_10 C 0.1073(3) 0.8329(3) 0.5950(3)
H7_10 H 0.112761 0.847535 0.603472
H8_10 H 0.104146 0.820052 0.606791
H9_10 H 0.119828 0.827628 0.583614
C13_10 C 0.0407(3) 0.8926(2) 0.5704(3)
H10_10 H 0.050176 0.903827 0.580396
H11_10 H 0.039895 0.898865 0.553746
H12_10 H 0.024304 0.891202 0.576957
O6_10 O 0.21576(19) 0.9540(2) 0.54633(19)
C24_10 C 0.1942(2) 0.9596(3) 0.5406(3)
C25_10 C 0.1735(3) 0.9489(3) 0.5552(2)
C26_10 C 0.1791(2) 0.9276(3) 0.5674(3)
H20_10 H 0.194970 0.921056 0.566444
C27_10 C 0.1615(3) 0.91598(19) 0.5811(2)
C28_10 C 0.1382(3) 0.9256(3) 0.5825(2)
C29_10 C 0.1327(2) 0.9469(3) 0.5703(3)
C30_10 C 0.1503(4) 0.95858(18) 0.5566(2)
H21_10 H 0.146505 0.973141 0.548286
C31_10 C 0.1193(3) 0.9126(3) 0.5974(3)
C32_10 C 0.1134(3) 0.9163(4) 0.6218(3)
H22_10 H 0.123223 0.927307 0.630607
C33_10 C 0.1671(3) 0.8927(3) 0.5950(3)
H23_10 H 0.152465 0.887239 0.603472
H24_10 H 0.179948 0.895854 0.606791
H25_10 H 0.172372 0.880172 0.583614
C34_10 C 0.1074(2) 0.9593(3) 0.5704(3)
H26_10 H 0.096173 0.949824 0.580396
H27_10 H 0.101135 0.960105 0.553746
H28_10 H 0.108798 0.975696 0.576957
O12_19 O 0.000000 0.77457(19) 0.46414(19)
H42_19 H 0.000000 0.783248 0.451638
O17_19 O 0.000000 0.73119(18) 0.4727(2)
O18_19 O 0.000000 0.73119(18) 0.5273(2)
O20_10 O 0.03586(19) 0.72543(19) 0.500000
O22_10 O 0.04633(19) 0.71576(19) 0.5460(2)
O27_10 O 0.02110(17) 0.74712(17) 0.57055(17)
O2_20 O 1.000000 0.77457(19) 0.53586(19)
H1_20 H 1.000000 0.783248 0.548362
Zr3_8 Zr 0.96822(3) 0.750000 0.46822(3)
O11_10 O 0.9727(2) 0.76881(18) 0.500000
O12_20 O 1.000000 0.77457(19) 0.46414(19)
H42_20 H 1.000000 0.783248 0.451638
O13_10 O 0.9540(2) 0.78424(19) 0.45367(19)
O14_10 O 0.97437(17) 0.81449(18) 0.47475(18)
C49_10 C 0.9596(3) 0.8058(2) 0.4594(3)
C50_10 C 0.9489(3) 0.8265(3) 0.4448(2)
C51_10 C 0.9276(3) 0.8209(2) 0.4326(3)
H43_10 H 0.921056 0.805030 0.433556
C52_10 C 0.91598(19) 0.8385(3) 0.4189(2)
C53_10 C 0.9256(3) 0.8618(3) 0.4175(2)
C54_10 C 0.9469(3) 0.8673(2) 0.4297(3)
C55_10 C 0.95858(18) 0.8497(4) 0.4434(2)
H44_10 H 0.973141 0.853495 0.451714
C56_10 C 0.8939(3) 0.8939(3) 0.4139(4)
H45_10 H 0.889943 0.889943 0.430155
C57_10 C 0.9126(3) 0.8807(3) 0.4026(3)
C58_10 C 0.9163(4) 0.8866(3) 0.3782(3)
H46_10 H 0.927307 0.876777 0.369393
C59_10 C 0.9053(4) 0.9053(4) 0.3657(6)
H47_10 H 0.910241 0.910239 0.349942
C60_10 C 0.8927(3) 0.8329(3) 0.4050(3)
H48_10 H 0.887239 0.847535 0.396528
H49_10 H 0.895854 0.820052 0.393209
H50_10 H 0.880172 0.827628 0.416386
C61_10 C 0.9593(3) 0.8926(2) 0.4296(3)
H51_10 H 0.949824 0.903827 0.419604
H52_10 H 0.960105 0.898865 0.446254
H53_10 H 0.975696 0.891202 0.423043
O15_10 O 0.78424(19) 0.9540(2) 0.45367(19)
O16_7 O 0.81449(18) 0.97437(17) 0.47475(18)
C62_10 C 0.8058(2) 0.9596(3) 0.4594(3)
C63_10 C 0.8265(3) 0.9489(3) 0.4448(2)
C64_10 C 0.8209(2) 0.9276(3) 0.4326(3)
H54_10 H 0.805030 0.921056 0.433556
C65_10 C 0.8385(3) 0.91598(19) 0.4189(2)
C66_10 C 0.8618(3) 0.9256(3) 0.4175(2)
C67_10 C 0.8673(2) 0.9469(3) 0.4297(3)
C68_10 C 0.8497(4) 0.95858(18) 0.4434(2)
H55_10 H 0.853495 0.973141 0.451714
C69_10 C 0.8807(3) 0.9126(3) 0.4026(3)
C70_10 C 0.8866(3) 0.9163(4) 0.3782(3)
H56_10 H 0.876777 0.927307 0.369393
C71_10 C 0.8329(3) 0.8927(3) 0.4050(3)
H57_10 H 0.847535 0.887239 0.396528
H58_10 H 0.820052 0.895854 0.393209
H59_10 H 0.827628 0.880172 0.416386
C72_10 C 0.8926(2) 0.9593(3) 0.4296(3)
H60_10 H 0.903827 0.949824 0.419604
H61_10 H 0.898865 0.960105 0.446254
H62_10 H 0.891202 0.975696 0.423043
Zr5_7 Zr 0.96822(3) 0.750000 0.53178(3)
Zr7_7 Zr 0.750000 0.96822(3) 0.46822(3)
O17_20 O 1.000000 0.73119(18) 0.4727(2)
O18_20 O 1.000000 0.73119(18) 0.5273(2)
O19_10 O 0.96414(19) 0.72543(19) 0.500000
O21_10 O 0.95367(19) 0.71576(19) 0.4540(2)
O23_7 O 0.97437(17) 0.81449(18) 0.52525(18)
O25_8 O 0.92945(17) 0.75288(17) 0.47890(17)
O26_10 O 0.97890(17) 0.74712(17) 0.42945(17)
Zr1_6 Zr 0.53178(3) 0.03178(3) 0.750000
O1_11 O 0.500000 0.0273(2) 0.76881(18)
O2_21 O 0.53586(19) 0.000000 0.77457(19)
H1_21 H 0.548362 0.000000 0.783248
O3_11 O 0.54633(19) 0.0460(2) 0.78424(19)
O4_11 O 0.52525(18) 0.02563(17) 0.81449(18)
C1_11 C 0.5406(3) 0.0404(3) 0.8058(2)
C2_11 C 0.5552(2) 0.0511(3) 0.8265(3)
C3_11 C 0.5674(3) 0.0724(3) 0.8209(2)
H2_11 H 0.566444 0.078944 0.805030
C4_11 C 0.5811(2) 0.08402(19) 0.8385(3)
C5_11 C 0.5825(2) 0.0744(3) 0.8618(3)
C6_11 C 0.5703(3) 0.0531(3) 0.8673(2)
C7_11 C 0.5566(2) 0.04142(18) 0.8497(4)
H3_11 H 0.548286 0.026859 0.853495
C8_11 C 0.5861(4) 0.1061(3) 0.8939(3)
H4_11 H 0.569845 0.110057 0.889943
C9_11 C 0.5974(3) 0.0874(3) 0.8807(3)
C10_11 C 0.6218(3) 0.0837(4) 0.8866(3)
H5_11 H 0.630607 0.072693 0.876777
C11_11 C 0.6343(6) 0.0947(4) 0.9053(4)
H6_11 H 0.650058 0.089759 0.910239
C12_11 C 0.5950(3) 0.1073(3) 0.8329(3)
H7_11 H 0.603472 0.112761 0.847535
H8_11 H 0.606791 0.104146 0.820052
H9_11 H 0.583614 0.119828 0.827628
C13_11 C 0.5704(3) 0.0407(3) 0.8926(2)
H10_11 H 0.580396 0.050176 0.903827
H11_11 H 0.553746 0.039895 0.898865
H12_11 H 0.576957 0.024304 0.891202
O5_6 O 0.52110(17) 0.07055(17) 0.75288(17)
C14_9 C 0.500000 0.0783(4) 0.7560(5)
C15_9 C 0.500000 0.1044(4) 0.7637(4)
C16_9 C 0.5207(3) 0.1164(3) 0.7694(2)
H13_9 H 0.535756 0.108323 0.767400
C17_9 C 0.5209(2) 0.1398(3) 0.7778(3)
C18_9 C 0.500000 0.1530(3) 0.7811(4)
C19_9 C 0.500000 0.1858(3) 0.8142(3)
H14_9 H 0.500000 0.173643 0.826359
C20_9 C 0.500000 0.1783(3) 0.7903(3)
C21_9 C 0.500000 0.1955(3) 0.7721(3)
H15_9 H 0.500000 0.191293 0.755425
C22_9 C 0.500000 0.2199(3) 0.7801(3)
H16_9 H 0.500000 0.232084 0.767916
C23_9 C 0.5443(3) 0.1534(3) 0.7837(4)
H17_9 H 0.540348 0.169699 0.789434
H18_9 H 0.553193 0.144637 0.796322
H19_9 H 0.554296 0.154483 0.769075
O6_11 O 0.54633(19) 0.21576(19) 0.9540(2)
C24_11 C 0.5406(3) 0.1942(2) 0.9596(3)
C25_11 C 0.5552(2) 0.1735(3) 0.9489(3)
C26_11 C 0.5674(3) 0.1791(2) 0.9276(3)
H20_11 H 0.566444 0.194970 0.921056
C27_11 C 0.5811(2) 0.1615(3) 0.91598(19)
C28_11 C 0.5825(2) 0.1382(3) 0.9256(3)
C29_11 C 0.5703(3) 0.1327(2) 0.9469(3)
C30_11 C 0.5566(2) 0.1503(4) 0.95858(18)
H21_11 H 0.548286 0.146505 0.973141
C31_11 C 0.5974(3) 0.1193(3) 0.9126(3)
C32_11 C 0.6218(3) 0.1134(3) 0.9163(4)
H22_11 H 0.630607 0.123223 0.927307
C33_11 C 0.5950(3) 0.1671(3) 0.8927(3)
H23_11 H 0.603472 0.152465 0.887239
H24_11 H 0.606791 0.179948 0.895854
H25_11 H 0.583614 0.172372 0.880172
C34_11 C 0.5704(3) 0.1074(2) 0.9593(3)
H26_11 H 0.580396 0.096173 0.949824
H27_11 H 0.553746 0.101135 0.960105
H28_11 H 0.576957 0.108798 0.975696
C35_9 C 0.500000 0.2440(5) 0.9217(4)
C36_9 C 0.500000 0.2363(4) 0.8956(4)
C37_9 C 0.4793(3) 0.2306(2) 0.8836(3)
H29_9 H 0.464244 0.232600 0.891677
C38_9 C 0.4791(2) 0.2222(3) 0.8602(3)
C39_9 C 0.500000 0.2189(4) 0.8470(3)
C40_9 C 0.500000 0.2097(3) 0.8217(3)
C41_9 C 0.500000 0.2279(3) 0.8045(3)
H30_9 H 0.500000 0.244575 0.808707
C42_9 C 0.4557(3) 0.2163(4) 0.8466(3)
H31_9 H 0.459652 0.210566 0.830301
H32_9 H 0.446807 0.203678 0.855363
H33_9 H 0.445704 0.230925 0.845517
O9_9 O 0.47890(17) 0.07055(17) 0.75288(17)
C43_9 C 0.4793(3) 0.1164(3) 0.7694(2)
H34_9 H 0.464244 0.108323 0.767400
C44_9 C 0.4791(2) 0.1398(3) 0.7778(3)
C45_9 C 0.4557(3) 0.1534(3) 0.7837(4)
H35_9 H 0.459652 0.169699 0.789434
H36_9 H 0.446807 0.144637 0.796322
H37_9 H 0.445704 0.154483 0.769075
O10_9 O 0.52110(17) 0.24712(17) 0.92945(17)
C46_9 C 0.5207(3) 0.2306(2) 0.8836(3)
H38_9 H 0.535756 0.232600 0.891677
C47_9 C 0.5209(2) 0.2222(3) 0.8602(3)
C48_9 C 0.5443(3) 0.2163(4) 0.8466(3)
H39_9 H 0.540348 0.210566 0.830301
H40_9 H 0.553193 0.203678 0.855363
H41_9 H 0.554296 0.230925 0.845517
O12_21 O 0.46414(19) 0.000000 0.77457(19)
H42_21 H 0.451638 0.000000 0.783248
O17_21 O 0.4727(2) 0.000000 0.73119(18)
O18_21 O 0.5273(2) 0.000000 0.73119(18)
O20_11 O 0.500000 0.03586(19) 0.72543(19)
O22_11 O 0.5460(2) 0.04633(19) 0.71576(19)
O27_11 O 0.57055(17) 0.02110(17) 0.74712(17)
O2_22 O 0.53586(19) 1.000000 0.77457(19)
H1_22 H 0.548362 1.000000 0.783248
Zr3_9 Zr 0.46822(3) 0.96822(3) 0.750000
O11_11 O 0.500000 0.9727(2) 0.76881(18)
O12_22 O 0.46414(19) 1.000000 0.77457(19)
H42_22 H 0.451638 1.000000 0.783248
O13_11 O 0.45367(19) 0.9540(2) 0.78424(19)
O14_11 O 0.47475(18) 0.97437(17) 0.81449(18)
C49_11 C 0.4594(3) 0.9596(3) 0.8058(2)
C50_11 C 0.4448(2) 0.9489(3) 0.8265(3)
C51_11 C 0.4326(3) 0.9276(3) 0.8209(2)
H43_11 H 0.433556 0.921056 0.805030
C52_11 C 0.4189(2) 0.91598(19) 0.8385(3)
C53_11 C 0.4175(2) 0.9256(3) 0.8618(3)
C54_11 C 0.4297(3) 0.9469(3) 0.8673(2)
C55_11 C 0.4434(2) 0.95858(18) 0.8497(4)
H44_11 H 0.451714 0.973141 0.853495
C56_11 C 0.4139(4) 0.8939(3) 0.8939(3)
H45_11 H 0.430155 0.889943 0.889943
C57_11 C 0.4026(3) 0.9126(3) 0.8807(3)
C58_11 C 0.3782(3) 0.9163(4) 0.8866(3)
H46_11 H 0.369393 0.927307 0.876777
C59_11 C 0.3657(6) 0.9053(4) 0.9053(4)
H47_11 H 0.349942 0.910241 0.910239
C60_11 C 0.4050(3) 0.8927(3) 0.8329(3)
H48_11 H 0.396528 0.887239 0.847535
H49_11 H 0.393209 0.895854 0.820052
H50_11 H 0.416386 0.880172 0.827628
C61_11 C 0.4296(3) 0.9593(3) 0.8926(2)
H51_11 H 0.419604 0.949824 0.903827
H52_11 H 0.446254 0.960105 0.898865
H53_11 H 0.423043 0.975696 0.891202
O15_11 O 0.45367(19) 0.78424(19) 0.9540(2)
C62_11 C 0.4594(3) 0.8058(2) 0.9596(3)
C63_11 C 0.4448(2) 0.8265(3) 0.9489(3)
C64_11 C 0.4326(3) 0.8209(2) 0.9276(3)
H54_11 H 0.433556 0.805030 0.921056
C65_11 C 0.4189(2) 0.8385(3) 0.91598(19)
C66_11 C 0.4175(2) 0.8618(3) 0.9256(3)
C67_11 C 0.4297(3) 0.8673(2) 0.9469(3)
C68_11 C 0.4434(2) 0.8497(4) 0.95858(18)
H55_11 H 0.451714 0.853495 0.973141
C69_11 C 0.4026(3) 0.8807(3) 0.9126(3)
C70_11 C 0.3782(3) 0.8866(3) 0.9163(4)
H56_11 H 0.369393 0.876777 0.927307
C71_11 C 0.4050(3) 0.8329(3) 0.8927(3)
H57_11 H 0.396528 0.847535 0.887239
H58_11 H 0.393209 0.820052 0.895854
H59_11 H 0.416386 0.827628 0.880172
C72_11 C 0.4296(3) 0.8926(2) 0.9593(3)
H60_11 H 0.419604 0.903827 0.949824
H61_11 H 0.446254 0.898865 0.960105
H62_11 H 0.423043 0.891202 0.975696
O17_22 O 0.4727(2) 1.000000 0.73119(18)
O18_22 O 0.5273(2) 1.000000 0.73119(18)
O19_11 O 0.500000 0.96414(19) 0.72543(19)
O21_11 O 0.4540(2) 0.95367(19) 0.71576(19)
O25_9 O 0.47890(17) 0.92945(17) 0.75288(17)
O26_11 O 0.42945(17) 0.97890(17) 0.74712(17)
C14_10 C 0.9217(4) 0.7560(5) 0.500000
C15_10 C 0.8956(4) 0.7637(4) 0.500000
C16_10 C 0.8836(3) 0.7694(2) 0.4793(3)
H13_10 H 0.891677 0.767400 0.464244
C17_10 C 0.8602(3) 0.7778(3) 0.4791(2)
C18_10 C 0.8470(3) 0.7811(4) 0.500000
C19_10 C 0.8142(3) 0.8142(3) 0.500000
H14_10 H 0.826357 0.826359 0.500000
C20_10 C 0.8217(3) 0.7903(3) 0.500000
C21_10 C 0.8045(3) 0.7721(3) 0.500000
H15_10 H 0.808707 0.755425 0.500000
C22_10 C 0.7801(3) 0.7801(3) 0.500000
H16_10 H 0.767916 0.767916 0.500000
C23_10 C 0.8466(3) 0.7837(4) 0.4557(3)
H17_10 H 0.830301 0.789434 0.459652
H18_10 H 0.855363 0.796322 0.446807
H19_10 H 0.845517 0.769075 0.445704
O8_8 O 0.75288(17) 0.92945(17) 0.52110(17)
C35_10 C 0.7560(5) 0.9217(4) 0.500000
C36_10 C 0.7637(4) 0.8956(4) 0.500000
C37_10 C 0.7694(2) 0.8836(3) 0.5207(3)
H29_10 H 0.767400 0.891677 0.535756
C38_10 C 0.7778(3) 0.8602(3) 0.5209(2)
C39_10 C 0.7811(4) 0.8470(3) 0.500000
C40_10 C 0.7903(3) 0.8217(3) 0.500000
C41_10 C 0.7721(3) 0.8045(3) 0.500000
H30_10 H 0.755425 0.808707 0.500000
C42_10 C 0.7837(4) 0.8466(3) 0.5443(3)
H31_10 H 0.789434 0.830301 0.540348
H32_10 H 0.796322 0.855363 0.553193
H33_10 H 0.769075 0.845517 0.554296
O9_10 O 0.92945(17) 0.75288(17) 0.52110(17)
C43_10 C 0.8836(3) 0.7694(2) 0.5207(3)
H34_10 H 0.891677 0.767400 0.535756
C44_10 C 0.8602(3) 0.7778(3) 0.5209(2)
C45_10 C 0.8466(3) 0.7837(4) 0.5443(3)
H35_10 H 0.830301 0.789434 0.540348
H36_10 H 0.855363 0.796322 0.553193
H37_10 H 0.845517 0.769075 0.554296
O10_10 O 0.75288(17) 0.92945(17) 0.47890(17)
C46_10 C 0.7694(2) 0.8836(3) 0.4793(3)
H38_10 H 0.767400 0.891677 0.464244
C47_10 C 0.7778(3) 0.8602(3) 0.4791(2)
C48_10 C 0.7837(4) 0.8466(3) 0.4557(3)
H39_10 H 0.789434 0.830301 0.459652
H40_10 H 0.796322 0.855363 0.446807
H41_10 H 0.769075 0.845517 0.445704
Zr4_8 Zr 0.750000 0.96822(3) 0.53178(3)
C14_11 C 0.9217(4) 0.2440(5) 0.500000
C15_11 C 0.8956(4) 0.2363(4) 0.500000
C16_11 C 0.8836(3) 0.2306(2) 0.5207(3)
H13_11 H 0.891677 0.232600 0.535756
C17_11 C 0.8602(3) 0.2222(3) 0.5209(2)
C18_11 C 0.8470(3) 0.2189(4) 0.500000
C19_11 C 0.8142(3) 0.1858(3) 0.500000
H14_11 H 0.826357 0.173641 0.500000
C20_11 C 0.8217(3) 0.2097(3) 0.500000
C21_11 C 0.8045(3) 0.2279(3) 0.500000
H15_11 H 0.808707 0.244575 0.500000
C22_11 C 0.7801(3) 0.2199(3) 0.500000
H16_11 H 0.767916 0.232084 0.500000
C23_11 C 0.8466(3) 0.2163(4) 0.5443(3)
H17_11 H 0.830301 0.210566 0.540348
H18_11 H 0.855363 0.203678 0.553193
H19_11 H 0.845517 0.230925 0.554296
O8_9 O 0.75288(17) 0.07055(17) 0.47890(17)
C35_11 C 0.7560(5) 0.0783(4) 0.500000
C36_11 C 0.7637(4) 0.1044(4) 0.500000
C37_11 C 0.7694(2) 0.1164(3) 0.4793(3)
H29_11 H 0.767400 0.108323 0.464244
C38_11 C 0.7778(3) 0.1398(3) 0.4791(2)
C39_11 C 0.7811(4) 0.1530(3) 0.500000
C40_11 C 0.7903(3) 0.1783(3) 0.500000
C41_11 C 0.7721(3) 0.1955(3) 0.500000
H30_11 H 0.755425 0.191293 0.500000
C42_11 C 0.7837(4) 0.1534(3) 0.4557(3)
H31_11 H 0.789434 0.169699 0.459652
H32_11 H 0.796322 0.144637 0.446807
H33_11 H 0.769075 0.154483 0.445704
O9_11 O 0.92945(17) 0.24712(17) 0.47890(17)
C43_11 C 0.8836(3) 0.2306(2) 0.4793(3)
H34_11 H 0.891677 0.232600 0.464244
C44_11 C 0.8602(3) 0.2222(3) 0.4791(2)
C45_11 C 0.8466(3) 0.2163(4) 0.4557(3)
H35_11 H 0.830301 0.210566 0.459652
H36_11 H 0.855363 0.203678 0.446807
H37_11 H 0.845517 0.230925 0.445704
O10_11 O 0.75288(17) 0.07055(17) 0.52110(17)
C46_11 C 0.7694(2) 0.1164(3) 0.5207(3)
H38_11 H 0.767400 0.108323 0.535756
C47_11 C 0.7778(3) 0.1398(3) 0.5209(2)
C48_11 C 0.7837(4) 0.1534(3) 0.5443(3)
H39_11 H 0.789434 0.169699 0.540348
H40_11 H 0.796322 0.144637 0.553193
H41_11 H 0.769075 0.154483 0.554296
Zr4_9 Zr 0.750000 0.03178(3) 0.46822(3)
C14_12 C 0.500000 0.9217(4) 0.7560(5)
C15_12 C 0.500000 0.8956(4) 0.7637(4)
C16_12 C 0.4793(3) 0.8836(3) 0.7694(2)
H13_12 H 0.464244 0.891677 0.767400
C17_12 C 0.4791(2) 0.8602(3) 0.7778(3)
C18_12 C 0.500000 0.8470(3) 0.7811(4)
C19_12 C 0.500000 0.8142(3) 0.8142(3)
H14_12 H 0.500000 0.826357 0.826359
C20_12 C 0.500000 0.8217(3) 0.7903(3)
C21_12 C 0.500000 0.8045(3) 0.7721(3)
H15_12 H 0.500000 0.808707 0.755425
C22_12 C 0.500000 0.7801(3) 0.7801(3)
H16_12 H 0.500000 0.767916 0.767916
C23_12 C 0.4557(3) 0.8466(3) 0.7837(4)
H17_12 H 0.459652 0.830301 0.789434
H18_12 H 0.446807 0.855363 0.796322
H19_12 H 0.445704 0.845517 0.769075
C35_12 C 0.500000 0.7560(5) 0.9217(4)
C36_12 C 0.500000 0.7637(4) 0.8956(4)
C37_12 C 0.5207(3) 0.7694(2) 0.8836(3)
H29_12 H 0.535756 0.767400 0.891677
C38_12 C 0.5209(2) 0.7778(3) 0.8602(3)
C39_12 C 0.500000 0.7811(4) 0.8470(3)
C40_12 C 0.500000 0.7903(3) 0.8217(3)
C41_12 C 0.500000 0.7721(3) 0.8045(3)
H30_12 H 0.500000 0.755425 0.808707
C42_12 C 0.5443(3) 0.7837(4) 0.8466(3)
H31_12 H 0.540348 0.789434 0.830301
H32_12 H 0.553193 0.796322 0.855363
H33_12 H 0.554296 0.769075 0.845517
O9_12 O 0.52110(17) 0.92945(17) 0.75288(17)
C43_12 C 0.5207(3) 0.8836(3) 0.7694(2)
H34_12 H 0.535756 0.891677 0.767400
C44_12 C 0.5209(2) 0.8602(3) 0.7778(3)
C45_12 C 0.5443(3) 0.8466(3) 0.7837(4)
H35_12 H 0.540348 0.830301 0.789434
H36_12 H 0.553193 0.855363 0.796322
H37_12 H 0.554296 0.845517 0.769075
O10_12 O 0.47890(17) 0.75288(17) 0.92945(17)
C46_12 C 0.4793(3) 0.7694(2) 0.8836(3)
H38_12 H 0.464244 0.767400 0.891677
C47_12 C 0.4791(2) 0.7778(3) 0.8602(3)
C48_12 C 0.4557(3) 0.7837(4) 0.8466(3)
H39_12 H 0.459652 0.789434 0.830301
H40_12 H 0.446807 0.796322 0.855363
H41_12 H 0.445704 0.769075 0.845517
O1_12 O 0.76881(18) 0.0273(2) 0.500000
O2_23 O 0.77457(19) 0.000000 0.46414(19)
H1_23 H 0.783248 0.000000 0.451638
O3_12 O 0.78424(19) 0.0460(2) 0.45367(19)
O4_12 O 0.81449(18) 0.02563(17) 0.47475(18)
C1_12 C 0.8058(2) 0.0404(3) 0.4594(3)
C2_12 C 0.8265(3) 0.0511(3) 0.4448(2)
C3_12 C 0.8209(2) 0.0724(3) 0.4326(3)
H2_12 H 0.805030 0.078944 0.433556
C4_12 C 0.8385(3) 0.08402(19) 0.4189(2)
C5_12 C 0.8618(3) 0.0744(3) 0.4175(2)
C6_12 C 0.8673(2) 0.0531(3) 0.4297(3)
C7_12 C 0.8497(4) 0.04142(18) 0.4434(2)
H3_12 H 0.853495 0.026859 0.451714
C8_12 C 0.8939(3) 0.1061(3) 0.4139(4)
H4_12 H 0.889943 0.110057 0.430155
C9_12 C 0.8807(3) 0.0874(3) 0.4026(3)
C10_12 C 0.8866(3) 0.0837(4) 0.3782(3)
H5_12 H 0.876777 0.072693 0.369393
C11_12 C 0.9053(4) 0.0947(4) 0.3657(6)
H6_12 H 0.910239 0.089759 0.349942
C12_12 C 0.8329(3) 0.1073(3) 0.4050(3)
H7_12 H 0.847535 0.112761 0.396528
H8_12 H 0.820052 0.104146 0.393209
H9_12 H 0.827628 0.119828 0.416386
C13_12 C 0.8926(2) 0.0407(3) 0.4296(3)
H10_12 H 0.903827 0.050176 0.419604
H11_12 H 0.898865 0.039895 0.446254
H12_12 H 0.891202 0.024304 0.423043
O6_12 O 0.9540(2) 0.21576(19) 0.45367(19)
C24_12 C 0.9596(3) 0.1942(2) 0.4594(3)
C25_12 C 0.9489(3) 0.1735(3) 0.4448(2)
C26_12 C 0.9276(3) 0.1791(2) 0.4326(3)
H20_12 H 0.921056 0.194970 0.433556
C27_12 C 0.91598(19) 0.1615(3) 0.4189(2)
C28_12 C 0.9256(3) 0.1382(3) 0.4175(2)
C29_12 C 0.9469(3) 0.1327(2) 0.4297(3)
C30_12 C 0.95858(18) 0.1503(4) 0.4434(2)
H21_12 H 0.973141 0.146505 0.451714
C31_12 C 0.9126(3) 0.1193(3) 0.4026(3)
C32_12 C 0.9163(4) 0.1134(3) 0.3782(3)
H22_12 H 0.927307 0.123223 0.369393
C33_12 C 0.8927(3) 0.1671(3) 0.4050(3)
H23_12 H 0.887239 0.152465 0.396528
H24_12 H 0.895854 0.179948 0.393209
H25_12 H 0.880172 0.172372 0.416386
C34_12 C 0.9593(3) 0.1074(2) 0.4296(3)
H26_12 H 0.949824 0.096173 0.419604
H27_12 H 0.960105 0.101135 0.446254
H28_12 H 0.975696 0.108798 0.423043
O12_23 O 0.77457(19) 0.000000 0.53586(19)
H42_23 H 0.783248 0.000000 0.548362
O17_23 O 0.73119(18) 0.000000 0.5273(2)
O18_23 O 0.73119(18) 0.000000 0.4727(2)
O20_12 O 0.72543(19) 0.03586(19) 0.500000
O22_12 O 0.71576(19) 0.04633(19) 0.4540(2)
O27_12 O 0.74712(17) 0.02110(17) 0.42945(17)
O2_24 O 0.77457(19) 1.000000 0.46414(19)
H1_24 H 0.783248 1.000000 0.451638
O11_12 O 0.76881(18) 0.9727(2) 0.500000
O12_24 O 0.77457(19) 1.000000 0.53586(19)
H42_24 H 0.783248 1.000000 0.548362
O13_12 O 0.78424(19) 0.9540(2) 0.54633(19)
O14_12 O 0.81449(18) 0.97437(17) 0.52525(18)
C49_12 C 0.8058(2) 0.9596(3) 0.5406(3)
C50_12 C 0.8265(3) 0.9489(3) 0.5552(2)
C51_12 C 0.8209(2) 0.9276(3) 0.5674(3)
H43_12 H 0.805030 0.921056 0.566444
C52_12 C 0.8385(3) 0.91598(19) 0.5811(2)
C53_12 C 0.8618(3) 0.9256(3) 0.5825(2)
C54_12 C 0.8673(2) 0.9469(3) 0.5703(3)
C55_12 C 0.8497(4) 0.95858(18) 0.5566(2)
H44_12 H 0.853495 0.973141 0.548286
C56_12 C 0.8939(3) 0.8939(3) 0.5861(4)
H45_12 H 0.889943 0.889943 0.569845
C57_12 C 0.8807(3) 0.9126(3) 0.5974(3)
C58_12 C 0.8866(3) 0.9163(4) 0.6218(3)
H46_12 H 0.876777 0.927307 0.630607
C59_12 C 0.9053(4) 0.9053(4) 0.6343(6)
H47_12 H 0.910239 0.910241 0.650058
C60_12 C 0.8329(3) 0.8927(3) 0.5950(3)
H48_12 H 0.847535 0.887239 0.603472
H49_12 H 0.820052 0.895854 0.606791
H50_12 H 0.827628 0.880172 0.583614
C61_12 C 0.8926(2) 0.9593(3) 0.5704(3)
H51_12 H 0.903827 0.949824 0.580396
H52_12 H 0.898865 0.960105 0.553746
H53_12 H 0.891202 0.975696 0.576957
O15_12 O 0.9540(2) 0.78424(19) 0.54633(19)
C62_12 C 0.9596(3) 0.8058(2) 0.5406(3)
C63_12 C 0.9489(3) 0.8265(3) 0.5552(2)
C64_12 C 0.9276(3) 0.8209(2) 0.5674(3)
H54_12 H 0.921056 0.805030 0.566444
C65_12 C 0.91598(19) 0.8385(3) 0.5811(2)
C66_12 C 0.9256(3) 0.8618(3) 0.5825(2)
C67_12 C 0.9469(3) 0.8673(2) 0.5703(3)
C68_12 C 0.95858(18) 0.8497(4) 0.5566(2)
H55_12 H 0.973141 0.853495 0.548286
C69_12 C 0.9126(3) 0.8807(3) 0.5974(3)
C70_12 C 0.9163(4) 0.8866(3) 0.6218(3)
H56_12 H 0.927307 0.876777 0.630607
C71_12 C 0.8927(3) 0.8329(3) 0.5950(3)
H57_12 H 0.887239 0.847535 0.603472
H58_12 H 0.895854 0.820052 0.606791
H59_12 H 0.880172 0.827628 0.583614
C72_12 C 0.9593(3) 0.8926(2) 0.5704(3)
H60_12 H 0.949824 0.903827 0.580396
H61_12 H 0.960105 0.898865 0.553746
H62_12 H 0.975696 0.891202 0.576957
O17_24 O 0.73119(18) 1.000000 0.5273(2)
O18_24 O 0.73119(18) 1.000000 0.4727(2)
O19_12 O 0.72543(19) 0.96414(19) 0.500000
O21_12 O 0.71576(19) 0.95367(19) 0.5460(2)
O26_12 O 0.74712(17) 0.97890(17) 0.57055(17)
Zr2_11 Zr 0.70493(5) 0.000000 0.500000
C14_13 C 0.7440(5) 0.000000 0.5783(4)
C15_13 C 0.7363(4) -0.000000 0.6044(4)
C18_13 C 0.7189(4) 0.000000 0.6530(3)
C19_13 C 0.6858(3) 0.000000 0.6858(3)
H14_13 H 0.673641 0.000000 0.673643
C20_13 C 0.7097(3) 0.000000 0.6783(3)
C21_13 C 0.7279(3) 0.000000 0.6955(3)
H15_13 H 0.744575 0.000000 0.691293
C22_13 C 0.7199(3) 0.000000 0.7199(3)
H16_13 H 0.732084 0.000000 0.732084
C35_13 C 0.5783(4) 0.000000 0.7440(5)
C36_13 C 0.6044(4) 0.000000 0.7363(4)
C37_13 C 0.6164(3) 0.0207(3) 0.7306(2)
H29_13 H 0.608323 0.035756 0.732600
C38_13 C 0.6398(3) 0.0209(2) 0.7222(3)
C39_13 C 0.6530(3) 0.000000 0.7189(4)
C40_13 C 0.6783(3) 0.000000 0.7097(3)
C41_13 C 0.6955(3) 0.000000 0.7279(3)
H30_13 H 0.691293 0.000000 0.744575
C42_13 C 0.6534(3) 0.0443(3) 0.7163(4)
H31_13 H 0.669699 0.040348 0.710566
H32_13 H 0.644637 0.053193 0.703678
H33_13 H 0.654483 0.054296 0.730925
O9_13 O 0.74712(17) 0.02110(17) 0.57055(17)
C43_13 C 0.7306(2) 0.0207(3) 0.6164(3)
H34_13 H 0.732600 0.035756 0.608323
C44_13 C 0.7222(3) 0.0209(2) 0.6398(3)
C45_13 C 0.7163(4) 0.0443(3) 0.6534(3)
H35_13 H 0.710566 0.040348 0.669699
H36_13 H 0.703678 0.053193 0.644637
H37_13 H 0.730925 0.054296 0.654483
H42_25 H 0.716752 0.048362 0.500000
O14_13 O 0.68551(18) 0.02525(18) 0.47437(17)
C49_13 C 0.6942(2) 0.0406(3) 0.4596(3)
C50_13 C 0.6735(3) 0.0552(2) 0.4489(3)
C51_13 C 0.6791(2) 0.0674(3) 0.4276(3)
H43_13 H 0.694970 0.066444 0.421056
C52_13 C 0.6615(3) 0.0811(2) 0.41598(19)
C53_13 C 0.6382(3) 0.0825(2) 0.4256(3)
C54_13 C 0.6327(2) 0.0703(3) 0.4469(3)
C55_13 C 0.6503(4) 0.0566(2) 0.45858(18)
H44_13 H 0.646505 0.048286 0.473141
C56_13 C 0.6061(3) 0.0861(4) 0.3939(3)
H45_13 H 0.610057 0.069845 0.389943
C57_13 C 0.6193(3) 0.0974(3) 0.4126(3)
C58_13 C 0.6134(3) 0.1218(3) 0.4163(4)
H46_13 H 0.623223 0.130607 0.427307
C59_13 C 0.5947(4) 0.1343(6) 0.4053(4)
H47_13 H 0.589761 0.150058 0.410241
C60_13 C 0.6671(3) 0.0950(3) 0.3927(3)
H48_13 H 0.652465 0.103472 0.387239
H49_13 H 0.679948 0.106791 0.395854
H50_13 H 0.672372 0.083614 0.380172
C61_13 C 0.6074(2) 0.0704(3) 0.4593(3)
H51_13 H 0.596173 0.080396 0.449824
H52_13 H 0.601135 0.053746 0.460105
H53_13 H 0.608798 0.076957 0.475696
O15_13 O 0.5460(2) 0.04633(19) 0.28424(19)
O16_8 O 0.52563(17) 0.02525(18) 0.31449(18)
C62_13 C 0.5404(3) 0.0406(3) 0.3058(2)
C63_13 C 0.5511(3) 0.0552(2) 0.3265(3)
C64_13 C 0.5724(3) 0.0674(3) 0.3209(2)
H54_13 H 0.578944 0.066444 0.305030
C65_13 C 0.58402(19) 0.0811(2) 0.3385(3)
C66_13 C 0.5744(3) 0.0825(2) 0.3618(3)
C67_13 C 0.5531(3) 0.0703(3) 0.3673(2)
C68_13 C 0.54142(18) 0.0566(2) 0.3497(4)
H55_13 H 0.526859 0.048286 0.353495
C69_13 C 0.5874(3) 0.0974(3) 0.3807(3)
C70_13 C 0.5837(4) 0.1218(3) 0.3866(3)
H56_13 H 0.572693 0.130607 0.376777
C71_13 C 0.6073(3) 0.0950(3) 0.3329(3)
H57_13 H 0.612761 0.103472 0.347535
H58_13 H 0.604146 0.106791 0.320052
H59_13 H 0.619828 0.083614 0.327628
C72_13 C 0.5407(3) 0.0704(3) 0.3926(2)
H60_13 H 0.550176 0.080396 0.403827
H61_13 H 0.539895 0.053746 0.398865
H62_13 H 0.524304 0.076957 0.391202
Zr9_9 Zr 0.500000 0.000000 0.29507(5)
Zr10_7 Zr 0.500000 0.000000 0.70493(5)
O24_6 O 0.68551(18) 0.02525(18) 0.52563(17)
Zr2_12 Zr 0.70493(5) 1.000000 0.500000
H1_25 H 0.716752 0.951638 0.500000
O4_13 O 0.68551(18) 0.97475(18) 0.52563(17)
C1_13 C 0.6942(2) 0.9594(3) 0.5404(3)
C2_13 C 0.6735(3) 0.9448(2) 0.5511(3)
C3_13 C 0.6791(2) 0.9326(3) 0.5724(3)
H2_13 H 0.694970 0.933556 0.578944
C4_13 C 0.6615(3) 0.9189(2) 0.58402(19)
C5_13 C 0.6382(3) 0.9175(2) 0.5744(3)
C6_13 C 0.6327(2) 0.9297(3) 0.5531(3)
C7_13 C 0.6503(4) 0.9434(2) 0.54142(18)
H3_13 H 0.646505 0.951714 0.526859
C8_13 C 0.6061(3) 0.9139(4) 0.6061(3)
H4_13 H 0.610057 0.930155 0.610057
C9_13 C 0.6193(3) 0.9026(3) 0.5874(3)
C10_13 C 0.6134(3) 0.8782(3) 0.5837(4)
H5_13 H 0.623223 0.869393 0.572693
C11_13 C 0.5947(4) 0.8657(6) 0.5947(4)
H6_13 H 0.589761 0.849942 0.589759
C12_13 C 0.6671(3) 0.9050(3) 0.6073(3)
H7_13 H 0.652465 0.896528 0.612761
H8_13 H 0.679948 0.893209 0.604146
H9_13 H 0.672372 0.916386 0.619828
C13_13 C 0.6074(2) 0.9296(3) 0.5407(3)
H10_13 H 0.596173 0.919604 0.550176
H11_13 H 0.601135 0.946254 0.539895
H12_13 H 0.608798 0.923043 0.524304
C14_14 C 0.7440(5) 1.000000 0.5783(4)
C15_14 C 0.7363(4) 1.000000 0.6044(4)
C16_13 C 0.7306(2) 0.9793(3) 0.6164(3)
H13_13 H 0.732600 0.964244 0.608323
C17_13 C 0.7222(3) 0.9791(2) 0.6398(3)
C18_14 C 0.7189(4) 1.000000 0.6530(3)
C19_14 C 0.6858(3) 1.000000 0.6858(3)
H14_14 H 0.673641 1.000000 0.673643
C20_14 C 0.7097(3) 1.000000 0.6783(3)
C21_14 C 0.7279(3) 1.000000 0.6955(3)
H15_14 H 0.744575 1.000000 0.691293
C22_14 C 0.7199(3) 1.000000 0.7199(3)
H16_14 H 0.732084 1.000000 0.732084
C23_13 C 0.7163(4) 0.9557(3) 0.6534(3)
H17_13 H 0.710566 0.959652 0.669699
H18_13 H 0.703678 0.946807 0.644637
H19_13 H 0.730925 0.945704 0.654483
O6_13 O 0.5460(2) 0.95367(19) 0.71576(19)
O7_6 O 0.52563(17) 0.97475(18) 0.68551(18)
C24_13 C 0.5404(3) 0.9594(3) 0.6942(2)
C25_13 C 0.5511(3) 0.9448(2) 0.6735(3)
C26_13 C 0.5724(3) 0.9326(3) 0.6791(2)
H20_13 H 0.578944 0.933556 0.694970
C27_13 C 0.58402(19) 0.9189(2) 0.6615(3)
C28_13 C 0.5744(3) 0.9175(2) 0.6382(3)
C29_13 C 0.5531(3) 0.9297(3) 0.6327(2)
C30_13 C 0.54142(18) 0.9434(2) 0.6503(4)
H21_13 H 0.526859 0.951714 0.646505
C31_13 C 0.5874(3) 0.9026(3) 0.6193(3)
C32_13 C 0.5837(4) 0.8782(3) 0.6134(3)
H22_13 H 0.572693 0.869393 0.623223
C33_13 C 0.6073(3) 0.9050(3) 0.6671(3)
H23_13 H 0.612761 0.896528 0.652465
H24_13 H 0.604146 0.893209 0.679948
H25_13 H 0.619828 0.916386 0.672372
C34_13 C 0.5407(3) 0.9296(3) 0.6074(2)
H26_13 H 0.550176 0.919604 0.596173
H27_13 H 0.539895 0.946254 0.601135
H28_13 H 0.524304 0.923043 0.608798
C35_14 C 0.5783(4) 1.000000 0.7440(5)
C36_14 C 0.6044(4) 1.000000 0.7363(4)
C39_14 C 0.6530(3) 1.000000 0.7189(4)
C40_14 C 0.6783(3) 1.000000 0.7097(3)
C41_14 C 0.6955(3) 1.000000 0.7279(3)
H30_14 H 0.691293 1.000000 0.744575
O10_13 O 0.57055(17) 0.97890(17) 0.74712(17)
C46_13 C 0.6164(3) 0.9793(3) 0.7306(2)
H38_13 H 0.608323 0.964244 0.732600
C47_13 C 0.6398(3) 0.9791(2) 0.7222(3)
C48_13 C 0.6534(3) 0.9557(3) 0.7163(4)
H39_13 H 0.669699 0.959652 0.710566
H40_13 H 0.644637 0.946807 0.703678
H41_13 H 0.654483 0.945704 0.730925
Zr9_10 Zr 0.500000 1.000000 0.29507(5)
Zr10_8 Zr 0.500000 1.000000 0.70493(5)
O23_8 O 0.68551(18) 0.97475(18) 0.47437(17)
Zr2_13 Zr 0.000000 0.70493(5) 0.500000
H1_26 H 0.048362 0.716752 0.500000
O4_14 O 0.02525(18) 0.68551(18) 0.52563(17)
C1_14 C 0.0406(3) 0.6942(2) 0.5404(3)
C2_14 C 0.0552(2) 0.6735(3) 0.5511(3)
C3_14 C 0.0674(3) 0.6791(2) 0.5724(3)
H2_14 H 0.066444 0.694970 0.578944
C4_14 C 0.0811(2) 0.6615(3) 0.58402(19)
C5_14 C 0.0825(2) 0.6382(3) 0.5744(3)
C6_14 C 0.0703(3) 0.6327(2) 0.5531(3)
C7_14 C 0.0566(2) 0.6503(4) 0.54142(18)
H3_14 H 0.048286 0.646505 0.526859
C8_14 C 0.0861(4) 0.6061(3) 0.6061(3)
H4_14 H 0.069845 0.610057 0.610057
C9_14 C 0.0974(3) 0.6193(3) 0.5874(3)
C10_14 C 0.1218(3) 0.6134(3) 0.5837(4)
H5_14 H 0.130607 0.623223 0.572693
C11_14 C 0.1343(6) 0.5947(4) 0.5947(4)
H6_14 H 0.150058 0.589761 0.589759
C12_14 C 0.0950(3) 0.6671(3) 0.6073(3)
H7_14 H 0.103472 0.652465 0.612761
H8_14 H 0.106791 0.679948 0.604146
H9_14 H 0.083614 0.672372 0.619828
C13_14 C 0.0704(3) 0.6074(2) 0.5407(3)
H10_14 H 0.080396 0.596173 0.550176
H11_14 H 0.053746 0.601135 0.539895
H12_14 H 0.076957 0.608798 0.524304
C14_15 C 0.000000 0.7440(5) 0.5783(4)
C15_15 C 0.000000 0.7363(4) 0.6044(4)
C16_14 C 0.0207(3) 0.7306(2) 0.6164(3)
H13_14 H 0.035756 0.732600 0.608323
C17_14 C 0.0209(2) 0.7222(3) 0.6398(3)
C18_15 C 0.000000 0.7189(4) 0.6530(3)
C19_15 C 0.000000 0.6858(3) 0.6858(3)
H14_15 H 0.000000 0.673641 0.673643
C20_15 C 0.000000 0.7097(3) 0.6783(3)
C21_15 C 0.000000 0.7279(3) 0.6955(3)
H15_15 H 0.000000 0.744575 0.691293
C22_15 C 0.000000 0.7199(3) 0.7199(3)
H16_15 H 0.000000 0.732084 0.732084
C23_14 C 0.0443(3) 0.7163(4) 0.6534(3)
H17_14 H 0.040348 0.710566 0.669699
H18_14 H 0.053193 0.703678 0.644637
H19_14 H 0.054296 0.730925 0.654483
O6_14 O 0.04633(19) 0.5460(2) 0.71576(19)
O7_7 O 0.02525(18) 0.52563(17) 0.68551(18)
C24_14 C 0.0406(3) 0.5404(3) 0.6942(2)
C25_14 C 0.0552(2) 0.5511(3) 0.6735(3)
C26_14 C 0.0674(3) 0.5724(3) 0.6791(2)
H20_14 H 0.066444 0.578944 0.694970
C27_14 C 0.0811(2) 0.58402(19) 0.6615(3)
C28_14 C 0.0825(2) 0.5744(3) 0.6382(3)
C29_14 C 0.0703(3) 0.5531(3) 0.6327(2)
C30_14 C 0.0566(2) 0.54142(18) 0.6503(4)
H21_14 H 0.048286 0.526859 0.646505
C31_14 C 0.0974(3) 0.5874(3) 0.6193(3)
C32_14 C 0.1218(3) 0.5837(4) 0.6134(3)
H22_14 H 0.130607 0.572693 0.623223
C33_14 C 0.0950(3) 0.6073(3) 0.6671(3)
H23_14 H 0.103472 0.612761 0.652465
H24_14 H 0.106791 0.604146 0.679948
H25_14 H 0.083614 0.619828 0.672372
C34_14 C 0.0704(3) 0.5407(3) 0.6074(2)
H26_14 H 0.080396 0.550176 0.596173
H27_14 H 0.053746 0.539895 0.601135
H28_14 H 0.076957 0.524304 0.608798
C35_15 C 0.000000 0.5783(4) 0.7440(5)
C36_15 C 0.000000 0.6044(4) 0.7363(4)
C39_15 C 0.000000 0.6530(3) 0.7189(4)
C40_15 C 0.000000 0.6783(3) 0.7097(3)
C41_15 C 0.000000 0.6955(3) 0.7279(3)
H30_15 H 0.000000 0.691293 0.744575
O10_14 O 0.02110(17) 0.57055(17) 0.74712(17)
C46_14 C 0.0207(3) 0.6164(3) 0.7306(2)
H38_14 H 0.035756 0.608323 0.732600
C47_14 C 0.0209(2) 0.6398(3) 0.7222(3)
C48_14 C 0.0443(3) 0.6534(3) 0.7163(4)
H39_14 H 0.040348 0.669699 0.710566
H40_14 H 0.053193 0.644637 0.703678
H41_14 H 0.054296 0.654483 0.730925
Zr9_11 Zr 0.000000 0.500000 0.29507(5)
Zr10_9 Zr 0.000000 0.500000 0.70493(5)
O23_9 O 0.02525(18) 0.68551(18) 0.47437(17)
Zr2_14 Zr 1.000000 0.70493(5) 0.500000
C14_16 C 1.000000 0.7440(5) 0.5783(4)
C15_16 C 1.000000 0.7363(4) 0.6044(4)
C18_16 C 1.000000 0.7189(4) 0.6530(3)
C19_16 C 1.000000 0.6858(3) 0.6858(3)
H14_16 H 1.000000 0.673641 0.673643
C20_16 C 1.000000 0.7097(3) 0.6783(3)
C21_16 C 1.000000 0.7279(3) 0.6955(3)
H15_16 H 1.000000 0.744575 0.691293
C22_16 C 1.000000 0.7199(3) 0.7199(3)
H16_16 H 1.000000 0.732084 0.732084
C35_16 C 1.000000 0.5783(4) 0.7440(5)
C36_16 C 1.000000 0.6044(4) 0.7363(4)
C37_14 C 0.9793(3) 0.6164(3) 0.7306(2)
H29_14 H 0.964244 0.608323 0.732600
C38_14 C 0.9791(2) 0.6398(3) 0.7222(3)
C39_16 C 1.000000 0.6530(3) 0.7189(4)
C40_16 C 1.000000 0.6783(3) 0.7097(3)
C41_16 C 1.000000 0.6955(3) 0.7279(3)
H30_16 H 1.000000 0.691293 0.744575
C42_14 C 0.9557(3) 0.6534(3) 0.7163(4)
H31_14 H 0.959652 0.669699 0.710566
H32_14 H 0.946807 0.644637 0.703678
H33_14 H 0.945704 0.654483 0.730925
O9_14 O 0.97890(17) 0.74712(17) 0.57055(17)
C43_14 C 0.9793(3) 0.7306(2) 0.6164(3)
H34_14 H 0.964244 0.732600 0.608323
C44_14 C 0.9791(2) 0.7222(3) 0.6398(3)
C45_14 C 0.9557(3) 0.7163(4) 0.6534(3)
H35_14 H 0.959652 0.710566 0.669699
H36_14 H 0.946807 0.703678 0.644637
H37_14 H 0.945704 0.730925 0.654483
H42_26 H 0.951638 0.716752 0.500000
O14_14 O 0.97475(18) 0.68551(18) 0.47437(17)
C49_14 C 0.9594(3) 0.6942(2) 0.4596(3)
C50_14 C 0.9448(2) 0.6735(3) 0.4489(3)
C51_14 C 0.9326(3) 0.6791(2) 0.4276(3)
H43_14 H 0.933556 0.694970 0.421056
C52_14 C 0.9189(2) 0.6615(3) 0.41598(19)
C53_14 C 0.9175(2) 0.6382(3) 0.4256(3)
C54_14 C 0.9297(3) 0.6327(2) 0.4469(3)
C55_14 C 0.9434(2) 0.6503(4) 0.45858(18)
H44_14 H 0.951714 0.646505 0.473141
C56_14 C 0.9139(4) 0.6061(3) 0.3939(3)
H45_14 H 0.930155 0.610057 0.389943
C57_14 C 0.9026(3) 0.6193(3) 0.4126(3)
C58_14 C 0.8782(3) 0.6134(3) 0.4163(4)
H46_14 H 0.869393 0.623223 0.427307
C59_14 C 0.8657(6) 0.5947(4) 0.4053(4)
H47_14 H 0.849942 0.589761 0.410241
C60_14 C 0.9050(3) 0.6671(3) 0.3927(3)
H48_14 H 0.896528 0.652465 0.387239
H49_14 H 0.893209 0.679948 0.395854
H50_14 H 0.916386 0.672372 0.380172
C61_14 C 0.9296(3) 0.6074(2) 0.4593(3)
H51_14 H 0.919604 0.596173 0.449824
H52_14 H 0.946254 0.601135 0.460105
H53_14 H 0.923043 0.608798 0.475696
O15_14 O 0.95367(19) 0.5460(2) 0.28424(19)
O16_9 O 0.97475(18) 0.52563(17) 0.31449(18)
C62_14 C 0.9594(3) 0.5404(3) 0.3058(2)
C63_14 C 0.9448(2) 0.5511(3) 0.3265(3)
C64_14 C 0.9326(3) 0.5724(3) 0.3209(2)
H54_14 H 0.933556 0.578944 0.305030
C65_14 C 0.9189(2) 0.58402(19) 0.3385(3)
C66_14 C 0.9175(2) 0.5744(3) 0.3618(3)
C67_14 C 0.9297(3) 0.5531(3) 0.3673(2)
C68_14 C 0.9434(2) 0.54142(18) 0.3497(4)
H55_14 H 0.951714 0.526859 0.353495
C69_14 C 0.9026(3) 0.5874(3) 0.3807(3)
C70_14 C 0.8782(3) 0.5837(4) 0.3866(3)
H56_14 H 0.869393 0.572693 0.376777
C71_14 C 0.9050(3) 0.6073(3) 0.3329(3)
H57_14 H 0.896528 0.612761 0.347535
H58_14 H 0.893209 0.604146 0.320052
H59_14 H 0.916386 0.619828 0.327628
C72_14 C 0.9296(3) 0.5407(3) 0.3926(2)
H60_14 H 0.919604 0.550176 0.403827
H61_14 H 0.946254 0.539895 0.398865
H62_14 H 0.923043 0.524304 0.391202
Zr9_12 Zr 1.000000 0.500000 0.29507(5)
Zr10_10 Zr 1.000000 0.500000 0.70493(5)
O24_7 O 0.97475(18) 0.68551(18) 0.52563(17)
Zr2_15 Zr 0.29507(5) 0.000000 0.500000
H1_27 H 0.283248 0.048362 0.500000
O4_15 O 0.31449(18) 0.02525(18) 0.52563(17)
C1_15 C 0.3058(2) 0.0406(3) 0.5404(3)
C2_15 C 0.3265(3) 0.0552(2) 0.5511(3)
C3_15 C 0.3209(2) 0.0674(3) 0.5724(3)
H2_15 H 0.305030 0.066444 0.578944
C4_15 C 0.3385(3) 0.0811(2) 0.58402(19)
C5_15 C 0.3618(3) 0.0825(2) 0.5744(3)
C6_15 C 0.3673(2) 0.0703(3) 0.5531(3)
C7_15 C 0.3497(4) 0.0566(2) 0.54142(18)
H3_15 H 0.353495 0.048286 0.526859
C8_15 C 0.3939(3) 0.0861(4) 0.6061(3)
H4_15 H 0.389943 0.069845 0.610057
C9_15 C 0.3807(3) 0.0974(3) 0.5874(3)
C10_15 C 0.3866(3) 0.1218(3) 0.5837(4)
H5_15 H 0.376777 0.130607 0.572693
C11_15 C 0.4053(4) 0.1343(6) 0.5947(4)
H6_15 H 0.410239 0.150058 0.589759
C12_15 C 0.3329(3) 0.0950(3) 0.6073(3)
H7_15 H 0.347535 0.103472 0.612761
H8_15 H 0.320052 0.106791 0.604146
H9_15 H 0.327628 0.083614 0.619828
C13_15 C 0.3926(2) 0.0704(3) 0.5407(3)
H10_15 H 0.403827 0.080396 0.550176
H11_15 H 0.398865 0.053746 0.539895
H12_15 H 0.391202 0.076957 0.524304
C14_17 C 0.2560(5) 0.000000 0.5783(4)
C15_17 C 0.2637(4) -0.000000 0.6044(4)
C16_15 C 0.2694(2) 0.0207(3) 0.6164(3)
H13_15 H 0.267400 0.035756 0.608323
C17_15 C 0.2778(3) 0.0209(2) 0.6398(3)
C18_17 C 0.2811(4) 0.000000 0.6530(3)
C19_17 C 0.3142(3) 0.000000 0.6858(3)
H14_17 H 0.326359 0.000000 0.673643
C20_17 C 0.2903(3) 0.000000 0.6783(3)
C21_17 C 0.2721(3) 0.000000 0.6955(3)
H15_17 H 0.255425 0.000000 0.691293
C22_17 C 0.2801(3) 0.000000 0.7199(3)
H16_17 H 0.267916 0.000000 0.732084
C23_15 C 0.2837(4) 0.0443(3) 0.6534(3)
H17_15 H 0.289434 0.040348 0.669699
H18_15 H 0.296322 0.053193 0.644637
H19_15 H 0.269075 0.054296 0.654483
O6_15 O 0.4540(2) 0.04633(19) 0.71576(19)
O7_8 O 0.47437(17) 0.02525(18) 0.68551(18)
C24_15 C 0.4596(3) 0.0406(3) 0.6942(2)
C25_15 C 0.4489(3) 0.0552(2) 0.6735(3)
C26_15 C 0.4276(3) 0.0674(3) 0.6791(2)
H20_15 H 0.421056 0.066444 0.694970
C27_15 C 0.41598(19) 0.0811(2) 0.6615(3)
C28_15 C 0.4256(3) 0.0825(2) 0.6382(3)
C29_15 C 0.4469(3) 0.0703(3) 0.6327(2)
C30_15 C 0.45858(18) 0.0566(2) 0.6503(4)
H21_15 H 0.473141 0.048286 0.646505
C31_15 C 0.4126(3) 0.0974(3) 0.6193(3)
C32_15 C 0.4163(4) 0.1218(3) 0.6134(3)
H22_15 H 0.427307 0.130607 0.623223
C33_15 C 0.3927(3) 0.0950(3) 0.6671(3)
H23_15 H 0.387239 0.103472 0.652465
H24_15 H 0.395854 0.106791 0.679948
H25_15 H 0.380172 0.083614 0.672372
C34_15 C 0.4593(3) 0.0704(3) 0.6074(2)
H26_15 H 0.449824 0.080396 0.596173
H27_15 H 0.460105 0.053746 0.601135
H28_15 H 0.475696 0.076957 0.608798
C35_17 C 0.4217(4) 0.000000 0.7440(5)
C36_17 C 0.3956(4) 0.000000 0.7363(4)
C39_17 C 0.3470(3) 0.000000 0.7189(4)
C40_17 C 0.3217(3) 0.000000 0.7097(3)
C41_17 C 0.3045(3) 0.000000 0.7279(3)
H30_17 H 0.308707 0.000000 0.744575
O10_15 O 0.42945(17) 0.02110(17) 0.74712(17)
C46_15 C 0.3836(3) 0.0207(3) 0.7306(2)
H38_15 H 0.391677 0.035756 0.732600
C47_15 C 0.3602(3) 0.0209(2) 0.7222(3)
C48_15 C 0.3466(3) 0.0443(3) 0.7163(4)
H39_15 H 0.330301 0.040348 0.710566
H40_15 H 0.355363 0.053193 0.703678
H41_15 H 0.345517 0.054296 0.730925
O23_10 O 0.31449(18) 0.02525(18) 0.47437(17)
Zr2_16 Zr 0.29507(5) 1.000000 0.500000
C14_18 C 0.2560(5) 1.000000 0.5783(4)
C15_18 C 0.2637(4) 1.000000 0.6044(4)
C18_18 C 0.2811(4) 1.000000 0.6530(3)
C19_18 C 0.3142(3) 1.000000 0.6858(3)
H14_18 H 0.326359 1.000000 0.673643
C20_18 C 0.2903(3) 1.000000 0.6783(3)
C21_18 C 0.2721(3) 1.000000 0.6955(3)
H15_18 H 0.255425 1.000000 0.691293
C22_18 C 0.2801(3) 1.000000 0.7199(3)
H16_18 H 0.267916 1.000000 0.732084
C35_18 C 0.4217(4) 1.000000 0.7440(5)
C36_18 C 0.3956(4) 1.000000 0.7363(4)
C37_15 C 0.3836(3) 0.9793(3) 0.7306(2)
H29_15 H 0.391677 0.964244 0.732600
C38_15 C 0.3602(3) 0.9791(2) 0.7222(3)
C39_18 C 0.3470(3) 1.000000 0.7189(4)
C40_18 C 0.3217(3) 1.000000 0.7097(3)
C41_18 C 0.3045(3) 1.000000 0.7279(3)
H30_18 H 0.308707 1.000000 0.744575
C42_15 C 0.3466(3) 0.9557(3) 0.7163(4)
H31_15 H 0.330301 0.959652 0.710566
H32_15 H 0.355363 0.946807 0.703678
H33_15 H 0.345517 0.945704 0.730925
O9_15 O 0.25288(17) 0.97890(17) 0.57055(17)
C43_15 C 0.2694(2) 0.9793(3) 0.6164(3)
H34_15 H 0.267400 0.964244 0.608323
C44_15 C 0.2778(3) 0.9791(2) 0.6398(3)
C45_15 C 0.2837(4) 0.9557(3) 0.6534(3)
H35_15 H 0.289434 0.959652 0.669699
H36_15 H 0.296322 0.946807 0.644637
H37_15 H 0.269075 0.945704 0.654483
H42_27 H 0.283248 0.951638 0.500000
O14_15 O 0.31449(18) 0.97475(18) 0.47437(17)
C49_15 C 0.3058(2) 0.9594(3) 0.4596(3)
C50_15 C 0.3265(3) 0.9448(2) 0.4489(3)
C51_15 C 0.3209(2) 0.9326(3) 0.4276(3)
H43_15 H 0.305030 0.933556 0.421056
C52_15 C 0.3385(3) 0.9189(2) 0.41598(19)
C53_15 C 0.3618(3) 0.9175(2) 0.4256(3)
C54_15 C 0.3673(2) 0.9297(3) 0.4469(3)
C55_15 C 0.3497(4) 0.9434(2) 0.45858(18)
H44_15 H 0.353495 0.951714 0.473141
C56_15 C 0.3939(3) 0.9139(4) 0.3939(3)
H45_15 H 0.389943 0.930155 0.389943
C57_15 C 0.3807(3) 0.9026(3) 0.4126(3)
C58_15 C 0.3866(3) 0.8782(3) 0.4163(4)
H46_15 H 0.376777 0.869393 0.427307
C59_15 C 0.4053(4) 0.8657(6) 0.4053(4)
H47_15 H 0.410239 0.849942 0.410241
C60_15 C 0.3329(3) 0.9050(3) 0.3927(3)
H48_15 H 0.347535 0.896528 0.387239
H49_15 H 0.320052 0.893209 0.395854
H50_15 H 0.327628 0.916386 0.380172
C61_15 C 0.3926(2) 0.9296(3) 0.4593(3)
H51_15 H 0.403827 0.919604 0.449824
H52_15 H 0.398865 0.946254 0.460105
H53_15 H 0.391202 0.923043 0.475696
O15_15 O 0.4540(2) 0.95367(19) 0.28424(19)
O16_10 O 0.47437(17) 0.97475(18) 0.31449(18)
C62_15 C 0.4596(3) 0.9594(3) 0.3058(2)
C63_15 C 0.4489(3) 0.9448(2) 0.3265(3)
C64_15 C 0.4276(3) 0.9326(3) 0.3209(2)
H54_15 H 0.421056 0.933556 0.305030
C65_15 C 0.41598(19) 0.9189(2) 0.3385(3)
C66_15 C 0.4256(3) 0.9175(2) 0.3618(3)
C67_15 C 0.4469(3) 0.9297(3) 0.3673(2)
C68_15 C 0.45858(18) 0.9434(2) 0.3497(4)
H55_15 H 0.473141 0.951714 0.353495
C69_15 C 0.4126(3) 0.9026(3) 0.3807(3)
C70_15 C 0.4163(4) 0.8782(3) 0.3866(3)
H56_15 H 0.427307 0.869393 0.376777
C71_15 C 0.3927(3) 0.9050(3) 0.3329(3)
H57_15 H 0.387239 0.896528 0.347535
H58_15 H 0.395854 0.893209 0.320052
H59_15 H 0.380172 0.916386 0.327628
C72_15 C 0.4593(3) 0.9296(3) 0.3926(2)
H60_15 H 0.449824 0.919604 0.403827
H61_15 H 0.460105 0.946254 0.398865
H62_15 H 0.475696 0.923043 0.391202
O24_8 O 0.31449(18) 0.97475(18) 0.52563(17)
Zr2_17 Zr 0.000000 0.29507(5) 0.500000
C14_19 C 0.000000 0.2560(5) 0.5783(4)
C15_19 C 0.000000 0.2637(4) 0.6044(4)
C18_19 C 0.000000 0.2811(4) 0.6530(3)
C19_19 C 0.000000 0.3142(3) 0.6858(3)
H14_19 H 0.000000 0.326359 0.673643
C20_19 C 0.000000 0.2903(3) 0.6783(3)
C21_19 C 0.000000 0.2721(3) 0.6955(3)
H15_19 H 0.000000 0.255425 0.691293
C22_19 C 0.000000 0.2801(3) 0.7199(3)
H16_19 H 0.000000 0.267916 0.732084
C35_19 C 0.000000 0.4217(4) 0.7440(5)
C36_19 C 0.000000 0.3956(4) 0.7363(4)
C37_16 C 0.0207(3) 0.3836(3) 0.7306(2)
H29_16 H 0.035756 0.391677 0.732600
C38_16 C 0.0209(2) 0.3602(3) 0.7222(3)
C39_19 C 0.000000 0.3470(3) 0.7189(4)
C40_19 C 0.000000 0.3217(3) 0.7097(3)
C41_19 C 0.000000 0.3045(3) 0.7279(3)
H30_19 H 0.000000 0.308707 0.744575
C42_16 C 0.0443(3) 0.3466(3) 0.7163(4)
H31_16 H 0.040348 0.330301 0.710566
H32_16 H 0.053193 0.355363 0.703678
H33_16 H 0.054296 0.345517 0.730925
O9_16 O 0.02110(17) 0.25288(17) 0.57055(17)
C43_16 C 0.0207(3) 0.2694(2) 0.6164(3)
H34_16 H 0.035756 0.267400 0.608323
C44_16 C 0.0209(2) 0.2778(3) 0.6398(3)
C45_16 C 0.0443(3) 0.2837(4) 0.6534(3)
H35_16 H 0.040348 0.289434 0.669699
H36_16 H 0.053193 0.296322 0.644637
H37_16 H 0.054296 0.269075 0.654483
H42_28 H 0.048362 0.283248 0.500000
O14_16 O 0.02525(18) 0.31449(18) 0.47437(17)
C49_16 C 0.0406(3) 0.3058(2) 0.4596(3)
C50_16 C 0.0552(2) 0.3265(3) 0.4489(3)
C51_16 C 0.0674(3) 0.3209(2) 0.4276(3)
H43_16 H 0.066444 0.305030 0.421056
C52_16 C 0.0811(2) 0.3385(3) 0.41598(19)
C53_16 C 0.0825(2) 0.3618(3) 0.4256(3)
C54_16 C 0.0703(3) 0.3673(2) 0.4469(3)
C55_16 C 0.0566(2) 0.3497(4) 0.45858(18)
H44_16 H 0.048286 0.353495 0.473141
C56_16 C 0.0861(4) 0.3939(3) 0.3939(3)
H45_16 H 0.069845 0.389943 0.389943
C57_16 C 0.0974(3) 0.3807(3) 0.4126(3)
C58_16 C 0.1218(3) 0.3866(3) 0.4163(4)
H46_16 H 0.130607 0.376777 0.427307
C59_16 C 0.1343(6) 0.4053(4) 0.4053(4)
H47_16 H 0.150058 0.410239 0.410241
C60_16 C 0.0950(3) 0.3329(3) 0.3927(3)
H48_16 H 0.103472 0.347535 0.387239
H49_16 H 0.106791 0.320052 0.395854
H50_16 H 0.083614 0.327628 0.380172
C61_16 C 0.0704(3) 0.3926(2) 0.4593(3)
H51_16 H 0.080396 0.403827 0.449824
H52_16 H 0.053746 0.398865 0.460105
H53_16 H 0.076957 0.391202 0.475696
O15_16 O 0.04633(19) 0.4540(2) 0.28424(19)
O16_11 O 0.02525(18) 0.47437(17) 0.31449(18)
C62_16 C 0.0406(3) 0.4596(3) 0.3058(2)
C63_16 C 0.0552(2) 0.4489(3) 0.3265(3)
C64_16 C 0.0674(3) 0.4276(3) 0.3209(2)
H54_16 H 0.066444 0.421056 0.305030
C65_16 C 0.0811(2) 0.41598(19) 0.3385(3)
C66_16 C 0.0825(2) 0.4256(3) 0.3618(3)
C67_16 C 0.0703(3) 0.4469(3) 0.3673(2)
C68_16 C 0.0566(2) 0.45858(18) 0.3497(4)
H55_16 H 0.048286 0.473141 0.353495
C69_16 C 0.0974(3) 0.4126(3) 0.3807(3)
C70_16 C 0.1218(3) 0.4163(4) 0.3866(3)
H56_16 H 0.130607 0.427307 0.376777
C71_16 C 0.0950(3) 0.3927(3) 0.3329(3)
H57_16 H 0.103472 0.387239 0.347535
H58_16 H 0.106791 0.395854 0.320052
H59_16 H 0.083614 0.380172 0.327628
C72_16 C 0.0704(3) 0.4593(3) 0.3926(2)
H60_16 H 0.080396 0.449824 0.403827
H61_16 H 0.053746 0.460105 0.398865
H62_16 H 0.076957 0.475696 0.391202
O24_9 O 0.02525(18) 0.31449(18) 0.52563(17)
Zr2_18 Zr 1.000000 0.29507(5) 0.500000
H1_28 H 0.951638 0.283248 0.500000
O4_16 O 0.97475(18) 0.31449(18) 0.52563(17)
C1_16 C 0.9594(3) 0.3058(2) 0.5404(3)
C2_16 C 0.9448(2) 0.3265(3) 0.5511(3)
C3_16 C 0.9326(3) 0.3209(2) 0.5724(3)
H2_16 H 0.933556 0.305030 0.578944
C4_16 C 0.9189(2) 0.3385(3) 0.58402(19)
C5_16 C 0.9175(2) 0.3618(3) 0.5744(3)
C6_16 C 0.9297(3) 0.3673(2) 0.5531(3)
C7_16 C 0.9434(2) 0.3497(4) 0.54142(18)
H3_16 H 0.951714 0.353495 0.526859
C8_16 C 0.9139(4) 0.3939(3) 0.6061(3)
H4_16 H 0.930155 0.389943 0.610057
C9_16 C 0.9026(3) 0.3807(3) 0.5874(3)
C10_16 C 0.8782(3) 0.3866(3) 0.5837(4)
H5_16 H 0.869393 0.376777 0.572693
C11_16 C 0.8657(6) 0.4053(4) 0.5947(4)
H6_16 H 0.849942 0.410239 0.589759
C12_16 C 0.9050(3) 0.3329(3) 0.6073(3)
H7_16 H 0.896528 0.347535 0.612761
H8_16 H 0.893209 0.320052 0.604146
H9_16 H 0.916386 0.327628 0.619828
C13_16 C 0.9296(3) 0.3926(2) 0.5407(3)
H10_16 H 0.919604 0.403827 0.550176
H11_16 H 0.946254 0.398865 0.539895
H12_16 H 0.923043 0.391202 0.524304
C14_20 C 1.000000 0.2560(5) 0.5783(4)
C15_20 C 1.000000 0.2637(4) 0.6044(4)
C16_16 C 0.9793(3) 0.2694(2) 0.6164(3)
H13_16 H 0.964244 0.267400 0.608323
C17_16 C 0.9791(2) 0.2778(3) 0.6398(3)
C18_20 C 1.000000 0.2811(4) 0.6530(3)
C19_20 C 1.000000 0.3142(3) 0.6858(3)
H14_20 H 1.000000 0.326359 0.673643
C20_20 C 1.000000 0.2903(3) 0.6783(3)
C21_20 C 1.000000 0.2721(3) 0.6955(3)
H15_20 H 1.000000 0.255425 0.691293
C22_20 C 1.000000 0.2801(3) 0.7199(3)
H16_20 H 1.000000 0.267916 0.732084
C23_16 C 0.9557(3) 0.2837(4) 0.6534(3)
H17_16 H 0.959652 0.289434 0.669699
H18_16 H 0.946807 0.296322 0.644637
H19_16 H 0.945704 0.269075 0.654483
O6_16 O 0.95367(19) 0.4540(2) 0.71576(19)
O7_9 O 0.97475(18) 0.47437(17) 0.68551(18)
C24_16 C 0.9594(3) 0.4596(3) 0.6942(2)
C25_16 C 0.9448(2) 0.4489(3) 0.6735(3)
C26_16 C 0.9326(3) 0.4276(3) 0.6791(2)
H20_16 H 0.933556 0.421056 0.694970
C27_16 C 0.9189(2) 0.41598(19) 0.6615(3)
C28_16 C 0.9175(2) 0.4256(3) 0.6382(3)
C29_16 C 0.9297(3) 0.4469(3) 0.6327(2)
C30_16 C 0.9434(2) 0.45858(18) 0.6503(4)
H21_16 H 0.951714 0.473141 0.646505
C31_16 C 0.9026(3) 0.4126(3) 0.6193(3)
C32_16 C 0.8782(3) 0.4163(4) 0.6134(3)
H22_16 H 0.869393 0.427307 0.623223
C33_16 C 0.9050(3) 0.3927(3) 0.6671(3)
H23_16 H 0.896528 0.387239 0.652465
H24_16 H 0.893209 0.395854 0.679948
H25_16 H 0.916386 0.380172 0.672372
C34_16 C 0.9296(3) 0.4593(3) 0.6074(2)
H26_16 H 0.919604 0.449824 0.596173
H27_16 H 0.946254 0.460105 0.601135
H28_16 H 0.923043 0.475696 0.608798
C35_20 C 1.000000 0.4217(4) 0.7440(5)
C36_20 C 1.000000 0.3956(4) 0.7363(4)
C39_20 C 1.000000 0.3470(3) 0.7189(4)
C40_20 C 1.000000 0.3217(3) 0.7097(3)
C41_20 C 1.000000 0.3045(3) 0.7279(3)
H30_20 H 1.000000 0.308707 0.744575
O10_16 O 0.97890(17) 0.42945(17) 0.74712(17)
C46_16 C 0.9793(3) 0.3836(3) 0.7306(2)
H38_16 H 0.964244 0.391677 0.732600
C47_16 C 0.9791(2) 0.3602(3) 0.7222(3)
C48_16 C 0.9557(3) 0.3466(3) 0.7163(4)
H39_16 H 0.959652 0.330301 0.710566
H40_16 H 0.946807 0.355363 0.703678
H41_16 H 0.945704 0.345517 0.730925
O23_11 O 0.97475(18) 0.31449(18) 0.47437(17)
Zr2_19 Zr 0.70493(5) 0.500000 0.000000
C14_21 C 0.7440(5) 0.4217(4) 0.000000
C15_21 C 0.7363(4) 0.3956(4) 0.000000
C18_21 C 0.7189(4) 0.3470(3) 0.000000
C19_21 C 0.6858(3) 0.3142(3) 0.000000
H14_21 H 0.673641 0.326357 0.000000
C20_21 C 0.7097(3) 0.3217(3) 0.000000
C21_21 C 0.7279(3) 0.3045(3) 0.000000
H15_21 H 0.744575 0.308707 0.000000
C22_21 C 0.7199(3) 0.2801(3) 0.000000
H16_21 H 0.732084 0.267916 0.000000
C35_21 C 0.5783(4) 0.2560(5) 0.000000
C36_21 C 0.6044(4) 0.2637(4) 0.000000
C37_17 C 0.6164(3) 0.2694(2) 0.0207(3)
H29_17 H 0.608323 0.267400 0.035756
C38_17 C 0.6398(3) 0.2778(3) 0.0209(2)
C39_21 C 0.6530(3) 0.2811(4) 0.000000
C40_21 C 0.6783(3) 0.2903(3) 0.000000
C41_21 C 0.6955(3) 0.2721(3) 0.000000
H30_21 H 0.691293 0.255425 0.000000
C42_17 C 0.6534(3) 0.2837(4) 0.0443(3)
H31_17 H 0.669699 0.289434 0.040348
H32_17 H 0.644637 0.296322 0.053193
H33_17 H 0.654483 0.269075 0.054296
O9_17 O 0.74712(17) 0.42945(17) 0.02110(17)
C43_17 C 0.7306(2) 0.3836(3) 0.0207(3)
H34_17 H 0.732600 0.391677 0.035756
C44_17 C 0.7222(3) 0.3602(3) 0.0209(2)
C45_17 C 0.7163(4) 0.3466(3) 0.0443(3)
H35_17 H 0.710566 0.330301 0.040348
H36_17 H 0.703678 0.355363 0.053193
H37_17 H 0.730925 0.345517 0.054296
H42_29 H 0.716752 0.500000 0.048362
O14_17 O 0.68551(18) 0.52563(17) 0.02525(18)
C49_17 C 0.6942(2) 0.5404(3) 0.0406(3)
C50_17 C 0.6735(3) 0.5511(3) 0.0552(2)
C51_17 C 0.6791(2) 0.5724(3) 0.0674(3)
H43_17 H 0.694970 0.578944 0.066444
C52_17 C 0.6615(3) 0.58402(19) 0.0811(2)
C53_17 C 0.6382(3) 0.5744(3) 0.0825(2)
C54_17 C 0.6327(2) 0.5531(3) 0.0703(3)
C55_17 C 0.6503(4) 0.54142(18) 0.0566(2)
H44_17 H 0.646505 0.526859 0.048286
C56_17 C 0.6061(3) 0.6061(3) 0.0861(4)
H45_17 H 0.610057 0.610057 0.069845
C57_17 C 0.6193(3) 0.5874(3) 0.0974(3)
C58_17 C 0.6134(3) 0.5837(4) 0.1218(3)
H46_17 H 0.623223 0.572693 0.130607
C59_17 C 0.5947(4) 0.5947(4) 0.1343(6)
H47_17 H 0.589761 0.589759 0.150058
C60_17 C 0.6671(3) 0.6073(3) 0.0950(3)
H48_17 H 0.652465 0.612761 0.103472
H49_17 H 0.679948 0.604146 0.106791
H50_17 H 0.672372 0.619828 0.083614
C61_17 C 0.6074(2) 0.5407(3) 0.0704(3)
H51_17 H 0.596173 0.550176 0.080396
H52_17 H 0.601135 0.539895 0.053746
H53_17 H 0.608798 0.524304 0.076957
O15_17 O 0.5460(2) 0.71576(19) 0.04633(19)
O16_12 O 0.52563(17) 0.68551(18) 0.02525(18)
C62_17 C 0.5404(3) 0.6942(2) 0.0406(3)
C63_17 C 0.5511(3) 0.6735(3) 0.0552(2)
C64_17 C 0.5724(3) 0.6791(2) 0.0674(3)
H54_17 H 0.578944 0.694970 0.066444
C65_17 C 0.58402(19) 0.6615(3) 0.0811(2)
C66_17 C 0.5744(3) 0.6382(3) 0.0825(2)
C67_17 C 0.5531(3) 0.6327(2) 0.0703(3)
C68_17 C 0.54142(18) 0.6503(4) 0.0566(2)
H55_17 H 0.526859 0.646505 0.048286
C69_17 C 0.5874(3) 0.6193(3) 0.0974(3)
C70_17 C 0.5837(4) 0.6134(3) 0.1218(3)
H56_17 H 0.572693 0.623223 0.130607
C71_17 C 0.6073(3) 0.6671(3) 0.0950(3)
H57_17 H 0.612761 0.652465 0.103472
H58_17 H 0.604146 0.679948 0.106791
H59_17 H 0.619828 0.672372 0.083614
C72_17 C 0.5407(3) 0.6074(2) 0.0704(3)
H60_17 H 0.550176 0.596173 0.080396
H61_17 H 0.539895 0.601135 0.053746
H62_17 H 0.524304 0.608798 0.076957
Zr9_13 Zr 0.500000 0.70493(5) 0.000000
Zr10_11 Zr 0.500000 0.29507(5) 0.000000
O24_10 O 0.68551(18) 0.47437(17) 0.02525(18)
Zr2_20 Zr 0.70493(5) 0.500000 1.000000
H1_29 H 0.716752 0.500000 0.951638
O4_17 O 0.68551(18) 0.47437(17) 0.97475(18)
C1_17 C 0.6942(2) 0.4596(3) 0.9594(3)
C2_17 C 0.6735(3) 0.4489(3) 0.9448(2)
C3_17 C 0.6791(2) 0.4276(3) 0.9326(3)
H2_17 H 0.694970 0.421056 0.933556
C4_17 C 0.6615(3) 0.41598(19) 0.9189(2)
C5_17 C 0.6382(3) 0.4256(3) 0.9175(2)
C6_17 C 0.6327(2) 0.4469(3) 0.9297(3)
C7_17 C 0.6503(4) 0.45858(18) 0.9434(2)
H3_17 H 0.646505 0.473141 0.951714
C8_17 C 0.6061(3) 0.3939(3) 0.9139(4)
H4_17 H 0.610057 0.389943 0.930155
C9_17 C 0.6193(3) 0.4126(3) 0.9026(3)
C10_17 C 0.6134(3) 0.4163(4) 0.8782(3)
H5_17 H 0.623223 0.427307 0.869393
C11_17 C 0.5947(4) 0.4053(4) 0.8657(6)
H6_17 H 0.589761 0.410241 0.849942
C12_17 C 0.6671(3) 0.3927(3) 0.9050(3)
H7_17 H 0.652465 0.387239 0.896528
H8_17 H 0.679948 0.395854 0.893209
H9_17 H 0.672372 0.380172 0.916386
C13_17 C 0.6074(2) 0.4593(3) 0.9296(3)
H10_17 H 0.596173 0.449824 0.919604
H11_17 H 0.601135 0.460105 0.946254
H12_17 H 0.608798 0.475696 0.923043
C14_22 C 0.7440(5) 0.4217(4) 1.000000
C15_22 C 0.7363(4) 0.3956(4) 1.000000
C16_17 C 0.7306(2) 0.3836(3) 0.9793(3)
H13_17 H 0.732600 0.391677 0.964244
C17_17 C 0.7222(3) 0.3602(3) 0.9791(2)
C18_22 C 0.7189(4) 0.3470(3) 1.000000
C19_22 C 0.6858(3) 0.3142(3) 1.000000
H14_22 H 0.673641 0.326357 1.000000
C20_22 C 0.7097(3) 0.3217(3) 1.000000
C21_22 C 0.7279(3) 0.3045(3) 1.000000
H15_22 H 0.744575 0.308707 1.000000
C22_22 C 0.7199(3) 0.2801(3) 1.000000
H16_22 H 0.732084 0.267916 1.000000
C23_17 C 0.7163(4) 0.3466(3) 0.9557(3)
H17_17 H 0.710566 0.330301 0.959652
H18_17 H 0.703678 0.355363 0.946807
H19_17 H 0.730925 0.345517 0.945704
O6_17 O 0.5460(2) 0.28424(19) 0.95367(19)
O7_10 O 0.52563(17) 0.31449(18) 0.97475(18)
C24_17 C 0.5404(3) 0.3058(2) 0.9594(3)
C25_17 C 0.5511(3) 0.3265(3) 0.9448(2)
C26_17 C 0.5724(3) 0.3209(2) 0.9326(3)
H20_17 H 0.578944 0.305030 0.933556
C27_17 C 0.58402(19) 0.3385(3) 0.9189(2)
C28_17 C 0.5744(3) 0.3618(3) 0.9175(2)
C29_17 C 0.5531(3) 0.3673(2) 0.9297(3)
C30_17 C 0.54142(18) 0.3497(4) 0.9434(2)
H21_17 H 0.526859 0.353495 0.951714
C31_17 C 0.5874(3) 0.3807(3) 0.9026(3)
C32_17 C 0.5837(4) 0.3866(3) 0.8782(3)
H22_17 H 0.572693 0.376777 0.869393
C33_17 C 0.6073(3) 0.3329(3) 0.9050(3)
H23_17 H 0.612761 0.347535 0.896528
H24_17 H 0.604146 0.320052 0.893209
H25_17 H 0.619828 0.327628 0.916386
C34_17 C 0.5407(3) 0.3926(2) 0.9296(3)
H26_17 H 0.550176 0.403827 0.919604
H27_17 H 0.539895 0.398865 0.946254
H28_17 H 0.524304 0.391202 0.923043
C35_22 C 0.5783(4) 0.2560(5) 1.000000
C36_22 C 0.6044(4) 0.2637(4) 1.000000
C39_22 C 0.6530(3) 0.2811(4) 1.000000
C40_22 C 0.6783(3) 0.2903(3) 1.000000
C41_22 C 0.6955(3) 0.2721(3) 1.000000
H30_22 H 0.691293 0.255425 1.000000
O10_17 O 0.57055(17) 0.25288(17) 0.97890(17)
C46_17 C 0.6164(3) 0.2694(2) 0.9793(3)
H38_17 H 0.608323 0.267400 0.964244
C47_17 C 0.6398(3) 0.2778(3) 0.9791(2)
C48_17 C 0.6534(3) 0.2837(4) 0.9557(3)
H39_17 H 0.669699 0.289434 0.959652
H40_17 H 0.644637 0.296322 0.946807
H41_17 H 0.654483 0.269075 0.945704
Zr9_14 Zr 0.500000 0.70493(5) 1.000000
Zr10_12 Zr 0.500000 0.29507(5) 1.000000
O23_12 O 0.68551(18) 0.52563(17) 0.97475(18)
C14_23 C 0.7440(5) 0.000000 0.4217(4)
C15_23 C 0.7363(4) -0.000000 0.3956(4)
C16_18 C 0.7306(2) 0.0207(3) 0.3836(3)
H13_18 H 0.732600 0.035756 0.391677
C17_18 C 0.7222(3) 0.0209(2) 0.3602(3)
C18_23 C 0.7189(4) 0.000000 0.3470(3)
C19_23 C 0.6858(3) 0.000000 0.3142(3)
H14_23 H 0.673641 0.000000 0.326357
C20_23 C 0.7097(3) 0.000000 0.3217(3)
C21_23 C 0.7279(3) -0.000000 0.3045(3)
H15_23 H 0.744575 0.000000 0.308707
C22_23 C 0.7199(3) 0.000000 0.2801(3)
H16_23 H 0.732084 0.000000 0.267916
C23_18 C 0.7163(4) 0.0443(3) 0.3466(3)
H17_18 H 0.710566 0.040348 0.330301
H18_18 H 0.703678 0.053193 0.355363
H19_18 H 0.730925 0.054296 0.345517
C35_23 C 0.5783(4) 0.000000 0.2560(5)
C36_23 C 0.6044(4) 0.000000 0.2637(4)
C39_23 C 0.6530(3) 0.000000 0.2811(4)
C40_23 C 0.6783(3) 0.000000 0.2903(3)
C41_23 C 0.6955(3) 0.000000 0.2721(3)
H30_23 H 0.691293 0.000000 0.255425
O10_18 O 0.57055(17) 0.02110(17) 0.25288(17)
C46_18 C 0.6164(3) 0.0207(3) 0.2694(2)
H38_18 H 0.608323 0.035756 0.267400
C47_18 C 0.6398(3) 0.0209(2) 0.2778(3)
C48_18 C 0.6534(3) 0.0443(3) 0.2837(4)
H39_18 H 0.669699 0.040348 0.289434
H40_18 H 0.644637 0.053193 0.296322
H41_18 H 0.654483 0.054296 0.269075
C14_24 C 0.7440(5) 1.000000 0.4217(4)
C15_24 C 0.7363(4) 1.000000 0.3956(4)
C18_24 C 0.7189(4) 1.000000 0.3470(3)
C19_24 C 0.6858(3) 1.000000 0.3142(3)
H14_24 H 0.673641 1.000000 0.326357
C20_24 C 0.7097(3) 1.000000 0.3217(3)
C21_24 C 0.7279(3) 1.000000 0.3045(3)
H15_24 H 0.744575 1.000000 0.308707
C22_24 C 0.7199(3) 1.000000 0.2801(3)
H16_24 H 0.732084 1.000000 0.267916
C35_24 C 0.5783(4) 1.000000 0.2560(5)
C36_24 C 0.6044(4) 1.000000 0.2637(4)
C37_18 C 0.6164(3) 0.9793(3) 0.2694(2)
H29_18 H 0.608323 0.964244 0.267400
C38_18 C 0.6398(3) 0.9791(2) 0.2778(3)
C39_24 C 0.6530(3) 1.000000 0.2811(4)
C40_24 C 0.6783(3) 1.000000 0.2903(3)
C41_24 C 0.6955(3) 1.000000 0.2721(3)
H30_24 H 0.691293 1.000000 0.255425
C42_18 C 0.6534(3) 0.9557(3) 0.2837(4)
H31_18 H 0.669699 0.959652 0.289434
H32_18 H 0.644637 0.946807 0.296322
H33_18 H 0.654483 0.945704 0.269075
O9_18 O 0.74712(17) 0.97890(17) 0.42945(17)
C43_18 C 0.7306(2) 0.9793(3) 0.3836(3)
H34_18 H 0.732600 0.964244 0.391677
C44_18 C 0.7222(3) 0.9791(2) 0.3602(3)
C45_18 C 0.7163(4) 0.9557(3) 0.3466(3)
H35_18 H 0.710566 0.959652 0.330301
H36_18 H 0.703678 0.946807 0.355363
H37_18 H 0.730925 0.945704 0.345517
C14_25 C 0.7440(5) 0.5783(4) 0.000000
C15_25 C 0.7363(4) 0.6044(4) 0.000000
C16_19 C 0.7306(2) 0.6164(3) 0.0207(3)
H13_19 H 0.732600 0.608323 0.035756
C17_19 C 0.7222(3) 0.6398(3) 0.0209(2)
C18_25 C 0.7189(4) 0.6530(3) 0.000000
C19_25 C 0.6858(3) 0.6858(3) 0.000000
H14_25 H 0.673641 0.673643 0.000000
C20_25 C 0.7097(3) 0.6783(3) 0.000000
C21_25 C 0.7279(3) 0.6955(3) 0.000000
H15_25 H 0.744575 0.691293 0.000000
C22_25 C 0.7199(3) 0.7199(3) 0.000000
H16_25 H 0.732084 0.732084 0.000000
C23_19 C 0.7163(4) 0.6534(3) 0.0443(3)
H17_19 H 0.710566 0.669699 0.040348
H18_19 H 0.703678 0.644637 0.053193
H19_19 H 0.730925 0.654483 0.054296
C35_25 C 0.5783(4) 0.7440(5) 0.000000
C36_25 C 0.6044(4) 0.7363(4) 0.000000
C39_25 C 0.6530(3) 0.7189(4) 0.000000
C40_25 C 0.6783(3) 0.7097(3) 0.000000
C41_25 C 0.6955(3) 0.7279(3) 0.000000
H30_25 H 0.691293 0.744575 0.000000
O10_19 O 0.57055(17) 0.74712(17) 0.02110(17)
C46_19 C 0.6164(3) 0.7306(2) 0.0207(3)
H38_19 H 0.608323 0.732600 0.035756
C47_19 C 0.6398(3) 0.7222(3) 0.0209(2)
C48_19 C 0.6534(3) 0.7163(4) 0.0443(3)
H39_19 H 0.669699 0.710566 0.040348
H40_19 H 0.644637 0.703678 0.053193
H41_19 H 0.654483 0.730925 0.054296
C14_26 C 0.7440(5) 0.5783(4) 1.000000
C15_26 C 0.7363(4) 0.6044(4) 1.000000
C18_26 C 0.7189(4) 0.6530(3) 1.000000
C19_26 C 0.6858(3) 0.6858(3) 1.000000
H14_26 H 0.673641 0.673643 1.000000
C20_26 C 0.7097(3) 0.6783(3) 1.000000
C21_26 C 0.7279(3) 0.6955(3) 1.000000
H15_26 H 0.744575 0.691293 1.000000
C22_26 C 0.7199(3) 0.7199(3) 1.000000
H16_26 H 0.732084 0.732084 1.000000
C35_26 C 0.5783(4) 0.7440(5) 1.000000
C36_26 C 0.6044(4) 0.7363(4) 1.000000
C37_19 C 0.6164(3) 0.7306(2) 0.9793(3)
H29_19 H 0.608323 0.732600 0.964244
C38_19 C 0.6398(3) 0.7222(3) 0.9791(2)
C39_26 C 0.6530(3) 0.7189(4) 1.000000
C40_26 C 0.6783(3) 0.7097(3) 1.000000
C41_26 C 0.6955(3) 0.7279(3) 1.000000
H30_26 H 0.691293 0.744575 1.000000
C42_19 C 0.6534(3) 0.7163(4) 0.9557(3)
H31_19 H 0.669699 0.710566 0.959652
H32_19 H 0.644637 0.703678 0.946807
H33_19 H 0.654483 0.730925 0.945704
O9_19 O 0.74712(17) 0.57055(17) 0.97890(17)
C43_19 C 0.7306(2) 0.6164(3) 0.9793(3)
H34_19 H 0.732600 0.608323 0.964244
C44_19 C 0.7222(3) 0.6398(3) 0.9791(2)
C45_19 C 0.7163(4) 0.6534(3) 0.9557(3)
H35_19 H 0.710566 0.669699 0.959652
H36_19 H 0.703678 0.644637 0.946807
H37_19 H 0.730925 0.654483 0.945704
H42_30 H 0.500000 0.048362 0.283248
O14_18 O 0.47437(17) 0.02525(18) 0.31449(18)
C49_18 C 0.4596(3) 0.0406(3) 0.3058(2)
C50_18 C 0.4489(3) 0.0552(2) 0.3265(3)
C51_18 C 0.4276(3) 0.0674(3) 0.3209(2)
H43_18 H 0.421056 0.066444 0.305030
C52_18 C 0.41598(19) 0.0811(2) 0.3385(3)
C53_18 C 0.4256(3) 0.0825(2) 0.3618(3)
C54_18 C 0.4469(3) 0.0703(3) 0.3673(2)
C55_18 C 0.45858(18) 0.0566(2) 0.3497(4)
H44_18 H 0.473141 0.048286 0.353495
C56_18 C 0.3939(3) 0.0861(4) 0.3939(3)
H45_18 H 0.389943 0.069845 0.389943
C57_18 C 0.4126(3) 0.0974(3) 0.3807(3)
C58_18 C 0.4163(4) 0.1218(3) 0.3866(3)
H46_18 H 0.427307 0.130607 0.376777
C59_18 C 0.4053(4) 0.1343(6) 0.4053(4)
H47_18 H 0.410241 0.150058 0.410239
C60_18 C 0.3927(3) 0.0950(3) 0.3329(3)
H48_18 H 0.387239 0.103472 0.347535
H49_18 H 0.395854 0.106791 0.320052
H50_18 H 0.380172 0.083614 0.327628
C61_18 C 0.4593(3) 0.0704(3) 0.3926(2)
H51_18 H 0.449824 0.080396 0.403827
H52_18 H 0.460105 0.053746 0.398865
H53_18 H 0.475696 0.076957 0.391202
O15_18 O 0.28424(19) 0.04633(19) 0.4540(2)
C62_18 C 0.3058(2) 0.0406(3) 0.4596(3)
C63_18 C 0.3265(3) 0.0552(2) 0.4489(3)
C64_18 C 0.3209(2) 0.0674(3) 0.4276(3)
H54_18 H 0.305030 0.066444 0.421056
C65_18 C 0.3385(3) 0.0811(2) 0.41598(19)
C66_18 C 0.3618(3) 0.0825(2) 0.4256(3)
C67_18 C 0.3673(2) 0.0703(3) 0.4469(3)
C68_18 C 0.3497(4) 0.0566(2) 0.45858(18)
H55_18 H 0.353495 0.048286 0.473141
C69_18 C 0.3807(3) 0.0974(3) 0.4126(3)
C70_18 C 0.3866(3) 0.1218(3) 0.4163(4)
H56_18 H 0.376777 0.130607 0.427307
C71_18 C 0.3329(3) 0.0950(3) 0.3927(3)
H57_18 H 0.347535 0.103472 0.387239
H58_18 H 0.320052 0.106791 0.395854
H59_18 H 0.327628 0.083614 0.380172
C72_18 C 0.3926(2) 0.0704(3) 0.4593(3)
H60_18 H 0.403827 0.080396 0.449824
H61_18 H 0.398865 0.053746 0.460105
H62_18 H 0.391202 0.076957 0.475696
H1_30 H 0.500000 0.951638 0.283248
O4_18 O 0.52563(17) 0.97475(18) 0.31449(18)
C1_18 C 0.5404(3) 0.9594(3) 0.3058(2)
C2_18 C 0.5511(3) 0.9448(2) 0.3265(3)
C3_18 C 0.5724(3) 0.9326(3) 0.3209(2)
H2_18 H 0.578944 0.933556 0.305030
C4_18 C 0.58402(19) 0.9189(2) 0.3385(3)
C5_18 C 0.5744(3) 0.9175(2) 0.3618(3)
C6_18 C 0.5531(3) 0.9297(3) 0.3673(2)
C7_18 C 0.54142(18) 0.9434(2) 0.3497(4)
H3_18 H 0.526859 0.951714 0.353495
C8_18 C 0.6061(3) 0.9139(4) 0.3939(3)
H4_18 H 0.610057 0.930155 0.389943
C9_18 C 0.5874(3) 0.9026(3) 0.3807(3)
C10_18 C 0.5837(4) 0.8782(3) 0.3866(3)
H5_18 H 0.572693 0.869393 0.376777
C11_18 C 0.5947(4) 0.8657(6) 0.4053(4)
H6_18 H 0.589759 0.849942 0.410239
C12_18 C 0.6073(3) 0.9050(3) 0.3329(3)
H7_18 H 0.612761 0.896528 0.347535
H8_18 H 0.604146 0.893209 0.320052
H9_18 H 0.619828 0.916386 0.327628
C13_18 C 0.5407(3) 0.9296(3) 0.3926(2)
H10_18 H 0.550176 0.919604 0.403827
H11_18 H 0.539895 0.946254 0.398865
H12_18 H 0.524304 0.923043 0.391202
O6_18 O 0.71576(19) 0.95367(19) 0.4540(2)
C24_18 C 0.6942(2) 0.9594(3) 0.4596(3)
C25_18 C 0.6735(3) 0.9448(2) 0.4489(3)
C26_18 C 0.6791(2) 0.9326(3) 0.4276(3)
H20_18 H 0.694970 0.933556 0.421056
C27_18 C 0.6615(3) 0.9189(2) 0.41598(19)
C28_18 C 0.6382(3) 0.9175(2) 0.4256(3)
C29_18 C 0.6327(2) 0.9297(3) 0.4469(3)
C30_18 C 0.6503(4) 0.9434(2) 0.45858(18)
H21_18 H 0.646505 0.951714 0.473141
C31_18 C 0.6193(3) 0.9026(3) 0.4126(3)
C32_18 C 0.6134(3) 0.8782(3) 0.4163(4)
H22_18 H 0.623223 0.869393 0.427307
C33_18 C 0.6671(3) 0.9050(3) 0.3927(3)
H23_18 H 0.652465 0.896528 0.387239
H24_18 H 0.679948 0.893209 0.395854
H25_18 H 0.672372 0.916386 0.380172
C34_18 C 0.6074(2) 0.9296(3) 0.4593(3)
H26_18 H 0.596173 0.919604 0.449824
H27_18 H 0.601135 0.946254 0.460105
H28_18 H 0.608798 0.923043 0.475696
C14_27 C 0.2560(5) 0.000000 0.4217(4)
C15_27 C 0.2637(4) -0.000000 0.3956(4)
C18_27 C 0.2811(4) 0.000000 0.3470(3)
C19_27 C 0.3142(3) 0.000000 0.3142(3)
H14_27 H 0.326359 0.000000 0.326357
C20_27 C 0.2903(3) 0.000000 0.3217(3)
C21_27 C 0.2721(3) -0.000000 0.3045(3)
H15_27 H 0.255425 0.000000 0.308707
C22_27 C 0.2801(3) 0.000000 0.2801(3)
H16_27 H 0.267916 0.000000 0.267916
C35_27 C 0.4217(4) 0.000000 0.2560(5)
C36_27 C 0.3956(4) 0.000000 0.2637(4)
C37_20 C 0.3836(3) 0.0207(3) 0.2694(2)
H29_20 H 0.391677 0.035756 0.267400
C38_20 C 0.3602(3) 0.0209(2) 0.2778(3)
C39_27 C 0.3470(3) 0.000000 0.2811(4)
C40_27 C 0.3217(3) 0.000000 0.2903(3)
C41_27 C 0.3045(3) 0.000000 0.2721(3)
H30_27 H 0.308707 0.000000 0.255425
C42_20 C 0.3466(3) 0.0443(3) 0.2837(4)
H31_20 H 0.330301 0.040348 0.289434
H32_20 H 0.355363 0.053193 0.296322
H33_20 H 0.345517 0.054296 0.269075
O9_20 O 0.25288(17) 0.02110(17) 0.42945(17)
C43_20 C 0.2694(2) 0.0207(3) 0.3836(3)
H34_20 H 0.267400 0.035756 0.391677
C44_20 C 0.2778(3) 0.0209(2) 0.3602(3)
C45_20 C 0.2837(4) 0.0443(3) 0.3466(3)
H35_20 H 0.289434 0.040348 0.330301
H36_20 H 0.296322 0.053193 0.355363
H37_20 H 0.269075 0.054296 0.345517
C14_28 C 0.2560(5) 1.000000 0.4217(4)
C15_28 C 0.2637(4) 1.000000 0.3956(4)
C16_20 C 0.2694(2) 0.9793(3) 0.3836(3)
H13_20 H 0.267400 0.964244 0.391677
C17_20 C 0.2778(3) 0.9791(2) 0.3602(3)
C18_28 C 0.2811(4) 1.000000 0.3470(3)
C19_28 C 0.3142(3) 1.000000 0.3142(3)
H14_28 H 0.326359 1.000000 0.326357
C20_28 C 0.2903(3) 1.000000 0.3217(3)
C21_28 C 0.2721(3) 1.000000 0.3045(3)
H15_28 H 0.255425 1.000000 0.308707
C22_28 C 0.2801(3) 1.000000 0.2801(3)
H16_28 H 0.267916 1.000000 0.267916
C23_20 C 0.2837(4) 0.9557(3) 0.3466(3)
H17_20 H 0.289434 0.959652 0.330301
H18_20 H 0.296322 0.946807 0.355363
H19_20 H 0.269075 0.945704 0.345517
C35_28 C 0.4217(4) 1.000000 0.2560(5)
C36_28 C 0.3956(4) 1.000000 0.2637(4)
C39_28 C 0.3470(3) 1.000000 0.2811(4)
C40_28 C 0.3217(3) 1.000000 0.2903(3)
C41_28 C 0.3045(3) 1.000000 0.2721(3)
H30_28 H 0.308707 1.000000 0.255425
O10_20 O 0.42945(17) 0.97890(17) 0.25288(17)
C46_20 C 0.3836(3) 0.9793(3) 0.2694(2)
H38_20 H 0.391677 0.964244 0.267400
C47_20 C 0.3602(3) 0.9791(2) 0.2778(3)
C48_20 C 0.3466(3) 0.9557(3) 0.2837(4)
H39_20 H 0.330301 0.959652 0.289434
H40_20 H 0.355363 0.946807 0.296322
H41_20 H 0.345517 0.945704 0.269075
H42_31 H 0.500000 0.048362 0.716752
O14_19 O 0.52563(17) 0.02525(18) 0.68551(18)
C49_19 C 0.5404(3) 0.0406(3) 0.6942(2)
C50_19 C 0.5511(3) 0.0552(2) 0.6735(3)
C51_19 C 0.5724(3) 0.0674(3) 0.6791(2)
H43_19 H 0.578944 0.066444 0.694970
C52_19 C 0.58402(19) 0.0811(2) 0.6615(3)
C53_19 C 0.5744(3) 0.0825(2) 0.6382(3)
C54_19 C 0.5531(3) 0.0703(3) 0.6327(2)
C55_19 C 0.54142(18) 0.0566(2) 0.6503(4)
H44_19 H 0.526859 0.048286 0.646505
C56_19 C 0.6061(3) 0.0861(4) 0.6061(3)
H45_19 H 0.610057 0.069845 0.610057
C57_19 C 0.5874(3) 0.0974(3) 0.6193(3)
C58_19 C 0.5837(4) 0.1218(3) 0.6134(3)
H46_19 H 0.572693 0.130607 0.623223
C59_19 C 0.5947(4) 0.1343(6) 0.5947(4)
H47_19 H 0.589759 0.150058 0.589761
C60_19 C 0.6073(3) 0.0950(3) 0.6671(3)
H48_19 H 0.612761 0.103472 0.652465
H49_19 H 0.604146 0.106791 0.679948
H50_19 H 0.619828 0.083614 0.672372
C61_19 C 0.5407(3) 0.0704(3) 0.6074(2)
H51_19 H 0.550176 0.080396 0.596173
H52_19 H 0.539895 0.053746 0.601135
H53_19 H 0.524304 0.076957 0.608798
O15_19 O 0.71576(19) 0.04633(19) 0.5460(2)
C62_19 C 0.6942(2) 0.0406(3) 0.5404(3)
C63_19 C 0.6735(3) 0.0552(2) 0.5511(3)
C64_19 C 0.6791(2) 0.0674(3) 0.5724(3)
H54_19 H 0.694970 0.066444 0.578944
C65_19 C 0.6615(3) 0.0811(2) 0.58402(19)
C66_19 C 0.6382(3) 0.0825(2) 0.5744(3)
C67_19 C 0.6327(2) 0.0703(3) 0.5531(3)
C68_19 C 0.6503(4) 0.0566(2) 0.54142(18)
H55_19 H 0.646505 0.048286 0.526859
C69_19 C 0.6193(3) 0.0974(3) 0.5874(3)
C70_19 C 0.6134(3) 0.1218(3) 0.5837(4)
H56_19 H 0.623223 0.130607 0.572693
C71_19 C 0.6671(3) 0.0950(3) 0.6073(3)
H57_19 H 0.652465 0.103472 0.612761
H58_19 H 0.679948 0.106791 0.604146
H59_19 H 0.672372 0.083614 0.619828
C72_19 C 0.6074(2) 0.0704(3) 0.5407(3)
H60_19 H 0.596173 0.080396 0.550176
H61_19 H 0.601135 0.053746 0.539895
H62_19 H 0.608798 0.076957 0.524304
H1_31 H 0.500000 0.951638 0.716752
O4_19 O 0.47437(17) 0.97475(18) 0.68551(18)
C1_19 C 0.4596(3) 0.9594(3) 0.6942(2)
C2_19 C 0.4489(3) 0.9448(2) 0.6735(3)
C3_19 C 0.4276(3) 0.9326(3) 0.6791(2)
H2_19 H 0.421056 0.933556 0.694970
C4_19 C 0.41598(19) 0.9189(2) 0.6615(3)
C5_19 C 0.4256(3) 0.9175(2) 0.6382(3)
C6_19 C 0.4469(3) 0.9297(3) 0.6327(2)
C7_19 C 0.45858(18) 0.9434(2) 0.6503(4)
H3_19 H 0.473141 0.951714 0.646505
C8_19 C 0.3939(3) 0.9139(4) 0.6061(3)
H4_19 H 0.389943 0.930155 0.610057
C9_19 C 0.4126(3) 0.9026(3) 0.6193(3)
C10_19 C 0.4163(4) 0.8782(3) 0.6134(3)
H5_19 H 0.427307 0.869393 0.623223
C11_19 C 0.4053(4) 0.8657(6) 0.5947(4)
H6_19 H 0.410241 0.849942 0.589761
C12_19 C 0.3927(3) 0.9050(3) 0.6671(3)
H7_19 H 0.387239 0.896528 0.652465
H8_19 H 0.395854 0.893209 0.679948
H9_19 H 0.380172 0.916386 0.672372
C13_19 C 0.4593(3) 0.9296(3) 0.6074(2)
H10_19 H 0.449824 0.919604 0.596173
H11_19 H 0.460105 0.946254 0.601135
H12_19 H 0.475696 0.923043 0.608798
O6_19 O 0.28424(19) 0.95367(19) 0.5460(2)
C24_19 C 0.3058(2) 0.9594(3) 0.5404(3)
C25_19 C 0.3265(3) 0.9448(2) 0.5511(3)
C26_19 C 0.3209(2) 0.9326(3) 0.5724(3)
H20_19 H 0.305030 0.933556 0.578944
C27_19 C 0.3385(3) 0.9189(2) 0.58402(19)
C28_19 C 0.3618(3) 0.9175(2) 0.5744(3)
C29_19 C 0.3673(2) 0.9297(3) 0.5531(3)
C30_19 C 0.3497(4) 0.9434(2) 0.54142(18)
H21_19 H 0.353495 0.951714 0.526859
C31_19 C 0.3807(3) 0.9026(3) 0.5874(3)
C32_19 C 0.3866(3) 0.8782(3) 0.5837(4)
H22_19 H 0.376777 0.869393 0.572693
C33_19 C 0.3329(3) 0.9050(3) 0.6073(3)
H23_19 H 0.347535 0.896528 0.612761
H24_19 H 0.320052 0.893209 0.604146
H25_19 H 0.327628 0.916386 0.619828
C34_19 C 0.3926(2) 0.9296(3) 0.5407(3)
H26_19 H 0.403827 0.919604 0.550176
H27_19 H 0.398865 0.946254 0.539895
H28_19 H 0.391202 0.923043 0.524304
H42_32 H 0.500000 0.716752 0.048362
O14_20 O 0.47437(17) 0.68551(18) 0.02525(18)
C49_20 C 0.4596(3) 0.6942(2) 0.0406(3)
C50_20 C 0.4489(3) 0.6735(3) 0.0552(2)
C51_20 C 0.4276(3) 0.6791(2) 0.0674(3)
H43_20 H 0.421056 0.694970 0.066444
C52_20 C 0.41598(19) 0.6615(3) 0.0811(2)
C53_20 C 0.4256(3) 0.6382(3) 0.0825(2)
C54_20 C 0.4469(3) 0.6327(2) 0.0703(3)
C55_20 C 0.45858(18) 0.6503(4) 0.0566(2)
H44_20 H 0.473141 0.646505 0.048286
C56_20 C 0.3939(3) 0.6061(3) 0.0861(4)
H45_20 H 0.389943 0.610057 0.069845
C57_20 C 0.4126(3) 0.6193(3) 0.0974(3)
C58_20 C 0.4163(4) 0.6134(3) 0.1218(3)
H46_20 H 0.427307 0.623223 0.130607
C59_20 C 0.4053(4) 0.5947(4) 0.1343(6)
H47_20 H 0.410241 0.589761 0.150058
C60_20 C 0.3927(3) 0.6671(3) 0.0950(3)
H48_20 H 0.387239 0.652465 0.103472
H49_20 H 0.395854 0.679948 0.106791
H50_20 H 0.380172 0.672372 0.083614
C61_20 C 0.4593(3) 0.6074(2) 0.0704(3)
H51_20 H 0.449824 0.596173 0.080396
H52_20 H 0.460105 0.601135 0.053746
H53_20 H 0.475696 0.608798 0.076957
O15_20 O 0.28424(19) 0.5460(2) 0.04633(19)
O16_13 O 0.31449(18) 0.52563(17) 0.02525(18)
C62_20 C 0.3058(2) 0.5404(3) 0.0406(3)
C63_20 C 0.3265(3) 0.5511(3) 0.0552(2)
C64_20 C 0.3209(2) 0.5724(3) 0.0674(3)
H54_20 H 0.305030 0.578944 0.066444
C65_20 C 0.3385(3) 0.58402(19) 0.0811(2)
C66_20 C 0.3618(3) 0.5744(3) 0.0825(2)
C67_20 C 0.3673(2) 0.5531(3) 0.0703(3)
C68_20 C 0.3497(4) 0.54142(18) 0.0566(2)
H55_20 H 0.353495 0.526859 0.048286
C69_20 C 0.3807(3) 0.5874(3) 0.0974(3)
C70_20 C 0.3866(3) 0.5837(4) 0.1218(3)
H56_20 H 0.376777 0.572693 0.130607
C71_20 C 0.3329(3) 0.6073(3) 0.0950(3)
H57_20 H 0.347535 0.612761 0.103472
H58_20 H 0.320052 0.604146 0.106791
H59_20 H 0.327628 0.619828 0.083614
C72_20 C 0.3926(2) 0.5407(3) 0.0704(3)
H60_20 H 0.403827 0.550176 0.080396
H61_20 H 0.398865 0.539895 0.053746
H62_20 H 0.391202 0.524304 0.076957
Zr9_15 Zr 0.29507(5) 0.500000 0.000000
H1_32 H 0.500000 0.716752 0.951638
O4_20 O 0.52563(17) 0.68551(18) 0.97475(18)
C1_20 C 0.5404(3) 0.6942(2) 0.9594(3)
C2_20 C 0.5511(3) 0.6735(3) 0.9448(2)
C3_20 C 0.5724(3) 0.6791(2) 0.9326(3)
H2_20 H 0.578944 0.694970 0.933556
C4_20 C 0.58402(19) 0.6615(3) 0.9189(2)
C5_20 C 0.5744(3) 0.6382(3) 0.9175(2)
C6_20 C 0.5531(3) 0.6327(2) 0.9297(3)
C7_20 C 0.54142(18) 0.6503(4) 0.9434(2)
H3_20 H 0.526859 0.646505 0.951714
C8_20 C 0.6061(3) 0.6061(3) 0.9139(4)
H4_20 H 0.610057 0.610057 0.930155
C9_20 C 0.5874(3) 0.6193(3) 0.9026(3)
C10_20 C 0.5837(4) 0.6134(3) 0.8782(3)
H5_20 H 0.572693 0.623223 0.869393
C11_20 C 0.5947(4) 0.5947(4) 0.8657(6)
H6_20 H 0.589759 0.589761 0.849942
C12_20 C 0.6073(3) 0.6671(3) 0.9050(3)
H7_20 H 0.612761 0.652465 0.896528
H8_20 H 0.604146 0.679948 0.893209
H9_20 H 0.619828 0.672372 0.916386
C13_20 C 0.5407(3) 0.6074(2) 0.9296(3)
H10_20 H 0.550176 0.596173 0.919604
H11_20 H 0.539895 0.601135 0.946254
H12_20 H 0.524304 0.608798 0.923043
O6_20 O 0.71576(19) 0.5460(2) 0.95367(19)
C24_20 C 0.6942(2) 0.5404(3) 0.9594(3)
C25_20 C 0.6735(3) 0.5511(3) 0.9448(2)
C26_20 C 0.6791(2) 0.5724(3) 0.9326(3)
H20_20 H 0.694970 0.578944 0.933556
C27_20 C 0.6615(3) 0.58402(19) 0.9189(2)
C28_20 C 0.6382(3) 0.5744(3) 0.9175(2)
C29_20 C 0.6327(2) 0.5531(3) 0.9297(3)
C30_20 C 0.6503(4) 0.54142(18) 0.9434(2)
H21_20 H 0.646505 0.526859 0.951714
C31_20 C 0.6193(3) 0.5874(3) 0.9026(3)
C32_20 C 0.6134(3) 0.5837(4) 0.8782(3)
H22_20 H 0.623223 0.572693 0.869393
C33_20 C 0.6671(3) 0.6073(3) 0.9050(3)
H23_20 H 0.652465 0.612761 0.896528
H24_20 H 0.679948 0.604146 0.893209
H25_20 H 0.672372 0.619828 0.916386
C34_20 C 0.6074(2) 0.5407(3) 0.9296(3)
H26_20 H 0.596173 0.550176 0.919604
H27_20 H 0.601135 0.539895 0.946254
H28_20 H 0.608798 0.524304 0.923043
Zr9_16 Zr 0.29507(5) 0.500000 1.000000
O23_13 O 0.47437(17) 0.68551(18) 0.97475(18)
H42_33 H 0.048362 0.500000 0.716752
O14_21 O 0.02525(18) 0.47437(17) 0.68551(18)
C49_21 C 0.0406(3) 0.4596(3) 0.6942(2)
C50_21 C 0.0552(2) 0.4489(3) 0.6735(3)
C51_21 C 0.0674(3) 0.4276(3) 0.6791(2)
H43_21 H 0.066444 0.421056 0.694970
C52_21 C 0.0811(2) 0.41598(19) 0.6615(3)
C53_21 C 0.0825(2) 0.4256(3) 0.6382(3)
C54_21 C 0.0703(3) 0.4469(3) 0.6327(2)
C55_21 C 0.0566(2) 0.45858(18) 0.6503(4)
H44_21 H 0.048286 0.473141 0.646505
C56_21 C 0.0861(4) 0.3939(3) 0.6061(3)
H45_21 H 0.069845 0.389943 0.610057
C57_21 C 0.0974(3) 0.4126(3) 0.6193(3)
C58_21 C 0.1218(3) 0.4163(4) 0.6134(3)
H46_21 H 0.130607 0.427307 0.623223
C59_21 C 0.1343(6) 0.4053(4) 0.5947(4)
H47_21 H 0.150058 0.410241 0.589761
C60_21 C 0.0950(3) 0.3927(3) 0.6671(3)
H48_21 H 0.103472 0.387239 0.652465
H49_21 H 0.106791 0.395854 0.679948
H50_21 H 0.083614 0.380172 0.672372
C61_21 C 0.0704(3) 0.4593(3) 0.6074(2)
H51_21 H 0.080396 0.449824 0.596173
H52_21 H 0.053746 0.460105 0.601135
H53_21 H 0.076957 0.475696 0.608798
O15_21 O 0.04633(19) 0.28424(19) 0.5460(2)
C62_21 C 0.0406(3) 0.3058(2) 0.5404(3)
C63_21 C 0.0552(2) 0.3265(3) 0.5511(3)
C64_21 C 0.0674(3) 0.3209(2) 0.5724(3)
H54_21 H 0.066444 0.305030 0.578944
C65_21 C 0.0811(2) 0.3385(3) 0.58402(19)
C66_21 C 0.0825(2) 0.3618(3) 0.5744(3)
C67_21 C 0.0703(3) 0.3673(2) 0.5531(3)
C68_21 C 0.0566(2) 0.3497(4) 0.54142(18)
H55_21 H 0.048286 0.353495 0.526859
C69_21 C 0.0974(3) 0.3807(3) 0.5874(3)
C70_21 C 0.1218(3) 0.3866(3) 0.5837(4)
H56_21 H 0.130607 0.376777 0.572693
C71_21 C 0.0950(3) 0.3329(3) 0.6073(3)
H57_21 H 0.103472 0.347535 0.612761
H58_21 H 0.106791 0.320052 0.604146
H59_21 H 0.083614 0.327628 0.619828
C72_21 C 0.0704(3) 0.3926(2) 0.5407(3)
H60_21 H 0.080396 0.403827 0.550176
H61_21 H 0.053746 0.398865 0.539895
H62_21 H 0.076957 0.391202 0.524304
H1_33 H 0.951638 0.500000 0.716752
O4_21 O 0.97475(18) 0.52563(17) 0.68551(18)
C1_21 C 0.9594(3) 0.5404(3) 0.6942(2)
C2_21 C 0.9448(2) 0.5511(3) 0.6735(3)
C3_21 C 0.9326(3) 0.5724(3) 0.6791(2)
H2_21 H 0.933556 0.578944 0.694970
C4_21 C 0.9189(2) 0.58402(19) 0.6615(3)
C5_21 C 0.9175(2) 0.5744(3) 0.6382(3)
C6_21 C 0.9297(3) 0.5531(3) 0.6327(2)
C7_21 C 0.9434(2) 0.54142(18) 0.6503(4)
H3_21 H 0.951714 0.526859 0.646505
C8_21 C 0.9139(4) 0.6061(3) 0.6061(3)
H4_21 H 0.930155 0.610057 0.610057
C9_21 C 0.9026(3) 0.5874(3) 0.6193(3)
C10_21 C 0.8782(3) 0.5837(4) 0.6134(3)
H5_21 H 0.869393 0.572693 0.623223
C11_21 C 0.8657(6) 0.5947(4) 0.5947(4)
H6_21 H 0.849942 0.589759 0.589761
C12_21 C 0.9050(3) 0.6073(3) 0.6671(3)
H7_21 H 0.896528 0.612761 0.652465
H8_21 H 0.893209 0.604146 0.679948
H9_21 H 0.916386 0.619828 0.672372
C13_21 C 0.9296(3) 0.5407(3) 0.6074(2)
H10_21 H 0.919604 0.550176 0.596173
H11_21 H 0.946254 0.539895 0.601135
H12_21 H 0.923043 0.524304 0.608798
O6_21 O 0.95367(19) 0.71576(19) 0.5460(2)
C24_21 C 0.9594(3) 0.6942(2) 0.5404(3)
C25_21 C 0.9448(2) 0.6735(3) 0.5511(3)
C26_21 C 0.9326(3) 0.6791(2) 0.5724(3)
H20_21 H 0.933556 0.694970 0.578944
C27_21 C 0.9189(2) 0.6615(3) 0.58402(19)
C28_21 C 0.9175(2) 0.6382(3) 0.5744(3)
C29_21 C 0.9297(3) 0.6327(2) 0.5531(3)
C30_21 C 0.9434(2) 0.6503(4) 0.54142(18)
H21_21 H 0.951714 0.646505 0.526859
C31_21 C 0.9026(3) 0.6193(3) 0.5874(3)
C32_21 C 0.8782(3) 0.6134(3) 0.5837(4)
H22_21 H 0.869393 0.623223 0.572693
C33_21 C 0.9050(3) 0.6671(3) 0.6073(3)
H23_21 H 0.896528 0.652465 0.612761
H24_21 H 0.893209 0.679948 0.604146
H25_21 H 0.916386 0.672372 0.619828
C34_21 C 0.9296(3) 0.6074(2) 0.5407(3)
H26_21 H 0.919604 0.596173 0.550176
H27_21 H 0.946254 0.601135 0.539895
H28_21 H 0.923043 0.608798 0.524304
H1_34 H 0.500000 0.283248 0.048362
O4_22 O 0.52563(17) 0.31449(18) 0.02525(18)
C1_22 C 0.5404(3) 0.3058(2) 0.0406(3)
C2_22 C 0.5511(3) 0.3265(3) 0.0552(2)
C3_22 C 0.5724(3) 0.3209(2) 0.0674(3)
H2_22 H 0.578944 0.305030 0.066444
C4_22 C 0.58402(19) 0.3385(3) 0.0811(2)
C5_22 C 0.5744(3) 0.3618(3) 0.0825(2)
C6_22 C 0.5531(3) 0.3673(2) 0.0703(3)
C7_22 C 0.54142(18) 0.3497(4) 0.0566(2)
H3_22 H 0.526859 0.353495 0.048286
C8_22 C 0.6061(3) 0.3939(3) 0.0861(4)
H4_22 H 0.610057 0.389943 0.069845
C9_22 C 0.5874(3) 0.3807(3) 0.0974(3)
C10_22 C 0.5837(4) 0.3866(3) 0.1218(3)
H5_22 H 0.572693 0.376777 0.130607
C11_22 C 0.5947(4) 0.4053(4) 0.1343(6)
H6_22 H 0.589759 0.410239 0.150058
C12_22 C 0.6073(3) 0.3329(3) 0.0950(3)
H7_22 H 0.612761 0.347535 0.103472
H8_22 H 0.604146 0.320052 0.106791
H9_22 H 0.619828 0.327628 0.083614
C13_22 C 0.5407(3) 0.3926(2) 0.0704(3)
H10_22 H 0.550176 0.403827 0.080396
H11_22 H 0.539895 0.398865 0.053746
H12_22 H 0.524304 0.391202 0.076957
O6_22 O 0.71576(19) 0.4540(2) 0.04633(19)
C24_22 C 0.6942(2) 0.4596(3) 0.0406(3)
C25_22 C 0.6735(3) 0.4489(3) 0.0552(2)
C26_22 C 0.6791(2) 0.4276(3) 0.0674(3)
H20_22 H 0.694970 0.421056 0.066444
C27_22 C 0.6615(3) 0.41598(19) 0.0811(2)
C28_22 C 0.6382(3) 0.4256(3) 0.0825(2)
C29_22 C 0.6327(2) 0.4469(3) 0.0703(3)
C30_22 C 0.6503(4) 0.45858(18) 0.0566(2)
H21_22 H 0.646505 0.473141 0.048286
C31_22 C 0.6193(3) 0.4126(3) 0.0974(3)
C32_22 C 0.6134(3) 0.4163(4) 0.1218(3)
H22_22 H 0.623223 0.427307 0.130607
C33_22 C 0.6671(3) 0.3927(3) 0.0950(3)
H23_22 H 0.652465 0.387239 0.103472
H24_22 H 0.679948 0.395854 0.106791
H25_22 H 0.672372 0.380172 0.083614
C34_22 C 0.6074(2) 0.4593(3) 0.0704(3)
H26_22 H 0.596173 0.449824 0.080396
H27_22 H 0.601135 0.460105 0.053746
H28_22 H 0.608798 0.475696 0.076957
O23_14 O 0.47437(17) 0.31449(18) 0.02525(18)
H42_34 H 0.500000 0.283248 0.951638
O14_22 O 0.47437(17) 0.31449(18) 0.97475(18)
C49_22 C 0.4596(3) 0.3058(2) 0.9594(3)
C50_22 C 0.4489(3) 0.3265(3) 0.9448(2)
C51_22 C 0.4276(3) 0.3209(2) 0.9326(3)
H43_22 H 0.421056 0.305030 0.933556
C52_22 C 0.41598(19) 0.3385(3) 0.9189(2)
C53_22 C 0.4256(3) 0.3618(3) 0.9175(2)
C54_22 C 0.4469(3) 0.3673(2) 0.9297(3)
C55_22 C 0.45858(18) 0.3497(4) 0.9434(2)
H44_22 H 0.473141 0.353495 0.951714
C56_22 C 0.3939(3) 0.3939(3) 0.9139(4)
H45_22 H 0.389943 0.389943 0.930155
C57_22 C 0.4126(3) 0.3807(3) 0.9026(3)
C58_22 C 0.4163(4) 0.3866(3) 0.8782(3)
H46_22 H 0.427307 0.376777 0.869393
C59_22 C 0.4053(4) 0.4053(4) 0.8657(6)
H47_22 H 0.410241 0.410239 0.849942
C60_22 C 0.3927(3) 0.3329(3) 0.9050(3)
H48_22 H 0.387239 0.347535 0.896528
H49_22 H 0.395854 0.320052 0.893209
H50_22 H 0.380172 0.327628 0.916386
C61_22 C 0.4593(3) 0.3926(2) 0.9296(3)
H51_22 H 0.449824 0.403827 0.919604
H52_22 H 0.460105 0.398865 0.946254
H53_22 H 0.475696 0.391202 0.923043
O15_22 O 0.28424(19) 0.4540(2) 0.95367(19)
O16_14 O 0.31449(18) 0.47437(17) 0.97475(18)
C62_22 C 0.3058(2) 0.4596(3) 0.9594(3)
C63_22 C 0.3265(3) 0.4489(3) 0.9448(2)
C64_22 C 0.3209(2) 0.4276(3) 0.9326(3)
H54_22 H 0.305030 0.421056 0.933556
C65_22 C 0.3385(3) 0.41598(19) 0.9189(2)
C66_22 C 0.3618(3) 0.4256(3) 0.9175(2)
C67_22 C 0.3673(2) 0.4469(3) 0.9297(3)
C68_22 C 0.3497(4) 0.45858(18) 0.9434(2)
H55_22 H 0.353495 0.473141 0.951714
C69_22 C 0.3807(3) 0.4126(3) 0.9026(3)
C70_22 C 0.3866(3) 0.4163(4) 0.8782(3)
H56_22 H 0.376777 0.427307 0.869393
C71_22 C 0.3329(3) 0.3927(3) 0.9050(3)
H57_22 H 0.347535 0.387239 0.896528
H58_22 H 0.320052 0.395854 0.893209
H59_22 H 0.327628 0.380172 0.916386
C72_22 C 0.3926(2) 0.4593(3) 0.9296(3)
H60_22 H 0.403827 0.449824 0.919604
H61_22 H 0.398865 0.460105 0.946254
H62_22 H 0.391202 0.475696 0.923043
H1_35 H 0.048362 0.500000 0.283248
O4_23 O 0.02525(18) 0.52563(17) 0.31449(18)
C1_23 C 0.0406(3) 0.5404(3) 0.3058(2)
C2_23 C 0.0552(2) 0.5511(3) 0.3265(3)
C3_23 C 0.0674(3) 0.5724(3) 0.3209(2)
H2_23 H 0.066444 0.578944 0.305030
C4_23 C 0.0811(2) 0.58402(19) 0.3385(3)
C5_23 C 0.0825(2) 0.5744(3) 0.3618(3)
C6_23 C 0.0703(3) 0.5531(3) 0.3673(2)
C7_23 C 0.0566(2) 0.54142(18) 0.3497(4)
H3_23 H 0.048286 0.526859 0.353495
C8_23 C 0.0861(4) 0.6061(3) 0.3939(3)
H4_23 H 0.069845 0.610057 0.389943
C9_23 C 0.0974(3) 0.5874(3) 0.3807(3)
C10_23 C 0.1218(3) 0.5837(4) 0.3866(3)
H5_23 H 0.130607 0.572693 0.376777
C11_23 C 0.1343(6) 0.5947(4) 0.4053(4)
H6_23 H 0.150058 0.589759 0.410239
C12_23 C 0.0950(3) 0.6073(3) 0.3329(3)
H7_23 H 0.103472 0.612761 0.347535
H8_23 H 0.106791 0.604146 0.320052
H9_23 H 0.083614 0.619828 0.327628
C13_23 C 0.0704(3) 0.5407(3) 0.3926(2)
H10_23 H 0.080396 0.550176 0.403827
H11_23 H 0.053746 0.539895 0.398865
H12_23 H 0.076957 0.524304 0.391202
C14_29 C 0.000000 0.5783(4) 0.2560(5)
C15_29 C 0.000000 0.6044(4) 0.2637(4)
C16_21 C 0.0207(3) 0.6164(3) 0.2694(2)
H13_21 H 0.035756 0.608323 0.267400
C17_21 C 0.0209(2) 0.6398(3) 0.2778(3)
C18_29 C 0.000000 0.6530(3) 0.2811(4)
C19_29 C 0.000000 0.6858(3) 0.3142(3)
H14_29 H 0.000000 0.673643 0.326359
C20_29 C 0.000000 0.6783(3) 0.2903(3)
C21_29 C 0.000000 0.6955(3) 0.2721(3)
H15_29 H 0.000000 0.691293 0.255425
C22_29 C 0.000000 0.7199(3) 0.2801(3)
H16_29 H 0.000000 0.732084 0.267916
C23_21 C 0.0443(3) 0.6534(3) 0.2837(4)
H17_21 H 0.040348 0.669699 0.289434
H18_21 H 0.053193 0.644637 0.296322
H19_21 H 0.054296 0.654483 0.269075
O6_23 O 0.04633(19) 0.71576(19) 0.4540(2)
C24_23 C 0.0406(3) 0.6942(2) 0.4596(3)
C25_23 C 0.0552(2) 0.6735(3) 0.4489(3)
C26_23 C 0.0674(3) 0.6791(2) 0.4276(3)
H20_23 H 0.066444 0.694970 0.421056
C27_23 C 0.0811(2) 0.6615(3) 0.41598(19)
C28_23 C 0.0825(2) 0.6382(3) 0.4256(3)
C29_23 C 0.0703(3) 0.6327(2) 0.4469(3)
C30_23 C 0.0566(2) 0.6503(4) 0.45858(18)
H21_23 H 0.048286 0.646505 0.473141
C31_23 C 0.0974(3) 0.6193(3) 0.4126(3)
C32_23 C 0.1218(3) 0.6134(3) 0.4163(4)
H22_23 H 0.130607 0.623223 0.427307
C33_23 C 0.0950(3) 0.6671(3) 0.3927(3)
H23_23 H 0.103472 0.652465 0.387239
H24_23 H 0.106791 0.679948 0.395854
H25_23 H 0.083614 0.672372 0.380172
C34_23 C 0.0704(3) 0.6074(2) 0.4593(3)
H26_23 H 0.080396 0.596173 0.449824
H27_23 H 0.053746 0.601135 0.460105
H28_23 H 0.076957 0.608798 0.475696
C35_29 C 0.000000 0.7440(5) 0.4217(4)
C36_29 C 0.000000 0.7363(4) 0.3956(4)
C39_29 C 0.000000 0.7189(4) 0.3470(3)
C40_29 C 0.000000 0.7097(3) 0.3217(3)
C41_29 C 0.000000 0.7279(3) 0.3045(3)
H30_29 H 0.000000 0.744575 0.308707
O10_21 O 0.02110(17) 0.74712(17) 0.42945(17)
C46_21 C 0.0207(3) 0.7306(2) 0.3836(3)
H38_21 H 0.035756 0.732600 0.391677
C47_21 C 0.0209(2) 0.7222(3) 0.3602(3)
C48_21 C 0.0443(3) 0.7163(4) 0.3466(3)
H39_21 H 0.040348 0.710566 0.330301
H40_21 H 0.053193 0.703678 0.355363
H41_21 H 0.054296 0.730925 0.345517
C14_30 C 1.000000 0.5783(4) 0.2560(5)
C15_30 C 1.000000 0.6044(4) 0.2637(4)
C18_30 C 1.000000 0.6530(3) 0.2811(4)
C19_30 C 1.000000 0.6858(3) 0.3142(3)
H14_30 H 1.000000 0.673643 0.326359
C20_30 C 1.000000 0.6783(3) 0.2903(3)
C21_30 C 1.000000 0.6955(3) 0.2721(3)
H15_30 H 1.000000 0.691293 0.255425
C22_30 C 1.000000 0.7199(3) 0.2801(3)
H16_30 H 1.000000 0.732084 0.267916
C35_30 C 1.000000 0.7440(5) 0.4217(4)
C36_30 C 1.000000 0.7363(4) 0.3956(4)
C37_21 C 0.9793(3) 0.7306(2) 0.3836(3)
H29_21 H 0.964244 0.732600 0.391677
C38_21 C 0.9791(2) 0.7222(3) 0.3602(3)
C39_30 C 1.000000 0.7189(4) 0.3470(3)
C40_30 C 1.000000 0.7097(3) 0.3217(3)
C41_30 C 1.000000 0.7279(3) 0.3045(3)
H30_30 H 1.000000 0.744575 0.308707
C42_21 C 0.9557(3) 0.7163(4) 0.3466(3)
H31_21 H 0.959652 0.710566 0.330301
H32_21 H 0.946807 0.703678 0.355363
H33_21 H 0.945704 0.730925 0.345517
O9_21 O 0.97890(17) 0.57055(17) 0.25288(17)
C43_21 C 0.9793(3) 0.6164(3) 0.2694(2)
H34_21 H 0.964244 0.608323 0.267400
C44_21 C 0.9791(2) 0.6398(3) 0.2778(3)
C45_21 C 0.9557(3) 0.6534(3) 0.2837(4)
H35_21 H 0.959652 0.669699 0.289434
H36_21 H 0.946807 0.644637 0.296322
H37_21 H 0.945704 0.654483 0.269075
H42_35 H 0.951638 0.500000 0.283248
O14_23 O 0.97475(18) 0.47437(17) 0.31449(18)
C49_23 C 0.9594(3) 0.4596(3) 0.3058(2)
C50_23 C 0.9448(2) 0.4489(3) 0.3265(3)
C51_23 C 0.9326(3) 0.4276(3) 0.3209(2)
H43_23 H 0.933556 0.421056 0.305030
C52_23 C 0.9189(2) 0.41598(19) 0.3385(3)
C53_23 C 0.9175(2) 0.4256(3) 0.3618(3)
C54_23 C 0.9297(3) 0.4469(3) 0.3673(2)
C55_23 C 0.9434(2) 0.45858(18) 0.3497(4)
H44_23 H 0.951714 0.473141 0.353495
C56_23 C 0.9139(4) 0.3939(3) 0.3939(3)
H45_23 H 0.930155 0.389943 0.389943
C57_23 C 0.9026(3) 0.4126(3) 0.3807(3)
C58_23 C 0.8782(3) 0.4163(4) 0.3866(3)
H46_23 H 0.869393 0.427307 0.376777
C59_23 C 0.8657(6) 0.4053(4) 0.4053(4)
H47_23 H 0.849942 0.410241 0.410239
C60_23 C 0.9050(3) 0.3927(3) 0.3329(3)
H48_23 H 0.896528 0.387239 0.347535
H49_23 H 0.893209 0.395854 0.320052
H50_23 H 0.916386 0.380172 0.327628
C61_23 C 0.9296(3) 0.4593(3) 0.3926(2)
H51_23 H 0.919604 0.449824 0.403827
H52_23 H 0.946254 0.460105 0.398865
H53_23 H 0.923043 0.475696 0.391202
O15_23 O 0.95367(19) 0.28424(19) 0.4540(2)
C62_23 C 0.9594(3) 0.3058(2) 0.4596(3)
C63_23 C 0.9448(2) 0.3265(3) 0.4489(3)
C64_23 C 0.9326(3) 0.3209(2) 0.4276(3)
H54_23 H 0.933556 0.305030 0.421056
C65_23 C 0.9189(2) 0.3385(3) 0.41598(19)
C66_23 C 0.9175(2) 0.3618(3) 0.4256(3)
C67_23 C 0.9297(3) 0.3673(2) 0.4469(3)
C68_23 C 0.9434(2) 0.3497(4) 0.45858(18)
H55_23 H 0.951714 0.353495 0.473141
C69_23 C 0.9026(3) 0.3807(3) 0.4126(3)
C70_23 C 0.8782(3) 0.3866(3) 0.4163(4)
H56_23 H 0.869393 0.376777 0.427307
C71_23 C 0.9050(3) 0.3329(3) 0.3927(3)
H57_23 H 0.896528 0.347535 0.387239
H58_23 H 0.893209 0.320052 0.395854
H59_23 H 0.916386 0.327628 0.380172
C72_23 C 0.9296(3) 0.3926(2) 0.4593(3)
H60_23 H 0.919604 0.403827 0.449824
H61_23 H 0.946254 0.398865 0.460105
H62_23 H 0.923043 0.391202 0.475696
C14_31 C 0.4217(4) 0.2560(5) 0.000000
C15_31 C 0.3956(4) 0.2637(4) 0.000000
C18_31 C 0.3470(3) 0.2811(4) 0.000000
C19_31 C 0.3142(3) 0.3142(3) 0.000000
H14_31 H 0.326357 0.326359 0.000000
C20_31 C 0.3217(3) 0.2903(3) 0.000000
C21_31 C 0.3045(3) 0.2721(3) 0.000000
H15_31 H 0.308707 0.255425 0.000000
C22_31 C 0.2801(3) 0.2801(3) 0.000000
H16_31 H 0.267916 0.267916 0.000000
C35_31 C 0.2560(5) 0.4217(4) 0.000000
C36_31 C 0.2637(4) 0.3956(4) 0.000000
C37_22 C 0.2694(2) 0.3836(3) 0.0207(3)
H29_22 H 0.267400 0.391677 0.035756
C38_22 C 0.2778(3) 0.3602(3) 0.0209(2)
C39_31 C 0.2811(4) 0.3470(3) 0.000000
C40_31 C 0.2903(3) 0.3217(3) 0.000000
C41_31 C 0.2721(3) 0.3045(3) 0.000000
H30_31 H 0.255425 0.308707 0.000000
C42_22 C 0.2837(4) 0.3466(3) 0.0443(3)
H31_22 H 0.289434 0.330301 0.040348
H32_22 H 0.296322 0.355363 0.053193
H33_22 H 0.269075 0.345517 0.054296
O9_22 O 0.42945(17) 0.25288(17) 0.02110(17)
C43_22 C 0.3836(3) 0.2694(2) 0.0207(3)
H34_22 H 0.391677 0.267400 0.035756
C44_22 C 0.3602(3) 0.2778(3) 0.0209(2)
C45_22 C 0.3466(3) 0.2837(4) 0.0443(3)
H35_22 H 0.330301 0.289434 0.040348
H36_22 H 0.355363 0.296322 0.053193
H37_22 H 0.345517 0.269075 0.054296
C14_32 C 0.4217(4) 0.2560(5) 1.000000
C15_32 C 0.3956(4) 0.2637(4) 1.000000
C16_22 C 0.3836(3) 0.2694(2) 0.9793(3)
H13_22 H 0.391677 0.267400 0.964244
C17_22 C 0.3602(3) 0.2778(3) 0.9791(2)
C18_32 C 0.3470(3) 0.2811(4) 1.000000
C19_32 C 0.3142(3) 0.3142(3) 1.000000
H14_32 H 0.326357 0.326359 1.000000
C20_32 C 0.3217(3) 0.2903(3) 1.000000
C21_32 C 0.3045(3) 0.2721(3) 1.000000
H15_32 H 0.308707 0.255425 1.000000
C22_32 C 0.2801(3) 0.2801(3) 1.000000
H16_32 H 0.267916 0.267916 1.000000
C23_22 C 0.3466(3) 0.2837(4) 0.9557(3)
H17_22 H 0.330301 0.289434 0.959652
H18_22 H 0.355363 0.296322 0.946807
H19_22 H 0.345517 0.269075 0.945704
C35_32 C 0.2560(5) 0.4217(4) 1.000000
C36_32 C 0.2637(4) 0.3956(4) 1.000000
C39_32 C 0.2811(4) 0.3470(3) 1.000000
C40_32 C 0.2903(3) 0.3217(3) 1.000000
C41_32 C 0.2721(3) 0.3045(3) 1.000000
H30_32 H 0.255425 0.308707 1.000000
O10_22 O 0.25288(17) 0.42945(17) 0.97890(17)
C46_22 C 0.2694(2) 0.3836(3) 0.9793(3)
H38_22 H 0.267400 0.391677 0.964244
C47_22 C 0.2778(3) 0.3602(3) 0.9791(2)
C48_22 C 0.2837(4) 0.3466(3) 0.9557(3)
H39_22 H 0.289434 0.330301 0.959652
H40_22 H 0.296322 0.355363 0.946807
H41_22 H 0.269075 0.345517 0.945704
C14_33 C 0.4217(4) 0.7440(5) 0.000000
C15_33 C 0.3956(4) 0.7363(4) 0.000000
C16_23 C 0.3836(3) 0.7306(2) 0.0207(3)
H13_23 H 0.391677 0.732600 0.035756
C17_23 C 0.3602(3) 0.7222(3) 0.0209(2)
C18_33 C 0.3470(3) 0.7189(4) 0.000000
C19_33 C 0.3142(3) 0.6858(3) 0.000000
H14_33 H 0.326357 0.673641 0.000000
C20_33 C 0.3217(3) 0.7097(3) 0.000000
C21_33 C 0.3045(3) 0.7279(3) 0.000000
H15_33 H 0.308707 0.744575 0.000000
C22_33 C 0.2801(3) 0.7199(3) 0.000000
H16_33 H 0.267916 0.732084 0.000000
C23_23 C 0.3466(3) 0.7163(4) 0.0443(3)
H17_23 H 0.330301 0.710566 0.040348
H18_23 H 0.355363 0.703678 0.053193
H19_23 H 0.345517 0.730925 0.054296
C35_33 C 0.2560(5) 0.5783(4) 0.000000
C36_33 C 0.2637(4) 0.6044(4) 0.000000
C39_33 C 0.2811(4) 0.6530(3) 0.000000
C40_33 C 0.2903(3) 0.6783(3) 0.000000
C41_33 C 0.2721(3) 0.6955(3) 0.000000
H30_33 H 0.255425 0.691293 0.000000
O10_23 O 0.25288(17) 0.57055(17) 0.02110(17)
C46_23 C 0.2694(2) 0.6164(3) 0.0207(3)
H38_23 H 0.267400 0.608323 0.035756
C47_23 C 0.2778(3) 0.6398(3) 0.0209(2)
C48_23 C 0.2837(4) 0.6534(3) 0.0443(3)
H39_23 H 0.289434 0.669699 0.040348
H40_23 H 0.296322 0.644637 0.053193
H41_23 H 0.269075 0.654483 0.054296
C14_34 C 0.4217(4) 0.7440(5) 1.000000
C15_34 C 0.3956(4) 0.7363(4) 1.000000
C18_34 C 0.3470(3) 0.7189(4) 1.000000
C19_34 C 0.3142(3) 0.6858(3) 1.000000
H14_34 H 0.326357 0.673641 1.000000
C20_34 C 0.3217(3) 0.7097(3) 1.000000
C21_34 C 0.3045(3) 0.7279(3) 1.000000
H15_34 H 0.308707 0.744575 1.000000
C22_34 C 0.2801(3) 0.7199(3) 1.000000
H16_34 H 0.267916 0.732084 1.000000
C35_34 C 0.2560(5) 0.5783(4) 1.000000
C36_34 C 0.2637(4) 0.6044(4) 1.000000
C37_23 C 0.2694(2) 0.6164(3) 0.9793(3)
H29_23 H 0.267400 0.608323 0.964244
C38_23 C 0.2778(3) 0.6398(3) 0.9791(2)
C39_34 C 0.2811(4) 0.6530(3) 1.000000
C40_34 C 0.2903(3) 0.6783(3) 1.000000
C41_34 C 0.2721(3) 0.6955(3) 1.000000
H30_34 H 0.255425 0.691293 1.000000
C42_23 C 0.2837(4) 0.6534(3) 0.9557(3)
H31_23 H 0.289434 0.669699 0.959652
H32_23 H 0.296322 0.644637 0.946807
H33_23 H 0.269075 0.654483 0.945704
O9_23 O 0.42945(17) 0.74712(17) 0.97890(17)
C43_23 C 0.3836(3) 0.7306(2) 0.9793(3)
H34_23 H 0.391677 0.732600 0.964244
C44_23 C 0.3602(3) 0.7222(3) 0.9791(2)
C45_23 C 0.3466(3) 0.7163(4) 0.9557(3)
H35_23 H 0.330301 0.710566 0.959652
H36_23 H 0.355363 0.703678 0.946807
H37_23 H 0.345517 0.730925 0.945704
C14_35 C 0.000000 0.4217(4) 0.2560(5)
C15_35 C 0.000000 0.3956(4) 0.2637(4)
C18_35 C 0.000000 0.3470(3) 0.2811(4)
C19_35 C 0.000000 0.3142(3) 0.3142(3)
H14_35 H 0.000000 0.326357 0.326359
C20_35 C 0.000000 0.3217(3) 0.2903(3)
C21_35 C 0.000000 0.3045(3) 0.2721(3)
H15_35 H 0.000000 0.308707 0.255425
C22_35 C 0.000000 0.2801(3) 0.2801(3)
H16_35 H 0.000000 0.267916 0.267916
C35_35 C 0.000000 0.2560(5) 0.4217(4)
C36_35 C 0.000000 0.2637(4) 0.3956(4)
C37_24 C 0.0207(3) 0.2694(2) 0.3836(3)
H29_24 H 0.035756 0.267400 0.391677
C38_24 C 0.0209(2) 0.2778(3) 0.3602(3)
C39_35 C 0.000000 0.2811(4) 0.3470(3)
C40_35 C 0.000000 0.2903(3) 0.3217(3)
C41_35 C -0.000000 0.2721(3) 0.3045(3)
H30_35 H -0.000000 0.255425 0.308707
C42_24 C 0.0443(3) 0.2837(4) 0.3466(3)
H31_24 H 0.040348 0.289434 0.330301
H32_24 H 0.053193 0.296322 0.355363
H33_24 H 0.054296 0.269075 0.345517
O9_24 O 0.02110(17) 0.42945(17) 0.25288(17)
C43_24 C 0.0207(3) 0.3836(3) 0.2694(2)
H34_24 H 0.035756 0.391677 0.267400
C44_24 C 0.0209(2) 0.3602(3) 0.2778(3)
C45_24 C 0.0443(3) 0.3466(3) 0.2837(4)
H35_24 H 0.040348 0.330301 0.289434
H36_24 H 0.053193 0.355363 0.296322
H37_24 H 0.054296 0.345517 0.269075
C14_36 C 1.000000 0.4217(4) 0.2560(5)
C15_36 C 1.000000 0.3956(4) 0.2637(4)
C16_24 C 0.9793(3) 0.3836(3) 0.2694(2)
H13_24 H 0.964244 0.391677 0.267400
C17_24 C 0.9791(2) 0.3602(3) 0.2778(3)
C18_36 C 1.000000 0.3470(3) 0.2811(4)
C19_36 C 1.000000 0.3142(3) 0.3142(3)
H14_36 H 1.000000 0.326357 0.326359
C20_36 C 1.000000 0.3217(3) 0.2903(3)
C21_36 C 1.000000 0.3045(3) 0.2721(3)
H15_36 H 1.000000 0.308707 0.255425
C22_36 C 1.000000 0.2801(3) 0.2801(3)
H16_36 H 1.000000 0.267916 0.267916
C23_24 C 0.9557(3) 0.3466(3) 0.2837(4)
H17_24 H 0.959652 0.330301 0.289434
H18_24 H 0.946807 0.355363 0.296322
H19_24 H 0.945704 0.345517 0.269075
C35_36 C 1.000000 0.2560(5) 0.4217(4)
C36_36 C 1.000000 0.2637(4) 0.3956(4)
C39_36 C 1.000000 0.2811(4) 0.3470(3)
C40_36 C 1.000000 0.2903(3) 0.3217(3)
C41_36 C 1.000000 0.2721(3) 0.3045(3)
H30_36 H 1.000000 0.255425 0.308707
O10_24 O 0.97890(17) 0.25288(17) 0.42945(17)
C46_24 C 0.9793(3) 0.2694(2) 0.3836(3)
H38_24 H 0.964244 0.267400 0.391677
C47_24 C 0.9791(2) 0.2778(3) 0.3602(3)
C48_24 C 0.9557(3) 0.2837(4) 0.3466(3)
H39_24 H 0.959652 0.289434 0.330301
H40_24 H 0.946807 0.296322 0.355363
H41_24 H 0.945704 0.269075 0.345517
H42_36 H 0.283248 0.500000 0.048362
O14_24 O 0.31449(18) 0.47437(17) 0.02525(18)
C49_24 C 0.3058(2) 0.4596(3) 0.0406(3)
C50_24 C 0.3265(3) 0.4489(3) 0.0552(2)
C51_24 C 0.3209(2) 0.4276(3) 0.0674(3)
H43_24 H 0.305030 0.421056 0.066444
C52_24 C 0.3385(3) 0.41598(19) 0.0811(2)
C53_24 C 0.3618(3) 0.4256(3) 0.0825(2)
C54_24 C 0.3673(2) 0.4469(3) 0.0703(3)
C55_24 C 0.3497(4) 0.45858(18) 0.0566(2)
H44_24 H 0.353495 0.473141 0.048286
C56_24 C 0.3939(3) 0.3939(3) 0.0861(4)
H45_24 H 0.389943 0.389943 0.069845
C57_24 C 0.3807(3) 0.4126(3) 0.0974(3)
C58_24 C 0.3866(3) 0.4163(4) 0.1218(3)
H46_24 H 0.376777 0.427307 0.130607
C59_24 C 0.4053(4) 0.4053(4) 0.1343(6)
H47_24 H 0.410239 0.410241 0.150058
C60_24 C 0.3329(3) 0.3927(3) 0.0950(3)
H48_24 H 0.347535 0.387239 0.103472
H49_24 H 0.320052 0.395854 0.106791
H50_24 H 0.327628 0.380172 0.083614
C61_24 C 0.3926(2) 0.4593(3) 0.0704(3)
H51_24 H 0.403827 0.449824 0.080396
H52_24 H 0.398865 0.460105 0.053746
H53_24 H 0.391202 0.475696 0.076957
O15_24 O 0.4540(2) 0.28424(19) 0.04633(19)
C62_24 C 0.4596(3) 0.3058(2) 0.0406(3)
C63_24 C 0.4489(3) 0.3265(3) 0.0552(2)
C64_24 C 0.4276(3) 0.3209(2) 0.0674(3)
H54_24 H 0.421056 0.305030 0.066444
C65_24 C 0.41598(19) 0.3385(3) 0.0811(2)
C66_24 C 0.4256(3) 0.3618(3) 0.0825(2)
C67_24 C 0.4469(3) 0.3673(2) 0.0703(3)
C68_24 C 0.45858(18) 0.3497(4) 0.0566(2)
H55_24 H 0.473141 0.353495 0.048286
C69_24 C 0.4126(3) 0.3807(3) 0.0974(3)
C70_24 C 0.4163(4) 0.3866(3) 0.1218(3)
H56_24 H 0.427307 0.376777 0.130607
C71_24 C 0.3927(3) 0.3329(3) 0.0950(3)
H57_24 H 0.387239 0.347535 0.103472
H58_24 H 0.395854 0.320052 0.106791
H59_24 H 0.380172 0.327628 0.083614
C72_24 C 0.4593(3) 0.3926(2) 0.0704(3)
H60_24 H 0.449824 0.403827 0.080396
H61_24 H 0.460105 0.398865 0.053746
H62_24 H 0.475696 0.391202 0.076957
H1_36 H 0.283248 0.500000 0.951638
O4_24 O 0.31449(18) 0.52563(17) 0.97475(18)
C1_24 C 0.3058(2) 0.5404(3) 0.9594(3)
C2_24 C 0.3265(3) 0.5511(3) 0.9448(2)
C3_24 C 0.3209(2) 0.5724(3) 0.9326(3)
H2_24 H 0.305030 0.578944 0.933556
C4_24 C 0.3385(3) 0.58402(19) 0.9189(2)
C5_24 C 0.3618(3) 0.5744(3) 0.9175(2)
C6_24 C 0.3673(2) 0.5531(3) 0.9297(3)
C7_24 C 0.3497(4) 0.54142(18) 0.9434(2)
H3_24 H 0.353495 0.526859 0.951714
C8_24 C 0.3939(3) 0.6061(3) 0.9139(4)
H4_24 H 0.389943 0.610057 0.930155
C9_24 C 0.3807(3) 0.5874(3) 0.9026(3)
C10_24 C 0.3866(3) 0.5837(4) 0.8782(3)
H5_24 H 0.376777 0.572693 0.869393
C11_24 C 0.4053(4) 0.5947(4) 0.8657(6)
H6_24 H 0.410239 0.589759 0.849942
C12_24 C 0.3329(3) 0.6073(3) 0.9050(3)
H7_24 H 0.347535 0.612761 0.896528
H8_24 H 0.320052 0.604146 0.893209
H9_24 H 0.327628 0.619828 0.916386
C13_24 C 0.3926(2) 0.5407(3) 0.9296(3)
H10_24 H 0.403827 0.550176 0.919604
H11_24 H 0.398865 0.539895 0.946254
H12_24 H 0.391202 0.524304 0.923043
O6_24 O 0.4540(2) 0.71576(19) 0.95367(19)
C24_24 C 0.4596(3) 0.6942(2) 0.9594(3)
C25_24 C 0.4489(3) 0.6735(3) 0.9448(2)
C26_24 C 0.4276(3) 0.6791(2) 0.9326(3)
H20_24 H 0.421056 0.694970 0.933556
C27_24 C 0.41598(19) 0.6615(3) 0.9189(2)
C28_24 C 0.4256(3) 0.6382(3) 0.9175(2)
C29_24 C 0.4469(3) 0.6327(2) 0.9297(3)
C30_24 C 0.45858(18) 0.6503(4) 0.9434(2)
H21_24 H 0.473141 0.646505 0.951714
C31_24 C 0.4126(3) 0.6193(3) 0.9026(3)
C32_24 C 0.4163(4) 0.6134(3) 0.8782(3)
H22_24 H 0.427307 0.623223 0.869393
C33_24 C 0.3927(3) 0.6671(3) 0.9050(3)
H23_24 H 0.387239 0.652465 0.896528
H24_24 H 0.395854 0.679948 0.893209
H25_24 H 0.380172 0.672372 0.916386
C34_24 C 0.4593(3) 0.6074(2) 0.9296(3)
H26_24 H 0.449824 0.596173 0.919604
H27_24 H 0.460105 0.601135 0.946254
H28_24 H 0.475696 0.608798 0.923043
loop_
_geom_bond_atom_site_label_1
_geom_bond_atom_site_label_2
_geom_bond_site_symmetry_1
_geom_bond_site_symmetry_2
Zr1 O1 1_555 1_555
Zr2 O1 1_555 1_555
O1 Zr6 1_555 1_555
O2 Zr1 1_555 1_555
H1 O2 1_555 1_555
O3 Zr1 1_555 1_555
O4 Zr2 1_555 1_555
C1 O3 1_555 1_555
C2 C1 1_555 1_555
C3 C2 1_555 1_555
H2 C3 1_555 1_555
C4 C3 1_555 1_555
C5 C4 1_555 1_555
C6 C5 1_555 1_555
C7 C2 1_555 1_555
H3 C7 1_555 1_555
C8 H4 1_555 1_555
C9 C5 1_555 1_555
C10 C9 1_555 1_555
H5 C10 1_555 1_555
C11 C10 1_555 1_555
H6 C11 1_555 1_555
C12 C4 1_555 1_555
H7 C12 1_555 1_555
H8 C12 1_555 1_555
H9 C12 1_555 1_555
C13 C6 1_555 1_555
H10 C13 1_555 1_555
H11 C13 1_555 1_555
H12 C13 1_555 1_555
O5 Zr1 1_555 1_555
C14 O5 1_555 1_555
C15 C14 1_555 1_555
C16 C15 1_555 1_555
H13 C16 1_555 1_555
C17 C16 1_555 1_555
C18 C17 1_555 1_555
C19 H14 1_555 1_555
C20 C18 1_555 1_555
C21 C20 1_555 1_555
H15 C21 1_555 1_555
C22 C21 1_555 1_555
H16 C22 1_555 1_555
C23 C17 1_555 1_555
H17 C23 1_555 1_555
H18 C23 1_555 1_555
H19 C23 1_555 1_555
O6 C24 1_555 1_555
O7 C24 1_555 1_555
C24 C25 1_555 1_555
C25 C26 1_555 1_555
C26 H20 1_555 1_555
C27 C26 1_555 1_555
C28 C27 1_555 1_555
C29 C28 1_555 1_555
C30 C25 1_555 1_555
H21 C30 1_555 1_555
C31 C8 1_555 1_555
C32 C11 1_555 1_555
H22 C32 1_555 1_555
C33 C27 1_555 1_555
H23 C33 1_555 1_555
H24 C33 1_555 1_555
H25 C33 1_555 1_555
C34 C29 1_555 1_555
H26 C34 1_555 1_555
H27 C34 1_555 1_555
H28 C34 1_555 1_555
O8 C35 1_555 1_555
C35 C36 1_555 1_555
C36 C37 1_555 1_555
C37 H29 1_555 1_555
C38 C37 1_555 1_555
C39 C38 1_555 1_555
C40 C19 1_555 1_555
C41 C22 1_555 1_555
H30 C41 1_555 1_555
C42 C38 1_555 1_555
H31 C42 1_555 1_555
H32 C42 1_555 1_555
H33 C42 1_555 1_555
O9 C14 1_555 1_555
C43 C15 1_555 1_555
H34 C43 1_555 1_555
C44 C18 1_555 1_555
C45 C44 1_555 1_555
H35 C45 1_555 1_555
H36 C45 1_555 1_555
H37 C45 1_555 1_555
O10 C35 1_555 1_555
C46 C36 1_555 1_555
H38 C46 1_555 1_555
C47 C39 1_555 1_555
C48 C47 1_555 1_555
H39 C48 1_555 1_555
H40 C48 1_555 1_555
H41 C48 1_555 1_555
O12 Zr2 1_555 1_555
H42 O12 1_555 1_555
Zr4 O8 1_555 1_555
Zr6 O9 1_555 1_555
Zr8 O6 1_555 1_555
Zr10 O7 1_555 1_555
O18 Zr1 1_555 1_555
O20 Zr1 1_555 1_555
O22 Zr1 1_555 1_555
O24 Zr2 1_555 1_555
O27 Zr1 1_555 1_555
Zr2 O2 1_555 1_555
O4 C1 1_555 1_555
C6 C7 1_555 1_555
C8 C9 1_555 1_555
C19 C20 1_555 1_555
C28 C31 1_555 1_555
C29 C30 1_555 1_555
C31 C32 1_555 1_555
C39 C40 1_555 1_555
C40 C41 1_555 1_555
C43 C44 1_555 1_555
O10 Zr8 1_555 1_555
C46 C47 1_555 1_555
O12 Zr6 1_555 1_555
Zr6 O17 1_555 1_555
Zr6 O20 1_555 1_555
H1_2 O2_2 1_555 1_555
Zr3 O11 1_555 1_555
O11 Zr2_2 1_555 1_555
O12_2 Zr2_2 1_555 1_555
H42_2 O12_2 1_555 1_555
O13 Zr3 1_555 1_555
O14 Zr2_2 1_555 1_555
C49 O13 1_555 1_555
C50 C49 1_555 1_555
C51 C50 1_555 1_555
H43 C51 1_555 1_555
C52 C51 1_555 1_555
C53 C52 1_555 1_555
C54 C53 1_555 1_555
C55 C50 1_555 1_555
H44 C55 1_555 1_555
C56 H45 1_555 1_555
C57 C53 1_555 1_555
C58 C57 1_555 1_555
H46 C58 1_555 1_555
C59 C58 1_555 1_555
H47 C59 1_555 1_555
C60 C52 1_555 1_555
H48 C60 1_555 1_555
H49 C60 1_555 1_555
H50 C60 1_555 1_555
C61 C54 1_555 1_555
H51 C61 1_555 1_555
H52 C61 1_555 1_555
H53 C61 1_555 1_555
O15 C62 1_555 1_555
O16 C62 1_555 1_555
C62 C63 1_555 1_555
C63 C64 1_555 1_555
C64 H54 1_555 1_555
C65 C64 1_555 1_555
C66 C65 1_555 1_555
C67 C66 1_555 1_555
C68 C63 1_555 1_555
H55 C68 1_555 1_555
C69 C56 1_555 1_555
C70 C59 1_555 1_555
H56 C70 1_555 1_555
C71 C65 1_555 1_555
H57 C71 1_555 1_555
H58 C71 1_555 1_555
H59 C71 1_555 1_555
C72 C67 1_555 1_555
H60 C72 1_555 1_555
H61 C72 1_555 1_555
H62 C72 1_555 1_555
Zr5 O2_2 1_555 1_555
Zr7 O15 1_555 1_555
Zr9 O16 1_555 1_555
O17_2 Zr3 1_555 1_555
O19 Zr3 1_555 1_555
O21 Zr3 1_555 1_555
O23 Zr2_2 1_555 1_555
O25 Zr3 1_555 1_555
O26 Zr3 1_555 1_555
Zr2_2 O2_2 1_555 1_555
Zr3 O12_2 1_555 1_555
O11 Zr5 1_555 1_555
O14 C49 1_555 1_555
C54 C55 1_555 1_555
C56 C57 1_555 1_555
C66 C69 1_555 1_555
C67 C68 1_555 1_555
C69 C70 1_555 1_555
Zr5 O18_2 1_555 1_555
Zr5 O19 1_555 1_555
Zr1_2 O1_2 1_555 1_555
Zr2_3 O1_2 1_555 1_555
O1_2 Zr6_2 1_555 1_555
O2_3 Zr1_2 1_555 1_555
H1_3 O2_3 1_555 1_555
O3_2 Zr1_2 1_555 1_555
O4_2 Zr2_3 1_555 1_555
C1_2 O3_2 1_555 1_555
C2_2 C1_2 1_555 1_555
C3_2 C2_2 1_555 1_555
H2_2 C3_2 1_555 1_555
C4_2 C3_2 1_555 1_555
C5_2 C4_2 1_555 1_555
C6_2 C5_2 1_555 1_555
C7_2 C2_2 1_555 1_555
H3_2 C7_2 1_555 1_555
C8_2 H4_2 1_555 1_555
C9_2 C5_2 1_555 1_555
C10_2 C9_2 1_555 1_555
H5_2 C10_2 1_555 1_555
C11_2 C10_2 1_555 1_555
H6_2 C11_2 1_555 1_555
C12_2 C4_2 1_555 1_555
H7_2 C12_2 1_555 1_555
H8_2 C12_2 1_555 1_555
H9_2 C12_2 1_555 1_555
C13_2 C6_2 1_555 1_555
H10_2 C13_2 1_555 1_555
H11_2 C13_2 1_555 1_555
H12_2 C13_2 1_555 1_555
O5_2 Zr1_2 1_555 1_555
C14_2 O5_2 1_555 1_555
C15_2 C14_2 1_555 1_555
C16_2 C15_2 1_555 1_555
H13_2 C16_2 1_555 1_555
C17_2 C16_2 1_555 1_555
C18_2 C17_2 1_555 1_555
C19_2 H14_2 1_555 1_555
C20_2 C18_2 1_555 1_555
C21_2 C20_2 1_555 1_555
H15_2 C21_2 1_555 1_555
C22_2 C21_2 1_555 1_555
H16_2 C22_2 1_555 1_555
C23_2 C17_2 1_555 1_555
H17_2 C23_2 1_555 1_555
H18_2 C23_2 1_555 1_555
H19_2 C23_2 1_555 1_555
O6_2 C24_2 1_555 1_555
O7_2 C24_2 1_555 1_555
C24_2 C25_2 1_555 1_555
C25_2 C26_2 1_555 1_555
C26_2 H20_2 1_555 1_555
C27_2 C26_2 1_555 1_555
C28_2 C27_2 1_555 1_555
C29_2 C28_2 1_555 1_555
C30_2 C25_2 1_555 1_555
H21_2 C30_2 1_555 1_555
C31_2 C8_2 1_555 1_555
C32_2 C11_2 1_555 1_555
H22_2 C32_2 1_555 1_555
C33_2 C27_2 1_555 1_555
H23_2 C33_2 1_555 1_555
H24_2 C33_2 1_555 1_555
H25_2 C33_2 1_555 1_555
C34_2 C29_2 1_555 1_555
H26_2 C34_2 1_555 1_555
H27_2 C34_2 1_555 1_555
H28_2 C34_2 1_555 1_555
O8_2 C35_2 1_555 1_555
C35_2 C36_2 1_555 1_555
C36_2 C37_2 1_555 1_555
C37_2 H29_2 1_555 1_555
C38_2 C37_2 1_555 1_555
C39_2 C38_2 1_555 1_555
C40_2 C19_2 1_555 1_555
C41_2 C22_2 1_555 1_555
H30_2 C41_2 1_555 1_555
C42_2 C38_2 1_555 1_555
H31_2 C42_2 1_555 1_555
H32_2 C42_2 1_555 1_555
H33_2 C42_2 1_555 1_555
O9_2 C14_2 1_555 1_555
C43_2 C15_2 1_555 1_555
H34_2 C43_2 1_555 1_555
C44_2 C18_2 1_555 1_555
C45_2 C44_2 1_555 1_555
H35_2 C45_2 1_555 1_555
H36_2 C45_2 1_555 1_555
H37_2 C45_2 1_555 1_555
O10_2 C35_2 1_555 1_555
C46_2 C36_2 1_555 1_555
H38_2 C46_2 1_555 1_555
C47_2 C39_2 1_555 1_555
C48_2 C47_2 1_555 1_555
H39_2 C48_2 1_555 1_555
H40_2 C48_2 1_555 1_555
H41_2 C48_2 1_555 1_555
O12_3 Zr2_3 1_555 1_555
H42_3 O12_3 1_555 1_555
Zr4_2 O8_2 1_555 1_555
Zr6_2 O9_2 1_555 1_555
Zr8_2 O6_2 1_555 1_555
Zr10_3 O7_2 1_555 1_555
O18_3 Zr1_2 1_555 1_555
O20_2 Zr1_2 1_555 1_555
O22_2 Zr1_2 1_555 1_555
O24_2 Zr2_3 1_555 1_555
O27_2 Zr1_2 1_555 1_555
Zr2_3 O2_3 1_555 1_555
O4_2 C1_2 1_555 1_555
C6_2 C7_2 1_555 1_555
C8_2 C9_2 1_555 1_555
C19_2 C20_2 1_555 1_555
C28_2 C31_2 1_555 1_555
C29_2 C30_2 1_555 1_555
C31_2 C32_2 1_555 1_555
C39_2 C40_2 1_555 1_555
C40_2 C41_2 1_555 1_555
C43_2 C44_2 1_555 1_555
O10_2 Zr8_2 1_555 1_555
C46_2 C47_2 1_555 1_555
O12_3 Zr6_2 1_555 1_555
Zr6_2 O17_3 1_555 1_555
Zr6_2 O20_2 1_555 1_555
H1_4 O2_4 1_555 1_555
Zr3_2 O11_2 1_555 1_555
O11_2 Zr2_4 1_555 1_555
O12_4 Zr2_4 1_555 1_555
H42_4 O12_4 1_555 1_555
O13_2 Zr3_2 1_555 1_555
O14_2 Zr2_4 1_555 1_555
C49_2 O13_2 1_555 1_555
C50_2 C49_2 1_555 1_555
C51_2 C50_2 1_555 1_555
H43_2 C51_2 1_555 1_555
C52_2 C51_2 1_555 1_555
C53_2 C52_2 1_555 1_555
C54_2 C53_2 1_555 1_555
C55_2 C50_2 1_555 1_555
H44_2 C55_2 1_555 1_555
C56_2 H45_2 1_555 1_555
C57_2 C53_2 1_555 1_555
C58_2 C57_2 1_555 1_555
H46_2 C58_2 1_555 1_555
C59_2 C58_2 1_555 1_555
H47_2 C59_2 1_555 1_555
C60_2 C52_2 1_555 1_555
H48_2 C60_2 1_555 1_555
H49_2 C60_2 1_555 1_555
H50_2 C60_2 1_555 1_555
C61_2 C54_2 1_555 1_555
H51_2 C61_2 1_555 1_555
H52_2 C61_2 1_555 1_555
H53_2 C61_2 1_555 1_555
O15_2 C62_2 1_555 1_555
O16_2 C62_2 1_555 1_555
C62_2 C63_2 1_555 1_555
C63_2 C64_2 1_555 1_555
C64_2 H54_2 1_555 1_555
C65_2 C64_2 1_555 1_555
C66_2 C65_2 1_555 1_555
C67_2 C66_2 1_555 1_555
C68_2 C63_2 1_555 1_555
H55_2 C68_2 1_555 1_555
C69_2 C56_2 1_555 1_555
C70_2 C59_2 1_555 1_555
H56_2 C70_2 1_555 1_555
C71_2 C65_2 1_555 1_555
H57_2 C71_2 1_555 1_555
H58_2 C71_2 1_555 1_555
H59_2 C71_2 1_555 1_555
C72_2 C67_2 1_555 1_555
H60_2 C72_2 1_555 1_555
H61_2 C72_2 1_555 1_555
H62_2 C72_2 1_555 1_555
Zr5_2 O2_4 1_555 1_555
Zr7_2 O15_2 1_555 1_555
Zr9_3 O16_2 1_555 1_555
O17_4 Zr3_2 1_555 1_555
O19_2 Zr3_2 1_555 1_555
O21_2 Zr3_2 1_555 1_555
O23_2 Zr2_4 1_555 1_555
O25_2 Zr3_2 1_555 1_555
O26_2 Zr3_2 1_555 1_555
Zr2_4 O2_4 1_555 1_555
Zr3_2 O12_4 1_555 1_555
O11_2 Zr5_2 1_555 1_555
O14_2 C49_2 1_555 1_555
C54_2 C55_2 1_555 1_555
C56_2 C57_2 1_555 1_555
C66_2 C69_2 1_555 1_555
C67_2 C68_2 1_555 1_555
C69_2 C70_2 1_555 1_555
Zr5_2 O18_4 1_555 1_555
Zr5_2 O19_2 1_555 1_555
Zr1_3 O1_3 1_555 1_555
Zr2_5 O1_3 1_555 1_555
O1_3 Zr6_3 1_555 1_555
O2_5 Zr1_3 1_555 1_555
H1_5 O2_5 1_555 1_555
O3_3 Zr1_3 1_555 1_555
O4_3 Zr2_5 1_555 1_555
C1_3 O3_3 1_555 1_555
C2_3 C1_3 1_555 1_555
C3_3 C2_3 1_555 1_555
H2_3 C3_3 1_555 1_555
C4_3 C3_3 1_555 1_555
C5_3 C4_3 1_555 1_555
C6_3 C5_3 1_555 1_555
C7_3 C2_3 1_555 1_555
H3_3 C7_3 1_555 1_555
C8_3 H4_3 1_555 1_555
C9_3 C5_3 1_555 1_555
C10_3 C9_3 1_555 1_555
H5_3 C10_3 1_555 1_555
C11_3 C10_3 1_555 1_555
H6_3 C11_3 1_555 1_555
C12_3 C4_3 1_555 1_555
H7_3 C12_3 1_555 1_555
H8_3 C12_3 1_555 1_555
H9_3 C12_3 1_555 1_555
C13_3 C6_3 1_555 1_555
H10_3 C13_3 1_555 1_555
H11_3 C13_3 1_555 1_555
H12_3 C13_3 1_555 1_555
O5_3 Zr1_3 1_555 1_555
C14_3 O5_3 1_555 1_555
C15_3 C14_3 1_555 1_555
C16_3 C15_3 1_555 1_555
H13_3 C16_3 1_555 1_555
C17_3 C16_3 1_555 1_555
C18_3 C17_3 1_555 1_555
C19_3 H14_3 1_555 1_555
C20_3 C18_3 1_555 1_555
C21_3 C20_3 1_555 1_555
H15_3 C21_3 1_555 1_555
C22_3 C21_3 1_555 1_555
H16_3 C22_3 1_555 1_555
C23_3 C17_3 1_555 1_555
H17_3 C23_3 1_555 1_555
H18_3 C23_3 1_555 1_555
H19_3 C23_3 1_555 1_555
O6_3 C24_3 1_555 1_555
O7_3 C24_3 1_555 1_555
C24_3 C25_3 1_555 1_555
C25_3 C26_3 1_555 1_555
C26_3 H20_3 1_555 1_555
C27_3 C26_3 1_555 1_555
C28_3 C27_3 1_555 1_555
C29_3 C28_3 1_555 1_555
C30_3 C25_3 1_555 1_555
H21_3 C30_3 1_555 1_555
C31_3 C8_3 1_555 1_555
C32_3 C11_3 1_555 1_555
H22_3 C32_3 1_555 1_555
C33_3 C27_3 1_555 1_555
H23_3 C33_3 1_555 1_555
H24_3 C33_3 1_555 1_555
H25_3 C33_3 1_555 1_555
C34_3 C29_3 1_555 1_555
H26_3 C34_3 1_555 1_555
H27_3 C34_3 1_555 1_555
H28_3 C34_3 1_555 1_555
O8_3 C35_3 1_555 1_555
C35_3 C36_3 1_555 1_555
C36_3 C37_3 1_555 1_555
C37_3 H29_3 1_555 1_555
C38_3 C37_3 1_555 1_555
C39_3 C38_3 1_555 1_555
C40_3 C19_3 1_555 1_555
C41_3 C22_3 1_555 1_555
H30_3 C41_3 1_555 1_555
C42_3 C38_3 1_555 1_555
H31_3 C42_3 1_555 1_555
H32_3 C42_3 1_555 1_555
H33_3 C42_3 1_555 1_555
O9_3 C14_3 1_555 1_555
C43_3 C15_3 1_555 1_555
H34_3 C43_3 1_555 1_555
C44_3 C18_3 1_555 1_555
C45_3 C44_3 1_555 1_555
H35_3 C45_3 1_555 1_555
H36_3 C45_3 1_555 1_555
H37_3 C45_3 1_555 1_555
O10_3 C35_3 1_555 1_555
C46_3 C36_3 1_555 1_555
H38_3 C46_3 1_555 1_555
C47_3 C39_3 1_555 1_555
C48_3 C47_3 1_555 1_555
H39_3 C48_3 1_555 1_555
H40_3 C48_3 1_555 1_555
H41_3 C48_3 1_555 1_555
O12_5 Zr2_5 1_555 1_555
H42_5 O12_5 1_555 1_555
Zr4_3 O8_3 1_555 1_555
Zr6_3 O9_3 1_555 1_555
Zr8_3 O6_3 1_555 1_555
Zr10_2 O7_3 1_555 1_555
O18_5 Zr1_3 1_555 1_555
O20_3 Zr1_3 1_555 1_555
O22_3 Zr1_3 1_555 1_555
O24_3 Zr2_5 1_555 1_555
O27_3 Zr1_3 1_555 1_555
Zr2_5 O2_5 1_555 1_555
O4_3 C1_3 1_555 1_555
C6_3 C7_3 1_555 1_555
C8_3 C9_3 1_555 1_555
C19_3 C20_3 1_555 1_555
C28_3 C31_3 1_555 1_555
C29_3 C30_3 1_555 1_555
C31_3 C32_3 1_555 1_555
C39_3 C40_3 1_555 1_555
C40_3 C41_3 1_555 1_555
C43_3 C44_3 1_555 1_555
O10_3 Zr8_3 1_555 1_555
C46_3 C47_3 1_555 1_555
O12_5 Zr6_3 1_555 1_555
Zr6_3 O17_5 1_555 1_555
Zr6_3 O20_3 1_555 1_555
H1_6 O2_6 1_555 1_555
Zr3_3 O11_3 1_555 1_555
O11_3 Zr2_6 1_555 1_555
O12_6 Zr2_6 1_555 1_555
H42_6 O12_6 1_555 1_555
O13_3 Zr3_3 1_555 1_555
O14_3 Zr2_6 1_555 1_555
C49_3 O13_3 1_555 1_555
C50_3 C49_3 1_555 1_555
C51_3 C50_3 1_555 1_555
H43_3 C51_3 1_555 1_555
C52_3 C51_3 1_555 1_555
C53_3 C52_3 1_555 1_555
C54_3 C53_3 1_555 1_555
C55_3 C50_3 1_555 1_555
H44_3 C55_3 1_555 1_555
C56_3 H45_3 1_555 1_555
C57_3 C53_3 1_555 1_555
C58_3 C57_3 1_555 1_555
H46_3 C58_3 1_555 1_555
C59_3 C58_3 1_555 1_555
H47_3 C59_3 1_555 1_555
C60_3 C52_3 1_555 1_555
H48_3 C60_3 1_555 1_555
H49_3 C60_3 1_555 1_555
H50_3 C60_3 1_555 1_555
C61_3 C54_3 1_555 1_555
H51_3 C61_3 1_555 1_555
H52_3 C61_3 1_555 1_555
H53_3 C61_3 1_555 1_555
O15_3 C62_3 1_555 1_555
O16_3 C62_3 1_555 1_555
C62_3 C63_3 1_555 1_555
C63_3 C64_3 1_555 1_555
C64_3 H54_3 1_555 1_555
C65_3 C64_3 1_555 1_555
C66_3 C65_3 1_555 1_555
C67_3 C66_3 1_555 1_555
C68_3 C63_3 1_555 1_555
H55_3 C68_3 1_555 1_555
C69_3 C56_3 1_555 1_555
C70_3 C59_3 1_555 1_555
H56_3 C70_3 1_555 1_555
C71_3 C65_3 1_555 1_555
H57_3 C71_3 1_555 1_555
H58_3 C71_3 1_555 1_555
H59_3 C71_3 1_555 1_555
C72_3 C67_3 1_555 1_555
H60_3 C72_3 1_555 1_555
H61_3 C72_3 1_555 1_555
H62_3 C72_3 1_555 1_555
Zr5_3 O2_6 1_555 1_555
Zr7_3 O15_3 1_555 1_555
Zr9_2 O16_3 1_555 1_555
O17_6 Zr3_3 1_555 1_555
O19_3 Zr3_3 1_555 1_555
O21_3 Zr3_3 1_555 1_555
O23_3 Zr2_6 1_555 1_555
O25_3 Zr3_3 1_555 1_555
O26_3 Zr3_3 1_555 1_555
Zr2_6 O2_6 1_555 1_555
Zr3_3 O12_6 1_555 1_555
O11_3 Zr5_3 1_555 1_555
O14_3 C49_3 1_555 1_555
C54_3 C55_3 1_555 1_555
C56_3 C57_3 1_555 1_555
C66_3 C69_3 1_555 1_555
C67_3 C68_3 1_555 1_555
C69_3 C70_3 1_555 1_555
Zr5_3 O18_6 1_555 1_555
Zr5_3 O19_3 1_555 1_555
Zr1_4 O1_4 1_555 1_555
Zr2_7 O1_4 1_555 1_555
O1_4 Zr6_4 1_555 1_555
O2_7 Zr1_4 1_555 1_555
H1_7 O2_7 1_555 1_555
O3_4 Zr1_4 1_555 1_555
O4_4 Zr2_7 1_555 1_555
C1_4 O3_4 1_555 1_555
C2_4 C1_4 1_555 1_555
C3_4 C2_4 1_555 1_555
H2_4 C3_4 1_555 1_555
C4_4 C3_4 1_555 1_555
C5_4 C4_4 1_555 1_555
C6_4 C5_4 1_555 1_555
C7_4 C2_4 1_555 1_555
H3_4 C7_4 1_555 1_555
C8_4 H4_4 1_555 1_555
C9_4 C5_4 1_555 1_555
C10_4 C9_4 1_555 1_555
H5_4 C10_4 1_555 1_555
C11_4 C10_4 1_555 1_555
H6_4 C11_4 1_555 1_555
C12_4 C4_4 1_555 1_555
H7_4 C12_4 1_555 1_555
H8_4 C12_4 1_555 1_555
H9_4 C12_4 1_555 1_555
C13_4 C6_4 1_555 1_555
H10_4 C13_4 1_555 1_555
H11_4 C13_4 1_555 1_555
H12_4 C13_4 1_555 1_555
O5_4 Zr1_4 1_555 1_555
C14_4 O5_4 1_555 1_555
C15_4 C14_4 1_555 1_555
C16_4 C15_4 1_555 1_555
H13_4 C16_4 1_555 1_555
C17_4 C16_4 1_555 1_555
C18_4 C17_4 1_555 1_555
C19_4 H14_4 1_555 1_555
C20_4 C18_4 1_555 1_555
C21_4 C20_4 1_555 1_555
H15_4 C21_4 1_555 1_555
C22_4 C21_4 1_555 1_555
H16_4 C22_4 1_555 1_555
C23_4 C17_4 1_555 1_555
H17_4 C23_4 1_555 1_555
H18_4 C23_4 1_555 1_555
H19_4 C23_4 1_555 1_555
O6_4 C24_4 1_555 1_555
O7_4 C24_4 1_555 1_555
C24_4 C25_4 1_555 1_555
C25_4 C26_4 1_555 1_555
C26_4 H20_4 1_555 1_555
C27_4 C26_4 1_555 1_555
C28_4 C27_4 1_555 1_555
C29_4 C28_4 1_555 1_555
C30_4 C25_4 1_555 1_555
H21_4 C30_4 1_555 1_555
C31_4 C8_4 1_555 1_555
C32_4 C11_4 1_555 1_555
H22_4 C32_4 1_555 1_555
C33_4 C27_4 1_555 1_555
H23_4 C33_4 1_555 1_555
H24_4 C33_4 1_555 1_555
H25_4 C33_4 1_555 1_555
C34_4 C29_4 1_555 1_555
H26_4 C34_4 1_555 1_555
H27_4 C34_4 1_555 1_555
H28_4 C34_4 1_555 1_555
O8_4 C35_4 1_555 1_555
C35_4 C36_4 1_555 1_555
C36_4 C37_4 1_555 1_555
C37_4 H29_4 1_555 1_555
C38_4 C37_4 1_555 1_555
C39_4 C38_4 1_555 1_555
C40_4 C19_4 1_555 1_555
C41_4 C22_4 1_555 1_555
H30_4 C41_4 1_555 1_555
C42_4 C38_4 1_555 1_555
H31_4 C42_4 1_555 1_555
H32_4 C42_4 1_555 1_555
H33_4 C42_4 1_555 1_555
O9_4 C14_4 1_555 1_555
C43_4 C15_4 1_555 1_555
H34_4 C43_4 1_555 1_555
C44_4 C18_4 1_555 1_555
C45_4 C44_4 1_555 1_555
H35_4 C45_4 1_555 1_555
H36_4 C45_4 1_555 1_555
H37_4 C45_4 1_555 1_555
O10_4 C35_4 1_555 1_555
C46_4 C36_4 1_555 1_555
H38_4 C46_4 1_555 1_555
C47_4 C39_4 1_555 1_555
C48_4 C47_4 1_555 1_555
H39_4 C48_4 1_555 1_555
H40_4 C48_4 1_555 1_555
H41_4 C48_4 1_555 1_555
O12_7 Zr2_7 1_555 1_555
H42_7 O12_7 1_555 1_555
Zr4_4 O8_4 1_555 1_555
Zr6_4 O9_4 1_555 1_555
Zr8_4 O6_4 1_555 1_555
Zr10_4 O7_4 1_555 1_555
O18_7 Zr1_4 1_555 1_555
O20_4 Zr1_4 1_555 1_555
O22_4 Zr1_4 1_555 1_555
O24_4 Zr2_7 1_555 1_555
O27_4 Zr1_4 1_555 1_555
Zr2_7 O2_7 1_555 1_555
O4_4 C1_4 1_555 1_555
C6_4 C7_4 1_555 1_555
C8_4 C9_4 1_555 1_555
C19_4 C20_4 1_555 1_555
C28_4 C31_4 1_555 1_555
C29_4 C30_4 1_555 1_555
C31_4 C32_4 1_555 1_555
C39_4 C40_4 1_555 1_555
C40_4 C41_4 1_555 1_555
C43_4 C44_4 1_555 1_555
O10_4 Zr8_4 1_555 1_555
C46_4 C47_4 1_555 1_555
O12_7 Zr6_4 1_555 1_555
Zr6_4 O17_7 1_555 1_555
Zr6_4 O20_4 1_555 1_555
H1_8 O2_8 1_555 1_555
Zr3_4 O11_4 1_555 1_555
O11_4 Zr2_8 1_555 1_555
O12_8 Zr2_8 1_555 1_555
H42_8 O12_8 1_555 1_555
O13_4 Zr3_4 1_555 1_555
O14_4 Zr2_8 1_555 1_555
C49_4 O13_4 1_555 1_555
C50_4 C49_4 1_555 1_555
C51_4 C50_4 1_555 1_555
H43_4 C51_4 1_555 1_555
C52_4 C51_4 1_555 1_555
C53_4 C52_4 1_555 1_555
C54_4 C53_4 1_555 1_555
C55_4 C50_4 1_555 1_555
H44_4 C55_4 1_555 1_555
C56_4 H45_4 1_555 1_555
C57_4 C53_4 1_555 1_555
C58_4 C57_4 1_555 1_555
H46_4 C58_4 1_555 1_555
C59_4 C58_4 1_555 1_555
H47_4 C59_4 1_555 1_555
C60_4 C52_4 1_555 1_555
H48_4 C60_4 1_555 1_555
H49_4 C60_4 1_555 1_555
H50_4 C60_4 1_555 1_555
C61_4 C54_4 1_555 1_555
H51_4 C61_4 1_555 1_555
H52_4 C61_4 1_555 1_555
H53_4 C61_4 1_555 1_555
O15_4 C62_4 1_555 1_555
O16_4 C62_4 1_555 1_555
C62_4 C63_4 1_555 1_555
C63_4 C64_4 1_555 1_555
C64_4 H54_4 1_555 1_555
C65_4 C64_4 1_555 1_555
C66_4 C65_4 1_555 1_555
C67_4 C66_4 1_555 1_555
C68_4 C63_4 1_555 1_555
H55_4 C68_4 1_555 1_555
C69_4 C56_4 1_555 1_555
C70_4 C59_4 1_555 1_555
H56_4 C70_4 1_555 1_555
C71_4 C65_4 1_555 1_555
H57_4 C71_4 1_555 1_555
H58_4 C71_4 1_555 1_555
H59_4 C71_4 1_555 1_555
C72_4 C67_4 1_555 1_555
H60_4 C72_4 1_555 1_555
H61_4 C72_4 1_555 1_555
H62_4 C72_4 1_555 1_555
Zr5_4 O2_8 1_555 1_555
Zr7_4 O15_4 1_555 1_555
Zr9_4 O16_4 1_555 1_555
O17_8 Zr3_4 1_555 1_555
O19_4 Zr3_4 1_555 1_555
O21_4 Zr3_4 1_555 1_555
O23_4 Zr2_8 1_555 1_555
O25_4 Zr3_4 1_555 1_555
O26_4 Zr3_4 1_555 1_555
Zr2_8 O2_8 1_555 1_555
Zr3_4 O12_8 1_555 1_555
O11_4 Zr5_4 1_555 1_555
O14_4 C49_4 1_555 1_555
C54_4 C55_4 1_555 1_555
C56_4 C57_4 1_555 1_555
C66_4 C69_4 1_555 1_555
C67_4 C68_4 1_555 1_555
C69_4 C70_4 1_555 1_555
Zr5_4 O18_8 1_555 1_555
Zr5_4 O19_4 1_555 1_555
H1_9 O2_9 1_555 1_555
Zr3_5 O11_5 1_555 1_555
O11_5 Zr2_9 1_555 1_555
O12_9 Zr2_9 1_555 1_555
H42_9 O12_9 1_555 1_555
O13_5 Zr3_5 1_555 1_555
O14_5 Zr2_9 1_555 1_555
C49_5 O13_5 1_555 1_555
C50_5 C49_5 1_555 1_555
C51_5 C50_5 1_555 1_555
H43_5 C51_5 1_555 1_555
C52_5 C51_5 1_555 1_555
C53_5 C52_5 1_555 1_555
C54_5 C53_5 1_555 1_555
C55_5 C50_5 1_555 1_555
H44_5 C55_5 1_555 1_555
C56_5 H45_5 1_555 1_555
C57_5 C53_5 1_555 1_555
C58_5 C57_5 1_555 1_555
H46_5 C58_5 1_555 1_555
C59_5 C58_5 1_555 1_555
H47_5 C59_5 1_555 1_555
C60_5 C52_5 1_555 1_555
H48_5 C60_5 1_555 1_555
H49_5 C60_5 1_555 1_555
H50_5 C60_5 1_555 1_555
C61_5 C54_5 1_555 1_555
H51_5 C61_5 1_555 1_555
H52_5 C61_5 1_555 1_555
H53_5 C61_5 1_555 1_555
O15_5 C62_5 1_555 1_555
O16_5 C62_5 1_555 1_555
C62_5 C63_5 1_555 1_555
C63_5 C64_5 1_555 1_555
C64_5 H54_5 1_555 1_555
C65_5 C64_5 1_555 1_555
C66_5 C65_5 1_555 1_555
C67_5 C66_5 1_555 1_555
C68_5 C63_5 1_555 1_555
H55_5 C68_5 1_555 1_555
C69_5 C56_5 1_555 1_555
C70_5 C59_5 1_555 1_555
H56_5 C70_5 1_555 1_555
C71_5 C65_5 1_555 1_555
H57_5 C71_5 1_555 1_555
H58_5 C71_5 1_555 1_555
H59_5 C71_5 1_555 1_555
C72_5 C67_5 1_555 1_555
H60_5 C72_5 1_555 1_555
H61_5 C72_5 1_555 1_555
H62_5 C72_5 1_555 1_555
Zr5_5 O2_9 1_555 1_555
Zr7_5 O15_5 1_555 1_555
Zr9_5 O16_5 1_555 1_555
O17_9 Zr3_5 1_555 1_555
O19_5 Zr3_5 1_555 1_555
O21_5 Zr3_5 1_555 1_555
O23_5 Zr2_9 1_555 1_555
O25_5 Zr3_5 1_555 1_555
O26_5 Zr3_5 1_555 1_555
Zr2_9 O2_9 1_555 1_555
Zr3_5 O12_9 1_555 1_555
O11_5 Zr5_5 1_555 1_555
O14_5 C49_5 1_555 1_555
C54_5 C55_5 1_555 1_555
C56_5 C57_5 1_555 1_555
C66_5 C69_5 1_555 1_555
C67_5 C68_5 1_555 1_555
C69_5 C70_5 1_555 1_555
Zr5_5 O18_9 1_555 1_555
Zr5_5 O19_5 1_555 1_555
Zr1_5 O1_5 1_555 1_555
Zr2_10 O1_5 1_555 1_555
O1_5 Zr6_5 1_555 1_555
O2_10 Zr1_5 1_555 1_555
H1_10 O2_10 1_555 1_555
O3_5 Zr1_5 1_555 1_555
O4_5 Zr2_10 1_555 1_555
C1_5 O3_5 1_555 1_555
C2_5 C1_5 1_555 1_555
C3_5 C2_5 1_555 1_555
H2_5 C3_5 1_555 1_555
C4_5 C3_5 1_555 1_555
C5_5 C4_5 1_555 1_555
C6_5 C5_5 1_555 1_555
C7_5 C2_5 1_555 1_555
H3_5 C7_5 1_555 1_555
C8_5 H4_5 1_555 1_555
C9_5 C5_5 1_555 1_555
C10_5 C9_5 1_555 1_555
H5_5 C10_5 1_555 1_555
C11_5 C10_5 1_555 1_555
H6_5 C11_5 1_555 1_555
C12_5 C4_5 1_555 1_555
H7_5 C12_5 1_555 1_555
H8_5 C12_5 1_555 1_555
H9_5 C12_5 1_555 1_555
C13_5 C6_5 1_555 1_555
H10_5 C13_5 1_555 1_555
H11_5 C13_5 1_555 1_555
H12_5 C13_5 1_555 1_555
O5_5 Zr1_5 1_555 1_555
C14_5 O5_5 1_555 1_555
C15_5 C14_5 1_555 1_555
C16_5 C15_5 1_555 1_555
H13_5 C16_5 1_555 1_555
C17_5 C16_5 1_555 1_555
C18_5 C17_5 1_555 1_555
C19_5 H14_5 1_555 1_555
C20_5 C18_5 1_555 1_555
C21_5 C20_5 1_555 1_555
H15_5 C21_5 1_555 1_555
C22_5 C21_5 1_555 1_555
H16_5 C22_5 1_555 1_555
C23_5 C17_5 1_555 1_555
H17_5 C23_5 1_555 1_555
H18_5 C23_5 1_555 1_555
H19_5 C23_5 1_555 1_555
O6_5 C24_5 1_555 1_555
O7_5 C24_5 1_555 1_555
C24_5 C25_5 1_555 1_555
C25_5 C26_5 1_555 1_555
C26_5 H20_5 1_555 1_555
C27_5 C26_5 1_555 1_555
C28_5 C27_5 1_555 1_555
C29_5 C28_5 1_555 1_555
C30_5 C25_5 1_555 1_555
H21_5 C30_5 1_555 1_555
C31_5 C8_5 1_555 1_555
C32_5 C11_5 1_555 1_555
H22_5 C32_5 1_555 1_555
C33_5 C27_5 1_555 1_555
H23_5 C33_5 1_555 1_555
H24_5 C33_5 1_555 1_555
H25_5 C33_5 1_555 1_555
C34_5 C29_5 1_555 1_555
H26_5 C34_5 1_555 1_555
H27_5 C34_5 1_555 1_555
H28_5 C34_5 1_555 1_555
O8_5 C35_5 1_555 1_555
C35_5 C36_5 1_555 1_555
C36_5 C37_5 1_555 1_555
C37_5 H29_5 1_555 1_555
C38_5 C37_5 1_555 1_555
C39_5 C38_5 1_555 1_555
C40_5 C19_5 1_555 1_555
C41_5 C22_5 1_555 1_555
H30_5 C41_5 1_555 1_555
C42_5 C38_5 1_555 1_555
H31_5 C42_5 1_555 1_555
H32_5 C42_5 1_555 1_555
H33_5 C42_5 1_555 1_555
O9_5 C14_5 1_555 1_555
C43_5 C15_5 1_555 1_555
H34_5 C43_5 1_555 1_555
C44_5 C18_5 1_555 1_555
C45_5 C44_5 1_555 1_555
H35_5 C45_5 1_555 1_555
H36_5 C45_5 1_555 1_555
H37_5 C45_5 1_555 1_555
O10_5 C35_5 1_555 1_555
C46_5 C36_5 1_555 1_555
H38_5 C46_5 1_555 1_555
C47_5 C39_5 1_555 1_555
C48_5 C47_5 1_555 1_555
H39_5 C48_5 1_555 1_555
H40_5 C48_5 1_555 1_555
H41_5 C48_5 1_555 1_555
O12_10 Zr2_10 1_555 1_555
H42_10 O12_10 1_555 1_555
Zr4_5 O8_5 1_555 1_555
Zr6_5 O9_5 1_555 1_555
Zr8_5 O6_5 1_555 1_555
Zr10_5 O7_5 1_555 1_555
O18_10 Zr1_5 1_555 1_555
O20_5 Zr1_5 1_555 1_555
O22_5 Zr1_5 1_555 1_555
O24_5 Zr2_10 1_555 1_555
O27_5 Zr1_5 1_555 1_555
Zr2_10 O2_10 1_555 1_555
O4_5 C1_5 1_555 1_555
C6_5 C7_5 1_555 1_555
C8_5 C9_5 1_555 1_555
C19_5 C20_5 1_555 1_555
C28_5 C31_5 1_555 1_555
C29_5 C30_5 1_555 1_555
C31_5 C32_5 1_555 1_555
C39_5 C40_5 1_555 1_555
C40_5 C41_5 1_555 1_555
C43_5 C44_5 1_555 1_555
O10_5 Zr8_5 1_555 1_555
C46_5 C47_5 1_555 1_555
O12_10 Zr6_5 1_555 1_555
Zr6_5 O17_10 1_555 1_555
Zr6_5 O20_5 1_555 1_555
C14_6 O25 1_555 1_555
C15_6 C14_6 1_555 1_555
C16_6 C15_6 1_555 1_555
H13_6 C16_6 1_555 1_555
C17_6 C16_6 1_555 1_555
C18_6 C17_6 1_555 1_555
C19_6 H14_6 1_555 1_555
C20_6 C18_6 1_555 1_555
C21_6 C20_6 1_555 1_555
H15_6 C21_6 1_555 1_555
C22_6 C21_6 1_555 1_555
H16_6 C22_6 1_555 1_555
C23_6 C17_6 1_555 1_555
H17_6 C23_6 1_555 1_555
H18_6 C23_6 1_555 1_555
H19_6 C23_6 1_555 1_555
O8_6 C35_6 1_555 1_555
C35_6 C36_6 1_555 1_555
C36_6 C37_6 1_555 1_555
C37_6 H29_6 1_555 1_555
C38_6 C37_6 1_555 1_555
C39_6 C38_6 1_555 1_555
C40_6 C19_6 1_555 1_555
C41_6 C22_6 1_555 1_555
H30_6 C41_6 1_555 1_555
C42_6 C38_6 1_555 1_555
H31_6 C42_6 1_555 1_555
H32_6 C42_6 1_555 1_555
H33_6 C42_6 1_555 1_555
O9_6 C14_6 1_555 1_555
C43_6 C15_6 1_555 1_555
H34_6 C43_6 1_555 1_555
C44_6 C18_6 1_555 1_555
C45_6 C44_6 1_555 1_555
H35_6 C45_6 1_555 1_555
H36_6 C45_6 1_555 1_555
H37_6 C45_6 1_555 1_555
O10_6 C35_6 1_555 1_555
C46_6 C36_6 1_555 1_555
H38_6 C46_6 1_555 1_555
C47_6 C39_6 1_555 1_555
C48_6 C47_6 1_555 1_555
H39_6 C48_6 1_555 1_555
H40_6 C48_6 1_555 1_555
H41_6 C48_6 1_555 1_555
Zr4_6 O8_6 1_555 1_555
Zr5 O9_6 1_555 1_555
C19_6 C20_6 1_555 1_555
C39_6 C40_6 1_555 1_555
C40_6 C41_6 1_555 1_555
C43_6 C44_6 1_555 1_555
O10_6 Zr7 1_555 1_555
C46_6 C47_6 1_555 1_555
C14_7 O25_5 1_555 1_555
C15_7 C14_7 1_555 1_555
C16_7 C15_7 1_555 1_555
H13_7 C16_7 1_555 1_555
C17_7 C16_7 1_555 1_555
C18_7 C17_7 1_555 1_555
C19_7 H14_7 1_555 1_555
C20_7 C18_7 1_555 1_555
C21_7 C20_7 1_555 1_555
H15_7 C21_7 1_555 1_555
C22_7 C21_7 1_555 1_555
H16_7 C22_7 1_555 1_555
C23_7 C17_7 1_555 1_555
H17_7 C23_7 1_555 1_555
H18_7 C23_7 1_555 1_555
H19_7 C23_7 1_555 1_555
O8_7 C35_7 1_555 1_555
C35_7 C36_7 1_555 1_555
C36_7 C37_7 1_555 1_555
C37_7 H29_7 1_555 1_555
C38_7 C37_7 1_555 1_555
C39_7 C38_7 1_555 1_555
C40_7 C19_7 1_555 1_555
C41_7 C22_7 1_555 1_555
H30_7 C41_7 1_555 1_555
C42_7 C38_7 1_555 1_555
H31_7 C42_7 1_555 1_555
H32_7 C42_7 1_555 1_555
H33_7 C42_7 1_555 1_555
O9_7 C14_7 1_555 1_555
C43_7 C15_7 1_555 1_555
H34_7 C43_7 1_555 1_555
C44_7 C18_7 1_555 1_555
C45_7 C44_7 1_555 1_555
H35_7 C45_7 1_555 1_555
H36_7 C45_7 1_555 1_555
H37_7 C45_7 1_555 1_555
O10_7 C35_7 1_555 1_555
C46_7 C36_7 1_555 1_555
H38_7 C46_7 1_555 1_555
C47_7 C39_7 1_555 1_555
C48_7 C47_7 1_555 1_555
H39_7 C48_7 1_555 1_555
H40_7 C48_7 1_555 1_555
H41_7 C48_7 1_555 1_555
Zr4_7 O8_7 1_555 1_555
Zr5_5 O9_7 1_555 1_555
C19_7 C20_7 1_555 1_555
C39_7 C40_7 1_555 1_555
C40_7 C41_7 1_555 1_555
C43_7 C44_7 1_555 1_555
O10_7 Zr7_5 1_555 1_555
C46_7 C47_7 1_555 1_555
Zr4_6 O1_6 1_555 1_555
Zr9 O1_6 1_555 1_555
O1_6 Zr7 1_555 1_555
O2_11 Zr4_6 1_555 1_555
H1_11 O2_11 1_555 1_555
O3_6 Zr4_6 1_555 1_555
O4_6 Zr9 1_555 1_555
C1_6 O3_6 1_555 1_555
C2_6 C1_6 1_555 1_555
C3_6 C2_6 1_555 1_555
H2_6 C3_6 1_555 1_555
C4_6 C3_6 1_555 1_555
C5_6 C4_6 1_555 1_555
C6_6 C5_6 1_555 1_555
C7_6 C2_6 1_555 1_555
H3_6 C7_6 1_555 1_555
C8_6 H4_6 1_555 1_555
C9_6 C5_6 1_555 1_555
C10_6 C9_6 1_555 1_555
H5_6 C10_6 1_555 1_555
C11_6 C10_6 1_555 1_555
H6_6 C11_6 1_555 1_555
C12_6 C4_6 1_555 1_555
H7_6 C12_6 1_555 1_555
H8_6 C12_6 1_555 1_555
H9_6 C12_6 1_555 1_555
C13_6 C6_6 1_555 1_555
H10_6 C13_6 1_555 1_555
H11_6 C13_6 1_555 1_555
H12_6 C13_6 1_555 1_555
O6_6 C24_6 1_555 1_555
O23 C24_6 1_555 1_555
C24_6 C25_6 1_555 1_555
C25_6 C26_6 1_555 1_555
C26_6 H20_6 1_555 1_555
C27_6 C26_6 1_555 1_555
C28_6 C27_6 1_555 1_555
C29_6 C28_6 1_555 1_555
C30_6 C25_6 1_555 1_555
H21_6 C30_6 1_555 1_555
C31_6 C8_6 1_555 1_555
C32_6 C11_6 1_555 1_555
H22_6 C32_6 1_555 1_555
C33_6 C27_6 1_555 1_555
H23_6 C33_6 1_555 1_555
H24_6 C33_6 1_555 1_555
H25_6 C33_6 1_555 1_555
C34_6 C29_6 1_555 1_555
H26_6 C34_6 1_555 1_555
H27_6 C34_6 1_555 1_555
H28_6 C34_6 1_555 1_555
O12_11 Zr9 1_555 1_555
H42_11 O12_11 1_555 1_555
Zr5 O6_6 1_555 1_555
O18_11 Zr4_6 1_555 1_555
O20_6 Zr4_6 1_555 1_555
O22_6 Zr4_6 1_555 1_555
O27_6 Zr4_6 1_555 1_555
Zr9 O2_11 1_555 1_555
O4_6 C1_6 1_555 1_555
C6_6 C7_6 1_555 1_555
C8_6 C9_6 1_555 1_555
C28_6 C31_6 1_555 1_555
C29_6 C30_6 1_555 1_555
C31_6 C32_6 1_555 1_555
O12_11 Zr7 1_555 1_555
Zr7 O17_11 1_555 1_555
Zr7 O20_6 1_555 1_555
H1_12 O2_12 1_555 1_555
Zr3_6 O11_6 1_555 1_555
O11_6 Zr9_2 1_555 1_555
O12_12 Zr9_2 1_555 1_555
H42_12 O12_12 1_555 1_555
O13_6 Zr3_6 1_555 1_555
O14_6 Zr9_2 1_555 1_555
C49_6 O13_6 1_555 1_555
C50_6 C49_6 1_555 1_555
C51_6 C50_6 1_555 1_555
H43_6 C51_6 1_555 1_555
C52_6 C51_6 1_555 1_555
C53_6 C52_6 1_555 1_555
C54_6 C53_6 1_555 1_555
C55_6 C50_6 1_555 1_555
H44_6 C55_6 1_555 1_555
C56_6 H45_6 1_555 1_555
C57_6 C53_6 1_555 1_555
C58_6 C57_6 1_555 1_555
H46_6 C58_6 1_555 1_555
C59_6 C58_6 1_555 1_555
H47_6 C59_6 1_555 1_555
C60_6 C52_6 1_555 1_555
H48_6 C60_6 1_555 1_555
H49_6 C60_6 1_555 1_555
H50_6 C60_6 1_555 1_555
C61_6 C54_6 1_555 1_555
H51_6 C61_6 1_555 1_555
H52_6 C61_6 1_555 1_555
H53_6 C61_6 1_555 1_555
O15_6 C62_6 1_555 1_555
O23_3 C62_6 1_555 1_555
C62_6 C63_6 1_555 1_555
C63_6 C64_6 1_555 1_555
C64_6 H54_6 1_555 1_555
C65_6 C64_6 1_555 1_555
C66_6 C65_6 1_555 1_555
C67_6 C66_6 1_555 1_555
C68_6 C63_6 1_555 1_555
H55_6 C68_6 1_555 1_555
C69_6 C56_6 1_555 1_555
C70_6 C59_6 1_555 1_555
H56_6 C70_6 1_555 1_555
C71_6 C65_6 1_555 1_555
H57_6 C71_6 1_555 1_555
H58_6 C71_6 1_555 1_555
H59_6 C71_6 1_555 1_555
C72_6 C67_6 1_555 1_555
H60_6 C72_6 1_555 1_555
H61_6 C72_6 1_555 1_555
H62_6 C72_6 1_555 1_555
Zr7_3 O2_12 1_555 1_555
Zr5_3 O15_6 1_555 1_555
O17_12 Zr3_6 1_555 1_555
O19_6 Zr3_6 1_555 1_555
O21_6 Zr3_6 1_555 1_555
O25_6 Zr3_6 1_555 1_555
O26_6 Zr3_6 1_555 1_555
Zr9_2 O2_12 1_555 1_555
Zr3_6 O12_12 1_555 1_555
O11_6 Zr7_3 1_555 1_555
O14_6 C49_6 1_555 1_555
C54_6 C55_6 1_555 1_555
C56_6 C57_6 1_555 1_555
C66_6 C69_6 1_555 1_555
C67_6 C68_6 1_555 1_555
C69_6 C70_6 1_555 1_555
Zr7_3 O18_12 1_555 1_555
Zr7_3 O19_6 1_555 1_555
C14_8 O25_3 1_555 1_555
C15_8 C14_8 1_555 1_555
C16_8 C15_8 1_555 1_555
H13_8 C16_8 1_555 1_555
C17_8 C16_8 1_555 1_555
C18_8 C17_8 1_555 1_555
C19_8 H14_8 1_555 1_555
C20_8 C18_8 1_555 1_555
C21_8 C20_8 1_555 1_555
H15_8 C21_8 1_555 1_555
C22_8 C21_8 1_555 1_555
H16_8 C22_8 1_555 1_555
C23_8 C17_8 1_555 1_555
H17_8 C23_8 1_555 1_555
H18_8 C23_8 1_555 1_555
H19_8 C23_8 1_555 1_555
O25_6 C35_8 1_555 1_555
C35_8 C36_8 1_555 1_555
C36_8 C37_8 1_555 1_555
C37_8 H29_8 1_555 1_555
C38_8 C37_8 1_555 1_555
C39_8 C38_8 1_555 1_555
C40_8 C19_8 1_555 1_555
C41_8 C22_8 1_555 1_555
H30_8 C41_8 1_555 1_555
C42_8 C38_8 1_555 1_555
H31_8 C42_8 1_555 1_555
H32_8 C42_8 1_555 1_555
H33_8 C42_8 1_555 1_555
O9_8 C14_8 1_555 1_555
C43_8 C15_8 1_555 1_555
H34_8 C43_8 1_555 1_555
C44_8 C18_8 1_555 1_555
C45_8 C44_8 1_555 1_555
H35_8 C45_8 1_555 1_555
H36_8 C45_8 1_555 1_555
H37_8 C45_8 1_555 1_555
O10_8 C35_8 1_555 1_555
C46_8 C36_8 1_555 1_555
H38_8 C46_8 1_555 1_555
C47_8 C39_8 1_555 1_555
C48_8 C47_8 1_555 1_555
H39_8 C48_8 1_555 1_555
H40_8 C48_8 1_555 1_555
H41_8 C48_8 1_555 1_555
Zr5_3 O9_8 1_555 1_555
C19_8 C20_8 1_555 1_555
C39_8 C40_8 1_555 1_555
C40_8 C41_8 1_555 1_555
C43_8 C44_8 1_555 1_555
O10_8 Zr7_3 1_555 1_555
C46_8 C47_8 1_555 1_555
H1_13 O2_13 1_555 1_555
Zr4 O11_7 1_555 1_555
O11_7 Zr10 1_555 1_555
O12_13 Zr10 1_555 1_555
H42_13 O12_13 1_555 1_555
O13_7 Zr4 1_555 1_555
O14_7 Zr10 1_555 1_555
C49_7 O13_7 1_555 1_555
C50_7 C49_7 1_555 1_555
C51_7 C50_7 1_555 1_555
H43_7 C51_7 1_555 1_555
C52_7 C51_7 1_555 1_555
C53_7 C52_7 1_555 1_555
C54_7 C53_7 1_555 1_555
C55_7 C50_7 1_555 1_555
H44_7 C55_7 1_555 1_555
C56_7 H45_7 1_555 1_555
C57_7 C53_7 1_555 1_555
C58_7 C57_7 1_555 1_555
H46_7 C58_7 1_555 1_555
C59_7 C58_7 1_555 1_555
H47_7 C59_7 1_555 1_555
C60_7 C52_7 1_555 1_555
H48_7 C60_7 1_555 1_555
H49_7 C60_7 1_555 1_555
H50_7 C60_7 1_555 1_555
C61_7 C54_7 1_555 1_555
H51_7 C61_7 1_555 1_555
H52_7 C61_7 1_555 1_555
H53_7 C61_7 1_555 1_555
O15_7 C62_7 1_555 1_555
O24 C62_7 1_555 1_555
C62_7 C63_7 1_555 1_555
C63_7 C64_7 1_555 1_555
C64_7 H54_7 1_555 1_555
C65_7 C64_7 1_555 1_555
C66_7 C65_7 1_555 1_555
C67_7 C66_7 1_555 1_555
C68_7 C63_7 1_555 1_555
H55_7 C68_7 1_555 1_555
C69_7 C56_7 1_555 1_555
C70_7 C59_7 1_555 1_555
H56_7 C70_7 1_555 1_555
C71_7 C65_7 1_555 1_555
H57_7 C71_7 1_555 1_555
H58_7 C71_7 1_555 1_555
H59_7 C71_7 1_555 1_555
C72_7 C67_7 1_555 1_555
H60_7 C72_7 1_555 1_555
H61_7 C72_7 1_555 1_555
H62_7 C72_7 1_555 1_555
Zr8 O2_13 1_555 1_555
Zr6 O15_7 1_555 1_555
O17_13 Zr4 1_555 1_555
O19_7 Zr4 1_555 1_555
O21_7 Zr4 1_555 1_555
O26_7 Zr4 1_555 1_555
Zr10 O2_13 1_555 1_555
Zr4 O12_13 1_555 1_555
O11_7 Zr8 1_555 1_555
O14_7 C49_7 1_555 1_555
C54_7 C55_7 1_555 1_555
C56_7 C57_7 1_555 1_555
C66_7 C69_7 1_555 1_555
C67_7 C68_7 1_555 1_555
C69_7 C70_7 1_555 1_555
Zr8 O18_13 1_555 1_555
Zr8 O19_7 1_555 1_555
Zr4_3 O1_7 1_555 1_555
Zr10_2 O1_7 1_555 1_555
O1_7 Zr8_3 1_555 1_555
O2_14 Zr4_3 1_555 1_555
H1_14 O2_14 1_555 1_555
O3_7 Zr4_3 1_555 1_555
O4_7 Zr10_2 1_555 1_555
C1_7 O3_7 1_555 1_555
C2_7 C1_7 1_555 1_555
C3_7 C2_7 1_555 1_555
H2_7 C3_7 1_555 1_555
C4_7 C3_7 1_555 1_555
C5_7 C4_7 1_555 1_555
C6_7 C5_7 1_555 1_555
C7_7 C2_7 1_555 1_555
H3_7 C7_7 1_555 1_555
C8_7 H4_7 1_555 1_555
C9_7 C5_7 1_555 1_555
C10_7 C9_7 1_555 1_555
H5_7 C10_7 1_555 1_555
C11_7 C10_7 1_555 1_555
H6_7 C11_7 1_555 1_555
C12_7 C4_7 1_555 1_555
H7_7 C12_7 1_555 1_555
H8_7 C12_7 1_555 1_555
H9_7 C12_7 1_555 1_555
C13_7 C6_7 1_555 1_555
H10_7 C13_7 1_555 1_555
H11_7 C13_7 1_555 1_555
H12_7 C13_7 1_555 1_555
O6_7 C24_7 1_555 1_555
O24_3 C24_7 1_555 1_555
C24_7 C25_7 1_555 1_555
C25_7 C26_7 1_555 1_555
C26_7 H20_7 1_555 1_555
C27_7 C26_7 1_555 1_555
C28_7 C27_7 1_555 1_555
C29_7 C28_7 1_555 1_555
C30_7 C25_7 1_555 1_555
H21_7 C30_7 1_555 1_555
C31_7 C8_7 1_555 1_555
C32_7 C11_7 1_555 1_555
H22_7 C32_7 1_555 1_555
C33_7 C27_7 1_555 1_555
H23_7 C33_7 1_555 1_555
H24_7 C33_7 1_555 1_555
H25_7 C33_7 1_555 1_555
C34_7 C29_7 1_555 1_555
H26_7 C34_7 1_555 1_555
H27_7 C34_7 1_555 1_555
H28_7 C34_7 1_555 1_555
O12_14 Zr10_2 1_555 1_555
H42_14 O12_14 1_555 1_555
Zr6_3 O6_7 1_555 1_555
O18_14 Zr4_3 1_555 1_555
O20_7 Zr4_3 1_555 1_555
O22_7 Zr4_3 1_555 1_555
O27_7 Zr4_3 1_555 1_555
Zr10_2 O2_14 1_555 1_555
O4_7 C1_7 1_555 1_555
C6_7 C7_7 1_555 1_555
C8_7 C9_7 1_555 1_555
C28_7 C31_7 1_555 1_555
C29_7 C30_7 1_555 1_555
C31_7 C32_7 1_555 1_555
O12_14 Zr8_3 1_555 1_555
Zr8_3 O17_14 1_555 1_555
Zr8_3 O20_7 1_555 1_555
Zr4_7 O1_8 1_555 1_555
Zr9_5 O1_8 1_555 1_555
O1_8 Zr7_5 1_555 1_555
O2_15 Zr4_7 1_555 1_555
H1_15 O2_15 1_555 1_555
O3_8 Zr4_7 1_555 1_555
O4_8 Zr9_5 1_555 1_555
C1_8 O3_8 1_555 1_555
C2_8 C1_8 1_555 1_555
C3_8 C2_8 1_555 1_555
H2_8 C3_8 1_555 1_555
C4_8 C3_8 1_555 1_555
C5_8 C4_8 1_555 1_555
C6_8 C5_8 1_555 1_555
C7_8 C2_8 1_555 1_555
H3_8 C7_8 1_555 1_555
C8_8 H4_8 1_555 1_555
C9_8 C5_8 1_555 1_555
C10_8 C9_8 1_555 1_555
H5_8 C10_8 1_555 1_555
C11_8 C10_8 1_555 1_555
H6_8 C11_8 1_555 1_555
C12_8 C4_8 1_555 1_555
H7_8 C12_8 1_555 1_555
H8_8 C12_8 1_555 1_555
H9_8 C12_8 1_555 1_555
C13_8 C6_8 1_555 1_555
H10_8 C13_8 1_555 1_555
H11_8 C13_8 1_555 1_555
H12_8 C13_8 1_555 1_555
O6_8 C24_8 1_555 1_555
O23_5 C24_8 1_555 1_555
C24_8 C25_8 1_555 1_555
C25_8 C26_8 1_555 1_555
C26_8 H20_8 1_555 1_555
C27_8 C26_8 1_555 1_555
C28_8 C27_8 1_555 1_555
C29_8 C28_8 1_555 1_555
C30_8 C25_8 1_555 1_555
H21_8 C30_8 1_555 1_555
C31_8 C8_8 1_555 1_555
C32_8 C11_8 1_555 1_555
H22_8 C32_8 1_555 1_555
C33_8 C27_8 1_555 1_555
H23_8 C33_8 1_555 1_555
H24_8 C33_8 1_555 1_555
H25_8 C33_8 1_555 1_555
C34_8 C29_8 1_555 1_555
H26_8 C34_8 1_555 1_555
H27_8 C34_8 1_555 1_555
H28_8 C34_8 1_555 1_555
O12_15 Zr9_5 1_555 1_555
H42_15 O12_15 1_555 1_555
Zr5_5 O6_8 1_555 1_555
O18_15 Zr4_7 1_555 1_555
O20_8 Zr4_7 1_555 1_555
O22_8 Zr4_7 1_555 1_555
O27_8 Zr4_7 1_555 1_555
Zr9_5 O2_15 1_555 1_555
O4_8 C1_8 1_555 1_555
C6_8 C7_8 1_555 1_555
C8_8 C9_8 1_555 1_555
C28_8 C31_8 1_555 1_555
C29_8 C30_8 1_555 1_555
C31_8 C32_8 1_555 1_555
O12_15 Zr7_5 1_555 1_555
Zr7_5 O17_15 1_555 1_555
Zr7_5 O20_8 1_555 1_555
H1_16 O2_16 1_555 1_555
Zr3_7 O11_8 1_555 1_555
O11_8 Zr9_6 1_555 1_555
O12_16 Zr9_6 1_555 1_555
H42_16 O12_16 1_555 1_555
O13_8 Zr3_7 1_555 1_555
O14_8 Zr9_6 1_555 1_555
C49_8 O13_8 1_555 1_555
C50_8 C49_8 1_555 1_555
C51_8 C50_8 1_555 1_555
H43_8 C51_8 1_555 1_555
C52_8 C51_8 1_555 1_555
C53_8 C52_8 1_555 1_555
C54_8 C53_8 1_555 1_555
C55_8 C50_8 1_555 1_555
H44_8 C55_8 1_555 1_555
C56_8 H45_8 1_555 1_555
C57_8 C53_8 1_555 1_555
C58_8 C57_8 1_555 1_555
H46_8 C58_8 1_555 1_555
C59_8 C58_8 1_555 1_555
H47_8 C59_8 1_555 1_555
C60_8 C52_8 1_555 1_555
H48_8 C60_8 1_555 1_555
H49_8 C60_8 1_555 1_555
H50_8 C60_8 1_555 1_555
C61_8 C54_8 1_555 1_555
H51_8 C61_8 1_555 1_555
H52_8 C61_8 1_555 1_555
H53_8 C61_8 1_555 1_555
O15_8 C62_8 1_555 1_555
O16_6 C62_8 1_555 1_555
C62_8 C63_8 1_555 1_555
C63_8 C64_8 1_555 1_555
C64_8 H54_8 1_555 1_555
C65_8 C64_8 1_555 1_555
C66_8 C65_8 1_555 1_555
C67_8 C66_8 1_555 1_555
C68_8 C63_8 1_555 1_555
H55_8 C68_8 1_555 1_555
C69_8 C56_8 1_555 1_555
C70_8 C59_8 1_555 1_555
H56_8 C70_8 1_555 1_555
C71_8 C65_8 1_555 1_555
H57_8 C71_8 1_555 1_555
H58_8 C71_8 1_555 1_555
H59_8 C71_8 1_555 1_555
C72_8 C67_8 1_555 1_555
H60_8 C72_8 1_555 1_555
H61_8 C72_8 1_555 1_555
H62_8 C72_8 1_555 1_555
Zr5_6 O2_16 1_555 1_555
Zr7_6 O15_8 1_555 1_555
Zr9_7 O16_6 1_555 1_555
O17_16 Zr3_7 1_555 1_555
O19_8 Zr3_7 1_555 1_555
O21_8 Zr3_7 1_555 1_555
O23_6 Zr9_6 1_555 1_555
O25_7 Zr3_7 1_555 1_555
O26_8 Zr3_7 1_555 1_555
Zr9_6 O2_16 1_555 1_555
Zr3_7 O12_16 1_555 1_555
O11_8 Zr5_6 1_555 1_555
O14_8 C49_8 1_555 1_555
C54_8 C55_8 1_555 1_555
C56_8 C57_8 1_555 1_555
C66_8 C69_8 1_555 1_555
C67_8 C68_8 1_555 1_555
C69_8 C70_8 1_555 1_555
Zr5_6 O18_16 1_555 1_555
Zr5_6 O19_8 1_555 1_555
Zr4_2 O1_9 1_555 1_555
Zr10_3 O1_9 1_555 1_555
O1_9 Zr8_2 1_555 1_555
O2_17 Zr4_2 1_555 1_555
H1_17 O2_17 1_555 1_555
O3_9 Zr4_2 1_555 1_555
O4_9 Zr10_3 1_555 1_555
C1_9 O3_9 1_555 1_555
C2_9 C1_9 1_555 1_555
C3_9 C2_9 1_555 1_555
H2_9 C3_9 1_555 1_555
C4_9 C3_9 1_555 1_555
C5_9 C4_9 1_555 1_555
C6_9 C5_9 1_555 1_555
C7_9 C2_9 1_555 1_555
H3_9 C7_9 1_555 1_555
C8_9 H4_9 1_555 1_555
C9_9 C5_9 1_555 1_555
C10_9 C9_9 1_555 1_555
H5_9 C10_9 1_555 1_555
C11_9 C10_9 1_555 1_555
H6_9 C11_9 1_555 1_555
C12_9 C4_9 1_555 1_555
H7_9 C12_9 1_555 1_555
H8_9 C12_9 1_555 1_555
H9_9 C12_9 1_555 1_555
C13_9 C6_9 1_555 1_555
H10_9 C13_9 1_555 1_555
H11_9 C13_9 1_555 1_555
H12_9 C13_9 1_555 1_555
O6_9 C24_9 1_555 1_555
O24_2 C24_9 1_555 1_555
C24_9 C25_9 1_555 1_555
C25_9 C26_9 1_555 1_555
C26_9 H20_9 1_555 1_555
C27_9 C26_9 1_555 1_555
C28_9 C27_9 1_555 1_555
C29_9 C28_9 1_555 1_555
C30_9 C25_9 1_555 1_555
H21_9 C30_9 1_555 1_555
C31_9 C8_9 1_555 1_555
C32_9 C11_9 1_555 1_555
H22_9 C32_9 1_555 1_555
C33_9 C27_9 1_555 1_555
H23_9 C33_9 1_555 1_555
H24_9 C33_9 1_555 1_555
H25_9 C33_9 1_555 1_555
C34_9 C29_9 1_555 1_555
H26_9 C34_9 1_555 1_555
H27_9 C34_9 1_555 1_555
H28_9 C34_9 1_555 1_555
O12_17 Zr10_3 1_555 1_555
H42_17 O12_17 1_555 1_555
Zr6_2 O6_9 1_555 1_555
O18_17 Zr4_2 1_555 1_555
O20_9 Zr4_2 1_555 1_555
O22_9 Zr4_2 1_555 1_555
O27_9 Zr4_2 1_555 1_555
Zr10_3 O2_17 1_555 1_555
O4_9 C1_9 1_555 1_555
C6_9 C7_9 1_555 1_555
C8_9 C9_9 1_555 1_555
C28_9 C31_9 1_555 1_555
C29_9 C30_9 1_555 1_555
C31_9 C32_9 1_555 1_555
O12_17 Zr8_2 1_555 1_555
Zr8_2 O17_17 1_555 1_555
Zr8_2 O20_9 1_555 1_555
H1_18 O2_18 1_555 1_555
Zr4_4 O11_9 1_555 1_555
O11_9 Zr10_4 1_555 1_555
O12_18 Zr10_4 1_555 1_555
H42_18 O12_18 1_555 1_555
O13_9 Zr4_4 1_555 1_555
O14_9 Zr10_4 1_555 1_555
C49_9 O13_9 1_555 1_555
C50_9 C49_9 1_555 1_555
C51_9 C50_9 1_555 1_555
H43_9 C51_9 1_555 1_555
C52_9 C51_9 1_555 1_555
C53_9 C52_9 1_555 1_555
C54_9 C53_9 1_555 1_555
C55_9 C50_9 1_555 1_555
H44_9 C55_9 1_555 1_555
C56_9 H45_9 1_555 1_555
C57_9 C53_9 1_555 1_555
C58_9 C57_9 1_555 1_555
H46_9 C58_9 1_555 1_555
C59_9 C58_9 1_555 1_555
H47_9 C59_9 1_555 1_555
C60_9 C52_9 1_555 1_555
H48_9 C60_9 1_555 1_555
H49_9 C60_9 1_555 1_555
H50_9 C60_9 1_555 1_555
C61_9 C54_9 1_555 1_555
H51_9 C61_9 1_555 1_555
H52_9 C61_9 1_555 1_555
H53_9 C61_9 1_555 1_555
O15_9 C62_9 1_555 1_555
O24_4 C62_9 1_555 1_555
C62_9 C63_9 1_555 1_555
C63_9 C64_9 1_555 1_555
C64_9 H54_9 1_555 1_555
C65_9 C64_9 1_555 1_555
C66_9 C65_9 1_555 1_555
C67_9 C66_9 1_555 1_555
C68_9 C63_9 1_555 1_555
H55_9 C68_9 1_555 1_555
C69_9 C56_9 1_555 1_555
C70_9 C59_9 1_555 1_555
H56_9 C70_9 1_555 1_555
C71_9 C65_9 1_555 1_555
H57_9 C71_9 1_555 1_555
H58_9 C71_9 1_555 1_555
H59_9 C71_9 1_555 1_555
C72_9 C67_9 1_555 1_555
H60_9 C72_9 1_555 1_555
H61_9 C72_9 1_555 1_555
H62_9 C72_9 1_555 1_555
Zr8_4 O2_18 1_555 1_555
Zr6_4 O15_9 1_555 1_555
O17_18 Zr4_4 1_555 1_555
O19_9 Zr4_4 1_555 1_555
O21_9 Zr4_4 1_555 1_555
O26_9 Zr4_4 1_555 1_555
Zr10_4 O2_18 1_555 1_555
Zr4_4 O12_18 1_555 1_555
O11_9 Zr8_4 1_555 1_555
O14_9 C49_9 1_555 1_555
C54_9 C55_9 1_555 1_555
C56_9 C57_9 1_555 1_555
C66_9 C69_9 1_555 1_555
C67_9 C68_9 1_555 1_555
C69_9 C70_9 1_555 1_555
Zr8_4 O18_18 1_555 1_555
Zr8_4 O19_9 1_555 1_555
Zr4_5 O1_10 1_555 1_555
Zr10_5 O1_10 1_555 1_555
O1_10 Zr8_5 1_555 1_555
O2_19 Zr4_5 1_555 1_555
H1_19 O2_19 1_555 1_555
O3_10 Zr4_5 1_555 1_555
O4_10 Zr10_5 1_555 1_555
C1_10 O3_10 1_555 1_555
C2_10 C1_10 1_555 1_555
C3_10 C2_10 1_555 1_555
H2_10 C3_10 1_555 1_555
C4_10 C3_10 1_555 1_555
C5_10 C4_10 1_555 1_555
C6_10 C5_10 1_555 1_555
C7_10 C2_10 1_555 1_555
H3_10 C7_10 1_555 1_555
C8_10 H4_10 1_555 1_555
C9_10 C5_10 1_555 1_555
C10_10 C9_10 1_555 1_555
H5_10 C10_10 1_555 1_555
C11_10 C10_10 1_555 1_555
H6_10 C11_10 1_555 1_555
C12_10 C4_10 1_555 1_555
H7_10 C12_10 1_555 1_555
H8_10 C12_10 1_555 1_555
H9_10 C12_10 1_555 1_555
C13_10 C6_10 1_555 1_555
H10_10 C13_10 1_555 1_555
H11_10 C13_10 1_555 1_555
H12_10 C13_10 1_555 1_555
O6_10 C24_10 1_555 1_555
O24_5 C24_10 1_555 1_555
C24_10 C25_10 1_555 1_555
C25_10 C26_10 1_555 1_555
C26_10 H20_10 1_555 1_555
C27_10 C26_10 1_555 1_555
C28_10 C27_10 1_555 1_555
C29_10 C28_10 1_555 1_555
C30_10 C25_10 1_555 1_555
H21_10 C30_10 1_555 1_555
C31_10 C8_10 1_555 1_555
C32_10 C11_10 1_555 1_555
H22_10 C32_10 1_555 1_555
C33_10 C27_10 1_555 1_555
H23_10 C33_10 1_555 1_555
H24_10 C33_10 1_555 1_555
H25_10 C33_10 1_555 1_555
C34_10 C29_10 1_555 1_555
H26_10 C34_10 1_555 1_555
H27_10 C34_10 1_555 1_555
H28_10 C34_10 1_555 1_555
O12_19 Zr10_5 1_555 1_555
H42_19 O12_19 1_555 1_555
Zr6_5 O6_10 1_555 1_555
O18_19 Zr4_5 1_555 1_555
O20_10 Zr4_5 1_555 1_555
O22_10 Zr4_5 1_555 1_555
O27_10 Zr4_5 1_555 1_555
Zr10_5 O2_19 1_555 1_555
O4_10 C1_10 1_555 1_555
C6_10 C7_10 1_555 1_555
C8_10 C9_10 1_555 1_555
C28_10 C31_10 1_555 1_555
C29_10 C30_10 1_555 1_555
C31_10 C32_10 1_555 1_555
O12_19 Zr8_5 1_555 1_555
Zr8_5 O17_19 1_555 1_555
Zr8_5 O20_10 1_555 1_555
H1_20 O2_20 1_555 1_555
Zr3_8 O11_10 1_555 1_555
O11_10 Zr10_6 1_555 1_555
O12_20 Zr10_6 1_555 1_555
H42_20 O12_20 1_555 1_555
O13_10 Zr3_8 1_555 1_555
O14_10 Zr10_6 1_555 1_555
C49_10 O13_10 1_555 1_555
C50_10 C49_10 1_555 1_555
C51_10 C50_10 1_555 1_555
H43_10 C51_10 1_555 1_555
C52_10 C51_10 1_555 1_555
C53_10 C52_10 1_555 1_555
C54_10 C53_10 1_555 1_555
C55_10 C50_10 1_555 1_555
H44_10 C55_10 1_555 1_555
C56_10 H45_10 1_555 1_555
C57_10 C53_10 1_555 1_555
C58_10 C57_10 1_555 1_555
H46_10 C58_10 1_555 1_555
C59_10 C58_10 1_555 1_555
H47_10 C59_10 1_555 1_555
C60_10 C52_10 1_555 1_555
H48_10 C60_10 1_555 1_555
H49_10 C60_10 1_555 1_555
H50_10 C60_10 1_555 1_555
C61_10 C54_10 1_555 1_555
H51_10 C61_10 1_555 1_555
H52_10 C61_10 1_555 1_555
H53_10 C61_10 1_555 1_555
O15_10 C62_10 1_555 1_555
O16_7 C62_10 1_555 1_555
C62_10 C63_10 1_555 1_555
C63_10 C64_10 1_555 1_555
C64_10 H54_10 1_555 1_555
C65_10 C64_10 1_555 1_555
C66_10 C65_10 1_555 1_555
C67_10 C66_10 1_555 1_555
C68_10 C63_10 1_555 1_555
H55_10 C68_10 1_555 1_555
C69_10 C56_10 1_555 1_555
C70_10 C59_10 1_555 1_555
H56_10 C70_10 1_555 1_555
C71_10 C65_10 1_555 1_555
H57_10 C71_10 1_555 1_555
H58_10 C71_10 1_555 1_555
H59_10 C71_10 1_555 1_555
C72_10 C67_10 1_555 1_555
H60_10 C72_10 1_555 1_555
H61_10 C72_10 1_555 1_555
H62_10 C72_10 1_555 1_555
Zr5_7 O2_20 1_555 1_555
Zr7_7 O15_10 1_555 1_555
Zr9_8 O16_7 1_555 1_555
O17_20 Zr3_8 1_555 1_555
O19_10 Zr3_8 1_555 1_555
O21_10 Zr3_8 1_555 1_555
O23_7 Zr10_6 1_555 1_555
O25_8 Zr3_8 1_555 1_555
O26_10 Zr3_8 1_555 1_555
Zr10_6 O2_20 1_555 1_555
Zr3_8 O12_20 1_555 1_555
O11_10 Zr5_7 1_555 1_555
O14_10 C49_10 1_555 1_555
C54_10 C55_10 1_555 1_555
C56_10 C57_10 1_555 1_555
C66_10 C69_10 1_555 1_555
C67_10 C68_10 1_555 1_555
C69_10 C70_10 1_555 1_555
Zr5_7 O18_20 1_555 1_555
Zr5_7 O19_10 1_555 1_555
Zr1_6 O1_11 1_555 1_555
Zr9_3 O1_11 1_555 1_555
O1_11 Zr7_2 1_555 1_555
O2_21 Zr1_6 1_555 1_555
H1_21 O2_21 1_555 1_555
O3_11 Zr1_6 1_555 1_555
O4_11 Zr9_3 1_555 1_555
C1_11 O3_11 1_555 1_555
C2_11 C1_11 1_555 1_555
C3_11 C2_11 1_555 1_555
H2_11 C3_11 1_555 1_555
C4_11 C3_11 1_555 1_555
C5_11 C4_11 1_555 1_555
C6_11 C5_11 1_555 1_555
C7_11 C2_11 1_555 1_555
H3_11 C7_11 1_555 1_555
C8_11 H4_11 1_555 1_555
C9_11 C5_11 1_555 1_555
C10_11 C9_11 1_555 1_555
H5_11 C10_11 1_555 1_555
C11_11 C10_11 1_555 1_555
H6_11 C11_11 1_555 1_555
C12_11 C4_11 1_555 1_555
H7_11 C12_11 1_555 1_555
H8_11 C12_11 1_555 1_555
H9_11 C12_11 1_555 1_555
C13_11 C6_11 1_555 1_555
H10_11 C13_11 1_555 1_555
H11_11 C13_11 1_555 1_555
H12_11 C13_11 1_555 1_555
O5_6 Zr1_6 1_555 1_555
C14_9 O5_6 1_555 1_555
C15_9 C14_9 1_555 1_555
C16_9 C15_9 1_555 1_555
H13_9 C16_9 1_555 1_555
C17_9 C16_9 1_555 1_555
C18_9 C17_9 1_555 1_555
C19_9 H14_9 1_555 1_555
C20_9 C18_9 1_555 1_555
C21_9 C20_9 1_555 1_555
H15_9 C21_9 1_555 1_555
C22_9 C21_9 1_555 1_555
H16_9 C22_9 1_555 1_555
C23_9 C17_9 1_555 1_555
H17_9 C23_9 1_555 1_555
H18_9 C23_9 1_555 1_555
H19_9 C23_9 1_555 1_555
O6_11 C24_11 1_555 1_555
O23_2 C24_11 1_555 1_555
C24_11 C25_11 1_555 1_555
C25_11 C26_11 1_555 1_555
C26_11 H20_11 1_555 1_555
C27_11 C26_11 1_555 1_555
C28_11 C27_11 1_555 1_555
C29_11 C28_11 1_555 1_555
C30_11 C25_11 1_555 1_555
H21_11 C30_11 1_555 1_555
C31_11 C8_11 1_555 1_555
C32_11 C11_11 1_555 1_555
H22_11 C32_11 1_555 1_555
C33_11 C27_11 1_555 1_555
H23_11 C33_11 1_555 1_555
H24_11 C33_11 1_555 1_555
H25_11 C33_11 1_555 1_555
C34_11 C29_11 1_555 1_555
H26_11 C34_11 1_555 1_555
H27_11 C34_11 1_555 1_555
H28_11 C34_11 1_555 1_555
O25_2 C35_9 1_555 1_555
C35_9 C36_9 1_555 1_555
C36_9 C37_9 1_555 1_555
C37_9 H29_9 1_555 1_555
C38_9 C37_9 1_555 1_555
C39_9 C38_9 1_555 1_555
C40_9 C19_9 1_555 1_555
C41_9 C22_9 1_555 1_555
H30_9 C41_9 1_555 1_555
C42_9 C38_9 1_555 1_555
H31_9 C42_9 1_555 1_555
H32_9 C42_9 1_555 1_555
H33_9 C42_9 1_555 1_555
O9_9 C14_9 1_555 1_555
C43_9 C15_9 1_555 1_555
H34_9 C43_9 1_555 1_555
C44_9 C18_9 1_555 1_555
C45_9 C44_9 1_555 1_555
H35_9 C45_9 1_555 1_555
H36_9 C45_9 1_555 1_555
H37_9 C45_9 1_555 1_555
O10_9 C35_9 1_555 1_555
C46_9 C36_9 1_555 1_555
H38_9 C46_9 1_555 1_555
C47_9 C39_9 1_555 1_555
C48_9 C47_9 1_555 1_555
H39_9 C48_9 1_555 1_555
H40_9 C48_9 1_555 1_555
H41_9 C48_9 1_555 1_555
O12_21 Zr9_3 1_555 1_555
H42_21 O12_21 1_555 1_555
Zr7_2 O9_9 1_555 1_555
Zr5_2 O6_11 1_555 1_555
O18_21 Zr1_6 1_555 1_555
O20_11 Zr1_6 1_555 1_555
O22_11 Zr1_6 1_555 1_555
O27_11 Zr1_6 1_555 1_555
Zr9_3 O2_21 1_555 1_555
O4_11 C1_11 1_555 1_555
C6_11 C7_11 1_555 1_555
C8_11 C9_11 1_555 1_555
C19_9 C20_9 1_555 1_555
C28_11 C31_11 1_555 1_555
C29_11 C30_11 1_555 1_555
C31_11 C32_11 1_555 1_555
C39_9 C40_9 1_555 1_555
C40_9 C41_9 1_555 1_555
C43_9 C44_9 1_555 1_555
O10_9 Zr5_2 1_555 1_555
C46_9 C47_9 1_555 1_555
O12_21 Zr7_2 1_555 1_555
Zr7_2 O17_21 1_555 1_555
Zr7_2 O20_11 1_555 1_555
H1_22 O2_22 1_555 1_555
Zr3_9 O11_11 1_555 1_555
O11_11 Zr9_4 1_555 1_555
O12_22 Zr9_4 1_555 1_555
H42_22 O12_22 1_555 1_555
O13_11 Zr3_9 1_555 1_555
O14_11 Zr9_4 1_555 1_555
C49_11 O13_11 1_555 1_555
C50_11 C49_11 1_555 1_555
C51_11 C50_11 1_555 1_555
H43_11 C51_11 1_555 1_555
C52_11 C51_11 1_555 1_555
C53_11 C52_11 1_555 1_555
C54_11 C53_11 1_555 1_555
C55_11 C50_11 1_555 1_555
H44_11 C55_11 1_555 1_555
C56_11 H45_11 1_555 1_555
C57_11 C53_11 1_555 1_555
C58_11 C57_11 1_555 1_555
H46_11 C58_11 1_555 1_555
C59_11 C58_11 1_555 1_555
H47_11 C59_11 1_555 1_555
C60_11 C52_11 1_555 1_555
H48_11 C60_11 1_555 1_555
H49_11 C60_11 1_555 1_555
H50_11 C60_11 1_555 1_555
C61_11 C54_11 1_555 1_555
H51_11 C61_11 1_555 1_555
H52_11 C61_11 1_555 1_555
H53_11 C61_11 1_555 1_555
O15_11 C62_11 1_555 1_555
O23_4 C62_11 1_555 1_555
C62_11 C63_11 1_555 1_555
C63_11 C64_11 1_555 1_555
C64_11 H54_11 1_555 1_555
C65_11 C64_11 1_555 1_555
C66_11 C65_11 1_555 1_555
C67_11 C66_11 1_555 1_555
C68_11 C63_11 1_555 1_555
H55_11 C68_11 1_555 1_555
C69_11 C56_11 1_555 1_555
C70_11 C59_11 1_555 1_555
H56_11 C70_11 1_555 1_555
C71_11 C65_11 1_555 1_555
H57_11 C71_11 1_555 1_555
H58_11 C71_11 1_555 1_555
H59_11 C71_11 1_555 1_555
C72_11 C67_11 1_555 1_555
H60_11 C72_11 1_555 1_555
H61_11 C72_11 1_555 1_555
H62_11 C72_11 1_555 1_555
Zr7_4 O2_22 1_555 1_555
Zr5_4 O15_11 1_555 1_555
O17_22 Zr3_9 1_555 1_555
O19_11 Zr3_9 1_555 1_555
O21_11 Zr3_9 1_555 1_555
O25_9 Zr3_9 1_555 1_555
O26_11 Zr3_9 1_555 1_555
Zr9_4 O2_22 1_555 1_555
Zr3_9 O12_22 1_555 1_555
O11_11 Zr7_4 1_555 1_555
O14_11 C49_11 1_555 1_555
C54_11 C55_11 1_555 1_555
C56_11 C57_11 1_555 1_555
C66_11 C69_11 1_555 1_555
C67_11 C68_11 1_555 1_555
C69_11 C70_11 1_555 1_555
Zr7_4 O18_22 1_555 1_555
Zr7_4 O19_11 1_555 1_555
C14_10 O25_8 1_555 1_555
C15_10 C14_10 1_555 1_555
C16_10 C15_10 1_555 1_555
H13_10 C16_10 1_555 1_555
C17_10 C16_10 1_555 1_555
C18_10 C17_10 1_555 1_555
C19_10 H14_10 1_555 1_555
C20_10 C18_10 1_555 1_555
C21_10 C20_10 1_555 1_555
H15_10 C21_10 1_555 1_555
C22_10 C21_10 1_555 1_555
H16_10 C22_10 1_555 1_555
C23_10 C17_10 1_555 1_555
H17_10 C23_10 1_555 1_555
H18_10 C23_10 1_555 1_555
H19_10 C23_10 1_555 1_555
O8_8 C35_10 1_555 1_555
C35_10 C36_10 1_555 1_555
C36_10 C37_10 1_555 1_555
C37_10 H29_10 1_555 1_555
C38_10 C37_10 1_555 1_555
C39_10 C38_10 1_555 1_555
C40_10 C19_10 1_555 1_555
C41_10 C22_10 1_555 1_555
H30_10 C41_10 1_555 1_555
C42_10 C38_10 1_555 1_555
H31_10 C42_10 1_555 1_555
H32_10 C42_10 1_555 1_555
H33_10 C42_10 1_555 1_555
O9_10 C14_10 1_555 1_555
C43_10 C15_10 1_555 1_555
H34_10 C43_10 1_555 1_555
C44_10 C18_10 1_555 1_555
C45_10 C44_10 1_555 1_555
H35_10 C45_10 1_555 1_555
H36_10 C45_10 1_555 1_555
H37_10 C45_10 1_555 1_555
O10_10 C35_10 1_555 1_555
C46_10 C36_10 1_555 1_555
H38_10 C46_10 1_555 1_555
C47_10 C39_10 1_555 1_555
C48_10 C47_10 1_555 1_555
H39_10 C48_10 1_555 1_555
H40_10 C48_10 1_555 1_555
H41_10 C48_10 1_555 1_555
Zr4_8 O8_8 1_555 1_555
Zr5_7 O9_10 1_555 1_555
C19_10 C20_10 1_555 1_555
C39_10 C40_10 1_555 1_555
C40_10 C41_10 1_555 1_555
C43_10 C44_10 1_555 1_555
O10_10 Zr7_7 1_555 1_555
C46_10 C47_10 1_555 1_555
C14_11 O25_7 1_555 1_555
C15_11 C14_11 1_555 1_555
C16_11 C15_11 1_555 1_555
H13_11 C16_11 1_555 1_555
C17_11 C16_11 1_555 1_555
C18_11 C17_11 1_555 1_555
C19_11 H14_11 1_555 1_555
C20_11 C18_11 1_555 1_555
C21_11 C20_11 1_555 1_555
H15_11 C21_11 1_555 1_555
C22_11 C21_11 1_555 1_555
H16_11 C22_11 1_555 1_555
C23_11 C17_11 1_555 1_555
H17_11 C23_11 1_555 1_555
H18_11 C23_11 1_555 1_555
H19_11 C23_11 1_555 1_555
O8_9 C35_11 1_555 1_555
C35_11 C36_11 1_555 1_555
C36_11 C37_11 1_555 1_555
C37_11 H29_11 1_555 1_555
C38_11 C37_11 1_555 1_555
C39_11 C38_11 1_555 1_555
C40_11 C19_11 1_555 1_555
C41_11 C22_11 1_555 1_555
H30_11 C41_11 1_555 1_555
C42_11 C38_11 1_555 1_555
H31_11 C42_11 1_555 1_555
H32_11 C42_11 1_555 1_555
H33_11 C42_11 1_555 1_555
O9_11 C14_11 1_555 1_555
C43_11 C15_11 1_555 1_555
H34_11 C43_11 1_555 1_555
C44_11 C18_11 1_555 1_555
C45_11 C44_11 1_555 1_555
H35_11 C45_11 1_555 1_555
H36_11 C45_11 1_555 1_555
H37_11 C45_11 1_555 1_555
O10_11 C35_11 1_555 1_555
C46_11 C36_11 1_555 1_555
H38_11 C46_11 1_555 1_555
C47_11 C39_11 1_555 1_555
C48_11 C47_11 1_555 1_555
H39_11 C48_11 1_555 1_555
H40_11 C48_11 1_555 1_555
H41_11 C48_11 1_555 1_555
Zr4_9 O8_9 1_555 1_555
Zr5_6 O9_11 1_555 1_555
C19_11 C20_11 1_555 1_555
C39_11 C40_11 1_555 1_555
C40_11 C41_11 1_555 1_555
C43_11 C44_11 1_555 1_555
O10_11 Zr7_6 1_555 1_555
C46_11 C47_11 1_555 1_555
C14_12 O25_9 1_555 1_555
C15_12 C14_12 1_555 1_555
C16_12 C15_12 1_555 1_555
H13_12 C16_12 1_555 1_555
C17_12 C16_12 1_555 1_555
C18_12 C17_12 1_555 1_555
C19_12 H14_12 1_555 1_555
C20_12 C18_12 1_555 1_555
C21_12 C20_12 1_555 1_555
H15_12 C21_12 1_555 1_555
C22_12 C21_12 1_555 1_555
H16_12 C22_12 1_555 1_555
C23_12 C17_12 1_555 1_555
H17_12 C23_12 1_555 1_555
H18_12 C23_12 1_555 1_555
H19_12 C23_12 1_555 1_555
O25_4 C35_12 1_555 1_555
C35_12 C36_12 1_555 1_555
C36_12 C37_12 1_555 1_555
C37_12 H29_12 1_555 1_555
C38_12 C37_12 1_555 1_555
C39_12 C38_12 1_555 1_555
C40_12 C19_12 1_555 1_555
C41_12 C22_12 1_555 1_555
H30_12 C41_12 1_555 1_555
C42_12 C38_12 1_555 1_555
H31_12 C42_12 1_555 1_555
H32_12 C42_12 1_555 1_555
H33_12 C42_12 1_555 1_555
O9_12 C14_12 1_555 1_555
C43_12 C15_12 1_555 1_555
H34_12 C43_12 1_555 1_555
C44_12 C18_12 1_555 1_555
C45_12 C44_12 1_555 1_555
H35_12 C45_12 1_555 1_555
H36_12 C45_12 1_555 1_555
H37_12 C45_12 1_555 1_555
O10_12 C35_12 1_555 1_555
C46_12 C36_12 1_555 1_555
H38_12 C46_12 1_555 1_555
C47_12 C39_12 1_555 1_555
C48_12 C47_12 1_555 1_555
H39_12 C48_12 1_555 1_555
H40_12 C48_12 1_555 1_555
H41_12 C48_12 1_555 1_555
Zr7_4 O9_12 1_555 1_555
C19_12 C20_12 1_555 1_555
C39_12 C40_12 1_555 1_555
C40_12 C41_12 1_555 1_555
C43_12 C44_12 1_555 1_555
O10_12 Zr5_4 1_555 1_555
C46_12 C47_12 1_555 1_555
Zr4_9 O1_12 1_555 1_555
Zr9_7 O1_12 1_555 1_555
O1_12 Zr7_6 1_555 1_555
O2_23 Zr4_9 1_555 1_555
H1_23 O2_23 1_555 1_555
O3_12 Zr4_9 1_555 1_555
O4_12 Zr9_7 1_555 1_555
C1_12 O3_12 1_555 1_555
C2_12 C1_12 1_555 1_555
C3_12 C2_12 1_555 1_555
H2_12 C3_12 1_555 1_555
C4_12 C3_12 1_555 1_555
C5_12 C4_12 1_555 1_555
C6_12 C5_12 1_555 1_555
C7_12 C2_12 1_555 1_555
H3_12 C7_12 1_555 1_555
C8_12 H4_12 1_555 1_555
C9_12 C5_12 1_555 1_555
C10_12 C9_12 1_555 1_555
H5_12 C10_12 1_555 1_555
C11_12 C10_12 1_555 1_555
H6_12 C11_12 1_555 1_555
C12_12 C4_12 1_555 1_555
H7_12 C12_12 1_555 1_555
H8_12 C12_12 1_555 1_555
H9_12 C12_12 1_555 1_555
C13_12 C6_12 1_555 1_555
H10_12 C13_12 1_555 1_555
H11_12 C13_12 1_555 1_555
H12_12 C13_12 1_555 1_555
O6_12 C24_12 1_555 1_555
O23_6 C24_12 1_555 1_555
C24_12 C25_12 1_555 1_555
C25_12 C26_12 1_555 1_555
C26_12 H20_12 1_555 1_555
C27_12 C26_12 1_555 1_555
C28_12 C27_12 1_555 1_555
C29_12 C28_12 1_555 1_555
C30_12 C25_12 1_555 1_555
H21_12 C30_12 1_555 1_555
C31_12 C8_12 1_555 1_555
C32_12 C11_12 1_555 1_555
H22_12 C32_12 1_555 1_555
C33_12 C27_12 1_555 1_555
H23_12 C33_12 1_555 1_555
H24_12 C33_12 1_555 1_555
H25_12 C33_12 1_555 1_555
C34_12 C29_12 1_555 1_555
H26_12 C34_12 1_555 1_555
H27_12 C34_12 1_555 1_555
H28_12 C34_12 1_555 1_555
O12_23 Zr9_7 1_555 1_555
H42_23 O12_23 1_555 1_555
Zr5_6 O6_12 1_555 1_555
O18_23 Zr4_9 1_555 1_555
O20_12 Zr4_9 1_555 1_555
O22_12 Zr4_9 1_555 1_555
O27_12 Zr4_9 1_555 1_555
Zr9_7 O2_23 1_555 1_555
O4_12 C1_12 1_555 1_555
C6_12 C7_12 1_555 1_555
C8_12 C9_12 1_555 1_555
C28_12 C31_12 1_555 1_555
C29_12 C30_12 1_555 1_555
C31_12 C32_12 1_555 1_555
O12_23 Zr7_6 1_555 1_555
Zr7_6 O17_23 1_555 1_555
Zr7_6 O20_12 1_555 1_555
H1_24 O2_24 1_555 1_555
Zr4_8 O11_12 1_555 1_555
O11_12 Zr9_8 1_555 1_555
O12_24 Zr9_8 1_555 1_555
H42_24 O12_24 1_555 1_555
O13_12 Zr4_8 1_555 1_555
O14_12 Zr9_8 1_555 1_555
C49_12 O13_12 1_555 1_555
C50_12 C49_12 1_555 1_555
C51_12 C50_12 1_555 1_555
H43_12 C51_12 1_555 1_555
C52_12 C51_12 1_555 1_555
C53_12 C52_12 1_555 1_555
C54_12 C53_12 1_555 1_555
C55_12 C50_12 1_555 1_555
H44_12 C55_12 1_555 1_555
C56_12 H45_12 1_555 1_555
C57_12 C53_12 1_555 1_555
C58_12 C57_12 1_555 1_555
H46_12 C58_12 1_555 1_555
C59_12 C58_12 1_555 1_555
H47_12 C59_12 1_555 1_555
C60_12 C52_12 1_555 1_555
H48_12 C60_12 1_555 1_555
H49_12 C60_12 1_555 1_555
H50_12 C60_12 1_555 1_555
C61_12 C54_12 1_555 1_555
H51_12 C61_12 1_555 1_555
H52_12 C61_12 1_555 1_555
H53_12 C61_12 1_555 1_555
O15_12 C62_12 1_555 1_555
O23_7 C62_12 1_555 1_555
C62_12 C63_12 1_555 1_555
C63_12 C64_12 1_555 1_555
C64_12 H54_12 1_555 1_555
C65_12 C64_12 1_555 1_555
C66_12 C65_12 1_555 1_555
C67_12 C66_12 1_555 1_555
C68_12 C63_12 1_555 1_555
H55_12 C68_12 1_555 1_555
C69_12 C56_12 1_555 1_555
C70_12 C59_12 1_555 1_555
H56_12 C70_12 1_555 1_555
C71_12 C65_12 1_555 1_555
H57_12 C71_12 1_555 1_555
H58_12 C71_12 1_555 1_555
H59_12 C71_12 1_555 1_555
C72_12 C67_12 1_555 1_555
H60_12 C72_12 1_555 1_555
H61_12 C72_12 1_555 1_555
H62_12 C72_12 1_555 1_555
Zr7_7 O2_24 1_555 1_555
Zr5_7 O15_12 1_555 1_555
O17_24 Zr4_8 1_555 1_555
O19_12 Zr4_8 1_555 1_555
O21_12 Zr4_8 1_555 1_555
O26_12 Zr4_8 1_555 1_555
Zr9_8 O2_24 1_555 1_555
Zr4_8 O12_24 1_555 1_555
O11_12 Zr7_7 1_555 1_555
O14_12 C49_12 1_555 1_555
C54_12 C55_12 1_555 1_555
C56_12 C57_12 1_555 1_555
C66_12 C69_12 1_555 1_555
C67_12 C68_12 1_555 1_555
C69_12 C70_12 1_555 1_555
Zr7_7 O18_24 1_555 1_555
Zr7_7 O19_12 1_555 1_555
Zr2_11 O17_23 1_555 1_555
C15_13 C14_13 1_555 1_555
C19_13 H14_13 1_555 1_555
C20_13 C18_13 1_555 1_555
C21_13 C20_13 1_555 1_555
H15_13 C21_13 1_555 1_555
C22_13 C21_13 1_555 1_555
H16_13 C22_13 1_555 1_555
O27_11 C35_13 1_555 1_555
C35_13 C36_13 1_555 1_555
C36_13 C37_13 1_555 1_555
C37_13 H29_13 1_555 1_555
C38_13 C37_13 1_555 1_555
C39_13 C38_13 1_555 1_555
C40_13 C19_13 1_555 1_555
C41_13 C22_13 1_555 1_555
H30_13 C41_13 1_555 1_555
C42_13 C38_13 1_555 1_555
H31_13 C42_13 1_555 1_555
H32_13 C42_13 1_555 1_555
H33_13 C42_13 1_555 1_555
O9_13 C14_13 1_555 1_555
C43_13 C15_13 1_555 1_555
H34_13 C43_13 1_555 1_555
C44_13 C18_13 1_555 1_555
C45_13 C44_13 1_555 1_555
H35_13 C45_13 1_555 1_555
H36_13 C45_13 1_555 1_555
H37_13 C45_13 1_555 1_555
O18_23 Zr2_11 1_555 1_555
O20_12 Zr2_11 1_555 1_555
H42_25 O20_12 1_555 1_555
O14_13 Zr2_11 1_555 1_555
C49_13 O22_12 1_555 1_555
C50_13 C49_13 1_555 1_555
C51_13 C50_13 1_555 1_555
H43_13 C51_13 1_555 1_555
C52_13 C51_13 1_555 1_555
C53_13 C52_13 1_555 1_555
C54_13 C53_13 1_555 1_555
C55_13 C50_13 1_555 1_555
H44_13 C55_13 1_555 1_555
C56_13 H45_13 1_555 1_555
C57_13 C53_13 1_555 1_555
C58_13 C57_13 1_555 1_555
H46_13 C58_13 1_555 1_555
C59_13 C58_13 1_555 1_555
H47_13 C59_13 1_555 1_555
C60_13 C52_13 1_555 1_555
H48_13 C60_13 1_555 1_555
H49_13 C60_13 1_555 1_555
H50_13 C60_13 1_555 1_555
C61_13 C54_13 1_555 1_555
H51_13 C61_13 1_555 1_555
H52_13 C61_13 1_555 1_555
H53_13 C61_13 1_555 1_555
O15_13 C62_13 1_555 1_555
O16_8 C62_13 1_555 1_555
C62_13 C63_13 1_555 1_555
C63_13 C64_13 1_555 1_555
C64_13 H54_13 1_555 1_555
C65_13 C64_13 1_555 1_555
C66_13 C65_13 1_555 1_555
C67_13 C66_13 1_555 1_555
C68_13 C63_13 1_555 1_555
H55_13 C68_13 1_555 1_555
C69_13 C56_13 1_555 1_555
C70_13 C59_13 1_555 1_555
H56_13 C70_13 1_555 1_555
C71_13 C65_13 1_555 1_555
H57_13 C71_13 1_555 1_555
H58_13 C71_13 1_555 1_555
H59_13 C71_13 1_555 1_555
C72_13 C67_13 1_555 1_555
H60_13 C72_13 1_555 1_555
H61_13 C72_13 1_555 1_555
H62_13 C72_13 1_555 1_555
Zr7_6 O9_13 1_555 1_555
Zr8_2 O15_13 1_555 1_555
Zr9_9 O16_8 1_555 1_555
O24_6 Zr2_11 1_555 1_555
C19_13 C20_13 1_555 1_555
C39_13 C40_13 1_555 1_555
C40_13 C41_13 1_555 1_555
C43_13 C44_13 1_555 1_555
O14_13 C49_13 1_555 1_555
C54_13 C55_13 1_555 1_555
C56_13 C57_13 1_555 1_555
C66_13 C69_13 1_555 1_555
C67_13 C68_13 1_555 1_555
C69_13 C70_13 1_555 1_555
Zr2_12 O17_24 1_555 1_555
H1_25 O19_12 1_555 1_555
O4_13 Zr2_12 1_555 1_555
C1_13 O21_12 1_555 1_555
C2_13 C1_13 1_555 1_555
C3_13 C2_13 1_555 1_555
H2_13 C3_13 1_555 1_555
C4_13 C3_13 1_555 1_555
C5_13 C4_13 1_555 1_555
C6_13 C5_13 1_555 1_555
C7_13 C2_13 1_555 1_555
H3_13 C7_13 1_555 1_555
C8_13 H4_13 1_555 1_555
C9_13 C5_13 1_555 1_555
C10_13 C9_13 1_555 1_555
H5_13 C10_13 1_555 1_555
C11_13 C10_13 1_555 1_555
H6_13 C11_13 1_555 1_555
C12_13 C4_13 1_555 1_555
H7_13 C12_13 1_555 1_555
H8_13 C12_13 1_555 1_555
H9_13 C12_13 1_555 1_555
C13_13 C6_13 1_555 1_555
H10_13 C13_13 1_555 1_555
H11_13 C13_13 1_555 1_555
H12_13 C13_13 1_555 1_555
C14_14 O26_12 1_555 1_555
C15_14 C14_14 1_555 1_555
C16_13 C15_14 1_555 1_555
H13_13 C16_13 1_555 1_555
C17_13 C16_13 1_555 1_555
C18_14 C17_13 1_555 1_555
C19_14 H14_14 1_555 1_555
C20_14 C18_14 1_555 1_555
C21_14 C20_14 1_555 1_555
H15_14 C21_14 1_555 1_555
C22_14 C21_14 1_555 1_555
H16_14 C22_14 1_555 1_555
C23_13 C17_13 1_555 1_555
H17_13 C23_13 1_555 1_555
H18_13 C23_13 1_555 1_555
H19_13 C23_13 1_555 1_555
O6_13 C24_13 1_555 1_555
O7_6 C24_13 1_555 1_555
C24_13 C25_13 1_555 1_555
C25_13 C26_13 1_555 1_555
C26_13 H20_13 1_555 1_555
C27_13 C26_13 1_555 1_555
C28_13 C27_13 1_555 1_555
C29_13 C28_13 1_555 1_555
C30_13 C25_13 1_555 1_555
H21_13 C30_13 1_555 1_555
C31_13 C8_13 1_555 1_555
C32_13 C11_13 1_555 1_555
H22_13 C32_13 1_555 1_555
C33_13 C27_13 1_555 1_555
H23_13 C33_13 1_555 1_555
H24_13 C33_13 1_555 1_555
H25_13 C33_13 1_555 1_555
C34_13 C29_13 1_555 1_555
H26_13 C34_13 1_555 1_555
H27_13 C34_13 1_555 1_555
H28_13 C34_13 1_555 1_555
C35_14 C36_14 1_555 1_555
C40_14 C19_14 1_555 1_555
C41_14 C22_14 1_555 1_555
H30_14 C41_14 1_555 1_555
O10_13 C35_14 1_555 1_555
C46_13 C36_14 1_555 1_555
H38_13 C46_13 1_555 1_555
C47_13 C39_14 1_555 1_555
C48_13 C47_13 1_555 1_555
H39_13 C48_13 1_555 1_555
H40_13 C48_13 1_555 1_555
H41_13 C48_13 1_555 1_555
O18_24 Zr2_12 1_555 1_555
Zr7_4 O6_13 1_555 1_555
Zr10_8 O7_6 1_555 1_555
O23_8 Zr2_12 1_555 1_555
Zr2_12 O19_12 1_555 1_555
O4_13 C1_13 1_555 1_555
C6_13 C7_13 1_555 1_555
C8_13 C9_13 1_555 1_555
C19_14 C20_14 1_555 1_555
C28_13 C31_13 1_555 1_555
C29_13 C30_13 1_555 1_555
C31_13 C32_13 1_555 1_555
C39_14 C40_14 1_555 1_555
C40_14 C41_14 1_555 1_555
O10_13 Zr7_4 1_555 1_555
C46_13 C47_13 1_555 1_555
Zr2_13 O18_19 1_555 1_555
H1_26 O20_10 1_555 1_555
O4_14 Zr2_13 1_555 1_555
C1_14 O22_10 1_555 1_555
C2_14 C1_14 1_555 1_555
C3_14 C2_14 1_555 1_555
H2_14 C3_14 1_555 1_555
C4_14 C3_14 1_555 1_555
C5_14 C4_14 1_555 1_555
C6_14 C5_14 1_555 1_555
C7_14 C2_14 1_555 1_555
H3_14 C7_14 1_555 1_555
C8_14 H4_14 1_555 1_555
C9_14 C5_14 1_555 1_555
C10_14 C9_14 1_555 1_555
H5_14 C10_14 1_555 1_555
C11_14 C10_14 1_555 1_555
H6_14 C11_14 1_555 1_555
C12_14 C4_14 1_555 1_555
H7_14 C12_14 1_555 1_555
H8_14 C12_14 1_555 1_555
H9_14 C12_14 1_555 1_555
C13_14 C6_14 1_555 1_555
H10_14 C13_14 1_555 1_555
H11_14 C13_14 1_555 1_555
H12_14 C13_14 1_555 1_555
C14_15 O27_10 1_555 1_555
C15_15 C14_15 1_555 1_555
C16_14 C15_15 1_555 1_555
H13_14 C16_14 1_555 1_555
C17_14 C16_14 1_555 1_555
C18_15 C17_14 1_555 1_555
C19_15 H14_15 1_555 1_555
C20_15 C18_15 1_555 1_555
C21_15 C20_15 1_555 1_555
H15_15 C21_15 1_555 1_555
C22_15 C21_15 1_555 1_555
H16_15 C22_15 1_555 1_555
C23_14 C17_14 1_555 1_555
H17_14 C23_14 1_555 1_555
H18_14 C23_14 1_555 1_555
H19_14 C23_14 1_555 1_555
O6_14 C24_14 1_555 1_555
O7_7 C24_14 1_555 1_555
C24_14 C25_14 1_555 1_555
C25_14 C26_14 1_555 1_555
C26_14 H20_14 1_555 1_555
C27_14 C26_14 1_555 1_555
C28_14 C27_14 1_555 1_555
C29_14 C28_14 1_555 1_555
C30_14 C25_14 1_555 1_555
H21_14 C30_14 1_555 1_555
C31_14 C8_14 1_555 1_555
C32_14 C11_14 1_555 1_555
H22_14 C32_14 1_555 1_555
C33_14 C27_14 1_555 1_555
H23_14 C33_14 1_555 1_555
H24_14 C33_14 1_555 1_555
H25_14 C33_14 1_555 1_555
C34_14 C29_14 1_555 1_555
H26_14 C34_14 1_555 1_555
H27_14 C34_14 1_555 1_555
H28_14 C34_14 1_555 1_555
C35_15 C36_15 1_555 1_555
C40_15 C19_15 1_555 1_555
C41_15 C22_15 1_555 1_555
H30_15 C41_15 1_555 1_555
O10_14 C35_15 1_555 1_555
C46_14 C36_15 1_555 1_555
H38_14 C46_14 1_555 1_555
C47_14 C39_15 1_555 1_555
C48_14 C47_14 1_555 1_555
H39_14 C48_14 1_555 1_555
H40_14 C48_14 1_555 1_555
H41_14 C48_14 1_555 1_555
O17_19 Zr2_13 1_555 1_555
Zr7 O6_14 1_555 1_555
Zr10_9 O7_7 1_555 1_555
O23_9 Zr2_13 1_555 1_555
Zr2_13 O20_10 1_555 1_555
O4_14 C1_14 1_555 1_555
C6_14 C7_14 1_555 1_555
C8_14 C9_14 1_555 1_555
C19_15 C20_15 1_555 1_555
C28_14 C31_14 1_555 1_555
C29_14 C30_14 1_555 1_555
C31_14 C32_14 1_555 1_555
C39_15 C40_15 1_555 1_555
C40_15 C41_15 1_555 1_555
O10_14 Zr7 1_555 1_555
C46_14 C47_14 1_555 1_555
Zr2_14 O18_20 1_555 1_555
C15_16 C14_16 1_555 1_555
C19_16 H14_16 1_555 1_555
C20_16 C18_16 1_555 1_555
C21_16 C20_16 1_555 1_555
H15_16 C21_16 1_555 1_555
C22_16 C21_16 1_555 1_555
H16_16 C22_16 1_555 1_555
O26_6 C35_16 1_555 1_555
C35_16 C36_16 1_555 1_555
C36_16 C37_14 1_555 1_555
C37_14 H29_14 1_555 1_555
C38_14 C37_14 1_555 1_555
C39_16 C38_14 1_555 1_555
C40_16 C19_16 1_555 1_555
C41_16 C22_16 1_555 1_555
H30_16 C41_16 1_555 1_555
C42_14 C38_14 1_555 1_555
H31_14 C42_14 1_555 1_555
H32_14 C42_14 1_555 1_555
H33_14 C42_14 1_555 1_555
O9_14 C14_16 1_555 1_555
C43_14 C15_16 1_555 1_555
H34_14 C43_14 1_555 1_555
C44_14 C18_16 1_555 1_555
C45_14 C44_14 1_555 1_555
H35_14 C45_14 1_555 1_555
H36_14 C45_14 1_555 1_555
H37_14 C45_14 1_555 1_555
O17_20 Zr2_14 1_555 1_555
O19_10 Zr2_14 1_555 1_555
H42_26 O19_10 1_555 1_555
O14_14 Zr2_14 1_555 1_555
C49_14 O21_10 1_555 1_555
C50_14 C49_14 1_555 1_555
C51_14 C50_14 1_555 1_555
H43_14 C51_14 1_555 1_555
C52_14 C51_14 1_555 1_555
C53_14 C52_14 1_555 1_555
C54_14 C53_14 1_555 1_555
C55_14 C50_14 1_555 1_555
H44_14 C55_14 1_555 1_555
C56_14 H45_14 1_555 1_555
C57_14 C53_14 1_555 1_555
C58_14 C57_14 1_555 1_555
H46_14 C58_14 1_555 1_555
C59_14 C58_14 1_555 1_555
H47_14 C59_14 1_555 1_555
C60_14 C52_14 1_555 1_555
H48_14 C60_14 1_555 1_555
H49_14 C60_14 1_555 1_555
H50_14 C60_14 1_555 1_555
C61_14 C54_14 1_555 1_555
H51_14 C61_14 1_555 1_555
H52_14 C61_14 1_555 1_555
H53_14 C61_14 1_555 1_555
O15_14 C62_14 1_555 1_555
O16_9 C62_14 1_555 1_555
C62_14 C63_14 1_555 1_555
C63_14 C64_14 1_555 1_555
C64_14 H54_14 1_555 1_555
C65_14 C64_14 1_555 1_555
C66_14 C65_14 1_555 1_555
C67_14 C66_14 1_555 1_555
C68_14 C63_14 1_555 1_555
H55_14 C68_14 1_555 1_555
C69_14 C56_14 1_555 1_555
C70_14 C59_14 1_555 1_555
H56_14 C70_14 1_555 1_555
C71_14 C65_14 1_555 1_555
H57_14 C71_14 1_555 1_555
H58_14 C71_14 1_555 1_555
H59_14 C71_14 1_555 1_555
C72_14 C67_14 1_555 1_555
H60_14 C72_14 1_555 1_555
H61_14 C72_14 1_555 1_555
H62_14 C72_14 1_555 1_555
Zr5_7 O9_14 1_555 1_555
Zr8_3 O15_14 1_555 1_555
Zr9_12 O16_9 1_555 1_555
O24_7 Zr2_14 1_555 1_555
C19_16 C20_16 1_555 1_555
C39_16 C40_16 1_555 1_555
C40_16 C41_16 1_555 1_555
C43_14 C44_14 1_555 1_555
O14_14 C49_14 1_555 1_555
C54_14 C55_14 1_555 1_555
C56_14 C57_14 1_555 1_555
C66_14 C69_14 1_555 1_555
C67_14 C68_14 1_555 1_555
C69_14 C70_14 1_555 1_555
Zr2_15 O17_9 1_555 1_555
H1_27 O19_5 1_555 1_555
O4_15 Zr2_15 1_555 1_555
C1_15 O21_5 1_555 1_555
C2_15 C1_15 1_555 1_555
C3_15 C2_15 1_555 1_555
H2_15 C3_15 1_555 1_555
C4_15 C3_15 1_555 1_555
C5_15 C4_15 1_555 1_555
C6_15 C5_15 1_555 1_555
C7_15 C2_15 1_555 1_555
H3_15 C7_15 1_555 1_555
C8_15 H4_15 1_555 1_555
C9_15 C5_15 1_555 1_555
C10_15 C9_15 1_555 1_555
H5_15 C10_15 1_555 1_555
C11_15 C10_15 1_555 1_555
H6_15 C11_15 1_555 1_555
C12_15 C4_15 1_555 1_555
H7_15 C12_15 1_555 1_555
H8_15 C12_15 1_555 1_555
H9_15 C12_15 1_555 1_555
C13_15 C6_15 1_555 1_555
H10_15 C13_15 1_555 1_555
H11_15 C13_15 1_555 1_555
H12_15 C13_15 1_555 1_555
C14_17 O26_5 1_555 1_555
C15_17 C14_17 1_555 1_555
C16_15 C15_17 1_555 1_555
H13_15 C16_15 1_555 1_555
C17_15 C16_15 1_555 1_555
C18_17 C17_15 1_555 1_555
C19_17 H14_17 1_555 1_555
C20_17 C18_17 1_555 1_555
C21_17 C20_17 1_555 1_555
H15_17 C21_17 1_555 1_555
C22_17 C21_17 1_555 1_555
H16_17 C22_17 1_555 1_555
C23_15 C17_15 1_555 1_555
H17_15 C23_15 1_555 1_555
H18_15 C23_15 1_555 1_555
H19_15 C23_15 1_555 1_555
O6_15 C24_15 1_555 1_555
O7_8 C24_15 1_555 1_555
C24_15 C25_15 1_555 1_555
C25_15 C26_15 1_555 1_555
C26_15 H20_15 1_555 1_555
C27_15 C26_15 1_555 1_555
C28_15 C27_15 1_555 1_555
C29_15 C28_15 1_555 1_555
C30_15 C25_15 1_555 1_555
H21_15 C30_15 1_555 1_555
C31_15 C8_15 1_555 1_555
C32_15 C11_15 1_555 1_555
H22_15 C32_15 1_555 1_555
C33_15 C27_15 1_555 1_555
H23_15 C33_15 1_555 1_555
H24_15 C33_15 1_555 1_555
H25_15 C33_15 1_555 1_555
C34_15 C29_15 1_555 1_555
H26_15 C34_15 1_555 1_555
H27_15 C34_15 1_555 1_555
H28_15 C34_15 1_555 1_555
C35_17 C36_17 1_555 1_555
C40_17 C19_17 1_555 1_555
C41_17 C22_17 1_555 1_555
H30_17 C41_17 1_555 1_555
O10_15 C35_17 1_555 1_555
C46_15 C36_17 1_555 1_555
H38_15 C46_15 1_555 1_555
C47_15 C39_17 1_555 1_555
C48_15 C47_15 1_555 1_555
H39_15 C48_15 1_555 1_555
H40_15 C48_15 1_555 1_555
H41_15 C48_15 1_555 1_555
O18_9 Zr2_15 1_555 1_555
Zr7_2 O6_15 1_555 1_555
Zr10_7 O7_8 1_555 1_555
O23_10 Zr2_15 1_555 1_555
Zr2_15 O19_5 1_555 1_555
O4_15 C1_15 1_555 1_555
C6_15 C7_15 1_555 1_555
C8_15 C9_15 1_555 1_555
C19_17 C20_17 1_555 1_555
C28_15 C31_15 1_555 1_555
C29_15 C30_15 1_555 1_555
C31_15 C32_15 1_555 1_555
C39_17 C40_17 1_555 1_555
C40_17 C41_17 1_555 1_555
O10_15 Zr7_2 1_555 1_555
C46_15 C47_15 1_555 1_555
Zr2_16 O17_10 1_555 1_555
C15_18 C14_18 1_555 1_555
C19_18 H14_18 1_555 1_555
C20_18 C18_18 1_555 1_555
C21_18 C20_18 1_555 1_555
H15_18 C21_18 1_555 1_555
C22_18 C21_18 1_555 1_555
H16_18 C22_18 1_555 1_555
O26_11 C35_18 1_555 1_555
C35_18 C36_18 1_555 1_555
C36_18 C37_15 1_555 1_555
C37_15 H29_15 1_555 1_555
C38_15 C37_15 1_555 1_555
C39_18 C38_15 1_555 1_555
C40_18 C19_18 1_555 1_555
C41_18 C22_18 1_555 1_555
H30_18 C41_18 1_555 1_555
C42_15 C38_15 1_555 1_555
H31_15 C42_15 1_555 1_555
H32_15 C42_15 1_555 1_555
H33_15 C42_15 1_555 1_555
O9_15 C14_18 1_555 1_555
C43_15 C15_18 1_555 1_555
H34_15 C43_15 1_555 1_555
C44_15 C18_18 1_555 1_555
C45_15 C44_15 1_555 1_555
H35_15 C45_15 1_555 1_555
H36_15 C45_15 1_555 1_555
H37_15 C45_15 1_555 1_555
O18_10 Zr2_16 1_555 1_555
O20_5 Zr2_16 1_555 1_555
H42_27 O20_5 1_555 1_555
O14_15 Zr2_16 1_555 1_555
C49_15 O22_5 1_555 1_555
C50_15 C49_15 1_555 1_555
C51_15 C50_15 1_555 1_555
H43_15 C51_15 1_555 1_555
C52_15 C51_15 1_555 1_555
C53_15 C52_15 1_555 1_555
C54_15 C53_15 1_555 1_555
C55_15 C50_15 1_555 1_555
H44_15 C55_15 1_555 1_555
C56_15 H45_15 1_555 1_555
C57_15 C53_15 1_555 1_555
C58_15 C57_15 1_555 1_555
H46_15 C58_15 1_555 1_555
C59_15 C58_15 1_555 1_555
H47_15 C59_15 1_555 1_555
C60_15 C52_15 1_555 1_555
H48_15 C60_15 1_555 1_555
H49_15 C60_15 1_555 1_555
H50_15 C60_15 1_555 1_555
C61_15 C54_15 1_555 1_555
H51_15 C61_15 1_555 1_555
H52_15 C61_15 1_555 1_555
H53_15 C61_15 1_555 1_555
O15_15 C62_15 1_555 1_555
O16_10 C62_15 1_555 1_555
C62_15 C63_15 1_555 1_555
C63_15 C64_15 1_555 1_555
C64_15 H54_15 1_555 1_555
C65_15 C64_15 1_555 1_555
C66_15 C65_15 1_555 1_555
C67_15 C66_15 1_555 1_555
C68_15 C63_15 1_555 1_555
H55_15 C68_15 1_555 1_555
C69_15 C56_15 1_555 1_555
C70_15 C59_15 1_555 1_555
H56_15 C70_15 1_555 1_555
C71_15 C65_15 1_555 1_555
H57_15 C71_15 1_555 1_555
H58_15 C71_15 1_555 1_555
H59_15 C71_15 1_555 1_555
C72_15 C67_15 1_555 1_555
H60_15 C72_15 1_555 1_555
H61_15 C72_15 1_555 1_555
H62_15 C72_15 1_555 1_555
Zr6_5 O9_15 1_555 1_555
Zr8_4 O15_15 1_555 1_555
Zr9_10 O16_10 1_555 1_555
O24_8 Zr2_16 1_555 1_555
C19_18 C20_18 1_555 1_555
C39_18 C40_18 1_555 1_555
C40_18 C41_18 1_555 1_555
C43_15 C44_15 1_555 1_555
O14_15 C49_15 1_555 1_555
C54_15 C55_15 1_555 1_555
C56_15 C57_15 1_555 1_555
C66_15 C69_15 1_555 1_555
C67_15 C68_15 1_555 1_555
C69_15 C70_15 1_555 1_555
Zr2_17 O17_15 1_555 1_555
C15_19 C14_19 1_555 1_555
C19_19 H14_19 1_555 1_555
C20_19 C18_19 1_555 1_555
C21_19 C20_19 1_555 1_555
H15_19 C21_19 1_555 1_555
C22_19 C21_19 1_555 1_555
H16_19 C22_19 1_555 1_555
O27_6 C35_19 1_555 1_555
C35_19 C36_19 1_555 1_555
C36_19 C37_16 1_555 1_555
C37_16 H29_16 1_555 1_555
C38_16 C37_16 1_555 1_555
C39_19 C38_16 1_555 1_555
C40_19 C19_19 1_555 1_555
C41_19 C22_19 1_555 1_555
H30_19 C41_19 1_555 1_555
C42_16 C38_16 1_555 1_555
H31_16 C42_16 1_555 1_555
H32_16 C42_16 1_555 1_555
H33_16 C42_16 1_555 1_555
O9_16 C14_19 1_555 1_555
C43_16 C15_19 1_555 1_555
H34_16 C43_16 1_555 1_555
C44_16 C18_19 1_555 1_555
C45_16 C44_16 1_555 1_555
H35_16 C45_16 1_555 1_555
H36_16 C45_16 1_555 1_555
H37_16 C45_16 1_555 1_555
O18_15 Zr2_17 1_555 1_555
O20_8 Zr2_17 1_555 1_555
H42_28 O20_8 1_555 1_555
O14_16 Zr2_17 1_555 1_555
C49_16 O22_8 1_555 1_555
C50_16 C49_16 1_555 1_555
C51_16 C50_16 1_555 1_555
H43_16 C51_16 1_555 1_555
C52_16 C51_16 1_555 1_555
C53_16 C52_16 1_555 1_555
C54_16 C53_16 1_555 1_555
C55_16 C50_16 1_555 1_555
H44_16 C55_16 1_555 1_555
C56_16 H45_16 1_555 1_555
C57_16 C53_16 1_555 1_555
C58_16 C57_16 1_555 1_555
H46_16 C58_16 1_555 1_555
C59_16 C58_16 1_555 1_555
H47_16 C59_16 1_555 1_555
C60_16 C52_16 1_555 1_555
H48_16 C60_16 1_555 1_555
H49_16 C60_16 1_555 1_555
H50_16 C60_16 1_555 1_555
C61_16 C54_16 1_555 1_555
H51_16 C61_16 1_555 1_555
H52_16 C61_16 1_555 1_555
H53_16 C61_16 1_555 1_555
O15_16 C62_16 1_555 1_555
O16_11 C62_16 1_555 1_555
C62_16 C63_16 1_555 1_555
C63_16 C64_16 1_555 1_555
C64_16 H54_16 1_555 1_555
C65_16 C64_16 1_555 1_555
C66_16 C65_16 1_555 1_555
C67_16 C66_16 1_555 1_555
C68_16 C63_16 1_555 1_555
H55_16 C68_16 1_555 1_555
C69_16 C56_16 1_555 1_555
C70_16 C59_16 1_555 1_555
H56_16 C70_16 1_555 1_555
C71_16 C65_16 1_555 1_555
H57_16 C71_16 1_555 1_555
H58_16 C71_16 1_555 1_555
H59_16 C71_16 1_555 1_555
C72_16 C67_16 1_555 1_555
H60_16 C72_16 1_555 1_555
H61_16 C72_16 1_555 1_555
H62_16 C72_16 1_555 1_555
Zr7_5 O9_16 1_555 1_555
Zr8 O15_16 1_555 1_555
Zr9_11 O16_11 1_555 1_555
O24_9 Zr2_17 1_555 1_555
C19_19 C20_19 1_555 1_555
C39_19 C40_19 1_555 1_555
C40_19 C41_19 1_555 1_555
C43_16 C44_16 1_555 1_555
O14_16 C49_16 1_555 1_555
C54_16 C55_16 1_555 1_555
C56_16 C57_16 1_555 1_555
C66_16 C69_16 1_555 1_555
C67_16 C68_16 1_555 1_555
C69_16 C70_16 1_555 1_555
Zr2_18 O17_16 1_555 1_555
H1_28 O19_8 1_555 1_555
O4_16 Zr2_18 1_555 1_555
C1_16 O21_8 1_555 1_555
C2_16 C1_16 1_555 1_555
C3_16 C2_16 1_555 1_555
H2_16 C3_16 1_555 1_555
C4_16 C3_16 1_555 1_555
C5_16 C4_16 1_555 1_555
C6_16 C5_16 1_555 1_555
C7_16 C2_16 1_555 1_555
H3_16 C7_16 1_555 1_555
C8_16 H4_16 1_555 1_555
C9_16 C5_16 1_555 1_555
C10_16 C9_16 1_555 1_555
H5_16 C10_16 1_555 1_555
C11_16 C10_16 1_555 1_555
H6_16 C11_16 1_555 1_555
C12_16 C4_16 1_555 1_555
H7_16 C12_16 1_555 1_555
H8_16 C12_16 1_555 1_555
H9_16 C12_16 1_555 1_555
C13_16 C6_16 1_555 1_555
H10_16 C13_16 1_555 1_555
H11_16 C13_16 1_555 1_555
H12_16 C13_16 1_555 1_555
C14_20 O26_8 1_555 1_555
C15_20 C14_20 1_555 1_555
C16_16 C15_20 1_555 1_555
H13_16 C16_16 1_555 1_555
C17_16 C16_16 1_555 1_555
C18_20 C17_16 1_555 1_555
C19_20 H14_20 1_555 1_555
C20_20 C18_20 1_555 1_555
C21_20 C20_20 1_555 1_555
H15_20 C21_20 1_555 1_555
C22_20 C21_20 1_555 1_555
H16_20 C22_20 1_555 1_555
C23_16 C17_16 1_555 1_555
H17_16 C23_16 1_555 1_555
H18_16 C23_16 1_555 1_555
H19_16 C23_16 1_555 1_555
O6_16 C24_16 1_555 1_555
O7_9 C24_16 1_555 1_555
C24_16 C25_16 1_555 1_555
C25_16 C26_16 1_555 1_555
C26_16 H20_16 1_555 1_555
C27_16 C26_16 1_555 1_555
C28_16 C27_16 1_555 1_555
C29_16 C28_16 1_555 1_555
C30_16 C25_16 1_555 1_555
H21_16 C30_16 1_555 1_555
C31_16 C8_16 1_555 1_555
C32_16 C11_16 1_555 1_555
H22_16 C32_16 1_555 1_555
C33_16 C27_16 1_555 1_555
H23_16 C33_16 1_555 1_555
H24_16 C33_16 1_555 1_555
H25_16 C33_16 1_555 1_555
C34_16 C29_16 1_555 1_555
H26_16 C34_16 1_555 1_555
H27_16 C34_16 1_555 1_555
H28_16 C34_16 1_555 1_555
C35_20 C36_20 1_555 1_555
C40_20 C19_20 1_555 1_555
C41_20 C22_20 1_555 1_555
H30_20 C41_20 1_555 1_555
O10_16 C35_20 1_555 1_555
C46_16 C36_20 1_555 1_555
H38_16 C46_16 1_555 1_555
C47_16 C39_20 1_555 1_555
C48_16 C47_16 1_555 1_555
H39_16 C48_16 1_555 1_555
H40_16 C48_16 1_555 1_555
H41_16 C48_16 1_555 1_555
O18_16 Zr2_18 1_555 1_555
Zr7_3 O6_16 1_555 1_555
Zr10_10 O7_9 1_555 1_555
O23_11 Zr2_18 1_555 1_555
Zr2_18 O19_8 1_555 1_555
O4_16 C1_16 1_555 1_555
C6_16 C7_16 1_555 1_555
C8_16 C9_16 1_555 1_555
C19_20 C20_20 1_555 1_555
C28_16 C31_16 1_555 1_555
C29_16 C30_16 1_555 1_555
C31_16 C32_16 1_555 1_555
C39_20 C40_20 1_555 1_555
C40_20 C41_20 1_555 1_555
O10_16 Zr7_3 1_555 1_555
C46_16 C47_16 1_555 1_555
Zr2_19 O17_5 1_555 1_555
C15_21 C14_21 1_555 1_555
C19_21 H14_21 1_555 1_555
C20_21 C18_21 1_555 1_555
C21_21 C20_21 1_555 1_555
H15_21 C21_21 1_555 1_555
C22_21 C21_21 1_555 1_555
H16_21 C22_21 1_555 1_555
O27_2 C35_21 1_555 1_555
C35_21 C36_21 1_555 1_555
C36_21 C37_17 1_555 1_555
C37_17 H29_17 1_555 1_555
C38_17 C37_17 1_555 1_555
C39_21 C38_17 1_555 1_555
C40_21 C19_21 1_555 1_555
C41_21 C22_21 1_555 1_555
H30_21 C41_21 1_555 1_555
C42_17 C38_17 1_555 1_555
H31_17 C42_17 1_555 1_555
H32_17 C42_17 1_555 1_555
H33_17 C42_17 1_555 1_555
O9_17 C14_21 1_555 1_555
C43_17 C15_21 1_555 1_555
H34_17 C43_17 1_555 1_555
C44_17 C18_21 1_555 1_555
C45_17 C44_17 1_555 1_555
H35_17 C45_17 1_555 1_555
H36_17 C45_17 1_555 1_555
H37_17 C45_17 1_555 1_555
O18_5 Zr2_19 1_555 1_555
O20_3 Zr2_19 1_555 1_555
H42_29 O20_3 1_555 1_555
O14_17 Zr2_19 1_555 1_555
C49_17 O22_3 1_555 1_555
C50_17 C49_17 1_555 1_555
C51_17 C50_17 1_555 1_555
H43_17 C51_17 1_555 1_555
C52_17 C51_17 1_555 1_555
C53_17 C52_17 1_555 1_555
C54_17 C53_17 1_555 1_555
C55_17 C50_17 1_555 1_555
H44_17 C55_17 1_555 1_555
C56_17 H45_17 1_555 1_555
C57_17 C53_17 1_555 1_555
C58_17 C57_17 1_555 1_555
H46_17 C58_17 1_555 1_555
C59_17 C58_17 1_555 1_555
H47_17 C59_17 1_555 1_555
C60_17 C52_17 1_555 1_555
H48_17 C60_17 1_555 1_555
H49_17 C60_17 1_555 1_555
H50_17 C60_17 1_555 1_555
C61_17 C54_17 1_555 1_555
H51_17 C61_17 1_555 1_555
H52_17 C61_17 1_555 1_555
H53_17 C61_17 1_555 1_555
O15_17 C62_17 1_555 1_555
O16_12 C62_17 1_555 1_555
C62_17 C63_17 1_555 1_555
C63_17 C64_17 1_555 1_555
C64_17 H54_17 1_555 1_555
C65_17 C64_17 1_555 1_555
C66_17 C65_17 1_555 1_555
C67_17 C66_17 1_555 1_555
C68_17 C63_17 1_555 1_555
H55_17 C68_17 1_555 1_555
C69_17 C56_17 1_555 1_555
C70_17 C59_17 1_555 1_555
H56_17 C70_17 1_555 1_555
C71_17 C65_17 1_555 1_555
H57_17 C71_17 1_555 1_555
H58_17 C71_17 1_555 1_555
H59_17 C71_17 1_555 1_555
C72_17 C67_17 1_555 1_555
H60_17 C72_17 1_555 1_555
H61_17 C72_17 1_555 1_555
H62_17 C72_17 1_555 1_555
Zr6_3 O9_17 1_555 1_555
Zr6_4 O15_17 1_555 1_555
Zr9_13 O16_12 1_555 1_555
O24_10 Zr2_19 1_555 1_555
C19_21 C20_21 1_555 1_555
C39_21 C40_21 1_555 1_555
C40_21 C41_21 1_555 1_555
C43_17 C44_17 1_555 1_555
O14_17 C49_17 1_555 1_555
C54_17 C55_17 1_555 1_555
C56_17 C57_17 1_555 1_555
C66_17 C69_17 1_555 1_555
C67_17 C68_17 1_555 1_555
C69_17 C70_17 1_555 1_555
Zr2_20 O17_6 1_555 1_555
H1_29 O19_3 1_555 1_555
O4_17 Zr2_20 1_555 1_555
C1_17 O21_3 1_555 1_555
C2_17 C1_17 1_555 1_555
C3_17 C2_17 1_555 1_555
H2_17 C3_17 1_555 1_555
C4_17 C3_17 1_555 1_555
C5_17 C4_17 1_555 1_555
C6_17 C5_17 1_555 1_555
C7_17 C2_17 1_555 1_555
H3_17 C7_17 1_555 1_555
C8_17 H4_17 1_555 1_555
C9_17 C5_17 1_555 1_555
C10_17 C9_17 1_555 1_555
H5_17 C10_17 1_555 1_555
C11_17 C10_17 1_555 1_555
H6_17 C11_17 1_555 1_555
C12_17 C4_17 1_555 1_555
H7_17 C12_17 1_555 1_555
H8_17 C12_17 1_555 1_555
H9_17 C12_17 1_555 1_555
C13_17 C6_17 1_555 1_555
H10_17 C13_17 1_555 1_555
H11_17 C13_17 1_555 1_555
H12_17 C13_17 1_555 1_555
C14_22 O26_3 1_555 1_555
C15_22 C14_22 1_555 1_555
C16_17 C15_22 1_555 1_555
H13_17 C16_17 1_555 1_555
C17_17 C16_17 1_555 1_555
C18_22 C17_17 1_555 1_555
C19_22 H14_22 1_555 1_555
C20_22 C18_22 1_555 1_555
C21_22 C20_22 1_555 1_555
H15_22 C21_22 1_555 1_555
C22_22 C21_22 1_555 1_555
H16_22 C22_22 1_555 1_555
C23_17 C17_17 1_555 1_555
H17_17 C23_17 1_555 1_555
H18_17 C23_17 1_555 1_555
H19_17 C23_17 1_555 1_555
O6_17 C24_17 1_555 1_555
O7_10 C24_17 1_555 1_555
C24_17 C25_17 1_555 1_555
C25_17 C26_17 1_555 1_555
C26_17 H20_17 1_555 1_555
C27_17 C26_17 1_555 1_555
C28_17 C27_17 1_555 1_555
C29_17 C28_17 1_555 1_555
C30_17 C25_17 1_555 1_555
H21_17 C30_17 1_555 1_555
C31_17 C8_17 1_555 1_555
C32_17 C11_17 1_555 1_555
H22_17 C32_17 1_555 1_555
C33_17 C27_17 1_555 1_555
H23_17 C33_17 1_555 1_555
H24_17 C33_17 1_555 1_555
H25_17 C33_17 1_555 1_555
C34_17 C29_17 1_555 1_555
H26_17 C34_17 1_555 1_555
H27_17 C34_17 1_555 1_555
H28_17 C34_17 1_555 1_555
C35_22 C36_22 1_555 1_555
C40_22 C19_22 1_555 1_555
C41_22 C22_22 1_555 1_555
H30_22 C41_22 1_555 1_555
O10_17 C35_22 1_555 1_555
C46_17 C36_22 1_555 1_555
H38_17 C46_17 1_555 1_555
C47_17 C39_22 1_555 1_555
C48_17 C47_17 1_555 1_555
H39_17 C48_17 1_555 1_555
H40_17 C48_17 1_555 1_555
H41_17 C48_17 1_555 1_555
O18_6 Zr2_20 1_555 1_555
Zr5_2 O6_17 1_555 1_555
Zr10_12 O7_10 1_555 1_555
O23_12 Zr2_20 1_555 1_555
Zr2_20 O19_3 1_555 1_555
O4_17 C1_17 1_555 1_555
C6_17 C7_17 1_555 1_555
C8_17 C9_17 1_555 1_555
C19_22 C20_22 1_555 1_555
C28_17 C31_17 1_555 1_555
C29_17 C30_17 1_555 1_555
C31_17 C32_17 1_555 1_555
C39_22 C40_22 1_555 1_555
C40_22 C41_22 1_555 1_555
O10_17 Zr5_2 1_555 1_555
C46_17 C47_17 1_555 1_555
C14_23 O27_12 1_555 1_555
C15_23 C14_23 1_555 1_555
C16_18 C15_23 1_555 1_555
H13_18 C16_18 1_555 1_555
C17_18 C16_18 1_555 1_555
C18_23 C17_18 1_555 1_555
C19_23 H14_23 1_555 1_555
C20_23 C18_23 1_555 1_555
C21_23 C20_23 1_555 1_555
H15_23 C21_23 1_555 1_555
C22_23 C21_23 1_555 1_555
H16_23 C22_23 1_555 1_555
C23_18 C17_18 1_555 1_555
H17_18 C23_18 1_555 1_555
H18_18 C23_18 1_555 1_555
H19_18 C23_18 1_555 1_555
C35_23 C36_23 1_555 1_555
C40_23 C19_23 1_555 1_555
C41_23 C22_23 1_555 1_555
H30_23 C41_23 1_555 1_555
O10_18 C35_23 1_555 1_555
C46_18 C36_23 1_555 1_555
H38_18 C46_18 1_555 1_555
C47_18 C39_23 1_555 1_555
C48_18 C47_18 1_555 1_555
H39_18 C48_18 1_555 1_555
H40_18 C48_18 1_555 1_555
H41_18 C48_18 1_555 1_555
C19_23 C20_23 1_555 1_555
C39_23 C40_23 1_555 1_555
C40_23 C41_23 1_555 1_555
O10_18 Zr8_2 1_555 1_555
C46_18 C47_18 1_555 1_555
C15_24 C14_24 1_555 1_555
C19_24 H14_24 1_555 1_555
C20_24 C18_24 1_555 1_555
C21_24 C20_24 1_555 1_555
H15_24 C21_24 1_555 1_555
C22_24 C21_24 1_555 1_555
H16_24 C22_24 1_555 1_555
O26_9 C35_24 1_555 1_555
C35_24 C36_24 1_555 1_555
C36_24 C37_18 1_555 1_555
C37_18 H29_18 1_555 1_555
C38_18 C37_18 1_555 1_555
C39_24 C38_18 1_555 1_555
C40_24 C19_24 1_555 1_555
C41_24 C22_24 1_555 1_555
H30_24 C41_24 1_555 1_555
C42_18 C38_18 1_555 1_555
H31_18 C42_18 1_555 1_555
H32_18 C42_18 1_555 1_555
H33_18 C42_18 1_555 1_555
O9_18 C14_24 1_555 1_555
C43_18 C15_24 1_555 1_555
H34_18 C43_18 1_555 1_555
C44_18 C18_24 1_555 1_555
C45_18 C44_18 1_555 1_555
H35_18 C45_18 1_555 1_555
H36_18 C45_18 1_555 1_555
H37_18 C45_18 1_555 1_555
Zr7_7 O9_18 1_555 1_555
C19_24 C20_24 1_555 1_555
C39_24 C40_24 1_555 1_555
C40_24 C41_24 1_555 1_555
C43_18 C44_18 1_555 1_555
C14_25 O27_3 1_555 1_555
C15_25 C14_25 1_555 1_555
C16_19 C15_25 1_555 1_555
H13_19 C16_19 1_555 1_555
C17_19 C16_19 1_555 1_555
C18_25 C17_19 1_555 1_555
C19_25 H14_25 1_555 1_555
C20_25 C18_25 1_555 1_555
C21_25 C20_25 1_555 1_555
H15_25 C21_25 1_555 1_555
C22_25 C21_25 1_555 1_555
H16_25 C22_25 1_555 1_555
C23_19 C17_19 1_555 1_555
H17_19 C23_19 1_555 1_555
H18_19 C23_19 1_555 1_555
H19_19 C23_19 1_555 1_555
C35_25 C36_25 1_555 1_555
C40_25 C19_25 1_555 1_555
C41_25 C22_25 1_555 1_555
H30_25 C41_25 1_555 1_555
O10_19 C35_25 1_555 1_555
C46_19 C36_25 1_555 1_555
H38_19 C46_19 1_555 1_555
C47_19 C39_25 1_555 1_555
C48_19 C47_19 1_555 1_555
H39_19 C48_19 1_555 1_555
H40_19 C48_19 1_555 1_555
H41_19 C48_19 1_555 1_555
C19_25 C20_25 1_555 1_555
C39_25 C40_25 1_555 1_555
C40_25 C41_25 1_555 1_555
O10_19 Zr6_4 1_555 1_555
C46_19 C47_19 1_555 1_555
C15_26 C14_26 1_555 1_555
C19_26 H14_26 1_555 1_555
C20_26 C18_26 1_555 1_555
C21_26 C20_26 1_555 1_555
H15_26 C21_26 1_555 1_555
C22_26 C21_26 1_555 1_555
H16_26 C22_26 1_555 1_555
O26_4 C35_26 1_555 1_555
C35_26 C36_26 1_555 1_555
C36_26 C37_19 1_555 1_555
C37_19 H29_19 1_555 1_555
C38_19 C37_19 1_555 1_555
C39_26 C38_19 1_555 1_555
C40_26 C19_26 1_555 1_555
C41_26 C22_26 1_555 1_555
H30_26 C41_26 1_555 1_555
C42_19 C38_19 1_555 1_555
H31_19 C42_19 1_555 1_555
H32_19 C42_19 1_555 1_555
H33_19 C42_19 1_555 1_555
O9_19 C14_26 1_555 1_555
C43_19 C15_26 1_555 1_555
H34_19 C43_19 1_555 1_555
C44_19 C18_26 1_555 1_555
C45_19 C44_19 1_555 1_555
H35_19 C45_19 1_555 1_555
H36_19 C45_19 1_555 1_555
H37_19 C45_19 1_555 1_555
Zr5_3 O9_19 1_555 1_555
C19_26 C20_26 1_555 1_555
C39_26 C40_26 1_555 1_555
C40_26 C41_26 1_555 1_555
C43_19 C44_19 1_555 1_555
Zr9_9 O17_17 1_555 1_555
O18_17 Zr9_9 1_555 1_555
O20_9 Zr9_9 1_555 1_555
H42_30 O20_9 1_555 1_555
O14_18 Zr9_9 1_555 1_555
C49_18 O22_9 1_555 1_555
C50_18 C49_18 1_555 1_555
C51_18 C50_18 1_555 1_555
H43_18 C51_18 1_555 1_555
C52_18 C51_18 1_555 1_555
C53_18 C52_18 1_555 1_555
C54_18 C53_18 1_555 1_555
C55_18 C50_18 1_555 1_555
H44_18 C55_18 1_555 1_555
C56_18 H45_18 1_555 1_555
C57_18 C53_18 1_555 1_555
C58_18 C57_18 1_555 1_555
H46_18 C58_18 1_555 1_555
C59_18 C58_18 1_555 1_555
H47_18 C59_18 1_555 1_555
C60_18 C52_18 1_555 1_555
H48_18 C60_18 1_555 1_555
H49_18 C60_18 1_555 1_555
H50_18 C60_18 1_555 1_555
C61_18 C54_18 1_555 1_555
H51_18 C61_18 1_555 1_555
H52_18 C61_18 1_555 1_555
H53_18 C61_18 1_555 1_555
O15_18 C62_18 1_555 1_555
O23_10 C62_18 1_555 1_555
C62_18 C63_18 1_555 1_555
C63_18 C64_18 1_555 1_555
C64_18 H54_18 1_555 1_555
C65_18 C64_18 1_555 1_555
C66_18 C65_18 1_555 1_555
C67_18 C66_18 1_555 1_555
C68_18 C63_18 1_555 1_555
H55_18 C68_18 1_555 1_555
C69_18 C56_18 1_555 1_555
C70_18 C59_18 1_555 1_555
H56_18 C70_18 1_555 1_555
C71_18 C65_18 1_555 1_555
H57_18 C71_18 1_555 1_555
H58_18 C71_18 1_555 1_555
H59_18 C71_18 1_555 1_555
C72_18 C67_18 1_555 1_555
H60_18 C72_18 1_555 1_555
H61_18 C72_18 1_555 1_555
H62_18 C72_18 1_555 1_555
Zr5_5 O15_18 1_555 1_555
O14_18 C49_18 1_555 1_555
C54_18 C55_18 1_555 1_555
C56_18 C57_18 1_555 1_555
C66_18 C69_18 1_555 1_555
C67_18 C68_18 1_555 1_555
C69_18 C70_18 1_555 1_555
Zr9_10 O17_18 1_555 1_555
H1_30 O19_9 1_555 1_555
O4_18 Zr9_10 1_555 1_555
C1_18 O21_9 1_555 1_555
C2_18 C1_18 1_555 1_555
C3_18 C2_18 1_555 1_555
H2_18 C3_18 1_555 1_555
C4_18 C3_18 1_555 1_555
C5_18 C4_18 1_555 1_555
C6_18 C5_18 1_555 1_555
C7_18 C2_18 1_555 1_555
H3_18 C7_18 1_555 1_555
C8_18 H4_18 1_555 1_555
C9_18 C5_18 1_555 1_555
C10_18 C9_18 1_555 1_555
H5_18 C10_18 1_555 1_555
C11_18 C10_18 1_555 1_555
H6_18 C11_18 1_555 1_555
C12_18 C4_18 1_555 1_555
H7_18 C12_18 1_555 1_555
H8_18 C12_18 1_555 1_555
H9_18 C12_18 1_555 1_555
C13_18 C6_18 1_555 1_555
H10_18 C13_18 1_555 1_555
H11_18 C13_18 1_555 1_555
H12_18 C13_18 1_555 1_555
O6_18 C24_18 1_555 1_555
O23_8 C24_18 1_555 1_555
C24_18 C25_18 1_555 1_555
C25_18 C26_18 1_555 1_555
C26_18 H20_18 1_555 1_555
C27_18 C26_18 1_555 1_555
C28_18 C27_18 1_555 1_555
C29_18 C28_18 1_555 1_555
C30_18 C25_18 1_555 1_555
H21_18 C30_18 1_555 1_555
C31_18 C8_18 1_555 1_555
C32_18 C11_18 1_555 1_555
H22_18 C32_18 1_555 1_555
C33_18 C27_18 1_555 1_555
H23_18 C33_18 1_555 1_555
H24_18 C33_18 1_555 1_555
H25_18 C33_18 1_555 1_555
C34_18 C29_18 1_555 1_555
H26_18 C34_18 1_555 1_555
H27_18 C34_18 1_555 1_555
H28_18 C34_18 1_555 1_555
O18_18 Zr9_10 1_555 1_555
Zr7_7 O6_18 1_555 1_555
Zr9_10 O19_9 1_555 1_555
O4_18 C1_18 1_555 1_555
C6_18 C7_18 1_555 1_555
C8_18 C9_18 1_555 1_555
C28_18 C31_18 1_555 1_555
C29_18 C30_18 1_555 1_555
C31_18 C32_18 1_555 1_555
C15_27 C14_27 1_555 1_555
C19_27 H14_27 1_555 1_555
C20_27 C18_27 1_555 1_555
C21_27 C20_27 1_555 1_555
H15_27 C21_27 1_555 1_555
C22_27 C21_27 1_555 1_555
H16_27 C22_27 1_555 1_555
O27_9 C35_27 1_555 1_555
C35_27 C36_27 1_555 1_555
C36_27 C37_20 1_555 1_555
C37_20 H29_20 1_555 1_555
C38_20 C37_20 1_555 1_555
C39_27 C38_20 1_555 1_555
C40_27 C19_27 1_555 1_555
C41_27 C22_27 1_555 1_555
H30_27 C41_27 1_555 1_555
C42_20 C38_20 1_555 1_555
H31_20 C42_20 1_555 1_555
H32_20 C42_20 1_555 1_555
H33_20 C42_20 1_555 1_555
O9_20 C14_27 1_555 1_555
C43_20 C15_27 1_555 1_555
H34_20 C43_20 1_555 1_555
C44_20 C18_27 1_555 1_555
C45_20 C44_20 1_555 1_555
H35_20 C45_20 1_555 1_555
H36_20 C45_20 1_555 1_555
H37_20 C45_20 1_555 1_555
Zr5_5 O9_20 1_555 1_555
C19_27 C20_27 1_555 1_555
C39_27 C40_27 1_555 1_555
C40_27 C41_27 1_555 1_555
C43_20 C44_20 1_555 1_555
C14_28 O27_5 1_555 1_555
C15_28 C14_28 1_555 1_555
C16_20 C15_28 1_555 1_555
H13_20 C16_20 1_555 1_555
C17_20 C16_20 1_555 1_555
C18_28 C17_20 1_555 1_555
C19_28 H14_28 1_555 1_555
C20_28 C18_28 1_555 1_555
C21_28 C20_28 1_555 1_555
H15_28 C21_28 1_555 1_555
C22_28 C21_28 1_555 1_555
H16_28 C22_28 1_555 1_555
C23_20 C17_20 1_555 1_555
H17_20 C23_20 1_555 1_555
H18_20 C23_20 1_555 1_555
H19_20 C23_20 1_555 1_555
C35_28 C36_28 1_555 1_555
C40_28 C19_28 1_555 1_555
C41_28 C22_28 1_555 1_555
H30_28 C41_28 1_555 1_555
O10_20 C35_28 1_555 1_555
C46_20 C36_28 1_555 1_555
H38_20 C46_20 1_555 1_555
C47_20 C39_28 1_555 1_555
C48_20 C47_20 1_555 1_555
H39_20 C48_20 1_555 1_555
H40_20 C48_20 1_555 1_555
H41_20 C48_20 1_555 1_555
C19_28 C20_28 1_555 1_555
C39_28 C40_28 1_555 1_555
C40_28 C41_28 1_555 1_555
O10_20 Zr8_4 1_555 1_555
C46_20 C47_20 1_555 1_555
Zr10_7 O17_21 1_555 1_555
O18_21 Zr10_7 1_555 1_555
O20_11 Zr10_7 1_555 1_555
H42_31 O20_11 1_555 1_555
O14_19 Zr10_7 1_555 1_555
C49_19 O22_11 1_555 1_555
C50_19 C49_19 1_555 1_555
C51_19 C50_19 1_555 1_555
H43_19 C51_19 1_555 1_555
C52_19 C51_19 1_555 1_555
C53_19 C52_19 1_555 1_555
C54_19 C53_19 1_555 1_555
C55_19 C50_19 1_555 1_555
H44_19 C55_19 1_555 1_555
C56_19 H45_19 1_555 1_555
C57_19 C53_19 1_555 1_555
C58_19 C57_19 1_555 1_555
H46_19 C58_19 1_555 1_555
C59_19 C58_19 1_555 1_555
H47_19 C59_19 1_555 1_555
C60_19 C52_19 1_555 1_555
H48_19 C60_19 1_555 1_555
H49_19 C60_19 1_555 1_555
H50_19 C60_19 1_555 1_555
C61_19 C54_19 1_555 1_555
H51_19 C61_19 1_555 1_555
H52_19 C61_19 1_555 1_555
H53_19 C61_19 1_555 1_555
O15_19 C62_19 1_555 1_555
O24_6 C62_19 1_555 1_555
C62_19 C63_19 1_555 1_555
C63_19 C64_19 1_555 1_555
C64_19 H54_19 1_555 1_555
C65_19 C64_19 1_555 1_555
C66_19 C65_19 1_555 1_555
C67_19 C66_19 1_555 1_555
C68_19 C63_19 1_555 1_555
H55_19 C68_19 1_555 1_555
C69_19 C56_19 1_555 1_555
C70_19 C59_19 1_555 1_555
H56_19 C70_19 1_555 1_555
C71_19 C65_19 1_555 1_555
H57_19 C71_19 1_555 1_555
H58_19 C71_19 1_555 1_555
H59_19 C71_19 1_555 1_555
C72_19 C67_19 1_555 1_555
H60_19 C72_19 1_555 1_555
H61_19 C72_19 1_555 1_555
H62_19 C72_19 1_555 1_555
Zr7_6 O15_19 1_555 1_555
O14_19 C49_19 1_555 1_555
C54_19 C55_19 1_555 1_555
C56_19 C57_19 1_555 1_555
C66_19 C69_19 1_555 1_555
C67_19 C68_19 1_555 1_555
C69_19 C70_19 1_555 1_555
Zr10_8 O17_22 1_555 1_555
H1_31 O19_11 1_555 1_555
O4_19 Zr10_8 1_555 1_555
C1_19 O21_11 1_555 1_555
C2_19 C1_19 1_555 1_555
C3_19 C2_19 1_555 1_555
H2_19 C3_19 1_555 1_555
C4_19 C3_19 1_555 1_555
C5_19 C4_19 1_555 1_555
C6_19 C5_19 1_555 1_555
C7_19 C2_19 1_555 1_555
H3_19 C7_19 1_555 1_555
C8_19 H4_19 1_555 1_555
C9_19 C5_19 1_555 1_555
C10_19 C9_19 1_555 1_555
H5_19 C10_19 1_555 1_555
C11_19 C10_19 1_555 1_555
H6_19 C11_19 1_555 1_555
C12_19 C4_19 1_555 1_555
H7_19 C12_19 1_555 1_555
H8_19 C12_19 1_555 1_555
H9_19 C12_19 1_555 1_555
C13_19 C6_19 1_555 1_555
H10_19 C13_19 1_555 1_555
H11_19 C13_19 1_555 1_555
H12_19 C13_19 1_555 1_555
O6_19 C24_19 1_555 1_555
O24_8 C24_19 1_555 1_555
C24_19 C25_19 1_555 1_555
C25_19 C26_19 1_555 1_555
C26_19 H20_19 1_555 1_555
C27_19 C26_19 1_555 1_555
C28_19 C27_19 1_555 1_555
C29_19 C28_19 1_555 1_555
C30_19 C25_19 1_555 1_555
H21_19 C30_19 1_555 1_555
C31_19 C8_19 1_555 1_555
C32_19 C11_19 1_555 1_555
H22_19 C32_19 1_555 1_555
C33_19 C27_19 1_555 1_555
H23_19 C33_19 1_555 1_555
H24_19 C33_19 1_555 1_555
H25_19 C33_19 1_555 1_555
C34_19 C29_19 1_555 1_555
H26_19 C34_19 1_555 1_555
H27_19 C34_19 1_555 1_555
H28_19 C34_19 1_555 1_555
O18_22 Zr10_8 1_555 1_555
Zr6_5 O6_19 1_555 1_555
Zr10_8 O19_11 1_555 1_555
O4_19 C1_19 1_555 1_555
C6_19 C7_19 1_555 1_555
C8_19 C9_19 1_555 1_555
C28_19 C31_19 1_555 1_555
C29_19 C30_19 1_555 1_555
C31_19 C32_19 1_555 1_555
Zr9_13 O17_7 1_555 1_555
O18_7 Zr9_13 1_555 1_555
O20_4 Zr9_13 1_555 1_555
H42_32 O20_4 1_555 1_555
O14_20 Zr9_13 1_555 1_555
C49_20 O22_4 1_555 1_555
C50_20 C49_20 1_555 1_555
C51_20 C50_20 1_555 1_555
H43_20 C51_20 1_555 1_555
C52_20 C51_20 1_555 1_555
C53_20 C52_20 1_555 1_555
C54_20 C53_20 1_555 1_555
C55_20 C50_20 1_555 1_555
H44_20 C55_20 1_555 1_555
C56_20 H45_20 1_555 1_555
C57_20 C53_20 1_555 1_555
C58_20 C57_20 1_555 1_555
H46_20 C58_20 1_555 1_555
C59_20 C58_20 1_555 1_555
H47_20 C59_20 1_555 1_555
C60_20 C52_20 1_555 1_555
H48_20 C60_20 1_555 1_555
H49_20 C60_20 1_555 1_555
H50_20 C60_20 1_555 1_555
C61_20 C54_20 1_555 1_555
H51_20 C61_20 1_555 1_555
H52_20 C61_20 1_555 1_555
H53_20 C61_20 1_555 1_555
O15_20 C62_20 1_555 1_555
O16_13 C62_20 1_555 1_555
C62_20 C63_20 1_555 1_555
C63_20 C64_20 1_555 1_555
C64_20 H54_20 1_555 1_555
C65_20 C64_20 1_555 1_555
C66_20 C65_20 1_555 1_555
C67_20 C66_20 1_555 1_555
C68_20 C63_20 1_555 1_555
H55_20 C68_20 1_555 1_555
C69_20 C56_20 1_555 1_555
C70_20 C59_20 1_555 1_555
H56_20 C70_20 1_555 1_555
C71_20 C65_20 1_555 1_555
H57_20 C71_20 1_555 1_555
H58_20 C71_20 1_555 1_555
H59_20 C71_20 1_555 1_555
C72_20 C67_20 1_555 1_555
H60_20 C72_20 1_555 1_555
H61_20 C72_20 1_555 1_555
H62_20 C72_20 1_555 1_555
Zr6 O15_20 1_555 1_555
Zr9_15 O16_13 1_555 1_555
O14_20 C49_20 1_555 1_555
C54_20 C55_20 1_555 1_555
C56_20 C57_20 1_555 1_555
C66_20 C69_20 1_555 1_555
C67_20 C68_20 1_555 1_555
C69_20 C70_20 1_555 1_555
Zr9_14 O17_8 1_555 1_555
H1_32 O19_4 1_555 1_555
O4_20 Zr9_14 1_555 1_555
C1_20 O21_4 1_555 1_555
C2_20 C1_20 1_555 1_555
C3_20 C2_20 1_555 1_555
H2_20 C3_20 1_555 1_555
C4_20 C3_20 1_555 1_555
C5_20 C4_20 1_555 1_555
C6_20 C5_20 1_555 1_555
C7_20 C2_20 1_555 1_555
H3_20 C7_20 1_555 1_555
C8_20 H4_20 1_555 1_555
C9_20 C5_20 1_555 1_555
C10_20 C9_20 1_555 1_555
H5_20 C10_20 1_555 1_555
C11_20 C10_20 1_555 1_555
H6_20 C11_20 1_555 1_555
C12_20 C4_20 1_555 1_555
H7_20 C12_20 1_555 1_555
H8_20 C12_20 1_555 1_555
H9_20 C12_20 1_555 1_555
C13_20 C6_20 1_555 1_555
H10_20 C13_20 1_555 1_555
H11_20 C13_20 1_555 1_555
H12_20 C13_20 1_555 1_555
O6_20 C24_20 1_555 1_555
O23_12 C24_20 1_555 1_555
C24_20 C25_20 1_555 1_555
C25_20 C26_20 1_555 1_555
C26_20 H20_20 1_555 1_555
C27_20 C26_20 1_555 1_555
C28_20 C27_20 1_555 1_555
C29_20 C28_20 1_555 1_555
C30_20 C25_20 1_555 1_555
H21_20 C30_20 1_555 1_555
C31_20 C8_20 1_555 1_555
C32_20 C11_20 1_555 1_555
H22_20 C32_20 1_555 1_555
C33_20 C27_20 1_555 1_555
H23_20 C33_20 1_555 1_555
H24_20 C33_20 1_555 1_555
H25_20 C33_20 1_555 1_555
C34_20 C29_20 1_555 1_555
H26_20 C34_20 1_555 1_555
H27_20 C34_20 1_555 1_555
H28_20 C34_20 1_555 1_555
O18_8 Zr9_14 1_555 1_555
Zr5_3 O6_20 1_555 1_555
O23_13 Zr9_14 1_555 1_555
Zr9_14 O19_4 1_555 1_555
O4_20 C1_20 1_555 1_555
C6_20 C7_20 1_555 1_555
C8_20 C9_20 1_555 1_555
C28_20 C31_20 1_555 1_555
C29_20 C30_20 1_555 1_555
C31_20 C32_20 1_555 1_555
Zr10_9 O17_11 1_555 1_555
O18_11 Zr10_9 1_555 1_555
O20_6 Zr10_9 1_555 1_555
H42_33 O20_6 1_555 1_555
O14_21 Zr10_9 1_555 1_555
C49_21 O22_6 1_555 1_555
C50_21 C49_21 1_555 1_555
C51_21 C50_21 1_555 1_555
H43_21 C51_21 1_555 1_555
C52_21 C51_21 1_555 1_555
C53_21 C52_21 1_555 1_555
C54_21 C53_21 1_555 1_555
C55_21 C50_21 1_555 1_555
H44_21 C55_21 1_555 1_555
C56_21 H45_21 1_555 1_555
C57_21 C53_21 1_555 1_555
C58_21 C57_21 1_555 1_555
H46_21 C58_21 1_555 1_555
C59_21 C58_21 1_555 1_555
H47_21 C59_21 1_555 1_555
C60_21 C52_21 1_555 1_555
H48_21 C60_21 1_555 1_555
H49_21 C60_21 1_555 1_555
H50_21 C60_21 1_555 1_555
C61_21 C54_21 1_555 1_555
H51_21 C61_21 1_555 1_555
H52_21 C61_21 1_555 1_555
H53_21 C61_21 1_555 1_555
O15_21 C62_21 1_555 1_555
O24_9 C62_21 1_555 1_555
C62_21 C63_21 1_555 1_555
C63_21 C64_21 1_555 1_555
C64_21 H54_21 1_555 1_555
C65_21 C64_21 1_555 1_555
C66_21 C65_21 1_555 1_555
C67_21 C66_21 1_555 1_555
C68_21 C63_21 1_555 1_555
H55_21 C68_21 1_555 1_555
C69_21 C56_21 1_555 1_555
C70_21 C59_21 1_555 1_555
H56_21 C70_21 1_555 1_555
C71_21 C65_21 1_555 1_555
H57_21 C71_21 1_555 1_555
H58_21 C71_21 1_555 1_555
H59_21 C71_21 1_555 1_555
C72_21 C67_21 1_555 1_555
H60_21 C72_21 1_555 1_555
H61_21 C72_21 1_555 1_555
H62_21 C72_21 1_555 1_555
Zr7_5 O15_21 1_555 1_555
O14_21 C49_21 1_555 1_555
C54_21 C55_21 1_555 1_555
C56_21 C57_21 1_555 1_555
C66_21 C69_21 1_555 1_555
C67_21 C68_21 1_555 1_555
C69_21 C70_21 1_555 1_555
Zr10_10 O17_12 1_555 1_555
H1_33 O19_6 1_555 1_555
O4_21 Zr10_10 1_555 1_555
C1_21 O21_6 1_555 1_555
C2_21 C1_21 1_555 1_555
C3_21 C2_21 1_555 1_555
H2_21 C3_21 1_555 1_555
C4_21 C3_21 1_555 1_555
C5_21 C4_21 1_555 1_555
C6_21 C5_21 1_555 1_555
C7_21 C2_21 1_555 1_555
H3_21 C7_21 1_555 1_555
C8_21 H4_21 1_555 1_555
C9_21 C5_21 1_555 1_555
C10_21 C9_21 1_555 1_555
H5_21 C10_21 1_555 1_555
C11_21 C10_21 1_555 1_555
H6_21 C11_21 1_555 1_555
C12_21 C4_21 1_555 1_555
H7_21 C12_21 1_555 1_555
H8_21 C12_21 1_555 1_555
H9_21 C12_21 1_555 1_555
C13_21 C6_21 1_555 1_555
H10_21 C13_21 1_555 1_555
H11_21 C13_21 1_555 1_555
H12_21 C13_21 1_555 1_555
O6_21 C24_21 1_555 1_555
O24_7 C24_21 1_555 1_555
C24_21 C25_21 1_555 1_555
C25_21 C26_21 1_555 1_555
C26_21 H20_21 1_555 1_555
C27_21 C26_21 1_555 1_555
C28_21 C27_21 1_555 1_555
C29_21 C28_21 1_555 1_555
C30_21 C25_21 1_555 1_555
H21_21 C30_21 1_555 1_555
C31_21 C8_21 1_555 1_555
C32_21 C11_21 1_555 1_555
H22_21 C32_21 1_555 1_555
C33_21 C27_21 1_555 1_555
H23_21 C33_21 1_555 1_555
H24_21 C33_21 1_555 1_555
H25_21 C33_21 1_555 1_555
C34_21 C29_21 1_555 1_555
H26_21 C34_21 1_555 1_555
H27_21 C34_21 1_555 1_555
H28_21 C34_21 1_555 1_555
O18_12 Zr10_10 1_555 1_555
Zr5_7 O6_21 1_555 1_555
Zr10_10 O19_6 1_555 1_555
O4_21 C1_21 1_555 1_555
C6_21 C7_21 1_555 1_555
C8_21 C9_21 1_555 1_555
C28_21 C31_21 1_555 1_555
C29_21 C30_21 1_555 1_555
C31_21 C32_21 1_555 1_555
Zr10_11 O18_3 1_555 1_555
H1_34 O20_2 1_555 1_555
O4_22 Zr10_11 1_555 1_555
C1_22 O22_2 1_555 1_555
C2_22 C1_22 1_555 1_555
C3_22 C2_22 1_555 1_555
H2_22 C3_22 1_555 1_555
C4_22 C3_22 1_555 1_555
C5_22 C4_22 1_555 1_555
C6_22 C5_22 1_555 1_555
C7_22 C2_22 1_555 1_555
H3_22 C7_22 1_555 1_555
C8_22 H4_22 1_555 1_555
C9_22 C5_22 1_555 1_555
C10_22 C9_22 1_555 1_555
H5_22 C10_22 1_555 1_555
C11_22 C10_22 1_555 1_555
H6_22 C11_22 1_555 1_555
C12_22 C4_22 1_555 1_555
H7_22 C12_22 1_555 1_555
H8_22 C12_22 1_555 1_555
H9_22 C12_22 1_555 1_555
C13_22 C6_22 1_555 1_555
H10_22 C13_22 1_555 1_555
H11_22 C13_22 1_555 1_555
H12_22 C13_22 1_555 1_555
O6_22 C24_22 1_555 1_555
O24_10 C24_22 1_555 1_555
C24_22 C25_22 1_555 1_555
C25_22 C26_22 1_555 1_555
C26_22 H20_22 1_555 1_555
C27_22 C26_22 1_555 1_555
C28_22 C27_22 1_555 1_555
C29_22 C28_22 1_555 1_555
C30_22 C25_22 1_555 1_555
H21_22 C30_22 1_555 1_555
C31_22 C8_22 1_555 1_555
C32_22 C11_22 1_555 1_555
H22_22 C32_22 1_555 1_555
C33_22 C27_22 1_555 1_555
H23_22 C33_22 1_555 1_555
H24_22 C33_22 1_555 1_555
H25_22 C33_22 1_555 1_555
C34_22 C29_22 1_555 1_555
H26_22 C34_22 1_555 1_555
H27_22 C34_22 1_555 1_555
H28_22 C34_22 1_555 1_555
O17_3 Zr10_11 1_555 1_555
Zr6_3 O6_22 1_555 1_555
O23_14 Zr10_11 1_555 1_555
Zr10_11 O20_2 1_555 1_555
O4_22 C1_22 1_555 1_555
C6_22 C7_22 1_555 1_555
C8_22 C9_22 1_555 1_555
C28_22 C31_22 1_555 1_555
C29_22 C30_22 1_555 1_555
C31_22 C32_22 1_555 1_555
Zr10_12 O18_4 1_555 1_555
O17_4 Zr10_12 1_555 1_555
O19_2 Zr10_12 1_555 1_555
H42_34 O19_2 1_555 1_555
O14_22 Zr10_12 1_555 1_555
C49_22 O21_2 1_555 1_555
C50_22 C49_22 1_555 1_555
C51_22 C50_22 1_555 1_555
H43_22 C51_22 1_555 1_555
C52_22 C51_22 1_555 1_555
C53_22 C52_22 1_555 1_555
C54_22 C53_22 1_555 1_555
C55_22 C50_22 1_555 1_555
H44_22 C55_22 1_555 1_555
C56_22 H45_22 1_555 1_555
C57_22 C53_22 1_555 1_555
C58_22 C57_22 1_555 1_555
H46_22 C58_22 1_555 1_555
C59_22 C58_22 1_555 1_555
H47_22 C59_22 1_555 1_555
C60_22 C52_22 1_555 1_555
H48_22 C60_22 1_555 1_555
H49_22 C60_22 1_555 1_555
H50_22 C60_22 1_555 1_555
C61_22 C54_22 1_555 1_555
H51_22 C61_22 1_555 1_555
H52_22 C61_22 1_555 1_555
H53_22 C61_22 1_555 1_555
O15_22 C62_22 1_555 1_555
O16_14 C62_22 1_555 1_555
C62_22 C63_22 1_555 1_555
C63_22 C64_22 1_555 1_555
C64_22 H54_22 1_555 1_555
C65_22 C64_22 1_555 1_555
C66_22 C65_22 1_555 1_555
C67_22 C66_22 1_555 1_555
C68_22 C63_22 1_555 1_555
H55_22 C68_22 1_555 1_555
C69_22 C56_22 1_555 1_555
C70_22 C59_22 1_555 1_555
H56_22 C70_22 1_555 1_555
C71_22 C65_22 1_555 1_555
H57_22 C71_22 1_555 1_555
H58_22 C71_22 1_555 1_555
H59_22 C71_22 1_555 1_555
C72_22 C67_22 1_555 1_555
H60_22 C72_22 1_555 1_555
H61_22 C72_22 1_555 1_555
H62_22 C72_22 1_555 1_555
Zr5 O15_22 1_555 1_555
Zr9_16 O16_14 1_555 1_555
O14_22 C49_22 1_555 1_555
C54_22 C55_22 1_555 1_555
C56_22 C57_22 1_555 1_555
C66_22 C69_22 1_555 1_555
C67_22 C68_22 1_555 1_555
C69_22 C70_22 1_555 1_555
Zr9_11 O17_13 1_555 1_555
H1_35 O19_7 1_555 1_555
O4_23 Zr9_11 1_555 1_555
C1_23 O21_7 1_555 1_555
C2_23 C1_23 1_555 1_555
C3_23 C2_23 1_555 1_555
H2_23 C3_23 1_555 1_555
C4_23 C3_23 1_555 1_555
C5_23 C4_23 1_555 1_555
C6_23 C5_23 1_555 1_555
C7_23 C2_23 1_555 1_555
H3_23 C7_23 1_555 1_555
C8_23 H4_23 1_555 1_555
C9_23 C5_23 1_555 1_555
C10_23 C9_23 1_555 1_555
H5_23 C10_23 1_555 1_555
C11_23 C10_23 1_555 1_555
H6_23 C11_23 1_555 1_555
C12_23 C4_23 1_555 1_555
H7_23 C12_23 1_555 1_555
H8_23 C12_23 1_555 1_555
H9_23 C12_23 1_555 1_555
C13_23 C6_23 1_555 1_555
H10_23 C13_23 1_555 1_555
H11_23 C13_23 1_555 1_555
H12_23 C13_23 1_555 1_555
C14_29 O26_7 1_555 1_555
C15_29 C14_29 1_555 1_555
C16_21 C15_29 1_555 1_555
H13_21 C16_21 1_555 1_555
C17_21 C16_21 1_555 1_555
C18_29 C17_21 1_555 1_555
C19_29 H14_29 1_555 1_555
C20_29 C18_29 1_555 1_555
C21_29 C20_29 1_555 1_555
H15_29 C21_29 1_555 1_555
C22_29 C21_29 1_555 1_555
H16_29 C22_29 1_555 1_555
C23_21 C17_21 1_555 1_555
H17_21 C23_21 1_555 1_555
H18_21 C23_21 1_555 1_555
H19_21 C23_21 1_555 1_555
O6_23 C24_23 1_555 1_555
O23_9 C24_23 1_555 1_555
C24_23 C25_23 1_555 1_555
C25_23 C26_23 1_555 1_555
C26_23 H20_23 1_555 1_555
C27_23 C26_23 1_555 1_555
C28_23 C27_23 1_555 1_555
C29_23 C28_23 1_555 1_555
C30_23 C25_23 1_555 1_555
H21_23 C30_23 1_555 1_555
C31_23 C8_23 1_555 1_555
C32_23 C11_23 1_555 1_555
H22_23 C32_23 1_555 1_555
C33_23 C27_23 1_555 1_555
H23_23 C33_23 1_555 1_555
H24_23 C33_23 1_555 1_555
H25_23 C33_23 1_555 1_555
C34_23 C29_23 1_555 1_555
H26_23 C34_23 1_555 1_555
H27_23 C34_23 1_555 1_555
H28_23 C34_23 1_555 1_555
C35_29 C36_29 1_555 1_555
C40_29 C19_29 1_555 1_555
C41_29 C22_29 1_555 1_555
H30_29 C41_29 1_555 1_555
O10_21 C35_29 1_555 1_555
C46_21 C36_29 1_555 1_555
H38_21 C46_21 1_555 1_555
C47_21 C39_29 1_555 1_555
C48_21 C47_21 1_555 1_555
H39_21 C48_21 1_555 1_555
H40_21 C48_21 1_555 1_555
H41_21 C48_21 1_555 1_555
O18_13 Zr9_11 1_555 1_555
Zr8_5 O6_23 1_555 1_555
Zr9_11 O19_7 1_555 1_555
O4_23 C1_23 1_555 1_555
C6_23 C7_23 1_555 1_555
C8_23 C9_23 1_555 1_555
C19_29 C20_29 1_555 1_555
C28_23 C31_23 1_555 1_555
C29_23 C30_23 1_555 1_555
C31_23 C32_23 1_555 1_555
C39_29 C40_29 1_555 1_555
C40_29 C41_29 1_555 1_555
O10_21 Zr8_5 1_555 1_555
C46_21 C47_21 1_555 1_555
Zr9_12 O17_14 1_555 1_555
C15_30 C14_30 1_555 1_555
C19_30 H14_30 1_555 1_555
C20_30 C18_30 1_555 1_555
C21_30 C20_30 1_555 1_555
H15_30 C21_30 1_555 1_555
C22_30 C21_30 1_555 1_555
H16_30 C22_30 1_555 1_555
O26_10 C35_30 1_555 1_555
C35_30 C36_30 1_555 1_555
C36_30 C37_21 1_555 1_555
C37_21 H29_21 1_555 1_555
C38_21 C37_21 1_555 1_555
C39_30 C38_21 1_555 1_555
C40_30 C19_30 1_555 1_555
C41_30 C22_30 1_555 1_555
H30_30 C41_30 1_555 1_555
C42_21 C38_21 1_555 1_555
H31_21 C42_21 1_555 1_555
H32_21 C42_21 1_555 1_555
H33_21 C42_21 1_555 1_555
O9_21 C14_30 1_555 1_555
C43_21 C15_30 1_555 1_555
H34_21 C43_21 1_555 1_555
C44_21 C18_30 1_555 1_555
C45_21 C44_21 1_555 1_555
H35_21 C45_21 1_555 1_555
H36_21 C45_21 1_555 1_555
H37_21 C45_21 1_555 1_555
O18_14 Zr9_12 1_555 1_555
O20_7 Zr9_12 1_555 1_555
H42_35 O20_7 1_555 1_555
O14_23 Zr9_12 1_555 1_555
C49_23 O22_7 1_555 1_555
C50_23 C49_23 1_555 1_555
C51_23 C50_23 1_555 1_555
H43_23 C51_23 1_555 1_555
C52_23 C51_23 1_555 1_555
C53_23 C52_23 1_555 1_555
C54_23 C53_23 1_555 1_555
C55_23 C50_23 1_555 1_555
H44_23 C55_23 1_555 1_555
C56_23 H45_23 1_555 1_555
C57_23 C53_23 1_555 1_555
C58_23 C57_23 1_555 1_555
H46_23 C58_23 1_555 1_555
C59_23 C58_23 1_555 1_555
H47_23 C59_23 1_555 1_555
C60_23 C52_23 1_555 1_555
H48_23 C60_23 1_555 1_555
H49_23 C60_23 1_555 1_555
H50_23 C60_23 1_555 1_555
C61_23 C54_23 1_555 1_555
H51_23 C61_23 1_555 1_555
H52_23 C61_23 1_555 1_555
H53_23 C61_23 1_555 1_555
O15_23 C62_23 1_555 1_555
O23_11 C62_23 1_555 1_555
C62_23 C63_23 1_555 1_555
C63_23 C64_23 1_555 1_555
C64_23 H54_23 1_555 1_555
C65_23 C64_23 1_555 1_555
C66_23 C65_23 1_555 1_555
C67_23 C66_23 1_555 1_555
C68_23 C63_23 1_555 1_555
H55_23 C68_23 1_555 1_555
C69_23 C56_23 1_555 1_555
C70_23 C59_23 1_555 1_555
H56_23 C70_23 1_555 1_555
C71_23 C65_23 1_555 1_555
H57_23 C71_23 1_555 1_555
H58_23 C71_23 1_555 1_555
H59_23 C71_23 1_555 1_555
C72_23 C67_23 1_555 1_555
H60_23 C72_23 1_555 1_555
H61_23 C72_23 1_555 1_555
H62_23 C72_23 1_555 1_555
Zr8_3 O9_21 1_555 1_555
Zr5_6 O15_23 1_555 1_555
C19_30 C20_30 1_555 1_555
C39_30 C40_30 1_555 1_555
C40_30 C41_30 1_555 1_555
C43_21 C44_21 1_555 1_555
O14_23 C49_23 1_555 1_555
C54_23 C55_23 1_555 1_555
C56_23 C57_23 1_555 1_555
C66_23 C69_23 1_555 1_555
C67_23 C68_23 1_555 1_555
C69_23 C70_23 1_555 1_555
C15_31 C14_31 1_555 1_555
C19_31 H14_31 1_555 1_555
C20_31 C18_31 1_555 1_555
C21_31 C20_31 1_555 1_555
H15_31 C21_31 1_555 1_555
C22_31 C21_31 1_555 1_555
H16_31 C22_31 1_555 1_555
O27 C35_31 1_555 1_555
C35_31 C36_31 1_555 1_555
C36_31 C37_22 1_555 1_555
C37_22 H29_22 1_555 1_555
C38_22 C37_22 1_555 1_555
C39_31 C38_22 1_555 1_555
C40_31 C19_31 1_555 1_555
C41_31 C22_31 1_555 1_555
H30_31 C41_31 1_555 1_555
C42_22 C38_22 1_555 1_555
H31_22 C42_22 1_555 1_555
H32_22 C42_22 1_555 1_555
H33_22 C42_22 1_555 1_555
O9_22 C14_31 1_555 1_555
C43_22 C15_31 1_555 1_555
H34_22 C43_22 1_555 1_555
C44_22 C18_31 1_555 1_555
C45_22 C44_22 1_555 1_555
H35_22 C45_22 1_555 1_555
H36_22 C45_22 1_555 1_555
H37_22 C45_22 1_555 1_555
Zr6_2 O9_22 1_555 1_555
C19_31 C20_31 1_555 1_555
C39_31 C40_31 1_555 1_555
C40_31 C41_31 1_555 1_555
C43_22 C44_22 1_555 1_555
C14_32 O26_2 1_555 1_555
C15_32 C14_32 1_555 1_555
C16_22 C15_32 1_555 1_555
H13_22 C16_22 1_555 1_555
C17_22 C16_22 1_555 1_555
C18_32 C17_22 1_555 1_555
C19_32 H14_32 1_555 1_555
C20_32 C18_32 1_555 1_555
C21_32 C20_32 1_555 1_555
H15_32 C21_32 1_555 1_555
C22_32 C21_32 1_555 1_555
H16_32 C22_32 1_555 1_555
C23_22 C17_22 1_555 1_555
H17_22 C23_22 1_555 1_555
H18_22 C23_22 1_555 1_555
H19_22 C23_22 1_555 1_555
C35_32 C36_32 1_555 1_555
C40_32 C19_32 1_555 1_555
C41_32 C22_32 1_555 1_555
H30_32 C41_32 1_555 1_555
O10_22 C35_32 1_555 1_555
C46_22 C36_32 1_555 1_555
H38_22 C46_22 1_555 1_555
C47_22 C39_32 1_555 1_555
C48_22 C47_22 1_555 1_555
H39_22 C48_22 1_555 1_555
H40_22 C48_22 1_555 1_555
H41_22 C48_22 1_555 1_555
C19_32 C20_32 1_555 1_555
C39_32 C40_32 1_555 1_555
C40_32 C41_32 1_555 1_555
O10_22 Zr5 1_555 1_555
C46_22 C47_22 1_555 1_555
C14_33 O27_4 1_555 1_555
C15_33 C14_33 1_555 1_555
C16_23 C15_33 1_555 1_555
H13_23 C16_23 1_555 1_555
C17_23 C16_23 1_555 1_555
C18_33 C17_23 1_555 1_555
C19_33 H14_33 1_555 1_555
C20_33 C18_33 1_555 1_555
C21_33 C20_33 1_555 1_555
H15_33 C21_33 1_555 1_555
C22_33 C21_33 1_555 1_555
H16_33 C22_33 1_555 1_555
C23_23 C17_23 1_555 1_555
H17_23 C23_23 1_555 1_555
H18_23 C23_23 1_555 1_555
H19_23 C23_23 1_555 1_555
C35_33 C36_33 1_555 1_555
C40_33 C19_33 1_555 1_555
C41_33 C22_33 1_555 1_555
H30_33 C41_33 1_555 1_555
O10_23 C35_33 1_555 1_555
C46_23 C36_33 1_555 1_555
H38_23 C46_23 1_555 1_555
C47_23 C39_33 1_555 1_555
C48_23 C47_23 1_555 1_555
H39_23 C48_23 1_555 1_555
H40_23 C48_23 1_555 1_555
H41_23 C48_23 1_555 1_555
C19_33 C20_33 1_555 1_555
C39_33 C40_33 1_555 1_555
C40_33 C41_33 1_555 1_555
O10_23 Zr6 1_555 1_555
C46_23 C47_23 1_555 1_555
C15_34 C14_34 1_555 1_555
C19_34 H14_34 1_555 1_555
C20_34 C18_34 1_555 1_555
C21_34 C20_34 1_555 1_555
H15_34 C21_34 1_555 1_555
C22_34 C21_34 1_555 1_555
H16_34 C22_34 1_555 1_555
O26 C35_34 1_555 1_555
C35_34 C36_34 1_555 1_555
C36_34 C37_23 1_555 1_555
C37_23 H29_23 1_555 1_555
C38_23 C37_23 1_555 1_555
C39_34 C38_23 1_555 1_555
C40_34 C19_34 1_555 1_555
C41_34 C22_34 1_555 1_555
H30_34 C41_34 1_555 1_555
C42_23 C38_23 1_555 1_555
H31_23 C42_23 1_555 1_555
H32_23 C42_23 1_555 1_555
H33_23 C42_23 1_555 1_555
O9_23 C14_34 1_555 1_555
C43_23 C15_34 1_555 1_555
H34_23 C43_23 1_555 1_555
C44_23 C18_34 1_555 1_555
C45_23 C44_23 1_555 1_555
H35_23 C45_23 1_555 1_555
H36_23 C45_23 1_555 1_555
H37_23 C45_23 1_555 1_555
Zr5_4 O9_23 1_555 1_555
C19_34 C20_34 1_555 1_555
C39_34 C40_34 1_555 1_555
C40_34 C41_34 1_555 1_555
C43_23 C44_23 1_555 1_555
C15_35 C14_35 1_555 1_555
C19_35 H14_35 1_555 1_555
C20_35 C18_35 1_555 1_555
C21_35 C20_35 1_555 1_555
H15_35 C21_35 1_555 1_555
C22_35 C21_35 1_555 1_555
H16_35 C22_35 1_555 1_555
O27_8 C35_35 1_555 1_555
C35_35 C36_35 1_555 1_555
C36_35 C37_24 1_555 1_555
C37_24 H29_24 1_555 1_555
C38_24 C37_24 1_555 1_555
C39_35 C38_24 1_555 1_555
C40_35 C19_35 1_555 1_555
C41_35 C22_35 1_555 1_555
H30_35 C41_35 1_555 1_555
C42_24 C38_24 1_555 1_555
H31_24 C42_24 1_555 1_555
H32_24 C42_24 1_555 1_555
H33_24 C42_24 1_555 1_555
O9_24 C14_35 1_555 1_555
C43_24 C15_35 1_555 1_555
H34_24 C43_24 1_555 1_555
C44_24 C18_35 1_555 1_555
C45_24 C44_24 1_555 1_555
H35_24 C45_24 1_555 1_555
H36_24 C45_24 1_555 1_555
H37_24 C45_24 1_555 1_555
Zr8 O9_24 1_555 1_555
C19_35 C20_35 1_555 1_555
C39_35 C40_35 1_555 1_555
C40_35 C41_35 1_555 1_555
C43_24 C44_24 1_555 1_555
C14_36 O27_7 1_555 1_555
C15_36 C14_36 1_555 1_555
C16_24 C15_36 1_555 1_555
H13_24 C16_24 1_555 1_555
C17_24 C16_24 1_555 1_555
C18_36 C17_24 1_555 1_555
C19_36 H14_36 1_555 1_555
C20_36 C18_36 1_555 1_555
C21_36 C20_36 1_555 1_555
H15_36 C21_36 1_555 1_555
C22_36 C21_36 1_555 1_555
H16_36 C22_36 1_555 1_555
C23_24 C17_24 1_555 1_555
H17_24 C23_24 1_555 1_555
H18_24 C23_24 1_555 1_555
H19_24 C23_24 1_555 1_555
C35_36 C36_36 1_555 1_555
C40_36 C19_36 1_555 1_555
C41_36 C22_36 1_555 1_555
H30_36 C41_36 1_555 1_555
O10_24 C35_36 1_555 1_555
C46_24 C36_36 1_555 1_555
H38_24 C46_24 1_555 1_555
C47_24 C39_36 1_555 1_555
C48_24 C47_24 1_555 1_555
H39_24 C48_24 1_555 1_555
H40_24 C48_24 1_555 1_555
H41_24 C48_24 1_555 1_555
C19_36 C20_36 1_555 1_555
C39_36 C40_36 1_555 1_555
C40_36 C41_36 1_555 1_555
O10_24 Zr5_6 1_555 1_555
C46_24 C47_24 1_555 1_555
Zr9_15 O17 1_555 1_555
O18 Zr9_15 1_555 1_555
O20 Zr9_15 1_555 1_555
H42_36 O20 1_555 1_555
O14_24 Zr9_15 1_555 1_555
C49_24 O22 1_555 1_555
C50_24 C49_24 1_555 1_555
C51_24 C50_24 1_555 1_555
H43_24 C51_24 1_555 1_555
C52_24 C51_24 1_555 1_555
C53_24 C52_24 1_555 1_555
C54_24 C53_24 1_555 1_555
C55_24 C50_24 1_555 1_555
H44_24 C55_24 1_555 1_555
C56_24 H45_24 1_555 1_555
C57_24 C53_24 1_555 1_555
C58_24 C57_24 1_555 1_555
H46_24 C58_24 1_555 1_555
C59_24 C58_24 1_555 1_555
H47_24 C59_24 1_555 1_555
C60_24 C52_24 1_555 1_555
H48_24 C60_24 1_555 1_555
H49_24 C60_24 1_555 1_555
H50_24 C60_24 1_555 1_555
C61_24 C54_24 1_555 1_555
H51_24 C61_24 1_555 1_555
H52_24 C61_24 1_555 1_555
H53_24 C61_24 1_555 1_555
O15_24 C62_24 1_555 1_555
O23_14 C62_24 1_555 1_555
C62_24 C63_24 1_555 1_555
C63_24 C64_24 1_555 1_555
C64_24 H54_24 1_555 1_555
C65_24 C64_24 1_555 1_555
C66_24 C65_24 1_555 1_555
C67_24 C66_24 1_555 1_555
C68_24 C63_24 1_555 1_555
H55_24 C68_24 1_555 1_555
C69_24 C56_24 1_555 1_555
C70_24 C59_24 1_555 1_555
H56_24 C70_24 1_555 1_555
C71_24 C65_24 1_555 1_555
H57_24 C71_24 1_555 1_555
H58_24 C71_24 1_555 1_555
H59_24 C71_24 1_555 1_555
C72_24 C67_24 1_555 1_555
H60_24 C72_24 1_555 1_555
H61_24 C72_24 1_555 1_555
H62_24 C72_24 1_555 1_555
Zr6_2 O15_24 1_555 1_555
O14_24 C49_24 1_555 1_555
C54_24 C55_24 1_555 1_555
C56_24 C57_24 1_555 1_555
C66_24 C69_24 1_555 1_555
C67_24 C68_24 1_555 1_555
C69_24 C70_24 1_555 1_555
Zr9_16 O17_2 1_555 1_555
H1_36 O19 1_555 1_555
O4_24 Zr9_16 1_555 1_555
C1_24 O21 1_555 1_555
C2_24 C1_24 1_555 1_555
C3_24 C2_24 1_555 1_555
H2_24 C3_24 1_555 1_555
C4_24 C3_24 1_555 1_555
C5_24 C4_24 1_555 1_555
C6_24 C5_24 1_555 1_555
C7_24 C2_24 1_555 1_555
H3_24 C7_24 1_555 1_555
C8_24 H4_24 1_555 1_555
C9_24 C5_24 1_555 1_555
C10_24 C9_24 1_555 1_555
H5_24 C10_24 1_555 1_555
C11_24 C10_24 1_555 1_555
H6_24 C11_24 1_555 1_555
C12_24 C4_24 1_555 1_555
H7_24 C12_24 1_555 1_555
H8_24 C12_24 1_555 1_555
H9_24 C12_24 1_555 1_555
C13_24 C6_24 1_555 1_555
H10_24 C13_24 1_555 1_555
H11_24 C13_24 1_555 1_555
H12_24 C13_24 1_555 1_555
O6_24 C24_24 1_555 1_555
O23_13 C24_24 1_555 1_555
C24_24 C25_24 1_555 1_555
C25_24 C26_24 1_555 1_555
C26_24 H20_24 1_555 1_555
C27_24 C26_24 1_555 1_555
C28_24 C27_24 1_555 1_555
C29_24 C28_24 1_555 1_555
C30_24 C25_24 1_555 1_555
H21_24 C30_24 1_555 1_555
C31_24 C8_24 1_555 1_555
C32_24 C11_24 1_555 1_555
H22_24 C32_24 1_555 1_555
C33_24 C27_24 1_555 1_555
H23_24 C33_24 1_555 1_555
H24_24 C33_24 1_555 1_555
H25_24 C33_24 1_555 1_555
C34_24 C29_24 1_555 1_555
H26_24 C34_24 1_555 1_555
H27_24 C34_24 1_555 1_555
H28_24 C34_24 1_555 1_555
O18_2 Zr9_16 1_555 1_555
Zr5_4 O6_24 1_555 1_555
Zr9_16 O19 1_555 1_555
O4_24 C1_24 1_555 1_555
C6_24 C7_24 1_555 1_555
C8_24 C9_24 1_555 1_555
C28_24 C31_24 1_555 1_555
C29_24 C30_24 1_555 1_555
C31_24 C32_24 1_555 1_555

#END
