
###############################################################################
#
# This file contains modified crystal structure data generated from the
# MOF subset of the Cambridge Structural Database (CSD) v543 
# hosted by the Cambridge Crystallographic Data Centre (CCDC).
#
# This work is licensed under the Creative Commons
# Attribution-NonCommercial-ShareAlike 4.0 International License.
# To view a copy of this license, visit
# http://creativecommons.org/licenses/by-nc-sa/4.0/
# or send a letter to
# Creative Commons, PO Box 1866, Mountain View, CA 94042, USA.
#
# CIF created using the CSD Python API on 29 September 2022
# The structure has been converted into the P1 space group
# The structure has a 3D framework
# The original CSD entry WAGYUA is in the rhombohedral crystal system
# The framework has been calculated to contain at least 10.0% void space
# The void calculation uses a probe of radius 1.32A, grid spacing 0.4
#
###############################################################################

data_WAGYUA
_chemical_formula_moiety         '(C598 H432 O230 Zn54)n'
_symmetry_cell_setting           triclinic
_symmetry_space_group_name_H-M   'P 1'
_symmetry_Int_Tables_number      1
_space_group_name_Hall           'P 1'
loop_
_symmetry_equiv_pos_site_id
_symmetry_equiv_pos_as_xyz
1 x,y,z
_cell_length_a                   26.918(4)
_cell_length_b                   26.918(4)
_cell_length_c                   86.67(2)
_cell_angle_alpha                90
_cell_angle_beta                 90
_cell_angle_gamma                120
_cell_volume                     54385.7
loop_
_atom_site_label
_atom_site_type_symbol
_atom_site_fract_x
_atom_site_fract_y
_atom_site_fract_z
Zn1 Zn 0.0000 -0.0000 0.137282(7)
C3 C 0.15397(19) 0.0019(2) 0.11083(5)
H1 H 0.1300 0.0144 0.1063
O4 O 0.43068(11) 0.06626(12) 0.06470(3)
C4 C 0.19702(18) 0.0011(2) 0.10206(5)
H2 H 0.2020 0.0125 0.0915
O5 O 0.55197(12) 0.25585(13) 0.01310(3)
O6 O 0.61331(14) 0.22186(17) 0.01439(5)
O7 O 0.0000 0.0000 0.15975(4)
C8 C 0.29692(14) 0.01583(14) 0.08739(4)
H5 H 0.3009 0.0542 0.0887
C9 C 0.35540(15) 0.02206(15) 0.0833
C10 C 0.37884(15) 0.06352(15) 0.06961(4)
H7 H 0.3506 0.0496 0.0611
H8 H 0.3864 0.1021 0.0727
C11 C 0.46036(17) 0.10422(19) 0.05313(5)
C12 C 0.44540(19) 0.1399(2) 0.04620(6)
H9 H 0.4112 0.1394 0.0492
C13 C 0.47982(19) 0.1775(2) 0.03461(6)
H10 H 0.4679 0.2013 0.0296
C14 C 0.53047(18) 0.1808(2) 0.03032(6)
C15 C 0.5467(2) 0.1443(2) 0.03754(6)
H11 H 0.5815 0.1458 0.0347
C16 C 0.5116(2) 0.1061(2) 0.04880(6)
H12 H 0.5223 0.0811 0.0536
C17 C 0.56761(19) 0.2223(2) 0.01848(5)
Zn4 Zn 0.3333 0.6667 0.029385(7)
O9 O 0.00152(14) 0.06767(19) 0.12870(4)
O10 O 0.26718(13) 0.59900(19) 0.03797(4)
C19 C 0.0134(2) 0.1139(3) 0.13553(6)
C20 C 0.2328(2) 0.5528(3) 0.03114(6)
Zn7 Zn 0.007970(17) 0.072220(23) 0.167140(4)
Zn11 Zn 0.594447(23) 0.325363(17) 0.000473(4)
Zn12 Zn 0.674637(17) 0.269083(16) 0.000473(4)
Zn13 Zn 0.658697(17) 0.261113(23) 0.166193(4)
Zn14 Zn 0.602417(16) 0.341303(17) 0.166193(4)
O16 O 0.01898(17) 0.12356(24) 0.15042(4)
O17 O 0.22875(17) 0.54311(24) 0.01625(4)
C24 C 0.01526(19) 0.16129(26) 0.12605(5)
C25 C 0.18730(18) 0.50538(26) 0.04062(5)
O21 O 0.01606(11) 0.29317(16) 0.10124(3)
O22 O 0.05622(11) 0.37350(16) 0.06543(3)
C30 C 0.17936(19) 0.51460(28) 0.05584(5)
H15 H 0.2033 0.5511 0.0604
O25 O 0.39959(12) 0.09735(11) 0.10197(3)
C35 C 0.13631(18) 0.47075(27) 0.06461(5)
H20 H 0.1313 0.4772 0.0752
O30 O 0.58918(13) 0.21864(12) 0.15357(3)
O37 O 0.07748(13) 0.11470(12) 0.17977(3)
C39 C 0.01598(17) 0.24782(24) 0.10862(4)
C40 C 0.10149(17) 0.41885(24) 0.05805(4)
O41 O 0.55519(17) 0.27998(14) 0.15228(5)
O46 O 0.11147(17) 0.05336(14) 0.18106(5)
C44 C 0.0345(2) 0.2580(3) 0.12345(6)
C45 C 0.1098(2) 0.4087(3) 0.04322(6)
H24 H 0.0481 0.2950 0.1277
H25 H 0.0864 0.3717 0.0390
O53 O 0.3333 0.6667 0.00692(4)
C49 C 0.0339(2) 0.2148(3) 0.13249(5)
C50 C 0.1524(2) 0.4519(3) 0.03418(5)
H29 H 0.0460 0.2219 0.1429
H30 H 0.1574 0.4448 0.0238
C55 C 0.03641(14) 0.38558(20) 0.07928(4)
H35 H 0.0324 0.4200 0.0780
H39 H 0.0042 0.2734 0.0790
H40 H 0.0641 0.3933 0.0877
C60 C 0.39685(15) 0.04551(15) 0.09706(4)
H43 H 0.3829 0.0173 0.1056
H48 H 0.4354 0.0531 0.0940
C65 C 0.43755(19) 0.12703(17) 0.11354(5)
C70 C 0.4732(2) 0.11207(19) 0.12047(6)
H53 H 0.4727 0.0779 0.1175
C75 C 0.5108(2) 0.14649(19) 0.13206(6)
H58 H 0.5346 0.1346 0.1371
C80 C 0.5141(2) 0.19714(18) 0.13635(6)
C85 C 0.4776(2) 0.2134(2) 0.12913(6)
H63 H 0.4791 0.2482 0.1320
C90 C 0.4394(2) 0.1783(2) 0.11787(6)
H68 H 0.4144 0.1890 0.1131
C95 C 0.5556(2) 0.23428(19) 0.14819(5)
Zn8 Zn 0.269083(16) 0.594447(23) 0.999527(4)
O38 O 0.29612(18) 0.55197(12) 0.98690(3)
O49 O 0.22186(17) 0.60855(22) 0.98561(5)
Zn1_2 Zn 0.0000 1.0000 0.137282(7)
O1 O 0.06615(13) 0.99848(14) 0.12870(4)
C1 C 0.1005(2) 0.9866(2) 0.13553(6)
Zn2 Zn 0.064250(16) 0.992030(17) 0.167140(4)
O2 O 0.10458(17) 0.98102(17) 0.15042(4)
C2 C 0.14603(18) 0.98474(19) 0.12605(5)
O3 O 0.27711(11) 0.98394(11) 0.10124(3)
C5 C 0.23184(17) 0.98402(17) 0.10862(4)
C6 C 0.2235(2) 0.9655(2) 0.12345(6)
H3 H 0.2469 0.9519 0.1277
O7_2 O -0.0000 1.0000 0.15975(4)
C7 C 0.1809(2) 0.9661(2) 0.13249(5)
H4 H 0.1759 0.9540 0.1429
H6 H 0.2692 0.9958 0.0790
O8 O 0.33181(14) 0.73282(13) 0.03797(4)
O13 O 0.40100(19) 0.66819(14) 0.03797(4)
C18 C 0.3199(2) 0.7672(2) 0.03114(6)
O15 O 0.31435(17) 0.77125(17) 0.01625(4)
C23 C 0.31807(19) 0.81270(18) 0.04062(5)
O20 O 0.31727(11) 0.94378(11) 0.06543(3)
C28 C 0.3352(2) 0.82064(19) 0.05584(5)
H13 H 0.3477 0.7967 0.0604
C33 C 0.3344(2) 0.86369(18) 0.06461(5)
H18 H 0.3458 0.8687 0.0752
O35 O 0.03721(18) 0.92252(13) 0.17977(3)
C38 C 0.31735(17) 0.89851(17) 0.05805(4)
C43 C 0.2988(2) 0.8902(2) 0.04322(6)
H23 H 0.2852 0.9136 0.0390
C48 C 0.2994(2) 0.8476(2) 0.03418(5)
H28 H 0.2873 0.8426 0.0238
C53 C 0.34916(14) 0.96359(14) 0.07928(4)
H33 H 0.3875 0.9676 0.0780
H38 H 0.3291 0.9359 0.0877
Zn6 Zn 0.325363(17) 0.730917(16) 0.999527(4)
Zn24 Zn 0.405553(23) 0.674637(17) 0.999527(4)
O36 O 0.25585(13) 0.70388(18) 0.98690(3)
O47 O 0.38669(14) 0.77814(17) 0.98561(5)
Zn1_3 Zn 1.0000 -0.0000 0.137282(7)
O7_3 O 1.0000 0.0000 0.15975(4)
Zn16 Zn 0.730917(16) 0.405553(23) 0.000473(4)
Zn17 Zn 0.738887(23) 0.397583(16) 0.166193(4)
C29 C 0.9981(2) 0.15207(28) 0.11083(5)
H14 H 0.9856 0.1156 0.1063
O26 O 0.93374(12) 0.36442(16) 0.06470(3)
O27 O 0.90265(11) 0.30225(16) 0.10197(3)
C34 C 0.9989(2) 0.19592(27) 0.10206(5)
H19 H 0.9875 0.1895 0.0915
O31 O 0.74415(13) 0.29612(18) 0.01310(3)
O32 O 0.78136(12) 0.37055(18) 0.15357(3)
O42 O 0.77814(17) 0.39145(22) 0.01439(5)
O43 O 0.72002(14) 0.27522(22) 0.15228(5)
O48 O 0.94664(14) 0.05812(22) 0.18106(5)
C54 C 0.98417(14) 0.28109(20) 0.08739(4)
H34 H 0.9458 0.2467 0.0887
C58 C 0.97794(15) 0.33334(21) 0.0833
C61 C 0.93648(15) 0.31532(21) 0.06961(4)
C62 C 0.95449(15) 0.35135(21) 0.09706(4)
H44 H 0.9504 0.3010 0.0611
H45 H 0.9827 0.3657 0.1056
H49 H 0.8979 0.2843 0.0727
H50 H 0.9469 0.3824 0.0940
C66 C 0.89578(19) 0.35614(25) 0.05313(5)
C67 C 0.87297(17) 0.31053(25) 0.11354(5)
C71 C 0.8601(2) 0.30550(28) 0.04620(6)
C72 C 0.88793(19) 0.36117(28) 0.12047(6)
H54 H 0.8606 0.2718 0.0492
H55 H 0.9221 0.3949 0.1175
C76 C 0.8225(2) 0.30232(28) 0.03461(6)
C77 C 0.85351(19) 0.36435(28) 0.13206(6)
H59 H 0.7987 0.2666 0.0296
H60 H 0.8654 0.4001 0.1371
C81 C 0.8192(2) 0.34967(27) 0.03032(6)
C82 C 0.80286(18) 0.31700(27) 0.13635(6)
C86 C 0.8557(2) 0.4024(3) 0.03754(6)
C87 C 0.7866(2) 0.2643(3) 0.12913(6)
H64 H 0.8542 0.4357 0.0347
H65 H 0.7518 0.2310 0.1320
C91 C 0.8939(2) 0.4055(3) 0.04880(6)
C92 C 0.8217(2) 0.2612(3) 0.11787(6)
H69 H 0.9189 0.4412 0.0536
H70 H 0.8110 0.2255 0.1131
C96 C 0.7777(2) 0.34531(28) 0.01848(5)
C97 C 0.76572(19) 0.32136(28) 0.14819(5)
Zn1_4 Zn 1.0000 1.0000 0.137282(7)
O7_4 O 1.0000 1.0000 0.15975(4)
O11 O 0.93233(19) 0.93385(13) 0.12870(4)
C21 C 0.8861(3) 0.8995(2) 0.13553(6)
C22 C 0.4472(3) 0.6801(2) 0.03114(6)
Zn9 Zn 0.927780(23) 0.935750(16) 0.167140(4)
O18 O 0.87644(24) 0.89542(17) 0.15042(4)
O19 O 0.45689(24) 0.68565(17) 0.01625(4)
C26 C 0.83871(26) 0.85397(18) 0.12605(5)
C27 C 0.49462(26) 0.68193(19) 0.04062(5)
O23 O 0.70683(16) 0.72289(11) 0.10124(3)
O24 O 0.62650(16) 0.68273(11) 0.06543(3)
C31 C 0.84793(28) 0.84603(19) 0.11083(5)
C32 C 0.48540(28) 0.6648(2) 0.05584(5)
H16 H 0.8844 0.8700 0.1063
H17 H 0.4489 0.6523 0.0604
O28 O 0.63558(16) 0.56932(11) 0.06470(3)
O29 O 0.69775(16) 0.60041(12) 0.10197(3)
C36 C 0.80408(27) 0.80298(18) 0.10206(5)
C37 C 0.52925(27) 0.6656(2) 0.06461(5)
H21 H 0.8105 0.7980 0.0915
H22 H 0.5228 0.6542 0.0752
O33 O 0.70388(18) 0.44803(12) 0.01310(3)
O34 O 0.62945(18) 0.41082(13) 0.15357(3)
O39 O 0.88530(12) 0.96279(18) 0.17977(3)
C41 C 0.75218(24) 0.76816(17) 0.10862(4)
C42 C 0.58115(24) 0.68265(17) 0.05805(4)
O44 O 0.60855(22) 0.38669(14) 0.01439(5)
O45 O 0.72478(22) 0.44481(17) 0.15228(5)
O50 O 0.94188(22) 0.88853(17) 0.18106(5)
C46 C 0.7420(3) 0.7765(2) 0.12345(6)
C47 C 0.5913(3) 0.7012(2) 0.04322(6)
H26 H 0.7050 0.7531 0.1277
H27 H 0.6283 0.7148 0.0390
C51 C 0.7852(3) 0.8191(2) 0.13249(5)
C52 C 0.5481(3) 0.7006(2) 0.03418(5)
H31 H 0.7781 0.8241 0.1429
H32 H 0.5552 0.7127 0.0238
C56 C 0.71891(20) 0.70308(14) 0.08739(4)
C57 C 0.61442(20) 0.65084(14) 0.07928(4)
H36 H 0.7533 0.6991 0.0887
H37 H 0.5800 0.6125 0.0780
H41 H 0.7266 0.7308 0.0790
H42 H 0.6067 0.6709 0.0877
C59 C 0.66666(21) 0.64460(15) 0.0833
C63 C 0.68468(21) 0.62116(15) 0.06961(4)
C64 C 0.64865(21) 0.60315(15) 0.09706(4)
H46 H 0.6990 0.6494 0.0611
H47 H 0.6343 0.6171 0.1056
H51 H 0.7157 0.6136 0.0727
H52 H 0.6176 0.5646 0.0940
C68 C 0.64386(25) 0.53964(17) 0.05313(5)
C69 C 0.68947(25) 0.56245(19) 0.11354(5)
C73 C 0.69450(28) 0.55460(19) 0.04620(6)
C74 C 0.63883(28) 0.5268(2) 0.12047(6)
H56 H 0.7282 0.5888 0.0492
H57 H 0.6051 0.5273 0.1175
C78 C 0.69768(28) 0.52018(19) 0.03461(6)
C79 C 0.63565(28) 0.4892(2) 0.13206(6)
H61 H 0.7334 0.5321 0.0296
H62 H 0.5999 0.4654 0.1371
C83 C 0.65033(27) 0.46953(18) 0.03032(6)
C84 C 0.68300(27) 0.4859(2) 0.13635(6)
C88 C 0.5976(3) 0.4533(2) 0.03754(6)
C89 C 0.7357(3) 0.5224(2) 0.12913(6)
H66 H 0.5643 0.4185 0.0347
H67 H 0.7690 0.5209 0.1320
C93 C 0.5945(3) 0.4884(2) 0.04880(6)
C94 C 0.7388(3) 0.5606(2) 0.11787(6)
H71 H 0.5588 0.4777 0.0536
H72 H 0.7745 0.5856 0.1131
C98 C 0.65469(28) 0.43239(19) 0.01848(5)
C99 C 0.67864(28) 0.4444(2) 0.14819(5)
O40 O 0.44803(12) 0.74415(13) 0.98690(3)
O51 O 0.39145(22) 0.61331(14) 0.98561(5)
Zn1_5 Zn 0.0000 0.0000 0.362718(7)
O1_2 O 0.06767(19) 0.00152(14) 0.37130(4)
C1_2 C 0.1139(3) 0.0134(2) 0.36447(6)
Zn2_2 Zn 0.072220(23) 0.007970(17) 0.332860(4)
O2_2 O 0.12356(24) 0.01898(17) 0.34958(4)
C2_2 C 0.16129(26) 0.01526(19) 0.37395(5)
O3_2 O 0.29317(16) 0.01606(11) 0.39876(3)
C5_2 C 0.24782(24) 0.01598(17) 0.39138(4)
C6_2 C 0.2580(3) 0.0345(2) 0.37655(6)
H3_2 H 0.2950 0.0481 0.3723
O7_5 O 0.0000 0.0000 0.34025(4)
C7_2 C 0.2148(3) 0.0339(2) 0.36751(5)
H4_2 H 0.2219 0.0460 0.3571
H6_2 H 0.2734 0.0042 0.4210
Zn3 Zn 0.6667 0.3333 0.470615(7)
O8_2 O 0.59900(19) 0.26718(13) 0.46203(4)
O13_2 O 0.73282(24) 0.33181(14) 0.46203(4)
O14 O 0.66819(23) 0.40100(19) 0.46203(4)
C18_2 C 0.5528(3) 0.2328(2) 0.46886(6)
Zn6_2 Zn 0.594447(23) 0.269083(16) 0.500473(4)
Zn19 Zn 0.325363(28) 0.594447(23) 0.499527(4)
Zn20 Zn 0.269083(29) 0.674637(17) 0.499527(4)
Zn21 Zn 0.261113(23) 0.658697(17) 0.333807(4)
Zn22 Zn 0.341303(28) 0.602417(16) 0.333807(4)
Zn23 Zn 0.674637(28) 0.405553(23) 0.500473(4)
Zn24_2 Zn 0.730917(29) 0.325363(17) 0.500473(4)
O15_2 O 0.54311(24) 0.22875(17) 0.48375(4)
C23_2 C 0.50538(26) 0.18730(18) 0.45938(5)
O20_2 O 0.37350(16) 0.05622(11) 0.43457(3)
C28_2 C 0.51460(28) 0.17936(19) 0.44416(5)
C31_2 C 0.00190(34) 0.15397(19) 0.38917(5)
H13_2 H 0.5511 0.2033 0.4396
H16_2 H 0.0144 0.1300 0.3937
O28_2 O 0.06626(19) 0.43068(11) 0.43530(3)
O29_2 O 0.09735(20) 0.39959(12) 0.39803(3)
C33_2 C 0.47075(27) 0.13631(18) 0.43539(5)
C36_2 C 0.00110(32) 0.19702(18) 0.39794(5)
H18_2 H 0.4772 0.1313 0.4248
H21_2 H 0.0125 0.2020 0.4085
O33_2 O 0.25585(22) 0.55197(12) 0.48690(3)
O34_2 O 0.21864(22) 0.58918(13) 0.34643(3)
O35_2 O 0.11470(22) 0.07748(13) 0.32023(3)
O36_2 O 0.55197(22) 0.29612(18) 0.51310(3)
C38_2 C 0.41885(24) 0.10149(17) 0.44195(4)
O44_2 O 0.22186(26) 0.61331(14) 0.48561(5)
O45_2 O 0.27998(28) 0.55519(17) 0.34772(5)
O47_2 O 0.60855(22) 0.22186(17) 0.51439(5)
O50_2 O 0.05336(28) 0.11147(17) 0.31894(5)
C43_2 C 0.4087(3) 0.1098(2) 0.45678(6)
H23_2 H 0.3717 0.0864 0.4610
O52 O 0.6667 0.3333 0.49308(4)
C48_2 C 0.4519(3) 0.1524(2) 0.46582(5)
H28_2 H 0.4448 0.1574 0.4762
C53_2 C 0.38558(20) 0.03641(14) 0.42072(4)
C56_2 C 0.01583(24) 0.29692(14) 0.41261(4)
H33_2 H 0.4200 0.0324 0.4220
H36_2 H 0.0542 0.3009 0.4113
H38_2 H 0.3933 0.0641 0.4123
C59_2 C 0.02206(26) 0.35540(15) 0.4167
C63_2 C 0.06352(26) 0.37884(15) 0.43039(4)
C64_2 C 0.04551(26) 0.39685(15) 0.40294(4)
H46_2 H 0.0496 0.3506 0.4389
H47_2 H 0.0173 0.3829 0.3944
H51_2 H 0.1021 0.3864 0.4273
H52_2 H 0.0531 0.4354 0.4060
C68_2 C 0.10422(30) 0.46036(17) 0.44687(5)
C69_2 C 0.12703(31) 0.43755(19) 0.38646(5)
C73_2 C 0.13990(34) 0.44540(19) 0.45380(6)
C74_2 C 0.11207(34) 0.4732(2) 0.37953(6)
H56_2 H 0.1394 0.4112 0.4508
H57_2 H 0.0779 0.4727 0.3825
C78_2 C 0.17750(34) 0.47982(19) 0.46539(6)
C79_2 C 0.14649(34) 0.5108(2) 0.36794(6)
H61_2 H 0.2013 0.4679 0.4704
H62_2 H 0.1346 0.5346 0.3629
C83_2 C 0.18080(32) 0.53047(18) 0.46968(6)
C84_2 C 0.19714(34) 0.5141(2) 0.36365(6)
C88_2 C 0.1443(4) 0.5467(2) 0.46246(6)
C89_2 C 0.2134(4) 0.4776(2) 0.37087(6)
H66_2 H 0.1458 0.5815 0.4653
H67_2 H 0.2482 0.4791 0.3680
C93_2 C 0.1061(4) 0.5116(2) 0.45120(6)
C94_2 C 0.1783(4) 0.4394(2) 0.38213(6)
H71_2 H 0.0811 0.5223 0.4464
H72_2 H 0.1890 0.4144 0.3869
C98_2 C 0.22230(34) 0.56761(19) 0.48152(5)
C99_2 C 0.23428(34) 0.5556(2) 0.35181(5)
Zn1_6 Zn 0.0000 1.0000 0.362718(7)
C3_2 C 0.15207(28) 0.9981(2) 0.38917(5)
H1_2 H 0.1156 0.9856 0.3937
O4_2 O 0.36442(16) 0.93374(12) 0.43530(3)
C4_2 C 0.19592(27) 0.9989(2) 0.39794(5)
H2_2 H 0.1895 0.9875 0.4085
O5_2 O 0.29612(18) 0.74415(13) 0.48690(3)
O6_2 O 0.39145(22) 0.77814(17) 0.48561(5)
O7_6 O 0.0000 1.0000 0.34025(4)
C8_2 C 0.28109(20) 0.98417(14) 0.41261(4)
H5_2 H 0.2467 0.9458 0.4113
C9_2 C 0.33334(21) 0.97794(15) 0.4167
C10_2 C 0.31532(21) 0.93648(15) 0.43039(4)
H7_2 H 0.3010 0.9504 0.4389
H8_2 H 0.2843 0.8979 0.4273
C11_2 C 0.35614(25) 0.89578(19) 0.44687(5)
C12_2 C 0.30550(28) 0.8601(2) 0.45380(6)
H9_2 H 0.2718 0.8606 0.4508
C13_2 C 0.30232(28) 0.8225(2) 0.46539(6)
H10_2 H 0.2666 0.7987 0.4704
C14_2 C 0.34967(27) 0.8192(2) 0.46968(6)
C15_2 C 0.4024(3) 0.8557(2) 0.46246(6)
H11_2 H 0.4357 0.8542 0.4653
C16_2 C 0.4055(3) 0.8939(2) 0.45120(6)
H12_2 H 0.4412 0.9189 0.4464
C17_2 C 0.34531(28) 0.7777(2) 0.48152(5)
Zn12_2 Zn 0.405553(23) 0.730917(16) 0.499527(4)
Zn13_2 Zn 0.397583(29) 0.738887(23) 0.333807(4)
O25_2 O 0.30225(16) 0.90265(11) 0.39803(3)
O30_2 O 0.37055(18) 0.78136(12) 0.34643(3)
O41_2 O 0.27522(22) 0.72002(14) 0.34772(5)
O46_2 O 0.05812(22) 0.94664(14) 0.31894(5)
C60_2 C 0.35135(21) 0.95449(15) 0.40294(4)
H43_2 H 0.3657 0.9827 0.3944
H48_2 H 0.3824 0.9469 0.4060
C65_2 C 0.31053(25) 0.87297(17) 0.38646(5)
C70_2 C 0.36117(28) 0.88793(19) 0.37953(6)
H53_2 H 0.3949 0.9221 0.3825
C75_2 C 0.36435(28) 0.85351(19) 0.36794(6)
H58_2 H 0.4001 0.8654 0.3629
C80_2 C 0.31700(27) 0.80286(18) 0.36365(6)
C85_2 C 0.2643(3) 0.7866(2) 0.37087(6)
H63_2 H 0.2310 0.7518 0.3680
C90_2 C 0.2612(3) 0.8217(2) 0.38213(6)
H68_2 H 0.2255 0.8110 0.3869
C95_2 C 0.32136(28) 0.76572(19) 0.35181(5)
Zn1_7 Zn 1.0000 0.0000 0.362718(7)
O7_7 O 1.0000 0.0000 0.34025(4)
O11_2 O 0.99848(23) 0.06615(13) 0.37130(4)
C21_2 C 0.9866(4) 0.1005(2) 0.36447(6)
C22_2 C 0.7672(4) 0.3199(2) 0.46886(6)
Zn9_2 Zn 0.992030(28) 0.064250(16) 0.332860(4)
O18_2 O 0.98102(29) 0.10458(17) 0.34958(4)
O19_2 O 0.77125(29) 0.31435(17) 0.48375(4)
C26_2 C 0.98474(32) 0.14603(18) 0.37395(5)
C27_2 C 0.81270(32) 0.31807(19) 0.45938(5)
O23_2 O 0.98394(19) 0.27711(11) 0.39876(3)
O24_2 O 0.94378(19) 0.31727(11) 0.43457(3)
C32_2 C 0.82064(34) 0.3352(2) 0.44416(5)
H17_2 H 0.7967 0.3477 0.4396
C37_2 C 0.86369(34) 0.3344(2) 0.43539(5)
H22_2 H 0.8687 0.3458 0.4248
O39_2 O 0.92252(22) 0.03721(18) 0.32023(3)
O40_2 O 0.70388(18) 0.25585(13) 0.51310(3)
C41_2 C 0.98402(29) 0.23184(17) 0.39138(4)
C42_2 C 0.89851(29) 0.31735(17) 0.44195(4)
O51_2 O 0.77814(26) 0.38669(14) 0.51439(5)
C46_2 C 0.9655(4) 0.2235(2) 0.37655(6)
C47_2 C 0.8902(4) 0.2988(2) 0.45678(6)
H26_2 H 0.9519 0.2469 0.3723
H27_2 H 0.9136 0.2852 0.4610
C51_2 C 0.9661(4) 0.1809(2) 0.36751(5)
C52_2 C 0.8476(4) 0.2994(2) 0.46582(5)
H31_2 H 0.9540 0.1759 0.3571
H32_2 H 0.8426 0.2873 0.4762
C57_2 C 0.96359(24) 0.34916(14) 0.42072(4)
H37_2 H 0.9676 0.3875 0.4220
H41_2 H 0.9958 0.2692 0.4210
H42_2 H 0.9359 0.3291 0.4123
Zn1_8 Zn 1.0000 1.0000 0.362718(7)
O7_8 O 1.0000 1.0000 0.34025(4)
O9_2 O 0.93385(24) 0.93233(19) 0.37130(4)
C19_2 C 0.8995(4) 0.8861(3) 0.36447(6)
C20_2 C 0.6801(4) 0.4472(3) 0.46886(6)
Zn7_2 Zn 0.935750(29) 0.927780(23) 0.332860(4)
O16_2 O 0.89542(29) 0.87644(24) 0.34958(4)
O17_2 O 0.68565(29) 0.45689(24) 0.48375(4)
C24_2 C 0.85397(32) 0.83871(26) 0.37395(5)
C25_2 C 0.68193(32) 0.49462(26) 0.45938(5)
O21_2 O 0.72289(19) 0.70683(16) 0.39876(3)
O22_2 O 0.68273(19) 0.62650(16) 0.43457(3)
C29_2 C 0.84603(34) 0.84793(28) 0.38917(5)
C30_2 C 0.66477(34) 0.48540(28) 0.44416(5)
H14_2 H 0.8700 0.8844 0.3937
H15_2 H 0.6523 0.4489 0.4396
O26_2 O 0.56932(20) 0.63558(16) 0.43530(3)
O27_2 O 0.60041(19) 0.69775(16) 0.39803(3)
C34_2 C 0.80298(34) 0.80408(27) 0.39794(5)
C35_2 C 0.66557(32) 0.52925(27) 0.43539(5)
H19_2 H 0.7980 0.8105 0.4085
H20_2 H 0.6542 0.5228 0.4248
O31_2 O 0.44803(22) 0.70388(18) 0.48690(3)
O32_2 O 0.41082(22) 0.62945(18) 0.34643(3)
O37_2 O 0.96279(18) 0.88530(12) 0.32023(3)
O38_2 O 0.74415(22) 0.44803(12) 0.51310(3)
C39_2 C 0.76816(29) 0.75218(24) 0.39138(4)
C40_2 C 0.68265(29) 0.58115(24) 0.44195(4)
O42_2 O 0.38669(28) 0.60855(22) 0.48561(5)
O43_2 O 0.44481(26) 0.72478(22) 0.34772(5)
O48_2 O 0.88853(26) 0.94188(22) 0.31894(5)
O49_2 O 0.61331(28) 0.39145(22) 0.51439(5)
C44_2 C 0.7765(4) 0.7420(3) 0.37655(6)
C45_2 C 0.7012(4) 0.5913(3) 0.45678(6)
H24_2 H 0.7531 0.7050 0.3723
H25_2 H 0.7148 0.6283 0.4610
C49_2 C 0.8191(4) 0.7852(3) 0.36751(5)
C50_2 C 0.7006(4) 0.5481(3) 0.46582(5)
H29_2 H 0.8241 0.7781 0.3571
H30_2 H 0.7127 0.5552 0.4762
C54_2 C 0.70308(24) 0.71891(20) 0.41261(4)
C55_2 C 0.65084(24) 0.61442(20) 0.42072(4)
H34_2 H 0.6991 0.7533 0.4113
H35_2 H 0.6125 0.5800 0.4220
H39_2 H 0.7308 0.7266 0.4210
H40_2 H 0.6709 0.6067 0.4123
C58_2 C 0.64460(26) 0.66666(21) 0.4167
C61_2 C 0.62116(26) 0.68468(21) 0.43039(4)
C62_2 C 0.60315(26) 0.64865(21) 0.40294(4)
H44_2 H 0.6494 0.6990 0.4389
H45_2 H 0.6171 0.6343 0.3944
H49_2 H 0.6136 0.7157 0.4273
H50_2 H 0.5646 0.6176 0.4060
C66_2 C 0.53964(31) 0.64386(25) 0.44687(5)
C67_2 C 0.56245(30) 0.68947(25) 0.38646(5)
C71_2 C 0.55460(34) 0.69450(28) 0.45380(6)
C72_2 C 0.52677(34) 0.63883(28) 0.37953(6)
H54_2 H 0.5888 0.7282 0.4508
H55_2 H 0.5273 0.6051 0.3825
C76_2 C 0.52018(34) 0.69768(28) 0.46539(6)
C77_2 C 0.48917(34) 0.63565(28) 0.36794(6)
H59_2 H 0.5321 0.7334 0.4704
H60_2 H 0.4654 0.5999 0.3629
C81_2 C 0.46953(34) 0.65033(27) 0.46968(6)
C82_2 C 0.48587(32) 0.68300(27) 0.36365(6)
C86_2 C 0.4533(4) 0.5976(3) 0.46246(6)
C87_2 C 0.5224(4) 0.7357(3) 0.37087(6)
H64_2 H 0.4185 0.5643 0.4653
H65_2 H 0.5209 0.7690 0.3680
C91_2 C 0.4884(4) 0.5945(3) 0.45120(6)
C92_2 C 0.5606(4) 0.7388(3) 0.38213(6)
H69_2 H 0.4777 0.5588 0.4464
H70_2 H 0.5856 0.7745 0.3869
C96_2 C 0.43239(34) 0.65469(28) 0.48152(5)
C97_2 C 0.44437(34) 0.67864(28) 0.35181(5)
O4_3 O 0.03109(16) 0.26707(12) 0.76863(3)
O6_3 O 0.05812(22) 0.11147(17) 0.81894(5)
C9_3 C 0.00001(21) 0.31127(15) 0.7500
C11_3 C 0.02281(25) 0.22911(19) 0.78020(5)
C14_3 C 0.01634(27) 0.1525(2) 0.80301(6)
C15_3 C 0.0691(3) 0.1890(2) 0.79579(6)
H11_3 H 0.1024 0.1875 0.7986
C16_3 C 0.0722(3) 0.2272(2) 0.78453(6)
H12_3 H 0.1079 0.2522 0.7797
C17_3 C 0.01198(28) 0.1110(2) 0.81485(5)
Zn3_2 Zn 0.3333 0.6667 0.803949(7)
O8_3 O 0.26566(19) 0.60052(13) 0.79537(4)
O13_3 O 0.39948(24) 0.66515(14) 0.79537(4)
O14_2 O 0.33485(23) 0.73434(19) 0.79537(4)
C18_3 C 0.2194(3) 0.5662(2) 0.80220(6)
Zn6_3 Zn 0.261113(23) 0.602417(16) 0.833807(4)
Zn12_3 Zn 0.072220(23) 0.064250(16) 0.832860(4)
Zn13_3 Zn 0.064250(29) 0.072220(23) 0.667140(4)
Zn22_2 Zn 0.007970(28) 0.935750(16) 0.667140(4)
Zn23_2 Zn 0.341303(28) 0.738887(23) 0.833807(4)
Zn24_3 Zn 0.397583(29) 0.658697(17) 0.833807(4)
O15_3 O 0.20977(24) 0.56209(17) 0.81709(4)
C23_3 C 0.17204(26) 0.52064(18) 0.79272(5)
O20_3 O 0.04016(16) 0.38956(11) 0.76791(3)
C28_3 C 0.18126(28) 0.51270(19) 0.77750(5)
H13_3 H 0.2177 0.5367 0.7730
C33_3 C 0.13741(27) 0.46965(18) 0.76873(5)
H18_3 H 0.1438 0.4647 0.7582
O30_3 O 0.03721(18) 0.11470(12) 0.67977(3)
O36_3 O 0.21864(22) 0.62945(18) 0.84643(3)
C38_3 C 0.08551(24) 0.43483(17) 0.77529(4)
O47_3 O 0.27522(22) 0.55519(17) 0.84772(5)
C43_3 C 0.0753(3) 0.4432(2) 0.79012(6)
H23_3 H 0.0383 0.4198 0.7944
O52_2 O 0.3333 0.6667 0.82642(4)
C48_3 C 0.1185(3) 0.4858(2) 0.79916(5)
H28_3 H 0.1114 0.4908 0.8096
C53_3 C 0.05224(20) 0.36975(14) 0.75406(4)
H33_3 H 0.0866 0.3658 0.7554
H38_3 H 0.0599 0.3975 0.7457
C60_3 C 0.01801(21) 0.28783(15) 0.73628(4)
H43_3 H 0.0323 0.3161 0.7278
H48_3 H 0.0490 0.2803 0.7394
C70_3 C 0.02783(28) 0.22127(19) 0.71287(6)
H53_3 H 0.0615 0.2555 0.7159
C75_3 C 0.03101(28) 0.18685(19) 0.70128(6)
H58_3 H 0.0667 0.1988 0.6963
Zn20_2 Zn 0.935750(29) 0.007970(17) 0.832860(4)
Zn1_9 Zn 0.6667 0.3333 0.696051(7)
O1_3 O 0.73434(19) 0.33485(14) 0.70463(4)
C1_3 C 0.7806(3) 0.3467(2) 0.69780(6)
Zn2_3 Zn 0.738887(23) 0.341303(17) 0.666193(4)
O2_3 O 0.79023(24) 0.35231(17) 0.68291(4)
C2_3 C 0.82796(26) 0.34859(19) 0.70728(5)
O3_3 O 0.95984(16) 0.34939(11) 0.73209(3)
C3_3 C 0.81874(28) 0.3314(2) 0.72250(5)
H1_3 H 0.7823 0.3189 0.7270
C4_3 C 0.86259(27) 0.3322(2) 0.73127(5)
H2_3 H 0.8562 0.3208 0.7418
O5_3 O 0.96279(18) 0.07748(13) 0.82023(3)
C5_3 C 0.91449(24) 0.34931(17) 0.72471(4)
C6_3 C 0.9247(3) 0.3678(2) 0.70988(6)
H3_3 H 0.9617 0.3814 0.7056
O7_9 O 0.6667 0.3333 0.67358(4)
C7_3 C 0.8815(3) 0.3672(2) 0.70084(5)
H4_3 H 0.8886 0.3793 0.6904
C8_3 C 0.94776(20) 0.31750(14) 0.74594(4)
H5_3 H 0.9134 0.2791 0.7446
H6_3 H 0.9401 0.3375 0.7543
C9_4 C 1.00001(21) 0.31127(15) 0.7500
C10_3 C 0.98199(21) 0.26981(15) 0.76372(4)
H7_3 H 0.9677 0.2837 0.7722
H8_3 H 0.9510 0.2312 0.7606
C12_3 C 0.97217(28) 0.1934(2) 0.78713(6)
H9_3 H 0.9385 0.1939 0.7841
C13_3 C 0.96899(28) 0.1558(2) 0.79872(6)
H10_3 H 0.9333 0.1320 0.8037
O9_3 O 0.60052(24) 0.26566(19) 0.70463(4)
O11_3 O 0.66515(23) 0.39948(13) 0.70463(4)
C19_3 C 0.5662(4) 0.2194(3) 0.69780(6)
C21_3 C 0.6533(4) 0.4338(2) 0.69780(6)
C22_3 C 0.4338(4) 0.6533(2) 0.80220(6)
Zn7_3 Zn 0.602417(29) 0.261113(23) 0.666193(4)
Zn9_3 Zn 0.658697(28) 0.397583(16) 0.666193(4)
Zn19_2 Zn 0.992030(28) 0.927780(23) 0.832860(4)
Zn21_2 Zn 0.927780(23) 0.992030(17) 0.667140(4)
O16_3 O 0.56209(29) 0.20977(24) 0.68291(4)
O18_3 O 0.64769(29) 0.43791(17) 0.68291(4)
O19_3 O 0.43791(29) 0.64769(17) 0.81709(4)
C24_3 C 0.52064(32) 0.17204(26) 0.70728(5)
C26_3 C 0.65141(32) 0.47936(18) 0.70728(5)
C27_3 C 0.47936(32) 0.65141(19) 0.79272(5)
O21_3 O 0.38956(19) 0.04016(16) 0.73209(3)
O23_3 O 0.65061(19) 0.61044(11) 0.73209(3)
O24_3 O 0.61044(19) 0.65061(11) 0.76791(3)
C29_3 C 0.51270(34) 0.18126(28) 0.72250(5)
C31_3 C 0.66857(34) 0.48730(19) 0.72250(5)
C32_3 C 0.48730(34) 0.6686(2) 0.77750(5)
H14_3 H 0.5367 0.2177 0.7270
H16_3 H 0.6811 0.4633 0.7270
H17_3 H 0.4633 0.6811 0.7730
O25_3 O 0.96891(16) 0.23599(11) 0.73137(3)
O27_3 O 0.26707(19) 0.03109(16) 0.73137(3)
O28_3 O 0.73293(19) 0.76401(11) 0.76863(3)
O29_3 O 0.76401(20) 0.73293(12) 0.73137(3)
C34_3 C 0.46965(34) 0.13741(27) 0.73127(5)
C36_3 C 0.66777(32) 0.53035(18) 0.73127(5)
C37_3 C 0.53035(34) 0.6678(2) 0.76873(5)
H19_3 H 0.4647 0.1438 0.7418
H21_3 H 0.6792 0.5353 0.7418
H22_3 H 0.5353 0.6792 0.7582
O31_3 O 0.11470(22) 0.03721(18) 0.82023(3)
O33_3 O 0.92252(22) 0.88530(12) 0.82023(3)
O34_3 O 0.88530(22) 0.92252(13) 0.67977(3)
O35_3 O 0.78136(22) 0.41082(13) 0.65357(3)
O37_3 O 0.62945(18) 0.21864(12) 0.65357(3)
O39_3 O 0.58918(22) 0.37055(18) 0.65357(3)
O40_3 O 0.37055(18) 0.58918(13) 0.84643(3)
C39_3 C 0.43483(29) 0.08551(24) 0.72471(4)
C41_3 C 0.65069(29) 0.56517(17) 0.72471(4)
C42_3 C 0.56517(29) 0.65069(17) 0.77529(4)
O41_3 O 0.94188(22) 0.05336(14) 0.68106(5)
O43_3 O 0.11147(26) 0.05812(22) 0.68106(5)
O44_3 O 0.88853(26) 0.94664(14) 0.81894(5)
O45_3 O 0.94664(28) 0.88853(17) 0.68106(5)
O46_3 O 0.72478(22) 0.27998(14) 0.65228(5)
O48_3 O 0.55519(26) 0.27522(22) 0.65228(5)
O50_3 O 0.72002(28) 0.44481(17) 0.65228(5)
O51_3 O 0.44481(26) 0.72002(14) 0.84772(5)
C44_3 C 0.4432(4) 0.0753(3) 0.70988(6)
C46_3 C 0.6322(4) 0.5568(2) 0.70988(6)
C47_3 C 0.5568(4) 0.6322(2) 0.79012(6)
H24_3 H 0.4198 0.0383 0.7056
H26_3 H 0.6186 0.5802 0.7056
H27_3 H 0.5802 0.6186 0.7944
C49_3 C 0.4858(4) 0.1185(3) 0.70084(5)
C51_3 C 0.6328(4) 0.5142(2) 0.70084(5)
C52_3 C 0.5142(4) 0.6328(2) 0.79916(5)
H29_3 H 0.4908 0.1114 0.6904
H31_3 H 0.6207 0.5092 0.6904
H32_3 H 0.5092 0.6207 0.8096
C54_3 C 0.36975(24) 0.05224(20) 0.74594(4)
C56_3 C 0.68250(24) 0.63025(14) 0.74594(4)
C57_3 C 0.63025(24) 0.68250(14) 0.75406(4)
H34_3 H 0.3658 0.0866 0.7446
H36_3 H 0.7209 0.6342 0.7446
H37_3 H 0.6342 0.7209 0.7554
H39_3 H 0.3975 0.0599 0.7543
H41_3 H 0.6625 0.6025 0.7543
H42_3 H 0.6025 0.6625 0.7457
C58_3 C 0.31127(26) -0.00001(21) 0.7500
C59_3 C 0.68873(26) 0.68873(15) 0.7500
C61_3 C 0.28783(26) 0.01801(21) 0.76372(4)
C63_3 C 0.73019(26) 0.71217(15) 0.76372(4)
C64_3 C 0.71217(26) 0.73019(15) 0.73628(4)
H44_3 H 0.3161 0.0323 0.7722
H46_3 H 0.7163 0.6839 0.7722
H47_3 H 0.6839 0.7163 0.7278
H49_3 H 0.2803 0.0490 0.7606
H51_3 H 0.7688 0.7197 0.7606
H52_3 H 0.7197 0.7688 0.7394
C65_3 C 0.97719(25) 0.20631(17) 0.71980(5)
C67_3 C 0.22911(30) 0.02281(25) 0.71980(5)
C68_3 C 0.77089(30) 0.79369(17) 0.78020(5)
C69_3 C 0.79369(31) 0.77089(19) 0.71980(5)
C71_3 C 0.22127(34) 0.02783(28) 0.78713(6)
C73_3 C 0.80657(34) 0.77873(19) 0.78713(6)
C74_3 C 0.77873(34) 0.8066(2) 0.71287(6)
H54_3 H 0.2555 0.0615 0.7841
H56_3 H 0.8061 0.7445 0.7841
H57_3 H 0.7445 0.8061 0.7159
C76_3 C 0.18685(34) 0.03101(28) 0.79872(6)
C78_3 C 0.84417(34) 0.81315(19) 0.79872(6)
C79_3 C 0.81315(34) 0.8442(2) 0.70128(6)
H59_3 H 0.1988 0.0667 0.8037
H61_3 H 0.8680 0.8012 0.8037
H62_3 H 0.8012 0.8680 0.6963
C80_3 C 0.98366(27) 0.13620(18) 0.69699(6)
C82_3 C 0.15253(32) 0.01634(27) 0.69699(6)
C83_3 C 0.84747(32) 0.86380(18) 0.80301(6)
C84_3 C 0.86380(34) 0.8475(2) 0.69699(6)
C85_3 C 0.9309(3) 0.1200(2) 0.70421(6)
C87_3 C 0.1890(4) 0.0691(3) 0.70421(6)
C88_3 C 0.8110(4) 0.8800(2) 0.79579(6)
C89_3 C 0.8800(4) 0.8110(2) 0.70421(6)
H63_3 H 0.8976 0.0852 0.7014
H65_3 H 0.1875 0.1024 0.7014
H66_3 H 0.8125 0.9148 0.7986
H67_3 H 0.9148 0.8125 0.7014
C90_3 C 0.9278(3) 0.1551(2) 0.71547(6)
C92_3 C 0.2272(4) 0.0722(3) 0.71547(6)
C93_3 C 0.7728(4) 0.8449(2) 0.78453(6)
C94_3 C 0.8449(4) 0.7728(2) 0.71547(6)
H68_3 H 0.8921 0.1444 0.7203
H70_3 H 0.2522 0.1079 0.7203
H71_3 H 0.7478 0.8556 0.7797
H72_3 H 0.8556 0.7478 0.7203
C95_3 C 0.98802(28) 0.09906(19) 0.68515(5)
C97_3 C 0.11103(34) 0.01198(28) 0.68515(5)
C98_3 C 0.88897(34) 0.90094(19) 0.81485(5)
C99_3 C 0.90094(34) 0.8890(2) 0.68515(5)
C20_3 C 0.3467(4) 0.7806(3) 0.80220(6)
O17_3 O 0.35231(29) 0.79023(24) 0.81709(4)
C25_3 C 0.34859(32) 0.82796(26) 0.79272(5)
O22_3 O 0.34939(19) 0.95984(16) 0.76791(3)
C30_3 C 0.33143(34) 0.81874(28) 0.77750(5)
H15_3 H 0.3189 0.7823 0.7730
O26_3 O 0.23599(20) 0.96891(16) 0.76863(3)
C35_3 C 0.33223(32) 0.86259(27) 0.76873(5)
H20_3 H 0.3208 0.8562 0.7582
O32_3 O 0.07748(22) 0.96279(18) 0.67977(3)
O38_3 O 0.41082(22) 0.78136(12) 0.84643(3)
C40_3 C 0.34931(29) 0.91449(24) 0.77529(4)
O42_3 O 0.05336(28) 0.94188(22) 0.81894(5)
O49_3 O 0.27998(28) 0.72478(22) 0.84772(5)
C45_3 C 0.3678(4) 0.9247(3) 0.79012(6)
H25_3 H 0.3814 0.9617 0.7944
C50_3 C 0.3672(4) 0.8815(3) 0.79916(5)
H30_3 H 0.3793 0.8886 0.8096
C55_3 C 0.31750(24) 0.94776(20) 0.75406(4)
H35_3 H 0.2791 0.9134 0.7554
H40_3 H 0.3375 0.9401 0.7457
C58_4 C 0.31127(26) 0.99999(21) 0.7500
C62_3 C 0.26981(26) 0.98199(21) 0.73628(4)
H45_3 H 0.2837 0.9677 0.7278
H50_3 H 0.2312 0.9510 0.7394
C66_3 C 0.20631(31) 0.97719(25) 0.78020(5)
C72_3 C 0.19343(34) 0.97217(28) 0.71287(6)
H55_3 H 0.1939 0.9385 0.7159
C77_3 C 0.15583(34) 0.96899(28) 0.70128(6)
H60_3 H 0.1320 0.9333 0.6963
C81_3 C 0.13620(34) 0.98366(27) 0.80301(6)
C86_3 C 0.1200(4) 0.9309(3) 0.79579(6)
H64_3 H 0.0852 0.8976 0.7986
C91_3 C 0.1551(4) 0.9278(3) 0.78453(6)
H69_3 H 0.1444 0.8921 0.7797
C96_3 C 0.09906(34) 0.98802(28) 0.81485(5)
Zn1_10 Zn 0.0000 -0.0000 0.862718(7)
O7_10 O 0.0000 -0.0000 0.84025(4)
Zn5 Zn 0.6667 0.3333 0.970615(7)
O11_4 O 0.06767(19) 0.06615(13) 0.87130(4)
O12 O 0.59900(19) 0.33181(14) 0.96203(4)
C21_4 C 0.1139(3) 0.1005(2) 0.86447(6)
C22_4 C 0.5528(3) 0.3199(2) 0.96886(6)
O18_4 O 0.12356(24) 0.10458(17) 0.84958(4)
O19_4 O 0.54311(24) 0.31435(17) 0.98375(4)
C26_4 C 0.16129(26) 0.14603(18) 0.87395(5)
C27_4 C 0.50538(26) 0.31807(19) 0.95938(5)
O23_4 O 0.29317(16) 0.27711(11) 0.89876(3)
O24_4 O 0.37350(16) 0.31727(11) 0.93457(3)
C31_4 C 0.15207(28) 0.15397(19) 0.88917(5)
C32_4 C 0.51460(28) 0.3352(2) 0.94416(5)
H16_4 H 0.1156 0.1300 0.8937
H17_4 H 0.5511 0.3477 0.9396
O28_4 O 0.36442(16) 0.43068(11) 0.93530(3)
O29_4 O 0.30225(16) 0.39959(12) 0.89803(3)
C36_4 C 0.19592(27) 0.19702(18) 0.89794(5)
C37_4 C 0.47075(27) 0.3344(2) 0.93539(5)
H21_4 H 0.1895 0.2020 0.9085
H22_4 H 0.4772 0.3458 0.9248
C41_4 C 0.24782(24) 0.23184(17) 0.89138(4)
C42_4 C 0.41885(24) 0.31735(17) 0.94195(4)
C46_4 C 0.2580(3) 0.2235(2) 0.87655(6)
C47_4 C 0.4087(3) 0.2988(2) 0.95678(6)
H26_4 H 0.2950 0.2469 0.8723
H27_4 H 0.3717 0.2852 0.9610
O54 O 0.6667 0.3333 0.99308(4)
C51_4 C 0.2148(3) 0.1809(2) 0.86751(5)
C52_4 C 0.4519(3) 0.2994(2) 0.96582(5)
H31_4 H 0.2219 0.1759 0.8571
H32_4 H 0.4448 0.2873 0.9762
C56_4 C 0.28109(20) 0.29692(14) 0.91261(4)
C57_4 C 0.38558(20) 0.34916(14) 0.92072(4)
H36_4 H 0.2467 0.3009 0.9113
H37_4 H 0.4200 0.3875 0.9220
H41_4 H 0.2734 0.2692 0.9210
H42_4 H 0.3933 0.3291 0.9123
C59_4 C 0.33334(21) 0.35540(15) 0.9167
C63_4 C 0.31532(21) 0.37884(15) 0.93039(4)
C64_4 C 0.35135(21) 0.39685(15) 0.90294(4)
H46_4 H 0.3010 0.3506 0.9389
H47_4 H 0.3657 0.3829 0.8944
H51_4 H 0.2843 0.3864 0.9273
H52_4 H 0.3824 0.4354 0.9060
C68_4 C 0.35614(25) 0.46036(17) 0.94687(5)
C69_4 C 0.31053(25) 0.43755(19) 0.88646(5)
C73_4 C 0.30550(28) 0.44540(19) 0.95380(6)
C74_4 C 0.36117(28) 0.4732(2) 0.87953(6)
H56_4 H 0.2718 0.4112 0.9508
H57_4 H 0.3949 0.4727 0.8825
C78_4 C 0.30232(28) 0.47982(19) 0.96539(6)
C79_4 C 0.36435(28) 0.5108(2) 0.86794(6)
H61_4 H 0.2666 0.4679 0.9704
H62_4 H 0.4001 0.5346 0.8629
C83_4 C 0.34967(27) 0.53047(18) 0.96968(6)
C84_4 C 0.31700(27) 0.5141(2) 0.86365(6)
C88_4 C 0.4024(3) 0.5467(2) 0.96246(6)
C89_4 C 0.2643(3) 0.4776(2) 0.87087(6)
H66_4 H 0.4357 0.5815 0.9653
H67_4 H 0.2310 0.4791 0.8680
C93_4 C 0.4055(3) 0.5116(2) 0.95120(6)
C94_4 C 0.2612(3) 0.4394(2) 0.88213(6)
H71_4 H 0.4412 0.5223 0.9464
H72_4 H 0.2255 0.4144 0.8869
C98_4 C 0.34531(28) 0.56761(19) 0.98152(5)
C99_4 C 0.32136(28) 0.5556(2) 0.85181(5)
Zn1_11 Zn 0.0000 1.0000 0.862718(7)
O7_11 O 0.0000 1.0000 0.84025(4)
C29_4 C 0.0019(2) 0.84793(28) 0.88917(5)
H14_4 H 0.0144 0.8844 0.8937
O26_4 O 0.06626(12) 0.63558(16) 0.93530(3)
O27_4 O 0.09735(11) 0.69775(16) 0.89803(3)
C34_4 C 0.0011(2) 0.80408(27) 0.89794(5)
H19_4 H 0.0125 0.8105 0.9085
C54_4 C 0.01583(14) 0.71891(20) 0.91261(4)
H34_4 H 0.0542 0.7533 0.9113
C58_5 C 0.02206(15) 0.66666(21) 0.9167
C61_4 C 0.06352(15) 0.68468(21) 0.93039(4)
C62_4 C 0.04551(15) 0.64865(21) 0.90294(4)
H44_4 H 0.0496 0.6990 0.9389
H45_4 H 0.0173 0.6343 0.8944
H49_4 H 0.1021 0.7157 0.9273
H50_4 H 0.0531 0.6176 0.9060
C66_4 C 0.10422(19) 0.64386(25) 0.94687(5)
C67_4 C 0.12703(17) 0.68947(25) 0.88646(5)
C71_4 C 0.1399(2) 0.69450(28) 0.95380(6)
C72_4 C 0.11207(19) 0.63883(28) 0.87953(6)
H54_4 H 0.1394 0.7282 0.9508
H55_4 H 0.0779 0.6051 0.8825
C76_4 C 0.1775(2) 0.69768(28) 0.96539(6)
C77_4 C 0.14649(19) 0.63565(28) 0.86794(6)
H59_4 H 0.2013 0.7334 0.9704
H60_4 H 0.1346 0.5999 0.8629
C81_4 C 0.1808(2) 0.65033(27) 0.96968(6)
C82_4 C 0.19714(18) 0.68300(27) 0.86365(6)
C86_4 C 0.1443(2) 0.5976(3) 0.96246(6)
C87_4 C 0.2134(2) 0.7357(3) 0.87087(6)
H64_4 H 0.1458 0.5643 0.9653
H65_4 H 0.2482 0.7690 0.8680
C91_4 C 0.1061(2) 0.5945(3) 0.95120(6)
C92_4 C 0.1783(2) 0.7388(3) 0.88213(6)
H69_4 H 0.0811 0.5588 0.9464
H70_4 H 0.1890 0.7745 0.8869
C96_4 C 0.2223(2) 0.65469(28) 0.98152(5)
C97_4 C 0.23428(19) 0.67864(28) 0.85181(5)
Zn1_12 Zn 1.0000 -0.0000 0.862718(7)
O1_4 O 0.93385(13) 0.00152(14) 0.87130(4)
C1_4 C 0.8995(2) 0.0134(2) 0.86447(6)
O2_4 O 0.89542(17) 0.01898(17) 0.84958(4)
C2_4 C 0.85397(18) 0.01526(19) 0.87395(5)
O3_4 O 0.72289(11) 0.01606(11) 0.89876(3)
C5_4 C 0.76816(17) 0.01598(17) 0.89138(4)
C6_4 C 0.7765(2) 0.0345(2) 0.87655(6)
H3_4 H 0.7531 0.0481 0.8723
O7_12 O 1.0000 -0.0000 0.84025(4)
C7_4 C 0.8191(2) 0.0339(2) 0.86751(5)
H4_4 H 0.8241 0.0460 0.8571
H6_4 H 0.7308 0.0042 0.9210
O8_4 O 0.66819(14) 0.26718(13) 0.96203(4)
O14_3 O 0.73282(13) 0.40100(19) 0.96203(4)
C18_4 C 0.6801(2) 0.2328(2) 0.96886(6)
O15_4 O 0.68565(17) 0.22875(17) 0.98375(4)
C23_4 C 0.68193(19) 0.18730(18) 0.95938(5)
O20_4 O 0.68273(11) 0.05622(11) 0.93457(3)
C28_4 C 0.6648(2) 0.17936(19) 0.94416(5)
H13_4 H 0.6523 0.2033 0.9396
C33_4 C 0.6656(2) 0.13631(18) 0.93539(5)
H18_4 H 0.6542 0.1313 0.9248
C38_4 C 0.68265(17) 0.10149(17) 0.94195(4)
C43_4 C 0.7012(2) 0.1098(2) 0.95678(6)
H23_4 H 0.7148 0.0864 0.9610
C48_4 C 0.7006(2) 0.1524(2) 0.96582(5)
H28_4 H 0.7127 0.1574 0.9762
C53_4 C 0.65084(14) 0.03641(14) 0.92072(4)
H33_4 H 0.6125 0.0324 0.9220
H38_4 H 0.6709 0.0641 0.9123
Zn1_13 Zn 1.0000 1.0000 0.862718(7)
C3_4 C 0.84603(19) 0.9981(2) 0.88917(5)
H1_4 H 0.8700 0.9856 0.8937
O4_4 O 0.56932(11) 0.93374(12) 0.93530(3)
C4_4 C 0.80298(18) 0.9989(2) 0.89794(5)
H2_4 H 0.7980 0.9875 0.9085
O7_13 O 1.0000 1.0000 0.84025(4)
C8_4 C 0.70308(14) 0.98417(14) 0.91261(4)
H5_4 H 0.6991 0.9458 0.9113
C9_5 C 0.64460(15) 0.97794(15) 0.9167
C10_4 C 0.62116(15) 0.93648(15) 0.93039(4)
H7_4 H 0.6494 0.9504 0.9389
H8_4 H 0.6136 0.8979 0.9273
C11_4 C 0.53964(17) 0.89578(19) 0.94687(5)
C12_4 C 0.55460(19) 0.8601(2) 0.95380(6)
H9_4 H 0.5888 0.8606 0.9508
C13_4 C 0.52018(19) 0.8225(2) 0.96539(6)
H10_4 H 0.5321 0.7987 0.9704
C14_4 C 0.46953(18) 0.8192(2) 0.96968(6)
C15_4 C 0.4533(2) 0.8557(2) 0.96246(6)
H11_4 H 0.4185 0.8542 0.9653
C16_4 C 0.4884(2) 0.8939(2) 0.95120(6)
H12_4 H 0.4777 0.9189 0.9464
C17_4 C 0.43239(19) 0.7777(2) 0.98152(5)
O9_4 O 0.99848(14) 0.93233(19) 0.87130(4)
C19_4 C 0.9866(2) 0.8861(3) 0.86447(6)
C20_4 C 0.7672(2) 0.4472(3) 0.96886(6)
O16_4 O 0.98102(17) 0.87644(24) 0.84958(4)
O17_4 O 0.77125(17) 0.45689(24) 0.98375(4)
C24_4 C 0.98474(19) 0.83871(26) 0.87395(5)
C25_4 C 0.81270(18) 0.49462(26) 0.95938(5)
O21_4 O 0.98394(11) 0.70683(16) 0.89876(3)
O22_4 O 0.94378(11) 0.62650(16) 0.93457(3)
C30_4 C 0.82064(19) 0.48540(28) 0.94416(5)
H15_4 H 0.7967 0.4489 0.9396
O25_4 O 0.60041(12) 0.90265(11) 0.89803(3)
C35_4 C 0.86369(18) 0.52925(27) 0.93539(5)
H20_4 H 0.8687 0.5228 0.9248
C39_4 C 0.98402(17) 0.75218(24) 0.89138(4)
C40_4 C 0.89851(17) 0.58115(24) 0.94195(4)
C44_4 C 0.9655(2) 0.7420(3) 0.87655(6)
C45_4 C 0.8902(2) 0.5913(3) 0.95678(6)
H24_4 H 0.9519 0.7050 0.8723
H25_4 H 0.9136 0.6283 0.9610
C49_4 C 0.9661(2) 0.7852(3) 0.86751(5)
C50_4 C 0.8476(2) 0.5481(3) 0.96582(5)
H29_4 H 0.9540 0.7781 0.8571
H30_4 H 0.8426 0.5552 0.9762
C55_4 C 0.96359(14) 0.61442(20) 0.92072(4)
H35_4 H 0.9676 0.5800 0.9220
H39_4 H 0.9958 0.7266 0.9210
H40_4 H 0.9359 0.6067 0.9123
C60_4 C 0.60315(15) 0.95449(15) 0.90294(4)
H43_4 H 0.6171 0.9827 0.8944
H48_4 H 0.5646 0.9469 0.9060
C65_4 C 0.56245(19) 0.87297(17) 0.88646(5)
C70_4 C 0.5268(2) 0.88793(19) 0.87953(6)
H53_4 H 0.5273 0.9221 0.8825
C75_4 C 0.4892(2) 0.85351(19) 0.86794(6)
H58_4 H 0.4654 0.8654 0.8629
C80_4 C 0.4859(2) 0.80286(18) 0.86365(6)
C85_4 C 0.5224(2) 0.7866(2) 0.87087(6)
H63_4 H 0.5209 0.7518 0.8680
C90_4 C 0.5606(2) 0.8217(2) 0.88213(6)
H68_4 H 0.5856 0.8110 0.8869
C95_4 C 0.4444(2) 0.76572(19) 0.85181(5)
Zn1_14 Zn 0.0000 -0.0000 0.637282(7)
O7_14 O 0.0000 0.0000 0.65975(4)
Zn4_2 Zn 0.3333 0.6667 0.529385(7)
O9_5 O 0.06615(24) 0.06767(19) 0.62870(4)
O10_2 O 0.33181(23) 0.59900(19) 0.53797(4)
C19_5 C 0.1005(4) 0.1139(3) 0.63553(6)
C20_5 C 0.3199(4) 0.5528(3) 0.53114(6)
O16_5 O 0.10458(29) 0.12356(24) 0.65042(4)
O17_5 O 0.31435(29) 0.54311(24) 0.51625(4)
C24_5 C 0.14603(32) 0.16129(26) 0.62605(5)
C25_5 C 0.31807(32) 0.50538(26) 0.54062(5)
O21_5 O 0.27711(19) 0.29317(16) 0.60124(3)
O22_5 O 0.31727(19) 0.37350(16) 0.56543(3)
C29_5 C 0.15397(34) 0.15207(28) 0.61083(5)
C30_5 C 0.33523(34) 0.51460(28) 0.55584(5)
H14_5 H 0.1300 0.1156 0.6063
H15_5 H 0.3477 0.5511 0.5604
O26_5 O 0.43068(20) 0.36442(16) 0.56470(3)
O27_5 O 0.39959(19) 0.30225(16) 0.60197(3)
C34_5 C 0.19702(34) 0.19592(27) 0.60206(5)
C35_5 C 0.33443(32) 0.47075(27) 0.56461(5)
H19_5 H 0.2020 0.1895 0.5915
H20_5 H 0.3458 0.4772 0.5752
C39_5 C 0.23184(29) 0.24782(24) 0.60862(4)
C40_5 C 0.31735(29) 0.41885(24) 0.55805(4)
C44_5 C 0.2235(4) 0.2580(3) 0.62345(6)
C45_5 C 0.2988(4) 0.4087(3) 0.54322(6)
H24_5 H 0.2469 0.2950 0.6277
H25_5 H 0.2852 0.3717 0.5390
O53_2 O 0.3333 0.6667 0.50692(4)
C49_5 C 0.1809(4) 0.2148(3) 0.63249(5)
C50_5 C 0.2994(4) 0.4519(3) 0.53418(5)
H29_5 H 0.1759 0.2219 0.6429
H30_5 H 0.2873 0.4448 0.5238
C54_5 C 0.29692(24) 0.28109(20) 0.58739(4)
C55_5 C 0.34916(24) 0.38558(20) 0.57928(4)
H34_5 H 0.3009 0.2467 0.5887
H35_5 H 0.3875 0.4200 0.5780
H39_5 H 0.2692 0.2734 0.5790
H40_5 H 0.3291 0.3933 0.5877
C58_6 C 0.35540(26) 0.33334(21) 0.5833
C61_5 C 0.37884(26) 0.31532(21) 0.56961(4)
C62_5 C 0.39685(26) 0.35135(21) 0.59706(4)
H44_5 H 0.3506 0.3010 0.5611
H45_5 H 0.3829 0.3657 0.6056
H49_5 H 0.3864 0.2843 0.5727
H50_5 H 0.4354 0.3824 0.5940
C66_5 C 0.46036(31) 0.35614(25) 0.55313(5)
C67_5 C 0.43755(30) 0.31053(25) 0.61354(5)
C71_5 C 0.44540(34) 0.30550(28) 0.54620(6)
C72_5 C 0.47323(34) 0.36117(28) 0.62047(6)
H54_5 H 0.4112 0.2718 0.5492
H55_5 H 0.4727 0.3949 0.6175
C76_5 C 0.47982(34) 0.30232(28) 0.53461(6)
C77_5 C 0.51083(34) 0.36435(28) 0.63206(6)
H59_5 H 0.4679 0.2666 0.5296
H60_5 H 0.5346 0.4001 0.6371
C81_5 C 0.53047(34) 0.34967(27) 0.53032(6)
C82_5 C 0.51413(32) 0.31700(27) 0.63635(6)
C86_5 C 0.5467(4) 0.4024(3) 0.53754(6)
C87_5 C 0.4776(4) 0.2643(3) 0.62913(6)
H64_5 H 0.5815 0.4357 0.5347
H65_5 H 0.4791 0.2310 0.6320
C91_5 C 0.5116(4) 0.4055(3) 0.54880(6)
C92_5 C 0.4394(4) 0.2612(3) 0.61787(6)
H69_5 H 0.5223 0.4412 0.5536
H70_5 H 0.4144 0.2255 0.6131
C96_5 C 0.56761(34) 0.34531(28) 0.51848(5)
C97_5 C 0.55563(34) 0.32136(28) 0.64819(5)
Zn1_15 Zn 0.0000 1.0000 0.637282(7)
O7_15 O 0.0000 1.0000 0.65975(4)
O11_5 O 0.00152(23) 0.93385(13) 0.62870(4)
O12_2 O 0.26718(24) 0.66819(14) 0.53797(4)
C21_5 C 0.0134(4) 0.8995(2) 0.63553(6)
C22_5 C 0.2328(4) 0.6801(2) 0.53114(6)
O18_5 O 0.01898(29) 0.89542(17) 0.65042(4)
O19_5 O 0.22875(29) 0.68565(17) 0.51625(4)
C26_5 C 0.01526(32) 0.85397(18) 0.62605(5)
C27_5 C 0.18730(32) 0.68193(19) 0.54062(5)
O23_5 O 0.01606(19) 0.72289(11) 0.60124(3)
O24_5 O 0.05622(19) 0.68273(11) 0.56543(3)
C32_5 C 0.17936(34) 0.6648(2) 0.55584(5)
H17_5 H 0.2033 0.6523 0.5604
C37_5 C 0.13631(34) 0.6656(2) 0.56461(5)
H22_5 H 0.1313 0.6542 0.5752
C41_5 C 0.01598(29) 0.76816(17) 0.60862(4)
C42_5 C 0.10149(29) 0.68265(17) 0.55805(4)
C46_5 C 0.0345(4) 0.7765(2) 0.62345(6)
C47_5 C 0.1098(4) 0.7012(2) 0.54322(6)
H26_5 H 0.0481 0.7531 0.6277
H27_5 H 0.0864 0.7148 0.5390
C51_5 C 0.0339(4) 0.8191(2) 0.63249(5)
C52_5 C 0.1524(4) 0.7006(2) 0.53418(5)
H31_5 H 0.0460 0.8241 0.6429
H32_5 H 0.1574 0.7127 0.5238
C57_5 C 0.03641(24) 0.65084(14) 0.57928(4)
H37_5 H 0.0324 0.6125 0.5780
H41_5 H 0.0042 0.7308 0.5790
H42_5 H 0.0641 0.6709 0.5877
Zn1_16 Zn 1.0000 -0.0000 0.637282(7)
C3_5 C 0.84793(28) 0.0019(2) 0.61083(5)
H1_5 H 0.8844 0.0144 0.6063
O4_5 O 0.63558(16) 0.06626(12) 0.56470(3)
C4_5 C 0.80408(27) 0.0011(2) 0.60206(5)
H2_5 H 0.8105 0.0125 0.5915
O7_16 O 1.0000 0.0000 0.65975(4)
C8_5 C 0.71891(20) 0.01583(14) 0.58739(4)
H5_5 H 0.7533 0.0542 0.5887
C9_6 C 0.66666(21) 0.02206(15) 0.5833
C10_5 C 0.68468(21) 0.06352(15) 0.56961(4)
H7_5 H 0.6990 0.0496 0.5611
H8_5 H 0.7157 0.1021 0.5727
C11_5 C 0.64386(25) 0.10422(19) 0.55313(5)
C12_5 C 0.69450(28) 0.1399(2) 0.54620(6)
H9_5 H 0.7282 0.1394 0.5492
C13_5 C 0.69768(28) 0.1775(2) 0.53461(6)
H10_5 H 0.7334 0.2013 0.5296
C14_5 C 0.65033(27) 0.1808(2) 0.53032(6)
C15_5 C 0.5976(3) 0.1443(2) 0.53754(6)
H11_5 H 0.5643 0.1458 0.5347
C16_5 C 0.5945(3) 0.1061(2) 0.54880(6)
H12_5 H 0.5588 0.0811 0.5536
C17_5 C 0.65469(28) 0.2223(2) 0.51848(5)
O25_5 O 0.69775(16) 0.09735(11) 0.60197(3)
C60_5 C 0.64865(21) 0.04551(15) 0.59706(4)
H43_5 H 0.6343 0.0173 0.6056
H48_5 H 0.6176 0.0531 0.5940
C65_5 C 0.68947(25) 0.12703(17) 0.61354(5)
C70_5 C 0.63883(28) 0.11207(19) 0.62047(6)
H53_5 H 0.6051 0.0779 0.6175
C75_5 C 0.63565(28) 0.14649(19) 0.63206(6)
H58_5 H 0.5999 0.1346 0.6371
C80_5 C 0.68300(27) 0.19714(18) 0.63635(6)
C85_5 C 0.7357(3) 0.2134(2) 0.62913(6)
H63_5 H 0.7690 0.2482 0.6320
C90_5 C 0.7388(3) 0.1783(2) 0.61787(6)
H68_5 H 0.7745 0.1890 0.6131
C95_5 C 0.67864(28) 0.23428(19) 0.64819(5)
Zn1_17 Zn 1.0000 1.0000 0.637282(7)
O1_5 O 0.93233(19) 0.99848(14) 0.62870(4)
C1_5 C 0.8861(3) 0.9866(2) 0.63553(6)
O2_5 O 0.87644(24) 0.98102(17) 0.65042(4)
C2_5 C 0.83871(26) 0.98474(19) 0.62605(5)
O3_5 O 0.70683(16) 0.98394(11) 0.60124(3)
C5_5 C 0.75218(24) 0.98402(17) 0.60862(4)
C6_5 C 0.7420(3) 0.9655(2) 0.62345(6)
H3_5 H 0.7050 0.9519 0.6277
O7_17 O 1.0000 1.0000 0.65975(4)
C7_5 C 0.7852(3) 0.9661(2) 0.63249(5)
H4_5 H 0.7781 0.9540 0.6429
H6_5 H 0.7266 0.9958 0.5790
O8_5 O 0.40100(19) 0.73282(13) 0.53797(4)
C18_5 C 0.4472(3) 0.7672(2) 0.53114(6)
O15_5 O 0.45689(24) 0.77125(17) 0.51625(4)
C23_5 C 0.49462(26) 0.81270(18) 0.54062(5)
O20_5 O 0.62650(16) 0.94378(11) 0.56543(3)
C28_5 C 0.48540(28) 0.82064(19) 0.55584(5)
C31_5 C 0.99810(34) 0.84603(19) 0.61083(5)
H13_5 H 0.4489 0.7967 0.5604
H16_5 H 0.9856 0.8700 0.6063
O28_5 O 0.93374(19) 0.56932(11) 0.56470(3)
O29_5 O 0.90265(20) 0.60041(12) 0.60197(3)
C33_5 C 0.52925(27) 0.86369(18) 0.56461(5)
C36_5 C 0.99890(32) 0.80298(18) 0.60206(5)
H18_5 H 0.5228 0.8687 0.5752
H21_5 H 0.9875 0.7980 0.5915
C38_5 C 0.58115(24) 0.89851(17) 0.55805(4)
C43_5 C 0.5913(3) 0.8902(2) 0.54322(6)
H23_5 H 0.6283 0.9136 0.5390
C48_5 C 0.5481(3) 0.8476(2) 0.53418(5)
H28_5 H 0.5552 0.8426 0.5238
C53_5 C 0.61442(20) 0.96359(14) 0.57928(4)
C56_5 C 0.98417(24) 0.70308(14) 0.58739(4)
H33_5 H 0.5800 0.9676 0.5780
H36_5 H 0.9458 0.6991 0.5887
H38_5 H 0.6067 0.9359 0.5877
C59_5 C 0.97794(26) 0.64460(15) 0.5833
C63_5 C 0.93648(26) 0.62116(15) 0.56961(4)
C64_5 C 0.95449(26) 0.60315(15) 0.59706(4)
H46_5 H 0.9504 0.6494 0.5611
H47_5 H 0.9827 0.6171 0.6056
H51_5 H 0.8979 0.6136 0.5727
H52_5 H 0.9469 0.5646 0.5940
C68_5 C 0.89578(30) 0.53964(17) 0.55313(5)
C69_5 C 0.87297(31) 0.56245(19) 0.61354(5)
C73_5 C 0.86010(34) 0.55460(19) 0.54620(6)
C74_5 C 0.88793(34) 0.5268(2) 0.62047(6)
H56_5 H 0.8606 0.5888 0.5492
H57_5 H 0.9221 0.5273 0.6175
C78_5 C 0.82250(34) 0.52018(19) 0.53461(6)
C79_5 C 0.85351(34) 0.4892(2) 0.63206(6)
H61_5 H 0.7987 0.5321 0.5296
H62_5 H 0.8654 0.4654 0.6371
C83_5 C 0.81920(32) 0.46953(18) 0.53032(6)
C84_5 C 0.80286(34) 0.4859(2) 0.63635(6)
C88_5 C 0.8557(4) 0.4533(2) 0.53754(6)
C89_5 C 0.7866(4) 0.5224(2) 0.62913(6)
H66_5 H 0.8542 0.4185 0.5347
H67_5 H 0.7518 0.5209 0.6320
C93_5 C 0.8939(4) 0.4884(2) 0.54880(6)
C94_5 C 0.8217(4) 0.5606(2) 0.61787(6)
H71_5 H 0.9189 0.4777 0.5536
H72_5 H 0.8110 0.5856 0.6131
C98_5 C 0.77770(34) 0.43239(19) 0.51848(5)
C99_5 C 0.76572(34) 0.4444(2) 0.64819(5)
Zn4_3 Zn 0.6667 0.3333 0.196051(7)
O10_3 O 0.66515(23) 0.26566(19) 0.20463(4)
C20_6 C 0.6533(4) 0.2194(3) 0.19780(6)
O17_6 O 0.64769(29) 0.20977(24) 0.18291(4)
C25_6 C 0.65141(32) 0.17204(26) 0.20728(5)
O22_6 O 0.65061(19) 0.04016(16) 0.23209(3)
C30_6 C 0.66857(34) 0.18126(28) 0.22250(5)
H15_6 H 0.6811 0.2177 0.2270
O26_6 O 0.76401(20) 0.03109(16) 0.23137(3)
C35_6 C 0.66777(32) 0.13741(27) 0.23127(5)
H20_6 H 0.6792 0.1438 0.2418
C40_6 C 0.65069(29) 0.08551(24) 0.22471(4)
C45_6 C 0.6322(4) 0.0753(3) 0.20988(6)
H25_6 H 0.6186 0.0383 0.2056
O53_3 O 0.6667 0.3333 0.17358(4)
C50_6 C 0.6328(4) 0.1185(3) 0.20084(5)
H30_6 H 0.6207 0.1114 0.1904
C55_6 C 0.68250(24) 0.05224(20) 0.24594(4)
H35_6 H 0.7209 0.0866 0.2446
H40_6 H 0.6625 0.0599 0.2543
C58_7 C 0.68873(26) 0.00001(21) 0.2500
C62_6 C 0.73019(26) 0.01801(21) 0.26372(4)
H45_6 H 0.7163 0.0323 0.2722
H50_6 H 0.7688 0.0490 0.2606
C66_6 C 0.79369(31) 0.02281(25) 0.21980(5)
C72_6 C 0.80657(34) 0.02783(28) 0.28713(6)
H55_6 H 0.8061 0.0615 0.2841
C77_6 C 0.84417(34) 0.03101(28) 0.29872(6)
H60_6 H 0.8680 0.0667 0.3037
C81_6 C 0.86380(34) 0.01634(27) 0.19699(6)
C86_6 C 0.8800(4) 0.0691(3) 0.20421(6)
H64_6 H 0.9148 0.1024 0.2014
C91_6 C 0.8449(4) 0.0722(3) 0.21547(6)
H69_6 H 0.8556 0.1079 0.2203
C96_6 C 0.90094(34) 0.01198(28) 0.18515(5)
Zn1_18 Zn 0.3333 0.6667 0.303949(7)
O1_6 O 0.26566(19) 0.66515(14) 0.29537(4)
C1_6 C 0.2194(3) 0.6533(2) 0.30220(6)
O2_6 O 0.20977(24) 0.64769(17) 0.31709(4)
C2_6 C 0.17204(26) 0.65141(19) 0.29272(5)
O3_6 O 0.04016(16) 0.65061(11) 0.26791(3)
C3_6 C 0.18126(28) 0.6686(2) 0.27750(5)
H1_6 H 0.2177 0.6811 0.2730
C4_6 C 0.13741(27) 0.6678(2) 0.26873(5)
H2_6 H 0.1438 0.6792 0.2582
C5_6 C 0.08551(24) 0.65069(17) 0.27529(4)
C6_6 C 0.0753(3) 0.6322(2) 0.29012(6)
H3_6 H 0.0383 0.6186 0.2944
O7_18 O 0.3333 0.6667 0.32642(4)
C7_6 C 0.1185(3) 0.6328(2) 0.29916(5)
H4_6 H 0.1114 0.6207 0.3096
C8_6 C 0.05224(20) 0.68250(14) 0.25406(4)
H5_6 H 0.0866 0.7209 0.2554
H6_6 H 0.0599 0.6625 0.2457
C9_7 C -0.00001(21) 0.68873(15) 0.2500
C10_6 C 0.01801(21) 0.73019(15) 0.23628(4)
H7_6 H 0.0323 0.7163 0.2278
H8_6 H 0.0490 0.7688 0.2394
C12_6 C 0.02783(28) 0.8066(2) 0.21287(6)
H9_6 H 0.0615 0.8061 0.2159
C13_6 C 0.03101(28) 0.8442(2) 0.20128(6)
H10_6 H 0.0667 0.8680 0.1963
O9_6 O 0.39948(24) 0.73434(19) 0.29537(4)
O11_6 O 0.33485(23) 0.60052(13) 0.29537(4)
O12_3 O 0.60052(24) 0.33485(14) 0.20463(4)
C19_6 C 0.4338(4) 0.7806(3) 0.30220(6)
C21_6 C 0.3467(4) 0.5662(2) 0.30220(6)
C22_6 C 0.5662(4) 0.3467(2) 0.19780(6)
O16_6 O 0.43791(29) 0.79023(24) 0.31709(4)
O18_6 O 0.35231(29) 0.56209(17) 0.31709(4)
O19_6 O 0.56209(29) 0.35231(17) 0.18291(4)
C24_6 C 0.47936(32) 0.82796(26) 0.29272(5)
C26_6 C 0.34859(32) 0.52064(18) 0.29272(5)
C27_6 C 0.52064(32) 0.34859(19) 0.20728(5)
O21_6 O 0.61044(19) 0.95984(16) 0.26791(3)
O23_6 O 0.34939(19) 0.38956(11) 0.26791(3)
O24_6 O 0.38956(19) 0.34939(11) 0.23209(3)
C29_6 C 0.48730(34) 0.81874(28) 0.27750(5)
C31_6 C 0.33143(34) 0.51270(19) 0.27750(5)
C32_6 C 0.51270(34) 0.3314(2) 0.22250(5)
H14_6 H 0.4633 0.7823 0.2730
H16_6 H 0.3189 0.5367 0.2730
H17_6 H 0.5367 0.3189 0.2270
O25_6 O 0.03109(16) 0.76401(11) 0.26863(3)
O27_6 O 0.73293(19) 0.96891(16) 0.26863(3)
O28_6 O 0.26707(19) 0.23599(11) 0.23137(3)
O29_6 O 0.23599(20) 0.26707(12) 0.26863(3)
C34_6 C 0.53035(34) 0.86259(27) 0.26873(5)
C36_6 C 0.33223(32) 0.46965(18) 0.26873(5)
C37_6 C 0.46965(34) 0.3322(2) 0.23127(5)
H19_6 H 0.5353 0.8562 0.2582
H21_6 H 0.3208 0.4647 0.2582
H22_6 H 0.4647 0.3208 0.2418
C39_6 C 0.56517(29) 0.91449(24) 0.27529(4)
C41_6 C 0.34931(29) 0.43483(17) 0.27529(4)
C42_6 C 0.43483(29) 0.34931(17) 0.22471(4)
C44_6 C 0.5568(4) 0.9247(3) 0.29012(6)
C46_6 C 0.3678(4) 0.4432(2) 0.29012(6)
C47_6 C 0.4432(4) 0.3678(2) 0.20988(6)
H24_6 H 0.5802 0.9617 0.2944
H26_6 H 0.3814 0.4198 0.2944
H27_6 H 0.4198 0.3814 0.2056
C49_6 C 0.5142(4) 0.8815(3) 0.29916(5)
C51_6 C 0.3672(4) 0.4858(2) 0.29916(5)
C52_6 C 0.4858(4) 0.3672(2) 0.20084(5)
H29_6 H 0.5092 0.8886 0.3096
H31_6 H 0.3793 0.4908 0.3096
H32_6 H 0.4908 0.3793 0.1904
C54_6 C 0.63025(24) 0.94776(20) 0.25406(4)
C56_6 C 0.31750(24) 0.36975(14) 0.25406(4)
C57_6 C 0.36975(24) 0.31750(14) 0.24594(4)
H34_6 H 0.6342 0.9134 0.2554
H36_6 H 0.2791 0.3658 0.2554
H37_6 H 0.3658 0.2791 0.2446
H39_6 H 0.6025 0.9401 0.2457
H41_6 H 0.3375 0.3975 0.2457
H42_6 H 0.3975 0.3375 0.2543
C58_8 C 0.68873(26) 1.00001(21) 0.2500
C59_6 C 0.31127(26) 0.31127(15) 0.2500
C61_6 C 0.71217(26) 0.98199(21) 0.23628(4)
C63_6 C 0.26981(26) 0.28783(15) 0.23628(4)
C64_6 C 0.28783(26) 0.26981(15) 0.26372(4)
H44_6 H 0.6839 0.9677 0.2278
H46_6 H 0.2837 0.3161 0.2278
H47_6 H 0.3161 0.2837 0.2722
H49_6 H 0.7197 0.9510 0.2394
H51_6 H 0.2312 0.2803 0.2394
H52_6 H 0.2803 0.2312 0.2606
C65_6 C 0.02281(25) 0.79369(17) 0.28020(5)
C67_6 C 0.77089(30) 0.97719(25) 0.28020(5)
C68_6 C 0.22911(30) 0.20631(17) 0.21980(5)
C69_6 C 0.20631(31) 0.22911(19) 0.28020(5)
C71_6 C 0.77873(34) 0.97217(28) 0.21287(6)
C73_6 C 0.19343(34) 0.22127(19) 0.21287(6)
C74_6 C 0.22127(34) 0.1934(2) 0.28713(6)
H54_6 H 0.7445 0.9385 0.2159
H56_6 H 0.1939 0.2555 0.2159
H57_6 H 0.2555 0.1939 0.2841
C76_6 C 0.81315(34) 0.96899(28) 0.20128(6)
C78_6 C 0.15583(34) 0.18685(19) 0.20128(6)
C79_6 C 0.18685(34) 0.1558(2) 0.29872(6)
H59_6 H 0.8012 0.9333 0.1963
H61_6 H 0.1320 0.1988 0.1963
H62_6 H 0.1988 0.1320 0.3037
C80_6 C 0.01634(27) 0.86380(18) 0.30301(6)
C82_6 C 0.84747(32) 0.98366(27) 0.30301(6)
C83_6 C 0.15253(32) 0.13620(18) 0.19699(6)
C84_6 C 0.13620(34) 0.1525(2) 0.30301(6)
C85_6 C 0.0691(3) 0.8800(2) 0.29579(6)
C87_6 C 0.8110(4) 0.9309(3) 0.29579(6)
C88_6 C 0.1890(4) 0.1200(2) 0.20421(6)
C89_6 C 0.1200(4) 0.1890(2) 0.29579(6)
H63_6 H 0.1024 0.9148 0.2986
H65_6 H 0.8125 0.8976 0.2986
H66_6 H 0.1875 0.0852 0.2014
H67_6 H 0.0852 0.1875 0.2986
C90_6 C 0.0722(3) 0.8449(2) 0.28453(6)
C92_6 C 0.7728(4) 0.9278(3) 0.28453(6)
C93_6 C 0.2272(4) 0.1551(2) 0.21547(6)
C94_6 C 0.1551(4) 0.2272(2) 0.28453(6)
H68_6 H 0.1079 0.8556 0.2797
H70_6 H 0.7478 0.8921 0.2797
H71_6 H 0.2522 0.1444 0.2203
H72_6 H 0.1444 0.2522 0.2797
C95_6 C 0.01198(28) 0.90094(19) 0.31485(5)
C97_6 C 0.88897(34) 0.98802(28) 0.31485(5)
C98_6 C 0.11103(34) 0.09906(19) 0.18515(5)
C99_6 C 0.09906(34) 0.1110(2) 0.31485(5)
O4_6 O 0.96891(16) 0.73293(12) 0.23137(3)
C9_8 C 0.99999(21) 0.68873(15) 0.2500
C11_6 C 0.97719(25) 0.77089(19) 0.21980(5)
C14_6 C 0.98366(27) 0.8475(2) 0.19699(6)
C15_6 C 0.9309(3) 0.8110(2) 0.20421(6)
H11_6 H 0.8976 0.8125 0.2014
C16_6 C 0.9278(3) 0.7728(2) 0.21547(6)
H12_6 H 0.8921 0.7478 0.2203
C17_6 C 0.98802(28) 0.8890(2) 0.18515(5)
O8_6 O 0.73434(19) 0.39948(13) 0.20463(4)
C18_6 C 0.7806(3) 0.4338(2) 0.19780(6)
O15_6 O 0.79023(24) 0.43791(17) 0.18291(4)
C23_6 C 0.82796(26) 0.47936(18) 0.20728(5)
O20_6 O 0.95984(16) 0.61044(11) 0.23209(3)
C28_6 C 0.81874(28) 0.48730(19) 0.22250(5)
H13_6 H 0.7823 0.4633 0.2270
C33_6 C 0.86259(27) 0.53035(18) 0.23127(5)
H18_6 H 0.8562 0.5353 0.2418
C38_6 C 0.91449(24) 0.56517(17) 0.22471(4)
C43_6 C 0.9247(3) 0.5568(2) 0.20988(6)
H23_6 H 0.9617 0.5802 0.2056
C48_6 C 0.8815(3) 0.5142(2) 0.20084(5)
H28_6 H 0.8886 0.5092 0.1904
C53_6 C 0.94776(20) 0.63025(14) 0.24594(4)
H33_6 H 0.9134 0.6342 0.2446
H38_6 H 0.9401 0.6025 0.2543
C60_6 C 0.98199(21) 0.71217(15) 0.26372(4)
H43_6 H 0.9677 0.6839 0.2722
H48_6 H 0.9510 0.7197 0.2606
C70_6 C 0.97217(28) 0.77873(19) 0.28713(6)
H53_6 H 0.9385 0.7445 0.2841
C75_6 C 0.96899(28) 0.81315(19) 0.29872(6)
H58_6 H 0.9333 0.8012 0.3037
loop_
_geom_bond_atom_site_label_1
_geom_bond_atom_site_label_2
_geom_bond_site_symmetry_1
_geom_bond_site_symmetry_2
H1 C3 1_555 1_555
O4 C10 1_555 1_555
C4 C3 1_555 1_555
H2 C4 1_555 1_555
O5 C17 1_555 1_555
O6 C17 1_555 1_555
O7 Zn1 1_555 1_555
H5 C8 1_555 1_555
C9 C8 1_555 1_555
C10 C9 1_555 1_555
H7 C10 1_555 1_555
H8 C10 1_555 1_555
C11 O4 1_555 1_555
C12 C11 1_555 1_555
H9 C12 1_555 1_555
C13 C12 1_555 1_555
H10 C13 1_555 1_555
C14 C13 1_555 1_555
C15 C14 1_555 1_555
H11 C15 1_555 1_555
C16 C11 1_555 1_555
H12 C16 1_555 1_555
C17 C14 1_555 1_555
Zn4 O10 1_555 1_555
O9 Zn1 1_555 1_555
O10 C20 1_555 1_555
C19 O9 1_555 1_555
C20 O17 1_555 1_555
Zn7 O7 1_555 1_555
Zn11 O5 1_555 1_555
Zn12 O6 1_555 1_555
Zn13 O30 1_555 1_555
Zn14 O41 1_555 1_555
O16 C19 1_555 1_555
C24 C19 1_555 1_555
C25 C20 1_555 1_555
O21 C39 1_555 1_555
O22 C40 1_555 1_555
C30 C25 1_555 1_555
H15 C30 1_555 1_555
O25 C60 1_555 1_555
C35 C30 1_555 1_555
H20 C35 1_555 1_555
O30 C95 1_555 1_555
O37 Zn7 1_555 1_555
C40 C35 1_555 1_555
O41 C95 1_555 1_555
C44 C39 1_555 1_555
C45 C40 1_555 1_555
H24 C44 1_555 1_555
H25 C45 1_555 1_555
O53 Zn4 1_555 1_555
C49 C24 1_555 1_555
C50 C25 1_555 1_555
H29 C49 1_555 1_555
H30 C50 1_555 1_555
C55 O22 1_555 1_555
H35 C55 1_555 1_555
H40 C55 1_555 1_555
C60 C9 1_555 1_555
H43 C60 1_555 1_555
H48 C60 1_555 1_555
C65 O25 1_555 1_555
C70 C65 1_555 1_555
H53 C70 1_555 1_555
C75 C70 1_555 1_555
H58 C75 1_555 1_555
C80 C75 1_555 1_555
C85 C80 1_555 1_555
H63 C85 1_555 1_555
C90 C65 1_555 1_555
H68 C90 1_555 1_555
C95 C80 1_555 1_555
C15 C16 1_555 1_555
Zn7 O16 1_555 1_555
C44 C49 1_555 1_555
C45 C50 1_555 1_555
C85 C90 1_555 1_555
O38 Zn8 1_555 1_555
O49 Zn8 1_555 1_555
Zn1_2 O1 1_555 1_555
O1 C1 1_555 1_555
C1 O2 1_555 1_555
Zn2 O2 1_555 1_555
C2 C1 1_555 1_555
O3 C5 1_555 1_555
C6 C5 1_555 1_555
H3 C6 1_555 1_555
O7_2 Zn1_2 1_555 1_555
C7 C2 1_555 1_555
H4 C7 1_555 1_555
Zn4 O8 1_555 1_555
O8 C18 1_555 1_555
O13 Zn4 1_555 1_555
C18 O15 1_555 1_555
C23 C18 1_555 1_555
O20 C38 1_555 1_555
C28 C23 1_555 1_555
H13 C28 1_555 1_555
C33 C28 1_555 1_555
H18 C33 1_555 1_555
O35 Zn2 1_555 1_555
C38 C33 1_555 1_555
C43 C38 1_555 1_555
H23 C43 1_555 1_555
C48 C23 1_555 1_555
H28 C48 1_555 1_555
H33 C53 1_555 1_555
H38 C53 1_555 1_555
Zn2 O7_2 1_555 1_555
C6 C7 1_555 1_555
O20 C53 1_555 1_555
C43 C48 1_555 1_555
O36 Zn6 1_555 1_555
O47 Zn6 1_555 1_555
O7_3 Zn1_3 1_555 1_555
Zn12 O31 1_555 1_555
Zn16 O42 1_555 1_555
Zn17 O32 1_555 1_555
Zn13 O43 1_555 1_555
H14 C29 1_555 1_555
O26 C61 1_555 1_555
O27 C62 1_555 1_555
C34 C29 1_555 1_555
H19 C34 1_555 1_555
O31 C96 1_555 1_555
O32 C97 1_555 1_555
O42 C96 1_555 1_555
O43 C97 1_555 1_555
H34 C54 1_555 1_555
C58 C54 1_555 1_555
C61 C58 1_555 1_555
C62 C58 1_555 1_555
H44 C61 1_555 1_555
H45 C62 1_555 1_555
H49 C61 1_555 1_555
H50 C62 1_555 1_555
C66 O26 1_555 1_555
C67 O27 1_555 1_555
C71 C66 1_555 1_555
C72 C67 1_555 1_555
H54 C71 1_555 1_555
H55 C72 1_555 1_555
C76 C71 1_555 1_555
C77 C72 1_555 1_555
H59 C76 1_555 1_555
H60 C77 1_555 1_555
C81 C76 1_555 1_555
C82 C77 1_555 1_555
C86 C81 1_555 1_555
C87 C82 1_555 1_555
H64 C86 1_555 1_555
H65 C87 1_555 1_555
C91 C66 1_555 1_555
C92 C67 1_555 1_555
H69 C91 1_555 1_555
H70 C92 1_555 1_555
C96 C81 1_555 1_555
C97 C82 1_555 1_555
C86 C91 1_555 1_555
C87 C92 1_555 1_555
O7_4 Zn1_4 1_555 1_555
O11 Zn1_4 1_555 1_555
O13 C22 1_555 1_555
C21 O11 1_555 1_555
C22 O19 1_555 1_555
Zn9 O7_4 1_555 1_555
Zn16 O33 1_555 1_555
Zn11 O44 1_555 1_555
Zn14 O34 1_555 1_555
Zn17 O45 1_555 1_555
O18 C21 1_555 1_555
C26 C21 1_555 1_555
C27 C22 1_555 1_555
O23 C41 1_555 1_555
O24 C42 1_555 1_555
C31 C26 1_555 1_555
C32 C27 1_555 1_555
H16 C31 1_555 1_555
H17 C32 1_555 1_555
O28 C63 1_555 1_555
O29 C64 1_555 1_555
C36 C31 1_555 1_555
C37 C32 1_555 1_555
H21 C36 1_555 1_555
H22 C37 1_555 1_555
O33 C98 1_555 1_555
O34 C99 1_555 1_555
O39 Zn9 1_555 1_555
C41 C36 1_555 1_555
C42 C37 1_555 1_555
O44 C98 1_555 1_555
O45 C99 1_555 1_555
O50 Zn9 1_555 1_555
C46 C41 1_555 1_555
C47 C42 1_555 1_555
H26 C46 1_555 1_555
H27 C47 1_555 1_555
C51 C26 1_555 1_555
C52 C27 1_555 1_555
H31 C51 1_555 1_555
H32 C52 1_555 1_555
C56 O23 1_555 1_555
C57 O24 1_555 1_555
H36 C56 1_555 1_555
H37 C57 1_555 1_555
H41 C56 1_555 1_555
H42 C57 1_555 1_555
C59 C56 1_555 1_555
C63 C59 1_555 1_555
C64 C59 1_555 1_555
H46 C63 1_555 1_555
H47 C64 1_555 1_555
H51 C63 1_555 1_555
H52 C64 1_555 1_555
C68 O28 1_555 1_555
C69 O29 1_555 1_555
C73 C68 1_555 1_555
C74 C69 1_555 1_555
H56 C73 1_555 1_555
H57 C74 1_555 1_555
C78 C73 1_555 1_555
C79 C74 1_555 1_555
H61 C78 1_555 1_555
H62 C79 1_555 1_555
C83 C78 1_555 1_555
C84 C79 1_555 1_555
C88 C83 1_555 1_555
C89 C84 1_555 1_555
H66 C88 1_555 1_555
H67 C89 1_555 1_555
C93 C68 1_555 1_555
C94 C69 1_555 1_555
H71 C93 1_555 1_555
H72 C94 1_555 1_555
C98 C83 1_555 1_555
C99 C84 1_555 1_555
Zn9 O18 1_555 1_555
C46 C51 1_555 1_555
C47 C52 1_555 1_555
C57 C59 1_555 1_555
C88 C93 1_555 1_555
C89 C94 1_555 1_555
O40 Zn24 1_555 1_555
O51 Zn24 1_555 1_555
Zn1_5 O1_2 1_555 1_555
O1_2 C1_2 1_555 1_555
C1_2 O2_2 1_555 1_555
Zn2_2 O2_2 1_555 1_555
C2_2 C1_2 1_555 1_555
O3_2 C5_2 1_555 1_555
C6_2 C5_2 1_555 1_555
H3_2 C6_2 1_555 1_555
O7_5 Zn1_5 1_555 1_555
C7_2 C2_2 1_555 1_555
H4_2 C7_2 1_555 1_555
Zn3 O8_2 1_555 1_555
O8_2 C18_2 1_555 1_555
O13_2 Zn3 1_555 1_555
O14 Zn3 1_555 1_555
C18_2 O15_2 1_555 1_555
Zn6_2 O15_2 1_555 1_555
Zn19 O33_2 1_555 1_555
Zn20 O44_2 1_555 1_555
Zn21 O34_2 1_555 1_555
Zn22 O45_2 1_555 1_555
Zn23 O52 1_555 1_555
Zn24_2 O52 1_555 1_555
C23_2 C18_2 1_555 1_555
O20_2 C38_2 1_555 1_555
C28_2 C23_2 1_555 1_555
H13_2 C28_2 1_555 1_555
H16_2 C31_2 1_555 1_555
O28_2 C63_2 1_555 1_555
O29_2 C64_2 1_555 1_555
C33_2 C28_2 1_555 1_555
C36_2 C31_2 1_555 1_555
H18_2 C33_2 1_555 1_555
H21_2 C36_2 1_555 1_555
O33_2 C98_2 1_555 1_555
O34_2 C99_2 1_555 1_555
O35_2 Zn2_2 1_555 1_555
O36_2 Zn6_2 1_555 1_555
C38_2 C33_2 1_555 1_555
O44_2 C98_2 1_555 1_555
O45_2 C99_2 1_555 1_555
O47_2 Zn6_2 1_555 1_555
C43_2 C38_2 1_555 1_555
H23_2 C43_2 1_555 1_555
O52 Zn3 1_555 1_555
C48_2 C23_2 1_555 1_555
H28_2 C48_2 1_555 1_555
H33_2 C53_2 1_555 1_555
H36_2 C56_2 1_555 1_555
H38_2 C53_2 1_555 1_555
C59_2 C56_2 1_555 1_555
C63_2 C59_2 1_555 1_555
C64_2 C59_2 1_555 1_555
H46_2 C63_2 1_555 1_555
H47_2 C64_2 1_555 1_555
H51_2 C63_2 1_555 1_555
H52_2 C64_2 1_555 1_555
C68_2 O28_2 1_555 1_555
C69_2 O29_2 1_555 1_555
C73_2 C68_2 1_555 1_555
C74_2 C69_2 1_555 1_555
H56_2 C73_2 1_555 1_555
H57_2 C74_2 1_555 1_555
C78_2 C73_2 1_555 1_555
C79_2 C74_2 1_555 1_555
H61_2 C78_2 1_555 1_555
H62_2 C79_2 1_555 1_555
C83_2 C78_2 1_555 1_555
C84_2 C79_2 1_555 1_555
C88_2 C83_2 1_555 1_555
C89_2 C84_2 1_555 1_555
H66_2 C88_2 1_555 1_555
H67_2 C89_2 1_555 1_555
C93_2 C68_2 1_555 1_555
C94_2 C69_2 1_555 1_555
H71_2 C93_2 1_555 1_555
H72_2 C94_2 1_555 1_555
C98_2 C83_2 1_555 1_555
C99_2 C84_2 1_555 1_555
Zn2_2 O7_5 1_555 1_555
C6_2 C7_2 1_555 1_555
Zn6_2 O52 1_555 1_555
O20_2 C53_2 1_555 1_555
C43_2 C48_2 1_555 1_555
C88_2 C93_2 1_555 1_555
C89_2 C94_2 1_555 1_555
H1_2 C3_2 1_555 1_555
O4_2 C10_2 1_555 1_555
C4_2 C3_2 1_555 1_555
H2_2 C4_2 1_555 1_555
O5_2 C17_2 1_555 1_555
O6_2 C17_2 1_555 1_555
O7_6 Zn1_6 1_555 1_555
H5_2 C8_2 1_555 1_555
C9_2 C8_2 1_555 1_555
C10_2 C9_2 1_555 1_555
H7_2 C10_2 1_555 1_555
H8_2 C10_2 1_555 1_555
C11_2 O4_2 1_555 1_555
C12_2 C11_2 1_555 1_555
H9_2 C12_2 1_555 1_555
C13_2 C12_2 1_555 1_555
H10_2 C13_2 1_555 1_555
C14_2 C13_2 1_555 1_555
C15_2 C14_2 1_555 1_555
H11_2 C15_2 1_555 1_555
C16_2 C11_2 1_555 1_555
H12_2 C16_2 1_555 1_555
C17_2 C14_2 1_555 1_555
Zn20 O5_2 1_555 1_555
Zn12_2 O6_2 1_555 1_555
Zn13_2 O30_2 1_555 1_555
Zn21 O41_2 1_555 1_555
O25_2 C60_2 1_555 1_555
O30_2 C95_2 1_555 1_555
O41_2 C95_2 1_555 1_555
C60_2 C9_2 1_555 1_555
H43_2 C60_2 1_555 1_555
H48_2 C60_2 1_555 1_555
C65_2 O25_2 1_555 1_555
C70_2 C65_2 1_555 1_555
H53_2 C70_2 1_555 1_555
C75_2 C70_2 1_555 1_555
H58_2 C75_2 1_555 1_555
C80_2 C75_2 1_555 1_555
C85_2 C80_2 1_555 1_555
H63_2 C85_2 1_555 1_555
C90_2 C65_2 1_555 1_555
H68_2 C90_2 1_555 1_555
C95_2 C80_2 1_555 1_555
C15_2 C16_2 1_555 1_555
C85_2 C90_2 1_555 1_555
O7_7 Zn1_7 1_555 1_555
O11_2 Zn1_7 1_555 1_555
O13_2 C22_2 1_555 1_555
C21_2 O11_2 1_555 1_555
C22_2 O19_2 1_555 1_555
Zn9_2 O7_7 1_555 1_555
Zn24_2 O19_2 1_555 1_555
O18_2 C21_2 1_555 1_555
C26_2 C21_2 1_555 1_555
C27_2 C22_2 1_555 1_555
O23_2 C41_2 1_555 1_555
O24_2 C42_2 1_555 1_555
C32_2 C27_2 1_555 1_555
H17_2 C32_2 1_555 1_555
C37_2 C32_2 1_555 1_555
H22_2 C37_2 1_555 1_555
O39_2 Zn9_2 1_555 1_555
O40_2 Zn24_2 1_555 1_555
C42_2 C37_2 1_555 1_555
O51_2 Zn24_2 1_555 1_555
C46_2 C41_2 1_555 1_555
C47_2 C42_2 1_555 1_555
H26_2 C46_2 1_555 1_555
H27_2 C47_2 1_555 1_555
C51_2 C26_2 1_555 1_555
C52_2 C27_2 1_555 1_555
H31_2 C51_2 1_555 1_555
H32_2 C52_2 1_555 1_555
C57_2 O24_2 1_555 1_555
H37_2 C57_2 1_555 1_555
H42_2 C57_2 1_555 1_555
Zn9_2 O18_2 1_555 1_555
C46_2 C51_2 1_555 1_555
C47_2 C52_2 1_555 1_555
O7_8 Zn1_8 1_555 1_555
O9_2 Zn1_8 1_555 1_555
O14 C20_2 1_555 1_555
C19_2 O9_2 1_555 1_555
C20_2 O17_2 1_555 1_555
Zn7_2 O7_8 1_555 1_555
Zn23 O17_2 1_555 1_555
Zn12_2 O31_2 1_555 1_555
Zn19 O42_2 1_555 1_555
Zn22 O32_2 1_555 1_555
Zn13_2 O43_2 1_555 1_555
O16_2 C19_2 1_555 1_555
C24_2 C19_2 1_555 1_555
C25_2 C20_2 1_555 1_555
O21_2 C39_2 1_555 1_555
O22_2 C40_2 1_555 1_555
C29_2 C24_2 1_555 1_555
C30_2 C25_2 1_555 1_555
H14_2 C29_2 1_555 1_555
H15_2 C30_2 1_555 1_555
O26_2 C61_2 1_555 1_555
O27_2 C62_2 1_555 1_555
C34_2 C29_2 1_555 1_555
C35_2 C30_2 1_555 1_555
H19_2 C34_2 1_555 1_555
H20_2 C35_2 1_555 1_555
O31_2 C96_2 1_555 1_555
O32_2 C97_2 1_555 1_555
O37_2 Zn7_2 1_555 1_555
O38_2 Zn23 1_555 1_555
C39_2 C34_2 1_555 1_555
C40_2 C35_2 1_555 1_555
O42_2 C96_2 1_555 1_555
O43_2 C97_2 1_555 1_555
O48_2 Zn7_2 1_555 1_555
O49_2 Zn23 1_555 1_555
C44_2 C39_2 1_555 1_555
C45_2 C40_2 1_555 1_555
H24_2 C44_2 1_555 1_555
H25_2 C45_2 1_555 1_555
C49_2 C24_2 1_555 1_555
C50_2 C25_2 1_555 1_555
H29_2 C49_2 1_555 1_555
H30_2 C50_2 1_555 1_555
C54_2 O21_2 1_555 1_555
C55_2 O22_2 1_555 1_555
H34_2 C54_2 1_555 1_555
H35_2 C55_2 1_555 1_555
H39_2 C54_2 1_555 1_555
H40_2 C55_2 1_555 1_555
C58_2 C54_2 1_555 1_555
C61_2 C58_2 1_555 1_555
C62_2 C58_2 1_555 1_555
H44_2 C61_2 1_555 1_555
H45_2 C62_2 1_555 1_555
H49_2 C61_2 1_555 1_555
H50_2 C62_2 1_555 1_555
C66_2 O26_2 1_555 1_555
C67_2 O27_2 1_555 1_555
C71_2 C66_2 1_555 1_555
C72_2 C67_2 1_555 1_555
H54_2 C71_2 1_555 1_555
H55_2 C72_2 1_555 1_555
C76_2 C71_2 1_555 1_555
C77_2 C72_2 1_555 1_555
H59_2 C76_2 1_555 1_555
H60_2 C77_2 1_555 1_555
C81_2 C76_2 1_555 1_555
C82_2 C77_2 1_555 1_555
C86_2 C81_2 1_555 1_555
C87_2 C82_2 1_555 1_555
H64_2 C86_2 1_555 1_555
H65_2 C87_2 1_555 1_555
C91_2 C66_2 1_555 1_555
C92_2 C67_2 1_555 1_555
H69_2 C91_2 1_555 1_555
H70_2 C92_2 1_555 1_555
C96_2 C81_2 1_555 1_555
C97_2 C82_2 1_555 1_555
Zn7_2 O16_2 1_555 1_555
C44_2 C49_2 1_555 1_555
C45_2 C50_2 1_555 1_555
C55_2 C58_2 1_555 1_555
C86_2 C91_2 1_555 1_555
C87_2 C92_2 1_555 1_555
O6_3 C17_3 1_555 1_555
C11_3 O4_3 1_555 1_555
C15_3 C14_3 1_555 1_555
H11_3 C15_3 1_555 1_555
C16_3 C11_3 1_555 1_555
H12_3 C16_3 1_555 1_555
C17_3 C14_3 1_555 1_555
Zn3_2 O8_3 1_555 1_555
O8_3 C18_3 1_555 1_555
O13_3 Zn3_2 1_555 1_555
O14_2 Zn3_2 1_555 1_555
C18_3 O15_3 1_555 1_555
Zn6_3 O15_3 1_555 1_555
Zn12_3 O6_3 1_555 1_555
Zn13_3 O30_3 1_555 1_555
Zn23_2 O52_2 1_555 1_555
Zn24_3 O52_2 1_555 1_555
C23_3 C18_3 1_555 1_555
O20_3 C38_3 1_555 1_555
C28_3 C23_3 1_555 1_555
H13_3 C28_3 1_555 1_555
C33_3 C28_3 1_555 1_555
H18_3 C33_3 1_555 1_555
O36_3 Zn6_3 1_555 1_555
C38_3 C33_3 1_555 1_555
O47_3 Zn6_3 1_555 1_555
C43_3 C38_3 1_555 1_555
H23_3 C43_3 1_555 1_555
O52_2 Zn3_2 1_555 1_555
C48_3 C23_3 1_555 1_555
H28_3 C48_3 1_555 1_555
C53_3 C9_3 1_555 1_555
H33_3 C53_3 1_555 1_555
H38_3 C53_3 1_555 1_555
C60_3 C9_3 1_555 1_555
H43_3 C60_3 1_555 1_555
H48_3 C60_3 1_555 1_555
H53_3 C70_3 1_555 1_555
C75_3 C70_3 1_555 1_555
H58_3 C75_3 1_555 1_555
C15_3 C16_3 1_555 1_555
Zn6_3 O52_2 1_555 1_555
O20_3 C53_3 1_555 1_555
C43_3 C48_3 1_555 1_555
Zn1_9 O1_3 1_555 1_555
O1_3 C1_3 1_555 1_555
C1_3 O2_3 1_555 1_555
Zn2_3 O2_3 1_555 1_555
C2_3 C1_3 1_555 1_555
O3_3 C5_3 1_555 1_555
C3_3 C2_3 1_555 1_555
H1_3 C3_3 1_555 1_555
C4_3 C3_3 1_555 1_555
H2_3 C4_3 1_555 1_555
C5_3 C4_3 1_555 1_555
C6_3 C5_3 1_555 1_555
H3_3 C6_3 1_555 1_555
O7_9 Zn1_9 1_555 1_555
C7_3 C2_3 1_555 1_555
H4_3 C7_3 1_555 1_555
C8_3 O3_3 1_555 1_555
H5_3 C8_3 1_555 1_555
H6_3 C8_3 1_555 1_555
C9_4 C8_3 1_555 1_555
C10_3 C9_4 1_555 1_555
H7_3 C10_3 1_555 1_555
H8_3 C10_3 1_555 1_555
H9_3 C12_3 1_555 1_555
C13_3 C12_3 1_555 1_555
H10_3 C13_3 1_555 1_555
O9_3 Zn1_9 1_555 1_555
O11_3 Zn1_9 1_555 1_555
O13_3 C22_3 1_555 1_555
C19_3 O9_3 1_555 1_555
C21_3 O11_3 1_555 1_555
C22_3 O19_3 1_555 1_555
Zn7_3 O7_9 1_555 1_555
Zn9_3 O7_9 1_555 1_555
Zn24_3 O19_3 1_555 1_555
Zn20_2 O5_3 1_555 1_555
Zn12_3 O31_3 1_555 1_555
Zn13_3 O43_3 1_555 1_555
Zn19_2 O33_3 1_555 1_555
Zn21_2 O34_3 1_555 1_555
O16_3 C19_3 1_555 1_555
O18_3 C21_3 1_555 1_555
C24_3 C19_3 1_555 1_555
C26_3 C21_3 1_555 1_555
C27_3 C22_3 1_555 1_555
O21_3 C39_3 1_555 1_555
O23_3 C41_3 1_555 1_555
O24_3 C42_3 1_555 1_555
C29_3 C24_3 1_555 1_555
C31_3 C26_3 1_555 1_555
C32_3 C27_3 1_555 1_555
H14_3 C29_3 1_555 1_555
H16_3 C31_3 1_555 1_555
H17_3 C32_3 1_555 1_555
O28_3 C63_3 1_555 1_555
O29_3 C64_3 1_555 1_555
C34_3 C29_3 1_555 1_555
C36_3 C31_3 1_555 1_555
C37_3 C32_3 1_555 1_555
H19_3 C34_3 1_555 1_555
H21_3 C36_3 1_555 1_555
H22_3 C37_3 1_555 1_555
O33_3 C98_3 1_555 1_555
O34_3 C99_3 1_555 1_555
O35_3 Zn2_3 1_555 1_555
O37_3 Zn7_3 1_555 1_555
O39_3 Zn9_3 1_555 1_555
O40_3 Zn24_3 1_555 1_555
C39_3 C34_3 1_555 1_555
C41_3 C36_3 1_555 1_555
C42_3 C37_3 1_555 1_555
O41_3 C95_3 1_555 1_555
O43_3 C97_3 1_555 1_555
O44_3 C98_3 1_555 1_555
O45_3 C99_3 1_555 1_555
O46_3 Zn2_3 1_555 1_555
O48_3 Zn7_3 1_555 1_555
O50_3 Zn9_3 1_555 1_555
O51_3 Zn24_3 1_555 1_555
C44_3 C39_3 1_555 1_555
C46_3 C41_3 1_555 1_555
C47_3 C42_3 1_555 1_555
H24_3 C44_3 1_555 1_555
H26_3 C46_3 1_555 1_555
H27_3 C47_3 1_555 1_555
C49_3 C24_3 1_555 1_555
C51_3 C26_3 1_555 1_555
C52_3 C27_3 1_555 1_555
H29_3 C49_3 1_555 1_555
H31_3 C51_3 1_555 1_555
H32_3 C52_3 1_555 1_555
C54_3 O21_3 1_555 1_555
C56_3 O23_3 1_555 1_555
C57_3 O24_3 1_555 1_555
H34_3 C54_3 1_555 1_555
H36_3 C56_3 1_555 1_555
H37_3 C57_3 1_555 1_555
H39_3 C54_3 1_555 1_555
H41_3 C56_3 1_555 1_555
H42_3 C57_3 1_555 1_555
C58_3 C54_3 1_555 1_555
C59_3 C56_3 1_555 1_555
C61_3 C58_3 1_555 1_555
C63_3 C59_3 1_555 1_555
C64_3 C59_3 1_555 1_555
H44_3 C61_3 1_555 1_555
H46_3 C63_3 1_555 1_555
H47_3 C64_3 1_555 1_555
H49_3 C61_3 1_555 1_555
H51_3 C63_3 1_555 1_555
H52_3 C64_3 1_555 1_555
C65_3 O25_3 1_555 1_555
C67_3 O27_3 1_555 1_555
C68_3 O28_3 1_555 1_555
C69_3 O29_3 1_555 1_555
C73_3 C68_3 1_555 1_555
C74_3 C69_3 1_555 1_555
H54_3 C71_3 1_555 1_555
H56_3 C73_3 1_555 1_555
H57_3 C74_3 1_555 1_555
C76_3 C71_3 1_555 1_555
C78_3 C73_3 1_555 1_555
C79_3 C74_3 1_555 1_555
H59_3 C76_3 1_555 1_555
H61_3 C78_3 1_555 1_555
H62_3 C79_3 1_555 1_555
C83_3 C78_3 1_555 1_555
C84_3 C79_3 1_555 1_555
C85_3 C80_3 1_555 1_555
C87_3 C82_3 1_555 1_555
C88_3 C83_3 1_555 1_555
C89_3 C84_3 1_555 1_555
H63_3 C85_3 1_555 1_555
H65_3 C87_3 1_555 1_555
H66_3 C88_3 1_555 1_555
H67_3 C89_3 1_555 1_555
C90_3 C65_3 1_555 1_555
C92_3 C67_3 1_555 1_555
C93_3 C68_3 1_555 1_555
C94_3 C69_3 1_555 1_555
H68_3 C90_3 1_555 1_555
H70_3 C92_3 1_555 1_555
H71_3 C93_3 1_555 1_555
H72_3 C94_3 1_555 1_555
C95_3 C80_3 1_555 1_555
C97_3 C82_3 1_555 1_555
C98_3 C83_3 1_555 1_555
C99_3 C84_3 1_555 1_555
Zn2_3 O7_9 1_555 1_555
C6_3 C7_3 1_555 1_555
Zn7_3 O16_3 1_555 1_555
Zn9_3 O18_3 1_555 1_555
C44_3 C49_3 1_555 1_555
C46_3 C51_3 1_555 1_555
C47_3 C52_3 1_555 1_555
C57_3 C59_3 1_555 1_555
C85_3 C90_3 1_555 1_555
C87_3 C92_3 1_555 1_555
C88_3 C93_3 1_555 1_555
C89_3 C94_3 1_555 1_555
O14_2 C20_3 1_555 1_555
C20_3 O17_3 1_555 1_555
Zn23_2 O17_3 1_555 1_555
Zn22_2 O32_3 1_555 1_555
C25_3 C20_3 1_555 1_555
O22_3 C40_3 1_555 1_555
C30_3 C25_3 1_555 1_555
H15_3 C30_3 1_555 1_555
C35_3 C30_3 1_555 1_555
H20_3 C35_3 1_555 1_555
O38_3 Zn23_2 1_555 1_555
C40_3 C35_3 1_555 1_555
O42_3 C96_3 1_555 1_555
O49_3 Zn23_2 1_555 1_555
C45_3 C40_3 1_555 1_555
H25_3 C45_3 1_555 1_555
C50_3 C25_3 1_555 1_555
H30_3 C50_3 1_555 1_555
C55_3 O22_3 1_555 1_555
H35_3 C55_3 1_555 1_555
H40_3 C55_3 1_555 1_555
C62_3 C58_4 1_555 1_555
H45_3 C62_3 1_555 1_555
H50_3 C62_3 1_555 1_555
C66_3 O26_3 1_555 1_555
H55_3 C72_3 1_555 1_555
C77_3 C72_3 1_555 1_555
H60_3 C77_3 1_555 1_555
C86_3 C81_3 1_555 1_555
H64_3 C86_3 1_555 1_555
C91_3 C66_3 1_555 1_555
H69_3 C91_3 1_555 1_555
C96_3 C81_3 1_555 1_555
C45_3 C50_3 1_555 1_555
C55_3 C58_4 1_555 1_555
C86_3 C91_3 1_555 1_555
O7_10 Zn1_10 1_555 1_555
Zn5 O12 1_555 1_555
O11_4 Zn1_10 1_555 1_555
O12 C22_4 1_555 1_555
C21_4 O11_4 1_555 1_555
C22_4 O19_4 1_555 1_555
Zn12_3 O7_10 1_555 1_555
O18_4 C21_4 1_555 1_555
C26_4 C21_4 1_555 1_555
C27_4 C22_4 1_555 1_555
O23_4 C41_4 1_555 1_555
O24_4 C42_4 1_555 1_555
C31_4 C26_4 1_555 1_555
C32_4 C27_4 1_555 1_555
H16_4 C31_4 1_555 1_555
H17_4 C32_4 1_555 1_555
O28_4 C63_4 1_555 1_555
O29_4 C64_4 1_555 1_555
C36_4 C31_4 1_555 1_555
C37_4 C32_4 1_555 1_555
H21_4 C36_4 1_555 1_555
H22_4 C37_4 1_555 1_555
O38 C98_4 1_555 1_555
O40_3 C99_4 1_555 1_555
C41_4 C36_4 1_555 1_555
C42_4 C37_4 1_555 1_555
O51 C98_4 1_555 1_555
O47_3 C99_4 1_555 1_555
C46_4 C41_4 1_555 1_555
C47_4 C42_4 1_555 1_555
H26_4 C46_4 1_555 1_555
H27_4 C47_4 1_555 1_555
O54 Zn5 1_555 1_555
C51_4 C26_4 1_555 1_555
C52_4 C27_4 1_555 1_555
H31_4 C51_4 1_555 1_555
H32_4 C52_4 1_555 1_555
C56_4 O23_4 1_555 1_555
C57_4 O24_4 1_555 1_555
H36_4 C56_4 1_555 1_555
H37_4 C57_4 1_555 1_555
H41_4 C56_4 1_555 1_555
H42_4 C57_4 1_555 1_555
C59_4 C56_4 1_555 1_555
C63_4 C59_4 1_555 1_555
C64_4 C59_4 1_555 1_555
H46_4 C63_4 1_555 1_555
H47_4 C64_4 1_555 1_555
H51_4 C63_4 1_555 1_555
H52_4 C64_4 1_555 1_555
C68_4 O28_4 1_555 1_555
C69_4 O29_4 1_555 1_555
C73_4 C68_4 1_555 1_555
C74_4 C69_4 1_555 1_555
H56_4 C73_4 1_555 1_555
H57_4 C74_4 1_555 1_555
C78_4 C73_4 1_555 1_555
C79_4 C74_4 1_555 1_555
H61_4 C78_4 1_555 1_555
H62_4 C79_4 1_555 1_555
C83_4 C78_4 1_555 1_555
C84_4 C79_4 1_555 1_555
C88_4 C83_4 1_555 1_555
C89_4 C84_4 1_555 1_555
H66_4 C88_4 1_555 1_555
H67_4 C89_4 1_555 1_555
C93_4 C68_4 1_555 1_555
C94_4 C69_4 1_555 1_555
H71_4 C93_4 1_555 1_555
H72_4 C94_4 1_555 1_555
C98_4 C83_4 1_555 1_555
C99_4 C84_4 1_555 1_555
Zn12_3 O18_4 1_555 1_555
C46_4 C51_4 1_555 1_555
C47_4 C52_4 1_555 1_555
C57_4 C59_4 1_555 1_555
C88_4 C93_4 1_555 1_555
C89_4 C94_4 1_555 1_555
O7_11 Zn1_11 1_555 1_555
H14_4 C29_4 1_555 1_555
O26_4 C61_4 1_555 1_555
O27_4 C62_4 1_555 1_555
C34_4 C29_4 1_555 1_555
H19_4 C34_4 1_555 1_555
O36 C96_4 1_555 1_555
O36_3 C97_4 1_555 1_555
O49 C96_4 1_555 1_555
O49_3 C97_4 1_555 1_555
H34_4 C54_4 1_555 1_555
C58_5 C54_4 1_555 1_555
C61_4 C58_5 1_555 1_555
C62_4 C58_5 1_555 1_555
H44_4 C61_4 1_555 1_555
H45_4 C62_4 1_555 1_555
H49_4 C61_4 1_555 1_555
H50_4 C62_4 1_555 1_555
C66_4 O26_4 1_555 1_555
C67_4 O27_4 1_555 1_555
C71_4 C66_4 1_555 1_555
C72_4 C67_4 1_555 1_555
H54_4 C71_4 1_555 1_555
H55_4 C72_4 1_555 1_555
C76_4 C71_4 1_555 1_555
C77_4 C72_4 1_555 1_555
H59_4 C76_4 1_555 1_555
H60_4 C77_4 1_555 1_555
C81_4 C76_4 1_555 1_555
C82_4 C77_4 1_555 1_555
C86_4 C81_4 1_555 1_555
C87_4 C82_4 1_555 1_555
H64_4 C86_4 1_555 1_555
H65_4 C87_4 1_555 1_555
C91_4 C66_4 1_555 1_555
C92_4 C67_4 1_555 1_555
H69_4 C91_4 1_555 1_555
H70_4 C92_4 1_555 1_555
C96_4 C81_4 1_555 1_555
C97_4 C82_4 1_555 1_555
C86_4 C91_4 1_555 1_555
C87_4 C92_4 1_555 1_555
Zn1_12 O1_4 1_555 1_555
O1_4 C1_4 1_555 1_555
C1_4 O2_4 1_555 1_555
Zn20_2 O2_4 1_555 1_555
C2_4 C1_4 1_555 1_555
O3_4 C5_4 1_555 1_555
C6_4 C5_4 1_555 1_555
H3_4 C6_4 1_555 1_555
O7_12 Zn1_12 1_555 1_555
C7_4 C2_4 1_555 1_555
H4_4 C7_4 1_555 1_555
Zn5 O8_4 1_555 1_555
O8_4 C18_4 1_555 1_555
O14_3 Zn5 1_555 1_555
C18_4 O15_4 1_555 1_555
C23_4 C18_4 1_555 1_555
O20_4 C38_4 1_555 1_555
C28_4 C23_4 1_555 1_555
H13_4 C28_4 1_555 1_555
C33_4 C28_4 1_555 1_555
H18_4 C33_4 1_555 1_555
C38_4 C33_4 1_555 1_555
C43_4 C38_4 1_555 1_555
H23_4 C43_4 1_555 1_555
C48_4 C23_4 1_555 1_555
H28_4 C48_4 1_555 1_555
H33_4 C53_4 1_555 1_555
H38_4 C53_4 1_555 1_555
Zn20_2 O7_12 1_555 1_555
C6_4 C7_4 1_555 1_555
O20_4 C53_4 1_555 1_555
C43_4 C48_4 1_555 1_555
H1_4 C3_4 1_555 1_555
O4_4 C10_4 1_555 1_555
C4_4 C3_4 1_555 1_555
H2_4 C4_4 1_555 1_555
O40 C17_4 1_555 1_555
O47 C17_4 1_555 1_555
O7_13 Zn1_13 1_555 1_555
H5_4 C8_4 1_555 1_555
C9_5 C8_4 1_555 1_555
C10_4 C9_5 1_555 1_555
H7_4 C10_4 1_555 1_555
H8_4 C10_4 1_555 1_555
C11_4 O4_4 1_555 1_555
C12_4 C11_4 1_555 1_555
H9_4 C12_4 1_555 1_555
C13_4 C12_4 1_555 1_555
H10_4 C13_4 1_555 1_555
C14_4 C13_4 1_555 1_555
C15_4 C14_4 1_555 1_555
H11_4 C15_4 1_555 1_555
C16_4 C11_4 1_555 1_555
H12_4 C16_4 1_555 1_555
C17_4 C14_4 1_555 1_555
O9_4 Zn1_13 1_555 1_555
O14_3 C20_4 1_555 1_555
C19_4 O9_4 1_555 1_555
C20_4 O17_4 1_555 1_555
Zn19_2 O7_13 1_555 1_555
O16_4 C19_4 1_555 1_555
C24_4 C19_4 1_555 1_555
C25_4 C20_4 1_555 1_555
O21_4 C39_4 1_555 1_555
O22_4 C40_4 1_555 1_555
C30_4 C25_4 1_555 1_555
H15_4 C30_4 1_555 1_555
O25_4 C60_4 1_555 1_555
C35_4 C30_4 1_555 1_555
H20_4 C35_4 1_555 1_555
O38_3 C95_4 1_555 1_555
C40_4 C35_4 1_555 1_555
O51_3 C95_4 1_555 1_555
C44_4 C39_4 1_555 1_555
C45_4 C40_4 1_555 1_555
H24_4 C44_4 1_555 1_555
H25_4 C45_4 1_555 1_555
C49_4 C24_4 1_555 1_555
C50_4 C25_4 1_555 1_555
H29_4 C49_4 1_555 1_555
H30_4 C50_4 1_555 1_555
C55_4 O22_4 1_555 1_555
H35_4 C55_4 1_555 1_555
H40_4 C55_4 1_555 1_555
C60_4 C9_5 1_555 1_555
H43_4 C60_4 1_555 1_555
H48_4 C60_4 1_555 1_555
C65_4 O25_4 1_555 1_555
C70_4 C65_4 1_555 1_555
H53_4 C70_4 1_555 1_555
C75_4 C70_4 1_555 1_555
H58_4 C75_4 1_555 1_555
C80_4 C75_4 1_555 1_555
C85_4 C80_4 1_555 1_555
H63_4 C85_4 1_555 1_555
C90_4 C65_4 1_555 1_555
H68_4 C90_4 1_555 1_555
C95_4 C80_4 1_555 1_555
C15_4 C16_4 1_555 1_555
Zn19_2 O16_4 1_555 1_555
C44_4 C49_4 1_555 1_555
C45_4 C50_4 1_555 1_555
C85_4 C90_4 1_555 1_555
O7_14 Zn1_14 1_555 1_555
Zn4_2 O10_2 1_555 1_555
O9_5 Zn1_14 1_555 1_555
O10_2 C20_5 1_555 1_555
C19_5 O9_5 1_555 1_555
C20_5 O17_5 1_555 1_555
Zn13_3 O7_14 1_555 1_555
Zn19 O17_5 1_555 1_555
O16_5 C19_5 1_555 1_555
C24_5 C19_5 1_555 1_555
C25_5 C20_5 1_555 1_555
O21_5 C39_5 1_555 1_555
O22_5 C40_5 1_555 1_555
C29_5 C24_5 1_555 1_555
C30_5 C25_5 1_555 1_555
H14_5 C29_5 1_555 1_555
H15_5 C30_5 1_555 1_555
O26_5 C61_5 1_555 1_555
O27_5 C62_5 1_555 1_555
C34_5 C29_5 1_555 1_555
C35_5 C30_5 1_555 1_555
H19_5 C34_5 1_555 1_555
H20_5 C35_5 1_555 1_555
O36_2 C96_5 1_555 1_555
O39_3 C97_5 1_555 1_555
C39_5 C34_5 1_555 1_555
C40_5 C35_5 1_555 1_555
O49_2 C96_5 1_555 1_555
O48_3 C97_5 1_555 1_555
C44_5 C39_5 1_555 1_555
C45_5 C40_5 1_555 1_555
H24_5 C44_5 1_555 1_555
H25_5 C45_5 1_555 1_555
O53_2 Zn4_2 1_555 1_555
C49_5 C24_5 1_555 1_555
C50_5 C25_5 1_555 1_555
H29_5 C49_5 1_555 1_555
H30_5 C50_5 1_555 1_555
C54_5 O21_5 1_555 1_555
C55_5 O22_5 1_555 1_555
H34_5 C54_5 1_555 1_555
H35_5 C55_5 1_555 1_555
H39_5 C54_5 1_555 1_555
H40_5 C55_5 1_555 1_555
C58_6 C54_5 1_555 1_555
C61_5 C58_6 1_555 1_555
C62_5 C58_6 1_555 1_555
H44_5 C61_5 1_555 1_555
H45_5 C62_5 1_555 1_555
H49_5 C61_5 1_555 1_555
H50_5 C62_5 1_555 1_555
C66_5 O26_5 1_555 1_555
C67_5 O27_5 1_555 1_555
C71_5 C66_5 1_555 1_555
C72_5 C67_5 1_555 1_555
H54_5 C71_5 1_555 1_555
H55_5 C72_5 1_555 1_555
C76_5 C71_5 1_555 1_555
C77_5 C72_5 1_555 1_555
H59_5 C76_5 1_555 1_555
H60_5 C77_5 1_555 1_555
C81_5 C76_5 1_555 1_555
C82_5 C77_5 1_555 1_555
C86_5 C81_5 1_555 1_555
C87_5 C82_5 1_555 1_555
H64_5 C86_5 1_555 1_555
H65_5 C87_5 1_555 1_555
C91_5 C66_5 1_555 1_555
C92_5 C67_5 1_555 1_555
H69_5 C91_5 1_555 1_555
H70_5 C92_5 1_555 1_555
C96_5 C81_5 1_555 1_555
C97_5 C82_5 1_555 1_555
Zn13_3 O16_5 1_555 1_555
Zn19 O53_2 1_555 1_555
C44_5 C49_5 1_555 1_555
C45_5 C50_5 1_555 1_555
C55_5 C58_6 1_555 1_555
C86_5 C91_5 1_555 1_555
C87_5 C92_5 1_555 1_555
O7_15 Zn1_15 1_555 1_555
Zn4_2 O12_2 1_555 1_555
O11_5 Zn1_15 1_555 1_555
O12_2 C22_5 1_555 1_555
C21_5 O11_5 1_555 1_555
C22_5 O19_5 1_555 1_555
Zn22_2 O7_15 1_555 1_555
Zn20 O19_5 1_555 1_555
O18_5 C21_5 1_555 1_555
C26_5 C21_5 1_555 1_555
C27_5 C22_5 1_555 1_555
O23_5 C41_5 1_555 1_555
O24_5 C42_5 1_555 1_555
C32_5 C27_5 1_555 1_555
H17_5 C32_5 1_555 1_555
C37_5 C32_5 1_555 1_555
H22_5 C37_5 1_555 1_555
C42_5 C37_5 1_555 1_555
C46_5 C41_5 1_555 1_555
C47_5 C42_5 1_555 1_555
H26_5 C46_5 1_555 1_555
H27_5 C47_5 1_555 1_555
C51_5 C26_5 1_555 1_555
C52_5 C27_5 1_555 1_555
H31_5 C51_5 1_555 1_555
H32_5 C52_5 1_555 1_555
C57_5 O24_5 1_555 1_555
H37_5 C57_5 1_555 1_555
H42_5 C57_5 1_555 1_555
Zn22_2 O18_5 1_555 1_555
Zn20 O53_2 1_555 1_555
C46_5 C51_5 1_555 1_555
C47_5 C52_5 1_555 1_555
H1_5 C3_5 1_555 1_555
O4_5 C10_5 1_555 1_555
C4_5 C3_5 1_555 1_555
H2_5 C4_5 1_555 1_555
O40_2 C17_5 1_555 1_555
O47_2 C17_5 1_555 1_555
O7_16 Zn1_16 1_555 1_555
H5_5 C8_5 1_555 1_555
C9_6 C8_5 1_555 1_555
C10_5 C9_6 1_555 1_555
H7_5 C10_5 1_555 1_555
H8_5 C10_5 1_555 1_555
C11_5 O4_5 1_555 1_555
C12_5 C11_5 1_555 1_555
H9_5 C12_5 1_555 1_555
C13_5 C12_5 1_555 1_555
H10_5 C13_5 1_555 1_555
C14_5 C13_5 1_555 1_555
C15_5 C14_5 1_555 1_555
H11_5 C15_5 1_555 1_555
C16_5 C11_5 1_555 1_555
H12_5 C16_5 1_555 1_555
C17_5 C14_5 1_555 1_555
O25_5 C60_5 1_555 1_555
O37_3 C95_5 1_555 1_555
O46_3 C95_5 1_555 1_555
C60_5 C9_6 1_555 1_555
H43_5 C60_5 1_555 1_555
H48_5 C60_5 1_555 1_555
C65_5 O25_5 1_555 1_555
C70_5 C65_5 1_555 1_555
H53_5 C70_5 1_555 1_555
C75_5 C70_5 1_555 1_555
H58_5 C75_5 1_555 1_555
C80_5 C75_5 1_555 1_555
C85_5 C80_5 1_555 1_555
H63_5 C85_5 1_555 1_555
C90_5 C65_5 1_555 1_555
H68_5 C90_5 1_555 1_555
C95_5 C80_5 1_555 1_555
C15_5 C16_5 1_555 1_555
C85_5 C90_5 1_555 1_555
Zn1_17 O1_5 1_555 1_555
O1_5 C1_5 1_555 1_555
C1_5 O2_5 1_555 1_555
Zn21_2 O2_5 1_555 1_555
C2_5 C1_5 1_555 1_555
O3_5 C5_5 1_555 1_555
C6_5 C5_5 1_555 1_555
H3_5 C6_5 1_555 1_555
O7_17 Zn1_17 1_555 1_555
C7_5 C2_5 1_555 1_555
H4_5 C7_5 1_555 1_555
Zn4_2 O8_5 1_555 1_555
O8_5 C18_5 1_555 1_555
C18_5 O15_5 1_555 1_555
Zn12_2 O15_5 1_555 1_555
C23_5 C18_5 1_555 1_555
O20_5 C38_5 1_555 1_555
C28_5 C23_5 1_555 1_555
H13_5 C28_5 1_555 1_555
H16_5 C31_5 1_555 1_555
O28_5 C63_5 1_555 1_555
O29_5 C64_5 1_555 1_555
C33_5 C28_5 1_555 1_555
C36_5 C31_5 1_555 1_555
H18_5 C33_5 1_555 1_555
H21_5 C36_5 1_555 1_555
O38_2 C98_5 1_555 1_555
O35_3 C99_5 1_555 1_555
C38_5 C33_5 1_555 1_555
O51_2 C98_5 1_555 1_555
O50_3 C99_5 1_555 1_555
C43_5 C38_5 1_555 1_555
H23_5 C43_5 1_555 1_555
C48_5 C23_5 1_555 1_555
H28_5 C48_5 1_555 1_555
H33_5 C53_5 1_555 1_555
H36_5 C56_5 1_555 1_555
H38_5 C53_5 1_555 1_555
C59_5 C56_5 1_555 1_555
C63_5 C59_5 1_555 1_555
C64_5 C59_5 1_555 1_555
H46_5 C63_5 1_555 1_555
H47_5 C64_5 1_555 1_555
H51_5 C63_5 1_555 1_555
H52_5 C64_5 1_555 1_555
C68_5 O28_5 1_555 1_555
C69_5 O29_5 1_555 1_555
C73_5 C68_5 1_555 1_555
C74_5 C69_5 1_555 1_555
H56_5 C73_5 1_555 1_555
H57_5 C74_5 1_555 1_555
C78_5 C73_5 1_555 1_555
C79_5 C74_5 1_555 1_555
H61_5 C78_5 1_555 1_555
H62_5 C79_5 1_555 1_555
C83_5 C78_5 1_555 1_555
C84_5 C79_5 1_555 1_555
C88_5 C83_5 1_555 1_555
C89_5 C84_5 1_555 1_555
H66_5 C88_5 1_555 1_555
H67_5 C89_5 1_555 1_555
C93_5 C68_5 1_555 1_555
C94_5 C69_5 1_555 1_555
H71_5 C93_5 1_555 1_555
H72_5 C94_5 1_555 1_555
C98_5 C83_5 1_555 1_555
C99_5 C84_5 1_555 1_555
Zn21_2 O7_17 1_555 1_555
C6_5 C7_5 1_555 1_555
Zn12_2 O53_2 1_555 1_555
O20_5 C53_5 1_555 1_555
C43_5 C48_5 1_555 1_555
C88_5 C93_5 1_555 1_555
C89_5 C94_5 1_555 1_555
Zn4_3 O10_3 1_555 1_555
O10_3 C20_6 1_555 1_555
C20_6 O17_6 1_555 1_555
Zn13 O17_6 1_555 1_555
C25_6 C20_6 1_555 1_555
O22_6 C40_6 1_555 1_555
C30_6 C25_6 1_555 1_555
H15_6 C30_6 1_555 1_555
C35_6 C30_6 1_555 1_555
H20_6 C35_6 1_555 1_555
C40_6 C35_6 1_555 1_555
O48 C96_6 1_555 1_555
C45_6 C40_6 1_555 1_555
H25_6 C45_6 1_555 1_555
O53_3 Zn4_3 1_555 1_555
C50_6 C25_6 1_555 1_555
H30_6 C50_6 1_555 1_555
C55_6 O22_6 1_555 1_555
H35_6 C55_6 1_555 1_555
H40_6 C55_6 1_555 1_555
C62_6 C58_7 1_555 1_555
H45_6 C62_6 1_555 1_555
H50_6 C62_6 1_555 1_555
C66_6 O26_6 1_555 1_555
H55_6 C72_6 1_555 1_555
C77_6 C72_6 1_555 1_555
H60_6 C77_6 1_555 1_555
C86_6 C81_6 1_555 1_555
H64_6 C86_6 1_555 1_555
C91_6 C66_6 1_555 1_555
H69_6 C91_6 1_555 1_555
C96_6 C81_6 1_555 1_555
Zn13 O53_3 1_555 1_555
C45_6 C50_6 1_555 1_555
C55_6 C58_7 1_555 1_555
C86_6 C91_6 1_555 1_555
Zn1_18 O1_6 1_555 1_555
O1_6 C1_6 1_555 1_555
C1_6 O2_6 1_555 1_555
Zn21 O2_6 1_555 1_555
C2_6 C1_6 1_555 1_555
O3_6 C5_6 1_555 1_555
C3_6 C2_6 1_555 1_555
H1_6 C3_6 1_555 1_555
C4_6 C3_6 1_555 1_555
H2_6 C4_6 1_555 1_555
C5_6 C4_6 1_555 1_555
C6_6 C5_6 1_555 1_555
H3_6 C6_6 1_555 1_555
O7_18 Zn1_18 1_555 1_555
C7_6 C2_6 1_555 1_555
H4_6 C7_6 1_555 1_555
C8_6 O3_6 1_555 1_555
H5_6 C8_6 1_555 1_555
H6_6 C8_6 1_555 1_555
C9_7 C8_6 1_555 1_555
C10_6 C9_7 1_555 1_555
H7_6 C10_6 1_555 1_555
H8_6 C10_6 1_555 1_555
H9_6 C12_6 1_555 1_555
C13_6 C12_6 1_555 1_555
H10_6 C13_6 1_555 1_555
Zn4_3 O12_3 1_555 1_555
O9_6 Zn1_18 1_555 1_555
O11_6 Zn1_18 1_555 1_555
O12_3 C22_6 1_555 1_555
C19_6 O9_6 1_555 1_555
C21_6 O11_6 1_555 1_555
C22_6 O19_6 1_555 1_555
Zn13_2 O7_18 1_555 1_555
Zn22 O7_18 1_555 1_555
Zn14 O19_6 1_555 1_555
O16_6 C19_6 1_555 1_555
O18_6 C21_6 1_555 1_555
C24_6 C19_6 1_555 1_555
C26_6 C21_6 1_555 1_555
C27_6 C22_6 1_555 1_555
O21_6 C39_6 1_555 1_555
O23_6 C41_6 1_555 1_555
O24_6 C42_6 1_555 1_555
C29_6 C24_6 1_555 1_555
C31_6 C26_6 1_555 1_555
C32_6 C27_6 1_555 1_555
H14_6 C29_6 1_555 1_555
H16_6 C31_6 1_555 1_555
H17_6 C32_6 1_555 1_555
O28_6 C63_6 1_555 1_555
O29_6 C64_6 1_555 1_555
C34_6 C29_6 1_555 1_555
C36_6 C31_6 1_555 1_555
C37_6 C32_6 1_555 1_555
H19_6 C34_6 1_555 1_555
H21_6 C36_6 1_555 1_555
H22_6 C37_6 1_555 1_555
O37 C98_6 1_555 1_555
O35_2 C99_6 1_555 1_555
C39_6 C34_6 1_555 1_555
C41_6 C36_6 1_555 1_555
C42_6 C37_6 1_555 1_555
O46_2 C95_6 1_555 1_555
O48_2 C97_6 1_555 1_555
O46 C98_6 1_555 1_555
O50_2 C99_6 1_555 1_555
C44_6 C39_6 1_555 1_555
C46_6 C41_6 1_555 1_555
C47_6 C42_6 1_555 1_555
H24_6 C44_6 1_555 1_555
H26_6 C46_6 1_555 1_555
H27_6 C47_6 1_555 1_555
C49_6 C24_6 1_555 1_555
C51_6 C26_6 1_555 1_555
C52_6 C27_6 1_555 1_555
H29_6 C49_6 1_555 1_555
H31_6 C51_6 1_555 1_555
H32_6 C52_6 1_555 1_555
C54_6 O21_6 1_555 1_555
C56_6 O23_6 1_555 1_555
C57_6 O24_6 1_555 1_555
H34_6 C54_6 1_555 1_555
H36_6 C56_6 1_555 1_555
H37_6 C57_6 1_555 1_555
H39_6 C54_6 1_555 1_555
H41_6 C56_6 1_555 1_555
H42_6 C57_6 1_555 1_555
C58_8 C54_6 1_555 1_555
C59_6 C56_6 1_555 1_555
C61_6 C58_8 1_555 1_555
C63_6 C59_6 1_555 1_555
C64_6 C59_6 1_555 1_555
H44_6 C61_6 1_555 1_555
H46_6 C63_6 1_555 1_555
H47_6 C64_6 1_555 1_555
H49_6 C61_6 1_555 1_555
H51_6 C63_6 1_555 1_555
H52_6 C64_6 1_555 1_555
C65_6 O25_6 1_555 1_555
C67_6 O27_6 1_555 1_555
C68_6 O28_6 1_555 1_555
C69_6 O29_6 1_555 1_555
C73_6 C68_6 1_555 1_555
C74_6 C69_6 1_555 1_555
H54_6 C71_6 1_555 1_555
H56_6 C73_6 1_555 1_555
H57_6 C74_6 1_555 1_555
C76_6 C71_6 1_555 1_555
C78_6 C73_6 1_555 1_555
C79_6 C74_6 1_555 1_555
H59_6 C76_6 1_555 1_555
H61_6 C78_6 1_555 1_555
H62_6 C79_6 1_555 1_555
C83_6 C78_6 1_555 1_555
C84_6 C79_6 1_555 1_555
C85_6 C80_6 1_555 1_555
C87_6 C82_6 1_555 1_555
C88_6 C83_6 1_555 1_555
C89_6 C84_6 1_555 1_555
H63_6 C85_6 1_555 1_555
H65_6 C87_6 1_555 1_555
H66_6 C88_6 1_555 1_555
H67_6 C89_6 1_555 1_555
C90_6 C65_6 1_555 1_555
C92_6 C67_6 1_555 1_555
C93_6 C68_6 1_555 1_555
C94_6 C69_6 1_555 1_555
H68_6 C90_6 1_555 1_555
H70_6 C92_6 1_555 1_555
H71_6 C93_6 1_555 1_555
H72_6 C94_6 1_555 1_555
C95_6 C80_6 1_555 1_555
C97_6 C82_6 1_555 1_555
C98_6 C83_6 1_555 1_555
C99_6 C84_6 1_555 1_555
Zn21 O7_18 1_555 1_555
C6_6 C7_6 1_555 1_555
Zn13_2 O16_6 1_555 1_555
Zn22 O18_6 1_555 1_555
Zn14 O53_3 1_555 1_555
C44_6 C49_6 1_555 1_555
C46_6 C51_6 1_555 1_555
C47_6 C52_6 1_555 1_555
C57_6 C59_6 1_555 1_555
C85_6 C90_6 1_555 1_555
C87_6 C92_6 1_555 1_555
C88_6 C93_6 1_555 1_555
C89_6 C94_6 1_555 1_555
O50 C17_6 1_555 1_555
C11_6 O4_6 1_555 1_555
C15_6 C14_6 1_555 1_555
H11_6 C15_6 1_555 1_555
C16_6 C11_6 1_555 1_555
H12_6 C16_6 1_555 1_555
C17_6 C14_6 1_555 1_555
Zn4_3 O8_6 1_555 1_555
O8_6 C18_6 1_555 1_555
C18_6 O15_6 1_555 1_555
Zn17 O15_6 1_555 1_555
C23_6 C18_6 1_555 1_555
O20_6 C38_6 1_555 1_555
C28_6 C23_6 1_555 1_555
H13_6 C28_6 1_555 1_555
C33_6 C28_6 1_555 1_555
H18_6 C33_6 1_555 1_555
C38_6 C33_6 1_555 1_555
C43_6 C38_6 1_555 1_555
H23_6 C43_6 1_555 1_555
C48_6 C23_6 1_555 1_555
H28_6 C48_6 1_555 1_555
C53_6 C9_8 1_555 1_555
H33_6 C53_6 1_555 1_555
H38_6 C53_6 1_555 1_555
C60_6 C9_8 1_555 1_555
H43_6 C60_6 1_555 1_555
H48_6 C60_6 1_555 1_555
H53_6 C70_6 1_555 1_555
C75_6 C70_6 1_555 1_555
H58_6 C75_6 1_555 1_555
C15_6 C16_6 1_555 1_555
Zn17 O53_3 1_555 1_555
O20_6 C53_6 1_555 1_555
C43_6 C48_6 1_555 1_555

#END
