
###############################################################################
#
# This file contains modified crystal structure data generated from the
# MOF subset of the Cambridge Structural Database (CSD) v543 
# hosted by the Cambridge Crystallographic Data Centre (CCDC).
#
# This work is licensed under the Creative Commons
# Attribution-NonCommercial-ShareAlike 4.0 International License.
# To view a copy of this license, visit
# http://creativecommons.org/licenses/by-nc-sa/4.0/
# or send a letter to
# Creative Commons, PO Box 1866, Mountain View, CA 94042, USA.
#
# CIF created using the CSD Python API on 29 September 2022
# The structure has been converted into the P1 space group
# The structure has a 3D framework
# The original CSD entry WAGYIQ is in the rhombohedral crystal system
# The framework has been calculated to contain at least 10.0% void space
# The void calculation uses a probe of radius 1.32A, grid spacing 0.4
# H atom positions have been added when not included in the experimental data
#
###############################################################################

data_WAGYIQ
_chemical_formula_moiety         '(C270 H180 Cu18 N36 O82)n'
_symmetry_cell_setting           triclinic
_symmetry_space_group_name_H-M   'P 1'
_symmetry_Int_Tables_number      1
_space_group_name_Hall           'P 1'
loop_
_symmetry_equiv_pos_site_id
_symmetry_equiv_pos_as_xyz
1 x,y,z
_cell_length_a                   20.9862(6)
_cell_length_b                   20.9862(6)
_cell_length_c                   22.0154(9)
_cell_angle_alpha                90
_cell_angle_beta                 90
_cell_angle_gamma                120
_cell_volume                     8397.01
loop_
_atom_site_label
_atom_site_type_symbol
_atom_site_fract_x
_atom_site_fract_y
_atom_site_fract_z
C1 C 0.2213(4) 0.0622(3) 0.8620(3)
H1 H 0.2016 0.0786 0.8321
C2 C 0.2832(4) 0.1108(3) 0.8941(3)
H2 H 0.3052 0.1609 0.8861
C3 C 0.3140(4) 0.0858(3) 0.9391(3)
H3 H 0.3562 0.1199 0.9596
C4 C 0.2830(3) 0.0125(3) 0.9532(2)
Cu1 Cu 0.07101(3) 0.53933(3) 0.01095(3)
O1 O 0.1881(2) 0.6037(3) 0.0209(3)
O6 O 0.0559(2) 0.4559(2) 0.06205(17)
O8 O 0.04587(19) 0.57956(27) 0.08107(15)
H9 H 0.201344 0.65177 0.0397109
H10 H 0.205497 0.577068 0.0472415
C10 C 0.9643(2) 0.7027(3) 0.8112(2)
C11 C 0.9600(3) 0.6456(3) 0.8466(2)
H6 H 0.9230 0.5974 0.8396
C15 C 0.9136(2) 0.6866(3) 0.7584(2)
O2 O 0.9441(2) 0.5441(2) 0.93795(17)
O3 O 0.9227(2) 0.7419(2) 0.72734(17)
O5 O 0.86703(19) 0.62080(19) 0.74774(15)
Cu2 Cu 0.80165(4) 0.59566(3) 0.67762(3)
Cu3 Cu 0.92899(3) 0.46067(3) 0.98905(3)
Cu4 Cu 0.86501(4) 0.73768(3) 0.65572(3)
Cu1_2 Cu 0.46067(3) 0.53168(4) 0.01095(3)
O1_2 O 0.3963(3) 0.5844(4) 0.0209(3)
O6_2 O 0.5441(2) 0.6000(3) 0.06205(17)
O8_2 O 0.42044(27) 0.46630(33) 0.08107(15)
H9_2 H 0.34823 0.549574 0.0397109
H10_2 H 0.422932 0.62843 0.0472415
H4 H 0.0039 0.3072 0.9826
C5 C 0.0364(3) 0.2562(4) 0.9212(2)
C6 C 0.0129(3) 0.2021(4) 0.8762(2)
C7 C 0.1326(3) 0.2583(4) 0.8812(2)
C8 C 0.2091(3) 0.2783(4) 0.8692(2)
C9 C 0.2246(3) 0.2424(4) 0.8229(2)
H5 H 0.1866 0.2060 0.8001
C10_2 C 0.2973(3) 0.2616(4) 0.8112(2)
C11_2 C 0.3544(3) 0.3144(4) 0.8466(2)
H6_2 H 0.4026 0.3256 0.8396
C12 C 0.3388(3) 0.3501(4) 0.8923(2)
C13 C 0.2668(3) 0.3338(4) 0.9025(2)
H7 H 0.2571 0.3600 0.9315
C14 C 0.3992(3) 0.4056(4) 0.93197(19)
C15_2 C 0.3134(3) 0.2270(4) 0.7584(2)
N1 N 0.0745(2) 0.2045(4) 0.8514(2)
N2 N 0.1126(2) 0.2911(3) 0.92373(18)
H8 H 0.1413 0.3265 0.9475
O2_2 O 0.4559(2) 0.4000(3) 0.93795(17)
O3_2 O 0.2581(2) 0.1808(3) 0.72734(17)
O4 O 0.38819(19) 0.45249(28) 0.95806(15)
O5_2 O 0.37920(19) 0.24623(27) 0.74774(15)
Cu2_2 Cu 0.40434(3) 0.20600(5) 0.67762(3)
Cu3_2 Cu 0.53933(3) 0.46832(4) 0.98905(3)
Cu4_2 Cu 0.26232(3) 0.12734(5) 0.65572(3)
O7 O 0.5141(3) 0.5894(4) 0.93933(17)
C10_3 C 0.7384(4) 0.0357(2) 0.8112(2)
C11_3 C 0.6856(4) 0.0400(3) 0.8466(2)
H6_3 H 0.6744 0.0770 0.8396
C15_3 C 0.7730(4) 0.0864(2) 0.7584(2)
O2_3 O 0.6000(3) 0.0559(2) 0.93795(17)
O3_3 O 0.8192(3) 0.0773(2) 0.72734(17)
O5_3 O 0.75377(27) 0.13297(19) 0.74774(15)
Cu2_3 Cu 0.79400(5) 0.19835(4) 0.67762(3)
Cu3_3 Cu 0.53168(4) 0.07101(3) 0.98905(3)
Cu4_3 Cu 0.87266(5) 0.13499(4) 0.65572(3)
Cu1_3 Cu 0.46832(4) 0.92899(3) 0.01095(3)
O1_3 O 0.4156(4) 0.8119(2) 0.0209(3)
O6_3 O 0.4000(3) 0.9441(2) 0.06205(17)
O8_3 O 0.53370(33) 0.95413(19) 0.08107(15)
H9_3 H 0.450426 0.798656 0.0397109
H10_3 H 0.37157 0.794503 0.0472415
Cu1_4 Cu 0.73768(3) 0.87266(3) 0.34428(3)
C11_4 C 0.6267(3) 0.9789(3) 0.1799(2)
H6_4 H 0.5897 0.9307 0.1729
C12_2 C 0.6780(3) 0.9945(3) 0.2256(2)
C14_2 C 0.6731(3) 0.9341(3) 0.26530(19)
O1_4 O 0.8548(2) 0.9370(3) 0.3542(3)
O2_4 O 0.6108(2) 0.8774(2) 0.27128(17)
O4_2 O 0.7310(2) 0.94514(19) 0.29139(15)
Cu3_4 Cu 0.59566(3) 0.79400(3) 0.32238(3)
O6_4 O 0.7226(2) 0.7892(2) 0.39538(17)
O7_2 O 0.7419(2) 0.8192(3) 0.27266(17)
O8_4 O 0.71253(19) 0.91290(27) 0.41441(15)
H9_4 H 0.86801 0.985103 0.373044
H10_4 H 0.872164 0.910401 0.380575
Cu1_5 Cu 0.12734(3) 0.86501(4) 0.34428(3)
C11_5 C 0.0211(3) 0.6477(4) 0.1799(2)
H6_5 H 0.0693 0.6589 0.1729
C12_3 C 0.0055(3) 0.6834(4) 0.2256(2)
C14_3 C 0.0659(3) 0.7389(4) 0.26530(19)
O1_5 O 0.0630(3) 0.9177(4) 0.3542(3)
O2_5 O 0.1226(2) 0.7333(3) 0.27128(17)
O4_3 O 0.05486(19) 0.78582(28) 0.29139(15)
Cu3_5 Cu 0.20600(3) 0.80165(4) 0.32238(3)
O6_5 O 0.2108(2) 0.9333(3) 0.39538(17)
O7_3 O 0.1808(3) 0.9227(4) 0.27266(17)
O8_5 O 0.08710(27) 0.79964(33) 0.41441(15)
H9_5 H 0.014897 0.882907 0.373044
H10_5 H 0.089599 0.961763 0.380575
Cu1_6 Cu 0.13499(4) 0.26232(3) 0.34428(3)
C1_2 C 0.5076(5) 0.1120(4) 0.1953(3)
H1_2 H 0.5437 0.1317 0.1654
C2_2 C 0.4943(5) 0.0501(4) 0.2274(3)
H2_2 H 0.5224 0.0281 0.2194
C3_2 C 0.4385(5) 0.0193(4) 0.2724(3)
C4_2 C 0.3962(4) 0.0503(3) 0.2865(2)
H4_2 H 0.3595 0.0300 0.3159
C5_2 C 0.4105(4) 0.1135(3) 0.2545(2)
C6_2 C 0.4646(4) 0.1441(3) 0.2095(2)
C7_2 C 0.4084(4) 0.2076(3) 0.2145(2)
C8_2 C 0.3884(4) 0.2641(3) 0.2025(2)
C9_2 C 0.4243(4) 0.3155(3) 0.1562(2)
H5_2 H 0.4607 0.3139 0.1334
C10_4 C 0.4051(4) 0.3690(2) 0.1445(2)
C11_6 C 0.3523(4) 0.3733(3) 0.1799(2)
H6_6 H 0.3411 0.4103 0.1729
C12_4 C 0.3166(4) 0.3220(3) 0.2256(2)
C13_2 C 0.3329(4) 0.2663(3) 0.2358(2)
H7_2 H 0.3067 0.2304 0.2648
C14_4 C 0.2611(4) 0.3269(3) 0.26530(19)
C15_4 C 0.4397(4) 0.4197(2) 0.0917(2)
N1_2 N 0.4622(4) 0.2033(3) 0.1847(2)
N2_2 N 0.3756(3) 0.1548(2) 0.25706(18)
H8_2 H 0.3402 0.1481 0.2808
O1_6 O 0.0823(4) 0.1452(2) 0.3542(3)
O2_6 O 0.2667(3) 0.3892(2) 0.27128(17)
O3_4 O 0.4859(3) 0.4106(2) 0.06067(17)
O4_4 O 0.21418(28) 0.2690(2) 0.29139(15)
Cu3_6 Cu 0.19835(4) 0.40434(3) 0.32238(3)
O6_6 O 0.0667(3) 0.2774(2) 0.39538(17)
O7_4 O 0.0773(4) 0.2581(2) 0.27266(17)
O8_6 O 0.20036(33) 0.28747(19) 0.41441(15)
H9_6 H 0.117093 0.13199 0.373044
H10_6 H 0.038237 0.127836 0.380575
C1_3 C 0.5546(4) 0.7289(3) 0.5287(3)
H1_3 H 0.5349 0.7453 0.4988
C2_3 C 0.6165(4) 0.7775(3) 0.5608(3)
H2_3 H 0.6385 0.8276 0.5528
C3_3 C 0.6473(4) 0.7525(3) 0.6058(3)
H3_2 H 0.6895 0.7866 0.6263
C4_3 C 0.6163(3) 0.6792(3) 0.6199(2)
H4_3 H 0.6366 0.6628 0.6493
C5_3 C 0.5531(3) 0.6303(3) 0.5879(2)
C6_3 C 0.5225(3) 0.6538(3) 0.5429(2)
C7_3 C 0.4590(3) 0.5341(3) 0.5479(2)
C8_3 C 0.4025(3) 0.4576(3) 0.5359(2)
C9_3 C 0.3511(3) 0.4421(3) 0.4896(2)
H5_3 H 0.3527 0.4801 0.4668
C10_5 C 0.2976(2) 0.3694(3) 0.4779(2)
C11_7 C 0.2933(3) 0.3123(3) 0.5133(2)
H6_7 H 0.2563 0.2641 0.5063
C12_5 C 0.3446(3) 0.3279(3) 0.5590(2)
C13_3 C 0.4003(3) 0.3999(3) 0.5692(2)
H7_3 H 0.4362 0.4096 0.5982
C14_5 C 0.3397(3) 0.2675(3) 0.59864(19)
C15_5 C 0.2469(2) 0.3533(3) 0.4251(2)
N1_3 N 0.4633(3) 0.5922(2) 0.5181(2)
N2_3 N 0.5118(2) 0.5541(2) 0.59040(18)
H8_3 H 0.5185 0.5254 0.6142
O1_7 O 0.5214(2) 0.2704(3) 0.6876(3)
O2_7 O 0.2774(2) 0.2108(2) 0.60462(17)
O3_5 O 0.2560(2) 0.4086(2) 0.39401(17)
O4_5 O 0.3976(2) 0.27848(19) 0.62473(15)
O6_7 O 0.3892(2) 0.1226(2) 0.72872(17)
O7_5 O 0.4086(2) 0.1525(3) 0.60599(17)
H9_7 H 0.534677 0.318436 0.706378
H10_7 H 0.538831 0.243734 0.713908
C12_6 C 0.6721(3) 0.0168(4) 0.5590(2)
C13_4 C 0.6001(3) 0.0005(4) 0.5692(2)
H7_4 H 0.5904 0.0267 0.5982
C14_6 C 0.7325(3) 0.0723(4) 0.59864(19)
O1_8 O 0.7296(3) 0.2511(4) 0.6876(3)
O2_8 O 0.7892(2) 0.0667(3) 0.60462(17)
O4_6 O 0.72152(19) 0.11916(28) 0.62473(15)
O6_8 O 0.8774(2) 0.2667(3) 0.72872(17)
O7_6 O 0.8475(3) 0.2560(4) 0.60599(17)
H9_8 H 0.681564 0.216241 0.706378
H10_8 H 0.756266 0.295096 0.713908
C1_4 C 0.2711(3) 0.8258(5) 0.5287(3)
H1_4 H 0.2547 0.7897 0.4988
C2_4 C 0.2225(3) 0.8391(5) 0.5608(3)
H2_4 H 0.1724 0.8110 0.5528
C3_4 C 0.2475(3) 0.8949(5) 0.6058(3)
H3_3 H 0.2134 0.9030 0.6263
C4_4 C 0.3208(3) 0.9372(4) 0.6199(2)
H4_4 H 0.3372 0.9739 0.6493
C5_4 C 0.3697(3) 0.9229(4) 0.5879(2)
C6_4 C 0.3462(3) 0.8688(4) 0.5429(2)
C7_4 C 0.4659(3) 0.9250(4) 0.5479(2)
C8_4 C 0.5424(3) 0.9450(4) 0.5359(2)
C9_4 C 0.5579(3) 0.9091(4) 0.4896(2)
H5_4 H 0.5199 0.8727 0.4668
C10_6 C 0.6306(3) 0.9283(4) 0.4779(2)
C11_8 C 0.6877(3) 0.9811(4) 0.5133(2)
H6_8 H 0.7359 0.9923 0.5063
C15_6 C 0.6467(3) 0.8937(4) 0.4251(2)
N1_4 N 0.4078(2) 0.8712(4) 0.5181(2)
N2_4 N 0.4459(2) 0.9578(3) 0.59040(18)
H8_4 H 0.4746 0.9932 0.6142
O3_6 O 0.5914(2) 0.8475(3) 0.39401(17)
C1_5 C 0.1742(5) 0.4454(4) 0.5287(3)
H1_5 H 0.2103 0.4651 0.4988
C2_5 C 0.1609(5) 0.3835(4) 0.5608(3)
H2_5 H 0.1890 0.3615 0.5528
C3_5 C 0.1051(5) 0.3527(4) 0.6058(3)
H3_4 H 0.0970 0.3105 0.6263
C4_5 C 0.0628(4) 0.3837(3) 0.6199(2)
H4_5 H 0.0261 0.3634 0.6493
C5_5 C 0.0771(4) 0.4469(3) 0.5879(2)
C6_5 C 0.1312(4) 0.4775(3) 0.5429(2)
C7_5 C 0.0750(4) 0.5410(3) 0.5479(2)
C8_5 C 0.0550(4) 0.5975(3) 0.5359(2)
C9_5 C 0.0909(4) 0.6489(3) 0.4896(2)
H5_5 H 0.1273 0.6473 0.4668
C10_7 C 0.0717(4) 0.7024(2) 0.4779(2)
C11_9 C 0.0189(4) 0.7067(3) 0.5133(2)
H6_9 H 0.0077 0.7437 0.5063
C15_7 C 0.1063(4) 0.7531(2) 0.4251(2)
N1_5 N 0.1288(4) 0.5367(3) 0.5181(2)
N2_5 N 0.0422(3) 0.4882(2) 0.59040(18)
H8_5 H 0.0068 0.4815 0.6142
O3_7 O 0.1525(3) 0.7440(2) 0.39401(17)
C12_7 C 0.9832(4) 0.6554(3) 0.5590(2)
C13_5 C 0.9995(4) 0.5997(3) 0.5692(2)
H7_5 H 0.9733 0.5638 0.5982
C14_7 C 0.9277(4) 0.6603(3) 0.59864(19)
O1_9 O 0.7489(4) 0.4786(2) 0.6876(3)
O2_9 O 0.9333(3) 0.7226(2) 0.60462(17)
O4_7 O 0.88084(28) 0.6024(2) 0.62473(15)
O6_9 O 0.7333(3) 0.6108(2) 0.72872(17)
O7_7 O 0.7440(4) 0.5914(2) 0.60599(17)
H9_9 H 0.783759 0.465323 0.706378
H10_9 H 0.704904 0.461169 0.713908
C10_8 C 0.0357(2) 0.2973(3) 0.1888(2)
C11_10 C 0.0400(3) 0.3544(3) 0.1534(2)
H6_10 H 0.0770 0.4026 0.1604
C15_8 C 0.0864(2) 0.3134(3) 0.2416(2)
O5_4 O 0.13297(19) 0.37920(19) 0.25226(15)
O1_10 O 0.8119(2) 0.3963(3) 0.9791(3)
O8_7 O 0.95413(19) 0.42044(27) 0.91893(15)
H9_10 H 0.798656 0.34823 0.960289
H10_10 H 0.794503 0.422932 0.952759
H4_6 H 0.9961 0.6928 0.0174
C5_6 C 0.9636(3) 0.7438(4) 0.0788(2)
C6_6 C 0.9871(3) 0.7979(4) 0.1238(2)
C7_6 C 0.8674(3) 0.7417(4) 0.1188(2)
C8_6 C 0.7909(3) 0.7217(4) 0.1308(2)
C9_6 C 0.7754(3) 0.7576(4) 0.1771(2)
H5_6 H 0.8134 0.7940 0.1999
C10_9 C 0.7027(3) 0.7384(4) 0.1888(2)
C11_11 C 0.6456(3) 0.6856(4) 0.1534(2)
H6_11 H 0.5974 0.6744 0.1604
C12_8 C 0.6612(3) 0.6499(4) 0.1077(2)
C13_6 C 0.7332(3) 0.6662(4) 0.0975(2)
H7_6 H 0.7429 0.6400 0.0685
C14_8 C 0.6008(3) 0.5944(4) 0.06803(19)
C15_9 C 0.6866(3) 0.7730(4) 0.2416(2)
N1_6 N 0.9255(2) 0.7955(4) 0.1486(2)
N2_6 N 0.8874(2) 0.7089(3) 0.07627(18)
H8_6 H 0.8587 0.6735 0.0525
O4_8 O 0.61181(19) 0.54751(28) 0.04194(15)
O5_5 O 0.62080(19) 0.75377(27) 0.25226(15)
O1_11 O 0.6037(3) 0.4156(4) 0.9791(3)
O8_8 O 0.57956(27) 0.53370(33) 0.91893(15)
H9_11 H 0.65177 0.450426 0.960289
H10_11 H 0.577068 0.37157 0.952759
O1_12 O 0.5844(4) 0.1881(2) 0.9791(3)
O8_9 O 0.46630(33) 0.04587(19) 0.91893(15)
H9_12 H 0.549574 0.201344 0.960289
H10_12 H 0.62843 0.205497 0.952759
C10_10 C 0.2616(4) 0.9643(2) 0.1888(2)
C11_12 C 0.3144(4) 0.9600(3) 0.1534(2)
H6_12 H 0.3256 0.9230 0.1604
C15_10 C 0.2270(4) 0.9136(2) 0.2416(2)
O5_6 O 0.24623(27) 0.86703(19) 0.25226(15)
C11_13 C 0.3733(3) 0.0211(3) 0.8201(2)
H6_13 H 0.4103 0.0693 0.8271
C12_9 C 0.3220(3) 0.0055(3) 0.7744(2)
C14_9 C 0.3269(3) 0.0659(3) 0.73470(19)
O1_13 O 0.1452(2) 0.0630(3) 0.6458(3)
O4_9 O 0.2690(2) 0.05486(19) 0.70861(15)
O8_10 O 0.28747(19) 0.08710(27) 0.58559(15)
H9_13 H 0.13199 0.014897 0.626956
H10_13 H 0.127836 0.089599 0.619425
C11_14 C 0.9789(3) 0.3523(4) 0.8201(2)
H6_14 H 0.9307 0.3411 0.8271
C12_10 C 0.9945(3) 0.3166(4) 0.7744(2)
C14_10 C 0.9341(3) 0.2611(4) 0.73470(19)
O1_14 O 0.9370(3) 0.0823(4) 0.6458(3)
O4_10 O 0.94514(19) 0.21418(28) 0.70861(15)
O8_11 O 0.91290(27) 0.20036(33) 0.58559(15)
H9_14 H 0.985103 0.117093 0.626956
H10_14 H 0.910401 0.038237 0.619425
C1_6 C 0.4924(5) 0.8880(4) 0.8047(3)
H1_6 H 0.4563 0.8683 0.8346
C2_6 C 0.5057(5) 0.9499(4) 0.7726(3)
H2_6 H 0.4776 0.9719 0.7806
C3_6 C 0.5615(5) 0.9807(4) 0.7276(3)
C4_6 C 0.6038(4) 0.9497(3) 0.7135(2)
H4_7 H 0.6405 0.9700 0.6841
C5_7 C 0.5895(4) 0.8865(3) 0.7455(2)
C6_7 C 0.5354(4) 0.8559(3) 0.7905(2)
C7_7 C 0.5916(4) 0.7924(3) 0.7855(2)
C8_7 C 0.6116(4) 0.7359(3) 0.7975(2)
C9_7 C 0.5757(4) 0.6845(3) 0.8438(2)
H5_7 H 0.5393 0.6861 0.8666
C10_11 C 0.5949(4) 0.6310(2) 0.8555(2)
C11_15 C 0.6477(4) 0.6267(3) 0.8201(2)
H6_15 H 0.6589 0.5897 0.8271
C12_11 C 0.6834(4) 0.6780(3) 0.7744(2)
C13_7 C 0.6671(4) 0.7337(3) 0.7642(2)
H7_7 H 0.6933 0.7696 0.7352
C14_11 C 0.7389(4) 0.6731(3) 0.73470(19)
C15_11 C 0.5603(4) 0.5803(2) 0.9083(2)
N1_7 N 0.5378(4) 0.7967(3) 0.8153(2)
N2_7 N 0.6244(3) 0.8452(2) 0.74294(18)
H8_7 H 0.6598 0.8519 0.7192
O1_15 O 0.9177(4) 0.8548(2) 0.6458(3)
O4_11 O 0.78582(28) 0.7310(2) 0.70861(15)
O8_12 O 0.79964(33) 0.71253(19) 0.58559(15)
H9_15 H 0.882907 0.86801 0.626956
H10_15 H 0.961763 0.872164 0.619425
C1_7 C 0.4454(4) 0.2711(3) 0.4713(3)
H1_7 H 0.4651 0.2547 0.5012
C2_7 C 0.3835(4) 0.2225(3) 0.4392(3)
H2_7 H 0.3615 0.1724 0.4472
C3_7 C 0.3527(4) 0.2475(3) 0.3942(3)
H3_5 H 0.3105 0.2134 0.3737
C4_7 C 0.3837(3) 0.3208(3) 0.3801(2)
H4_8 H 0.3634 0.3372 0.3507
C5_8 C 0.4469(3) 0.3697(3) 0.4121(2)
C6_8 C 0.4775(3) 0.3462(3) 0.4571(2)
C7_8 C 0.5410(3) 0.4659(3) 0.4521(2)
C8_8 C 0.5975(3) 0.5424(3) 0.4641(2)
C9_8 C 0.6489(3) 0.5579(3) 0.5104(2)
H5_8 H 0.6473 0.5199 0.5332
C10_12 C 0.7024(2) 0.6306(3) 0.5221(2)
C11_16 C 0.7067(3) 0.6877(3) 0.4867(2)
H6_16 H 0.7437 0.7359 0.4937
C12_12 C 0.6554(3) 0.6721(3) 0.4410(2)
C13_8 C 0.5997(3) 0.6001(3) 0.4308(2)
H7_8 H 0.5638 0.5904 0.4018
C14_12 C 0.6603(3) 0.7325(3) 0.40136(19)
C15_12 C 0.7531(2) 0.6467(3) 0.5749(2)
N1_8 N 0.5367(3) 0.4078(2) 0.4819(2)
N2_8 N 0.4882(2) 0.4459(2) 0.40960(18)
H8_8 H 0.4815 0.4746 0.3858
O1_16 O 0.4786(2) 0.7296(3) 0.3124(3)
O4_12 O 0.6024(2) 0.72152(19) 0.37527(15)
H9_16 H 0.465323 0.681564 0.293622
H10_16 H 0.461169 0.756266 0.286092
C1_8 C 0.7289(3) 0.1742(5) 0.4713(3)
H1_8 H 0.7453 0.2103 0.5012
C2_8 C 0.7775(3) 0.1609(5) 0.4392(3)
H2_8 H 0.8276 0.1890 0.4472
C3_8 C 0.7525(3) 0.1051(5) 0.3942(3)
H3_6 H 0.7866 0.0970 0.3737
C4_8 C 0.6792(3) 0.0628(4) 0.3801(2)
H4_9 H 0.6628 0.0261 0.3507
C5_9 C 0.6303(3) 0.0771(4) 0.4121(2)
C6_9 C 0.6538(3) 0.1312(4) 0.4571(2)
C7_9 C 0.5341(3) 0.0750(4) 0.4521(2)
C8_9 C 0.4576(3) 0.0550(4) 0.4641(2)
C9_9 C 0.4421(3) 0.0909(4) 0.5104(2)
H5_9 H 0.4801 0.1273 0.5332
C10_13 C 0.3694(3) 0.0717(4) 0.5221(2)
C11_17 C 0.3123(3) 0.0189(4) 0.4867(2)
H6_17 H 0.2641 0.0077 0.4937
C15_13 C 0.3533(3) 0.1063(4) 0.5749(2)
N1_9 N 0.5922(2) 0.1288(4) 0.4819(2)
N2_9 N 0.5541(2) 0.0422(3) 0.40960(18)
H8_9 H 0.5254 0.0068 0.3858
C12_13 C 0.3279(3) 0.9832(4) 0.4410(2)
C13_9 C 0.3999(3) 0.9995(4) 0.4308(2)
H7_9 H 0.4096 0.9733 0.4018
C14_13 C 0.2675(3) 0.9277(4) 0.40136(19)
O1_17 O 0.2704(3) 0.7489(4) 0.3124(3)
O4_13 O 0.27848(19) 0.88084(28) 0.37527(15)
H9_17 H 0.318436 0.783759 0.293622
H10_17 H 0.243734 0.704904 0.286092
C12_14 C 0.0168(4) 0.3446(3) 0.4410(2)
C13_10 C 0.0005(4) 0.4003(3) 0.4308(2)
H7_10 H 0.0267 0.4362 0.4018
C14_14 C 0.0723(4) 0.3397(3) 0.40136(19)
O1_18 O 0.2511(4) 0.5214(2) 0.3124(3)
O4_14 O 0.11916(28) 0.3976(2) 0.37527(15)
H9_18 H 0.216241 0.534677 0.293622
H10_18 H 0.295096 0.538831 0.286092
C1_9 C 0.8258(5) 0.5546(4) 0.4713(3)
H1_9 H 0.7897 0.5349 0.5012
C2_9 C 0.8391(5) 0.6165(4) 0.4392(3)
H2_9 H 0.8110 0.6385 0.4472
C3_9 C 0.8949(5) 0.6473(4) 0.3942(3)
H3_7 H 0.9030 0.6895 0.3737
C4_9 C 0.9372(4) 0.6163(3) 0.3801(2)
H4_10 H 0.9739 0.6366 0.3507
C5_10 C 0.9229(4) 0.5531(3) 0.4121(2)
C6_10 C 0.8688(4) 0.5225(3) 0.4571(2)
C7_10 C 0.9250(4) 0.4590(3) 0.4521(2)
C8_10 C 0.9450(4) 0.4025(3) 0.4641(2)
C9_10 C 0.9091(4) 0.3511(3) 0.5104(2)
H5_10 H 0.8727 0.3527 0.5332
C10_14 C 0.9283(4) 0.2976(2) 0.5221(2)
C11_18 C 0.9811(4) 0.2933(3) 0.4867(2)
H6_18 H 0.9923 0.2563 0.4937
C15_14 C 0.8937(4) 0.2469(2) 0.5749(2)
N1_10 N 0.8712(4) 0.4633(3) 0.4819(2)
N2_10 N 0.9578(3) 0.5118(2) 0.40960(18)
H8_10 H 0.9932 0.5185 0.3858
H4_11 H 0.3033 0.9961 0.9826
C5_11 C 0.2198(3) 0.9636(3) 0.9212(2)
C6_11 C 0.1892(3) 0.9871(3) 0.8762(2)
C7_11 C 0.1257(3) 0.8674(3) 0.8812(2)
C8_11 C 0.0692(3) 0.7909(3) 0.8692(2)
C9_11 C 0.0178(3) 0.7754(3) 0.8229(2)
H5_11 H 0.0194 0.8134 0.8001
C12_15 C 0.0113(3) 0.6612(3) 0.8923(2)
C13_11 C 0.0670(3) 0.7332(3) 0.9025(2)
H7_11 H 0.1029 0.7429 0.9315
C14_15 C 0.0064(3) 0.6008(3) 0.93197(19)
N1_11 N 0.1300(3) 0.9255(2) 0.8514(2)
N2_11 N 0.1785(2) 0.8874(2) 0.92373(18)
H8_11 H 0.1852 0.8587 0.9475
O4_15 O 0.0643(2) 0.61181(19) 0.95806(15)
O7_8 O 0.0752(2) 0.4859(3) 0.93933(17)
C1_10 C 0.3955(3) 0.5076(5) 0.8047(3)
H1_10 H 0.4119 0.5437 0.8346
C2_10 C 0.4441(3) 0.4943(5) 0.7726(3)
H2_10 H 0.4942 0.5224 0.7806
C3_10 C 0.4191(3) 0.4385(5) 0.7276(3)
H3_8 H 0.4532 0.4304 0.7071
C4_10 C 0.3458(3) 0.3962(4) 0.7135(2)
H4_12 H 0.3294 0.3595 0.6841
C5_12 C 0.2969(3) 0.4105(4) 0.7455(2)
C6_12 C 0.3204(3) 0.4646(4) 0.7905(2)
C7_12 C 0.2007(3) 0.4084(4) 0.7855(2)
C8_12 C 0.1242(3) 0.3884(4) 0.7975(2)
C9_12 C 0.1087(3) 0.4243(4) 0.8438(2)
H5_12 H 0.1467 0.4607 0.8666
C10_15 C 0.0360(3) 0.4051(4) 0.8555(2)
C13_12 C 0.0665(3) 0.3329(4) 0.7642(2)
H7_12 H 0.0762 0.3067 0.7352
C15_15 C 0.0199(3) 0.4397(4) 0.9083(2)
N1_12 N 0.2588(2) 0.4622(4) 0.8153(2)
N2_12 N 0.2207(2) 0.3756(3) 0.74294(18)
H8_12 H 0.1920 0.3402 0.7192
C1_11 C 0.9378(3) 0.1591(5) 0.8620(3)
H1_11 H 0.9214 0.1230 0.8321
C2_11 C 0.8892(3) 0.1724(5) 0.8941(3)
H2_11 H 0.8391 0.1443 0.8861
C3_11 C 0.9142(3) 0.2282(5) 0.9391(3)
H3_9 H 0.8801 0.2363 0.9596
C4_11 C 0.9875(3) 0.2705(4) 0.9532(2)
C1_12 C 0.8409(5) 0.7787(4) 0.8620(3)
H1_12 H 0.8770 0.7984 0.8321
C2_12 C 0.8276(5) 0.7168(4) 0.8941(3)
H2_12 H 0.8557 0.6948 0.8861
C3_12 C 0.7718(5) 0.6860(4) 0.9391(3)
H3_10 H 0.7637 0.6438 0.9596
C4_12 C 0.7295(4) 0.7170(3) 0.9532(2)
H4_13 H 0.6928 0.6967 0.9826
C5_13 C 0.7438(4) 0.7802(3) 0.9212(2)
C6_13 C 0.7979(4) 0.8108(3) 0.8762(2)
C7_13 C 0.7417(4) 0.8743(3) 0.8812(2)
C8_13 C 0.7217(4) 0.9308(3) 0.8692(2)
C9_13 C 0.7576(4) 0.9822(3) 0.8229(2)
H5_13 H 0.7940 0.9806 0.8001
C12_16 C 0.6499(4) 0.9887(3) 0.8923(2)
C13_13 C 0.6662(4) 0.9330(3) 0.9025(2)
H7_13 H 0.6400 0.8971 0.9315
C14_16 C 0.5944(4) 0.9936(3) 0.93197(19)
N1_13 N 0.7955(4) 0.8700(3) 0.8514(2)
N2_13 N 0.7089(3) 0.8215(2) 0.92373(18)
H8_13 H 0.6735 0.8148 0.9475
O4_16 O 0.54751(28) 0.9357(2) 0.95806(15)
O7_9 O 0.4106(4) 0.9248(2) 0.93933(17)
C1_13 C 0.1120(4) 0.6045(3) 0.8047(3)
H1_13 H 0.1317 0.5881 0.8346
C2_13 C 0.0501(4) 0.5559(3) 0.7726(3)
H2_13 H 0.0281 0.5058 0.7806
C3_13 C 0.0193(4) 0.5809(3) 0.7276(3)
C4_13 C 0.0503(3) 0.6542(3) 0.7135(2)
H4_14 H 0.0300 0.6706 0.6841
C5_14 C 0.1135(3) 0.7031(3) 0.7455(2)
C6_14 C 0.1441(3) 0.6796(3) 0.7905(2)
C7_14 C 0.2076(3) 0.7993(3) 0.7855(2)
C8_14 C 0.2641(3) 0.8758(3) 0.7975(2)
C9_14 C 0.3155(3) 0.8913(3) 0.8438(2)
H5_14 H 0.3139 0.8533 0.8666
C10_16 C 0.3690(2) 0.9640(3) 0.8555(2)
C13_14 C 0.2663(3) 0.9335(3) 0.7642(2)
H7_14 H 0.2304 0.9238 0.7352
C15_16 C 0.4197(2) 0.9801(3) 0.9083(2)
N1_14 N 0.2033(3) 0.7412(2) 0.8153(2)
N2_14 N 0.1548(2) 0.7793(2) 0.74294(18)
H8_14 H 0.1481 0.8080 0.7192
H3_11 H 0.0229 0.4532 0.2929
C1_14 C 0.8880(4) 0.3955(3) 0.1953(3)
H1_14 H 0.8683 0.4119 0.1654
C2_14 C 0.9499(4) 0.4441(3) 0.2274(3)
H2_14 H 0.9719 0.4942 0.2194
C3_14 C 0.9807(4) 0.4191(3) 0.2724(3)
C4_14 C 0.9497(3) 0.3458(3) 0.2865(2)
H4_15 H 0.9700 0.3294 0.3159
C5_15 C 0.8865(3) 0.2969(3) 0.2545(2)
C6_15 C 0.8559(3) 0.3204(3) 0.2095(2)
C7_15 C 0.7924(3) 0.2007(3) 0.2145(2)
C8_15 C 0.7359(3) 0.1242(3) 0.2025(2)
C9_15 C 0.6845(3) 0.1087(3) 0.1562(2)
H5_15 H 0.6861 0.1467 0.1334
C10_17 C 0.6310(2) 0.0360(3) 0.1445(2)
C13_15 C 0.7337(3) 0.0665(3) 0.2358(2)
H7_15 H 0.7696 0.0762 0.2648
C15_17 C 0.5803(2) 0.0199(3) 0.0917(2)
N1_15 N 0.7967(3) 0.2588(2) 0.1847(2)
N2_15 N 0.8452(2) 0.2207(2) 0.25706(18)
H8_15 H 0.8519 0.1920 0.2808
O3_8 O 0.5894(2) 0.0752(2) 0.06067(17)
C1_15 C 0.1591(5) 0.2213(4) 0.1380(3)
H1_15 H 0.1230 0.2016 0.1679
C2_15 C 0.1724(5) 0.2832(4) 0.1059(3)
H2_15 H 0.1443 0.3052 0.1139
C3_15 C 0.2282(5) 0.3140(4) 0.0609(3)
H3_12 H 0.2363 0.3562 0.0404
C4_15 C 0.2705(4) 0.2830(3) 0.0468(2)
H4_16 H 0.3072 0.3033 0.0174
C5_16 C 0.2562(4) 0.2198(3) 0.0788(2)
C6_16 C 0.2021(4) 0.1892(3) 0.1238(2)
C7_16 C 0.2583(4) 0.1257(3) 0.1188(2)
C8_16 C 0.2783(4) 0.0692(3) 0.1308(2)
C9_16 C 0.2424(4) 0.0178(3) 0.1771(2)
H5_16 H 0.2060 0.0194 0.1999
C12_17 C 0.3501(4) 0.0113(3) 0.1077(2)
C13_16 C 0.3338(4) 0.0670(3) 0.0975(2)
H7_16 H 0.3600 0.1029 0.0685
C14_17 C 0.4056(4) 0.0064(3) 0.06803(19)
N1_16 N 0.2045(4) 0.1300(3) 0.1486(2)
N2_16 N 0.2911(3) 0.1785(2) 0.07627(18)
H8_16 H 0.3265 0.1852 0.0525
O4_17 O 0.45249(28) 0.0643(2) 0.04194(15)
C1_16 C 0.6045(3) 0.4924(5) 0.1953(3)
H1_16 H 0.5881 0.4563 0.1654
C2_16 C 0.5559(3) 0.5057(5) 0.2274(3)
H2_16 H 0.5058 0.4776 0.2194
C3_16 C 0.5809(3) 0.5615(5) 0.2724(3)
H3_13 H 0.5468 0.5696 0.2929
C4_16 C 0.6542(3) 0.6038(4) 0.2865(2)
H4_17 H 0.6706 0.6405 0.3159
C5_17 C 0.7031(3) 0.5895(4) 0.2545(2)
C6_17 C 0.6796(3) 0.5354(4) 0.2095(2)
C7_17 C 0.7993(3) 0.5916(4) 0.2145(2)
C8_17 C 0.8758(3) 0.6116(4) 0.2025(2)
C9_17 C 0.8913(3) 0.5757(4) 0.1562(2)
H5_17 H 0.8533 0.5393 0.1334
C10_18 C 0.9640(3) 0.5949(4) 0.1445(2)
C13_17 C 0.9335(3) 0.6671(4) 0.2358(2)
H7_17 H 0.9238 0.6933 0.2648
C15_18 C 0.9801(3) 0.5603(4) 0.0917(2)
N1_17 N 0.7412(2) 0.5378(4) 0.1847(2)
N2_17 N 0.7793(2) 0.6244(3) 0.25706(18)
H8_17 H 0.8080 0.6598 0.2808
O3_9 O 0.9248(2) 0.5141(3) 0.06067(17)
H4_18 H 0.6967 0.0039 0.0174
C5_18 C 0.7802(3) 0.0364(3) 0.0788(2)
C6_18 C 0.8108(3) 0.0129(3) 0.1238(2)
C7_18 C 0.8743(3) 0.1326(3) 0.1188(2)
C8_18 C 0.9308(3) 0.2091(3) 0.1308(2)
C9_18 C 0.9822(3) 0.2246(3) 0.1771(2)
H5_18 H 0.9806 0.1866 0.1999
C12_18 C 0.9887(3) 0.3388(3) 0.1077(2)
C13_18 C 0.9330(3) 0.2668(3) 0.0975(2)
H7_18 H 0.8971 0.2571 0.0685
C14_18 C 0.9936(3) 0.3992(3) 0.06803(19)
N1_18 N 0.8700(3) 0.0745(2) 0.1486(2)
N2_18 N 0.8215(2) 0.1126(2) 0.07627(18)
H8_18 H 0.8148 0.1413 0.0525
O4_18 O 0.9357(2) 0.38819(19) 0.04194(15)
H3_14 H 0.4304 0.9771 0.2929
C1_17 C 0.7787(4) 0.9378(3) 0.1380(3)
H1_17 H 0.7984 0.9214 0.1679
C2_17 C 0.7168(4) 0.8892(3) 0.1059(3)
H2_17 H 0.6948 0.8391 0.1139
C3_17 C 0.6860(4) 0.9142(3) 0.0609(3)
H3_15 H 0.6438 0.8801 0.0404
C4_17 C 0.7170(3) 0.9875(3) 0.0468(2)
C1_18 C 0.0622(3) 0.8409(5) 0.1380(3)
H1_18 H 0.0786 0.8770 0.1679
C2_18 C 0.1108(3) 0.8276(5) 0.1059(3)
H2_18 H 0.1609 0.8557 0.1139
C3_18 C 0.0858(3) 0.7718(5) 0.0609(3)
H3_16 H 0.1199 0.7637 0.0404
C4_18 C 0.0125(3) 0.7295(4) 0.0468(2)
H3_17 H 0.9771 0.5468 0.7071
H3_18 H 0.5696 0.0229 0.7071
loop_
_geom_bond_atom_site_label_1
_geom_bond_atom_site_label_2
_geom_bond_site_symmetry_1
_geom_bond_site_symmetry_2
C1 H1 1_555 1_555
C2 C1 1_555 1_555
H2 C2 1_555 1_555
C3 C2 1_555 1_555
H3 C3 1_555 1_555
C4 C3 1_555 1_555
Cu1 O1 1_555 1_555
O6 Cu1 1_555 1_555
O8 Cu1 1_555 1_555
O1 H9 1_555 1_555
O1 H10 1_555 1_555
C11 C10 1_555 1_555
H6 C11 1_555 1_555
C15 C10 1_555 1_555
O3 C15 1_555 1_555
O5 C15 1_555 1_555
Cu2 O5 1_555 1_555
Cu4 O3 1_555 1_555
O2 Cu3 1_555 1_555
Cu2 Cu4 1_555 1_555
Cu1_2 O1_2 1_555 1_555
O6_2 Cu1_2 1_555 1_555
O8_2 Cu1_2 1_555 1_555
O1_2 H9_2 1_555 1_555
O1_2 H10_2 1_555 1_555
C7 C8 1_555 1_555
C8 C9 1_555 1_555
C9 H5 1_555 1_555
C10_2 C9 1_555 1_555
C11_2 C10_2 1_555 1_555
H6_2 C11_2 1_555 1_555
C12 C11_2 1_555 1_555
C13 C8 1_555 1_555
H7 C13 1_555 1_555
C14 C12 1_555 1_555
C15_2 C10_2 1_555 1_555
N1 C6 1_555 1_555
N2 C5 1_555 1_555
H8 N2 1_555 1_555
O2_2 C14 1_555 1_555
O3_2 C15_2 1_555 1_555
O5_2 C15_2 1_555 1_555
Cu2_2 O5_2 1_555 1_555
Cu4_2 O3_2 1_555 1_555
C5 C6 1_555 1_555
C7 N1 1_555 1_555
C7 N2 1_555 1_555
C12 C13 1_555 1_555
C14 O4 1_555 1_555
O2_2 Cu3_2 1_555 1_555
Cu2_2 Cu4_2 1_555 1_555
C11_3 C10_3 1_555 1_555
H6_3 C11_3 1_555 1_555
C15_3 C10_3 1_555 1_555
O3_3 C15_3 1_555 1_555
O5_3 C15_3 1_555 1_555
Cu2_3 O5_3 1_555 1_555
Cu4_3 O3_3 1_555 1_555
O2_3 Cu3_3 1_555 1_555
Cu2_3 Cu4_3 1_555 1_555
Cu1_3 O1_3 1_555 1_555
O6_3 Cu1_3 1_555 1_555
O8_3 Cu1_3 1_555 1_555
O1_3 H9_3 1_555 1_555
O1_3 H10_3 1_555 1_555
Cu1_4 O1_4 1_555 1_555
H6_4 C11_4 1_555 1_555
C12_2 C11_4 1_555 1_555
C14_2 C12_2 1_555 1_555
O2_4 C14_2 1_555 1_555
O4_2 Cu1_4 1_555 1_555
Cu3_4 Cu1_4 1_555 1_555
O6_4 Cu1_4 1_555 1_555
O7_2 Cu1_4 1_555 1_555
O8_4 Cu1_4 1_555 1_555
C14_2 O4_2 1_555 1_555
O2_4 Cu3_4 1_555 1_555
O1_4 H9_4 1_555 1_555
O1_4 H10_4 1_555 1_555
Cu1_5 O1_5 1_555 1_555
H6_5 C11_5 1_555 1_555
C12_3 C11_5 1_555 1_555
C14_3 C12_3 1_555 1_555
O2_5 C14_3 1_555 1_555
O4_3 Cu1_5 1_555 1_555
Cu3_5 Cu1_5 1_555 1_555
O6_5 Cu1_5 1_555 1_555
O7_3 Cu1_5 1_555 1_555
O8_5 Cu1_5 1_555 1_555
C14_3 O4_3 1_555 1_555
O2_5 Cu3_5 1_555 1_555
O1_5 H9_5 1_555 1_555
O1_5 H10_5 1_555 1_555
Cu1_6 O1_6 1_555 1_555
C1_2 H1_2 1_555 1_555
C2_2 C1_2 1_555 1_555
H2_2 C2_2 1_555 1_555
C3_2 C2_2 1_555 1_555
C4_2 C3_2 1_555 1_555
H4_2 C4_2 1_555 1_555
C5_2 C4_2 1_555 1_555
C6_2 C1_2 1_555 1_555
C7_2 C8_2 1_555 1_555
C8_2 C9_2 1_555 1_555
C9_2 H5_2 1_555 1_555
C10_4 C9_2 1_555 1_555
C11_6 C10_4 1_555 1_555
H6_6 C11_6 1_555 1_555
C12_4 C11_6 1_555 1_555
C13_2 C8_2 1_555 1_555
H7_2 C13_2 1_555 1_555
C14_4 C12_4 1_555 1_555
C15_4 C10_4 1_555 1_555
N1_2 C6_2 1_555 1_555
N2_2 C5_2 1_555 1_555
H8_2 N2_2 1_555 1_555
O2_6 C14_4 1_555 1_555
O3_4 C15_4 1_555 1_555
O4_4 Cu1_6 1_555 1_555
O8_2 C15_4 1_555 1_555
Cu3_6 Cu1_6 1_555 1_555
O6_6 Cu1_6 1_555 1_555
O7_4 Cu1_6 1_555 1_555
O8_6 Cu1_6 1_555 1_555
C5_2 C6_2 1_555 1_555
C7_2 N1_2 1_555 1_555
C7_2 N2_2 1_555 1_555
C12_4 C13_2 1_555 1_555
C14_4 O4_4 1_555 1_555
O2_6 Cu3_6 1_555 1_555
O1_6 H9_6 1_555 1_555
O1_6 H10_6 1_555 1_555
Cu2_2 O1_7 1_555 1_555
C1_3 H1_3 1_555 1_555
C2_3 C1_3 1_555 1_555
H2_3 C2_3 1_555 1_555
C3_3 C2_3 1_555 1_555
H3_2 C3_3 1_555 1_555
C4_3 C3_3 1_555 1_555
H4_3 C4_3 1_555 1_555
C5_3 C4_3 1_555 1_555
C6_3 C1_3 1_555 1_555
C7_3 C8_3 1_555 1_555
C8_3 C9_3 1_555 1_555
C9_3 H5_3 1_555 1_555
C10_5 C9_3 1_555 1_555
C11_7 C10_5 1_555 1_555
H6_7 C11_7 1_555 1_555
C12_5 C11_7 1_555 1_555
C13_3 C8_3 1_555 1_555
H7_3 C13_3 1_555 1_555
C14_5 C12_5 1_555 1_555
C15_5 C10_5 1_555 1_555
N1_3 C6_3 1_555 1_555
N2_3 C5_3 1_555 1_555
H8_3 N2_3 1_555 1_555
O2_7 C14_5 1_555 1_555
O3_5 C15_5 1_555 1_555
O4_5 Cu2_2 1_555 1_555
O8_6 C15_5 1_555 1_555
Cu3_6 O3_5 1_555 1_555
O6_7 Cu2_2 1_555 1_555
O7_5 Cu2_2 1_555 1_555
C5_3 C6_3 1_555 1_555
C7_3 N1_3 1_555 1_555
C7_3 N2_3 1_555 1_555
C12_5 C13_3 1_555 1_555
C14_5 O4_5 1_555 1_555
O2_7 Cu4_2 1_555 1_555
O1_7 H9_7 1_555 1_555
O1_7 H10_7 1_555 1_555
Cu2_3 O1_8 1_555 1_555
H7_4 C13_4 1_555 1_555
C14_6 C12_6 1_555 1_555
O2_8 C14_6 1_555 1_555
O4_6 Cu2_3 1_555 1_555
O6_8 Cu2_3 1_555 1_555
O7_6 Cu2_3 1_555 1_555
C12_6 C13_4 1_555 1_555
C14_6 O4_6 1_555 1_555
O2_8 Cu4_3 1_555 1_555
O1_8 H9_8 1_555 1_555
O1_8 H10_8 1_555 1_555
C1_4 H1_4 1_555 1_555
C2_4 C1_4 1_555 1_555
H2_4 C2_4 1_555 1_555
C3_4 C2_4 1_555 1_555
H3_3 C3_4 1_555 1_555
C4_4 C3_4 1_555 1_555
H4_4 C4_4 1_555 1_555
C5_4 C4_4 1_555 1_555
C6_4 C1_4 1_555 1_555
C7_4 C8_4 1_555 1_555
C8_4 C9_4 1_555 1_555
C9_4 H5_4 1_555 1_555
C10_6 C9_4 1_555 1_555
C11_8 C10_6 1_555 1_555
H6_8 C11_8 1_555 1_555
C15_6 C10_6 1_555 1_555
N1_4 C6_4 1_555 1_555
N2_4 C5_4 1_555 1_555
H8_4 N2_4 1_555 1_555
O3_6 C15_6 1_555 1_555
O8_4 C15_6 1_555 1_555
Cu3_4 O3_6 1_555 1_555
C5_4 C6_4 1_555 1_555
C7_4 N1_4 1_555 1_555
C7_4 N2_4 1_555 1_555
C1_5 H1_5 1_555 1_555
C2_5 C1_5 1_555 1_555
H2_5 C2_5 1_555 1_555
C3_5 C2_5 1_555 1_555
H3_4 C3_5 1_555 1_555
C4_5 C3_5 1_555 1_555
H4_5 C4_5 1_555 1_555
C5_5 C4_5 1_555 1_555
C6_5 C1_5 1_555 1_555
C7_5 C8_5 1_555 1_555
C8_5 C9_5 1_555 1_555
C9_5 H5_5 1_555 1_555
C10_7 C9_5 1_555 1_555
C11_9 C10_7 1_555 1_555
H6_9 C11_9 1_555 1_555
C15_7 C10_7 1_555 1_555
N1_5 C6_5 1_555 1_555
N2_5 C5_5 1_555 1_555
H8_5 N2_5 1_555 1_555
O3_7 C15_7 1_555 1_555
O8_5 C15_7 1_555 1_555
Cu3_5 O3_7 1_555 1_555
C5_5 C6_5 1_555 1_555
C7_5 N1_5 1_555 1_555
C7_5 N2_5 1_555 1_555
Cu2 O1_9 1_555 1_555
H7_5 C13_5 1_555 1_555
C14_7 C12_7 1_555 1_555
O2_9 C14_7 1_555 1_555
O4_7 Cu2 1_555 1_555
O6_9 Cu2 1_555 1_555
O7_7 Cu2 1_555 1_555
C12_7 C13_5 1_555 1_555
C14_7 O4_7 1_555 1_555
O2_9 Cu4 1_555 1_555
O1_9 H9_9 1_555 1_555
O1_9 H10_9 1_555 1_555
C11_10 C10_8 1_555 1_555
H6_10 C11_10 1_555 1_555
C15_8 C10_8 1_555 1_555
O7_4 C15_8 1_555 1_555
O5_4 C15_8 1_555 1_555
Cu3_6 O5_4 1_555 1_555
Cu3 O1_10 1_555 1_555
O8_7 Cu3 1_555 1_555
O1_10 H9_10 1_555 1_555
O1_10 H10_10 1_555 1_555
C7_6 C8_6 1_555 1_555
C8_6 C9_6 1_555 1_555
C9_6 H5_6 1_555 1_555
C10_9 C9_6 1_555 1_555
C11_11 C10_9 1_555 1_555
H6_11 C11_11 1_555 1_555
C12_8 C11_11 1_555 1_555
C13_6 C8_6 1_555 1_555
H7_6 C13_6 1_555 1_555
C14_8 C12_8 1_555 1_555
C15_9 C10_9 1_555 1_555
N1_6 C6_6 1_555 1_555
N2_6 C5_6 1_555 1_555
H8_6 N2_6 1_555 1_555
O6_2 C14_8 1_555 1_555
O7_2 C15_9 1_555 1_555
O5_5 C15_9 1_555 1_555
Cu3_4 O5_5 1_555 1_555
C5_6 C6_6 1_555 1_555
C7_6 N1_6 1_555 1_555
C7_6 N2_6 1_555 1_555
C12_8 C13_6 1_555 1_555
C14_8 O4_8 1_555 1_555
Cu3_2 O1_11 1_555 1_555
O8_8 Cu3_2 1_555 1_555
O1_11 H9_11 1_555 1_555
O1_11 H10_11 1_555 1_555
Cu3_3 O1_12 1_555 1_555
O8_9 Cu3_3 1_555 1_555
O1_12 H9_12 1_555 1_555
O1_12 H10_12 1_555 1_555
C11_12 C10_10 1_555 1_555
H6_12 C11_12 1_555 1_555
C15_10 C10_10 1_555 1_555
O7_3 C15_10 1_555 1_555
O5_6 C15_10 1_555 1_555
Cu3_5 O5_6 1_555 1_555
Cu4_2 O1_13 1_555 1_555
H6_13 C11_13 1_555 1_555
C12_9 C11_13 1_555 1_555
C14_9 C12_9 1_555 1_555
O6_7 C14_9 1_555 1_555
O4_9 Cu4_2 1_555 1_555
O8_10 Cu4_2 1_555 1_555
C14_9 O4_9 1_555 1_555
O1_13 H9_13 1_555 1_555
O1_13 H10_13 1_555 1_555
Cu4_3 O1_14 1_555 1_555
H6_14 C11_14 1_555 1_555
C12_10 C11_14 1_555 1_555
C14_10 C12_10 1_555 1_555
O6_8 C14_10 1_555 1_555
O4_10 Cu4_3 1_555 1_555
O8_11 Cu4_3 1_555 1_555
C14_10 O4_10 1_555 1_555
O1_14 H9_14 1_555 1_555
O1_14 H10_14 1_555 1_555
Cu4 O1_15 1_555 1_555
C1_6 H1_6 1_555 1_555
C2_6 C1_6 1_555 1_555
H2_6 C2_6 1_555 1_555
C3_6 C2_6 1_555 1_555
C4_6 C3_6 1_555 1_555
H4_7 C4_6 1_555 1_555
C5_7 C4_6 1_555 1_555
C6_7 C1_6 1_555 1_555
C7_7 C8_7 1_555 1_555
C8_7 C9_7 1_555 1_555
C9_7 H5_7 1_555 1_555
C10_11 C9_7 1_555 1_555
C11_15 C10_11 1_555 1_555
H6_15 C11_15 1_555 1_555
C12_11 C11_15 1_555 1_555
C13_7 C8_7 1_555 1_555
H7_7 C13_7 1_555 1_555
C14_11 C12_11 1_555 1_555
C15_11 C10_11 1_555 1_555
N1_7 C6_7 1_555 1_555
N2_7 C5_7 1_555 1_555
H8_7 N2_7 1_555 1_555
O6_9 C14_11 1_555 1_555
O7 C15_11 1_555 1_555
O4_11 Cu4 1_555 1_555
O8_8 C15_11 1_555 1_555
O8_12 Cu4 1_555 1_555
C5_7 C6_7 1_555 1_555
C7_7 N1_7 1_555 1_555
C7_7 N2_7 1_555 1_555
C12_11 C13_7 1_555 1_555
C14_11 O4_11 1_555 1_555
O1_15 H9_15 1_555 1_555
O1_15 H10_15 1_555 1_555
Cu3_4 O1_16 1_555 1_555
C1_7 H1_7 1_555 1_555
C2_7 C1_7 1_555 1_555
H2_7 C2_7 1_555 1_555
C3_7 C2_7 1_555 1_555
H3_5 C3_7 1_555 1_555
C4_7 C3_7 1_555 1_555
H4_8 C4_7 1_555 1_555
C5_8 C4_7 1_555 1_555
C6_8 C1_7 1_555 1_555
C7_8 C8_8 1_555 1_555
C8_8 C9_8 1_555 1_555
C9_8 H5_8 1_555 1_555
C10_12 C9_8 1_555 1_555
C11_16 C10_12 1_555 1_555
H6_16 C11_16 1_555 1_555
C12_12 C11_16 1_555 1_555
C13_8 C8_8 1_555 1_555
H7_8 C13_8 1_555 1_555
C14_12 C12_12 1_555 1_555
C15_12 C10_12 1_555 1_555
N1_8 C6_8 1_555 1_555
N2_8 C5_8 1_555 1_555
H8_8 N2_8 1_555 1_555
O6_4 C14_12 1_555 1_555
O7_7 C15_12 1_555 1_555
O4_12 Cu3_4 1_555 1_555
O8_12 C15_12 1_555 1_555
C5_8 C6_8 1_555 1_555
C7_8 N1_8 1_555 1_555
C7_8 N2_8 1_555 1_555
C12_12 C13_8 1_555 1_555
C14_12 O4_12 1_555 1_555
O1_16 H9_16 1_555 1_555
O1_16 H10_16 1_555 1_555
C1_8 H1_8 1_555 1_555
C2_8 C1_8 1_555 1_555
H2_8 C2_8 1_555 1_555
C3_8 C2_8 1_555 1_555
H3_6 C3_8 1_555 1_555
C4_8 C3_8 1_555 1_555
H4_9 C4_8 1_555 1_555
C5_9 C4_8 1_555 1_555
C6_9 C1_8 1_555 1_555
C7_9 C8_9 1_555 1_555
C8_9 C9_9 1_555 1_555
C9_9 H5_9 1_555 1_555
C10_13 C9_9 1_555 1_555
C11_17 C10_13 1_555 1_555
H6_17 C11_17 1_555 1_555
C15_13 C10_13 1_555 1_555
N1_9 C6_9 1_555 1_555
N2_9 C5_9 1_555 1_555
H8_9 N2_9 1_555 1_555
O7_5 C15_13 1_555 1_555
O8_10 C15_13 1_555 1_555
C5_9 C6_9 1_555 1_555
C7_9 N1_9 1_555 1_555
C7_9 N2_9 1_555 1_555
Cu3_5 O1_17 1_555 1_555
H7_9 C13_9 1_555 1_555
C14_13 C12_13 1_555 1_555
O6_5 C14_13 1_555 1_555
O4_13 Cu3_5 1_555 1_555
C12_13 C13_9 1_555 1_555
C14_13 O4_13 1_555 1_555
O1_17 H9_17 1_555 1_555
O1_17 H10_17 1_555 1_555
Cu3_6 O1_18 1_555 1_555
H7_10 C13_10 1_555 1_555
C14_14 C12_14 1_555 1_555
O6_6 C14_14 1_555 1_555
O4_14 Cu3_6 1_555 1_555
C12_14 C13_10 1_555 1_555
C14_14 O4_14 1_555 1_555
O1_18 H9_18 1_555 1_555
O1_18 H10_18 1_555 1_555
C1_9 H1_9 1_555 1_555
C2_9 C1_9 1_555 1_555
H2_9 C2_9 1_555 1_555
C3_9 C2_9 1_555 1_555
H3_7 C3_9 1_555 1_555
C4_9 C3_9 1_555 1_555
H4_10 C4_9 1_555 1_555
C5_10 C4_9 1_555 1_555
C6_10 C1_9 1_555 1_555
C7_10 C8_10 1_555 1_555
C8_10 C9_10 1_555 1_555
C9_10 H5_10 1_555 1_555
C10_14 C9_10 1_555 1_555
C11_18 C10_14 1_555 1_555
H6_18 C11_18 1_555 1_555
C15_14 C10_14 1_555 1_555
N1_10 C6_10 1_555 1_555
N2_10 C5_10 1_555 1_555
H8_10 N2_10 1_555 1_555
O7_6 C15_14 1_555 1_555
O8_11 C15_14 1_555 1_555
C5_10 C6_10 1_555 1_555
C7_10 N1_10 1_555 1_555
C7_10 N2_10 1_555 1_555
C7_11 C8_11 1_555 1_555
C8_11 C9_11 1_555 1_555
C9_11 H5_11 1_555 1_555
C13_11 C8_11 1_555 1_555
H7_11 C13_11 1_555 1_555
C14_15 C12_15 1_555 1_555
N1_11 C6_11 1_555 1_555
N2_11 C5_11 1_555 1_555
H8_11 N2_11 1_555 1_555
C5_11 C6_11 1_555 1_555
C7_11 N1_11 1_555 1_555
C7_11 N2_11 1_555 1_555
C12_15 C13_11 1_555 1_555
C14_15 O4_15 1_555 1_555
C1_10 H1_10 1_555 1_555
C2_10 C1_10 1_555 1_555
H2_10 C2_10 1_555 1_555
C3_10 C2_10 1_555 1_555
H3_8 C3_10 1_555 1_555
C4_10 C3_10 1_555 1_555
H4_12 C4_10 1_555 1_555
C5_12 C4_10 1_555 1_555
C6_12 C1_10 1_555 1_555
C7_12 C8_12 1_555 1_555
C8_12 C9_12 1_555 1_555
C9_12 H5_12 1_555 1_555
C10_15 C9_12 1_555 1_555
C13_12 C8_12 1_555 1_555
H7_12 C13_12 1_555 1_555
C15_15 C10_15 1_555 1_555
N1_12 C6_12 1_555 1_555
N2_12 C5_12 1_555 1_555
H8_12 N2_12 1_555 1_555
O7_8 C15_15 1_555 1_555
C5_12 C6_12 1_555 1_555
C7_12 N1_12 1_555 1_555
C7_12 N2_12 1_555 1_555
C1_11 H1_11 1_555 1_555
C2_11 C1_11 1_555 1_555
H2_11 C2_11 1_555 1_555
C3_11 C2_11 1_555 1_555
H3_9 C3_11 1_555 1_555
C4_11 C3_11 1_555 1_555
C1_12 H1_12 1_555 1_555
C2_12 C1_12 1_555 1_555
H2_12 C2_12 1_555 1_555
C3_12 C2_12 1_555 1_555
H3_10 C3_12 1_555 1_555
C4_12 C3_12 1_555 1_555
H4_13 C4_12 1_555 1_555
C5_13 C4_12 1_555 1_555
C6_13 C1_12 1_555 1_555
C7_13 C8_13 1_555 1_555
C8_13 C9_13 1_555 1_555
C9_13 H5_13 1_555 1_555
C13_13 C8_13 1_555 1_555
H7_13 C13_13 1_555 1_555
C14_16 C12_16 1_555 1_555
N1_13 C6_13 1_555 1_555
N2_13 C5_13 1_555 1_555
H8_13 N2_13 1_555 1_555
C5_13 C6_13 1_555 1_555
C7_13 N1_13 1_555 1_555
C7_13 N2_13 1_555 1_555
C12_16 C13_13 1_555 1_555
C14_16 O4_16 1_555 1_555
C1_13 H1_13 1_555 1_555
C2_13 C1_13 1_555 1_555
H2_13 C2_13 1_555 1_555
C3_13 C2_13 1_555 1_555
C4_13 C3_13 1_555 1_555
H4_14 C4_13 1_555 1_555
C5_14 C4_13 1_555 1_555
C6_14 C1_13 1_555 1_555
C7_14 C8_14 1_555 1_555
C8_14 C9_14 1_555 1_555
C9_14 H5_14 1_555 1_555
C10_16 C9_14 1_555 1_555
C13_14 C8_14 1_555 1_555
H7_14 C13_14 1_555 1_555
C15_16 C10_16 1_555 1_555
N1_14 C6_14 1_555 1_555
N2_14 C5_14 1_555 1_555
H8_14 N2_14 1_555 1_555
O7_9 C15_16 1_555 1_555
C5_14 C6_14 1_555 1_555
C7_14 N1_14 1_555 1_555
C7_14 N2_14 1_555 1_555
C1_14 H1_14 1_555 1_555
C2_14 C1_14 1_555 1_555
H2_14 C2_14 1_555 1_555
C3_14 C2_14 1_555 1_555
C4_14 C3_14 1_555 1_555
H4_15 C4_14 1_555 1_555
C5_15 C4_14 1_555 1_555
C6_15 C1_14 1_555 1_555
C7_15 C8_15 1_555 1_555
C8_15 C9_15 1_555 1_555
C9_15 H5_15 1_555 1_555
C10_17 C9_15 1_555 1_555
C13_15 C8_15 1_555 1_555
H7_15 C13_15 1_555 1_555
C15_17 C10_17 1_555 1_555
N1_15 C6_15 1_555 1_555
N2_15 C5_15 1_555 1_555
H8_15 N2_15 1_555 1_555
O3_8 C15_17 1_555 1_555
C5_15 C6_15 1_555 1_555
C7_15 N1_15 1_555 1_555
C7_15 N2_15 1_555 1_555
C1_15 H1_15 1_555 1_555
C2_15 C1_15 1_555 1_555
H2_15 C2_15 1_555 1_555
C3_15 C2_15 1_555 1_555
H3_12 C3_15 1_555 1_555
C4_15 C3_15 1_555 1_555
H4_16 C4_15 1_555 1_555
C5_16 C4_15 1_555 1_555
C6_16 C1_15 1_555 1_555
C7_16 C8_16 1_555 1_555
C8_16 C9_16 1_555 1_555
C9_16 H5_16 1_555 1_555
C13_16 C8_16 1_555 1_555
H7_16 C13_16 1_555 1_555
C14_17 C12_17 1_555 1_555
N1_16 C6_16 1_555 1_555
N2_16 C5_16 1_555 1_555
H8_16 N2_16 1_555 1_555
C5_16 C6_16 1_555 1_555
C7_16 N1_16 1_555 1_555
C7_16 N2_16 1_555 1_555
C12_17 C13_16 1_555 1_555
C14_17 O4_17 1_555 1_555
C1_16 H1_16 1_555 1_555
C2_16 C1_16 1_555 1_555
H2_16 C2_16 1_555 1_555
C3_16 C2_16 1_555 1_555
H3_13 C3_16 1_555 1_555
C4_16 C3_16 1_555 1_555
H4_17 C4_16 1_555 1_555
C5_17 C4_16 1_555 1_555
C6_17 C1_16 1_555 1_555
C7_17 C8_17 1_555 1_555
C8_17 C9_17 1_555 1_555
C9_17 H5_17 1_555 1_555
C10_18 C9_17 1_555 1_555
C13_17 C8_17 1_555 1_555
H7_17 C13_17 1_555 1_555
C15_18 C10_18 1_555 1_555
N1_17 C6_17 1_555 1_555
N2_17 C5_17 1_555 1_555
H8_17 N2_17 1_555 1_555
O3_9 C15_18 1_555 1_555
C5_17 C6_17 1_555 1_555
C7_17 N1_17 1_555 1_555
C7_17 N2_17 1_555 1_555
C7_18 C8_18 1_555 1_555
C8_18 C9_18 1_555 1_555
C9_18 H5_18 1_555 1_555
C13_18 C8_18 1_555 1_555
H7_18 C13_18 1_555 1_555
C14_18 C12_18 1_555 1_555
N1_18 C6_18 1_555 1_555
N2_18 C5_18 1_555 1_555
H8_18 N2_18 1_555 1_555
C5_18 C6_18 1_555 1_555
C7_18 N1_18 1_555 1_555
C7_18 N2_18 1_555 1_555
C12_18 C13_18 1_555 1_555
C14_18 O4_18 1_555 1_555
C1_17 H1_17 1_555 1_555
C2_17 C1_17 1_555 1_555
H2_17 C2_17 1_555 1_555
C3_17 C2_17 1_555 1_555
H3_15 C3_17 1_555 1_555
C4_17 C3_17 1_555 1_555
C1_18 H1_18 1_555 1_555
C2_18 C1_18 1_555 1_555
H2_18 C2_18 1_555 1_555
C3_18 C2_18 1_555 1_555
H3_16 C3_18 1_555 1_555
C4_18 C3_18 1_555 1_555

#END
