
###############################################################################
#
# This file contains modified crystal structure data generated from the
# MOF subset of the Cambridge Structural Database (CSD) v543 
# hosted by the Cambridge Crystallographic Data Centre (CCDC).
#
# This work is licensed under the Creative Commons
# Attribution-NonCommercial-ShareAlike 4.0 International License.
# To view a copy of this license, visit
# http://creativecommons.org/licenses/by-nc-sa/4.0/
# or send a letter to
# Creative Commons, PO Box 1866, Mountain View, CA 94042, USA.
#
# CIF created using the CSD Python API on 29 September 2022
# The structure has been converted into the P1 space group
# The structure has a 3D framework
# The original CSD entry WAGZEL is in the monoclinic crystal system
# The framework has been calculated to contain at least 10.0% void space
# The void calculation uses a probe of radius 1.32A, grid spacing 0.4
# The framework is charged, counterions have been retained in the structure
# H atom positions have been added when not included in the experimental data
# Generated hydrogen atom positions removed from atoms on special positions
#
###############################################################################

data_WAGZEL
_chemical_formula_moiety         '(C56 H44 N4 Nd4 O32)n'
_symmetry_cell_setting           triclinic
_symmetry_space_group_name_H-M   'P 1'
_symmetry_Int_Tables_number      1
_space_group_name_Hall           'P 1'
loop_
_symmetry_equiv_pos_site_id
_symmetry_equiv_pos_as_xyz
1 x,y,z
_cell_length_a                   10.923(3)
_cell_length_b                   17.877(4)
_cell_length_c                   9.097(2)
_cell_angle_alpha                90
_cell_angle_beta                 111.264(3)
_cell_angle_gamma                90
_cell_volume                     1655.44
loop_
_atom_site_label
_atom_site_type_symbol
_atom_site_fract_x
_atom_site_fract_y
_atom_site_fract_z
C7 C 0.0110(3) 0.42358(18) 0.0222(4)
H2 H 0.0187 0.3721 0.0373
Nd6 Nd 0.392994(16) 0.698672(8) 0.432303(19)
O13 O 0.2013(2) 0.66562(12) 0.1722(3)
O17 O 0.2761(3) 0.57401(13) 0.3376(3)
C18 C 0.0959(3) 0.54731(18) 0.1002(4)
C19 C 0.1968(3) 0.59872(17) 0.2093(4)
C20 C 0.1064(3) 0.47039(18) 0.1220(4)
H8 H 0.1775 0.4502 0.2036
Nd3 Nd 0.607006(16) 0.198672(8) 0.067697(19)
Nd1 Nd 0.607006(16) 0.301328(8) 0.567697(19)
C1 C 0.5505(3) 0.43947(16) 0.1008(4)
O1 O 0.5884(2) 0.37343(12) 0.3376(3)
O2 O 0.5269(2) 0.28776(12) 0.7927(3)
O3 O 0.7987(2) 0.33438(12) 0.8278(3)
O4 O 0.4343(2) 0.38714(13) 0.5416(3)
O5 O 0.7239(3) 0.42599(13) 0.6624(3)
N1 N 0.2728(3) 0.46271(14) 0.5445(3)
C2 C 0.3354(3) 0.36568(17) 0.7357(4)
O6 O 0.8268(3) 0.27155(14) 0.5454(3)
C3 C 0.3532(3) 0.40287(17) 0.6045(4)
C4 C 0.9041(3) 0.45269(18) 0.8998(4)
C5 C 0.8032(3) 0.40128(17) 0.7907(4)
C6 C 0.8936(3) 0.52961(18) 0.8780(4)
H1 H 0.8225 0.5498 0.7964
C8 C 0.1790(3) 0.4867(2) 0.5978(4)
H3 H 0.1279 0.5279 0.5510
C9 C 0.4261(3) 0.30457(16) 0.8230(4)
C10 C 0.2397(4) 0.3908(2) 0.7878(5)
H4 H 0.2284 0.3665 0.8724
C11 C 0.1587(4) 0.4512(2) 0.7189(5)
H5 H 0.0931 0.4667 0.7547
C12 C 0.4576(3) 0.48647(17) 0.1242(4)
H6 H 0.4287 0.4775 0.2070
C14 C 0.6045(3) 0.37396(16) 0.2090(4)
O7 O 0.6648(2) 0.32408(12) 0.1632(3)
O8 O 0.4021(2) 0.27191(16) 0.9322(3)
O10 O 0.5269(2) 0.21224(12) 0.2927(3)
O15 O 0.4343(2) 0.11286(13) 0.0416(3)
N2 N 0.2728(3) 0.03729(14) 0.0445(3)
C16 C 0.3354(3) 0.13432(17) 0.2357(4)
C17 C 0.3532(3) 0.09713(17) 0.1045(4)
C21 C 0.9890(3) 0.57642(18) 0.9778(4)
H9 H 0.9813 0.6279 0.9627
C22 C 0.1790(3) 0.0133(2) 0.0978(4)
C23 C 0.4261(3) 0.19543(16) 0.3230(4)
C24 C 0.2397(4) 0.1092(2) 0.2878(5)
H11 H 0.2284 0.1335 0.3724
C25 C 0.1587(4) 0.0488(2) 0.2189(5)
H12 H 0.0931 0.0333 0.2547
C27 C 0.4081(3) 0.54674(17) 0.0242(4)
H14 H 0.3466 0.5782 0.0409
O21 O 0.6648(2) 0.17592(12) 0.6632(3)
O23 O 0.4021(2) 0.22809(16) 0.4322(3)
H15 H 0.284235 0.49111 0.453716
C13 C 0.5919(3) 0.45326(17) 0.9758(4)
H7 H 0.6534 0.4218 0.9591
Nd5 Nd 0.392994(16) 0.801328(8) 0.932303(19)
C15 C 0.4495(3) 0.56053(16) 0.8992(4)
O9 O 0.4116(2) 0.62657(12) 0.6624(3)
O11 O 0.4731(2) 0.71224(12) 0.2073(3)
O12 O 0.4731(2) 0.78776(12) 0.7073(3)
O16 O 0.5657(2) 0.61286(13) 0.4584(3)
O19 O 0.1732(3) 0.72845(14) 0.4546(3)
C26 C 0.5424(3) 0.51353(17) 0.8758(4)
H13 H 0.5713 0.5225 0.7930
C28 C 0.3955(3) 0.62604(16) 0.7910(4)
O20 O 0.3352(2) 0.67592(12) 0.8368(3)
O22 O 0.3352(2) 0.82408(12) 0.3368(3)
O24 O 0.5979(2) 0.77191(16) 0.5678(3)
H20 H 0.284235 0.0088902 0.953716
O14 O 0.7987(2) 0.16562(12) 0.3278(3)
O18 O 0.7239(3) 0.07401(13) 0.1624(3)
O19_2 O 0.8268(3) 0.22845(14) 0.0454(3)
H19 H 0.877105 0.262789 0.13206
C15_2 C 0.5505(3) 0.06053(16) 0.6008(4)
O9_2 O 0.5884(2) 0.12657(12) 0.8376(3)
C26_2 C 0.4576(3) 0.01353(17) 0.6242(4)
H13_2 H 0.4287 0.0225 0.7070
C27_2 C 0.5919(3) 0.04674(17) 0.4758(4)
H14_2 H 0.6534 0.0782 0.4591
C28_2 C 0.6045(3) 0.12604(16) 0.7090(4)
H18 H 0.812043 0.252754 0.94222
C1_2 C 0.4495(3) 0.93947(16) 0.3992(4)
O1_2 O 0.4116(2) 0.87343(12) 0.1624(3)
C12_2 C 0.5424(3) 0.98647(17) 0.3758(4)
H6_2 H 0.5713 0.9775 0.2930
C13_2 C 0.4081(3) 0.95326(17) 0.5242(4)
H7_2 H 0.3466 0.9218 0.5409
C14_2 C 0.3955(3) 0.87396(16) 0.2910(4)
N2_2 N 0.7272(3) 0.53729(14) 0.4555(3)
C16_2 C 0.6646(3) 0.63432(17) 0.2643(4)
C17_2 C 0.6468(3) 0.59713(17) 0.3955(4)
C22_2 C 0.8210(3) 0.5133(2) 0.4022(4)
H10 H 0.8721 0.4721 0.4490
C23_2 C 0.5739(3) 0.69543(16) 0.1770(4)
C24_2 C 0.7603(4) 0.6092(2) 0.2122(5)
H11_2 H 0.7716 0.6335 0.1276
C25_2 C 0.8413(4) 0.5488(2) 0.2811(5)
H12_2 H 0.9069 0.5333 0.2453
O23_2 O 0.5979(2) 0.72809(16) 0.0678(3)
H15_2 H 0.715765 0.99111 0.0462838
H20_2 H 0.715765 0.50889 0.546284
O3_2 O 0.2013(2) 0.83438(12) 0.6722(3)
O4_2 O 0.5657(2) 0.88714(13) 0.9584(3)
O5_2 O 0.2761(3) 0.92599(13) 0.8376(3)
N1_2 N 0.7272(3) 0.96271(14) 0.9555(3)
C2_2 C 0.6646(3) 0.86568(17) 0.7643(4)
O6_2 O 0.1732(3) 0.77155(14) 0.9546(3)
C3_2 C 0.6468(3) 0.90287(17) 0.8955(4)
C4_2 C 0.0959(3) 0.95269(18) 0.6002(4)
C5_2 C 0.1968(3) 0.90128(17) 0.7093(4)
C8_2 C 0.8210(3) 0.9867(2) 0.9022(4)
C9_2 C 0.5739(3) 0.80457(16) 0.6770(4)
C10_2 C 0.7603(4) 0.8908(2) 0.7122(5)
H4_2 H 0.7716 0.8665 0.6276
C11_2 C 0.8413(4) 0.9512(2) 0.7811(5)
H5_2 H 0.9069 0.9667 0.7453
H16 H 0.122753 0.818542 0.946803
H17 H 0.122895 0.737211 0.86794
C18_2 C 0.9041(3) 0.04731(18) 0.3998(4)
C19_2 C 0.8032(3) 0.09872(17) 0.2907(4)
H16_2 H 0.877247 0.181458 0.0531971
H18_2 H 0.187957 0.747246 0.0577804
H10_2 H 0.1279 0.9721 0.0510
C7_2 C 0.9890(3) 0.92358(18) 0.4778(4)
H2_2 H 0.9813 0.8721 0.4627
C20_2 C 0.8936(3) 0.97039(18) 0.3780(4)
H8_2 H 0.8225 0.9502 0.2964
C6_2 C 0.1064(3) 0.02961(18) 0.6220(4)
H1_2 H 0.1775 0.0498 0.7036
H3_2 H 0.8721 0.0279 0.9490
C21_2 C 0.0110(3) 0.07642(18) 0.5222(4)
H9_2 H 0.0187 0.1279 0.5373
loop_
_geom_bond_atom_site_label_1
_geom_bond_atom_site_label_2
_geom_bond_site_symmetry_1
_geom_bond_site_symmetry_2
H2 C7 1_555 1_555
Nd6 O13 1_555 1_555
O13 C19 1_555 1_555
O17 Nd6 1_555 1_555
C18 C19 1_555 1_555
C19 O17 1_555 1_555
C20 C7 1_555 1_555
H8 C20 1_555 1_555
C18 C20 1_555 1_555
Nd1 O1 1_555 1_555
C1 C12 1_555 1_555
O1 C14 1_555 1_555
O2 Nd1 1_555 1_555
O3 Nd1 1_555 1_555
O4 Nd1 1_555 1_555
O5 Nd1 1_555 1_555
N1 C3 1_555 1_555
C2 C3 1_555 1_555
O6 Nd1 1_555 1_555
C3 O4 1_555 1_555
C4 C5 1_555 1_555
C5 O3 1_555 1_555
C6 C4 1_555 1_555
H1 C6 1_555 1_555
C8 N1 1_555 1_555
H3 C8 1_555 1_555
C9 O2 1_555 1_555
C10 C2 1_555 1_555
H4 C10 1_555 1_555
C11 C8 1_555 1_555
H5 C11 1_555 1_555
C12 H6 1_555 1_555
C14 C1 1_555 1_555
O7 C14 1_555 1_555
O8 C9 1_555 1_555
Nd3 O7 1_555 1_555
O10 Nd1 1_555 1_555
O15 Nd3 1_555 1_555
N2 C17 1_555 1_555
C16 C17 1_555 1_555
C17 O15 1_555 1_555
C21 C6 1_555 1_555
H9 C21 1_555 1_555
C22 N2 1_555 1_555
C23 O10 1_555 1_555
C24 C16 1_555 1_555
H11 C24 1_555 1_555
C25 C22 1_555 1_555
H12 C25 1_555 1_555
C27 C12 1_555 1_555
H14 C27 1_555 1_555
O21 Nd1 1_555 1_555
O23 Nd1 1_555 1_555
O5 C5 1_555 1_555
C2 C9 1_555 1_555
C10 C11 1_555 1_555
Nd3 O10 1_555 1_555
C16 C23 1_555 1_555
C23 O23 1_555 1_555
C24 C25 1_555 1_555
N1 H15 1_555 1_555
H7 C13 1_555 1_555
Nd6 O9 1_555 1_555
Nd5 O12 1_555 1_555
C15 C26 1_555 1_555
O9 C28 1_555 1_555
O11 Nd6 1_555 1_555
O12 Nd6 1_555 1_555
O16 Nd6 1_555 1_555
O19 Nd6 1_555 1_555
C26 C13 1_555 1_555
H13 C26 1_555 1_555
C28 C15 1_555 1_555
O20 Nd5 1_555 1_555
O22 Nd6 1_555 1_555
O24 Nd6 1_555 1_555
C28 O20 1_555 1_555
O14 Nd3 1_555 1_555
O18 Nd3 1_555 1_555
O19_2 Nd3 1_555 1_555
O19_2 H19 1_555 1_555
C15_2 C26_2 1_555 1_555
O9_2 C28_2 1_555 1_555
H13_2 C26_2 1_555 1_555
H14_2 C27_2 1_555 1_555
C28_2 C15_2 1_555 1_555
C15_2 C27_2 1_555 1_555
C28_2 O21 1_555 1_555
C1_2 C12_2 1_555 1_555
O1_2 C14_2 1_555 1_555
C12_2 H6_2 1_555 1_555
C13_2 C1_2 1_555 1_555
H7_2 C13_2 1_555 1_555
C14_2 C1_2 1_555 1_555
O22 C14_2 1_555 1_555
N2_2 C17_2 1_555 1_555
C16_2 C17_2 1_555 1_555
C17_2 O16 1_555 1_555
C22_2 N2_2 1_555 1_555
H10 C22_2 1_555 1_555
C23_2 O11 1_555 1_555
C24_2 C16_2 1_555 1_555
H11_2 C24_2 1_555 1_555
C25_2 C22_2 1_555 1_555
H12_2 C25_2 1_555 1_555
C16_2 C23_2 1_555 1_555
C23_2 O23_2 1_555 1_555
C24_2 C25_2 1_555 1_555
N2_2 H20_2 1_555 1_555
O3_2 Nd5 1_555 1_555
O4_2 Nd5 1_555 1_555
O5_2 Nd5 1_555 1_555
N1_2 C3_2 1_555 1_555
C2_2 C3_2 1_555 1_555
O6_2 Nd5 1_555 1_555
C3_2 O4_2 1_555 1_555
C4_2 C5_2 1_555 1_555
C5_2 O3_2 1_555 1_555
C8_2 N1_2 1_555 1_555
C9_2 O12 1_555 1_555
C10_2 C2_2 1_555 1_555
H4_2 C10_2 1_555 1_555
C11_2 C8_2 1_555 1_555
H5_2 C11_2 1_555 1_555
O24 C9_2 1_555 1_555
O5_2 C5_2 1_555 1_555
C2_2 C9_2 1_555 1_555
C10_2 C11_2 1_555 1_555
O6_2 H16 1_555 1_555
O6_2 H17 1_555 1_555
O14 C19_2 1_555 1_555
C18_2 C19_2 1_555 1_555
C19_2 O18 1_555 1_555
O19_2 H16_2 1_555 1_555
H2_2 C7_2 1_555 1_555
C20_2 C7_2 1_555 1_555
H8_2 C20_2 1_555 1_555
H1_2 C6_2 1_555 1_555
C21_2 C6_2 1_555 1_555
H9_2 C21_2 1_555 1_555

#END
