
###############################################################################
#
# This file contains modified crystal structure data generated from the
# MOF subset of the Cambridge Structural Database (CSD) v543 
# hosted by the Cambridge Crystallographic Data Centre (CCDC).
#
# This work is licensed under the Creative Commons
# Attribution-NonCommercial-ShareAlike 4.0 International License.
# To view a copy of this license, visit
# http://creativecommons.org/licenses/by-nc-sa/4.0/
# or send a letter to
# Creative Commons, PO Box 1866, Mountain View, CA 94042, USA.
#
# CIF created using the CSD Python API on 29 September 2022
# The structure has been converted into the P1 space group
# The structure has a 3D framework
# The original CSD entry WAHBOA05 is in the tetragonal crystal system
# The framework has been calculated to contain at least 10.0% void space
# The void calculation uses a probe of radius 1.32A, grid spacing 0.4
# H atom positions have been added when not included in the experimental data
#
###############################################################################

data_WAHBOA05
_chemical_formula_moiety         '(C96 H96 N96 Zn20)n'
_symmetry_cell_setting           triclinic
_symmetry_space_group_name_H-M   'P 1'
_symmetry_Int_Tables_number      1
_space_group_name_Hall           'P 1'
loop_
_symmetry_equiv_pos_site_id
_symmetry_equiv_pos_as_xyz
1 x,y,z
_cell_length_a                   20.7384
_cell_length_b                   20.7384
_cell_length_c                   20.7384
_cell_angle_alpha                90
_cell_angle_beta                 90
_cell_angle_gamma                90
_cell_volume                     8919.2
loop_
_atom_site_label
_atom_site_type_symbol
_atom_site_fract_x
_atom_site_fract_y
_atom_site_fract_z
Zn4 Zn 0.37500 -0.00000 0.75000
H2 H 0.291366 0.0219157 0.65986
Zn1 Zn 0.62500 0.50000 0.75000
N1 N 0.57560 0.57252 0.74170
N2 N 0.67440 0.50830 0.67748
C1 C 0.59783 0.59808 0.68130
C2 C 0.65217 0.56870 0.65192
C3 C 0.56870 0.65192 0.65217
N3 N 0.50830 0.67748 0.67440
Zn2 Zn 0.50000 0.75000 0.62500
N4 N 0.57560 0.42748 0.75830
N5 N 0.67440 0.49170 0.82252
C4 C 0.68130 0.59783 0.59808
C5 C 0.59808 0.68130 0.59783
C6 C 0.65192 0.65217 0.56870
N6 N 0.74170 0.57560 0.57252
N7 N 0.57252 0.74170 0.57560
N8 N 0.67748 0.67440 0.50830
Zn3 Zn 0.75000 0.62500 0.50000
N9 N 0.49170 0.82252 0.67440
N10 N 0.42748 0.75830 0.57560
N11 N 0.82252 0.67440 0.49170
N12 N 0.75830 0.57560 0.42748
C7 C 0.43130 0.84808 0.65217
C8 C 0.40192 0.81870 0.59783
C9 C 0.40217 0.90192 0.68130
C10 C 0.34808 0.84783 0.56870
N13 N 0.42440 0.92748 0.74170
C11 C 0.34783 0.93130 0.65192
N14 N 0.32252 0.82560 0.50830
C12 C 0.31870 0.90217 0.59808
Zn4_2 Zn 0.37500 1.00000 0.75000
N15 N 0.32560 0.99170 0.67748
Zn5 Zn 0.25000 0.87500 0.50000
N16 N 0.25830 0.92440 0.57252
H1 H 0.458634 0.90986 0.771916
H3 H 0.478084 0.65986 0.708634
H4 H 0.541366 0.59014 0.771916
H5 H 0.228084 0.958634 0.59014
H6 H 0.708634 0.478084 0.65986
H7 H 0.40986 0.728084 0.541366
H8 H 0.771916 0.541366 0.59014
H9 H 0.65986 0.708634 0.478084
H10 H 0.521916 0.84014 0.708634
H11 H 0.59014 0.771916 0.541366
H12 H 0.34014 0.791366 0.478084
Zn2_2 Zn -0.00000 0.25000 0.12500
N9_2 N 0.00830 0.17748 0.17440
N10_2 N 0.07252 0.24170 0.07560
C7_2 C 0.06870 0.15192 0.15217
C8_2 C 0.09808 0.18130 0.09783
C9_2 C 0.09783 0.09808 0.18130
C10_2 C 0.15192 0.15217 0.06870
N13_2 N 0.07560 0.07252 0.24170
C11_2 C 0.15217 0.06870 0.15192
N14_2 N 0.17748 0.17440 0.00830
C12_2 C 0.18130 0.09783 0.09808
Zn4_3 Zn 0.12500 0.00000 0.25000
N15_2 N 0.17440 0.00830 0.17748
Zn5_2 Zn 0.25000 0.12500 0.00000
N16_2 N 0.24170 0.07560 0.07252
H1_2 H 0.0413661 0.0901402 0.271916
H3_2 H 0.0219157 0.34014 0.208634
H5_2 H 0.271916 0.0413661 0.0901402
H7_2 H 0.0901402 0.271916 0.0413661
Zn5_3 Zn 0.25000 0.12500 1.00000
H12_2 H 0.15986 0.208634 0.978084
Zn4_4 Zn 0.12500 1.00000 0.25000
H2_2 H 0.208634 0.978084 0.15986
Zn1_2 Zn 0.87500 0.50000 0.25000
N1_2 N 0.92440 0.42748 0.24170
N2_2 N 0.82560 0.49170 0.17748
C1_2 C 0.90217 0.40192 0.18130
C2_2 C 0.84783 0.43130 0.15192
C3_2 C 0.93130 0.34808 0.15217
N3_2 N 0.99170 0.32252 0.17440
Zn2_3 Zn 1.00000 0.25000 0.12500
N4_2 N 0.92440 0.57252 0.25830
N5_2 N 0.82560 0.50830 0.32252
C4_2 C 0.81870 0.40217 0.09808
C5_2 C 0.90192 0.31870 0.09783
C6_2 C 0.84808 0.34783 0.06870
N6_2 N 0.75830 0.42440 0.07252
N7_2 N 0.92748 0.25830 0.07560
N8_2 N 0.82252 0.32560 0.00830
Zn3_2 Zn 0.75000 0.37500 0.00000
H4_2 H 0.958634 0.40986 0.271916
H6_2 H 0.791366 0.521916 0.15986
H8_2 H 0.728084 0.458634 0.0901402
H10_2 H 0.978084 0.15986 0.208634
H11_2 H 0.90986 0.228084 0.0413661
Zn3_3 Zn 0.75000 0.37500 1.00000
N11_2 N 0.67748 0.32560 0.99170
N12_2 N 0.74170 0.42440 0.92748
H9_2 H 0.84014 0.291366 0.978084
H1_3 H 0.34014 0.208634 0.0219157
H4_3 H 0.65986 0.291366 0.0219157
C1_3 C 0.65192 0.34783 0.93130
C2_3 C 0.68130 0.40217 0.90192
C3_3 C 0.59808 0.31870 0.90217
N3_3 N 0.57252 0.25830 0.92440
Zn2_4 Zn 0.50000 0.25000 0.87500
C4_3 C 0.65217 0.43130 0.84808
C5_3 C 0.56870 0.34808 0.84783
C6_3 C 0.59783 0.40192 0.81870
N7_3 N 0.50830 0.32252 0.82560
N9_3 N 0.42748 0.24170 0.92440
N10_3 N 0.49170 0.17748 0.82560
C7_3 C 0.40192 0.18130 0.90217
C8_3 C 0.43130 0.15192 0.84783
C9_3 C 0.34808 0.15217 0.93130
C10_3 C 0.40217 0.09808 0.81870
N13_3 N 0.32252 0.17440 0.99170
C11_3 C 0.31870 0.09783 0.90192
N14_3 N 0.42440 0.07252 0.75830
C12_3 C 0.34783 0.06870 0.84808
N15_3 N 0.25830 0.07560 0.92748
N16_3 N 0.32560 0.00830 0.82252
H2_3 H 0.228084 0.0413661 0.90986
H3_3 H 0.59014 0.228084 0.958634
H6_3 H 0.771916 0.458634 0.90986
H7_3 H 0.521916 0.15986 0.791366
H8_3 H 0.708634 0.521916 0.84014
H9_3 H 0.541366 0.40986 0.728084
H10_3 H 0.40986 0.271916 0.958634
H11_3 H 0.478084 0.34014 0.791366
H12_3 H 0.458634 0.0901402 0.728084
H5_3 H 0.291366 0.978084 0.84014
H5_4 H 0.208634 0.0219157 0.34014
Zn2_5 Zn 0.00000 0.75000 0.37500
N9_4 N 0.07252 0.75830 0.42440
N10_4 N 0.00830 0.82252 0.32560
C7_4 C 0.09808 0.81870 0.40217
C8_4 C 0.06870 0.84808 0.34783
C9_4 C 0.15192 0.84783 0.43130
C10_4 C 0.09783 0.90192 0.31870
N13_4 N 0.17748 0.82560 0.49170
C11_4 C 0.18130 0.90217 0.40192
N14_4 N 0.07560 0.92748 0.25830
C12_4 C 0.15217 0.93130 0.34808
N15_4 N 0.24170 0.92440 0.42748
N16_4 N 0.17440 0.99170 0.32252
H1_4 H 0.15986 0.791366 0.521916
H2_4 H 0.271916 0.958634 0.40986
H10_4 H 0.0901402 0.728084 0.458634
H11_4 H 0.0219157 0.65986 0.291366
H12_4 H 0.0413661 0.90986 0.228084
C1_4 C 0.84808 0.65217 0.43130
C2_4 C 0.81870 0.59783 0.40192
C3_4 C 0.90192 0.68130 0.40217
N3_4 N 0.92748 0.74170 0.42440
Zn2_6 Zn 1.00000 0.75000 0.37500
C4_4 C 0.84783 0.56870 0.34808
C5_4 C 0.93130 0.65192 0.34783
C6_4 C 0.90217 0.59808 0.31870
N7_4 N 0.99170 0.67748 0.32560
H3_4 H 0.90986 0.771916 0.458634
H4_4 H 0.84014 0.708634 0.521916
H6_4 H 0.728084 0.541366 0.40986
H7_4 H 0.978084 0.84014 0.291366
H8_4 H 0.791366 0.478084 0.34014
H9_4 H 0.958634 0.59014 0.228084
Zn1_3 Zn 0.37500 0.50000 0.25000
N1_3 N 0.42440 0.42748 0.25830
N2_3 N 0.32560 0.49170 0.32252
C1_5 C 0.40217 0.40192 0.31870
C2_5 C 0.34783 0.43130 0.34808
C3_5 C 0.43130 0.34808 0.34783
N3_5 N 0.49170 0.32252 0.32560
Zn2_7 Zn 0.50000 0.25000 0.37500
N4_3 N 0.42440 0.57252 0.24170
N5_3 N 0.32560 0.50830 0.17748
C4_5 C 0.31870 0.40217 0.40192
C5_5 C 0.40192 0.31870 0.40217
C6_5 C 0.34808 0.34783 0.43130
N6_3 N 0.25830 0.42440 0.42748
N7_5 N 0.42748 0.25830 0.42440
N8_3 N 0.32252 0.32560 0.49170
Zn3_4 Zn 0.25000 0.37500 0.50000
N9_5 N 0.50830 0.17748 0.32560
N10_5 N 0.57252 0.24170 0.42440
N11_3 N 0.17748 0.32560 0.50830
N12_3 N 0.24170 0.42440 0.57252
C7_5 C 0.56870 0.15192 0.34783
C8_5 C 0.59808 0.18130 0.40217
C9_5 C 0.59783 0.09808 0.31870
C10_5 C 0.65192 0.15217 0.43130
N13_5 N 0.57560 0.07252 0.25830
C11_5 C 0.65217 0.06870 0.34808
N14_5 N 0.67748 0.17440 0.49170
C12_5 C 0.68130 0.09783 0.40192
Zn4_5 Zn 0.62500 0.00000 0.25000
N15_5 N 0.67440 0.00830 0.32252
Zn5_4 Zn 0.75000 0.12500 0.50000
N16_5 N 0.74170 0.07560 0.42748
H1_5 H 0.541366 0.0901402 0.228084
H3_5 H 0.521916 0.34014 0.291366
H4_5 H 0.458634 0.40986 0.228084
H5_5 H 0.771916 0.0413661 0.40986
H6_5 H 0.291366 0.521916 0.34014
H7_5 H 0.59014 0.271916 0.458634
H8_5 H 0.228084 0.458634 0.40986
H9_5 H 0.34014 0.291366 0.521916
H10_5 H 0.478084 0.15986 0.291366
H11_5 H 0.40986 0.228084 0.458634
H12_5 H 0.65986 0.208634 0.521916
Zn4_6 Zn 0.62500 1.00000 0.25000
H2_5 H 0.708634 0.978084 0.34014
Zn3_5 Zn 0.25000 0.62500 -0.00000
N11_4 N 0.32252 0.67440 0.00830
N12_4 N 0.25830 0.57560 0.07252
H9_6 H 0.15986 0.708634 0.0219157
Zn1_4 Zn 0.12500 0.50000 0.75000
N1_4 N 0.07560 0.57252 0.75830
N2_4 N 0.17440 0.50830 0.82252
C1_6 C 0.09783 0.59808 0.81870
C2_6 C 0.15217 0.56870 0.84808
C3_6 C 0.06870 0.65192 0.84783
N3_6 N 0.00830 0.67748 0.82560
Zn2_8 Zn 0.00000 0.75000 0.87500
N4_4 N 0.07560 0.42748 0.74170
N5_4 N 0.17440 0.49170 0.67748
C4_6 C 0.18130 0.59783 0.90192
C5_6 C 0.09808 0.68130 0.90217
C6_6 C 0.15192 0.65217 0.93130
N6_4 N 0.24170 0.57560 0.92748
N7_6 N 0.07252 0.74170 0.92440
N8_4 N 0.17748 0.67440 0.99170
Zn3_6 Zn 0.25000 0.62500 1.00000
H4_6 H 0.0413661 0.59014 0.728084
H6_6 H 0.208634 0.478084 0.84014
H8_6 H 0.271916 0.541366 0.90986
H10_6 H 0.0219157 0.84014 0.791366
H11_6 H 0.0901402 0.771916 0.958634
Zn4_7 Zn 0.87500 0.00000 0.75000
H2_6 H 0.791366 0.0219157 0.84014
Zn5_5 Zn 0.75000 0.87500 -0.00000
H12_6 H 0.84014 0.791366 0.0219157
Zn2_9 Zn 1.00000 0.75000 0.87500
N9_6 N 0.99170 0.82252 0.82560
N10_6 N 0.92748 0.75830 0.92440
C7_6 C 0.93130 0.84808 0.84783
C8_6 C 0.90192 0.81870 0.90217
C9_6 C 0.90217 0.90192 0.81870
C10_6 C 0.84808 0.84783 0.93130
N13_6 N 0.92440 0.92748 0.75830
C11_6 C 0.84783 0.93130 0.84808
N14_6 N 0.82252 0.82560 0.99170
C12_6 C 0.81870 0.90217 0.90192
Zn4_8 Zn 0.87500 1.00000 0.75000
N15_6 N 0.82560 0.99170 0.82252
Zn5_6 Zn 0.75000 0.87500 1.00000
N16_6 N 0.75830 0.92440 0.92748
H1_6 H 0.958634 0.90986 0.728084
H3_6 H 0.978084 0.65986 0.791366
H5_6 H 0.728084 0.958634 0.90986
H7_6 H 0.90986 0.728084 0.958634
H5_7 H 0.708634 0.0219157 0.15986
C1_7 C 0.34808 0.65217 0.06870
C2_7 C 0.31870 0.59783 0.09808
C3_7 C 0.40192 0.68130 0.09783
N3_7 N 0.42748 0.74170 0.07560
Zn2_10 Zn 0.50000 0.75000 0.12500
C4_7 C 0.34783 0.56870 0.15192
C5_7 C 0.43130 0.65192 0.15217
C6_7 C 0.40217 0.59808 0.18130
N7_7 N 0.49170 0.67748 0.17440
N9_7 N 0.57252 0.75830 0.07560
N10_7 N 0.50830 0.82252 0.17440
C7_7 C 0.59808 0.81870 0.09783
C8_7 C 0.56870 0.84808 0.15217
C9_7 C 0.65192 0.84783 0.06870
C10_7 C 0.59783 0.90192 0.18130
N13_7 N 0.67748 0.82560 0.00830
C11_7 C 0.68130 0.90217 0.09808
N14_7 N 0.57560 0.92748 0.24170
C12_7 C 0.65217 0.93130 0.15192
N15_7 N 0.74170 0.92440 0.07252
N16_7 N 0.67440 0.99170 0.17748
H2_7 H 0.771916 0.958634 0.0901402
H3_7 H 0.40986 0.771916 0.0413661
H6_7 H 0.228084 0.541366 0.0901402
H7_7 H 0.478084 0.84014 0.208634
H8_7 H 0.291366 0.478084 0.15986
H9_7 H 0.458634 0.59014 0.271916
H10_7 H 0.59014 0.728084 0.0413661
H11_7 H 0.521916 0.65986 0.208634
H12_7 H 0.541366 0.90986 0.271916
H1_7 H 0.65986 0.791366 0.978084
H4_7 H 0.34014 0.708634 0.978084
C1_8 C 0.15192 0.34783 0.56870
C2_8 C 0.18130 0.40217 0.59808
C3_8 C 0.09808 0.31870 0.59783
N3_8 N 0.07252 0.25830 0.57560
Zn2_11 Zn -0.00000 0.25000 0.62500
C4_8 C 0.15217 0.43130 0.65192
C5_8 C 0.06870 0.34808 0.65217
C6_8 C 0.09783 0.40192 0.68130
N7_8 N 0.00830 0.32252 0.67440
H3_8 H 0.0901402 0.228084 0.541366
H4_8 H 0.15986 0.291366 0.478084
H6_8 H 0.271916 0.458634 0.59014
H7_8 H 0.0219157 0.15986 0.708634
H8_8 H 0.208634 0.521916 0.65986
H9_8 H 0.0413661 0.40986 0.771916
Zn2_12 Zn 1.00000 0.25000 0.62500
N9_8 N 0.92748 0.24170 0.57560
N10_8 N 0.99170 0.17748 0.67440
C7_8 C 0.90192 0.18130 0.59783
C8_8 C 0.93130 0.15192 0.65217
C9_8 C 0.84808 0.15217 0.56870
C10_8 C 0.90217 0.09808 0.68130
N13_8 N 0.82252 0.17440 0.50830
C11_8 C 0.81870 0.09783 0.59808
N14_8 N 0.92440 0.07252 0.74170
C12_8 C 0.84783 0.06870 0.65192
N15_8 N 0.75830 0.07560 0.57252
N16_8 N 0.82560 0.00830 0.67748
H1_8 H 0.84014 0.208634 0.478084
H2_8 H 0.728084 0.0413661 0.59014
H10_8 H 0.90986 0.271916 0.541366
H11_8 H 0.978084 0.34014 0.708634
H12_8 H 0.958634 0.0901402 0.771916
H5_8 H 0.791366 0.978084 0.65986
loop_
_geom_bond_atom_site_label_1
_geom_bond_atom_site_label_2
_geom_bond_site_symmetry_1
_geom_bond_site_symmetry_2
Zn1 N1 1_555 1_555
N1 C1 1_555 1_555
N2 Zn1 1_555 1_555
C1 C2 1_555 1_555
C2 N2 1_555 1_555
C3 C1 1_555 1_555
N3 C3 1_555 1_555
Zn2 N3 1_555 1_555
N4 Zn1 1_555 1_555
N5 Zn1 1_555 1_555
C4 C2 1_555 1_555
C5 C3 1_555 1_555
C6 C4 1_555 1_555
N6 C4 1_555 1_555
N7 Zn2 1_555 1_555
N8 C6 1_555 1_555
Zn3 N6 1_555 1_555
N9 Zn2 1_555 1_555
N10 Zn2 1_555 1_555
N11 Zn3 1_555 1_555
N12 Zn3 1_555 1_555
C7 N9 1_555 1_555
C8 N10 1_555 1_555
C9 C7 1_555 1_555
C10 C8 1_555 1_555
N13 C9 1_555 1_555
C11 C9 1_555 1_555
N14 C10 1_555 1_555
C12 C10 1_555 1_555
Zn4_2 N13 1_555 1_555
N15 C11 1_555 1_555
Zn5 N14 1_555 1_555
N16 C12 1_555 1_555
C5 C6 1_555 1_555
C5 N7 1_555 1_555
N8 Zn3 1_555 1_555
C7 C8 1_555 1_555
C11 C12 1_555 1_555
Zn4_2 N15 1_555 1_555
Zn5 N16 1_555 1_555
N13 H1 1_555 1_555
N3 H3 1_555 1_555
N1 H4 1_555 1_555
N16 H5 1_555 1_555
N2 H6 1_555 1_555
N10 H7 1_555 1_555
N6 H8 1_555 1_555
N8 H9 1_555 1_555
N9 H10 1_555 1_555
N7 H11 1_555 1_555
N14 H12 1_555 1_555
N9_2 Zn2_2 1_555 1_555
N10_2 Zn2_2 1_555 1_555
C7_2 N9_2 1_555 1_555
C8_2 N10_2 1_555 1_555
C9_2 C7_2 1_555 1_555
C10_2 C8_2 1_555 1_555
N13_2 C9_2 1_555 1_555
C11_2 C9_2 1_555 1_555
N14_2 C10_2 1_555 1_555
C12_2 C10_2 1_555 1_555
Zn4_3 N13_2 1_555 1_555
N15_2 C11_2 1_555 1_555
Zn5_2 N14_2 1_555 1_555
N16_2 C12_2 1_555 1_555
C7_2 C8_2 1_555 1_555
C11_2 C12_2 1_555 1_555
Zn4_3 N15_2 1_555 1_555
Zn5_2 N16_2 1_555 1_555
N13_2 H1_2 1_555 1_555
N16_2 H5_2 1_555 1_555
N10_2 H7_2 1_555 1_555
Zn1_2 N1_2 1_555 1_555
N1_2 C1_2 1_555 1_555
N2_2 Zn1_2 1_555 1_555
C1_2 C2_2 1_555 1_555
C2_2 N2_2 1_555 1_555
C3_2 C1_2 1_555 1_555
N3_2 C3_2 1_555 1_555
Zn2_3 N3_2 1_555 1_555
N4_2 Zn1_2 1_555 1_555
N5_2 Zn1_2 1_555 1_555
C4_2 C2_2 1_555 1_555
C5_2 C3_2 1_555 1_555
C6_2 C4_2 1_555 1_555
N6_2 C4_2 1_555 1_555
N7_2 Zn2_3 1_555 1_555
N8_2 C6_2 1_555 1_555
Zn3_2 N6_2 1_555 1_555
C5_2 C6_2 1_555 1_555
C5_2 N7_2 1_555 1_555
N8_2 Zn3_2 1_555 1_555
N1_2 H4_2 1_555 1_555
N2_2 H6_2 1_555 1_555
N6_2 H8_2 1_555 1_555
N7_2 H11_2 1_555 1_555
N11_2 Zn3_3 1_555 1_555
N12_2 Zn3_3 1_555 1_555
N11_2 C1_3 1_555 1_555
C1_3 C2_3 1_555 1_555
C2_3 N12_2 1_555 1_555
C3_3 C1_3 1_555 1_555
N3_3 C3_3 1_555 1_555
Zn2_4 N3_3 1_555 1_555
C4_3 C2_3 1_555 1_555
C5_3 C3_3 1_555 1_555
C6_3 C4_3 1_555 1_555
N5 C4_3 1_555 1_555
N7_3 Zn2_4 1_555 1_555
N4 C6_3 1_555 1_555
N9_3 Zn2_4 1_555 1_555
N10_3 Zn2_4 1_555 1_555
C7_3 N9_3 1_555 1_555
C8_3 N10_3 1_555 1_555
C9_3 C7_3 1_555 1_555
C10_3 C8_3 1_555 1_555
N13_3 C9_3 1_555 1_555
C11_3 C9_3 1_555 1_555
N14_3 C10_3 1_555 1_555
C12_3 C10_3 1_555 1_555
Zn5_3 N13_3 1_555 1_555
N15_3 C11_3 1_555 1_555
Zn4 N14_3 1_555 1_555
N16_3 C12_3 1_555 1_555
C5_3 C6_3 1_555 1_555
C5_3 N7_3 1_555 1_555
C7_3 C8_3 1_555 1_555
C11_3 C12_3 1_555 1_555
Zn5_3 N15_3 1_555 1_555
Zn4 N16_3 1_555 1_555
N15_3 H2_3 1_555 1_555
N3_3 H3_3 1_555 1_555
N12_2 H6_3 1_555 1_555
N10_3 H7_3 1_555 1_555
N5 H8_3 1_555 1_555
N4 H9_3 1_555 1_555
N9_3 H10_3 1_555 1_555
N7_3 H11_3 1_555 1_555
N14_3 H12_3 1_555 1_555
N9_4 Zn2_5 1_555 1_555
N10_4 Zn2_5 1_555 1_555
C7_4 N9_4 1_555 1_555
C8_4 N10_4 1_555 1_555
C9_4 C7_4 1_555 1_555
C10_4 C8_4 1_555 1_555
N13_4 C9_4 1_555 1_555
C11_4 C9_4 1_555 1_555
N14_4 C10_4 1_555 1_555
C12_4 C10_4 1_555 1_555
Zn5 N13_4 1_555 1_555
N15_4 C11_4 1_555 1_555
Zn4_4 N14_4 1_555 1_555
N16_4 C12_4 1_555 1_555
C7_4 C8_4 1_555 1_555
C11_4 C12_4 1_555 1_555
Zn5 N15_4 1_555 1_555
Zn4_4 N16_4 1_555 1_555
N13_4 H1_4 1_555 1_555
N15_4 H2_4 1_555 1_555
N9_4 H10_4 1_555 1_555
N14_4 H12_4 1_555 1_555
N11 C1_4 1_555 1_555
C1_4 C2_4 1_555 1_555
C2_4 N12 1_555 1_555
C3_4 C1_4 1_555 1_555
N3_4 C3_4 1_555 1_555
Zn2_6 N3_4 1_555 1_555
C4_4 C2_4 1_555 1_555
C5_4 C3_4 1_555 1_555
C6_4 C4_4 1_555 1_555
N5_2 C4_4 1_555 1_555
N7_4 Zn2_6 1_555 1_555
N4_2 C6_4 1_555 1_555
C5_4 C6_4 1_555 1_555
C5_4 N7_4 1_555 1_555
N3_4 H3_4 1_555 1_555
N11 H4_4 1_555 1_555
N12 H6_4 1_555 1_555
N5_2 H8_4 1_555 1_555
N4_2 H9_4 1_555 1_555
Zn1_3 N1_3 1_555 1_555
N1_3 C1_5 1_555 1_555
N2_3 Zn1_3 1_555 1_555
C1_5 C2_5 1_555 1_555
C2_5 N2_3 1_555 1_555
C3_5 C1_5 1_555 1_555
N3_5 C3_5 1_555 1_555
Zn2_7 N3_5 1_555 1_555
N4_3 Zn1_3 1_555 1_555
N5_3 Zn1_3 1_555 1_555
C4_5 C2_5 1_555 1_555
C5_5 C3_5 1_555 1_555
C6_5 C4_5 1_555 1_555
N6_3 C4_5 1_555 1_555
N7_5 Zn2_7 1_555 1_555
N8_3 C6_5 1_555 1_555
Zn3_4 N6_3 1_555 1_555
N9_5 Zn2_7 1_555 1_555
N10_5 Zn2_7 1_555 1_555
N11_3 Zn3_4 1_555 1_555
N12_3 Zn3_4 1_555 1_555
C7_5 N9_5 1_555 1_555
C8_5 N10_5 1_555 1_555
C9_5 C7_5 1_555 1_555
C10_5 C8_5 1_555 1_555
N13_5 C9_5 1_555 1_555
C11_5 C9_5 1_555 1_555
N14_5 C10_5 1_555 1_555
C12_5 C10_5 1_555 1_555
Zn4_5 N13_5 1_555 1_555
N15_5 C11_5 1_555 1_555
Zn5_4 N14_5 1_555 1_555
N16_5 C12_5 1_555 1_555
C5_5 C6_5 1_555 1_555
C5_5 N7_5 1_555 1_555
N8_3 Zn3_4 1_555 1_555
C7_5 C8_5 1_555 1_555
C11_5 C12_5 1_555 1_555
Zn4_5 N15_5 1_555 1_555
Zn5_4 N16_5 1_555 1_555
N13_5 H1_5 1_555 1_555
N3_5 H3_5 1_555 1_555
N1_3 H4_5 1_555 1_555
N16_5 H5_5 1_555 1_555
N2_3 H6_5 1_555 1_555
N10_5 H7_5 1_555 1_555
N6_3 H8_5 1_555 1_555
N8_3 H9_5 1_555 1_555
N9_5 H10_5 1_555 1_555
N7_5 H11_5 1_555 1_555
N14_5 H12_5 1_555 1_555
N11_4 Zn3_5 1_555 1_555
N12_4 Zn3_5 1_555 1_555
Zn1_4 N1_4 1_555 1_555
N1_4 C1_6 1_555 1_555
N2_4 Zn1_4 1_555 1_555
C1_6 C2_6 1_555 1_555
C2_6 N2_4 1_555 1_555
C3_6 C1_6 1_555 1_555
N3_6 C3_6 1_555 1_555
Zn2_8 N3_6 1_555 1_555
N4_4 Zn1_4 1_555 1_555
N5_4 Zn1_4 1_555 1_555
C4_6 C2_6 1_555 1_555
C5_6 C3_6 1_555 1_555
C6_6 C4_6 1_555 1_555
N6_4 C4_6 1_555 1_555
N7_6 Zn2_8 1_555 1_555
N8_4 C6_6 1_555 1_555
Zn3_6 N6_4 1_555 1_555
C5_6 C6_6 1_555 1_555
C5_6 N7_6 1_555 1_555
N8_4 Zn3_6 1_555 1_555
N1_4 H4_6 1_555 1_555
N2_4 H6_6 1_555 1_555
N6_4 H8_6 1_555 1_555
N7_6 H11_6 1_555 1_555
N9_6 Zn2_9 1_555 1_555
N10_6 Zn2_9 1_555 1_555
C7_6 N9_6 1_555 1_555
C8_6 N10_6 1_555 1_555
C9_6 C7_6 1_555 1_555
C10_6 C8_6 1_555 1_555
N13_6 C9_6 1_555 1_555
C11_6 C9_6 1_555 1_555
N14_6 C10_6 1_555 1_555
C12_6 C10_6 1_555 1_555
Zn4_8 N13_6 1_555 1_555
N15_6 C11_6 1_555 1_555
Zn5_6 N14_6 1_555 1_555
N16_6 C12_6 1_555 1_555
C7_6 C8_6 1_555 1_555
C11_6 C12_6 1_555 1_555
Zn4_8 N15_6 1_555 1_555
Zn5_6 N16_6 1_555 1_555
N13_6 H1_6 1_555 1_555
N16_6 H5_6 1_555 1_555
N10_6 H7_6 1_555 1_555
N11_4 C1_7 1_555 1_555
C1_7 C2_7 1_555 1_555
C2_7 N12_4 1_555 1_555
C3_7 C1_7 1_555 1_555
N3_7 C3_7 1_555 1_555
Zn2_10 N3_7 1_555 1_555
C4_7 C2_7 1_555 1_555
C5_7 C3_7 1_555 1_555
C6_7 C4_7 1_555 1_555
N5_3 C4_7 1_555 1_555
N7_7 Zn2_10 1_555 1_555
N4_3 C6_7 1_555 1_555
N9_7 Zn2_10 1_555 1_555
N10_7 Zn2_10 1_555 1_555
C7_7 N9_7 1_555 1_555
C8_7 N10_7 1_555 1_555
C9_7 C7_7 1_555 1_555
C10_7 C8_7 1_555 1_555
N13_7 C9_7 1_555 1_555
C11_7 C9_7 1_555 1_555
N14_7 C10_7 1_555 1_555
C12_7 C10_7 1_555 1_555
Zn5_5 N13_7 1_555 1_555
N15_7 C11_7 1_555 1_555
Zn4_6 N14_7 1_555 1_555
N16_7 C12_7 1_555 1_555
C5_7 C6_7 1_555 1_555
C5_7 N7_7 1_555 1_555
C7_7 C8_7 1_555 1_555
C11_7 C12_7 1_555 1_555
Zn5_5 N15_7 1_555 1_555
Zn4_6 N16_7 1_555 1_555
N15_7 H2_7 1_555 1_555
N3_7 H3_7 1_555 1_555
N12_4 H6_7 1_555 1_555
N10_7 H7_7 1_555 1_555
N5_3 H8_7 1_555 1_555
N4_3 H9_7 1_555 1_555
N9_7 H10_7 1_555 1_555
N7_7 H11_7 1_555 1_555
N14_7 H12_7 1_555 1_555
N11_3 C1_8 1_555 1_555
C1_8 C2_8 1_555 1_555
C2_8 N12_3 1_555 1_555
C3_8 C1_8 1_555 1_555
N3_8 C3_8 1_555 1_555
Zn2_11 N3_8 1_555 1_555
C4_8 C2_8 1_555 1_555
C5_8 C3_8 1_555 1_555
C6_8 C4_8 1_555 1_555
N5_4 C4_8 1_555 1_555
N7_8 Zn2_11 1_555 1_555
N4_4 C6_8 1_555 1_555
C5_8 C6_8 1_555 1_555
C5_8 N7_8 1_555 1_555
N3_8 H3_8 1_555 1_555
N11_3 H4_8 1_555 1_555
N12_3 H6_8 1_555 1_555
N5_4 H8_8 1_555 1_555
N4_4 H9_8 1_555 1_555
N9_8 Zn2_12 1_555 1_555
N10_8 Zn2_12 1_555 1_555
C7_8 N9_8 1_555 1_555
C8_8 N10_8 1_555 1_555
C9_8 C7_8 1_555 1_555
C10_8 C8_8 1_555 1_555
N13_8 C9_8 1_555 1_555
C11_8 C9_8 1_555 1_555
N14_8 C10_8 1_555 1_555
C12_8 C10_8 1_555 1_555
Zn5_4 N13_8 1_555 1_555
N15_8 C11_8 1_555 1_555
Zn4_7 N14_8 1_555 1_555
N16_8 C12_8 1_555 1_555
C7_8 C8_8 1_555 1_555
C11_8 C12_8 1_555 1_555
Zn5_4 N15_8 1_555 1_555
Zn4_7 N16_8 1_555 1_555
N13_8 H1_8 1_555 1_555
N15_8 H2_8 1_555 1_555
N9_8 H10_8 1_555 1_555
N14_8 H12_8 1_555 1_555

#END
