
###############################################################################
#
# This file contains modified crystal structure data generated from the
# MOF subset of the Cambridge Structural Database (CSD) v543 
# hosted by the Cambridge Crystallographic Data Centre (CCDC).
#
# This work is licensed under the Creative Commons
# Attribution-NonCommercial-ShareAlike 4.0 International License.
# To view a copy of this license, visit
# http://creativecommons.org/licenses/by-nc-sa/4.0/
# or send a letter to
# Creative Commons, PO Box 1866, Mountain View, CA 94042, USA.
#
# CIF created using the CSD Python API on 29 September 2022
# The structure has been converted into the P1 space group
# The structure has a 3D framework
# The original CSD entry WAHBOA07 is in the hexagonal crystal system
# The framework has been calculated to contain at least 10.0% void space
# The void calculation uses a probe of radius 1.32A, grid spacing 0.4
# H atom positions have been added when not included in the experimental data
#
###############################################################################

data_WAHBOA07
_chemical_formula_moiety         '(C300 H300 N300 Zn82)n'
_symmetry_cell_setting           triclinic
_symmetry_space_group_name_H-M   'P 1'
_symmetry_Int_Tables_number      1
_space_group_name_Hall           'P 1'
loop_
_symmetry_equiv_pos_site_id
_symmetry_equiv_pos_as_xyz
1 x,y,z
_cell_length_a                   88.0040
_cell_length_b                   88.0040
_cell_length_c                   12.8225
_cell_angle_alpha                90
_cell_angle_beta                 90
_cell_angle_gamma                120
_cell_volume                     86001.9
loop_
_atom_site_label
_atom_site_type_symbol
_atom_site_fract_x
_atom_site_fract_y
_atom_site_fract_z
_atom_site_U_iso_or_equiv
_atom_site_thermal_displace_type
Zn5 Zn 0.50000 0.00000 0.00000 0.0500 Uiso
Zn6 Zn 0.33350 0.16675 0.00000 0.0500 Uiso
C25 C 0.44463 -0.00000 0.05462 0.0500 Uiso
N25 N 0.43068 -0.00000 0.11187 0.0500 Uiso
C26 C 0.45855 -0.00000 0.10975 0.0500 Uiso
N26 N 0.45830 0.00000 0.22131 0.0500 Uiso
C27 C 0.47234 -0.00000 0.05517 0.0500 Uiso
N27 N 0.48653 -0.00000 0.10964 0.0500 Uiso
C28 C 0.33354 0.13890 0.05516 0.0500 Uiso
N28 N 0.33353 0.15309 0.10961 0.0500 Uiso
C29 C 0.33355 0.12506 0.10954 0.0500 Uiso
N29 N 0.33356 0.12487 0.22130 0.0500 Uiso
C30 C 0.33357 0.11120 0.05458 0.0500 Uiso
N30 N 0.33358 0.09726 0.11186 0.0500 Uiso
C52 C 0.55537 -0.00000 0.05462 0.0500 Uiso
N52 N 0.56932 -0.00000 0.11187 0.0500 Uiso
C53 C 0.54145 -0.00000 0.10975 0.0500 Uiso
N53 N 0.54170 0.00000 0.22131 0.0500 Uiso
C54 C 0.52766 -0.00000 0.05517 0.0500 Uiso
N54 N 0.51347 -0.00000 0.10964 0.0500 Uiso
C76 C 0.80536 0.13890 0.05516 0.0500 Uiso
N76 N 0.81956 0.15309 0.10961 0.0500 Uiso
C77 C 0.79151 0.12506 0.10954 0.0500 Uiso
N77 N 0.79131 0.12487 0.22130 0.0500 Uiso
C78 C 0.77763 0.11120 0.05458 0.0500 Uiso
N78 N 0.76368 0.09726 0.11186 0.0500 Uiso
Zn20 Zn 0.83325 0.16675 0.00000 0.0500 Uiso
Zn22 Zn 0.43718 -0.00000 0.25038 0.0500 Uiso
Zn23 Zn 0.56282 -0.00000 0.25038 0.0500 Uiso
Zn25 Zn 0.77019 0.10377 0.25015 0.0500 Uiso
Zn27 Zn 0.33358 0.10377 0.25015 0.0500 Uiso
N90 N 0.33353 0.18044 0.10961 0.0500 Uiso
N91 N 0.84691 0.18044 0.10961 0.0500 Uiso
H1 H 0.333557 0.133741 0.271876 . .
H14 H 0.333586 0.0864666 0.0840122 . .
H18 H 0.580114 3.08149e-33 0.083974 . .
H24 H 0.511403 -3.08149e-33 0.187517 . .
H29 H 0.532835 6.16298e-33 0.271948 . .
H49 H 0.752881 0.0864666 0.0840122 . .
H50 H 0.821582 0.155119 0.187538 . .
H51 H 0.800184 0.133741 0.271876 . .
H73 H 0.467165 6.16298e-33 0.271948 . .
H74 H 0.488597 -3.08149e-33 0.187517 . .
H75 H 0.333537 0.155119 0.187538 . .
H77 H 0.419886 3.27408e-33 0.083974 . .
Zn1 Zn 0.33348 0.04131 0.50000 0.0500 Uiso
C4 C 0.42994 -0.00000 0.44540 0.0500 Uiso
N4 N 0.44388 -0.00000 0.38800 0.0500 Uiso
C5 C 0.41605 -0.00000 0.39027 0.0500 Uiso
N5 N 0.41636 0.00000 0.27874 0.0500 Uiso
C6 C 0.40224 0.00000 0.44469 0.0500 Uiso
N6 N 0.38808 0.00000 0.38962 0.0500 Uiso
Zn2 Zn 0.43718 -0.00000 0.74962 0.0500 Uiso
Zn3 Zn 0.37481 0.00000 0.50000 0.0500 Uiso
C7 C 0.33350 0.06872 0.55523 0.0500 Uiso
N7 N 0.33348 0.05458 0.61038 0.0500 Uiso
C8 C 0.33352 0.08244 0.60941 0.0500 Uiso
N8 N 0.33353 0.08288 0.72126 0.0500 Uiso
C9 C 0.33355 0.09638 0.55501 0.0500 Uiso
N9 N 0.33356 0.11041 0.61200 0.0500 Uiso
C10 C 0.44463 0.00000 0.94538 0.0500 Uiso
N10 N 0.43068 -0.00000 0.88813 0.0500 Uiso
C11 C 0.45855 -0.00000 0.89025 0.0500 Uiso
N11 N 0.45830 -0.00000 0.77869 0.0500 Uiso
C12 C 0.47234 0.00000 0.94483 0.0500 Uiso
N12 N 0.48653 0.00000 0.89036 0.0500 Uiso
Zn4 Zn 0.33358 0.10377 0.74985 0.0500 Uiso
Zn5_2 Zn 0.50000 0.00000 1.00000 0.0500 Uiso
C13 C 0.33354 0.13890 0.94484 0.0500 Uiso
N13 N 0.33353 0.15309 0.89039 0.0500 Uiso
C14 C 0.33357 0.11120 0.94542 0.0500 Uiso
N14 N 0.33358 0.09726 0.88814 0.0500 Uiso
C15 C 0.33355 0.12506 0.89046 0.0500 Uiso
N15 N 0.33356 0.12487 0.77870 0.0500 Uiso
Zn6_2 Zn 0.33350 0.16675 1.00000 0.0500 Uiso
C16 C 0.34283 0.01849 0.50000 0.0500 Uiso
N16 N 0.35202 0.03731 0.50000 0.0500 Uiso
C17 C 0.35202 0.00930 0.50000 0.0500 Uiso
N17 N 0.37081 0.01855 0.50000 0.0500 Uiso
C18 C 0.32423 0.00919 0.50000 0.0500 Uiso
N18 N 0.31498 0.01874 0.50000 0.0500 Uiso
C19 C 0.42994 -0.00000 0.55460 0.0500 Uiso
N19 N 0.44388 0.00000 0.61200 0.0500 Uiso
C20 C 0.41605 -0.00000 0.60973 0.0500 Uiso
N20 N 0.41636 -0.00000 0.72126 0.0500 Uiso
C21 C 0.40224 0.00000 0.55531 0.0500 Uiso
N21 N 0.38808 0.00000 0.61038 0.0500 Uiso
C22 C 0.33350 0.06872 0.44477 0.0500 Uiso
N22 N 0.33348 0.05458 0.38962 0.0500 Uiso
C23 C 0.33352 0.08244 0.39059 0.0500 Uiso
N23 N 0.33353 0.08288 0.27874 0.0500 Uiso
C24 C 0.33355 0.09638 0.44499 0.0500 Uiso
N24 N 0.33356 0.11041 0.38800 0.0500 Uiso
C31 C 0.67566 0.01849 0.50000 0.0500 Uiso
N31 N 0.68529 0.03731 0.50000 0.0500 Uiso
C32 C 0.65728 0.00930 0.50000 0.0500 Uiso
N32 N 0.64774 0.01855 0.50000 0.0500 Uiso
C33 C 0.68496 0.00919 0.50000 0.0500 Uiso
N33 N 0.70376 0.01874 0.50000 0.0500 Uiso
C34 C 0.57006 -0.00000 0.44540 0.0500 Uiso
N34 N 0.55612 -0.00000 0.38800 0.0500 Uiso
C35 C 0.58395 -0.00000 0.39027 0.0500 Uiso
N35 N 0.58364 0.00000 0.27874 0.0500 Uiso
C36 C 0.59776 0.00000 0.44469 0.0500 Uiso
N36 N 0.61192 0.00000 0.38962 0.0500 Uiso
Zn8 Zn 0.56282 -0.00000 0.74962 0.0500 Uiso
Zn9 Zn 0.62519 0.00000 0.50000 0.0500 Uiso
C40 C 0.57006 -0.00000 0.55460 0.0500 Uiso
N40 N 0.55612 0.00000 0.61200 0.0500 Uiso
C41 C 0.58395 -0.00000 0.60973 0.0500 Uiso
N41 N 0.58364 -0.00000 0.72126 0.0500 Uiso
C42 C 0.59776 0.00000 0.55531 0.0500 Uiso
N42 N 0.61192 0.00000 0.61038 0.0500 Uiso
C49 C 0.55537 0.00000 0.94538 0.0500 Uiso
N49 N 0.56932 -0.00000 0.88813 0.0500 Uiso
C50 C 0.54145 -0.00000 0.89025 0.0500 Uiso
N50 N 0.54170 -0.00000 0.77869 0.0500 Uiso
C51 C 0.52766 0.00000 0.94483 0.0500 Uiso
N51 N 0.51347 0.00000 0.89036 0.0500 Uiso
Zn14 Zn 0.70783 0.04131 0.50000 0.0500 Uiso
C67 C 0.73522 0.06872 0.44477 0.0500 Uiso
N67 N 0.72110 0.05458 0.38962 0.0500 Uiso
C68 C 0.74892 0.08244 0.39059 0.0500 Uiso
N68 N 0.74935 0.08288 0.27874 0.0500 Uiso
C69 C 0.76283 0.09638 0.44499 0.0500 Uiso
N69 N 0.77685 0.11041 0.38800 0.0500 Uiso
C70 C 0.73522 0.06872 0.55523 0.0500 Uiso
N70 N 0.72110 0.05458 0.61038 0.0500 Uiso
C71 C 0.74892 0.08244 0.60941 0.0500 Uiso
N71 N 0.74935 0.08288 0.72126 0.0500 Uiso
C72 C 0.76283 0.09638 0.55501 0.0500 Uiso
N72 N 0.77685 0.11041 0.61200 0.0500 Uiso
Zn19 Zn 0.77019 0.10377 0.74985 0.0500 Uiso
C73 C 0.80536 0.13890 0.94484 0.0500 Uiso
N73 N 0.81956 0.15309 0.89039 0.0500 Uiso
C74 C 0.77763 0.11120 0.94542 0.0500 Uiso
N74 N 0.76368 0.09726 0.88814 0.0500 Uiso
C75 C 0.79151 0.12506 0.89046 0.0500 Uiso
N75 N 0.79131 0.12487 0.77870 0.0500 Uiso
Zn20_2 Zn 0.83325 0.16675 1.00000 0.0500 Uiso
N89 N 0.84691 0.18044 0.89039 0.0500 Uiso
N92 N 0.33353 0.18044 0.89039 0.0500 Uiso
H3 H 0.545301 -1.54074e-33 0.415438 . .
H5 H 0.545301 -1.54074e-33 0.584562 . .
H7 H 0.614015 0 0.31178 . .
H8 H 0.712391 0.0142712 0.5 . .
H9 H 0.614015 4.62223e-33 0.68822 . .
H10 H 0.592484 -1.54074e-33 0.772071 . .
H11 H 0.592484 -1.54074e-33 0.227929 . .
H13 H 0.680866 0.0459769 0.5 . .
H15 H 0.652192 0.031646 0.5 . .
H19 H 0.580114 -9.24446e-33 0.916026 . .
H23 H 0.511403 -3.08149e-33 0.812483 . .
H30 H 0.532835 -4.62223e-33 0.728052 . .
H40 H 0.719019 0.0524878 0.311769 . .
H41 H 0.787653 0.12121 0.415756 . .
H42 H 0.740538 0.0740522 0.772268 . .
H43 H 0.821582 0.155119 0.812462 . .
H44 H 0.719019 0.0524878 0.688231 . .
H45 H 0.752881 0.0864666 0.915988 . .
H46 H 0.740538 0.0740522 0.227732 . .
H47 H 0.787653 0.12121 0.584244 . .
H48 H 0.800184 0.133741 0.728124 . .
H60 H 0.333557 0.12121 0.584244 . .
H61 H 0.333537 0.155119 0.812462 . .
H62 H 0.385985 -7.70372e-34 0.31178 . .
H63 H 0.467165 -4.62223e-33 0.728052 . .
H64 H 0.333514 0.0740522 0.772268 . .
H65 H 0.365111 0.0459769 0.5 . .
H66 H 0.454699 -1.54074e-33 0.415438 . .
H67 H 0.333586 0.0864666 0.915988 . .
H68 H 0.419886 -3.08149e-33 0.916026 . .
H69 H 0.488597 -3.08149e-33 0.812483 . .
H70 H 0.407516 -1.54074e-33 0.227929 . .
H71 H 0.333469 0.0524878 0.688231 . .
H72 H 0.333557 0.133741 0.728124 . .
H76 H 0.333514 0.0740522 0.227732 . .
H78 H 0.379454 0.031646 0.5 . .
H79 H 0.385985 -3.08149e-33 0.68822 . .
H80 H 0.407516 -3.08149e-33 0.772071 . .
H81 H 0.301881 0.0142712 0.5 . .
H82 H 0.333557 0.12121 0.415756 . .
H83 H 0.333469 0.0524878 0.311769 . .
H84 H 0.454699 -1.54074e-33 0.584562 . .
Zn5_3 Zn 0.50000 1.00000 0.00000 0.0500 Uiso
C25_2 C 0.44463 1.00000 0.05462 0.0500 Uiso
N25_2 N 0.43068 1.00000 0.11187 0.0500 Uiso
C26_2 C 0.45855 1.00000 0.10975 0.0500 Uiso
N26_2 N 0.45830 1.00000 0.22131 0.0500 Uiso
C27_2 C 0.47234 1.00000 0.05517 0.0500 Uiso
N27_2 N 0.48653 1.00000 0.10964 0.0500 Uiso
C52_2 C 0.55537 1.00000 0.05462 0.0500 Uiso
N52_2 N 0.56932 1.00000 0.11187 0.0500 Uiso
C53_2 C 0.54145 1.00000 0.10975 0.0500 Uiso
N53_2 N 0.54170 1.00000 0.22131 0.0500 Uiso
C54_2 C 0.52766 1.00000 0.05517 0.0500 Uiso
N54_2 N 0.51347 1.00000 0.10964 0.0500 Uiso
C58 C 0.66646 0.86110 0.05516 0.0500 Uiso
N58 N 0.66647 0.84691 0.10961 0.0500 Uiso
C59 C 0.66645 0.87494 0.10954 0.0500 Uiso
N59 N 0.66644 0.87513 0.22130 0.0500 Uiso
C60 C 0.66643 0.88880 0.05458 0.0500 Uiso
N60 N 0.66642 0.90274 0.11186 0.0500 Uiso
C82 C 0.19464 0.86110 0.05516 0.0500 Uiso
N82 N 0.18044 0.84691 0.10961 0.0500 Uiso
C83 C 0.20849 0.87494 0.10954 0.0500 Uiso
N83 N 0.20869 0.87513 0.22130 0.0500 Uiso
C84 C 0.22237 0.88880 0.05458 0.0500 Uiso
N84 N 0.23632 0.90274 0.11186 0.0500 Uiso
Zn22_2 Zn 0.43718 1.00000 0.25038 0.0500 Uiso
Zn23_2 Zn 0.56282 1.00000 0.25038 0.0500 Uiso
Zn24 Zn 0.22981 0.89623 0.25015 0.0500 Uiso
Zn26 Zn 0.66642 0.89623 0.25015 0.0500 Uiso
Zn28 Zn 0.66650 0.83325 0.00000 0.0500 Uiso
Zn29 Zn 0.16675 0.83325 0.00000 0.0500 Uiso
H17 H 0.666463 0.844881 0.187538 . .
H18_2 H 0.580114 1 0.083974 . .
H24_2 H 0.511403 1 0.187517 . .
H29_2 H 0.532835 1 0.271948 . .
H31 H 0.666414 0.913533 0.0840122 . .
H33 H 0.666443 0.866259 0.271876 . .
H52 H 0.247119 0.913533 0.0840122 . .
H55 H 0.178418 0.844881 0.187538 . .
H56 H 0.199816 0.866259 0.271876 . .
H73_2 H 0.467165 1 0.271948 . .
H74_2 H 0.488597 1 0.187517 . .
H77_2 H 0.419886 1 0.083974 . .
C1 C 0.32434 0.98151 0.50000 0.0500 Uiso
N1 N 0.31471 0.96269 0.50000 0.0500 Uiso
C2 C 0.34272 0.99070 0.50000 0.0500 Uiso
N2 N 0.35226 0.98145 0.50000 0.0500 Uiso
C3 C 0.31504 0.99081 0.50000 0.0500 Uiso
N3 N 0.29624 0.98126 0.50000 0.0500 Uiso
C4_2 C 0.42994 1.00000 0.44540 0.0500 Uiso
N4_2 N 0.44388 1.00000 0.38800 0.0500 Uiso
C5_2 C 0.41605 1.00000 0.39027 0.0500 Uiso
N5_2 N 0.41636 1.00000 0.27874 0.0500 Uiso
C6_2 C 0.40224 1.00000 0.44469 0.0500 Uiso
N6_2 N 0.38808 1.00000 0.38962 0.0500 Uiso
Zn2_2 Zn 0.43718 1.00000 0.74962 0.0500 Uiso
Zn3_2 Zn 0.37481 1.00000 0.50000 0.0500 Uiso
C10_2 C 0.44463 1.00000 0.94538 0.0500 Uiso
N10_2 N 0.43068 1.00000 0.88813 0.0500 Uiso
C11_2 C 0.45855 1.00000 0.89025 0.0500 Uiso
N11_2 N 0.45830 1.00000 0.77869 0.0500 Uiso
C12_2 C 0.47234 1.00000 0.94483 0.0500 Uiso
N12_2 N 0.48653 1.00000 0.89036 0.0500 Uiso
Zn5_4 Zn 0.50000 1.00000 1.00000 0.0500 Uiso
C19_2 C 0.42994 1.00000 0.55460 0.0500 Uiso
N19_2 N 0.44388 1.00000 0.61200 0.0500 Uiso
C20_2 C 0.41605 1.00000 0.60973 0.0500 Uiso
N20_2 N 0.41636 1.00000 0.72126 0.0500 Uiso
C21_2 C 0.40224 1.00000 0.55531 0.0500 Uiso
N21_2 N 0.38808 1.00000 0.61038 0.0500 Uiso
Zn7 Zn 0.66652 0.95869 0.50000 0.0500 Uiso
C34_2 C 0.57006 1.00000 0.44540 0.0500 Uiso
N34_2 N 0.55612 1.00000 0.38800 0.0500 Uiso
C35_2 C 0.58395 1.00000 0.39027 0.0500 Uiso
N35_2 N 0.58364 1.00000 0.27874 0.0500 Uiso
C36_2 C 0.59776 1.00000 0.44469 0.0500 Uiso
N36_2 N 0.61192 1.00000 0.38962 0.0500 Uiso
Zn8_2 Zn 0.56282 1.00000 0.74962 0.0500 Uiso
Zn9_2 Zn 0.62519 1.00000 0.50000 0.0500 Uiso
C37 C 0.65717 0.98151 0.50000 0.0500 Uiso
N37 N 0.64798 0.96269 0.50000 0.0500 Uiso
C38 C 0.64798 0.99070 0.50000 0.0500 Uiso
N38 N 0.62919 0.98145 0.50000 0.0500 Uiso
C39 C 0.67577 0.99081 0.50000 0.0500 Uiso
N39 N 0.68502 0.98126 0.50000 0.0500 Uiso
C40_2 C 0.57006 1.00000 0.55460 0.0500 Uiso
N40_2 N 0.55612 1.00000 0.61200 0.0500 Uiso
C41_2 C 0.58395 1.00000 0.60973 0.0500 Uiso
N41_2 N 0.58364 1.00000 0.72126 0.0500 Uiso
C42_2 C 0.59776 1.00000 0.55531 0.0500 Uiso
N42_2 N 0.61192 1.00000 0.61038 0.0500 Uiso
C43 C 0.66650 0.93128 0.55523 0.0500 Uiso
N43 N 0.66652 0.94542 0.61038 0.0500 Uiso
C44 C 0.66648 0.91756 0.60941 0.0500 Uiso
N44 N 0.66647 0.91712 0.72126 0.0500 Uiso
C45 C 0.66645 0.90362 0.55501 0.0500 Uiso
N45 N 0.66644 0.88959 0.61200 0.0500 Uiso
C46 C 0.66650 0.93128 0.44477 0.0500 Uiso
N46 N 0.66652 0.94542 0.38962 0.0500 Uiso
C47 C 0.66648 0.91756 0.39059 0.0500 Uiso
N47 N 0.66647 0.91712 0.27874 0.0500 Uiso
C48 C 0.66645 0.90362 0.44499 0.0500 Uiso
N48 N 0.66644 0.88959 0.38800 0.0500 Uiso
C49_2 C 0.55537 1.00000 0.94538 0.0500 Uiso
N49_2 N 0.56932 1.00000 0.88813 0.0500 Uiso
C50_2 C 0.54145 1.00000 0.89025 0.0500 Uiso
N50_2 N 0.54170 1.00000 0.77869 0.0500 Uiso
C51_2 C 0.52766 1.00000 0.94483 0.0500 Uiso
N51_2 N 0.51347 1.00000 0.89036 0.0500 Uiso
Zn10 Zn 0.66642 0.89623 0.74985 0.0500 Uiso
C55 C 0.66646 0.86110 0.94484 0.0500 Uiso
N55 N 0.66647 0.84691 0.89039 0.0500 Uiso
C56 C 0.66643 0.88880 0.94542 0.0500 Uiso
N56 N 0.66642 0.90274 0.88814 0.0500 Uiso
C57 C 0.66645 0.87494 0.89046 0.0500 Uiso
N57 N 0.66644 0.87513 0.77870 0.0500 Uiso
Zn11 Zn 0.29217 0.95869 0.50000 0.0500 Uiso
C61 C 0.26478 0.93128 0.44477 0.0500 Uiso
N61 N 0.27890 0.94542 0.38962 0.0500 Uiso
C62 C 0.25108 0.91756 0.39059 0.0500 Uiso
N62 N 0.25065 0.91712 0.27874 0.0500 Uiso
C63 C 0.23717 0.90362 0.44499 0.0500 Uiso
N63 N 0.22315 0.88959 0.38800 0.0500 Uiso
C64 C 0.26478 0.93128 0.55523 0.0500 Uiso
N64 N 0.27890 0.94542 0.61038 0.0500 Uiso
C65 C 0.25108 0.91756 0.60941 0.0500 Uiso
N65 N 0.25065 0.91712 0.72126 0.0500 Uiso
C66 C 0.23717 0.90362 0.55501 0.0500 Uiso
N66 N 0.22315 0.88959 0.61200 0.0500 Uiso
Zn21 Zn 0.22981 0.89623 0.74985 0.0500 Uiso
C79 C 0.19464 0.86110 0.94484 0.0500 Uiso
N79 N 0.18044 0.84691 0.89039 0.0500 Uiso
C80 C 0.22237 0.88880 0.94542 0.0500 Uiso
N80 N 0.23632 0.90274 0.88814 0.0500 Uiso
C81 C 0.20849 0.87494 0.89046 0.0500 Uiso
N81 N 0.20869 0.87513 0.77870 0.0500 Uiso
Zn28_2 Zn 0.66650 0.83325 1.00000 0.0500 Uiso
Zn29_2 Zn 0.16675 0.83325 1.00000 0.0500 Uiso
H2 H 0.698119 0.985729 0.5 . .
H3_2 H 0.545301 1 0.415438 . .
H4 H 0.620546 0.968354 0.5 . .
H5_2 H 0.545301 1 0.584562 . .
H6 H 0.634889 0.954023 0.5 . .
H7_2 H 0.614015 1 0.31178 . .
H9_2 H 0.614015 1 0.68822 . .
H10_2 H 0.592484 1 0.772071 . .
H11_2 H 0.592484 1 0.227929 . .
H12 H 0.666531 0.947512 0.688231 . .
H16 H 0.666443 0.866259 0.728124 . .
H19_2 H 0.580114 1 0.916026 . .
H20 H 0.666486 0.925948 0.772268 . .
H21 H 0.666531 0.947512 0.311769 . .
H22 H 0.666486 0.925948 0.227732 . .
H23_2 H 0.511403 1 0.812483 . .
H25 H 0.666463 0.844881 0.812462 . .
H26 H 0.666414 0.913533 0.915988 . .
H27 H 0.666443 0.87879 0.415756 . .
H28 H 0.666443 0.87879 0.584244 . .
H30_2 H 0.532835 1 0.728052 . .
H32 H 0.280981 0.947512 0.311769 . .
H34 H 0.280981 0.947512 0.688231 . .
H35 H 0.259462 0.925948 0.227732 . .
H36 H 0.212347 0.87879 0.415756 . .
H37 H 0.212347 0.87879 0.584244 . .
H38 H 0.259462 0.925948 0.772268 . .
H39 H 0.178418 0.844881 0.812462 . .
H53 H 0.199816 0.866259 0.728124 . .
H54 H 0.247119 0.913533 0.915988 . .
H57 H 0.347808 0.968354 0.5 . .
H58 H 0.287609 0.985729 0.5 . .
H59 H 0.319134 0.954023 0.5 . .
H62_2 H 0.385985 1 0.31178 . .
H63_2 H 0.467165 1 0.728052 . .
H66_2 H 0.454699 1 0.415438 . .
H68_2 H 0.419886 1 0.916026 . .
H69_2 H 0.488597 1 0.812483 . .
H70_2 H 0.407516 1 0.227929 . .
H79_2 H 0.385985 1 0.68822 . .
H80_2 H 0.407516 1 0.772071 . .
H84_2 H 0.454699 1 0.584562 . .
Zn5_5 Zn 0.00000 0.50000 0.00000 0.0500 Uiso
C25_3 C -0.00000 0.44463 0.05462 0.0500 Uiso
N25_3 N -0.00000 0.43068 0.11187 0.0500 Uiso
C26_3 C -0.00000 0.45855 0.10975 0.0500 Uiso
N26_3 N 0.00000 0.45830 0.22131 0.0500 Uiso
C27_3 C -0.00000 0.47234 0.05517 0.0500 Uiso
N27_3 N -0.00000 0.48653 0.10964 0.0500 Uiso
C52_3 C -0.00000 0.55537 0.05462 0.0500 Uiso
N52_3 N -0.00000 0.56932 0.11187 0.0500 Uiso
C53_3 C 0.00000 0.54145 0.10975 0.0500 Uiso
N53_3 N -0.00000 0.54170 0.22131 0.0500 Uiso
C54_3 C -0.00000 0.52766 0.05517 0.0500 Uiso
N54_3 N 0.00000 0.51347 0.10964 0.0500 Uiso
C58_2 C 0.13890 0.80536 0.05516 0.0500 Uiso
N58_2 N 0.15309 0.81956 0.10961 0.0500 Uiso
C59_2 C 0.12506 0.79151 0.10954 0.0500 Uiso
N59_2 N 0.12487 0.79131 0.22130 0.0500 Uiso
C60_2 C 0.11120 0.77763 0.05458 0.0500 Uiso
N60_2 N 0.09726 0.76368 0.11186 0.0500 Uiso
C82_2 C 0.13890 0.33354 0.05516 0.0500 Uiso
N82_2 N 0.15309 0.33353 0.10961 0.0500 Uiso
C83_2 C 0.12506 0.33355 0.10954 0.0500 Uiso
N83_2 N 0.12487 0.33356 0.22130 0.0500 Uiso
C84_2 C 0.11120 0.33357 0.05458 0.0500 Uiso
N84_2 N 0.09726 0.33358 0.11186 0.0500 Uiso
Zn22_3 Zn 0.00000 0.43718 0.25038 0.0500 Uiso
Zn23_3 Zn -0.00000 0.56282 0.25038 0.0500 Uiso
Zn24_2 Zn 0.10377 0.33358 0.25015 0.0500 Uiso
Zn26_2 Zn 0.10377 0.77019 0.25015 0.0500 Uiso
Zn29_3 Zn 0.16675 0.33350 0.00000 0.0500 Uiso
H17_2 H 0.155119 0.821582 0.187538 . .
H18_3 H -1.49839e-18 0.580114 0.083974 . .
H24_3 H -3.34596e-18 0.511403 0.187517 . .
H29_3 H 5.06586e-17 0.532835 0.271948 . .
H31_2 H 0.0864666 0.752881 0.0840122 . .
H33_2 H 0.133741 0.800184 0.271876 . .
H52_2 H 0.0864666 0.333586 0.0840122 . .
H55_2 H 0.155119 0.333537 0.187538 . .
H56_2 H 0.133741 0.333557 0.271876 . .
H73_3 H -4.85252e-18 0.467165 0.271948 . .
H74_3 H -3.34596e-18 0.488597 0.187517 . .
H77_3 H 2.62572e-17 0.419886 0.083974 . .
C1_2 C 0.01849 0.34283 0.50000 0.0500 Uiso
N1_2 N 0.03731 0.35202 0.50000 0.0500 Uiso
C2_2 C 0.00930 0.35202 0.50000 0.0500 Uiso
N2_2 N 0.01855 0.37081 0.50000 0.0500 Uiso
C3_2 C 0.00919 0.32423 0.50000 0.0500 Uiso
N3_2 N 0.01874 0.31498 0.50000 0.0500 Uiso
C4_3 C 0.00000 0.42994 0.44540 0.0500 Uiso
N4_3 N 0.00000 0.44388 0.38800 0.0500 Uiso
C5_3 C 0.00000 0.41605 0.39027 0.0500 Uiso
N5_3 N 0.00000 0.41636 0.27874 0.0500 Uiso
C6_3 C -0.00000 0.40224 0.44469 0.0500 Uiso
N6_3 N -0.00000 0.38808 0.38962 0.0500 Uiso
Zn2_3 Zn 0.00000 0.43718 0.74962 0.0500 Uiso
Zn3_3 Zn 0.00000 0.37481 0.50000 0.0500 Uiso
C10_3 C -0.00000 0.44463 0.94538 0.0500 Uiso
N10_3 N -0.00000 0.43068 0.88813 0.0500 Uiso
C11_3 C -0.00000 0.45855 0.89025 0.0500 Uiso
N11_3 N 0.00000 0.45830 0.77869 0.0500 Uiso
C12_3 C -0.00000 0.47234 0.94483 0.0500 Uiso
N12_3 N -0.00000 0.48653 0.89036 0.0500 Uiso
Zn5_6 Zn 0.00000 0.50000 1.00000 0.0500 Uiso
C19_3 C 0.00000 0.42994 0.55460 0.0500 Uiso
N19_3 N 0.00000 0.44388 0.61200 0.0500 Uiso
C20_3 C 0.00000 0.41605 0.60973 0.0500 Uiso
N20_3 N 0.00000 0.41636 0.72126 0.0500 Uiso
C21_3 C -0.00000 0.40224 0.55531 0.0500 Uiso
N21_3 N -0.00000 0.38808 0.61038 0.0500 Uiso
Zn7_2 Zn 0.04131 0.70783 0.50000 0.0500 Uiso
C34_3 C 0.00000 0.57006 0.44540 0.0500 Uiso
N34_3 N -0.00000 0.55612 0.38800 0.0500 Uiso
C35_3 C -0.00000 0.58395 0.39027 0.0500 Uiso
N35_3 N -0.00000 0.58364 0.27874 0.0500 Uiso
C36_3 C -0.00000 0.59776 0.44469 0.0500 Uiso
N36_3 N -0.00000 0.61192 0.38962 0.0500 Uiso
Zn8_3 Zn -0.00000 0.56282 0.74962 0.0500 Uiso
Zn9_3 Zn -0.00000 0.62519 0.50000 0.0500 Uiso
C37_2 C 0.01849 0.67566 0.50000 0.0500 Uiso
N37_2 N 0.03731 0.68529 0.50000 0.0500 Uiso
C38_2 C 0.00930 0.65728 0.50000 0.0500 Uiso
N38_2 N 0.01855 0.64774 0.50000 0.0500 Uiso
C39_2 C 0.00919 0.68496 0.50000 0.0500 Uiso
N39_2 N 0.01874 0.70376 0.50000 0.0500 Uiso
C40_3 C 0.00000 0.57006 0.55460 0.0500 Uiso
N40_3 N -0.00000 0.55612 0.61200 0.0500 Uiso
C41_3 C -0.00000 0.58395 0.60973 0.0500 Uiso
N41_3 N -0.00000 0.58364 0.72126 0.0500 Uiso
C42_3 C -0.00000 0.59776 0.55531 0.0500 Uiso
N42_3 N -0.00000 0.61192 0.61038 0.0500 Uiso
C43_2 C 0.06872 0.73522 0.55523 0.0500 Uiso
N43_2 N 0.05458 0.72110 0.61038 0.0500 Uiso
C44_2 C 0.08244 0.74892 0.60941 0.0500 Uiso
N44_2 N 0.08288 0.74935 0.72126 0.0500 Uiso
C45_2 C 0.09638 0.76283 0.55501 0.0500 Uiso
N45_2 N 0.11041 0.77685 0.61200 0.0500 Uiso
C46_2 C 0.06872 0.73522 0.44477 0.0500 Uiso
N46_2 N 0.05458 0.72110 0.38962 0.0500 Uiso
C47_2 C 0.08244 0.74892 0.39059 0.0500 Uiso
N47_2 N 0.08288 0.74935 0.27874 0.0500 Uiso
C48_2 C 0.09638 0.76283 0.44499 0.0500 Uiso
N48_2 N 0.11041 0.77685 0.38800 0.0500 Uiso
C49_3 C -0.00000 0.55537 0.94538 0.0500 Uiso
N49_3 N -0.00000 0.56932 0.88813 0.0500 Uiso
C50_3 C 0.00000 0.54145 0.89025 0.0500 Uiso
N50_3 N -0.00000 0.54170 0.77869 0.0500 Uiso
C51_3 C -0.00000 0.52766 0.94483 0.0500 Uiso
N51_3 N 0.00000 0.51347 0.89036 0.0500 Uiso
Zn10_2 Zn 0.10377 0.77019 0.74985 0.0500 Uiso
C55_2 C 0.13890 0.80536 0.94484 0.0500 Uiso
N55_2 N 0.15309 0.81956 0.89039 0.0500 Uiso
C56_2 C 0.11120 0.77763 0.94542 0.0500 Uiso
N56_2 N 0.09726 0.76368 0.88814 0.0500 Uiso
C57_2 C 0.12506 0.79151 0.89046 0.0500 Uiso
N57_2 N 0.12487 0.79131 0.77870 0.0500 Uiso
Zn11_2 Zn 0.04131 0.33348 0.50000 0.0500 Uiso
C61_2 C 0.06872 0.33350 0.44477 0.0500 Uiso
N61_2 N 0.05458 0.33348 0.38962 0.0500 Uiso
C62_2 C 0.08244 0.33352 0.39059 0.0500 Uiso
N62_2 N 0.08288 0.33353 0.27874 0.0500 Uiso
C63_2 C 0.09638 0.33355 0.44499 0.0500 Uiso
N63_2 N 0.11041 0.33356 0.38800 0.0500 Uiso
C64_2 C 0.06872 0.33350 0.55523 0.0500 Uiso
N64_2 N 0.05458 0.33348 0.61038 0.0500 Uiso
C65_2 C 0.08244 0.33352 0.60941 0.0500 Uiso
N65_2 N 0.08288 0.33353 0.72126 0.0500 Uiso
C66_2 C 0.09638 0.33355 0.55501 0.0500 Uiso
N66_2 N 0.11041 0.33356 0.61200 0.0500 Uiso
Zn21_2 Zn 0.10377 0.33358 0.74985 0.0500 Uiso
C79_2 C 0.13890 0.33354 0.94484 0.0500 Uiso
N79_2 N 0.15309 0.33353 0.89039 0.0500 Uiso
C80_2 C 0.11120 0.33357 0.94542 0.0500 Uiso
N80_2 N 0.09726 0.33358 0.88814 0.0500 Uiso
C81_2 C 0.12506 0.33355 0.89046 0.0500 Uiso
N81_2 N 0.12487 0.33356 0.77870 0.0500 Uiso
Zn29_4 Zn 0.16675 0.33350 1.00000 0.0500 Uiso
H2_2 H 0.0142712 0.712391 0.5 . .
H3_3 H 4.80983e-17 0.545301 0.415438 . .
H4_2 H 0.031646 0.652192 0.5 . .
H5_3 H 4.50805e-17 0.545301 0.584562 . .
H6_2 H 0.0459769 0.680866 0.5 . .
H7_3 H -5.56325e-18 0.614015 0.31178 . .
H9_3 H -1.22803e-17 0.614015 0.68822 . .
H10_3 H 4.17347e-17 0.592484 0.772071 . .
H11_3 H 5.14441e-17 0.592484 0.227929 . .
H12_2 H 0.0524878 0.719019 0.688231 . .
H16_2 H 0.133741 0.800184 0.728124 . .
H19_3 H -1.63452e-17 0.580114 0.916026 . .
H20_2 H 0.0740522 0.740538 0.772268 . .
H21_2 H 0.0524878 0.719019 0.311769 . .
H22_2 H 0.0740522 0.740538 0.227732 . .
H23_3 H -1.44976e-17 0.511403 0.812483 . .
H25_2 H 0.155119 0.821582 0.812462 . .
H26_2 H 0.0864666 0.752881 0.915988 . .
H27_2 H 0.12121 0.787653 0.415756 . .
H28_2 H 0.12121 0.787653 0.584244 . .
H30_3 H 4.25201e-17 0.532835 0.728052 . .
H32_2 H 0.0524878 0.333469 0.311769 . .
H34_2 H 0.0524878 0.333469 0.688231 . .
H35_2 H 0.0740522 0.333514 0.227732 . .
H36_2 H 0.12121 0.333557 0.415756 . .
H37_2 H 0.12121 0.333557 0.584244 . .
H38_2 H 0.0740522 0.333514 0.772268 . .
H39_2 H 0.155119 0.333537 0.812462 . .
H53_2 H 0.133741 0.333557 0.728124 . .
H54_2 H 0.0864666 0.333586 0.915988 . .
H57_2 H 0.031646 0.379454 0.5 . .
H58_2 H 0.0142712 0.301881 0.5 . .
H59_2 H 0.0459769 0.365111 0.5 . .
H62_3 H 2.21923e-17 0.385985 0.31178 . .
H63_3 H -1.2991e-17 0.467165 0.728052 . .
H66_3 H -7.41288e-18 0.454699 0.415438 . .
H68_3 H 1.14104e-17 0.419886 0.916026 . .
H69_3 H -1.44976e-17 0.488597 0.812483 . .
H70_3 H -4.06706e-18 0.407516 0.227929 . .
H79_3 H 1.54753e-17 0.385985 0.68822 . .
H80_3 H -1.37765e-17 0.407516 0.772071 . .
H84_3 H -1.04307e-17 0.454699 0.584562 . .
Zn5_7 Zn 1.00000 0.50000 0.00000 0.0500 Uiso
C25_4 C 1.00000 0.44463 0.05462 0.0500 Uiso
N25_4 N 1.00000 0.43068 0.11187 0.0500 Uiso
C26_4 C 1.00000 0.45855 0.10975 0.0500 Uiso
N26_4 N 1.00000 0.45830 0.22131 0.0500 Uiso
C27_4 C 1.00000 0.47234 0.05517 0.0500 Uiso
N27_4 N 1.00000 0.48653 0.10964 0.0500 Uiso
C28_2 C 0.86110 0.19464 0.05516 0.0500 Uiso
C29_2 C 0.87494 0.20849 0.10954 0.0500 Uiso
N29_2 N 0.87513 0.20869 0.22130 0.0500 Uiso
C30_2 C 0.88880 0.22237 0.05458 0.0500 Uiso
N30_2 N 0.90274 0.23632 0.11186 0.0500 Uiso
C52_4 C 1.00000 0.55537 0.05462 0.0500 Uiso
N52_4 N 1.00000 0.56932 0.11187 0.0500 Uiso
C53_4 C 1.00000 0.54145 0.10975 0.0500 Uiso
N53_4 N 1.00000 0.54170 0.22131 0.0500 Uiso
C54_4 C 1.00000 0.52766 0.05517 0.0500 Uiso
N54_4 N 1.00000 0.51347 0.10964 0.0500 Uiso
C76_2 C 0.86110 0.66646 0.05516 0.0500 Uiso
N76_2 N 0.84691 0.66647 0.10961 0.0500 Uiso
C77_2 C 0.87494 0.66645 0.10954 0.0500 Uiso
N77_2 N 0.87513 0.66644 0.22130 0.0500 Uiso
C78_2 C 0.88880 0.66643 0.05458 0.0500 Uiso
N78_2 N 0.90274 0.66642 0.11186 0.0500 Uiso
Zn20_3 Zn 0.83325 0.66650 0.00000 0.0500 Uiso
Zn22_4 Zn 1.00000 0.43718 0.25038 0.0500 Uiso
Zn23_4 Zn 1.00000 0.56282 0.25038 0.0500 Uiso
Zn25_2 Zn 0.89623 0.66642 0.25015 0.0500 Uiso
Zn27_2 Zn 0.89623 0.22981 0.25015 0.0500 Uiso
N91_2 N 0.81956 0.66647 0.10961 0.0500 Uiso
H1_2 H 0.866259 0.199816 0.271876 . .
H14_2 H 0.913533 0.247119 0.0840122 . .
H18_4 H 1 0.580114 0.083974 . .
H24_4 H 1 0.511403 0.187517 . .
H29_4 H 1 0.532835 0.271948 . .
H49_2 H 0.913533 0.666414 0.0840122 . .
H50_2 H 0.844881 0.666463 0.187538 . .
H51_2 H 0.866259 0.666443 0.271876 . .
H73_4 H 1 0.467165 0.271948 . .
H74_4 H 1 0.488597 0.187517 . .
H75_2 H 0.844881 0.178418 0.187538 . .
H77_4 H 1 0.419886 0.083974 . .
Zn1_2 Zn 0.95869 0.29217 0.50000 0.0500 Uiso
C4_4 C 1.00000 0.42994 0.44540 0.0500 Uiso
N4_4 N 1.00000 0.44388 0.38800 0.0500 Uiso
C5_4 C 1.00000 0.41605 0.39027 0.0500 Uiso
N5_4 N 1.00000 0.41636 0.27874 0.0500 Uiso
C6_4 C 1.00000 0.40224 0.44469 0.0500 Uiso
N6_4 N 1.00000 0.38808 0.38962 0.0500 Uiso
Zn2_4 Zn 1.00000 0.43718 0.74962 0.0500 Uiso
Zn3_4 Zn 1.00000 0.37481 0.50000 0.0500 Uiso
C7_2 C 0.93128 0.26478 0.55523 0.0500 Uiso
N7_2 N 0.94542 0.27890 0.61038 0.0500 Uiso
C8_2 C 0.91756 0.25108 0.60941 0.0500 Uiso
N8_2 N 0.91712 0.25065 0.72126 0.0500 Uiso
C9_2 C 0.90362 0.23717 0.55501 0.0500 Uiso
N9_2 N 0.88959 0.22315 0.61200 0.0500 Uiso
C10_4 C 1.00000 0.44463 0.94538 0.0500 Uiso
N10_4 N 1.00000 0.43068 0.88813 0.0500 Uiso
C11_4 C 1.00000 0.45855 0.89025 0.0500 Uiso
N11_4 N 1.00000 0.45830 0.77869 0.0500 Uiso
C12_4 C 1.00000 0.47234 0.94483 0.0500 Uiso
N12_4 N 1.00000 0.48653 0.89036 0.0500 Uiso
Zn4_2 Zn 0.89623 0.22981 0.74985 0.0500 Uiso
Zn5_8 Zn 1.00000 0.50000 1.00000 0.0500 Uiso
C13_2 C 0.86110 0.19464 0.94484 0.0500 Uiso
C14_2 C 0.88880 0.22237 0.94542 0.0500 Uiso
N14_2 N 0.90274 0.23632 0.88814 0.0500 Uiso
C15_2 C 0.87494 0.20849 0.89046 0.0500 Uiso
N15_2 N 0.87513 0.20869 0.77870 0.0500 Uiso
C16_2 C 0.98151 0.32434 0.50000 0.0500 Uiso
N16_2 N 0.96269 0.31471 0.50000 0.0500 Uiso
C17_2 C 0.99070 0.34272 0.50000 0.0500 Uiso
N17_2 N 0.98145 0.35226 0.50000 0.0500 Uiso
C18_2 C 0.99081 0.31504 0.50000 0.0500 Uiso
N18_2 N 0.98126 0.29624 0.50000 0.0500 Uiso
C19_4 C 1.00000 0.42994 0.55460 0.0500 Uiso
N19_4 N 1.00000 0.44388 0.61200 0.0500 Uiso
C20_4 C 1.00000 0.41605 0.60973 0.0500 Uiso
N20_4 N 1.00000 0.41636 0.72126 0.0500 Uiso
C21_4 C 1.00000 0.40224 0.55531 0.0500 Uiso
N21_4 N 1.00000 0.38808 0.61038 0.0500 Uiso
C22_2 C 0.93128 0.26478 0.44477 0.0500 Uiso
N22_2 N 0.94542 0.27890 0.38962 0.0500 Uiso
C23_2 C 0.91756 0.25108 0.39059 0.0500 Uiso
N23_2 N 0.91712 0.25065 0.27874 0.0500 Uiso
C24_2 C 0.90362 0.23717 0.44499 0.0500 Uiso
N24_2 N 0.88959 0.22315 0.38800 0.0500 Uiso
C31_2 C 0.98151 0.65717 0.50000 0.0500 Uiso
N31_2 N 0.96269 0.64798 0.50000 0.0500 Uiso
C32_2 C 0.99070 0.64798 0.50000 0.0500 Uiso
N32_2 N 0.98145 0.62919 0.50000 0.0500 Uiso
C33_2 C 0.99081 0.67577 0.50000 0.0500 Uiso
N33_2 N 0.98126 0.68502 0.50000 0.0500 Uiso
C34_4 C 1.00000 0.57006 0.44540 0.0500 Uiso
N34_4 N 1.00000 0.55612 0.38800 0.0500 Uiso
C35_4 C 1.00000 0.58395 0.39027 0.0500 Uiso
N35_4 N 1.00000 0.58364 0.27874 0.0500 Uiso
C36_4 C 1.00000 0.59776 0.44469 0.0500 Uiso
N36_4 N 1.00000 0.61192 0.38962 0.0500 Uiso
Zn8_4 Zn 1.00000 0.56282 0.74962 0.0500 Uiso
Zn9_4 Zn 1.00000 0.62519 0.50000 0.0500 Uiso
C40_4 C 1.00000 0.57006 0.55460 0.0500 Uiso
N40_4 N 1.00000 0.55612 0.61200 0.0500 Uiso
C41_4 C 1.00000 0.58395 0.60973 0.0500 Uiso
N41_4 N 1.00000 0.58364 0.72126 0.0500 Uiso
C42_4 C 1.00000 0.59776 0.55531 0.0500 Uiso
N42_4 N 1.00000 0.61192 0.61038 0.0500 Uiso
C49_4 C 1.00000 0.55537 0.94538 0.0500 Uiso
N49_4 N 1.00000 0.56932 0.88813 0.0500 Uiso
C50_4 C 1.00000 0.54145 0.89025 0.0500 Uiso
N50_4 N 1.00000 0.54170 0.77869 0.0500 Uiso
C51_4 C 1.00000 0.52766 0.94483 0.0500 Uiso
N51_4 N 1.00000 0.51347 0.89036 0.0500 Uiso
Zn14_2 Zn 0.95869 0.66652 0.50000 0.0500 Uiso
C67_2 C 0.93128 0.66650 0.44477 0.0500 Uiso
N67_2 N 0.94542 0.66652 0.38962 0.0500 Uiso
C68_2 C 0.91756 0.66648 0.39059 0.0500 Uiso
N68_2 N 0.91712 0.66647 0.27874 0.0500 Uiso
C69_2 C 0.90362 0.66645 0.44499 0.0500 Uiso
N69_2 N 0.88959 0.66644 0.38800 0.0500 Uiso
C70_2 C 0.93128 0.66650 0.55523 0.0500 Uiso
N70_2 N 0.94542 0.66652 0.61038 0.0500 Uiso
C71_2 C 0.91756 0.66648 0.60941 0.0500 Uiso
N71_2 N 0.91712 0.66647 0.72126 0.0500 Uiso
C72_2 C 0.90362 0.66645 0.55501 0.0500 Uiso
N72_2 N 0.88959 0.66644 0.61200 0.0500 Uiso
Zn19_2 Zn 0.89623 0.66642 0.74985 0.0500 Uiso
C73_2 C 0.86110 0.66646 0.94484 0.0500 Uiso
N73_2 N 0.84691 0.66647 0.89039 0.0500 Uiso
C74_2 C 0.88880 0.66643 0.94542 0.0500 Uiso
N74_2 N 0.90274 0.66642 0.88814 0.0500 Uiso
C75_2 C 0.87494 0.66645 0.89046 0.0500 Uiso
N75_2 N 0.87513 0.66644 0.77870 0.0500 Uiso
Zn20_4 Zn 0.83325 0.66650 1.00000 0.0500 Uiso
N89_2 N 0.81956 0.66647 0.89039 0.0500 Uiso
H3_4 H 1 0.545301 0.415438 . .
H5_4 H 1 0.545301 0.584562 . .
H7_4 H 1 0.614015 0.31178 . .
H8_2 H 0.985729 0.698119 0.5 . .
H9_4 H 1 0.614015 0.68822 . .
H10_4 H 1 0.592484 0.772071 . .
H11_4 H 1 0.592484 0.227929 . .
H13_2 H 0.954023 0.634889 0.5 . .
H15_2 H 0.968354 0.620546 0.5 . .
H19_4 H 1 0.580114 0.916026 . .
H23_4 H 1 0.511403 0.812483 . .
H30_4 H 1 0.532835 0.728052 . .
H40_2 H 0.947512 0.666531 0.311769 . .
H41_2 H 0.87879 0.666443 0.415756 . .
H42_2 H 0.925948 0.666486 0.772268 . .
H43_2 H 0.844881 0.666463 0.812462 . .
H44_2 H 0.947512 0.666531 0.688231 . .
H45_2 H 0.913533 0.666414 0.915988 . .
H46_2 H 0.925948 0.666486 0.227732 . .
H47_2 H 0.87879 0.666443 0.584244 . .
H48_2 H 0.866259 0.666443 0.728124 . .
H60_2 H 0.87879 0.212347 0.584244 . .
H61_2 H 0.844881 0.178418 0.812462 . .
H62_4 H 1 0.385985 0.31178 . .
H63_4 H 1 0.467165 0.728052 . .
H64_2 H 0.925948 0.259462 0.772268 . .
H65_2 H 0.954023 0.319134 0.5 . .
H66_4 H 1 0.454699 0.415438 . .
H67_2 H 0.913533 0.247119 0.915988 . .
H68_4 H 1 0.419886 0.916026 . .
H69_4 H 1 0.488597 0.812483 . .
H70_4 H 1 0.407516 0.227929 . .
H71_2 H 0.947512 0.280981 0.688231 . .
H72_2 H 0.866259 0.199816 0.728124 . .
H76_2 H 0.925948 0.259462 0.227732 . .
H78_2 H 0.968354 0.347808 0.5 . .
H79_4 H 1 0.385985 0.68822 . .
H80_4 H 1 0.407516 0.772071 . .
H81_2 H 0.985729 0.287609 0.5 . .
H82_2 H 0.87879 0.212347 0.415756 . .
H83_2 H 0.947512 0.280981 0.311769 . .
H84_4 H 1 0.454699 0.584562 . .
Zn5_9 Zn 0.50000 0.50000 0.00000 0.0500 Uiso
C25_5 C 0.55537 0.55537 0.05462 0.0500 Uiso
N25_5 N 0.56932 0.56932 0.11187 0.0500 Uiso
C26_5 C 0.54145 0.54145 0.10975 0.0500 Uiso
N26_5 N 0.54170 0.54170 0.22131 0.0500 Uiso
C27_5 C 0.52766 0.52766 0.05517 0.0500 Uiso
N27_5 N 0.51347 0.51347 0.10964 0.0500 Uiso
C28_3 C 0.80536 0.66646 0.05516 0.0500 Uiso
C29_3 C 0.79151 0.66645 0.10954 0.0500 Uiso
N29_3 N 0.79131 0.66644 0.22130 0.0500 Uiso
C30_3 C 0.77763 0.66643 0.05458 0.0500 Uiso
N30_3 N 0.76368 0.66642 0.11186 0.0500 Uiso
C52_5 C 0.44463 0.44463 0.05462 0.0500 Uiso
N52_5 N 0.43068 0.43068 0.11187 0.0500 Uiso
C53_5 C 0.45855 0.45855 0.10975 0.0500 Uiso
N53_5 N 0.45830 0.45830 0.22131 0.0500 Uiso
C54_5 C 0.47234 0.47234 0.05517 0.0500 Uiso
N54_5 N 0.48653 0.48653 0.10964 0.0500 Uiso
C58_3 C 0.19464 0.33354 0.05516 0.0500 Uiso
N58_3 N 0.18044 0.33353 0.10961 0.0500 Uiso
C59_3 C 0.20849 0.33355 0.10954 0.0500 Uiso
N59_3 N 0.20869 0.33356 0.22130 0.0500 Uiso
C60_3 C 0.22237 0.33357 0.05458 0.0500 Uiso
N60_3 N 0.23632 0.33358 0.11186 0.0500 Uiso
C76_3 C 0.33354 0.19464 0.05516 0.0500 Uiso
C77_3 C 0.33355 0.20849 0.10954 0.0500 Uiso
N77_3 N 0.33356 0.20869 0.22130 0.0500 Uiso
C78_3 C 0.33357 0.22237 0.05458 0.0500 Uiso
N78_3 N 0.33358 0.23632 0.11186 0.0500 Uiso
C82_3 C 0.66646 0.80536 0.05516 0.0500 Uiso
N82_3 N 0.66647 0.81956 0.10961 0.0500 Uiso
C83_3 C 0.66645 0.79151 0.10954 0.0500 Uiso
N83_3 N 0.66644 0.79131 0.22130 0.0500 Uiso
C84_3 C 0.66643 0.77763 0.05458 0.0500 Uiso
N84_3 N 0.66642 0.76368 0.11186 0.0500 Uiso
Zn22_5 Zn 0.56282 0.56282 0.25038 0.0500 Uiso
Zn23_5 Zn 0.43718 0.43718 0.25038 0.0500 Uiso
Zn24_3 Zn 0.66642 0.77019 0.25015 0.0500 Uiso
Zn25_3 Zn 0.33358 0.22981 0.25015 0.0500 Uiso
Zn26_3 Zn 0.22981 0.33358 0.25015 0.0500 Uiso
Zn27_3 Zn 0.77019 0.66642 0.25015 0.0500 Uiso
H1_3 H 0.800184 0.666443 0.271876 . .
H14_3 H 0.752881 0.666414 0.0840122 . .
H17_3 H 0.178418 0.333537 0.187538 . .
H18_5 H 0.419886 0.419886 0.083974 . .
H24_5 H 0.488597 0.488597 0.187517 . .
H29_5 H 0.467165 0.467165 0.271948 . .
H31_3 H 0.247119 0.333586 0.0840122 . .
H33_3 H 0.199816 0.333557 0.271876 . .
H49_3 H 0.333586 0.247119 0.0840122 . .
H50_3 H 0.333537 0.178418 0.187538 . .
H51_3 H 0.333557 0.199816 0.271876 . .
H52_3 H 0.666414 0.752881 0.0840122 . .
H55_3 H 0.666463 0.821582 0.187538 . .
H56_3 H 0.666443 0.800184 0.271876 . .
H73_5 H 0.532835 0.532835 0.271948 . .
H74_5 H 0.511403 0.511403 0.187517 . .
H75_3 H 0.821582 0.666463 0.187538 . .
H77_5 H 0.580114 0.580114 0.083974 . .
C1_3 C 0.65717 0.67566 0.50000 0.0500 Uiso
N1_3 N 0.64798 0.68529 0.50000 0.0500 Uiso
C2_3 C 0.64798 0.65728 0.50000 0.0500 Uiso
N2_3 N 0.62919 0.64774 0.50000 0.0500 Uiso
C3_3 C 0.67577 0.68496 0.50000 0.0500 Uiso
N3_3 N 0.68502 0.70376 0.50000 0.0500 Uiso
Zn1_3 Zn 0.70783 0.66652 0.50000 0.0500 Uiso
C4_5 C 0.57006 0.57006 0.44540 0.0500 Uiso
N4_5 N 0.55612 0.55612 0.38800 0.0500 Uiso
C5_5 C 0.58395 0.58395 0.39027 0.0500 Uiso
N5_5 N 0.58364 0.58364 0.27874 0.0500 Uiso
C6_5 C 0.59776 0.59776 0.44469 0.0500 Uiso
N6_5 N 0.61192 0.61192 0.38962 0.0500 Uiso
Zn2_5 Zn 0.56282 0.56282 0.74962 0.0500 Uiso
Zn3_5 Zn 0.62519 0.62519 0.50000 0.0500 Uiso
C7_3 C 0.73522 0.66650 0.55523 0.0500 Uiso
N7_3 N 0.72110 0.66652 0.61038 0.0500 Uiso
C8_3 C 0.74892 0.66648 0.60941 0.0500 Uiso
N8_3 N 0.74935 0.66647 0.72126 0.0500 Uiso
C9_3 C 0.76283 0.66645 0.55501 0.0500 Uiso
N9_3 N 0.77685 0.66644 0.61200 0.0500 Uiso
C10_5 C 0.55537 0.55537 0.94538 0.0500 Uiso
N10_5 N 0.56932 0.56932 0.88813 0.0500 Uiso
C11_5 C 0.54145 0.54145 0.89025 0.0500 Uiso
N11_5 N 0.54170 0.54170 0.77869 0.0500 Uiso
C12_5 C 0.52766 0.52766 0.94483 0.0500 Uiso
N12_5 N 0.51347 0.51347 0.89036 0.0500 Uiso
Zn4_3 Zn 0.77019 0.66642 0.74985 0.0500 Uiso
Zn5_10 Zn 0.50000 0.50000 1.00000 0.0500 Uiso
C13_3 C 0.80536 0.66646 0.94484 0.0500 Uiso
C14_3 C 0.77763 0.66643 0.94542 0.0500 Uiso
N14_3 N 0.76368 0.66642 0.88814 0.0500 Uiso
C15_3 C 0.79151 0.66645 0.89046 0.0500 Uiso
N15_3 N 0.79131 0.66644 0.77870 0.0500 Uiso
C16_3 C 0.67566 0.65717 0.50000 0.0500 Uiso
N16_3 N 0.68529 0.64798 0.50000 0.0500 Uiso
C17_3 C 0.65728 0.64798 0.50000 0.0500 Uiso
N17_3 N 0.64774 0.62919 0.50000 0.0500 Uiso
C18_3 C 0.68496 0.67577 0.50000 0.0500 Uiso
N18_3 N 0.70376 0.68502 0.50000 0.0500 Uiso
C19_5 C 0.57006 0.57006 0.55460 0.0500 Uiso
N19_5 N 0.55612 0.55612 0.61200 0.0500 Uiso
C20_5 C 0.58395 0.58395 0.60973 0.0500 Uiso
N20_5 N 0.58364 0.58364 0.72126 0.0500 Uiso
C21_5 C 0.59776 0.59776 0.55531 0.0500 Uiso
N21_5 N 0.61192 0.61192 0.61038 0.0500 Uiso
C22_3 C 0.73522 0.66650 0.44477 0.0500 Uiso
N22_3 N 0.72110 0.66652 0.38962 0.0500 Uiso
C23_3 C 0.74892 0.66648 0.39059 0.0500 Uiso
N23_3 N 0.74935 0.66647 0.27874 0.0500 Uiso
C24_3 C 0.76283 0.66645 0.44499 0.0500 Uiso
N24_3 N 0.77685 0.66644 0.38800 0.0500 Uiso
C31_3 C 0.34283 0.32434 0.50000 0.0500 Uiso
N31_3 N 0.35202 0.31471 0.50000 0.0500 Uiso
C32_3 C 0.35202 0.34272 0.50000 0.0500 Uiso
N32_3 N 0.37081 0.35226 0.50000 0.0500 Uiso
C33_3 C 0.32423 0.31504 0.50000 0.0500 Uiso
N33_3 N 0.31498 0.29624 0.50000 0.0500 Uiso
Zn7_3 Zn 0.29217 0.33348 0.50000 0.0500 Uiso
C34_5 C 0.42994 0.42994 0.44540 0.0500 Uiso
N34_5 N 0.44388 0.44388 0.38800 0.0500 Uiso
C35_5 C 0.41605 0.41605 0.39027 0.0500 Uiso
N35_5 N 0.41636 0.41636 0.27874 0.0500 Uiso
C36_5 C 0.40224 0.40224 0.44469 0.0500 Uiso
N36_5 N 0.38808 0.38808 0.38962 0.0500 Uiso
Zn8_5 Zn 0.43718 0.43718 0.74962 0.0500 Uiso
Zn9_5 Zn 0.37481 0.37481 0.50000 0.0500 Uiso
C37_3 C 0.32434 0.34283 0.50000 0.0500 Uiso
N37_3 N 0.31471 0.35202 0.50000 0.0500 Uiso
C38_3 C 0.34272 0.35202 0.50000 0.0500 Uiso
N38_3 N 0.35226 0.37081 0.50000 0.0500 Uiso
C39_3 C 0.31504 0.32423 0.50000 0.0500 Uiso
N39_3 N 0.29624 0.31498 0.50000 0.0500 Uiso
C40_5 C 0.42994 0.42994 0.55460 0.0500 Uiso
N40_5 N 0.44388 0.44388 0.61200 0.0500 Uiso
C41_5 C 0.41605 0.41605 0.60973 0.0500 Uiso
N41_5 N 0.41636 0.41636 0.72126 0.0500 Uiso
C42_5 C 0.40224 0.40224 0.55531 0.0500 Uiso
N42_5 N 0.38808 0.38808 0.61038 0.0500 Uiso
C43_3 C 0.26478 0.33350 0.55523 0.0500 Uiso
N43_3 N 0.27890 0.33348 0.61038 0.0500 Uiso
C44_3 C 0.25108 0.33352 0.60941 0.0500 Uiso
N44_3 N 0.25065 0.33353 0.72126 0.0500 Uiso
C45_3 C 0.23717 0.33355 0.55501 0.0500 Uiso
N45_3 N 0.22315 0.33356 0.61200 0.0500 Uiso
C46_3 C 0.26478 0.33350 0.44477 0.0500 Uiso
N46_3 N 0.27890 0.33348 0.38962 0.0500 Uiso
C47_3 C 0.25108 0.33352 0.39059 0.0500 Uiso
N47_3 N 0.25065 0.33353 0.27874 0.0500 Uiso
C48_3 C 0.23717 0.33355 0.44499 0.0500 Uiso
N48_3 N 0.22315 0.33356 0.38800 0.0500 Uiso
C49_5 C 0.44463 0.44463 0.94538 0.0500 Uiso
N49_5 N 0.43068 0.43068 0.88813 0.0500 Uiso
C50_5 C 0.45855 0.45855 0.89025 0.0500 Uiso
N50_5 N 0.45830 0.45830 0.77869 0.0500 Uiso
C51_5 C 0.47234 0.47234 0.94483 0.0500 Uiso
N51_5 N 0.48653 0.48653 0.89036 0.0500 Uiso
Zn10_3 Zn 0.22981 0.33358 0.74985 0.0500 Uiso
C55_3 C 0.19464 0.33354 0.94484 0.0500 Uiso
N55_3 N 0.18044 0.33353 0.89039 0.0500 Uiso
C56_3 C 0.22237 0.33357 0.94542 0.0500 Uiso
N56_3 N 0.23632 0.33358 0.88814 0.0500 Uiso
C57_3 C 0.20849 0.33355 0.89046 0.0500 Uiso
N57_3 N 0.20869 0.33356 0.77870 0.0500 Uiso
Zn11_3 Zn 0.66652 0.70783 0.50000 0.0500 Uiso
C61_3 C 0.66650 0.73522 0.44477 0.0500 Uiso
N61_3 N 0.66652 0.72110 0.38962 0.0500 Uiso
C62_3 C 0.66648 0.74892 0.39059 0.0500 Uiso
N62_3 N 0.66647 0.74935 0.27874 0.0500 Uiso
C63_3 C 0.66645 0.76283 0.44499 0.0500 Uiso
N63_3 N 0.66644 0.77685 0.38800 0.0500 Uiso
C64_3 C 0.66650 0.73522 0.55523 0.0500 Uiso
N64_3 N 0.66652 0.72110 0.61038 0.0500 Uiso
C65_3 C 0.66648 0.74892 0.60941 0.0500 Uiso
N65_3 N 0.66647 0.74935 0.72126 0.0500 Uiso
C66_3 C 0.66645 0.76283 0.55501 0.0500 Uiso
N66_3 N 0.66644 0.77685 0.61200 0.0500 Uiso
Zn14_3 Zn 0.33348 0.29217 0.50000 0.0500 Uiso
C67_3 C 0.33350 0.26478 0.44477 0.0500 Uiso
N67_3 N 0.33348 0.27890 0.38962 0.0500 Uiso
C68_3 C 0.33352 0.25108 0.39059 0.0500 Uiso
N68_3 N 0.33353 0.25065 0.27874 0.0500 Uiso
C69_3 C 0.33355 0.23717 0.44499 0.0500 Uiso
N69_3 N 0.33356 0.22315 0.38800 0.0500 Uiso
C70_3 C 0.33350 0.26478 0.55523 0.0500 Uiso
N70_3 N 0.33348 0.27890 0.61038 0.0500 Uiso
C71_3 C 0.33352 0.25108 0.60941 0.0500 Uiso
N71_3 N 0.33353 0.25065 0.72126 0.0500 Uiso
C72_3 C 0.33355 0.23717 0.55501 0.0500 Uiso
N72_3 N 0.33356 0.22315 0.61200 0.0500 Uiso
Zn19_3 Zn 0.33358 0.22981 0.74985 0.0500 Uiso
C73_3 C 0.33354 0.19464 0.94484 0.0500 Uiso
C74_3 C 0.33357 0.22237 0.94542 0.0500 Uiso
N74_3 N 0.33358 0.23632 0.88814 0.0500 Uiso
C75_3 C 0.33355 0.20849 0.89046 0.0500 Uiso
N75_3 N 0.33356 0.20869 0.77870 0.0500 Uiso
Zn21_3 Zn 0.66642 0.77019 0.74985 0.0500 Uiso
C79_3 C 0.66646 0.80536 0.94484 0.0500 Uiso
N79_3 N 0.66647 0.81956 0.89039 0.0500 Uiso
C80_3 C 0.66643 0.77763 0.94542 0.0500 Uiso
N80_3 N 0.66642 0.76368 0.88814 0.0500 Uiso
C81_3 C 0.66645 0.79151 0.89046 0.0500 Uiso
N81_3 N 0.66644 0.79131 0.77870 0.0500 Uiso
H2_3 H 0.287609 0.301881 0.5 . .
H3_5 H 0.454699 0.454699 0.415438 . .
H4_3 H 0.347808 0.379454 0.5 . .
H5_5 H 0.454699 0.454699 0.584562 . .
H6_3 H 0.319134 0.365111 0.5 . .
H7_5 H 0.385985 0.385985 0.31178 . .
H8_3 H 0.301881 0.287609 0.5 . .
H9_5 H 0.385985 0.385985 0.68822 . .
H10_5 H 0.407516 0.407516 0.772071 . .
H11_5 H 0.407516 0.407516 0.227929 . .
H12_3 H 0.280981 0.333469 0.688231 . .
H13_3 H 0.365111 0.319134 0.5 . .
H15_3 H 0.379454 0.347808 0.5 . .
H16_3 H 0.199816 0.333557 0.728124 . .
H19_5 H 0.419886 0.419886 0.916026 . .
H20_3 H 0.259462 0.333514 0.772268 . .
H21_3 H 0.280981 0.333469 0.311769 . .
H22_3 H 0.259462 0.333514 0.227732 . .
H23_5 H 0.488597 0.488597 0.812483 . .
H25_3 H 0.178418 0.333537 0.812462 . .
H26_3 H 0.247119 0.333586 0.915988 . .
H27_3 H 0.212347 0.333557 0.415756 . .
H28_3 H 0.212347 0.333557 0.584244 . .
H30_5 H 0.467165 0.467165 0.728052 . .
H32_3 H 0.666531 0.719019 0.311769 . .
H34_3 H 0.666531 0.719019 0.688231 . .
H35_3 H 0.666486 0.740538 0.227732 . .
H36_3 H 0.666443 0.787653 0.415756 . .
H37_3 H 0.666443 0.787653 0.584244 . .
H38_3 H 0.666486 0.740538 0.772268 . .
H39_3 H 0.666463 0.821582 0.812462 . .
H40_3 H 0.333469 0.280981 0.311769 . .
H41_3 H 0.333557 0.212347 0.415756 . .
H42_3 H 0.333514 0.259462 0.772268 . .
H43_3 H 0.333537 0.178418 0.812462 . .
H44_3 H 0.333469 0.280981 0.688231 . .
H45_3 H 0.333586 0.247119 0.915988 . .
H46_3 H 0.333514 0.259462 0.227732 . .
H47_3 H 0.333557 0.212347 0.584244 . .
H48_3 H 0.333557 0.199816 0.728124 . .
H53_3 H 0.666443 0.800184 0.728124 . .
H54_3 H 0.666414 0.752881 0.915988 . .
H57_3 H 0.620546 0.652192 0.5 . .
H58_3 H 0.698119 0.712391 0.5 . .
H59_3 H 0.634889 0.680866 0.5 . .
H60_3 H 0.787653 0.666443 0.584244 . .
H61_3 H 0.821582 0.666463 0.812462 . .
H62_5 H 0.614015 0.614015 0.31178 . .
H63_5 H 0.532835 0.532835 0.728052 . .
H64_3 H 0.740538 0.666486 0.772268 . .
H65_3 H 0.680866 0.634889 0.5 . .
H66_5 H 0.545301 0.545301 0.415438 . .
H67_3 H 0.752881 0.666414 0.915988 . .
H68_5 H 0.580114 0.580114 0.916026 . .
H69_5 H 0.511403 0.511403 0.812483 . .
H70_5 H 0.592484 0.592484 0.227929 . .
H71_3 H 0.719019 0.666531 0.688231 . .
H72_3 H 0.800184 0.666443 0.728124 . .
H76_3 H 0.740538 0.666486 0.227732 . .
H78_3 H 0.652192 0.620546 0.5 . .
H79_5 H 0.614015 0.614015 0.68822 . .
H80_5 H 0.592484 0.592484 0.772071 . .
H81_3 H 0.712391 0.698119 0.5 . .
H82_3 H 0.787653 0.666443 0.415756 . .
H83_3 H 0.719019 0.666531 0.311769 . .
H84_5 H 0.545301 0.545301 0.584562 . .
loop_
_geom_bond_atom_site_label_1
_geom_bond_atom_site_label_2
_geom_bond_site_symmetry_1
_geom_bond_site_symmetry_2
Zn6 N28 1_555 1_555
N25 C25 1_555 1_555
C26 C25 1_555 1_555
N26 C26 1_555 1_555
N27 Zn5 1_555 1_555
N28 C28 1_555 1_555
C29 C28 1_555 1_555
N29 C29 1_555 1_555
N30 C30 1_555 1_555
N52 C52 1_555 1_555
C53 C52 1_555 1_555
N53 C53 1_555 1_555
N54 Zn5 1_555 1_555
N76 C76 1_555 1_555
C77 C76 1_555 1_555
N77 C77 1_555 1_555
N78 C78 1_555 1_555
Zn20 N76 1_555 1_555
Zn22 N25 1_555 1_555
Zn23 N52 1_555 1_555
Zn25 N77 1_555 1_555
Zn27 N29 1_555 1_555
N90 Zn6 1_555 1_555
N91 Zn20 1_555 1_555
C26 C27 1_555 1_555
N26 Zn22 1_555 1_555
C27 N27 1_555 1_555
C29 C30 1_555 1_555
N30 Zn27 1_555 1_555
C53 C54 1_555 1_555
N53 Zn23 1_555 1_555
C54 N54 1_555 1_555
C77 C78 1_555 1_555
N78 Zn25 1_555 1_555
N29 H1 1_555 1_555
N30 H14 1_555 1_555
N52 H18 1_555 1_555
N54 H24 1_555 1_555
N53 H29 1_555 1_555
N78 H49 1_555 1_555
N76 H50 1_555 1_555
N77 H51 1_555 1_555
N26 H73 1_555 1_555
N27 H74 1_555 1_555
N28 H75 1_555 1_555
N25 H77 1_555 1_555
Zn1 N7 1_555 1_555
C4 N4 1_555 1_555
N4 Zn22 1_555 1_555
C5 C4 1_555 1_555
N5 C5 1_555 1_555
C6 C5 1_555 1_555
N6 C6 1_555 1_555
Zn2 N10 1_555 1_555
C7 N7 1_555 1_555
C8 C7 1_555 1_555
N8 C8 1_555 1_555
C9 C8 1_555 1_555
N9 C9 1_555 1_555
C10 N10 1_555 1_555
C11 C10 1_555 1_555
N11 Zn2 1_555 1_555
C12 C11 1_555 1_555
N12 C12 1_555 1_555
Zn4 N8 1_555 1_555
Zn5_2 N12 1_555 1_555
C13 N13 1_555 1_555
N13 Zn6_2 1_555 1_555
C14 N14 1_555 1_555
N14 Zn4 1_555 1_555
C15 C13 1_555 1_555
N15 Zn4 1_555 1_555
C16 N16 1_555 1_555
N16 Zn1 1_555 1_555
N17 Zn3 1_555 1_555
N18 Zn1 1_555 1_555
C19 C4 1_555 1_555
N19 Zn2 1_555 1_555
C20 C19 1_555 1_555
N20 Zn2 1_555 1_555
C21 C6 1_555 1_555
N21 Zn3 1_555 1_555
C22 C7 1_555 1_555
N22 Zn1 1_555 1_555
C23 C22 1_555 1_555
N23 C23 1_555 1_555
C24 C9 1_555 1_555
N24 C24 1_555 1_555
C31 N31 1_555 1_555
N31 Zn14 1_555 1_555
C32 C31 1_555 1_555
N32 C32 1_555 1_555
C33 C31 1_555 1_555
N33 C33 1_555 1_555
C34 N34 1_555 1_555
N34 Zn23 1_555 1_555
C35 C34 1_555 1_555
N35 C35 1_555 1_555
C36 C35 1_555 1_555
N36 C36 1_555 1_555
Zn8 N40 1_555 1_555
Zn9 N32 1_555 1_555
C40 C34 1_555 1_555
N40 C40 1_555 1_555
C41 C40 1_555 1_555
N41 Zn8 1_555 1_555
C42 C36 1_555 1_555
N42 Zn9 1_555 1_555
C49 N49 1_555 1_555
N49 Zn8 1_555 1_555
C50 C49 1_555 1_555
N50 Zn8 1_555 1_555
C51 C50 1_555 1_555
N51 Zn5_2 1_555 1_555
Zn22 N5 1_555 1_555
Zn14 N33 1_555 1_555
Zn23 N35 1_555 1_555
C67 N67 1_555 1_555
N67 Zn14 1_555 1_555
C68 C67 1_555 1_555
N68 C68 1_555 1_555
C69 C68 1_555 1_555
N69 C69 1_555 1_555
C70 C67 1_555 1_555
N70 Zn14 1_555 1_555
C71 C70 1_555 1_555
N71 C71 1_555 1_555
C72 C69 1_555 1_555
N72 C72 1_555 1_555
Zn25 N68 1_555 1_555
Zn27 N23 1_555 1_555
Zn19 N71 1_555 1_555
C73 N73 1_555 1_555
N73 Zn20_2 1_555 1_555
C74 N74 1_555 1_555
N74 Zn19 1_555 1_555
C75 C73 1_555 1_555
N75 Zn19 1_555 1_555
N89 Zn20_2 1_555 1_555
N92 Zn6_2 1_555 1_555
N6 Zn3 1_555 1_555
N9 Zn4 1_555 1_555
C11 N11 1_555 1_555
C14 C15 1_555 1_555
C15 N15 1_555 1_555
C16 C17 1_555 1_555
C16 C18 1_555 1_555
C17 N17 1_555 1_555
C18 N18 1_555 1_555
C19 N19 1_555 1_555
C20 N20 1_555 1_555
C20 C21 1_555 1_555
C21 N21 1_555 1_555
C22 N22 1_555 1_555
C23 C24 1_555 1_555
N24 Zn27 1_555 1_555
N36 Zn9 1_555 1_555
C41 N41 1_555 1_555
C41 C42 1_555 1_555
C42 N42 1_555 1_555
C50 N50 1_555 1_555
C51 N51 1_555 1_555
N69 Zn25 1_555 1_555
C70 N70 1_555 1_555
C71 C72 1_555 1_555
N72 Zn19 1_555 1_555
C74 C75 1_555 1_555
C75 N75 1_555 1_555
N34 H3 1_555 1_555
N40 H5 1_555 1_555
N36 H7 1_555 1_555
N33 H8 1_555 1_555
N42 H9 1_555 1_555
N41 H10 1_555 1_555
N35 H11 1_555 1_555
N31 H13 1_555 1_555
N32 H15 1_555 1_555
N49 H19 1_555 1_555
N51 H23 1_555 1_555
N50 H30 1_555 1_555
N67 H40 1_555 1_555
N69 H41 1_555 1_555
N71 H42 1_555 1_555
N73 H43 1_555 1_555
N70 H44 1_555 1_555
N74 H45 1_555 1_555
N68 H46 1_555 1_555
N72 H47 1_555 1_555
N75 H48 1_555 1_555
N9 H60 1_555 1_555
N13 H61 1_555 1_555
N6 H62 1_555 1_555
N11 H63 1_555 1_555
N8 H64 1_555 1_555
N16 H65 1_555 1_555
N4 H66 1_555 1_555
N14 H67 1_555 1_555
N10 H68 1_555 1_555
N12 H69 1_555 1_555
N5 H70 1_555 1_555
N7 H71 1_555 1_555
N15 H72 1_555 1_555
N23 H76 1_555 1_555
N17 H78 1_555 1_555
N21 H79 1_555 1_555
N20 H80 1_555 1_555
N18 H81 1_555 1_555
N24 H82 1_555 1_555
N22 H83 1_555 1_555
N19 H84 1_555 1_555
N25_2 C25_2 1_555 1_555
C26_2 C25_2 1_555 1_555
N26_2 C26_2 1_555 1_555
N27_2 Zn5_3 1_555 1_555
N52_2 C52_2 1_555 1_555
C53_2 C52_2 1_555 1_555
N53_2 C53_2 1_555 1_555
N54_2 Zn5_3 1_555 1_555
N58 C58 1_555 1_555
C59 C58 1_555 1_555
N59 C59 1_555 1_555
N60 C60 1_555 1_555
N82 C82 1_555 1_555
C83 C82 1_555 1_555
N83 C83 1_555 1_555
N84 C84 1_555 1_555
Zn22_2 N25_2 1_555 1_555
Zn23_2 N52_2 1_555 1_555
Zn24 N83 1_555 1_555
Zn26 N59 1_555 1_555
Zn28 N58 1_555 1_555
Zn29 N82 1_555 1_555
C26_2 C27_2 1_555 1_555
N26_2 Zn22_2 1_555 1_555
C27_2 N27_2 1_555 1_555
C53_2 C54_2 1_555 1_555
N53_2 Zn23_2 1_555 1_555
C54_2 N54_2 1_555 1_555
C59 C60 1_555 1_555
N60 Zn26 1_555 1_555
C83 C84 1_555 1_555
N84 Zn24 1_555 1_555
N58 H17 1_555 1_555
N52_2 H18_2 1_555 1_555
N54_2 H24_2 1_555 1_555
N53_2 H29_2 1_555 1_555
N60 H31 1_555 1_555
N59 H33 1_555 1_555
N84 H52 1_555 1_555
N82 H55 1_555 1_555
N83 H56 1_555 1_555
N26_2 H73_2 1_555 1_555
N27_2 H74_2 1_555 1_555
N25_2 H77_2 1_555 1_555
C1 N1 1_555 1_555
N1 Zn11 1_555 1_555
C2 C1 1_555 1_555
N2 C2 1_555 1_555
C3 C1 1_555 1_555
N3 C3 1_555 1_555
C4_2 N4_2 1_555 1_555
N4_2 Zn22_2 1_555 1_555
C5_2 C4_2 1_555 1_555
N5_2 C5_2 1_555 1_555
C6_2 C5_2 1_555 1_555
N6_2 C6_2 1_555 1_555
Zn2_2 N10_2 1_555 1_555
Zn3_2 N2 1_555 1_555
C10_2 N10_2 1_555 1_555
C11_2 C10_2 1_555 1_555
N11_2 Zn2_2 1_555 1_555
C12_2 C11_2 1_555 1_555
N12_2 C12_2 1_555 1_555
Zn5_4 N12_2 1_555 1_555
C19_2 C4_2 1_555 1_555
N19_2 Zn2_2 1_555 1_555
C20_2 C19_2 1_555 1_555
N20_2 Zn2_2 1_555 1_555
C21_2 C6_2 1_555 1_555
N21_2 Zn3_2 1_555 1_555
Zn7 N37 1_555 1_555
C34_2 N34_2 1_555 1_555
N34_2 Zn23_2 1_555 1_555
C35_2 C34_2 1_555 1_555
N35_2 C35_2 1_555 1_555
C36_2 C35_2 1_555 1_555
N36_2 C36_2 1_555 1_555
Zn8_2 N40_2 1_555 1_555
C37 N37 1_555 1_555
N38 Zn9_2 1_555 1_555
N39 Zn7 1_555 1_555
C40_2 C34_2 1_555 1_555
N40_2 C40_2 1_555 1_555
C41_2 C40_2 1_555 1_555
N41_2 Zn8_2 1_555 1_555
C42_2 C36_2 1_555 1_555
N42_2 Zn9_2 1_555 1_555
C43 N43 1_555 1_555
N43 Zn7 1_555 1_555
C44 C43 1_555 1_555
N44 C44 1_555 1_555
C45 C44 1_555 1_555
N45 C45 1_555 1_555
C46 C43 1_555 1_555
N46 Zn7 1_555 1_555
C47 C46 1_555 1_555
N47 C47 1_555 1_555
C48 C45 1_555 1_555
N48 C48 1_555 1_555
C49_2 N49_2 1_555 1_555
N49_2 Zn8_2 1_555 1_555
C50_2 C49_2 1_555 1_555
N50_2 Zn8_2 1_555 1_555
C51_2 C50_2 1_555 1_555
N51_2 Zn5_4 1_555 1_555
Zn10 N44 1_555 1_555
C55 N55 1_555 1_555
N55 Zn28_2 1_555 1_555
C56 N56 1_555 1_555
N56 Zn10 1_555 1_555
C57 C55 1_555 1_555
N57 Zn10 1_555 1_555
Zn11 N3 1_555 1_555
Zn22_2 N5_2 1_555 1_555
C61 N61 1_555 1_555
N61 Zn11 1_555 1_555
C62 C61 1_555 1_555
N62 C62 1_555 1_555
C63 C62 1_555 1_555
N63 C63 1_555 1_555
C64 C61 1_555 1_555
N64 Zn11 1_555 1_555
C65 C64 1_555 1_555
N65 C65 1_555 1_555
C66 C63 1_555 1_555
N66 C66 1_555 1_555
Zn24 N62 1_555 1_555
Zn23_2 N35_2 1_555 1_555
Zn26 N47 1_555 1_555
Zn21 N65 1_555 1_555
C79 N79 1_555 1_555
N79 Zn29_2 1_555 1_555
C80 N80 1_555 1_555
N80 Zn21 1_555 1_555
C81 C79 1_555 1_555
N81 Zn21 1_555 1_555
N6_2 Zn3_2 1_555 1_555
C11_2 N11_2 1_555 1_555
C19_2 N19_2 1_555 1_555
C20_2 N20_2 1_555 1_555
C20_2 C21_2 1_555 1_555
C21_2 N21_2 1_555 1_555
N36_2 Zn9_2 1_555 1_555
C37 C38 1_555 1_555
C37 C39 1_555 1_555
C38 N38 1_555 1_555
C39 N39 1_555 1_555
C41_2 N41_2 1_555 1_555
C41_2 C42_2 1_555 1_555
C42_2 N42_2 1_555 1_555
N45 Zn10 1_555 1_555
C46 N46 1_555 1_555
C47 C48 1_555 1_555
N48 Zn26 1_555 1_555
C50_2 N50_2 1_555 1_555
C51_2 N51_2 1_555 1_555
C56 C57 1_555 1_555
C57 N57 1_555 1_555
N63 Zn24 1_555 1_555
C64 N64 1_555 1_555
C65 C66 1_555 1_555
N66 Zn21 1_555 1_555
C80 C81 1_555 1_555
C81 N81 1_555 1_555
N39 H2 1_555 1_555
N34_2 H3_2 1_555 1_555
N38 H4 1_555 1_555
N40_2 H5_2 1_555 1_555
N37 H6 1_555 1_555
N36_2 H7_2 1_555 1_555
N42_2 H9_2 1_555 1_555
N41_2 H10_2 1_555 1_555
N35_2 H11_2 1_555 1_555
N43 H12 1_555 1_555
N57 H16 1_555 1_555
N49_2 H19_2 1_555 1_555
N44 H20 1_555 1_555
N46 H21 1_555 1_555
N47 H22 1_555 1_555
N51_2 H23_2 1_555 1_555
N55 H25 1_555 1_555
N56 H26 1_555 1_555
N48 H27 1_555 1_555
N45 H28 1_555 1_555
N50_2 H30_2 1_555 1_555
N61 H32 1_555 1_555
N64 H34 1_555 1_555
N62 H35 1_555 1_555
N63 H36 1_555 1_555
N66 H37 1_555 1_555
N65 H38 1_555 1_555
N79 H39 1_555 1_555
N81 H53 1_555 1_555
N80 H54 1_555 1_555
N2 H57 1_555 1_555
N3 H58 1_555 1_555
N1 H59 1_555 1_555
N6_2 H62_2 1_555 1_555
N11_2 H63_2 1_555 1_555
N4_2 H66_2 1_555 1_555
N10_2 H68_2 1_555 1_555
N12_2 H69_2 1_555 1_555
N5_2 H70_2 1_555 1_555
N21_2 H79_2 1_555 1_555
N20_2 H80_2 1_555 1_555
N19_2 H84_2 1_555 1_555
N25_3 C25_3 1_555 1_555
C26_3 C25_3 1_555 1_555
N26_3 C26_3 1_555 1_555
N27_3 Zn5_5 1_555 1_555
N52_3 C52_3 1_555 1_555
C53_3 C52_3 1_555 1_555
N53_3 C53_3 1_555 1_555
N54_3 Zn5_5 1_555 1_555
N58_2 C58_2 1_555 1_555
C59_2 C58_2 1_555 1_555
N59_2 C59_2 1_555 1_555
N60_2 C60_2 1_555 1_555
N82_2 C82_2 1_555 1_555
C83_2 C82_2 1_555 1_555
N83_2 C83_2 1_555 1_555
N84_2 C84_2 1_555 1_555
Zn22_3 N25_3 1_555 1_555
Zn23_3 N52_3 1_555 1_555
Zn24_2 N83_2 1_555 1_555
Zn26_2 N59_2 1_555 1_555
Zn29 N58_2 1_555 1_555
Zn29_3 N82_2 1_555 1_555
C26_3 C27_3 1_555 1_555
N26_3 Zn22_3 1_555 1_555
C27_3 N27_3 1_555 1_555
C53_3 C54_3 1_555 1_555
N53_3 Zn23_3 1_555 1_555
C54_3 N54_3 1_555 1_555
C59_2 C60_2 1_555 1_555
N60_2 Zn26_2 1_555 1_555
C83_2 C84_2 1_555 1_555
N84_2 Zn24_2 1_555 1_555
N58_2 H17_2 1_555 1_555
N52_3 H18_3 1_555 1_555
N54_3 H24_3 1_555 1_555
N53_3 H29_3 1_555 1_555
N60_2 H31_2 1_555 1_555
N59_2 H33_2 1_555 1_555
N84_2 H52_2 1_555 1_555
N82_2 H55_2 1_555 1_555
N83_2 H56_2 1_555 1_555
N26_3 H73_3 1_555 1_555
N27_3 H74_3 1_555 1_555
N25_3 H77_3 1_555 1_555
C1_2 N1_2 1_555 1_555
N1_2 Zn11_2 1_555 1_555
C2_2 C1_2 1_555 1_555
N2_2 C2_2 1_555 1_555
C3_2 C1_2 1_555 1_555
N3_2 C3_2 1_555 1_555
C4_3 N4_3 1_555 1_555
N4_3 Zn22_3 1_555 1_555
C5_3 C4_3 1_555 1_555
N5_3 C5_3 1_555 1_555
C6_3 C5_3 1_555 1_555
N6_3 C6_3 1_555 1_555
Zn2_3 N10_3 1_555 1_555
Zn3_3 N2_2 1_555 1_555
C10_3 N10_3 1_555 1_555
C11_3 C10_3 1_555 1_555
N11_3 Zn2_3 1_555 1_555
C12_3 C11_3 1_555 1_555
N12_3 C12_3 1_555 1_555
Zn5_6 N12_3 1_555 1_555
C19_3 C4_3 1_555 1_555
N19_3 Zn2_3 1_555 1_555
C20_3 C19_3 1_555 1_555
N20_3 Zn2_3 1_555 1_555
C21_3 C6_3 1_555 1_555
N21_3 Zn3_3 1_555 1_555
Zn7_2 N37_2 1_555 1_555
C34_3 N34_3 1_555 1_555
N34_3 Zn23_3 1_555 1_555
C35_3 C34_3 1_555 1_555
N35_3 C35_3 1_555 1_555
C36_3 C35_3 1_555 1_555
N36_3 C36_3 1_555 1_555
Zn8_3 N40_3 1_555 1_555
C37_2 N37_2 1_555 1_555
N38_2 Zn9_3 1_555 1_555
N39_2 Zn7_2 1_555 1_555
C40_3 C34_3 1_555 1_555
N40_3 C40_3 1_555 1_555
C41_3 C40_3 1_555 1_555
N41_3 Zn8_3 1_555 1_555
C42_3 C36_3 1_555 1_555
N42_3 Zn9_3 1_555 1_555
C43_2 N43_2 1_555 1_555
N43_2 Zn7_2 1_555 1_555
C44_2 C43_2 1_555 1_555
N44_2 C44_2 1_555 1_555
C45_2 C44_2 1_555 1_555
N45_2 C45_2 1_555 1_555
C46_2 C43_2 1_555 1_555
N46_2 Zn7_2 1_555 1_555
C47_2 C46_2 1_555 1_555
N47_2 C47_2 1_555 1_555
C48_2 C45_2 1_555 1_555
N48_2 C48_2 1_555 1_555
C49_3 N49_3 1_555 1_555
N49_3 Zn8_3 1_555 1_555
C50_3 C49_3 1_555 1_555
N50_3 Zn8_3 1_555 1_555
C51_3 C50_3 1_555 1_555
N51_3 Zn5_6 1_555 1_555
Zn10_2 N44_2 1_555 1_555
C55_2 N55_2 1_555 1_555
N55_2 Zn29_2 1_555 1_555
C56_2 N56_2 1_555 1_555
N56_2 Zn10_2 1_555 1_555
C57_2 C55_2 1_555 1_555
N57_2 Zn10_2 1_555 1_555
Zn11_2 N3_2 1_555 1_555
Zn22_3 N5_3 1_555 1_555
C61_2 N61_2 1_555 1_555
N61_2 Zn11_2 1_555 1_555
C62_2 C61_2 1_555 1_555
N62_2 C62_2 1_555 1_555
C63_2 C62_2 1_555 1_555
N63_2 C63_2 1_555 1_555
C64_2 C61_2 1_555 1_555
N64_2 Zn11_2 1_555 1_555
C65_2 C64_2 1_555 1_555
N65_2 C65_2 1_555 1_555
C66_2 C63_2 1_555 1_555
N66_2 C66_2 1_555 1_555
Zn24_2 N62_2 1_555 1_555
Zn23_3 N35_3 1_555 1_555
Zn26_2 N47_2 1_555 1_555
Zn21_2 N65_2 1_555 1_555
C79_2 N79_2 1_555 1_555
N79_2 Zn29_4 1_555 1_555
C80_2 N80_2 1_555 1_555
N80_2 Zn21_2 1_555 1_555
C81_2 C79_2 1_555 1_555
N81_2 Zn21_2 1_555 1_555
N6_3 Zn3_3 1_555 1_555
C11_3 N11_3 1_555 1_555
C19_3 N19_3 1_555 1_555
C20_3 N20_3 1_555 1_555
C20_3 C21_3 1_555 1_555
C21_3 N21_3 1_555 1_555
N36_3 Zn9_3 1_555 1_555
C37_2 C38_2 1_555 1_555
C37_2 C39_2 1_555 1_555
C38_2 N38_2 1_555 1_555
C39_2 N39_2 1_555 1_555
C41_3 N41_3 1_555 1_555
C41_3 C42_3 1_555 1_555
C42_3 N42_3 1_555 1_555
N45_2 Zn10_2 1_555 1_555
C46_2 N46_2 1_555 1_555
C47_2 C48_2 1_555 1_555
N48_2 Zn26_2 1_555 1_555
C50_3 N50_3 1_555 1_555
C51_3 N51_3 1_555 1_555
C56_2 C57_2 1_555 1_555
C57_2 N57_2 1_555 1_555
N63_2 Zn24_2 1_555 1_555
C64_2 N64_2 1_555 1_555
C65_2 C66_2 1_555 1_555
N66_2 Zn21_2 1_555 1_555
C80_2 C81_2 1_555 1_555
C81_2 N81_2 1_555 1_555
N39_2 H2_2 1_555 1_555
N34_3 H3_3 1_555 1_555
N38_2 H4_2 1_555 1_555
N40_3 H5_3 1_555 1_555
N37_2 H6_2 1_555 1_555
N36_3 H7_3 1_555 1_555
N42_3 H9_3 1_555 1_555
N41_3 H10_3 1_555 1_555
N35_3 H11_3 1_555 1_555
N43_2 H12_2 1_555 1_555
N57_2 H16_2 1_555 1_555
N49_3 H19_3 1_555 1_555
N44_2 H20_2 1_555 1_555
N46_2 H21_2 1_555 1_555
N47_2 H22_2 1_555 1_555
N51_3 H23_3 1_555 1_555
N55_2 H25_2 1_555 1_555
N56_2 H26_2 1_555 1_555
N48_2 H27_2 1_555 1_555
N45_2 H28_2 1_555 1_555
N50_3 H30_3 1_555 1_555
N61_2 H32_2 1_555 1_555
N64_2 H34_2 1_555 1_555
N62_2 H35_2 1_555 1_555
N63_2 H36_2 1_555 1_555
N66_2 H37_2 1_555 1_555
N65_2 H38_2 1_555 1_555
N79_2 H39_2 1_555 1_555
N81_2 H53_2 1_555 1_555
N80_2 H54_2 1_555 1_555
N2_2 H57_2 1_555 1_555
N3_2 H58_2 1_555 1_555
N1_2 H59_2 1_555 1_555
N6_3 H62_3 1_555 1_555
N11_3 H63_3 1_555 1_555
N4_3 H66_3 1_555 1_555
N10_3 H68_3 1_555 1_555
N12_3 H69_3 1_555 1_555
N5_3 H70_3 1_555 1_555
N21_3 H79_3 1_555 1_555
N20_3 H80_3 1_555 1_555
N19_3 H84_3 1_555 1_555
N25_4 C25_4 1_555 1_555
C26_4 C25_4 1_555 1_555
N26_4 C26_4 1_555 1_555
N27_4 Zn5_7 1_555 1_555
N91 C28_2 1_555 1_555
C29_2 C28_2 1_555 1_555
N29_2 C29_2 1_555 1_555
N30_2 C30_2 1_555 1_555
N52_4 C52_4 1_555 1_555
C53_4 C52_4 1_555 1_555
N53_4 C53_4 1_555 1_555
N54_4 Zn5_7 1_555 1_555
N76_2 C76_2 1_555 1_555
C77_2 C76_2 1_555 1_555
N77_2 C77_2 1_555 1_555
N78_2 C78_2 1_555 1_555
Zn20_3 N76_2 1_555 1_555
Zn22_4 N25_4 1_555 1_555
Zn23_4 N52_4 1_555 1_555
Zn25_2 N77_2 1_555 1_555
Zn27_2 N29_2 1_555 1_555
N91_2 Zn20_3 1_555 1_555
C26_4 C27_4 1_555 1_555
N26_4 Zn22_4 1_555 1_555
C27_4 N27_4 1_555 1_555
C29_2 C30_2 1_555 1_555
N30_2 Zn27_2 1_555 1_555
C53_4 C54_4 1_555 1_555
N53_4 Zn23_4 1_555 1_555
C54_4 N54_4 1_555 1_555
C77_2 C78_2 1_555 1_555
N78_2 Zn25_2 1_555 1_555
N29_2 H1_2 1_555 1_555
N30_2 H14_2 1_555 1_555
N52_4 H18_4 1_555 1_555
N54_4 H24_4 1_555 1_555
N53_4 H29_4 1_555 1_555
N78_2 H49_2 1_555 1_555
N76_2 H50_2 1_555 1_555
N77_2 H51_2 1_555 1_555
N26_4 H73_4 1_555 1_555
N27_4 H74_4 1_555 1_555
N91 H75_2 1_555 1_555
N25_4 H77_4 1_555 1_555
Zn1_2 N7_2 1_555 1_555
C4_4 N4_4 1_555 1_555
N4_4 Zn22_4 1_555 1_555
C5_4 C4_4 1_555 1_555
N5_4 C5_4 1_555 1_555
C6_4 C5_4 1_555 1_555
N6_4 C6_4 1_555 1_555
Zn2_4 N10_4 1_555 1_555
C7_2 N7_2 1_555 1_555
C8_2 C7_2 1_555 1_555
N8_2 C8_2 1_555 1_555
C9_2 C8_2 1_555 1_555
N9_2 C9_2 1_555 1_555
C10_4 N10_4 1_555 1_555
C11_4 C10_4 1_555 1_555
N11_4 Zn2_4 1_555 1_555
C12_4 C11_4 1_555 1_555
N12_4 C12_4 1_555 1_555
Zn4_2 N8_2 1_555 1_555
Zn5_8 N12_4 1_555 1_555
C13_2 N89 1_555 1_555
C14_2 N14_2 1_555 1_555
N14_2 Zn4_2 1_555 1_555
C15_2 C13_2 1_555 1_555
N15_2 Zn4_2 1_555 1_555
C16_2 N16_2 1_555 1_555
N16_2 Zn1_2 1_555 1_555
N17_2 Zn3_4 1_555 1_555
N18_2 Zn1_2 1_555 1_555
C19_4 C4_4 1_555 1_555
N19_4 Zn2_4 1_555 1_555
C20_4 C19_4 1_555 1_555
N20_4 Zn2_4 1_555 1_555
C21_4 C6_4 1_555 1_555
N21_4 Zn3_4 1_555 1_555
C22_2 C7_2 1_555 1_555
N22_2 Zn1_2 1_555 1_555
C23_2 C22_2 1_555 1_555
N23_2 C23_2 1_555 1_555
C24_2 C9_2 1_555 1_555
N24_2 C24_2 1_555 1_555
C31_2 N31_2 1_555 1_555
N31_2 Zn14_2 1_555 1_555
C32_2 C31_2 1_555 1_555
N32_2 C32_2 1_555 1_555
C33_2 C31_2 1_555 1_555
N33_2 C33_2 1_555 1_555
C34_4 N34_4 1_555 1_555
N34_4 Zn23_4 1_555 1_555
C35_4 C34_4 1_555 1_555
N35_4 C35_4 1_555 1_555
C36_4 C35_4 1_555 1_555
N36_4 C36_4 1_555 1_555
Zn8_4 N40_4 1_555 1_555
Zn9_4 N32_2 1_555 1_555
C40_4 C34_4 1_555 1_555
N40_4 C40_4 1_555 1_555
C41_4 C40_4 1_555 1_555
N41_4 Zn8_4 1_555 1_555
C42_4 C36_4 1_555 1_555
N42_4 Zn9_4 1_555 1_555
C49_4 N49_4 1_555 1_555
N49_4 Zn8_4 1_555 1_555
C50_4 C49_4 1_555 1_555
N50_4 Zn8_4 1_555 1_555
C51_4 C50_4 1_555 1_555
N51_4 Zn5_8 1_555 1_555
Zn22_4 N5_4 1_555 1_555
Zn14_2 N33_2 1_555 1_555
Zn23_4 N35_4 1_555 1_555
C67_2 N67_2 1_555 1_555
N67_2 Zn14_2 1_555 1_555
C68_2 C67_2 1_555 1_555
N68_2 C68_2 1_555 1_555
C69_2 C68_2 1_555 1_555
N69_2 C69_2 1_555 1_555
C70_2 C67_2 1_555 1_555
N70_2 Zn14_2 1_555 1_555
C71_2 C70_2 1_555 1_555
N71_2 C71_2 1_555 1_555
C72_2 C69_2 1_555 1_555
N72_2 C72_2 1_555 1_555
Zn25_2 N68_2 1_555 1_555
Zn27_2 N23_2 1_555 1_555
Zn19_2 N71_2 1_555 1_555
C73_2 N73_2 1_555 1_555
N73_2 Zn20_4 1_555 1_555
C74_2 N74_2 1_555 1_555
N74_2 Zn19_2 1_555 1_555
C75_2 C73_2 1_555 1_555
N75_2 Zn19_2 1_555 1_555
N89_2 Zn20_4 1_555 1_555
N6_4 Zn3_4 1_555 1_555
N9_2 Zn4_2 1_555 1_555
C11_4 N11_4 1_555 1_555
C14_2 C15_2 1_555 1_555
C15_2 N15_2 1_555 1_555
C16_2 C17_2 1_555 1_555
C16_2 C18_2 1_555 1_555
C17_2 N17_2 1_555 1_555
C18_2 N18_2 1_555 1_555
C19_4 N19_4 1_555 1_555
C20_4 N20_4 1_555 1_555
C20_4 C21_4 1_555 1_555
C21_4 N21_4 1_555 1_555
C22_2 N22_2 1_555 1_555
C23_2 C24_2 1_555 1_555
N24_2 Zn27_2 1_555 1_555
N36_4 Zn9_4 1_555 1_555
C41_4 N41_4 1_555 1_555
C41_4 C42_4 1_555 1_555
C42_4 N42_4 1_555 1_555
C50_4 N50_4 1_555 1_555
C51_4 N51_4 1_555 1_555
N69_2 Zn25_2 1_555 1_555
C70_2 N70_2 1_555 1_555
C71_2 C72_2 1_555 1_555
N72_2 Zn19_2 1_555 1_555
C74_2 C75_2 1_555 1_555
C75_2 N75_2 1_555 1_555
N34_4 H3_4 1_555 1_555
N40_4 H5_4 1_555 1_555
N36_4 H7_4 1_555 1_555
N33_2 H8_2 1_555 1_555
N42_4 H9_4 1_555 1_555
N41_4 H10_4 1_555 1_555
N35_4 H11_4 1_555 1_555
N31_2 H13_2 1_555 1_555
N32_2 H15_2 1_555 1_555
N49_4 H19_4 1_555 1_555
N51_4 H23_4 1_555 1_555
N50_4 H30_4 1_555 1_555
N67_2 H40_2 1_555 1_555
N69_2 H41_2 1_555 1_555
N71_2 H42_2 1_555 1_555
N73_2 H43_2 1_555 1_555
N70_2 H44_2 1_555 1_555
N74_2 H45_2 1_555 1_555
N68_2 H46_2 1_555 1_555
N72_2 H47_2 1_555 1_555
N75_2 H48_2 1_555 1_555
N9_2 H60_2 1_555 1_555
N89 H61_2 1_555 1_555
N6_4 H62_4 1_555 1_555
N11_4 H63_4 1_555 1_555
N8_2 H64_2 1_555 1_555
N16_2 H65_2 1_555 1_555
N4_4 H66_4 1_555 1_555
N14_2 H67_2 1_555 1_555
N10_4 H68_4 1_555 1_555
N12_4 H69_4 1_555 1_555
N5_4 H70_4 1_555 1_555
N7_2 H71_2 1_555 1_555
N15_2 H72_2 1_555 1_555
N23_2 H76_2 1_555 1_555
N17_2 H78_2 1_555 1_555
N21_4 H79_4 1_555 1_555
N20_4 H80_4 1_555 1_555
N18_2 H81_2 1_555 1_555
N24_2 H82_2 1_555 1_555
N22_2 H83_2 1_555 1_555
N19_4 H84_4 1_555 1_555
N25_5 C25_5 1_555 1_555
C26_5 C25_5 1_555 1_555
N26_5 C26_5 1_555 1_555
N27_5 Zn5_9 1_555 1_555
N91_2 C28_3 1_555 1_555
C29_3 C28_3 1_555 1_555
N29_3 C29_3 1_555 1_555
N30_3 C30_3 1_555 1_555
N52_5 C52_5 1_555 1_555
C53_5 C52_5 1_555 1_555
N53_5 C53_5 1_555 1_555
N54_5 Zn5_9 1_555 1_555
N58_3 C58_3 1_555 1_555
C59_3 C58_3 1_555 1_555
N59_3 C59_3 1_555 1_555
N60_3 C60_3 1_555 1_555
N90 C76_3 1_555 1_555
C77_3 C76_3 1_555 1_555
N77_3 C77_3 1_555 1_555
N78_3 C78_3 1_555 1_555
N82_3 C82_3 1_555 1_555
C83_3 C82_3 1_555 1_555
N83_3 C83_3 1_555 1_555
N84_3 C84_3 1_555 1_555
Zn22_5 N25_5 1_555 1_555
Zn23_5 N52_5 1_555 1_555
Zn24_3 N83_3 1_555 1_555
Zn25_3 N77_3 1_555 1_555
Zn26_3 N59_3 1_555 1_555
Zn27_3 N29_3 1_555 1_555
Zn29_3 N58_3 1_555 1_555
Zn28 N82_3 1_555 1_555
C26_5 C27_5 1_555 1_555
N26_5 Zn22_5 1_555 1_555
C27_5 N27_5 1_555 1_555
C29_3 C30_3 1_555 1_555
N30_3 Zn27_3 1_555 1_555
C53_5 C54_5 1_555 1_555
N53_5 Zn23_5 1_555 1_555
C54_5 N54_5 1_555 1_555
C59_3 C60_3 1_555 1_555
N60_3 Zn26_3 1_555 1_555
C77_3 C78_3 1_555 1_555
N78_3 Zn25_3 1_555 1_555
C83_3 C84_3 1_555 1_555
N84_3 Zn24_3 1_555 1_555
N29_3 H1_3 1_555 1_555
N30_3 H14_3 1_555 1_555
N58_3 H17_3 1_555 1_555
N52_5 H18_5 1_555 1_555
N54_5 H24_5 1_555 1_555
N53_5 H29_5 1_555 1_555
N60_3 H31_3 1_555 1_555
N59_3 H33_3 1_555 1_555
N78_3 H49_3 1_555 1_555
N90 H50_3 1_555 1_555
N77_3 H51_3 1_555 1_555
N84_3 H52_3 1_555 1_555
N82_3 H55_3 1_555 1_555
N83_3 H56_3 1_555 1_555
N26_5 H73_5 1_555 1_555
N27_5 H74_5 1_555 1_555
N91_2 H75_3 1_555 1_555
N25_5 H77_5 1_555 1_555
C1_3 N1_3 1_555 1_555
N1_3 Zn11_3 1_555 1_555
C2_3 C1_3 1_555 1_555
N2_3 C2_3 1_555 1_555
C3_3 C1_3 1_555 1_555
N3_3 C3_3 1_555 1_555
Zn1_3 N7_3 1_555 1_555
C4_5 N4_5 1_555 1_555
N4_5 Zn22_5 1_555 1_555
C5_5 C4_5 1_555 1_555
N5_5 C5_5 1_555 1_555
C6_5 C5_5 1_555 1_555
N6_5 C6_5 1_555 1_555
Zn2_5 N10_5 1_555 1_555
Zn3_5 N2_3 1_555 1_555
C7_3 N7_3 1_555 1_555
C8_3 C7_3 1_555 1_555
N8_3 C8_3 1_555 1_555
C9_3 C8_3 1_555 1_555
N9_3 C9_3 1_555 1_555
C10_5 N10_5 1_555 1_555
C11_5 C10_5 1_555 1_555
N11_5 Zn2_5 1_555 1_555
C12_5 C11_5 1_555 1_555
N12_5 C12_5 1_555 1_555
Zn4_3 N8_3 1_555 1_555
Zn5_10 N12_5 1_555 1_555
C13_3 N89_2 1_555 1_555
C14_3 N14_3 1_555 1_555
N14_3 Zn4_3 1_555 1_555
C15_3 C13_3 1_555 1_555
N15_3 Zn4_3 1_555 1_555
C16_3 N16_3 1_555 1_555
N16_3 Zn1_3 1_555 1_555
C17_3 C2_3 1_555 1_555
N17_3 Zn3_5 1_555 1_555
C18_3 C3_3 1_555 1_555
N18_3 Zn1_3 1_555 1_555
C19_5 C4_5 1_555 1_555
N19_5 Zn2_5 1_555 1_555
C20_5 C19_5 1_555 1_555
N20_5 Zn2_5 1_555 1_555
C21_5 C6_5 1_555 1_555
N21_5 Zn3_5 1_555 1_555
C22_3 C7_3 1_555 1_555
N22_3 Zn1_3 1_555 1_555
C23_3 C22_3 1_555 1_555
N23_3 C23_3 1_555 1_555
C24_3 C9_3 1_555 1_555
N24_3 C24_3 1_555 1_555
C31_3 N31_3 1_555 1_555
N31_3 Zn14_3 1_555 1_555
C32_3 C31_3 1_555 1_555
N32_3 C32_3 1_555 1_555
C33_3 C31_3 1_555 1_555
N33_3 C33_3 1_555 1_555
Zn7_3 N37_3 1_555 1_555
C34_5 N34_5 1_555 1_555
N34_5 Zn23_5 1_555 1_555
C35_5 C34_5 1_555 1_555
N35_5 C35_5 1_555 1_555
C36_5 C35_5 1_555 1_555
N36_5 C36_5 1_555 1_555
Zn8_5 N40_5 1_555 1_555
Zn9_5 N32_3 1_555 1_555
C37_3 N37_3 1_555 1_555
C38_3 C32_3 1_555 1_555
N38_3 Zn9_5 1_555 1_555
C39_3 C33_3 1_555 1_555
N39_3 Zn7_3 1_555 1_555
C40_5 C34_5 1_555 1_555
N40_5 C40_5 1_555 1_555
C41_5 C40_5 1_555 1_555
N41_5 Zn8_5 1_555 1_555
C42_5 C36_5 1_555 1_555
N42_5 Zn9_5 1_555 1_555
C43_3 N43_3 1_555 1_555
N43_3 Zn7_3 1_555 1_555
C44_3 C43_3 1_555 1_555
N44_3 C44_3 1_555 1_555
C45_3 C44_3 1_555 1_555
N45_3 C45_3 1_555 1_555
C46_3 C43_3 1_555 1_555
N46_3 Zn7_3 1_555 1_555
C47_3 C46_3 1_555 1_555
N47_3 C47_3 1_555 1_555
C48_3 C45_3 1_555 1_555
N48_3 C48_3 1_555 1_555
C49_5 N49_5 1_555 1_555
N49_5 Zn8_5 1_555 1_555
C50_5 C49_5 1_555 1_555
N50_5 Zn8_5 1_555 1_555
C51_5 C50_5 1_555 1_555
N51_5 Zn5_10 1_555 1_555
Zn10_3 N44_3 1_555 1_555
C55_3 N55_3 1_555 1_555
N55_3 Zn29_4 1_555 1_555
C56_3 N56_3 1_555 1_555
N56_3 Zn10_3 1_555 1_555
C57_3 C55_3 1_555 1_555
N57_3 Zn10_3 1_555 1_555
Zn11_3 N3_3 1_555 1_555
Zn22_5 N5_5 1_555 1_555
C61_3 N61_3 1_555 1_555
N61_3 Zn11_3 1_555 1_555
C62_3 C61_3 1_555 1_555
N62_3 C62_3 1_555 1_555
C63_3 C62_3 1_555 1_555
N63_3 C63_3 1_555 1_555
C64_3 C61_3 1_555 1_555
N64_3 Zn11_3 1_555 1_555
C65_3 C64_3 1_555 1_555
N65_3 C65_3 1_555 1_555
C66_3 C63_3 1_555 1_555
N66_3 C66_3 1_555 1_555
Zn24_3 N62_3 1_555 1_555
Zn14_3 N33_3 1_555 1_555
Zn23_5 N35_5 1_555 1_555
C67_3 N67_3 1_555 1_555
N67_3 Zn14_3 1_555 1_555
C68_3 C67_3 1_555 1_555
N68_3 C68_3 1_555 1_555
C69_3 C68_3 1_555 1_555
N69_3 C69_3 1_555 1_555
C70_3 C67_3 1_555 1_555
N70_3 Zn14_3 1_555 1_555
C71_3 C70_3 1_555 1_555
N71_3 C71_3 1_555 1_555
C72_3 C69_3 1_555 1_555
N72_3 C72_3 1_555 1_555
Zn25_3 N68_3 1_555 1_555
Zn26_3 N47_3 1_555 1_555
Zn27_3 N23_3 1_555 1_555
Zn19_3 N71_3 1_555 1_555
C73_3 N92 1_555 1_555
C74_3 N74_3 1_555 1_555
N74_3 Zn19_3 1_555 1_555
C75_3 C73_3 1_555 1_555
N75_3 Zn19_3 1_555 1_555
Zn21_3 N65_3 1_555 1_555
C79_3 N79_3 1_555 1_555
N79_3 Zn28_2 1_555 1_555
C80_3 N80_3 1_555 1_555
N80_3 Zn21_3 1_555 1_555
C81_3 C79_3 1_555 1_555
N81_3 Zn21_3 1_555 1_555
N6_5 Zn3_5 1_555 1_555
N9_3 Zn4_3 1_555 1_555
C11_5 N11_5 1_555 1_555
C14_3 C15_3 1_555 1_555
C15_3 N15_3 1_555 1_555
C16_3 C17_3 1_555 1_555
C16_3 C18_3 1_555 1_555
C17_3 N17_3 1_555 1_555
C18_3 N18_3 1_555 1_555
C19_5 N19_5 1_555 1_555
C20_5 N20_5 1_555 1_555
C20_5 C21_5 1_555 1_555
C21_5 N21_5 1_555 1_555
C22_3 N22_3 1_555 1_555
C23_3 C24_3 1_555 1_555
N24_3 Zn27_3 1_555 1_555
N36_5 Zn9_5 1_555 1_555
C37_3 C38_3 1_555 1_555
C37_3 C39_3 1_555 1_555
C38_3 N38_3 1_555 1_555
C39_3 N39_3 1_555 1_555
C41_5 N41_5 1_555 1_555
C41_5 C42_5 1_555 1_555
C42_5 N42_5 1_555 1_555
N45_3 Zn10_3 1_555 1_555
C46_3 N46_3 1_555 1_555
C47_3 C48_3 1_555 1_555
N48_3 Zn26_3 1_555 1_555
C50_5 N50_5 1_555 1_555
C51_5 N51_5 1_555 1_555
C56_3 C57_3 1_555 1_555
C57_3 N57_3 1_555 1_555
N63_3 Zn24_3 1_555 1_555
C64_3 N64_3 1_555 1_555
C65_3 C66_3 1_555 1_555
N66_3 Zn21_3 1_555 1_555
N69_3 Zn25_3 1_555 1_555
C70_3 N70_3 1_555 1_555
C71_3 C72_3 1_555 1_555
N72_3 Zn19_3 1_555 1_555
C74_3 C75_3 1_555 1_555
C75_3 N75_3 1_555 1_555
C80_3 C81_3 1_555 1_555
C81_3 N81_3 1_555 1_555
N39_3 H2_3 1_555 1_555
N34_5 H3_5 1_555 1_555
N38_3 H4_3 1_555 1_555
N40_5 H5_5 1_555 1_555
N37_3 H6_3 1_555 1_555
N36_5 H7_5 1_555 1_555
N33_3 H8_3 1_555 1_555
N42_5 H9_5 1_555 1_555
N41_5 H10_5 1_555 1_555
N35_5 H11_5 1_555 1_555
N43_3 H12_3 1_555 1_555
N31_3 H13_3 1_555 1_555
N32_3 H15_3 1_555 1_555
N57_3 H16_3 1_555 1_555
N49_5 H19_5 1_555 1_555
N44_3 H20_3 1_555 1_555
N46_3 H21_3 1_555 1_555
N47_3 H22_3 1_555 1_555
N51_5 H23_5 1_555 1_555
N55_3 H25_3 1_555 1_555
N56_3 H26_3 1_555 1_555
N48_3 H27_3 1_555 1_555
N45_3 H28_3 1_555 1_555
N50_5 H30_5 1_555 1_555
N61_3 H32_3 1_555 1_555
N64_3 H34_3 1_555 1_555
N62_3 H35_3 1_555 1_555
N63_3 H36_3 1_555 1_555
N66_3 H37_3 1_555 1_555
N65_3 H38_3 1_555 1_555
N79_3 H39_3 1_555 1_555
N67_3 H40_3 1_555 1_555
N69_3 H41_3 1_555 1_555
N71_3 H42_3 1_555 1_555
N92 H43_3 1_555 1_555
N70_3 H44_3 1_555 1_555
N74_3 H45_3 1_555 1_555
N68_3 H46_3 1_555 1_555
N72_3 H47_3 1_555 1_555
N75_3 H48_3 1_555 1_555
N81_3 H53_3 1_555 1_555
N80_3 H54_3 1_555 1_555
N2_3 H57_3 1_555 1_555
N3_3 H58_3 1_555 1_555
N1_3 H59_3 1_555 1_555
N9_3 H60_3 1_555 1_555
N89_2 H61_3 1_555 1_555
N6_5 H62_5 1_555 1_555
N11_5 H63_5 1_555 1_555
N8_3 H64_3 1_555 1_555
N16_3 H65_3 1_555 1_555
N4_5 H66_5 1_555 1_555
N14_3 H67_3 1_555 1_555
N10_5 H68_5 1_555 1_555
N12_5 H69_5 1_555 1_555
N5_5 H70_5 1_555 1_555
N7_3 H71_3 1_555 1_555
N15_3 H72_3 1_555 1_555
N23_3 H76_3 1_555 1_555
N17_3 H78_3 1_555 1_555
N21_5 H79_5 1_555 1_555
N20_5 H80_5 1_555 1_555
N18_3 H81_3 1_555 1_555
N24_3 H82_3 1_555 1_555
N22_3 H83_3 1_555 1_555
N19_5 H84_5 1_555 1_555

#END
