
###############################################################################
#
# This file contains modified crystal structure data generated from the
# MOF subset of the Cambridge Structural Database (CSD) v543 
# hosted by the Cambridge Crystallographic Data Centre (CCDC).
#
# This work is licensed under the Creative Commons
# Attribution-NonCommercial-ShareAlike 4.0 International License.
# To view a copy of this license, visit
# http://creativecommons.org/licenses/by-nc-sa/4.0/
# or send a letter to
# Creative Commons, PO Box 1866, Mountain View, CA 94042, USA.
#
# CIF created using the CSD Python API on 29 September 2022
# The structure has been converted into the P1 space group
# The structure has a 3D framework
# The original CSD entry WAHBOA06 is in the tetragonal crystal system
# The framework has been calculated to contain at least 10.0% void space
# The void calculation uses a probe of radius 1.32A, grid spacing 0.4
# H atom positions have been added when not included in the experimental data
#
###############################################################################

data_WAHBOA06
_chemical_formula_moiety         '(C96 H96 N96 Zn34)n'
_symmetry_cell_setting           triclinic
_symmetry_space_group_name_H-M   'P 1'
_symmetry_Int_Tables_number      1
_space_group_name_Hall           'P 1'
loop_
_symmetry_equiv_pos_site_id
_symmetry_equiv_pos_as_xyz
1 x,y,z
_cell_length_a                   20.7384
_cell_length_b                   20.7384
_cell_length_c                   20.7384
_cell_angle_alpha                90
_cell_angle_beta                 90
_cell_angle_gamma                90
_cell_volume                     8919.2
loop_
_atom_site_label
_atom_site_type_symbol
_atom_site_fract_x
_atom_site_fract_y
_atom_site_fract_z
_atom_site_U_iso_or_equiv
_atom_site_thermal_displace_type
C1 C 0.09783 0.65192 0.38816 0.0500 Uiso
N1 N 0.07560 0.67748 0.32776 0.0500 Uiso
C2 C 0.06870 0.59808 0.41729 0.0500 Uiso
N2 N 0.00830 0.57252 0.39506 0.0500 Uiso
C3 C 0.09808 0.56870 0.47163 0.0500 Uiso
N3 N 0.07252 0.50830 0.49386 0.0500 Uiso
C4 C 0.15192 0.59783 0.50076 0.0500 Uiso
N4 N 0.17748 0.57560 0.56116 0.0500 Uiso
C5 C 0.15217 0.68130 0.41754 0.0500 Uiso
N5 N 0.17440 0.74170 0.39198 0.0500 Uiso
C6 C 0.18130 0.65217 0.47138 0.0500 Uiso
N6 N 0.24170 0.67440 0.49694 0.0500 Uiso
Zn1 Zn 0.00000 0.50000 0.44446 0.0500 Uiso
Zn2 Zn 0.12500 0.75000 0.31946 0.0500 Uiso
N13 N 0.07560 0.82252 0.31116 0.0500 Uiso
N15 N 0.17440 0.75830 0.24694 0.0500 Uiso
Zn4 Zn 0.25000 0.62500 0.56946 0.0500 Uiso
H2 H 0.0413661 0.65986 0.297544 . .
H5 H 0.271916 0.708634 0.47932 . .
H8 H 0.208634 0.771916 0.4096 . .
H10 H 0.0219157 0.40986 0.360826 . .
H11 H 0.15986 0.541366 0.591376 . .
H12 H 0.0901402 0.478084 0.528094 . .
Zn1_2 Zn 1.00000 0.50000 0.44446 0.0500 Uiso
C7 C 0.90217 0.34808 0.38816 0.0500 Uiso
N7 N 0.92440 0.32252 0.32776 0.0500 Uiso
C8 C 0.93130 0.40192 0.41729 0.0500 Uiso
N8 N 0.99170 0.42748 0.39506 0.0500 Uiso
C9 C 0.90192 0.43130 0.47163 0.0500 Uiso
N9 N 0.92748 0.49170 0.49386 0.0500 Uiso
C10 C 0.84808 0.40217 0.50076 0.0500 Uiso
N10 N 0.82252 0.42440 0.56116 0.0500 Uiso
C11 C 0.84783 0.31870 0.41754 0.0500 Uiso
N11 N 0.82560 0.25830 0.39198 0.0500 Uiso
C12 C 0.81870 0.34783 0.47138 0.0500 Uiso
N12 N 0.75830 0.32560 0.49694 0.0500 Uiso
Zn3 Zn 0.87500 0.25000 0.31946 0.0500 Uiso
N14 N 0.92440 0.17748 0.31116 0.0500 Uiso
N16 N 0.82560 0.24170 0.24694 0.0500 Uiso
Zn5 Zn 0.75000 0.37500 0.56946 0.0500 Uiso
H1 H 0.791366 0.228084 0.4096 . .
H3 H 0.978084 0.59014 0.360826 . .
H4 H 0.90986 0.521916 0.528094 . .
H6 H 0.728084 0.291366 0.47932 . .
H7 H 0.958634 0.34014 0.297544 . .
H9 H 0.84014 0.458634 0.591376 . .
C10_2 C 0.65192 0.09783 0.00076 0.0500 Uiso
N10_2 N 0.67748 0.07560 0.06116 0.0500 Uiso
Zn5_2 Zn 0.75000 0.12500 0.06946 0.0500 Uiso
H9_2 H 0.65986 0.0413661 0.0913757 . .
H12_2 H 0.40986 0.0219157 0.0280939 . .
Zn1_3 Zn 0.50000 -0.00000 0.94446 0.0500 Uiso
C7_2 C 0.59783 0.15192 0.88816 0.0500 Uiso
N7_2 N 0.57560 0.17748 0.82776 0.0500 Uiso
C8_2 C 0.56870 0.09808 0.91729 0.0500 Uiso
N8_2 N 0.50830 0.07252 0.89506 0.0500 Uiso
C9_2 C 0.59808 0.06870 0.97163 0.0500 Uiso
N9_2 N 0.57252 0.00830 0.99386 0.0500 Uiso
C11_2 C 0.65217 0.18130 0.91754 0.0500 Uiso
N11_2 N 0.67440 0.24170 0.89198 0.0500 Uiso
C12_2 C 0.68130 0.15217 0.97138 0.0500 Uiso
N12_2 N 0.74170 0.17440 0.99694 0.0500 Uiso
Zn3_2 Zn 0.62500 0.25000 0.81946 0.0500 Uiso
N14_2 N 0.57560 0.32252 0.81116 0.0500 Uiso
N16_2 N 0.67440 0.25830 0.74694 0.0500 Uiso
H1_2 H 0.708634 0.271916 0.9096 . .
H6_2 H 0.771916 0.208634 0.97932 . .
H7_2 H 0.541366 0.15986 0.797544 . .
H10_2 H 0.478084 0.0901402 0.860826 . .
C4_2 C 0.34808 0.90217 0.00076 0.0500 Uiso
N4_2 N 0.32252 0.92440 0.06116 0.0500 Uiso
Zn4_2 Zn 0.25000 0.87500 0.06946 0.0500 Uiso
H4_2 H 0.59014 0.978084 0.0280939 . .
H11_2 H 0.34014 0.958634 0.0913757 . .
C1_2 C 0.40217 0.84808 0.88816 0.0500 Uiso
N1_2 N 0.42440 0.82252 0.82776 0.0500 Uiso
C2_2 C 0.43130 0.90192 0.91729 0.0500 Uiso
N2_2 N 0.49170 0.92748 0.89506 0.0500 Uiso
C3_2 C 0.40192 0.93130 0.97163 0.0500 Uiso
N3_2 N 0.42748 0.99170 0.99386 0.0500 Uiso
C5_2 C 0.34783 0.81870 0.91754 0.0500 Uiso
N5_2 N 0.32560 0.75830 0.89198 0.0500 Uiso
C6_2 C 0.31870 0.84783 0.97138 0.0500 Uiso
N6_2 N 0.25830 0.82560 0.99694 0.0500 Uiso
Zn1_4 Zn 0.50000 1.00000 0.94446 0.0500 Uiso
Zn2_2 Zn 0.37500 0.75000 0.81946 0.0500 Uiso
N13_2 N 0.42440 0.67748 0.81116 0.0500 Uiso
N15_2 N 0.32560 0.74170 0.74694 0.0500 Uiso
H2_2 H 0.458634 0.84014 0.797544 . .
H3_2 H 0.521916 0.90986 0.860826 . .
H5_2 H 0.228084 0.791366 0.97932 . .
H8_2 H 0.291366 0.728084 0.9096 . .
C1_3 C 0.34808 0.59783 0.63816 0.0500 Uiso
N1_3 N 0.32252 0.57560 0.57776 0.0500 Uiso
C2_3 C 0.40192 0.56870 0.66729 0.0500 Uiso
N2_3 N 0.42748 0.50830 0.64506 0.0500 Uiso
C3_3 C 0.43130 0.59808 0.72163 0.0500 Uiso
N3_3 N 0.49170 0.57252 0.74386 0.0500 Uiso
C4_3 C 0.40217 0.65192 0.75076 0.0500 Uiso
C5_3 C 0.31870 0.65217 0.66754 0.0500 Uiso
N5_3 N 0.25830 0.67440 0.64198 0.0500 Uiso
C6_3 C 0.34783 0.68130 0.72138 0.0500 Uiso
Zn1_5 Zn 0.50000 0.50000 0.69446 0.0500 Uiso
C7_3 C 0.65192 0.40217 0.63816 0.0500 Uiso
N7_3 N 0.67748 0.42440 0.57776 0.0500 Uiso
C8_3 C 0.59808 0.43130 0.66729 0.0500 Uiso
N8_3 N 0.57252 0.49170 0.64506 0.0500 Uiso
C9_3 C 0.56870 0.40192 0.72163 0.0500 Uiso
N9_3 N 0.50830 0.42748 0.74386 0.0500 Uiso
C10_3 C 0.59783 0.34808 0.75076 0.0500 Uiso
C11_3 C 0.68130 0.34783 0.66754 0.0500 Uiso
N11_3 N 0.74170 0.32560 0.64198 0.0500 Uiso
C12_3 C 0.65217 0.31870 0.72138 0.0500 Uiso
H1_3 H 0.771916 0.291366 0.6596 . .
H2_3 H 0.34014 0.541366 0.547544 . .
H3_3 H 0.40986 0.478084 0.610826 . .
H4_3 H 0.478084 0.40986 0.778094 . .
H5_3 H 0.291366 0.771916 0.72932 . .
H6_3 H 0.708634 0.228084 0.72932 . .
H7_3 H 0.65986 0.458634 0.547544 . .
H8_3 H 0.228084 0.708634 0.6596 . .
H9_3 H 0.541366 0.34014 0.841376 . .
H10_3 H 0.59014 0.521916 0.610826 . .
H11_3 H 0.458634 0.65986 0.841376 . .
H12_3 H 0.521916 0.59014 0.778094 . .
C1_4 C 0.15192 0.90217 0.13816 0.0500 Uiso
N1_4 N 0.17748 0.92440 0.07776 0.0500 Uiso
C2_4 C 0.09808 0.93130 0.16729 0.0500 Uiso
N2_4 N 0.07252 0.99170 0.14506 0.0500 Uiso
C3_4 C 0.06870 0.90192 0.22163 0.0500 Uiso
N3_4 N 0.00830 0.92748 0.24386 0.0500 Uiso
C4_4 C 0.09783 0.84808 0.25076 0.0500 Uiso
C5_4 C 0.18130 0.84783 0.16754 0.0500 Uiso
N5_4 N 0.24170 0.82560 0.14198 0.0500 Uiso
C6_4 C 0.15217 0.81870 0.22138 0.0500 Uiso
Zn1_6 Zn 0.00000 1.00000 0.19446 0.0500 Uiso
H2_4 H 0.15986 0.958634 0.0475443 . .
H5_4 H 0.208634 0.728084 0.22932 . .
H8_4 H 0.271916 0.791366 0.1596 . .
H11_4 H 0.0413661 0.84014 0.341376 . .
Zn1_7 Zn 1.00000 0.00000 0.19446 0.0500 Uiso
C7_4 C 0.84808 0.09783 0.13816 0.0500 Uiso
N7_4 N 0.82252 0.07560 0.07776 0.0500 Uiso
C8_4 C 0.90192 0.06870 0.16729 0.0500 Uiso
N8_4 N 0.92748 0.00830 0.14506 0.0500 Uiso
C9_4 C 0.93130 0.09808 0.22163 0.0500 Uiso
N9_4 N 0.99170 0.07252 0.24386 0.0500 Uiso
C10_4 C 0.90217 0.15192 0.25076 0.0500 Uiso
C11_4 C 0.81870 0.15217 0.16754 0.0500 Uiso
N11_4 N 0.75830 0.17440 0.14198 0.0500 Uiso
C12_4 C 0.84783 0.18130 0.22138 0.0500 Uiso
H1_4 H 0.728084 0.208634 0.1596 . .
H6_4 H 0.791366 0.271916 0.22932 . .
H7_4 H 0.84014 0.0413661 0.0475443 . .
H9_4 H 0.958634 0.15986 0.341376 . .
Zn1_8 Zn 0.00000 0.00000 0.19446 0.0500 Uiso
H3_4 H 0.0901402 0.0219157 0.110826 . .
H4_4 H 0.0219157 0.0901402 0.278094 . .
Zn1_9 Zn 1.00000 1.00000 0.19446 0.0500 Uiso
H10_4 H 0.90986 0.978084 0.110826 . .
H12_4 H 0.978084 0.90986 0.278094 . .
N16_3 N 0.17440 0.25830 0.00306 0.0500 Uiso
Zn1_10 Zn 0.00000 0.00000 0.80554 0.0500 Uiso
C7_5 C 0.09783 0.15192 0.86184 0.0500 Uiso
N7_5 N 0.07560 0.17748 0.92224 0.0500 Uiso
C8_5 C 0.06870 0.09808 0.83271 0.0500 Uiso
N8_5 N 0.00830 0.07252 0.85494 0.0500 Uiso
C9_5 C 0.09808 0.06870 0.77837 0.0500 Uiso
N9_5 N 0.07252 0.00830 0.75614 0.0500 Uiso
C10_5 C 0.15192 0.09783 0.74924 0.0500 Uiso
N10_3 N 0.17748 0.07560 0.68884 0.0500 Uiso
C11_5 C 0.15217 0.18130 0.83246 0.0500 Uiso
N11_5 N 0.17440 0.24170 0.85802 0.0500 Uiso
C12_5 C 0.18130 0.15217 0.77862 0.0500 Uiso
N12_3 N 0.24170 0.17440 0.75306 0.0500 Uiso
Zn3_3 Zn 0.12500 0.25000 0.93054 0.0500 Uiso
N14_3 N 0.07560 0.32252 0.93884 0.0500 Uiso
Zn5_3 Zn 0.25000 0.12500 0.68054 0.0500 Uiso
H1_5 H 0.208634 0.271916 0.8404 . .
H6_5 H 0.271916 0.208634 0.77068 . .
H7_5 H 0.0413661 0.15986 0.952456 . .
H9_5 H 0.15986 0.0413661 0.658624 . .
N15_3 N 0.82560 0.74170 0.00306 0.0500 Uiso
C1_5 C 0.90217 0.84808 0.86184 0.0500 Uiso
N1_5 N 0.92440 0.82252 0.92224 0.0500 Uiso
C2_5 C 0.93130 0.90192 0.83271 0.0500 Uiso
N2_5 N 0.99170 0.92748 0.85494 0.0500 Uiso
C3_5 C 0.90192 0.93130 0.77837 0.0500 Uiso
N3_5 N 0.92748 0.99170 0.75614 0.0500 Uiso
C4_5 C 0.84808 0.90217 0.74924 0.0500 Uiso
N4_3 N 0.82252 0.92440 0.68884 0.0500 Uiso
C5_5 C 0.84783 0.81870 0.83246 0.0500 Uiso
N5_5 N 0.82560 0.75830 0.85802 0.0500 Uiso
C6_5 C 0.81870 0.84783 0.77862 0.0500 Uiso
N6_3 N 0.75830 0.82560 0.75306 0.0500 Uiso
Zn1_11 Zn 1.00000 1.00000 0.80554 0.0500 Uiso
Zn2_3 Zn 0.87500 0.75000 0.93054 0.0500 Uiso
N13_3 N 0.92440 0.67748 0.93884 0.0500 Uiso
Zn4_3 Zn 0.75000 0.87500 0.68054 0.0500 Uiso
H2_5 H 0.958634 0.84014 0.952456 . .
H5_5 H 0.728084 0.791366 0.77068 . .
H8_5 H 0.791366 0.728084 0.8404 . .
H11_5 H 0.84014 0.958634 0.658624 . .
C1_6 C 0.59783 0.65192 0.36184 0.0500 Uiso
N1_6 N 0.57560 0.67748 0.42224 0.0500 Uiso
C2_6 C 0.56870 0.59808 0.33271 0.0500 Uiso
N2_6 N 0.50830 0.57252 0.35494 0.0500 Uiso
C3_6 C 0.59808 0.56870 0.27837 0.0500 Uiso
N3_6 N 0.57252 0.50830 0.25614 0.0500 Uiso
C4_6 C 0.65192 0.59783 0.24924 0.0500 Uiso
N4_4 N 0.67748 0.57560 0.18884 0.0500 Uiso
C5_6 C 0.65217 0.68130 0.33246 0.0500 Uiso
N5_6 N 0.67440 0.74170 0.35802 0.0500 Uiso
C6_6 C 0.68130 0.65217 0.27862 0.0500 Uiso
N6_4 N 0.74170 0.67440 0.25306 0.0500 Uiso
Zn1_12 Zn 0.50000 0.50000 0.30554 0.0500 Uiso
Zn2_4 Zn 0.62500 0.75000 0.43054 0.0500 Uiso
C7_6 C 0.40217 0.34808 0.36184 0.0500 Uiso
N7_6 N 0.42440 0.32252 0.42224 0.0500 Uiso
C8_6 C 0.43130 0.40192 0.33271 0.0500 Uiso
N8_6 N 0.49170 0.42748 0.35494 0.0500 Uiso
C9_6 C 0.40192 0.43130 0.27837 0.0500 Uiso
N9_6 N 0.42748 0.49170 0.25614 0.0500 Uiso
C10_6 C 0.34808 0.40217 0.24924 0.0500 Uiso
N10_4 N 0.32252 0.42440 0.18884 0.0500 Uiso
C11_6 C 0.34783 0.31870 0.33246 0.0500 Uiso
N11_6 N 0.32560 0.25830 0.35802 0.0500 Uiso
C12_6 C 0.31870 0.34783 0.27862 0.0500 Uiso
N12_4 N 0.25830 0.32560 0.25306 0.0500 Uiso
Zn3_4 Zn 0.37500 0.25000 0.43054 0.0500 Uiso
N13_4 N 0.57560 0.82252 0.43884 0.0500 Uiso
N14_4 N 0.42440 0.17748 0.43884 0.0500 Uiso
N15_4 N 0.67440 0.75830 0.50306 0.0500 Uiso
N16_4 N 0.32560 0.24170 0.50306 0.0500 Uiso
Zn4_4 Zn 0.75000 0.62500 0.18054 0.0500 Uiso
Zn5_4 Zn 0.25000 0.37500 0.18054 0.0500 Uiso
H1_6 H 0.291366 0.228084 0.3404 . .
H2_6 H 0.541366 0.65986 0.452456 . .
H3_5 H 0.478084 0.59014 0.389174 . .
H4_5 H 0.40986 0.521916 0.221906 . .
H5_6 H 0.771916 0.708634 0.27068 . .
H6_6 H 0.228084 0.291366 0.27068 . .
H7_6 H 0.458634 0.34014 0.452456 . .
H8_6 H 0.708634 0.771916 0.3404 . .
H9_6 H 0.34014 0.458634 0.158624 . .
H10_5 H 0.521916 0.40986 0.389174 . .
H11_6 H 0.65986 0.541366 0.158624 . .
H12_5 H 0.59014 0.478084 0.221906 . .
Zn1_13 Zn 0.50000 0.00000 0.55554 0.0500 Uiso
C7_7 C 0.34808 0.09783 0.61184 0.0500 Uiso
N7_7 N 0.32252 0.07560 0.67224 0.0500 Uiso
C8_7 C 0.40192 0.06870 0.58271 0.0500 Uiso
N8_7 N 0.42748 0.00830 0.60494 0.0500 Uiso
C9_7 C 0.43130 0.09808 0.52837 0.0500 Uiso
N9_7 N 0.49170 0.07252 0.50614 0.0500 Uiso
C10_7 C 0.40217 0.15192 0.49924 0.0500 Uiso
C11_7 C 0.31870 0.15217 0.58246 0.0500 Uiso
N11_7 N 0.25830 0.17440 0.60802 0.0500 Uiso
C12_7 C 0.34783 0.18130 0.52862 0.0500 Uiso
H1_7 H 0.228084 0.208634 0.5904 . .
H3_6 H 0.59014 0.0219157 0.639174 . .
H4_6 H 0.521916 0.0901402 0.471906 . .
H6_7 H 0.291366 0.271916 0.52068 . .
H7_7 H 0.34014 0.0413661 0.702456 . .
H9_7 H 0.458634 0.15986 0.408624 . .
C1_7 C 0.65192 0.90217 0.61184 0.0500 Uiso
N1_7 N 0.67748 0.92440 0.67224 0.0500 Uiso
C2_7 C 0.59808 0.93130 0.58271 0.0500 Uiso
N2_7 N 0.57252 0.99170 0.60494 0.0500 Uiso
C3_7 C 0.56870 0.90192 0.52837 0.0500 Uiso
N3_7 N 0.50830 0.92748 0.50614 0.0500 Uiso
C4_7 C 0.59783 0.84808 0.49924 0.0500 Uiso
C5_7 C 0.68130 0.84783 0.58246 0.0500 Uiso
N5_7 N 0.74170 0.82560 0.60802 0.0500 Uiso
C6_7 C 0.65217 0.81870 0.52862 0.0500 Uiso
Zn1_14 Zn 0.50000 1.00000 0.55554 0.0500 Uiso
H2_7 H 0.65986 0.958634 0.702456 . .
H5_7 H 0.708634 0.728084 0.52068 . .
H8_7 H 0.771916 0.791366 0.5904 . .
H10_6 H 0.40986 0.978084 0.639174 . .
H11_7 H 0.541366 0.84014 0.408624 . .
H12_6 H 0.478084 0.90986 0.471906 . .
Zn1_15 Zn -0.00000 0.50000 0.05554 0.0500 Uiso
C7_8 C 0.15192 0.40217 0.11184 0.0500 Uiso
N7_8 N 0.17748 0.42440 0.17224 0.0500 Uiso
C8_8 C 0.09808 0.43130 0.08271 0.0500 Uiso
N8_8 N 0.07252 0.49170 0.10494 0.0500 Uiso
C9_8 C 0.06870 0.40192 0.02837 0.0500 Uiso
N9_8 N 0.00830 0.42748 0.00614 0.0500 Uiso
C11_8 C 0.18130 0.34783 0.08246 0.0500 Uiso
N11_8 N 0.24170 0.32560 0.10802 0.0500 Uiso
C12_8 C 0.15217 0.31870 0.02862 0.0500 Uiso
H1_8 H 0.271916 0.291366 0.0903998 . .
H6_8 H 0.208634 0.228084 0.0206802 . .
H7_8 H 0.15986 0.458634 0.202456 . .
H10_7 H 0.0901402 0.521916 0.139174 . .
C10_8 C 0.09783 0.34808 0.99924 0.0500 Uiso
H9_8 H 0.0413661 0.34014 0.908624 . .
H12_7 H 0.0219157 0.59014 0.971906 . .
C1_8 C 0.84808 0.59783 0.11184 0.0500 Uiso
N1_8 N 0.82252 0.57560 0.17224 0.0500 Uiso
C2_8 C 0.90192 0.56870 0.08271 0.0500 Uiso
N2_8 N 0.92748 0.50830 0.10494 0.0500 Uiso
C3_8 C 0.93130 0.59808 0.02837 0.0500 Uiso
N3_8 N 0.99170 0.57252 0.00614 0.0500 Uiso
C5_8 C 0.81870 0.65217 0.08246 0.0500 Uiso
N5_8 N 0.75830 0.67440 0.10802 0.0500 Uiso
C6_8 C 0.84783 0.68130 0.02862 0.0500 Uiso
Zn1_16 Zn 1.00000 0.50000 0.05554 0.0500 Uiso
H2_8 H 0.84014 0.541366 0.202456 . .
H3_7 H 0.90986 0.478084 0.139174 . .
H5_8 H 0.791366 0.771916 0.0206802 . .
H8_8 H 0.728084 0.708634 0.0903998 . .
C4_8 C 0.90217 0.65192 0.99924 0.0500 Uiso
H4_7 H 0.978084 0.40986 0.971906 . .
H11_8 H 0.958634 0.65986 0.908624 . .
Zn1_17 Zn 0.00000 1.00000 0.80554 0.0500 Uiso
H3_8 H 0.0219157 0.90986 0.889174 . .
H4_8 H 0.0901402 0.978084 0.721906 . .
Zn1_18 Zn 1.00000 0.00000 0.80554 0.0500 Uiso
H10_8 H 0.978084 0.0901402 0.889174 . .
H12_8 H 0.90986 0.0219157 0.721906 . .
loop_
_geom_bond_atom_site_label_1
_geom_bond_atom_site_label_2
_geom_bond_site_symmetry_1
_geom_bond_site_symmetry_2
C1 N1 1_555 1_555
N1 Zn2 1_555 1_555
C2 C1 1_555 1_555
N2 C2 1_555 1_555
C3 C2 1_555 1_555
N3 C3 1_555 1_555
C4 C3 1_555 1_555
N4 C4 1_555 1_555
C5 C1 1_555 1_555
N5 C5 1_555 1_555
C6 C4 1_555 1_555
N6 C6 1_555 1_555
Zn1 N2 1_555 1_555
Zn2 N5 1_555 1_555
N13 Zn2 1_555 1_555
N15 Zn2 1_555 1_555
Zn4 N4 1_555 1_555
N3 Zn1 1_555 1_555
C5 C6 1_555 1_555
N6 Zn4 1_555 1_555
N1 H2 1_555 1_555
N6 H5 1_555 1_555
N5 H8 1_555 1_555
N4 H11 1_555 1_555
N3 H12 1_555 1_555
C7 N7 1_555 1_555
N7 Zn3 1_555 1_555
C8 C7 1_555 1_555
N8 Zn1_2 1_555 1_555
C9 C8 1_555 1_555
N9 Zn1_2 1_555 1_555
C10 C9 1_555 1_555
N10 C10 1_555 1_555
C11 C7 1_555 1_555
N11 C11 1_555 1_555
C12 C10 1_555 1_555
N12 C12 1_555 1_555
Zn3 N11 1_555 1_555
N14 Zn3 1_555 1_555
N16 Zn3 1_555 1_555
Zn5 N10 1_555 1_555
C8 N8 1_555 1_555
C9 N9 1_555 1_555
C11 C12 1_555 1_555
N12 Zn5 1_555 1_555
N11 H1 1_555 1_555
N9 H4 1_555 1_555
N12 H6 1_555 1_555
N7 H7 1_555 1_555
N10 H9 1_555 1_555
N10_2 C10_2 1_555 1_555
Zn5_2 N10_2 1_555 1_555
N10_2 H9_2 1_555 1_555
C7_2 N7_2 1_555 1_555
N7_2 Zn3_2 1_555 1_555
C8_2 C7_2 1_555 1_555
N8_2 Zn1_3 1_555 1_555
C9_2 C8_2 1_555 1_555
N9_2 Zn1_3 1_555 1_555
C11_2 C7_2 1_555 1_555
N11_2 C11_2 1_555 1_555
N12_2 C12_2 1_555 1_555
Zn3_2 N11_2 1_555 1_555
N14_2 Zn3_2 1_555 1_555
N16_2 Zn3_2 1_555 1_555
C8_2 N8_2 1_555 1_555
C9_2 N9_2 1_555 1_555
C11_2 C12_2 1_555 1_555
N11_2 H1_2 1_555 1_555
N12_2 H6_2 1_555 1_555
N7_2 H7_2 1_555 1_555
N8_2 H10_2 1_555 1_555
N4_2 C4_2 1_555 1_555
Zn4_2 N4_2 1_555 1_555
N4_2 H11_2 1_555 1_555
C1_2 N1_2 1_555 1_555
N1_2 Zn2_2 1_555 1_555
C2_2 C1_2 1_555 1_555
N2_2 C2_2 1_555 1_555
C3_2 C2_2 1_555 1_555
N3_2 C3_2 1_555 1_555
C5_2 C1_2 1_555 1_555
N5_2 C5_2 1_555 1_555
N6_2 C6_2 1_555 1_555
Zn1_4 N2_2 1_555 1_555
Zn2_2 N5_2 1_555 1_555
N13_2 Zn2_2 1_555 1_555
N15_2 Zn2_2 1_555 1_555
N3_2 Zn1_4 1_555 1_555
C5_2 C6_2 1_555 1_555
N1_2 H2_2 1_555 1_555
N2_2 H3_2 1_555 1_555
N6_2 H5_2 1_555 1_555
N5_2 H8_2 1_555 1_555
C1_3 N1_3 1_555 1_555
N1_3 Zn4 1_555 1_555
C2_3 C1_3 1_555 1_555
N2_3 C2_3 1_555 1_555
C3_3 C2_3 1_555 1_555
N3_3 C3_3 1_555 1_555
C4_3 C3_3 1_555 1_555
N13_2 C4_3 1_555 1_555
C5_3 C1_3 1_555 1_555
N5_3 C5_3 1_555 1_555
C6_3 C4_3 1_555 1_555
N15_2 C6_3 1_555 1_555
Zn1_5 N2_3 1_555 1_555
Zn4 N5_3 1_555 1_555
C7_3 N7_3 1_555 1_555
N7_3 Zn5 1_555 1_555
C8_3 C7_3 1_555 1_555
N8_3 Zn1_5 1_555 1_555
C9_3 C8_3 1_555 1_555
N9_3 Zn1_5 1_555 1_555
C10_3 C9_3 1_555 1_555
N14_2 C10_3 1_555 1_555
C11_3 C7_3 1_555 1_555
N11_3 C11_3 1_555 1_555
C12_3 C10_3 1_555 1_555
N16_2 C12_3 1_555 1_555
Zn5 N11_3 1_555 1_555
N3_3 Zn1_5 1_555 1_555
C5_3 C6_3 1_555 1_555
C8_3 N8_3 1_555 1_555
C9_3 N9_3 1_555 1_555
C11_3 C12_3 1_555 1_555
N11_3 H1_3 1_555 1_555
N1_3 H2_3 1_555 1_555
N2_3 H3_3 1_555 1_555
N9_3 H4_3 1_555 1_555
N15_2 H5_3 1_555 1_555
N16_2 H6_3 1_555 1_555
N7_3 H7_3 1_555 1_555
N5_3 H8_3 1_555 1_555
N14_2 H9_3 1_555 1_555
N8_3 H10_3 1_555 1_555
N13_2 H11_3 1_555 1_555
N3_3 H12_3 1_555 1_555
C1_4 N1_4 1_555 1_555
N1_4 Zn4_2 1_555 1_555
C2_4 C1_4 1_555 1_555
N2_4 C2_4 1_555 1_555
C3_4 C2_4 1_555 1_555
N3_4 C3_4 1_555 1_555
C4_4 C3_4 1_555 1_555
N13 C4_4 1_555 1_555
C5_4 C1_4 1_555 1_555
N5_4 C5_4 1_555 1_555
C6_4 C4_4 1_555 1_555
N15 C6_4 1_555 1_555
Zn1_6 N2_4 1_555 1_555
Zn4_2 N5_4 1_555 1_555
N3_4 Zn1_6 1_555 1_555
C5_4 C6_4 1_555 1_555
N1_4 H2_4 1_555 1_555
N15 H5_4 1_555 1_555
N5_4 H8_4 1_555 1_555
N13 H11_4 1_555 1_555
C7_4 N7_4 1_555 1_555
N7_4 Zn5_2 1_555 1_555
C8_4 C7_4 1_555 1_555
N8_4 Zn1_7 1_555 1_555
C9_4 C8_4 1_555 1_555
N9_4 Zn1_7 1_555 1_555
C10_4 C9_4 1_555 1_555
N14 C10_4 1_555 1_555
C11_4 C7_4 1_555 1_555
N11_4 C11_4 1_555 1_555
C12_4 C10_4 1_555 1_555
N16 C12_4 1_555 1_555
Zn5_2 N11_4 1_555 1_555
C8_4 N8_4 1_555 1_555
C9_4 N9_4 1_555 1_555
C11_4 C12_4 1_555 1_555
N11_4 H1_4 1_555 1_555
N16 H6_4 1_555 1_555
N7_4 H7_4 1_555 1_555
N14 H9_4 1_555 1_555
C7_5 N7_5 1_555 1_555
N7_5 Zn3_3 1_555 1_555
C8_5 C7_5 1_555 1_555
N8_5 Zn1_10 1_555 1_555
C9_5 C8_5 1_555 1_555
N9_5 Zn1_10 1_555 1_555
C10_5 C9_5 1_555 1_555
N10_3 C10_5 1_555 1_555
C11_5 C7_5 1_555 1_555
N11_5 C11_5 1_555 1_555
C12_5 C10_5 1_555 1_555
N12_3 C12_5 1_555 1_555
Zn3_3 N11_5 1_555 1_555
N14_3 Zn3_3 1_555 1_555
Zn5_3 N10_3 1_555 1_555
C8_5 N8_5 1_555 1_555
C9_5 N9_5 1_555 1_555
C11_5 C12_5 1_555 1_555
N12_3 Zn5_3 1_555 1_555
N11_5 H1_5 1_555 1_555
N12_3 H6_5 1_555 1_555
N7_5 H7_5 1_555 1_555
N10_3 H9_5 1_555 1_555
C1_5 N1_5 1_555 1_555
N1_5 Zn2_3 1_555 1_555
C2_5 C1_5 1_555 1_555
N2_5 C2_5 1_555 1_555
C3_5 C2_5 1_555 1_555
N3_5 C3_5 1_555 1_555
C4_5 C3_5 1_555 1_555
N4_3 C4_5 1_555 1_555
C5_5 C1_5 1_555 1_555
N5_5 C5_5 1_555 1_555
C6_5 C4_5 1_555 1_555
N6_3 C6_5 1_555 1_555
Zn1_11 N2_5 1_555 1_555
Zn2_3 N5_5 1_555 1_555
N13_3 Zn2_3 1_555 1_555
Zn4_3 N4_3 1_555 1_555
N3_5 Zn1_11 1_555 1_555
C5_5 C6_5 1_555 1_555
N6_3 Zn4_3 1_555 1_555
N1_5 H2_5 1_555 1_555
N6_3 H5_5 1_555 1_555
N5_5 H8_5 1_555 1_555
N4_3 H11_5 1_555 1_555
C1_6 N1_6 1_555 1_555
N1_6 Zn2_4 1_555 1_555
C2_6 C1_6 1_555 1_555
N2_6 C2_6 1_555 1_555
C3_6 C2_6 1_555 1_555
N3_6 C3_6 1_555 1_555
C4_6 C3_6 1_555 1_555
N4_4 C4_6 1_555 1_555
C5_6 C1_6 1_555 1_555
N5_6 C5_6 1_555 1_555
C6_6 C4_6 1_555 1_555
N6_4 C6_6 1_555 1_555
Zn1_12 N2_6 1_555 1_555
Zn2_4 N5_6 1_555 1_555
C7_6 N7_6 1_555 1_555
N7_6 Zn3_4 1_555 1_555
C8_6 C7_6 1_555 1_555
N8_6 Zn1_12 1_555 1_555
C9_6 C8_6 1_555 1_555
N9_6 Zn1_12 1_555 1_555
C10_6 C9_6 1_555 1_555
N10_4 C10_6 1_555 1_555
C11_6 C7_6 1_555 1_555
N11_6 C11_6 1_555 1_555
C12_6 C10_6 1_555 1_555
N12_4 C12_6 1_555 1_555
Zn3_4 N11_6 1_555 1_555
N13_4 Zn2_4 1_555 1_555
N14_4 Zn3_4 1_555 1_555
N15_4 Zn2_4 1_555 1_555
N16_4 Zn3_4 1_555 1_555
Zn4_4 N4_4 1_555 1_555
Zn5_4 N10_4 1_555 1_555
N3_6 Zn1_12 1_555 1_555
C5_6 C6_6 1_555 1_555
N6_4 Zn4_4 1_555 1_555
C8_6 N8_6 1_555 1_555
C9_6 N9_6 1_555 1_555
C11_6 C12_6 1_555 1_555
N12_4 Zn5_4 1_555 1_555
N11_6 H1_6 1_555 1_555
N1_6 H2_6 1_555 1_555
N2_6 H3_5 1_555 1_555
N9_6 H4_5 1_555 1_555
N6_4 H5_6 1_555 1_555
N12_4 H6_6 1_555 1_555
N7_6 H7_6 1_555 1_555
N5_6 H8_6 1_555 1_555
N10_4 H9_6 1_555 1_555
N8_6 H10_5 1_555 1_555
N4_4 H11_6 1_555 1_555
N3_6 H12_5 1_555 1_555
C7_7 N7_7 1_555 1_555
N7_7 Zn5_3 1_555 1_555
C8_7 C7_7 1_555 1_555
N8_7 Zn1_13 1_555 1_555
C9_7 C8_7 1_555 1_555
N9_7 Zn1_13 1_555 1_555
C10_7 C9_7 1_555 1_555
N14_4 C10_7 1_555 1_555
C11_7 C7_7 1_555 1_555
N11_7 C11_7 1_555 1_555
C12_7 C10_7 1_555 1_555
N16_4 C12_7 1_555 1_555
Zn5_3 N11_7 1_555 1_555
C8_7 N8_7 1_555 1_555
C9_7 N9_7 1_555 1_555
C11_7 C12_7 1_555 1_555
N11_7 H1_7 1_555 1_555
N9_7 H4_6 1_555 1_555
N16_4 H6_7 1_555 1_555
N7_7 H7_7 1_555 1_555
N14_4 H9_7 1_555 1_555
C1_7 N1_7 1_555 1_555
N1_7 Zn4_3 1_555 1_555
C2_7 C1_7 1_555 1_555
N2_7 C2_7 1_555 1_555
C3_7 C2_7 1_555 1_555
N3_7 C3_7 1_555 1_555
C4_7 C3_7 1_555 1_555
N13_4 C4_7 1_555 1_555
C5_7 C1_7 1_555 1_555
N5_7 C5_7 1_555 1_555
C6_7 C4_7 1_555 1_555
N15_4 C6_7 1_555 1_555
Zn1_14 N2_7 1_555 1_555
Zn4_3 N5_7 1_555 1_555
N3_7 Zn1_14 1_555 1_555
C5_7 C6_7 1_555 1_555
N1_7 H2_7 1_555 1_555
N15_4 H5_7 1_555 1_555
N5_7 H8_7 1_555 1_555
N13_4 H11_7 1_555 1_555
N3_7 H12_6 1_555 1_555
C7_8 N7_8 1_555 1_555
N7_8 Zn5_4 1_555 1_555
C8_8 C7_8 1_555 1_555
N8_8 Zn1_15 1_555 1_555
C9_8 C8_8 1_555 1_555
N9_8 Zn1_15 1_555 1_555
C11_8 C7_8 1_555 1_555
N11_8 C11_8 1_555 1_555
N16_3 C12_8 1_555 1_555
Zn5_4 N11_8 1_555 1_555
C8_8 N8_8 1_555 1_555
C9_8 N9_8 1_555 1_555
C11_8 C12_8 1_555 1_555
N11_8 H1_8 1_555 1_555
N16_3 H6_8 1_555 1_555
N7_8 H7_8 1_555 1_555
N8_8 H10_7 1_555 1_555
N14_3 C10_8 1_555 1_555
N14_3 H9_8 1_555 1_555
C1_8 N1_8 1_555 1_555
N1_8 Zn4_4 1_555 1_555
C2_8 C1_8 1_555 1_555
N2_8 C2_8 1_555 1_555
C3_8 C2_8 1_555 1_555
N3_8 C3_8 1_555 1_555
C5_8 C1_8 1_555 1_555
N5_8 C5_8 1_555 1_555
N15_3 C6_8 1_555 1_555
Zn1_16 N2_8 1_555 1_555
Zn4_4 N5_8 1_555 1_555
N3_8 Zn1_16 1_555 1_555
C5_8 C6_8 1_555 1_555
N1_8 H2_8 1_555 1_555
N2_8 H3_7 1_555 1_555
N15_3 H5_8 1_555 1_555
N5_8 H8_8 1_555 1_555
N13_3 C4_8 1_555 1_555
N13_3 H11_8 1_555 1_555

#END
