
###############################################################################
#
# This file contains modified crystal structure data generated from the
# MOF subset of the Cambridge Structural Database (CSD) v543 
# hosted by the Cambridge Crystallographic Data Centre (CCDC).
#
# This work is licensed under the Creative Commons
# Attribution-NonCommercial-ShareAlike 4.0 International License.
# To view a copy of this license, visit
# http://creativecommons.org/licenses/by-nc-sa/4.0/
# or send a letter to
# Creative Commons, PO Box 1866, Mountain View, CA 94042, USA.
#
# CIF created using the CSD Python API on 29 September 2022
# The structure has been converted into the P1 space group
# The structure has a 3D framework
# The original CSD entry WAHFUJ01 is in the monoclinic crystal system
# The framework has been calculated to contain at least 10.0% void space
# The void calculation uses a probe of radius 1.32A, grid spacing 0.4
#
###############################################################################

data_WAHFUJ01
_chemical_formula_moiety         '(C72 H44 Cu4 N20 O22)n'
_symmetry_cell_setting           triclinic
_symmetry_space_group_name_H-M   'P 1'
_symmetry_Int_Tables_number      1
_space_group_name_Hall           'P 1'
loop_
_symmetry_equiv_pos_site_id
_symmetry_equiv_pos_as_xyz
1 x,y,z
_cell_length_a                   10.782(5)
_cell_length_b                   8.781(5)
_cell_length_c                   25.017(5)
_cell_angle_alpha                90
_cell_angle_beta                 98.139(5)
_cell_angle_gamma                90
_cell_volume                     2344.67
loop_
_atom_site_label
_atom_site_type_symbol
_atom_site_fract_x
_atom_site_fract_y
_atom_site_fract_z
N2 N 0.6021(3) 0.2336(3) 0.15807(11)
C8 C 0.4992(4) 0.2146(5) 0.05074(15)
C14 C 0.4504(4) 0.1288(5) 0.08894(15)
H8 H 0.3829 0.0639 0.0791
C15 C 0.5041(3) 0.1415(4) 0.14223(14)
H9 H 0.4712 0.0843 0.1682
C16 C 0.6485(4) 0.3136(5) 0.12042(14)
H10 H 0.7170 0.3766 0.1309
C17 C 0.6002(4) 0.3075(6) 0.06678(16)
H11 H 0.6352 0.3654 0.0416
Cu4 Cu 0.66107(3) 0.27940(5) 0.236498(14)
N2_2 N 0.8979(3) 0.7336(3) 0.34193(11)
C15_2 C 0.9959(3) 0.6415(4) 0.35777(14)
C16_2 C 0.8515(4) 0.8136(5) 0.37958(14)
H10_2 H 0.7830 0.8766 0.3691
C17_2 C 0.8998(4) 0.8075(6) 0.43322(16)
H11_2 H 0.8648 0.8654 0.4584
Cu4_2 Cu 0.83893(3) 0.77940(5) 0.263502(14)
O2 O 0.0320(2) 0.0027(3) 0.31436(13)
O3 O 0.6048(2) 0.0267(4) 0.37390(12)
N4 N 0.4981(3) 0.0709(4) 0.36025(13)
O4 O 0.4540(3) 0.1833(5) 0.37955(17)
H5 H 0.2605 0.0452 0.3461
O6 O 0.6601(2) 0.0264(3) 0.25984(10)
O1 O 0.0103(2) 0.8199(3) 0.25163(10)
C1 C 0.4194(3) 0.9881(4) 0.31760(13)
C2 C 0.2122(3) 0.9143(4) 0.28005(14)
C5 C 0.4731(3) 0.9092(4) 0.27842(13)
C9 C 0.2628(3) 0.8374(5) 0.23994(15)
H4 H 0.2098 0.7876 0.2129
C10 C 0.2924(3) 0.9914(4) 0.31906(14)
C12 C 0.0733(3) 0.9162(4) 0.28281(15)
C13 C 0.3914(3) 0.8332(4) 0.23925(15)
H7 H 0.4232 0.7790 0.2123
C18 C 0.6110(3) 0.9084(4) 0.27310(12)
O5 O 0.66438(19) 0.7800(3) 0.28032(9)
N1 N 0.7748(2) 0.8172(3) 0.18533(10)
N3 N 0.6332(3) 0.8636(4) 0.02100(12)
C3 C 0.6261(3) 0.7433(4) 0.11061(14)
H1 H 0.5581 0.6830 0.0968
C4 C 0.7765(3) 0.9349(5) 0.09983(14)
C6 C 0.6775(3) 0.7326(4) 0.16367(13)
H3 H 0.6432 0.6634 0.1856
C7 C 0.6773(3) 0.8455(5) 0.07786(13)
C11 C 0.8223(3) 0.9184(4) 0.15382(13)
H6 H 0.8885 0.9798 0.1688
N5 N 0.5476(4) 0.7788(5) 0.00562(14)
O8 O 0.8399(2) 0.5264(3) 0.24016(10)
N1_2 N 0.7252(2) 0.3172(3) 0.31467(10)
O1_2 O 0.4897(2) 0.3199(3) 0.24837(10)
O2_2 O 0.4680(2) 0.5027(3) 0.18564(13)
N3_2 N 0.8668(3) 0.3636(4) 0.47900(12)
N4_2 N 0.0019(3) 0.5709(4) 0.13975(13)
C1_2 C 0.0806(3) 0.4881(4) 0.18240(13)
C2_2 C 0.2878(3) 0.4143(4) 0.21995(14)
C3_2 C 0.8739(3) 0.2433(4) 0.38939(14)
H1_2 H 0.9419 0.1830 0.4032
O4_2 O 0.0460(3) 0.6833(5) 0.12045(17)
C4_2 C 0.7235(3) 0.4349(5) 0.40017(14)
H2 H 0.6881 0.5052 0.4214
C5_2 C 0.0269(3) 0.4092(4) 0.22158(13)
C6_2 C 0.8225(3) 0.2326(4) 0.33633(13)
H3_2 H 0.8568 0.1634 0.3144
C7_2 C 0.8227(3) 0.3455(5) 0.42214(13)
C8_2 C 0.9992(4) 0.2854(5) 0.55074(15)
C9_2 C 0.2372(3) 0.3374(5) 0.26006(15)
H4_2 H 0.2902 0.2876 0.2871
C10_2 C 0.2076(3) 0.4914(4) 0.18094(14)
H5_2 H 0.2395 0.5452 0.1539
C11_2 C 0.6777(3) 0.4184(4) 0.34618(13)
H6_2 H 0.6115 0.4798 0.3312
N5_2 N 0.9524(4) 0.2788(5) 0.49438(14)
C12_2 C 0.4267(3) 0.4162(4) 0.21719(15)
C13_2 C 0.1086(3) 0.3332(4) 0.26075(15)
H7_2 H 0.0768 0.2790 0.2877
C14_2 C 0.9504(4) 0.3712(5) 0.58894(15)
H8_2 H 0.8829 0.4361 0.5791
H9_2 H 0.9712 0.4157 0.6682
O7 O 0.83562(19) 0.2800(3) 0.21968(9)
O3_2 O 0.8952(2) 0.5267(4) 0.12610(12)
C18_2 C 0.8890(3) 0.4084(4) 0.22690(12)
Cu1 Cu 0.16107(3) 0.22060(5) 0.736498(14)
N1_3 N 0.2252(2) 0.1828(3) 0.81467(10)
N3_3 N 0.3668(3) 0.1364(4) 0.97900(12)
C3_3 C 0.3739(3) 0.2567(4) 0.88939(14)
H1_3 H 0.4419 0.3170 0.9032
C4_3 C 0.2235(3) 0.0651(5) 0.90017(14)
C6_3 C 0.3225(3) 0.2674(4) 0.83633(13)
H3_3 H 0.3568 0.3366 0.8144
C7_3 C 0.3227(3) 0.1545(5) 0.92214(13)
C11_3 C 0.1777(3) 0.0816(4) 0.84618(13)
H6_3 H 0.1115 0.0202 0.8312
N5_3 N 0.4524(4) 0.2212(5) 0.99438(14)
N6 N 0.1021(3) 0.2664(3) 0.65807(11)
O7_2 O 0.33562(19) 0.2200(3) 0.71968(9)
O8_2 O 0.1601(2) 0.4736(3) 0.75984(10)
O1_3 O 0.9897(2) 0.1801(3) 0.74837(10)
C1_3 C 0.5806(3) 0.0119(4) 0.68240(13)
C2_3 C 0.7878(3) 0.0857(4) 0.71995(14)
C5_3 C 0.5269(3) 0.0908(4) 0.72158(13)
C9_3 C 0.7372(3) 0.1626(5) 0.76006(15)
H4_3 H 0.7902 0.2124 0.7871
C10_3 C 0.7076(3) 0.0086(4) 0.68094(14)
C12_3 C 0.9267(3) 0.0838(4) 0.71719(15)
C13_3 C 0.6086(3) 0.1668(4) 0.76075(15)
H7_3 H 0.5768 0.2210 0.7877
C18_3 C 0.3890(3) 0.0916(4) 0.72690(12)
O2_3 O 0.9680(2) 0.9973(3) 0.68564(13)
O3_3 O 0.3952(2) 0.9733(4) 0.62610(12)
N4_3 N 0.5019(3) 0.9291(4) 0.63975(13)
O4_3 O 0.5460(3) 0.8167(5) 0.62045(17)
H5_3 H 0.7395 0.9548 0.6539
O6_2 O 0.3399(2) 0.9736(3) 0.74016(10)
Cu3 Cu 0.33893(3) 0.72060(5) 0.763502(14)
O3_4 O 0.1048(2) 0.4733(4) 0.87390(12)
C18_4 C 0.1110(3) 0.5916(4) 0.77310(12)
O5_2 O 0.16438(19) 0.7200(3) 0.78032(9)
N1_4 N 0.2748(2) 0.6828(3) 0.68533(10)
O1_4 O 0.5103(2) 0.6801(3) 0.75163(10)
O2_4 O 0.5320(2) 0.4973(3) 0.81436(13)
N3_4 N 0.1332(3) 0.6364(4) 0.52100(12)
N4_4 N 0.9981(3) 0.4291(4) 0.86025(13)
C1_4 C 0.9194(3) 0.5119(4) 0.81760(13)
C2_4 C 0.7122(3) 0.5857(4) 0.78005(14)
C3_4 C 0.1261(3) 0.7567(4) 0.61061(14)
H1_4 H 0.0581 0.8170 0.5968
O4_4 O 0.9540(3) 0.3167(5) 0.87955(17)
C4_4 C 0.2765(3) 0.5651(5) 0.59983(14)
H2_2 H 0.3119 0.4948 0.5786
C5_4 C 0.9731(3) 0.5908(4) 0.77842(13)
C6_4 C 0.1775(3) 0.7674(4) 0.66367(13)
H3_4 H 0.1432 0.8366 0.6856
C7_4 C 0.1773(3) 0.6545(5) 0.57786(13)
C8_3 C 0.0008(4) 0.7146(5) 0.44926(15)
C9_4 C 0.7628(3) 0.6626(5) 0.73994(15)
H4_4 H 0.7098 0.7124 0.7129
C10_4 C 0.7924(3) 0.5086(4) 0.81906(14)
H5_4 H 0.7605 0.4548 0.8461
C11_4 C 0.3223(3) 0.5816(4) 0.65382(13)
H6_4 H 0.3885 0.5202 0.6688
N5_4 N 0.0476(4) 0.7212(5) 0.50562(14)
C12_4 C 0.5733(3) 0.5838(4) 0.78281(15)
C13_4 C 0.8914(3) 0.6668(4) 0.73925(15)
H7_4 H 0.9232 0.7210 0.7123
C14_3 C 0.0496(4) 0.6288(5) 0.41106(15)
H8_3 H 0.1171 0.5639 0.4209
H9_3 H 0.0288 0.5843 0.3318
N6_2 N 0.3979(3) 0.7664(3) 0.84193(11)
C8_4 C 0.5008(4) 0.7854(5) 0.94926(15)
C14_4 C 0.5496(4) 0.8712(5) 0.91106(15)
H8_4 H 0.6171 0.9361 0.9209
C15_3 C 0.4959(3) 0.8585(4) 0.85777(14)
H9_4 H 0.5288 0.9157 0.8318
C16_3 C 0.3515(4) 0.6864(5) 0.87958(14)
H10_3 H 0.2830 0.6234 0.8691
C17_3 C 0.3998(4) 0.6925(6) 0.93322(16)
H11_3 H 0.3648 0.6346 0.9584
C15_4 C 0.0041(3) 0.3585(4) 0.64223(14)
C16_4 C 0.1485(4) 0.1864(5) 0.62042(14)
H10_4 H 0.2170 0.1234 0.6309
C17_4 C 0.1002(4) 0.1925(6) 0.56678(16)
H11_4 H 0.1352 0.1346 0.5416
H2_3 H 0.1881 0.9948 0.9214
H2_4 H 0.8119 0.0052 0.0786
loop_
_geom_bond_atom_site_label_1
_geom_bond_atom_site_label_2
_geom_bond_site_symmetry_1
_geom_bond_site_symmetry_2
N2 C15 1_555 1_555
C14 C8 1_555 1_555
H8 C14 1_555 1_555
C15 C14 1_555 1_555
H9 C15 1_555 1_555
C16 N2 1_555 1_555
H10 C16 1_555 1_555
C17 C8 1_555 1_555
H11 C17 1_555 1_555
Cu4 N2 1_555 1_555
C16 C17 1_555 1_555
N2_2 C15_2 1_555 1_555
C16_2 N2_2 1_555 1_555
H10_2 C16_2 1_555 1_555
H11_2 C17_2 1_555 1_555
Cu4_2 N2_2 1_555 1_555
C16_2 C17_2 1_555 1_555
O3 N4 1_555 1_555
O4 N4 1_555 1_555
Cu4 O6 1_555 1_555
C1 C5 1_555 1_555
C2 C9 1_555 1_555
C5 C13 1_555 1_555
C9 H4 1_555 1_555
C10 C1 1_555 1_555
C12 O1 1_555 1_555
C13 C9 1_555 1_555
H7 C13 1_555 1_555
C18 C5 1_555 1_555
O5 C18 1_555 1_555
Cu4_2 O5 1_555 1_555
C2 C10 1_555 1_555
C2 C12 1_555 1_555
Cu4_2 N1 1_555 1_555
N1 C6 1_555 1_555
N3 C7 1_555 1_555
C3 H1 1_555 1_555
C6 C3 1_555 1_555
H3 C6 1_555 1_555
C7 C3 1_555 1_555
C11 N1 1_555 1_555
H6 C11 1_555 1_555
N5 N3 1_555 1_555
O8 Cu4_2 1_555 1_555
C4 C7 1_555 1_555
C4 C11 1_555 1_555
Cu4 N1_2 1_555 1_555
N1_2 C6_2 1_555 1_555
O1_2 Cu4 1_555 1_555
O2_2 C12_2 1_555 1_555
N3_2 C7_2 1_555 1_555
N4_2 C1_2 1_555 1_555
C1_2 C5_2 1_555 1_555
C2_2 C9_2 1_555 1_555
C3_2 H1_2 1_555 1_555
O4_2 N4_2 1_555 1_555
C4_2 H2 1_555 1_555
C5_2 C13_2 1_555 1_555
C6_2 C3_2 1_555 1_555
H3_2 C6_2 1_555 1_555
C7_2 C3_2 1_555 1_555
C8_2 N5_2 1_555 1_555
C9_2 H4_2 1_555 1_555
C10_2 C1_2 1_555 1_555
H5_2 C10_2 1_555 1_555
C11_2 N1_2 1_555 1_555
H6_2 C11_2 1_555 1_555
N5_2 N3_2 1_555 1_555
C12_2 O1_2 1_555 1_555
C13_2 C9_2 1_555 1_555
H7_2 C13_2 1_555 1_555
C14_2 C8_2 1_555 1_555
H8_2 C14_2 1_555 1_555
O7 Cu4 1_555 1_555
C2_2 C10_2 1_555 1_555
C2_2 C12_2 1_555 1_555
C4_2 C7_2 1_555 1_555
C4_2 C11_2 1_555 1_555
O7 C18_2 1_555 1_555
O8 C18_2 1_555 1_555
Cu1 N1_3 1_555 1_555
N1_3 C6_3 1_555 1_555
N3_3 C7_3 1_555 1_555
C3_3 H1_3 1_555 1_555
C6_3 C3_3 1_555 1_555
H3_3 C6_3 1_555 1_555
C7_3 C3_3 1_555 1_555
C11_3 N1_3 1_555 1_555
H6_3 C11_3 1_555 1_555
N5_3 N3_3 1_555 1_555
N6 Cu1 1_555 1_555
O7_2 Cu1 1_555 1_555
O8_2 Cu1 1_555 1_555
C4_3 C7_3 1_555 1_555
C4_3 C11_3 1_555 1_555
C1_3 C5_3 1_555 1_555
C2_3 C9_3 1_555 1_555
C5_3 C13_3 1_555 1_555
C9_3 H4_3 1_555 1_555
C10_3 C1_3 1_555 1_555
C12_3 O1_3 1_555 1_555
C13_3 C9_3 1_555 1_555
H7_3 C13_3 1_555 1_555
C18_3 C5_3 1_555 1_555
O7_2 C18_3 1_555 1_555
C2_3 C10_3 1_555 1_555
C2_3 C12_3 1_555 1_555
O3_3 N4_3 1_555 1_555
O4_3 N4_3 1_555 1_555
Cu3 O6_2 1_555 1_555
O5_2 C18_4 1_555 1_555
O8_2 C18_4 1_555 1_555
Cu3 O5_2 1_555 1_555
Cu3 N1_4 1_555 1_555
N1_4 C6_4 1_555 1_555
O1_4 Cu3 1_555 1_555
O2_4 C12_4 1_555 1_555
N3_4 C7_4 1_555 1_555
N4_4 C1_4 1_555 1_555
C1_4 C5_4 1_555 1_555
C2_4 C9_4 1_555 1_555
C3_4 H1_4 1_555 1_555
O4_4 N4_4 1_555 1_555
C4_4 H2_2 1_555 1_555
C5_4 C13_4 1_555 1_555
C6_4 C3_4 1_555 1_555
H3_4 C6_4 1_555 1_555
C7_4 C3_4 1_555 1_555
C8_3 N5_4 1_555 1_555
C9_4 H4_4 1_555 1_555
C10_4 C1_4 1_555 1_555
H5_4 C10_4 1_555 1_555
C11_4 N1_4 1_555 1_555
H6_4 C11_4 1_555 1_555
N5_4 N3_4 1_555 1_555
C12_4 O1_4 1_555 1_555
C13_4 C9_4 1_555 1_555
H7_4 C13_4 1_555 1_555
C14_3 C8_3 1_555 1_555
H8_3 C14_3 1_555 1_555
N6_2 Cu3 1_555 1_555
C2_4 C10_4 1_555 1_555
C2_4 C12_4 1_555 1_555
C4_4 C7_4 1_555 1_555
C4_4 C11_4 1_555 1_555
N6_2 C15_3 1_555 1_555
C14_4 C8_4 1_555 1_555
H8_4 C14_4 1_555 1_555
C15_3 C14_4 1_555 1_555
H9_4 C15_3 1_555 1_555
C16_3 N6_2 1_555 1_555
H10_3 C16_3 1_555 1_555
C17_3 C8_4 1_555 1_555
H11_3 C17_3 1_555 1_555
C16_3 C17_3 1_555 1_555
N6 C15_4 1_555 1_555
C16_4 N6 1_555 1_555
H10_4 C16_4 1_555 1_555
H11_4 C17_4 1_555 1_555
C16_4 C17_4 1_555 1_555

#END
