
###############################################################################
#
# This file contains modified crystal structure data generated from the
# MOF subset of the Cambridge Structural Database (CSD) v543 
# hosted by the Cambridge Crystallographic Data Centre (CCDC).
#
# This work is licensed under the Creative Commons
# Attribution-NonCommercial-ShareAlike 4.0 International License.
# To view a copy of this license, visit
# http://creativecommons.org/licenses/by-nc-sa/4.0/
# or send a letter to
# Creative Commons, PO Box 1866, Mountain View, CA 94042, USA.
#
# CIF created using the CSD Python API on 29 September 2022
# The structure has been converted into the P1 space group
# The structure has a 3D framework
# The original CSD entry WAHFUJ is in the monoclinic crystal system
# The framework has been calculated to contain at least 10.0% void space
# The void calculation uses a probe of radius 1.32A, grid spacing 0.4
#
###############################################################################

data_WAHFUJ
_chemical_formula_moiety         '(C72 H44 Cu4 N20 O22)n'
_symmetry_cell_setting           triclinic
_symmetry_space_group_name_H-M   'P 1'
_symmetry_Int_Tables_number      1
_space_group_name_Hall           'P 1'
loop_
_symmetry_equiv_pos_site_id
_symmetry_equiv_pos_as_xyz
1 x,y,z
_cell_length_a                   10.7961(3)
_cell_length_b                   8.7950(2)
_cell_length_c                   25.1748(7)
_cell_angle_alpha                90
_cell_angle_beta                 98.811(2)
_cell_angle_gamma                90
_cell_volume                     2362.18
loop_
_atom_site_label
_atom_site_type_symbol
_atom_site_fract_x
_atom_site_fract_y
_atom_site_fract_z
O1 O 0.0095(2) 0.1779(3) 0.25196(10)
C1 C 0.4217(3) 0.0104(4) 0.31696(13)
C2 C 0.2126(3) 0.0845(4) 0.28001(14)
C3 C 0.4737(3) 0.0898(4) 0.27775(13)
C9 C 0.2614(3) 0.1610(5) 0.24006(15)
H4 H 0.2074 0.2105 0.2133
C10 C 0.3904(3) 0.1657(5) 0.23903(15)
H5 H 0.4209 0.2201 0.2121
C11 C 0.2953(3) 0.0072(4) 0.31839(14)
C12 C 0.0742(3) 0.0826(4) 0.28318(15)
C18 C 0.6109(3) 0.0907(4) 0.27278(12)
O6 O 0.6643(2) 0.2190(3) 0.27946(9)
Cu2 Cu 0.83861(3) 0.21905(5) 0.263358(14)
O2 O 0.0347(2) 0.9966(3) 0.31456(13)
N2 N 0.5024(3) 0.9281(4) 0.35902(13)
O3 O 0.6081(3) 0.9740(4) 0.37332(12)
O4 O 0.4585(3) 0.8135(4) 0.37745(15)
H6 H 0.2647 0.9529 0.3453
O5 O 0.6599(2) 0.9728(3) 0.26015(10)
Cu3 Cu 0.66139(3) 0.71905(5) 0.236642(14)
N1 N 0.7728(2) 0.1808(3) 0.18547(10)
N4 N 0.6314(3) 0.1351(5) 0.02122(12)
C4 C 0.6249(3) 0.2549(4) 0.11019(15)
H1 H 0.5573 0.3155 0.0960
C5 C 0.6756(3) 0.2659(4) 0.16302(14)
H2 H 0.6413 0.3355 0.1845
C6 C 0.6753(4) 0.1527(5) 0.07833(13)
C7 C 0.7734(4) 0.0625(5) 0.10051(14)
C13 C 0.8198(3) 0.0787(4) 0.15472(13)
H7 H 0.8854 0.0167 0.1701
N5 N 0.5491(4) 0.2239(5) 0.00496(14)
N6 N 0.8990(3) 0.2650(3) 0.34159(11)
O7 O 0.8401(2) 0.4728(3) 0.23985(10)
O1_2 O 0.4905(2) 0.6779(3) 0.24804(10)
N1_2 N 0.7272(2) 0.6808(3) 0.31453(10)
O2_2 O 0.4653(2) 0.4966(3) 0.18544(13)
N4_2 N 0.8686(3) 0.6351(5) 0.47878(12)
C1_2 C 0.0783(3) 0.5104(4) 0.18304(13)
C2_2 C 0.2874(3) 0.5845(4) 0.21999(14)
C3_2 C 0.0263(3) 0.5898(4) 0.22225(13)
C4_2 C 0.8751(3) 0.7549(4) 0.38981(15)
H1_2 H 0.9427 0.8155 0.4040
C5_2 C 0.8244(3) 0.7659(4) 0.33698(14)
H2_2 H 0.8587 0.8355 0.3155
O4_2 O 0.0415(3) 0.3135(4) 0.12255(15)
C6_2 C 0.8247(4) 0.6527(5) 0.42167(13)
C7_2 C 0.7266(4) 0.5625(5) 0.39949(14)
H3 H 0.6918 0.4919 0.4204
C8 C 0.9987(4) 0.7159(5) 0.55114(15)
C9_2 C 0.2386(3) 0.6610(5) 0.25994(15)
H4_2 H 0.2926 0.7105 0.2867
C10_2 C 0.1096(3) 0.6657(5) 0.26097(15)
H5_2 H 0.0791 0.7201 0.2879
C11_2 C 0.2047(3) 0.5072(4) 0.18161(14)
H6_2 H 0.2353 0.4529 0.1547
C12_2 C 0.4258(3) 0.5826(4) 0.21682(15)
C13_2 C 0.6802(3) 0.5787(4) 0.34528(13)
H7_2 H 0.6146 0.5167 0.3299
C14 C 0.9501(4) 0.6285(5) 0.58895(15)
H8 H 0.8834 0.5625 0.5787
N5_2 N 0.9509(4) 0.7239(5) 0.49504(14)
H9 H 0.9711 0.5853 0.6681
N6_2 N 0.6010(3) 0.7650(3) 0.15841(11)
O8 O 0.8357(2) 0.7190(3) 0.22054(9)
N2_2 N 0.9976(3) 0.4281(4) 0.14098(13)
O3_2 O 0.8919(3) 0.4740(4) 0.12668(12)
C18_2 C 0.8891(3) 0.5907(4) 0.22722(12)
C8_2 C 0.4987(4) 0.7841(5) 0.05114(15)
C14_2 C 0.4501(4) 0.8715(5) 0.08895(15)
H8_2 H 0.3834 0.9375 0.0787
C15 C 0.5038(3) 0.8577(4) 0.14243(14)
H9_2 H 0.4711 0.9147 0.1681
C16 C 0.6475(4) 0.6844(5) 0.12117(14)
H10 H 0.7163 0.6220 0.1319
C17 C 0.5981(4) 0.6897(6) 0.06785(16)
H11 H 0.6317 0.6298 0.0431
C15_2 C 0.9962(3) 0.3577(4) 0.35757(14)
C16_2 C 0.8525(4) 0.1844(5) 0.37883(14)
H10_2 H 0.7837 0.1220 0.3681
C17_2 C 0.9019(4) 0.1897(6) 0.43215(16)
H11_2 H 0.8683 0.1298 0.4569
N3 N 0.3990(3) 0.2350(3) 0.84159(11)
C8_3 C 0.5013(4) 0.2159(5) 0.94886(15)
C14_3 C 0.5499(4) 0.1285(5) 0.91105(15)
H8_3 H 0.6166 0.0625 0.9213
C15_3 C 0.4962(3) 0.1423(4) 0.85757(14)
H9_3 H 0.5289 0.0853 0.8319
C16_3 C 0.3525(4) 0.3156(5) 0.87883(14)
H10_3 H 0.2837 0.3780 0.8681
C17_3 C 0.4019(4) 0.3103(6) 0.93215(16)
H11_3 H 0.3683 0.3702 0.9569
Cu4 Cu 0.33861(3) 0.28095(5) 0.763358(14)
N3_2 N 0.1010(3) 0.7350(3) 0.65841(11)
C15_4 C 0.0038(3) 0.6423(4) 0.64243(14)
C16_4 C 0.1475(4) 0.8156(5) 0.62117(14)
H10_4 H 0.2163 0.8780 0.6319
C17_4 C 0.0981(4) 0.8103(6) 0.56785(16)
H11_4 H 0.1317 0.8702 0.5431
Cu4_2 Cu 0.16139(3) 0.78095(5) 0.736642(14)
N1_3 N 0.2272(2) 0.8192(3) 0.81453(10)
N4_3 N 0.3686(3) 0.8649(5) 0.97878(12)
C4_3 C 0.3751(3) 0.7451(4) 0.88981(15)
H1_3 H 0.4427 0.6845 0.9040
C5_3 C 0.3244(3) 0.7341(4) 0.83698(14)
H2_3 H 0.3587 0.6645 0.8155
C6_3 C 0.3247(4) 0.8473(5) 0.92167(13)
C7_3 C 0.2266(4) 0.9375(5) 0.89949(14)
C13_3 C 0.1802(3) 0.9213(4) 0.84528(13)
H7_3 H 0.1146 0.9833 0.8299
N5_3 N 0.4509(4) 0.7761(5) 0.99504(14)
O7_2 O 0.1599(2) 0.5272(3) 0.76015(10)
O8_2 O 0.3357(2) 0.7810(3) 0.72054(9)
O2_3 O 0.9653(2) 0.0034(3) 0.68544(13)
N2_3 N 0.4976(3) 0.0719(4) 0.64098(13)
O3_3 O 0.3919(3) 0.0260(4) 0.62668(12)
O4_3 O 0.5415(3) 0.1865(4) 0.62255(15)
H6_3 H 0.7353 0.0471 0.6547
O5_2 O 0.3401(2) 0.0272(3) 0.73985(10)
O1_3 O 0.9905(2) 0.8221(3) 0.74804(10)
C1_3 C 0.5783(3) 0.9896(4) 0.68304(13)
C2_3 C 0.7874(3) 0.9155(4) 0.71999(14)
C3_3 C 0.5263(3) 0.9102(4) 0.72225(13)
C9_3 C 0.7386(3) 0.8390(5) 0.75994(15)
H4_3 H 0.7926 0.7895 0.7867
C10_3 C 0.6096(3) 0.8343(5) 0.76097(15)
H5_3 H 0.5791 0.7799 0.7879
C11_3 C 0.7047(3) 0.9928(4) 0.68161(14)
C12_3 C 0.9258(3) 0.9174(4) 0.71682(15)
C18_3 C 0.3891(3) 0.9093(4) 0.72722(12)
N2_4 N 0.0024(3) 0.5719(4) 0.85902(13)
O3_4 O 0.1081(3) 0.5260(4) 0.87332(12)
C18_4 C 0.1109(3) 0.4093(4) 0.77278(12)
O6_2 O 0.1643(2) 0.2810(3) 0.77946(9)
O1_4 O 0.5095(2) 0.3221(3) 0.75196(10)
N1_4 N 0.2728(2) 0.3192(3) 0.68547(10)
O2_4 O 0.5347(2) 0.5034(3) 0.81456(13)
N4_4 N 0.1314(3) 0.3649(5) 0.52122(12)
C1_4 C 0.9217(3) 0.4896(4) 0.81696(13)
C2_4 C 0.7126(3) 0.4155(4) 0.78001(14)
C3_4 C 0.9737(3) 0.4102(4) 0.77775(13)
C4_4 C 0.1249(3) 0.2451(4) 0.61019(15)
H1_4 H 0.0573 0.1845 0.5960
C5_4 C 0.1756(3) 0.2341(4) 0.66302(14)
H2_4 H 0.1413 0.1645 0.6845
O4_4 O 0.9585(3) 0.6865(4) 0.87745(15)
C6_4 C 0.1753(4) 0.3473(5) 0.57833(13)
C7_4 C 0.2734(4) 0.4375(5) 0.60051(14)
H3_2 H 0.3082 0.5081 0.5796
C8_4 C 0.0013(4) 0.2841(5) 0.44886(15)
C9_4 C 0.7614(3) 0.3390(5) 0.74006(15)
H4_4 H 0.7074 0.2895 0.7133
C10_4 C 0.8904(3) 0.3343(5) 0.73903(15)
H5_4 H 0.9209 0.2799 0.7121
C11_4 C 0.7953(3) 0.4928(4) 0.81839(14)
H6_4 H 0.7647 0.5471 0.8453
C12_4 C 0.5742(3) 0.4174(4) 0.78318(15)
C13_4 C 0.3198(3) 0.4213(4) 0.65472(13)
H7_4 H 0.3854 0.4833 0.6701
C14_4 C 0.0499(4) 0.3715(5) 0.41105(15)
H8_4 H 0.1166 0.4375 0.4213
N5_4 N 0.0491(4) 0.2761(5) 0.50496(14)
H9_4 H 0.0289 0.4147 0.3319
H3_3 H 0.8082 0.9919 0.0796
H3_4 H 0.1918 0.0081 0.9204
loop_
_geom_bond_atom_site_label_1
_geom_bond_atom_site_label_2
_geom_bond_site_symmetry_1
_geom_bond_site_symmetry_2
O1 C12 1_555 1_555
C2 C9 1_555 1_555
C3 C1 1_555 1_555
C9 H4 1_555 1_555
C10 C3 1_555 1_555
H5 C10 1_555 1_555
C11 C1 1_555 1_555
C12 C2 1_555 1_555
C18 C3 1_555 1_555
O6 C18 1_555 1_555
Cu2 O6 1_555 1_555
C2 C11 1_555 1_555
C9 C10 1_555 1_555
N2 O3 1_555 1_555
O4 N2 1_555 1_555
Cu3 O5 1_555 1_555
N1 Cu2 1_555 1_555
N4 C6 1_555 1_555
C4 H1 1_555 1_555
C5 N1 1_555 1_555
H2 C5 1_555 1_555
C6 C4 1_555 1_555
C7 C6 1_555 1_555
C13 N1 1_555 1_555
H7 C13 1_555 1_555
N5 N4 1_555 1_555
N6 Cu2 1_555 1_555
O7 Cu2 1_555 1_555
C4 C5 1_555 1_555
C7 C13 1_555 1_555
Cu3 O1_2 1_555 1_555
O1_2 C12_2 1_555 1_555
N1_2 Cu3 1_555 1_555
O2_2 C12_2 1_555 1_555
N4_2 C6_2 1_555 1_555
C2_2 C9_2 1_555 1_555
C3_2 C1_2 1_555 1_555
C4_2 H1_2 1_555 1_555
C5_2 N1_2 1_555 1_555
H2_2 C5_2 1_555 1_555
C6_2 C4_2 1_555 1_555
C7_2 C6_2 1_555 1_555
H3 C7_2 1_555 1_555
C8 C14 1_555 1_555
C9_2 H4_2 1_555 1_555
C10_2 C3_2 1_555 1_555
H5_2 C10_2 1_555 1_555
C11_2 C1_2 1_555 1_555
H6_2 C11_2 1_555 1_555
C12_2 C2_2 1_555 1_555
C13_2 N1_2 1_555 1_555
H7_2 C13_2 1_555 1_555
C14 H8 1_555 1_555
N5_2 N4_2 1_555 1_555
N6_2 Cu3 1_555 1_555
O8 Cu3 1_555 1_555
C2_2 C11_2 1_555 1_555
C4_2 C5_2 1_555 1_555
C7_2 C13_2 1_555 1_555
C8 N5_2 1_555 1_555
C9_2 C10_2 1_555 1_555
N2_2 O3_2 1_555 1_555
O7 C18_2 1_555 1_555
O8 C18_2 1_555 1_555
N6_2 C15 1_555 1_555
C8_2 C14_2 1_555 1_555
C14_2 H8_2 1_555 1_555
C15 C14_2 1_555 1_555
H9_2 C15 1_555 1_555
C16 N6_2 1_555 1_555
H10 C16 1_555 1_555
C17 C8_2 1_555 1_555
H11 C17 1_555 1_555
C16 C17 1_555 1_555
N6 C15_2 1_555 1_555
C16_2 N6 1_555 1_555
H10_2 C16_2 1_555 1_555
H11_2 C17_2 1_555 1_555
C16_2 C17_2 1_555 1_555
N3 C15_3 1_555 1_555
C8_3 C14_3 1_555 1_555
C14_3 H8_3 1_555 1_555
C15_3 C14_3 1_555 1_555
H9_3 C15_3 1_555 1_555
C16_3 N3 1_555 1_555
H10_3 C16_3 1_555 1_555
C17_3 C8_3 1_555 1_555
H11_3 C17_3 1_555 1_555
Cu4 N3 1_555 1_555
C16_3 C17_3 1_555 1_555
N3_2 C15_4 1_555 1_555
C16_4 N3_2 1_555 1_555
H10_4 C16_4 1_555 1_555
H11_4 C17_4 1_555 1_555
Cu4_2 N3_2 1_555 1_555
C16_4 C17_4 1_555 1_555
N1_3 Cu4_2 1_555 1_555
N4_3 C6_3 1_555 1_555
C4_3 H1_3 1_555 1_555
C5_3 N1_3 1_555 1_555
H2_3 C5_3 1_555 1_555
C6_3 C4_3 1_555 1_555
C7_3 C6_3 1_555 1_555
C13_3 N1_3 1_555 1_555
H7_3 C13_3 1_555 1_555
N5_3 N4_3 1_555 1_555
O7_2 Cu4_2 1_555 1_555
O8_2 Cu4_2 1_555 1_555
C4_3 C5_3 1_555 1_555
C7_3 C13_3 1_555 1_555
N2_3 O3_3 1_555 1_555
O4_3 N2_3 1_555 1_555
Cu4 O5_2 1_555 1_555
O1_3 C12_3 1_555 1_555
C2_3 C9_3 1_555 1_555
C3_3 C1_3 1_555 1_555
C9_3 H4_3 1_555 1_555
C10_3 C3_3 1_555 1_555
H5_3 C10_3 1_555 1_555
C11_3 C1_3 1_555 1_555
C12_3 C2_3 1_555 1_555
C18_3 C3_3 1_555 1_555
O8_2 C18_3 1_555 1_555
C2_3 C11_3 1_555 1_555
C9_3 C10_3 1_555 1_555
N2_4 O3_4 1_555 1_555
O7_2 C18_4 1_555 1_555
O6_2 C18_4 1_555 1_555
Cu4 O6_2 1_555 1_555
Cu4 O1_4 1_555 1_555
O1_4 C12_4 1_555 1_555
N1_4 Cu4 1_555 1_555
O2_4 C12_4 1_555 1_555
N4_4 C6_4 1_555 1_555
C2_4 C9_4 1_555 1_555
C3_4 C1_4 1_555 1_555
C4_4 H1_4 1_555 1_555
C5_4 N1_4 1_555 1_555
H2_4 C5_4 1_555 1_555
C6_4 C4_4 1_555 1_555
C7_4 C6_4 1_555 1_555
H3_2 C7_4 1_555 1_555
C8_4 C14_4 1_555 1_555
C9_4 H4_4 1_555 1_555
C10_4 C3_4 1_555 1_555
H5_4 C10_4 1_555 1_555
C11_4 C1_4 1_555 1_555
H6_4 C11_4 1_555 1_555
C12_4 C2_4 1_555 1_555
C13_4 N1_4 1_555 1_555
H7_4 C13_4 1_555 1_555
C14_4 H8_4 1_555 1_555
N5_4 N4_4 1_555 1_555
C2_4 C11_4 1_555 1_555
C4_4 C5_4 1_555 1_555
C7_4 C13_4 1_555 1_555
C8_4 N5_4 1_555 1_555
C9_4 C10_4 1_555 1_555

#END
