
###############################################################################
#
# This file contains modified crystal structure data generated from the
# MOF subset of the Cambridge Structural Database (CSD) v543 
# hosted by the Cambridge Crystallographic Data Centre (CCDC).
#
# This work is licensed under the Creative Commons
# Attribution-NonCommercial-ShareAlike 4.0 International License.
# To view a copy of this license, visit
# http://creativecommons.org/licenses/by-nc-sa/4.0/
# or send a letter to
# Creative Commons, PO Box 1866, Mountain View, CA 94042, USA.
#
# CIF created using the CSD Python API on 29 September 2022
# The structure has been converted into the P1 space group
# The structure has a 3D framework
# The original CSD entry WAHGIY is in the monoclinic crystal system
# The framework has been calculated to contain at least 10.0% void space
# The void calculation uses a probe of radius 1.32A, grid spacing 0.4
#
###############################################################################

data_WAHGIY
_chemical_formula_moiety         '(C80 H52 Cu4 N20 O22)n'
_symmetry_cell_setting           triclinic
_symmetry_space_group_name_H-M   'P 1'
_symmetry_Int_Tables_number      1
_space_group_name_Hall           'P 1'
loop_
_symmetry_equiv_pos_site_id
_symmetry_equiv_pos_as_xyz
1 x,y,z
_cell_length_a                   11.3018(4)
_cell_length_b                   10.3583(4)
_cell_length_c                   21.3661(7)
_cell_angle_alpha                90
_cell_angle_beta                 95.066(2)
_cell_angle_gamma                90
_cell_volume                     2491.5
loop_
_atom_site_label
_atom_site_type_symbol
_atom_site_fract_x
_atom_site_fract_y
_atom_site_fract_z
C7 C 0.1702(4) 0.5648(4) 0.5169(2)
C8 C 0.2605(4) 0.4632(4) 0.52340(19)
C9 C 0.2765(4) 0.3830(5) 0.5747(2)
H5 H 0.2253 0.3881 0.6064
C10 C 0.3681(4) 0.2952(5) 0.5792(2)
H6 H 0.3769 0.2415 0.6142
C11 C 0.4269(4) 0.3584(4) 0.48457(19)
H7 H 0.4778 0.3500 0.4529
C12 C 0.3368(4) 0.4471(4) 0.47705(19)
H8 H 0.3271 0.4965 0.4406
N2 N 0.0293(4) 0.6934(4) 0.5453(2)
N3 N 0.1041(4) 0.5869(4) 0.56012(19)
N4 N 0.4449(3) 0.2835(3) 0.53550(14)
H12 H 0.160(4) 0.623(5) 0.481(2)
Cu2 Cu 0.58435(4) 0.15969(4) 0.549353(18)
C1 C 0.7981(4) 0.0098(4) 0.5248(2)
H1 H 0.8035 0.0692 0.4925
C13 C 0.6180(3) 0.1313(4) 0.35564(16)
C14 C 0.6572(4) 0.2522(4) 0.33867(17)
H9 H 0.6735 0.3151 0.3693
C15 C 0.6721(4) 0.2796(4) 0.27667(17)
H10 H 0.6982 0.3611 0.2659
C16 C 0.6487(4) 0.1872(4) 0.23009(17)
C17 C 0.6135(4) 0.0664(4) 0.24868(17)
C18 C 0.5972(4) 0.0364(4) 0.31006(17)
C19 C 0.6607(4) 0.2218(4) 0.16181(17)
C20 C 0.5962(3) 0.0996(4) 0.42262(16)
N1 N 0.7150(3) 0.0264(3) 0.56378(14)
O1 O 0.6208(3) 0.1885(3) 0.46279(12)
O3 O 0.5899(3) 0.3081(3) 0.14012(12)
O4 O 0.7355(4) 0.1664(3) 0.13296(15)
O7 O 0.4426(3) 0.0079(3) 0.56565(13)
O8 O 0.5899(3) 0.1919(3) 0.64012(12)
Cu4 Cu 0.58435(4) 0.34031(4) 0.049353(18)
C2 C 0.8768(4) 0.9088(5) 0.5298(2)
H2 H 0.9329 0.8995 0.5007
C3 C 0.8725(4) 0.8208(4) 0.5781(2)
C4 C 0.7868(4) 0.8390(4) 0.6195(2)
H3 H 0.7810 0.7826 0.6530
C5 C 0.7103(4) 0.9412(4) 0.61064(19)
H4 H 0.6524 0.9520 0.6385
C6 C 0.9561(5) 0.7108(5) 0.5849(3)
H11 H 0.5728 0.9543 0.3208
N5 N 0.5885(5) 0.9644(4) 0.2025(2)
O2 O 0.5574(3) 0.9921(3) 0.43435(13)
O5 O 0.5380(5) 0.9919(4) 0.15148(18)
O6 O 0.6155(6) 0.8535(4) 0.2165(2)
H13 H 0.950(5) 0.652(5) 0.621(3)
Cu3 Cu 0.41565(4) 0.84031(4) 0.450647(18)
H1_2 H 0.1965 0.5692 0.0075
C13_2 C 0.3820(3) 0.6313(4) 0.14436(16)
C14_2 C 0.3428(4) 0.7522(4) 0.16133(17)
H9_2 H 0.3265 0.8151 0.1307
C15_2 C 0.3279(4) 0.7796(4) 0.22333(17)
H10_2 H 0.3018 0.8611 0.2341
C16_2 C 0.3513(4) 0.6872(4) 0.26991(17)
C17_2 C 0.3865(4) 0.5664(4) 0.25132(17)
C18_2 C 0.4028(4) 0.5364(4) 0.18994(17)
H11_2 H 0.4272 0.4543 0.1792
C19_2 C 0.3393(4) 0.7218(4) 0.33819(17)
C20_2 C 0.4038(3) 0.5996(4) 0.07738(16)
N5_2 N 0.4115(5) 0.4644(4) 0.2975(2)
O1_2 O 0.3792(3) 0.6885(3) 0.03721(12)
O2_2 O 0.4426(3) 0.4921(3) 0.06565(13)
O3_2 O 0.4101(3) 0.8081(3) 0.35988(12)
O4_2 O 0.2645(4) 0.6664(3) 0.36704(15)
O5_2 O 0.4620(5) 0.4919(4) 0.34852(18)
O6_2 O 0.3845(6) 0.3535(4) 0.2835(2)
C1_2 C 0.2019(4) 0.5098(4) 0.9752(2)
C2_2 C 0.1232(4) 0.4088(5) 0.9702(2)
H2_2 H 0.0671 0.3995 0.9993
C3_2 C 0.1275(4) 0.3208(4) 0.9219(2)
C4_2 C 0.2132(4) 0.3390(4) 0.8805(2)
H3_2 H 0.2190 0.2826 0.8470
C5_2 C 0.2897(4) 0.4412(4) 0.88936(19)
H4_2 H 0.3476 0.4520 0.8615
C6_2 C 0.0439(5) 0.2108(5) 0.9151(3)
N1_2 N 0.2850(3) 0.5264(3) 0.93622(14)
Cu1 Cu 0.41565(4) 0.65969(4) 0.950647(18)
H13_2 H 0.050(5) 0.152(5) 0.879(3)
N6 N 0.5551(3) 0.7835(3) 0.96450(14)
O7_2 O 0.5574(3) 0.5079(3) 0.93435(13)
O8_2 O 0.4101(3) 0.6919(3) 0.85988(12)
C8_2 C 0.7395(4) 0.9632(4) 0.97660(19)
C9_2 C 0.7235(4) 0.8830(5) 0.9253(2)
H5_2 H 0.7747 0.8881 0.8936
C10_2 C 0.6319(4) 0.7952(5) 0.9208(2)
H6_2 H 0.6231 0.7415 0.8858
C2_3 C 0.1232(4) 0.0912(5) 0.4702(2)
H2_3 H 0.0671 0.1005 0.4993
C3_3 C 0.1275(4) 0.1792(4) 0.4219(2)
C4_3 C 0.2132(4) 0.1610(4) 0.3805(2)
H3_3 H 0.2190 0.2174 0.3470
C5_3 C 0.2897(4) 0.0588(4) 0.38936(19)
H4_3 H 0.3476 0.0480 0.3615
C6_3 C 0.0439(5) 0.2892(5) 0.4151(3)
H11_3 H 0.4272 0.0457 0.6792
N5_3 N 0.4115(5) 0.0356(4) 0.7975(2)
O5_3 O 0.4620(5) 0.0081(4) 0.84852(18)
O6_3 O 0.3845(6) 0.1465(4) 0.7835(2)
H13_3 H 0.050(5) 0.348(5) 0.379(3)
C1_3 C 0.2019(4) 0.9902(4) 0.4752(2)
H1_3 H 0.1965 0.9308 0.5075
C13_3 C 0.3820(3) 0.8687(4) 0.64436(16)
C14_3 C 0.3428(4) 0.7478(4) 0.66133(17)
H9_3 H 0.3265 0.6849 0.6307
C15_3 C 0.3279(4) 0.7204(4) 0.72333(17)
H10_3 H 0.3018 0.6389 0.7341
C16_3 C 0.3513(4) 0.8128(4) 0.76991(17)
C17_3 C 0.3865(4) 0.9336(4) 0.75132(17)
C18_3 C 0.4028(4) 0.9636(4) 0.68994(17)
C19_3 C 0.3393(4) 0.7782(4) 0.83819(17)
C20_3 C 0.4038(3) 0.9004(4) 0.57738(16)
N1_3 N 0.2850(3) 0.9736(3) 0.43622(14)
O1_3 O 0.3792(3) 0.8115(3) 0.53721(12)
O4_3 O 0.2645(4) 0.8336(3) 0.86704(15)
N6_2 N 0.5551(3) 0.7165(3) 0.46450(14)
C7_2 C 0.8298(4) 0.4352(4) 0.4831(2)
C8_3 C 0.7395(4) 0.5368(4) 0.47660(19)
C9_3 C 0.7235(4) 0.6170(5) 0.4253(2)
H5_3 H 0.7747 0.6119 0.3936
C10_3 C 0.6319(4) 0.7048(5) 0.4208(2)
H6_3 H 0.6231 0.7585 0.3858
C11_2 C 0.5731(4) 0.6416(4) 0.51543(19)
H7_2 H 0.5222 0.6500 0.5471
C12_2 C 0.6632(4) 0.5529(4) 0.52295(19)
H8_2 H 0.6729 0.5035 0.5594
N2_2 N 0.9707(4) 0.3066(4) 0.4547(2)
N3_2 N 0.8959(4) 0.4131(4) 0.43988(19)
H12_2 H 0.840(4) 0.377(5) 0.519(2)
C8_4 C 0.2605(4) 0.0368(4) 0.02340(19)
C9_4 C 0.2765(4) 0.1170(5) 0.0747(2)
H5_4 H 0.2253 0.1119 0.1064
C10_4 C 0.3681(4) 0.2048(5) 0.0792(2)
H6_4 H 0.3769 0.2585 0.1142
N4_2 N 0.4449(3) 0.2165(3) 0.03550(14)
C1_4 C 0.7981(4) 0.4902(4) 0.0248(2)
C2_4 C 0.8768(4) 0.5912(5) 0.0298(2)
H2_4 H 0.9329 0.6005 0.0007
C3_4 C 0.8725(4) 0.6792(4) 0.0781(2)
C4_4 C 0.7868(4) 0.6610(4) 0.1195(2)
H3_4 H 0.7810 0.7174 0.1530
C5_4 C 0.7103(4) 0.5588(4) 0.11064(19)
H4_4 H 0.6524 0.5480 0.1385
C6_4 C 0.9561(5) 0.7892(5) 0.0849(3)
N1_4 N 0.7150(3) 0.4736(3) 0.06378(14)
H13_4 H 0.950(5) 0.848(5) 0.121(3)
H1_4 H 0.8035 0.4308 0.9925
C13_4 C 0.6180(3) 0.3687(4) 0.85564(16)
C14_4 C 0.6572(4) 0.2478(4) 0.83867(17)
H9_4 H 0.6735 0.1849 0.8693
C15_4 C 0.6721(4) 0.2204(4) 0.77667(17)
H10_4 H 0.6982 0.1389 0.7659
C16_4 C 0.6487(4) 0.3128(4) 0.73009(17)
C17_4 C 0.6135(4) 0.4336(4) 0.74868(17)
C18_4 C 0.5972(4) 0.4636(4) 0.81006(17)
H11_4 H 0.5728 0.5457 0.8208
C19_4 C 0.6607(4) 0.2782(4) 0.66181(17)
C20_4 C 0.5962(3) 0.4004(4) 0.92262(16)
N5_4 N 0.5885(5) 0.5356(4) 0.7025(2)
O1_4 O 0.6208(3) 0.3115(3) 0.96279(12)
O4_4 O 0.7355(4) 0.3336(3) 0.63296(15)
O5_4 O 0.5380(5) 0.5081(4) 0.65148(18)
O6_4 O 0.6155(6) 0.6465(4) 0.7165(2)
H12_3 H 0.840(4) 0.123(5) 0.019(2)
C7_3 C 0.8298(4) 0.0648(4) 0.9831(2)
N2_3 N 0.9707(4) 0.1934(4) 0.9547(2)
N3_3 N 0.8959(4) 0.0869(4) 0.93988(19)
C11_3 C 0.5731(4) 0.8584(4) 0.01543(19)
H7_3 H 0.5222 0.8500 0.0471
C12_3 C 0.6632(4) 0.9471(4) 0.02295(19)
H8_3 H 0.6729 0.9965 0.0594
C11_4 C 0.4269(4) 0.1416(4) 0.98457(19)
H7_4 H 0.4778 0.1500 0.9529
C12_4 C 0.3368(4) 0.0529(4) 0.97705(19)
H8_4 H 0.3271 0.0035 0.9406
C7_4 C 0.1702(4) 0.9352(4) 0.0169(2)
N2_4 N 0.0293(4) 0.8066(4) 0.0453(2)
N3_4 N 0.1041(4) 0.9131(4) 0.06012(19)
H12_4 H 0.160(4) 0.877(5) 0.981(2)
loop_
_geom_bond_atom_site_label_1
_geom_bond_atom_site_label_2
_geom_bond_site_symmetry_1
_geom_bond_site_symmetry_2
C7 C8 1_555 1_555
C8 C9 1_555 1_555
C9 H5 1_555 1_555
C10 C9 1_555 1_555
H6 C10 1_555 1_555
C11 H7 1_555 1_555
C12 C8 1_555 1_555
H8 C12 1_555 1_555
N3 C7 1_555 1_555
N4 C10 1_555 1_555
H12 C7 1_555 1_555
Cu2 N4 1_555 1_555
C11 C12 1_555 1_555
C11 N4 1_555 1_555
N2 N3 1_555 1_555
C1 H1 1_555 1_555
C13 C14 1_555 1_555
C14 H9 1_555 1_555
C15 C14 1_555 1_555
H10 C15 1_555 1_555
C16 C15 1_555 1_555
C17 C16 1_555 1_555
C18 C13 1_555 1_555
C19 C16 1_555 1_555
C20 C13 1_555 1_555
N1 C1 1_555 1_555
O1 C20 1_555 1_555
O3 C19 1_555 1_555
O4 C19 1_555 1_555
Cu2 N1 1_555 1_555
O7 Cu2 1_555 1_555
O8 Cu2 1_555 1_555
Cu4 O3 1_555 1_555
C17 C18 1_555 1_555
O1 Cu2 1_555 1_555
H2 C2 1_555 1_555
C3 C2 1_555 1_555
C4 C3 1_555 1_555
H3 C4 1_555 1_555
C5 C4 1_555 1_555
H4 C5 1_555 1_555
C6 C3 1_555 1_555
O5 N5 1_555 1_555
O6 N5 1_555 1_555
H13 C6 1_555 1_555
Cu3 O2 1_555 1_555
C13_2 C14_2 1_555 1_555
C14_2 H9_2 1_555 1_555
C15_2 C14_2 1_555 1_555
H10_2 C15_2 1_555 1_555
C16_2 C15_2 1_555 1_555
C17_2 C16_2 1_555 1_555
C18_2 C13_2 1_555 1_555
H11_2 C18_2 1_555 1_555
C19_2 C16_2 1_555 1_555
C20_2 C13_2 1_555 1_555
N5_2 C17_2 1_555 1_555
O1_2 C20_2 1_555 1_555
O2_2 C20_2 1_555 1_555
O3_2 C19_2 1_555 1_555
O4_2 C19_2 1_555 1_555
O5_2 N5_2 1_555 1_555
O6_2 N5_2 1_555 1_555
Cu4 O2_2 1_555 1_555
Cu3 O3_2 1_555 1_555
C17_2 C18_2 1_555 1_555
C2_2 C1_2 1_555 1_555
H2_2 C2_2 1_555 1_555
C3_2 C2_2 1_555 1_555
C4_2 C3_2 1_555 1_555
H3_2 C4_2 1_555 1_555
C5_2 C4_2 1_555 1_555
H4_2 C5_2 1_555 1_555
C6_2 C3_2 1_555 1_555
N1_2 C1_2 1_555 1_555
Cu1 N1_2 1_555 1_555
H13_2 C6_2 1_555 1_555
N6 Cu1 1_555 1_555
O7_2 Cu1 1_555 1_555
O8_2 Cu1 1_555 1_555
C5_2 N1_2 1_555 1_555
C8_2 C9_2 1_555 1_555
C9_2 H5_2 1_555 1_555
C10_2 C9_2 1_555 1_555
H6_2 C10_2 1_555 1_555
N6 C10_2 1_555 1_555
H2_3 C2_3 1_555 1_555
C3_3 C2_3 1_555 1_555
C4_3 C3_3 1_555 1_555
H3_3 C4_3 1_555 1_555
C5_3 C4_3 1_555 1_555
H4_3 C5_3 1_555 1_555
C6_3 C3_3 1_555 1_555
O5_3 N5_3 1_555 1_555
O6_3 N5_3 1_555 1_555
H13_3 C6_3 1_555 1_555
C1_3 H1_3 1_555 1_555
C13_3 C14_3 1_555 1_555
C14_3 H9_3 1_555 1_555
C15_3 C14_3 1_555 1_555
H10_3 C15_3 1_555 1_555
C16_3 C15_3 1_555 1_555
C17_3 C16_3 1_555 1_555
C18_3 C13_3 1_555 1_555
C19_3 C16_3 1_555 1_555
C20_3 C13_3 1_555 1_555
N1_3 C1_3 1_555 1_555
O1_3 C20_3 1_555 1_555
O8_2 C19_3 1_555 1_555
O4_3 C19_3 1_555 1_555
Cu3 N1_3 1_555 1_555
N6_2 Cu3 1_555 1_555
C17_3 C18_3 1_555 1_555
O1_3 Cu3 1_555 1_555
C7_2 C8_3 1_555 1_555
C8_3 C9_3 1_555 1_555
C9_3 H5_3 1_555 1_555
C10_3 C9_3 1_555 1_555
H6_3 C10_3 1_555 1_555
C11_2 H7_2 1_555 1_555
C12_2 C8_3 1_555 1_555
H8_2 C12_2 1_555 1_555
N3_2 C7_2 1_555 1_555
N6_2 C10_3 1_555 1_555
H12_2 C7_2 1_555 1_555
C11_2 C12_2 1_555 1_555
C11_2 N6_2 1_555 1_555
N2_2 N3_2 1_555 1_555
C8_4 C9_4 1_555 1_555
C9_4 H5_4 1_555 1_555
C10_4 C9_4 1_555 1_555
H6_4 C10_4 1_555 1_555
N4_2 C10_4 1_555 1_555
Cu4 N4_2 1_555 1_555
C2_4 C1_4 1_555 1_555
H2_4 C2_4 1_555 1_555
C3_4 C2_4 1_555 1_555
C4_4 C3_4 1_555 1_555
H3_4 C4_4 1_555 1_555
C5_4 C4_4 1_555 1_555
H4_4 C5_4 1_555 1_555
C6_4 C3_4 1_555 1_555
N1_4 C1_4 1_555 1_555
Cu4 N1_4 1_555 1_555
H13_4 C6_4 1_555 1_555
C5_4 N1_4 1_555 1_555
C13_4 C14_4 1_555 1_555
C14_4 H9_4 1_555 1_555
C15_4 C14_4 1_555 1_555
H10_4 C15_4 1_555 1_555
C16_4 C15_4 1_555 1_555
C17_4 C16_4 1_555 1_555
C18_4 C13_4 1_555 1_555
H11_4 C18_4 1_555 1_555
C19_4 C16_4 1_555 1_555
C20_4 C13_4 1_555 1_555
N5_4 C17_4 1_555 1_555
O1_4 C20_4 1_555 1_555
O7_2 C20_4 1_555 1_555
O8 C19_4 1_555 1_555
O4_4 C19_4 1_555 1_555
O5_4 N5_4 1_555 1_555
O6_4 N5_4 1_555 1_555
C17_4 C18_4 1_555 1_555
N3_3 C7_3 1_555 1_555
N2_3 N3_3 1_555 1_555
C11_3 H7_3 1_555 1_555
H8_3 C12_3 1_555 1_555
C11_3 C12_3 1_555 1_555
C11_4 H7_4 1_555 1_555
H8_4 C12_4 1_555 1_555
C11_4 C12_4 1_555 1_555
N3_4 C7_4 1_555 1_555
N2_4 N3_4 1_555 1_555

#END
