
###############################################################################
#
# This file contains modified crystal structure data generated from the
# MOF subset of the Cambridge Structural Database (CSD) v543 
# hosted by the Cambridge Crystallographic Data Centre (CCDC).
#
# This work is licensed under the Creative Commons
# Attribution-NonCommercial-ShareAlike 4.0 International License.
# To view a copy of this license, visit
# http://creativecommons.org/licenses/by-nc-sa/4.0/
# or send a letter to
# Creative Commons, PO Box 1866, Mountain View, CA 94042, USA.
#
# CIF created using the CSD Python API on 29 September 2022
# The structure has been converted into the P1 space group
# The structure has a 3D framework
# The original CSD entry WAHKOI is in the monoclinic crystal system
# The framework has been calculated to contain at least 10.0% void space
# The void calculation uses a probe of radius 1.32A, grid spacing 0.4
#
###############################################################################

data_WAHKOI
_chemical_formula_moiety         '(C168 H96 Li4 N8 O44)n'
_symmetry_cell_setting           triclinic
_symmetry_space_group_name_H-M   'P 1'
_symmetry_Int_Tables_number      1
_space_group_name_Hall           'P 1'
loop_
_symmetry_equiv_pos_site_id
_symmetry_equiv_pos_as_xyz
1 x,y,z
_cell_length_a                   15.8879(13)
_cell_length_b                   24.5029(12)
_cell_length_c                   18.0160(13)
_cell_angle_alpha                90
_cell_angle_beta                 111.393(9)
_cell_angle_gamma                90
_cell_volume                     6530.39
loop_
_atom_site_label
_atom_site_type_symbol
_atom_site_fract_x
_atom_site_fract_y
_atom_site_fract_z
Li1 Li 0.0635(3) 0.19642(16) 0.3505(2)
O7 O 0.13595(14) 0.21395(9) 0.46245(11)
O8 O 0.08054(17) 0.11883(7) 0.33722(14)
O9 O 0.13901(15) 0.23653(10) 0.30511(11)
O1 O 0.36405(14) 0.28605(9) 0.53755(11)
O2 O 0.58054(17) 0.61883(7) 0.33722(14)
O3 O 0.72784(15) 0.62134(7) 0.40230(15)
O4 O 0.86099(15) 0.23653(10) 0.19489(11)
N1 N 0.65793(15) 0.36367(7) 0.39295(14)
O5 O 0.93758(16) 0.20652(10) 0.31463(13)
O6 O 0.34022(15) 0.22532(11) 0.44144(13)
C1 C 0.65719(15) 0.53481(8) 0.37354(12)
C2 C 0.71178(16) 0.33134(8) 0.36098(14)
C3 C 0.65748(15) 0.42088(8) 0.38389(13)
C4 C 0.59073(16) 0.33772(8) 0.41494(15)
C5 C 0.81841(16) 0.26865(8) 0.30039(14)
C6 C 0.45561(14) 0.29004(9) 0.45900(12)
C7 C 0.57808(16) 0.50614(9) 0.34970(14)
H1 H 0.5223 0.5253 0.3295
C8 C 0.57734(16) 0.44981(9) 0.35427(15)
H2 H 0.5213 0.4308 0.3369
C9 C 0.49554(17) 0.33871(8) 0.49265(15)
H3 H 0.4768 0.3562 0.5310
C10 C 0.38229(16) 0.26467(11) 0.48034(14)
C11 C 0.87705(17) 0.23568(9) 0.26767(14)
C12 C 0.55173(18) 0.28787(10) 0.38153(16)
H4 H 0.5708 0.2701 0.3435
C13 C 0.48570(18) 0.26467(10) 0.40390(15)
H5 H 0.4601 0.2307 0.3814
C14 C 0.73840(17) 0.44923(10) 0.40662(18)
H6 H 0.7940 0.4299 0.4255
C15 C 0.56230(18) 0.36218(8) 0.47118(16)
H7 H 0.5891 0.3955 0.4953
C16 C 0.65713(18) 0.59593(9) 0.37216(14)
C17 C 0.7762(2) 0.29620(12) 0.40994(16)
H8 H 0.7842 0.2932 0.4647
C18 C 0.75228(19) 0.30270(12) 0.25090(14)
H9 H 0.7431 0.3049 0.1958
C19 C 0.8289(2) 0.26554(11) 0.37969(15)
H10 H 0.8734 0.2418 0.4141
C20 C 0.73864(17) 0.50550(10) 0.40201(18)
H11 H 0.7945 0.5246 0.4183
C21 C 0.69948(19) 0.33364(11) 0.28134(16)
H12 H 0.6541 0.3568 0.2468
Li2 Li 0.9365(3) 0.19642(16) 0.1495(2)
Li3 Li 0.5635(3) 0.69642(16) 0.3505(2)
Li4 Li 0.4365(3) 0.30358(16) 0.6495(2)
O2_2 O 0.41946(17) 0.61883(7) 0.16278(14)
O3_2 O 0.27216(15) 0.62134(7) 0.09770(15)
N1_2 N 0.34207(15) 0.36367(7) 0.10705(14)
O5_2 O 0.06242(16) 0.20652(10) 0.18537(13)
O6_2 O 0.65978(15) 0.22532(11) 0.05856(13)
C1_2 C 0.34281(15) 0.53481(8) 0.12646(12)
C2_2 C 0.28822(16) 0.33134(8) 0.13902(14)
C3_2 C 0.34252(15) 0.42088(8) 0.11611(13)
C4_2 C 0.40927(16) 0.33772(8) 0.08506(15)
C5_2 C 0.18159(16) 0.26865(8) 0.19961(14)
C6_2 C 0.54439(14) 0.29004(9) 0.04100(12)
C7_2 C 0.42192(16) 0.50614(9) 0.15030(14)
H1_2 H 0.4777 0.5253 0.1705
C8_2 C 0.42266(16) 0.44981(9) 0.14573(15)
H2_2 H 0.4787 0.4308 0.1631
C9_2 C 0.50446(17) 0.33871(8) 0.00735(15)
C10_2 C 0.61771(16) 0.26467(11) 0.01966(14)
C11_2 C 0.12295(17) 0.23568(9) 0.23233(14)
C12_2 C 0.44827(18) 0.28787(10) 0.11847(16)
H4_2 H 0.4292 0.2701 0.1565
C13_2 C 0.51430(18) 0.26467(10) 0.09610(15)
H5_2 H 0.5399 0.2307 0.1186
C14_2 C 0.26160(17) 0.44923(10) 0.09338(18)
H6_2 H 0.2060 0.4299 0.0745
C15_2 C 0.43770(18) 0.36218(8) 0.02882(16)
H7_2 H 0.4109 0.3955 0.0047
C16_2 C 0.34287(18) 0.59593(9) 0.12784(14)
C17_2 C 0.2238(2) 0.29620(12) 0.09006(16)
H8_2 H 0.2158 0.2932 0.0353
C18_2 C 0.24772(19) 0.30270(12) 0.24910(14)
H9_2 H 0.2569 0.3049 0.3042
C19_2 C 0.1711(2) 0.26554(11) 0.12031(15)
H10_2 H 0.1266 0.2418 0.0859
C20_2 C 0.26136(17) 0.50550(10) 0.09799(18)
H11_2 H 0.2055 0.5246 0.0817
C21_2 C 0.30052(19) 0.33364(11) 0.21866(16)
H12_2 H 0.3459 0.3568 0.2532
Li3_2 Li 0.4365(3) 0.69642(16) 0.1495(2)
O1_2 O 0.63595(14) 0.28605(9) 0.96245(11)
H3_2 H 0.5232 0.3562 0.9690
Li4_2 Li 0.5635(3) 0.30358(16) 0.8505(2)
O7_2 O 0.86405(14) 0.21395(9) 0.03755(11)
O8_2 O 0.91946(17) 0.11883(7) 0.16278(14)
O3_3 O 0.22784(15) 0.12134(7) 0.40230(15)
C1_3 C 0.15719(15) 0.03481(8) 0.37354(12)
C7_3 C 0.07808(16) 0.00614(9) 0.34970(14)
H1_3 H 0.0223 0.0253 0.3295
C16_3 C 0.15713(18) 0.09593(9) 0.37216(14)
C20_3 C 0.23864(17) 0.00550(10) 0.40201(18)
H11_3 H 0.2945 0.0246 0.4183
O4_2 O 0.36099(15) 0.73653(10) 0.19489(11)
N1_3 N 0.15793(15) 0.86367(7) 0.39295(14)
O5_3 O 0.43758(16) 0.70652(10) 0.31463(13)
C2_3 C 0.21178(16) 0.83134(8) 0.36098(14)
C3_3 C 0.15748(15) 0.92088(8) 0.38389(13)
C4_3 C 0.09073(16) 0.83772(8) 0.41494(15)
C5_3 C 0.31841(16) 0.76865(8) 0.30039(14)
C8_3 C 0.07734(16) 0.94981(9) 0.35427(15)
H2_3 H 0.0213 0.9308 0.3369
C11_3 C 0.37705(17) 0.73568(9) 0.26767(14)
C12_3 C 0.05173(18) 0.78787(10) 0.38153(16)
H4_3 H 0.0708 0.7701 0.3435
C14_3 C 0.23840(17) 0.94923(10) 0.40662(18)
H6_3 H 0.2940 0.9299 0.4255
C15_3 C 0.06230(18) 0.86218(8) 0.47118(16)
H7_3 H 0.0891 0.8955 0.4953
C17_3 C 0.2762(2) 0.79620(12) 0.40994(16)
H8_3 H 0.2842 0.7932 0.4647
C18_3 C 0.25228(19) 0.80270(12) 0.25090(14)
H9_3 H 0.2431 0.8049 0.1958
C19_3 C 0.3289(2) 0.76554(11) 0.37969(15)
H10_3 H 0.3734 0.7418 0.4141
C21_3 C 0.19948(19) 0.83364(11) 0.28134(16)
H12_3 H 0.1541 0.8568 0.2468
O7_3 O 0.63595(14) 0.71395(9) 0.46245(11)
O9_2 O 0.63901(15) 0.73653(10) 0.30511(11)
O1_3 O 0.86405(14) 0.78605(9) 0.53755(11)
O6_3 O 0.84022(15) 0.72532(11) 0.44144(13)
C6_3 C 0.95561(14) 0.79004(9) 0.45900(12)
C9_3 C 0.99554(17) 0.83871(8) 0.49265(15)
H3_3 H 0.9768 0.8562 0.5310
C10_3 C 0.88229(16) 0.76467(11) 0.48034(14)
C13_3 C 0.98570(18) 0.76467(10) 0.40390(15)
H5_3 H 0.9601 0.7307 0.3814
Li4_3 Li 0.9365(3) 0.80358(16) 0.6495(2)
O1_4 O 0.13595(14) 0.78605(9) 0.96245(11)
H3_4 H 0.0232 0.8562 0.9690
Li4_4 Li 0.0635(3) 0.80358(16) 0.8505(2)
O3_4 O 0.77216(15) 0.12134(7) 0.09770(15)
C1_4 C 0.84281(15) 0.03481(8) 0.12646(12)
C7_4 C 0.92192(16) 0.00614(9) 0.15030(14)
H1_4 H 0.9777 0.0253 0.1705
C16_4 C 0.84287(18) 0.09593(9) 0.12784(14)
C20_4 C 0.76136(17) 0.00550(10) 0.09799(18)
H11_4 H 0.7055 0.0246 0.0817
N1_4 N 0.84207(15) 0.86367(7) 0.10705(14)
O5_4 O 0.56242(16) 0.70652(10) 0.18537(13)
C2_4 C 0.78822(16) 0.83134(8) 0.13902(14)
C3_4 C 0.84252(15) 0.92088(8) 0.11611(13)
C4_4 C 0.90927(16) 0.83772(8) 0.08506(15)
C5_4 C 0.68159(16) 0.76865(8) 0.19961(14)
C8_4 C 0.92266(16) 0.94981(9) 0.14573(15)
H2_4 H 0.9787 0.9308 0.1631
C11_4 C 0.62295(17) 0.73568(9) 0.23233(14)
C12_4 C 0.94827(18) 0.78787(10) 0.11847(16)
H4_4 H 0.9292 0.7701 0.1565
C14_4 C 0.76160(17) 0.94923(10) 0.09338(18)
H6_4 H 0.7060 0.9299 0.0745
C15_4 C 0.93770(18) 0.86218(8) 0.02882(16)
H7_4 H 0.9109 0.8955 0.0047
C17_4 C 0.7238(2) 0.79620(12) 0.09006(16)
H8_4 H 0.7158 0.7932 0.0353
C18_4 C 0.74772(19) 0.80270(12) 0.24910(14)
H9_4 H 0.7569 0.8049 0.3042
C19_4 C 0.6711(2) 0.76554(11) 0.12031(15)
H10_4 H 0.6266 0.7418 0.0859
C21_4 C 0.80052(19) 0.83364(11) 0.21866(16)
H12_4 H 0.8459 0.8568 0.2532
O7_4 O 0.36405(14) 0.71395(9) 0.03755(11)
O2_3 O 0.41946(17) 0.38117(7) 0.66278(14)
O3_5 O 0.27216(15) 0.37866(7) 0.59770(15)
O4_3 O 0.13901(15) 0.76347(10) 0.80511(11)
N1_5 N 0.34207(15) 0.63633(7) 0.60705(14)
O5_5 O 0.06242(16) 0.79348(10) 0.68537(13)
O6_4 O 0.65978(15) 0.77468(11) 0.55856(13)
C1_5 C 0.34281(15) 0.46519(8) 0.62646(12)
C2_5 C 0.28822(16) 0.66866(8) 0.63902(14)
C3_5 C 0.34252(15) 0.57912(8) 0.61611(13)
C4_5 C 0.40927(16) 0.66228(8) 0.58506(15)
C5_5 C 0.18159(16) 0.73135(8) 0.69961(14)
C6_4 C 0.54439(14) 0.70996(9) 0.54100(12)
C7_5 C 0.42192(16) 0.49386(9) 0.65030(14)
H1_5 H 0.4777 0.4747 0.6705
C8_5 C 0.42266(16) 0.55019(9) 0.64573(15)
H2_5 H 0.4787 0.5692 0.6631
C9_4 C 0.50446(17) 0.66129(8) 0.50735(15)
H3_5 H 0.5232 0.6438 0.4690
C10_4 C 0.61771(16) 0.73533(11) 0.51966(14)
C11_5 C 0.12295(17) 0.76432(9) 0.73233(14)
C12_5 C 0.44827(18) 0.71213(10) 0.61847(16)
H4_5 H 0.4292 0.7299 0.6565
C13_4 C 0.51430(18) 0.73533(10) 0.59610(15)
H5_4 H 0.5399 0.7693 0.6186
C14_5 C 0.26160(17) 0.55077(10) 0.59338(18)
H6_5 H 0.2060 0.5701 0.5745
C15_5 C 0.43770(18) 0.63782(8) 0.52882(16)
H7_5 H 0.4109 0.6045 0.5047
C16_5 C 0.34287(18) 0.40407(9) 0.62784(14)
C17_5 C 0.2238(2) 0.70380(12) 0.59006(16)
H8_5 H 0.2158 0.7068 0.5353
C18_5 C 0.24772(19) 0.69730(12) 0.74910(14)
H9_5 H 0.2569 0.6951 0.8042
C19_5 C 0.1711(2) 0.73446(11) 0.62031(15)
H10_5 H 0.1266 0.7582 0.5859
C20_5 C 0.26136(17) 0.49450(10) 0.59799(18)
H11_5 H 0.2055 0.4754 0.5817
C21_5 C 0.30052(19) 0.66636(11) 0.71866(16)
H12_5 H 0.3459 0.6432 0.7532
O8_3 O 0.91946(17) 0.88117(7) 0.66278(14)
O9_3 O 0.86099(15) 0.76347(10) 0.69489(11)
O8_4 O 0.08054(17) 0.88117(7) 0.83722(14)
H3_6 H 0.4768 0.6438 0.0310
O2_4 O 0.58054(17) 0.38117(7) 0.83722(14)
O3_6 O 0.72784(15) 0.37866(7) 0.90230(15)
N1_6 N 0.65793(15) 0.63633(7) 0.89295(14)
O5_6 O 0.93758(16) 0.79348(10) 0.81463(13)
O6_5 O 0.34022(15) 0.77468(11) 0.94144(13)
C1_6 C 0.65719(15) 0.46519(8) 0.87354(12)
C2_6 C 0.71178(16) 0.66866(8) 0.86098(14)
C3_6 C 0.65748(15) 0.57912(8) 0.88389(13)
C4_6 C 0.59073(16) 0.66228(8) 0.91494(15)
C5_6 C 0.81841(16) 0.73135(8) 0.80039(14)
C6_5 C 0.45561(14) 0.70996(9) 0.95900(12)
C7_6 C 0.57808(16) 0.49386(9) 0.84970(14)
H1_6 H 0.5223 0.4747 0.8295
C8_6 C 0.57734(16) 0.55019(9) 0.85427(15)
H2_6 H 0.5213 0.5692 0.8369
C9_5 C 0.49554(17) 0.66129(8) 0.99265(15)
C10_5 C 0.38229(16) 0.73533(11) 0.98034(14)
C11_6 C 0.87705(17) 0.76432(9) 0.76767(14)
C12_6 C 0.55173(18) 0.71213(10) 0.88153(16)
H4_6 H 0.5708 0.7299 0.8435
C13_5 C 0.48570(18) 0.73533(10) 0.90390(15)
H5_5 H 0.4601 0.7693 0.8814
C14_6 C 0.73840(17) 0.55077(10) 0.90662(18)
H6_6 H 0.7940 0.5701 0.9255
C15_6 C 0.56230(18) 0.63782(8) 0.97118(16)
H7_6 H 0.5891 0.6045 0.9953
C16_6 C 0.65713(18) 0.40407(9) 0.87216(14)
C17_6 C 0.7762(2) 0.70380(12) 0.90994(16)
H8_6 H 0.7842 0.7068 0.9647
C18_6 C 0.75228(19) 0.69730(12) 0.75090(14)
H9_6 H 0.7431 0.6951 0.6958
C19_6 C 0.8289(2) 0.73446(11) 0.87969(15)
H10_6 H 0.8734 0.7582 0.9141
C20_6 C 0.73864(17) 0.49450(10) 0.90201(18)
H11_6 H 0.7945 0.4754 0.9183
C21_6 C 0.69948(19) 0.66636(11) 0.78134(16)
H12_6 H 0.6541 0.6432 0.7468
O6_6 O 0.15978(15) 0.27468(11) 0.55856(13)
C6_6 C 0.04439(14) 0.20996(9) 0.54100(12)
C9_6 C 0.00446(17) 0.16129(8) 0.50735(15)
H3_7 H 0.0232 0.1438 0.4690
C10_6 C 0.11771(16) 0.23533(11) 0.51966(14)
C13_6 C 0.01430(18) 0.23533(10) 0.59610(15)
H5_6 H 0.0399 0.2693 0.6186
O4_4 O 0.63901(15) 0.26347(10) 0.80511(11)
N1_7 N 0.84207(15) 0.13633(7) 0.60705(14)
O5_7 O 0.56242(16) 0.29348(10) 0.68537(13)
C2_7 C 0.78822(16) 0.16866(8) 0.63902(14)
C3_7 C 0.84252(15) 0.07912(8) 0.61611(13)
C4_7 C 0.90927(16) 0.16228(8) 0.58506(15)
C5_7 C 0.68159(16) 0.23135(8) 0.69961(14)
C8_7 C 0.92266(16) 0.05019(9) 0.64573(15)
H2_7 H 0.9787 0.0692 0.6631
C11_7 C 0.62295(17) 0.26432(9) 0.73233(14)
C12_7 C 0.94827(18) 0.21213(10) 0.61847(16)
H4_7 H 0.9292 0.2299 0.6565
C14_7 C 0.76160(17) 0.05077(10) 0.59338(18)
H6_7 H 0.7060 0.0701 0.5745
C15_7 C 0.93770(18) 0.13782(8) 0.52882(16)
H7_7 H 0.9109 0.1045 0.5047
C17_7 C 0.7238(2) 0.20380(12) 0.59006(16)
H8_7 H 0.7158 0.2068 0.5353
C18_7 C 0.74772(19) 0.19730(12) 0.74910(14)
H9_7 H 0.7569 0.1951 0.8042
C19_7 C 0.6711(2) 0.23446(11) 0.62031(15)
H10_7 H 0.6266 0.2582 0.5859
C21_7 C 0.80052(19) 0.16636(11) 0.71866(16)
H12_7 H 0.8459 0.1432 0.7532
O9_4 O 0.36099(15) 0.26347(10) 0.69489(11)
O3_7 O 0.77216(15) 0.87866(7) 0.59770(15)
C1_7 C 0.84281(15) 0.96519(8) 0.62646(12)
C7_7 C 0.92192(16) 0.99386(9) 0.65030(14)
H1_7 H 0.9777 0.9747 0.6705
C16_7 C 0.84287(18) 0.90407(9) 0.62784(14)
C20_7 C 0.76136(17) 0.99450(10) 0.59799(18)
H11_7 H 0.7055 0.9754 0.5817
N1_8 N 0.15793(15) 0.13633(7) 0.89295(14)
O5_8 O 0.43758(16) 0.29348(10) 0.81463(13)
C2_8 C 0.21178(16) 0.16866(8) 0.86098(14)
C3_8 C 0.15748(15) 0.07912(8) 0.88389(13)
C4_8 C 0.09073(16) 0.16228(8) 0.91494(15)
C5_8 C 0.31841(16) 0.23135(8) 0.80039(14)
C8_8 C 0.07734(16) 0.05019(9) 0.85427(15)
H2_8 H 0.0213 0.0692 0.8369
C11_8 C 0.37705(17) 0.26432(9) 0.76767(14)
C12_8 C 0.05173(18) 0.21213(10) 0.88153(16)
H4_8 H 0.0708 0.2299 0.8435
C14_8 C 0.23840(17) 0.05077(10) 0.90662(18)
H6_8 H 0.2940 0.0701 0.9255
C15_8 C 0.06230(18) 0.13782(8) 0.97118(16)
H7_8 H 0.0891 0.1045 0.9953
C17_8 C 0.2762(2) 0.20380(12) 0.90994(16)
H8_8 H 0.2842 0.2068 0.9647
C18_8 C 0.25228(19) 0.19730(12) 0.75090(14)
H9_8 H 0.2431 0.1951 0.6958
C19_8 C 0.3289(2) 0.23446(11) 0.87969(15)
H10_8 H 0.3734 0.2582 0.9141
C21_8 C 0.19948(19) 0.16636(11) 0.78134(16)
H12_8 H 0.1541 0.1432 0.7468
O3_8 O 0.22784(15) 0.87866(7) 0.90230(15)
C1_8 C 0.15719(15) 0.96519(8) 0.87354(12)
C7_8 C 0.07808(16) 0.99386(9) 0.84970(14)
H1_8 H 0.0223 0.9747 0.8295
C16_8 C 0.15713(18) 0.90407(9) 0.87216(14)
C20_8 C 0.23864(17) 0.99450(10) 0.90201(18)
H11_8 H 0.2945 0.9754 0.9183
H3_8 H 0.9768 0.1438 0.0310
O6_7 O 0.15978(15) 0.72532(11) 0.05856(13)
C6_7 C 0.04439(14) 0.79004(9) 0.04100(12)
C9_7 C 0.00446(17) 0.83871(8) 0.00735(15)
C10_7 C 0.11771(16) 0.76467(11) 0.01966(14)
C13_7 C 0.01430(18) 0.76467(10) 0.09610(15)
H5_7 H 0.0399 0.7307 0.1186
O6_8 O 0.84022(15) 0.27468(11) 0.94144(13)
C6_8 C 0.95561(14) 0.20996(9) 0.95900(12)
C9_8 C 0.99554(17) 0.16129(8) 0.99265(15)
C10_8 C 0.88229(16) 0.23533(11) 0.98034(14)
C13_8 C 0.98570(18) 0.23533(10) 0.90390(15)
H5_8 H 0.9601 0.2693 0.8814
loop_
_geom_bond_atom_site_label_1
_geom_bond_atom_site_label_2
_geom_bond_site_symmetry_1
_geom_bond_site_symmetry_2
O7 Li1 1_555 1_555
O8 Li1 1_555 1_555
O9 Li1 1_555 1_555
O1 C10 1_555 1_555
O2 C16 1_555 1_555
O3 C16 1_555 1_555
O4 C11 1_555 1_555
N1 C2 1_555 1_555
O5 C11 1_555 1_555
O6 C10 1_555 1_555
C1 C7 1_555 1_555
C2 C17 1_555 1_555
C3 N1 1_555 1_555
C4 N1 1_555 1_555
C5 C11 1_555 1_555
C6 C9 1_555 1_555
C7 H1 1_555 1_555
C8 C3 1_555 1_555
H2 C8 1_555 1_555
C9 H3 1_555 1_555
C10 C6 1_555 1_555
C12 C4 1_555 1_555
H4 C12 1_555 1_555
C13 C6 1_555 1_555
H5 C13 1_555 1_555
C14 C3 1_555 1_555
H6 C14 1_555 1_555
C15 C4 1_555 1_555
H7 C15 1_555 1_555
C16 C1 1_555 1_555
C17 H8 1_555 1_555
C18 C5 1_555 1_555
H9 C18 1_555 1_555
C19 C5 1_555 1_555
H10 C19 1_555 1_555
C20 C1 1_555 1_555
H11 C20 1_555 1_555
C21 C2 1_555 1_555
H12 C21 1_555 1_555
Li2 O4 1_555 1_555
Li3 O2 1_555 1_555
Li4 O1 1_555 1_555
C7 C8 1_555 1_555
C9 C15 1_555 1_555
C12 C13 1_555 1_555
C14 C20 1_555 1_555
C17 C19 1_555 1_555
C18 C21 1_555 1_555
O2_2 C16_2 1_555 1_555
O3_2 C16_2 1_555 1_555
O9 C11_2 1_555 1_555
N1_2 C2_2 1_555 1_555
O5_2 C11_2 1_555 1_555
O6_2 C10_2 1_555 1_555
C1_2 C7_2 1_555 1_555
C2_2 C17_2 1_555 1_555
C3_2 N1_2 1_555 1_555
C4_2 N1_2 1_555 1_555
C5_2 C11_2 1_555 1_555
C6_2 C9_2 1_555 1_555
C7_2 H1_2 1_555 1_555
C8_2 C3_2 1_555 1_555
H2_2 C8_2 1_555 1_555
C10_2 C6_2 1_555 1_555
C12_2 C4_2 1_555 1_555
H4_2 C12_2 1_555 1_555
C13_2 C6_2 1_555 1_555
H5_2 C13_2 1_555 1_555
C14_2 C3_2 1_555 1_555
H6_2 C14_2 1_555 1_555
C15_2 C4_2 1_555 1_555
H7_2 C15_2 1_555 1_555
C16_2 C1_2 1_555 1_555
C17_2 H8_2 1_555 1_555
C18_2 C5_2 1_555 1_555
H9_2 C18_2 1_555 1_555
C19_2 C5_2 1_555 1_555
H10_2 C19_2 1_555 1_555
C20_2 C1_2 1_555 1_555
H11_2 C20_2 1_555 1_555
C21_2 C2_2 1_555 1_555
H12_2 C21_2 1_555 1_555
Li3_2 O2_2 1_555 1_555
C7_2 C8_2 1_555 1_555
C9_2 C15_2 1_555 1_555
C12_2 C13_2 1_555 1_555
C14_2 C20_2 1_555 1_555
C17_2 C19_2 1_555 1_555
C18_2 C21_2 1_555 1_555
Li4_2 O1_2 1_555 1_555
O7_2 Li2 1_555 1_555
O8_2 Li2 1_555 1_555
O8 C16_3 1_555 1_555
O3_3 C16_3 1_555 1_555
C1_3 C7_3 1_555 1_555
C7_3 H1_3 1_555 1_555
C16_3 C1_3 1_555 1_555
C20_3 C1_3 1_555 1_555
H11_3 C20_3 1_555 1_555
O4_2 C11_3 1_555 1_555
N1_3 C2_3 1_555 1_555
O5_3 C11_3 1_555 1_555
C2_3 C17_3 1_555 1_555
C3_3 N1_3 1_555 1_555
C4_3 N1_3 1_555 1_555
C5_3 C11_3 1_555 1_555
C8_3 C3_3 1_555 1_555
H2_3 C8_3 1_555 1_555
C12_3 C4_3 1_555 1_555
H4_3 C12_3 1_555 1_555
C14_3 C3_3 1_555 1_555
H6_3 C14_3 1_555 1_555
C15_3 C4_3 1_555 1_555
H7_3 C15_3 1_555 1_555
C17_3 H8_3 1_555 1_555
C18_3 C5_3 1_555 1_555
H9_3 C18_3 1_555 1_555
C19_3 C5_3 1_555 1_555
H10_3 C19_3 1_555 1_555
C21_3 C2_3 1_555 1_555
H12_3 C21_3 1_555 1_555
Li3 O5_3 1_555 1_555
O7_3 Li3 1_555 1_555
O9_2 Li3 1_555 1_555
Li3_2 O4_2 1_555 1_555
C17_3 C19_3 1_555 1_555
C18_3 C21_3 1_555 1_555
O1_3 C10_3 1_555 1_555
O6_3 C10_3 1_555 1_555
C6_3 C9_3 1_555 1_555
C9_3 H3_3 1_555 1_555
C10_3 C6_3 1_555 1_555
C13_3 C6_3 1_555 1_555
H5_3 C13_3 1_555 1_555
Li4_3 O1_3 1_555 1_555
Li4_4 O1_4 1_555 1_555
O8_2 C16_4 1_555 1_555
O3_4 C16_4 1_555 1_555
C1_4 C7_4 1_555 1_555
C7_4 H1_4 1_555 1_555
C16_4 C1_4 1_555 1_555
C20_4 C1_4 1_555 1_555
H11_4 C20_4 1_555 1_555
O9_2 C11_4 1_555 1_555
N1_4 C2_4 1_555 1_555
O5_4 C11_4 1_555 1_555
C2_4 C17_4 1_555 1_555
C3_4 N1_4 1_555 1_555
C4_4 N1_4 1_555 1_555
C5_4 C11_4 1_555 1_555
C8_4 C3_4 1_555 1_555
H2_4 C8_4 1_555 1_555
C12_4 C4_4 1_555 1_555
H4_4 C12_4 1_555 1_555
C14_4 C3_4 1_555 1_555
H6_4 C14_4 1_555 1_555
C15_4 C4_4 1_555 1_555
H7_4 C15_4 1_555 1_555
C17_4 H8_4 1_555 1_555
C18_4 C5_4 1_555 1_555
H9_4 C18_4 1_555 1_555
C19_4 C5_4 1_555 1_555
H10_4 C19_4 1_555 1_555
C21_4 C2_4 1_555 1_555
H12_4 C21_4 1_555 1_555
Li3_2 O5_4 1_555 1_555
O7_4 Li3_2 1_555 1_555
C17_4 C19_4 1_555 1_555
C18_4 C21_4 1_555 1_555
O7_3 C10_4 1_555 1_555
O2_3 C16_5 1_555 1_555
O3_5 C16_5 1_555 1_555
O4_3 C11_5 1_555 1_555
N1_5 C2_5 1_555 1_555
O5_5 C11_5 1_555 1_555
O6_4 C10_4 1_555 1_555
C1_5 C7_5 1_555 1_555
C2_5 C17_5 1_555 1_555
C3_5 N1_5 1_555 1_555
C4_5 N1_5 1_555 1_555
C5_5 C11_5 1_555 1_555
C6_4 C9_4 1_555 1_555
C7_5 H1_5 1_555 1_555
C8_5 C3_5 1_555 1_555
H2_5 C8_5 1_555 1_555
C9_4 H3_5 1_555 1_555
C10_4 C6_4 1_555 1_555
C12_5 C4_5 1_555 1_555
H4_5 C12_5 1_555 1_555
C13_4 C6_4 1_555 1_555
H5_4 C13_4 1_555 1_555
C14_5 C3_5 1_555 1_555
H6_5 C14_5 1_555 1_555
C15_5 C4_5 1_555 1_555
H7_5 C15_5 1_555 1_555
C16_5 C1_5 1_555 1_555
C17_5 H8_5 1_555 1_555
C18_5 C5_5 1_555 1_555
H9_5 C18_5 1_555 1_555
C19_5 C5_5 1_555 1_555
H10_5 C19_5 1_555 1_555
C20_5 C1_5 1_555 1_555
H11_5 C20_5 1_555 1_555
C21_5 C2_5 1_555 1_555
H12_5 C21_5 1_555 1_555
Li4_4 O4_3 1_555 1_555
Li4 O2_3 1_555 1_555
C7_5 C8_5 1_555 1_555
C9_4 C15_5 1_555 1_555
C12_5 C13_4 1_555 1_555
C14_5 C20_5 1_555 1_555
C17_5 C19_5 1_555 1_555
C18_5 C21_5 1_555 1_555
O8_3 Li4_3 1_555 1_555
O9_3 Li4_3 1_555 1_555
O8_4 Li4_4 1_555 1_555
O2_4 C16_6 1_555 1_555
O3_6 C16_6 1_555 1_555
O9_3 C11_6 1_555 1_555
N1_6 C2_6 1_555 1_555
O5_6 C11_6 1_555 1_555
O6_5 C10_5 1_555 1_555
C1_6 C7_6 1_555 1_555
C2_6 C17_6 1_555 1_555
C3_6 N1_6 1_555 1_555
C4_6 N1_6 1_555 1_555
C5_6 C11_6 1_555 1_555
C6_5 C9_5 1_555 1_555
C7_6 H1_6 1_555 1_555
C8_6 C3_6 1_555 1_555
H2_6 C8_6 1_555 1_555
C10_5 C6_5 1_555 1_555
C12_6 C4_6 1_555 1_555
H4_6 C12_6 1_555 1_555
C13_5 C6_5 1_555 1_555
H5_5 C13_5 1_555 1_555
C14_6 C3_6 1_555 1_555
H6_6 C14_6 1_555 1_555
C15_6 C4_6 1_555 1_555
H7_6 C15_6 1_555 1_555
C16_6 C1_6 1_555 1_555
C17_6 H8_6 1_555 1_555
C18_6 C5_6 1_555 1_555
H9_6 C18_6 1_555 1_555
C19_6 C5_6 1_555 1_555
H10_6 C19_6 1_555 1_555
C20_6 C1_6 1_555 1_555
H11_6 C20_6 1_555 1_555
C21_6 C2_6 1_555 1_555
H12_6 C21_6 1_555 1_555
Li4_2 O2_4 1_555 1_555
C7_6 C8_6 1_555 1_555
C9_5 C15_6 1_555 1_555
C12_6 C13_5 1_555 1_555
C14_6 C20_6 1_555 1_555
C17_6 C19_6 1_555 1_555
C18_6 C21_6 1_555 1_555
O7 C10_6 1_555 1_555
O6_6 C10_6 1_555 1_555
C6_6 C9_6 1_555 1_555
C9_6 H3_7 1_555 1_555
C10_6 C6_6 1_555 1_555
C13_6 C6_6 1_555 1_555
H5_6 C13_6 1_555 1_555
O4_4 C11_7 1_555 1_555
N1_7 C2_7 1_555 1_555
O5_7 C11_7 1_555 1_555
C2_7 C17_7 1_555 1_555
C3_7 N1_7 1_555 1_555
C4_7 N1_7 1_555 1_555
C5_7 C11_7 1_555 1_555
C8_7 C3_7 1_555 1_555
H2_7 C8_7 1_555 1_555
C12_7 C4_7 1_555 1_555
H4_7 C12_7 1_555 1_555
C14_7 C3_7 1_555 1_555
H6_7 C14_7 1_555 1_555
C15_7 C4_7 1_555 1_555
H7_7 C15_7 1_555 1_555
C17_7 H8_7 1_555 1_555
C18_7 C5_7 1_555 1_555
H9_7 C18_7 1_555 1_555
C19_7 C5_7 1_555 1_555
H10_7 C19_7 1_555 1_555
C21_7 C2_7 1_555 1_555
H12_7 C21_7 1_555 1_555
Li4 O5_7 1_555 1_555
O9_4 Li4 1_555 1_555
Li4_2 O4_4 1_555 1_555
C17_7 C19_7 1_555 1_555
C18_7 C21_7 1_555 1_555
O8_3 C16_7 1_555 1_555
O3_7 C16_7 1_555 1_555
C1_7 C7_7 1_555 1_555
C7_7 H1_7 1_555 1_555
C16_7 C1_7 1_555 1_555
C20_7 C1_7 1_555 1_555
H11_7 C20_7 1_555 1_555
O9_4 C11_8 1_555 1_555
N1_8 C2_8 1_555 1_555
O5_8 C11_8 1_555 1_555
C2_8 C17_8 1_555 1_555
C3_8 N1_8 1_555 1_555
C4_8 N1_8 1_555 1_555
C5_8 C11_8 1_555 1_555
C8_8 C3_8 1_555 1_555
H2_8 C8_8 1_555 1_555
C12_8 C4_8 1_555 1_555
H4_8 C12_8 1_555 1_555
C14_8 C3_8 1_555 1_555
H6_8 C14_8 1_555 1_555
C15_8 C4_8 1_555 1_555
H7_8 C15_8 1_555 1_555
C17_8 H8_8 1_555 1_555
C18_8 C5_8 1_555 1_555
H9_8 C18_8 1_555 1_555
C19_8 C5_8 1_555 1_555
H10_8 C19_8 1_555 1_555
C21_8 C2_8 1_555 1_555
H12_8 C21_8 1_555 1_555
Li4_2 O5_8 1_555 1_555
C17_8 C19_8 1_555 1_555
C18_8 C21_8 1_555 1_555
O8_4 C16_8 1_555 1_555
O3_8 C16_8 1_555 1_555
C1_8 C7_8 1_555 1_555
C7_8 H1_8 1_555 1_555
C16_8 C1_8 1_555 1_555
C20_8 C1_8 1_555 1_555
H11_8 C20_8 1_555 1_555
O6_7 C10_7 1_555 1_555
C6_7 C9_7 1_555 1_555
C10_7 C6_7 1_555 1_555
C13_7 C6_7 1_555 1_555
H5_7 C13_7 1_555 1_555
O6_8 C10_8 1_555 1_555
C6_8 C9_8 1_555 1_555
C10_8 C6_8 1_555 1_555
C13_8 C6_8 1_555 1_555
H5_8 C13_8 1_555 1_555

#END
