
###############################################################################
#
# This file contains modified crystal structure data generated from the
# MOF subset of the Cambridge Structural Database (CSD) v543 
# hosted by the Cambridge Crystallographic Data Centre (CCDC).
#
# This work is licensed under the Creative Commons
# Attribution-NonCommercial-ShareAlike 4.0 International License.
# To view a copy of this license, visit
# http://creativecommons.org/licenses/by-nc-sa/4.0/
# or send a letter to
# Creative Commons, PO Box 1866, Mountain View, CA 94042, USA.
#
# CIF created using the CSD Python API on 29 September 2022
# The structure has been converted into the P1 space group
# The structure has a 3D framework
# The original CSD entry WAHRAA is in the monoclinic crystal system
# The framework has been calculated to contain at least 10.0% void space
# The void calculation uses a probe of radius 1.32A, grid spacing 0.4
#
###############################################################################

data_WAHRAA
_chemical_formula_moiety         '(C176 H104 Cu20 F48 N8 O38)n'
_symmetry_cell_setting           triclinic
_symmetry_space_group_name_H-M   'P 1'
_symmetry_Int_Tables_number      1
_space_group_name_Hall           'P 1'
loop_
_symmetry_equiv_pos_site_id
_symmetry_equiv_pos_as_xyz
1 x,y,z
_cell_length_a                   25.003(3)
_cell_length_b                   8.107(2)
_cell_length_c                   28.4059(19)
_cell_angle_alpha                90
_cell_angle_beta                 116.110(3)
_cell_angle_gamma                90
_cell_volume                     5170.27
loop_
_atom_site_label
_atom_site_type_symbol
_atom_site_fract_x
_atom_site_fract_y
_atom_site_fract_z
C18 C 0.13050(15) 0.1507(5) 0.49122(15)
H9 H 0.0946 0.1950 0.4878
C19 C 0.16908(17) 0.2489(5) 0.48718(15)
H10 H 0.1576 0.3559 0.4752
C20 C 0.22761(16) 0.1989(5) 0.50035(16)
C21 C 0.23552(15) 0.0359(5) 0.51362(15)
C40 C 0.36950(15) 0.3493(5) 0.50878(15)
H22 H 0.4054 0.3050 0.5122
C41 C 0.33092(17) 0.2511(5) 0.51282(15)
H23 H 0.3424 0.1441 0.5248
C42 C 0.27239(16) 0.3011(5) 0.49965(16)
C43 C 0.26448(15) 0.4641(5) 0.48638(15)
H24 H 0.2276 0.5108 0.4786
C44 C 0.30559(17) 0.5590(6) 0.48388(18)
H25 H 0.2949 0.6644 0.4700
Cu6 Cu 0.426970(19) 0.65397(6) 0.496750(17)
N2 N 0.36030(13) 0.5131(4) 0.49979(12)
O12 O 0.06464(11) 0.0513(3) 0.55809(9)
Cu7 Cu 0.573030(19) 0.65397(6) 0.003250(17)
H11 H 0.2724 0.9892 0.5214
C22 C 0.19441(17) 0.9410(6) 0.51612(18)
H12 H 0.2051 0.8356 0.5300
Cu1 Cu 0.073030(19) 0.84603(6) 0.503250(17)
Cu2 Cu -0.0000 0.5000 0.5000
N1 N 0.13970(13) 0.9869(4) 0.50021(12)
O5 O 0.00987(10) 0.7216(3) 0.50458(10)
C23 C 0.18317(16) 0.4760(5) 0.60825(16)
C24 C 0.23518(17) 0.5603(5) 0.63727(18)
H14 H 0.2361 0.6742 0.6340
C25 C 0.28683(17) 0.4770(5) 0.67176(15)
H15 H 0.3220 0.5344 0.6910
C26 C 0.28441(17) 0.3067(5) 0.67651(14)
C27 C 0.23253(15) 0.2216(5) 0.64719(15)
H16 H 0.2315 0.1075 0.6500
C28 C 0.18165(17) 0.3064(5) 0.61333(16)
H17 H 0.1465 0.2489 0.5941
C29 C 0.12777(15) 0.5596(5) 0.57022(14)
C30 C 0.34368(16) 0.2265(5) 0.71139(15)
C31 C 0.37808(15) 0.2981(5) 0.76553(15)
C32 C 0.43995(16) 0.3207(5) 0.78886(17)
H18 H 0.4618 0.2881 0.7711
C33 C 0.46849(18) 0.3907(5) 0.83783(17)
H19 H 0.5096 0.4051 0.8531
C34 C 0.43595(17) 0.4402(5) 0.86460(15)
C35 C 0.37405(17) 0.4173(5) 0.84208(16)
H20 H 0.3523 0.4484 0.8600
C36 C 0.34529(17) 0.3460(6) 0.79160(14)
H21 H 0.3042 0.3313 0.7759
C37 C 0.46492(16) 0.5184(5) 0.91832(14)
C38 C 0.38021(17) 0.2195(5) 0.67735(16)
C39 C 0.33906(18) 0.0397(5) 0.72655(16)
Cu8 Cu 0.426970(19) 0.34603(6) 0.996750(17)
F7 F 0.40021(10) 0.3714(3) 0.67458(10)
F8 F 0.42801(10) 0.1180(3) 0.69870(9)
F9 F 0.34925(10) 0.1766(3) 0.63210(10)
F12 F 0.29359(10) 0.0329(3) 0.74202(9)
O6 O 0.13254(10) 0.7044(3) 0.55775(10)
O7 O 0.08333(12) 0.4652(3) 0.54820(10)
O8 O 0.51935(11) 0.5453(3) 0.93759(10)
O9 O 0.01935(11) 0.9547(3) 0.43759(10)
O11 O 0.43536(11) 0.5513(3) 0.94191(9)
H26 H 0.0262 0.2344 0.5238
C1 C 0.81683(16) 0.5240(5) 0.39175(16)
C2 C 0.76482(17) 0.4397(5) 0.36273(18)
H1 H 0.7639 0.3258 0.3660
C3 C 0.71317(17) 0.5230(5) 0.32824(15)
H2 H 0.6780 0.4656 0.3090
C4 C 0.71559(17) 0.6933(5) 0.32349(14)
C5 C 0.76747(15) 0.7784(5) 0.35281(15)
H3 H 0.7685 0.8925 0.3500
C6 C 0.81835(17) 0.6936(5) 0.38667(16)
H4 H 0.8535 0.7511 0.4059
C7 C 0.87223(15) 0.4404(5) 0.42978(14)
C8 C 0.65632(16) 0.7735(5) 0.28861(15)
C9 C 0.62192(15) 0.7019(5) 0.23447(15)
C10 C 0.56005(16) 0.6793(5) 0.21114(17)
H5 H 0.5382 0.7119 0.2289
C11 C 0.53151(18) 0.6093(5) 0.16217(17)
H6 H 0.4904 0.5949 0.1469
C12 C 0.56405(17) 0.5598(5) 0.13540(15)
C13 C 0.62595(17) 0.5827(5) 0.15792(16)
H7 H 0.6477 0.5516 0.1400
C14 C 0.65471(17) 0.6540(6) 0.20840(14)
H8 H 0.6958 0.6687 0.2241
C15 C 0.53508(16) 0.4816(5) 0.08168(14)
C16 C 0.61979(17) 0.7805(5) 0.32265(16)
C17 C 0.66094(18) 0.9603(5) 0.27345(16)
Cu2_2 Cu 1.0000 0.5000 0.5000
F1 F 0.59979(10) 0.6286(3) 0.32542(10)
F2 F 0.57199(10) 0.8820(3) 0.30130(9)
F3 F 0.65075(10) 0.8234(3) 0.36790(10)
F6 F 0.70641(10) 0.9671(3) 0.25798(9)
O1 O 0.86746(10) 0.2956(3) 0.44225(10)
O2 O 0.91667(12) 0.5348(3) 0.45180(10)
O3 O 0.48065(11) 0.4547(3) 0.06241(10)
O4 O 0.56464(11) 0.4487(3) 0.05809(9)
H13 H 0.9738 0.7656 0.4762
Cu3 Cu 0.926970(19) 0.15397(6) 0.496750(17)
N3 N 0.86030(13) 0.0131(4) 0.49979(12)
O10 O 0.98065(11) 0.0453(3) 0.56241(10)
O14 O 0.99013(10) 0.2784(3) 0.49542(10)
O13 O 0.93536(11) 0.9487(3) 0.44191(9)
C1_2 C 0.18317(16) 0.5240(5) 0.10825(16)
C2_2 C 0.23518(17) 0.4397(5) 0.13727(18)
H1_2 H 0.2361 0.3258 0.1340
C3_2 C 0.28683(17) 0.5230(5) 0.17176(15)
H2_2 H 0.3220 0.4656 0.1910
C4_2 C 0.28441(17) 0.6933(5) 0.17651(14)
C5_2 C 0.23253(15) 0.7784(5) 0.14719(15)
H3_2 H 0.2315 0.8925 0.1500
C6_2 C 0.18165(17) 0.6936(5) 0.11333(16)
H4_2 H 0.1465 0.7511 0.0941
C7_2 C 0.12777(15) 0.4404(5) 0.07022(14)
C8_2 C 0.34368(16) 0.7735(5) 0.21139(15)
C9_2 C 0.37808(15) 0.7019(5) 0.26553(15)
C10_2 C 0.43995(16) 0.6793(5) 0.28886(17)
H5_2 H 0.4618 0.7119 0.2711
C11_2 C 0.46849(18) 0.6093(5) 0.33783(17)
H6_2 H 0.5096 0.5949 0.3531
C12_2 C 0.43595(17) 0.5598(5) 0.36460(15)
C13_2 C 0.37405(17) 0.5827(5) 0.34208(16)
H7_2 H 0.3523 0.5516 0.3600
C14_2 C 0.34529(17) 0.6540(6) 0.29160(14)
H8_2 H 0.3042 0.6687 0.2759
C15_2 C 0.46492(16) 0.4816(5) 0.41832(14)
C16_2 C 0.38021(17) 0.7805(5) 0.17735(16)
C17_2 C 0.33906(18) 0.9603(5) 0.22655(16)
Cu2_3 Cu 0.0000 0.5000 0.0000
F1_2 F 0.40021(10) 0.6286(3) 0.17458(10)
F2_2 F 0.42801(10) 0.8820(3) 0.19870(9)
F3_2 F 0.34925(10) 0.8234(3) 0.13210(10)
F6_2 F 0.29359(10) 0.9671(3) 0.24202(9)
O1_2 O 0.13254(10) 0.2956(3) 0.05775(10)
O2_2 O 0.08333(12) 0.5348(3) 0.04820(10)
O3_2 O 0.51935(11) 0.4547(3) 0.43759(10)
O4_2 O 0.43536(11) 0.4487(3) 0.44191(9)
H13_2 H 0.0262 0.7656 0.0238
Cu3_2 Cu 0.073030(19) 0.15397(6) 0.003250(17)
Cu4 Cu 0.573030(19) 0.34603(6) 0.503250(17)
N3_2 N 0.13970(13) 0.0131(4) 0.00021(12)
O14_2 O 0.00987(10) 0.2784(3) 0.00458(10)
O13_2 O 0.06464(11) 0.9487(3) 0.05809(9)
C18_2 C 0.86950(15) 0.1507(5) 0.00878(15)
H9_2 H 0.9054 0.1950 0.0122
C19_2 C 0.83092(17) 0.2489(5) 0.01282(15)
H10_2 H 0.8424 0.3559 0.0248
C42_2 C 0.72761(16) 0.3011(5) 0.00035(16)
C43_2 C 0.73552(15) 0.4641(5) 0.01362(15)
H24_2 H 0.7724 0.5108 0.0214
C44_2 C 0.69441(17) 0.5590(6) 0.01612(18)
H25_2 H 0.7051 0.6644 0.0300
N2_2 N 0.63970(13) 0.5131(4) 0.00021(12)
C20_2 C 0.77239(16) 0.1989(5) 0.99965(16)
C21_2 C 0.76448(15) 0.0359(5) 0.98638(15)
C40_2 C 0.63050(15) 0.3493(5) 0.99122(15)
H22_2 H 0.5946 0.3050 0.9878
C41_2 C 0.66908(17) 0.2511(5) 0.98718(15)
H23_2 H 0.6576 0.1441 0.9752
O12_2 O 0.93536(11) 0.0513(3) 0.94191(9)
H11_2 H 0.7276 0.9892 0.9786
C22_2 C 0.80559(17) 0.9410(6) 0.98388(18)
H12_2 H 0.7949 0.8356 0.9700
Cu1_2 Cu 0.926970(19) 0.84603(6) 0.996750(17)
Cu2_4 Cu 1.0000 0.5000 1.0000
N1_2 N 0.86030(13) 0.9869(4) 0.99979(12)
O5_2 O 0.99013(10) 0.7216(3) 0.99542(10)
C23_2 C 0.81683(16) 0.4760(5) 0.89175(16)
C24_2 C 0.76482(17) 0.5603(5) 0.86273(18)
H14_2 H 0.7639 0.6742 0.8660
C25_2 C 0.71317(17) 0.4770(5) 0.82824(15)
H15_2 H 0.6780 0.5344 0.8090
C26_2 C 0.71559(17) 0.3067(5) 0.82349(14)
C27_2 C 0.76747(15) 0.2216(5) 0.85281(15)
H16_2 H 0.7685 0.1075 0.8500
C28_2 C 0.81835(17) 0.3064(5) 0.88667(16)
H17_2 H 0.8535 0.2489 0.9059
C29_2 C 0.87223(15) 0.5596(5) 0.92978(14)
C30_2 C 0.65632(16) 0.2265(5) 0.78861(15)
C31_2 C 0.62192(15) 0.2981(5) 0.73447(15)
C32_2 C 0.56005(16) 0.3207(5) 0.71114(17)
H18_2 H 0.5382 0.2881 0.7289
C33_2 C 0.53151(18) 0.3907(5) 0.66217(17)
H19_2 H 0.4904 0.4051 0.6469
C34_2 C 0.56405(17) 0.4402(5) 0.63540(15)
C35_2 C 0.62595(17) 0.4173(5) 0.65792(16)
H20_2 H 0.6477 0.4484 0.6400
C36_2 C 0.65471(17) 0.3460(6) 0.70840(14)
H21_2 H 0.6958 0.3313 0.7241
C37_2 C 0.53508(16) 0.5184(5) 0.58168(14)
C38_2 C 0.61979(17) 0.2195(5) 0.82265(16)
C39_2 C 0.66094(18) 0.0397(5) 0.77345(16)
F7_2 F 0.59979(10) 0.3714(3) 0.82542(10)
F8_2 F 0.57199(10) 0.1180(3) 0.80130(9)
F9_2 F 0.65075(10) 0.1766(3) 0.86790(10)
F12_2 F 0.70641(10) 0.0329(3) 0.75798(9)
O6_2 O 0.86746(10) 0.7044(3) 0.94225(10)
O7_2 O 0.91667(12) 0.4652(3) 0.95180(10)
O8_2 O 0.48065(11) 0.5453(3) 0.56241(10)
O11_2 O 0.56464(11) 0.5513(3) 0.55809(9)
H26_2 H 0.9738 0.2344 0.9762
H24_3 H 0.7276 0.0108 0.4786
C44_3 C 0.80559(17) 0.0590(6) 0.48388(18)
H25_3 H 0.7949 0.1644 0.4700
C1_3 C 0.31683(16) 0.0240(5) 0.39175(16)
C3_3 C 0.21317(17) 0.0230(5) 0.32824(15)
C4_3 C 0.21559(17) 0.1933(5) 0.32349(14)
C5_3 C 0.26747(15) 0.2784(5) 0.35281(15)
H3_3 H 0.2685 0.3925 0.3500
C6_3 C 0.31835(17) 0.1936(5) 0.38667(16)
H4_3 H 0.3535 0.2511 0.4059
C8_3 C 0.15632(16) 0.2735(5) 0.28861(15)
C9_3 C 0.12192(15) 0.2019(5) 0.23447(15)
C10_3 C 0.06005(16) 0.1793(5) 0.21114(17)
H5_3 H 0.0382 0.2119 0.2289
C11_3 C 0.03151(18) 0.1093(5) 0.16217(17)
C12_3 C 0.06405(17) 0.0598(5) 0.13540(15)
C13_3 C 0.12595(17) 0.0827(5) 0.15792(16)
H7_3 H 0.1477 0.0516 0.1400
C14_3 C 0.15471(17) 0.1540(6) 0.20840(14)
H8_3 H 0.1958 0.1687 0.2241
C16_3 C 0.11979(17) 0.2805(5) 0.32265(16)
C17_3 C 0.16094(18) 0.4603(5) 0.27345(16)
C18_3 C 0.63050(15) 0.6507(5) 0.49122(15)
H9_3 H 0.5946 0.6950 0.4878
C19_3 C 0.66908(17) 0.7489(5) 0.48718(15)
H10_3 H 0.6576 0.8559 0.4752
C20_3 C 0.72761(16) 0.6989(5) 0.50035(16)
C21_3 C 0.73552(15) 0.5359(5) 0.51362(15)
H11_3 H 0.7724 0.4892 0.5214
C22_3 C 0.69441(17) 0.4410(6) 0.51612(18)
H12_3 H 0.7051 0.3356 0.5300
Cu2_5 Cu 0.5000 -0.0000 0.5000
F1_3 F 0.09979(10) 0.1286(3) 0.32542(10)
F2_3 F 0.07199(10) 0.3820(3) 0.30130(9)
F3_3 F 0.15075(10) 0.3234(3) 0.36790(10)
F4 F 0.11688(11) 0.5234(3) 0.24380(9)
F5 F 0.18485(10) 0.5611(3) 0.32021(10)
F6_3 F 0.20641(10) 0.4671(3) 0.25798(9)
N1_3 N 0.63970(13) 0.4869(4) 0.50021(12)
O2_3 O 0.41667(12) 0.0348(3) 0.45180(10)
H13_3 H 0.4738 0.2656 0.4762
O5_3 O 0.50987(10) 0.2216(3) 0.50458(10)
C24_3 C 0.73518(17) 0.0603(5) 0.63727(18)
H14_3 H 0.7361 0.1742 0.6340
H15_3 H 0.8220 0.0344 0.6910
C29_3 C 0.62777(15) 0.0596(5) 0.57022(14)
C37_3 C 0.96492(16) 0.0184(5) 0.91832(14)
C40_3 C 0.86950(15) 0.8493(5) 0.50878(15)
H22_3 H 0.9054 0.8050 0.5122
C41_3 C 0.83092(17) 0.7511(5) 0.51282(15)
H23_3 H 0.8424 0.6441 0.5248
C42_3 C 0.77239(16) 0.8011(5) 0.49965(16)
C43_3 C 0.76448(15) 0.9641(5) 0.48638(15)
O6_3 O 0.63254(10) 0.2044(3) 0.55775(10)
C2_3 C 0.26482(17) 0.9397(5) 0.36273(18)
H1_3 H 0.2639 0.8258 0.3660
H2_3 H 0.1780 0.9656 0.3090
C7_3 C 0.37223(15) 0.9404(5) 0.42978(14)
C15_3 C 0.03508(16) 0.9816(5) 0.08168(14)
Cu2_6 Cu 0.5000 1.0000 0.5000
O1_3 O 0.36746(10) 0.7956(3) 0.44225(10)
C23_3 C 0.68317(16) 0.9760(5) 0.60825(16)
C25_3 C 0.78683(17) 0.9770(5) 0.67176(15)
C26_3 C 0.78441(17) 0.8067(5) 0.67651(14)
C27_3 C 0.73253(15) 0.7216(5) 0.64719(15)
H16_3 H 0.7315 0.6075 0.6500
C28_3 C 0.68165(17) 0.8064(5) 0.61333(16)
H17_3 H 0.6465 0.7489 0.5941
C30_3 C 0.84368(16) 0.7265(5) 0.71139(15)
C31_3 C 0.87808(15) 0.7981(5) 0.76553(15)
C32_3 C 0.93995(16) 0.8207(5) 0.78886(17)
H18_3 H 0.9618 0.7881 0.7711
C33_3 C 0.96849(18) 0.8907(5) 0.83783(17)
C34_3 C 0.93595(17) 0.9402(5) 0.86460(15)
C35_3 C 0.87405(17) 0.9173(5) 0.84208(16)
H20_3 H 0.8523 0.9484 0.8600
C36_3 C 0.84529(17) 0.8460(6) 0.79160(14)
H21_3 H 0.8042 0.8313 0.7759
C38_3 C 0.88021(17) 0.7195(5) 0.67735(16)
C39_3 C 0.83906(18) 0.5397(5) 0.72655(16)
F7_3 F 0.90021(10) 0.8714(3) 0.67458(10)
F8_3 F 0.92801(10) 0.6180(3) 0.69870(9)
F9_3 F 0.84925(10) 0.6766(3) 0.63210(10)
F10 F 0.88312(11) 0.4766(3) 0.75620(9)
F11 F 0.81515(10) 0.4389(3) 0.67979(10)
F12_3 F 0.79359(10) 0.5329(3) 0.74202(9)
O7_3 O 0.58333(12) 0.9652(3) 0.54820(10)
H26_3 H 0.5262 0.7344 0.5238
O14_3 O 0.49013(10) 0.7784(3) 0.49542(10)
H24_4 H 0.2724 0.0108 0.0214
C44_4 C 0.19441(17) 0.0590(6) 0.01612(18)
H25_4 H 0.2051 0.1644 0.0300
C1_4 C 0.68317(16) 0.0240(5) 0.10825(16)
C3_4 C 0.78683(17) 0.0230(5) 0.17176(15)
C4_4 C 0.78441(17) 0.1933(5) 0.17651(14)
C5_4 C 0.73253(15) 0.2784(5) 0.14719(15)
H3_4 H 0.7315 0.3925 0.1500
C6_4 C 0.68165(17) 0.1936(5) 0.11333(16)
H4_4 H 0.6465 0.2511 0.0941
C8_4 C 0.84368(16) 0.2735(5) 0.21139(15)
C9_4 C 0.87808(15) 0.2019(5) 0.26553(15)
C10_4 C 0.93995(16) 0.1793(5) 0.28886(17)
H5_4 H 0.9618 0.2119 0.2711
C11_4 C 0.96849(18) 0.1093(5) 0.33783(17)
C12_4 C 0.93595(17) 0.0598(5) 0.36460(15)
C13_4 C 0.87405(17) 0.0827(5) 0.34208(16)
H7_4 H 0.8523 0.0516 0.3600
C14_4 C 0.84529(17) 0.1540(6) 0.29160(14)
H8_4 H 0.8042 0.1687 0.2759
C16_4 C 0.88021(17) 0.2805(5) 0.17735(16)
C17_4 C 0.83906(18) 0.4603(5) 0.22655(16)
C18_4 C 0.36950(15) 0.6507(5) 0.00878(15)
H9_4 H 0.4054 0.6950 0.0122
C19_4 C 0.33092(17) 0.7489(5) 0.01282(15)
H10_4 H 0.3424 0.8559 0.0248
Cu2_7 Cu 0.5000 -0.0000 0.0000
F1_4 F 0.90021(10) 0.1286(3) 0.17458(10)
F2_4 F 0.92801(10) 0.3820(3) 0.19870(9)
F3_4 F 0.84925(10) 0.3234(3) 0.13210(10)
F4_2 F 0.88312(11) 0.5234(3) 0.25620(9)
F5_2 F 0.81515(10) 0.5611(3) 0.17979(10)
F6_4 F 0.79359(10) 0.4671(3) 0.24202(9)
O2_4 O 0.58333(12) 0.0348(3) 0.04820(10)
H13_4 H 0.5262 0.2656 0.0238
C42_4 C 0.22761(16) 0.8011(5) 0.00035(16)
C43_4 C 0.23552(15) 0.9641(5) 0.01362(15)
C20_4 C 0.27239(16) 0.6989(5) 0.99965(16)
C21_4 C 0.26448(15) 0.5359(5) 0.98638(15)
H11_4 H 0.2276 0.4892 0.9786
C22_4 C 0.30559(17) 0.4410(6) 0.98388(18)
H12_4 H 0.2949 0.3356 0.9700
Cu2_8 Cu 0.5000 -0.0000 1.0000
N1_4 N 0.36030(13) 0.4869(4) 0.99979(12)
O5_4 O 0.49013(10) 0.2216(3) 0.99542(10)
C24_4 C 0.26482(17) 0.0603(5) 0.86273(18)
H14_4 H 0.2639 0.1742 0.8660
H15_4 H 0.1780 0.0344 0.8090
C29_4 C 0.37223(15) 0.0596(5) 0.92978(14)
C37_4 C 0.03508(16) 0.0184(5) 0.58168(14)
C40_4 C 0.13050(15) 0.8493(5) 0.99122(15)
H22_4 H 0.0946 0.8050 0.9878
C41_4 C 0.16908(17) 0.7511(5) 0.98718(15)
H23_4 H 0.1576 0.6441 0.9752
O6_4 O 0.36746(10) 0.2044(3) 0.94225(10)
C2_4 C 0.73518(17) 0.9397(5) 0.13727(18)
H1_4 H 0.7361 0.8258 0.1340
H2_4 H 0.8220 0.9656 0.1910
C7_4 C 0.62777(15) 0.9404(5) 0.07022(14)
C15_4 C 0.96492(16) 0.9816(5) 0.41832(14)
Cu2_9 Cu 0.5000 1.0000 0.0000
O1_4 O 0.63254(10) 0.7956(3) 0.05775(10)
O14_4 O 0.50987(10) 0.7784(3) 0.00458(10)
Cu2_10 Cu 0.5000 1.0000 1.0000
C23_4 C 0.31683(16) 0.9760(5) 0.89175(16)
C25_4 C 0.21317(17) 0.9770(5) 0.82824(15)
C26_4 C 0.21559(17) 0.8067(5) 0.82349(14)
C27_4 C 0.26747(15) 0.7216(5) 0.85281(15)
H16_4 H 0.2685 0.6075 0.8500
C28_4 C 0.31835(17) 0.8064(5) 0.88667(16)
H17_4 H 0.3535 0.7489 0.9059
C30_4 C 0.15632(16) 0.7265(5) 0.78861(15)
C31_4 C 0.12192(15) 0.7981(5) 0.73447(15)
C32_4 C 0.06005(16) 0.8207(5) 0.71114(17)
H18_4 H 0.0382 0.7881 0.7289
C33_4 C 0.03151(18) 0.8907(5) 0.66217(17)
C34_4 C 0.06405(17) 0.9402(5) 0.63540(15)
C35_4 C 0.12595(17) 0.9173(5) 0.65792(16)
H20_4 H 0.1477 0.9484 0.6400
C36_4 C 0.15471(17) 0.8460(6) 0.70840(14)
H21_4 H 0.1958 0.8313 0.7241
C38_4 C 0.11979(17) 0.7195(5) 0.82265(16)
C39_4 C 0.16094(18) 0.5397(5) 0.77345(16)
F7_4 F 0.09979(10) 0.8714(3) 0.82542(10)
F8_4 F 0.07199(10) 0.6180(3) 0.80130(9)
F9_4 F 0.15075(10) 0.6766(3) 0.86790(10)
F10_2 F 0.11688(11) 0.4766(3) 0.74380(9)
F11_2 F 0.18485(10) 0.4389(3) 0.82021(10)
F12_4 F 0.20641(10) 0.5329(3) 0.75798(9)
O7_4 O 0.41667(12) 0.9652(3) 0.95180(10)
H26_4 H 0.4738 0.7344 0.9762
F10_3 F 0.38312(11) 0.9766(3) 0.75620(9)
F11_3 F 0.31515(10) 0.9389(3) 0.67979(10)
F4_3 F 0.61688(11) 0.0234(3) 0.24380(9)
F5_3 F 0.68485(10) 0.0611(3) 0.32021(10)
F4_4 F 0.38312(11) 0.0234(3) 0.25620(9)
F5_4 F 0.31515(10) 0.0611(3) 0.17979(10)
Cu2_11 Cu 0.0000 0.5000 1.0000
O10_2 O 0.01935(11) 0.0453(3) 0.93759(10)
Cu2_12 Cu 1.0000 0.5000 0.0000
O9_2 O 0.98065(11) 0.9547(3) 0.06241(10)
F10_4 F 0.61688(11) 0.9766(3) 0.74380(9)
F11_4 F 0.68485(10) 0.9389(3) 0.82021(10)
H19_3 H 0.0096 0.9051 0.8531
H6_3 H 0.9904 0.0949 0.1469
H6_4 H 0.0096 0.0949 0.3531
H19_4 H 0.9904 0.9051 0.6469
loop_
_geom_bond_atom_site_label_1
_geom_bond_atom_site_label_2
_geom_bond_site_symmetry_1
_geom_bond_site_symmetry_2
C18 H9 1_555 1_555
C19 C18 1_555 1_555
H10 C19 1_555 1_555
C20 C19 1_555 1_555
C21 C20 1_555 1_555
C40 H22 1_555 1_555
C41 C40 1_555 1_555
H23 C41 1_555 1_555
C42 C20 1_555 1_555
C43 C42 1_555 1_555
H24 C43 1_555 1_555
C44 C43 1_555 1_555
H25 C44 1_555 1_555
Cu6 N2 1_555 1_555
N2 C40 1_555 1_555
C41 C42 1_555 1_555
C44 N2 1_555 1_555
H12 C22 1_555 1_555
Cu1 N1 1_555 1_555
O5 Cu1 1_555 1_555
C23 C24 1_555 1_555
C24 H14 1_555 1_555
C25 C24 1_555 1_555
H15 C25 1_555 1_555
C26 C25 1_555 1_555
C27 C26 1_555 1_555
H16 C27 1_555 1_555
C28 C23 1_555 1_555
H17 C28 1_555 1_555
C29 C23 1_555 1_555
C30 C26 1_555 1_555
C31 C30 1_555 1_555
C32 C31 1_555 1_555
H18 C32 1_555 1_555
C33 C32 1_555 1_555
H19 C33 1_555 1_555
C34 C33 1_555 1_555
C35 C34 1_555 1_555
H20 C35 1_555 1_555
C36 C31 1_555 1_555
H21 C36 1_555 1_555
C37 C34 1_555 1_555
C38 C30 1_555 1_555
C39 C30 1_555 1_555
Cu8 O11 1_555 1_555
F7 C38 1_555 1_555
F8 C38 1_555 1_555
F9 C38 1_555 1_555
F12 C39 1_555 1_555
O6 Cu1 1_555 1_555
O7 Cu2 1_555 1_555
O8 C37 1_555 1_555
O9 Cu1 1_555 1_555
O11 C37 1_555 1_555
C22 N1 1_555 1_555
Cu2 O5 1_555 1_555
C27 C28 1_555 1_555
C29 O6 1_555 1_555
C29 O7 1_555 1_555
C35 C36 1_555 1_555
C1 C2 1_555 1_555
C2 H1 1_555 1_555
C3 C2 1_555 1_555
H2 C3 1_555 1_555
C4 C3 1_555 1_555
C5 C4 1_555 1_555
H3 C5 1_555 1_555
C6 C1 1_555 1_555
H4 C6 1_555 1_555
C7 C1 1_555 1_555
C8 C4 1_555 1_555
C9 C8 1_555 1_555
C10 C9 1_555 1_555
H5 C10 1_555 1_555
C11 C10 1_555 1_555
H6 C11 1_555 1_555
C12 C11 1_555 1_555
C13 C12 1_555 1_555
H7 C13 1_555 1_555
C14 C9 1_555 1_555
H8 C14 1_555 1_555
C15 C12 1_555 1_555
C16 C8 1_555 1_555
C17 C8 1_555 1_555
Cu2_2 O2 1_555 1_555
F1 C16 1_555 1_555
F2 C16 1_555 1_555
F3 C16 1_555 1_555
F6 C17 1_555 1_555
O1 C7 1_555 1_555
O2 C7 1_555 1_555
O3 C15 1_555 1_555
O4 C15 1_555 1_555
Cu3 O1 1_555 1_555
Cu7 O4 1_555 1_555
N3 Cu3 1_555 1_555
O10 Cu3 1_555 1_555
O14 Cu2_2 1_555 1_555
C5 C6 1_555 1_555
C13 C14 1_555 1_555
Cu3 O14 1_555 1_555
C1_2 C2_2 1_555 1_555
C2_2 H1_2 1_555 1_555
C3_2 C2_2 1_555 1_555
H2_2 C3_2 1_555 1_555
C4_2 C3_2 1_555 1_555
C5_2 C4_2 1_555 1_555
H3_2 C5_2 1_555 1_555
C6_2 C1_2 1_555 1_555
H4_2 C6_2 1_555 1_555
C7_2 C1_2 1_555 1_555
C8_2 C4_2 1_555 1_555
C9_2 C8_2 1_555 1_555
C10_2 C9_2 1_555 1_555
H5_2 C10_2 1_555 1_555
C11_2 C10_2 1_555 1_555
H6_2 C11_2 1_555 1_555
C12_2 C11_2 1_555 1_555
C13_2 C12_2 1_555 1_555
H7_2 C13_2 1_555 1_555
C14_2 C9_2 1_555 1_555
H8_2 C14_2 1_555 1_555
C15_2 C12_2 1_555 1_555
C16_2 C8_2 1_555 1_555
C17_2 C8_2 1_555 1_555
Cu2_3 O2_2 1_555 1_555
F1_2 C16_2 1_555 1_555
F2_2 C16_2 1_555 1_555
F3_2 C16_2 1_555 1_555
F6_2 C17_2 1_555 1_555
O1_2 C7_2 1_555 1_555
O2_2 C7_2 1_555 1_555
O3_2 C15_2 1_555 1_555
O4_2 C15_2 1_555 1_555
Cu3_2 O1_2 1_555 1_555
Cu4 O3_2 1_555 1_555
Cu6 O4_2 1_555 1_555
N3_2 Cu3_2 1_555 1_555
O14_2 Cu2_3 1_555 1_555
C5_2 C6_2 1_555 1_555
C13_2 C14_2 1_555 1_555
Cu3_2 O14_2 1_555 1_555
C18_2 H9_2 1_555 1_555
C19_2 C18_2 1_555 1_555
H10_2 C19_2 1_555 1_555
C43_2 C42_2 1_555 1_555
H24_2 C43_2 1_555 1_555
C44_2 C43_2 1_555 1_555
H25_2 C44_2 1_555 1_555
Cu7 N2_2 1_555 1_555
C44_2 N2_2 1_555 1_555
C21_2 C20_2 1_555 1_555
C40_2 H22_2 1_555 1_555
C41_2 C40_2 1_555 1_555
H23_2 C41_2 1_555 1_555
H12_2 C22_2 1_555 1_555
Cu1_2 N1_2 1_555 1_555
O5_2 Cu1_2 1_555 1_555
C23_2 C24_2 1_555 1_555
C24_2 H14_2 1_555 1_555
C25_2 C24_2 1_555 1_555
H15_2 C25_2 1_555 1_555
C26_2 C25_2 1_555 1_555
C27_2 C26_2 1_555 1_555
H16_2 C27_2 1_555 1_555
C28_2 C23_2 1_555 1_555
H17_2 C28_2 1_555 1_555
C29_2 C23_2 1_555 1_555
C30_2 C26_2 1_555 1_555
C31_2 C30_2 1_555 1_555
C32_2 C31_2 1_555 1_555
H18_2 C32_2 1_555 1_555
C33_2 C32_2 1_555 1_555
H19_2 C33_2 1_555 1_555
C34_2 C33_2 1_555 1_555
C35_2 C34_2 1_555 1_555
H20_2 C35_2 1_555 1_555
C36_2 C31_2 1_555 1_555
H21_2 C36_2 1_555 1_555
C37_2 C34_2 1_555 1_555
C38_2 C30_2 1_555 1_555
C39_2 C30_2 1_555 1_555
Cu6 O8_2 1_555 1_555
Cu4 O11_2 1_555 1_555
F7_2 C38_2 1_555 1_555
F8_2 C38_2 1_555 1_555
F9_2 C38_2 1_555 1_555
F12_2 C39_2 1_555 1_555
O6_2 Cu1_2 1_555 1_555
O7_2 Cu2_4 1_555 1_555
O8_2 C37_2 1_555 1_555
O11_2 C37_2 1_555 1_555
C22_2 N1_2 1_555 1_555
Cu2_4 O5_2 1_555 1_555
C27_2 C28_2 1_555 1_555
C29_2 O6_2 1_555 1_555
C29_2 O7_2 1_555 1_555
C35_2 C36_2 1_555 1_555
H25_3 C44_3 1_555 1_555
C44_3 N3 1_555 1_555
C4_3 C3_3 1_555 1_555
C5_3 C4_3 1_555 1_555
H3_3 C5_3 1_555 1_555
C6_3 C1_3 1_555 1_555
H4_3 C6_3 1_555 1_555
C8_3 C4_3 1_555 1_555
C9_3 C8_3 1_555 1_555
C10_3 C9_3 1_555 1_555
H5_3 C10_3 1_555 1_555
C11_3 C10_3 1_555 1_555
C12_3 C11_3 1_555 1_555
C13_3 C12_3 1_555 1_555
H7_3 C13_3 1_555 1_555
C14_3 C9_3 1_555 1_555
H8_3 C14_3 1_555 1_555
C16_3 C8_3 1_555 1_555
C17_3 C8_3 1_555 1_555
C18_3 H9_3 1_555 1_555
C19_3 C18_3 1_555 1_555
H10_3 C19_3 1_555 1_555
C20_3 C19_3 1_555 1_555
C21_3 C20_3 1_555 1_555
H11_3 C21_3 1_555 1_555
C22_3 C21_3 1_555 1_555
H12_3 C22_3 1_555 1_555
Cu4 N1_3 1_555 1_555
Cu2_5 O2_3 1_555 1_555
F1_3 C16_3 1_555 1_555
F2_3 C16_3 1_555 1_555
F3_3 C16_3 1_555 1_555
F4 C17_3 1_555 1_555
F5 C17_3 1_555 1_555
F6_3 C17_3 1_555 1_555
N1_3 C18_3 1_555 1_555
H13_3 O5_3 1_555 1_555
O5_3 Cu4 1_555 1_555
C24_3 H14_3 1_555 1_555
C40_3 H22_3 1_555 1_555
C41_3 C40_3 1_555 1_555
H23_3 C41_3 1_555 1_555
C42_3 C20_3 1_555 1_555
C43_3 C42_3 1_555 1_555
O6_3 Cu4 1_555 1_555
O12_2 C37_3 1_555 1_555
C5_3 C6_3 1_555 1_555
C13_3 C14_3 1_555 1_555
C22_3 N1_3 1_555 1_555
Cu2_5 O5_3 1_555 1_555
C29_3 O6_3 1_555 1_555
C41_3 C42_3 1_555 1_555
C2_3 H1_3 1_555 1_555
O1_3 C7_3 1_555 1_555
O13_2 C15_3 1_555 1_555
C26_3 C25_3 1_555 1_555
C27_3 C26_3 1_555 1_555
H16_3 C27_3 1_555 1_555
C28_3 C23_3 1_555 1_555
H17_3 C28_3 1_555 1_555
C30_3 C26_3 1_555 1_555
C31_3 C30_3 1_555 1_555
C32_3 C31_3 1_555 1_555
H18_3 C32_3 1_555 1_555
C33_3 C32_3 1_555 1_555
C34_3 C33_3 1_555 1_555
C35_3 C34_3 1_555 1_555
H20_3 C35_3 1_555 1_555
C36_3 C31_3 1_555 1_555
H21_3 C36_3 1_555 1_555
C38_3 C30_3 1_555 1_555
C39_3 C30_3 1_555 1_555
Cu6 O1_3 1_555 1_555
F7_3 C38_3 1_555 1_555
F8_3 C38_3 1_555 1_555
F9_3 C38_3 1_555 1_555
F10 C39_3 1_555 1_555
F11 C39_3 1_555 1_555
F12_3 C39_3 1_555 1_555
O7_3 Cu2_6 1_555 1_555
H26_3 O14_3 1_555 1_555
O14_3 Cu2_6 1_555 1_555
C27_3 C28_3 1_555 1_555
C35_3 C36_3 1_555 1_555
Cu6 O14_3 1_555 1_555
H25_4 C44_4 1_555 1_555
C44_4 N3_2 1_555 1_555
C4_4 C3_4 1_555 1_555
C5_4 C4_4 1_555 1_555
H3_4 C5_4 1_555 1_555
C6_4 C1_4 1_555 1_555
H4_4 C6_4 1_555 1_555
C8_4 C4_4 1_555 1_555
C9_4 C8_4 1_555 1_555
C10_4 C9_4 1_555 1_555
H5_4 C10_4 1_555 1_555
C11_4 C10_4 1_555 1_555
C12_4 C11_4 1_555 1_555
C13_4 C12_4 1_555 1_555
H7_4 C13_4 1_555 1_555
C14_4 C9_4 1_555 1_555
H8_4 C14_4 1_555 1_555
C16_4 C8_4 1_555 1_555
C17_4 C8_4 1_555 1_555
C18_4 H9_4 1_555 1_555
C19_4 C18_4 1_555 1_555
H10_4 C19_4 1_555 1_555
Cu2_7 O2_4 1_555 1_555
F1_4 C16_4 1_555 1_555
F2_4 C16_4 1_555 1_555
F3_4 C16_4 1_555 1_555
F4_2 C17_4 1_555 1_555
F5_2 C17_4 1_555 1_555
F6_4 C17_4 1_555 1_555
C43_4 C42_4 1_555 1_555
C5_4 C6_4 1_555 1_555
C13_4 C14_4 1_555 1_555
C21_4 C20_4 1_555 1_555
H11_4 C21_4 1_555 1_555
C22_4 C21_4 1_555 1_555
H12_4 C22_4 1_555 1_555
Cu8 N1_4 1_555 1_555
O5_4 Cu8 1_555 1_555
C24_4 H14_4 1_555 1_555
C40_4 H22_4 1_555 1_555
C41_4 C40_4 1_555 1_555
H23_4 C41_4 1_555 1_555
O6_4 Cu8 1_555 1_555
O12 C37_4 1_555 1_555
C22_4 N1_4 1_555 1_555
Cu2_8 O5_4 1_555 1_555
C29_4 O6_4 1_555 1_555
C2_4 H1_4 1_555 1_555
O1_4 C7_4 1_555 1_555
O13 C15_4 1_555 1_555
Cu7 O1_4 1_555 1_555
O14_4 Cu2_9 1_555 1_555
Cu7 O14_4 1_555 1_555
C26_4 C25_4 1_555 1_555
C27_4 C26_4 1_555 1_555
H16_4 C27_4 1_555 1_555
C28_4 C23_4 1_555 1_555
H17_4 C28_4 1_555 1_555
C30_4 C26_4 1_555 1_555
C31_4 C30_4 1_555 1_555
C32_4 C31_4 1_555 1_555
H18_4 C32_4 1_555 1_555
C33_4 C32_4 1_555 1_555
C34_4 C33_4 1_555 1_555
C35_4 C34_4 1_555 1_555
H20_4 C35_4 1_555 1_555
C36_4 C31_4 1_555 1_555
H21_4 C36_4 1_555 1_555
C38_4 C30_4 1_555 1_555
C39_4 C30_4 1_555 1_555
F7_4 C38_4 1_555 1_555
F8_4 C38_4 1_555 1_555
F9_4 C38_4 1_555 1_555
F10_2 C39_4 1_555 1_555
F11_2 C39_4 1_555 1_555
F12_4 C39_4 1_555 1_555
O7_4 Cu2_10 1_555 1_555
C27_4 C28_4 1_555 1_555
C35_4 C36_4 1_555 1_555

#END
