
###############################################################################
#
# This file contains modified crystal structure data generated from the
# MOF subset of the Cambridge Structural Database (CSD) v543 
# hosted by the Cambridge Crystallographic Data Centre (CCDC).
#
# This work is licensed under the Creative Commons
# Attribution-NonCommercial-ShareAlike 4.0 International License.
# To view a copy of this license, visit
# http://creativecommons.org/licenses/by-nc-sa/4.0/
# or send a letter to
# Creative Commons, PO Box 1866, Mountain View, CA 94042, USA.
#
# CIF created using the CSD Python API on 29 September 2022
# The structure has been converted into the P1 space group
# The structure has a 3D framework
# The original CSD entry WAHRIJ is in the monoclinic crystal system
# The framework has been calculated to contain at least 10.0% void space
# The void calculation uses a probe of radius 1.32A, grid spacing 0.4
# The framework is charged, counterions have been retained in the structure
# H atom positions have been added when not included in the experimental data
# Generated hydrogen atom positions removed from atoms on special positions
#
###############################################################################

data_WAHRIJ
_chemical_formula_moiety         '(C150 H144 Cl2 Fe8 N24 O27 5+)n'
_symmetry_cell_setting           triclinic
_symmetry_space_group_name_H-M   'P 1'
_symmetry_Int_Tables_number      1
_space_group_name_Hall           'P 1'
loop_
_symmetry_equiv_pos_site_id
_symmetry_equiv_pos_as_xyz
1 x,y,z
_cell_length_a                   12.398(3)
_cell_length_b                   33.496(7)
_cell_length_c                   12.868(3)
_cell_angle_alpha                90
_cell_angle_beta                 96.64(3)
_cell_angle_gamma                90
_cell_volume                     5308.02
loop_
_atom_site_label
_atom_site_type_symbol
_atom_site_fract_x
_atom_site_fract_y
_atom_site_fract_z
C16 C 0.0371(5) 0.1120(2) 0.6430(5)
C18 C 0.0350(6) 0.1749(2) 0.7622(7)
H15 H 0.1112 0.1782 0.7502
H16 H 0.0309 0.1699 0.8366
H19 H 0.0230 0.0554 0.4895
C20 C 0.1523(5) 0.1080(2) 0.6314(6)
C21 C 0.2122(5) 0.1396(2) 0.6017(6)
H21 H 0.1791 0.1650 0.5884
C22 C 0.3232(5) 0.1343(2) 0.5910(7)
H22 H 0.3648 0.1564 0.5722
C23 C 0.3718(5) 0.0981(2) 0.6069(5)
C24 C 0.3105(5) 0.0656(2) 0.6361(6)
H23 H 0.3430 0.0400 0.6464
C25 C 0.2028(5) 0.0711(2) 0.6498(6)
H24 H 0.1622 0.0493 0.6722
C26 C 0.4885(5) 0.09141(19) 0.5951(5)
O4 O 0.5254(3) 0.05596(12) 0.5947(3)
O5 O 0.5508(3) 0.12109(14) 0.5892(4)
Fe7 Fe 0.69786(6) 0.06952(2) 0.60443(5)
Fe11 Fe 0.5000 0.0000 0.5000
Fe3 Fe 0.21931(12) 0.7500 0.69427(15)
Cl1 Cl 0.3502(3) 0.7500 0.8504(6)
O1 O 0.3474(11) 0.7957(3) 0.6403(16)
C2 C 0.0698(10) 0.7500 0.8792(10)
H3 H 0.0225 0.7500 0.9361
H4 H 0.1463 0.7500 0.9113
N5 N 0.1132(6) 0.79391(19) 0.7358(7)
N6 N 0.0490(6) 0.78510(15) 0.8160(6)
C29 C 0.0747(7) 0.8280(2) 0.6935(8)
C30 C 0.1120(10) 0.8482(3) 0.6049(9)
H25 H 0.1780 0.8633 0.6282
H26 H 0.0555 0.8664 0.5740
H27 H 0.1278 0.8284 0.5526
H34 H 0.0335 0.9193 0.7723
N7 N 0.1132(6) 0.70609(19) 0.7358(7)
N8 N 0.0490(6) 0.71490(15) 0.8160(6)
C41 C 0.0747(7) 0.6720(2) 0.6935(8)
C42 C 0.1120(10) 0.6518(3) 0.6049(9)
H35 H 0.1780 0.6367 0.6282
H36 H 0.0555 0.6336 0.5740
H37 H 0.1278 0.6716 0.5526
H44 H 0.0335 0.5807 0.7723
O14 O 0.3474(11) 0.7043(3) 0.6403(16)
Fe11_2 Fe 0.5000 1.0000 0.5000
H10 H 0.7980 0.1605 0.0441
C8 C 0.6908(6) 0.0832(2) 0.0565(4)
C9 C 0.6785(13) 0.1111(4) 0.1281(7)
H11 H 0.6792 0.1384 0.1076
C10 C 0.6646(16) 0.1023(4) 0.2317(8)
H12 H 0.6552 0.1231 0.2801
C11 C 0.6646(5) 0.06257(19) 0.2630(4)
C12 C 0.6865(9) 0.0334(3) 0.1979(7)
H13 H 0.6907 0.0065 0.2217
C13 C 0.7033(9) 0.0423(3) 0.0940(7)
H14 H 0.7228 0.0218 0.0488
C14 C 0.6513(5) 0.05323(19) 0.3735(5)
O2 O 0.6950(4) 0.07557(18) 0.4431(3)
O3 O 0.6024(5) 0.02273(16) 0.3932(4)
C1 C 0.7915(5) 0.15021(16) 0.7326(4)
H1 H 0.7317 0.1567 0.6773
H2 H 0.8164 0.1754 0.7679
N1 N 0.6965(4) 0.08985(14) 0.7717(3)
N2 N 0.7515(4) 0.12308(13) 0.8087(3)
C3 C 0.7580(5) 0.1256(2) 0.9125(4)
C4 C 0.7039(6) 0.0934(2) 0.9468(4)
C5 C 0.6673(5) 0.07123(18) 0.8563(4)
C6 C 0.6067(7) 0.0328(2) 0.8467(5)
H5 H 0.5561 0.0330 0.7823
H6 H 0.5660 0.0295 0.9070
H7 H 0.6581 0.0107 0.8444
C7 C 0.8162(9) 0.1603(3) 0.9720(6)
H8 H 0.7933 0.1855 0.9377
H9 H 0.8949 0.1571 0.9725
N3 N 0.8581(4) 0.10005(14) 0.6237(3)
N4 N 0.8808(3) 0.13215(14) 0.6853(3)
C15 C 0.9869(5) 0.14015(19) 0.6991(5)
C17 C 0.9518(5) 0.08719(19) 0.5977(5)
H17 H 0.9945 0.1992 0.7408
C19 C 0.9601(6) 0.0521(2) 0.5284(6)
H18 H 0.9689 0.0278 0.5708
H20 H 0.8939 0.0501 0.4791
O7 O 0.7650(4) 0.01371(13) 0.6463(3)
O20 O 0.3709(4) 0.02599(15) 0.4043(4)
C27 C 0.9745(7) 0.8137(2) 0.8226(6)
C28 C 0.9878(7) 0.8417(2) 0.7492(6)
C31 C 0.8917(8) 0.8126(2) 0.9006(8)
H28 H 0.8534 0.8382 0.8995
H29 H 0.9289 0.8077 0.9709
H30 H 0.8394 0.7911 0.8817
C32 C 0.9208(7) 0.8773(2) 0.7242(6)
C33 C 0.8090(9) 0.8734(3) 0.6881(9)
H31 H 0.7757 0.8478 0.6828
C34 C 0.7475(8) 0.9081(2) 0.6601(8)
H32 H 0.6731 0.9057 0.6335
C35 C 0.7929(6) 0.94467(19) 0.6707(5)
C36 C 0.8962(7) 0.9488(2) 0.7136(6)
H33 H 0.9257 0.9748 0.7254
C37 C 0.9608(8) 0.9156(2) 0.7413(7)
C38 C 0.7249(5) 0.98022(18) 0.6335(4)
O6 O 0.6291(4) 0.97401(15) 0.5957(4)
C39 C 0.9745(7) 0.6863(2) 0.8226(6)
C40 C 0.9878(7) 0.6583(2) 0.7492(6)
C43 C 0.8917(8) 0.6874(2) 0.9006(8)
H38 H 0.8534 0.6618 0.8995
H39 H 0.9289 0.6923 0.9709
H40 H 0.8394 0.7089 0.8817
C44 C 0.9208(7) 0.6227(2) 0.7242(6)
C45 C 0.8090(9) 0.6266(3) 0.6881(9)
H41 H 0.7757 0.6522 0.6828
C46 C 0.7475(8) 0.5919(2) 0.6601(8)
H42 H 0.6731 0.5943 0.6335
C47 C 0.7929(6) 0.55533(19) 0.6707(5)
C48 C 0.8962(7) 0.5512(2) 0.7136(6)
H43 H 0.9257 0.5252 0.7254
C49 C 0.9608(8) 0.5844(2) 0.7413(7)
C50 C 0.7249(5) 0.51978(18) 0.6335(4)
O8 O 0.6291(4) 0.52599(15) 0.5957(4)
O9 O 0.7650(4) 0.48629(13) 0.6463(3)
Fe8 Fe 0.69786(6) 0.43048(2) 0.60443(5)
Fe12 Fe 0.5000 0.5000 0.5000
O16 O 0.3976(5) 0.97727(16) 0.6068(4)
O19 O 0.4746(3) 0.94404(12) 0.4053(3)
Fe4 Fe 0.30214(6) 0.56952(2) 0.39557(5)
C51 C 0.2085(5) 0.65021(16) 0.2674(4)
H45 H 0.2683 0.6567 0.3227
H46 H 0.1836 0.6754 0.2321
N9 N 0.3035(4) 0.58985(14) 0.2283(3)
N10 N 0.2485(4) 0.62308(13) 0.1913(3)
C52 C 0.2420(5) 0.6256(2) 0.0875(4)
C53 C 0.2961(6) 0.5934(2) 0.0532(4)
C54 C 0.3327(5) 0.57123(18) 0.1437(4)
C55 C 0.3933(7) 0.5328(2) 0.1533(5)
H47 H 0.4439 0.5330 0.2177
H48 H 0.4340 0.5295 0.0930
H49 H 0.3419 0.5107 0.1556
C56 C 0.1838(9) 0.6603(3) 0.0280(6)
H50 H 0.2067 0.6855 0.0623
H51 H 0.1051 0.6571 0.0275
N11 N 0.1419(4) 0.60005(14) 0.3763(3)
N12 N 0.1192(3) 0.63215(14) 0.3147(3)
C64 C 0.0131(5) 0.64015(19) 0.3009(5)
C66 C 0.0482(5) 0.58719(19) 0.4023(5)
H59 H 0.0055 0.6992 0.2592
C68 C 0.0399(6) 0.5521(2) 0.4716(6)
H60 H 0.0311 0.5278 0.4292
H62 H 0.1061 0.5501 0.5209
O15 O 0.3050(4) 0.57557(18) 0.5569(3)
O17 O 0.4746(3) 0.55596(12) 0.4053(3)
O21 O 0.2350(4) 0.51371(13) 0.3537(3)
C27_2 C 0.0255(7) 0.3137(2) 0.1774(6)
C28_2 C 0.0122(7) 0.3417(2) 0.2508(6)
C31_2 C 0.1083(8) 0.3126(2) 0.0994(8)
H28_2 H 0.1466 0.3382 0.1005
H29_2 H 0.0711 0.3077 0.0291
H30_2 H 0.1606 0.2911 0.1183
C32_2 C 0.0792(7) 0.3773(2) 0.2758(6)
C33_2 C 0.1910(9) 0.3734(3) 0.3119(9)
H31_2 H 0.2243 0.3478 0.3172
C34_2 C 0.2525(8) 0.4081(2) 0.3399(8)
H32_2 H 0.3269 0.4057 0.3665
C35_2 C 0.2071(6) 0.44467(19) 0.3293(5)
C36_2 C 0.1038(7) 0.4488(2) 0.2864(6)
H33_2 H 0.0743 0.4748 0.2746
C37_2 C 0.0392(8) 0.4156(2) 0.2587(7)
C38_2 C 0.2751(5) 0.48022(18) 0.3665(4)
O6_2 O 0.3709(4) 0.47401(15) 0.4043(4)
C39_2 C 0.0255(7) 0.1863(2) 0.1774(6)
C40_2 C 0.0122(7) 0.1583(2) 0.2508(6)
C43_2 C 0.1083(8) 0.1874(2) 0.0994(8)
H38_2 H 0.1466 0.1618 0.1005
H39_2 H 0.0711 0.1923 0.0291
H40_2 H 0.1606 0.2089 0.1183
C44_2 C 0.0792(7) 0.1227(2) 0.2758(6)
C45_2 C 0.1910(9) 0.1266(3) 0.3119(9)
H41_2 H 0.2243 0.1522 0.3172
C46_2 C 0.2525(8) 0.0919(2) 0.3399(8)
H42_2 H 0.3269 0.0943 0.3665
C47_2 C 0.2071(6) 0.05533(19) 0.3293(5)
C48_2 C 0.1038(7) 0.0512(2) 0.2864(6)
H43_2 H 0.0743 0.0252 0.2746
C49_2 C 0.0392(8) 0.0844(2) 0.2587(7)
C50_2 C 0.2751(5) 0.01978(18) 0.3665(4)
H52 H 0.2020 0.6605 0.9559
C57 C 0.3092(6) 0.5832(2) 0.9435(4)
C58 C 0.3215(13) 0.6111(4) 0.8719(7)
H53 H 0.3208 0.6384 0.8924
C59 C 0.3354(16) 0.6023(4) 0.7683(8)
H54 H 0.3448 0.6231 0.7199
C60 C 0.3354(5) 0.56257(19) 0.7370(4)
C61 C 0.3135(9) 0.5334(3) 0.8021(7)
H55 H 0.3093 0.5065 0.7783
C62 C 0.2967(9) 0.5423(3) 0.9060(7)
H56 H 0.2772 0.5218 0.9512
C63 C 0.3487(5) 0.55323(19) 0.6265(5)
O11 O 0.3976(5) 0.52273(16) 0.6068(4)
O16_2 O 0.6024(5) 0.47727(16) 0.3932(4)
O19_2 O 0.5254(3) 0.44404(12) 0.5947(3)
O9_2 O 0.2350(4) 0.98629(13) 0.3537(3)
Fe8_2 Fe 0.30214(6) 0.93048(2) 0.39557(5)
C65 C 0.9629(5) 0.6120(2) 0.3570(5)
C67 C 0.9650(6) 0.6749(2) 0.2378(7)
H57 H 0.8888 0.6782 0.2498
H58 H 0.9691 0.6699 0.1634
H61 H 0.9770 0.5554 0.5105
C69 C 0.8477(5) 0.6080(2) 0.3686(6)
C70 C 0.7878(5) 0.6396(2) 0.3983(6)
H63 H 0.8209 0.6650 0.4116
C71 C 0.6768(5) 0.6343(2) 0.4090(7)
H64 H 0.6352 0.6564 0.4278
C72 C 0.6282(5) 0.5981(2) 0.3931(5)
C73 C 0.6895(5) 0.5656(2) 0.3639(6)
H65 H 0.6570 0.5400 0.3536
C74 C 0.7972(5) 0.5711(2) 0.3502(6)
H66 H 0.8378 0.5493 0.3278
C75 C 0.5115(5) 0.59141(19) 0.4049(5)
O13 O 0.4492(3) 0.62109(14) 0.4108(4)
Fe3_2 Fe 0.78069(12) 0.2500 0.30573(15)
Cl1_2 Cl 0.6498(3) 0.2500 0.1496(6)
O1_2 O 0.6526(11) 0.2957(3) 0.3597(16)
C2_2 C 0.9302(10) 0.2500 0.1208(10)
H3_2 H 0.9775 0.2500 0.0639
H4_2 H 0.8537 0.2500 0.0887
N5_2 N 0.8868(6) 0.29391(19) 0.2642(7)
N6_2 N 0.9510(6) 0.28510(15) 0.1840(6)
C29_2 C 0.9253(7) 0.3280(2) 0.3065(8)
C30_2 C 0.8880(10) 0.3482(3) 0.3951(9)
H25_2 H 0.8220 0.3633 0.3718
H26_2 H 0.9445 0.3664 0.4260
H27_2 H 0.8722 0.3284 0.4474
H34_2 H 0.9665 0.4193 0.2277
N7_2 N 0.8868(6) 0.20609(19) 0.2642(7)
N8_2 N 0.9510(6) 0.21490(15) 0.1840(6)
C41_2 C 0.9253(7) 0.1720(2) 0.3065(8)
C42_2 C 0.8880(10) 0.1518(3) 0.3951(9)
H35_2 H 0.8220 0.1367 0.3718
H36_2 H 0.9445 0.1336 0.4260
H37_2 H 0.8722 0.1716 0.4474
H44_2 H 0.9665 0.0807 0.2277
O14_2 O 0.6526(11) 0.2043(3) 0.3597(16)
C51_2 C 0.2085(5) 0.84979(16) 0.2674(4)
H45_2 H 0.2683 0.8433 0.3227
H46_2 H 0.1836 0.8246 0.2321
N9_2 N 0.3035(4) 0.91015(14) 0.2283(3)
N10_2 N 0.2485(4) 0.87692(13) 0.1913(3)
C52_2 C 0.2420(5) 0.8744(2) 0.0875(4)
C53_2 C 0.2961(6) 0.9066(2) 0.0532(4)
C54_2 C 0.3327(5) 0.92877(18) 0.1437(4)
C55_2 C 0.3933(7) 0.9672(2) 0.1533(5)
H47_2 H 0.4439 0.9670 0.2177
H48_2 H 0.4340 0.9705 0.0930
H49_2 H 0.3419 0.9893 0.1556
C56_2 C 0.1838(9) 0.8397(3) 0.0280(6)
H50_2 H 0.2067 0.8145 0.0623
H51_2 H 0.1051 0.8429 0.0275
N11_2 N 0.1419(4) 0.89995(14) 0.3763(3)
N12_2 N 0.1192(3) 0.86785(14) 0.3147(3)
C64_2 C 0.0131(5) 0.85985(19) 0.3009(5)
C66_2 C 0.0482(5) 0.91281(19) 0.4023(5)
H59_2 H 0.0055 0.8008 0.2592
C68_2 C 0.0399(6) 0.9479(2) 0.4716(6)
H60_2 H 0.0311 0.9722 0.4292
H62_2 H 0.1061 0.9499 0.5209
O15_2 O 0.3050(4) 0.92443(18) 0.5569(3)
H52_2 H 0.2020 0.8395 0.9559
C57_2 C 0.3092(6) 0.9168(2) 0.9435(4)
C58_2 C 0.3215(13) 0.8889(4) 0.8719(7)
H53_2 H 0.3208 0.8616 0.8924
C59_2 C 0.3354(16) 0.8977(4) 0.7683(8)
H54_2 H 0.3448 0.8769 0.7199
C60_2 C 0.3354(5) 0.93743(19) 0.7370(4)
C61_2 C 0.3135(9) 0.9666(3) 0.8021(7)
H55_2 H 0.3093 0.9935 0.7783
C62_2 C 0.2967(9) 0.9577(3) 0.9060(7)
H56_2 H 0.2772 0.9782 0.9512
C63_2 C 0.3487(5) 0.94677(19) 0.6265(5)
C65_2 C 0.9629(5) 0.8880(2) 0.3570(5)
C67_2 C 0.9650(6) 0.8251(2) 0.2378(7)
H57_2 H 0.8888 0.8218 0.2498
H58_2 H 0.9691 0.8301 0.1634
H61_2 H 0.9770 0.9446 0.5105
C69_2 C 0.8477(5) 0.8920(2) 0.3686(6)
C70_2 C 0.7878(5) 0.8604(2) 0.3983(6)
H63_2 H 0.8209 0.8350 0.4116
C71_2 C 0.6768(5) 0.8657(2) 0.4090(7)
H64_2 H 0.6352 0.8436 0.4278
C72_2 C 0.6282(5) 0.9019(2) 0.3931(5)
C73_2 C 0.6895(5) 0.9344(2) 0.3639(6)
H65_2 H 0.6570 0.9600 0.3536
C74_2 C 0.7972(5) 0.9289(2) 0.3502(6)
H66_2 H 0.8378 0.9507 0.3278
C75_2 C 0.5115(5) 0.90859(19) 0.4049(5)
O13_2 O 0.4492(3) 0.87891(14) 0.4108(4)
C16_2 C 0.0371(5) 0.3880(2) 0.6430(5)
C18_2 C 0.0350(6) 0.3251(2) 0.7622(7)
H15_2 H 0.1112 0.3218 0.7502
H16_2 H 0.0309 0.3301 0.8366
H19_2 H 0.0230 0.4446 0.4895
C20_2 C 0.1523(5) 0.3920(2) 0.6314(6)
C21_2 C 0.2122(5) 0.3604(2) 0.6017(6)
H21_2 H 0.1791 0.3350 0.5884
C22_2 C 0.3232(5) 0.3657(2) 0.5910(7)
H22_2 H 0.3648 0.3436 0.5722
C23_2 C 0.3718(5) 0.4019(2) 0.6069(5)
C24_2 C 0.3105(5) 0.4344(2) 0.6361(6)
H23_2 H 0.3430 0.4600 0.6464
C25_2 C 0.2028(5) 0.4289(2) 0.6498(6)
H24_2 H 0.1622 0.4507 0.6722
C26_2 C 0.4885(5) 0.40859(19) 0.5951(5)
O5_2 O 0.5508(3) 0.37891(14) 0.5892(4)
H10_2 H 0.7980 0.3395 0.0441
C8_2 C 0.6908(6) 0.4168(2) 0.0565(4)
C9_2 C 0.6785(13) 0.3889(4) 0.1281(7)
H11_2 H 0.6792 0.3616 0.1076
C10_2 C 0.6646(16) 0.3977(4) 0.2317(8)
H12_2 H 0.6552 0.3769 0.2801
C11_2 C 0.6646(5) 0.43743(19) 0.2630(4)
C12_2 C 0.6865(9) 0.4666(3) 0.1979(7)
H13_2 H 0.6907 0.4935 0.2217
C13_2 C 0.7033(9) 0.4577(3) 0.0940(7)
H14_2 H 0.7228 0.4782 0.0488
C14_2 C 0.6513(5) 0.44677(19) 0.3735(5)
O2_2 O 0.6950(4) 0.42443(18) 0.4431(3)
C1_2 C 0.7915(5) 0.34979(16) 0.7326(4)
H1_2 H 0.7317 0.3433 0.6773
H2_2 H 0.8164 0.3246 0.7679
N1_2 N 0.6965(4) 0.41015(14) 0.7717(3)
N2_2 N 0.7515(4) 0.37692(13) 0.8087(3)
C3_2 C 0.7580(5) 0.3744(2) 0.9125(4)
C4_2 C 0.7039(6) 0.4066(2) 0.9468(4)
C5_2 C 0.6673(5) 0.42877(18) 0.8563(4)
C6_2 C 0.6067(7) 0.4672(2) 0.8467(5)
H5_2 H 0.5561 0.4670 0.7823
H6_2 H 0.5660 0.4705 0.9070
H7_2 H 0.6581 0.4893 0.8444
C7_2 C 0.8162(9) 0.3397(3) 0.9720(6)
H8_2 H 0.7933 0.3145 0.9377
H9_2 H 0.8949 0.3429 0.9725
N3_2 N 0.8581(4) 0.39995(14) 0.6237(3)
N4_2 N 0.8808(3) 0.36785(14) 0.6853(3)
C15_2 C 0.9869(5) 0.35985(19) 0.6991(5)
C17_2 C 0.9518(5) 0.41281(19) 0.5977(5)
H17_2 H 0.9945 0.3008 0.7408
C19_2 C 0.9601(6) 0.4479(2) 0.5284(6)
H18_2 H 0.9689 0.4722 0.5708
H20_2 H 0.8939 0.4499 0.4791
loop_
_geom_bond_atom_site_label_1
_geom_bond_atom_site_label_2
_geom_bond_site_symmetry_1
_geom_bond_site_symmetry_2
H15 C18 1_555 1_555
H16 C18 1_555 1_555
C20 C16 1_555 1_555
C21 C20 1_555 1_555
H21 C21 1_555 1_555
C22 C21 1_555 1_555
H22 C22 1_555 1_555
C23 C22 1_555 1_555
C24 C23 1_555 1_555
H23 C24 1_555 1_555
C25 C20 1_555 1_555
H24 C25 1_555 1_555
C26 C23 1_555 1_555
O4 C26 1_555 1_555
O5 C26 1_555 1_555
Fe7 O4 1_555 1_555
Fe11 O4 1_555 1_555
C24 C25 1_555 1_555
Fe3 Cl1 1_555 1_555
O1 Fe3 1_555 1_555
C2 H3 1_555 1_555
H4 C2 1_555 1_555
N5 Fe3 1_555 1_555
N6 C2 1_555 1_555
C29 N5 1_555 1_555
C30 C29 1_555 1_555
H25 C30 1_555 1_555
H26 C30 1_555 1_555
H27 C30 1_555 1_555
N7 Fe3 1_555 1_555
N8 C2 1_555 1_555
C41 N7 1_555 1_555
C42 C41 1_555 1_555
H35 C42 1_555 1_555
H36 C42 1_555 1_555
H37 C42 1_555 1_555
O14 Fe3 1_555 1_555
N5 N6 1_555 1_555
N7 N8 1_555 1_555
C9 C8 1_555 1_555
H11 C9 1_555 1_555
C10 C9 1_555 1_555
H12 C10 1_555 1_555
C11 C10 1_555 1_555
C12 C11 1_555 1_555
H13 C12 1_555 1_555
C13 C8 1_555 1_555
H14 C13 1_555 1_555
C14 C11 1_555 1_555
O2 C14 1_555 1_555
O3 C14 1_555 1_555
Fe7 O2 1_555 1_555
Fe11 O3 1_555 1_555
C12 C13 1_555 1_555
Fe7 N1 1_555 1_555
C1 H1 1_555 1_555
H2 C1 1_555 1_555
N1 N2 1_555 1_555
N2 C1 1_555 1_555
C3 N2 1_555 1_555
C4 C3 1_555 1_555
C5 N1 1_555 1_555
C6 C5 1_555 1_555
H5 C6 1_555 1_555
H6 C6 1_555 1_555
H7 C6 1_555 1_555
C7 C3 1_555 1_555
H8 C7 1_555 1_555
H9 C7 1_555 1_555
N3 Fe7 1_555 1_555
N4 C1 1_555 1_555
C15 N4 1_555 1_555
C17 N3 1_555 1_555
C19 C17 1_555 1_555
H18 C19 1_555 1_555
H20 C19 1_555 1_555
O7 Fe7 1_555 1_555
O20 Fe11 1_555 1_555
C4 C5 1_555 1_555
N3 N4 1_555 1_555
Fe11_2 O6 1_555 1_555
C28 C27 1_555 1_555
C31 C27 1_555 1_555
H28 C31 1_555 1_555
H29 C31 1_555 1_555
H30 C31 1_555 1_555
C32 C28 1_555 1_555
C33 C32 1_555 1_555
H31 C33 1_555 1_555
C34 C33 1_555 1_555
H32 C34 1_555 1_555
C35 C34 1_555 1_555
C36 C35 1_555 1_555
H33 C36 1_555 1_555
C37 C32 1_555 1_555
C38 C35 1_555 1_555
O6 C38 1_555 1_555
C40 C39 1_555 1_555
C43 C39 1_555 1_555
H38 C43 1_555 1_555
H39 C43 1_555 1_555
H40 C43 1_555 1_555
C44 C40 1_555 1_555
C45 C44 1_555 1_555
H41 C45 1_555 1_555
C46 C45 1_555 1_555
H42 C46 1_555 1_555
C47 C46 1_555 1_555
C48 C47 1_555 1_555
H43 C48 1_555 1_555
C49 C44 1_555 1_555
C50 C47 1_555 1_555
O8 C50 1_555 1_555
O9 C50 1_555 1_555
Fe8 O9 1_555 1_555
Fe12 O8 1_555 1_555
O16 Fe11_2 1_555 1_555
O19 Fe11_2 1_555 1_555
C36 C37 1_555 1_555
C48 C49 1_555 1_555
Fe4 N9 1_555 1_555
C51 H45 1_555 1_555
H46 C51 1_555 1_555
N9 N10 1_555 1_555
N10 C51 1_555 1_555
C52 N10 1_555 1_555
C53 C52 1_555 1_555
C54 N9 1_555 1_555
C55 C54 1_555 1_555
H47 C55 1_555 1_555
H48 C55 1_555 1_555
H49 C55 1_555 1_555
C56 C52 1_555 1_555
H50 C56 1_555 1_555
H51 C56 1_555 1_555
N11 Fe4 1_555 1_555
N12 C51 1_555 1_555
C64 N12 1_555 1_555
C66 N11 1_555 1_555
C68 C66 1_555 1_555
H60 C68 1_555 1_555
H62 C68 1_555 1_555
O15 Fe4 1_555 1_555
O17 Fe4 1_555 1_555
O21 Fe4 1_555 1_555
C53 C54 1_555 1_555
N11 N12 1_555 1_555
Fe12 O6_2 1_555 1_555
C28_2 C27_2 1_555 1_555
C31_2 C27_2 1_555 1_555
H28_2 C31_2 1_555 1_555
H29_2 C31_2 1_555 1_555
H30_2 C31_2 1_555 1_555
C32_2 C28_2 1_555 1_555
C33_2 C32_2 1_555 1_555
H31_2 C33_2 1_555 1_555
C34_2 C33_2 1_555 1_555
H32_2 C34_2 1_555 1_555
C35_2 C34_2 1_555 1_555
C36_2 C35_2 1_555 1_555
H33_2 C36_2 1_555 1_555
C37_2 C32_2 1_555 1_555
C38_2 C35_2 1_555 1_555
O6_2 C38_2 1_555 1_555
C40_2 C39_2 1_555 1_555
C43_2 C39_2 1_555 1_555
H38_2 C43_2 1_555 1_555
H39_2 C43_2 1_555 1_555
H40_2 C43_2 1_555 1_555
C44_2 C40_2 1_555 1_555
C45_2 C44_2 1_555 1_555
H41_2 C45_2 1_555 1_555
C46_2 C45_2 1_555 1_555
H42_2 C46_2 1_555 1_555
C47_2 C46_2 1_555 1_555
C48_2 C47_2 1_555 1_555
H43_2 C48_2 1_555 1_555
C49_2 C44_2 1_555 1_555
C50_2 C47_2 1_555 1_555
O20 C50_2 1_555 1_555
C58 C57 1_555 1_555
H53 C58 1_555 1_555
C59 C58 1_555 1_555
H54 C59 1_555 1_555
C60 C59 1_555 1_555
C61 C60 1_555 1_555
H55 C61 1_555 1_555
C62 C57 1_555 1_555
H56 C62 1_555 1_555
C63 C60 1_555 1_555
O11 Fe12 1_555 1_555
O16_2 Fe12 1_555 1_555
O19_2 Fe12 1_555 1_555
Fe12 O17 1_555 1_555
C36_2 C37_2 1_555 1_555
C38_2 O21 1_555 1_555
C48_2 C49_2 1_555 1_555
C61 C62 1_555 1_555
C63 O15 1_555 1_555
C63 O11 1_555 1_555
Fe8_2 O9_2 1_555 1_555
H57 C67 1_555 1_555
H58 C67 1_555 1_555
C69 C65 1_555 1_555
C70 C69 1_555 1_555
H63 C70 1_555 1_555
C71 C70 1_555 1_555
H64 C71 1_555 1_555
C72 C71 1_555 1_555
C73 C72 1_555 1_555
H65 C73 1_555 1_555
C74 C69 1_555 1_555
H66 C74 1_555 1_555
C75 C72 1_555 1_555
O17 C75 1_555 1_555
O13 C75 1_555 1_555
C73 C74 1_555 1_555
Fe3_2 Cl1_2 1_555 1_555
O1_2 Fe3_2 1_555 1_555
C2_2 H3_2 1_555 1_555
H4_2 C2_2 1_555 1_555
N5_2 Fe3_2 1_555 1_555
N6_2 C2_2 1_555 1_555
C29_2 N5_2 1_555 1_555
C30_2 C29_2 1_555 1_555
H25_2 C30_2 1_555 1_555
H26_2 C30_2 1_555 1_555
H27_2 C30_2 1_555 1_555
N7_2 Fe3_2 1_555 1_555
N8_2 C2_2 1_555 1_555
C41_2 N7_2 1_555 1_555
C42_2 C41_2 1_555 1_555
H35_2 C42_2 1_555 1_555
H36_2 C42_2 1_555 1_555
H37_2 C42_2 1_555 1_555
O14_2 Fe3_2 1_555 1_555
N5_2 N6_2 1_555 1_555
N7_2 N8_2 1_555 1_555
Fe8_2 N9_2 1_555 1_555
C51_2 H45_2 1_555 1_555
H46_2 C51_2 1_555 1_555
N9_2 N10_2 1_555 1_555
N10_2 C51_2 1_555 1_555
C52_2 N10_2 1_555 1_555
C53_2 C52_2 1_555 1_555
C54_2 N9_2 1_555 1_555
C55_2 C54_2 1_555 1_555
H47_2 C55_2 1_555 1_555
H48_2 C55_2 1_555 1_555
H49_2 C55_2 1_555 1_555
C56_2 C52_2 1_555 1_555
H50_2 C56_2 1_555 1_555
H51_2 C56_2 1_555 1_555
N11_2 Fe8_2 1_555 1_555
N12_2 C51_2 1_555 1_555
C64_2 N12_2 1_555 1_555
C66_2 N11_2 1_555 1_555
C68_2 C66_2 1_555 1_555
H60_2 C68_2 1_555 1_555
H62_2 C68_2 1_555 1_555
O15_2 Fe8_2 1_555 1_555
O19 Fe8_2 1_555 1_555
C53_2 C54_2 1_555 1_555
N11_2 N12_2 1_555 1_555
C58_2 C57_2 1_555 1_555
H53_2 C58_2 1_555 1_555
C59_2 C58_2 1_555 1_555
H54_2 C59_2 1_555 1_555
C60_2 C59_2 1_555 1_555
C61_2 C60_2 1_555 1_555
H55_2 C61_2 1_555 1_555
C62_2 C57_2 1_555 1_555
H56_2 C62_2 1_555 1_555
C63_2 C60_2 1_555 1_555
C61_2 C62_2 1_555 1_555
C63_2 O15_2 1_555 1_555
C63_2 O16 1_555 1_555
H57_2 C67_2 1_555 1_555
H58_2 C67_2 1_555 1_555
C69_2 C65_2 1_555 1_555
C70_2 C69_2 1_555 1_555
H63_2 C70_2 1_555 1_555
C71_2 C70_2 1_555 1_555
H64_2 C71_2 1_555 1_555
C72_2 C71_2 1_555 1_555
C73_2 C72_2 1_555 1_555
H65_2 C73_2 1_555 1_555
C74_2 C69_2 1_555 1_555
H66_2 C74_2 1_555 1_555
C75_2 C72_2 1_555 1_555
O19 C75_2 1_555 1_555
O13_2 C75_2 1_555 1_555
C73_2 C74_2 1_555 1_555
H15_2 C18_2 1_555 1_555
H16_2 C18_2 1_555 1_555
C20_2 C16_2 1_555 1_555
C21_2 C20_2 1_555 1_555
H21_2 C21_2 1_555 1_555
C22_2 C21_2 1_555 1_555
H22_2 C22_2 1_555 1_555
C23_2 C22_2 1_555 1_555
C24_2 C23_2 1_555 1_555
H23_2 C24_2 1_555 1_555
C25_2 C20_2 1_555 1_555
H24_2 C25_2 1_555 1_555
C26_2 C23_2 1_555 1_555
O19_2 C26_2 1_555 1_555
O5_2 C26_2 1_555 1_555
Fe8 O19_2 1_555 1_555
C24_2 C25_2 1_555 1_555
C9_2 C8_2 1_555 1_555
H11_2 C9_2 1_555 1_555
C10_2 C9_2 1_555 1_555
H12_2 C10_2 1_555 1_555
C11_2 C10_2 1_555 1_555
C12_2 C11_2 1_555 1_555
H13_2 C12_2 1_555 1_555
C13_2 C8_2 1_555 1_555
H14_2 C13_2 1_555 1_555
C14_2 C11_2 1_555 1_555
O2_2 C14_2 1_555 1_555
O16_2 C14_2 1_555 1_555
Fe8 O2_2 1_555 1_555
C12_2 C13_2 1_555 1_555
Fe8 N1_2 1_555 1_555
C1_2 H1_2 1_555 1_555
H2_2 C1_2 1_555 1_555
N1_2 N2_2 1_555 1_555
N2_2 C1_2 1_555 1_555
C3_2 N2_2 1_555 1_555
C4_2 C3_2 1_555 1_555
C5_2 N1_2 1_555 1_555
C6_2 C5_2 1_555 1_555
H5_2 C6_2 1_555 1_555
H6_2 C6_2 1_555 1_555
H7_2 C6_2 1_555 1_555
C7_2 C3_2 1_555 1_555
H8_2 C7_2 1_555 1_555
H9_2 C7_2 1_555 1_555
N3_2 Fe8 1_555 1_555
N4_2 C1_2 1_555 1_555
C15_2 N4_2 1_555 1_555
C17_2 N3_2 1_555 1_555
C19_2 C17_2 1_555 1_555
H18_2 C19_2 1_555 1_555
H20_2 C19_2 1_555 1_555
C4_2 C5_2 1_555 1_555
N3_2 N4_2 1_555 1_555

#END
