
###############################################################################
#
# This file contains modified crystal structure data generated from the
# MOF subset of the Cambridge Structural Database (CSD) v543 
# hosted by the Cambridge Crystallographic Data Centre (CCDC).
#
# This work is licensed under the Creative Commons
# Attribution-NonCommercial-ShareAlike 4.0 International License.
# To view a copy of this license, visit
# http://creativecommons.org/licenses/by-nc-sa/4.0/
# or send a letter to
# Creative Commons, PO Box 1866, Mountain View, CA 94042, USA.
#
# CIF created using the CSD Python API on 29 September 2022
# The structure has been converted into the P1 space group
# The structure has a 3D framework
# The original CSD entry WAJHUM is in the tetragonal crystal system
# The original CSD entry WAJHUM is in a Sohncke space group
# The framework has been calculated to contain at least 10.0% void space
# The void calculation uses a probe of radius 1.32A, grid spacing 0.4
#
###############################################################################

data_WAJHUM
_chemical_formula_moiety         '(C72 H24 Li3 O37 Zn4)n'
_symmetry_cell_setting           triclinic
_symmetry_space_group_name_H-M   'P 1'
_symmetry_Int_Tables_number      1
_space_group_name_Hall           'P 1'
loop_
_symmetry_equiv_pos_site_id
_symmetry_equiv_pos_as_xyz
1 x,y,z
_cell_length_a                   16.3463(10)
_cell_length_b                   16.3463(10)
_cell_length_c                   11.2519(13)
_cell_angle_alpha                90
_cell_angle_beta                 90
_cell_angle_gamma                90
_cell_volume                     3006.52
loop_
_atom_site_label
_atom_site_type_symbol
_atom_site_fract_x
_atom_site_fract_y
_atom_site_fract_z
Li1 Li 0.1744(4) 0.5965(4) 0.8741(5)
Zn1 Zn 0.08343(2) 0.67284(3) 0.08938(4)
O1 O 0.00294(15) 0.68118(15) 0.2274(2)
O3 O 0.25047(16) 0.82921(17) 0.4058(3)
O4 O 0.31589(19) 0.77127(18) 0.5571(3)
O5 O 0.19332(17) 0.51569(16) 0.7404(2)
O6 O 0.1240(2) 0.43860(17) 0.6153(3)
C1 C 0.0024(2) 0.6449(2) 0.3266(3)
C2 C 0.2614(2) 0.7722(2) 0.4824(4)
C3 C 0.1562(2) 0.5041(2) 0.6424(3)
C4 C 0.0777(2) 0.6419(2) 0.4011(3)
C5 C 0.1357(2) 0.7040(2) 0.3987(3)
H1 H 0.1312 0.7460 0.3434
C6 C 0.2005(2) 0.7034(2) 0.4791(4)
C7 C 0.2077(2) 0.6389(2) 0.5596(3)
H2 H 0.2504 0.6385 0.6143
C8 C 0.1511(2) 0.5753(2) 0.5582(3)
C9 C 0.0862(2) 0.5773(2) 0.4795(3)
H3 H 0.0481 0.5351 0.4794
Li3 Li 0.4035(4) 0.8256(4) 0.6259(5)
Li4 Li 0.0965(4) 0.3256(4) 0.6241(5)
Zn3 Zn 0.32716(3) 0.91657(2) 0.41062(4)
Zn4 Zn 0.17284(3) 0.41657(2) 0.83938(4)
O7 O 0.18118(15) 0.49706(15) 0.9774(2)
O8 O 0.11046(19) 0.55893(16) 0.1207(2)
O9 O 0.17079(17) 0.74953(16) 0.0942(3)
O10 O 0.22873(18) 0.68411(19) 0.9429(3)
O12 O 0.06140(17) 0.6240(2) 0.8653(3)
O2 O 0.94107(16) 0.61046(19) 0.3707(2)
Li2 Li 0.9035(4) 0.6744(4) 0.1241(5)
Zn2 Zn 0.82716(3) 0.58343(2) 0.33938(4)
O11 O 0.98431(16) 0.69332(17) 0.9904(2)
O2_2 O 0.05893(16) 0.38954(19) 0.8707(2)
O11_2 O 0.01569(16) 0.30668(17) 0.4904(2)
Li1_2 Li 0.8256(4) 0.4035(4) 0.3741(5)
O4_2 O 0.68411(19) 0.22873(18) 0.0571(3)
O5_2 O 0.80668(17) 0.48431(16) 0.2404(2)
O6_2 O 0.8760(2) 0.56140(17) 0.1153(3)
C3_2 C 0.8438(2) 0.4959(2) 0.1424(3)
C7_2 C 0.7923(2) 0.3611(2) 0.0596(3)
H2_2 H 0.7496 0.3615 0.1143
C8_2 C 0.8489(2) 0.4247(2) 0.0582(3)
Li3_2 Li 0.5965(4) 0.1744(4) 0.1259(5)
O7_2 O 0.81882(15) 0.50294(15) 0.4774(2)
O10_2 O 0.77127(18) 0.31589(19) 0.4429(3)
O12_2 O 0.93860(17) 0.3760(2) 0.3653(3)
Zn1_2 Zn 0.91657(2) 0.32716(3) 0.58938(4)
O1_2 O 0.99706(15) 0.31882(15) 0.7274(2)
O3_2 O 0.74953(16) 0.17079(17) 0.9058(3)
C1_2 C 0.9976(2) 0.3551(2) 0.8266(3)
C2_2 C 0.7386(2) 0.2278(2) 0.9824(4)
C4_2 C 0.9223(2) 0.3581(2) 0.9011(3)
C5_2 C 0.8643(2) 0.2960(2) 0.8987(3)
H1_2 H 0.8688 0.2540 0.8434
C6_2 C 0.7995(2) 0.2966(2) 0.9791(4)
C9_2 C 0.9138(2) 0.4227(2) 0.9795(3)
H3_2 H 0.9519 0.4649 0.9794
Zn3_2 Zn 0.67284(3) 0.08343(2) 0.91062(4)
O8_2 O 0.88954(19) 0.44107(16) 0.6207(2)
O9_2 O 0.82921(17) 0.25047(16) 0.5942(3)
O10_3 O 0.81589(19) 0.72873(18) 0.1929(3)
O3_3 O 0.67079(17) 0.75047(16) 0.6558(3)
O4_3 O 0.72873(18) 0.81589(19) 0.8071(3)
C1_3 C 0.8551(2) 0.5024(2) 0.5766(3)
C2_3 C 0.7278(2) 0.7614(2) 0.7324(4)
C3_3 C 0.9959(2) 0.6562(2) 0.8924(3)
C4_3 C 0.8581(2) 0.5777(2) 0.6511(3)
C5_3 C 0.7960(2) 0.6357(2) 0.6487(3)
H1_3 H 0.7540 0.6312 0.5934
C6_3 C 0.7966(2) 0.7005(2) 0.7291(4)
C7_3 C 0.8611(2) 0.7077(2) 0.8096(3)
H2_3 H 0.8615 0.7504 0.8643
C8_3 C 0.9247(2) 0.6511(2) 0.8082(3)
C9_3 C 0.9227(2) 0.5862(2) 0.7295(3)
H3_3 H 0.9649 0.5481 0.7294
Li3_3 Li 0.6744(4) 0.9035(4) 0.8759(5)
Zn3_3 Zn 0.58343(2) 0.82716(3) 0.66062(4)
O9_3 O 0.75047(16) 0.67079(17) 0.3442(3)
O3_4 O 0.32921(17) 0.24953(16) 0.1558(3)
O4_4 O 0.27127(18) 0.18411(19) 0.3071(3)
C1_4 C 0.1449(2) 0.4976(2) 0.0766(3)
C2_4 C 0.2722(2) 0.2386(2) 0.2324(4)
C3_4 C 0.0041(2) 0.3438(2) 0.3924(3)
C4_4 C 0.1419(2) 0.4223(2) 0.1511(3)
C5_4 C 0.2040(2) 0.3643(2) 0.1487(3)
H1_4 H 0.2460 0.3688 0.0934
C6_4 C 0.2034(2) 0.2995(2) 0.2291(4)
C7_4 C 0.1389(2) 0.2923(2) 0.3096(3)
H2_4 H 0.1385 0.2496 0.3643
C8_4 C 0.0753(2) 0.3489(2) 0.3082(3)
C9_4 C 0.0773(2) 0.4138(2) 0.2295(3)
H3_4 H 0.0351 0.4519 0.2294
Li3_4 Li 0.3256(4) 0.0965(4) 0.3759(5)
Zn3_4 Zn 0.41657(2) 0.17284(3) 0.16062(4)
O10_4 O 0.18411(19) 0.27127(18) 0.6929(3)
O9_4 O 0.24953(16) 0.32921(17) 0.8442(3)
O1_3 O 0.49706(15) 0.18118(15) 0.0226(2)
O8_3 O 0.38954(19) 0.05893(16) 0.1293(2)
O11_3 O 0.51569(16) 0.19332(17) 0.2596(2)
O2_3 O 0.55893(16) 0.11046(19) 0.8793(2)
O5_3 O 0.30668(17) 0.01569(16) 0.5096(2)
C1_5 C 0.4976(2) 0.1449(2) 0.9234(3)
C2_5 C 0.2386(2) 0.2722(2) 0.7676(4)
C3_5 C 0.3438(2) 0.0041(2) 0.6076(3)
C4_5 C 0.4223(2) 0.1419(2) 0.8489(3)
C5_5 C 0.3643(2) 0.2040(2) 0.8513(3)
H1_5 H 0.3688 0.2460 0.9066
C6_5 C 0.2995(2) 0.2034(2) 0.7709(4)
C7_5 C 0.2923(2) 0.1389(2) 0.6904(3)
H2_5 H 0.2496 0.1385 0.6357
C8_5 C 0.3489(2) 0.0753(2) 0.6918(3)
C9_5 C 0.4138(2) 0.0773(2) 0.7705(3)
H3_5 H 0.4519 0.0351 0.7706
O12_3 O 0.43860(17) 0.1240(2) 0.3847(3)
O6_3 O 0.3760(2) 0.93860(17) 0.6347(3)
O7_3 O 0.31882(15) 0.99706(15) 0.2726(2)
O6_4 O 0.6240(2) 0.06140(17) 0.1347(3)
O7_4 O 0.68118(15) 0.00294(15) 0.7726(2)
O1_4 O 0.50294(15) 0.81882(15) 0.5226(2)
O2_4 O 0.44107(16) 0.88954(19) 0.3793(2)
O5_4 O 0.69332(17) 0.98431(16) 0.0096(2)
C1_6 C 0.5024(2) 0.8551(2) 0.4234(3)
C2_6 C 0.7614(2) 0.7278(2) 0.2676(4)
C3_6 C 0.6562(2) 0.9959(2) 0.1076(3)
C4_6 C 0.5777(2) 0.8581(2) 0.3489(3)
C5_6 C 0.6357(2) 0.7960(2) 0.3513(3)
H1_6 H 0.6312 0.7540 0.4066
C6_6 C 0.7005(2) 0.7966(2) 0.2709(4)
C7_6 C 0.7077(2) 0.8611(2) 0.1904(3)
H2_6 H 0.7504 0.8615 0.1357
C8_6 C 0.6511(2) 0.9247(2) 0.1918(3)
C9_6 C 0.5862(2) 0.9227(2) 0.2705(3)
H3_6 H 0.5481 0.9649 0.2706
O8_4 O 0.61046(19) 0.94107(16) 0.6293(2)
O11_4 O 0.48431(16) 0.80668(17) 0.7596(2)
O12_4 O 0.56140(17) 0.8760(2) 0.8847(3)
C1_7 C 0.6449(2) 0.0024(2) 0.6734(3)
C2_7 C 0.7722(2) 0.2614(2) 0.5176(4)
C3_7 C 0.5041(2) 0.1562(2) 0.3576(3)
C4_7 C 0.6419(2) 0.0777(2) 0.5989(3)
C5_7 C 0.7040(2) 0.1357(2) 0.6013(3)
H1_7 H 0.7460 0.1312 0.6566
C6_7 C 0.7034(2) 0.2005(2) 0.5209(4)
C7_7 C 0.6389(2) 0.2077(2) 0.4404(3)
H2_7 H 0.6385 0.2504 0.3857
C8_7 C 0.5753(2) 0.1511(2) 0.4418(3)
C9_7 C 0.5773(2) 0.0862(2) 0.5205(3)
H3_7 H 0.5351 0.0481 0.5206
C1_8 C 0.3551(2) 0.9976(2) 0.1734(3)
C2_8 C 0.2278(2) 0.7386(2) 0.0176(4)
C4_8 C 0.3581(2) 0.9223(2) 0.0989(3)
C5_8 C 0.2960(2) 0.8643(2) 0.1013(3)
H1_8 H 0.2540 0.8688 0.1566
C6_8 C 0.2966(2) 0.7995(2) 0.0209(4)
C9_8 C 0.4227(2) 0.9138(2) 0.0205(3)
H3_8 H 0.4649 0.9519 0.0206
C3_8 C 0.4959(2) 0.8438(2) 0.8576(3)
C7_8 C 0.3611(2) 0.7923(2) 0.9404(3)
H2_8 H 0.3615 0.7496 0.8857
C8_8 C 0.4247(2) 0.8489(2) 0.9418(3)
loop_
_geom_bond_atom_site_label_1
_geom_bond_atom_site_label_2
_geom_bond_site_symmetry_1
_geom_bond_site_symmetry_2
Li1 O5 1_555 1_555
Zn1 O1 1_555 1_555
O1 C1 1_555 1_555
O3 C2 1_555 1_555
O4 C2 1_555 1_555
O5 C3 1_555 1_555
O6 C3 1_555 1_555
C1 C4 1_555 1_555
C2 C6 1_555 1_555
C3 C8 1_555 1_555
C4 C5 1_555 1_555
C5 H1 1_555 1_555
C6 C5 1_555 1_555
C7 C6 1_555 1_555
H2 C7 1_555 1_555
C8 C7 1_555 1_555
C9 C4 1_555 1_555
H3 C9 1_555 1_555
Li3 O4 1_555 1_555
Li4 O6 1_555 1_555
Zn3 O3 1_555 1_555
Zn4 O5 1_555 1_555
O7 Li1 1_555 1_555
O8 Zn1 1_555 1_555
O9 Zn1 1_555 1_555
O10 Li1 1_555 1_555
O12 Li1 1_555 1_555
C8 C9 1_555 1_555
Zn4 O7 1_555 1_555
Zn2 O2 1_555 1_555
Zn4 O2_2 1_555 1_555
Li4 O11_2 1_555 1_555
Li1_2 O5_2 1_555 1_555
O5_2 C3_2 1_555 1_555
O6_2 C3_2 1_555 1_555
C3_2 C8_2 1_555 1_555
H2_2 C7_2 1_555 1_555
C8_2 C7_2 1_555 1_555
Li3_2 O4_2 1_555 1_555
Li2 O6_2 1_555 1_555
Zn2 O5_2 1_555 1_555
O7_2 Li1_2 1_555 1_555
O10_2 Li1_2 1_555 1_555
O12_2 Li1_2 1_555 1_555
Zn2 O7_2 1_555 1_555
Zn1_2 O1_2 1_555 1_555
O1_2 C1_2 1_555 1_555
O3_2 C2_2 1_555 1_555
C1_2 C4_2 1_555 1_555
C2_2 C6_2 1_555 1_555
C4_2 C5_2 1_555 1_555
C5_2 H1_2 1_555 1_555
C6_2 C5_2 1_555 1_555
C9_2 C4_2 1_555 1_555
H3_2 C9_2 1_555 1_555
Zn3_2 O3_2 1_555 1_555
O8_2 Zn1_2 1_555 1_555
O9_2 Zn1_2 1_555 1_555
O10_3 Li2 1_555 1_555
O7_2 C1_3 1_555 1_555
O8_2 C1_3 1_555 1_555
O3_3 C2_3 1_555 1_555
O4_3 C2_3 1_555 1_555
O11 C3_3 1_555 1_555
C1_3 C4_3 1_555 1_555
C2_3 C6_3 1_555 1_555
C3_3 C8_3 1_555 1_555
C4_3 C5_3 1_555 1_555
C5_3 H1_3 1_555 1_555
C6_3 C5_3 1_555 1_555
C7_3 C6_3 1_555 1_555
H2_3 C7_3 1_555 1_555
C8_3 C7_3 1_555 1_555
C9_3 C4_3 1_555 1_555
H3_3 C9_3 1_555 1_555
Li3_3 O4_3 1_555 1_555
Zn3_3 O3_3 1_555 1_555
O9_3 Zn2 1_555 1_555
C8_3 C9_3 1_555 1_555
O8 C1_4 1_555 1_555
O3_4 C2_4 1_555 1_555
O4_4 C2_4 1_555 1_555
O11_2 C3_4 1_555 1_555
C1_4 C4_4 1_555 1_555
C2_4 C6_4 1_555 1_555
C3_4 C8_4 1_555 1_555
C4_4 C5_4 1_555 1_555
C5_4 H1_4 1_555 1_555
C6_4 C5_4 1_555 1_555
C7_4 C6_4 1_555 1_555
H2_4 C7_4 1_555 1_555
C8_4 C7_4 1_555 1_555
C9_4 C4_4 1_555 1_555
H3_4 C9_4 1_555 1_555
Li3_4 O4_4 1_555 1_555
Zn3_4 O3_4 1_555 1_555
O10_4 Li4 1_555 1_555
C8_4 C9_4 1_555 1_555
O9_4 Zn4 1_555 1_555
Zn3_4 O1_3 1_555 1_555
Li3_2 O1_3 1_555 1_555
O8_3 Zn3_4 1_555 1_555
O11_3 Zn3_4 1_555 1_555
Li3_2 O11_3 1_555 1_555
Li3_4 O5_3 1_555 1_555
O2_3 C1_5 1_555 1_555
O9_4 C2_5 1_555 1_555
O10_4 C2_5 1_555 1_555
O5_3 C3_5 1_555 1_555
C1_5 C4_5 1_555 1_555
C2_5 C6_5 1_555 1_555
C3_5 C8_5 1_555 1_555
C4_5 C5_5 1_555 1_555
C5_5 H1_5 1_555 1_555
C6_5 C5_5 1_555 1_555
C7_5 C6_5 1_555 1_555
H2_5 C7_5 1_555 1_555
C8_5 C7_5 1_555 1_555
C9_5 C4_5 1_555 1_555
H3_5 C9_5 1_555 1_555
Zn3_2 O2_3 1_555 1_555
O12_3 Li3_4 1_555 1_555
C8_5 C9_5 1_555 1_555
Li3 O6_3 1_555 1_555
Zn3 O7_3 1_555 1_555
Li3_2 O6_4 1_555 1_555
Zn3_2 O7_4 1_555 1_555
Zn3_3 O1_4 1_555 1_555
O1_4 C1_6 1_555 1_555
O2_4 C1_6 1_555 1_555
O9_3 C2_6 1_555 1_555
O10_3 C2_6 1_555 1_555
O5_4 C3_6 1_555 1_555
C1_6 C4_6 1_555 1_555
C2_6 C6_6 1_555 1_555
C3_6 C8_6 1_555 1_555
C4_6 C5_6 1_555 1_555
C5_6 H1_6 1_555 1_555
C6_6 C5_6 1_555 1_555
C7_6 C6_6 1_555 1_555
H2_6 C7_6 1_555 1_555
C8_6 C7_6 1_555 1_555
C9_6 C4_6 1_555 1_555
H3_6 C9_6 1_555 1_555
Li3 O1_4 1_555 1_555
Zn3 O2_4 1_555 1_555
O8_4 Zn3_3 1_555 1_555
O11_4 Zn3_3 1_555 1_555
C8_6 C9_6 1_555 1_555
Li3 O11_4 1_555 1_555
O12_4 Li3_3 1_555 1_555
O7_4 C1_7 1_555 1_555
O9_2 C2_7 1_555 1_555
O10_2 C2_7 1_555 1_555
O11_3 C3_7 1_555 1_555
O12_3 C3_7 1_555 1_555
C1_7 C4_7 1_555 1_555
C2_7 C6_7 1_555 1_555
C3_7 C8_7 1_555 1_555
C4_7 C5_7 1_555 1_555
C5_7 H1_7 1_555 1_555
C6_7 C5_7 1_555 1_555
C7_7 C6_7 1_555 1_555
H2_7 C7_7 1_555 1_555
C8_7 C7_7 1_555 1_555
C9_7 C4_7 1_555 1_555
H3_7 C9_7 1_555 1_555
C8_7 C9_7 1_555 1_555
O7_3 C1_8 1_555 1_555
O9 C2_8 1_555 1_555
C1_8 C4_8 1_555 1_555
C2_8 C6_8 1_555 1_555
C4_8 C5_8 1_555 1_555
C5_8 H1_8 1_555 1_555
C6_8 C5_8 1_555 1_555
C9_8 C4_8 1_555 1_555
H3_8 C9_8 1_555 1_555
O11_4 C3_8 1_555 1_555
O12_4 C3_8 1_555 1_555
C3_8 C8_8 1_555 1_555
H2_8 C7_8 1_555 1_555
C8_8 C7_8 1_555 1_555

#END
