
###############################################################################
#
# This file contains modified crystal structure data generated from the
# MOF subset of the Cambridge Structural Database (CSD) v543 
# hosted by the Cambridge Crystallographic Data Centre (CCDC).
#
# This work is licensed under the Creative Commons
# Attribution-NonCommercial-ShareAlike 4.0 International License.
# To view a copy of this license, visit
# http://creativecommons.org/licenses/by-nc-sa/4.0/
# or send a letter to
# Creative Commons, PO Box 1866, Mountain View, CA 94042, USA.
#
# CIF created using the CSD Python API on 29 September 2022
# The structure has been converted into the P1 space group
# The structure has a 3D framework
# The original CSD entry WAJHOG is in the tetragonal crystal system
# The original CSD entry WAJHOG is in a Sohncke space group
# The framework has been calculated to contain at least 10.0% void space
# The void calculation uses a probe of radius 1.32A, grid spacing 0.4
# H atom positions have been added when not included in the experimental data
#
###############################################################################

data_WAJHOG
_chemical_formula_moiety         '(C72 H40 Li6 O46 Zn6)n'
_symmetry_cell_setting           triclinic
_symmetry_space_group_name_H-M   'P 1'
_symmetry_Int_Tables_number      1
_space_group_name_Hall           'P 1'
loop_
_symmetry_equiv_pos_site_id
_symmetry_equiv_pos_as_xyz
1 x,y,z
_cell_length_a                   16.6332(9)
_cell_length_b                   16.6332(9)
_cell_length_c                   10.7833(11)
_cell_angle_alpha                90
_cell_angle_beta                 90
_cell_angle_gamma                90
_cell_volume                     2983.34
loop_
_atom_site_label
_atom_site_type_symbol
_atom_site_fract_x
_atom_site_fract_y
_atom_site_fract_z
O1 O 0.17430(19) 0.48898(19) 0.0002(3)
O2 O 0.1139(2) 0.5459(2) 0.1619(3)
O3 O 0.3454(2) 0.2500(2) 0.1401(3)
O4 O 0.2900(2) 0.1658(3) 0.2669(4)
O5 O 0.0515(2) 0.2482(3) 0.5141(3)
O7 O 0.3590(3) 0.5498(4) 0.0085(7)
C1 C 0.1448(3) 0.4864(3) 0.1080(4)
C2 C 0.2879(3) 0.2310(3) 0.2123(5)
C3 C 0.0440(3) 0.3100(3) 0.4495(4)
C4 C 0.1508(3) 0.4109(3) 0.1809(4)
C5 C 0.2130(3) 0.3562(3) 0.1604(4)
H1 H 0.2501 0.3659 0.0978
C6 C 0.2200(3) 0.2870(3) 0.2332(4)
C7 C 0.1642(3) 0.2738(3) 0.3249(4)
H2 H 0.1688 0.2279 0.3735
C8 C 0.1023(3) 0.3259(3) 0.3471(4)
C9 C 0.0959(3) 0.3961(3) 0.2763(4)
H3 H 0.0552 0.4329 0.2928
Li2 Li 0.2442(6) 0.0676(6) 0.3107(8)
Li3 Li 0.0676(6) 0.2442(6) 0.6893(8)
Zn2 Zn 0.08520(3) 0.65210(3) 0.10041(5)
Zn3 Zn 0.41480(3) 0.15210(3) 0.14959(5)
Li1 Li 0.2558(6) 0.5676(6) 0.9393(8)
Zn1 Zn 0.15210(3) 0.41480(3) 0.85041(5)
O8 O 0.0459(2) 0.3861(2) 0.9119(3)
O9 O 0.2500(2) 0.3454(2) 0.8599(3)
O10 O 0.2100(2) 0.6658(3) 0.9831(4)
O11 O 0.1658(3) 0.2900(2) 0.7331(4)
O12 O 0.2518(3) 0.5515(2) 0.7641(3)
O13 O 0.1369(2) 0.4883(2) 0.7140(3)
H4 H 0.377814 0.495023 0.986169
H5 H 0.397271 0.590298 0.97544
O6 O 0.9883(2) 0.3631(2) 0.4640(3)
Zn4 Zn 0.91480(3) 0.34790(3) 0.60041(5)
O6_2 O 0.0117(2) 0.6369(2) 0.9640(3)
O5_2 O 0.9485(2) 0.7518(3) 0.0141(3)
Li3_2 Li 0.9324(6) 0.7558(6) 0.1893(8)
Li1_2 Li 0.7442(6) 0.4324(6) 0.4393(8)
Zn1_2 Zn 0.84790(3) 0.58520(3) 0.35041(5)
O1_2 O 0.82570(19) 0.51102(19) 0.5002(3)
O2_2 O 0.8861(2) 0.4541(2) 0.6619(3)
O3_2 O 0.6546(2) 0.7500(2) 0.6401(3)
O4_2 O 0.7100(2) 0.8342(3) 0.7669(4)
O7_2 O 0.6410(3) 0.4502(4) 0.5085(7)
C1_2 C 0.8552(3) 0.5136(3) 0.6080(4)
C2_2 C 0.7121(3) 0.7690(3) 0.7123(5)
C3_2 C 0.9560(3) 0.6900(3) 0.9495(4)
C4_2 C 0.8492(3) 0.5891(3) 0.6809(4)
C5_2 C 0.7870(3) 0.6438(3) 0.6604(4)
H1_2 H 0.7499 0.6341 0.5978
C6_2 C 0.7800(3) 0.7130(3) 0.7332(4)
C7_2 C 0.8358(3) 0.7262(3) 0.8249(4)
H2_2 H 0.8312 0.7721 0.8735
C8_2 C 0.8977(3) 0.6741(3) 0.8471(4)
C9_2 C 0.9041(3) 0.6039(3) 0.7763(4)
H3_2 H 0.9448 0.5671 0.7928
Li2_2 Li 0.7558(6) 0.9324(6) 0.8107(8)
Zn3_2 Zn 0.58520(3) 0.84790(3) 0.64959(5)
O8_2 O 0.9541(2) 0.6139(2) 0.4119(3)
O9_2 O 0.7500(2) 0.6546(2) 0.3599(3)
O10_2 O 0.7900(2) 0.3342(3) 0.4831(4)
O11_2 O 0.8342(3) 0.7100(2) 0.2331(4)
O12_2 O 0.7482(3) 0.4485(2) 0.2641(3)
O13_2 O 0.8631(2) 0.5117(2) 0.2140(3)
H4_2 H 0.622186 0.504977 0.486169
H5_2 H 0.602729 0.409702 0.47544
O1_3 O 0.01102(19) 0.67430(19) 0.2502(3)
O3_3 O 0.2500(2) 0.8454(2) 0.3901(3)
O4_3 O 0.3342(3) 0.7900(2) 0.5169(4)
C1_3 C 0.0136(3) 0.6448(3) 0.3580(4)
C2_3 C 0.2690(3) 0.7879(3) 0.4623(5)
C3_3 C 0.1900(3) 0.5440(3) 0.6995(4)
C4_3 C 0.0891(3) 0.6508(3) 0.4309(4)
C5_3 C 0.1438(3) 0.7130(3) 0.4104(4)
H1_3 H 0.1341 0.7501 0.3478
C6_3 C 0.2130(3) 0.7200(3) 0.4832(4)
C7_3 C 0.2262(3) 0.6642(3) 0.5749(4)
H2_3 H 0.2721 0.6688 0.6235
C8_3 C 0.1741(3) 0.6023(3) 0.5971(4)
C9_3 C 0.1039(3) 0.5959(3) 0.5263(4)
H3_3 H 0.0671 0.5552 0.5428
Li2_3 Li 0.4324(6) 0.7442(6) 0.5607(8)
Zn3_3 Zn 0.34790(3) 0.91480(3) 0.39959(5)
O9_3 O 0.1546(2) 0.7500(2) 0.1099(3)
H4_3 H 0.00497703 0.877814 0.236169
O7_3 O 0.9502(4) 0.8590(3) 0.2585(7)
H5_3 H 0.909702 0.897271 0.22544
O7_4 O 0.0498(4) 0.1410(3) 0.7585(7)
H5_4 H 0.0902976 0.102729 0.72544
O4_4 O 0.6658(3) 0.2100(2) 0.0169(4)
C3_4 C 0.8100(3) 0.4560(3) 0.1995(4)
C7_4 C 0.7738(3) 0.3358(3) 0.0749(4)
H2_4 H 0.7279 0.3312 0.1235
C8_4 C 0.8259(3) 0.3977(3) 0.0971(4)
C9_4 C 0.8961(3) 0.4041(3) 0.0263(4)
H3_4 H 0.9329 0.4448 0.0428
Li2_4 Li 0.5676(6) 0.2558(6) 0.0607(8)
O1_4 O 0.98898(19) 0.32570(19) 0.7502(3)
O3_4 O 0.7500(2) 0.1546(2) 0.8901(3)
C1_4 C 0.9864(3) 0.3552(3) 0.8580(4)
C2_4 C 0.7310(3) 0.2121(3) 0.9623(5)
C4_4 C 0.9109(3) 0.3492(3) 0.9309(4)
C5_4 C 0.8562(3) 0.2870(3) 0.9104(4)
H1_4 H 0.8659 0.2499 0.8478
C6_4 C 0.7870(3) 0.2800(3) 0.9832(4)
Zn3_4 Zn 0.65210(3) 0.08520(3) 0.89959(5)
O9_4 O 0.8454(2) 0.2500(2) 0.6099(3)
H4_4 H 0.995023 0.122186 0.736169
O2_3 O 0.3861(2) 0.0459(2) 0.0881(3)
O7_5 O 0.1410(3) 0.0498(4) 0.2415(7)
O12_3 O 0.2482(3) 0.0515(2) 0.4859(3)
H5_5 H 0.102729 0.0902976 0.27456
O1_5 O 0.32570(19) 0.98898(19) 0.2498(3)
C1_5 C 0.3552(3) 0.9864(3) 0.1420(4)
C2_5 C 0.2121(3) 0.7310(3) 0.0377(5)
C4_5 C 0.3492(3) 0.9109(3) 0.0691(4)
C5_5 C 0.2870(3) 0.8562(3) 0.0896(4)
H1_5 H 0.2499 0.8659 0.1522
C6_5 C 0.2800(3) 0.7870(3) 0.0168(4)
O8_3 O 0.4541(2) 0.8861(2) 0.3381(3)
O13_3 O 0.3631(2) 0.9883(2) 0.5360(3)
H4_5 H 0.122186 0.995023 0.263831
O5_3 O 0.4485(2) 0.7482(3) 0.7359(3)
O6_3 O 0.5117(2) 0.8631(2) 0.7860(3)
C3_5 C 0.4560(3) 0.8100(3) 0.8005(4)
C7_5 C 0.3358(3) 0.7738(3) 0.9251(4)
H2_5 H 0.3312 0.7279 0.8765
C8_5 C 0.3977(3) 0.8259(3) 0.9029(4)
C9_5 C 0.4041(3) 0.8961(3) 0.9737(4)
H3_5 H 0.4448 0.9329 0.9572
O13_4 O 0.6369(2) 0.0117(2) 0.0360(3)
O1_6 O 0.67430(19) 0.01102(19) 0.7498(3)
O5_4 O 0.5515(2) 0.2518(3) 0.2359(3)
O6_4 O 0.4883(2) 0.1369(2) 0.2860(3)
C1_6 C 0.6448(3) 0.0136(3) 0.6420(4)
C2_6 C 0.7879(3) 0.2690(3) 0.5377(5)
C3_6 C 0.5440(3) 0.1900(3) 0.3005(4)
C4_6 C 0.6508(3) 0.0891(3) 0.5691(4)
C5_6 C 0.7130(3) 0.1438(3) 0.5896(4)
H1_6 H 0.7501 0.1341 0.6522
C6_6 C 0.7200(3) 0.2130(3) 0.5168(4)
C7_6 C 0.6642(3) 0.2262(3) 0.4251(4)
H2_6 H 0.6688 0.2721 0.3765
C8_6 C 0.6023(3) 0.1741(3) 0.4029(4)
C9_6 C 0.5959(3) 0.1039(3) 0.4737(4)
H3_6 H 0.5552 0.0671 0.4572
O8_4 O 0.5459(2) 0.1139(2) 0.8381(3)
H4_6 H 0.877814 0.00497703 0.763831
O2_4 O 0.6139(2) 0.9541(2) 0.5881(3)
O7_6 O 0.8590(3) 0.9502(4) 0.7415(7)
O12_4 O 0.7518(3) 0.9485(2) 0.9859(3)
H5_6 H 0.897271 0.909702 0.77456
H4_7 H 0.495023 0.377814 0.0138307
H5_7 H 0.590298 0.397271 0.0245599
O1_7 O 0.48898(19) 0.17430(19) 0.9998(3)
O7_7 O 0.5498(4) 0.3590(3) 0.9915(7)
C1_7 C 0.4864(3) 0.1448(3) 0.8920(4)
C2_7 C 0.2310(3) 0.2879(3) 0.7877(5)
C3_7 C 0.3100(3) 0.0440(3) 0.5505(4)
C4_7 C 0.4109(3) 0.1508(3) 0.8191(4)
C5_7 C 0.3562(3) 0.2130(3) 0.8396(4)
H1_7 H 0.3659 0.2501 0.9022
C6_7 C 0.2870(3) 0.2200(3) 0.7668(4)
C7_7 C 0.2738(3) 0.1642(3) 0.6751(4)
H2_7 H 0.2279 0.1688 0.6265
C8_7 C 0.3259(3) 0.1023(3) 0.6529(4)
C9_7 C 0.3961(3) 0.0959(3) 0.7237(4)
H3_7 H 0.4329 0.0552 0.7072
O1_8 O 0.51102(19) 0.82570(19) 0.4998(3)
O7_8 O 0.4502(4) 0.6410(3) 0.4915(7)
C1_8 C 0.5136(3) 0.8552(3) 0.3920(4)
C2_8 C 0.7690(3) 0.7121(3) 0.2877(5)
C3_8 C 0.6900(3) 0.9560(3) 0.0505(4)
C4_8 C 0.5891(3) 0.8492(3) 0.3191(4)
C5_8 C 0.6438(3) 0.7870(3) 0.3396(4)
H1_8 H 0.6341 0.7499 0.4022
C6_8 C 0.7130(3) 0.7800(3) 0.2668(4)
C7_8 C 0.7262(3) 0.8358(3) 0.1751(4)
H2_8 H 0.7721 0.8312 0.1265
C8_8 C 0.6741(3) 0.8977(3) 0.1529(4)
C9_8 C 0.6039(3) 0.9041(3) 0.2237(4)
H3_8 H 0.5671 0.9448 0.2072
H4_8 H 0.504977 0.622186 0.513831
H5_8 H 0.409702 0.602729 0.52456
loop_
_geom_bond_atom_site_label_1
_geom_bond_atom_site_label_2
_geom_bond_site_symmetry_1
_geom_bond_site_symmetry_2
O1 C1 1_555 1_555
O2 C1 1_555 1_555
O3 C2 1_555 1_555
O4 C2 1_555 1_555
O5 C3 1_555 1_555
C1 C4 1_555 1_555
C2 C6 1_555 1_555
C3 C8 1_555 1_555
C4 C5 1_555 1_555
C5 H1 1_555 1_555
C6 C5 1_555 1_555
C7 C6 1_555 1_555
H2 C7 1_555 1_555
C8 C7 1_555 1_555
C9 C4 1_555 1_555
H3 C9 1_555 1_555
Li2 O4 1_555 1_555
Li3 O5 1_555 1_555
Zn2 O2 1_555 1_555
Zn3 O3 1_555 1_555
O4 Zn3 1_555 1_555
C8 C9 1_555 1_555
O8 Zn1 1_555 1_555
O9 Zn1 1_555 1_555
O10 Li1 1_555 1_555
O11 Zn1 1_555 1_555
O12 Li1 1_555 1_555
O13 Zn1 1_555 1_555
Zn4 O6 1_555 1_555
Li3_2 O5_2 1_555 1_555
Li1_2 O1_2 1_555 1_555
Zn1_2 O1_2 1_555 1_555
O1_2 C1_2 1_555 1_555
O2_2 C1_2 1_555 1_555
O3_2 C2_2 1_555 1_555
O4_2 C2_2 1_555 1_555
O7_2 Li1_2 1_555 1_555
C1_2 C4_2 1_555 1_555
C2_2 C6_2 1_555 1_555
C3_2 C8_2 1_555 1_555
C4_2 C5_2 1_555 1_555
C5_2 H1_2 1_555 1_555
C6_2 C5_2 1_555 1_555
C7_2 C6_2 1_555 1_555
H2_2 C7_2 1_555 1_555
C8_2 C7_2 1_555 1_555
C9_2 C4_2 1_555 1_555
H3_2 C9_2 1_555 1_555
Li2_2 O4_2 1_555 1_555
Zn4 O2_2 1_555 1_555
Zn3_2 O3_2 1_555 1_555
O8_2 Zn1_2 1_555 1_555
O9_2 Zn1_2 1_555 1_555
O10_2 Li1_2 1_555 1_555
O11_2 Zn1_2 1_555 1_555
O12_2 Li1_2 1_555 1_555
O13_2 Zn1_2 1_555 1_555
O4_2 Zn3_2 1_555 1_555
C8_2 C9_2 1_555 1_555
Zn4 O10_2 1_555 1_555
O7_2 H4_2 1_555 1_555
O7_2 H5_2 1_555 1_555
Zn2 O1_3 1_555 1_555
O1_3 C1_3 1_555 1_555
O3_3 C2_3 1_555 1_555
O4_3 C2_3 1_555 1_555
O12 C3_3 1_555 1_555
O13 C3_3 1_555 1_555
C1_3 C4_3 1_555 1_555
C2_3 C6_3 1_555 1_555
C3_3 C8_3 1_555 1_555
C4_3 C5_3 1_555 1_555
C5_3 H1_3 1_555 1_555
C6_3 C5_3 1_555 1_555
C7_3 C6_3 1_555 1_555
H2_3 C7_3 1_555 1_555
C8_3 C7_3 1_555 1_555
C9_3 C4_3 1_555 1_555
H3_3 C9_3 1_555 1_555
Li2_3 O4_3 1_555 1_555
Zn3_3 O3_3 1_555 1_555
O9_3 Zn2 1_555 1_555
O4_3 Zn3_3 1_555 1_555
C8_3 C9_3 1_555 1_555
O7_3 Li3_2 1_555 1_555
O11_2 Li3_2 1_555 1_555
O7_3 H5_3 1_555 1_555
O7_4 Li3 1_555 1_555
O11 Li3 1_555 1_555
O7_4 H5_4 1_555 1_555
O12_2 C3_4 1_555 1_555
O13_2 C3_4 1_555 1_555
C3_4 C8_4 1_555 1_555
H2_4 C7_4 1_555 1_555
C8_4 C7_4 1_555 1_555
H3_4 C9_4 1_555 1_555
Li2_4 O4_4 1_555 1_555
C8_4 C9_4 1_555 1_555
Zn4 O1_4 1_555 1_555
O1_4 C1_4 1_555 1_555
O3_4 C2_4 1_555 1_555
C1_4 C4_4 1_555 1_555
C2_4 C6_4 1_555 1_555
C4_4 C5_4 1_555 1_555
C5_4 H1_4 1_555 1_555
C6_4 C5_4 1_555 1_555
Zn3_4 O3_4 1_555 1_555
O9_4 Zn4 1_555 1_555
O7_5 Li2 1_555 1_555
Zn3 O2_3 1_555 1_555
O12_3 Li2 1_555 1_555
O7_5 H5_5 1_555 1_555
Zn3_3 O1_5 1_555 1_555
O1_5 C1_5 1_555 1_555
O9_3 C2_5 1_555 1_555
C1_5 C4_5 1_555 1_555
C2_5 C6_5 1_555 1_555
C4_5 C5_5 1_555 1_555
C5_5 H1_5 1_555 1_555
C6_5 C5_5 1_555 1_555
O8_3 Zn3_3 1_555 1_555
O13_3 Zn3_3 1_555 1_555
O5_3 C3_5 1_555 1_555
O6_3 C3_5 1_555 1_555
C3_5 C8_5 1_555 1_555
H2_5 C7_5 1_555 1_555
C8_5 C7_5 1_555 1_555
H3_5 C9_5 1_555 1_555
Li2_3 O5_3 1_555 1_555
Zn3_2 O6_3 1_555 1_555
C8_5 C9_5 1_555 1_555
Zn3_4 O1_6 1_555 1_555
O1_6 C1_6 1_555 1_555
O9_4 C2_6 1_555 1_555
O10_2 C2_6 1_555 1_555
O5_4 C3_6 1_555 1_555
O6_4 C3_6 1_555 1_555
C1_6 C4_6 1_555 1_555
C2_6 C6_6 1_555 1_555
C3_6 C8_6 1_555 1_555
C4_6 C5_6 1_555 1_555
C5_6 H1_6 1_555 1_555
C6_6 C5_6 1_555 1_555
C7_6 C6_6 1_555 1_555
H2_6 C7_6 1_555 1_555
C8_6 C7_6 1_555 1_555
C9_6 C4_6 1_555 1_555
H3_6 C9_6 1_555 1_555
Li2_4 O5_4 1_555 1_555
Zn3 O6_4 1_555 1_555
O8_4 Zn3_4 1_555 1_555
C8_6 C9_6 1_555 1_555
O7_6 Li2_2 1_555 1_555
Zn3_2 O2_4 1_555 1_555
O12_4 Li2_2 1_555 1_555
O7_6 H5_6 1_555 1_555
O1_7 C1_7 1_555 1_555
O8_4 C1_7 1_555 1_555
O9 C2_7 1_555 1_555
O11 C2_7 1_555 1_555
O12_3 C3_7 1_555 1_555
C1_7 C4_7 1_555 1_555
C2_7 C6_7 1_555 1_555
C3_7 C8_7 1_555 1_555
C4_7 C5_7 1_555 1_555
C5_7 H1_7 1_555 1_555
C6_7 C5_7 1_555 1_555
C7_7 C6_7 1_555 1_555
H2_7 C7_7 1_555 1_555
C8_7 C7_7 1_555 1_555
C9_7 C4_7 1_555 1_555
H3_7 C9_7 1_555 1_555
C8_7 C9_7 1_555 1_555
Li2_3 O1_8 1_555 1_555
Zn3_2 O1_8 1_555 1_555
O1_8 C1_8 1_555 1_555
O8_3 C1_8 1_555 1_555
O9_2 C2_8 1_555 1_555
O11_2 C2_8 1_555 1_555
O7_8 Li2_3 1_555 1_555
C1_8 C4_8 1_555 1_555
C2_8 C6_8 1_555 1_555
C3_8 C8_8 1_555 1_555
C4_8 C5_8 1_555 1_555
C5_8 H1_8 1_555 1_555
C6_8 C5_8 1_555 1_555
C7_8 C6_8 1_555 1_555
H2_8 C7_8 1_555 1_555
C8_8 C7_8 1_555 1_555
C9_8 C4_8 1_555 1_555
H3_8 C9_8 1_555 1_555
C8_8 C9_8 1_555 1_555
O7_8 H4_8 1_555 1_555
O7_8 H5_8 1_555 1_555

#END
