
###############################################################################
#
# This file contains modified crystal structure data generated from the
# MOF subset of the Cambridge Structural Database (CSD) v543 
# hosted by the Cambridge Crystallographic Data Centre (CCDC).
#
# This work is licensed under the Creative Commons
# Attribution-NonCommercial-ShareAlike 4.0 International License.
# To view a copy of this license, visit
# http://creativecommons.org/licenses/by-nc-sa/4.0/
# or send a letter to
# Creative Commons, PO Box 1866, Mountain View, CA 94042, USA.
#
# CIF created using the CSD Python API on 29 September 2022
# The structure has been converted into the P1 space group
# The structure has a 3D framework
# The original CSD entry WAJJOI01 is in the tetragonal crystal system
# The original CSD entry WAJJOI01 is in a Sohncke space group
# The framework has been calculated to contain at least 10.0% void space
# The void calculation uses a probe of radius 1.32A, grid spacing 0.4
#
###############################################################################

data_WAJJOI01
_chemical_formula_moiety         '(C72 H24 Li3 O37 Zn4)n'
_symmetry_cell_setting           triclinic
_symmetry_space_group_name_H-M   'P 1'
_symmetry_Int_Tables_number      1
_space_group_name_Hall           'P 1'
loop_
_symmetry_equiv_pos_site_id
_symmetry_equiv_pos_as_xyz
1 x,y,z
_cell_length_a                   16.31360(10)
_cell_length_b                   16.31360(10)
_cell_length_c                   11.3049(2)
_cell_angle_alpha                90
_cell_angle_beta                 90
_cell_angle_gamma                90
_cell_volume                     3008.61
loop_
_atom_site_label
_atom_site_type_symbol
_atom_site_fract_x
_atom_site_fract_y
_atom_site_fract_z
Li1 Li 0.1756(4) 0.5967(4) 0.8741(7)
Zn1 Zn 0.08333(3) 0.67293(3) 0.08885(4)
O1 O 0.00281(15) 0.68046(16) 0.2269(2)
O3 O 0.25087(18) 0.82935(19) 0.4060(3)
O4 O 0.3180(2) 0.76889(19) 0.5533(3)
O5 O 0.19342(17) 0.51544(17) 0.7402(2)
O6 O 0.1244(2) 0.43746(18) 0.6162(3)
C1 C 0.0026(3) 0.6428(2) 0.3250(4)
C2 C 0.2621(2) 0.7713(2) 0.4819(4)
C3 C 0.1568(2) 0.5038(2) 0.6419(4)
C4 C 0.0786(2) 0.6399(2) 0.3989(4)
C5 C 0.1363(2) 0.7016(3) 0.3964(4)
H1 H 0.1321 0.7433 0.3408
C6 C 0.2007(2) 0.7014(3) 0.4771(4)
C7 C 0.2090(3) 0.6381(3) 0.5588(4)
H2 H 0.2515 0.6383 0.6138
C8 C 0.1516(2) 0.5740(2) 0.5561(4)
C9 C 0.0878(3) 0.5761(3) 0.4785(3)
H3 H 0.0497 0.5338 0.4790
Li3 Li 0.4033(4) 0.8244(4) 0.6259(7)
Li4 Li 0.0967(4) 0.3244(4) 0.6241(7)
Zn3 Zn 0.32707(3) 0.91667(3) 0.41115(4)
Zn4 Zn 0.17293(3) 0.41667(3) 0.83885(4)
O7 O 0.18046(16) 0.49719(15) 0.9769(2)
O8 O 0.10761(19) 0.55774(18) 0.1182(3)
O9 O 0.17065(19) 0.74913(18) 0.0940(3)
O10 O 0.23111(19) 0.6820(2) 0.9467(3)
O12 O 0.06254(18) 0.6244(2) 0.8662(3)
O2 O 0.94226(18) 0.60761(19) 0.3682(3)
Li2 Li 0.9033(4) 0.6756(4) 0.1241(7)
Zn2 Zn 0.82707(3) 0.58333(3) 0.33885(4)
O11 O 0.98456(17) 0.69342(17) 0.9902(2)
O2_2 O 0.05774(18) 0.39239(19) 0.8682(3)
O11_2 O 0.01544(17) 0.30658(17) 0.4902(2)
Li1_2 Li 0.8244(4) 0.4033(4) 0.3741(7)
O4_2 O 0.6820(2) 0.23111(19) 0.0533(3)
O5_2 O 0.80658(17) 0.48456(17) 0.2402(2)
O6_2 O 0.8756(2) 0.56254(18) 0.1162(3)
C3_2 C 0.8432(2) 0.4962(2) 0.1419(4)
C7_2 C 0.7910(3) 0.3619(3) 0.0588(4)
H2_2 H 0.7485 0.3617 0.1138
C8_2 C 0.8484(2) 0.4260(2) 0.0561(4)
Li3_2 Li 0.5967(4) 0.1756(4) 0.1259(7)
O7_2 O 0.81954(16) 0.50281(15) 0.4769(2)
O10_2 O 0.76889(19) 0.3180(2) 0.4467(3)
O12_2 O 0.93746(18) 0.3756(2) 0.3662(3)
Zn1_2 Zn 0.91667(3) 0.32707(3) 0.58885(4)
O1_2 O 0.99719(15) 0.31954(16) 0.7269(2)
O3_2 O 0.74913(18) 0.17065(19) 0.9060(3)
C1_2 C 0.9974(3) 0.3572(2) 0.8250(4)
C2_2 C 0.7379(2) 0.2287(2) 0.9819(4)
C4_2 C 0.9214(2) 0.3601(2) 0.8989(4)
C5_2 C 0.8637(2) 0.2984(3) 0.8964(4)
H1_2 H 0.8679 0.2567 0.8408
C6_2 C 0.7993(2) 0.2986(3) 0.9771(4)
C9_2 C 0.9122(3) 0.4239(3) 0.9785(3)
H3_2 H 0.9503 0.4662 0.9790
Zn3_2 Zn 0.67293(3) 0.08333(3) 0.91115(4)
O8_2 O 0.89239(19) 0.44226(18) 0.6182(3)
O9_2 O 0.82935(19) 0.25087(18) 0.5940(3)
O10_3 O 0.8180(2) 0.73111(19) 0.1967(3)
O3_3 O 0.67065(19) 0.75087(18) 0.6560(3)
O4_3 O 0.73111(19) 0.8180(2) 0.8033(3)
C1_3 C 0.8572(2) 0.5026(3) 0.5750(4)
C2_3 C 0.7287(2) 0.7621(2) 0.7319(4)
C3_3 C 0.9962(2) 0.6568(2) 0.8919(4)
C4_3 C 0.8601(2) 0.5786(2) 0.6489(4)
C5_3 C 0.7984(3) 0.6363(2) 0.6464(4)
H1_3 H 0.7567 0.6321 0.5908
C6_3 C 0.7986(3) 0.7007(2) 0.7271(4)
C7_3 C 0.8619(3) 0.7090(3) 0.8088(4)
H2_3 H 0.8617 0.7515 0.8638
C8_3 C 0.9260(2) 0.6516(2) 0.8061(4)
C9_3 C 0.9239(3) 0.5878(3) 0.7285(3)
H3_3 H 0.9662 0.5497 0.7290
Li3_3 Li 0.6756(4) 0.9033(4) 0.8759(7)
Zn3_3 Zn 0.58333(3) 0.82707(3) 0.66115(4)
O9_3 O 0.75087(18) 0.67065(19) 0.3440(3)
O3_4 O 0.32935(19) 0.24913(18) 0.1560(3)
O4_4 O 0.26889(19) 0.1820(2) 0.3033(3)
C1_4 C 0.1428(2) 0.4974(3) 0.0750(4)
C2_4 C 0.2713(2) 0.2379(2) 0.2319(4)
C3_4 C 0.0038(2) 0.3432(2) 0.3919(4)
C4_4 C 0.1399(2) 0.4214(2) 0.1489(4)
C5_4 C 0.2016(3) 0.3637(2) 0.1464(4)
H1_4 H 0.2433 0.3679 0.0908
C6_4 C 0.2014(3) 0.2993(2) 0.2271(4)
C7_4 C 0.1381(3) 0.2910(3) 0.3088(4)
H2_4 H 0.1383 0.2485 0.3638
C8_4 C 0.0740(2) 0.3484(2) 0.3061(4)
C9_4 C 0.0761(3) 0.4122(3) 0.2285(3)
H3_4 H 0.0338 0.4503 0.2290
Li3_4 Li 0.3244(4) 0.0967(4) 0.3759(7)
Zn3_4 Zn 0.41667(3) 0.17293(3) 0.16115(4)
O10_4 O 0.1820(2) 0.26889(19) 0.6967(3)
O9_4 O 0.24913(18) 0.32935(19) 0.8440(3)
O1_3 O 0.49719(15) 0.18046(16) 0.0231(2)
O8_3 O 0.39239(19) 0.05774(18) 0.1318(3)
O11_3 O 0.51544(17) 0.19342(17) 0.2598(2)
O2_3 O 0.55774(18) 0.10761(19) 0.8818(3)
O5_3 O 0.30658(17) 0.01544(17) 0.5098(2)
C1_5 C 0.4974(3) 0.1428(2) 0.9250(4)
C2_5 C 0.2379(2) 0.2713(2) 0.7681(4)
C3_5 C 0.3432(2) 0.0038(2) 0.6081(4)
C4_5 C 0.4214(2) 0.1399(2) 0.8511(4)
C5_5 C 0.3637(2) 0.2016(3) 0.8536(4)
H1_5 H 0.3679 0.2433 0.9092
C6_5 C 0.2993(2) 0.2014(3) 0.7729(4)
C7_5 C 0.2910(3) 0.1381(3) 0.6912(4)
H2_5 H 0.2485 0.1383 0.6362
C8_5 C 0.3484(2) 0.0740(2) 0.6939(4)
C9_5 C 0.4122(3) 0.0761(3) 0.7715(3)
H3_5 H 0.4503 0.0338 0.7710
O12_3 O 0.43746(18) 0.1244(2) 0.3838(3)
O6_3 O 0.3756(2) 0.93746(18) 0.6338(3)
O7_3 O 0.31954(16) 0.99719(15) 0.2731(2)
O6_4 O 0.6244(2) 0.06254(18) 0.1338(3)
O7_4 O 0.68046(16) 0.00281(15) 0.7731(2)
O1_4 O 0.50281(15) 0.81954(16) 0.5231(2)
O2_4 O 0.44226(18) 0.89239(19) 0.3818(3)
O5_4 O 0.69342(17) 0.98456(17) 0.0098(2)
C1_6 C 0.5026(3) 0.8572(2) 0.4250(4)
C2_6 C 0.7621(2) 0.7287(2) 0.2681(4)
C3_6 C 0.6568(2) 0.9962(2) 0.1081(4)
C4_6 C 0.5786(2) 0.8601(2) 0.3511(4)
C5_6 C 0.6363(2) 0.7984(3) 0.3536(4)
H1_6 H 0.6321 0.7567 0.4092
C6_6 C 0.7007(2) 0.7986(3) 0.2729(4)
C7_6 C 0.7090(3) 0.8619(3) 0.1912(4)
H2_6 H 0.7515 0.8617 0.1362
C8_6 C 0.6516(2) 0.9260(2) 0.1939(4)
C9_6 C 0.5878(3) 0.9239(3) 0.2715(3)
H3_6 H 0.5497 0.9662 0.2710
O8_4 O 0.60761(19) 0.94226(18) 0.6318(3)
O11_4 O 0.48456(17) 0.80658(17) 0.7598(2)
O12_4 O 0.56254(18) 0.8756(2) 0.8838(3)
C1_7 C 0.6428(2) 0.0026(3) 0.6750(4)
C2_7 C 0.7713(2) 0.2621(2) 0.5181(4)
C3_7 C 0.5038(2) 0.1568(2) 0.3581(4)
C4_7 C 0.6399(2) 0.0786(2) 0.6011(4)
C5_7 C 0.7016(3) 0.1363(2) 0.6036(4)
H1_7 H 0.7433 0.1321 0.6592
C6_7 C 0.7014(3) 0.2007(2) 0.5229(4)
C7_7 C 0.6381(3) 0.2090(3) 0.4412(4)
H2_7 H 0.6383 0.2515 0.3862
C8_7 C 0.5740(2) 0.1516(2) 0.4439(4)
C9_7 C 0.5761(3) 0.0878(3) 0.5215(3)
H3_7 H 0.5338 0.0497 0.5210
C1_8 C 0.3572(2) 0.9974(3) 0.1750(4)
C2_8 C 0.2287(2) 0.7379(2) 0.0181(4)
C4_8 C 0.3601(2) 0.9214(2) 0.1011(4)
C5_8 C 0.2984(3) 0.8637(2) 0.1036(4)
H1_8 H 0.2567 0.8679 0.1592
C6_8 C 0.2986(3) 0.7993(2) 0.0229(4)
C9_8 C 0.4239(3) 0.9122(3) 0.0215(3)
H3_8 H 0.4662 0.9503 0.0210
C3_8 C 0.4962(2) 0.8432(2) 0.8581(4)
C7_8 C 0.3619(3) 0.7910(3) 0.9412(4)
H2_8 H 0.3617 0.7485 0.8862
C8_8 C 0.4260(2) 0.8484(2) 0.9439(4)
loop_
_geom_bond_atom_site_label_1
_geom_bond_atom_site_label_2
_geom_bond_site_symmetry_1
_geom_bond_site_symmetry_2
Li1 O5 1_555 1_555
Zn1 O1 1_555 1_555
O1 C1 1_555 1_555
O3 C2 1_555 1_555
O4 C2 1_555 1_555
O5 C3 1_555 1_555
O6 C3 1_555 1_555
C1 C4 1_555 1_555
C2 C6 1_555 1_555
C3 C8 1_555 1_555
C4 C5 1_555 1_555
C5 H1 1_555 1_555
C6 C5 1_555 1_555
C7 C6 1_555 1_555
H2 C7 1_555 1_555
C8 C7 1_555 1_555
C9 C4 1_555 1_555
H3 C9 1_555 1_555
Li3 O4 1_555 1_555
Li4 O6 1_555 1_555
Zn3 O3 1_555 1_555
Zn4 O5 1_555 1_555
O7 Li1 1_555 1_555
O8 Zn1 1_555 1_555
O9 Zn1 1_555 1_555
O10 Li1 1_555 1_555
O12 Li1 1_555 1_555
C8 C9 1_555 1_555
Zn4 O7 1_555 1_555
Zn2 O2 1_555 1_555
Zn4 O2_2 1_555 1_555
Li4 O11_2 1_555 1_555
Li1_2 O5_2 1_555 1_555
O5_2 C3_2 1_555 1_555
O6_2 C3_2 1_555 1_555
C3_2 C8_2 1_555 1_555
H2_2 C7_2 1_555 1_555
C8_2 C7_2 1_555 1_555
Li3_2 O4_2 1_555 1_555
Li2 O6_2 1_555 1_555
Zn2 O5_2 1_555 1_555
O7_2 Li1_2 1_555 1_555
O10_2 Li1_2 1_555 1_555
O12_2 Li1_2 1_555 1_555
Zn2 O7_2 1_555 1_555
Zn1_2 O1_2 1_555 1_555
O1_2 C1_2 1_555 1_555
O3_2 C2_2 1_555 1_555
C1_2 C4_2 1_555 1_555
C2_2 C6_2 1_555 1_555
C4_2 C5_2 1_555 1_555
C5_2 H1_2 1_555 1_555
C6_2 C5_2 1_555 1_555
C9_2 C4_2 1_555 1_555
H3_2 C9_2 1_555 1_555
Zn3_2 O3_2 1_555 1_555
O8_2 Zn1_2 1_555 1_555
O9_2 Zn1_2 1_555 1_555
O10_3 Li2 1_555 1_555
O7_2 C1_3 1_555 1_555
O8_2 C1_3 1_555 1_555
O3_3 C2_3 1_555 1_555
O4_3 C2_3 1_555 1_555
O11 C3_3 1_555 1_555
C1_3 C4_3 1_555 1_555
C2_3 C6_3 1_555 1_555
C3_3 C8_3 1_555 1_555
C4_3 C5_3 1_555 1_555
C5_3 H1_3 1_555 1_555
C6_3 C5_3 1_555 1_555
C7_3 C6_3 1_555 1_555
H2_3 C7_3 1_555 1_555
C8_3 C7_3 1_555 1_555
C9_3 C4_3 1_555 1_555
H3_3 C9_3 1_555 1_555
Li3_3 O4_3 1_555 1_555
Zn3_3 O3_3 1_555 1_555
O9_3 Zn2 1_555 1_555
C8_3 C9_3 1_555 1_555
O8 C1_4 1_555 1_555
O3_4 C2_4 1_555 1_555
O4_4 C2_4 1_555 1_555
O11_2 C3_4 1_555 1_555
C1_4 C4_4 1_555 1_555
C2_4 C6_4 1_555 1_555
C3_4 C8_4 1_555 1_555
C4_4 C5_4 1_555 1_555
C5_4 H1_4 1_555 1_555
C6_4 C5_4 1_555 1_555
C7_4 C6_4 1_555 1_555
H2_4 C7_4 1_555 1_555
C8_4 C7_4 1_555 1_555
C9_4 C4_4 1_555 1_555
H3_4 C9_4 1_555 1_555
Li3_4 O4_4 1_555 1_555
Zn3_4 O3_4 1_555 1_555
O10_4 Li4 1_555 1_555
C8_4 C9_4 1_555 1_555
O9_4 Zn4 1_555 1_555
Zn3_4 O1_3 1_555 1_555
Li3_2 O1_3 1_555 1_555
O8_3 Zn3_4 1_555 1_555
O11_3 Zn3_4 1_555 1_555
Li3_2 O11_3 1_555 1_555
Li3_4 O5_3 1_555 1_555
O2_3 C1_5 1_555 1_555
O9_4 C2_5 1_555 1_555
O10_4 C2_5 1_555 1_555
O5_3 C3_5 1_555 1_555
C1_5 C4_5 1_555 1_555
C2_5 C6_5 1_555 1_555
C3_5 C8_5 1_555 1_555
C4_5 C5_5 1_555 1_555
C5_5 H1_5 1_555 1_555
C6_5 C5_5 1_555 1_555
C7_5 C6_5 1_555 1_555
H2_5 C7_5 1_555 1_555
C8_5 C7_5 1_555 1_555
C9_5 C4_5 1_555 1_555
H3_5 C9_5 1_555 1_555
Zn3_2 O2_3 1_555 1_555
O12_3 Li3_4 1_555 1_555
C8_5 C9_5 1_555 1_555
Li3 O6_3 1_555 1_555
Zn3 O7_3 1_555 1_555
Li3_2 O6_4 1_555 1_555
Zn3_2 O7_4 1_555 1_555
Zn3_3 O1_4 1_555 1_555
O1_4 C1_6 1_555 1_555
O2_4 C1_6 1_555 1_555
O9_3 C2_6 1_555 1_555
O10_3 C2_6 1_555 1_555
O5_4 C3_6 1_555 1_555
C1_6 C4_6 1_555 1_555
C2_6 C6_6 1_555 1_555
C3_6 C8_6 1_555 1_555
C4_6 C5_6 1_555 1_555
C5_6 H1_6 1_555 1_555
C6_6 C5_6 1_555 1_555
C7_6 C6_6 1_555 1_555
H2_6 C7_6 1_555 1_555
C8_6 C7_6 1_555 1_555
C9_6 C4_6 1_555 1_555
H3_6 C9_6 1_555 1_555
Li3 O1_4 1_555 1_555
Zn3 O2_4 1_555 1_555
O8_4 Zn3_3 1_555 1_555
O11_4 Zn3_3 1_555 1_555
C8_6 C9_6 1_555 1_555
Li3 O11_4 1_555 1_555
O12_4 Li3_3 1_555 1_555
O7_4 C1_7 1_555 1_555
O9_2 C2_7 1_555 1_555
O10_2 C2_7 1_555 1_555
O11_3 C3_7 1_555 1_555
O12_3 C3_7 1_555 1_555
C1_7 C4_7 1_555 1_555
C2_7 C6_7 1_555 1_555
C3_7 C8_7 1_555 1_555
C4_7 C5_7 1_555 1_555
C5_7 H1_7 1_555 1_555
C6_7 C5_7 1_555 1_555
C7_7 C6_7 1_555 1_555
H2_7 C7_7 1_555 1_555
C8_7 C7_7 1_555 1_555
C9_7 C4_7 1_555 1_555
H3_7 C9_7 1_555 1_555
C8_7 C9_7 1_555 1_555
O7_3 C1_8 1_555 1_555
O9 C2_8 1_555 1_555
C1_8 C4_8 1_555 1_555
C2_8 C6_8 1_555 1_555
C4_8 C5_8 1_555 1_555
C5_8 H1_8 1_555 1_555
C6_8 C5_8 1_555 1_555
C9_8 C4_8 1_555 1_555
H3_8 C9_8 1_555 1_555
O11_4 C3_8 1_555 1_555
O12_4 C3_8 1_555 1_555
C3_8 C8_8 1_555 1_555
H2_8 C7_8 1_555 1_555
C8_8 C7_8 1_555 1_555

#END
