
###############################################################################
#
# This file contains modified crystal structure data generated from the
# MOF subset of the Cambridge Structural Database (CSD) v543 
# hosted by the Cambridge Crystallographic Data Centre (CCDC).
#
# This work is licensed under the Creative Commons
# Attribution-NonCommercial-ShareAlike 4.0 International License.
# To view a copy of this license, visit
# http://creativecommons.org/licenses/by-nc-sa/4.0/
# or send a letter to
# Creative Commons, PO Box 1866, Mountain View, CA 94042, USA.
#
# CIF created using the CSD Python API on 29 September 2022
# The structure has been converted into the P1 space group
# The structure has a 3D framework
# The original CSD entry WAJJEY is in the tetragonal crystal system
# The original CSD entry WAJJEY is in a Sohncke space group
# The framework has been calculated to contain at least 10.0% void space
# The void calculation uses a probe of radius 1.32A, grid spacing 0.4
#
###############################################################################

data_WAJJEY
_chemical_formula_moiety         '(C72 H24 Li4 O38 Zn8)n'
_symmetry_cell_setting           triclinic
_symmetry_space_group_name_H-M   'P 1'
_symmetry_Int_Tables_number      1
_space_group_name_Hall           'P 1'
loop_
_symmetry_equiv_pos_site_id
_symmetry_equiv_pos_as_xyz
1 x,y,z
_cell_length_a                   16.3514(6)
_cell_length_b                   16.3514(6)
_cell_length_c                   11.2764(8)
_cell_angle_alpha                90
_cell_angle_beta                 90
_cell_angle_gamma                90
_cell_volume                     3014.95
loop_
_atom_site_label
_atom_site_type_symbol
_atom_site_fract_x
_atom_site_fract_y
_atom_site_fract_z
O2 O 0.10953(13) 0.55994(13) 0.1198(2)
O3 O 0.32886(12) 0.25027(13) 0.1557(2)
O4 O 0.27076(14) 0.18450(14) 0.3072(2)
O5 O 0.01548(13) 0.30635(13) 0.4904(2)
C1 C 0.14451(18) 0.49878(17) 0.0757(3)
C2 C 0.27207(19) 0.23951(19) 0.2320(3)
C3 C 0.00414(18) 0.34372(19) 0.3916(3)
C4 C 0.14153(19) 0.42299(18) 0.1503(3)
C5 C 0.20386(18) 0.36530(18) 0.1480(3)
H1 H 0.2460 0.3699 0.0930
C6 C 0.20310(19) 0.3005(2) 0.2282(3)
C7 C 0.1389(2) 0.29290(19) 0.3092(3)
H2 H 0.1390 0.2505 0.3643
C8 C 0.07457(18) 0.34921(19) 0.3072(3)
C9 C 0.07686(19) 0.41446(18) 0.2289(3)
H3 H 0.0348 0.4527 0.2290
Li2 Li 0.3252(3) 0.0961(3) 0.3773(5)
Li3 Li 0.0961(3) 0.3252(3) 0.6227(5)
Zn2 Zn 0.08284(2) 0.67405(2) 0.08988(3)
Zn3 Zn 0.41716(2) 0.17405(2) 0.16012(3)
Li1 Li 0.1748(3) 0.5961(3) 0.8727(5)
Zn1 Zn 0.17405(2) 0.41716(2) 0.83988(3)
O1 O 0.18139(12) 0.49841(12) 0.97722(19)
O7 O 0.05994(13) 0.39047(13) 0.8698(2)
O8 O 0.25027(13) 0.32886(12) 0.8443(2)
O9 O 0.22924(14) 0.68450(14) 0.9428(2)
O10 O 0.19365(13) 0.51548(13) 0.7404(2)
O11 O 0.06148(14) 0.62315(13) 0.8652(2)
O6 O 0.93852(14) 0.37685(13) 0.3652(2)
Li4 Li 0.8252(3) 0.4039(3) 0.3727(5)
Zn4 Zn 0.91716(2) 0.32595(2) 0.58988(3)
Li3_2 Li 0.9039(3) 0.6748(3) 0.1227(5)
Zn1_2 Zn 0.82595(2) 0.58284(2) 0.33988(3)
O1_2 O 0.81861(12) 0.50159(12) 0.47722(19)
O2_2 O 0.89047(13) 0.44006(13) 0.6198(2)
O3_2 O 0.67114(12) 0.74973(13) 0.6557(2)
O4_2 O 0.72924(14) 0.81550(14) 0.8072(2)
O5_2 O 0.98452(13) 0.69365(13) 0.9904(2)
C1_2 C 0.85549(18) 0.50122(17) 0.5757(3)
C2_2 C 0.72793(19) 0.76049(19) 0.7320(3)
C3_2 C 0.99586(18) 0.65628(19) 0.8916(3)
C4_2 C 0.85847(19) 0.57701(18) 0.6503(3)
C5_2 C 0.79614(18) 0.63470(18) 0.6480(3)
H1_2 H 0.7540 0.6301 0.5930
C6_2 C 0.79690(19) 0.6995(2) 0.7282(3)
C7_2 C 0.8611(2) 0.70710(19) 0.8092(3)
H2_2 H 0.8610 0.7495 0.8643
C8_2 C 0.92543(18) 0.65079(19) 0.8072(3)
C9_2 C 0.92314(19) 0.58554(18) 0.7289(3)
H3_2 H 0.9652 0.5473 0.7290
Li2_2 Li 0.6748(3) 0.9039(3) 0.8773(5)
Zn3_2 Zn 0.58284(2) 0.82595(2) 0.66012(3)
O7_2 O 0.94006(13) 0.60953(13) 0.3698(2)
O8_2 O 0.74973(13) 0.67114(12) 0.3443(2)
O9_2 O 0.77076(14) 0.31550(14) 0.4428(2)
O10_2 O 0.80635(13) 0.48452(13) 0.2404(2)
O1_3 O 0.00159(12) 0.68139(12) 0.22722(19)
O3_3 O 0.24973(13) 0.82886(12) 0.4057(2)
O4_3 O 0.31550(14) 0.77076(14) 0.5572(2)
O6_2 O 0.12315(13) 0.43852(14) 0.6152(2)
C1_3 C 0.00122(17) 0.64451(18) 0.3257(3)
C2_3 C 0.26049(19) 0.77207(19) 0.4820(3)
C3_3 C 0.15628(19) 0.50414(18) 0.6416(3)
C4_3 C 0.07701(18) 0.64153(19) 0.4003(3)
C5_3 C 0.13470(18) 0.70386(18) 0.3980(3)
H1_3 H 0.1301 0.7460 0.3430
C6_3 C 0.1995(2) 0.70310(19) 0.4782(3)
C7_3 C 0.20710(19) 0.6389(2) 0.5592(3)
H2_3 H 0.2495 0.6390 0.6143
C8_3 C 0.15079(19) 0.57457(18) 0.5572(3)
C9_3 C 0.08554(18) 0.57686(19) 0.4789(3)
H3_3 H 0.0473 0.5348 0.4790
Li2_3 Li 0.4039(3) 0.8252(3) 0.6273(5)
Zn3_3 Zn 0.32595(2) 0.91716(2) 0.41012(3)
O8_3 O 0.17114(12) 0.75027(13) 0.0943(2)
O9_3 O 0.81550(14) 0.72924(14) 0.1928(2)
O11_2 O 0.87685(13) 0.56148(14) 0.1152(2)
O9_4 O 0.18450(14) 0.27076(14) 0.6928(2)
O4_4 O 0.68450(14) 0.22924(14) 0.0572(2)
C3_4 C 0.84372(19) 0.49586(18) 0.1416(3)
C7_4 C 0.79290(19) 0.3611(2) 0.0592(3)
H2_4 H 0.7505 0.3610 0.1143
C8_4 C 0.84921(19) 0.42543(18) 0.0572(3)
Li2_4 Li 0.5961(3) 0.1748(3) 0.1273(5)
O1_4 O 0.99841(12) 0.31861(12) 0.72722(19)
O3_4 O 0.75027(13) 0.17114(12) 0.9057(2)
C1_4 C 0.99878(17) 0.35549(18) 0.8257(3)
C2_4 C 0.73951(19) 0.22793(19) 0.9820(3)
C4_4 C 0.92299(18) 0.35847(19) 0.9003(3)
C5_4 C 0.86530(18) 0.29614(18) 0.8980(3)
H1_4 H 0.8699 0.2540 0.8430
C6_4 C 0.8005(2) 0.29690(19) 0.9782(3)
C9_4 C 0.91446(18) 0.42314(19) 0.9789(3)
H3_4 H 0.9527 0.4652 0.9790
Zn3_4 Zn 0.67405(2) 0.08284(2) 0.91012(3)
O8_4 O 0.82886(12) 0.24973(13) 0.5943(2)
O2_3 O 0.39047(13) 0.05994(13) 0.1302(2)
O10_3 O 0.30635(13) 0.01548(13) 0.5096(2)
O11_3 O 0.43852(14) 0.12315(13) 0.3848(2)
O1_5 O 0.31861(12) 0.99841(12) 0.27278(19)
C1_5 C 0.35549(18) 0.99878(17) 0.1743(3)
C2_5 C 0.22793(19) 0.73951(19) 0.0180(3)
C4_5 C 0.35847(19) 0.92299(18) 0.0997(3)
C5_5 C 0.29614(18) 0.86530(18) 0.1020(3)
H1_5 H 0.2540 0.8699 0.1570
C6_5 C 0.29690(19) 0.8005(2) 0.0218(3)
C9_5 C 0.42314(19) 0.91446(18) 0.0211(3)
H3_5 H 0.4652 0.9527 0.0210
O7_3 O 0.44006(13) 0.89047(13) 0.3802(2)
O5_3 O 0.48452(13) 0.80635(13) 0.7596(2)
O6_3 O 0.56148(14) 0.87685(13) 0.8848(2)
C3_5 C 0.49586(18) 0.84372(19) 0.8584(3)
C7_5 C 0.3611(2) 0.79290(19) 0.9408(3)
H2_5 H 0.3610 0.7505 0.8857
C8_5 C 0.42543(18) 0.84921(19) 0.9428(3)
O1_6 O 0.68139(12) 0.00159(12) 0.77278(19)
O5_4 O 0.51548(13) 0.19365(13) 0.2596(2)
C1_6 C 0.64451(18) 0.00122(17) 0.6743(3)
C2_6 C 0.77207(19) 0.26049(19) 0.5180(3)
C3_6 C 0.50414(18) 0.15628(19) 0.3584(3)
C4_6 C 0.64153(19) 0.07701(18) 0.5997(3)
C5_6 C 0.70386(18) 0.13470(18) 0.6020(3)
H1_6 H 0.7460 0.1301 0.6570
C6_6 C 0.70310(19) 0.1995(2) 0.5218(3)
C7_6 C 0.6389(2) 0.20710(19) 0.4408(3)
H2_6 H 0.6390 0.2495 0.3857
C8_6 C 0.57457(18) 0.15079(19) 0.4428(3)
C9_6 C 0.57686(19) 0.08554(18) 0.5211(3)
H3_6 H 0.5348 0.0473 0.5210
O7_4 O 0.55994(13) 0.10953(13) 0.8802(2)
O10_4 O 0.69365(13) 0.98452(13) 0.0096(2)
O2_4 O 0.60953(13) 0.94006(13) 0.6302(2)
O1_7 O 0.49841(12) 0.18139(12) 0.02278(19)
O11_4 O 0.62315(13) 0.06148(14) 0.1348(2)
C1_7 C 0.49878(17) 0.14451(18) 0.9243(3)
C2_7 C 0.23951(19) 0.27207(19) 0.7680(3)
C3_7 C 0.34372(19) 0.00414(18) 0.6084(3)
C4_7 C 0.42299(18) 0.14153(19) 0.8497(3)
C5_7 C 0.36530(18) 0.20386(18) 0.8520(3)
H1_7 H 0.3699 0.2460 0.9070
C6_7 C 0.3005(2) 0.20310(19) 0.7718(3)
C7_7 C 0.29290(19) 0.1389(2) 0.6908(3)
H2_7 H 0.2505 0.1390 0.6357
C8_7 C 0.34921(19) 0.07457(18) 0.6928(3)
C9_7 C 0.41446(18) 0.07686(19) 0.7711(3)
H3_7 H 0.4527 0.0348 0.7710
O6_4 O 0.37685(13) 0.93852(14) 0.6348(2)
O1_8 O 0.50159(12) 0.81861(12) 0.52278(19)
C1_8 C 0.50122(17) 0.85549(18) 0.4243(3)
C2_8 C 0.76049(19) 0.72793(19) 0.2680(3)
C3_8 C 0.65628(19) 0.99586(18) 0.1084(3)
C4_8 C 0.57701(18) 0.85847(19) 0.3497(3)
C5_8 C 0.63470(18) 0.79614(18) 0.3520(3)
H1_8 H 0.6301 0.7540 0.4070
C6_8 C 0.6995(2) 0.79690(19) 0.2718(3)
C7_8 C 0.70710(19) 0.8611(2) 0.1908(3)
H2_8 H 0.7495 0.8610 0.1357
C8_8 C 0.65079(19) 0.92543(18) 0.1928(3)
C9_8 C 0.58554(18) 0.92314(19) 0.2711(3)
H3_8 H 0.5473 0.9652 0.2710
loop_
_geom_bond_atom_site_label_1
_geom_bond_atom_site_label_2
_geom_bond_site_symmetry_1
_geom_bond_site_symmetry_2
O2 C1 1_555 1_555
O3 C2 1_555 1_555
O4 C2 1_555 1_555
O5 C3 1_555 1_555
C1 C4 1_555 1_555
C2 C6 1_555 1_555
C3 C8 1_555 1_555
C4 C5 1_555 1_555
C5 H1 1_555 1_555
C6 C5 1_555 1_555
C7 C6 1_555 1_555
H2 C7 1_555 1_555
C8 C7 1_555 1_555
C9 C4 1_555 1_555
H3 C9 1_555 1_555
Li2 O4 1_555 1_555
Li3 O5 1_555 1_555
Zn2 O2 1_555 1_555
Zn3 O3 1_555 1_555
C8 C9 1_555 1_555
Li1 O1 1_555 1_555
Zn1 O1 1_555 1_555
O7 Zn1 1_555 1_555
O8 Zn1 1_555 1_555
O9 Li1 1_555 1_555
O10 Li1 1_555 1_555
O11 Li1 1_555 1_555
Zn1 O10 1_555 1_555
Li4 O6 1_555 1_555
Li4 O1_2 1_555 1_555
Zn1_2 O1_2 1_555 1_555
O1_2 C1_2 1_555 1_555
O2_2 C1_2 1_555 1_555
O3_2 C2_2 1_555 1_555
O4_2 C2_2 1_555 1_555
O5_2 C3_2 1_555 1_555
C1_2 C4_2 1_555 1_555
C2_2 C6_2 1_555 1_555
C3_2 C8_2 1_555 1_555
C4_2 C5_2 1_555 1_555
C5_2 H1_2 1_555 1_555
C6_2 C5_2 1_555 1_555
C7_2 C6_2 1_555 1_555
H2_2 C7_2 1_555 1_555
C8_2 C7_2 1_555 1_555
C9_2 C4_2 1_555 1_555
H3_2 C9_2 1_555 1_555
Li2_2 O4_2 1_555 1_555
Zn4 O2_2 1_555 1_555
Zn3_2 O3_2 1_555 1_555
O7_2 Zn1_2 1_555 1_555
O8_2 Zn1_2 1_555 1_555
O9_2 Li4 1_555 1_555
O10_2 Li4 1_555 1_555
Zn1_2 O10_2 1_555 1_555
C8_2 C9_2 1_555 1_555
Zn2 O1_3 1_555 1_555
O1_3 C1_3 1_555 1_555
O3_3 C2_3 1_555 1_555
O4_3 C2_3 1_555 1_555
O10 C3_3 1_555 1_555
O6_2 C3_3 1_555 1_555
C1_3 C4_3 1_555 1_555
C2_3 C6_3 1_555 1_555
C3_3 C8_3 1_555 1_555
C4_3 C5_3 1_555 1_555
C5_3 H1_3 1_555 1_555
C6_3 C5_3 1_555 1_555
C7_3 C6_3 1_555 1_555
H2_3 C7_3 1_555 1_555
C8_3 C7_3 1_555 1_555
C9_3 C4_3 1_555 1_555
H3_3 C9_3 1_555 1_555
Li2_3 O4_3 1_555 1_555
Li3 O6_2 1_555 1_555
Zn3_3 O3_3 1_555 1_555
O8_3 Zn2 1_555 1_555
C8_3 C9_3 1_555 1_555
O9_3 Li3_2 1_555 1_555
O11_2 Li3_2 1_555 1_555
O9_4 Li3 1_555 1_555
O10_2 C3_4 1_555 1_555
O11_2 C3_4 1_555 1_555
C3_4 C8_4 1_555 1_555
H2_4 C7_4 1_555 1_555
C8_4 C7_4 1_555 1_555
Li2_4 O4_4 1_555 1_555
Zn4 O1_4 1_555 1_555
O1_4 C1_4 1_555 1_555
O3_4 C2_4 1_555 1_555
C1_4 C4_4 1_555 1_555
C2_4 C6_4 1_555 1_555
C4_4 C5_4 1_555 1_555
C5_4 H1_4 1_555 1_555
C6_4 C5_4 1_555 1_555
C9_4 C4_4 1_555 1_555
H3_4 C9_4 1_555 1_555
Zn3_4 O3_4 1_555 1_555
O8_4 Zn4 1_555 1_555
Zn3 O2_3 1_555 1_555
O10_3 Li2 1_555 1_555
O11_3 Li2 1_555 1_555
Zn3_3 O1_5 1_555 1_555
O1_5 C1_5 1_555 1_555
O8_3 C2_5 1_555 1_555
C1_5 C4_5 1_555 1_555
C2_5 C6_5 1_555 1_555
C4_5 C5_5 1_555 1_555
C5_5 H1_5 1_555 1_555
C6_5 C5_5 1_555 1_555
C9_5 C4_5 1_555 1_555
H3_5 C9_5 1_555 1_555
O7_3 Zn3_3 1_555 1_555
O5_3 C3_5 1_555 1_555
O6_3 C3_5 1_555 1_555
C3_5 C8_5 1_555 1_555
H2_5 C7_5 1_555 1_555
C8_5 C7_5 1_555 1_555
Li2_3 O5_3 1_555 1_555
Li2_2 O6_3 1_555 1_555
Zn3_2 O5_3 1_555 1_555
Zn3_4 O1_6 1_555 1_555
O1_6 C1_6 1_555 1_555
O8_4 C2_6 1_555 1_555
O9_2 C2_6 1_555 1_555
O5_4 C3_6 1_555 1_555
O11_3 C3_6 1_555 1_555
C1_6 C4_6 1_555 1_555
C2_6 C6_6 1_555 1_555
C3_6 C8_6 1_555 1_555
C4_6 C5_6 1_555 1_555
C5_6 H1_6 1_555 1_555
C6_6 C5_6 1_555 1_555
C7_6 C6_6 1_555 1_555
H2_6 C7_6 1_555 1_555
C8_6 C7_6 1_555 1_555
C9_6 C4_6 1_555 1_555
H3_6 C9_6 1_555 1_555
Li2_4 O5_4 1_555 1_555
Zn3 O5_4 1_555 1_555
O7_4 Zn3_4 1_555 1_555
C8_6 C9_6 1_555 1_555
Zn3_2 O2_4 1_555 1_555
Li2_4 O1_7 1_555 1_555
Zn3 O1_7 1_555 1_555
O11_4 Li2_4 1_555 1_555
O7_4 C1_7 1_555 1_555
O8 C2_7 1_555 1_555
O9_4 C2_7 1_555 1_555
O10_3 C3_7 1_555 1_555
C1_7 C4_7 1_555 1_555
C2_7 C6_7 1_555 1_555
C3_7 C8_7 1_555 1_555
C4_7 C5_7 1_555 1_555
C5_7 H1_7 1_555 1_555
C6_7 C5_7 1_555 1_555
C7_7 C6_7 1_555 1_555
H2_7 C7_7 1_555 1_555
C8_7 C7_7 1_555 1_555
C9_7 C4_7 1_555 1_555
H3_7 C9_7 1_555 1_555
C8_7 C9_7 1_555 1_555
Li2_3 O6_4 1_555 1_555
Li2_3 O1_8 1_555 1_555
Zn3_2 O1_8 1_555 1_555
O1_8 C1_8 1_555 1_555
O7_3 C1_8 1_555 1_555
O8_2 C2_8 1_555 1_555
O9_3 C2_8 1_555 1_555
O10_4 C3_8 1_555 1_555
C1_8 C4_8 1_555 1_555
C2_8 C6_8 1_555 1_555
C3_8 C8_8 1_555 1_555
C4_8 C5_8 1_555 1_555
C5_8 H1_8 1_555 1_555
C6_8 C5_8 1_555 1_555
C7_8 C6_8 1_555 1_555
H2_8 C7_8 1_555 1_555
C8_8 C7_8 1_555 1_555
C9_8 C4_8 1_555 1_555
H3_8 C9_8 1_555 1_555
C8_8 C9_8 1_555 1_555

#END
