
###############################################################################
#
# This file contains modified crystal structure data generated from the
# MOF subset of the Cambridge Structural Database (CSD) v543 
# hosted by the Cambridge Crystallographic Data Centre (CCDC).
#
# This work is licensed under the Creative Commons
# Attribution-NonCommercial-ShareAlike 4.0 International License.
# To view a copy of this license, visit
# http://creativecommons.org/licenses/by-nc-sa/4.0/
# or send a letter to
# Creative Commons, PO Box 1866, Mountain View, CA 94042, USA.
#
# CIF created using the CSD Python API on 29 September 2022
# The structure has been converted into the P1 space group
# The structure has a 3D framework
# The original CSD entry WAJJEY01 is in the tetragonal crystal system
# The original CSD entry WAJJEY01 is in a Sohncke space group
# The framework has been calculated to contain at least 10.0% void space
# The void calculation uses a probe of radius 1.32A, grid spacing 0.4
#
###############################################################################

data_WAJJEY01
_chemical_formula_moiety         '(C72 H24 Li3 O37 Zn4)n'
_symmetry_cell_setting           triclinic
_symmetry_space_group_name_H-M   'P 1'
_symmetry_Int_Tables_number      1
_space_group_name_Hall           'P 1'
loop_
_symmetry_equiv_pos_site_id
_symmetry_equiv_pos_as_xyz
1 x,y,z
_cell_length_a                   16.3514(6)
_cell_length_b                   16.3514(6)
_cell_length_c                   11.2764(8)
_cell_angle_alpha                90
_cell_angle_beta                 90
_cell_angle_gamma                90
_cell_volume                     3014.95
loop_
_atom_site_label
_atom_site_type_symbol
_atom_site_fract_x
_atom_site_fract_y
_atom_site_fract_z
Li1 Li 0.1745(3) 0.5961(3) 0.8727(4)
Zn1 Zn 0.082855(18) 0.674027(18) 0.08990(3)
O1 O 0.00156(10) 0.68133(10) 0.22735(16)
O3 O 0.24970(10) 0.82881(11) 0.40573(18)
O4 O 0.31548(11) 0.77081(11) 0.55717(18)
O5 O 0.19358(11) 0.51555(11) 0.74039(17)
O6 O 0.12316(11) 0.43853(11) 0.61515(18)
C1 C 0.00127(16) 0.64442(14) 0.3259(2)
C2 C 0.26037(16) 0.77207(16) 0.4821(3)
C3 C 0.15604(15) 0.50412(16) 0.6416(2)
C4 C 0.07689(16) 0.64147(15) 0.4000(2)
C5 C 0.13497(15) 0.70408(15) 0.3980(3)
H1 H 0.1304 0.7462 0.3430
C6 C 0.19965(16) 0.70337(16) 0.4782(3)
C7 C 0.20731(16) 0.63904(16) 0.5593(2)
H2 H 0.2497 0.6391 0.6142
C8 C 0.15081(15) 0.57445(16) 0.5574(2)
C9 C 0.08529(16) 0.57688(16) 0.4785(2)
H3 H 0.0469 0.5349 0.4786
Li3 Li 0.4039(3) 0.8255(3) 0.6273(4)
Li4 Li 0.0961(3) 0.3255(3) 0.6227(4)
Zn3 Zn 0.325973(18) 0.917145(18) 0.41010(3)
Zn4 Zn 0.174027(18) 0.417145(18) 0.83990(3)
O7 O 0.18133(10) 0.49844(10) 0.97735(16)
O8 O 0.10966(11) 0.55991(11) 0.11988(17)
O9 O 0.17119(11) 0.75030(10) 0.09427(18)
O10 O 0.22919(11) 0.68452(11) 0.94283(18)
O12 O 0.06147(11) 0.62316(11) 0.86515(18)
O2 O 0.94009(11) 0.60966(11) 0.36988(17)
Li2 Li 0.9039(3) 0.6745(3) 0.1227(4)
Zn2 Zn 0.825973(18) 0.582855(18) 0.33990(3)
O11 O 0.98445(11) 0.69358(11) 0.99039(17)
O2_2 O 0.05991(11) 0.39034(11) 0.86988(17)
O11_2 O 0.01555(11) 0.30642(11) 0.49039(17)
Li1_2 Li 0.8255(3) 0.4039(3) 0.3727(4)
O4_2 O 0.68452(11) 0.22919(11) 0.05717(18)
O5_2 O 0.80642(11) 0.48445(11) 0.24039(17)
O6_2 O 0.87684(11) 0.56147(11) 0.11515(18)
C3_2 C 0.84396(15) 0.49588(16) 0.1416(2)
C7_2 C 0.79269(16) 0.36096(16) 0.0593(2)
H2_2 H 0.7503 0.3609 0.1142
C8_2 C 0.84919(15) 0.42555(16) 0.0574(2)
Li3_2 Li 0.5961(3) 0.1745(3) 0.1273(4)
O7_2 O 0.81867(10) 0.50156(10) 0.47735(16)
O10_2 O 0.77081(11) 0.31548(11) 0.44283(18)
O12_2 O 0.93853(11) 0.37684(11) 0.36515(18)
Zn1_2 Zn 0.917145(18) 0.325973(18) 0.58990(3)
O1_2 O 0.99844(10) 0.31867(10) 0.72735(16)
O3_2 O 0.75030(10) 0.17119(11) 0.90573(18)
C1_2 C 0.99873(16) 0.35558(14) 0.8259(2)
C2_2 C 0.73963(16) 0.22793(16) 0.9821(3)
C4_2 C 0.92311(16) 0.35853(15) 0.9000(2)
C5_2 C 0.86503(15) 0.29592(15) 0.8980(3)
H1_2 H 0.8696 0.2538 0.8430
C6_2 C 0.80035(16) 0.29663(16) 0.9782(3)
C9_2 C 0.91471(16) 0.42312(16) 0.9785(2)
H3_2 H 0.9531 0.4651 0.9786
Zn3_2 Zn 0.674027(18) 0.082855(18) 0.91010(3)
O8_2 O 0.89034(11) 0.44009(11) 0.61988(17)
O9_2 O 0.82881(11) 0.24970(10) 0.59427(18)
O10_3 O 0.81548(11) 0.72919(11) 0.19283(18)
O3_3 O 0.67119(11) 0.74970(10) 0.65573(18)
O4_3 O 0.72919(11) 0.81548(11) 0.80717(18)
C1_3 C 0.85558(14) 0.50127(16) 0.5759(2)
C2_3 C 0.72793(16) 0.76037(16) 0.7321(3)
C3_3 C 0.99588(16) 0.65604(15) 0.8916(2)
C4_3 C 0.85853(15) 0.57689(16) 0.6500(2)
C5_3 C 0.79592(15) 0.63497(15) 0.6480(3)
H1_3 H 0.7538 0.6304 0.5930
C6_3 C 0.79663(16) 0.69965(16) 0.7282(3)
C7_3 C 0.86096(16) 0.70731(16) 0.8093(2)
H2_3 H 0.8609 0.7497 0.8642
C8_3 C 0.92555(16) 0.65081(15) 0.8074(2)
C9_3 C 0.92312(16) 0.58529(16) 0.7285(2)
H3_3 H 0.9651 0.5469 0.7286
Li3_3 Li 0.6745(3) 0.9039(3) 0.8773(4)
Zn3_3 Zn 0.582855(18) 0.825973(18) 0.66010(3)
O9_3 O 0.74970(10) 0.67119(11) 0.34427(18)
O3_4 O 0.32881(11) 0.25030(10) 0.15573(18)
O4_4 O 0.27081(11) 0.18452(11) 0.30717(18)
C1_4 C 0.14442(14) 0.49873(16) 0.0759(2)
C2_4 C 0.27207(16) 0.23963(16) 0.2321(3)
C3_4 C 0.00412(16) 0.34396(15) 0.3916(2)
C4_4 C 0.14147(15) 0.42311(16) 0.1500(2)
C5_4 C 0.20408(15) 0.36503(15) 0.1480(3)
H1_4 H 0.2462 0.3696 0.0930
C6_4 C 0.20337(16) 0.30035(16) 0.2282(3)
C7_4 C 0.13904(16) 0.29269(16) 0.3093(2)
H2_4 H 0.1391 0.2503 0.3642
C8_4 C 0.07445(16) 0.34919(15) 0.3074(2)
C9_4 C 0.07688(16) 0.41471(16) 0.2285(2)
H3_4 H 0.0349 0.4531 0.2286
Li3_4 Li 0.3255(3) 0.0961(3) 0.3773(4)
Zn3_4 Zn 0.417145(18) 0.174027(18) 0.16010(3)
O10_4 O 0.18452(11) 0.27081(11) 0.69283(18)
O9_4 O 0.25030(10) 0.32881(11) 0.84427(18)
O1_3 O 0.49844(10) 0.18133(10) 0.02265(16)
O8_3 O 0.39034(11) 0.05991(11) 0.13012(17)
O11_3 O 0.51555(11) 0.19358(11) 0.25961(17)
O2_3 O 0.55991(11) 0.10966(11) 0.88012(17)
O5_3 O 0.30642(11) 0.01555(11) 0.50961(17)
C1_5 C 0.49873(16) 0.14442(14) 0.9241(2)
C2_5 C 0.23963(16) 0.27207(16) 0.7679(3)
C3_5 C 0.34396(15) 0.00412(16) 0.6084(2)
C4_5 C 0.42311(16) 0.14147(15) 0.8500(2)
C5_5 C 0.36503(15) 0.20408(15) 0.8520(3)
H1_5 H 0.3696 0.2462 0.9070
C6_5 C 0.30035(16) 0.20337(16) 0.7718(3)
C7_5 C 0.29269(16) 0.13904(16) 0.6907(2)
H2_5 H 0.2503 0.1391 0.6358
C8_5 C 0.34919(15) 0.07445(16) 0.6926(2)
C9_5 C 0.41471(16) 0.07688(16) 0.7715(2)
H3_5 H 0.4531 0.0349 0.7714
O12_3 O 0.43853(11) 0.12316(11) 0.38485(18)
O6_3 O 0.37684(11) 0.93853(11) 0.63485(18)
O7_3 O 0.31867(10) 0.99844(10) 0.27265(16)
O6_4 O 0.62316(11) 0.06147(11) 0.13485(18)
O7_4 O 0.68133(10) 0.00156(10) 0.77265(16)
O1_4 O 0.50156(10) 0.81867(10) 0.52265(16)
O2_4 O 0.44009(11) 0.89034(11) 0.38012(17)
O5_4 O 0.69358(11) 0.98445(11) 0.00961(17)
C1_6 C 0.50127(16) 0.85558(14) 0.4241(2)
C2_6 C 0.76037(16) 0.72793(16) 0.2679(3)
C3_6 C 0.65604(15) 0.99588(16) 0.1084(2)
C4_6 C 0.57689(16) 0.85853(15) 0.3500(2)
C5_6 C 0.63497(15) 0.79592(15) 0.3520(3)
H1_6 H 0.6304 0.7538 0.4070
C6_6 C 0.69965(16) 0.79663(16) 0.2718(3)
C7_6 C 0.70731(16) 0.86096(16) 0.1907(2)
H2_6 H 0.7497 0.8609 0.1358
C8_6 C 0.65081(15) 0.92555(16) 0.1926(2)
C9_6 C 0.58529(16) 0.92312(16) 0.2715(2)
H3_6 H 0.5469 0.9651 0.2714
O8_4 O 0.60966(11) 0.94009(11) 0.63012(17)
O11_4 O 0.48445(11) 0.80642(11) 0.75961(17)
O12_4 O 0.56147(11) 0.87684(11) 0.88485(18)
C1_7 C 0.64442(14) 0.00127(16) 0.6741(2)
C2_7 C 0.77207(16) 0.26037(16) 0.5179(3)
C3_7 C 0.50412(16) 0.15604(15) 0.3584(2)
C4_7 C 0.64147(15) 0.07689(16) 0.6000(2)
C5_7 C 0.70408(15) 0.13497(15) 0.6020(3)
H1_7 H 0.7462 0.1304 0.6570
C6_7 C 0.70337(16) 0.19965(16) 0.5218(3)
C7_7 C 0.63904(16) 0.20731(16) 0.4407(2)
H2_7 H 0.6391 0.2497 0.3858
C8_7 C 0.57445(16) 0.15081(15) 0.4426(2)
C9_7 C 0.57688(16) 0.08529(16) 0.5215(2)
H3_7 H 0.5349 0.0469 0.5214
C1_8 C 0.35558(14) 0.99873(16) 0.1741(2)
C2_8 C 0.22793(16) 0.73963(16) 0.0179(3)
C4_8 C 0.35853(15) 0.92311(16) 0.1000(2)
C5_8 C 0.29592(15) 0.86503(15) 0.1020(3)
H1_8 H 0.2538 0.8696 0.1570
C6_8 C 0.29663(16) 0.80035(16) 0.0218(3)
C9_8 C 0.42312(16) 0.91471(16) 0.0215(2)
H3_8 H 0.4651 0.9531 0.0214
C3_8 C 0.49588(16) 0.84396(15) 0.8584(2)
C7_8 C 0.36096(16) 0.79269(16) 0.9407(2)
H2_8 H 0.3609 0.7503 0.8858
C8_8 C 0.42555(16) 0.84919(15) 0.9426(2)
loop_
_geom_bond_atom_site_label_1
_geom_bond_atom_site_label_2
_geom_bond_site_symmetry_1
_geom_bond_site_symmetry_2
Li1 O5 1_555 1_555
Zn1 O1 1_555 1_555
O1 C1 1_555 1_555
O3 C2 1_555 1_555
O4 C2 1_555 1_555
O5 C3 1_555 1_555
O6 C3 1_555 1_555
C1 C4 1_555 1_555
C2 C6 1_555 1_555
C3 C8 1_555 1_555
C4 C5 1_555 1_555
C5 H1 1_555 1_555
C6 C5 1_555 1_555
C7 C6 1_555 1_555
H2 C7 1_555 1_555
C8 C7 1_555 1_555
C9 C4 1_555 1_555
H3 C9 1_555 1_555
Li3 O4 1_555 1_555
Li4 O6 1_555 1_555
Zn3 O3 1_555 1_555
Zn4 O5 1_555 1_555
O7 Li1 1_555 1_555
O8 Zn1 1_555 1_555
O9 Zn1 1_555 1_555
O10 Li1 1_555 1_555
O12 Li1 1_555 1_555
C8 C9 1_555 1_555
Zn4 O7 1_555 1_555
Zn2 O2 1_555 1_555
Zn4 O2_2 1_555 1_555
Li4 O11_2 1_555 1_555
Li1_2 O5_2 1_555 1_555
O5_2 C3_2 1_555 1_555
O6_2 C3_2 1_555 1_555
C3_2 C8_2 1_555 1_555
H2_2 C7_2 1_555 1_555
C8_2 C7_2 1_555 1_555
Li3_2 O4_2 1_555 1_555
Li2 O6_2 1_555 1_555
Zn2 O5_2 1_555 1_555
O7_2 Li1_2 1_555 1_555
O10_2 Li1_2 1_555 1_555
O12_2 Li1_2 1_555 1_555
Zn2 O7_2 1_555 1_555
Zn1_2 O1_2 1_555 1_555
O1_2 C1_2 1_555 1_555
O3_2 C2_2 1_555 1_555
C1_2 C4_2 1_555 1_555
C2_2 C6_2 1_555 1_555
C4_2 C5_2 1_555 1_555
C5_2 H1_2 1_555 1_555
C6_2 C5_2 1_555 1_555
C9_2 C4_2 1_555 1_555
H3_2 C9_2 1_555 1_555
Zn3_2 O3_2 1_555 1_555
O8_2 Zn1_2 1_555 1_555
O9_2 Zn1_2 1_555 1_555
O10_3 Li2 1_555 1_555
O7_2 C1_3 1_555 1_555
O8_2 C1_3 1_555 1_555
O3_3 C2_3 1_555 1_555
O4_3 C2_3 1_555 1_555
O11 C3_3 1_555 1_555
C1_3 C4_3 1_555 1_555
C2_3 C6_3 1_555 1_555
C3_3 C8_3 1_555 1_555
C4_3 C5_3 1_555 1_555
C5_3 H1_3 1_555 1_555
C6_3 C5_3 1_555 1_555
C7_3 C6_3 1_555 1_555
H2_3 C7_3 1_555 1_555
C8_3 C7_3 1_555 1_555
C9_3 C4_3 1_555 1_555
H3_3 C9_3 1_555 1_555
Li3_3 O4_3 1_555 1_555
Zn3_3 O3_3 1_555 1_555
O9_3 Zn2 1_555 1_555
C8_3 C9_3 1_555 1_555
O8 C1_4 1_555 1_555
O3_4 C2_4 1_555 1_555
O4_4 C2_4 1_555 1_555
O11_2 C3_4 1_555 1_555
C1_4 C4_4 1_555 1_555
C2_4 C6_4 1_555 1_555
C3_4 C8_4 1_555 1_555
C4_4 C5_4 1_555 1_555
C5_4 H1_4 1_555 1_555
C6_4 C5_4 1_555 1_555
C7_4 C6_4 1_555 1_555
H2_4 C7_4 1_555 1_555
C8_4 C7_4 1_555 1_555
C9_4 C4_4 1_555 1_555
H3_4 C9_4 1_555 1_555
Li3_4 O4_4 1_555 1_555
Zn3_4 O3_4 1_555 1_555
O10_4 Li4 1_555 1_555
C8_4 C9_4 1_555 1_555
O9_4 Zn4 1_555 1_555
Zn3_4 O1_3 1_555 1_555
Li3_2 O1_3 1_555 1_555
O8_3 Zn3_4 1_555 1_555
O11_3 Zn3_4 1_555 1_555
Li3_2 O11_3 1_555 1_555
Li3_4 O5_3 1_555 1_555
O2_3 C1_5 1_555 1_555
O9_4 C2_5 1_555 1_555
O10_4 C2_5 1_555 1_555
O5_3 C3_5 1_555 1_555
C1_5 C4_5 1_555 1_555
C2_5 C6_5 1_555 1_555
C3_5 C8_5 1_555 1_555
C4_5 C5_5 1_555 1_555
C5_5 H1_5 1_555 1_555
C6_5 C5_5 1_555 1_555
C7_5 C6_5 1_555 1_555
H2_5 C7_5 1_555 1_555
C8_5 C7_5 1_555 1_555
C9_5 C4_5 1_555 1_555
H3_5 C9_5 1_555 1_555
Zn3_2 O2_3 1_555 1_555
O12_3 Li3_4 1_555 1_555
C8_5 C9_5 1_555 1_555
Li3 O6_3 1_555 1_555
Zn3 O7_3 1_555 1_555
Li3_2 O6_4 1_555 1_555
Zn3_2 O7_4 1_555 1_555
Zn3_3 O1_4 1_555 1_555
O1_4 C1_6 1_555 1_555
O2_4 C1_6 1_555 1_555
O9_3 C2_6 1_555 1_555
O10_3 C2_6 1_555 1_555
O5_4 C3_6 1_555 1_555
C1_6 C4_6 1_555 1_555
C2_6 C6_6 1_555 1_555
C3_6 C8_6 1_555 1_555
C4_6 C5_6 1_555 1_555
C5_6 H1_6 1_555 1_555
C6_6 C5_6 1_555 1_555
C7_6 C6_6 1_555 1_555
H2_6 C7_6 1_555 1_555
C8_6 C7_6 1_555 1_555
C9_6 C4_6 1_555 1_555
H3_6 C9_6 1_555 1_555
Li3 O1_4 1_555 1_555
Zn3 O2_4 1_555 1_555
O8_4 Zn3_3 1_555 1_555
O11_4 Zn3_3 1_555 1_555
C8_6 C9_6 1_555 1_555
Li3 O11_4 1_555 1_555
O12_4 Li3_3 1_555 1_555
O7_4 C1_7 1_555 1_555
O9_2 C2_7 1_555 1_555
O10_2 C2_7 1_555 1_555
O11_3 C3_7 1_555 1_555
O12_3 C3_7 1_555 1_555
C1_7 C4_7 1_555 1_555
C2_7 C6_7 1_555 1_555
C3_7 C8_7 1_555 1_555
C4_7 C5_7 1_555 1_555
C5_7 H1_7 1_555 1_555
C6_7 C5_7 1_555 1_555
C7_7 C6_7 1_555 1_555
H2_7 C7_7 1_555 1_555
C8_7 C7_7 1_555 1_555
C9_7 C4_7 1_555 1_555
H3_7 C9_7 1_555 1_555
C8_7 C9_7 1_555 1_555
O7_3 C1_8 1_555 1_555
O9 C2_8 1_555 1_555
C1_8 C4_8 1_555 1_555
C2_8 C6_8 1_555 1_555
C4_8 C5_8 1_555 1_555
C5_8 H1_8 1_555 1_555
C6_8 C5_8 1_555 1_555
C9_8 C4_8 1_555 1_555
H3_8 C9_8 1_555 1_555
O11_4 C3_8 1_555 1_555
O12_4 C3_8 1_555 1_555
C3_8 C8_8 1_555 1_555
H2_8 C7_8 1_555 1_555
C8_8 C7_8 1_555 1_555

#END
