
###############################################################################
#
# This file contains modified crystal structure data generated from the
# MOF subset of the Cambridge Structural Database (CSD) v543 
# hosted by the Cambridge Crystallographic Data Centre (CCDC).
#
# This work is licensed under the Creative Commons
# Attribution-NonCommercial-ShareAlike 4.0 International License.
# To view a copy of this license, visit
# http://creativecommons.org/licenses/by-nc-sa/4.0/
# or send a letter to
# Creative Commons, PO Box 1866, Mountain View, CA 94042, USA.
#
# CIF created using the CSD Python API on 29 September 2022
# The structure has been converted into the P1 space group
# The structure has a 3D framework
# The original CSD entry WAJJAU is in the tetragonal crystal system
# The original CSD entry WAJJAU is in a Sohncke space group
# The framework has been calculated to contain at least 10.0% void space
# The void calculation uses a probe of radius 1.32A, grid spacing 0.4
#
###############################################################################

data_WAJJAU
_chemical_formula_moiety         '(C72 H24 Li3 O37 Zn4)n'
_symmetry_cell_setting           triclinic
_symmetry_space_group_name_H-M   'P 1'
_symmetry_Int_Tables_number      1
_space_group_name_Hall           'P 1'
loop_
_symmetry_equiv_pos_site_id
_symmetry_equiv_pos_as_xyz
1 x,y,z
_cell_length_a                   16.3377(3)
_cell_length_b                   16.3377(3)
_cell_length_c                   11.2811(4)
_cell_angle_alpha                90
_cell_angle_beta                 90
_cell_angle_gamma                90
_cell_volume                     3011.16
loop_
_atom_site_label
_atom_site_type_symbol
_atom_site_fract_x
_atom_site_fract_y
_atom_site_fract_z
Zn1 Zn 0.173500(14) 0.416780(14) 0.16067(2)
O1 O 0.18135(8) 0.49768(9) 0.02303(12)
O7 O 0.19361(9) 0.51561(9) 0.25970(13)
O8 O 0.05954(11) 0.38997(9) 0.13027(14)
O9 O 0.24975(10) 0.32897(10) 0.15611(15)
Li3 Li 0.1745(2) 0.5965(2) 0.1274(3)
Li1 Li 0.0965(2) 0.3255(2) 0.3774(3)
O2 O 0.11003(9) 0.55954(11) 0.88027(14)
O3 O 0.32897(10) 0.24975(10) 0.84389(15)
O4 O 0.27079(11) 0.18443(11) 0.69231(17)
O5 O 0.01561(9) 0.30639(9) 0.50970(13)
C1 C 0.14469(13) 0.49845(12) 0.92425(18)
C2 C 0.27194(14) 0.23913(14) 0.7676(2)
C3 C 0.00416(13) 0.34356(13) 0.60864(19)
C4 C 0.14157(13) 0.42282(13) 0.84956(19)
C5 C 0.20407(13) 0.36516(13) 0.85154(19)
H1 H 0.2464 0.3699 0.9062
C6 C 0.20309(14) 0.30011(14) 0.7714(2)
C7 C 0.13902(14) 0.29277(14) 0.69099(19)
H2 H 0.1391 0.2503 0.6360
C8 C 0.07479(13) 0.34869(14) 0.69245(18)
C9 C 0.07687(14) 0.41442(13) 0.77093(18)
H3 H 0.0348 0.4528 0.7706
Zn2 Zn 0.083220(14) 0.673500(14) 0.91067(2)
Zn3 Zn 0.416780(14) 0.173500(14) 0.83933(2)
Li2 Li 0.3255(2) 0.0965(2) 0.6226(3)
O11 O 0.18443(11) 0.27079(11) 0.30769(17)
O12 O 0.12371(10) 0.43876(11) 0.38474(16)
O6 O 0.93876(11) 0.37629(10) 0.63474(16)
Zn4 Zn 0.916780(14) 0.326500(14) 0.41067(2)
Li4 Li 0.8255(2) 0.4035(2) 0.6274(3)
O10 O 0.99768(9) 0.31865(8) 0.27303(12)
O6_2 O 0.06124(11) 0.62371(10) 0.13474(16)
O10_2 O 0.00232(9) 0.68135(8) 0.77303(12)
Zn1_2 Zn 0.826500(14) 0.583220(14) 0.66067(2)
O1_2 O 0.81865(8) 0.50232(9) 0.52303(12)
O2_2 O 0.88997(9) 0.44046(11) 0.38027(14)
O3_2 O 0.67103(10) 0.75025(10) 0.34389(15)
O4_2 O 0.72921(11) 0.81557(11) 0.19231(17)
O5_2 O 0.98439(9) 0.69361(9) 0.00970(13)
C1_2 C 0.85531(13) 0.50155(12) 0.42425(18)
C2_2 C 0.72806(14) 0.76087(14) 0.2676(2)
C3_2 C 0.99584(13) 0.65644(13) 0.10864(19)
C4_2 C 0.85843(13) 0.57718(13) 0.34956(19)
C5_2 C 0.79593(13) 0.63484(13) 0.35154(19)
H1_2 H 0.7536 0.6301 0.4062
C6_2 C 0.79691(14) 0.69989(14) 0.2714(2)
C7_2 C 0.86098(14) 0.70723(14) 0.19099(19)
H2_2 H 0.8609 0.7497 0.1360
C8_2 C 0.92521(13) 0.65131(14) 0.19245(18)
C9_2 C 0.92313(14) 0.58558(13) 0.27093(18)
H3_2 H 0.9652 0.5472 0.2706
O7_2 O 0.80639(9) 0.48439(9) 0.75970(13)
O8_2 O 0.94046(11) 0.61003(9) 0.63027(14)
O9_2 O 0.75025(10) 0.67103(10) 0.65611(15)
Zn3_2 Zn 0.583220(14) 0.826500(14) 0.33933(2)
Li2_2 Li 0.6745(2) 0.9035(2) 0.1226(3)
Li1_2 Li 0.9035(2) 0.6745(2) 0.8774(3)
O11_2 O 0.81557(11) 0.72921(11) 0.80769(17)
O12_2 O 0.87629(10) 0.56124(11) 0.88474(16)
O3_3 O 0.25025(10) 0.82897(10) 0.59389(15)
O4_3 O 0.31557(11) 0.77079(11) 0.44231(17)
C1_3 C 0.00155(12) 0.64469(13) 0.67425(18)
C2_3 C 0.26087(14) 0.77194(14) 0.5176(2)
C3_3 C 0.15644(13) 0.50416(13) 0.35864(19)
C4_3 C 0.07718(13) 0.64157(13) 0.59956(19)
C5_3 C 0.13484(13) 0.70407(13) 0.60154(19)
H1_3 H 0.1301 0.7464 0.6562
C6_3 C 0.19989(14) 0.70309(14) 0.5214(2)
C7_3 C 0.20723(14) 0.63902(14) 0.44099(19)
H2_3 H 0.2497 0.6391 0.3860
C8_3 C 0.15131(14) 0.57479(13) 0.44245(18)
C9_3 C 0.08558(13) 0.57687(14) 0.52093(18)
H3_3 H 0.0472 0.5348 0.5206
O9_3 O 0.17103(10) 0.74975(10) 0.90611(15)
Zn3_3 Zn 0.326500(14) 0.916780(14) 0.58933(2)
Li2_3 Li 0.4035(2) 0.8255(2) 0.3726(3)
O11_3 O 0.22921(11) 0.68443(11) 0.05769(17)
O3_4 O 0.74975(10) 0.17103(10) 0.09389(15)
C1_4 C 0.99845(12) 0.35531(13) 0.17425(18)
C2_4 C 0.73913(14) 0.22806(14) 0.0176(2)
C4_4 C 0.92282(13) 0.35843(13) 0.09956(19)
C5_4 C 0.86516(13) 0.29593(13) 0.10154(19)
H1_4 H 0.8699 0.2536 0.1562
C6_4 C 0.80011(14) 0.29691(14) 0.0214(2)
C9_4 C 0.91442(13) 0.42313(14) 0.02093(18)
H3_4 H 0.9528 0.4652 0.0206
O9_4 O 0.82897(10) 0.25025(10) 0.40611(15)
Zn3_4 Zn 0.673500(14) 0.083220(14) 0.08933(2)
O4_4 O 0.68443(11) 0.22921(11) 0.94231(17)
C3_4 C 0.84356(13) 0.49584(13) 0.85864(19)
C7_4 C 0.79277(14) 0.36098(14) 0.94099(19)
H2_4 H 0.7503 0.3609 0.8860
C8_4 C 0.84869(14) 0.42521(13) 0.94245(18)
Li2_4 Li 0.5965(2) 0.1745(2) 0.8726(3)
O11_4 O 0.77079(11) 0.31557(11) 0.55769(17)
O2_3 O 0.38997(9) 0.05954(11) 0.86973(14)
O7_3 O 0.30639(9) 0.01561(9) 0.49030(13)
O5_3 O 0.48439(9) 0.80639(9) 0.24030(13)
O6_3 O 0.56124(11) 0.87629(10) 0.11526(16)
C3_5 C 0.49584(13) 0.84356(13) 0.14136(19)
C7_5 C 0.36098(14) 0.79277(14) 0.05901(19)
H2_5 H 0.3609 0.7503 0.1140
C8_5 C 0.42521(13) 0.84869(14) 0.05755(18)
O10_3 O 0.50232(9) 0.81865(8) 0.47697(12)
O12_3 O 0.37629(10) 0.93876(11) 0.36526(16)
O1_3 O 0.31865(8) 0.99768(9) 0.72697(12)
C1_5 C 0.35531(13) 0.99845(12) 0.82575(18)
C2_5 C 0.22806(14) 0.73913(14) 0.9824(2)
C4_5 C 0.35843(13) 0.92282(13) 0.90044(19)
C5_5 C 0.29593(13) 0.86516(13) 0.89846(19)
H1_5 H 0.2536 0.8699 0.8438
C6_5 C 0.29691(14) 0.80011(14) 0.9786(2)
C9_5 C 0.42313(14) 0.91442(13) 0.97907(18)
H3_5 H 0.4652 0.9528 0.9794
O8_3 O 0.44046(11) 0.88997(9) 0.61973(14)
O1_4 O 0.68135(8) 0.00232(9) 0.22697(12)
O5_4 O 0.51561(9) 0.19361(9) 0.74030(13)
O6_4 O 0.43876(11) 0.12371(10) 0.61526(16)
C1_6 C 0.64469(13) 0.00155(12) 0.32575(18)
C2_6 C 0.77194(14) 0.26087(14) 0.4824(2)
C3_6 C 0.50416(13) 0.15644(13) 0.64136(19)
C4_6 C 0.64157(13) 0.07718(13) 0.40044(19)
C5_6 C 0.70407(13) 0.13484(13) 0.39846(19)
H1_6 H 0.7464 0.1301 0.3438
C6_6 C 0.70309(14) 0.19989(14) 0.4786(2)
C7_6 C 0.63902(14) 0.20723(14) 0.55901(19)
H2_6 H 0.6391 0.2497 0.6140
C8_6 C 0.57479(13) 0.15131(14) 0.55755(18)
C9_6 C 0.57687(14) 0.08558(13) 0.47907(18)
H3_6 H 0.5348 0.0472 0.4794
O8_4 O 0.55954(11) 0.11003(9) 0.11973(14)
O10_4 O 0.49768(9) 0.18135(8) 0.97697(12)
O12_4 O 0.62371(10) 0.06124(11) 0.86526(16)
O2_4 O 0.61003(9) 0.94046(11) 0.36973(14)
O7_4 O 0.69361(9) 0.98439(9) 0.99030(13)
C1_7 C 0.49845(12) 0.14469(13) 0.07575(18)
C2_7 C 0.23913(14) 0.27194(14) 0.2324(2)
C3_7 C 0.34356(13) 0.00416(13) 0.39136(19)
C4_7 C 0.42282(13) 0.14157(13) 0.15044(19)
C5_7 C 0.36516(13) 0.20407(13) 0.14846(19)
H1_7 H 0.3699 0.2464 0.0938
C6_7 C 0.30011(14) 0.20309(14) 0.2286(2)
C7_7 C 0.29277(14) 0.13902(14) 0.30901(19)
H2_7 H 0.2503 0.1391 0.3640
C8_7 C 0.34869(14) 0.07479(13) 0.30755(18)
C9_7 C 0.41442(13) 0.07687(14) 0.22907(18)
H3_7 H 0.4528 0.0348 0.2294
C1_8 C 0.50155(12) 0.85531(13) 0.57575(18)
C2_8 C 0.76087(14) 0.72806(14) 0.7324(2)
C3_8 C 0.65644(13) 0.99584(13) 0.89136(19)
C4_8 C 0.57718(13) 0.85843(13) 0.65044(19)
C5_8 C 0.63484(13) 0.79593(13) 0.64846(19)
H1_8 H 0.6301 0.7536 0.5938
C6_8 C 0.69989(14) 0.79691(14) 0.7286(2)
C7_8 C 0.70723(14) 0.86098(14) 0.80901(19)
H2_8 H 0.7497 0.8609 0.8640
C8_8 C 0.65131(14) 0.92521(13) 0.80755(18)
C9_8 C 0.58558(13) 0.92313(14) 0.72907(18)
H3_8 H 0.5472 0.9652 0.7294
loop_
_geom_bond_atom_site_label_1
_geom_bond_atom_site_label_2
_geom_bond_site_symmetry_1
_geom_bond_site_symmetry_2
Zn1 O1 1_555 1_555
O7 Zn1 1_555 1_555
O8 Zn1 1_555 1_555
O9 Zn1 1_555 1_555
Li3 O1 1_555 1_555
O7 Li3 1_555 1_555
Li1 O5 1_555 1_555
O2 C1 1_555 1_555
O3 C2 1_555 1_555
O4 C2 1_555 1_555
O5 C3 1_555 1_555
C1 C4 1_555 1_555
C2 C6 1_555 1_555
C3 C8 1_555 1_555
C4 C5 1_555 1_555
C5 H1 1_555 1_555
C6 C5 1_555 1_555
C7 C6 1_555 1_555
H2 C7 1_555 1_555
C8 C7 1_555 1_555
C9 C4 1_555 1_555
H3 C9 1_555 1_555
Zn2 O2 1_555 1_555
Zn3 O3 1_555 1_555
Li2 O4 1_555 1_555
O11 Li1 1_555 1_555
O12 Li1 1_555 1_555
C8 C9 1_555 1_555
Li4 O6 1_555 1_555
Zn4 O10 1_555 1_555
Li3 O6_2 1_555 1_555
Zn2 O10_2 1_555 1_555
Zn1_2 O1_2 1_555 1_555
O1_2 C1_2 1_555 1_555
O2_2 C1_2 1_555 1_555
O3_2 C2_2 1_555 1_555
O4_2 C2_2 1_555 1_555
O5_2 C3_2 1_555 1_555
C1_2 C4_2 1_555 1_555
C2_2 C6_2 1_555 1_555
C3_2 C8_2 1_555 1_555
C4_2 C5_2 1_555 1_555
C5_2 H1_2 1_555 1_555
C6_2 C5_2 1_555 1_555
C7_2 C6_2 1_555 1_555
H2_2 C7_2 1_555 1_555
C8_2 C7_2 1_555 1_555
C9_2 C4_2 1_555 1_555
H3_2 C9_2 1_555 1_555
O7_2 Zn1_2 1_555 1_555
O8_2 Zn1_2 1_555 1_555
O9_2 Zn1_2 1_555 1_555
Zn4 O2_2 1_555 1_555
Zn3_2 O3_2 1_555 1_555
Li2_2 O4_2 1_555 1_555
Li4 O1_2 1_555 1_555
C8_2 C9_2 1_555 1_555
O7_2 Li4 1_555 1_555
O11_2 Li1_2 1_555 1_555
O12_2 Li1_2 1_555 1_555
O10_2 C1_3 1_555 1_555
O3_3 C2_3 1_555 1_555
O4_3 C2_3 1_555 1_555
O7 C3_3 1_555 1_555
O12 C3_3 1_555 1_555
C1_3 C4_3 1_555 1_555
C2_3 C6_3 1_555 1_555
C3_3 C8_3 1_555 1_555
C4_3 C5_3 1_555 1_555
C5_3 H1_3 1_555 1_555
C6_3 C5_3 1_555 1_555
C7_3 C6_3 1_555 1_555
H2_3 C7_3 1_555 1_555
C8_3 C7_3 1_555 1_555
C9_3 C4_3 1_555 1_555
H3_3 C9_3 1_555 1_555
O9_3 Zn2 1_555 1_555
Zn3_3 O3_3 1_555 1_555
Li2_3 O4_3 1_555 1_555
O11_3 Li3 1_555 1_555
C8_3 C9_3 1_555 1_555
O10 C1_4 1_555 1_555
O3_4 C2_4 1_555 1_555
C1_4 C4_4 1_555 1_555
C2_4 C6_4 1_555 1_555
C4_4 C5_4 1_555 1_555
C5_4 H1_4 1_555 1_555
C6_4 C5_4 1_555 1_555
C9_4 C4_4 1_555 1_555
H3_4 C9_4 1_555 1_555
O9_4 Zn4 1_555 1_555
Zn3_4 O3_4 1_555 1_555
O7_2 C3_4 1_555 1_555
O12_2 C3_4 1_555 1_555
C3_4 C8_4 1_555 1_555
H2_4 C7_4 1_555 1_555
C8_4 C7_4 1_555 1_555
Li2_4 O4_4 1_555 1_555
O11_4 Li4 1_555 1_555
Zn3 O2_3 1_555 1_555
O7_3 Li2 1_555 1_555
Li2_3 O5_3 1_555 1_555
O5_3 C3_5 1_555 1_555
O6_3 C3_5 1_555 1_555
C3_5 C8_5 1_555 1_555
H2_5 C7_5 1_555 1_555
C8_5 C7_5 1_555 1_555
Zn3_2 O5_3 1_555 1_555
Li2_2 O6_3 1_555 1_555
O10_3 Li2_3 1_555 1_555
O12_3 Li2_3 1_555 1_555
Zn3_2 O10_3 1_555 1_555
Zn3_3 O1_3 1_555 1_555
O1_3 C1_5 1_555 1_555
O9_3 C2_5 1_555 1_555
C1_5 C4_5 1_555 1_555
C2_5 C6_5 1_555 1_555
C4_5 C5_5 1_555 1_555
C5_5 H1_5 1_555 1_555
C6_5 C5_5 1_555 1_555
C9_5 C4_5 1_555 1_555
H3_5 C9_5 1_555 1_555
O8_3 Zn3_3 1_555 1_555
Li2_4 O5_4 1_555 1_555
Zn3_4 O1_4 1_555 1_555
O1_4 C1_6 1_555 1_555
O9_4 C2_6 1_555 1_555
O11_4 C2_6 1_555 1_555
O5_4 C3_6 1_555 1_555
O6_4 C3_6 1_555 1_555
C1_6 C4_6 1_555 1_555
C2_6 C6_6 1_555 1_555
C3_6 C8_6 1_555 1_555
C4_6 C5_6 1_555 1_555
C5_6 H1_6 1_555 1_555
C6_6 C5_6 1_555 1_555
C7_6 C6_6 1_555 1_555
H2_6 C7_6 1_555 1_555
C8_6 C7_6 1_555 1_555
C9_6 C4_6 1_555 1_555
H3_6 C9_6 1_555 1_555
O8_4 Zn3_4 1_555 1_555
Zn3 O5_4 1_555 1_555
Li2 O6_4 1_555 1_555
O10_4 Li2_4 1_555 1_555
O12_4 Li2_4 1_555 1_555
C8_6 C9_6 1_555 1_555
Zn3 O10_4 1_555 1_555
Zn3_2 O2_4 1_555 1_555
O8_4 C1_7 1_555 1_555
O9 C2_7 1_555 1_555
O11 C2_7 1_555 1_555
O7_3 C3_7 1_555 1_555
C1_7 C4_7 1_555 1_555
C2_7 C6_7 1_555 1_555
C3_7 C8_7 1_555 1_555
C4_7 C5_7 1_555 1_555
C5_7 H1_7 1_555 1_555
C6_7 C5_7 1_555 1_555
C7_7 C6_7 1_555 1_555
H2_7 C7_7 1_555 1_555
C8_7 C7_7 1_555 1_555
C9_7 C4_7 1_555 1_555
H3_7 C9_7 1_555 1_555
C8_7 C9_7 1_555 1_555
O10_3 C1_8 1_555 1_555
O8_3 C1_8 1_555 1_555
O9_2 C2_8 1_555 1_555
O11_2 C2_8 1_555 1_555
O7_4 C3_8 1_555 1_555
C1_8 C4_8 1_555 1_555
C2_8 C6_8 1_555 1_555
C3_8 C8_8 1_555 1_555
C4_8 C5_8 1_555 1_555
C5_8 H1_8 1_555 1_555
C6_8 C5_8 1_555 1_555
C7_8 C6_8 1_555 1_555
H2_8 C7_8 1_555 1_555
C8_8 C7_8 1_555 1_555
C9_8 C4_8 1_555 1_555
H3_8 C9_8 1_555 1_555
C8_8 C9_8 1_555 1_555

#END
