
###############################################################################
#
# This file contains modified crystal structure data generated from the
# MOF subset of the Cambridge Structural Database (CSD) v543 
# hosted by the Cambridge Crystallographic Data Centre (CCDC).
#
# This work is licensed under the Creative Commons
# Attribution-NonCommercial-ShareAlike 4.0 International License.
# To view a copy of this license, visit
# http://creativecommons.org/licenses/by-nc-sa/4.0/
# or send a letter to
# Creative Commons, PO Box 1866, Mountain View, CA 94042, USA.
#
# CIF created using the CSD Python API on 29 September 2022
# The structure has been converted into the P1 space group
# The structure has a 3D framework
# The original CSD entry WAJJOI is in the tetragonal crystal system
# The original CSD entry WAJJOI is in a Sohncke space group
# The framework has been calculated to contain at least 10.0% void space
# The void calculation uses a probe of radius 1.32A, grid spacing 0.4
#
###############################################################################

data_WAJJOI
_chemical_formula_moiety         '(C72 H24 Li3 O37 Zn4)n'
_symmetry_cell_setting           triclinic
_symmetry_space_group_name_H-M   'P 1'
_symmetry_Int_Tables_number      1
_space_group_name_Hall           'P 1'
loop_
_symmetry_equiv_pos_site_id
_symmetry_equiv_pos_as_xyz
1 x,y,z
_cell_length_a                   16.3136(1)
_cell_length_b                   16.3136(1)
_cell_length_c                   11.3049(2)
_cell_angle_alpha                90
_cell_angle_beta                 90
_cell_angle_gamma                90
_cell_volume                     3008.61
loop_
_atom_site_label
_atom_site_type_symbol
_atom_site_fract_x
_atom_site_fract_y
_atom_site_fract_z
Li1 Li 0.0962(7) 0.3246(7) 0.6231(11)
O2 O 0.1079(3) 0.5578(3) 0.1182(5)
O3 O 0.3291(3) 0.2491(3) 0.1558(5)
O4 O 0.2686(3) 0.1817(3) 0.3033(5)
O5 O 0.0156(3) 0.3065(3) 0.4905(4)
C1 C 0.1429(4) 0.4974(4) 0.0753(7)
C2 C 0.2708(4) 0.2379(4) 0.2317(6)
C3 C 0.0036(4) 0.3429(4) 0.3924(7)
C4 C 0.1402(4) 0.4213(4) 0.1494(6)
C5 C 0.2017(4) 0.3635(4) 0.1464(6)
H1 H 0.2433 0.3674 0.0904
C6 C 0.2016(4) 0.2991(5) 0.2275(7)
C7 C 0.1384(5) 0.2913(4) 0.3087(6)
H2 H 0.1385 0.2490 0.3638
C8 C 0.0740(4) 0.3486(4) 0.3062(6)
C9 C 0.0755(5) 0.4124(4) 0.2288(6)
H3 H 0.0330 0.4505 0.2289
Zn2 Zn 0.08334(5) 0.67293(5) 0.08885(8)
Zn3 Zn 0.41666(5) 0.17293(5) 0.16115(8)
Li2 Li 0.3246(7) 0.0962(7) 0.3769(11)
O11 O 0.1817(3) 0.2686(3) 0.6967(5)
O12 O 0.1249(3) 0.4373(3) 0.6165(5)
Zn1 Zn 0.17293(5) 0.41666(5) 0.83885(8)
O1 O 0.1805(3) 0.4970(3) 0.9765(4)
O7 O 0.1935(3) 0.5156(3) 0.7405(4)
O8 O 0.0578(3) 0.3921(3) 0.8682(5)
O9 O 0.2491(3) 0.3291(3) 0.8442(5)
Li3 Li 0.1754(7) 0.5962(7) 0.8731(11)
O6 O 0.9373(3) 0.3751(3) 0.3665(5)
Zn4 Zn 0.91666(5) 0.32707(5) 0.58885(8)
Li4 Li 0.8246(7) 0.4038(7) 0.3731(11)
O10 O 0.9970(3) 0.3195(3) 0.7265(4)
O10_2 O 0.0030(3) 0.6805(3) 0.2265(4)
O6_2 O 0.0627(3) 0.6249(3) 0.8665(5)
Li1_2 Li 0.9038(7) 0.6754(7) 0.1231(11)
O11_2 O 0.8183(3) 0.7314(3) 0.1967(5)
O12_2 O 0.8751(3) 0.5627(3) 0.1165(5)
Zn1_2 Zn 0.82707(5) 0.58334(5) 0.33885(8)
O1_2 O 0.8195(3) 0.5030(3) 0.4765(4)
O2_2 O 0.8921(3) 0.4422(3) 0.6182(5)
O3_2 O 0.6709(3) 0.7509(3) 0.6558(5)
O4_2 O 0.7314(3) 0.8183(3) 0.8033(5)
O5_2 O 0.9844(3) 0.6935(3) 0.9905(4)
C1_2 C 0.8571(4) 0.5026(4) 0.5753(7)
C2_2 C 0.7292(4) 0.7621(4) 0.7317(6)
C3_2 C 0.9964(4) 0.6571(4) 0.8924(7)
C4_2 C 0.8598(4) 0.5787(4) 0.6494(6)
C5_2 C 0.7983(4) 0.6365(4) 0.6464(6)
H1_2 H 0.7567 0.6326 0.5904
C6_2 C 0.7984(4) 0.7009(5) 0.7275(7)
C7_2 C 0.8616(5) 0.7087(4) 0.8087(6)
H2_2 H 0.8615 0.7510 0.8638
C8_2 C 0.9260(4) 0.6514(4) 0.8062(6)
C9_2 C 0.9245(5) 0.5876(4) 0.7288(6)
H3_2 H 0.9670 0.5495 0.7289
O7_2 O 0.8065(3) 0.4844(3) 0.2405(4)
O8_2 O 0.9422(3) 0.6079(3) 0.3682(5)
O9_2 O 0.7509(3) 0.6709(3) 0.3442(5)
Zn3_2 Zn 0.58334(5) 0.82707(5) 0.66115(8)
Li2_2 Li 0.6754(7) 0.9038(7) 0.8769(11)
O3_3 O 0.2509(3) 0.8291(3) 0.4058(5)
O4_3 O 0.3183(3) 0.7686(3) 0.5533(5)
C1_3 C 0.0026(4) 0.6429(4) 0.3253(7)
C2_3 C 0.2621(4) 0.7708(4) 0.4817(6)
C3_3 C 0.1571(4) 0.5036(4) 0.6424(7)
C4_3 C 0.0787(4) 0.6402(4) 0.3994(6)
C5_3 C 0.1365(4) 0.7017(4) 0.3964(6)
H1_3 H 0.1326 0.7433 0.3404
C6_3 C 0.2009(5) 0.7016(4) 0.4775(7)
C7_3 C 0.2087(4) 0.6384(5) 0.5587(6)
H2_3 H 0.2510 0.6385 0.6138
C8_3 C 0.1514(4) 0.5740(4) 0.5562(6)
C9_3 C 0.0876(4) 0.5755(5) 0.4788(6)
H3_3 H 0.0495 0.5330 0.4789
O9_3 O 0.1709(3) 0.7491(3) 0.0942(5)
Zn3_3 Zn 0.32707(5) 0.91666(5) 0.41115(8)
Li2_3 Li 0.4038(7) 0.8246(7) 0.6269(11)
O11_3 O 0.2314(3) 0.6817(3) 0.9467(5)
O4_4 O 0.6817(3) 0.2314(3) 0.0533(5)
C3_4 C 0.8429(4) 0.4964(4) 0.1424(7)
C7_4 C 0.7913(4) 0.3616(5) 0.0587(6)
H2_4 H 0.7490 0.3615 0.1138
C8_4 C 0.8486(4) 0.4260(4) 0.0562(6)
Li2_4 Li 0.5962(7) 0.1754(7) 0.1269(11)
O11_4 O 0.7686(3) 0.3183(3) 0.4467(5)
O3_4 O 0.7491(3) 0.1709(3) 0.9058(5)
C1_4 C 0.9974(4) 0.3571(4) 0.8253(7)
C2_4 C 0.7379(4) 0.2292(4) 0.9817(6)
C4_4 C 0.9213(4) 0.3598(4) 0.8994(6)
C5_4 C 0.8635(4) 0.2983(4) 0.8964(6)
H1_4 H 0.8674 0.2567 0.8404
C6_4 C 0.7991(5) 0.2984(4) 0.9775(7)
C9_4 C 0.9124(4) 0.4245(5) 0.9788(6)
H3_4 H 0.9505 0.4670 0.9789
O9_4 O 0.8291(3) 0.2509(3) 0.5942(5)
Zn3_4 Zn 0.67293(5) 0.08334(5) 0.91115(8)
O2_3 O 0.3921(3) 0.0578(3) 0.1318(5)
O7_3 O 0.3065(3) 0.0156(3) 0.5095(4)
O1_3 O 0.3195(3) 0.9970(3) 0.2735(4)
C1_5 C 0.3571(4) 0.9974(4) 0.1747(7)
C2_5 C 0.2292(4) 0.7379(4) 0.0183(6)
C4_5 C 0.3598(4) 0.9213(4) 0.1006(6)
C5_5 C 0.2983(4) 0.8635(4) 0.1036(6)
H1_5 H 0.2567 0.8674 0.1596
C6_5 C 0.2984(4) 0.7991(5) 0.0225(7)
C9_5 C 0.4245(5) 0.9124(4) 0.0212(6)
H3_5 H 0.4670 0.9505 0.0211
O8_3 O 0.4422(3) 0.8921(3) 0.3818(5)
O5_3 O 0.4844(3) 0.8065(3) 0.7595(4)
O6_3 O 0.5627(3) 0.8751(3) 0.8835(5)
C3_5 C 0.4964(4) 0.8429(4) 0.8576(7)
C7_5 C 0.3616(5) 0.7913(4) 0.9413(6)
H2_5 H 0.3615 0.7490 0.8862
C8_5 C 0.4260(4) 0.8486(4) 0.9438(6)
O10_3 O 0.5030(3) 0.8195(3) 0.5235(4)
O12_3 O 0.3751(3) 0.9373(3) 0.6335(5)
O1_4 O 0.6805(3) 0.0030(3) 0.7735(4)
O5_4 O 0.5156(3) 0.1935(3) 0.2595(4)
O6_4 O 0.4373(3) 0.1249(3) 0.3835(5)
C1_6 C 0.6429(4) 0.0026(4) 0.6747(7)
C2_6 C 0.7708(4) 0.2621(4) 0.5183(6)
C3_6 C 0.5036(4) 0.1571(4) 0.3576(7)
C4_6 C 0.6402(4) 0.0787(4) 0.6006(6)
C5_6 C 0.7017(4) 0.1365(4) 0.6036(6)
H1_6 H 0.7433 0.1326 0.6596
C6_6 C 0.7016(4) 0.2009(5) 0.5225(7)
C7_6 C 0.6384(5) 0.2087(4) 0.4413(6)
H2_6 H 0.6385 0.2510 0.3862
C8_6 C 0.5740(4) 0.1514(4) 0.4438(6)
C9_6 C 0.5755(5) 0.0876(4) 0.5212(6)
H3_6 H 0.5330 0.0495 0.5211
O8_4 O 0.5578(3) 0.1079(3) 0.8818(5)
O10_4 O 0.4970(3) 0.1805(3) 0.0235(4)
O12_4 O 0.6249(3) 0.0627(3) 0.1335(5)
O7_4 O 0.6935(3) 0.9844(3) 0.0095(4)
O2_4 O 0.6079(3) 0.9422(3) 0.6318(5)
C1_7 C 0.4974(4) 0.1429(4) 0.9247(7)
C2_7 C 0.2379(4) 0.2708(4) 0.7683(6)
C3_7 C 0.3429(4) 0.0036(4) 0.6076(7)
C4_7 C 0.4213(4) 0.1402(4) 0.8506(6)
C5_7 C 0.3635(4) 0.2017(4) 0.8536(6)
H1_7 H 0.3674 0.2433 0.9096
C6_7 C 0.2991(5) 0.2016(4) 0.7725(7)
C7_7 C 0.2913(4) 0.1384(5) 0.6913(6)
H2_7 H 0.2490 0.1385 0.6362
C8_7 C 0.3486(4) 0.0740(4) 0.6938(6)
C9_7 C 0.4124(4) 0.0755(5) 0.7712(6)
H3_7 H 0.4505 0.0330 0.7711
C1_8 C 0.5026(4) 0.8571(4) 0.4247(7)
C2_8 C 0.7621(4) 0.7292(4) 0.2683(6)
C3_8 C 0.6571(4) 0.9964(4) 0.1076(7)
C4_8 C 0.5787(4) 0.8598(4) 0.3506(6)
C5_8 C 0.6365(4) 0.7983(4) 0.3536(6)
H1_8 H 0.6326 0.7567 0.4096
C6_8 C 0.7009(5) 0.7984(4) 0.2725(7)
C7_8 C 0.7087(4) 0.8616(5) 0.1913(6)
H2_8 H 0.7510 0.8615 0.1362
C8_8 C 0.6514(4) 0.9260(4) 0.1938(6)
C9_8 C 0.5876(4) 0.9245(5) 0.2712(6)
H3_8 H 0.5495 0.9670 0.2711
loop_
_geom_bond_atom_site_label_1
_geom_bond_atom_site_label_2
_geom_bond_site_symmetry_1
_geom_bond_site_symmetry_2
Li1 O5 1_555 1_555
O2 C1 1_555 1_555
O3 C2 1_555 1_555
O4 C2 1_555 1_555
O5 C3 1_555 1_555
C1 C4 1_555 1_555
C2 C6 1_555 1_555
C3 C8 1_555 1_555
C4 C5 1_555 1_555
C5 H1 1_555 1_555
C6 C5 1_555 1_555
C7 C6 1_555 1_555
H2 C7 1_555 1_555
C8 C7 1_555 1_555
C9 C4 1_555 1_555
H3 C9 1_555 1_555
Zn2 O2 1_555 1_555
Zn3 O3 1_555 1_555
Li2 O4 1_555 1_555
O11 Li1 1_555 1_555
O12 Li1 1_555 1_555
C8 C9 1_555 1_555
Zn1 O1 1_555 1_555
O7 Zn1 1_555 1_555
O8 Zn1 1_555 1_555
O9 Zn1 1_555 1_555
Li3 O1 1_555 1_555
O7 Li3 1_555 1_555
Li4 O6 1_555 1_555
Zn4 O10 1_555 1_555
Zn2 O10_2 1_555 1_555
Li3 O6_2 1_555 1_555
O11_2 Li1_2 1_555 1_555
O12_2 Li1_2 1_555 1_555
Zn1_2 O1_2 1_555 1_555
O1_2 C1_2 1_555 1_555
O2_2 C1_2 1_555 1_555
O3_2 C2_2 1_555 1_555
O4_2 C2_2 1_555 1_555
O5_2 C3_2 1_555 1_555
C1_2 C4_2 1_555 1_555
C2_2 C6_2 1_555 1_555
C3_2 C8_2 1_555 1_555
C4_2 C5_2 1_555 1_555
C5_2 H1_2 1_555 1_555
C6_2 C5_2 1_555 1_555
C7_2 C6_2 1_555 1_555
H2_2 C7_2 1_555 1_555
C8_2 C7_2 1_555 1_555
C9_2 C4_2 1_555 1_555
H3_2 C9_2 1_555 1_555
O7_2 Zn1_2 1_555 1_555
O8_2 Zn1_2 1_555 1_555
O9_2 Zn1_2 1_555 1_555
Zn4 O2_2 1_555 1_555
Zn3_2 O3_2 1_555 1_555
Li2_2 O4_2 1_555 1_555
Li4 O1_2 1_555 1_555
C8_2 C9_2 1_555 1_555
O7_2 Li4 1_555 1_555
O10_2 C1_3 1_555 1_555
O3_3 C2_3 1_555 1_555
O4_3 C2_3 1_555 1_555
O7 C3_3 1_555 1_555
O12 C3_3 1_555 1_555
C1_3 C4_3 1_555 1_555
C2_3 C6_3 1_555 1_555
C3_3 C8_3 1_555 1_555
C4_3 C5_3 1_555 1_555
C5_3 H1_3 1_555 1_555
C6_3 C5_3 1_555 1_555
C7_3 C6_3 1_555 1_555
H2_3 C7_3 1_555 1_555
C8_3 C7_3 1_555 1_555
C9_3 C4_3 1_555 1_555
H3_3 C9_3 1_555 1_555
O9_3 Zn2 1_555 1_555
Zn3_3 O3_3 1_555 1_555
Li2_3 O4_3 1_555 1_555
O11_3 Li3 1_555 1_555
C8_3 C9_3 1_555 1_555
O7_2 C3_4 1_555 1_555
O12_2 C3_4 1_555 1_555
C3_4 C8_4 1_555 1_555
H2_4 C7_4 1_555 1_555
C8_4 C7_4 1_555 1_555
Li2_4 O4_4 1_555 1_555
O11_4 Li4 1_555 1_555
O10 C1_4 1_555 1_555
O3_4 C2_4 1_555 1_555
C1_4 C4_4 1_555 1_555
C2_4 C6_4 1_555 1_555
C4_4 C5_4 1_555 1_555
C5_4 H1_4 1_555 1_555
C6_4 C5_4 1_555 1_555
C9_4 C4_4 1_555 1_555
H3_4 C9_4 1_555 1_555
O9_4 Zn4 1_555 1_555
Zn3_4 O3_4 1_555 1_555
Zn3 O2_3 1_555 1_555
O7_3 Li2 1_555 1_555
Zn3_3 O1_3 1_555 1_555
O1_3 C1_5 1_555 1_555
O9_3 C2_5 1_555 1_555
C1_5 C4_5 1_555 1_555
C2_5 C6_5 1_555 1_555
C4_5 C5_5 1_555 1_555
C5_5 H1_5 1_555 1_555
C6_5 C5_5 1_555 1_555
C9_5 C4_5 1_555 1_555
H3_5 C9_5 1_555 1_555
O8_3 Zn3_3 1_555 1_555
Li2_3 O5_3 1_555 1_555
O5_3 C3_5 1_555 1_555
O6_3 C3_5 1_555 1_555
C3_5 C8_5 1_555 1_555
H2_5 C7_5 1_555 1_555
C8_5 C7_5 1_555 1_555
Zn3_2 O5_3 1_555 1_555
Li2_2 O6_3 1_555 1_555
O10_3 Li2_3 1_555 1_555
O12_3 Li2_3 1_555 1_555
Zn3_2 O10_3 1_555 1_555
Li2_4 O5_4 1_555 1_555
Zn3_4 O1_4 1_555 1_555
O1_4 C1_6 1_555 1_555
O9_4 C2_6 1_555 1_555
O11_4 C2_6 1_555 1_555
O5_4 C3_6 1_555 1_555
O6_4 C3_6 1_555 1_555
C1_6 C4_6 1_555 1_555
C2_6 C6_6 1_555 1_555
C3_6 C8_6 1_555 1_555
C4_6 C5_6 1_555 1_555
C5_6 H1_6 1_555 1_555
C6_6 C5_6 1_555 1_555
C7_6 C6_6 1_555 1_555
H2_6 C7_6 1_555 1_555
C8_6 C7_6 1_555 1_555
C9_6 C4_6 1_555 1_555
H3_6 C9_6 1_555 1_555
O8_4 Zn3_4 1_555 1_555
Zn3 O5_4 1_555 1_555
Li2 O6_4 1_555 1_555
O10_4 Li2_4 1_555 1_555
O12_4 Li2_4 1_555 1_555
C8_6 C9_6 1_555 1_555
Zn3 O10_4 1_555 1_555
Zn3_2 O2_4 1_555 1_555
O8_4 C1_7 1_555 1_555
O9 C2_7 1_555 1_555
O11 C2_7 1_555 1_555
O7_3 C3_7 1_555 1_555
C1_7 C4_7 1_555 1_555
C2_7 C6_7 1_555 1_555
C3_7 C8_7 1_555 1_555
C4_7 C5_7 1_555 1_555
C5_7 H1_7 1_555 1_555
C6_7 C5_7 1_555 1_555
C7_7 C6_7 1_555 1_555
H2_7 C7_7 1_555 1_555
C8_7 C7_7 1_555 1_555
C9_7 C4_7 1_555 1_555
H3_7 C9_7 1_555 1_555
C8_7 C9_7 1_555 1_555
O10_3 C1_8 1_555 1_555
O8_3 C1_8 1_555 1_555
O9_2 C2_8 1_555 1_555
O11_2 C2_8 1_555 1_555
O7_4 C3_8 1_555 1_555
C1_8 C4_8 1_555 1_555
C2_8 C6_8 1_555 1_555
C3_8 C8_8 1_555 1_555
C4_8 C5_8 1_555 1_555
C5_8 H1_8 1_555 1_555
C6_8 C5_8 1_555 1_555
C7_8 C6_8 1_555 1_555
H2_8 C7_8 1_555 1_555
C8_8 C7_8 1_555 1_555
C9_8 C4_8 1_555 1_555
H3_8 C9_8 1_555 1_555
C8_8 C9_8 1_555 1_555

#END
