
###############################################################################
#
# This file contains modified crystal structure data generated from the
# MOF subset of the Cambridge Structural Database (CSD) v543 
# hosted by the Cambridge Crystallographic Data Centre (CCDC).
#
# This work is licensed under the Creative Commons
# Attribution-NonCommercial-ShareAlike 4.0 International License.
# To view a copy of this license, visit
# http://creativecommons.org/licenses/by-nc-sa/4.0/
# or send a letter to
# Creative Commons, PO Box 1866, Mountain View, CA 94042, USA.
#
# CIF created using the CSD Python API on 29 September 2022
# The structure has been converted into the P1 space group
# The structure has a 3D framework
# The original CSD entry WALBOC01 is in the orthorhombic crystal system
# The framework has been calculated to contain at least 10.0% void space
# The void calculation uses a probe of radius 1.32A, grid spacing 0.4
#
###############################################################################

data_WALBOC01
_chemical_formula_moiety         '(C48 H48 N64 O32 Zn16)n'
_symmetry_cell_setting           triclinic
_symmetry_space_group_name_H-M   'P 1'
_symmetry_Int_Tables_number      1
_space_group_name_Hall           'P 1'
loop_
_symmetry_equiv_pos_site_id
_symmetry_equiv_pos_as_xyz
1 x,y,z
_cell_length_a                   13.8034(2)
_cell_length_b                   12.9639(2)
_cell_length_c                   16.8318(3)
_cell_angle_alpha                90
_cell_angle_beta                 90
_cell_angle_gamma                90
_cell_volume                     3011.98
loop_
_atom_site_label
_atom_site_type_symbol
_atom_site_fract_x
_atom_site_fract_y
_atom_site_fract_z
Zn4 Zn 0.02199(2) 0.07359(2) 0.403853(18)
Zn1 Zn 0.59259(2) 0.02386(3) 0.423968(18)
Zn2 Zn 0.52199(2) 0.07359(2) 0.096147(18)
C1 C 0.59028(18) 0.0278(2) 0.25394(16)
C2 C 0.49301(19) 0.0773(2) 0.27748(15)
O2 O 0.47688(13) 0.08394(16) 0.35041(11)
O3 O 0.44098(14) 0.10575(15) 0.22132(11)
O4 O 0.60861(14) 0.01752(17) 0.18153(11)
C4 C 0.81180(18) 0.0289(2) 0.40587(16)
H1 H 0.808(2) 0.050(2) 0.3554(19)
C5 C 0.45209(18) 0.2021(2) 0.58937(15)
C6 C 0.58105(18) 0.2221(2) 0.52303(15)
H2 H 0.646(2) 0.249(2) 0.4966(18)
N1 N 0.73659(15) 0.00498(16) 0.45285(12)
N2 N 0.89595(14) 0.01294(17) 0.43948(12)
N5 N 0.55337(15) 0.12709(17) 0.50907(12)
N6 N 0.46835(14) 0.11321(16) 0.55226(12)
N7 N 0.52141(15) 0.27342(16) 0.57287(13)
N8 N 0.37340(19) 0.2210(2) 0.63560(16)
H5 H 0.382(3) 0.274(3) 0.676(3)
H6 H 0.340(3) 0.162(3) 0.654(2)
Zn6 Zn 0.52199(2) 0.42641(2) 0.596147(18)
N9 N 0.39595(14) 0.01294(17) 0.06052(12)
N10 N 0.62395(14) 0.02496(16) 0.01497(12)
N12 N 0.52141(15) 0.22658(16) 0.07287(13)
O1 O 0.64482(13) 0.99931(16) 0.30866(11)
C3 C 0.77964(18) 0.9721(2) 0.52007(15)
N3 N 0.87605(14) 0.97504(16) 0.51497(12)
N4 N 0.73089(19) 0.9335(2) 0.58336(15)
H3 H 0.757(3) 0.939(3) 0.631(2)
H4 H 0.670(3) 0.942(3) 0.5895(19)
Zn3 Zn 0.40741(2) 0.97614(3) 0.576032(18)
Zn5 Zn 0.97801(2) 0.92641(2) 0.596147(18)
N11 N 0.53165(14) 0.88679(16) 0.44774(12)
Zn3_2 Zn 0.09259(2) 0.02386(3) 0.076032(18)
C2_2 C 0.00699(19) 0.9227(2) 0.77748(15)
O2_2 O 0.02312(13) 0.91606(16) 0.85041(11)
O3_2 O 0.05902(14) 0.89425(15) 0.72132(11)
N9_2 N 0.10405(14) 0.98706(17) 0.56052(12)
C3_2 C 0.72036(18) 0.0279(2) 0.02007(15)
N4_2 N 0.76911(19) 0.0665(2) 0.08336(15)
H3_2 H 0.743(3) 0.061(3) 0.131(2)
H4_2 H 0.830(3) 0.058(3) 0.0895(19)
C6_2 C 0.91895(18) 0.7779(2) 0.02303(15)
N5_2 N 0.94663(15) 0.87291(17) 0.00907(12)
N7_2 N 0.97859(15) 0.72658(16) 0.07287(13)
Zn6_2 Zn 0.97801(2) 0.57359(2) 0.096147(18)
Zn1_2 Zn 0.90741(2) 0.97614(3) 0.923968(18)
C1_2 C 0.90972(18) 0.9722(2) 0.75394(16)
O4_2 O 0.89139(14) 0.98248(17) 0.68153(11)
C4_2 C 0.68820(18) 0.9711(2) 0.90587(16)
H1_2 H 0.692(2) 0.950(2) 0.8554(19)
H2_2 H 0.854(2) 0.751(2) 0.9966(18)
N1_2 N 0.76341(15) 0.99502(16) 0.95285(12)
N2_2 N 0.60405(14) 0.98706(17) 0.93948(12)
Zn4_2 Zn 0.47801(2) 0.92641(2) 0.903853(18)
N12_2 N 0.97859(15) 0.77342(16) 0.57287(13)
Zn1_3 Zn 0.40741(2) 0.52386(3) 0.076032(18)
Zn2_2 Zn 0.47801(2) 0.57359(2) 0.403853(18)
C1_3 C 0.40972(18) 0.5278(2) 0.24606(16)
C2_3 C 0.50699(19) 0.5773(2) 0.22252(15)
O1_2 O 0.35518(13) 0.49931(16) 0.19134(11)
O2_3 O 0.52312(13) 0.58394(16) 0.14959(11)
O3_3 O 0.55902(14) 0.60575(15) 0.27868(11)
O4_3 O 0.39139(14) 0.51752(17) 0.31847(11)
C4_3 C 0.18820(18) 0.5289(2) 0.09413(16)
H1_3 H 0.192(2) 0.550(2) 0.1446(19)
H2_3 H 0.354(2) 0.749(2) 0.0034(18)
N1_3 N 0.26341(15) 0.50498(16) 0.04715(12)
N2_3 N 0.10405(14) 0.51294(17) 0.06052(12)
N9_3 N 0.60405(14) 0.51294(17) 0.43948(12)
N10_2 N 0.37605(14) 0.52496(16) 0.48503(12)
N11_2 N 0.46835(14) 0.38679(16) 0.05226(12)
N12_3 N 0.47859(15) 0.72658(16) 0.42713(13)
C3_3 C 0.22036(18) 0.4721(2) 0.97993(15)
C5_2 C 0.54791(18) 0.7021(2) 0.91063(15)
C6_3 C 0.41895(18) 0.7221(2) 0.97697(15)
N3_2 N 0.12395(14) 0.47504(16) 0.98503(12)
N4_3 N 0.26911(19) 0.4335(2) 0.91664(15)
H3_3 H 0.243(3) 0.439(3) 0.869(2)
H4_3 H 0.330(3) 0.442(3) 0.9105(19)
N5_3 N 0.44663(15) 0.62709(17) 0.99093(12)
N6_2 N 0.53165(14) 0.61321(16) 0.94774(12)
N7_3 N 0.47859(15) 0.77342(16) 0.92713(13)
N8_2 N 0.62660(19) 0.7210(2) 0.86440(16)
H5_2 H 0.618(3) 0.774(3) 0.824(3)
H6_2 H 0.660(3) 0.662(3) 0.846(2)
Zn3_3 Zn 0.59259(2) 0.47614(3) 0.923968(18)
Zn5_2 Zn 0.02199(2) 0.42641(2) 0.903853(18)
Zn1_4 Zn 0.09259(2) 0.47614(3) 0.576032(18)
C1_4 C 0.09028(18) 0.4722(2) 0.74606(16)
O1_3 O 0.14482(13) 0.50069(16) 0.69134(11)
O4_4 O 0.10861(14) 0.48248(17) 0.81847(11)
C3_4 C 0.27964(18) 0.5279(2) 0.47993(15)
C4_4 C 0.31180(18) 0.4711(2) 0.59413(16)
H1_4 H 0.308(2) 0.450(2) 0.6446(19)
C6_4 C 0.08105(18) 0.2779(2) 0.47697(15)
H2_4 H 0.146(2) 0.251(2) 0.5034(18)
N1_4 N 0.23659(15) 0.49502(16) 0.54715(12)
N2_4 N 0.39595(14) 0.48706(17) 0.56052(12)
N4_4 N 0.23089(19) 0.5665(2) 0.41664(15)
H3_4 H 0.257(3) 0.561(3) 0.369(2)
H4_4 H 0.170(3) 0.558(3) 0.4105(19)
N5_4 N 0.05337(15) 0.37291(17) 0.49093(12)
N7_4 N 0.02141(15) 0.22658(16) 0.42713(13)
N11_3 N 0.03165(14) 0.61321(16) 0.55226(12)
N12_4 N 0.02141(15) 0.27342(16) 0.92713(13)
C2_4 C 0.99301(19) 0.4227(2) 0.72252(15)
O2_4 O 0.97688(13) 0.41606(16) 0.64959(11)
O3_4 O 0.94098(14) 0.39425(15) 0.77868(11)
C5_3 C 0.95209(18) 0.2979(2) 0.41063(15)
N6_3 N 0.96835(14) 0.38679(16) 0.44774(12)
N8_3 N 0.87340(19) 0.2790(2) 0.36440(16)
H5_3 H 0.882(3) 0.226(3) 0.324(3)
H6_3 H 0.840(3) 0.338(3) 0.346(2)
Zn3_4 Zn 0.90741(2) 0.52386(3) 0.423968(18)
N9_4 N 0.89595(14) 0.48706(17) 0.93948(12)
O1_4 O 0.35518(13) 0.00069(16) 0.69134(11)
C3_5 C 0.22036(18) 0.0279(2) 0.47993(15)
N3_3 N 0.12395(14) 0.02496(16) 0.48503(12)
N4_5 N 0.26911(19) 0.0665(2) 0.41664(15)
H3_5 H 0.243(3) 0.061(3) 0.369(2)
H4_5 H 0.330(3) 0.058(3) 0.4105(19)
C1_5 C 0.40972(18) 0.9722(2) 0.74606(16)
C2_5 C 0.50699(19) 0.9227(2) 0.72252(15)
O2_5 O 0.52312(13) 0.91606(16) 0.64959(11)
O3_5 O 0.55902(14) 0.89425(15) 0.77868(11)
O4_5 O 0.39139(14) 0.98248(17) 0.81847(11)
C4_5 C 0.18820(18) 0.9711(2) 0.59413(16)
H1_5 H 0.192(2) 0.950(2) 0.6446(19)
C5_4 C 0.54791(18) 0.7979(2) 0.41063(15)
C6_5 C 0.41895(18) 0.7779(2) 0.47697(15)
H2_5 H 0.354(2) 0.751(2) 0.5034(18)
N1_5 N 0.26341(15) 0.99502(16) 0.54715(12)
N5_5 N 0.44663(15) 0.87291(17) 0.49093(12)
N8_4 N 0.62660(19) 0.7790(2) 0.36440(16)
H5_4 H 0.618(3) 0.726(3) 0.324(3)
H6_4 H 0.660(3) 0.838(3) 0.346(2)
N10_3 N 0.37605(14) 0.97504(16) 0.98503(12)
C1_6 C 0.09028(18) 0.0278(2) 0.24606(16)
O4_6 O 0.10861(14) 0.01752(17) 0.31847(11)
C4_6 C 0.31180(18) 0.0289(2) 0.09413(16)
H1_6 H 0.308(2) 0.050(2) 0.1446(19)
H2_6 H 0.146(2) 0.249(2) 0.0034(18)
N1_6 N 0.23659(15) 0.00498(16) 0.04715(12)
C6_6 C 0.08105(18) 0.2221(2) 0.97697(15)
N5_6 N 0.05337(15) 0.12709(17) 0.99093(12)
C3_6 C 0.27964(18) 0.9721(2) 0.97993(15)
N4_6 N 0.23089(19) 0.9335(2) 0.91664(15)
H3_6 H 0.257(3) 0.939(3) 0.869(2)
H4_6 H 0.170(3) 0.942(3) 0.9105(19)
C2_6 C 0.99301(19) 0.0773(2) 0.22252(15)
O2_6 O 0.97688(13) 0.08394(16) 0.14959(11)
O3_6 O 0.94098(14) 0.10575(15) 0.27868(11)
C3_7 C 0.77964(18) 0.5279(2) 0.02007(15)
C5_5 C 0.45209(18) 0.2979(2) 0.08937(15)
C6_7 C 0.58105(18) 0.2779(2) 0.02303(15)
N3_4 N 0.87605(14) 0.52496(16) 0.01497(12)
N4_7 N 0.73089(19) 0.5665(2) 0.08336(15)
H3_7 H 0.757(3) 0.561(3) 0.131(2)
H4_7 H 0.670(3) 0.558(3) 0.0895(19)
N5_7 N 0.55337(15) 0.37291(17) 0.00907(12)
N8_5 N 0.37340(19) 0.2790(2) 0.13560(16)
H5_5 H 0.382(3) 0.226(3) 0.176(3)
H6_5 H 0.340(3) 0.338(3) 0.154(2)
C1_7 C 0.59028(18) 0.4722(2) 0.75394(16)
C2_7 C 0.49301(19) 0.4227(2) 0.77748(15)
O1_5 O 0.64482(13) 0.50069(16) 0.80866(11)
O2_7 O 0.47688(13) 0.41606(16) 0.85041(11)
O3_7 O 0.44098(14) 0.39425(15) 0.72132(11)
O4_7 O 0.60861(14) 0.48248(17) 0.68153(11)
C4_7 C 0.81180(18) 0.4711(2) 0.90587(16)
H1_7 H 0.808(2) 0.450(2) 0.8554(19)
H2_7 H 0.646(2) 0.251(2) 0.9966(18)
N1_7 N 0.73659(15) 0.49502(16) 0.95285(12)
N10_4 N 0.62395(14) 0.47504(16) 0.51497(12)
C2_8 C 0.00699(19) 0.5773(2) 0.27748(15)
O2_8 O 0.02312(13) 0.58394(16) 0.35041(11)
O3_8 O 0.05902(14) 0.60575(15) 0.22132(11)
C5_6 C 0.04791(18) 0.7021(2) 0.58937(15)
N8_6 N 0.12660(19) 0.7210(2) 0.63560(16)
H5_6 H 0.118(3) 0.774(3) 0.676(3)
H6_6 H 0.160(3) 0.662(3) 0.654(2)
C1_8 C 0.90972(18) 0.5278(2) 0.25394(16)
O1_6 O 0.85518(13) 0.49931(16) 0.30866(11)
O4_8 O 0.89139(14) 0.51752(17) 0.18153(11)
C3_8 C 0.72036(18) 0.4721(2) 0.52007(15)
C4_8 C 0.68820(18) 0.5289(2) 0.40587(16)
H1_8 H 0.692(2) 0.550(2) 0.3554(19)
C6_8 C 0.91895(18) 0.7221(2) 0.52303(15)
H2_8 H 0.854(2) 0.749(2) 0.4966(18)
N1_8 N 0.76341(15) 0.50498(16) 0.45285(12)
N4_8 N 0.76911(19) 0.4335(2) 0.58336(15)
H3_8 H 0.743(3) 0.439(3) 0.631(2)
H4_8 H 0.830(3) 0.442(3) 0.5895(19)
N5_8 N 0.94663(15) 0.62709(17) 0.50907(12)
C5_7 C 0.04791(18) 0.7979(2) 0.08937(15)
N6_4 N 0.03165(14) 0.88679(16) 0.05226(12)
N8_7 N 0.12660(19) 0.7790(2) 0.13560(16)
H5_7 H 0.118(3) 0.726(3) 0.176(3)
H6_7 H 0.160(3) 0.838(3) 0.154(2)
O1_7 O 0.14482(13) 0.99931(16) 0.19134(11)
O1_8 O 0.85518(13) 0.00069(16) 0.80866(11)
N11_4 N 0.96835(14) 0.11321(16) 0.94774(12)
C5_8 C 0.95209(18) 0.2021(2) 0.91063(15)
N8_8 N 0.87340(19) 0.2210(2) 0.86440(16)
H5_8 H 0.882(3) 0.274(3) 0.824(3)
H6_8 H 0.840(3) 0.162(3) 0.846(2)
loop_
_geom_bond_atom_site_label_1
_geom_bond_atom_site_label_2
_geom_bond_site_symmetry_1
_geom_bond_site_symmetry_2
Zn2 O3 1_555 1_555
C1 C2 1_555 1_555
C2 O2 1_555 1_555
O2 Zn1 1_555 1_555
O3 C2 1_555 1_555
O4 Zn2 1_555 1_555
C4 H1 1_555 1_555
C5 N6 1_555 1_555
C6 H2 1_555 1_555
N1 Zn1 1_555 1_555
N2 C4 1_555 1_555
N5 Zn1 1_555 1_555
N6 N5 1_555 1_555
N7 C5 1_555 1_555
N8 C5 1_555 1_555
H5 N8 1_555 1_555
H6 N8 1_555 1_555
Zn6 N7 1_555 1_555
N9 Zn2 1_555 1_555
N10 Zn2 1_555 1_555
N12 Zn2 1_555 1_555
C1 O4 1_555 1_555
C4 N1 1_555 1_555
C6 N5 1_555 1_555
C6 N7 1_555 1_555
N3 C3 1_555 1_555
N4 C3 1_555 1_555
H3 N4 1_555 1_555
H4 N4 1_555 1_555
Zn5 N3 1_555 1_555
C2_2 O2_2 1_555 1_555
O3_2 C2_2 1_555 1_555
N10 C3_2 1_555 1_555
N4_2 C3_2 1_555 1_555
H3_2 N4_2 1_555 1_555
H4_2 N4_2 1_555 1_555
Zn6_2 N7_2 1_555 1_555
C6_2 N5_2 1_555 1_555
C6_2 N7_2 1_555 1_555
O4_2 Zn5 1_555 1_555
C4_2 H1_2 1_555 1_555
N1_2 Zn1_2 1_555 1_555
N2_2 C4_2 1_555 1_555
Zn4_2 N2_2 1_555 1_555
N12_2 Zn5 1_555 1_555
C1_2 O4_2 1_555 1_555
C4_2 N1_2 1_555 1_555
Zn1_3 O1_2 1_555 1_555
Zn2_2 O3_3 1_555 1_555
C1_3 C2_3 1_555 1_555
C2_3 O2_3 1_555 1_555
O1_2 C1_3 1_555 1_555
O2_3 Zn1_3 1_555 1_555
O3_3 C2_3 1_555 1_555
O4_3 Zn2_2 1_555 1_555
C4_3 H1_3 1_555 1_555
N1_3 Zn1_3 1_555 1_555
N2_3 C4_3 1_555 1_555
N9_3 Zn2_2 1_555 1_555
N10_2 Zn2_2 1_555 1_555
N11_2 Zn1_3 1_555 1_555
N12_3 Zn2_2 1_555 1_555
C1_3 O4_3 1_555 1_555
C4_3 N1_3 1_555 1_555
C5_2 N6_2 1_555 1_555
N3_2 C3_3 1_555 1_555
N4_3 C3_3 1_555 1_555
H3_3 N4_3 1_555 1_555
H4_3 N4_3 1_555 1_555
N6_2 N5_3 1_555 1_555
N7_3 C5_2 1_555 1_555
N8_2 C5_2 1_555 1_555
H5_2 N8_2 1_555 1_555
H6_2 N8_2 1_555 1_555
Zn3_3 N6_2 1_555 1_555
Zn5_2 N3_2 1_555 1_555
Zn4_2 N7_3 1_555 1_555
C6_3 N5_3 1_555 1_555
C6_3 N7_3 1_555 1_555
Zn1_4 O1_3 1_555 1_555
O1_3 C1_4 1_555 1_555
O4_4 Zn5_2 1_555 1_555
C3_4 N1_4 1_555 1_555
C4_4 H1_4 1_555 1_555
C6_4 H2_4 1_555 1_555
N1_4 Zn1_4 1_555 1_555
N2_4 C4_4 1_555 1_555
N10_2 C3_4 1_555 1_555
N4_4 C3_4 1_555 1_555
H3_4 N4_4 1_555 1_555
H4_4 N4_4 1_555 1_555
N5_4 Zn1_4 1_555 1_555
Zn6 N2_4 1_555 1_555
Zn4 N7_4 1_555 1_555
N11_3 Zn1_4 1_555 1_555
N12_4 Zn5_2 1_555 1_555
C1_4 O4_4 1_555 1_555
C4_4 N1_4 1_555 1_555
C6_4 N5_4 1_555 1_555
C6_4 N7_4 1_555 1_555
N2_4 N10_2 1_555 1_555
C2_4 O2_4 1_555 1_555
O3_4 C2_4 1_555 1_555
C5_3 N6_3 1_555 1_555
N8_3 C5_3 1_555 1_555
H5_3 N8_3 1_555 1_555
H6_3 N8_3 1_555 1_555
Zn3_4 N6_3 1_555 1_555
N3_3 C3_5 1_555 1_555
N4_5 C3_5 1_555 1_555
H3_5 N4_5 1_555 1_555
H4_5 N4_5 1_555 1_555
Zn4 N3_3 1_555 1_555
Zn4_2 O3_5 1_555 1_555
C1_5 C2_5 1_555 1_555
C2_5 O2_5 1_555 1_555
O2_5 Zn3 1_555 1_555
O3_5 C2_5 1_555 1_555
O4_5 Zn4_2 1_555 1_555
C4_5 H1_5 1_555 1_555
C5_4 N11 1_555 1_555
C6_5 H2_5 1_555 1_555
N1_5 Zn3 1_555 1_555
N9_2 C4_5 1_555 1_555
N5_5 Zn3 1_555 1_555
N11 N5_5 1_555 1_555
N12_3 C5_4 1_555 1_555
N8_4 C5_4 1_555 1_555
H5_4 N8_4 1_555 1_555
H6_4 N8_4 1_555 1_555
N10_3 Zn4_2 1_555 1_555
C1_5 O4_5 1_555 1_555
C4_5 N1_5 1_555 1_555
C6_5 N5_5 1_555 1_555
C6_5 N12_3 1_555 1_555
O4_6 Zn4 1_555 1_555
C4_6 H1_6 1_555 1_555
N1_6 Zn3_2 1_555 1_555
N9 C4_6 1_555 1_555
C1_6 O4_6 1_555 1_555
C4_6 N1_6 1_555 1_555
C6_6 N5_6 1_555 1_555
C6_6 N12_4 1_555 1_555
N10_3 C3_6 1_555 1_555
N4_6 C3_6 1_555 1_555
H3_6 N4_6 1_555 1_555
H4_6 N4_6 1_555 1_555
C2_6 O2_6 1_555 1_555
O3_6 C2_6 1_555 1_555
C5_5 N11_2 1_555 1_555
N3_4 C3_7 1_555 1_555
N4_7 C3_7 1_555 1_555
H3_7 N4_7 1_555 1_555
H4_7 N4_7 1_555 1_555
N11_2 N5_7 1_555 1_555
N12 C5_5 1_555 1_555
N8_5 C5_5 1_555 1_555
H5_5 N8_5 1_555 1_555
H6_5 N8_5 1_555 1_555
Zn6_2 N3_4 1_555 1_555
C6_7 N5_7 1_555 1_555
C6_7 N12 1_555 1_555
Zn3_3 O1_5 1_555 1_555
Zn6 O3_7 1_555 1_555
C1_7 C2_7 1_555 1_555
C2_7 O2_7 1_555 1_555
O1_5 C1_7 1_555 1_555
O2_7 Zn3_3 1_555 1_555
O3_7 C2_7 1_555 1_555
O4_7 Zn6 1_555 1_555
C4_7 H1_7 1_555 1_555
N1_7 Zn3_3 1_555 1_555
N9_4 C4_7 1_555 1_555
N10_4 Zn6 1_555 1_555
C1_7 O4_7 1_555 1_555
C4_7 N1_7 1_555 1_555
C2_8 O2_8 1_555 1_555
O3_8 C2_8 1_555 1_555
C5_6 N11_3 1_555 1_555
N8_6 C5_6 1_555 1_555
H5_6 N8_6 1_555 1_555
H6_6 N8_6 1_555 1_555
Zn3_4 O1_6 1_555 1_555
O1_6 C1_8 1_555 1_555
O4_8 Zn6_2 1_555 1_555
C3_8 N1_8 1_555 1_555
C4_8 H1_8 1_555 1_555
C6_8 H2_8 1_555 1_555
N1_8 Zn3_4 1_555 1_555
N9_3 C4_8 1_555 1_555
N10_4 C3_8 1_555 1_555
N4_8 C3_8 1_555 1_555
H3_8 N4_8 1_555 1_555
H4_8 N4_8 1_555 1_555
N5_8 Zn3_4 1_555 1_555
C1_8 O4_8 1_555 1_555
C4_8 N1_8 1_555 1_555
C6_8 N5_8 1_555 1_555
C6_8 N12_2 1_555 1_555
N9_3 N10_4 1_555 1_555
C5_7 N6_4 1_555 1_555
N8_7 C5_7 1_555 1_555
H5_7 N8_7 1_555 1_555
H6_7 N8_7 1_555 1_555
C5_8 N11_4 1_555 1_555
N8_8 C5_8 1_555 1_555
H5_8 N8_8 1_555 1_555
H6_8 N8_8 1_555 1_555

#END
