
###############################################################################
#
# This file contains modified crystal structure data generated from the
# MOF subset of the Cambridge Structural Database (CSD) v543 
# hosted by the Cambridge Crystallographic Data Centre (CCDC).
#
# This work is licensed under the Creative Commons
# Attribution-NonCommercial-ShareAlike 4.0 International License.
# To view a copy of this license, visit
# http://creativecommons.org/licenses/by-nc-sa/4.0/
# or send a letter to
# Creative Commons, PO Box 1866, Mountain View, CA 94042, USA.
#
# CIF created using the CSD Python API on 29 September 2022
# The structure has been converted into the P1 space group
# The structure has a 3D framework
# The original CSD entry WALCET is in the orthorhombic crystal system
# The framework has been calculated to contain at least 10.0% void space
# The void calculation uses a probe of radius 1.32A, grid spacing 0.4
#
###############################################################################

data_WALCET
_chemical_formula_moiety         '(C48 H48 N64 O32 Zn16)n'
_symmetry_cell_setting           triclinic
_symmetry_space_group_name_H-M   'P 1'
_symmetry_Int_Tables_number      1
_space_group_name_Hall           'P 1'
loop_
_symmetry_equiv_pos_site_id
_symmetry_equiv_pos_as_xyz
1 x,y,z
_cell_length_a                   13.8033(2)
_cell_length_b                   13.0094(2)
_cell_length_c                   16.8281(2)
_cell_angle_alpha                90
_cell_angle_beta                 90
_cell_angle_gamma                90
_cell_volume                     3021.87
loop_
_atom_site_label
_atom_site_type_symbol
_atom_site_fract_x
_atom_site_fract_y
_atom_site_fract_z
N9 N 0.05245(16) 0.62737(18) 0.00800(13)
Zn1 Zn 0.02213(2) 0.57439(3) 0.595510(19)
Zn2 Zn 0.09270(2) 0.52317(3) 0.92402(2)
C1 C 0.0897(2) 0.5316(3) 0.75430(17)
O1 O 0.10889(17) 0.5238(2) 0.68209(13)
O3 O 0.14419(15) 0.5023(2) 0.80866(13)
C4 C 0.0796(2) 0.7782(2) 0.52091(17)
H1 H 0.1342 0.7490 0.4978
N1 N 0.02076(17) 0.72711(18) 0.57098(14)
N2 N 0.05245(16) 0.87263(18) 0.50800(13)
Zn4 Zn 0.09270(2) 0.97683(3) 0.42402(2)
N10 N 0.03145(15) 0.38639(18) 0.94798(14)
N11 N 0.12401(16) 0.52300(18) 0.51552(13)
N12 N 0.23681(15) 0.50489(19) 0.95302(14)
Zn5 Zn 0.90730(2) 0.02317(3) 0.57598(2)
C2 C 0.9918(2) 0.5776(2) 0.77771(17)
O2 O 0.93961(18) 0.6054(2) 0.72168(13)
O4 O 0.97548(16) 0.5818(2) 0.85047(13)
C3 C 0.9526(2) 0.7978(2) 0.58850(17)
C5 C 0.77974(19) 0.4729(2) 0.47991(17)
C6 C 0.81179(19) 0.5289(2) 0.59369(16)
H2 H 0.8048 0.5537 0.6452
N3 N 0.96855(15) 0.88639(18) 0.55202(14)
N4 N 0.8747(2) 0.7799(2) 0.6363(2)
H3 H 0.8326 0.8275 0.6441
H4 H 0.8676 0.7209 0.6586
N5 N 0.87599(16) 0.47700(18) 0.48448(13)
N6 N 0.89584(15) 0.51405(19) 0.55994(13)
N7 N 0.73681(15) 0.50489(19) 0.54698(14)
N8 N 0.7310(2) 0.4362(3) 0.41619(17)
H5 H 0.7624 0.4138 0.3756
H6 H 0.6687 0.4353 0.4163
Zn3 Zn 0.97787(2) 0.42561(3) 0.404490(19)
Zn6 Zn 0.59270(2) 0.52317(3) 0.57598(2)
Zn1_2 Zn 0.47787(2) 0.42561(3) 0.095510(19)
Zn2_2 Zn 0.40730(2) 0.47683(3) 0.42402(2)
C1_2 C 0.4103(2) 0.4684(3) 0.25430(17)
C2_2 C 0.5082(2) 0.4224(2) 0.27771(17)
O1_2 O 0.39111(17) 0.4762(2) 0.18209(13)
O2_2 O 0.56039(18) 0.3946(2) 0.22168(13)
O3_2 O 0.35581(15) 0.4977(2) 0.30866(13)
O4_2 O 0.52452(16) 0.4182(2) 0.35047(13)
C3_2 C 0.5474(2) 0.2022(2) 0.08850(17)
C4_2 C 0.4204(2) 0.2218(2) 0.02091(17)
C6_2 C 0.68821(19) 0.4711(2) 0.09369(16)
H2_2 H 0.6952 0.4463 0.1452
N1_2 N 0.47924(17) 0.27289(18) 0.07098(14)
N2_2 N 0.44755(16) 0.12737(18) 0.00800(13)
N3_2 N 0.53145(15) 0.11361(18) 0.05202(14)
N4_2 N 0.6253(2) 0.2201(2) 0.1363(2)
H3_2 H 0.6674 0.1725 0.1441
H4_2 H 0.6324 0.2791 0.1586
N6_2 N 0.60416(15) 0.48595(19) 0.05994(13)
N7_2 N 0.76319(15) 0.49511(19) 0.04698(14)
Zn6_2 Zn 0.90730(2) 0.47683(3) 0.07598(2)
N9_2 N 0.44755(16) 0.37263(18) 0.50800(13)
N10_2 N 0.46855(15) 0.61361(18) 0.44798(14)
N11_2 N 0.37599(16) 0.47700(18) 0.01552(13)
N12_2 N 0.26319(15) 0.49511(19) 0.45302(14)
H1_2 H 0.3658 0.2510 0.9978
C5_2 C 0.72026(19) 0.5271(2) 0.97991(17)
N5_2 N 0.62401(16) 0.52300(18) 0.98448(13)
N8_2 N 0.7690(2) 0.5638(3) 0.91619(17)
H5_2 H 0.7376 0.5862 0.8756
H6_2 H 0.8313 0.5647 0.9163
Zn3_2 Zn 0.52213(2) 0.57439(3) 0.904490(19)
Zn4_2 Zn 0.40730(2) 0.02317(3) 0.92402(2)
Zn5_2 Zn 0.59270(2) 0.97683(3) 0.07598(2)
C2_3 C 0.0082(2) 0.0776(2) 0.72229(17)
O2_3 O 0.06039(18) 0.1054(2) 0.77832(13)
O4_3 O 0.02452(16) 0.0818(2) 0.64953(13)
C3_3 C 0.0474(2) 0.2978(2) 0.91150(17)
C6_3 C 0.18821(19) 0.0289(2) 0.90631(16)
H2_3 H 0.1952 0.0537 0.8548
N4_3 N 0.1253(2) 0.2799(2) 0.8637(2)
H3_3 H 0.1674 0.3275 0.8559
H4_3 H 0.1324 0.2209 0.8414
N6_3 N 0.10416(15) 0.01405(19) 0.94006(13)
N7_3 N 0.26319(15) 0.00489(19) 0.95302(14)
C5_3 C 0.22026(19) 0.9729(2) 0.02009(17)
N5_3 N 0.12401(16) 0.97700(18) 0.01552(13)
N8_3 N 0.2690(2) 0.9362(3) 0.08381(17)
H5_3 H 0.2376 0.9138 0.1244
H6_3 H 0.3313 0.9353 0.0837
Zn3_3 Zn 0.02213(2) 0.92561(3) 0.095510(19)
H1_3 H 0.8658 0.2490 0.0022
Zn1_3 Zn 0.97787(2) 0.07439(3) 0.904490(19)
C1_3 C 0.9103(2) 0.0316(3) 0.74570(17)
O1_3 O 0.89111(17) 0.0238(2) 0.81791(13)
O3_3 O 0.85581(15) 0.0023(2) 0.69134(13)
C4_3 C 0.9204(2) 0.2782(2) 0.97909(17)
N1_3 N 0.97924(17) 0.22711(18) 0.92902(14)
N2_3 N 0.94755(16) 0.37263(18) 0.99200(13)
N9_3 N 0.94755(16) 0.12737(18) 0.49200(13)
N11_3 N 0.87599(16) 0.02300(18) 0.98448(13)
N12_3 N 0.76319(15) 0.00489(19) 0.54698(14)
C5_4 C 0.27974(19) 0.0271(2) 0.52009(17)
N5_4 N 0.37599(16) 0.02300(18) 0.51552(13)
N8_4 N 0.2310(2) 0.0638(3) 0.58381(17)
H5_4 H 0.2624 0.0862 0.6244
H6_4 H 0.1687 0.0647 0.5837
Zn3_4 Zn 0.47787(2) 0.07439(3) 0.595510(19)
Zn1_4 Zn 0.52213(2) 0.92561(3) 0.404490(19)
C1_4 C 0.5897(2) 0.9684(3) 0.24570(17)
C2_4 C 0.4918(2) 0.9224(2) 0.22229(17)
O1_4 O 0.60889(17) 0.9762(2) 0.31791(13)
O2_4 O 0.43961(18) 0.8946(2) 0.27832(13)
O3_4 O 0.64419(15) 0.9977(2) 0.19134(13)
O4_4 O 0.47548(16) 0.9182(2) 0.14953(13)
C3_4 C 0.4526(2) 0.7022(2) 0.41150(17)
C4_4 C 0.5796(2) 0.7218(2) 0.47909(17)
H1_4 H 0.6342 0.7510 0.5022
C6_4 C 0.31179(19) 0.9711(2) 0.40631(16)
H2_4 H 0.3048 0.9463 0.3548
N1_4 N 0.52076(17) 0.77289(18) 0.42902(14)
N2_4 N 0.55245(16) 0.62737(18) 0.49200(13)
N4_4 N 0.3747(2) 0.7201(2) 0.3637(2)
H3_4 H 0.3326 0.6725 0.3559
H4_4 H 0.3676 0.7791 0.3414
N6_4 N 0.39584(15) 0.98595(19) 0.44006(13)
N7_4 N 0.23681(15) 0.99511(19) 0.45302(14)
N11_4 N 0.62401(16) 0.97700(18) 0.48448(13)
N12_4 N 0.73681(15) 0.99511(19) 0.04698(14)
N9_4 N 0.55245(16) 0.87263(18) 0.99200(13)
C2_5 C 0.0082(2) 0.4224(2) 0.22229(17)
O2_5 O 0.06039(18) 0.3946(2) 0.27832(13)
O4_5 O 0.02452(16) 0.4182(2) 0.14953(13)
C3_5 C 0.0474(2) 0.2022(2) 0.41150(17)
C5_5 C 0.22026(19) 0.5271(2) 0.52009(17)
C6_5 C 0.18821(19) 0.4711(2) 0.40631(16)
H2_5 H 0.1952 0.4463 0.3548
N3_3 N 0.03145(15) 0.11361(18) 0.44798(14)
N4_5 N 0.1253(2) 0.2201(2) 0.3637(2)
H3_5 H 0.1674 0.1725 0.3559
H4_5 H 0.1324 0.2791 0.3414
N6_5 N 0.10416(15) 0.48595(19) 0.44006(13)
N8_5 N 0.2690(2) 0.5638(3) 0.58381(17)
H5_5 H 0.2376 0.5862 0.6244
H6_5 H 0.3313 0.5647 0.5837
C1_5 C 0.9103(2) 0.4684(3) 0.24570(17)
O1_5 O 0.89111(17) 0.4762(2) 0.31791(13)
O3_5 O 0.85581(15) 0.4977(2) 0.19134(13)
C4_5 C 0.9204(2) 0.2218(2) 0.47909(17)
H1_5 H 0.8658 0.2510 0.5022
N1_5 N 0.97924(17) 0.27289(18) 0.42902(14)
N10_3 N 0.96855(15) 0.61361(18) 0.05202(14)
H1_6 H 0.6342 0.7490 0.0022
C5_6 C 0.27974(19) 0.4729(2) 0.02009(17)
N8_6 N 0.2310(2) 0.4362(3) 0.08381(17)
H5_6 H 0.2624 0.4138 0.1244
H6_6 H 0.1687 0.4353 0.0837
C1_6 C 0.5897(2) 0.5316(3) 0.74570(17)
C2_6 C 0.4918(2) 0.5776(2) 0.72229(17)
O1_6 O 0.60889(17) 0.5238(2) 0.81791(13)
O2_6 O 0.43961(18) 0.6054(2) 0.77832(13)
O3_6 O 0.64419(15) 0.5023(2) 0.69134(13)
O4_6 O 0.47548(16) 0.5818(2) 0.64953(13)
C3_6 C 0.4526(2) 0.7978(2) 0.91150(17)
C4_6 C 0.5796(2) 0.7782(2) 0.97909(17)
C6_6 C 0.31179(19) 0.5289(2) 0.90631(16)
H2_6 H 0.3048 0.5537 0.8548
N1_6 N 0.52076(17) 0.72711(18) 0.92902(14)
N3_4 N 0.46855(15) 0.88639(18) 0.94798(14)
N4_6 N 0.3747(2) 0.7799(2) 0.8637(2)
H3_6 H 0.3326 0.8275 0.8559
H4_6 H 0.3676 0.7209 0.8414
N6_6 N 0.39584(15) 0.51405(19) 0.94006(13)
N10_4 N 0.53145(15) 0.38639(18) 0.55202(14)
C1_7 C 0.0897(2) 0.9684(3) 0.25430(17)
O1_7 O 0.10889(17) 0.9762(2) 0.18209(13)
O3_7 O 0.14419(15) 0.9977(2) 0.30866(13)
C4_7 C 0.0796(2) 0.7218(2) 0.02091(17)
N1_7 N 0.02076(17) 0.77289(18) 0.07098(14)
H1_7 H 0.1342 0.7510 0.9978
C5_7 C 0.77974(19) 0.0271(2) 0.97991(17)
N8_7 N 0.7310(2) 0.0638(3) 0.91619(17)
H5_7 H 0.7624 0.0862 0.8756
H6_7 H 0.6687 0.0647 0.9163
C2_7 C 0.9918(2) 0.9224(2) 0.27771(17)
O2_7 O 0.93961(18) 0.8946(2) 0.22168(13)
O4_7 O 0.97548(16) 0.9182(2) 0.35047(13)
C3_7 C 0.9526(2) 0.7022(2) 0.08850(17)
C6_7 C 0.81179(19) 0.9711(2) 0.09369(16)
H2_7 H 0.8048 0.9463 0.1452
N4_7 N 0.8747(2) 0.7201(2) 0.1363(2)
H3_7 H 0.8326 0.6725 0.1441
H4_7 H 0.8676 0.7791 0.1586
N6_7 N 0.89584(15) 0.98595(19) 0.05994(13)
C1_8 C 0.4103(2) 0.0316(3) 0.75430(17)
C2_8 C 0.5082(2) 0.0776(2) 0.77771(17)
O1_8 O 0.39111(17) 0.0238(2) 0.68209(13)
O2_8 O 0.56039(18) 0.1054(2) 0.72168(13)
O3_8 O 0.35581(15) 0.0023(2) 0.80866(13)
O4_8 O 0.52452(16) 0.0818(2) 0.85047(13)
C3_8 C 0.5474(2) 0.2978(2) 0.58850(17)
C4_8 C 0.4204(2) 0.2782(2) 0.52091(17)
H1_8 H 0.3658 0.2490 0.4978
C6_8 C 0.68821(19) 0.0289(2) 0.59369(16)
H2_8 H 0.6952 0.0537 0.6452
N1_8 N 0.47924(17) 0.22711(18) 0.57098(14)
N4_8 N 0.6253(2) 0.2799(2) 0.6363(2)
H3_8 H 0.6674 0.3275 0.6441
H4_8 H 0.6324 0.2209 0.6586
N6_8 N 0.60416(15) 0.01405(19) 0.55994(13)
C5_8 C 0.72026(19) 0.9729(2) 0.47991(17)
N8_8 N 0.7690(2) 0.9362(3) 0.41619(17)
H5_8 H 0.7376 0.9138 0.3756
H6_8 H 0.8313 0.9353 0.4163
loop_
_geom_bond_atom_site_label_1
_geom_bond_atom_site_label_2
_geom_bond_site_symmetry_1
_geom_bond_site_symmetry_2
Zn1 O1 1_555 1_555
Zn2 O3 1_555 1_555
O1 C1 1_555 1_555
O3 C1 1_555 1_555
C4 H1 1_555 1_555
N1 Zn1 1_555 1_555
N2 C4 1_555 1_555
Zn4 N2 1_555 1_555
N10 Zn2 1_555 1_555
N11 Zn1 1_555 1_555
N12 Zn2 1_555 1_555
C4 N1 1_555 1_555
C2 O2 1_555 1_555
C5 N5 1_555 1_555
C6 H2 1_555 1_555
N3 C3 1_555 1_555
N4 C3 1_555 1_555
H3 N4 1_555 1_555
H4 N4 1_555 1_555
N5 N6 1_555 1_555
N7 C5 1_555 1_555
N8 C5 1_555 1_555
H5 N8 1_555 1_555
H6 N8 1_555 1_555
Zn3 N5 1_555 1_555
Zn6 N7 1_555 1_555
C2 O4 1_555 1_555
C6 N6 1_555 1_555
C6 N7 1_555 1_555
Zn1_2 O1_2 1_555 1_555
Zn2_2 O3_2 1_555 1_555
C1_2 C2_2 1_555 1_555
C2_2 O2_2 1_555 1_555
O1_2 C1_2 1_555 1_555
O2_2 Zn1_2 1_555 1_555
O3_2 C1_2 1_555 1_555
O4_2 Zn2_2 1_555 1_555
C3_2 N1_2 1_555 1_555
C6_2 H2_2 1_555 1_555
N1_2 Zn1_2 1_555 1_555
N2_2 C4_2 1_555 1_555
N3_2 C3_2 1_555 1_555
N4_2 C3_2 1_555 1_555
H3_2 N4_2 1_555 1_555
H4_2 N4_2 1_555 1_555
N6_2 Zn1_2 1_555 1_555
Zn6_2 N7_2 1_555 1_555
N9_2 Zn2_2 1_555 1_555
N10_2 Zn2_2 1_555 1_555
N11_2 Zn1_2 1_555 1_555
N12_2 Zn2_2 1_555 1_555
C2_2 O4_2 1_555 1_555
C4_2 N1_2 1_555 1_555
C6_2 N6_2 1_555 1_555
C6_2 N7_2 1_555 1_555
N2_2 N3_2 1_555 1_555
C5_2 N5_2 1_555 1_555
N8_2 C5_2 1_555 1_555
H5_2 N8_2 1_555 1_555
H6_2 N8_2 1_555 1_555
Zn3_2 N5_2 1_555 1_555
C2_3 O2_3 1_555 1_555
C6_3 H2_3 1_555 1_555
N10 C3_3 1_555 1_555
N4_3 C3_3 1_555 1_555
H3_3 N4_3 1_555 1_555
H4_3 N4_3 1_555 1_555
Zn4_2 N7_3 1_555 1_555
C2_3 O4_3 1_555 1_555
C6_3 N6_3 1_555 1_555
C6_3 N7_3 1_555 1_555
C5_3 N5_3 1_555 1_555
N8_3 C5_3 1_555 1_555
H5_3 N8_3 1_555 1_555
H6_3 N8_3 1_555 1_555
Zn3_3 N5_3 1_555 1_555
Zn1_3 O1_3 1_555 1_555
Zn5 O3_3 1_555 1_555
O1_3 C1_3 1_555 1_555
O3_3 C1_3 1_555 1_555
N1_3 Zn1_3 1_555 1_555
N2_3 C4_3 1_555 1_555
N9_3 Zn5 1_555 1_555
N11_3 Zn1_3 1_555 1_555
N12_3 Zn5 1_555 1_555
C4_3 N1_3 1_555 1_555
C5_4 N5_4 1_555 1_555
N8_4 C5_4 1_555 1_555
H5_4 N8_4 1_555 1_555
H6_4 N8_4 1_555 1_555
Zn3_4 N5_4 1_555 1_555
Zn1_4 O1_4 1_555 1_555
Zn5_2 O3_4 1_555 1_555
C1_4 C2_4 1_555 1_555
C2_4 O2_4 1_555 1_555
O1_4 C1_4 1_555 1_555
O2_4 Zn1_4 1_555 1_555
O3_4 C1_4 1_555 1_555
O4_4 Zn5_2 1_555 1_555
C3_4 N1_4 1_555 1_555
C4_4 H1_4 1_555 1_555
C6_4 H2_4 1_555 1_555
N1_4 Zn1_4 1_555 1_555
N2_4 C4_4 1_555 1_555
N10_2 C3_4 1_555 1_555
N4_4 C3_4 1_555 1_555
H3_4 N4_4 1_555 1_555
H4_4 N4_4 1_555 1_555
N6_4 Zn1_4 1_555 1_555
Zn6 N2_4 1_555 1_555
Zn4 N7_4 1_555 1_555
N11_4 Zn1_4 1_555 1_555
N12_4 Zn5_2 1_555 1_555
C2_4 O4_4 1_555 1_555
C4_4 N1_4 1_555 1_555
C6_4 N6_4 1_555 1_555
C6_4 N7_4 1_555 1_555
N2_4 N10_2 1_555 1_555
C2_5 O2_5 1_555 1_555
C5_5 N11 1_555 1_555
C6_5 H2_5 1_555 1_555
N3_3 C3_5 1_555 1_555
N4_5 C3_5 1_555 1_555
H3_5 N4_5 1_555 1_555
H4_5 N4_5 1_555 1_555
N11 N6_5 1_555 1_555
N12_2 C5_5 1_555 1_555
N8_5 C5_5 1_555 1_555
H5_5 N8_5 1_555 1_555
H6_5 N8_5 1_555 1_555
C2_5 O4_5 1_555 1_555
C6_5 N6_5 1_555 1_555
C6_5 N12_2 1_555 1_555
Zn3 O1_5 1_555 1_555
Zn6_2 O3_5 1_555 1_555
O1_5 C1_5 1_555 1_555
O3_5 C1_5 1_555 1_555
C4_5 H1_5 1_555 1_555
N1_5 Zn3 1_555 1_555
N9_3 C4_5 1_555 1_555
N10_3 Zn6_2 1_555 1_555
C4_5 N1_5 1_555 1_555
C5_6 N11_2 1_555 1_555
N8_6 C5_6 1_555 1_555
H5_6 N8_6 1_555 1_555
H6_6 N8_6 1_555 1_555
Zn3_2 O1_6 1_555 1_555
Zn6 O3_6 1_555 1_555
C1_6 C2_6 1_555 1_555
C2_6 O2_6 1_555 1_555
O1_6 C1_6 1_555 1_555
O2_6 Zn3_2 1_555 1_555
O3_6 C1_6 1_555 1_555
O4_6 Zn6 1_555 1_555
C3_6 N1_6 1_555 1_555
C6_6 H2_6 1_555 1_555
N1_6 Zn3_2 1_555 1_555
N9_4 C4_6 1_555 1_555
N3_4 C3_6 1_555 1_555
N4_6 C3_6 1_555 1_555
H3_6 N4_6 1_555 1_555
H4_6 N4_6 1_555 1_555
N6_6 Zn3_2 1_555 1_555
N10_4 Zn6 1_555 1_555
C2_6 O4_6 1_555 1_555
C4_6 N1_6 1_555 1_555
C6_6 N6_6 1_555 1_555
C6_6 N12 1_555 1_555
N9_4 N3_4 1_555 1_555
Zn3_3 O1_7 1_555 1_555
Zn4 O3_7 1_555 1_555
O1_7 C1_7 1_555 1_555
O3_7 C1_7 1_555 1_555
N1_7 Zn3_3 1_555 1_555
N9 C4_7 1_555 1_555
C4_7 N1_7 1_555 1_555
C5_7 N11_3 1_555 1_555
N8_7 C5_7 1_555 1_555
H5_7 N8_7 1_555 1_555
H6_7 N8_7 1_555 1_555
C2_7 O2_7 1_555 1_555
C6_7 H2_7 1_555 1_555
N10_3 C3_7 1_555 1_555
N4_7 C3_7 1_555 1_555
H3_7 N4_7 1_555 1_555
H4_7 N4_7 1_555 1_555
C2_7 O4_7 1_555 1_555
C6_7 N6_7 1_555 1_555
C6_7 N12_4 1_555 1_555
Zn3_4 O1_8 1_555 1_555
Zn4_2 O3_8 1_555 1_555
C1_8 C2_8 1_555 1_555
C2_8 O2_8 1_555 1_555
O1_8 C1_8 1_555 1_555
O2_8 Zn3_4 1_555 1_555
O3_8 C1_8 1_555 1_555
O4_8 Zn4_2 1_555 1_555
C3_8 N1_8 1_555 1_555
C4_8 H1_8 1_555 1_555
C6_8 H2_8 1_555 1_555
N1_8 Zn3_4 1_555 1_555
N9_2 C4_8 1_555 1_555
N10_4 C3_8 1_555 1_555
N4_8 C3_8 1_555 1_555
H3_8 N4_8 1_555 1_555
H4_8 N4_8 1_555 1_555
N6_8 Zn3_4 1_555 1_555
C2_8 O4_8 1_555 1_555
C4_8 N1_8 1_555 1_555
C6_8 N6_8 1_555 1_555
C6_8 N12_3 1_555 1_555
N9_2 N10_4 1_555 1_555
C5_8 N11_4 1_555 1_555
N8_8 C5_8 1_555 1_555
H5_8 N8_8 1_555 1_555
H6_8 N8_8 1_555 1_555

#END
