
###############################################################################
#
# This file contains modified crystal structure data generated from the
# MOF subset of the Cambridge Structural Database (CSD) v543 
# hosted by the Cambridge Crystallographic Data Centre (CCDC).
#
# This work is licensed under the Creative Commons
# Attribution-NonCommercial-ShareAlike 4.0 International License.
# To view a copy of this license, visit
# http://creativecommons.org/licenses/by-nc-sa/4.0/
# or send a letter to
# Creative Commons, PO Box 1866, Mountain View, CA 94042, USA.
#
# CIF created using the CSD Python API on 29 September 2022
# The structure has been converted into the P1 space group
# The structure has a 3D framework
# The original CSD entry WALCIX is in the orthorhombic crystal system
# The framework has been calculated to contain at least 10.0% void space
# The void calculation uses a probe of radius 1.32A, grid spacing 0.4
#
###############################################################################

data_WALCIX
_chemical_formula_moiety         '(C48 H48 N64 O32 Zn16)n'
_symmetry_cell_setting           triclinic
_symmetry_space_group_name_H-M   'P 1'
_symmetry_Int_Tables_number      1
_space_group_name_Hall           'P 1'
loop_
_symmetry_equiv_pos_site_id
_symmetry_equiv_pos_as_xyz
1 x,y,z
_cell_length_a                   13.8107(1)
_cell_length_b                   12.8732(2)
_cell_length_c                   16.8085(2)
_cell_angle_alpha                90
_cell_angle_beta                 90
_cell_angle_gamma                90
_cell_volume                     2988.35
loop_
_atom_site_label
_atom_site_type_symbol
_atom_site_fract_x
_atom_site_fract_y
_atom_site_fract_z
Zn5 Zn 0.09294(4) 0.02388(5) 0.92537(3)
C5 C 0.2204(3) 0.4738(4) 0.0220(3)
N5 N 0.1239(2) 0.4780(3) 0.0171(2)
N8 N 0.2679(3) 0.4373(4) 0.0865(2)
H5 H 0.2351 0.4148 0.1280
H6 H 0.3316 0.4360 0.0871
Zn3 Zn 0.02131(4) 0.42939(5) 0.09718(3)
C1 C 0.0090(3) 0.5753(4) 0.7212(3)
O1 O 0.0625(2) 0.6011(3) 0.77790(18)
O3 O 0.0251(2) 0.5819(3) 0.64793(18)
C3 C 0.0466(3) 0.7972(4) 0.9090(3)
C6 C 0.1887(3) 0.5254(4) 0.9062(3)
H2 H 0.1961 0.5482 0.8527
N3 N 0.0303(2) 0.8864(3) 0.9466(2)
N4 N 0.1237(3) 0.7799(3) 0.8601(2)
H3 H 0.1664 0.8295 0.8518
H4 H 0.1308 0.7192 0.8368
N6 N 0.1043(2) 0.5121(3) 0.94078(19)
N7 N 0.2638(2) 0.5032(3) 0.9546(2)
Zn6 Zn 0.40706(4) 0.52388(5) 0.92537(3)
H1 H 0.8656 0.7451 0.0018
Zn4 Zn 0.90706(4) 0.97612(5) 0.07463(3)
Zn1 Zn 0.97869(4) 0.57061(5) 0.90282(3)
Zn2 Zn 0.90706(4) 0.52388(5) 0.57463(3)
C2 C 0.9109(3) 0.5303(4) 0.7443(3)
O2 O 0.8921(2) 0.5196(3) 0.81629(19)
O4 O 0.8553(2) 0.5048(3) 0.68949(18)
C4 C 0.9210(3) 0.7757(4) 0.9779(3)
N1 N 0.9793(2) 0.7246(3) 0.9265(2)
N2 N 0.9481(2) 0.8710(3) 0.9915(2)
N9 N 0.9481(2) 0.6290(3) 0.4915(2)
N10 N 0.9697(2) 0.3864(3) 0.5534(2)
N11 N 0.8761(2) 0.5220(3) 0.9829(2)
N12 N 0.7638(2) 0.5032(3) 0.5454(2)
Zn1_2 Zn 0.52131(4) 0.42939(5) 0.40282(3)
Zn2_2 Zn 0.59294(4) 0.47612(5) 0.07463(3)
C1_2 C 0.4910(3) 0.4247(4) 0.2212(3)
C2_2 C 0.5891(3) 0.4697(4) 0.2443(3)
O1_2 O 0.4375(2) 0.3989(3) 0.27790(18)
O2_2 O 0.6079(2) 0.4804(3) 0.31629(19)
O3_2 O 0.4749(2) 0.4181(3) 0.14793(18)
O4_2 O 0.6447(2) 0.4952(3) 0.18949(18)
C3_2 C 0.4534(3) 0.2028(4) 0.4090(3)
C4_2 C 0.5790(3) 0.2243(4) 0.4779(3)
H1_2 H 0.6344 0.2549 0.5018
C5_2 C 0.2796(3) 0.5262(4) 0.5220(3)
C6_2 C 0.3113(3) 0.4746(4) 0.4062(3)
H2_2 H 0.3039 0.4518 0.3527
N1_2 N 0.5207(2) 0.2754(3) 0.4265(2)
N2_2 N 0.5519(2) 0.1290(3) 0.4915(2)
N3_2 N 0.4697(2) 0.1136(3) 0.4466(2)
N4_2 N 0.3763(3) 0.2201(3) 0.3601(2)
H3_2 H 0.3336 0.1705 0.3518
H4_2 H 0.3692 0.2808 0.3368
N5_2 N 0.3761(2) 0.5220(3) 0.5171(2)
N6_2 N 0.3957(2) 0.4879(3) 0.44078(19)
N7_2 N 0.2362(2) 0.4968(3) 0.4546(2)
N8_2 N 0.2321(3) 0.5627(4) 0.5865(2)
H5_2 H 0.2649 0.5852 0.6280
H6_2 H 0.1684 0.5640 0.5871
Zn3_2 Zn 0.47869(4) 0.57061(5) 0.59718(3)
Zn4_2 Zn 0.59294(4) 0.02388(5) 0.57463(3)
Zn6_2 Zn 0.09294(4) 0.47612(5) 0.42537(3)
N10_2 N 0.5303(2) 0.6136(3) 0.0534(2)
N11_2 N 0.6239(2) 0.4780(3) 0.4829(2)
N12_2 N 0.7362(2) 0.4968(3) 0.0454(2)
N9_2 N 0.5519(2) 0.3710(3) 0.9915(2)
Zn5_2 Zn 0.40706(4) 0.97612(5) 0.42537(3)
N9_3 N 0.0519(2) 0.1290(3) 0.0085(2)
Zn1_3 Zn 0.02131(4) 0.07061(5) 0.59718(3)
C2_3 C 0.0891(3) 0.0303(4) 0.7557(3)
O2_3 O 0.1079(2) 0.0196(3) 0.68371(19)
O4_3 O 0.1447(2) 0.0048(3) 0.81051(18)
C4_3 C 0.0790(3) 0.2757(4) 0.5221(3)
H1_3 H 0.1344 0.2451 0.4982
N1_3 N 0.0207(2) 0.2246(3) 0.5735(2)
N2_3 N 0.0519(2) 0.3710(3) 0.5085(2)
N11_3 N 0.1239(2) 0.0220(3) 0.5171(2)
N12_3 N 0.2362(2) 0.0032(3) 0.9546(2)
C1_3 C 0.9910(3) 0.0753(4) 0.7788(3)
O1_3 O 0.9375(2) 0.1011(3) 0.72210(18)
O3_3 O 0.9749(2) 0.0819(3) 0.85207(18)
C3_3 C 0.9534(3) 0.2972(4) 0.5910(3)
C6_3 C 0.8113(3) 0.0254(4) 0.5938(3)
H2_3 H 0.8039 0.0482 0.6473
N4_3 N 0.8763(3) 0.2799(3) 0.6399(2)
H3_3 H 0.8336 0.3295 0.6482
H4_3 H 0.8692 0.2192 0.6632
N6_3 N 0.8957(2) 0.0121(3) 0.55922(19)
N7_3 N 0.7362(2) 0.0032(3) 0.5454(2)
C5_3 C 0.7796(3) 0.9738(4) 0.4780(3)
N5_3 N 0.8761(2) 0.9780(3) 0.4829(2)
N8_3 N 0.7321(3) 0.9373(4) 0.4135(2)
H5_3 H 0.7649 0.9148 0.3720
H6_3 H 0.6684 0.9360 0.4129
Zn3_3 Zn 0.97869(4) 0.92939(5) 0.40282(3)
C5_4 C 0.7204(3) 0.0262(4) 0.9780(3)
N5_4 N 0.6239(2) 0.0220(3) 0.9829(2)
N8_4 N 0.7679(3) 0.0627(4) 0.9135(2)
H5_4 H 0.7351 0.0852 0.8720
H6_4 H 0.8316 0.0640 0.9129
Zn3_4 Zn 0.52131(4) 0.07061(5) 0.90282(3)
Zn1_4 Zn 0.47869(4) 0.92939(5) 0.09718(3)
C1_4 C 0.5090(3) 0.9247(4) 0.2788(3)
C2_4 C 0.4109(3) 0.9697(4) 0.2557(3)
O1_4 O 0.5625(2) 0.8989(3) 0.22210(18)
O2_4 O 0.3921(2) 0.9804(3) 0.18371(19)
O3_4 O 0.5251(2) 0.9181(3) 0.35207(18)
O4_4 O 0.3553(2) 0.9952(3) 0.31051(18)
C3_4 C 0.5466(3) 0.7028(4) 0.0910(3)
C4_4 C 0.4210(3) 0.7243(4) 0.0221(3)
C6_4 C 0.6887(3) 0.9746(4) 0.0938(3)
H2_4 H 0.6961 0.9518 0.1473
N1_4 N 0.4793(2) 0.7754(3) 0.0735(2)
N2_4 N 0.4481(2) 0.6290(3) 0.0085(2)
N4_4 N 0.6237(3) 0.7201(3) 0.1399(2)
H3_4 H 0.6664 0.6705 0.1482
H4_4 H 0.6308 0.7808 0.1632
N6_4 N 0.6043(2) 0.9879(3) 0.05922(19)
N7_4 N 0.7638(2) 0.9968(3) 0.0454(2)
N9_4 N 0.4481(2) 0.8710(3) 0.5085(2)
N11_4 N 0.3761(2) 0.9780(3) 0.0171(2)
N12_4 N 0.2638(2) 0.9968(3) 0.4546(2)
H1_4 H 0.3656 0.7549 0.9982
C2_5 C 0.0891(3) 0.4697(4) 0.2557(3)
O2_5 O 0.1079(2) 0.4804(3) 0.18371(19)
O4_5 O 0.1447(2) 0.4952(3) 0.31051(18)
C4_5 C 0.0790(3) 0.2243(4) 0.0221(3)
N1_5 N 0.0207(2) 0.2754(3) 0.0735(2)
N10_3 N 0.0303(2) 0.6136(3) 0.4466(2)
H1_5 H 0.1344 0.2549 0.9982
C1_5 C 0.9910(3) 0.4247(4) 0.2788(3)
O1_5 O 0.9375(2) 0.3989(3) 0.22210(18)
O3_5 O 0.9749(2) 0.4181(3) 0.35207(18)
C3_5 C 0.9534(3) 0.2028(4) 0.0910(3)
C6_5 C 0.8113(3) 0.4746(4) 0.0938(3)
H2_5 H 0.8039 0.4518 0.1473
N3_3 N 0.9697(2) 0.1136(3) 0.0534(2)
N4_5 N 0.8763(3) 0.2201(3) 0.1399(2)
H3_5 H 0.8336 0.1705 0.1482
H4_5 H 0.8692 0.2808 0.1632
N6_5 N 0.8957(2) 0.4879(3) 0.05922(19)
C5_5 C 0.7796(3) 0.5262(4) 0.9780(3)
N8_5 N 0.7321(3) 0.5627(4) 0.9135(2)
H5_5 H 0.7649 0.5852 0.8720
H6_5 H 0.6684 0.5640 0.9129
C1_6 C 0.5090(3) 0.5753(4) 0.7788(3)
C2_6 C 0.4109(3) 0.5303(4) 0.7557(3)
O1_6 O 0.5625(2) 0.6011(3) 0.72210(18)
O2_6 O 0.3921(2) 0.5196(3) 0.68371(19)
O3_6 O 0.5251(2) 0.5819(3) 0.85207(18)
O4_6 O 0.3553(2) 0.5048(3) 0.81051(18)
C3_6 C 0.5466(3) 0.7972(4) 0.5910(3)
C4_6 C 0.4210(3) 0.7757(4) 0.5221(3)
H1_6 H 0.3656 0.7451 0.4982
C5_6 C 0.7204(3) 0.4738(4) 0.4780(3)
C6_6 C 0.6887(3) 0.5254(4) 0.5938(3)
H2_6 H 0.6961 0.5482 0.6473
N1_6 N 0.4793(2) 0.7246(3) 0.5735(2)
N3_4 N 0.5303(2) 0.8864(3) 0.5534(2)
N4_6 N 0.6237(3) 0.7799(3) 0.6399(2)
H3_6 H 0.6664 0.8295 0.6482
H4_6 H 0.6308 0.7192 0.6632
N6_6 N 0.6043(2) 0.5121(3) 0.55922(19)
N8_6 N 0.7679(3) 0.4373(4) 0.4135(2)
H5_6 H 0.7351 0.4148 0.3720
H6_6 H 0.8316 0.4360 0.4129
N10_4 N 0.4697(2) 0.3864(3) 0.9466(2)
C5_7 C 0.2204(3) 0.0262(4) 0.5220(3)
N8_7 N 0.2679(3) 0.0627(4) 0.5865(2)
H5_7 H 0.2351 0.0852 0.6280
H6_7 H 0.3316 0.0640 0.5871
C1_7 C 0.0090(3) 0.9247(4) 0.2212(3)
O1_7 O 0.0625(2) 0.8989(3) 0.27790(18)
O3_7 O 0.0251(2) 0.9181(3) 0.14793(18)
C3_7 C 0.0466(3) 0.7028(4) 0.4090(3)
C6_7 C 0.1887(3) 0.9746(4) 0.4062(3)
H2_7 H 0.1961 0.9518 0.3527
N4_7 N 0.1237(3) 0.7201(3) 0.3601(2)
H3_7 H 0.1664 0.6705 0.3518
H4_7 H 0.1308 0.7808 0.3368
N6_7 N 0.1043(2) 0.9879(3) 0.44078(19)
C2_7 C 0.9109(3) 0.9697(4) 0.2443(3)
O2_7 O 0.8921(2) 0.9804(3) 0.31629(19)
O4_7 O 0.8553(2) 0.9952(3) 0.18949(18)
C4_7 C 0.9210(3) 0.7243(4) 0.4779(3)
H1_7 H 0.8656 0.7549 0.5018
N1_7 N 0.9793(2) 0.7754(3) 0.4265(2)
H1_8 H 0.6344 0.2451 0.0018
C1_8 C 0.4910(3) 0.0753(4) 0.7212(3)
C2_8 C 0.5891(3) 0.0303(4) 0.7443(3)
O1_8 O 0.4375(2) 0.1011(3) 0.77790(18)
O2_8 O 0.6079(2) 0.0196(3) 0.81629(19)
O3_8 O 0.4749(2) 0.0819(3) 0.64793(18)
O4_8 O 0.6447(2) 0.0048(3) 0.68949(18)
C3_8 C 0.4534(3) 0.2972(4) 0.9090(3)
C4_8 C 0.5790(3) 0.2757(4) 0.9779(3)
C6_8 C 0.3113(3) 0.0254(4) 0.9062(3)
H2_8 H 0.3039 0.0482 0.8527
N1_8 N 0.5207(2) 0.2246(3) 0.9265(2)
N4_8 N 0.3763(3) 0.2799(3) 0.8601(2)
H3_8 H 0.3336 0.3295 0.8518
H4_8 H 0.3692 0.2192 0.8368
N6_8 N 0.3957(2) 0.0121(3) 0.94078(19)
C5_8 C 0.2796(3) 0.9738(4) 0.0220(3)
N8_8 N 0.2321(3) 0.9373(4) 0.0865(2)
H5_8 H 0.2649 0.9148 0.1280
H6_8 H 0.1684 0.9360 0.0871
loop_
_geom_bond_atom_site_label_1
_geom_bond_atom_site_label_2
_geom_bond_site_symmetry_1
_geom_bond_site_symmetry_2
C5 N5 1_555 1_555
N8 C5 1_555 1_555
H5 N8 1_555 1_555
H6 N8 1_555 1_555
Zn3 N5 1_555 1_555
O1 C1 1_555 1_555
O3 C1 1_555 1_555
C6 H2 1_555 1_555
N3 C3 1_555 1_555
N4 C3 1_555 1_555
H3 N4 1_555 1_555
H4 N4 1_555 1_555
Zn6 N7 1_555 1_555
C6 N6 1_555 1_555
C6 N7 1_555 1_555
C2 O2 1_555 1_555
O2 Zn1 1_555 1_555
O4 Zn2 1_555 1_555
N1 Zn1 1_555 1_555
N2 C4 1_555 1_555
N9 Zn2 1_555 1_555
N10 Zn2 1_555 1_555
N11 Zn1 1_555 1_555
N12 Zn2 1_555 1_555
C2 O4 1_555 1_555
C4 N1 1_555 1_555
Zn1_2 O1_2 1_555 1_555
Zn2_2 O3_2 1_555 1_555
C1_2 C2_2 1_555 1_555
C2_2 O2_2 1_555 1_555
O1_2 C1_2 1_555 1_555
O2_2 Zn1_2 1_555 1_555
O3_2 C1_2 1_555 1_555
O4_2 Zn2_2 1_555 1_555
C3_2 N1_2 1_555 1_555
C4_2 H1_2 1_555 1_555
C5_2 N5_2 1_555 1_555
C6_2 H2_2 1_555 1_555
N1_2 Zn1_2 1_555 1_555
N2_2 C4_2 1_555 1_555
N3_2 C3_2 1_555 1_555
N4_2 C3_2 1_555 1_555
H3_2 N4_2 1_555 1_555
H4_2 N4_2 1_555 1_555
N5_2 N6_2 1_555 1_555
N6_2 Zn1_2 1_555 1_555
N7_2 C5_2 1_555 1_555
N8_2 C5_2 1_555 1_555
H5_2 N8_2 1_555 1_555
H6_2 N8_2 1_555 1_555
Zn3_2 N5_2 1_555 1_555
Zn4_2 N2_2 1_555 1_555
Zn6_2 N7_2 1_555 1_555
N10_2 Zn2_2 1_555 1_555
N11_2 Zn1_2 1_555 1_555
N12_2 Zn2_2 1_555 1_555
C2_2 O4_2 1_555 1_555
C4_2 N1_2 1_555 1_555
C6_2 N6_2 1_555 1_555
C6_2 N7_2 1_555 1_555
N2_2 N3_2 1_555 1_555
C2_3 O2_3 1_555 1_555
O2_3 Zn1_3 1_555 1_555
O4_3 Zn5 1_555 1_555
C4_3 H1_3 1_555 1_555
N1_3 Zn1_3 1_555 1_555
N2_3 C4_3 1_555 1_555
Zn6_2 N2_3 1_555 1_555
N11_3 Zn1_3 1_555 1_555
N12_3 Zn5 1_555 1_555
C2_3 O4_3 1_555 1_555
C4_3 N1_3 1_555 1_555
O1_3 C1_3 1_555 1_555
O3_3 C1_3 1_555 1_555
C6_3 H2_3 1_555 1_555
N10 C3_3 1_555 1_555
N4_3 C3_3 1_555 1_555
H3_3 N4_3 1_555 1_555
H4_3 N4_3 1_555 1_555
Zn4_2 N7_3 1_555 1_555
C6_3 N6_3 1_555 1_555
C6_3 N7_3 1_555 1_555
C5_3 N5_3 1_555 1_555
N8_3 C5_3 1_555 1_555
H5_3 N8_3 1_555 1_555
H6_3 N8_3 1_555 1_555
Zn3_3 N5_3 1_555 1_555
C5_4 N5_4 1_555 1_555
N8_4 C5_4 1_555 1_555
H5_4 N8_4 1_555 1_555
H6_4 N8_4 1_555 1_555
Zn3_4 N5_4 1_555 1_555
Zn1_4 O1_4 1_555 1_555
Zn5_2 O3_4 1_555 1_555
C1_4 C2_4 1_555 1_555
C2_4 O2_4 1_555 1_555
O1_4 C1_4 1_555 1_555
O2_4 Zn1_4 1_555 1_555
O3_4 C1_4 1_555 1_555
O4_4 Zn5_2 1_555 1_555
C3_4 N1_4 1_555 1_555
C6_4 H2_4 1_555 1_555
N1_4 Zn1_4 1_555 1_555
N2_4 C4_4 1_555 1_555
N10_2 C3_4 1_555 1_555
N4_4 C3_4 1_555 1_555
H3_4 N4_4 1_555 1_555
H4_4 N4_4 1_555 1_555
N6_4 Zn1_4 1_555 1_555
Zn4 N7_4 1_555 1_555
N9_4 Zn5_2 1_555 1_555
N11_4 Zn1_4 1_555 1_555
N12_4 Zn5_2 1_555 1_555
C2_4 O4_4 1_555 1_555
C4_4 N1_4 1_555 1_555
C6_4 N6_4 1_555 1_555
C6_4 N7_4 1_555 1_555
N2_4 N10_2 1_555 1_555
C2_5 O2_5 1_555 1_555
O2_5 Zn3 1_555 1_555
O4_5 Zn6_2 1_555 1_555
N1_5 Zn3 1_555 1_555
N9_3 C4_5 1_555 1_555
N10_3 Zn6_2 1_555 1_555
C2_5 O4_5 1_555 1_555
C4_5 N1_5 1_555 1_555
O1_5 C1_5 1_555 1_555
O3_5 C1_5 1_555 1_555
C6_5 H2_5 1_555 1_555
N3_3 C3_5 1_555 1_555
N4_5 C3_5 1_555 1_555
H3_5 N4_5 1_555 1_555
H4_5 N4_5 1_555 1_555
C6_5 N6_5 1_555 1_555
C6_5 N12_2 1_555 1_555
C5_5 N11 1_555 1_555
N8_5 C5_5 1_555 1_555
H5_5 N8_5 1_555 1_555
H6_5 N8_5 1_555 1_555
Zn3_2 O1_6 1_555 1_555
Zn6 O3_6 1_555 1_555
C1_6 C2_6 1_555 1_555
C2_6 O2_6 1_555 1_555
O1_6 C1_6 1_555 1_555
O2_6 Zn3_2 1_555 1_555
O3_6 C1_6 1_555 1_555
O4_6 Zn6 1_555 1_555
C3_6 N1_6 1_555 1_555
C4_6 H1_6 1_555 1_555
C5_6 N11_2 1_555 1_555
C6_6 H2_6 1_555 1_555
N1_6 Zn3_2 1_555 1_555
N9_4 C4_6 1_555 1_555
N3_4 C3_6 1_555 1_555
N4_6 C3_6 1_555 1_555
H3_6 N4_6 1_555 1_555
H4_6 N4_6 1_555 1_555
N11_2 N6_6 1_555 1_555
N6_6 Zn3_2 1_555 1_555
N12 C5_6 1_555 1_555
N8_6 C5_6 1_555 1_555
H5_6 N8_6 1_555 1_555
H6_6 N8_6 1_555 1_555
N10_4 Zn6 1_555 1_555
C2_6 O4_6 1_555 1_555
C4_6 N1_6 1_555 1_555
C6_6 N6_6 1_555 1_555
C6_6 N12 1_555 1_555
N9_4 N3_4 1_555 1_555
C5_7 N11_3 1_555 1_555
N8_7 C5_7 1_555 1_555
H5_7 N8_7 1_555 1_555
H6_7 N8_7 1_555 1_555
O1_7 C1_7 1_555 1_555
O3_7 C1_7 1_555 1_555
C6_7 H2_7 1_555 1_555
N10_3 C3_7 1_555 1_555
N4_7 C3_7 1_555 1_555
H3_7 N4_7 1_555 1_555
H4_7 N4_7 1_555 1_555
C6_7 N6_7 1_555 1_555
C6_7 N12_4 1_555 1_555
C2_7 O2_7 1_555 1_555
O2_7 Zn3_3 1_555 1_555
O4_7 Zn4 1_555 1_555
C4_7 H1_7 1_555 1_555
N1_7 Zn3_3 1_555 1_555
N9 C4_7 1_555 1_555
C2_7 O4_7 1_555 1_555
C4_7 N1_7 1_555 1_555
Zn3_4 O1_8 1_555 1_555
Zn4_2 O3_8 1_555 1_555
C1_8 C2_8 1_555 1_555
C2_8 O2_8 1_555 1_555
O1_8 C1_8 1_555 1_555
O2_8 Zn3_4 1_555 1_555
O3_8 C1_8 1_555 1_555
O4_8 Zn4_2 1_555 1_555
C3_8 N1_8 1_555 1_555
C6_8 H2_8 1_555 1_555
N1_8 Zn3_4 1_555 1_555
N9_2 C4_8 1_555 1_555
N10_4 C3_8 1_555 1_555
N4_8 C3_8 1_555 1_555
H3_8 N4_8 1_555 1_555
H4_8 N4_8 1_555 1_555
N6_8 Zn3_4 1_555 1_555
C2_8 O4_8 1_555 1_555
C4_8 N1_8 1_555 1_555
C6_8 N6_8 1_555 1_555
C6_8 N12_3 1_555 1_555
N9_2 N10_4 1_555 1_555
C5_8 N11_4 1_555 1_555
N8_8 C5_8 1_555 1_555
H5_8 N8_8 1_555 1_555
H6_8 N8_8 1_555 1_555

#END
