
###############################################################################
#
# This file contains modified crystal structure data generated from the
# MOF subset of the Cambridge Structural Database (CSD) v543 
# hosted by the Cambridge Crystallographic Data Centre (CCDC).
#
# This work is licensed under the Creative Commons
# Attribution-NonCommercial-ShareAlike 4.0 International License.
# To view a copy of this license, visit
# http://creativecommons.org/licenses/by-nc-sa/4.0/
# or send a letter to
# Creative Commons, PO Box 1866, Mountain View, CA 94042, USA.
#
# CIF created using the CSD Python API on 29 September 2022
# The structure has been converted into the P1 space group
# The structure has a 3D framework
# The original CSD entry WALKAY is in the orthorhombic crystal system
# The original CSD entry WALKAY is in a Sohncke space group
# The framework has been calculated to contain at least 10.0% void space
# The void calculation uses a probe of radius 1.32A, grid spacing 0.4
#
###############################################################################

data_WALKAY
_chemical_formula_moiety         '(C96 H64 N16 Ni4 O36)n'
_symmetry_cell_setting           triclinic
_symmetry_space_group_name_H-M   'P 1'
_symmetry_Int_Tables_number      1
_space_group_name_Hall           'P 1'
loop_
_symmetry_equiv_pos_site_id
_symmetry_equiv_pos_as_xyz
1 x,y,z
_cell_length_a                   7.361(2)
_cell_length_b                   15.645(3)
_cell_length_c                   26.957(5)
_cell_angle_alpha                90
_cell_angle_beta                 90
_cell_angle_gamma                90
_cell_volume                     3104.44
loop_
_atom_site_label
_atom_site_type_symbol
_atom_site_fract_x
_atom_site_fract_y
_atom_site_fract_z
Ni2 Ni 0.01050(9) 0.34413(5) 0.18717(2)
O1 O 0.1113(5) 0.3570(3) 0.11404(13)
N1 N 0.1560(6) 0.2391(3) 0.20996(17)
C1 C 0.1580(8) 0.2104(4) 0.2564(2)
H3 H 0.0793 0.2354 0.2792
C2 C 0.2674(8) 0.2002(4) 0.1777(2)
H4 H 0.2630 0.2168 0.1446
C3 C 0.2684(7) 0.1467(4) 0.2723(2)
H5 H 0.2611 0.1278 0.3050
C4 C 0.3864(8) 0.1380(4) 0.1909(2)
H6 H 0.4636 0.1143 0.1673
C5 C 0.3928(7) 0.1094(4) 0.2399(2)
C6 C 0.5278(7) 0.0446(4) 0.25664(18)
C7 C 0.7005(8) 0.0480(4) 0.2380(2)
H7 H 0.7323 0.0889 0.2146
C11 C 0.0032(9) 0.4183(4) 0.10780(19)
C17 C 0.1269(9) 0.4455(5) 0.0229(2)
H13 H 0.2247 0.4106 0.0310
N5 N 0.2093(6) 0.4284(3) 0.21141(16)
N2 N 0.7907(6) 0.9284(3) 0.28859(16)
C8 C 0.4839(8) 0.9847(3) 0.2916(2)
H8 H 0.3679 0.9822 0.3052
C9 C 0.8287(8) 0.9885(4) 0.2550(2)
H9 H 0.9459 0.9910 0.2422
C10 C 0.6195(7) 0.9274(4) 0.3061(2)
H10 H 0.5895 0.8858 0.3294
Ni3 Ni 0.98950(9) 0.84413(5) 0.31283(2)
O1_2 O 0.8887(5) 0.8570(3) 0.38596(13)
O5 O 0.5869(8) 0.9429(6) 0.5418(2)
O6 O 0.7806(8) 0.9532(5) 0.60352(19)
N1_2 N 0.8440(6) 0.7391(3) 0.29004(17)
N3 N 0.7413(9) 0.9599(5) 0.5596(2)
C1_2 C 0.8420(8) 0.7104(4) 0.2436(2)
H3_2 H 0.9207 0.7354 0.2208
C2_2 C 0.7326(8) 0.7002(4) 0.3223(2)
H4_2 H 0.7370 0.7168 0.3554
C3_2 C 0.7316(7) 0.6467(4) 0.2277(2)
H5_2 H 0.7389 0.6278 0.1950
C4_2 C 0.6136(8) 0.6380(4) 0.3091(2)
H6_2 H 0.5364 0.6143 0.3327
C5_2 C 0.6072(7) 0.6094(4) 0.2601(2)
C6_2 C 0.4722(7) 0.5446(4) 0.24336(18)
C7_2 C 0.2995(8) 0.5480(4) 0.2620(2)
H7_2 H 0.2677 0.5889 0.2854
C8_2 C 0.5161(8) 0.4847(3) 0.2084(2)
H8_2 H 0.6321 0.4822 0.1948
C9_2 C 0.1713(8) 0.4885(4) 0.2450(2)
H9_2 H 0.0541 0.4910 0.2578
C10_2 C 0.3805(7) 0.4274(4) 0.1939(2)
H10_2 H 0.4105 0.3858 0.1706
C11_2 C 0.9968(9) 0.9183(4) 0.39220(19)
C16 C 0.8839(8) 0.9820(4) 0.5235(2)
C17_2 C 0.8731(9) 0.9455(5) 0.4771(2)
H13_2 H 0.7753 0.9106 0.4690
C8_3 C 0.0161(8) 0.0153(3) 0.7916(2)
H8_3 H 0.1321 0.0178 0.8052
Ni1 Ni 0.48950(9) 0.65587(5) 0.68717(2)
O1_3 O 0.3887(5) 0.6430(3) 0.61404(13)
O2 O 0.6014(5) 0.5562(3) 0.64209(13)
O3 O 0.8790(4) 0.3643(2) 0.25192(12)
O4 O 0.6437(6) 0.2772(3) 0.25000(14)
O5_2 O 0.0869(8) 0.5571(6) 0.4582(2)
O6_2 O 0.2806(8) 0.5468(5) 0.39648(19)
O7 O 0.1749(8) 0.3187(6) 0.3722(3)
O8 O 0.2343(8) 0.3569(5) 0.4438(2)
O9 O 0.7004(5) 0.7380(3) 0.66324(14)
H1 H 0.7912 0.7412 0.6887
H2 H 0.6521 0.7941 0.6571
N1_3 N 0.3440(6) 0.7609(3) 0.70996(17)
N3_2 N 0.2413(9) 0.5401(5) 0.4404(2)
N4 N 0.2845(9) 0.3440(6) 0.4034(3)
C1_3 C 0.3420(8) 0.7896(4) 0.7564(2)
H3_3 H 0.4207 0.7646 0.7792
C2_3 C 0.2326(8) 0.7998(4) 0.6777(2)
H4_3 H 0.2370 0.7832 0.6446
C3_3 C 0.2316(7) 0.8533(4) 0.7723(2)
H5_3 H 0.2389 0.8722 0.8050
C4_3 C 0.1136(8) 0.8620(4) 0.6909(2)
H6_3 H 0.0364 0.8857 0.6673
C5_3 C 0.1072(7) 0.8906(4) 0.7399(2)
C11_3 C 0.4968(9) 0.5817(4) 0.60780(19)
C12 C 0.5066(10) 0.5392(4) 0.55684(18)
C13 C 0.6412(8) 0.4828(4) 0.54632(19)
H11 H 0.7249 0.4674 0.5706
C14 C 0.6531(9) 0.4480(4) 0.4989(2)
H12 H 0.7495 0.4118 0.4914
C15 C 0.5259(9) 0.4658(4) 0.46254(19)
C16_2 C 0.3839(8) 0.5180(4) 0.4765(2)
C17_3 C 0.3731(9) 0.5545(5) 0.5229(2)
H13_3 H 0.2753 0.5894 0.5310
C18 C 0.7356(7) 0.3322(3) 0.26936(18)
C19 C 0.6767(7) 0.3688(3) 0.31801(18)
C20 C 0.5122(8) 0.3452(4) 0.33744(18)
H14 H 0.4367 0.3083 0.3199
C21 C 0.4579(8) 0.3767(4) 0.3838(2)
C22 C 0.5639(8) 0.4318(4) 0.4109(2)
C23 C 0.7285(8) 0.4567(4) 0.3912(2)
H15 H 0.8018 0.4953 0.4082
C24 C 0.7855(8) 0.4229(4) 0.3445(2)
H16 H 0.8987 0.4380 0.3319
O10 O 0.6210(4) 0.6357(2) 0.75192(12)
N5_2 N 0.2907(6) 0.5716(3) 0.71141(16)
O2_2 O 0.8986(5) 0.4438(3) 0.14209(13)
O9_2 O 0.7996(5) 0.2620(3) 0.16324(14)
H1_2 H 0.7088 0.2588 0.1887
H2_2 H 0.8479 0.2059 0.1571
C12_2 C 0.9934(10) 0.4608(4) 0.05684(18)
C13_2 C 0.8588(8) 0.5172(4) 0.04632(19)
H11_2 H 0.7751 0.5326 0.0706
O4_2 O 0.8563(6) 0.7228(3) 0.75000(14)
C14_2 C 0.8469(9) 0.5520(4) 0.9989(2)
H12_2 H 0.7505 0.5882 0.9914
C15_2 C 0.9741(9) 0.5342(4) 0.96254(19)
C18_2 C 0.7644(7) 0.6678(3) 0.76936(18)
C19_2 C 0.8233(7) 0.6312(3) 0.81801(18)
C20_2 C 0.9878(8) 0.6548(4) 0.83744(18)
C22_2 C 0.9361(8) 0.5682(4) 0.9109(2)
C23_2 C 0.7715(8) 0.5433(4) 0.8912(2)
H15_2 H 0.6982 0.5047 0.9082
C24_2 C 0.7145(8) 0.5771(4) 0.8445(2)
H16_2 H 0.6013 0.5620 0.8319
C6_3 C 0.0278(7) 0.4554(4) 0.74336(18)
C7_3 C 0.2005(8) 0.4520(4) 0.7620(2)
H7_3 H 0.2323 0.4111 0.7854
C9_3 C 0.3287(8) 0.5115(4) 0.7450(2)
H9_3 H 0.4459 0.5090 0.7578
C10_3 C 0.1195(7) 0.5726(4) 0.6939(2)
H10_3 H 0.0895 0.6142 0.6706
N2_2 N 0.7093(6) 0.0716(3) 0.78859(16)
C9_4 C 0.6713(8) 0.0115(4) 0.7550(2)
H9_4 H 0.5541 0.0090 0.7422
C10_4 C 0.8805(7) 0.0726(4) 0.8061(2)
H10_4 H 0.9105 0.1142 0.8294
Ni3_2 Ni 0.51050(9) 0.15587(5) 0.81283(2)
O3_2 O 0.3790(4) 0.1357(2) 0.74808(12)
O4_3 O 0.1437(6) 0.2228(3) 0.75000(14)
C13_3 C 0.1412(8) 0.0172(4) 0.45368(19)
H11_3 H 0.2249 0.0326 0.4294
C14_3 C 0.1531(9) 0.0520(4) 0.5011(2)
H12_3 H 0.2495 0.0882 0.5086
C15_3 C 0.0259(9) 0.0342(4) 0.53746(19)
C18_3 C 0.2356(7) 0.1678(3) 0.73064(18)
C19_3 C 0.1767(7) 0.1312(3) 0.68199(18)
C20_3 C 0.0122(8) 0.1548(4) 0.66256(18)
C22_3 C 0.0639(8) 0.0682(4) 0.5891(2)
C23_3 C 0.2285(8) 0.0433(4) 0.6088(2)
H15_3 H 0.3018 0.0047 0.5918
C24_3 C 0.2855(8) 0.0771(4) 0.6555(2)
H16_3 H 0.3987 0.0620 0.6681
O1_4 O 0.6113(5) 0.1430(3) 0.88596(13)
O2_3 O 0.3986(5) 0.0562(3) 0.85791(13)
O9_3 O 0.2996(5) 0.2380(3) 0.83676(14)
H1_3 H 0.2088 0.2412 0.8113
H2_3 H 0.3479 0.2941 0.8429
N1_4 N 0.6560(6) 0.2609(3) 0.79004(17)
C1_4 C 0.6580(8) 0.2896(4) 0.7436(2)
H3_4 H 0.5793 0.2646 0.7208
C2_4 C 0.7674(8) 0.2998(4) 0.8223(2)
H4_4 H 0.7630 0.2832 0.8554
C3_4 C 0.7684(7) 0.3533(4) 0.7277(2)
H5_4 H 0.7611 0.3722 0.6950
C4_4 C 0.8864(8) 0.3620(4) 0.8091(2)
H6_4 H 0.9636 0.3857 0.8327
C5_4 C 0.8928(7) 0.3906(4) 0.7601(2)
C8_4 C 0.9839(8) 0.5153(3) 0.7084(2)
H8_4 H 0.8679 0.5178 0.6948
C11_4 C 0.5032(9) 0.0817(4) 0.89220(19)
C12_3 C 0.4934(10) 0.0392(4) 0.94316(18)
C17_4 C 0.6269(9) 0.0545(5) 0.9771(2)
H13_4 H 0.7247 0.0894 0.9690
C6_4 C 0.9722(7) 0.9554(4) 0.75664(18)
C7_4 C 0.7995(8) 0.9520(4) 0.7380(2)
H7_4 H 0.7677 0.9111 0.7146
O5_3 O 0.4131(8) 0.4429(6) 0.9582(2)
O6_3 O 0.2194(8) 0.4532(5) 0.89648(19)
O7_2 O 0.3251(8) 0.6813(6) 0.8722(3)
O8_2 O 0.2657(8) 0.6431(5) 0.9438(2)
N3_3 N 0.2587(9) 0.4599(5) 0.9404(2)
N4_2 N 0.2155(9) 0.6560(6) 0.9034(3)
C16_3 C 0.1161(8) 0.4820(4) 0.9765(2)
H14_2 H 0.0633 0.6917 0.8199
C21_2 C 0.0421(8) 0.6233(4) 0.8838(2)
O2_4 O 0.1014(5) 0.9438(3) 0.35791(13)
O9_4 O 0.2004(5) 0.7620(3) 0.33676(14)
H1_4 H 0.2912 0.7588 0.3113
H2_4 H 0.1521 0.7059 0.3429
C12_4 C 0.0066(10) 0.9608(4) 0.44316(18)
O10_2 O 0.1210(4) 0.8643(2) 0.24808(12)
O4_4 O 0.3563(6) 0.7772(3) 0.25000(14)
O7_3 O 0.8251(8) 0.8187(6) 0.1278(3)
O8_3 O 0.7657(8) 0.8569(5) 0.0562(2)
N4_3 N 0.7155(9) 0.8440(6) 0.0966(3)
C14_4 C 0.3469(9) 0.9480(4) 0.0011(2)
H12_4 H 0.2505 0.9118 0.0086
C15_4 C 0.4741(9) 0.9658(4) 0.03746(19)
C18_4 C 0.2644(7) 0.8322(3) 0.23064(18)
C19_4 C 0.3233(7) 0.8688(3) 0.18199(18)
C20_4 C 0.4878(8) 0.8452(4) 0.16256(18)
H14_3 H 0.5633 0.8083 0.1801
C21_3 C 0.5421(8) 0.8767(4) 0.1162(2)
C22_4 C 0.4361(8) 0.9318(4) 0.0891(2)
C23_4 C 0.2715(8) 0.9567(4) 0.1088(2)
H15_4 H 0.1982 0.9953 0.0918
C24_4 C 0.2145(8) 0.9229(4) 0.1555(2)
H16_4 H 0.1013 0.9380 0.1681
O7_4 O 0.6749(8) 0.1813(6) 0.6278(3)
O8_4 O 0.7343(8) 0.1431(5) 0.5562(2)
N4_4 N 0.7845(9) 0.1560(6) 0.5966(3)
H14_4 H 0.9367 0.1917 0.6801
C21_4 C 0.9579(8) 0.1233(4) 0.6162(2)
O5_4 O 0.9131(8) 0.0571(6) 0.0418(2)
O6_4 O 0.7194(8) 0.0468(5) 0.10352(19)
N3_4 N 0.7587(9) 0.0401(5) 0.0596(2)
C16_4 C 0.6161(8) 0.0180(4) 0.0235(2)
C13_4 C 0.3588(8) 0.9828(4) 0.95368(19)
H11_4 H 0.2751 0.9674 0.9294
loop_
_geom_bond_atom_site_label_1
_geom_bond_atom_site_label_2
_geom_bond_site_symmetry_1
_geom_bond_site_symmetry_2
Ni2 O1 1_555 1_555
O1 C11 1_555 1_555
N1 Ni2 1_555 1_555
C1 N1 1_555 1_555
H3 C1 1_555 1_555
C2 N1 1_555 1_555
H4 C2 1_555 1_555
C3 C1 1_555 1_555
H5 C3 1_555 1_555
C4 C2 1_555 1_555
H6 C4 1_555 1_555
C5 C3 1_555 1_555
C6 C5 1_555 1_555
C7 C6 1_555 1_555
H7 C7 1_555 1_555
H13 C17 1_555 1_555
N5 Ni2 1_555 1_555
C4 C5 1_555 1_555
N2 C9 1_555 1_555
H8 C8 1_555 1_555
H9 C9 1_555 1_555
C10 N2 1_555 1_555
H10 C10 1_555 1_555
Ni3 N2 1_555 1_555
C8 C10 1_555 1_555
Ni3 O1_2 1_555 1_555
O1_2 C11_2 1_555 1_555
O5 N3 1_555 1_555
O6 N3 1_555 1_555
N1_2 Ni3 1_555 1_555
N5 C9_2 1_555 1_555
N3 C16 1_555 1_555
C1_2 N1_2 1_555 1_555
H3_2 C1_2 1_555 1_555
C2_2 N1_2 1_555 1_555
H4_2 C2_2 1_555 1_555
C3_2 C1_2 1_555 1_555
H5_2 C3_2 1_555 1_555
C4_2 C2_2 1_555 1_555
H6_2 C4_2 1_555 1_555
C5_2 C3_2 1_555 1_555
C6_2 C5_2 1_555 1_555
C7_2 C6_2 1_555 1_555
H7_2 C7_2 1_555 1_555
C8_2 C6_2 1_555 1_555
H8_2 C8_2 1_555 1_555
C9_2 C7_2 1_555 1_555
H9_2 C9_2 1_555 1_555
C10_2 N5 1_555 1_555
H10_2 C10_2 1_555 1_555
H13_2 C17_2 1_555 1_555
C4_2 C5_2 1_555 1_555
C8_2 C10_2 1_555 1_555
C16 C17_2 1_555 1_555
H8_3 C8_3 1_555 1_555
Ni1 O1_3 1_555 1_555
O1_3 C11_3 1_555 1_555
O2 Ni1 1_555 1_555
O3 C18 1_555 1_555
O4 C18 1_555 1_555
O5_2 N3_2 1_555 1_555
O6_2 N3_2 1_555 1_555
O7 N4 1_555 1_555
O8 N4 1_555 1_555
O9 Ni1 1_555 1_555
H1 O9 1_555 1_555
H2 O9 1_555 1_555
N1_3 Ni1 1_555 1_555
N3_2 C16_2 1_555 1_555
N4 C21 1_555 1_555
C1_3 N1_3 1_555 1_555
H3_3 C1_3 1_555 1_555
C2_3 N1_3 1_555 1_555
H4_3 C2_3 1_555 1_555
C3_3 C1_3 1_555 1_555
H5_3 C3_3 1_555 1_555
C4_3 C2_3 1_555 1_555
H6_3 C4_3 1_555 1_555
C5_3 C3_3 1_555 1_555
C11_3 O2 1_555 1_555
C12 C11_3 1_555 1_555
C13 C12 1_555 1_555
H11 C13 1_555 1_555
C14 C13 1_555 1_555
H12 C14 1_555 1_555
C15 C14 1_555 1_555
C16_2 C15 1_555 1_555
C17_3 C12 1_555 1_555
H13_3 C17_3 1_555 1_555
C18 C19 1_555 1_555
C19 C20 1_555 1_555
C20 H14 1_555 1_555
C21 C20 1_555 1_555
C22 C15 1_555 1_555
C23 C22 1_555 1_555
H15 C23 1_555 1_555
C24 C19 1_555 1_555
H16 C24 1_555 1_555
O10 Ni1 1_555 1_555
N5_2 Ni1 1_555 1_555
C4_3 C5_3 1_555 1_555
C16_2 C17_3 1_555 1_555
C21 C22 1_555 1_555
C23 C24 1_555 1_555
H1_2 O9_2 1_555 1_555
H2_2 O9_2 1_555 1_555
C13_2 C12_2 1_555 1_555
H11_2 C13_2 1_555 1_555
O10 C18_2 1_555 1_555
O4_2 C18_2 1_555 1_555
H12_2 C14_2 1_555 1_555
C15_2 C14_2 1_555 1_555
C18_2 C19_2 1_555 1_555
C19_2 C20_2 1_555 1_555
C22_2 C15_2 1_555 1_555
C23_2 C22_2 1_555 1_555
H15_2 C23_2 1_555 1_555
C24_2 C19_2 1_555 1_555
H16_2 C24_2 1_555 1_555
C23_2 C24_2 1_555 1_555
N5_2 C9_3 1_555 1_555
C7_3 C6_3 1_555 1_555
H7_3 C7_3 1_555 1_555
C9_3 C7_3 1_555 1_555
H9_3 C9_3 1_555 1_555
C10_3 N5_2 1_555 1_555
H10_3 C10_3 1_555 1_555
N2_2 C9_4 1_555 1_555
H9_4 C9_4 1_555 1_555
C10_4 N2_2 1_555 1_555
H10_4 C10_4 1_555 1_555
Ni3_2 N2_2 1_555 1_555
O3_2 C18_3 1_555 1_555
O4_3 C18_3 1_555 1_555
H11_3 C13_3 1_555 1_555
C14_3 C13_3 1_555 1_555
H12_3 C14_3 1_555 1_555
C15_3 C14_3 1_555 1_555
C18_3 C19_3 1_555 1_555
C19_3 C20_3 1_555 1_555
C22_3 C15_3 1_555 1_555
C23_3 C22_3 1_555 1_555
H15_3 C23_3 1_555 1_555
C24_3 C19_3 1_555 1_555
H16_3 C24_3 1_555 1_555
Ni3_2 O3_2 1_555 1_555
C23_3 C24_3 1_555 1_555
Ni3_2 O1_4 1_555 1_555
O1_4 C11_4 1_555 1_555
O2_3 Ni3_2 1_555 1_555
O9_3 Ni3_2 1_555 1_555
H1_3 O9_3 1_555 1_555
H2_3 O9_3 1_555 1_555
N1_4 Ni3_2 1_555 1_555
C1_4 N1_4 1_555 1_555
H3_4 C1_4 1_555 1_555
C2_4 N1_4 1_555 1_555
H4_4 C2_4 1_555 1_555
C3_4 C1_4 1_555 1_555
H5_4 C3_4 1_555 1_555
C4_4 C2_4 1_555 1_555
H6_4 C4_4 1_555 1_555
C5_4 C3_4 1_555 1_555
H8_4 C8_4 1_555 1_555
C11_4 O2_3 1_555 1_555
C12_3 C11_4 1_555 1_555
C17_4 C12_3 1_555 1_555
H13_4 C17_4 1_555 1_555
C4_4 C5_4 1_555 1_555
C7_4 C6_4 1_555 1_555
H7_4 C7_4 1_555 1_555
O5_3 N3_3 1_555 1_555
O6_3 N3_3 1_555 1_555
O7_2 N4_2 1_555 1_555
O8_2 N4_2 1_555 1_555
N3_3 C16_3 1_555 1_555
N4_2 C21_2 1_555 1_555
H1_4 O9_4 1_555 1_555
H2_4 O9_4 1_555 1_555
O10_2 C18_4 1_555 1_555
O4_4 C18_4 1_555 1_555
O7_3 N4_3 1_555 1_555
O8_3 N4_3 1_555 1_555
N4_3 C21_3 1_555 1_555
H12_4 C14_4 1_555 1_555
C15_4 C14_4 1_555 1_555
C18_4 C19_4 1_555 1_555
C19_4 C20_4 1_555 1_555
C20_4 H14_3 1_555 1_555
C21_3 C20_4 1_555 1_555
C22_4 C15_4 1_555 1_555
C23_4 C22_4 1_555 1_555
H15_4 C23_4 1_555 1_555
C24_4 C19_4 1_555 1_555
H16_4 C24_4 1_555 1_555
C21_3 C22_4 1_555 1_555
C23_4 C24_4 1_555 1_555
O7_4 N4_4 1_555 1_555
O8_4 N4_4 1_555 1_555
N4_4 C21_4 1_555 1_555
O5_4 N3_4 1_555 1_555
O6_4 N3_4 1_555 1_555
N3_4 C16_4 1_555 1_555
H11_4 C13_4 1_555 1_555

#END
