
###############################################################################
#
# This file contains modified crystal structure data generated from the
# MOF subset of the Cambridge Structural Database (CSD) v543 
# hosted by the Cambridge Crystallographic Data Centre (CCDC).
#
# This work is licensed under the Creative Commons
# Attribution-NonCommercial-ShareAlike 4.0 International License.
# To view a copy of this license, visit
# http://creativecommons.org/licenses/by-nc-sa/4.0/
# or send a letter to
# Creative Commons, PO Box 1866, Mountain View, CA 94042, USA.
#
# CIF created using the CSD Python API on 29 September 2022
# The structure has been converted into the P1 space group
# The structure has a 3D framework
# The original CSD entry WALSOV is in the rhombohedral crystal system
# The framework has been calculated to contain at least 10.0% void space
# The void calculation uses a probe of radius 1.32A, grid spacing 0.4
#
###############################################################################

data_WALSOV
_chemical_formula_moiety         '(C504 H306 N36 Na8 O118 Pb30)n'
_symmetry_cell_setting           triclinic
_symmetry_space_group_name_H-M   'P 1'
_symmetry_Int_Tables_number      1
_space_group_name_Hall           'P 1'
loop_
_symmetry_equiv_pos_site_id
_symmetry_equiv_pos_as_xyz
1 x,y,z
_cell_length_a                   25.2890(3)
_cell_length_b                   25.2890(3)
_cell_length_c                   23.8621(7)
_cell_angle_alpha                90
_cell_angle_beta                 90
_cell_angle_gamma                120
_cell_volume                     13216.1
loop_
_atom_site_label
_atom_site_type_symbol
_atom_site_fract_x
_atom_site_fract_y
_atom_site_fract_z
H70 H 0.0777 0.0007 0.3004
H72 H 0.2422 0.0232 0.0777
C120 C 0.1430(5) 0.0283(7) 0.2062(5)
H74 H 0.1330 0.0584 0.2133
C121 C 0.1761(5) 0.0330(7) 0.1619(5)
H75 H 0.1887 0.0664 0.1383
Pb4 Pb 0.137582(21) 0.317442(15) 0.419869(13)
N5 N 0.2247(5) 0.3720(4) 0.4936(3)
N6 N 0.2146(5) 0.4312(3) 0.4010(3)
C57 C 0.2541(7) 0.5198(5) 0.3427(5)
H35 H 0.2489 0.5385 0.3113
C58 C 0.3042(7) 0.5501(5) 0.3755(5)
H36 H 0.3340 0.5896 0.3663
C59 C 0.2702(6) 0.4316(5) 0.4830(4)
C60 C 0.2115(7) 0.4613(5) 0.3567(4)
H37 H 0.1777 0.4410 0.3334
C61 C 0.2643(6) 0.4612(4) 0.4349(4)
C62 C 0.3236(8) 0.4285(6) 0.5644(4)
H38 H 0.3565 0.4476 0.5890
C63 C 0.2299(6) 0.3431(5) 0.5375(4)
H39 H 0.1995 0.3031 0.5444
C64 C 0.3616(7) 0.5519(5) 0.4605(5)
H40 H 0.3917 0.5920 0.4534
C65 C 0.3663(7) 0.5235(5) 0.5048(5)
H41 H 0.3997 0.5443 0.5284
C66 C 0.3112(6) 0.5222(5) 0.4231(4)
C67 C 0.3213(6) 0.4610(5) 0.5181(4)
C68 C 0.2802(8) 0.3710(6) 0.5745(4)
H42 H 0.2830 0.3498 0.6051
O16 O 0.0456(4) 0.4391(3) 0.1758(3)
O20 O 0.0292(4) 0.2602(3) 0.3680(3)
O21 O 0.1042(4) 0.3392(3) 0.3255(2)
C76 C 0.0056(6) 0.2932(4) 0.2829(3)
C82 C 0.0487(6) 0.2969(4) 0.3286(4)
C83 C 0.0222(6) 0.3402(4) 0.2457(3)
H50 H 0.0610 0.3744 0.2475
Pb7 Pb 0.153473(15) 0.804249(21) 0.246798(13)
N9 N 0.1860(3) 0.8914(5) 0.1731(3)
N10 N 0.1167(4) 0.8813(5) 0.2657(3)
C113 C 0.0676(5) 0.9208(7) 0.3240(5)
H69 H 0.0437 0.9156 0.3554
C114 C 0.0874(5) 0.9709(7) 0.2912(5)
C115 C 0.1719(4) 0.9369(6) 0.1837(4)
C116 C 0.0835(5) 0.8782(7) 0.3100(4)
H71 H 0.0700 0.8444 0.3333
C117 C 0.1364(4) 0.9310(6) 0.2318(4)
C118 C 0.2284(5) 0.9903(8) 0.1023(4)
C119 C 0.2201(4) 0.8966(6) 0.1292(4)
H73 H 0.2297 0.8662 0.1223
C122 C 0.1223(4) 0.9779(6) 0.2436(4)
C123 C 0.1936(4) 0.9880(6) 0.1486(4)
C124 C 0.2425(5) 0.9469(8) 0.0922(4)
H76 H 0.2665 0.9497 0.0616
O34 O 0.1023(3) 0.6959(4) 0.2987(3)
O35 O 0.0983(3) 0.7709(4) 0.3412(2)
C125 C 0.0043(4) 0.5736(6) 0.4271(3)
C126 C 0.0410(4) 0.6157(6) 0.3863(3)
H77 H 0.0622 0.6055 0.3607
H79 H 0.0346 0.5154 0.4508
C132 C 0.0457(4) 0.6723(6) 0.3838(3)
C138 C 0.0851(4) 0.7154(6) 0.3381(4)
C139 C 0.0153(4) 0.6889(6) 0.4210(3)
H84 H 0.0199 0.7277 0.4192
Pb10 Pb 0.179860(15) 0.862418(21) 0.419869(13)
Pb12 Pb 0.015891(15) 0.486807(15) 0.086536(13)
Pb20 Pb 0.195751(21) 0.349225(15) 0.246798(13)
O44 O 0.0602(3) 0.2877(4) 0.5091(3)
O46 O 0.1058(3) 0.7268(3) 0.1575(3)
O50 O 0.0901(3) 0.3721(4) 0.4604(2)
O52 O 0.0513(3) 0.7567(3) 0.2062(2)
O56 O 0.2350(3) 0.8958(4) 0.3255(2)
O60 O 0.2291(4) 0.3275(3) 0.3412(2)
Pb1 Pb 0.6667 0.3333 0.47707(2)
Pb2 Pb 0.682558(15) 0.820140(15) 0.419869(13)
N1 N 0.6280(4) 0.8527(3) 0.4936(3)
N2 N 0.5688(3) 0.7834(4) 0.4010(3)
C1 C 0.4802(5) 0.7343(5) 0.3427(5)
H1 H 0.4615 0.7104 0.3113
C2 C 0.4499(5) 0.7541(5) 0.3755(5)
H2 H 0.4104 0.7444 0.3663
C3 C 0.5684(5) 0.8386(4) 0.4830(4)
C4 C 0.5387(5) 0.7502(5) 0.3567(4)
H3 H 0.5590 0.7367 0.3334
C5 C 0.5388(4) 0.8031(4) 0.4349(4)
C6 C 0.5715(6) 0.8951(5) 0.5644(4)
H4 H 0.5524 0.9089 0.5890
C7 C 0.6569(5) 0.8868(4) 0.5375(4)
H5 H 0.6969 0.8964 0.5444
C8 C 0.4481(5) 0.8097(5) 0.4605(5)
H6 H 0.4080 0.7997 0.4534
C9 C 0.4765(5) 0.8428(5) 0.5048(5)
H7 H 0.4557 0.8554 0.5284
C10 C 0.4778(5) 0.7890(4) 0.4231(4)
C11 C 0.5390(5) 0.8603(4) 0.5181(4)
C12 C 0.6290(6) 0.9092(5) 0.5745(4)
H8 H 0.6502 0.9332 0.6051
O1 O 0.6893(3) 0.4067(3) 0.4077(2)
O2 O 0.5609(3) 0.6065(3) 0.1758(3)
O3 O 0.6154(3) 0.5766(3) 0.1271(2)
O4 O 0.8454(3) 0.6650(3) 0.2906(2)
O5 O 0.7641(3) 0.4507(3) 0.4696(2)
O6 O 0.7398(3) 0.7690(3) 0.3680(3)
O7 O 0.6608(3) 0.7650(3) 0.3255(2)
C13 C 0.7641(4) 0.6710(4) 0.2396(3)
C14 C 0.7587(4) 0.7077(4) 0.2804(3)
H9 H 0.7901 0.7289 0.3060
C15 C 0.8217(4) 0.6665(4) 0.2367(3)
H10 H 0.8129 0.6299 0.2162
H11 H 0.8526 0.7013 0.2159
C16 C 0.7610(4) 0.5610(4) 0.3070(3)
H12 H 0.7410 0.5613 0.2745
C17 C 0.8158(4) 0.6119(4) 0.3221(3)
C18 C 0.7158(4) 0.6393(4) 0.2020(4)
H13 H 0.7187 0.6146 0.1747
C19 C 0.7368(4) 0.5108(4) 0.3402(3)
H14 H 0.7001 0.4767 0.3298
C20 C 0.7068(4) 0.7124(4) 0.2829(3)
C21 C 0.7395(4) 0.4531(4) 0.4252(3)
C22 C 0.6094(4) 0.6072(4) 0.1667(3)
C23 C 0.6634(4) 0.6442(3) 0.2049(3)
C24 C 0.7654(4) 0.5089(4) 0.3894(3)
C25 C 0.8455(4) 0.6120(4) 0.3707(3)
H15 H 0.8820 0.6465 0.3807
C26 C 0.7031(4) 0.7518(4) 0.3286(4)
C27 C 0.6598(4) 0.6820(4) 0.2457(3)
H16 H 0.6256 0.6866 0.2475
C28 C 0.8208(4) 0.5609(4) 0.4045(3)
H17 H 0.8408 0.5607 0.4371
Na1 Na 0.6666 0.3334 0.3334
O8 O 0.5933(3) 0.2826(4) 0.4077(2)
O10 O 0.4234(3) 0.0388(4) 0.1271(2)
O11 O 0.3350(3) 0.1804(4) 0.2906(2)
O12 O 0.5493(3) 0.3134(4) 0.4696(2)
C41 C 0.3290(4) 0.0931(6) 0.2396(3)
C42 C 0.2923(4) 0.0510(6) 0.2804(3)
H26 H 0.2711 0.0612 0.3060
C43 C 0.3335(4) 0.1552(6) 0.2367(3)
H27 H 0.3701 0.1830 0.2162
H28 H 0.2987 0.1513 0.2159
C44 C 0.4390(4) 0.2000(6) 0.3070(3)
H29 H 0.4387 0.1797 0.2745
C45 C 0.3881(4) 0.2039(6) 0.3221(3)
C46 C 0.3607(4) 0.0765(6) 0.2020(4)
H30 H 0.3854 0.1041 0.1747
C47 C 0.4892(4) 0.2260(6) 0.3402(3)
H31 H 0.5233 0.2234 0.3298
C49 C 0.5469(4) 0.2864(6) 0.4252(3)
C50 C 0.3928(4) 0.0022(6) 0.1667(3)
C51 C 0.3558(3) 0.0192(5) 0.2049(3)
C52 C 0.4911(4) 0.2565(6) 0.3894(3)
C53 C 0.3880(4) 0.2335(6) 0.3707(3)
H32 H 0.3535 0.2355 0.3807
C56 C 0.4391(4) 0.2599(6) 0.4045(3)
H34 H 0.4393 0.2801 0.4371
O15 O 0.7174(4) 0.3107(3) 0.4077(2)
O17 O 0.9612(4) 0.3846(3) 0.1271(2)
O18 O 0.8196(4) 0.1546(3) 0.2906(2)
O19 O 0.6866(4) 0.2359(3) 0.4696(2)
C69 C 0.9069(6) 0.2359(4) 0.2396(3)
C70 C 0.9490(6) 0.2413(4) 0.2804(3)
H43 H 0.9388 0.2099 0.3060
C71 C 0.8448(6) 0.1783(4) 0.2367(3)
H44 H 0.8170 0.1871 0.2162
H45 H 0.8487 0.1474 0.2159
C72 C 0.8000(6) 0.2390(4) 0.3070(3)
H46 H 0.8203 0.2590 0.2745
C73 C 0.7961(6) 0.1842(4) 0.3221(3)
C74 C 0.9235(6) 0.2842(4) 0.2020(4)
H47 H 0.8959 0.2813 0.1747
C75 C 0.7740(6) 0.2632(4) 0.3402(3)
H48 H 0.7766 0.2999 0.3298
C77 C 0.7136(6) 0.2605(4) 0.4252(3)
C78 C 0.9978(6) 0.3906(4) 0.1667(3)
C79 C 0.9808(5) 0.3366(4) 0.2049(3)
C80 C 0.7435(6) 0.2346(4) 0.3894(3)
C81 C 0.7665(6) 0.1545(4) 0.3707(3)
H49 H 0.7645 0.1180 0.3807
C84 C 0.7401(6) 0.1792(4) 0.4045(3)
H51 H 0.7199 0.1592 0.4371
Pb5 Pb 0.6666 0.3334 0.18960(2)
O22 O 0.6440(3) 0.2600(3) 0.2590(2)
O23 O 0.7724(3) 0.0602(3) 0.4909(3)
O24 O 0.7179(3) 0.0901(3) 0.5396(2)
O25 O 0.4879(3) 0.0017(3) 0.3761(2)
O26 O 0.5692(3) 0.2160(3) 0.1971(2)
C99 C 0.5116(4) 0.0002(4) 0.4300(3)
H61 H 0.5204 0.0368 0.4505
C100 C 0.5723(4) 0.1057(4) 0.3597(3)
H63 H 0.5923 0.1054 0.3922
C101 C 0.5175(4) 0.0548(4) 0.3446(3)
C102 C 0.6175(4) 0.0274(4) 0.4647(4)
H64 H 0.6146 0.0521 0.4920
C103 C 0.5965(4) 0.1559(4) 0.3265(3)
H65 H 0.6332 0.1900 0.3369
C105 C 0.5938(4) 0.2136(4) 0.2415(3)
C106 C 0.7239(4) 0.0595(4) 0.5000(3)
C107 C 0.6699(4) 0.0225(3) 0.4618(3)
C108 C 0.5679(4) 0.1578(4) 0.2773(3)
C109 C 0.4878(4) 0.0547(4) 0.2960(3)
H66 H 0.4513 0.0202 0.2860
C112 C 0.5125(4) 0.1058(4) 0.2622(3)
H68 H 0.4925 0.1060 0.2296
O29 O 0.7400(3) 0.3841(4) 0.2590(2)
O30 O 0.9398(3) 0.7123(4) 0.4909(3)
O31 O 0.9099(3) 0.6279(4) 0.5396(2)
O32 O 0.9983(3) 0.4863(4) 0.3761(2)
O33 O 0.7840(3) 0.3533(4) 0.1971(2)
C127 C 0.9998(4) 0.5115(6) 0.4300(3)
H78 H 0.9632 0.4837 0.4505
C128 C 0.8943(4) 0.4667(6) 0.3597(3)
H80 H 0.8946 0.4870 0.3922
C129 C 0.9452(4) 0.4628(6) 0.3446(3)
C130 C 0.9726(4) 0.5902(6) 0.4647(4)
H81 H 0.9479 0.5626 0.4920
C131 C 0.8441(4) 0.4407(6) 0.3265(3)
H82 H 0.8100 0.4433 0.3369
C133 C 0.7864(4) 0.3803(6) 0.2415(3)
C134 C 0.9405(4) 0.6645(6) 0.5000(3)
C135 C 0.9775(3) 0.6475(5) 0.4618(3)
C136 C 0.8422(4) 0.4102(6) 0.2773(3)
C137 C 0.9453(4) 0.4332(6) 0.2960(3)
H83 H 0.9798 0.4312 0.2860
C140 C 0.8942(4) 0.4068(6) 0.2622(3)
H85 H 0.8940 0.3866 0.2296
N11 N 0.1086(5) 0.2947(4) 0.1731(3)
N12 N 0.1187(5) 0.2355(3) 0.2657(3)
C141 C 0.0792(7) 0.1469(5) 0.3240(5)
H86 H 0.0844 0.1282 0.3554
C142 C 0.0291(7) 0.1166(5) 0.2912(5)
C143 C 0.0631(6) 0.2351(5) 0.1837(4)
C144 C 0.1218(7) 0.2054(5) 0.3100(4)
H88 H 0.1556 0.2257 0.3333
C145 C 0.0690(6) 0.2055(4) 0.2318(4)
C146 C 0.0097(8) 0.2382(6) 0.1023(4)
C147 C 0.1034(6) 0.3236(5) 0.1292(4)
H90 H 0.1338 0.3636 0.1223
C150 C 0.0221(6) 0.1445(5) 0.2436(4)
C151 C 0.0120(6) 0.2057(5) 0.1486(4)
C152 C 0.0531(8) 0.2957(6) 0.0922(4)
H93 H 0.0503 0.3169 0.0616
O36 O 0.6159(4) 0.3560(3) 0.2590(2)
O37 O 0.2877(4) 0.2276(3) 0.4909(3)
O38 O 0.3721(4) 0.2821(3) 0.5396(2)
O39 O 0.5137(4) 0.5121(3) 0.3761(2)
O40 O 0.6467(4) 0.4308(3) 0.1971(2)
O41 O 0.3041(4) 0.4065(3) 0.2987(3)
C153 C 0.4264(6) 0.4308(4) 0.4271(3)
C154 C 0.3843(6) 0.4254(4) 0.3863(3)
H94 H 0.3945 0.4568 0.3607
C155 C 0.4885(6) 0.4884(4) 0.4300(3)
H95 H 0.5163 0.4796 0.4505
H96 H 0.4846 0.5193 0.4508
C156 C 0.5333(6) 0.4277(4) 0.3597(3)
H97 H 0.5130 0.4077 0.3922
C157 C 0.5372(6) 0.4825(4) 0.3446(3)
C158 C 0.4098(6) 0.3825(4) 0.4647(4)
H98 H 0.4374 0.3854 0.4920
C159 C 0.5593(6) 0.4035(4) 0.3265(3)
H99 H 0.5567 0.3668 0.3369
C160 C 0.3277(6) 0.3735(4) 0.3838(3)
C161 C 0.6197(6) 0.4062(4) 0.2415(3)
C162 C 0.3355(6) 0.2761(4) 0.5000(3)
C163 C 0.3525(5) 0.3301(4) 0.4618(3)
C164 C 0.5898(6) 0.4321(4) 0.2773(3)
C165 C 0.5668(6) 0.5122(4) 0.2960(3)
H100 H 0.5688 0.5487 0.2860
C166 C 0.2846(6) 0.3698(4) 0.3381(4)
C167 C 0.3111(6) 0.3265(4) 0.4210(3)
H101 H 0.2723 0.2923 0.4192
C168 C 0.5932(6) 0.4875(4) 0.2622(3)
H102 H 0.6134 0.5075 0.2296
Pb13 Pb 0.513193(15) 0.529085(21) 0.086536(13)
Pb15 Pb 0.317442(15) 0.179860(15) 0.580131(13)
Pb16 Pb 0.820140(15) 0.137582(21) 0.580131(13)
Pb17 Pb 0.862418(21) 0.682558(15) 0.580131(13)
Pb18 Pb 0.650775(15) 0.846527(15) 0.246798(13)
O45 O 0.7123(4) 0.7724(3) 0.5091(3)
O47 O 0.2732(3) 0.3789(4) 0.1575(3)
O51 O 0.6279(4) 0.7179(3) 0.4604(2)
O53 O 0.2433(3) 0.2945(4) 0.2062(2)
O58 O 0.6725(3) 0.9017(3) 0.3412(2)
N3 N 0.1473(3) 0.7753(5) 0.4936(3)
N4 N 0.2166(4) 0.7854(5) 0.4010(3)
C29 C 0.2657(5) 0.7459(7) 0.3427(5)
H18 H 0.2896 0.7511 0.3113
C30 C 0.2459(5) 0.6958(7) 0.3755(5)
H19 H 0.2556 0.6660 0.3663
C31 C 0.1614(4) 0.7298(6) 0.4830(4)
C32 C 0.2498(5) 0.7885(7) 0.3567(4)
H20 H 0.2633 0.8223 0.3334
C33 C 0.1969(4) 0.7357(6) 0.4349(4)
C34 C 0.1049(5) 0.6764(8) 0.5644(4)
H21 H 0.0911 0.6435 0.5890
C35 C 0.1132(4) 0.7701(6) 0.5375(4)
H22 H 0.1036 0.8005 0.5444
C36 C 0.1903(5) 0.6384(7) 0.4605(5)
H23 H 0.2003 0.6083 0.4534
C37 C 0.1572(5) 0.6337(7) 0.5048(5)
H24 H 0.1446 0.6003 0.5284
C38 C 0.2110(4) 0.6888(6) 0.4231(4)
C39 C 0.1397(4) 0.6787(6) 0.5181(4)
C40 C 0.0908(5) 0.7198(8) 0.5745(4)
H25 H 0.0668 0.7170 0.6051
O9 O 0.3935(3) 0.9544(4) 0.1758(3)
O13 O 0.2310(3) 0.9708(4) 0.3680(3)
C48 C 0.2876(4) 0.9944(6) 0.2829(3)
C54 C 0.2482(4) 0.9513(6) 0.3286(4)
C55 C 0.3180(4) 0.9778(6) 0.2457(3)
H33 H 0.3134 0.9390 0.2475
N7 N 0.7053(4) 0.8140(3) 0.1731(3)
N8 N 0.7645(3) 0.8833(4) 0.2657(3)
C85 C 0.8531(5) 0.9324(5) 0.3240(5)
H52 H 0.8718 0.9563 0.3554
C86 C 0.8834(5) 0.9126(5) 0.2912(5)
H53 H 0.9229 0.9223 0.3004
C87 C 0.7649(5) 0.8281(4) 0.1837(4)
C88 C 0.7946(5) 0.9165(5) 0.3100(4)
H54 H 0.7743 0.9300 0.3333
C89 C 0.7945(4) 0.8636(4) 0.2318(4)
C90 C 0.7618(6) 0.7716(5) 0.1023(4)
H55 H 0.7809 0.7578 0.0777
C91 C 0.6764(5) 0.7799(4) 0.1292(4)
H56 H 0.6364 0.7703 0.1223
C92 C 0.8852(5) 0.8570(5) 0.2062(5)
H57 H 0.9253 0.8670 0.2133
C93 C 0.8568(5) 0.8239(5) 0.1619(5)
H58 H 0.8776 0.8113 0.1383
C94 C 0.8555(5) 0.8777(4) 0.2436(4)
C95 C 0.7943(5) 0.8064(4) 0.1486(4)
C96 C 0.7043(6) 0.7575(5) 0.0922(4)
H59 H 0.6831 0.7335 0.0616
O27 O 0.5935(3) 0.8977(3) 0.2987(3)
C97 C 0.5692(4) 0.9957(4) 0.4271(3)
C98 C 0.5746(4) 0.9590(4) 0.3863(3)
H60 H 0.5432 0.9378 0.3607
H62 H 0.4807 0.9654 0.4508
C104 C 0.6265(4) 0.9543(4) 0.3838(3)
C110 C 0.6302(4) 0.9149(4) 0.3381(4)
C111 C 0.6735(4) 0.9847(4) 0.4210(3)
H67 H 0.7077 0.9801 0.4192
Pb14 Pb 0.470915(21) 0.984109(15) 0.086536(13)
O43 O 0.2276(3) 0.9398(3) 0.5091(3)
O48 O 0.6211(4) 0.8942(3) 0.1575(3)
O49 O 0.2821(3) 0.9099(3) 0.4604(2)
O54 O 0.7055(4) 0.9487(3) 0.2062(2)
Pb2_2 Pb 0.349225(15) 0.153473(15) 0.753202(13)
N1_2 N 0.2947(4) 0.1860(3) 0.8269(3)
N2_2 N 0.2355(3) 0.1167(4) 0.7343(3)
C1_2 C 0.1469(5) 0.0676(5) 0.6760(5)
H1_2 H 0.1282 0.0437 0.6446
C2_2 C 0.1166(5) 0.0874(5) 0.7088(5)
H2_2 H 0.0771 0.0777 0.6996
C3_2 C 0.2351(5) 0.1719(4) 0.8163(4)
C4_2 C 0.2054(5) 0.0835(5) 0.6900(4)
H3_2 H 0.2257 0.0700 0.6667
C5_2 C 0.2055(4) 0.1364(4) 0.7682(4)
C6_2 C 0.2382(6) 0.2284(5) 0.8977(4)
H4_2 H 0.2191 0.2422 0.9223
C7_2 C 0.3236(5) 0.2201(4) 0.8708(4)
H5_2 H 0.3636 0.2297 0.8777
C8_2 C 0.1148(5) 0.1430(5) 0.7938(5)
H6_2 H 0.0747 0.1330 0.7867
C9_2 C 0.1432(5) 0.1761(5) 0.8381(5)
H7_2 H 0.1224 0.1887 0.8617
C10_2 C 0.1445(5) 0.1223(4) 0.7564(4)
C11_2 C 0.2057(5) 0.1936(4) 0.8514(4)
C12_2 C 0.2957(6) 0.2425(5) 0.9078(4)
H8_2 H 0.3169 0.2665 0.9384
O6_2 O 0.4065(3) 0.1023(3) 0.7013(3)
O7_2 O 0.3275(3) 0.0983(3) 0.6588(2)
C13_2 C 0.4308(4) 0.0043(4) 0.5729(3)
C14_2 C 0.4254(4) 0.0410(4) 0.6137(3)
H9_2 H 0.4568 0.0622 0.6393
H11_2 H 0.5193 0.0346 0.5492
C20_2 C 0.3735(4) 0.0457(4) 0.6162(3)
C26_2 C 0.3698(4) 0.0851(4) 0.6619(4)
C27_2 C 0.3265(4) 0.0153(4) 0.5790(3)
H16_2 H 0.2923 0.0199 0.5808
N9_2 N 0.8527(3) 0.2247(5) 0.5064(3)
N10_2 N 0.7834(4) 0.2146(5) 0.5990(3)
C113_2 C 0.7343(5) 0.2541(7) 0.6573(5)
H69_2 H 0.7104 0.2489 0.6887
C114_2 C 0.7541(5) 0.3042(7) 0.6245(5)
H70_2 H 0.7444 0.3340 0.6337
C115_2 C 0.8386(4) 0.2702(6) 0.5170(4)
C116_2 C 0.7502(5) 0.2115(7) 0.6433(4)
H71_2 H 0.7367 0.1777 0.6666
C117_2 C 0.8031(4) 0.2643(6) 0.5651(4)
C118_2 C 0.8951(5) 0.3236(8) 0.4356(4)
H72_2 H 0.9089 0.3565 0.4110
C119_2 C 0.8868(4) 0.2299(6) 0.4625(4)
H73_2 H 0.8964 0.1995 0.4556
C120_2 C 0.8097(5) 0.3616(7) 0.5395(5)
H74_2 H 0.7997 0.3917 0.5466
C121_2 C 0.8428(5) 0.3663(7) 0.4952(5)
H75_2 H 0.8554 0.3997 0.4716
C122_2 C 0.7890(4) 0.3112(6) 0.5769(4)
C123_2 C 0.8603(4) 0.3213(6) 0.4819(4)
C124_2 C 0.9092(5) 0.2802(8) 0.4255(4)
H76_2 H 0.9332 0.2830 0.3949
O30_2 O 0.6065(3) 0.0456(4) 0.8242(3)
O34_2 O 0.7690(3) 0.0292(4) 0.6320(3)
O35_2 O 0.7650(3) 0.1042(4) 0.6745(2)
C132_2 C 0.7124(4) 0.0056(6) 0.7171(3)
C138_2 C 0.7518(4) 0.0487(6) 0.6714(4)
C139_2 C 0.6820(4) 0.0222(6) 0.7543(3)
H84_2 H 0.6866 0.0610 0.7525
Pb10_2 Pb 0.846527(15) 0.195751(21) 0.753202(13)
Pb17_2 Pb 0.529085(21) 0.015891(15) 0.913464(13)
O45_2 O 0.3789(4) 0.1058(3) 0.8425(3)
O51_2 O 0.2945(4) 0.0513(3) 0.7938(2)
O56_2 O 0.9017(3) 0.2291(4) 0.6588(2)
O58_2 O 0.3392(3) 0.2350(3) 0.6745(2)
Pb1_2 Pb 0.3334 0.6666 0.81040(2)
O1_2 O 0.3560(3) 0.7400(3) 0.7410(2)
O4_2 O 0.5121(3) 0.9983(3) 0.6239(2)
O5_2 O 0.4308(3) 0.7840(3) 0.8029(2)
C15_2 C 0.4884(4) 0.9998(4) 0.5700(3)
H10_2 H 0.4796 0.9632 0.5495
C16_2 C 0.4277(4) 0.8943(4) 0.6403(3)
H12_2 H 0.4077 0.8946 0.6078
C17_2 C 0.4825(4) 0.9452(4) 0.6554(3)
C18_2 C 0.3825(4) 0.9726(4) 0.5353(4)
H13_2 H 0.3854 0.9479 0.5080
C19_2 C 0.4035(4) 0.8441(4) 0.6735(3)
H14_2 H 0.3668 0.8100 0.6631
C21_2 C 0.4062(4) 0.7864(4) 0.7585(3)
C22_2 C 0.2761(4) 0.9405(4) 0.5000(3)
C23_2 C 0.3301(4) 0.9775(3) 0.5382(3)
C24_2 C 0.4321(4) 0.8422(4) 0.7227(3)
C25_2 C 0.5122(4) 0.9453(4) 0.7040(3)
H15_2 H 0.5487 0.9798 0.7140
C28_2 C 0.4875(4) 0.8942(4) 0.7378(3)
H17_2 H 0.5075 0.8940 0.7704
Na1_2 Na 0.3333 0.6667 0.6667
O8_2 O 0.2600(3) 0.6159(4) 0.7410(2)
O11_2 O 0.0017(3) 0.5137(4) 0.6239(2)
O12_2 O 0.2160(3) 0.6467(4) 0.8029(2)
C43_2 C 0.0002(4) 0.4885(6) 0.5700(3)
H27_2 H 0.0368 0.5163 0.5495
C44_2 C 0.1057(4) 0.5333(6) 0.6403(3)
H29_2 H 0.1054 0.5130 0.6078
C45_2 C 0.0548(4) 0.5372(6) 0.6554(3)
C46_2 C 0.0274(4) 0.4098(6) 0.5353(4)
H30_2 H 0.0521 0.4374 0.5080
C47_2 C 0.1559(4) 0.5593(6) 0.6735(3)
H31_2 H 0.1900 0.5567 0.6631
C49_2 C 0.2136(4) 0.6197(6) 0.7585(3)
C50_2 C 0.0595(4) 0.3355(6) 0.5000(3)
C51_2 C 0.0225(3) 0.3525(5) 0.5382(3)
C52_2 C 0.1578(4) 0.5898(6) 0.7227(3)
C53_2 C 0.0547(4) 0.5668(6) 0.7040(3)
H32_2 H 0.0202 0.5688 0.7140
C56_2 C 0.1058(4) 0.5932(6) 0.7378(3)
H34_2 H 0.1060 0.6134 0.7704
Pb4_2 Pb 0.804249(21) 0.650775(15) 0.753202(13)
N5_2 N 0.8914(5) 0.7053(4) 0.8269(3)
N6_2 N 0.8813(5) 0.7645(3) 0.7343(3)
C57_2 C 0.9208(7) 0.8531(5) 0.6760(5)
H35_2 H 0.9156 0.8718 0.6446
C58_2 C 0.9709(7) 0.8834(5) 0.7088(5)
C59_2 C 0.9369(6) 0.7649(5) 0.8163(4)
C60_2 C 0.8782(7) 0.7946(5) 0.6900(4)
H37_2 H 0.8444 0.7743 0.6667
C61_2 C 0.9310(6) 0.7945(4) 0.7682(4)
C62_2 C 0.9903(8) 0.7618(6) 0.8977(4)
C63_2 C 0.8966(6) 0.6764(5) 0.8708(4)
H39_2 H 0.8662 0.6364 0.8777
C66_2 C 0.9779(6) 0.8555(5) 0.7564(4)
C67_2 C 0.9880(6) 0.7943(5) 0.8514(4)
C68_2 C 0.9469(8) 0.7043(6) 0.9078(4)
H42_2 H 0.9497 0.6831 0.9384
O15_2 O 0.3841(4) 0.6440(3) 0.7410(2)
O18_2 O 0.4863(4) 0.4879(3) 0.6239(2)
O19_2 O 0.3533(4) 0.5692(3) 0.8029(2)
O20_2 O 0.6959(4) 0.5935(3) 0.7013(3)
O21_2 O 0.7709(4) 0.6725(3) 0.6588(2)
C69_2 C 0.5736(6) 0.5692(4) 0.5729(3)
C70_2 C 0.6157(6) 0.5746(4) 0.6137(3)
H43_2 H 0.6055 0.5432 0.6393
C71_2 C 0.5115(6) 0.5116(4) 0.5700(3)
H44_2 H 0.4837 0.5204 0.5495
H45_2 H 0.5154 0.4807 0.5492
C72_2 C 0.4667(6) 0.5723(4) 0.6403(3)
H46_2 H 0.4870 0.5923 0.6078
C73_2 C 0.4628(6) 0.5175(4) 0.6554(3)
C74_2 C 0.5902(6) 0.6175(4) 0.5353(4)
H47_2 H 0.5626 0.6146 0.5080
C75_2 C 0.4407(6) 0.5965(4) 0.6735(3)
H48_2 H 0.4433 0.6332 0.6631
C76_2 C 0.6723(6) 0.6265(4) 0.6162(3)
C77_2 C 0.3803(6) 0.5938(4) 0.7585(3)
C78_2 C 0.6645(6) 0.7239(4) 0.5000(3)
C79_2 C 0.6475(5) 0.6699(4) 0.5382(3)
C80_2 C 0.4102(6) 0.5679(4) 0.7227(3)
C81_2 C 0.4332(6) 0.4878(4) 0.7040(3)
H49_2 H 0.4312 0.4513 0.7140
C82_2 C 0.7154(6) 0.6302(4) 0.6619(4)
C83_2 C 0.6889(6) 0.6735(4) 0.5790(3)
H50_2 H 0.7277 0.7077 0.5808
C84_2 C 0.4068(6) 0.5125(4) 0.7378(3)
H51_2 H 0.3866 0.4925 0.7704
Pb5_2 Pb 0.3333 0.6667 0.52293(2)
N7_2 N 0.3720(4) 0.1473(3) 0.5064(3)
N8_2 N 0.4312(3) 0.2166(4) 0.5990(3)
C85_2 C 0.5198(5) 0.2657(5) 0.6573(5)
H52_2 H 0.5385 0.2896 0.6887
C86_2 C 0.5501(5) 0.2459(5) 0.6245(5)
H53_2 H 0.5896 0.2556 0.6337
C87_2 C 0.4316(5) 0.1614(4) 0.5170(4)
C88_2 C 0.4613(5) 0.2498(5) 0.6433(4)
H54_2 H 0.4410 0.2633 0.6666
C89_2 C 0.4612(4) 0.1969(4) 0.5651(4)
C90_2 C 0.4285(6) 0.1049(5) 0.4356(4)
H55_2 H 0.4476 0.0911 0.4110
C91_2 C 0.3431(5) 0.1132(4) 0.4625(4)
H56_2 H 0.3031 0.1036 0.4556
C92_2 C 0.5519(5) 0.1903(5) 0.5395(5)
H57_2 H 0.5920 0.2003 0.5466
C93_2 C 0.5235(5) 0.1572(5) 0.4952(5)
H58_2 H 0.5443 0.1446 0.4716
C94_2 C 0.5222(5) 0.2110(4) 0.5769(4)
C95_2 C 0.4610(5) 0.1397(4) 0.4819(4)
C96_2 C 0.3710(6) 0.0908(5) 0.4255(4)
H59_2 H 0.3498 0.0668 0.3949
O22_2 O 0.3107(3) 0.5933(3) 0.5923(2)
O23_2 O 0.4391(3) 0.3935(3) 0.8242(3)
O24_2 O 0.3846(3) 0.4234(3) 0.8729(2)
O25_2 O 0.1546(3) 0.3350(3) 0.7094(2)
O26_2 O 0.2359(3) 0.5493(3) 0.5304(2)
O27_2 O 0.2602(3) 0.2310(3) 0.6320(3)
C97_2 C 0.2359(4) 0.3290(4) 0.7604(3)
C98_2 C 0.2413(4) 0.2923(4) 0.7196(3)
H60_2 H 0.2099 0.2711 0.6940
C99_2 C 0.1783(4) 0.3335(4) 0.7633(3)
H61_2 H 0.1871 0.3701 0.7838
H62_2 H 0.1474 0.2987 0.7841
C100_2 C 0.2390(4) 0.4390(4) 0.6930(3)
H63_2 H 0.2590 0.4387 0.7255
C101_2 C 0.1842(4) 0.3881(4) 0.6779(3)
C102_2 C 0.2842(4) 0.3607(4) 0.7980(4)
H64_2 H 0.2813 0.3854 0.8253
C103_2 C 0.2632(4) 0.4892(4) 0.6598(3)
H65_2 H 0.2999 0.5233 0.6702
C104_2 C 0.2932(4) 0.2876(4) 0.7171(3)
C105_2 C 0.2605(4) 0.5469(4) 0.5748(3)
C106_2 C 0.3906(4) 0.3928(4) 0.8333(3)
C107_2 C 0.3366(4) 0.3558(3) 0.7951(3)
C108_2 C 0.2346(4) 0.4911(4) 0.6106(3)
C109_2 C 0.1545(4) 0.3880(4) 0.6293(3)
H66_2 H 0.1180 0.3535 0.6193
C110_2 C 0.2969(4) 0.2482(4) 0.6714(4)
C111_2 C 0.3402(4) 0.3180(4) 0.7543(3)
H67_2 H 0.3744 0.3134 0.7525
C112_2 C 0.1792(4) 0.4391(4) 0.5955(3)
H68_2 H 0.1592 0.4393 0.5629
O29_2 O 0.4067(3) 0.7174(4) 0.5923(2)
O31_2 O 0.5766(3) 0.9612(4) 0.8729(2)
O32_2 O 0.6650(3) 0.8196(4) 0.7094(2)
O33_2 O 0.4507(3) 0.6866(4) 0.5304(2)
C125_2 C 0.6710(4) 0.9069(6) 0.7604(3)
C126_2 C 0.7077(4) 0.9490(6) 0.7196(3)
H77_2 H 0.7289 0.9388 0.6940
C127_2 C 0.6665(4) 0.8448(6) 0.7633(3)
H78_2 H 0.6299 0.8170 0.7838
H79_2 H 0.7013 0.8487 0.7841
C128_2 C 0.5610(4) 0.8000(6) 0.6930(3)
H80_2 H 0.5613 0.8203 0.7255
C129_2 C 0.6119(4) 0.7961(6) 0.6779(3)
C130_2 C 0.6393(4) 0.9235(6) 0.7980(4)
H81_2 H 0.6146 0.8959 0.8253
C131_2 C 0.5108(4) 0.7740(6) 0.6598(3)
H82_2 H 0.4767 0.7766 0.6702
C133_2 C 0.4531(4) 0.7136(6) 0.5748(3)
C134_2 C 0.6072(4) 0.9978(6) 0.8333(3)
C135_2 C 0.6442(3) 0.9808(5) 0.7951(3)
C136_2 C 0.5089(4) 0.7435(6) 0.6106(3)
C137_2 C 0.6120(4) 0.7665(6) 0.6293(3)
H83_2 H 0.6465 0.7645 0.6193
C140_2 C 0.5609(4) 0.7401(6) 0.5955(3)
H85_2 H 0.5607 0.7199 0.5629
O36_2 O 0.2826(4) 0.6893(3) 0.5923(2)
O38_2 O 0.0388(4) 0.6154(3) 0.8729(2)
O39_2 O 0.1804(4) 0.8454(3) 0.7094(2)
O40_2 O 0.3134(4) 0.7641(3) 0.5304(2)
C153_2 C 0.0931(6) 0.7641(4) 0.7604(3)
C154_2 C 0.0510(6) 0.7587(4) 0.7196(3)
H94_2 H 0.0612 0.7901 0.6940
C155_2 C 0.1552(6) 0.8217(4) 0.7633(3)
H95_2 H 0.1830 0.8129 0.7838
H96_2 H 0.1513 0.8526 0.7841
C156_2 C 0.2000(6) 0.7610(4) 0.6930(3)
H97_2 H 0.1797 0.7410 0.7255
C157_2 C 0.2039(6) 0.8158(4) 0.6779(3)
C158_2 C 0.0765(6) 0.7158(4) 0.7980(4)
H98_2 H 0.1041 0.7187 0.8253
C159_2 C 0.2260(6) 0.7368(4) 0.6598(3)
H99_2 H 0.2234 0.7001 0.6702
C161_2 C 0.2864(6) 0.7395(4) 0.5748(3)
C162_2 C 0.0022(6) 0.6094(4) 0.8333(3)
C163_2 C 0.0192(5) 0.6634(4) 0.7951(3)
C164_2 C 0.2565(6) 0.7654(4) 0.6106(3)
C165_2 C 0.2335(6) 0.8455(4) 0.6293(3)
H100_2 H 0.2355 0.8820 0.6193
C168_2 C 0.2599(6) 0.8208(4) 0.5955(3)
H102_2 H 0.2801 0.8408 0.5629
Pb16_2 Pb 0.486807(15) 0.470915(21) 0.913464(13)
O44_2 O 0.7268(3) 0.6211(4) 0.8425(3)
O50_2 O 0.7567(3) 0.7055(4) 0.7938(2)
O60_2 O 0.8958(4) 0.6608(3) 0.6745(2)
N3_2 N 0.8140(3) 0.1086(5) 0.8269(3)
N4_2 N 0.8833(4) 0.1187(5) 0.7343(3)
C29_2 C 0.9324(5) 0.0792(7) 0.6760(5)
H18_2 H 0.9563 0.0844 0.6446
C30_2 C 0.9126(5) 0.0291(7) 0.7088(5)
C31_2 C 0.8281(4) 0.0631(6) 0.8163(4)
C32_2 C 0.9165(5) 0.1218(7) 0.6900(4)
H20_2 H 0.9300 0.1556 0.6667
C33_2 C 0.8636(4) 0.0690(6) 0.7682(4)
C34_2 C 0.7716(5) 0.0097(8) 0.8977(4)
C35_2 C 0.7799(4) 0.1034(6) 0.8708(4)
H22_2 H 0.7703 0.1338 0.8777
C38_2 C 0.8777(4) 0.0221(6) 0.7564(4)
C39_2 C 0.8064(4) 0.0120(6) 0.8514(4)
C40_2 C 0.7575(5) 0.0531(8) 0.9078(4)
H25_2 H 0.7335 0.0503 0.9384
O13_2 O 0.8977(3) 0.3041(4) 0.7013(3)
C41_2 C 0.9957(4) 0.4264(6) 0.5729(3)
C42_2 C 0.9590(4) 0.3843(6) 0.6137(3)
H26_2 H 0.9378 0.3945 0.6393
H28_2 H 0.9654 0.4846 0.5492
C48_2 C 0.9543(4) 0.3277(6) 0.6162(3)
C54_2 C 0.9149(4) 0.2846(6) 0.6619(4)
C55_2 C 0.9847(4) 0.3111(6) 0.5790(3)
H33_2 H 0.9801 0.2723 0.5808
N11_2 N 0.7753(5) 0.6280(4) 0.5064(3)
N12_2 N 0.7854(5) 0.5688(3) 0.5990(3)
C141_2 C 0.7459(7) 0.4802(5) 0.6573(5)
H86_2 H 0.7511 0.4615 0.6887
C142_2 C 0.6958(7) 0.4499(5) 0.6245(5)
H87 H 0.6660 0.4104 0.6337
C143_2 C 0.7298(6) 0.5684(5) 0.5170(4)
C144_2 C 0.7885(7) 0.5387(5) 0.6433(4)
H88_2 H 0.8223 0.5590 0.6666
C145_2 C 0.7357(6) 0.5388(4) 0.5651(4)
C146_2 C 0.6764(8) 0.5715(6) 0.4356(4)
H89 H 0.6435 0.5524 0.4110
C147_2 C 0.7701(6) 0.6569(5) 0.4625(4)
H90_2 H 0.8005 0.6969 0.4556
C148 C 0.6384(7) 0.4481(5) 0.5395(5)
H91 H 0.6083 0.4080 0.5466
C149 C 0.6337(7) 0.4765(5) 0.4952(5)
H92 H 0.6003 0.4557 0.4716
C150_2 C 0.6888(6) 0.4778(5) 0.5769(4)
C151_2 C 0.6787(6) 0.5390(5) 0.4819(4)
C152_2 C 0.7198(8) 0.6290(6) 0.4255(4)
H93_2 H 0.7170 0.6502 0.3949
O37_2 O 0.9544(4) 0.5609(3) 0.8242(3)
O41_2 O 0.9708(4) 0.7398(3) 0.6320(3)
C160_2 C 0.9944(6) 0.7068(4) 0.7171(3)
C166_2 C 0.9513(6) 0.7031(4) 0.6714(4)
C167_2 C 0.9778(6) 0.6598(4) 0.7543(3)
H101_2 H 0.9390 0.6256 0.7525
Pb15_2 Pb 0.984109(15) 0.513193(15) 0.913464(13)
O43_2 O 0.8942(3) 0.2732(3) 0.8425(3)
O49_2 O 0.9487(3) 0.2433(3) 0.7938(2)
Pb1_3 Pb 0.0000 -0.0000 0.14374(2)
H5_3 H 0.0302 0.5631 0.2111
O1_3 O 0.0226(3) 0.0734(3) 0.0744(2)
O5_3 O 0.0974(3) 0.1174(3) 0.1363(2)
O6_3 O 0.0731(3) 0.4357(3) 0.0347(3)
C19_3 C 0.0701(4) 0.1775(4) 0.0069(3)
C21_3 C 0.0728(4) 0.1198(4) 0.0919(3)
C24_3 C 0.0987(4) 0.1756(4) 0.0561(3)
C25_3 C 0.1788(4) 0.2787(4) 0.0374(3)
H15_3 H 0.2153 0.3132 0.0474
C28_3 C 0.1541(4) 0.2276(4) 0.0712(3)
H17_3 H 0.1741 0.2274 0.1038
N5_3 N 0.5580(5) 0.0387(4) 0.1603(3)
N6_3 N 0.5479(5) 0.0979(3) 0.0677(3)
C57_3 C 0.5874(7) 0.1865(5) 0.0094(5)
C58_3 C 0.6375(7) 0.2168(5) 0.0422(5)
H36_2 H 0.6673 0.2563 0.0330
C59_3 C 0.6035(6) 0.0983(5) 0.1497(4)
C60_3 C 0.5448(7) 0.1280(5) 0.0234(4)
H37_3 H 0.5110 0.1077 0.0001
C61_3 C 0.5976(6) 0.1279(4) 0.1016(4)
C62_3 C 0.6569(8) 0.0952(6) 0.2311(4)
H38_2 H 0.6898 0.1143 0.2557
C63_3 C 0.5632(6) 0.0098(5) 0.2042(4)
C64_2 C 0.6949(7) 0.2186(5) 0.1272(5)
H40_2 H 0.7250 0.2587 0.1201
C65_2 C 0.6996(7) 0.1902(5) 0.1715(5)
H41_2 H 0.7330 0.2110 0.1951
C66_3 C 0.6445(6) 0.1889(5) 0.0898(4)
C67_3 C 0.6546(6) 0.1277(5) 0.1848(4)
C68_3 C 0.6135(8) 0.0377(6) 0.2412(4)
H42_3 H 0.6163 0.0165 0.2718
H69_3 H 0.3771 0.5822 0.0220
O32_3 O 0.3317(3) 0.1529(4) 0.0427(2)
O35_3 O 0.4317(3) 0.4375(4) 0.0078(2)
C125_3 C 0.3377(4) 0.2402(6) 0.0937(3)
C126_3 C 0.3744(4) 0.2823(6) 0.0529(3)
H77_3 H 0.3956 0.2721 0.0273
C127_3 C 0.3332(4) 0.1781(6) 0.0966(3)
H78_3 H 0.2966 0.1503 0.1171
H79_3 H 0.3680 0.1820 0.1174
C128_3 C 0.2277(4) 0.1333(6) 0.0263(3)
H80_3 H 0.2280 0.1536 0.0588
C129_3 C 0.2786(4) 0.1294(6) 0.0112(3)
C130_3 C 0.3060(4) 0.2568(6) 0.1313(4)
H81_3 H 0.2813 0.2292 0.1586
H82_3 H 0.1434 0.1099 0.0035
C132_3 C 0.3791(4) 0.3389(6) 0.0504(3)
C134_3 C 0.2739(4) 0.3311(6) 0.1666(3)
C135_3 C 0.3109(3) 0.3141(5) 0.1284(3)
C138_3 C 0.4185(4) 0.3820(6) 0.0047(4)
C139_3 C 0.3487(4) 0.3555(6) 0.0876(3)
H84_3 H 0.3533 0.3943 0.0858
O58_3 O 0.0059(3) 0.5683(3) 0.0078(2)
O4_3 O 0.1787(3) 0.3317(3) 0.9573(2)
C13_3 C 0.0974(4) 0.3377(4) 0.9063(3)
C14_3 C 0.0920(4) 0.3744(4) 0.9471(3)
H9_3 H 0.1234 0.3956 0.9727
C15_3 C 0.1550(4) 0.3332(4) 0.9034(3)
H10_3 H 0.1462 0.2966 0.8829
H11_3 H 0.1859 0.3680 0.8826
C16_3 C 0.0943(4) 0.2277(4) 0.9737(3)
H12_3 H 0.0743 0.2280 0.9412
C17_3 C 0.1491(4) 0.2786(4) 0.9888(3)
C18_3 C 0.0491(4) 0.3060(4) 0.8687(4)
H13_3 H 0.0520 0.2813 0.8414
H14_3 H 0.0334 0.1434 0.9965
C20_3 C 0.0401(4) 0.3791(4) 0.9496(3)
C26_3 C 0.0364(4) 0.4185(4) 0.9953(4)
H35_3 H 0.5822 0.2052 0.9780
O21_3 O 0.4375(4) 0.0059(3) 0.9922(2)
C78_3 C 0.3311(6) 0.0573(4) 0.8334(3)
C79_3 C 0.3141(5) 0.0033(4) 0.8716(3)
C83_3 C 0.3555(6) 0.0069(4) 0.9124(3)
H50_3 H 0.3943 0.0411 0.9142
Pb5_3 Pb -0.0000 0.0000 0.85626(2)
N9_3 N 0.5194(3) 0.5580(5) 0.8397(3)
N10_3 N 0.4501(4) 0.5479(5) 0.9323(3)
C113_3 C 0.4010(5) 0.5874(7) 0.9906(5)
C114_3 C 0.4208(5) 0.6375(7) 0.9578(5)
H70_3 H 0.4111 0.6673 0.9670
C115_3 C 0.5053(4) 0.6035(6) 0.8503(4)
C116_3 C 0.4169(5) 0.5448(7) 0.9766(4)
H71_3 H 0.4034 0.5110 0.9999
C117_3 C 0.4698(4) 0.5976(6) 0.8984(4)
C118_3 C 0.5618(5) 0.6569(8) 0.7689(4)
H72_3 H 0.5756 0.6898 0.7443
C119_3 C 0.5535(4) 0.5632(6) 0.7958(4)
H73_3 H 0.5631 0.5328 0.7889
C120_3 C 0.4764(5) 0.6949(7) 0.8728(5)
H74_3 H 0.4664 0.7250 0.8799
C121_3 C 0.5095(5) 0.6996(7) 0.8285(5)
H75_3 H 0.5221 0.7330 0.8049
C122_3 C 0.4557(4) 0.6445(6) 0.9102(4)
C123_3 C 0.5270(4) 0.6546(6) 0.8152(4)
C124_3 C 0.5759(5) 0.6135(8) 0.7588(4)
H76_3 H 0.5999 0.6163 0.7282
O29_3 O 0.0734(3) 0.0507(4) 0.9256(2)
O33_3 O 0.1174(3) 0.0199(4) 0.8637(2)
O34_3 O 0.4357(3) 0.3625(4) 0.9653(3)
C131_3 C 0.1775(4) 0.1073(6) 0.9931(3)
C133_3 C 0.1198(4) 0.0469(6) 0.9081(3)
C136_3 C 0.1756(4) 0.0768(6) 0.9439(3)
C137_3 C 0.2787(4) 0.0998(6) 0.9626(3)
H83_3 H 0.3132 0.0978 0.9526
C140_3 C 0.2276(4) 0.0734(6) 0.9288(3)
H85_3 H 0.2274 0.0532 0.8962
O56_3 O 0.5683(3) 0.5625(4) 0.9922(2)
Pb1_4 Pb 0.0000 1.0000 0.14374(2)
H39_3 H 0.5328 0.9698 0.2111
O15_3 O 0.0507(4) 0.9774(3) 0.0744(2)
O19_3 O 0.0199(4) 0.9026(3) 0.1363(2)
O20_3 O 0.3625(4) 0.9269(3) 0.0347(3)
C75_3 C 0.1073(6) 0.9299(4) 0.0069(3)
C77_3 C 0.0469(6) 0.9272(4) 0.0919(3)
C80_3 C 0.0768(6) 0.9013(4) 0.0561(3)
C81_3 C 0.0998(6) 0.8212(4) 0.0374(3)
H49_3 H 0.0978 0.7847 0.0474
C84_3 C 0.0734(6) 0.8459(4) 0.0712(3)
H51_3 H 0.0532 0.8259 0.1038
H52_3 H 0.2052 0.6229 0.0220
C106_3 C 0.0573(4) 0.7261(4) 0.1666(3)
C107_3 C 0.0033(4) 0.6891(3) 0.1284(3)
C111_3 C 0.0069(4) 0.6513(4) 0.0876(3)
H67_3 H 0.0411 0.6467 0.0858
O60_3 O 0.5625(4) 0.9941(3) 0.0078(2)
O18_3 O 0.1529(4) 0.8213(3) 0.9573(2)
C69_3 C 0.2402(6) 0.9026(4) 0.9063(3)
C70_3 C 0.2823(6) 0.9080(4) 0.9471(3)
H43_3 H 0.2721 0.8766 0.9727
C71_3 C 0.1781(6) 0.8450(4) 0.9034(3)
H44_3 H 0.1503 0.8538 0.8829
H45_3 H 0.1820 0.8141 0.8826
C72_3 C 0.1333(6) 0.9057(4) 0.9737(3)
H46_3 H 0.1536 0.9257 0.9412
C73_3 C 0.1294(6) 0.8509(4) 0.9888(3)
C74_3 C 0.2568(6) 0.9509(4) 0.8687(4)
H47_3 H 0.2292 0.9480 0.8414
H48_3 H 0.1099 0.9666 0.9965
C76_3 C 0.3389(6) 0.9599(4) 0.9496(3)
C82_3 C 0.3820(6) 0.9636(4) 0.9953(4)
Pb5_4 Pb -0.0000 1.0000 0.85626(2)
N7_3 N 0.0387(4) 0.4806(3) 0.8397(3)
N8_3 N 0.0979(3) 0.5499(4) 0.9323(3)
C85_3 C 0.1865(5) 0.5990(5) 0.9906(5)
C86_3 C 0.2168(5) 0.5792(5) 0.9578(5)
H53_3 H 0.2563 0.5889 0.9670
C87_3 C 0.0983(5) 0.4947(4) 0.8503(4)
C88_3 C 0.1280(5) 0.5831(5) 0.9766(4)
H54_3 H 0.1077 0.5966 0.9999
C89_3 C 0.1279(4) 0.5302(4) 0.8984(4)
C90_3 C 0.0952(6) 0.4382(5) 0.7689(4)
H55_3 H 0.1143 0.4244 0.7443
C91_3 C 0.0098(5) 0.4465(4) 0.7958(4)
C92_3 C 0.2186(5) 0.5236(5) 0.8728(5)
H57_3 H 0.2587 0.5336 0.8799
C93_3 C 0.1902(5) 0.4905(5) 0.8285(5)
H58_3 H 0.2110 0.4779 0.8049
C94_3 C 0.1889(5) 0.5443(4) 0.9102(4)
C95_3 C 0.1277(5) 0.4730(4) 0.8152(4)
C96_3 C 0.0377(6) 0.4241(5) 0.7588(4)
H59_3 H 0.0165 0.4001 0.7282
Pb1_5 Pb 1.0000 -0.0000 0.14374(2)
N1_3 N 0.9613(4) 0.5194(3) 0.1603(3)
N2_3 N 0.9021(3) 0.4501(4) 0.0677(3)
C1_3 C 0.8135(5) 0.4010(5) 0.0094(5)
C2_3 C 0.7832(5) 0.4208(5) 0.0422(5)
H2_3 H 0.7437 0.4111 0.0330
C3_3 C 0.9017(5) 0.5053(4) 0.1497(4)
C4_3 C 0.8720(5) 0.4169(5) 0.0234(4)
H3_3 H 0.8923 0.4034 0.0001
C5_3 C 0.8721(4) 0.4698(4) 0.1016(4)
C6_3 C 0.9048(6) 0.5618(5) 0.2311(4)
H4_3 H 0.8857 0.5756 0.2557
C7_3 C 0.9902(5) 0.5535(4) 0.2042(4)
C8_3 C 0.7814(5) 0.4764(5) 0.1272(5)
H6_3 H 0.7413 0.4664 0.1201
C9_3 C 0.8098(5) 0.5095(5) 0.1715(5)
H7_3 H 0.7890 0.5221 0.1951
C10_3 C 0.8111(5) 0.4557(4) 0.0898(4)
C11_3 C 0.8723(5) 0.5270(4) 0.1848(4)
C12_3 C 0.9623(6) 0.5759(5) 0.2412(4)
H8_3 H 0.9835 0.5999 0.2718
Na1_3 Na 0.9999 0.0001 0.0001
O39_3 O 0.8471(4) 0.1787(3) 0.0427(2)
C153_3 C 0.7598(6) 0.0974(4) 0.0937(3)
C154_3 C 0.7177(6) 0.0920(4) 0.0529(3)
H94_3 H 0.7279 0.1234 0.0273
C155_3 C 0.8219(6) 0.1550(4) 0.0966(3)
H95_3 H 0.8497 0.1462 0.1171
H96_3 H 0.8180 0.1859 0.1174
C156_3 C 0.8667(6) 0.0943(4) 0.0263(3)
H97_3 H 0.8464 0.0743 0.0588
C157_3 C 0.8706(6) 0.1491(4) 0.0112(3)
C158_3 C 0.7432(6) 0.0491(4) 0.1313(4)
H98_3 H 0.7708 0.0520 0.1586
H99_3 H 0.8901 0.0334 0.0035
C160_3 C 0.6611(6) 0.0401(4) 0.0504(3)
C166_3 C 0.6180(6) 0.0364(4) 0.0047(4)
H1_3 H 0.7948 0.3771 0.9780
O7_3 O 0.9941(3) 0.4317(3) 0.9922(2)
C22_3 C 0.9427(4) 0.2739(4) 0.8334(3)
C23_3 C 0.9967(4) 0.3109(3) 0.8716(3)
C27_3 C 0.9931(4) 0.3487(4) 0.9124(3)
H16_3 H 0.9589 0.3533 0.9142
Pb5_5 Pb 1.0000 0.0000 0.85626(2)
H90_3 H 0.4672 0.0302 0.7889
O36_3 O 0.9493(4) 0.0226(3) 0.9256(2)
O40_3 O 0.9801(4) 0.0974(3) 0.8637(2)
O41_3 O 0.6375(4) 0.0731(3) 0.9653(3)
C159_3 C 0.8927(6) 0.0701(4) 0.9931(3)
C161_3 C 0.9531(6) 0.0728(4) 0.9081(3)
C164_3 C 0.9232(6) 0.0987(4) 0.9439(3)
C165_3 C 0.9002(6) 0.1788(4) 0.9626(3)
H100_3 H 0.9022 0.2153 0.9526
C168_3 C 0.9266(6) 0.1541(4) 0.9288(3)
H102_3 H 0.9468 0.1741 0.8962
Pb1_6 Pb 1.0000 1.0000 0.14374(2)
N3_3 N 0.4806(3) 0.4420(5) 0.1603(3)
N4_3 N 0.5499(4) 0.4521(5) 0.0677(3)
C29_3 C 0.5990(5) 0.4126(7) 0.0094(5)
C30_3 C 0.5792(5) 0.3625(7) 0.0422(5)
H19_2 H 0.5889 0.3327 0.0330
C31_3 C 0.4947(4) 0.3965(6) 0.1497(4)
C32_3 C 0.5831(5) 0.4552(7) 0.0234(4)
H20_3 H 0.5966 0.4890 0.0001
C33_3 C 0.5302(4) 0.4024(6) 0.1016(4)
C34_3 C 0.4382(5) 0.3431(8) 0.2311(4)
H21_2 H 0.4244 0.3102 0.2557
C35_3 C 0.4465(4) 0.4368(6) 0.2042(4)
H22_3 H 0.4369 0.4672 0.2111
C36_2 C 0.5236(5) 0.3051(7) 0.1272(5)
H23_2 H 0.5336 0.2750 0.1201
C37_2 C 0.4905(5) 0.3004(7) 0.1715(5)
H24_2 H 0.4779 0.2670 0.1951
C38_3 C 0.5443(4) 0.3555(6) 0.0898(4)
C39_3 C 0.4730(4) 0.3454(6) 0.1848(4)
C40_3 C 0.4241(5) 0.3865(8) 0.2412(4)
H25_3 H 0.4001 0.3837 0.2718
O8_3 O 0.9266(3) 0.9493(4) 0.0744(2)
O12_3 O 0.8826(3) 0.9801(4) 0.1363(2)
O13_3 O 0.5643(3) 0.6375(4) 0.0347(3)
C47_3 C 0.8225(4) 0.8927(6) 0.0069(3)
C49_3 C 0.8802(4) 0.9531(6) 0.0919(3)
C52_3 C 0.8244(4) 0.9232(6) 0.0561(3)
C53_3 C 0.7213(4) 0.9002(6) 0.0374(3)
H32_3 H 0.6868 0.9022 0.0474
C56_3 C 0.7724(4) 0.9266(6) 0.0712(3)
H34_3 H 0.7726 0.9468 0.1038
O25_3 O 0.8213(3) 0.6683(3) 0.0427(2)
C97_3 C 0.9026(4) 0.6623(4) 0.0937(3)
C98_3 C 0.9080(4) 0.6256(4) 0.0529(3)
H60_3 H 0.8766 0.6044 0.0273
C99_3 C 0.8450(4) 0.6668(4) 0.0966(3)
H61_3 H 0.8538 0.7034 0.1171
H62_3 H 0.8141 0.6320 0.1174
C100_3 C 0.9057(4) 0.7723(4) 0.0263(3)
H63_3 H 0.9257 0.7720 0.0588
C101_3 C 0.8509(4) 0.7214(4) 0.0112(3)
C102_3 C 0.9509(4) 0.6940(4) 0.1313(4)
H64_3 H 0.9480 0.7187 0.1586
H65_3 H 0.9666 0.8566 0.0035
C104_3 C 0.9599(4) 0.6209(4) 0.0504(3)
C110_3 C 0.9636(4) 0.5815(4) 0.0047(4)
H86_3 H 0.4178 0.7948 0.0220
C162_3 C 0.6689(6) 0.9427(4) 0.1666(3)
C163_3 C 0.6859(5) 0.9967(4) 0.1284(3)
C167_3 C 0.6445(6) 0.9931(4) 0.0876(3)
H101_3 H 0.6057 0.9589 0.0858
H18_3 H 0.6229 0.4178 0.9780
O11_3 O 0.6683(3) 0.8471(4) 0.9573(2)
C41_3 C 0.6623(4) 0.7598(6) 0.9063(3)
C42_3 C 0.6256(4) 0.7177(6) 0.9471(3)
H26_3 H 0.6044 0.7279 0.9727
C43_3 C 0.6668(4) 0.8219(6) 0.9034(3)
H27_3 H 0.7034 0.8497 0.8829
H28_3 H 0.6320 0.8180 0.8826
C44_3 C 0.7723(4) 0.8667(6) 0.9737(3)
H29_3 H 0.7720 0.8464 0.9412
C45_3 C 0.7214(4) 0.8706(6) 0.9888(3)
C46_3 C 0.6940(4) 0.7432(6) 0.8687(4)
H30_3 H 0.7187 0.7708 0.8414
H31_3 H 0.8566 0.8901 0.9965
C48_3 C 0.6209(4) 0.6611(6) 0.9496(3)
C50_3 C 0.7261(4) 0.6689(6) 0.8334(3)
C51_3 C 0.6891(3) 0.6859(5) 0.8716(3)
C54_3 C 0.5815(4) 0.6180(6) 0.9953(4)
C55_3 C 0.6513(4) 0.6445(6) 0.9124(3)
H33_3 H 0.6467 0.6057 0.9142
Pb5_6 Pb 1.0000 1.0000 0.85626(2)
H56_3 H 0.9698 0.4369 0.7889
O22_3 O 0.9774(3) 0.9266(3) 0.9256(2)
O26_3 O 0.9026(3) 0.8826(3) 0.8637(2)
O27_3 O 0.9269(3) 0.5643(3) 0.9653(3)
C103_3 C 0.9299(4) 0.8225(4) 0.9931(3)
C105_3 C 0.9272(4) 0.8802(4) 0.9081(3)
C108_3 C 0.9013(4) 0.8244(4) 0.9439(3)
C109_3 C 0.8212(4) 0.7213(4) 0.9626(3)
H66_3 H 0.7847 0.6868 0.9526
C112_3 C 0.8459(4) 0.7724(4) 0.9288(3)
H68_3 H 0.8259 0.7726 0.8962
N11_3 N 0.4420(5) 0.9613(4) 0.8397(3)
N12_3 N 0.4521(5) 0.9021(3) 0.9323(3)
C141_3 C 0.4126(7) 0.8135(5) 0.9906(5)
C142_3 C 0.3625(7) 0.7832(5) 0.9578(5)
H87_2 H 0.3327 0.7437 0.9670
C143_3 C 0.3965(6) 0.9017(5) 0.8503(4)
C144_3 C 0.4552(7) 0.8720(5) 0.9766(4)
H88_3 H 0.4890 0.8923 0.9999
C145_3 C 0.4024(6) 0.8721(4) 0.8984(4)
C146_3 C 0.3431(8) 0.9048(6) 0.7689(4)
H89_2 H 0.3102 0.8857 0.7443
C147_3 C 0.4368(6) 0.9902(5) 0.7958(4)
C148_2 C 0.3051(7) 0.7814(5) 0.8728(5)
H91_2 H 0.2750 0.7413 0.8799
C149_2 C 0.3004(7) 0.8098(5) 0.8285(5)
H92_2 H 0.2670 0.7890 0.8049
C150_3 C 0.3555(6) 0.8111(5) 0.9102(4)
C151_3 C 0.3454(6) 0.8723(5) 0.8152(4)
C152_3 C 0.3865(8) 0.9623(6) 0.7588(4)
H93_3 H 0.3837 0.9835 0.7282
Na1_4 Na 0.9999 0.9999 0.0001
Na1_5 Na 0.0001 0.0001 0.0001
Na1_6 Na 0.0001 0.9999 0.9999
Na1_7 Na 0.0001 0.0001 0.9999
Na1_8 Na 0.9999 0.9999 0.9999
H87_3 H 0.9993 0.0771 0.3004
H89_3 H 0.9768 0.2191 0.0777
C148_3 C 0.9717(7) 0.1148(5) 0.2062(5)
H91_3 H 0.9416 0.0747 0.2133
C149_3 C 0.9670(7) 0.1432(5) 0.1619(5)
H92_3 H 0.9336 0.1224 0.1383
H36_3 H 0.0007 0.9229 0.6996
H38_3 H 0.0232 0.7809 0.9223
C64_3 C 0.0283(7) 0.8852(5) 0.7938(5)
H40_3 H 0.0584 0.9253 0.7867
C65_3 C 0.0330(7) 0.8568(5) 0.8381(5)
H41_3 H 0.0664 0.8776 0.8617
H19_3 H 0.9223 0.9993 0.6996
H21_3 H 0.7578 0.9768 0.9223
C36_3 C 0.8570(5) 0.9717(7) 0.7938(5)
H23_3 H 0.8670 0.9416 0.7867
C37_3 C 0.8239(5) 0.9670(7) 0.8381(5)
H24_3 H 0.8113 0.9336 0.8617
loop_
_geom_bond_atom_site_label_1
_geom_bond_atom_site_label_2
_geom_bond_site_symmetry_1
_geom_bond_site_symmetry_2
C120 H74 1_555 1_555
C121 C120 1_555 1_555
H75 C121 1_555 1_555
Pb4 N5 1_555 1_555
N5 C59 1_555 1_555
N6 Pb4 1_555 1_555
C57 H35 1_555 1_555
C58 C57 1_555 1_555
H36 C58 1_555 1_555
C59 C61 1_555 1_555
C60 N6 1_555 1_555
H37 C60 1_555 1_555
C61 N6 1_555 1_555
C62 H38 1_555 1_555
C63 N5 1_555 1_555
H39 C63 1_555 1_555
C64 H40 1_555 1_555
C65 C64 1_555 1_555
H41 C65 1_555 1_555
C66 C58 1_555 1_555
C67 C59 1_555 1_555
C68 C62 1_555 1_555
H42 C68 1_555 1_555
O20 Pb4 1_555 1_555
O21 Pb4 1_555 1_555
C82 O20 1_555 1_555
C83 C76 1_555 1_555
H50 C83 1_555 1_555
Pb7 N9 1_555 1_555
N9 C115 1_555 1_555
N10 Pb7 1_555 1_555
C113 H69 1_555 1_555
C114 C113 1_555 1_555
C115 C117 1_555 1_555
C116 N10 1_555 1_555
H71 C116 1_555 1_555
C117 N10 1_555 1_555
C119 N9 1_555 1_555
H73 C119 1_555 1_555
C122 C114 1_555 1_555
C123 C115 1_555 1_555
C124 C118 1_555 1_555
H76 C124 1_555 1_555
O34 Pb7 1_555 1_555
O35 Pb7 1_555 1_555
C125 C126 1_555 1_555
C126 H77 1_555 1_555
C132 C126 1_555 1_555
C138 O34 1_555 1_555
C139 C132 1_555 1_555
H84 C139 1_555 1_555
Pb10 O35 1_555 1_555
Pb12 O16 1_555 1_555
Pb20 O21 1_555 1_555
O44 Pb4 1_555 1_555
O46 Pb7 1_555 1_555
O50 Pb4 1_555 1_555
O52 Pb7 1_555 1_555
O56 Pb7 1_555 1_555
O60 Pb4 1_555 1_555
C57 C60 1_555 1_555
C61 C66 1_555 1_555
C62 C67 1_555 1_555
C63 C68 1_555 1_555
C64 C66 1_555 1_555
C65 C67 1_555 1_555
O21 C82 1_555 1_555
C76 C82 1_555 1_555
C113 C116 1_555 1_555
C117 C122 1_555 1_555
C118 C123 1_555 1_555
C119 C124 1_555 1_555
O35 C138 1_555 1_555
C132 C138 1_555 1_555
Pb10 O56 1_555 1_555
Pb20 O60 1_555 1_555
Pb1 O1 1_555 1_555
Pb2 N1 1_555 1_555
N1 C3 1_555 1_555
N2 Pb2 1_555 1_555
C1 H1 1_555 1_555
C2 C1 1_555 1_555
H2 C2 1_555 1_555
C3 C5 1_555 1_555
C4 N2 1_555 1_555
H3 C4 1_555 1_555
C5 N2 1_555 1_555
C6 H4 1_555 1_555
C7 N1 1_555 1_555
H5 C7 1_555 1_555
C8 H6 1_555 1_555
C9 C8 1_555 1_555
H7 C9 1_555 1_555
C10 C2 1_555 1_555
C11 C3 1_555 1_555
C12 C6 1_555 1_555
H8 C12 1_555 1_555
O1 C21 1_555 1_555
O2 C22 1_555 1_555
O3 C22 1_555 1_555
O4 C15 1_555 1_555
O5 Pb1 1_555 1_555
O6 Pb2 1_555 1_555
O7 Pb2 1_555 1_555
C13 C14 1_555 1_555
C14 H9 1_555 1_555
C15 C13 1_555 1_555
H10 C15 1_555 1_555
H11 C15 1_555 1_555
C16 H12 1_555 1_555
C17 O4 1_555 1_555
C18 C13 1_555 1_555
H13 C18 1_555 1_555
C19 C16 1_555 1_555
H14 C19 1_555 1_555
C20 C14 1_555 1_555
C21 O5 1_555 1_555
C22 C23 1_555 1_555
C23 C18 1_555 1_555
C24 C19 1_555 1_555
C25 C17 1_555 1_555
H15 C25 1_555 1_555
C26 O6 1_555 1_555
C27 C20 1_555 1_555
H16 C27 1_555 1_555
C28 C24 1_555 1_555
H17 C28 1_555 1_555
Na1 O1 1_555 1_555
O8 Pb1 1_555 1_555
O10 C50 1_555 1_555
O11 C43 1_555 1_555
O12 Pb1 1_555 1_555
C41 C42 1_555 1_555
C42 H26 1_555 1_555
C43 C41 1_555 1_555
H27 C43 1_555 1_555
H28 C43 1_555 1_555
C44 H29 1_555 1_555
C45 O11 1_555 1_555
C46 C41 1_555 1_555
H30 C46 1_555 1_555
C47 C44 1_555 1_555
H31 C47 1_555 1_555
C49 O8 1_555 1_555
C50 C51 1_555 1_555
C51 C46 1_555 1_555
C52 C47 1_555 1_555
C53 C45 1_555 1_555
H32 C53 1_555 1_555
C56 C52 1_555 1_555
H34 C56 1_555 1_555
O15 Pb1 1_555 1_555
O17 C78 1_555 1_555
O18 C71 1_555 1_555
O19 Pb1 1_555 1_555
C69 C70 1_555 1_555
C70 H43 1_555 1_555
C71 C69 1_555 1_555
H44 C71 1_555 1_555
H45 C71 1_555 1_555
C72 H46 1_555 1_555
C73 O18 1_555 1_555
C74 C69 1_555 1_555
H47 C74 1_555 1_555
C75 C72 1_555 1_555
H48 C75 1_555 1_555
C77 O15 1_555 1_555
C78 C79 1_555 1_555
C79 C74 1_555 1_555
C80 C75 1_555 1_555
C81 C73 1_555 1_555
H49 C81 1_555 1_555
C84 C80 1_555 1_555
H51 C84 1_555 1_555
Pb5 O22 1_555 1_555
O22 Na1 1_555 1_555
O23 C106 1_555 1_555
O24 C106 1_555 1_555
O25 C99 1_555 1_555
O26 Pb5 1_555 1_555
H61 C99 1_555 1_555
C100 H63 1_555 1_555
C101 O25 1_555 1_555
H64 C102 1_555 1_555
C103 C100 1_555 1_555
H65 C103 1_555 1_555
C105 O22 1_555 1_555
C106 C107 1_555 1_555
C107 C102 1_555 1_555
C108 C103 1_555 1_555
C109 C101 1_555 1_555
H66 C109 1_555 1_555
C112 C108 1_555 1_555
H68 C112 1_555 1_555
O29 Na1 1_555 1_555
O30 C134 1_555 1_555
O31 C134 1_555 1_555
O32 C127 1_555 1_555
O33 Pb5 1_555 1_555
H78 C127 1_555 1_555
C128 H80 1_555 1_555
C129 O32 1_555 1_555
H81 C130 1_555 1_555
C131 C128 1_555 1_555
H82 C131 1_555 1_555
C133 O29 1_555 1_555
C134 C135 1_555 1_555
C135 C130 1_555 1_555
C136 C131 1_555 1_555
C137 C129 1_555 1_555
H83 C137 1_555 1_555
C140 C136 1_555 1_555
H85 C140 1_555 1_555
Pb20 N11 1_555 1_555
N11 C143 1_555 1_555
N12 Pb20 1_555 1_555
C141 H86 1_555 1_555
C142 C141 1_555 1_555
C143 C145 1_555 1_555
C144 N12 1_555 1_555
H88 C144 1_555 1_555
C145 N12 1_555 1_555
C147 N11 1_555 1_555
H90 C147 1_555 1_555
C150 C142 1_555 1_555
C151 C143 1_555 1_555
C152 C146 1_555 1_555
H93 C152 1_555 1_555
O36 Na1 1_555 1_555
O37 C162 1_555 1_555
O38 C162 1_555 1_555
O39 C155 1_555 1_555
O40 Pb5 1_555 1_555
O41 Pb20 1_555 1_555
C153 C154 1_555 1_555
C154 H94 1_555 1_555
C155 C153 1_555 1_555
H95 C155 1_555 1_555
H96 C155 1_555 1_555
C156 H97 1_555 1_555
C157 O39 1_555 1_555
C158 C153 1_555 1_555
H98 C158 1_555 1_555
C159 C156 1_555 1_555
H99 C159 1_555 1_555
C160 C154 1_555 1_555
C161 O36 1_555 1_555
C162 C163 1_555 1_555
C163 C158 1_555 1_555
C164 C159 1_555 1_555
C165 C157 1_555 1_555
H100 C165 1_555 1_555
C166 O41 1_555 1_555
C167 C160 1_555 1_555
H101 C167 1_555 1_555
C168 C164 1_555 1_555
H102 C168 1_555 1_555
Pb13 O2 1_555 1_555
Pb15 O37 1_555 1_555
Pb16 O23 1_555 1_555
Pb17 O30 1_555 1_555
Pb18 O7 1_555 1_555
O45 Pb2 1_555 1_555
O47 Pb20 1_555 1_555
O51 Pb2 1_555 1_555
O53 Pb20 1_555 1_555
O58 Pb2 1_555 1_555
C1 C4 1_555 1_555
C5 C10 1_555 1_555
C6 C11 1_555 1_555
C7 C12 1_555 1_555
C8 C10 1_555 1_555
C9 C11 1_555 1_555
O3 Pb13 1_555 1_555
O7 C26 1_555 1_555
C16 C17 1_555 1_555
C20 C26 1_555 1_555
C21 C24 1_555 1_555
C23 C27 1_555 1_555
C25 C28 1_555 1_555
Na1 O8 1_555 1_555
Na1 O15 1_555 1_555
O12 C49 1_555 1_555
C44 C45 1_555 1_555
C49 C52 1_555 1_555
C53 C56 1_555 1_555
O19 C77 1_555 1_555
C72 C73 1_555 1_555
C77 C80 1_555 1_555
C81 C84 1_555 1_555
Pb5 O29 1_555 1_555
Pb5 O36 1_555 1_555
O24 Pb16 1_555 1_555
O26 C105 1_555 1_555
C100 C101 1_555 1_555
C105 C108 1_555 1_555
C109 C112 1_555 1_555
O31 Pb17 1_555 1_555
O33 C133 1_555 1_555
C128 C129 1_555 1_555
C133 C136 1_555 1_555
C137 C140 1_555 1_555
C141 C144 1_555 1_555
C145 C150 1_555 1_555
C146 C151 1_555 1_555
C147 C152 1_555 1_555
O38 Pb15 1_555 1_555
O40 C161 1_555 1_555
O60 C166 1_555 1_555
C156 C157 1_555 1_555
C160 C166 1_555 1_555
C161 C164 1_555 1_555
C163 C167 1_555 1_555
C165 C168 1_555 1_555
Pb18 O58 1_555 1_555
Pb10 N3 1_555 1_555
N3 C31 1_555 1_555
N4 Pb10 1_555 1_555
C29 H18 1_555 1_555
C30 C29 1_555 1_555
H19 C30 1_555 1_555
C31 C33 1_555 1_555
C32 N4 1_555 1_555
H20 C32 1_555 1_555
C33 N4 1_555 1_555
C34 H21 1_555 1_555
C35 N3 1_555 1_555
H22 C35 1_555 1_555
C36 H23 1_555 1_555
C37 C36 1_555 1_555
H24 C37 1_555 1_555
C38 C30 1_555 1_555
C39 C31 1_555 1_555
C40 C34 1_555 1_555
H25 C40 1_555 1_555
O13 Pb10 1_555 1_555
C54 O13 1_555 1_555
C55 C48 1_555 1_555
H33 C55 1_555 1_555
Pb18 N7 1_555 1_555
N7 C87 1_555 1_555
N8 Pb18 1_555 1_555
C85 H52 1_555 1_555
C86 C85 1_555 1_555
H53 C86 1_555 1_555
C87 C89 1_555 1_555
C88 N8 1_555 1_555
H54 C88 1_555 1_555
C89 N8 1_555 1_555
C90 H55 1_555 1_555
C91 N7 1_555 1_555
H56 C91 1_555 1_555
C92 H57 1_555 1_555
C93 C92 1_555 1_555
H58 C93 1_555 1_555
C94 C86 1_555 1_555
C95 C87 1_555 1_555
C96 C90 1_555 1_555
H59 C96 1_555 1_555
O27 Pb18 1_555 1_555
C97 C98 1_555 1_555
C98 H60 1_555 1_555
C104 C98 1_555 1_555
C110 O27 1_555 1_555
C111 C104 1_555 1_555
H67 C111 1_555 1_555
Pb14 O9 1_555 1_555
O43 Pb10 1_555 1_555
O48 Pb18 1_555 1_555
O49 Pb10 1_555 1_555
O54 Pb18 1_555 1_555
C29 C32 1_555 1_555
C33 C38 1_555 1_555
C34 C39 1_555 1_555
C35 C40 1_555 1_555
C36 C38 1_555 1_555
C37 C39 1_555 1_555
O56 C54 1_555 1_555
C48 C54 1_555 1_555
C85 C88 1_555 1_555
C89 C94 1_555 1_555
C90 C95 1_555 1_555
C91 C96 1_555 1_555
C92 C94 1_555 1_555
C93 C95 1_555 1_555
O58 C110 1_555 1_555
C104 C110 1_555 1_555
Pb2_2 N1_2 1_555 1_555
N1_2 C3_2 1_555 1_555
N2_2 Pb2_2 1_555 1_555
C1_2 H1_2 1_555 1_555
C2_2 C1_2 1_555 1_555
H2_2 C2_2 1_555 1_555
C3_2 C5_2 1_555 1_555
C4_2 N2_2 1_555 1_555
H3_2 C4_2 1_555 1_555
C5_2 N2_2 1_555 1_555
C6_2 H4_2 1_555 1_555
C7_2 N1_2 1_555 1_555
H5_2 C7_2 1_555 1_555
C8_2 H6_2 1_555 1_555
C9_2 C8_2 1_555 1_555
H7_2 C9_2 1_555 1_555
C10_2 C2_2 1_555 1_555
C11_2 C3_2 1_555 1_555
C12_2 C6_2 1_555 1_555
H8_2 C12_2 1_555 1_555
O6_2 Pb2_2 1_555 1_555
O7_2 Pb2_2 1_555 1_555
C13_2 C14_2 1_555 1_555
C14_2 H9_2 1_555 1_555
C20_2 C14_2 1_555 1_555
C26_2 O6_2 1_555 1_555
C27_2 C20_2 1_555 1_555
H16_2 C27_2 1_555 1_555
Pb16 N9_2 1_555 1_555
N9_2 C115_2 1_555 1_555
N10_2 Pb16 1_555 1_555
C113_2 H69_2 1_555 1_555
C114_2 C113_2 1_555 1_555
H70_2 C114_2 1_555 1_555
C115_2 C117_2 1_555 1_555
C116_2 N10_2 1_555 1_555
H71_2 C116_2 1_555 1_555
C117_2 N10_2 1_555 1_555
C118_2 H72_2 1_555 1_555
C119_2 N9_2 1_555 1_555
H73_2 C119_2 1_555 1_555
C120_2 H74_2 1_555 1_555
C121_2 C120_2 1_555 1_555
H75_2 C121_2 1_555 1_555
C122_2 C114_2 1_555 1_555
C123_2 C115_2 1_555 1_555
C124_2 C118_2 1_555 1_555
H76_2 C124_2 1_555 1_555
O34_2 Pb16 1_555 1_555
O35_2 Pb16 1_555 1_555
C138_2 O34_2 1_555 1_555
C139_2 C132_2 1_555 1_555
H84_2 C139_2 1_555 1_555
Pb10_2 O35_2 1_555 1_555
Pb17_2 O30_2 1_555 1_555
Pb15 O7_2 1_555 1_555
O45_2 Pb2_2 1_555 1_555
O51_2 Pb2_2 1_555 1_555
O56_2 Pb16 1_555 1_555
O58_2 Pb2_2 1_555 1_555
C1_2 C4_2 1_555 1_555
C5_2 C10_2 1_555 1_555
C6_2 C11_2 1_555 1_555
C7_2 C12_2 1_555 1_555
C8_2 C10_2 1_555 1_555
C9_2 C11_2 1_555 1_555
O7_2 C26_2 1_555 1_555
C20_2 C26_2 1_555 1_555
C113_2 C116_2 1_555 1_555
C117_2 C122_2 1_555 1_555
C118_2 C123_2 1_555 1_555
C119_2 C124_2 1_555 1_555
C120_2 C122_2 1_555 1_555
C121_2 C123_2 1_555 1_555
O35_2 C138_2 1_555 1_555
C132_2 C138_2 1_555 1_555
Pb10_2 O56_2 1_555 1_555
Pb15 O58_2 1_555 1_555
Pb1_2 O1_2 1_555 1_555
O1_2 C21_2 1_555 1_555
O43 C22_2 1_555 1_555
O49 C22_2 1_555 1_555
O4_2 C15_2 1_555 1_555
O5_2 Pb1_2 1_555 1_555
H10_2 C15_2 1_555 1_555
C16_2 H12_2 1_555 1_555
C17_2 O4_2 1_555 1_555
H13_2 C18_2 1_555 1_555
C19_2 C16_2 1_555 1_555
H14_2 C19_2 1_555 1_555
C21_2 O5_2 1_555 1_555
C22_2 C23_2 1_555 1_555
C23_2 C18_2 1_555 1_555
C24_2 C19_2 1_555 1_555
C25_2 C17_2 1_555 1_555
H15_2 C25_2 1_555 1_555
C28_2 C24_2 1_555 1_555
H17_2 C28_2 1_555 1_555
Na1_2 O1_2 1_555 1_555
O8_2 Pb1_2 1_555 1_555
O44 C50_2 1_555 1_555
O50 C50_2 1_555 1_555
O11_2 C43_2 1_555 1_555
O12_2 Pb1_2 1_555 1_555
H27_2 C43_2 1_555 1_555
C44_2 H29_2 1_555 1_555
C45_2 O11_2 1_555 1_555
H30_2 C46_2 1_555 1_555
C47_2 C44_2 1_555 1_555
H31_2 C47_2 1_555 1_555
C49_2 O8_2 1_555 1_555
C50_2 C51_2 1_555 1_555
C51_2 C46_2 1_555 1_555
C52_2 C47_2 1_555 1_555
C53_2 C45_2 1_555 1_555
H32_2 C53_2 1_555 1_555
C56_2 C52_2 1_555 1_555
H34_2 C56_2 1_555 1_555
Pb4_2 N5_2 1_555 1_555
N5_2 C59_2 1_555 1_555
N6_2 Pb4_2 1_555 1_555
C57_2 H35_2 1_555 1_555
C58_2 C57_2 1_555 1_555
C59_2 C61_2 1_555 1_555
C60_2 N6_2 1_555 1_555
H37_2 C60_2 1_555 1_555
C61_2 N6_2 1_555 1_555
C63_2 N5_2 1_555 1_555
H39_2 C63_2 1_555 1_555
C66_2 C58_2 1_555 1_555
C67_2 C59_2 1_555 1_555
C68_2 C62_2 1_555 1_555
H42_2 C68_2 1_555 1_555
O15_2 Pb1_2 1_555 1_555
O45 C78_2 1_555 1_555
O51 C78_2 1_555 1_555
O18_2 C71_2 1_555 1_555
O19_2 Pb1_2 1_555 1_555
O20_2 Pb4_2 1_555 1_555
O21_2 Pb4_2 1_555 1_555
C69_2 C70_2 1_555 1_555
C70_2 H43_2 1_555 1_555
C71_2 C69_2 1_555 1_555
H44_2 C71_2 1_555 1_555
H45_2 C71_2 1_555 1_555
C72_2 H46_2 1_555 1_555
C73_2 O18_2 1_555 1_555
C74_2 C69_2 1_555 1_555
H47_2 C74_2 1_555 1_555
C75_2 C72_2 1_555 1_555
H48_2 C75_2 1_555 1_555
C76_2 C70_2 1_555 1_555
C77_2 O15_2 1_555 1_555
C78_2 C79_2 1_555 1_555
C79_2 C74_2 1_555 1_555
C80_2 C75_2 1_555 1_555
C81_2 C73_2 1_555 1_555
H49_2 C81_2 1_555 1_555
C82_2 O20_2 1_555 1_555
C83_2 C76_2 1_555 1_555
H50_2 C83_2 1_555 1_555
C84_2 C80_2 1_555 1_555
H51_2 C84_2 1_555 1_555
Pb5_2 O22_2 1_555 1_555
Pb15 N7_2 1_555 1_555
N7_2 C87_2 1_555 1_555
N8_2 Pb15 1_555 1_555
C85_2 H52_2 1_555 1_555
C86_2 C85_2 1_555 1_555
H53_2 C86_2 1_555 1_555
C87_2 C89_2 1_555 1_555
C88_2 N8_2 1_555 1_555
H54_2 C88_2 1_555 1_555
C89_2 N8_2 1_555 1_555
C90_2 H55_2 1_555 1_555
C91_2 N7_2 1_555 1_555
H56_2 C91_2 1_555 1_555
C92_2 H57_2 1_555 1_555
C93_2 C92_2 1_555 1_555
H58_2 C93_2 1_555 1_555
C94_2 C86_2 1_555 1_555
C95_2 C87_2 1_555 1_555
C96_2 C90_2 1_555 1_555
H59_2 C96_2 1_555 1_555
O22_2 Na1_2 1_555 1_555
O23_2 C106_2 1_555 1_555
O24_2 C106_2 1_555 1_555
O25_2 C99_2 1_555 1_555
O26_2 Pb5_2 1_555 1_555
O27_2 Pb15 1_555 1_555
C97_2 C98_2 1_555 1_555
C98_2 H60_2 1_555 1_555
C99_2 C97_2 1_555 1_555
H61_2 C99_2 1_555 1_555
H62_2 C99_2 1_555 1_555
C100_2 H63_2 1_555 1_555
C101_2 O25_2 1_555 1_555
C102_2 C97_2 1_555 1_555
H64_2 C102_2 1_555 1_555
C103_2 C100_2 1_555 1_555
H65_2 C103_2 1_555 1_555
C104_2 C98_2 1_555 1_555
C105_2 O22_2 1_555 1_555
C106_2 C107_2 1_555 1_555
C107_2 C102_2 1_555 1_555
C108_2 C103_2 1_555 1_555
C109_2 C101_2 1_555 1_555
H66_2 C109_2 1_555 1_555
C110_2 O27_2 1_555 1_555
C111_2 C104_2 1_555 1_555
H67_2 C111_2 1_555 1_555
C112_2 C108_2 1_555 1_555
H68_2 C112_2 1_555 1_555
O29_2 Na1_2 1_555 1_555
O31_2 C134_2 1_555 1_555
O32_2 C127_2 1_555 1_555
O33_2 Pb5_2 1_555 1_555
C125_2 C126_2 1_555 1_555
C126_2 H77_2 1_555 1_555
C127_2 C125_2 1_555 1_555
H78_2 C127_2 1_555 1_555
H79_2 C127_2 1_555 1_555
C128_2 H80_2 1_555 1_555
C129_2 O32_2 1_555 1_555
C130_2 C125_2 1_555 1_555
H81_2 C130_2 1_555 1_555
C131_2 C128_2 1_555 1_555
H82_2 C131_2 1_555 1_555
C133_2 O29_2 1_555 1_555
C134_2 C135_2 1_555 1_555
C135_2 C130_2 1_555 1_555
C136_2 C131_2 1_555 1_555
C137_2 C129_2 1_555 1_555
H83_2 C137_2 1_555 1_555
C140_2 C136_2 1_555 1_555
H85_2 C140_2 1_555 1_555
O36_2 Na1_2 1_555 1_555
O38_2 C162_2 1_555 1_555
O39_2 C155_2 1_555 1_555
O40_2 Pb5_2 1_555 1_555
C153_2 C154_2 1_555 1_555
C154_2 H94_2 1_555 1_555
C155_2 C153_2 1_555 1_555
H95_2 C155_2 1_555 1_555
H96_2 C155_2 1_555 1_555
C156_2 H97_2 1_555 1_555
C157_2 O39_2 1_555 1_555
C158_2 C153_2 1_555 1_555
H98_2 C158_2 1_555 1_555
C159_2 C156_2 1_555 1_555
H99_2 C159_2 1_555 1_555
C161_2 O36_2 1_555 1_555
C162_2 C163_2 1_555 1_555
C163_2 C158_2 1_555 1_555
C164_2 C159_2 1_555 1_555
C165_2 C157_2 1_555 1_555
H100_2 C165_2 1_555 1_555
C168_2 C164_2 1_555 1_555
H102_2 C168_2 1_555 1_555
Pb16_2 O23_2 1_555 1_555
Pb17 O21_2 1_555 1_555
O44_2 Pb4_2 1_555 1_555
O50_2 Pb4_2 1_555 1_555
O60_2 Pb4_2 1_555 1_555
C16_2 C17_2 1_555 1_555
C21_2 C24_2 1_555 1_555
C25_2 C28_2 1_555 1_555
Na1_2 O8_2 1_555 1_555
Na1_2 O15_2 1_555 1_555
O12_2 C49_2 1_555 1_555
C44_2 C45_2 1_555 1_555
C49_2 C52_2 1_555 1_555
C53_2 C56_2 1_555 1_555
C57_2 C60_2 1_555 1_555
C61_2 C66_2 1_555 1_555
C62_2 C67_2 1_555 1_555
C63_2 C68_2 1_555 1_555
O19_2 C77_2 1_555 1_555
O21_2 C82_2 1_555 1_555
C72_2 C73_2 1_555 1_555
C76_2 C82_2 1_555 1_555
C77_2 C80_2 1_555 1_555
C79_2 C83_2 1_555 1_555
C81_2 C84_2 1_555 1_555
Pb5_2 O29_2 1_555 1_555
Pb5_2 O36_2 1_555 1_555
C85_2 C88_2 1_555 1_555
C89_2 C94_2 1_555 1_555
C90_2 C95_2 1_555 1_555
C91_2 C96_2 1_555 1_555
C92_2 C94_2 1_555 1_555
C93_2 C95_2 1_555 1_555
O24_2 Pb16_2 1_555 1_555
O26_2 C105_2 1_555 1_555
O58_2 C110_2 1_555 1_555
C100_2 C101_2 1_555 1_555
C104_2 C110_2 1_555 1_555
C105_2 C108_2 1_555 1_555
C107_2 C111_2 1_555 1_555
C109_2 C112_2 1_555 1_555
O33_2 C133_2 1_555 1_555
C128_2 C129_2 1_555 1_555
C133_2 C136_2 1_555 1_555
C137_2 C140_2 1_555 1_555
O40_2 C161_2 1_555 1_555
C156_2 C157_2 1_555 1_555
C161_2 C164_2 1_555 1_555
C165_2 C168_2 1_555 1_555
Pb17 O60_2 1_555 1_555
Pb10_2 N3_2 1_555 1_555
N3_2 C31_2 1_555 1_555
N4_2 Pb10_2 1_555 1_555
C29_2 H18_2 1_555 1_555
C30_2 C29_2 1_555 1_555
C31_2 C33_2 1_555 1_555
C32_2 N4_2 1_555 1_555
H20_2 C32_2 1_555 1_555
C33_2 N4_2 1_555 1_555
C35_2 N3_2 1_555 1_555
H22_2 C35_2 1_555 1_555
C38_2 C30_2 1_555 1_555
C39_2 C31_2 1_555 1_555
C40_2 C34_2 1_555 1_555
H25_2 C40_2 1_555 1_555
O13_2 Pb10_2 1_555 1_555
C41_2 C42_2 1_555 1_555
C42_2 H26_2 1_555 1_555
C48_2 C42_2 1_555 1_555
C54_2 O13_2 1_555 1_555
C55_2 C48_2 1_555 1_555
H33_2 C55_2 1_555 1_555
Pb17 N11_2 1_555 1_555
N11_2 C143_2 1_555 1_555
N12_2 Pb17 1_555 1_555
C141_2 H86_2 1_555 1_555
C142_2 C141_2 1_555 1_555
H87 C142_2 1_555 1_555
C143_2 C145_2 1_555 1_555
C144_2 N12_2 1_555 1_555
H88_2 C144_2 1_555 1_555
C145_2 N12_2 1_555 1_555
C146_2 H89 1_555 1_555
C147_2 N11_2 1_555 1_555
H90_2 C147_2 1_555 1_555
C148 H91 1_555 1_555
C149 C148 1_555 1_555
H92 C149 1_555 1_555
C150_2 C142_2 1_555 1_555
C151_2 C143_2 1_555 1_555
C152_2 C146_2 1_555 1_555
H93_2 C152_2 1_555 1_555
O41_2 Pb17 1_555 1_555
C166_2 O41_2 1_555 1_555
C167_2 C160_2 1_555 1_555
H101_2 C167_2 1_555 1_555
Pb15_2 O37_2 1_555 1_555
O43_2 Pb10_2 1_555 1_555
O49_2 Pb10_2 1_555 1_555
C29_2 C32_2 1_555 1_555
C33_2 C38_2 1_555 1_555
C34_2 C39_2 1_555 1_555
C35_2 C40_2 1_555 1_555
O56_2 C54_2 1_555 1_555
C48_2 C54_2 1_555 1_555
C141_2 C144_2 1_555 1_555
C145_2 C150_2 1_555 1_555
C146_2 C151_2 1_555 1_555
C147_2 C152_2 1_555 1_555
C148 C150_2 1_555 1_555
C149 C151_2 1_555 1_555
O60_2 C166_2 1_555 1_555
C160_2 C166_2 1_555 1_555
Pb1_3 O1_3 1_555 1_555
O1_3 C21_3 1_555 1_555
O5_3 Pb1_3 1_555 1_555
O6_3 Pb12 1_555 1_555
C21_3 O5_3 1_555 1_555
C24_3 C19_3 1_555 1_555
H15_3 C25_3 1_555 1_555
C28_3 C24_3 1_555 1_555
H17_3 C28_3 1_555 1_555
N5_3 C59_3 1_555 1_555
C58_3 C57_3 1_555 1_555
H36_2 C58_3 1_555 1_555
C59_3 C61_3 1_555 1_555
C60_3 N6_3 1_555 1_555
H37_3 C60_3 1_555 1_555
C61_3 N6_3 1_555 1_555
C62_3 H38_2 1_555 1_555
C63_3 N5_3 1_555 1_555
C64_2 H40_2 1_555 1_555
C65_2 C64_2 1_555 1_555
H41_2 C65_2 1_555 1_555
C66_3 C58_3 1_555 1_555
C67_3 C59_3 1_555 1_555
C68_3 C62_3 1_555 1_555
H42_3 C68_3 1_555 1_555
O47 C134_3 1_555 1_555
O53 C134_3 1_555 1_555
O32_3 C127_3 1_555 1_555
C125_3 C126_3 1_555 1_555
C126_3 H77_3 1_555 1_555
C127_3 C125_3 1_555 1_555
H78_3 C127_3 1_555 1_555
H79_3 C127_3 1_555 1_555
C128_3 H80_3 1_555 1_555
C129_3 O32_3 1_555 1_555
C130_3 C125_3 1_555 1_555
H81_3 C130_3 1_555 1_555
C132_3 C126_3 1_555 1_555
C134_3 C135_3 1_555 1_555
C135_3 C130_3 1_555 1_555
C139_3 C132_3 1_555 1_555
H84_3 C139_3 1_555 1_555
Pb13 O35_3 1_555 1_555
O58_3 Pb12 1_555 1_555
C21_3 C24_3 1_555 1_555
C25_3 C28_3 1_555 1_555
C57_3 C60_3 1_555 1_555
C61_3 C66_3 1_555 1_555
C62_3 C67_3 1_555 1_555
C63_3 C68_3 1_555 1_555
C64_2 C66_3 1_555 1_555
C65_2 C67_3 1_555 1_555
O35_3 C138_3 1_555 1_555
C128_3 C129_3 1_555 1_555
C132_3 C138_3 1_555 1_555
C135_3 C139_3 1_555 1_555
O4_3 C15_3 1_555 1_555
C13_3 C14_3 1_555 1_555
C14_3 H9_3 1_555 1_555
C15_3 C13_3 1_555 1_555
H10_3 C15_3 1_555 1_555
H11_3 C15_3 1_555 1_555
C16_3 H12_3 1_555 1_555
C17_3 O4_3 1_555 1_555
C18_3 C13_3 1_555 1_555
H13_3 C18_3 1_555 1_555
C20_3 C14_3 1_555 1_555
O45_2 C78_3 1_555 1_555
O51_2 C78_3 1_555 1_555
C78_3 C79_3 1_555 1_555
H50_3 C83_3 1_555 1_555
Pb16_2 N9_3 1_555 1_555
N9_3 C115_3 1_555 1_555
N10_3 Pb16_2 1_555 1_555
C114_3 C113_3 1_555 1_555
H70_3 C114_3 1_555 1_555
C115_3 C117_3 1_555 1_555
C116_3 N10_3 1_555 1_555
H71_3 C116_3 1_555 1_555
C117_3 N10_3 1_555 1_555
C118_3 H72_3 1_555 1_555
C119_3 N9_3 1_555 1_555
H73_3 C119_3 1_555 1_555
C120_3 H74_3 1_555 1_555
C121_3 C120_3 1_555 1_555
H75_3 C121_3 1_555 1_555
C122_3 C114_3 1_555 1_555
C123_3 C115_3 1_555 1_555
C124_3 C118_3 1_555 1_555
H76_3 C124_3 1_555 1_555
O33_3 Pb5_3 1_555 1_555
O34_3 Pb16_2 1_555 1_555
C133_3 O29_3 1_555 1_555
C136_3 C131_3 1_555 1_555
H83_3 C137_3 1_555 1_555
C140_3 C136_3 1_555 1_555
H85_3 C140_3 1_555 1_555
Pb17_2 O21_3 1_555 1_555
O56_3 Pb16_2 1_555 1_555
C16_3 C17_3 1_555 1_555
C20_3 C26_3 1_555 1_555
C79_3 C83_3 1_555 1_555
Pb5_3 O29_3 1_555 1_555
C113_3 C116_3 1_555 1_555
C117_3 C122_3 1_555 1_555
C118_3 C123_3 1_555 1_555
C119_3 C124_3 1_555 1_555
C120_3 C122_3 1_555 1_555
C121_3 C123_3 1_555 1_555
O33_3 C133_3 1_555 1_555
C133_3 C136_3 1_555 1_555
C137_3 C140_3 1_555 1_555
O15_3 Pb1_4 1_555 1_555
O19_3 Pb1_4 1_555 1_555
O20_3 Pb14 1_555 1_555
C77_3 O15_3 1_555 1_555
C80_3 C75_3 1_555 1_555
H49_3 C81_3 1_555 1_555
C84_3 C80_3 1_555 1_555
H51_3 C84_3 1_555 1_555
O46 C106_3 1_555 1_555
O52 C106_3 1_555 1_555
C106_3 C107_3 1_555 1_555
H67_3 C111_3 1_555 1_555
O60_3 Pb14 1_555 1_555
O19_3 C77_3 1_555 1_555
C77_3 C80_3 1_555 1_555
C81_3 C84_3 1_555 1_555
C107_3 C111_3 1_555 1_555
O18_3 C71_3 1_555 1_555
C69_3 C70_3 1_555 1_555
C70_3 H43_3 1_555 1_555
C71_3 C69_3 1_555 1_555
H44_3 C71_3 1_555 1_555
H45_3 C71_3 1_555 1_555
C72_3 H46_3 1_555 1_555
C73_3 O18_3 1_555 1_555
C74_3 C69_3 1_555 1_555
H47_3 C74_3 1_555 1_555
C76_3 C70_3 1_555 1_555
N7_3 C87_3 1_555 1_555
C86_3 C85_3 1_555 1_555
H53_3 C86_3 1_555 1_555
C87_3 C89_3 1_555 1_555
C88_3 N8_3 1_555 1_555
H54_3 C88_3 1_555 1_555
C89_3 N8_3 1_555 1_555
C90_3 H55_3 1_555 1_555
C91_3 N7_3 1_555 1_555
C92_3 H57_3 1_555 1_555
C93_3 C92_3 1_555 1_555
H58_3 C93_3 1_555 1_555
C94_3 C86_3 1_555 1_555
C95_3 C87_3 1_555 1_555
C96_3 C90_3 1_555 1_555
H59_3 C96_3 1_555 1_555
C72_3 C73_3 1_555 1_555
C76_3 C82_3 1_555 1_555
C85_3 C88_3 1_555 1_555
C89_3 C94_3 1_555 1_555
C90_3 C95_3 1_555 1_555
C91_3 C96_3 1_555 1_555
C92_3 C94_3 1_555 1_555
C93_3 C95_3 1_555 1_555
N1_3 C3_3 1_555 1_555
C2_3 C1_3 1_555 1_555
H2_3 C2_3 1_555 1_555
C3_3 C5_3 1_555 1_555
C4_3 N2_3 1_555 1_555
H3_3 C4_3 1_555 1_555
C5_3 N2_3 1_555 1_555
C6_3 H4_3 1_555 1_555
C7_3 N1_3 1_555 1_555
C8_3 H6_3 1_555 1_555
C9_3 C8_3 1_555 1_555
H7_3 C9_3 1_555 1_555
C10_3 C2_3 1_555 1_555
C11_3 C3_3 1_555 1_555
C12_3 C6_3 1_555 1_555
H8_3 C12_3 1_555 1_555
O39_3 C155_3 1_555 1_555
C153_3 C154_3 1_555 1_555
C154_3 H94_3 1_555 1_555
C155_3 C153_3 1_555 1_555
H95_3 C155_3 1_555 1_555
H96_3 C155_3 1_555 1_555
C156_3 H97_3 1_555 1_555
C157_3 O39_3 1_555 1_555
C158_3 C153_3 1_555 1_555
H98_3 C158_3 1_555 1_555
C160_3 C154_3 1_555 1_555
C1_3 C4_3 1_555 1_555
C5_3 C10_3 1_555 1_555
C6_3 C11_3 1_555 1_555
C7_3 C12_3 1_555 1_555
C8_3 C10_3 1_555 1_555
C9_3 C11_3 1_555 1_555
C156_3 C157_3 1_555 1_555
C160_3 C166_3 1_555 1_555
O43_2 C22_3 1_555 1_555
O49_2 C22_3 1_555 1_555
C22_3 C23_3 1_555 1_555
H16_3 C27_3 1_555 1_555
O40_3 Pb5_5 1_555 1_555
O41_3 Pb17_2 1_555 1_555
C161_3 O36_3 1_555 1_555
C164_3 C159_3 1_555 1_555
H100_3 C165_3 1_555 1_555
C168_3 C164_3 1_555 1_555
H102_3 C168_3 1_555 1_555
Pb15_2 O7_3 1_555 1_555
C23_3 C27_3 1_555 1_555
Pb5_5 O36_3 1_555 1_555
O40_3 C161_3 1_555 1_555
C161_3 C164_3 1_555 1_555
C165_3 C168_3 1_555 1_555
Pb13 N3_3 1_555 1_555
N3_3 C31_3 1_555 1_555
N4_3 Pb13 1_555 1_555
C30_3 C29_3 1_555 1_555
H19_2 C30_3 1_555 1_555
C31_3 C33_3 1_555 1_555
C32_3 N4_3 1_555 1_555
H20_3 C32_3 1_555 1_555
C33_3 N4_3 1_555 1_555
C34_3 H21_2 1_555 1_555
C35_3 N3_3 1_555 1_555
H22_3 C35_3 1_555 1_555
C36_2 H23_2 1_555 1_555
C37_2 C36_2 1_555 1_555
H24_2 C37_2 1_555 1_555
C38_3 C30_3 1_555 1_555
C39_3 C31_3 1_555 1_555
C40_3 C34_3 1_555 1_555
H25_3 C40_3 1_555 1_555
O8_3 Pb1_6 1_555 1_555
O12_3 Pb1_6 1_555 1_555
O13_3 Pb13 1_555 1_555
C49_3 O8_3 1_555 1_555
C52_3 C47_3 1_555 1_555
H32_3 C53_3 1_555 1_555
C56_3 C52_3 1_555 1_555
H34_3 C56_3 1_555 1_555
O25_3 C99_3 1_555 1_555
C97_3 C98_3 1_555 1_555
C98_3 H60_3 1_555 1_555
C99_3 C97_3 1_555 1_555
H61_3 C99_3 1_555 1_555
H62_3 C99_3 1_555 1_555
C100_3 H63_3 1_555 1_555
C101_3 O25_3 1_555 1_555
C102_3 C97_3 1_555 1_555
H64_3 C102_3 1_555 1_555
C104_3 C98_3 1_555 1_555
O48 C162_3 1_555 1_555
O54 C162_3 1_555 1_555
C162_3 C163_3 1_555 1_555
H101_3 C167_3 1_555 1_555
C29_3 C32_3 1_555 1_555
C33_3 C38_3 1_555 1_555
C34_3 C39_3 1_555 1_555
C35_3 C40_3 1_555 1_555
C36_2 C38_3 1_555 1_555
C37_2 C39_3 1_555 1_555
O12_3 C49_3 1_555 1_555
C49_3 C52_3 1_555 1_555
C53_3 C56_3 1_555 1_555
C100_3 C101_3 1_555 1_555
C104_3 C110_3 1_555 1_555
C163_3 C167_3 1_555 1_555
O44_2 C50_3 1_555 1_555
O50_2 C50_3 1_555 1_555
O11_3 C43_3 1_555 1_555
C41_3 C42_3 1_555 1_555
C42_3 H26_3 1_555 1_555
C43_3 C41_3 1_555 1_555
H27_3 C43_3 1_555 1_555
H28_3 C43_3 1_555 1_555
C44_3 H29_3 1_555 1_555
C45_3 O11_3 1_555 1_555
C46_3 C41_3 1_555 1_555
H30_3 C46_3 1_555 1_555
C48_3 C42_3 1_555 1_555
C50_3 C51_3 1_555 1_555
C51_3 C46_3 1_555 1_555
C55_3 C48_3 1_555 1_555
H33_3 C55_3 1_555 1_555
Pb5_6 O22_3 1_555 1_555
O26_3 Pb5_6 1_555 1_555
O27_3 Pb15_2 1_555 1_555
C105_3 O22_3 1_555 1_555
C108_3 C103_3 1_555 1_555
H66_3 C109_3 1_555 1_555
C112_3 C108_3 1_555 1_555
H68_3 C112_3 1_555 1_555
N11_3 C143_3 1_555 1_555
C142_3 C141_3 1_555 1_555
H87_2 C142_3 1_555 1_555
C143_3 C145_3 1_555 1_555
C144_3 N12_3 1_555 1_555
H88_3 C144_3 1_555 1_555
C145_3 N12_3 1_555 1_555
C146_3 H89_2 1_555 1_555
C147_3 N11_3 1_555 1_555
C148_2 H91_2 1_555 1_555
C149_2 C148_2 1_555 1_555
H92_2 C149_2 1_555 1_555
C150_3 C142_3 1_555 1_555
C151_3 C143_3 1_555 1_555
C152_3 C146_3 1_555 1_555
H93_3 C152_3 1_555 1_555
O56_3 C54_3 1_555 1_555
C44_3 C45_3 1_555 1_555
C48_3 C54_3 1_555 1_555
C51_3 C55_3 1_555 1_555
O26_3 C105_3 1_555 1_555
C105_3 C108_3 1_555 1_555
C109_3 C112_3 1_555 1_555
C141_3 C144_3 1_555 1_555
C145_3 C150_3 1_555 1_555
C146_3 C151_3 1_555 1_555
C147_3 C152_3 1_555 1_555
C148_2 C150_3 1_555 1_555
C149_2 C151_3 1_555 1_555
Na1_4 O8_3 1_555 1_555
Na1_5 O1_3 1_555 1_555
Na1_7 O29_3 1_555 1_555
Na1_8 O22_3 1_555 1_555
C148_3 H91_3 1_555 1_555
C149_3 C148_3 1_555 1_555
H92_3 C149_3 1_555 1_555
C64_3 H40_3 1_555 1_555
C65_3 C64_3 1_555 1_555
H41_3 C65_3 1_555 1_555
C36_3 H23_3 1_555 1_555
C37_3 C36_3 1_555 1_555
H24_3 C37_3 1_555 1_555

#END
