
###############################################################################
#
# This file contains modified crystal structure data generated from the
# MOF subset of the Cambridge Structural Database (CSD) v543 
# hosted by the Cambridge Crystallographic Data Centre (CCDC).
#
# This work is licensed under the Creative Commons
# Attribution-NonCommercial-ShareAlike 4.0 International License.
# To view a copy of this license, visit
# http://creativecommons.org/licenses/by-nc-sa/4.0/
# or send a letter to
# Creative Commons, PO Box 1866, Mountain View, CA 94042, USA.
#
# CIF created using the CSD Python API on 29 September 2022
# The structure has been converted into the P1 space group
# The structure has a 3D framework
# The original CSD entry WALTEM is in the tetragonal crystal system
# The framework has been calculated to contain at least 10.0% void space
# The void calculation uses a probe of radius 1.32A, grid spacing 0.4
# The framework is charged, counterions have been retained in the structure
#
###############################################################################

data_WALTEM
_chemical_formula_moiety         '(C144 H168 Cu5 N72 8+)n'
_symmetry_cell_setting           triclinic
_symmetry_space_group_name_H-M   'P 1'
_symmetry_Int_Tables_number      1
_space_group_name_Hall           'P 1'
loop_
_symmetry_equiv_pos_site_id
_symmetry_equiv_pos_as_xyz
1 x,y,z
_cell_length_a                   16.6101(5)
_cell_length_b                   16.6101(5)
_cell_length_c                   16.8439(4)
_cell_angle_alpha                90
_cell_angle_beta                 90
_cell_angle_gamma                90
_cell_volume                     4647.15
loop_
_atom_site_label
_atom_site_type_symbol
_atom_site_fract_x
_atom_site_fract_y
_atom_site_fract_z
Br1 Br 0.250000 0.250000 0.15833(4)
C13 C 0.4284(3) 0.2669(3) 0.0388(2)
H16 H 0.421881 0.242510 0.088062
N8 N 0.4979(2) 0.2915(3) 0.0123(2)
C31 C 0.0716(3) 0.2331(3) 0.0388(2)
H37 H 0.078119 0.257490 0.088062
N17 N 0.0021(2) 0.2085(3) 0.0123(2)
C49 C 0.2331(3) 0.4284(3) 0.0388(2)
H58 H 0.257490 0.421881 0.088062
N26 N 0.2085(3) 0.4979(2) 0.0123(2)
C67 C 0.2669(3) 0.0716(3) 0.0388(2)
H79 H 0.242510 0.078119 0.088062
N35 N 0.2915(3) 0.0021(2) 0.0123(2)
Cu7 Cu 0.250000 0.250000 0.33213(5)
C1 C 0.5168(3) 0.5261(3) 0.8675(3)
H1 H 0.479240 0.569960 0.865740
H2 H 0.570506 0.546431 0.860859
H3 H 0.512654 0.499185 0.917753
C2 C 0.5021(3) 0.2406(3) 0.7626(3)
H4 H 0.525711 0.230941 0.813748
H5 H 0.536726 0.219465 0.722009
H6 H 0.450599 0.214544 0.759761
C3 C 0.4235(2) 0.4717(3) 0.5863(2)
H7 H 0.370215 0.451713 0.576303
H8 H 0.459418 0.452336 0.545906
H9 H 0.422891 0.529446 0.585687
C4 C 0.4980(2) 0.4671(2) 0.8012(2)
C5 C 0.5099(2) 0.3848(2) 0.8115(2)
C6 C 0.4914(2) 0.3308(2) 0.7504(2)
C7 C 0.4618(2) 0.3599(2) 0.6787(2)
C8 C 0.4517(2) 0.4426(2) 0.6662(2)
C9 C 0.4696(2) 0.4960(2) 0.7279(2)
C10 C 0.4643(2) 0.5859(2) 0.7135(2)
H10 H 0.422257 0.597365 0.675184
H11 H 0.451179 0.613425 0.762671
C11 C 0.5447(2) 0.3535(3) 0.8882(3)
H12 H 0.582884 0.310803 0.876959
H13 H 0.573178 0.396468 0.915234
C12 C 0.4419(2) 0.3024(3) 0.6124(3)
H14 H 0.426046 0.250953 0.634612
H15 H 0.396715 0.323375 0.582217
C14 C 0.4020(2) 0.3150(2) 0.9272(2)
H17 H 0.375580 0.332124 0.881532
C15 C 0.6454(2) 0.6162(2) 0.6128(2)
H18 H 0.683640 0.603877 0.574350
C16 C 0.5884(2) 0.6743(2) 0.7082(2)
H19 H 0.575949 0.709266 0.749515
C17 C 0.5728(2) 0.2561(2) 0.4561(2)
H20 H 0.583949 0.239022 0.404660
C18 C 0.5892(2) 0.2936(2) 0.5738(2)
H21 H 0.611916 0.308662 0.622045
Cu1 Cu 0.750000 0.750000 0.66787(5)
Cu2 Cu 0.750000 0.250000 0.500000
Cu3 Cu 0.250000 0.250000 0.99872(5)
N1 N 0.54213(17) 0.61446(17) 0.68342(17)
N2 N 0.57791(19) 0.57640(18) 0.62083(18)
N3 N 0.65458(16) 0.67684(16) 0.66555(15)
N4 N 0.51147(17) 0.29080(18) 0.55881(18)
N5 N 0.4988(2) 0.2671(2) 0.48264(19)
N6 N 0.63036(18) 0.27167(17) 0.50972(17)
N7 N 0.4801(2) 0.3222(2) 0.94026(18)
N9 N 0.36703(19) 0.28002(19) 0.98849(16)
H27 H 0.049401 0.285456 0.759761
C21 C 0.0765(2) 0.0283(3) 0.5863(2)
H28 H 0.129785 0.048287 0.576303
H29 H 0.040582 0.047664 0.545906
C22 C 0.0020(2) 0.0329(2) 0.8012(2)
C24 C 0.0086(2) 0.1692(2) 0.7504(2)
C25 C 0.0382(2) 0.1401(2) 0.6787(2)
C26 C 0.0483(2) 0.0574(2) 0.6662(2)
C27 C 0.0304(2) 0.0040(2) 0.7279(2)
C30 C 0.0581(2) 0.1976(3) 0.6124(3)
H35 H 0.073954 0.249047 0.634612
H36 H 0.103285 0.176625 0.582217
C32 C 0.0980(2) 0.1850(2) 0.9272(2)
H38 H 0.124420 0.167876 0.881532
N14 N 0.0012(2) 0.2329(2) 0.48264(19)
N16 N 0.0199(2) 0.1778(2) 0.94026(18)
N18 N 0.13297(19) 0.21998(19) 0.98849(16)
H45 H 0.000815 0.512654 0.917753
C38 C 0.2594(3) 0.5021(3) 0.7626(3)
H46 H 0.269059 0.525711 0.813748
H47 H 0.280535 0.536726 0.722009
H48 H 0.285456 0.450599 0.759761
C39 C 0.0283(3) 0.4235(2) 0.5863(2)
H49 H 0.048287 0.370215 0.576303
H50 H 0.047664 0.459418 0.545906
C40 C 0.0329(2) 0.4980(2) 0.8012(2)
C41 C 0.1152(2) 0.5099(2) 0.8115(2)
C42 C 0.1692(2) 0.4914(2) 0.7504(2)
C43 C 0.1401(2) 0.4618(2) 0.6787(2)
C44 C 0.0574(2) 0.4517(2) 0.6662(2)
C45 C 0.0040(2) 0.4696(2) 0.7279(2)
C47 C 0.1465(3) 0.5447(2) 0.8882(3)
H54 H 0.189197 0.582884 0.876959
H55 H 0.103532 0.573178 0.915234
C48 C 0.1976(3) 0.4419(2) 0.6124(3)
H56 H 0.249047 0.426046 0.634612
H57 H 0.176625 0.396715 0.582217
C50 C 0.1850(2) 0.4020(2) 0.9272(2)
H59 H 0.167876 0.375580 0.881532
C53 C 0.2439(2) 0.5728(2) 0.4561(2)
H62 H 0.260978 0.583949 0.404660
C54 C 0.2064(2) 0.5892(2) 0.5738(2)
H63 H 0.191338 0.611916 0.622045
N22 N 0.20920(18) 0.51147(17) 0.55881(18)
N23 N 0.2329(2) 0.4988(2) 0.48264(19)
N24 N 0.22833(17) 0.63036(18) 0.50972(17)
N25 N 0.1778(2) 0.4801(2) 0.94026(18)
N27 N 0.21998(19) 0.36703(19) 0.98849(16)
H64 H 0.569960 0.020760 0.865740
H69 H 0.214544 0.049401 0.759761
C57 C 0.4717(3) 0.0765(2) 0.5863(2)
H70 H 0.451713 0.129785 0.576303
H71 H 0.452336 0.040582 0.545906
H72 H 0.529446 0.077109 0.585687
C58 C 0.4671(2) 0.0020(2) 0.8012(2)
C60 C 0.3308(2) 0.0086(2) 0.7504(2)
C61 C 0.3599(2) 0.0382(2) 0.6787(2)
C62 C 0.4426(2) 0.0483(2) 0.6662(2)
C63 C 0.4960(2) 0.0304(2) 0.7279(2)
C64 C 0.5859(2) 0.0357(2) 0.7135(2)
H73 H 0.597365 0.077743 0.675184
H74 H 0.613425 0.048821 0.762671
C66 C 0.3024(3) 0.0581(2) 0.6124(3)
H77 H 0.250953 0.073954 0.634612
H78 H 0.323375 0.103285 0.582217
C68 C 0.3150(2) 0.0980(2) 0.9272(2)
H80 H 0.332124 0.124420 0.881532
N32 N 0.2671(2) 0.0012(2) 0.48264(19)
N34 N 0.3222(2) 0.0199(2) 0.94026(18)
N36 N 0.28002(19) 0.13297(19) 0.98849(16)
Br2 Br 0.750000 0.750000 0.84167(4)
Cu10 Cu 0.250000 0.750000 0.500000
N37 N 0.84542(16) 0.82316(16) 0.66555(15)
N38 N 0.82316(16) 0.65458(16) 0.66555(15)
N39 N 0.67684(16) 0.84542(16) 0.66555(15)
N40 N 0.86964(18) 0.22833(17) 0.50972(17)
N41 N 0.77167(17) 0.36964(18) 0.49028(17)
N42 N 0.72833(17) 0.13036(18) 0.49028(17)
H22 H 0.020760 0.930040 0.865740
H30 H 0.077109 0.970554 0.585687
C28 C 0.0357(2) 0.9141(2) 0.7135(2)
H31 H 0.077743 0.902635 0.675184
H32 H 0.048821 0.886575 0.762671
C55 C 0.5261(3) 0.9832(3) 0.8675(3)
H65 H 0.546431 0.929494 0.860859
H66 H 0.499185 0.987346 0.917753
C56 C 0.2406(3) 0.9979(3) 0.7626(3)
H67 H 0.230941 0.974289 0.813748
H68 H 0.219465 0.963274 0.722009
C59 C 0.3848(2) 0.9901(2) 0.8115(2)
C65 C 0.3535(3) 0.9553(2) 0.8882(3)
H75 H 0.310803 0.917116 0.876959
H76 H 0.396468 0.926822 0.915234
C69 C 0.6162(2) 0.8546(2) 0.6128(2)
H81 H 0.603877 0.816360 0.574350
C70 C 0.6743(2) 0.9116(2) 0.7082(2)
H82 H 0.709266 0.924051 0.749515
C71 C 0.2561(2) 0.9272(2) 0.4561(2)
H83 H 0.239022 0.916051 0.404660
C72 C 0.2936(2) 0.9108(2) 0.5738(2)
H84 H 0.308662 0.888084 0.622045
N28 N 0.61446(17) 0.95787(17) 0.68342(17)
N29 N 0.57640(18) 0.92209(19) 0.62083(18)
N31 N 0.29080(18) 0.98853(17) 0.55881(18)
N33 N 0.27167(17) 0.86964(18) 0.50972(17)
H24 H 0.987346 0.000815 0.917753
C20 C 0.9979(3) 0.2594(3) 0.7626(3)
H25 H 0.974289 0.269059 0.813748
H26 H 0.963274 0.280535 0.722009
C23 C 0.9901(2) 0.1152(2) 0.8115(2)
C29 C 0.9553(2) 0.1465(3) 0.8882(3)
H33 H 0.917116 0.189197 0.876959
H34 H 0.926822 0.103532 0.915234
C35 C 0.9272(2) 0.2439(2) 0.4561(2)
H41 H 0.916051 0.260978 0.404660
C36 C 0.9108(2) 0.2064(2) 0.5738(2)
H42 H 0.888084 0.191338 0.622045
N13 N 0.98853(17) 0.20920(18) 0.55881(18)
C37 C 0.9739(3) 0.5168(3) 0.8675(3)
H43 H 0.930040 0.479240 0.865740
H44 H 0.953569 0.570506 0.860859
H51 H 0.970554 0.422891 0.585687
C46 C 0.9141(2) 0.4643(2) 0.7135(2)
H52 H 0.902635 0.422257 0.675184
H53 H 0.886575 0.451179 0.762671
C51 C 0.8838(2) 0.6454(2) 0.6128(2)
H60 H 0.896123 0.683640 0.574350
C52 C 0.8257(2) 0.5884(2) 0.7082(2)
H61 H 0.790734 0.575949 0.749515
N19 N 0.88554(17) 0.54213(17) 0.68342(17)
N20 N 0.92360(18) 0.57791(19) 0.62083(18)
C19 C 0.9832(3) 0.9739(3) 0.8675(3)
H23 H 0.929494 0.953569 0.860859
C33 C 0.8546(2) 0.8838(2) 0.6128(2)
H39 H 0.816360 0.896123 0.574350
C34 C 0.9116(2) 0.8257(2) 0.7082(2)
H40 H 0.924051 0.790734 0.749515
N10 N 0.95787(17) 0.88554(17) 0.68342(17)
N11 N 0.92209(19) 0.92360(18) 0.62083(18)
N41_2 N 0.13036(18) 0.77167(17) 0.49028(17)
N42_2 N 0.36964(18) 0.72833(17) 0.49028(17)
C19_2 C 0.0168(3) 0.0261(3) 0.1325(3)
H23_2 H 0.070506 0.046431 0.139141
C33_2 C 0.1454(2) 0.1162(2) 0.3872(2)
H39_2 H 0.183640 0.103877 0.425650
C34_2 C 0.0884(2) 0.1743(2) 0.2918(2)
H40_2 H 0.075949 0.209266 0.250485
N10_2 N 0.04213(17) 0.11446(17) 0.31658(17)
N11_2 N 0.07791(19) 0.07640(18) 0.37917(18)
N12 N 0.15458(16) 0.17684(16) 0.33445(15)
H24_2 H 0.012654 0.999185 0.082247
C20_2 C 0.0021(3) 0.7406(3) 0.2374(3)
H25_2 H 0.025711 0.730941 0.186252
H26_2 H 0.036726 0.719465 0.277991
C23_2 C 0.0099(2) 0.8848(2) 0.1885(2)
C29_2 C 0.0447(2) 0.8535(3) 0.1118(3)
H33_2 H 0.082884 0.810803 0.123041
H34_2 H 0.073178 0.896468 0.084766
C35_2 C 0.0728(2) 0.7561(2) 0.5439(2)
H41_2 H 0.083949 0.739022 0.595340
C36_2 C 0.0892(2) 0.7936(2) 0.4262(2)
H42_2 H 0.111916 0.808662 0.377955
N13_2 N 0.01147(17) 0.79080(18) 0.44119(18)
C37_2 C 0.0261(3) 0.4832(3) 0.1325(3)
H43_2 H 0.069960 0.520760 0.134260
H44_2 H 0.046431 0.429494 0.139141
H51_2 H 0.029446 0.577109 0.414313
C46_2 C 0.0859(2) 0.5357(2) 0.2865(2)
H52_2 H 0.097365 0.577743 0.324816
H53_2 H 0.113425 0.548821 0.237329
C51_2 C 0.1162(2) 0.3546(2) 0.3872(2)
H60_2 H 0.103877 0.316360 0.425650
C52_2 C 0.1743(2) 0.4116(2) 0.2918(2)
H61_2 H 0.209266 0.424051 0.250485
N19_2 N 0.11446(17) 0.45787(17) 0.31658(17)
N20_2 N 0.07640(18) 0.42209(19) 0.37917(18)
N21 N 0.17684(16) 0.34542(16) 0.33445(15)
H22_2 H 0.979240 0.069960 0.134260
H30_2 H 0.922891 0.029446 0.414313
C28_2 C 0.9643(2) 0.0859(2) 0.2865(2)
H31_2 H 0.922257 0.097365 0.324816
H32_2 H 0.951179 0.113425 0.237329
C55_2 C 0.4739(3) 0.0168(3) 0.1325(3)
H65_2 H 0.453569 0.070506 0.139141
H66_2 H 0.500815 0.012654 0.082247
C56_2 C 0.7594(3) 0.0021(3) 0.2374(3)
H67_2 H 0.769059 0.025711 0.186252
H68_2 H 0.780535 0.036726 0.277991
C59_2 C 0.6152(2) 0.0099(2) 0.1885(2)
C65_2 C 0.6465(3) 0.0447(2) 0.1118(3)
H75_2 H 0.689197 0.082884 0.123041
H76_2 H 0.603532 0.073178 0.084766
C69_2 C 0.3838(2) 0.1454(2) 0.3872(2)
H81_2 H 0.396123 0.183640 0.425650
C70_2 C 0.3257(2) 0.0884(2) 0.2918(2)
H82_2 H 0.290734 0.075949 0.250485
C71_2 C 0.7439(2) 0.0728(2) 0.5439(2)
H83_2 H 0.760978 0.083949 0.595340
C72_2 C 0.7064(2) 0.0892(2) 0.4262(2)
H84_2 H 0.691338 0.111916 0.377955
N28_2 N 0.38554(17) 0.04213(17) 0.31658(17)
N29_2 N 0.42360(18) 0.07791(19) 0.37917(18)
N30 N 0.32316(16) 0.15458(16) 0.33445(15)
N31_2 N 0.70920(18) 0.01147(17) 0.44119(18)
C1_2 C 0.4832(3) 0.4739(3) 0.1325(3)
H1_2 H 0.520760 0.430040 0.134260
H2_2 H 0.429494 0.453569 0.139141
H3_2 H 0.487346 0.500815 0.082247
C2_2 C 0.4979(3) 0.7594(3) 0.2374(3)
H4_2 H 0.474289 0.769059 0.186252
H5_2 H 0.463274 0.780535 0.277991
H6_2 H 0.549401 0.785456 0.240239
C3_2 C 0.5765(2) 0.5283(3) 0.4137(2)
H7_2 H 0.629785 0.548287 0.423697
H8_2 H 0.540582 0.547664 0.454094
H9_2 H 0.577109 0.470554 0.414313
C4_2 C 0.5020(2) 0.5329(2) 0.1988(2)
C5_2 C 0.4901(2) 0.6152(2) 0.1885(2)
C6_2 C 0.5086(2) 0.6692(2) 0.2496(2)
C7_2 C 0.5382(2) 0.6401(2) 0.3213(2)
C8_2 C 0.5483(2) 0.5574(2) 0.3338(2)
C9_2 C 0.5304(2) 0.5040(2) 0.2721(2)
C10_2 C 0.5357(2) 0.4141(2) 0.2865(2)
H10_2 H 0.577743 0.402635 0.324816
H11_2 H 0.548821 0.386575 0.237329
C11_2 C 0.4553(2) 0.6465(3) 0.1118(3)
H12_2 H 0.417116 0.689197 0.123041
H13_2 H 0.426822 0.603532 0.084766
C12_2 C 0.5581(2) 0.6976(3) 0.3876(3)
H14_2 H 0.573954 0.749047 0.365388
H15_2 H 0.603285 0.676625 0.417783
C14_2 C 0.5980(2) 0.6850(2) 0.0728(2)
H17_2 H 0.624420 0.667876 0.118468
C15_2 C 0.3546(2) 0.3838(2) 0.3872(2)
H18_2 H 0.316360 0.396123 0.425650
C16_2 C 0.4116(2) 0.3257(2) 0.2918(2)
H19_2 H 0.424051 0.290734 0.250485
C17_2 C 0.4272(2) 0.7439(2) 0.5439(2)
H20_2 H 0.416051 0.760978 0.595340
C18_2 C 0.4108(2) 0.7064(2) 0.4262(2)
H21_2 H 0.388084 0.691338 0.377955
Cu3_2 Cu 0.750000 0.750000 0.00128(5)
N1_2 N 0.45787(17) 0.38554(17) 0.31658(17)
N2_2 N 0.42209(19) 0.42360(18) 0.37917(18)
N3_2 N 0.34542(16) 0.32316(16) 0.33445(15)
N4_2 N 0.48853(17) 0.70920(18) 0.44119(18)
N5_2 N 0.5012(2) 0.7329(2) 0.51736(19)
N7_2 N 0.5199(2) 0.6778(2) 0.05974(18)
N9_2 N 0.63297(19) 0.71998(19) 0.01151(16)
H27_2 H 0.950599 0.714544 0.240239
C21_2 C 0.9235(2) 0.9717(3) 0.4137(2)
H28_2 H 0.870215 0.951713 0.423697
H29_2 H 0.959418 0.952336 0.454094
C22_2 C 0.9980(2) 0.9671(2) 0.1988(2)
C24_2 C 0.9914(2) 0.8308(2) 0.2496(2)
C25_2 C 0.9618(2) 0.8599(2) 0.3213(2)
C26_2 C 0.9517(2) 0.9426(2) 0.3338(2)
C27_2 C 0.9696(2) 0.9960(2) 0.2721(2)
C30_2 C 0.9419(2) 0.8024(3) 0.3876(3)
H35_2 H 0.926046 0.750953 0.365388
H36_2 H 0.896715 0.823375 0.417783
C32_2 C 0.9020(2) 0.8150(2) 0.0728(2)
H38_2 H 0.875580 0.832124 0.118468
N14_2 N 0.9988(2) 0.7671(2) 0.51736(19)
N16_2 N 0.9801(2) 0.8222(2) 0.05974(18)
N18_2 N 0.86703(19) 0.78002(19) 0.01151(16)
H45_2 H 0.999185 0.487346 0.082247
C38_2 C 0.7406(3) 0.4979(3) 0.2374(3)
H46_2 H 0.730941 0.474289 0.186252
H47_2 H 0.719465 0.463274 0.277991
H48_2 H 0.714544 0.549401 0.240239
C39_2 C 0.9717(3) 0.5765(2) 0.4137(2)
H49_2 H 0.951713 0.629785 0.423697
H50_2 H 0.952336 0.540582 0.454094
C40_2 C 0.9671(2) 0.5020(2) 0.1988(2)
C41_2 C 0.8848(2) 0.4901(2) 0.1885(2)
C42_2 C 0.8308(2) 0.5086(2) 0.2496(2)
C43_2 C 0.8599(2) 0.5382(2) 0.3213(2)
C44_2 C 0.9426(2) 0.5483(2) 0.3338(2)
C45_2 C 0.9960(2) 0.5304(2) 0.2721(2)
C47_2 C 0.8535(3) 0.4553(2) 0.1118(3)
H54_2 H 0.810803 0.417116 0.123041
H55_2 H 0.896468 0.426822 0.084766
C48_2 C 0.8024(3) 0.5581(2) 0.3876(3)
H56_2 H 0.750953 0.573954 0.365388
H57_2 H 0.823375 0.603285 0.417783
C50_2 C 0.8150(2) 0.5980(2) 0.0728(2)
H59_2 H 0.832124 0.624420 0.118468
C53_2 C 0.7561(2) 0.4272(2) 0.5439(2)
H62_2 H 0.739022 0.416051 0.595340
C54_2 C 0.7936(2) 0.4108(2) 0.4262(2)
H63_2 H 0.808662 0.388084 0.377955
N22_2 N 0.79080(18) 0.48853(17) 0.44119(18)
N23_2 N 0.7671(2) 0.5012(2) 0.51736(19)
N25_2 N 0.8222(2) 0.5199(2) 0.05974(18)
N27_2 N 0.78002(19) 0.63297(19) 0.01151(16)
H64_2 H 0.430040 0.979240 0.134260
H69_2 H 0.785456 0.950599 0.240239
C57_2 C 0.5283(3) 0.9235(2) 0.4137(2)
H70_2 H 0.548287 0.870215 0.423697
H71_2 H 0.547664 0.959418 0.454094
H72_2 H 0.470554 0.922891 0.414313
C58_2 C 0.5329(2) 0.9980(2) 0.1988(2)
C60_2 C 0.6692(2) 0.9914(2) 0.2496(2)
C61_2 C 0.6401(2) 0.9618(2) 0.3213(2)
C62_2 C 0.5574(2) 0.9517(2) 0.3338(2)
C63_2 C 0.5040(2) 0.9696(2) 0.2721(2)
C64_2 C 0.4141(2) 0.9643(2) 0.2865(2)
H73_2 H 0.402635 0.922257 0.324816
H74_2 H 0.386575 0.951179 0.237329
C66_2 C 0.6976(3) 0.9419(2) 0.3876(3)
H77_2 H 0.749047 0.926046 0.365388
H78_2 H 0.676625 0.896715 0.417783
C68_2 C 0.6850(2) 0.9020(2) 0.0728(2)
H80_2 H 0.667876 0.875580 0.118468
N32_2 N 0.7329(2) 0.9988(2) 0.51736(19)
N34_2 N 0.6778(2) 0.9801(2) 0.05974(18)
N36_2 N 0.71998(19) 0.86703(19) 0.01151(16)
C13_2 C 0.5716(3) 0.7331(3) 0.9612(2)
H16_2 H 0.578119 0.757490 0.911938
N8_2 N 0.5021(2) 0.7085(3) 0.9877(2)
C31_2 C 0.9284(3) 0.7669(3) 0.9612(2)
H37_2 H 0.921881 0.742510 0.911938
N17_2 N 0.9979(2) 0.7915(3) 0.9877(2)
C49_2 C 0.7669(3) 0.5716(3) 0.9612(2)
H58_2 H 0.742510 0.578119 0.911938
N26_2 N 0.7915(3) 0.5021(2) 0.9877(2)
C67_2 C 0.7331(3) 0.9284(3) 0.9612(2)
H79_2 H 0.757490 0.921881 0.911938
N35_2 N 0.7085(3) 0.9979(2) 0.9877(2)
loop_
_geom_bond_atom_site_label_1
_geom_bond_atom_site_label_2
_geom_bond_site_symmetry_1
_geom_bond_site_symmetry_2
C13 H16 1_555 1_555
N8 C13 1_555 1_555
C31 H37 1_555 1_555
N17 C31 1_555 1_555
C49 H58 1_555 1_555
N26 C49 1_555 1_555
C67 H79 1_555 1_555
N35 C67 1_555 1_555
Cu7 Br1 1_555 1_555
C1 H1 1_555 1_555
H2 C1 1_555 1_555
H3 C1 1_555 1_555
C2 H4 1_555 1_555
H5 C2 1_555 1_555
H6 C2 1_555 1_555
C3 H7 1_555 1_555
H8 C3 1_555 1_555
H9 C3 1_555 1_555
C4 C1 1_555 1_555
C5 C4 1_555 1_555
C6 C2 1_555 1_555
C7 C6 1_555 1_555
C8 C3 1_555 1_555
C9 C4 1_555 1_555
C10 C9 1_555 1_555
H10 C10 1_555 1_555
H11 C10 1_555 1_555
C11 C5 1_555 1_555
H12 C11 1_555 1_555
H13 C11 1_555 1_555
C12 C7 1_555 1_555
H14 C12 1_555 1_555
H15 C12 1_555 1_555
C14 H17 1_555 1_555
C15 H18 1_555 1_555
C16 H19 1_555 1_555
C17 H20 1_555 1_555
C18 H21 1_555 1_555
Cu1 N3 1_555 1_555
Cu2 N6 1_555 1_555
Cu3 N9 1_555 1_555
N1 C10 1_555 1_555
N2 C15 1_555 1_555
N3 C15 1_555 1_555
N4 C12 1_555 1_555
N5 C17 1_555 1_555
N6 C17 1_555 1_555
N7 C11 1_555 1_555
C21 H28 1_555 1_555
H29 C21 1_555 1_555
C25 C24 1_555 1_555
C26 C21 1_555 1_555
C27 C22 1_555 1_555
C30 C25 1_555 1_555
H35 C30 1_555 1_555
H36 C30 1_555 1_555
C32 H38 1_555 1_555
N18 Cu3 1_555 1_555
C38 H46 1_555 1_555
H47 C38 1_555 1_555
H48 C38 1_555 1_555
C39 H49 1_555 1_555
H50 C39 1_555 1_555
C41 C40 1_555 1_555
C42 C38 1_555 1_555
C43 C42 1_555 1_555
C44 C39 1_555 1_555
C45 C40 1_555 1_555
C47 C41 1_555 1_555
H54 C47 1_555 1_555
H55 C47 1_555 1_555
C48 C43 1_555 1_555
H56 C48 1_555 1_555
H57 C48 1_555 1_555
C50 H59 1_555 1_555
C53 H62 1_555 1_555
C54 H63 1_555 1_555
N22 C48 1_555 1_555
N23 C53 1_555 1_555
N24 C53 1_555 1_555
N25 C47 1_555 1_555
N27 Cu3 1_555 1_555
C57 H70 1_555 1_555
H71 C57 1_555 1_555
H72 C57 1_555 1_555
C61 C60 1_555 1_555
C62 C57 1_555 1_555
C63 C58 1_555 1_555
C64 C63 1_555 1_555
H73 C64 1_555 1_555
H74 C64 1_555 1_555
C66 C61 1_555 1_555
H77 C66 1_555 1_555
H78 C66 1_555 1_555
C68 H80 1_555 1_555
N36 Cu3 1_555 1_555
Br2 Cu1 1_555 1_555
Cu10 N24 1_555 1_555
N37 Cu1 1_555 1_555
N38 Cu1 1_555 1_555
N39 Cu1 1_555 1_555
N40 Cu2 1_555 1_555
N41 Cu2 1_555 1_555
N42 Cu2 1_555 1_555
C5 C6 1_555 1_555
C7 C8 1_555 1_555
C8 C9 1_555 1_555
C14 N7 1_555 1_555
C14 N9 1_555 1_555
C16 N1 1_555 1_555
C16 N3 1_555 1_555
C18 N4 1_555 1_555
C18 N6 1_555 1_555
N1 N2 1_555 1_555
N4 N5 1_555 1_555
C25 C26 1_555 1_555
C26 C27 1_555 1_555
C32 N16 1_555 1_555
C32 N18 1_555 1_555
C41 C42 1_555 1_555
C43 C44 1_555 1_555
C44 C45 1_555 1_555
C50 N25 1_555 1_555
C50 N27 1_555 1_555
C54 N22 1_555 1_555
C54 N24 1_555 1_555
N22 N23 1_555 1_555
C61 C62 1_555 1_555
C62 C63 1_555 1_555
C68 N34 1_555 1_555
C68 N36 1_555 1_555
H31 C28 1_555 1_555
H32 C28 1_555 1_555
H65 C55 1_555 1_555
H66 C55 1_555 1_555
C56 H67 1_555 1_555
H68 C56 1_555 1_555
C65 C59 1_555 1_555
H75 C65 1_555 1_555
H76 C65 1_555 1_555
C69 H81 1_555 1_555
C70 H82 1_555 1_555
C71 H83 1_555 1_555
C72 H84 1_555 1_555
N29 C69 1_555 1_555
N39 C69 1_555 1_555
N33 C71 1_555 1_555
Cu10 N33 1_555 1_555
C70 N28 1_555 1_555
C70 N39 1_555 1_555
C72 N31 1_555 1_555
C72 N33 1_555 1_555
N28 N29 1_555 1_555
C20 H25 1_555 1_555
H26 C20 1_555 1_555
C29 C23 1_555 1_555
H33 C29 1_555 1_555
H34 C29 1_555 1_555
C35 H41 1_555 1_555
C36 H42 1_555 1_555
N40 C35 1_555 1_555
C37 H43 1_555 1_555
H44 C37 1_555 1_555
H52 C46 1_555 1_555
H53 C46 1_555 1_555
C51 H60 1_555 1_555
C52 H61 1_555 1_555
N19 C46 1_555 1_555
N20 C51 1_555 1_555
N38 C51 1_555 1_555
C36 N13 1_555 1_555
C36 N40 1_555 1_555
C52 N19 1_555 1_555
C52 N38 1_555 1_555
N19 N20 1_555 1_555
H23 C19 1_555 1_555
C33 H39 1_555 1_555
C34 H40 1_555 1_555
N11 C33 1_555 1_555
N37 C33 1_555 1_555
C34 N10 1_555 1_555
C34 N37 1_555 1_555
N10 N11 1_555 1_555
N41_2 Cu10 1_555 1_555
N42_2 Cu10 1_555 1_555
H23_2 C19_2 1_555 1_555
C33_2 H39_2 1_555 1_555
C34_2 H40_2 1_555 1_555
N11_2 C33_2 1_555 1_555
N12 C33_2 1_555 1_555
Cu7 N12 1_555 1_555
C34_2 N10_2 1_555 1_555
C34_2 N12 1_555 1_555
N10_2 N11_2 1_555 1_555
C20_2 H25_2 1_555 1_555
H26_2 C20_2 1_555 1_555
C29_2 C23_2 1_555 1_555
H33_2 C29_2 1_555 1_555
H34_2 C29_2 1_555 1_555
C35_2 H41_2 1_555 1_555
C36_2 H42_2 1_555 1_555
N41_2 C35_2 1_555 1_555
C37_2 H43_2 1_555 1_555
H44_2 C37_2 1_555 1_555
H52_2 C46_2 1_555 1_555
H53_2 C46_2 1_555 1_555
C51_2 H60_2 1_555 1_555
C52_2 H61_2 1_555 1_555
N19_2 C46_2 1_555 1_555
N20_2 C51_2 1_555 1_555
N21 C51_2 1_555 1_555
Cu7 N21 1_555 1_555
C36_2 N13_2 1_555 1_555
C36_2 N41_2 1_555 1_555
C52_2 N19_2 1_555 1_555
C52_2 N21 1_555 1_555
N19_2 N20_2 1_555 1_555
H31_2 C28_2 1_555 1_555
H32_2 C28_2 1_555 1_555
H65_2 C55_2 1_555 1_555
H66_2 C55_2 1_555 1_555
C56_2 H67_2 1_555 1_555
H68_2 C56_2 1_555 1_555
C65_2 C59_2 1_555 1_555
H75_2 C65_2 1_555 1_555
H76_2 C65_2 1_555 1_555
C69_2 H81_2 1_555 1_555
C70_2 H82_2 1_555 1_555
C71_2 H83_2 1_555 1_555
C72_2 H84_2 1_555 1_555
N29_2 C69_2 1_555 1_555
N30 C69_2 1_555 1_555
N42 C71_2 1_555 1_555
Cu7 N30 1_555 1_555
C70_2 N28_2 1_555 1_555
C70_2 N30 1_555 1_555
C72_2 N31_2 1_555 1_555
C72_2 N42 1_555 1_555
N28_2 N29_2 1_555 1_555
C1_2 H1_2 1_555 1_555
H2_2 C1_2 1_555 1_555
H3_2 C1_2 1_555 1_555
C2_2 H4_2 1_555 1_555
H5_2 C2_2 1_555 1_555
H6_2 C2_2 1_555 1_555
C3_2 H7_2 1_555 1_555
H8_2 C3_2 1_555 1_555
H9_2 C3_2 1_555 1_555
C4_2 C1_2 1_555 1_555
C5_2 C4_2 1_555 1_555
C6_2 C2_2 1_555 1_555
C7_2 C6_2 1_555 1_555
C8_2 C3_2 1_555 1_555
C9_2 C4_2 1_555 1_555
C10_2 C9_2 1_555 1_555
H10_2 C10_2 1_555 1_555
H11_2 C10_2 1_555 1_555
C11_2 C5_2 1_555 1_555
H12_2 C11_2 1_555 1_555
H13_2 C11_2 1_555 1_555
C12_2 C7_2 1_555 1_555
H14_2 C12_2 1_555 1_555
H15_2 C12_2 1_555 1_555
C14_2 H17_2 1_555 1_555
C15_2 H18_2 1_555 1_555
C16_2 H19_2 1_555 1_555
C17_2 H20_2 1_555 1_555
C18_2 H21_2 1_555 1_555
Cu7 N3_2 1_555 1_555
Cu3_2 N9_2 1_555 1_555
N1_2 C10_2 1_555 1_555
N2_2 C15_2 1_555 1_555
N3_2 C15_2 1_555 1_555
N4_2 C12_2 1_555 1_555
N5_2 C17_2 1_555 1_555
N42_2 C17_2 1_555 1_555
N7_2 C11_2 1_555 1_555
C21_2 H28_2 1_555 1_555
H29_2 C21_2 1_555 1_555
C25_2 C24_2 1_555 1_555
C26_2 C21_2 1_555 1_555
C27_2 C22_2 1_555 1_555
C30_2 C25_2 1_555 1_555
H35_2 C30_2 1_555 1_555
H36_2 C30_2 1_555 1_555
C32_2 H38_2 1_555 1_555
N18_2 Cu3_2 1_555 1_555
C38_2 H46_2 1_555 1_555
H47_2 C38_2 1_555 1_555
H48_2 C38_2 1_555 1_555
C39_2 H49_2 1_555 1_555
H50_2 C39_2 1_555 1_555
C41_2 C40_2 1_555 1_555
C42_2 C38_2 1_555 1_555
C43_2 C42_2 1_555 1_555
C44_2 C39_2 1_555 1_555
C45_2 C40_2 1_555 1_555
C47_2 C41_2 1_555 1_555
H54_2 C47_2 1_555 1_555
H55_2 C47_2 1_555 1_555
C48_2 C43_2 1_555 1_555
H56_2 C48_2 1_555 1_555
H57_2 C48_2 1_555 1_555
C50_2 H59_2 1_555 1_555
C53_2 H62_2 1_555 1_555
C54_2 H63_2 1_555 1_555
N22_2 C48_2 1_555 1_555
N23_2 C53_2 1_555 1_555
N41 C53_2 1_555 1_555
N25_2 C47_2 1_555 1_555
N27_2 Cu3_2 1_555 1_555
C57_2 H70_2 1_555 1_555
H71_2 C57_2 1_555 1_555
H72_2 C57_2 1_555 1_555
C61_2 C60_2 1_555 1_555
C62_2 C57_2 1_555 1_555
C63_2 C58_2 1_555 1_555
C64_2 C63_2 1_555 1_555
H73_2 C64_2 1_555 1_555
H74_2 C64_2 1_555 1_555
C66_2 C61_2 1_555 1_555
H77_2 C66_2 1_555 1_555
H78_2 C66_2 1_555 1_555
C68_2 H80_2 1_555 1_555
N36_2 Cu3_2 1_555 1_555
C5_2 C6_2 1_555 1_555
C7_2 C8_2 1_555 1_555
C8_2 C9_2 1_555 1_555
C14_2 N7_2 1_555 1_555
C14_2 N9_2 1_555 1_555
C16_2 N1_2 1_555 1_555
C16_2 N3_2 1_555 1_555
C18_2 N4_2 1_555 1_555
C18_2 N42_2 1_555 1_555
N1_2 N2_2 1_555 1_555
N4_2 N5_2 1_555 1_555
C25_2 C26_2 1_555 1_555
C26_2 C27_2 1_555 1_555
C32_2 N16_2 1_555 1_555
C32_2 N18_2 1_555 1_555
C41_2 C42_2 1_555 1_555
C43_2 C44_2 1_555 1_555
C44_2 C45_2 1_555 1_555
C50_2 N25_2 1_555 1_555
C50_2 N27_2 1_555 1_555
C54_2 N22_2 1_555 1_555
C54_2 N41 1_555 1_555
N22_2 N23_2 1_555 1_555
C61_2 C62_2 1_555 1_555
C62_2 C63_2 1_555 1_555
C68_2 N34_2 1_555 1_555
C68_2 N36_2 1_555 1_555
C13_2 H16_2 1_555 1_555
N8_2 C13_2 1_555 1_555
C31_2 H37_2 1_555 1_555
N17_2 C31_2 1_555 1_555
C49_2 H58_2 1_555 1_555
N26_2 C49_2 1_555 1_555
C67_2 H79_2 1_555 1_555
N35_2 C67_2 1_555 1_555

#END
