
###############################################################################
#
# This file contains modified crystal structure data generated from the
# MOF subset of the Cambridge Structural Database (CSD) v543 
# hosted by the Cambridge Crystallographic Data Centre (CCDC).
#
# This work is licensed under the Creative Commons
# Attribution-NonCommercial-ShareAlike 4.0 International License.
# To view a copy of this license, visit
# http://creativecommons.org/licenses/by-nc-sa/4.0/
# or send a letter to
# Creative Commons, PO Box 1866, Mountain View, CA 94042, USA.
#
# CIF created using the CSD Python API on 29 September 2022
# The structure has been converted into the P1 space group
# The structure has a 3D framework
# The original CSD entry WAMCAS14 is in the orthorhombic crystal system
# The original CSD entry WAMCAS14 is in a Sohncke space group
# The framework has been calculated to contain at least 10.0% void space
# The void calculation uses a probe of radius 1.32A, grid spacing 0.4
#
###############################################################################

data_WAMCAS14
_chemical_formula_moiety         '(C224 H144 Au16 Fe8 N76 O24)n'
_symmetry_cell_setting           triclinic
_symmetry_space_group_name_H-M   'P 1'
_symmetry_Int_Tables_number      1
_space_group_name_Hall           'P 1'
loop_
_symmetry_equiv_pos_site_id
_symmetry_equiv_pos_as_xyz
1 x,y,z
_cell_length_a                   10.472(2)
_cell_length_b                   30.641(6)
_cell_length_c                   34.155(7)
_cell_angle_alpha                90
_cell_angle_beta                 90
_cell_angle_gamma                90
_cell_volume                     10959.4
loop_
_atom_site_label
_atom_site_type_symbol
_atom_site_fract_x
_atom_site_fract_y
_atom_site_fract_z
N2 N 0.0386(13) 0.7282(5) 0.5810(4)
Fe2 Fe 0.24215(18) 0.72137(6) 0.57964(5)
Au1 Au 0.74180(5) 0.71977(2) 0.57830(2)
Au2 Au 0.29045(13) 0.85659(3) 0.48729(3)
N1 N 0.4445(12) 0.7159(5) 0.5779(4)
N3 N 0.2588(15) 0.7812(4) 0.5470(4)
N4 N 0.2300(14) 0.6874(4) 0.5230(3)
O1 O 0.1172(17) 0.6723(4) 0.3784(3)
N5 N 0.2173(15) 0.3406(4) 0.3896(3)
N6 N 0.2407(15) 0.7439(5) 0.1351(3)
C1 C 0.9329(14) 0.7259(6) 0.5798(5)
O2 O 0.147(2) 0.6011(5) 0.2091(4)
C2 C 0.552(2) 0.7162(5) 0.5778(5)
C3 C 0.268(2) 0.8080(6) 0.5258(6)
O3 O 0.314(3) 0.4713(5) 0.2950(5)
N7 N 0.2208(17) 0.6220(5) 0.4165(4)
H1 H 0.259588 0.596882 0.416612
N8 N 0.2221(19) 0.6644(5) 0.2353(4)
H2 H 0.248944 0.676421 0.256846
C4 C 0.313(2) 0.6544(5) 0.5134(5)
H3 H 0.374040 0.645366 0.531702
N9 N 0.175(2) 0.4682(5) 0.3473(5)
H4 H 0.117554 0.483532 0.359369
C5 C 0.198(2) 0.5618(5) 0.3497(5)
H5 H 0.201826 0.548712 0.374559
C6 C 0.1466(18) 0.6972(5) 0.4970(4)
H6 H 0.092670 0.720984 0.502507
C7 C 0.1285(17) 0.6760(6) 0.4613(4)
H7 H 0.059000 0.682489 0.444879
C8 C 0.1567(17) 0.7113(7) 0.1375(5)
H8 H 0.100504 0.707166 0.116380
C9 C 0.188(3) 0.4256(5) 0.3587(5)
C10 C 0.298(2) 0.3572(7) 0.3628(5)
H9 H 0.368308 0.339915 0.355277
C11 C 0.171(2) 0.6264(5) 0.3109(4)
H10 H 0.156668 0.656631 0.309079
C12 C 0.2186(17) 0.6449(5) 0.4515(4)
C13 C 0.308(2) 0.6356(7) 0.4798(5)
H11 H 0.369116 0.614137 0.474258
C14 C 0.1681(18) 0.6349(5) 0.3821(4)
C15 C 0.176(2) 0.6072(5) 0.3466(4)
C16 C 0.224(2) 0.6897(6) 0.2014(4)
C17 C 0.312(2) 0.7253(6) 0.1997(4)
H12 H 0.369438 0.730920 0.220183
C18 C 0.286(2) 0.3973(6) 0.3459(6)
H13 H 0.341907 0.406020 0.325933
C19 C 0.129(2) 0.3703(6) 0.4023(7)
H14 H 0.076301 0.361808 0.423214
C20 C 0.245(3) 0.4896(7) 0.3185(5)
C21 C 0.1810(17) 0.6215(5) 0.2371(4)
C22 C 0.214(2) 0.5358(5) 0.3157(5)
C23 C 0.112(2) 0.4096(5) 0.3881(6)
H15 H 0.045699 0.427048 0.398246
C24 C 0.204(3) 0.5569(6) 0.2800(5)
H16 H 0.210168 0.540422 0.256842
C25 C 0.185(2) 0.6019(5) 0.2772(4)
C26 C 0.1466(18) 0.6828(6) 0.1696(4)
H17 H 0.088236 0.659494 0.169195
C27 C 0.309(2) 0.7506(6) 0.1667(5)
H18 H 0.361591 0.775512 0.166729
C28 C 0.318(4) 0.9069(11) 0.4505(8)
N10 N 0.332(5) 0.9406(12) 0.4364(11)
Fe3 Fe 0.24215(18) 0.27863(6) 0.42036(5)
Fe4 Fe 0.25785(18) 0.77863(6) 0.07964(5)
N12 N 0.2173(15) 0.6594(4) 0.6104(3)
N13 N 0.2593(15) 0.7561(5) 0.6351(3)
N2_2 N 0.0386(13) 0.2718(5) 0.4190(4)
Au1_2 Au 0.74180(5) 0.28023(2) 0.42170(2)
Au2_2 Au 0.29045(13) 0.14341(3) 0.51271(3)
N1_2 N 0.4445(12) 0.2841(5) 0.4221(4)
N3_2 N 0.2588(15) 0.2188(4) 0.4530(4)
N4_2 N 0.2300(14) 0.3126(4) 0.4770(3)
O1_2 O 0.1172(17) 0.3277(4) 0.6216(3)
N6_2 N 0.2407(15) 0.2561(5) 0.8649(3)
C1_2 C 0.9329(14) 0.2741(6) 0.4202(5)
O2_2 O 0.147(2) 0.3989(5) 0.7909(4)
C2_2 C 0.552(2) 0.2838(5) 0.4222(5)
C3_2 C 0.268(2) 0.1920(6) 0.4742(6)
O3_2 O 0.314(3) 0.5287(5) 0.7050(5)
N7_2 N 0.2208(17) 0.3780(5) 0.5835(4)
H1_2 H 0.259588 0.403118 0.583388
N8_2 N 0.2221(19) 0.3356(5) 0.7647(4)
H2_2 H 0.248944 0.323579 0.743154
C4_2 C 0.313(2) 0.3456(5) 0.4866(5)
H3_2 H 0.374040 0.354634 0.468298
N9_2 N 0.175(2) 0.5318(5) 0.6527(5)
H4_2 H 0.117554 0.516468 0.640631
C5_2 C 0.198(2) 0.4382(5) 0.6503(5)
H5_2 H 0.201826 0.451288 0.625441
C6_2 C 0.1466(18) 0.3028(5) 0.5030(4)
H6_2 H 0.092670 0.279016 0.497493
C7_2 C 0.1285(17) 0.3240(6) 0.5387(4)
H7_2 H 0.059000 0.317511 0.555121
C8_2 C 0.1567(17) 0.2887(7) 0.8625(5)
H8_2 H 0.100504 0.292834 0.883620
C9_2 C 0.188(3) 0.5744(5) 0.6413(5)
C10_2 C 0.298(2) 0.6428(7) 0.6372(5)
H9_2 H 0.368308 0.660085 0.644723
C11_2 C 0.171(2) 0.3736(5) 0.6891(4)
H10_2 H 0.156668 0.343369 0.690921
C12_2 C 0.2186(17) 0.3551(5) 0.5485(4)
C13_2 C 0.308(2) 0.3644(7) 0.5202(5)
H11_2 H 0.369116 0.385863 0.525742
C14_2 C 0.1681(18) 0.3651(5) 0.6179(4)
C15_2 C 0.176(2) 0.3928(5) 0.6534(4)
C16_2 C 0.224(2) 0.3103(6) 0.7986(4)
C17_2 C 0.312(2) 0.2747(6) 0.8003(4)
H12_2 H 0.369438 0.269080 0.779817
C18_2 C 0.286(2) 0.6027(6) 0.6541(6)
H13_2 H 0.341907 0.593980 0.674067
C19_2 C 0.129(2) 0.6297(6) 0.5977(7)
H14_2 H 0.076301 0.638192 0.576786
C20_2 C 0.245(3) 0.5104(7) 0.6815(5)
C21_2 C 0.1810(17) 0.3785(5) 0.7629(4)
C22_2 C 0.214(2) 0.4642(5) 0.6843(5)
C23_2 C 0.112(2) 0.5904(5) 0.6119(6)
H15_2 H 0.045699 0.572952 0.601754
C24_2 C 0.204(3) 0.4431(6) 0.7200(5)
H16_2 H 0.210168 0.459578 0.743158
C25_2 C 0.185(2) 0.3981(5) 0.7228(4)
C26_2 C 0.1466(18) 0.3172(6) 0.8304(4)
H17_2 H 0.088236 0.340506 0.830805
C27_2 C 0.309(2) 0.2494(6) 0.8333(5)
H18_2 H 0.361591 0.224488 0.833271
C28_2 C 0.318(4) 0.0931(11) 0.5495(8)
N10_2 N 0.332(5) 0.0594(12) 0.5636(11)
Fe4_2 Fe 0.25785(18) 0.22137(6) 0.92036(5)
N13_2 N 0.2593(15) 0.2439(5) 0.3649(3)
N5_2 N 0.2827(15) 0.1594(4) 0.8896(3)
O3_3 O 0.186(3) 0.0287(5) 0.7950(5)
N9_3 N 0.325(2) 0.0318(5) 0.8473(5)
H4_3 H 0.382446 0.016468 0.859369
C9_3 C 0.312(3) 0.0744(5) 0.8587(5)
C10_3 C 0.202(2) 0.1428(7) 0.8628(5)
H9_3 H 0.131692 0.160085 0.855277
C18_3 C 0.214(2) 0.1027(6) 0.8459(6)
H13_3 H 0.158093 0.093980 0.825933
C19_3 C 0.371(2) 0.1297(6) 0.9023(7)
H14_3 H 0.423699 0.138192 0.923214
C20_3 C 0.255(3) 0.0104(7) 0.8185(5)
C23_3 C 0.388(2) 0.0904(5) 0.8881(6)
H15_3 H 0.454301 0.072952 0.898246
N1_3 N 0.0555(12) 0.7841(5) 0.0779(4)
N3_3 N 0.2412(15) 0.7188(4) 0.0470(4)
N4_3 N 0.2700(14) 0.8126(4) 0.0230(3)
C3_3 C 0.232(2) 0.6920(6) 0.0258(6)
C4_3 C 0.187(2) 0.8456(5) 0.0134(5)
H3_3 H 0.125960 0.854634 0.031702
H6_3 H 0.407330 0.779016 0.002507
N11 N 0.4614(13) 0.7718(5) 0.0810(4)
N12_2 N 0.2827(15) 0.8406(4) 0.1104(3)
Au2_3 Au 0.20955(13) 0.64341(3) 0.98729(3)
O1_3 O 0.3828(17) 0.8277(4) 0.8784(3)
O2_3 O 0.353(2) 0.8989(5) 0.7091(4)
N7_3 N 0.2792(17) 0.8780(5) 0.9165(4)
H1_3 H 0.240412 0.903118 0.916612
N8_3 N 0.2779(19) 0.8356(5) 0.7353(4)
H2_3 H 0.251056 0.823579 0.756846
C5_3 C 0.302(2) 0.9382(5) 0.8497(5)
H5_3 H 0.298174 0.951288 0.874559
C6_3 C 0.3534(18) 0.8028(5) 0.9970(4)
C7_3 C 0.3715(17) 0.8240(6) 0.9613(4)
H7_3 H 0.441000 0.817511 0.944879
C8_3 C 0.3433(17) 0.7887(7) 0.6375(5)
H8_3 H 0.399496 0.792834 0.616380
C11_3 C 0.329(2) 0.8736(5) 0.8109(4)
H10_3 H 0.343332 0.843369 0.809079
C12_3 C 0.2814(17) 0.8551(5) 0.9515(4)
C13_3 C 0.192(2) 0.8644(7) 0.9798(5)
H11_3 H 0.130884 0.885863 0.974258
C14_3 C 0.3319(18) 0.8651(5) 0.8821(4)
C15_3 C 0.324(2) 0.8928(5) 0.8466(4)
C16_3 C 0.276(2) 0.8103(6) 0.7014(4)
C17_3 C 0.188(2) 0.7747(6) 0.6997(4)
H12_3 H 0.130562 0.769080 0.720183
C21_3 C 0.3190(17) 0.8785(5) 0.7371(4)
C22_3 C 0.286(2) 0.9642(5) 0.8157(5)
C24_3 C 0.296(3) 0.9431(6) 0.7800(5)
H16_3 H 0.289832 0.959578 0.756842
C25_3 C 0.315(2) 0.8981(5) 0.7772(4)
C26_3 C 0.3534(18) 0.8172(6) 0.6696(4)
H17_3 H 0.411764 0.840506 0.669195
C27_3 C 0.191(2) 0.7494(6) 0.6667(5)
H18_3 H 0.138409 0.724488 0.666729
C28_3 C 0.182(4) 0.5931(11) 0.9505(8)
N10_3 N 0.168(5) 0.5594(12) 0.9364(11)
Au1_3 Au 0.75820(5) 0.78023(2) 0.07830(2)
C1_3 C 0.5671(14) 0.7741(6) 0.0798(5)
C2_3 C 0.948(2) 0.7838(5) 0.0778(5)
Au2_4 Au 0.20955(13) 0.35659(3) 0.01271(3)
O1_4 O 0.3828(17) 0.1723(4) 0.1216(3)
O2_4 O 0.353(2) 0.1011(5) 0.2909(4)
N7_4 N 0.2792(17) 0.1220(5) 0.0835(4)
H1_4 H 0.240412 0.096882 0.083388
N8_4 N 0.2779(19) 0.1644(5) 0.2647(4)
H2_4 H 0.251056 0.176421 0.243154
C5_4 C 0.302(2) 0.0618(5) 0.1503(5)
H5_4 H 0.298174 0.048712 0.125441
C6_4 C 0.3534(18) 0.1972(5) 0.0030(4)
C7_4 C 0.3715(17) 0.1760(6) 0.0387(4)
H7_4 H 0.441000 0.182489 0.055121
C8_4 C 0.3433(17) 0.2113(7) 0.3625(5)
H8_4 H 0.399496 0.207166 0.383620
C11_4 C 0.329(2) 0.1264(5) 0.1891(4)
H10_4 H 0.343332 0.156631 0.190921
C12_4 C 0.2814(17) 0.1449(5) 0.0485(4)
C13_4 C 0.192(2) 0.1356(7) 0.0202(5)
H11_4 H 0.130884 0.114137 0.025742
C14_4 C 0.3319(18) 0.1349(5) 0.1179(4)
C15_4 C 0.324(2) 0.1072(5) 0.1534(4)
C16_4 C 0.276(2) 0.1897(6) 0.2986(4)
C17_4 C 0.188(2) 0.2253(6) 0.3003(4)
H12_4 H 0.130562 0.230920 0.279817
C21_4 C 0.3190(17) 0.1215(5) 0.2629(4)
C22_4 C 0.286(2) 0.0358(5) 0.1843(5)
C24_4 C 0.296(3) 0.0569(6) 0.2200(5)
H16_4 H 0.289832 0.040422 0.243158
C25_4 C 0.315(2) 0.1019(5) 0.2228(4)
C26_4 C 0.3534(18) 0.1828(6) 0.3304(4)
H17_4 H 0.411764 0.159494 0.330805
C27_4 C 0.191(2) 0.2506(6) 0.3333(5)
H18_4 H 0.138409 0.275512 0.333271
C28_4 C 0.182(4) 0.4069(11) 0.0495(8)
N10_4 N 0.168(5) 0.4406(12) 0.0636(11)
N1_4 N 0.0555(12) 0.2159(5) 0.9221(4)
N3_4 N 0.2412(15) 0.2812(4) 0.9530(4)
N4_4 N 0.2700(14) 0.1874(4) 0.9770(3)
C3_4 C 0.232(2) 0.3080(6) 0.9742(6)
C4_4 C 0.187(2) 0.1544(5) 0.9866(5)
H3_4 H 0.125960 0.145366 0.968298
H6_4 H 0.407330 0.220984 0.997493
N11_2 N 0.4614(13) 0.2282(5) 0.9190(4)
O3_4 O 0.186(3) 0.9713(5) 0.2050(5)
N9_4 N 0.325(2) 0.9682(5) 0.1527(5)
H4_4 H 0.382446 0.983532 0.140631
C9_4 C 0.312(3) 0.9256(5) 0.1413(5)
C10_4 C 0.202(2) 0.8572(7) 0.1372(5)
H9_4 H 0.131692 0.839915 0.144723
C18_4 C 0.214(2) 0.8973(6) 0.1541(6)
H13_4 H 0.158093 0.906020 0.174067
C19_4 C 0.371(2) 0.8703(6) 0.0977(7)
H14_4 H 0.423699 0.861808 0.076786
C20_4 C 0.255(3) 0.9896(7) 0.1815(5)
C23_4 C 0.388(2) 0.9096(5) 0.1119(6)
H15_4 H 0.454301 0.927048 0.101754
Au1_4 Au 0.75820(5) 0.21977(2) 0.92170(2)
C1_4 C 0.5671(14) 0.2259(6) 0.9202(5)
C2_4 C 0.948(2) 0.2162(5) 0.9222(5)
Au1_5 Au 0.25820(5) 0.28023(2) 0.07830(2)
Fe1 Fe 0.75785(18) 0.27863(6) 0.07964(5)
N1_5 N 0.5555(12) 0.2841(5) 0.0779(4)
N3_5 N 0.7412(15) 0.2188(4) 0.0470(4)
N4_5 N 0.7700(14) 0.3126(4) 0.0230(3)
C1_5 C 0.0671(14) 0.2741(6) 0.0798(5)
C2_5 C 0.448(2) 0.2838(5) 0.0778(5)
C3_5 C 0.732(2) 0.1920(6) 0.0258(6)
C4_5 C 0.687(2) 0.3456(5) 0.0134(5)
H3_5 H 0.625960 0.354634 0.031702
H6_5 H 0.907330 0.279016 0.002507
N11_3 N 0.9614(13) 0.2718(5) 0.0810(4)
N12_3 N 0.7827(15) 0.3406(4) 0.1104(3)
N13_3 N 0.7407(15) 0.2439(5) 0.1351(3)
Au2_5 Au 0.70955(13) 0.14341(3) 0.98729(3)
O1_5 O 0.8828(17) 0.3277(4) 0.8784(3)
N5_3 N 0.7827(15) 0.6594(4) 0.8896(3)
N6_3 N 0.7593(15) 0.2561(5) 0.6351(3)
O2_5 O 0.853(2) 0.3989(5) 0.7091(4)
O3_5 O 0.686(3) 0.5287(5) 0.7950(5)
N7_5 N 0.7792(17) 0.3780(5) 0.9165(4)
H1_5 H 0.740412 0.403118 0.916612
N8_5 N 0.7779(19) 0.3356(5) 0.7353(4)
H2_5 H 0.751056 0.323579 0.756846
N9_5 N 0.825(2) 0.5318(5) 0.8473(5)
H4_5 H 0.882446 0.516468 0.859369
C5_5 C 0.802(2) 0.4382(5) 0.8497(5)
H5_5 H 0.798174 0.451288 0.874559
C6_5 C 0.8534(18) 0.3028(5) 0.9970(4)
C7_5 C 0.8715(17) 0.3240(6) 0.9613(4)
H7_5 H 0.941000 0.317511 0.944879
C8_5 C 0.8433(17) 0.2887(7) 0.6375(5)
H8_5 H 0.899496 0.292834 0.616380
C9_5 C 0.812(3) 0.5744(5) 0.8587(5)
C10_5 C 0.702(2) 0.6428(7) 0.8628(5)
H9_5 H 0.631692 0.660085 0.855277
C11_5 C 0.829(2) 0.3736(5) 0.8109(4)
H10_5 H 0.843332 0.343369 0.809079
C12_5 C 0.7814(17) 0.3551(5) 0.9515(4)
C13_5 C 0.692(2) 0.3644(7) 0.9798(5)
H11_5 H 0.630884 0.385863 0.974258
C14_5 C 0.8319(18) 0.3651(5) 0.8821(4)
C15_5 C 0.824(2) 0.3928(5) 0.8466(4)
C16_5 C 0.776(2) 0.3103(6) 0.7014(4)
C17_5 C 0.688(2) 0.2747(6) 0.6997(4)
H12_5 H 0.630562 0.269080 0.720183
C18_5 C 0.714(2) 0.6027(6) 0.8459(6)
H13_5 H 0.658093 0.593980 0.825933
C19_5 C 0.871(2) 0.6297(6) 0.9023(7)
H14_5 H 0.923699 0.638192 0.923214
C20_5 C 0.755(3) 0.5104(7) 0.8185(5)
C21_5 C 0.8190(17) 0.3785(5) 0.7371(4)
C22_5 C 0.786(2) 0.4642(5) 0.8157(5)
C23_5 C 0.888(2) 0.5904(5) 0.8881(6)
H15_5 H 0.954301 0.572952 0.898246
C24_5 C 0.796(3) 0.4431(6) 0.7800(5)
H16_5 H 0.789832 0.459578 0.756842
C25_5 C 0.815(2) 0.3981(5) 0.7772(4)
C26_5 C 0.8534(18) 0.3172(6) 0.6696(4)
H17_5 H 0.911764 0.340506 0.669195
C27_5 C 0.691(2) 0.2494(6) 0.6667(5)
H18_5 H 0.638409 0.224488 0.666729
C28_5 C 0.682(4) 0.0931(11) 0.9505(8)
N10_5 N 0.668(5) 0.0594(12) 0.9364(11)
Fe3_2 Fe 0.75785(18) 0.72137(6) 0.92036(5)
Fe4_3 Fe 0.74215(18) 0.22137(6) 0.57964(5)
Au2_6 Au 0.70955(13) 0.85659(3) 0.01271(3)
O1_6 O 0.8828(17) 0.6723(4) 0.1216(3)
N6_4 N 0.7593(15) 0.7439(5) 0.3649(3)
O2_6 O 0.853(2) 0.6011(5) 0.2909(4)
O3_6 O 0.686(3) 0.4713(5) 0.2050(5)
N7_6 N 0.7792(17) 0.6220(5) 0.0835(4)
H1_6 H 0.740412 0.596882 0.083388
N8_6 N 0.7779(19) 0.6644(5) 0.2647(4)
H2_6 H 0.751056 0.676421 0.243154
N9_6 N 0.825(2) 0.4682(5) 0.1527(5)
H4_6 H 0.882446 0.483532 0.140631
C5_6 C 0.802(2) 0.5618(5) 0.1503(5)
H5_6 H 0.798174 0.548712 0.125441
C6_6 C 0.8534(18) 0.6972(5) 0.0030(4)
C7_6 C 0.8715(17) 0.6760(6) 0.0387(4)
H7_6 H 0.941000 0.682489 0.055121
C8_6 C 0.8433(17) 0.7113(7) 0.3625(5)
H8_6 H 0.899496 0.707166 0.383620
C9_6 C 0.812(3) 0.4256(5) 0.1413(5)
C10_6 C 0.702(2) 0.3572(7) 0.1372(5)
H9_6 H 0.631692 0.339915 0.144723
C11_6 C 0.829(2) 0.6264(5) 0.1891(4)
H10_6 H 0.843332 0.656631 0.190921
C12_6 C 0.7814(17) 0.6449(5) 0.0485(4)
C13_6 C 0.692(2) 0.6356(7) 0.0202(5)
H11_6 H 0.630884 0.614137 0.025742
C14_6 C 0.8319(18) 0.6349(5) 0.1179(4)
C15_6 C 0.824(2) 0.6072(5) 0.1534(4)
C16_6 C 0.776(2) 0.6897(6) 0.2986(4)
C17_6 C 0.688(2) 0.7253(6) 0.3003(4)
H12_6 H 0.630562 0.730920 0.279817
C18_6 C 0.714(2) 0.3973(6) 0.1541(6)
H13_6 H 0.658093 0.406020 0.174067
C19_6 C 0.871(2) 0.3703(6) 0.0977(7)
H14_6 H 0.923699 0.361808 0.076786
C20_6 C 0.755(3) 0.4896(7) 0.1815(5)
C21_6 C 0.8190(17) 0.6215(5) 0.2629(4)
C22_6 C 0.786(2) 0.5358(5) 0.1843(5)
C23_6 C 0.888(2) 0.4096(5) 0.1119(6)
H15_6 H 0.954301 0.427048 0.101754
C24_6 C 0.796(3) 0.5569(6) 0.2200(5)
H16_6 H 0.789832 0.540422 0.243158
C25_6 C 0.815(2) 0.6019(5) 0.2228(4)
C26_6 C 0.8534(18) 0.6828(6) 0.3304(4)
H17_6 H 0.911764 0.659494 0.330805
C27_6 C 0.691(2) 0.7506(6) 0.3333(5)
H18_6 H 0.638409 0.775512 0.333271
C28_6 C 0.682(4) 0.9069(11) 0.0495(8)
N10_6 N 0.668(5) 0.9406(12) 0.0636(11)
Fe4_4 Fe 0.74215(18) 0.77863(6) 0.42036(5)
Au1_6 Au 0.25820(5) 0.71977(2) 0.92170(2)
N1_6 N 0.5555(12) 0.7159(5) 0.9221(4)
N3_6 N 0.7412(15) 0.7812(4) 0.9530(4)
N4_6 N 0.7700(14) 0.6874(4) 0.9770(3)
C1_6 C 0.0671(14) 0.7259(6) 0.9202(5)
C2_6 C 0.448(2) 0.7162(5) 0.9222(5)
C3_6 C 0.732(2) 0.8080(6) 0.9742(6)
C4_6 C 0.687(2) 0.6544(5) 0.9866(5)
H3_6 H 0.625960 0.645366 0.968298
H6_6 H 0.907330 0.720984 0.997493
N11_4 N 0.9614(13) 0.7282(5) 0.9190(4)
N13_4 N 0.7407(15) 0.7561(5) 0.8649(3)
Au1_7 Au 0.24180(5) 0.21977(2) 0.57830(2)
N2_3 N 0.5386(13) 0.2282(5) 0.5810(4)
C1_7 C 0.4329(14) 0.2259(6) 0.5798(5)
C2_7 C 0.052(2) 0.2162(5) 0.5778(5)
Au2_7 Au 0.79045(13) 0.35659(3) 0.48729(3)
N1_7 N 0.9445(12) 0.2159(5) 0.5779(4)
N3_7 N 0.7588(15) 0.2812(4) 0.5470(4)
N4_7 N 0.7300(14) 0.1874(4) 0.5230(3)
O1_7 O 0.6172(17) 0.1723(4) 0.3784(3)
O2_7 O 0.647(2) 0.1011(5) 0.2091(4)
C3_7 C 0.768(2) 0.3080(6) 0.5258(6)
N7_7 N 0.7208(17) 0.1220(5) 0.4165(4)
H1_7 H 0.759588 0.096882 0.416612
N8_7 N 0.7221(19) 0.1644(5) 0.2353(4)
H2_7 H 0.748944 0.176421 0.256846
C4_7 C 0.813(2) 0.1544(5) 0.5134(5)
H3_7 H 0.874040 0.145366 0.531702
C5_7 C 0.698(2) 0.0618(5) 0.3497(5)
H5_7 H 0.701826 0.048712 0.374559
C6_7 C 0.6466(18) 0.1972(5) 0.4970(4)
H6_7 H 0.592670 0.220984 0.502507
C7_7 C 0.6285(17) 0.1760(6) 0.4613(4)
H7_7 H 0.559000 0.182489 0.444879
C8_7 C 0.6567(17) 0.2113(7) 0.1375(5)
H8_7 H 0.600504 0.207166 0.116380
C11_7 C 0.671(2) 0.1264(5) 0.3109(4)
H10_7 H 0.656668 0.156631 0.309079
C12_7 C 0.7186(17) 0.1449(5) 0.4515(4)
C13_7 C 0.808(2) 0.1356(7) 0.4798(5)
H11_7 H 0.869116 0.114137 0.474258
C14_7 C 0.6681(18) 0.1349(5) 0.3821(4)
C15_7 C 0.676(2) 0.1072(5) 0.3466(4)
C16_7 C 0.724(2) 0.1897(6) 0.2014(4)
C17_7 C 0.812(2) 0.2253(6) 0.1997(4)
H12_7 H 0.869438 0.230920 0.220183
C21_7 C 0.6810(17) 0.1215(5) 0.2371(4)
C22_7 C 0.714(2) 0.0358(5) 0.3157(5)
C24_7 C 0.704(3) 0.0569(6) 0.2800(5)
H16_7 H 0.710168 0.040422 0.256842
C25_7 C 0.685(2) 0.1019(5) 0.2772(4)
C26_7 C 0.6466(18) 0.1828(6) 0.1696(4)
H17_7 H 0.588236 0.159494 0.169195
C27_7 C 0.809(2) 0.2506(6) 0.1667(5)
H18_7 H 0.861591 0.275512 0.166729
C28_7 C 0.818(4) 0.4069(11) 0.4505(8)
N10_7 N 0.832(5) 0.4406(12) 0.4364(11)
N12_4 N 0.7173(15) 0.1594(4) 0.6104(3)
N5_4 N 0.7173(15) 0.8406(4) 0.3896(3)
O3_7 O 0.814(3) 0.9713(5) 0.2950(5)
N9_7 N 0.675(2) 0.9682(5) 0.3473(5)
H4_7 H 0.617554 0.983532 0.359369
C9_7 C 0.688(3) 0.9256(5) 0.3587(5)
C10_7 C 0.798(2) 0.8572(7) 0.3628(5)
H9_7 H 0.868308 0.839915 0.355277
C18_7 C 0.786(2) 0.8973(6) 0.3459(6)
H13_7 H 0.841907 0.906020 0.325933
C19_7 C 0.629(2) 0.8703(6) 0.4023(7)
H14_7 H 0.576301 0.861808 0.423214
C20_7 C 0.745(3) 0.9896(7) 0.3185(5)
C23_7 C 0.612(2) 0.9096(5) 0.3881(6)
H15_7 H 0.545699 0.927048 0.398246
Au1_8 Au 0.24180(5) 0.78023(2) 0.42170(2)
N2_4 N 0.5386(13) 0.7718(5) 0.4190(4)
C1_8 C 0.4329(14) 0.7741(6) 0.4202(5)
C2_8 C 0.052(2) 0.7838(5) 0.4222(5)
O3_8 O 0.814(3) 0.0287(5) 0.7050(5)
N9_8 N 0.675(2) 0.0318(5) 0.6527(5)
H4_8 H 0.617554 0.016468 0.640631
C9_8 C 0.688(3) 0.0744(5) 0.6413(5)
C10_8 C 0.798(2) 0.1428(7) 0.6372(5)
H9_8 H 0.868308 0.160085 0.644723
C18_8 C 0.786(2) 0.1027(6) 0.6541(6)
H13_8 H 0.841907 0.093980 0.674067
C19_8 C 0.629(2) 0.1297(6) 0.5977(7)
H14_8 H 0.576301 0.138192 0.576786
C20_8 C 0.745(3) 0.0104(7) 0.6815(5)
C23_8 C 0.612(2) 0.0904(5) 0.6119(6)
H15_8 H 0.545699 0.072952 0.601754
Au2_8 Au 0.79045(13) 0.64341(3) 0.51271(3)
N1_8 N 0.9445(12) 0.7841(5) 0.4221(4)
N3_8 N 0.7588(15) 0.7188(4) 0.4530(4)
N4_8 N 0.7300(14) 0.8126(4) 0.4770(3)
O1_8 O 0.6172(17) 0.8277(4) 0.6216(3)
O2_8 O 0.647(2) 0.8989(5) 0.7909(4)
C3_8 C 0.768(2) 0.6920(6) 0.4742(6)
N7_8 N 0.7208(17) 0.8780(5) 0.5835(4)
H1_8 H 0.759588 0.903118 0.583388
N8_8 N 0.7221(19) 0.8356(5) 0.7647(4)
H2_8 H 0.748944 0.823579 0.743154
C4_8 C 0.813(2) 0.8456(5) 0.4866(5)
H3_8 H 0.874040 0.854634 0.468298
C5_8 C 0.698(2) 0.9382(5) 0.6503(5)
H5_8 H 0.701826 0.951288 0.625441
C6_8 C 0.6466(18) 0.8028(5) 0.5030(4)
H6_8 H 0.592670 0.779016 0.497493
C7_8 C 0.6285(17) 0.8240(6) 0.5387(4)
H7_8 H 0.559000 0.817511 0.555121
C8_8 C 0.6567(17) 0.7887(7) 0.8625(5)
H8_8 H 0.600504 0.792834 0.883620
C11_8 C 0.671(2) 0.8736(5) 0.6891(4)
H10_8 H 0.656668 0.843369 0.690921
C12_8 C 0.7186(17) 0.8551(5) 0.5485(4)
C13_8 C 0.808(2) 0.8644(7) 0.5202(5)
H11_8 H 0.869116 0.885863 0.525742
C14_8 C 0.6681(18) 0.8651(5) 0.6179(4)
C15_8 C 0.676(2) 0.8928(5) 0.6534(4)
C16_8 C 0.724(2) 0.8103(6) 0.7986(4)
C17_8 C 0.812(2) 0.7747(6) 0.8003(4)
H12_8 H 0.869438 0.769080 0.779817
C21_8 C 0.6810(17) 0.8785(5) 0.7629(4)
C22_8 C 0.714(2) 0.9642(5) 0.6843(5)
C24_8 C 0.704(3) 0.9431(6) 0.7200(5)
H16_8 H 0.710168 0.959578 0.743158
C25_8 C 0.685(2) 0.8981(5) 0.7228(4)
C26_8 C 0.6466(18) 0.8172(6) 0.8304(4)
H17_8 H 0.588236 0.840506 0.830805
C27_8 C 0.809(2) 0.7494(6) 0.8333(5)
H18_8 H 0.861591 0.724488 0.833271
C28_8 C 0.818(4) 0.5931(11) 0.5495(8)
N10_8 N 0.832(5) 0.5594(12) 0.5636(11)
loop_
_geom_bond_atom_site_label_1
_geom_bond_atom_site_label_2
_geom_bond_site_symmetry_1
_geom_bond_site_symmetry_2
Fe2 N2 1_555 1_555
Au1 C1 1_555 1_555
Au2 C3 1_555 1_555
Fe2 N1 1_555 1_555
N1 C2 1_555 1_555
N3 Fe2 1_555 1_555
N4 Fe2 1_555 1_555
O1 C14 1_555 1_555
N5 C10 1_555 1_555
N6 C8 1_555 1_555
O2 C21 1_555 1_555
C2 Au1 1_555 1_555
C3 N3 1_555 1_555
O3 C20 1_555 1_555
N7 H1 1_555 1_555
N8 H2 1_555 1_555
C4 N4 1_555 1_555
H3 C4 1_555 1_555
N9 H4 1_555 1_555
C5 H5 1_555 1_555
C6 N4 1_555 1_555
H6 C6 1_555 1_555
C7 C6 1_555 1_555
H7 C7 1_555 1_555
C8 H8 1_555 1_555
C9 N9 1_555 1_555
C10 H9 1_555 1_555
C11 H10 1_555 1_555
C12 N7 1_555 1_555
C13 C4 1_555 1_555
H11 C13 1_555 1_555
C14 N7 1_555 1_555
C15 C5 1_555 1_555
C16 N8 1_555 1_555
C17 C16 1_555 1_555
H12 C17 1_555 1_555
C18 C9 1_555 1_555
H13 C18 1_555 1_555
C19 N5 1_555 1_555
H14 C19 1_555 1_555
C20 N9 1_555 1_555
C21 N8 1_555 1_555
C22 C5 1_555 1_555
C23 C9 1_555 1_555
H15 C23 1_555 1_555
C24 C22 1_555 1_555
H16 C24 1_555 1_555
C25 C11 1_555 1_555
C26 C8 1_555 1_555
H17 C26 1_555 1_555
C27 N6 1_555 1_555
H18 C27 1_555 1_555
C28 Au2 1_555 1_555
N10 C28 1_555 1_555
Fe3 N5 1_555 1_555
Fe4 N6 1_555 1_555
N12 Fe2 1_555 1_555
N13 Fe2 1_555 1_555
C7 C12 1_555 1_555
C10 C18 1_555 1_555
C11 C15 1_555 1_555
C12 C13 1_555 1_555
C14 C15 1_555 1_555
C16 C26 1_555 1_555
C17 C27 1_555 1_555
C19 C23 1_555 1_555
C20 C22 1_555 1_555
C21 C25 1_555 1_555
C24 C25 1_555 1_555
Fe3 N2_2 1_555 1_555
Au1_2 C1_2 1_555 1_555
Au2_2 C3_2 1_555 1_555
Fe3 N1_2 1_555 1_555
N1_2 C2_2 1_555 1_555
N3_2 Fe3 1_555 1_555
N4_2 Fe3 1_555 1_555
O1_2 C14_2 1_555 1_555
N12 C10_2 1_555 1_555
N6_2 C8_2 1_555 1_555
O2_2 C21_2 1_555 1_555
C2_2 Au1_2 1_555 1_555
C3_2 N3_2 1_555 1_555
O3_2 C20_2 1_555 1_555
N7_2 H1_2 1_555 1_555
N8_2 H2_2 1_555 1_555
C4_2 N4_2 1_555 1_555
H3_2 C4_2 1_555 1_555
N9_2 H4_2 1_555 1_555
C5_2 H5_2 1_555 1_555
C6_2 N4_2 1_555 1_555
H6_2 C6_2 1_555 1_555
C7_2 C6_2 1_555 1_555
H7_2 C7_2 1_555 1_555
C8_2 H8_2 1_555 1_555
C9_2 N9_2 1_555 1_555
C10_2 H9_2 1_555 1_555
C11_2 H10_2 1_555 1_555
C12_2 N7_2 1_555 1_555
C13_2 C4_2 1_555 1_555
H11_2 C13_2 1_555 1_555
C14_2 N7_2 1_555 1_555
C15_2 C5_2 1_555 1_555
C16_2 N8_2 1_555 1_555
C17_2 C16_2 1_555 1_555
H12_2 C17_2 1_555 1_555
C18_2 C9_2 1_555 1_555
H13_2 C18_2 1_555 1_555
C19_2 N12 1_555 1_555
H14_2 C19_2 1_555 1_555
C20_2 N9_2 1_555 1_555
C21_2 N8_2 1_555 1_555
C22_2 C5_2 1_555 1_555
C23_2 C9_2 1_555 1_555
H15_2 C23_2 1_555 1_555
C24_2 C22_2 1_555 1_555
H16_2 C24_2 1_555 1_555
C25_2 C11_2 1_555 1_555
C26_2 C8_2 1_555 1_555
H17_2 C26_2 1_555 1_555
C27_2 N6_2 1_555 1_555
H18_2 C27_2 1_555 1_555
C28_2 Au2_2 1_555 1_555
N10_2 C28_2 1_555 1_555
Fe4_2 N6_2 1_555 1_555
N13_2 Fe3 1_555 1_555
C7_2 C12_2 1_555 1_555
C10_2 C18_2 1_555 1_555
C11_2 C15_2 1_555 1_555
C12_2 C13_2 1_555 1_555
C14_2 C15_2 1_555 1_555
C16_2 C26_2 1_555 1_555
C17_2 C27_2 1_555 1_555
C19_2 C23_2 1_555 1_555
C20_2 C22_2 1_555 1_555
C21_2 C25_2 1_555 1_555
C24_2 C25_2 1_555 1_555
N5_2 C10_3 1_555 1_555
O3_3 C20_3 1_555 1_555
N9_3 H4_3 1_555 1_555
C9_3 N9_3 1_555 1_555
C10_3 H9_3 1_555 1_555
C18_3 C9_3 1_555 1_555
H13_3 C18_3 1_555 1_555
C19_3 N5_2 1_555 1_555
H14_3 C19_3 1_555 1_555
C20_3 N9_3 1_555 1_555
C23_3 C9_3 1_555 1_555
H15_3 C23_3 1_555 1_555
Fe4_2 N5_2 1_555 1_555
C10_3 C18_3 1_555 1_555
C19_3 C23_3 1_555 1_555
Fe4 N1_3 1_555 1_555
N3_3 Fe4 1_555 1_555
N4_3 Fe4 1_555 1_555
C3_3 N3_3 1_555 1_555
C4_3 N4_3 1_555 1_555
H3_3 C4_3 1_555 1_555
N11 Fe4 1_555 1_555
N12_2 Fe4 1_555 1_555
O1_3 C14_3 1_555 1_555
N13 C8_3 1_555 1_555
O2_3 C21_3 1_555 1_555
N7_3 H1_3 1_555 1_555
N8_3 H2_3 1_555 1_555
C5_3 H5_3 1_555 1_555
C7_3 C6_3 1_555 1_555
H7_3 C7_3 1_555 1_555
C8_3 H8_3 1_555 1_555
C11_3 H10_3 1_555 1_555
C12_3 N7_3 1_555 1_555
H11_3 C13_3 1_555 1_555
C14_3 N7_3 1_555 1_555
C15_3 C5_3 1_555 1_555
C16_3 N8_3 1_555 1_555
C17_3 C16_3 1_555 1_555
H12_3 C17_3 1_555 1_555
C21_3 N8_3 1_555 1_555
C22_3 C5_3 1_555 1_555
C24_3 C22_3 1_555 1_555
H16_3 C24_3 1_555 1_555
C25_3 C11_3 1_555 1_555
C26_3 C8_3 1_555 1_555
H17_3 C26_3 1_555 1_555
C27_3 N13 1_555 1_555
H18_3 C27_3 1_555 1_555
C28_3 Au2_3 1_555 1_555
N10_3 C28_3 1_555 1_555
C7_3 C12_3 1_555 1_555
C11_3 C15_3 1_555 1_555
C12_3 C13_3 1_555 1_555
C14_3 C15_3 1_555 1_555
C16_3 C26_3 1_555 1_555
C17_3 C27_3 1_555 1_555
C21_3 C25_3 1_555 1_555
C24_3 C25_3 1_555 1_555
Au1_3 C1_3 1_555 1_555
N11 C1_3 1_555 1_555
C2_3 Au1_3 1_555 1_555
O1_4 C14_4 1_555 1_555
N13_2 C8_4 1_555 1_555
O2_4 C21_4 1_555 1_555
N7_4 H1_4 1_555 1_555
N8_4 H2_4 1_555 1_555
C5_4 H5_4 1_555 1_555
C7_4 C6_4 1_555 1_555
H7_4 C7_4 1_555 1_555
C8_4 H8_4 1_555 1_555
C11_4 H10_4 1_555 1_555
C12_4 N7_4 1_555 1_555
H11_4 C13_4 1_555 1_555
C14_4 N7_4 1_555 1_555
C15_4 C5_4 1_555 1_555
C16_4 N8_4 1_555 1_555
C17_4 C16_4 1_555 1_555
H12_4 C17_4 1_555 1_555
C21_4 N8_4 1_555 1_555
C22_4 C5_4 1_555 1_555
C24_4 C22_4 1_555 1_555
H16_4 C24_4 1_555 1_555
C25_4 C11_4 1_555 1_555
C26_4 C8_4 1_555 1_555
H17_4 C26_4 1_555 1_555
C27_4 N13_2 1_555 1_555
H18_4 C27_4 1_555 1_555
C28_4 Au2_4 1_555 1_555
N10_4 C28_4 1_555 1_555
C7_4 C12_4 1_555 1_555
C11_4 C15_4 1_555 1_555
C12_4 C13_4 1_555 1_555
C14_4 C15_4 1_555 1_555
C16_4 C26_4 1_555 1_555
C17_4 C27_4 1_555 1_555
C21_4 C25_4 1_555 1_555
C24_4 C25_4 1_555 1_555
Fe4_2 N1_4 1_555 1_555
N3_4 Fe4_2 1_555 1_555
N4_4 Fe4_2 1_555 1_555
C3_4 N3_4 1_555 1_555
C4_4 N4_4 1_555 1_555
H3_4 C4_4 1_555 1_555
N11_2 Fe4_2 1_555 1_555
N12_2 C10_4 1_555 1_555
O3_4 C20_4 1_555 1_555
N9_4 H4_4 1_555 1_555
C9_4 N9_4 1_555 1_555
C10_4 H9_4 1_555 1_555
C18_4 C9_4 1_555 1_555
H13_4 C18_4 1_555 1_555
C19_4 N12_2 1_555 1_555
H14_4 C19_4 1_555 1_555
C20_4 N9_4 1_555 1_555
C23_4 C9_4 1_555 1_555
H15_4 C23_4 1_555 1_555
C10_4 C18_4 1_555 1_555
C19_4 C23_4 1_555 1_555
Au1_4 C1_4 1_555 1_555
N11_2 C1_4 1_555 1_555
C2_4 Au1_4 1_555 1_555
Au1_5 C1_5 1_555 1_555
Fe1 N1_5 1_555 1_555
N1_5 C2_5 1_555 1_555
N3_5 Fe1 1_555 1_555
N4_5 Fe1 1_555 1_555
C2_5 Au1_5 1_555 1_555
C3_5 N3_5 1_555 1_555
C4_5 N4_5 1_555 1_555
H3_5 C4_5 1_555 1_555
N11_3 Fe1 1_555 1_555
N12_3 Fe1 1_555 1_555
N13_3 Fe1 1_555 1_555
O1_5 C14_5 1_555 1_555
N5_3 C10_5 1_555 1_555
N6_3 C8_5 1_555 1_555
O2_5 C21_5 1_555 1_555
O3_5 C20_5 1_555 1_555
N7_5 H1_5 1_555 1_555
N8_5 H2_5 1_555 1_555
N9_5 H4_5 1_555 1_555
C5_5 H5_5 1_555 1_555
C7_5 C6_5 1_555 1_555
H7_5 C7_5 1_555 1_555
C8_5 H8_5 1_555 1_555
C9_5 N9_5 1_555 1_555
C10_5 H9_5 1_555 1_555
C11_5 H10_5 1_555 1_555
C12_5 N7_5 1_555 1_555
H11_5 C13_5 1_555 1_555
C14_5 N7_5 1_555 1_555
C15_5 C5_5 1_555 1_555
C16_5 N8_5 1_555 1_555
C17_5 C16_5 1_555 1_555
H12_5 C17_5 1_555 1_555
C18_5 C9_5 1_555 1_555
H13_5 C18_5 1_555 1_555
C19_5 N5_3 1_555 1_555
H14_5 C19_5 1_555 1_555
C20_5 N9_5 1_555 1_555
C21_5 N8_5 1_555 1_555
C22_5 C5_5 1_555 1_555
C23_5 C9_5 1_555 1_555
H15_5 C23_5 1_555 1_555
C24_5 C22_5 1_555 1_555
H16_5 C24_5 1_555 1_555
C25_5 C11_5 1_555 1_555
C26_5 C8_5 1_555 1_555
H17_5 C26_5 1_555 1_555
C27_5 N6_3 1_555 1_555
H18_5 C27_5 1_555 1_555
C28_5 Au2_5 1_555 1_555
N10_5 C28_5 1_555 1_555
Fe3_2 N5_3 1_555 1_555
Fe4_3 N6_3 1_555 1_555
C7_5 C12_5 1_555 1_555
C10_5 C18_5 1_555 1_555
C11_5 C15_5 1_555 1_555
C12_5 C13_5 1_555 1_555
C14_5 C15_5 1_555 1_555
C16_5 C26_5 1_555 1_555
C17_5 C27_5 1_555 1_555
C19_5 C23_5 1_555 1_555
C20_5 C22_5 1_555 1_555
C21_5 C25_5 1_555 1_555
C24_5 C25_5 1_555 1_555
O1_6 C14_6 1_555 1_555
N12_3 C10_6 1_555 1_555
N6_4 C8_6 1_555 1_555
O2_6 C21_6 1_555 1_555
O3_6 C20_6 1_555 1_555
N7_6 H1_6 1_555 1_555
N8_6 H2_6 1_555 1_555
N9_6 H4_6 1_555 1_555
C5_6 H5_6 1_555 1_555
C7_6 C6_6 1_555 1_555
H7_6 C7_6 1_555 1_555
C8_6 H8_6 1_555 1_555
C9_6 N9_6 1_555 1_555
C10_6 H9_6 1_555 1_555
C11_6 H10_6 1_555 1_555
C12_6 N7_6 1_555 1_555
H11_6 C13_6 1_555 1_555
C14_6 N7_6 1_555 1_555
C15_6 C5_6 1_555 1_555
C16_6 N8_6 1_555 1_555
C17_6 C16_6 1_555 1_555
H12_6 C17_6 1_555 1_555
C18_6 C9_6 1_555 1_555
H13_6 C18_6 1_555 1_555
C19_6 N12_3 1_555 1_555
H14_6 C19_6 1_555 1_555
C20_6 N9_6 1_555 1_555
C21_6 N8_6 1_555 1_555
C22_6 C5_6 1_555 1_555
C23_6 C9_6 1_555 1_555
H15_6 C23_6 1_555 1_555
C24_6 C22_6 1_555 1_555
H16_6 C24_6 1_555 1_555
C25_6 C11_6 1_555 1_555
C26_6 C8_6 1_555 1_555
H17_6 C26_6 1_555 1_555
C27_6 N6_4 1_555 1_555
H18_6 C27_6 1_555 1_555
C28_6 Au2_6 1_555 1_555
N10_6 C28_6 1_555 1_555
Fe4_4 N6_4 1_555 1_555
C7_6 C12_6 1_555 1_555
C10_6 C18_6 1_555 1_555
C11_6 C15_6 1_555 1_555
C12_6 C13_6 1_555 1_555
C14_6 C15_6 1_555 1_555
C16_6 C26_6 1_555 1_555
C17_6 C27_6 1_555 1_555
C19_6 C23_6 1_555 1_555
C20_6 C22_6 1_555 1_555
C21_6 C25_6 1_555 1_555
C24_6 C25_6 1_555 1_555
Au1_6 C1_6 1_555 1_555
Fe3_2 N1_6 1_555 1_555
N1_6 C2_6 1_555 1_555
N3_6 Fe3_2 1_555 1_555
N4_6 Fe3_2 1_555 1_555
C2_6 Au1_6 1_555 1_555
C3_6 N3_6 1_555 1_555
C4_6 N4_6 1_555 1_555
H3_6 C4_6 1_555 1_555
N11_4 Fe3_2 1_555 1_555
N13_4 Fe3_2 1_555 1_555
Au1_7 C1_7 1_555 1_555
N2_3 C1_7 1_555 1_555
C2_7 Au1_7 1_555 1_555
Fe4_3 N2_3 1_555 1_555
Au2_7 C3_7 1_555 1_555
Fe4_3 N1_7 1_555 1_555
N3_7 Fe4_3 1_555 1_555
N4_7 Fe4_3 1_555 1_555
O1_7 C14_7 1_555 1_555
N13_3 C8_7 1_555 1_555
O2_7 C21_7 1_555 1_555
C3_7 N3_7 1_555 1_555
N7_7 H1_7 1_555 1_555
N8_7 H2_7 1_555 1_555
C4_7 N4_7 1_555 1_555
H3_7 C4_7 1_555 1_555
C5_7 H5_7 1_555 1_555
C6_7 N4_7 1_555 1_555
H6_7 C6_7 1_555 1_555
C7_7 C6_7 1_555 1_555
H7_7 C7_7 1_555 1_555
C8_7 H8_7 1_555 1_555
C11_7 H10_7 1_555 1_555
C12_7 N7_7 1_555 1_555
C13_7 C4_7 1_555 1_555
H11_7 C13_7 1_555 1_555
C14_7 N7_7 1_555 1_555
C15_7 C5_7 1_555 1_555
C16_7 N8_7 1_555 1_555
C17_7 C16_7 1_555 1_555
H12_7 C17_7 1_555 1_555
C21_7 N8_7 1_555 1_555
C22_7 C5_7 1_555 1_555
C24_7 C22_7 1_555 1_555
H16_7 C24_7 1_555 1_555
C25_7 C11_7 1_555 1_555
C26_7 C8_7 1_555 1_555
H17_7 C26_7 1_555 1_555
C27_7 N13_3 1_555 1_555
H18_7 C27_7 1_555 1_555
C28_7 Au2_7 1_555 1_555
N10_7 C28_7 1_555 1_555
N12_4 Fe4_3 1_555 1_555
C7_7 C12_7 1_555 1_555
C11_7 C15_7 1_555 1_555
C12_7 C13_7 1_555 1_555
C14_7 C15_7 1_555 1_555
C16_7 C26_7 1_555 1_555
C17_7 C27_7 1_555 1_555
C21_7 C25_7 1_555 1_555
C24_7 C25_7 1_555 1_555
N5_4 C10_7 1_555 1_555
O3_7 C20_7 1_555 1_555
N9_7 H4_7 1_555 1_555
C9_7 N9_7 1_555 1_555
C10_7 H9_7 1_555 1_555
C18_7 C9_7 1_555 1_555
H13_7 C18_7 1_555 1_555
C19_7 N5_4 1_555 1_555
H14_7 C19_7 1_555 1_555
C20_7 N9_7 1_555 1_555
C23_7 C9_7 1_555 1_555
H15_7 C23_7 1_555 1_555
Fe4_4 N5_4 1_555 1_555
C10_7 C18_7 1_555 1_555
C19_7 C23_7 1_555 1_555
Au1_8 C1_8 1_555 1_555
N2_4 C1_8 1_555 1_555
C2_8 Au1_8 1_555 1_555
Fe4_4 N2_4 1_555 1_555
N12_4 C10_8 1_555 1_555
O3_8 C20_8 1_555 1_555
N9_8 H4_8 1_555 1_555
C9_8 N9_8 1_555 1_555
C10_8 H9_8 1_555 1_555
C18_8 C9_8 1_555 1_555
H13_8 C18_8 1_555 1_555
C19_8 N12_4 1_555 1_555
H14_8 C19_8 1_555 1_555
C20_8 N9_8 1_555 1_555
C23_8 C9_8 1_555 1_555
H15_8 C23_8 1_555 1_555
C10_8 C18_8 1_555 1_555
C19_8 C23_8 1_555 1_555
Au2_8 C3_8 1_555 1_555
Fe4_4 N1_8 1_555 1_555
N3_8 Fe4_4 1_555 1_555
N4_8 Fe4_4 1_555 1_555
O1_8 C14_8 1_555 1_555
N13_4 C8_8 1_555 1_555
O2_8 C21_8 1_555 1_555
C3_8 N3_8 1_555 1_555
N7_8 H1_8 1_555 1_555
N8_8 H2_8 1_555 1_555
C4_8 N4_8 1_555 1_555
H3_8 C4_8 1_555 1_555
C5_8 H5_8 1_555 1_555
C6_8 N4_8 1_555 1_555
H6_8 C6_8 1_555 1_555
C7_8 C6_8 1_555 1_555
H7_8 C7_8 1_555 1_555
C8_8 H8_8 1_555 1_555
C11_8 H10_8 1_555 1_555
C12_8 N7_8 1_555 1_555
C13_8 C4_8 1_555 1_555
H11_8 C13_8 1_555 1_555
C14_8 N7_8 1_555 1_555
C15_8 C5_8 1_555 1_555
C16_8 N8_8 1_555 1_555
C17_8 C16_8 1_555 1_555
H12_8 C17_8 1_555 1_555
C21_8 N8_8 1_555 1_555
C22_8 C5_8 1_555 1_555
C24_8 C22_8 1_555 1_555
H16_8 C24_8 1_555 1_555
C25_8 C11_8 1_555 1_555
C26_8 C8_8 1_555 1_555
H17_8 C26_8 1_555 1_555
C27_8 N13_4 1_555 1_555
H18_8 C27_8 1_555 1_555
C28_8 Au2_8 1_555 1_555
N10_8 C28_8 1_555 1_555
C7_8 C12_8 1_555 1_555
C11_8 C15_8 1_555 1_555
C12_8 C13_8 1_555 1_555
C14_8 C15_8 1_555 1_555
C16_8 C26_8 1_555 1_555
C17_8 C27_8 1_555 1_555
C21_8 C25_8 1_555 1_555
C24_8 C25_8 1_555 1_555

#END
