
###############################################################################
#
# This file contains modified crystal structure data generated from the
# MOF subset of the Cambridge Structural Database (CSD) v543 
# hosted by the Cambridge Crystallographic Data Centre (CCDC).
#
# This work is licensed under the Creative Commons
# Attribution-NonCommercial-ShareAlike 4.0 International License.
# To view a copy of this license, visit
# http://creativecommons.org/licenses/by-nc-sa/4.0/
# or send a letter to
# Creative Commons, PO Box 1866, Mountain View, CA 94042, USA.
#
# CIF created using the CSD Python API on 29 September 2022
# The structure has been converted into the P1 space group
# The structure has a 3D framework
# The original CSD entry WAMCAS05 is in the orthorhombic crystal system
# The original CSD entry WAMCAS05 is in a Sohncke space group
# The framework has been calculated to contain at least 10.0% void space
# The void calculation uses a probe of radius 1.32A, grid spacing 0.4
#
###############################################################################

data_WAMCAS05
_chemical_formula_moiety         '(C224 H144 Au16 Fe8 N76 O24)n'
_symmetry_cell_setting           triclinic
_symmetry_space_group_name_H-M   'P 1'
_symmetry_Int_Tables_number      1
_space_group_name_Hall           'P 1'
loop_
_symmetry_equiv_pos_site_id
_symmetry_equiv_pos_as_xyz
1 x,y,z
_cell_length_a                   10.121(2)
_cell_length_b                   30.275(6)
_cell_length_c                   33.568(7)
_cell_angle_alpha                90
_cell_angle_beta                 90
_cell_angle_gamma                90
_cell_volume                     10285.7
loop_
_atom_site_label
_atom_site_type_symbol
_atom_site_fract_x
_atom_site_fract_y
_atom_site_fract_z
N2 N 0.0507(7) 0.7252(2) 0.5809(2)
Fe2 Fe 0.24164(10) 0.71913(3) 0.57957(3)
Au1 Au 0.74194(3) 0.71840(2) 0.57838(2)
Au2 Au 0.28728(4) 0.85404(2) 0.49103(2)
N1 N 0.4335(7) 0.7137(2) 0.5789(2)
N3 N 0.2577(8) 0.7739(2) 0.5491(2)
N4 N 0.2308(7) 0.68689(19) 0.5266(2)
O1 O 0.1259(8) 0.6734(2) 0.37892(19)
N5 N 0.2203(7) 0.3388(2) 0.3922(2)
N6 N 0.2443(8) 0.7471(2) 0.13146(18)
C1 C 0.9349(10) 0.7240(2) 0.5799(2)
O2 O 0.1443(9) 0.6031(2) 0.2058(2)
C2 C 0.5477(9) 0.7138(2) 0.5784(2)
C3 C 0.2658(10) 0.8043(3) 0.5284(3)
O3 O 0.3056(14) 0.4690(3) 0.2911(3)
N7 N 0.2143(9) 0.6196(2) 0.4175(2)
H1 H 0.242997 0.592197 0.417878
N8 N 0.2260(9) 0.6665(2) 0.2334(2)
H2 H 0.253096 0.678376 0.255860
C4 C 0.3094(10) 0.6532(3) 0.5180(2)
H3 H 0.370266 0.643678 0.537774
N9 N 0.1718(12) 0.4666(2) 0.3461(3)
H4 H 0.112215 0.482202 0.358945
C5 C 0.1970(11) 0.5611(2) 0.3492(2)
H5 H 0.200900 0.547002 0.374421
C6 C 0.1437(9) 0.6986(2) 0.4986(2)
H6 H 0.086263 0.722624 0.504260
C7 C 0.1320(9) 0.6783(3) 0.4625(2)
H7 H 0.067196 0.687535 0.443805
C8 C 0.1570(9) 0.7136(3) 0.1336(3)
H8 H 0.098217 0.709021 0.111950
C9 C 0.1910(12) 0.4229(3) 0.3589(3)
C10 C 0.3009(10) 0.3534(3) 0.3625(3)
H9 H 0.370118 0.334675 0.353567
C11 C 0.1736(10) 0.6266(3) 0.3098(2)
H10 H 0.159918 0.657574 0.308399
C12 C 0.2178(9) 0.6435(2) 0.4537(2)
C13 C 0.3082(11) 0.6309(3) 0.4820(3)
H11 H 0.368518 0.607541 0.477021
C14 C 0.1695(9) 0.6361(2) 0.3820(2)
C15 C 0.1789(9) 0.6061(2) 0.3468(2)
C16 C 0.2283(9) 0.6932(3) 0.1989(2)
C17 C 0.3127(10) 0.7296(2) 0.1983(2)
H12 H 0.365595 0.736668 0.220783
C18 C 0.2862(14) 0.3943(3) 0.3447(3)
H13 H 0.341078 0.402573 0.322998
C19 C 0.1276(10) 0.3672(3) 0.4052(3)
H14 H 0.070957 0.357972 0.426174
C20 C 0.2369(15) 0.4874(3) 0.3153(3)
C21 C 0.1847(9) 0.6235(3) 0.2343(2)
C22 C 0.2096(13) 0.5362(3) 0.3145(3)
C23 C 0.1102(11) 0.4086(3) 0.3898(3)
H15 H 0.043598 0.427520 0.400198
C24 C 0.2088(12) 0.5566(3) 0.2766(2)
H16 H 0.221873 0.539701 0.253053
C25 C 0.1881(10) 0.6023(3) 0.2745(2)
C26 C 0.1491(10) 0.6853(3) 0.1662(3)
H17 H 0.089982 0.660968 0.165942
C27 C 0.3178(9) 0.7554(3) 0.1636(3)
H18 H 0.376161 0.779986 0.162923
C28 C 0.3140(17) 0.9069(4) 0.4567(5)
N10 N 0.328(2) 0.9363(4) 0.4374(5)
Fe3 Fe 0.24164(10) 0.28087(3) 0.42043(3)
Fe4 Fe 0.25836(10) 0.78087(3) 0.07957(3)
N12 N 0.2203(7) 0.6612(2) 0.6078(2)
N13 N 0.2557(8) 0.7529(2) 0.63146(18)
N2_2 N 0.0507(7) 0.2748(2) 0.4191(2)
Au1_2 Au 0.74194(3) 0.28160(2) 0.42162(2)
Au2_2 Au 0.28728(4) 0.14596(2) 0.50897(2)
N1_2 N 0.4335(7) 0.2863(2) 0.4211(2)
N3_2 N 0.2577(8) 0.2261(2) 0.4509(2)
N4_2 N 0.2308(7) 0.31311(19) 0.4734(2)
O1_2 O 0.1259(8) 0.3266(2) 0.62108(19)
N6_2 N 0.2443(8) 0.2529(2) 0.86854(18)
C1_2 C 0.9349(10) 0.2760(2) 0.4201(2)
O2_2 O 0.1443(9) 0.3969(2) 0.7942(2)
C2_2 C 0.5477(9) 0.2862(2) 0.4216(2)
C3_2 C 0.2658(10) 0.1957(3) 0.4716(3)
O3_2 O 0.3056(14) 0.5310(3) 0.7089(3)
N7_2 N 0.2143(9) 0.3804(2) 0.5825(2)
H1_2 H 0.242997 0.407803 0.582122
N8_2 N 0.2260(9) 0.3335(2) 0.7666(2)
H2_2 H 0.253096 0.321624 0.744140
C4_2 C 0.3094(10) 0.3468(3) 0.4820(2)
H3_2 H 0.370266 0.356322 0.462226
N9_2 N 0.1718(12) 0.5334(2) 0.6539(3)
H4_2 H 0.112215 0.517798 0.641055
C5_2 C 0.1970(11) 0.4389(2) 0.6508(2)
H5_2 H 0.200900 0.452998 0.625579
C6_2 C 0.1437(9) 0.3014(2) 0.5014(2)
H6_2 H 0.086263 0.277376 0.495740
C7_2 C 0.1320(9) 0.3217(3) 0.5375(2)
H7_2 H 0.067196 0.312465 0.556195
C8_2 C 0.1570(9) 0.2864(3) 0.8664(3)
H8_2 H 0.098217 0.290979 0.888050
C9_2 C 0.1910(12) 0.5771(3) 0.6411(3)
C10_2 C 0.3009(10) 0.6466(3) 0.6375(3)
H9_2 H 0.370118 0.665325 0.646433
C11_2 C 0.1736(10) 0.3734(3) 0.6902(2)
H10_2 H 0.159918 0.342426 0.691601
C12_2 C 0.2178(9) 0.3565(2) 0.5463(2)
C13_2 C 0.3082(11) 0.3691(3) 0.5180(3)
H11_2 H 0.368518 0.392459 0.522979
C14_2 C 0.1695(9) 0.3639(2) 0.6180(2)
C15_2 C 0.1789(9) 0.3939(2) 0.6532(2)
C16_2 C 0.2283(9) 0.3068(3) 0.8011(2)
C17_2 C 0.3127(10) 0.2704(2) 0.8017(2)
H12_2 H 0.365595 0.263332 0.779217
C18_2 C 0.2862(14) 0.6057(3) 0.6553(3)
H13_2 H 0.341078 0.597427 0.677002
C19_2 C 0.1276(10) 0.6328(3) 0.5948(3)
H14_2 H 0.070957 0.642028 0.573826
C20_2 C 0.2369(15) 0.5126(3) 0.6847(3)
C21_2 C 0.1847(9) 0.3765(3) 0.7657(2)
C22_2 C 0.2096(13) 0.4638(3) 0.6855(3)
C23_2 C 0.1102(11) 0.5914(3) 0.6102(3)
H15_2 H 0.043598 0.572480 0.599802
C24_2 C 0.2088(12) 0.4434(3) 0.7234(2)
H16_2 H 0.221873 0.460299 0.746947
C25_2 C 0.1881(10) 0.3977(3) 0.7255(2)
C26_2 C 0.1491(10) 0.3147(3) 0.8338(3)
H17_2 H 0.089982 0.339032 0.834058
C27_2 C 0.3178(9) 0.2446(3) 0.8364(3)
H18_2 H 0.376161 0.220014 0.837077
C28_2 C 0.3140(17) 0.0931(4) 0.5433(5)
N10_2 N 0.328(2) 0.0637(4) 0.5626(5)
Fe4_2 Fe 0.25836(10) 0.21913(3) 0.92043(3)
N13_2 N 0.2557(8) 0.2471(2) 0.36854(18)
N5_2 N 0.2797(7) 0.1612(2) 0.8922(2)
O3_3 O 0.1944(14) 0.0310(3) 0.7911(3)
N9_3 N 0.3282(12) 0.0334(2) 0.8461(3)
H4_3 H 0.387785 0.017798 0.858945
C9_3 C 0.3090(12) 0.0771(3) 0.8589(3)
C10_3 C 0.1991(10) 0.1466(3) 0.8625(3)
H9_3 H 0.129882 0.165325 0.853567
C18_3 C 0.2138(14) 0.1057(3) 0.8447(3)
H13_3 H 0.158922 0.097427 0.822998
C19_3 C 0.3724(10) 0.1328(3) 0.9052(3)
H14_3 H 0.429043 0.142028 0.926174
C20_3 C 0.2631(15) 0.0126(3) 0.8153(3)
C23_3 C 0.3898(11) 0.0914(3) 0.8898(3)
H15_3 H 0.456402 0.072480 0.900198
N1_3 N 0.0665(7) 0.7863(2) 0.0789(2)
N3_3 N 0.2423(8) 0.7261(2) 0.0491(2)
N4_3 N 0.2692(7) 0.81311(19) 0.0266(2)
C3_3 C 0.2342(10) 0.6957(3) 0.0284(3)
C4_3 C 0.1906(10) 0.8468(3) 0.0180(2)
H3_3 H 0.129734 0.856322 0.037774
H6_3 H 0.413737 0.777376 0.004260
N11 N 0.4493(7) 0.7748(2) 0.0809(2)
N12_2 N 0.2797(7) 0.8388(2) 0.1078(2)
Au2_3 Au 0.21272(4) 0.64596(2) 0.99103(2)
O1_3 O 0.3741(8) 0.8266(2) 0.87892(19)
O2_3 O 0.3557(9) 0.8969(2) 0.7058(2)
N7_3 N 0.2857(9) 0.8804(2) 0.9175(2)
H1_3 H 0.257003 0.907803 0.917878
N8_3 N 0.2740(9) 0.8335(2) 0.7334(2)
H2_3 H 0.246904 0.821624 0.755860
C5_3 C 0.3030(11) 0.9389(2) 0.8492(2)
H5_3 H 0.299100 0.952998 0.874421
C6_3 C 0.3563(9) 0.8014(2) 0.9986(2)
C7_3 C 0.3680(9) 0.8217(3) 0.9625(2)
H7_3 H 0.432804 0.812465 0.943805
C8_3 C 0.3430(9) 0.7864(3) 0.6336(3)
H8_3 H 0.401783 0.790979 0.611950
C11_3 C 0.3264(10) 0.8734(3) 0.8098(2)
H10_3 H 0.340082 0.842426 0.808399
C12_3 C 0.2822(9) 0.8565(2) 0.9537(2)
C13_3 C 0.1918(11) 0.8691(3) 0.9820(3)
H11_3 H 0.131482 0.892459 0.977021
C14_3 C 0.3305(9) 0.8639(2) 0.8820(2)
C15_3 C 0.3211(9) 0.8939(2) 0.8468(2)
C16_3 C 0.2717(9) 0.8068(3) 0.6989(2)
C17_3 C 0.1873(10) 0.7704(2) 0.6983(2)
H12_3 H 0.134405 0.763332 0.720783
C21_3 C 0.3153(9) 0.8765(3) 0.7343(2)
C22_3 C 0.2904(13) 0.9638(3) 0.8145(3)
C24_3 C 0.2912(12) 0.9434(3) 0.7766(2)
H16_3 H 0.278127 0.960299 0.753053
C25_3 C 0.3119(10) 0.8977(3) 0.7745(2)
C26_3 C 0.3509(10) 0.8147(3) 0.6662(3)
H17_3 H 0.410018 0.839032 0.665942
C27_3 C 0.1822(9) 0.7446(3) 0.6636(3)
H18_3 H 0.123839 0.720014 0.662923
C28_3 C 0.1860(17) 0.5931(4) 0.9567(5)
N10_3 N 0.172(2) 0.5637(4) 0.9374(5)
Au1_3 Au 0.75806(3) 0.78160(2) 0.07838(2)
C1_3 C 0.5651(10) 0.7760(2) 0.0799(2)
C2_3 C 0.9523(9) 0.7862(2) 0.0784(2)
Au2_4 Au 0.21272(4) 0.35404(2) 0.00897(2)
O1_4 O 0.3741(8) 0.1734(2) 0.12108(19)
O2_4 O 0.3557(9) 0.1031(2) 0.2942(2)
N7_4 N 0.2857(9) 0.1196(2) 0.0825(2)
H1_4 H 0.257003 0.092197 0.082122
N8_4 N 0.2740(9) 0.1665(2) 0.2666(2)
H2_4 H 0.246904 0.178376 0.244140
C5_4 C 0.3030(11) 0.0611(2) 0.1508(2)
H5_4 H 0.299100 0.047002 0.125579
C6_4 C 0.3563(9) 0.1986(2) 0.0014(2)
C7_4 C 0.3680(9) 0.1783(3) 0.0375(2)
H7_4 H 0.432804 0.187535 0.056195
C8_4 C 0.3430(9) 0.2136(3) 0.3664(3)
H8_4 H 0.401783 0.209021 0.388050
C11_4 C 0.3264(10) 0.1266(3) 0.1902(2)
H10_4 H 0.340082 0.157574 0.191601
C12_4 C 0.2822(9) 0.1435(2) 0.0463(2)
C13_4 C 0.1918(11) 0.1309(3) 0.0180(3)
H11_4 H 0.131482 0.107541 0.022979
C14_4 C 0.3305(9) 0.1361(2) 0.1180(2)
C15_4 C 0.3211(9) 0.1061(2) 0.1532(2)
C16_4 C 0.2717(9) 0.1932(3) 0.3011(2)
C17_4 C 0.1873(10) 0.2296(2) 0.3017(2)
H12_4 H 0.134405 0.236668 0.279217
C21_4 C 0.3153(9) 0.1235(3) 0.2657(2)
C22_4 C 0.2904(13) 0.0362(3) 0.1855(3)
C24_4 C 0.2912(12) 0.0566(3) 0.2234(2)
H16_4 H 0.278127 0.039701 0.246947
C25_4 C 0.3119(10) 0.1023(3) 0.2255(2)
C26_4 C 0.3509(10) 0.1853(3) 0.3338(3)
H17_4 H 0.410018 0.160968 0.334058
C27_4 C 0.1822(9) 0.2554(3) 0.3364(3)
H18_4 H 0.123839 0.279986 0.337077
C28_4 C 0.1860(17) 0.4069(4) 0.0433(5)
N10_4 N 0.172(2) 0.4363(4) 0.0626(5)
N1_4 N 0.0665(7) 0.2137(2) 0.9211(2)
N3_4 N 0.2423(8) 0.2739(2) 0.9509(2)
N4_4 N 0.2692(7) 0.18689(19) 0.9734(2)
C3_4 C 0.2342(10) 0.3043(3) 0.9716(3)
C4_4 C 0.1906(10) 0.1532(3) 0.9820(2)
H3_4 H 0.129734 0.143678 0.962226
H6_4 H 0.413737 0.222624 0.995740
N11_2 N 0.4493(7) 0.2252(2) 0.9191(2)
O3_4 O 0.1944(14) 0.9690(3) 0.2089(3)
N9_4 N 0.3282(12) 0.9666(2) 0.1539(3)
H4_4 H 0.387785 0.982202 0.141055
C9_4 C 0.3090(12) 0.9229(3) 0.1411(3)
C10_4 C 0.1991(10) 0.8534(3) 0.1375(3)
H9_4 H 0.129882 0.834675 0.146433
C18_4 C 0.2138(14) 0.8943(3) 0.1553(3)
H13_4 H 0.158922 0.902573 0.177002
C19_4 C 0.3724(10) 0.8672(3) 0.0948(3)
H14_4 H 0.429043 0.857972 0.073826
C20_4 C 0.2631(15) 0.9874(3) 0.1847(3)
C23_4 C 0.3898(11) 0.9086(3) 0.1102(3)
H15_4 H 0.456402 0.927520 0.099802
Au1_4 Au 0.75806(3) 0.21840(2) 0.92162(2)
C1_4 C 0.5651(10) 0.2240(2) 0.9201(2)
C2_4 C 0.9523(9) 0.2138(2) 0.9216(2)
Au1_5 Au 0.25806(3) 0.28160(2) 0.07838(2)
Fe1 Fe 0.75836(10) 0.28087(3) 0.07957(3)
N1_5 N 0.5665(7) 0.2863(2) 0.0789(2)
N3_5 N 0.7423(8) 0.2261(2) 0.0491(2)
N4_5 N 0.7692(7) 0.31311(19) 0.0266(2)
C1_5 C 0.0651(10) 0.2760(2) 0.0799(2)
C2_5 C 0.4523(9) 0.2862(2) 0.0784(2)
C3_5 C 0.7342(10) 0.1957(3) 0.0284(3)
C4_5 C 0.6906(10) 0.3468(3) 0.0180(2)
H3_5 H 0.629734 0.356322 0.037774
H6_5 H 0.913737 0.277376 0.004260
N11_3 N 0.9493(7) 0.2748(2) 0.0809(2)
N12_3 N 0.7797(7) 0.3388(2) 0.1078(2)
N13_3 N 0.7443(8) 0.2471(2) 0.13146(18)
Au2_5 Au 0.71272(4) 0.14596(2) 0.99103(2)
O1_5 O 0.8741(8) 0.3266(2) 0.87892(19)
N5_3 N 0.7797(7) 0.6612(2) 0.8922(2)
N6_3 N 0.7557(8) 0.2529(2) 0.63146(18)
O2_5 O 0.8557(9) 0.3969(2) 0.7058(2)
O3_5 O 0.6944(14) 0.5310(3) 0.7911(3)
N7_5 N 0.7857(9) 0.3804(2) 0.9175(2)
H1_5 H 0.757003 0.407803 0.917878
N8_5 N 0.7740(9) 0.3335(2) 0.7334(2)
H2_5 H 0.746904 0.321624 0.755860
N9_5 N 0.8282(12) 0.5334(2) 0.8461(3)
H4_5 H 0.887785 0.517798 0.858945
C5_5 C 0.8030(11) 0.4389(2) 0.8492(2)
H5_5 H 0.799100 0.452998 0.874421
C6_5 C 0.8563(9) 0.3014(2) 0.9986(2)
C7_5 C 0.8680(9) 0.3217(3) 0.9625(2)
H7_5 H 0.932804 0.312465 0.943805
C8_5 C 0.8430(9) 0.2864(3) 0.6336(3)
H8_5 H 0.901783 0.290979 0.611950
C9_5 C 0.8090(12) 0.5771(3) 0.8589(3)
C10_5 C 0.6991(10) 0.6466(3) 0.8625(3)
H9_5 H 0.629882 0.665325 0.853567
C11_5 C 0.8264(10) 0.3734(3) 0.8098(2)
H10_5 H 0.840082 0.342426 0.808399
C12_5 C 0.7822(9) 0.3565(2) 0.9537(2)
C13_5 C 0.6918(11) 0.3691(3) 0.9820(3)
H11_5 H 0.631482 0.392459 0.977021
C14_5 C 0.8305(9) 0.3639(2) 0.8820(2)
C15_5 C 0.8211(9) 0.3939(2) 0.8468(2)
C16_5 C 0.7717(9) 0.3068(3) 0.6989(2)
C17_5 C 0.6873(10) 0.2704(2) 0.6983(2)
H12_5 H 0.634405 0.263332 0.720783
C18_5 C 0.7138(14) 0.6057(3) 0.8447(3)
H13_5 H 0.658922 0.597427 0.822998
C19_5 C 0.8724(10) 0.6328(3) 0.9052(3)
H14_5 H 0.929043 0.642028 0.926174
C20_5 C 0.7631(15) 0.5126(3) 0.8153(3)
C21_5 C 0.8153(9) 0.3765(3) 0.7343(2)
C22_5 C 0.7904(13) 0.4638(3) 0.8145(3)
C23_5 C 0.8898(11) 0.5914(3) 0.8898(3)
H15_5 H 0.956402 0.572480 0.900198
C24_5 C 0.7912(12) 0.4434(3) 0.7766(2)
H16_5 H 0.778127 0.460299 0.753053
C25_5 C 0.8119(10) 0.3977(3) 0.7745(2)
C26_5 C 0.8509(10) 0.3147(3) 0.6662(3)
H17_5 H 0.910018 0.339032 0.665942
C27_5 C 0.6822(9) 0.2446(3) 0.6636(3)
H18_5 H 0.623839 0.220014 0.662923
C28_5 C 0.6860(17) 0.0931(4) 0.9567(5)
N10_5 N 0.672(2) 0.0637(4) 0.9374(5)
Fe3_2 Fe 0.75836(10) 0.71913(3) 0.92043(3)
Fe4_3 Fe 0.74164(10) 0.21913(3) 0.57957(3)
Au2_6 Au 0.71272(4) 0.85404(2) 0.00897(2)
O1_6 O 0.8741(8) 0.6734(2) 0.12108(19)
N6_4 N 0.7557(8) 0.7471(2) 0.36854(18)
O2_6 O 0.8557(9) 0.6031(2) 0.2942(2)
O3_6 O 0.6944(14) 0.4690(3) 0.2089(3)
N7_6 N 0.7857(9) 0.6196(2) 0.0825(2)
H1_6 H 0.757003 0.592197 0.082122
N8_6 N 0.7740(9) 0.6665(2) 0.2666(2)
H2_6 H 0.746904 0.678376 0.244140
N9_6 N 0.8282(12) 0.4666(2) 0.1539(3)
H4_6 H 0.887785 0.482202 0.141055
C5_6 C 0.8030(11) 0.5611(2) 0.1508(2)
H5_6 H 0.799100 0.547002 0.125579
C6_6 C 0.8563(9) 0.6986(2) 0.0014(2)
C7_6 C 0.8680(9) 0.6783(3) 0.0375(2)
H7_6 H 0.932804 0.687535 0.056195
C8_6 C 0.8430(9) 0.7136(3) 0.3664(3)
H8_6 H 0.901783 0.709021 0.388050
C9_6 C 0.8090(12) 0.4229(3) 0.1411(3)
C10_6 C 0.6991(10) 0.3534(3) 0.1375(3)
H9_6 H 0.629882 0.334675 0.146433
C11_6 C 0.8264(10) 0.6266(3) 0.1902(2)
H10_6 H 0.840082 0.657574 0.191601
C12_6 C 0.7822(9) 0.6435(2) 0.0463(2)
C13_6 C 0.6918(11) 0.6309(3) 0.0180(3)
H11_6 H 0.631482 0.607541 0.022979
C14_6 C 0.8305(9) 0.6361(2) 0.1180(2)
C15_6 C 0.8211(9) 0.6061(2) 0.1532(2)
C16_6 C 0.7717(9) 0.6932(3) 0.3011(2)
C17_6 C 0.6873(10) 0.7296(2) 0.3017(2)
H12_6 H 0.634405 0.736668 0.279217
C18_6 C 0.7138(14) 0.3943(3) 0.1553(3)
H13_6 H 0.658922 0.402573 0.177002
C19_6 C 0.8724(10) 0.3672(3) 0.0948(3)
H14_6 H 0.929043 0.357972 0.073826
C20_6 C 0.7631(15) 0.4874(3) 0.1847(3)
C21_6 C 0.8153(9) 0.6235(3) 0.2657(2)
C22_6 C 0.7904(13) 0.5362(3) 0.1855(3)
C23_6 C 0.8898(11) 0.4086(3) 0.1102(3)
H15_6 H 0.956402 0.427520 0.099802
C24_6 C 0.7912(12) 0.5566(3) 0.2234(2)
H16_6 H 0.778127 0.539701 0.246947
C25_6 C 0.8119(10) 0.6023(3) 0.2255(2)
C26_6 C 0.8509(10) 0.6853(3) 0.3338(3)
H17_6 H 0.910018 0.660968 0.334058
C27_6 C 0.6822(9) 0.7554(3) 0.3364(3)
H18_6 H 0.623839 0.779986 0.337077
C28_6 C 0.6860(17) 0.9069(4) 0.0433(5)
N10_6 N 0.672(2) 0.9363(4) 0.0626(5)
Fe4_4 Fe 0.74164(10) 0.78087(3) 0.42043(3)
Au1_6 Au 0.25806(3) 0.71840(2) 0.92162(2)
N1_6 N 0.5665(7) 0.7137(2) 0.9211(2)
N3_6 N 0.7423(8) 0.7739(2) 0.9509(2)
N4_6 N 0.7692(7) 0.68689(19) 0.9734(2)
C1_6 C 0.0651(10) 0.7240(2) 0.9201(2)
C2_6 C 0.4523(9) 0.7138(2) 0.9216(2)
C3_6 C 0.7342(10) 0.8043(3) 0.9716(3)
C4_6 C 0.6906(10) 0.6532(3) 0.9820(2)
H3_6 H 0.629734 0.643678 0.962226
H6_6 H 0.913737 0.722624 0.995740
N11_4 N 0.9493(7) 0.7252(2) 0.9191(2)
N13_4 N 0.7443(8) 0.7529(2) 0.86854(18)
Au1_7 Au 0.24194(3) 0.21840(2) 0.57838(2)
N2_3 N 0.5507(7) 0.2252(2) 0.5809(2)
C1_7 C 0.4349(10) 0.2240(2) 0.5799(2)
C2_7 C 0.0477(9) 0.2138(2) 0.5784(2)
Au2_7 Au 0.78728(4) 0.35404(2) 0.49103(2)
N1_7 N 0.9335(7) 0.2137(2) 0.5789(2)
N3_7 N 0.7577(8) 0.2739(2) 0.5491(2)
N4_7 N 0.7308(7) 0.18689(19) 0.5266(2)
O1_7 O 0.6259(8) 0.1734(2) 0.37892(19)
O2_7 O 0.6443(9) 0.1031(2) 0.2058(2)
C3_7 C 0.7658(10) 0.3043(3) 0.5284(3)
N7_7 N 0.7143(9) 0.1196(2) 0.4175(2)
H1_7 H 0.742997 0.092197 0.417878
N8_7 N 0.7260(9) 0.1665(2) 0.2334(2)
H2_7 H 0.753096 0.178376 0.255860
C4_7 C 0.8094(10) 0.1532(3) 0.5180(2)
H3_7 H 0.870266 0.143678 0.537774
C5_7 C 0.6970(11) 0.0611(2) 0.3492(2)
H5_7 H 0.700900 0.047002 0.374421
C6_7 C 0.6437(9) 0.1986(2) 0.4986(2)
H6_7 H 0.586263 0.222624 0.504260
C7_7 C 0.6320(9) 0.1783(3) 0.4625(2)
H7_7 H 0.567196 0.187535 0.443805
C8_7 C 0.6570(9) 0.2136(3) 0.1336(3)
H8_7 H 0.598217 0.209021 0.111950
C11_7 C 0.6736(10) 0.1266(3) 0.3098(2)
H10_7 H 0.659918 0.157574 0.308399
C12_7 C 0.7178(9) 0.1435(2) 0.4537(2)
C13_7 C 0.8082(11) 0.1309(3) 0.4820(3)
H11_7 H 0.868518 0.107541 0.477021
C14_7 C 0.6695(9) 0.1361(2) 0.3820(2)
C15_7 C 0.6789(9) 0.1061(2) 0.3468(2)
C16_7 C 0.7283(9) 0.1932(3) 0.1989(2)
C17_7 C 0.8127(10) 0.2296(2) 0.1983(2)
H12_7 H 0.865595 0.236668 0.220783
C21_7 C 0.6847(9) 0.1235(3) 0.2343(2)
C22_7 C 0.7096(13) 0.0362(3) 0.3145(3)
C24_7 C 0.7088(12) 0.0566(3) 0.2766(2)
H16_7 H 0.721873 0.039701 0.253053
C25_7 C 0.6881(10) 0.1023(3) 0.2745(2)
C26_7 C 0.6491(10) 0.1853(3) 0.1662(3)
H17_7 H 0.589982 0.160968 0.165942
C27_7 C 0.8178(9) 0.2554(3) 0.1636(3)
H18_7 H 0.876161 0.279986 0.162923
C28_7 C 0.8140(17) 0.4069(4) 0.4567(5)
N10_7 N 0.828(2) 0.4363(4) 0.4374(5)
N12_4 N 0.7203(7) 0.1612(2) 0.6078(2)
N5_4 N 0.7203(7) 0.8388(2) 0.3922(2)
O3_7 O 0.8056(14) 0.9690(3) 0.2911(3)
N9_7 N 0.6718(12) 0.9666(2) 0.3461(3)
H4_7 H 0.612215 0.982202 0.358945
C9_7 C 0.6910(12) 0.9229(3) 0.3589(3)
C10_7 C 0.8009(10) 0.8534(3) 0.3625(3)
H9_7 H 0.870118 0.834675 0.353567
C18_7 C 0.7862(14) 0.8943(3) 0.3447(3)
H13_7 H 0.841078 0.902573 0.322998
C19_7 C 0.6276(10) 0.8672(3) 0.4052(3)
H14_7 H 0.570957 0.857972 0.426174
C20_7 C 0.7369(15) 0.9874(3) 0.3153(3)
C23_7 C 0.6102(11) 0.9086(3) 0.3898(3)
H15_7 H 0.543598 0.927520 0.400198
Au1_8 Au 0.24194(3) 0.78160(2) 0.42162(2)
N2_4 N 0.5507(7) 0.7748(2) 0.4191(2)
C1_8 C 0.4349(10) 0.7760(2) 0.4201(2)
C2_8 C 0.0477(9) 0.7862(2) 0.4216(2)
O3_8 O 0.8056(14) 0.0310(3) 0.7089(3)
N9_8 N 0.6718(12) 0.0334(2) 0.6539(3)
H4_8 H 0.612215 0.017798 0.641055
C9_8 C 0.6910(12) 0.0771(3) 0.6411(3)
C10_8 C 0.8009(10) 0.1466(3) 0.6375(3)
H9_8 H 0.870118 0.165325 0.646433
C18_8 C 0.7862(14) 0.1057(3) 0.6553(3)
H13_8 H 0.841078 0.097427 0.677002
C19_8 C 0.6276(10) 0.1328(3) 0.5948(3)
H14_8 H 0.570957 0.142028 0.573826
C20_8 C 0.7369(15) 0.0126(3) 0.6847(3)
C23_8 C 0.6102(11) 0.0914(3) 0.6102(3)
H15_8 H 0.543598 0.072480 0.599802
Au2_8 Au 0.78728(4) 0.64596(2) 0.50897(2)
N1_8 N 0.9335(7) 0.7863(2) 0.4211(2)
N3_8 N 0.7577(8) 0.7261(2) 0.4509(2)
N4_8 N 0.7308(7) 0.81311(19) 0.4734(2)
O1_8 O 0.6259(8) 0.8266(2) 0.62108(19)
O2_8 O 0.6443(9) 0.8969(2) 0.7942(2)
C3_8 C 0.7658(10) 0.6957(3) 0.4716(3)
N7_8 N 0.7143(9) 0.8804(2) 0.5825(2)
H1_8 H 0.742997 0.907803 0.582122
N8_8 N 0.7260(9) 0.8335(2) 0.7666(2)
H2_8 H 0.753096 0.821624 0.744140
C4_8 C 0.8094(10) 0.8468(3) 0.4820(2)
H3_8 H 0.870266 0.856322 0.462226
C5_8 C 0.6970(11) 0.9389(2) 0.6508(2)
H5_8 H 0.700900 0.952998 0.625579
C6_8 C 0.6437(9) 0.8014(2) 0.5014(2)
H6_8 H 0.586263 0.777376 0.495740
C7_8 C 0.6320(9) 0.8217(3) 0.5375(2)
H7_8 H 0.567196 0.812465 0.556195
C8_8 C 0.6570(9) 0.7864(3) 0.8664(3)
H8_8 H 0.598217 0.790979 0.888050
C11_8 C 0.6736(10) 0.8734(3) 0.6902(2)
H10_8 H 0.659918 0.842426 0.691601
C12_8 C 0.7178(9) 0.8565(2) 0.5463(2)
C13_8 C 0.8082(11) 0.8691(3) 0.5180(3)
H11_8 H 0.868518 0.892459 0.522979
C14_8 C 0.6695(9) 0.8639(2) 0.6180(2)
C15_8 C 0.6789(9) 0.8939(2) 0.6532(2)
C16_8 C 0.7283(9) 0.8068(3) 0.8011(2)
C17_8 C 0.8127(10) 0.7704(2) 0.8017(2)
H12_8 H 0.865595 0.763332 0.779217
C21_8 C 0.6847(9) 0.8765(3) 0.7657(2)
C22_8 C 0.7096(13) 0.9638(3) 0.6855(3)
C24_8 C 0.7088(12) 0.9434(3) 0.7234(2)
H16_8 H 0.721873 0.960299 0.746947
C25_8 C 0.6881(10) 0.8977(3) 0.7255(2)
C26_8 C 0.6491(10) 0.8147(3) 0.8338(3)
H17_8 H 0.589982 0.839032 0.834058
C27_8 C 0.8178(9) 0.7446(3) 0.8364(3)
H18_8 H 0.876161 0.720014 0.837077
C28_8 C 0.8140(17) 0.5931(4) 0.5433(5)
N10_8 N 0.828(2) 0.5637(4) 0.5626(5)
loop_
_geom_bond_atom_site_label_1
_geom_bond_atom_site_label_2
_geom_bond_site_symmetry_1
_geom_bond_site_symmetry_2
Fe2 N2 1_555 1_555
Au1 C1 1_555 1_555
Au2 C3 1_555 1_555
Fe2 N1 1_555 1_555
N1 C2 1_555 1_555
N3 Fe2 1_555 1_555
N4 Fe2 1_555 1_555
O1 C14 1_555 1_555
N5 C10 1_555 1_555
N6 C8 1_555 1_555
O2 C21 1_555 1_555
C2 Au1 1_555 1_555
C3 N3 1_555 1_555
O3 C20 1_555 1_555
N7 H1 1_555 1_555
N8 H2 1_555 1_555
C4 N4 1_555 1_555
H3 C4 1_555 1_555
N9 H4 1_555 1_555
C5 H5 1_555 1_555
C6 N4 1_555 1_555
H6 C6 1_555 1_555
C7 C6 1_555 1_555
H7 C7 1_555 1_555
C8 H8 1_555 1_555
C9 N9 1_555 1_555
C10 H9 1_555 1_555
C11 H10 1_555 1_555
C12 N7 1_555 1_555
C13 C4 1_555 1_555
H11 C13 1_555 1_555
C14 N7 1_555 1_555
C15 C5 1_555 1_555
C16 N8 1_555 1_555
C17 C16 1_555 1_555
H12 C17 1_555 1_555
C18 C9 1_555 1_555
H13 C18 1_555 1_555
C19 N5 1_555 1_555
H14 C19 1_555 1_555
C20 N9 1_555 1_555
C21 N8 1_555 1_555
C22 C5 1_555 1_555
C23 C9 1_555 1_555
H15 C23 1_555 1_555
C24 C22 1_555 1_555
H16 C24 1_555 1_555
C25 C11 1_555 1_555
C26 C8 1_555 1_555
H17 C26 1_555 1_555
C27 N6 1_555 1_555
H18 C27 1_555 1_555
C28 Au2 1_555 1_555
N10 C28 1_555 1_555
Fe3 N5 1_555 1_555
Fe4 N6 1_555 1_555
N12 Fe2 1_555 1_555
N13 Fe2 1_555 1_555
C7 C12 1_555 1_555
C10 C18 1_555 1_555
C11 C15 1_555 1_555
C12 C13 1_555 1_555
C14 C15 1_555 1_555
C16 C26 1_555 1_555
C17 C27 1_555 1_555
C19 C23 1_555 1_555
C20 C22 1_555 1_555
C21 C25 1_555 1_555
C24 C25 1_555 1_555
Fe3 N2_2 1_555 1_555
Au1_2 C1_2 1_555 1_555
Au2_2 C3_2 1_555 1_555
Fe3 N1_2 1_555 1_555
N1_2 C2_2 1_555 1_555
N3_2 Fe3 1_555 1_555
N4_2 Fe3 1_555 1_555
O1_2 C14_2 1_555 1_555
N12 C10_2 1_555 1_555
N6_2 C8_2 1_555 1_555
O2_2 C21_2 1_555 1_555
C2_2 Au1_2 1_555 1_555
C3_2 N3_2 1_555 1_555
O3_2 C20_2 1_555 1_555
N7_2 H1_2 1_555 1_555
N8_2 H2_2 1_555 1_555
C4_2 N4_2 1_555 1_555
H3_2 C4_2 1_555 1_555
N9_2 H4_2 1_555 1_555
C5_2 H5_2 1_555 1_555
C6_2 N4_2 1_555 1_555
H6_2 C6_2 1_555 1_555
C7_2 C6_2 1_555 1_555
H7_2 C7_2 1_555 1_555
C8_2 H8_2 1_555 1_555
C9_2 N9_2 1_555 1_555
C10_2 H9_2 1_555 1_555
C11_2 H10_2 1_555 1_555
C12_2 N7_2 1_555 1_555
C13_2 C4_2 1_555 1_555
H11_2 C13_2 1_555 1_555
C14_2 N7_2 1_555 1_555
C15_2 C5_2 1_555 1_555
C16_2 N8_2 1_555 1_555
C17_2 C16_2 1_555 1_555
H12_2 C17_2 1_555 1_555
C18_2 C9_2 1_555 1_555
H13_2 C18_2 1_555 1_555
C19_2 N12 1_555 1_555
H14_2 C19_2 1_555 1_555
C20_2 N9_2 1_555 1_555
C21_2 N8_2 1_555 1_555
C22_2 C5_2 1_555 1_555
C23_2 C9_2 1_555 1_555
H15_2 C23_2 1_555 1_555
C24_2 C22_2 1_555 1_555
H16_2 C24_2 1_555 1_555
C25_2 C11_2 1_555 1_555
C26_2 C8_2 1_555 1_555
H17_2 C26_2 1_555 1_555
C27_2 N6_2 1_555 1_555
H18_2 C27_2 1_555 1_555
C28_2 Au2_2 1_555 1_555
N10_2 C28_2 1_555 1_555
Fe4_2 N6_2 1_555 1_555
N13_2 Fe3 1_555 1_555
C7_2 C12_2 1_555 1_555
C10_2 C18_2 1_555 1_555
C11_2 C15_2 1_555 1_555
C12_2 C13_2 1_555 1_555
C14_2 C15_2 1_555 1_555
C16_2 C26_2 1_555 1_555
C17_2 C27_2 1_555 1_555
C19_2 C23_2 1_555 1_555
C20_2 C22_2 1_555 1_555
C21_2 C25_2 1_555 1_555
C24_2 C25_2 1_555 1_555
N5_2 C10_3 1_555 1_555
O3_3 C20_3 1_555 1_555
N9_3 H4_3 1_555 1_555
C9_3 N9_3 1_555 1_555
C10_3 H9_3 1_555 1_555
C18_3 C9_3 1_555 1_555
H13_3 C18_3 1_555 1_555
C19_3 N5_2 1_555 1_555
H14_3 C19_3 1_555 1_555
C20_3 N9_3 1_555 1_555
C23_3 C9_3 1_555 1_555
H15_3 C23_3 1_555 1_555
Fe4_2 N5_2 1_555 1_555
C10_3 C18_3 1_555 1_555
C19_3 C23_3 1_555 1_555
Fe4 N1_3 1_555 1_555
N3_3 Fe4 1_555 1_555
N4_3 Fe4 1_555 1_555
C3_3 N3_3 1_555 1_555
C4_3 N4_3 1_555 1_555
H3_3 C4_3 1_555 1_555
N11 Fe4 1_555 1_555
N12_2 Fe4 1_555 1_555
O1_3 C14_3 1_555 1_555
N13 C8_3 1_555 1_555
O2_3 C21_3 1_555 1_555
N7_3 H1_3 1_555 1_555
N8_3 H2_3 1_555 1_555
C5_3 H5_3 1_555 1_555
C7_3 C6_3 1_555 1_555
H7_3 C7_3 1_555 1_555
C8_3 H8_3 1_555 1_555
C11_3 H10_3 1_555 1_555
C12_3 N7_3 1_555 1_555
H11_3 C13_3 1_555 1_555
C14_3 N7_3 1_555 1_555
C15_3 C5_3 1_555 1_555
C16_3 N8_3 1_555 1_555
C17_3 C16_3 1_555 1_555
H12_3 C17_3 1_555 1_555
C21_3 N8_3 1_555 1_555
C22_3 C5_3 1_555 1_555
C24_3 C22_3 1_555 1_555
H16_3 C24_3 1_555 1_555
C25_3 C11_3 1_555 1_555
C26_3 C8_3 1_555 1_555
H17_3 C26_3 1_555 1_555
C27_3 N13 1_555 1_555
H18_3 C27_3 1_555 1_555
C28_3 Au2_3 1_555 1_555
N10_3 C28_3 1_555 1_555
C7_3 C12_3 1_555 1_555
C11_3 C15_3 1_555 1_555
C12_3 C13_3 1_555 1_555
C14_3 C15_3 1_555 1_555
C16_3 C26_3 1_555 1_555
C17_3 C27_3 1_555 1_555
C21_3 C25_3 1_555 1_555
C24_3 C25_3 1_555 1_555
Au1_3 C1_3 1_555 1_555
N11 C1_3 1_555 1_555
C2_3 Au1_3 1_555 1_555
O1_4 C14_4 1_555 1_555
N13_2 C8_4 1_555 1_555
O2_4 C21_4 1_555 1_555
N7_4 H1_4 1_555 1_555
N8_4 H2_4 1_555 1_555
C5_4 H5_4 1_555 1_555
C7_4 C6_4 1_555 1_555
H7_4 C7_4 1_555 1_555
C8_4 H8_4 1_555 1_555
C11_4 H10_4 1_555 1_555
C12_4 N7_4 1_555 1_555
H11_4 C13_4 1_555 1_555
C14_4 N7_4 1_555 1_555
C15_4 C5_4 1_555 1_555
C16_4 N8_4 1_555 1_555
C17_4 C16_4 1_555 1_555
H12_4 C17_4 1_555 1_555
C21_4 N8_4 1_555 1_555
C22_4 C5_4 1_555 1_555
C24_4 C22_4 1_555 1_555
H16_4 C24_4 1_555 1_555
C25_4 C11_4 1_555 1_555
C26_4 C8_4 1_555 1_555
H17_4 C26_4 1_555 1_555
C27_4 N13_2 1_555 1_555
H18_4 C27_4 1_555 1_555
C28_4 Au2_4 1_555 1_555
N10_4 C28_4 1_555 1_555
C7_4 C12_4 1_555 1_555
C11_4 C15_4 1_555 1_555
C12_4 C13_4 1_555 1_555
C14_4 C15_4 1_555 1_555
C16_4 C26_4 1_555 1_555
C17_4 C27_4 1_555 1_555
C21_4 C25_4 1_555 1_555
C24_4 C25_4 1_555 1_555
Fe4_2 N1_4 1_555 1_555
N3_4 Fe4_2 1_555 1_555
N4_4 Fe4_2 1_555 1_555
C3_4 N3_4 1_555 1_555
C4_4 N4_4 1_555 1_555
H3_4 C4_4 1_555 1_555
N11_2 Fe4_2 1_555 1_555
N12_2 C10_4 1_555 1_555
O3_4 C20_4 1_555 1_555
N9_4 H4_4 1_555 1_555
C9_4 N9_4 1_555 1_555
C10_4 H9_4 1_555 1_555
C18_4 C9_4 1_555 1_555
H13_4 C18_4 1_555 1_555
C19_4 N12_2 1_555 1_555
H14_4 C19_4 1_555 1_555
C20_4 N9_4 1_555 1_555
C23_4 C9_4 1_555 1_555
H15_4 C23_4 1_555 1_555
C10_4 C18_4 1_555 1_555
C19_4 C23_4 1_555 1_555
Au1_4 C1_4 1_555 1_555
N11_2 C1_4 1_555 1_555
C2_4 Au1_4 1_555 1_555
Au1_5 C1_5 1_555 1_555
Fe1 N1_5 1_555 1_555
N1_5 C2_5 1_555 1_555
N3_5 Fe1 1_555 1_555
N4_5 Fe1 1_555 1_555
C2_5 Au1_5 1_555 1_555
C3_5 N3_5 1_555 1_555
C4_5 N4_5 1_555 1_555
H3_5 C4_5 1_555 1_555
N11_3 Fe1 1_555 1_555
N12_3 Fe1 1_555 1_555
N13_3 Fe1 1_555 1_555
O1_5 C14_5 1_555 1_555
N5_3 C10_5 1_555 1_555
N6_3 C8_5 1_555 1_555
O2_5 C21_5 1_555 1_555
O3_5 C20_5 1_555 1_555
N7_5 H1_5 1_555 1_555
N8_5 H2_5 1_555 1_555
N9_5 H4_5 1_555 1_555
C5_5 H5_5 1_555 1_555
C7_5 C6_5 1_555 1_555
H7_5 C7_5 1_555 1_555
C8_5 H8_5 1_555 1_555
C9_5 N9_5 1_555 1_555
C10_5 H9_5 1_555 1_555
C11_5 H10_5 1_555 1_555
C12_5 N7_5 1_555 1_555
H11_5 C13_5 1_555 1_555
C14_5 N7_5 1_555 1_555
C15_5 C5_5 1_555 1_555
C16_5 N8_5 1_555 1_555
C17_5 C16_5 1_555 1_555
H12_5 C17_5 1_555 1_555
C18_5 C9_5 1_555 1_555
H13_5 C18_5 1_555 1_555
C19_5 N5_3 1_555 1_555
H14_5 C19_5 1_555 1_555
C20_5 N9_5 1_555 1_555
C21_5 N8_5 1_555 1_555
C22_5 C5_5 1_555 1_555
C23_5 C9_5 1_555 1_555
H15_5 C23_5 1_555 1_555
C24_5 C22_5 1_555 1_555
H16_5 C24_5 1_555 1_555
C25_5 C11_5 1_555 1_555
C26_5 C8_5 1_555 1_555
H17_5 C26_5 1_555 1_555
C27_5 N6_3 1_555 1_555
H18_5 C27_5 1_555 1_555
C28_5 Au2_5 1_555 1_555
N10_5 C28_5 1_555 1_555
Fe3_2 N5_3 1_555 1_555
Fe4_3 N6_3 1_555 1_555
C7_5 C12_5 1_555 1_555
C10_5 C18_5 1_555 1_555
C11_5 C15_5 1_555 1_555
C12_5 C13_5 1_555 1_555
C14_5 C15_5 1_555 1_555
C16_5 C26_5 1_555 1_555
C17_5 C27_5 1_555 1_555
C19_5 C23_5 1_555 1_555
C20_5 C22_5 1_555 1_555
C21_5 C25_5 1_555 1_555
C24_5 C25_5 1_555 1_555
O1_6 C14_6 1_555 1_555
N12_3 C10_6 1_555 1_555
N6_4 C8_6 1_555 1_555
O2_6 C21_6 1_555 1_555
O3_6 C20_6 1_555 1_555
N7_6 H1_6 1_555 1_555
N8_6 H2_6 1_555 1_555
N9_6 H4_6 1_555 1_555
C5_6 H5_6 1_555 1_555
C7_6 C6_6 1_555 1_555
H7_6 C7_6 1_555 1_555
C8_6 H8_6 1_555 1_555
C9_6 N9_6 1_555 1_555
C10_6 H9_6 1_555 1_555
C11_6 H10_6 1_555 1_555
C12_6 N7_6 1_555 1_555
H11_6 C13_6 1_555 1_555
C14_6 N7_6 1_555 1_555
C15_6 C5_6 1_555 1_555
C16_6 N8_6 1_555 1_555
C17_6 C16_6 1_555 1_555
H12_6 C17_6 1_555 1_555
C18_6 C9_6 1_555 1_555
H13_6 C18_6 1_555 1_555
C19_6 N12_3 1_555 1_555
H14_6 C19_6 1_555 1_555
C20_6 N9_6 1_555 1_555
C21_6 N8_6 1_555 1_555
C22_6 C5_6 1_555 1_555
C23_6 C9_6 1_555 1_555
H15_6 C23_6 1_555 1_555
C24_6 C22_6 1_555 1_555
H16_6 C24_6 1_555 1_555
C25_6 C11_6 1_555 1_555
C26_6 C8_6 1_555 1_555
H17_6 C26_6 1_555 1_555
C27_6 N6_4 1_555 1_555
H18_6 C27_6 1_555 1_555
C28_6 Au2_6 1_555 1_555
N10_6 C28_6 1_555 1_555
Fe4_4 N6_4 1_555 1_555
C7_6 C12_6 1_555 1_555
C10_6 C18_6 1_555 1_555
C11_6 C15_6 1_555 1_555
C12_6 C13_6 1_555 1_555
C14_6 C15_6 1_555 1_555
C16_6 C26_6 1_555 1_555
C17_6 C27_6 1_555 1_555
C19_6 C23_6 1_555 1_555
C20_6 C22_6 1_555 1_555
C21_6 C25_6 1_555 1_555
C24_6 C25_6 1_555 1_555
Au1_6 C1_6 1_555 1_555
Fe3_2 N1_6 1_555 1_555
N1_6 C2_6 1_555 1_555
N3_6 Fe3_2 1_555 1_555
N4_6 Fe3_2 1_555 1_555
C2_6 Au1_6 1_555 1_555
C3_6 N3_6 1_555 1_555
C4_6 N4_6 1_555 1_555
H3_6 C4_6 1_555 1_555
N11_4 Fe3_2 1_555 1_555
N13_4 Fe3_2 1_555 1_555
Au1_7 C1_7 1_555 1_555
N2_3 C1_7 1_555 1_555
C2_7 Au1_7 1_555 1_555
Fe4_3 N2_3 1_555 1_555
Au2_7 C3_7 1_555 1_555
Fe4_3 N1_7 1_555 1_555
N3_7 Fe4_3 1_555 1_555
N4_7 Fe4_3 1_555 1_555
O1_7 C14_7 1_555 1_555
N13_3 C8_7 1_555 1_555
O2_7 C21_7 1_555 1_555
C3_7 N3_7 1_555 1_555
N7_7 H1_7 1_555 1_555
N8_7 H2_7 1_555 1_555
C4_7 N4_7 1_555 1_555
H3_7 C4_7 1_555 1_555
C5_7 H5_7 1_555 1_555
C6_7 N4_7 1_555 1_555
H6_7 C6_7 1_555 1_555
C7_7 C6_7 1_555 1_555
H7_7 C7_7 1_555 1_555
C8_7 H8_7 1_555 1_555
C11_7 H10_7 1_555 1_555
C12_7 N7_7 1_555 1_555
C13_7 C4_7 1_555 1_555
H11_7 C13_7 1_555 1_555
C14_7 N7_7 1_555 1_555
C15_7 C5_7 1_555 1_555
C16_7 N8_7 1_555 1_555
C17_7 C16_7 1_555 1_555
H12_7 C17_7 1_555 1_555
C21_7 N8_7 1_555 1_555
C22_7 C5_7 1_555 1_555
C24_7 C22_7 1_555 1_555
H16_7 C24_7 1_555 1_555
C25_7 C11_7 1_555 1_555
C26_7 C8_7 1_555 1_555
H17_7 C26_7 1_555 1_555
C27_7 N13_3 1_555 1_555
H18_7 C27_7 1_555 1_555
C28_7 Au2_7 1_555 1_555
N10_7 C28_7 1_555 1_555
N12_4 Fe4_3 1_555 1_555
C7_7 C12_7 1_555 1_555
C11_7 C15_7 1_555 1_555
C12_7 C13_7 1_555 1_555
C14_7 C15_7 1_555 1_555
C16_7 C26_7 1_555 1_555
C17_7 C27_7 1_555 1_555
C21_7 C25_7 1_555 1_555
C24_7 C25_7 1_555 1_555
N5_4 C10_7 1_555 1_555
O3_7 C20_7 1_555 1_555
N9_7 H4_7 1_555 1_555
C9_7 N9_7 1_555 1_555
C10_7 H9_7 1_555 1_555
C18_7 C9_7 1_555 1_555
H13_7 C18_7 1_555 1_555
C19_7 N5_4 1_555 1_555
H14_7 C19_7 1_555 1_555
C20_7 N9_7 1_555 1_555
C23_7 C9_7 1_555 1_555
H15_7 C23_7 1_555 1_555
Fe4_4 N5_4 1_555 1_555
C10_7 C18_7 1_555 1_555
C19_7 C23_7 1_555 1_555
Au1_8 C1_8 1_555 1_555
N2_4 C1_8 1_555 1_555
C2_8 Au1_8 1_555 1_555
Fe4_4 N2_4 1_555 1_555
N12_4 C10_8 1_555 1_555
O3_8 C20_8 1_555 1_555
N9_8 H4_8 1_555 1_555
C9_8 N9_8 1_555 1_555
C10_8 H9_8 1_555 1_555
C18_8 C9_8 1_555 1_555
H13_8 C18_8 1_555 1_555
C19_8 N12_4 1_555 1_555
H14_8 C19_8 1_555 1_555
C20_8 N9_8 1_555 1_555
C23_8 C9_8 1_555 1_555
H15_8 C23_8 1_555 1_555
C10_8 C18_8 1_555 1_555
C19_8 C23_8 1_555 1_555
Au2_8 C3_8 1_555 1_555
Fe4_4 N1_8 1_555 1_555
N3_8 Fe4_4 1_555 1_555
N4_8 Fe4_4 1_555 1_555
O1_8 C14_8 1_555 1_555
N13_4 C8_8 1_555 1_555
O2_8 C21_8 1_555 1_555
C3_8 N3_8 1_555 1_555
N7_8 H1_8 1_555 1_555
N8_8 H2_8 1_555 1_555
C4_8 N4_8 1_555 1_555
H3_8 C4_8 1_555 1_555
C5_8 H5_8 1_555 1_555
C6_8 N4_8 1_555 1_555
H6_8 C6_8 1_555 1_555
C7_8 C6_8 1_555 1_555
H7_8 C7_8 1_555 1_555
C8_8 H8_8 1_555 1_555
C11_8 H10_8 1_555 1_555
C12_8 N7_8 1_555 1_555
C13_8 C4_8 1_555 1_555
H11_8 C13_8 1_555 1_555
C14_8 N7_8 1_555 1_555
C15_8 C5_8 1_555 1_555
C16_8 N8_8 1_555 1_555
C17_8 C16_8 1_555 1_555
H12_8 C17_8 1_555 1_555
C21_8 N8_8 1_555 1_555
C22_8 C5_8 1_555 1_555
C24_8 C22_8 1_555 1_555
H16_8 C24_8 1_555 1_555
C25_8 C11_8 1_555 1_555
C26_8 C8_8 1_555 1_555
H17_8 C26_8 1_555 1_555
C27_8 N13_4 1_555 1_555
H18_8 C27_8 1_555 1_555
C28_8 Au2_8 1_555 1_555
N10_8 C28_8 1_555 1_555
C7_8 C12_8 1_555 1_555
C11_8 C15_8 1_555 1_555
C12_8 C13_8 1_555 1_555
C14_8 C15_8 1_555 1_555
C16_8 C26_8 1_555 1_555
C17_8 C27_8 1_555 1_555
C21_8 C25_8 1_555 1_555
C24_8 C25_8 1_555 1_555

#END
