
###############################################################################
#
# This file contains modified crystal structure data generated from the
# MOF subset of the Cambridge Structural Database (CSD) v543 
# hosted by the Cambridge Crystallographic Data Centre (CCDC).
#
# This work is licensed under the Creative Commons
# Attribution-NonCommercial-ShareAlike 4.0 International License.
# To view a copy of this license, visit
# http://creativecommons.org/licenses/by-nc-sa/4.0/
# or send a letter to
# Creative Commons, PO Box 1866, Mountain View, CA 94042, USA.
#
# CIF created using the CSD Python API on 29 September 2022
# The structure has been converted into the P1 space group
# The structure has a 3D framework
# The original CSD entry WAMCAS03 is in the orthorhombic crystal system
# The original CSD entry WAMCAS03 is in a Sohncke space group
# The framework has been calculated to contain at least 10.0% void space
# The void calculation uses a probe of radius 1.32A, grid spacing 0.4
#
###############################################################################

data_WAMCAS03
_chemical_formula_moiety         '(C224 H144 Au16 Fe8 N76 O24)n'
_symmetry_cell_setting           triclinic
_symmetry_space_group_name_H-M   'P 1'
_symmetry_Int_Tables_number      1
_space_group_name_Hall           'P 1'
loop_
_symmetry_equiv_pos_site_id
_symmetry_equiv_pos_as_xyz
1 x,y,z
_cell_length_a                   10.100(2)
_cell_length_b                   30.244(6)
_cell_length_c                   33.527(7)
_cell_angle_alpha                90
_cell_angle_beta                 90
_cell_angle_gamma                90
_cell_volume                     10241.3
loop_
_atom_site_label
_atom_site_type_symbol
_atom_site_fract_x
_atom_site_fract_y
_atom_site_fract_z
N2 N 0.0503(6) 0.72531(19) 0.58087(19)
Fe2 Fe 0.24176(8) 0.71919(3) 0.57952(3)
Au1 Au 0.74215(2) 0.71840(2) 0.57837(2)
Au2 Au 0.28714(4) 0.85413(2) 0.49099(2)
N1 N 0.4340(6) 0.71360(19) 0.57879(18)
N3 N 0.2578(6) 0.77397(18) 0.54926(18)
N4 N 0.2315(6) 0.68714(17) 0.52680(18)
O1 O 0.1277(7) 0.67368(19) 0.37865(17)
N5 N 0.2210(7) 0.33860(18) 0.39234(18)
N6 N 0.2431(6) 0.74716(18) 0.13122(16)
C1 C 0.9384(7) 0.7243(2) 0.5801(2)
O2 O 0.1447(8) 0.60320(19) 0.20552(18)
C2 C 0.5457(7) 0.7137(2) 0.5785(2)
C3 C 0.2662(9) 0.8039(2) 0.5282(2)
O3 O 0.3074(12) 0.4689(2) 0.2914(2)
N7 N 0.2147(8) 0.61964(19) 0.41751(18)
H1 H 0.243939 0.592233 0.417802
N8 N 0.2262(8) 0.6666(2) 0.23325(19)
H2 H 0.253547 0.678428 0.255765
C4 C 0.3103(9) 0.6531(2) 0.5182(2)
H3 H 0.371415 0.643578 0.537897
N9 N 0.1725(11) 0.4664(2) 0.3462(2)
H4 H 0.112621 0.482049 0.358967
C5 C 0.1977(9) 0.5609(2) 0.3491(2)
H5 H 0.202158 0.546762 0.374392
C6 C 0.1437(8) 0.6990(2) 0.4987(2)
H6 H 0.086414 0.723085 0.504312
C7 C 0.1315(8) 0.6784(2) 0.4625(2)
H7 H 0.066299 0.687639 0.443894
C8 C 0.1574(7) 0.7135(2) 0.1334(2)
H8 H 0.099663 0.708619 0.111440
C9 C 0.1915(10) 0.4229(2) 0.3592(2)
C10 C 0.3005(9) 0.3529(2) 0.3627(2)
H9 H 0.368997 0.333862 0.353714
C11 C 0.1736(8) 0.6269(2) 0.3097(2)
H10 H 0.159231 0.657875 0.308266
C12 C 0.2178(8) 0.6435(2) 0.4537(2)
C13 C 0.3080(9) 0.6310(3) 0.4822(2)
H11 H 0.368126 0.607516 0.477276
C14 C 0.1699(8) 0.6360(2) 0.3822(2)
C15 C 0.1794(8) 0.6063(2) 0.3469(2)
C16 C 0.2281(8) 0.6932(2) 0.1990(2)
C17 C 0.3117(8) 0.7298(2) 0.1979(2)
H12 H 0.364392 0.737062 0.220391
C18 C 0.2879(11) 0.3939(3) 0.3448(3)
H13 H 0.343614 0.402122 0.323255
C19 C 0.1266(8) 0.3671(2) 0.4050(2)
H14 H 0.069257 0.357799 0.425834
C20 C 0.2382(13) 0.4874(2) 0.3152(3)
C21 C 0.1848(8) 0.6235(2) 0.2341(2)
C22 C 0.2097(11) 0.5360(2) 0.3141(2)
C23 C 0.1090(9) 0.4086(2) 0.3895(3)
H15 H 0.041124 0.427371 0.399516
C24 C 0.2085(11) 0.5569(3) 0.2769(2)
H16 H 0.221139 0.539968 0.253275
C25 C 0.1887(9) 0.6024(2) 0.2744(2)
C26 C 0.1483(8) 0.6852(3) 0.1659(2)
H17 H 0.088806 0.660887 0.165585
C27 C 0.3174(7) 0.7556(2) 0.1634(2)
H18 H 0.376267 0.780090 0.162821
C28 C 0.3129(14) 0.9065(4) 0.4564(4)
N10 N 0.3290(18) 0.9366(4) 0.4366(4)
Fe3 Fe 0.24176(8) 0.28081(3) 0.42048(3)
Fe4 Fe 0.25824(8) 0.78081(3) 0.07952(3)
N12 N 0.2210(7) 0.66140(18) 0.60766(18)
N13 N 0.2569(6) 0.75284(18) 0.63122(16)
N2_2 N 0.0503(6) 0.27469(19) 0.41913(19)
Au1_2 Au 0.74215(2) 0.28160(2) 0.42163(2)
Au2_2 Au 0.28714(4) 0.14587(2) 0.50901(2)
N1_2 N 0.4340(6) 0.28640(19) 0.42121(18)
N3_2 N 0.2578(6) 0.22603(18) 0.45074(18)
N4_2 N 0.2315(6) 0.31286(17) 0.47320(18)
O1_2 O 0.1277(7) 0.32632(19) 0.62135(17)
N6_2 N 0.2431(6) 0.25284(18) 0.86878(16)
C1_2 C 0.9384(7) 0.2757(2) 0.4199(2)
O2_2 O 0.1447(8) 0.39680(19) 0.79448(18)
C2_2 C 0.5457(7) 0.2863(2) 0.4215(2)
C3_2 C 0.2662(9) 0.1961(2) 0.4718(2)
O3_2 O 0.3074(12) 0.5311(2) 0.7086(2)
N7_2 N 0.2147(8) 0.38036(19) 0.58249(18)
H1_2 H 0.243939 0.407767 0.582198
N8_2 N 0.2262(8) 0.3334(2) 0.76675(19)
H2_2 H 0.253547 0.321572 0.744235
C4_2 C 0.3103(9) 0.3469(2) 0.4818(2)
H3_2 H 0.371415 0.356422 0.462103
N9_2 N 0.1725(11) 0.5336(2) 0.6538(2)
H4_2 H 0.112621 0.517951 0.641033
C5_2 C 0.1977(9) 0.4391(2) 0.6509(2)
H5_2 H 0.202158 0.453238 0.625608
C6_2 C 0.1437(8) 0.3010(2) 0.5013(2)
H6_2 H 0.086414 0.276915 0.495688
C7_2 C 0.1315(8) 0.3216(2) 0.5375(2)
H7_2 H 0.066299 0.312361 0.556106
C8_2 C 0.1574(7) 0.2865(2) 0.8666(2)
H8_2 H 0.099663 0.291381 0.888560
C9_2 C 0.1915(10) 0.5771(2) 0.6408(2)
C10_2 C 0.3005(9) 0.6471(2) 0.6373(2)
H9_2 H 0.368997 0.666138 0.646286
C11_2 C 0.1736(8) 0.3731(2) 0.6903(2)
H10_2 H 0.159231 0.342125 0.691734
C12_2 C 0.2178(8) 0.3565(2) 0.5463(2)
C13_2 C 0.3080(9) 0.3690(3) 0.5178(2)
H11_2 H 0.368126 0.392484 0.522724
C14_2 C 0.1699(8) 0.3640(2) 0.6178(2)
C15_2 C 0.1794(8) 0.3937(2) 0.6531(2)
C16_2 C 0.2281(8) 0.3068(2) 0.8010(2)
C17_2 C 0.3117(8) 0.2702(2) 0.8021(2)
H12_2 H 0.364392 0.262938 0.779609
C18_2 C 0.2879(11) 0.6061(3) 0.6552(3)
H13_2 H 0.343614 0.597878 0.676745
C19_2 C 0.1266(8) 0.6329(2) 0.5950(2)
H14_2 H 0.069257 0.642201 0.574166
C20_2 C 0.2382(13) 0.5126(2) 0.6848(3)
C21_2 C 0.1848(8) 0.3765(2) 0.7659(2)
C22_2 C 0.2097(11) 0.4640(2) 0.6859(2)
C23_2 C 0.1090(9) 0.5914(2) 0.6105(3)
H15_2 H 0.041124 0.572629 0.600484
C24_2 C 0.2085(11) 0.4431(3) 0.7231(2)
H16_2 H 0.221139 0.460032 0.746725
C25_2 C 0.1887(9) 0.3976(2) 0.7256(2)
C26_2 C 0.1483(8) 0.3148(3) 0.8341(2)
H17_2 H 0.088806 0.339113 0.834415
C27_2 C 0.3174(7) 0.2444(2) 0.8366(2)
H18_2 H 0.376267 0.219910 0.837179
C28_2 C 0.3129(14) 0.0935(4) 0.5436(4)
N10_2 N 0.3290(18) 0.0634(4) 0.5634(4)
Fe4_2 Fe 0.25824(8) 0.21919(3) 0.92048(3)
N13_2 N 0.2569(6) 0.24716(18) 0.36878(16)
N5_2 N 0.2790(7) 0.16140(18) 0.89234(18)
O3_3 O 0.1926(12) 0.0311(2) 0.7914(2)
N9_3 N 0.3275(11) 0.0336(2) 0.8462(2)
H4_3 H 0.387379 0.017951 0.858967
C9_3 C 0.3085(10) 0.0771(2) 0.8592(2)
C10_3 C 0.1995(9) 0.1471(2) 0.8627(2)
H9_3 H 0.131003 0.166138 0.853714
C18_3 C 0.2121(11) 0.1061(3) 0.8448(3)
H13_3 H 0.156386 0.097878 0.823255
C19_3 C 0.3734(8) 0.1329(2) 0.9050(2)
H14_3 H 0.430743 0.142201 0.925834
C20_3 C 0.2618(13) 0.0126(2) 0.8152(3)
C23_3 C 0.3910(9) 0.0914(2) 0.8895(3)
H15_3 H 0.458876 0.072629 0.899516
N1_3 N 0.0660(6) 0.78640(19) 0.07879(18)
N3_3 N 0.2422(6) 0.72603(18) 0.04926(18)
N4_3 N 0.2685(6) 0.81286(17) 0.02680(18)
C3_3 C 0.2338(9) 0.6961(2) 0.0282(2)
C4_3 C 0.1897(9) 0.8469(2) 0.0182(2)
H3_3 H 0.128585 0.856422 0.037897
H6_3 H 0.413586 0.776915 0.004312
N11 N 0.4497(6) 0.77469(19) 0.08087(19)
N12_2 N 0.2790(7) 0.83860(18) 0.10766(18)
Au2_3 Au 0.21286(4) 0.64587(2) 0.99099(2)
O1_3 O 0.3723(7) 0.82632(19) 0.87865(17)
O2_3 O 0.3553(8) 0.89680(19) 0.70552(18)
N7_3 N 0.2853(8) 0.88036(19) 0.91751(18)
H1_3 H 0.256061 0.907767 0.917802
N8_3 N 0.2738(8) 0.8334(2) 0.73325(19)
H2_3 H 0.246453 0.821572 0.755765
C5_3 C 0.3023(9) 0.9391(2) 0.8491(2)
H5_3 H 0.297842 0.953238 0.874392
C6_3 C 0.3563(8) 0.8010(2) 0.9987(2)
C7_3 C 0.3685(8) 0.8216(2) 0.9625(2)
H7_3 H 0.433701 0.812361 0.943894
C8_3 C 0.3426(7) 0.7865(2) 0.6334(2)
H8_3 H 0.400337 0.791381 0.611440
C11_3 C 0.3264(8) 0.8731(2) 0.8097(2)
H10_3 H 0.340769 0.842125 0.808266
C12_3 C 0.2822(8) 0.8565(2) 0.9537(2)
C13_3 C 0.1920(9) 0.8690(3) 0.9822(2)
H11_3 H 0.131874 0.892484 0.977276
C14_3 C 0.3301(8) 0.8640(2) 0.8822(2)
C15_3 C 0.3206(8) 0.8937(2) 0.8469(2)
C16_3 C 0.2719(8) 0.8068(2) 0.6990(2)
C17_3 C 0.1883(8) 0.7702(2) 0.6979(2)
H12_3 H 0.135608 0.762938 0.720391
C21_3 C 0.3152(8) 0.8765(2) 0.7341(2)
C22_3 C 0.2903(11) 0.9640(2) 0.8141(2)
C24_3 C 0.2915(11) 0.9431(3) 0.7769(2)
H16_3 H 0.278861 0.960032 0.753275
C25_3 C 0.3113(9) 0.8976(2) 0.7744(2)
C26_3 C 0.3517(8) 0.8148(3) 0.6659(2)
H17_3 H 0.411194 0.839113 0.665585
C27_3 C 0.1826(7) 0.7444(2) 0.6634(2)
H18_3 H 0.123733 0.719910 0.662821
C28_3 C 0.1871(14) 0.5935(4) 0.9564(4)
N10_3 N 0.1710(18) 0.5634(4) 0.9366(4)
Au1_3 Au 0.75785(2) 0.78160(2) 0.07837(2)
C1_3 C 0.5616(7) 0.7757(2) 0.0801(2)
C2_3 C 0.9543(7) 0.7863(2) 0.0785(2)
Au2_4 Au 0.21286(4) 0.35413(2) 0.00901(2)
O1_4 O 0.3723(7) 0.17368(19) 0.12135(17)
O2_4 O 0.3553(8) 0.10320(19) 0.29448(18)
N7_4 N 0.2853(8) 0.11964(19) 0.08249(18)
H1_4 H 0.256061 0.092233 0.082198
N8_4 N 0.2738(8) 0.1666(2) 0.26675(19)
H2_4 H 0.246453 0.178428 0.244235
C5_4 C 0.3023(9) 0.0609(2) 0.1509(2)
H5_4 H 0.297842 0.046762 0.125608
C6_4 C 0.3563(8) 0.1990(2) 0.0013(2)
C7_4 C 0.3685(8) 0.1784(2) 0.0375(2)
H7_4 H 0.433701 0.187639 0.056106
C8_4 C 0.3426(7) 0.2135(2) 0.3666(2)
H8_4 H 0.400337 0.208619 0.388560
C11_4 C 0.3264(8) 0.1269(2) 0.1903(2)
H10_4 H 0.340769 0.157875 0.191734
C12_4 C 0.2822(8) 0.1435(2) 0.0463(2)
C13_4 C 0.1920(9) 0.1310(3) 0.0178(2)
H11_4 H 0.131874 0.107516 0.022724
C14_4 C 0.3301(8) 0.1360(2) 0.1178(2)
C15_4 C 0.3206(8) 0.1063(2) 0.1531(2)
C16_4 C 0.2719(8) 0.1932(2) 0.3010(2)
C17_4 C 0.1883(8) 0.2298(2) 0.3021(2)
H12_4 H 0.135608 0.237062 0.279609
C21_4 C 0.3152(8) 0.1235(2) 0.2659(2)
C22_4 C 0.2903(11) 0.0360(2) 0.1859(2)
C24_4 C 0.2915(11) 0.0569(3) 0.2231(2)
H16_4 H 0.278861 0.039968 0.246725
C25_4 C 0.3113(9) 0.1024(2) 0.2256(2)
C26_4 C 0.3517(8) 0.1852(3) 0.3341(2)
H17_4 H 0.411194 0.160887 0.334415
C27_4 C 0.1826(7) 0.2556(2) 0.3366(2)
H18_4 H 0.123733 0.280090 0.337179
C28_4 C 0.1871(14) 0.4065(4) 0.0436(4)
N10_4 N 0.1710(18) 0.4366(4) 0.0634(4)
N1_4 N 0.0660(6) 0.21360(19) 0.92121(18)
N3_4 N 0.2422(6) 0.27397(18) 0.95074(18)
N4_4 N 0.2685(6) 0.18714(17) 0.97320(18)
C3_4 C 0.2338(9) 0.3039(2) 0.9718(2)
C4_4 C 0.1897(9) 0.1531(2) 0.9818(2)
H3_4 H 0.128585 0.143578 0.962103
H6_4 H 0.413586 0.223085 0.995688
N11_2 N 0.4497(6) 0.22531(19) 0.91913(19)
O3_4 O 0.1926(12) 0.9689(2) 0.2086(2)
N9_4 N 0.3275(11) 0.9664(2) 0.1538(2)
H4_4 H 0.387379 0.982049 0.141033
C9_4 C 0.3085(10) 0.9229(2) 0.1408(2)
C10_4 C 0.1995(9) 0.8529(2) 0.1373(2)
H9_4 H 0.131003 0.833862 0.146286
C18_4 C 0.2121(11) 0.8939(3) 0.1552(3)
H13_4 H 0.156386 0.902122 0.176745
C19_4 C 0.3734(8) 0.8671(2) 0.0950(2)
H14_4 H 0.430743 0.857799 0.074166
C20_4 C 0.2618(13) 0.9874(2) 0.1848(3)
C23_4 C 0.3910(9) 0.9086(2) 0.1105(3)
H15_4 H 0.458876 0.927371 0.100484
Au1_4 Au 0.75785(2) 0.21840(2) 0.92163(2)
C1_4 C 0.5616(7) 0.2243(2) 0.9199(2)
C2_4 C 0.9543(7) 0.2137(2) 0.9215(2)
Au1_5 Au 0.25785(2) 0.28160(2) 0.07837(2)
Fe1 Fe 0.75824(8) 0.28081(3) 0.07952(3)
N1_5 N 0.5660(6) 0.28640(19) 0.07879(18)
N3_5 N 0.7422(6) 0.22603(18) 0.04926(18)
N4_5 N 0.7685(6) 0.31286(17) 0.02680(18)
C1_5 C 0.0616(7) 0.2757(2) 0.0801(2)
C2_5 C 0.4543(7) 0.2863(2) 0.0785(2)
C3_5 C 0.7338(9) 0.1961(2) 0.0282(2)
C4_5 C 0.6897(9) 0.3469(2) 0.0182(2)
H3_5 H 0.628585 0.356422 0.037897
H6_5 H 0.913586 0.276915 0.004312
N11_3 N 0.9497(6) 0.27469(19) 0.08087(19)
N12_3 N 0.7790(7) 0.33860(18) 0.10766(18)
N13_3 N 0.7431(6) 0.24716(18) 0.13122(16)
Au2_5 Au 0.71286(4) 0.14587(2) 0.99099(2)
O1_5 O 0.8723(7) 0.32632(19) 0.87865(17)
N5_3 N 0.7790(7) 0.66140(18) 0.89234(18)
N6_3 N 0.7569(6) 0.25284(18) 0.63122(16)
O2_5 O 0.8553(8) 0.39680(19) 0.70552(18)
O3_5 O 0.6926(12) 0.5311(2) 0.7914(2)
N7_5 N 0.7853(8) 0.38036(19) 0.91751(18)
H1_5 H 0.756061 0.407767 0.917802
N8_5 N 0.7738(8) 0.3334(2) 0.73325(19)
H2_5 H 0.746453 0.321572 0.755765
N9_5 N 0.8275(11) 0.5336(2) 0.8462(2)
H4_5 H 0.887379 0.517951 0.858967
C5_5 C 0.8023(9) 0.4391(2) 0.8491(2)
H5_5 H 0.797842 0.453238 0.874392
C6_5 C 0.8563(8) 0.3010(2) 0.9987(2)
C7_5 C 0.8685(8) 0.3216(2) 0.9625(2)
H7_5 H 0.933701 0.312361 0.943894
C8_5 C 0.8426(7) 0.2865(2) 0.6334(2)
H8_5 H 0.900337 0.291381 0.611440
C9_5 C 0.8085(10) 0.5771(2) 0.8592(2)
C10_5 C 0.6995(9) 0.6471(2) 0.8627(2)
H9_5 H 0.631003 0.666138 0.853714
C11_5 C 0.8264(8) 0.3731(2) 0.8097(2)
H10_5 H 0.840769 0.342125 0.808266
C12_5 C 0.7822(8) 0.3565(2) 0.9537(2)
C13_5 C 0.6920(9) 0.3690(3) 0.9822(2)
H11_5 H 0.631874 0.392484 0.977276
C14_5 C 0.8301(8) 0.3640(2) 0.8822(2)
C15_5 C 0.8206(8) 0.3937(2) 0.8469(2)
C16_5 C 0.7719(8) 0.3068(2) 0.6990(2)
C17_5 C 0.6883(8) 0.2702(2) 0.6979(2)
H12_5 H 0.635608 0.262938 0.720391
C18_5 C 0.7121(11) 0.6061(3) 0.8448(3)
H13_5 H 0.656386 0.597878 0.823255
C19_5 C 0.8734(8) 0.6329(2) 0.9050(2)
H14_5 H 0.930743 0.642201 0.925834
C20_5 C 0.7618(13) 0.5126(2) 0.8152(3)
C21_5 C 0.8152(8) 0.3765(2) 0.7341(2)
C22_5 C 0.7903(11) 0.4640(2) 0.8141(2)
C23_5 C 0.8910(9) 0.5914(2) 0.8895(3)
H15_5 H 0.958876 0.572629 0.899516
C24_5 C 0.7915(11) 0.4431(3) 0.7769(2)
H16_5 H 0.778861 0.460032 0.753275
C25_5 C 0.8113(9) 0.3976(2) 0.7744(2)
C26_5 C 0.8517(8) 0.3148(3) 0.6659(2)
H17_5 H 0.911194 0.339113 0.665585
C27_5 C 0.6826(7) 0.2444(2) 0.6634(2)
H18_5 H 0.623733 0.219910 0.662821
C28_5 C 0.6871(14) 0.0935(4) 0.9564(4)
N10_5 N 0.6710(18) 0.0634(4) 0.9366(4)
Fe3_2 Fe 0.75824(8) 0.71919(3) 0.92048(3)
Fe4_3 Fe 0.74176(8) 0.21919(3) 0.57952(3)
Au2_6 Au 0.71286(4) 0.85413(2) 0.00901(2)
O1_6 O 0.8723(7) 0.67368(19) 0.12135(17)
N6_4 N 0.7569(6) 0.74716(18) 0.36878(16)
O2_6 O 0.8553(8) 0.60320(19) 0.29448(18)
O3_6 O 0.6926(12) 0.4689(2) 0.2086(2)
N7_6 N 0.7853(8) 0.61964(19) 0.08249(18)
H1_6 H 0.756061 0.592233 0.082198
N8_6 N 0.7738(8) 0.6666(2) 0.26675(19)
H2_6 H 0.746453 0.678428 0.244235
N9_6 N 0.8275(11) 0.4664(2) 0.1538(2)
H4_6 H 0.887379 0.482049 0.141033
C5_6 C 0.8023(9) 0.5609(2) 0.1509(2)
H5_6 H 0.797842 0.546762 0.125608
C6_6 C 0.8563(8) 0.6990(2) 0.0013(2)
C7_6 C 0.8685(8) 0.6784(2) 0.0375(2)
H7_6 H 0.933701 0.687639 0.056106
C8_6 C 0.8426(7) 0.7135(2) 0.3666(2)
H8_6 H 0.900337 0.708619 0.388560
C9_6 C 0.8085(10) 0.4229(2) 0.1408(2)
C10_6 C 0.6995(9) 0.3529(2) 0.1373(2)
H9_6 H 0.631003 0.333862 0.146286
C11_6 C 0.8264(8) 0.6269(2) 0.1903(2)
H10_6 H 0.840769 0.657875 0.191734
C12_6 C 0.7822(8) 0.6435(2) 0.0463(2)
C13_6 C 0.6920(9) 0.6310(3) 0.0178(2)
H11_6 H 0.631874 0.607516 0.022724
C14_6 C 0.8301(8) 0.6360(2) 0.1178(2)
C15_6 C 0.8206(8) 0.6063(2) 0.1531(2)
C16_6 C 0.7719(8) 0.6932(2) 0.3010(2)
C17_6 C 0.6883(8) 0.7298(2) 0.3021(2)
H12_6 H 0.635608 0.737062 0.279609
C18_6 C 0.7121(11) 0.3939(3) 0.1552(3)
H13_6 H 0.656386 0.402122 0.176745
C19_6 C 0.8734(8) 0.3671(2) 0.0950(2)
H14_6 H 0.930743 0.357799 0.074166
C20_6 C 0.7618(13) 0.4874(2) 0.1848(3)
C21_6 C 0.8152(8) 0.6235(2) 0.2659(2)
C22_6 C 0.7903(11) 0.5360(2) 0.1859(2)
C23_6 C 0.8910(9) 0.4086(2) 0.1105(3)
H15_6 H 0.958876 0.427371 0.100484
C24_6 C 0.7915(11) 0.5569(3) 0.2231(2)
H16_6 H 0.778861 0.539968 0.246725
C25_6 C 0.8113(9) 0.6024(2) 0.2256(2)
C26_6 C 0.8517(8) 0.6852(3) 0.3341(2)
H17_6 H 0.911194 0.660887 0.334415
C27_6 C 0.6826(7) 0.7556(2) 0.3366(2)
H18_6 H 0.623733 0.780090 0.337179
C28_6 C 0.6871(14) 0.9065(4) 0.0436(4)
N10_6 N 0.6710(18) 0.9366(4) 0.0634(4)
Fe4_4 Fe 0.74176(8) 0.78081(3) 0.42048(3)
Au1_6 Au 0.25785(2) 0.71840(2) 0.92163(2)
N1_6 N 0.5660(6) 0.71360(19) 0.92121(18)
N3_6 N 0.7422(6) 0.77397(18) 0.95074(18)
N4_6 N 0.7685(6) 0.68714(17) 0.97320(18)
C1_6 C 0.0616(7) 0.7243(2) 0.9199(2)
C2_6 C 0.4543(7) 0.7137(2) 0.9215(2)
C3_6 C 0.7338(9) 0.8039(2) 0.9718(2)
C4_6 C 0.6897(9) 0.6531(2) 0.9818(2)
H3_6 H 0.628585 0.643578 0.962103
H6_6 H 0.913586 0.723085 0.995688
N11_4 N 0.9497(6) 0.72531(19) 0.91913(19)
N13_4 N 0.7431(6) 0.75284(18) 0.86878(16)
Au1_7 Au 0.24215(2) 0.21840(2) 0.57837(2)
N2_3 N 0.5503(6) 0.22531(19) 0.58087(19)
C1_7 C 0.4384(7) 0.2243(2) 0.5801(2)
C2_7 C 0.0457(7) 0.2137(2) 0.5785(2)
Au2_7 Au 0.78714(4) 0.35413(2) 0.49099(2)
N1_7 N 0.9340(6) 0.21360(19) 0.57879(18)
N3_7 N 0.7578(6) 0.27397(18) 0.54926(18)
N4_7 N 0.7315(6) 0.18714(17) 0.52680(18)
O1_7 O 0.6277(7) 0.17368(19) 0.37865(17)
O2_7 O 0.6447(8) 0.10320(19) 0.20552(18)
C3_7 C 0.7662(9) 0.3039(2) 0.5282(2)
N7_7 N 0.7147(8) 0.11964(19) 0.41751(18)
H1_7 H 0.743939 0.092233 0.417802
N8_7 N 0.7262(8) 0.1666(2) 0.23325(19)
H2_7 H 0.753547 0.178428 0.255765
C4_7 C 0.8103(9) 0.1531(2) 0.5182(2)
H3_7 H 0.871415 0.143578 0.537897
C5_7 C 0.6977(9) 0.0609(2) 0.3491(2)
H5_7 H 0.702158 0.046762 0.374392
C6_7 C 0.6437(8) 0.1990(2) 0.4987(2)
H6_7 H 0.586414 0.223085 0.504312
C7_7 C 0.6315(8) 0.1784(2) 0.4625(2)
H7_7 H 0.566299 0.187639 0.443894
C8_7 C 0.6574(7) 0.2135(2) 0.1334(2)
H8_7 H 0.599663 0.208619 0.111440
C11_7 C 0.6736(8) 0.1269(2) 0.3097(2)
H10_7 H 0.659231 0.157875 0.308266
C12_7 C 0.7178(8) 0.1435(2) 0.4537(2)
C13_7 C 0.8080(9) 0.1310(3) 0.4822(2)
H11_7 H 0.868126 0.107516 0.477276
C14_7 C 0.6699(8) 0.1360(2) 0.3822(2)
C15_7 C 0.6794(8) 0.1063(2) 0.3469(2)
C16_7 C 0.7281(8) 0.1932(2) 0.1990(2)
C17_7 C 0.8117(8) 0.2298(2) 0.1979(2)
H12_7 H 0.864392 0.237062 0.220391
C21_7 C 0.6848(8) 0.1235(2) 0.2341(2)
C22_7 C 0.7097(11) 0.0360(2) 0.3141(2)
C24_7 C 0.7085(11) 0.0569(3) 0.2769(2)
H16_7 H 0.721139 0.039968 0.253275
C25_7 C 0.6887(9) 0.1024(2) 0.2744(2)
C26_7 C 0.6483(8) 0.1852(3) 0.1659(2)
H17_7 H 0.588806 0.160887 0.165585
C27_7 C 0.8174(7) 0.2556(2) 0.1634(2)
H18_7 H 0.876267 0.280090 0.162821
C28_7 C 0.8129(14) 0.4065(4) 0.4564(4)
N10_7 N 0.8290(18) 0.4366(4) 0.4366(4)
N12_4 N 0.7210(7) 0.16140(18) 0.60766(18)
N5_4 N 0.7210(7) 0.83860(18) 0.39234(18)
O3_7 O 0.8074(12) 0.9689(2) 0.2914(2)
N9_7 N 0.6725(11) 0.9664(2) 0.3462(2)
H4_7 H 0.612621 0.982049 0.358967
C9_7 C 0.6915(10) 0.9229(2) 0.3592(2)
C10_7 C 0.8005(9) 0.8529(2) 0.3627(2)
H9_7 H 0.868997 0.833862 0.353714
C18_7 C 0.7879(11) 0.8939(3) 0.3448(3)
H13_7 H 0.843614 0.902122 0.323255
C19_7 C 0.6266(8) 0.8671(2) 0.4050(2)
H14_7 H 0.569257 0.857799 0.425834
C20_7 C 0.7382(13) 0.9874(2) 0.3152(3)
C23_7 C 0.6090(9) 0.9086(2) 0.3895(3)
H15_7 H 0.541124 0.927371 0.399516
Au1_8 Au 0.24215(2) 0.78160(2) 0.42163(2)
N2_4 N 0.5503(6) 0.77469(19) 0.41913(19)
C1_8 C 0.4384(7) 0.7757(2) 0.4199(2)
C2_8 C 0.0457(7) 0.7863(2) 0.4215(2)
O3_8 O 0.8074(12) 0.0311(2) 0.7086(2)
N9_8 N 0.6725(11) 0.0336(2) 0.6538(2)
H4_8 H 0.612621 0.017951 0.641033
C9_8 C 0.6915(10) 0.0771(2) 0.6408(2)
C10_8 C 0.8005(9) 0.1471(2) 0.6373(2)
H9_8 H 0.868997 0.166138 0.646286
C18_8 C 0.7879(11) 0.1061(3) 0.6552(3)
H13_8 H 0.843614 0.097878 0.676745
C19_8 C 0.6266(8) 0.1329(2) 0.5950(2)
H14_8 H 0.569257 0.142201 0.574166
C20_8 C 0.7382(13) 0.0126(2) 0.6848(3)
C23_8 C 0.6090(9) 0.0914(2) 0.6105(3)
H15_8 H 0.541124 0.072629 0.600484
Au2_8 Au 0.78714(4) 0.64587(2) 0.50901(2)
N1_8 N 0.9340(6) 0.78640(19) 0.42121(18)
N3_8 N 0.7578(6) 0.72603(18) 0.45074(18)
N4_8 N 0.7315(6) 0.81286(17) 0.47320(18)
O1_8 O 0.6277(7) 0.82632(19) 0.62135(17)
O2_8 O 0.6447(8) 0.89680(19) 0.79448(18)
C3_8 C 0.7662(9) 0.6961(2) 0.4718(2)
N7_8 N 0.7147(8) 0.88036(19) 0.58249(18)
H1_8 H 0.743939 0.907767 0.582198
N8_8 N 0.7262(8) 0.8334(2) 0.76675(19)
H2_8 H 0.753547 0.821572 0.744235
C4_8 C 0.8103(9) 0.8469(2) 0.4818(2)
H3_8 H 0.871415 0.856422 0.462103
C5_8 C 0.6977(9) 0.9391(2) 0.6509(2)
H5_8 H 0.702158 0.953238 0.625608
C6_8 C 0.6437(8) 0.8010(2) 0.5013(2)
H6_8 H 0.586414 0.776915 0.495688
C7_8 C 0.6315(8) 0.8216(2) 0.5375(2)
H7_8 H 0.566299 0.812361 0.556106
C8_8 C 0.6574(7) 0.7865(2) 0.8666(2)
H8_8 H 0.599663 0.791381 0.888560
C11_8 C 0.6736(8) 0.8731(2) 0.6903(2)
H10_8 H 0.659231 0.842125 0.691734
C12_8 C 0.7178(8) 0.8565(2) 0.5463(2)
C13_8 C 0.8080(9) 0.8690(3) 0.5178(2)
H11_8 H 0.868126 0.892484 0.522724
C14_8 C 0.6699(8) 0.8640(2) 0.6178(2)
C15_8 C 0.6794(8) 0.8937(2) 0.6531(2)
C16_8 C 0.7281(8) 0.8068(2) 0.8010(2)
C17_8 C 0.8117(8) 0.7702(2) 0.8021(2)
H12_8 H 0.864392 0.762938 0.779609
C21_8 C 0.6848(8) 0.8765(2) 0.7659(2)
C22_8 C 0.7097(11) 0.9640(2) 0.6859(2)
C24_8 C 0.7085(11) 0.9431(3) 0.7231(2)
H16_8 H 0.721139 0.960032 0.746725
C25_8 C 0.6887(9) 0.8976(2) 0.7256(2)
C26_8 C 0.6483(8) 0.8148(3) 0.8341(2)
H17_8 H 0.588806 0.839113 0.834415
C27_8 C 0.8174(7) 0.7444(2) 0.8366(2)
H18_8 H 0.876267 0.719910 0.837179
C28_8 C 0.8129(14) 0.5935(4) 0.5436(4)
N10_8 N 0.8290(18) 0.5634(4) 0.5634(4)
loop_
_geom_bond_atom_site_label_1
_geom_bond_atom_site_label_2
_geom_bond_site_symmetry_1
_geom_bond_site_symmetry_2
Fe2 N2 1_555 1_555
Au1 C1 1_555 1_555
Au2 C3 1_555 1_555
Fe2 N1 1_555 1_555
N1 C2 1_555 1_555
N3 Fe2 1_555 1_555
N4 Fe2 1_555 1_555
O1 C14 1_555 1_555
N5 C10 1_555 1_555
N6 C8 1_555 1_555
O2 C21 1_555 1_555
C2 Au1 1_555 1_555
C3 N3 1_555 1_555
O3 C20 1_555 1_555
N7 H1 1_555 1_555
N8 H2 1_555 1_555
C4 N4 1_555 1_555
H3 C4 1_555 1_555
N9 H4 1_555 1_555
C5 H5 1_555 1_555
C6 N4 1_555 1_555
H6 C6 1_555 1_555
C7 C6 1_555 1_555
H7 C7 1_555 1_555
C8 H8 1_555 1_555
C9 N9 1_555 1_555
C10 H9 1_555 1_555
C11 H10 1_555 1_555
C12 N7 1_555 1_555
C13 C4 1_555 1_555
H11 C13 1_555 1_555
C14 N7 1_555 1_555
C15 C5 1_555 1_555
C16 N8 1_555 1_555
C17 C16 1_555 1_555
H12 C17 1_555 1_555
C18 C9 1_555 1_555
H13 C18 1_555 1_555
C19 N5 1_555 1_555
H14 C19 1_555 1_555
C20 N9 1_555 1_555
C21 N8 1_555 1_555
C22 C5 1_555 1_555
C23 C9 1_555 1_555
H15 C23 1_555 1_555
C24 C22 1_555 1_555
H16 C24 1_555 1_555
C25 C11 1_555 1_555
C26 C8 1_555 1_555
H17 C26 1_555 1_555
C27 N6 1_555 1_555
H18 C27 1_555 1_555
C28 Au2 1_555 1_555
N10 C28 1_555 1_555
Fe3 N5 1_555 1_555
Fe4 N6 1_555 1_555
N12 Fe2 1_555 1_555
N13 Fe2 1_555 1_555
C7 C12 1_555 1_555
C10 C18 1_555 1_555
C11 C15 1_555 1_555
C12 C13 1_555 1_555
C14 C15 1_555 1_555
C16 C26 1_555 1_555
C17 C27 1_555 1_555
C19 C23 1_555 1_555
C20 C22 1_555 1_555
C21 C25 1_555 1_555
C24 C25 1_555 1_555
Fe3 N2_2 1_555 1_555
Au1_2 C1_2 1_555 1_555
Au2_2 C3_2 1_555 1_555
Fe3 N1_2 1_555 1_555
N1_2 C2_2 1_555 1_555
N3_2 Fe3 1_555 1_555
N4_2 Fe3 1_555 1_555
O1_2 C14_2 1_555 1_555
N12 C10_2 1_555 1_555
N6_2 C8_2 1_555 1_555
O2_2 C21_2 1_555 1_555
C2_2 Au1_2 1_555 1_555
C3_2 N3_2 1_555 1_555
O3_2 C20_2 1_555 1_555
N7_2 H1_2 1_555 1_555
N8_2 H2_2 1_555 1_555
C4_2 N4_2 1_555 1_555
H3_2 C4_2 1_555 1_555
N9_2 H4_2 1_555 1_555
C5_2 H5_2 1_555 1_555
C6_2 N4_2 1_555 1_555
H6_2 C6_2 1_555 1_555
C7_2 C6_2 1_555 1_555
H7_2 C7_2 1_555 1_555
C8_2 H8_2 1_555 1_555
C9_2 N9_2 1_555 1_555
C10_2 H9_2 1_555 1_555
C11_2 H10_2 1_555 1_555
C12_2 N7_2 1_555 1_555
C13_2 C4_2 1_555 1_555
H11_2 C13_2 1_555 1_555
C14_2 N7_2 1_555 1_555
C15_2 C5_2 1_555 1_555
C16_2 N8_2 1_555 1_555
C17_2 C16_2 1_555 1_555
H12_2 C17_2 1_555 1_555
C18_2 C9_2 1_555 1_555
H13_2 C18_2 1_555 1_555
C19_2 N12 1_555 1_555
H14_2 C19_2 1_555 1_555
C20_2 N9_2 1_555 1_555
C21_2 N8_2 1_555 1_555
C22_2 C5_2 1_555 1_555
C23_2 C9_2 1_555 1_555
H15_2 C23_2 1_555 1_555
C24_2 C22_2 1_555 1_555
H16_2 C24_2 1_555 1_555
C25_2 C11_2 1_555 1_555
C26_2 C8_2 1_555 1_555
H17_2 C26_2 1_555 1_555
C27_2 N6_2 1_555 1_555
H18_2 C27_2 1_555 1_555
C28_2 Au2_2 1_555 1_555
N10_2 C28_2 1_555 1_555
Fe4_2 N6_2 1_555 1_555
N13_2 Fe3 1_555 1_555
C7_2 C12_2 1_555 1_555
C10_2 C18_2 1_555 1_555
C11_2 C15_2 1_555 1_555
C12_2 C13_2 1_555 1_555
C14_2 C15_2 1_555 1_555
C16_2 C26_2 1_555 1_555
C17_2 C27_2 1_555 1_555
C19_2 C23_2 1_555 1_555
C20_2 C22_2 1_555 1_555
C21_2 C25_2 1_555 1_555
C24_2 C25_2 1_555 1_555
N5_2 C10_3 1_555 1_555
O3_3 C20_3 1_555 1_555
N9_3 H4_3 1_555 1_555
C9_3 N9_3 1_555 1_555
C10_3 H9_3 1_555 1_555
C18_3 C9_3 1_555 1_555
H13_3 C18_3 1_555 1_555
C19_3 N5_2 1_555 1_555
H14_3 C19_3 1_555 1_555
C20_3 N9_3 1_555 1_555
C23_3 C9_3 1_555 1_555
H15_3 C23_3 1_555 1_555
Fe4_2 N5_2 1_555 1_555
C10_3 C18_3 1_555 1_555
C19_3 C23_3 1_555 1_555
Fe4 N1_3 1_555 1_555
N3_3 Fe4 1_555 1_555
N4_3 Fe4 1_555 1_555
C3_3 N3_3 1_555 1_555
C4_3 N4_3 1_555 1_555
H3_3 C4_3 1_555 1_555
N11 Fe4 1_555 1_555
N12_2 Fe4 1_555 1_555
O1_3 C14_3 1_555 1_555
N13 C8_3 1_555 1_555
O2_3 C21_3 1_555 1_555
N7_3 H1_3 1_555 1_555
N8_3 H2_3 1_555 1_555
C5_3 H5_3 1_555 1_555
C7_3 C6_3 1_555 1_555
H7_3 C7_3 1_555 1_555
C8_3 H8_3 1_555 1_555
C11_3 H10_3 1_555 1_555
C12_3 N7_3 1_555 1_555
H11_3 C13_3 1_555 1_555
C14_3 N7_3 1_555 1_555
C15_3 C5_3 1_555 1_555
C16_3 N8_3 1_555 1_555
C17_3 C16_3 1_555 1_555
H12_3 C17_3 1_555 1_555
C21_3 N8_3 1_555 1_555
C22_3 C5_3 1_555 1_555
C24_3 C22_3 1_555 1_555
H16_3 C24_3 1_555 1_555
C25_3 C11_3 1_555 1_555
C26_3 C8_3 1_555 1_555
H17_3 C26_3 1_555 1_555
C27_3 N13 1_555 1_555
H18_3 C27_3 1_555 1_555
C28_3 Au2_3 1_555 1_555
N10_3 C28_3 1_555 1_555
C7_3 C12_3 1_555 1_555
C11_3 C15_3 1_555 1_555
C12_3 C13_3 1_555 1_555
C14_3 C15_3 1_555 1_555
C16_3 C26_3 1_555 1_555
C17_3 C27_3 1_555 1_555
C21_3 C25_3 1_555 1_555
C24_3 C25_3 1_555 1_555
Au1_3 C1_3 1_555 1_555
N11 C1_3 1_555 1_555
C2_3 Au1_3 1_555 1_555
O1_4 C14_4 1_555 1_555
N13_2 C8_4 1_555 1_555
O2_4 C21_4 1_555 1_555
N7_4 H1_4 1_555 1_555
N8_4 H2_4 1_555 1_555
C5_4 H5_4 1_555 1_555
C7_4 C6_4 1_555 1_555
H7_4 C7_4 1_555 1_555
C8_4 H8_4 1_555 1_555
C11_4 H10_4 1_555 1_555
C12_4 N7_4 1_555 1_555
H11_4 C13_4 1_555 1_555
C14_4 N7_4 1_555 1_555
C15_4 C5_4 1_555 1_555
C16_4 N8_4 1_555 1_555
C17_4 C16_4 1_555 1_555
H12_4 C17_4 1_555 1_555
C21_4 N8_4 1_555 1_555
C22_4 C5_4 1_555 1_555
C24_4 C22_4 1_555 1_555
H16_4 C24_4 1_555 1_555
C25_4 C11_4 1_555 1_555
C26_4 C8_4 1_555 1_555
H17_4 C26_4 1_555 1_555
C27_4 N13_2 1_555 1_555
H18_4 C27_4 1_555 1_555
C28_4 Au2_4 1_555 1_555
N10_4 C28_4 1_555 1_555
C7_4 C12_4 1_555 1_555
C11_4 C15_4 1_555 1_555
C12_4 C13_4 1_555 1_555
C14_4 C15_4 1_555 1_555
C16_4 C26_4 1_555 1_555
C17_4 C27_4 1_555 1_555
C21_4 C25_4 1_555 1_555
C24_4 C25_4 1_555 1_555
Fe4_2 N1_4 1_555 1_555
N3_4 Fe4_2 1_555 1_555
N4_4 Fe4_2 1_555 1_555
C3_4 N3_4 1_555 1_555
C4_4 N4_4 1_555 1_555
H3_4 C4_4 1_555 1_555
N11_2 Fe4_2 1_555 1_555
N12_2 C10_4 1_555 1_555
O3_4 C20_4 1_555 1_555
N9_4 H4_4 1_555 1_555
C9_4 N9_4 1_555 1_555
C10_4 H9_4 1_555 1_555
C18_4 C9_4 1_555 1_555
H13_4 C18_4 1_555 1_555
C19_4 N12_2 1_555 1_555
H14_4 C19_4 1_555 1_555
C20_4 N9_4 1_555 1_555
C23_4 C9_4 1_555 1_555
H15_4 C23_4 1_555 1_555
C10_4 C18_4 1_555 1_555
C19_4 C23_4 1_555 1_555
Au1_4 C1_4 1_555 1_555
N11_2 C1_4 1_555 1_555
C2_4 Au1_4 1_555 1_555
Au1_5 C1_5 1_555 1_555
Fe1 N1_5 1_555 1_555
N1_5 C2_5 1_555 1_555
N3_5 Fe1 1_555 1_555
N4_5 Fe1 1_555 1_555
C2_5 Au1_5 1_555 1_555
C3_5 N3_5 1_555 1_555
C4_5 N4_5 1_555 1_555
H3_5 C4_5 1_555 1_555
N11_3 Fe1 1_555 1_555
N12_3 Fe1 1_555 1_555
N13_3 Fe1 1_555 1_555
O1_5 C14_5 1_555 1_555
N5_3 C10_5 1_555 1_555
N6_3 C8_5 1_555 1_555
O2_5 C21_5 1_555 1_555
O3_5 C20_5 1_555 1_555
N7_5 H1_5 1_555 1_555
N8_5 H2_5 1_555 1_555
N9_5 H4_5 1_555 1_555
C5_5 H5_5 1_555 1_555
C7_5 C6_5 1_555 1_555
H7_5 C7_5 1_555 1_555
C8_5 H8_5 1_555 1_555
C9_5 N9_5 1_555 1_555
C10_5 H9_5 1_555 1_555
C11_5 H10_5 1_555 1_555
C12_5 N7_5 1_555 1_555
H11_5 C13_5 1_555 1_555
C14_5 N7_5 1_555 1_555
C15_5 C5_5 1_555 1_555
C16_5 N8_5 1_555 1_555
C17_5 C16_5 1_555 1_555
H12_5 C17_5 1_555 1_555
C18_5 C9_5 1_555 1_555
H13_5 C18_5 1_555 1_555
C19_5 N5_3 1_555 1_555
H14_5 C19_5 1_555 1_555
C20_5 N9_5 1_555 1_555
C21_5 N8_5 1_555 1_555
C22_5 C5_5 1_555 1_555
C23_5 C9_5 1_555 1_555
H15_5 C23_5 1_555 1_555
C24_5 C22_5 1_555 1_555
H16_5 C24_5 1_555 1_555
C25_5 C11_5 1_555 1_555
C26_5 C8_5 1_555 1_555
H17_5 C26_5 1_555 1_555
C27_5 N6_3 1_555 1_555
H18_5 C27_5 1_555 1_555
C28_5 Au2_5 1_555 1_555
N10_5 C28_5 1_555 1_555
Fe3_2 N5_3 1_555 1_555
Fe4_3 N6_3 1_555 1_555
C7_5 C12_5 1_555 1_555
C10_5 C18_5 1_555 1_555
C11_5 C15_5 1_555 1_555
C12_5 C13_5 1_555 1_555
C14_5 C15_5 1_555 1_555
C16_5 C26_5 1_555 1_555
C17_5 C27_5 1_555 1_555
C19_5 C23_5 1_555 1_555
C20_5 C22_5 1_555 1_555
C21_5 C25_5 1_555 1_555
C24_5 C25_5 1_555 1_555
O1_6 C14_6 1_555 1_555
N12_3 C10_6 1_555 1_555
N6_4 C8_6 1_555 1_555
O2_6 C21_6 1_555 1_555
O3_6 C20_6 1_555 1_555
N7_6 H1_6 1_555 1_555
N8_6 H2_6 1_555 1_555
N9_6 H4_6 1_555 1_555
C5_6 H5_6 1_555 1_555
C7_6 C6_6 1_555 1_555
H7_6 C7_6 1_555 1_555
C8_6 H8_6 1_555 1_555
C9_6 N9_6 1_555 1_555
C10_6 H9_6 1_555 1_555
C11_6 H10_6 1_555 1_555
C12_6 N7_6 1_555 1_555
H11_6 C13_6 1_555 1_555
C14_6 N7_6 1_555 1_555
C15_6 C5_6 1_555 1_555
C16_6 N8_6 1_555 1_555
C17_6 C16_6 1_555 1_555
H12_6 C17_6 1_555 1_555
C18_6 C9_6 1_555 1_555
H13_6 C18_6 1_555 1_555
C19_6 N12_3 1_555 1_555
H14_6 C19_6 1_555 1_555
C20_6 N9_6 1_555 1_555
C21_6 N8_6 1_555 1_555
C22_6 C5_6 1_555 1_555
C23_6 C9_6 1_555 1_555
H15_6 C23_6 1_555 1_555
C24_6 C22_6 1_555 1_555
H16_6 C24_6 1_555 1_555
C25_6 C11_6 1_555 1_555
C26_6 C8_6 1_555 1_555
H17_6 C26_6 1_555 1_555
C27_6 N6_4 1_555 1_555
H18_6 C27_6 1_555 1_555
C28_6 Au2_6 1_555 1_555
N10_6 C28_6 1_555 1_555
Fe4_4 N6_4 1_555 1_555
C7_6 C12_6 1_555 1_555
C10_6 C18_6 1_555 1_555
C11_6 C15_6 1_555 1_555
C12_6 C13_6 1_555 1_555
C14_6 C15_6 1_555 1_555
C16_6 C26_6 1_555 1_555
C17_6 C27_6 1_555 1_555
C19_6 C23_6 1_555 1_555
C20_6 C22_6 1_555 1_555
C21_6 C25_6 1_555 1_555
C24_6 C25_6 1_555 1_555
Au1_6 C1_6 1_555 1_555
Fe3_2 N1_6 1_555 1_555
N1_6 C2_6 1_555 1_555
N3_6 Fe3_2 1_555 1_555
N4_6 Fe3_2 1_555 1_555
C2_6 Au1_6 1_555 1_555
C3_6 N3_6 1_555 1_555
C4_6 N4_6 1_555 1_555
H3_6 C4_6 1_555 1_555
N11_4 Fe3_2 1_555 1_555
N13_4 Fe3_2 1_555 1_555
Au1_7 C1_7 1_555 1_555
N2_3 C1_7 1_555 1_555
C2_7 Au1_7 1_555 1_555
Fe4_3 N2_3 1_555 1_555
Au2_7 C3_7 1_555 1_555
Fe4_3 N1_7 1_555 1_555
N3_7 Fe4_3 1_555 1_555
N4_7 Fe4_3 1_555 1_555
O1_7 C14_7 1_555 1_555
N13_3 C8_7 1_555 1_555
O2_7 C21_7 1_555 1_555
C3_7 N3_7 1_555 1_555
N7_7 H1_7 1_555 1_555
N8_7 H2_7 1_555 1_555
C4_7 N4_7 1_555 1_555
H3_7 C4_7 1_555 1_555
C5_7 H5_7 1_555 1_555
C6_7 N4_7 1_555 1_555
H6_7 C6_7 1_555 1_555
C7_7 C6_7 1_555 1_555
H7_7 C7_7 1_555 1_555
C8_7 H8_7 1_555 1_555
C11_7 H10_7 1_555 1_555
C12_7 N7_7 1_555 1_555
C13_7 C4_7 1_555 1_555
H11_7 C13_7 1_555 1_555
C14_7 N7_7 1_555 1_555
C15_7 C5_7 1_555 1_555
C16_7 N8_7 1_555 1_555
C17_7 C16_7 1_555 1_555
H12_7 C17_7 1_555 1_555
C21_7 N8_7 1_555 1_555
C22_7 C5_7 1_555 1_555
C24_7 C22_7 1_555 1_555
H16_7 C24_7 1_555 1_555
C25_7 C11_7 1_555 1_555
C26_7 C8_7 1_555 1_555
H17_7 C26_7 1_555 1_555
C27_7 N13_3 1_555 1_555
H18_7 C27_7 1_555 1_555
C28_7 Au2_7 1_555 1_555
N10_7 C28_7 1_555 1_555
N12_4 Fe4_3 1_555 1_555
C7_7 C12_7 1_555 1_555
C11_7 C15_7 1_555 1_555
C12_7 C13_7 1_555 1_555
C14_7 C15_7 1_555 1_555
C16_7 C26_7 1_555 1_555
C17_7 C27_7 1_555 1_555
C21_7 C25_7 1_555 1_555
C24_7 C25_7 1_555 1_555
N5_4 C10_7 1_555 1_555
O3_7 C20_7 1_555 1_555
N9_7 H4_7 1_555 1_555
C9_7 N9_7 1_555 1_555
C10_7 H9_7 1_555 1_555
C18_7 C9_7 1_555 1_555
H13_7 C18_7 1_555 1_555
C19_7 N5_4 1_555 1_555
H14_7 C19_7 1_555 1_555
C20_7 N9_7 1_555 1_555
C23_7 C9_7 1_555 1_555
H15_7 C23_7 1_555 1_555
Fe4_4 N5_4 1_555 1_555
C10_7 C18_7 1_555 1_555
C19_7 C23_7 1_555 1_555
Au1_8 C1_8 1_555 1_555
N2_4 C1_8 1_555 1_555
C2_8 Au1_8 1_555 1_555
Fe4_4 N2_4 1_555 1_555
N12_4 C10_8 1_555 1_555
O3_8 C20_8 1_555 1_555
N9_8 H4_8 1_555 1_555
C9_8 N9_8 1_555 1_555
C10_8 H9_8 1_555 1_555
C18_8 C9_8 1_555 1_555
H13_8 C18_8 1_555 1_555
C19_8 N12_4 1_555 1_555
H14_8 C19_8 1_555 1_555
C20_8 N9_8 1_555 1_555
C23_8 C9_8 1_555 1_555
H15_8 C23_8 1_555 1_555
C10_8 C18_8 1_555 1_555
C19_8 C23_8 1_555 1_555
Au2_8 C3_8 1_555 1_555
Fe4_4 N1_8 1_555 1_555
N3_8 Fe4_4 1_555 1_555
N4_8 Fe4_4 1_555 1_555
O1_8 C14_8 1_555 1_555
N13_4 C8_8 1_555 1_555
O2_8 C21_8 1_555 1_555
C3_8 N3_8 1_555 1_555
N7_8 H1_8 1_555 1_555
N8_8 H2_8 1_555 1_555
C4_8 N4_8 1_555 1_555
H3_8 C4_8 1_555 1_555
C5_8 H5_8 1_555 1_555
C6_8 N4_8 1_555 1_555
H6_8 C6_8 1_555 1_555
C7_8 C6_8 1_555 1_555
H7_8 C7_8 1_555 1_555
C8_8 H8_8 1_555 1_555
C11_8 H10_8 1_555 1_555
C12_8 N7_8 1_555 1_555
C13_8 C4_8 1_555 1_555
H11_8 C13_8 1_555 1_555
C14_8 N7_8 1_555 1_555
C15_8 C5_8 1_555 1_555
C16_8 N8_8 1_555 1_555
C17_8 C16_8 1_555 1_555
H12_8 C17_8 1_555 1_555
C21_8 N8_8 1_555 1_555
C22_8 C5_8 1_555 1_555
C24_8 C22_8 1_555 1_555
H16_8 C24_8 1_555 1_555
C25_8 C11_8 1_555 1_555
C26_8 C8_8 1_555 1_555
H17_8 C26_8 1_555 1_555
C27_8 N13_4 1_555 1_555
H18_8 C27_8 1_555 1_555
C28_8 Au2_8 1_555 1_555
N10_8 C28_8 1_555 1_555
C7_8 C12_8 1_555 1_555
C11_8 C15_8 1_555 1_555
C12_8 C13_8 1_555 1_555
C14_8 C15_8 1_555 1_555
C16_8 C26_8 1_555 1_555
C17_8 C27_8 1_555 1_555
C21_8 C25_8 1_555 1_555
C24_8 C25_8 1_555 1_555

#END
