
###############################################################################
#
# This file contains modified crystal structure data generated from the
# MOF subset of the Cambridge Structural Database (CSD) v543 
# hosted by the Cambridge Crystallographic Data Centre (CCDC).
#
# This work is licensed under the Creative Commons
# Attribution-NonCommercial-ShareAlike 4.0 International License.
# To view a copy of this license, visit
# http://creativecommons.org/licenses/by-nc-sa/4.0/
# or send a letter to
# Creative Commons, PO Box 1866, Mountain View, CA 94042, USA.
#
# CIF created using the CSD Python API on 29 September 2022
# The structure has been converted into the P1 space group
# The structure has a 3D framework
# The original CSD entry WAMCAS02 is in the orthorhombic crystal system
# The original CSD entry WAMCAS02 is in a Sohncke space group
# The framework has been calculated to contain at least 10.0% void space
# The void calculation uses a probe of radius 1.32A, grid spacing 0.4
#
###############################################################################

data_WAMCAS02
_chemical_formula_moiety         '(C224 H144 Au16 Fe8 N76 O24)n'
_symmetry_cell_setting           triclinic
_symmetry_space_group_name_H-M   'P 1'
_symmetry_Int_Tables_number      1
_space_group_name_Hall           'P 1'
loop_
_symmetry_equiv_pos_site_id
_symmetry_equiv_pos_as_xyz
1 x,y,z
_cell_length_a                   10.164(2)
_cell_length_b                   30.319(6)
_cell_length_c                   33.642(7)
_cell_angle_alpha                90
_cell_angle_beta                 90
_cell_angle_gamma                90
_cell_volume                     10367.2
loop_
_atom_site_label
_atom_site_type_symbol
_atom_site_fract_x
_atom_site_fract_y
_atom_site_fract_z
N2 N 0.0487(9) 0.7253(2) 0.5810(2)
Fe2 Fe 0.24131(11) 0.71930(3) 0.57957(3)
Au1 Au 0.74161(3) 0.71851(2) 0.57829(2)
Au2 Au 0.28741(5) 0.85426(2) 0.49080(2)
N1 N 0.4345(8) 0.7137(2) 0.5787(2)
N3 N 0.2574(8) 0.7747(2) 0.5489(2)
N4 N 0.2310(9) 0.6868(2) 0.5259(2)
O1 O 0.1254(9) 0.6731(2) 0.3790(2)
N5 N 0.2195(9) 0.3387(2) 0.3921(2)
N6 N 0.2453(8) 0.7468(2) 0.1318(2)
C1 C 0.9345(10) 0.7240(3) 0.5799(2)
O2 O 0.1441(11) 0.6031(2) 0.2062(2)
C2 C 0.5459(10) 0.7140(3) 0.5781(3)
C3 C 0.2661(11) 0.8050(3) 0.5280(3)
O3 O 0.3069(16) 0.4689(3) 0.2915(3)
N7 N 0.2141(10) 0.6196(2) 0.4168(2)
H1 H 0.243114 0.592240 0.417084
N8 N 0.2260(9) 0.6657(2) 0.2333(2)
H2 H 0.254397 0.677394 0.255698
C4 C 0.3081(12) 0.6536(3) 0.5177(3)
H3 H 0.368214 0.644188 0.537585
N9 N 0.1726(14) 0.4669(3) 0.3466(3)
H4 H 0.116808 0.482940 0.360335
C5 C 0.1971(12) 0.5610(3) 0.3494(2)
H5 H 0.202901 0.546999 0.374624
C6 C 0.1435(10) 0.6986(3) 0.4983(2)
H6 H 0.086080 0.722569 0.503913
C7 C 0.1323(10) 0.6782(3) 0.4625(3)
H7 H 0.067033 0.687277 0.444002
C8 C 0.1572(10) 0.7133(3) 0.1339(3)
H8 H 0.098125 0.709043 0.112358
C9 C 0.1891(13) 0.4227(3) 0.3587(3)
C10 C 0.3007(12) 0.3536(3) 0.3626(3)
H9 H 0.370537 0.335171 0.353904
C11 C 0.1729(11) 0.6262(3) 0.3099(3)
H10 H 0.159460 0.657148 0.308484
C12 C 0.2178(10) 0.6436(3) 0.4531(2)
C13 C 0.3079(12) 0.6314(3) 0.4821(3)
H11 H 0.368304 0.608021 0.477475
C14 C 0.1690(10) 0.6359(3) 0.3817(2)
C15 C 0.1778(11) 0.6058(2) 0.3469(2)
C16 C 0.2284(10) 0.6926(3) 0.1993(3)
C17 C 0.3133(12) 0.7292(3) 0.1984(3)
H12 H 0.366896 0.736245 0.220586
C18 C 0.2852(15) 0.3945(3) 0.3451(3)
H13 H 0.340719 0.403077 0.323761
C19 C 0.1275(12) 0.3674(3) 0.4049(3)
H14 H 0.071226 0.358259 0.425933
C20 C 0.2359(17) 0.4875(3) 0.3150(3)
C21 C 0.1839(10) 0.6235(3) 0.2346(3)
C22 C 0.2082(14) 0.5363(3) 0.3146(3)
C23 C 0.1102(13) 0.4084(3) 0.3898(3)
H15 H 0.044501 0.427313 0.400458
C24 C 0.2091(13) 0.5566(3) 0.2764(3)
H16 H 0.224011 0.539693 0.253013
C25 C 0.1876(12) 0.6018(3) 0.2743(3)
C26 C 0.1495(11) 0.6850(3) 0.1661(3)
H17 H 0.090885 0.660617 0.165603
C27 C 0.3170(10) 0.7552(3) 0.1635(3)
H18 H 0.374107 0.779979 0.162970
C28 C 0.3152(19) 0.9068(4) 0.4561(5)
N10 N 0.332(2) 0.9365(5) 0.4377(5)
Fe3 Fe 0.24131(11) 0.28070(3) 0.42043(3)
Fe4 Fe 0.25869(11) 0.78070(3) 0.07957(3)
N12 N 0.2195(9) 0.6613(2) 0.6079(2)
N13 N 0.2547(8) 0.7532(2) 0.6318(2)
N2_2 N 0.0487(9) 0.2747(2) 0.4190(2)
Au1_2 Au 0.74161(3) 0.28149(2) 0.42171(2)
Au2_2 Au 0.28741(5) 0.14574(2) 0.50920(2)
N1_2 N 0.4345(8) 0.2863(2) 0.4213(2)
N3_2 N 0.2574(8) 0.2253(2) 0.4511(2)
N4_2 N 0.2310(9) 0.3132(2) 0.4741(2)
O1_2 O 0.1254(9) 0.3269(2) 0.6210(2)
N6_2 N 0.2453(8) 0.2532(2) 0.8682(2)
C1_2 C 0.9345(10) 0.2760(3) 0.4201(2)
O2_2 O 0.1441(11) 0.3969(2) 0.7938(2)
C2_2 C 0.5459(10) 0.2860(3) 0.4219(3)
C3_2 C 0.2661(11) 0.1950(3) 0.4720(3)
O3_2 O 0.3069(16) 0.5311(3) 0.7085(3)
N7_2 N 0.2141(10) 0.3804(2) 0.5832(2)
H1_2 H 0.243114 0.407760 0.582916
N8_2 N 0.2260(9) 0.3343(2) 0.7667(2)
H2_2 H 0.254397 0.322606 0.744302
C4_2 C 0.3081(12) 0.3464(3) 0.4823(3)
H3_2 H 0.368214 0.355812 0.462415
N9_2 N 0.1726(14) 0.5331(3) 0.6534(3)
H4_2 H 0.116808 0.517060 0.639665
C5_2 C 0.1971(12) 0.4390(3) 0.6506(2)
H5_2 H 0.202901 0.453001 0.625376
C6_2 C 0.1435(10) 0.3014(3) 0.5017(2)
H6_2 H 0.086080 0.277431 0.496087
C7_2 C 0.1323(10) 0.3218(3) 0.5375(3)
H7_2 H 0.067033 0.312723 0.555998
C8_2 C 0.1572(10) 0.2867(3) 0.8661(3)
H8_2 H 0.098125 0.290957 0.887642
C9_2 C 0.1891(13) 0.5773(3) 0.6413(3)
C10_2 C 0.3007(12) 0.6464(3) 0.6374(3)
H9_2 H 0.370537 0.664829 0.646096
C11_2 C 0.1729(11) 0.3738(3) 0.6901(3)
H10_2 H 0.159460 0.342852 0.691516
C12_2 C 0.2178(10) 0.3564(3) 0.5469(2)
C13_2 C 0.3079(12) 0.3686(3) 0.5179(3)
H11_2 H 0.368304 0.391979 0.522525
C14_2 C 0.1690(10) 0.3641(3) 0.6183(2)
C15_2 C 0.1778(11) 0.3942(2) 0.6531(2)
C16_2 C 0.2284(10) 0.3074(3) 0.8007(3)
C17_2 C 0.3133(12) 0.2708(3) 0.8016(3)
H12_2 H 0.366896 0.263755 0.779414
C18_2 C 0.2852(15) 0.6055(3) 0.6549(3)
H13_2 H 0.340719 0.596923 0.676239
C19_2 C 0.1275(12) 0.6326(3) 0.5951(3)
H14_2 H 0.071226 0.641741 0.574067
C20_2 C 0.2359(17) 0.5125(3) 0.6850(3)
C21_2 C 0.1839(10) 0.3765(3) 0.7654(3)
C22_2 C 0.2082(14) 0.4637(3) 0.6854(3)
C23_2 C 0.1102(13) 0.5916(3) 0.6102(3)
H15_2 H 0.044501 0.572687 0.599542
C24_2 C 0.2091(13) 0.4434(3) 0.7236(3)
H16_2 H 0.224011 0.460307 0.746987
C25_2 C 0.1876(12) 0.3982(3) 0.7257(3)
C26_2 C 0.1495(11) 0.3150(3) 0.8339(3)
H17_2 H 0.090885 0.339383 0.834397
C27_2 C 0.3170(10) 0.2448(3) 0.8365(3)
H18_2 H 0.374107 0.220021 0.837030
C28_2 C 0.3152(19) 0.0932(4) 0.5439(5)
N10_2 N 0.332(2) 0.0635(5) 0.5623(5)
Fe4_2 Fe 0.25869(11) 0.21930(3) 0.92043(3)
N13_2 N 0.2547(8) 0.2468(2) 0.3682(2)
N5_2 N 0.2805(9) 0.1613(2) 0.8921(2)
O3_3 O 0.1931(16) 0.0311(3) 0.7915(3)
N9_3 N 0.3274(14) 0.0331(3) 0.8466(3)
H4_3 H 0.383192 0.017060 0.860335
C9_3 C 0.3109(13) 0.0773(3) 0.8587(3)
C10_3 C 0.1993(12) 0.1464(3) 0.8626(3)
H9_3 H 0.129463 0.164829 0.853904
C18_3 C 0.2148(15) 0.1055(3) 0.8451(3)
H13_3 H 0.159281 0.096923 0.823761
C19_3 C 0.3725(12) 0.1326(3) 0.9049(3)
H14_3 H 0.428774 0.141741 0.925933
C20_3 C 0.2641(17) 0.0125(3) 0.8150(3)
C23_3 C 0.3898(13) 0.0916(3) 0.8898(3)
H15_3 H 0.455499 0.072687 0.900458
N1_3 N 0.0655(8) 0.7863(2) 0.0787(2)
N3_3 N 0.2426(8) 0.7253(2) 0.0489(2)
N4_3 N 0.2690(9) 0.8132(2) 0.0259(2)
C3_3 C 0.2339(11) 0.6950(3) 0.0280(3)
C4_3 C 0.1919(12) 0.8464(3) 0.0177(3)
H3_3 H 0.131786 0.855812 0.037585
H6_3 H 0.413920 0.777431 0.003913
N11 N 0.4513(9) 0.7747(2) 0.0810(2)
N12_2 N 0.2805(9) 0.8387(2) 0.1079(2)
Au2_3 Au 0.21259(5) 0.64574(2) 0.99080(2)
O1_3 O 0.3746(9) 0.8269(2) 0.8790(2)
O2_3 O 0.3559(11) 0.8969(2) 0.7062(2)
N7_3 N 0.2859(10) 0.8804(2) 0.9168(2)
H1_3 H 0.256886 0.907760 0.917084
N8_3 N 0.2740(9) 0.8343(2) 0.7333(2)
H2_3 H 0.245603 0.822606 0.755698
C5_3 C 0.3029(12) 0.9390(3) 0.8494(2)
H5_3 H 0.297099 0.953001 0.874624
C6_3 C 0.3565(10) 0.8014(3) 0.9983(2)
C7_3 C 0.3677(10) 0.8218(3) 0.9625(3)
H7_3 H 0.432967 0.812723 0.944002
C8_3 C 0.3428(10) 0.7867(3) 0.6339(3)
H8_3 H 0.401875 0.790957 0.612358
C11_3 C 0.3271(11) 0.8738(3) 0.8099(3)
H10_3 H 0.340540 0.842852 0.808484
C12_3 C 0.2822(10) 0.8564(3) 0.9531(2)
C13_3 C 0.1921(12) 0.8686(3) 0.9821(3)
H11_3 H 0.131696 0.891979 0.977475
C14_3 C 0.3310(10) 0.8641(3) 0.8817(2)
C15_3 C 0.3222(11) 0.8942(2) 0.8469(2)
C16_3 C 0.2716(10) 0.8074(3) 0.6993(3)
C17_3 C 0.1867(12) 0.7708(3) 0.6984(3)
H12_3 H 0.133104 0.763755 0.720586
C21_3 C 0.3161(10) 0.8765(3) 0.7346(3)
C22_3 C 0.2918(14) 0.9637(3) 0.8146(3)
C24_3 C 0.2909(13) 0.9434(3) 0.7764(3)
H16_3 H 0.275989 0.960307 0.753013
C25_3 C 0.3124(12) 0.8982(3) 0.7743(3)
C26_3 C 0.3505(11) 0.8150(3) 0.6661(3)
H17_3 H 0.409115 0.839383 0.665603
C27_3 C 0.1830(10) 0.7448(3) 0.6635(3)
H18_3 H 0.125893 0.720021 0.662970
C28_3 C 0.1848(19) 0.5932(4) 0.9561(5)
N10_3 N 0.168(2) 0.5635(5) 0.9377(5)
Au1_3 Au 0.75839(3) 0.78149(2) 0.07829(2)
C1_3 C 0.5655(10) 0.7760(3) 0.0799(2)
C2_3 C 0.9541(10) 0.7860(3) 0.0781(3)
Au2_4 Au 0.21259(5) 0.35426(2) 0.00920(2)
O1_4 O 0.3746(9) 0.1731(2) 0.1210(2)
O2_4 O 0.3559(11) 0.1031(2) 0.2938(2)
N7_4 N 0.2859(10) 0.1196(2) 0.0832(2)
H1_4 H 0.256886 0.092240 0.082916
N8_4 N 0.2740(9) 0.1657(2) 0.2667(2)
H2_4 H 0.245603 0.177394 0.244302
C5_4 C 0.3029(12) 0.0610(3) 0.1506(2)
H5_4 H 0.297099 0.046999 0.125376
C6_4 C 0.3565(10) 0.1986(3) 0.0017(2)
C7_4 C 0.3677(10) 0.1782(3) 0.0375(3)
H7_4 H 0.432967 0.187277 0.055998
C8_4 C 0.3428(10) 0.2133(3) 0.3661(3)
H8_4 H 0.401875 0.209043 0.387642
C11_4 C 0.3271(11) 0.1262(3) 0.1901(3)
H10_4 H 0.340540 0.157148 0.191516
C12_4 C 0.2822(10) 0.1436(3) 0.0469(2)
C13_4 C 0.1921(12) 0.1314(3) 0.0179(3)
H11_4 H 0.131696 0.108021 0.022525
C14_4 C 0.3310(10) 0.1359(3) 0.1183(2)
C15_4 C 0.3222(11) 0.1058(2) 0.1531(2)
C16_4 C 0.2716(10) 0.1926(3) 0.3007(3)
C17_4 C 0.1867(12) 0.2292(3) 0.3016(3)
H12_4 H 0.133104 0.236245 0.279414
C21_4 C 0.3161(10) 0.1235(3) 0.2654(3)
C22_4 C 0.2918(14) 0.0363(3) 0.1854(3)
C24_4 C 0.2909(13) 0.0566(3) 0.2236(3)
H16_4 H 0.275989 0.039693 0.246987
C25_4 C 0.3124(12) 0.1018(3) 0.2257(3)
C26_4 C 0.3505(11) 0.1850(3) 0.3339(3)
H17_4 H 0.409115 0.160617 0.334397
C27_4 C 0.1830(10) 0.2552(3) 0.3365(3)
H18_4 H 0.125893 0.279979 0.337030
C28_4 C 0.1848(19) 0.4068(4) 0.0439(5)
N10_4 N 0.168(2) 0.4365(5) 0.0623(5)
N1_4 N 0.0655(8) 0.2137(2) 0.9213(2)
N3_4 N 0.2426(8) 0.2747(2) 0.9511(2)
N4_4 N 0.2690(9) 0.1868(2) 0.9741(2)
C3_4 C 0.2339(11) 0.3050(3) 0.9720(3)
C4_4 C 0.1919(12) 0.1536(3) 0.9823(3)
H3_4 H 0.131786 0.144188 0.962415
H6_4 H 0.413920 0.222569 0.996087
N11_2 N 0.4513(9) 0.2253(2) 0.9190(2)
O3_4 O 0.1931(16) 0.9689(3) 0.2085(3)
N9_4 N 0.3274(14) 0.9669(3) 0.1534(3)
H4_4 H 0.383192 0.982940 0.139665
C9_4 C 0.3109(13) 0.9227(3) 0.1413(3)
C10_4 C 0.1993(12) 0.8536(3) 0.1374(3)
H9_4 H 0.129463 0.835171 0.146096
C18_4 C 0.2148(15) 0.8945(3) 0.1549(3)
H13_4 H 0.159281 0.903077 0.176239
C19_4 C 0.3725(12) 0.8674(3) 0.0951(3)
H14_4 H 0.428774 0.858259 0.074067
C20_4 C 0.2641(17) 0.9875(3) 0.1850(3)
C23_4 C 0.3898(13) 0.9084(3) 0.1102(3)
H15_4 H 0.455499 0.927313 0.099542
Au1_4 Au 0.75839(3) 0.21851(2) 0.92171(2)
C1_4 C 0.5655(10) 0.2240(3) 0.9201(2)
C2_4 C 0.9541(10) 0.2140(3) 0.9219(3)
Au1_5 Au 0.25839(3) 0.28149(2) 0.07829(2)
Fe1 Fe 0.75869(11) 0.28070(3) 0.07957(3)
N1_5 N 0.5655(8) 0.2863(2) 0.0787(2)
N3_5 N 0.7426(8) 0.2253(2) 0.0489(2)
N4_5 N 0.7690(9) 0.3132(2) 0.0259(2)
C1_5 C 0.0655(10) 0.2760(3) 0.0799(2)
C2_5 C 0.4541(10) 0.2860(3) 0.0781(3)
C3_5 C 0.7339(11) 0.1950(3) 0.0280(3)
C4_5 C 0.6919(12) 0.3464(3) 0.0177(3)
H3_5 H 0.631786 0.355812 0.037585
H6_5 H 0.913920 0.277431 0.003913
N11_3 N 0.9513(9) 0.2747(2) 0.0810(2)
N12_3 N 0.7805(9) 0.3387(2) 0.1079(2)
N13_3 N 0.7453(8) 0.2468(2) 0.1318(2)
Au2_5 Au 0.71259(5) 0.14574(2) 0.99080(2)
O1_5 O 0.8746(9) 0.3269(2) 0.8790(2)
N5_3 N 0.7805(9) 0.6613(2) 0.8921(2)
N6_3 N 0.7547(8) 0.2532(2) 0.6318(2)
O2_5 O 0.8559(11) 0.3969(2) 0.7062(2)
O3_5 O 0.6931(16) 0.5311(3) 0.7915(3)
N7_5 N 0.7859(10) 0.3804(2) 0.9168(2)
H1_5 H 0.756886 0.407760 0.917084
N8_5 N 0.7740(9) 0.3343(2) 0.7333(2)
H2_5 H 0.745603 0.322606 0.755698
N9_5 N 0.8274(14) 0.5331(3) 0.8466(3)
H4_5 H 0.883192 0.517060 0.860335
C5_5 C 0.8029(12) 0.4390(3) 0.8494(2)
H5_5 H 0.797099 0.453001 0.874624
C6_5 C 0.8565(10) 0.3014(3) 0.9983(2)
C7_5 C 0.8677(10) 0.3218(3) 0.9625(3)
H7_5 H 0.932967 0.312723 0.944002
C8_5 C 0.8428(10) 0.2867(3) 0.6339(3)
H8_5 H 0.901875 0.290957 0.612358
C9_5 C 0.8109(13) 0.5773(3) 0.8587(3)
C10_5 C 0.6993(12) 0.6464(3) 0.8626(3)
H9_5 H 0.629463 0.664829 0.853904
C11_5 C 0.8271(11) 0.3738(3) 0.8099(3)
H10_5 H 0.840540 0.342852 0.808484
C12_5 C 0.7822(10) 0.3564(3) 0.9531(2)
C13_5 C 0.6921(12) 0.3686(3) 0.9821(3)
H11_5 H 0.631696 0.391979 0.977475
C14_5 C 0.8310(10) 0.3641(3) 0.8817(2)
C15_5 C 0.8222(11) 0.3942(2) 0.8469(2)
C16_5 C 0.7716(10) 0.3074(3) 0.6993(3)
C17_5 C 0.6867(12) 0.2708(3) 0.6984(3)
H12_5 H 0.633104 0.263755 0.720586
C18_5 C 0.7148(15) 0.6055(3) 0.8451(3)
H13_5 H 0.659281 0.596923 0.823761
C19_5 C 0.8725(12) 0.6326(3) 0.9049(3)
H14_5 H 0.928774 0.641741 0.925933
C20_5 C 0.7641(17) 0.5125(3) 0.8150(3)
C21_5 C 0.8161(10) 0.3765(3) 0.7346(3)
C22_5 C 0.7918(14) 0.4637(3) 0.8146(3)
C23_5 C 0.8898(13) 0.5916(3) 0.8898(3)
H15_5 H 0.955499 0.572687 0.900458
C24_5 C 0.7909(13) 0.4434(3) 0.7764(3)
H16_5 H 0.775989 0.460307 0.753013
C25_5 C 0.8124(12) 0.3982(3) 0.7743(3)
C26_5 C 0.8505(11) 0.3150(3) 0.6661(3)
H17_5 H 0.909115 0.339383 0.665603
C27_5 C 0.6830(10) 0.2448(3) 0.6635(3)
H18_5 H 0.625893 0.220021 0.662970
C28_5 C 0.6848(19) 0.0932(4) 0.9561(5)
N10_5 N 0.668(2) 0.0635(5) 0.9377(5)
Fe3_2 Fe 0.75869(11) 0.71930(3) 0.92043(3)
Fe4_3 Fe 0.74131(11) 0.21930(3) 0.57957(3)
Au2_6 Au 0.71259(5) 0.85426(2) 0.00920(2)
O1_6 O 0.8746(9) 0.6731(2) 0.1210(2)
N6_4 N 0.7547(8) 0.7468(2) 0.3682(2)
O2_6 O 0.8559(11) 0.6031(2) 0.2938(2)
O3_6 O 0.6931(16) 0.4689(3) 0.2085(3)
N7_6 N 0.7859(10) 0.6196(2) 0.0832(2)
H1_6 H 0.756886 0.592240 0.082916
N8_6 N 0.7740(9) 0.6657(2) 0.2667(2)
H2_6 H 0.745603 0.677394 0.244302
N9_6 N 0.8274(14) 0.4669(3) 0.1534(3)
H4_6 H 0.883192 0.482940 0.139665
C5_6 C 0.8029(12) 0.5610(3) 0.1506(2)
H5_6 H 0.797099 0.546999 0.125376
C6_6 C 0.8565(10) 0.6986(3) 0.0017(2)
C7_6 C 0.8677(10) 0.6782(3) 0.0375(3)
H7_6 H 0.932967 0.687277 0.055998
C8_6 C 0.8428(10) 0.7133(3) 0.3661(3)
H8_6 H 0.901875 0.709043 0.387642
C9_6 C 0.8109(13) 0.4227(3) 0.1413(3)
C10_6 C 0.6993(12) 0.3536(3) 0.1374(3)
H9_6 H 0.629463 0.335171 0.146096
C11_6 C 0.8271(11) 0.6262(3) 0.1901(3)
H10_6 H 0.840540 0.657148 0.191516
C12_6 C 0.7822(10) 0.6436(3) 0.0469(2)
C13_6 C 0.6921(12) 0.6314(3) 0.0179(3)
H11_6 H 0.631696 0.608021 0.022525
C14_6 C 0.8310(10) 0.6359(3) 0.1183(2)
C15_6 C 0.8222(11) 0.6058(2) 0.1531(2)
C16_6 C 0.7716(10) 0.6926(3) 0.3007(3)
C17_6 C 0.6867(12) 0.7292(3) 0.3016(3)
H12_6 H 0.633104 0.736245 0.279414
C18_6 C 0.7148(15) 0.3945(3) 0.1549(3)
H13_6 H 0.659281 0.403077 0.176239
C19_6 C 0.8725(12) 0.3674(3) 0.0951(3)
H14_6 H 0.928774 0.358259 0.074067
C20_6 C 0.7641(17) 0.4875(3) 0.1850(3)
C21_6 C 0.8161(10) 0.6235(3) 0.2654(3)
C22_6 C 0.7918(14) 0.5363(3) 0.1854(3)
C23_6 C 0.8898(13) 0.4084(3) 0.1102(3)
H15_6 H 0.955499 0.427313 0.099542
C24_6 C 0.7909(13) 0.5566(3) 0.2236(3)
H16_6 H 0.775989 0.539693 0.246987
C25_6 C 0.8124(12) 0.6018(3) 0.2257(3)
C26_6 C 0.8505(11) 0.6850(3) 0.3339(3)
H17_6 H 0.909115 0.660617 0.334397
C27_6 C 0.6830(10) 0.7552(3) 0.3365(3)
H18_6 H 0.625893 0.779979 0.337030
C28_6 C 0.6848(19) 0.9068(4) 0.0439(5)
N10_6 N 0.668(2) 0.9365(5) 0.0623(5)
Fe4_4 Fe 0.74131(11) 0.78070(3) 0.42043(3)
Au1_6 Au 0.25839(3) 0.71851(2) 0.92171(2)
N1_6 N 0.5655(8) 0.7137(2) 0.9213(2)
N3_6 N 0.7426(8) 0.7747(2) 0.9511(2)
N4_6 N 0.7690(9) 0.6868(2) 0.9741(2)
C1_6 C 0.0655(10) 0.7240(3) 0.9201(2)
C2_6 C 0.4541(10) 0.7140(3) 0.9219(3)
C3_6 C 0.7339(11) 0.8050(3) 0.9720(3)
C4_6 C 0.6919(12) 0.6536(3) 0.9823(3)
H3_6 H 0.631786 0.644188 0.962415
H6_6 H 0.913920 0.722569 0.996087
N11_4 N 0.9513(9) 0.7253(2) 0.9190(2)
N13_4 N 0.7453(8) 0.7532(2) 0.8682(2)
Au1_7 Au 0.24161(3) 0.21851(2) 0.57829(2)
N2_3 N 0.5487(9) 0.2253(2) 0.5810(2)
C1_7 C 0.4345(10) 0.2240(3) 0.5799(2)
C2_7 C 0.0459(10) 0.2140(3) 0.5781(3)
Au2_7 Au 0.78741(5) 0.35426(2) 0.49080(2)
N1_7 N 0.9345(8) 0.2137(2) 0.5787(2)
N3_7 N 0.7574(8) 0.2747(2) 0.5489(2)
N4_7 N 0.7310(9) 0.1868(2) 0.5259(2)
O1_7 O 0.6254(9) 0.1731(2) 0.3790(2)
O2_7 O 0.6441(11) 0.1031(2) 0.2062(2)
C3_7 C 0.7661(11) 0.3050(3) 0.5280(3)
N7_7 N 0.7141(10) 0.1196(2) 0.4168(2)
H1_7 H 0.743114 0.092240 0.417084
N8_7 N 0.7260(9) 0.1657(2) 0.2333(2)
H2_7 H 0.754397 0.177394 0.255698
C4_7 C 0.8081(12) 0.1536(3) 0.5177(3)
H3_7 H 0.868214 0.144188 0.537585
C5_7 C 0.6971(12) 0.0610(3) 0.3494(2)
H5_7 H 0.702901 0.046999 0.374624
C6_7 C 0.6435(10) 0.1986(3) 0.4983(2)
H6_7 H 0.586080 0.222569 0.503913
C7_7 C 0.6323(10) 0.1782(3) 0.4625(3)
H7_7 H 0.567033 0.187277 0.444002
C8_7 C 0.6572(10) 0.2133(3) 0.1339(3)
H8_7 H 0.598125 0.209043 0.112358
C11_7 C 0.6729(11) 0.1262(3) 0.3099(3)
H10_7 H 0.659460 0.157148 0.308484
C12_7 C 0.7178(10) 0.1436(3) 0.4531(2)
C13_7 C 0.8079(12) 0.1314(3) 0.4821(3)
H11_7 H 0.868304 0.108021 0.477475
C14_7 C 0.6690(10) 0.1359(3) 0.3817(2)
C15_7 C 0.6778(11) 0.1058(2) 0.3469(2)
C16_7 C 0.7284(10) 0.1926(3) 0.1993(3)
C17_7 C 0.8133(12) 0.2292(3) 0.1984(3)
H12_7 H 0.866896 0.236245 0.220586
C21_7 C 0.6839(10) 0.1235(3) 0.2346(3)
C22_7 C 0.7082(14) 0.0363(3) 0.3146(3)
C24_7 C 0.7091(13) 0.0566(3) 0.2764(3)
H16_7 H 0.724011 0.039693 0.253013
C25_7 C 0.6876(12) 0.1018(3) 0.2743(3)
C26_7 C 0.6495(11) 0.1850(3) 0.1661(3)
H17_7 H 0.590885 0.160617 0.165603
C27_7 C 0.8170(10) 0.2552(3) 0.1635(3)
H18_7 H 0.874107 0.279979 0.162970
C28_7 C 0.8152(19) 0.4068(4) 0.4561(5)
N10_7 N 0.832(2) 0.4365(5) 0.4377(5)
N12_4 N 0.7195(9) 0.1613(2) 0.6079(2)
N5_4 N 0.7195(9) 0.8387(2) 0.3921(2)
O3_7 O 0.8069(16) 0.9689(3) 0.2915(3)
N9_7 N 0.6726(14) 0.9669(3) 0.3466(3)
H4_7 H 0.616808 0.982940 0.360335
C9_7 C 0.6891(13) 0.9227(3) 0.3587(3)
C10_7 C 0.8007(12) 0.8536(3) 0.3626(3)
H9_7 H 0.870537 0.835171 0.353904
C18_7 C 0.7852(15) 0.8945(3) 0.3451(3)
H13_7 H 0.840719 0.903077 0.323761
C19_7 C 0.6275(12) 0.8674(3) 0.4049(3)
H14_7 H 0.571226 0.858259 0.425933
C20_7 C 0.7359(17) 0.9875(3) 0.3150(3)
C23_7 C 0.6102(13) 0.9084(3) 0.3898(3)
H15_7 H 0.544501 0.927313 0.400458
Au1_8 Au 0.24161(3) 0.78149(2) 0.42171(2)
N2_4 N 0.5487(9) 0.7747(2) 0.4190(2)
C1_8 C 0.4345(10) 0.7760(3) 0.4201(2)
C2_8 C 0.0459(10) 0.7860(3) 0.4219(3)
O3_8 O 0.8069(16) 0.0311(3) 0.7085(3)
N9_8 N 0.6726(14) 0.0331(3) 0.6534(3)
H4_8 H 0.616808 0.017060 0.639665
C9_8 C 0.6891(13) 0.0773(3) 0.6413(3)
C10_8 C 0.8007(12) 0.1464(3) 0.6374(3)
H9_8 H 0.870537 0.164829 0.646096
C18_8 C 0.7852(15) 0.1055(3) 0.6549(3)
H13_8 H 0.840719 0.096923 0.676239
C19_8 C 0.6275(12) 0.1326(3) 0.5951(3)
H14_8 H 0.571226 0.141741 0.574067
C20_8 C 0.7359(17) 0.0125(3) 0.6850(3)
C23_8 C 0.6102(13) 0.0916(3) 0.6102(3)
H15_8 H 0.544501 0.072687 0.599542
Au2_8 Au 0.78741(5) 0.64574(2) 0.50920(2)
N1_8 N 0.9345(8) 0.7863(2) 0.4213(2)
N3_8 N 0.7574(8) 0.7253(2) 0.4511(2)
N4_8 N 0.7310(9) 0.8132(2) 0.4741(2)
O1_8 O 0.6254(9) 0.8269(2) 0.6210(2)
O2_8 O 0.6441(11) 0.8969(2) 0.7938(2)
C3_8 C 0.7661(11) 0.6950(3) 0.4720(3)
N7_8 N 0.7141(10) 0.8804(2) 0.5832(2)
H1_8 H 0.743114 0.907760 0.582916
N8_8 N 0.7260(9) 0.8343(2) 0.7667(2)
H2_8 H 0.754397 0.822606 0.744302
C4_8 C 0.8081(12) 0.8464(3) 0.4823(3)
H3_8 H 0.868214 0.855812 0.462415
C5_8 C 0.6971(12) 0.9390(3) 0.6506(2)
H5_8 H 0.702901 0.953001 0.625376
C6_8 C 0.6435(10) 0.8014(3) 0.5017(2)
H6_8 H 0.586080 0.777431 0.496087
C7_8 C 0.6323(10) 0.8218(3) 0.5375(3)
H7_8 H 0.567033 0.812723 0.555998
C8_8 C 0.6572(10) 0.7867(3) 0.8661(3)
H8_8 H 0.598125 0.790957 0.887642
C11_8 C 0.6729(11) 0.8738(3) 0.6901(3)
H10_8 H 0.659460 0.842852 0.691516
C12_8 C 0.7178(10) 0.8564(3) 0.5469(2)
C13_8 C 0.8079(12) 0.8686(3) 0.5179(3)
H11_8 H 0.868304 0.891979 0.522525
C14_8 C 0.6690(10) 0.8641(3) 0.6183(2)
C15_8 C 0.6778(11) 0.8942(2) 0.6531(2)
C16_8 C 0.7284(10) 0.8074(3) 0.8007(3)
C17_8 C 0.8133(12) 0.7708(3) 0.8016(3)
H12_8 H 0.866896 0.763755 0.779414
C21_8 C 0.6839(10) 0.8765(3) 0.7654(3)
C22_8 C 0.7082(14) 0.9637(3) 0.6854(3)
C24_8 C 0.7091(13) 0.9434(3) 0.7236(3)
H16_8 H 0.724011 0.960307 0.746987
C25_8 C 0.6876(12) 0.8982(3) 0.7257(3)
C26_8 C 0.6495(11) 0.8150(3) 0.8339(3)
H17_8 H 0.590885 0.839383 0.834397
C27_8 C 0.8170(10) 0.7448(3) 0.8365(3)
H18_8 H 0.874107 0.720021 0.837030
C28_8 C 0.8152(19) 0.5932(4) 0.5439(5)
N10_8 N 0.832(2) 0.5635(5) 0.5623(5)
loop_
_geom_bond_atom_site_label_1
_geom_bond_atom_site_label_2
_geom_bond_site_symmetry_1
_geom_bond_site_symmetry_2
Fe2 N2 1_555 1_555
Au1 C1 1_555 1_555
Au2 C3 1_555 1_555
Fe2 N1 1_555 1_555
N1 C2 1_555 1_555
N3 Fe2 1_555 1_555
N4 Fe2 1_555 1_555
O1 C14 1_555 1_555
N5 C10 1_555 1_555
N6 C8 1_555 1_555
O2 C21 1_555 1_555
C2 Au1 1_555 1_555
C3 N3 1_555 1_555
O3 C20 1_555 1_555
N7 H1 1_555 1_555
N8 H2 1_555 1_555
C4 N4 1_555 1_555
H3 C4 1_555 1_555
N9 H4 1_555 1_555
C5 H5 1_555 1_555
C6 N4 1_555 1_555
H6 C6 1_555 1_555
C7 C6 1_555 1_555
H7 C7 1_555 1_555
C8 H8 1_555 1_555
C9 N9 1_555 1_555
C10 H9 1_555 1_555
C11 H10 1_555 1_555
C12 N7 1_555 1_555
C13 C4 1_555 1_555
H11 C13 1_555 1_555
C14 N7 1_555 1_555
C15 C5 1_555 1_555
C16 N8 1_555 1_555
C17 C16 1_555 1_555
H12 C17 1_555 1_555
C18 C9 1_555 1_555
H13 C18 1_555 1_555
C19 N5 1_555 1_555
H14 C19 1_555 1_555
C20 N9 1_555 1_555
C21 N8 1_555 1_555
C22 C5 1_555 1_555
C23 C9 1_555 1_555
H15 C23 1_555 1_555
C24 C22 1_555 1_555
H16 C24 1_555 1_555
C25 C11 1_555 1_555
C26 C8 1_555 1_555
H17 C26 1_555 1_555
C27 N6 1_555 1_555
H18 C27 1_555 1_555
C28 Au2 1_555 1_555
N10 C28 1_555 1_555
Fe3 N5 1_555 1_555
Fe4 N6 1_555 1_555
N12 Fe2 1_555 1_555
N13 Fe2 1_555 1_555
C7 C12 1_555 1_555
C10 C18 1_555 1_555
C11 C15 1_555 1_555
C12 C13 1_555 1_555
C14 C15 1_555 1_555
C16 C26 1_555 1_555
C17 C27 1_555 1_555
C19 C23 1_555 1_555
C20 C22 1_555 1_555
C21 C25 1_555 1_555
C24 C25 1_555 1_555
Fe3 N2_2 1_555 1_555
Au1_2 C1_2 1_555 1_555
Au2_2 C3_2 1_555 1_555
Fe3 N1_2 1_555 1_555
N1_2 C2_2 1_555 1_555
N3_2 Fe3 1_555 1_555
N4_2 Fe3 1_555 1_555
O1_2 C14_2 1_555 1_555
N12 C10_2 1_555 1_555
N6_2 C8_2 1_555 1_555
O2_2 C21_2 1_555 1_555
C2_2 Au1_2 1_555 1_555
C3_2 N3_2 1_555 1_555
O3_2 C20_2 1_555 1_555
N7_2 H1_2 1_555 1_555
N8_2 H2_2 1_555 1_555
C4_2 N4_2 1_555 1_555
H3_2 C4_2 1_555 1_555
N9_2 H4_2 1_555 1_555
C5_2 H5_2 1_555 1_555
C6_2 N4_2 1_555 1_555
H6_2 C6_2 1_555 1_555
C7_2 C6_2 1_555 1_555
H7_2 C7_2 1_555 1_555
C8_2 H8_2 1_555 1_555
C9_2 N9_2 1_555 1_555
C10_2 H9_2 1_555 1_555
C11_2 H10_2 1_555 1_555
C12_2 N7_2 1_555 1_555
C13_2 C4_2 1_555 1_555
H11_2 C13_2 1_555 1_555
C14_2 N7_2 1_555 1_555
C15_2 C5_2 1_555 1_555
C16_2 N8_2 1_555 1_555
C17_2 C16_2 1_555 1_555
H12_2 C17_2 1_555 1_555
C18_2 C9_2 1_555 1_555
H13_2 C18_2 1_555 1_555
C19_2 N12 1_555 1_555
H14_2 C19_2 1_555 1_555
C20_2 N9_2 1_555 1_555
C21_2 N8_2 1_555 1_555
C22_2 C5_2 1_555 1_555
C23_2 C9_2 1_555 1_555
H15_2 C23_2 1_555 1_555
C24_2 C22_2 1_555 1_555
H16_2 C24_2 1_555 1_555
C25_2 C11_2 1_555 1_555
C26_2 C8_2 1_555 1_555
H17_2 C26_2 1_555 1_555
C27_2 N6_2 1_555 1_555
H18_2 C27_2 1_555 1_555
C28_2 Au2_2 1_555 1_555
N10_2 C28_2 1_555 1_555
Fe4_2 N6_2 1_555 1_555
N13_2 Fe3 1_555 1_555
C7_2 C12_2 1_555 1_555
C10_2 C18_2 1_555 1_555
C11_2 C15_2 1_555 1_555
C12_2 C13_2 1_555 1_555
C14_2 C15_2 1_555 1_555
C16_2 C26_2 1_555 1_555
C17_2 C27_2 1_555 1_555
C19_2 C23_2 1_555 1_555
C20_2 C22_2 1_555 1_555
C21_2 C25_2 1_555 1_555
C24_2 C25_2 1_555 1_555
N5_2 C10_3 1_555 1_555
O3_3 C20_3 1_555 1_555
N9_3 H4_3 1_555 1_555
C9_3 N9_3 1_555 1_555
C10_3 H9_3 1_555 1_555
C18_3 C9_3 1_555 1_555
H13_3 C18_3 1_555 1_555
C19_3 N5_2 1_555 1_555
H14_3 C19_3 1_555 1_555
C20_3 N9_3 1_555 1_555
C23_3 C9_3 1_555 1_555
H15_3 C23_3 1_555 1_555
Fe4_2 N5_2 1_555 1_555
C10_3 C18_3 1_555 1_555
C19_3 C23_3 1_555 1_555
Fe4 N1_3 1_555 1_555
N3_3 Fe4 1_555 1_555
N4_3 Fe4 1_555 1_555
C3_3 N3_3 1_555 1_555
C4_3 N4_3 1_555 1_555
H3_3 C4_3 1_555 1_555
N11 Fe4 1_555 1_555
N12_2 Fe4 1_555 1_555
O1_3 C14_3 1_555 1_555
N13 C8_3 1_555 1_555
O2_3 C21_3 1_555 1_555
N7_3 H1_3 1_555 1_555
N8_3 H2_3 1_555 1_555
C5_3 H5_3 1_555 1_555
C7_3 C6_3 1_555 1_555
H7_3 C7_3 1_555 1_555
C8_3 H8_3 1_555 1_555
C11_3 H10_3 1_555 1_555
C12_3 N7_3 1_555 1_555
H11_3 C13_3 1_555 1_555
C14_3 N7_3 1_555 1_555
C15_3 C5_3 1_555 1_555
C16_3 N8_3 1_555 1_555
C17_3 C16_3 1_555 1_555
H12_3 C17_3 1_555 1_555
C21_3 N8_3 1_555 1_555
C22_3 C5_3 1_555 1_555
C24_3 C22_3 1_555 1_555
H16_3 C24_3 1_555 1_555
C25_3 C11_3 1_555 1_555
C26_3 C8_3 1_555 1_555
H17_3 C26_3 1_555 1_555
C27_3 N13 1_555 1_555
H18_3 C27_3 1_555 1_555
C28_3 Au2_3 1_555 1_555
N10_3 C28_3 1_555 1_555
C7_3 C12_3 1_555 1_555
C11_3 C15_3 1_555 1_555
C12_3 C13_3 1_555 1_555
C14_3 C15_3 1_555 1_555
C16_3 C26_3 1_555 1_555
C17_3 C27_3 1_555 1_555
C21_3 C25_3 1_555 1_555
C24_3 C25_3 1_555 1_555
Au1_3 C1_3 1_555 1_555
N11 C1_3 1_555 1_555
C2_3 Au1_3 1_555 1_555
O1_4 C14_4 1_555 1_555
N13_2 C8_4 1_555 1_555
O2_4 C21_4 1_555 1_555
N7_4 H1_4 1_555 1_555
N8_4 H2_4 1_555 1_555
C5_4 H5_4 1_555 1_555
C7_4 C6_4 1_555 1_555
H7_4 C7_4 1_555 1_555
C8_4 H8_4 1_555 1_555
C11_4 H10_4 1_555 1_555
C12_4 N7_4 1_555 1_555
H11_4 C13_4 1_555 1_555
C14_4 N7_4 1_555 1_555
C15_4 C5_4 1_555 1_555
C16_4 N8_4 1_555 1_555
C17_4 C16_4 1_555 1_555
H12_4 C17_4 1_555 1_555
C21_4 N8_4 1_555 1_555
C22_4 C5_4 1_555 1_555
C24_4 C22_4 1_555 1_555
H16_4 C24_4 1_555 1_555
C25_4 C11_4 1_555 1_555
C26_4 C8_4 1_555 1_555
H17_4 C26_4 1_555 1_555
C27_4 N13_2 1_555 1_555
H18_4 C27_4 1_555 1_555
C28_4 Au2_4 1_555 1_555
N10_4 C28_4 1_555 1_555
C7_4 C12_4 1_555 1_555
C11_4 C15_4 1_555 1_555
C12_4 C13_4 1_555 1_555
C14_4 C15_4 1_555 1_555
C16_4 C26_4 1_555 1_555
C17_4 C27_4 1_555 1_555
C21_4 C25_4 1_555 1_555
C24_4 C25_4 1_555 1_555
Fe4_2 N1_4 1_555 1_555
N3_4 Fe4_2 1_555 1_555
N4_4 Fe4_2 1_555 1_555
C3_4 N3_4 1_555 1_555
C4_4 N4_4 1_555 1_555
H3_4 C4_4 1_555 1_555
N11_2 Fe4_2 1_555 1_555
N12_2 C10_4 1_555 1_555
O3_4 C20_4 1_555 1_555
N9_4 H4_4 1_555 1_555
C9_4 N9_4 1_555 1_555
C10_4 H9_4 1_555 1_555
C18_4 C9_4 1_555 1_555
H13_4 C18_4 1_555 1_555
C19_4 N12_2 1_555 1_555
H14_4 C19_4 1_555 1_555
C20_4 N9_4 1_555 1_555
C23_4 C9_4 1_555 1_555
H15_4 C23_4 1_555 1_555
C10_4 C18_4 1_555 1_555
C19_4 C23_4 1_555 1_555
Au1_4 C1_4 1_555 1_555
N11_2 C1_4 1_555 1_555
C2_4 Au1_4 1_555 1_555
Au1_5 C1_5 1_555 1_555
Fe1 N1_5 1_555 1_555
N1_5 C2_5 1_555 1_555
N3_5 Fe1 1_555 1_555
N4_5 Fe1 1_555 1_555
C2_5 Au1_5 1_555 1_555
C3_5 N3_5 1_555 1_555
C4_5 N4_5 1_555 1_555
H3_5 C4_5 1_555 1_555
N11_3 Fe1 1_555 1_555
N12_3 Fe1 1_555 1_555
N13_3 Fe1 1_555 1_555
O1_5 C14_5 1_555 1_555
N5_3 C10_5 1_555 1_555
N6_3 C8_5 1_555 1_555
O2_5 C21_5 1_555 1_555
O3_5 C20_5 1_555 1_555
N7_5 H1_5 1_555 1_555
N8_5 H2_5 1_555 1_555
N9_5 H4_5 1_555 1_555
C5_5 H5_5 1_555 1_555
C7_5 C6_5 1_555 1_555
H7_5 C7_5 1_555 1_555
C8_5 H8_5 1_555 1_555
C9_5 N9_5 1_555 1_555
C10_5 H9_5 1_555 1_555
C11_5 H10_5 1_555 1_555
C12_5 N7_5 1_555 1_555
H11_5 C13_5 1_555 1_555
C14_5 N7_5 1_555 1_555
C15_5 C5_5 1_555 1_555
C16_5 N8_5 1_555 1_555
C17_5 C16_5 1_555 1_555
H12_5 C17_5 1_555 1_555
C18_5 C9_5 1_555 1_555
H13_5 C18_5 1_555 1_555
C19_5 N5_3 1_555 1_555
H14_5 C19_5 1_555 1_555
C20_5 N9_5 1_555 1_555
C21_5 N8_5 1_555 1_555
C22_5 C5_5 1_555 1_555
C23_5 C9_5 1_555 1_555
H15_5 C23_5 1_555 1_555
C24_5 C22_5 1_555 1_555
H16_5 C24_5 1_555 1_555
C25_5 C11_5 1_555 1_555
C26_5 C8_5 1_555 1_555
H17_5 C26_5 1_555 1_555
C27_5 N6_3 1_555 1_555
H18_5 C27_5 1_555 1_555
C28_5 Au2_5 1_555 1_555
N10_5 C28_5 1_555 1_555
Fe3_2 N5_3 1_555 1_555
Fe4_3 N6_3 1_555 1_555
C7_5 C12_5 1_555 1_555
C10_5 C18_5 1_555 1_555
C11_5 C15_5 1_555 1_555
C12_5 C13_5 1_555 1_555
C14_5 C15_5 1_555 1_555
C16_5 C26_5 1_555 1_555
C17_5 C27_5 1_555 1_555
C19_5 C23_5 1_555 1_555
C20_5 C22_5 1_555 1_555
C21_5 C25_5 1_555 1_555
C24_5 C25_5 1_555 1_555
O1_6 C14_6 1_555 1_555
N12_3 C10_6 1_555 1_555
N6_4 C8_6 1_555 1_555
O2_6 C21_6 1_555 1_555
O3_6 C20_6 1_555 1_555
N7_6 H1_6 1_555 1_555
N8_6 H2_6 1_555 1_555
N9_6 H4_6 1_555 1_555
C5_6 H5_6 1_555 1_555
C7_6 C6_6 1_555 1_555
H7_6 C7_6 1_555 1_555
C8_6 H8_6 1_555 1_555
C9_6 N9_6 1_555 1_555
C10_6 H9_6 1_555 1_555
C11_6 H10_6 1_555 1_555
C12_6 N7_6 1_555 1_555
H11_6 C13_6 1_555 1_555
C14_6 N7_6 1_555 1_555
C15_6 C5_6 1_555 1_555
C16_6 N8_6 1_555 1_555
C17_6 C16_6 1_555 1_555
H12_6 C17_6 1_555 1_555
C18_6 C9_6 1_555 1_555
H13_6 C18_6 1_555 1_555
C19_6 N12_3 1_555 1_555
H14_6 C19_6 1_555 1_555
C20_6 N9_6 1_555 1_555
C21_6 N8_6 1_555 1_555
C22_6 C5_6 1_555 1_555
C23_6 C9_6 1_555 1_555
H15_6 C23_6 1_555 1_555
C24_6 C22_6 1_555 1_555
H16_6 C24_6 1_555 1_555
C25_6 C11_6 1_555 1_555
C26_6 C8_6 1_555 1_555
H17_6 C26_6 1_555 1_555
C27_6 N6_4 1_555 1_555
H18_6 C27_6 1_555 1_555
C28_6 Au2_6 1_555 1_555
N10_6 C28_6 1_555 1_555
Fe4_4 N6_4 1_555 1_555
C7_6 C12_6 1_555 1_555
C10_6 C18_6 1_555 1_555
C11_6 C15_6 1_555 1_555
C12_6 C13_6 1_555 1_555
C14_6 C15_6 1_555 1_555
C16_6 C26_6 1_555 1_555
C17_6 C27_6 1_555 1_555
C19_6 C23_6 1_555 1_555
C20_6 C22_6 1_555 1_555
C21_6 C25_6 1_555 1_555
C24_6 C25_6 1_555 1_555
Au1_6 C1_6 1_555 1_555
Fe3_2 N1_6 1_555 1_555
N1_6 C2_6 1_555 1_555
N3_6 Fe3_2 1_555 1_555
N4_6 Fe3_2 1_555 1_555
C2_6 Au1_6 1_555 1_555
C3_6 N3_6 1_555 1_555
C4_6 N4_6 1_555 1_555
H3_6 C4_6 1_555 1_555
N11_4 Fe3_2 1_555 1_555
N13_4 Fe3_2 1_555 1_555
Au1_7 C1_7 1_555 1_555
N2_3 C1_7 1_555 1_555
C2_7 Au1_7 1_555 1_555
Fe4_3 N2_3 1_555 1_555
Au2_7 C3_7 1_555 1_555
Fe4_3 N1_7 1_555 1_555
N3_7 Fe4_3 1_555 1_555
N4_7 Fe4_3 1_555 1_555
O1_7 C14_7 1_555 1_555
N13_3 C8_7 1_555 1_555
O2_7 C21_7 1_555 1_555
C3_7 N3_7 1_555 1_555
N7_7 H1_7 1_555 1_555
N8_7 H2_7 1_555 1_555
C4_7 N4_7 1_555 1_555
H3_7 C4_7 1_555 1_555
C5_7 H5_7 1_555 1_555
C6_7 N4_7 1_555 1_555
H6_7 C6_7 1_555 1_555
C7_7 C6_7 1_555 1_555
H7_7 C7_7 1_555 1_555
C8_7 H8_7 1_555 1_555
C11_7 H10_7 1_555 1_555
C12_7 N7_7 1_555 1_555
C13_7 C4_7 1_555 1_555
H11_7 C13_7 1_555 1_555
C14_7 N7_7 1_555 1_555
C15_7 C5_7 1_555 1_555
C16_7 N8_7 1_555 1_555
C17_7 C16_7 1_555 1_555
H12_7 C17_7 1_555 1_555
C21_7 N8_7 1_555 1_555
C22_7 C5_7 1_555 1_555
C24_7 C22_7 1_555 1_555
H16_7 C24_7 1_555 1_555
C25_7 C11_7 1_555 1_555
C26_7 C8_7 1_555 1_555
H17_7 C26_7 1_555 1_555
C27_7 N13_3 1_555 1_555
H18_7 C27_7 1_555 1_555
C28_7 Au2_7 1_555 1_555
N10_7 C28_7 1_555 1_555
N12_4 Fe4_3 1_555 1_555
C7_7 C12_7 1_555 1_555
C11_7 C15_7 1_555 1_555
C12_7 C13_7 1_555 1_555
C14_7 C15_7 1_555 1_555
C16_7 C26_7 1_555 1_555
C17_7 C27_7 1_555 1_555
C21_7 C25_7 1_555 1_555
C24_7 C25_7 1_555 1_555
N5_4 C10_7 1_555 1_555
O3_7 C20_7 1_555 1_555
N9_7 H4_7 1_555 1_555
C9_7 N9_7 1_555 1_555
C10_7 H9_7 1_555 1_555
C18_7 C9_7 1_555 1_555
H13_7 C18_7 1_555 1_555
C19_7 N5_4 1_555 1_555
H14_7 C19_7 1_555 1_555
C20_7 N9_7 1_555 1_555
C23_7 C9_7 1_555 1_555
H15_7 C23_7 1_555 1_555
Fe4_4 N5_4 1_555 1_555
C10_7 C18_7 1_555 1_555
C19_7 C23_7 1_555 1_555
Au1_8 C1_8 1_555 1_555
N2_4 C1_8 1_555 1_555
C2_8 Au1_8 1_555 1_555
Fe4_4 N2_4 1_555 1_555
N12_4 C10_8 1_555 1_555
O3_8 C20_8 1_555 1_555
N9_8 H4_8 1_555 1_555
C9_8 N9_8 1_555 1_555
C10_8 H9_8 1_555 1_555
C18_8 C9_8 1_555 1_555
H13_8 C18_8 1_555 1_555
C19_8 N12_4 1_555 1_555
H14_8 C19_8 1_555 1_555
C20_8 N9_8 1_555 1_555
C23_8 C9_8 1_555 1_555
H15_8 C23_8 1_555 1_555
C10_8 C18_8 1_555 1_555
C19_8 C23_8 1_555 1_555
Au2_8 C3_8 1_555 1_555
Fe4_4 N1_8 1_555 1_555
N3_8 Fe4_4 1_555 1_555
N4_8 Fe4_4 1_555 1_555
O1_8 C14_8 1_555 1_555
N13_4 C8_8 1_555 1_555
O2_8 C21_8 1_555 1_555
C3_8 N3_8 1_555 1_555
N7_8 H1_8 1_555 1_555
N8_8 H2_8 1_555 1_555
C4_8 N4_8 1_555 1_555
H3_8 C4_8 1_555 1_555
C5_8 H5_8 1_555 1_555
C6_8 N4_8 1_555 1_555
H6_8 C6_8 1_555 1_555
C7_8 C6_8 1_555 1_555
H7_8 C7_8 1_555 1_555
C8_8 H8_8 1_555 1_555
C11_8 H10_8 1_555 1_555
C12_8 N7_8 1_555 1_555
C13_8 C4_8 1_555 1_555
H11_8 C13_8 1_555 1_555
C14_8 N7_8 1_555 1_555
C15_8 C5_8 1_555 1_555
C16_8 N8_8 1_555 1_555
C17_8 C16_8 1_555 1_555
H12_8 C17_8 1_555 1_555
C21_8 N8_8 1_555 1_555
C22_8 C5_8 1_555 1_555
C24_8 C22_8 1_555 1_555
H16_8 C24_8 1_555 1_555
C25_8 C11_8 1_555 1_555
C26_8 C8_8 1_555 1_555
H17_8 C26_8 1_555 1_555
C27_8 N13_4 1_555 1_555
H18_8 C27_8 1_555 1_555
C28_8 Au2_8 1_555 1_555
N10_8 C28_8 1_555 1_555
C7_8 C12_8 1_555 1_555
C11_8 C15_8 1_555 1_555
C12_8 C13_8 1_555 1_555
C14_8 C15_8 1_555 1_555
C16_8 C26_8 1_555 1_555
C17_8 C27_8 1_555 1_555
C21_8 C25_8 1_555 1_555
C24_8 C25_8 1_555 1_555

#END
