
###############################################################################
#
# This file contains modified crystal structure data generated from the
# MOF subset of the Cambridge Structural Database (CSD) v543 
# hosted by the Cambridge Crystallographic Data Centre (CCDC).
#
# This work is licensed under the Creative Commons
# Attribution-NonCommercial-ShareAlike 4.0 International License.
# To view a copy of this license, visit
# http://creativecommons.org/licenses/by-nc-sa/4.0/
# or send a letter to
# Creative Commons, PO Box 1866, Mountain View, CA 94042, USA.
#
# CIF created using the CSD Python API on 29 September 2022
# The structure has been converted into the P1 space group
# The structure has a 3D framework
# The original CSD entry WAMCAS01 is in the orthorhombic crystal system
# The original CSD entry WAMCAS01 is in a Sohncke space group
# The framework has been calculated to contain at least 10.0% void space
# The void calculation uses a probe of radius 1.32A, grid spacing 0.4
#
###############################################################################

data_WAMCAS01
_chemical_formula_moiety         '(C224 H144 Au16 Fe8 N76 O24)n'
_symmetry_cell_setting           triclinic
_symmetry_space_group_name_H-M   'P 1'
_symmetry_Int_Tables_number      1
_space_group_name_Hall           'P 1'
loop_
_symmetry_equiv_pos_site_id
_symmetry_equiv_pos_as_xyz
1 x,y,z
_cell_length_a                   10.107(2)
_cell_length_b                   30.257(6)
_cell_length_c                   33.542(7)
_cell_angle_alpha                90
_cell_angle_beta                 90
_cell_angle_gamma                90
_cell_volume                     10257.4
loop_
_atom_site_label
_atom_site_type_symbol
_atom_site_fract_x
_atom_site_fract_y
_atom_site_fract_z
N2 N 0.0505(6) 0.72535(19) 0.58103(19)
Fe2 Fe 0.24191(9) 0.71912(3) 0.57955(3)
Au1 Au 0.74219(2) 0.71837(2) 0.57838(2)
Au2 Au 0.28736(4) 0.85406(2) 0.49107(2)
N1 N 0.4339(6) 0.71368(19) 0.57879(19)
N3 N 0.2584(7) 0.77383(19) 0.54919(19)
N4 N 0.2318(7) 0.68695(18) 0.52676(18)
O1 O 0.1271(8) 0.67372(19) 0.37871(18)
N5 N 0.2208(7) 0.33878(19) 0.39232(19)
N6 N 0.2430(7) 0.74722(18) 0.13127(17)
C1 C 0.9371(8) 0.7240(2) 0.5800(2)
O2 O 0.1447(9) 0.6032(2) 0.20556(19)
C2 C 0.5467(8) 0.7138(2) 0.5784(2)
C3 C 0.2665(9) 0.8039(2) 0.5284(2)
O3 O 0.3067(13) 0.4690(2) 0.2914(2)
N7 N 0.2148(8) 0.6196(2) 0.41753(19)
H1 H 0.243770 0.592172 0.417869
N8 N 0.2262(8) 0.6666(2) 0.2335(2)
H2 H 0.252995 0.678517 0.255994
C4 C 0.3107(9) 0.6533(2) 0.5181(2)
H3 H 0.372175 0.643894 0.537742
N9 N 0.1712(11) 0.4664(2) 0.3460(3)
H4 H 0.110489 0.481877 0.358598
C5 C 0.1977(10) 0.5611(2) 0.3492(2)
H5 H 0.201949 0.546817 0.374403
C6 C 0.1431(8) 0.6987(2) 0.4989(2)
H6 H 0.084958 0.722577 0.504609
C7 C 0.1319(8) 0.6782(2) 0.4624(2)
H7 H 0.067175 0.687448 0.443584
C8 C 0.1574(8) 0.7134(2) 0.1336(2)
H8 H 0.099382 0.708626 0.111713
C9 C 0.1913(11) 0.4229(2) 0.3590(3)
C10 C 0.3011(9) 0.3532(2) 0.3627(2)
H9 H 0.369915 0.334206 0.353737
C11 C 0.1738(8) 0.6268(2) 0.3098(2)
H10 H 0.159765 0.657802 0.308466
C12 C 0.2180(8) 0.6434(2) 0.4536(2)
C13 C 0.3085(9) 0.6312(3) 0.4820(3)
H11 H 0.368979 0.607870 0.477005
C14 C 0.1700(8) 0.6359(2) 0.3821(2)
C15 C 0.1794(8) 0.6062(2) 0.3471(2)
C16 C 0.2285(8) 0.6932(2) 0.1991(2)
C17 C 0.3123(9) 0.7297(2) 0.1979(2)
H12 H 0.365286 0.737005 0.220290
C18 C 0.2877(12) 0.3941(3) 0.3448(3)
H13 H 0.343390 0.402468 0.323295
C19 C 0.1274(9) 0.3672(3) 0.4049(3)
H14 H 0.070197 0.357793 0.425764
C20 C 0.2377(14) 0.4873(3) 0.3153(3)
C21 C 0.1851(9) 0.6234(2) 0.2343(2)
C22 C 0.2099(11) 0.5364(2) 0.3142(2)
C23 C 0.1095(10) 0.4089(2) 0.3897(3)
H15 H 0.042469 0.427735 0.399891
C24 C 0.2090(11) 0.5568(3) 0.2767(2)
H16 H 0.222202 0.539799 0.253258
C25 C 0.1885(9) 0.6024(2) 0.2742(2)
C26 C 0.1485(8) 0.6852(3) 0.1659(2)
H17 H 0.089156 0.660880 0.165555
C27 C 0.3175(8) 0.7553(3) 0.1634(2)
H18 H 0.376672 0.779721 0.162668
C28 C 0.3140(15) 0.9064(4) 0.4568(4)
N10 N 0.330(2) 0.9361(4) 0.4367(5)
Fe3 Fe 0.24191(9) 0.28088(3) 0.42045(3)
Fe4 Fe 0.25809(9) 0.78088(3) 0.07955(3)
N12 N 0.2208(7) 0.66122(19) 0.60768(19)
N13 N 0.2570(7) 0.75278(18) 0.63127(17)
N2_2 N 0.0505(6) 0.27465(19) 0.41897(19)
Au1_2 Au 0.74219(2) 0.28163(2) 0.42162(2)
Au2_2 Au 0.28736(4) 0.14594(2) 0.50893(2)
N1_2 N 0.4339(6) 0.28632(19) 0.42121(19)
N3_2 N 0.2584(7) 0.22617(19) 0.45081(19)
N4_2 N 0.2318(7) 0.31305(18) 0.47324(18)
O1_2 O 0.1271(8) 0.32628(19) 0.62129(18)
N6_2 N 0.2430(7) 0.25278(18) 0.86873(17)
C1_2 C 0.9371(8) 0.2760(2) 0.4200(2)
O2_2 O 0.1447(9) 0.3968(2) 0.79444(19)
C2_2 C 0.5467(8) 0.2862(2) 0.4216(2)
C3_2 C 0.2665(9) 0.1961(2) 0.4716(2)
O3_2 O 0.3067(13) 0.5310(2) 0.7086(2)
N7_2 N 0.2148(8) 0.3804(2) 0.58247(19)
H1_2 H 0.243770 0.407828 0.582131
N8_2 N 0.2262(8) 0.3334(2) 0.7665(2)
H2_2 H 0.252995 0.321483 0.744006
C4_2 C 0.3107(9) 0.3467(2) 0.4819(2)
H3_2 H 0.372175 0.356106 0.462258
N9_2 N 0.1712(11) 0.5336(2) 0.6540(3)
H4_2 H 0.110489 0.518123 0.641402
C5_2 C 0.1977(10) 0.4389(2) 0.6508(2)
H5_2 H 0.201949 0.453183 0.625597
C6_2 C 0.1431(8) 0.3013(2) 0.5011(2)
H6_2 H 0.084958 0.277423 0.495391
C7_2 C 0.1319(8) 0.3218(2) 0.5376(2)
H7_2 H 0.067175 0.312552 0.556416
C8_2 C 0.1574(8) 0.2866(2) 0.8664(2)
H8_2 H 0.099382 0.291374 0.888287
C9_2 C 0.1913(11) 0.5771(2) 0.6410(3)
C10_2 C 0.3011(9) 0.6468(2) 0.6373(2)
H9_2 H 0.369915 0.665794 0.646263
C11_2 C 0.1738(8) 0.3732(2) 0.6902(2)
H10_2 H 0.159765 0.342198 0.691534
C12_2 C 0.2180(8) 0.3566(2) 0.5464(2)
C13_2 C 0.3085(9) 0.3688(3) 0.5180(3)
H11_2 H 0.368979 0.392130 0.522995
C14_2 C 0.1700(8) 0.3641(2) 0.6179(2)
C15_2 C 0.1794(8) 0.3938(2) 0.6529(2)
C16_2 C 0.2285(8) 0.3068(2) 0.8009(2)
C17_2 C 0.3123(9) 0.2703(2) 0.8021(2)
H12_2 H 0.365286 0.262995 0.779710
C18_2 C 0.2877(12) 0.6059(3) 0.6552(3)
H13_2 H 0.343390 0.597532 0.676705
C19_2 C 0.1274(9) 0.6328(3) 0.5951(3)
H14_2 H 0.070197 0.642207 0.574236
C20_2 C 0.2377(14) 0.5127(3) 0.6847(3)
C21_2 C 0.1851(9) 0.3766(2) 0.7657(2)
C22_2 C 0.2099(11) 0.4636(2) 0.6858(2)
C23_2 C 0.1095(10) 0.5911(2) 0.6103(3)
H15_2 H 0.042469 0.572265 0.600109
C24_2 C 0.2090(11) 0.4432(3) 0.7233(2)
H16_2 H 0.222202 0.460201 0.746742
C25_2 C 0.1885(9) 0.3976(2) 0.7258(2)
C26_2 C 0.1485(8) 0.3148(3) 0.8341(2)
H17_2 H 0.089156 0.339120 0.834445
C27_2 C 0.3175(8) 0.2447(3) 0.8366(2)
H18_2 H 0.376672 0.220279 0.837332
C28_2 C 0.3140(15) 0.0936(4) 0.5432(4)
N10_2 N 0.330(2) 0.0639(4) 0.5633(5)
Fe4_2 Fe 0.25809(9) 0.21912(3) 0.92045(3)
N13_2 N 0.2570(7) 0.24722(18) 0.36873(17)
N5_2 N 0.2792(7) 0.16122(19) 0.89232(19)
O3_3 O 0.1933(13) 0.0310(2) 0.7914(2)
N9_3 N 0.3288(11) 0.0336(2) 0.8460(3)
H4_3 H 0.389511 0.018123 0.858598
C9_3 C 0.3087(11) 0.0771(2) 0.8590(3)
C10_3 C 0.1989(9) 0.1468(2) 0.8627(2)
H9_3 H 0.130085 0.165794 0.853737
C18_3 C 0.2123(12) 0.1059(3) 0.8448(3)
H13_3 H 0.156610 0.097532 0.823295
C19_3 C 0.3726(9) 0.1328(3) 0.9049(3)
H14_3 H 0.429803 0.142207 0.925764
C20_3 C 0.2623(14) 0.0127(3) 0.8153(3)
C23_3 C 0.3905(10) 0.0911(2) 0.8897(3)
H15_3 H 0.457531 0.072265 0.899891
N1_3 N 0.0661(6) 0.78632(19) 0.07879(19)
N3_3 N 0.2416(7) 0.72617(19) 0.04919(19)
N4_3 N 0.2682(7) 0.81305(18) 0.02676(18)
C3_3 C 0.2335(9) 0.6961(2) 0.0284(2)
C4_3 C 0.1893(9) 0.8467(2) 0.0181(2)
H3_3 H 0.127825 0.856106 0.037742
H6_3 H 0.415042 0.777423 0.004609
N11 N 0.4495(6) 0.77465(19) 0.08103(19)
N12_2 N 0.2792(7) 0.83878(19) 0.10768(19)
Au2_3 Au 0.21264(4) 0.64594(2) 0.99107(2)
O1_3 O 0.3729(8) 0.82628(19) 0.87871(18)
O2_3 O 0.3553(9) 0.8968(2) 0.70556(19)
N7_3 N 0.2852(8) 0.8804(2) 0.91753(19)
H1_3 H 0.256230 0.907828 0.917869
N8_3 N 0.2738(8) 0.8334(2) 0.7335(2)
H2_3 H 0.247005 0.821483 0.755994
C5_3 C 0.3023(10) 0.9389(2) 0.8492(2)
H5_3 H 0.298051 0.953183 0.874403
C6_3 C 0.3569(8) 0.8013(2) 0.9989(2)
C7_3 C 0.3681(8) 0.8218(2) 0.9624(2)
H7_3 H 0.432825 0.812552 0.943584
C8_3 C 0.3426(8) 0.7866(2) 0.6336(2)
H8_3 H 0.400618 0.791374 0.611713
C11_3 C 0.3262(8) 0.8732(2) 0.8098(2)
H10_3 H 0.340235 0.842198 0.808466
C12_3 C 0.2820(8) 0.8566(2) 0.9536(2)
C13_3 C 0.1915(9) 0.8688(3) 0.9820(3)
H11_3 H 0.131021 0.892130 0.977005
C14_3 C 0.3300(8) 0.8641(2) 0.8821(2)
C15_3 C 0.3206(8) 0.8938(2) 0.8471(2)
C16_3 C 0.2715(8) 0.8068(2) 0.6991(2)
C17_3 C 0.1877(9) 0.7703(2) 0.6979(2)
H12_3 H 0.134714 0.762995 0.720290
C21_3 C 0.3149(9) 0.8766(2) 0.7343(2)
C22_3 C 0.2901(11) 0.9636(2) 0.8142(2)
C24_3 C 0.2910(11) 0.9432(3) 0.7767(2)
H16_3 H 0.277798 0.960201 0.753258
C25_3 C 0.3115(9) 0.8976(2) 0.7742(2)
C26_3 C 0.3515(8) 0.8148(3) 0.6659(2)
H17_3 H 0.410844 0.839120 0.665555
C27_3 C 0.1825(8) 0.7447(3) 0.6634(2)
H18_3 H 0.123328 0.720279 0.662668
C28_3 C 0.1860(15) 0.5936(4) 0.9568(4)
N10_3 N 0.170(2) 0.5639(4) 0.9367(5)
Au1_3 Au 0.75781(2) 0.78163(2) 0.07838(2)
C1_3 C 0.5629(8) 0.7760(2) 0.0800(2)
C2_3 C 0.9533(8) 0.7862(2) 0.0784(2)
Au2_4 Au 0.21264(4) 0.35406(2) 0.00893(2)
O1_4 O 0.3729(8) 0.17372(19) 0.12129(18)
O2_4 O 0.3553(9) 0.1032(2) 0.29444(19)
N7_4 N 0.2852(8) 0.1196(2) 0.08247(19)
H1_4 H 0.256230 0.092172 0.082131
N8_4 N 0.2738(8) 0.1666(2) 0.2665(2)
H2_4 H 0.247005 0.178517 0.244006
C5_4 C 0.3023(10) 0.0611(2) 0.1508(2)
H5_4 H 0.298051 0.046817 0.125597
C6_4 C 0.3569(8) 0.1987(2) 0.0011(2)
C7_4 C 0.3681(8) 0.1782(2) 0.0376(2)
H7_4 H 0.432825 0.187448 0.056416
C8_4 C 0.3426(8) 0.2134(2) 0.3664(2)
H8_4 H 0.400618 0.208626 0.388287
C11_4 C 0.3262(8) 0.1268(2) 0.1902(2)
H10_4 H 0.340235 0.157802 0.191534
C12_4 C 0.2820(8) 0.1434(2) 0.0464(2)
C13_4 C 0.1915(9) 0.1312(3) 0.0180(3)
H11_4 H 0.131021 0.107870 0.022995
C14_4 C 0.3300(8) 0.1359(2) 0.1179(2)
C15_4 C 0.3206(8) 0.1062(2) 0.1529(2)
C16_4 C 0.2715(8) 0.1932(2) 0.3009(2)
C17_4 C 0.1877(9) 0.2297(2) 0.3021(2)
H12_4 H 0.134714 0.237005 0.279710
C21_4 C 0.3149(9) 0.1234(2) 0.2657(2)
C22_4 C 0.2901(11) 0.0364(2) 0.1858(2)
C24_4 C 0.2910(11) 0.0568(3) 0.2233(2)
H16_4 H 0.277798 0.039799 0.246742
C25_4 C 0.3115(9) 0.1024(2) 0.2258(2)
C26_4 C 0.3515(8) 0.1852(3) 0.3341(2)
H17_4 H 0.410844 0.160880 0.334445
C27_4 C 0.1825(8) 0.2553(3) 0.3366(2)
H18_4 H 0.123328 0.279721 0.337332
C28_4 C 0.1860(15) 0.4064(4) 0.0432(4)
N10_4 N 0.170(2) 0.4361(4) 0.0633(5)
N1_4 N 0.0661(6) 0.21368(19) 0.92121(19)
N3_4 N 0.2416(7) 0.27383(19) 0.95081(19)
N4_4 N 0.2682(7) 0.18695(18) 0.97324(18)
C3_4 C 0.2335(9) 0.3039(2) 0.9716(2)
C4_4 C 0.1893(9) 0.1533(2) 0.9819(2)
H3_4 H 0.127825 0.143894 0.962258
H6_4 H 0.415042 0.222577 0.995391
N11_2 N 0.4495(6) 0.22535(19) 0.91897(19)
O3_4 O 0.1933(13) 0.9690(2) 0.2086(2)
N9_4 N 0.3288(11) 0.9664(2) 0.1540(3)
H4_4 H 0.389511 0.981877 0.141402
C9_4 C 0.3087(11) 0.9229(2) 0.1410(3)
C10_4 C 0.1989(9) 0.8532(2) 0.1373(2)
H9_4 H 0.130085 0.834206 0.146263
C18_4 C 0.2123(12) 0.8941(3) 0.1552(3)
H13_4 H 0.156610 0.902468 0.176705
C19_4 C 0.3726(9) 0.8672(3) 0.0951(3)
H14_4 H 0.429803 0.857793 0.074236
C20_4 C 0.2623(14) 0.9873(3) 0.1847(3)
C23_4 C 0.3905(10) 0.9089(2) 0.1103(3)
H15_4 H 0.457531 0.927735 0.100109
Au1_4 Au 0.75781(2) 0.21837(2) 0.92162(2)
C1_4 C 0.5629(8) 0.2240(2) 0.9200(2)
C2_4 C 0.9533(8) 0.2138(2) 0.9216(2)
Au1_5 Au 0.25781(2) 0.28163(2) 0.07838(2)
Fe1 Fe 0.75809(9) 0.28088(3) 0.07955(3)
N1_5 N 0.5661(6) 0.28632(19) 0.07879(19)
N3_5 N 0.7416(7) 0.22617(19) 0.04919(19)
N4_5 N 0.7682(7) 0.31305(18) 0.02676(18)
C1_5 C 0.0629(8) 0.2760(2) 0.0800(2)
C2_5 C 0.4533(8) 0.2862(2) 0.0784(2)
C3_5 C 0.7335(9) 0.1961(2) 0.0284(2)
C4_5 C 0.6893(9) 0.3467(2) 0.0181(2)
H3_5 H 0.627825 0.356106 0.037742
H6_5 H 0.915042 0.277423 0.004609
N11_3 N 0.9495(6) 0.27465(19) 0.08103(19)
N12_3 N 0.7792(7) 0.33878(19) 0.10768(19)
N13_3 N 0.7430(7) 0.24722(18) 0.13127(17)
Au2_5 Au 0.71264(4) 0.14594(2) 0.99107(2)
O1_5 O 0.8729(8) 0.32628(19) 0.87871(18)
N5_3 N 0.7792(7) 0.66122(19) 0.89232(19)
N6_3 N 0.7570(7) 0.25278(18) 0.63127(17)
O2_5 O 0.8553(9) 0.3968(2) 0.70556(19)
O3_5 O 0.6933(13) 0.5310(2) 0.7914(2)
N7_5 N 0.7852(8) 0.3804(2) 0.91753(19)
H1_5 H 0.756230 0.407828 0.917869
N8_5 N 0.7738(8) 0.3334(2) 0.7335(2)
H2_5 H 0.747005 0.321483 0.755994
N9_5 N 0.8288(11) 0.5336(2) 0.8460(3)
H4_5 H 0.889511 0.518123 0.858598
C5_5 C 0.8023(10) 0.4389(2) 0.8492(2)
H5_5 H 0.798051 0.453183 0.874403
C6_5 C 0.8569(8) 0.3013(2) 0.9989(2)
C7_5 C 0.8681(8) 0.3218(2) 0.9624(2)
H7_5 H 0.932825 0.312552 0.943584
C8_5 C 0.8426(8) 0.2866(2) 0.6336(2)
H8_5 H 0.900618 0.291374 0.611713
C9_5 C 0.8087(11) 0.5771(2) 0.8590(3)
C10_5 C 0.6989(9) 0.6468(2) 0.8627(2)
H9_5 H 0.630085 0.665794 0.853737
C11_5 C 0.8262(8) 0.3732(2) 0.8098(2)
H10_5 H 0.840235 0.342198 0.808466
C12_5 C 0.7820(8) 0.3566(2) 0.9536(2)
C13_5 C 0.6915(9) 0.3688(3) 0.9820(3)
H11_5 H 0.631021 0.392130 0.977005
C14_5 C 0.8300(8) 0.3641(2) 0.8821(2)
C15_5 C 0.8206(8) 0.3938(2) 0.8471(2)
C16_5 C 0.7715(8) 0.3068(2) 0.6991(2)
C17_5 C 0.6877(9) 0.2703(2) 0.6979(2)
H12_5 H 0.634714 0.262995 0.720290
C18_5 C 0.7123(12) 0.6059(3) 0.8448(3)
H13_5 H 0.656610 0.597532 0.823295
C19_5 C 0.8726(9) 0.6328(3) 0.9049(3)
H14_5 H 0.929803 0.642207 0.925764
C20_5 C 0.7623(14) 0.5127(3) 0.8153(3)
C21_5 C 0.8149(9) 0.3766(2) 0.7343(2)
C22_5 C 0.7901(11) 0.4636(2) 0.8142(2)
C23_5 C 0.8905(10) 0.5911(2) 0.8897(3)
H15_5 H 0.957531 0.572265 0.899891
C24_5 C 0.7910(11) 0.4432(3) 0.7767(2)
H16_5 H 0.777798 0.460201 0.753258
C25_5 C 0.8115(9) 0.3976(2) 0.7742(2)
C26_5 C 0.8515(8) 0.3148(3) 0.6659(2)
H17_5 H 0.910844 0.339120 0.665555
C27_5 C 0.6825(8) 0.2447(3) 0.6634(2)
H18_5 H 0.623328 0.220279 0.662668
C28_5 C 0.6860(15) 0.0936(4) 0.9568(4)
N10_5 N 0.670(2) 0.0639(4) 0.9367(5)
Fe3_2 Fe 0.75809(9) 0.71912(3) 0.92045(3)
Fe4_3 Fe 0.74191(9) 0.21912(3) 0.57955(3)
Au2_6 Au 0.71264(4) 0.85406(2) 0.00893(2)
O1_6 O 0.8729(8) 0.67372(19) 0.12129(18)
N6_4 N 0.7570(7) 0.74722(18) 0.36873(17)
O2_6 O 0.8553(9) 0.6032(2) 0.29444(19)
O3_6 O 0.6933(13) 0.4690(2) 0.2086(2)
N7_6 N 0.7852(8) 0.6196(2) 0.08247(19)
H1_6 H 0.756230 0.592172 0.082131
N8_6 N 0.7738(8) 0.6666(2) 0.2665(2)
H2_6 H 0.747005 0.678517 0.244006
N9_6 N 0.8288(11) 0.4664(2) 0.1540(3)
H4_6 H 0.889511 0.481877 0.141402
C5_6 C 0.8023(10) 0.5611(2) 0.1508(2)
H5_6 H 0.798051 0.546817 0.125597
C6_6 C 0.8569(8) 0.6987(2) 0.0011(2)
C7_6 C 0.8681(8) 0.6782(2) 0.0376(2)
H7_6 H 0.932825 0.687448 0.056416
C8_6 C 0.8426(8) 0.7134(2) 0.3664(2)
H8_6 H 0.900618 0.708626 0.388287
C9_6 C 0.8087(11) 0.4229(2) 0.1410(3)
C10_6 C 0.6989(9) 0.3532(2) 0.1373(2)
H9_6 H 0.630085 0.334206 0.146263
C11_6 C 0.8262(8) 0.6268(2) 0.1902(2)
H10_6 H 0.840235 0.657802 0.191534
C12_6 C 0.7820(8) 0.6434(2) 0.0464(2)
C13_6 C 0.6915(9) 0.6312(3) 0.0180(3)
H11_6 H 0.631021 0.607870 0.022995
C14_6 C 0.8300(8) 0.6359(2) 0.1179(2)
C15_6 C 0.8206(8) 0.6062(2) 0.1529(2)
C16_6 C 0.7715(8) 0.6932(2) 0.3009(2)
C17_6 C 0.6877(9) 0.7297(2) 0.3021(2)
H12_6 H 0.634714 0.737005 0.279710
C18_6 C 0.7123(12) 0.3941(3) 0.1552(3)
H13_6 H 0.656610 0.402468 0.176705
C19_6 C 0.8726(9) 0.3672(3) 0.0951(3)
H14_6 H 0.929803 0.357793 0.074236
C20_6 C 0.7623(14) 0.4873(3) 0.1847(3)
C21_6 C 0.8149(9) 0.6234(2) 0.2657(2)
C22_6 C 0.7901(11) 0.5364(2) 0.1858(2)
C23_6 C 0.8905(10) 0.4089(2) 0.1103(3)
H15_6 H 0.957531 0.427735 0.100109
C24_6 C 0.7910(11) 0.5568(3) 0.2233(2)
H16_6 H 0.777798 0.539799 0.246742
C25_6 C 0.8115(9) 0.6024(2) 0.2258(2)
C26_6 C 0.8515(8) 0.6852(3) 0.3341(2)
H17_6 H 0.910844 0.660880 0.334445
C27_6 C 0.6825(8) 0.7553(3) 0.3366(2)
H18_6 H 0.623328 0.779721 0.337332
C28_6 C 0.6860(15) 0.9064(4) 0.0432(4)
N10_6 N 0.670(2) 0.9361(4) 0.0633(5)
Fe4_4 Fe 0.74191(9) 0.78088(3) 0.42045(3)
Au1_6 Au 0.25781(2) 0.71837(2) 0.92162(2)
N1_6 N 0.5661(6) 0.71368(19) 0.92121(19)
N3_6 N 0.7416(7) 0.77383(19) 0.95081(19)
N4_6 N 0.7682(7) 0.68695(18) 0.97324(18)
C1_6 C 0.0629(8) 0.7240(2) 0.9200(2)
C2_6 C 0.4533(8) 0.7138(2) 0.9216(2)
C3_6 C 0.7335(9) 0.8039(2) 0.9716(2)
C4_6 C 0.6893(9) 0.6533(2) 0.9819(2)
H3_6 H 0.627825 0.643894 0.962258
H6_6 H 0.915042 0.722577 0.995391
N11_4 N 0.9495(6) 0.72535(19) 0.91897(19)
N13_4 N 0.7430(7) 0.75278(18) 0.86873(17)
Au1_7 Au 0.24219(2) 0.21837(2) 0.57838(2)
N2_3 N 0.5505(6) 0.22535(19) 0.58103(19)
C1_7 C 0.4371(8) 0.2240(2) 0.5800(2)
C2_7 C 0.0467(8) 0.2138(2) 0.5784(2)
Au2_7 Au 0.78736(4) 0.35406(2) 0.49107(2)
N1_7 N 0.9339(6) 0.21368(19) 0.57879(19)
N3_7 N 0.7584(7) 0.27383(19) 0.54919(19)
N4_7 N 0.7318(7) 0.18695(18) 0.52676(18)
O1_7 O 0.6271(8) 0.17372(19) 0.37871(18)
O2_7 O 0.6447(9) 0.1032(2) 0.20556(19)
C3_7 C 0.7665(9) 0.3039(2) 0.5284(2)
N7_7 N 0.7148(8) 0.1196(2) 0.41753(19)
H1_7 H 0.743770 0.092172 0.417869
N8_7 N 0.7262(8) 0.1666(2) 0.2335(2)
H2_7 H 0.752995 0.178517 0.255994
C4_7 C 0.8107(9) 0.1533(2) 0.5181(2)
H3_7 H 0.872175 0.143894 0.537742
C5_7 C 0.6977(10) 0.0611(2) 0.3492(2)
H5_7 H 0.701949 0.046817 0.374403
C6_7 C 0.6431(8) 0.1987(2) 0.4989(2)
H6_7 H 0.584958 0.222577 0.504609
C7_7 C 0.6319(8) 0.1782(2) 0.4624(2)
H7_7 H 0.567175 0.187448 0.443584
C8_7 C 0.6574(8) 0.2134(2) 0.1336(2)
H8_7 H 0.599382 0.208626 0.111713
C11_7 C 0.6738(8) 0.1268(2) 0.3098(2)
H10_7 H 0.659765 0.157802 0.308466
C12_7 C 0.7180(8) 0.1434(2) 0.4536(2)
C13_7 C 0.8085(9) 0.1312(3) 0.4820(3)
H11_7 H 0.868979 0.107870 0.477005
C14_7 C 0.6700(8) 0.1359(2) 0.3821(2)
C15_7 C 0.6794(8) 0.1062(2) 0.3471(2)
C16_7 C 0.7285(8) 0.1932(2) 0.1991(2)
C17_7 C 0.8123(9) 0.2297(2) 0.1979(2)
H12_7 H 0.865286 0.237005 0.220290
C21_7 C 0.6851(9) 0.1234(2) 0.2343(2)
C22_7 C 0.7099(11) 0.0364(2) 0.3142(2)
C24_7 C 0.7090(11) 0.0568(3) 0.2767(2)
H16_7 H 0.722202 0.039799 0.253258
C25_7 C 0.6885(9) 0.1024(2) 0.2742(2)
C26_7 C 0.6485(8) 0.1852(3) 0.1659(2)
H17_7 H 0.589156 0.160880 0.165555
C27_7 C 0.8175(8) 0.2553(3) 0.1634(2)
H18_7 H 0.876672 0.279721 0.162668
C28_7 C 0.8140(15) 0.4064(4) 0.4568(4)
N10_7 N 0.830(2) 0.4361(4) 0.4367(5)
N12_4 N 0.7208(7) 0.16122(19) 0.60768(19)
N5_4 N 0.7208(7) 0.83878(19) 0.39232(19)
O3_7 O 0.8067(13) 0.9690(2) 0.2914(2)
N9_7 N 0.6712(11) 0.9664(2) 0.3460(3)
H4_7 H 0.610489 0.981877 0.358598
C9_7 C 0.6913(11) 0.9229(2) 0.3590(3)
C10_7 C 0.8011(9) 0.8532(2) 0.3627(2)
H9_7 H 0.869915 0.834206 0.353737
C18_7 C 0.7877(12) 0.8941(3) 0.3448(3)
H13_7 H 0.843390 0.902468 0.323295
C19_7 C 0.6274(9) 0.8672(3) 0.4049(3)
H14_7 H 0.570197 0.857793 0.425764
C20_7 C 0.7377(14) 0.9873(3) 0.3153(3)
C23_7 C 0.6095(10) 0.9089(2) 0.3897(3)
H15_7 H 0.542469 0.927735 0.399891
Au1_8 Au 0.24219(2) 0.78163(2) 0.42162(2)
N2_4 N 0.5505(6) 0.77465(19) 0.41897(19)
C1_8 C 0.4371(8) 0.7760(2) 0.4200(2)
C2_8 C 0.0467(8) 0.7862(2) 0.4216(2)
O3_8 O 0.8067(13) 0.0310(2) 0.7086(2)
N9_8 N 0.6712(11) 0.0336(2) 0.6540(3)
H4_8 H 0.610489 0.018123 0.641402
C9_8 C 0.6913(11) 0.0771(2) 0.6410(3)
C10_8 C 0.8011(9) 0.1468(2) 0.6373(2)
H9_8 H 0.869915 0.165794 0.646263
C18_8 C 0.7877(12) 0.1059(3) 0.6552(3)
H13_8 H 0.843390 0.097532 0.676705
C19_8 C 0.6274(9) 0.1328(3) 0.5951(3)
H14_8 H 0.570197 0.142207 0.574236
C20_8 C 0.7377(14) 0.0127(3) 0.6847(3)
C23_8 C 0.6095(10) 0.0911(2) 0.6103(3)
H15_8 H 0.542469 0.072265 0.600109
Au2_8 Au 0.78736(4) 0.64594(2) 0.50893(2)
N1_8 N 0.9339(6) 0.78632(19) 0.42121(19)
N3_8 N 0.7584(7) 0.72617(19) 0.45081(19)
N4_8 N 0.7318(7) 0.81305(18) 0.47324(18)
O1_8 O 0.6271(8) 0.82628(19) 0.62129(18)
O2_8 O 0.6447(9) 0.8968(2) 0.79444(19)
C3_8 C 0.7665(9) 0.6961(2) 0.4716(2)
N7_8 N 0.7148(8) 0.8804(2) 0.58247(19)
H1_8 H 0.743770 0.907828 0.582131
N8_8 N 0.7262(8) 0.8334(2) 0.7665(2)
H2_8 H 0.752995 0.821483 0.744006
C4_8 C 0.8107(9) 0.8467(2) 0.4819(2)
H3_8 H 0.872175 0.856106 0.462258
C5_8 C 0.6977(10) 0.9389(2) 0.6508(2)
H5_8 H 0.701949 0.953183 0.625597
C6_8 C 0.6431(8) 0.8013(2) 0.5011(2)
H6_8 H 0.584958 0.777423 0.495391
C7_8 C 0.6319(8) 0.8218(2) 0.5376(2)
H7_8 H 0.567175 0.812552 0.556416
C8_8 C 0.6574(8) 0.7866(2) 0.8664(2)
H8_8 H 0.599382 0.791374 0.888287
C11_8 C 0.6738(8) 0.8732(2) 0.6902(2)
H10_8 H 0.659765 0.842198 0.691534
C12_8 C 0.7180(8) 0.8566(2) 0.5464(2)
C13_8 C 0.8085(9) 0.8688(3) 0.5180(3)
H11_8 H 0.868979 0.892130 0.522995
C14_8 C 0.6700(8) 0.8641(2) 0.6179(2)
C15_8 C 0.6794(8) 0.8938(2) 0.6529(2)
C16_8 C 0.7285(8) 0.8068(2) 0.8009(2)
C17_8 C 0.8123(9) 0.7703(2) 0.8021(2)
H12_8 H 0.865286 0.762995 0.779710
C21_8 C 0.6851(9) 0.8766(2) 0.7657(2)
C22_8 C 0.7099(11) 0.9636(2) 0.6858(2)
C24_8 C 0.7090(11) 0.9432(3) 0.7233(2)
H16_8 H 0.722202 0.960201 0.746742
C25_8 C 0.6885(9) 0.8976(2) 0.7258(2)
C26_8 C 0.6485(8) 0.8148(3) 0.8341(2)
H17_8 H 0.589156 0.839120 0.834445
C27_8 C 0.8175(8) 0.7447(3) 0.8366(2)
H18_8 H 0.876672 0.720279 0.837332
C28_8 C 0.8140(15) 0.5936(4) 0.5432(4)
N10_8 N 0.830(2) 0.5639(4) 0.5633(5)
loop_
_geom_bond_atom_site_label_1
_geom_bond_atom_site_label_2
_geom_bond_site_symmetry_1
_geom_bond_site_symmetry_2
Fe2 N2 1_555 1_555
Au1 C1 1_555 1_555
Au2 C3 1_555 1_555
Fe2 N1 1_555 1_555
N1 C2 1_555 1_555
N3 Fe2 1_555 1_555
N4 Fe2 1_555 1_555
O1 C14 1_555 1_555
N5 C10 1_555 1_555
N6 C8 1_555 1_555
O2 C21 1_555 1_555
C2 Au1 1_555 1_555
C3 N3 1_555 1_555
O3 C20 1_555 1_555
N7 H1 1_555 1_555
N8 H2 1_555 1_555
C4 N4 1_555 1_555
H3 C4 1_555 1_555
N9 H4 1_555 1_555
C5 H5 1_555 1_555
C6 N4 1_555 1_555
H6 C6 1_555 1_555
C7 C6 1_555 1_555
H7 C7 1_555 1_555
C8 H8 1_555 1_555
C9 N9 1_555 1_555
C10 H9 1_555 1_555
C11 H10 1_555 1_555
C12 N7 1_555 1_555
C13 C4 1_555 1_555
H11 C13 1_555 1_555
C14 N7 1_555 1_555
C15 C5 1_555 1_555
C16 N8 1_555 1_555
C17 C16 1_555 1_555
H12 C17 1_555 1_555
C18 C9 1_555 1_555
H13 C18 1_555 1_555
C19 N5 1_555 1_555
H14 C19 1_555 1_555
C20 N9 1_555 1_555
C21 N8 1_555 1_555
C22 C5 1_555 1_555
C23 C9 1_555 1_555
H15 C23 1_555 1_555
C24 C22 1_555 1_555
H16 C24 1_555 1_555
C25 C11 1_555 1_555
C26 C8 1_555 1_555
H17 C26 1_555 1_555
C27 N6 1_555 1_555
H18 C27 1_555 1_555
C28 Au2 1_555 1_555
N10 C28 1_555 1_555
Fe3 N5 1_555 1_555
Fe4 N6 1_555 1_555
N12 Fe2 1_555 1_555
N13 Fe2 1_555 1_555
C7 C12 1_555 1_555
C10 C18 1_555 1_555
C11 C15 1_555 1_555
C12 C13 1_555 1_555
C14 C15 1_555 1_555
C16 C26 1_555 1_555
C17 C27 1_555 1_555
C19 C23 1_555 1_555
C20 C22 1_555 1_555
C21 C25 1_555 1_555
C24 C25 1_555 1_555
Fe3 N2_2 1_555 1_555
Au1_2 C1_2 1_555 1_555
Au2_2 C3_2 1_555 1_555
Fe3 N1_2 1_555 1_555
N1_2 C2_2 1_555 1_555
N3_2 Fe3 1_555 1_555
N4_2 Fe3 1_555 1_555
O1_2 C14_2 1_555 1_555
N12 C10_2 1_555 1_555
N6_2 C8_2 1_555 1_555
O2_2 C21_2 1_555 1_555
C2_2 Au1_2 1_555 1_555
C3_2 N3_2 1_555 1_555
O3_2 C20_2 1_555 1_555
N7_2 H1_2 1_555 1_555
N8_2 H2_2 1_555 1_555
C4_2 N4_2 1_555 1_555
H3_2 C4_2 1_555 1_555
N9_2 H4_2 1_555 1_555
C5_2 H5_2 1_555 1_555
C6_2 N4_2 1_555 1_555
H6_2 C6_2 1_555 1_555
C7_2 C6_2 1_555 1_555
H7_2 C7_2 1_555 1_555
C8_2 H8_2 1_555 1_555
C9_2 N9_2 1_555 1_555
C10_2 H9_2 1_555 1_555
C11_2 H10_2 1_555 1_555
C12_2 N7_2 1_555 1_555
C13_2 C4_2 1_555 1_555
H11_2 C13_2 1_555 1_555
C14_2 N7_2 1_555 1_555
C15_2 C5_2 1_555 1_555
C16_2 N8_2 1_555 1_555
C17_2 C16_2 1_555 1_555
H12_2 C17_2 1_555 1_555
C18_2 C9_2 1_555 1_555
H13_2 C18_2 1_555 1_555
C19_2 N12 1_555 1_555
H14_2 C19_2 1_555 1_555
C20_2 N9_2 1_555 1_555
C21_2 N8_2 1_555 1_555
C22_2 C5_2 1_555 1_555
C23_2 C9_2 1_555 1_555
H15_2 C23_2 1_555 1_555
C24_2 C22_2 1_555 1_555
H16_2 C24_2 1_555 1_555
C25_2 C11_2 1_555 1_555
C26_2 C8_2 1_555 1_555
H17_2 C26_2 1_555 1_555
C27_2 N6_2 1_555 1_555
H18_2 C27_2 1_555 1_555
C28_2 Au2_2 1_555 1_555
N10_2 C28_2 1_555 1_555
Fe4_2 N6_2 1_555 1_555
N13_2 Fe3 1_555 1_555
C7_2 C12_2 1_555 1_555
C10_2 C18_2 1_555 1_555
C11_2 C15_2 1_555 1_555
C12_2 C13_2 1_555 1_555
C14_2 C15_2 1_555 1_555
C16_2 C26_2 1_555 1_555
C17_2 C27_2 1_555 1_555
C19_2 C23_2 1_555 1_555
C20_2 C22_2 1_555 1_555
C21_2 C25_2 1_555 1_555
C24_2 C25_2 1_555 1_555
N5_2 C10_3 1_555 1_555
O3_3 C20_3 1_555 1_555
N9_3 H4_3 1_555 1_555
C9_3 N9_3 1_555 1_555
C10_3 H9_3 1_555 1_555
C18_3 C9_3 1_555 1_555
H13_3 C18_3 1_555 1_555
C19_3 N5_2 1_555 1_555
H14_3 C19_3 1_555 1_555
C20_3 N9_3 1_555 1_555
C23_3 C9_3 1_555 1_555
H15_3 C23_3 1_555 1_555
Fe4_2 N5_2 1_555 1_555
C10_3 C18_3 1_555 1_555
C19_3 C23_3 1_555 1_555
Fe4 N1_3 1_555 1_555
N3_3 Fe4 1_555 1_555
N4_3 Fe4 1_555 1_555
C3_3 N3_3 1_555 1_555
C4_3 N4_3 1_555 1_555
H3_3 C4_3 1_555 1_555
N11 Fe4 1_555 1_555
N12_2 Fe4 1_555 1_555
O1_3 C14_3 1_555 1_555
N13 C8_3 1_555 1_555
O2_3 C21_3 1_555 1_555
N7_3 H1_3 1_555 1_555
N8_3 H2_3 1_555 1_555
C5_3 H5_3 1_555 1_555
C7_3 C6_3 1_555 1_555
H7_3 C7_3 1_555 1_555
C8_3 H8_3 1_555 1_555
C11_3 H10_3 1_555 1_555
C12_3 N7_3 1_555 1_555
H11_3 C13_3 1_555 1_555
C14_3 N7_3 1_555 1_555
C15_3 C5_3 1_555 1_555
C16_3 N8_3 1_555 1_555
C17_3 C16_3 1_555 1_555
H12_3 C17_3 1_555 1_555
C21_3 N8_3 1_555 1_555
C22_3 C5_3 1_555 1_555
C24_3 C22_3 1_555 1_555
H16_3 C24_3 1_555 1_555
C25_3 C11_3 1_555 1_555
C26_3 C8_3 1_555 1_555
H17_3 C26_3 1_555 1_555
C27_3 N13 1_555 1_555
H18_3 C27_3 1_555 1_555
C28_3 Au2_3 1_555 1_555
N10_3 C28_3 1_555 1_555
C7_3 C12_3 1_555 1_555
C11_3 C15_3 1_555 1_555
C12_3 C13_3 1_555 1_555
C14_3 C15_3 1_555 1_555
C16_3 C26_3 1_555 1_555
C17_3 C27_3 1_555 1_555
C21_3 C25_3 1_555 1_555
C24_3 C25_3 1_555 1_555
Au1_3 C1_3 1_555 1_555
N11 C1_3 1_555 1_555
C2_3 Au1_3 1_555 1_555
O1_4 C14_4 1_555 1_555
N13_2 C8_4 1_555 1_555
O2_4 C21_4 1_555 1_555
N7_4 H1_4 1_555 1_555
N8_4 H2_4 1_555 1_555
C5_4 H5_4 1_555 1_555
C7_4 C6_4 1_555 1_555
H7_4 C7_4 1_555 1_555
C8_4 H8_4 1_555 1_555
C11_4 H10_4 1_555 1_555
C12_4 N7_4 1_555 1_555
H11_4 C13_4 1_555 1_555
C14_4 N7_4 1_555 1_555
C15_4 C5_4 1_555 1_555
C16_4 N8_4 1_555 1_555
C17_4 C16_4 1_555 1_555
H12_4 C17_4 1_555 1_555
C21_4 N8_4 1_555 1_555
C22_4 C5_4 1_555 1_555
C24_4 C22_4 1_555 1_555
H16_4 C24_4 1_555 1_555
C25_4 C11_4 1_555 1_555
C26_4 C8_4 1_555 1_555
H17_4 C26_4 1_555 1_555
C27_4 N13_2 1_555 1_555
H18_4 C27_4 1_555 1_555
C28_4 Au2_4 1_555 1_555
N10_4 C28_4 1_555 1_555
C7_4 C12_4 1_555 1_555
C11_4 C15_4 1_555 1_555
C12_4 C13_4 1_555 1_555
C14_4 C15_4 1_555 1_555
C16_4 C26_4 1_555 1_555
C17_4 C27_4 1_555 1_555
C21_4 C25_4 1_555 1_555
C24_4 C25_4 1_555 1_555
Fe4_2 N1_4 1_555 1_555
N3_4 Fe4_2 1_555 1_555
N4_4 Fe4_2 1_555 1_555
C3_4 N3_4 1_555 1_555
C4_4 N4_4 1_555 1_555
H3_4 C4_4 1_555 1_555
N11_2 Fe4_2 1_555 1_555
N12_2 C10_4 1_555 1_555
O3_4 C20_4 1_555 1_555
N9_4 H4_4 1_555 1_555
C9_4 N9_4 1_555 1_555
C10_4 H9_4 1_555 1_555
C18_4 C9_4 1_555 1_555
H13_4 C18_4 1_555 1_555
C19_4 N12_2 1_555 1_555
H14_4 C19_4 1_555 1_555
C20_4 N9_4 1_555 1_555
C23_4 C9_4 1_555 1_555
H15_4 C23_4 1_555 1_555
C10_4 C18_4 1_555 1_555
C19_4 C23_4 1_555 1_555
Au1_4 C1_4 1_555 1_555
N11_2 C1_4 1_555 1_555
C2_4 Au1_4 1_555 1_555
Au1_5 C1_5 1_555 1_555
Fe1 N1_5 1_555 1_555
N1_5 C2_5 1_555 1_555
N3_5 Fe1 1_555 1_555
N4_5 Fe1 1_555 1_555
C2_5 Au1_5 1_555 1_555
C3_5 N3_5 1_555 1_555
C4_5 N4_5 1_555 1_555
H3_5 C4_5 1_555 1_555
N11_3 Fe1 1_555 1_555
N12_3 Fe1 1_555 1_555
N13_3 Fe1 1_555 1_555
O1_5 C14_5 1_555 1_555
N5_3 C10_5 1_555 1_555
N6_3 C8_5 1_555 1_555
O2_5 C21_5 1_555 1_555
O3_5 C20_5 1_555 1_555
N7_5 H1_5 1_555 1_555
N8_5 H2_5 1_555 1_555
N9_5 H4_5 1_555 1_555
C5_5 H5_5 1_555 1_555
C7_5 C6_5 1_555 1_555
H7_5 C7_5 1_555 1_555
C8_5 H8_5 1_555 1_555
C9_5 N9_5 1_555 1_555
C10_5 H9_5 1_555 1_555
C11_5 H10_5 1_555 1_555
C12_5 N7_5 1_555 1_555
H11_5 C13_5 1_555 1_555
C14_5 N7_5 1_555 1_555
C15_5 C5_5 1_555 1_555
C16_5 N8_5 1_555 1_555
C17_5 C16_5 1_555 1_555
H12_5 C17_5 1_555 1_555
C18_5 C9_5 1_555 1_555
H13_5 C18_5 1_555 1_555
C19_5 N5_3 1_555 1_555
H14_5 C19_5 1_555 1_555
C20_5 N9_5 1_555 1_555
C21_5 N8_5 1_555 1_555
C22_5 C5_5 1_555 1_555
C23_5 C9_5 1_555 1_555
H15_5 C23_5 1_555 1_555
C24_5 C22_5 1_555 1_555
H16_5 C24_5 1_555 1_555
C25_5 C11_5 1_555 1_555
C26_5 C8_5 1_555 1_555
H17_5 C26_5 1_555 1_555
C27_5 N6_3 1_555 1_555
H18_5 C27_5 1_555 1_555
C28_5 Au2_5 1_555 1_555
N10_5 C28_5 1_555 1_555
Fe3_2 N5_3 1_555 1_555
Fe4_3 N6_3 1_555 1_555
C7_5 C12_5 1_555 1_555
C10_5 C18_5 1_555 1_555
C11_5 C15_5 1_555 1_555
C12_5 C13_5 1_555 1_555
C14_5 C15_5 1_555 1_555
C16_5 C26_5 1_555 1_555
C17_5 C27_5 1_555 1_555
C19_5 C23_5 1_555 1_555
C20_5 C22_5 1_555 1_555
C21_5 C25_5 1_555 1_555
C24_5 C25_5 1_555 1_555
O1_6 C14_6 1_555 1_555
N12_3 C10_6 1_555 1_555
N6_4 C8_6 1_555 1_555
O2_6 C21_6 1_555 1_555
O3_6 C20_6 1_555 1_555
N7_6 H1_6 1_555 1_555
N8_6 H2_6 1_555 1_555
N9_6 H4_6 1_555 1_555
C5_6 H5_6 1_555 1_555
C7_6 C6_6 1_555 1_555
H7_6 C7_6 1_555 1_555
C8_6 H8_6 1_555 1_555
C9_6 N9_6 1_555 1_555
C10_6 H9_6 1_555 1_555
C11_6 H10_6 1_555 1_555
C12_6 N7_6 1_555 1_555
H11_6 C13_6 1_555 1_555
C14_6 N7_6 1_555 1_555
C15_6 C5_6 1_555 1_555
C16_6 N8_6 1_555 1_555
C17_6 C16_6 1_555 1_555
H12_6 C17_6 1_555 1_555
C18_6 C9_6 1_555 1_555
H13_6 C18_6 1_555 1_555
C19_6 N12_3 1_555 1_555
H14_6 C19_6 1_555 1_555
C20_6 N9_6 1_555 1_555
C21_6 N8_6 1_555 1_555
C22_6 C5_6 1_555 1_555
C23_6 C9_6 1_555 1_555
H15_6 C23_6 1_555 1_555
C24_6 C22_6 1_555 1_555
H16_6 C24_6 1_555 1_555
C25_6 C11_6 1_555 1_555
C26_6 C8_6 1_555 1_555
H17_6 C26_6 1_555 1_555
C27_6 N6_4 1_555 1_555
H18_6 C27_6 1_555 1_555
C28_6 Au2_6 1_555 1_555
N10_6 C28_6 1_555 1_555
Fe4_4 N6_4 1_555 1_555
C7_6 C12_6 1_555 1_555
C10_6 C18_6 1_555 1_555
C11_6 C15_6 1_555 1_555
C12_6 C13_6 1_555 1_555
C14_6 C15_6 1_555 1_555
C16_6 C26_6 1_555 1_555
C17_6 C27_6 1_555 1_555
C19_6 C23_6 1_555 1_555
C20_6 C22_6 1_555 1_555
C21_6 C25_6 1_555 1_555
C24_6 C25_6 1_555 1_555
Au1_6 C1_6 1_555 1_555
Fe3_2 N1_6 1_555 1_555
N1_6 C2_6 1_555 1_555
N3_6 Fe3_2 1_555 1_555
N4_6 Fe3_2 1_555 1_555
C2_6 Au1_6 1_555 1_555
C3_6 N3_6 1_555 1_555
C4_6 N4_6 1_555 1_555
H3_6 C4_6 1_555 1_555
N11_4 Fe3_2 1_555 1_555
N13_4 Fe3_2 1_555 1_555
Au1_7 C1_7 1_555 1_555
N2_3 C1_7 1_555 1_555
C2_7 Au1_7 1_555 1_555
Fe4_3 N2_3 1_555 1_555
Au2_7 C3_7 1_555 1_555
Fe4_3 N1_7 1_555 1_555
N3_7 Fe4_3 1_555 1_555
N4_7 Fe4_3 1_555 1_555
O1_7 C14_7 1_555 1_555
N13_3 C8_7 1_555 1_555
O2_7 C21_7 1_555 1_555
C3_7 N3_7 1_555 1_555
N7_7 H1_7 1_555 1_555
N8_7 H2_7 1_555 1_555
C4_7 N4_7 1_555 1_555
H3_7 C4_7 1_555 1_555
C5_7 H5_7 1_555 1_555
C6_7 N4_7 1_555 1_555
H6_7 C6_7 1_555 1_555
C7_7 C6_7 1_555 1_555
H7_7 C7_7 1_555 1_555
C8_7 H8_7 1_555 1_555
C11_7 H10_7 1_555 1_555
C12_7 N7_7 1_555 1_555
C13_7 C4_7 1_555 1_555
H11_7 C13_7 1_555 1_555
C14_7 N7_7 1_555 1_555
C15_7 C5_7 1_555 1_555
C16_7 N8_7 1_555 1_555
C17_7 C16_7 1_555 1_555
H12_7 C17_7 1_555 1_555
C21_7 N8_7 1_555 1_555
C22_7 C5_7 1_555 1_555
C24_7 C22_7 1_555 1_555
H16_7 C24_7 1_555 1_555
C25_7 C11_7 1_555 1_555
C26_7 C8_7 1_555 1_555
H17_7 C26_7 1_555 1_555
C27_7 N13_3 1_555 1_555
H18_7 C27_7 1_555 1_555
C28_7 Au2_7 1_555 1_555
N10_7 C28_7 1_555 1_555
N12_4 Fe4_3 1_555 1_555
C7_7 C12_7 1_555 1_555
C11_7 C15_7 1_555 1_555
C12_7 C13_7 1_555 1_555
C14_7 C15_7 1_555 1_555
C16_7 C26_7 1_555 1_555
C17_7 C27_7 1_555 1_555
C21_7 C25_7 1_555 1_555
C24_7 C25_7 1_555 1_555
N5_4 C10_7 1_555 1_555
O3_7 C20_7 1_555 1_555
N9_7 H4_7 1_555 1_555
C9_7 N9_7 1_555 1_555
C10_7 H9_7 1_555 1_555
C18_7 C9_7 1_555 1_555
H13_7 C18_7 1_555 1_555
C19_7 N5_4 1_555 1_555
H14_7 C19_7 1_555 1_555
C20_7 N9_7 1_555 1_555
C23_7 C9_7 1_555 1_555
H15_7 C23_7 1_555 1_555
Fe4_4 N5_4 1_555 1_555
C10_7 C18_7 1_555 1_555
C19_7 C23_7 1_555 1_555
Au1_8 C1_8 1_555 1_555
N2_4 C1_8 1_555 1_555
C2_8 Au1_8 1_555 1_555
Fe4_4 N2_4 1_555 1_555
N12_4 C10_8 1_555 1_555
O3_8 C20_8 1_555 1_555
N9_8 H4_8 1_555 1_555
C9_8 N9_8 1_555 1_555
C10_8 H9_8 1_555 1_555
C18_8 C9_8 1_555 1_555
H13_8 C18_8 1_555 1_555
C19_8 N12_4 1_555 1_555
H14_8 C19_8 1_555 1_555
C20_8 N9_8 1_555 1_555
C23_8 C9_8 1_555 1_555
H15_8 C23_8 1_555 1_555
C10_8 C18_8 1_555 1_555
C19_8 C23_8 1_555 1_555
Au2_8 C3_8 1_555 1_555
Fe4_4 N1_8 1_555 1_555
N3_8 Fe4_4 1_555 1_555
N4_8 Fe4_4 1_555 1_555
O1_8 C14_8 1_555 1_555
N13_4 C8_8 1_555 1_555
O2_8 C21_8 1_555 1_555
C3_8 N3_8 1_555 1_555
N7_8 H1_8 1_555 1_555
N8_8 H2_8 1_555 1_555
C4_8 N4_8 1_555 1_555
H3_8 C4_8 1_555 1_555
C5_8 H5_8 1_555 1_555
C6_8 N4_8 1_555 1_555
H6_8 C6_8 1_555 1_555
C7_8 C6_8 1_555 1_555
H7_8 C7_8 1_555 1_555
C8_8 H8_8 1_555 1_555
C11_8 H10_8 1_555 1_555
C12_8 N7_8 1_555 1_555
C13_8 C4_8 1_555 1_555
H11_8 C13_8 1_555 1_555
C14_8 N7_8 1_555 1_555
C15_8 C5_8 1_555 1_555
C16_8 N8_8 1_555 1_555
C17_8 C16_8 1_555 1_555
H12_8 C17_8 1_555 1_555
C21_8 N8_8 1_555 1_555
C22_8 C5_8 1_555 1_555
C24_8 C22_8 1_555 1_555
H16_8 C24_8 1_555 1_555
C25_8 C11_8 1_555 1_555
C26_8 C8_8 1_555 1_555
H17_8 C26_8 1_555 1_555
C27_8 N13_4 1_555 1_555
H18_8 C27_8 1_555 1_555
C28_8 Au2_8 1_555 1_555
N10_8 C28_8 1_555 1_555
C7_8 C12_8 1_555 1_555
C11_8 C15_8 1_555 1_555
C12_8 C13_8 1_555 1_555
C14_8 C15_8 1_555 1_555
C16_8 C26_8 1_555 1_555
C17_8 C27_8 1_555 1_555
C21_8 C25_8 1_555 1_555
C24_8 C25_8 1_555 1_555

#END
