
###############################################################################
#
# This file contains modified crystal structure data generated from the
# MOF subset of the Cambridge Structural Database (CSD) v543 
# hosted by the Cambridge Crystallographic Data Centre (CCDC).
#
# This work is licensed under the Creative Commons
# Attribution-NonCommercial-ShareAlike 4.0 International License.
# To view a copy of this license, visit
# http://creativecommons.org/licenses/by-nc-sa/4.0/
# or send a letter to
# Creative Commons, PO Box 1866, Mountain View, CA 94042, USA.
#
# CIF created using the CSD Python API on 29 September 2022
# The structure has been converted into the P1 space group
# The structure has a 3D framework
# The original CSD entry WAMCAS08 is in the orthorhombic crystal system
# The original CSD entry WAMCAS08 is in a Sohncke space group
# The framework has been calculated to contain at least 10.0% void space
# The void calculation uses a probe of radius 1.32A, grid spacing 0.4
#
###############################################################################

data_WAMCAS08
_chemical_formula_moiety         '(C224 H144 Au16 Fe8 N76 O24)n'
_symmetry_cell_setting           triclinic
_symmetry_space_group_name_H-M   'P 1'
_symmetry_Int_Tables_number      1
_space_group_name_Hall           'P 1'
loop_
_symmetry_equiv_pos_site_id
_symmetry_equiv_pos_as_xyz
1 x,y,z
_cell_length_a                   10.233(2)
_cell_length_b                   30.396(6)
_cell_length_c                   33.745(7)
_cell_angle_alpha                90
_cell_angle_beta                 90
_cell_angle_gamma                90
_cell_volume                     10496.1
loop_
_atom_site_label
_atom_site_type_symbol
_atom_site_fract_x
_atom_site_fract_y
_atom_site_fract_z
N2 N 0.0454(9) 0.7259(3) 0.5812(2)
Fe2 Fe 0.24044(10) 0.71983(3) 0.57955(3)
Au1 Au 0.74076(3) 0.71873(2) 0.57822(2)
Au2 Au 0.28749(5) 0.85499(2) 0.49004(2)
N1 N 0.4359(8) 0.7139(3) 0.5785(2)
N3 N 0.2570(7) 0.7760(2) 0.5489(2)
N4 N 0.2305(8) 0.6870(2) 0.5253(2)
O1 O 0.1231(9) 0.6732(2) 0.37832(19)
N5 N 0.2182(9) 0.3391(3) 0.3915(2)
N6 N 0.2443(8) 0.7461(2) 0.1327(2)
C1 C 0.9332(9) 0.7241(3) 0.5798(2)
O2 O 0.1434(12) 0.6023(3) 0.2062(2)
C2 C 0.5473(10) 0.7137(3) 0.5784(3)
C3 C 0.2663(11) 0.8055(3) 0.5274(3)
O3 O 0.3064(16) 0.4690(3) 0.2919(3)
N7 N 0.2140(10) 0.6199(2) 0.4166(2)
H1 H 0.245532 0.592968 0.416798
N8 N 0.2261(9) 0.6653(3) 0.2332(2)
H2 H 0.255038 0.676869 0.255403
C4 C 0.3070(12) 0.6532(3) 0.5173(3)
H3 H 0.365047 0.642924 0.537267
N9 N 0.1744(15) 0.4667(3) 0.3471(3)
H4 H 0.122414 0.483014 0.361801
C5 C 0.1954(12) 0.5603(3) 0.3490(3)
H5 H 0.196849 0.546212 0.374144
C6 C 0.1420(9) 0.6979(3) 0.4978(2)
H6 H 0.082587 0.720920 0.503863
C7 C 0.1313(9) 0.6779(3) 0.4613(3)
H7 H 0.067468 0.687331 0.442697
C8 C 0.1571(9) 0.7128(3) 0.1346(3)
H8 H 0.099129 0.708159 0.113010
C9 C 0.1847(14) 0.4230(3) 0.3580(3)
C10 C 0.2991(13) 0.3545(3) 0.3627(3)
H9 H 0.369816 0.336481 0.354393
C11 C 0.1723(10) 0.6264(3) 0.3100(2)
H10 H 0.157600 0.657220 0.308438
C12 C 0.2165(9) 0.6436(3) 0.4524(2)
C13 C 0.3056(12) 0.6320(4) 0.4810(3)
H11 H 0.366938 0.609320 0.475760
C14 C 0.1669(9) 0.6355(3) 0.3822(2)
C15 C 0.1792(10) 0.6061(3) 0.3464(3)
C16 C 0.2286(10) 0.6921(3) 0.1997(2)
C17 C 0.3124(11) 0.7283(3) 0.1983(3)
H12 H 0.366958 0.734932 0.220305
C18 C 0.2838(14) 0.3947(4) 0.3449(3)
H13 H 0.340025 0.403280 0.323924
C19 C 0.1257(12) 0.3677(3) 0.4046(3)
H14 H 0.071018 0.358762 0.425891
C20 C 0.2361(18) 0.4879(3) 0.3159(3)
C21 C 0.1829(10) 0.6225(3) 0.2350(3)
C22 C 0.2093(14) 0.5356(3) 0.3140(3)
C23 C 0.1069(14) 0.4089(3) 0.3888(3)
H15 H 0.040447 0.427579 0.398984
C24 C 0.2073(14) 0.5565(4) 0.2774(3)
H16 H 0.219697 0.539905 0.253912
C25 C 0.1871(10) 0.6016(3) 0.2751(3)
C26 C 0.1502(10) 0.6848(4) 0.1677(3)
H17 H 0.090798 0.660823 0.167812
C27 C 0.3157(11) 0.7546(3) 0.1644(3)
H18 H 0.371421 0.779565 0.164189
C28 C 0.315(2) 0.9075(5) 0.4563(6)
N10 N 0.335(3) 0.9361(5) 0.4381(6)
Fe3 Fe 0.24044(10) 0.28017(3) 0.42045(3)
Fe4 Fe 0.25956(10) 0.78017(3) 0.07955(3)
N12 N 0.2182(9) 0.6609(3) 0.6085(2)
N13 N 0.2557(8) 0.7539(2) 0.6327(2)
N2_2 N 0.0454(9) 0.2741(3) 0.4188(2)
Au1_2 Au 0.74076(3) 0.28127(2) 0.42178(2)
Au2_2 Au 0.28749(5) 0.14501(2) 0.50996(2)
N1_2 N 0.4359(8) 0.2861(3) 0.4215(2)
N3_2 N 0.2570(7) 0.2240(2) 0.4511(2)
N4_2 N 0.2305(8) 0.3130(2) 0.4747(2)
O1_2 O 0.1231(9) 0.3268(2) 0.62168(19)
N6_2 N 0.2443(8) 0.2539(2) 0.8673(2)
C1_2 C 0.9332(9) 0.2759(3) 0.4202(2)
O2_2 O 0.1434(12) 0.3977(3) 0.7938(2)
C2_2 C 0.5473(10) 0.2863(3) 0.4216(3)
C3_2 C 0.2663(11) 0.1945(3) 0.4726(3)
O3_2 O 0.3064(16) 0.5310(3) 0.7081(3)
N7_2 N 0.2140(10) 0.3801(2) 0.5834(2)
H1_2 H 0.245532 0.407032 0.583202
N8_2 N 0.2261(9) 0.3347(3) 0.7668(2)
H2_2 H 0.255038 0.323131 0.744597
C4_2 C 0.3070(12) 0.3468(3) 0.4827(3)
H3_2 H 0.365047 0.357076 0.462733
N9_2 N 0.1744(15) 0.5333(3) 0.6529(3)
H4_2 H 0.122414 0.516986 0.638199
C5_2 C 0.1954(12) 0.4397(3) 0.6510(3)
H5_2 H 0.196849 0.453788 0.625856
C6_2 C 0.1420(9) 0.3021(3) 0.5022(2)
H6_2 H 0.082587 0.279080 0.496137
C7_2 C 0.1313(9) 0.3221(3) 0.5387(3)
H7_2 H 0.067468 0.312669 0.557303
C8_2 C 0.1571(9) 0.2872(3) 0.8654(3)
H8_2 H 0.099129 0.291841 0.886990
C9_2 C 0.1847(14) 0.5770(3) 0.6420(3)
C10_2 C 0.2991(13) 0.6455(3) 0.6373(3)
H9_2 H 0.369816 0.663519 0.645607
C11_2 C 0.1723(10) 0.3736(3) 0.6900(2)
H10_2 H 0.157600 0.342780 0.691562
C12_2 C 0.2165(9) 0.3564(3) 0.5476(2)
C13_2 C 0.3056(12) 0.3680(4) 0.5190(3)
H11_2 H 0.366938 0.390680 0.524240
C14_2 C 0.1669(9) 0.3645(3) 0.6178(2)
C15_2 C 0.1792(10) 0.3939(3) 0.6536(3)
C16_2 C 0.2286(10) 0.3079(3) 0.8003(2)
C17_2 C 0.3124(11) 0.2717(3) 0.8017(3)
H12_2 H 0.366958 0.265068 0.779695
C18_2 C 0.2838(14) 0.6053(4) 0.6551(3)
H13_2 H 0.340025 0.596720 0.676076
C19_2 C 0.1257(12) 0.6323(3) 0.5954(3)
H14_2 H 0.071018 0.641238 0.574109
C20_2 C 0.2361(18) 0.5121(3) 0.6841(3)
C21_2 C 0.1829(10) 0.3775(3) 0.7650(3)
C22_2 C 0.2093(14) 0.4644(3) 0.6860(3)
C23_2 C 0.1069(14) 0.5911(3) 0.6112(3)
H15_2 H 0.040447 0.572421 0.601016
C24_2 C 0.2073(14) 0.4435(4) 0.7226(3)
H16_2 H 0.219697 0.460095 0.746088
C25_2 C 0.1871(10) 0.3984(3) 0.7249(3)
C26_2 C 0.1502(10) 0.3152(4) 0.8323(3)
H17_2 H 0.090798 0.339177 0.832188
C27_2 C 0.3157(11) 0.2454(3) 0.8356(3)
H18_2 H 0.371421 0.220435 0.835811
C28_2 C 0.315(2) 0.0925(5) 0.5437(6)
N10_2 N 0.335(3) 0.0639(5) 0.5619(6)
Fe4_2 Fe 0.25956(10) 0.21983(3) 0.92045(3)
N13_2 N 0.2557(8) 0.2461(2) 0.3673(2)
N5_2 N 0.2818(9) 0.1609(3) 0.8915(2)
O3_3 O 0.1936(16) 0.0310(3) 0.7919(3)
N9_3 N 0.3256(15) 0.0333(3) 0.8471(3)
H4_3 H 0.377586 0.016986 0.861801
C9_3 C 0.3153(14) 0.0770(3) 0.8580(3)
C10_3 C 0.2009(13) 0.1455(3) 0.8627(3)
H9_3 H 0.130184 0.163519 0.854393
C18_3 C 0.2162(14) 0.1053(4) 0.8449(3)
H13_3 H 0.159975 0.096720 0.823924
C19_3 C 0.3743(12) 0.1323(3) 0.9046(3)
H14_3 H 0.428982 0.141238 0.925891
C20_3 C 0.2639(18) 0.0121(3) 0.8159(3)
C23_3 C 0.3931(14) 0.0911(3) 0.8888(3)
H15_3 H 0.459553 0.072421 0.898984
N1_3 N 0.0641(8) 0.7861(3) 0.0785(2)
N3_3 N 0.2430(7) 0.7240(2) 0.0489(2)
N4_3 N 0.2695(8) 0.8130(2) 0.0253(2)
C3_3 C 0.2337(11) 0.6945(3) 0.0274(3)
C4_3 C 0.1930(12) 0.8468(3) 0.0173(3)
H3_3 H 0.134953 0.857076 0.037267
H6_3 H 0.417413 0.779080 0.003863
N11 N 0.4546(9) 0.7741(3) 0.0812(2)
N12_2 N 0.2818(9) 0.8391(3) 0.1085(2)
Au2_3 Au 0.21251(5) 0.64501(2) 0.99004(2)
O1_3 O 0.3769(9) 0.8268(2) 0.87832(19)
O2_3 O 0.3566(12) 0.8977(3) 0.7062(2)
N7_3 N 0.2860(10) 0.8801(2) 0.9166(2)
H1_3 H 0.254468 0.907032 0.916798
N8_3 N 0.2739(9) 0.8347(3) 0.7332(2)
H2_3 H 0.244962 0.823131 0.755403
C5_3 C 0.3046(12) 0.9397(3) 0.8490(3)
H5_3 H 0.303151 0.953788 0.874144
C6_3 C 0.3580(9) 0.8021(3) 0.9978(2)
C7_3 C 0.3687(9) 0.8221(3) 0.9613(3)
H7_3 H 0.432532 0.812669 0.942697
C8_3 C 0.3429(9) 0.7872(3) 0.6346(3)
H8_3 H 0.400871 0.791841 0.613010
C11_3 C 0.3277(10) 0.8736(3) 0.8100(2)
H10_3 H 0.342400 0.842780 0.808438
C12_3 C 0.2835(9) 0.8564(3) 0.9524(2)
C13_3 C 0.1944(12) 0.8680(4) 0.9810(3)
H11_3 H 0.133062 0.890680 0.975760
C14_3 C 0.3331(9) 0.8645(3) 0.8822(2)
C15_3 C 0.3208(10) 0.8939(3) 0.8464(3)
C16_3 C 0.2714(10) 0.8079(3) 0.6997(2)
C17_3 C 0.1876(11) 0.7717(3) 0.6983(3)
H12_3 H 0.133042 0.765068 0.720305
C21_3 C 0.3171(10) 0.8775(3) 0.7350(3)
C22_3 C 0.2907(14) 0.9644(3) 0.8140(3)
C24_3 C 0.2927(14) 0.9435(4) 0.7774(3)
H16_3 H 0.280303 0.960095 0.753912
C25_3 C 0.3129(10) 0.8984(3) 0.7751(3)
C26_3 C 0.3498(10) 0.8152(4) 0.6677(3)
H17_3 H 0.409202 0.839177 0.667812
C27_3 C 0.1843(11) 0.7454(3) 0.6644(3)
H18_3 H 0.128579 0.720435 0.664189
C28_3 C 0.185(2) 0.5925(5) 0.9563(6)
N10_3 N 0.165(3) 0.5639(5) 0.9381(6)
Au1_3 Au 0.75924(3) 0.78127(2) 0.07822(2)
C1_3 C 0.5668(9) 0.7759(3) 0.0798(2)
C2_3 C 0.9527(10) 0.7863(3) 0.0784(3)
Au2_4 Au 0.21251(5) 0.35499(2) 0.00996(2)
O1_4 O 0.3769(9) 0.1732(2) 0.12168(19)
O2_4 O 0.3566(12) 0.1023(3) 0.2938(2)
N7_4 N 0.2860(10) 0.1199(2) 0.0834(2)
H1_4 H 0.254468 0.092968 0.083202
N8_4 N 0.2739(9) 0.1653(3) 0.2668(2)
H2_4 H 0.244962 0.176869 0.244597
C5_4 C 0.3046(12) 0.0603(3) 0.1510(3)
H5_4 H 0.303151 0.046212 0.125856
C6_4 C 0.3580(9) 0.1979(3) 0.0022(2)
C7_4 C 0.3687(9) 0.1779(3) 0.0387(3)
H7_4 H 0.432532 0.187331 0.057303
C8_4 C 0.3429(9) 0.2128(3) 0.3654(3)
H8_4 H 0.400871 0.208159 0.386990
C11_4 C 0.3277(10) 0.1264(3) 0.1900(2)
H10_4 H 0.342400 0.157220 0.191562
C12_4 C 0.2835(9) 0.1436(3) 0.0476(2)
C13_4 C 0.1944(12) 0.1320(4) 0.0190(3)
H11_4 H 0.133062 0.109320 0.024240
C14_4 C 0.3331(9) 0.1355(3) 0.1178(2)
C15_4 C 0.3208(10) 0.1061(3) 0.1536(3)
C16_4 C 0.2714(10) 0.1921(3) 0.3003(2)
C17_4 C 0.1876(11) 0.2283(3) 0.3017(3)
H12_4 H 0.133042 0.234932 0.279695
C21_4 C 0.3171(10) 0.1225(3) 0.2650(3)
C22_4 C 0.2907(14) 0.0356(3) 0.1860(3)
C24_4 C 0.2927(14) 0.0565(4) 0.2226(3)
H16_4 H 0.280303 0.039905 0.246088
C25_4 C 0.3129(10) 0.1016(3) 0.2249(3)
C26_4 C 0.3498(10) 0.1848(4) 0.3323(3)
H17_4 H 0.409202 0.160823 0.332188
C27_4 C 0.1843(11) 0.2546(3) 0.3356(3)
H18_4 H 0.128579 0.279565 0.335811
C28_4 C 0.185(2) 0.4075(5) 0.0437(6)
N10_4 N 0.165(3) 0.4361(5) 0.0619(6)
N1_4 N 0.0641(8) 0.2139(3) 0.9215(2)
N3_4 N 0.2430(7) 0.2760(2) 0.9511(2)
N4_4 N 0.2695(8) 0.1870(2) 0.9747(2)
C3_4 C 0.2337(11) 0.3055(3) 0.9726(3)
C4_4 C 0.1930(12) 0.1532(3) 0.9827(3)
H3_4 H 0.134953 0.142924 0.962733
H6_4 H 0.417413 0.220920 0.996137
N11_2 N 0.4546(9) 0.2259(3) 0.9188(2)
O3_4 O 0.1936(16) 0.9690(3) 0.2081(3)
N9_4 N 0.3256(15) 0.9667(3) 0.1529(3)
H4_4 H 0.377586 0.983014 0.138199
C9_4 C 0.3153(14) 0.9230(3) 0.1420(3)
C10_4 C 0.2009(13) 0.8545(3) 0.1373(3)
H9_4 H 0.130184 0.836481 0.145607
C18_4 C 0.2162(14) 0.8947(4) 0.1551(3)
H13_4 H 0.159975 0.903280 0.176076
C19_4 C 0.3743(12) 0.8677(3) 0.0954(3)
H14_4 H 0.428982 0.858762 0.074109
C20_4 C 0.2639(18) 0.9879(3) 0.1841(3)
C23_4 C 0.3931(14) 0.9089(3) 0.1112(3)
H15_4 H 0.459553 0.927579 0.101016
Au1_4 Au 0.75924(3) 0.21873(2) 0.92178(2)
C1_4 C 0.5668(9) 0.2241(3) 0.9202(2)
C2_4 C 0.9527(10) 0.2137(3) 0.9216(3)
Au1_5 Au 0.25924(3) 0.28127(2) 0.07822(2)
Fe1 Fe 0.75956(10) 0.28017(3) 0.07955(3)
N1_5 N 0.5641(8) 0.2861(3) 0.0785(2)
N3_5 N 0.7430(7) 0.2240(2) 0.0489(2)
N4_5 N 0.7695(8) 0.3130(2) 0.0253(2)
C1_5 C 0.0668(9) 0.2759(3) 0.0798(2)
C2_5 C 0.4527(10) 0.2863(3) 0.0784(3)
C3_5 C 0.7337(11) 0.1945(3) 0.0274(3)
C4_5 C 0.6930(12) 0.3468(3) 0.0173(3)
H3_5 H 0.634953 0.357076 0.037267
H6_5 H 0.917413 0.279080 0.003863
N11_3 N 0.9546(9) 0.2741(3) 0.0812(2)
N12_3 N 0.7818(9) 0.3391(3) 0.1085(2)
N13_3 N 0.7443(8) 0.2461(2) 0.1327(2)
Au2_5 Au 0.71251(5) 0.14501(2) 0.99004(2)
O1_5 O 0.8769(9) 0.3268(2) 0.87832(19)
N5_3 N 0.7818(9) 0.6609(3) 0.8915(2)
N6_3 N 0.7557(8) 0.2539(2) 0.6327(2)
O2_5 O 0.8566(12) 0.3977(3) 0.7062(2)
O3_5 O 0.6936(16) 0.5310(3) 0.7919(3)
N7_5 N 0.7860(10) 0.3801(2) 0.9166(2)
H1_5 H 0.754468 0.407032 0.916798
N8_5 N 0.7739(9) 0.3347(3) 0.7332(2)
H2_5 H 0.744962 0.323131 0.755403
N9_5 N 0.8256(15) 0.5333(3) 0.8471(3)
H4_5 H 0.877586 0.516986 0.861801
C5_5 C 0.8046(12) 0.4397(3) 0.8490(3)
H5_5 H 0.803151 0.453788 0.874144
C6_5 C 0.8580(9) 0.3021(3) 0.9978(2)
C7_5 C 0.8687(9) 0.3221(3) 0.9613(3)
H7_5 H 0.932532 0.312669 0.942697
C8_5 C 0.8429(9) 0.2872(3) 0.6346(3)
H8_5 H 0.900871 0.291841 0.613010
C9_5 C 0.8153(14) 0.5770(3) 0.8580(3)
C10_5 C 0.7009(13) 0.6455(3) 0.8627(3)
H9_5 H 0.630184 0.663519 0.854393
C11_5 C 0.8277(10) 0.3736(3) 0.8100(2)
H10_5 H 0.842400 0.342780 0.808438
C12_5 C 0.7835(9) 0.3564(3) 0.9524(2)
C13_5 C 0.6944(12) 0.3680(4) 0.9810(3)
H11_5 H 0.633062 0.390680 0.975760
C14_5 C 0.8331(9) 0.3645(3) 0.8822(2)
C15_5 C 0.8208(10) 0.3939(3) 0.8464(3)
C16_5 C 0.7714(10) 0.3079(3) 0.6997(2)
C17_5 C 0.6876(11) 0.2717(3) 0.6983(3)
H12_5 H 0.633042 0.265068 0.720305
C18_5 C 0.7162(14) 0.6053(4) 0.8449(3)
H13_5 H 0.659975 0.596720 0.823924
C19_5 C 0.8743(12) 0.6323(3) 0.9046(3)
H14_5 H 0.928982 0.641238 0.925891
C20_5 C 0.7639(18) 0.5121(3) 0.8159(3)
C21_5 C 0.8171(10) 0.3775(3) 0.7350(3)
C22_5 C 0.7907(14) 0.4644(3) 0.8140(3)
C23_5 C 0.8931(14) 0.5911(3) 0.8888(3)
H15_5 H 0.959553 0.572421 0.898984
C24_5 C 0.7927(14) 0.4435(4) 0.7774(3)
H16_5 H 0.780303 0.460095 0.753912
C25_5 C 0.8129(10) 0.3984(3) 0.7751(3)
C26_5 C 0.8498(10) 0.3152(4) 0.6677(3)
H17_5 H 0.909202 0.339177 0.667812
C27_5 C 0.6843(11) 0.2454(3) 0.6644(3)
H18_5 H 0.628579 0.220435 0.664189
C28_5 C 0.685(2) 0.0925(5) 0.9563(6)
N10_5 N 0.665(3) 0.0639(5) 0.9381(6)
Fe3_2 Fe 0.75956(10) 0.71983(3) 0.92045(3)
Fe4_3 Fe 0.74044(10) 0.21983(3) 0.57955(3)
Au2_6 Au 0.71251(5) 0.85499(2) 0.00996(2)
O1_6 O 0.8769(9) 0.6732(2) 0.12168(19)
N6_4 N 0.7557(8) 0.7461(2) 0.3673(2)
O2_6 O 0.8566(12) 0.6023(3) 0.2938(2)
O3_6 O 0.6936(16) 0.4690(3) 0.2081(3)
N7_6 N 0.7860(10) 0.6199(2) 0.0834(2)
H1_6 H 0.754468 0.592968 0.083202
N8_6 N 0.7739(9) 0.6653(3) 0.2668(2)
H2_6 H 0.744962 0.676869 0.244597
N9_6 N 0.8256(15) 0.4667(3) 0.1529(3)
H4_6 H 0.877586 0.483014 0.138199
C5_6 C 0.8046(12) 0.5603(3) 0.1510(3)
H5_6 H 0.803151 0.546212 0.125856
C6_6 C 0.8580(9) 0.6979(3) 0.0022(2)
C7_6 C 0.8687(9) 0.6779(3) 0.0387(3)
H7_6 H 0.932532 0.687331 0.057303
C8_6 C 0.8429(9) 0.7128(3) 0.3654(3)
H8_6 H 0.900871 0.708159 0.386990
C9_6 C 0.8153(14) 0.4230(3) 0.1420(3)
C10_6 C 0.7009(13) 0.3545(3) 0.1373(3)
H9_6 H 0.630184 0.336481 0.145607
C11_6 C 0.8277(10) 0.6264(3) 0.1900(2)
H10_6 H 0.842400 0.657220 0.191562
C12_6 C 0.7835(9) 0.6436(3) 0.0476(2)
C13_6 C 0.6944(12) 0.6320(4) 0.0190(3)
H11_6 H 0.633062 0.609320 0.024240
C14_6 C 0.8331(9) 0.6355(3) 0.1178(2)
C15_6 C 0.8208(10) 0.6061(3) 0.1536(3)
C16_6 C 0.7714(10) 0.6921(3) 0.3003(2)
C17_6 C 0.6876(11) 0.7283(3) 0.3017(3)
H12_6 H 0.633042 0.734932 0.279695
C18_6 C 0.7162(14) 0.3947(4) 0.1551(3)
H13_6 H 0.659975 0.403280 0.176076
C19_6 C 0.8743(12) 0.3677(3) 0.0954(3)
H14_6 H 0.928982 0.358762 0.074109
C20_6 C 0.7639(18) 0.4879(3) 0.1841(3)
C21_6 C 0.8171(10) 0.6225(3) 0.2650(3)
C22_6 C 0.7907(14) 0.5356(3) 0.1860(3)
C23_6 C 0.8931(14) 0.4089(3) 0.1112(3)
H15_6 H 0.959553 0.427579 0.101016
C24_6 C 0.7927(14) 0.5565(4) 0.2226(3)
H16_6 H 0.780303 0.539905 0.246088
C25_6 C 0.8129(10) 0.6016(3) 0.2249(3)
C26_6 C 0.8498(10) 0.6848(4) 0.3323(3)
H17_6 H 0.909202 0.660823 0.332188
C27_6 C 0.6843(11) 0.7546(3) 0.3356(3)
H18_6 H 0.628579 0.779565 0.335811
C28_6 C 0.685(2) 0.9075(5) 0.0437(6)
N10_6 N 0.665(3) 0.9361(5) 0.0619(6)
Fe4_4 Fe 0.74044(10) 0.78017(3) 0.42045(3)
Au1_6 Au 0.25924(3) 0.71873(2) 0.92178(2)
N1_6 N 0.5641(8) 0.7139(3) 0.9215(2)
N3_6 N 0.7430(7) 0.7760(2) 0.9511(2)
N4_6 N 0.7695(8) 0.6870(2) 0.9747(2)
C1_6 C 0.0668(9) 0.7241(3) 0.9202(2)
C2_6 C 0.4527(10) 0.7137(3) 0.9216(3)
C3_6 C 0.7337(11) 0.8055(3) 0.9726(3)
C4_6 C 0.6930(12) 0.6532(3) 0.9827(3)
H3_6 H 0.634953 0.642924 0.962733
H6_6 H 0.917413 0.720920 0.996137
N11_4 N 0.9546(9) 0.7259(3) 0.9188(2)
N13_4 N 0.7443(8) 0.7539(2) 0.8673(2)
Au1_7 Au 0.24076(3) 0.21873(2) 0.57822(2)
N2_3 N 0.5454(9) 0.2259(3) 0.5812(2)
C1_7 C 0.4332(9) 0.2241(3) 0.5798(2)
C2_7 C 0.0473(10) 0.2137(3) 0.5784(3)
Au2_7 Au 0.78749(5) 0.35499(2) 0.49004(2)
N1_7 N 0.9359(8) 0.2139(3) 0.5785(2)
N3_7 N 0.7570(7) 0.2760(2) 0.5489(2)
N4_7 N 0.7305(8) 0.1870(2) 0.5253(2)
O1_7 O 0.6231(9) 0.1732(2) 0.37832(19)
O2_7 O 0.6434(12) 0.1023(3) 0.2062(2)
C3_7 C 0.7663(11) 0.3055(3) 0.5274(3)
N7_7 N 0.7140(10) 0.1199(2) 0.4166(2)
H1_7 H 0.745532 0.092968 0.416798
N8_7 N 0.7261(9) 0.1653(3) 0.2332(2)
H2_7 H 0.755038 0.176869 0.255403
C4_7 C 0.8070(12) 0.1532(3) 0.5173(3)
H3_7 H 0.865047 0.142924 0.537267
C5_7 C 0.6954(12) 0.0603(3) 0.3490(3)
H5_7 H 0.696849 0.046212 0.374144
C6_7 C 0.6420(9) 0.1979(3) 0.4978(2)
H6_7 H 0.582587 0.220920 0.503863
C7_7 C 0.6313(9) 0.1779(3) 0.4613(3)
H7_7 H 0.567468 0.187331 0.442697
C8_7 C 0.6571(9) 0.2128(3) 0.1346(3)
H8_7 H 0.599129 0.208159 0.113010
C11_7 C 0.6723(10) 0.1264(3) 0.3100(2)
H10_7 H 0.657600 0.157220 0.308438
C12_7 C 0.7165(9) 0.1436(3) 0.4524(2)
C13_7 C 0.8056(12) 0.1320(4) 0.4810(3)
H11_7 H 0.866938 0.109320 0.475760
C14_7 C 0.6669(9) 0.1355(3) 0.3822(2)
C15_7 C 0.6792(10) 0.1061(3) 0.3464(3)
C16_7 C 0.7286(10) 0.1921(3) 0.1997(2)
C17_7 C 0.8124(11) 0.2283(3) 0.1983(3)
H12_7 H 0.866958 0.234932 0.220305
C21_7 C 0.6829(10) 0.1225(3) 0.2350(3)
C22_7 C 0.7093(14) 0.0356(3) 0.3140(3)
C24_7 C 0.7073(14) 0.0565(4) 0.2774(3)
H16_7 H 0.719697 0.039905 0.253912
C25_7 C 0.6871(10) 0.1016(3) 0.2751(3)
C26_7 C 0.6502(10) 0.1848(4) 0.1677(3)
H17_7 H 0.590798 0.160823 0.167812
C27_7 C 0.8157(11) 0.2546(3) 0.1644(3)
H18_7 H 0.871421 0.279565 0.164189
C28_7 C 0.815(2) 0.4075(5) 0.4563(6)
N10_7 N 0.835(3) 0.4361(5) 0.4381(6)
N12_4 N 0.7182(9) 0.1609(3) 0.6085(2)
N5_4 N 0.7182(9) 0.8391(3) 0.3915(2)
O3_7 O 0.8064(16) 0.9690(3) 0.2919(3)
N9_7 N 0.6744(15) 0.9667(3) 0.3471(3)
H4_7 H 0.622414 0.983014 0.361801
C9_7 C 0.6847(14) 0.9230(3) 0.3580(3)
C10_7 C 0.7991(13) 0.8545(3) 0.3627(3)
H9_7 H 0.869816 0.836481 0.354393
C18_7 C 0.7838(14) 0.8947(4) 0.3449(3)
H13_7 H 0.840025 0.903280 0.323924
C19_7 C 0.6257(12) 0.8677(3) 0.4046(3)
H14_7 H 0.571018 0.858762 0.425891
C20_7 C 0.7361(18) 0.9879(3) 0.3159(3)
C23_7 C 0.6069(14) 0.9089(3) 0.3888(3)
H15_7 H 0.540447 0.927579 0.398984
Au1_8 Au 0.24076(3) 0.78127(2) 0.42178(2)
N2_4 N 0.5454(9) 0.7741(3) 0.4188(2)
C1_8 C 0.4332(9) 0.7759(3) 0.4202(2)
C2_8 C 0.0473(10) 0.7863(3) 0.4216(3)
O3_8 O 0.8064(16) 0.0310(3) 0.7081(3)
N9_8 N 0.6744(15) 0.0333(3) 0.6529(3)
H4_8 H 0.622414 0.016986 0.638199
C9_8 C 0.6847(14) 0.0770(3) 0.6420(3)
C10_8 C 0.7991(13) 0.1455(3) 0.6373(3)
H9_8 H 0.869816 0.163519 0.645607
C18_8 C 0.7838(14) 0.1053(4) 0.6551(3)
H13_8 H 0.840025 0.096720 0.676076
C19_8 C 0.6257(12) 0.1323(3) 0.5954(3)
H14_8 H 0.571018 0.141238 0.574109
C20_8 C 0.7361(18) 0.0121(3) 0.6841(3)
C23_8 C 0.6069(14) 0.0911(3) 0.6112(3)
H15_8 H 0.540447 0.072421 0.601016
Au2_8 Au 0.78749(5) 0.64501(2) 0.50996(2)
N1_8 N 0.9359(8) 0.7861(3) 0.4215(2)
N3_8 N 0.7570(7) 0.7240(2) 0.4511(2)
N4_8 N 0.7305(8) 0.8130(2) 0.4747(2)
O1_8 O 0.6231(9) 0.8268(2) 0.62168(19)
O2_8 O 0.6434(12) 0.8977(3) 0.7938(2)
C3_8 C 0.7663(11) 0.6945(3) 0.4726(3)
N7_8 N 0.7140(10) 0.8801(2) 0.5834(2)
H1_8 H 0.745532 0.907032 0.583202
N8_8 N 0.7261(9) 0.8347(3) 0.7668(2)
H2_8 H 0.755038 0.823131 0.744597
C4_8 C 0.8070(12) 0.8468(3) 0.4827(3)
H3_8 H 0.865047 0.857076 0.462733
C5_8 C 0.6954(12) 0.9397(3) 0.6510(3)
H5_8 H 0.696849 0.953788 0.625856
C6_8 C 0.6420(9) 0.8021(3) 0.5022(2)
H6_8 H 0.582587 0.779080 0.496137
C7_8 C 0.6313(9) 0.8221(3) 0.5387(3)
H7_8 H 0.567468 0.812669 0.557303
C8_8 C 0.6571(9) 0.7872(3) 0.8654(3)
H8_8 H 0.599129 0.791841 0.886990
C11_8 C 0.6723(10) 0.8736(3) 0.6900(2)
H10_8 H 0.657600 0.842780 0.691562
C12_8 C 0.7165(9) 0.8564(3) 0.5476(2)
C13_8 C 0.8056(12) 0.8680(4) 0.5190(3)
H11_8 H 0.866938 0.890680 0.524240
C14_8 C 0.6669(9) 0.8645(3) 0.6178(2)
C15_8 C 0.6792(10) 0.8939(3) 0.6536(3)
C16_8 C 0.7286(10) 0.8079(3) 0.8003(2)
C17_8 C 0.8124(11) 0.7717(3) 0.8017(3)
H12_8 H 0.866958 0.765068 0.779695
C21_8 C 0.6829(10) 0.8775(3) 0.7650(3)
C22_8 C 0.7093(14) 0.9644(3) 0.6860(3)
C24_8 C 0.7073(14) 0.9435(4) 0.7226(3)
H16_8 H 0.719697 0.960095 0.746088
C25_8 C 0.6871(10) 0.8984(3) 0.7249(3)
C26_8 C 0.6502(10) 0.8152(4) 0.8323(3)
H17_8 H 0.590798 0.839177 0.832188
C27_8 C 0.8157(11) 0.7454(3) 0.8356(3)
H18_8 H 0.871421 0.720435 0.835811
C28_8 C 0.815(2) 0.5925(5) 0.5437(6)
N10_8 N 0.835(3) 0.5639(5) 0.5619(6)
loop_
_geom_bond_atom_site_label_1
_geom_bond_atom_site_label_2
_geom_bond_site_symmetry_1
_geom_bond_site_symmetry_2
Fe2 N2 1_555 1_555
Au1 C1 1_555 1_555
Au2 C3 1_555 1_555
Fe2 N1 1_555 1_555
N1 C2 1_555 1_555
N3 Fe2 1_555 1_555
N4 Fe2 1_555 1_555
O1 C14 1_555 1_555
N5 C10 1_555 1_555
N6 C8 1_555 1_555
O2 C21 1_555 1_555
C2 Au1 1_555 1_555
C3 N3 1_555 1_555
O3 C20 1_555 1_555
N7 H1 1_555 1_555
N8 H2 1_555 1_555
C4 N4 1_555 1_555
H3 C4 1_555 1_555
N9 H4 1_555 1_555
C5 H5 1_555 1_555
C6 N4 1_555 1_555
H6 C6 1_555 1_555
C7 C6 1_555 1_555
H7 C7 1_555 1_555
C8 H8 1_555 1_555
C9 N9 1_555 1_555
C10 H9 1_555 1_555
C11 H10 1_555 1_555
C12 N7 1_555 1_555
C13 C4 1_555 1_555
H11 C13 1_555 1_555
C14 N7 1_555 1_555
C15 C5 1_555 1_555
C16 N8 1_555 1_555
C17 C16 1_555 1_555
H12 C17 1_555 1_555
C18 C9 1_555 1_555
H13 C18 1_555 1_555
C19 N5 1_555 1_555
H14 C19 1_555 1_555
C20 N9 1_555 1_555
C21 N8 1_555 1_555
C22 C5 1_555 1_555
C23 C9 1_555 1_555
H15 C23 1_555 1_555
C24 C22 1_555 1_555
H16 C24 1_555 1_555
C25 C11 1_555 1_555
C26 C8 1_555 1_555
H17 C26 1_555 1_555
C27 N6 1_555 1_555
H18 C27 1_555 1_555
C28 Au2 1_555 1_555
N10 C28 1_555 1_555
Fe3 N5 1_555 1_555
Fe4 N6 1_555 1_555
N12 Fe2 1_555 1_555
N13 Fe2 1_555 1_555
C7 C12 1_555 1_555
C10 C18 1_555 1_555
C11 C15 1_555 1_555
C12 C13 1_555 1_555
C14 C15 1_555 1_555
C16 C26 1_555 1_555
C17 C27 1_555 1_555
C19 C23 1_555 1_555
C20 C22 1_555 1_555
C21 C25 1_555 1_555
C24 C25 1_555 1_555
Fe3 N2_2 1_555 1_555
Au1_2 C1_2 1_555 1_555
Au2_2 C3_2 1_555 1_555
Fe3 N1_2 1_555 1_555
N1_2 C2_2 1_555 1_555
N3_2 Fe3 1_555 1_555
N4_2 Fe3 1_555 1_555
O1_2 C14_2 1_555 1_555
N12 C10_2 1_555 1_555
N6_2 C8_2 1_555 1_555
O2_2 C21_2 1_555 1_555
C2_2 Au1_2 1_555 1_555
C3_2 N3_2 1_555 1_555
O3_2 C20_2 1_555 1_555
N7_2 H1_2 1_555 1_555
N8_2 H2_2 1_555 1_555
C4_2 N4_2 1_555 1_555
H3_2 C4_2 1_555 1_555
N9_2 H4_2 1_555 1_555
C5_2 H5_2 1_555 1_555
C6_2 N4_2 1_555 1_555
H6_2 C6_2 1_555 1_555
C7_2 C6_2 1_555 1_555
H7_2 C7_2 1_555 1_555
C8_2 H8_2 1_555 1_555
C9_2 N9_2 1_555 1_555
C10_2 H9_2 1_555 1_555
C11_2 H10_2 1_555 1_555
C12_2 N7_2 1_555 1_555
C13_2 C4_2 1_555 1_555
H11_2 C13_2 1_555 1_555
C14_2 N7_2 1_555 1_555
C15_2 C5_2 1_555 1_555
C16_2 N8_2 1_555 1_555
C17_2 C16_2 1_555 1_555
H12_2 C17_2 1_555 1_555
C18_2 C9_2 1_555 1_555
H13_2 C18_2 1_555 1_555
C19_2 N12 1_555 1_555
H14_2 C19_2 1_555 1_555
C20_2 N9_2 1_555 1_555
C21_2 N8_2 1_555 1_555
C22_2 C5_2 1_555 1_555
C23_2 C9_2 1_555 1_555
H15_2 C23_2 1_555 1_555
C24_2 C22_2 1_555 1_555
H16_2 C24_2 1_555 1_555
C25_2 C11_2 1_555 1_555
C26_2 C8_2 1_555 1_555
H17_2 C26_2 1_555 1_555
C27_2 N6_2 1_555 1_555
H18_2 C27_2 1_555 1_555
C28_2 Au2_2 1_555 1_555
N10_2 C28_2 1_555 1_555
Fe4_2 N6_2 1_555 1_555
N13_2 Fe3 1_555 1_555
C7_2 C12_2 1_555 1_555
C10_2 C18_2 1_555 1_555
C11_2 C15_2 1_555 1_555
C12_2 C13_2 1_555 1_555
C14_2 C15_2 1_555 1_555
C16_2 C26_2 1_555 1_555
C17_2 C27_2 1_555 1_555
C19_2 C23_2 1_555 1_555
C20_2 C22_2 1_555 1_555
C21_2 C25_2 1_555 1_555
C24_2 C25_2 1_555 1_555
N5_2 C10_3 1_555 1_555
O3_3 C20_3 1_555 1_555
N9_3 H4_3 1_555 1_555
C9_3 N9_3 1_555 1_555
C10_3 H9_3 1_555 1_555
C18_3 C9_3 1_555 1_555
H13_3 C18_3 1_555 1_555
C19_3 N5_2 1_555 1_555
H14_3 C19_3 1_555 1_555
C20_3 N9_3 1_555 1_555
C23_3 C9_3 1_555 1_555
H15_3 C23_3 1_555 1_555
Fe4_2 N5_2 1_555 1_555
C10_3 C18_3 1_555 1_555
C19_3 C23_3 1_555 1_555
Fe4 N1_3 1_555 1_555
N3_3 Fe4 1_555 1_555
N4_3 Fe4 1_555 1_555
C3_3 N3_3 1_555 1_555
C4_3 N4_3 1_555 1_555
H3_3 C4_3 1_555 1_555
N11 Fe4 1_555 1_555
N12_2 Fe4 1_555 1_555
O1_3 C14_3 1_555 1_555
N13 C8_3 1_555 1_555
O2_3 C21_3 1_555 1_555
N7_3 H1_3 1_555 1_555
N8_3 H2_3 1_555 1_555
C5_3 H5_3 1_555 1_555
C7_3 C6_3 1_555 1_555
H7_3 C7_3 1_555 1_555
C8_3 H8_3 1_555 1_555
C11_3 H10_3 1_555 1_555
C12_3 N7_3 1_555 1_555
H11_3 C13_3 1_555 1_555
C14_3 N7_3 1_555 1_555
C15_3 C5_3 1_555 1_555
C16_3 N8_3 1_555 1_555
C17_3 C16_3 1_555 1_555
H12_3 C17_3 1_555 1_555
C21_3 N8_3 1_555 1_555
C22_3 C5_3 1_555 1_555
C24_3 C22_3 1_555 1_555
H16_3 C24_3 1_555 1_555
C25_3 C11_3 1_555 1_555
C26_3 C8_3 1_555 1_555
H17_3 C26_3 1_555 1_555
C27_3 N13 1_555 1_555
H18_3 C27_3 1_555 1_555
C28_3 Au2_3 1_555 1_555
N10_3 C28_3 1_555 1_555
C7_3 C12_3 1_555 1_555
C11_3 C15_3 1_555 1_555
C12_3 C13_3 1_555 1_555
C14_3 C15_3 1_555 1_555
C16_3 C26_3 1_555 1_555
C17_3 C27_3 1_555 1_555
C21_3 C25_3 1_555 1_555
C24_3 C25_3 1_555 1_555
Au1_3 C1_3 1_555 1_555
N11 C1_3 1_555 1_555
C2_3 Au1_3 1_555 1_555
O1_4 C14_4 1_555 1_555
N13_2 C8_4 1_555 1_555
O2_4 C21_4 1_555 1_555
N7_4 H1_4 1_555 1_555
N8_4 H2_4 1_555 1_555
C5_4 H5_4 1_555 1_555
C7_4 C6_4 1_555 1_555
H7_4 C7_4 1_555 1_555
C8_4 H8_4 1_555 1_555
C11_4 H10_4 1_555 1_555
C12_4 N7_4 1_555 1_555
H11_4 C13_4 1_555 1_555
C14_4 N7_4 1_555 1_555
C15_4 C5_4 1_555 1_555
C16_4 N8_4 1_555 1_555
C17_4 C16_4 1_555 1_555
H12_4 C17_4 1_555 1_555
C21_4 N8_4 1_555 1_555
C22_4 C5_4 1_555 1_555
C24_4 C22_4 1_555 1_555
H16_4 C24_4 1_555 1_555
C25_4 C11_4 1_555 1_555
C26_4 C8_4 1_555 1_555
H17_4 C26_4 1_555 1_555
C27_4 N13_2 1_555 1_555
H18_4 C27_4 1_555 1_555
C28_4 Au2_4 1_555 1_555
N10_4 C28_4 1_555 1_555
C7_4 C12_4 1_555 1_555
C11_4 C15_4 1_555 1_555
C12_4 C13_4 1_555 1_555
C14_4 C15_4 1_555 1_555
C16_4 C26_4 1_555 1_555
C17_4 C27_4 1_555 1_555
C21_4 C25_4 1_555 1_555
C24_4 C25_4 1_555 1_555
Fe4_2 N1_4 1_555 1_555
N3_4 Fe4_2 1_555 1_555
N4_4 Fe4_2 1_555 1_555
C3_4 N3_4 1_555 1_555
C4_4 N4_4 1_555 1_555
H3_4 C4_4 1_555 1_555
N11_2 Fe4_2 1_555 1_555
N12_2 C10_4 1_555 1_555
O3_4 C20_4 1_555 1_555
N9_4 H4_4 1_555 1_555
C9_4 N9_4 1_555 1_555
C10_4 H9_4 1_555 1_555
C18_4 C9_4 1_555 1_555
H13_4 C18_4 1_555 1_555
C19_4 N12_2 1_555 1_555
H14_4 C19_4 1_555 1_555
C20_4 N9_4 1_555 1_555
C23_4 C9_4 1_555 1_555
H15_4 C23_4 1_555 1_555
C10_4 C18_4 1_555 1_555
C19_4 C23_4 1_555 1_555
Au1_4 C1_4 1_555 1_555
N11_2 C1_4 1_555 1_555
C2_4 Au1_4 1_555 1_555
Au1_5 C1_5 1_555 1_555
Fe1 N1_5 1_555 1_555
N1_5 C2_5 1_555 1_555
N3_5 Fe1 1_555 1_555
N4_5 Fe1 1_555 1_555
C2_5 Au1_5 1_555 1_555
C3_5 N3_5 1_555 1_555
C4_5 N4_5 1_555 1_555
H3_5 C4_5 1_555 1_555
N11_3 Fe1 1_555 1_555
N12_3 Fe1 1_555 1_555
N13_3 Fe1 1_555 1_555
O1_5 C14_5 1_555 1_555
N5_3 C10_5 1_555 1_555
N6_3 C8_5 1_555 1_555
O2_5 C21_5 1_555 1_555
O3_5 C20_5 1_555 1_555
N7_5 H1_5 1_555 1_555
N8_5 H2_5 1_555 1_555
N9_5 H4_5 1_555 1_555
C5_5 H5_5 1_555 1_555
C7_5 C6_5 1_555 1_555
H7_5 C7_5 1_555 1_555
C8_5 H8_5 1_555 1_555
C9_5 N9_5 1_555 1_555
C10_5 H9_5 1_555 1_555
C11_5 H10_5 1_555 1_555
C12_5 N7_5 1_555 1_555
H11_5 C13_5 1_555 1_555
C14_5 N7_5 1_555 1_555
C15_5 C5_5 1_555 1_555
C16_5 N8_5 1_555 1_555
C17_5 C16_5 1_555 1_555
H12_5 C17_5 1_555 1_555
C18_5 C9_5 1_555 1_555
H13_5 C18_5 1_555 1_555
C19_5 N5_3 1_555 1_555
H14_5 C19_5 1_555 1_555
C20_5 N9_5 1_555 1_555
C21_5 N8_5 1_555 1_555
C22_5 C5_5 1_555 1_555
C23_5 C9_5 1_555 1_555
H15_5 C23_5 1_555 1_555
C24_5 C22_5 1_555 1_555
H16_5 C24_5 1_555 1_555
C25_5 C11_5 1_555 1_555
C26_5 C8_5 1_555 1_555
H17_5 C26_5 1_555 1_555
C27_5 N6_3 1_555 1_555
H18_5 C27_5 1_555 1_555
C28_5 Au2_5 1_555 1_555
N10_5 C28_5 1_555 1_555
Fe3_2 N5_3 1_555 1_555
Fe4_3 N6_3 1_555 1_555
C7_5 C12_5 1_555 1_555
C10_5 C18_5 1_555 1_555
C11_5 C15_5 1_555 1_555
C12_5 C13_5 1_555 1_555
C14_5 C15_5 1_555 1_555
C16_5 C26_5 1_555 1_555
C17_5 C27_5 1_555 1_555
C19_5 C23_5 1_555 1_555
C20_5 C22_5 1_555 1_555
C21_5 C25_5 1_555 1_555
C24_5 C25_5 1_555 1_555
O1_6 C14_6 1_555 1_555
N12_3 C10_6 1_555 1_555
N6_4 C8_6 1_555 1_555
O2_6 C21_6 1_555 1_555
O3_6 C20_6 1_555 1_555
N7_6 H1_6 1_555 1_555
N8_6 H2_6 1_555 1_555
N9_6 H4_6 1_555 1_555
C5_6 H5_6 1_555 1_555
C7_6 C6_6 1_555 1_555
H7_6 C7_6 1_555 1_555
C8_6 H8_6 1_555 1_555
C9_6 N9_6 1_555 1_555
C10_6 H9_6 1_555 1_555
C11_6 H10_6 1_555 1_555
C12_6 N7_6 1_555 1_555
H11_6 C13_6 1_555 1_555
C14_6 N7_6 1_555 1_555
C15_6 C5_6 1_555 1_555
C16_6 N8_6 1_555 1_555
C17_6 C16_6 1_555 1_555
H12_6 C17_6 1_555 1_555
C18_6 C9_6 1_555 1_555
H13_6 C18_6 1_555 1_555
C19_6 N12_3 1_555 1_555
H14_6 C19_6 1_555 1_555
C20_6 N9_6 1_555 1_555
C21_6 N8_6 1_555 1_555
C22_6 C5_6 1_555 1_555
C23_6 C9_6 1_555 1_555
H15_6 C23_6 1_555 1_555
C24_6 C22_6 1_555 1_555
H16_6 C24_6 1_555 1_555
C25_6 C11_6 1_555 1_555
C26_6 C8_6 1_555 1_555
H17_6 C26_6 1_555 1_555
C27_6 N6_4 1_555 1_555
H18_6 C27_6 1_555 1_555
C28_6 Au2_6 1_555 1_555
N10_6 C28_6 1_555 1_555
Fe4_4 N6_4 1_555 1_555
C7_6 C12_6 1_555 1_555
C10_6 C18_6 1_555 1_555
C11_6 C15_6 1_555 1_555
C12_6 C13_6 1_555 1_555
C14_6 C15_6 1_555 1_555
C16_6 C26_6 1_555 1_555
C17_6 C27_6 1_555 1_555
C19_6 C23_6 1_555 1_555
C20_6 C22_6 1_555 1_555
C21_6 C25_6 1_555 1_555
C24_6 C25_6 1_555 1_555
Au1_6 C1_6 1_555 1_555
Fe3_2 N1_6 1_555 1_555
N1_6 C2_6 1_555 1_555
N3_6 Fe3_2 1_555 1_555
N4_6 Fe3_2 1_555 1_555
C2_6 Au1_6 1_555 1_555
C3_6 N3_6 1_555 1_555
C4_6 N4_6 1_555 1_555
H3_6 C4_6 1_555 1_555
N11_4 Fe3_2 1_555 1_555
N13_4 Fe3_2 1_555 1_555
Au1_7 C1_7 1_555 1_555
N2_3 C1_7 1_555 1_555
C2_7 Au1_7 1_555 1_555
Fe4_3 N2_3 1_555 1_555
Au2_7 C3_7 1_555 1_555
Fe4_3 N1_7 1_555 1_555
N3_7 Fe4_3 1_555 1_555
N4_7 Fe4_3 1_555 1_555
O1_7 C14_7 1_555 1_555
N13_3 C8_7 1_555 1_555
O2_7 C21_7 1_555 1_555
C3_7 N3_7 1_555 1_555
N7_7 H1_7 1_555 1_555
N8_7 H2_7 1_555 1_555
C4_7 N4_7 1_555 1_555
H3_7 C4_7 1_555 1_555
C5_7 H5_7 1_555 1_555
C6_7 N4_7 1_555 1_555
H6_7 C6_7 1_555 1_555
C7_7 C6_7 1_555 1_555
H7_7 C7_7 1_555 1_555
C8_7 H8_7 1_555 1_555
C11_7 H10_7 1_555 1_555
C12_7 N7_7 1_555 1_555
C13_7 C4_7 1_555 1_555
H11_7 C13_7 1_555 1_555
C14_7 N7_7 1_555 1_555
C15_7 C5_7 1_555 1_555
C16_7 N8_7 1_555 1_555
C17_7 C16_7 1_555 1_555
H12_7 C17_7 1_555 1_555
C21_7 N8_7 1_555 1_555
C22_7 C5_7 1_555 1_555
C24_7 C22_7 1_555 1_555
H16_7 C24_7 1_555 1_555
C25_7 C11_7 1_555 1_555
C26_7 C8_7 1_555 1_555
H17_7 C26_7 1_555 1_555
C27_7 N13_3 1_555 1_555
H18_7 C27_7 1_555 1_555
C28_7 Au2_7 1_555 1_555
N10_7 C28_7 1_555 1_555
N12_4 Fe4_3 1_555 1_555
C7_7 C12_7 1_555 1_555
C11_7 C15_7 1_555 1_555
C12_7 C13_7 1_555 1_555
C14_7 C15_7 1_555 1_555
C16_7 C26_7 1_555 1_555
C17_7 C27_7 1_555 1_555
C21_7 C25_7 1_555 1_555
C24_7 C25_7 1_555 1_555
N5_4 C10_7 1_555 1_555
O3_7 C20_7 1_555 1_555
N9_7 H4_7 1_555 1_555
C9_7 N9_7 1_555 1_555
C10_7 H9_7 1_555 1_555
C18_7 C9_7 1_555 1_555
H13_7 C18_7 1_555 1_555
C19_7 N5_4 1_555 1_555
H14_7 C19_7 1_555 1_555
C20_7 N9_7 1_555 1_555
C23_7 C9_7 1_555 1_555
H15_7 C23_7 1_555 1_555
Fe4_4 N5_4 1_555 1_555
C10_7 C18_7 1_555 1_555
C19_7 C23_7 1_555 1_555
Au1_8 C1_8 1_555 1_555
N2_4 C1_8 1_555 1_555
C2_8 Au1_8 1_555 1_555
Fe4_4 N2_4 1_555 1_555
N12_4 C10_8 1_555 1_555
O3_8 C20_8 1_555 1_555
N9_8 H4_8 1_555 1_555
C9_8 N9_8 1_555 1_555
C10_8 H9_8 1_555 1_555
C18_8 C9_8 1_555 1_555
H13_8 C18_8 1_555 1_555
C19_8 N12_4 1_555 1_555
H14_8 C19_8 1_555 1_555
C20_8 N9_8 1_555 1_555
C23_8 C9_8 1_555 1_555
H15_8 C23_8 1_555 1_555
C10_8 C18_8 1_555 1_555
C19_8 C23_8 1_555 1_555
Au2_8 C3_8 1_555 1_555
Fe4_4 N1_8 1_555 1_555
N3_8 Fe4_4 1_555 1_555
N4_8 Fe4_4 1_555 1_555
O1_8 C14_8 1_555 1_555
N13_4 C8_8 1_555 1_555
O2_8 C21_8 1_555 1_555
C3_8 N3_8 1_555 1_555
N7_8 H1_8 1_555 1_555
N8_8 H2_8 1_555 1_555
C4_8 N4_8 1_555 1_555
H3_8 C4_8 1_555 1_555
C5_8 H5_8 1_555 1_555
C6_8 N4_8 1_555 1_555
H6_8 C6_8 1_555 1_555
C7_8 C6_8 1_555 1_555
H7_8 C7_8 1_555 1_555
C8_8 H8_8 1_555 1_555
C11_8 H10_8 1_555 1_555
C12_8 N7_8 1_555 1_555
C13_8 C4_8 1_555 1_555
H11_8 C13_8 1_555 1_555
C14_8 N7_8 1_555 1_555
C15_8 C5_8 1_555 1_555
C16_8 N8_8 1_555 1_555
C17_8 C16_8 1_555 1_555
H12_8 C17_8 1_555 1_555
C21_8 N8_8 1_555 1_555
C22_8 C5_8 1_555 1_555
C24_8 C22_8 1_555 1_555
H16_8 C24_8 1_555 1_555
C25_8 C11_8 1_555 1_555
C26_8 C8_8 1_555 1_555
H17_8 C26_8 1_555 1_555
C27_8 N13_4 1_555 1_555
H18_8 C27_8 1_555 1_555
C28_8 Au2_8 1_555 1_555
N10_8 C28_8 1_555 1_555
C7_8 C12_8 1_555 1_555
C11_8 C15_8 1_555 1_555
C12_8 C13_8 1_555 1_555
C14_8 C15_8 1_555 1_555
C16_8 C26_8 1_555 1_555
C17_8 C27_8 1_555 1_555
C21_8 C25_8 1_555 1_555
C24_8 C25_8 1_555 1_555

#END
