
###############################################################################
#
# This file contains modified crystal structure data generated from the
# MOF subset of the Cambridge Structural Database (CSD) v543 
# hosted by the Cambridge Crystallographic Data Centre (CCDC).
#
# This work is licensed under the Creative Commons
# Attribution-NonCommercial-ShareAlike 4.0 International License.
# To view a copy of this license, visit
# http://creativecommons.org/licenses/by-nc-sa/4.0/
# or send a letter to
# Creative Commons, PO Box 1866, Mountain View, CA 94042, USA.
#
# CIF created using the CSD Python API on 29 September 2022
# The structure has been converted into the P1 space group
# The structure has a 3D framework
# The original CSD entry WAMCAS is in the orthorhombic crystal system
# The original CSD entry WAMCAS is in a Sohncke space group
# The framework has been calculated to contain at least 10.0% void space
# The void calculation uses a probe of radius 1.32A, grid spacing 0.4
#
###############################################################################

data_WAMCAS
_chemical_formula_moiety         '(C224 H144 Au16 Fe8 N76 O24)n'
_symmetry_cell_setting           triclinic
_symmetry_space_group_name_H-M   'P 1'
_symmetry_Int_Tables_number      1
_space_group_name_Hall           'P 1'
loop_
_symmetry_equiv_pos_site_id
_symmetry_equiv_pos_as_xyz
1 x,y,z
_cell_length_a                   10.095(2)
_cell_length_b                   30.238(6)
_cell_length_c                   33.510(7)
_cell_angle_alpha                90
_cell_angle_beta                 90
_cell_angle_gamma                90
_cell_volume                     10229
loop_
_atom_site_label
_atom_site_type_symbol
_atom_site_fract_x
_atom_site_fract_y
_atom_site_fract_z
N2 N 0.0501(6) 0.72533(19) 0.58080(19)
Fe2 Fe 0.24152(8) 0.71928(3) 0.57952(3)
Au1 Au 0.74196(2) 0.71844(2) 0.57841(2)
Au2 Au 0.28677(3) 0.85419(2) 0.49087(2)
N1 N 0.4332(6) 0.71364(19) 0.57883(18)
N3 N 0.2576(6) 0.77399(18) 0.54926(18)
N4 N 0.2308(6) 0.68732(18) 0.52686(17)
O1 O 0.1278(7) 0.67366(19) 0.37852(17)
N5 N 0.2207(6) 0.33837(18) 0.39234(18)
N6 N 0.2432(6) 0.74713(17) 0.13110(16)
C1 C 0.9382(7) 0.7243(2) 0.5801(2)
O2 O 0.1447(8) 0.60321(19) 0.20541(18)
C2 C 0.5452(7) 0.7138(2) 0.5784(2)
C3 C 0.2661(8) 0.8039(2) 0.5281(2)
O3 O 0.3086(11) 0.4689(2) 0.2914(2)
N7 N 0.2147(7) 0.61959(19) 0.41756(18)
H1 H 0.244266 0.592214 0.417825
N8 N 0.2268(7) 0.6663(2) 0.23332(19)
H2 H 0.255201 0.677953 0.255795
C4 C 0.3098(8) 0.6531(2) 0.5183(2)
H3 H 0.370699 0.643501 0.538125
N9 N 0.1719(10) 0.4663(2) 0.3460(2)
H4 H 0.112007 0.481860 0.358933
C5 C 0.1976(9) 0.5609(2) 0.3491(2)
H5 H 0.201160 0.546700 0.374388
C6 C 0.1428(8) 0.6990(2) 0.4986(2)
H6 H 0.085067 0.723018 0.504200
C7 C 0.1311(7) 0.6786(2) 0.4626(2)
H7 H 0.066160 0.687913 0.443836
C8 C 0.1580(7) 0.7133(2) 0.1332(2)
H8 H 0.100923 0.708220 0.111166
C9 C 0.1910(10) 0.4228(2) 0.3589(2)
C10 C 0.3004(8) 0.3528(2) 0.3627(2)
H9 H 0.368430 0.333571 0.353619
C11 C 0.1738(8) 0.6268(2) 0.3097(2)
H10 H 0.159388 0.657827 0.308259
C12 C 0.2175(8) 0.6433(2) 0.4537(2)
C13 C 0.3080(9) 0.6310(3) 0.4825(2)
H11 H 0.368269 0.607492 0.477574
C14 C 0.1696(8) 0.6360(2) 0.3822(2)
C15 C 0.1801(8) 0.6062(2) 0.3468(2)
C16 C 0.2282(8) 0.6931(2) 0.1991(2)
C17 C 0.3116(8) 0.7297(2) 0.1981(2)
H12 H 0.363933 0.737140 0.220652
C18 C 0.2890(11) 0.3938(3) 0.3449(3)
H13 H 0.346167 0.402122 0.323692
C19 C 0.1258(8) 0.3670(2) 0.4050(2)
H14 H 0.068360 0.357644 0.425786
C20 C 0.2371(13) 0.4874(2) 0.3153(2)
C21 C 0.1845(8) 0.6235(2) 0.2342(2)
C22 C 0.2101(11) 0.5360(2) 0.3140(2)
C23 C 0.1080(9) 0.4085(2) 0.3895(3)
H15 H 0.040102 0.427237 0.399472
C24 C 0.2083(10) 0.5567(2) 0.2768(2)
H16 H 0.220514 0.539834 0.253154
C25 C 0.1886(8) 0.6024(2) 0.2743(2)
C26 C 0.1484(8) 0.6852(2) 0.1659(2)
H17 H 0.088289 0.661015 0.165648
C27 C 0.3177(7) 0.7556(2) 0.1635(2)
H18 H 0.376804 0.780026 0.162839
C28 C 0.3106(13) 0.9066(3) 0.4562(4)
N10 N 0.3286(16) 0.9371(4) 0.4367(4)
Fe3 Fe 0.24152(8) 0.28072(3) 0.42048(3)
Fe4 Fe 0.25848(8) 0.78072(3) 0.07952(3)
N12 N 0.2207(6) 0.66163(18) 0.60766(18)
N13 N 0.2568(6) 0.75287(17) 0.63110(16)
N2_2 N 0.0501(6) 0.27467(19) 0.41920(19)
Au1_2 Au 0.74196(2) 0.28156(2) 0.42159(2)
Au2_2 Au 0.28677(3) 0.14581(2) 0.50913(2)
N1_2 N 0.4332(6) 0.28636(19) 0.42117(18)
N3_2 N 0.2576(6) 0.22601(18) 0.45074(18)
N4_2 N 0.2308(6) 0.31268(18) 0.47314(17)
O1_2 O 0.1278(7) 0.32634(19) 0.62148(17)
N6_2 N 0.2432(6) 0.25287(17) 0.86890(16)
C1_2 C 0.9382(7) 0.2757(2) 0.4199(2)
O2_2 O 0.1447(8) 0.39679(19) 0.79459(18)
C2_2 C 0.5452(7) 0.2862(2) 0.4216(2)
C3_2 C 0.2661(8) 0.1961(2) 0.4719(2)
O3_2 O 0.3086(11) 0.5311(2) 0.7086(2)
N7_2 N 0.2147(7) 0.38041(19) 0.58244(18)
H1_2 H 0.244266 0.407786 0.582175
N8_2 N 0.2268(7) 0.3337(2) 0.76668(19)
H2_2 H 0.255201 0.322047 0.744205
C4_2 C 0.3098(8) 0.3469(2) 0.4817(2)
H3_2 H 0.370699 0.356499 0.461875
N9_2 N 0.1719(10) 0.5337(2) 0.6540(2)
H4_2 H 0.112007 0.518140 0.641067
C5_2 C 0.1976(9) 0.4391(2) 0.6509(2)
H5_2 H 0.201160 0.453300 0.625612
C6_2 C 0.1428(8) 0.3010(2) 0.5014(2)
H6_2 H 0.085067 0.276982 0.495800
C7_2 C 0.1311(7) 0.3214(2) 0.5374(2)
H7_2 H 0.066160 0.312087 0.556164
C8_2 C 0.1580(7) 0.2867(2) 0.8668(2)
H8_2 H 0.100923 0.291780 0.888834
C9_2 C 0.1910(10) 0.5772(2) 0.6411(2)
C10_2 C 0.3004(8) 0.6472(2) 0.6373(2)
H9_2 H 0.368430 0.666429 0.646381
C11_2 C 0.1738(8) 0.3732(2) 0.6903(2)
H10_2 H 0.159388 0.342173 0.691741
C12_2 C 0.2175(8) 0.3567(2) 0.5463(2)
C13_2 C 0.3080(9) 0.3690(3) 0.5175(2)
H11_2 H 0.368269 0.392508 0.522426
C14_2 C 0.1696(8) 0.3640(2) 0.6178(2)
C15_2 C 0.1801(8) 0.3938(2) 0.6532(2)
C16_2 C 0.2282(8) 0.3069(2) 0.8009(2)
C17_2 C 0.3116(8) 0.2703(2) 0.8019(2)
H12_2 H 0.363933 0.262860 0.779348
C18_2 C 0.2890(11) 0.6062(3) 0.6551(3)
H13_2 H 0.346167 0.597878 0.676308
C19_2 C 0.1258(8) 0.6330(2) 0.5950(2)
H14_2 H 0.068360 0.642356 0.574214
C20_2 C 0.2371(13) 0.5126(2) 0.6847(2)
C21_2 C 0.1845(8) 0.3765(2) 0.7658(2)
C22_2 C 0.2101(11) 0.4640(2) 0.6860(2)
C23_2 C 0.1080(9) 0.5915(2) 0.6105(3)
H15_2 H 0.040102 0.572763 0.600528
C24_2 C 0.2083(10) 0.4433(2) 0.7232(2)
H16_2 H 0.220514 0.460166 0.746846
C25_2 C 0.1886(8) 0.3976(2) 0.7257(2)
C26_2 C 0.1484(8) 0.3148(2) 0.8341(2)
H17_2 H 0.088289 0.338985 0.834352
C27_2 C 0.3177(7) 0.2444(2) 0.8365(2)
H18_2 H 0.376804 0.219974 0.837161
C28_2 C 0.3106(13) 0.0934(3) 0.5438(4)
N10_2 N 0.3286(16) 0.0629(4) 0.5633(4)
Fe4_2 Fe 0.25848(8) 0.21928(3) 0.92048(3)
N13_2 N 0.2568(6) 0.24713(17) 0.36890(16)
N5_2 N 0.2793(6) 0.16163(18) 0.89234(18)
O3_3 O 0.1914(11) 0.0311(2) 0.7914(2)
N9_3 N 0.3281(10) 0.0337(2) 0.8460(2)
H4_3 H 0.387993 0.018140 0.858933
C9_3 C 0.3090(10) 0.0772(2) 0.8589(2)
C10_3 C 0.1996(8) 0.1472(2) 0.8627(2)
H9_3 H 0.131570 0.166429 0.853619
C18_3 C 0.2110(11) 0.1062(3) 0.8449(3)
H13_3 H 0.153833 0.097878 0.823692
C19_3 C 0.3742(8) 0.1330(2) 0.9050(2)
H14_3 H 0.431640 0.142356 0.925786
C20_3 C 0.2629(13) 0.0126(2) 0.8153(2)
C23_3 C 0.3920(9) 0.0915(2) 0.8895(3)
H15_3 H 0.459898 0.072763 0.899472
N1_3 N 0.0668(6) 0.78636(19) 0.07883(18)
N3_3 N 0.2424(6) 0.72601(18) 0.04926(18)
N4_3 N 0.2692(6) 0.81268(18) 0.02686(17)
C3_3 C 0.2339(8) 0.6961(2) 0.0281(2)
C4_3 C 0.1902(8) 0.8469(2) 0.0183(2)
H3_3 H 0.129301 0.856499 0.038125
H6_3 H 0.414933 0.776982 0.004200
N11 N 0.4499(6) 0.77467(19) 0.08080(19)
N12_2 N 0.2793(6) 0.83837(18) 0.10766(18)
Au2_3 Au 0.21323(3) 0.64581(2) 0.99087(2)
O1_3 O 0.3722(7) 0.82634(19) 0.87852(17)
O2_3 O 0.3553(8) 0.89679(19) 0.70541(18)
N7_3 N 0.2853(7) 0.88041(19) 0.91756(18)
H1_3 H 0.255734 0.907786 0.917825
N8_3 N 0.2732(7) 0.8337(2) 0.73332(19)
H2_3 H 0.244799 0.822047 0.755795
C5_3 C 0.3024(9) 0.9391(2) 0.8491(2)
H5_3 H 0.298840 0.953300 0.874388
C6_3 C 0.3572(8) 0.8010(2) 0.9986(2)
C7_3 C 0.3689(7) 0.8214(2) 0.9626(2)
H7_3 H 0.433840 0.812087 0.943836
C8_3 C 0.3420(7) 0.7867(2) 0.6332(2)
H8_3 H 0.399077 0.791780 0.611166
C11_3 C 0.3262(8) 0.8732(2) 0.8097(2)
H10_3 H 0.340612 0.842173 0.808259
C12_3 C 0.2825(8) 0.8567(2) 0.9537(2)
C13_3 C 0.1920(9) 0.8690(3) 0.9825(2)
H11_3 H 0.131731 0.892508 0.977574
C14_3 C 0.3304(8) 0.8640(2) 0.8822(2)
C15_3 C 0.3199(8) 0.8938(2) 0.8468(2)
C16_3 C 0.2718(8) 0.8069(2) 0.6991(2)
C17_3 C 0.1884(8) 0.7703(2) 0.6981(2)
H12_3 H 0.136067 0.762860 0.720652
C21_3 C 0.3155(8) 0.8765(2) 0.7342(2)
C22_3 C 0.2899(11) 0.9640(2) 0.8140(2)
C24_3 C 0.2917(10) 0.9433(2) 0.7768(2)
H16_3 H 0.279486 0.960166 0.753154
C25_3 C 0.3114(8) 0.8976(2) 0.7743(2)
C26_3 C 0.3516(8) 0.8148(2) 0.6659(2)
H17_3 H 0.411711 0.838985 0.665648
C27_3 C 0.1823(7) 0.7444(2) 0.6635(2)
H18_3 H 0.123196 0.719974 0.662839
C28_3 C 0.1894(13) 0.5934(3) 0.9562(4)
N10_3 N 0.1714(16) 0.5629(4) 0.9367(4)
Au1_3 Au 0.75804(2) 0.78156(2) 0.07841(2)
C1_3 C 0.5618(7) 0.7757(2) 0.0801(2)
C2_3 C 0.9548(7) 0.7862(2) 0.0784(2)
Au2_4 Au 0.21323(3) 0.35419(2) 0.00913(2)
O1_4 O 0.3722(7) 0.17366(19) 0.12148(17)
O2_4 O 0.3553(8) 0.10321(19) 0.29459(18)
N7_4 N 0.2853(7) 0.11959(19) 0.08244(18)
H1_4 H 0.255734 0.092214 0.082175
N8_4 N 0.2732(7) 0.1663(2) 0.26668(19)
H2_4 H 0.244799 0.177953 0.244205
C5_4 C 0.3024(9) 0.0609(2) 0.1509(2)
H5_4 H 0.298840 0.046700 0.125612
C6_4 C 0.3572(8) 0.1990(2) 0.0014(2)
C7_4 C 0.3689(7) 0.1786(2) 0.0374(2)
H7_4 H 0.433840 0.187913 0.056164
C8_4 C 0.3420(7) 0.2133(2) 0.3668(2)
H8_4 H 0.399077 0.208220 0.388834
C11_4 C 0.3262(8) 0.1268(2) 0.1903(2)
H10_4 H 0.340612 0.157827 0.191741
C12_4 C 0.2825(8) 0.1433(2) 0.0463(2)
C13_4 C 0.1920(9) 0.1310(3) 0.0175(2)
H11_4 H 0.131731 0.107492 0.022426
C14_4 C 0.3304(8) 0.1360(2) 0.1178(2)
C15_4 C 0.3199(8) 0.1062(2) 0.1532(2)
C16_4 C 0.2718(8) 0.1931(2) 0.3009(2)
C17_4 C 0.1884(8) 0.2297(2) 0.3019(2)
H12_4 H 0.136067 0.237140 0.279348
C21_4 C 0.3155(8) 0.1235(2) 0.2658(2)
C22_4 C 0.2899(11) 0.0360(2) 0.1860(2)
C24_4 C 0.2917(10) 0.0567(2) 0.2232(2)
H16_4 H 0.279486 0.039834 0.246846
C25_4 C 0.3114(8) 0.1024(2) 0.2257(2)
C26_4 C 0.3516(8) 0.1852(2) 0.3341(2)
H17_4 H 0.411711 0.161015 0.334352
C27_4 C 0.1823(7) 0.2556(2) 0.3365(2)
H18_4 H 0.123196 0.280026 0.337161
C28_4 C 0.1894(13) 0.4066(3) 0.0438(4)
N10_4 N 0.1714(16) 0.4371(4) 0.0633(4)
N1_4 N 0.0668(6) 0.21364(19) 0.92117(18)
N3_4 N 0.2424(6) 0.27399(18) 0.95074(18)
N4_4 N 0.2692(6) 0.18732(18) 0.97314(17)
C3_4 C 0.2339(8) 0.3039(2) 0.9719(2)
C4_4 C 0.1902(8) 0.1531(2) 0.9817(2)
H3_4 H 0.129301 0.143501 0.961875
H6_4 H 0.414933 0.223018 0.995800
N11_2 N 0.4499(6) 0.22533(19) 0.91920(19)
O3_4 O 0.1914(11) 0.9689(2) 0.2086(2)
N9_4 N 0.3281(10) 0.9663(2) 0.1540(2)
H4_4 H 0.387993 0.981860 0.141067
C9_4 C 0.3090(10) 0.9228(2) 0.1411(2)
C10_4 C 0.1996(8) 0.8528(2) 0.1373(2)
H9_4 H 0.131570 0.833571 0.146381
C18_4 C 0.2110(11) 0.8938(3) 0.1551(3)
H13_4 H 0.153833 0.902122 0.176308
C19_4 C 0.3742(8) 0.8670(2) 0.0950(2)
H14_4 H 0.431640 0.857644 0.074214
C20_4 C 0.2629(13) 0.9874(2) 0.1847(2)
C23_4 C 0.3920(9) 0.9085(2) 0.1105(3)
H15_4 H 0.459898 0.927237 0.100528
Au1_4 Au 0.75804(2) 0.21844(2) 0.92159(2)
C1_4 C 0.5618(7) 0.2243(2) 0.9199(2)
C2_4 C 0.9548(7) 0.2138(2) 0.9216(2)
Au1_5 Au 0.25804(2) 0.28156(2) 0.07841(2)
Fe1 Fe 0.75848(8) 0.28072(3) 0.07952(3)
N1_5 N 0.5668(6) 0.28636(19) 0.07883(18)
N3_5 N 0.7424(6) 0.22601(18) 0.04926(18)
N4_5 N 0.7692(6) 0.31268(18) 0.02686(17)
C1_5 C 0.0618(7) 0.2757(2) 0.0801(2)
C2_5 C 0.4548(7) 0.2862(2) 0.0784(2)
C3_5 C 0.7339(8) 0.1961(2) 0.0281(2)
C4_5 C 0.6902(8) 0.3469(2) 0.0183(2)
H3_5 H 0.629301 0.356499 0.038125
H6_5 H 0.914933 0.276982 0.004200
N11_3 N 0.9499(6) 0.27467(19) 0.08080(19)
N12_3 N 0.7793(6) 0.33837(18) 0.10766(18)
N13_3 N 0.7432(6) 0.24713(17) 0.13110(16)
Au2_5 Au 0.71323(3) 0.14581(2) 0.99087(2)
O1_5 O 0.8722(7) 0.32634(19) 0.87852(17)
N5_3 N 0.7793(6) 0.66163(18) 0.89234(18)
N6_3 N 0.7568(6) 0.25287(17) 0.63110(16)
O2_5 O 0.8553(8) 0.39679(19) 0.70541(18)
O3_5 O 0.6914(11) 0.5311(2) 0.7914(2)
N7_5 N 0.7853(7) 0.38041(19) 0.91756(18)
H1_5 H 0.755734 0.407786 0.917825
N8_5 N 0.7732(7) 0.3337(2) 0.73332(19)
H2_5 H 0.744799 0.322047 0.755795
N9_5 N 0.8281(10) 0.5337(2) 0.8460(2)
H4_5 H 0.887993 0.518140 0.858933
C5_5 C 0.8024(9) 0.4391(2) 0.8491(2)
H5_5 H 0.798840 0.453300 0.874388
C6_5 C 0.8572(8) 0.3010(2) 0.9986(2)
C7_5 C 0.8689(7) 0.3214(2) 0.9626(2)
H7_5 H 0.933840 0.312087 0.943836
C8_5 C 0.8420(7) 0.2867(2) 0.6332(2)
H8_5 H 0.899077 0.291780 0.611166
C9_5 C 0.8090(10) 0.5772(2) 0.8589(2)
C10_5 C 0.6996(8) 0.6472(2) 0.8627(2)
H9_5 H 0.631570 0.666429 0.853619
C11_5 C 0.8262(8) 0.3732(2) 0.8097(2)
H10_5 H 0.840612 0.342173 0.808259
C12_5 C 0.7825(8) 0.3567(2) 0.9537(2)
C13_5 C 0.6920(9) 0.3690(3) 0.9825(2)
H11_5 H 0.631731 0.392508 0.977574
C14_5 C 0.8304(8) 0.3640(2) 0.8822(2)
C15_5 C 0.8199(8) 0.3938(2) 0.8468(2)
C16_5 C 0.7718(8) 0.3069(2) 0.6991(2)
C17_5 C 0.6884(8) 0.2703(2) 0.6981(2)
H12_5 H 0.636067 0.262860 0.720652
C18_5 C 0.7110(11) 0.6062(3) 0.8449(3)
H13_5 H 0.653833 0.597878 0.823692
C19_5 C 0.8742(8) 0.6330(2) 0.9050(2)
H14_5 H 0.931640 0.642356 0.925786
C20_5 C 0.7629(13) 0.5126(2) 0.8153(2)
C21_5 C 0.8155(8) 0.3765(2) 0.7342(2)
C22_5 C 0.7899(11) 0.4640(2) 0.8140(2)
C23_5 C 0.8920(9) 0.5915(2) 0.8895(3)
H15_5 H 0.959898 0.572763 0.899472
C24_5 C 0.7917(10) 0.4433(2) 0.7768(2)
H16_5 H 0.779486 0.460166 0.753154
C25_5 C 0.8114(8) 0.3976(2) 0.7743(2)
C26_5 C 0.8516(8) 0.3148(2) 0.6659(2)
H17_5 H 0.911711 0.338985 0.665648
C27_5 C 0.6823(7) 0.2444(2) 0.6635(2)
H18_5 H 0.623196 0.219974 0.662839
C28_5 C 0.6894(13) 0.0934(3) 0.9562(4)
N10_5 N 0.6714(16) 0.0629(4) 0.9367(4)
Fe3_2 Fe 0.75848(8) 0.71928(3) 0.92048(3)
Fe4_3 Fe 0.74152(8) 0.21928(3) 0.57952(3)
Au2_6 Au 0.71323(3) 0.85419(2) 0.00913(2)
O1_6 O 0.8722(7) 0.67366(19) 0.12148(17)
N6_4 N 0.7568(6) 0.74713(17) 0.36890(16)
O2_6 O 0.8553(8) 0.60321(19) 0.29459(18)
O3_6 O 0.6914(11) 0.4689(2) 0.2086(2)
N7_6 N 0.7853(7) 0.61959(19) 0.08244(18)
H1_6 H 0.755734 0.592214 0.082175
N8_6 N 0.7732(7) 0.6663(2) 0.26668(19)
H2_6 H 0.744799 0.677953 0.244205
N9_6 N 0.8281(10) 0.4663(2) 0.1540(2)
H4_6 H 0.887993 0.481860 0.141067
C5_6 C 0.8024(9) 0.5609(2) 0.1509(2)
H5_6 H 0.798840 0.546700 0.125612
C6_6 C 0.8572(8) 0.6990(2) 0.0014(2)
C7_6 C 0.8689(7) 0.6786(2) 0.0374(2)
H7_6 H 0.933840 0.687913 0.056164
C8_6 C 0.8420(7) 0.7133(2) 0.3668(2)
H8_6 H 0.899077 0.708220 0.388834
C9_6 C 0.8090(10) 0.4228(2) 0.1411(2)
C10_6 C 0.6996(8) 0.3528(2) 0.1373(2)
H9_6 H 0.631570 0.333571 0.146381
C11_6 C 0.8262(8) 0.6268(2) 0.1903(2)
H10_6 H 0.840612 0.657827 0.191741
C12_6 C 0.7825(8) 0.6433(2) 0.0463(2)
C13_6 C 0.6920(9) 0.6310(3) 0.0175(2)
H11_6 H 0.631731 0.607492 0.022426
C14_6 C 0.8304(8) 0.6360(2) 0.1178(2)
C15_6 C 0.8199(8) 0.6062(2) 0.1532(2)
C16_6 C 0.7718(8) 0.6931(2) 0.3009(2)
C17_6 C 0.6884(8) 0.7297(2) 0.3019(2)
H12_6 H 0.636067 0.737140 0.279348
C18_6 C 0.7110(11) 0.3938(3) 0.1551(3)
H13_6 H 0.653833 0.402122 0.176308
C19_6 C 0.8742(8) 0.3670(2) 0.0950(2)
H14_6 H 0.931640 0.357644 0.074214
C20_6 C 0.7629(13) 0.4874(2) 0.1847(2)
C21_6 C 0.8155(8) 0.6235(2) 0.2658(2)
C22_6 C 0.7899(11) 0.5360(2) 0.1860(2)
C23_6 C 0.8920(9) 0.4085(2) 0.1105(3)
H15_6 H 0.959898 0.427237 0.100528
C24_6 C 0.7917(10) 0.5567(2) 0.2232(2)
H16_6 H 0.779486 0.539834 0.246846
C25_6 C 0.8114(8) 0.6024(2) 0.2257(2)
C26_6 C 0.8516(8) 0.6852(2) 0.3341(2)
H17_6 H 0.911711 0.661015 0.334352
C27_6 C 0.6823(7) 0.7556(2) 0.3365(2)
H18_6 H 0.623196 0.780026 0.337161
C28_6 C 0.6894(13) 0.9066(3) 0.0438(4)
N10_6 N 0.6714(16) 0.9371(4) 0.0633(4)
Fe4_4 Fe 0.74152(8) 0.78072(3) 0.42048(3)
Au1_6 Au 0.25804(2) 0.71844(2) 0.92159(2)
N1_6 N 0.5668(6) 0.71364(19) 0.92117(18)
N3_6 N 0.7424(6) 0.77399(18) 0.95074(18)
N4_6 N 0.7692(6) 0.68732(18) 0.97314(17)
C1_6 C 0.0618(7) 0.7243(2) 0.9199(2)
C2_6 C 0.4548(7) 0.7138(2) 0.9216(2)
C3_6 C 0.7339(8) 0.8039(2) 0.9719(2)
C4_6 C 0.6902(8) 0.6531(2) 0.9817(2)
H3_6 H 0.629301 0.643501 0.961875
H6_6 H 0.914933 0.723018 0.995800
N11_4 N 0.9499(6) 0.72533(19) 0.91920(19)
N13_4 N 0.7432(6) 0.75287(17) 0.86890(16)
Au1_7 Au 0.24196(2) 0.21844(2) 0.57841(2)
N2_3 N 0.5501(6) 0.22533(19) 0.58080(19)
C1_7 C 0.4382(7) 0.2243(2) 0.5801(2)
C2_7 C 0.0452(7) 0.2138(2) 0.5784(2)
Au2_7 Au 0.78677(3) 0.35419(2) 0.49087(2)
N1_7 N 0.9332(6) 0.21364(19) 0.57883(18)
N3_7 N 0.7576(6) 0.27399(18) 0.54926(18)
N4_7 N 0.7308(6) 0.18732(18) 0.52686(17)
O1_7 O 0.6278(7) 0.17366(19) 0.37852(17)
O2_7 O 0.6447(8) 0.10321(19) 0.20541(18)
C3_7 C 0.7661(8) 0.3039(2) 0.5281(2)
N7_7 N 0.7147(7) 0.11959(19) 0.41756(18)
H1_7 H 0.744266 0.092214 0.417825
N8_7 N 0.7268(7) 0.1663(2) 0.23332(19)
H2_7 H 0.755201 0.177953 0.255795
C4_7 C 0.8098(8) 0.1531(2) 0.5183(2)
H3_7 H 0.870699 0.143501 0.538125
C5_7 C 0.6976(9) 0.0609(2) 0.3491(2)
H5_7 H 0.701160 0.046700 0.374388
C6_7 C 0.6428(8) 0.1990(2) 0.4986(2)
H6_7 H 0.585067 0.223018 0.504200
C7_7 C 0.6311(7) 0.1786(2) 0.4626(2)
H7_7 H 0.566160 0.187913 0.443836
C8_7 C 0.6580(7) 0.2133(2) 0.1332(2)
H8_7 H 0.600923 0.208220 0.111166
C11_7 C 0.6738(8) 0.1268(2) 0.3097(2)
H10_7 H 0.659388 0.157827 0.308259
C12_7 C 0.7175(8) 0.1433(2) 0.4537(2)
C13_7 C 0.8080(9) 0.1310(3) 0.4825(2)
H11_7 H 0.868269 0.107492 0.477574
C14_7 C 0.6696(8) 0.1360(2) 0.3822(2)
C15_7 C 0.6801(8) 0.1062(2) 0.3468(2)
C16_7 C 0.7282(8) 0.1931(2) 0.1991(2)
C17_7 C 0.8116(8) 0.2297(2) 0.1981(2)
H12_7 H 0.863933 0.237140 0.220652
C21_7 C 0.6845(8) 0.1235(2) 0.2342(2)
C22_7 C 0.7101(11) 0.0360(2) 0.3140(2)
C24_7 C 0.7083(10) 0.0567(2) 0.2768(2)
H16_7 H 0.720514 0.039834 0.253154
C25_7 C 0.6886(8) 0.1024(2) 0.2743(2)
C26_7 C 0.6484(8) 0.1852(2) 0.1659(2)
H17_7 H 0.588289 0.161015 0.165648
C27_7 C 0.8177(7) 0.2556(2) 0.1635(2)
H18_7 H 0.876804 0.280026 0.162839
C28_7 C 0.8106(13) 0.4066(3) 0.4562(4)
N10_7 N 0.8286(16) 0.4371(4) 0.4367(4)
N12_4 N 0.7207(6) 0.16163(18) 0.60766(18)
N5_4 N 0.7207(6) 0.83837(18) 0.39234(18)
O3_7 O 0.8086(11) 0.9689(2) 0.2914(2)
N9_7 N 0.6719(10) 0.9663(2) 0.3460(2)
H4_7 H 0.612007 0.981860 0.358933
C9_7 C 0.6910(10) 0.9228(2) 0.3589(2)
C10_7 C 0.8004(8) 0.8528(2) 0.3627(2)
H9_7 H 0.868430 0.833571 0.353619
C18_7 C 0.7890(11) 0.8938(3) 0.3449(3)
H13_7 H 0.846167 0.902122 0.323692
C19_7 C 0.6258(8) 0.8670(2) 0.4050(2)
H14_7 H 0.568360 0.857644 0.425786
C20_7 C 0.7371(13) 0.9874(2) 0.3153(2)
C23_7 C 0.6080(9) 0.9085(2) 0.3895(3)
H15_7 H 0.540102 0.927237 0.399472
Au1_8 Au 0.24196(2) 0.78156(2) 0.42159(2)
N2_4 N 0.5501(6) 0.77467(19) 0.41920(19)
C1_8 C 0.4382(7) 0.7757(2) 0.4199(2)
C2_8 C 0.0452(7) 0.7862(2) 0.4216(2)
O3_8 O 0.8086(11) 0.0311(2) 0.7086(2)
N9_8 N 0.6719(10) 0.0337(2) 0.6540(2)
H4_8 H 0.612007 0.018140 0.641067
C9_8 C 0.6910(10) 0.0772(2) 0.6411(2)
C10_8 C 0.8004(8) 0.1472(2) 0.6373(2)
H9_8 H 0.868430 0.166429 0.646381
C18_8 C 0.7890(11) 0.1062(3) 0.6551(3)
H13_8 H 0.846167 0.097878 0.676308
C19_8 C 0.6258(8) 0.1330(2) 0.5950(2)
H14_8 H 0.568360 0.142356 0.574214
C20_8 C 0.7371(13) 0.0126(2) 0.6847(2)
C23_8 C 0.6080(9) 0.0915(2) 0.6105(3)
H15_8 H 0.540102 0.072763 0.600528
Au2_8 Au 0.78677(3) 0.64581(2) 0.50913(2)
N1_8 N 0.9332(6) 0.78636(19) 0.42117(18)
N3_8 N 0.7576(6) 0.72601(18) 0.45074(18)
N4_8 N 0.7308(6) 0.81268(18) 0.47314(17)
O1_8 O 0.6278(7) 0.82634(19) 0.62148(17)
O2_8 O 0.6447(8) 0.89679(19) 0.79459(18)
C3_8 C 0.7661(8) 0.6961(2) 0.4719(2)
N7_8 N 0.7147(7) 0.88041(19) 0.58244(18)
H1_8 H 0.744266 0.907786 0.582175
N8_8 N 0.7268(7) 0.8337(2) 0.76668(19)
H2_8 H 0.755201 0.822047 0.744205
C4_8 C 0.8098(8) 0.8469(2) 0.4817(2)
H3_8 H 0.870699 0.856499 0.461875
C5_8 C 0.6976(9) 0.9391(2) 0.6509(2)
H5_8 H 0.701160 0.953300 0.625612
C6_8 C 0.6428(8) 0.8010(2) 0.5014(2)
H6_8 H 0.585067 0.776982 0.495800
C7_8 C 0.6311(7) 0.8214(2) 0.5374(2)
H7_8 H 0.566160 0.812087 0.556164
C8_8 C 0.6580(7) 0.7867(2) 0.8668(2)
H8_8 H 0.600923 0.791780 0.888834
C11_8 C 0.6738(8) 0.8732(2) 0.6903(2)
H10_8 H 0.659388 0.842173 0.691741
C12_8 C 0.7175(8) 0.8567(2) 0.5463(2)
C13_8 C 0.8080(9) 0.8690(3) 0.5175(2)
H11_8 H 0.868269 0.892508 0.522426
C14_8 C 0.6696(8) 0.8640(2) 0.6178(2)
C15_8 C 0.6801(8) 0.8938(2) 0.6532(2)
C16_8 C 0.7282(8) 0.8069(2) 0.8009(2)
C17_8 C 0.8116(8) 0.7703(2) 0.8019(2)
H12_8 H 0.863933 0.762860 0.779348
C21_8 C 0.6845(8) 0.8765(2) 0.7658(2)
C22_8 C 0.7101(11) 0.9640(2) 0.6860(2)
C24_8 C 0.7083(10) 0.9433(2) 0.7232(2)
H16_8 H 0.720514 0.960166 0.746846
C25_8 C 0.6886(8) 0.8976(2) 0.7257(2)
C26_8 C 0.6484(8) 0.8148(2) 0.8341(2)
H17_8 H 0.588289 0.838985 0.834352
C27_8 C 0.8177(7) 0.7444(2) 0.8365(2)
H18_8 H 0.876804 0.719974 0.837161
C28_8 C 0.8106(13) 0.5934(3) 0.5438(4)
N10_8 N 0.8286(16) 0.5629(4) 0.5633(4)
loop_
_geom_bond_atom_site_label_1
_geom_bond_atom_site_label_2
_geom_bond_site_symmetry_1
_geom_bond_site_symmetry_2
Fe2 N2 1_555 1_555
Au1 C1 1_555 1_555
Au2 C3 1_555 1_555
Fe2 N1 1_555 1_555
N1 C2 1_555 1_555
N3 Fe2 1_555 1_555
N4 Fe2 1_555 1_555
O1 C14 1_555 1_555
N5 C10 1_555 1_555
N6 C8 1_555 1_555
O2 C21 1_555 1_555
C2 Au1 1_555 1_555
C3 N3 1_555 1_555
O3 C20 1_555 1_555
N7 H1 1_555 1_555
N8 H2 1_555 1_555
C4 N4 1_555 1_555
H3 C4 1_555 1_555
N9 H4 1_555 1_555
C5 H5 1_555 1_555
C6 N4 1_555 1_555
H6 C6 1_555 1_555
C7 C6 1_555 1_555
H7 C7 1_555 1_555
C8 H8 1_555 1_555
C9 N9 1_555 1_555
C10 H9 1_555 1_555
C11 H10 1_555 1_555
C12 N7 1_555 1_555
C13 C4 1_555 1_555
H11 C13 1_555 1_555
C14 N7 1_555 1_555
C15 C5 1_555 1_555
C16 N8 1_555 1_555
C17 C16 1_555 1_555
H12 C17 1_555 1_555
C18 C9 1_555 1_555
H13 C18 1_555 1_555
C19 N5 1_555 1_555
H14 C19 1_555 1_555
C20 N9 1_555 1_555
C21 N8 1_555 1_555
C22 C5 1_555 1_555
C23 C9 1_555 1_555
H15 C23 1_555 1_555
C24 C22 1_555 1_555
H16 C24 1_555 1_555
C25 C11 1_555 1_555
C26 C8 1_555 1_555
H17 C26 1_555 1_555
C27 N6 1_555 1_555
H18 C27 1_555 1_555
C28 Au2 1_555 1_555
N10 C28 1_555 1_555
Fe3 N5 1_555 1_555
Fe4 N6 1_555 1_555
N12 Fe2 1_555 1_555
N13 Fe2 1_555 1_555
C7 C12 1_555 1_555
C10 C18 1_555 1_555
C11 C15 1_555 1_555
C12 C13 1_555 1_555
C14 C15 1_555 1_555
C16 C26 1_555 1_555
C17 C27 1_555 1_555
C19 C23 1_555 1_555
C20 C22 1_555 1_555
C21 C25 1_555 1_555
C24 C25 1_555 1_555
Fe3 N2_2 1_555 1_555
Au1_2 C1_2 1_555 1_555
Au2_2 C3_2 1_555 1_555
Fe3 N1_2 1_555 1_555
N1_2 C2_2 1_555 1_555
N3_2 Fe3 1_555 1_555
N4_2 Fe3 1_555 1_555
O1_2 C14_2 1_555 1_555
N12 C10_2 1_555 1_555
N6_2 C8_2 1_555 1_555
O2_2 C21_2 1_555 1_555
C2_2 Au1_2 1_555 1_555
C3_2 N3_2 1_555 1_555
O3_2 C20_2 1_555 1_555
N7_2 H1_2 1_555 1_555
N8_2 H2_2 1_555 1_555
C4_2 N4_2 1_555 1_555
H3_2 C4_2 1_555 1_555
N9_2 H4_2 1_555 1_555
C5_2 H5_2 1_555 1_555
C6_2 N4_2 1_555 1_555
H6_2 C6_2 1_555 1_555
C7_2 C6_2 1_555 1_555
H7_2 C7_2 1_555 1_555
C8_2 H8_2 1_555 1_555
C9_2 N9_2 1_555 1_555
C10_2 H9_2 1_555 1_555
C11_2 H10_2 1_555 1_555
C12_2 N7_2 1_555 1_555
C13_2 C4_2 1_555 1_555
H11_2 C13_2 1_555 1_555
C14_2 N7_2 1_555 1_555
C15_2 C5_2 1_555 1_555
C16_2 N8_2 1_555 1_555
C17_2 C16_2 1_555 1_555
H12_2 C17_2 1_555 1_555
C18_2 C9_2 1_555 1_555
H13_2 C18_2 1_555 1_555
C19_2 N12 1_555 1_555
H14_2 C19_2 1_555 1_555
C20_2 N9_2 1_555 1_555
C21_2 N8_2 1_555 1_555
C22_2 C5_2 1_555 1_555
C23_2 C9_2 1_555 1_555
H15_2 C23_2 1_555 1_555
C24_2 C22_2 1_555 1_555
H16_2 C24_2 1_555 1_555
C25_2 C11_2 1_555 1_555
C26_2 C8_2 1_555 1_555
H17_2 C26_2 1_555 1_555
C27_2 N6_2 1_555 1_555
H18_2 C27_2 1_555 1_555
C28_2 Au2_2 1_555 1_555
N10_2 C28_2 1_555 1_555
Fe4_2 N6_2 1_555 1_555
N13_2 Fe3 1_555 1_555
C7_2 C12_2 1_555 1_555
C10_2 C18_2 1_555 1_555
C11_2 C15_2 1_555 1_555
C12_2 C13_2 1_555 1_555
C14_2 C15_2 1_555 1_555
C16_2 C26_2 1_555 1_555
C17_2 C27_2 1_555 1_555
C19_2 C23_2 1_555 1_555
C20_2 C22_2 1_555 1_555
C21_2 C25_2 1_555 1_555
C24_2 C25_2 1_555 1_555
N5_2 C10_3 1_555 1_555
O3_3 C20_3 1_555 1_555
N9_3 H4_3 1_555 1_555
C9_3 N9_3 1_555 1_555
C10_3 H9_3 1_555 1_555
C18_3 C9_3 1_555 1_555
H13_3 C18_3 1_555 1_555
C19_3 N5_2 1_555 1_555
H14_3 C19_3 1_555 1_555
C20_3 N9_3 1_555 1_555
C23_3 C9_3 1_555 1_555
H15_3 C23_3 1_555 1_555
Fe4_2 N5_2 1_555 1_555
C10_3 C18_3 1_555 1_555
C19_3 C23_3 1_555 1_555
Fe4 N1_3 1_555 1_555
N3_3 Fe4 1_555 1_555
N4_3 Fe4 1_555 1_555
C3_3 N3_3 1_555 1_555
C4_3 N4_3 1_555 1_555
H3_3 C4_3 1_555 1_555
N11 Fe4 1_555 1_555
N12_2 Fe4 1_555 1_555
O1_3 C14_3 1_555 1_555
N13 C8_3 1_555 1_555
O2_3 C21_3 1_555 1_555
N7_3 H1_3 1_555 1_555
N8_3 H2_3 1_555 1_555
C5_3 H5_3 1_555 1_555
C7_3 C6_3 1_555 1_555
H7_3 C7_3 1_555 1_555
C8_3 H8_3 1_555 1_555
C11_3 H10_3 1_555 1_555
C12_3 N7_3 1_555 1_555
H11_3 C13_3 1_555 1_555
C14_3 N7_3 1_555 1_555
C15_3 C5_3 1_555 1_555
C16_3 N8_3 1_555 1_555
C17_3 C16_3 1_555 1_555
H12_3 C17_3 1_555 1_555
C21_3 N8_3 1_555 1_555
C22_3 C5_3 1_555 1_555
C24_3 C22_3 1_555 1_555
H16_3 C24_3 1_555 1_555
C25_3 C11_3 1_555 1_555
C26_3 C8_3 1_555 1_555
H17_3 C26_3 1_555 1_555
C27_3 N13 1_555 1_555
H18_3 C27_3 1_555 1_555
C28_3 Au2_3 1_555 1_555
N10_3 C28_3 1_555 1_555
C7_3 C12_3 1_555 1_555
C11_3 C15_3 1_555 1_555
C12_3 C13_3 1_555 1_555
C14_3 C15_3 1_555 1_555
C16_3 C26_3 1_555 1_555
C17_3 C27_3 1_555 1_555
C21_3 C25_3 1_555 1_555
C24_3 C25_3 1_555 1_555
Au1_3 C1_3 1_555 1_555
N11 C1_3 1_555 1_555
C2_3 Au1_3 1_555 1_555
O1_4 C14_4 1_555 1_555
N13_2 C8_4 1_555 1_555
O2_4 C21_4 1_555 1_555
N7_4 H1_4 1_555 1_555
N8_4 H2_4 1_555 1_555
C5_4 H5_4 1_555 1_555
C7_4 C6_4 1_555 1_555
H7_4 C7_4 1_555 1_555
C8_4 H8_4 1_555 1_555
C11_4 H10_4 1_555 1_555
C12_4 N7_4 1_555 1_555
H11_4 C13_4 1_555 1_555
C14_4 N7_4 1_555 1_555
C15_4 C5_4 1_555 1_555
C16_4 N8_4 1_555 1_555
C17_4 C16_4 1_555 1_555
H12_4 C17_4 1_555 1_555
C21_4 N8_4 1_555 1_555
C22_4 C5_4 1_555 1_555
C24_4 C22_4 1_555 1_555
H16_4 C24_4 1_555 1_555
C25_4 C11_4 1_555 1_555
C26_4 C8_4 1_555 1_555
H17_4 C26_4 1_555 1_555
C27_4 N13_2 1_555 1_555
H18_4 C27_4 1_555 1_555
C28_4 Au2_4 1_555 1_555
N10_4 C28_4 1_555 1_555
C7_4 C12_4 1_555 1_555
C11_4 C15_4 1_555 1_555
C12_4 C13_4 1_555 1_555
C14_4 C15_4 1_555 1_555
C16_4 C26_4 1_555 1_555
C17_4 C27_4 1_555 1_555
C21_4 C25_4 1_555 1_555
C24_4 C25_4 1_555 1_555
Fe4_2 N1_4 1_555 1_555
N3_4 Fe4_2 1_555 1_555
N4_4 Fe4_2 1_555 1_555
C3_4 N3_4 1_555 1_555
C4_4 N4_4 1_555 1_555
H3_4 C4_4 1_555 1_555
N11_2 Fe4_2 1_555 1_555
N12_2 C10_4 1_555 1_555
O3_4 C20_4 1_555 1_555
N9_4 H4_4 1_555 1_555
C9_4 N9_4 1_555 1_555
C10_4 H9_4 1_555 1_555
C18_4 C9_4 1_555 1_555
H13_4 C18_4 1_555 1_555
C19_4 N12_2 1_555 1_555
H14_4 C19_4 1_555 1_555
C20_4 N9_4 1_555 1_555
C23_4 C9_4 1_555 1_555
H15_4 C23_4 1_555 1_555
C10_4 C18_4 1_555 1_555
C19_4 C23_4 1_555 1_555
Au1_4 C1_4 1_555 1_555
N11_2 C1_4 1_555 1_555
C2_4 Au1_4 1_555 1_555
Au1_5 C1_5 1_555 1_555
Fe1 N1_5 1_555 1_555
N1_5 C2_5 1_555 1_555
N3_5 Fe1 1_555 1_555
N4_5 Fe1 1_555 1_555
C2_5 Au1_5 1_555 1_555
C3_5 N3_5 1_555 1_555
C4_5 N4_5 1_555 1_555
H3_5 C4_5 1_555 1_555
N11_3 Fe1 1_555 1_555
N12_3 Fe1 1_555 1_555
N13_3 Fe1 1_555 1_555
O1_5 C14_5 1_555 1_555
N5_3 C10_5 1_555 1_555
N6_3 C8_5 1_555 1_555
O2_5 C21_5 1_555 1_555
O3_5 C20_5 1_555 1_555
N7_5 H1_5 1_555 1_555
N8_5 H2_5 1_555 1_555
N9_5 H4_5 1_555 1_555
C5_5 H5_5 1_555 1_555
C7_5 C6_5 1_555 1_555
H7_5 C7_5 1_555 1_555
C8_5 H8_5 1_555 1_555
C9_5 N9_5 1_555 1_555
C10_5 H9_5 1_555 1_555
C11_5 H10_5 1_555 1_555
C12_5 N7_5 1_555 1_555
H11_5 C13_5 1_555 1_555
C14_5 N7_5 1_555 1_555
C15_5 C5_5 1_555 1_555
C16_5 N8_5 1_555 1_555
C17_5 C16_5 1_555 1_555
H12_5 C17_5 1_555 1_555
C18_5 C9_5 1_555 1_555
H13_5 C18_5 1_555 1_555
C19_5 N5_3 1_555 1_555
H14_5 C19_5 1_555 1_555
C20_5 N9_5 1_555 1_555
C21_5 N8_5 1_555 1_555
C22_5 C5_5 1_555 1_555
C23_5 C9_5 1_555 1_555
H15_5 C23_5 1_555 1_555
C24_5 C22_5 1_555 1_555
H16_5 C24_5 1_555 1_555
C25_5 C11_5 1_555 1_555
C26_5 C8_5 1_555 1_555
H17_5 C26_5 1_555 1_555
C27_5 N6_3 1_555 1_555
H18_5 C27_5 1_555 1_555
C28_5 Au2_5 1_555 1_555
N10_5 C28_5 1_555 1_555
Fe3_2 N5_3 1_555 1_555
Fe4_3 N6_3 1_555 1_555
C7_5 C12_5 1_555 1_555
C10_5 C18_5 1_555 1_555
C11_5 C15_5 1_555 1_555
C12_5 C13_5 1_555 1_555
C14_5 C15_5 1_555 1_555
C16_5 C26_5 1_555 1_555
C17_5 C27_5 1_555 1_555
C19_5 C23_5 1_555 1_555
C20_5 C22_5 1_555 1_555
C21_5 C25_5 1_555 1_555
C24_5 C25_5 1_555 1_555
O1_6 C14_6 1_555 1_555
N12_3 C10_6 1_555 1_555
N6_4 C8_6 1_555 1_555
O2_6 C21_6 1_555 1_555
O3_6 C20_6 1_555 1_555
N7_6 H1_6 1_555 1_555
N8_6 H2_6 1_555 1_555
N9_6 H4_6 1_555 1_555
C5_6 H5_6 1_555 1_555
C7_6 C6_6 1_555 1_555
H7_6 C7_6 1_555 1_555
C8_6 H8_6 1_555 1_555
C9_6 N9_6 1_555 1_555
C10_6 H9_6 1_555 1_555
C11_6 H10_6 1_555 1_555
C12_6 N7_6 1_555 1_555
H11_6 C13_6 1_555 1_555
C14_6 N7_6 1_555 1_555
C15_6 C5_6 1_555 1_555
C16_6 N8_6 1_555 1_555
C17_6 C16_6 1_555 1_555
H12_6 C17_6 1_555 1_555
C18_6 C9_6 1_555 1_555
H13_6 C18_6 1_555 1_555
C19_6 N12_3 1_555 1_555
H14_6 C19_6 1_555 1_555
C20_6 N9_6 1_555 1_555
C21_6 N8_6 1_555 1_555
C22_6 C5_6 1_555 1_555
C23_6 C9_6 1_555 1_555
H15_6 C23_6 1_555 1_555
C24_6 C22_6 1_555 1_555
H16_6 C24_6 1_555 1_555
C25_6 C11_6 1_555 1_555
C26_6 C8_6 1_555 1_555
H17_6 C26_6 1_555 1_555
C27_6 N6_4 1_555 1_555
H18_6 C27_6 1_555 1_555
C28_6 Au2_6 1_555 1_555
N10_6 C28_6 1_555 1_555
Fe4_4 N6_4 1_555 1_555
C7_6 C12_6 1_555 1_555
C10_6 C18_6 1_555 1_555
C11_6 C15_6 1_555 1_555
C12_6 C13_6 1_555 1_555
C14_6 C15_6 1_555 1_555
C16_6 C26_6 1_555 1_555
C17_6 C27_6 1_555 1_555
C19_6 C23_6 1_555 1_555
C20_6 C22_6 1_555 1_555
C21_6 C25_6 1_555 1_555
C24_6 C25_6 1_555 1_555
Au1_6 C1_6 1_555 1_555
Fe3_2 N1_6 1_555 1_555
N1_6 C2_6 1_555 1_555
N3_6 Fe3_2 1_555 1_555
N4_6 Fe3_2 1_555 1_555
C2_6 Au1_6 1_555 1_555
C3_6 N3_6 1_555 1_555
C4_6 N4_6 1_555 1_555
H3_6 C4_6 1_555 1_555
N11_4 Fe3_2 1_555 1_555
N13_4 Fe3_2 1_555 1_555
Au1_7 C1_7 1_555 1_555
N2_3 C1_7 1_555 1_555
C2_7 Au1_7 1_555 1_555
Fe4_3 N2_3 1_555 1_555
Au2_7 C3_7 1_555 1_555
Fe4_3 N1_7 1_555 1_555
N3_7 Fe4_3 1_555 1_555
N4_7 Fe4_3 1_555 1_555
O1_7 C14_7 1_555 1_555
N13_3 C8_7 1_555 1_555
O2_7 C21_7 1_555 1_555
C3_7 N3_7 1_555 1_555
N7_7 H1_7 1_555 1_555
N8_7 H2_7 1_555 1_555
C4_7 N4_7 1_555 1_555
H3_7 C4_7 1_555 1_555
C5_7 H5_7 1_555 1_555
C6_7 N4_7 1_555 1_555
H6_7 C6_7 1_555 1_555
C7_7 C6_7 1_555 1_555
H7_7 C7_7 1_555 1_555
C8_7 H8_7 1_555 1_555
C11_7 H10_7 1_555 1_555
C12_7 N7_7 1_555 1_555
C13_7 C4_7 1_555 1_555
H11_7 C13_7 1_555 1_555
C14_7 N7_7 1_555 1_555
C15_7 C5_7 1_555 1_555
C16_7 N8_7 1_555 1_555
C17_7 C16_7 1_555 1_555
H12_7 C17_7 1_555 1_555
C21_7 N8_7 1_555 1_555
C22_7 C5_7 1_555 1_555
C24_7 C22_7 1_555 1_555
H16_7 C24_7 1_555 1_555
C25_7 C11_7 1_555 1_555
C26_7 C8_7 1_555 1_555
H17_7 C26_7 1_555 1_555
C27_7 N13_3 1_555 1_555
H18_7 C27_7 1_555 1_555
C28_7 Au2_7 1_555 1_555
N10_7 C28_7 1_555 1_555
N12_4 Fe4_3 1_555 1_555
C7_7 C12_7 1_555 1_555
C11_7 C15_7 1_555 1_555
C12_7 C13_7 1_555 1_555
C14_7 C15_7 1_555 1_555
C16_7 C26_7 1_555 1_555
C17_7 C27_7 1_555 1_555
C21_7 C25_7 1_555 1_555
C24_7 C25_7 1_555 1_555
N5_4 C10_7 1_555 1_555
O3_7 C20_7 1_555 1_555
N9_7 H4_7 1_555 1_555
C9_7 N9_7 1_555 1_555
C10_7 H9_7 1_555 1_555
C18_7 C9_7 1_555 1_555
H13_7 C18_7 1_555 1_555
C19_7 N5_4 1_555 1_555
H14_7 C19_7 1_555 1_555
C20_7 N9_7 1_555 1_555
C23_7 C9_7 1_555 1_555
H15_7 C23_7 1_555 1_555
Fe4_4 N5_4 1_555 1_555
C10_7 C18_7 1_555 1_555
C19_7 C23_7 1_555 1_555
Au1_8 C1_8 1_555 1_555
N2_4 C1_8 1_555 1_555
C2_8 Au1_8 1_555 1_555
Fe4_4 N2_4 1_555 1_555
N12_4 C10_8 1_555 1_555
O3_8 C20_8 1_555 1_555
N9_8 H4_8 1_555 1_555
C9_8 N9_8 1_555 1_555
C10_8 H9_8 1_555 1_555
C18_8 C9_8 1_555 1_555
H13_8 C18_8 1_555 1_555
C19_8 N12_4 1_555 1_555
H14_8 C19_8 1_555 1_555
C20_8 N9_8 1_555 1_555
C23_8 C9_8 1_555 1_555
H15_8 C23_8 1_555 1_555
C10_8 C18_8 1_555 1_555
C19_8 C23_8 1_555 1_555
Au2_8 C3_8 1_555 1_555
Fe4_4 N1_8 1_555 1_555
N3_8 Fe4_4 1_555 1_555
N4_8 Fe4_4 1_555 1_555
O1_8 C14_8 1_555 1_555
N13_4 C8_8 1_555 1_555
O2_8 C21_8 1_555 1_555
C3_8 N3_8 1_555 1_555
N7_8 H1_8 1_555 1_555
N8_8 H2_8 1_555 1_555
C4_8 N4_8 1_555 1_555
H3_8 C4_8 1_555 1_555
C5_8 H5_8 1_555 1_555
C6_8 N4_8 1_555 1_555
H6_8 C6_8 1_555 1_555
C7_8 C6_8 1_555 1_555
H7_8 C7_8 1_555 1_555
C8_8 H8_8 1_555 1_555
C11_8 H10_8 1_555 1_555
C12_8 N7_8 1_555 1_555
C13_8 C4_8 1_555 1_555
H11_8 C13_8 1_555 1_555
C14_8 N7_8 1_555 1_555
C15_8 C5_8 1_555 1_555
C16_8 N8_8 1_555 1_555
C17_8 C16_8 1_555 1_555
H12_8 C17_8 1_555 1_555
C21_8 N8_8 1_555 1_555
C22_8 C5_8 1_555 1_555
C24_8 C22_8 1_555 1_555
H16_8 C24_8 1_555 1_555
C25_8 C11_8 1_555 1_555
C26_8 C8_8 1_555 1_555
H17_8 C26_8 1_555 1_555
C27_8 N13_4 1_555 1_555
H18_8 C27_8 1_555 1_555
C28_8 Au2_8 1_555 1_555
N10_8 C28_8 1_555 1_555
C7_8 C12_8 1_555 1_555
C11_8 C15_8 1_555 1_555
C12_8 C13_8 1_555 1_555
C14_8 C15_8 1_555 1_555
C16_8 C26_8 1_555 1_555
C17_8 C27_8 1_555 1_555
C21_8 C25_8 1_555 1_555
C24_8 C25_8 1_555 1_555

#END
