
###############################################################################
#
# This file contains modified crystal structure data generated from the
# MOF subset of the Cambridge Structural Database (CSD) v543 
# hosted by the Cambridge Crystallographic Data Centre (CCDC).
#
# This work is licensed under the Creative Commons
# Attribution-NonCommercial-ShareAlike 4.0 International License.
# To view a copy of this license, visit
# http://creativecommons.org/licenses/by-nc-sa/4.0/
# or send a letter to
# Creative Commons, PO Box 1866, Mountain View, CA 94042, USA.
#
# CIF created using the CSD Python API on 29 September 2022
# The structure has been converted into the P1 space group
# The structure has a 3D framework
# The original CSD entry WAMCAS09 is in the orthorhombic crystal system
# The original CSD entry WAMCAS09 is in a Sohncke space group
# The framework has been calculated to contain at least 10.0% void space
# The void calculation uses a probe of radius 1.32A, grid spacing 0.4
#
###############################################################################

data_WAMCAS09
_chemical_formula_moiety         '(C224 H144 Au16 Fe8 N76 O24)n'
_symmetry_cell_setting           triclinic
_symmetry_space_group_name_H-M   'P 1'
_symmetry_Int_Tables_number      1
_space_group_name_Hall           'P 1'
loop_
_symmetry_equiv_pos_site_id
_symmetry_equiv_pos_as_xyz
1 x,y,z
_cell_length_a                   10.286(2)
_cell_length_b                   30.443(6)
_cell_length_c                   33.846(7)
_cell_angle_alpha                90
_cell_angle_beta                 90
_cell_angle_gamma                90
_cell_volume                     10598.4
loop_
_atom_site_label
_atom_site_type_symbol
_atom_site_fract_x
_atom_site_fract_y
_atom_site_fract_z
N2 N 0.0423(13) 0.7264(4) 0.5803(4)
Fe2 Fe 0.23996(17) 0.72037(5) 0.57923(4)
Au1 Au 0.73977(5) 0.71917(2) 0.57809(2)
Au2 Au 0.28539(10) 0.85556(2) 0.48890(2)
N1 N 0.4358(13) 0.7146(4) 0.5780(3)
N3 N 0.2539(12) 0.7776(4) 0.5481(3)
N4 N 0.2293(13) 0.6868(3) 0.5245(3)
O1 O 0.1214(15) 0.6730(4) 0.3784(3)
N5 N 0.2155(14) 0.3391(4) 0.3912(3)
N6 N 0.2452(14) 0.7446(4) 0.1337(3)
C1 C 0.9307(16) 0.7237(5) 0.5797(4)
O2 O 0.149(2) 0.6013(4) 0.2070(3)
C2 C 0.5461(18) 0.7142(5) 0.5781(4)
C3 C 0.2671(19) 0.8076(5) 0.5262(4)
O3 O 0.303(3) 0.4695(5) 0.2929(4)
N7 N 0.2136(15) 0.6196(3) 0.4156(3)
H1 H 0.246923 0.593370 0.415527
N8 N 0.2236(18) 0.6652(5) 0.2332(3)
H2 H 0.248389 0.677644 0.255115
C4 C 0.304(2) 0.6526(5) 0.5159(4)
H3 H 0.360554 0.642060 0.535535
N9 N 0.171(2) 0.4668(4) 0.3472(4)
H4 H 0.113544 0.482643 0.359779
C5 C 0.194(2) 0.5603(4) 0.3494(4)
H5 H 0.195841 0.546493 0.374197
C6 C 0.1432(17) 0.6977(5) 0.4973(3)
H6 H 0.087772 0.721508 0.502840
C7 C 0.1289(14) 0.6769(4) 0.4616(4)
H7 H 0.062057 0.684793 0.444049
C8 C 0.1560(15) 0.7116(5) 0.1353(4)
H8 H 0.098906 0.707554 0.113903
C9 C 0.183(3) 0.4224(5) 0.3596(5)
C10 C 0.297(2) 0.3554(5) 0.3620(5)
H9 H 0.368385 0.338157 0.353994
C11 C 0.1693(18) 0.6263(5) 0.3100(4)
H10 H 0.153042 0.656568 0.307701
C12 C 0.2173(16) 0.6432(4) 0.4521(3)
C13 C 0.303(2) 0.6325(6) 0.4814(5)
H11 H 0.363366 0.609981 0.476788
C14 C 0.1636(17) 0.6342(4) 0.3819(4)
C15 C 0.176(2) 0.6062(4) 0.3461(4)
C16 C 0.228(2) 0.6906(5) 0.2005(4)
C17 C 0.312(2) 0.7272(6) 0.1986(5)
H12 H 0.366949 0.734042 0.220029
C18 C 0.279(2) 0.3953(6) 0.3444(5)
H13 H 0.329643 0.404040 0.322720
C19 C 0.123(2) 0.3687(5) 0.4038(5)
H14 H 0.066284 0.360234 0.424268
C20 C 0.242(3) 0.4886(5) 0.3162(5)
C21 C 0.1834(18) 0.6208(5) 0.2361(4)
C22 C 0.208(2) 0.5361(5) 0.3144(5)
C23 C 0.109(2) 0.4088(5) 0.3885(5)
H15 H 0.045082 0.427685 0.398667
C24 C 0.203(3) 0.5567(5) 0.2783(4)
H16 H 0.210943 0.540211 0.254945
C25 C 0.188(2) 0.5999(6) 0.2763(5)
C26 C 0.1471(17) 0.6839(5) 0.1675(4)
H17 H 0.087143 0.660537 0.167377
C27 C 0.313(2) 0.7522(6) 0.1654(5)
H18 H 0.367037 0.777119 0.165284
C28 C 0.313(4) 0.9078(8) 0.4550(8)
N10 N 0.311(5) 0.9368(11) 0.4352(12)
Fe3 Fe 0.23996(17) 0.27963(5) 0.42077(4)
Fe4 Fe 0.26004(17) 0.77963(5) 0.07923(4)
N12 N 0.2155(14) 0.6609(4) 0.6088(3)
N13 N 0.2548(14) 0.7554(4) 0.6337(3)
N2_2 N 0.0423(13) 0.2736(4) 0.4197(4)
Au1_2 Au 0.73977(5) 0.28083(2) 0.42191(2)
Au2_2 Au 0.28539(10) 0.14444(2) 0.51110(2)
N1_2 N 0.4358(13) 0.2854(4) 0.4220(3)
N3_2 N 0.2539(12) 0.2224(4) 0.4519(3)
N4_2 N 0.2293(13) 0.3132(3) 0.4755(3)
O1_2 O 0.1214(15) 0.3270(4) 0.6216(3)
N6_2 N 0.2452(14) 0.2554(4) 0.8663(3)
C1_2 C 0.9307(16) 0.2763(5) 0.4203(4)
O2_2 O 0.149(2) 0.3987(4) 0.7930(3)
C2_2 C 0.5461(18) 0.2858(5) 0.4219(4)
C3_2 C 0.2671(19) 0.1924(5) 0.4738(4)
O3_2 O 0.303(3) 0.5305(5) 0.7071(4)
N7_2 N 0.2136(15) 0.3804(3) 0.5844(3)
H1_2 H 0.246923 0.406630 0.584473
N8_2 N 0.2236(18) 0.3348(5) 0.7668(3)
H2_2 H 0.248389 0.322356 0.744885
C4_2 C 0.304(2) 0.3474(5) 0.4841(4)
H3_2 H 0.360554 0.357940 0.464465
N9_2 N 0.171(2) 0.5332(4) 0.6528(4)
H4_2 H 0.113544 0.517357 0.640221
C5_2 C 0.194(2) 0.4397(4) 0.6506(4)
H5_2 H 0.195841 0.453507 0.625803
C6_2 C 0.1432(17) 0.3023(5) 0.5027(3)
H6_2 H 0.087772 0.278492 0.497160
C7_2 C 0.1289(14) 0.3231(4) 0.5384(4)
H7_2 H 0.062057 0.315207 0.555951
C8_2 C 0.1560(15) 0.2884(5) 0.8647(4)
H8_2 H 0.098906 0.292446 0.886097
C9_2 C 0.183(3) 0.5776(5) 0.6404(5)
C10_2 C 0.297(2) 0.6446(5) 0.6380(5)
H9_2 H 0.368385 0.661843 0.646006
C11_2 C 0.1693(18) 0.3737(5) 0.6900(4)
H10_2 H 0.153042 0.343432 0.692299
C12_2 C 0.2173(16) 0.3568(4) 0.5479(3)
C13_2 C 0.303(2) 0.3675(6) 0.5186(5)
H11_2 H 0.363366 0.390019 0.523212
C14_2 C 0.1636(17) 0.3658(4) 0.6181(4)
C15_2 C 0.176(2) 0.3938(4) 0.6539(4)
C16_2 C 0.228(2) 0.3094(5) 0.7995(4)
C17_2 C 0.312(2) 0.2728(6) 0.8014(5)
H12_2 H 0.366949 0.265958 0.779971
C18_2 C 0.279(2) 0.6047(6) 0.6556(5)
H13_2 H 0.329643 0.595960 0.677280
C19_2 C 0.123(2) 0.6313(5) 0.5962(5)
H14_2 H 0.066284 0.639766 0.575732
C20_2 C 0.242(3) 0.5114(5) 0.6838(5)
C21_2 C 0.1834(18) 0.3792(5) 0.7639(4)
C22_2 C 0.208(2) 0.4639(5) 0.6856(5)
C23_2 C 0.109(2) 0.5912(5) 0.6115(5)
H15_2 H 0.045082 0.572315 0.601333
C24_2 C 0.203(3) 0.4433(5) 0.7217(4)
H16_2 H 0.210943 0.459789 0.745055
C25_2 C 0.188(2) 0.4001(6) 0.7237(5)
C26_2 C 0.1471(17) 0.3161(5) 0.8325(4)
H17_2 H 0.087143 0.339463 0.832623
C27_2 C 0.313(2) 0.2478(6) 0.8346(5)
H18_2 H 0.367037 0.222881 0.834716
C28_2 C 0.313(4) 0.0922(8) 0.5450(8)
N10_2 N 0.311(5) 0.0632(11) 0.5648(12)
Fe4_2 Fe 0.26004(17) 0.22037(5) 0.92077(4)
N13_2 N 0.2548(14) 0.2446(4) 0.3663(3)
N5_2 N 0.2845(14) 0.1609(4) 0.8912(3)
O3_3 O 0.197(3) 0.0305(5) 0.7929(4)
N9_3 N 0.329(2) 0.0332(4) 0.8472(4)
H4_3 H 0.386456 0.017357 0.859779
C9_3 C 0.317(3) 0.0776(5) 0.8596(5)
C10_3 C 0.203(2) 0.1446(5) 0.8620(5)
H9_3 H 0.131615 0.161843 0.853994
C18_3 C 0.221(2) 0.1047(6) 0.8444(5)
H13_3 H 0.170357 0.095960 0.822720
C19_3 C 0.377(2) 0.1313(5) 0.9038(5)
H14_3 H 0.433716 0.139766 0.924268
C20_3 C 0.258(3) 0.0114(5) 0.8162(5)
C23_3 C 0.391(2) 0.0912(5) 0.8885(5)
H15_3 H 0.454918 0.072315 0.898667
N1_3 N 0.0642(13) 0.7854(4) 0.0780(3)
N3_3 N 0.2461(12) 0.7224(4) 0.0481(3)
N4_3 N 0.2707(13) 0.8132(3) 0.0245(3)
C3_3 C 0.2329(19) 0.6924(5) 0.0262(4)
C4_3 C 0.196(2) 0.8474(5) 0.0159(4)
H3_3 H 0.139446 0.857940 0.035535
H6_3 H 0.412228 0.778492 0.002840
N11 N 0.4577(13) 0.7736(4) 0.0803(4)
N12_2 N 0.2845(14) 0.8391(4) 0.1088(3)
Au2_3 Au 0.21461(10) 0.64444(2) 0.98890(2)
O1_3 O 0.3786(15) 0.8270(4) 0.8784(3)
O2_3 O 0.351(2) 0.8987(4) 0.7070(3)
N7_3 N 0.2864(15) 0.8804(3) 0.9156(3)
H1_3 H 0.253077 0.906630 0.915527
N8_3 N 0.2764(18) 0.8348(5) 0.7332(3)
H2_3 H 0.251611 0.822356 0.755115
C5_3 C 0.306(2) 0.9397(4) 0.8494(4)
H5_3 H 0.304159 0.953507 0.874197
C6_3 C 0.3568(17) 0.8023(5) 0.9973(3)
C7_3 C 0.3711(14) 0.8231(4) 0.9616(4)
H7_3 H 0.437943 0.815207 0.944049
C8_3 C 0.3440(15) 0.7884(5) 0.6353(4)
H8_3 H 0.401094 0.792446 0.613903
C11_3 C 0.3307(18) 0.8737(5) 0.8100(4)
H10_3 H 0.346958 0.843432 0.807701
C12_3 C 0.2827(16) 0.8568(4) 0.9521(3)
C13_3 C 0.197(2) 0.8675(6) 0.9814(5)
H11_3 H 0.136634 0.890019 0.976788
C14_3 C 0.3364(17) 0.8658(4) 0.8819(4)
C15_3 C 0.324(2) 0.8938(4) 0.8461(4)
C16_3 C 0.272(2) 0.8094(5) 0.7005(4)
C17_3 C 0.188(2) 0.7728(6) 0.6986(5)
H12_3 H 0.133051 0.765958 0.720029
C21_3 C 0.3166(18) 0.8792(5) 0.7361(4)
C22_3 C 0.292(2) 0.9639(5) 0.8144(5)
C24_3 C 0.297(3) 0.9433(5) 0.7783(4)
H16_3 H 0.289057 0.959789 0.754945
C25_3 C 0.312(2) 0.9001(6) 0.7763(5)
C26_3 C 0.3529(17) 0.8161(5) 0.6675(4)
H17_3 H 0.412857 0.839463 0.667377
C27_3 C 0.187(2) 0.7478(6) 0.6654(5)
H18_3 H 0.132963 0.722881 0.665284
C28_3 C 0.187(4) 0.5922(8) 0.9550(8)
N10_3 N 0.189(5) 0.5632(11) 0.9352(12)
Au1_3 Au 0.76023(5) 0.78083(2) 0.07809(2)
C1_3 C 0.5693(16) 0.7763(5) 0.0797(4)
C2_3 C 0.9539(18) 0.7858(5) 0.0781(4)
Au2_4 Au 0.21461(10) 0.35556(2) 0.01110(2)
O1_4 O 0.3786(15) 0.1730(4) 0.1216(3)
O2_4 O 0.351(2) 0.1013(4) 0.2930(3)
N7_4 N 0.2864(15) 0.1196(3) 0.0844(3)
H1_4 H 0.253077 0.093370 0.084473
N8_4 N 0.2764(18) 0.1652(5) 0.2668(3)
H2_4 H 0.251611 0.177644 0.244885
C5_4 C 0.306(2) 0.0603(4) 0.1506(4)
H5_4 H 0.304159 0.046493 0.125803
C6_4 C 0.3568(17) 0.1977(5) 0.0027(3)
C7_4 C 0.3711(14) 0.1769(4) 0.0384(4)
H7_4 H 0.437943 0.184793 0.055951
C8_4 C 0.3440(15) 0.2116(5) 0.3647(4)
H8_4 H 0.401094 0.207554 0.386097
C11_4 C 0.3307(18) 0.1263(5) 0.1900(4)
H10_4 H 0.346958 0.156568 0.192299
C12_4 C 0.2827(16) 0.1432(4) 0.0479(3)
C13_4 C 0.197(2) 0.1325(6) 0.0186(5)
H11_4 H 0.136634 0.109981 0.023212
C14_4 C 0.3364(17) 0.1342(4) 0.1181(4)
C15_4 C 0.324(2) 0.1062(4) 0.1539(4)
C16_4 C 0.272(2) 0.1906(5) 0.2995(4)
C17_4 C 0.188(2) 0.2272(6) 0.3014(5)
H12_4 H 0.133051 0.234042 0.279971
C21_4 C 0.3166(18) 0.1208(5) 0.2639(4)
C22_4 C 0.292(2) 0.0361(5) 0.1856(5)
C24_4 C 0.297(3) 0.0567(5) 0.2217(4)
H16_4 H 0.289057 0.040211 0.245055
C25_4 C 0.312(2) 0.0999(6) 0.2237(5)
C26_4 C 0.3529(17) 0.1839(5) 0.3325(4)
H17_4 H 0.412857 0.160537 0.332623
C27_4 C 0.187(2) 0.2522(6) 0.3346(5)
H18_4 H 0.132963 0.277119 0.334716
C28_4 C 0.187(4) 0.4078(8) 0.0450(8)
N10_4 N 0.189(5) 0.4368(11) 0.0648(12)
N1_4 N 0.0642(13) 0.2146(4) 0.9220(3)
N3_4 N 0.2461(12) 0.2776(4) 0.9519(3)
N4_4 N 0.2707(13) 0.1868(3) 0.9755(3)
C3_4 C 0.2329(19) 0.3076(5) 0.9738(4)
C4_4 C 0.196(2) 0.1526(5) 0.9841(4)
H3_4 H 0.139446 0.142060 0.964465
H6_4 H 0.412228 0.221508 0.997160
N11_2 N 0.4577(13) 0.2264(4) 0.9197(4)
O3_4 O 0.197(3) 0.9695(5) 0.2071(4)
N9_4 N 0.329(2) 0.9668(4) 0.1528(4)
H4_4 H 0.386456 0.982643 0.140221
C9_4 C 0.317(3) 0.9224(5) 0.1404(5)
C10_4 C 0.203(2) 0.8554(5) 0.1380(5)
H9_4 H 0.131615 0.838157 0.146006
C18_4 C 0.221(2) 0.8953(6) 0.1556(5)
H13_4 H 0.170357 0.904040 0.177280
C19_4 C 0.377(2) 0.8687(5) 0.0962(5)
H14_4 H 0.433716 0.860234 0.075732
C20_4 C 0.258(3) 0.9886(5) 0.1838(5)
C23_4 C 0.391(2) 0.9088(5) 0.1115(5)
H15_4 H 0.454918 0.927685 0.101333
Au1_4 Au 0.76023(5) 0.21917(2) 0.92191(2)
C1_4 C 0.5693(16) 0.2237(5) 0.9203(4)
C2_4 C 0.9539(18) 0.2142(5) 0.9219(4)
Au1_5 Au 0.26023(5) 0.28083(2) 0.07809(2)
Fe1 Fe 0.76004(17) 0.27963(5) 0.07923(4)
N1_5 N 0.5642(13) 0.2854(4) 0.0780(3)
N3_5 N 0.7461(12) 0.2224(4) 0.0481(3)
N4_5 N 0.7707(13) 0.3132(3) 0.0245(3)
C1_5 C 0.0693(16) 0.2763(5) 0.0797(4)
C2_5 C 0.4539(18) 0.2858(5) 0.0781(4)
C3_5 C 0.7329(19) 0.1924(5) 0.0262(4)
C4_5 C 0.696(2) 0.3474(5) 0.0159(4)
H3_5 H 0.639446 0.357940 0.035535
H6_5 H 0.912228 0.278492 0.002840
N11_3 N 0.9577(13) 0.2736(4) 0.0803(4)
N12_3 N 0.7845(14) 0.3391(4) 0.1088(3)
N13_3 N 0.7452(14) 0.2446(4) 0.1337(3)
Au2_5 Au 0.71461(10) 0.14444(2) 0.98890(2)
O1_5 O 0.8786(15) 0.3270(4) 0.8784(3)
N5_3 N 0.7845(14) 0.6609(4) 0.8912(3)
N6_3 N 0.7548(14) 0.2554(4) 0.6337(3)
O2_5 O 0.851(2) 0.3987(4) 0.7070(3)
O3_5 O 0.697(3) 0.5305(5) 0.7929(4)
N7_5 N 0.7864(15) 0.3804(3) 0.9156(3)
H1_5 H 0.753077 0.406630 0.915527
N8_5 N 0.7764(18) 0.3348(5) 0.7332(3)
H2_5 H 0.751611 0.322356 0.755115
N9_5 N 0.829(2) 0.5332(4) 0.8472(4)
H4_5 H 0.886456 0.517357 0.859779
C5_5 C 0.806(2) 0.4397(4) 0.8494(4)
H5_5 H 0.804159 0.453507 0.874197
C6_5 C 0.8568(17) 0.3023(5) 0.9973(3)
C7_5 C 0.8711(14) 0.3231(4) 0.9616(4)
H7_5 H 0.937943 0.315207 0.944049
C8_5 C 0.8440(15) 0.2884(5) 0.6353(4)
H8_5 H 0.901094 0.292446 0.613903
C9_5 C 0.817(3) 0.5776(5) 0.8596(5)
C10_5 C 0.703(2) 0.6446(5) 0.8620(5)
H9_5 H 0.631615 0.661843 0.853994
C11_5 C 0.8307(18) 0.3737(5) 0.8100(4)
H10_5 H 0.846958 0.343432 0.807701
C12_5 C 0.7827(16) 0.3568(4) 0.9521(3)
C13_5 C 0.697(2) 0.3675(6) 0.9814(5)
H11_5 H 0.636634 0.390019 0.976788
C14_5 C 0.8364(17) 0.3658(4) 0.8819(4)
C15_5 C 0.824(2) 0.3938(4) 0.8461(4)
C16_5 C 0.772(2) 0.3094(5) 0.7005(4)
C17_5 C 0.688(2) 0.2728(6) 0.6986(5)
H12_5 H 0.633051 0.265958 0.720029
C18_5 C 0.721(2) 0.6047(6) 0.8444(5)
H13_5 H 0.670357 0.595960 0.822720
C19_5 C 0.877(2) 0.6313(5) 0.9038(5)
H14_5 H 0.933716 0.639766 0.924268
C20_5 C 0.758(3) 0.5114(5) 0.8162(5)
C21_5 C 0.8166(18) 0.3792(5) 0.7361(4)
C22_5 C 0.792(2) 0.4639(5) 0.8144(5)
C23_5 C 0.891(2) 0.5912(5) 0.8885(5)
H15_5 H 0.954918 0.572315 0.898667
C24_5 C 0.797(3) 0.4433(5) 0.7783(4)
H16_5 H 0.789057 0.459789 0.754945
C25_5 C 0.812(2) 0.4001(6) 0.7763(5)
C26_5 C 0.8529(17) 0.3161(5) 0.6675(4)
H17_5 H 0.912857 0.339463 0.667377
C27_5 C 0.687(2) 0.2478(6) 0.6654(5)
H18_5 H 0.632963 0.222881 0.665284
C28_5 C 0.687(4) 0.0922(8) 0.9550(8)
N10_5 N 0.689(5) 0.0632(11) 0.9352(12)
Fe3_2 Fe 0.76004(17) 0.72037(5) 0.92077(4)
Fe4_3 Fe 0.73996(17) 0.22037(5) 0.57923(4)
Au2_6 Au 0.71461(10) 0.85556(2) 0.01110(2)
O1_6 O 0.8786(15) 0.6730(4) 0.1216(3)
N6_4 N 0.7548(14) 0.7446(4) 0.3663(3)
O2_6 O 0.851(2) 0.6013(4) 0.2930(3)
O3_6 O 0.697(3) 0.4695(5) 0.2071(4)
N7_6 N 0.7864(15) 0.6196(3) 0.0844(3)
H1_6 H 0.753077 0.593370 0.084473
N8_6 N 0.7764(18) 0.6652(5) 0.2668(3)
H2_6 H 0.751611 0.677644 0.244885
N9_6 N 0.829(2) 0.4668(4) 0.1528(4)
H4_6 H 0.886456 0.482643 0.140221
C5_6 C 0.806(2) 0.5603(4) 0.1506(4)
H5_6 H 0.804159 0.546493 0.125803
C6_6 C 0.8568(17) 0.6977(5) 0.0027(3)
C7_6 C 0.8711(14) 0.6769(4) 0.0384(4)
H7_6 H 0.937943 0.684793 0.055951
C8_6 C 0.8440(15) 0.7116(5) 0.3647(4)
H8_6 H 0.901094 0.707554 0.386097
C9_6 C 0.817(3) 0.4224(5) 0.1404(5)
C10_6 C 0.703(2) 0.3554(5) 0.1380(5)
H9_6 H 0.631615 0.338157 0.146006
C11_6 C 0.8307(18) 0.6263(5) 0.1900(4)
H10_6 H 0.846958 0.656568 0.192299
C12_6 C 0.7827(16) 0.6432(4) 0.0479(3)
C13_6 C 0.697(2) 0.6325(6) 0.0186(5)
H11_6 H 0.636634 0.609981 0.023212
C14_6 C 0.8364(17) 0.6342(4) 0.1181(4)
C15_6 C 0.824(2) 0.6062(4) 0.1539(4)
C16_6 C 0.772(2) 0.6906(5) 0.2995(4)
C17_6 C 0.688(2) 0.7272(6) 0.3014(5)
H12_6 H 0.633051 0.734042 0.279971
C18_6 C 0.721(2) 0.3953(6) 0.1556(5)
H13_6 H 0.670357 0.404040 0.177280
C19_6 C 0.877(2) 0.3687(5) 0.0962(5)
H14_6 H 0.933716 0.360234 0.075732
C20_6 C 0.758(3) 0.4886(5) 0.1838(5)
C21_6 C 0.8166(18) 0.6208(5) 0.2639(4)
C22_6 C 0.792(2) 0.5361(5) 0.1856(5)
C23_6 C 0.891(2) 0.4088(5) 0.1115(5)
H15_6 H 0.954918 0.427685 0.101333
C24_6 C 0.797(3) 0.5567(5) 0.2217(4)
H16_6 H 0.789057 0.540211 0.245055
C25_6 C 0.812(2) 0.5999(6) 0.2237(5)
C26_6 C 0.8529(17) 0.6839(5) 0.3325(4)
H17_6 H 0.912857 0.660537 0.332623
C27_6 C 0.687(2) 0.7522(6) 0.3346(5)
H18_6 H 0.632963 0.777119 0.334716
C28_6 C 0.687(4) 0.9078(8) 0.0450(8)
N10_6 N 0.689(5) 0.9368(11) 0.0648(12)
Fe4_4 Fe 0.73996(17) 0.77963(5) 0.42077(4)
Au1_6 Au 0.26023(5) 0.71917(2) 0.92191(2)
N1_6 N 0.5642(13) 0.7146(4) 0.9220(3)
N3_6 N 0.7461(12) 0.7776(4) 0.9519(3)
N4_6 N 0.7707(13) 0.6868(3) 0.9755(3)
C1_6 C 0.0693(16) 0.7237(5) 0.9203(4)
C2_6 C 0.4539(18) 0.7142(5) 0.9219(4)
C3_6 C 0.7329(19) 0.8076(5) 0.9738(4)
C4_6 C 0.696(2) 0.6526(5) 0.9841(4)
H3_6 H 0.639446 0.642060 0.964465
H6_6 H 0.912228 0.721508 0.997160
N11_4 N 0.9577(13) 0.7264(4) 0.9197(4)
N13_4 N 0.7452(14) 0.7554(4) 0.8663(3)
Au1_7 Au 0.23977(5) 0.21917(2) 0.57809(2)
N2_3 N 0.5423(13) 0.2264(4) 0.5803(4)
C1_7 C 0.4307(16) 0.2237(5) 0.5797(4)
C2_7 C 0.0461(18) 0.2142(5) 0.5781(4)
Au2_7 Au 0.78539(10) 0.35556(2) 0.48890(2)
N1_7 N 0.9358(13) 0.2146(4) 0.5780(3)
N3_7 N 0.7539(12) 0.2776(4) 0.5481(3)
N4_7 N 0.7293(13) 0.1868(3) 0.5245(3)
O1_7 O 0.6214(15) 0.1730(4) 0.3784(3)
O2_7 O 0.649(2) 0.1013(4) 0.2070(3)
C3_7 C 0.7671(19) 0.3076(5) 0.5262(4)
N7_7 N 0.7136(15) 0.1196(3) 0.4156(3)
H1_7 H 0.746923 0.093370 0.415527
N8_7 N 0.7236(18) 0.1652(5) 0.2332(3)
H2_7 H 0.748389 0.177644 0.255115
C4_7 C 0.804(2) 0.1526(5) 0.5159(4)
H3_7 H 0.860554 0.142060 0.535535
C5_7 C 0.694(2) 0.0603(4) 0.3494(4)
H5_7 H 0.695841 0.046493 0.374197
C6_7 C 0.6432(17) 0.1977(5) 0.4973(3)
H6_7 H 0.587772 0.221508 0.502840
C7_7 C 0.6289(14) 0.1769(4) 0.4616(4)
H7_7 H 0.562057 0.184793 0.444049
C8_7 C 0.6560(15) 0.2116(5) 0.1353(4)
H8_7 H 0.598906 0.207554 0.113903
C11_7 C 0.6693(18) 0.1263(5) 0.3100(4)
H10_7 H 0.653042 0.156568 0.307701
C12_7 C 0.7173(16) 0.1432(4) 0.4521(3)
C13_7 C 0.803(2) 0.1325(6) 0.4814(5)
H11_7 H 0.863366 0.109981 0.476788
C14_7 C 0.6636(17) 0.1342(4) 0.3819(4)
C15_7 C 0.676(2) 0.1062(4) 0.3461(4)
C16_7 C 0.728(2) 0.1906(5) 0.2005(4)
C17_7 C 0.812(2) 0.2272(6) 0.1986(5)
H12_7 H 0.866949 0.234042 0.220029
C21_7 C 0.6834(18) 0.1208(5) 0.2361(4)
C22_7 C 0.708(2) 0.0361(5) 0.3144(5)
C24_7 C 0.703(3) 0.0567(5) 0.2783(4)
H16_7 H 0.710943 0.040211 0.254945
C25_7 C 0.688(2) 0.0999(6) 0.2763(5)
C26_7 C 0.6471(17) 0.1839(5) 0.1675(4)
H17_7 H 0.587143 0.160537 0.167377
C27_7 C 0.813(2) 0.2522(6) 0.1654(5)
H18_7 H 0.867037 0.277119 0.165284
C28_7 C 0.813(4) 0.4078(8) 0.4550(8)
N10_7 N 0.811(5) 0.4368(11) 0.4352(12)
N12_4 N 0.7155(14) 0.1609(4) 0.6088(3)
N5_4 N 0.7155(14) 0.8391(4) 0.3912(3)
O3_7 O 0.803(3) 0.9695(5) 0.2929(4)
N9_7 N 0.671(2) 0.9668(4) 0.3472(4)
H4_7 H 0.613544 0.982643 0.359779
C9_7 C 0.683(3) 0.9224(5) 0.3596(5)
C10_7 C 0.797(2) 0.8554(5) 0.3620(5)
H9_7 H 0.868385 0.838157 0.353994
C18_7 C 0.779(2) 0.8953(6) 0.3444(5)
H13_7 H 0.829643 0.904040 0.322720
C19_7 C 0.623(2) 0.8687(5) 0.4038(5)
H14_7 H 0.566284 0.860234 0.424268
C20_7 C 0.742(3) 0.9886(5) 0.3162(5)
C23_7 C 0.609(2) 0.9088(5) 0.3885(5)
H15_7 H 0.545082 0.927685 0.398667
Au1_8 Au 0.23977(5) 0.78083(2) 0.42191(2)
N2_4 N 0.5423(13) 0.7736(4) 0.4197(4)
C1_8 C 0.4307(16) 0.7763(5) 0.4203(4)
C2_8 C 0.0461(18) 0.7858(5) 0.4219(4)
O3_8 O 0.803(3) 0.0305(5) 0.7071(4)
N9_8 N 0.671(2) 0.0332(4) 0.6528(4)
H4_8 H 0.613544 0.017357 0.640221
C9_8 C 0.683(3) 0.0776(5) 0.6404(5)
C10_8 C 0.797(2) 0.1446(5) 0.6380(5)
H9_8 H 0.868385 0.161843 0.646006
C18_8 C 0.779(2) 0.1047(6) 0.6556(5)
H13_8 H 0.829643 0.095960 0.677280
C19_8 C 0.623(2) 0.1313(5) 0.5962(5)
H14_8 H 0.566284 0.139766 0.575732
C20_8 C 0.742(3) 0.0114(5) 0.6838(5)
C23_8 C 0.609(2) 0.0912(5) 0.6115(5)
H15_8 H 0.545082 0.072315 0.601333
Au2_8 Au 0.78539(10) 0.64444(2) 0.51110(2)
N1_8 N 0.9358(13) 0.7854(4) 0.4220(3)
N3_8 N 0.7539(12) 0.7224(4) 0.4519(3)
N4_8 N 0.7293(13) 0.8132(3) 0.4755(3)
O1_8 O 0.6214(15) 0.8270(4) 0.6216(3)
O2_8 O 0.649(2) 0.8987(4) 0.7930(3)
C3_8 C 0.7671(19) 0.6924(5) 0.4738(4)
N7_8 N 0.7136(15) 0.8804(3) 0.5844(3)
H1_8 H 0.746923 0.906630 0.584473
N8_8 N 0.7236(18) 0.8348(5) 0.7668(3)
H2_8 H 0.748389 0.822356 0.744885
C4_8 C 0.804(2) 0.8474(5) 0.4841(4)
H3_8 H 0.860554 0.857940 0.464465
C5_8 C 0.694(2) 0.9397(4) 0.6506(4)
H5_8 H 0.695841 0.953507 0.625803
C6_8 C 0.6432(17) 0.8023(5) 0.5027(3)
H6_8 H 0.587772 0.778492 0.497160
C7_8 C 0.6289(14) 0.8231(4) 0.5384(4)
H7_8 H 0.562057 0.815207 0.555951
C8_8 C 0.6560(15) 0.7884(5) 0.8647(4)
H8_8 H 0.598906 0.792446 0.886097
C11_8 C 0.6693(18) 0.8737(5) 0.6900(4)
H10_8 H 0.653042 0.843432 0.692299
C12_8 C 0.7173(16) 0.8568(4) 0.5479(3)
C13_8 C 0.803(2) 0.8675(6) 0.5186(5)
H11_8 H 0.863366 0.890019 0.523212
C14_8 C 0.6636(17) 0.8658(4) 0.6181(4)
C15_8 C 0.676(2) 0.8938(4) 0.6539(4)
C16_8 C 0.728(2) 0.8094(5) 0.7995(4)
C17_8 C 0.812(2) 0.7728(6) 0.8014(5)
H12_8 H 0.866949 0.765958 0.779971
C21_8 C 0.6834(18) 0.8792(5) 0.7639(4)
C22_8 C 0.708(2) 0.9639(5) 0.6856(5)
C24_8 C 0.703(3) 0.9433(5) 0.7217(4)
H16_8 H 0.710943 0.959789 0.745055
C25_8 C 0.688(2) 0.9001(6) 0.7237(5)
C26_8 C 0.6471(17) 0.8161(5) 0.8325(4)
H17_8 H 0.587143 0.839463 0.832623
C27_8 C 0.813(2) 0.7478(6) 0.8346(5)
H18_8 H 0.867037 0.722881 0.834716
C28_8 C 0.813(4) 0.5922(8) 0.5450(8)
N10_8 N 0.811(5) 0.5632(11) 0.5648(12)
loop_
_geom_bond_atom_site_label_1
_geom_bond_atom_site_label_2
_geom_bond_site_symmetry_1
_geom_bond_site_symmetry_2
Fe2 N2 1_555 1_555
Au1 C1 1_555 1_555
Au2 C3 1_555 1_555
Fe2 N1 1_555 1_555
N1 C2 1_555 1_555
N3 Fe2 1_555 1_555
N4 Fe2 1_555 1_555
O1 C14 1_555 1_555
N5 C10 1_555 1_555
N6 C8 1_555 1_555
O2 C21 1_555 1_555
C2 Au1 1_555 1_555
C3 N3 1_555 1_555
O3 C20 1_555 1_555
N7 H1 1_555 1_555
N8 H2 1_555 1_555
C4 N4 1_555 1_555
H3 C4 1_555 1_555
N9 H4 1_555 1_555
C5 H5 1_555 1_555
C6 N4 1_555 1_555
H6 C6 1_555 1_555
C7 C6 1_555 1_555
H7 C7 1_555 1_555
C8 H8 1_555 1_555
C9 N9 1_555 1_555
C10 H9 1_555 1_555
C11 H10 1_555 1_555
C12 N7 1_555 1_555
C13 C4 1_555 1_555
H11 C13 1_555 1_555
C14 N7 1_555 1_555
C15 C5 1_555 1_555
C16 N8 1_555 1_555
C17 C16 1_555 1_555
H12 C17 1_555 1_555
C18 C9 1_555 1_555
H13 C18 1_555 1_555
C19 N5 1_555 1_555
H14 C19 1_555 1_555
C20 N9 1_555 1_555
C21 N8 1_555 1_555
C22 C5 1_555 1_555
C23 C9 1_555 1_555
H15 C23 1_555 1_555
C24 C22 1_555 1_555
H16 C24 1_555 1_555
C25 C11 1_555 1_555
C26 C8 1_555 1_555
H17 C26 1_555 1_555
C27 N6 1_555 1_555
H18 C27 1_555 1_555
C28 Au2 1_555 1_555
N10 C28 1_555 1_555
Fe3 N5 1_555 1_555
Fe4 N6 1_555 1_555
N12 Fe2 1_555 1_555
N13 Fe2 1_555 1_555
C7 C12 1_555 1_555
C10 C18 1_555 1_555
C11 C15 1_555 1_555
C12 C13 1_555 1_555
C14 C15 1_555 1_555
C16 C26 1_555 1_555
C17 C27 1_555 1_555
C19 C23 1_555 1_555
C20 C22 1_555 1_555
C21 C25 1_555 1_555
C24 C25 1_555 1_555
Fe3 N2_2 1_555 1_555
Au1_2 C1_2 1_555 1_555
Au2_2 C3_2 1_555 1_555
Fe3 N1_2 1_555 1_555
N1_2 C2_2 1_555 1_555
N3_2 Fe3 1_555 1_555
N4_2 Fe3 1_555 1_555
O1_2 C14_2 1_555 1_555
N12 C10_2 1_555 1_555
N6_2 C8_2 1_555 1_555
O2_2 C21_2 1_555 1_555
C2_2 Au1_2 1_555 1_555
C3_2 N3_2 1_555 1_555
O3_2 C20_2 1_555 1_555
N7_2 H1_2 1_555 1_555
N8_2 H2_2 1_555 1_555
C4_2 N4_2 1_555 1_555
H3_2 C4_2 1_555 1_555
N9_2 H4_2 1_555 1_555
C5_2 H5_2 1_555 1_555
C6_2 N4_2 1_555 1_555
H6_2 C6_2 1_555 1_555
C7_2 C6_2 1_555 1_555
H7_2 C7_2 1_555 1_555
C8_2 H8_2 1_555 1_555
C9_2 N9_2 1_555 1_555
C10_2 H9_2 1_555 1_555
C11_2 H10_2 1_555 1_555
C12_2 N7_2 1_555 1_555
C13_2 C4_2 1_555 1_555
H11_2 C13_2 1_555 1_555
C14_2 N7_2 1_555 1_555
C15_2 C5_2 1_555 1_555
C16_2 N8_2 1_555 1_555
C17_2 C16_2 1_555 1_555
H12_2 C17_2 1_555 1_555
C18_2 C9_2 1_555 1_555
H13_2 C18_2 1_555 1_555
C19_2 N12 1_555 1_555
H14_2 C19_2 1_555 1_555
C20_2 N9_2 1_555 1_555
C21_2 N8_2 1_555 1_555
C22_2 C5_2 1_555 1_555
C23_2 C9_2 1_555 1_555
H15_2 C23_2 1_555 1_555
C24_2 C22_2 1_555 1_555
H16_2 C24_2 1_555 1_555
C25_2 C11_2 1_555 1_555
C26_2 C8_2 1_555 1_555
H17_2 C26_2 1_555 1_555
C27_2 N6_2 1_555 1_555
H18_2 C27_2 1_555 1_555
C28_2 Au2_2 1_555 1_555
N10_2 C28_2 1_555 1_555
Fe4_2 N6_2 1_555 1_555
N13_2 Fe3 1_555 1_555
C7_2 C12_2 1_555 1_555
C10_2 C18_2 1_555 1_555
C11_2 C15_2 1_555 1_555
C12_2 C13_2 1_555 1_555
C14_2 C15_2 1_555 1_555
C16_2 C26_2 1_555 1_555
C17_2 C27_2 1_555 1_555
C19_2 C23_2 1_555 1_555
C20_2 C22_2 1_555 1_555
C21_2 C25_2 1_555 1_555
C24_2 C25_2 1_555 1_555
N5_2 C10_3 1_555 1_555
O3_3 C20_3 1_555 1_555
N9_3 H4_3 1_555 1_555
C9_3 N9_3 1_555 1_555
C10_3 H9_3 1_555 1_555
C18_3 C9_3 1_555 1_555
H13_3 C18_3 1_555 1_555
C19_3 N5_2 1_555 1_555
H14_3 C19_3 1_555 1_555
C20_3 N9_3 1_555 1_555
C23_3 C9_3 1_555 1_555
H15_3 C23_3 1_555 1_555
Fe4_2 N5_2 1_555 1_555
C10_3 C18_3 1_555 1_555
C19_3 C23_3 1_555 1_555
Fe4 N1_3 1_555 1_555
N3_3 Fe4 1_555 1_555
N4_3 Fe4 1_555 1_555
C3_3 N3_3 1_555 1_555
C4_3 N4_3 1_555 1_555
H3_3 C4_3 1_555 1_555
N11 Fe4 1_555 1_555
N12_2 Fe4 1_555 1_555
O1_3 C14_3 1_555 1_555
N13 C8_3 1_555 1_555
O2_3 C21_3 1_555 1_555
N7_3 H1_3 1_555 1_555
N8_3 H2_3 1_555 1_555
C5_3 H5_3 1_555 1_555
C7_3 C6_3 1_555 1_555
H7_3 C7_3 1_555 1_555
C8_3 H8_3 1_555 1_555
C11_3 H10_3 1_555 1_555
C12_3 N7_3 1_555 1_555
H11_3 C13_3 1_555 1_555
C14_3 N7_3 1_555 1_555
C15_3 C5_3 1_555 1_555
C16_3 N8_3 1_555 1_555
C17_3 C16_3 1_555 1_555
H12_3 C17_3 1_555 1_555
C21_3 N8_3 1_555 1_555
C22_3 C5_3 1_555 1_555
C24_3 C22_3 1_555 1_555
H16_3 C24_3 1_555 1_555
C25_3 C11_3 1_555 1_555
C26_3 C8_3 1_555 1_555
H17_3 C26_3 1_555 1_555
C27_3 N13 1_555 1_555
H18_3 C27_3 1_555 1_555
C28_3 Au2_3 1_555 1_555
N10_3 C28_3 1_555 1_555
C7_3 C12_3 1_555 1_555
C11_3 C15_3 1_555 1_555
C12_3 C13_3 1_555 1_555
C14_3 C15_3 1_555 1_555
C16_3 C26_3 1_555 1_555
C17_3 C27_3 1_555 1_555
C21_3 C25_3 1_555 1_555
C24_3 C25_3 1_555 1_555
Au1_3 C1_3 1_555 1_555
N11 C1_3 1_555 1_555
C2_3 Au1_3 1_555 1_555
O1_4 C14_4 1_555 1_555
N13_2 C8_4 1_555 1_555
O2_4 C21_4 1_555 1_555
N7_4 H1_4 1_555 1_555
N8_4 H2_4 1_555 1_555
C5_4 H5_4 1_555 1_555
C7_4 C6_4 1_555 1_555
H7_4 C7_4 1_555 1_555
C8_4 H8_4 1_555 1_555
C11_4 H10_4 1_555 1_555
C12_4 N7_4 1_555 1_555
H11_4 C13_4 1_555 1_555
C14_4 N7_4 1_555 1_555
C15_4 C5_4 1_555 1_555
C16_4 N8_4 1_555 1_555
C17_4 C16_4 1_555 1_555
H12_4 C17_4 1_555 1_555
C21_4 N8_4 1_555 1_555
C22_4 C5_4 1_555 1_555
C24_4 C22_4 1_555 1_555
H16_4 C24_4 1_555 1_555
C25_4 C11_4 1_555 1_555
C26_4 C8_4 1_555 1_555
H17_4 C26_4 1_555 1_555
C27_4 N13_2 1_555 1_555
H18_4 C27_4 1_555 1_555
C28_4 Au2_4 1_555 1_555
N10_4 C28_4 1_555 1_555
C7_4 C12_4 1_555 1_555
C11_4 C15_4 1_555 1_555
C12_4 C13_4 1_555 1_555
C14_4 C15_4 1_555 1_555
C16_4 C26_4 1_555 1_555
C17_4 C27_4 1_555 1_555
C21_4 C25_4 1_555 1_555
C24_4 C25_4 1_555 1_555
Fe4_2 N1_4 1_555 1_555
N3_4 Fe4_2 1_555 1_555
N4_4 Fe4_2 1_555 1_555
C3_4 N3_4 1_555 1_555
C4_4 N4_4 1_555 1_555
H3_4 C4_4 1_555 1_555
N11_2 Fe4_2 1_555 1_555
N12_2 C10_4 1_555 1_555
O3_4 C20_4 1_555 1_555
N9_4 H4_4 1_555 1_555
C9_4 N9_4 1_555 1_555
C10_4 H9_4 1_555 1_555
C18_4 C9_4 1_555 1_555
H13_4 C18_4 1_555 1_555
C19_4 N12_2 1_555 1_555
H14_4 C19_4 1_555 1_555
C20_4 N9_4 1_555 1_555
C23_4 C9_4 1_555 1_555
H15_4 C23_4 1_555 1_555
C10_4 C18_4 1_555 1_555
C19_4 C23_4 1_555 1_555
Au1_4 C1_4 1_555 1_555
N11_2 C1_4 1_555 1_555
C2_4 Au1_4 1_555 1_555
Au1_5 C1_5 1_555 1_555
Fe1 N1_5 1_555 1_555
N1_5 C2_5 1_555 1_555
N3_5 Fe1 1_555 1_555
N4_5 Fe1 1_555 1_555
C2_5 Au1_5 1_555 1_555
C3_5 N3_5 1_555 1_555
C4_5 N4_5 1_555 1_555
H3_5 C4_5 1_555 1_555
N11_3 Fe1 1_555 1_555
N12_3 Fe1 1_555 1_555
N13_3 Fe1 1_555 1_555
O1_5 C14_5 1_555 1_555
N5_3 C10_5 1_555 1_555
N6_3 C8_5 1_555 1_555
O2_5 C21_5 1_555 1_555
O3_5 C20_5 1_555 1_555
N7_5 H1_5 1_555 1_555
N8_5 H2_5 1_555 1_555
N9_5 H4_5 1_555 1_555
C5_5 H5_5 1_555 1_555
C7_5 C6_5 1_555 1_555
H7_5 C7_5 1_555 1_555
C8_5 H8_5 1_555 1_555
C9_5 N9_5 1_555 1_555
C10_5 H9_5 1_555 1_555
C11_5 H10_5 1_555 1_555
C12_5 N7_5 1_555 1_555
H11_5 C13_5 1_555 1_555
C14_5 N7_5 1_555 1_555
C15_5 C5_5 1_555 1_555
C16_5 N8_5 1_555 1_555
C17_5 C16_5 1_555 1_555
H12_5 C17_5 1_555 1_555
C18_5 C9_5 1_555 1_555
H13_5 C18_5 1_555 1_555
C19_5 N5_3 1_555 1_555
H14_5 C19_5 1_555 1_555
C20_5 N9_5 1_555 1_555
C21_5 N8_5 1_555 1_555
C22_5 C5_5 1_555 1_555
C23_5 C9_5 1_555 1_555
H15_5 C23_5 1_555 1_555
C24_5 C22_5 1_555 1_555
H16_5 C24_5 1_555 1_555
C25_5 C11_5 1_555 1_555
C26_5 C8_5 1_555 1_555
H17_5 C26_5 1_555 1_555
C27_5 N6_3 1_555 1_555
H18_5 C27_5 1_555 1_555
C28_5 Au2_5 1_555 1_555
N10_5 C28_5 1_555 1_555
Fe3_2 N5_3 1_555 1_555
Fe4_3 N6_3 1_555 1_555
C7_5 C12_5 1_555 1_555
C10_5 C18_5 1_555 1_555
C11_5 C15_5 1_555 1_555
C12_5 C13_5 1_555 1_555
C14_5 C15_5 1_555 1_555
C16_5 C26_5 1_555 1_555
C17_5 C27_5 1_555 1_555
C19_5 C23_5 1_555 1_555
C20_5 C22_5 1_555 1_555
C21_5 C25_5 1_555 1_555
C24_5 C25_5 1_555 1_555
O1_6 C14_6 1_555 1_555
N12_3 C10_6 1_555 1_555
N6_4 C8_6 1_555 1_555
O2_6 C21_6 1_555 1_555
O3_6 C20_6 1_555 1_555
N7_6 H1_6 1_555 1_555
N8_6 H2_6 1_555 1_555
N9_6 H4_6 1_555 1_555
C5_6 H5_6 1_555 1_555
C7_6 C6_6 1_555 1_555
H7_6 C7_6 1_555 1_555
C8_6 H8_6 1_555 1_555
C9_6 N9_6 1_555 1_555
C10_6 H9_6 1_555 1_555
C11_6 H10_6 1_555 1_555
C12_6 N7_6 1_555 1_555
H11_6 C13_6 1_555 1_555
C14_6 N7_6 1_555 1_555
C15_6 C5_6 1_555 1_555
C16_6 N8_6 1_555 1_555
C17_6 C16_6 1_555 1_555
H12_6 C17_6 1_555 1_555
C18_6 C9_6 1_555 1_555
H13_6 C18_6 1_555 1_555
C19_6 N12_3 1_555 1_555
H14_6 C19_6 1_555 1_555
C20_6 N9_6 1_555 1_555
C21_6 N8_6 1_555 1_555
C22_6 C5_6 1_555 1_555
C23_6 C9_6 1_555 1_555
H15_6 C23_6 1_555 1_555
C24_6 C22_6 1_555 1_555
H16_6 C24_6 1_555 1_555
C25_6 C11_6 1_555 1_555
C26_6 C8_6 1_555 1_555
H17_6 C26_6 1_555 1_555
C27_6 N6_4 1_555 1_555
H18_6 C27_6 1_555 1_555
C28_6 Au2_6 1_555 1_555
N10_6 C28_6 1_555 1_555
Fe4_4 N6_4 1_555 1_555
C7_6 C12_6 1_555 1_555
C10_6 C18_6 1_555 1_555
C11_6 C15_6 1_555 1_555
C12_6 C13_6 1_555 1_555
C14_6 C15_6 1_555 1_555
C16_6 C26_6 1_555 1_555
C17_6 C27_6 1_555 1_555
C19_6 C23_6 1_555 1_555
C20_6 C22_6 1_555 1_555
C21_6 C25_6 1_555 1_555
C24_6 C25_6 1_555 1_555
Au1_6 C1_6 1_555 1_555
Fe3_2 N1_6 1_555 1_555
N1_6 C2_6 1_555 1_555
N3_6 Fe3_2 1_555 1_555
N4_6 Fe3_2 1_555 1_555
C2_6 Au1_6 1_555 1_555
C3_6 N3_6 1_555 1_555
C4_6 N4_6 1_555 1_555
H3_6 C4_6 1_555 1_555
N11_4 Fe3_2 1_555 1_555
N13_4 Fe3_2 1_555 1_555
Au1_7 C1_7 1_555 1_555
N2_3 C1_7 1_555 1_555
C2_7 Au1_7 1_555 1_555
Fe4_3 N2_3 1_555 1_555
Au2_7 C3_7 1_555 1_555
Fe4_3 N1_7 1_555 1_555
N3_7 Fe4_3 1_555 1_555
N4_7 Fe4_3 1_555 1_555
O1_7 C14_7 1_555 1_555
N13_3 C8_7 1_555 1_555
O2_7 C21_7 1_555 1_555
C3_7 N3_7 1_555 1_555
N7_7 H1_7 1_555 1_555
N8_7 H2_7 1_555 1_555
C4_7 N4_7 1_555 1_555
H3_7 C4_7 1_555 1_555
C5_7 H5_7 1_555 1_555
C6_7 N4_7 1_555 1_555
H6_7 C6_7 1_555 1_555
C7_7 C6_7 1_555 1_555
H7_7 C7_7 1_555 1_555
C8_7 H8_7 1_555 1_555
C11_7 H10_7 1_555 1_555
C12_7 N7_7 1_555 1_555
C13_7 C4_7 1_555 1_555
H11_7 C13_7 1_555 1_555
C14_7 N7_7 1_555 1_555
C15_7 C5_7 1_555 1_555
C16_7 N8_7 1_555 1_555
C17_7 C16_7 1_555 1_555
H12_7 C17_7 1_555 1_555
C21_7 N8_7 1_555 1_555
C22_7 C5_7 1_555 1_555
C24_7 C22_7 1_555 1_555
H16_7 C24_7 1_555 1_555
C25_7 C11_7 1_555 1_555
C26_7 C8_7 1_555 1_555
H17_7 C26_7 1_555 1_555
C27_7 N13_3 1_555 1_555
H18_7 C27_7 1_555 1_555
C28_7 Au2_7 1_555 1_555
N10_7 C28_7 1_555 1_555
N12_4 Fe4_3 1_555 1_555
C7_7 C12_7 1_555 1_555
C11_7 C15_7 1_555 1_555
C12_7 C13_7 1_555 1_555
C14_7 C15_7 1_555 1_555
C16_7 C26_7 1_555 1_555
C17_7 C27_7 1_555 1_555
C21_7 C25_7 1_555 1_555
C24_7 C25_7 1_555 1_555
N5_4 C10_7 1_555 1_555
O3_7 C20_7 1_555 1_555
N9_7 H4_7 1_555 1_555
C9_7 N9_7 1_555 1_555
C10_7 H9_7 1_555 1_555
C18_7 C9_7 1_555 1_555
H13_7 C18_7 1_555 1_555
C19_7 N5_4 1_555 1_555
H14_7 C19_7 1_555 1_555
C20_7 N9_7 1_555 1_555
C23_7 C9_7 1_555 1_555
H15_7 C23_7 1_555 1_555
Fe4_4 N5_4 1_555 1_555
C10_7 C18_7 1_555 1_555
C19_7 C23_7 1_555 1_555
Au1_8 C1_8 1_555 1_555
N2_4 C1_8 1_555 1_555
C2_8 Au1_8 1_555 1_555
Fe4_4 N2_4 1_555 1_555
N12_4 C10_8 1_555 1_555
O3_8 C20_8 1_555 1_555
N9_8 H4_8 1_555 1_555
C9_8 N9_8 1_555 1_555
C10_8 H9_8 1_555 1_555
C18_8 C9_8 1_555 1_555
H13_8 C18_8 1_555 1_555
C19_8 N12_4 1_555 1_555
H14_8 C19_8 1_555 1_555
C20_8 N9_8 1_555 1_555
C23_8 C9_8 1_555 1_555
H15_8 C23_8 1_555 1_555
C10_8 C18_8 1_555 1_555
C19_8 C23_8 1_555 1_555
Au2_8 C3_8 1_555 1_555
Fe4_4 N1_8 1_555 1_555
N3_8 Fe4_4 1_555 1_555
N4_8 Fe4_4 1_555 1_555
O1_8 C14_8 1_555 1_555
N13_4 C8_8 1_555 1_555
O2_8 C21_8 1_555 1_555
C3_8 N3_8 1_555 1_555
N7_8 H1_8 1_555 1_555
N8_8 H2_8 1_555 1_555
C4_8 N4_8 1_555 1_555
H3_8 C4_8 1_555 1_555
C5_8 H5_8 1_555 1_555
C6_8 N4_8 1_555 1_555
H6_8 C6_8 1_555 1_555
C7_8 C6_8 1_555 1_555
H7_8 C7_8 1_555 1_555
C8_8 H8_8 1_555 1_555
C11_8 H10_8 1_555 1_555
C12_8 N7_8 1_555 1_555
C13_8 C4_8 1_555 1_555
H11_8 C13_8 1_555 1_555
C14_8 N7_8 1_555 1_555
C15_8 C5_8 1_555 1_555
C16_8 N8_8 1_555 1_555
C17_8 C16_8 1_555 1_555
H12_8 C17_8 1_555 1_555
C21_8 N8_8 1_555 1_555
C22_8 C5_8 1_555 1_555
C24_8 C22_8 1_555 1_555
H16_8 C24_8 1_555 1_555
C25_8 C11_8 1_555 1_555
C26_8 C8_8 1_555 1_555
H17_8 C26_8 1_555 1_555
C27_8 N13_4 1_555 1_555
H18_8 C27_8 1_555 1_555
C28_8 Au2_8 1_555 1_555
N10_8 C28_8 1_555 1_555
C7_8 C12_8 1_555 1_555
C11_8 C15_8 1_555 1_555
C12_8 C13_8 1_555 1_555
C14_8 C15_8 1_555 1_555
C16_8 C26_8 1_555 1_555
C17_8 C27_8 1_555 1_555
C21_8 C25_8 1_555 1_555
C24_8 C25_8 1_555 1_555

#END
