
###############################################################################
#
# This file contains modified crystal structure data generated from the
# MOF subset of the Cambridge Structural Database (CSD) v543 
# hosted by the Cambridge Crystallographic Data Centre (CCDC).
#
# This work is licensed under the Creative Commons
# Attribution-NonCommercial-ShareAlike 4.0 International License.
# To view a copy of this license, visit
# http://creativecommons.org/licenses/by-nc-sa/4.0/
# or send a letter to
# Creative Commons, PO Box 1866, Mountain View, CA 94042, USA.
#
# CIF created using the CSD Python API on 29 September 2022
# The structure has been converted into the P1 space group
# The structure has a 3D framework
# The original CSD entry WAMCAS15 is in the orthorhombic crystal system
# The original CSD entry WAMCAS15 is in a Sohncke space group
# The framework has been calculated to contain at least 10.0% void space
# The void calculation uses a probe of radius 1.32A, grid spacing 0.4
#
###############################################################################

data_WAMCAS15
_chemical_formula_moiety         '(C224 H144 Au16 Fe8 N76 O24)n'
_symmetry_cell_setting           triclinic
_symmetry_space_group_name_H-M   'P 1'
_symmetry_Int_Tables_number      1
_space_group_name_Hall           'P 1'
loop_
_symmetry_equiv_pos_site_id
_symmetry_equiv_pos_as_xyz
1 x,y,z
_cell_length_a                   10.261(2)
_cell_length_b                   30.428(6)
_cell_length_c                   33.801(7)
_cell_angle_alpha                90
_cell_angle_beta                 90
_cell_angle_gamma                90
_cell_volume                     10553.4
loop_
_atom_site_label
_atom_site_type_symbol
_atom_site_fract_x
_atom_site_fract_y
_atom_site_fract_z
N2 N 0.0423(10) 0.7263(3) 0.5807(3)
Fe2 Fe 0.24008(13) 0.72014(4) 0.57933(4)
Au1 Au 0.74013(4) 0.71899(2) 0.57810(2)
Au2 Au 0.28630(7) 0.85522(2) 0.48941(2)
N1 N 0.4360(10) 0.7142(3) 0.5782(3)
N3 N 0.2558(10) 0.7766(3) 0.5487(3)
N4 N 0.2296(10) 0.6868(3) 0.5245(2)
O1 O 0.1218(12) 0.6731(3) 0.3783(2)
N5 N 0.2164(12) 0.3393(3) 0.3916(3)
N6 N 0.2439(11) 0.7454(3) 0.1331(3)
C1 C 0.9312(13) 0.7240(4) 0.5796(3)
O2 O 0.1479(15) 0.6021(3) 0.2067(3)
C2 C 0.5460(12) 0.7139(4) 0.5776(3)
C3 C 0.2675(14) 0.8064(4) 0.5266(3)
O3 O 0.302(2) 0.4690(4) 0.2923(4)
N7 N 0.2133(12) 0.6196(3) 0.4162(2)
H1 H 0.245541 0.592816 0.416277
N8 N 0.2256(12) 0.6651(4) 0.2330(3)
H2 H 0.254593 0.676858 0.255071
C4 C 0.3050(16) 0.6525(4) 0.5172(3)
H3 H 0.360917 0.641861 0.537443
N9 N 0.1738(17) 0.4664(4) 0.3462(3)
H4 H 0.117013 0.482654 0.359096
C5 C 0.1961(15) 0.5607(3) 0.3494(3)
H5 H 0.199519 0.546804 0.374551
C6 C 0.1417(13) 0.6976(4) 0.4974(3)
H6 H 0.083022 0.720818 0.503460
C7 C 0.1299(12) 0.6776(4) 0.4613(3)
H7 H 0.064926 0.686430 0.442898
C8 C 0.1584(12) 0.7123(4) 0.1345(3)
H8 H 0.102507 0.707567 0.112449
C9 C 0.184(2) 0.4225(4) 0.3594(4)
C10 C 0.2960(16) 0.3547(4) 0.3621(4)
H9 H 0.364916 0.336379 0.353173
C11 C 0.1709(13) 0.6257(4) 0.3100(3)
H10 H 0.154291 0.656327 0.308070
C12 C 0.2177(13) 0.6435(3) 0.4523(3)
C13 C 0.3046(15) 0.6318(4) 0.4811(3)
H11 H 0.365806 0.609084 0.476004
C14 C 0.1644(12) 0.6346(4) 0.3821(3)
C15 C 0.1786(14) 0.6061(3) 0.3461(3)
C16 C 0.2276(13) 0.6914(4) 0.2006(3)
C17 C 0.3125(16) 0.7273(4) 0.1987(4)
H12 H 0.369447 0.733825 0.220115
C18 C 0.2814(18) 0.3953(5) 0.3446(4)
H13 H 0.335556 0.404351 0.323262
C19 C 0.1224(16) 0.3681(4) 0.4034(4)
H14 H 0.062638 0.358694 0.423149
C20 C 0.240(2) 0.4878(4) 0.3157(4)
C21 C 0.1829(12) 0.6214(4) 0.2356(3)
C22 C 0.2085(19) 0.5362(4) 0.3142(4)
C23 C 0.1093(18) 0.4089(4) 0.3888(5)
H15 H 0.045584 0.428095 0.399611
C24 C 0.2058(19) 0.5571(5) 0.2779(4)
H16 H 0.217089 0.540399 0.254443
C25 C 0.1877(16) 0.6002(4) 0.2753(3)
C26 C 0.1484(14) 0.6843(5) 0.1675(3)
H17 H 0.088172 0.660558 0.167306
C27 C 0.3116(16) 0.7531(4) 0.1652(4)
H18 H 0.364647 0.778701 0.165339
C28 C 0.311(3) 0.9074(7) 0.4557(6)
N10 N 0.320(4) 0.9364(7) 0.4366(9)
Fe3 Fe 0.24008(13) 0.27986(4) 0.42067(4)
Fe4 Fe 0.25992(13) 0.77986(4) 0.07933(4)
N12 N 0.2164(12) 0.6607(3) 0.6084(3)
N13 N 0.2561(11) 0.7546(3) 0.6331(3)
N2_2 N 0.0423(10) 0.2737(3) 0.4193(3)
Au1_2 Au 0.74013(4) 0.28101(2) 0.42190(2)
Au2_2 Au 0.28630(7) 0.14478(2) 0.51059(2)
N1_2 N 0.4360(10) 0.2858(3) 0.4218(3)
N3_2 N 0.2558(10) 0.2234(3) 0.4513(3)
N4_2 N 0.2296(10) 0.3132(3) 0.4755(2)
O1_2 O 0.1218(12) 0.3269(3) 0.6217(2)
N6_2 N 0.2439(11) 0.2546(3) 0.8669(3)
C1_2 C 0.9312(13) 0.2760(4) 0.4204(3)
O2_2 O 0.1479(15) 0.3979(3) 0.7933(3)
C2_2 C 0.5460(12) 0.2861(4) 0.4224(3)
C3_2 C 0.2675(14) 0.1936(4) 0.4734(3)
O3_2 O 0.302(2) 0.5310(4) 0.7077(4)
N7_2 N 0.2133(12) 0.3804(3) 0.5838(2)
H1_2 H 0.245541 0.407184 0.583723
N8_2 N 0.2256(12) 0.3349(4) 0.7670(3)
H2_2 H 0.254593 0.323142 0.744929
C4_2 C 0.3050(16) 0.3475(4) 0.4828(3)
H3_2 H 0.360917 0.358139 0.462557
N9_2 N 0.1738(17) 0.5336(4) 0.6538(3)
H4_2 H 0.117013 0.517346 0.640904
C5_2 C 0.1961(15) 0.4393(3) 0.6506(3)
H5_2 H 0.199519 0.453196 0.625449
C6_2 C 0.1417(13) 0.3024(4) 0.5026(3)
H6_2 H 0.083022 0.279182 0.496540
C7_2 C 0.1299(12) 0.3224(4) 0.5387(3)
H7_2 H 0.064926 0.313570 0.557102
C8_2 C 0.1584(12) 0.2877(4) 0.8655(3)
H8_2 H 0.102507 0.292433 0.887551
C9_2 C 0.184(2) 0.5775(4) 0.6406(4)
C10_2 C 0.2960(16) 0.6453(4) 0.6379(4)
H9_2 H 0.364916 0.663621 0.646827
C11_2 C 0.1709(13) 0.3743(4) 0.6900(3)
H10_2 H 0.154291 0.343673 0.691930
C12_2 C 0.2177(13) 0.3565(3) 0.5477(3)
C13_2 C 0.3046(15) 0.3682(4) 0.5189(3)
H11_2 H 0.365806 0.390916 0.523996
C14_2 C 0.1644(12) 0.3654(4) 0.6179(3)
C15_2 C 0.1786(14) 0.3939(3) 0.6539(3)
C16_2 C 0.2276(13) 0.3086(4) 0.7994(3)
C17_2 C 0.3125(16) 0.2727(4) 0.8013(4)
H12_2 H 0.369447 0.266175 0.779885
C18_2 C 0.2814(18) 0.6047(5) 0.6554(4)
H13_2 H 0.335556 0.595649 0.676738
C19_2 C 0.1224(16) 0.6319(4) 0.5966(4)
H14_2 H 0.062638 0.641306 0.576851
C20_2 C 0.240(2) 0.5122(4) 0.6843(4)
C21_2 C 0.1829(12) 0.3786(4) 0.7644(3)
C22_2 C 0.2085(19) 0.4638(4) 0.6858(4)
C23_2 C 0.1093(18) 0.5911(4) 0.6112(5)
H15_2 H 0.045584 0.571905 0.600389
C24_2 C 0.2058(19) 0.4429(5) 0.7221(4)
H16_2 H 0.217089 0.459601 0.745557
C25_2 C 0.1877(16) 0.3998(4) 0.7247(3)
C26_2 C 0.1484(14) 0.3157(5) 0.8325(3)
H17_2 H 0.088172 0.339442 0.832694
C27_2 C 0.3116(16) 0.2469(4) 0.8348(4)
H18_2 H 0.364647 0.221299 0.834661
C28_2 C 0.311(3) 0.0926(7) 0.5443(6)
N10_2 N 0.320(4) 0.0636(7) 0.5634(9)
Fe4_2 Fe 0.25992(13) 0.22014(4) 0.92067(4)
N13_2 N 0.2561(11) 0.2454(3) 0.3669(3)
N5_2 N 0.2836(12) 0.1607(3) 0.8916(3)
O3_3 O 0.198(2) 0.0310(4) 0.7923(4)
N9_3 N 0.3262(17) 0.0336(4) 0.8462(3)
H4_3 H 0.382987 0.017346 0.859096
C9_3 C 0.316(2) 0.0775(4) 0.8594(4)
C10_3 C 0.2040(16) 0.1453(4) 0.8621(4)
H9_3 H 0.135084 0.163621 0.853173
C18_3 C 0.2186(18) 0.1047(5) 0.8446(4)
H13_3 H 0.164444 0.095649 0.823262
C19_3 C 0.3776(16) 0.1319(4) 0.9034(4)
H14_3 H 0.437362 0.141306 0.923149
C20_3 C 0.260(2) 0.0122(4) 0.8157(4)
C23_3 C 0.3907(18) 0.0911(4) 0.8888(5)
H15_3 H 0.454416 0.071905 0.899611
N1_3 N 0.0640(10) 0.7858(3) 0.0782(3)
N3_3 N 0.2442(10) 0.7234(3) 0.0487(3)
N4_3 N 0.2704(10) 0.8132(3) 0.0245(2)
C3_3 C 0.2325(14) 0.6936(4) 0.0266(3)
C4_3 C 0.1950(16) 0.8475(4) 0.0172(3)
H3_3 H 0.139083 0.858139 0.037443
H6_3 H 0.416978 0.779182 0.003460
N11 N 0.4577(10) 0.7737(3) 0.0807(3)
N12_2 N 0.2836(12) 0.8393(3) 0.1084(3)
Au2_3 Au 0.21370(7) 0.64478(2) 0.98941(2)
O1_3 O 0.3782(12) 0.8269(3) 0.8783(2)
O2_3 O 0.3521(15) 0.8979(3) 0.7067(3)
N7_3 N 0.2867(12) 0.8804(3) 0.9162(2)
H1_3 H 0.254459 0.907184 0.916277
N8_3 N 0.2744(12) 0.8349(4) 0.7330(3)
H2_3 H 0.245407 0.823142 0.755071
C5_3 C 0.3039(15) 0.9393(3) 0.8494(3)
H5_3 H 0.300481 0.953196 0.874551
C6_3 C 0.3583(13) 0.8024(4) 0.9974(3)
C7_3 C 0.3701(12) 0.8224(4) 0.9613(3)
H7_3 H 0.435074 0.813570 0.942898
C8_3 C 0.3416(12) 0.7877(4) 0.6345(3)
H8_3 H 0.397493 0.792433 0.612449
C11_3 C 0.3291(13) 0.8743(4) 0.8100(3)
H10_3 H 0.345709 0.843673 0.808070
C12_3 C 0.2823(13) 0.8565(3) 0.9523(3)
C13_3 C 0.1954(15) 0.8682(4) 0.9811(3)
H11_3 H 0.134194 0.890916 0.976004
C14_3 C 0.3356(12) 0.8654(4) 0.8821(3)
C15_3 C 0.3214(14) 0.8939(3) 0.8461(3)
C16_3 C 0.2724(13) 0.8086(4) 0.7006(3)
C17_3 C 0.1875(16) 0.7727(4) 0.6987(4)
H12_3 H 0.130553 0.766175 0.720115
C21_3 C 0.3171(12) 0.8786(4) 0.7356(3)
C22_3 C 0.2915(19) 0.9638(4) 0.8142(4)
C24_3 C 0.2942(19) 0.9429(5) 0.7779(4)
H16_3 H 0.282911 0.959601 0.754443
C25_3 C 0.3123(16) 0.8998(4) 0.7753(3)
C26_3 C 0.3516(14) 0.8157(5) 0.6675(3)
H17_3 H 0.411828 0.839442 0.667306
C27_3 C 0.1884(16) 0.7469(4) 0.6652(4)
H18_3 H 0.135353 0.721299 0.665339
C28_3 C 0.189(3) 0.5926(7) 0.9557(6)
N10_3 N 0.180(4) 0.5636(7) 0.9366(9)
Au1_3 Au 0.75987(4) 0.78101(2) 0.07810(2)
C1_3 C 0.5688(13) 0.7760(4) 0.0796(3)
C2_3 C 0.9540(12) 0.7861(4) 0.0776(3)
Au2_4 Au 0.21370(7) 0.35522(2) 0.01059(2)
O1_4 O 0.3782(12) 0.1731(3) 0.1217(2)
O2_4 O 0.3521(15) 0.1021(3) 0.2933(3)
N7_4 N 0.2867(12) 0.1196(3) 0.0838(2)
H1_4 H 0.254459 0.092816 0.083723
N8_4 N 0.2744(12) 0.1651(4) 0.2670(3)
H2_4 H 0.245407 0.176858 0.244929
C5_4 C 0.3039(15) 0.0607(3) 0.1506(3)
H5_4 H 0.300481 0.046804 0.125449
C6_4 C 0.3583(13) 0.1976(4) 0.0026(3)
C7_4 C 0.3701(12) 0.1776(4) 0.0387(3)
H7_4 H 0.435074 0.186430 0.057102
C8_4 C 0.3416(12) 0.2123(4) 0.3655(3)
H8_4 H 0.397493 0.207567 0.387551
C11_4 C 0.3291(13) 0.1257(4) 0.1900(3)
H10_4 H 0.345709 0.156327 0.191930
C12_4 C 0.2823(13) 0.1435(3) 0.0477(3)
C13_4 C 0.1954(15) 0.1318(4) 0.0189(3)
H11_4 H 0.134194 0.109084 0.023996
C14_4 C 0.3356(12) 0.1346(4) 0.1179(3)
C15_4 C 0.3214(14) 0.1061(3) 0.1539(3)
C16_4 C 0.2724(13) 0.1914(4) 0.2994(3)
C17_4 C 0.1875(16) 0.2273(4) 0.3013(4)
H12_4 H 0.130553 0.233825 0.279885
C21_4 C 0.3171(12) 0.1214(4) 0.2644(3)
C22_4 C 0.2915(19) 0.0362(4) 0.1858(4)
C24_4 C 0.2942(19) 0.0571(5) 0.2221(4)
H16_4 H 0.282911 0.040399 0.245557
C25_4 C 0.3123(16) 0.1002(4) 0.2247(3)
C26_4 C 0.3516(14) 0.1843(5) 0.3325(3)
H17_4 H 0.411828 0.160558 0.332694
C27_4 C 0.1884(16) 0.2531(4) 0.3348(4)
H18_4 H 0.135353 0.278701 0.334661
C28_4 C 0.189(3) 0.4074(7) 0.0443(6)
N10_4 N 0.180(4) 0.4364(7) 0.0634(9)
N1_4 N 0.0640(10) 0.2142(3) 0.9218(3)
N3_4 N 0.2442(10) 0.2766(3) 0.9513(3)
N4_4 N 0.2704(10) 0.1868(3) 0.9755(2)
C3_4 C 0.2325(14) 0.3064(4) 0.9734(3)
C4_4 C 0.1950(16) 0.1525(4) 0.9828(3)
H3_4 H 0.139083 0.141861 0.962557
H6_4 H 0.416978 0.220818 0.996540
N11_2 N 0.4577(10) 0.2263(3) 0.9193(3)
O3_4 O 0.198(2) 0.9690(4) 0.2077(4)
N9_4 N 0.3262(17) 0.9664(4) 0.1538(3)
H4_4 H 0.382987 0.982654 0.140904
C9_4 C 0.316(2) 0.9225(4) 0.1406(4)
C10_4 C 0.2040(16) 0.8547(4) 0.1379(4)
H9_4 H 0.135084 0.836379 0.146827
C18_4 C 0.2186(18) 0.8953(5) 0.1554(4)
H13_4 H 0.164444 0.904351 0.176738
C19_4 C 0.3776(16) 0.8681(4) 0.0966(4)
H14_4 H 0.437362 0.858694 0.076851
C20_4 C 0.260(2) 0.9878(4) 0.1843(4)
C23_4 C 0.3907(18) 0.9089(4) 0.1112(5)
H15_4 H 0.454416 0.928095 0.100389
Au1_4 Au 0.75987(4) 0.21899(2) 0.92190(2)
C1_4 C 0.5688(13) 0.2240(4) 0.9204(3)
C2_4 C 0.9540(12) 0.2139(4) 0.9224(3)
Au1_5 Au 0.25987(4) 0.28101(2) 0.07810(2)
Fe1 Fe 0.75992(13) 0.27986(4) 0.07933(4)
N1_5 N 0.5640(10) 0.2858(3) 0.0782(3)
N3_5 N 0.7442(10) 0.2234(3) 0.0487(3)
N4_5 N 0.7704(10) 0.3132(3) 0.0245(2)
C1_5 C 0.0688(13) 0.2760(4) 0.0796(3)
C2_5 C 0.4540(12) 0.2861(4) 0.0776(3)
C3_5 C 0.7325(14) 0.1936(4) 0.0266(3)
C4_5 C 0.6950(16) 0.3475(4) 0.0172(3)
H3_5 H 0.639083 0.358139 0.037443
H6_5 H 0.916978 0.279182 0.003460
N11_3 N 0.9577(10) 0.2737(3) 0.0807(3)
N12_3 N 0.7836(12) 0.3393(3) 0.1084(3)
N13_3 N 0.7439(11) 0.2454(3) 0.1331(3)
Au2_5 Au 0.71370(7) 0.14478(2) 0.98941(2)
O1_5 O 0.8782(12) 0.3269(3) 0.8783(2)
N5_3 N 0.7836(12) 0.6607(3) 0.8916(3)
N6_3 N 0.7561(11) 0.2546(3) 0.6331(3)
O2_5 O 0.8521(15) 0.3979(3) 0.7067(3)
O3_5 O 0.698(2) 0.5310(4) 0.7923(4)
N7_5 N 0.7867(12) 0.3804(3) 0.9162(2)
H1_5 H 0.754459 0.407184 0.916277
N8_5 N 0.7744(12) 0.3349(4) 0.7330(3)
H2_5 H 0.745407 0.323142 0.755071
N9_5 N 0.8262(17) 0.5336(4) 0.8462(3)
H4_5 H 0.882987 0.517346 0.859096
C5_5 C 0.8039(15) 0.4393(3) 0.8494(3)
H5_5 H 0.800481 0.453196 0.874551
C6_5 C 0.8583(13) 0.3024(4) 0.9974(3)
C7_5 C 0.8701(12) 0.3224(4) 0.9613(3)
H7_5 H 0.935074 0.313570 0.942898
C8_5 C 0.8416(12) 0.2877(4) 0.6345(3)
H8_5 H 0.897493 0.292433 0.612449
C9_5 C 0.816(2) 0.5775(4) 0.8594(4)
C10_5 C 0.7040(16) 0.6453(4) 0.8621(4)
H9_5 H 0.635084 0.663621 0.853173
C11_5 C 0.8291(13) 0.3743(4) 0.8100(3)
H10_5 H 0.845709 0.343673 0.808070
C12_5 C 0.7823(13) 0.3565(3) 0.9523(3)
C13_5 C 0.6954(15) 0.3682(4) 0.9811(3)
H11_5 H 0.634194 0.390916 0.976004
C14_5 C 0.8356(12) 0.3654(4) 0.8821(3)
C15_5 C 0.8214(14) 0.3939(3) 0.8461(3)
C16_5 C 0.7724(13) 0.3086(4) 0.7006(3)
C17_5 C 0.6875(16) 0.2727(4) 0.6987(4)
H12_5 H 0.630553 0.266175 0.720115
C18_5 C 0.7186(18) 0.6047(5) 0.8446(4)
H13_5 H 0.664444 0.595649 0.823262
C19_5 C 0.8776(16) 0.6319(4) 0.9034(4)
H14_5 H 0.937362 0.641306 0.923149
C20_5 C 0.760(2) 0.5122(4) 0.8157(4)
C21_5 C 0.8171(12) 0.3786(4) 0.7356(3)
C22_5 C 0.7915(19) 0.4638(4) 0.8142(4)
C23_5 C 0.8907(18) 0.5911(4) 0.8888(5)
H15_5 H 0.954416 0.571905 0.899611
C24_5 C 0.7942(19) 0.4429(5) 0.7779(4)
H16_5 H 0.782911 0.459601 0.754443
C25_5 C 0.8123(16) 0.3998(4) 0.7753(3)
C26_5 C 0.8516(14) 0.3157(5) 0.6675(3)
H17_5 H 0.911828 0.339442 0.667306
C27_5 C 0.6884(16) 0.2469(4) 0.6652(4)
H18_5 H 0.635353 0.221299 0.665339
C28_5 C 0.689(3) 0.0926(7) 0.9557(6)
N10_5 N 0.680(4) 0.0636(7) 0.9366(9)
Fe3_2 Fe 0.75992(13) 0.72014(4) 0.92067(4)
Fe4_3 Fe 0.74008(13) 0.22014(4) 0.57933(4)
Au2_6 Au 0.71370(7) 0.85522(2) 0.01059(2)
O1_6 O 0.8782(12) 0.6731(3) 0.1217(2)
N6_4 N 0.7561(11) 0.7454(3) 0.3669(3)
O2_6 O 0.8521(15) 0.6021(3) 0.2933(3)
O3_6 O 0.698(2) 0.4690(4) 0.2077(4)
N7_6 N 0.7867(12) 0.6196(3) 0.0838(2)
H1_6 H 0.754459 0.592816 0.083723
N8_6 N 0.7744(12) 0.6651(4) 0.2670(3)
H2_6 H 0.745407 0.676858 0.244929
N9_6 N 0.8262(17) 0.4664(4) 0.1538(3)
H4_6 H 0.882987 0.482654 0.140904
C5_6 C 0.8039(15) 0.5607(3) 0.1506(3)
H5_6 H 0.800481 0.546804 0.125449
C6_6 C 0.8583(13) 0.6976(4) 0.0026(3)
C7_6 C 0.8701(12) 0.6776(4) 0.0387(3)
H7_6 H 0.935074 0.686430 0.057102
C8_6 C 0.8416(12) 0.7123(4) 0.3655(3)
H8_6 H 0.897493 0.707567 0.387551
C9_6 C 0.816(2) 0.4225(4) 0.1406(4)
C10_6 C 0.7040(16) 0.3547(4) 0.1379(4)
H9_6 H 0.635084 0.336379 0.146827
C11_6 C 0.8291(13) 0.6257(4) 0.1900(3)
H10_6 H 0.845709 0.656327 0.191930
C12_6 C 0.7823(13) 0.6435(3) 0.0477(3)
C13_6 C 0.6954(15) 0.6318(4) 0.0189(3)
H11_6 H 0.634194 0.609084 0.023996
C14_6 C 0.8356(12) 0.6346(4) 0.1179(3)
C15_6 C 0.8214(14) 0.6061(3) 0.1539(3)
C16_6 C 0.7724(13) 0.6914(4) 0.2994(3)
C17_6 C 0.6875(16) 0.7273(4) 0.3013(4)
H12_6 H 0.630553 0.733825 0.279885
C18_6 C 0.7186(18) 0.3953(5) 0.1554(4)
H13_6 H 0.664444 0.404351 0.176738
C19_6 C 0.8776(16) 0.3681(4) 0.0966(4)
H14_6 H 0.937362 0.358694 0.076851
C20_6 C 0.760(2) 0.4878(4) 0.1843(4)
C21_6 C 0.8171(12) 0.6214(4) 0.2644(3)
C22_6 C 0.7915(19) 0.5362(4) 0.1858(4)
C23_6 C 0.8907(18) 0.4089(4) 0.1112(5)
H15_6 H 0.954416 0.428095 0.100389
C24_6 C 0.7942(19) 0.5571(5) 0.2221(4)
H16_6 H 0.782911 0.540399 0.245557
C25_6 C 0.8123(16) 0.6002(4) 0.2247(3)
C26_6 C 0.8516(14) 0.6843(5) 0.3325(3)
H17_6 H 0.911828 0.660558 0.332694
C27_6 C 0.6884(16) 0.7531(4) 0.3348(4)
H18_6 H 0.635353 0.778701 0.334661
C28_6 C 0.689(3) 0.9074(7) 0.0443(6)
N10_6 N 0.680(4) 0.9364(7) 0.0634(9)
Fe4_4 Fe 0.74008(13) 0.77986(4) 0.42067(4)
Au1_6 Au 0.25987(4) 0.71899(2) 0.92190(2)
N1_6 N 0.5640(10) 0.7142(3) 0.9218(3)
N3_6 N 0.7442(10) 0.7766(3) 0.9513(3)
N4_6 N 0.7704(10) 0.6868(3) 0.9755(2)
C1_6 C 0.0688(13) 0.7240(4) 0.9204(3)
C2_6 C 0.4540(12) 0.7139(4) 0.9224(3)
C3_6 C 0.7325(14) 0.8064(4) 0.9734(3)
C4_6 C 0.6950(16) 0.6525(4) 0.9828(3)
H3_6 H 0.639083 0.641861 0.962557
H6_6 H 0.916978 0.720818 0.996540
N11_4 N 0.9577(10) 0.7263(3) 0.9193(3)
N13_4 N 0.7439(11) 0.7546(3) 0.8669(3)
Au1_7 Au 0.24013(4) 0.21899(2) 0.57810(2)
N2_3 N 0.5423(10) 0.2263(3) 0.5807(3)
C1_7 C 0.4312(13) 0.2240(4) 0.5796(3)
C2_7 C 0.0460(12) 0.2139(4) 0.5776(3)
Au2_7 Au 0.78630(7) 0.35522(2) 0.48941(2)
N1_7 N 0.9360(10) 0.2142(3) 0.5782(3)
N3_7 N 0.7558(10) 0.2766(3) 0.5487(3)
N4_7 N 0.7296(10) 0.1868(3) 0.5245(2)
O1_7 O 0.6218(12) 0.1731(3) 0.3783(2)
O2_7 O 0.6479(15) 0.1021(3) 0.2067(3)
C3_7 C 0.7675(14) 0.3064(4) 0.5266(3)
N7_7 N 0.7133(12) 0.1196(3) 0.4162(2)
H1_7 H 0.745541 0.092816 0.416277
N8_7 N 0.7256(12) 0.1651(4) 0.2330(3)
H2_7 H 0.754593 0.176858 0.255071
C4_7 C 0.8050(16) 0.1525(4) 0.5172(3)
H3_7 H 0.860917 0.141861 0.537443
C5_7 C 0.6961(15) 0.0607(3) 0.3494(3)
H5_7 H 0.699519 0.046804 0.374551
C6_7 C 0.6417(13) 0.1976(4) 0.4974(3)
H6_7 H 0.583022 0.220818 0.503460
C7_7 C 0.6299(12) 0.1776(4) 0.4613(3)
H7_7 H 0.564926 0.186430 0.442898
C8_7 C 0.6584(12) 0.2123(4) 0.1345(3)
H8_7 H 0.602507 0.207567 0.112449
C11_7 C 0.6709(13) 0.1257(4) 0.3100(3)
H10_7 H 0.654291 0.156327 0.308070
C12_7 C 0.7177(13) 0.1435(3) 0.4523(3)
C13_7 C 0.8046(15) 0.1318(4) 0.4811(3)
H11_7 H 0.865806 0.109084 0.476004
C14_7 C 0.6644(12) 0.1346(4) 0.3821(3)
C15_7 C 0.6786(14) 0.1061(3) 0.3461(3)
C16_7 C 0.7276(13) 0.1914(4) 0.2006(3)
C17_7 C 0.8125(16) 0.2273(4) 0.1987(4)
H12_7 H 0.869447 0.233825 0.220115
C21_7 C 0.6829(12) 0.1214(4) 0.2356(3)
C22_7 C 0.7085(19) 0.0362(4) 0.3142(4)
C24_7 C 0.7058(19) 0.0571(5) 0.2779(4)
H16_7 H 0.717089 0.040399 0.254443
C25_7 C 0.6877(16) 0.1002(4) 0.2753(3)
C26_7 C 0.6484(14) 0.1843(5) 0.1675(3)
H17_7 H 0.588172 0.160558 0.167306
C27_7 C 0.8116(16) 0.2531(4) 0.1652(4)
H18_7 H 0.864647 0.278701 0.165339
C28_7 C 0.811(3) 0.4074(7) 0.4557(6)
N10_7 N 0.820(4) 0.4364(7) 0.4366(9)
N12_4 N 0.7164(12) 0.1607(3) 0.6084(3)
N5_4 N 0.7164(12) 0.8393(3) 0.3916(3)
O3_7 O 0.802(2) 0.9690(4) 0.2923(4)
N9_7 N 0.6738(17) 0.9664(4) 0.3462(3)
H4_7 H 0.617013 0.982654 0.359096
C9_7 C 0.684(2) 0.9225(4) 0.3594(4)
C10_7 C 0.7960(16) 0.8547(4) 0.3621(4)
H9_7 H 0.864916 0.836379 0.353173
C18_7 C 0.7814(18) 0.8953(5) 0.3446(4)
H13_7 H 0.835556 0.904351 0.323262
C19_7 C 0.6224(16) 0.8681(4) 0.4034(4)
H14_7 H 0.562638 0.858694 0.423149
C20_7 C 0.740(2) 0.9878(4) 0.3157(4)
C23_7 C 0.6093(18) 0.9089(4) 0.3888(5)
H15_7 H 0.545584 0.928095 0.399611
Au1_8 Au 0.24013(4) 0.78101(2) 0.42190(2)
N2_4 N 0.5423(10) 0.7737(3) 0.4193(3)
C1_8 C 0.4312(13) 0.7760(4) 0.4204(3)
C2_8 C 0.0460(12) 0.7861(4) 0.4224(3)
O3_8 O 0.802(2) 0.0310(4) 0.7077(4)
N9_8 N 0.6738(17) 0.0336(4) 0.6538(3)
H4_8 H 0.617013 0.017346 0.640904
C9_8 C 0.684(2) 0.0775(4) 0.6406(4)
C10_8 C 0.7960(16) 0.1453(4) 0.6379(4)
H9_8 H 0.864916 0.163621 0.646827
C18_8 C 0.7814(18) 0.1047(5) 0.6554(4)
H13_8 H 0.835556 0.095649 0.676738
C19_8 C 0.6224(16) 0.1319(4) 0.5966(4)
H14_8 H 0.562638 0.141306 0.576851
C20_8 C 0.740(2) 0.0122(4) 0.6843(4)
C23_8 C 0.6093(18) 0.0911(4) 0.6112(5)
H15_8 H 0.545584 0.071905 0.600389
Au2_8 Au 0.78630(7) 0.64478(2) 0.51059(2)
N1_8 N 0.9360(10) 0.7858(3) 0.4218(3)
N3_8 N 0.7558(10) 0.7234(3) 0.4513(3)
N4_8 N 0.7296(10) 0.8132(3) 0.4755(2)
O1_8 O 0.6218(12) 0.8269(3) 0.6217(2)
O2_8 O 0.6479(15) 0.8979(3) 0.7933(3)
C3_8 C 0.7675(14) 0.6936(4) 0.4734(3)
N7_8 N 0.7133(12) 0.8804(3) 0.5838(2)
H1_8 H 0.745541 0.907184 0.583723
N8_8 N 0.7256(12) 0.8349(4) 0.7670(3)
H2_8 H 0.754593 0.823142 0.744929
C4_8 C 0.8050(16) 0.8475(4) 0.4828(3)
H3_8 H 0.860917 0.858139 0.462557
C5_8 C 0.6961(15) 0.9393(3) 0.6506(3)
H5_8 H 0.699519 0.953196 0.625449
C6_8 C 0.6417(13) 0.8024(4) 0.5026(3)
H6_8 H 0.583022 0.779182 0.496540
C7_8 C 0.6299(12) 0.8224(4) 0.5387(3)
H7_8 H 0.564926 0.813570 0.557102
C8_8 C 0.6584(12) 0.7877(4) 0.8655(3)
H8_8 H 0.602507 0.792433 0.887551
C11_8 C 0.6709(13) 0.8743(4) 0.6900(3)
H10_8 H 0.654291 0.843673 0.691930
C12_8 C 0.7177(13) 0.8565(3) 0.5477(3)
C13_8 C 0.8046(15) 0.8682(4) 0.5189(3)
H11_8 H 0.865806 0.890916 0.523996
C14_8 C 0.6644(12) 0.8654(4) 0.6179(3)
C15_8 C 0.6786(14) 0.8939(3) 0.6539(3)
C16_8 C 0.7276(13) 0.8086(4) 0.7994(3)
C17_8 C 0.8125(16) 0.7727(4) 0.8013(4)
H12_8 H 0.869447 0.766175 0.779885
C21_8 C 0.6829(12) 0.8786(4) 0.7644(3)
C22_8 C 0.7085(19) 0.9638(4) 0.6858(4)
C24_8 C 0.7058(19) 0.9429(5) 0.7221(4)
H16_8 H 0.717089 0.959601 0.745557
C25_8 C 0.6877(16) 0.8998(4) 0.7247(3)
C26_8 C 0.6484(14) 0.8157(5) 0.8325(3)
H17_8 H 0.588172 0.839442 0.832694
C27_8 C 0.8116(16) 0.7469(4) 0.8348(4)
H18_8 H 0.864647 0.721299 0.834661
C28_8 C 0.811(3) 0.5926(7) 0.5443(6)
N10_8 N 0.820(4) 0.5636(7) 0.5634(9)
loop_
_geom_bond_atom_site_label_1
_geom_bond_atom_site_label_2
_geom_bond_site_symmetry_1
_geom_bond_site_symmetry_2
Fe2 N2 1_555 1_555
Au1 C1 1_555 1_555
Au2 C3 1_555 1_555
Fe2 N1 1_555 1_555
N1 C2 1_555 1_555
N3 Fe2 1_555 1_555
N4 Fe2 1_555 1_555
O1 C14 1_555 1_555
N5 C10 1_555 1_555
N6 C8 1_555 1_555
O2 C21 1_555 1_555
C2 Au1 1_555 1_555
C3 N3 1_555 1_555
O3 C20 1_555 1_555
N7 H1 1_555 1_555
N8 H2 1_555 1_555
C4 N4 1_555 1_555
H3 C4 1_555 1_555
N9 H4 1_555 1_555
C5 H5 1_555 1_555
C6 N4 1_555 1_555
H6 C6 1_555 1_555
C7 C6 1_555 1_555
H7 C7 1_555 1_555
C8 H8 1_555 1_555
C9 N9 1_555 1_555
C10 H9 1_555 1_555
C11 H10 1_555 1_555
C12 N7 1_555 1_555
C13 C4 1_555 1_555
H11 C13 1_555 1_555
C14 N7 1_555 1_555
C15 C5 1_555 1_555
C16 N8 1_555 1_555
C17 C16 1_555 1_555
H12 C17 1_555 1_555
C18 C9 1_555 1_555
H13 C18 1_555 1_555
C19 N5 1_555 1_555
H14 C19 1_555 1_555
C20 N9 1_555 1_555
C21 N8 1_555 1_555
C22 C5 1_555 1_555
C23 C9 1_555 1_555
H15 C23 1_555 1_555
C24 C22 1_555 1_555
H16 C24 1_555 1_555
C25 C11 1_555 1_555
C26 C8 1_555 1_555
H17 C26 1_555 1_555
C27 N6 1_555 1_555
H18 C27 1_555 1_555
C28 Au2 1_555 1_555
N10 C28 1_555 1_555
Fe3 N5 1_555 1_555
Fe4 N6 1_555 1_555
N12 Fe2 1_555 1_555
N13 Fe2 1_555 1_555
C7 C12 1_555 1_555
C10 C18 1_555 1_555
C11 C15 1_555 1_555
C12 C13 1_555 1_555
C14 C15 1_555 1_555
C16 C26 1_555 1_555
C17 C27 1_555 1_555
C19 C23 1_555 1_555
C20 C22 1_555 1_555
C21 C25 1_555 1_555
C24 C25 1_555 1_555
Fe3 N2_2 1_555 1_555
Au1_2 C1_2 1_555 1_555
Au2_2 C3_2 1_555 1_555
Fe3 N1_2 1_555 1_555
N1_2 C2_2 1_555 1_555
N3_2 Fe3 1_555 1_555
N4_2 Fe3 1_555 1_555
O1_2 C14_2 1_555 1_555
N12 C10_2 1_555 1_555
N6_2 C8_2 1_555 1_555
O2_2 C21_2 1_555 1_555
C2_2 Au1_2 1_555 1_555
C3_2 N3_2 1_555 1_555
O3_2 C20_2 1_555 1_555
N7_2 H1_2 1_555 1_555
N8_2 H2_2 1_555 1_555
C4_2 N4_2 1_555 1_555
H3_2 C4_2 1_555 1_555
N9_2 H4_2 1_555 1_555
C5_2 H5_2 1_555 1_555
C6_2 N4_2 1_555 1_555
H6_2 C6_2 1_555 1_555
C7_2 C6_2 1_555 1_555
H7_2 C7_2 1_555 1_555
C8_2 H8_2 1_555 1_555
C9_2 N9_2 1_555 1_555
C10_2 H9_2 1_555 1_555
C11_2 H10_2 1_555 1_555
C12_2 N7_2 1_555 1_555
C13_2 C4_2 1_555 1_555
H11_2 C13_2 1_555 1_555
C14_2 N7_2 1_555 1_555
C15_2 C5_2 1_555 1_555
C16_2 N8_2 1_555 1_555
C17_2 C16_2 1_555 1_555
H12_2 C17_2 1_555 1_555
C18_2 C9_2 1_555 1_555
H13_2 C18_2 1_555 1_555
C19_2 N12 1_555 1_555
H14_2 C19_2 1_555 1_555
C20_2 N9_2 1_555 1_555
C21_2 N8_2 1_555 1_555
C22_2 C5_2 1_555 1_555
C23_2 C9_2 1_555 1_555
H15_2 C23_2 1_555 1_555
C24_2 C22_2 1_555 1_555
H16_2 C24_2 1_555 1_555
C25_2 C11_2 1_555 1_555
C26_2 C8_2 1_555 1_555
H17_2 C26_2 1_555 1_555
C27_2 N6_2 1_555 1_555
H18_2 C27_2 1_555 1_555
C28_2 Au2_2 1_555 1_555
N10_2 C28_2 1_555 1_555
Fe4_2 N6_2 1_555 1_555
N13_2 Fe3 1_555 1_555
C7_2 C12_2 1_555 1_555
C10_2 C18_2 1_555 1_555
C11_2 C15_2 1_555 1_555
C12_2 C13_2 1_555 1_555
C14_2 C15_2 1_555 1_555
C16_2 C26_2 1_555 1_555
C17_2 C27_2 1_555 1_555
C19_2 C23_2 1_555 1_555
C20_2 C22_2 1_555 1_555
C21_2 C25_2 1_555 1_555
C24_2 C25_2 1_555 1_555
N5_2 C10_3 1_555 1_555
O3_3 C20_3 1_555 1_555
N9_3 H4_3 1_555 1_555
C9_3 N9_3 1_555 1_555
C10_3 H9_3 1_555 1_555
C18_3 C9_3 1_555 1_555
H13_3 C18_3 1_555 1_555
C19_3 N5_2 1_555 1_555
H14_3 C19_3 1_555 1_555
C20_3 N9_3 1_555 1_555
C23_3 C9_3 1_555 1_555
H15_3 C23_3 1_555 1_555
Fe4_2 N5_2 1_555 1_555
C10_3 C18_3 1_555 1_555
C19_3 C23_3 1_555 1_555
Fe4 N1_3 1_555 1_555
N3_3 Fe4 1_555 1_555
N4_3 Fe4 1_555 1_555
C3_3 N3_3 1_555 1_555
C4_3 N4_3 1_555 1_555
H3_3 C4_3 1_555 1_555
N11 Fe4 1_555 1_555
N12_2 Fe4 1_555 1_555
O1_3 C14_3 1_555 1_555
N13 C8_3 1_555 1_555
O2_3 C21_3 1_555 1_555
N7_3 H1_3 1_555 1_555
N8_3 H2_3 1_555 1_555
C5_3 H5_3 1_555 1_555
C7_3 C6_3 1_555 1_555
H7_3 C7_3 1_555 1_555
C8_3 H8_3 1_555 1_555
C11_3 H10_3 1_555 1_555
C12_3 N7_3 1_555 1_555
H11_3 C13_3 1_555 1_555
C14_3 N7_3 1_555 1_555
C15_3 C5_3 1_555 1_555
C16_3 N8_3 1_555 1_555
C17_3 C16_3 1_555 1_555
H12_3 C17_3 1_555 1_555
C21_3 N8_3 1_555 1_555
C22_3 C5_3 1_555 1_555
C24_3 C22_3 1_555 1_555
H16_3 C24_3 1_555 1_555
C25_3 C11_3 1_555 1_555
C26_3 C8_3 1_555 1_555
H17_3 C26_3 1_555 1_555
C27_3 N13 1_555 1_555
H18_3 C27_3 1_555 1_555
C28_3 Au2_3 1_555 1_555
N10_3 C28_3 1_555 1_555
C7_3 C12_3 1_555 1_555
C11_3 C15_3 1_555 1_555
C12_3 C13_3 1_555 1_555
C14_3 C15_3 1_555 1_555
C16_3 C26_3 1_555 1_555
C17_3 C27_3 1_555 1_555
C21_3 C25_3 1_555 1_555
C24_3 C25_3 1_555 1_555
Au1_3 C1_3 1_555 1_555
N11 C1_3 1_555 1_555
C2_3 Au1_3 1_555 1_555
O1_4 C14_4 1_555 1_555
N13_2 C8_4 1_555 1_555
O2_4 C21_4 1_555 1_555
N7_4 H1_4 1_555 1_555
N8_4 H2_4 1_555 1_555
C5_4 H5_4 1_555 1_555
C7_4 C6_4 1_555 1_555
H7_4 C7_4 1_555 1_555
C8_4 H8_4 1_555 1_555
C11_4 H10_4 1_555 1_555
C12_4 N7_4 1_555 1_555
H11_4 C13_4 1_555 1_555
C14_4 N7_4 1_555 1_555
C15_4 C5_4 1_555 1_555
C16_4 N8_4 1_555 1_555
C17_4 C16_4 1_555 1_555
H12_4 C17_4 1_555 1_555
C21_4 N8_4 1_555 1_555
C22_4 C5_4 1_555 1_555
C24_4 C22_4 1_555 1_555
H16_4 C24_4 1_555 1_555
C25_4 C11_4 1_555 1_555
C26_4 C8_4 1_555 1_555
H17_4 C26_4 1_555 1_555
C27_4 N13_2 1_555 1_555
H18_4 C27_4 1_555 1_555
C28_4 Au2_4 1_555 1_555
N10_4 C28_4 1_555 1_555
C7_4 C12_4 1_555 1_555
C11_4 C15_4 1_555 1_555
C12_4 C13_4 1_555 1_555
C14_4 C15_4 1_555 1_555
C16_4 C26_4 1_555 1_555
C17_4 C27_4 1_555 1_555
C21_4 C25_4 1_555 1_555
C24_4 C25_4 1_555 1_555
Fe4_2 N1_4 1_555 1_555
N3_4 Fe4_2 1_555 1_555
N4_4 Fe4_2 1_555 1_555
C3_4 N3_4 1_555 1_555
C4_4 N4_4 1_555 1_555
H3_4 C4_4 1_555 1_555
N11_2 Fe4_2 1_555 1_555
N12_2 C10_4 1_555 1_555
O3_4 C20_4 1_555 1_555
N9_4 H4_4 1_555 1_555
C9_4 N9_4 1_555 1_555
C10_4 H9_4 1_555 1_555
C18_4 C9_4 1_555 1_555
H13_4 C18_4 1_555 1_555
C19_4 N12_2 1_555 1_555
H14_4 C19_4 1_555 1_555
C20_4 N9_4 1_555 1_555
C23_4 C9_4 1_555 1_555
H15_4 C23_4 1_555 1_555
C10_4 C18_4 1_555 1_555
C19_4 C23_4 1_555 1_555
Au1_4 C1_4 1_555 1_555
N11_2 C1_4 1_555 1_555
C2_4 Au1_4 1_555 1_555
Au1_5 C1_5 1_555 1_555
Fe1 N1_5 1_555 1_555
N1_5 C2_5 1_555 1_555
N3_5 Fe1 1_555 1_555
N4_5 Fe1 1_555 1_555
C2_5 Au1_5 1_555 1_555
C3_5 N3_5 1_555 1_555
C4_5 N4_5 1_555 1_555
H3_5 C4_5 1_555 1_555
N11_3 Fe1 1_555 1_555
N12_3 Fe1 1_555 1_555
N13_3 Fe1 1_555 1_555
O1_5 C14_5 1_555 1_555
N5_3 C10_5 1_555 1_555
N6_3 C8_5 1_555 1_555
O2_5 C21_5 1_555 1_555
O3_5 C20_5 1_555 1_555
N7_5 H1_5 1_555 1_555
N8_5 H2_5 1_555 1_555
N9_5 H4_5 1_555 1_555
C5_5 H5_5 1_555 1_555
C7_5 C6_5 1_555 1_555
H7_5 C7_5 1_555 1_555
C8_5 H8_5 1_555 1_555
C9_5 N9_5 1_555 1_555
C10_5 H9_5 1_555 1_555
C11_5 H10_5 1_555 1_555
C12_5 N7_5 1_555 1_555
H11_5 C13_5 1_555 1_555
C14_5 N7_5 1_555 1_555
C15_5 C5_5 1_555 1_555
C16_5 N8_5 1_555 1_555
C17_5 C16_5 1_555 1_555
H12_5 C17_5 1_555 1_555
C18_5 C9_5 1_555 1_555
H13_5 C18_5 1_555 1_555
C19_5 N5_3 1_555 1_555
H14_5 C19_5 1_555 1_555
C20_5 N9_5 1_555 1_555
C21_5 N8_5 1_555 1_555
C22_5 C5_5 1_555 1_555
C23_5 C9_5 1_555 1_555
H15_5 C23_5 1_555 1_555
C24_5 C22_5 1_555 1_555
H16_5 C24_5 1_555 1_555
C25_5 C11_5 1_555 1_555
C26_5 C8_5 1_555 1_555
H17_5 C26_5 1_555 1_555
C27_5 N6_3 1_555 1_555
H18_5 C27_5 1_555 1_555
C28_5 Au2_5 1_555 1_555
N10_5 C28_5 1_555 1_555
Fe3_2 N5_3 1_555 1_555
Fe4_3 N6_3 1_555 1_555
C7_5 C12_5 1_555 1_555
C10_5 C18_5 1_555 1_555
C11_5 C15_5 1_555 1_555
C12_5 C13_5 1_555 1_555
C14_5 C15_5 1_555 1_555
C16_5 C26_5 1_555 1_555
C17_5 C27_5 1_555 1_555
C19_5 C23_5 1_555 1_555
C20_5 C22_5 1_555 1_555
C21_5 C25_5 1_555 1_555
C24_5 C25_5 1_555 1_555
O1_6 C14_6 1_555 1_555
N12_3 C10_6 1_555 1_555
N6_4 C8_6 1_555 1_555
O2_6 C21_6 1_555 1_555
O3_6 C20_6 1_555 1_555
N7_6 H1_6 1_555 1_555
N8_6 H2_6 1_555 1_555
N9_6 H4_6 1_555 1_555
C5_6 H5_6 1_555 1_555
C7_6 C6_6 1_555 1_555
H7_6 C7_6 1_555 1_555
C8_6 H8_6 1_555 1_555
C9_6 N9_6 1_555 1_555
C10_6 H9_6 1_555 1_555
C11_6 H10_6 1_555 1_555
C12_6 N7_6 1_555 1_555
H11_6 C13_6 1_555 1_555
C14_6 N7_6 1_555 1_555
C15_6 C5_6 1_555 1_555
C16_6 N8_6 1_555 1_555
C17_6 C16_6 1_555 1_555
H12_6 C17_6 1_555 1_555
C18_6 C9_6 1_555 1_555
H13_6 C18_6 1_555 1_555
C19_6 N12_3 1_555 1_555
H14_6 C19_6 1_555 1_555
C20_6 N9_6 1_555 1_555
C21_6 N8_6 1_555 1_555
C22_6 C5_6 1_555 1_555
C23_6 C9_6 1_555 1_555
H15_6 C23_6 1_555 1_555
C24_6 C22_6 1_555 1_555
H16_6 C24_6 1_555 1_555
C25_6 C11_6 1_555 1_555
C26_6 C8_6 1_555 1_555
H17_6 C26_6 1_555 1_555
C27_6 N6_4 1_555 1_555
H18_6 C27_6 1_555 1_555
C28_6 Au2_6 1_555 1_555
N10_6 C28_6 1_555 1_555
Fe4_4 N6_4 1_555 1_555
C7_6 C12_6 1_555 1_555
C10_6 C18_6 1_555 1_555
C11_6 C15_6 1_555 1_555
C12_6 C13_6 1_555 1_555
C14_6 C15_6 1_555 1_555
C16_6 C26_6 1_555 1_555
C17_6 C27_6 1_555 1_555
C19_6 C23_6 1_555 1_555
C20_6 C22_6 1_555 1_555
C21_6 C25_6 1_555 1_555
C24_6 C25_6 1_555 1_555
Au1_6 C1_6 1_555 1_555
Fe3_2 N1_6 1_555 1_555
N1_6 C2_6 1_555 1_555
N3_6 Fe3_2 1_555 1_555
N4_6 Fe3_2 1_555 1_555
C2_6 Au1_6 1_555 1_555
C3_6 N3_6 1_555 1_555
C4_6 N4_6 1_555 1_555
H3_6 C4_6 1_555 1_555
N11_4 Fe3_2 1_555 1_555
N13_4 Fe3_2 1_555 1_555
Au1_7 C1_7 1_555 1_555
N2_3 C1_7 1_555 1_555
C2_7 Au1_7 1_555 1_555
Fe4_3 N2_3 1_555 1_555
Au2_7 C3_7 1_555 1_555
Fe4_3 N1_7 1_555 1_555
N3_7 Fe4_3 1_555 1_555
N4_7 Fe4_3 1_555 1_555
O1_7 C14_7 1_555 1_555
N13_3 C8_7 1_555 1_555
O2_7 C21_7 1_555 1_555
C3_7 N3_7 1_555 1_555
N7_7 H1_7 1_555 1_555
N8_7 H2_7 1_555 1_555
C4_7 N4_7 1_555 1_555
H3_7 C4_7 1_555 1_555
C5_7 H5_7 1_555 1_555
C6_7 N4_7 1_555 1_555
H6_7 C6_7 1_555 1_555
C7_7 C6_7 1_555 1_555
H7_7 C7_7 1_555 1_555
C8_7 H8_7 1_555 1_555
C11_7 H10_7 1_555 1_555
C12_7 N7_7 1_555 1_555
C13_7 C4_7 1_555 1_555
H11_7 C13_7 1_555 1_555
C14_7 N7_7 1_555 1_555
C15_7 C5_7 1_555 1_555
C16_7 N8_7 1_555 1_555
C17_7 C16_7 1_555 1_555
H12_7 C17_7 1_555 1_555
C21_7 N8_7 1_555 1_555
C22_7 C5_7 1_555 1_555
C24_7 C22_7 1_555 1_555
H16_7 C24_7 1_555 1_555
C25_7 C11_7 1_555 1_555
C26_7 C8_7 1_555 1_555
H17_7 C26_7 1_555 1_555
C27_7 N13_3 1_555 1_555
H18_7 C27_7 1_555 1_555
C28_7 Au2_7 1_555 1_555
N10_7 C28_7 1_555 1_555
N12_4 Fe4_3 1_555 1_555
C7_7 C12_7 1_555 1_555
C11_7 C15_7 1_555 1_555
C12_7 C13_7 1_555 1_555
C14_7 C15_7 1_555 1_555
C16_7 C26_7 1_555 1_555
C17_7 C27_7 1_555 1_555
C21_7 C25_7 1_555 1_555
C24_7 C25_7 1_555 1_555
N5_4 C10_7 1_555 1_555
O3_7 C20_7 1_555 1_555
N9_7 H4_7 1_555 1_555
C9_7 N9_7 1_555 1_555
C10_7 H9_7 1_555 1_555
C18_7 C9_7 1_555 1_555
H13_7 C18_7 1_555 1_555
C19_7 N5_4 1_555 1_555
H14_7 C19_7 1_555 1_555
C20_7 N9_7 1_555 1_555
C23_7 C9_7 1_555 1_555
H15_7 C23_7 1_555 1_555
Fe4_4 N5_4 1_555 1_555
C10_7 C18_7 1_555 1_555
C19_7 C23_7 1_555 1_555
Au1_8 C1_8 1_555 1_555
N2_4 C1_8 1_555 1_555
C2_8 Au1_8 1_555 1_555
Fe4_4 N2_4 1_555 1_555
N12_4 C10_8 1_555 1_555
O3_8 C20_8 1_555 1_555
N9_8 H4_8 1_555 1_555
C9_8 N9_8 1_555 1_555
C10_8 H9_8 1_555 1_555
C18_8 C9_8 1_555 1_555
H13_8 C18_8 1_555 1_555
C19_8 N12_4 1_555 1_555
H14_8 C19_8 1_555 1_555
C20_8 N9_8 1_555 1_555
C23_8 C9_8 1_555 1_555
H15_8 C23_8 1_555 1_555
C10_8 C18_8 1_555 1_555
C19_8 C23_8 1_555 1_555
Au2_8 C3_8 1_555 1_555
Fe4_4 N1_8 1_555 1_555
N3_8 Fe4_4 1_555 1_555
N4_8 Fe4_4 1_555 1_555
O1_8 C14_8 1_555 1_555
N13_4 C8_8 1_555 1_555
O2_8 C21_8 1_555 1_555
C3_8 N3_8 1_555 1_555
N7_8 H1_8 1_555 1_555
N8_8 H2_8 1_555 1_555
C4_8 N4_8 1_555 1_555
H3_8 C4_8 1_555 1_555
C5_8 H5_8 1_555 1_555
C6_8 N4_8 1_555 1_555
H6_8 C6_8 1_555 1_555
C7_8 C6_8 1_555 1_555
H7_8 C7_8 1_555 1_555
C8_8 H8_8 1_555 1_555
C11_8 H10_8 1_555 1_555
C12_8 N7_8 1_555 1_555
C13_8 C4_8 1_555 1_555
H11_8 C13_8 1_555 1_555
C14_8 N7_8 1_555 1_555
C15_8 C5_8 1_555 1_555
C16_8 N8_8 1_555 1_555
C17_8 C16_8 1_555 1_555
H12_8 C17_8 1_555 1_555
C21_8 N8_8 1_555 1_555
C22_8 C5_8 1_555 1_555
C24_8 C22_8 1_555 1_555
H16_8 C24_8 1_555 1_555
C25_8 C11_8 1_555 1_555
C26_8 C8_8 1_555 1_555
H17_8 C26_8 1_555 1_555
C27_8 N13_4 1_555 1_555
H18_8 C27_8 1_555 1_555
C28_8 Au2_8 1_555 1_555
N10_8 C28_8 1_555 1_555
C7_8 C12_8 1_555 1_555
C11_8 C15_8 1_555 1_555
C12_8 C13_8 1_555 1_555
C14_8 C15_8 1_555 1_555
C16_8 C26_8 1_555 1_555
C17_8 C27_8 1_555 1_555
C21_8 C25_8 1_555 1_555
C24_8 C25_8 1_555 1_555

#END
