
###############################################################################
#
# This file contains modified crystal structure data generated from the
# MOF subset of the Cambridge Structural Database (CSD) v543 
# hosted by the Cambridge Crystallographic Data Centre (CCDC).
#
# This work is licensed under the Creative Commons
# Attribution-NonCommercial-ShareAlike 4.0 International License.
# To view a copy of this license, visit
# http://creativecommons.org/licenses/by-nc-sa/4.0/
# or send a letter to
# Creative Commons, PO Box 1866, Mountain View, CA 94042, USA.
#
# CIF created using the CSD Python API on 29 September 2022
# The structure has been converted into the P1 space group
# The structure has a 3D framework
# The original CSD entry WAMCAS12 is in the orthorhombic crystal system
# The original CSD entry WAMCAS12 is in a Sohncke space group
# The framework has been calculated to contain at least 10.0% void space
# The void calculation uses a probe of radius 1.32A, grid spacing 0.4
#
###############################################################################

data_WAMCAS12
_chemical_formula_moiety         '(C224 H144 Au16 Fe8 N76 O24)n'
_symmetry_cell_setting           triclinic
_symmetry_space_group_name_H-M   'P 1'
_symmetry_Int_Tables_number      1
_space_group_name_Hall           'P 1'
loop_
_symmetry_equiv_pos_site_id
_symmetry_equiv_pos_as_xyz
1 x,y,z
_cell_length_a                   10.424(2)
_cell_length_b                   30.568(6)
_cell_length_c                   34.109(7)
_cell_angle_alpha                90
_cell_angle_beta                 90
_cell_angle_gamma                90
_cell_volume                     10868.5
loop_
_atom_site_label
_atom_site_type_symbol
_atom_site_fract_x
_atom_site_fract_y
_atom_site_fract_z
N2 N 0.0364(16) 0.7268(6) 0.5817(5)
Fe2 Fe 0.2420(2) 0.72122(8) 0.57930(6)
Au1 Au 0.74196(8) 0.71973(3) 0.57821(2)
Au2 Au 0.28829(17) 0.85641(4) 0.48725(3)
N1 N 0.4445(14) 0.7163(5) 0.5766(5)
N3 N 0.256(2) 0.7803(5) 0.5466(5)
N4 N 0.2287(19) 0.6874(5) 0.5226(4)
O1 O 0.122(2) 0.6724(5) 0.3782(4)
N5 N 0.220(2) 0.3411(5) 0.3902(4)
N6 N 0.242(2) 0.7433(6) 0.1339(4)
C1 C 0.9425(17) 0.7249(7) 0.5804(6)
O2 O 0.157(3) 0.6012(6) 0.2084(5)
C2 C 0.269(3) 0.8071(6) 0.5265(7)
O3 O 0.313(3) 0.4709(6) 0.2956(6)
N7 N 0.216(2) 0.6205(6) 0.4156(4)
H1 H 0.251636 0.594677 0.415959
N8 N 0.219(3) 0.6642(6) 0.2351(4)
H2 H 0.237693 0.676983 0.257199
C3 C 0.307(3) 0.6540(6) 0.5145(6)
H3 H 0.363171 0.643627 0.533931
N9 N 0.176(3) 0.4677(6) 0.3479(6)
H4 H 0.120558 0.483460 0.360753
C4 C 0.198(3) 0.5615(6) 0.3490(5)
H5 H 0.200437 0.548214 0.373840
C5 C 0.145(2) 0.6970(6) 0.4981(5)
H6 H 0.089055 0.720008 0.504136
C6 C 0.1289(19) 0.6752(6) 0.4608(6)
H7 H 0.059230 0.681497 0.444240
C7 C 0.153(2) 0.7119(7) 0.1373(6)
H8 H 0.093376 0.708337 0.116911
C8 C 0.184(3) 0.4266(7) 0.3574(7)
C9 C 0.301(3) 0.3569(8) 0.3633(7)
H9 H 0.373602 0.340200 0.356425
C10 C 0.172(2) 0.6264(7) 0.3104(6)
H10 H 0.163694 0.656878 0.307842
C11 C 0.218(2) 0.6454(7) 0.4511(5)
C12 C 0.306(3) 0.6351(8) 0.4788(6)
H11 H 0.368050 0.613893 0.473028
C13 C 0.163(3) 0.6341(7) 0.3814(6)
C14 C 0.173(3) 0.6071(6) 0.3470(6)
C15 C 0.230(4) 0.6893(7) 0.2011(5)
C16 C 0.314(3) 0.7246(8) 0.1997(6)
H12 H 0.370015 0.730592 0.220678
C17 C 0.282(3) 0.3972(8) 0.3453(7)
H13 H 0.335956 0.405240 0.324335
C18 C 0.128(3) 0.3698(7) 0.4030(9)
H14 H 0.075716 0.361024 0.423976
C19 C 0.250(4) 0.4894(8) 0.3177(6)
C20 C 0.182(2) 0.6215(8) 0.2369(5)
C21 C 0.217(4) 0.5353(7) 0.3162(7)
C22 C 0.108(2) 0.4100(6) 0.3873(7)
H15 H 0.040594 0.427239 0.397027
C23 C 0.202(4) 0.5577(8) 0.2792(7)
H16 H 0.205591 0.541533 0.255832
C24 C 0.184(3) 0.6003(7) 0.2774(5)
C25 C 0.145(2) 0.6834(8) 0.1703(6)
H17 H 0.083502 0.661000 0.171221
C26 C 0.312(3) 0.7502(7) 0.1670(6)
H18 H 0.365395 0.775105 0.167287
C27 C 0.317(4) 0.9086(10) 0.4502(10)
N10 N 0.336(7) 0.9386(16) 0.4382(14)
C28 C 0.5448(19) 0.7157(7) 0.5781(6)
Fe3 Fe 0.2420(2) 0.27878(8) 0.42070(6)
Fe4 Fe 0.2580(2) 0.77878(8) 0.07930(6)
N12 N 0.220(2) 0.6589(5) 0.6098(4)
N13 N 0.258(2) 0.7567(6) 0.6339(4)
N2_2 N 0.0364(16) 0.2732(6) 0.4183(5)
Au1_2 Au 0.74196(8) 0.28027(3) 0.42179(2)
Au2_2 Au 0.28829(17) 0.14359(4) 0.51275(3)
N1_2 N 0.4445(14) 0.2837(5) 0.4234(5)
N3_2 N 0.256(2) 0.2197(5) 0.4534(5)
N4_2 N 0.2287(19) 0.3126(5) 0.4774(4)
O1_2 O 0.122(2) 0.3276(5) 0.6218(4)
N6_2 N 0.242(2) 0.2567(6) 0.8661(4)
C1_2 C 0.9425(17) 0.2751(7) 0.4196(6)
O2_2 O 0.157(3) 0.3988(6) 0.7916(5)
C2_2 C 0.269(3) 0.1929(6) 0.4735(7)
O3_2 O 0.313(3) 0.5291(6) 0.7044(6)
N7_2 N 0.216(2) 0.3795(6) 0.5844(4)
H1_2 H 0.251636 0.405323 0.584041
N8_2 N 0.219(3) 0.3358(6) 0.7649(4)
H2_2 H 0.237693 0.323017 0.742801
C3_2 C 0.307(3) 0.3460(6) 0.4855(6)
H3_2 H 0.363171 0.356373 0.466069
N9_2 N 0.176(3) 0.5323(6) 0.6521(6)
H4_2 H 0.120558 0.516540 0.639247
C4_2 C 0.198(3) 0.4385(6) 0.6510(5)
H5_2 H 0.200437 0.451786 0.626160
C5_2 C 0.145(2) 0.3030(6) 0.5019(5)
H6_2 H 0.089055 0.279992 0.495864
C6_2 C 0.1289(19) 0.3248(6) 0.5392(6)
H7_2 H 0.059230 0.318503 0.555760
C7_2 C 0.153(2) 0.2881(7) 0.8627(6)
H8_2 H 0.093376 0.291663 0.883089
C8_2 C 0.184(3) 0.5734(7) 0.6426(7)
C9_2 C 0.301(3) 0.6431(8) 0.6367(7)
H9_2 H 0.373602 0.659800 0.643575
C10_2 C 0.172(2) 0.3736(7) 0.6896(6)
H10_2 H 0.163694 0.343122 0.692158
C11_2 C 0.218(2) 0.3546(7) 0.5489(5)
C12_2 C 0.306(3) 0.3649(8) 0.5212(6)
H11_2 H 0.368050 0.386107 0.526972
C13_2 C 0.163(3) 0.3659(7) 0.6186(6)
C14_2 C 0.173(3) 0.3929(6) 0.6530(6)
C15_2 C 0.230(4) 0.3107(7) 0.7989(5)
C16_2 C 0.314(3) 0.2754(8) 0.8003(6)
H12_2 H 0.370015 0.269408 0.779322
C17_2 C 0.282(3) 0.6028(8) 0.6547(7)
H13_2 H 0.335956 0.594760 0.675665
C18_2 C 0.128(3) 0.6302(7) 0.5970(9)
H14_2 H 0.075716 0.638976 0.576024
C19_2 C 0.250(4) 0.5106(8) 0.6823(6)
C20_2 C 0.182(2) 0.3785(8) 0.7631(5)
C21_2 C 0.217(4) 0.4647(7) 0.6838(7)
C22_2 C 0.108(2) 0.5900(6) 0.6127(7)
H15_2 H 0.040594 0.572761 0.602973
C23_2 C 0.202(4) 0.4423(8) 0.7208(7)
H16_2 H 0.205591 0.458467 0.744168
C24_2 C 0.184(3) 0.3997(7) 0.7226(5)
C25_2 C 0.145(2) 0.3166(8) 0.8297(6)
H17_2 H 0.083502 0.339000 0.828779
C26_2 C 0.312(3) 0.2498(7) 0.8330(6)
H18_2 H 0.365395 0.224895 0.832713
C27_2 C 0.317(4) 0.0914(10) 0.5498(10)
N10_2 N 0.336(7) 0.0614(16) 0.5618(14)
C28_2 C 0.5448(19) 0.2843(7) 0.4219(6)
Fe4_2 Fe 0.2580(2) 0.22122(8) 0.92070(6)
N13_2 N 0.258(2) 0.2433(6) 0.3661(4)
N5_2 N 0.280(2) 0.1589(5) 0.8902(4)
O3_3 O 0.187(3) 0.0291(6) 0.7956(6)
N9_3 N 0.324(3) 0.0323(6) 0.8479(6)
H4_3 H 0.379442 0.016540 0.860753
C8_3 C 0.316(3) 0.0734(7) 0.8574(7)
C9_3 C 0.199(3) 0.1431(8) 0.8633(7)
H9_3 H 0.126398 0.159800 0.856425
C17_3 C 0.218(3) 0.1028(8) 0.8453(7)
H13_3 H 0.164044 0.094760 0.824335
C18_3 C 0.372(3) 0.1302(7) 0.9030(9)
H14_3 H 0.424284 0.138976 0.923976
C19_3 C 0.250(4) 0.0106(8) 0.8177(6)
C22_3 C 0.392(2) 0.0900(6) 0.8873(7)
H15_3 H 0.459406 0.072761 0.897027
N1_3 N 0.0555(14) 0.7837(5) 0.0766(5)
N3_3 N 0.244(2) 0.7197(5) 0.0466(5)
N4_3 N 0.2713(19) 0.8126(5) 0.0226(4)
C2_3 C 0.231(3) 0.6929(6) 0.0265(7)
C3_3 C 0.193(3) 0.8460(6) 0.0145(6)
H3_3 H 0.136829 0.856373 0.033931
H6_3 H 0.410945 0.779992 0.004136
N11 N 0.4636(16) 0.7732(6) 0.0817(5)
N12_2 N 0.280(2) 0.8411(5) 0.1098(4)
Au2_3 Au 0.21171(17) 0.64359(4) 0.98725(3)
O1_3 O 0.378(2) 0.8276(5) 0.8782(4)
O2_3 O 0.343(3) 0.8988(6) 0.7084(5)
N7_3 N 0.284(2) 0.8795(6) 0.9156(4)
H1_3 H 0.248364 0.905323 0.915959
N8_3 N 0.281(3) 0.8358(6) 0.7351(4)
H2_3 H 0.262307 0.823017 0.757199
C4_3 C 0.302(3) 0.9385(6) 0.8490(5)
H5_3 H 0.299563 0.951786 0.873840
C5_3 C 0.355(2) 0.8030(6) 0.9981(5)
C6_3 C 0.3711(19) 0.8248(6) 0.9608(6)
H7_3 H 0.440770 0.818503 0.944240
C7_3 C 0.347(2) 0.7881(7) 0.6373(6)
H8_3 H 0.406624 0.791663 0.616911
C10_3 C 0.328(2) 0.8736(7) 0.8104(6)
H10_3 H 0.336306 0.843122 0.807842
C11_3 C 0.282(2) 0.8546(7) 0.9511(5)
C12_3 C 0.194(3) 0.8649(8) 0.9788(6)
H11_3 H 0.131950 0.886107 0.973028
C13_3 C 0.337(3) 0.8659(7) 0.8814(6)
C14_3 C 0.327(3) 0.8929(6) 0.8470(6)
C15_3 C 0.270(4) 0.8107(7) 0.7011(5)
C16_3 C 0.186(3) 0.7754(8) 0.6997(6)
H12_3 H 0.129985 0.769408 0.720678
C20_3 C 0.318(2) 0.8785(8) 0.7369(5)
C21_3 C 0.283(4) 0.9647(7) 0.8162(7)
C23_3 C 0.298(4) 0.9423(8) 0.7792(7)
H16_3 H 0.294409 0.958467 0.755832
C24_3 C 0.316(3) 0.8997(7) 0.7774(5)
C25_3 C 0.355(2) 0.8166(8) 0.6703(6)
H17_3 H 0.416498 0.839000 0.671221
C26_3 C 0.188(3) 0.7498(7) 0.6670(6)
H18_3 H 0.134605 0.724895 0.667287
C27_3 C 0.183(4) 0.5914(10) 0.9502(10)
N10_3 N 0.164(7) 0.5614(16) 0.9382(14)
Au1_3 Au 0.75804(8) 0.78027(3) 0.07821(2)
C1_3 C 0.5575(17) 0.7751(7) 0.0804(6)
C28_3 C 0.9552(19) 0.7843(7) 0.0781(6)
Au2_4 Au 0.21171(17) 0.35641(4) 0.01275(3)
O1_4 O 0.378(2) 0.1724(5) 0.1218(4)
O2_4 O 0.343(3) 0.1012(6) 0.2916(5)
N7_4 N 0.284(2) 0.1205(6) 0.0844(4)
H1_4 H 0.248364 0.094677 0.084041
N8_4 N 0.281(3) 0.1642(6) 0.2649(4)
H2_4 H 0.262307 0.176983 0.242801
C4_4 C 0.302(3) 0.0615(6) 0.1510(5)
H5_4 H 0.299563 0.048214 0.126160
C5_4 C 0.355(2) 0.1970(6) 0.0019(5)
C6_4 C 0.3711(19) 0.1752(6) 0.0392(6)
H7_4 H 0.440770 0.181497 0.055760
C7_4 C 0.347(2) 0.2119(7) 0.3627(6)
H8_4 H 0.406624 0.208337 0.383089
C10_4 C 0.328(2) 0.1264(7) 0.1896(6)
H10_4 H 0.336306 0.156878 0.192158
C11_4 C 0.282(2) 0.1454(7) 0.0489(5)
C12_4 C 0.194(3) 0.1351(8) 0.0212(6)
H11_4 H 0.131950 0.113893 0.026972
C13_4 C 0.337(3) 0.1341(7) 0.1186(6)
C14_4 C 0.327(3) 0.1071(6) 0.1530(6)
C15_4 C 0.270(4) 0.1893(7) 0.2989(5)
C16_4 C 0.186(3) 0.2246(8) 0.3003(6)
H12_4 H 0.129985 0.230592 0.279322
C20_4 C 0.318(2) 0.1215(8) 0.2631(5)
C21_4 C 0.283(4) 0.0353(7) 0.1838(7)
C23_4 C 0.298(4) 0.0577(8) 0.2208(7)
H16_4 H 0.294409 0.041533 0.244168
C24_4 C 0.316(3) 0.1003(7) 0.2226(5)
C25_4 C 0.355(2) 0.1834(8) 0.3297(6)
H17_4 H 0.416498 0.161000 0.328779
C26_4 C 0.188(3) 0.2502(7) 0.3330(6)
H18_4 H 0.134605 0.275105 0.332713
C27_4 C 0.183(4) 0.4086(10) 0.0498(10)
N10_4 N 0.164(7) 0.4386(16) 0.0618(14)
N1_4 N 0.0555(14) 0.2163(5) 0.9234(5)
N3_4 N 0.244(2) 0.2803(5) 0.9534(5)
N4_4 N 0.2713(19) 0.1874(5) 0.9774(4)
C2_4 C 0.231(3) 0.3071(6) 0.9735(7)
C3_4 C 0.193(3) 0.1540(6) 0.9855(6)
H3_4 H 0.136829 0.143627 0.966069
H6_4 H 0.410945 0.220008 0.995864
N11_2 N 0.4636(16) 0.2268(6) 0.9183(5)
O3_4 O 0.187(3) 0.9709(6) 0.2044(6)
N9_4 N 0.324(3) 0.9677(6) 0.1521(6)
H4_4 H 0.379442 0.983460 0.139247
C8_4 C 0.316(3) 0.9266(7) 0.1426(7)
C9_4 C 0.199(3) 0.8569(8) 0.1367(7)
H9_4 H 0.126398 0.840200 0.143575
C17_4 C 0.218(3) 0.8972(8) 0.1547(7)
H13_4 H 0.164044 0.905240 0.175665
C18_4 C 0.372(3) 0.8698(7) 0.0970(9)
H14_4 H 0.424284 0.861024 0.076024
C19_4 C 0.250(4) 0.9894(8) 0.1823(6)
C22_4 C 0.392(2) 0.9100(6) 0.1127(7)
H15_4 H 0.459406 0.927239 0.102973
Au1_4 Au 0.75804(8) 0.21973(3) 0.92179(2)
C1_4 C 0.5575(17) 0.2249(7) 0.9196(6)
C28_4 C 0.9552(19) 0.2157(7) 0.9219(6)
Au1_5 Au 0.25804(8) 0.28027(3) 0.07821(2)
Fe1 Fe 0.7580(2) 0.27878(8) 0.07930(6)
N1_5 N 0.5555(14) 0.2837(5) 0.0766(5)
N3_5 N 0.744(2) 0.2197(5) 0.0466(5)
N4_5 N 0.7713(19) 0.3126(5) 0.0226(4)
C1_5 C 0.0575(17) 0.2751(7) 0.0804(6)
C2_5 C 0.731(3) 0.1929(6) 0.0265(7)
C3_5 C 0.693(3) 0.3460(6) 0.0145(6)
H3_5 H 0.636829 0.356373 0.033931
H6_5 H 0.910945 0.279992 0.004136
C28_5 C 0.4552(19) 0.2843(7) 0.0781(6)
N11_3 N 0.9636(16) 0.2732(6) 0.0817(5)
N12_3 N 0.780(2) 0.3411(5) 0.1098(4)
N13_3 N 0.742(2) 0.2433(6) 0.1339(4)
Au2_5 Au 0.71171(17) 0.14359(4) 0.98725(3)
O1_5 O 0.878(2) 0.3276(5) 0.8782(4)
N5_3 N 0.780(2) 0.6589(5) 0.8902(4)
N6_3 N 0.758(2) 0.2567(6) 0.6339(4)
O2_5 O 0.843(3) 0.3988(6) 0.7084(5)
O3_5 O 0.687(3) 0.5291(6) 0.7956(6)
N7_5 N 0.784(2) 0.3795(6) 0.9156(4)
H1_5 H 0.748364 0.405323 0.915959
N8_5 N 0.781(3) 0.3358(6) 0.7351(4)
H2_5 H 0.762307 0.323017 0.757199
N9_5 N 0.824(3) 0.5323(6) 0.8479(6)
H4_5 H 0.879442 0.516540 0.860753
C4_5 C 0.802(3) 0.4385(6) 0.8490(5)
H5_5 H 0.799563 0.451786 0.873840
C5_5 C 0.855(2) 0.3030(6) 0.9981(5)
C6_5 C 0.8711(19) 0.3248(6) 0.9608(6)
H7_5 H 0.940770 0.318503 0.944240
C7_5 C 0.847(2) 0.2881(7) 0.6373(6)
H8_5 H 0.906624 0.291663 0.616911
C8_5 C 0.816(3) 0.5734(7) 0.8574(7)
C9_5 C 0.699(3) 0.6431(8) 0.8633(7)
H9_5 H 0.626398 0.659800 0.856425
C10_5 C 0.828(2) 0.3736(7) 0.8104(6)
H10_5 H 0.836306 0.343122 0.807842
C11_5 C 0.782(2) 0.3546(7) 0.9511(5)
C12_5 C 0.694(3) 0.3649(8) 0.9788(6)
H11_5 H 0.631950 0.386107 0.973028
C13_5 C 0.837(3) 0.3659(7) 0.8814(6)
C14_5 C 0.827(3) 0.3929(6) 0.8470(6)
C15_5 C 0.770(4) 0.3107(7) 0.7011(5)
C16_5 C 0.686(3) 0.2754(8) 0.6997(6)
H12_5 H 0.629985 0.269408 0.720678
C17_5 C 0.718(3) 0.6028(8) 0.8453(7)
H13_5 H 0.664044 0.594760 0.824335
C18_5 C 0.872(3) 0.6302(7) 0.9030(9)
H14_5 H 0.924284 0.638976 0.923976
C19_5 C 0.750(4) 0.5106(8) 0.8177(6)
C20_5 C 0.818(2) 0.3785(8) 0.7369(5)
C21_5 C 0.783(4) 0.4647(7) 0.8162(7)
C22_5 C 0.892(2) 0.5900(6) 0.8873(7)
H15_5 H 0.959406 0.572761 0.897027
C23_5 C 0.798(4) 0.4423(8) 0.7792(7)
H16_5 H 0.794409 0.458467 0.755832
C24_5 C 0.816(3) 0.3997(7) 0.7774(5)
C25_5 C 0.855(2) 0.3166(8) 0.6703(6)
H17_5 H 0.916498 0.339000 0.671221
C26_5 C 0.688(3) 0.2498(7) 0.6670(6)
H18_5 H 0.634605 0.224895 0.667287
C27_5 C 0.683(4) 0.0914(10) 0.9502(10)
N10_5 N 0.664(7) 0.0614(16) 0.9382(14)
Fe3_2 Fe 0.7580(2) 0.72122(8) 0.92070(6)
Fe4_3 Fe 0.7420(2) 0.22122(8) 0.57930(6)
Au2_6 Au 0.71171(17) 0.85641(4) 0.01275(3)
O1_6 O 0.878(2) 0.6724(5) 0.1218(4)
N6_4 N 0.758(2) 0.7433(6) 0.3661(4)
O2_6 O 0.843(3) 0.6012(6) 0.2916(5)
O3_6 O 0.687(3) 0.4709(6) 0.2044(6)
N7_6 N 0.784(2) 0.6205(6) 0.0844(4)
H1_6 H 0.748364 0.594677 0.084041
N8_6 N 0.781(3) 0.6642(6) 0.2649(4)
H2_6 H 0.762307 0.676983 0.242801
N9_6 N 0.824(3) 0.4677(6) 0.1521(6)
H4_6 H 0.879442 0.483460 0.139247
C4_6 C 0.802(3) 0.5615(6) 0.1510(5)
H5_6 H 0.799563 0.548214 0.126160
C5_6 C 0.855(2) 0.6970(6) 0.0019(5)
C6_6 C 0.8711(19) 0.6752(6) 0.0392(6)
H7_6 H 0.940770 0.681497 0.055760
C7_6 C 0.847(2) 0.7119(7) 0.3627(6)
H8_6 H 0.906624 0.708337 0.383089
C8_6 C 0.816(3) 0.4266(7) 0.1426(7)
C9_6 C 0.699(3) 0.3569(8) 0.1367(7)
H9_6 H 0.626398 0.340200 0.143575
C10_6 C 0.828(2) 0.6264(7) 0.1896(6)
H10_6 H 0.836306 0.656878 0.192158
C11_6 C 0.782(2) 0.6454(7) 0.0489(5)
C12_6 C 0.694(3) 0.6351(8) 0.0212(6)
H11_6 H 0.631950 0.613893 0.026972
C13_6 C 0.837(3) 0.6341(7) 0.1186(6)
C14_6 C 0.827(3) 0.6071(6) 0.1530(6)
C15_6 C 0.770(4) 0.6893(7) 0.2989(5)
C16_6 C 0.686(3) 0.7246(8) 0.3003(6)
H12_6 H 0.629985 0.730592 0.279322
C17_6 C 0.718(3) 0.3972(8) 0.1547(7)
H13_6 H 0.664044 0.405240 0.175665
C18_6 C 0.872(3) 0.3698(7) 0.0970(9)
H14_6 H 0.924284 0.361024 0.076024
C19_6 C 0.750(4) 0.4894(8) 0.1823(6)
C20_6 C 0.818(2) 0.6215(8) 0.2631(5)
C21_6 C 0.783(4) 0.5353(7) 0.1838(7)
C22_6 C 0.892(2) 0.4100(6) 0.1127(7)
H15_6 H 0.959406 0.427239 0.102973
C23_6 C 0.798(4) 0.5577(8) 0.2208(7)
H16_6 H 0.794409 0.541533 0.244168
C24_6 C 0.816(3) 0.6003(7) 0.2226(5)
C25_6 C 0.855(2) 0.6834(8) 0.3297(6)
H17_6 H 0.916498 0.661000 0.328779
C26_6 C 0.688(3) 0.7502(7) 0.3330(6)
H18_6 H 0.634605 0.775105 0.332713
C27_6 C 0.683(4) 0.9086(10) 0.0498(10)
N10_6 N 0.664(7) 0.9386(16) 0.0618(14)
Fe4_4 Fe 0.7420(2) 0.77878(8) 0.42070(6)
Au1_6 Au 0.25804(8) 0.71973(3) 0.92179(2)
N1_6 N 0.5555(14) 0.7163(5) 0.9234(5)
N3_6 N 0.744(2) 0.7803(5) 0.9534(5)
N4_6 N 0.7713(19) 0.6874(5) 0.9774(4)
C1_6 C 0.0575(17) 0.7249(7) 0.9196(6)
C2_6 C 0.731(3) 0.8071(6) 0.9735(7)
C3_6 C 0.693(3) 0.6540(6) 0.9855(6)
H3_6 H 0.636829 0.643627 0.966069
H6_6 H 0.910945 0.720008 0.995864
C28_6 C 0.4552(19) 0.7157(7) 0.9219(6)
N11_4 N 0.9636(16) 0.7268(6) 0.9183(5)
N13_4 N 0.742(2) 0.7567(6) 0.8661(4)
Au1_7 Au 0.24196(8) 0.21973(3) 0.57821(2)
N2_3 N 0.5364(16) 0.2268(6) 0.5817(5)
C1_7 C 0.4425(17) 0.2249(7) 0.5804(6)
C28_7 C 0.0448(19) 0.2157(7) 0.5781(6)
Au2_7 Au 0.78829(17) 0.35641(4) 0.48725(3)
N1_7 N 0.9445(14) 0.2163(5) 0.5766(5)
N3_7 N 0.756(2) 0.2803(5) 0.5466(5)
N4_7 N 0.7287(19) 0.1874(5) 0.5226(4)
O1_7 O 0.622(2) 0.1724(5) 0.3782(4)
O2_7 O 0.657(3) 0.1012(6) 0.2084(5)
C2_7 C 0.769(3) 0.3071(6) 0.5265(7)
N7_7 N 0.716(2) 0.1205(6) 0.4156(4)
H1_7 H 0.751636 0.094677 0.415959
N8_7 N 0.719(3) 0.1642(6) 0.2351(4)
H2_7 H 0.737693 0.176983 0.257199
C3_7 C 0.807(3) 0.1540(6) 0.5145(6)
H3_7 H 0.863171 0.143627 0.533931
C4_7 C 0.698(3) 0.0615(6) 0.3490(5)
H5_7 H 0.700437 0.048214 0.373840
C5_7 C 0.645(2) 0.1970(6) 0.4981(5)
H6_7 H 0.589055 0.220008 0.504136
C6_7 C 0.6289(19) 0.1752(6) 0.4608(6)
H7_7 H 0.559230 0.181497 0.444240
C7_7 C 0.653(2) 0.2119(7) 0.1373(6)
H8_7 H 0.593376 0.208337 0.116911
C10_7 C 0.672(2) 0.1264(7) 0.3104(6)
H10_7 H 0.663694 0.156878 0.307842
C11_7 C 0.718(2) 0.1454(7) 0.4511(5)
C12_7 C 0.806(3) 0.1351(8) 0.4788(6)
H11_7 H 0.868050 0.113893 0.473028
C13_7 C 0.663(3) 0.1341(7) 0.3814(6)
C14_7 C 0.673(3) 0.1071(6) 0.3470(6)
C15_7 C 0.730(4) 0.1893(7) 0.2011(5)
C16_7 C 0.814(3) 0.2246(8) 0.1997(6)
H12_7 H 0.870015 0.230592 0.220678
C20_7 C 0.682(2) 0.1215(8) 0.2369(5)
C21_7 C 0.717(4) 0.0353(7) 0.3162(7)
C23_7 C 0.702(4) 0.0577(8) 0.2792(7)
H16_7 H 0.705591 0.041533 0.255832
C24_7 C 0.684(3) 0.1003(7) 0.2774(5)
C25_7 C 0.645(2) 0.1834(8) 0.1703(6)
H17_7 H 0.583502 0.161000 0.171221
C26_7 C 0.812(3) 0.2502(7) 0.1670(6)
H18_7 H 0.865395 0.275105 0.167287
C27_7 C 0.817(4) 0.4086(10) 0.4502(10)
N10_7 N 0.836(7) 0.4386(16) 0.4382(14)
N12_4 N 0.720(2) 0.1589(5) 0.6098(4)
N5_4 N 0.720(2) 0.8411(5) 0.3902(4)
O3_7 O 0.813(3) 0.9709(6) 0.2956(6)
N9_7 N 0.676(3) 0.9677(6) 0.3479(6)
H4_7 H 0.620558 0.983460 0.360753
C8_7 C 0.684(3) 0.9266(7) 0.3574(7)
C9_7 C 0.801(3) 0.8569(8) 0.3633(7)
H9_7 H 0.873602 0.840200 0.356425
C17_7 C 0.782(3) 0.8972(8) 0.3453(7)
H13_7 H 0.835956 0.905240 0.324335
C18_7 C 0.628(3) 0.8698(7) 0.4030(9)
H14_7 H 0.575716 0.861024 0.423976
C19_7 C 0.750(4) 0.9894(8) 0.3177(6)
C22_7 C 0.608(2) 0.9100(6) 0.3873(7)
H15_7 H 0.540594 0.927239 0.397027
Au1_8 Au 0.24196(8) 0.78027(3) 0.42179(2)
N2_4 N 0.5364(16) 0.7732(6) 0.4183(5)
C1_8 C 0.4425(17) 0.7751(7) 0.4196(6)
C28_8 C 0.0448(19) 0.7843(7) 0.4219(6)
O3_8 O 0.813(3) 0.0291(6) 0.7044(6)
N9_8 N 0.676(3) 0.0323(6) 0.6521(6)
H4_8 H 0.620558 0.016540 0.639247
C8_8 C 0.684(3) 0.0734(7) 0.6426(7)
C9_8 C 0.801(3) 0.1431(8) 0.6367(7)
H9_8 H 0.873602 0.159800 0.643575
C17_8 C 0.782(3) 0.1028(8) 0.6547(7)
H13_8 H 0.835956 0.094760 0.675665
C18_8 C 0.628(3) 0.1302(7) 0.5970(9)
H14_8 H 0.575716 0.138976 0.576024
C19_8 C 0.750(4) 0.0106(8) 0.6823(6)
C22_8 C 0.608(2) 0.0900(6) 0.6127(7)
H15_8 H 0.540594 0.072761 0.602973
Au2_8 Au 0.78829(17) 0.64359(4) 0.51275(3)
N1_8 N 0.9445(14) 0.7837(5) 0.4234(5)
N3_8 N 0.756(2) 0.7197(5) 0.4534(5)
N4_8 N 0.7287(19) 0.8126(5) 0.4774(4)
O1_8 O 0.622(2) 0.8276(5) 0.6218(4)
O2_8 O 0.657(3) 0.8988(6) 0.7916(5)
C2_8 C 0.769(3) 0.6929(6) 0.4735(7)
N7_8 N 0.716(2) 0.8795(6) 0.5844(4)
H1_8 H 0.751636 0.905323 0.584041
N8_8 N 0.719(3) 0.8358(6) 0.7649(4)
H2_8 H 0.737693 0.823017 0.742801
C3_8 C 0.807(3) 0.8460(6) 0.4855(6)
H3_8 H 0.863171 0.856373 0.466069
C4_8 C 0.698(3) 0.9385(6) 0.6510(5)
H5_8 H 0.700437 0.951786 0.626160
C5_8 C 0.645(2) 0.8030(6) 0.5019(5)
H6_8 H 0.589055 0.779992 0.495864
C6_8 C 0.6289(19) 0.8248(6) 0.5392(6)
H7_8 H 0.559230 0.818503 0.555760
C7_8 C 0.653(2) 0.7881(7) 0.8627(6)
H8_8 H 0.593376 0.791663 0.883089
C10_8 C 0.672(2) 0.8736(7) 0.6896(6)
H10_8 H 0.663694 0.843122 0.692158
C11_8 C 0.718(2) 0.8546(7) 0.5489(5)
C12_8 C 0.806(3) 0.8649(8) 0.5212(6)
H11_8 H 0.868050 0.886107 0.526972
C13_8 C 0.663(3) 0.8659(7) 0.6186(6)
C14_8 C 0.673(3) 0.8929(6) 0.6530(6)
C15_8 C 0.730(4) 0.8107(7) 0.7989(5)
C16_8 C 0.814(3) 0.7754(8) 0.8003(6)
H12_8 H 0.870015 0.769408 0.779322
C20_8 C 0.682(2) 0.8785(8) 0.7631(5)
C21_8 C 0.717(4) 0.9647(7) 0.6838(7)
C23_8 C 0.702(4) 0.9423(8) 0.7208(7)
H16_8 H 0.705591 0.958467 0.744168
C24_8 C 0.684(3) 0.8997(7) 0.7226(5)
C25_8 C 0.645(2) 0.8166(8) 0.8297(6)
H17_8 H 0.583502 0.839000 0.828779
C26_8 C 0.812(3) 0.7498(7) 0.8330(6)
H18_8 H 0.865395 0.724895 0.832713
C27_8 C 0.817(4) 0.5914(10) 0.5498(10)
N10_8 N 0.836(7) 0.5614(16) 0.5618(14)
loop_
_geom_bond_atom_site_label_1
_geom_bond_atom_site_label_2
_geom_bond_site_symmetry_1
_geom_bond_site_symmetry_2
Fe2 N2 1_555 1_555
Au1 C1 1_555 1_555
Au2 C2 1_555 1_555
Fe2 N1 1_555 1_555
N1 C28 1_555 1_555
N3 Fe2 1_555 1_555
N4 Fe2 1_555 1_555
O1 C13 1_555 1_555
N5 C9 1_555 1_555
N6 C7 1_555 1_555
O2 C20 1_555 1_555
C2 N3 1_555 1_555
O3 C19 1_555 1_555
N7 H1 1_555 1_555
N8 H2 1_555 1_555
C3 N4 1_555 1_555
H3 C3 1_555 1_555
N9 H4 1_555 1_555
C4 H5 1_555 1_555
C5 N4 1_555 1_555
H6 C5 1_555 1_555
C6 C5 1_555 1_555
H7 C6 1_555 1_555
C7 H8 1_555 1_555
C8 N9 1_555 1_555
C9 H9 1_555 1_555
C10 H10 1_555 1_555
C11 N7 1_555 1_555
C12 C3 1_555 1_555
H11 C12 1_555 1_555
C13 N7 1_555 1_555
C14 C4 1_555 1_555
C15 N8 1_555 1_555
C16 C15 1_555 1_555
H12 C16 1_555 1_555
C17 C8 1_555 1_555
H13 C17 1_555 1_555
C18 N5 1_555 1_555
H14 C18 1_555 1_555
C19 N9 1_555 1_555
C20 N8 1_555 1_555
C21 C4 1_555 1_555
C22 C8 1_555 1_555
H15 C22 1_555 1_555
C23 C21 1_555 1_555
H16 C23 1_555 1_555
C24 C10 1_555 1_555
C25 C7 1_555 1_555
H17 C25 1_555 1_555
C26 N6 1_555 1_555
H18 C26 1_555 1_555
C27 Au2 1_555 1_555
N10 C27 1_555 1_555
C28 Au1 1_555 1_555
Fe3 N5 1_555 1_555
Fe4 N6 1_555 1_555
N12 Fe2 1_555 1_555
N13 Fe2 1_555 1_555
C6 C11 1_555 1_555
C9 C17 1_555 1_555
C10 C14 1_555 1_555
C11 C12 1_555 1_555
C13 C14 1_555 1_555
C15 C25 1_555 1_555
C16 C26 1_555 1_555
C18 C22 1_555 1_555
C19 C21 1_555 1_555
C20 C24 1_555 1_555
C23 C24 1_555 1_555
Fe3 N2_2 1_555 1_555
Au1_2 C1_2 1_555 1_555
Au2_2 C2_2 1_555 1_555
Fe3 N1_2 1_555 1_555
N1_2 C28_2 1_555 1_555
N3_2 Fe3 1_555 1_555
N4_2 Fe3 1_555 1_555
O1_2 C13_2 1_555 1_555
N12 C9_2 1_555 1_555
N6_2 C7_2 1_555 1_555
O2_2 C20_2 1_555 1_555
C2_2 N3_2 1_555 1_555
O3_2 C19_2 1_555 1_555
N7_2 H1_2 1_555 1_555
N8_2 H2_2 1_555 1_555
C3_2 N4_2 1_555 1_555
H3_2 C3_2 1_555 1_555
N9_2 H4_2 1_555 1_555
C4_2 H5_2 1_555 1_555
C5_2 N4_2 1_555 1_555
H6_2 C5_2 1_555 1_555
C6_2 C5_2 1_555 1_555
H7_2 C6_2 1_555 1_555
C7_2 H8_2 1_555 1_555
C8_2 N9_2 1_555 1_555
C9_2 H9_2 1_555 1_555
C10_2 H10_2 1_555 1_555
C11_2 N7_2 1_555 1_555
C12_2 C3_2 1_555 1_555
H11_2 C12_2 1_555 1_555
C13_2 N7_2 1_555 1_555
C14_2 C4_2 1_555 1_555
C15_2 N8_2 1_555 1_555
C16_2 C15_2 1_555 1_555
H12_2 C16_2 1_555 1_555
C17_2 C8_2 1_555 1_555
H13_2 C17_2 1_555 1_555
C18_2 N12 1_555 1_555
H14_2 C18_2 1_555 1_555
C19_2 N9_2 1_555 1_555
C20_2 N8_2 1_555 1_555
C21_2 C4_2 1_555 1_555
C22_2 C8_2 1_555 1_555
H15_2 C22_2 1_555 1_555
C23_2 C21_2 1_555 1_555
H16_2 C23_2 1_555 1_555
C24_2 C10_2 1_555 1_555
C25_2 C7_2 1_555 1_555
H17_2 C25_2 1_555 1_555
C26_2 N6_2 1_555 1_555
H18_2 C26_2 1_555 1_555
C27_2 Au2_2 1_555 1_555
N10_2 C27_2 1_555 1_555
C28_2 Au1_2 1_555 1_555
Fe4_2 N6_2 1_555 1_555
N13_2 Fe3 1_555 1_555
C6_2 C11_2 1_555 1_555
C9_2 C17_2 1_555 1_555
C10_2 C14_2 1_555 1_555
C11_2 C12_2 1_555 1_555
C13_2 C14_2 1_555 1_555
C15_2 C25_2 1_555 1_555
C16_2 C26_2 1_555 1_555
C18_2 C22_2 1_555 1_555
C19_2 C21_2 1_555 1_555
C20_2 C24_2 1_555 1_555
C23_2 C24_2 1_555 1_555
N5_2 C9_3 1_555 1_555
O3_3 C19_3 1_555 1_555
N9_3 H4_3 1_555 1_555
C8_3 N9_3 1_555 1_555
C9_3 H9_3 1_555 1_555
C17_3 C8_3 1_555 1_555
H13_3 C17_3 1_555 1_555
C18_3 N5_2 1_555 1_555
H14_3 C18_3 1_555 1_555
C19_3 N9_3 1_555 1_555
C22_3 C8_3 1_555 1_555
H15_3 C22_3 1_555 1_555
Fe4_2 N5_2 1_555 1_555
C9_3 C17_3 1_555 1_555
C18_3 C22_3 1_555 1_555
Fe4 N1_3 1_555 1_555
N3_3 Fe4 1_555 1_555
N4_3 Fe4 1_555 1_555
C2_3 N3_3 1_555 1_555
C3_3 N4_3 1_555 1_555
H3_3 C3_3 1_555 1_555
N11 Fe4 1_555 1_555
N12_2 Fe4 1_555 1_555
O1_3 C13_3 1_555 1_555
N13 C7_3 1_555 1_555
O2_3 C20_3 1_555 1_555
N7_3 H1_3 1_555 1_555
N8_3 H2_3 1_555 1_555
C4_3 H5_3 1_555 1_555
C6_3 C5_3 1_555 1_555
H7_3 C6_3 1_555 1_555
C7_3 H8_3 1_555 1_555
C10_3 H10_3 1_555 1_555
C11_3 N7_3 1_555 1_555
H11_3 C12_3 1_555 1_555
C13_3 N7_3 1_555 1_555
C14_3 C4_3 1_555 1_555
C15_3 N8_3 1_555 1_555
C16_3 C15_3 1_555 1_555
H12_3 C16_3 1_555 1_555
C20_3 N8_3 1_555 1_555
C21_3 C4_3 1_555 1_555
C23_3 C21_3 1_555 1_555
H16_3 C23_3 1_555 1_555
C24_3 C10_3 1_555 1_555
C25_3 C7_3 1_555 1_555
H17_3 C25_3 1_555 1_555
C26_3 N13 1_555 1_555
H18_3 C26_3 1_555 1_555
C27_3 Au2_3 1_555 1_555
N10_3 C27_3 1_555 1_555
C6_3 C11_3 1_555 1_555
C10_3 C14_3 1_555 1_555
C11_3 C12_3 1_555 1_555
C13_3 C14_3 1_555 1_555
C15_3 C25_3 1_555 1_555
C16_3 C26_3 1_555 1_555
C20_3 C24_3 1_555 1_555
C23_3 C24_3 1_555 1_555
Au1_3 C1_3 1_555 1_555
N11 C1_3 1_555 1_555
C28_3 Au1_3 1_555 1_555
O1_4 C13_4 1_555 1_555
N13_2 C7_4 1_555 1_555
O2_4 C20_4 1_555 1_555
N7_4 H1_4 1_555 1_555
N8_4 H2_4 1_555 1_555
C4_4 H5_4 1_555 1_555
C6_4 C5_4 1_555 1_555
H7_4 C6_4 1_555 1_555
C7_4 H8_4 1_555 1_555
C10_4 H10_4 1_555 1_555
C11_4 N7_4 1_555 1_555
H11_4 C12_4 1_555 1_555
C13_4 N7_4 1_555 1_555
C14_4 C4_4 1_555 1_555
C15_4 N8_4 1_555 1_555
C16_4 C15_4 1_555 1_555
H12_4 C16_4 1_555 1_555
C20_4 N8_4 1_555 1_555
C21_4 C4_4 1_555 1_555
C23_4 C21_4 1_555 1_555
H16_4 C23_4 1_555 1_555
C24_4 C10_4 1_555 1_555
C25_4 C7_4 1_555 1_555
H17_4 C25_4 1_555 1_555
C26_4 N13_2 1_555 1_555
H18_4 C26_4 1_555 1_555
C27_4 Au2_4 1_555 1_555
N10_4 C27_4 1_555 1_555
C6_4 C11_4 1_555 1_555
C10_4 C14_4 1_555 1_555
C11_4 C12_4 1_555 1_555
C13_4 C14_4 1_555 1_555
C15_4 C25_4 1_555 1_555
C16_4 C26_4 1_555 1_555
C20_4 C24_4 1_555 1_555
C23_4 C24_4 1_555 1_555
Fe4_2 N1_4 1_555 1_555
N3_4 Fe4_2 1_555 1_555
N4_4 Fe4_2 1_555 1_555
C2_4 N3_4 1_555 1_555
C3_4 N4_4 1_555 1_555
H3_4 C3_4 1_555 1_555
N11_2 Fe4_2 1_555 1_555
N12_2 C9_4 1_555 1_555
O3_4 C19_4 1_555 1_555
N9_4 H4_4 1_555 1_555
C8_4 N9_4 1_555 1_555
C9_4 H9_4 1_555 1_555
C17_4 C8_4 1_555 1_555
H13_4 C17_4 1_555 1_555
C18_4 N12_2 1_555 1_555
H14_4 C18_4 1_555 1_555
C19_4 N9_4 1_555 1_555
C22_4 C8_4 1_555 1_555
H15_4 C22_4 1_555 1_555
C9_4 C17_4 1_555 1_555
C18_4 C22_4 1_555 1_555
Au1_4 C1_4 1_555 1_555
N11_2 C1_4 1_555 1_555
C28_4 Au1_4 1_555 1_555
Au1_5 C1_5 1_555 1_555
Fe1 N1_5 1_555 1_555
N1_5 C28_5 1_555 1_555
N3_5 Fe1 1_555 1_555
N4_5 Fe1 1_555 1_555
C2_5 N3_5 1_555 1_555
C3_5 N4_5 1_555 1_555
H3_5 C3_5 1_555 1_555
C28_5 Au1_5 1_555 1_555
N11_3 Fe1 1_555 1_555
N12_3 Fe1 1_555 1_555
N13_3 Fe1 1_555 1_555
O1_5 C13_5 1_555 1_555
N5_3 C9_5 1_555 1_555
N6_3 C7_5 1_555 1_555
O2_5 C20_5 1_555 1_555
O3_5 C19_5 1_555 1_555
N7_5 H1_5 1_555 1_555
N8_5 H2_5 1_555 1_555
N9_5 H4_5 1_555 1_555
C4_5 H5_5 1_555 1_555
C6_5 C5_5 1_555 1_555
H7_5 C6_5 1_555 1_555
C7_5 H8_5 1_555 1_555
C8_5 N9_5 1_555 1_555
C9_5 H9_5 1_555 1_555
C10_5 H10_5 1_555 1_555
C11_5 N7_5 1_555 1_555
H11_5 C12_5 1_555 1_555
C13_5 N7_5 1_555 1_555
C14_5 C4_5 1_555 1_555
C15_5 N8_5 1_555 1_555
C16_5 C15_5 1_555 1_555
H12_5 C16_5 1_555 1_555
C17_5 C8_5 1_555 1_555
H13_5 C17_5 1_555 1_555
C18_5 N5_3 1_555 1_555
H14_5 C18_5 1_555 1_555
C19_5 N9_5 1_555 1_555
C20_5 N8_5 1_555 1_555
C21_5 C4_5 1_555 1_555
C22_5 C8_5 1_555 1_555
H15_5 C22_5 1_555 1_555
C23_5 C21_5 1_555 1_555
H16_5 C23_5 1_555 1_555
C24_5 C10_5 1_555 1_555
C25_5 C7_5 1_555 1_555
H17_5 C25_5 1_555 1_555
C26_5 N6_3 1_555 1_555
H18_5 C26_5 1_555 1_555
C27_5 Au2_5 1_555 1_555
N10_5 C27_5 1_555 1_555
Fe3_2 N5_3 1_555 1_555
Fe4_3 N6_3 1_555 1_555
C6_5 C11_5 1_555 1_555
C9_5 C17_5 1_555 1_555
C10_5 C14_5 1_555 1_555
C11_5 C12_5 1_555 1_555
C13_5 C14_5 1_555 1_555
C15_5 C25_5 1_555 1_555
C16_5 C26_5 1_555 1_555
C18_5 C22_5 1_555 1_555
C19_5 C21_5 1_555 1_555
C20_5 C24_5 1_555 1_555
C23_5 C24_5 1_555 1_555
O1_6 C13_6 1_555 1_555
N12_3 C9_6 1_555 1_555
N6_4 C7_6 1_555 1_555
O2_6 C20_6 1_555 1_555
O3_6 C19_6 1_555 1_555
N7_6 H1_6 1_555 1_555
N8_6 H2_6 1_555 1_555
N9_6 H4_6 1_555 1_555
C4_6 H5_6 1_555 1_555
C6_6 C5_6 1_555 1_555
H7_6 C6_6 1_555 1_555
C7_6 H8_6 1_555 1_555
C8_6 N9_6 1_555 1_555
C9_6 H9_6 1_555 1_555
C10_6 H10_6 1_555 1_555
C11_6 N7_6 1_555 1_555
H11_6 C12_6 1_555 1_555
C13_6 N7_6 1_555 1_555
C14_6 C4_6 1_555 1_555
C15_6 N8_6 1_555 1_555
C16_6 C15_6 1_555 1_555
H12_6 C16_6 1_555 1_555
C17_6 C8_6 1_555 1_555
H13_6 C17_6 1_555 1_555
C18_6 N12_3 1_555 1_555
H14_6 C18_6 1_555 1_555
C19_6 N9_6 1_555 1_555
C20_6 N8_6 1_555 1_555
C21_6 C4_6 1_555 1_555
C22_6 C8_6 1_555 1_555
H15_6 C22_6 1_555 1_555
C23_6 C21_6 1_555 1_555
H16_6 C23_6 1_555 1_555
C24_6 C10_6 1_555 1_555
C25_6 C7_6 1_555 1_555
H17_6 C25_6 1_555 1_555
C26_6 N6_4 1_555 1_555
H18_6 C26_6 1_555 1_555
C27_6 Au2_6 1_555 1_555
N10_6 C27_6 1_555 1_555
Fe4_4 N6_4 1_555 1_555
C6_6 C11_6 1_555 1_555
C9_6 C17_6 1_555 1_555
C10_6 C14_6 1_555 1_555
C11_6 C12_6 1_555 1_555
C13_6 C14_6 1_555 1_555
C15_6 C25_6 1_555 1_555
C16_6 C26_6 1_555 1_555
C18_6 C22_6 1_555 1_555
C19_6 C21_6 1_555 1_555
C20_6 C24_6 1_555 1_555
C23_6 C24_6 1_555 1_555
Au1_6 C1_6 1_555 1_555
Fe3_2 N1_6 1_555 1_555
N1_6 C28_6 1_555 1_555
N3_6 Fe3_2 1_555 1_555
N4_6 Fe3_2 1_555 1_555
C2_6 N3_6 1_555 1_555
C3_6 N4_6 1_555 1_555
H3_6 C3_6 1_555 1_555
C28_6 Au1_6 1_555 1_555
N11_4 Fe3_2 1_555 1_555
N13_4 Fe3_2 1_555 1_555
Au1_7 C1_7 1_555 1_555
N2_3 C1_7 1_555 1_555
C28_7 Au1_7 1_555 1_555
Fe4_3 N2_3 1_555 1_555
Au2_7 C2_7 1_555 1_555
Fe4_3 N1_7 1_555 1_555
N3_7 Fe4_3 1_555 1_555
N4_7 Fe4_3 1_555 1_555
O1_7 C13_7 1_555 1_555
N13_3 C7_7 1_555 1_555
O2_7 C20_7 1_555 1_555
C2_7 N3_7 1_555 1_555
N7_7 H1_7 1_555 1_555
N8_7 H2_7 1_555 1_555
C3_7 N4_7 1_555 1_555
H3_7 C3_7 1_555 1_555
C4_7 H5_7 1_555 1_555
C5_7 N4_7 1_555 1_555
H6_7 C5_7 1_555 1_555
C6_7 C5_7 1_555 1_555
H7_7 C6_7 1_555 1_555
C7_7 H8_7 1_555 1_555
C10_7 H10_7 1_555 1_555
C11_7 N7_7 1_555 1_555
C12_7 C3_7 1_555 1_555
H11_7 C12_7 1_555 1_555
C13_7 N7_7 1_555 1_555
C14_7 C4_7 1_555 1_555
C15_7 N8_7 1_555 1_555
C16_7 C15_7 1_555 1_555
H12_7 C16_7 1_555 1_555
C20_7 N8_7 1_555 1_555
C21_7 C4_7 1_555 1_555
C23_7 C21_7 1_555 1_555
H16_7 C23_7 1_555 1_555
C24_7 C10_7 1_555 1_555
C25_7 C7_7 1_555 1_555
H17_7 C25_7 1_555 1_555
C26_7 N13_3 1_555 1_555
H18_7 C26_7 1_555 1_555
C27_7 Au2_7 1_555 1_555
N10_7 C27_7 1_555 1_555
N12_4 Fe4_3 1_555 1_555
C6_7 C11_7 1_555 1_555
C10_7 C14_7 1_555 1_555
C11_7 C12_7 1_555 1_555
C13_7 C14_7 1_555 1_555
C15_7 C25_7 1_555 1_555
C16_7 C26_7 1_555 1_555
C20_7 C24_7 1_555 1_555
C23_7 C24_7 1_555 1_555
N5_4 C9_7 1_555 1_555
O3_7 C19_7 1_555 1_555
N9_7 H4_7 1_555 1_555
C8_7 N9_7 1_555 1_555
C9_7 H9_7 1_555 1_555
C17_7 C8_7 1_555 1_555
H13_7 C17_7 1_555 1_555
C18_7 N5_4 1_555 1_555
H14_7 C18_7 1_555 1_555
C19_7 N9_7 1_555 1_555
C22_7 C8_7 1_555 1_555
H15_7 C22_7 1_555 1_555
Fe4_4 N5_4 1_555 1_555
C9_7 C17_7 1_555 1_555
C18_7 C22_7 1_555 1_555
Au1_8 C1_8 1_555 1_555
N2_4 C1_8 1_555 1_555
C28_8 Au1_8 1_555 1_555
Fe4_4 N2_4 1_555 1_555
N12_4 C9_8 1_555 1_555
O3_8 C19_8 1_555 1_555
N9_8 H4_8 1_555 1_555
C8_8 N9_8 1_555 1_555
C9_8 H9_8 1_555 1_555
C17_8 C8_8 1_555 1_555
H13_8 C17_8 1_555 1_555
C18_8 N12_4 1_555 1_555
H14_8 C18_8 1_555 1_555
C19_8 N9_8 1_555 1_555
C22_8 C8_8 1_555 1_555
H15_8 C22_8 1_555 1_555
C9_8 C17_8 1_555 1_555
C18_8 C22_8 1_555 1_555
Au2_8 C2_8 1_555 1_555
Fe4_4 N1_8 1_555 1_555
N3_8 Fe4_4 1_555 1_555
N4_8 Fe4_4 1_555 1_555
O1_8 C13_8 1_555 1_555
N13_4 C7_8 1_555 1_555
O2_8 C20_8 1_555 1_555
C2_8 N3_8 1_555 1_555
N7_8 H1_8 1_555 1_555
N8_8 H2_8 1_555 1_555
C3_8 N4_8 1_555 1_555
H3_8 C3_8 1_555 1_555
C4_8 H5_8 1_555 1_555
C5_8 N4_8 1_555 1_555
H6_8 C5_8 1_555 1_555
C6_8 C5_8 1_555 1_555
H7_8 C6_8 1_555 1_555
C7_8 H8_8 1_555 1_555
C10_8 H10_8 1_555 1_555
C11_8 N7_8 1_555 1_555
C12_8 C3_8 1_555 1_555
H11_8 C12_8 1_555 1_555
C13_8 N7_8 1_555 1_555
C14_8 C4_8 1_555 1_555
C15_8 N8_8 1_555 1_555
C16_8 C15_8 1_555 1_555
H12_8 C16_8 1_555 1_555
C20_8 N8_8 1_555 1_555
C21_8 C4_8 1_555 1_555
C23_8 C21_8 1_555 1_555
H16_8 C23_8 1_555 1_555
C24_8 C10_8 1_555 1_555
C25_8 C7_8 1_555 1_555
H17_8 C25_8 1_555 1_555
C26_8 N13_4 1_555 1_555
H18_8 C26_8 1_555 1_555
C27_8 Au2_8 1_555 1_555
N10_8 C27_8 1_555 1_555
C6_8 C11_8 1_555 1_555
C10_8 C14_8 1_555 1_555
C11_8 C12_8 1_555 1_555
C13_8 C14_8 1_555 1_555
C15_8 C25_8 1_555 1_555
C16_8 C26_8 1_555 1_555
C20_8 C24_8 1_555 1_555
C23_8 C24_8 1_555 1_555

#END
