
###############################################################################
#
# This file contains modified crystal structure data generated from the
# MOF subset of the Cambridge Structural Database (CSD) v543 
# hosted by the Cambridge Crystallographic Data Centre (CCDC).
#
# This work is licensed under the Creative Commons
# Attribution-NonCommercial-ShareAlike 4.0 International License.
# To view a copy of this license, visit
# http://creativecommons.org/licenses/by-nc-sa/4.0/
# or send a letter to
# Creative Commons, PO Box 1866, Mountain View, CA 94042, USA.
#
# CIF created using the CSD Python API on 29 September 2022
# The structure has been converted into the P1 space group
# The structure has a 3D framework
# The original CSD entry WAMCAS04 is in the orthorhombic crystal system
# The original CSD entry WAMCAS04 is in a Sohncke space group
# The framework has been calculated to contain at least 10.0% void space
# The void calculation uses a probe of radius 1.32A, grid spacing 0.4
#
###############################################################################

data_WAMCAS04
_chemical_formula_moiety         '(C224 H144 Au16 Fe8 N76 O24)n'
_symmetry_cell_setting           triclinic
_symmetry_space_group_name_H-M   'P 1'
_symmetry_Int_Tables_number      1
_space_group_name_Hall           'P 1'
loop_
_symmetry_equiv_pos_site_id
_symmetry_equiv_pos_as_xyz
1 x,y,z
_cell_length_a                   10.113(2)
_cell_length_b                   30.265(6)
_cell_length_c                   33.554(7)
_cell_angle_alpha                90
_cell_angle_beta                 90
_cell_angle_gamma                90
_cell_volume                     10269.9
loop_
_atom_site_label
_atom_site_type_symbol
_atom_site_fract_x
_atom_site_fract_y
_atom_site_fract_z
N2 N 0.0509(6) 0.7252(2) 0.5811(2)
Fe2 Fe 0.24180(9) 0.71912(3) 0.57957(3)
Au1 Au 0.74212(3) 0.71838(2) 0.57838(2)
Au2 Au 0.28734(4) 0.85403(2) 0.49107(2)
N1 N 0.4340(7) 0.7138(2) 0.57888(19)
N3 N 0.2583(7) 0.7740(2) 0.5491(2)
N4 N 0.2314(7) 0.68688(18) 0.52680(19)
O1 O 0.1270(8) 0.6736(2) 0.37875(18)
N5 N 0.2206(7) 0.3388(2) 0.39221(19)
N6 N 0.2433(7) 0.74717(19) 0.13140(18)
C1 C 0.9360(9) 0.7240(2) 0.5799(2)
O2 O 0.1446(9) 0.6033(2) 0.20559(19)
C2 C 0.5469(8) 0.7137(2) 0.5784(2)
C3 C 0.2665(10) 0.8041(2) 0.5284(2)
O3 O 0.3063(13) 0.4690(2) 0.2914(3)
N7 N 0.2146(9) 0.6197(2) 0.41742(19)
H1 H 0.243784 0.592325 0.417750
N8 N 0.2266(8) 0.6665(2) 0.2332(2)
H2 H 0.254537 0.678212 0.255689
C4 C 0.3103(10) 0.6533(3) 0.5180(2)
H3 H 0.371623 0.643873 0.537692
N9 N 0.1715(12) 0.4665(2) 0.3461(3)
H4 H 0.111110 0.482119 0.358695
C5 C 0.1975(10) 0.5611(2) 0.3492(2)
H5 H 0.202095 0.546897 0.374401
C6 C 0.1438(9) 0.6988(2) 0.4986(2)
H6 H 0.086921 0.723005 0.504105
C7 C 0.1316(8) 0.6782(2) 0.4625(2)
H7 H 0.066251 0.687285 0.443852
C8 C 0.1572(8) 0.7135(3) 0.1337(2)
H8 H 0.098634 0.708878 0.111995
C9 C 0.1911(11) 0.4228(2) 0.3591(3)
C10 C 0.3011(10) 0.3533(3) 0.3627(3)
H9 H 0.370331 0.334472 0.353918
C11 C 0.1739(9) 0.6267(2) 0.3097(2)
H10 H 0.160565 0.657689 0.308229
C12 C 0.2177(8) 0.6434(2) 0.4536(2)
C13 C 0.3090(10) 0.6312(3) 0.4820(3)
H11 H 0.370021 0.608038 0.476916
C14 C 0.1699(9) 0.6359(2) 0.3819(2)
C15 C 0.1787(9) 0.6062(2) 0.3470(2)
C16 C 0.2285(9) 0.6932(2) 0.1989(2)
C17 C 0.3124(10) 0.7295(2) 0.1979(2)
H12 H 0.365665 0.736706 0.220301
C18 C 0.2876(12) 0.3941(3) 0.3448(3)
H13 H 0.343006 0.402390 0.323184
C19 C 0.1272(9) 0.3670(3) 0.4049(3)
H14 H 0.069672 0.357568 0.425554
C20 C 0.2382(15) 0.4873(3) 0.3154(3)
C21 C 0.1845(9) 0.6235(3) 0.2341(2)
C22 C 0.2097(12) 0.5363(3) 0.3144(3)
C23 C 0.1096(10) 0.4088(3) 0.3897(3)
H15 H 0.042895 0.427653 0.400098
C24 C 0.2084(12) 0.5569(3) 0.2767(2)
H16 H 0.221081 0.539919 0.253159
C25 C 0.1885(9) 0.6024(2) 0.2743(2)
C26 C 0.1487(9) 0.6851(3) 0.1660(2)
H17 H 0.089800 0.660673 0.165595
C27 C 0.3172(8) 0.7553(3) 0.1633(2)
H18 H 0.375934 0.779770 0.162675
C28 C 0.3144(16) 0.9064(4) 0.4567(5)
N10 N 0.329(2) 0.9363(4) 0.4369(5)
Fe3 Fe 0.24180(9) 0.28088(3) 0.42043(3)
Fe4 Fe 0.25820(9) 0.78088(3) 0.07957(3)
N12 N 0.2206(7) 0.6612(2) 0.60779(19)
N13 N 0.2567(7) 0.75283(19) 0.63140(18)
N2_2 N 0.0509(6) 0.2748(2) 0.4189(2)
Au1_2 Au 0.74212(3) 0.28162(2) 0.42162(2)
Au2_2 Au 0.28734(4) 0.14597(2) 0.50893(2)
N1_2 N 0.4340(7) 0.2862(2) 0.42112(19)
N3_2 N 0.2583(7) 0.2260(2) 0.4509(2)
N4_2 N 0.2314(7) 0.31312(18) 0.47320(19)
O1_2 O 0.1270(8) 0.3264(2) 0.62125(18)
N6_2 N 0.2433(7) 0.25283(19) 0.86860(18)
C1_2 C 0.9360(9) 0.2760(2) 0.4201(2)
O2_2 O 0.1446(9) 0.3967(2) 0.79441(19)
C2_2 C 0.5469(8) 0.2863(2) 0.4216(2)
C3_2 C 0.2665(10) 0.1959(2) 0.4716(2)
O3_2 O 0.3063(13) 0.5310(2) 0.7086(3)
N7_2 N 0.2146(9) 0.3803(2) 0.58258(19)
H1_2 H 0.243784 0.407675 0.582250
N8_2 N 0.2266(8) 0.3335(2) 0.7668(2)
H2_2 H 0.254537 0.321788 0.744311
C4_2 C 0.3103(10) 0.3467(3) 0.4820(2)
H3_2 H 0.371623 0.356127 0.462308
N9_2 N 0.1715(12) 0.5335(2) 0.6539(3)
H4_2 H 0.111110 0.517881 0.641305
C5_2 C 0.1975(10) 0.4389(2) 0.6508(2)
H5_2 H 0.202095 0.453103 0.625599
C6_2 C 0.1438(9) 0.3012(2) 0.5014(2)
H6_2 H 0.086921 0.276995 0.495895
C7_2 C 0.1316(8) 0.3218(2) 0.5375(2)
H7_2 H 0.066251 0.312715 0.556148
C8_2 C 0.1572(8) 0.2865(3) 0.8663(2)
H8_2 H 0.098634 0.291122 0.888005
C9_2 C 0.1911(11) 0.5772(2) 0.6409(3)
C10_2 C 0.3011(10) 0.6467(3) 0.6373(3)
H9_2 H 0.370331 0.665528 0.646082
C11_2 C 0.1739(9) 0.3733(2) 0.6903(2)
H10_2 H 0.160565 0.342311 0.691771
C12_2 C 0.2177(8) 0.3566(2) 0.5464(2)
C13_2 C 0.3090(10) 0.3688(3) 0.5180(3)
H11_2 H 0.370021 0.391962 0.523084
C14_2 C 0.1699(9) 0.3641(2) 0.6181(2)
C15_2 C 0.1787(9) 0.3938(2) 0.6530(2)
C16_2 C 0.2285(9) 0.3068(2) 0.8011(2)
C17_2 C 0.3124(10) 0.2705(2) 0.8021(2)
H12_2 H 0.365665 0.263294 0.779699
C18_2 C 0.2876(12) 0.6059(3) 0.6552(3)
H13_2 H 0.343006 0.597610 0.676816
C19_2 C 0.1272(9) 0.6330(3) 0.5951(3)
H14_2 H 0.069672 0.642432 0.574446
C20_2 C 0.2382(15) 0.5127(3) 0.6846(3)
C21_2 C 0.1845(9) 0.3765(3) 0.7659(2)
C22_2 C 0.2097(12) 0.4637(3) 0.6856(3)
C23_2 C 0.1096(10) 0.5912(3) 0.6103(3)
H15_2 H 0.042895 0.572347 0.599902
C24_2 C 0.2084(12) 0.4431(3) 0.7233(2)
H16_2 H 0.221081 0.460081 0.746841
C25_2 C 0.1885(9) 0.3976(2) 0.7257(2)
C26_2 C 0.1487(9) 0.3149(3) 0.8340(2)
H17_2 H 0.089800 0.339327 0.834405
C27_2 C 0.3172(8) 0.2447(3) 0.8367(2)
H18_2 H 0.375934 0.220230 0.837325
C28_2 C 0.3144(16) 0.0936(4) 0.5433(5)
N10_2 N 0.329(2) 0.0637(4) 0.5631(5)
Fe4_2 Fe 0.25820(9) 0.21912(3) 0.92043(3)
N13_2 N 0.2567(7) 0.24717(19) 0.36860(18)
N5_2 N 0.2794(7) 0.1612(2) 0.89221(19)
O3_3 O 0.1937(13) 0.0310(2) 0.7914(3)
N9_3 N 0.3285(12) 0.0335(2) 0.8461(3)
H4_3 H 0.388890 0.017881 0.858695
C9_3 C 0.3089(11) 0.0772(2) 0.8591(3)
C10_3 C 0.1989(10) 0.1467(3) 0.8627(3)
H9_3 H 0.129669 0.165528 0.853918
C18_3 C 0.2124(12) 0.1059(3) 0.8448(3)
H13_3 H 0.156994 0.097610 0.823184
C19_3 C 0.3728(9) 0.1330(3) 0.9049(3)
H14_3 H 0.430328 0.142432 0.925554
C20_3 C 0.2618(15) 0.0127(3) 0.8154(3)
C23_3 C 0.3904(10) 0.0912(3) 0.8897(3)
H15_3 H 0.457105 0.072347 0.900098
N1_3 N 0.0660(7) 0.7862(2) 0.07888(19)
N3_3 N 0.2417(7) 0.7260(2) 0.0491(2)
N4_3 N 0.2686(7) 0.81312(18) 0.02680(19)
C3_3 C 0.2335(10) 0.6959(2) 0.0284(2)
C4_3 C 0.1897(10) 0.8467(3) 0.0180(2)
H3_3 H 0.128377 0.856127 0.037692
H6_3 H 0.413079 0.776995 0.004105
N11 N 0.4491(6) 0.7748(2) 0.0811(2)
N12_2 N 0.2794(7) 0.8388(2) 0.10779(19)
Au2_3 Au 0.21266(4) 0.64597(2) 0.99107(2)
O1_3 O 0.3730(8) 0.8264(2) 0.87875(18)
O2_3 O 0.3554(9) 0.8967(2) 0.70559(19)
N7_3 N 0.2854(9) 0.8803(2) 0.91742(19)
H1_3 H 0.256216 0.907675 0.917750
N8_3 N 0.2734(8) 0.8335(2) 0.7332(2)
H2_3 H 0.245463 0.821788 0.755689
C5_3 C 0.3025(10) 0.9389(2) 0.8492(2)
H5_3 H 0.297905 0.953103 0.874401
C6_3 C 0.3562(9) 0.8012(2) 0.9986(2)
C7_3 C 0.3684(8) 0.8218(2) 0.9625(2)
H7_3 H 0.433749 0.812715 0.943852
C8_3 C 0.3428(8) 0.7865(3) 0.6337(2)
H8_3 H 0.401366 0.791122 0.611995
C11_3 C 0.3261(9) 0.8733(2) 0.8097(2)
H10_3 H 0.339435 0.842311 0.808229
C12_3 C 0.2823(8) 0.8566(2) 0.9536(2)
C13_3 C 0.1910(10) 0.8688(3) 0.9820(3)
H11_3 H 0.129979 0.891962 0.976916
C14_3 C 0.3301(9) 0.8641(2) 0.8819(2)
C15_3 C 0.3213(9) 0.8938(2) 0.8470(2)
C16_3 C 0.2715(9) 0.8068(2) 0.6989(2)
C17_3 C 0.1876(10) 0.7705(2) 0.6979(2)
H12_3 H 0.134335 0.763294 0.720301
C21_3 C 0.3155(9) 0.8765(3) 0.7341(2)
C22_3 C 0.2903(12) 0.9637(3) 0.8144(3)
C24_3 C 0.2916(12) 0.9431(3) 0.7767(2)
H16_3 H 0.278919 0.960081 0.753159
C25_3 C 0.3115(9) 0.8976(2) 0.7743(2)
C26_3 C 0.3513(9) 0.8149(3) 0.6660(2)
H17_3 H 0.410200 0.839327 0.665595
C27_3 C 0.1828(8) 0.7447(3) 0.6633(2)
H18_3 H 0.124066 0.720230 0.662675
C28_3 C 0.1856(16) 0.5936(4) 0.9567(5)
N10_3 N 0.171(2) 0.5637(4) 0.9369(5)
Au1_3 Au 0.75788(3) 0.78162(2) 0.07838(2)
C1_3 C 0.5640(9) 0.7760(2) 0.0799(2)
C2_3 C 0.9531(8) 0.7863(2) 0.0784(2)
Au2_4 Au 0.21266(4) 0.35403(2) 0.00893(2)
O1_4 O 0.3730(8) 0.1736(2) 0.12125(18)
O2_4 O 0.3554(9) 0.1033(2) 0.29441(19)
N7_4 N 0.2854(9) 0.1197(2) 0.08258(19)
H1_4 H 0.256216 0.092325 0.082250
N8_4 N 0.2734(8) 0.1665(2) 0.2668(2)
H2_4 H 0.245463 0.178212 0.244311
C5_4 C 0.3025(10) 0.0611(2) 0.1508(2)
H5_4 H 0.297905 0.046897 0.125599
C6_4 C 0.3562(9) 0.1988(2) 0.0014(2)
C7_4 C 0.3684(8) 0.1782(2) 0.0375(2)
H7_4 H 0.433749 0.187285 0.056148
C8_4 C 0.3428(8) 0.2135(3) 0.3663(2)
H8_4 H 0.401366 0.208878 0.388005
C11_4 C 0.3261(9) 0.1267(2) 0.1903(2)
H10_4 H 0.339435 0.157689 0.191771
C12_4 C 0.2823(8) 0.1434(2) 0.0464(2)
C13_4 C 0.1910(10) 0.1312(3) 0.0180(3)
H11_4 H 0.129979 0.108038 0.023084
C14_4 C 0.3301(9) 0.1359(2) 0.1181(2)
C15_4 C 0.3213(9) 0.1062(2) 0.1530(2)
C16_4 C 0.2715(9) 0.1932(2) 0.3011(2)
C17_4 C 0.1876(10) 0.2295(2) 0.3021(2)
H12_4 H 0.134335 0.236706 0.279699
C21_4 C 0.3155(9) 0.1235(3) 0.2659(2)
C22_4 C 0.2903(12) 0.0363(3) 0.1856(3)
C24_4 C 0.2916(12) 0.0569(3) 0.2233(2)
H16_4 H 0.278919 0.039919 0.246841
C25_4 C 0.3115(9) 0.1024(2) 0.2257(2)
C26_4 C 0.3513(9) 0.1851(3) 0.3340(2)
H17_4 H 0.410200 0.160673 0.334405
C27_4 C 0.1828(8) 0.2553(3) 0.3367(2)
H18_4 H 0.124066 0.279770 0.337325
C28_4 C 0.1856(16) 0.4064(4) 0.0433(5)
N10_4 N 0.171(2) 0.4363(4) 0.0631(5)
N1_4 N 0.0660(7) 0.2138(2) 0.92112(19)
N3_4 N 0.2417(7) 0.2740(2) 0.9509(2)
N4_4 N 0.2686(7) 0.18688(18) 0.97320(19)
C3_4 C 0.2335(10) 0.3041(2) 0.9716(2)
C4_4 C 0.1897(10) 0.1533(3) 0.9820(2)
H3_4 H 0.128377 0.143873 0.962308
H6_4 H 0.413079 0.223005 0.995895
N11_2 N 0.4491(6) 0.2252(2) 0.9189(2)
O3_4 O 0.1937(13) 0.9690(2) 0.2086(3)
N9_4 N 0.3285(12) 0.9665(2) 0.1539(3)
H4_4 H 0.388890 0.982119 0.141305
C9_4 C 0.3089(11) 0.9228(2) 0.1409(3)
C10_4 C 0.1989(10) 0.8533(3) 0.1373(3)
H9_4 H 0.129669 0.834472 0.146082
C18_4 C 0.2124(12) 0.8941(3) 0.1552(3)
H13_4 H 0.156994 0.902390 0.176816
C19_4 C 0.3728(9) 0.8670(3) 0.0951(3)
H14_4 H 0.430328 0.857568 0.074446
C20_4 C 0.2618(15) 0.9873(3) 0.1846(3)
C23_4 C 0.3904(10) 0.9088(3) 0.1103(3)
H15_4 H 0.457105 0.927653 0.099902
Au1_4 Au 0.75788(3) 0.21838(2) 0.92162(2)
C1_4 C 0.5640(9) 0.2240(2) 0.9201(2)
C2_4 C 0.9531(8) 0.2137(2) 0.9216(2)
Au1_5 Au 0.25788(3) 0.28162(2) 0.07838(2)
Fe1 Fe 0.75820(9) 0.28088(3) 0.07957(3)
N1_5 N 0.5660(7) 0.2862(2) 0.07888(19)
N3_5 N 0.7417(7) 0.2260(2) 0.0491(2)
N4_5 N 0.7686(7) 0.31312(18) 0.02680(19)
C1_5 C 0.0640(9) 0.2760(2) 0.0799(2)
C2_5 C 0.4531(8) 0.2863(2) 0.0784(2)
C3_5 C 0.7335(10) 0.1959(2) 0.0284(2)
C4_5 C 0.6897(10) 0.3467(3) 0.0180(2)
H3_5 H 0.628377 0.356127 0.037692
H6_5 H 0.913079 0.276995 0.004105
N11_3 N 0.9491(6) 0.2748(2) 0.0811(2)
N12_3 N 0.7794(7) 0.3388(2) 0.10779(19)
N13_3 N 0.7433(7) 0.24717(19) 0.13140(18)
Au2_5 Au 0.71266(4) 0.14597(2) 0.99107(2)
O1_5 O 0.8730(8) 0.3264(2) 0.87875(18)
N5_3 N 0.7794(7) 0.6612(2) 0.89221(19)
N6_3 N 0.7567(7) 0.25283(19) 0.63140(18)
O2_5 O 0.8554(9) 0.3967(2) 0.70559(19)
O3_5 O 0.6937(13) 0.5310(2) 0.7914(3)
N7_5 N 0.7854(9) 0.3803(2) 0.91742(19)
H1_5 H 0.756216 0.407675 0.917750
N8_5 N 0.7734(8) 0.3335(2) 0.7332(2)
H2_5 H 0.745463 0.321788 0.755689
N9_5 N 0.8285(12) 0.5335(2) 0.8461(3)
H4_5 H 0.888890 0.517881 0.858695
C5_5 C 0.8025(10) 0.4389(2) 0.8492(2)
H5_5 H 0.797905 0.453103 0.874401
C6_5 C 0.8562(9) 0.3012(2) 0.9986(2)
C7_5 C 0.8684(8) 0.3218(2) 0.9625(2)
H7_5 H 0.933749 0.312715 0.943852
C8_5 C 0.8428(8) 0.2865(3) 0.6337(2)
H8_5 H 0.901366 0.291122 0.611995
C9_5 C 0.8089(11) 0.5772(2) 0.8591(3)
C10_5 C 0.6989(10) 0.6467(3) 0.8627(3)
H9_5 H 0.629669 0.665528 0.853918
C11_5 C 0.8261(9) 0.3733(2) 0.8097(2)
H10_5 H 0.839435 0.342311 0.808229
C12_5 C 0.7823(8) 0.3566(2) 0.9536(2)
C13_5 C 0.6910(10) 0.3688(3) 0.9820(3)
H11_5 H 0.629979 0.391962 0.976916
C14_5 C 0.8301(9) 0.3641(2) 0.8819(2)
C15_5 C 0.8213(9) 0.3938(2) 0.8470(2)
C16_5 C 0.7715(9) 0.3068(2) 0.6989(2)
C17_5 C 0.6876(10) 0.2705(2) 0.6979(2)
H12_5 H 0.634335 0.263294 0.720301
C18_5 C 0.7124(12) 0.6059(3) 0.8448(3)
H13_5 H 0.656994 0.597610 0.823184
C19_5 C 0.8728(9) 0.6330(3) 0.9049(3)
H14_5 H 0.930328 0.642432 0.925554
C20_5 C 0.7618(15) 0.5127(3) 0.8154(3)
C21_5 C 0.8155(9) 0.3765(3) 0.7341(2)
C22_5 C 0.7903(12) 0.4637(3) 0.8144(3)
C23_5 C 0.8904(10) 0.5912(3) 0.8897(3)
H15_5 H 0.957105 0.572347 0.900098
C24_5 C 0.7916(12) 0.4431(3) 0.7767(2)
H16_5 H 0.778919 0.460081 0.753159
C25_5 C 0.8115(9) 0.3976(2) 0.7743(2)
C26_5 C 0.8513(9) 0.3149(3) 0.6660(2)
H17_5 H 0.910200 0.339327 0.665595
C27_5 C 0.6828(8) 0.2447(3) 0.6633(2)
H18_5 H 0.624066 0.220230 0.662675
C28_5 C 0.6856(16) 0.0936(4) 0.9567(5)
N10_5 N 0.671(2) 0.0637(4) 0.9369(5)
Fe3_2 Fe 0.75820(9) 0.71912(3) 0.92043(3)
Fe4_3 Fe 0.74180(9) 0.21912(3) 0.57957(3)
Au2_6 Au 0.71266(4) 0.85403(2) 0.00893(2)
O1_6 O 0.8730(8) 0.6736(2) 0.12125(18)
N6_4 N 0.7567(7) 0.74717(19) 0.36860(18)
O2_6 O 0.8554(9) 0.6033(2) 0.29441(19)
O3_6 O 0.6937(13) 0.4690(2) 0.2086(3)
N7_6 N 0.7854(9) 0.6197(2) 0.08258(19)
H1_6 H 0.756216 0.592325 0.082250
N8_6 N 0.7734(8) 0.6665(2) 0.2668(2)
H2_6 H 0.745463 0.678212 0.244311
N9_6 N 0.8285(12) 0.4665(2) 0.1539(3)
H4_6 H 0.888890 0.482119 0.141305
C5_6 C 0.8025(10) 0.5611(2) 0.1508(2)
H5_6 H 0.797905 0.546897 0.125599
C6_6 C 0.8562(9) 0.6988(2) 0.0014(2)
C7_6 C 0.8684(8) 0.6782(2) 0.0375(2)
H7_6 H 0.933749 0.687285 0.056148
C8_6 C 0.8428(8) 0.7135(3) 0.3663(2)
H8_6 H 0.901366 0.708878 0.388005
C9_6 C 0.8089(11) 0.4228(2) 0.1409(3)
C10_6 C 0.6989(10) 0.3533(3) 0.1373(3)
H9_6 H 0.629669 0.334472 0.146082
C11_6 C 0.8261(9) 0.6267(2) 0.1903(2)
H10_6 H 0.839435 0.657689 0.191771
C12_6 C 0.7823(8) 0.6434(2) 0.0464(2)
C13_6 C 0.6910(10) 0.6312(3) 0.0180(3)
H11_6 H 0.629979 0.608038 0.023084
C14_6 C 0.8301(9) 0.6359(2) 0.1181(2)
C15_6 C 0.8213(9) 0.6062(2) 0.1530(2)
C16_6 C 0.7715(9) 0.6932(2) 0.3011(2)
C17_6 C 0.6876(10) 0.7295(2) 0.3021(2)
H12_6 H 0.634335 0.736706 0.279699
C18_6 C 0.7124(12) 0.3941(3) 0.1552(3)
H13_6 H 0.656994 0.402390 0.176816
C19_6 C 0.8728(9) 0.3670(3) 0.0951(3)
H14_6 H 0.930328 0.357568 0.074446
C20_6 C 0.7618(15) 0.4873(3) 0.1846(3)
C21_6 C 0.8155(9) 0.6235(3) 0.2659(2)
C22_6 C 0.7903(12) 0.5363(3) 0.1856(3)
C23_6 C 0.8904(10) 0.4088(3) 0.1103(3)
H15_6 H 0.957105 0.427653 0.099902
C24_6 C 0.7916(12) 0.5569(3) 0.2233(2)
H16_6 H 0.778919 0.539919 0.246841
C25_6 C 0.8115(9) 0.6024(2) 0.2257(2)
C26_6 C 0.8513(9) 0.6851(3) 0.3340(2)
H17_6 H 0.910200 0.660673 0.334405
C27_6 C 0.6828(8) 0.7553(3) 0.3367(2)
H18_6 H 0.624066 0.779770 0.337325
C28_6 C 0.6856(16) 0.9064(4) 0.0433(5)
N10_6 N 0.671(2) 0.9363(4) 0.0631(5)
Fe4_4 Fe 0.74180(9) 0.78088(3) 0.42043(3)
Au1_6 Au 0.25788(3) 0.71838(2) 0.92162(2)
N1_6 N 0.5660(7) 0.7138(2) 0.92112(19)
N3_6 N 0.7417(7) 0.7740(2) 0.9509(2)
N4_6 N 0.7686(7) 0.68688(18) 0.97320(19)
C1_6 C 0.0640(9) 0.7240(2) 0.9201(2)
C2_6 C 0.4531(8) 0.7137(2) 0.9216(2)
C3_6 C 0.7335(10) 0.8041(2) 0.9716(2)
C4_6 C 0.6897(10) 0.6533(3) 0.9820(2)
H3_6 H 0.628377 0.643873 0.962308
H6_6 H 0.913079 0.723005 0.995895
N11_4 N 0.9491(6) 0.7252(2) 0.9189(2)
N13_4 N 0.7433(7) 0.75283(19) 0.86860(18)
Au1_7 Au 0.24212(3) 0.21838(2) 0.57838(2)
N2_3 N 0.5509(6) 0.2252(2) 0.5811(2)
C1_7 C 0.4360(9) 0.2240(2) 0.5799(2)
C2_7 C 0.0469(8) 0.2137(2) 0.5784(2)
Au2_7 Au 0.78734(4) 0.35403(2) 0.49107(2)
N1_7 N 0.9340(7) 0.2138(2) 0.57888(19)
N3_7 N 0.7583(7) 0.2740(2) 0.5491(2)
N4_7 N 0.7314(7) 0.18688(18) 0.52680(19)
O1_7 O 0.6270(8) 0.1736(2) 0.37875(18)
O2_7 O 0.6446(9) 0.1033(2) 0.20559(19)
C3_7 C 0.7665(10) 0.3041(2) 0.5284(2)
N7_7 N 0.7146(9) 0.1197(2) 0.41742(19)
H1_7 H 0.743784 0.092325 0.417750
N8_7 N 0.7266(8) 0.1665(2) 0.2332(2)
H2_7 H 0.754537 0.178212 0.255689
C4_7 C 0.8103(10) 0.1533(3) 0.5180(2)
H3_7 H 0.871623 0.143873 0.537692
C5_7 C 0.6975(10) 0.0611(2) 0.3492(2)
H5_7 H 0.702095 0.046897 0.374401
C6_7 C 0.6438(9) 0.1988(2) 0.4986(2)
H6_7 H 0.586921 0.223005 0.504105
C7_7 C 0.6316(8) 0.1782(2) 0.4625(2)
H7_7 H 0.566251 0.187285 0.443852
C8_7 C 0.6572(8) 0.2135(3) 0.1337(2)
H8_7 H 0.598634 0.208878 0.111995
C11_7 C 0.6739(9) 0.1267(2) 0.3097(2)
H10_7 H 0.660565 0.157689 0.308229
C12_7 C 0.7177(8) 0.1434(2) 0.4536(2)
C13_7 C 0.8090(10) 0.1312(3) 0.4820(3)
H11_7 H 0.870021 0.108038 0.476916
C14_7 C 0.6699(9) 0.1359(2) 0.3819(2)
C15_7 C 0.6787(9) 0.1062(2) 0.3470(2)
C16_7 C 0.7285(9) 0.1932(2) 0.1989(2)
C17_7 C 0.8124(10) 0.2295(2) 0.1979(2)
H12_7 H 0.865665 0.236706 0.220301
C21_7 C 0.6845(9) 0.1235(3) 0.2341(2)
C22_7 C 0.7097(12) 0.0363(3) 0.3144(3)
C24_7 C 0.7084(12) 0.0569(3) 0.2767(2)
H16_7 H 0.721081 0.039919 0.253159
C25_7 C 0.6885(9) 0.1024(2) 0.2743(2)
C26_7 C 0.6487(9) 0.1851(3) 0.1660(2)
H17_7 H 0.589800 0.160673 0.165595
C27_7 C 0.8172(8) 0.2553(3) 0.1633(2)
H18_7 H 0.875934 0.279770 0.162675
C28_7 C 0.8144(16) 0.4064(4) 0.4567(5)
N10_7 N 0.829(2) 0.4363(4) 0.4369(5)
N12_4 N 0.7206(7) 0.1612(2) 0.60779(19)
N5_4 N 0.7206(7) 0.8388(2) 0.39221(19)
O3_7 O 0.8063(13) 0.9690(2) 0.2914(3)
N9_7 N 0.6715(12) 0.9665(2) 0.3461(3)
H4_7 H 0.611110 0.982119 0.358695
C9_7 C 0.6911(11) 0.9228(2) 0.3591(3)
C10_7 C 0.8011(10) 0.8533(3) 0.3627(3)
H9_7 H 0.870331 0.834472 0.353918
C18_7 C 0.7876(12) 0.8941(3) 0.3448(3)
H13_7 H 0.843006 0.902390 0.323184
C19_7 C 0.6272(9) 0.8670(3) 0.4049(3)
H14_7 H 0.569672 0.857568 0.425554
C20_7 C 0.7382(15) 0.9873(3) 0.3154(3)
C23_7 C 0.6096(10) 0.9088(3) 0.3897(3)
H15_7 H 0.542895 0.927653 0.400098
Au1_8 Au 0.24212(3) 0.78162(2) 0.42162(2)
N2_4 N 0.5509(6) 0.7748(2) 0.4189(2)
C1_8 C 0.4360(9) 0.7760(2) 0.4201(2)
C2_8 C 0.0469(8) 0.7863(2) 0.4216(2)
O3_8 O 0.8063(13) 0.0310(2) 0.7086(3)
N9_8 N 0.6715(12) 0.0335(2) 0.6539(3)
H4_8 H 0.611110 0.017881 0.641305
C9_8 C 0.6911(11) 0.0772(2) 0.6409(3)
C10_8 C 0.8011(10) 0.1467(3) 0.6373(3)
H9_8 H 0.870331 0.165528 0.646082
C18_8 C 0.7876(12) 0.1059(3) 0.6552(3)
H13_8 H 0.843006 0.097610 0.676816
C19_8 C 0.6272(9) 0.1330(3) 0.5951(3)
H14_8 H 0.569672 0.142432 0.574446
C20_8 C 0.7382(15) 0.0127(3) 0.6846(3)
C23_8 C 0.6096(10) 0.0912(3) 0.6103(3)
H15_8 H 0.542895 0.072347 0.599902
Au2_8 Au 0.78734(4) 0.64597(2) 0.50893(2)
N1_8 N 0.9340(7) 0.7862(2) 0.42112(19)
N3_8 N 0.7583(7) 0.7260(2) 0.4509(2)
N4_8 N 0.7314(7) 0.81312(18) 0.47320(19)
O1_8 O 0.6270(8) 0.8264(2) 0.62125(18)
O2_8 O 0.6446(9) 0.8967(2) 0.79441(19)
C3_8 C 0.7665(10) 0.6959(2) 0.4716(2)
N7_8 N 0.7146(9) 0.8803(2) 0.58258(19)
H1_8 H 0.743784 0.907675 0.582250
N8_8 N 0.7266(8) 0.8335(2) 0.7668(2)
H2_8 H 0.754537 0.821788 0.744311
C4_8 C 0.8103(10) 0.8467(3) 0.4820(2)
H3_8 H 0.871623 0.856127 0.462308
C5_8 C 0.6975(10) 0.9389(2) 0.6508(2)
H5_8 H 0.702095 0.953103 0.625599
C6_8 C 0.6438(9) 0.8012(2) 0.5014(2)
H6_8 H 0.586921 0.776995 0.495895
C7_8 C 0.6316(8) 0.8218(2) 0.5375(2)
H7_8 H 0.566251 0.812715 0.556148
C8_8 C 0.6572(8) 0.7865(3) 0.8663(2)
H8_8 H 0.598634 0.791122 0.888005
C11_8 C 0.6739(9) 0.8733(2) 0.6903(2)
H10_8 H 0.660565 0.842311 0.691771
C12_8 C 0.7177(8) 0.8566(2) 0.5464(2)
C13_8 C 0.8090(10) 0.8688(3) 0.5180(3)
H11_8 H 0.870021 0.891962 0.523084
C14_8 C 0.6699(9) 0.8641(2) 0.6181(2)
C15_8 C 0.6787(9) 0.8938(2) 0.6530(2)
C16_8 C 0.7285(9) 0.8068(2) 0.8011(2)
C17_8 C 0.8124(10) 0.7705(2) 0.8021(2)
H12_8 H 0.865665 0.763294 0.779699
C21_8 C 0.6845(9) 0.8765(3) 0.7659(2)
C22_8 C 0.7097(12) 0.9637(3) 0.6856(3)
C24_8 C 0.7084(12) 0.9431(3) 0.7233(2)
H16_8 H 0.721081 0.960081 0.746841
C25_8 C 0.6885(9) 0.8976(2) 0.7257(2)
C26_8 C 0.6487(9) 0.8149(3) 0.8340(2)
H17_8 H 0.589800 0.839327 0.834405
C27_8 C 0.8172(8) 0.7447(3) 0.8367(2)
H18_8 H 0.875934 0.720230 0.837325
C28_8 C 0.8144(16) 0.5936(4) 0.5433(5)
N10_8 N 0.829(2) 0.5637(4) 0.5631(5)
loop_
_geom_bond_atom_site_label_1
_geom_bond_atom_site_label_2
_geom_bond_site_symmetry_1
_geom_bond_site_symmetry_2
Fe2 N2 1_555 1_555
Au1 C1 1_555 1_555
Au2 C3 1_555 1_555
Fe2 N1 1_555 1_555
N1 C2 1_555 1_555
N3 Fe2 1_555 1_555
N4 Fe2 1_555 1_555
O1 C14 1_555 1_555
N5 C10 1_555 1_555
N6 C8 1_555 1_555
O2 C21 1_555 1_555
C2 Au1 1_555 1_555
C3 N3 1_555 1_555
O3 C20 1_555 1_555
N7 H1 1_555 1_555
N8 H2 1_555 1_555
C4 N4 1_555 1_555
H3 C4 1_555 1_555
N9 H4 1_555 1_555
C5 H5 1_555 1_555
C6 N4 1_555 1_555
H6 C6 1_555 1_555
C7 C6 1_555 1_555
H7 C7 1_555 1_555
C8 H8 1_555 1_555
C9 N9 1_555 1_555
C10 H9 1_555 1_555
C11 H10 1_555 1_555
C12 N7 1_555 1_555
C13 C4 1_555 1_555
H11 C13 1_555 1_555
C14 N7 1_555 1_555
C15 C5 1_555 1_555
C16 N8 1_555 1_555
C17 C16 1_555 1_555
H12 C17 1_555 1_555
C18 C9 1_555 1_555
H13 C18 1_555 1_555
C19 N5 1_555 1_555
H14 C19 1_555 1_555
C20 N9 1_555 1_555
C21 N8 1_555 1_555
C22 C5 1_555 1_555
C23 C9 1_555 1_555
H15 C23 1_555 1_555
C24 C22 1_555 1_555
H16 C24 1_555 1_555
C25 C11 1_555 1_555
C26 C8 1_555 1_555
H17 C26 1_555 1_555
C27 N6 1_555 1_555
H18 C27 1_555 1_555
C28 Au2 1_555 1_555
N10 C28 1_555 1_555
Fe3 N5 1_555 1_555
Fe4 N6 1_555 1_555
N12 Fe2 1_555 1_555
N13 Fe2 1_555 1_555
C7 C12 1_555 1_555
C10 C18 1_555 1_555
C11 C15 1_555 1_555
C12 C13 1_555 1_555
C14 C15 1_555 1_555
C16 C26 1_555 1_555
C17 C27 1_555 1_555
C19 C23 1_555 1_555
C20 C22 1_555 1_555
C21 C25 1_555 1_555
C24 C25 1_555 1_555
Fe3 N2_2 1_555 1_555
Au1_2 C1_2 1_555 1_555
Au2_2 C3_2 1_555 1_555
Fe3 N1_2 1_555 1_555
N1_2 C2_2 1_555 1_555
N3_2 Fe3 1_555 1_555
N4_2 Fe3 1_555 1_555
O1_2 C14_2 1_555 1_555
N12 C10_2 1_555 1_555
N6_2 C8_2 1_555 1_555
O2_2 C21_2 1_555 1_555
C2_2 Au1_2 1_555 1_555
C3_2 N3_2 1_555 1_555
O3_2 C20_2 1_555 1_555
N7_2 H1_2 1_555 1_555
N8_2 H2_2 1_555 1_555
C4_2 N4_2 1_555 1_555
H3_2 C4_2 1_555 1_555
N9_2 H4_2 1_555 1_555
C5_2 H5_2 1_555 1_555
C6_2 N4_2 1_555 1_555
H6_2 C6_2 1_555 1_555
C7_2 C6_2 1_555 1_555
H7_2 C7_2 1_555 1_555
C8_2 H8_2 1_555 1_555
C9_2 N9_2 1_555 1_555
C10_2 H9_2 1_555 1_555
C11_2 H10_2 1_555 1_555
C12_2 N7_2 1_555 1_555
C13_2 C4_2 1_555 1_555
H11_2 C13_2 1_555 1_555
C14_2 N7_2 1_555 1_555
C15_2 C5_2 1_555 1_555
C16_2 N8_2 1_555 1_555
C17_2 C16_2 1_555 1_555
H12_2 C17_2 1_555 1_555
C18_2 C9_2 1_555 1_555
H13_2 C18_2 1_555 1_555
C19_2 N12 1_555 1_555
H14_2 C19_2 1_555 1_555
C20_2 N9_2 1_555 1_555
C21_2 N8_2 1_555 1_555
C22_2 C5_2 1_555 1_555
C23_2 C9_2 1_555 1_555
H15_2 C23_2 1_555 1_555
C24_2 C22_2 1_555 1_555
H16_2 C24_2 1_555 1_555
C25_2 C11_2 1_555 1_555
C26_2 C8_2 1_555 1_555
H17_2 C26_2 1_555 1_555
C27_2 N6_2 1_555 1_555
H18_2 C27_2 1_555 1_555
C28_2 Au2_2 1_555 1_555
N10_2 C28_2 1_555 1_555
Fe4_2 N6_2 1_555 1_555
N13_2 Fe3 1_555 1_555
C7_2 C12_2 1_555 1_555
C10_2 C18_2 1_555 1_555
C11_2 C15_2 1_555 1_555
C12_2 C13_2 1_555 1_555
C14_2 C15_2 1_555 1_555
C16_2 C26_2 1_555 1_555
C17_2 C27_2 1_555 1_555
C19_2 C23_2 1_555 1_555
C20_2 C22_2 1_555 1_555
C21_2 C25_2 1_555 1_555
C24_2 C25_2 1_555 1_555
N5_2 C10_3 1_555 1_555
O3_3 C20_3 1_555 1_555
N9_3 H4_3 1_555 1_555
C9_3 N9_3 1_555 1_555
C10_3 H9_3 1_555 1_555
C18_3 C9_3 1_555 1_555
H13_3 C18_3 1_555 1_555
C19_3 N5_2 1_555 1_555
H14_3 C19_3 1_555 1_555
C20_3 N9_3 1_555 1_555
C23_3 C9_3 1_555 1_555
H15_3 C23_3 1_555 1_555
Fe4_2 N5_2 1_555 1_555
C10_3 C18_3 1_555 1_555
C19_3 C23_3 1_555 1_555
Fe4 N1_3 1_555 1_555
N3_3 Fe4 1_555 1_555
N4_3 Fe4 1_555 1_555
C3_3 N3_3 1_555 1_555
C4_3 N4_3 1_555 1_555
H3_3 C4_3 1_555 1_555
N11 Fe4 1_555 1_555
N12_2 Fe4 1_555 1_555
O1_3 C14_3 1_555 1_555
N13 C8_3 1_555 1_555
O2_3 C21_3 1_555 1_555
N7_3 H1_3 1_555 1_555
N8_3 H2_3 1_555 1_555
C5_3 H5_3 1_555 1_555
C7_3 C6_3 1_555 1_555
H7_3 C7_3 1_555 1_555
C8_3 H8_3 1_555 1_555
C11_3 H10_3 1_555 1_555
C12_3 N7_3 1_555 1_555
H11_3 C13_3 1_555 1_555
C14_3 N7_3 1_555 1_555
C15_3 C5_3 1_555 1_555
C16_3 N8_3 1_555 1_555
C17_3 C16_3 1_555 1_555
H12_3 C17_3 1_555 1_555
C21_3 N8_3 1_555 1_555
C22_3 C5_3 1_555 1_555
C24_3 C22_3 1_555 1_555
H16_3 C24_3 1_555 1_555
C25_3 C11_3 1_555 1_555
C26_3 C8_3 1_555 1_555
H17_3 C26_3 1_555 1_555
C27_3 N13 1_555 1_555
H18_3 C27_3 1_555 1_555
C28_3 Au2_3 1_555 1_555
N10_3 C28_3 1_555 1_555
C7_3 C12_3 1_555 1_555
C11_3 C15_3 1_555 1_555
C12_3 C13_3 1_555 1_555
C14_3 C15_3 1_555 1_555
C16_3 C26_3 1_555 1_555
C17_3 C27_3 1_555 1_555
C21_3 C25_3 1_555 1_555
C24_3 C25_3 1_555 1_555
Au1_3 C1_3 1_555 1_555
N11 C1_3 1_555 1_555
C2_3 Au1_3 1_555 1_555
O1_4 C14_4 1_555 1_555
N13_2 C8_4 1_555 1_555
O2_4 C21_4 1_555 1_555
N7_4 H1_4 1_555 1_555
N8_4 H2_4 1_555 1_555
C5_4 H5_4 1_555 1_555
C7_4 C6_4 1_555 1_555
H7_4 C7_4 1_555 1_555
C8_4 H8_4 1_555 1_555
C11_4 H10_4 1_555 1_555
C12_4 N7_4 1_555 1_555
H11_4 C13_4 1_555 1_555
C14_4 N7_4 1_555 1_555
C15_4 C5_4 1_555 1_555
C16_4 N8_4 1_555 1_555
C17_4 C16_4 1_555 1_555
H12_4 C17_4 1_555 1_555
C21_4 N8_4 1_555 1_555
C22_4 C5_4 1_555 1_555
C24_4 C22_4 1_555 1_555
H16_4 C24_4 1_555 1_555
C25_4 C11_4 1_555 1_555
C26_4 C8_4 1_555 1_555
H17_4 C26_4 1_555 1_555
C27_4 N13_2 1_555 1_555
H18_4 C27_4 1_555 1_555
C28_4 Au2_4 1_555 1_555
N10_4 C28_4 1_555 1_555
C7_4 C12_4 1_555 1_555
C11_4 C15_4 1_555 1_555
C12_4 C13_4 1_555 1_555
C14_4 C15_4 1_555 1_555
C16_4 C26_4 1_555 1_555
C17_4 C27_4 1_555 1_555
C21_4 C25_4 1_555 1_555
C24_4 C25_4 1_555 1_555
Fe4_2 N1_4 1_555 1_555
N3_4 Fe4_2 1_555 1_555
N4_4 Fe4_2 1_555 1_555
C3_4 N3_4 1_555 1_555
C4_4 N4_4 1_555 1_555
H3_4 C4_4 1_555 1_555
N11_2 Fe4_2 1_555 1_555
N12_2 C10_4 1_555 1_555
O3_4 C20_4 1_555 1_555
N9_4 H4_4 1_555 1_555
C9_4 N9_4 1_555 1_555
C10_4 H9_4 1_555 1_555
C18_4 C9_4 1_555 1_555
H13_4 C18_4 1_555 1_555
C19_4 N12_2 1_555 1_555
H14_4 C19_4 1_555 1_555
C20_4 N9_4 1_555 1_555
C23_4 C9_4 1_555 1_555
H15_4 C23_4 1_555 1_555
C10_4 C18_4 1_555 1_555
C19_4 C23_4 1_555 1_555
Au1_4 C1_4 1_555 1_555
N11_2 C1_4 1_555 1_555
C2_4 Au1_4 1_555 1_555
Au1_5 C1_5 1_555 1_555
Fe1 N1_5 1_555 1_555
N1_5 C2_5 1_555 1_555
N3_5 Fe1 1_555 1_555
N4_5 Fe1 1_555 1_555
C2_5 Au1_5 1_555 1_555
C3_5 N3_5 1_555 1_555
C4_5 N4_5 1_555 1_555
H3_5 C4_5 1_555 1_555
N11_3 Fe1 1_555 1_555
N12_3 Fe1 1_555 1_555
N13_3 Fe1 1_555 1_555
O1_5 C14_5 1_555 1_555
N5_3 C10_5 1_555 1_555
N6_3 C8_5 1_555 1_555
O2_5 C21_5 1_555 1_555
O3_5 C20_5 1_555 1_555
N7_5 H1_5 1_555 1_555
N8_5 H2_5 1_555 1_555
N9_5 H4_5 1_555 1_555
C5_5 H5_5 1_555 1_555
C7_5 C6_5 1_555 1_555
H7_5 C7_5 1_555 1_555
C8_5 H8_5 1_555 1_555
C9_5 N9_5 1_555 1_555
C10_5 H9_5 1_555 1_555
C11_5 H10_5 1_555 1_555
C12_5 N7_5 1_555 1_555
H11_5 C13_5 1_555 1_555
C14_5 N7_5 1_555 1_555
C15_5 C5_5 1_555 1_555
C16_5 N8_5 1_555 1_555
C17_5 C16_5 1_555 1_555
H12_5 C17_5 1_555 1_555
C18_5 C9_5 1_555 1_555
H13_5 C18_5 1_555 1_555
C19_5 N5_3 1_555 1_555
H14_5 C19_5 1_555 1_555
C20_5 N9_5 1_555 1_555
C21_5 N8_5 1_555 1_555
C22_5 C5_5 1_555 1_555
C23_5 C9_5 1_555 1_555
H15_5 C23_5 1_555 1_555
C24_5 C22_5 1_555 1_555
H16_5 C24_5 1_555 1_555
C25_5 C11_5 1_555 1_555
C26_5 C8_5 1_555 1_555
H17_5 C26_5 1_555 1_555
C27_5 N6_3 1_555 1_555
H18_5 C27_5 1_555 1_555
C28_5 Au2_5 1_555 1_555
N10_5 C28_5 1_555 1_555
Fe3_2 N5_3 1_555 1_555
Fe4_3 N6_3 1_555 1_555
C7_5 C12_5 1_555 1_555
C10_5 C18_5 1_555 1_555
C11_5 C15_5 1_555 1_555
C12_5 C13_5 1_555 1_555
C14_5 C15_5 1_555 1_555
C16_5 C26_5 1_555 1_555
C17_5 C27_5 1_555 1_555
C19_5 C23_5 1_555 1_555
C20_5 C22_5 1_555 1_555
C21_5 C25_5 1_555 1_555
C24_5 C25_5 1_555 1_555
O1_6 C14_6 1_555 1_555
N12_3 C10_6 1_555 1_555
N6_4 C8_6 1_555 1_555
O2_6 C21_6 1_555 1_555
O3_6 C20_6 1_555 1_555
N7_6 H1_6 1_555 1_555
N8_6 H2_6 1_555 1_555
N9_6 H4_6 1_555 1_555
C5_6 H5_6 1_555 1_555
C7_6 C6_6 1_555 1_555
H7_6 C7_6 1_555 1_555
C8_6 H8_6 1_555 1_555
C9_6 N9_6 1_555 1_555
C10_6 H9_6 1_555 1_555
C11_6 H10_6 1_555 1_555
C12_6 N7_6 1_555 1_555
H11_6 C13_6 1_555 1_555
C14_6 N7_6 1_555 1_555
C15_6 C5_6 1_555 1_555
C16_6 N8_6 1_555 1_555
C17_6 C16_6 1_555 1_555
H12_6 C17_6 1_555 1_555
C18_6 C9_6 1_555 1_555
H13_6 C18_6 1_555 1_555
C19_6 N12_3 1_555 1_555
H14_6 C19_6 1_555 1_555
C20_6 N9_6 1_555 1_555
C21_6 N8_6 1_555 1_555
C22_6 C5_6 1_555 1_555
C23_6 C9_6 1_555 1_555
H15_6 C23_6 1_555 1_555
C24_6 C22_6 1_555 1_555
H16_6 C24_6 1_555 1_555
C25_6 C11_6 1_555 1_555
C26_6 C8_6 1_555 1_555
H17_6 C26_6 1_555 1_555
C27_6 N6_4 1_555 1_555
H18_6 C27_6 1_555 1_555
C28_6 Au2_6 1_555 1_555
N10_6 C28_6 1_555 1_555
Fe4_4 N6_4 1_555 1_555
C7_6 C12_6 1_555 1_555
C10_6 C18_6 1_555 1_555
C11_6 C15_6 1_555 1_555
C12_6 C13_6 1_555 1_555
C14_6 C15_6 1_555 1_555
C16_6 C26_6 1_555 1_555
C17_6 C27_6 1_555 1_555
C19_6 C23_6 1_555 1_555
C20_6 C22_6 1_555 1_555
C21_6 C25_6 1_555 1_555
C24_6 C25_6 1_555 1_555
Au1_6 C1_6 1_555 1_555
Fe3_2 N1_6 1_555 1_555
N1_6 C2_6 1_555 1_555
N3_6 Fe3_2 1_555 1_555
N4_6 Fe3_2 1_555 1_555
C2_6 Au1_6 1_555 1_555
C3_6 N3_6 1_555 1_555
C4_6 N4_6 1_555 1_555
H3_6 C4_6 1_555 1_555
N11_4 Fe3_2 1_555 1_555
N13_4 Fe3_2 1_555 1_555
Au1_7 C1_7 1_555 1_555
N2_3 C1_7 1_555 1_555
C2_7 Au1_7 1_555 1_555
Fe4_3 N2_3 1_555 1_555
Au2_7 C3_7 1_555 1_555
Fe4_3 N1_7 1_555 1_555
N3_7 Fe4_3 1_555 1_555
N4_7 Fe4_3 1_555 1_555
O1_7 C14_7 1_555 1_555
N13_3 C8_7 1_555 1_555
O2_7 C21_7 1_555 1_555
C3_7 N3_7 1_555 1_555
N7_7 H1_7 1_555 1_555
N8_7 H2_7 1_555 1_555
C4_7 N4_7 1_555 1_555
H3_7 C4_7 1_555 1_555
C5_7 H5_7 1_555 1_555
C6_7 N4_7 1_555 1_555
H6_7 C6_7 1_555 1_555
C7_7 C6_7 1_555 1_555
H7_7 C7_7 1_555 1_555
C8_7 H8_7 1_555 1_555
C11_7 H10_7 1_555 1_555
C12_7 N7_7 1_555 1_555
C13_7 C4_7 1_555 1_555
H11_7 C13_7 1_555 1_555
C14_7 N7_7 1_555 1_555
C15_7 C5_7 1_555 1_555
C16_7 N8_7 1_555 1_555
C17_7 C16_7 1_555 1_555
H12_7 C17_7 1_555 1_555
C21_7 N8_7 1_555 1_555
C22_7 C5_7 1_555 1_555
C24_7 C22_7 1_555 1_555
H16_7 C24_7 1_555 1_555
C25_7 C11_7 1_555 1_555
C26_7 C8_7 1_555 1_555
H17_7 C26_7 1_555 1_555
C27_7 N13_3 1_555 1_555
H18_7 C27_7 1_555 1_555
C28_7 Au2_7 1_555 1_555
N10_7 C28_7 1_555 1_555
N12_4 Fe4_3 1_555 1_555
C7_7 C12_7 1_555 1_555
C11_7 C15_7 1_555 1_555
C12_7 C13_7 1_555 1_555
C14_7 C15_7 1_555 1_555
C16_7 C26_7 1_555 1_555
C17_7 C27_7 1_555 1_555
C21_7 C25_7 1_555 1_555
C24_7 C25_7 1_555 1_555
N5_4 C10_7 1_555 1_555
O3_7 C20_7 1_555 1_555
N9_7 H4_7 1_555 1_555
C9_7 N9_7 1_555 1_555
C10_7 H9_7 1_555 1_555
C18_7 C9_7 1_555 1_555
H13_7 C18_7 1_555 1_555
C19_7 N5_4 1_555 1_555
H14_7 C19_7 1_555 1_555
C20_7 N9_7 1_555 1_555
C23_7 C9_7 1_555 1_555
H15_7 C23_7 1_555 1_555
Fe4_4 N5_4 1_555 1_555
C10_7 C18_7 1_555 1_555
C19_7 C23_7 1_555 1_555
Au1_8 C1_8 1_555 1_555
N2_4 C1_8 1_555 1_555
C2_8 Au1_8 1_555 1_555
Fe4_4 N2_4 1_555 1_555
N12_4 C10_8 1_555 1_555
O3_8 C20_8 1_555 1_555
N9_8 H4_8 1_555 1_555
C9_8 N9_8 1_555 1_555
C10_8 H9_8 1_555 1_555
C18_8 C9_8 1_555 1_555
H13_8 C18_8 1_555 1_555
C19_8 N12_4 1_555 1_555
H14_8 C19_8 1_555 1_555
C20_8 N9_8 1_555 1_555
C23_8 C9_8 1_555 1_555
H15_8 C23_8 1_555 1_555
C10_8 C18_8 1_555 1_555
C19_8 C23_8 1_555 1_555
Au2_8 C3_8 1_555 1_555
Fe4_4 N1_8 1_555 1_555
N3_8 Fe4_4 1_555 1_555
N4_8 Fe4_4 1_555 1_555
O1_8 C14_8 1_555 1_555
N13_4 C8_8 1_555 1_555
O2_8 C21_8 1_555 1_555
C3_8 N3_8 1_555 1_555
N7_8 H1_8 1_555 1_555
N8_8 H2_8 1_555 1_555
C4_8 N4_8 1_555 1_555
H3_8 C4_8 1_555 1_555
C5_8 H5_8 1_555 1_555
C6_8 N4_8 1_555 1_555
H6_8 C6_8 1_555 1_555
C7_8 C6_8 1_555 1_555
H7_8 C7_8 1_555 1_555
C8_8 H8_8 1_555 1_555
C11_8 H10_8 1_555 1_555
C12_8 N7_8 1_555 1_555
C13_8 C4_8 1_555 1_555
H11_8 C13_8 1_555 1_555
C14_8 N7_8 1_555 1_555
C15_8 C5_8 1_555 1_555
C16_8 N8_8 1_555 1_555
C17_8 C16_8 1_555 1_555
H12_8 C17_8 1_555 1_555
C21_8 N8_8 1_555 1_555
C22_8 C5_8 1_555 1_555
C24_8 C22_8 1_555 1_555
H16_8 C24_8 1_555 1_555
C25_8 C11_8 1_555 1_555
C26_8 C8_8 1_555 1_555
H17_8 C26_8 1_555 1_555
C27_8 N13_4 1_555 1_555
H18_8 C27_8 1_555 1_555
C28_8 Au2_8 1_555 1_555
N10_8 C28_8 1_555 1_555
C7_8 C12_8 1_555 1_555
C11_8 C15_8 1_555 1_555
C12_8 C13_8 1_555 1_555
C14_8 C15_8 1_555 1_555
C16_8 C26_8 1_555 1_555
C17_8 C27_8 1_555 1_555
C21_8 C25_8 1_555 1_555
C24_8 C25_8 1_555 1_555

#END
