
###############################################################################
#
# This file contains modified crystal structure data generated from the
# MOF subset of the Cambridge Structural Database (CSD) v543 
# hosted by the Cambridge Crystallographic Data Centre (CCDC).
#
# This work is licensed under the Creative Commons
# Attribution-NonCommercial-ShareAlike 4.0 International License.
# To view a copy of this license, visit
# http://creativecommons.org/licenses/by-nc-sa/4.0/
# or send a letter to
# Creative Commons, PO Box 1866, Mountain View, CA 94042, USA.
#
# CIF created using the CSD Python API on 29 September 2022
# The structure has been converted into the P1 space group
# The structure has a 3D framework
# The original CSD entry WAMCAS13 is in the orthorhombic crystal system
# The original CSD entry WAMCAS13 is in a Sohncke space group
# The framework has been calculated to contain at least 10.0% void space
# The void calculation uses a probe of radius 1.32A, grid spacing 0.4
#
###############################################################################

data_WAMCAS13
_chemical_formula_moiety         '(C224 H144 Au16 Fe8 N76 O24)n'
_symmetry_cell_setting           triclinic
_symmetry_space_group_name_H-M   'P 1'
_symmetry_Int_Tables_number      1
_space_group_name_Hall           'P 1'
loop_
_symmetry_equiv_pos_site_id
_symmetry_equiv_pos_as_xyz
1 x,y,z
_cell_length_a                   10.362(2)
_cell_length_b                   30.494(6)
_cell_length_c                   33.987(7)
_cell_angle_alpha                90
_cell_angle_beta                 90
_cell_angle_gamma                90
_cell_volume                     10739.2
loop_
_atom_site_label
_atom_site_type_symbol
_atom_site_fract_x
_atom_site_fract_y
_atom_site_fract_z
N2 N 0.0398(19) 0.7266(6) 0.5809(5)
Fe2 Fe 0.2407(2) 0.72091(7) 0.57916(6)
Au1 Au 0.74061(8) 0.71955(2) 0.57815(2)
Au2 Au 0.28515(17) 0.85631(3) 0.48770(3)
N1 N 0.4465(18) 0.7161(5) 0.5768(4)
N3 N 0.2541(19) 0.7794(5) 0.5471(4)
N4 N 0.231(2) 0.6875(4) 0.5235(4)
O1 O 0.122(2) 0.6722(5) 0.3782(4)
N5 N 0.2173(18) 0.3404(5) 0.3910(4)
N6 N 0.2423(18) 0.7442(5) 0.1344(4)
C1 C 0.947(3) 0.7237(8) 0.5794(6)
O2 O 0.152(3) 0.6016(5) 0.2082(4)
C2 C 0.547(2) 0.7158(7) 0.5778(7)
C3 C 0.264(3) 0.8078(6) 0.5263(5)
O3 O 0.309(3) 0.4698(6) 0.2945(6)
N7 N 0.218(2) 0.6195(5) 0.4147(4)
H1 H 0.257288 0.594226 0.414134
N8 N 0.221(3) 0.6650(6) 0.2345(4)
H2 H 0.246022 0.677532 0.256189
C4 C 0.307(3) 0.6533(7) 0.5152(6)
H3 H 0.364999 0.642874 0.534354
N9 N 0.172(3) 0.4672(6) 0.3472(6)
H4 H 0.114095 0.483089 0.359156
C5 C 0.195(3) 0.5611(6) 0.3492(6)
H5 H 0.197774 0.547464 0.374045
C6 C 0.145(2) 0.6975(6) 0.4975(5)
H6 H 0.089912 0.721047 0.503216
C7 C 0.129(2) 0.6757(6) 0.4611(5)
H7 H 0.060084 0.682979 0.444215
C8 C 0.154(2) 0.7118(7) 0.1361(6)
H8 H 0.098093 0.707082 0.114665
C9 C 0.182(3) 0.4246(6) 0.3594(6)
C10 C 0.299(2) 0.3555(7) 0.3619(6)
H9 H 0.368393 0.338040 0.353413
C11 C 0.170(3) 0.6264(6) 0.3095(5)
H10 H 0.159093 0.656898 0.306914
C12 C 0.215(2) 0.6439(5) 0.4514(4)
C13 C 0.303(3) 0.6337(8) 0.4805(7)
H11 H 0.362745 0.611376 0.475413
C14 C 0.163(3) 0.6344(6) 0.3820(5)
C15 C 0.171(3) 0.6065(6) 0.3473(6)
C16 C 0.224(4) 0.6900(7) 0.2004(5)
C17 C 0.314(3) 0.7255(7) 0.2001(5)
H12 H 0.369840 0.731208 0.221377
C18 C 0.279(3) 0.3971(7) 0.3451(7)
H13 H 0.331006 0.406344 0.324080
C19 C 0.124(3) 0.3690(6) 0.4023(8)
H14 H 0.067003 0.359479 0.422074
C20 C 0.245(4) 0.4886(7) 0.3169(6)
C21 C 0.180(2) 0.6212(7) 0.2368(5)
C22 C 0.215(3) 0.5355(6) 0.3157(6)
C23 C 0.105(2) 0.4091(6) 0.3882(8)
H15 H 0.037542 0.426585 0.398125
C24 C 0.201(4) 0.5576(8) 0.2790(6)
H16 H 0.205399 0.541065 0.255679
C25 C 0.184(3) 0.6001(7) 0.2763(5)
C26 C 0.144(2) 0.6838(7) 0.1709(5)
H17 H 0.081657 0.661557 0.172128
C27 C 0.314(3) 0.7511(7) 0.1656(6)
H18 H 0.370582 0.775227 0.164933
C28 C 0.316(4) 0.9061(11) 0.4522(9)
N10 N 0.320(7) 0.9379(14) 0.4343(12)
Fe3 Fe 0.2407(2) 0.27909(7) 0.42084(6)
Fe4 Fe 0.2593(2) 0.77909(7) 0.07916(6)
N12 N 0.2173(18) 0.6596(5) 0.6090(4)
N13 N 0.2577(18) 0.7558(5) 0.6344(4)
N2_2 N 0.0398(19) 0.2734(6) 0.4191(5)
Au1_2 Au 0.74061(8) 0.28045(2) 0.42185(2)
Au2_2 Au 0.28515(17) 0.14369(3) 0.51230(3)
N1_2 N 0.4465(18) 0.2839(5) 0.4232(4)
N3_2 N 0.2541(19) 0.2206(5) 0.4529(4)
N4_2 N 0.231(2) 0.3125(4) 0.4765(4)
O1_2 O 0.122(2) 0.3278(5) 0.6218(4)
N6_2 N 0.2423(18) 0.2558(5) 0.8656(4)
C1_2 C 0.947(3) 0.2763(8) 0.4206(6)
O2_2 O 0.152(3) 0.3984(5) 0.7918(4)
C2_2 C 0.547(2) 0.2842(7) 0.4222(7)
C3_2 C 0.264(3) 0.1922(6) 0.4737(5)
O3_2 O 0.309(3) 0.5302(6) 0.7055(6)
N7_2 N 0.218(2) 0.3805(5) 0.5853(4)
H1_2 H 0.257288 0.405774 0.585866
N8_2 N 0.221(3) 0.3350(6) 0.7655(4)
H2_2 H 0.246022 0.322468 0.743811
C4_2 C 0.307(3) 0.3467(7) 0.4848(6)
H3_2 H 0.364999 0.357126 0.465646
N9_2 N 0.172(3) 0.5328(6) 0.6528(6)
H4_2 H 0.114095 0.516911 0.640844
C5_2 C 0.195(3) 0.4389(6) 0.6508(6)
H5_2 H 0.197774 0.452536 0.625955
C6_2 C 0.145(2) 0.3025(6) 0.5025(5)
H6_2 H 0.089912 0.278953 0.496784
C7_2 C 0.129(2) 0.3243(6) 0.5389(5)
H7_2 H 0.060084 0.317021 0.555785
C8_2 C 0.154(2) 0.2882(7) 0.8639(6)
H8_2 H 0.098093 0.292918 0.885335
C9_2 C 0.182(3) 0.5754(6) 0.6406(6)
C10_2 C 0.299(2) 0.6445(7) 0.6381(6)
H9_2 H 0.368393 0.661960 0.646587
C11_2 C 0.170(3) 0.3736(6) 0.6905(5)
H10_2 H 0.159093 0.343102 0.693086
C12_2 C 0.215(2) 0.3561(5) 0.5486(4)
C13_2 C 0.303(3) 0.3663(8) 0.5195(7)
H11_2 H 0.362745 0.388624 0.524587
C14_2 C 0.163(3) 0.3656(6) 0.6180(5)
C15_2 C 0.171(3) 0.3935(6) 0.6527(6)
C16_2 C 0.224(4) 0.3100(7) 0.7996(5)
C17_2 C 0.314(3) 0.2745(7) 0.7999(5)
H12_2 H 0.369840 0.268792 0.778623
C18_2 C 0.279(3) 0.6029(7) 0.6549(7)
H13_2 H 0.331006 0.593656 0.675920
C19_2 C 0.124(3) 0.6310(6) 0.5977(8)
H14_2 H 0.067003 0.640521 0.577926
C20_2 C 0.245(4) 0.5114(7) 0.6831(6)
C21_2 C 0.180(2) 0.3788(7) 0.7632(5)
C22_2 C 0.215(3) 0.4645(6) 0.6843(6)
C23_2 C 0.105(2) 0.5909(6) 0.6118(8)
H15_2 H 0.037542 0.573415 0.601875
C24_2 C 0.201(4) 0.4424(8) 0.7210(6)
H16_2 H 0.205399 0.458935 0.744321
C25_2 C 0.184(3) 0.3999(7) 0.7237(5)
C26_2 C 0.144(2) 0.3162(7) 0.8291(5)
H17_2 H 0.081657 0.338443 0.827872
C27_2 C 0.314(3) 0.2489(7) 0.8344(6)
H18_2 H 0.370582 0.224773 0.835067
C28_2 C 0.316(4) 0.0939(11) 0.5478(9)
N10_2 N 0.320(7) 0.0621(14) 0.5657(12)
Fe4_2 Fe 0.2593(2) 0.22091(7) 0.92084(6)
N13_2 N 0.2577(18) 0.2442(5) 0.3656(4)
N5_2 N 0.2827(18) 0.1596(5) 0.8910(4)
O3_3 O 0.191(3) 0.0302(6) 0.7945(6)
N9_3 N 0.328(3) 0.0328(6) 0.8472(6)
H4_3 H 0.385905 0.016911 0.859156
C9_3 C 0.318(3) 0.0754(6) 0.8594(6)
C10_3 C 0.201(2) 0.1445(7) 0.8619(6)
H9_3 H 0.131607 0.161960 0.853413
C18_3 C 0.221(3) 0.1029(7) 0.8451(7)
H13_3 H 0.168994 0.093656 0.824080
C19_3 C 0.376(3) 0.1310(6) 0.9023(8)
H14_3 H 0.432997 0.140521 0.922074
C20_3 C 0.255(4) 0.0114(7) 0.8169(6)
C23_3 C 0.395(2) 0.0909(6) 0.8882(8)
H15_3 H 0.462458 0.073415 0.898125
N1_3 N 0.0535(18) 0.7839(5) 0.0768(4)
N3_3 N 0.2459(19) 0.7206(5) 0.0471(4)
N4_3 N 0.269(2) 0.8125(4) 0.0235(4)
C3_3 C 0.236(3) 0.6922(6) 0.0263(5)
C4_3 C 0.193(3) 0.8467(7) 0.0152(6)
H3_3 H 0.135001 0.857126 0.034354
H6_3 H 0.410088 0.778953 0.003216
N11 N 0.4602(19) 0.7734(6) 0.0809(5)
N12_2 N 0.2827(18) 0.8404(5) 0.1090(4)
Au2_3 Au 0.21485(17) 0.64369(3) 0.98770(3)
O1_3 O 0.378(2) 0.8278(5) 0.8782(4)
O2_3 O 0.348(3) 0.8984(5) 0.7082(4)
N7_3 N 0.282(2) 0.8805(5) 0.9147(4)
H1_3 H 0.242712 0.905774 0.914134
N8_3 N 0.279(3) 0.8350(6) 0.7345(4)
H2_3 H 0.253978 0.822468 0.756189
C5_3 C 0.305(3) 0.9389(6) 0.8492(6)
H5_3 H 0.302226 0.952536 0.874045
C6_3 C 0.355(2) 0.8025(6) 0.9975(5)
C7_3 C 0.371(2) 0.8243(6) 0.9611(5)
H7_3 H 0.439916 0.817021 0.944215
C8_3 C 0.346(2) 0.7882(7) 0.6361(6)
H8_3 H 0.401907 0.792918 0.614665
C11_3 C 0.330(3) 0.8736(6) 0.8095(5)
H10_3 H 0.340907 0.843102 0.806914
C12_3 C 0.285(2) 0.8561(5) 0.9514(4)
C13_3 C 0.197(3) 0.8663(8) 0.9805(7)
H11_3 H 0.137255 0.888624 0.975413
C14_3 C 0.337(3) 0.8656(6) 0.8820(5)
C15_3 C 0.329(3) 0.8935(6) 0.8473(6)
C16_3 C 0.276(4) 0.8100(7) 0.7004(5)
C17_3 C 0.186(3) 0.7745(7) 0.7001(5)
H12_3 H 0.130160 0.768792 0.721377
C21_3 C 0.320(2) 0.8788(7) 0.7368(5)
C22_3 C 0.285(3) 0.9645(6) 0.8157(6)
C24_3 C 0.299(4) 0.9424(8) 0.7790(6)
H16_3 H 0.294601 0.958935 0.755679
C25_3 C 0.316(3) 0.8999(7) 0.7763(5)
C26_3 C 0.356(2) 0.8162(7) 0.6709(5)
H17_3 H 0.418343 0.838443 0.672128
C27_3 C 0.186(3) 0.7489(7) 0.6656(6)
H18_3 H 0.129418 0.724773 0.664933
C28_3 C 0.184(4) 0.5939(11) 0.9522(9)
N10_3 N 0.180(7) 0.5621(14) 0.9343(12)
Au1_3 Au 0.75939(8) 0.78045(2) 0.07815(2)
C1_3 C 0.553(3) 0.7763(8) 0.0794(6)
C2_3 C 0.953(2) 0.7842(7) 0.0778(7)
Au2_4 Au 0.21485(17) 0.35631(3) 0.01230(3)
O1_4 O 0.378(2) 0.1722(5) 0.1218(4)
O2_4 O 0.348(3) 0.1016(5) 0.2918(4)
N7_4 N 0.282(2) 0.1195(5) 0.0853(4)
H1_4 H 0.242712 0.094226 0.085866
N8_4 N 0.279(3) 0.1650(6) 0.2655(4)
H2_4 H 0.253978 0.177532 0.243811
C5_4 C 0.305(3) 0.0611(6) 0.1508(6)
H5_4 H 0.302226 0.047464 0.125955
C6_4 C 0.355(2) 0.1975(6) 0.0025(5)
C7_4 C 0.371(2) 0.1757(6) 0.0389(5)
H7_4 H 0.439916 0.182979 0.055785
C8_4 C 0.346(2) 0.2118(7) 0.3639(6)
H8_4 H 0.401907 0.207082 0.385335
C11_4 C 0.330(3) 0.1264(6) 0.1905(5)
H10_4 H 0.340907 0.156898 0.193086
C12_4 C 0.285(2) 0.1439(5) 0.0486(4)
C13_4 C 0.197(3) 0.1337(8) 0.0195(7)
H11_4 H 0.137255 0.111376 0.024587
C14_4 C 0.337(3) 0.1344(6) 0.1180(5)
C15_4 C 0.329(3) 0.1065(6) 0.1527(6)
C16_4 C 0.276(4) 0.1900(7) 0.2996(5)
C17_4 C 0.186(3) 0.2255(7) 0.2999(5)
H12_4 H 0.130160 0.231208 0.278623
C21_4 C 0.320(2) 0.1212(7) 0.2632(5)
C22_4 C 0.285(3) 0.0355(6) 0.1843(6)
C24_4 C 0.299(4) 0.0576(8) 0.2210(6)
H16_4 H 0.294601 0.041065 0.244321
C25_4 C 0.316(3) 0.1001(7) 0.2237(5)
C26_4 C 0.356(2) 0.1838(7) 0.3291(5)
H17_4 H 0.418343 0.161557 0.327872
C27_4 C 0.186(3) 0.2511(7) 0.3344(6)
H18_4 H 0.129418 0.275227 0.335067
C28_4 C 0.184(4) 0.4061(11) 0.0478(9)
N10_4 N 0.180(7) 0.4379(14) 0.0657(12)
N1_4 N 0.0535(18) 0.2161(5) 0.9232(4)
N3_4 N 0.2459(19) 0.2794(5) 0.9529(4)
N4_4 N 0.269(2) 0.1875(4) 0.9765(4)
C3_4 C 0.236(3) 0.3078(6) 0.9737(5)
C4_4 C 0.193(3) 0.1533(7) 0.9848(6)
H3_4 H 0.135001 0.142874 0.965646
H6_4 H 0.410088 0.221047 0.996784
N11_2 N 0.4602(19) 0.2266(6) 0.9191(5)
O3_4 O 0.191(3) 0.9698(6) 0.2055(6)
N9_4 N 0.328(3) 0.9672(6) 0.1528(6)
H4_4 H 0.385905 0.983089 0.140844
C9_4 C 0.318(3) 0.9246(6) 0.1406(6)
C10_4 C 0.201(2) 0.8555(7) 0.1381(6)
H9_4 H 0.131607 0.838040 0.146587
C18_4 C 0.221(3) 0.8971(7) 0.1549(7)
H13_4 H 0.168994 0.906344 0.175920
C19_4 C 0.376(3) 0.8690(6) 0.0977(8)
H14_4 H 0.432997 0.859479 0.077926
C20_4 C 0.255(4) 0.9886(7) 0.1831(6)
C23_4 C 0.395(2) 0.9091(6) 0.1118(8)
H15_4 H 0.462458 0.926585 0.101875
Au1_4 Au 0.75939(8) 0.21955(2) 0.92185(2)
C1_4 C 0.553(3) 0.2237(8) 0.9206(6)
C2_4 C 0.953(2) 0.2158(7) 0.9222(7)
Au1_5 Au 0.25939(8) 0.28045(2) 0.07815(2)
Fe1 Fe 0.7593(2) 0.27909(7) 0.07916(6)
N1_5 N 0.5535(18) 0.2839(5) 0.0768(4)
N3_5 N 0.7459(19) 0.2206(5) 0.0471(4)
N4_5 N 0.769(2) 0.3125(4) 0.0235(4)
C1_5 C 0.053(3) 0.2763(8) 0.0794(6)
C2_5 C 0.453(2) 0.2842(7) 0.0778(7)
C3_5 C 0.736(3) 0.1922(6) 0.0263(5)
C4_5 C 0.693(3) 0.3467(7) 0.0152(6)
H3_5 H 0.635001 0.357126 0.034354
H6_5 H 0.910088 0.278953 0.003216
N11_3 N 0.9602(19) 0.2734(6) 0.0809(5)
N12_3 N 0.7827(18) 0.3404(5) 0.1090(4)
N13_3 N 0.7423(18) 0.2442(5) 0.1344(4)
Au2_5 Au 0.71485(17) 0.14369(3) 0.98770(3)
O1_5 O 0.878(2) 0.3278(5) 0.8782(4)
N5_3 N 0.7827(18) 0.6596(5) 0.8910(4)
N6_3 N 0.7577(18) 0.2558(5) 0.6344(4)
O2_5 O 0.848(3) 0.3984(5) 0.7082(4)
O3_5 O 0.691(3) 0.5302(6) 0.7945(6)
N7_5 N 0.782(2) 0.3805(5) 0.9147(4)
H1_5 H 0.742712 0.405774 0.914134
N8_5 N 0.779(3) 0.3350(6) 0.7345(4)
H2_5 H 0.753978 0.322468 0.756189
N9_5 N 0.828(3) 0.5328(6) 0.8472(6)
H4_5 H 0.885905 0.516911 0.859156
C5_5 C 0.805(3) 0.4389(6) 0.8492(6)
H5_5 H 0.802226 0.452536 0.874045
C6_5 C 0.855(2) 0.3025(6) 0.9975(5)
C7_5 C 0.871(2) 0.3243(6) 0.9611(5)
H7_5 H 0.939916 0.317021 0.944215
C8_5 C 0.846(2) 0.2882(7) 0.6361(6)
H8_5 H 0.901907 0.292918 0.614665
C9_5 C 0.818(3) 0.5754(6) 0.8594(6)
C10_5 C 0.701(2) 0.6445(7) 0.8619(6)
H9_5 H 0.631607 0.661960 0.853413
C11_5 C 0.830(3) 0.3736(6) 0.8095(5)
H10_5 H 0.840907 0.343102 0.806914
C12_5 C 0.785(2) 0.3561(5) 0.9514(4)
C13_5 C 0.697(3) 0.3663(8) 0.9805(7)
H11_5 H 0.637255 0.388624 0.975413
C14_5 C 0.837(3) 0.3656(6) 0.8820(5)
C15_5 C 0.829(3) 0.3935(6) 0.8473(6)
C16_5 C 0.776(4) 0.3100(7) 0.7004(5)
C17_5 C 0.686(3) 0.2745(7) 0.7001(5)
H12_5 H 0.630160 0.268792 0.721377
C18_5 C 0.721(3) 0.6029(7) 0.8451(7)
H13_5 H 0.668994 0.593656 0.824080
C19_5 C 0.876(3) 0.6310(6) 0.9023(8)
H14_5 H 0.932997 0.640521 0.922074
C20_5 C 0.755(4) 0.5114(7) 0.8169(6)
C21_5 C 0.820(2) 0.3788(7) 0.7368(5)
C22_5 C 0.785(3) 0.4645(6) 0.8157(6)
C23_5 C 0.895(2) 0.5909(6) 0.8882(8)
H15_5 H 0.962458 0.573415 0.898125
C24_5 C 0.799(4) 0.4424(8) 0.7790(6)
H16_5 H 0.794601 0.458935 0.755679
C25_5 C 0.816(3) 0.3999(7) 0.7763(5)
C26_5 C 0.856(2) 0.3162(7) 0.6709(5)
H17_5 H 0.918343 0.338443 0.672128
C27_5 C 0.686(3) 0.2489(7) 0.6656(6)
H18_5 H 0.629418 0.224773 0.664933
C28_5 C 0.684(4) 0.0939(11) 0.9522(9)
N10_5 N 0.680(7) 0.0621(14) 0.9343(12)
Fe3_2 Fe 0.7593(2) 0.72091(7) 0.92084(6)
Fe4_3 Fe 0.7407(2) 0.22091(7) 0.57916(6)
Au2_6 Au 0.71485(17) 0.85631(3) 0.01230(3)
O1_6 O 0.878(2) 0.6722(5) 0.1218(4)
N6_4 N 0.7577(18) 0.7442(5) 0.3656(4)
O2_6 O 0.848(3) 0.6016(5) 0.2918(4)
O3_6 O 0.691(3) 0.4698(6) 0.2055(6)
N7_6 N 0.782(2) 0.6195(5) 0.0853(4)
H1_6 H 0.742712 0.594226 0.085866
N8_6 N 0.779(3) 0.6650(6) 0.2655(4)
H2_6 H 0.753978 0.677532 0.243811
N9_6 N 0.828(3) 0.4672(6) 0.1528(6)
H4_6 H 0.885905 0.483089 0.140844
C5_6 C 0.805(3) 0.5611(6) 0.1508(6)
H5_6 H 0.802226 0.547464 0.125955
C6_6 C 0.855(2) 0.6975(6) 0.0025(5)
C7_6 C 0.871(2) 0.6757(6) 0.0389(5)
H7_6 H 0.939916 0.682979 0.055785
C8_6 C 0.846(2) 0.7118(7) 0.3639(6)
H8_6 H 0.901907 0.707082 0.385335
C9_6 C 0.818(3) 0.4246(6) 0.1406(6)
C10_6 C 0.701(2) 0.3555(7) 0.1381(6)
H9_6 H 0.631607 0.338040 0.146587
C11_6 C 0.830(3) 0.6264(6) 0.1905(5)
H10_6 H 0.840907 0.656898 0.193086
C12_6 C 0.785(2) 0.6439(5) 0.0486(4)
C13_6 C 0.697(3) 0.6337(8) 0.0195(7)
H11_6 H 0.637255 0.611376 0.024587
C14_6 C 0.837(3) 0.6344(6) 0.1180(5)
C15_6 C 0.829(3) 0.6065(6) 0.1527(6)
C16_6 C 0.776(4) 0.6900(7) 0.2996(5)
C17_6 C 0.686(3) 0.7255(7) 0.2999(5)
H12_6 H 0.630160 0.731208 0.278623
C18_6 C 0.721(3) 0.3971(7) 0.1549(7)
H13_6 H 0.668994 0.406344 0.175920
C19_6 C 0.876(3) 0.3690(6) 0.0977(8)
H14_6 H 0.932997 0.359479 0.077926
C20_6 C 0.755(4) 0.4886(7) 0.1831(6)
C21_6 C 0.820(2) 0.6212(7) 0.2632(5)
C22_6 C 0.785(3) 0.5355(6) 0.1843(6)
C23_6 C 0.895(2) 0.4091(6) 0.1118(8)
H15_6 H 0.962458 0.426585 0.101875
C24_6 C 0.799(4) 0.5576(8) 0.2210(6)
H16_6 H 0.794601 0.541065 0.244321
C25_6 C 0.816(3) 0.6001(7) 0.2237(5)
C26_6 C 0.856(2) 0.6838(7) 0.3291(5)
H17_6 H 0.918343 0.661557 0.327872
C27_6 C 0.686(3) 0.7511(7) 0.3344(6)
H18_6 H 0.629418 0.775227 0.335067
C28_6 C 0.684(4) 0.9061(11) 0.0478(9)
N10_6 N 0.680(7) 0.9379(14) 0.0657(12)
Fe4_4 Fe 0.7407(2) 0.77909(7) 0.42084(6)
Au1_6 Au 0.25939(8) 0.71955(2) 0.92185(2)
N1_6 N 0.5535(18) 0.7161(5) 0.9232(4)
N3_6 N 0.7459(19) 0.7794(5) 0.9529(4)
N4_6 N 0.769(2) 0.6875(4) 0.9765(4)
C1_6 C 0.053(3) 0.7237(8) 0.9206(6)
C2_6 C 0.453(2) 0.7158(7) 0.9222(7)
C3_6 C 0.736(3) 0.8078(6) 0.9737(5)
C4_6 C 0.693(3) 0.6533(7) 0.9848(6)
H3_6 H 0.635001 0.642874 0.965646
H6_6 H 0.910088 0.721047 0.996784
N11_4 N 0.9602(19) 0.7266(6) 0.9191(5)
N13_4 N 0.7423(18) 0.7558(5) 0.8656(4)
Au1_7 Au 0.24061(8) 0.21955(2) 0.57815(2)
N2_3 N 0.5398(19) 0.2266(6) 0.5809(5)
C1_7 C 0.447(3) 0.2237(8) 0.5794(6)
C2_7 C 0.047(2) 0.2158(7) 0.5778(7)
Au2_7 Au 0.78515(17) 0.35631(3) 0.48770(3)
N1_7 N 0.9465(18) 0.2161(5) 0.5768(4)
N3_7 N 0.7541(19) 0.2794(5) 0.5471(4)
N4_7 N 0.731(2) 0.1875(4) 0.5235(4)
O1_7 O 0.622(2) 0.1722(5) 0.3782(4)
O2_7 O 0.652(3) 0.1016(5) 0.2082(4)
C3_7 C 0.764(3) 0.3078(6) 0.5263(5)
N7_7 N 0.718(2) 0.1195(5) 0.4147(4)
H1_7 H 0.757288 0.094226 0.414134
N8_7 N 0.721(3) 0.1650(6) 0.2345(4)
H2_7 H 0.746022 0.177532 0.256189
C4_7 C 0.807(3) 0.1533(7) 0.5152(6)
H3_7 H 0.864999 0.142874 0.534354
C5_7 C 0.695(3) 0.0611(6) 0.3492(6)
H5_7 H 0.697774 0.047464 0.374045
C6_7 C 0.645(2) 0.1975(6) 0.4975(5)
H6_7 H 0.589912 0.221047 0.503216
C7_7 C 0.629(2) 0.1757(6) 0.4611(5)
H7_7 H 0.560084 0.182979 0.444215
C8_7 C 0.654(2) 0.2118(7) 0.1361(6)
H8_7 H 0.598093 0.207082 0.114665
C11_7 C 0.670(3) 0.1264(6) 0.3095(5)
H10_7 H 0.659093 0.156898 0.306914
C12_7 C 0.715(2) 0.1439(5) 0.4514(4)
C13_7 C 0.803(3) 0.1337(8) 0.4805(7)
H11_7 H 0.862745 0.111376 0.475413
C14_7 C 0.663(3) 0.1344(6) 0.3820(5)
C15_7 C 0.671(3) 0.1065(6) 0.3473(6)
C16_7 C 0.724(4) 0.1900(7) 0.2004(5)
C17_7 C 0.814(3) 0.2255(7) 0.2001(5)
H12_7 H 0.869840 0.231208 0.221377
C21_7 C 0.680(2) 0.1212(7) 0.2368(5)
C22_7 C 0.715(3) 0.0355(6) 0.3157(6)
C24_7 C 0.701(4) 0.0576(8) 0.2790(6)
H16_7 H 0.705399 0.041065 0.255679
C25_7 C 0.684(3) 0.1001(7) 0.2763(5)
C26_7 C 0.644(2) 0.1838(7) 0.1709(5)
H17_7 H 0.581657 0.161557 0.172128
C27_7 C 0.814(3) 0.2511(7) 0.1656(6)
H18_7 H 0.870582 0.275227 0.164933
C28_7 C 0.816(4) 0.4061(11) 0.4522(9)
N10_7 N 0.820(7) 0.4379(14) 0.4343(12)
N12_4 N 0.7173(18) 0.1596(5) 0.6090(4)
N5_4 N 0.7173(18) 0.8404(5) 0.3910(4)
O3_7 O 0.809(3) 0.9698(6) 0.2945(6)
N9_7 N 0.672(3) 0.9672(6) 0.3472(6)
H4_7 H 0.614095 0.983089 0.359156
C9_7 C 0.682(3) 0.9246(6) 0.3594(6)
C10_7 C 0.799(2) 0.8555(7) 0.3619(6)
H9_7 H 0.868393 0.838040 0.353413
C18_7 C 0.779(3) 0.8971(7) 0.3451(7)
H13_7 H 0.831006 0.906344 0.324080
C19_7 C 0.624(3) 0.8690(6) 0.4023(8)
H14_7 H 0.567003 0.859479 0.422074
C20_7 C 0.745(4) 0.9886(7) 0.3169(6)
C23_7 C 0.605(2) 0.9091(6) 0.3882(8)
H15_7 H 0.537542 0.926585 0.398125
Au1_8 Au 0.24061(8) 0.78045(2) 0.42185(2)
N2_4 N 0.5398(19) 0.7734(6) 0.4191(5)
C1_8 C 0.447(3) 0.7763(8) 0.4206(6)
C2_8 C 0.047(2) 0.7842(7) 0.4222(7)
O3_8 O 0.809(3) 0.0302(6) 0.7055(6)
N9_8 N 0.672(3) 0.0328(6) 0.6528(6)
H4_8 H 0.614095 0.016911 0.640844
C9_8 C 0.682(3) 0.0754(6) 0.6406(6)
C10_8 C 0.799(2) 0.1445(7) 0.6381(6)
H9_8 H 0.868393 0.161960 0.646587
C18_8 C 0.779(3) 0.1029(7) 0.6549(7)
H13_8 H 0.831006 0.093656 0.675920
C19_8 C 0.624(3) 0.1310(6) 0.5977(8)
H14_8 H 0.567003 0.140521 0.577926
C20_8 C 0.745(4) 0.0114(7) 0.6831(6)
C23_8 C 0.605(2) 0.0909(6) 0.6118(8)
H15_8 H 0.537542 0.073415 0.601875
Au2_8 Au 0.78515(17) 0.64369(3) 0.51230(3)
N1_8 N 0.9465(18) 0.7839(5) 0.4232(4)
N3_8 N 0.7541(19) 0.7206(5) 0.4529(4)
N4_8 N 0.731(2) 0.8125(4) 0.4765(4)
O1_8 O 0.622(2) 0.8278(5) 0.6218(4)
O2_8 O 0.652(3) 0.8984(5) 0.7918(4)
C3_8 C 0.764(3) 0.6922(6) 0.4737(5)
N7_8 N 0.718(2) 0.8805(5) 0.5853(4)
H1_8 H 0.757288 0.905774 0.585866
N8_8 N 0.721(3) 0.8350(6) 0.7655(4)
H2_8 H 0.746022 0.822468 0.743811
C4_8 C 0.807(3) 0.8467(7) 0.4848(6)
H3_8 H 0.864999 0.857126 0.465646
C5_8 C 0.695(3) 0.9389(6) 0.6508(6)
H5_8 H 0.697774 0.952536 0.625955
C6_8 C 0.645(2) 0.8025(6) 0.5025(5)
H6_8 H 0.589912 0.778953 0.496784
C7_8 C 0.629(2) 0.8243(6) 0.5389(5)
H7_8 H 0.560084 0.817021 0.555785
C8_8 C 0.654(2) 0.7882(7) 0.8639(6)
H8_8 H 0.598093 0.792918 0.885335
C11_8 C 0.670(3) 0.8736(6) 0.6905(5)
H10_8 H 0.659093 0.843102 0.693086
C12_8 C 0.715(2) 0.8561(5) 0.5486(4)
C13_8 C 0.803(3) 0.8663(8) 0.5195(7)
H11_8 H 0.862745 0.888624 0.524587
C14_8 C 0.663(3) 0.8656(6) 0.6180(5)
C15_8 C 0.671(3) 0.8935(6) 0.6527(6)
C16_8 C 0.724(4) 0.8100(7) 0.7996(5)
C17_8 C 0.814(3) 0.7745(7) 0.7999(5)
H12_8 H 0.869840 0.768792 0.778623
C21_8 C 0.680(2) 0.8788(7) 0.7632(5)
C22_8 C 0.715(3) 0.9645(6) 0.6843(6)
C24_8 C 0.701(4) 0.9424(8) 0.7210(6)
H16_8 H 0.705399 0.958935 0.744321
C25_8 C 0.684(3) 0.8999(7) 0.7237(5)
C26_8 C 0.644(2) 0.8162(7) 0.8291(5)
H17_8 H 0.581657 0.838443 0.827872
C27_8 C 0.814(3) 0.7489(7) 0.8344(6)
H18_8 H 0.870582 0.724773 0.835067
C28_8 C 0.816(4) 0.5939(11) 0.5478(9)
N10_8 N 0.820(7) 0.5621(14) 0.5657(12)
loop_
_geom_bond_atom_site_label_1
_geom_bond_atom_site_label_2
_geom_bond_site_symmetry_1
_geom_bond_site_symmetry_2
Fe2 N2 1_555 1_555
Au1 C1 1_555 1_555
Au2 C3 1_555 1_555
Fe2 N1 1_555 1_555
N1 C2 1_555 1_555
N3 Fe2 1_555 1_555
N4 Fe2 1_555 1_555
O1 C14 1_555 1_555
N5 C10 1_555 1_555
N6 C8 1_555 1_555
O2 C21 1_555 1_555
C2 Au1 1_555 1_555
C3 N3 1_555 1_555
O3 C20 1_555 1_555
N7 H1 1_555 1_555
N8 H2 1_555 1_555
C4 N4 1_555 1_555
H3 C4 1_555 1_555
N9 H4 1_555 1_555
C5 H5 1_555 1_555
C6 N4 1_555 1_555
H6 C6 1_555 1_555
C7 C6 1_555 1_555
H7 C7 1_555 1_555
C8 H8 1_555 1_555
C9 N9 1_555 1_555
C10 H9 1_555 1_555
C11 H10 1_555 1_555
C12 N7 1_555 1_555
C13 C4 1_555 1_555
H11 C13 1_555 1_555
C14 N7 1_555 1_555
C15 C5 1_555 1_555
C16 N8 1_555 1_555
C17 C16 1_555 1_555
H12 C17 1_555 1_555
C18 C9 1_555 1_555
H13 C18 1_555 1_555
C19 N5 1_555 1_555
H14 C19 1_555 1_555
C20 N9 1_555 1_555
C21 N8 1_555 1_555
C22 C5 1_555 1_555
C23 C9 1_555 1_555
H15 C23 1_555 1_555
C24 C22 1_555 1_555
H16 C24 1_555 1_555
C25 C11 1_555 1_555
C26 C8 1_555 1_555
H17 C26 1_555 1_555
C27 N6 1_555 1_555
H18 C27 1_555 1_555
C28 Au2 1_555 1_555
N10 C28 1_555 1_555
Fe3 N5 1_555 1_555
Fe4 N6 1_555 1_555
N12 Fe2 1_555 1_555
N13 Fe2 1_555 1_555
C7 C12 1_555 1_555
C10 C18 1_555 1_555
C11 C15 1_555 1_555
C12 C13 1_555 1_555
C14 C15 1_555 1_555
C16 C26 1_555 1_555
C17 C27 1_555 1_555
C19 C23 1_555 1_555
C20 C22 1_555 1_555
C21 C25 1_555 1_555
C24 C25 1_555 1_555
Fe3 N2_2 1_555 1_555
Au1_2 C1_2 1_555 1_555
Au2_2 C3_2 1_555 1_555
Fe3 N1_2 1_555 1_555
N1_2 C2_2 1_555 1_555
N3_2 Fe3 1_555 1_555
N4_2 Fe3 1_555 1_555
O1_2 C14_2 1_555 1_555
N12 C10_2 1_555 1_555
N6_2 C8_2 1_555 1_555
O2_2 C21_2 1_555 1_555
C2_2 Au1_2 1_555 1_555
C3_2 N3_2 1_555 1_555
O3_2 C20_2 1_555 1_555
N7_2 H1_2 1_555 1_555
N8_2 H2_2 1_555 1_555
C4_2 N4_2 1_555 1_555
H3_2 C4_2 1_555 1_555
N9_2 H4_2 1_555 1_555
C5_2 H5_2 1_555 1_555
C6_2 N4_2 1_555 1_555
H6_2 C6_2 1_555 1_555
C7_2 C6_2 1_555 1_555
H7_2 C7_2 1_555 1_555
C8_2 H8_2 1_555 1_555
C9_2 N9_2 1_555 1_555
C10_2 H9_2 1_555 1_555
C11_2 H10_2 1_555 1_555
C12_2 N7_2 1_555 1_555
C13_2 C4_2 1_555 1_555
H11_2 C13_2 1_555 1_555
C14_2 N7_2 1_555 1_555
C15_2 C5_2 1_555 1_555
C16_2 N8_2 1_555 1_555
C17_2 C16_2 1_555 1_555
H12_2 C17_2 1_555 1_555
C18_2 C9_2 1_555 1_555
H13_2 C18_2 1_555 1_555
C19_2 N12 1_555 1_555
H14_2 C19_2 1_555 1_555
C20_2 N9_2 1_555 1_555
C21_2 N8_2 1_555 1_555
C22_2 C5_2 1_555 1_555
C23_2 C9_2 1_555 1_555
H15_2 C23_2 1_555 1_555
C24_2 C22_2 1_555 1_555
H16_2 C24_2 1_555 1_555
C25_2 C11_2 1_555 1_555
C26_2 C8_2 1_555 1_555
H17_2 C26_2 1_555 1_555
C27_2 N6_2 1_555 1_555
H18_2 C27_2 1_555 1_555
C28_2 Au2_2 1_555 1_555
N10_2 C28_2 1_555 1_555
Fe4_2 N6_2 1_555 1_555
N13_2 Fe3 1_555 1_555
C7_2 C12_2 1_555 1_555
C10_2 C18_2 1_555 1_555
C11_2 C15_2 1_555 1_555
C12_2 C13_2 1_555 1_555
C14_2 C15_2 1_555 1_555
C16_2 C26_2 1_555 1_555
C17_2 C27_2 1_555 1_555
C19_2 C23_2 1_555 1_555
C20_2 C22_2 1_555 1_555
C21_2 C25_2 1_555 1_555
C24_2 C25_2 1_555 1_555
N5_2 C10_3 1_555 1_555
O3_3 C20_3 1_555 1_555
N9_3 H4_3 1_555 1_555
C9_3 N9_3 1_555 1_555
C10_3 H9_3 1_555 1_555
C18_3 C9_3 1_555 1_555
H13_3 C18_3 1_555 1_555
C19_3 N5_2 1_555 1_555
H14_3 C19_3 1_555 1_555
C20_3 N9_3 1_555 1_555
C23_3 C9_3 1_555 1_555
H15_3 C23_3 1_555 1_555
Fe4_2 N5_2 1_555 1_555
C10_3 C18_3 1_555 1_555
C19_3 C23_3 1_555 1_555
Fe4 N1_3 1_555 1_555
N3_3 Fe4 1_555 1_555
N4_3 Fe4 1_555 1_555
C3_3 N3_3 1_555 1_555
C4_3 N4_3 1_555 1_555
H3_3 C4_3 1_555 1_555
N11 Fe4 1_555 1_555
N12_2 Fe4 1_555 1_555
O1_3 C14_3 1_555 1_555
N13 C8_3 1_555 1_555
O2_3 C21_3 1_555 1_555
N7_3 H1_3 1_555 1_555
N8_3 H2_3 1_555 1_555
C5_3 H5_3 1_555 1_555
C7_3 C6_3 1_555 1_555
H7_3 C7_3 1_555 1_555
C8_3 H8_3 1_555 1_555
C11_3 H10_3 1_555 1_555
C12_3 N7_3 1_555 1_555
H11_3 C13_3 1_555 1_555
C14_3 N7_3 1_555 1_555
C15_3 C5_3 1_555 1_555
C16_3 N8_3 1_555 1_555
C17_3 C16_3 1_555 1_555
H12_3 C17_3 1_555 1_555
C21_3 N8_3 1_555 1_555
C22_3 C5_3 1_555 1_555
C24_3 C22_3 1_555 1_555
H16_3 C24_3 1_555 1_555
C25_3 C11_3 1_555 1_555
C26_3 C8_3 1_555 1_555
H17_3 C26_3 1_555 1_555
C27_3 N13 1_555 1_555
H18_3 C27_3 1_555 1_555
C28_3 Au2_3 1_555 1_555
N10_3 C28_3 1_555 1_555
C7_3 C12_3 1_555 1_555
C11_3 C15_3 1_555 1_555
C12_3 C13_3 1_555 1_555
C14_3 C15_3 1_555 1_555
C16_3 C26_3 1_555 1_555
C17_3 C27_3 1_555 1_555
C21_3 C25_3 1_555 1_555
C24_3 C25_3 1_555 1_555
Au1_3 C1_3 1_555 1_555
N11 C1_3 1_555 1_555
C2_3 Au1_3 1_555 1_555
O1_4 C14_4 1_555 1_555
N13_2 C8_4 1_555 1_555
O2_4 C21_4 1_555 1_555
N7_4 H1_4 1_555 1_555
N8_4 H2_4 1_555 1_555
C5_4 H5_4 1_555 1_555
C7_4 C6_4 1_555 1_555
H7_4 C7_4 1_555 1_555
C8_4 H8_4 1_555 1_555
C11_4 H10_4 1_555 1_555
C12_4 N7_4 1_555 1_555
H11_4 C13_4 1_555 1_555
C14_4 N7_4 1_555 1_555
C15_4 C5_4 1_555 1_555
C16_4 N8_4 1_555 1_555
C17_4 C16_4 1_555 1_555
H12_4 C17_4 1_555 1_555
C21_4 N8_4 1_555 1_555
C22_4 C5_4 1_555 1_555
C24_4 C22_4 1_555 1_555
H16_4 C24_4 1_555 1_555
C25_4 C11_4 1_555 1_555
C26_4 C8_4 1_555 1_555
H17_4 C26_4 1_555 1_555
C27_4 N13_2 1_555 1_555
H18_4 C27_4 1_555 1_555
C28_4 Au2_4 1_555 1_555
N10_4 C28_4 1_555 1_555
C7_4 C12_4 1_555 1_555
C11_4 C15_4 1_555 1_555
C12_4 C13_4 1_555 1_555
C14_4 C15_4 1_555 1_555
C16_4 C26_4 1_555 1_555
C17_4 C27_4 1_555 1_555
C21_4 C25_4 1_555 1_555
C24_4 C25_4 1_555 1_555
Fe4_2 N1_4 1_555 1_555
N3_4 Fe4_2 1_555 1_555
N4_4 Fe4_2 1_555 1_555
C3_4 N3_4 1_555 1_555
C4_4 N4_4 1_555 1_555
H3_4 C4_4 1_555 1_555
N11_2 Fe4_2 1_555 1_555
N12_2 C10_4 1_555 1_555
O3_4 C20_4 1_555 1_555
N9_4 H4_4 1_555 1_555
C9_4 N9_4 1_555 1_555
C10_4 H9_4 1_555 1_555
C18_4 C9_4 1_555 1_555
H13_4 C18_4 1_555 1_555
C19_4 N12_2 1_555 1_555
H14_4 C19_4 1_555 1_555
C20_4 N9_4 1_555 1_555
C23_4 C9_4 1_555 1_555
H15_4 C23_4 1_555 1_555
C10_4 C18_4 1_555 1_555
C19_4 C23_4 1_555 1_555
Au1_4 C1_4 1_555 1_555
N11_2 C1_4 1_555 1_555
C2_4 Au1_4 1_555 1_555
Au1_5 C1_5 1_555 1_555
Fe1 N1_5 1_555 1_555
N1_5 C2_5 1_555 1_555
N3_5 Fe1 1_555 1_555
N4_5 Fe1 1_555 1_555
C2_5 Au1_5 1_555 1_555
C3_5 N3_5 1_555 1_555
C4_5 N4_5 1_555 1_555
H3_5 C4_5 1_555 1_555
N11_3 Fe1 1_555 1_555
N12_3 Fe1 1_555 1_555
N13_3 Fe1 1_555 1_555
O1_5 C14_5 1_555 1_555
N5_3 C10_5 1_555 1_555
N6_3 C8_5 1_555 1_555
O2_5 C21_5 1_555 1_555
O3_5 C20_5 1_555 1_555
N7_5 H1_5 1_555 1_555
N8_5 H2_5 1_555 1_555
N9_5 H4_5 1_555 1_555
C5_5 H5_5 1_555 1_555
C7_5 C6_5 1_555 1_555
H7_5 C7_5 1_555 1_555
C8_5 H8_5 1_555 1_555
C9_5 N9_5 1_555 1_555
C10_5 H9_5 1_555 1_555
C11_5 H10_5 1_555 1_555
C12_5 N7_5 1_555 1_555
H11_5 C13_5 1_555 1_555
C14_5 N7_5 1_555 1_555
C15_5 C5_5 1_555 1_555
C16_5 N8_5 1_555 1_555
C17_5 C16_5 1_555 1_555
H12_5 C17_5 1_555 1_555
C18_5 C9_5 1_555 1_555
H13_5 C18_5 1_555 1_555
C19_5 N5_3 1_555 1_555
H14_5 C19_5 1_555 1_555
C20_5 N9_5 1_555 1_555
C21_5 N8_5 1_555 1_555
C22_5 C5_5 1_555 1_555
C23_5 C9_5 1_555 1_555
H15_5 C23_5 1_555 1_555
C24_5 C22_5 1_555 1_555
H16_5 C24_5 1_555 1_555
C25_5 C11_5 1_555 1_555
C26_5 C8_5 1_555 1_555
H17_5 C26_5 1_555 1_555
C27_5 N6_3 1_555 1_555
H18_5 C27_5 1_555 1_555
C28_5 Au2_5 1_555 1_555
N10_5 C28_5 1_555 1_555
Fe3_2 N5_3 1_555 1_555
Fe4_3 N6_3 1_555 1_555
C7_5 C12_5 1_555 1_555
C10_5 C18_5 1_555 1_555
C11_5 C15_5 1_555 1_555
C12_5 C13_5 1_555 1_555
C14_5 C15_5 1_555 1_555
C16_5 C26_5 1_555 1_555
C17_5 C27_5 1_555 1_555
C19_5 C23_5 1_555 1_555
C20_5 C22_5 1_555 1_555
C21_5 C25_5 1_555 1_555
C24_5 C25_5 1_555 1_555
O1_6 C14_6 1_555 1_555
N12_3 C10_6 1_555 1_555
N6_4 C8_6 1_555 1_555
O2_6 C21_6 1_555 1_555
O3_6 C20_6 1_555 1_555
N7_6 H1_6 1_555 1_555
N8_6 H2_6 1_555 1_555
N9_6 H4_6 1_555 1_555
C5_6 H5_6 1_555 1_555
C7_6 C6_6 1_555 1_555
H7_6 C7_6 1_555 1_555
C8_6 H8_6 1_555 1_555
C9_6 N9_6 1_555 1_555
C10_6 H9_6 1_555 1_555
C11_6 H10_6 1_555 1_555
C12_6 N7_6 1_555 1_555
H11_6 C13_6 1_555 1_555
C14_6 N7_6 1_555 1_555
C15_6 C5_6 1_555 1_555
C16_6 N8_6 1_555 1_555
C17_6 C16_6 1_555 1_555
H12_6 C17_6 1_555 1_555
C18_6 C9_6 1_555 1_555
H13_6 C18_6 1_555 1_555
C19_6 N12_3 1_555 1_555
H14_6 C19_6 1_555 1_555
C20_6 N9_6 1_555 1_555
C21_6 N8_6 1_555 1_555
C22_6 C5_6 1_555 1_555
C23_6 C9_6 1_555 1_555
H15_6 C23_6 1_555 1_555
C24_6 C22_6 1_555 1_555
H16_6 C24_6 1_555 1_555
C25_6 C11_6 1_555 1_555
C26_6 C8_6 1_555 1_555
H17_6 C26_6 1_555 1_555
C27_6 N6_4 1_555 1_555
H18_6 C27_6 1_555 1_555
C28_6 Au2_6 1_555 1_555
N10_6 C28_6 1_555 1_555
Fe4_4 N6_4 1_555 1_555
C7_6 C12_6 1_555 1_555
C10_6 C18_6 1_555 1_555
C11_6 C15_6 1_555 1_555
C12_6 C13_6 1_555 1_555
C14_6 C15_6 1_555 1_555
C16_6 C26_6 1_555 1_555
C17_6 C27_6 1_555 1_555
C19_6 C23_6 1_555 1_555
C20_6 C22_6 1_555 1_555
C21_6 C25_6 1_555 1_555
C24_6 C25_6 1_555 1_555
Au1_6 C1_6 1_555 1_555
Fe3_2 N1_6 1_555 1_555
N1_6 C2_6 1_555 1_555
N3_6 Fe3_2 1_555 1_555
N4_6 Fe3_2 1_555 1_555
C2_6 Au1_6 1_555 1_555
C3_6 N3_6 1_555 1_555
C4_6 N4_6 1_555 1_555
H3_6 C4_6 1_555 1_555
N11_4 Fe3_2 1_555 1_555
N13_4 Fe3_2 1_555 1_555
Au1_7 C1_7 1_555 1_555
N2_3 C1_7 1_555 1_555
C2_7 Au1_7 1_555 1_555
Fe4_3 N2_3 1_555 1_555
Au2_7 C3_7 1_555 1_555
Fe4_3 N1_7 1_555 1_555
N3_7 Fe4_3 1_555 1_555
N4_7 Fe4_3 1_555 1_555
O1_7 C14_7 1_555 1_555
N13_3 C8_7 1_555 1_555
O2_7 C21_7 1_555 1_555
C3_7 N3_7 1_555 1_555
N7_7 H1_7 1_555 1_555
N8_7 H2_7 1_555 1_555
C4_7 N4_7 1_555 1_555
H3_7 C4_7 1_555 1_555
C5_7 H5_7 1_555 1_555
C6_7 N4_7 1_555 1_555
H6_7 C6_7 1_555 1_555
C7_7 C6_7 1_555 1_555
H7_7 C7_7 1_555 1_555
C8_7 H8_7 1_555 1_555
C11_7 H10_7 1_555 1_555
C12_7 N7_7 1_555 1_555
C13_7 C4_7 1_555 1_555
H11_7 C13_7 1_555 1_555
C14_7 N7_7 1_555 1_555
C15_7 C5_7 1_555 1_555
C16_7 N8_7 1_555 1_555
C17_7 C16_7 1_555 1_555
H12_7 C17_7 1_555 1_555
C21_7 N8_7 1_555 1_555
C22_7 C5_7 1_555 1_555
C24_7 C22_7 1_555 1_555
H16_7 C24_7 1_555 1_555
C25_7 C11_7 1_555 1_555
C26_7 C8_7 1_555 1_555
H17_7 C26_7 1_555 1_555
C27_7 N13_3 1_555 1_555
H18_7 C27_7 1_555 1_555
C28_7 Au2_7 1_555 1_555
N10_7 C28_7 1_555 1_555
N12_4 Fe4_3 1_555 1_555
C7_7 C12_7 1_555 1_555
C11_7 C15_7 1_555 1_555
C12_7 C13_7 1_555 1_555
C14_7 C15_7 1_555 1_555
C16_7 C26_7 1_555 1_555
C17_7 C27_7 1_555 1_555
C21_7 C25_7 1_555 1_555
C24_7 C25_7 1_555 1_555
N5_4 C10_7 1_555 1_555
O3_7 C20_7 1_555 1_555
N9_7 H4_7 1_555 1_555
C9_7 N9_7 1_555 1_555
C10_7 H9_7 1_555 1_555
C18_7 C9_7 1_555 1_555
H13_7 C18_7 1_555 1_555
C19_7 N5_4 1_555 1_555
H14_7 C19_7 1_555 1_555
C20_7 N9_7 1_555 1_555
C23_7 C9_7 1_555 1_555
H15_7 C23_7 1_555 1_555
Fe4_4 N5_4 1_555 1_555
C10_7 C18_7 1_555 1_555
C19_7 C23_7 1_555 1_555
Au1_8 C1_8 1_555 1_555
N2_4 C1_8 1_555 1_555
C2_8 Au1_8 1_555 1_555
Fe4_4 N2_4 1_555 1_555
N12_4 C10_8 1_555 1_555
O3_8 C20_8 1_555 1_555
N9_8 H4_8 1_555 1_555
C9_8 N9_8 1_555 1_555
C10_8 H9_8 1_555 1_555
C18_8 C9_8 1_555 1_555
H13_8 C18_8 1_555 1_555
C19_8 N12_4 1_555 1_555
H14_8 C19_8 1_555 1_555
C20_8 N9_8 1_555 1_555
C23_8 C9_8 1_555 1_555
H15_8 C23_8 1_555 1_555
C10_8 C18_8 1_555 1_555
C19_8 C23_8 1_555 1_555
Au2_8 C3_8 1_555 1_555
Fe4_4 N1_8 1_555 1_555
N3_8 Fe4_4 1_555 1_555
N4_8 Fe4_4 1_555 1_555
O1_8 C14_8 1_555 1_555
N13_4 C8_8 1_555 1_555
O2_8 C21_8 1_555 1_555
C3_8 N3_8 1_555 1_555
N7_8 H1_8 1_555 1_555
N8_8 H2_8 1_555 1_555
C4_8 N4_8 1_555 1_555
H3_8 C4_8 1_555 1_555
C5_8 H5_8 1_555 1_555
C6_8 N4_8 1_555 1_555
H6_8 C6_8 1_555 1_555
C7_8 C6_8 1_555 1_555
H7_8 C7_8 1_555 1_555
C8_8 H8_8 1_555 1_555
C11_8 H10_8 1_555 1_555
C12_8 N7_8 1_555 1_555
C13_8 C4_8 1_555 1_555
H11_8 C13_8 1_555 1_555
C14_8 N7_8 1_555 1_555
C15_8 C5_8 1_555 1_555
C16_8 N8_8 1_555 1_555
C17_8 C16_8 1_555 1_555
H12_8 C17_8 1_555 1_555
C21_8 N8_8 1_555 1_555
C22_8 C5_8 1_555 1_555
C24_8 C22_8 1_555 1_555
H16_8 C24_8 1_555 1_555
C25_8 C11_8 1_555 1_555
C26_8 C8_8 1_555 1_555
H17_8 C26_8 1_555 1_555
C27_8 N13_4 1_555 1_555
H18_8 C27_8 1_555 1_555
C28_8 Au2_8 1_555 1_555
N10_8 C28_8 1_555 1_555
C7_8 C12_8 1_555 1_555
C11_8 C15_8 1_555 1_555
C12_8 C13_8 1_555 1_555
C14_8 C15_8 1_555 1_555
C16_8 C26_8 1_555 1_555
C17_8 C27_8 1_555 1_555
C21_8 C25_8 1_555 1_555
C24_8 C25_8 1_555 1_555

#END
