
###############################################################################
#
# This file contains modified crystal structure data generated from the
# MOF subset of the Cambridge Structural Database (CSD) v543 
# hosted by the Cambridge Crystallographic Data Centre (CCDC).
#
# This work is licensed under the Creative Commons
# Attribution-NonCommercial-ShareAlike 4.0 International License.
# To view a copy of this license, visit
# http://creativecommons.org/licenses/by-nc-sa/4.0/
# or send a letter to
# Creative Commons, PO Box 1866, Mountain View, CA 94042, USA.
#
# CIF created using the CSD Python API on 29 September 2022
# The structure has been converted into the P1 space group
# The structure has a 3D framework
# The original CSD entry WAMCAS10 is in the orthorhombic crystal system
# The original CSD entry WAMCAS10 is in a Sohncke space group
# The framework has been calculated to contain at least 10.0% void space
# The void calculation uses a probe of radius 1.32A, grid spacing 0.4
#
###############################################################################

data_WAMCAS10
_chemical_formula_moiety         '(C224 H144 Au16 Fe8 N76 O24)n'
_symmetry_cell_setting           triclinic
_symmetry_space_group_name_H-M   'P 1'
_symmetry_Int_Tables_number      1
_space_group_name_Hall           'P 1'
loop_
_symmetry_equiv_pos_site_id
_symmetry_equiv_pos_as_xyz
1 x,y,z
_cell_length_a                   10.318(2)
_cell_length_b                   30.455(6)
_cell_length_c                   33.903(7)
_cell_angle_alpha                90
_cell_angle_beta                 90
_cell_angle_gamma                90
_cell_volume                     10653.5
loop_
_atom_site_label
_atom_site_type_symbol
_atom_site_fract_x
_atom_site_fract_y
_atom_site_fract_z
N2 N 0.0445(19) 0.7266(5) 0.5795(5)
Fe2 Fe 0.2399(2) 0.72064(7) 0.57914(6)
Au1 Au 0.73981(7) 0.71935(2) 0.57808(2)
Au2 Au 0.28473(14) 0.85595(3) 0.48831(3)
N1 N 0.434(2) 0.7157(6) 0.5770(5)
N3 N 0.2554(17) 0.7784(5) 0.5480(4)
N4 N 0.2308(18) 0.6864(4) 0.5239(3)
O1 O 0.1194(18) 0.6719(5) 0.3778(4)
N5 N 0.2153(19) 0.3398(5) 0.3908(5)
N6 N 0.2438(18) 0.7445(5) 0.1337(4)
C1 C 0.930(3) 0.7236(6) 0.5792(5)
O2 O 0.153(2) 0.6025(5) 0.2071(4)
C2 C 0.556(4) 0.7151(5) 0.5782(5)
C3 C 0.265(3) 0.8067(7) 0.5263(5)
O3 O 0.305(3) 0.4686(5) 0.2938(5)
N7 N 0.214(2) 0.6205(5) 0.4155(4)
H1 H 0.247413 0.594673 0.415619
N8 N 0.223(2) 0.6644(6) 0.2331(4)
H2 H 0.247133 0.676809 0.254674
C4 C 0.304(3) 0.6532(6) 0.5154(5)
H3 H 0.360855 0.642646 0.534298
N9 N 0.171(3) 0.4675(6) 0.3462(5)
H4 H 0.113860 0.483161 0.358174
C5 C 0.191(3) 0.5604(5) 0.3492(5)
H5 H 0.190133 0.547152 0.373923
C6 C 0.145(2) 0.6976(6) 0.4977(5)
H6 H 0.092297 0.721651 0.503042
C7 C 0.128(2) 0.6754(6) 0.4619(5)
H7 H 0.059249 0.682223 0.445416
C8 C 0.156(2) 0.7111(6) 0.1355(5)
H8 H 0.101079 0.706280 0.114134
C9 C 0.179(3) 0.4246(6) 0.3588(6)
C10 C 0.299(3) 0.3559(7) 0.3630(6)
H9 H 0.372275 0.339816 0.356686
C11 C 0.171(2) 0.6262(6) 0.3111(5)
H10 H 0.159313 0.656434 0.309018
C12 C 0.216(2) 0.6435(5) 0.4515(4)
C13 C 0.299(3) 0.6337(8) 0.4800(7)
H11 H 0.358926 0.611514 0.475090
C14 C 0.167(2) 0.6337(6) 0.3829(5)
C15 C 0.174(3) 0.6070(6) 0.3455(5)
C16 C 0.227(3) 0.6898(6) 0.2006(5)
C17 C 0.313(3) 0.7263(7) 0.1997(6)
H12 H 0.362719 0.733979 0.221386
C18 C 0.277(3) 0.3952(7) 0.3441(6)
H13 H 0.325742 0.402725 0.321941
C19 C 0.120(2) 0.3689(7) 0.4030(7)
H14 H 0.059550 0.359787 0.421697
C20 C 0.240(4) 0.4893(7) 0.3176(6)
C21 C 0.184(2) 0.6207(7) 0.2364(4)
C22 C 0.209(4) 0.5344(7) 0.3144(6)
C23 C 0.112(2) 0.4093(6) 0.3886(7)
H15 H 0.054019 0.428374 0.400623
C24 C 0.202(4) 0.5572(7) 0.2785(6)
H16 H 0.208355 0.541295 0.255237
C25 C 0.187(3) 0.5994(7) 0.2762(6)
C26 C 0.145(2) 0.6849(7) 0.1673(5)
H17 H 0.082435 0.662964 0.167458
C27 C 0.317(3) 0.7505(8) 0.1637(7)
H18 H 0.379296 0.772616 0.161880
C28 C 0.312(5) 0.9072(11) 0.4524(10)
N10 N 0.295(8) 0.9351(15) 0.4321(15)
Fe3 Fe 0.2399(2) 0.27936(7) 0.42086(6)
Fe4 Fe 0.2601(2) 0.77936(7) 0.07914(6)
N12 N 0.2153(19) 0.6602(5) 0.6092(5)
N13 N 0.2562(18) 0.7555(5) 0.6337(4)
N2_2 N 0.0445(19) 0.2734(5) 0.4205(5)
Au1_2 Au 0.73981(7) 0.28065(2) 0.42192(2)
Au2_2 Au 0.28473(14) 0.14405(3) 0.51169(3)
N1_2 N 0.434(2) 0.2843(6) 0.4230(5)
N3_2 N 0.2554(17) 0.2216(5) 0.4520(4)
N4_2 N 0.2308(18) 0.3136(4) 0.4761(3)
O1_2 O 0.1194(18) 0.3281(5) 0.6222(4)
N6_2 N 0.2438(18) 0.2555(5) 0.8663(4)
C1_2 C 0.930(3) 0.2764(6) 0.4208(5)
O2_2 O 0.153(2) 0.3975(5) 0.7929(4)
C2_2 C 0.556(4) 0.2849(5) 0.4218(5)
C3_2 C 0.265(3) 0.1933(7) 0.4737(5)
O3_2 O 0.305(3) 0.5314(5) 0.7062(5)
N7_2 N 0.214(2) 0.3795(5) 0.5845(4)
H1_2 H 0.247413 0.405327 0.584381
N8_2 N 0.223(2) 0.3356(6) 0.7669(4)
H2_2 H 0.247133 0.323191 0.745326
C4_2 C 0.304(3) 0.3468(6) 0.4846(5)
H3_2 H 0.360855 0.357354 0.465702
N9_2 N 0.171(3) 0.5325(6) 0.6538(5)
H4_2 H 0.113860 0.516839 0.641826
C5_2 C 0.191(3) 0.4396(5) 0.6508(5)
H5_2 H 0.190133 0.452848 0.626077
C6_2 C 0.145(2) 0.3024(6) 0.5023(5)
H6_2 H 0.092297 0.278349 0.496958
C7_2 C 0.128(2) 0.3246(6) 0.5381(5)
H7_2 H 0.059249 0.317777 0.554584
C8_2 C 0.156(2) 0.2889(6) 0.8645(5)
H8_2 H 0.101079 0.293720 0.885866
C9_2 C 0.179(3) 0.5754(6) 0.6412(6)
C10_2 C 0.299(3) 0.6441(7) 0.6370(6)
H9_2 H 0.372275 0.660184 0.643314
C11_2 C 0.171(2) 0.3738(6) 0.6889(5)
H10_2 H 0.159313 0.343566 0.690982
C12_2 C 0.216(2) 0.3565(5) 0.5485(4)
C13_2 C 0.299(3) 0.3663(8) 0.5200(7)
H11_2 H 0.358926 0.388486 0.524910
C14_2 C 0.167(2) 0.3663(6) 0.6171(5)
C15_2 C 0.174(3) 0.3930(6) 0.6545(5)
C16_2 C 0.227(3) 0.3102(6) 0.7994(5)
C17_2 C 0.313(3) 0.2737(7) 0.8003(6)
H12_2 H 0.362719 0.266021 0.778614
C18_2 C 0.277(3) 0.6048(7) 0.6559(6)
H13_2 H 0.325742 0.597275 0.678059
C19_2 C 0.120(2) 0.6311(7) 0.5970(7)
H14_2 H 0.059550 0.640213 0.578303
C20_2 C 0.240(4) 0.5107(7) 0.6824(6)
C21_2 C 0.184(2) 0.3793(7) 0.7636(4)
C22_2 C 0.209(4) 0.4656(7) 0.6856(6)
C23_2 C 0.112(2) 0.5907(6) 0.6114(7)
H15_2 H 0.054019 0.571626 0.599377
C24_2 C 0.202(4) 0.4428(7) 0.7215(6)
H16_2 H 0.208355 0.458705 0.744763
C25_2 C 0.187(3) 0.4006(7) 0.7238(6)
C26_2 C 0.145(2) 0.3151(7) 0.8327(5)
H17_2 H 0.082435 0.337036 0.832542
C27_2 C 0.317(3) 0.2495(8) 0.8363(7)
H18_2 H 0.379296 0.227384 0.838120
C28_2 C 0.312(5) 0.0928(11) 0.5476(10)
N10_2 N 0.295(8) 0.0649(15) 0.5679(15)
Fe4_2 Fe 0.2601(2) 0.22064(7) 0.92086(6)
N13_2 N 0.2562(18) 0.2445(5) 0.3663(4)
N5_2 N 0.2847(19) 0.1602(5) 0.8908(5)
O3_3 O 0.195(3) 0.0314(5) 0.7938(5)
N9_3 N 0.329(3) 0.0325(6) 0.8462(5)
H4_3 H 0.386140 0.016839 0.858174
C9_3 C 0.321(3) 0.0754(6) 0.8588(6)
C10_3 C 0.201(3) 0.1441(7) 0.8630(6)
H9_3 H 0.127725 0.160184 0.856686
C18_3 C 0.223(3) 0.1048(7) 0.8441(6)
H13_3 H 0.174258 0.097275 0.821941
C19_3 C 0.380(2) 0.1311(7) 0.9030(7)
H14_3 H 0.440450 0.140213 0.921697
C20_3 C 0.260(4) 0.0107(7) 0.8176(6)
C23_3 C 0.388(2) 0.0907(6) 0.8886(7)
H15_3 H 0.445981 0.071626 0.900623
N1_3 N 0.066(2) 0.7843(6) 0.0770(5)
N3_3 N 0.2446(17) 0.7216(5) 0.0480(4)
N4_3 N 0.2692(18) 0.8136(4) 0.0239(3)
C3_3 C 0.235(3) 0.6933(7) 0.0263(5)
C4_3 C 0.196(3) 0.8468(6) 0.0154(5)
H3_3 H 0.139145 0.857354 0.034298
H6_3 H 0.407703 0.778349 0.003042
N11 N 0.4555(19) 0.7734(5) 0.0795(5)
N12_2 N 0.2847(19) 0.8398(5) 0.1092(5)
Au2_3 Au 0.21527(14) 0.64405(3) 0.98831(3)
O1_3 O 0.3806(18) 0.8281(5) 0.8778(4)
O2_3 O 0.347(2) 0.8975(5) 0.7071(4)
N7_3 N 0.286(2) 0.8795(5) 0.9155(4)
H1_3 H 0.252587 0.905327 0.915619
N8_3 N 0.277(2) 0.8356(6) 0.7331(4)
H2_3 H 0.252867 0.823191 0.754674
C5_3 C 0.309(3) 0.9396(5) 0.8492(5)
H5_3 H 0.309867 0.952848 0.873923
C6_3 C 0.355(2) 0.8024(6) 0.9977(5)
C7_3 C 0.372(2) 0.8246(6) 0.9619(5)
H7_3 H 0.440751 0.817777 0.945416
C8_3 C 0.344(2) 0.7889(6) 0.6355(5)
H8_3 H 0.398921 0.793720 0.614134
C11_3 C 0.329(2) 0.8738(6) 0.8111(5)
H10_3 H 0.340687 0.843566 0.809018
C12_3 C 0.284(2) 0.8565(5) 0.9515(4)
C13_3 C 0.201(3) 0.8663(8) 0.9800(7)
H11_3 H 0.141074 0.888486 0.975090
C14_3 C 0.333(2) 0.8663(6) 0.8829(5)
C15_3 C 0.326(3) 0.8930(6) 0.8455(5)
C16_3 C 0.273(3) 0.8102(6) 0.7006(5)
C17_3 C 0.187(3) 0.7737(7) 0.6997(6)
H12_3 H 0.137281 0.766021 0.721386
C21_3 C 0.316(2) 0.8793(7) 0.7364(4)
C22_3 C 0.291(4) 0.9656(7) 0.8144(6)
C24_3 C 0.298(4) 0.9428(7) 0.7785(6)
H16_3 H 0.291645 0.958705 0.755237
C25_3 C 0.313(3) 0.9006(7) 0.7762(6)
C26_3 C 0.355(2) 0.8151(7) 0.6673(5)
H17_3 H 0.417565 0.837036 0.667458
C27_3 C 0.183(3) 0.7495(8) 0.6637(7)
H18_3 H 0.120704 0.727384 0.661880
C28_3 C 0.188(5) 0.5928(11) 0.9524(10)
N10_3 N 0.205(8) 0.5649(15) 0.9321(15)
Au1_3 Au 0.76019(7) 0.78065(2) 0.07808(2)
C1_3 C 0.570(3) 0.7764(6) 0.0792(5)
C2_3 C 0.944(4) 0.7849(5) 0.0782(5)
Au2_4 Au 0.21527(14) 0.35595(3) 0.01169(3)
O1_4 O 0.3806(18) 0.1719(5) 0.1222(4)
O2_4 O 0.347(2) 0.1025(5) 0.2929(4)
N7_4 N 0.286(2) 0.1205(5) 0.0845(4)
H1_4 H 0.252587 0.094673 0.084381
N8_4 N 0.277(2) 0.1644(6) 0.2669(4)
H2_4 H 0.252867 0.176809 0.245326
C5_4 C 0.309(3) 0.0604(5) 0.1508(5)
H5_4 H 0.309867 0.047152 0.126077
C6_4 C 0.355(2) 0.1976(6) 0.0023(5)
C7_4 C 0.372(2) 0.1754(6) 0.0381(5)
H7_4 H 0.440751 0.182223 0.054584
C8_4 C 0.344(2) 0.2111(6) 0.3645(5)
H8_4 H 0.398921 0.206280 0.385866
C11_4 C 0.329(2) 0.1262(6) 0.1889(5)
H10_4 H 0.340687 0.156434 0.190982
C12_4 C 0.284(2) 0.1435(5) 0.0485(4)
C13_4 C 0.201(3) 0.1337(8) 0.0200(7)
H11_4 H 0.141074 0.111514 0.024910
C14_4 C 0.333(2) 0.1337(6) 0.1171(5)
C15_4 C 0.326(3) 0.1070(6) 0.1545(5)
C16_4 C 0.273(3) 0.1898(6) 0.2994(5)
C17_4 C 0.187(3) 0.2263(7) 0.3003(6)
H12_4 H 0.137281 0.233979 0.278614
C21_4 C 0.316(2) 0.1207(7) 0.2636(4)
C22_4 C 0.291(4) 0.0344(7) 0.1856(6)
C24_4 C 0.298(4) 0.0572(7) 0.2215(6)
H16_4 H 0.291645 0.041295 0.244763
C25_4 C 0.313(3) 0.0994(7) 0.2238(6)
C26_4 C 0.355(2) 0.1849(7) 0.3327(5)
H17_4 H 0.417565 0.162964 0.332542
C27_4 C 0.183(3) 0.2505(8) 0.3363(7)
H18_4 H 0.120704 0.272616 0.338120
C28_4 C 0.188(5) 0.4072(11) 0.0476(10)
N10_4 N 0.205(8) 0.4351(15) 0.0679(15)
N1_4 N 0.066(2) 0.2157(6) 0.9230(5)
N3_4 N 0.2446(17) 0.2784(5) 0.9520(4)
N4_4 N 0.2692(18) 0.1864(4) 0.9761(3)
C3_4 C 0.235(3) 0.3067(7) 0.9737(5)
C4_4 C 0.196(3) 0.1532(6) 0.9846(5)
H3_4 H 0.139145 0.142646 0.965702
H6_4 H 0.407703 0.221651 0.996958
N11_2 N 0.4555(19) 0.2266(5) 0.9205(5)
O3_4 O 0.195(3) 0.9686(5) 0.2062(5)
N9_4 N 0.329(3) 0.9675(6) 0.1538(5)
H4_4 H 0.386140 0.983161 0.141826
C9_4 C 0.321(3) 0.9246(6) 0.1412(6)
C10_4 C 0.201(3) 0.8559(7) 0.1370(6)
H9_4 H 0.127725 0.839816 0.143314
C18_4 C 0.223(3) 0.8952(7) 0.1559(6)
H13_4 H 0.174258 0.902725 0.178059
C19_4 C 0.380(2) 0.8689(7) 0.0970(7)
H14_4 H 0.440450 0.859787 0.078303
C20_4 C 0.260(4) 0.9893(7) 0.1824(6)
C23_4 C 0.388(2) 0.9093(6) 0.1114(7)
H15_4 H 0.445981 0.928374 0.099377
Au1_4 Au 0.76019(7) 0.21935(2) 0.92192(2)
C1_4 C 0.570(3) 0.2236(6) 0.9208(5)
C2_4 C 0.944(4) 0.2151(5) 0.9218(5)
Au1_5 Au 0.26019(7) 0.28065(2) 0.07808(2)
Fe1 Fe 0.7601(2) 0.27936(7) 0.07914(6)
N1_5 N 0.566(2) 0.2843(6) 0.0770(5)
N3_5 N 0.7446(17) 0.2216(5) 0.0480(4)
N4_5 N 0.7692(18) 0.3136(4) 0.0239(3)
C1_5 C 0.070(3) 0.2764(6) 0.0792(5)
C2_5 C 0.444(4) 0.2849(5) 0.0782(5)
C3_5 C 0.735(3) 0.1933(7) 0.0263(5)
C4_5 C 0.696(3) 0.3468(6) 0.0154(5)
H3_5 H 0.639145 0.357354 0.034298
H6_5 H 0.907703 0.278349 0.003042
N11_3 N 0.9555(19) 0.2734(5) 0.0795(5)
N12_3 N 0.7847(19) 0.3398(5) 0.1092(5)
N13_3 N 0.7438(18) 0.2445(5) 0.1337(4)
Au2_5 Au 0.71527(14) 0.14405(3) 0.98831(3)
O1_5 O 0.8806(18) 0.3281(5) 0.8778(4)
N5_3 N 0.7847(19) 0.6602(5) 0.8908(5)
N6_3 N 0.7562(18) 0.2555(5) 0.6337(4)
O2_5 O 0.847(2) 0.3975(5) 0.7071(4)
O3_5 O 0.695(3) 0.5314(5) 0.7938(5)
N7_5 N 0.786(2) 0.3795(5) 0.9155(4)
H1_5 H 0.752587 0.405327 0.915619
N8_5 N 0.777(2) 0.3356(6) 0.7331(4)
H2_5 H 0.752867 0.323191 0.754674
N9_5 N 0.829(3) 0.5325(6) 0.8462(5)
H4_5 H 0.886140 0.516839 0.858174
C5_5 C 0.809(3) 0.4396(5) 0.8492(5)
H5_5 H 0.809867 0.452848 0.873923
C6_5 C 0.855(2) 0.3024(6) 0.9977(5)
C7_5 C 0.872(2) 0.3246(6) 0.9619(5)
H7_5 H 0.940751 0.317777 0.945416
C8_5 C 0.844(2) 0.2889(6) 0.6355(5)
H8_5 H 0.898921 0.293720 0.614134
C9_5 C 0.821(3) 0.5754(6) 0.8588(6)
C10_5 C 0.701(3) 0.6441(7) 0.8630(6)
H9_5 H 0.627725 0.660184 0.856686
C11_5 C 0.829(2) 0.3738(6) 0.8111(5)
H10_5 H 0.840687 0.343566 0.809018
C12_5 C 0.784(2) 0.3565(5) 0.9515(4)
C13_5 C 0.701(3) 0.3663(8) 0.9800(7)
H11_5 H 0.641074 0.388486 0.975090
C14_5 C 0.833(2) 0.3663(6) 0.8829(5)
C15_5 C 0.826(3) 0.3930(6) 0.8455(5)
C16_5 C 0.773(3) 0.3102(6) 0.7006(5)
C17_5 C 0.687(3) 0.2737(7) 0.6997(6)
H12_5 H 0.637281 0.266021 0.721386
C18_5 C 0.723(3) 0.6048(7) 0.8441(6)
H13_5 H 0.674258 0.597275 0.821941
C19_5 C 0.880(2) 0.6311(7) 0.9030(7)
H14_5 H 0.940450 0.640213 0.921697
C20_5 C 0.760(4) 0.5107(7) 0.8176(6)
C21_5 C 0.816(2) 0.3793(7) 0.7364(4)
C22_5 C 0.791(4) 0.4656(7) 0.8144(6)
C23_5 C 0.888(2) 0.5907(6) 0.8886(7)
H15_5 H 0.945981 0.571626 0.900623
C24_5 C 0.798(4) 0.4428(7) 0.7785(6)
H16_5 H 0.791645 0.458705 0.755237
C25_5 C 0.813(3) 0.4006(7) 0.7762(6)
C26_5 C 0.855(2) 0.3151(7) 0.6673(5)
H17_5 H 0.917565 0.337036 0.667458
C27_5 C 0.683(3) 0.2495(8) 0.6637(7)
H18_5 H 0.620704 0.227384 0.661880
C28_5 C 0.688(5) 0.0928(11) 0.9524(10)
N10_5 N 0.705(8) 0.0649(15) 0.9321(15)
Fe3_2 Fe 0.7601(2) 0.72064(7) 0.92086(6)
Fe4_3 Fe 0.7399(2) 0.22064(7) 0.57914(6)
Au2_6 Au 0.71527(14) 0.85595(3) 0.01169(3)
O1_6 O 0.8806(18) 0.6719(5) 0.1222(4)
N6_4 N 0.7562(18) 0.7445(5) 0.3663(4)
O2_6 O 0.847(2) 0.6025(5) 0.2929(4)
O3_6 O 0.695(3) 0.4686(5) 0.2062(5)
N7_6 N 0.786(2) 0.6205(5) 0.0845(4)
H1_6 H 0.752587 0.594673 0.084381
N8_6 N 0.777(2) 0.6644(6) 0.2669(4)
H2_6 H 0.752867 0.676809 0.245326
N9_6 N 0.829(3) 0.4675(6) 0.1538(5)
H4_6 H 0.886140 0.483161 0.141826
C5_6 C 0.809(3) 0.5604(5) 0.1508(5)
H5_6 H 0.809867 0.547152 0.126077
C6_6 C 0.855(2) 0.6976(6) 0.0023(5)
C7_6 C 0.872(2) 0.6754(6) 0.0381(5)
H7_6 H 0.940751 0.682223 0.054584
C8_6 C 0.844(2) 0.7111(6) 0.3645(5)
H8_6 H 0.898921 0.706280 0.385866
C9_6 C 0.821(3) 0.4246(6) 0.1412(6)
C10_6 C 0.701(3) 0.3559(7) 0.1370(6)
H9_6 H 0.627725 0.339816 0.143314
C11_6 C 0.829(2) 0.6262(6) 0.1889(5)
H10_6 H 0.840687 0.656434 0.190982
C12_6 C 0.784(2) 0.6435(5) 0.0485(4)
C13_6 C 0.701(3) 0.6337(8) 0.0200(7)
H11_6 H 0.641074 0.611514 0.024910
C14_6 C 0.833(2) 0.6337(6) 0.1171(5)
C15_6 C 0.826(3) 0.6070(6) 0.1545(5)
C16_6 C 0.773(3) 0.6898(6) 0.2994(5)
C17_6 C 0.687(3) 0.7263(7) 0.3003(6)
H12_6 H 0.637281 0.733979 0.278614
C18_6 C 0.723(3) 0.3952(7) 0.1559(6)
H13_6 H 0.674258 0.402725 0.178059
C19_6 C 0.880(2) 0.3689(7) 0.0970(7)
H14_6 H 0.940450 0.359787 0.078303
C20_6 C 0.760(4) 0.4893(7) 0.1824(6)
C21_6 C 0.816(2) 0.6207(7) 0.2636(4)
C22_6 C 0.791(4) 0.5344(7) 0.1856(6)
C23_6 C 0.888(2) 0.4093(6) 0.1114(7)
H15_6 H 0.945981 0.428374 0.099377
C24_6 C 0.798(4) 0.5572(7) 0.2215(6)
H16_6 H 0.791645 0.541295 0.244763
C25_6 C 0.813(3) 0.5994(7) 0.2238(6)
C26_6 C 0.855(2) 0.6849(7) 0.3327(5)
H17_6 H 0.917565 0.662964 0.332542
C27_6 C 0.683(3) 0.7505(8) 0.3363(7)
H18_6 H 0.620704 0.772616 0.338120
C28_6 C 0.688(5) 0.9072(11) 0.0476(10)
N10_6 N 0.705(8) 0.9351(15) 0.0679(15)
Fe4_4 Fe 0.7399(2) 0.77936(7) 0.42086(6)
Au1_6 Au 0.26019(7) 0.71935(2) 0.92192(2)
N1_6 N 0.566(2) 0.7157(6) 0.9230(5)
N3_6 N 0.7446(17) 0.7784(5) 0.9520(4)
N4_6 N 0.7692(18) 0.6864(4) 0.9761(3)
C1_6 C 0.070(3) 0.7236(6) 0.9208(5)
C2_6 C 0.444(4) 0.7151(5) 0.9218(5)
C3_6 C 0.735(3) 0.8067(7) 0.9737(5)
C4_6 C 0.696(3) 0.6532(6) 0.9846(5)
H3_6 H 0.639145 0.642646 0.965702
H6_6 H 0.907703 0.721651 0.996958
N11_4 N 0.9555(19) 0.7266(5) 0.9205(5)
N13_4 N 0.7438(18) 0.7555(5) 0.8663(4)
Au1_7 Au 0.23981(7) 0.21935(2) 0.57808(2)
N2_3 N 0.5445(19) 0.2266(5) 0.5795(5)
C1_7 C 0.430(3) 0.2236(6) 0.5792(5)
C2_7 C 0.056(4) 0.2151(5) 0.5782(5)
Au2_7 Au 0.78473(14) 0.35595(3) 0.48831(3)
N1_7 N 0.934(2) 0.2157(6) 0.5770(5)
N3_7 N 0.7554(17) 0.2784(5) 0.5480(4)
N4_7 N 0.7308(18) 0.1864(4) 0.5239(3)
O1_7 O 0.6194(18) 0.1719(5) 0.3778(4)
O2_7 O 0.653(2) 0.1025(5) 0.2071(4)
C3_7 C 0.765(3) 0.3067(7) 0.5263(5)
N7_7 N 0.714(2) 0.1205(5) 0.4155(4)
H1_7 H 0.747413 0.094673 0.415619
N8_7 N 0.723(2) 0.1644(6) 0.2331(4)
H2_7 H 0.747133 0.176809 0.254674
C4_7 C 0.804(3) 0.1532(6) 0.5154(5)
H3_7 H 0.860855 0.142646 0.534298
C5_7 C 0.691(3) 0.0604(5) 0.3492(5)
H5_7 H 0.690133 0.047152 0.373923
C6_7 C 0.645(2) 0.1976(6) 0.4977(5)
H6_7 H 0.592297 0.221651 0.503042
C7_7 C 0.628(2) 0.1754(6) 0.4619(5)
H7_7 H 0.559249 0.182223 0.445416
C8_7 C 0.656(2) 0.2111(6) 0.1355(5)
H8_7 H 0.601079 0.206280 0.114134
C11_7 C 0.671(2) 0.1262(6) 0.3111(5)
H10_7 H 0.659313 0.156434 0.309018
C12_7 C 0.716(2) 0.1435(5) 0.4515(4)
C13_7 C 0.799(3) 0.1337(8) 0.4800(7)
H11_7 H 0.858926 0.111514 0.475090
C14_7 C 0.667(2) 0.1337(6) 0.3829(5)
C15_7 C 0.674(3) 0.1070(6) 0.3455(5)
C16_7 C 0.727(3) 0.1898(6) 0.2006(5)
C17_7 C 0.813(3) 0.2263(7) 0.1997(6)
H12_7 H 0.862719 0.233979 0.221386
C21_7 C 0.684(2) 0.1207(7) 0.2364(4)
C22_7 C 0.709(4) 0.0344(7) 0.3144(6)
C24_7 C 0.702(4) 0.0572(7) 0.2785(6)
H16_7 H 0.708355 0.041295 0.255237
C25_7 C 0.687(3) 0.0994(7) 0.2762(6)
C26_7 C 0.645(2) 0.1849(7) 0.1673(5)
H17_7 H 0.582435 0.162964 0.167458
C27_7 C 0.817(3) 0.2505(8) 0.1637(7)
H18_7 H 0.879296 0.272616 0.161880
C28_7 C 0.812(5) 0.4072(11) 0.4524(10)
N10_7 N 0.795(8) 0.4351(15) 0.4321(15)
N12_4 N 0.7153(19) 0.1602(5) 0.6092(5)
N5_4 N 0.7153(19) 0.8398(5) 0.3908(5)
O3_7 O 0.805(3) 0.9686(5) 0.2938(5)
N9_7 N 0.671(3) 0.9675(6) 0.3462(5)
H4_7 H 0.613860 0.983161 0.358174
C9_7 C 0.679(3) 0.9246(6) 0.3588(6)
C10_7 C 0.799(3) 0.8559(7) 0.3630(6)
H9_7 H 0.872275 0.839816 0.356686
C18_7 C 0.777(3) 0.8952(7) 0.3441(6)
H13_7 H 0.825742 0.902725 0.321941
C19_7 C 0.620(2) 0.8689(7) 0.4030(7)
H14_7 H 0.559550 0.859787 0.421697
C20_7 C 0.740(4) 0.9893(7) 0.3176(6)
C23_7 C 0.612(2) 0.9093(6) 0.3886(7)
H15_7 H 0.554019 0.928374 0.400623
Au1_8 Au 0.23981(7) 0.78065(2) 0.42192(2)
N2_4 N 0.5445(19) 0.7734(5) 0.4205(5)
C1_8 C 0.430(3) 0.7764(6) 0.4208(5)
C2_8 C 0.056(4) 0.7849(5) 0.4218(5)
O3_8 O 0.805(3) 0.0314(5) 0.7062(5)
N9_8 N 0.671(3) 0.0325(6) 0.6538(5)
H4_8 H 0.613860 0.016839 0.641826
C9_8 C 0.679(3) 0.0754(6) 0.6412(6)
C10_8 C 0.799(3) 0.1441(7) 0.6370(6)
H9_8 H 0.872275 0.160184 0.643314
C18_8 C 0.777(3) 0.1048(7) 0.6559(6)
H13_8 H 0.825742 0.097275 0.678059
C19_8 C 0.620(2) 0.1311(7) 0.5970(7)
H14_8 H 0.559550 0.140213 0.578303
C20_8 C 0.740(4) 0.0107(7) 0.6824(6)
C23_8 C 0.612(2) 0.0907(6) 0.6114(7)
H15_8 H 0.554019 0.071626 0.599377
Au2_8 Au 0.78473(14) 0.64405(3) 0.51169(3)
N1_8 N 0.934(2) 0.7843(6) 0.4230(5)
N3_8 N 0.7554(17) 0.7216(5) 0.4520(4)
N4_8 N 0.7308(18) 0.8136(4) 0.4761(3)
O1_8 O 0.6194(18) 0.8281(5) 0.6222(4)
O2_8 O 0.653(2) 0.8975(5) 0.7929(4)
C3_8 C 0.765(3) 0.6933(7) 0.4737(5)
N7_8 N 0.714(2) 0.8795(5) 0.5845(4)
H1_8 H 0.747413 0.905327 0.584381
N8_8 N 0.723(2) 0.8356(6) 0.7669(4)
H2_8 H 0.747133 0.823191 0.745326
C4_8 C 0.804(3) 0.8468(6) 0.4846(5)
H3_8 H 0.860855 0.857354 0.465702
C5_8 C 0.691(3) 0.9396(5) 0.6508(5)
H5_8 H 0.690133 0.952848 0.626077
C6_8 C 0.645(2) 0.8024(6) 0.5023(5)
H6_8 H 0.592297 0.778349 0.496958
C7_8 C 0.628(2) 0.8246(6) 0.5381(5)
H7_8 H 0.559249 0.817777 0.554584
C8_8 C 0.656(2) 0.7889(6) 0.8645(5)
H8_8 H 0.601079 0.793720 0.885866
C11_8 C 0.671(2) 0.8738(6) 0.6889(5)
H10_8 H 0.659313 0.843566 0.690982
C12_8 C 0.716(2) 0.8565(5) 0.5485(4)
C13_8 C 0.799(3) 0.8663(8) 0.5200(7)
H11_8 H 0.858926 0.888486 0.524910
C14_8 C 0.667(2) 0.8663(6) 0.6171(5)
C15_8 C 0.674(3) 0.8930(6) 0.6545(5)
C16_8 C 0.727(3) 0.8102(6) 0.7994(5)
C17_8 C 0.813(3) 0.7737(7) 0.8003(6)
H12_8 H 0.862719 0.766021 0.778614
C21_8 C 0.684(2) 0.8793(7) 0.7636(4)
C22_8 C 0.709(4) 0.9656(7) 0.6856(6)
C24_8 C 0.702(4) 0.9428(7) 0.7215(6)
H16_8 H 0.708355 0.958705 0.744763
C25_8 C 0.687(3) 0.9006(7) 0.7238(6)
C26_8 C 0.645(2) 0.8151(7) 0.8327(5)
H17_8 H 0.582435 0.837036 0.832542
C27_8 C 0.817(3) 0.7495(8) 0.8363(7)
H18_8 H 0.879296 0.727384 0.838120
C28_8 C 0.812(5) 0.5928(11) 0.5476(10)
N10_8 N 0.795(8) 0.5649(15) 0.5679(15)
loop_
_geom_bond_atom_site_label_1
_geom_bond_atom_site_label_2
_geom_bond_site_symmetry_1
_geom_bond_site_symmetry_2
Fe2 N2 1_555 1_555
Au1 C1 1_555 1_555
Au2 C3 1_555 1_555
Fe2 N1 1_555 1_555
N1 C2 1_555 1_555
N3 Fe2 1_555 1_555
N4 Fe2 1_555 1_555
O1 C14 1_555 1_555
N5 C10 1_555 1_555
N6 C8 1_555 1_555
O2 C21 1_555 1_555
C2 Au1 1_555 1_555
C3 N3 1_555 1_555
O3 C20 1_555 1_555
N7 H1 1_555 1_555
N8 H2 1_555 1_555
C4 N4 1_555 1_555
H3 C4 1_555 1_555
N9 H4 1_555 1_555
C5 H5 1_555 1_555
C6 N4 1_555 1_555
H6 C6 1_555 1_555
C7 C6 1_555 1_555
H7 C7 1_555 1_555
C8 H8 1_555 1_555
C9 N9 1_555 1_555
C10 H9 1_555 1_555
C11 H10 1_555 1_555
C12 N7 1_555 1_555
C13 C4 1_555 1_555
H11 C13 1_555 1_555
C14 N7 1_555 1_555
C15 C5 1_555 1_555
C16 N8 1_555 1_555
C17 C16 1_555 1_555
H12 C17 1_555 1_555
C18 C9 1_555 1_555
H13 C18 1_555 1_555
C19 N5 1_555 1_555
H14 C19 1_555 1_555
C20 N9 1_555 1_555
C21 N8 1_555 1_555
C22 C5 1_555 1_555
C23 C9 1_555 1_555
H15 C23 1_555 1_555
C24 C22 1_555 1_555
H16 C24 1_555 1_555
C25 C11 1_555 1_555
C26 C8 1_555 1_555
H17 C26 1_555 1_555
C27 N6 1_555 1_555
H18 C27 1_555 1_555
C28 Au2 1_555 1_555
N10 C28 1_555 1_555
Fe3 N5 1_555 1_555
Fe4 N6 1_555 1_555
N12 Fe2 1_555 1_555
N13 Fe2 1_555 1_555
C7 C12 1_555 1_555
C10 C18 1_555 1_555
C11 C15 1_555 1_555
C12 C13 1_555 1_555
C14 C15 1_555 1_555
C16 C26 1_555 1_555
C17 C27 1_555 1_555
C19 C23 1_555 1_555
C20 C22 1_555 1_555
C21 C25 1_555 1_555
C24 C25 1_555 1_555
Fe3 N2_2 1_555 1_555
Au1_2 C1_2 1_555 1_555
Au2_2 C3_2 1_555 1_555
Fe3 N1_2 1_555 1_555
N1_2 C2_2 1_555 1_555
N3_2 Fe3 1_555 1_555
N4_2 Fe3 1_555 1_555
O1_2 C14_2 1_555 1_555
N12 C10_2 1_555 1_555
N6_2 C8_2 1_555 1_555
O2_2 C21_2 1_555 1_555
C2_2 Au1_2 1_555 1_555
C3_2 N3_2 1_555 1_555
O3_2 C20_2 1_555 1_555
N7_2 H1_2 1_555 1_555
N8_2 H2_2 1_555 1_555
C4_2 N4_2 1_555 1_555
H3_2 C4_2 1_555 1_555
N9_2 H4_2 1_555 1_555
C5_2 H5_2 1_555 1_555
C6_2 N4_2 1_555 1_555
H6_2 C6_2 1_555 1_555
C7_2 C6_2 1_555 1_555
H7_2 C7_2 1_555 1_555
C8_2 H8_2 1_555 1_555
C9_2 N9_2 1_555 1_555
C10_2 H9_2 1_555 1_555
C11_2 H10_2 1_555 1_555
C12_2 N7_2 1_555 1_555
C13_2 C4_2 1_555 1_555
H11_2 C13_2 1_555 1_555
C14_2 N7_2 1_555 1_555
C15_2 C5_2 1_555 1_555
C16_2 N8_2 1_555 1_555
C17_2 C16_2 1_555 1_555
H12_2 C17_2 1_555 1_555
C18_2 C9_2 1_555 1_555
H13_2 C18_2 1_555 1_555
C19_2 N12 1_555 1_555
H14_2 C19_2 1_555 1_555
C20_2 N9_2 1_555 1_555
C21_2 N8_2 1_555 1_555
C22_2 C5_2 1_555 1_555
C23_2 C9_2 1_555 1_555
H15_2 C23_2 1_555 1_555
C24_2 C22_2 1_555 1_555
H16_2 C24_2 1_555 1_555
C25_2 C11_2 1_555 1_555
C26_2 C8_2 1_555 1_555
H17_2 C26_2 1_555 1_555
C27_2 N6_2 1_555 1_555
H18_2 C27_2 1_555 1_555
C28_2 Au2_2 1_555 1_555
N10_2 C28_2 1_555 1_555
Fe4_2 N6_2 1_555 1_555
N13_2 Fe3 1_555 1_555
C7_2 C12_2 1_555 1_555
C10_2 C18_2 1_555 1_555
C11_2 C15_2 1_555 1_555
C12_2 C13_2 1_555 1_555
C14_2 C15_2 1_555 1_555
C16_2 C26_2 1_555 1_555
C17_2 C27_2 1_555 1_555
C19_2 C23_2 1_555 1_555
C20_2 C22_2 1_555 1_555
C21_2 C25_2 1_555 1_555
C24_2 C25_2 1_555 1_555
N5_2 C10_3 1_555 1_555
O3_3 C20_3 1_555 1_555
N9_3 H4_3 1_555 1_555
C9_3 N9_3 1_555 1_555
C10_3 H9_3 1_555 1_555
C18_3 C9_3 1_555 1_555
H13_3 C18_3 1_555 1_555
C19_3 N5_2 1_555 1_555
H14_3 C19_3 1_555 1_555
C20_3 N9_3 1_555 1_555
C23_3 C9_3 1_555 1_555
H15_3 C23_3 1_555 1_555
Fe4_2 N5_2 1_555 1_555
C10_3 C18_3 1_555 1_555
C19_3 C23_3 1_555 1_555
Fe4 N1_3 1_555 1_555
N3_3 Fe4 1_555 1_555
N4_3 Fe4 1_555 1_555
C3_3 N3_3 1_555 1_555
C4_3 N4_3 1_555 1_555
H3_3 C4_3 1_555 1_555
N11 Fe4 1_555 1_555
N12_2 Fe4 1_555 1_555
O1_3 C14_3 1_555 1_555
N13 C8_3 1_555 1_555
O2_3 C21_3 1_555 1_555
N7_3 H1_3 1_555 1_555
N8_3 H2_3 1_555 1_555
C5_3 H5_3 1_555 1_555
C7_3 C6_3 1_555 1_555
H7_3 C7_3 1_555 1_555
C8_3 H8_3 1_555 1_555
C11_3 H10_3 1_555 1_555
C12_3 N7_3 1_555 1_555
H11_3 C13_3 1_555 1_555
C14_3 N7_3 1_555 1_555
C15_3 C5_3 1_555 1_555
C16_3 N8_3 1_555 1_555
C17_3 C16_3 1_555 1_555
H12_3 C17_3 1_555 1_555
C21_3 N8_3 1_555 1_555
C22_3 C5_3 1_555 1_555
C24_3 C22_3 1_555 1_555
H16_3 C24_3 1_555 1_555
C25_3 C11_3 1_555 1_555
C26_3 C8_3 1_555 1_555
H17_3 C26_3 1_555 1_555
C27_3 N13 1_555 1_555
H18_3 C27_3 1_555 1_555
C28_3 Au2_3 1_555 1_555
N10_3 C28_3 1_555 1_555
C7_3 C12_3 1_555 1_555
C11_3 C15_3 1_555 1_555
C12_3 C13_3 1_555 1_555
C14_3 C15_3 1_555 1_555
C16_3 C26_3 1_555 1_555
C17_3 C27_3 1_555 1_555
C21_3 C25_3 1_555 1_555
C24_3 C25_3 1_555 1_555
Au1_3 C1_3 1_555 1_555
N11 C1_3 1_555 1_555
C2_3 Au1_3 1_555 1_555
O1_4 C14_4 1_555 1_555
N13_2 C8_4 1_555 1_555
O2_4 C21_4 1_555 1_555
N7_4 H1_4 1_555 1_555
N8_4 H2_4 1_555 1_555
C5_4 H5_4 1_555 1_555
C7_4 C6_4 1_555 1_555
H7_4 C7_4 1_555 1_555
C8_4 H8_4 1_555 1_555
C11_4 H10_4 1_555 1_555
C12_4 N7_4 1_555 1_555
H11_4 C13_4 1_555 1_555
C14_4 N7_4 1_555 1_555
C15_4 C5_4 1_555 1_555
C16_4 N8_4 1_555 1_555
C17_4 C16_4 1_555 1_555
H12_4 C17_4 1_555 1_555
C21_4 N8_4 1_555 1_555
C22_4 C5_4 1_555 1_555
C24_4 C22_4 1_555 1_555
H16_4 C24_4 1_555 1_555
C25_4 C11_4 1_555 1_555
C26_4 C8_4 1_555 1_555
H17_4 C26_4 1_555 1_555
C27_4 N13_2 1_555 1_555
H18_4 C27_4 1_555 1_555
C28_4 Au2_4 1_555 1_555
N10_4 C28_4 1_555 1_555
C7_4 C12_4 1_555 1_555
C11_4 C15_4 1_555 1_555
C12_4 C13_4 1_555 1_555
C14_4 C15_4 1_555 1_555
C16_4 C26_4 1_555 1_555
C17_4 C27_4 1_555 1_555
C21_4 C25_4 1_555 1_555
C24_4 C25_4 1_555 1_555
Fe4_2 N1_4 1_555 1_555
N3_4 Fe4_2 1_555 1_555
N4_4 Fe4_2 1_555 1_555
C3_4 N3_4 1_555 1_555
C4_4 N4_4 1_555 1_555
H3_4 C4_4 1_555 1_555
N11_2 Fe4_2 1_555 1_555
N12_2 C10_4 1_555 1_555
O3_4 C20_4 1_555 1_555
N9_4 H4_4 1_555 1_555
C9_4 N9_4 1_555 1_555
C10_4 H9_4 1_555 1_555
C18_4 C9_4 1_555 1_555
H13_4 C18_4 1_555 1_555
C19_4 N12_2 1_555 1_555
H14_4 C19_4 1_555 1_555
C20_4 N9_4 1_555 1_555
C23_4 C9_4 1_555 1_555
H15_4 C23_4 1_555 1_555
C10_4 C18_4 1_555 1_555
C19_4 C23_4 1_555 1_555
Au1_4 C1_4 1_555 1_555
N11_2 C1_4 1_555 1_555
C2_4 Au1_4 1_555 1_555
Au1_5 C1_5 1_555 1_555
Fe1 N1_5 1_555 1_555
N1_5 C2_5 1_555 1_555
N3_5 Fe1 1_555 1_555
N4_5 Fe1 1_555 1_555
C2_5 Au1_5 1_555 1_555
C3_5 N3_5 1_555 1_555
C4_5 N4_5 1_555 1_555
H3_5 C4_5 1_555 1_555
N11_3 Fe1 1_555 1_555
N12_3 Fe1 1_555 1_555
N13_3 Fe1 1_555 1_555
O1_5 C14_5 1_555 1_555
N5_3 C10_5 1_555 1_555
N6_3 C8_5 1_555 1_555
O2_5 C21_5 1_555 1_555
O3_5 C20_5 1_555 1_555
N7_5 H1_5 1_555 1_555
N8_5 H2_5 1_555 1_555
N9_5 H4_5 1_555 1_555
C5_5 H5_5 1_555 1_555
C7_5 C6_5 1_555 1_555
H7_5 C7_5 1_555 1_555
C8_5 H8_5 1_555 1_555
C9_5 N9_5 1_555 1_555
C10_5 H9_5 1_555 1_555
C11_5 H10_5 1_555 1_555
C12_5 N7_5 1_555 1_555
H11_5 C13_5 1_555 1_555
C14_5 N7_5 1_555 1_555
C15_5 C5_5 1_555 1_555
C16_5 N8_5 1_555 1_555
C17_5 C16_5 1_555 1_555
H12_5 C17_5 1_555 1_555
C18_5 C9_5 1_555 1_555
H13_5 C18_5 1_555 1_555
C19_5 N5_3 1_555 1_555
H14_5 C19_5 1_555 1_555
C20_5 N9_5 1_555 1_555
C21_5 N8_5 1_555 1_555
C22_5 C5_5 1_555 1_555
C23_5 C9_5 1_555 1_555
H15_5 C23_5 1_555 1_555
C24_5 C22_5 1_555 1_555
H16_5 C24_5 1_555 1_555
C25_5 C11_5 1_555 1_555
C26_5 C8_5 1_555 1_555
H17_5 C26_5 1_555 1_555
C27_5 N6_3 1_555 1_555
H18_5 C27_5 1_555 1_555
C28_5 Au2_5 1_555 1_555
N10_5 C28_5 1_555 1_555
Fe3_2 N5_3 1_555 1_555
Fe4_3 N6_3 1_555 1_555
C7_5 C12_5 1_555 1_555
C10_5 C18_5 1_555 1_555
C11_5 C15_5 1_555 1_555
C12_5 C13_5 1_555 1_555
C14_5 C15_5 1_555 1_555
C16_5 C26_5 1_555 1_555
C17_5 C27_5 1_555 1_555
C19_5 C23_5 1_555 1_555
C20_5 C22_5 1_555 1_555
C21_5 C25_5 1_555 1_555
C24_5 C25_5 1_555 1_555
O1_6 C14_6 1_555 1_555
N12_3 C10_6 1_555 1_555
N6_4 C8_6 1_555 1_555
O2_6 C21_6 1_555 1_555
O3_6 C20_6 1_555 1_555
N7_6 H1_6 1_555 1_555
N8_6 H2_6 1_555 1_555
N9_6 H4_6 1_555 1_555
C5_6 H5_6 1_555 1_555
C7_6 C6_6 1_555 1_555
H7_6 C7_6 1_555 1_555
C8_6 H8_6 1_555 1_555
C9_6 N9_6 1_555 1_555
C10_6 H9_6 1_555 1_555
C11_6 H10_6 1_555 1_555
C12_6 N7_6 1_555 1_555
H11_6 C13_6 1_555 1_555
C14_6 N7_6 1_555 1_555
C15_6 C5_6 1_555 1_555
C16_6 N8_6 1_555 1_555
C17_6 C16_6 1_555 1_555
H12_6 C17_6 1_555 1_555
C18_6 C9_6 1_555 1_555
H13_6 C18_6 1_555 1_555
C19_6 N12_3 1_555 1_555
H14_6 C19_6 1_555 1_555
C20_6 N9_6 1_555 1_555
C21_6 N8_6 1_555 1_555
C22_6 C5_6 1_555 1_555
C23_6 C9_6 1_555 1_555
H15_6 C23_6 1_555 1_555
C24_6 C22_6 1_555 1_555
H16_6 C24_6 1_555 1_555
C25_6 C11_6 1_555 1_555
C26_6 C8_6 1_555 1_555
H17_6 C26_6 1_555 1_555
C27_6 N6_4 1_555 1_555
H18_6 C27_6 1_555 1_555
C28_6 Au2_6 1_555 1_555
N10_6 C28_6 1_555 1_555
Fe4_4 N6_4 1_555 1_555
C7_6 C12_6 1_555 1_555
C10_6 C18_6 1_555 1_555
C11_6 C15_6 1_555 1_555
C12_6 C13_6 1_555 1_555
C14_6 C15_6 1_555 1_555
C16_6 C26_6 1_555 1_555
C17_6 C27_6 1_555 1_555
C19_6 C23_6 1_555 1_555
C20_6 C22_6 1_555 1_555
C21_6 C25_6 1_555 1_555
C24_6 C25_6 1_555 1_555
Au1_6 C1_6 1_555 1_555
Fe3_2 N1_6 1_555 1_555
N1_6 C2_6 1_555 1_555
N3_6 Fe3_2 1_555 1_555
N4_6 Fe3_2 1_555 1_555
C2_6 Au1_6 1_555 1_555
C3_6 N3_6 1_555 1_555
C4_6 N4_6 1_555 1_555
H3_6 C4_6 1_555 1_555
N11_4 Fe3_2 1_555 1_555
N13_4 Fe3_2 1_555 1_555
Au1_7 C1_7 1_555 1_555
N2_3 C1_7 1_555 1_555
C2_7 Au1_7 1_555 1_555
Fe4_3 N2_3 1_555 1_555
Au2_7 C3_7 1_555 1_555
Fe4_3 N1_7 1_555 1_555
N3_7 Fe4_3 1_555 1_555
N4_7 Fe4_3 1_555 1_555
O1_7 C14_7 1_555 1_555
N13_3 C8_7 1_555 1_555
O2_7 C21_7 1_555 1_555
C3_7 N3_7 1_555 1_555
N7_7 H1_7 1_555 1_555
N8_7 H2_7 1_555 1_555
C4_7 N4_7 1_555 1_555
H3_7 C4_7 1_555 1_555
C5_7 H5_7 1_555 1_555
C6_7 N4_7 1_555 1_555
H6_7 C6_7 1_555 1_555
C7_7 C6_7 1_555 1_555
H7_7 C7_7 1_555 1_555
C8_7 H8_7 1_555 1_555
C11_7 H10_7 1_555 1_555
C12_7 N7_7 1_555 1_555
C13_7 C4_7 1_555 1_555
H11_7 C13_7 1_555 1_555
C14_7 N7_7 1_555 1_555
C15_7 C5_7 1_555 1_555
C16_7 N8_7 1_555 1_555
C17_7 C16_7 1_555 1_555
H12_7 C17_7 1_555 1_555
C21_7 N8_7 1_555 1_555
C22_7 C5_7 1_555 1_555
C24_7 C22_7 1_555 1_555
H16_7 C24_7 1_555 1_555
C25_7 C11_7 1_555 1_555
C26_7 C8_7 1_555 1_555
H17_7 C26_7 1_555 1_555
C27_7 N13_3 1_555 1_555
H18_7 C27_7 1_555 1_555
C28_7 Au2_7 1_555 1_555
N10_7 C28_7 1_555 1_555
N12_4 Fe4_3 1_555 1_555
C7_7 C12_7 1_555 1_555
C11_7 C15_7 1_555 1_555
C12_7 C13_7 1_555 1_555
C14_7 C15_7 1_555 1_555
C16_7 C26_7 1_555 1_555
C17_7 C27_7 1_555 1_555
C21_7 C25_7 1_555 1_555
C24_7 C25_7 1_555 1_555
N5_4 C10_7 1_555 1_555
O3_7 C20_7 1_555 1_555
N9_7 H4_7 1_555 1_555
C9_7 N9_7 1_555 1_555
C10_7 H9_7 1_555 1_555
C18_7 C9_7 1_555 1_555
H13_7 C18_7 1_555 1_555
C19_7 N5_4 1_555 1_555
H14_7 C19_7 1_555 1_555
C20_7 N9_7 1_555 1_555
C23_7 C9_7 1_555 1_555
H15_7 C23_7 1_555 1_555
Fe4_4 N5_4 1_555 1_555
C10_7 C18_7 1_555 1_555
C19_7 C23_7 1_555 1_555
Au1_8 C1_8 1_555 1_555
N2_4 C1_8 1_555 1_555
C2_8 Au1_8 1_555 1_555
Fe4_4 N2_4 1_555 1_555
N12_4 C10_8 1_555 1_555
O3_8 C20_8 1_555 1_555
N9_8 H4_8 1_555 1_555
C9_8 N9_8 1_555 1_555
C10_8 H9_8 1_555 1_555
C18_8 C9_8 1_555 1_555
H13_8 C18_8 1_555 1_555
C19_8 N12_4 1_555 1_555
H14_8 C19_8 1_555 1_555
C20_8 N9_8 1_555 1_555
C23_8 C9_8 1_555 1_555
H15_8 C23_8 1_555 1_555
C10_8 C18_8 1_555 1_555
C19_8 C23_8 1_555 1_555
Au2_8 C3_8 1_555 1_555
Fe4_4 N1_8 1_555 1_555
N3_8 Fe4_4 1_555 1_555
N4_8 Fe4_4 1_555 1_555
O1_8 C14_8 1_555 1_555
N13_4 C8_8 1_555 1_555
O2_8 C21_8 1_555 1_555
C3_8 N3_8 1_555 1_555
N7_8 H1_8 1_555 1_555
N8_8 H2_8 1_555 1_555
C4_8 N4_8 1_555 1_555
H3_8 C4_8 1_555 1_555
C5_8 H5_8 1_555 1_555
C6_8 N4_8 1_555 1_555
H6_8 C6_8 1_555 1_555
C7_8 C6_8 1_555 1_555
H7_8 C7_8 1_555 1_555
C8_8 H8_8 1_555 1_555
C11_8 H10_8 1_555 1_555
C12_8 N7_8 1_555 1_555
C13_8 C4_8 1_555 1_555
H11_8 C13_8 1_555 1_555
C14_8 N7_8 1_555 1_555
C15_8 C5_8 1_555 1_555
C16_8 N8_8 1_555 1_555
C17_8 C16_8 1_555 1_555
H12_8 C17_8 1_555 1_555
C21_8 N8_8 1_555 1_555
C22_8 C5_8 1_555 1_555
C24_8 C22_8 1_555 1_555
H16_8 C24_8 1_555 1_555
C25_8 C11_8 1_555 1_555
C26_8 C8_8 1_555 1_555
H17_8 C26_8 1_555 1_555
C27_8 N13_4 1_555 1_555
H18_8 C27_8 1_555 1_555
C28_8 Au2_8 1_555 1_555
N10_8 C28_8 1_555 1_555
C7_8 C12_8 1_555 1_555
C11_8 C15_8 1_555 1_555
C12_8 C13_8 1_555 1_555
C14_8 C15_8 1_555 1_555
C16_8 C26_8 1_555 1_555
C17_8 C27_8 1_555 1_555
C21_8 C25_8 1_555 1_555
C24_8 C25_8 1_555 1_555

#END
