
###############################################################################
#
# This file contains modified crystal structure data generated from the
# MOF subset of the Cambridge Structural Database (CSD) v543 
# hosted by the Cambridge Crystallographic Data Centre (CCDC).
#
# This work is licensed under the Creative Commons
# Attribution-NonCommercial-ShareAlike 4.0 International License.
# To view a copy of this license, visit
# http://creativecommons.org/licenses/by-nc-sa/4.0/
# or send a letter to
# Creative Commons, PO Box 1866, Mountain View, CA 94042, USA.
#
# CIF created using the CSD Python API on 29 September 2022
# The structure has been converted into the P1 space group
# The structure has a 3D framework
# The original CSD entry WAMCAS06 is in the orthorhombic crystal system
# The original CSD entry WAMCAS06 is in a Sohncke space group
# The framework has been calculated to contain at least 10.0% void space
# The void calculation uses a probe of radius 1.32A, grid spacing 0.4
#
###############################################################################

data_WAMCAS06
_chemical_formula_moiety         '(C224 H144 Au16 Fe8 N76 O24)n'
_symmetry_cell_setting           triclinic
_symmetry_space_group_name_H-M   'P 1'
_symmetry_Int_Tables_number      1
_space_group_name_Hall           'P 1'
loop_
_symmetry_equiv_pos_site_id
_symmetry_equiv_pos_as_xyz
1 x,y,z
_cell_length_a                   10.137(2)
_cell_length_b                   30.295(6)
_cell_length_c                   33.599(7)
_cell_angle_alpha                90
_cell_angle_beta                 90
_cell_angle_gamma                90
_cell_volume                     10318.3
loop_
_atom_site_label
_atom_site_type_symbol
_atom_site_fract_x
_atom_site_fract_y
_atom_site_fract_z
N2 N 0.0502(8) 0.7254(2) 0.5811(2)
Fe2 Fe 0.24140(10) 0.71918(3) 0.57959(3)
Au1 Au 0.74174(3) 0.71844(2) 0.57835(2)
Au2 Au 0.28727(5) 0.85410(2) 0.49098(2)
N1 N 0.4336(8) 0.7138(2) 0.5789(2)
N3 N 0.2574(8) 0.7740(2) 0.5491(2)
N4 N 0.2308(8) 0.68686(19) 0.5265(2)
O1 O 0.1258(9) 0.6735(2) 0.37899(19)
N5 N 0.2193(8) 0.3388(2) 0.3920(2)
N6 N 0.2446(8) 0.7471(2) 0.13149(19)
C1 C 0.9361(9) 0.7240(3) 0.5801(2)
O2 O 0.1435(10) 0.6031(2) 0.2061(2)
C2 C 0.5458(9) 0.7140(3) 0.5783(3)
C3 C 0.2658(11) 0.8044(3) 0.5281(3)
O3 O 0.3067(14) 0.4690(3) 0.2916(3)
N7 N 0.2143(10) 0.6195(2) 0.4174(2)
H1 H 0.242927 0.592055 0.417871
N8 N 0.2262(9) 0.6664(2) 0.2334(2)
H2 H 0.253711 0.678084 0.255874
C4 C 0.3086(11) 0.6533(3) 0.5178(3)
H3 H 0.369470 0.643732 0.537497
N9 N 0.1721(13) 0.4668(2) 0.3459(3)
H4 H 0.113329 0.482689 0.358788
C5 C 0.1972(11) 0.5610(2) 0.3492(2)
H5 H 0.201992 0.546853 0.374374
C6 C 0.1429(10) 0.6988(3) 0.4985(2)
H6 H 0.085335 0.722751 0.504084
C7 C 0.1318(10) 0.6780(3) 0.4621(3)
H7 H 0.067020 0.687070 0.443342
C8 C 0.1569(9) 0.7133(3) 0.1339(3)
H8 H 0.097646 0.708893 0.112342
C9 C 0.1897(12) 0.4228(3) 0.3588(3)
C10 C 0.3010(11) 0.3536(3) 0.3625(3)
H9 H 0.371439 0.335163 0.353992
C11 C 0.1734(10) 0.6266(3) 0.3099(2)
H10 H 0.160592 0.657658 0.308533
C12 C 0.2176(10) 0.6436(3) 0.4535(2)
C13 C 0.3070(12) 0.6313(3) 0.4820(3)
H11 H 0.367259 0.607943 0.477088
C14 C 0.1698(10) 0.6358(3) 0.3818(2)
C15 C 0.1783(10) 0.6060(2) 0.3470(2)
C16 C 0.2287(10) 0.6931(3) 0.1993(3)
C17 C 0.3127(11) 0.7295(3) 0.1981(3)
H12 H 0.366083 0.736710 0.220371
C18 C 0.2851(14) 0.3941(3) 0.3445(3)
H13 H 0.339024 0.402330 0.322632
C19 C 0.1272(11) 0.3670(3) 0.4051(3)
H14 H 0.070397 0.357611 0.425926
C20 C 0.2377(16) 0.4872(3) 0.3152(3)
C21 C 0.1840(10) 0.6233(3) 0.2344(2)
C22 C 0.2094(14) 0.5363(3) 0.3143(3)
C23 C 0.1103(12) 0.4091(3) 0.3899(3)
H15 H 0.045275 0.428242 0.400726
C24 C 0.2090(13) 0.5564(3) 0.2766(3)
H16 H 0.223139 0.539455 0.253226
C25 C 0.1873(11) 0.6021(3) 0.2742(2)
C26 C 0.1495(10) 0.6850(3) 0.1662(3)
H17 H 0.091211 0.660434 0.165835
C27 C 0.3174(10) 0.7551(3) 0.1635(3)
H18 H 0.375775 0.779628 0.162947
C28 C 0.3142(18) 0.9059(4) 0.4566(5)
N10 N 0.330(2) 0.9361(5) 0.4369(5)
Fe3 Fe 0.24140(10) 0.28082(3) 0.42041(3)
Fe4 Fe 0.25860(10) 0.78082(3) 0.07959(3)
N12 N 0.2193(8) 0.6612(2) 0.6080(2)
N13 N 0.2554(8) 0.7529(2) 0.63149(19)
N2_2 N 0.0502(8) 0.2746(2) 0.4189(2)
Au1_2 Au 0.74174(3) 0.28156(2) 0.42165(2)
Au2_2 Au 0.28727(5) 0.14590(2) 0.50902(2)
N1_2 N 0.4336(8) 0.2862(2) 0.4211(2)
N3_2 N 0.2574(8) 0.2260(2) 0.4509(2)
N4_2 N 0.2308(8) 0.31314(19) 0.4735(2)
O1_2 O 0.1258(9) 0.3265(2) 0.62101(19)
N6_2 N 0.2446(8) 0.2529(2) 0.86851(19)
C1_2 C 0.9361(9) 0.2760(3) 0.4199(2)
O2_2 O 0.1435(10) 0.3969(2) 0.7939(2)
C2_2 C 0.5458(9) 0.2860(3) 0.4217(3)
C3_2 C 0.2658(11) 0.1956(3) 0.4719(3)
O3_2 O 0.3067(14) 0.5310(3) 0.7084(3)
N7_2 N 0.2143(10) 0.3805(2) 0.5826(2)
H1_2 H 0.242927 0.407945 0.582129
N8_2 N 0.2262(9) 0.3336(2) 0.7666(2)
H2_2 H 0.253711 0.321916 0.744126
C4_2 C 0.3086(11) 0.3467(3) 0.4822(3)
H3_2 H 0.369470 0.356268 0.462503
N9_2 N 0.1721(13) 0.5332(2) 0.6541(3)
H4_2 H 0.113329 0.517311 0.641212
C5_2 C 0.1972(11) 0.4390(2) 0.6508(2)
H5_2 H 0.201992 0.453147 0.625626
C6_2 C 0.1429(10) 0.3012(3) 0.5015(2)
H6_2 H 0.085335 0.277249 0.495916
C7_2 C 0.1318(10) 0.3220(3) 0.5379(3)
H7_2 H 0.067020 0.312930 0.556658
C8_2 C 0.1569(9) 0.2867(3) 0.8661(3)
H8_2 H 0.097646 0.291107 0.887658
C9_2 C 0.1897(12) 0.5772(3) 0.6412(3)
C10_2 C 0.3010(11) 0.6464(3) 0.6375(3)
H9_2 H 0.371439 0.664837 0.646008
C11_2 C 0.1734(10) 0.3734(3) 0.6901(2)
H10_2 H 0.160592 0.342342 0.691467
C12_2 C 0.2176(10) 0.3564(3) 0.5465(2)
C13_2 C 0.3070(12) 0.3687(3) 0.5180(3)
H11_2 H 0.367259 0.392057 0.522912
C14_2 C 0.1698(10) 0.3642(3) 0.6182(2)
C15_2 C 0.1783(10) 0.3940(2) 0.6530(2)
C16_2 C 0.2287(10) 0.3069(3) 0.8007(3)
C17_2 C 0.3127(11) 0.2705(3) 0.8019(3)
H12_2 H 0.366083 0.263290 0.779629
C18_2 C 0.2851(14) 0.6059(3) 0.6555(3)
H13_2 H 0.339024 0.597670 0.677368
C19_2 C 0.1272(11) 0.6330(3) 0.5949(3)
H14_2 H 0.070397 0.642389 0.574074
C20_2 C 0.2377(16) 0.5128(3) 0.6848(3)
C21_2 C 0.1840(10) 0.3767(3) 0.7656(2)
C22_2 C 0.2094(14) 0.4637(3) 0.6857(3)
C23_2 C 0.1103(12) 0.5909(3) 0.6101(3)
H15_2 H 0.045275 0.571758 0.599274
C24_2 C 0.2090(13) 0.4436(3) 0.7234(3)
H16_2 H 0.223139 0.460545 0.746774
C25_2 C 0.1873(11) 0.3979(3) 0.7258(2)
C26_2 C 0.1495(10) 0.3150(3) 0.8338(3)
H17_2 H 0.091211 0.339566 0.834165
C27_2 C 0.3174(10) 0.2449(3) 0.8365(3)
H18_2 H 0.375775 0.220372 0.837053
C28_2 C 0.3142(18) 0.0941(4) 0.5434(5)
N10_2 N 0.330(2) 0.0639(5) 0.5631(5)
Fe4_2 Fe 0.25860(10) 0.21918(3) 0.92041(3)
N13_2 N 0.2554(8) 0.2471(2) 0.36851(19)
N5_2 N 0.2807(8) 0.1612(2) 0.8920(2)
O3_3 O 0.1933(14) 0.0310(3) 0.7916(3)
N9_3 N 0.3279(13) 0.0332(2) 0.8459(3)
H4_3 H 0.386671 0.017311 0.858788
C9_3 C 0.3103(12) 0.0772(3) 0.8588(3)
C10_3 C 0.1990(11) 0.1464(3) 0.8625(3)
H9_3 H 0.128561 0.164837 0.853992
C18_3 C 0.2149(14) 0.1059(3) 0.8445(3)
H13_3 H 0.160976 0.097670 0.822632
C19_3 C 0.3728(11) 0.1330(3) 0.9051(3)
H14_3 H 0.429603 0.142389 0.925926
C20_3 C 0.2623(16) 0.0128(3) 0.8152(3)
C23_3 C 0.3897(12) 0.0909(3) 0.8899(3)
H15_3 H 0.454725 0.071758 0.900726
N1_3 N 0.0664(8) 0.7862(2) 0.0789(2)
N3_3 N 0.2426(8) 0.7260(2) 0.0491(2)
N4_3 N 0.2692(8) 0.81314(19) 0.0265(2)
C3_3 C 0.2342(11) 0.6956(3) 0.0281(3)
C4_3 C 0.1914(11) 0.8467(3) 0.0178(3)
H3_3 H 0.130530 0.856268 0.037497
H6_3 H 0.414665 0.777249 0.004084
N11 N 0.4498(8) 0.7746(2) 0.0811(2)
N12_2 N 0.2807(8) 0.8388(2) 0.1080(2)
Au2_3 Au 0.21273(5) 0.64590(2) 0.99098(2)
O1_3 O 0.3742(9) 0.8265(2) 0.87899(19)
O2_3 O 0.3565(10) 0.8969(2) 0.7061(2)
N7_3 N 0.2857(10) 0.8805(2) 0.9174(2)
H1_3 H 0.257073 0.907945 0.917871
N8_3 N 0.2738(9) 0.8336(2) 0.7334(2)
H2_3 H 0.246289 0.821916 0.755874
C5_3 C 0.3028(11) 0.9390(2) 0.8492(2)
H5_3 H 0.298008 0.953147 0.874374
C6_3 C 0.3571(10) 0.8012(3) 0.9985(2)
C7_3 C 0.3682(10) 0.8220(3) 0.9621(3)
H7_3 H 0.432980 0.812930 0.943342
C8_3 C 0.3431(9) 0.7867(3) 0.6339(3)
H8_3 H 0.402354 0.791107 0.612342
C11_3 C 0.3266(10) 0.8734(3) 0.8099(2)
H10_3 H 0.339408 0.842342 0.808533
C12_3 C 0.2824(10) 0.8564(3) 0.9535(2)
C13_3 C 0.1930(12) 0.8687(3) 0.9820(3)
H11_3 H 0.132741 0.892057 0.977088
C14_3 C 0.3302(10) 0.8642(3) 0.8818(2)
C15_3 C 0.3217(10) 0.8940(2) 0.8470(2)
C16_3 C 0.2713(10) 0.8069(3) 0.6993(3)
C17_3 C 0.1873(11) 0.7705(3) 0.6981(3)
H12_3 H 0.133917 0.763290 0.720371
C21_3 C 0.3160(10) 0.8767(3) 0.7344(2)
C22_3 C 0.2906(14) 0.9637(3) 0.8143(3)
C24_3 C 0.2910(13) 0.9436(3) 0.7766(3)
H16_3 H 0.276861 0.960545 0.753226
C25_3 C 0.3127(11) 0.8979(3) 0.7742(2)
C26_3 C 0.3505(10) 0.8150(3) 0.6662(3)
H17_3 H 0.408789 0.839566 0.665835
C27_3 C 0.1826(10) 0.7449(3) 0.6635(3)
H18_3 H 0.124225 0.720372 0.662947
C28_3 C 0.1858(18) 0.5941(4) 0.9566(5)
N10_3 N 0.170(2) 0.5639(5) 0.9369(5)
Au1_3 Au 0.75826(3) 0.78156(2) 0.07835(2)
C1_3 C 0.5639(9) 0.7760(3) 0.0801(2)
C2_3 C 0.9542(9) 0.7860(3) 0.0783(3)
Au2_4 Au 0.21273(5) 0.35410(2) 0.00902(2)
O1_4 O 0.3742(9) 0.1735(2) 0.12101(19)
O2_4 O 0.3565(10) 0.1031(2) 0.2939(2)
N7_4 N 0.2857(10) 0.1195(2) 0.0826(2)
H1_4 H 0.257073 0.092055 0.082129
N8_4 N 0.2738(9) 0.1664(2) 0.2666(2)
H2_4 H 0.246289 0.178084 0.244126
C5_4 C 0.3028(11) 0.0610(2) 0.1508(2)
H5_4 H 0.298008 0.046853 0.125626
C6_4 C 0.3571(10) 0.1988(3) 0.0015(2)
C7_4 C 0.3682(10) 0.1780(3) 0.0379(3)
H7_4 H 0.432980 0.187070 0.056658
C8_4 C 0.3431(9) 0.2133(3) 0.3661(3)
H8_4 H 0.402354 0.208893 0.387658
C11_4 C 0.3266(10) 0.1266(3) 0.1901(2)
H10_4 H 0.339408 0.157658 0.191467
C12_4 C 0.2824(10) 0.1436(3) 0.0465(2)
C13_4 C 0.1930(12) 0.1313(3) 0.0180(3)
H11_4 H 0.132741 0.107943 0.022912
C14_4 C 0.3302(10) 0.1358(3) 0.1182(2)
C15_4 C 0.3217(10) 0.1060(2) 0.1530(2)
C16_4 C 0.2713(10) 0.1931(3) 0.3007(3)
C17_4 C 0.1873(11) 0.2295(3) 0.3019(3)
H12_4 H 0.133917 0.236710 0.279629
C21_4 C 0.3160(10) 0.1233(3) 0.2656(2)
C22_4 C 0.2906(14) 0.0363(3) 0.1857(3)
C24_4 C 0.2910(13) 0.0564(3) 0.2234(3)
H16_4 H 0.276861 0.039455 0.246774
C25_4 C 0.3127(11) 0.1021(3) 0.2258(2)
C26_4 C 0.3505(10) 0.1850(3) 0.3338(3)
H17_4 H 0.408789 0.160434 0.334165
C27_4 C 0.1826(10) 0.2551(3) 0.3365(3)
H18_4 H 0.124225 0.279628 0.337053
C28_4 C 0.1858(18) 0.4059(4) 0.0434(5)
N10_4 N 0.170(2) 0.4361(5) 0.0631(5)
N1_4 N 0.0664(8) 0.2138(2) 0.9211(2)
N3_4 N 0.2426(8) 0.2740(2) 0.9509(2)
N4_4 N 0.2692(8) 0.18686(19) 0.9735(2)
C3_4 C 0.2342(11) 0.3044(3) 0.9719(3)
C4_4 C 0.1914(11) 0.1533(3) 0.9822(3)
H3_4 H 0.130530 0.143732 0.962503
H6_4 H 0.414665 0.222751 0.995916
N11_2 N 0.4498(8) 0.2254(2) 0.9189(2)
O3_4 O 0.1933(14) 0.9690(3) 0.2084(3)
N9_4 N 0.3279(13) 0.9668(2) 0.1541(3)
H4_4 H 0.386671 0.982689 0.141212
C9_4 C 0.3103(12) 0.9228(3) 0.1412(3)
C10_4 C 0.1990(11) 0.8536(3) 0.1375(3)
H9_4 H 0.128561 0.835163 0.146008
C18_4 C 0.2149(14) 0.8941(3) 0.1555(3)
H13_4 H 0.160976 0.902330 0.177368
C19_4 C 0.3728(11) 0.8670(3) 0.0949(3)
H14_4 H 0.429603 0.857611 0.074074
C20_4 C 0.2623(16) 0.9872(3) 0.1848(3)
C23_4 C 0.3897(12) 0.9091(3) 0.1101(3)
H15_4 H 0.454725 0.928242 0.099274
Au1_4 Au 0.75826(3) 0.21844(2) 0.92165(2)
C1_4 C 0.5639(9) 0.2240(3) 0.9199(2)
C2_4 C 0.9542(9) 0.2140(3) 0.9217(3)
Au1_5 Au 0.25826(3) 0.28156(2) 0.07835(2)
Fe1 Fe 0.75860(10) 0.28082(3) 0.07959(3)
N1_5 N 0.5664(8) 0.2862(2) 0.0789(2)
N3_5 N 0.7426(8) 0.2260(2) 0.0491(2)
N4_5 N 0.7692(8) 0.31314(19) 0.0265(2)
C1_5 C 0.0639(9) 0.2760(3) 0.0801(2)
C2_5 C 0.4542(9) 0.2860(3) 0.0783(3)
C3_5 C 0.7342(11) 0.1956(3) 0.0281(3)
C4_5 C 0.6914(11) 0.3467(3) 0.0178(3)
H3_5 H 0.630530 0.356268 0.037497
H6_5 H 0.914665 0.277249 0.004084
N11_3 N 0.9498(8) 0.2746(2) 0.0811(2)
N12_3 N 0.7807(8) 0.3388(2) 0.1080(2)
N13_3 N 0.7446(8) 0.2471(2) 0.13149(19)
Au2_5 Au 0.71273(5) 0.14590(2) 0.99098(2)
O1_5 O 0.8742(9) 0.3265(2) 0.87899(19)
N5_3 N 0.7807(8) 0.6612(2) 0.8920(2)
N6_3 N 0.7554(8) 0.2529(2) 0.63149(19)
O2_5 O 0.8565(10) 0.3969(2) 0.7061(2)
O3_5 O 0.6933(14) 0.5310(3) 0.7916(3)
N7_5 N 0.7857(10) 0.3805(2) 0.9174(2)
H1_5 H 0.757073 0.407945 0.917871
N8_5 N 0.7738(9) 0.3336(2) 0.7334(2)
H2_5 H 0.746289 0.321916 0.755874
N9_5 N 0.8279(13) 0.5332(2) 0.8459(3)
H4_5 H 0.886671 0.517311 0.858788
C5_5 C 0.8028(11) 0.4390(2) 0.8492(2)
H5_5 H 0.798008 0.453147 0.874374
C6_5 C 0.8571(10) 0.3012(3) 0.9985(2)
C7_5 C 0.8682(10) 0.3220(3) 0.9621(3)
H7_5 H 0.932980 0.312930 0.943342
C8_5 C 0.8431(9) 0.2867(3) 0.6339(3)
H8_5 H 0.902354 0.291107 0.612342
C9_5 C 0.8103(12) 0.5772(3) 0.8588(3)
C10_5 C 0.6990(11) 0.6464(3) 0.8625(3)
H9_5 H 0.628561 0.664837 0.853992
C11_5 C 0.8266(10) 0.3734(3) 0.8099(2)
H10_5 H 0.839408 0.342342 0.808533
C12_5 C 0.7824(10) 0.3564(3) 0.9535(2)
C13_5 C 0.6930(12) 0.3687(3) 0.9820(3)
H11_5 H 0.632741 0.392057 0.977088
C14_5 C 0.8302(10) 0.3642(3) 0.8818(2)
C15_5 C 0.8217(10) 0.3940(2) 0.8470(2)
C16_5 C 0.7713(10) 0.3069(3) 0.6993(3)
C17_5 C 0.6873(11) 0.2705(3) 0.6981(3)
H12_5 H 0.633917 0.263290 0.720371
C18_5 C 0.7149(14) 0.6059(3) 0.8445(3)
H13_5 H 0.660976 0.597670 0.822632
C19_5 C 0.8728(11) 0.6330(3) 0.9051(3)
H14_5 H 0.929603 0.642389 0.925926
C20_5 C 0.7623(16) 0.5128(3) 0.8152(3)
C21_5 C 0.8160(10) 0.3767(3) 0.7344(2)
C22_5 C 0.7906(14) 0.4637(3) 0.8143(3)
C23_5 C 0.8897(12) 0.5909(3) 0.8899(3)
H15_5 H 0.954725 0.571758 0.900726
C24_5 C 0.7910(13) 0.4436(3) 0.7766(3)
H16_5 H 0.776861 0.460545 0.753226
C25_5 C 0.8127(11) 0.3979(3) 0.7742(2)
C26_5 C 0.8505(10) 0.3150(3) 0.6662(3)
H17_5 H 0.908789 0.339566 0.665835
C27_5 C 0.6826(10) 0.2449(3) 0.6635(3)
H18_5 H 0.624225 0.220372 0.662947
C28_5 C 0.6858(18) 0.0941(4) 0.9566(5)
N10_5 N 0.670(2) 0.0639(5) 0.9369(5)
Fe3_2 Fe 0.75860(10) 0.71918(3) 0.92041(3)
Fe4_3 Fe 0.74140(10) 0.21918(3) 0.57959(3)
Au2_6 Au 0.71273(5) 0.85410(2) 0.00902(2)
O1_6 O 0.8742(9) 0.6735(2) 0.12101(19)
N6_4 N 0.7554(8) 0.7471(2) 0.36851(19)
O2_6 O 0.8565(10) 0.6031(2) 0.2939(2)
O3_6 O 0.6933(14) 0.4690(3) 0.2084(3)
N7_6 N 0.7857(10) 0.6195(2) 0.0826(2)
H1_6 H 0.757073 0.592055 0.082129
N8_6 N 0.7738(9) 0.6664(2) 0.2666(2)
H2_6 H 0.746289 0.678084 0.244126
N9_6 N 0.8279(13) 0.4668(2) 0.1541(3)
H4_6 H 0.886671 0.482689 0.141212
C5_6 C 0.8028(11) 0.5610(2) 0.1508(2)
H5_6 H 0.798008 0.546853 0.125626
C6_6 C 0.8571(10) 0.6988(3) 0.0015(2)
C7_6 C 0.8682(10) 0.6780(3) 0.0379(3)
H7_6 H 0.932980 0.687070 0.056658
C8_6 C 0.8431(9) 0.7133(3) 0.3661(3)
H8_6 H 0.902354 0.708893 0.387658
C9_6 C 0.8103(12) 0.4228(3) 0.1412(3)
C10_6 C 0.6990(11) 0.3536(3) 0.1375(3)
H9_6 H 0.628561 0.335163 0.146008
C11_6 C 0.8266(10) 0.6266(3) 0.1901(2)
H10_6 H 0.839408 0.657658 0.191467
C12_6 C 0.7824(10) 0.6436(3) 0.0465(2)
C13_6 C 0.6930(12) 0.6313(3) 0.0180(3)
H11_6 H 0.632741 0.607943 0.022912
C14_6 C 0.8302(10) 0.6358(3) 0.1182(2)
C15_6 C 0.8217(10) 0.6060(2) 0.1530(2)
C16_6 C 0.7713(10) 0.6931(3) 0.3007(3)
C17_6 C 0.6873(11) 0.7295(3) 0.3019(3)
H12_6 H 0.633917 0.736710 0.279629
C18_6 C 0.7149(14) 0.3941(3) 0.1555(3)
H13_6 H 0.660976 0.402330 0.177368
C19_6 C 0.8728(11) 0.3670(3) 0.0949(3)
H14_6 H 0.929603 0.357611 0.074074
C20_6 C 0.7623(16) 0.4872(3) 0.1848(3)
C21_6 C 0.8160(10) 0.6233(3) 0.2656(2)
C22_6 C 0.7906(14) 0.5363(3) 0.1857(3)
C23_6 C 0.8897(12) 0.4091(3) 0.1101(3)
H15_6 H 0.954725 0.428242 0.099274
C24_6 C 0.7910(13) 0.5564(3) 0.2234(3)
H16_6 H 0.776861 0.539455 0.246774
C25_6 C 0.8127(11) 0.6021(3) 0.2258(2)
C26_6 C 0.8505(10) 0.6850(3) 0.3338(3)
H17_6 H 0.908789 0.660434 0.334165
C27_6 C 0.6826(10) 0.7551(3) 0.3365(3)
H18_6 H 0.624225 0.779628 0.337053
C28_6 C 0.6858(18) 0.9059(4) 0.0434(5)
N10_6 N 0.670(2) 0.9361(5) 0.0631(5)
Fe4_4 Fe 0.74140(10) 0.78082(3) 0.42041(3)
Au1_6 Au 0.25826(3) 0.71844(2) 0.92165(2)
N1_6 N 0.5664(8) 0.7138(2) 0.9211(2)
N3_6 N 0.7426(8) 0.7740(2) 0.9509(2)
N4_6 N 0.7692(8) 0.68686(19) 0.9735(2)
C1_6 C 0.0639(9) 0.7240(3) 0.9199(2)
C2_6 C 0.4542(9) 0.7140(3) 0.9217(3)
C3_6 C 0.7342(11) 0.8044(3) 0.9719(3)
C4_6 C 0.6914(11) 0.6533(3) 0.9822(3)
H3_6 H 0.630530 0.643732 0.962503
H6_6 H 0.914665 0.722751 0.995916
N11_4 N 0.9498(8) 0.7254(2) 0.9189(2)
N13_4 N 0.7446(8) 0.7529(2) 0.86851(19)
Au1_7 Au 0.24174(3) 0.21844(2) 0.57835(2)
N2_3 N 0.5502(8) 0.2254(2) 0.5811(2)
C1_7 C 0.4361(9) 0.2240(3) 0.5801(2)
C2_7 C 0.0458(9) 0.2140(3) 0.5783(3)
Au2_7 Au 0.78727(5) 0.35410(2) 0.49098(2)
N1_7 N 0.9336(8) 0.2138(2) 0.5789(2)
N3_7 N 0.7574(8) 0.2740(2) 0.5491(2)
N4_7 N 0.7308(8) 0.18686(19) 0.5265(2)
O1_7 O 0.6258(9) 0.1735(2) 0.37899(19)
O2_7 O 0.6435(10) 0.1031(2) 0.2061(2)
C3_7 C 0.7658(11) 0.3044(3) 0.5281(3)
N7_7 N 0.7143(10) 0.1195(2) 0.4174(2)
H1_7 H 0.742927 0.092055 0.417871
N8_7 N 0.7262(9) 0.1664(2) 0.2334(2)
H2_7 H 0.753711 0.178084 0.255874
C4_7 C 0.8086(11) 0.1533(3) 0.5178(3)
H3_7 H 0.869470 0.143732 0.537497
C5_7 C 0.6972(11) 0.0610(2) 0.3492(2)
H5_7 H 0.701992 0.046853 0.374374
C6_7 C 0.6429(10) 0.1988(3) 0.4985(2)
H6_7 H 0.585335 0.222751 0.504084
C7_7 C 0.6318(10) 0.1780(3) 0.4621(3)
H7_7 H 0.567020 0.187070 0.443342
C8_7 C 0.6569(9) 0.2133(3) 0.1339(3)
H8_7 H 0.597646 0.208893 0.112342
C11_7 C 0.6734(10) 0.1266(3) 0.3099(2)
H10_7 H 0.660592 0.157658 0.308533
C12_7 C 0.7176(10) 0.1436(3) 0.4535(2)
C13_7 C 0.8070(12) 0.1313(3) 0.4820(3)
H11_7 H 0.867259 0.107943 0.477088
C14_7 C 0.6698(10) 0.1358(3) 0.3818(2)
C15_7 C 0.6783(10) 0.1060(2) 0.3470(2)
C16_7 C 0.7287(10) 0.1931(3) 0.1993(3)
C17_7 C 0.8127(11) 0.2295(3) 0.1981(3)
H12_7 H 0.866083 0.236710 0.220371
C21_7 C 0.6840(10) 0.1233(3) 0.2344(2)
C22_7 C 0.7094(14) 0.0363(3) 0.3143(3)
C24_7 C 0.7090(13) 0.0564(3) 0.2766(3)
H16_7 H 0.723139 0.039455 0.253226
C25_7 C 0.6873(11) 0.1021(3) 0.2742(2)
C26_7 C 0.6495(10) 0.1850(3) 0.1662(3)
H17_7 H 0.591211 0.160434 0.165835
C27_7 C 0.8174(10) 0.2551(3) 0.1635(3)
H18_7 H 0.875775 0.279628 0.162947
C28_7 C 0.8142(18) 0.4059(4) 0.4566(5)
N10_7 N 0.830(2) 0.4361(5) 0.4369(5)
N12_4 N 0.7193(8) 0.1612(2) 0.6080(2)
N5_4 N 0.7193(8) 0.8388(2) 0.3920(2)
O3_7 O 0.8067(14) 0.9690(3) 0.2916(3)
N9_7 N 0.6721(13) 0.9668(2) 0.3459(3)
H4_7 H 0.613329 0.982689 0.358788
C9_7 C 0.6897(12) 0.9228(3) 0.3588(3)
C10_7 C 0.8010(11) 0.8536(3) 0.3625(3)
H9_7 H 0.871439 0.835163 0.353992
C18_7 C 0.7851(14) 0.8941(3) 0.3445(3)
H13_7 H 0.839024 0.902330 0.322632
C19_7 C 0.6272(11) 0.8670(3) 0.4051(3)
H14_7 H 0.570397 0.857611 0.425926
C20_7 C 0.7377(16) 0.9872(3) 0.3152(3)
C23_7 C 0.6103(12) 0.9091(3) 0.3899(3)
H15_7 H 0.545275 0.928242 0.400726
Au1_8 Au 0.24174(3) 0.78156(2) 0.42165(2)
N2_4 N 0.5502(8) 0.7746(2) 0.4189(2)
C1_8 C 0.4361(9) 0.7760(3) 0.4199(2)
C2_8 C 0.0458(9) 0.7860(3) 0.4217(3)
O3_8 O 0.8067(14) 0.0310(3) 0.7084(3)
N9_8 N 0.6721(13) 0.0332(2) 0.6541(3)
H4_8 H 0.613329 0.017311 0.641212
C9_8 C 0.6897(12) 0.0772(3) 0.6412(3)
C10_8 C 0.8010(11) 0.1464(3) 0.6375(3)
H9_8 H 0.871439 0.164837 0.646008
C18_8 C 0.7851(14) 0.1059(3) 0.6555(3)
H13_8 H 0.839024 0.097670 0.677368
C19_8 C 0.6272(11) 0.1330(3) 0.5949(3)
H14_8 H 0.570397 0.142389 0.574074
C20_8 C 0.7377(16) 0.0128(3) 0.6848(3)
C23_8 C 0.6103(12) 0.0909(3) 0.6101(3)
H15_8 H 0.545275 0.071758 0.599274
Au2_8 Au 0.78727(5) 0.64590(2) 0.50902(2)
N1_8 N 0.9336(8) 0.7862(2) 0.4211(2)
N3_8 N 0.7574(8) 0.7260(2) 0.4509(2)
N4_8 N 0.7308(8) 0.81314(19) 0.4735(2)
O1_8 O 0.6258(9) 0.8265(2) 0.62101(19)
O2_8 O 0.6435(10) 0.8969(2) 0.7939(2)
C3_8 C 0.7658(11) 0.6956(3) 0.4719(3)
N7_8 N 0.7143(10) 0.8805(2) 0.5826(2)
H1_8 H 0.742927 0.907945 0.582129
N8_8 N 0.7262(9) 0.8336(2) 0.7666(2)
H2_8 H 0.753711 0.821916 0.744126
C4_8 C 0.8086(11) 0.8467(3) 0.4822(3)
H3_8 H 0.869470 0.856268 0.462503
C5_8 C 0.6972(11) 0.9390(2) 0.6508(2)
H5_8 H 0.701992 0.953147 0.625626
C6_8 C 0.6429(10) 0.8012(3) 0.5015(2)
H6_8 H 0.585335 0.777249 0.495916
C7_8 C 0.6318(10) 0.8220(3) 0.5379(3)
H7_8 H 0.567020 0.812930 0.556658
C8_8 C 0.6569(9) 0.7867(3) 0.8661(3)
H8_8 H 0.597646 0.791107 0.887658
C11_8 C 0.6734(10) 0.8734(3) 0.6901(2)
H10_8 H 0.660592 0.842342 0.691467
C12_8 C 0.7176(10) 0.8564(3) 0.5465(2)
C13_8 C 0.8070(12) 0.8687(3) 0.5180(3)
H11_8 H 0.867259 0.892057 0.522912
C14_8 C 0.6698(10) 0.8642(3) 0.6182(2)
C15_8 C 0.6783(10) 0.8940(2) 0.6530(2)
C16_8 C 0.7287(10) 0.8069(3) 0.8007(3)
C17_8 C 0.8127(11) 0.7705(3) 0.8019(3)
H12_8 H 0.866083 0.763290 0.779629
C21_8 C 0.6840(10) 0.8767(3) 0.7656(2)
C22_8 C 0.7094(14) 0.9637(3) 0.6857(3)
C24_8 C 0.7090(13) 0.9436(3) 0.7234(3)
H16_8 H 0.723139 0.960545 0.746774
C25_8 C 0.6873(11) 0.8979(3) 0.7258(2)
C26_8 C 0.6495(10) 0.8150(3) 0.8338(3)
H17_8 H 0.591211 0.839566 0.834165
C27_8 C 0.8174(10) 0.7449(3) 0.8365(3)
H18_8 H 0.875775 0.720372 0.837053
C28_8 C 0.8142(18) 0.5941(4) 0.5434(5)
N10_8 N 0.830(2) 0.5639(5) 0.5631(5)
loop_
_geom_bond_atom_site_label_1
_geom_bond_atom_site_label_2
_geom_bond_site_symmetry_1
_geom_bond_site_symmetry_2
Fe2 N2 1_555 1_555
Au1 C1 1_555 1_555
Au2 C3 1_555 1_555
Fe2 N1 1_555 1_555
N1 C2 1_555 1_555
N3 Fe2 1_555 1_555
N4 Fe2 1_555 1_555
O1 C14 1_555 1_555
N5 C10 1_555 1_555
N6 C8 1_555 1_555
O2 C21 1_555 1_555
C2 Au1 1_555 1_555
C3 N3 1_555 1_555
O3 C20 1_555 1_555
N7 H1 1_555 1_555
N8 H2 1_555 1_555
C4 N4 1_555 1_555
H3 C4 1_555 1_555
N9 H4 1_555 1_555
C5 H5 1_555 1_555
C6 N4 1_555 1_555
H6 C6 1_555 1_555
C7 C6 1_555 1_555
H7 C7 1_555 1_555
C8 H8 1_555 1_555
C9 N9 1_555 1_555
C10 H9 1_555 1_555
C11 H10 1_555 1_555
C12 N7 1_555 1_555
C13 C4 1_555 1_555
H11 C13 1_555 1_555
C14 N7 1_555 1_555
C15 C5 1_555 1_555
C16 N8 1_555 1_555
C17 C16 1_555 1_555
H12 C17 1_555 1_555
C18 C9 1_555 1_555
H13 C18 1_555 1_555
C19 N5 1_555 1_555
H14 C19 1_555 1_555
C20 N9 1_555 1_555
C21 N8 1_555 1_555
C22 C5 1_555 1_555
C23 C9 1_555 1_555
H15 C23 1_555 1_555
C24 C22 1_555 1_555
H16 C24 1_555 1_555
C25 C11 1_555 1_555
C26 C8 1_555 1_555
H17 C26 1_555 1_555
C27 N6 1_555 1_555
H18 C27 1_555 1_555
C28 Au2 1_555 1_555
N10 C28 1_555 1_555
Fe3 N5 1_555 1_555
Fe4 N6 1_555 1_555
N12 Fe2 1_555 1_555
N13 Fe2 1_555 1_555
C7 C12 1_555 1_555
C10 C18 1_555 1_555
C11 C15 1_555 1_555
C12 C13 1_555 1_555
C14 C15 1_555 1_555
C16 C26 1_555 1_555
C17 C27 1_555 1_555
C19 C23 1_555 1_555
C20 C22 1_555 1_555
C21 C25 1_555 1_555
C24 C25 1_555 1_555
Fe3 N2_2 1_555 1_555
Au1_2 C1_2 1_555 1_555
Au2_2 C3_2 1_555 1_555
Fe3 N1_2 1_555 1_555
N1_2 C2_2 1_555 1_555
N3_2 Fe3 1_555 1_555
N4_2 Fe3 1_555 1_555
O1_2 C14_2 1_555 1_555
N12 C10_2 1_555 1_555
N6_2 C8_2 1_555 1_555
O2_2 C21_2 1_555 1_555
C2_2 Au1_2 1_555 1_555
C3_2 N3_2 1_555 1_555
O3_2 C20_2 1_555 1_555
N7_2 H1_2 1_555 1_555
N8_2 H2_2 1_555 1_555
C4_2 N4_2 1_555 1_555
H3_2 C4_2 1_555 1_555
N9_2 H4_2 1_555 1_555
C5_2 H5_2 1_555 1_555
C6_2 N4_2 1_555 1_555
H6_2 C6_2 1_555 1_555
C7_2 C6_2 1_555 1_555
H7_2 C7_2 1_555 1_555
C8_2 H8_2 1_555 1_555
C9_2 N9_2 1_555 1_555
C10_2 H9_2 1_555 1_555
C11_2 H10_2 1_555 1_555
C12_2 N7_2 1_555 1_555
C13_2 C4_2 1_555 1_555
H11_2 C13_2 1_555 1_555
C14_2 N7_2 1_555 1_555
C15_2 C5_2 1_555 1_555
C16_2 N8_2 1_555 1_555
C17_2 C16_2 1_555 1_555
H12_2 C17_2 1_555 1_555
C18_2 C9_2 1_555 1_555
H13_2 C18_2 1_555 1_555
C19_2 N12 1_555 1_555
H14_2 C19_2 1_555 1_555
C20_2 N9_2 1_555 1_555
C21_2 N8_2 1_555 1_555
C22_2 C5_2 1_555 1_555
C23_2 C9_2 1_555 1_555
H15_2 C23_2 1_555 1_555
C24_2 C22_2 1_555 1_555
H16_2 C24_2 1_555 1_555
C25_2 C11_2 1_555 1_555
C26_2 C8_2 1_555 1_555
H17_2 C26_2 1_555 1_555
C27_2 N6_2 1_555 1_555
H18_2 C27_2 1_555 1_555
C28_2 Au2_2 1_555 1_555
N10_2 C28_2 1_555 1_555
Fe4_2 N6_2 1_555 1_555
N13_2 Fe3 1_555 1_555
C7_2 C12_2 1_555 1_555
C10_2 C18_2 1_555 1_555
C11_2 C15_2 1_555 1_555
C12_2 C13_2 1_555 1_555
C14_2 C15_2 1_555 1_555
C16_2 C26_2 1_555 1_555
C17_2 C27_2 1_555 1_555
C19_2 C23_2 1_555 1_555
C20_2 C22_2 1_555 1_555
C21_2 C25_2 1_555 1_555
C24_2 C25_2 1_555 1_555
N5_2 C10_3 1_555 1_555
O3_3 C20_3 1_555 1_555
N9_3 H4_3 1_555 1_555
C9_3 N9_3 1_555 1_555
C10_3 H9_3 1_555 1_555
C18_3 C9_3 1_555 1_555
H13_3 C18_3 1_555 1_555
C19_3 N5_2 1_555 1_555
H14_3 C19_3 1_555 1_555
C20_3 N9_3 1_555 1_555
C23_3 C9_3 1_555 1_555
H15_3 C23_3 1_555 1_555
Fe4_2 N5_2 1_555 1_555
C10_3 C18_3 1_555 1_555
C19_3 C23_3 1_555 1_555
Fe4 N1_3 1_555 1_555
N3_3 Fe4 1_555 1_555
N4_3 Fe4 1_555 1_555
C3_3 N3_3 1_555 1_555
C4_3 N4_3 1_555 1_555
H3_3 C4_3 1_555 1_555
N11 Fe4 1_555 1_555
N12_2 Fe4 1_555 1_555
O1_3 C14_3 1_555 1_555
N13 C8_3 1_555 1_555
O2_3 C21_3 1_555 1_555
N7_3 H1_3 1_555 1_555
N8_3 H2_3 1_555 1_555
C5_3 H5_3 1_555 1_555
C7_3 C6_3 1_555 1_555
H7_3 C7_3 1_555 1_555
C8_3 H8_3 1_555 1_555
C11_3 H10_3 1_555 1_555
C12_3 N7_3 1_555 1_555
H11_3 C13_3 1_555 1_555
C14_3 N7_3 1_555 1_555
C15_3 C5_3 1_555 1_555
C16_3 N8_3 1_555 1_555
C17_3 C16_3 1_555 1_555
H12_3 C17_3 1_555 1_555
C21_3 N8_3 1_555 1_555
C22_3 C5_3 1_555 1_555
C24_3 C22_3 1_555 1_555
H16_3 C24_3 1_555 1_555
C25_3 C11_3 1_555 1_555
C26_3 C8_3 1_555 1_555
H17_3 C26_3 1_555 1_555
C27_3 N13 1_555 1_555
H18_3 C27_3 1_555 1_555
C28_3 Au2_3 1_555 1_555
N10_3 C28_3 1_555 1_555
C7_3 C12_3 1_555 1_555
C11_3 C15_3 1_555 1_555
C12_3 C13_3 1_555 1_555
C14_3 C15_3 1_555 1_555
C16_3 C26_3 1_555 1_555
C17_3 C27_3 1_555 1_555
C21_3 C25_3 1_555 1_555
C24_3 C25_3 1_555 1_555
Au1_3 C1_3 1_555 1_555
N11 C1_3 1_555 1_555
C2_3 Au1_3 1_555 1_555
O1_4 C14_4 1_555 1_555
N13_2 C8_4 1_555 1_555
O2_4 C21_4 1_555 1_555
N7_4 H1_4 1_555 1_555
N8_4 H2_4 1_555 1_555
C5_4 H5_4 1_555 1_555
C7_4 C6_4 1_555 1_555
H7_4 C7_4 1_555 1_555
C8_4 H8_4 1_555 1_555
C11_4 H10_4 1_555 1_555
C12_4 N7_4 1_555 1_555
H11_4 C13_4 1_555 1_555
C14_4 N7_4 1_555 1_555
C15_4 C5_4 1_555 1_555
C16_4 N8_4 1_555 1_555
C17_4 C16_4 1_555 1_555
H12_4 C17_4 1_555 1_555
C21_4 N8_4 1_555 1_555
C22_4 C5_4 1_555 1_555
C24_4 C22_4 1_555 1_555
H16_4 C24_4 1_555 1_555
C25_4 C11_4 1_555 1_555
C26_4 C8_4 1_555 1_555
H17_4 C26_4 1_555 1_555
C27_4 N13_2 1_555 1_555
H18_4 C27_4 1_555 1_555
C28_4 Au2_4 1_555 1_555
N10_4 C28_4 1_555 1_555
C7_4 C12_4 1_555 1_555
C11_4 C15_4 1_555 1_555
C12_4 C13_4 1_555 1_555
C14_4 C15_4 1_555 1_555
C16_4 C26_4 1_555 1_555
C17_4 C27_4 1_555 1_555
C21_4 C25_4 1_555 1_555
C24_4 C25_4 1_555 1_555
Fe4_2 N1_4 1_555 1_555
N3_4 Fe4_2 1_555 1_555
N4_4 Fe4_2 1_555 1_555
C3_4 N3_4 1_555 1_555
C4_4 N4_4 1_555 1_555
H3_4 C4_4 1_555 1_555
N11_2 Fe4_2 1_555 1_555
N12_2 C10_4 1_555 1_555
O3_4 C20_4 1_555 1_555
N9_4 H4_4 1_555 1_555
C9_4 N9_4 1_555 1_555
C10_4 H9_4 1_555 1_555
C18_4 C9_4 1_555 1_555
H13_4 C18_4 1_555 1_555
C19_4 N12_2 1_555 1_555
H14_4 C19_4 1_555 1_555
C20_4 N9_4 1_555 1_555
C23_4 C9_4 1_555 1_555
H15_4 C23_4 1_555 1_555
C10_4 C18_4 1_555 1_555
C19_4 C23_4 1_555 1_555
Au1_4 C1_4 1_555 1_555
N11_2 C1_4 1_555 1_555
C2_4 Au1_4 1_555 1_555
Au1_5 C1_5 1_555 1_555
Fe1 N1_5 1_555 1_555
N1_5 C2_5 1_555 1_555
N3_5 Fe1 1_555 1_555
N4_5 Fe1 1_555 1_555
C2_5 Au1_5 1_555 1_555
C3_5 N3_5 1_555 1_555
C4_5 N4_5 1_555 1_555
H3_5 C4_5 1_555 1_555
N11_3 Fe1 1_555 1_555
N12_3 Fe1 1_555 1_555
N13_3 Fe1 1_555 1_555
O1_5 C14_5 1_555 1_555
N5_3 C10_5 1_555 1_555
N6_3 C8_5 1_555 1_555
O2_5 C21_5 1_555 1_555
O3_5 C20_5 1_555 1_555
N7_5 H1_5 1_555 1_555
N8_5 H2_5 1_555 1_555
N9_5 H4_5 1_555 1_555
C5_5 H5_5 1_555 1_555
C7_5 C6_5 1_555 1_555
H7_5 C7_5 1_555 1_555
C8_5 H8_5 1_555 1_555
C9_5 N9_5 1_555 1_555
C10_5 H9_5 1_555 1_555
C11_5 H10_5 1_555 1_555
C12_5 N7_5 1_555 1_555
H11_5 C13_5 1_555 1_555
C14_5 N7_5 1_555 1_555
C15_5 C5_5 1_555 1_555
C16_5 N8_5 1_555 1_555
C17_5 C16_5 1_555 1_555
H12_5 C17_5 1_555 1_555
C18_5 C9_5 1_555 1_555
H13_5 C18_5 1_555 1_555
C19_5 N5_3 1_555 1_555
H14_5 C19_5 1_555 1_555
C20_5 N9_5 1_555 1_555
C21_5 N8_5 1_555 1_555
C22_5 C5_5 1_555 1_555
C23_5 C9_5 1_555 1_555
H15_5 C23_5 1_555 1_555
C24_5 C22_5 1_555 1_555
H16_5 C24_5 1_555 1_555
C25_5 C11_5 1_555 1_555
C26_5 C8_5 1_555 1_555
H17_5 C26_5 1_555 1_555
C27_5 N6_3 1_555 1_555
H18_5 C27_5 1_555 1_555
C28_5 Au2_5 1_555 1_555
N10_5 C28_5 1_555 1_555
Fe3_2 N5_3 1_555 1_555
Fe4_3 N6_3 1_555 1_555
C7_5 C12_5 1_555 1_555
C10_5 C18_5 1_555 1_555
C11_5 C15_5 1_555 1_555
C12_5 C13_5 1_555 1_555
C14_5 C15_5 1_555 1_555
C16_5 C26_5 1_555 1_555
C17_5 C27_5 1_555 1_555
C19_5 C23_5 1_555 1_555
C20_5 C22_5 1_555 1_555
C21_5 C25_5 1_555 1_555
C24_5 C25_5 1_555 1_555
O1_6 C14_6 1_555 1_555
N12_3 C10_6 1_555 1_555
N6_4 C8_6 1_555 1_555
O2_6 C21_6 1_555 1_555
O3_6 C20_6 1_555 1_555
N7_6 H1_6 1_555 1_555
N8_6 H2_6 1_555 1_555
N9_6 H4_6 1_555 1_555
C5_6 H5_6 1_555 1_555
C7_6 C6_6 1_555 1_555
H7_6 C7_6 1_555 1_555
C8_6 H8_6 1_555 1_555
C9_6 N9_6 1_555 1_555
C10_6 H9_6 1_555 1_555
C11_6 H10_6 1_555 1_555
C12_6 N7_6 1_555 1_555
H11_6 C13_6 1_555 1_555
C14_6 N7_6 1_555 1_555
C15_6 C5_6 1_555 1_555
C16_6 N8_6 1_555 1_555
C17_6 C16_6 1_555 1_555
H12_6 C17_6 1_555 1_555
C18_6 C9_6 1_555 1_555
H13_6 C18_6 1_555 1_555
C19_6 N12_3 1_555 1_555
H14_6 C19_6 1_555 1_555
C20_6 N9_6 1_555 1_555
C21_6 N8_6 1_555 1_555
C22_6 C5_6 1_555 1_555
C23_6 C9_6 1_555 1_555
H15_6 C23_6 1_555 1_555
C24_6 C22_6 1_555 1_555
H16_6 C24_6 1_555 1_555
C25_6 C11_6 1_555 1_555
C26_6 C8_6 1_555 1_555
H17_6 C26_6 1_555 1_555
C27_6 N6_4 1_555 1_555
H18_6 C27_6 1_555 1_555
C28_6 Au2_6 1_555 1_555
N10_6 C28_6 1_555 1_555
Fe4_4 N6_4 1_555 1_555
C7_6 C12_6 1_555 1_555
C10_6 C18_6 1_555 1_555
C11_6 C15_6 1_555 1_555
C12_6 C13_6 1_555 1_555
C14_6 C15_6 1_555 1_555
C16_6 C26_6 1_555 1_555
C17_6 C27_6 1_555 1_555
C19_6 C23_6 1_555 1_555
C20_6 C22_6 1_555 1_555
C21_6 C25_6 1_555 1_555
C24_6 C25_6 1_555 1_555
Au1_6 C1_6 1_555 1_555
Fe3_2 N1_6 1_555 1_555
N1_6 C2_6 1_555 1_555
N3_6 Fe3_2 1_555 1_555
N4_6 Fe3_2 1_555 1_555
C2_6 Au1_6 1_555 1_555
C3_6 N3_6 1_555 1_555
C4_6 N4_6 1_555 1_555
H3_6 C4_6 1_555 1_555
N11_4 Fe3_2 1_555 1_555
N13_4 Fe3_2 1_555 1_555
Au1_7 C1_7 1_555 1_555
N2_3 C1_7 1_555 1_555
C2_7 Au1_7 1_555 1_555
Fe4_3 N2_3 1_555 1_555
Au2_7 C3_7 1_555 1_555
Fe4_3 N1_7 1_555 1_555
N3_7 Fe4_3 1_555 1_555
N4_7 Fe4_3 1_555 1_555
O1_7 C14_7 1_555 1_555
N13_3 C8_7 1_555 1_555
O2_7 C21_7 1_555 1_555
C3_7 N3_7 1_555 1_555
N7_7 H1_7 1_555 1_555
N8_7 H2_7 1_555 1_555
C4_7 N4_7 1_555 1_555
H3_7 C4_7 1_555 1_555
C5_7 H5_7 1_555 1_555
C6_7 N4_7 1_555 1_555
H6_7 C6_7 1_555 1_555
C7_7 C6_7 1_555 1_555
H7_7 C7_7 1_555 1_555
C8_7 H8_7 1_555 1_555
C11_7 H10_7 1_555 1_555
C12_7 N7_7 1_555 1_555
C13_7 C4_7 1_555 1_555
H11_7 C13_7 1_555 1_555
C14_7 N7_7 1_555 1_555
C15_7 C5_7 1_555 1_555
C16_7 N8_7 1_555 1_555
C17_7 C16_7 1_555 1_555
H12_7 C17_7 1_555 1_555
C21_7 N8_7 1_555 1_555
C22_7 C5_7 1_555 1_555
C24_7 C22_7 1_555 1_555
H16_7 C24_7 1_555 1_555
C25_7 C11_7 1_555 1_555
C26_7 C8_7 1_555 1_555
H17_7 C26_7 1_555 1_555
C27_7 N13_3 1_555 1_555
H18_7 C27_7 1_555 1_555
C28_7 Au2_7 1_555 1_555
N10_7 C28_7 1_555 1_555
N12_4 Fe4_3 1_555 1_555
C7_7 C12_7 1_555 1_555
C11_7 C15_7 1_555 1_555
C12_7 C13_7 1_555 1_555
C14_7 C15_7 1_555 1_555
C16_7 C26_7 1_555 1_555
C17_7 C27_7 1_555 1_555
C21_7 C25_7 1_555 1_555
C24_7 C25_7 1_555 1_555
N5_4 C10_7 1_555 1_555
O3_7 C20_7 1_555 1_555
N9_7 H4_7 1_555 1_555
C9_7 N9_7 1_555 1_555
C10_7 H9_7 1_555 1_555
C18_7 C9_7 1_555 1_555
H13_7 C18_7 1_555 1_555
C19_7 N5_4 1_555 1_555
H14_7 C19_7 1_555 1_555
C20_7 N9_7 1_555 1_555
C23_7 C9_7 1_555 1_555
H15_7 C23_7 1_555 1_555
Fe4_4 N5_4 1_555 1_555
C10_7 C18_7 1_555 1_555
C19_7 C23_7 1_555 1_555
Au1_8 C1_8 1_555 1_555
N2_4 C1_8 1_555 1_555
C2_8 Au1_8 1_555 1_555
Fe4_4 N2_4 1_555 1_555
N12_4 C10_8 1_555 1_555
O3_8 C20_8 1_555 1_555
N9_8 H4_8 1_555 1_555
C9_8 N9_8 1_555 1_555
C10_8 H9_8 1_555 1_555
C18_8 C9_8 1_555 1_555
H13_8 C18_8 1_555 1_555
C19_8 N12_4 1_555 1_555
H14_8 C19_8 1_555 1_555
C20_8 N9_8 1_555 1_555
C23_8 C9_8 1_555 1_555
H15_8 C23_8 1_555 1_555
C10_8 C18_8 1_555 1_555
C19_8 C23_8 1_555 1_555
Au2_8 C3_8 1_555 1_555
Fe4_4 N1_8 1_555 1_555
N3_8 Fe4_4 1_555 1_555
N4_8 Fe4_4 1_555 1_555
O1_8 C14_8 1_555 1_555
N13_4 C8_8 1_555 1_555
O2_8 C21_8 1_555 1_555
C3_8 N3_8 1_555 1_555
N7_8 H1_8 1_555 1_555
N8_8 H2_8 1_555 1_555
C4_8 N4_8 1_555 1_555
H3_8 C4_8 1_555 1_555
C5_8 H5_8 1_555 1_555
C6_8 N4_8 1_555 1_555
H6_8 C6_8 1_555 1_555
C7_8 C6_8 1_555 1_555
H7_8 C7_8 1_555 1_555
C8_8 H8_8 1_555 1_555
C11_8 H10_8 1_555 1_555
C12_8 N7_8 1_555 1_555
C13_8 C4_8 1_555 1_555
H11_8 C13_8 1_555 1_555
C14_8 N7_8 1_555 1_555
C15_8 C5_8 1_555 1_555
C16_8 N8_8 1_555 1_555
C17_8 C16_8 1_555 1_555
H12_8 C17_8 1_555 1_555
C21_8 N8_8 1_555 1_555
C22_8 C5_8 1_555 1_555
C24_8 C22_8 1_555 1_555
H16_8 C24_8 1_555 1_555
C25_8 C11_8 1_555 1_555
C26_8 C8_8 1_555 1_555
H17_8 C26_8 1_555 1_555
C27_8 N13_4 1_555 1_555
H18_8 C27_8 1_555 1_555
C28_8 Au2_8 1_555 1_555
N10_8 C28_8 1_555 1_555
C7_8 C12_8 1_555 1_555
C11_8 C15_8 1_555 1_555
C12_8 C13_8 1_555 1_555
C14_8 C15_8 1_555 1_555
C16_8 C26_8 1_555 1_555
C17_8 C27_8 1_555 1_555
C21_8 C25_8 1_555 1_555
C24_8 C25_8 1_555 1_555

#END
