
###############################################################################
#
# This file contains modified crystal structure data generated from the
# MOF subset of the Cambridge Structural Database (CSD) v543 
# hosted by the Cambridge Crystallographic Data Centre (CCDC).
#
# This work is licensed under the Creative Commons
# Attribution-NonCommercial-ShareAlike 4.0 International License.
# To view a copy of this license, visit
# http://creativecommons.org/licenses/by-nc-sa/4.0/
# or send a letter to
# Creative Commons, PO Box 1866, Mountain View, CA 94042, USA.
#
# CIF created using the CSD Python API on 29 September 2022
# The structure has been converted into the P1 space group
# The structure has a 3D framework
# The original CSD entry WAMCAS11 is in the orthorhombic crystal system
# The original CSD entry WAMCAS11 is in a Sohncke space group
# The framework has been calculated to contain at least 10.0% void space
# The void calculation uses a probe of radius 1.32A, grid spacing 0.4
#
###############################################################################

data_WAMCAS11
_chemical_formula_moiety         '(C224 H144 Au16 Fe8 N76 O24)n'
_symmetry_cell_setting           triclinic
_symmetry_space_group_name_H-M   'P 1'
_symmetry_Int_Tables_number      1
_space_group_name_Hall           'P 1'
loop_
_symmetry_equiv_pos_site_id
_symmetry_equiv_pos_as_xyz
1 x,y,z
_cell_length_a                   10.104(2)
_cell_length_b                   30.250(6)
_cell_length_c                   33.535(7)
_cell_angle_alpha                90
_cell_angle_beta                 90
_cell_angle_gamma                90
_cell_volume                     10249.8
loop_
_atom_site_label
_atom_site_type_symbol
_atom_site_fract_x
_atom_site_fract_y
_atom_site_fract_z
N2 N 0.0506(6) 0.72532(19) 0.58089(19)
Fe2 Fe 0.24188(9) 0.71914(3) 0.57952(3)
Au1 Au 0.74221(2) 0.71838(2) 0.57837(2)
Au2 Au 0.28727(4) 0.85409(2) 0.49104(2)
N1 N 0.4337(6) 0.71369(19) 0.57882(18)
N3 N 0.2584(6) 0.77392(19) 0.54924(18)
N4 N 0.2314(7) 0.68715(18) 0.52680(18)
O1 O 0.1273(7) 0.67376(19) 0.37867(18)
N5 N 0.2207(7) 0.33872(19) 0.39230(18)
N6 N 0.2432(7) 0.74722(18) 0.13116(17)
C1 C 0.9378(8) 0.7242(2) 0.5801(2)
O2 O 0.1447(8) 0.6033(2) 0.20562(19)
C2 C 0.5462(8) 0.7138(2) 0.5784(2)
C3 C 0.2665(9) 0.8040(2) 0.5284(2)
O3 O 0.3063(12) 0.4689(2) 0.2913(2)
N7 N 0.2151(8) 0.6197(2) 0.41756(19)
H1 H 0.244332 0.592259 0.417879
N8 N 0.2262(8) 0.6665(2) 0.23328(19)
H2 H 0.253753 0.678377 0.255773
C4 C 0.3102(9) 0.6533(2) 0.5181(2)
H3 H 0.371404 0.643732 0.537811
N9 N 0.1721(11) 0.4665(2) 0.3461(3)
H4 H 0.112237 0.482178 0.358857
C5 C 0.1979(10) 0.5610(2) 0.3491(2)
H5 H 0.201864 0.546829 0.374370
C6 C 0.1432(8) 0.6988(2) 0.4988(2)
H6 H 0.085317 0.722747 0.504429
C7 C 0.1316(8) 0.6784(2) 0.4624(2)
H7 H 0.066813 0.687661 0.443625
C8 C 0.1572(7) 0.7134(2) 0.1335(2)
H8 H 0.099082 0.708523 0.111690
C9 C 0.1914(11) 0.4229(2) 0.3591(2)
C10 C 0.3008(9) 0.3531(2) 0.3628(2)
H9 H 0.369543 0.334033 0.353856
C11 C 0.1737(8) 0.6268(2) 0.3098(2)
H10 H 0.159288 0.657817 0.308362
C12 C 0.2177(8) 0.6434(2) 0.4536(2)
C13 C 0.3082(9) 0.6312(3) 0.4822(2)
H11 H 0.368633 0.607734 0.477242
C14 C 0.1701(8) 0.6361(2) 0.3820(2)
C15 C 0.1799(8) 0.6063(2) 0.3469(2)
C16 C 0.2281(8) 0.6932(2) 0.1990(2)
C17 C 0.3119(9) 0.7296(2) 0.1980(2)
H12 H 0.364796 0.736925 0.220438
C18 C 0.2881(12) 0.3940(3) 0.3448(3)
H13 H 0.343852 0.402209 0.323261
C19 C 0.1273(9) 0.3670(3) 0.4049(3)
H14 H 0.069986 0.357638 0.425703
C20 C 0.2374(13) 0.4872(2) 0.3153(3)
C21 C 0.1849(8) 0.6236(2) 0.2343(2)
C22 C 0.2102(12) 0.5363(2) 0.3142(2)
C23 C 0.1094(10) 0.4088(2) 0.3896(3)
H15 H 0.041985 0.427528 0.399814
C24 C 0.2084(11) 0.5568(3) 0.2768(2)
H16 H 0.220565 0.539850 0.253227
C25 C 0.1884(9) 0.6025(2) 0.2744(2)
C26 C 0.1484(8) 0.6852(3) 0.1660(2)
H17 H 0.088894 0.660923 0.165681
C27 C 0.3175(8) 0.7555(2) 0.1633(2)
H18 H 0.376538 0.779919 0.162652
C28 C 0.3131(15) 0.9064(4) 0.4565(4)
N10 N 0.3293(19) 0.9367(4) 0.4369(4)
Fe3 Fe 0.24188(9) 0.28086(3) 0.42048(3)
Fe4 Fe 0.25812(9) 0.78086(3) 0.07952(3)
N12 N 0.2207(7) 0.66128(19) 0.60770(18)
N13 N 0.2568(7) 0.75278(18) 0.63116(17)
N2_2 N 0.0506(6) 0.27468(19) 0.41911(19)
Au1_2 Au 0.74221(2) 0.28162(2) 0.42163(2)
Au2_2 Au 0.28727(4) 0.14591(2) 0.50896(2)
N1_2 N 0.4337(6) 0.28631(19) 0.42118(18)
N3_2 N 0.2584(6) 0.22608(19) 0.45076(18)
N4_2 N 0.2314(7) 0.31285(18) 0.47320(18)
O1_2 O 0.1273(7) 0.32624(19) 0.62133(18)
N6_2 N 0.2432(7) 0.25278(18) 0.86884(17)
C1_2 C 0.9378(8) 0.2758(2) 0.4199(2)
O2_2 O 0.1447(8) 0.3967(2) 0.79438(19)
C2_2 C 0.5462(8) 0.2862(2) 0.4216(2)
C3_2 C 0.2665(9) 0.1960(2) 0.4716(2)
O3_2 O 0.3063(12) 0.5311(2) 0.7087(2)
N7_2 N 0.2151(8) 0.3803(2) 0.58244(19)
H1_2 H 0.244332 0.407741 0.582121
N8_2 N 0.2262(8) 0.3335(2) 0.76672(19)
H2_2 H 0.253753 0.321623 0.744227
C4_2 C 0.3102(9) 0.3467(2) 0.4819(2)
H3_2 H 0.371404 0.356268 0.462189
N9_2 N 0.1721(11) 0.5335(2) 0.6539(3)
H4_2 H 0.112237 0.517822 0.641143
C5_2 C 0.1979(10) 0.4390(2) 0.6509(2)
H5_2 H 0.201864 0.453171 0.625630
C6_2 C 0.1432(8) 0.3012(2) 0.5012(2)
H6_2 H 0.085317 0.277253 0.495571
C7_2 C 0.1316(8) 0.3216(2) 0.5376(2)
H7_2 H 0.066813 0.312339 0.556375
C8_2 C 0.1572(7) 0.2866(2) 0.8665(2)
H8_2 H 0.099082 0.291477 0.888310
C9_2 C 0.1914(11) 0.5771(2) 0.6409(2)
C10_2 C 0.3008(9) 0.6469(2) 0.6372(2)
H9_2 H 0.369543 0.665967 0.646144
C11_2 C 0.1737(8) 0.3732(2) 0.6902(2)
H10_2 H 0.159288 0.342183 0.691638
C12_2 C 0.2177(8) 0.3566(2) 0.5464(2)
C13_2 C 0.3082(9) 0.3688(3) 0.5178(2)
H11_2 H 0.368633 0.392266 0.522758
C14_2 C 0.1701(8) 0.3639(2) 0.6180(2)
C15_2 C 0.1799(8) 0.3937(2) 0.6531(2)
C16_2 C 0.2281(8) 0.3068(2) 0.8010(2)
C17_2 C 0.3119(9) 0.2704(2) 0.8020(2)
H12_2 H 0.364796 0.263075 0.779562
C18_2 C 0.2881(12) 0.6060(3) 0.6552(3)
H13_2 H 0.343852 0.597791 0.676739
C19_2 C 0.1273(9) 0.6330(3) 0.5951(3)
H14_2 H 0.069986 0.642362 0.574297
C20_2 C 0.2374(13) 0.5128(2) 0.6847(3)
C21_2 C 0.1849(8) 0.3764(2) 0.7657(2)
C22_2 C 0.2102(12) 0.4637(2) 0.6858(2)
C23_2 C 0.1094(10) 0.5912(2) 0.6104(3)
H15_2 H 0.041985 0.572472 0.600186
C24_2 C 0.2084(11) 0.4432(3) 0.7232(2)
H16_2 H 0.220565 0.460150 0.746773
C25_2 C 0.1884(9) 0.3975(2) 0.7256(2)
C26_2 C 0.1484(8) 0.3148(3) 0.8340(2)
H17_2 H 0.088894 0.339077 0.834319
C27_2 C 0.3175(8) 0.2445(2) 0.8367(2)
H18_2 H 0.376538 0.220081 0.837348
C28_2 C 0.3131(15) 0.0936(4) 0.5435(4)
N10_2 N 0.3293(19) 0.0633(4) 0.5631(4)
Fe4_2 Fe 0.25812(9) 0.21914(3) 0.92048(3)
N13_2 N 0.2568(7) 0.24722(18) 0.36884(17)
N5_2 N 0.2793(7) 0.16128(19) 0.89230(18)
O3_3 O 0.1937(12) 0.0311(2) 0.7913(2)
N9_3 N 0.3279(11) 0.0335(2) 0.8461(3)
H4_3 H 0.387763 0.017822 0.858857
C9_3 C 0.3086(11) 0.0771(2) 0.8591(2)
C10_3 C 0.1992(9) 0.1469(2) 0.8628(2)
H9_3 H 0.130457 0.165967 0.853856
C18_3 C 0.2119(12) 0.1060(3) 0.8448(3)
H13_3 H 0.156148 0.097791 0.823261
C19_3 C 0.3727(9) 0.1330(3) 0.9049(3)
H14_3 H 0.430014 0.142362 0.925703
C20_3 C 0.2626(13) 0.0128(2) 0.8153(3)
C23_3 C 0.3906(10) 0.0912(2) 0.8896(3)
H15_3 H 0.458015 0.072472 0.899814
N1_3 N 0.0663(6) 0.78631(19) 0.07882(18)
N3_3 N 0.2416(6) 0.72608(19) 0.04924(18)
N4_3 N 0.2686(7) 0.81285(18) 0.02680(18)
C3_3 C 0.2335(9) 0.6960(2) 0.0284(2)
C4_3 C 0.1898(9) 0.8467(2) 0.0181(2)
H3_3 H 0.128596 0.856268 0.037811
H6_3 H 0.414683 0.777253 0.004429
N11 N 0.4494(6) 0.77468(19) 0.08089(19)
N12_2 N 0.2793(7) 0.83872(19) 0.10770(18)
Au2_3 Au 0.21273(4) 0.64591(2) 0.99104(2)
O1_3 O 0.3727(7) 0.82624(19) 0.87867(18)
O2_3 O 0.3553(8) 0.8967(2) 0.70562(19)
N7_3 N 0.2849(8) 0.8803(2) 0.91756(19)
H1_3 H 0.255668 0.907741 0.917879
N8_3 N 0.2738(8) 0.8335(2) 0.73328(19)
H2_3 H 0.246247 0.821623 0.755773
C5_3 C 0.3021(10) 0.9390(2) 0.8491(2)
H5_3 H 0.298136 0.953171 0.874370
C6_3 C 0.3568(8) 0.8012(2) 0.9988(2)
C7_3 C 0.3684(8) 0.8216(2) 0.9624(2)
H7_3 H 0.433187 0.812339 0.943625
C8_3 C 0.3428(7) 0.7866(2) 0.6335(2)
H8_3 H 0.400918 0.791477 0.611690
C11_3 C 0.3263(8) 0.8732(2) 0.8098(2)
H10_3 H 0.340712 0.842183 0.808362
C12_3 C 0.2823(8) 0.8566(2) 0.9536(2)
C13_3 C 0.1918(9) 0.8688(3) 0.9822(2)
H11_3 H 0.131367 0.892266 0.977242
C14_3 C 0.3299(8) 0.8639(2) 0.8820(2)
C15_3 C 0.3201(8) 0.8937(2) 0.8469(2)
C16_3 C 0.2719(8) 0.8068(2) 0.6990(2)
C17_3 C 0.1881(9) 0.7704(2) 0.6980(2)
H12_3 H 0.135204 0.763075 0.720438
C21_3 C 0.3151(8) 0.8764(2) 0.7343(2)
C22_3 C 0.2898(12) 0.9637(2) 0.8142(2)
C24_3 C 0.2916(11) 0.9432(3) 0.7768(2)
H16_3 H 0.279435 0.960150 0.753227
C25_3 C 0.3116(9) 0.8975(2) 0.7744(2)
C26_3 C 0.3516(8) 0.8148(3) 0.6660(2)
H17_3 H 0.411106 0.839077 0.665681
C27_3 C 0.1825(8) 0.7445(2) 0.6633(2)
H18_3 H 0.123462 0.720081 0.662652
C28_3 C 0.1869(15) 0.5936(4) 0.9565(4)
N10_3 N 0.1707(19) 0.5633(4) 0.9369(4)
Au1_3 Au 0.75779(2) 0.78162(2) 0.07837(2)
C1_3 C 0.5622(8) 0.7758(2) 0.0801(2)
C2_3 C 0.9538(8) 0.7862(2) 0.0784(2)
Au2_4 Au 0.21273(4) 0.35409(2) 0.00896(2)
O1_4 O 0.3727(7) 0.17376(19) 0.12133(18)
O2_4 O 0.3553(8) 0.1033(2) 0.29438(19)
N7_4 N 0.2849(8) 0.1197(2) 0.08244(19)
H1_4 H 0.255668 0.092259 0.082121
N8_4 N 0.2738(8) 0.1665(2) 0.26672(19)
H2_4 H 0.246247 0.178377 0.244227
C5_4 C 0.3021(10) 0.0610(2) 0.1509(2)
H5_4 H 0.298136 0.046829 0.125630
C6_4 C 0.3568(8) 0.1988(2) 0.0012(2)
C7_4 C 0.3684(8) 0.1784(2) 0.0376(2)
H7_4 H 0.433187 0.187661 0.056375
C8_4 C 0.3428(7) 0.2134(2) 0.3665(2)
H8_4 H 0.400918 0.208523 0.388310
C11_4 C 0.3263(8) 0.1268(2) 0.1902(2)
H10_4 H 0.340712 0.157817 0.191638
C12_4 C 0.2823(8) 0.1434(2) 0.0464(2)
C13_4 C 0.1918(9) 0.1312(3) 0.0178(2)
H11_4 H 0.131367 0.107734 0.022758
C14_4 C 0.3299(8) 0.1361(2) 0.1180(2)
C15_4 C 0.3201(8) 0.1063(2) 0.1531(2)
C16_4 C 0.2719(8) 0.1932(2) 0.3010(2)
C17_4 C 0.1881(9) 0.2296(2) 0.3020(2)
H12_4 H 0.135204 0.236925 0.279562
C21_4 C 0.3151(8) 0.1236(2) 0.2657(2)
C22_4 C 0.2898(12) 0.0363(2) 0.1858(2)
C24_4 C 0.2916(11) 0.0568(3) 0.2232(2)
H16_4 H 0.279435 0.039850 0.246773
C25_4 C 0.3116(9) 0.1025(2) 0.2256(2)
C26_4 C 0.3516(8) 0.1852(3) 0.3340(2)
H17_4 H 0.411106 0.160923 0.334319
C27_4 C 0.1825(8) 0.2555(2) 0.3367(2)
H18_4 H 0.123462 0.279919 0.337348
C28_4 C 0.1869(15) 0.4064(4) 0.0435(4)
N10_4 N 0.1707(19) 0.4367(4) 0.0631(4)
N1_4 N 0.0663(6) 0.21369(19) 0.92118(18)
N3_4 N 0.2416(6) 0.27392(19) 0.95076(18)
N4_4 N 0.2686(7) 0.18715(18) 0.97320(18)
C3_4 C 0.2335(9) 0.3040(2) 0.9716(2)
C4_4 C 0.1898(9) 0.1533(2) 0.9819(2)
H3_4 H 0.128596 0.143732 0.962189
H6_4 H 0.414683 0.222747 0.995571
N11_2 N 0.4494(6) 0.22532(19) 0.91911(19)
O3_4 O 0.1937(12) 0.9689(2) 0.2087(2)
N9_4 N 0.3279(11) 0.9665(2) 0.1539(3)
H4_4 H 0.387763 0.982178 0.141143
C9_4 C 0.3086(11) 0.9229(2) 0.1409(2)
C10_4 C 0.1992(9) 0.8531(2) 0.1372(2)
H9_4 H 0.130457 0.834033 0.146144
C18_4 C 0.2119(12) 0.8940(3) 0.1552(3)
H13_4 H 0.156148 0.902209 0.176739
C19_4 C 0.3727(9) 0.8670(3) 0.0951(3)
H14_4 H 0.430014 0.857638 0.074297
C20_4 C 0.2626(13) 0.9872(2) 0.1847(3)
C23_4 C 0.3906(10) 0.9088(2) 0.1104(3)
H15_4 H 0.458015 0.927528 0.100186
Au1_4 Au 0.75779(2) 0.21838(2) 0.92163(2)
C1_4 C 0.5622(8) 0.2242(2) 0.9199(2)
C2_4 C 0.9538(8) 0.2138(2) 0.9216(2)
Au1_5 Au 0.25779(2) 0.28162(2) 0.07837(2)
Fe1 Fe 0.75812(9) 0.28086(3) 0.07952(3)
N1_5 N 0.5663(6) 0.28631(19) 0.07882(18)
N3_5 N 0.7416(6) 0.22608(19) 0.04924(18)
N4_5 N 0.7686(7) 0.31285(18) 0.02680(18)
C1_5 C 0.0622(8) 0.2758(2) 0.0801(2)
C2_5 C 0.4538(8) 0.2862(2) 0.0784(2)
C3_5 C 0.7335(9) 0.1960(2) 0.0284(2)
C4_5 C 0.6898(9) 0.3467(2) 0.0181(2)
H3_5 H 0.628596 0.356268 0.037811
H6_5 H 0.914683 0.277253 0.004429
N11_3 N 0.9494(6) 0.27468(19) 0.08089(19)
N12_3 N 0.7793(7) 0.33872(19) 0.10770(18)
N13_3 N 0.7432(7) 0.24722(18) 0.13116(17)
Au2_5 Au 0.71273(4) 0.14591(2) 0.99104(2)
O1_5 O 0.8727(7) 0.32624(19) 0.87867(18)
N5_3 N 0.7793(7) 0.66128(19) 0.89230(18)
N6_3 N 0.7568(7) 0.25278(18) 0.63116(17)
O2_5 O 0.8553(8) 0.3967(2) 0.70562(19)
O3_5 O 0.6937(12) 0.5311(2) 0.7913(2)
N7_5 N 0.7849(8) 0.3803(2) 0.91756(19)
H1_5 H 0.755668 0.407741 0.917879
N8_5 N 0.7738(8) 0.3335(2) 0.73328(19)
H2_5 H 0.746247 0.321623 0.755773
N9_5 N 0.8279(11) 0.5335(2) 0.8461(3)
H4_5 H 0.887763 0.517822 0.858857
C5_5 C 0.8021(10) 0.4390(2) 0.8491(2)
H5_5 H 0.798136 0.453171 0.874370
C6_5 C 0.8568(8) 0.3012(2) 0.9988(2)
C7_5 C 0.8684(8) 0.3216(2) 0.9624(2)
H7_5 H 0.933187 0.312339 0.943625
C8_5 C 0.8428(7) 0.2866(2) 0.6335(2)
H8_5 H 0.900918 0.291477 0.611690
C9_5 C 0.8086(11) 0.5771(2) 0.8591(2)
C10_5 C 0.6992(9) 0.6469(2) 0.8628(2)
H9_5 H 0.630457 0.665967 0.853856
C11_5 C 0.8263(8) 0.3732(2) 0.8098(2)
H10_5 H 0.840712 0.342183 0.808362
C12_5 C 0.7823(8) 0.3566(2) 0.9536(2)
C13_5 C 0.6918(9) 0.3688(3) 0.9822(2)
H11_5 H 0.631367 0.392266 0.977242
C14_5 C 0.8299(8) 0.3639(2) 0.8820(2)
C15_5 C 0.8201(8) 0.3937(2) 0.8469(2)
C16_5 C 0.7719(8) 0.3068(2) 0.6990(2)
C17_5 C 0.6881(9) 0.2704(2) 0.6980(2)
H12_5 H 0.635204 0.263075 0.720438
C18_5 C 0.7119(12) 0.6060(3) 0.8448(3)
H13_5 H 0.656148 0.597791 0.823261
C19_5 C 0.8727(9) 0.6330(3) 0.9049(3)
H14_5 H 0.930014 0.642362 0.925703
C20_5 C 0.7626(13) 0.5128(2) 0.8153(3)
C21_5 C 0.8151(8) 0.3764(2) 0.7343(2)
C22_5 C 0.7898(12) 0.4637(2) 0.8142(2)
C23_5 C 0.8906(10) 0.5912(2) 0.8896(3)
H15_5 H 0.958015 0.572472 0.899814
C24_5 C 0.7916(11) 0.4432(3) 0.7768(2)
H16_5 H 0.779435 0.460150 0.753227
C25_5 C 0.8116(9) 0.3975(2) 0.7744(2)
C26_5 C 0.8516(8) 0.3148(3) 0.6660(2)
H17_5 H 0.911106 0.339077 0.665681
C27_5 C 0.6825(8) 0.2445(2) 0.6633(2)
H18_5 H 0.623462 0.220081 0.662652
C28_5 C 0.6869(15) 0.0936(4) 0.9565(4)
N10_5 N 0.6707(19) 0.0633(4) 0.9369(4)
Fe3_2 Fe 0.75812(9) 0.71914(3) 0.92048(3)
Fe4_3 Fe 0.74188(9) 0.21914(3) 0.57952(3)
Au2_6 Au 0.71273(4) 0.85409(2) 0.00896(2)
O1_6 O 0.8727(7) 0.67376(19) 0.12133(18)
N6_4 N 0.7568(7) 0.74722(18) 0.36884(17)
O2_6 O 0.8553(8) 0.6033(2) 0.29438(19)
O3_6 O 0.6937(12) 0.4689(2) 0.2087(2)
N7_6 N 0.7849(8) 0.6197(2) 0.08244(19)
H1_6 H 0.755668 0.592259 0.082121
N8_6 N 0.7738(8) 0.6665(2) 0.26672(19)
H2_6 H 0.746247 0.678377 0.244227
N9_6 N 0.8279(11) 0.4665(2) 0.1539(3)
H4_6 H 0.887763 0.482178 0.141143
C5_6 C 0.8021(10) 0.5610(2) 0.1509(2)
H5_6 H 0.798136 0.546829 0.125630
C6_6 C 0.8568(8) 0.6988(2) 0.0012(2)
C7_6 C 0.8684(8) 0.6784(2) 0.0376(2)
H7_6 H 0.933187 0.687661 0.056375
C8_6 C 0.8428(7) 0.7134(2) 0.3665(2)
H8_6 H 0.900918 0.708523 0.388310
C9_6 C 0.8086(11) 0.4229(2) 0.1409(2)
C10_6 C 0.6992(9) 0.3531(2) 0.1372(2)
H9_6 H 0.630457 0.334033 0.146144
C11_6 C 0.8263(8) 0.6268(2) 0.1902(2)
H10_6 H 0.840712 0.657817 0.191638
C12_6 C 0.7823(8) 0.6434(2) 0.0464(2)
C13_6 C 0.6918(9) 0.6312(3) 0.0178(2)
H11_6 H 0.631367 0.607734 0.022758
C14_6 C 0.8299(8) 0.6361(2) 0.1180(2)
C15_6 C 0.8201(8) 0.6063(2) 0.1531(2)
C16_6 C 0.7719(8) 0.6932(2) 0.3010(2)
C17_6 C 0.6881(9) 0.7296(2) 0.3020(2)
H12_6 H 0.635204 0.736925 0.279562
C18_6 C 0.7119(12) 0.3940(3) 0.1552(3)
H13_6 H 0.656148 0.402209 0.176739
C19_6 C 0.8727(9) 0.3670(3) 0.0951(3)
H14_6 H 0.930014 0.357638 0.074297
C20_6 C 0.7626(13) 0.4872(2) 0.1847(3)
C21_6 C 0.8151(8) 0.6236(2) 0.2657(2)
C22_6 C 0.7898(12) 0.5363(2) 0.1858(2)
C23_6 C 0.8906(10) 0.4088(2) 0.1104(3)
H15_6 H 0.958015 0.427528 0.100186
C24_6 C 0.7916(11) 0.5568(3) 0.2232(2)
H16_6 H 0.779435 0.539850 0.246773
C25_6 C 0.8116(9) 0.6025(2) 0.2256(2)
C26_6 C 0.8516(8) 0.6852(3) 0.3340(2)
H17_6 H 0.911106 0.660923 0.334319
C27_6 C 0.6825(8) 0.7555(2) 0.3367(2)
H18_6 H 0.623462 0.779919 0.337348
C28_6 C 0.6869(15) 0.9064(4) 0.0435(4)
N10_6 N 0.6707(19) 0.9367(4) 0.0631(4)
Fe4_4 Fe 0.74188(9) 0.78086(3) 0.42048(3)
Au1_6 Au 0.25779(2) 0.71838(2) 0.92163(2)
N1_6 N 0.5663(6) 0.71369(19) 0.92118(18)
N3_6 N 0.7416(6) 0.77392(19) 0.95076(18)
N4_6 N 0.7686(7) 0.68715(18) 0.97320(18)
C1_6 C 0.0622(8) 0.7242(2) 0.9199(2)
C2_6 C 0.4538(8) 0.7138(2) 0.9216(2)
C3_6 C 0.7335(9) 0.8040(2) 0.9716(2)
C4_6 C 0.6898(9) 0.6533(2) 0.9819(2)
H3_6 H 0.628596 0.643732 0.962189
H6_6 H 0.914683 0.722747 0.995571
N11_4 N 0.9494(6) 0.72532(19) 0.91911(19)
N13_4 N 0.7432(7) 0.75278(18) 0.86884(17)
Au1_7 Au 0.24221(2) 0.21838(2) 0.57837(2)
N2_3 N 0.5506(6) 0.22532(19) 0.58089(19)
C1_7 C 0.4378(8) 0.2242(2) 0.5801(2)
C2_7 C 0.0462(8) 0.2138(2) 0.5784(2)
Au2_7 Au 0.78727(4) 0.35409(2) 0.49104(2)
N1_7 N 0.9337(6) 0.21369(19) 0.57882(18)
N3_7 N 0.7584(6) 0.27392(19) 0.54924(18)
N4_7 N 0.7314(7) 0.18715(18) 0.52680(18)
O1_7 O 0.6273(7) 0.17376(19) 0.37867(18)
O2_7 O 0.6447(8) 0.1033(2) 0.20562(19)
C3_7 C 0.7665(9) 0.3040(2) 0.5284(2)
N7_7 N 0.7151(8) 0.1197(2) 0.41756(19)
H1_7 H 0.744332 0.092259 0.417879
N8_7 N 0.7262(8) 0.1665(2) 0.23328(19)
H2_7 H 0.753753 0.178377 0.255773
C4_7 C 0.8102(9) 0.1533(2) 0.5181(2)
H3_7 H 0.871404 0.143732 0.537811
C5_7 C 0.6979(10) 0.0610(2) 0.3491(2)
H5_7 H 0.701864 0.046829 0.374370
C6_7 C 0.6432(8) 0.1988(2) 0.4988(2)
H6_7 H 0.585317 0.222747 0.504429
C7_7 C 0.6316(8) 0.1784(2) 0.4624(2)
H7_7 H 0.566813 0.187661 0.443625
C8_7 C 0.6572(7) 0.2134(2) 0.1335(2)
H8_7 H 0.599082 0.208523 0.111690
C11_7 C 0.6737(8) 0.1268(2) 0.3098(2)
H10_7 H 0.659288 0.157817 0.308362
C12_7 C 0.7177(8) 0.1434(2) 0.4536(2)
C13_7 C 0.8082(9) 0.1312(3) 0.4822(2)
H11_7 H 0.868633 0.107734 0.477242
C14_7 C 0.6701(8) 0.1361(2) 0.3820(2)
C15_7 C 0.6799(8) 0.1063(2) 0.3469(2)
C16_7 C 0.7281(8) 0.1932(2) 0.1990(2)
C17_7 C 0.8119(9) 0.2296(2) 0.1980(2)
H12_7 H 0.864796 0.236925 0.220438
C21_7 C 0.6849(8) 0.1236(2) 0.2343(2)
C22_7 C 0.7102(12) 0.0363(2) 0.3142(2)
C24_7 C 0.7084(11) 0.0568(3) 0.2768(2)
H16_7 H 0.720565 0.039850 0.253227
C25_7 C 0.6884(9) 0.1025(2) 0.2744(2)
C26_7 C 0.6484(8) 0.1852(3) 0.1660(2)
H17_7 H 0.588894 0.160923 0.165681
C27_7 C 0.8175(8) 0.2555(2) 0.1633(2)
H18_7 H 0.876538 0.279919 0.162652
C28_7 C 0.8131(15) 0.4064(4) 0.4565(4)
N10_7 N 0.8293(19) 0.4367(4) 0.4369(4)
N12_4 N 0.7207(7) 0.16128(19) 0.60770(18)
N5_4 N 0.7207(7) 0.83872(19) 0.39230(18)
O3_7 O 0.8063(12) 0.9689(2) 0.2913(2)
N9_7 N 0.6721(11) 0.9665(2) 0.3461(3)
H4_7 H 0.612237 0.982178 0.358857
C9_7 C 0.6914(11) 0.9229(2) 0.3591(2)
C10_7 C 0.8008(9) 0.8531(2) 0.3628(2)
H9_7 H 0.869543 0.834033 0.353856
C18_7 C 0.7881(12) 0.8940(3) 0.3448(3)
H13_7 H 0.843852 0.902209 0.323261
C19_7 C 0.6273(9) 0.8670(3) 0.4049(3)
H14_7 H 0.569986 0.857638 0.425703
C20_7 C 0.7374(13) 0.9872(2) 0.3153(3)
C23_7 C 0.6094(10) 0.9088(2) 0.3896(3)
H15_7 H 0.541985 0.927528 0.399814
Au1_8 Au 0.24221(2) 0.78162(2) 0.42163(2)
N2_4 N 0.5506(6) 0.77468(19) 0.41911(19)
C1_8 C 0.4378(8) 0.7758(2) 0.4199(2)
C2_8 C 0.0462(8) 0.7862(2) 0.4216(2)
O3_8 O 0.8063(12) 0.0311(2) 0.7087(2)
N9_8 N 0.6721(11) 0.0335(2) 0.6539(3)
H4_8 H 0.612237 0.017822 0.641143
C9_8 C 0.6914(11) 0.0771(2) 0.6409(2)
C10_8 C 0.8008(9) 0.1469(2) 0.6372(2)
H9_8 H 0.869543 0.165967 0.646144
C18_8 C 0.7881(12) 0.1060(3) 0.6552(3)
H13_8 H 0.843852 0.097791 0.676739
C19_8 C 0.6273(9) 0.1330(3) 0.5951(3)
H14_8 H 0.569986 0.142362 0.574297
C20_8 C 0.7374(13) 0.0128(2) 0.6847(3)
C23_8 C 0.6094(10) 0.0912(2) 0.6104(3)
H15_8 H 0.541985 0.072472 0.600186
Au2_8 Au 0.78727(4) 0.64591(2) 0.50896(2)
N1_8 N 0.9337(6) 0.78631(19) 0.42118(18)
N3_8 N 0.7584(6) 0.72608(19) 0.45076(18)
N4_8 N 0.7314(7) 0.81285(18) 0.47320(18)
O1_8 O 0.6273(7) 0.82624(19) 0.62133(18)
O2_8 O 0.6447(8) 0.8967(2) 0.79438(19)
C3_8 C 0.7665(9) 0.6960(2) 0.4716(2)
N7_8 N 0.7151(8) 0.8803(2) 0.58244(19)
H1_8 H 0.744332 0.907741 0.582121
N8_8 N 0.7262(8) 0.8335(2) 0.76672(19)
H2_8 H 0.753753 0.821623 0.744227
C4_8 C 0.8102(9) 0.8467(2) 0.4819(2)
H3_8 H 0.871404 0.856268 0.462189
C5_8 C 0.6979(10) 0.9390(2) 0.6509(2)
H5_8 H 0.701864 0.953171 0.625630
C6_8 C 0.6432(8) 0.8012(2) 0.5012(2)
H6_8 H 0.585317 0.777253 0.495571
C7_8 C 0.6316(8) 0.8216(2) 0.5376(2)
H7_8 H 0.566813 0.812339 0.556375
C8_8 C 0.6572(7) 0.7866(2) 0.8665(2)
H8_8 H 0.599082 0.791477 0.888310
C11_8 C 0.6737(8) 0.8732(2) 0.6902(2)
H10_8 H 0.659288 0.842183 0.691638
C12_8 C 0.7177(8) 0.8566(2) 0.5464(2)
C13_8 C 0.8082(9) 0.8688(3) 0.5178(2)
H11_8 H 0.868633 0.892266 0.522758
C14_8 C 0.6701(8) 0.8639(2) 0.6180(2)
C15_8 C 0.6799(8) 0.8937(2) 0.6531(2)
C16_8 C 0.7281(8) 0.8068(2) 0.8010(2)
C17_8 C 0.8119(9) 0.7704(2) 0.8020(2)
H12_8 H 0.864796 0.763075 0.779562
C21_8 C 0.6849(8) 0.8764(2) 0.7657(2)
C22_8 C 0.7102(12) 0.9637(2) 0.6858(2)
C24_8 C 0.7084(11) 0.9432(3) 0.7232(2)
H16_8 H 0.720565 0.960150 0.746773
C25_8 C 0.6884(9) 0.8975(2) 0.7256(2)
C26_8 C 0.6484(8) 0.8148(3) 0.8340(2)
H17_8 H 0.588894 0.839077 0.834319
C27_8 C 0.8175(8) 0.7445(2) 0.8367(2)
H18_8 H 0.876538 0.720081 0.837348
C28_8 C 0.8131(15) 0.5936(4) 0.5435(4)
N10_8 N 0.8293(19) 0.5633(4) 0.5631(4)
loop_
_geom_bond_atom_site_label_1
_geom_bond_atom_site_label_2
_geom_bond_site_symmetry_1
_geom_bond_site_symmetry_2
Fe2 N2 1_555 1_555
Au1 C1 1_555 1_555
Au2 C3 1_555 1_555
Fe2 N1 1_555 1_555
N1 C2 1_555 1_555
N3 Fe2 1_555 1_555
N4 Fe2 1_555 1_555
O1 C14 1_555 1_555
N5 C10 1_555 1_555
N6 C8 1_555 1_555
O2 C21 1_555 1_555
C2 Au1 1_555 1_555
C3 N3 1_555 1_555
O3 C20 1_555 1_555
N7 H1 1_555 1_555
N8 H2 1_555 1_555
C4 N4 1_555 1_555
H3 C4 1_555 1_555
N9 H4 1_555 1_555
C5 H5 1_555 1_555
C6 N4 1_555 1_555
H6 C6 1_555 1_555
C7 C6 1_555 1_555
H7 C7 1_555 1_555
C8 H8 1_555 1_555
C9 N9 1_555 1_555
C10 H9 1_555 1_555
C11 H10 1_555 1_555
C12 N7 1_555 1_555
C13 C4 1_555 1_555
H11 C13 1_555 1_555
C14 N7 1_555 1_555
C15 C5 1_555 1_555
C16 N8 1_555 1_555
C17 C16 1_555 1_555
H12 C17 1_555 1_555
C18 C9 1_555 1_555
H13 C18 1_555 1_555
C19 N5 1_555 1_555
H14 C19 1_555 1_555
C20 N9 1_555 1_555
C21 N8 1_555 1_555
C22 C5 1_555 1_555
C23 C9 1_555 1_555
H15 C23 1_555 1_555
C24 C22 1_555 1_555
H16 C24 1_555 1_555
C25 C11 1_555 1_555
C26 C8 1_555 1_555
H17 C26 1_555 1_555
C27 N6 1_555 1_555
H18 C27 1_555 1_555
C28 Au2 1_555 1_555
N10 C28 1_555 1_555
Fe3 N5 1_555 1_555
Fe4 N6 1_555 1_555
N12 Fe2 1_555 1_555
N13 Fe2 1_555 1_555
C7 C12 1_555 1_555
C10 C18 1_555 1_555
C11 C15 1_555 1_555
C12 C13 1_555 1_555
C14 C15 1_555 1_555
C16 C26 1_555 1_555
C17 C27 1_555 1_555
C19 C23 1_555 1_555
C20 C22 1_555 1_555
C21 C25 1_555 1_555
C24 C25 1_555 1_555
Fe3 N2_2 1_555 1_555
Au1_2 C1_2 1_555 1_555
Au2_2 C3_2 1_555 1_555
Fe3 N1_2 1_555 1_555
N1_2 C2_2 1_555 1_555
N3_2 Fe3 1_555 1_555
N4_2 Fe3 1_555 1_555
O1_2 C14_2 1_555 1_555
N12 C10_2 1_555 1_555
N6_2 C8_2 1_555 1_555
O2_2 C21_2 1_555 1_555
C2_2 Au1_2 1_555 1_555
C3_2 N3_2 1_555 1_555
O3_2 C20_2 1_555 1_555
N7_2 H1_2 1_555 1_555
N8_2 H2_2 1_555 1_555
C4_2 N4_2 1_555 1_555
H3_2 C4_2 1_555 1_555
N9_2 H4_2 1_555 1_555
C5_2 H5_2 1_555 1_555
C6_2 N4_2 1_555 1_555
H6_2 C6_2 1_555 1_555
C7_2 C6_2 1_555 1_555
H7_2 C7_2 1_555 1_555
C8_2 H8_2 1_555 1_555
C9_2 N9_2 1_555 1_555
C10_2 H9_2 1_555 1_555
C11_2 H10_2 1_555 1_555
C12_2 N7_2 1_555 1_555
C13_2 C4_2 1_555 1_555
H11_2 C13_2 1_555 1_555
C14_2 N7_2 1_555 1_555
C15_2 C5_2 1_555 1_555
C16_2 N8_2 1_555 1_555
C17_2 C16_2 1_555 1_555
H12_2 C17_2 1_555 1_555
C18_2 C9_2 1_555 1_555
H13_2 C18_2 1_555 1_555
C19_2 N12 1_555 1_555
H14_2 C19_2 1_555 1_555
C20_2 N9_2 1_555 1_555
C21_2 N8_2 1_555 1_555
C22_2 C5_2 1_555 1_555
C23_2 C9_2 1_555 1_555
H15_2 C23_2 1_555 1_555
C24_2 C22_2 1_555 1_555
H16_2 C24_2 1_555 1_555
C25_2 C11_2 1_555 1_555
C26_2 C8_2 1_555 1_555
H17_2 C26_2 1_555 1_555
C27_2 N6_2 1_555 1_555
H18_2 C27_2 1_555 1_555
C28_2 Au2_2 1_555 1_555
N10_2 C28_2 1_555 1_555
Fe4_2 N6_2 1_555 1_555
N13_2 Fe3 1_555 1_555
C7_2 C12_2 1_555 1_555
C10_2 C18_2 1_555 1_555
C11_2 C15_2 1_555 1_555
C12_2 C13_2 1_555 1_555
C14_2 C15_2 1_555 1_555
C16_2 C26_2 1_555 1_555
C17_2 C27_2 1_555 1_555
C19_2 C23_2 1_555 1_555
C20_2 C22_2 1_555 1_555
C21_2 C25_2 1_555 1_555
C24_2 C25_2 1_555 1_555
N5_2 C10_3 1_555 1_555
O3_3 C20_3 1_555 1_555
N9_3 H4_3 1_555 1_555
C9_3 N9_3 1_555 1_555
C10_3 H9_3 1_555 1_555
C18_3 C9_3 1_555 1_555
H13_3 C18_3 1_555 1_555
C19_3 N5_2 1_555 1_555
H14_3 C19_3 1_555 1_555
C20_3 N9_3 1_555 1_555
C23_3 C9_3 1_555 1_555
H15_3 C23_3 1_555 1_555
Fe4_2 N5_2 1_555 1_555
C10_3 C18_3 1_555 1_555
C19_3 C23_3 1_555 1_555
Fe4 N1_3 1_555 1_555
N3_3 Fe4 1_555 1_555
N4_3 Fe4 1_555 1_555
C3_3 N3_3 1_555 1_555
C4_3 N4_3 1_555 1_555
H3_3 C4_3 1_555 1_555
N11 Fe4 1_555 1_555
N12_2 Fe4 1_555 1_555
O1_3 C14_3 1_555 1_555
N13 C8_3 1_555 1_555
O2_3 C21_3 1_555 1_555
N7_3 H1_3 1_555 1_555
N8_3 H2_3 1_555 1_555
C5_3 H5_3 1_555 1_555
C7_3 C6_3 1_555 1_555
H7_3 C7_3 1_555 1_555
C8_3 H8_3 1_555 1_555
C11_3 H10_3 1_555 1_555
C12_3 N7_3 1_555 1_555
H11_3 C13_3 1_555 1_555
C14_3 N7_3 1_555 1_555
C15_3 C5_3 1_555 1_555
C16_3 N8_3 1_555 1_555
C17_3 C16_3 1_555 1_555
H12_3 C17_3 1_555 1_555
C21_3 N8_3 1_555 1_555
C22_3 C5_3 1_555 1_555
C24_3 C22_3 1_555 1_555
H16_3 C24_3 1_555 1_555
C25_3 C11_3 1_555 1_555
C26_3 C8_3 1_555 1_555
H17_3 C26_3 1_555 1_555
C27_3 N13 1_555 1_555
H18_3 C27_3 1_555 1_555
C28_3 Au2_3 1_555 1_555
N10_3 C28_3 1_555 1_555
C7_3 C12_3 1_555 1_555
C11_3 C15_3 1_555 1_555
C12_3 C13_3 1_555 1_555
C14_3 C15_3 1_555 1_555
C16_3 C26_3 1_555 1_555
C17_3 C27_3 1_555 1_555
C21_3 C25_3 1_555 1_555
C24_3 C25_3 1_555 1_555
Au1_3 C1_3 1_555 1_555
N11 C1_3 1_555 1_555
C2_3 Au1_3 1_555 1_555
O1_4 C14_4 1_555 1_555
N13_2 C8_4 1_555 1_555
O2_4 C21_4 1_555 1_555
N7_4 H1_4 1_555 1_555
N8_4 H2_4 1_555 1_555
C5_4 H5_4 1_555 1_555
C7_4 C6_4 1_555 1_555
H7_4 C7_4 1_555 1_555
C8_4 H8_4 1_555 1_555
C11_4 H10_4 1_555 1_555
C12_4 N7_4 1_555 1_555
H11_4 C13_4 1_555 1_555
C14_4 N7_4 1_555 1_555
C15_4 C5_4 1_555 1_555
C16_4 N8_4 1_555 1_555
C17_4 C16_4 1_555 1_555
H12_4 C17_4 1_555 1_555
C21_4 N8_4 1_555 1_555
C22_4 C5_4 1_555 1_555
C24_4 C22_4 1_555 1_555
H16_4 C24_4 1_555 1_555
C25_4 C11_4 1_555 1_555
C26_4 C8_4 1_555 1_555
H17_4 C26_4 1_555 1_555
C27_4 N13_2 1_555 1_555
H18_4 C27_4 1_555 1_555
C28_4 Au2_4 1_555 1_555
N10_4 C28_4 1_555 1_555
C7_4 C12_4 1_555 1_555
C11_4 C15_4 1_555 1_555
C12_4 C13_4 1_555 1_555
C14_4 C15_4 1_555 1_555
C16_4 C26_4 1_555 1_555
C17_4 C27_4 1_555 1_555
C21_4 C25_4 1_555 1_555
C24_4 C25_4 1_555 1_555
Fe4_2 N1_4 1_555 1_555
N3_4 Fe4_2 1_555 1_555
N4_4 Fe4_2 1_555 1_555
C3_4 N3_4 1_555 1_555
C4_4 N4_4 1_555 1_555
H3_4 C4_4 1_555 1_555
N11_2 Fe4_2 1_555 1_555
N12_2 C10_4 1_555 1_555
O3_4 C20_4 1_555 1_555
N9_4 H4_4 1_555 1_555
C9_4 N9_4 1_555 1_555
C10_4 H9_4 1_555 1_555
C18_4 C9_4 1_555 1_555
H13_4 C18_4 1_555 1_555
C19_4 N12_2 1_555 1_555
H14_4 C19_4 1_555 1_555
C20_4 N9_4 1_555 1_555
C23_4 C9_4 1_555 1_555
H15_4 C23_4 1_555 1_555
C10_4 C18_4 1_555 1_555
C19_4 C23_4 1_555 1_555
Au1_4 C1_4 1_555 1_555
N11_2 C1_4 1_555 1_555
C2_4 Au1_4 1_555 1_555
Au1_5 C1_5 1_555 1_555
Fe1 N1_5 1_555 1_555
N1_5 C2_5 1_555 1_555
N3_5 Fe1 1_555 1_555
N4_5 Fe1 1_555 1_555
C2_5 Au1_5 1_555 1_555
C3_5 N3_5 1_555 1_555
C4_5 N4_5 1_555 1_555
H3_5 C4_5 1_555 1_555
N11_3 Fe1 1_555 1_555
N12_3 Fe1 1_555 1_555
N13_3 Fe1 1_555 1_555
O1_5 C14_5 1_555 1_555
N5_3 C10_5 1_555 1_555
N6_3 C8_5 1_555 1_555
O2_5 C21_5 1_555 1_555
O3_5 C20_5 1_555 1_555
N7_5 H1_5 1_555 1_555
N8_5 H2_5 1_555 1_555
N9_5 H4_5 1_555 1_555
C5_5 H5_5 1_555 1_555
C7_5 C6_5 1_555 1_555
H7_5 C7_5 1_555 1_555
C8_5 H8_5 1_555 1_555
C9_5 N9_5 1_555 1_555
C10_5 H9_5 1_555 1_555
C11_5 H10_5 1_555 1_555
C12_5 N7_5 1_555 1_555
H11_5 C13_5 1_555 1_555
C14_5 N7_5 1_555 1_555
C15_5 C5_5 1_555 1_555
C16_5 N8_5 1_555 1_555
C17_5 C16_5 1_555 1_555
H12_5 C17_5 1_555 1_555
C18_5 C9_5 1_555 1_555
H13_5 C18_5 1_555 1_555
C19_5 N5_3 1_555 1_555
H14_5 C19_5 1_555 1_555
C20_5 N9_5 1_555 1_555
C21_5 N8_5 1_555 1_555
C22_5 C5_5 1_555 1_555
C23_5 C9_5 1_555 1_555
H15_5 C23_5 1_555 1_555
C24_5 C22_5 1_555 1_555
H16_5 C24_5 1_555 1_555
C25_5 C11_5 1_555 1_555
C26_5 C8_5 1_555 1_555
H17_5 C26_5 1_555 1_555
C27_5 N6_3 1_555 1_555
H18_5 C27_5 1_555 1_555
C28_5 Au2_5 1_555 1_555
N10_5 C28_5 1_555 1_555
Fe3_2 N5_3 1_555 1_555
Fe4_3 N6_3 1_555 1_555
C7_5 C12_5 1_555 1_555
C10_5 C18_5 1_555 1_555
C11_5 C15_5 1_555 1_555
C12_5 C13_5 1_555 1_555
C14_5 C15_5 1_555 1_555
C16_5 C26_5 1_555 1_555
C17_5 C27_5 1_555 1_555
C19_5 C23_5 1_555 1_555
C20_5 C22_5 1_555 1_555
C21_5 C25_5 1_555 1_555
C24_5 C25_5 1_555 1_555
O1_6 C14_6 1_555 1_555
N12_3 C10_6 1_555 1_555
N6_4 C8_6 1_555 1_555
O2_6 C21_6 1_555 1_555
O3_6 C20_6 1_555 1_555
N7_6 H1_6 1_555 1_555
N8_6 H2_6 1_555 1_555
N9_6 H4_6 1_555 1_555
C5_6 H5_6 1_555 1_555
C7_6 C6_6 1_555 1_555
H7_6 C7_6 1_555 1_555
C8_6 H8_6 1_555 1_555
C9_6 N9_6 1_555 1_555
C10_6 H9_6 1_555 1_555
C11_6 H10_6 1_555 1_555
C12_6 N7_6 1_555 1_555
H11_6 C13_6 1_555 1_555
C14_6 N7_6 1_555 1_555
C15_6 C5_6 1_555 1_555
C16_6 N8_6 1_555 1_555
C17_6 C16_6 1_555 1_555
H12_6 C17_6 1_555 1_555
C18_6 C9_6 1_555 1_555
H13_6 C18_6 1_555 1_555
C19_6 N12_3 1_555 1_555
H14_6 C19_6 1_555 1_555
C20_6 N9_6 1_555 1_555
C21_6 N8_6 1_555 1_555
C22_6 C5_6 1_555 1_555
C23_6 C9_6 1_555 1_555
H15_6 C23_6 1_555 1_555
C24_6 C22_6 1_555 1_555
H16_6 C24_6 1_555 1_555
C25_6 C11_6 1_555 1_555
C26_6 C8_6 1_555 1_555
H17_6 C26_6 1_555 1_555
C27_6 N6_4 1_555 1_555
H18_6 C27_6 1_555 1_555
C28_6 Au2_6 1_555 1_555
N10_6 C28_6 1_555 1_555
Fe4_4 N6_4 1_555 1_555
C7_6 C12_6 1_555 1_555
C10_6 C18_6 1_555 1_555
C11_6 C15_6 1_555 1_555
C12_6 C13_6 1_555 1_555
C14_6 C15_6 1_555 1_555
C16_6 C26_6 1_555 1_555
C17_6 C27_6 1_555 1_555
C19_6 C23_6 1_555 1_555
C20_6 C22_6 1_555 1_555
C21_6 C25_6 1_555 1_555
C24_6 C25_6 1_555 1_555
Au1_6 C1_6 1_555 1_555
Fe3_2 N1_6 1_555 1_555
N1_6 C2_6 1_555 1_555
N3_6 Fe3_2 1_555 1_555
N4_6 Fe3_2 1_555 1_555
C2_6 Au1_6 1_555 1_555
C3_6 N3_6 1_555 1_555
C4_6 N4_6 1_555 1_555
H3_6 C4_6 1_555 1_555
N11_4 Fe3_2 1_555 1_555
N13_4 Fe3_2 1_555 1_555
Au1_7 C1_7 1_555 1_555
N2_3 C1_7 1_555 1_555
C2_7 Au1_7 1_555 1_555
Fe4_3 N2_3 1_555 1_555
Au2_7 C3_7 1_555 1_555
Fe4_3 N1_7 1_555 1_555
N3_7 Fe4_3 1_555 1_555
N4_7 Fe4_3 1_555 1_555
O1_7 C14_7 1_555 1_555
N13_3 C8_7 1_555 1_555
O2_7 C21_7 1_555 1_555
C3_7 N3_7 1_555 1_555
N7_7 H1_7 1_555 1_555
N8_7 H2_7 1_555 1_555
C4_7 N4_7 1_555 1_555
H3_7 C4_7 1_555 1_555
C5_7 H5_7 1_555 1_555
C6_7 N4_7 1_555 1_555
H6_7 C6_7 1_555 1_555
C7_7 C6_7 1_555 1_555
H7_7 C7_7 1_555 1_555
C8_7 H8_7 1_555 1_555
C11_7 H10_7 1_555 1_555
C12_7 N7_7 1_555 1_555
C13_7 C4_7 1_555 1_555
H11_7 C13_7 1_555 1_555
C14_7 N7_7 1_555 1_555
C15_7 C5_7 1_555 1_555
C16_7 N8_7 1_555 1_555
C17_7 C16_7 1_555 1_555
H12_7 C17_7 1_555 1_555
C21_7 N8_7 1_555 1_555
C22_7 C5_7 1_555 1_555
C24_7 C22_7 1_555 1_555
H16_7 C24_7 1_555 1_555
C25_7 C11_7 1_555 1_555
C26_7 C8_7 1_555 1_555
H17_7 C26_7 1_555 1_555
C27_7 N13_3 1_555 1_555
H18_7 C27_7 1_555 1_555
C28_7 Au2_7 1_555 1_555
N10_7 C28_7 1_555 1_555
N12_4 Fe4_3 1_555 1_555
C7_7 C12_7 1_555 1_555
C11_7 C15_7 1_555 1_555
C12_7 C13_7 1_555 1_555
C14_7 C15_7 1_555 1_555
C16_7 C26_7 1_555 1_555
C17_7 C27_7 1_555 1_555
C21_7 C25_7 1_555 1_555
C24_7 C25_7 1_555 1_555
N5_4 C10_7 1_555 1_555
O3_7 C20_7 1_555 1_555
N9_7 H4_7 1_555 1_555
C9_7 N9_7 1_555 1_555
C10_7 H9_7 1_555 1_555
C18_7 C9_7 1_555 1_555
H13_7 C18_7 1_555 1_555
C19_7 N5_4 1_555 1_555
H14_7 C19_7 1_555 1_555
C20_7 N9_7 1_555 1_555
C23_7 C9_7 1_555 1_555
H15_7 C23_7 1_555 1_555
Fe4_4 N5_4 1_555 1_555
C10_7 C18_7 1_555 1_555
C19_7 C23_7 1_555 1_555
Au1_8 C1_8 1_555 1_555
N2_4 C1_8 1_555 1_555
C2_8 Au1_8 1_555 1_555
Fe4_4 N2_4 1_555 1_555
N12_4 C10_8 1_555 1_555
O3_8 C20_8 1_555 1_555
N9_8 H4_8 1_555 1_555
C9_8 N9_8 1_555 1_555
C10_8 H9_8 1_555 1_555
C18_8 C9_8 1_555 1_555
H13_8 C18_8 1_555 1_555
C19_8 N12_4 1_555 1_555
H14_8 C19_8 1_555 1_555
C20_8 N9_8 1_555 1_555
C23_8 C9_8 1_555 1_555
H15_8 C23_8 1_555 1_555
C10_8 C18_8 1_555 1_555
C19_8 C23_8 1_555 1_555
Au2_8 C3_8 1_555 1_555
Fe4_4 N1_8 1_555 1_555
N3_8 Fe4_4 1_555 1_555
N4_8 Fe4_4 1_555 1_555
O1_8 C14_8 1_555 1_555
N13_4 C8_8 1_555 1_555
O2_8 C21_8 1_555 1_555
C3_8 N3_8 1_555 1_555
N7_8 H1_8 1_555 1_555
N8_8 H2_8 1_555 1_555
C4_8 N4_8 1_555 1_555
H3_8 C4_8 1_555 1_555
C5_8 H5_8 1_555 1_555
C6_8 N4_8 1_555 1_555
H6_8 C6_8 1_555 1_555
C7_8 C6_8 1_555 1_555
H7_8 C7_8 1_555 1_555
C8_8 H8_8 1_555 1_555
C11_8 H10_8 1_555 1_555
C12_8 N7_8 1_555 1_555
C13_8 C4_8 1_555 1_555
H11_8 C13_8 1_555 1_555
C14_8 N7_8 1_555 1_555
C15_8 C5_8 1_555 1_555
C16_8 N8_8 1_555 1_555
C17_8 C16_8 1_555 1_555
H12_8 C17_8 1_555 1_555
C21_8 N8_8 1_555 1_555
C22_8 C5_8 1_555 1_555
C24_8 C22_8 1_555 1_555
H16_8 C24_8 1_555 1_555
C25_8 C11_8 1_555 1_555
C26_8 C8_8 1_555 1_555
H17_8 C26_8 1_555 1_555
C27_8 N13_4 1_555 1_555
H18_8 C27_8 1_555 1_555
C28_8 Au2_8 1_555 1_555
N10_8 C28_8 1_555 1_555
C7_8 C12_8 1_555 1_555
C11_8 C15_8 1_555 1_555
C12_8 C13_8 1_555 1_555
C14_8 C15_8 1_555 1_555
C16_8 C26_8 1_555 1_555
C17_8 C27_8 1_555 1_555
C21_8 C25_8 1_555 1_555
C24_8 C25_8 1_555 1_555

#END
