
###############################################################################
#
# This file contains modified crystal structure data generated from the
# MOF subset of the Cambridge Structural Database (CSD) v543 
# hosted by the Cambridge Crystallographic Data Centre (CCDC).
#
# This work is licensed under the Creative Commons
# Attribution-NonCommercial-ShareAlike 4.0 International License.
# To view a copy of this license, visit
# http://creativecommons.org/licenses/by-nc-sa/4.0/
# or send a letter to
# Creative Commons, PO Box 1866, Mountain View, CA 94042, USA.
#
# CIF created using the CSD Python API on 29 September 2022
# The structure has been converted into the P1 space group
# The structure has a 3D framework
# The original CSD entry WAMCAS07 is in the orthorhombic crystal system
# The original CSD entry WAMCAS07 is in a Sohncke space group
# The framework has been calculated to contain at least 10.0% void space
# The void calculation uses a probe of radius 1.32A, grid spacing 0.4
#
###############################################################################

data_WAMCAS07
_chemical_formula_moiety         '(C224 H144 Au16 Fe8 N76 O24)n'
_symmetry_cell_setting           triclinic
_symmetry_space_group_name_H-M   'P 1'
_symmetry_Int_Tables_number      1
_space_group_name_Hall           'P 1'
loop_
_symmetry_equiv_pos_site_id
_symmetry_equiv_pos_as_xyz
1 x,y,z
_cell_length_a                   10.198(2)
_cell_length_b                   30.356(6)
_cell_length_c                   33.691(7)
_cell_angle_alpha                90
_cell_angle_beta                 90
_cell_angle_gamma                90
_cell_volume                     10429.7
loop_
_atom_site_label
_atom_site_type_symbol
_atom_site_fract_x
_atom_site_fract_y
_atom_site_fract_z
N2 N 0.0469(9) 0.7258(2) 0.5814(2)
Fe2 Fe 0.24086(10) 0.71953(3) 0.57962(3)
Au1 Au 0.74127(3) 0.71862(2) 0.57826(2)
Au2 Au 0.28753(5) 0.85460(2) 0.49044(2)
N1 N 0.4351(8) 0.7140(2) 0.5787(2)
N3 N 0.2570(8) 0.7754(2) 0.5490(2)
N4 N 0.2305(8) 0.6871(2) 0.5256(2)
O1 O 0.1250(9) 0.6732(2) 0.37874(19)
N5 N 0.2183(9) 0.3389(2) 0.3916(2)
N6 N 0.2452(8) 0.7466(2) 0.1322(2)
C1 C 0.9351(9) 0.7241(3) 0.5799(2)
O2 O 0.1431(11) 0.6026(3) 0.2060(2)
C2 C 0.5468(10) 0.7137(3) 0.5784(3)
C3 C 0.2658(11) 0.8053(3) 0.5279(3)
O3 O 0.3070(16) 0.4692(3) 0.2914(3)
N7 N 0.2147(10) 0.6196(2) 0.4168(2)
H1 H 0.245615 0.592514 0.416947
N8 N 0.2261(9) 0.6656(3) 0.2332(2)
H2 H 0.254215 0.677316 0.255490
C4 C 0.3076(12) 0.6532(3) 0.5176(3)
H3 H 0.366415 0.643368 0.537557
N9 N 0.1748(15) 0.4666(3) 0.3469(3)
H4 H 0.120907 0.482807 0.361137
C5 C 0.1960(12) 0.5606(3) 0.3490(3)
H5 H 0.199417 0.546536 0.374113
C6 C 0.1427(10) 0.6983(3) 0.4982(2)
H6 H 0.083596 0.721582 0.504301
C7 C 0.1320(10) 0.6783(3) 0.4616(3)
H7 H 0.068038 0.687662 0.442889
C8 C 0.1576(10) 0.7131(3) 0.1345(3)
H8 H 0.099155 0.708485 0.112961
C9 C 0.1876(14) 0.4227(3) 0.3583(3)
C10 C 0.2988(12) 0.3542(3) 0.3626(3)
H9 H 0.367953 0.335632 0.353688
C11 C 0.1717(10) 0.6265(3) 0.3099(2)
H10 H 0.157100 0.657311 0.308343
C12 C 0.2178(9) 0.6438(3) 0.4528(2)
C13 C 0.3068(12) 0.6317(3) 0.4818(3)
H11 H 0.367208 0.608470 0.476949
C14 C 0.1672(10) 0.6356(3) 0.3822(2)
C15 C 0.1776(10) 0.6063(2) 0.3465(2)
C16 C 0.2285(10) 0.6922(3) 0.1996(3)
C17 C 0.3136(11) 0.7286(3) 0.1985(3)
H12 H 0.368180 0.735221 0.220508
C18 C 0.2857(15) 0.3950(3) 0.3454(3)
H13 H 0.343551 0.403960 0.324832
C19 C 0.1264(12) 0.3677(3) 0.4047(3)
H14 H 0.070586 0.358753 0.425779
C20 C 0.2367(17) 0.4877(3) 0.3159(3)
C21 C 0.1840(10) 0.6228(3) 0.2347(3)
C22 C 0.2092(14) 0.5360(3) 0.3142(3)
C23 C 0.1097(13) 0.4090(3) 0.3891(3)
H15 H 0.044523 0.428065 0.399624
C24 C 0.2077(14) 0.5565(4) 0.2774(3)
H16 H 0.220699 0.539740 0.253895
C25 C 0.1869(11) 0.6020(3) 0.2751(3)
C26 C 0.1498(11) 0.6850(3) 0.1674(3)
H17 H 0.089978 0.661046 0.167270
C27 C 0.3167(11) 0.7552(3) 0.1640(3)
H18 H 0.372507 0.780270 0.163651
C28 C 0.315(2) 0.9069(5) 0.4574(5)
N10 N 0.338(2) 0.9363(5) 0.4380(5)
Fe3 Fe 0.24086(10) 0.28047(3) 0.42038(3)
Fe4 Fe 0.25914(10) 0.78047(3) 0.07962(3)
N12 N 0.2183(9) 0.6611(2) 0.6084(2)
N13 N 0.2548(8) 0.7534(2) 0.6322(2)
N2_2 N 0.0469(9) 0.2742(2) 0.4186(2)
Au1_2 Au 0.74127(3) 0.28138(2) 0.42174(2)
Au2_2 Au 0.28753(5) 0.14540(2) 0.50956(2)
N1_2 N 0.4351(8) 0.2860(2) 0.4213(2)
N3_2 N 0.2570(8) 0.2246(2) 0.4510(2)
N4_2 N 0.2305(8) 0.3129(2) 0.4744(2)
O1_2 O 0.1250(9) 0.3268(2) 0.62126(19)
N6_2 N 0.2452(8) 0.2534(2) 0.8678(2)
C1_2 C 0.9351(9) 0.2759(3) 0.4201(2)
O2_2 O 0.1431(11) 0.3974(3) 0.7940(2)
C2_2 C 0.5468(10) 0.2863(3) 0.4216(3)
C3_2 C 0.2658(11) 0.1947(3) 0.4721(3)
O3_2 O 0.3070(16) 0.5308(3) 0.7086(3)
N7_2 N 0.2147(10) 0.3804(2) 0.5832(2)
H1_2 H 0.245615 0.407486 0.583053
N8_2 N 0.2261(9) 0.3344(3) 0.7668(2)
H2_2 H 0.254215 0.322684 0.744510
C4_2 C 0.3076(12) 0.3468(3) 0.4824(3)
H3_2 H 0.366415 0.356632 0.462443
N9_2 N 0.1748(15) 0.5334(3) 0.6531(3)
H4_2 H 0.120907 0.517193 0.638863
C5_2 C 0.1960(12) 0.4394(3) 0.6510(3)
H5_2 H 0.199417 0.453464 0.625887
C6_2 C 0.1427(10) 0.3017(3) 0.5018(2)
H6_2 H 0.083596 0.278418 0.495699
C7_2 C 0.1320(10) 0.3217(3) 0.5384(3)
H7_2 H 0.068038 0.312338 0.557111
C8_2 C 0.1576(10) 0.2869(3) 0.8655(3)
H8_2 H 0.099155 0.291515 0.887039
C9_2 C 0.1876(14) 0.5773(3) 0.6417(3)
C10_2 C 0.2988(12) 0.6458(3) 0.6374(3)
H9_2 H 0.367953 0.664368 0.646312
C11_2 C 0.1717(10) 0.3735(3) 0.6901(2)
H10_2 H 0.157100 0.342689 0.691657
C12_2 C 0.2178(9) 0.3562(3) 0.5472(2)
C13_2 C 0.3068(12) 0.3683(3) 0.5182(3)
H11_2 H 0.367208 0.391530 0.523051
C14_2 C 0.1672(10) 0.3644(3) 0.6178(2)
C15_2 C 0.1776(10) 0.3937(2) 0.6535(2)
C16_2 C 0.2285(10) 0.3078(3) 0.8004(3)
C17_2 C 0.3136(11) 0.2714(3) 0.8015(3)
H12_2 H 0.368180 0.264779 0.779492
C18_2 C 0.2857(15) 0.6050(3) 0.6546(3)
H13_2 H 0.343551 0.596040 0.675168
C19_2 C 0.1264(12) 0.6323(3) 0.5953(3)
H14_2 H 0.070586 0.641247 0.574221
C20_2 C 0.2367(17) 0.5123(3) 0.6841(3)
C21_2 C 0.1840(10) 0.3772(3) 0.7653(3)
C22_2 C 0.2092(14) 0.4640(3) 0.6858(3)
C23_2 C 0.1097(13) 0.5910(3) 0.6109(3)
H15_2 H 0.044523 0.571935 0.600376
C24_2 C 0.2077(14) 0.4435(4) 0.7226(3)
H16_2 H 0.220699 0.460260 0.746105
C25_2 C 0.1869(11) 0.3980(3) 0.7249(3)
C26_2 C 0.1498(11) 0.3150(3) 0.8326(3)
H17_2 H 0.089978 0.338954 0.832730
C27_2 C 0.3167(11) 0.2448(3) 0.8360(3)
H18_2 H 0.372507 0.219730 0.836349
C28_2 C 0.315(2) 0.0931(5) 0.5426(5)
N10_2 N 0.338(2) 0.0637(5) 0.5620(5)
Fe4_2 Fe 0.25914(10) 0.21953(3) 0.92038(3)
N13_2 N 0.2548(8) 0.2466(2) 0.3678(2)
N5_2 N 0.2817(9) 0.1611(2) 0.8916(2)
O3_3 O 0.1930(16) 0.0308(3) 0.7914(3)
N9_3 N 0.3252(15) 0.0334(3) 0.8469(3)
H4_3 H 0.379093 0.017193 0.861137
C9_3 C 0.3124(14) 0.0773(3) 0.8583(3)
C10_3 C 0.2012(12) 0.1458(3) 0.8626(3)
H9_3 H 0.132047 0.164368 0.853688
C18_3 C 0.2143(15) 0.1050(3) 0.8454(3)
H13_3 H 0.156449 0.096040 0.824832
C19_3 C 0.3736(12) 0.1323(3) 0.9047(3)
H14_3 H 0.429414 0.141247 0.925779
C20_3 C 0.2633(17) 0.0123(3) 0.8159(3)
C23_3 C 0.3903(13) 0.0910(3) 0.8891(3)
H15_3 H 0.455477 0.071935 0.899624
N1_3 N 0.0649(8) 0.7860(2) 0.0787(2)
N3_3 N 0.2430(8) 0.7246(2) 0.0490(2)
N4_3 N 0.2695(8) 0.8129(2) 0.0256(2)
C3_3 C 0.2342(11) 0.6947(3) 0.0279(3)
C4_3 C 0.1924(12) 0.8468(3) 0.0176(3)
H3_3 H 0.133585 0.856632 0.037557
H6_3 H 0.416404 0.778418 0.004301
N11 N 0.4531(9) 0.7742(2) 0.0814(2)
N12_2 N 0.2817(9) 0.8389(2) 0.1084(2)
Au2_3 Au 0.21247(5) 0.64540(2) 0.99044(2)
O1_3 O 0.3750(9) 0.8268(2) 0.87874(19)
O2_3 O 0.3569(11) 0.8974(3) 0.7060(2)
N7_3 N 0.2853(10) 0.8804(2) 0.9168(2)
H1_3 H 0.254385 0.907486 0.916947
N8_3 N 0.2739(9) 0.8344(3) 0.7332(2)
H2_3 H 0.245785 0.822684 0.755490
C5_3 C 0.3040(12) 0.9394(3) 0.8490(3)
H5_3 H 0.300583 0.953464 0.874113
C6_3 C 0.3573(10) 0.8017(3) 0.9982(2)
C7_3 C 0.3680(10) 0.8217(3) 0.9616(3)
H7_3 H 0.431962 0.812338 0.942889
C8_3 C 0.3424(10) 0.7869(3) 0.6345(3)
H8_3 H 0.400845 0.791515 0.612961
C11_3 C 0.3283(10) 0.8735(3) 0.8099(2)
H10_3 H 0.342900 0.842689 0.808343
C12_3 C 0.2822(9) 0.8562(3) 0.9528(2)
C13_3 C 0.1932(12) 0.8683(3) 0.9818(3)
H11_3 H 0.132792 0.891530 0.976949
C14_3 C 0.3328(10) 0.8644(3) 0.8822(2)
C15_3 C 0.3224(10) 0.8937(2) 0.8465(2)
C16_3 C 0.2715(10) 0.8078(3) 0.6996(3)
C17_3 C 0.1864(11) 0.7714(3) 0.6985(3)
H12_3 H 0.131820 0.764779 0.720508
C21_3 C 0.3160(10) 0.8772(3) 0.7347(3)
C22_3 C 0.2908(14) 0.9640(3) 0.8142(3)
C24_3 C 0.2923(14) 0.9435(4) 0.7774(3)
H16_3 H 0.279301 0.960260 0.753895
C25_3 C 0.3131(11) 0.8980(3) 0.7751(3)
C26_3 C 0.3502(11) 0.8150(3) 0.6674(3)
H17_3 H 0.410022 0.838954 0.667270
C27_3 C 0.1833(11) 0.7448(3) 0.6640(3)
H18_3 H 0.127493 0.719730 0.663651
C28_3 C 0.185(2) 0.5931(5) 0.9574(5)
N10_3 N 0.162(2) 0.5637(5) 0.9380(5)
Au1_3 Au 0.75873(3) 0.78138(2) 0.07826(2)
C1_3 C 0.5649(9) 0.7759(3) 0.0799(2)
C2_3 C 0.9532(10) 0.7863(3) 0.0784(3)
Au2_4 Au 0.21247(5) 0.35460(2) 0.00956(2)
O1_4 O 0.3750(9) 0.1732(2) 0.12126(19)
O2_4 O 0.3569(11) 0.1026(3) 0.2940(2)
N7_4 N 0.2853(10) 0.1196(2) 0.0832(2)
H1_4 H 0.254385 0.092514 0.083053
N8_4 N 0.2739(9) 0.1656(3) 0.2668(2)
H2_4 H 0.245785 0.177316 0.244510
C5_4 C 0.3040(12) 0.0606(3) 0.1510(3)
H5_4 H 0.300583 0.046536 0.125887
C6_4 C 0.3573(10) 0.1983(3) 0.0018(2)
C7_4 C 0.3680(10) 0.1783(3) 0.0384(3)
H7_4 H 0.431962 0.187662 0.057111
C8_4 C 0.3424(10) 0.2131(3) 0.3655(3)
H8_4 H 0.400845 0.208485 0.387039
C11_4 C 0.3283(10) 0.1265(3) 0.1901(2)
H10_4 H 0.342900 0.157311 0.191657
C12_4 C 0.2822(9) 0.1438(3) 0.0472(2)
C13_4 C 0.1932(12) 0.1317(3) 0.0182(3)
H11_4 H 0.132792 0.108470 0.023051
C14_4 C 0.3328(10) 0.1356(3) 0.1178(2)
C15_4 C 0.3224(10) 0.1063(2) 0.1535(2)
C16_4 C 0.2715(10) 0.1922(3) 0.3004(3)
C17_4 C 0.1864(11) 0.2286(3) 0.3015(3)
H12_4 H 0.131820 0.235221 0.279492
C21_4 C 0.3160(10) 0.1228(3) 0.2653(3)
C22_4 C 0.2908(14) 0.0360(3) 0.1858(3)
C24_4 C 0.2923(14) 0.0565(4) 0.2226(3)
H16_4 H 0.279301 0.039740 0.246105
C25_4 C 0.3131(11) 0.1020(3) 0.2249(3)
C26_4 C 0.3502(11) 0.1850(3) 0.3326(3)
H17_4 H 0.410022 0.161046 0.332730
C27_4 C 0.1833(11) 0.2552(3) 0.3360(3)
H18_4 H 0.127493 0.280270 0.336349
C28_4 C 0.185(2) 0.4069(5) 0.0426(5)
N10_4 N 0.162(2) 0.4363(5) 0.0620(5)
N1_4 N 0.0649(8) 0.2140(2) 0.9213(2)
N3_4 N 0.2430(8) 0.2754(2) 0.9510(2)
N4_4 N 0.2695(8) 0.1871(2) 0.9744(2)
C3_4 C 0.2342(11) 0.3053(3) 0.9721(3)
C4_4 C 0.1924(12) 0.1532(3) 0.9824(3)
H3_4 H 0.133585 0.143368 0.962443
H6_4 H 0.416404 0.221582 0.995699
N11_2 N 0.4531(9) 0.2258(2) 0.9186(2)
O3_4 O 0.1930(16) 0.9692(3) 0.2086(3)
N9_4 N 0.3252(15) 0.9666(3) 0.1531(3)
H4_4 H 0.379093 0.982807 0.138863
C9_4 C 0.3124(14) 0.9227(3) 0.1417(3)
C10_4 C 0.2012(12) 0.8542(3) 0.1374(3)
H9_4 H 0.132047 0.835632 0.146312
C18_4 C 0.2143(15) 0.8950(3) 0.1546(3)
H13_4 H 0.156449 0.903960 0.175168
C19_4 C 0.3736(12) 0.8677(3) 0.0953(3)
H14_4 H 0.429414 0.858753 0.074221
C20_4 C 0.2633(17) 0.9877(3) 0.1841(3)
C23_4 C 0.3903(13) 0.9090(3) 0.1109(3)
H15_4 H 0.455477 0.928065 0.100376
Au1_4 Au 0.75873(3) 0.21862(2) 0.92174(2)
C1_4 C 0.5649(9) 0.2241(3) 0.9201(2)
C2_4 C 0.9532(10) 0.2137(3) 0.9216(3)
Au1_5 Au 0.25873(3) 0.28138(2) 0.07826(2)
Fe1 Fe 0.75914(10) 0.28047(3) 0.07962(3)
N1_5 N 0.5649(8) 0.2860(2) 0.0787(2)
N3_5 N 0.7430(8) 0.2246(2) 0.0490(2)
N4_5 N 0.7695(8) 0.3129(2) 0.0256(2)
C1_5 C 0.0649(9) 0.2759(3) 0.0799(2)
C2_5 C 0.4532(10) 0.2863(3) 0.0784(3)
C3_5 C 0.7342(11) 0.1947(3) 0.0279(3)
C4_5 C 0.6924(12) 0.3468(3) 0.0176(3)
H3_5 H 0.633585 0.356632 0.037557
H6_5 H 0.916404 0.278418 0.004301
N11_3 N 0.9531(9) 0.2742(2) 0.0814(2)
N12_3 N 0.7817(9) 0.3389(2) 0.1084(2)
N13_3 N 0.7452(8) 0.2466(2) 0.1322(2)
Au2_5 Au 0.71247(5) 0.14540(2) 0.99044(2)
O1_5 O 0.8750(9) 0.3268(2) 0.87874(19)
N5_3 N 0.7817(9) 0.6611(2) 0.8916(2)
N6_3 N 0.7548(8) 0.2534(2) 0.6322(2)
O2_5 O 0.8569(11) 0.3974(3) 0.7060(2)
O3_5 O 0.6930(16) 0.5308(3) 0.7914(3)
N7_5 N 0.7853(10) 0.3804(2) 0.9168(2)
H1_5 H 0.754385 0.407486 0.916947
N8_5 N 0.7739(9) 0.3344(3) 0.7332(2)
H2_5 H 0.745785 0.322684 0.755490
N9_5 N 0.8252(15) 0.5334(3) 0.8469(3)
H4_5 H 0.879093 0.517193 0.861137
C5_5 C 0.8040(12) 0.4394(3) 0.8490(3)
H5_5 H 0.800583 0.453464 0.874113
C6_5 C 0.8573(10) 0.3017(3) 0.9982(2)
C7_5 C 0.8680(10) 0.3217(3) 0.9616(3)
H7_5 H 0.931962 0.312338 0.942889
C8_5 C 0.8424(10) 0.2869(3) 0.6345(3)
H8_5 H 0.900845 0.291515 0.612961
C9_5 C 0.8124(14) 0.5773(3) 0.8583(3)
C10_5 C 0.7012(12) 0.6458(3) 0.8626(3)
H9_5 H 0.632047 0.664368 0.853688
C11_5 C 0.8283(10) 0.3735(3) 0.8099(2)
H10_5 H 0.842900 0.342689 0.808343
C12_5 C 0.7822(9) 0.3562(3) 0.9528(2)
C13_5 C 0.6932(12) 0.3683(3) 0.9818(3)
H11_5 H 0.632792 0.391530 0.976949
C14_5 C 0.8328(10) 0.3644(3) 0.8822(2)
C15_5 C 0.8224(10) 0.3937(2) 0.8465(2)
C16_5 C 0.7715(10) 0.3078(3) 0.6996(3)
C17_5 C 0.6864(11) 0.2714(3) 0.6985(3)
H12_5 H 0.631820 0.264779 0.720508
C18_5 C 0.7143(15) 0.6050(3) 0.8454(3)
H13_5 H 0.656449 0.596040 0.824832
C19_5 C 0.8736(12) 0.6323(3) 0.9047(3)
H14_5 H 0.929414 0.641247 0.925779
C20_5 C 0.7633(17) 0.5123(3) 0.8159(3)
C21_5 C 0.8160(10) 0.3772(3) 0.7347(3)
C22_5 C 0.7908(14) 0.4640(3) 0.8142(3)
C23_5 C 0.8903(13) 0.5910(3) 0.8891(3)
H15_5 H 0.955477 0.571935 0.899624
C24_5 C 0.7923(14) 0.4435(4) 0.7774(3)
H16_5 H 0.779301 0.460260 0.753895
C25_5 C 0.8131(11) 0.3980(3) 0.7751(3)
C26_5 C 0.8502(11) 0.3150(3) 0.6674(3)
H17_5 H 0.910022 0.338954 0.667270
C27_5 C 0.6833(11) 0.2448(3) 0.6640(3)
H18_5 H 0.627493 0.219730 0.663651
C28_5 C 0.685(2) 0.0931(5) 0.9574(5)
N10_5 N 0.662(2) 0.0637(5) 0.9380(5)
Fe3_2 Fe 0.75914(10) 0.71953(3) 0.92038(3)
Fe4_3 Fe 0.74086(10) 0.21953(3) 0.57962(3)
Au2_6 Au 0.71247(5) 0.85460(2) 0.00956(2)
O1_6 O 0.8750(9) 0.6732(2) 0.12126(19)
N6_4 N 0.7548(8) 0.7466(2) 0.3678(2)
O2_6 O 0.8569(11) 0.6026(3) 0.2940(2)
O3_6 O 0.6930(16) 0.4692(3) 0.2086(3)
N7_6 N 0.7853(10) 0.6196(2) 0.0832(2)
H1_6 H 0.754385 0.592514 0.083053
N8_6 N 0.7739(9) 0.6656(3) 0.2668(2)
H2_6 H 0.745785 0.677316 0.244510
N9_6 N 0.8252(15) 0.4666(3) 0.1531(3)
H4_6 H 0.879093 0.482807 0.138863
C5_6 C 0.8040(12) 0.5606(3) 0.1510(3)
H5_6 H 0.800583 0.546536 0.125887
C6_6 C 0.8573(10) 0.6983(3) 0.0018(2)
C7_6 C 0.8680(10) 0.6783(3) 0.0384(3)
H7_6 H 0.931962 0.687662 0.057111
C8_6 C 0.8424(10) 0.7131(3) 0.3655(3)
H8_6 H 0.900845 0.708485 0.387039
C9_6 C 0.8124(14) 0.4227(3) 0.1417(3)
C10_6 C 0.7012(12) 0.3542(3) 0.1374(3)
H9_6 H 0.632047 0.335632 0.146312
C11_6 C 0.8283(10) 0.6265(3) 0.1901(2)
H10_6 H 0.842900 0.657311 0.191657
C12_6 C 0.7822(9) 0.6438(3) 0.0472(2)
C13_6 C 0.6932(12) 0.6317(3) 0.0182(3)
H11_6 H 0.632792 0.608470 0.023051
C14_6 C 0.8328(10) 0.6356(3) 0.1178(2)
C15_6 C 0.8224(10) 0.6063(2) 0.1535(2)
C16_6 C 0.7715(10) 0.6922(3) 0.3004(3)
C17_6 C 0.6864(11) 0.7286(3) 0.3015(3)
H12_6 H 0.631820 0.735221 0.279492
C18_6 C 0.7143(15) 0.3950(3) 0.1546(3)
H13_6 H 0.656449 0.403960 0.175168
C19_6 C 0.8736(12) 0.3677(3) 0.0953(3)
H14_6 H 0.929414 0.358753 0.074221
C20_6 C 0.7633(17) 0.4877(3) 0.1841(3)
C21_6 C 0.8160(10) 0.6228(3) 0.2653(3)
C22_6 C 0.7908(14) 0.5360(3) 0.1858(3)
C23_6 C 0.8903(13) 0.4090(3) 0.1109(3)
H15_6 H 0.955477 0.428065 0.100376
C24_6 C 0.7923(14) 0.5565(4) 0.2226(3)
H16_6 H 0.779301 0.539740 0.246105
C25_6 C 0.8131(11) 0.6020(3) 0.2249(3)
C26_6 C 0.8502(11) 0.6850(3) 0.3326(3)
H17_6 H 0.910022 0.661046 0.332730
C27_6 C 0.6833(11) 0.7552(3) 0.3360(3)
H18_6 H 0.627493 0.780270 0.336349
C28_6 C 0.685(2) 0.9069(5) 0.0426(5)
N10_6 N 0.662(2) 0.9363(5) 0.0620(5)
Fe4_4 Fe 0.74086(10) 0.78047(3) 0.42038(3)
Au1_6 Au 0.25873(3) 0.71862(2) 0.92174(2)
N1_6 N 0.5649(8) 0.7140(2) 0.9213(2)
N3_6 N 0.7430(8) 0.7754(2) 0.9510(2)
N4_6 N 0.7695(8) 0.6871(2) 0.9744(2)
C1_6 C 0.0649(9) 0.7241(3) 0.9201(2)
C2_6 C 0.4532(10) 0.7137(3) 0.9216(3)
C3_6 C 0.7342(11) 0.8053(3) 0.9721(3)
C4_6 C 0.6924(12) 0.6532(3) 0.9824(3)
H3_6 H 0.633585 0.643368 0.962443
H6_6 H 0.916404 0.721582 0.995699
N11_4 N 0.9531(9) 0.7258(2) 0.9186(2)
N13_4 N 0.7452(8) 0.7534(2) 0.8678(2)
Au1_7 Au 0.24127(3) 0.21862(2) 0.57826(2)
N2_3 N 0.5469(9) 0.2258(2) 0.5814(2)
C1_7 C 0.4351(9) 0.2241(3) 0.5799(2)
C2_7 C 0.0468(10) 0.2137(3) 0.5784(3)
Au2_7 Au 0.78753(5) 0.35460(2) 0.49044(2)
N1_7 N 0.9351(8) 0.2140(2) 0.5787(2)
N3_7 N 0.7570(8) 0.2754(2) 0.5490(2)
N4_7 N 0.7305(8) 0.1871(2) 0.5256(2)
O1_7 O 0.6250(9) 0.1732(2) 0.37874(19)
O2_7 O 0.6431(11) 0.1026(3) 0.2060(2)
C3_7 C 0.7658(11) 0.3053(3) 0.5279(3)
N7_7 N 0.7147(10) 0.1196(2) 0.4168(2)
H1_7 H 0.745615 0.092514 0.416947
N8_7 N 0.7261(9) 0.1656(3) 0.2332(2)
H2_7 H 0.754215 0.177316 0.255490
C4_7 C 0.8076(12) 0.1532(3) 0.5176(3)
H3_7 H 0.866415 0.143368 0.537557
C5_7 C 0.6960(12) 0.0606(3) 0.3490(3)
H5_7 H 0.699417 0.046536 0.374113
C6_7 C 0.6427(10) 0.1983(3) 0.4982(2)
H6_7 H 0.583596 0.221582 0.504301
C7_7 C 0.6320(10) 0.1783(3) 0.4616(3)
H7_7 H 0.568038 0.187662 0.442889
C8_7 C 0.6576(10) 0.2131(3) 0.1345(3)
H8_7 H 0.599155 0.208485 0.112961
C11_7 C 0.6717(10) 0.1265(3) 0.3099(2)
H10_7 H 0.657100 0.157311 0.308343
C12_7 C 0.7178(9) 0.1438(3) 0.4528(2)
C13_7 C 0.8068(12) 0.1317(3) 0.4818(3)
H11_7 H 0.867208 0.108470 0.476949
C14_7 C 0.6672(10) 0.1356(3) 0.3822(2)
C15_7 C 0.6776(10) 0.1063(2) 0.3465(2)
C16_7 C 0.7285(10) 0.1922(3) 0.1996(3)
C17_7 C 0.8136(11) 0.2286(3) 0.1985(3)
H12_7 H 0.868180 0.235221 0.220508
C21_7 C 0.6840(10) 0.1228(3) 0.2347(3)
C22_7 C 0.7092(14) 0.0360(3) 0.3142(3)
C24_7 C 0.7077(14) 0.0565(4) 0.2774(3)
H16_7 H 0.720699 0.039740 0.253895
C25_7 C 0.6869(11) 0.1020(3) 0.2751(3)
C26_7 C 0.6498(11) 0.1850(3) 0.1674(3)
H17_7 H 0.589978 0.161046 0.167270
C27_7 C 0.8167(11) 0.2552(3) 0.1640(3)
H18_7 H 0.872507 0.280270 0.163651
C28_7 C 0.815(2) 0.4069(5) 0.4574(5)
N10_7 N 0.838(2) 0.4363(5) 0.4380(5)
N12_4 N 0.7183(9) 0.1611(2) 0.6084(2)
N5_4 N 0.7183(9) 0.8389(2) 0.3916(2)
O3_7 O 0.8070(16) 0.9692(3) 0.2914(3)
N9_7 N 0.6748(15) 0.9666(3) 0.3469(3)
H4_7 H 0.620907 0.982807 0.361137
C9_7 C 0.6876(14) 0.9227(3) 0.3583(3)
C10_7 C 0.7988(12) 0.8542(3) 0.3626(3)
H9_7 H 0.867953 0.835632 0.353688
C18_7 C 0.7857(15) 0.8950(3) 0.3454(3)
H13_7 H 0.843551 0.903960 0.324832
C19_7 C 0.6264(12) 0.8677(3) 0.4047(3)
H14_7 H 0.570586 0.858753 0.425779
C20_7 C 0.7367(17) 0.9877(3) 0.3159(3)
C23_7 C 0.6097(13) 0.9090(3) 0.3891(3)
H15_7 H 0.544523 0.928065 0.399624
Au1_8 Au 0.24127(3) 0.78138(2) 0.42174(2)
N2_4 N 0.5469(9) 0.7742(2) 0.4186(2)
C1_8 C 0.4351(9) 0.7759(3) 0.4201(2)
C2_8 C 0.0468(10) 0.7863(3) 0.4216(3)
O3_8 O 0.8070(16) 0.0308(3) 0.7086(3)
N9_8 N 0.6748(15) 0.0334(3) 0.6531(3)
H4_8 H 0.620907 0.017193 0.638863
C9_8 C 0.6876(14) 0.0773(3) 0.6417(3)
C10_8 C 0.7988(12) 0.1458(3) 0.6374(3)
H9_8 H 0.867953 0.164368 0.646312
C18_8 C 0.7857(15) 0.1050(3) 0.6546(3)
H13_8 H 0.843551 0.096040 0.675168
C19_8 C 0.6264(12) 0.1323(3) 0.5953(3)
H14_8 H 0.570586 0.141247 0.574221
C20_8 C 0.7367(17) 0.0123(3) 0.6841(3)
C23_8 C 0.6097(13) 0.0910(3) 0.6109(3)
H15_8 H 0.544523 0.071935 0.600376
Au2_8 Au 0.78753(5) 0.64540(2) 0.50956(2)
N1_8 N 0.9351(8) 0.7860(2) 0.4213(2)
N3_8 N 0.7570(8) 0.7246(2) 0.4510(2)
N4_8 N 0.7305(8) 0.8129(2) 0.4744(2)
O1_8 O 0.6250(9) 0.8268(2) 0.62126(19)
O2_8 O 0.6431(11) 0.8974(3) 0.7940(2)
C3_8 C 0.7658(11) 0.6947(3) 0.4721(3)
N7_8 N 0.7147(10) 0.8804(2) 0.5832(2)
H1_8 H 0.745615 0.907486 0.583053
N8_8 N 0.7261(9) 0.8344(3) 0.7668(2)
H2_8 H 0.754215 0.822684 0.744510
C4_8 C 0.8076(12) 0.8468(3) 0.4824(3)
H3_8 H 0.866415 0.856632 0.462443
C5_8 C 0.6960(12) 0.9394(3) 0.6510(3)
H5_8 H 0.699417 0.953464 0.625887
C6_8 C 0.6427(10) 0.8017(3) 0.5018(2)
H6_8 H 0.583596 0.778418 0.495699
C7_8 C 0.6320(10) 0.8217(3) 0.5384(3)
H7_8 H 0.568038 0.812338 0.557111
C8_8 C 0.6576(10) 0.7869(3) 0.8655(3)
H8_8 H 0.599155 0.791515 0.887039
C11_8 C 0.6717(10) 0.8735(3) 0.6901(2)
H10_8 H 0.657100 0.842689 0.691657
C12_8 C 0.7178(9) 0.8562(3) 0.5472(2)
C13_8 C 0.8068(12) 0.8683(3) 0.5182(3)
H11_8 H 0.867208 0.891530 0.523051
C14_8 C 0.6672(10) 0.8644(3) 0.6178(2)
C15_8 C 0.6776(10) 0.8937(2) 0.6535(2)
C16_8 C 0.7285(10) 0.8078(3) 0.8004(3)
C17_8 C 0.8136(11) 0.7714(3) 0.8015(3)
H12_8 H 0.868180 0.764779 0.779492
C21_8 C 0.6840(10) 0.8772(3) 0.7653(3)
C22_8 C 0.7092(14) 0.9640(3) 0.6858(3)
C24_8 C 0.7077(14) 0.9435(4) 0.7226(3)
H16_8 H 0.720699 0.960260 0.746105
C25_8 C 0.6869(11) 0.8980(3) 0.7249(3)
C26_8 C 0.6498(11) 0.8150(3) 0.8326(3)
H17_8 H 0.589978 0.838954 0.832730
C27_8 C 0.8167(11) 0.7448(3) 0.8360(3)
H18_8 H 0.872507 0.719730 0.836349
C28_8 C 0.815(2) 0.5931(5) 0.5426(5)
N10_8 N 0.838(2) 0.5637(5) 0.5620(5)
loop_
_geom_bond_atom_site_label_1
_geom_bond_atom_site_label_2
_geom_bond_site_symmetry_1
_geom_bond_site_symmetry_2
Fe2 N2 1_555 1_555
Au1 C1 1_555 1_555
Au2 C3 1_555 1_555
Fe2 N1 1_555 1_555
N1 C2 1_555 1_555
N3 Fe2 1_555 1_555
N4 Fe2 1_555 1_555
O1 C14 1_555 1_555
N5 C10 1_555 1_555
N6 C8 1_555 1_555
O2 C21 1_555 1_555
C2 Au1 1_555 1_555
C3 N3 1_555 1_555
O3 C20 1_555 1_555
N7 H1 1_555 1_555
N8 H2 1_555 1_555
C4 N4 1_555 1_555
H3 C4 1_555 1_555
N9 H4 1_555 1_555
C5 H5 1_555 1_555
C6 N4 1_555 1_555
H6 C6 1_555 1_555
C7 C6 1_555 1_555
H7 C7 1_555 1_555
C8 H8 1_555 1_555
C9 N9 1_555 1_555
C10 H9 1_555 1_555
C11 H10 1_555 1_555
C12 N7 1_555 1_555
C13 C4 1_555 1_555
H11 C13 1_555 1_555
C14 N7 1_555 1_555
C15 C5 1_555 1_555
C16 N8 1_555 1_555
C17 C16 1_555 1_555
H12 C17 1_555 1_555
C18 C9 1_555 1_555
H13 C18 1_555 1_555
C19 N5 1_555 1_555
H14 C19 1_555 1_555
C20 N9 1_555 1_555
C21 N8 1_555 1_555
C22 C5 1_555 1_555
C23 C9 1_555 1_555
H15 C23 1_555 1_555
C24 C22 1_555 1_555
H16 C24 1_555 1_555
C25 C11 1_555 1_555
C26 C8 1_555 1_555
H17 C26 1_555 1_555
C27 N6 1_555 1_555
H18 C27 1_555 1_555
C28 Au2 1_555 1_555
N10 C28 1_555 1_555
Fe3 N5 1_555 1_555
Fe4 N6 1_555 1_555
N12 Fe2 1_555 1_555
N13 Fe2 1_555 1_555
C7 C12 1_555 1_555
C10 C18 1_555 1_555
C11 C15 1_555 1_555
C12 C13 1_555 1_555
C14 C15 1_555 1_555
C16 C26 1_555 1_555
C17 C27 1_555 1_555
C19 C23 1_555 1_555
C20 C22 1_555 1_555
C21 C25 1_555 1_555
C24 C25 1_555 1_555
Fe3 N2_2 1_555 1_555
Au1_2 C1_2 1_555 1_555
Au2_2 C3_2 1_555 1_555
Fe3 N1_2 1_555 1_555
N1_2 C2_2 1_555 1_555
N3_2 Fe3 1_555 1_555
N4_2 Fe3 1_555 1_555
O1_2 C14_2 1_555 1_555
N12 C10_2 1_555 1_555
N6_2 C8_2 1_555 1_555
O2_2 C21_2 1_555 1_555
C2_2 Au1_2 1_555 1_555
C3_2 N3_2 1_555 1_555
O3_2 C20_2 1_555 1_555
N7_2 H1_2 1_555 1_555
N8_2 H2_2 1_555 1_555
C4_2 N4_2 1_555 1_555
H3_2 C4_2 1_555 1_555
N9_2 H4_2 1_555 1_555
C5_2 H5_2 1_555 1_555
C6_2 N4_2 1_555 1_555
H6_2 C6_2 1_555 1_555
C7_2 C6_2 1_555 1_555
H7_2 C7_2 1_555 1_555
C8_2 H8_2 1_555 1_555
C9_2 N9_2 1_555 1_555
C10_2 H9_2 1_555 1_555
C11_2 H10_2 1_555 1_555
C12_2 N7_2 1_555 1_555
C13_2 C4_2 1_555 1_555
H11_2 C13_2 1_555 1_555
C14_2 N7_2 1_555 1_555
C15_2 C5_2 1_555 1_555
C16_2 N8_2 1_555 1_555
C17_2 C16_2 1_555 1_555
H12_2 C17_2 1_555 1_555
C18_2 C9_2 1_555 1_555
H13_2 C18_2 1_555 1_555
C19_2 N12 1_555 1_555
H14_2 C19_2 1_555 1_555
C20_2 N9_2 1_555 1_555
C21_2 N8_2 1_555 1_555
C22_2 C5_2 1_555 1_555
C23_2 C9_2 1_555 1_555
H15_2 C23_2 1_555 1_555
C24_2 C22_2 1_555 1_555
H16_2 C24_2 1_555 1_555
C25_2 C11_2 1_555 1_555
C26_2 C8_2 1_555 1_555
H17_2 C26_2 1_555 1_555
C27_2 N6_2 1_555 1_555
H18_2 C27_2 1_555 1_555
C28_2 Au2_2 1_555 1_555
N10_2 C28_2 1_555 1_555
Fe4_2 N6_2 1_555 1_555
N13_2 Fe3 1_555 1_555
C7_2 C12_2 1_555 1_555
C10_2 C18_2 1_555 1_555
C11_2 C15_2 1_555 1_555
C12_2 C13_2 1_555 1_555
C14_2 C15_2 1_555 1_555
C16_2 C26_2 1_555 1_555
C17_2 C27_2 1_555 1_555
C19_2 C23_2 1_555 1_555
C20_2 C22_2 1_555 1_555
C21_2 C25_2 1_555 1_555
C24_2 C25_2 1_555 1_555
N5_2 C10_3 1_555 1_555
O3_3 C20_3 1_555 1_555
N9_3 H4_3 1_555 1_555
C9_3 N9_3 1_555 1_555
C10_3 H9_3 1_555 1_555
C18_3 C9_3 1_555 1_555
H13_3 C18_3 1_555 1_555
C19_3 N5_2 1_555 1_555
H14_3 C19_3 1_555 1_555
C20_3 N9_3 1_555 1_555
C23_3 C9_3 1_555 1_555
H15_3 C23_3 1_555 1_555
Fe4_2 N5_2 1_555 1_555
C10_3 C18_3 1_555 1_555
C19_3 C23_3 1_555 1_555
Fe4 N1_3 1_555 1_555
N3_3 Fe4 1_555 1_555
N4_3 Fe4 1_555 1_555
C3_3 N3_3 1_555 1_555
C4_3 N4_3 1_555 1_555
H3_3 C4_3 1_555 1_555
N11 Fe4 1_555 1_555
N12_2 Fe4 1_555 1_555
O1_3 C14_3 1_555 1_555
N13 C8_3 1_555 1_555
O2_3 C21_3 1_555 1_555
N7_3 H1_3 1_555 1_555
N8_3 H2_3 1_555 1_555
C5_3 H5_3 1_555 1_555
C7_3 C6_3 1_555 1_555
H7_3 C7_3 1_555 1_555
C8_3 H8_3 1_555 1_555
C11_3 H10_3 1_555 1_555
C12_3 N7_3 1_555 1_555
H11_3 C13_3 1_555 1_555
C14_3 N7_3 1_555 1_555
C15_3 C5_3 1_555 1_555
C16_3 N8_3 1_555 1_555
C17_3 C16_3 1_555 1_555
H12_3 C17_3 1_555 1_555
C21_3 N8_3 1_555 1_555
C22_3 C5_3 1_555 1_555
C24_3 C22_3 1_555 1_555
H16_3 C24_3 1_555 1_555
C25_3 C11_3 1_555 1_555
C26_3 C8_3 1_555 1_555
H17_3 C26_3 1_555 1_555
C27_3 N13 1_555 1_555
H18_3 C27_3 1_555 1_555
C28_3 Au2_3 1_555 1_555
N10_3 C28_3 1_555 1_555
C7_3 C12_3 1_555 1_555
C11_3 C15_3 1_555 1_555
C12_3 C13_3 1_555 1_555
C14_3 C15_3 1_555 1_555
C16_3 C26_3 1_555 1_555
C17_3 C27_3 1_555 1_555
C21_3 C25_3 1_555 1_555
C24_3 C25_3 1_555 1_555
Au1_3 C1_3 1_555 1_555
N11 C1_3 1_555 1_555
C2_3 Au1_3 1_555 1_555
O1_4 C14_4 1_555 1_555
N13_2 C8_4 1_555 1_555
O2_4 C21_4 1_555 1_555
N7_4 H1_4 1_555 1_555
N8_4 H2_4 1_555 1_555
C5_4 H5_4 1_555 1_555
C7_4 C6_4 1_555 1_555
H7_4 C7_4 1_555 1_555
C8_4 H8_4 1_555 1_555
C11_4 H10_4 1_555 1_555
C12_4 N7_4 1_555 1_555
H11_4 C13_4 1_555 1_555
C14_4 N7_4 1_555 1_555
C15_4 C5_4 1_555 1_555
C16_4 N8_4 1_555 1_555
C17_4 C16_4 1_555 1_555
H12_4 C17_4 1_555 1_555
C21_4 N8_4 1_555 1_555
C22_4 C5_4 1_555 1_555
C24_4 C22_4 1_555 1_555
H16_4 C24_4 1_555 1_555
C25_4 C11_4 1_555 1_555
C26_4 C8_4 1_555 1_555
H17_4 C26_4 1_555 1_555
C27_4 N13_2 1_555 1_555
H18_4 C27_4 1_555 1_555
C28_4 Au2_4 1_555 1_555
N10_4 C28_4 1_555 1_555
C7_4 C12_4 1_555 1_555
C11_4 C15_4 1_555 1_555
C12_4 C13_4 1_555 1_555
C14_4 C15_4 1_555 1_555
C16_4 C26_4 1_555 1_555
C17_4 C27_4 1_555 1_555
C21_4 C25_4 1_555 1_555
C24_4 C25_4 1_555 1_555
Fe4_2 N1_4 1_555 1_555
N3_4 Fe4_2 1_555 1_555
N4_4 Fe4_2 1_555 1_555
C3_4 N3_4 1_555 1_555
C4_4 N4_4 1_555 1_555
H3_4 C4_4 1_555 1_555
N11_2 Fe4_2 1_555 1_555
N12_2 C10_4 1_555 1_555
O3_4 C20_4 1_555 1_555
N9_4 H4_4 1_555 1_555
C9_4 N9_4 1_555 1_555
C10_4 H9_4 1_555 1_555
C18_4 C9_4 1_555 1_555
H13_4 C18_4 1_555 1_555
C19_4 N12_2 1_555 1_555
H14_4 C19_4 1_555 1_555
C20_4 N9_4 1_555 1_555
C23_4 C9_4 1_555 1_555
H15_4 C23_4 1_555 1_555
C10_4 C18_4 1_555 1_555
C19_4 C23_4 1_555 1_555
Au1_4 C1_4 1_555 1_555
N11_2 C1_4 1_555 1_555
C2_4 Au1_4 1_555 1_555
Au1_5 C1_5 1_555 1_555
Fe1 N1_5 1_555 1_555
N1_5 C2_5 1_555 1_555
N3_5 Fe1 1_555 1_555
N4_5 Fe1 1_555 1_555
C2_5 Au1_5 1_555 1_555
C3_5 N3_5 1_555 1_555
C4_5 N4_5 1_555 1_555
H3_5 C4_5 1_555 1_555
N11_3 Fe1 1_555 1_555
N12_3 Fe1 1_555 1_555
N13_3 Fe1 1_555 1_555
O1_5 C14_5 1_555 1_555
N5_3 C10_5 1_555 1_555
N6_3 C8_5 1_555 1_555
O2_5 C21_5 1_555 1_555
O3_5 C20_5 1_555 1_555
N7_5 H1_5 1_555 1_555
N8_5 H2_5 1_555 1_555
N9_5 H4_5 1_555 1_555
C5_5 H5_5 1_555 1_555
C7_5 C6_5 1_555 1_555
H7_5 C7_5 1_555 1_555
C8_5 H8_5 1_555 1_555
C9_5 N9_5 1_555 1_555
C10_5 H9_5 1_555 1_555
C11_5 H10_5 1_555 1_555
C12_5 N7_5 1_555 1_555
H11_5 C13_5 1_555 1_555
C14_5 N7_5 1_555 1_555
C15_5 C5_5 1_555 1_555
C16_5 N8_5 1_555 1_555
C17_5 C16_5 1_555 1_555
H12_5 C17_5 1_555 1_555
C18_5 C9_5 1_555 1_555
H13_5 C18_5 1_555 1_555
C19_5 N5_3 1_555 1_555
H14_5 C19_5 1_555 1_555
C20_5 N9_5 1_555 1_555
C21_5 N8_5 1_555 1_555
C22_5 C5_5 1_555 1_555
C23_5 C9_5 1_555 1_555
H15_5 C23_5 1_555 1_555
C24_5 C22_5 1_555 1_555
H16_5 C24_5 1_555 1_555
C25_5 C11_5 1_555 1_555
C26_5 C8_5 1_555 1_555
H17_5 C26_5 1_555 1_555
C27_5 N6_3 1_555 1_555
H18_5 C27_5 1_555 1_555
C28_5 Au2_5 1_555 1_555
N10_5 C28_5 1_555 1_555
Fe3_2 N5_3 1_555 1_555
Fe4_3 N6_3 1_555 1_555
C7_5 C12_5 1_555 1_555
C10_5 C18_5 1_555 1_555
C11_5 C15_5 1_555 1_555
C12_5 C13_5 1_555 1_555
C14_5 C15_5 1_555 1_555
C16_5 C26_5 1_555 1_555
C17_5 C27_5 1_555 1_555
C19_5 C23_5 1_555 1_555
C20_5 C22_5 1_555 1_555
C21_5 C25_5 1_555 1_555
C24_5 C25_5 1_555 1_555
O1_6 C14_6 1_555 1_555
N12_3 C10_6 1_555 1_555
N6_4 C8_6 1_555 1_555
O2_6 C21_6 1_555 1_555
O3_6 C20_6 1_555 1_555
N7_6 H1_6 1_555 1_555
N8_6 H2_6 1_555 1_555
N9_6 H4_6 1_555 1_555
C5_6 H5_6 1_555 1_555
C7_6 C6_6 1_555 1_555
H7_6 C7_6 1_555 1_555
C8_6 H8_6 1_555 1_555
C9_6 N9_6 1_555 1_555
C10_6 H9_6 1_555 1_555
C11_6 H10_6 1_555 1_555
C12_6 N7_6 1_555 1_555
H11_6 C13_6 1_555 1_555
C14_6 N7_6 1_555 1_555
C15_6 C5_6 1_555 1_555
C16_6 N8_6 1_555 1_555
C17_6 C16_6 1_555 1_555
H12_6 C17_6 1_555 1_555
C18_6 C9_6 1_555 1_555
H13_6 C18_6 1_555 1_555
C19_6 N12_3 1_555 1_555
H14_6 C19_6 1_555 1_555
C20_6 N9_6 1_555 1_555
C21_6 N8_6 1_555 1_555
C22_6 C5_6 1_555 1_555
C23_6 C9_6 1_555 1_555
H15_6 C23_6 1_555 1_555
C24_6 C22_6 1_555 1_555
H16_6 C24_6 1_555 1_555
C25_6 C11_6 1_555 1_555
C26_6 C8_6 1_555 1_555
H17_6 C26_6 1_555 1_555
C27_6 N6_4 1_555 1_555
H18_6 C27_6 1_555 1_555
C28_6 Au2_6 1_555 1_555
N10_6 C28_6 1_555 1_555
Fe4_4 N6_4 1_555 1_555
C7_6 C12_6 1_555 1_555
C10_6 C18_6 1_555 1_555
C11_6 C15_6 1_555 1_555
C12_6 C13_6 1_555 1_555
C14_6 C15_6 1_555 1_555
C16_6 C26_6 1_555 1_555
C17_6 C27_6 1_555 1_555
C19_6 C23_6 1_555 1_555
C20_6 C22_6 1_555 1_555
C21_6 C25_6 1_555 1_555
C24_6 C25_6 1_555 1_555
Au1_6 C1_6 1_555 1_555
Fe3_2 N1_6 1_555 1_555
N1_6 C2_6 1_555 1_555
N3_6 Fe3_2 1_555 1_555
N4_6 Fe3_2 1_555 1_555
C2_6 Au1_6 1_555 1_555
C3_6 N3_6 1_555 1_555
C4_6 N4_6 1_555 1_555
H3_6 C4_6 1_555 1_555
N11_4 Fe3_2 1_555 1_555
N13_4 Fe3_2 1_555 1_555
Au1_7 C1_7 1_555 1_555
N2_3 C1_7 1_555 1_555
C2_7 Au1_7 1_555 1_555
Fe4_3 N2_3 1_555 1_555
Au2_7 C3_7 1_555 1_555
Fe4_3 N1_7 1_555 1_555
N3_7 Fe4_3 1_555 1_555
N4_7 Fe4_3 1_555 1_555
O1_7 C14_7 1_555 1_555
N13_3 C8_7 1_555 1_555
O2_7 C21_7 1_555 1_555
C3_7 N3_7 1_555 1_555
N7_7 H1_7 1_555 1_555
N8_7 H2_7 1_555 1_555
C4_7 N4_7 1_555 1_555
H3_7 C4_7 1_555 1_555
C5_7 H5_7 1_555 1_555
C6_7 N4_7 1_555 1_555
H6_7 C6_7 1_555 1_555
C7_7 C6_7 1_555 1_555
H7_7 C7_7 1_555 1_555
C8_7 H8_7 1_555 1_555
C11_7 H10_7 1_555 1_555
C12_7 N7_7 1_555 1_555
C13_7 C4_7 1_555 1_555
H11_7 C13_7 1_555 1_555
C14_7 N7_7 1_555 1_555
C15_7 C5_7 1_555 1_555
C16_7 N8_7 1_555 1_555
C17_7 C16_7 1_555 1_555
H12_7 C17_7 1_555 1_555
C21_7 N8_7 1_555 1_555
C22_7 C5_7 1_555 1_555
C24_7 C22_7 1_555 1_555
H16_7 C24_7 1_555 1_555
C25_7 C11_7 1_555 1_555
C26_7 C8_7 1_555 1_555
H17_7 C26_7 1_555 1_555
C27_7 N13_3 1_555 1_555
H18_7 C27_7 1_555 1_555
C28_7 Au2_7 1_555 1_555
N10_7 C28_7 1_555 1_555
N12_4 Fe4_3 1_555 1_555
C7_7 C12_7 1_555 1_555
C11_7 C15_7 1_555 1_555
C12_7 C13_7 1_555 1_555
C14_7 C15_7 1_555 1_555
C16_7 C26_7 1_555 1_555
C17_7 C27_7 1_555 1_555
C21_7 C25_7 1_555 1_555
C24_7 C25_7 1_555 1_555
N5_4 C10_7 1_555 1_555
O3_7 C20_7 1_555 1_555
N9_7 H4_7 1_555 1_555
C9_7 N9_7 1_555 1_555
C10_7 H9_7 1_555 1_555
C18_7 C9_7 1_555 1_555
H13_7 C18_7 1_555 1_555
C19_7 N5_4 1_555 1_555
H14_7 C19_7 1_555 1_555
C20_7 N9_7 1_555 1_555
C23_7 C9_7 1_555 1_555
H15_7 C23_7 1_555 1_555
Fe4_4 N5_4 1_555 1_555
C10_7 C18_7 1_555 1_555
C19_7 C23_7 1_555 1_555
Au1_8 C1_8 1_555 1_555
N2_4 C1_8 1_555 1_555
C2_8 Au1_8 1_555 1_555
Fe4_4 N2_4 1_555 1_555
N12_4 C10_8 1_555 1_555
O3_8 C20_8 1_555 1_555
N9_8 H4_8 1_555 1_555
C9_8 N9_8 1_555 1_555
C10_8 H9_8 1_555 1_555
C18_8 C9_8 1_555 1_555
H13_8 C18_8 1_555 1_555
C19_8 N12_4 1_555 1_555
H14_8 C19_8 1_555 1_555
C20_8 N9_8 1_555 1_555
C23_8 C9_8 1_555 1_555
H15_8 C23_8 1_555 1_555
C10_8 C18_8 1_555 1_555
C19_8 C23_8 1_555 1_555
Au2_8 C3_8 1_555 1_555
Fe4_4 N1_8 1_555 1_555
N3_8 Fe4_4 1_555 1_555
N4_8 Fe4_4 1_555 1_555
O1_8 C14_8 1_555 1_555
N13_4 C8_8 1_555 1_555
O2_8 C21_8 1_555 1_555
C3_8 N3_8 1_555 1_555
N7_8 H1_8 1_555 1_555
N8_8 H2_8 1_555 1_555
C4_8 N4_8 1_555 1_555
H3_8 C4_8 1_555 1_555
C5_8 H5_8 1_555 1_555
C6_8 N4_8 1_555 1_555
H6_8 C6_8 1_555 1_555
C7_8 C6_8 1_555 1_555
H7_8 C7_8 1_555 1_555
C8_8 H8_8 1_555 1_555
C11_8 H10_8 1_555 1_555
C12_8 N7_8 1_555 1_555
C13_8 C4_8 1_555 1_555
H11_8 C13_8 1_555 1_555
C14_8 N7_8 1_555 1_555
C15_8 C5_8 1_555 1_555
C16_8 N8_8 1_555 1_555
C17_8 C16_8 1_555 1_555
H12_8 C17_8 1_555 1_555
C21_8 N8_8 1_555 1_555
C22_8 C5_8 1_555 1_555
C24_8 C22_8 1_555 1_555
H16_8 C24_8 1_555 1_555
C25_8 C11_8 1_555 1_555
C26_8 C8_8 1_555 1_555
H17_8 C26_8 1_555 1_555
C27_8 N13_4 1_555 1_555
H18_8 C27_8 1_555 1_555
C28_8 Au2_8 1_555 1_555
N10_8 C28_8 1_555 1_555
C7_8 C12_8 1_555 1_555
C11_8 C15_8 1_555 1_555
C12_8 C13_8 1_555 1_555
C14_8 C15_8 1_555 1_555
C16_8 C26_8 1_555 1_555
C17_8 C27_8 1_555 1_555
C21_8 C25_8 1_555 1_555
C24_8 C25_8 1_555 1_555

#END
