
###############################################################################
#
# This file contains modified crystal structure data generated from the
# MOF subset of the Cambridge Structural Database (CSD) v543 
# hosted by the Cambridge Crystallographic Data Centre (CCDC).
#
# This work is licensed under the Creative Commons
# Attribution-NonCommercial-ShareAlike 4.0 International License.
# To view a copy of this license, visit
# http://creativecommons.org/licenses/by-nc-sa/4.0/
# or send a letter to
# Creative Commons, PO Box 1866, Mountain View, CA 94042, USA.
#
# CIF created using the CSD Python API on 29 September 2022
# The structure has been converted into the P1 space group
# The structure has a 3D framework
# The original CSD entry WAMLOP is in the triclinic crystal system
# The framework has been calculated to contain at least 10.0% void space
# The void calculation uses a probe of radius 1.32A, grid spacing 0.4
#
###############################################################################

data_WAMLOP
_chemical_formula_moiety         '(C168 H136 I12 N24 O32 Tb4)n'
_symmetry_cell_setting           triclinic
_symmetry_space_group_name_H-M   'P 1'
_symmetry_Int_Tables_number      1
_space_group_name_Hall           'P 1'
loop_
_symmetry_equiv_pos_site_id
_symmetry_equiv_pos_as_xyz
1 x,y,z
_cell_length_a                   16.0139(5)
_cell_length_b                   18.1478(6)
_cell_length_c                   21.9730(7)
_cell_angle_alpha                71.715(2)
_cell_angle_beta                 88.119(2)
_cell_angle_gamma                64.898(2)
_cell_volume                     5453.18
loop_
_atom_site_label
_atom_site_type_symbol
_atom_site_fract_x
_atom_site_fract_y
_atom_site_fract_z
O11 O 0.6824(5) 0.0182(5) 0.3758(4)
O12 O 0.5532(5) 0.0935(5) 0.4093(4)
N7 N 0.4274(6) 0.3623(6) 0.0706(4)
C43 C 0.6043(8) 0.0827(7) 0.3644(5)
C44 C 0.5743(8) 0.1491(7) 0.2984(5)
C45 C 0.4963(8) 0.2265(8) 0.2860(6)
H31 H 0.4581 0.2373 0.3192
C46 C 0.4732(9) 0.2887(8) 0.2253(6)
H32 H 0.4192 0.3419 0.2168
C47 C 0.5298(8) 0.2727(8) 0.1770(6)
C48 C 0.6056(9) 0.1939(9) 0.1882(6)
H33 H 0.6413 0.1819 0.1542
C49 C 0.6294(9) 0.1329(8) 0.2488(6)
H34 H 0.6831 0.0796 0.2570
C50 C 0.5105(9) 0.3444(9) 0.1121(6)
H35 H 0.5012 0.3979 0.1202
H36 H 0.5656 0.3280 0.0885
C51 C 0.3684(10) 0.4460(8) 0.0389(6)
H37 H 0.3784 0.4906 0.0463
C54 C 0.3422(8) 0.3154(8) 0.0182(6)
H39 H 0.3342 0.2694 0.0116
C55 C 0.4150(8) 0.2988(7) 0.0617(6)
H40 H 0.4563 0.2408 0.0852
Tb2 Tb 0.59163(5) 0.06094(4) 0.00629(3)
O3 O 0.6803(6) 0.0069(5) 0.1139(4)
H2 H 0.0277 0.0168 0.5829
O13 O 0.5999(6) 0.1841(6) 0.0211(4)
H61 H 0.655(5) 0.162(9) 0.040(7)
O22 O 0.4829(6) 0.0975(5) 0.0790(4)
O4 O 0.6347(6) 0.9221(5) 0.0874(4)
O5 O 0.5537(6) 0.0251(5) 0.5454(4)
O6 O 0.4225(5) 0.0825(5) 0.5858(4)
N1 N 0.2462(6) 0.8085(7) 0.6505(5)
N2 N 0.5399(7) 0.6471(6) 0.5714(5)
N3 N 0.5253(7) 0.5395(6) 0.6598(5)
N4 N 0.6502(8) 0.5018(7) 0.5971(5)
N5 N 0.7782(7) 0.6540(7) 0.4206(5)
N6 N 0.6787(7) 0.2188(6) 0.7410(4)
C4 C 0.0120(9) 0.9701(9) 0.5901(6)
C5 C 0.0730(8) 0.8877(8) 0.6274(6)
C6 C 0.0527(8) 0.8185(8) 0.6359(6)
H3 H 0.0970 0.7615 0.6590
C8 C 0.1602(8) 0.8770(9) 0.6621(7)
H5 H 0.1648 0.9325 0.6471
H6 H 0.1553 0.8622 0.7090
C9 C 0.2791(9) 0.8252(8) 0.5936(6)
H7 H 0.2457 0.8789 0.5606
C10 C 0.3601(8) 0.7658(8) 0.5827(6)
H8 H 0.3842 0.7792 0.5427
C11 C 0.4073(8) 0.6863(8) 0.6294(6)
C12 C 0.3693(9) 0.6689(9) 0.6885(6)
H9 H 0.3987 0.6144 0.7214
C13 C 0.2903(9) 0.7316(9) 0.6971(6)
H10 H 0.2655 0.7212 0.7371
C14 C 0.4956(8) 0.6212(7) 0.6196(5)
C15 C 0.6184(8) 0.5856(7) 0.5630(5)
C16 C 0.6002(8) 0.4828(7) 0.6440(6)
C17 C 0.6708(8) 0.6106(8) 0.5110(6)
C18 C 0.7449(11) 0.5461(9) 0.4939(7)
H11 H 0.7591 0.4868 0.5133
C19 C 0.7954(10) 0.5727(10) 0.4480(8)
H12 H 0.8453 0.5304 0.4354
C20 C 0.8424(10) 0.6784(10) 0.3761(6)
H13 H 0.8778 0.6981 0.3980
H14 H 0.8874 0.6269 0.3665
C21 C 0.7057(9) 0.7174(9) 0.4352(6)
H15 H 0.6932 0.7760 0.4143
C22 C 0.6503(9) 0.6969(8) 0.4800(6)
H16 H 0.5988 0.7410 0.4896
C23 C 0.7062(10) 0.7933(9) 0.2107(6)
H17 H 0.6758 0.7820 0.1808
C24 C 0.7087(8) 0.8740(8) 0.1943(6)
C25 C 0.7502(9) 0.8902(9) 0.2390(6)
H18 H 0.7512 0.9447 0.2289
C26 C 0.7903(10) 0.8285(10) 0.2983(6)
H19 H 0.8177 0.8414 0.3288
C27 C 0.7914(8) 0.7482(9) 0.3142(6)
C28 C 0.7479(10) 0.7300(9) 0.2704(6)
H20 H 0.7467 0.6756 0.2811
C29 C 0.6704(7) 0.9387(7) 0.1281(6)
C30 C 0.6316(8) 0.3897(8) 0.6818(6)
C31 C 0.7053(10) 0.3270(8) 0.6640(7)
H21 H 0.7389 0.3435 0.6302
C32 C 0.7281(9) 0.2432(8) 0.6951(7)
H22 H 0.7802 0.2004 0.6845
C33 C 0.6089(9) 0.2770(8) 0.7605(6)
H23 H 0.5768 0.2583 0.7945
C34 C 0.5838(9) 0.3636(8) 0.7317(6)
H24 H 0.5346 0.4049 0.7456
C35 C 0.6969(9) 0.1252(7) 0.7669(6)
H25 H 0.7645 0.0878 0.7723
H26 H 0.6738 0.1127 0.8095
C36 C 0.6482(8) 0.1080(7) 0.7203(5)
C37 C 0.5600(8) 0.1127(7) 0.7280(6)
H27 H 0.5305 0.1264 0.7638
C38 C 0.5140(9) 0.0976(8) 0.6839(6)
H28 H 0.4538 0.1004 0.6897
C39 C 0.5570(7) 0.0784(7) 0.6314(5)
C40 C 0.6440(8) 0.0755(7) 0.6229(5)
H29 H 0.6725 0.0640 0.5862
C41 C 0.6901(8) 0.0892(7) 0.6673(6)
H30 H 0.7505 0.0857 0.6615
C42 C 0.5070(8) 0.0608(7) 0.5844(5)
Tb5 Tb 0.34771(4) 0.04857(4) 0.51542(3)
O1 O 0.2251(6) 0.1192(5) 0.4225(4)
O2 O 0.2369(6) 0.0007(5) 0.4972(4)
C1 C 0.1914(8) 0.0682(7) 0.4495(5)
C2 C 0.0962(8) 0.0847(7) 0.4248(5)
C3 C 0.0727(9) 0.0166(8) 0.4366(6)
C7 C 0.0331(8) 0.1664(8) 0.3896(5)
H4 H 0.0486 0.2132 0.3827
O15 O 0.3811(6) 0.1605(5) 0.4433(4)
H65 H 0.437(4) 0.129(8) 0.439(6)
H66 H 0.357(8) 0.199(7) 0.406(3)
O16 O 0.2163(6) 0.1569(6) 0.5411(4)
H67 H 0.168(6) 0.153(9) 0.557(8)
H68 H 0.204(9) 0.210(3) 0.522(8)
O7 O 0.3413(6) 0.8741(5) 0.0855(4)
O8 O 0.2489(6) 0.9948(5) 0.0106(4)
O9 O 0.4219(6) 0.0243(5) 0.0477(4)
N12 N 0.0888(6) 0.2190(6) 0.2421(4)
C65 C 0.0212(8) 0.8971(8) 0.1256(6)
C66 C 0.1076(9) 0.8255(8) 0.1404(6)
H47 H 0.1133 0.7701 0.1658
C67 C 0.1849(8) 0.8360(8) 0.1177(6)
H48 H 0.2437 0.7873 0.1269
C68 C 0.1774(8) 0.9170(7) 0.0816(5)
C69 C 0.0892(9) 0.9880(8) 0.0663(6)
C70 C 0.0127(8) 0.9778(9) 0.0883(6)
C71 C 0.2598(8) 0.9296(8) 0.0578(5)
C73 C 0.0447(9) 0.3660(8) 0.2225(6)
H51 H 0.0553 0.4097 0.2310
C74 C 0.1029(9) 0.2827(8) 0.2533(6)
H52 H 0.1539 0.2684 0.2827
C75 C 0.0155(9) 0.2387(7) 0.2024(6)
H53 H 0.0046 0.1936 0.1967
C77 C 0.1609(8) 0.1287(7) 0.2695(5)
H55 H 0.1928 0.1202 0.3107
H56 H 0.1322 0.0882 0.2780
C78 C 0.2302(8) 0.1121(7) 0.2203(5)
C79 C 0.2111(8) 0.0910(7) 0.1678(6)
H57 H 0.1550 0.0861 0.1632
C80 C 0.2728(8) 0.0773(7) 0.1234(5)
H58 H 0.2595 0.0627 0.0881
C81 C 0.3554(8) 0.0846(7) 0.1297(5)
C82 C 0.3743(8) 0.1064(8) 0.1813(6)
H59 H 0.4295 0.1128 0.1854
C83 C 0.3117(8) 0.1189(7) 0.2272(5)
H60 H 0.3253 0.1321 0.2632
C84 C 0.4246(8) 0.0671(7) 0.0816(5)
H62 H 0.407(9) 0.770(5) 0.010(5)
O14 O 0.5434(6) 0.8371(6) 0.0646(5)
H63 H 0.561(10) 0.786(4) 0.091(5)
H64 H 0.564(11) 0.864(8) 0.081(7)
N8 N 0.1536(7) 0.5057(6) 0.9039(5)
N9 N 0.0715(7) 0.4599(6) 0.8470(5)
N10 N 0.1972(7) 0.3559(6) 0.9275(5)
N11 N 0.0786(7) 0.1814(6) 0.8554(5)
C52 C 0.2953(8) 0.4668(8) 0.9965(6)
H38 H 0.2540 0.5256 0.9752
C53 C 0.2812(8) 0.4016(7) 0.9845(5)
C56 C 0.2075(8) 0.4224(7) 0.9367(5)
C57 C 0.0870(8) 0.5209(7) 0.8597(5)
C58 C 0.1279(8) 0.3783(7) 0.8839(6)
C59 C 0.1073(8) 0.3098(7) 0.8740(6)
C60 C 0.0605(9) 0.3241(8) 0.8172(6)
H41 H 0.0379 0.3786 0.7841
C61 C 0.0471(9) 0.2578(8) 0.8096(6)
H42 H 0.0147 0.2667 0.7706
C62 C 0.1231(8) 0.1657(8) 0.9115(6)
H43 H 0.1436 0.1106 0.9439
C63 C 0.1398(8) 0.2309(8) 0.9227(6)
H44 H 0.1720 0.2210 0.9622
C64 C 0.0635(9) 0.1092(9) 0.8456(7)
H45 H 0.1189 0.0539 0.8657
H46 H 0.0562 0.1187 0.7988
C72 C 0.0292(8) 0.6105(7) 0.8205(6)
C76 C 0.0438(9) 0.6778(8) 0.8301(6)
H54 H 0.0947 0.6648 0.8591
Tb4 Tb 0.65229(4) 0.95143(4) 0.48458(3)
H62_2 H 0.593(9) 0.230(5) 0.990(5)
O14_2 O 0.4566(6) 0.1629(6) 0.9354(5)
H63_2 H 0.439(10) 0.214(4) 0.909(5)
H64_2 H 0.436(11) 0.136(8) 0.919(7)
O20 O 0.6587(6) 0.1259(5) 0.9145(4)
O21 O 0.7511(6) 0.0052(5) 0.9894(4)
O9_2 O 0.5781(6) 0.9757(5) 0.9523(4)
O10 O 0.5171(6) 0.9025(5) 0.9210(4)
N12_2 N 0.9112(6) 0.7810(6) 0.7579(4)
C65_2 C 0.9788(8) 0.1029(8) 0.8744(6)
C66_2 C 0.8924(9) 0.1745(8) 0.8596(6)
H47_2 H 0.8867 0.2299 0.8342
C67_2 C 0.8151(8) 0.1640(8) 0.8823(6)
H48_2 H 0.7563 0.2127 0.8731
C68_2 C 0.8226(8) 0.0830(7) 0.9184(5)
C69_2 C 0.9108(9) 0.0120(8) 0.9337(6)
C70_2 C 0.9873(8) 0.0222(9) 0.9117(6)
C71_2 C 0.7402(8) 0.0704(8) 0.9422(5)
C73_2 C 0.9553(9) 0.6340(8) 0.7775(6)
H51_2 H 0.9447 0.5903 0.7690
C74_2 C 0.8971(9) 0.7173(8) 0.7467(6)
H52_2 H 0.8461 0.7316 0.7173
C75_2 C 0.9845(9) 0.7613(7) 0.7976(6)
H53_2 H 0.9954 0.8064 0.8033
C77_2 C 0.8391(8) 0.8713(7) 0.7305(5)
H55_2 H 0.8072 0.8798 0.6893
H56_2 H 0.8678 0.9118 0.7220
C78_2 C 0.7698(8) 0.8879(7) 0.7797(5)
C79_2 C 0.7889(8) 0.9090(7) 0.8322(6)
H57_2 H 0.8450 0.9139 0.8368
C80_2 C 0.7272(8) 0.9227(7) 0.8766(5)
H58_2 H 0.7405 0.9373 0.9119
C81_2 C 0.6446(8) 0.9154(7) 0.8703(5)
C82_2 C 0.6257(8) 0.8936(8) 0.8187(6)
H59_2 H 0.5705 0.8872 0.8146
C83_2 C 0.6883(8) 0.8811(7) 0.7728(5)
H60_2 H 0.6747 0.8679 0.7368
C84_2 C 0.5754(8) 0.9329(7) 0.9184(5)
Tb7 Tb 0.40837(5) 0.93906(4) 0.99371(3)
O15_2 O 0.6189(6) 0.8395(5) 0.5567(4)
H65_2 H 0.563(4) 0.871(8) 0.561(6)
H66_2 H 0.643(8) 0.801(7) 0.594(3)
O16_2 O 0.7837(6) 0.8431(6) 0.4589(4)
H67_2 H 0.832(6) 0.847(9) 0.443(8)
H68_2 H 0.796(9) 0.790(3) 0.478(8)
O17 O 0.7749(6) 0.8808(5) 0.5775(4)
O18 O 0.7631(6) 0.9993(5) 0.5028(4)
O19 O 0.5775(5) 0.9175(5) 0.4142(4)
C1_2 C 0.8086(8) 0.9318(7) 0.5505(5)
C2_2 C 0.9038(8) 0.9153(7) 0.5752(5)
C3_2 C 0.9273(9) 0.9834(8) 0.5634(6)
C7_2 C 0.9669(8) 0.8336(8) 0.6104(5)
H4_2 H 0.9514 0.7868 0.6173
O4_2 O 0.3653(6) 0.0779(5) 0.9126(4)
O5_2 O 0.4463(6) 0.9749(5) 0.4546(4)
N1_2 N 0.7538(6) 0.1915(7) 0.3495(5)
N2_2 N 0.4601(7) 0.3529(6) 0.4286(5)
N3_2 N 0.4747(7) 0.4605(6) 0.3402(5)
N4_2 N 0.3498(8) 0.4982(7) 0.4029(5)
N5_2 N 0.2218(7) 0.3460(7) 0.5794(5)
N6_2 N 0.3213(7) 0.7812(6) 0.2590(4)
C4_2 C 0.9880(9) 0.0299(9) 0.4099(6)
C5_2 C 0.9270(8) 0.1123(8) 0.3726(6)
C6_2 C 0.9473(8) 0.1815(8) 0.3641(6)
H3_2 H 0.9030 0.2385 0.3410
C8_2 C 0.8398(8) 0.1230(9) 0.3379(7)
H5_2 H 0.8352 0.0675 0.3529
H6_2 H 0.8447 0.1378 0.2910
C9_2 C 0.7209(9) 0.1748(8) 0.4064(6)
H7_2 H 0.7543 0.1211 0.4394
C10_2 C 0.6399(8) 0.2342(8) 0.4173(6)
H8_2 H 0.6158 0.2208 0.4573
C11_2 C 0.5927(8) 0.3137(8) 0.3706(6)
C12_2 C 0.6307(9) 0.3311(9) 0.3115(6)
H9_2 H 0.6013 0.3856 0.2786
C13_2 C 0.7097(9) 0.2684(9) 0.3029(6)
H10_2 H 0.7345 0.2788 0.2629
C14_2 C 0.5044(8) 0.3788(7) 0.3804(5)
C15_2 C 0.3816(8) 0.4144(7) 0.4370(5)
C16_2 C 0.3998(8) 0.5172(7) 0.3560(6)
C17_2 C 0.3292(8) 0.3894(8) 0.4890(6)
C18_2 C 0.2551(11) 0.4539(9) 0.5061(7)
H11_2 H 0.2409 0.5132 0.4867
C19_2 C 0.2046(10) 0.4273(10) 0.5520(8)
H12_2 H 0.1547 0.4696 0.5646
C20_2 C 0.1576(10) 0.3216(10) 0.6239(6)
H13_2 H 0.1222 0.3019 0.6020
H14_2 H 0.1126 0.3731 0.6335
C21_2 C 0.2943(9) 0.2826(9) 0.5648(6)
H15_2 H 0.3068 0.2240 0.5857
C22_2 C 0.3497(9) 0.3031(8) 0.5200(6)
H16_2 H 0.4012 0.2590 0.5104
C23_2 C 0.2938(10) 0.2067(9) 0.7893(6)
H17_2 H 0.3242 0.2180 0.8192
C24_2 C 0.2913(8) 0.1260(8) 0.8057(6)
C25_2 C 0.2498(9) 0.1098(9) 0.7610(6)
H18_2 H 0.2488 0.0553 0.7711
C26_2 C 0.2097(10) 0.1715(10) 0.7017(6)
H19_2 H 0.1823 0.1586 0.6712
C27_2 C 0.2086(8) 0.2518(9) 0.6858(6)
C28_2 C 0.2521(10) 0.2700(9) 0.7296(6)
H20_2 H 0.2533 0.3244 0.7189
C29_2 C 0.3296(7) 0.0613(7) 0.8719(6)
C30_2 C 0.3684(8) 0.6103(8) 0.3182(6)
C31_2 C 0.2947(10) 0.6730(8) 0.3360(7)
H21_2 H 0.2611 0.6565 0.3698
C32_2 C 0.2719(9) 0.7568(8) 0.3049(7)
H22_2 H 0.2198 0.7996 0.3155
C33_2 C 0.3911(9) 0.7230(8) 0.2395(6)
H23_2 H 0.4232 0.7417 0.2055
C34_2 C 0.4162(9) 0.6364(8) 0.2683(6)
H24_2 H 0.4654 0.5951 0.2544
C35_2 C 0.3031(9) 0.8748(7) 0.2331(6)
H25_2 H 0.2355 0.9122 0.2277
H26_2 H 0.3262 0.8873 0.1905
C36_2 C 0.3518(8) 0.8920(7) 0.2797(5)
C37_2 C 0.4400(8) 0.8873(7) 0.2720(6)
H27_2 H 0.4695 0.8736 0.2362
C38_2 C 0.4860(9) 0.9024(8) 0.3161(6)
H28_2 H 0.5462 0.8996 0.3103
C39_2 C 0.4430(7) 0.9216(7) 0.3686(5)
C40_2 C 0.3560(8) 0.9245(7) 0.3771(5)
H29_2 H 0.3275 0.9360 0.4138
C41_2 C 0.3099(8) 0.9108(7) 0.3327(6)
H30_2 H 0.2495 0.9143 0.3385
C42_2 C 0.4930(8) 0.9392(7) 0.4156(5)
O23 O 0.3176(5) 0.9818(5) 0.6242(4)
O24 O 0.4468(5) 0.9065(5) 0.5907(4)
O3_2 O 0.3197(6) 0.9931(5) 0.8861(4)
H2_2 H 0.9723 0.9832 0.4171
O13_2 O 0.4001(6) 0.8159(6) 0.9789(4)
H61_2 H 0.345(5) 0.838(9) 0.960(7)
N7_2 N 0.5726(6) 0.6377(6) 0.9294(4)
C43_2 C 0.3957(8) 0.9173(7) 0.6356(5)
C44_2 C 0.4257(8) 0.8509(7) 0.7016(5)
C45_2 C 0.5037(8) 0.7735(8) 0.7140(6)
H31_2 H 0.5419 0.7627 0.6808
C46_2 C 0.5268(9) 0.7113(8) 0.7747(6)
H32_2 H 0.5808 0.6581 0.7832
C47_2 C 0.4702(8) 0.7273(8) 0.8230(6)
C48_2 C 0.3944(9) 0.8061(9) 0.8118(6)
H33_2 H 0.3587 0.8181 0.8458
C49_2 C 0.3706(9) 0.8671(8) 0.7512(6)
H34_2 H 0.3169 0.9204 0.7430
C50_2 C 0.4895(9) 0.6556(9) 0.8879(6)
H35_2 H 0.4988 0.6021 0.8798
H36_2 H 0.4344 0.6720 0.9115
C51_2 C 0.6316(10) 0.5540(8) 0.9611(6)
H37_2 H 0.6216 0.5094 0.9537
C54_2 C 0.6578(8) 0.6846(8) 0.9818(6)
H39_2 H 0.6658 0.7306 0.9884
C55_2 C 0.5850(8) 0.7012(7) 0.9383(6)
H40_2 H 0.5437 0.7592 0.9148
H50 H 0.0465 0.9738 0.9220
H49 H 0.9171 0.9567 0.9596
H1 H 0.8851 0.0396 0.5369
H1_2 H 0.1149 0.9604 0.4631
H49_2 H 0.0829 0.0433 0.0404
H50_2 H 0.9535 0.0262 0.0780
N8_2 N 0.8464(7) 0.4943(6) 0.0961(5)
N9_2 N 0.9285(7) 0.5401(6) 0.1530(5)
N10_2 N 0.8028(7) 0.6441(6) 0.0725(5)
N11_2 N 0.9214(7) 0.8186(6) 0.1446(5)
C52_2 C 0.7047(8) 0.5332(8) 0.0035(6)
H38_2 H 0.7460 0.4744 0.0248
C53_2 C 0.7188(8) 0.5984(7) 0.0155(5)
C56_2 C 0.7925(8) 0.5776(7) 0.0633(5)
C57_2 C 0.9130(8) 0.4791(7) 0.1403(5)
C58_2 C 0.8721(8) 0.6217(7) 0.1161(6)
C59_2 C 0.8927(8) 0.6902(7) 0.1260(6)
C60_2 C 0.9395(9) 0.6759(8) 0.1828(6)
H41_2 H 0.9621 0.6214 0.2159
C61_2 C 0.9529(9) 0.7422(8) 0.1904(6)
H42_2 H 0.9853 0.7333 0.2294
C62_2 C 0.8769(8) 0.8343(8) 0.0885(6)
H43_2 H 0.8564 0.8894 0.0561
C63_2 C 0.8602(8) 0.7691(8) 0.0773(6)
H44_2 H 0.8280 0.7790 0.0378
C64_2 C 0.9365(9) 0.8908(9) 0.1544(7)
H45_2 H 0.8811 0.9461 0.1343
H46_2 H 0.9438 0.8813 0.2012
C72_2 C 0.9708(8) 0.3895(7) 0.1795(6)
C76_2 C 0.9562(9) 0.3222(8) 0.1699(6)
H54_2 H 0.9053 0.3352 0.1409
I1 I 0.24389(7) 0.36791(6) 0.32793(4)
I1_2 I 0.75611(7) 0.63209(6) 0.67207(4)
I2 I 0.55108(7) 0.39640(6) 0.91454(5)
I2_2 I 0.44892(7) 0.60360(6) 0.08546(5)
I3 I 0.91738(8) 0.24820(7) 0.02159(5)
I3_2 I 0.08262(8) 0.75180(7) 0.97841(5)
I4 I 0.04298(9) 0.97037(9) 0.26553(6)
I4_2 I 0.95702(9) 0.02963(9) 0.73447(6)
I5 I 0.75216(12) 0.49645(10) 0.26287(7)
I5_2 I 0.24784(12) 0.50355(10) 0.73713(7)
I6 I 0.83486(11) 0.24228(11) 0.52394(8)
I6_2 I 0.16514(11) 0.75772(11) 0.47606(8)
loop_
_geom_bond_atom_site_label_1
_geom_bond_atom_site_label_2
_geom_bond_site_symmetry_1
_geom_bond_site_symmetry_2
O11 C43 1_555 1_555
O12 C43 1_555 1_555
N7 C50 1_555 1_555
C43 C44 1_555 1_555
C44 C45 1_555 1_555
C45 H31 1_555 1_555
C46 C45 1_555 1_555
H32 C46 1_555 1_555
C47 C46 1_555 1_555
C48 C47 1_555 1_555
H33 C48 1_555 1_555
C49 C44 1_555 1_555
H34 C49 1_555 1_555
C50 C47 1_555 1_555
H35 C50 1_555 1_555
H36 C50 1_555 1_555
C51 N7 1_555 1_555
H37 C51 1_555 1_555
H39 C54 1_555 1_555
C55 N7 1_555 1_555
H40 C55 1_555 1_555
C48 C49 1_555 1_555
C54 C55 1_555 1_555
Tb2 O3 1_555 1_555
O13 Tb2 1_555 1_555
H61 O13 1_555 1_555
O22 Tb2 1_555 1_555
O5 C42 1_555 1_555
O6 C42 1_555 1_555
N1 C8 1_555 1_555
N2 C14 1_555 1_555
N3 C14 1_555 1_555
N4 C15 1_555 1_555
N5 C19 1_555 1_555
N6 C32 1_555 1_555
C5 C4 1_555 1_555
C6 C5 1_555 1_555
H3 C6 1_555 1_555
C8 C5 1_555 1_555
H5 C8 1_555 1_555
H6 C8 1_555 1_555
C9 N1 1_555 1_555
H7 C9 1_555 1_555
C10 C9 1_555 1_555
H8 C10 1_555 1_555
C11 C10 1_555 1_555
C12 C11 1_555 1_555
H9 C12 1_555 1_555
C13 N1 1_555 1_555
H10 C13 1_555 1_555
C14 C11 1_555 1_555
C15 N2 1_555 1_555
C16 N3 1_555 1_555
C17 C15 1_555 1_555
C18 C17 1_555 1_555
H11 C18 1_555 1_555
C19 C18 1_555 1_555
H12 C19 1_555 1_555
C20 N5 1_555 1_555
H13 C20 1_555 1_555
H14 C20 1_555 1_555
C21 N5 1_555 1_555
H15 C21 1_555 1_555
C22 C17 1_555 1_555
H16 C22 1_555 1_555
C23 H17 1_555 1_555
C24 C23 1_555 1_555
C25 C24 1_555 1_555
H18 C25 1_555 1_555
C26 C25 1_555 1_555
H19 C26 1_555 1_555
C27 C20 1_555 1_555
C28 C23 1_555 1_555
H20 C28 1_555 1_555
C29 O4 1_555 1_555
C30 C16 1_555 1_555
C31 C30 1_555 1_555
H21 C31 1_555 1_555
C32 C31 1_555 1_555
H22 C32 1_555 1_555
C33 N6 1_555 1_555
H23 C33 1_555 1_555
C34 C30 1_555 1_555
H24 C34 1_555 1_555
C35 N6 1_555 1_555
H25 C35 1_555 1_555
H26 C35 1_555 1_555
C36 C35 1_555 1_555
C37 C36 1_555 1_555
H27 C37 1_555 1_555
C38 C37 1_555 1_555
H28 C38 1_555 1_555
C39 C38 1_555 1_555
C40 C39 1_555 1_555
H29 C40 1_555 1_555
C41 C36 1_555 1_555
H30 C41 1_555 1_555
C42 C39 1_555 1_555
Tb5 O6 1_555 1_555
N4 C16 1_555 1_555
C12 C13 1_555 1_555
C21 C22 1_555 1_555
C24 C29 1_555 1_555
C26 C27 1_555 1_555
C27 C28 1_555 1_555
C33 C34 1_555 1_555
C40 C41 1_555 1_555
O1 C1 1_555 1_555
O2 C1 1_555 1_555
C1 C2 1_555 1_555
C2 C3 1_555 1_555
C7 C2 1_555 1_555
H4 C7 1_555 1_555
Tb5 O1 1_555 1_555
O2 Tb5 1_555 1_555
O15 Tb5 1_555 1_555
H65 O15 1_555 1_555
H66 O15 1_555 1_555
O16 Tb5 1_555 1_555
H67 O16 1_555 1_555
H68 O16 1_555 1_555
O7 C71 1_555 1_555
O8 C71 1_555 1_555
O22 C84 1_555 1_555
N12 C74 1_555 1_555
C66 C65 1_555 1_555
H47 C66 1_555 1_555
C67 C66 1_555 1_555
H48 C67 1_555 1_555
C68 C67 1_555 1_555
C69 C68 1_555 1_555
C70 C65 1_555 1_555
C71 C68 1_555 1_555
H51 C73 1_555 1_555
C74 C73 1_555 1_555
H52 C74 1_555 1_555
C75 N12 1_555 1_555
H53 C75 1_555 1_555
C77 N12 1_555 1_555
H55 C77 1_555 1_555
H56 C77 1_555 1_555
C78 C77 1_555 1_555
C79 C78 1_555 1_555
H57 C79 1_555 1_555
C80 C79 1_555 1_555
H58 C80 1_555 1_555
C81 C80 1_555 1_555
C82 C81 1_555 1_555
H59 C82 1_555 1_555
C83 C78 1_555 1_555
H60 C83 1_555 1_555
C84 O9 1_555 1_555
C69 C70 1_555 1_555
C81 C84 1_555 1_555
C82 C83 1_555 1_555
H63 O14 1_555 1_555
H64 O14 1_555 1_555
N8 C56 1_555 1_555
N9 C57 1_555 1_555
N10 C56 1_555 1_555
N11 C61 1_555 1_555
H38 C52 1_555 1_555
C53 C52 1_555 1_555
C56 C53 1_555 1_555
C57 N8 1_555 1_555
C58 N9 1_555 1_555
C59 C58 1_555 1_555
C60 C59 1_555 1_555
H41 C60 1_555 1_555
C61 C60 1_555 1_555
H42 C61 1_555 1_555
C62 N11 1_555 1_555
H43 C62 1_555 1_555
C63 C59 1_555 1_555
H44 C63 1_555 1_555
C64 N11 1_555 1_555
H45 C64 1_555 1_555
H46 C64 1_555 1_555
C72 C57 1_555 1_555
C76 C72 1_555 1_555
H54 C76 1_555 1_555
N10 C58 1_555 1_555
C62 C63 1_555 1_555
H63_2 O14_2 1_555 1_555
H64_2 O14_2 1_555 1_555
O20 C71_2 1_555 1_555
O21 C71_2 1_555 1_555
O10 C84_2 1_555 1_555
N12_2 C74_2 1_555 1_555
C66_2 C65_2 1_555 1_555
H47_2 C66_2 1_555 1_555
C67_2 C66_2 1_555 1_555
H48_2 C67_2 1_555 1_555
C68_2 C67_2 1_555 1_555
C69_2 C68_2 1_555 1_555
C70_2 C65_2 1_555 1_555
C71_2 C68_2 1_555 1_555
H51_2 C73_2 1_555 1_555
C74_2 C73_2 1_555 1_555
H52_2 C74_2 1_555 1_555
C75_2 N12_2 1_555 1_555
H53_2 C75_2 1_555 1_555
C77_2 N12_2 1_555 1_555
H55_2 C77_2 1_555 1_555
H56_2 C77_2 1_555 1_555
C78_2 C77_2 1_555 1_555
C79_2 C78_2 1_555 1_555
H57_2 C79_2 1_555 1_555
C80_2 C79_2 1_555 1_555
H58_2 C80_2 1_555 1_555
C81_2 C80_2 1_555 1_555
C82_2 C81_2 1_555 1_555
H59_2 C82_2 1_555 1_555
C83_2 C78_2 1_555 1_555
H60_2 C83_2 1_555 1_555
C84_2 O9_2 1_555 1_555
Tb7 O10 1_555 1_555
C69_2 C70_2 1_555 1_555
C81_2 C84_2 1_555 1_555
C82_2 C83_2 1_555 1_555
O15_2 Tb4 1_555 1_555
H65_2 O15_2 1_555 1_555
H66_2 O15_2 1_555 1_555
O16_2 Tb4 1_555 1_555
H67_2 O16_2 1_555 1_555
H68_2 O16_2 1_555 1_555
O17 Tb4 1_555 1_555
O18 Tb4 1_555 1_555
O19 Tb4 1_555 1_555
O17 C1_2 1_555 1_555
O18 C1_2 1_555 1_555
C1_2 C2_2 1_555 1_555
C2_2 C3_2 1_555 1_555
C7_2 C2_2 1_555 1_555
H4_2 C7_2 1_555 1_555
O5_2 C42_2 1_555 1_555
O19 C42_2 1_555 1_555
N1_2 C8_2 1_555 1_555
N2_2 C14_2 1_555 1_555
N3_2 C14_2 1_555 1_555
N4_2 C15_2 1_555 1_555
N5_2 C19_2 1_555 1_555
N6_2 C32_2 1_555 1_555
C5_2 C4_2 1_555 1_555
C6_2 C5_2 1_555 1_555
H3_2 C6_2 1_555 1_555
C8_2 C5_2 1_555 1_555
H5_2 C8_2 1_555 1_555
H6_2 C8_2 1_555 1_555
C9_2 N1_2 1_555 1_555
H7_2 C9_2 1_555 1_555
C10_2 C9_2 1_555 1_555
H8_2 C10_2 1_555 1_555
C11_2 C10_2 1_555 1_555
C12_2 C11_2 1_555 1_555
H9_2 C12_2 1_555 1_555
C13_2 N1_2 1_555 1_555
H10_2 C13_2 1_555 1_555
C14_2 C11_2 1_555 1_555
C15_2 N2_2 1_555 1_555
C16_2 N3_2 1_555 1_555
C17_2 C15_2 1_555 1_555
C18_2 C17_2 1_555 1_555
H11_2 C18_2 1_555 1_555
C19_2 C18_2 1_555 1_555
H12_2 C19_2 1_555 1_555
C20_2 N5_2 1_555 1_555
H13_2 C20_2 1_555 1_555
H14_2 C20_2 1_555 1_555
C21_2 N5_2 1_555 1_555
H15_2 C21_2 1_555 1_555
C22_2 C17_2 1_555 1_555
H16_2 C22_2 1_555 1_555
C23_2 H17_2 1_555 1_555
C24_2 C23_2 1_555 1_555
C25_2 C24_2 1_555 1_555
H18_2 C25_2 1_555 1_555
C26_2 C25_2 1_555 1_555
H19_2 C26_2 1_555 1_555
C27_2 C20_2 1_555 1_555
C28_2 C23_2 1_555 1_555
H20_2 C28_2 1_555 1_555
C29_2 O4_2 1_555 1_555
C30_2 C16_2 1_555 1_555
C31_2 C30_2 1_555 1_555
H21_2 C31_2 1_555 1_555
C32_2 C31_2 1_555 1_555
H22_2 C32_2 1_555 1_555
C33_2 N6_2 1_555 1_555
H23_2 C33_2 1_555 1_555
C34_2 C30_2 1_555 1_555
H24_2 C34_2 1_555 1_555
C35_2 N6_2 1_555 1_555
H25_2 C35_2 1_555 1_555
H26_2 C35_2 1_555 1_555
C36_2 C35_2 1_555 1_555
C37_2 C36_2 1_555 1_555
H27_2 C37_2 1_555 1_555
C38_2 C37_2 1_555 1_555
H28_2 C38_2 1_555 1_555
C39_2 C38_2 1_555 1_555
C40_2 C39_2 1_555 1_555
H29_2 C40_2 1_555 1_555
C41_2 C36_2 1_555 1_555
H30_2 C41_2 1_555 1_555
C42_2 C39_2 1_555 1_555
N4_2 C16_2 1_555 1_555
C12_2 C13_2 1_555 1_555
C21_2 C22_2 1_555 1_555
C24_2 C29_2 1_555 1_555
C26_2 C27_2 1_555 1_555
C27_2 C28_2 1_555 1_555
C33_2 C34_2 1_555 1_555
C40_2 C41_2 1_555 1_555
Tb7 O3_2 1_555 1_555
O13_2 Tb7 1_555 1_555
H61_2 O13_2 1_555 1_555
O23 C43_2 1_555 1_555
O24 C43_2 1_555 1_555
N7_2 C50_2 1_555 1_555
C43_2 C44_2 1_555 1_555
C44_2 C45_2 1_555 1_555
C45_2 H31_2 1_555 1_555
C46_2 C45_2 1_555 1_555
H32_2 C46_2 1_555 1_555
C47_2 C46_2 1_555 1_555
C48_2 C47_2 1_555 1_555
H33_2 C48_2 1_555 1_555
C49_2 C44_2 1_555 1_555
H34_2 C49_2 1_555 1_555
C50_2 C47_2 1_555 1_555
H35_2 C50_2 1_555 1_555
H36_2 C50_2 1_555 1_555
C51_2 N7_2 1_555 1_555
H37_2 C51_2 1_555 1_555
H39_2 C54_2 1_555 1_555
C55_2 N7_2 1_555 1_555
H40_2 C55_2 1_555 1_555
C48_2 C49_2 1_555 1_555
C54_2 C55_2 1_555 1_555
N8_2 C56_2 1_555 1_555
N9_2 C57_2 1_555 1_555
N10_2 C56_2 1_555 1_555
N11_2 C61_2 1_555 1_555
H38_2 C52_2 1_555 1_555
C53_2 C52_2 1_555 1_555
C56_2 C53_2 1_555 1_555
C57_2 N8_2 1_555 1_555
C58_2 N9_2 1_555 1_555
C59_2 C58_2 1_555 1_555
C60_2 C59_2 1_555 1_555
H41_2 C60_2 1_555 1_555
C61_2 C60_2 1_555 1_555
H42_2 C61_2 1_555 1_555
C62_2 N11_2 1_555 1_555
H43_2 C62_2 1_555 1_555
C63_2 C59_2 1_555 1_555
H44_2 C63_2 1_555 1_555
C64_2 N11_2 1_555 1_555
H45_2 C64_2 1_555 1_555
H46_2 C64_2 1_555 1_555
C72_2 C57_2 1_555 1_555
C76_2 C72_2 1_555 1_555
H54_2 C76_2 1_555 1_555
N10_2 C58_2 1_555 1_555
C62_2 C63_2 1_555 1_555

#END
