
###############################################################################
#
# This file contains modified crystal structure data generated from the
# MOF subset of the Cambridge Structural Database (CSD) v543 
# hosted by the Cambridge Crystallographic Data Centre (CCDC).
#
# This work is licensed under the Creative Commons
# Attribution-NonCommercial-ShareAlike 4.0 International License.
# To view a copy of this license, visit
# http://creativecommons.org/licenses/by-nc-sa/4.0/
# or send a letter to
# Creative Commons, PO Box 1866, Mountain View, CA 94042, USA.
#
# CIF created using the CSD Python API on 29 September 2022
# The structure has been converted into the P1 space group
# The structure has a 3D framework
# The original CSD entry WAMREJ is in the tetragonal crystal system
# The framework has been calculated to contain at least 10.0% void space
# The void calculation uses a probe of radius 1.32A, grid spacing 0.4
# H atom positions have been added when not included in the experimental data
# Generated hydrogen atom positions removed from atoms on special positions
#
###############################################################################

data_WAMREJ
_chemical_formula_moiety         '(C304 H232 Cu16 N24 O80)n'
_symmetry_cell_setting           triclinic
_symmetry_space_group_name_H-M   'P 1'
_symmetry_Int_Tables_number      1
_space_group_name_Hall           'P 1'
loop_
_symmetry_equiv_pos_site_id
_symmetry_equiv_pos_as_xyz
1 x,y,z
_cell_length_a                   22.972(5)
_cell_length_b                   22.972(5)
_cell_length_c                   30.924(7)
_cell_angle_alpha                90
_cell_angle_beta                 90
_cell_angle_gamma                90
_cell_volume                     16319
loop_
_atom_site_label
_atom_site_type_symbol
_atom_site_fract_x
_atom_site_fract_y
_atom_site_fract_z
Cu1 Cu 0.28710(6) 0.28710(6) 0.26702(7)
O1 O 0.3392(4) 0.2537(4) 0.2251(3)
O2 O 0.2722(4) 0.1913(4) 0.1937(3)
O3 O 0.3499(4) 0.3499(4) 0.2955(4)
N1 N 0.5000 0.1529(7) 0.0822(7)
C1 C 0.3170(6) 0.2125(5) 0.1969(4)
C2 C 0.3669(6) 0.1992(3) 0.1703(4)
C3 C 0.3544(8) 0.1741(5) 0.1306(4)
H1 H 0.3140 0.1686 0.1254
C4 C 0.3902(8) 0.1556(6) 0.0968(6)
H2 H 0.3769 0.1387 0.0705
C5 C 0.4483(9) 0.1653(4) 0.1073(4)
C6 C 0.4678(5) 0.1900(4) 0.1459(4)
C7 C 0.4264(5) 0.2062(4) 0.1762(3)
H3 H 0.4395 0.2232 0.2025
C8 C 0.5000 0.1534(4) 0.0000
H4 H 0.5000 0.1947 0.0000
C9 C 0.5000 0.1226(4) 0.03871(18)
C10 C 0.5000 0.0620(4) 0.03883(17)
H5 H 0.5000 0.0414 0.0655
C11 C 0.5000 0.0314(4) 0.0000
Cu2 Cu 0.71290(6) 0.28710(6) 0.26702(7)
Cu5 Cu 0.21290(6) 0.21290(6) 0.23298(7)
Cu6 Cu 0.78710(6) 0.21290(6) 0.23298(7)
O4 O 0.6608(4) 0.2537(4) 0.2251(3)
O11 O 0.2537(4) 0.3392(4) 0.2251(3)
O12 O 0.7463(4) 0.3392(4) 0.2251(3)
O15 O 0.7278(4) 0.1913(4) 0.1937(3)
O22 O 0.2278(4) 0.3087(4) 0.3063(3)
O23 O 0.3087(4) 0.2278(4) 0.3063(3)
O24 O 0.7722(4) 0.3087(4) 0.3063(3)
O25 O 0.6913(4) 0.2278(4) 0.3063(3)
O30 O 0.6501(4) 0.3499(4) 0.2955(4)
C12 C 0.6830(6) 0.2125(5) 0.1969(4)
C19 C 0.6331(6) 0.1992(3) 0.1703(4)
C26 C 0.6456(8) 0.1741(5) 0.1306(4)
H6 H 0.6860 0.1686 0.1254
C33 C 0.6098(8) 0.1556(6) 0.0968(6)
H13 H 0.6231 0.1387 0.0705
C40 C 0.5517(9) 0.1653(4) 0.1073(4)
C47 C 0.5322(5) 0.1900(4) 0.1459(4)
C54 C 0.5736(5) 0.2062(4) 0.1762(3)
H20 H 0.5605 0.2232 0.2025
C8_2 C 0.5000 0.1534(4) 1.0000
H4_2 H 0.5000 0.1947 1.0000
C11_2 C 0.5000 0.0314(4) 1.0000
Cu3 Cu 0.28710(6) 0.28710(6) 0.73298(7)
Cu4 Cu 0.71290(6) 0.28710(6) 0.73298(7)
Cu7 Cu 0.21290(6) 0.21290(6) 0.76702(7)
Cu8 Cu 0.78710(6) 0.21290(6) 0.76702(7)
O5 O 0.3392(4) 0.2537(4) 0.7749(3)
O6 O 0.6608(4) 0.2537(4) 0.7749(3)
O13 O 0.2537(4) 0.3392(4) 0.7749(3)
O14 O 0.7463(4) 0.3392(4) 0.7749(3)
O16 O 0.2722(4) 0.1913(4) 0.8063(3)
O17 O 0.7278(4) 0.1913(4) 0.8063(3)
O26 O 0.2278(4) 0.3087(4) 0.6937(3)
O27 O 0.3087(4) 0.2278(4) 0.6937(3)
O28 O 0.7722(4) 0.3087(4) 0.6937(3)
O29 O 0.6913(4) 0.2278(4) 0.6937(3)
O31 O 0.3499(4) 0.3499(4) 0.7045(4)
O32 O 0.6501(4) 0.3499(4) 0.7045(4)
N2 N 0.5000 0.1529(7) 0.9178(7)
C13 C 0.3170(6) 0.2125(5) 0.8031(4)
C14 C 0.6830(6) 0.2125(5) 0.8031(4)
C20 C 0.3669(6) 0.1992(3) 0.8297(4)
C21 C 0.6331(6) 0.1992(3) 0.8297(4)
C27 C 0.3544(8) 0.1741(5) 0.8694(4)
C28 C 0.6456(8) 0.1741(5) 0.8694(4)
H7 H 0.6860 0.1686 0.8746
H8 H 0.3140 0.1686 0.8746
C34 C 0.3902(8) 0.1556(6) 0.9032(6)
C35 C 0.6098(8) 0.1556(6) 0.9032(6)
H14 H 0.6231 0.1387 0.9295
H15 H 0.3769 0.1387 0.9295
C41 C 0.4483(9) 0.1653(4) 0.8927(4)
C42 C 0.5517(9) 0.1653(4) 0.8927(4)
C48 C 0.4678(5) 0.1900(4) 0.8541(4)
C49 C 0.5322(5) 0.1900(4) 0.8541(4)
C55 C 0.4264(5) 0.2062(4) 0.8238(3)
C56 C 0.5736(5) 0.2062(4) 0.8238(3)
H21 H 0.5605 0.2232 0.7975
H22 H 0.4395 0.2232 0.7975
C62 C 0.5000 0.1226(4) 0.96129(18)
C65 C 0.5000 0.0620(4) 0.96117(17)
H28 H 0.5000 0.0414 0.9345
Cu9 Cu 0.28710(6) 0.71290(6) 0.26702(7)
Cu10 Cu 0.21290(6) 0.78710(6) 0.23298(7)
Cu11 Cu 0.71290(6) 0.71290(6) 0.26702(7)
Cu12 Cu 0.78710(6) 0.78710(6) 0.23298(7)
O7 O 0.3392(4) 0.7463(4) 0.2251(3)
O8 O 0.6608(4) 0.7463(4) 0.2251(3)
O18 O 0.2722(4) 0.8087(4) 0.1937(3)
O19 O 0.7278(4) 0.8087(4) 0.1937(3)
N3 N 0.5000 0.8471(7) 0.0822(7)
C15 C 0.3170(6) 0.7875(5) 0.1969(4)
C16 C 0.6830(6) 0.7875(5) 0.1969(4)
C22 C 0.3669(6) 0.8008(3) 0.1703(4)
C23 C 0.6331(6) 0.8008(3) 0.1703(4)
C29 C 0.3544(8) 0.8259(5) 0.1306(4)
C30 C 0.6456(8) 0.8259(5) 0.1306(4)
H9 H 0.3140 0.8314 0.1254
H10 H 0.6860 0.8314 0.1254
C36 C 0.3902(8) 0.8444(6) 0.0968(6)
C37 C 0.6098(8) 0.8444(6) 0.0968(6)
H16 H 0.3769 0.8613 0.0705
H17 H 0.6231 0.8613 0.0705
C43 C 0.4483(9) 0.8347(4) 0.1073(4)
C44 C 0.5517(9) 0.8347(4) 0.1073(4)
C50 C 0.4678(5) 0.8100(4) 0.1459(4)
C51 C 0.5322(5) 0.8100(4) 0.1459(4)
C57 C 0.4264(5) 0.7938(4) 0.1762(3)
C58 C 0.5736(5) 0.7938(4) 0.1762(3)
H23 H 0.4395 0.7768 0.2025
H24 H 0.5605 0.7768 0.2025
C61 C 0.5000 0.8466(4) 0.0000
H27 H 0.5000 0.8053 0.0000
C63 C 0.5000 0.8774(4) 0.03871(18)
C66 C 0.5000 0.9380(4) 0.03883(17)
H30 H 0.5000 0.9586 0.0655
C68 C 0.5000 0.9686(4) 0.0000
Cu13 Cu 0.28710(6) 0.71290(6) 0.73298(7)
Cu14 Cu 0.21290(6) 0.78710(6) 0.76702(7)
Cu15 Cu 0.71290(6) 0.71290(6) 0.73298(7)
Cu16 Cu 0.78710(6) 0.78710(6) 0.76702(7)
O9 O 0.3392(4) 0.7463(4) 0.7749(3)
O10 O 0.6608(4) 0.7463(4) 0.7749(3)
O20 O 0.2722(4) 0.8087(4) 0.8063(3)
O21 O 0.7278(4) 0.8087(4) 0.8063(3)
N4 N 0.5000 0.8471(7) 0.9178(7)
C17 C 0.3170(6) 0.7875(5) 0.8031(4)
C18 C 0.6830(6) 0.7875(5) 0.8031(4)
C24 C 0.3669(6) 0.8008(3) 0.8297(4)
C25 C 0.6331(6) 0.8008(3) 0.8297(4)
C31 C 0.3544(8) 0.8259(5) 0.8694(4)
C32 C 0.6456(8) 0.8259(5) 0.8694(4)
H11 H 0.3140 0.8314 0.8746
H12 H 0.6860 0.8314 0.8746
C38 C 0.3902(8) 0.8444(6) 0.9032(6)
C39 C 0.6098(8) 0.8444(6) 0.9032(6)
H18 H 0.3769 0.8613 0.9295
H19 H 0.6231 0.8613 0.9295
C45 C 0.4483(9) 0.8347(4) 0.8927(4)
C46 C 0.5517(9) 0.8347(4) 0.8927(4)
C52 C 0.4678(5) 0.8100(4) 0.8541(4)
C53 C 0.5322(5) 0.8100(4) 0.8541(4)
C59 C 0.4264(5) 0.7938(4) 0.8238(3)
C60 C 0.5736(5) 0.7938(4) 0.8238(3)
H25 H 0.4395 0.7768 0.7975
H26 H 0.5605 0.7768 0.7975
C61_2 C 0.5000 0.8466(4) 1.0000
H27_2 H 0.5000 0.8053 1.0000
C64 C 0.5000 0.8774(4) 0.96129(18)
C67 C 0.5000 0.9380(4) 0.96117(17)
H29 H 0.5000 0.9586 0.9345
C68_2 C 0.5000 0.9686(4) 1.0000
O8_2 O 0.2537(4) 0.6608(4) 0.2251(3)
O18_2 O 0.1913(4) 0.2722(4) 0.1937(3)
O19_2 O 0.1913(4) 0.7278(4) 0.1937(3)
N3_2 N 0.1529(7) 0.5000 0.0822(7)
C15_2 C 0.2125(5) 0.3170(6) 0.1969(4)
C16_2 C 0.2125(5) 0.6830(6) 0.1969(4)
C22_2 C 0.1992(3) 0.3669(6) 0.1703(4)
C23_2 C 0.1992(3) 0.6331(6) 0.1703(4)
C29_2 C 0.1741(5) 0.3544(8) 0.1306(4)
C30_2 C 0.1741(5) 0.6456(8) 0.1306(4)
H9_2 H 0.1686 0.3140 0.1254
H10_2 H 0.1686 0.6860 0.1254
C36_2 C 0.1556(6) 0.3902(8) 0.0968(6)
C37_2 C 0.1556(6) 0.6098(8) 0.0968(6)
H16_2 H 0.1387 0.3769 0.0705
H17_2 H 0.1387 0.6231 0.0705
C43_2 C 0.1653(4) 0.4483(9) 0.1073(4)
C44_2 C 0.1653(4) 0.5517(9) 0.1073(4)
C50_2 C 0.1900(4) 0.4678(5) 0.1459(4)
C51_2 C 0.1900(4) 0.5322(5) 0.1459(4)
C57_2 C 0.2062(4) 0.4264(5) 0.1762(3)
C58_2 C 0.2062(4) 0.5736(5) 0.1762(3)
H23_2 H 0.2232 0.4395 0.2025
H24_2 H 0.2232 0.5605 0.2025
C61_3 C 0.1534(4) 0.5000 0.0000
H27_3 H 0.1947 0.5000 0.0000
C63_2 C 0.1226(4) 0.5000 0.03871(18)
C66_2 C 0.0620(4) 0.5000 0.03883(17)
H30_2 H 0.0414 0.5000 0.0655
C68_3 C 0.0314(4) 0.5000 0.0000
O10_2 O 0.2537(4) 0.6608(4) 0.7749(3)
O20_2 O 0.1913(4) 0.2722(4) 0.8063(3)
O21_2 O 0.1913(4) 0.7278(4) 0.8063(3)
N4_2 N 0.1529(7) 0.5000 0.9178(7)
C17_2 C 0.2125(5) 0.3170(6) 0.8031(4)
C18_2 C 0.2125(5) 0.6830(6) 0.8031(4)
C24_2 C 0.1992(3) 0.3669(6) 0.8297(4)
C25_2 C 0.1992(3) 0.6331(6) 0.8297(4)
C31_2 C 0.1741(5) 0.3544(8) 0.8694(4)
C32_2 C 0.1741(5) 0.6456(8) 0.8694(4)
H11_2 H 0.1686 0.3140 0.8746
H12_2 H 0.1686 0.6860 0.8746
C38_2 C 0.1556(6) 0.3902(8) 0.9032(6)
C39_2 C 0.1556(6) 0.6098(8) 0.9032(6)
H18_2 H 0.1387 0.3769 0.9295
H19_2 H 0.1387 0.6231 0.9295
C45_2 C 0.1653(4) 0.4483(9) 0.8927(4)
C46_2 C 0.1653(4) 0.5517(9) 0.8927(4)
C52_2 C 0.1900(4) 0.4678(5) 0.8541(4)
C53_2 C 0.1900(4) 0.5322(5) 0.8541(4)
C59_2 C 0.2062(4) 0.4264(5) 0.8238(3)
C60_2 C 0.2062(4) 0.5736(5) 0.8238(3)
H25_2 H 0.2232 0.4395 0.7975
H26_2 H 0.2232 0.5605 0.7975
C61_4 C 0.1534(4) 0.5000 1.0000
H27_4 H 0.1947 0.5000 1.0000
C64_2 C 0.1226(4) 0.5000 0.96129(18)
C67_2 C 0.0620(4) 0.5000 0.96117(17)
H29_2 H 0.0414 0.5000 0.9345
C68_4 C 0.0314(4) 0.5000 1.0000
O2_2 O 0.8087(4) 0.2722(4) 0.1937(3)
N1_2 N 0.8471(7) 0.5000 0.0822(7)
C1_2 C 0.7875(5) 0.3170(6) 0.1969(4)
C2_2 C 0.8008(3) 0.3669(6) 0.1703(4)
C3_2 C 0.8259(5) 0.3544(8) 0.1306(4)
H1_2 H 0.8314 0.3140 0.1254
C4_2 C 0.8444(6) 0.3902(8) 0.0968(6)
H2_2 H 0.8613 0.3769 0.0705
C5_2 C 0.8347(4) 0.4483(9) 0.1073(4)
C6_2 C 0.8100(4) 0.4678(5) 0.1459(4)
C7_2 C 0.7938(4) 0.4264(5) 0.1762(3)
H3_2 H 0.7768 0.4395 0.2025
C8_3 C 0.8466(4) 0.5000 0.0000
H4_3 H 0.8053 0.5000 0.0000
C9_2 C 0.8774(4) 0.5000 0.03871(18)
C10_2 C 0.9380(4) 0.5000 0.03883(17)
H5_2 H 0.9586 0.5000 0.0655
C11_3 C 0.9686(4) 0.5000 0.0000
O4_2 O 0.7463(4) 0.6608(4) 0.2251(3)
O15_2 O 0.8087(4) 0.7278(4) 0.1937(3)
O24_2 O 0.6913(4) 0.7722(4) 0.3063(3)
O25_2 O 0.7722(4) 0.6913(4) 0.3063(3)
O30_2 O 0.6501(4) 0.6501(4) 0.2955(4)
C12_2 C 0.7875(5) 0.6830(6) 0.1969(4)
C19_2 C 0.8008(3) 0.6331(6) 0.1703(4)
C26_2 C 0.8259(5) 0.6456(8) 0.1306(4)
H6_2 H 0.8314 0.6860 0.1254
C33_2 C 0.8444(6) 0.6098(8) 0.0968(6)
H13_2 H 0.8613 0.6231 0.0705
C40_2 C 0.8347(4) 0.5517(9) 0.1073(4)
C47_2 C 0.8100(4) 0.5322(5) 0.1459(4)
C54_2 C 0.7938(4) 0.5736(5) 0.1762(3)
H20_2 H 0.7768 0.5605 0.2025
C8_4 C 0.8466(4) 0.5000 1.0000
H4_4 H 0.8053 0.5000 1.0000
C11_4 C 0.9686(4) 0.5000 1.0000
O6_2 O 0.7463(4) 0.6608(4) 0.7749(3)
O16_2 O 0.8087(4) 0.2722(4) 0.8063(3)
O17_2 O 0.8087(4) 0.7278(4) 0.8063(3)
O28_2 O 0.6913(4) 0.7722(4) 0.6937(3)
O29_2 O 0.7722(4) 0.6913(4) 0.6937(3)
O32_2 O 0.6501(4) 0.6501(4) 0.7045(4)
N2_2 N 0.8471(7) 0.5000 0.9178(7)
C13_2 C 0.7875(5) 0.3170(6) 0.8031(4)
C14_2 C 0.7875(5) 0.6830(6) 0.8031(4)
C20_2 C 0.8008(3) 0.3669(6) 0.8297(4)
C21_2 C 0.8008(3) 0.6331(6) 0.8297(4)
C27_2 C 0.8259(5) 0.3544(8) 0.8694(4)
C28_2 C 0.8259(5) 0.6456(8) 0.8694(4)
H7_2 H 0.8314 0.6860 0.8746
H8_2 H 0.8314 0.3140 0.8746
C34_2 C 0.8444(6) 0.3902(8) 0.9032(6)
C35_2 C 0.8444(6) 0.6098(8) 0.9032(6)
H14_2 H 0.8613 0.6231 0.9295
H15_2 H 0.8613 0.3769 0.9295
C41_2 C 0.8347(4) 0.4483(9) 0.8927(4)
C42_2 C 0.8347(4) 0.5517(9) 0.8927(4)
C48_2 C 0.8100(4) 0.4678(5) 0.8541(4)
C49_2 C 0.8100(4) 0.5322(5) 0.8541(4)
C55_2 C 0.7938(4) 0.4264(5) 0.8238(3)
C56_2 C 0.7938(4) 0.5736(5) 0.8238(3)
H21_2 H 0.7768 0.5605 0.7975
H22_2 H 0.7768 0.4395 0.7975
C62_2 C 0.8774(4) 0.5000 0.96129(18)
C65_2 C 0.9380(4) 0.5000 0.96117(17)
H28_2 H 0.9586 0.5000 0.9345
O3_2 O 0.3499(4) 0.6501(4) 0.2955(4)
O22_2 O 0.3087(4) 0.7722(4) 0.3063(3)
O23_2 O 0.2278(4) 0.6913(4) 0.3063(3)
O26_2 O 0.3087(4) 0.7722(4) 0.6937(3)
O27_2 O 0.2278(4) 0.6913(4) 0.6937(3)
O31_2 O 0.3499(4) 0.6501(4) 0.7045(4)
N1_3 N 0.0000 0.6529(7) 0.5822(7)
C8_5 C -0.0000 0.6534(4) 0.5000
H4_5 H -0.0000 0.6947 0.5000
C9_3 C 0.0000 0.6226(4) 0.53871(18)
C10_3 C 0.0000 0.5620(4) 0.53883(17)
H5_3 H -0.0000 0.5414 0.5655
C11_5 C -0.0000 0.5314(4) 0.5000
O4_3 O 0.1608(4) 0.7537(4) 0.7251(3)
O6_3 O 0.1608(4) 0.7537(4) 0.2749(3)
O8_3 O 0.1608(4) 0.2463(4) 0.7251(3)
O10_3 O 0.1608(4) 0.2463(4) 0.2749(3)
O12_2 O 0.2463(4) 0.8392(4) 0.7251(3)
O14_2 O 0.2463(4) 0.8392(4) 0.2749(3)
O30_3 O 0.1501(4) 0.8499(4) 0.7955(4)
O32_3 O 0.1501(4) 0.8499(4) 0.2045(4)
N2_3 N 0.0000 0.6529(7) 0.4178(7)
N3_3 N -0.0000 0.3471(7) 0.5822(7)
N4_3 N -0.0000 0.3471(7) 0.4178(7)
C12_3 C 0.1830(6) 0.7125(5) 0.6969(4)
C14_3 C 0.1830(6) 0.7125(5) 0.3031(4)
C16_3 C 0.1830(6) 0.2875(5) 0.6969(4)
C18_3 C 0.1830(6) 0.2875(5) 0.3031(4)
C19_3 C 0.1331(6) 0.6992(3) 0.6703(4)
C21_3 C 0.1331(6) 0.6992(3) 0.3297(4)
C23_3 C 0.1331(6) 0.3008(3) 0.6703(4)
C25_3 C 0.1331(6) 0.3008(3) 0.3297(4)
C26_3 C 0.1456(8) 0.6741(5) 0.6306(4)
C28_3 C 0.1456(8) 0.6741(5) 0.3694(4)
C30_3 C 0.1456(8) 0.3259(5) 0.6306(4)
C32_3 C 0.1456(8) 0.3259(5) 0.3694(4)
H6_3 H 0.1860 0.6686 0.6254
H7_3 H 0.1860 0.6686 0.3746
H10_3 H 0.1860 0.3314 0.6254
H12_3 H 0.1860 0.3314 0.3746
C33_3 C 0.1098(8) 0.6556(6) 0.5968(6)
C35_3 C 0.1098(8) 0.6556(6) 0.4032(6)
C37_3 C 0.1098(8) 0.3444(6) 0.5968(6)
C39_3 C 0.1098(8) 0.3444(6) 0.4032(6)
H13_3 H 0.1231 0.6387 0.5705
H14_3 H 0.1231 0.6387 0.4295
H17_3 H 0.1231 0.3613 0.5705
H19_3 H 0.1231 0.3613 0.4295
C40_3 C 0.0517(9) 0.6653(4) 0.6073(4)
C42_3 C 0.0517(9) 0.6653(4) 0.3927(4)
C44_3 C 0.0517(9) 0.3347(4) 0.6073(4)
C46_3 C 0.0517(9) 0.3347(4) 0.3927(4)
C47_3 C 0.0322(5) 0.6900(4) 0.6459(4)
C49_3 C 0.0322(5) 0.6900(4) 0.3541(4)
C51_3 C 0.0322(5) 0.3100(4) 0.6459(4)
C53_3 C 0.0322(5) 0.3100(4) 0.3541(4)
C54_3 C 0.0736(5) 0.7062(4) 0.6762(3)
C56_3 C 0.0736(5) 0.7062(4) 0.3238(3)
C58_3 C 0.0736(5) 0.2938(4) 0.6762(3)
C60_3 C 0.0736(5) 0.2938(4) 0.3238(3)
H20_3 H 0.0605 0.7232 0.7025
H21_3 H 0.0605 0.7232 0.2975
H24_3 H 0.0605 0.2768 0.7025
H26_3 H 0.0605 0.2768 0.2975
C61_5 C -0.0000 0.3466(4) 0.5000
H27_5 H -0.0000 0.3053 0.5000
C62_3 C 0.0000 0.6226(4) 0.46129(18)
C63_3 C -0.0000 0.3774(4) 0.53871(18)
C64_3 C -0.0000 0.3774(4) 0.46129(18)
C65_3 C 0.0000 0.5620(4) 0.46117(17)
C66_3 C -0.0000 0.4380(4) 0.53883(17)
C67_3 C 0.0000 0.4380(4) 0.46117(17)
H28_3 H 0.0000 0.5414 0.4345
H29_3 H 0.0000 0.4586 0.4345
H30_3 H -0.0000 0.4586 0.5655
C68_5 C -0.0000 0.4686(4) 0.5000
O1_2 O 0.8392(4) 0.7537(4) 0.7251(3)
O3_3 O 0.8499(4) 0.8499(4) 0.7955(4)
N1_4 N 1.0000 0.6529(7) 0.5822(7)
C1_3 C 0.8170(6) 0.7125(5) 0.6969(4)
C2_3 C 0.8669(6) 0.6992(3) 0.6703(4)
C3_3 C 0.8544(8) 0.6741(5) 0.6306(4)
H1_3 H 0.8140 0.6686 0.6254
C4_3 C 0.8902(8) 0.6556(6) 0.5968(6)
H2_3 H 0.8769 0.6387 0.5705
C5_3 C 0.9483(9) 0.6653(4) 0.6073(4)
C6_3 C 0.9678(5) 0.6900(4) 0.6459(4)
C7_3 C 0.9264(5) 0.7062(4) 0.6762(3)
H3_3 H 0.9395 0.7232 0.7025
C8_6 C 1.0000 0.6534(4) 0.5000
H4_6 H 1.0000 0.6947 0.5000
C9_4 C 1.0000 0.6226(4) 0.53871(18)
C10_4 C 1.0000 0.5620(4) 0.53883(17)
H5_4 H 1.0000 0.5414 0.5655
C11_6 C 1.0000 0.5314(4) 0.5000
O5_2 O 0.8392(4) 0.7537(4) 0.2749(3)
O7_2 O 0.8392(4) 0.2463(4) 0.7251(3)
O9_2 O 0.8392(4) 0.2463(4) 0.2749(3)
O11_2 O 0.7537(4) 0.8392(4) 0.7251(3)
O13_2 O 0.7537(4) 0.8392(4) 0.2749(3)
O31_3 O 0.8499(4) 0.8499(4) 0.2045(4)
N2_4 N 1.0000 0.6529(7) 0.4178(7)
N3_4 N 1.0000 0.3471(7) 0.5822(7)
N4_4 N 1.0000 0.3471(7) 0.4178(7)
C13_3 C 0.8170(6) 0.7125(5) 0.3031(4)
C15_3 C 0.8170(6) 0.2875(5) 0.6969(4)
C17_3 C 0.8170(6) 0.2875(5) 0.3031(4)
C20_3 C 0.8669(6) 0.6992(3) 0.3297(4)
C22_3 C 0.8669(6) 0.3008(3) 0.6703(4)
C24_3 C 0.8669(6) 0.3008(3) 0.3297(4)
C27_3 C 0.8544(8) 0.6741(5) 0.3694(4)
C29_3 C 0.8544(8) 0.3259(5) 0.6306(4)
C31_3 C 0.8544(8) 0.3259(5) 0.3694(4)
H8_3 H 0.8140 0.6686 0.3746
H9_3 H 0.8140 0.3314 0.6254
H11_3 H 0.8140 0.3314 0.3746
C34_3 C 0.8902(8) 0.6556(6) 0.4032(6)
C36_3 C 0.8902(8) 0.3444(6) 0.5968(6)
C38_3 C 0.8902(8) 0.3444(6) 0.4032(6)
H15_3 H 0.8769 0.6387 0.4295
H16_3 H 0.8769 0.3613 0.5705
H18_3 H 0.8769 0.3613 0.4295
C41_3 C 0.9483(9) 0.6653(4) 0.3927(4)
C43_3 C 0.9483(9) 0.3347(4) 0.6073(4)
C45_3 C 0.9483(9) 0.3347(4) 0.3927(4)
C48_3 C 0.9678(5) 0.6900(4) 0.3541(4)
C50_3 C 0.9678(5) 0.3100(4) 0.6459(4)
C52_3 C 0.9678(5) 0.3100(4) 0.3541(4)
C55_3 C 0.9264(5) 0.7062(4) 0.3238(3)
C57_3 C 0.9264(5) 0.2938(4) 0.6762(3)
C59_3 C 0.9264(5) 0.2938(4) 0.3238(3)
H22_3 H 0.9395 0.7232 0.2975
H23_3 H 0.9395 0.2768 0.7025
H25_3 H 0.9395 0.2768 0.2975
C61_6 C 1.0000 0.3466(4) 0.5000
H27_6 H 1.0000 0.3053 0.5000
C62_4 C 1.0000 0.6226(4) 0.46129(18)
C63_4 C 1.0000 0.3774(4) 0.53871(18)
C64_4 C 1.0000 0.3774(4) 0.46129(18)
C65_4 C 1.0000 0.5620(4) 0.46117(17)
C66_4 C 1.0000 0.4380(4) 0.53883(17)
C67_4 C 1.0000 0.4380(4) 0.46117(17)
H28_4 H 1.0000 0.5414 0.4345
H29_4 H 1.0000 0.4586 0.4345
H30_4 H 1.0000 0.4586 0.5655
C68_6 C 1.0000 0.4686(4) 0.5000
N1_5 N 0.3471(7) 0.0000 0.5822(7)
C8_7 C 0.3466(4) -0.0000 0.5000
H4_7 H 0.3053 -0.0000 0.5000
C9_5 C 0.3774(4) 0.0000 0.53871(18)
C10_5 C 0.4380(4) 0.0000 0.53883(17)
H5_5 H 0.4586 0.0000 0.5655
C11_7 C 0.4686(4) -0.0000 0.5000
O4_4 O 0.2463(4) 0.1608(4) 0.7251(3)
O6_4 O 0.2463(4) 0.1608(4) 0.2749(3)
O8_4 O 0.7537(4) 0.1608(4) 0.7251(3)
O10_4 O 0.7537(4) 0.1608(4) 0.2749(3)
O30_4 O 0.1501(4) 0.1501(4) 0.7955(4)
O32_4 O 0.1501(4) 0.1501(4) 0.2045(4)
N2_5 N 0.3471(7) 0.0000 0.4178(7)
N3_5 N 0.6529(7) 0.0000 0.5822(7)
N4_5 N 0.6529(7) 0.0000 0.4178(7)
C12_4 C 0.2875(5) 0.1830(6) 0.6969(4)
C14_4 C 0.2875(5) 0.1830(6) 0.3031(4)
C16_4 C 0.7125(5) 0.1830(6) 0.6969(4)
C18_4 C 0.7125(5) 0.1830(6) 0.3031(4)
C19_4 C 0.3008(3) 0.1331(6) 0.6703(4)
C21_4 C 0.3008(3) 0.1331(6) 0.3297(4)
C23_4 C 0.6992(3) 0.1331(6) 0.6703(4)
C25_4 C 0.6992(3) 0.1331(6) 0.3297(4)
C26_4 C 0.3259(5) 0.1456(8) 0.6306(4)
C28_4 C 0.3259(5) 0.1456(8) 0.3694(4)
C30_4 C 0.6741(5) 0.1456(8) 0.6306(4)
C32_4 C 0.6741(5) 0.1456(8) 0.3694(4)
H6_4 H 0.3314 0.1860 0.6254
H7_4 H 0.3314 0.1860 0.3746
H10_4 H 0.6686 0.1860 0.6254
H12_4 H 0.6686 0.1860 0.3746
C33_4 C 0.3444(6) 0.1098(8) 0.5968(6)
C35_4 C 0.3444(6) 0.1098(8) 0.4032(6)
C37_4 C 0.6556(6) 0.1098(8) 0.5968(6)
C39_4 C 0.6556(6) 0.1098(8) 0.4032(6)
H13_4 H 0.3613 0.1231 0.5705
H14_4 H 0.3613 0.1231 0.4295
H17_4 H 0.6387 0.1231 0.5705
H19_4 H 0.6387 0.1231 0.4295
C40_4 C 0.3347(4) 0.0517(9) 0.6073(4)
C42_4 C 0.3347(4) 0.0517(9) 0.3927(4)
C44_4 C 0.6653(4) 0.0517(9) 0.6073(4)
C46_4 C 0.6653(4) 0.0517(9) 0.3927(4)
C47_4 C 0.3100(4) 0.0322(5) 0.6459(4)
C49_4 C 0.3100(4) 0.0322(5) 0.3541(4)
C51_4 C 0.6900(4) 0.0322(5) 0.6459(4)
C53_4 C 0.6900(4) 0.0322(5) 0.3541(4)
C54_4 C 0.2938(4) 0.0736(5) 0.6762(3)
C56_4 C 0.2938(4) 0.0736(5) 0.3238(3)
C58_4 C 0.7062(4) 0.0736(5) 0.6762(3)
C60_4 C 0.7062(4) 0.0736(5) 0.3238(3)
H20_4 H 0.2768 0.0605 0.7025
H21_4 H 0.2768 0.0605 0.2975
H24_4 H 0.7232 0.0605 0.7025
H26_4 H 0.7232 0.0605 0.2975
C61_7 C 0.6534(4) -0.0000 0.5000
H27_7 H 0.6947 -0.0000 0.5000
C62_5 C 0.3774(4) 0.0000 0.46129(18)
C63_5 C 0.6226(4) 0.0000 0.53871(18)
C64_5 C 0.6226(4) 0.0000 0.46129(18)
C65_5 C 0.4380(4) 0.0000 0.46117(17)
C66_5 C 0.5620(4) 0.0000 0.53883(17)
C67_5 C 0.5620(4) 0.0000 0.46117(17)
H28_5 H 0.4586 -0.0000 0.4345
H29_5 H 0.5414 -0.0000 0.4345
H30_5 H 0.5414 0.0000 0.5655
C68_7 C 0.5314(4) -0.0000 0.5000
N1_6 N 0.3471(7) 1.0000 0.5822(7)
C1_4 C 0.2875(5) 0.8170(6) 0.6969(4)
C2_4 C 0.3008(3) 0.8669(6) 0.6703(4)
C3_4 C 0.3259(5) 0.8544(8) 0.6306(4)
H1_4 H 0.3314 0.8140 0.6254
C4_4 C 0.3444(6) 0.8902(8) 0.5968(6)
H2_4 H 0.3613 0.8769 0.5705
C5_4 C 0.3347(4) 0.9483(9) 0.6073(4)
C6_4 C 0.3100(4) 0.9678(5) 0.6459(4)
C7_4 C 0.2938(4) 0.9264(5) 0.6762(3)
H3_4 H 0.2768 0.9395 0.7025
C8_8 C 0.3466(4) 1.0000 0.5000
H4_8 H 0.3053 1.0000 0.5000
C9_6 C 0.3774(4) 1.0000 0.53871(18)
C10_6 C 0.4380(4) 1.0000 0.53883(17)
H5_6 H 0.4586 1.0000 0.5655
C11_8 C 0.4686(4) 1.0000 0.5000
N2_6 N 0.3471(7) 1.0000 0.4178(7)
N3_6 N 0.6529(7) 1.0000 0.5822(7)
N4_6 N 0.6529(7) 1.0000 0.4178(7)
C13_4 C 0.2875(5) 0.8170(6) 0.3031(4)
C15_4 C 0.7125(5) 0.8170(6) 0.6969(4)
C17_4 C 0.7125(5) 0.8170(6) 0.3031(4)
C20_4 C 0.3008(3) 0.8669(6) 0.3297(4)
C22_4 C 0.6992(3) 0.8669(6) 0.6703(4)
C24_4 C 0.6992(3) 0.8669(6) 0.3297(4)
C27_4 C 0.3259(5) 0.8544(8) 0.3694(4)
C29_4 C 0.6741(5) 0.8544(8) 0.6306(4)
C31_4 C 0.6741(5) 0.8544(8) 0.3694(4)
H8_4 H 0.3314 0.8140 0.3746
H9_4 H 0.6686 0.8140 0.6254
H11_4 H 0.6686 0.8140 0.3746
C34_4 C 0.3444(6) 0.8902(8) 0.4032(6)
C36_4 C 0.6556(6) 0.8902(8) 0.5968(6)
C38_4 C 0.6556(6) 0.8902(8) 0.4032(6)
H15_4 H 0.3613 0.8769 0.4295
H16_4 H 0.6387 0.8769 0.5705
H18_4 H 0.6387 0.8769 0.4295
C41_4 C 0.3347(4) 0.9483(9) 0.3927(4)
C43_4 C 0.6653(4) 0.9483(9) 0.6073(4)
C45_4 C 0.6653(4) 0.9483(9) 0.3927(4)
C48_4 C 0.3100(4) 0.9678(5) 0.3541(4)
C50_4 C 0.6900(4) 0.9678(5) 0.6459(4)
C52_4 C 0.6900(4) 0.9678(5) 0.3541(4)
C55_4 C 0.2938(4) 0.9264(5) 0.3238(3)
C57_4 C 0.7062(4) 0.9264(5) 0.6762(3)
C59_4 C 0.7062(4) 0.9264(5) 0.3238(3)
H22_4 H 0.2768 0.9395 0.2975
H23_4 H 0.7232 0.9395 0.7025
H25_4 H 0.7232 0.9395 0.2975
C61_8 C 0.6534(4) 1.0000 0.5000
H27_8 H 0.6947 1.0000 0.5000
C62_6 C 0.3774(4) 1.0000 0.46129(18)
C63_6 C 0.6226(4) 1.0000 0.53871(18)
C64_6 C 0.6226(4) 1.0000 0.46129(18)
C65_6 C 0.4380(4) 1.0000 0.46117(17)
C66_6 C 0.5620(4) 1.0000 0.53883(17)
C67_6 C 0.5620(4) 1.0000 0.46117(17)
H28_6 H 0.4586 1.0000 0.4345
H29_6 H 0.5414 1.0000 0.4345
H30_6 H 0.5414 1.0000 0.5655
C68_8 C 0.5314(4) 1.0000 0.5000
O3_4 O 0.8499(4) 0.1501(4) 0.7955(4)
O31_4 O 0.8499(4) 0.1501(4) 0.2045(4)
loop_
_geom_bond_atom_site_label_1
_geom_bond_atom_site_label_2
_geom_bond_site_symmetry_1
_geom_bond_site_symmetry_2
Cu1 O1 1_555 1_555
O1 C1 1_555 1_555
O2 C1 1_555 1_555
O3 Cu1 1_555 1_555
N1 C5 1_555 1_555
C1 C2 1_555 1_555
C2 C3 1_555 1_555
C3 H1 1_555 1_555
C4 C3 1_555 1_555
H2 C4 1_555 1_555
C5 C4 1_555 1_555
C6 C5 1_555 1_555
C7 C2 1_555 1_555
H3 C7 1_555 1_555
C8 H4 1_555 1_555
C9 N1 1_555 1_555
C10 C9 1_555 1_555
H5 C10 1_555 1_555
C11 C10 1_555 1_555
Cu2 O4 1_555 1_555
Cu5 O2 1_555 1_555
Cu6 O15 1_555 1_555
O4 C12 1_555 1_555
O11 Cu1 1_555 1_555
O12 Cu2 1_555 1_555
O15 C12 1_555 1_555
O22 Cu1 1_555 1_555
O23 Cu1 1_555 1_555
O24 Cu2 1_555 1_555
O25 Cu2 1_555 1_555
O30 Cu2 1_555 1_555
C12 C19 1_555 1_555
C19 C26 1_555 1_555
C26 H6 1_555 1_555
C33 C26 1_555 1_555
H13 C33 1_555 1_555
C40 N1 1_555 1_555
C47 C6 1_555 1_555
C54 C19 1_555 1_555
H20 C54 1_555 1_555
C6 C7 1_555 1_555
C8 C9 1_555 1_555
C33 C40 1_555 1_555
C40 C47 1_555 1_555
C47 C54 1_555 1_555
C8_2 H4_2 1_555 1_555
Cu3 O5 1_555 1_555
Cu4 O6 1_555 1_555
Cu7 O16 1_555 1_555
Cu8 O17 1_555 1_555
O5 C13 1_555 1_555
O6 C14 1_555 1_555
O13 Cu3 1_555 1_555
O14 Cu4 1_555 1_555
O16 C13 1_555 1_555
O17 C14 1_555 1_555
O26 Cu3 1_555 1_555
O27 Cu3 1_555 1_555
O28 Cu4 1_555 1_555
O29 Cu4 1_555 1_555
O31 Cu3 1_555 1_555
O32 Cu4 1_555 1_555
N2 C41 1_555 1_555
C13 C20 1_555 1_555
C14 C21 1_555 1_555
C20 C27 1_555 1_555
C21 C28 1_555 1_555
C27 H8 1_555 1_555
C28 H7 1_555 1_555
C34 C27 1_555 1_555
C35 C28 1_555 1_555
H14 C35 1_555 1_555
H15 C34 1_555 1_555
C41 C34 1_555 1_555
C42 N2 1_555 1_555
C48 C41 1_555 1_555
C49 C42 1_555 1_555
C55 C20 1_555 1_555
C56 C21 1_555 1_555
H21 C56 1_555 1_555
H22 C55 1_555 1_555
C62 C8_2 1_555 1_555
C65 C11_2 1_555 1_555
H28 C65 1_555 1_555
N2 C62 1_555 1_555
C35 C42 1_555 1_555
C48 C49 1_555 1_555
C48 C55 1_555 1_555
C49 C56 1_555 1_555
C62 C65 1_555 1_555
Cu9 O7 1_555 1_555
Cu10 O18 1_555 1_555
Cu11 O8 1_555 1_555
Cu12 O19 1_555 1_555
O7 C15 1_555 1_555
O8 C16 1_555 1_555
O18 C15 1_555 1_555
O19 C16 1_555 1_555
N3 C43 1_555 1_555
C15 C22 1_555 1_555
C16 C23 1_555 1_555
C22 C29 1_555 1_555
C23 C30 1_555 1_555
C29 H9 1_555 1_555
C30 H10 1_555 1_555
C36 C29 1_555 1_555
C37 C30 1_555 1_555
H16 C36 1_555 1_555
H17 C37 1_555 1_555
C43 C36 1_555 1_555
C44 N3 1_555 1_555
C50 C43 1_555 1_555
C51 C44 1_555 1_555
C57 C22 1_555 1_555
C58 C23 1_555 1_555
H23 C57 1_555 1_555
H24 C58 1_555 1_555
C61 H27 1_555 1_555
C63 N3 1_555 1_555
C66 C63 1_555 1_555
H30 C66 1_555 1_555
C37 C44 1_555 1_555
C50 C51 1_555 1_555
C50 C57 1_555 1_555
C51 C58 1_555 1_555
C61 C63 1_555 1_555
C66 C68 1_555 1_555
Cu13 O9 1_555 1_555
Cu14 O20 1_555 1_555
Cu15 O10 1_555 1_555
Cu16 O21 1_555 1_555
O9 C17 1_555 1_555
O10 C18 1_555 1_555
O20 C17 1_555 1_555
O21 C18 1_555 1_555
N4 C45 1_555 1_555
C17 C24 1_555 1_555
C18 C25 1_555 1_555
C24 C31 1_555 1_555
C25 C32 1_555 1_555
C31 H11 1_555 1_555
C32 H12 1_555 1_555
C38 C31 1_555 1_555
C39 C32 1_555 1_555
H18 C38 1_555 1_555
H19 C39 1_555 1_555
C45 C38 1_555 1_555
C46 N4 1_555 1_555
C52 C45 1_555 1_555
C53 C46 1_555 1_555
C59 C24 1_555 1_555
C60 C25 1_555 1_555
H25 C59 1_555 1_555
H26 C60 1_555 1_555
C61_2 H27_2 1_555 1_555
C64 N4 1_555 1_555
C67 C64 1_555 1_555
H29 C67 1_555 1_555
C39 C46 1_555 1_555
C52 C53 1_555 1_555
C52 C59 1_555 1_555
C53 C60 1_555 1_555
C61_2 C64 1_555 1_555
C67 C68_2 1_555 1_555
Cu5 O18_2 1_555 1_555
Cu9 O8_2 1_555 1_555
Cu10 O19_2 1_555 1_555
O11 C15_2 1_555 1_555
O8_2 C16_2 1_555 1_555
O18_2 C15_2 1_555 1_555
O19_2 C16_2 1_555 1_555
N3_2 C43_2 1_555 1_555
C15_2 C22_2 1_555 1_555
C16_2 C23_2 1_555 1_555
C22_2 C29_2 1_555 1_555
C23_2 C30_2 1_555 1_555
C29_2 H9_2 1_555 1_555
C30_2 H10_2 1_555 1_555
C36_2 C29_2 1_555 1_555
C37_2 C30_2 1_555 1_555
H16_2 C36_2 1_555 1_555
H17_2 C37_2 1_555 1_555
C43_2 C36_2 1_555 1_555
C44_2 N3_2 1_555 1_555
C50_2 C43_2 1_555 1_555
C51_2 C44_2 1_555 1_555
C57_2 C22_2 1_555 1_555
C58_2 C23_2 1_555 1_555
H23_2 C57_2 1_555 1_555
H24_2 C58_2 1_555 1_555
C61_3 H27_3 1_555 1_555
C63_2 N3_2 1_555 1_555
C66_2 C63_2 1_555 1_555
H30_2 C66_2 1_555 1_555
C37_2 C44_2 1_555 1_555
C50_2 C51_2 1_555 1_555
C50_2 C57_2 1_555 1_555
C51_2 C58_2 1_555 1_555
C61_3 C63_2 1_555 1_555
C66_2 C68_3 1_555 1_555
Cu7 O20_2 1_555 1_555
Cu13 O10_2 1_555 1_555
Cu14 O21_2 1_555 1_555
O13 C17_2 1_555 1_555
O10_2 C18_2 1_555 1_555
O20_2 C17_2 1_555 1_555
O21_2 C18_2 1_555 1_555
N4_2 C45_2 1_555 1_555
C17_2 C24_2 1_555 1_555
C18_2 C25_2 1_555 1_555
C24_2 C31_2 1_555 1_555
C25_2 C32_2 1_555 1_555
C31_2 H11_2 1_555 1_555
C32_2 H12_2 1_555 1_555
C38_2 C31_2 1_555 1_555
C39_2 C32_2 1_555 1_555
H18_2 C38_2 1_555 1_555
H19_2 C39_2 1_555 1_555
C45_2 C38_2 1_555 1_555
C46_2 N4_2 1_555 1_555
C52_2 C45_2 1_555 1_555
C53_2 C46_2 1_555 1_555
C59_2 C24_2 1_555 1_555
C60_2 C25_2 1_555 1_555
H25_2 C59_2 1_555 1_555
H26_2 C60_2 1_555 1_555
C61_4 H27_4 1_555 1_555
C64_2 N4_2 1_555 1_555
C67_2 C64_2 1_555 1_555
H29_2 C67_2 1_555 1_555
C39_2 C46_2 1_555 1_555
C52_2 C53_2 1_555 1_555
C52_2 C59_2 1_555 1_555
C53_2 C60_2 1_555 1_555
C61_4 C64_2 1_555 1_555
C67_2 C68_4 1_555 1_555
O12 C1_2 1_555 1_555
O2_2 C1_2 1_555 1_555
N1_2 C5_2 1_555 1_555
C1_2 C2_2 1_555 1_555
C2_2 C3_2 1_555 1_555
C3_2 H1_2 1_555 1_555
C4_2 C3_2 1_555 1_555
H2_2 C4_2 1_555 1_555
C5_2 C4_2 1_555 1_555
C6_2 C5_2 1_555 1_555
C7_2 C2_2 1_555 1_555
H3_2 C7_2 1_555 1_555
C8_3 H4_3 1_555 1_555
C9_2 N1_2 1_555 1_555
C10_2 C9_2 1_555 1_555
H5_2 C10_2 1_555 1_555
C11_3 C10_2 1_555 1_555
Cu11 O4_2 1_555 1_555
Cu6 O2_2 1_555 1_555
Cu12 O15_2 1_555 1_555
O4_2 C12_2 1_555 1_555
O15_2 C12_2 1_555 1_555
O24_2 Cu11 1_555 1_555
O25_2 Cu11 1_555 1_555
O30_2 Cu11 1_555 1_555
C12_2 C19_2 1_555 1_555
C19_2 C26_2 1_555 1_555
C26_2 H6_2 1_555 1_555
C33_2 C26_2 1_555 1_555
H13_2 C33_2 1_555 1_555
C40_2 N1_2 1_555 1_555
C47_2 C6_2 1_555 1_555
C54_2 C19_2 1_555 1_555
H20_2 C54_2 1_555 1_555
C6_2 C7_2 1_555 1_555
C8_3 C9_2 1_555 1_555
C33_2 C40_2 1_555 1_555
C40_2 C47_2 1_555 1_555
C47_2 C54_2 1_555 1_555
C8_4 H4_4 1_555 1_555
Cu15 O6_2 1_555 1_555
Cu8 O16_2 1_555 1_555
Cu16 O17_2 1_555 1_555
O14 C13_2 1_555 1_555
O6_2 C14_2 1_555 1_555
O16_2 C13_2 1_555 1_555
O17_2 C14_2 1_555 1_555
O28_2 Cu15 1_555 1_555
O29_2 Cu15 1_555 1_555
O32_2 Cu15 1_555 1_555
N2_2 C41_2 1_555 1_555
C13_2 C20_2 1_555 1_555
C14_2 C21_2 1_555 1_555
C20_2 C27_2 1_555 1_555
C21_2 C28_2 1_555 1_555
C27_2 H8_2 1_555 1_555
C28_2 H7_2 1_555 1_555
C34_2 C27_2 1_555 1_555
C35_2 C28_2 1_555 1_555
H14_2 C35_2 1_555 1_555
H15_2 C34_2 1_555 1_555
C41_2 C34_2 1_555 1_555
C42_2 N2_2 1_555 1_555
C48_2 C41_2 1_555 1_555
C49_2 C42_2 1_555 1_555
C55_2 C20_2 1_555 1_555
C56_2 C21_2 1_555 1_555
H21_2 C56_2 1_555 1_555
H22_2 C55_2 1_555 1_555
C62_2 C8_4 1_555 1_555
C65_2 C11_4 1_555 1_555
H28_2 C65_2 1_555 1_555
N2_2 C62_2 1_555 1_555
C35_2 C42_2 1_555 1_555
C48_2 C49_2 1_555 1_555
C48_2 C55_2 1_555 1_555
C49_2 C56_2 1_555 1_555
C62_2 C65_2 1_555 1_555
O3_2 Cu9 1_555 1_555
O22_2 Cu9 1_555 1_555
O23_2 Cu9 1_555 1_555
O26_2 Cu13 1_555 1_555
O27_2 Cu13 1_555 1_555
O31_2 Cu13 1_555 1_555
C8_5 H4_5 1_555 1_555
C9_3 N1_3 1_555 1_555
C10_3 C9_3 1_555 1_555
H5_3 C10_3 1_555 1_555
C11_5 C10_3 1_555 1_555
Cu14 O4_3 1_555 1_555
Cu10 O6_3 1_555 1_555
Cu7 O8_3 1_555 1_555
Cu5 O10_3 1_555 1_555
O4_3 C12_3 1_555 1_555
O6_3 C14_3 1_555 1_555
O8_3 C16_3 1_555 1_555
O10_3 C18_3 1_555 1_555
O12_2 Cu14 1_555 1_555
O14_2 Cu10 1_555 1_555
O27_2 C12_3 1_555 1_555
O23_2 C14_3 1_555 1_555
O26 C16_3 1_555 1_555
O22 C18_3 1_555 1_555
O30_3 Cu14 1_555 1_555
O32_3 Cu10 1_555 1_555
C12_3 C19_3 1_555 1_555
C14_3 C21_3 1_555 1_555
C16_3 C23_3 1_555 1_555
C18_3 C25_3 1_555 1_555
C19_3 C26_3 1_555 1_555
C21_3 C28_3 1_555 1_555
C23_3 C30_3 1_555 1_555
C25_3 C32_3 1_555 1_555
C26_3 H6_3 1_555 1_555
C28_3 H7_3 1_555 1_555
C30_3 H10_3 1_555 1_555
C32_3 H12_3 1_555 1_555
C33_3 C26_3 1_555 1_555
C35_3 C28_3 1_555 1_555
C37_3 C30_3 1_555 1_555
C39_3 C32_3 1_555 1_555
H13_3 C33_3 1_555 1_555
H14_3 C35_3 1_555 1_555
H17_3 C37_3 1_555 1_555
H19_3 C39_3 1_555 1_555
C40_3 N1_3 1_555 1_555
C42_3 N2_3 1_555 1_555
C44_3 N3_3 1_555 1_555
C46_3 N4_3 1_555 1_555
C49_3 C42_3 1_555 1_555
C51_3 C44_3 1_555 1_555
C53_3 C46_3 1_555 1_555
C54_3 C19_3 1_555 1_555
C56_3 C21_3 1_555 1_555
C58_3 C23_3 1_555 1_555
C60_3 C25_3 1_555 1_555
H20_3 C54_3 1_555 1_555
H21_3 C56_3 1_555 1_555
H24_3 C58_3 1_555 1_555
H26_3 C60_3 1_555 1_555
C61_5 H27_5 1_555 1_555
C62_3 C8_5 1_555 1_555
C63_3 N3_3 1_555 1_555
C64_3 N4_3 1_555 1_555
C65_3 C11_5 1_555 1_555
C66_3 C63_3 1_555 1_555
C67_3 C64_3 1_555 1_555
H28_3 C65_3 1_555 1_555
H29_3 C67_3 1_555 1_555
H30_3 C66_3 1_555 1_555
C68_5 C11_5 1_555 1_555
C8_5 C9_3 1_555 1_555
N2_3 C62_3 1_555 1_555
C33_3 C40_3 1_555 1_555
C35_3 C42_3 1_555 1_555
C37_3 C44_3 1_555 1_555
C39_3 C46_3 1_555 1_555
C40_3 C47_3 1_555 1_555
C47_3 C54_3 1_555 1_555
C49_3 C56_3 1_555 1_555
C51_3 C58_3 1_555 1_555
C53_3 C60_3 1_555 1_555
C61_5 C63_3 1_555 1_555
C61_5 C64_3 1_555 1_555
C62_3 C65_3 1_555 1_555
C66_3 C68_5 1_555 1_555
C67_3 C68_5 1_555 1_555
Cu16 O1_2 1_555 1_555
O1_2 C1_3 1_555 1_555
O29_2 C1_3 1_555 1_555
O3_3 Cu16 1_555 1_555
N1_4 C5_3 1_555 1_555
C1_3 C2_3 1_555 1_555
C2_3 C3_3 1_555 1_555
C3_3 H1_3 1_555 1_555
C4_3 C3_3 1_555 1_555
H2_3 C4_3 1_555 1_555
C5_3 C4_3 1_555 1_555
C6_3 C5_3 1_555 1_555
C7_3 C2_3 1_555 1_555
H3_3 C7_3 1_555 1_555
C8_6 H4_6 1_555 1_555
C9_4 N1_4 1_555 1_555
C10_4 C9_4 1_555 1_555
H5_4 C10_4 1_555 1_555
C11_6 C10_4 1_555 1_555
Cu12 O5_2 1_555 1_555
Cu8 O7_2 1_555 1_555
Cu6 O9_2 1_555 1_555
O5_2 C13_3 1_555 1_555
O7_2 C15_3 1_555 1_555
O9_2 C17_3 1_555 1_555
O11_2 Cu16 1_555 1_555
O13_2 Cu12 1_555 1_555
O25_2 C13_3 1_555 1_555
O28 C15_3 1_555 1_555
O24 C17_3 1_555 1_555
O31_3 Cu12 1_555 1_555
N2_4 C41_3 1_555 1_555
N3_4 C43_3 1_555 1_555
N4_4 C45_3 1_555 1_555
C13_3 C20_3 1_555 1_555
C15_3 C22_3 1_555 1_555
C17_3 C24_3 1_555 1_555
C20_3 C27_3 1_555 1_555
C22_3 C29_3 1_555 1_555
C24_3 C31_3 1_555 1_555
C27_3 H8_3 1_555 1_555
C29_3 H9_3 1_555 1_555
C31_3 H11_3 1_555 1_555
C34_3 C27_3 1_555 1_555
C36_3 C29_3 1_555 1_555
C38_3 C31_3 1_555 1_555
H15_3 C34_3 1_555 1_555
H16_3 C36_3 1_555 1_555
H18_3 C38_3 1_555 1_555
C41_3 C34_3 1_555 1_555
C43_3 C36_3 1_555 1_555
C45_3 C38_3 1_555 1_555
C48_3 C41_3 1_555 1_555
C50_3 C43_3 1_555 1_555
C52_3 C45_3 1_555 1_555
C55_3 C20_3 1_555 1_555
C57_3 C22_3 1_555 1_555
C59_3 C24_3 1_555 1_555
H22_3 C55_3 1_555 1_555
H23_3 C57_3 1_555 1_555
H25_3 C59_3 1_555 1_555
C61_6 H27_6 1_555 1_555
C62_4 C8_6 1_555 1_555
C63_4 N3_4 1_555 1_555
C64_4 N4_4 1_555 1_555
C65_4 C11_6 1_555 1_555
C66_4 C63_4 1_555 1_555
C67_4 C64_4 1_555 1_555
H28_4 C65_4 1_555 1_555
H29_4 C67_4 1_555 1_555
H30_4 C66_4 1_555 1_555
C68_6 C11_6 1_555 1_555
C6_3 C7_3 1_555 1_555
C8_6 C9_4 1_555 1_555
N2_4 C62_4 1_555 1_555
C48_3 C55_3 1_555 1_555
C50_3 C57_3 1_555 1_555
C52_3 C59_3 1_555 1_555
C61_6 C63_4 1_555 1_555
C61_6 C64_4 1_555 1_555
C62_4 C65_4 1_555 1_555
C66_4 C68_6 1_555 1_555
C67_4 C68_6 1_555 1_555
C8_7 H4_7 1_555 1_555
C9_5 N1_5 1_555 1_555
C10_5 C9_5 1_555 1_555
H5_5 C10_5 1_555 1_555
C11_7 C10_5 1_555 1_555
Cu7 O4_4 1_555 1_555
Cu5 O6_4 1_555 1_555
Cu8 O8_4 1_555 1_555
Cu6 O10_4 1_555 1_555
O4_4 C12_4 1_555 1_555
O6_4 C14_4 1_555 1_555
O8_4 C16_4 1_555 1_555
O10_4 C18_4 1_555 1_555
O27 C12_4 1_555 1_555
O23 C14_4 1_555 1_555
O29 C16_4 1_555 1_555
O25 C18_4 1_555 1_555
O30_4 Cu7 1_555 1_555
O32_4 Cu5 1_555 1_555
C12_4 C19_4 1_555 1_555
C14_4 C21_4 1_555 1_555
C16_4 C23_4 1_555 1_555
C18_4 C25_4 1_555 1_555
C19_4 C26_4 1_555 1_555
C21_4 C28_4 1_555 1_555
C23_4 C30_4 1_555 1_555
C25_4 C32_4 1_555 1_555
C26_4 H6_4 1_555 1_555
C28_4 H7_4 1_555 1_555
C30_4 H10_4 1_555 1_555
C32_4 H12_4 1_555 1_555
C33_4 C26_4 1_555 1_555
C35_4 C28_4 1_555 1_555
C37_4 C30_4 1_555 1_555
C39_4 C32_4 1_555 1_555
H13_4 C33_4 1_555 1_555
H14_4 C35_4 1_555 1_555
H17_4 C37_4 1_555 1_555
H19_4 C39_4 1_555 1_555
C40_4 N1_5 1_555 1_555
C42_4 N2_5 1_555 1_555
C44_4 N3_5 1_555 1_555
C46_4 N4_5 1_555 1_555
C49_4 C42_4 1_555 1_555
C51_4 C44_4 1_555 1_555
C53_4 C46_4 1_555 1_555
C54_4 C19_4 1_555 1_555
C56_4 C21_4 1_555 1_555
C58_4 C23_4 1_555 1_555
C60_4 C25_4 1_555 1_555
H20_4 C54_4 1_555 1_555
H21_4 C56_4 1_555 1_555
H24_4 C58_4 1_555 1_555
H26_4 C60_4 1_555 1_555
C61_7 H27_7 1_555 1_555
C62_5 C8_7 1_555 1_555
C63_5 N3_5 1_555 1_555
C64_5 N4_5 1_555 1_555
C65_5 C11_7 1_555 1_555
C66_5 C63_5 1_555 1_555
C67_5 C64_5 1_555 1_555
H28_5 C65_5 1_555 1_555
H29_5 C67_5 1_555 1_555
H30_5 C66_5 1_555 1_555
C68_7 C11_7 1_555 1_555
C8_7 C9_5 1_555 1_555
N2_5 C62_5 1_555 1_555
C33_4 C40_4 1_555 1_555
C35_4 C42_4 1_555 1_555
C37_4 C44_4 1_555 1_555
C39_4 C46_4 1_555 1_555
C40_4 C47_4 1_555 1_555
C47_4 C54_4 1_555 1_555
C49_4 C56_4 1_555 1_555
C51_4 C58_4 1_555 1_555
C53_4 C60_4 1_555 1_555
C61_7 C63_5 1_555 1_555
C61_7 C64_5 1_555 1_555
C62_5 C65_5 1_555 1_555
C66_5 C68_7 1_555 1_555
C67_5 C68_7 1_555 1_555
O12_2 C1_4 1_555 1_555
O26_2 C1_4 1_555 1_555
N1_6 C5_4 1_555 1_555
C1_4 C2_4 1_555 1_555
C2_4 C3_4 1_555 1_555
C3_4 H1_4 1_555 1_555
C4_4 C3_4 1_555 1_555
H2_4 C4_4 1_555 1_555
C5_4 C4_4 1_555 1_555
C6_4 C5_4 1_555 1_555
C7_4 C2_4 1_555 1_555
H3_4 C7_4 1_555 1_555
C8_8 H4_8 1_555 1_555
C9_6 N1_6 1_555 1_555
C10_6 C9_6 1_555 1_555
H5_6 C10_6 1_555 1_555
C11_8 C10_6 1_555 1_555
O14_2 C13_4 1_555 1_555
O11_2 C15_4 1_555 1_555
O13_2 C17_4 1_555 1_555
O22_2 C13_4 1_555 1_555
O28_2 C15_4 1_555 1_555
O24_2 C17_4 1_555 1_555
N2_6 C41_4 1_555 1_555
N3_6 C43_4 1_555 1_555
N4_6 C45_4 1_555 1_555
C13_4 C20_4 1_555 1_555
C15_4 C22_4 1_555 1_555
C17_4 C24_4 1_555 1_555
C20_4 C27_4 1_555 1_555
C22_4 C29_4 1_555 1_555
C24_4 C31_4 1_555 1_555
C27_4 H8_4 1_555 1_555
C29_4 H9_4 1_555 1_555
C31_4 H11_4 1_555 1_555
C34_4 C27_4 1_555 1_555
C36_4 C29_4 1_555 1_555
C38_4 C31_4 1_555 1_555
H15_4 C34_4 1_555 1_555
H16_4 C36_4 1_555 1_555
H18_4 C38_4 1_555 1_555
C41_4 C34_4 1_555 1_555
C43_4 C36_4 1_555 1_555
C45_4 C38_4 1_555 1_555
C48_4 C41_4 1_555 1_555
C50_4 C43_4 1_555 1_555
C52_4 C45_4 1_555 1_555
C55_4 C20_4 1_555 1_555
C57_4 C22_4 1_555 1_555
C59_4 C24_4 1_555 1_555
H22_4 C55_4 1_555 1_555
H23_4 C57_4 1_555 1_555
H25_4 C59_4 1_555 1_555
C61_8 H27_8 1_555 1_555
C62_6 C8_8 1_555 1_555
C63_6 N3_6 1_555 1_555
C64_6 N4_6 1_555 1_555
C65_6 C11_8 1_555 1_555
C66_6 C63_6 1_555 1_555
C67_6 C64_6 1_555 1_555
H28_6 C65_6 1_555 1_555
H29_6 C67_6 1_555 1_555
H30_6 C66_6 1_555 1_555
C68_8 C11_8 1_555 1_555
C6_4 C7_4 1_555 1_555
C8_8 C9_6 1_555 1_555
N2_6 C62_6 1_555 1_555
C48_4 C55_4 1_555 1_555
C50_4 C57_4 1_555 1_555
C52_4 C59_4 1_555 1_555
C61_8 C63_6 1_555 1_555
C61_8 C64_6 1_555 1_555
C62_6 C65_6 1_555 1_555
C66_6 C68_8 1_555 1_555
C67_6 C68_8 1_555 1_555
O3_4 Cu8 1_555 1_555
O31_4 Cu6 1_555 1_555

#END
