
###############################################################################
#
# This file contains modified crystal structure data generated from the
# MOF subset of the Cambridge Structural Database (CSD) v543 
# hosted by the Cambridge Crystallographic Data Centre (CCDC).
#
# This work is licensed under the Creative Commons
# Attribution-NonCommercial-ShareAlike 4.0 International License.
# To view a copy of this license, visit
# http://creativecommons.org/licenses/by-nc-sa/4.0/
# or send a letter to
# Creative Commons, PO Box 1866, Mountain View, CA 94042, USA.
#
# CIF created using the CSD Python API on 29 September 2022
# The structure has been converted into the P1 space group
# The structure has a 3D framework
# The original CSD entry WAMRIN02 is in the monoclinic crystal system
# The framework has been calculated to contain at least 10.0% void space
# The void calculation uses a probe of radius 1.32A, grid spacing 0.4
#
###############################################################################

data_WAMRIN02
_chemical_formula_moiety         '(C64 H60 Mg14 N8 O40)n'
_symmetry_cell_setting           triclinic
_symmetry_space_group_name_H-M   'P 1'
_symmetry_Int_Tables_number      1
_space_group_name_Hall           'P 1'
loop_
_symmetry_equiv_pos_site_id
_symmetry_equiv_pos_as_xyz
1 x,y,z
_cell_length_a                   14.4840(14)
_cell_length_b                   13.3890(13)
_cell_length_c                   20.3730(14)
_cell_angle_alpha                90
_cell_angle_beta                 133.800(14)
_cell_angle_gamma                90
_cell_volume                     2851.57
loop_
_atom_site_label
_atom_site_type_symbol
_atom_site_fract_x
_atom_site_fract_y
_atom_site_fract_z
Mg1 Mg 0.0000 0.0000 0.0000
Mg2 Mg 0.24819(2) 0.05941(2) 0.006088(16)
O1 O 0.26868(5) 0.14203(6) 0.09905(4)
O2 O 0.35891(5) 0.16312(6) 0.00934(4)
H1 H 0.4184 0.1736 0.0637
O3 O 0.11794(5) 0.10565(6) 0.09880(4)
O5 O 0.63149(5) 0.35582(7) 0.34963(5)
O6 O 0.58090(5) 0.48392(6) 0.39006(4)
N1 N 0.16412(6) 0.37617(7) 0.29402(5)
H4 H 0.1954 0.4262 0.3327
H5 H 0.0895 0.3948 0.2440
C1 C 0.21216(7) 0.15387(8) 0.12465(5)
C2 C 0.26340(7) 0.23530(8) 0.19423(5)
C3 C 0.19352(7) 0.26618(8) 0.21435(5)
H8 H 0.1157 0.2363 0.1863
C4 C 0.24173(7) 0.34183(8) 0.27665(5)
C5 C 0.35831(7) 0.38590(8) 0.32167(5)
H9 H 0.3894 0.4357 0.3645
C6 C 0.42916(7) 0.35488(8) 0.30228(5)
C7 C 0.55759(7) 0.40174(8) 0.35086(5)
C8 C 0.38004(7) 0.28010(8) 0.23804(5)
H10 H 0.4263 0.2597 0.2242
Mg4 Mg 0.75181(2) 0.55941(2) 0.493912(16)
Mg1_2 Mg 0.0000 1.0000 0.0000
O4 O 0.14759(5) 0.94687(5) 0.01120(3)
H14 H 0.2113(8) 0.9193(6) 0.0607(2)
Mg7 Mg 0.24819(2) 0.44059(2) 0.506088(16)
O17 O 0.41910(5) 0.98392(6) 0.10994(4)
O20 O 0.05039(5) 0.90334(6) 0.09577(4)
O21 O 0.09209(5) 0.64568(6) 0.37504(4)
H18 H 0.0895 0.6111 0.4070
O22 O 0.23087(5) 0.52858(5) 0.41258(4)
N4 N 0.42347(6) 0.67638(8) 0.29969(5)
H21 H 0.4194 0.7101 0.2605
H22 H 0.4491 0.6115 0.3096
C25 C 0.01758(7) 0.85493(8) 0.12881(5)
C26 C 0.11350(7) 0.78077(8) 0.20163(5)
C27 C 0.09565(7) 0.73005(8) 0.25148(5)
H26 H 0.0230 0.7422 0.2409
C28 C 0.18587(7) 0.66120(8) 0.31716(5)
C29 C 0.16754(7) 0.60859(8) 0.37247(5)
C30 C 0.29393(7) 0.64283(8) 0.33255(6)
H27 H 0.3546 0.5970 0.3768
C31 C 0.31205(7) 0.69227(9) 0.28237(6)
C32 C 0.22209(7) 0.76210(8) 0.21766(6)
H28 H 0.2347 0.7967 0.1848
Mg1_3 Mg -0.0000 1.0000 1.0000
H15 H 0.1243(7) 0.9084(5) 0.9700(2)
O23 O 0.23087(5) 0.97142(5) 0.91258(4)
Mg1_4 Mg 1.0000 0.0000 0.0000
O24 O 0.76913(5) 0.02858(5) 0.08742(4)
H30 H 0.8757(7) 0.0916(5) 0.0300(2)
Mg1_5 Mg 1.0000 -0.0000 1.0000
O8 O 0.94961(5) 0.09666(6) 0.90423(4)
O9 O 0.90791(5) 0.35432(6) 0.62496(4)
H3 H 0.9105 0.3889 0.5930
O10 O 0.76913(5) 0.47142(5) 0.58742(4)
N2 N 0.57653(6) 0.32362(8) 0.70031(5)
H6 H 0.5806 0.2899 0.7395
H7 H 0.5509 0.3885 0.6904
C9 C 0.98242(7) 0.14507(8) 0.87119(5)
C10 C 0.88650(7) 0.21923(8) 0.79837(5)
C11 C 0.90435(7) 0.26995(8) 0.74852(5)
H11 H 0.9770 0.2578 0.7591
C12 C 0.81413(7) 0.33880(8) 0.68284(5)
C13 C 0.83246(7) 0.39141(8) 0.62753(5)
C14 C 0.70607(7) 0.35717(8) 0.66745(6)
H12 H 0.6454 0.4030 0.6232
C15 C 0.68795(7) 0.30773(9) 0.71763(6)
C16 C 0.77791(7) 0.23790(8) 0.78234(6)
H13 H 0.7653 0.2033 0.8152
O14 O 0.85241(5) 0.05313(5) 0.98880(3)
O18 O 0.58090(5) 0.01608(6) 0.89006(4)
H29 H 0.7887(8) 0.0807(6) 0.9393(2)
Mg1_6 Mg 1.0000 1.0000 1.0000
Mg3 Mg 0.75181(2) 0.94059(2) 0.993912(16)
O11 O 0.73132(5) 0.85797(6) 0.90095(4)
O12 O 0.64109(5) 0.83688(6) 0.99066(4)
H16 H 0.5816 0.8264 0.9363
O13 O 0.88206(5) 0.89435(6) 0.90120(4)
O15 O 0.36851(5) 0.64418(7) 0.65037(5)
O16 O 0.41910(5) 0.51608(6) 0.60994(4)
N3 N 0.83588(6) 0.62383(7) 0.70598(5)
H19 H 0.8046 0.5738 0.6673
H20 H 0.9105 0.6052 0.7560
C17 C 0.78784(7) 0.84613(8) 0.87535(5)
C18 C 0.73660(7) 0.76470(8) 0.80577(5)
C19 C 0.80648(7) 0.73382(8) 0.78565(5)
H23 H 0.8843 0.7637 0.8137
C20 C 0.75827(7) 0.65817(8) 0.72335(5)
C21 C 0.64169(7) 0.61410(8) 0.67833(5)
H24 H 0.6106 0.5643 0.6355
C22 C 0.57084(7) 0.64512(8) 0.69772(5)
C23 C 0.44241(7) 0.59826(8) 0.64914(5)
C24 C 0.61996(7) 0.71990(8) 0.76196(5)
H25 H 0.5737 0.7403 0.7758
Mg1_7 Mg -0.0000 0.5000 0.5000
O8_2 O 0.05039(5) 0.59666(6) 0.59577(4)
O9_2 O 0.09209(5) 0.85432(6) 0.87504(4)
H3_2 H 0.0895 0.8889 0.9070
N2_2 N 0.42347(6) 0.82362(8) 0.79969(5)
H6_2 H 0.4194 0.7899 0.7605
H7_2 H 0.4491 0.8885 0.8096
C9_2 C 0.01758(7) 0.64507(8) 0.62881(5)
C10_2 C 0.11350(7) 0.71923(8) 0.70163(5)
C11_2 C 0.09565(7) 0.76995(8) 0.75148(5)
H11_2 H 0.0230 0.7578 0.7409
C12_2 C 0.18587(7) 0.83880(8) 0.81716(5)
C13_2 C 0.16754(7) 0.89141(8) 0.87247(5)
C14_2 C 0.29393(7) 0.85717(8) 0.83255(6)
H12_2 H 0.3546 0.9030 0.8768
C15_2 C 0.31205(7) 0.80773(9) 0.78237(6)
C16_2 C 0.22209(7) 0.73790(8) 0.71766(6)
H13_2 H 0.2347 0.7033 0.6848
O11_2 O 0.26868(5) 0.35797(6) 0.59905(4)
O12_2 O 0.35891(5) 0.33688(6) 0.50934(4)
H16_2 H 0.4184 0.3264 0.5637
H17 H 0.3403 0.2880 0.4803
O13_2 O 0.11794(5) 0.39435(6) 0.59880(4)
O14_2 O 0.14759(5) 0.55313(5) 0.51120(3)
O15_2 O 0.63149(5) 0.14418(7) 0.84963(5)
O19 O 0.08830(5) 0.36323(6) 0.39404(4)
N3_2 N 0.16412(6) 0.12383(7) 0.79402(5)
H19_2 H 0.1954 0.0738 0.8327
H20_2 H 0.0895 0.1052 0.7440
C17_2 C 0.21216(7) 0.34613(8) 0.62465(5)
C18_2 C 0.26340(7) 0.26470(8) 0.69423(5)
C19_2 C 0.19352(7) 0.23382(8) 0.71435(5)
H23_2 H 0.1157 0.2637 0.6863
C20_2 C 0.24173(7) 0.15817(8) 0.77665(5)
C21_2 C 0.35831(7) 0.11410(8) 0.82167(5)
H24_2 H 0.3894 0.0643 0.8645
C22_2 C 0.42916(7) 0.14512(8) 0.80228(5)
C23_2 C 0.55759(7) 0.09826(8) 0.85086(5)
C24_2 C 0.38004(7) 0.21990(8) 0.73804(5)
H25_2 H 0.4263 0.2403 0.7242
H29_2 H 0.2113(8) 0.5807(6) 0.5607(2)
H30_2 H 0.1243(7) 0.5916(5) 0.4700(2)
Mg1_8 Mg 1.0000 0.5000 0.5000
O1_2 O 0.73132(5) 0.64203(6) 0.40095(4)
O2_2 O 0.64109(5) 0.66312(6) 0.49066(4)
H1_2 H 0.5816 0.6736 0.4363
H2 H 0.6597 0.7120 0.5197
O3_2 O 0.88206(5) 0.60565(6) 0.40120(4)
O4_2 O 0.85241(5) 0.44687(5) 0.48880(3)
O5_2 O 0.36851(5) 0.85582(7) 0.15037(5)
O7 O 0.91170(5) 0.63677(6) 0.60596(4)
N1_2 N 0.83588(6) 0.87617(7) 0.20598(5)
H4_2 H 0.8046 0.9262 0.1673
H5_2 H 0.9105 0.8948 0.2560
C1_2 C 0.78784(7) 0.65387(8) 0.37535(5)
C2_2 C 0.73660(7) 0.73530(8) 0.30577(5)
C3_2 C 0.80648(7) 0.76618(8) 0.28565(5)
H8_2 H 0.8843 0.7363 0.3137
C4_2 C 0.75827(7) 0.84183(8) 0.22335(5)
C5_2 C 0.64169(7) 0.88590(8) 0.17833(5)
H9_2 H 0.6106 0.9357 0.1355
C6_2 C 0.57084(7) 0.85488(8) 0.19772(5)
C7_2 C 0.44241(7) 0.90174(8) 0.14914(5)
C8_2 C 0.61996(7) 0.78010(8) 0.26196(5)
H10_2 H 0.5737 0.7597 0.2758
H14_2 H 0.7887(8) 0.4193(6) 0.4393(2)
H15_2 H 0.8757(7) 0.4084(5) 0.5300(2)
O20_2 O 0.94961(5) 0.40334(6) 0.40423(4)
O21_2 O 0.90791(5) 0.14568(6) 0.12496(4)
H18_2 H 0.9105 0.1111 0.0930
N4_2 N 0.57653(6) 0.17638(8) 0.20031(5)
H21_2 H 0.5806 0.2101 0.2395
H22_2 H 0.5509 0.1115 0.1904
C25_2 C 0.98242(7) 0.35493(8) 0.37119(5)
C26_2 C 0.88650(7) 0.28077(8) 0.29837(5)
C27_2 C 0.90435(7) 0.23005(8) 0.24852(5)
H26_2 H 0.9770 0.2422 0.2591
C28_2 C 0.81413(7) 0.16120(8) 0.18284(5)
C29_2 C 0.83246(7) 0.10859(8) 0.12753(5)
C30_2 C 0.70607(7) 0.14283(8) 0.16745(6)
H27_2 H 0.6454 0.0970 0.1232
C31_2 C 0.68795(7) 0.19227(9) 0.21763(6)
C32_2 C 0.77791(7) 0.26210(8) 0.28234(6)
H28_2 H 0.7653 0.2967 0.3152
Mg1_9 Mg -0.0000 -0.0000 1.0000
H2_2 H 0.3403 0.2120 0.9803
O7_2 O 0.08830(5) 0.13677(6) 0.89404(4)
Mg1_10 Mg 1.0000 1.0000 0.0000
H17_2 H 0.6597 0.7880 0.0197
O19_2 O 0.91170(5) 0.86323(6) 0.10596(4)
loop_
_geom_bond_atom_site_label_1
_geom_bond_atom_site_label_2
_geom_bond_site_symmetry_1
_geom_bond_site_symmetry_2
Mg1 O3 1_555 1_555
Mg2 O1 1_555 1_555
O1 C1 1_555 1_555
O2 Mg2 1_555 1_555
H1 O2 1_555 1_555
O3 C1 1_555 1_555
O5 C7 1_555 1_555
O6 C7 1_555 1_555
N1 H4 1_555 1_555
H5 N1 1_555 1_555
C1 C2 1_555 1_555
C2 C3 1_555 1_555
C3 H8 1_555 1_555
C4 N1 1_555 1_555
C5 C4 1_555 1_555
H9 C5 1_555 1_555
C6 C5 1_555 1_555
C7 C6 1_555 1_555
C8 C2 1_555 1_555
H10 C8 1_555 1_555
Mg4 O6 1_555 1_555
C3 C4 1_555 1_555
C6 C8 1_555 1_555
O4 Mg1_2 1_555 1_555
H14 O4 1_555 1_555
Mg7 O22 1_555 1_555
O20 Mg1_2 1_555 1_555
O21 H18 1_555 1_555
O22 C29 1_555 1_555
N4 H21 1_555 1_555
H22 N4 1_555 1_555
C26 C25 1_555 1_555
C27 C26 1_555 1_555
H26 C27 1_555 1_555
C28 C27 1_555 1_555
C29 O21 1_555 1_555
C30 C28 1_555 1_555
H27 C30 1_555 1_555
C31 N4 1_555 1_555
C32 C26 1_555 1_555
H28 C32 1_555 1_555
O20 C25 1_555 1_555
C28 C29 1_555 1_555
C30 C31 1_555 1_555
C31 C32 1_555 1_555
O8 Mg1_5 1_555 1_555
O9 H3 1_555 1_555
O10 C13 1_555 1_555
N2 H6 1_555 1_555
H7 N2 1_555 1_555
C10 C9 1_555 1_555
C11 C10 1_555 1_555
H11 C11 1_555 1_555
C12 C11 1_555 1_555
C13 O9 1_555 1_555
C14 C12 1_555 1_555
H12 C14 1_555 1_555
C15 N2 1_555 1_555
C16 C10 1_555 1_555
H13 C16 1_555 1_555
Mg4 O10 1_555 1_555
O14 Mg1_5 1_555 1_555
H29 O14 1_555 1_555
O8 C9 1_555 1_555
C12 C13 1_555 1_555
C14 C15 1_555 1_555
C15 C16 1_555 1_555
Mg3 O11 1_555 1_555
Mg7 O16 1_555 1_555
O11 C17 1_555 1_555
O12 Mg3 1_555 1_555
H16 O12 1_555 1_555
O13 Mg1_6 1_555 1_555
O15 C23 1_555 1_555
O16 C23 1_555 1_555
N3 H19 1_555 1_555
H20 N3 1_555 1_555
C17 O13 1_555 1_555
C18 C17 1_555 1_555
C19 C18 1_555 1_555
H23 C19 1_555 1_555
C20 N3 1_555 1_555
C21 C20 1_555 1_555
H24 C21 1_555 1_555
C22 C21 1_555 1_555
C23 C22 1_555 1_555
C24 C18 1_555 1_555
H25 C24 1_555 1_555
C19 C20 1_555 1_555
C22 C24 1_555 1_555
O8_2 Mg1_7 1_555 1_555
O9_2 H3_2 1_555 1_555
O23 C13_2 1_555 1_555
N2_2 H6_2 1_555 1_555
H7_2 N2_2 1_555 1_555
C10_2 C9_2 1_555 1_555
C11_2 C10_2 1_555 1_555
H11_2 C11_2 1_555 1_555
C12_2 C11_2 1_555 1_555
C13_2 O9_2 1_555 1_555
C14_2 C12_2 1_555 1_555
H12_2 C14_2 1_555 1_555
C15_2 N2_2 1_555 1_555
C16_2 C10_2 1_555 1_555
H13_2 C16_2 1_555 1_555
Mg7 O11_2 1_555 1_555
O11_2 C17_2 1_555 1_555
O12_2 Mg7 1_555 1_555
H16_2 O12_2 1_555 1_555
H17 O12_2 1_555 1_555
O13_2 Mg1_7 1_555 1_555
O14_2 Mg1_7 1_555 1_555
O15_2 C23_2 1_555 1_555
O18 C23_2 1_555 1_555
O19 Mg7 1_555 1_555
N3_2 H19_2 1_555 1_555
H20_2 N3_2 1_555 1_555
C17_2 O13_2 1_555 1_555
C18_2 C17_2 1_555 1_555
C19_2 C18_2 1_555 1_555
H23_2 C19_2 1_555 1_555
C20_2 N3_2 1_555 1_555
C21_2 C20_2 1_555 1_555
H24_2 C21_2 1_555 1_555
C22_2 C21_2 1_555 1_555
C23_2 C22_2 1_555 1_555
C24_2 C18_2 1_555 1_555
H25_2 C24_2 1_555 1_555
H29_2 O14_2 1_555 1_555
H30_2 O14_2 1_555 1_555
O8_2 C9_2 1_555 1_555
C12_2 C13_2 1_555 1_555
C14_2 C15_2 1_555 1_555
C15_2 C16_2 1_555 1_555
Mg7 O14_2 1_555 1_555
C19_2 C20_2 1_555 1_555
C22_2 C24_2 1_555 1_555
Mg1_8 O3_2 1_555 1_555
Mg4 O1_2 1_555 1_555
O1_2 C1_2 1_555 1_555
O2_2 Mg4 1_555 1_555
H1_2 O2_2 1_555 1_555
H2 O2_2 1_555 1_555
O3_2 C1_2 1_555 1_555
O4_2 Mg1_8 1_555 1_555
O5_2 C7_2 1_555 1_555
O17 C7_2 1_555 1_555
O7 Mg4 1_555 1_555
N1_2 H4_2 1_555 1_555
H5_2 N1_2 1_555 1_555
C1_2 C2_2 1_555 1_555
C2_2 C3_2 1_555 1_555
C3_2 H8_2 1_555 1_555
C4_2 N1_2 1_555 1_555
C5_2 C4_2 1_555 1_555
H9_2 C5_2 1_555 1_555
C6_2 C5_2 1_555 1_555
C7_2 C6_2 1_555 1_555
C8_2 C2_2 1_555 1_555
H10_2 C8_2 1_555 1_555
H14_2 O4_2 1_555 1_555
H15_2 O4_2 1_555 1_555
O20_2 Mg1_8 1_555 1_555
O21_2 H18_2 1_555 1_555
O24 C29_2 1_555 1_555
N4_2 H21_2 1_555 1_555
H22_2 N4_2 1_555 1_555
C26_2 C25_2 1_555 1_555
C27_2 C26_2 1_555 1_555
H26_2 C27_2 1_555 1_555
C28_2 C27_2 1_555 1_555
C29_2 O21_2 1_555 1_555
C30_2 C28_2 1_555 1_555
H27_2 C30_2 1_555 1_555
C31_2 N4_2 1_555 1_555
C32_2 C26_2 1_555 1_555
H28_2 C32_2 1_555 1_555
Mg4 O4_2 1_555 1_555
C3_2 C4_2 1_555 1_555
C6_2 C8_2 1_555 1_555
O20_2 C25_2 1_555 1_555
C28_2 C29_2 1_555 1_555
C30_2 C31_2 1_555 1_555
C31_2 C32_2 1_555 1_555

#END
