
###############################################################################
#
# This file contains modified crystal structure data generated from the
# MOF subset of the Cambridge Structural Database (CSD) v543 
# hosted by the Cambridge Crystallographic Data Centre (CCDC).
#
# This work is licensed under the Creative Commons
# Attribution-NonCommercial-ShareAlike 4.0 International License.
# To view a copy of this license, visit
# http://creativecommons.org/licenses/by-nc-sa/4.0/
# or send a letter to
# Creative Commons, PO Box 1866, Mountain View, CA 94042, USA.
#
# CIF created using the CSD Python API on 29 September 2022
# The structure has been converted into the P1 space group
# The structure has a 3D framework
# The original CSD entry WAMRIN01 is in the orthorhombic crystal system
# The framework has been calculated to contain at least 10.0% void space
# The void calculation uses a probe of radius 1.32A, grid spacing 0.4
#
###############################################################################

data_WAMRIN01
_chemical_formula_moiety         '(C128 H120 Mg22 N16 O80)n'
_symmetry_cell_setting           triclinic
_symmetry_space_group_name_H-M   'P 1'
_symmetry_Int_Tables_number      1
_space_group_name_Hall           'P 1'
loop_
_symmetry_equiv_pos_site_id
_symmetry_equiv_pos_as_xyz
1 x,y,z
_cell_length_a                   19.706(4)
_cell_length_b                   14.974(3)
_cell_length_c                   19.760(3)
_cell_angle_alpha                90
_cell_angle_beta                 90
_cell_angle_gamma                90
_cell_volume                     5830.73
loop_
_atom_site_label
_atom_site_type_symbol
_atom_site_fract_x
_atom_site_fract_y
_atom_site_fract_z
Mg6 Mg 0.02583(10) 0.76455(12) 0.02532(10)
Mg1 Mg 0.5000 0.5000 0.0000
Mg2 Mg 0.47417(10) 0.26455(12) 0.02532(10)
O2 O 0.4232(3) 0.1620(4) 0.0747(4)
O3 O 0.3833(2) 0.3258(3) 0.0092(3)
O4 O 0.4930(4) 0.4689(3) 0.0995(2)
O5 O 0.4870(3) 0.3232(3) 0.1174(2)
O7 O 0.1450(3) 0.2132(3) 0.0015(4)
O8 O 0.5096(4) 0.2157(3) 0.3560(3)
H1 H 0.5089 0.1792 0.3868
O9 O 0.4633(3) 0.3037(3) 0.4352(2)
N2 N 0.4686(7) 0.6100(4) 0.3281(4)
H4 H 0.4676 0.6541 0.3002
H5 H 0.4659 0.6197 0.3709
C1 C 0.4850(5) 0.4190(4) 0.2119(3)
C5 C 0.4821(5) 0.3646(4) 0.3265(3)
C6 C 0.4848(4) 0.2891(4) 0.3765(4)
C8 C 0.4746(6) 0.5223(5) 0.3037(4)
C12 C 0.4756(5) 0.4507(5) 0.3503(4)
H9 H 0.4719 0.4616 0.3965
C13 C 0.4868(5) 0.3484(4) 0.2574(4)
H10 H 0.4912 0.2902 0.2416
C14 C 0.4790(6) 0.5051(5) 0.2356(4)
H11 H 0.4779 0.5523 0.2051
C15 C 0.4890(4) 0.4023(4) 0.1365(3)
H14 H 0.436(4) 0.139(5) 0.111(2)
H15 H 0.431(11) 0.132(9) 0.042(3)
Mg5 Mg 0.47417(10) 0.23545(12) 0.52532(10)
O11 O 0.5976(2) 0.5317(3) 0.0140(3)
O16 O 0.9353(2) 0.6959(3) 0.0378(3)
O17 O 0.5647(2) 0.1959(3) 0.0378(3)
O23 O 0.5367(3) 0.8037(3) 0.0648(2)
N3 N 0.8267(5) 0.3905(6) 0.0387(5)
H17 H 0.7984 0.3468 0.0399
H18 H 0.8694 0.3805 0.0433
C18 C 0.7112(3) 0.5823(4) 0.0125(5)
C19 C 0.8031(4) 0.4783(5) 0.0292(6)
C20 C 0.7355(4) 0.4942(5) 0.0220(6)
H21 H 0.7050 0.4468 0.0232
C23 C 0.8262(4) 0.6363(5) 0.0176(5)
C25 C 0.6370(3) 0.5969(4) 0.0061(4)
C26 C 0.7570(4) 0.6524(4) 0.0129(5)
H22 H 0.7413 0.7108 0.0098
C27 C 0.8486(4) 0.5487(5) 0.0278(6)
H23 H 0.8947 0.5376 0.0337
C32 C 0.8757(4) 0.7119(4) 0.0188(5)
O24 O 0.4704(2) 0.6314(3) 0.0259(2)
H27 H 0.485(4) 0.658(5) 0.060(3)
H28 H 0.444(10) 0.663(9) 0.003(8)
Mg1_2 Mg 0.5000 0.5000 1.0000
O1 O 0.4024(2) 0.4683(3) 0.9860(3)
O6 O 0.0647(2) 0.3041(3) 0.9622(3)
N1 N 0.1733(5) 0.6095(6) 0.9613(5)
H2 H 0.2016 0.6532 0.9601
H3 H 0.1306 0.6195 0.9567
C2 C 0.2888(3) 0.4177(4) 0.9875(5)
C3 C 0.1969(4) 0.5217(5) 0.9708(6)
C4 C 0.2645(4) 0.5058(5) 0.9780(6)
H6 H 0.2950 0.5532 0.9768
C7 C 0.1738(4) 0.3637(5) 0.9824(5)
C9 C 0.3630(3) 0.4031(4) 0.9939(4)
C10 C 0.2430(4) 0.3476(4) 0.9871(5)
H7 H 0.2587 0.2892 0.9902
C11 C 0.1514(4) 0.4513(5) 0.9722(6)
H8 H 0.1053 0.4624 0.9663
C16 C 0.1243(4) 0.2881(4) 0.9812(5)
O10 O 0.5296(2) 0.3686(3) 0.9741(2)
H12 H 0.515(4) 0.342(5) 0.940(3)
H13 H 0.556(10) 0.337(9) 0.997(8)
Mg3 Mg 0.52583(10) 0.73545(12) 0.97468(10)
Mg7 Mg 0.52583(10) 0.76455(12) 0.47468(10)
O12 O 0.5768(3) 0.8380(4) 0.9253(4)
O13 O 0.6167(2) 0.6742(3) 0.9908(3)
O14 O 0.5070(4) 0.5311(3) 0.9005(2)
O15 O 0.5130(3) 0.6768(3) 0.8826(2)
O18 O 0.4353(2) 0.8041(3) 0.9622(3)
O19 O 0.8550(3) 0.7868(3) 0.9985(4)
O20 O 0.4904(4) 0.7843(3) 0.6440(3)
H16 H 0.4911 0.8208 0.6132
O21 O 0.5367(3) 0.6963(3) 0.5648(2)
O22 O 0.4633(3) 0.1963(3) 0.9352(2)
N4 N 0.5314(7) 0.3900(4) 0.6719(4)
H19 H 0.5324 0.3459 0.6998
H20 H 0.5341 0.3803 0.6291
C17 C 0.5150(5) 0.5810(4) 0.7881(3)
C21 C 0.5179(5) 0.6354(4) 0.6735(3)
C22 C 0.5152(4) 0.7109(4) 0.6235(4)
C24 C 0.5254(6) 0.4777(5) 0.6963(4)
C28 C 0.5244(5) 0.5493(5) 0.6497(4)
H24 H 0.5281 0.5384 0.6035
C29 C 0.5132(5) 0.6516(4) 0.7426(4)
H25 H 0.5088 0.7098 0.7584
C30 C 0.5210(6) 0.4949(5) 0.7644(4)
H26 H 0.5221 0.4477 0.7949
C31 C 0.5110(4) 0.5977(4) 0.8635(3)
H29 H 0.564(4) 0.861(5) 0.889(2)
H30 H 0.569(11) 0.868(9) 0.958(3)
Mg4 Mg 0.97417(10) 0.23545(12) 0.97468(10)
Mg1_3 Mg 0.0000 0.5000 0.5000
Mg2_2 Mg 0.02583(10) 0.73545(12) 0.52532(10)
O1_2 O 0.0976(2) 0.5317(3) 0.4860(3)
O2_2 O 0.0768(3) 0.8380(4) 0.5747(4)
O3_2 O 0.1167(2) 0.6742(3) 0.5092(3)
O4_2 O 0.0070(4) 0.5311(3) 0.5995(2)
O5_2 O 0.0130(3) 0.6768(3) 0.6174(2)
O6_2 O 0.4353(2) 0.6959(3) 0.4622(3)
O7_2 O 0.3550(3) 0.7868(3) 0.5015(4)
O9_2 O 0.0367(3) 0.6963(3) 0.9352(2)
N1_2 N 0.3267(5) 0.3905(6) 0.4613(5)
H2_2 H 0.2984 0.3468 0.4601
H3_2 H 0.3694 0.3805 0.4567
N2_2 N 0.0314(7) 0.3900(4) 0.8281(4)
H4_2 H 0.0324 0.3459 0.8002
H5_2 H 0.0341 0.3803 0.8709
C1_2 C 0.0150(5) 0.5810(4) 0.7119(3)
C2_2 C 0.2112(3) 0.5823(4) 0.4875(5)
C3_2 C 0.3031(4) 0.4783(5) 0.4708(6)
C4_2 C 0.2355(4) 0.4942(5) 0.4780(6)
H6_2 H 0.2050 0.4468 0.4768
C5_2 C 0.0179(5) 0.6354(4) 0.8265(3)
C6_2 C 0.0152(4) 0.7109(4) 0.8765(4)
C7_2 C 0.3262(4) 0.6363(5) 0.4824(5)
C8_2 C 0.0254(6) 0.4777(5) 0.8037(4)
C9_2 C 0.1370(3) 0.5969(4) 0.4939(4)
C10_2 C 0.2570(4) 0.6524(4) 0.4871(5)
H7_2 H 0.2413 0.7108 0.4902
C11_2 C 0.3486(4) 0.5487(5) 0.4722(6)
H8_2 H 0.3947 0.5376 0.4663
C12_2 C 0.0244(5) 0.5493(5) 0.8503(4)
H9_2 H 0.0281 0.5384 0.8965
C13_2 C 0.0132(5) 0.6516(4) 0.7574(4)
H10_2 H 0.0088 0.7098 0.7416
C14_2 C 0.0210(6) 0.4949(5) 0.7356(4)
H11_2 H 0.0221 0.4477 0.7051
C15_2 C 0.0110(4) 0.5977(4) 0.6365(3)
C16_2 C 0.3757(4) 0.7119(4) 0.4812(5)
H14_2 H 0.064(4) 0.861(5) 0.611(2)
H15_2 H 0.069(11) 0.868(9) 0.542(3)
O18_2 O 0.0647(2) 0.1959(3) 0.4622(3)
O20_2 O 0.0096(4) 0.2157(3) 0.1440(3)
H16_2 H 0.0089 0.1792 0.1132
O22_2 O 0.0367(3) 0.8037(3) 0.4352(2)
O24_2 O 0.0296(2) 0.3686(3) 0.5259(2)
H27_2 H 0.015(4) 0.342(5) 0.560(3)
H28_2 H 0.056(10) 0.337(9) 0.503(8)
Mg1_4 Mg 1.0000 0.5000 0.5000
O8_2 O 0.9904(4) 0.7843(3) 0.8560(3)
H1_2 H 0.9911 0.8208 0.8868
O10_2 O 0.9704(2) 0.6314(3) 0.4741(2)
H12_2 H 0.985(4) 0.658(5) 0.440(3)
H13_2 H 0.944(10) 0.663(9) 0.497(8)
Mg3_2 Mg 0.97417(10) 0.26455(12) 0.47468(10)
O11_2 O 0.9024(2) 0.4683(3) 0.5140(3)
O12_2 O 0.9232(3) 0.1620(4) 0.4253(4)
O13_2 O 0.8833(2) 0.3258(3) 0.4908(3)
O14_2 O 0.9930(4) 0.4689(3) 0.4005(2)
O15_2 O 0.9870(3) 0.3232(3) 0.3826(2)
O16_2 O 0.5647(2) 0.3041(3) 0.5378(3)
O17_2 O 0.9353(2) 0.8041(3) 0.5378(3)
O19_2 O 0.6450(3) 0.2132(3) 0.4985(4)
O21_2 O 0.9633(3) 0.3037(3) 0.0648(2)
O23_2 O 0.9633(3) 0.1963(3) 0.5648(2)
N3_2 N 0.6733(5) 0.6095(6) 0.5387(5)
H17_2 H 0.7016 0.6532 0.5399
H18_2 H 0.6306 0.6195 0.5433
N4_2 N 0.9686(7) 0.6100(4) 0.1719(4)
H19_2 H 0.9676 0.6541 0.1998
H20_2 H 0.9659 0.6197 0.1291
C17_2 C 0.9850(5) 0.4190(4) 0.2881(3)
C18_2 C 0.7888(3) 0.4177(4) 0.5125(5)
C19_2 C 0.6969(4) 0.5217(5) 0.5292(6)
C20_2 C 0.7645(4) 0.5058(5) 0.5220(6)
H21_2 H 0.7950 0.5532 0.5232
C21_2 C 0.9821(5) 0.3646(4) 0.1735(3)
C22_2 C 0.9848(4) 0.2891(4) 0.1235(4)
C23_2 C 0.6738(4) 0.3637(5) 0.5176(5)
C24_2 C 0.9746(6) 0.5223(5) 0.1963(4)
C25_2 C 0.8630(3) 0.4031(4) 0.5061(4)
C26_2 C 0.7430(4) 0.3476(4) 0.5129(5)
H22_2 H 0.7587 0.2892 0.5098
C27_2 C 0.6514(4) 0.4513(5) 0.5278(6)
H23_2 H 0.6053 0.4624 0.5337
C28_2 C 0.9756(5) 0.4507(5) 0.1497(4)
H24_2 H 0.9719 0.4616 0.1035
C29_2 C 0.9868(5) 0.3484(4) 0.2426(4)
H25_2 H 0.9912 0.2902 0.2584
C30_2 C 0.9790(6) 0.5051(5) 0.2644(4)
H26_2 H 0.9779 0.5523 0.2949
C31_2 C 0.9890(4) 0.4023(4) 0.3635(3)
C32_2 C 0.6243(4) 0.2881(4) 0.5188(5)
H29_2 H 0.936(4) 0.139(5) 0.389(2)
H30_2 H 0.931(11) 0.132(9) 0.458(3)
Mg1_5 Mg 0.0000 0.0000 1.0000
O8_3 O 0.0096(4) 0.2843(3) 0.6440(3)
H1_3 H 0.0089 0.3208 0.6132
N3_3 N 0.3267(5) 0.1095(6) 0.9613(5)
H17_3 H 0.2984 0.1532 0.9601
H18_3 H 0.3694 0.1195 0.9567
C19_3 C 0.3031(4) 0.0217(5) 0.9708(6)
C20_3 C 0.2355(4) 0.0058(5) 0.9780(6)
H21_3 H 0.2050 0.0532 0.9768
Mg1_6 Mg 0.0000 1.0000 0.0000
O12_3 O 0.0768(3) 0.6620(4) 0.0747(4)
O13_3 O 0.1167(2) 0.8258(3) 0.0092(3)
O14_3 O 0.0070(4) 0.9689(3) 0.0995(2)
O15_3 O 0.0130(3) 0.8232(3) 0.1174(2)
O19_3 O 0.3550(3) 0.7132(3) 0.0015(4)
C17_3 C 0.0150(5) 0.9190(4) 0.2119(3)
C21_3 C 0.0179(5) 0.8646(4) 0.3265(3)
C22_3 C 0.0152(4) 0.7891(4) 0.3765(4)
C28_3 C 0.0244(5) 0.9507(5) 0.3503(4)
H24_3 H 0.0281 0.9616 0.3965
C29_3 C 0.0132(5) 0.8484(4) 0.2574(4)
H25_3 H 0.0088 0.7902 0.2416
C31_3 C 0.0110(4) 0.9023(4) 0.1365(3)
H29_3 H 0.064(4) 0.639(5) 0.111(2)
H30_3 H 0.069(11) 0.632(9) 0.042(3)
Mg1_7 Mg 0.0000 1.0000 1.0000
O11_3 O 0.0976(2) 0.9683(3) 0.9860(3)
C18_3 C 0.2112(3) 0.9177(4) 0.9875(5)
C23_3 C 0.3262(4) 0.8637(5) 0.9824(5)
C25_3 C 0.1370(3) 0.9031(4) 0.9939(4)
C26_3 C 0.2570(4) 0.8476(4) 0.9871(5)
H22_3 H 0.2413 0.7892 0.9902
C27_3 C 0.3486(4) 0.9513(5) 0.9722(6)
H23_3 H 0.3947 0.9624 0.9663
C32_3 C 0.3757(4) 0.7881(4) 0.9812(5)
Mg1_8 Mg 1.0000 0.0000 0.0000
O1_3 O 0.9024(2) 0.0317(3) 0.0140(3)
C2_3 C 0.7888(3) 0.0823(4) 0.0125(5)
C7_3 C 0.6738(4) 0.1363(5) 0.0176(5)
C9_3 C 0.8630(3) 0.0969(4) 0.0061(4)
C10_3 C 0.7430(4) 0.1524(4) 0.0129(5)
H7_3 H 0.7587 0.2108 0.0098
C11_3 C 0.6514(4) 0.0487(5) 0.0278(6)
H8_3 H 0.6053 0.0376 0.0337
C16_3 C 0.6243(4) 0.2119(4) 0.0188(5)
Mg1_9 Mg 1.0000 0.0000 1.0000
O2_3 O 0.9232(3) 0.3380(4) 0.9253(4)
O3_3 O 0.8833(2) 0.1742(3) 0.9908(3)
O4_3 O 0.9930(4) 0.0311(3) 0.9005(2)
O5_3 O 0.9870(3) 0.1768(3) 0.8826(2)
O7_3 O 0.6450(3) 0.2868(3) 0.9985(4)
C1_3 C 0.9850(5) 0.0810(4) 0.7881(3)
C5_3 C 0.9821(5) 0.1354(4) 0.6735(3)
C6_3 C 0.9848(4) 0.2109(4) 0.6235(4)
C12_3 C 0.9756(5) 0.0493(5) 0.6497(4)
H9_3 H 0.9719 0.0384 0.6035
C13_3 C 0.9868(5) 0.1516(4) 0.7426(4)
H10_3 H 0.9912 0.2098 0.7584
C15_3 C 0.9890(4) 0.0977(4) 0.8635(3)
H14_3 H 0.936(4) 0.361(5) 0.889(2)
H15_3 H 0.931(11) 0.368(9) 0.958(3)
Mg1_10 Mg 1.0000 1.0000 0.0000
N1_3 N 0.6733(5) 0.8905(6) 0.0387(5)
H2_3 H 0.7016 0.8468 0.0399
H3_3 H 0.6306 0.8805 0.0433
C3_3 C 0.6969(4) 0.9783(5) 0.0292(6)
C4_3 C 0.7645(4) 0.9942(5) 0.0220(6)
H6_3 H 0.7950 0.9468 0.0232
O20_3 O 0.9904(4) 0.7157(3) 0.3560(3)
H16_3 H 0.9911 0.6792 0.3868
Mg1_11 Mg 0.5000 -0.0000 0.5000
N1_4 N 0.8267(5) 0.1095(6) 0.5387(5)
H2_4 H 0.7984 0.1532 0.5399
H3_4 H 0.8694 0.1195 0.5433
N2_3 N 0.5314(7) 0.1100(4) 0.1719(4)
H4_3 H 0.5324 0.1541 0.1998
H5_3 H 0.5341 0.1197 0.1291
C3_4 C 0.8031(4) 0.0217(5) 0.5292(6)
C4_4 C 0.7355(4) 0.0058(5) 0.5220(6)
H6_4 H 0.7050 0.0532 0.5232
C8_3 C 0.5254(6) 0.0223(5) 0.1963(4)
C14_3 C 0.5210(6) 0.0051(5) 0.2644(4)
H11_3 H 0.5221 0.0523 0.2949
O11_4 O 0.4024(2) 0.0317(3) 0.4860(3)
O12_4 O 0.4232(3) 0.3380(4) 0.5747(4)
O13_4 O 0.3833(2) 0.1742(3) 0.5092(3)
O14_4 O 0.4930(4) 0.0311(3) 0.5995(2)
O15_4 O 0.4870(3) 0.1768(3) 0.6174(2)
O19_4 O 0.1450(3) 0.2868(3) 0.5015(4)
O20_4 O 0.5096(4) 0.2843(3) 0.8560(3)
H16_4 H 0.5089 0.3208 0.8868
C17_4 C 0.4850(5) 0.0810(4) 0.7119(3)
C18_4 C 0.2888(3) 0.0823(4) 0.4875(5)
C21_4 C 0.4821(5) 0.1354(4) 0.8265(3)
C22_4 C 0.4848(4) 0.2109(4) 0.8765(4)
C23_4 C 0.1738(4) 0.1363(5) 0.4824(5)
C25_4 C 0.3630(3) 0.0969(4) 0.4939(4)
C26_4 C 0.2430(4) 0.1524(4) 0.4871(5)
H22_4 H 0.2587 0.2108 0.4902
C27_4 C 0.1514(4) 0.0487(5) 0.4722(6)
H23_4 H 0.1053 0.0376 0.4663
C28_4 C 0.4756(5) 0.0493(5) 0.8503(4)
H24_4 H 0.4719 0.0384 0.8965
C29_4 C 0.4868(5) 0.1516(4) 0.7574(4)
H25_4 H 0.4912 0.2098 0.7416
C31_4 C 0.4890(4) 0.0977(4) 0.6365(3)
C32_4 C 0.1243(4) 0.2119(4) 0.4812(5)
O24_3 O 0.5296(2) 0.1314(3) 0.4741(2)
H27_3 H 0.515(4) 0.158(5) 0.440(3)
H28_3 H 0.556(10) 0.163(9) 0.497(8)
H29_4 H 0.436(4) 0.361(5) 0.611(2)
H30_4 H 0.431(11) 0.368(9) 0.542(3)
Mg1_12 Mg 0.5000 1.0000 0.5000
O1_4 O 0.5976(2) 0.9683(3) 0.5140(3)
O2_4 O 0.5768(3) 0.6620(4) 0.4253(4)
O3_4 O 0.6167(2) 0.8258(3) 0.4908(3)
O4_4 O 0.5070(4) 0.9689(3) 0.4005(2)
O5_4 O 0.5130(3) 0.8232(3) 0.3826(2)
O7_4 O 0.8550(3) 0.7132(3) 0.4985(4)
O8_4 O 0.4904(4) 0.7157(3) 0.1440(3)
H1_4 H 0.4911 0.6792 0.1132
C1_4 C 0.5150(5) 0.9190(4) 0.2881(3)
C2_4 C 0.7112(3) 0.9177(4) 0.5125(5)
C5_4 C 0.5179(5) 0.8646(4) 0.1735(3)
C6_4 C 0.5152(4) 0.7891(4) 0.1235(4)
C7_4 C 0.8262(4) 0.8637(5) 0.5176(5)
C9_4 C 0.6370(3) 0.9031(4) 0.5061(4)
C10_4 C 0.7570(4) 0.8476(4) 0.5129(5)
H7_4 H 0.7413 0.7892 0.5098
C11_4 C 0.8486(4) 0.9513(5) 0.5278(6)
H8_4 H 0.8947 0.9624 0.5337
C12_4 C 0.5244(5) 0.9507(5) 0.1497(4)
H9_4 H 0.5281 0.9616 0.1035
C13_4 C 0.5132(5) 0.8484(4) 0.2426(4)
H10_4 H 0.5088 0.7902 0.2584
C15_4 C 0.5110(4) 0.9023(4) 0.3635(3)
C16_4 C 0.8757(4) 0.7881(4) 0.5188(5)
O10_3 O 0.4704(2) 0.8686(3) 0.5259(2)
H12_3 H 0.485(4) 0.842(5) 0.560(3)
H13_3 H 0.444(10) 0.837(9) 0.503(8)
H14_4 H 0.564(4) 0.639(5) 0.389(2)
H15_4 H 0.569(11) 0.632(9) 0.458(3)
N3_4 N 0.1733(5) 0.8905(6) 0.4613(5)
H17_4 H 0.2016 0.8468 0.4601
H18_4 H 0.1306 0.8805 0.4567
N4_3 N 0.4686(7) 0.8900(4) 0.8281(4)
H19_3 H 0.4676 0.8459 0.8002
H20_3 H 0.4659 0.8803 0.8709
C19_4 C 0.1969(4) 0.9783(5) 0.4708(6)
C20_4 C 0.2645(4) 0.9942(5) 0.4780(6)
H21_4 H 0.2950 0.9468 0.4768
C24_3 C 0.4746(6) 0.9777(5) 0.8037(4)
C30_3 C 0.4790(6) 0.9949(5) 0.7356(4)
H26_3 H 0.4779 0.9477 0.7051
Mg1_13 Mg 0.0000 0.0000 0.0000
O10_4 O 0.0296(2) 0.1314(3) 0.0259(2)
H12_4 H 0.015(4) 0.158(5) 0.060(3)
H13_4 H 0.056(10) 0.163(9) 0.003(8)
N4_4 N 0.0314(7) 0.1100(4) 0.3281(4)
H19_4 H 0.0324 0.1541 0.3002
H20_4 H 0.0341 0.1197 0.3709
C24_4 C 0.0254(6) 0.0223(5) 0.3037(4)
C30_4 C 0.0210(6) 0.0051(5) 0.2356(4)
H26_4 H 0.0221 0.0523 0.2051
Mg1_14 Mg 1.0000 1.0000 1.0000
N2_4 N 0.9686(7) 0.8900(4) 0.6719(4)
H4_4 H 0.9676 0.8459 0.6998
H5_4 H 0.9659 0.8803 0.6291
C8_4 C 0.9746(6) 0.9777(5) 0.6963(4)
C14_4 C 0.9790(6) 0.9949(5) 0.7644(4)
H11_4 H 0.9779 0.9477 0.7949
O24_4 O 0.9704(2) 0.8686(3) 0.9741(2)
H27_4 H 0.985(4) 0.842(5) 0.940(3)
H28_4 H 0.944(10) 0.837(9) 0.997(8)
loop_
_geom_bond_atom_site_label_1
_geom_bond_atom_site_label_2
_geom_bond_site_symmetry_1
_geom_bond_site_symmetry_2
Mg2 O2 1_555 1_555
O2 H14 1_555 1_555
O3 Mg2 1_555 1_555
O4 Mg1 1_555 1_555
O5 Mg2 1_555 1_555
O8 H1 1_555 1_555
O9 C6 1_555 1_555
N2 H4 1_555 1_555
H5 N2 1_555 1_555
C1 C13 1_555 1_555
C5 C6 1_555 1_555
C6 O8 1_555 1_555
C8 N2 1_555 1_555
C12 C5 1_555 1_555
H9 C12 1_555 1_555
C13 C5 1_555 1_555
H10 C13 1_555 1_555
C14 C1 1_555 1_555
H11 C14 1_555 1_555
C15 O4 1_555 1_555
H15 O2 1_555 1_555
Mg5 O9 1_555 1_555
O11 Mg1 1_555 1_555
O16 C32 1_555 1_555
O17 Mg2 1_555 1_555
N3 H17 1_555 1_555
H18 N3 1_555 1_555
C18 C20 1_555 1_555
C19 N3 1_555 1_555
C20 C19 1_555 1_555
H21 C20 1_555 1_555
C23 C26 1_555 1_555
C25 O11 1_555 1_555
C26 C18 1_555 1_555
H22 C26 1_555 1_555
C27 C19 1_555 1_555
H23 C27 1_555 1_555
C32 C23 1_555 1_555
O24 Mg1 1_555 1_555
H27 O24 1_555 1_555
H28 O24 1_555 1_555
O5 C15 1_555 1_555
C1 C15 1_555 1_555
C8 C12 1_555 1_555
C8 C14 1_555 1_555
C18 C25 1_555 1_555
C23 C27 1_555 1_555
Mg1_2 O1 1_555 1_555
O1 C9 1_555 1_555
O6 C16 1_555 1_555
N1 H2 1_555 1_555
H3 N1 1_555 1_555
C2 C4 1_555 1_555
C3 N1 1_555 1_555
C4 C3 1_555 1_555
H6 C4 1_555 1_555
C7 C10 1_555 1_555
C10 C2 1_555 1_555
H7 C10 1_555 1_555
C11 C3 1_555 1_555
H8 C11 1_555 1_555
C16 C7 1_555 1_555
O10 Mg1_2 1_555 1_555
H12 O10 1_555 1_555
H13 O10 1_555 1_555
Mg3 O12 1_555 1_555
Mg7 O21 1_555 1_555
O12 H29 1_555 1_555
O13 Mg3 1_555 1_555
O14 Mg1_2 1_555 1_555
O15 Mg3 1_555 1_555
O18 Mg3 1_555 1_555
O20 H16 1_555 1_555
O21 C22 1_555 1_555
N4 H19 1_555 1_555
H20 N4 1_555 1_555
C17 C29 1_555 1_555
C21 C22 1_555 1_555
C22 O20 1_555 1_555
C24 N4 1_555 1_555
C28 C21 1_555 1_555
H24 C28 1_555 1_555
C29 C21 1_555 1_555
H25 C29 1_555 1_555
C30 C17 1_555 1_555
H26 C30 1_555 1_555
C31 O14 1_555 1_555
H30 O12 1_555 1_555
C2 C9 1_555 1_555
C7 C11 1_555 1_555
O15 C31 1_555 1_555
C17 C31 1_555 1_555
C24 C28 1_555 1_555
C24 C30 1_555 1_555
Mg1_3 O1_2 1_555 1_555
Mg2_2 O2_2 1_555 1_555
O1_2 C9_2 1_555 1_555
O2_2 H14_2 1_555 1_555
O3_2 Mg2_2 1_555 1_555
O4_2 Mg1_3 1_555 1_555
O5_2 Mg2_2 1_555 1_555
O6_2 C16_2 1_555 1_555
O7_2 C16_2 1_555 1_555
O9_2 C6_2 1_555 1_555
N1_2 H2_2 1_555 1_555
H3_2 N1_2 1_555 1_555
N2_2 H4_2 1_555 1_555
H5_2 N2_2 1_555 1_555
C1_2 C13_2 1_555 1_555
C2_2 C4_2 1_555 1_555
C3_2 N1_2 1_555 1_555
C4_2 C3_2 1_555 1_555
H6_2 C4_2 1_555 1_555
C5_2 C6_2 1_555 1_555
C7_2 C10_2 1_555 1_555
C8_2 N2_2 1_555 1_555
C9_2 O3_2 1_555 1_555
C10_2 C2_2 1_555 1_555
H7_2 C10_2 1_555 1_555
C11_2 C3_2 1_555 1_555
H8_2 C11_2 1_555 1_555
C12_2 C5_2 1_555 1_555
H9_2 C12_2 1_555 1_555
C13_2 C5_2 1_555 1_555
H10_2 C13_2 1_555 1_555
C14_2 C1_2 1_555 1_555
H11_2 C14_2 1_555 1_555
C15_2 O4_2 1_555 1_555
C16_2 C7_2 1_555 1_555
H15_2 O2_2 1_555 1_555
Mg7 O6_2 1_555 1_555
O20_2 H16_2 1_555 1_555
O22_2 Mg2_2 1_555 1_555
O24_2 Mg1_3 1_555 1_555
H27_2 O24_2 1_555 1_555
H28_2 O24_2 1_555 1_555
O5_2 C15_2 1_555 1_555
C1_2 C15_2 1_555 1_555
C2_2 C9_2 1_555 1_555
C7_2 C11_2 1_555 1_555
C8_2 C12_2 1_555 1_555
C8_2 C14_2 1_555 1_555
O8_2 H1_2 1_555 1_555
O10_2 Mg1_4 1_555 1_555
H12_2 O10_2 1_555 1_555
H13_2 O10_2 1_555 1_555
Mg3_2 O12_2 1_555 1_555
Mg5 O16_2 1_555 1_555
O11_2 Mg1_4 1_555 1_555
O12_2 H29_2 1_555 1_555
O13_2 Mg3_2 1_555 1_555
O14_2 Mg1_4 1_555 1_555
O15_2 Mg3_2 1_555 1_555
O16_2 C32_2 1_555 1_555
O19_2 C32_2 1_555 1_555
O21_2 C22_2 1_555 1_555
O23_2 Mg3_2 1_555 1_555
N3_2 H17_2 1_555 1_555
H18_2 N3_2 1_555 1_555
N4_2 H19_2 1_555 1_555
H20_2 N4_2 1_555 1_555
C17_2 C29_2 1_555 1_555
C18_2 C20_2 1_555 1_555
C19_2 N3_2 1_555 1_555
C20_2 C19_2 1_555 1_555
H21_2 C20_2 1_555 1_555
C21_2 C22_2 1_555 1_555
C23_2 C26_2 1_555 1_555
C24_2 N4_2 1_555 1_555
C25_2 O11_2 1_555 1_555
C26_2 C18_2 1_555 1_555
H22_2 C26_2 1_555 1_555
C27_2 C19_2 1_555 1_555
H23_2 C27_2 1_555 1_555
C28_2 C21_2 1_555 1_555
H24_2 C28_2 1_555 1_555
C29_2 C21_2 1_555 1_555
H25_2 C29_2 1_555 1_555
C30_2 C17_2 1_555 1_555
H26_2 C30_2 1_555 1_555
C31_2 O14_2 1_555 1_555
C32_2 C23_2 1_555 1_555
H30_2 O12_2 1_555 1_555
O13_2 C25_2 1_555 1_555
O15_2 C31_2 1_555 1_555
C17_2 C31_2 1_555 1_555
C18_2 C25_2 1_555 1_555
C23_2 C27_2 1_555 1_555
C24_2 C28_2 1_555 1_555
C24_2 C30_2 1_555 1_555
O8_3 H1_3 1_555 1_555
N3_3 H17_3 1_555 1_555
H18_3 N3_3 1_555 1_555
C19_3 N3_3 1_555 1_555
C20_3 C19_3 1_555 1_555
H21_3 C20_3 1_555 1_555
Mg6 O12_3 1_555 1_555
O12_3 H29_3 1_555 1_555
O13_3 Mg6 1_555 1_555
O14_3 Mg1_6 1_555 1_555
O15_3 Mg6 1_555 1_555
O22_2 C22_3 1_555 1_555
C17_3 C29_3 1_555 1_555
C21_3 C22_3 1_555 1_555
C28_3 C21_3 1_555 1_555
H24_3 C28_3 1_555 1_555
C29_3 C21_3 1_555 1_555
H25_3 C29_3 1_555 1_555
C31_3 O14_3 1_555 1_555
H30_3 O12_3 1_555 1_555
O15_3 C31_3 1_555 1_555
C17_3 C31_3 1_555 1_555
O11_3 Mg1_7 1_555 1_555
O18 C32_3 1_555 1_555
C23_3 C26_3 1_555 1_555
C25_3 O11_3 1_555 1_555
C26_3 C18_3 1_555 1_555
H22_3 C26_3 1_555 1_555
H23_3 C27_3 1_555 1_555
C32_3 C23_3 1_555 1_555
C18_3 C25_3 1_555 1_555
C23_3 C27_3 1_555 1_555
Mg1_8 O1_3 1_555 1_555
O1_3 C9_3 1_555 1_555
O17 C16_3 1_555 1_555
C7_3 C10_3 1_555 1_555
C10_3 C2_3 1_555 1_555
H7_3 C10_3 1_555 1_555
H8_3 C11_3 1_555 1_555
C16_3 C7_3 1_555 1_555
C2_3 C9_3 1_555 1_555
C7_3 C11_3 1_555 1_555
Mg4 O2_3 1_555 1_555
O2_3 H14_3 1_555 1_555
O3_3 Mg4 1_555 1_555
O4_3 Mg1_9 1_555 1_555
O5_3 Mg4 1_555 1_555
O23_2 C6_3 1_555 1_555
C1_3 C13_3 1_555 1_555
C5_3 C6_3 1_555 1_555
C12_3 C5_3 1_555 1_555
H9_3 C12_3 1_555 1_555
C13_3 C5_3 1_555 1_555
H10_3 C13_3 1_555 1_555
C15_3 O4_3 1_555 1_555
H15_3 O2_3 1_555 1_555
O5_3 C15_3 1_555 1_555
C1_3 C15_3 1_555 1_555
N1_3 H2_3 1_555 1_555
H3_3 N1_3 1_555 1_555
C3_3 N1_3 1_555 1_555
C4_3 C3_3 1_555 1_555
H6_3 C4_3 1_555 1_555
O20_3 H16_3 1_555 1_555
N1_4 H2_4 1_555 1_555
H3_4 N1_4 1_555 1_555
N2_3 H4_3 1_555 1_555
H5_3 N2_3 1_555 1_555
C3_4 N1_4 1_555 1_555
C4_4 C3_4 1_555 1_555
H6_4 C4_4 1_555 1_555
C8_3 N2_3 1_555 1_555
H11_3 C14_3 1_555 1_555
Mg5 O12_4 1_555 1_555
O11_4 Mg1_11 1_555 1_555
O12_4 H29_4 1_555 1_555
O13_4 Mg5 1_555 1_555
O14_4 Mg1_11 1_555 1_555
O15_4 Mg5 1_555 1_555
O18_2 C32_4 1_555 1_555
O19_4 C32_4 1_555 1_555
O20_4 H16_4 1_555 1_555
O22 C22_4 1_555 1_555
C17_4 C29_4 1_555 1_555
C21_4 C22_4 1_555 1_555
C22_4 O20_4 1_555 1_555
C23_4 C26_4 1_555 1_555
C25_4 O11_4 1_555 1_555
C26_4 C18_4 1_555 1_555
H22_4 C26_4 1_555 1_555
H23_4 C27_4 1_555 1_555
C28_4 C21_4 1_555 1_555
H24_4 C28_4 1_555 1_555
C29_4 C21_4 1_555 1_555
H25_4 C29_4 1_555 1_555
C31_4 O14_4 1_555 1_555
C32_4 C23_4 1_555 1_555
O24_3 Mg1_11 1_555 1_555
H27_3 O24_3 1_555 1_555
H28_3 O24_3 1_555 1_555
H30_4 O12_4 1_555 1_555
C8_3 C14_3 1_555 1_555
Mg5 O24_3 1_555 1_555
O13_4 C25_4 1_555 1_555
O15_4 C31_4 1_555 1_555
C17_4 C31_4 1_555 1_555
C18_4 C25_4 1_555 1_555
C23_4 C27_4 1_555 1_555
Mg1_12 O1_4 1_555 1_555
Mg7 O2_4 1_555 1_555
O1_4 C9_4 1_555 1_555
O2_4 H14_4 1_555 1_555
O3_4 Mg7 1_555 1_555
O4_4 Mg1_12 1_555 1_555
O5_4 Mg7 1_555 1_555
O17_2 C16_4 1_555 1_555
O7_4 C16_4 1_555 1_555
O8_4 H1_4 1_555 1_555
O23 C6_4 1_555 1_555
C1_4 C13_4 1_555 1_555
C5_4 C6_4 1_555 1_555
C6_4 O8_4 1_555 1_555
C7_4 C10_4 1_555 1_555
C9_4 O3_4 1_555 1_555
C10_4 C2_4 1_555 1_555
H7_4 C10_4 1_555 1_555
H8_4 C11_4 1_555 1_555
C12_4 C5_4 1_555 1_555
H9_4 C12_4 1_555 1_555
C13_4 C5_4 1_555 1_555
H10_4 C13_4 1_555 1_555
C15_4 O4_4 1_555 1_555
C16_4 C7_4 1_555 1_555
O10_3 Mg1_12 1_555 1_555
H12_3 O10_3 1_555 1_555
H13_3 O10_3 1_555 1_555
H15_4 O2_4 1_555 1_555
N3_4 H17_4 1_555 1_555
H18_4 N3_4 1_555 1_555
N4_3 H19_3 1_555 1_555
H20_3 N4_3 1_555 1_555
C19_4 N3_4 1_555 1_555
C20_4 C19_4 1_555 1_555
H21_4 C20_4 1_555 1_555
C24_3 N4_3 1_555 1_555
H26_3 C30_3 1_555 1_555
Mg7 O10_3 1_555 1_555
O5_4 C15_4 1_555 1_555
C1_4 C15_4 1_555 1_555
C2_4 C9_4 1_555 1_555
C7_4 C11_4 1_555 1_555
C24_3 C30_3 1_555 1_555
O10_4 Mg1_13 1_555 1_555
H12_4 O10_4 1_555 1_555
H13_4 O10_4 1_555 1_555
N4_4 H19_4 1_555 1_555
H20_4 N4_4 1_555 1_555
C24_4 N4_4 1_555 1_555
H26_4 C30_4 1_555 1_555
C24_4 C30_4 1_555 1_555
N2_4 H4_4 1_555 1_555
H5_4 N2_4 1_555 1_555
C8_4 N2_4 1_555 1_555
H11_4 C14_4 1_555 1_555
O24_4 Mg1_14 1_555 1_555
H27_4 O24_4 1_555 1_555
H28_4 O24_4 1_555 1_555
C8_4 C14_4 1_555 1_555

#END
