
###############################################################################
#
# This file contains modified crystal structure data generated from the
# MOF subset of the Cambridge Structural Database (CSD) v543 
# hosted by the Cambridge Crystallographic Data Centre (CCDC).
#
# This work is licensed under the Creative Commons
# Attribution-NonCommercial-ShareAlike 4.0 International License.
# To view a copy of this license, visit
# http://creativecommons.org/licenses/by-nc-sa/4.0/
# or send a letter to
# Creative Commons, PO Box 1866, Mountain View, CA 94042, USA.
#
# CIF created using the CSD Python API on 29 September 2022
# The structure has been converted into the P1 space group
# The structure has a 3D framework
# The original CSD entry WAMRIN is in the orthorhombic crystal system
# The framework has been calculated to contain at least 10.0% void space
# The void calculation uses a probe of radius 1.32A, grid spacing 0.4
#
###############################################################################

data_WAMRIN
_chemical_formula_moiety         '(C64 H56 Mg12 N8 O44)n'
_symmetry_cell_setting           triclinic
_symmetry_space_group_name_H-M   'P 1'
_symmetry_Int_Tables_number      1
_space_group_name_Hall           'P 1'
loop_
_symmetry_equiv_pos_site_id
_symmetry_equiv_pos_as_xyz
1 x,y,z
_cell_length_a                   12.8470(17)
_cell_length_b                   14.8440(19)
_cell_length_c                   15.148(2)
_cell_angle_alpha                90
_cell_angle_beta                 90
_cell_angle_gamma                90
_cell_volume                     2888.74
loop_
_atom_site_label
_atom_site_type_symbol
_atom_site_fract_x
_atom_site_fract_y
_atom_site_fract_z
Mg3 Mg 0.55671(7) 0.23764(7) 0.0000
O11 O 0.47116(14) 0.30510(12) 0.09454(12)
O21 O 0.64142(15) 0.17731(12) 0.09850(13)
O25 O 0.6647(2) 0.3426(2) 0.0000
O28 O 0.44004(17) 0.13269(15) 0.0000
H28 H 0.412(3) 0.154(2) 0.0458(15)
H32 H 0.695(4) 0.358(3) 0.0470(19)
Mg2 Mg -0.0000 0.5000 0.5000
Mg3_2 Mg 0.55671(7) 0.23764(7) 1.0000
Mg5 Mg 0.05671(7) 0.26236(7) 0.5000
O7 O 0.47116(14) 0.30510(12) 0.90546(12)
O12 O 0.33680(16) 0.21675(13) 0.87087(15)
O13 O 0.33680(16) 0.21675(13) 0.12913(15)
C9 C 0.3406(2) 0.36567(16) 0.81359(17)
C10 C 0.3406(2) 0.36567(16) 0.18641(17)
C12 C 0.3262(2) 0.52481(17) 0.7842(2)
C13 C 0.3262(2) 0.52481(17) 0.2158(2)
C15 C 0.3690(2) 0.45347(17) 0.83202(19)
C16 C 0.3690(2) 0.45347(17) 0.16798(19)
H8 H 0.4170 0.4651 0.8766
H9 H 0.4170 0.4651 0.1234
C18 C 0.3862(2) 0.28981(17) 0.86717(17)
C19 C 0.3862(2) 0.28981(17) 0.13283(17)
C21 C 0.2554(2) 0.50641(17) 0.71776(18)
C22 C 0.2554(2) 0.50641(17) 0.28224(18)
H11 H 0.2258 0.5536 0.6861
H12 H 0.2258 0.5536 0.3139
C24 C 0.22793(18) 0.41847(16) 0.69787(16)
C25 C 0.22793(18) 0.41847(16) 0.30213(16)
C27 C 0.27064(19) 0.34794(16) 0.74594(16)
C28 C 0.27064(19) 0.34794(16) 0.25406(16)
H14 H 0.2524 0.2888 0.7328
H15 H 0.2524 0.2888 0.2672
C30 C 0.15133(18) 0.40140(16) 0.62463(15)
C31 C 0.15133(18) 0.40140(16) 0.37537(15)
O15 O 0.14142(15) 0.32269(12) 0.59850(13)
O16 O 0.14142(15) 0.32269(12) 0.40150(13)
O20 O 0.64142(15) 0.17731(12) 0.90150(13)
O22 O 0.10404(17) 0.46772(13) 0.59514(15)
O23 O 0.10404(17) 0.46772(13) 0.40486(15)
O25_2 O 0.6647(2) 0.3426(2) 1.0000
N2 N 0.3524(2) 0.6139(2) 0.8052(2)
N3 N 0.3524(2) 0.6139(2) 0.1948(2)
H17 H 0.3244 0.6578 0.7767
H18 H 0.3244 0.6578 0.2233
H20 H 0.3965 0.6247 0.8466
H21 H 0.3965 0.6247 0.1534
O26 O 0.05996(17) 0.63269(15) 0.5000
O28_2 O 0.44004(17) 0.13269(15) 1.0000
H24 H 0.088(3) 0.654(2) 0.4542(15)
H25 H 0.088(3) 0.654(2) 0.5458(15)
H29 H 0.412(3) 0.154(2) 0.9542(15)
H31 H 0.695(4) 0.358(3) 0.9530(19)
Mg1 Mg 0.44329(7) 0.76236(7) 0.0000
O5 O 0.3353(2) 0.6574(2) 0.0000
O10 O 0.52884(14) 0.69490(12) 0.09454(12)
O19 O 0.35858(15) 0.82269(12) 0.09850(13)
O27 O 0.55996(17) 0.86731(15) 0.0000
H26 H 0.588(3) 0.846(2) 0.0458(15)
H30 H 0.305(4) 0.642(3) 0.0470(19)
Mg1_2 Mg 0.44329(7) 0.76236(7) 1.0000
O1 O 0.52884(14) 0.69490(12) 0.90546(12)
O2 O 0.66320(16) 0.78325(13) 0.87087(15)
C1 C 0.6594(2) 0.63433(16) 0.81359(17)
C2 C 0.6738(2) 0.47519(17) 0.7842(2)
C3 C 0.6310(2) 0.54653(17) 0.83202(19)
H1 H 0.5830 0.5349 0.8766
C4 C 0.6138(2) 0.71019(17) 0.86717(17)
C5 C 0.7446(2) 0.49359(17) 0.71776(18)
H2 H 0.7742 0.4464 0.6861
C6 C 0.77207(18) 0.58153(16) 0.69787(16)
C7 C 0.72936(19) 0.65206(16) 0.74594(16)
H3 H 0.7476 0.7112 0.7328
C8 C 0.84867(18) 0.59860(16) 0.62463(15)
O3 O 0.85858(15) 0.67731(12) 0.59850(13)
O4 O 0.89596(17) 0.53228(13) 0.59514(15)
O5_2 O 0.3353(2) 0.6574(2) 1.0000
N1 N 0.6476(2) 0.3861(2) 0.8052(2)
H4 H 0.6756 0.3422 0.7767
H5 H 0.6035 0.3753 0.8466
Mg2_2 Mg 1.0000 0.5000 0.5000
O6 O 0.94004(17) 0.36731(15) 0.5000
H6 H 0.912(3) 0.346(2) 0.4542(15)
H7 H 0.305(4) 0.642(3) 0.9530(19)
Mg4 Mg 0.94329(7) 0.73764(7) 0.5000
O14 O 0.66320(16) 0.78325(13) 0.12913(15)
C11 C 0.6594(2) 0.63433(16) 0.18641(17)
C14 C 0.6738(2) 0.47519(17) 0.2158(2)
C17 C 0.6310(2) 0.54653(17) 0.16798(19)
H10 H 0.5830 0.5349 0.1234
C20 C 0.6138(2) 0.71019(17) 0.13283(17)
C23 C 0.7446(2) 0.49359(17) 0.28224(18)
H13 H 0.7742 0.4464 0.3139
C26 C 0.77207(18) 0.58153(16) 0.30213(16)
C29 C 0.72936(19) 0.65206(16) 0.25406(16)
H16 H 0.7476 0.7112 0.2672
C32 C 0.84867(18) 0.59860(16) 0.37537(15)
O17 O 0.85858(15) 0.67731(12) 0.40150(13)
O18 O 0.35858(15) 0.82269(12) 0.90150(13)
O24 O 0.89596(17) 0.53228(13) 0.40486(15)
N4 N 0.6476(2) 0.3861(2) 0.1948(2)
H19 H 0.6756 0.3422 0.2233
H22 H 0.6035 0.3753 0.1534
O27_2 O 0.55996(17) 0.86731(15) 1.0000
H23 H 0.912(3) 0.346(2) 0.5458(15)
H27 H 0.588(3) 0.846(2) 0.9542(15)
O25_3 O 0.1647(2) 0.1574(2) 0.5000
H31_2 H 0.195(4) 0.142(3) 0.5470(19)
H32_2 H 0.195(4) 0.142(3) 0.4530(19)
Mg2_3 Mg 0.5000 0.0000 0.0000
O8 O 0.97116(14) 0.19490(12) 0.40546(12)
O13_2 O 0.83680(16) 0.28325(13) 0.37087(15)
C10_2 C 0.8406(2) 0.13433(16) 0.31359(17)
C14_2 C 0.1738(2) 0.02481(17) 0.2842(2)
C16_2 C 0.8690(2) 0.04653(17) 0.33202(19)
H9_2 H 0.9170 0.0349 0.3766
C19_2 C 0.8862(2) 0.21019(17) 0.36717(17)
C23_2 C 0.2446(2) 0.00641(17) 0.21776(18)
H13_2 H 0.2742 0.0536 0.1861
C25_2 C 0.72793(18) 0.08153(16) 0.19787(16)
C28_2 C 0.77064(19) 0.15206(16) 0.24594(16)
H15_2 H 0.7524 0.2112 0.2328
C31_2 C 0.65133(18) 0.09860(16) 0.12463(15)
O23_2 O 0.60404(17) 0.03228(13) 0.09514(15)
N4_2 N 0.1476(2) 0.1139(2) 0.3052(2)
H19_2 H 0.1756 0.1578 0.2767
H22_2 H 0.1035 0.1247 0.3466
C2_2 C 0.1738(2) 0.02481(17) 0.7158(2)
C5_2 C 0.2446(2) 0.00641(17) 0.78224(18)
H2_2 H 0.2742 0.0536 0.8139
N1_2 N 0.1476(2) 0.1139(2) 0.6948(2)
H4_2 H 0.1756 0.1578 0.7233
H5_2 H 0.1035 0.1247 0.6534
Mg2_4 Mg 0.5000 0.0000 1.0000
O7_2 O 0.97116(14) 0.19490(12) 0.59454(12)
O12_2 O 0.83680(16) 0.28325(13) 0.62913(15)
C9_2 C 0.8406(2) 0.13433(16) 0.68641(17)
C15_2 C 0.8690(2) 0.04653(17) 0.66798(19)
H8_2 H 0.9170 0.0349 0.6234
C18_2 C 0.8862(2) 0.21019(17) 0.63283(17)
C24_2 C 0.72793(18) 0.08153(16) 0.80213(16)
C27_2 C 0.77064(19) 0.15206(16) 0.75406(16)
H14_2 H 0.7524 0.2112 0.7672
C30_2 C 0.65133(18) 0.09860(16) 0.87537(15)
O22_2 O 0.60404(17) 0.03228(13) 0.90486(15)
Mg2_5 Mg 0.5000 1.0000 0.0000
O9 O 0.02884(14) 0.80510(12) 0.40546(12)
O14_2 O 0.16320(16) 0.71675(13) 0.37087(15)
C11_2 C 0.1594(2) 0.86567(16) 0.31359(17)
C13_2 C 0.8262(2) 0.97519(17) 0.2842(2)
C17_2 C 0.1310(2) 0.95347(17) 0.33202(19)
H10_2 H 0.0830 0.9651 0.3766
C20_2 C 0.1138(2) 0.78981(17) 0.36717(17)
C22_2 C 0.7554(2) 0.99359(17) 0.21776(18)
H12_2 H 0.7258 0.9464 0.1861
C26_2 C 0.27207(18) 0.91847(16) 0.19787(16)
C29_2 C 0.22936(19) 0.84794(16) 0.24594(16)
H16_2 H 0.2476 0.7888 0.2328
C32_2 C 0.34867(18) 0.90140(16) 0.12463(15)
O24_2 O 0.39596(17) 0.96772(13) 0.09514(15)
N3_2 N 0.8524(2) 0.8861(2) 0.3052(2)
H18_2 H 0.8244 0.8422 0.2767
H21_2 H 0.8965 0.8753 0.3466
O1_2 O 0.02884(14) 0.80510(12) 0.59454(12)
O2_2 O 0.16320(16) 0.71675(13) 0.62913(15)
C1_2 C 0.1594(2) 0.86567(16) 0.68641(17)
C3_2 C 0.1310(2) 0.95347(17) 0.66798(19)
H1_2 H 0.0830 0.9651 0.6234
C4_2 C 0.1138(2) 0.78981(17) 0.63283(17)
C6_2 C 0.27207(18) 0.91847(16) 0.80213(16)
C7_2 C 0.22936(19) 0.84794(16) 0.75406(16)
H3_2 H 0.2476 0.7888 0.7672
C8_2 C 0.34867(18) 0.90140(16) 0.87537(15)
O4_2 O 0.39596(17) 0.96772(13) 0.90486(15)
Mg2_6 Mg 0.5000 1.0000 1.0000
C12_2 C 0.8262(2) 0.97519(17) 0.7158(2)
C21_2 C 0.7554(2) 0.99359(17) 0.78224(18)
H11_2 H 0.7258 0.9464 0.8139
N2_2 N 0.8524(2) 0.8861(2) 0.6948(2)
H17_2 H 0.8244 0.8422 0.7233
H20_2 H 0.8965 0.8753 0.6534
O5_3 O 0.8353(2) 0.8426(2) 0.5000
H7_2 H 0.805(4) 0.858(3) 0.5470(19)
H30_2 H 0.805(4) 0.858(3) 0.4530(19)
loop_
_geom_bond_atom_site_label_1
_geom_bond_atom_site_label_2
_geom_bond_site_symmetry_1
_geom_bond_site_symmetry_2
O11 Mg3 1_555 1_555
O21 Mg3 1_555 1_555
O25 Mg3 1_555 1_555
O28 Mg3 1_555 1_555
H28 O28 1_555 1_555
H32 O25 1_555 1_555
Mg3_2 O7 1_555 1_555
O7 C18 1_555 1_555
O11 C19 1_555 1_555
O12 C18 1_555 1_555
O13 C19 1_555 1_555
C9 C15 1_555 1_555
C10 C16 1_555 1_555
C12 C15 1_555 1_555
C13 C16 1_555 1_555
C15 H8 1_555 1_555
C16 H9 1_555 1_555
C18 C9 1_555 1_555
C19 C10 1_555 1_555
C21 C12 1_555 1_555
C22 C13 1_555 1_555
H11 C21 1_555 1_555
H12 C22 1_555 1_555
C24 C21 1_555 1_555
C25 C22 1_555 1_555
C27 C9 1_555 1_555
C28 C10 1_555 1_555
H14 C27 1_555 1_555
H15 C28 1_555 1_555
C30 C24 1_555 1_555
C31 C25 1_555 1_555
O15 Mg5 1_555 1_555
O16 Mg5 1_555 1_555
O20 Mg3_2 1_555 1_555
O22 Mg2 1_555 1_555
O23 Mg2 1_555 1_555
O25_2 Mg3_2 1_555 1_555
N2 C12 1_555 1_555
N3 C13 1_555 1_555
H17 N2 1_555 1_555
H18 N3 1_555 1_555
H20 N2 1_555 1_555
H21 N3 1_555 1_555
O26 Mg2 1_555 1_555
O28_2 Mg3_2 1_555 1_555
H24 O26 1_555 1_555
H25 O26 1_555 1_555
H29 O28_2 1_555 1_555
H31 O25_2 1_555 1_555
C24 C27 1_555 1_555
C25 C28 1_555 1_555
C30 O15 1_555 1_555
C30 O22 1_555 1_555
C31 O16 1_555 1_555
C31 O23 1_555 1_555
O5 Mg1 1_555 1_555
O10 Mg1 1_555 1_555
O19 Mg1 1_555 1_555
O27 Mg1 1_555 1_555
H26 O27 1_555 1_555
H30 O5 1_555 1_555
Mg1_2 O1 1_555 1_555
O1 C4 1_555 1_555
O2 C4 1_555 1_555
C1 C3 1_555 1_555
C2 C3 1_555 1_555
C3 H1 1_555 1_555
C4 C1 1_555 1_555
C5 C2 1_555 1_555
H2 C5 1_555 1_555
C6 C5 1_555 1_555
C7 C1 1_555 1_555
H3 C7 1_555 1_555
C8 C6 1_555 1_555
O3 C8 1_555 1_555
O4 C8 1_555 1_555
O5_2 Mg1_2 1_555 1_555
N1 C2 1_555 1_555
H4 N1 1_555 1_555
H5 N1 1_555 1_555
Mg2_2 O4 1_555 1_555
O6 Mg2_2 1_555 1_555
H6 O6 1_555 1_555
H7 O5_2 1_555 1_555
Mg4 O3 1_555 1_555
O10 C20 1_555 1_555
O14 C20 1_555 1_555
C11 C17 1_555 1_555
C14 C17 1_555 1_555
C17 H10 1_555 1_555
C20 C11 1_555 1_555
C23 C14 1_555 1_555
H13 C23 1_555 1_555
C26 C23 1_555 1_555
C29 C11 1_555 1_555
H16 C29 1_555 1_555
C32 C26 1_555 1_555
O17 Mg4 1_555 1_555
O18 Mg1_2 1_555 1_555
O24 Mg2_2 1_555 1_555
N4 C14 1_555 1_555
H19 N4 1_555 1_555
H22 N4 1_555 1_555
O27_2 Mg1_2 1_555 1_555
H23 O6 1_555 1_555
H27 O27_2 1_555 1_555
C6 C7 1_555 1_555
C26 C29 1_555 1_555
C32 O17 1_555 1_555
C32 O24 1_555 1_555
O25_3 Mg5 1_555 1_555
H31_2 O25_3 1_555 1_555
H32_2 O25_3 1_555 1_555
O28 Mg2_3 1_555 1_555
O8 C19_2 1_555 1_555
O13_2 C19_2 1_555 1_555
C10_2 C16_2 1_555 1_555
C16_2 H9_2 1_555 1_555
C19_2 C10_2 1_555 1_555
C23_2 C14_2 1_555 1_555
H13_2 C23_2 1_555 1_555
C28_2 C10_2 1_555 1_555
H15_2 C28_2 1_555 1_555
C31_2 C25_2 1_555 1_555
O23_2 Mg2_3 1_555 1_555
N4_2 C14_2 1_555 1_555
H19_2 N4_2 1_555 1_555
H22_2 N4_2 1_555 1_555
C25_2 C28_2 1_555 1_555
C31_2 O21 1_555 1_555
C31_2 O23_2 1_555 1_555
C5_2 C2_2 1_555 1_555
H2_2 C5_2 1_555 1_555
N1_2 C2_2 1_555 1_555
H4_2 N1_2 1_555 1_555
H5_2 N1_2 1_555 1_555
O28_2 Mg2_4 1_555 1_555
O7_2 C18_2 1_555 1_555
O12_2 C18_2 1_555 1_555
C9_2 C15_2 1_555 1_555
C15_2 H8_2 1_555 1_555
C18_2 C9_2 1_555 1_555
C27_2 C9_2 1_555 1_555
H14_2 C27_2 1_555 1_555
C30_2 C24_2 1_555 1_555
O22_2 Mg2_4 1_555 1_555
C24_2 C27_2 1_555 1_555
C30_2 O20 1_555 1_555
C30_2 O22_2 1_555 1_555
O9 C20_2 1_555 1_555
O14_2 C20_2 1_555 1_555
C11_2 C17_2 1_555 1_555
C17_2 H10_2 1_555 1_555
C20_2 C11_2 1_555 1_555
C22_2 C13_2 1_555 1_555
H12_2 C22_2 1_555 1_555
C29_2 C11_2 1_555 1_555
H16_2 C29_2 1_555 1_555
C32_2 C26_2 1_555 1_555
O24_2 Mg2_5 1_555 1_555
N3_2 C13_2 1_555 1_555
H18_2 N3_2 1_555 1_555
H21_2 N3_2 1_555 1_555
O27 Mg2_5 1_555 1_555
C26_2 C29_2 1_555 1_555
C32_2 O19 1_555 1_555
C32_2 O24_2 1_555 1_555
O1_2 C4_2 1_555 1_555
O2_2 C4_2 1_555 1_555
C1_2 C3_2 1_555 1_555
C3_2 H1_2 1_555 1_555
C4_2 C1_2 1_555 1_555
C7_2 C1_2 1_555 1_555
H3_2 C7_2 1_555 1_555
C8_2 C6_2 1_555 1_555
O18 C8_2 1_555 1_555
O4_2 C8_2 1_555 1_555
Mg2_6 O4_2 1_555 1_555
C21_2 C12_2 1_555 1_555
H11_2 C21_2 1_555 1_555
N2_2 C12_2 1_555 1_555
H17_2 N2_2 1_555 1_555
H20_2 N2_2 1_555 1_555
O27_2 Mg2_6 1_555 1_555
C6_2 C7_2 1_555 1_555
O5_3 Mg4 1_555 1_555
H7_2 O5_3 1_555 1_555
H30_2 O5_3 1_555 1_555

#END
