
###############################################################################
#
# This file contains modified crystal structure data generated from the
# MOF subset of the Cambridge Structural Database (CSD) v543 
# hosted by the Cambridge Crystallographic Data Centre (CCDC).
#
# This work is licensed under the Creative Commons
# Attribution-NonCommercial-ShareAlike 4.0 International License.
# To view a copy of this license, visit
# http://creativecommons.org/licenses/by-nc-sa/4.0/
# or send a letter to
# Creative Commons, PO Box 1866, Mountain View, CA 94042, USA.
#
# CIF created using the CSD Python API on 29 September 2022
# The structure has been converted into the P1 space group
# The structure has a 3D framework
# The original CSD entry WAMYES is in the rhombohedral crystal system
# The framework has been calculated to contain at least 10.0% void space
# The void calculation uses a probe of radius 1.32A, grid spacing 0.4
# The framework is charged, counterions have been retained in the structure
#
###############################################################################

data_WAMYES
_chemical_formula_moiety         '(C1080 H576 O308 Zn116 24-)n'
_symmetry_cell_setting           triclinic
_symmetry_space_group_name_H-M   'P 1'
_symmetry_Int_Tables_number      1
_space_group_name_Hall           'P 1'
loop_
_symmetry_equiv_pos_site_id
_symmetry_equiv_pos_as_xyz
1 x,y,z
_cell_length_a                   23.159(3)
_cell_length_b                   23.159(3)
_cell_length_c                   70.110(14)
_cell_angle_alpha                90
_cell_angle_beta                 90
_cell_angle_gamma                120
_cell_volume                     32564.9
loop_
_atom_site_label
_atom_site_type_symbol
_atom_site_fract_x
_atom_site_fract_y
_atom_site_fract_z
Zn20 Zn -0.000000 0.000000 0.11690(6)
Zn20_2 Zn -0.000000 1.000000 0.11690(6)
C48 C 0.4839(7) 0.0047(9) 0.2982(2)
H25 H 0.504068 0.005582 0.286671
C49 C 0.5149(7) 0.0588(11) 0.3105(2)
H26 H 0.554744 0.096427 0.307098
C50 C 0.4859(6) 0.0560(9) 0.32788(18)
C51 C 0.5057(6) 0.1012(8) 0.34392(18)
C52 C 0.5670(7) 0.1625(10) 0.3461(2)
H27 H 0.599444 0.179053 0.336617
C53 C 0.5756(8) 0.1965(11) 0.3634(2)
H28 H 0.615549 0.235362 0.365802
C54 C 0.5250(8) 0.1725(11) 0.37692(18)
C55 C 0.5341(15) 0.2132(19) 0.3949(2)
C56 C 0.4659(8) 0.1119(11) 0.37456(18)
H29 H 0.433103 0.096161 0.383924
C57 C 0.4570(6) 0.0756(8) 0.35792(16)
C58 C 0.3990(6) 0.0087(8) 0.35253(16)
H30 H 0.357708 0.009749 0.351895
O12 O 0.1731(8) 0.0396(9) 0.13065(16)
O16 O 0.5949(8) 0.2551(11) 0.39945(16)
O17 O 0.4857(9) 0.2042(12) 0.40345(16)
Zn11 Zn 0.50823(9) 0.27639(7) 0.42111(2)
Zn13 Zn 0.15882(7) 0.09567(10) 0.11276(2)
Zn17 Zn 0.666666 0.333334 0.41605(6)
Zn20_3 Zn 1.000000 0.000000 0.11690(6)
Zn1 Zn 0.43482(6) 0.60972(7) 0.25444(2)
Zn2 Zn 0.49215(7) 0.72981(7) 0.27943(2)
Zn3 Zn 0.333333 0.666667 0.24938(6)
Zn4 Zn 0.333333 0.666667 0.28357(6)
C1 C 0.5575(7) 0.7349(7) 0.24389(17)
C2 C 0.6124(6) 0.7709(6) 0.22995(17)
C3 C 0.6656(6) 0.8350(6) 0.23373(16)
H1 H 0.665530 0.856460 0.244945
C4 C 0.7167(7) 0.8663(7) 0.22142(19)
H2 H 0.752537 0.908124 0.224312
C5 C 0.7152(6) 0.8354(6) 0.20450(18)
C6 C 0.7625(7) 0.8548(6) 0.18838(19)
C7 C 0.8218(7) 0.9133(7) 0.1858(2)
H3 H 0.837359 0.946915 0.194876
C8 C 0.8593(7) 0.9213(7) 0.1686(2)
H4 H 0.899167 0.960679 0.166425
C9 C 0.8360(7) 0.8709(9) 0.1557(2)
C10 C 0.8800(10) 0.8826(14) 0.1389(2)
C11 C 0.7746(7) 0.8105(8) 0.15869(19)
H5 H 0.758213 0.776439 0.149687
C12 C 0.7400(6) 0.8040(7) 0.17540(17)
C13 C 0.6723(7) 0.7461(6) 0.18117(17)
H6 H 0.637652 0.739983 0.172247
H7 H 0.673179 0.704840 0.182336
C14 C 0.6634(6) 0.7708(6) 0.20039(15)
C15 C 0.6103(6) 0.7376(6) 0.21336(17)
H8 H 0.575173 0.694968 0.210853
C16 C 0.5032(6) 0.6114(6) 0.28929(15)
C17 C 0.5262(7) 0.5784(7) 0.30310(18)
C18 C 0.5208(6) 0.5161(7) 0.2982(2)
H9 H 0.501514 0.495932 0.286671
C19 C 0.5439(8) 0.4851(7) 0.3105(2)
H10 H 0.541683 0.445256 0.307098
C20 C 0.5701(7) 0.5141(6) 0.32788(18)
C21 C 0.5955(6) 0.4943(6) 0.34392(18)
C22 C 0.5955(7) 0.4330(7) 0.3461(2)
H11 H 0.579609 0.400556 0.336617
C23 C 0.6209(8) 0.4244(8) 0.3634(2)
H12 H 0.619813 0.384451 0.365802
C24 C 0.6475(7) 0.4750(8) 0.37692(18)
C25 C 0.6791(11) 0.4659(15) 0.3949(2)
C26 C 0.6460(7) 0.5341(8) 0.37456(18)
H13 H 0.663058 0.566897 0.383924
C27 C 0.6186(5) 0.5430(6) 0.35792(16)
C28 C 0.6097(6) 0.6010(6) 0.35253(16)
H14 H 0.652041 0.642292 0.351895
H15 H 0.580250 0.606174 0.361308
C29 C 0.5777(6) 0.5783(6) 0.33255(16)
C30 C 0.5562(6) 0.6095(6) 0.31981(16)
H16 H 0.562221 0.651444 0.322616
O1 O 0.5157(4) 0.6755(5) 0.24074(12)
O2 O 0.5571(5) 0.7698(5) 0.25842(12)
O3 O 0.8665(5) 0.8269(8) 0.13065(16)
O4 O 0.9207(6) 0.9339(8) 0.13386(16)
O5 O 0.4675(4) 0.5768(5) 0.27548(12)
O6 O 0.5196(5) 0.6716(5) 0.29321(12)
O7 O 0.6602(7) 0.4051(8) 0.39945(16)
O8 O 0.7185(8) 0.5143(9) 0.40345(16)
O9 O 0.4064(5) 0.6691(6) 0.26673(11)
Zn5 Zn 0.39028(7) 0.82510(9) 0.25444(2)
Zn6 Zn 0.27019(7) 0.76234(10) 0.27943(2)
C31 C 0.2651(7) 0.8226(10) 0.24389(17)
C32 C 0.2291(6) 0.8415(8) 0.22995(17)
C33 C 0.1650(6) 0.8306(8) 0.23373(16)
H17 H 0.143540 0.809070 0.244945
C34 C 0.1337(7) 0.8504(10) 0.22142(19)
H18 H 0.091876 0.844413 0.224312
C35 C 0.1646(6) 0.8798(8) 0.20450(18)
C36 C 0.1452(6) 0.9077(9) 0.18838(19)
C37 C 0.0867(7) 0.9085(10) 0.1858(2)
H19 H 0.053085 0.890444 0.194876
C38 C 0.0787(7) 0.9380(10) 0.1686(2)
H20 H 0.039321 0.938488 0.166425
C39 C 0.1291(9) 0.9651(11) 0.1557(2)
C40 C 0.1174(14) 0.9974(17) 0.1389(2)
C41 C 0.1895(8) 0.9641(11) 0.15869(19)
H21 H 0.223561 0.981774 0.149687
C42 C 0.1960(7) 0.9360(9) 0.17540(17)
C43 C 0.2539(6) 0.9262(9) 0.18117(17)
H22 H 0.260017 0.897669 0.172247
H23 H 0.295160 0.968339 0.182336
C44 C 0.2292(6) 0.8926(8) 0.20039(15)
C45 C 0.2624(6) 0.8727(8) 0.21336(17)
H24 H 0.305032 0.880205 0.210853
C46 C 0.3886(6) 0.8918(8) 0.28929(15)
C47 C 0.4216(7) 0.9478(10) 0.30310(18)
H31 H 0.393826 0.974076 0.361308
C59 C 0.4217(6) 0.9994(8) 0.33255(16)
C60 C 0.3905(6) 0.9467(8) 0.31981(16)
H32 H 0.348556 0.910777 0.322616
O10 O 0.3245(5) 0.8402(6) 0.24074(12)
O11 O 0.2302(5) 0.7873(7) 0.25842(12)
O13 O 0.0661(8) 0.9868(10) 0.13386(16)
O14 O 0.4232(5) 0.8907(6) 0.27548(12)
O15 O 0.3284(5) 0.8480(7) 0.29321(12)
O18 O 0.3309(6) 0.7373(8) 0.26673(11)
Zn7 Zn 0.17490(9) 0.56518(6) 0.25444(2)
Zn8 Zn 0.23766(10) 0.50785(7) 0.27943(2)
C61 C 0.1774(10) 0.4425(7) 0.24389(17)
C62 C 0.1585(8) 0.3876(6) 0.22995(17)
C63 C 0.1694(8) 0.3344(6) 0.23373(16)
H33 H 0.190930 0.334470 0.244945
C64 C 0.1496(10) 0.2833(7) 0.22142(19)
H34 H 0.155587 0.247463 0.224312
C65 C 0.1202(8) 0.2848(6) 0.20450(18)
C66 C 0.0923(9) 0.2375(7) 0.18838(19)
C67 C 0.0915(10) 0.1782(7) 0.1858(2)
H35 H 0.109556 0.162641 0.194876
C68 C 0.0620(10) 0.1407(7) 0.1686(2)
H36 H 0.061512 0.100833 0.166425
C69 C 0.0349(11) 0.1640(7) 0.1557(2)
C70 C 0.0026(17) 0.1200(10) 0.1389(2)
C71 C 0.0359(11) 0.2254(7) 0.15869(19)
H37 H 0.018226 0.241787 0.149687
C72 C 0.0640(9) 0.2600(6) 0.17540(17)
C73 C 0.0738(9) 0.3277(7) 0.18117(17)
H38 H 0.102331 0.362348 0.172247
H39 H 0.031661 0.326821 0.182336
C74 C 0.1074(8) 0.3366(6) 0.20039(15)
C75 C 0.1273(8) 0.3897(6) 0.21336(17)
H40 H 0.119795 0.424827 0.210853
C76 C 0.1082(8) 0.4968(6) 0.28929(15)
C77 C 0.0522(10) 0.4738(7) 0.30310(18)
H47 H 0.025924 0.419750 0.361308
C89 C 0.0006(8) 0.4223(6) 0.33255(16)
C90 C 0.0533(8) 0.4438(6) 0.31981(16)
H48 H 0.089223 0.437779 0.322616
O19 O 0.1598(6) 0.4843(4) 0.24074(12)
O20 O 0.2127(7) 0.4429(5) 0.25842(12)
O22 O 0.0132(10) 0.0793(6) 0.13386(16)
O23 O 0.1093(6) 0.5325(4) 0.27548(12)
O24 O 0.1520(7) 0.4804(5) 0.29321(12)
O27 O 0.2627(8) 0.5936(5) 0.26673(11)
Zn10 Zn 0.76815(6) 0.49177(9) 0.42111(2)
Zn12 Zn 0.93686(7) 0.84118(7) 0.11276(2)
Zn20_4 Zn 1.000000 1.000000 0.11690(6)
O28 O 0.5064(8) 0.8002(5) 0.29732(16)
O29 O 0.1998(5) 0.7063(9) 0.29732(16)
O30 O 0.2937(9) 0.4936(8) 0.29732(16)
O31 O 0.3994(8) 0.7460(6) 0.30053(16)
O32 O 0.2540(6) 0.6535(10) 0.30053(16)
O33 O 0.3465(10) 0.6006(8) 0.30053(16)
O34 O 0.2616(8) 0.6731(7) 0.23278(16)
O35 O 0.3269(7) 0.5884(11) 0.23278(16)
O36 O 0.4116(11) 0.7384(8) 0.23278(16)
O37 O 0.1524(9) 0.6148(8) 0.23678(16)
O38 O 0.3852(8) 0.5375(12) 0.23678(16)
O39 O 0.4625(12) 0.8476(9) 0.23678(16)
C78 C 0.9953(9) 0.4792(6) 0.2982(2)
H41 H 0.994418 0.498486 0.286671
C79 C 0.9412(11) 0.4561(8) 0.3105(2)
H42 H 0.903573 0.458317 0.307098
C80 C 0.9440(9) 0.4299(7) 0.32788(18)
C81 C 0.8988(8) 0.4045(6) 0.34392(18)
C82 C 0.8375(10) 0.4045(7) 0.3461(2)
H43 H 0.820947 0.420391 0.336617
C83 C 0.8035(11) 0.3791(8) 0.3634(2)
H44 H 0.764638 0.380187 0.365802
C84 C 0.8275(11) 0.3525(7) 0.37692(18)
C85 C 0.7868(19) 0.3209(11) 0.3949(2)
C86 C 0.8881(11) 0.3540(7) 0.37456(18)
H45 H 0.903839 0.336942 0.383924
C87 C 0.9244(8) 0.3814(5) 0.35792(16)
C88 C 0.9913(8) 0.3903(6) 0.35253(16)
H46 H 0.990251 0.347959 0.351895
O21 O 0.9604(9) 0.1335(5) 0.13065(16)
O25 O 0.7449(11) 0.3398(7) 0.39945(16)
O26 O 0.7958(12) 0.2815(8) 0.40345(16)
Zn9 Zn 0.72361(7) 0.23185(6) 0.42111(2)
Zn14 Zn 0.90433(10) 0.06314(7) 0.11276(2)
Zn2_2 Zn 0.15882(7) 0.06314(7) 0.61276(2)
Zn3_2 Zn -0.000000 0.000000 0.58271(6)
Zn4_2 Zn -0.000000 0.000000 0.61690(6)
C1_2 C 0.2242(7) 0.0682(7) 0.57722(17)
C2_2 C 0.2791(6) 0.1042(6) 0.56328(17)
C3_2 C 0.3323(6) 0.1683(6) 0.56706(16)
H1_2 H 0.332197 0.189793 0.578278
C4_2 C 0.3834(7) 0.1996(7) 0.55475(19)
H2_2 H 0.419204 0.241457 0.557645
C5_2 C 0.3819(6) 0.1687(6) 0.53783(18)
C6_2 C 0.4292(7) 0.1881(6) 0.52171(19)
C7_2 C 0.4885(7) 0.2466(7) 0.5191(2)
H3_2 H 0.504026 0.280248 0.528209
C8_2 C 0.5260(7) 0.2546(7) 0.5019(2)
H4_2 H 0.565834 0.294012 0.499758
C9_2 C 0.5027(7) 0.2042(9) 0.4890(2)
C10_2 C 0.5467(10) 0.2159(14) 0.4722(2)
C11_2 C 0.4413(7) 0.1438(8) 0.49202(19)
H5_2 H 0.424880 0.109772 0.483020
C12_2 C 0.4067(6) 0.1373(7) 0.50873(17)
C13_2 C 0.3390(7) 0.0794(6) 0.51450(17)
H6_2 H 0.304319 0.073316 0.505580
H7_2 H 0.339846 0.038173 0.515669
C14_2 C 0.3301(6) 0.1041(6) 0.53372(15)
C15_2 C 0.2770(6) 0.0709(6) 0.54669(17)
H8_2 H 0.241840 0.028301 0.544186
O1_2 O 0.1824(4) 0.0088(5) 0.57407(12)
O2_2 O 0.2238(5) 0.1031(5) 0.59175(12)
O3_2 O 0.5332(5) 0.1602(8) 0.46398(16)
O4_2 O 0.5874(6) 0.2672(8) 0.46719(16)
O6_2 O 0.1863(5) 0.0049(5) 0.62654(12)
O9_2 O 0.0731(5) 0.0024(6) 0.60006(11)
Zn5_2 Zn 0.05695(7) 0.15843(9) 0.58777(2)
C46_2 C 0.0553(6) 0.2251(8) 0.62262(15)
C47_2 C 0.0883(7) 0.2811(10) 0.63643(18)
C48_2 C 0.1506(7) 0.3380(9) 0.6315(2)
H25_2 H 0.170735 0.338915 0.620004
C49_2 C 0.1816(7) 0.3921(11) 0.6438(2)
H26_2 H 0.221411 0.429760 0.640431
C50_2 C 0.1526(6) 0.3893(9) 0.66121(18)
C51_2 C 0.1724(6) 0.4345(8) 0.67725(18)
C52_2 C 0.2337(7) 0.4958(10) 0.6794(2)
H27_2 H 0.266111 0.512386 0.669950
C53_2 C 0.2423(8) 0.5298(11) 0.6967(2)
H28_2 H 0.282216 0.568695 0.699135
C54_2 C 0.1917(8) 0.5058(11) 0.71025(18)
C55_2 C 0.2008(15) 0.5465(19) 0.7282(2)
C56_2 C 0.1326(8) 0.4452(11) 0.70789(18)
H29_2 H 0.099770 0.429494 0.717257
C57_2 C 0.1237(6) 0.4089(8) 0.69125(16)
C58_2 C 0.0657(6) 0.3420(8) 0.68586(16)
H30_2 H 0.024375 0.343082 0.685228
H31_2 H 0.060493 0.307409 0.694641
C59_2 C 0.0884(6) 0.3327(8) 0.66588(16)
C60_2 C 0.0572(6) 0.2800(8) 0.65314(16)
H32_2 H 0.015223 0.244110 0.655949
O14_2 O 0.0899(5) 0.2240(6) 0.60881(12)
O16_2 O 0.2616(8) 0.5884(11) 0.73278(16)
O17_2 O 0.1524(9) 0.5375(12) 0.73678(16)
Zn11_2 Zn 0.17490(9) 0.60972(7) 0.75444(2)
Zn12_2 Zn 0.60352(7) 0.17452(7) 0.44610(2)
Zn17_2 Zn 0.333333 0.666667 0.74938(6)
Zn20_5 Zn 0.666666 0.333334 0.45024(6)
O28_2 O 0.1731(8) 0.1335(5) 0.63065(16)
O31_2 O 0.0661(8) 0.0793(6) 0.63386(16)
O36_2 O 0.0782(11) 0.0718(8) 0.56612(16)
O39_2 O 0.1291(12) 0.1810(9) 0.57012(16)
Zn1_2 Zn 0.10149(6) 0.94305(7) 0.58777(2)
Zn3_3 Zn -0.000000 1.000000 0.58271(6)
Zn4_3 Zn -0.000000 1.000000 0.61690(6)
C16_2 C 0.1699(6) 0.9447(6) 0.62262(15)
C17_2 C 0.1929(7) 0.9117(7) 0.63643(18)
C18_2 C 0.1875(6) 0.8494(7) 0.6315(2)
H9_2 H 0.168181 0.829265 0.620004
C19_2 C 0.2106(8) 0.8184(7) 0.6438(2)
H10_2 H 0.208350 0.778589 0.640431
C20_2 C 0.2368(7) 0.8474(6) 0.66121(18)
C21_2 C 0.2622(6) 0.8276(6) 0.67725(18)
C22_2 C 0.2622(7) 0.7663(7) 0.6794(2)
H11_2 H 0.246276 0.733889 0.669950
C23_2 C 0.2876(8) 0.7577(8) 0.6967(2)
H12_2 H 0.286480 0.717784 0.699135
C24_2 C 0.3142(7) 0.8083(8) 0.71025(18)
C25_2 C 0.3458(11) 0.7992(15) 0.7282(2)
C26_2 C 0.3127(7) 0.8674(8) 0.70789(18)
H13_2 H 0.329725 0.900230 0.717257
C27_2 C 0.2853(5) 0.8763(6) 0.69125(16)
C28_2 C 0.2764(6) 0.9343(6) 0.68586(16)
H14_2 H 0.318708 0.975625 0.685228
H15_2 H 0.246917 0.939507 0.694641
C29_2 C 0.2444(6) 0.9116(6) 0.66588(16)
C30_2 C 0.2229(6) 0.9428(6) 0.65314(16)
H16_2 H 0.228888 0.984777 0.655949
O5_2 O 0.1342(4) 0.9101(5) 0.60881(12)
O7_2 O 0.3269(7) 0.7384(8) 0.73278(16)
O8_2 O 0.3852(8) 0.8476(9) 0.73678(16)
Zn10_2 Zn 0.43482(6) 0.82510(9) 0.75444(2)
O33_2 O 0.0132(10) 0.9339(8) 0.63386(16)
O38_2 O 0.0518(8) 0.8709(12) 0.57012(16)
Zn3_4 Zn 1.000000 0.000000 0.58271(6)
Zn4_4 Zn 1.000000 0.000000 0.61690(6)
Zn6_2 Zn 0.93686(7) 0.09567(10) 0.61276(2)
C31_2 C 0.9318(7) 0.1559(10) 0.57722(17)
C32_2 C 0.8958(6) 0.1748(8) 0.56328(17)
C33_2 C 0.8317(6) 0.1639(8) 0.56706(16)
H17_2 H 0.810207 0.142403 0.578278
C34_2 C 0.8004(7) 0.1837(10) 0.55475(19)
H18_2 H 0.758543 0.177746 0.557645
C35_2 C 0.8313(6) 0.2131(8) 0.53783(18)
C36_2 C 0.8119(6) 0.2410(9) 0.52171(19)
C37_2 C 0.7534(7) 0.2418(10) 0.5191(2)
H19_2 H 0.719752 0.223777 0.528209
C38_2 C 0.7454(7) 0.2713(10) 0.5019(2)
H20_2 H 0.705988 0.271821 0.499758
C39_2 C 0.7958(9) 0.2984(11) 0.4890(2)
C40_2 C 0.7841(14) 0.3307(17) 0.4722(2)
C41_2 C 0.8562(8) 0.2974(11) 0.49202(19)
H21_2 H 0.890228 0.315107 0.483020
C42_2 C 0.8627(7) 0.2693(9) 0.50873(17)
C43_2 C 0.9206(6) 0.2595(9) 0.51450(17)
H22_2 H 0.926684 0.231002 0.505580
H23_2 H 0.961827 0.301672 0.515669
C44_2 C 0.8959(6) 0.2259(8) 0.53372(15)
C45_2 C 0.9291(6) 0.2060(8) 0.54669(17)
H24_2 H 0.971699 0.213538 0.544186
O10_2 O 0.9912(5) 0.1735(6) 0.57407(12)
O11_2 O 0.8969(5) 0.1206(7) 0.59175(12)
O12_2 O 0.8398(8) 0.3729(9) 0.46398(16)
O13_2 O 0.7328(8) 0.3201(10) 0.46719(16)
O15_2 O 0.9951(5) 0.1813(7) 0.62654(12)
O18_2 O 0.9976(6) 0.0706(8) 0.60006(11)
Zn13_2 Zn 0.82548(7) 0.42901(10) 0.44610(2)
O29_2 O 0.8665(5) 0.0396(9) 0.63065(16)
O34_2 O 0.9282(8) 0.0065(7) 0.56612(16)
Zn3_5 Zn 1.000000 1.000000 0.58271(6)
Zn4_5 Zn 1.000000 1.000000 0.61690(6)
Zn7_2 Zn 0.84157(9) 0.89851(6) 0.58777(2)
Zn8_2 Zn 0.90433(10) 0.84118(7) 0.61276(2)
C61_2 C 0.8441(10) 0.7758(7) 0.57722(17)
C62_2 C 0.8252(8) 0.7209(6) 0.56328(17)
C63_2 C 0.8361(8) 0.6677(6) 0.56706(16)
H33_2 H 0.857597 0.667803 0.578278
C64_2 C 0.8163(10) 0.6166(7) 0.55475(19)
H34_2 H 0.822254 0.580796 0.557645
C65_2 C 0.7869(8) 0.6181(6) 0.53783(18)
C66_2 C 0.7590(9) 0.5708(7) 0.52171(19)
C67_2 C 0.7582(10) 0.5115(7) 0.5191(2)
H35_2 H 0.776223 0.495974 0.528209
C68_2 C 0.7287(10) 0.4740(7) 0.5019(2)
H36_2 H 0.728179 0.434166 0.499758
C69_2 C 0.7016(11) 0.4973(7) 0.4890(2)
C70_2 C 0.6693(17) 0.4533(10) 0.4722(2)
C71_2 C 0.7026(11) 0.5587(7) 0.49202(19)
H37_2 H 0.684893 0.575120 0.483020
C72_2 C 0.7307(9) 0.5933(6) 0.50873(17)
C73_2 C 0.7405(9) 0.6610(7) 0.51450(17)
H38_2 H 0.768998 0.695681 0.505580
H39_2 H 0.698328 0.660154 0.515669
C74_2 C 0.7741(8) 0.6699(6) 0.53372(15)
C75_2 C 0.7940(8) 0.7230(6) 0.54669(17)
H40_2 H 0.786462 0.758160 0.544186
C76_2 C 0.7749(8) 0.8301(6) 0.62262(15)
C77_2 C 0.7189(10) 0.8071(7) 0.63643(18)
C78_2 C 0.6620(9) 0.8125(6) 0.6315(2)
H41_2 H 0.661085 0.831819 0.620004
C79_2 C 0.6079(11) 0.7894(8) 0.6438(2)
H42_2 H 0.570240 0.791650 0.640431
C80_2 C 0.6107(9) 0.7632(7) 0.66121(18)
C81_2 C 0.5655(8) 0.7378(6) 0.67725(18)
C82_2 C 0.5042(10) 0.7378(7) 0.6794(2)
H43_2 H 0.487614 0.753724 0.669950
C83_2 C 0.4702(11) 0.7124(8) 0.6967(2)
H44_2 H 0.431305 0.713520 0.699135
C84_2 C 0.4942(11) 0.6858(7) 0.71025(18)
C85_2 C 0.4535(19) 0.6542(11) 0.7282(2)
C86_2 C 0.5548(11) 0.6873(7) 0.70789(18)
H45_2 H 0.570506 0.670275 0.717257
C87_2 C 0.5911(8) 0.7147(5) 0.69125(16)
C88_2 C 0.6580(8) 0.7236(6) 0.68586(16)
H46_2 H 0.656918 0.681292 0.685228
H47_2 H 0.692591 0.753083 0.694641
C89_2 C 0.6673(8) 0.7556(6) 0.66588(16)
C90_2 C 0.7200(8) 0.7771(6) 0.65314(16)
H48_2 H 0.755890 0.771112 0.655949
O19_2 O 0.8265(6) 0.8176(4) 0.57407(12)
O20_2 O 0.8794(7) 0.7762(5) 0.59175(12)
O21_2 O 0.6271(9) 0.4668(5) 0.46398(16)
O22_2 O 0.6799(10) 0.4126(6) 0.46719(16)
O23_2 O 0.7760(6) 0.8658(4) 0.60881(12)
O24_2 O 0.8187(7) 0.8137(5) 0.62654(12)
O25_2 O 0.4116(11) 0.6731(7) 0.73278(16)
O26_2 O 0.4625(12) 0.6148(8) 0.73678(16)
O27_2 O 0.9294(8) 0.9269(5) 0.60006(11)
Zn9_2 Zn 0.39028(7) 0.56518(6) 0.75444(2)
Zn14_2 Zn 0.57099(10) 0.39648(7) 0.44610(2)
O30_2 O 0.9604(9) 0.8269(8) 0.63065(16)
O32_2 O 0.9207(6) 0.9868(10) 0.63386(16)
O35_2 O 0.9935(7) 0.9218(11) 0.56612(16)
O37_2 O 0.8190(9) 0.9482(8) 0.57012(16)
Zn17_3 Zn -0.000000 0.000000 0.08271(6)
C25_3 C 0.0124(11) 0.1326(15) 0.0616(2)
O8_3 O 0.0518(8) 0.1810(9) 0.07012(16)
Zn10_3 Zn 0.10149(6) 0.15843(9) 0.08777(2)
Zn17_4 Zn -0.000000 1.000000 0.08271(6)
C4_3 C 0.0500(7) 0.5330(7) 0.88809(19)
H2_3 H 0.085870 0.574791 0.890979
C5_3 C 0.0485(6) 0.5021(6) 0.87117(18)
C6_3 C 0.0958(7) 0.5215(6) 0.85505(19)
C7_3 C 0.1551(7) 0.5800(7) 0.8525(2)
H3_3 H 0.170692 0.613582 0.861543
C8_3 C 0.1926(7) 0.5880(7) 0.8353(2)
H4_3 H 0.232500 0.627346 0.833092
C9_3 C 0.1693(7) 0.5376(9) 0.8224(2)
C10_3 C 0.2133(10) 0.5493(14) 0.8056(2)
C11_3 C 0.1079(7) 0.4772(8) 0.82536(19)
H5_3 H 0.091546 0.443106 0.816354
C12_3 C 0.0733(6) 0.4707(7) 0.84207(17)
C13_3 C 0.0056(7) 0.4128(6) 0.84784(17)
H7_3 H 0.006512 0.371507 0.849003
O3_3 O 0.1998(5) 0.4936(8) 0.79732(16)
O4_3 O 0.2540(6) 0.6006(8) 0.80053(16)
Zn12_3 Zn 0.27019(7) 0.50785(7) 0.77943(2)
Zn20_6 Zn 0.333333 0.666667 0.78357(6)
Zn17_5 Zn 1.000000 0.000000 0.08271(6)
C21_3 C 0.9288(6) 0.1610(6) 0.01059(18)
C22_3 C 0.9288(7) 0.0997(7) 0.0128(2)
H11_3 H 0.912942 0.067223 0.003284
C23_3 C 0.9542(8) 0.0911(8) 0.0301(2)
H12_3 H 0.953146 0.051118 0.032469
C24_3 C 0.9808(7) 0.1417(8) 0.04359(18)
C26_3 C 0.9793(7) 0.2008(8) 0.04123(18)
H13_3 H 0.996391 0.233564 0.050591
C27_3 C 0.9519(5) 0.2097(6) 0.02459(16)
C28_3 C 0.9430(6) 0.2677(6) 0.01920(16)
H14_3 H 0.985374 0.308959 0.018562
H15_3 H 0.913583 0.272841 0.027975
O7_3 O 0.9935(7) 0.0718(8) 0.06612(16)
C51_3 C 0.8390(6) 0.7679(8) 0.01059(18)
C52_3 C 0.9003(7) 0.8292(10) 0.0128(2)
H27_3 H 0.932777 0.845720 0.003284
C53_3 C 0.9089(8) 0.8632(11) 0.0301(2)
H28_3 H 0.948882 0.902029 0.032469
C54_3 C 0.8583(8) 0.8392(11) 0.04359(18)
C55_3 C 0.8674(15) 0.8799(19) 0.0616(2)
C56_3 C 0.7992(8) 0.7786(11) 0.04123(18)
H29_3 H 0.766436 0.762828 0.050591
C57_3 C 0.7903(6) 0.7423(8) 0.02459(16)
C58_3 C 0.7323(6) 0.6754(8) 0.01920(16)
H30_3 H 0.691041 0.676416 0.018562
H31_3 H 0.727159 0.640743 0.027975
O16_3 O 0.9282(8) 0.9218(11) 0.06612(16)
O17_3 O 0.8190(9) 0.8709(12) 0.07012(16)
C81_3 C 0.2321(8) 0.0712(6) 0.01059(18)
C82_3 C 0.1708(10) 0.0712(7) 0.0128(2)
H43_3 H 0.154280 0.087058 0.003284
C83_3 C 0.1368(11) 0.0458(8) 0.0301(2)
H44_3 H 0.097971 0.046854 0.032469
C84_3 C 0.1608(11) 0.0192(7) 0.04359(18)
C86_3 C 0.2214(11) 0.0207(7) 0.04123(18)
H45_3 H 0.237172 0.003609 0.050591
C87_3 C 0.2577(8) 0.0481(5) 0.02459(16)
C88_3 C 0.3246(8) 0.0570(6) 0.01920(16)
H46_3 H 0.323584 0.014626 0.018562
H47_3 H 0.359257 0.086417 0.027975
O25_3 O 0.0782(11) 0.0065(7) 0.06612(16)
Zn11_3 Zn 0.84157(9) 0.94305(7) 0.08777(2)
Zn17_6 Zn 1.000000 1.000000 0.08271(6)
Zn1_3 Zn 0.76815(6) 0.27639(7) 0.92111(2)
Zn2_3 Zn 0.82548(7) 0.39648(7) 0.94610(2)
Zn3_6 Zn 0.666666 0.333334 0.91605(6)
Zn4_6 Zn 0.666666 0.333334 0.95024(6)
C1_3 C 0.8908(7) 0.4016(7) 0.91056(17)
C2_3 C 0.9457(6) 0.4376(6) 0.89662(17)
C3_3 C 0.9989(6) 0.5017(6) 0.90040(16)
H1_3 H 0.998863 0.523127 0.911612
H6_3 H 0.970985 0.406650 0.838914
C14_3 C 0.9967(6) 0.4375(6) 0.86706(15)
C15_3 C 0.9436(6) 0.4043(6) 0.88003(17)
H8_3 H 0.908506 0.361635 0.877520
C16_3 C 0.8365(6) 0.2781(6) 0.95596(15)
C17_3 C 0.8595(7) 0.2451(7) 0.96977(18)
C18_3 C 0.8541(6) 0.1828(7) 0.9649(2)
H9_3 H 0.834847 0.162599 0.953338
C19_3 C 0.8772(8) 0.1518(7) 0.9772(2)
H10_3 H 0.875016 0.111923 0.973765
C20_3 C 0.9034(7) 0.1808(6) 0.99455(18)
C29_3 C 0.9110(6) 0.2450(6) 0.99922(16)
C30_3 C 0.8895(6) 0.2762(6) 0.98648(16)
H16_3 H 0.895554 0.318111 0.989283
O1_3 O 0.8490(4) 0.3422(5) 0.90741(12)
O2_3 O 0.8904(5) 0.4365(5) 0.92509(12)
O5_3 O 0.8008(4) 0.2435(5) 0.94215(12)
O6_3 O 0.8529(5) 0.3383(5) 0.95988(12)
O9_3 O 0.7397(5) 0.3358(6) 0.93340(11)
Zn5_3 Zn 0.72361(7) 0.49177(9) 0.92111(2)
Zn6_3 Zn 0.60352(7) 0.42901(10) 0.94610(2)
C31_3 C 0.5984(7) 0.4893(10) 0.91056(17)
C32_3 C 0.5624(6) 0.5082(8) 0.89662(17)
C33_3 C 0.4983(6) 0.4973(8) 0.90040(16)
H17_3 H 0.476873 0.475737 0.911612
C34_3 C 0.4670(7) 0.5171(10) 0.88809(19)
H18_3 H 0.425209 0.511080 0.890979
C35_3 C 0.4979(6) 0.5465(8) 0.87117(18)
C36_3 C 0.4785(6) 0.5744(9) 0.85505(19)
C37_3 C 0.4200(7) 0.5752(10) 0.8525(2)
H19_3 H 0.386418 0.557111 0.861543
C38_3 C 0.4120(7) 0.6047(10) 0.8353(2)
H20_3 H 0.372654 0.605155 0.833092
C39_3 C 0.4624(9) 0.6318(11) 0.8224(2)
C40_3 C 0.4507(14) 0.6641(17) 0.8056(2)
C41_3 C 0.5228(8) 0.6308(11) 0.82536(19)
H21_3 H 0.556894 0.648441 0.816354
C42_3 C 0.5293(7) 0.6027(9) 0.84207(17)
C43_3 C 0.5872(6) 0.5929(9) 0.84784(17)
H22_3 H 0.593350 0.564336 0.838914
H23_3 H 0.628493 0.635006 0.849003
C44_3 C 0.5625(6) 0.5593(8) 0.86706(15)
C45_3 C 0.5957(6) 0.5394(8) 0.88003(17)
H24_3 H 0.638365 0.546872 0.877520
C46_3 C 0.7219(6) 0.5585(8) 0.95596(15)
C47_3 C 0.7549(7) 0.6145(10) 0.96977(18)
C48_3 C 0.8172(7) 0.6714(9) 0.9649(2)
H25_3 H 0.837401 0.672249 0.953338
C49_3 C 0.8482(7) 0.7255(11) 0.9772(2)
H26_3 H 0.888077 0.763094 0.973765
C50_3 C 0.8192(6) 0.7227(9) 0.99455(18)
C59_3 C 0.7550(6) 0.6661(8) 0.99922(16)
C60_3 C 0.7238(6) 0.6134(8) 0.98648(16)
H32_3 H 0.681889 0.577444 0.989283
O10_3 O 0.6578(5) 0.5069(6) 0.90741(12)
O11_3 O 0.5635(5) 0.4540(7) 0.92509(12)
O12_3 O 0.5064(8) 0.7063(9) 0.79732(16)
O13_3 O 0.3994(8) 0.6535(10) 0.80053(16)
O14_3 O 0.7565(5) 0.5574(6) 0.94215(12)
O15_3 O 0.6617(5) 0.5147(7) 0.95988(12)
O18_3 O 0.6642(6) 0.4040(8) 0.93340(11)
Zn7_3 Zn 0.50823(9) 0.23185(6) 0.92111(2)
Zn8_3 Zn 0.57099(10) 0.17452(7) 0.94610(2)
C61_3 C 0.5107(10) 0.1092(7) 0.91056(17)
C62_3 C 0.4918(8) 0.0543(6) 0.89662(17)
C63_3 C 0.5027(8) 0.0011(6) 0.90040(16)
H33_3 H 0.524263 0.001137 0.911612
H38_3 H 0.435664 0.029015 0.838914
C74_3 C 0.4407(8) 0.0033(6) 0.86706(15)
C75_3 C 0.4606(8) 0.0564(6) 0.88003(17)
H40_3 H 0.453128 0.091494 0.877520
C76_3 C 0.4415(8) 0.1635(6) 0.95596(15)
C77_3 C 0.3855(10) 0.1405(7) 0.96977(18)
C78_3 C 0.3286(9) 0.1459(6) 0.9649(2)
H41_3 H 0.327751 0.165153 0.953338
C79_3 C 0.2745(11) 0.1228(8) 0.9772(2)
H42_3 H 0.236906 0.124984 0.973765
C80_3 C 0.2773(9) 0.0966(7) 0.99455(18)
C89_3 C 0.3339(8) 0.0890(6) 0.99922(16)
C90_3 C 0.3866(8) 0.1105(6) 0.98648(16)
H48_3 H 0.422556 0.104446 0.989283
O19_3 O 0.4931(6) 0.1510(4) 0.90741(12)
O20_3 O 0.5460(7) 0.1096(5) 0.92509(12)
O23_3 O 0.4426(6) 0.1992(4) 0.94215(12)
O24_3 O 0.4853(7) 0.1471(5) 0.95988(12)
O27_3 O 0.5960(8) 0.2603(5) 0.93340(11)
Zn13_3 Zn 0.49215(7) 0.76234(10) 0.77943(2)
O28_3 O 0.8398(8) 0.4668(5) 0.96398(16)
O29_3 O 0.5332(5) 0.3729(9) 0.96398(16)
O30_3 O 0.6271(9) 0.1602(8) 0.96398(16)
O31_3 O 0.7328(8) 0.4126(6) 0.96719(16)
O32_3 O 0.5874(6) 0.3201(10) 0.96719(16)
O33_3 O 0.6799(10) 0.2672(8) 0.96719(16)
O34_3 O 0.5949(8) 0.3398(7) 0.89945(16)
O35_3 O 0.6602(7) 0.2551(11) 0.89945(16)
O36_3 O 0.7449(11) 0.4051(8) 0.89945(16)
O37_3 O 0.4857(9) 0.2815(8) 0.90345(16)
O38_3 O 0.7185(8) 0.2042(12) 0.90345(16)
O39_3 O 0.7958(12) 0.5143(9) 0.90345(16)
C85_3 C 0.1201(19) 0.9876(11) 0.0616(2)
O26_3 O 0.1291(12) 0.9482(8) 0.07012(16)
Zn9_3 Zn 0.05695(7) 0.89851(6) 0.08777(2)
C64_3 C 0.4829(10) 0.9500(7) 0.88809(19)
H34_3 H 0.488920 0.914130 0.890979
C65_3 C 0.4535(8) 0.9515(6) 0.87117(18)
C66_3 C 0.4256(9) 0.9042(7) 0.85505(19)
C67_3 C 0.4248(10) 0.8449(7) 0.8525(2)
H35_3 H 0.442889 0.829308 0.861543
C68_3 C 0.3953(10) 0.8074(7) 0.8353(2)
H36_3 H 0.394845 0.767500 0.833092
C69_3 C 0.3682(11) 0.8307(7) 0.8224(2)
C70_3 C 0.3359(17) 0.7867(10) 0.8056(2)
C71_3 C 0.3692(11) 0.8921(7) 0.82536(19)
H37_3 H 0.351559 0.908454 0.816354
C72_3 C 0.3973(9) 0.9267(6) 0.84207(17)
C73_3 C 0.4071(9) 0.9944(7) 0.84784(17)
H39_3 H 0.364994 0.993488 0.849003
O21_3 O 0.2937(9) 0.8002(5) 0.79732(16)
O22_3 O 0.3465(10) 0.7460(6) 0.80053(16)
Zn14_3 Zn 0.23766(10) 0.72981(7) 0.77943(2)
C78_4 C 0.5208(6) 0.0047(9) 0.7982(2)
H41_4 H 0.501514 0.005582 0.786671
C79_4 C 0.5439(8) 0.0588(11) 0.8105(2)
H42_4 H 0.541683 0.096427 0.807098
C80_4 C 0.5701(7) 0.0560(9) 0.82788(18)
C81_4 C 0.5955(6) 0.1012(8) 0.84392(18)
C82_4 C 0.5955(7) 0.1625(10) 0.8461(2)
H43_4 H 0.579609 0.179053 0.836617
C83_4 C 0.6209(8) 0.1965(11) 0.8634(2)
H44_4 H 0.619813 0.235362 0.865802
C84_4 C 0.6475(7) 0.1725(11) 0.87692(18)
C85_4 C 0.6791(11) 0.2132(19) 0.8949(2)
C86_4 C 0.6460(7) 0.1119(11) 0.87456(18)
H45_4 H 0.663058 0.096161 0.883924
C87_4 C 0.6186(5) 0.0756(8) 0.85792(16)
C88_4 C 0.6097(6) 0.0087(8) 0.85253(16)
H46_4 H 0.652041 0.009749 0.851895
C1_4 C 0.2651(7) 0.4425(7) 0.74389(17)
C2_4 C 0.2291(6) 0.3876(6) 0.72995(17)
C3_4 C 0.1650(6) 0.3344(6) 0.73373(16)
H1_4 H 0.143540 0.334470 0.744945
C4_4 C 0.1337(7) 0.2833(7) 0.72142(19)
H2_4 H 0.091876 0.247463 0.724312
C5_4 C 0.1646(6) 0.2848(6) 0.70450(18)
C6_4 C 0.1452(6) 0.2375(7) 0.68838(19)
C7_4 C 0.0867(7) 0.1782(7) 0.6858(2)
H3_4 H 0.053085 0.162641 0.694876
C8_4 C 0.0787(7) 0.1407(7) 0.6686(2)
H4_4 H 0.039321 0.100833 0.666425
C9_4 C 0.1291(9) 0.1640(7) 0.6557(2)
C10_4 C 0.1174(14) 0.1200(10) 0.6389(2)
C11_4 C 0.1895(8) 0.2254(7) 0.65869(19)
H5_4 H 0.223561 0.241787 0.649687
C12_4 C 0.1960(7) 0.2600(6) 0.67540(17)
C13_4 C 0.2539(6) 0.3277(7) 0.68117(17)
H6_4 H 0.260017 0.362348 0.672247
H7_4 H 0.295160 0.326821 0.682336
C14_4 C 0.2292(6) 0.3366(6) 0.70039(15)
C15_4 C 0.2624(6) 0.3897(6) 0.71336(17)
H8_4 H 0.305032 0.424827 0.710853
C16_4 C 0.3886(6) 0.4968(6) 0.78929(15)
C17_4 C 0.4216(7) 0.4738(7) 0.80310(18)
C18_4 C 0.4839(7) 0.4792(6) 0.7982(2)
H9_4 H 0.504068 0.498486 0.786671
C19_4 C 0.5149(7) 0.4561(8) 0.8105(2)
H10_4 H 0.554744 0.458317 0.807098
C20_4 C 0.4859(6) 0.4299(7) 0.82788(18)
C21_4 C 0.5057(6) 0.4045(6) 0.84392(18)
C22_4 C 0.5670(7) 0.4045(7) 0.8461(2)
H11_4 H 0.599444 0.420391 0.836617
C23_4 C 0.5756(8) 0.3791(8) 0.8634(2)
H12_4 H 0.615549 0.380187 0.865802
C24_4 C 0.5250(8) 0.3525(7) 0.87692(18)
C25_4 C 0.5341(15) 0.3209(11) 0.8949(2)
C26_4 C 0.4659(8) 0.3540(7) 0.87456(18)
H13_4 H 0.433103 0.336942 0.883924
C27_4 C 0.4570(6) 0.3814(5) 0.85792(16)
C28_4 C 0.3990(6) 0.3903(6) 0.85253(16)
H14_4 H 0.357708 0.347959 0.851895
H15_4 H 0.393826 0.419750 0.861308
C29_4 C 0.4217(6) 0.4223(6) 0.83255(16)
C30_4 C 0.3905(6) 0.4438(6) 0.81981(16)
H16_4 H 0.348556 0.437779 0.822616
O1_4 O 0.3245(5) 0.4843(4) 0.74074(12)
O2_4 O 0.2302(5) 0.4429(5) 0.75842(12)
O5_4 O 0.4232(5) 0.5325(4) 0.77548(12)
O6_4 O 0.3284(5) 0.4804(5) 0.79321(12)
O9_4 O 0.3309(6) 0.5936(5) 0.76673(11)
C31_4 C 0.1774(10) 0.7349(7) 0.74389(17)
C32_4 C 0.1585(8) 0.7709(6) 0.72995(17)
C33_4 C 0.1694(8) 0.8350(6) 0.73373(16)
H17_4 H 0.190930 0.856460 0.744945
C34_4 C 0.1496(10) 0.8663(7) 0.72142(19)
H18_4 H 0.155587 0.908124 0.724312
C35_4 C 0.1202(8) 0.8354(6) 0.70450(18)
C36_4 C 0.0923(9) 0.8548(6) 0.68838(19)
C37_4 C 0.0915(10) 0.9133(7) 0.6858(2)
H19_4 H 0.109556 0.946915 0.694876
C38_4 C 0.0620(10) 0.9213(7) 0.6686(2)
H20_4 H 0.061512 0.960679 0.666425
C39_4 C 0.0349(11) 0.8709(9) 0.6557(2)
C40_4 C 0.0026(17) 0.8826(14) 0.6389(2)
C41_4 C 0.0359(11) 0.8105(8) 0.65869(19)
H21_4 H 0.018226 0.776439 0.649687
C42_4 C 0.0640(9) 0.8040(7) 0.67540(17)
C43_4 C 0.0738(9) 0.7461(6) 0.68117(17)
H22_4 H 0.102331 0.739983 0.672247
H23_4 H 0.031661 0.704840 0.682336
C44_4 C 0.1074(8) 0.7708(6) 0.70039(15)
C45_4 C 0.1273(8) 0.7376(6) 0.71336(17)
H24_4 H 0.119795 0.694968 0.710853
C46_4 C 0.1082(8) 0.6114(6) 0.78929(15)
C47_4 C 0.0522(10) 0.5784(7) 0.80310(18)
H31_4 H 0.025924 0.606174 0.861308
C59_4 C 0.0006(8) 0.5783(6) 0.83255(16)
C60_4 C 0.0533(8) 0.6095(6) 0.81981(16)
H32_4 H 0.089223 0.651444 0.822616
O10_4 O 0.1598(6) 0.6755(5) 0.74074(12)
O11_4 O 0.2127(7) 0.7698(5) 0.75842(12)
O14_4 O 0.1093(6) 0.5768(5) 0.77548(12)
O15_4 O 0.1520(7) 0.6716(5) 0.79321(12)
O18_4 O 0.2627(8) 0.6691(6) 0.76673(11)
C61_4 C 0.5575(7) 0.8226(10) 0.74389(17)
C62_4 C 0.6124(6) 0.8415(8) 0.72995(17)
C63_4 C 0.6656(6) 0.8306(8) 0.73373(16)
H33_4 H 0.665530 0.809070 0.744945
C64_4 C 0.7167(7) 0.8504(10) 0.72142(19)
H34_4 H 0.752537 0.844413 0.724312
C65_4 C 0.7152(6) 0.8798(8) 0.70450(18)
C66_4 C 0.7625(7) 0.9077(9) 0.68838(19)
C67_4 C 0.8218(7) 0.9085(10) 0.6858(2)
H35_4 H 0.837359 0.890444 0.694876
C68_4 C 0.8593(7) 0.9380(10) 0.6686(2)
H36_4 H 0.899167 0.938488 0.666425
C69_4 C 0.8360(7) 0.9651(11) 0.6557(2)
C70_4 C 0.8800(10) 0.9974(17) 0.6389(2)
C71_4 C 0.7746(7) 0.9641(11) 0.65869(19)
H37_4 H 0.758213 0.981774 0.649687
C72_4 C 0.7400(6) 0.9360(9) 0.67540(17)
C73_4 C 0.6723(7) 0.9262(9) 0.68117(17)
H38_4 H 0.637652 0.897669 0.672247
H39_4 H 0.673179 0.968339 0.682336
C74_4 C 0.6634(6) 0.8926(8) 0.70039(15)
C75_4 C 0.6103(6) 0.8727(8) 0.71336(17)
H40_4 H 0.575173 0.880205 0.710853
C76_4 C 0.5032(6) 0.8918(8) 0.78929(15)
C77_4 C 0.5262(7) 0.9478(10) 0.80310(18)
H47_4 H 0.580250 0.974076 0.861308
C89_4 C 0.5777(6) 0.9994(8) 0.83255(16)
C90_4 C 0.5562(6) 0.9467(8) 0.81981(16)
H48_4 H 0.562221 0.910777 0.822616
O19_4 O 0.5157(4) 0.8402(6) 0.74074(12)
O20_4 O 0.5571(5) 0.7873(7) 0.75842(12)
O23_4 O 0.4675(4) 0.8907(6) 0.77548(12)
O24_4 O 0.5196(5) 0.8480(7) 0.79321(12)
O27_4 O 0.4064(5) 0.7373(8) 0.76673(11)
C48_4 C 0.9953(9) 0.5161(7) 0.7982(2)
H25_4 H 0.994418 0.495932 0.786671
C49_4 C 0.9412(11) 0.4851(7) 0.8105(2)
H26_4 H 0.903573 0.445256 0.807098
C50_4 C 0.9440(9) 0.5141(6) 0.82788(18)
C51_4 C 0.8988(8) 0.4943(6) 0.84392(18)
C52_4 C 0.8375(10) 0.4330(7) 0.8461(2)
H27_4 H 0.820947 0.400556 0.836617
C53_4 C 0.8035(11) 0.4244(8) 0.8634(2)
H28_4 H 0.764638 0.384451 0.865802
C54_4 C 0.8275(11) 0.4750(8) 0.87692(18)
C55_4 C 0.7868(19) 0.4659(15) 0.8949(2)
C56_4 C 0.8881(11) 0.5341(8) 0.87456(18)
H29_4 H 0.903839 0.566897 0.883924
C57_4 C 0.9244(8) 0.5430(6) 0.85792(16)
C58_4 C 0.9913(8) 0.6010(6) 0.85253(16)
H30_4 H 0.990251 0.642292 0.851895
C64_5 C 0.0500(7) 0.5171(10) 0.38809(19)
H34_5 H 0.085870 0.511080 0.390979
C65_5 C 0.0485(6) 0.5465(8) 0.37117(18)
C66_5 C 0.0958(7) 0.5744(9) 0.35505(19)
C67_5 C 0.1551(7) 0.5752(10) 0.3525(2)
H35_5 H 0.170692 0.557111 0.361543
C68_5 C 0.1926(7) 0.6047(10) 0.3353(2)
H36_5 H 0.232500 0.605155 0.333092
C69_5 C 0.1693(7) 0.6318(11) 0.3224(2)
C70_5 C 0.2133(10) 0.6641(17) 0.3056(2)
C71_5 C 0.1079(7) 0.6308(11) 0.32536(19)
H37_5 H 0.091546 0.648441 0.316354
C72_5 C 0.0733(6) 0.6027(9) 0.34207(17)
C73_5 C 0.0056(7) 0.5929(9) 0.34784(17)
H39_5 H 0.006512 0.635006 0.349003
C85_5 C 0.0124(11) 0.8799(19) 0.5616(2)
C1_5 C 0.5984(7) 0.1092(7) 0.41056(17)
C2_5 C 0.5624(6) 0.0543(6) 0.39662(17)
C3_5 C 0.4983(6) 0.0011(6) 0.40040(16)
H1_5 H 0.476873 0.001137 0.411612
H6_5 H 0.593350 0.029015 0.338914
C14_5 C 0.5625(6) 0.0033(6) 0.36706(15)
C15_5 C 0.5957(6) 0.0564(6) 0.38003(17)
H8_5 H 0.638365 0.091494 0.377520
C16_5 C 0.7219(6) 0.1635(6) 0.45596(15)
C17_5 C 0.7549(7) 0.1405(7) 0.46977(18)
C18_5 C 0.8172(7) 0.1459(6) 0.4649(2)
H9_5 H 0.837401 0.165153 0.453338
C19_5 C 0.8482(7) 0.1228(8) 0.4772(2)
H10_5 H 0.888077 0.124984 0.473765
C20_5 C 0.8192(6) 0.0966(7) 0.49455(18)
C21_5 C 0.8390(6) 0.0712(6) 0.51059(18)
C22_5 C 0.9003(7) 0.0712(7) 0.5128(2)
H11_5 H 0.932777 0.087058 0.503284
C23_5 C 0.9089(8) 0.0458(8) 0.5301(2)
H12_5 H 0.948882 0.046854 0.532469
C24_5 C 0.8583(8) 0.0192(7) 0.54359(18)
C26_5 C 0.7992(8) 0.0207(7) 0.54123(18)
H13_5 H 0.766436 0.003609 0.550591
C27_5 C 0.7903(6) 0.0481(5) 0.52459(16)
C28_5 C 0.7323(6) 0.0570(6) 0.51920(16)
H14_5 H 0.691041 0.014626 0.518562
H15_5 H 0.727159 0.086417 0.527975
C29_5 C 0.7550(6) 0.0890(6) 0.49922(16)
C30_5 C 0.7238(6) 0.1105(6) 0.48648(16)
H16_5 H 0.681889 0.104446 0.489283
O1_5 O 0.6578(5) 0.1510(4) 0.40741(12)
O2_5 O 0.5635(5) 0.1096(5) 0.42509(12)
O5_5 O 0.7565(5) 0.1992(4) 0.44215(12)
O6_5 O 0.6617(5) 0.1471(5) 0.45988(12)
O9_5 O 0.6642(6) 0.2603(5) 0.43340(11)
C31_5 C 0.5107(10) 0.4016(7) 0.41056(17)
C32_5 C 0.4918(8) 0.4376(6) 0.39662(17)
C33_5 C 0.5027(8) 0.5017(6) 0.40040(16)
H17_5 H 0.524263 0.523127 0.411612
C34_5 C 0.4829(10) 0.5330(7) 0.38809(19)
H18_5 H 0.488920 0.574791 0.390979
C35_5 C 0.4535(8) 0.5021(6) 0.37117(18)
C36_5 C 0.4256(9) 0.5215(6) 0.35505(19)
C37_5 C 0.4248(10) 0.5800(7) 0.3525(2)
H19_5 H 0.442889 0.613582 0.361543
C38_5 C 0.3953(10) 0.5880(7) 0.3353(2)
H20_5 H 0.394845 0.627346 0.333092
C39_5 C 0.3682(11) 0.5376(9) 0.3224(2)
C40_5 C 0.3359(17) 0.5493(14) 0.3056(2)
C41_5 C 0.3692(11) 0.4772(8) 0.32536(19)
H21_5 H 0.351559 0.443106 0.316354
C42_5 C 0.3973(9) 0.4707(7) 0.34207(17)
C43_5 C 0.4071(9) 0.4128(6) 0.34784(17)
H22_5 H 0.435664 0.406650 0.338914
H23_5 H 0.364994 0.371507 0.349003
C44_5 C 0.4407(8) 0.4375(6) 0.36706(15)
C45_5 C 0.4606(8) 0.4043(6) 0.38003(17)
H24_5 H 0.453128 0.361635 0.377520
C46_5 C 0.4415(8) 0.2781(6) 0.45596(15)
C47_5 C 0.3855(10) 0.2451(7) 0.46977(18)
C48_5 C 0.3286(9) 0.1828(7) 0.4649(2)
H25_5 H 0.327751 0.162599 0.453338
C49_5 C 0.2745(11) 0.1518(7) 0.4772(2)
H26_5 H 0.236906 0.111923 0.473765
C50_5 C 0.2773(9) 0.1808(6) 0.49455(18)
C51_5 C 0.2321(8) 0.1610(6) 0.51059(18)
C52_5 C 0.1708(10) 0.0997(7) 0.5128(2)
H27_5 H 0.154280 0.067223 0.503284
C53_5 C 0.1368(11) 0.0911(8) 0.5301(2)
H28_5 H 0.097971 0.051118 0.532469
C54_5 C 0.1608(11) 0.1417(8) 0.54359(18)
C55_5 C 0.1201(19) 0.1326(15) 0.5616(2)
C56_5 C 0.2214(11) 0.2008(8) 0.54123(18)
H29_5 H 0.237172 0.233564 0.550591
C57_5 C 0.2577(8) 0.2097(6) 0.52459(16)
C58_5 C 0.3246(8) 0.2677(6) 0.51920(16)
H30_5 H 0.323584 0.308959 0.518562
H31_5 H 0.359257 0.272841 0.527975
C59_5 C 0.3339(8) 0.2450(6) 0.49922(16)
C60_5 C 0.3866(8) 0.2762(6) 0.48648(16)
H32_5 H 0.422556 0.318111 0.489283
O10_5 O 0.4931(6) 0.3422(5) 0.40741(12)
O11_5 O 0.5460(7) 0.4365(5) 0.42509(12)
O14_5 O 0.4426(6) 0.2435(5) 0.44215(12)
O15_5 O 0.4853(7) 0.3383(5) 0.45988(12)
O18_5 O 0.5960(8) 0.3358(6) 0.43340(11)
C61_5 C 0.8908(7) 0.4893(10) 0.41056(17)
C62_5 C 0.9457(6) 0.5082(8) 0.39662(17)
C63_5 C 0.9989(6) 0.4973(8) 0.40040(16)
H33_5 H 0.998863 0.475737 0.411612
H38_5 H 0.970985 0.564336 0.338914
C74_5 C 0.9967(6) 0.5593(8) 0.36706(15)
C75_5 C 0.9436(6) 0.5394(8) 0.38003(17)
H40_5 H 0.908506 0.546872 0.377520
C76_5 C 0.8365(6) 0.5585(8) 0.45596(15)
C77_5 C 0.8595(7) 0.6145(10) 0.46977(18)
C78_5 C 0.8541(6) 0.6714(9) 0.4649(2)
H41_5 H 0.834847 0.672249 0.453338
C79_5 C 0.8772(8) 0.7255(11) 0.4772(2)
H42_5 H 0.875016 0.763094 0.473765
C80_5 C 0.9034(7) 0.7227(9) 0.49455(18)
C81_5 C 0.9288(6) 0.7679(8) 0.51059(18)
C82_5 C 0.9288(7) 0.8292(10) 0.5128(2)
H43_5 H 0.912942 0.845720 0.503284
C83_5 C 0.9542(8) 0.8632(11) 0.5301(2)
H44_5 H 0.953146 0.902029 0.532469
C84_5 C 0.9808(7) 0.8392(11) 0.54359(18)
C86_5 C 0.9793(7) 0.7786(11) 0.54123(18)
H45_5 H 0.996391 0.762828 0.550591
C87_5 C 0.9519(5) 0.7423(8) 0.52459(16)
C88_5 C 0.9430(6) 0.6754(8) 0.51920(16)
H46_5 H 0.985374 0.676416 0.518562
H47_5 H 0.913583 0.640743 0.527975
C89_5 C 0.9110(6) 0.6661(8) 0.49922(16)
C90_5 C 0.8895(6) 0.6134(8) 0.48648(16)
H48_5 H 0.895554 0.577444 0.489283
O19_5 O 0.8490(4) 0.5069(6) 0.40741(12)
O20_5 O 0.8904(5) 0.4540(7) 0.42509(12)
O23_5 O 0.8008(4) 0.5574(6) 0.44215(12)
O24_5 O 0.8529(5) 0.5147(7) 0.45988(12)
O27_5 O 0.7397(5) 0.4040(8) 0.43340(11)
C4_5 C 0.4670(7) 0.9500(7) 0.38809(19)
H2_5 H 0.425209 0.914130 0.390979
C5_5 C 0.4979(6) 0.9515(6) 0.37117(18)
C6_5 C 0.4785(6) 0.9042(7) 0.35505(19)
C7_5 C 0.4200(7) 0.8449(7) 0.3525(2)
H3_5 H 0.386418 0.829308 0.361543
C8_5 C 0.4120(7) 0.8074(7) 0.3353(2)
H4_5 H 0.372654 0.767500 0.333092
C9_5 C 0.4624(9) 0.8307(7) 0.3224(2)
C10_5 C 0.4507(14) 0.7867(10) 0.3056(2)
C11_5 C 0.5228(8) 0.8921(7) 0.32536(19)
H5_5 H 0.556894 0.908454 0.316354
C12_5 C 0.5293(7) 0.9267(6) 0.34207(17)
C13_5 C 0.5872(6) 0.9944(7) 0.34784(17)
H7_5 H 0.628493 0.993488 0.349003
C25_5 C 0.8674(15) 0.9876(11) 0.5616(2)
C61_6 C 0.2242(7) 0.1559(10) 0.07722(17)
C62_6 C 0.2791(6) 0.1748(8) 0.06328(17)
C63_6 C 0.3323(6) 0.1639(8) 0.06706(16)
H33_6 H 0.332197 0.142403 0.078278
C64_6 C 0.3834(7) 0.1837(10) 0.05475(19)
H34_6 H 0.419204 0.177746 0.057645
C65_6 C 0.3819(6) 0.2131(8) 0.03783(18)
C66_6 C 0.4292(7) 0.2410(9) 0.02171(19)
C67_6 C 0.4885(7) 0.2418(10) 0.0191(2)
H35_6 H 0.504026 0.223777 0.028209
C68_6 C 0.5260(7) 0.2713(10) 0.0019(2)
C72_6 C 0.4067(6) 0.2693(9) 0.00873(17)
C73_6 C 0.3390(7) 0.2595(9) 0.01450(17)
H38_6 H 0.304319 0.231002 0.005580
H39_6 H 0.339846 0.301672 0.015669
C74_6 C 0.3301(6) 0.2259(8) 0.03372(15)
C75_6 C 0.2770(6) 0.2060(8) 0.04669(17)
H40_6 H 0.241840 0.213538 0.044186
C76_6 C 0.1699(6) 0.2251(8) 0.12262(15)
C77_6 C 0.1929(7) 0.2811(10) 0.13643(18)
C78_6 C 0.1875(6) 0.3380(9) 0.1315(2)
H41_6 H 0.168181 0.338915 0.120004
C79_6 C 0.2106(8) 0.3921(11) 0.1438(2)
H42_6 H 0.208350 0.429760 0.140431
C80_6 C 0.2368(7) 0.3893(9) 0.16121(18)
C81_6 C 0.2622(6) 0.4345(8) 0.17725(18)
C82_6 C 0.2622(7) 0.4958(10) 0.1794(2)
H43_6 H 0.246276 0.512386 0.169950
C83_6 C 0.2876(8) 0.5298(11) 0.1967(2)
H44_6 H 0.286480 0.568695 0.199135
C84_6 C 0.3142(7) 0.5058(11) 0.21025(18)
C85_6 C 0.3458(11) 0.5465(19) 0.2282(2)
C86_6 C 0.3127(7) 0.4452(11) 0.20789(18)
H45_6 H 0.329725 0.429494 0.217257
C87_6 C 0.2853(5) 0.4089(8) 0.19125(16)
C88_6 C 0.2764(6) 0.3420(8) 0.18586(16)
H46_6 H 0.318708 0.343082 0.185228
H47_6 H 0.246917 0.307409 0.194641
C89_6 C 0.2444(6) 0.3327(8) 0.16588(16)
C90_6 C 0.2229(6) 0.2800(8) 0.15314(16)
H48_6 H 0.228888 0.244110 0.155949
O19_6 O 0.1824(4) 0.1735(6) 0.07407(12)
O20_6 O 0.2238(5) 0.1206(7) 0.09175(12)
O23_6 O 0.1342(4) 0.2240(6) 0.10881(12)
O24_6 O 0.1863(5) 0.1813(7) 0.12654(12)
O27_6 O 0.0731(5) 0.0706(8) 0.10006(11)
H36_6 H 0.565834 0.271821 0.999758
C69_6 C 0.5027(7) 0.2984(11) 0.9890(2)
C70_6 C 0.5467(10) 0.3307(17) 0.9722(2)
C71_6 C 0.4413(7) 0.2974(11) 0.99202(19)
H37_6 H 0.424880 0.315107 0.983020
C16_6 C 0.0553(6) 0.8301(6) 0.12262(15)
C17_6 C 0.0883(7) 0.8071(7) 0.13643(18)
C18_6 C 0.1506(7) 0.8125(6) 0.1315(2)
H9_6 H 0.170735 0.831819 0.120004
C19_6 C 0.1816(7) 0.7894(8) 0.1438(2)
H10_6 H 0.221411 0.791650 0.140431
C20_6 C 0.1526(6) 0.7632(7) 0.16121(18)
C21_6 C 0.1724(6) 0.7378(6) 0.17725(18)
C22_6 C 0.2337(7) 0.7378(7) 0.1794(2)
H11_6 H 0.266111 0.753724 0.169950
C23_6 C 0.2423(8) 0.7124(8) 0.1967(2)
H12_6 H 0.282216 0.713520 0.199135
C24_6 C 0.1917(8) 0.6858(7) 0.21025(18)
C25_6 C 0.2008(15) 0.6542(11) 0.2282(2)
C26_6 C 0.1326(8) 0.6873(7) 0.20789(18)
H13_6 H 0.099770 0.670275 0.217257
C27_6 C 0.1237(6) 0.7147(5) 0.19125(16)
C28_6 C 0.0657(6) 0.7236(6) 0.18586(16)
H14_6 H 0.024375 0.681292 0.185228
H15_6 H 0.060493 0.753083 0.194641
C29_6 C 0.0884(6) 0.7556(6) 0.16588(16)
C30_6 C 0.0572(6) 0.7771(6) 0.15314(16)
H16_6 H 0.015223 0.771112 0.155949
O5_6 O 0.0899(5) 0.8658(4) 0.10881(12)
C31_6 C 0.8441(10) 0.0682(7) 0.07722(17)
C32_6 C 0.8252(8) 0.1042(6) 0.06328(17)
C33_6 C 0.8361(8) 0.1683(6) 0.06706(16)
H17_6 H 0.857597 0.189793 0.078278
C34_6 C 0.8163(10) 0.1996(7) 0.05475(19)
H18_6 H 0.822254 0.241457 0.057645
C35_6 C 0.7869(8) 0.1687(6) 0.03783(18)
C36_6 C 0.7590(9) 0.1881(6) 0.02171(19)
C37_6 C 0.7582(10) 0.2466(7) 0.0191(2)
H19_6 H 0.776223 0.280248 0.028209
C38_6 C 0.7287(10) 0.2546(7) 0.0019(2)
C42_6 C 0.7307(9) 0.1373(7) 0.00873(17)
C43_6 C 0.7405(9) 0.0794(6) 0.01450(17)
H22_6 H 0.768998 0.073316 0.005580
H23_6 H 0.698328 0.038173 0.015669
C44_6 C 0.7741(8) 0.1041(6) 0.03372(15)
C45_6 C 0.7940(8) 0.0709(6) 0.04669(17)
H24_6 H 0.786462 0.028301 0.044186
O10_6 O 0.8265(6) 0.0088(5) 0.07407(12)
O11_6 O 0.8794(7) 0.1031(5) 0.09175(12)
O15_6 O 0.8187(7) 0.0049(5) 0.12654(12)
O18_6 O 0.9294(8) 0.0024(6) 0.10006(11)
H20_6 H 0.728179 0.294012 0.999758
C39_6 C 0.7016(11) 0.2042(9) 0.9890(2)
C40_6 C 0.6693(17) 0.2159(14) 0.9722(2)
C41_6 C 0.7026(11) 0.1438(8) 0.99202(19)
H21_6 H 0.684893 0.109772 0.983020
C1_6 C 0.9318(7) 0.7758(7) 0.07722(17)
C2_6 C 0.8958(6) 0.7209(6) 0.06328(17)
C3_6 C 0.8317(6) 0.6677(6) 0.06706(16)
H1_6 H 0.810207 0.667803 0.078278
C4_6 C 0.8004(7) 0.6166(7) 0.05475(19)
H2_6 H 0.758543 0.580796 0.057645
C5_6 C 0.8313(6) 0.6181(6) 0.03783(18)
C6_6 C 0.8119(6) 0.5708(7) 0.02171(19)
C7_6 C 0.7534(7) 0.5115(7) 0.0191(2)
H3_6 H 0.719752 0.495974 0.028209
C8_6 C 0.7454(7) 0.4740(7) 0.0019(2)
C12_6 C 0.8627(7) 0.5933(6) 0.00873(17)
C13_6 C 0.9206(6) 0.6610(7) 0.01450(17)
H6_6 H 0.926684 0.695681 0.005580
H7_6 H 0.961827 0.660154 0.015669
C14_6 C 0.8959(6) 0.6699(6) 0.03372(15)
C15_6 C 0.9291(6) 0.7230(6) 0.04669(17)
H8_6 H 0.971699 0.758160 0.044186
O1_6 O 0.9912(5) 0.8176(4) 0.07407(12)
O2_6 O 0.8969(5) 0.7762(5) 0.09175(12)
O6_6 O 0.9951(5) 0.8137(5) 0.12654(12)
O9_6 O 0.9976(6) 0.9269(5) 0.10006(11)
C46_6 C 0.7749(8) 0.9447(6) 0.12262(15)
C47_6 C 0.7189(10) 0.9117(7) 0.13643(18)
C48_6 C 0.6620(9) 0.8494(7) 0.1315(2)
H25_6 H 0.661085 0.829265 0.120004
C49_6 C 0.6079(11) 0.8184(7) 0.1438(2)
H26_6 H 0.570240 0.778589 0.140431
C50_6 C 0.6107(9) 0.8474(6) 0.16121(18)
C51_6 C 0.5655(8) 0.8276(6) 0.17725(18)
C52_6 C 0.5042(10) 0.7663(7) 0.1794(2)
H27_6 H 0.487614 0.733889 0.169950
C53_6 C 0.4702(11) 0.7577(8) 0.1967(2)
H28_6 H 0.431305 0.717784 0.199135
C54_6 C 0.4942(11) 0.8083(8) 0.21025(18)
C55_6 C 0.4535(19) 0.7992(15) 0.2282(2)
C56_6 C 0.5548(11) 0.8674(8) 0.20789(18)
H29_6 H 0.570506 0.900230 0.217257
C57_6 C 0.5911(8) 0.8763(6) 0.19125(16)
C58_6 C 0.6580(8) 0.9343(6) 0.18586(16)
H30_6 H 0.656918 0.975625 0.185228
H31_6 H 0.692591 0.939507 0.194641
C59_6 C 0.6673(8) 0.9116(6) 0.16588(16)
C60_6 C 0.7200(8) 0.9428(6) 0.15314(16)
H32_6 H 0.755890 0.984777 0.155949
O14_6 O 0.7760(6) 0.9101(5) 0.10881(12)
H4_6 H 0.705988 0.434166 0.999758
C9_6 C 0.7958(9) 0.4973(7) 0.9890(2)
C10_6 C 0.7841(14) 0.4533(10) 0.9722(2)
C11_6 C 0.8562(8) 0.5587(7) 0.99202(19)
H5_6 H 0.890228 0.575120 0.983020
Zn20_7 Zn 0.000000 -0.000000 0.38310(6)
C48_7 C 0.0047(9) 0.4839(7) 0.2018(2)
H25_7 H 0.005582 0.504068 0.213329
C49_7 C 0.0588(11) 0.5149(7) 0.1895(2)
H26_7 H 0.096427 0.554744 0.192902
C50_7 C 0.0560(9) 0.4859(6) 0.17212(18)
C51_7 C 0.1012(8) 0.5057(6) 0.15608(18)
C52_7 C 0.1625(10) 0.5670(7) 0.1539(2)
H27_7 H 0.179053 0.599444 0.163383
C53_7 C 0.1965(11) 0.5756(8) 0.1366(2)
H28_7 H 0.235362 0.615549 0.134198
C54_7 C 0.1725(11) 0.5250(8) 0.12308(18)
C55_7 C 0.2132(19) 0.5341(15) 0.1051(2)
C56_7 C 0.1119(11) 0.4659(8) 0.12544(18)
H29_7 H 0.096161 0.433103 0.116076
C57_7 C 0.0756(8) 0.4570(6) 0.14208(16)
C58_7 C 0.0087(8) 0.3990(6) 0.14747(16)
H30_7 H 0.009749 0.357708 0.148105
O12_4 O 0.0396(9) 0.1731(8) 0.36935(16)
O16_4 O 0.2551(11) 0.5949(8) 0.10055(16)
O17_4 O 0.2042(12) 0.4857(9) 0.09655(16)
Zn11_4 Zn 0.27639(7) 0.50823(9) 0.07889(2)
Zn13_4 Zn 0.09567(10) 0.15882(7) 0.38724(2)
Zn17_7 Zn 0.333334 0.666666 0.08395(6)
Zn20_8 Zn 0.000000 1.000000 0.38310(6)
Zn20_9 Zn 1.000000 -0.000000 0.38310(6)
Zn1_4 Zn 0.60972(7) 0.43482(6) 0.24556(2)
Zn2_4 Zn 0.72981(7) 0.49215(7) 0.22057(2)
Zn3_7 Zn 0.666667 0.333333 0.25062(6)
Zn4_7 Zn 0.666667 0.333333 0.21643(6)
C1_7 C 0.7349(7) 0.5575(7) 0.25611(17)
C2_7 C 0.7709(6) 0.6124(6) 0.27005(17)
C3_7 C 0.8350(6) 0.6656(6) 0.26627(16)
H1_7 H 0.856460 0.665530 0.255055
C4_7 C 0.8663(7) 0.7167(7) 0.27858(19)
H2_7 H 0.908124 0.752537 0.275688
C5_7 C 0.8354(6) 0.7152(6) 0.29550(18)
C6_7 C 0.8548(6) 0.7625(7) 0.31162(19)
C7_7 C 0.9133(7) 0.8218(7) 0.3142(2)
H3_7 H 0.946915 0.837359 0.305124
C8_7 C 0.9213(7) 0.8593(7) 0.3314(2)
H4_7 H 0.960679 0.899167 0.333575
C9_7 C 0.8709(9) 0.8360(7) 0.3443(2)
C10_7 C 0.8826(14) 0.8800(10) 0.3611(2)
C11_7 C 0.8105(8) 0.7746(7) 0.34131(19)
H5_7 H 0.776439 0.758213 0.350313
C12_7 C 0.8040(7) 0.7400(6) 0.32460(17)
C13_7 C 0.7461(6) 0.6723(7) 0.31883(17)
H6_7 H 0.739983 0.637652 0.327753
H7_7 H 0.704840 0.673179 0.317664
C14_7 C 0.7708(6) 0.6634(6) 0.29961(15)
C15_7 C 0.7376(6) 0.6103(6) 0.28664(17)
H8_7 H 0.694968 0.575173 0.289147
C16_7 C 0.6114(6) 0.5032(6) 0.21071(15)
C17_7 C 0.5784(7) 0.5262(7) 0.19690(18)
C18_7 C 0.5161(7) 0.5208(6) 0.2018(2)
H9_7 H 0.495932 0.501514 0.213329
C19_7 C 0.4851(7) 0.5439(8) 0.1895(2)
H10_7 H 0.445256 0.541683 0.192902
C20_7 C 0.5141(6) 0.5701(7) 0.17212(18)
C21_7 C 0.4943(6) 0.5955(6) 0.15608(18)
C22_7 C 0.4330(7) 0.5955(7) 0.1539(2)
H11_7 H 0.400556 0.579609 0.163383
C23_7 C 0.4244(8) 0.6209(8) 0.1366(2)
H12_7 H 0.384451 0.619813 0.134198
C24_7 C 0.4750(8) 0.6475(7) 0.12308(18)
C25_7 C 0.4659(15) 0.6791(11) 0.1051(2)
C26_7 C 0.5341(8) 0.6460(7) 0.12544(18)
H13_7 H 0.566897 0.663058 0.116076
C27_7 C 0.5430(6) 0.6186(5) 0.14208(16)
C28_7 C 0.6010(6) 0.6097(6) 0.14747(16)
H14_7 H 0.642292 0.652041 0.148105
H15_7 H 0.606174 0.580250 0.138692
C29_7 C 0.5783(6) 0.5777(6) 0.16745(16)
C30_7 C 0.6095(6) 0.5562(6) 0.18019(16)
H16_7 H 0.651444 0.562221 0.177384
O1_7 O 0.6755(5) 0.5157(4) 0.25926(12)
O2_7 O 0.7698(5) 0.5571(5) 0.24158(12)
O3_4 O 0.8269(8) 0.8665(5) 0.36935(16)
O4_4 O 0.9339(8) 0.9207(6) 0.36614(16)
O5_7 O 0.5768(5) 0.4675(4) 0.22452(12)
O6_7 O 0.6716(5) 0.5196(5) 0.20679(12)
O7_4 O 0.4051(8) 0.6602(7) 0.10055(16)
O8_4 O 0.5143(9) 0.7185(8) 0.09655(16)
O9_7 O 0.6691(6) 0.4064(5) 0.23327(11)
Zn5_4 Zn 0.82510(9) 0.39028(7) 0.24556(2)
Zn6_4 Zn 0.76234(10) 0.27019(7) 0.22057(2)
C31_7 C 0.8226(10) 0.2651(7) 0.25611(17)
C32_7 C 0.8415(8) 0.2291(6) 0.27005(17)
C33_7 C 0.8306(8) 0.1650(6) 0.26627(16)
H17_7 H 0.809070 0.143540 0.255055
C34_7 C 0.8504(10) 0.1337(7) 0.27858(19)
H18_7 H 0.844413 0.091876 0.275688
C35_7 C 0.8798(8) 0.1646(6) 0.29550(18)
C36_7 C 0.9077(9) 0.1452(6) 0.31162(19)
C37_7 C 0.9085(10) 0.0867(7) 0.3142(2)
H19_7 H 0.890444 0.053085 0.305124
C38_7 C 0.9380(10) 0.0787(7) 0.3314(2)
H20_7 H 0.938488 0.039321 0.333575
C39_7 C 0.9651(11) 0.1291(9) 0.3443(2)
C40_7 C 0.9974(17) 0.1174(14) 0.3611(2)
C41_7 C 0.9641(11) 0.1895(8) 0.34131(19)
H21_7 H 0.981774 0.223561 0.350313
C42_7 C 0.9360(9) 0.1960(7) 0.32460(17)
C43_7 C 0.9262(9) 0.2539(6) 0.31883(17)
H22_7 H 0.897669 0.260017 0.327753
H23_7 H 0.968339 0.295160 0.317664
C44_7 C 0.8926(8) 0.2292(6) 0.29961(15)
C45_7 C 0.8727(8) 0.2624(6) 0.28664(17)
H24_7 H 0.880205 0.305032 0.289147
C46_7 C 0.8918(8) 0.3886(6) 0.21071(15)
C47_7 C 0.9478(10) 0.4216(7) 0.19690(18)
H31_7 H 0.974076 0.393826 0.138692
C59_7 C 0.9994(8) 0.4217(6) 0.16745(16)
C60_7 C 0.9467(8) 0.3905(6) 0.18019(16)
H32_7 H 0.910777 0.348556 0.177384
O10_7 O 0.8402(6) 0.3245(5) 0.25926(12)
O11_7 O 0.7873(7) 0.2302(5) 0.24158(12)
O13_4 O 0.9868(10) 0.0661(8) 0.36614(16)
O14_7 O 0.8907(6) 0.4232(5) 0.22452(12)
O15_7 O 0.8480(7) 0.3284(5) 0.20679(12)
O18_7 O 0.7373(8) 0.3309(6) 0.23327(11)
Zn7_4 Zn 0.56518(6) 0.17490(9) 0.24556(2)
Zn8_4 Zn 0.50785(7) 0.23766(10) 0.22057(2)
C61_7 C 0.4425(7) 0.1774(10) 0.25611(17)
C62_7 C 0.3876(6) 0.1585(8) 0.27005(17)
C63_7 C 0.3344(6) 0.1694(8) 0.26627(16)
H33_7 H 0.334470 0.190930 0.255055
C64_7 C 0.2833(7) 0.1496(10) 0.27858(19)
H34_7 H 0.247463 0.155587 0.275688
C65_7 C 0.2848(6) 0.1202(8) 0.29550(18)
C66_7 C 0.2375(7) 0.0923(9) 0.31162(19)
C67_7 C 0.1782(7) 0.0915(10) 0.3142(2)
H35_7 H 0.162641 0.109556 0.305124
C68_7 C 0.1407(7) 0.0620(10) 0.3314(2)
H36_7 H 0.100833 0.061512 0.333575
C69_7 C 0.1640(7) 0.0349(11) 0.3443(2)
C70_7 C 0.1200(10) 0.0026(17) 0.3611(2)
C71_7 C 0.2254(7) 0.0359(11) 0.34131(19)
H37_7 H 0.241787 0.018226 0.350313
C72_7 C 0.2600(6) 0.0640(9) 0.32460(17)
C73_7 C 0.3277(7) 0.0738(9) 0.31883(17)
H38_7 H 0.362348 0.102331 0.327753
H39_7 H 0.326821 0.031661 0.317664
C74_7 C 0.3366(6) 0.1074(8) 0.29961(15)
C75_7 C 0.3897(6) 0.1273(8) 0.28664(17)
H40_7 H 0.424827 0.119795 0.289147
C76_7 C 0.4968(6) 0.1082(8) 0.21071(15)
C77_7 C 0.4738(7) 0.0522(10) 0.19690(18)
H47_7 H 0.419750 0.025924 0.138692
C89_7 C 0.4223(6) 0.0006(8) 0.16745(16)
C90_7 C 0.4438(6) 0.0533(8) 0.18019(16)
H48_7 H 0.437779 0.089223 0.177384
O19_7 O 0.4843(4) 0.1598(6) 0.25926(12)
O20_7 O 0.4429(5) 0.2127(7) 0.24158(12)
O22_4 O 0.0793(6) 0.0132(10) 0.36614(16)
O23_7 O 0.5325(4) 0.1093(6) 0.22452(12)
O24_7 O 0.4804(5) 0.1520(7) 0.20679(12)
O27_7 O 0.5936(5) 0.2627(8) 0.23327(11)
Zn10_4 Zn 0.49177(9) 0.76815(6) 0.07889(2)
Zn12_4 Zn 0.84118(7) 0.93686(7) 0.38724(2)
Zn20_10 Zn 1.000000 1.000000 0.38310(6)
O28_4 O 0.8002(5) 0.5064(8) 0.20268(16)
O29_4 O 0.7063(9) 0.1998(5) 0.20268(16)
O30_4 O 0.4936(8) 0.2937(9) 0.20268(16)
O31_4 O 0.7460(6) 0.3994(8) 0.19947(16)
O32_4 O 0.6535(10) 0.2540(6) 0.19947(16)
O33_4 O 0.6006(8) 0.3465(10) 0.19947(16)
O34_4 O 0.6731(7) 0.2616(8) 0.26722(16)
O35_4 O 0.5884(11) 0.3269(7) 0.26722(16)
O36_4 O 0.7384(8) 0.4116(11) 0.26722(16)
O37_4 O 0.6148(8) 0.1524(9) 0.26322(16)
O38_4 O 0.5375(12) 0.3852(8) 0.26322(16)
O39_4 O 0.8476(9) 0.4625(12) 0.26322(16)
C78_7 C 0.4792(6) 0.9953(9) 0.2018(2)
H41_7 H 0.498486 0.994418 0.213329
C79_7 C 0.4561(8) 0.9412(11) 0.1895(2)
H42_7 H 0.458317 0.903573 0.192902
C80_7 C 0.4299(7) 0.9440(9) 0.17212(18)
C81_7 C 0.4045(6) 0.8988(8) 0.15608(18)
C82_7 C 0.4045(7) 0.8375(10) 0.1539(2)
H43_7 H 0.420391 0.820947 0.163383
C83_7 C 0.3791(8) 0.8035(11) 0.1366(2)
H44_7 H 0.380187 0.764638 0.134198
C84_7 C 0.3525(7) 0.8275(11) 0.12308(18)
C85_7 C 0.3209(11) 0.7868(19) 0.1051(2)
C86_7 C 0.3540(7) 0.8881(11) 0.12544(18)
H45_7 H 0.336942 0.903839 0.116076
C87_7 C 0.3814(5) 0.9244(8) 0.14208(16)
C88_7 C 0.3903(6) 0.9913(8) 0.14747(16)
H46_7 H 0.347959 0.990251 0.148105
O21_4 O 0.1335(5) 0.9604(9) 0.36935(16)
O25_4 O 0.3398(7) 0.7449(11) 0.10055(16)
O26_4 O 0.2815(8) 0.7958(12) 0.09655(16)
Zn9_4 Zn 0.23185(6) 0.72361(7) 0.07889(2)
Zn14_4 Zn 0.06314(7) 0.90433(10) 0.38724(2)
Zn17_8 Zn 0.000000 -0.000000 0.41729(6)
Zn17_9 Zn 0.000000 1.000000 0.41729(6)
C4_8 C 0.5330(7) 0.0500(7) 0.61191(19)
H2_8 H 0.574791 0.085870 0.609021
C5_8 C 0.5021(6) 0.0485(6) 0.62883(18)
C6_8 C 0.5215(6) 0.0958(7) 0.64495(19)
C7_8 C 0.5800(7) 0.1551(7) 0.6475(2)
H3_8 H 0.613582 0.170692 0.638457
C8_8 C 0.5880(7) 0.1926(7) 0.6647(2)
H4_8 H 0.627346 0.232500 0.666908
C9_8 C 0.5376(9) 0.1693(7) 0.6776(2)
C10_8 C 0.5493(14) 0.2133(10) 0.6944(2)
C11_8 C 0.4772(8) 0.1079(7) 0.67464(19)
H5_8 H 0.443106 0.091546 0.683646
C12_8 C 0.4707(7) 0.0733(6) 0.65793(17)
C13_8 C 0.4128(6) 0.0056(7) 0.65216(17)
H7_8 H 0.371507 0.006512 0.650997
C25_8 C 0.1326(15) 0.0124(11) 0.4384(2)
O3_5 O 0.4936(8) 0.1998(5) 0.70268(16)
O4_5 O 0.6006(8) 0.2540(6) 0.69947(16)
O8_5 O 0.1810(9) 0.0518(8) 0.42988(16)
Zn10_5 Zn 0.15843(9) 0.10149(6) 0.41223(2)
Zn12_5 Zn 0.50785(7) 0.27019(7) 0.72057(2)
Zn17_10 Zn 1.000000 -0.000000 0.41729(6)
Zn20_11 Zn 0.666667 0.333333 0.71643(6)
Zn1_5 Zn 0.27639(7) 0.76815(6) 0.57889(2)
Zn2_5 Zn 0.39648(7) 0.82548(7) 0.55390(2)
Zn3_8 Zn 0.333334 0.666666 0.58395(6)
Zn4_8 Zn 0.333334 0.666666 0.54976(6)
C1_8 C 0.4016(7) 0.8908(7) 0.58944(17)
C2_8 C 0.4376(6) 0.9457(6) 0.60338(17)
C3_8 C 0.5017(6) 0.9989(6) 0.59960(16)
H1_8 H 0.523127 0.998863 0.588388
H6_8 H 0.406650 0.970985 0.661086
C14_8 C 0.4375(6) 0.9967(6) 0.63294(15)
C15_8 C 0.4043(6) 0.9436(6) 0.61997(17)
H8_8 H 0.361635 0.908506 0.622480
C16_8 C 0.2781(6) 0.8365(6) 0.54404(15)
C17_8 C 0.2451(7) 0.8595(7) 0.53023(18)
C18_8 C 0.1828(7) 0.8541(6) 0.5351(2)
H9_8 H 0.162599 0.834847 0.546662
C19_8 C 0.1518(7) 0.8772(8) 0.5228(2)
H10_8 H 0.111923 0.875016 0.526235
C20_8 C 0.1808(6) 0.9034(7) 0.50545(18)
C21_8 C 0.1610(6) 0.9288(6) 0.48941(18)
C22_8 C 0.0997(7) 0.9288(7) 0.4872(2)
H11_8 H 0.067223 0.912942 0.496716
C23_8 C 0.0911(8) 0.9542(8) 0.4699(2)
H12_8 H 0.051118 0.953146 0.467531
C24_8 C 0.1417(8) 0.9808(7) 0.45641(18)
C26_8 C 0.2008(8) 0.9793(7) 0.45877(18)
H13_8 H 0.233564 0.996391 0.449409
C27_8 C 0.2097(6) 0.9519(5) 0.47541(16)
C28_8 C 0.2677(6) 0.9430(6) 0.48080(16)
H14_8 H 0.308959 0.985374 0.481438
H15_8 H 0.272841 0.913583 0.472025
C29_8 C 0.2450(6) 0.9110(6) 0.50078(16)
C30_8 C 0.2762(6) 0.8895(6) 0.51352(16)
H16_8 H 0.318111 0.895554 0.510717
O1_8 O 0.3422(5) 0.8490(4) 0.59259(12)
O2_8 O 0.4365(5) 0.8904(5) 0.57491(12)
O5_8 O 0.2435(5) 0.8008(4) 0.55785(12)
O6_8 O 0.3383(5) 0.8529(5) 0.54012(12)
O7_5 O 0.0718(8) 0.9935(7) 0.43388(16)
O9_8 O 0.3358(6) 0.7397(5) 0.56660(11)
Zn5_5 Zn 0.49177(9) 0.72361(7) 0.57889(2)
Zn6_5 Zn 0.42901(10) 0.60352(7) 0.55390(2)
C31_8 C 0.4893(10) 0.5984(7) 0.58944(17)
C32_8 C 0.5082(8) 0.5624(6) 0.60338(17)
C33_8 C 0.4973(8) 0.4983(6) 0.59960(16)
H17_8 H 0.475737 0.476873 0.588388
C34_8 C 0.5171(10) 0.4670(7) 0.61191(19)
H18_8 H 0.511080 0.425209 0.609021
C35_8 C 0.5465(8) 0.4979(6) 0.62883(18)
C36_8 C 0.5744(9) 0.4785(6) 0.64495(19)
C37_8 C 0.5752(10) 0.4200(7) 0.6475(2)
H19_8 H 0.557111 0.386418 0.638457
C38_8 C 0.6047(10) 0.4120(7) 0.6647(2)
H20_8 H 0.605155 0.372654 0.666908
C39_8 C 0.6318(11) 0.4624(9) 0.6776(2)
C40_8 C 0.6641(17) 0.4507(14) 0.6944(2)
C41_8 C 0.6308(11) 0.5228(8) 0.67464(19)
H21_8 H 0.648441 0.556894 0.683646
C42_8 C 0.6027(9) 0.5293(7) 0.65793(17)
C43_8 C 0.5929(9) 0.5872(6) 0.65216(17)
H22_8 H 0.564336 0.593350 0.661086
H23_8 H 0.635006 0.628493 0.650997
C44_8 C 0.5593(8) 0.5625(6) 0.63294(15)
C45_8 C 0.5394(8) 0.5957(6) 0.61997(17)
H24_8 H 0.546872 0.638365 0.622480
C46_8 C 0.5585(8) 0.7219(6) 0.54404(15)
C47_8 C 0.6145(10) 0.7549(7) 0.53023(18)
C48_8 C 0.6714(9) 0.8172(7) 0.5351(2)
H25_8 H 0.672249 0.837401 0.546662
C49_8 C 0.7255(11) 0.8482(7) 0.5228(2)
H26_8 H 0.763094 0.888077 0.526235
C50_8 C 0.7227(9) 0.8192(6) 0.50545(18)
C51_8 C 0.7679(8) 0.8390(6) 0.48941(18)
C52_8 C 0.8292(10) 0.9003(7) 0.4872(2)
H27_8 H 0.845720 0.932777 0.496716
C53_8 C 0.8632(11) 0.9089(8) 0.4699(2)
H28_8 H 0.902029 0.948882 0.467531
C54_8 C 0.8392(11) 0.8583(8) 0.45641(18)
C55_8 C 0.8799(19) 0.8674(15) 0.4384(2)
C56_8 C 0.7786(11) 0.7992(8) 0.45877(18)
H29_8 H 0.762828 0.766436 0.449409
C57_8 C 0.7423(8) 0.7903(6) 0.47541(16)
C58_8 C 0.6754(8) 0.7323(6) 0.48080(16)
H30_8 H 0.676416 0.691041 0.481438
H31_8 H 0.640743 0.727159 0.472025
C59_8 C 0.6661(8) 0.7550(6) 0.50078(16)
C60_8 C 0.6134(8) 0.7238(6) 0.51352(16)
H32_8 H 0.577444 0.681889 0.510717
O10_8 O 0.5069(6) 0.6578(5) 0.59259(12)
O11_8 O 0.4540(7) 0.5635(5) 0.57491(12)
O12_5 O 0.7063(9) 0.5064(8) 0.70268(16)
O13_5 O 0.6535(10) 0.3994(8) 0.69947(16)
O14_8 O 0.5574(6) 0.7565(5) 0.55785(12)
O15_8 O 0.5147(7) 0.6617(5) 0.54012(12)
O16_5 O 0.9218(11) 0.9282(8) 0.43388(16)
O17_5 O 0.8709(12) 0.8190(9) 0.42988(16)
O18_8 O 0.4040(8) 0.6642(6) 0.56660(11)
Zn7_5 Zn 0.23185(6) 0.50823(9) 0.57889(2)
Zn8_5 Zn 0.17452(7) 0.57099(10) 0.55390(2)
C61_8 C 0.1092(7) 0.5107(10) 0.58944(17)
C62_8 C 0.0543(6) 0.4918(8) 0.60338(17)
C63_8 C 0.0011(6) 0.5027(8) 0.59960(16)
H33_8 H 0.001137 0.524263 0.588388
H38_8 H 0.029015 0.435664 0.661086
C74_8 C 0.0033(6) 0.4407(8) 0.63294(15)
C75_8 C 0.0564(6) 0.4606(8) 0.61997(17)
H40_8 H 0.091494 0.453128 0.622480
C76_8 C 0.1635(6) 0.4415(8) 0.54404(15)
C77_8 C 0.1405(7) 0.3855(10) 0.53023(18)
C78_8 C 0.1459(6) 0.3286(9) 0.5351(2)
H41_8 H 0.165153 0.327751 0.546662
C79_8 C 0.1228(8) 0.2745(11) 0.5228(2)
H42_8 H 0.124984 0.236906 0.526235
C80_8 C 0.0966(7) 0.2773(9) 0.50545(18)
C81_8 C 0.0712(6) 0.2321(8) 0.48941(18)
C82_8 C 0.0712(7) 0.1708(10) 0.4872(2)
H43_8 H 0.087058 0.154280 0.496716
C83_8 C 0.0458(8) 0.1368(11) 0.4699(2)
H44_8 H 0.046854 0.097971 0.467531
C84_8 C 0.0192(7) 0.1608(11) 0.45641(18)
C86_8 C 0.0207(7) 0.2214(11) 0.45877(18)
H45_8 H 0.003609 0.237172 0.449409
C87_8 C 0.0481(5) 0.2577(8) 0.47541(16)
C88_8 C 0.0570(6) 0.3246(8) 0.48080(16)
H46_8 H 0.014626 0.323584 0.481438
H47_8 H 0.086417 0.359257 0.472025
C89_8 C 0.0890(6) 0.3339(8) 0.50078(16)
C90_8 C 0.1105(6) 0.3866(8) 0.51352(16)
H48_8 H 0.104446 0.422556 0.510717
O19_8 O 0.1510(4) 0.4931(6) 0.59259(12)
O20_8 O 0.1096(5) 0.5460(7) 0.57491(12)
O23_8 O 0.1992(4) 0.4426(6) 0.55785(12)
O24_8 O 0.1471(5) 0.4853(7) 0.54012(12)
O25_5 O 0.0065(7) 0.0782(11) 0.43388(16)
O27_8 O 0.2603(5) 0.5960(8) 0.56660(11)
Zn11_5 Zn 0.94305(7) 0.84157(9) 0.41223(2)
Zn13_5 Zn 0.76234(10) 0.49215(7) 0.72057(2)
Zn17_11 Zn 1.000000 1.000000 0.41729(6)
O28_5 O 0.4668(5) 0.8398(8) 0.53602(16)
O29_5 O 0.3729(9) 0.5332(5) 0.53602(16)
O30_5 O 0.1602(8) 0.6271(9) 0.53602(16)
O31_5 O 0.4126(6) 0.7328(8) 0.53281(16)
O32_5 O 0.3201(10) 0.5874(6) 0.53281(16)
O33_5 O 0.2672(8) 0.6799(10) 0.53281(16)
O34_5 O 0.3398(7) 0.5949(8) 0.60055(16)
O35_5 O 0.2551(11) 0.6602(7) 0.60055(16)
O36_5 O 0.4051(8) 0.7449(11) 0.60055(16)
O37_5 O 0.2815(8) 0.4857(9) 0.59655(16)
O38_5 O 0.2042(12) 0.7185(8) 0.59655(16)
O39_5 O 0.5143(9) 0.7958(12) 0.59655(16)
C64_8 C 0.9500(7) 0.4829(10) 0.61191(19)
H34_8 H 0.914130 0.488920 0.609021
C65_8 C 0.9515(6) 0.4535(8) 0.62883(18)
C66_8 C 0.9042(7) 0.4256(9) 0.64495(19)
C67_8 C 0.8449(7) 0.4248(10) 0.6475(2)
H35_8 H 0.829308 0.442889 0.638457
C68_8 C 0.8074(7) 0.3953(10) 0.6647(2)
H36_8 H 0.767500 0.394845 0.666908
C69_8 C 0.8307(7) 0.3682(11) 0.6776(2)
C70_8 C 0.7867(10) 0.3359(17) 0.6944(2)
C71_8 C 0.8921(7) 0.3692(11) 0.67464(19)
H37_8 H 0.908454 0.351559 0.683646
C72_8 C 0.9267(6) 0.3973(9) 0.65793(17)
C73_8 C 0.9944(7) 0.4071(9) 0.65216(17)
H39_8 H 0.993488 0.364994 0.650997
C85_8 C 0.9876(11) 0.1201(19) 0.4384(2)
O21_5 O 0.8002(5) 0.2937(9) 0.70268(16)
O22_5 O 0.7460(6) 0.3465(10) 0.69947(16)
O26_5 O 0.9482(8) 0.1291(12) 0.42988(16)
Zn9_5 Zn 0.89851(6) 0.05695(7) 0.41223(2)
Zn14_5 Zn 0.72981(7) 0.23766(10) 0.72057(2)
H4_9 H 0.294012 0.565834 0.000242
C9_9 C 0.2042(9) 0.5027(7) 0.0110(2)
C10_9 C 0.2159(14) 0.5467(10) 0.0278(2)
C11_9 C 0.1438(8) 0.4413(7) 0.00798(19)
H5_9 H 0.109772 0.424880 0.016980
O3_6 O 0.1602(8) 0.5332(5) 0.03602(16)
O4_6 O 0.2672(8) 0.5874(6) 0.03281(16)
Zn12_6 Zn 0.17452(7) 0.60352(7) 0.05390(2)
Zn20_12 Zn 0.333334 0.666666 0.04976(6)
Zn2_6 Zn 0.06314(7) 0.15882(7) 0.88724(2)
Zn3_9 Zn 0.000000 -0.000000 0.91729(6)
Zn4_9 Zn 0.000000 -0.000000 0.88310(6)
C1_9 C 0.0682(7) 0.2242(7) 0.92278(17)
C2_9 C 0.1042(6) 0.2791(6) 0.93672(17)
C3_9 C 0.1683(6) 0.3323(6) 0.93294(16)
H1_9 H 0.189793 0.332197 0.921722
C4_9 C 0.1996(7) 0.3834(7) 0.94525(19)
H2_9 H 0.241457 0.419204 0.942355
C5_9 C 0.1687(6) 0.3819(6) 0.96217(18)
C6_9 C 0.1881(6) 0.4292(7) 0.97829(19)
C7_9 C 0.2466(7) 0.4885(7) 0.9809(2)
H3_9 H 0.280248 0.504026 0.971791
C8_9 C 0.2546(7) 0.5260(7) 0.9981(2)
C12_9 C 0.1373(7) 0.4067(6) 0.99127(17)
C13_9 C 0.0794(6) 0.3390(7) 0.98550(17)
H6_9 H 0.073316 0.304319 0.994420
H7_9 H 0.038173 0.339846 0.984331
C14_9 C 0.1041(6) 0.3301(6) 0.96628(15)
C15_9 C 0.0709(6) 0.2770(6) 0.95331(17)
H8_9 H 0.028301 0.241840 0.955814
O1_9 O 0.0088(5) 0.1824(4) 0.92593(12)
O2_9 O 0.1031(5) 0.2238(5) 0.90825(12)
O6_9 O 0.0049(5) 0.1863(5) 0.87346(12)
O9_9 O 0.0024(6) 0.0731(5) 0.89994(11)
Zn5_6 Zn 0.15843(9) 0.05695(7) 0.91223(2)
C46_9 C 0.2251(8) 0.0553(6) 0.87738(15)
C47_9 C 0.2811(10) 0.0883(7) 0.86357(18)
C48_9 C 0.3380(9) 0.1506(7) 0.8685(2)
H25_9 H 0.338915 0.170735 0.879996
C49_9 C 0.3921(11) 0.1816(7) 0.8562(2)
H26_9 H 0.429760 0.221411 0.859569
C50_9 C 0.3893(9) 0.1526(6) 0.83879(18)
C51_9 C 0.4345(8) 0.1724(6) 0.82275(18)
C52_9 C 0.4958(10) 0.2337(7) 0.8206(2)
H27_9 H 0.512386 0.266111 0.830050
C53_9 C 0.5298(11) 0.2423(8) 0.8033(2)
H28_9 H 0.568695 0.282216 0.800865
C54_9 C 0.5058(11) 0.1917(8) 0.78975(18)
C55_9 C 0.5465(19) 0.2008(15) 0.7718(2)
C56_9 C 0.4452(11) 0.1326(8) 0.79211(18)
H29_9 H 0.429494 0.099770 0.782743
C57_9 C 0.4089(8) 0.1237(6) 0.80875(16)
C58_9 C 0.3420(8) 0.0657(6) 0.81414(16)
H30_9 H 0.343082 0.024375 0.814772
H31_9 H 0.307409 0.060493 0.805359
C59_9 C 0.3327(8) 0.0884(6) 0.83412(16)
C60_9 C 0.2800(8) 0.0572(6) 0.84686(16)
H32_9 H 0.244110 0.015223 0.844051
O14_9 O 0.2240(6) 0.0899(5) 0.89119(12)
O16_6 O 0.5884(11) 0.2616(8) 0.76722(16)
O17_6 O 0.5375(12) 0.1524(9) 0.76322(16)
Zn11_6 Zn 0.60972(7) 0.17490(9) 0.74556(2)
Zn17_12 Zn 0.666667 0.333333 0.75062(6)
O28_6 O 0.1335(5) 0.1731(8) 0.86935(16)
O31_6 O 0.0793(6) 0.0661(8) 0.86614(16)
O36_6 O 0.0718(8) 0.0782(11) 0.93388(16)
O39_6 O 0.1810(9) 0.1291(12) 0.92988(16)
H20_9 H 0.271821 0.705988 0.000242
C39_9 C 0.2984(11) 0.7958(9) 0.0110(2)
C40_9 C 0.3307(17) 0.7841(14) 0.0278(2)
C41_9 C 0.2974(11) 0.8562(8) 0.00798(19)
H21_9 H 0.315107 0.890228 0.016980
O12_6 O 0.3729(9) 0.8398(8) 0.03602(16)
O13_6 O 0.3201(10) 0.7328(8) 0.03281(16)
Zn13_6 Zn 0.42901(10) 0.82548(7) 0.05390(2)
Zn3_10 Zn 0.000000 1.000000 0.91729(6)
Zn4_10 Zn 0.000000 1.000000 0.88310(6)
Zn6_6 Zn 0.09567(10) 0.93686(7) 0.88724(2)
C31_9 C 0.1559(10) 0.9318(7) 0.92278(17)
C32_9 C 0.1748(8) 0.8958(6) 0.93672(17)
C33_9 C 0.1639(8) 0.8317(6) 0.93294(16)
H17_9 H 0.142403 0.810207 0.921722
C34_9 C 0.1837(10) 0.8004(7) 0.94525(19)
H18_9 H 0.177746 0.758543 0.942355
C35_9 C 0.2131(8) 0.8313(6) 0.96217(18)
C36_9 C 0.2410(9) 0.8119(6) 0.97829(19)
C37_9 C 0.2418(10) 0.7534(7) 0.9809(2)
H19_9 H 0.223777 0.719752 0.971791
C38_9 C 0.2713(10) 0.7454(7) 0.9981(2)
C42_9 C 0.2693(9) 0.8627(7) 0.99127(17)
C43_9 C 0.2595(9) 0.9206(6) 0.98550(17)
H22_9 H 0.231002 0.926684 0.994420
H23_9 H 0.301672 0.961827 0.984331
C44_9 C 0.2259(8) 0.8959(6) 0.96628(15)
C45_9 C 0.2060(8) 0.9291(6) 0.95331(17)
H24_9 H 0.213538 0.971699 0.955814
O10_9 O 0.1735(6) 0.9912(5) 0.92593(12)
O11_9 O 0.1206(7) 0.8969(5) 0.90825(12)
O15_9 O 0.1813(7) 0.9951(5) 0.87346(12)
O18_9 O 0.0706(8) 0.9976(6) 0.89994(11)
O29_6 O 0.0396(9) 0.8665(5) 0.86935(16)
O34_6 O 0.0065(7) 0.9282(8) 0.93388(16)
Zn1_6 Zn 0.94305(7) 0.10149(6) 0.91223(2)
Zn3_11 Zn 1.000000 -0.000000 0.91729(6)
Zn4_11 Zn 1.000000 -0.000000 0.88310(6)
C16_9 C 0.9447(6) 0.1699(6) 0.87738(15)
C17_9 C 0.9117(7) 0.1929(7) 0.86357(18)
C18_9 C 0.8494(7) 0.1875(6) 0.8685(2)
H9_9 H 0.829265 0.168181 0.879996
C19_9 C 0.8184(7) 0.2106(8) 0.8562(2)
H10_9 H 0.778589 0.208350 0.859569
C20_9 C 0.8474(6) 0.2368(7) 0.83879(18)
C21_9 C 0.8276(6) 0.2622(6) 0.82275(18)
C22_9 C 0.7663(7) 0.2622(7) 0.8206(2)
H11_9 H 0.733889 0.246276 0.830050
C23_9 C 0.7577(8) 0.2876(8) 0.8033(2)
H12_9 H 0.717784 0.286480 0.800865
C24_9 C 0.8083(8) 0.3142(7) 0.78975(18)
C25_9 C 0.7992(15) 0.3458(11) 0.7718(2)
C26_9 C 0.8674(8) 0.3127(7) 0.79211(18)
H13_9 H 0.900230 0.329725 0.782743
C27_9 C 0.8763(6) 0.2853(5) 0.80875(16)
C28_9 C 0.9343(6) 0.2764(6) 0.81414(16)
H14_9 H 0.975625 0.318708 0.814772
H15_9 H 0.939507 0.246917 0.805359
C29_9 C 0.9116(6) 0.2444(6) 0.83412(16)
C30_9 C 0.9428(6) 0.2229(6) 0.84686(16)
H16_9 H 0.984777 0.228888 0.844051
O5_9 O 0.9101(5) 0.1342(4) 0.89119(12)
O7_6 O 0.7384(8) 0.3269(7) 0.76722(16)
O8_6 O 0.8476(9) 0.3852(8) 0.76322(16)
Zn10_6 Zn 0.82510(9) 0.43482(6) 0.74556(2)
O33_6 O 0.9339(8) 0.0132(10) 0.86614(16)
O38_6 O 0.8709(12) 0.0518(8) 0.92988(16)
H36_9 H 0.434166 0.728179 0.000242
C69_9 C 0.4973(7) 0.7016(11) 0.0110(2)
C70_9 C 0.4533(10) 0.6693(17) 0.0278(2)
C71_9 C 0.5587(7) 0.7026(11) 0.00798(19)
H37_9 H 0.575120 0.684893 0.016980
O21_6 O 0.4668(5) 0.6271(9) 0.03602(16)
O22_6 O 0.4126(6) 0.6799(10) 0.03281(16)
Zn14_6 Zn 0.39648(7) 0.57099(10) 0.05390(2)
Zn3_12 Zn 1.000000 1.000000 0.91729(6)
Zn4_12 Zn 1.000000 1.000000 0.88310(6)
Zn7_6 Zn 0.89851(6) 0.84157(9) 0.91223(2)
Zn8_6 Zn 0.84118(7) 0.90433(10) 0.88724(2)
C61_9 C 0.7758(7) 0.8441(10) 0.92278(17)
C62_9 C 0.7209(6) 0.8252(8) 0.93672(17)
C63_9 C 0.6677(6) 0.8361(8) 0.93294(16)
H33_9 H 0.667803 0.857597 0.921722
C64_9 C 0.6166(7) 0.8163(10) 0.94525(19)
H34_9 H 0.580796 0.822254 0.942355
C65_9 C 0.6181(6) 0.7869(8) 0.96217(18)
C66_9 C 0.5708(7) 0.7590(9) 0.97829(19)
C67_9 C 0.5115(7) 0.7582(10) 0.9809(2)
H35_9 H 0.495974 0.776223 0.971791
C68_9 C 0.4740(7) 0.7287(10) 0.9981(2)
C72_9 C 0.5933(6) 0.7307(9) 0.99127(17)
C73_9 C 0.6610(7) 0.7405(9) 0.98550(17)
H38_9 H 0.695681 0.768998 0.994420
H39_9 H 0.660154 0.698328 0.984331
C74_9 C 0.6699(6) 0.7741(8) 0.96628(15)
C75_9 C 0.7230(6) 0.7940(8) 0.95331(17)
H40_9 H 0.758160 0.786462 0.955814
C76_9 C 0.8301(6) 0.7749(8) 0.87738(15)
C77_9 C 0.8071(7) 0.7189(10) 0.86357(18)
C78_9 C 0.8125(6) 0.6620(9) 0.8685(2)
H41_9 H 0.831819 0.661085 0.879996
C79_9 C 0.7894(8) 0.6079(11) 0.8562(2)
H42_9 H 0.791650 0.570240 0.859569
C80_9 C 0.7632(7) 0.6107(9) 0.83879(18)
C81_9 C 0.7378(6) 0.5655(8) 0.82275(18)
C82_9 C 0.7378(7) 0.5042(10) 0.8206(2)
H43_9 H 0.753724 0.487614 0.830050
C83_9 C 0.7124(8) 0.4702(11) 0.8033(2)
H44_9 H 0.713520 0.431305 0.800865
C84_9 C 0.6858(7) 0.4942(11) 0.78975(18)
C85_9 C 0.6542(11) 0.4535(19) 0.7718(2)
C86_9 C 0.6873(7) 0.5548(11) 0.79211(18)
H45_9 H 0.670275 0.570506 0.782743
C87_9 C 0.7147(5) 0.5911(8) 0.80875(16)
C88_9 C 0.7236(6) 0.6580(8) 0.81414(16)
H46_9 H 0.681292 0.656918 0.814772
H47_9 H 0.753083 0.692591 0.805359
C89_9 C 0.7556(6) 0.6673(8) 0.83412(16)
C90_9 C 0.7771(6) 0.7200(8) 0.84686(16)
H48_9 H 0.771112 0.755890 0.844051
O19_9 O 0.8176(4) 0.8265(6) 0.92593(12)
O20_9 O 0.7762(5) 0.8794(7) 0.90825(12)
O23_9 O 0.8658(4) 0.7760(6) 0.89119(12)
O24_9 O 0.8137(5) 0.8187(7) 0.87346(12)
O25_6 O 0.6731(7) 0.4116(11) 0.76722(16)
O26_6 O 0.6148(8) 0.4625(12) 0.76322(16)
O27_9 O 0.9269(5) 0.9294(8) 0.89994(11)
Zn9_6 Zn 0.56518(6) 0.39028(7) 0.74556(2)
O30_6 O 0.8269(8) 0.9604(9) 0.86935(16)
O32_6 O 0.9868(10) 0.9207(6) 0.86614(16)
O35_6 O 0.9218(11) 0.9935(7) 0.93388(16)
O37_6 O 0.9482(8) 0.8190(9) 0.92988(16)
C78_10 C 0.0047(9) 0.5208(6) 0.7018(2)
H41_10 H 0.005582 0.501514 0.713329
C79_10 C 0.0588(11) 0.5439(8) 0.6895(2)
H42_10 H 0.096427 0.541683 0.692902
C80_10 C 0.0560(9) 0.5701(7) 0.67212(18)
C81_10 C 0.1012(8) 0.5955(6) 0.65608(18)
C82_10 C 0.1625(10) 0.5955(7) 0.6539(2)
H43_10 H 0.179053 0.579609 0.663383
C83_10 C 0.1965(11) 0.6209(8) 0.6366(2)
H44_10 H 0.235362 0.619813 0.634198
C84_10 C 0.1725(11) 0.6475(7) 0.62308(18)
C85_10 C 0.2132(19) 0.6791(11) 0.6051(2)
C86_10 C 0.1119(11) 0.6460(7) 0.62544(18)
H45_10 H 0.096161 0.663058 0.616076
C87_10 C 0.0756(8) 0.6186(5) 0.64208(16)
C88_10 C 0.0087(8) 0.6097(6) 0.64747(16)
H46_10 H 0.009749 0.652041 0.648105
C1_10 C 0.4425(7) 0.2651(7) 0.75611(17)
C2_10 C 0.3876(6) 0.2291(6) 0.77005(17)
C3_10 C 0.3344(6) 0.1650(6) 0.76627(16)
H1_10 H 0.334470 0.143540 0.755055
C4_10 C 0.2833(7) 0.1337(7) 0.77858(19)
H2_10 H 0.247463 0.091876 0.775688
C5_10 C 0.2848(6) 0.1646(6) 0.79550(18)
C6_10 C 0.2375(7) 0.1452(6) 0.81162(19)
C7_10 C 0.1782(7) 0.0867(7) 0.8142(2)
H3_10 H 0.162641 0.053085 0.805124
C8_10 C 0.1407(7) 0.0787(7) 0.8314(2)
H4_10 H 0.100833 0.039321 0.833575
C9_10 C 0.1640(7) 0.1291(9) 0.8443(2)
C10_10 C 0.1200(10) 0.1174(14) 0.8611(2)
C11_10 C 0.2254(7) 0.1895(8) 0.84131(19)
H5_10 H 0.241787 0.223561 0.850313
C12_10 C 0.2600(6) 0.1960(7) 0.82460(17)
C13_10 C 0.3277(7) 0.2539(6) 0.81883(17)
H6_10 H 0.362348 0.260017 0.827753
H7_10 H 0.326821 0.295160 0.817664
C14_10 C 0.3366(6) 0.2292(6) 0.79961(15)
C15_10 C 0.3897(6) 0.2624(6) 0.78664(17)
H8_10 H 0.424827 0.305032 0.789147
C16_10 C 0.4968(6) 0.3886(6) 0.71071(15)
C17_10 C 0.4738(7) 0.4216(7) 0.69690(18)
C18_10 C 0.4792(6) 0.4839(7) 0.7018(2)
H9_10 H 0.498486 0.504068 0.713329
C19_10 C 0.4561(8) 0.5149(7) 0.6895(2)
H10_10 H 0.458317 0.554744 0.692902
C20_10 C 0.4299(7) 0.4859(6) 0.67212(18)
C21_10 C 0.4045(6) 0.5057(6) 0.65608(18)
C22_10 C 0.4045(7) 0.5670(7) 0.6539(2)
H11_10 H 0.420391 0.599444 0.663383
C23_10 C 0.3791(8) 0.5756(8) 0.6366(2)
H12_10 H 0.380187 0.615549 0.634198
C24_10 C 0.3525(7) 0.5250(8) 0.62308(18)
C25_10 C 0.3209(11) 0.5341(15) 0.6051(2)
C26_10 C 0.3540(7) 0.4659(8) 0.62544(18)
H13_10 H 0.336942 0.433103 0.616076
C27_10 C 0.3814(5) 0.4570(6) 0.64208(16)
C28_10 C 0.3903(6) 0.3990(6) 0.64747(16)
H14_10 H 0.347959 0.357708 0.648105
H15_10 H 0.419750 0.393826 0.638692
C29_10 C 0.4223(6) 0.4217(6) 0.66745(16)
C30_10 C 0.4438(6) 0.3905(6) 0.68019(16)
H16_10 H 0.437779 0.348556 0.677384
O1_10 O 0.4843(4) 0.3245(5) 0.75926(12)
O2_10 O 0.4429(5) 0.2302(5) 0.74158(12)
O5_10 O 0.5325(4) 0.4232(5) 0.72452(12)
O6_10 O 0.4804(5) 0.3284(5) 0.70679(12)
O9_10 O 0.5936(5) 0.3309(6) 0.73327(11)
C31_10 C 0.7349(7) 0.1774(10) 0.75611(17)
C32_10 C 0.7709(6) 0.1585(8) 0.77005(17)
C33_10 C 0.8350(6) 0.1694(8) 0.76627(16)
H17_10 H 0.856460 0.190930 0.755055
C34_10 C 0.8663(7) 0.1496(10) 0.77858(19)
H18_10 H 0.908124 0.155587 0.775688
C35_10 C 0.8354(6) 0.1202(8) 0.79550(18)
C36_10 C 0.8548(6) 0.0923(9) 0.81162(19)
C37_10 C 0.9133(7) 0.0915(10) 0.8142(2)
H19_10 H 0.946915 0.109556 0.805124
C38_10 C 0.9213(7) 0.0620(10) 0.8314(2)
H20_10 H 0.960679 0.061512 0.833575
C39_10 C 0.8709(9) 0.0349(11) 0.8443(2)
C40_10 C 0.8826(14) 0.0026(17) 0.8611(2)
C41_10 C 0.8105(8) 0.0359(11) 0.84131(19)
H21_10 H 0.776439 0.018226 0.850313
C42_10 C 0.8040(7) 0.0640(9) 0.82460(17)
C43_10 C 0.7461(6) 0.0738(9) 0.81883(17)
H22_10 H 0.739983 0.102331 0.827753
H23_10 H 0.704840 0.031661 0.817664
C44_10 C 0.7708(6) 0.1074(8) 0.79961(15)
C45_10 C 0.7376(6) 0.1273(8) 0.78664(17)
H24_10 H 0.694968 0.119795 0.789147
C46_10 C 0.6114(6) 0.1082(8) 0.71071(15)
C47_10 C 0.5784(7) 0.0522(10) 0.69690(18)
H31_10 H 0.606174 0.025924 0.638692
C59_10 C 0.5783(6) 0.0006(8) 0.66745(16)
C60_10 C 0.6095(6) 0.0533(8) 0.68019(16)
H32_10 H 0.651444 0.089223 0.677384
O10_10 O 0.6755(5) 0.1598(6) 0.75926(12)
O11_10 O 0.7698(5) 0.2127(7) 0.74158(12)
O14_10 O 0.5768(5) 0.1093(6) 0.72452(12)
O15_10 O 0.6716(5) 0.1520(7) 0.70679(12)
O18_10 O 0.6691(6) 0.2627(8) 0.73327(11)
C61_10 C 0.8226(10) 0.5575(7) 0.75611(17)
C62_10 C 0.8415(8) 0.6124(6) 0.77005(17)
C63_10 C 0.8306(8) 0.6656(6) 0.76627(16)
H33_10 H 0.809070 0.665530 0.755055
C64_10 C 0.8504(10) 0.7167(7) 0.77858(19)
H34_10 H 0.844413 0.752537 0.775688
C65_10 C 0.8798(8) 0.7152(6) 0.79550(18)
C66_10 C 0.9077(9) 0.7625(7) 0.81162(19)
C67_10 C 0.9085(10) 0.8218(7) 0.8142(2)
H35_10 H 0.890444 0.837359 0.805124
C68_10 C 0.9380(10) 0.8593(7) 0.8314(2)
H36_10 H 0.938488 0.899167 0.833575
C69_10 C 0.9651(11) 0.8360(7) 0.8443(2)
C70_10 C 0.9974(17) 0.8800(10) 0.8611(2)
C71_10 C 0.9641(11) 0.7746(7) 0.84131(19)
H37_10 H 0.981774 0.758213 0.850313
C72_10 C 0.9360(9) 0.7400(6) 0.82460(17)
C73_10 C 0.9262(9) 0.6723(7) 0.81883(17)
H38_10 H 0.897669 0.637652 0.827753
H39_10 H 0.968339 0.673179 0.817664
C74_10 C 0.8926(8) 0.6634(6) 0.79961(15)
C75_10 C 0.8727(8) 0.6103(6) 0.78664(17)
H40_10 H 0.880205 0.575173 0.789147
C76_10 C 0.8918(8) 0.5032(6) 0.71071(15)
C77_10 C 0.9478(10) 0.5262(7) 0.69690(18)
H47_10 H 0.974076 0.580250 0.638692
C89_10 C 0.9994(8) 0.5777(6) 0.66745(16)
C90_10 C 0.9467(8) 0.5562(6) 0.68019(16)
H48_10 H 0.910777 0.562221 0.677384
O19_10 O 0.8402(6) 0.5157(4) 0.75926(12)
O20_10 O 0.7873(7) 0.5571(5) 0.74158(12)
O23_10 O 0.8907(6) 0.4675(4) 0.72452(12)
O24_10 O 0.8480(7) 0.5196(5) 0.70679(12)
O27_10 O 0.7373(8) 0.4064(5) 0.73327(11)
C48_10 C 0.5161(7) 0.9953(9) 0.7018(2)
H25_10 H 0.495932 0.994418 0.713329
C49_10 C 0.4851(7) 0.9412(11) 0.6895(2)
H26_10 H 0.445256 0.903573 0.692902
C50_10 C 0.5141(6) 0.9440(9) 0.67212(18)
C51_10 C 0.4943(6) 0.8988(8) 0.65608(18)
C52_10 C 0.4330(7) 0.8375(10) 0.6539(2)
H27_10 H 0.400556 0.820947 0.663383
C53_10 C 0.4244(8) 0.8035(11) 0.6366(2)
H28_10 H 0.384451 0.764638 0.634198
C54_10 C 0.4750(8) 0.8275(11) 0.62308(18)
C55_10 C 0.4659(15) 0.7868(19) 0.6051(2)
C56_10 C 0.5341(8) 0.8881(11) 0.62544(18)
H29_10 H 0.566897 0.903839 0.616076
C57_10 C 0.5430(6) 0.9244(8) 0.64208(16)
C58_10 C 0.6010(6) 0.9913(8) 0.64747(16)
H30_10 H 0.642292 0.990251 0.648105
C61_11 C 0.1559(10) 0.2242(7) 0.42278(17)
C62_11 C 0.1748(8) 0.2791(6) 0.43672(17)
C63_11 C 0.1639(8) 0.3323(6) 0.43294(16)
H33_11 H 0.142403 0.332197 0.421722
C64_11 C 0.1837(10) 0.3834(7) 0.44525(19)
H34_11 H 0.177746 0.419204 0.442355
C65_11 C 0.2131(8) 0.3819(6) 0.46217(18)
C66_11 C 0.2410(9) 0.4292(7) 0.47829(19)
C67_11 C 0.2418(10) 0.4885(7) 0.4809(2)
H35_11 H 0.223777 0.504026 0.471791
C68_11 C 0.2713(10) 0.5260(7) 0.4981(2)
H36_11 H 0.271821 0.565834 0.500242
C69_11 C 0.2984(11) 0.5027(7) 0.5110(2)
C70_11 C 0.3307(17) 0.5467(10) 0.5278(2)
C71_11 C 0.2974(11) 0.4413(7) 0.50798(19)
H37_11 H 0.315107 0.424880 0.516980
C72_11 C 0.2693(9) 0.4067(6) 0.49127(17)
C73_11 C 0.2595(9) 0.3390(7) 0.48550(17)
H38_11 H 0.231002 0.304319 0.494420
H39_11 H 0.301672 0.339846 0.484331
C74_11 C 0.2259(8) 0.3301(6) 0.46628(15)
C75_11 C 0.2060(8) 0.2770(6) 0.45331(17)
H40_11 H 0.213538 0.241840 0.455814
C76_11 C 0.2251(8) 0.1699(6) 0.37738(15)
C77_11 C 0.2811(10) 0.1929(7) 0.36357(18)
C78_11 C 0.3380(9) 0.1875(6) 0.3685(2)
H41_11 H 0.338915 0.168181 0.379996
C79_11 C 0.3921(11) 0.2106(8) 0.3562(2)
H42_11 H 0.429760 0.208350 0.359569
C80_11 C 0.3893(9) 0.2368(7) 0.33879(18)
C81_11 C 0.4345(8) 0.2622(6) 0.32275(18)
C82_11 C 0.4958(10) 0.2622(7) 0.3206(2)
H43_11 H 0.512386 0.246276 0.330050
C83_11 C 0.5298(11) 0.2876(8) 0.3033(2)
H44_11 H 0.568695 0.286480 0.300865
C84_11 C 0.5058(11) 0.3142(7) 0.28975(18)
C85_11 C 0.5465(19) 0.3458(11) 0.2718(2)
C86_11 C 0.4452(11) 0.3127(7) 0.29211(18)
H45_11 H 0.429494 0.329725 0.282743
C87_11 C 0.4089(8) 0.2853(5) 0.30875(16)
C88_11 C 0.3420(8) 0.2764(6) 0.31414(16)
H46_11 H 0.343082 0.318708 0.314772
H47_11 H 0.307409 0.246917 0.305359
C89_11 C 0.3327(8) 0.2444(6) 0.33412(16)
C90_11 C 0.2800(8) 0.2229(6) 0.34686(16)
H48_11 H 0.244110 0.228888 0.344051
O19_11 O 0.1735(6) 0.1824(4) 0.42593(12)
O20_11 O 0.1206(7) 0.2238(5) 0.40825(12)
O23_11 O 0.2240(6) 0.1342(4) 0.39119(12)
O24_11 O 0.1813(7) 0.1863(5) 0.37346(12)
O27_11 O 0.0706(8) 0.0731(5) 0.39994(11)
C31_11 C 0.0682(7) 0.8441(10) 0.42278(17)
C32_11 C 0.1042(6) 0.8252(8) 0.43672(17)
C33_11 C 0.1683(6) 0.8361(8) 0.43294(16)
H17_11 H 0.189793 0.857597 0.421722
C34_11 C 0.1996(7) 0.8163(10) 0.44525(19)
H18_11 H 0.241457 0.822254 0.442355
C35_11 C 0.1687(6) 0.7869(8) 0.46217(18)
C36_11 C 0.1881(6) 0.7590(9) 0.47829(19)
C37_11 C 0.2466(7) 0.7582(10) 0.4809(2)
H19_11 H 0.280248 0.776223 0.471791
C38_11 C 0.2546(7) 0.7287(10) 0.4981(2)
H20_11 H 0.294012 0.728179 0.500242
C39_11 C 0.2042(9) 0.7016(11) 0.5110(2)
C40_11 C 0.2159(14) 0.6693(17) 0.5278(2)
C41_11 C 0.1438(8) 0.7026(11) 0.50798(19)
H21_11 H 0.109772 0.684893 0.516980
C42_11 C 0.1373(7) 0.7307(9) 0.49127(17)
C43_11 C 0.0794(6) 0.7405(9) 0.48550(17)
H22_11 H 0.073316 0.768998 0.494420
H23_11 H 0.038173 0.698328 0.484331
C44_11 C 0.1041(6) 0.7741(8) 0.46628(15)
C45_11 C 0.0709(6) 0.7940(8) 0.45331(17)
H24_11 H 0.028301 0.786462 0.455814
O10_11 O 0.0088(5) 0.8265(6) 0.42593(12)
O11_11 O 0.1031(5) 0.8794(7) 0.40825(12)
O15_11 O 0.0049(5) 0.8187(7) 0.37346(12)
O18_11 O 0.0024(6) 0.9294(8) 0.39994(11)
C16_11 C 0.8301(6) 0.0553(6) 0.37738(15)
C17_11 C 0.8071(7) 0.0883(7) 0.36357(18)
C18_11 C 0.8125(6) 0.1506(7) 0.3685(2)
H9_11 H 0.831819 0.170735 0.379996
C19_11 C 0.7894(8) 0.1816(7) 0.3562(2)
H10_11 H 0.791650 0.221411 0.359569
C20_11 C 0.7632(7) 0.1526(6) 0.33879(18)
C21_11 C 0.7378(6) 0.1724(6) 0.32275(18)
C22_11 C 0.7378(7) 0.2337(7) 0.3206(2)
H11_11 H 0.753724 0.266111 0.330050
C23_11 C 0.7124(8) 0.2423(8) 0.3033(2)
H12_11 H 0.713520 0.282216 0.300865
C24_11 C 0.6858(7) 0.1917(8) 0.28975(18)
C25_11 C 0.6542(11) 0.2008(15) 0.2718(2)
C26_11 C 0.6873(7) 0.1326(8) 0.29211(18)
H13_11 H 0.670275 0.099770 0.282743
C27_11 C 0.7147(5) 0.1237(6) 0.30875(16)
C28_11 C 0.7236(6) 0.0657(6) 0.31414(16)
H14_11 H 0.681292 0.024375 0.314772
H15_11 H 0.753083 0.060493 0.305359
C29_11 C 0.7556(6) 0.0884(6) 0.33412(16)
C30_11 C 0.7771(6) 0.0572(6) 0.34686(16)
H16_11 H 0.771112 0.015223 0.344051
O5_11 O 0.8658(4) 0.0899(5) 0.39119(12)
C1_11 C 0.7758(7) 0.9318(7) 0.42278(17)
C2_11 C 0.7209(6) 0.8958(6) 0.43672(17)
C3_11 C 0.6677(6) 0.8317(6) 0.43294(16)
H1_11 H 0.667803 0.810207 0.421722
C4_11 C 0.6166(7) 0.8004(7) 0.44525(19)
H2_11 H 0.580796 0.758543 0.442355
C5_11 C 0.6181(6) 0.8313(6) 0.46217(18)
C6_11 C 0.5708(7) 0.8119(6) 0.47829(19)
C7_11 C 0.5115(7) 0.7534(7) 0.4809(2)
H3_11 H 0.495974 0.719752 0.471791
C8_11 C 0.4740(7) 0.7454(7) 0.4981(2)
H4_11 H 0.434166 0.705988 0.500242
C9_11 C 0.4973(7) 0.7958(9) 0.5110(2)
C10_11 C 0.4533(10) 0.7841(14) 0.5278(2)
C11_11 C 0.5587(7) 0.8562(8) 0.50798(19)
H5_11 H 0.575120 0.890228 0.516980
C12_11 C 0.5933(6) 0.8627(7) 0.49127(17)
C13_11 C 0.6610(7) 0.9206(6) 0.48550(17)
H6_11 H 0.695681 0.926684 0.494420
H7_11 H 0.660154 0.961827 0.484331
C14_11 C 0.6699(6) 0.8959(6) 0.46628(15)
C15_11 C 0.7230(6) 0.9291(6) 0.45331(17)
H8_11 H 0.758160 0.971699 0.455814
O1_11 O 0.8176(4) 0.9912(5) 0.42593(12)
O2_11 O 0.7762(5) 0.8969(5) 0.40825(12)
O6_11 O 0.8137(5) 0.9951(5) 0.37346(12)
O9_11 O 0.9269(5) 0.9976(6) 0.39994(11)
C46_11 C 0.9447(6) 0.7749(8) 0.37738(15)
C47_11 C 0.9117(7) 0.7189(10) 0.36357(18)
C48_11 C 0.8494(7) 0.6620(9) 0.3685(2)
H25_11 H 0.829265 0.661085 0.379996
C49_11 C 0.8184(7) 0.6079(11) 0.3562(2)
H26_11 H 0.778589 0.570240 0.359569
C50_11 C 0.8474(6) 0.6107(9) 0.33879(18)
C51_11 C 0.8276(6) 0.5655(8) 0.32275(18)
C52_11 C 0.7663(7) 0.5042(10) 0.3206(2)
H27_11 H 0.733889 0.487614 0.330050
C53_11 C 0.7577(8) 0.4702(11) 0.3033(2)
H28_11 H 0.717784 0.431305 0.300865
C54_11 C 0.8083(8) 0.4942(11) 0.28975(18)
C55_11 C 0.7992(15) 0.4535(19) 0.2718(2)
C56_11 C 0.8674(8) 0.5548(11) 0.29211(18)
H29_11 H 0.900230 0.570506 0.282743
C57_11 C 0.8763(6) 0.5911(8) 0.30875(16)
C58_11 C 0.9343(6) 0.6580(8) 0.31414(16)
H30_11 H 0.975625 0.656918 0.314772
H31_11 H 0.939507 0.692591 0.305359
C59_11 C 0.9116(6) 0.6673(8) 0.33412(16)
C60_11 C 0.9428(6) 0.7200(8) 0.34686(16)
H32_11 H 0.984777 0.755890 0.344051
O14_11 O 0.9101(5) 0.7760(6) 0.39119(12)
C64_12 C 0.5171(10) 0.0500(7) 0.11191(19)
H34_12 H 0.511080 0.085870 0.109021
C65_12 C 0.5465(8) 0.0485(6) 0.12883(18)
C66_12 C 0.5744(9) 0.0958(7) 0.14495(19)
C67_12 C 0.5752(10) 0.1551(7) 0.1475(2)
H35_12 H 0.557111 0.170692 0.138457
C68_12 C 0.6047(10) 0.1926(7) 0.1647(2)
H36_12 H 0.605155 0.232500 0.166908
C69_12 C 0.6318(11) 0.1693(7) 0.1776(2)
C70_12 C 0.6641(17) 0.2133(10) 0.1944(2)
C71_12 C 0.6308(11) 0.1079(7) 0.17464(19)
H37_12 H 0.648441 0.091546 0.183646
C72_12 C 0.6027(9) 0.0733(6) 0.15793(17)
C73_12 C 0.5929(9) 0.0056(7) 0.15216(17)
H39_12 H 0.635006 0.006512 0.150997
C85_12 C 0.8799(19) 0.0124(11) 0.9384(2)
C1_12 C 0.1092(7) 0.5984(7) 0.08944(17)
C2_12 C 0.0543(6) 0.5624(6) 0.10338(17)
C3_12 C 0.0011(6) 0.4983(6) 0.09960(16)
H1_12 H 0.001137 0.476873 0.088388
H6_12 H 0.029015 0.593350 0.161086
C14_12 C 0.0033(6) 0.5625(6) 0.13294(15)
C15_12 C 0.0564(6) 0.5957(6) 0.11997(17)
H8_12 H 0.091494 0.638365 0.122480
C16_12 C 0.1635(6) 0.7219(6) 0.04404(15)
C17_12 C 0.1405(7) 0.7549(7) 0.03023(18)
C18_12 C 0.1459(6) 0.8172(7) 0.0351(2)
H9_12 H 0.165153 0.837401 0.046662
C19_12 C 0.1228(8) 0.8482(7) 0.0228(2)
H10_12 H 0.124984 0.888077 0.026235
C20_12 C 0.0966(7) 0.8192(6) 0.00545(18)
C29_12 C 0.0890(6) 0.7550(6) 0.00078(16)
C30_12 C 0.1105(6) 0.7238(6) 0.01352(16)
H16_12 H 0.104446 0.681889 0.010717
O1_12 O 0.1510(4) 0.6578(5) 0.09259(12)
O2_12 O 0.1096(5) 0.5635(5) 0.07491(12)
O5_12 O 0.1992(4) 0.7565(5) 0.05785(12)
O6_12 O 0.1471(5) 0.6617(5) 0.04012(12)
O9_12 O 0.2603(5) 0.6642(6) 0.06660(11)
C31_12 C 0.4016(7) 0.5107(10) 0.08944(17)
C32_12 C 0.4376(6) 0.4918(8) 0.10338(17)
C33_12 C 0.5017(6) 0.5027(8) 0.09960(16)
H17_12 H 0.523127 0.524263 0.088388
C34_12 C 0.5330(7) 0.4829(10) 0.11191(19)
H18_12 H 0.574791 0.488920 0.109021
C35_12 C 0.5021(6) 0.4535(8) 0.12883(18)
C36_12 C 0.5215(6) 0.4256(9) 0.14495(19)
C37_12 C 0.5800(7) 0.4248(10) 0.1475(2)
H19_12 H 0.613582 0.442889 0.138457
C38_12 C 0.5880(7) 0.3953(10) 0.1647(2)
H20_12 H 0.627346 0.394845 0.166908
C39_12 C 0.5376(9) 0.3682(11) 0.1776(2)
C40_12 C 0.5493(14) 0.3359(17) 0.1944(2)
C41_12 C 0.4772(8) 0.3692(11) 0.17464(19)
H21_12 H 0.443106 0.351559 0.183646
C42_12 C 0.4707(7) 0.3973(9) 0.15793(17)
C43_12 C 0.4128(6) 0.4071(9) 0.15216(17)
H22_12 H 0.406650 0.435664 0.161086
H23_12 H 0.371507 0.364994 0.150997
C44_12 C 0.4375(6) 0.4407(8) 0.13294(15)
C45_12 C 0.4043(6) 0.4606(8) 0.11997(17)
H24_12 H 0.361635 0.453128 0.122480
C46_12 C 0.2781(6) 0.4415(8) 0.04404(15)
C47_12 C 0.2451(7) 0.3855(10) 0.03023(18)
C48_12 C 0.1828(7) 0.3286(9) 0.0351(2)
H25_12 H 0.162599 0.327751 0.046662
C49_12 C 0.1518(7) 0.2745(11) 0.0228(2)
H26_12 H 0.111923 0.236906 0.026235
C50_12 C 0.1808(6) 0.2773(9) 0.00545(18)
C59_12 C 0.2450(6) 0.3339(8) 0.00078(16)
C60_12 C 0.2762(6) 0.3866(8) 0.01352(16)
H32_12 H 0.318111 0.422556 0.010717
O10_12 O 0.3422(5) 0.4931(6) 0.09259(12)
O11_12 O 0.4365(5) 0.5460(7) 0.07491(12)
O14_12 O 0.2435(5) 0.4426(6) 0.05785(12)
O15_12 O 0.3383(5) 0.4853(7) 0.04012(12)
O18_12 O 0.3358(6) 0.5960(8) 0.06660(11)
C61_12 C 0.4893(10) 0.8908(7) 0.08944(17)
C62_12 C 0.5082(8) 0.9457(6) 0.10338(17)
C63_12 C 0.4973(8) 0.9989(6) 0.09960(16)
H33_12 H 0.475737 0.998863 0.088388
H38_12 H 0.564336 0.970985 0.161086
C74_12 C 0.5593(8) 0.9967(6) 0.13294(15)
C75_12 C 0.5394(8) 0.9436(6) 0.11997(17)
H40_12 H 0.546872 0.908506 0.122480
C76_12 C 0.5585(8) 0.8365(6) 0.04404(15)
C77_12 C 0.6145(10) 0.8595(7) 0.03023(18)
C78_12 C 0.6714(9) 0.8541(6) 0.0351(2)
H41_12 H 0.672249 0.834847 0.046662
C79_12 C 0.7255(11) 0.8772(8) 0.0228(2)
H42_12 H 0.763094 0.875016 0.026235
C80_12 C 0.7227(9) 0.9034(7) 0.00545(18)
C89_12 C 0.6661(8) 0.9110(6) 0.00078(16)
C90_12 C 0.6134(8) 0.8895(6) 0.01352(16)
H48_12 H 0.577444 0.895554 0.010717
O19_12 O 0.5069(6) 0.8490(4) 0.09259(12)
O20_12 O 0.4540(7) 0.8904(5) 0.07491(12)
O23_12 O 0.5574(6) 0.8008(4) 0.05785(12)
O24_12 O 0.5147(7) 0.8529(5) 0.04012(12)
O27_12 O 0.4040(8) 0.7397(5) 0.06660(11)
C21_12 C 0.0712(6) 0.8390(6) 0.98941(18)
C22_12 C 0.0712(7) 0.9003(7) 0.9872(2)
H11_12 H 0.087058 0.932777 0.996716
C23_12 C 0.0458(8) 0.9089(8) 0.9699(2)
H12_12 H 0.046854 0.948882 0.967531
C24_12 C 0.0192(7) 0.8583(8) 0.95641(18)
C26_12 C 0.0207(7) 0.7992(8) 0.95877(18)
H13_12 H 0.003609 0.766436 0.949409
C27_12 C 0.0481(5) 0.7903(6) 0.97541(16)
C28_12 C 0.0570(6) 0.7323(6) 0.98080(16)
H14_12 H 0.014626 0.691041 0.981438
H15_12 H 0.086417 0.727159 0.972025
C51_12 C 0.1610(6) 0.2321(8) 0.98941(18)
C52_12 C 0.0997(7) 0.1708(10) 0.9872(2)
H27_12 H 0.067223 0.154280 0.996716
C53_12 C 0.0911(8) 0.1368(11) 0.9699(2)
H28_12 H 0.051118 0.097971 0.967531
C54_12 C 0.1417(8) 0.1608(11) 0.95641(18)
C55_12 C 0.1326(15) 0.1201(19) 0.9384(2)
C56_12 C 0.2008(8) 0.2214(11) 0.95877(18)
H29_12 H 0.233564 0.237172 0.949409
C57_12 C 0.2097(6) 0.2577(8) 0.97541(16)
C58_12 C 0.2677(6) 0.3246(8) 0.98080(16)
H30_12 H 0.308959 0.323584 0.981438
H31_12 H 0.272841 0.359257 0.972025
C81_12 C 0.7679(8) 0.9288(6) 0.98941(18)
C82_12 C 0.8292(10) 0.9288(7) 0.9872(2)
H43_12 H 0.845720 0.912942 0.996716
C83_12 C 0.8632(11) 0.9542(8) 0.9699(2)
H44_12 H 0.902029 0.953146 0.967531
C84_12 C 0.8392(11) 0.9808(7) 0.95641(18)
C86_12 C 0.7786(11) 0.9793(7) 0.95877(18)
H45_12 H 0.762828 0.996391 0.949409
C87_12 C 0.7423(8) 0.9519(5) 0.97541(16)
C88_12 C 0.6754(8) 0.9430(6) 0.98080(16)
H46_12 H 0.676416 0.985374 0.981438
H47_12 H 0.640743 0.913583 0.972025
C4_12 C 0.9500(7) 0.4670(7) 0.11191(19)
H2_12 H 0.914130 0.425209 0.109021
C5_12 C 0.9515(6) 0.4979(6) 0.12883(18)
C6_12 C 0.9042(7) 0.4785(6) 0.14495(19)
C7_12 C 0.8449(7) 0.4200(7) 0.1475(2)
H3_12 H 0.829308 0.386418 0.138457
C8_12 C 0.8074(7) 0.4120(7) 0.1647(2)
H4_12 H 0.767500 0.372654 0.166908
C9_12 C 0.8307(7) 0.4624(9) 0.1776(2)
C10_12 C 0.7867(10) 0.4507(14) 0.1944(2)
C11_12 C 0.8921(7) 0.5228(8) 0.17464(19)
H5_12 H 0.908454 0.556894 0.183646
C12_12 C 0.9267(6) 0.5293(7) 0.15793(17)
C13_12 C 0.9944(7) 0.5872(6) 0.15216(17)
H7_12 H 0.993488 0.628493 0.150997
C25_12 C 0.9876(11) 0.8674(15) 0.9384(2)
loop_
_geom_bond_atom_site_label_1
_geom_bond_atom_site_label_2
_geom_bond_site_symmetry_1
_geom_bond_site_symmetry_2
C48 H25 1_555 1_555
C49 C48 1_555 1_555
H26 C49 1_555 1_555
C50 C49 1_555 1_555
C51 C50 1_555 1_555
C52 C51 1_555 1_555
H27 C52 1_555 1_555
C53 C52 1_555 1_555
H28 C53 1_555 1_555
C54 C53 1_555 1_555
C55 C54 1_555 1_555
C56 C54 1_555 1_555
H29 C56 1_555 1_555
C57 C51 1_555 1_555
C58 C57 1_555 1_555
H30 C58 1_555 1_555
O16 C55 1_555 1_555
O17 C55 1_555 1_555
Zn11 O17 1_555 1_555
Zn13 O12 1_555 1_555
Zn17 O16 1_555 1_555
C56 C57 1_555 1_555
Zn1 O1 1_555 1_555
Zn2 O2 1_555 1_555
Zn3 O9 1_555 1_555
Zn4 O9 1_555 1_555
C1 C2 1_555 1_555
C2 C3 1_555 1_555
C3 H1 1_555 1_555
C4 C3 1_555 1_555
H2 C4 1_555 1_555
C5 C4 1_555 1_555
C6 C5 1_555 1_555
C7 C6 1_555 1_555
H3 C7 1_555 1_555
C8 C7 1_555 1_555
H4 C8 1_555 1_555
C9 C8 1_555 1_555
C10 C9 1_555 1_555
C11 C9 1_555 1_555
H5 C11 1_555 1_555
C12 C6 1_555 1_555
C13 C12 1_555 1_555
H6 C13 1_555 1_555
H7 C13 1_555 1_555
C14 C5 1_555 1_555
C15 C2 1_555 1_555
H8 C15 1_555 1_555
C16 C17 1_555 1_555
C17 C18 1_555 1_555
C18 H9 1_555 1_555
C19 C18 1_555 1_555
H10 C19 1_555 1_555
C20 C19 1_555 1_555
C21 C20 1_555 1_555
C22 C21 1_555 1_555
H11 C22 1_555 1_555
C23 C22 1_555 1_555
H12 C23 1_555 1_555
C24 C23 1_555 1_555
C25 C24 1_555 1_555
C26 C24 1_555 1_555
H13 C26 1_555 1_555
C27 C21 1_555 1_555
C28 C27 1_555 1_555
H14 C28 1_555 1_555
H15 C28 1_555 1_555
C29 C20 1_555 1_555
C30 C17 1_555 1_555
H16 C30 1_555 1_555
O1 C1 1_555 1_555
O2 C1 1_555 1_555
O3 C10 1_555 1_555
O4 C10 1_555 1_555
O5 Zn1 1_555 1_555
O6 Zn2 1_555 1_555
O7 C25 1_555 1_555
O8 C25 1_555 1_555
O9 Zn1 1_555 1_555
Zn5 O10 1_555 1_555
Zn6 O11 1_555 1_555
C31 C32 1_555 1_555
C32 C33 1_555 1_555
C33 H17 1_555 1_555
C34 C33 1_555 1_555
H18 C34 1_555 1_555
C35 C34 1_555 1_555
C36 C35 1_555 1_555
C37 C36 1_555 1_555
H19 C37 1_555 1_555
C38 C37 1_555 1_555
H20 C38 1_555 1_555
C39 C38 1_555 1_555
C40 C39 1_555 1_555
C41 C39 1_555 1_555
H21 C41 1_555 1_555
C42 C36 1_555 1_555
C43 C42 1_555 1_555
H22 C43 1_555 1_555
H23 C43 1_555 1_555
C44 C35 1_555 1_555
C45 C32 1_555 1_555
H24 C45 1_555 1_555
C46 C47 1_555 1_555
C60 C47 1_555 1_555
H32 C60 1_555 1_555
O10 C31 1_555 1_555
O11 C31 1_555 1_555
O13 C40 1_555 1_555
O14 Zn5 1_555 1_555
O15 Zn6 1_555 1_555
O18 Zn3 1_555 1_555
Zn7 O19 1_555 1_555
Zn8 O20 1_555 1_555
C61 C62 1_555 1_555
C62 C63 1_555 1_555
C63 H33 1_555 1_555
C64 C63 1_555 1_555
H34 C64 1_555 1_555
C65 C64 1_555 1_555
C66 C65 1_555 1_555
C67 C66 1_555 1_555
H35 C67 1_555 1_555
C68 C67 1_555 1_555
H36 C68 1_555 1_555
C69 C68 1_555 1_555
C70 C69 1_555 1_555
C71 C69 1_555 1_555
H37 C71 1_555 1_555
C72 C66 1_555 1_555
C73 C72 1_555 1_555
H38 C73 1_555 1_555
H39 C73 1_555 1_555
C74 C65 1_555 1_555
C75 C62 1_555 1_555
H40 C75 1_555 1_555
C76 C77 1_555 1_555
C90 C77 1_555 1_555
H48 C90 1_555 1_555
O19 C61 1_555 1_555
O20 C61 1_555 1_555
O22 C70 1_555 1_555
O23 Zn7 1_555 1_555
O24 Zn8 1_555 1_555
O27 Zn3 1_555 1_555
Zn10 O8 1_555 1_555
Zn12 O3 1_555 1_555
Zn17 O7 1_555 1_555
Zn20 O22 1_555 1_555
Zn20_2 O13 1_555 1_555
Zn20_4 O4 1_555 1_555
O28 Zn2 1_555 1_555
O29 Zn6 1_555 1_555
O30 Zn8 1_555 1_555
O31 Zn4 1_555 1_555
O32 Zn4 1_555 1_555
O33 Zn4 1_555 1_555
O34 Zn3 1_555 1_555
O35 Zn3 1_555 1_555
O36 Zn3 1_555 1_555
O37 Zn7 1_555 1_555
O38 Zn1 1_555 1_555
O39 Zn5 1_555 1_555
Zn2 O9 1_555 1_555
Zn4 O18 1_555 1_555
Zn4 O27 1_555 1_555
C11 C12 1_555 1_555
C13 C14 1_555 1_555
C14 C15 1_555 1_555
C16 O5 1_555 1_555
C16 O6 1_555 1_555
C26 C27 1_555 1_555
C28 C29 1_555 1_555
C29 C30 1_555 1_555
Zn5 O18 1_555 1_555
Zn6 O18 1_555 1_555
C41 C42 1_555 1_555
C43 C44 1_555 1_555
C44 C45 1_555 1_555
C46 O14 1_555 1_555
C46 O15 1_555 1_555
C59 C60 1_555 1_555
Zn7 O27 1_555 1_555
Zn8 O27 1_555 1_555
C71 C72 1_555 1_555
C73 C74 1_555 1_555
C74 C75 1_555 1_555
C76 O23 1_555 1_555
C76 O24 1_555 1_555
C89 C90 1_555 1_555
C78 H41 1_555 1_555
C79 C78 1_555 1_555
H42 C79 1_555 1_555
C80 C79 1_555 1_555
C81 C80 1_555 1_555
C82 C81 1_555 1_555
H43 C82 1_555 1_555
C83 C82 1_555 1_555
H44 C83 1_555 1_555
C84 C83 1_555 1_555
C85 C84 1_555 1_555
C86 C84 1_555 1_555
H45 C86 1_555 1_555
C87 C81 1_555 1_555
C88 C87 1_555 1_555
H46 C88 1_555 1_555
O25 C85 1_555 1_555
O26 C85 1_555 1_555
Zn9 O26 1_555 1_555
Zn14 O21 1_555 1_555
Zn17 O25 1_555 1_555
C86 C87 1_555 1_555
Zn2_2 O2_2 1_555 1_555
Zn3_2 O9_2 1_555 1_555
Zn4_2 O9_2 1_555 1_555
C1_2 C2_2 1_555 1_555
C2_2 C3_2 1_555 1_555
C3_2 H1_2 1_555 1_555
C4_2 C3_2 1_555 1_555
H2_2 C4_2 1_555 1_555
C5_2 C4_2 1_555 1_555
C6_2 C5_2 1_555 1_555
C7_2 C6_2 1_555 1_555
H3_2 C7_2 1_555 1_555
C8_2 C7_2 1_555 1_555
H4_2 C8_2 1_555 1_555
C9_2 C8_2 1_555 1_555
C10_2 C9_2 1_555 1_555
C11_2 C9_2 1_555 1_555
H5_2 C11_2 1_555 1_555
C12_2 C6_2 1_555 1_555
C13_2 C12_2 1_555 1_555
H6_2 C13_2 1_555 1_555
H7_2 C13_2 1_555 1_555
C14_2 C5_2 1_555 1_555
C15_2 C2_2 1_555 1_555
H8_2 C15_2 1_555 1_555
O1_2 C1_2 1_555 1_555
O2_2 C1_2 1_555 1_555
O3_2 C10_2 1_555 1_555
O4_2 C10_2 1_555 1_555
O6_2 Zn2_2 1_555 1_555
C46_2 C47_2 1_555 1_555
C47_2 C48_2 1_555 1_555
C48_2 H25_2 1_555 1_555
C49_2 C48_2 1_555 1_555
H26_2 C49_2 1_555 1_555
C50_2 C49_2 1_555 1_555
C51_2 C50_2 1_555 1_555
C52_2 C51_2 1_555 1_555
H27_2 C52_2 1_555 1_555
C53_2 C52_2 1_555 1_555
H28_2 C53_2 1_555 1_555
C54_2 C53_2 1_555 1_555
C55_2 C54_2 1_555 1_555
C56_2 C54_2 1_555 1_555
H29_2 C56_2 1_555 1_555
C57_2 C51_2 1_555 1_555
C58_2 C57_2 1_555 1_555
H30_2 C58_2 1_555 1_555
H31_2 C58_2 1_555 1_555
C59_2 C50_2 1_555 1_555
C60_2 C47_2 1_555 1_555
H32_2 C60_2 1_555 1_555
O14_2 Zn5_2 1_555 1_555
O16_2 C55_2 1_555 1_555
O17_2 C55_2 1_555 1_555
Zn11_2 O17_2 1_555 1_555
Zn12_2 O3_2 1_555 1_555
Zn17_2 O16_2 1_555 1_555
Zn20_5 O4_2 1_555 1_555
O28_2 Zn2_2 1_555 1_555
O31_2 Zn4_2 1_555 1_555
O36_2 Zn3_2 1_555 1_555
O39_2 Zn5_2 1_555 1_555
Zn2_2 O9_2 1_555 1_555
C11_2 C12_2 1_555 1_555
C13_2 C14_2 1_555 1_555
C14_2 C15_2 1_555 1_555
C46_2 O14_2 1_555 1_555
C56_2 C57_2 1_555 1_555
C58_2 C59_2 1_555 1_555
C59_2 C60_2 1_555 1_555
C16_2 C17_2 1_555 1_555
C17_2 C18_2 1_555 1_555
C18_2 H9_2 1_555 1_555
C19_2 C18_2 1_555 1_555
H10_2 C19_2 1_555 1_555
C20_2 C19_2 1_555 1_555
C21_2 C20_2 1_555 1_555
C22_2 C21_2 1_555 1_555
H11_2 C22_2 1_555 1_555
C23_2 C22_2 1_555 1_555
H12_2 C23_2 1_555 1_555
C24_2 C23_2 1_555 1_555
C25_2 C24_2 1_555 1_555
C26_2 C24_2 1_555 1_555
H13_2 C26_2 1_555 1_555
C27_2 C21_2 1_555 1_555
C28_2 C27_2 1_555 1_555
H14_2 C28_2 1_555 1_555
H15_2 C28_2 1_555 1_555
C29_2 C20_2 1_555 1_555
C30_2 C17_2 1_555 1_555
H16_2 C30_2 1_555 1_555
O5_2 Zn1_2 1_555 1_555
O7_2 C25_2 1_555 1_555
O8_2 C25_2 1_555 1_555
Zn10_2 O8_2 1_555 1_555
Zn17_2 O7_2 1_555 1_555
O33_2 Zn4_3 1_555 1_555
O38_2 Zn1_2 1_555 1_555
C16_2 O5_2 1_555 1_555
C26_2 C27_2 1_555 1_555
C28_2 C29_2 1_555 1_555
C29_2 C30_2 1_555 1_555
Zn6_2 O11_2 1_555 1_555
C31_2 C32_2 1_555 1_555
C32_2 C33_2 1_555 1_555
C33_2 H17_2 1_555 1_555
C34_2 C33_2 1_555 1_555
H18_2 C34_2 1_555 1_555
C35_2 C34_2 1_555 1_555
C36_2 C35_2 1_555 1_555
C37_2 C36_2 1_555 1_555
H19_2 C37_2 1_555 1_555
C38_2 C37_2 1_555 1_555
H20_2 C38_2 1_555 1_555
C39_2 C38_2 1_555 1_555
C40_2 C39_2 1_555 1_555
C41_2 C39_2 1_555 1_555
H21_2 C41_2 1_555 1_555
C42_2 C36_2 1_555 1_555
C43_2 C42_2 1_555 1_555
H22_2 C43_2 1_555 1_555
H23_2 C43_2 1_555 1_555
C44_2 C35_2 1_555 1_555
C45_2 C32_2 1_555 1_555
H24_2 C45_2 1_555 1_555
O10_2 C31_2 1_555 1_555
O11_2 C31_2 1_555 1_555
O12_2 C40_2 1_555 1_555
O13_2 C40_2 1_555 1_555
O15_2 Zn6_2 1_555 1_555
O18_2 Zn3_4 1_555 1_555
Zn13_2 O12_2 1_555 1_555
Zn20_5 O13_2 1_555 1_555
O29_2 Zn6_2 1_555 1_555
O34_2 Zn3_4 1_555 1_555
Zn4_4 O18_2 1_555 1_555
Zn6_2 O18_2 1_555 1_555
C41_2 C42_2 1_555 1_555
C43_2 C44_2 1_555 1_555
C44_2 C45_2 1_555 1_555
Zn7_2 O19_2 1_555 1_555
Zn8_2 O20_2 1_555 1_555
C61_2 C62_2 1_555 1_555
C62_2 C63_2 1_555 1_555
C63_2 H33_2 1_555 1_555
C64_2 C63_2 1_555 1_555
H34_2 C64_2 1_555 1_555
C65_2 C64_2 1_555 1_555
C66_2 C65_2 1_555 1_555
C67_2 C66_2 1_555 1_555
H35_2 C67_2 1_555 1_555
C68_2 C67_2 1_555 1_555
H36_2 C68_2 1_555 1_555
C69_2 C68_2 1_555 1_555
C70_2 C69_2 1_555 1_555
C71_2 C69_2 1_555 1_555
H37_2 C71_2 1_555 1_555
C72_2 C66_2 1_555 1_555
C73_2 C72_2 1_555 1_555
H38_2 C73_2 1_555 1_555
H39_2 C73_2 1_555 1_555
C74_2 C65_2 1_555 1_555
C75_2 C62_2 1_555 1_555
H40_2 C75_2 1_555 1_555
C76_2 C77_2 1_555 1_555
C77_2 C78_2 1_555 1_555
C78_2 H41_2 1_555 1_555
C79_2 C78_2 1_555 1_555
H42_2 C79_2 1_555 1_555
C80_2 C79_2 1_555 1_555
C81_2 C80_2 1_555 1_555
C82_2 C81_2 1_555 1_555
H43_2 C82_2 1_555 1_555
C83_2 C82_2 1_555 1_555
H44_2 C83_2 1_555 1_555
C84_2 C83_2 1_555 1_555
C85_2 C84_2 1_555 1_555
C86_2 C84_2 1_555 1_555
H45_2 C86_2 1_555 1_555
C87_2 C81_2 1_555 1_555
C88_2 C87_2 1_555 1_555
H46_2 C88_2 1_555 1_555
H47_2 C88_2 1_555 1_555
C89_2 C80_2 1_555 1_555
C90_2 C77_2 1_555 1_555
H48_2 C90_2 1_555 1_555
O19_2 C61_2 1_555 1_555
O20_2 C61_2 1_555 1_555
O21_2 C70_2 1_555 1_555
O22_2 C70_2 1_555 1_555
O23_2 Zn7_2 1_555 1_555
O24_2 Zn8_2 1_555 1_555
O25_2 C85_2 1_555 1_555
O26_2 C85_2 1_555 1_555
O27_2 Zn3_5 1_555 1_555
Zn9_2 O26_2 1_555 1_555
Zn14_2 O21_2 1_555 1_555
Zn17_2 O25_2 1_555 1_555
Zn20_5 O22_2 1_555 1_555
O30_2 Zn8_2 1_555 1_555
O32_2 Zn4_5 1_555 1_555
O35_2 Zn3_5 1_555 1_555
O37_2 Zn7_2 1_555 1_555
Zn4_5 O27_2 1_555 1_555
Zn7_2 O27_2 1_555 1_555
Zn8_2 O27_2 1_555 1_555
C71_2 C72_2 1_555 1_555
C73_2 C74_2 1_555 1_555
C74_2 C75_2 1_555 1_555
C76_2 O23_2 1_555 1_555
C76_2 O24_2 1_555 1_555
C86_2 C87_2 1_555 1_555
C88_2 C89_2 1_555 1_555
C89_2 C90_2 1_555 1_555
O8_3 C25_3 1_555 1_555
Zn10_3 O8_3 1_555 1_555
H2_3 C4_3 1_555 1_555
C5_3 C4_3 1_555 1_555
C6_3 C5_3 1_555 1_555
C7_3 C6_3 1_555 1_555
H3_3 C7_3 1_555 1_555
C8_3 C7_3 1_555 1_555
H4_3 C8_3 1_555 1_555
C9_3 C8_3 1_555 1_555
C10_3 C9_3 1_555 1_555
C11_3 C9_3 1_555 1_555
H5_3 C11_3 1_555 1_555
C12_3 C6_3 1_555 1_555
C13_3 C12_3 1_555 1_555
H7_3 C13_3 1_555 1_555
O3_3 C10_3 1_555 1_555
O4_3 C10_3 1_555 1_555
Zn12_3 O3_3 1_555 1_555
Zn20_6 O4_3 1_555 1_555
C11_3 C12_3 1_555 1_555
C22_3 C21_3 1_555 1_555
H11_3 C22_3 1_555 1_555
C23_3 C22_3 1_555 1_555
H12_3 C23_3 1_555 1_555
C24_3 C23_3 1_555 1_555
C26_3 C24_3 1_555 1_555
H13_3 C26_3 1_555 1_555
C27_3 C21_3 1_555 1_555
C28_3 C27_3 1_555 1_555
H14_3 C28_3 1_555 1_555
H15_3 C28_3 1_555 1_555
C52_3 C51_3 1_555 1_555
H27_3 C52_3 1_555 1_555
C53_3 C52_3 1_555 1_555
H28_3 C53_3 1_555 1_555
C54_3 C53_3 1_555 1_555
C55_3 C54_3 1_555 1_555
C56_3 C54_3 1_555 1_555
H29_3 C56_3 1_555 1_555
C57_3 C51_3 1_555 1_555
C58_3 C57_3 1_555 1_555
H30_3 C58_3 1_555 1_555
H31_3 C58_3 1_555 1_555
O16_3 C55_3 1_555 1_555
O17_3 C55_3 1_555 1_555
C82_3 C81_3 1_555 1_555
H43_3 C82_3 1_555 1_555
C83_3 C82_3 1_555 1_555
H44_3 C83_3 1_555 1_555
C84_3 C83_3 1_555 1_555
C86_3 C84_3 1_555 1_555
H45_3 C86_3 1_555 1_555
C87_3 C81_3 1_555 1_555
C88_3 C87_3 1_555 1_555
H46_3 C88_3 1_555 1_555
H47_3 C88_3 1_555 1_555
Zn11_3 O17_3 1_555 1_555
Zn17_3 O25_3 1_555 1_555
Zn17_5 O7_3 1_555 1_555
Zn17_6 O16_3 1_555 1_555
C26_3 C27_3 1_555 1_555
C56_3 C57_3 1_555 1_555
C86_3 C87_3 1_555 1_555
Zn1_3 O1_3 1_555 1_555
Zn2_3 O2_3 1_555 1_555
Zn3_6 O9_3 1_555 1_555
Zn4_6 O9_3 1_555 1_555
C1_3 C2_3 1_555 1_555
C2_3 C3_3 1_555 1_555
C3_3 H1_3 1_555 1_555
C15_3 C2_3 1_555 1_555
H8_3 C15_3 1_555 1_555
C16_3 C17_3 1_555 1_555
C17_3 C18_3 1_555 1_555
C18_3 H9_3 1_555 1_555
C19_3 C18_3 1_555 1_555
H10_3 C19_3 1_555 1_555
C20_3 C19_3 1_555 1_555
C29_3 C20_3 1_555 1_555
C30_3 C17_3 1_555 1_555
H16_3 C30_3 1_555 1_555
O1_3 C1_3 1_555 1_555
O2_3 C1_3 1_555 1_555
O5_3 Zn1_3 1_555 1_555
O6_3 Zn2_3 1_555 1_555
O9_3 Zn1_3 1_555 1_555
Zn5_3 O10_3 1_555 1_555
Zn6_3 O11_3 1_555 1_555
C31_3 C32_3 1_555 1_555
C32_3 C33_3 1_555 1_555
C33_3 H17_3 1_555 1_555
C34_3 C33_3 1_555 1_555
H18_3 C34_3 1_555 1_555
C35_3 C34_3 1_555 1_555
C36_3 C35_3 1_555 1_555
C37_3 C36_3 1_555 1_555
H19_3 C37_3 1_555 1_555
C38_3 C37_3 1_555 1_555
H20_3 C38_3 1_555 1_555
C39_3 C38_3 1_555 1_555
C40_3 C39_3 1_555 1_555
C41_3 C39_3 1_555 1_555
H21_3 C41_3 1_555 1_555
C42_3 C36_3 1_555 1_555
C43_3 C42_3 1_555 1_555
H22_3 C43_3 1_555 1_555
H23_3 C43_3 1_555 1_555
C44_3 C35_3 1_555 1_555
C45_3 C32_3 1_555 1_555
H24_3 C45_3 1_555 1_555
C46_3 C47_3 1_555 1_555
C47_3 C48_3 1_555 1_555
C48_3 H25_3 1_555 1_555
C49_3 C48_3 1_555 1_555
H26_3 C49_3 1_555 1_555
C50_3 C49_3 1_555 1_555
C59_3 C50_3 1_555 1_555
C60_3 C47_3 1_555 1_555
H32_3 C60_3 1_555 1_555
O10_3 C31_3 1_555 1_555
O11_3 C31_3 1_555 1_555
O12_3 C40_3 1_555 1_555
O13_3 C40_3 1_555 1_555
O14_3 Zn5_3 1_555 1_555
O15_3 Zn6_3 1_555 1_555
O18_3 Zn3_6 1_555 1_555
Zn7_3 O19_3 1_555 1_555
Zn8_3 O20_3 1_555 1_555
C61_3 C62_3 1_555 1_555
C62_3 C63_3 1_555 1_555
C63_3 H33_3 1_555 1_555
C75_3 C62_3 1_555 1_555
H40_3 C75_3 1_555 1_555
C76_3 C77_3 1_555 1_555
C77_3 C78_3 1_555 1_555
C78_3 H41_3 1_555 1_555
C79_3 C78_3 1_555 1_555
H42_3 C79_3 1_555 1_555
C80_3 C79_3 1_555 1_555
C89_3 C80_3 1_555 1_555
C90_3 C77_3 1_555 1_555
H48_3 C90_3 1_555 1_555
O19_3 C61_3 1_555 1_555
O20_3 C61_3 1_555 1_555
O23_3 Zn7_3 1_555 1_555
O24_3 Zn8_3 1_555 1_555
O27_3 Zn3_6 1_555 1_555
Zn13_3 O12_3 1_555 1_555
Zn20_6 O13_3 1_555 1_555
O28_3 Zn2_3 1_555 1_555
O29_3 Zn6_3 1_555 1_555
O30_3 Zn8_3 1_555 1_555
O31_3 Zn4_6 1_555 1_555
O32_3 Zn4_6 1_555 1_555
O33_3 Zn4_6 1_555 1_555
O34_3 Zn3_6 1_555 1_555
O35_3 Zn3_6 1_555 1_555
O36_3 Zn3_6 1_555 1_555
O37_3 Zn7_3 1_555 1_555
O38_3 Zn1_3 1_555 1_555
O39_3 Zn5_3 1_555 1_555
Zn2_3 O9_3 1_555 1_555
Zn4_6 O18_3 1_555 1_555
Zn4_6 O27_3 1_555 1_555
C14_3 C15_3 1_555 1_555
C16_3 O5_3 1_555 1_555
C16_3 O6_3 1_555 1_555
C29_3 C30_3 1_555 1_555
Zn5_3 O18_3 1_555 1_555
Zn6_3 O18_3 1_555 1_555
C41_3 C42_3 1_555 1_555
C43_3 C44_3 1_555 1_555
C44_3 C45_3 1_555 1_555
C46_3 O14_3 1_555 1_555
C46_3 O15_3 1_555 1_555
C59_3 C60_3 1_555 1_555
Zn7_3 O27_3 1_555 1_555
Zn8_3 O27_3 1_555 1_555
C74_3 C75_3 1_555 1_555
C76_3 O23_3 1_555 1_555
C76_3 O24_3 1_555 1_555
C89_3 C90_3 1_555 1_555
O26_3 C85_3 1_555 1_555
Zn9_3 O26_3 1_555 1_555
H34_3 C64_3 1_555 1_555
C65_3 C64_3 1_555 1_555
C66_3 C65_3 1_555 1_555
C67_3 C66_3 1_555 1_555
H35_3 C67_3 1_555 1_555
C68_3 C67_3 1_555 1_555
H36_3 C68_3 1_555 1_555
C69_3 C68_3 1_555 1_555
C70_3 C69_3 1_555 1_555
C71_3 C69_3 1_555 1_555
H37_3 C71_3 1_555 1_555
C72_3 C66_3 1_555 1_555
C73_3 C72_3 1_555 1_555
H39_3 C73_3 1_555 1_555
O21_3 C70_3 1_555 1_555
O22_3 C70_3 1_555 1_555
Zn14_3 O21_3 1_555 1_555
Zn20_6 O22_3 1_555 1_555
C71_3 C72_3 1_555 1_555
C78_4 H41_4 1_555 1_555
C79_4 C78_4 1_555 1_555
H42_4 C79_4 1_555 1_555
C80_4 C79_4 1_555 1_555
C81_4 C80_4 1_555 1_555
C82_4 C81_4 1_555 1_555
H43_4 C82_4 1_555 1_555
C83_4 C82_4 1_555 1_555
H44_4 C83_4 1_555 1_555
C84_4 C83_4 1_555 1_555
C85_4 C84_4 1_555 1_555
C86_4 C84_4 1_555 1_555
H45_4 C86_4 1_555 1_555
C87_4 C81_4 1_555 1_555
C88_4 C87_4 1_555 1_555
H46_4 C88_4 1_555 1_555
O35_3 C85_4 1_555 1_555
O38_3 C85_4 1_555 1_555
C86_4 C87_4 1_555 1_555
Zn9_2 O1_4 1_555 1_555
Zn12_3 O2_4 1_555 1_555
Zn17_2 O9_4 1_555 1_555
Zn20_6 O9_4 1_555 1_555
C1_4 C2_4 1_555 1_555
C2_4 C3_4 1_555 1_555
C3_4 H1_4 1_555 1_555
C4_4 C3_4 1_555 1_555
H2_4 C4_4 1_555 1_555
C5_4 C4_4 1_555 1_555
C6_4 C5_4 1_555 1_555
C7_4 C6_4 1_555 1_555
H3_4 C7_4 1_555 1_555
C8_4 C7_4 1_555 1_555
H4_4 C8_4 1_555 1_555
C9_4 C8_4 1_555 1_555
C10_4 C9_4 1_555 1_555
C11_4 C9_4 1_555 1_555
H5_4 C11_4 1_555 1_555
C12_4 C6_4 1_555 1_555
C13_4 C12_4 1_555 1_555
H6_4 C13_4 1_555 1_555
H7_4 C13_4 1_555 1_555
C14_4 C5_4 1_555 1_555
C15_4 C2_4 1_555 1_555
H8_4 C15_4 1_555 1_555
C16_4 C17_4 1_555 1_555
C17_4 C18_4 1_555 1_555
C18_4 H9_4 1_555 1_555
C19_4 C18_4 1_555 1_555
H10_4 C19_4 1_555 1_555
C20_4 C19_4 1_555 1_555
C21_4 C20_4 1_555 1_555
C22_4 C21_4 1_555 1_555
H11_4 C22_4 1_555 1_555
C23_4 C22_4 1_555 1_555
H12_4 C23_4 1_555 1_555
C24_4 C23_4 1_555 1_555
C25_4 C24_4 1_555 1_555
C26_4 C24_4 1_555 1_555
H13_4 C26_4 1_555 1_555
C27_4 C21_4 1_555 1_555
C28_4 C27_4 1_555 1_555
H14_4 C28_4 1_555 1_555
H15_4 C28_4 1_555 1_555
C29_4 C20_4 1_555 1_555
C30_4 C17_4 1_555 1_555
H16_4 C30_4 1_555 1_555
O1_4 C1_4 1_555 1_555
O2_4 C1_4 1_555 1_555
O28_2 C10_4 1_555 1_555
O31_2 C10_4 1_555 1_555
O5_4 Zn9_2 1_555 1_555
O6_4 Zn12_3 1_555 1_555
O34_3 C25_4 1_555 1_555
O37_3 C25_4 1_555 1_555
O9_4 Zn9_2 1_555 1_555
Zn11_2 O10_4 1_555 1_555
Zn14_3 O11_4 1_555 1_555
C31_4 C32_4 1_555 1_555
C32_4 C33_4 1_555 1_555
C33_4 H17_4 1_555 1_555
C34_4 C33_4 1_555 1_555
H18_4 C34_4 1_555 1_555
C35_4 C34_4 1_555 1_555
C36_4 C35_4 1_555 1_555
C37_4 C36_4 1_555 1_555
H19_4 C37_4 1_555 1_555
C38_4 C37_4 1_555 1_555
H20_4 C38_4 1_555 1_555
C39_4 C38_4 1_555 1_555
C40_4 C39_4 1_555 1_555
C41_4 C39_4 1_555 1_555
H21_4 C41_4 1_555 1_555
C42_4 C36_4 1_555 1_555
C43_4 C42_4 1_555 1_555
H22_4 C43_4 1_555 1_555
H23_4 C43_4 1_555 1_555
C44_4 C35_4 1_555 1_555
C45_4 C32_4 1_555 1_555
H24_4 C45_4 1_555 1_555
C46_4 C47_4 1_555 1_555
C60_4 C47_4 1_555 1_555
H32_4 C60_4 1_555 1_555
O10_4 C31_4 1_555 1_555
O11_4 C31_4 1_555 1_555
O33_2 C40_4 1_555 1_555
O14_4 Zn11_2 1_555 1_555
O15_4 Zn14_3 1_555 1_555
O18_4 Zn17_2 1_555 1_555
Zn10_2 O19_4 1_555 1_555
Zn13_3 O20_4 1_555 1_555
C61_4 C62_4 1_555 1_555
C62_4 C63_4 1_555 1_555
C63_4 H33_4 1_555 1_555
C64_4 C63_4 1_555 1_555
H34_4 C64_4 1_555 1_555
C65_4 C64_4 1_555 1_555
C66_4 C65_4 1_555 1_555
C67_4 C66_4 1_555 1_555
H35_4 C67_4 1_555 1_555
C68_4 C67_4 1_555 1_555
H36_4 C68_4 1_555 1_555
C69_4 C68_4 1_555 1_555
C70_4 C69_4 1_555 1_555
C71_4 C69_4 1_555 1_555
H37_4 C71_4 1_555 1_555
C72_4 C66_4 1_555 1_555
C73_4 C72_4 1_555 1_555
H38_4 C73_4 1_555 1_555
H39_4 C73_4 1_555 1_555
C74_4 C65_4 1_555 1_555
C75_4 C62_4 1_555 1_555
H40_4 C75_4 1_555 1_555
C76_4 C77_4 1_555 1_555
C90_4 C77_4 1_555 1_555
H48_4 C90_4 1_555 1_555
O19_4 C61_4 1_555 1_555
O20_4 C61_4 1_555 1_555
O32_2 C70_4 1_555 1_555
O23_4 Zn10_2 1_555 1_555
O24_4 Zn13_3 1_555 1_555
O27_4 Zn17_2 1_555 1_555
Zn12_3 O9_4 1_555 1_555
Zn20_6 O18_4 1_555 1_555
Zn20_6 O27_4 1_555 1_555
C11_4 C12_4 1_555 1_555
C13_4 C14_4 1_555 1_555
C14_4 C15_4 1_555 1_555
C16_4 O5_4 1_555 1_555
C16_4 O6_4 1_555 1_555
C26_4 C27_4 1_555 1_555
C28_4 C29_4 1_555 1_555
C29_4 C30_4 1_555 1_555
Zn11_2 O18_4 1_555 1_555
Zn14_3 O18_4 1_555 1_555
C41_4 C42_4 1_555 1_555
C43_4 C44_4 1_555 1_555
C44_4 C45_4 1_555 1_555
C46_4 O14_4 1_555 1_555
C46_4 O15_4 1_555 1_555
C59_4 C60_4 1_555 1_555
Zn10_2 O27_4 1_555 1_555
Zn13_3 O27_4 1_555 1_555
C71_4 C72_4 1_555 1_555
C73_4 C74_4 1_555 1_555
C74_4 C75_4 1_555 1_555
C76_4 O23_4 1_555 1_555
C76_4 O24_4 1_555 1_555
C89_4 C90_4 1_555 1_555
C48_4 H25_4 1_555 1_555
C49_4 C48_4 1_555 1_555
H26_4 C49_4 1_555 1_555
C50_4 C49_4 1_555 1_555
C51_4 C50_4 1_555 1_555
C52_4 C51_4 1_555 1_555
H27_4 C52_4 1_555 1_555
C53_4 C52_4 1_555 1_555
H28_4 C53_4 1_555 1_555
C54_4 C53_4 1_555 1_555
C55_4 C54_4 1_555 1_555
C56_4 C54_4 1_555 1_555
H29_4 C56_4 1_555 1_555
C57_4 C51_4 1_555 1_555
C58_4 C57_4 1_555 1_555
H30_4 C58_4 1_555 1_555
O36_3 C55_4 1_555 1_555
O39_3 C55_4 1_555 1_555
C56_4 C57_4 1_555 1_555
H34_5 C64_5 1_555 1_555
C65_5 C64_5 1_555 1_555
C66_5 C65_5 1_555 1_555
C67_5 C66_5 1_555 1_555
H35_5 C67_5 1_555 1_555
C68_5 C67_5 1_555 1_555
H36_5 C68_5 1_555 1_555
C69_5 C68_5 1_555 1_555
C70_5 C69_5 1_555 1_555
C71_5 C69_5 1_555 1_555
H37_5 C71_5 1_555 1_555
C72_5 C66_5 1_555 1_555
C73_5 C72_5 1_555 1_555
H39_5 C73_5 1_555 1_555
O29 C70_5 1_555 1_555
O32 C70_5 1_555 1_555
O38_2 C85_5 1_555 1_555
C71_5 C72_5 1_555 1_555
Zn9 O1_5 1_555 1_555
Zn12_2 O2_5 1_555 1_555
Zn17 O9_5 1_555 1_555
Zn20_5 O9_5 1_555 1_555
C1_5 C2_5 1_555 1_555
C2_5 C3_5 1_555 1_555
C3_5 H1_5 1_555 1_555
C15_5 C2_5 1_555 1_555
H8_5 C15_5 1_555 1_555
C16_5 C17_5 1_555 1_555
C17_5 C18_5 1_555 1_555
C18_5 H9_5 1_555 1_555
C19_5 C18_5 1_555 1_555
H10_5 C19_5 1_555 1_555
C20_5 C19_5 1_555 1_555
C21_5 C20_5 1_555 1_555
C22_5 C21_5 1_555 1_555
H11_5 C22_5 1_555 1_555
C23_5 C22_5 1_555 1_555
H12_5 C23_5 1_555 1_555
C24_5 C23_5 1_555 1_555
C26_5 C24_5 1_555 1_555
H13_5 C26_5 1_555 1_555
C27_5 C21_5 1_555 1_555
C28_5 C27_5 1_555 1_555
H14_5 C28_5 1_555 1_555
H15_5 C28_5 1_555 1_555
C29_5 C20_5 1_555 1_555
C30_5 C17_5 1_555 1_555
H16_5 C30_5 1_555 1_555
O1_5 C1_5 1_555 1_555
O2_5 C1_5 1_555 1_555
O5_5 Zn9 1_555 1_555
O6_5 Zn12_2 1_555 1_555
O9_5 Zn9 1_555 1_555
Zn11 O10_5 1_555 1_555
Zn14_2 O11_5 1_555 1_555
C31_5 C32_5 1_555 1_555
C32_5 C33_5 1_555 1_555
C33_5 H17_5 1_555 1_555
C34_5 C33_5 1_555 1_555
H18_5 C34_5 1_555 1_555
C35_5 C34_5 1_555 1_555
C36_5 C35_5 1_555 1_555
C37_5 C36_5 1_555 1_555
H19_5 C37_5 1_555 1_555
C38_5 C37_5 1_555 1_555
H20_5 C38_5 1_555 1_555
C39_5 C38_5 1_555 1_555
C40_5 C39_5 1_555 1_555
C41_5 C39_5 1_555 1_555
H21_5 C41_5 1_555 1_555
C42_5 C36_5 1_555 1_555
C43_5 C42_5 1_555 1_555
H22_5 C43_5 1_555 1_555
H23_5 C43_5 1_555 1_555
C44_5 C35_5 1_555 1_555
C45_5 C32_5 1_555 1_555
H24_5 C45_5 1_555 1_555
C46_5 C47_5 1_555 1_555
C47_5 C48_5 1_555 1_555
C48_5 H25_5 1_555 1_555
C49_5 C48_5 1_555 1_555
H26_5 C49_5 1_555 1_555
C50_5 C49_5 1_555 1_555
C51_5 C50_5 1_555 1_555
C52_5 C51_5 1_555 1_555
H27_5 C52_5 1_555 1_555
C53_5 C52_5 1_555 1_555
H28_5 C53_5 1_555 1_555
C54_5 C53_5 1_555 1_555
C55_5 C54_5 1_555 1_555
C56_5 C54_5 1_555 1_555
H29_5 C56_5 1_555 1_555
C57_5 C51_5 1_555 1_555
C58_5 C57_5 1_555 1_555
H30_5 C58_5 1_555 1_555
H31_5 C58_5 1_555 1_555
C59_5 C50_5 1_555 1_555
C60_5 C47_5 1_555 1_555
H32_5 C60_5 1_555 1_555
O10_5 C31_5 1_555 1_555
O11_5 C31_5 1_555 1_555
O30 C40_5 1_555 1_555
O33 C40_5 1_555 1_555
O14_5 Zn11 1_555 1_555
O15_5 Zn14_2 1_555 1_555
O36_2 C55_5 1_555 1_555
O39_2 C55_5 1_555 1_555
O18_5 Zn17 1_555 1_555
Zn10 O19_5 1_555 1_555
Zn13_2 O20_5 1_555 1_555
C61_5 C62_5 1_555 1_555
C62_5 C63_5 1_555 1_555
C63_5 H33_5 1_555 1_555
C75_5 C62_5 1_555 1_555
H40_5 C75_5 1_555 1_555
C76_5 C77_5 1_555 1_555
C77_5 C78_5 1_555 1_555
C78_5 H41_5 1_555 1_555
C79_5 C78_5 1_555 1_555
H42_5 C79_5 1_555 1_555
C80_5 C79_5 1_555 1_555
C81_5 C80_5 1_555 1_555
C82_5 C81_5 1_555 1_555
H43_5 C82_5 1_555 1_555
C83_5 C82_5 1_555 1_555
H44_5 C83_5 1_555 1_555
C84_5 C83_5 1_555 1_555
C86_5 C84_5 1_555 1_555
H45_5 C86_5 1_555 1_555
C87_5 C81_5 1_555 1_555
C88_5 C87_5 1_555 1_555
H46_5 C88_5 1_555 1_555
H47_5 C88_5 1_555 1_555
C89_5 C80_5 1_555 1_555
C90_5 C77_5 1_555 1_555
H48_5 C90_5 1_555 1_555
O19_5 C61_5 1_555 1_555
O20_5 C61_5 1_555 1_555
O23_5 Zn10 1_555 1_555
O24_5 Zn13_2 1_555 1_555
O27_5 Zn17 1_555 1_555
Zn12_2 O9_5 1_555 1_555
Zn20_5 O18_5 1_555 1_555
Zn20_5 O27_5 1_555 1_555
C14_5 C15_5 1_555 1_555
C16_5 O5_5 1_555 1_555
C16_5 O6_5 1_555 1_555
C26_5 C27_5 1_555 1_555
C28_5 C29_5 1_555 1_555
C29_5 C30_5 1_555 1_555
Zn11 O18_5 1_555 1_555
Zn14_2 O18_5 1_555 1_555
C41_5 C42_5 1_555 1_555
C43_5 C44_5 1_555 1_555
C44_5 C45_5 1_555 1_555
C46_5 O14_5 1_555 1_555
C46_5 O15_5 1_555 1_555
C56_5 C57_5 1_555 1_555
C58_5 C59_5 1_555 1_555
C59_5 C60_5 1_555 1_555
Zn10 O27_5 1_555 1_555
Zn13_2 O27_5 1_555 1_555
C74_5 C75_5 1_555 1_555
C76_5 O23_5 1_555 1_555
C76_5 O24_5 1_555 1_555
C86_5 C87_5 1_555 1_555
C88_5 C89_5 1_555 1_555
C89_5 C90_5 1_555 1_555
H2_5 C4_5 1_555 1_555
C5_5 C4_5 1_555 1_555
C6_5 C5_5 1_555 1_555
C7_5 C6_5 1_555 1_555
H3_5 C7_5 1_555 1_555
C8_5 C7_5 1_555 1_555
H4_5 C8_5 1_555 1_555
C9_5 C8_5 1_555 1_555
C10_5 C9_5 1_555 1_555
C11_5 C9_5 1_555 1_555
H5_5 C11_5 1_555 1_555
C12_5 C6_5 1_555 1_555
C13_5 C12_5 1_555 1_555
H7_5 C13_5 1_555 1_555
O28 C10_5 1_555 1_555
O31 C10_5 1_555 1_555
O37_2 C25_5 1_555 1_555
C11_5 C12_5 1_555 1_555
Zn10_3 O19_6 1_555 1_555
Zn13 O20_6 1_555 1_555
C61_6 C62_6 1_555 1_555
C62_6 C63_6 1_555 1_555
C63_6 H33_6 1_555 1_555
C64_6 C63_6 1_555 1_555
H34_6 C64_6 1_555 1_555
C65_6 C64_6 1_555 1_555
C66_6 C65_6 1_555 1_555
C67_6 C66_6 1_555 1_555
H35_6 C67_6 1_555 1_555
C68_6 C67_6 1_555 1_555
C72_6 C66_6 1_555 1_555
C73_6 C72_6 1_555 1_555
H38_6 C73_6 1_555 1_555
H39_6 C73_6 1_555 1_555
C74_6 C65_6 1_555 1_555
C75_6 C62_6 1_555 1_555
H40_6 C75_6 1_555 1_555
C76_6 C77_6 1_555 1_555
C77_6 C78_6 1_555 1_555
C78_6 H41_6 1_555 1_555
C79_6 C78_6 1_555 1_555
H42_6 C79_6 1_555 1_555
C80_6 C79_6 1_555 1_555
C81_6 C80_6 1_555 1_555
C82_6 C81_6 1_555 1_555
H43_6 C82_6 1_555 1_555
C83_6 C82_6 1_555 1_555
H44_6 C83_6 1_555 1_555
C84_6 C83_6 1_555 1_555
C85_6 C84_6 1_555 1_555
C86_6 C84_6 1_555 1_555
H45_6 C86_6 1_555 1_555
C87_6 C81_6 1_555 1_555
C88_6 C87_6 1_555 1_555
H46_6 C88_6 1_555 1_555
H47_6 C88_6 1_555 1_555
C89_6 C80_6 1_555 1_555
C90_6 C77_6 1_555 1_555
H48_6 C90_6 1_555 1_555
O19_6 C61_6 1_555 1_555
O20_6 C61_6 1_555 1_555
O23_6 Zn10_3 1_555 1_555
O24_6 Zn13 1_555 1_555
O35 C85_6 1_555 1_555
O38 C85_6 1_555 1_555
O27_6 Zn17_3 1_555 1_555
Zn20 O27_6 1_555 1_555
Zn10_3 O27_6 1_555 1_555
Zn13 O27_6 1_555 1_555
C73_6 C74_6 1_555 1_555
C74_6 C75_6 1_555 1_555
C76_6 O23_6 1_555 1_555
C76_6 O24_6 1_555 1_555
C86_6 C87_6 1_555 1_555
C88_6 C89_6 1_555 1_555
C89_6 C90_6 1_555 1_555
C70_6 C69_6 1_555 1_555
C71_6 C69_6 1_555 1_555
H37_6 C71_6 1_555 1_555
O29_3 C70_6 1_555 1_555
O32_3 C70_6 1_555 1_555
C16_6 C17_6 1_555 1_555
C17_6 C18_6 1_555 1_555
C18_6 H9_6 1_555 1_555
C19_6 C18_6 1_555 1_555
H10_6 C19_6 1_555 1_555
C20_6 C19_6 1_555 1_555
C21_6 C20_6 1_555 1_555
C22_6 C21_6 1_555 1_555
H11_6 C22_6 1_555 1_555
C23_6 C22_6 1_555 1_555
H12_6 C23_6 1_555 1_555
C24_6 C23_6 1_555 1_555
C25_6 C24_6 1_555 1_555
C26_6 C24_6 1_555 1_555
H13_6 C26_6 1_555 1_555
C27_6 C21_6 1_555 1_555
C28_6 C27_6 1_555 1_555
H14_6 C28_6 1_555 1_555
H15_6 C28_6 1_555 1_555
C29_6 C20_6 1_555 1_555
C30_6 C17_6 1_555 1_555
H16_6 C30_6 1_555 1_555
O5_6 Zn9_3 1_555 1_555
O34 C25_6 1_555 1_555
O37 C25_6 1_555 1_555
C16_6 O5_6 1_555 1_555
C26_6 C27_6 1_555 1_555
C28_6 C29_6 1_555 1_555
C29_6 C30_6 1_555 1_555
Zn14 O11_6 1_555 1_555
C31_6 C32_6 1_555 1_555
C32_6 C33_6 1_555 1_555
C33_6 H17_6 1_555 1_555
C34_6 C33_6 1_555 1_555
H18_6 C34_6 1_555 1_555
C35_6 C34_6 1_555 1_555
C36_6 C35_6 1_555 1_555
C37_6 C36_6 1_555 1_555
H19_6 C37_6 1_555 1_555
C38_6 C37_6 1_555 1_555
C42_6 C36_6 1_555 1_555
C43_6 C42_6 1_555 1_555
H22_6 C43_6 1_555 1_555
H23_6 C43_6 1_555 1_555
C44_6 C35_6 1_555 1_555
C45_6 C32_6 1_555 1_555
H24_6 C45_6 1_555 1_555
O10_6 C31_6 1_555 1_555
O11_6 C31_6 1_555 1_555
O15_6 Zn14 1_555 1_555
O18_6 Zn17_5 1_555 1_555
Zn20_3 O18_6 1_555 1_555
Zn14 O18_6 1_555 1_555
C43_6 C44_6 1_555 1_555
C44_6 C45_6 1_555 1_555
C40_6 C39_6 1_555 1_555
C41_6 C39_6 1_555 1_555
H21_6 C41_6 1_555 1_555
O30_3 C40_6 1_555 1_555
O33_3 C40_6 1_555 1_555
Zn12 O2_6 1_555 1_555
Zn17_6 O9_6 1_555 1_555
Zn20_4 O9_6 1_555 1_555
C1_6 C2_6 1_555 1_555
C2_6 C3_6 1_555 1_555
C3_6 H1_6 1_555 1_555
C4_6 C3_6 1_555 1_555
H2_6 C4_6 1_555 1_555
C5_6 C4_6 1_555 1_555
C6_6 C5_6 1_555 1_555
C7_6 C6_6 1_555 1_555
H3_6 C7_6 1_555 1_555
C8_6 C7_6 1_555 1_555
C12_6 C6_6 1_555 1_555
C13_6 C12_6 1_555 1_555
H6_6 C13_6 1_555 1_555
H7_6 C13_6 1_555 1_555
C14_6 C5_6 1_555 1_555
C15_6 C2_6 1_555 1_555
H8_6 C15_6 1_555 1_555
O1_6 C1_6 1_555 1_555
O2_6 C1_6 1_555 1_555
O6_6 Zn12 1_555 1_555
C46_6 C47_6 1_555 1_555
C47_6 C48_6 1_555 1_555
C48_6 H25_6 1_555 1_555
C49_6 C48_6 1_555 1_555
H26_6 C49_6 1_555 1_555
C50_6 C49_6 1_555 1_555
C51_6 C50_6 1_555 1_555
C52_6 C51_6 1_555 1_555
H27_6 C52_6 1_555 1_555
C53_6 C52_6 1_555 1_555
H28_6 C53_6 1_555 1_555
C54_6 C53_6 1_555 1_555
C55_6 C54_6 1_555 1_555
C56_6 C54_6 1_555 1_555
H29_6 C56_6 1_555 1_555
C57_6 C51_6 1_555 1_555
C58_6 C57_6 1_555 1_555
H30_6 C58_6 1_555 1_555
H31_6 C58_6 1_555 1_555
C59_6 C50_6 1_555 1_555
C60_6 C47_6 1_555 1_555
H32_6 C60_6 1_555 1_555
O14_6 Zn11_3 1_555 1_555
O36 C55_6 1_555 1_555
O39 C55_6 1_555 1_555
Zn12 O9_6 1_555 1_555
C13_6 C14_6 1_555 1_555
C14_6 C15_6 1_555 1_555
C46_6 O14_6 1_555 1_555
C56_6 C57_6 1_555 1_555
C58_6 C59_6 1_555 1_555
C59_6 C60_6 1_555 1_555
C10_6 C9_6 1_555 1_555
C11_6 C9_6 1_555 1_555
H5_6 C11_6 1_555 1_555
O28_3 C10_6 1_555 1_555
O31_3 C10_6 1_555 1_555
C48_7 H25_7 1_555 1_555
C49_7 C48_7 1_555 1_555
H26_7 C49_7 1_555 1_555
C50_7 C49_7 1_555 1_555
C51_7 C50_7 1_555 1_555
C52_7 C51_7 1_555 1_555
H27_7 C52_7 1_555 1_555
C53_7 C52_7 1_555 1_555
H28_7 C53_7 1_555 1_555
C54_7 C53_7 1_555 1_555
C55_7 C54_7 1_555 1_555
C56_7 C54_7 1_555 1_555
H29_7 C56_7 1_555 1_555
C57_7 C51_7 1_555 1_555
C58_7 C57_7 1_555 1_555
H30_7 C58_7 1_555 1_555
O16_4 C55_7 1_555 1_555
O17_4 C55_7 1_555 1_555
Zn11_4 O17_4 1_555 1_555
Zn13_4 O12_4 1_555 1_555
Zn17_7 O16_4 1_555 1_555
C56_7 C57_7 1_555 1_555
Zn1_4 O1_7 1_555 1_555
Zn2_4 O2_7 1_555 1_555
Zn3_7 O9_7 1_555 1_555
Zn4_7 O9_7 1_555 1_555
C1_7 C2_7 1_555 1_555
C2_7 C3_7 1_555 1_555
C3_7 H1_7 1_555 1_555
C4_7 C3_7 1_555 1_555
H2_7 C4_7 1_555 1_555
C5_7 C4_7 1_555 1_555
C6_7 C5_7 1_555 1_555
C7_7 C6_7 1_555 1_555
H3_7 C7_7 1_555 1_555
C8_7 C7_7 1_555 1_555
H4_7 C8_7 1_555 1_555
C9_7 C8_7 1_555 1_555
C10_7 C9_7 1_555 1_555
C11_7 C9_7 1_555 1_555
H5_7 C11_7 1_555 1_555
C12_7 C6_7 1_555 1_555
C13_7 C12_7 1_555 1_555
H6_7 C13_7 1_555 1_555
H7_7 C13_7 1_555 1_555
C14_7 C5_7 1_555 1_555
C15_7 C2_7 1_555 1_555
H8_7 C15_7 1_555 1_555
C16_7 C17_7 1_555 1_555
C17_7 C18_7 1_555 1_555
C18_7 H9_7 1_555 1_555
C19_7 C18_7 1_555 1_555
H10_7 C19_7 1_555 1_555
C20_7 C19_7 1_555 1_555
C21_7 C20_7 1_555 1_555
C22_7 C21_7 1_555 1_555
H11_7 C22_7 1_555 1_555
C23_7 C22_7 1_555 1_555
H12_7 C23_7 1_555 1_555
C24_7 C23_7 1_555 1_555
C25_7 C24_7 1_555 1_555
C26_7 C24_7 1_555 1_555
H13_7 C26_7 1_555 1_555
C27_7 C21_7 1_555 1_555
C28_7 C27_7 1_555 1_555
H14_7 C28_7 1_555 1_555
H15_7 C28_7 1_555 1_555
C29_7 C20_7 1_555 1_555
C30_7 C17_7 1_555 1_555
H16_7 C30_7 1_555 1_555
O1_7 C1_7 1_555 1_555
O2_7 C1_7 1_555 1_555
O3_4 C10_7 1_555 1_555
O4_4 C10_7 1_555 1_555
O5_7 Zn1_4 1_555 1_555
O6_7 Zn2_4 1_555 1_555
O7_4 C25_7 1_555 1_555
O8_4 C25_7 1_555 1_555
O9_7 Zn1_4 1_555 1_555
Zn5_4 O10_7 1_555 1_555
Zn6_4 O11_7 1_555 1_555
C31_7 C32_7 1_555 1_555
C32_7 C33_7 1_555 1_555
C33_7 H17_7 1_555 1_555
C34_7 C33_7 1_555 1_555
H18_7 C34_7 1_555 1_555
C35_7 C34_7 1_555 1_555
C36_7 C35_7 1_555 1_555
C37_7 C36_7 1_555 1_555
H19_7 C37_7 1_555 1_555
C38_7 C37_7 1_555 1_555
H20_7 C38_7 1_555 1_555
C39_7 C38_7 1_555 1_555
C40_7 C39_7 1_555 1_555
C41_7 C39_7 1_555 1_555
H21_7 C41_7 1_555 1_555
C42_7 C36_7 1_555 1_555
C43_7 C42_7 1_555 1_555
H22_7 C43_7 1_555 1_555
H23_7 C43_7 1_555 1_555
C44_7 C35_7 1_555 1_555
C45_7 C32_7 1_555 1_555
H24_7 C45_7 1_555 1_555
C46_7 C47_7 1_555 1_555
C60_7 C47_7 1_555 1_555
H32_7 C60_7 1_555 1_555
O10_7 C31_7 1_555 1_555
O11_7 C31_7 1_555 1_555
O13_4 C40_7 1_555 1_555
O14_7 Zn5_4 1_555 1_555
O15_7 Zn6_4 1_555 1_555
O18_7 Zn3_7 1_555 1_555
Zn7_4 O19_7 1_555 1_555
Zn8_4 O20_7 1_555 1_555
C61_7 C62_7 1_555 1_555
C62_7 C63_7 1_555 1_555
C63_7 H33_7 1_555 1_555
C64_7 C63_7 1_555 1_555
H34_7 C64_7 1_555 1_555
C65_7 C64_7 1_555 1_555
C66_7 C65_7 1_555 1_555
C67_7 C66_7 1_555 1_555
H35_7 C67_7 1_555 1_555
C68_7 C67_7 1_555 1_555
H36_7 C68_7 1_555 1_555
C69_7 C68_7 1_555 1_555
C70_7 C69_7 1_555 1_555
C71_7 C69_7 1_555 1_555
H37_7 C71_7 1_555 1_555
C72_7 C66_7 1_555 1_555
C73_7 C72_7 1_555 1_555
H38_7 C73_7 1_555 1_555
H39_7 C73_7 1_555 1_555
C74_7 C65_7 1_555 1_555
C75_7 C62_7 1_555 1_555
H40_7 C75_7 1_555 1_555
C76_7 C77_7 1_555 1_555
C90_7 C77_7 1_555 1_555
H48_7 C90_7 1_555 1_555
O19_7 C61_7 1_555 1_555
O20_7 C61_7 1_555 1_555
O22_4 C70_7 1_555 1_555
O23_7 Zn7_4 1_555 1_555
O24_7 Zn8_4 1_555 1_555
O27_7 Zn3_7 1_555 1_555
Zn10_4 O8_4 1_555 1_555
Zn12_4 O3_4 1_555 1_555
Zn17_7 O7_4 1_555 1_555
Zn20_7 O22_4 1_555 1_555
Zn20_9 O13_4 1_555 1_555
Zn20_10 O4_4 1_555 1_555
O28_4 Zn2_4 1_555 1_555
O29_4 Zn6_4 1_555 1_555
O30_4 Zn8_4 1_555 1_555
O31_4 Zn4_7 1_555 1_555
O32_4 Zn4_7 1_555 1_555
O33_4 Zn4_7 1_555 1_555
O34_4 Zn3_7 1_555 1_555
O35_4 Zn3_7 1_555 1_555
O36_4 Zn3_7 1_555 1_555
O37_4 Zn7_4 1_555 1_555
O38_4 Zn1_4 1_555 1_555
O39_4 Zn5_4 1_555 1_555
Zn2_4 O9_7 1_555 1_555
Zn4_7 O18_7 1_555 1_555
Zn4_7 O27_7 1_555 1_555
C11_7 C12_7 1_555 1_555
C13_7 C14_7 1_555 1_555
C14_7 C15_7 1_555 1_555
C16_7 O5_7 1_555 1_555
C16_7 O6_7 1_555 1_555
C26_7 C27_7 1_555 1_555
C28_7 C29_7 1_555 1_555
C29_7 C30_7 1_555 1_555
Zn5_4 O18_7 1_555 1_555
Zn6_4 O18_7 1_555 1_555
C41_7 C42_7 1_555 1_555
C43_7 C44_7 1_555 1_555
C44_7 C45_7 1_555 1_555
C46_7 O14_7 1_555 1_555
C46_7 O15_7 1_555 1_555
C59_7 C60_7 1_555 1_555
Zn7_4 O27_7 1_555 1_555
Zn8_4 O27_7 1_555 1_555
C71_7 C72_7 1_555 1_555
C73_7 C74_7 1_555 1_555
C74_7 C75_7 1_555 1_555
C76_7 O23_7 1_555 1_555
C76_7 O24_7 1_555 1_555
C89_7 C90_7 1_555 1_555
C78_7 H41_7 1_555 1_555
C79_7 C78_7 1_555 1_555
H42_7 C79_7 1_555 1_555
C80_7 C79_7 1_555 1_555
C81_7 C80_7 1_555 1_555
C82_7 C81_7 1_555 1_555
H43_7 C82_7 1_555 1_555
C83_7 C82_7 1_555 1_555
H44_7 C83_7 1_555 1_555
C84_7 C83_7 1_555 1_555
C85_7 C84_7 1_555 1_555
C86_7 C84_7 1_555 1_555
H45_7 C86_7 1_555 1_555
C87_7 C81_7 1_555 1_555
C88_7 C87_7 1_555 1_555
H46_7 C88_7 1_555 1_555
O25_4 C85_7 1_555 1_555
O26_4 C85_7 1_555 1_555
Zn9_4 O26_4 1_555 1_555
Zn14_4 O21_4 1_555 1_555
Zn17_7 O25_4 1_555 1_555
C86_7 C87_7 1_555 1_555
H2_8 C4_8 1_555 1_555
C5_8 C4_8 1_555 1_555
C6_8 C5_8 1_555 1_555
C7_8 C6_8 1_555 1_555
H3_8 C7_8 1_555 1_555
C8_8 C7_8 1_555 1_555
H4_8 C8_8 1_555 1_555
C9_8 C8_8 1_555 1_555
C10_8 C9_8 1_555 1_555
C11_8 C9_8 1_555 1_555
H5_8 C11_8 1_555 1_555
C12_8 C6_8 1_555 1_555
C13_8 C12_8 1_555 1_555
H7_8 C13_8 1_555 1_555
O3_5 C10_8 1_555 1_555
O4_5 C10_8 1_555 1_555
O8_5 C25_8 1_555 1_555
Zn10_5 O8_5 1_555 1_555
Zn12_5 O3_5 1_555 1_555
Zn20_11 O4_5 1_555 1_555
C11_8 C12_8 1_555 1_555
Zn1_5 O1_8 1_555 1_555
Zn2_5 O2_8 1_555 1_555
Zn3_8 O9_8 1_555 1_555
Zn4_8 O9_8 1_555 1_555
C1_8 C2_8 1_555 1_555
C2_8 C3_8 1_555 1_555
C3_8 H1_8 1_555 1_555
C15_8 C2_8 1_555 1_555
H8_8 C15_8 1_555 1_555
C16_8 C17_8 1_555 1_555
C17_8 C18_8 1_555 1_555
C18_8 H9_8 1_555 1_555
C19_8 C18_8 1_555 1_555
H10_8 C19_8 1_555 1_555
C20_8 C19_8 1_555 1_555
C21_8 C20_8 1_555 1_555
C22_8 C21_8 1_555 1_555
H11_8 C22_8 1_555 1_555
C23_8 C22_8 1_555 1_555
H12_8 C23_8 1_555 1_555
C24_8 C23_8 1_555 1_555
C26_8 C24_8 1_555 1_555
H13_8 C26_8 1_555 1_555
C27_8 C21_8 1_555 1_555
C28_8 C27_8 1_555 1_555
H14_8 C28_8 1_555 1_555
H15_8 C28_8 1_555 1_555
C29_8 C20_8 1_555 1_555
C30_8 C17_8 1_555 1_555
H16_8 C30_8 1_555 1_555
O1_8 C1_8 1_555 1_555
O2_8 C1_8 1_555 1_555
O5_8 Zn1_5 1_555 1_555
O6_8 Zn2_5 1_555 1_555
O9_8 Zn1_5 1_555 1_555
Zn5_5 O10_8 1_555 1_555
Zn6_5 O11_8 1_555 1_555
C31_8 C32_8 1_555 1_555
C32_8 C33_8 1_555 1_555
C33_8 H17_8 1_555 1_555
C34_8 C33_8 1_555 1_555
H18_8 C34_8 1_555 1_555
C35_8 C34_8 1_555 1_555
C36_8 C35_8 1_555 1_555
C37_8 C36_8 1_555 1_555
H19_8 C37_8 1_555 1_555
C38_8 C37_8 1_555 1_555
H20_8 C38_8 1_555 1_555
C39_8 C38_8 1_555 1_555
C40_8 C39_8 1_555 1_555
C41_8 C39_8 1_555 1_555
H21_8 C41_8 1_555 1_555
C42_8 C36_8 1_555 1_555
C43_8 C42_8 1_555 1_555
H22_8 C43_8 1_555 1_555
H23_8 C43_8 1_555 1_555
C44_8 C35_8 1_555 1_555
C45_8 C32_8 1_555 1_555
H24_8 C45_8 1_555 1_555
C46_8 C47_8 1_555 1_555
C47_8 C48_8 1_555 1_555
C48_8 H25_8 1_555 1_555
C49_8 C48_8 1_555 1_555
H26_8 C49_8 1_555 1_555
C50_8 C49_8 1_555 1_555
C51_8 C50_8 1_555 1_555
C52_8 C51_8 1_555 1_555
H27_8 C52_8 1_555 1_555
C53_8 C52_8 1_555 1_555
H28_8 C53_8 1_555 1_555
C54_8 C53_8 1_555 1_555
C55_8 C54_8 1_555 1_555
C56_8 C54_8 1_555 1_555
H29_8 C56_8 1_555 1_555
C57_8 C51_8 1_555 1_555
C58_8 C57_8 1_555 1_555
H30_8 C58_8 1_555 1_555
H31_8 C58_8 1_555 1_555
C59_8 C50_8 1_555 1_555
C60_8 C47_8 1_555 1_555
H32_8 C60_8 1_555 1_555
O10_8 C31_8 1_555 1_555
O11_8 C31_8 1_555 1_555
O12_5 C40_8 1_555 1_555
O13_5 C40_8 1_555 1_555
O14_8 Zn5_5 1_555 1_555
O15_8 Zn6_5 1_555 1_555
O16_5 C55_8 1_555 1_555
O17_5 C55_8 1_555 1_555
O18_8 Zn3_8 1_555 1_555
Zn7_5 O19_8 1_555 1_555
Zn8_5 O20_8 1_555 1_555
C61_8 C62_8 1_555 1_555
C62_8 C63_8 1_555 1_555
C63_8 H33_8 1_555 1_555
C75_8 C62_8 1_555 1_555
H40_8 C75_8 1_555 1_555
C76_8 C77_8 1_555 1_555
C77_8 C78_8 1_555 1_555
C78_8 H41_8 1_555 1_555
C79_8 C78_8 1_555 1_555
H42_8 C79_8 1_555 1_555
C80_8 C79_8 1_555 1_555
C81_8 C80_8 1_555 1_555
C82_8 C81_8 1_555 1_555
H43_8 C82_8 1_555 1_555
C83_8 C82_8 1_555 1_555
H44_8 C83_8 1_555 1_555
C84_8 C83_8 1_555 1_555
C86_8 C84_8 1_555 1_555
H45_8 C86_8 1_555 1_555
C87_8 C81_8 1_555 1_555
C88_8 C87_8 1_555 1_555
H46_8 C88_8 1_555 1_555
H47_8 C88_8 1_555 1_555
C89_8 C80_8 1_555 1_555
C90_8 C77_8 1_555 1_555
H48_8 C90_8 1_555 1_555
O19_8 C61_8 1_555 1_555
O20_8 C61_8 1_555 1_555
O23_8 Zn7_5 1_555 1_555
O24_8 Zn8_5 1_555 1_555
O27_8 Zn3_8 1_555 1_555
Zn11_5 O17_5 1_555 1_555
Zn13_5 O12_5 1_555 1_555
Zn17_8 O25_5 1_555 1_555
Zn17_9 O7_5 1_555 1_555
Zn17_11 O16_5 1_555 1_555
Zn20_11 O13_5 1_555 1_555
O28_5 Zn2_5 1_555 1_555
O29_5 Zn6_5 1_555 1_555
O30_5 Zn8_5 1_555 1_555
O31_5 Zn4_8 1_555 1_555
O32_5 Zn4_8 1_555 1_555
O33_5 Zn4_8 1_555 1_555
O34_5 Zn3_8 1_555 1_555
O35_5 Zn3_8 1_555 1_555
O36_5 Zn3_8 1_555 1_555
O37_5 Zn7_5 1_555 1_555
O38_5 Zn1_5 1_555 1_555
O39_5 Zn5_5 1_555 1_555
Zn2_5 O9_8 1_555 1_555
Zn4_8 O18_8 1_555 1_555
Zn4_8 O27_8 1_555 1_555
C14_8 C15_8 1_555 1_555
C16_8 O5_8 1_555 1_555
C16_8 O6_8 1_555 1_555
C26_8 C27_8 1_555 1_555
C28_8 C29_8 1_555 1_555
C29_8 C30_8 1_555 1_555
Zn5_5 O18_8 1_555 1_555
Zn6_5 O18_8 1_555 1_555
C41_8 C42_8 1_555 1_555
C43_8 C44_8 1_555 1_555
C44_8 C45_8 1_555 1_555
C46_8 O14_8 1_555 1_555
C46_8 O15_8 1_555 1_555
C56_8 C57_8 1_555 1_555
C58_8 C59_8 1_555 1_555
C59_8 C60_8 1_555 1_555
Zn7_5 O27_8 1_555 1_555
Zn8_5 O27_8 1_555 1_555
C74_8 C75_8 1_555 1_555
C76_8 O23_8 1_555 1_555
C76_8 O24_8 1_555 1_555
C86_8 C87_8 1_555 1_555
C88_8 C89_8 1_555 1_555
C89_8 C90_8 1_555 1_555
H34_8 C64_8 1_555 1_555
C65_8 C64_8 1_555 1_555
C66_8 C65_8 1_555 1_555
C67_8 C66_8 1_555 1_555
H35_8 C67_8 1_555 1_555
C68_8 C67_8 1_555 1_555
H36_8 C68_8 1_555 1_555
C69_8 C68_8 1_555 1_555
C70_8 C69_8 1_555 1_555
C71_8 C69_8 1_555 1_555
H37_8 C71_8 1_555 1_555
C72_8 C66_8 1_555 1_555
C73_8 C72_8 1_555 1_555
H39_8 C73_8 1_555 1_555
O21_5 C70_8 1_555 1_555
O22_5 C70_8 1_555 1_555
O26_5 C85_8 1_555 1_555
Zn9_5 O26_5 1_555 1_555
Zn14_5 O21_5 1_555 1_555
Zn20_11 O22_5 1_555 1_555
C71_8 C72_8 1_555 1_555
C10_9 C9_9 1_555 1_555
C11_9 C9_9 1_555 1_555
H5_9 C11_9 1_555 1_555
O3_6 C10_9 1_555 1_555
O4_6 C10_9 1_555 1_555
Zn12_6 O3_6 1_555 1_555
Zn20_12 O4_6 1_555 1_555
Zn2_6 O2_9 1_555 1_555
Zn3_9 O9_9 1_555 1_555
Zn4_9 O9_9 1_555 1_555
C1_9 C2_9 1_555 1_555
C2_9 C3_9 1_555 1_555
C3_9 H1_9 1_555 1_555
C4_9 C3_9 1_555 1_555
H2_9 C4_9 1_555 1_555
C5_9 C4_9 1_555 1_555
C6_9 C5_9 1_555 1_555
C7_9 C6_9 1_555 1_555
H3_9 C7_9 1_555 1_555
C8_9 C7_9 1_555 1_555
C12_9 C6_9 1_555 1_555
C13_9 C12_9 1_555 1_555
H6_9 C13_9 1_555 1_555
H7_9 C13_9 1_555 1_555
C14_9 C5_9 1_555 1_555
C15_9 C2_9 1_555 1_555
H8_9 C15_9 1_555 1_555
O1_9 C1_9 1_555 1_555
O2_9 C1_9 1_555 1_555
O6_9 Zn2_6 1_555 1_555
C46_9 C47_9 1_555 1_555
C47_9 C48_9 1_555 1_555
C48_9 H25_9 1_555 1_555
C49_9 C48_9 1_555 1_555
H26_9 C49_9 1_555 1_555
C50_9 C49_9 1_555 1_555
C51_9 C50_9 1_555 1_555
C52_9 C51_9 1_555 1_555
H27_9 C52_9 1_555 1_555
C53_9 C52_9 1_555 1_555
H28_9 C53_9 1_555 1_555
C54_9 C53_9 1_555 1_555
C55_9 C54_9 1_555 1_555
C56_9 C54_9 1_555 1_555
H29_9 C56_9 1_555 1_555
C57_9 C51_9 1_555 1_555
C58_9 C57_9 1_555 1_555
H30_9 C58_9 1_555 1_555
H31_9 C58_9 1_555 1_555
C59_9 C50_9 1_555 1_555
C60_9 C47_9 1_555 1_555
H32_9 C60_9 1_555 1_555
O14_9 Zn5_6 1_555 1_555
O16_6 C55_9 1_555 1_555
O17_6 C55_9 1_555 1_555
Zn11_6 O17_6 1_555 1_555
Zn17_12 O16_6 1_555 1_555
O28_6 Zn2_6 1_555 1_555
O31_6 Zn4_9 1_555 1_555
O36_6 Zn3_9 1_555 1_555
O39_6 Zn5_6 1_555 1_555
Zn2_6 O9_9 1_555 1_555
C13_9 C14_9 1_555 1_555
C14_9 C15_9 1_555 1_555
C46_9 O14_9 1_555 1_555
C56_9 C57_9 1_555 1_555
C58_9 C59_9 1_555 1_555
C59_9 C60_9 1_555 1_555
C40_9 C39_9 1_555 1_555
C41_9 C39_9 1_555 1_555
H21_9 C41_9 1_555 1_555
O12_6 C40_9 1_555 1_555
O13_6 C40_9 1_555 1_555
Zn13_6 O12_6 1_555 1_555
Zn20_12 O13_6 1_555 1_555
Zn6_6 O11_9 1_555 1_555
C31_9 C32_9 1_555 1_555
C32_9 C33_9 1_555 1_555
C33_9 H17_9 1_555 1_555
C34_9 C33_9 1_555 1_555
H18_9 C34_9 1_555 1_555
C35_9 C34_9 1_555 1_555
C36_9 C35_9 1_555 1_555
C37_9 C36_9 1_555 1_555
H19_9 C37_9 1_555 1_555
C38_9 C37_9 1_555 1_555
C42_9 C36_9 1_555 1_555
C43_9 C42_9 1_555 1_555
H22_9 C43_9 1_555 1_555
H23_9 C43_9 1_555 1_555
C44_9 C35_9 1_555 1_555
C45_9 C32_9 1_555 1_555
H24_9 C45_9 1_555 1_555
O10_9 C31_9 1_555 1_555
O11_9 C31_9 1_555 1_555
O15_9 Zn6_6 1_555 1_555
O18_9 Zn3_10 1_555 1_555
O29_6 Zn6_6 1_555 1_555
O34_6 Zn3_10 1_555 1_555
Zn4_10 O18_9 1_555 1_555
Zn6_6 O18_9 1_555 1_555
C43_9 C44_9 1_555 1_555
C44_9 C45_9 1_555 1_555
C16_9 C17_9 1_555 1_555
C17_9 C18_9 1_555 1_555
C18_9 H9_9 1_555 1_555
C19_9 C18_9 1_555 1_555
H10_9 C19_9 1_555 1_555
C20_9 C19_9 1_555 1_555
C21_9 C20_9 1_555 1_555
C22_9 C21_9 1_555 1_555
H11_9 C22_9 1_555 1_555
C23_9 C22_9 1_555 1_555
H12_9 C23_9 1_555 1_555
C24_9 C23_9 1_555 1_555
C25_9 C24_9 1_555 1_555
C26_9 C24_9 1_555 1_555
H13_9 C26_9 1_555 1_555
C27_9 C21_9 1_555 1_555
C28_9 C27_9 1_555 1_555
H14_9 C28_9 1_555 1_555
H15_9 C28_9 1_555 1_555
C29_9 C20_9 1_555 1_555
C30_9 C17_9 1_555 1_555
H16_9 C30_9 1_555 1_555
O5_9 Zn1_6 1_555 1_555
O7_6 C25_9 1_555 1_555
O8_6 C25_9 1_555 1_555
Zn10_6 O8_6 1_555 1_555
Zn17_12 O7_6 1_555 1_555
O33_6 Zn4_11 1_555 1_555
O38_6 Zn1_6 1_555 1_555
C16_9 O5_9 1_555 1_555
C26_9 C27_9 1_555 1_555
C28_9 C29_9 1_555 1_555
C29_9 C30_9 1_555 1_555
C70_9 C69_9 1_555 1_555
C71_9 C69_9 1_555 1_555
H37_9 C71_9 1_555 1_555
O21_6 C70_9 1_555 1_555
O22_6 C70_9 1_555 1_555
Zn14_6 O21_6 1_555 1_555
Zn20_12 O22_6 1_555 1_555
Zn7_6 O19_9 1_555 1_555
Zn8_6 O20_9 1_555 1_555
C61_9 C62_9 1_555 1_555
C62_9 C63_9 1_555 1_555
C63_9 H33_9 1_555 1_555
C64_9 C63_9 1_555 1_555
H34_9 C64_9 1_555 1_555
C65_9 C64_9 1_555 1_555
C66_9 C65_9 1_555 1_555
C67_9 C66_9 1_555 1_555
H35_9 C67_9 1_555 1_555
C68_9 C67_9 1_555 1_555
C72_9 C66_9 1_555 1_555
C73_9 C72_9 1_555 1_555
H38_9 C73_9 1_555 1_555
H39_9 C73_9 1_555 1_555
C74_9 C65_9 1_555 1_555
C75_9 C62_9 1_555 1_555
H40_9 C75_9 1_555 1_555
C76_9 C77_9 1_555 1_555
C77_9 C78_9 1_555 1_555
C78_9 H41_9 1_555 1_555
C79_9 C78_9 1_555 1_555
H42_9 C79_9 1_555 1_555
C80_9 C79_9 1_555 1_555
C81_9 C80_9 1_555 1_555
C82_9 C81_9 1_555 1_555
H43_9 C82_9 1_555 1_555
C83_9 C82_9 1_555 1_555
H44_9 C83_9 1_555 1_555
C84_9 C83_9 1_555 1_555
C85_9 C84_9 1_555 1_555
C86_9 C84_9 1_555 1_555
H45_9 C86_9 1_555 1_555
C87_9 C81_9 1_555 1_555
C88_9 C87_9 1_555 1_555
H46_9 C88_9 1_555 1_555
H47_9 C88_9 1_555 1_555
C89_9 C80_9 1_555 1_555
C90_9 C77_9 1_555 1_555
H48_9 C90_9 1_555 1_555
O19_9 C61_9 1_555 1_555
O20_9 C61_9 1_555 1_555
O23_9 Zn7_6 1_555 1_555
O24_9 Zn8_6 1_555 1_555
O25_6 C85_9 1_555 1_555
O26_6 C85_9 1_555 1_555
O27_9 Zn3_12 1_555 1_555
Zn9_6 O26_6 1_555 1_555
Zn17_12 O25_6 1_555 1_555
O30_6 Zn8_6 1_555 1_555
O32_6 Zn4_12 1_555 1_555
O35_6 Zn3_12 1_555 1_555
O37_6 Zn7_6 1_555 1_555
Zn4_12 O27_9 1_555 1_555
Zn7_6 O27_9 1_555 1_555
Zn8_6 O27_9 1_555 1_555
C73_9 C74_9 1_555 1_555
C74_9 C75_9 1_555 1_555
C76_9 O23_9 1_555 1_555
C76_9 O24_9 1_555 1_555
C86_9 C87_9 1_555 1_555
C88_9 C89_9 1_555 1_555
C89_9 C90_9 1_555 1_555
C78_10 H41_10 1_555 1_555
C79_10 C78_10 1_555 1_555
H42_10 C79_10 1_555 1_555
C80_10 C79_10 1_555 1_555
C81_10 C80_10 1_555 1_555
C82_10 C81_10 1_555 1_555
H43_10 C82_10 1_555 1_555
C83_10 C82_10 1_555 1_555
H44_10 C83_10 1_555 1_555
C84_10 C83_10 1_555 1_555
C85_10 C84_10 1_555 1_555
C86_10 C84_10 1_555 1_555
H45_10 C86_10 1_555 1_555
C87_10 C81_10 1_555 1_555
C88_10 C87_10 1_555 1_555
H46_10 C88_10 1_555 1_555
O35_5 C85_10 1_555 1_555
O38_5 C85_10 1_555 1_555
C86_10 C87_10 1_555 1_555
Zn9_6 O1_10 1_555 1_555
Zn12_5 O2_10 1_555 1_555
Zn17_12 O9_10 1_555 1_555
Zn20_11 O9_10 1_555 1_555
C1_10 C2_10 1_555 1_555
C2_10 C3_10 1_555 1_555
C3_10 H1_10 1_555 1_555
C4_10 C3_10 1_555 1_555
H2_10 C4_10 1_555 1_555
C5_10 C4_10 1_555 1_555
C6_10 C5_10 1_555 1_555
C7_10 C6_10 1_555 1_555
H3_10 C7_10 1_555 1_555
C8_10 C7_10 1_555 1_555
H4_10 C8_10 1_555 1_555
C9_10 C8_10 1_555 1_555
C10_10 C9_10 1_555 1_555
C11_10 C9_10 1_555 1_555
H5_10 C11_10 1_555 1_555
C12_10 C6_10 1_555 1_555
C13_10 C12_10 1_555 1_555
H6_10 C13_10 1_555 1_555
H7_10 C13_10 1_555 1_555
C14_10 C5_10 1_555 1_555
C15_10 C2_10 1_555 1_555
H8_10 C15_10 1_555 1_555
C16_10 C17_10 1_555 1_555
C17_10 C18_10 1_555 1_555
C18_10 H9_10 1_555 1_555
C19_10 C18_10 1_555 1_555
H10_10 C19_10 1_555 1_555
C20_10 C19_10 1_555 1_555
C21_10 C20_10 1_555 1_555
C22_10 C21_10 1_555 1_555
H11_10 C22_10 1_555 1_555
C23_10 C22_10 1_555 1_555
H12_10 C23_10 1_555 1_555
C24_10 C23_10 1_555 1_555
C25_10 C24_10 1_555 1_555
C26_10 C24_10 1_555 1_555
H13_10 C26_10 1_555 1_555
C27_10 C21_10 1_555 1_555
C28_10 C27_10 1_555 1_555
H14_10 C28_10 1_555 1_555
H15_10 C28_10 1_555 1_555
C29_10 C20_10 1_555 1_555
C30_10 C17_10 1_555 1_555
H16_10 C30_10 1_555 1_555
O1_10 C1_10 1_555 1_555
O2_10 C1_10 1_555 1_555
O28_6 C10_10 1_555 1_555
O31_6 C10_10 1_555 1_555
O5_10 Zn9_6 1_555 1_555
O6_10 Zn12_5 1_555 1_555
O34_5 C25_10 1_555 1_555
O37_5 C25_10 1_555 1_555
O9_10 Zn9_6 1_555 1_555
Zn11_6 O10_10 1_555 1_555
Zn14_5 O11_10 1_555 1_555
C31_10 C32_10 1_555 1_555
C32_10 C33_10 1_555 1_555
C33_10 H17_10 1_555 1_555
C34_10 C33_10 1_555 1_555
H18_10 C34_10 1_555 1_555
C35_10 C34_10 1_555 1_555
C36_10 C35_10 1_555 1_555
C37_10 C36_10 1_555 1_555
H19_10 C37_10 1_555 1_555
C38_10 C37_10 1_555 1_555
H20_10 C38_10 1_555 1_555
C39_10 C38_10 1_555 1_555
C40_10 C39_10 1_555 1_555
C41_10 C39_10 1_555 1_555
H21_10 C41_10 1_555 1_555
C42_10 C36_10 1_555 1_555
C43_10 C42_10 1_555 1_555
H22_10 C43_10 1_555 1_555
H23_10 C43_10 1_555 1_555
C44_10 C35_10 1_555 1_555
C45_10 C32_10 1_555 1_555
H24_10 C45_10 1_555 1_555
C46_10 C47_10 1_555 1_555
C60_10 C47_10 1_555 1_555
H32_10 C60_10 1_555 1_555
O10_10 C31_10 1_555 1_555
O11_10 C31_10 1_555 1_555
O33_6 C40_10 1_555 1_555
O14_10 Zn11_6 1_555 1_555
O15_10 Zn14_5 1_555 1_555
O18_10 Zn17_12 1_555 1_555
Zn10_6 O19_10 1_555 1_555
Zn13_5 O20_10 1_555 1_555
C61_10 C62_10 1_555 1_555
C62_10 C63_10 1_555 1_555
C63_10 H33_10 1_555 1_555
C64_10 C63_10 1_555 1_555
H34_10 C64_10 1_555 1_555
C65_10 C64_10 1_555 1_555
C66_10 C65_10 1_555 1_555
C67_10 C66_10 1_555 1_555
H35_10 C67_10 1_555 1_555
C68_10 C67_10 1_555 1_555
H36_10 C68_10 1_555 1_555
C69_10 C68_10 1_555 1_555
C70_10 C69_10 1_555 1_555
C71_10 C69_10 1_555 1_555
H37_10 C71_10 1_555 1_555
C72_10 C66_10 1_555 1_555
C73_10 C72_10 1_555 1_555
H38_10 C73_10 1_555 1_555
H39_10 C73_10 1_555 1_555
C74_10 C65_10 1_555 1_555
C75_10 C62_10 1_555 1_555
H40_10 C75_10 1_555 1_555
C76_10 C77_10 1_555 1_555
C90_10 C77_10 1_555 1_555
H48_10 C90_10 1_555 1_555
O19_10 C61_10 1_555 1_555
O20_10 C61_10 1_555 1_555
O32_6 C70_10 1_555 1_555
O23_10 Zn10_6 1_555 1_555
O24_10 Zn13_5 1_555 1_555
O27_10 Zn17_12 1_555 1_555
Zn12_5 O9_10 1_555 1_555
Zn20_11 O18_10 1_555 1_555
Zn20_11 O27_10 1_555 1_555
C11_10 C12_10 1_555 1_555
C13_10 C14_10 1_555 1_555
C14_10 C15_10 1_555 1_555
C16_10 O5_10 1_555 1_555
C16_10 O6_10 1_555 1_555
C26_10 C27_10 1_555 1_555
C28_10 C29_10 1_555 1_555
C29_10 C30_10 1_555 1_555
Zn11_6 O18_10 1_555 1_555
Zn14_5 O18_10 1_555 1_555
C41_10 C42_10 1_555 1_555
C43_10 C44_10 1_555 1_555
C44_10 C45_10 1_555 1_555
C46_10 O14_10 1_555 1_555
C46_10 O15_10 1_555 1_555
C59_10 C60_10 1_555 1_555
Zn10_6 O27_10 1_555 1_555
Zn13_5 O27_10 1_555 1_555
C71_10 C72_10 1_555 1_555
C73_10 C74_10 1_555 1_555
C74_10 C75_10 1_555 1_555
C76_10 O23_10 1_555 1_555
C76_10 O24_10 1_555 1_555
C89_10 C90_10 1_555 1_555
C48_10 H25_10 1_555 1_555
C49_10 C48_10 1_555 1_555
H26_10 C49_10 1_555 1_555
C50_10 C49_10 1_555 1_555
C51_10 C50_10 1_555 1_555
C52_10 C51_10 1_555 1_555
H27_10 C52_10 1_555 1_555
C53_10 C52_10 1_555 1_555
H28_10 C53_10 1_555 1_555
C54_10 C53_10 1_555 1_555
C55_10 C54_10 1_555 1_555
C56_10 C54_10 1_555 1_555
H29_10 C56_10 1_555 1_555
C57_10 C51_10 1_555 1_555
C58_10 C57_10 1_555 1_555
H30_10 C58_10 1_555 1_555
O36_5 C55_10 1_555 1_555
O39_5 C55_10 1_555 1_555
C56_10 C57_10 1_555 1_555
Zn10_5 O19_11 1_555 1_555
Zn13_4 O20_11 1_555 1_555
C61_11 C62_11 1_555 1_555
C62_11 C63_11 1_555 1_555
C63_11 H33_11 1_555 1_555
C64_11 C63_11 1_555 1_555
H34_11 C64_11 1_555 1_555
C65_11 C64_11 1_555 1_555
C66_11 C65_11 1_555 1_555
C67_11 C66_11 1_555 1_555
H35_11 C67_11 1_555 1_555
C68_11 C67_11 1_555 1_555
H36_11 C68_11 1_555 1_555
C69_11 C68_11 1_555 1_555
C70_11 C69_11 1_555 1_555
C71_11 C69_11 1_555 1_555
H37_11 C71_11 1_555 1_555
C72_11 C66_11 1_555 1_555
C73_11 C72_11 1_555 1_555
H38_11 C73_11 1_555 1_555
H39_11 C73_11 1_555 1_555
C74_11 C65_11 1_555 1_555
C75_11 C62_11 1_555 1_555
H40_11 C75_11 1_555 1_555
C76_11 C77_11 1_555 1_555
C77_11 C78_11 1_555 1_555
C78_11 H41_11 1_555 1_555
C79_11 C78_11 1_555 1_555
H42_11 C79_11 1_555 1_555
C80_11 C79_11 1_555 1_555
C81_11 C80_11 1_555 1_555
C82_11 C81_11 1_555 1_555
H43_11 C82_11 1_555 1_555
C83_11 C82_11 1_555 1_555
H44_11 C83_11 1_555 1_555
C84_11 C83_11 1_555 1_555
C85_11 C84_11 1_555 1_555
C86_11 C84_11 1_555 1_555
H45_11 C86_11 1_555 1_555
C87_11 C81_11 1_555 1_555
C88_11 C87_11 1_555 1_555
H46_11 C88_11 1_555 1_555
H47_11 C88_11 1_555 1_555
C89_11 C80_11 1_555 1_555
C90_11 C77_11 1_555 1_555
H48_11 C90_11 1_555 1_555
O19_11 C61_11 1_555 1_555
O20_11 C61_11 1_555 1_555
O29_5 C70_11 1_555 1_555
O32_5 C70_11 1_555 1_555
O23_11 Zn10_5 1_555 1_555
O24_11 Zn13_4 1_555 1_555
O35_4 C85_11 1_555 1_555
O38_4 C85_11 1_555 1_555
O27_11 Zn17_8 1_555 1_555
Zn20_7 O27_11 1_555 1_555
Zn10_5 O27_11 1_555 1_555
Zn13_4 O27_11 1_555 1_555
C71_11 C72_11 1_555 1_555
C73_11 C74_11 1_555 1_555
C74_11 C75_11 1_555 1_555
C76_11 O23_11 1_555 1_555
C76_11 O24_11 1_555 1_555
C86_11 C87_11 1_555 1_555
C88_11 C89_11 1_555 1_555
C89_11 C90_11 1_555 1_555
Zn14_4 O11_11 1_555 1_555
C31_11 C32_11 1_555 1_555
C32_11 C33_11 1_555 1_555
C33_11 H17_11 1_555 1_555
C34_11 C33_11 1_555 1_555
H18_11 C34_11 1_555 1_555
C35_11 C34_11 1_555 1_555
C36_11 C35_11 1_555 1_555
C37_11 C36_11 1_555 1_555
H19_11 C37_11 1_555 1_555
C38_11 C37_11 1_555 1_555
H20_11 C38_11 1_555 1_555
C39_11 C38_11 1_555 1_555
C40_11 C39_11 1_555 1_555
C41_11 C39_11 1_555 1_555
H21_11 C41_11 1_555 1_555
C42_11 C36_11 1_555 1_555
C43_11 C42_11 1_555 1_555
H22_11 C43_11 1_555 1_555
H23_11 C43_11 1_555 1_555
C44_11 C35_11 1_555 1_555
C45_11 C32_11 1_555 1_555
H24_11 C45_11 1_555 1_555
O10_11 C31_11 1_555 1_555
O11_11 C31_11 1_555 1_555
O30_5 C40_11 1_555 1_555
O33_5 C40_11 1_555 1_555
O15_11 Zn14_4 1_555 1_555
O18_11 Zn17_9 1_555 1_555
Zn20_8 O18_11 1_555 1_555
Zn14_4 O18_11 1_555 1_555
C41_11 C42_11 1_555 1_555
C43_11 C44_11 1_555 1_555
C44_11 C45_11 1_555 1_555
C16_11 C17_11 1_555 1_555
C17_11 C18_11 1_555 1_555
C18_11 H9_11 1_555 1_555
C19_11 C18_11 1_555 1_555
H10_11 C19_11 1_555 1_555
C20_11 C19_11 1_555 1_555
C21_11 C20_11 1_555 1_555
C22_11 C21_11 1_555 1_555
H11_11 C22_11 1_555 1_555
C23_11 C22_11 1_555 1_555
H12_11 C23_11 1_555 1_555
C24_11 C23_11 1_555 1_555
C25_11 C24_11 1_555 1_555
C26_11 C24_11 1_555 1_555
H13_11 C26_11 1_555 1_555
C27_11 C21_11 1_555 1_555
C28_11 C27_11 1_555 1_555
H14_11 C28_11 1_555 1_555
H15_11 C28_11 1_555 1_555
C29_11 C20_11 1_555 1_555
C30_11 C17_11 1_555 1_555
H16_11 C30_11 1_555 1_555
O5_11 Zn9_5 1_555 1_555
O34_4 C25_11 1_555 1_555
O37_4 C25_11 1_555 1_555
C16_11 O5_11 1_555 1_555
C26_11 C27_11 1_555 1_555
C28_11 C29_11 1_555 1_555
C29_11 C30_11 1_555 1_555
Zn12_4 O2_11 1_555 1_555
Zn17_11 O9_11 1_555 1_555
Zn20_10 O9_11 1_555 1_555
C1_11 C2_11 1_555 1_555
C2_11 C3_11 1_555 1_555
C3_11 H1_11 1_555 1_555
C4_11 C3_11 1_555 1_555
H2_11 C4_11 1_555 1_555
C5_11 C4_11 1_555 1_555
C6_11 C5_11 1_555 1_555
C7_11 C6_11 1_555 1_555
H3_11 C7_11 1_555 1_555
C8_11 C7_11 1_555 1_555
H4_11 C8_11 1_555 1_555
C9_11 C8_11 1_555 1_555
C10_11 C9_11 1_555 1_555
C11_11 C9_11 1_555 1_555
H5_11 C11_11 1_555 1_555
C12_11 C6_11 1_555 1_555
C13_11 C12_11 1_555 1_555
H6_11 C13_11 1_555 1_555
H7_11 C13_11 1_555 1_555
C14_11 C5_11 1_555 1_555
C15_11 C2_11 1_555 1_555
H8_11 C15_11 1_555 1_555
O1_11 C1_11 1_555 1_555
O2_11 C1_11 1_555 1_555
O28_5 C10_11 1_555 1_555
O31_5 C10_11 1_555 1_555
O6_11 Zn12_4 1_555 1_555
C46_11 C47_11 1_555 1_555
C47_11 C48_11 1_555 1_555
C48_11 H25_11 1_555 1_555
C49_11 C48_11 1_555 1_555
H26_11 C49_11 1_555 1_555
C50_11 C49_11 1_555 1_555
C51_11 C50_11 1_555 1_555
C52_11 C51_11 1_555 1_555
H27_11 C52_11 1_555 1_555
C53_11 C52_11 1_555 1_555
H28_11 C53_11 1_555 1_555
C54_11 C53_11 1_555 1_555
C55_11 C54_11 1_555 1_555
C56_11 C54_11 1_555 1_555
H29_11 C56_11 1_555 1_555
C57_11 C51_11 1_555 1_555
C58_11 C57_11 1_555 1_555
H30_11 C58_11 1_555 1_555
H31_11 C58_11 1_555 1_555
C59_11 C50_11 1_555 1_555
C60_11 C47_11 1_555 1_555
H32_11 C60_11 1_555 1_555
O14_11 Zn11_5 1_555 1_555
O36_4 C55_11 1_555 1_555
O39_4 C55_11 1_555 1_555
Zn12_4 O9_11 1_555 1_555
C11_11 C12_11 1_555 1_555
C13_11 C14_11 1_555 1_555
C14_11 C15_11 1_555 1_555
C46_11 O14_11 1_555 1_555
C56_11 C57_11 1_555 1_555
C58_11 C59_11 1_555 1_555
C59_11 C60_11 1_555 1_555
H34_12 C64_12 1_555 1_555
C65_12 C64_12 1_555 1_555
C66_12 C65_12 1_555 1_555
C67_12 C66_12 1_555 1_555
H35_12 C67_12 1_555 1_555
C68_12 C67_12 1_555 1_555
H36_12 C68_12 1_555 1_555
C69_12 C68_12 1_555 1_555
C70_12 C69_12 1_555 1_555
C71_12 C69_12 1_555 1_555
H37_12 C71_12 1_555 1_555
C72_12 C66_12 1_555 1_555
C73_12 C72_12 1_555 1_555
H39_12 C73_12 1_555 1_555
O29_4 C70_12 1_555 1_555
O32_4 C70_12 1_555 1_555
C71_12 C72_12 1_555 1_555
O38_6 C85_12 1_555 1_555
Zn9_4 O1_12 1_555 1_555
Zn12_6 O2_12 1_555 1_555
Zn17_7 O9_12 1_555 1_555
Zn20_12 O9_12 1_555 1_555
C1_12 C2_12 1_555 1_555
C2_12 C3_12 1_555 1_555
C3_12 H1_12 1_555 1_555
C15_12 C2_12 1_555 1_555
H8_12 C15_12 1_555 1_555
C16_12 C17_12 1_555 1_555
C17_12 C18_12 1_555 1_555
C18_12 H9_12 1_555 1_555
C19_12 C18_12 1_555 1_555
H10_12 C19_12 1_555 1_555
C20_12 C19_12 1_555 1_555
C29_12 C20_12 1_555 1_555
C30_12 C17_12 1_555 1_555
H16_12 C30_12 1_555 1_555
O1_12 C1_12 1_555 1_555
O2_12 C1_12 1_555 1_555
O5_12 Zn9_4 1_555 1_555
O6_12 Zn12_6 1_555 1_555
O9_12 Zn9_4 1_555 1_555
Zn11_4 O10_12 1_555 1_555
Zn14_6 O11_12 1_555 1_555
C31_12 C32_12 1_555 1_555
C32_12 C33_12 1_555 1_555
C33_12 H17_12 1_555 1_555
C34_12 C33_12 1_555 1_555
H18_12 C34_12 1_555 1_555
C35_12 C34_12 1_555 1_555
C36_12 C35_12 1_555 1_555
C37_12 C36_12 1_555 1_555
H19_12 C37_12 1_555 1_555
C38_12 C37_12 1_555 1_555
H20_12 C38_12 1_555 1_555
C39_12 C38_12 1_555 1_555
C40_12 C39_12 1_555 1_555
C41_12 C39_12 1_555 1_555
H21_12 C41_12 1_555 1_555
C42_12 C36_12 1_555 1_555
C43_12 C42_12 1_555 1_555
H22_12 C43_12 1_555 1_555
H23_12 C43_12 1_555 1_555
C44_12 C35_12 1_555 1_555
C45_12 C32_12 1_555 1_555
H24_12 C45_12 1_555 1_555
C46_12 C47_12 1_555 1_555
C47_12 C48_12 1_555 1_555
C48_12 H25_12 1_555 1_555
C49_12 C48_12 1_555 1_555
H26_12 C49_12 1_555 1_555
C50_12 C49_12 1_555 1_555
C59_12 C50_12 1_555 1_555
C60_12 C47_12 1_555 1_555
H32_12 C60_12 1_555 1_555
O10_12 C31_12 1_555 1_555
O11_12 C31_12 1_555 1_555
O30_4 C40_12 1_555 1_555
O33_4 C40_12 1_555 1_555
O14_12 Zn11_4 1_555 1_555
O15_12 Zn14_6 1_555 1_555
O18_12 Zn17_7 1_555 1_555
Zn10_4 O19_12 1_555 1_555
Zn13_6 O20_12 1_555 1_555
C61_12 C62_12 1_555 1_555
C62_12 C63_12 1_555 1_555
C63_12 H33_12 1_555 1_555
C75_12 C62_12 1_555 1_555
H40_12 C75_12 1_555 1_555
C76_12 C77_12 1_555 1_555
C77_12 C78_12 1_555 1_555
C78_12 H41_12 1_555 1_555
C79_12 C78_12 1_555 1_555
H42_12 C79_12 1_555 1_555
C80_12 C79_12 1_555 1_555
C89_12 C80_12 1_555 1_555
C90_12 C77_12 1_555 1_555
H48_12 C90_12 1_555 1_555
O19_12 C61_12 1_555 1_555
O20_12 C61_12 1_555 1_555
O23_12 Zn10_4 1_555 1_555
O24_12 Zn13_6 1_555 1_555
O27_12 Zn17_7 1_555 1_555
Zn12_6 O9_12 1_555 1_555
Zn20_12 O18_12 1_555 1_555
Zn20_12 O27_12 1_555 1_555
C14_12 C15_12 1_555 1_555
C16_12 O5_12 1_555 1_555
C16_12 O6_12 1_555 1_555
C29_12 C30_12 1_555 1_555
Zn11_4 O18_12 1_555 1_555
Zn14_6 O18_12 1_555 1_555
C41_12 C42_12 1_555 1_555
C43_12 C44_12 1_555 1_555
C44_12 C45_12 1_555 1_555
C46_12 O14_12 1_555 1_555
C46_12 O15_12 1_555 1_555
C59_12 C60_12 1_555 1_555
Zn10_4 O27_12 1_555 1_555
Zn13_6 O27_12 1_555 1_555
C74_12 C75_12 1_555 1_555
C76_12 O23_12 1_555 1_555
C76_12 O24_12 1_555 1_555
C89_12 C90_12 1_555 1_555
C22_12 C21_12 1_555 1_555
H11_12 C22_12 1_555 1_555
C23_12 C22_12 1_555 1_555
H12_12 C23_12 1_555 1_555
C24_12 C23_12 1_555 1_555
C26_12 C24_12 1_555 1_555
H13_12 C26_12 1_555 1_555
C27_12 C21_12 1_555 1_555
C28_12 C27_12 1_555 1_555
H14_12 C28_12 1_555 1_555
H15_12 C28_12 1_555 1_555
C52_12 C51_12 1_555 1_555
H27_12 C52_12 1_555 1_555
C53_12 C52_12 1_555 1_555
H28_12 C53_12 1_555 1_555
C54_12 C53_12 1_555 1_555
C55_12 C54_12 1_555 1_555
C56_12 C54_12 1_555 1_555
H29_12 C56_12 1_555 1_555
C57_12 C51_12 1_555 1_555
C58_12 C57_12 1_555 1_555
H30_12 C58_12 1_555 1_555
H31_12 C58_12 1_555 1_555
O36_6 C55_12 1_555 1_555
O39_6 C55_12 1_555 1_555
C82_12 C81_12 1_555 1_555
H43_12 C82_12 1_555 1_555
C83_12 C82_12 1_555 1_555
H44_12 C83_12 1_555 1_555
C84_12 C83_12 1_555 1_555
C86_12 C84_12 1_555 1_555
H45_12 C86_12 1_555 1_555
C87_12 C81_12 1_555 1_555
C88_12 C87_12 1_555 1_555
H46_12 C88_12 1_555 1_555
H47_12 C88_12 1_555 1_555
C26_12 C27_12 1_555 1_555
C56_12 C57_12 1_555 1_555
C86_12 C87_12 1_555 1_555
H2_12 C4_12 1_555 1_555
C5_12 C4_12 1_555 1_555
C6_12 C5_12 1_555 1_555
C7_12 C6_12 1_555 1_555
H3_12 C7_12 1_555 1_555
C8_12 C7_12 1_555 1_555
H4_12 C8_12 1_555 1_555
C9_12 C8_12 1_555 1_555
C10_12 C9_12 1_555 1_555
C11_12 C9_12 1_555 1_555
H5_12 C11_12 1_555 1_555
C12_12 C6_12 1_555 1_555
C13_12 C12_12 1_555 1_555
H7_12 C13_12 1_555 1_555
O28_4 C10_12 1_555 1_555
O31_4 C10_12 1_555 1_555
C11_12 C12_12 1_555 1_555
O37_6 C25_12 1_555 1_555

#END
