
###############################################################################
#
# This file contains modified crystal structure data generated from the
# MOF subset of the Cambridge Structural Database (CSD) v543 
# hosted by the Cambridge Crystallographic Data Centre (CCDC).
#
# This work is licensed under the Creative Commons
# Attribution-NonCommercial-ShareAlike 4.0 International License.
# To view a copy of this license, visit
# http://creativecommons.org/licenses/by-nc-sa/4.0/
# or send a letter to
# Creative Commons, PO Box 1866, Mountain View, CA 94042, USA.
#
# CIF created using the CSD Python API on 29 September 2022
# The structure has been converted into the P1 space group
# The structure has a 3D framework
# The original CSD entry WAQDOJ is in the rhombohedral crystal system
# The framework has been calculated to contain at least 10.0% void space
# The void calculation uses a probe of radius 1.32A, grid spacing 0.4
# The framework is charged, counterions have been retained in the structure
#
###############################################################################

data_WAQDOJ
_chemical_formula_moiety         '(C346 H202 Mg20 N22 O70 4-)n'
_symmetry_cell_setting           triclinic
_symmetry_space_group_name_H-M   'P 1'
_symmetry_Int_Tables_number      1
_space_group_name_Hall           'P 1'
loop_
_symmetry_equiv_pos_site_id
_symmetry_equiv_pos_as_xyz
1 x,y,z
_cell_length_a                   19.4789(3)
_cell_length_b                   19.4789(3)
_cell_length_c                   45.5070(12)
_cell_angle_alpha                90
_cell_angle_beta                 90
_cell_angle_gamma                120
_cell_volume                     14953.3
loop_
_atom_site_label
_atom_site_type_symbol
_atom_site_fract_x
_atom_site_fract_y
_atom_site_fract_z
N1 N 0.1168 0.45007(15) 0.9167
C1 C 0.06516(18) 0.43123(17) 0.93806(6)
H1 H 0.0790 0.4658 0.9539
Mg7 Mg 0.23161(6) 0.56491(6) 0.9167
Mg8 Mg 0.10176(6) 0.10172(6) 0.7500
O15 O 0.05835(11) 0.15049(11) 0.77962(4)
C11 C 0.09790(17) 0.39849(18) 0.89527(6)
H7 H 0.1325 0.4123 0.8794
C16 C 0.02829(18) 0.3230(2) 0.89477(6)
C28 C 0.00037(16) 0.17269(18) 0.82096(6)
C33 C 0.07493(19) 0.2206(2) 0.83405(7)
H14 H 0.1196 0.2206 0.8268
C38 C 0.08106(19) 0.2679(2) 0.85798(7)
H19 H 0.1304 0.2989 0.8667
C43 C 0.01539(15) 0.27035(18) 0.86927(6)
O29 O -0.0000 0.0000 0.7500
Mg13 Mg -0.0000 0.89824(6) 0.7500
O29_2 O -0.0000 1.0000 0.7500
Mg1 Mg 0.6667 0.23161(6) 0.0833
O1 O 0.74153(11) 0.26099(11) 0.04771(4)
O2 O 0.81716(11) 0.39168(11) 0.05371(4)
C4 C 0.79669(17) 0.32861(16) 0.04044(5)
C5 C 0.83936(18) 0.33370(16) 0.01237(6)
H3 H 0.8873 0.4529 0.0065
C10 C 0.8420(2) 0.2702(2) 0.00068(7)
H6 H 0.8106 0.2202 0.0089
O3 O 0.6667 0.3333 0.0833
Mg4 Mg 0.56491(6) 0.3333 0.0833
Mg6 Mg 0.76839(6) 0.43509(6) 0.0833
Mg9 Mg 0.10172(6) -0.0000 0.2500
O5 O 0.59180(11) 0.18613(16) 0.11896(4)
O7 O 0.51946(16) 0.25847(11) 0.04771(4)
O11 O 0.59432(11) 0.40820(11) 0.11896(4)
O13 O 0.73901(11) 0.48054(16) 0.04771(4)
O14 O 0.81387(16) 0.40568(11) 0.11896(4)
O16 O 0.51617(11) 0.24119(16) 0.11296(4)
O18 O 0.57452(16) 0.18284(11) 0.05371(4)
O20 O 0.75881(16) 0.27499(11) 0.11296(4)
O25 O 0.60832(11) 0.42548(16) 0.05371(4)
O28 O 0.72501(11) 0.48383(11) 0.11296(4)
N4 N 0.66673(15) 0.1168 0.0833
N7 N 0.45007(15) 0.33327(15) 0.0833
N9 N 0.8832 0.54993(15) 0.0833
C12 C 0.26817(18) 0.03274(25) 0.22861(6)
H8 H 0.2543 0.0535 0.2128
C17 C 0.3436(2) 0.03859(27) 0.22811(6)
C21 C 0.3596 -0.0000(2) 0.2500
H12 H 0.4073 -0.0000 0.2500
C24 C 0.53664(17) 0.19859(23) 0.12623(5)
C26 C 0.53192(23) 0.20331(17) 0.04044(5)
C29 C 0.49397(18) 0.16101(24) 0.15430(6)
C31 C 0.49434(24) 0.16064(18) 0.01237(6)
C34 C 0.4460(2) 0.18763(28) 0.16739(7)
H15 H 0.4460 0.2323 0.1602
H17 H 0.5656 0.1127 0.0065
C39 C 0.3987(2) 0.14646(28) 0.19132(7)
H20 H 0.3677 0.1648 0.2001
C44 C 0.39631(18) 0.07837(23) 0.20261(6)
C49 C 0.4423(2) 0.0541(3) 0.19021(7)
H25 H 0.4422 0.0095 0.1976
C54 C 0.4913(2) 0.0949(3) 0.16599(7)
C56 C 0.4282(3) 0.1580(2) 0.00068(7)
H30 H 0.5227 0.0763 0.1578
H32 H 0.4096 0.1894 0.0089
C2 C 0.9897(2) 0.36162(18) 0.93856(6)
C3 C 0.9737 0.3070(2) 0.9167
H2 H 0.9260 0.2593 0.9167
C6 C 0.8873(2) 0.40826(19) 0.99928(7)
C7 C 0.9346(2) 0.41439(19) 0.97535(7)
H4 H 0.9656 0.4637 0.9666
C8 C 0.93702(18) 0.34872(15) 0.96406(6)
C9 C 0.8910(2) 0.2784(2) 0.97646(7)
H5 H 0.8911 0.2339 0.9691
Mg2 Mg 0.89828(6) 0.0000 0.7500
O4 O 0.92766(11) 0.07486(11) 0.78562(4)
O8 O 0.14721(16) 0.07234(11) 0.78562(4)
O12 O 0.07234(11) 0.14721(16) 0.71438(4)
O22 O 0.94165(11) 0.09215(16) 0.72038(4)
O27 O 0.15049(11) 0.05835(11) 0.72038(4)
N5 N 0.7835 0.00006(15) 0.7500
N8 N 0.21660(15) 0.2165 0.7500
C19 C 0.37192(27) 0.0103(2) 0.93856(6)
C22 C 0.3333(2) 0.0263 0.9167
H13 H 0.3333 0.0740 0.9167
C23 C 0.99528(16) 0.13002(17) 0.79289(5)
C27 C 0.13475(23) 0.00472(16) 0.79289(5)
C36 C 0.52096(28) 0.1127(2) 0.99928(7)
C41 C 0.47979(28) 0.0654(2) 0.97535(7)
H22 H 0.4981 0.0344 0.9666
C46 C 0.41170(23) 0.06298(18) 0.96406(6)
C48 C 0.9451(2) 0.2243(2) 0.85687(7)
C51 C 0.3874(3) 0.1090(2) 0.97646(7)
C52 C 0.2793(3) 0.0549(2) 0.85687(7)
H24 H 0.9006 0.2244 0.8642
H27 H 0.3428 0.1089 0.9691
H28 H 0.3239 0.0994 0.8642
C53 C 0.9369(2) 0.1753(2) 0.83265(7)
C57 C 0.2385(3) 0.0631(2) 0.83265(7)
H29 H 0.8869 0.1439 0.8244
H33 H 0.2571 0.1131 0.8244
O29_3 O 1.0000 0.0000 0.7500
Mg3 Mg 0.43506(6) 0.76842(6) 0.4166
Mg9_2 Mg 0.10172(6) 1.0000 0.2500
Mg10 Mg 0.23158(6) 0.6666 0.4166
O6 O 0.40568(11) 0.81387(16) 0.38104(4)
O10 O 0.48054(16) 0.73901(11) 0.45229(4)
O17 O 0.27499(11) 0.75881(16) 0.38704(4)
O23 O 0.48383(11) 0.72501(11) 0.38704(4)
O24 O 0.39168(11) 0.81716(11) 0.44629(4)
N2 N 0.2165 0.99994(15) 0.2500
N6 N 0.5499 0.88326(15) 0.4166
C13 C 0.23544(17) 0.96726(25) 0.27139(6)
H9 H 0.2009 0.9465 0.2872
C18 C 0.30505(18) 0.96141(27) 0.27189(6)
C21_2 C 0.3596 1.0000(2) 0.2500
H12_2 H 0.4073 1.0000 0.2500
C25 C 0.33806(16) 0.80141(23) 0.37377(5)
C30 C 0.33297(16) 0.83899(24) 0.34570(6)
C35 C 0.25841(19) 0.81237(28) 0.33261(7)
H16 H 0.2138 0.7677 0.3398
C40 C 0.25228(19) 0.85354(28) 0.30868(7)
H21 H 0.2030 0.8352 0.2999
C45 C 0.31795(15) 0.92163(23) 0.29739(6)
C50 C 0.3883(2) 0.9459(3) 0.30979(7)
H26 H 0.4328 0.9905 0.3024
C55 C 0.3965(2) 0.9051(3) 0.33401(7)
H31 H 0.4465 0.9237 0.3422
O30 O 0.3334 0.6667 0.4166
Mg2_2 Mg 0.89828(6) 1.0000 0.7500
Mg11 Mg 0.3333 0.76839(6) 0.9167
Mg13_2 Mg 1.0000 0.89824(6) 0.7500
O9 O 0.85279(16) 0.92514(11) 0.71438(4)
O19 O 0.09215(16) 0.94165(11) 0.77962(4)
O21 O 0.84951(11) 0.90785(16) 0.77962(4)
N3 N 0.33327(15) 0.8832 0.9167
C14 C 0.36607(25) 0.93484(18) 0.93806(6)
C15 C 0.30060(25) 0.90210(17) 0.89527(6)
H10 H 0.3868 0.9210 0.9539
H11 H 0.2799 0.8675 0.8794
C20 C 0.29475(27) 0.97171(18) 0.89477(6)
C32 C 0.17233(24) 0.99963(16) 0.82096(6)
C37 C 0.14571(28) 0.92507(19) 0.83405(7)
H18 H 0.1011 0.8804 0.8268
C42 C 0.18688(28) 0.91894(19) 0.85798(7)
H23 H 0.1686 0.8696 0.8667
C47 C 0.25497(23) 0.98461(15) 0.86927(6)
O29_4 O 1.0000 1.0000 0.7500
Mg9_3 Mg 0.0000 0.10176(6) 0.2500
Mg10_2 Mg 0.3334 0.56494(6) 0.4166
O6_2 O 0.18613(16) 0.59180(19) 0.38104(4)
O10_2 O 0.26099(11) 0.74153(19) 0.45229(4)
O17_2 O 0.24119(16) 0.51617(19) 0.38704(4)
O24_2 O 0.18284(11) 0.57452(16) 0.44629(4)
N2_2 N 0.00006(15) 0.21660(15) 0.2500
N6_2 N 0.11674(15) 0.66660(15) 0.4166
C13_2 C 0.03274(25) 0.26817(30) 0.27139(6)
H9_2 H 0.0535 0.2543 0.2872
C18_2 C 0.03859(27) 0.34363(32) 0.27189(6)
C21_3 C 0.0000(2) 0.3597(2) 0.2500
H12_3 H 0.0000 0.4074 0.2500
C25_2 C 0.19859(23) 0.53664(28) 0.37377(5)
C30_2 C 0.16101(24) 0.49397(29) 0.34570(6)
C35_2 C 0.18763(28) 0.44603(34) 0.33261(7)
H16_2 H 0.2323 0.4460 0.3398
C40_2 C 0.14646(28) 0.39873(34) 0.30868(7)
H21_2 H 0.1648 0.3677 0.2999
C45_2 C 0.07837(23) 0.39631(27) 0.29739(6)
C50_2 C 0.0541(3) 0.4423(4) 0.30979(7)
H26_2 H 0.0095 0.4422 0.3024
C55_2 C 0.0949(3) 0.4913(4) 0.33401(7)
H31_2 H 0.0763 0.5227 0.3422
O9_2 O 0.07486(11) 0.92766(19) 0.71438(4)
C4_2 C 0.67139(16) 0.46808(23) 0.04044(5)
C5_2 C 0.66630(16) 0.50566(24) 0.01237(6)
H3_2 H 0.5471 0.4344 0.0065
C10_2 C 0.7298(2) 0.5718(3) 0.00068(7)
H6_2 H 0.7798 0.5904 0.0089
Mg9_4 Mg 1.0000 0.10176(6) 0.2500
C12_2 C 0.96726(25) 0.23544(31) 0.22861(6)
H8_2 H 0.9465 0.2009 0.2128
C17_2 C 0.96141(27) 0.30505(34) 0.22811(6)
C21_4 C 1.0000(2) 0.3597(2) 0.2500
H12_4 H 1.0000 0.4074 0.2500
C24_2 C 0.80141(23) 0.33806(29) 0.12623(5)
C29_2 C 0.83899(24) 0.33297(30) 0.15430(6)
C34_2 C 0.81237(28) 0.25841(34) 0.16739(7)
H15_2 H 0.7677 0.2138 0.1602
C39_2 C 0.85354(28) 0.25228(34) 0.19132(7)
H20_2 H 0.8352 0.2030 0.2001
C44_2 C 0.92163(23) 0.31795(29) 0.20261(6)
C49_2 C 0.9459(3) 0.3883(4) 0.19021(7)
H25_2 H 0.9905 0.4328 0.1976
C54_2 C 0.9051(3) 0.3965(4) 0.16599(7)
H30_2 H 0.9237 0.4465 0.1578
N1_2 N 0.54993(15) 0.66673(15) 0.9167
C1_2 C 0.56877(17) 0.63393(25) 0.93806(6)
H1_2 H 0.5342 0.6132 0.9539
C2_2 C 0.63838(18) 0.62808(27) 0.93856(6)
C3_2 C 0.6930(2) 0.6667(2) 0.9167
H2_2 H 0.7407 0.6667 0.9167
C6_2 C 0.59174(19) 0.47904(28) 0.99928(7)
C7_2 C 0.58561(19) 0.52021(28) 0.97535(7)
H4_2 H 0.5363 0.5019 0.9666
C8_2 C 0.65128(15) 0.58830(23) 0.96406(6)
C9_2 C 0.7216(2) 0.6126(3) 0.97646(7)
H5_2 H 0.7661 0.6572 0.9691
Mg7_2 Mg 0.43509(6) 0.66670(8) 0.9167
O4_2 O 0.92514(11) 0.85279(16) 0.78562(4)
O22_2 O 0.90785(16) 0.84951(19) 0.72038(4)
N5_2 N 0.99994(15) 0.78340(15) 0.7500
C11_2 C 0.60151(18) 0.69940(25) 0.89527(6)
H7_2 H 0.5877 0.7201 0.8794
C16_2 C 0.6770(2) 0.70525(27) 0.89477(6)
C23_2 C 0.86998(17) 0.86525(23) 0.79289(5)
C28_2 C 0.82731(18) 0.82767(24) 0.82096(6)
C33_2 C 0.7794(2) 0.85429(28) 0.83405(7)
H14_2 H 0.7794 0.8989 0.8268
C38_2 C 0.7321(2) 0.81312(28) 0.85798(7)
H19_2 H 0.7011 0.8314 0.8667
C43_2 C 0.72965(18) 0.74503(23) 0.86927(6)
C48_2 C 0.7757(2) 0.7207(3) 0.85687(7)
H24_2 H 0.7756 0.6761 0.8642
C53_2 C 0.8247(2) 0.7615(3) 0.83265(7)
H29_2 H 0.8561 0.7429 0.8244
Mg9_5 Mg 0.89824(6) 0.89828(6) 0.2500
O6_3 O 0.40820(19) 0.59432(11) 0.38104(4)
O10_3 O 0.25847(19) 0.51946(16) 0.45229(4)
O24_3 O 0.42548(16) 0.60832(11) 0.44629(4)
N2_3 N 0.78340(15) 0.7835 0.2500
N6_3 N 0.33340(15) 0.4501 0.4166
C12_3 C 0.76456(31) 0.73183(18) 0.22861(6)
C13_3 C 0.73183(30) 0.76456(17) 0.27139(6)
H8_3 H 0.7991 0.7457 0.2128
H9_3 H 0.7457 0.7991 0.2872
C17_3 C 0.69495(34) 0.6564(2) 0.22811(6)
C18_3 C 0.65637(32) 0.69495(18) 0.27189(6)
C21_5 C 0.6403(2) 0.6404 0.2500
H12_5 H 0.5926 0.5927 0.2500
C24_3 C 0.66194(29) 0.46336(17) 0.12623(5)
C25_3 C 0.46336(28) 0.66194(16) 0.37377(5)
C29_3 C 0.66703(30) 0.50603(18) 0.15430(6)
C30_3 C 0.50603(29) 0.66703(16) 0.34570(6)
C34_3 C 0.74159(34) 0.5540(2) 0.16739(7)
C35_3 C 0.55397(34) 0.74159(19) 0.33261(7)
H15_3 H 0.7862 0.5540 0.1602
H16_3 H 0.5540 0.7862 0.3398
C39_3 C 0.74772(34) 0.6013(2) 0.19132(7)
C40_3 C 0.60127(34) 0.74772(19) 0.30868(7)
H20_3 H 0.7970 0.6323 0.2001
H21_3 H 0.6323 0.7970 0.2999
C44_3 C 0.68205(29) 0.60369(18) 0.20261(6)
C45_3 C 0.60369(27) 0.68205(15) 0.29739(6)
C49_3 C 0.6117(4) 0.5577(2) 0.19021(7)
C50_3 C 0.5577(4) 0.6117(2) 0.30979(7)
H25_3 H 0.5672 0.5578 0.1976
H26_3 H 0.5578 0.5672 0.3024
C54_3 C 0.6035(4) 0.5087(2) 0.16599(7)
C55_3 C 0.5087(4) 0.6035(2) 0.33401(7)
H30_3 H 0.5535 0.4773 0.1578
H31_3 H 0.4773 0.5535 0.3422
N1_3 N 0.45007(15) 0.1168 0.5833
C1_3 C 0.43123(17) 0.06516(18) 0.56194(6)
H1_3 H 0.4658 0.0790 0.5461
Mg7_3 Mg 0.56491(6) 0.23161(6) 0.5833
C11_3 C 0.39849(18) 0.09790(17) 0.60473(6)
H7_3 H 0.4123 0.1325 0.6206
C16_3 C 0.3230(2) 0.02829(18) 0.60523(6)
C28_3 C 0.17269(18) 0.00037(16) 0.67904(6)
C33_3 C 0.2206(2) 0.07493(19) 0.66595(7)
H14_3 H 0.2206 0.1196 0.6732
C38_3 C 0.2679(2) 0.08106(19) 0.64202(7)
H19_3 H 0.2989 0.1304 0.6333
C43_3 C 0.27035(18) 0.01539(15) 0.63073(6)
C2_3 C 0.36162(18) 0.9897(2) 0.56144(6)
C3_3 C 0.3070(2) 0.9737 0.5833
H2_3 H 0.2593 0.9260 0.5833
C4_3 C 0.32861(16) 0.79669(17) 0.45956(5)
C5_3 C 0.33370(16) 0.83936(18) 0.48763(6)
C6_3 C 0.40826(19) 0.8873(2) 0.50072(7)
H3_3 H 0.4529 0.8873 0.4935
C7_3 C 0.41439(19) 0.9346(2) 0.52465(7)
H4_3 H 0.4637 0.9656 0.5334
C8_3 C 0.34872(15) 0.93702(18) 0.53594(6)
C9_3 C 0.2784(2) 0.8910(2) 0.52354(7)
H5_3 H 0.2339 0.8911 0.5309
C10_3 C 0.2702(2) 0.8420(2) 0.49932(7)
H6_3 H 0.2202 0.8106 0.4911
N5_3 N 0.00006(15) 0.7835 0.7500
C19_2 C 0.0103(2) 0.37192(27) 0.56144(6)
C22_2 C 0.0263 0.3333(2) 0.5833
H13_2 H 0.0740 0.3333 0.5833
C23_3 C 0.13002(17) 0.99528(16) 0.70711(5)
C26_2 C 0.20331(17) 0.53192(23) 0.45956(5)
C27_2 C 0.00472(16) 0.13475(23) 0.70711(5)
C31_2 C 0.16064(18) 0.49434(24) 0.48763(6)
C36_2 C 0.1127(2) 0.52096(28) 0.50072(7)
H17_2 H 0.1127 0.5656 0.4935
C41_2 C 0.0654(2) 0.47979(28) 0.52465(7)
H22_2 H 0.0344 0.4981 0.5334
C46_2 C 0.06298(18) 0.41170(23) 0.53594(6)
C48_3 C 0.2243(2) 0.9451(2) 0.64313(7)
C51_2 C 0.1090(2) 0.3874(3) 0.52354(7)
C52_2 C 0.0549(2) 0.2793(3) 0.64313(7)
H24_3 H 0.2244 0.9006 0.6358
H27_2 H 0.1089 0.3428 0.5309
H28_2 H 0.0994 0.3239 0.6358
C53_3 C 0.1753(2) 0.9369(2) 0.66735(7)
C56_2 C 0.1580(2) 0.4282(3) 0.49932(7)
C57_2 C 0.0631(2) 0.2385(3) 0.66735(7)
H29_3 H 0.1439 0.8869 0.6756
H32_2 H 0.1894 0.4096 0.4911
H33_2 H 0.1131 0.2571 0.6756
Mg11_2 Mg 0.76839(6) 0.3333 0.5833
N2_4 N 0.99994(15) 0.2165 0.2500
N3_2 N 0.8832 0.33327(15) 0.5833
C14_2 C 0.93484(18) 0.36607(25) 0.56194(6)
C15_2 C 0.90210(17) 0.30060(25) 0.60473(6)
H10_2 H 0.9210 0.3868 0.5461
H11_2 H 0.8675 0.2799 0.6206
C20_2 C 0.97171(18) 0.29475(27) 0.60523(6)
C32_2 C 0.99963(16) 0.17233(24) 0.67904(6)
C37_2 C 0.92507(19) 0.14571(28) 0.66595(7)
H18_2 H 0.8804 0.1011 0.6732
C42_2 C 0.91894(19) 0.18688(28) 0.64202(7)
H23_2 H 0.8696 0.1686 0.6333
C47_2 C 0.98461(15) 0.25497(23) 0.63073(6)
N2_5 N 0.21660(15) 0.00006(15) 0.2500
N1_4 N 0.66673(15) 0.54993(15) 0.5833
C1_4 C 0.63393(25) 0.56877(17) 0.56194(6)
H1_4 H 0.6132 0.5342 0.5461
C2_4 C 0.62808(27) 0.63838(18) 0.56144(6)
C3_4 C 0.6667(2) 0.6930(2) 0.5833
H2_4 H 0.6667 0.7407 0.5833
C4_4 C 0.46808(23) 0.67139(16) 0.45956(5)
C5_4 C 0.50566(24) 0.66630(16) 0.48763(6)
C6_4 C 0.47904(28) 0.59174(19) 0.50072(7)
H3_4 H 0.4344 0.5471 0.4935
C7_4 C 0.52021(28) 0.58561(19) 0.52465(7)
H4_4 H 0.5019 0.5363 0.5334
C8_4 C 0.58830(23) 0.65128(15) 0.53594(6)
C9_4 C 0.6126(3) 0.7216(2) 0.52354(7)
H5_4 H 0.6572 0.7661 0.5309
C10_4 C 0.5718(3) 0.7298(2) 0.49932(7)
H6_4 H 0.5904 0.7798 0.4911
Mg7_4 Mg 0.66670(8) 0.43509(6) 0.5833
N5_4 N 0.78340(15) 0.99994(15) 0.7500
C11_4 C 0.69940(25) 0.60151(18) 0.60473(6)
H7_4 H 0.7201 0.5877 0.6206
C16_4 C 0.70525(27) 0.6770(2) 0.60523(6)
C23_4 C 0.86525(23) 0.86998(17) 0.70711(5)
C28_4 C 0.82767(24) 0.82731(18) 0.67904(6)
C33_4 C 0.85429(28) 0.7794(2) 0.66595(7)
H14_4 H 0.8989 0.7794 0.6732
C38_4 C 0.81312(28) 0.7321(2) 0.64202(7)
H19_4 H 0.8314 0.7011 0.6333
C43_4 C 0.74503(23) 0.72965(18) 0.63073(6)
C48_4 C 0.7207(3) 0.7757(2) 0.64313(7)
H24_4 H 0.6761 0.7756 0.6358
C53_4 C 0.7615(3) 0.8247(2) 0.66735(7)
H29_4 H 0.7429 0.8561 0.6756
O9_3 O 0.14721(16) 0.07486(11) 0.28562(4)
O19_2 O 0.90785(16) 0.05835(11) 0.22038(4)
O21_2 O 0.15049(11) 0.09215(16) 0.22038(4)
C14_3 C 0.63393(25) 0.06516(18) 0.06194(6)
C15_3 C 0.69940(25) 0.09790(17) 0.10473(6)
H10_3 H 0.6132 0.0790 0.0461
H11_3 H 0.7201 0.1325 0.1206
C20_3 C 0.70525(27) 0.02829(18) 0.10523(6)
C32_3 C 0.82767(24) 0.00037(16) 0.17904(6)
C37_3 C 0.85429(28) 0.07493(19) 0.16595(7)
H18_3 H 0.8989 0.1196 0.1732
C42_3 C 0.81312(28) 0.08106(19) 0.14202(7)
H23_3 H 0.8314 0.1304 0.1333
C47_3 C 0.74503(23) 0.01539(15) 0.13073(6)
O29_5 O 0.0000 -0.0000 0.2500
O31 O 0.9999 -0.0000 0.2500
O6_4 O 0.59432(11) 0.18613(16) 0.61896(4)
O10_4 O 0.51946(16) 0.26099(11) 0.54771(4)
O17_3 O 0.72501(11) 0.24119(16) 0.61296(4)
O23_2 O 0.51617(11) 0.27499(11) 0.61296(4)
O24_4 O 0.60832(11) 0.18284(11) 0.55371(4)
C13_4 C 0.76456(17) 0.03274(25) 0.72861(6)
H9_4 H 0.7991 0.0535 0.7128
C18_4 C 0.69495(18) 0.03859(27) 0.72811(6)
C21_6 C 0.6404 0.0000(2) 0.7500
H12_6 H 0.5927 0.0000 0.7500
C25_4 C 0.66194(16) 0.19859(23) 0.62623(5)
C30_4 C 0.66703(16) 0.16101(24) 0.65430(6)
C35_4 C 0.74159(19) 0.18763(28) 0.66739(7)
H16_4 H 0.7862 0.2323 0.6602
C40_4 C 0.74772(19) 0.14646(28) 0.69132(7)
H21_4 H 0.7970 0.1648 0.7001
C45_4 C 0.68205(15) 0.07837(23) 0.70261(6)
C50_4 C 0.6117(2) 0.0541(3) 0.69021(7)
H26_4 H 0.5672 0.0095 0.6976
C55_4 C 0.6035(2) 0.0949(3) 0.66599(7)
H31_4 H 0.5535 0.0763 0.6578
O30_2 O 0.6666 0.3333 0.5834
C2_5 C 0.0103(2) 0.63838(18) 0.06144(6)
C3_5 C 0.0263 0.6930(2) 0.0833
H2_5 H 0.0740 0.7407 0.0833
C6_5 C 0.1127(2) 0.59174(19) 0.00072(7)
C7_5 C 0.0654(2) 0.58561(19) 0.02465(7)
H4_5 H 0.0344 0.5363 0.0334
C8_5 C 0.06298(18) 0.65128(15) 0.03594(6)
C9_5 C 0.1090(2) 0.7216(2) 0.02354(7)
H5_5 H 0.1089 0.7661 0.0309
O4_3 O 0.07234(11) 0.92514(11) 0.21438(4)
O8_2 O 0.85279(16) 0.92766(11) 0.21438(4)
O12_2 O 0.92766(11) 0.85279(16) 0.28562(4)
O22_3 O 0.05835(11) 0.90785(16) 0.27962(4)
O26 O 0.94165(11) 0.84951(11) 0.22038(4)
O27_2 O 0.84951(11) 0.94165(11) 0.27962(4)
C19_3 C 0.62808(27) 0.9897(2) 0.06144(6)
C22_3 C 0.6667(2) 0.9737 0.0833
H13_3 H 0.6667 0.9260 0.0833
C23_5 C 0.00472(16) 0.86998(17) 0.20711(5)
C27_3 C 0.86525(23) 0.99528(16) 0.20711(5)
C36_3 C 0.47904(28) 0.8873(2) 0.00072(7)
C41_3 C 0.52021(28) 0.9346(2) 0.02465(7)
H22_3 H 0.5019 0.9656 0.0334
C46_3 C 0.58830(23) 0.93702(18) 0.03594(6)
C48_5 C 0.0549(2) 0.7757(2) 0.14313(7)
C51_3 C 0.6126(3) 0.8910(2) 0.02354(7)
C52_3 C 0.7207(3) 0.9451(2) 0.14313(7)
H24_5 H 0.0994 0.7756 0.1358
H27_3 H 0.6572 0.8911 0.0309
H28_3 H 0.6761 0.9006 0.1358
C53_5 C 0.0631(2) 0.8247(2) 0.16735(7)
C57_3 C 0.7615(3) 0.9369(2) 0.16735(7)
H29_5 H 0.1131 0.8561 0.1756
H33_3 H 0.7429 0.8869 0.1756
O29_6 O 0.0000 1.0000 0.2500
O31_2 O 0.9999 1.0000 0.2500
O1_2 O 0.25847(11) 0.73901(11) 0.95229(4)
O2_2 O 0.18284(11) 0.60832(11) 0.94629(4)
C4_5 C 0.20331(17) 0.67139(16) 0.95956(5)
C5_5 C 0.16064(18) 0.66630(16) 0.98763(6)
H3_5 H 0.1127 0.5471 0.9935
C10_5 C 0.1580(2) 0.7298(2) 0.99932(7)
H6_5 H 0.1894 0.7798 0.9911
O3_2 O 0.3333 0.6667 0.9167
O5_2 O 0.40820(11) 0.81387(16) 0.88104(4)
O7_2 O 0.48054(16) 0.74153(11) 0.95229(4)
O11_2 O 0.40568(11) 0.59180(11) 0.88104(4)
O13_2 O 0.26099(11) 0.51946(16) 0.95229(4)
O14_2 O 0.18613(16) 0.59432(11) 0.88104(4)
O16_2 O 0.48383(11) 0.75881(16) 0.88704(4)
O18_2 O 0.42548(16) 0.81716(11) 0.94629(4)
O20_2 O 0.24119(16) 0.72501(11) 0.88704(4)
O25_2 O 0.39168(11) 0.57452(16) 0.94629(4)
O28_2 O 0.27499(11) 0.51617(11) 0.88704(4)
C12_4 C 0.73183(18) 0.96726(25) 0.77139(6)
H8_4 H 0.7457 0.9465 0.7872
C17_4 C 0.6564(2) 0.96141(27) 0.77189(6)
C21_7 C 0.6404 1.0000(2) 0.7500
H12_7 H 0.5927 1.0000 0.7500
C24_4 C 0.46336(17) 0.80141(23) 0.87377(5)
C26_3 C 0.46808(23) 0.79669(17) 0.95956(5)
C29_4 C 0.50603(18) 0.83899(24) 0.84570(6)
C31_3 C 0.50566(24) 0.83936(18) 0.98763(6)
C34_4 C 0.5540(2) 0.81237(28) 0.83261(7)
H15_4 H 0.5540 0.7677 0.8398
H17_3 H 0.4344 0.8873 0.9935
C39_4 C 0.6013(2) 0.85354(28) 0.80868(7)
H20_4 H 0.6323 0.8352 0.7999
C44_4 C 0.60369(18) 0.92163(23) 0.79739(6)
C49_4 C 0.5577(2) 0.9459(3) 0.80979(7)
H25_4 H 0.5578 0.9905 0.8024
C54_4 C 0.5087(2) 0.9051(3) 0.83401(7)
C56_3 C 0.5718(3) 0.8420(2) 0.99932(7)
H30_4 H 0.4773 0.9237 0.8422
H32_3 H 0.5904 0.8106 0.9911
C1_5 C 0.93484(18) 0.56877(17) 0.06194(6)
H1_5 H 0.9210 0.5342 0.0461
C11_5 C 0.90210(17) 0.60151(18) 0.10473(6)
H7_5 H 0.8675 0.5877 0.1206
C16_5 C 0.97171(18) 0.6770(2) 0.10523(6)
C28_5 C 0.99963(16) 0.82731(18) 0.17904(6)
C33_5 C 0.92507(19) 0.7794(2) 0.16595(7)
H14_5 H 0.8804 0.7794 0.1732
C38_5 C 0.91894(19) 0.7321(2) 0.14202(7)
H19_5 H 0.8696 0.7011 0.1333
C43_5 C 0.98461(15) 0.72965(18) 0.13073(6)
C1_6 C 0.43123(17) 0.36607(25) 0.06194(6)
H1_6 H 0.4658 0.3868 0.0461
C2_6 C 0.36162(18) 0.37192(27) 0.06144(6)
C3_6 C 0.3070(2) 0.3333(2) 0.0833
H2_6 H 0.2593 0.3333 0.0833
C6_6 C 0.40826(19) 0.52096(28) 0.00072(7)
C7_6 C 0.41439(19) 0.47979(28) 0.02465(7)
H4_6 H 0.4637 0.4981 0.0334
C8_6 C 0.34872(15) 0.41170(23) 0.03594(6)
C9_6 C 0.2784(2) 0.3874(3) 0.02354(7)
H5_6 H 0.2339 0.3428 0.0309
O4_4 O 0.07486(11) 0.14721(16) 0.21438(4)
O22_4 O 0.09215(16) 0.15049(19) 0.27962(4)
C11_6 C 0.39849(18) 0.30060(25) 0.10473(6)
H7_6 H 0.4123 0.2799 0.1206
C16_6 C 0.3230(2) 0.29475(27) 0.10523(6)
C23_6 C 0.13002(17) 0.13475(23) 0.20711(5)
C28_6 C 0.17269(18) 0.17233(24) 0.17904(6)
C33_6 C 0.2206(2) 0.14571(28) 0.16595(7)
H14_6 H 0.2206 0.1011 0.1732
C38_6 C 0.2679(2) 0.18688(28) 0.14202(7)
H19_6 H 0.2989 0.1686 0.1333
C43_6 C 0.27035(18) 0.25497(23) 0.13073(6)
C48_6 C 0.2243(2) 0.2793(3) 0.14313(7)
H24_6 H 0.2244 0.3239 0.1358
C53_6 C 0.1753(2) 0.2385(3) 0.16735(7)
H29_6 H 0.1439 0.2571 0.1756
C4_6 C 0.32861(16) 0.53192(23) 0.95956(5)
C5_6 C 0.33370(16) 0.49434(24) 0.98763(6)
H3_6 H 0.4529 0.5656 0.9935
C10_6 C 0.2702(2) 0.4282(3) 0.99932(7)
H6_6 H 0.2202 0.4096 0.9911
C12_5 C 0.03274(25) 0.76456(31) 0.77139(6)
H8_5 H 0.0535 0.7991 0.7872
C17_5 C 0.03859(27) 0.69495(34) 0.77189(6)
C21_8 C -0.0000(2) 0.6403(2) 0.7500
H12_8 H -0.0000 0.5926 0.7500
C24_5 C 0.19859(23) 0.66194(29) 0.87377(5)
C29_5 C 0.16101(24) 0.66703(30) 0.84570(6)
C34_5 C 0.18763(28) 0.74159(34) 0.83261(7)
H15_5 H 0.2323 0.7862 0.8398
C39_5 C 0.14646(28) 0.74772(34) 0.80868(7)
H20_5 H 0.1648 0.7970 0.7999
C44_5 C 0.07837(23) 0.68205(29) 0.79739(6)
C49_5 C 0.0541(3) 0.6117(4) 0.80979(7)
H25_5 H 0.0095 0.5672 0.8024
C54_5 C 0.0949(3) 0.6035(4) 0.83401(7)
H30_5 H 0.0763 0.5535 0.8422
O9_4 O 0.92514(11) 0.07234(19) 0.28562(4)
O6_5 O 0.81387(16) 0.40820(19) 0.61896(4)
O10_5 O 0.73901(11) 0.25847(19) 0.54771(4)
O17_4 O 0.75881(16) 0.48383(19) 0.61296(4)
O24_5 O 0.81716(11) 0.42548(16) 0.55371(4)
C13_5 C 0.96726(25) 0.73183(30) 0.72861(6)
H9_5 H 0.9465 0.7457 0.7128
C18_5 C 0.96141(27) 0.65637(32) 0.72811(6)
C21_9 C 1.0000(2) 0.6403(2) 0.7500
H12_9 H 1.0000 0.5926 0.7500
C25_5 C 0.80141(23) 0.46336(28) 0.62623(5)
C30_5 C 0.83899(24) 0.50603(29) 0.65430(6)
C35_5 C 0.81237(28) 0.55397(34) 0.66739(7)
H16_5 H 0.7677 0.5540 0.6602
C40_5 C 0.85354(28) 0.60127(34) 0.69132(7)
H21_5 H 0.8352 0.6323 0.7001
C45_5 C 0.92163(23) 0.60369(27) 0.70261(6)
C50_5 C 0.9459(3) 0.5577(4) 0.69021(7)
H26_5 H 0.9905 0.5578 0.6976
C55_5 C 0.9051(3) 0.5087(4) 0.66599(7)
H31_5 H 0.9237 0.4773 0.6578
O6_6 O 0.59180(19) 0.40568(11) 0.61896(4)
O10_6 O 0.74153(19) 0.48054(16) 0.54771(4)
O24_6 O 0.57452(16) 0.39168(11) 0.55371(4)
C12_6 C 0.23544(31) 0.26817(18) 0.77139(6)
C13_6 C 0.26817(30) 0.23544(17) 0.72861(6)
H8_6 H 0.2009 0.2543 0.7872
H9_6 H 0.2543 0.2009 0.7128
C17_6 C 0.30505(34) 0.3436(2) 0.77189(6)
C18_6 C 0.34363(32) 0.30505(18) 0.72811(6)
C21_10 C 0.3597(2) 0.3596 0.7500
H12_10 H 0.4074 0.4073 0.7500
C24_6 C 0.33806(29) 0.53664(17) 0.87377(5)
C25_6 C 0.53664(28) 0.33806(16) 0.62623(5)
C29_6 C 0.33297(30) 0.49397(18) 0.84570(6)
C30_6 C 0.49397(29) 0.33297(16) 0.65430(6)
C34_6 C 0.25841(34) 0.4460(2) 0.83261(7)
C35_6 C 0.44603(34) 0.25841(19) 0.66739(7)
H15_6 H 0.2138 0.4460 0.8398
H16_6 H 0.4460 0.2138 0.6602
C39_6 C 0.25228(34) 0.3987(2) 0.80868(7)
C40_6 C 0.39873(34) 0.25228(19) 0.69132(7)
H20_6 H 0.2030 0.3677 0.7999
H21_6 H 0.3677 0.2030 0.7001
C44_6 C 0.31795(29) 0.39631(18) 0.79739(6)
C45_6 C 0.39631(27) 0.31795(15) 0.70261(6)
C49_6 C 0.3883(4) 0.4423(2) 0.80979(7)
C50_6 C 0.4423(4) 0.3883(2) 0.69021(7)
H25_6 H 0.4328 0.4422 0.8024
H26_6 H 0.4422 0.4328 0.6976
C54_6 C 0.3965(4) 0.4913(2) 0.83401(7)
C55_6 C 0.4913(4) 0.3965(2) 0.66599(7)
H30_6 H 0.4465 0.5227 0.8422
H31_6 H 0.5227 0.4465 0.6578
C14_4 C 0.06516(18) 0.63393(25) 0.43806(6)
C15_4 C 0.09790(17) 0.69940(25) 0.39527(6)
H10_4 H 0.0790 0.6132 0.4539
H11_4 H 0.1325 0.7201 0.3794
C20_4 C 0.02829(18) 0.70525(27) 0.39477(6)
C32_4 C 0.00037(16) 0.82767(24) 0.32096(6)
C37_4 C 0.07493(19) 0.85429(28) 0.33405(7)
H18_4 H 0.1196 0.8989 0.3268
C42_4 C 0.08106(19) 0.81312(28) 0.35798(7)
H23_4 H 0.1304 0.8314 0.3667
C47_4 C 0.01539(15) 0.74503(23) 0.36927(6)
C2_7 C 0.63838(18) 0.0103(2) 0.43856(6)
C3_7 C 0.6930(2) 0.0263 0.4167
H2_7 H 0.7407 0.0740 0.4167
C4_7 C 0.67139(16) 0.20331(17) 0.54044(5)
C5_7 C 0.66630(16) 0.16064(18) 0.51237(6)
C6_7 C 0.59174(19) 0.1127(2) 0.49928(7)
H3_7 H 0.5471 0.1127 0.5065
C7_7 C 0.58561(19) 0.0654(2) 0.47535(7)
H4_7 H 0.5363 0.0344 0.4666
C8_7 C 0.65128(15) 0.06298(18) 0.46406(6)
C9_7 C 0.7216(2) 0.1090(2) 0.47646(7)
H5_7 H 0.7661 0.1089 0.4691
C10_7 C 0.7298(2) 0.1580(2) 0.50068(7)
H6_7 H 0.7798 0.1894 0.5089
C19_4 C 0.9897(2) 0.62808(27) 0.43856(6)
C22_4 C 0.9737 0.6667(2) 0.4167
H13_4 H 0.9260 0.6667 0.4167
C23_7 C 0.86998(17) 0.00472(16) 0.29289(5)
C26_4 C 0.79669(17) 0.46808(23) 0.54044(5)
C27_4 C 0.99528(16) 0.86525(23) 0.29289(5)
C31_4 C 0.83936(18) 0.50566(24) 0.51237(6)
C36_4 C 0.8873(2) 0.47904(28) 0.49928(7)
H17_4 H 0.8873 0.4344 0.5065
C41_4 C 0.9346(2) 0.52021(28) 0.47535(7)
H22_4 H 0.9656 0.5019 0.4666
C46_4 C 0.93702(18) 0.58830(23) 0.46406(6)
C48_7 C 0.7757(2) 0.0549(2) 0.35687(7)
C51_4 C 0.8910(2) 0.6126(3) 0.47646(7)
C52_4 C 0.9451(2) 0.7207(3) 0.35687(7)
H24_7 H 0.7756 0.0994 0.3642
H27_4 H 0.8911 0.6572 0.4691
H28_4 H 0.9006 0.6761 0.3642
C53_7 C 0.8247(2) 0.0631(2) 0.33265(7)
C56_4 C 0.8420(2) 0.5718(3) 0.50068(7)
C57_4 C 0.9369(2) 0.7615(3) 0.33265(7)
H29_7 H 0.8561 0.1131 0.3244
H32_4 H 0.8106 0.5904 0.5089
H33_4 H 0.8869 0.7429 0.3244
C1_7 C 0.56877(17) 0.93484(18) 0.43806(6)
H1_7 H 0.5342 0.9210 0.4539
C11_7 C 0.60151(18) 0.90210(17) 0.39527(6)
H7_7 H 0.5877 0.8675 0.3794
C16_7 C 0.6770(2) 0.97171(18) 0.39477(6)
C28_7 C 0.82731(18) 0.99963(16) 0.32096(6)
C33_7 C 0.7794(2) 0.92507(19) 0.33405(7)
H14_7 H 0.7794 0.8804 0.3268
C38_7 C 0.7321(2) 0.91894(19) 0.35798(7)
H19_7 H 0.7011 0.8696 0.3667
C43_7 C 0.72965(18) 0.98461(15) 0.36927(6)
C1_8 C 0.36607(25) 0.43123(17) 0.43806(6)
H1_8 H 0.3868 0.4658 0.4539
C2_8 C 0.37192(27) 0.36162(18) 0.43856(6)
C3_8 C 0.3333(2) 0.3070(2) 0.4167
H2_8 H 0.3333 0.2593 0.4167
C4_8 C 0.53192(23) 0.32861(16) 0.54044(5)
C5_8 C 0.49434(24) 0.33370(16) 0.51237(6)
C6_8 C 0.52096(28) 0.40826(19) 0.49928(7)
H3_8 H 0.5656 0.4529 0.5065
C7_8 C 0.47979(28) 0.41439(19) 0.47535(7)
H4_8 H 0.4981 0.4637 0.4666
C8_8 C 0.41170(23) 0.34872(15) 0.46406(6)
C9_8 C 0.3874(3) 0.2784(2) 0.47646(7)
H5_8 H 0.3428 0.2339 0.4691
C10_8 C 0.4282(3) 0.2702(2) 0.50068(7)
H6_8 H 0.4096 0.2202 0.5089
C11_8 C 0.30060(25) 0.39849(18) 0.39527(6)
H7_8 H 0.2799 0.4123 0.3794
C16_8 C 0.29475(27) 0.3230(2) 0.39477(6)
C23_8 C 0.13475(23) 0.13002(17) 0.29289(5)
C28_8 C 0.17233(24) 0.17269(18) 0.32096(6)
C33_8 C 0.14571(28) 0.2206(2) 0.33405(7)
H14_8 H 0.1011 0.2206 0.3268
C38_8 C 0.18688(28) 0.2679(2) 0.35798(7)
H19_8 H 0.1686 0.2989 0.3667
C43_8 C 0.25497(23) 0.27035(18) 0.36927(6)
C48_8 C 0.2793(3) 0.2243(2) 0.35687(7)
H24_8 H 0.3239 0.2244 0.3642
C53_8 C 0.2385(3) 0.1753(2) 0.33265(7)
H29_8 H 0.2571 0.1439 0.3244
loop_
_geom_bond_atom_site_label_1
_geom_bond_atom_site_label_2
_geom_bond_site_symmetry_1
_geom_bond_site_symmetry_2
N1 C1 1_555 1_555
C1 H1 1_555 1_555
Mg7 N1 1_555 1_555
Mg8 O15 1_555 1_555
C11 N1 1_555 1_555
H7 C11 1_555 1_555
C28 C33 1_555 1_555
C33 H14 1_555 1_555
C38 C33 1_555 1_555
H19 C38 1_555 1_555
C43 C16 1_555 1_555
Mg8 O29 1_555 1_555
C11 C16 1_555 1_555
C38 C43 1_555 1_555
Mg13 O29_2 1_555 1_555
Mg1 O1 1_555 1_555
O1 C4 1_555 1_555
O2 C4 1_555 1_555
C4 C5 1_555 1_555
C10 C5 1_555 1_555
H6 C10 1_555 1_555
O3 Mg1 1_555 1_555
Mg4 O3 1_555 1_555
Mg6 O2 1_555 1_555
O5 Mg1 1_555 1_555
O7 Mg4 1_555 1_555
O11 Mg4 1_555 1_555
O13 Mg6 1_555 1_555
O14 Mg6 1_555 1_555
O16 Mg4 1_555 1_555
O18 Mg1 1_555 1_555
O20 Mg1 1_555 1_555
O25 Mg4 1_555 1_555
O28 Mg6 1_555 1_555
N4 Mg1 1_555 1_555
N7 Mg4 1_555 1_555
N9 Mg6 1_555 1_555
C12 H8 1_555 1_555
C17 C12 1_555 1_555
C21 C17 1_555 1_555
H12 C21 1_555 1_555
C24 O5 1_555 1_555
C26 O7 1_555 1_555
C29 C24 1_555 1_555
C31 C26 1_555 1_555
C34 C29 1_555 1_555
H15 C34 1_555 1_555
C39 C34 1_555 1_555
H20 C39 1_555 1_555
C44 C17 1_555 1_555
C49 C44 1_555 1_555
H25 C49 1_555 1_555
C54 C29 1_555 1_555
C56 C31 1_555 1_555
H30 C54 1_555 1_555
H32 C56 1_555 1_555
O3 Mg6 1_555 1_555
O16 C24 1_555 1_555
O18 C26 1_555 1_555
C39 C44 1_555 1_555
C49 C54 1_555 1_555
C3 C2 1_555 1_555
H2 C3 1_555 1_555
C7 C6 1_555 1_555
H4 C7 1_555 1_555
C8 C2 1_555 1_555
C9 C8 1_555 1_555
H5 C9 1_555 1_555
Mg2 O4 1_555 1_555
Mg8 O8 1_555 1_555
O4 C23 1_555 1_555
O8 C27 1_555 1_555
O12 Mg8 1_555 1_555
O22 Mg2 1_555 1_555
O27 Mg8 1_555 1_555
N5 Mg2 1_555 1_555
N8 Mg8 1_555 1_555
C22 C19 1_555 1_555
H13 C22 1_555 1_555
C41 C36 1_555 1_555
H22 C41 1_555 1_555
C46 C19 1_555 1_555
C51 C46 1_555 1_555
H24 C48 1_555 1_555
H27 C51 1_555 1_555
H28 C52 1_555 1_555
H29 C53 1_555 1_555
H33 C57 1_555 1_555
O29_3 Mg2 1_555 1_555
C7 C8 1_555 1_555
C41 C46 1_555 1_555
C48 C53 1_555 1_555
C52 C57 1_555 1_555
Mg3 O6 1_555 1_555
Mg9_2 N2 1_555 1_555
Mg10 O17 1_555 1_555
O6 C25 1_555 1_555
O10 Mg3 1_555 1_555
O17 C25 1_555 1_555
O23 Mg3 1_555 1_555
O24 Mg3 1_555 1_555
N6 Mg3 1_555 1_555
C13 N2 1_555 1_555
H9 C13 1_555 1_555
C18 C13 1_555 1_555
H12_2 C21_2 1_555 1_555
C25 C30 1_555 1_555
C30 C35 1_555 1_555
C35 H16 1_555 1_555
C40 C35 1_555 1_555
H21 C40 1_555 1_555
C45 C18 1_555 1_555
C50 C45 1_555 1_555
H26 C50 1_555 1_555
C55 C30 1_555 1_555
H31 C55 1_555 1_555
O30 Mg3 1_555 1_555
Mg10 O30 1_555 1_555
C18 C21_2 1_555 1_555
C40 C45 1_555 1_555
C50 C55 1_555 1_555
Mg11 N3 1_555 1_555
Mg13 O19 1_555 1_555
Mg13_2 O29_4 1_555 1_555
O9 Mg2_2 1_555 1_555
O21 Mg2_2 1_555 1_555
N3 C14 1_555 1_555
C14 H10 1_555 1_555
C15 N3 1_555 1_555
H11 C15 1_555 1_555
C20 C15 1_555 1_555
C32 C37 1_555 1_555
C37 H18 1_555 1_555
C42 C37 1_555 1_555
H23 C42 1_555 1_555
C47 C20 1_555 1_555
O29_4 Mg2_2 1_555 1_555
C42 C47 1_555 1_555
Mg10 O6_2 1_555 1_555
Mg9_3 N2_2 1_555 1_555
Mg10_2 O17_2 1_555 1_555
O6_2 C25_2 1_555 1_555
O10_2 Mg10 1_555 1_555
O17_2 C25_2 1_555 1_555
O24_2 Mg10 1_555 1_555
N6_2 Mg10 1_555 1_555
C13_2 N2_2 1_555 1_555
H9_2 C13_2 1_555 1_555
C18_2 C13_2 1_555 1_555
H12_3 C21_3 1_555 1_555
C25_2 C30_2 1_555 1_555
C30_2 C35_2 1_555 1_555
C35_2 H16_2 1_555 1_555
C40_2 C35_2 1_555 1_555
H21_2 C40_2 1_555 1_555
C45_2 C18_2 1_555 1_555
C50_2 C45_2 1_555 1_555
H26_2 C50_2 1_555 1_555
C55_2 C30_2 1_555 1_555
H31_2 C55_2 1_555 1_555
Mg10_2 O30 1_555 1_555
C18_2 C21_3 1_555 1_555
C40_2 C45_2 1_555 1_555
C50_2 C55_2 1_555 1_555
O9_2 Mg13 1_555 1_555
O13 C4_2 1_555 1_555
O25 C4_2 1_555 1_555
C4_2 C5_2 1_555 1_555
C10_2 C5_2 1_555 1_555
H6_2 C10_2 1_555 1_555
C12_2 H8_2 1_555 1_555
C17_2 C12_2 1_555 1_555
C21_4 C17_2 1_555 1_555
H12_4 C21_4 1_555 1_555
C24_2 O14 1_555 1_555
C29_2 C24_2 1_555 1_555
C34_2 C29_2 1_555 1_555
H15_2 C34_2 1_555 1_555
C39_2 C34_2 1_555 1_555
H20_2 C39_2 1_555 1_555
C44_2 C17_2 1_555 1_555
C49_2 C44_2 1_555 1_555
H25_2 C49_2 1_555 1_555
C54_2 C29_2 1_555 1_555
H30_2 C54_2 1_555 1_555
O20 C24_2 1_555 1_555
C39_2 C44_2 1_555 1_555
C49_2 C54_2 1_555 1_555
N1_2 C1_2 1_555 1_555
C1_2 H1_2 1_555 1_555
C2_2 C1_2 1_555 1_555
C3_2 C2_2 1_555 1_555
H2_2 C3_2 1_555 1_555
C7_2 C6_2 1_555 1_555
H4_2 C7_2 1_555 1_555
C8_2 C2_2 1_555 1_555
C9_2 C8_2 1_555 1_555
H5_2 C9_2 1_555 1_555
Mg13_2 O4_2 1_555 1_555
Mg7_2 N1_2 1_555 1_555
O4_2 C23_2 1_555 1_555
O21 C23_2 1_555 1_555
O22_2 Mg13_2 1_555 1_555
N5_2 Mg13_2 1_555 1_555
C11_2 N1_2 1_555 1_555
H7_2 C11_2 1_555 1_555
C16_2 C3_2 1_555 1_555
C23_2 C28_2 1_555 1_555
C28_2 C33_2 1_555 1_555
C33_2 H14_2 1_555 1_555
C38_2 C33_2 1_555 1_555
H19_2 C38_2 1_555 1_555
C43_2 C16_2 1_555 1_555
C48_2 C43_2 1_555 1_555
H24_2 C48_2 1_555 1_555
C53_2 C28_2 1_555 1_555
H29_2 C53_2 1_555 1_555
C7_2 C8_2 1_555 1_555
C11_2 C16_2 1_555 1_555
C38_2 C43_2 1_555 1_555
C48_2 C53_2 1_555 1_555
Mg10_2 O6_3 1_555 1_555
Mg9_5 N2_3 1_555 1_555
O6_3 C25_3 1_555 1_555
O10_3 Mg10_2 1_555 1_555
O23 C25_3 1_555 1_555
O24_3 Mg10_2 1_555 1_555
N2_3 C12_3 1_555 1_555
N6_3 Mg10_2 1_555 1_555
C12_3 H8_3 1_555 1_555
C13_3 N2_3 1_555 1_555
H9_3 C13_3 1_555 1_555
C17_3 C12_3 1_555 1_555
C18_3 C13_3 1_555 1_555
C21_5 C17_3 1_555 1_555
H12_5 C21_5 1_555 1_555
C24_3 O11 1_555 1_555
C25_3 C30_3 1_555 1_555
C29_3 C24_3 1_555 1_555
C30_3 C35_3 1_555 1_555
C34_3 C29_3 1_555 1_555
C35_3 H16_3 1_555 1_555
H15_3 C34_3 1_555 1_555
C39_3 C34_3 1_555 1_555
C40_3 C35_3 1_555 1_555
H20_3 C39_3 1_555 1_555
H21_3 C40_3 1_555 1_555
C44_3 C17_3 1_555 1_555
C45_3 C18_3 1_555 1_555
C49_3 C44_3 1_555 1_555
C50_3 C45_3 1_555 1_555
H25_3 C49_3 1_555 1_555
H26_3 C50_3 1_555 1_555
C54_3 C29_3 1_555 1_555
C55_3 C30_3 1_555 1_555
H30_3 C54_3 1_555 1_555
H31_3 C55_3 1_555 1_555
O28 C24_3 1_555 1_555
C18_3 C21_5 1_555 1_555
C39_3 C44_3 1_555 1_555
C40_3 C45_3 1_555 1_555
C49_3 C54_3 1_555 1_555
C50_3 C55_3 1_555 1_555
N1_3 C1_3 1_555 1_555
C1_3 H1_3 1_555 1_555
Mg7_3 N1_3 1_555 1_555
C11_3 N1_3 1_555 1_555
H7_3 C11_3 1_555 1_555
C28_3 C33_3 1_555 1_555
C33_3 H14_3 1_555 1_555
C38_3 C33_3 1_555 1_555
H19_3 C38_3 1_555 1_555
C43_3 C16_3 1_555 1_555
C11_3 C16_3 1_555 1_555
C38_3 C43_3 1_555 1_555
O10_2 C4_3 1_555 1_555
O24 C4_3 1_555 1_555
C3_3 C2_3 1_555 1_555
H2_3 C3_3 1_555 1_555
C4_3 C5_3 1_555 1_555
C5_3 C6_3 1_555 1_555
C6_3 H3_3 1_555 1_555
C7_3 C6_3 1_555 1_555
H4_3 C7_3 1_555 1_555
C8_3 C2_3 1_555 1_555
C9_3 C8_3 1_555 1_555
H5_3 C9_3 1_555 1_555
C10_3 C5_3 1_555 1_555
H6_3 C10_3 1_555 1_555
O9_2 C23_3 1_555 1_555
O12 C27_2 1_555 1_555
N5_3 Mg13 1_555 1_555
C22_2 C19_2 1_555 1_555
H13_2 C22_2 1_555 1_555
C26_2 O10_3 1_555 1_555
C31_2 C26_2 1_555 1_555
C36_2 C31_2 1_555 1_555
H17_2 C36_2 1_555 1_555
C41_2 C36_2 1_555 1_555
H22_2 C41_2 1_555 1_555
C46_2 C19_2 1_555 1_555
C51_2 C46_2 1_555 1_555
H24_3 C48_3 1_555 1_555
H27_2 C51_2 1_555 1_555
H28_2 C52_2 1_555 1_555
C56_2 C31_2 1_555 1_555
H29_3 C53_3 1_555 1_555
H32_2 C56_2 1_555 1_555
H33_2 C57_2 1_555 1_555
C7_3 C8_3 1_555 1_555
C9_3 C10_3 1_555 1_555
O24_2 C26_2 1_555 1_555
C41_2 C46_2 1_555 1_555
C48_3 C53_3 1_555 1_555
C51_2 C56_2 1_555 1_555
C52_2 C57_2 1_555 1_555
Mg9_4 N2_4 1_555 1_555
Mg11_2 N3_2 1_555 1_555
N3_2 C14_2 1_555 1_555
C12_2 N2_4 1_555 1_555
C14_2 H10_2 1_555 1_555
C15_2 N3_2 1_555 1_555
H11_2 C15_2 1_555 1_555
C20_2 C15_2 1_555 1_555
C32_2 C37_2 1_555 1_555
C37_2 H18_2 1_555 1_555
C42_2 C37_2 1_555 1_555
H23_2 C42_2 1_555 1_555
C47_2 C20_2 1_555 1_555
C42_2 C47_2 1_555 1_555
Mg9 N2_5 1_555 1_555
C12 N2_5 1_555 1_555
O10 C4_4 1_555 1_555
O24_3 C4_4 1_555 1_555
N1_4 C1_4 1_555 1_555
C1_4 H1_4 1_555 1_555
C2_4 C1_4 1_555 1_555
C3_4 C2_4 1_555 1_555
H2_4 C3_4 1_555 1_555
C4_4 C5_4 1_555 1_555
C5_4 C6_4 1_555 1_555
C6_4 H3_4 1_555 1_555
C7_4 C6_4 1_555 1_555
H4_4 C7_4 1_555 1_555
C8_4 C2_4 1_555 1_555
C9_4 C8_4 1_555 1_555
H5_4 C9_4 1_555 1_555
C10_4 C5_4 1_555 1_555
H6_4 C10_4 1_555 1_555
Mg7_4 N1_4 1_555 1_555
O9 C23_4 1_555 1_555
O22_2 C23_4 1_555 1_555
N5_4 Mg2_2 1_555 1_555
C11_4 N1_4 1_555 1_555
H7_4 C11_4 1_555 1_555
C16_4 C3_4 1_555 1_555
C23_4 C28_4 1_555 1_555
C28_4 C33_4 1_555 1_555
C33_4 H14_4 1_555 1_555
C38_4 C33_4 1_555 1_555
H19_4 C38_4 1_555 1_555
C43_4 C16_4 1_555 1_555
C48_4 C43_4 1_555 1_555
H24_4 C48_4 1_555 1_555
C53_4 C28_4 1_555 1_555
H29_4 C53_4 1_555 1_555
C7_4 C8_4 1_555 1_555
C9_4 C10_4 1_555 1_555
C11_4 C16_4 1_555 1_555
C38_4 C43_4 1_555 1_555
C48_4 C53_4 1_555 1_555
Mg9_4 O19_2 1_555 1_555
Mg9_3 O29_5 1_555 1_555
O9_3 Mg9 1_555 1_555
O21_2 Mg9 1_555 1_555
N4 C14_3 1_555 1_555
C14_3 H10_3 1_555 1_555
C15_3 N4 1_555 1_555
H11_3 C15_3 1_555 1_555
C20_3 C15_3 1_555 1_555
C32_3 C37_3 1_555 1_555
C37_3 H18_3 1_555 1_555
C42_3 C37_3 1_555 1_555
H23_3 C42_3 1_555 1_555
C47_3 C20_3 1_555 1_555
O29_5 Mg9 1_555 1_555
Mg9_4 O31 1_555 1_555
C42_3 C47_3 1_555 1_555
Mg7_3 O6_4 1_555 1_555
Mg11_2 O17_3 1_555 1_555
O6_4 C25_4 1_555 1_555
O10_4 Mg7_3 1_555 1_555
O17_3 C25_4 1_555 1_555
O23_2 Mg7_3 1_555 1_555
O24_4 Mg7_3 1_555 1_555
C13_4 N5 1_555 1_555
H9_4 C13_4 1_555 1_555
C18_4 C13_4 1_555 1_555
H12_6 C21_6 1_555 1_555
C25_4 C30_4 1_555 1_555
C30_4 C35_4 1_555 1_555
C35_4 H16_4 1_555 1_555
C40_4 C35_4 1_555 1_555
H21_4 C40_4 1_555 1_555
C45_4 C18_4 1_555 1_555
C50_4 C45_4 1_555 1_555
H26_4 C50_4 1_555 1_555
C55_4 C30_4 1_555 1_555
H31_4 C55_4 1_555 1_555
O30_2 Mg7_3 1_555 1_555
Mg11_2 O30_2 1_555 1_555
C18_4 C21_6 1_555 1_555
C40_4 C45_4 1_555 1_555
C50_4 C55_4 1_555 1_555
C3_5 C2_5 1_555 1_555
H2_5 C3_5 1_555 1_555
C7_5 C6_5 1_555 1_555
H4_5 C7_5 1_555 1_555
C8_5 C2_5 1_555 1_555
C9_5 C8_5 1_555 1_555
H5_5 C9_5 1_555 1_555
Mg9_2 O4_3 1_555 1_555
Mg9_5 O8_2 1_555 1_555
O4_3 C23_5 1_555 1_555
O8_2 C27_3 1_555 1_555
O12_2 Mg9_5 1_555 1_555
O22_3 Mg9_2 1_555 1_555
O26 Mg9_5 1_555 1_555
O27_2 Mg9_5 1_555 1_555
C22_3 C19_3 1_555 1_555
H13_3 C22_3 1_555 1_555
C41_3 C36_3 1_555 1_555
H22_3 C41_3 1_555 1_555
C46_3 C19_3 1_555 1_555
C51_3 C46_3 1_555 1_555
H24_5 C48_5 1_555 1_555
H27_3 C51_3 1_555 1_555
H28_3 C52_3 1_555 1_555
H29_5 C53_5 1_555 1_555
H33_3 C57_3 1_555 1_555
O29_6 Mg9_2 1_555 1_555
O31_2 Mg9_5 1_555 1_555
C7_5 C8_5 1_555 1_555
C41_3 C46_3 1_555 1_555
C48_5 C53_5 1_555 1_555
C52_3 C57_3 1_555 1_555
Mg11 O1_2 1_555 1_555
O1_2 C4_5 1_555 1_555
O2_2 C4_5 1_555 1_555
C4_5 C5_5 1_555 1_555
C10_5 C5_5 1_555 1_555
H6_5 C10_5 1_555 1_555
O3_2 Mg11 1_555 1_555
Mg7_2 O3_2 1_555 1_555
Mg7 O2_2 1_555 1_555
O5_2 Mg11 1_555 1_555
O7_2 Mg7_2 1_555 1_555
O11_2 Mg7_2 1_555 1_555
O13_2 Mg7 1_555 1_555
O14_2 Mg7 1_555 1_555
O16_2 Mg7_2 1_555 1_555
O18_2 Mg11 1_555 1_555
O20_2 Mg11 1_555 1_555
O25_2 Mg7_2 1_555 1_555
O28_2 Mg7 1_555 1_555
C12_4 H8_4 1_555 1_555
C17_4 C12_4 1_555 1_555
C21_7 C17_4 1_555 1_555
H12_7 C21_7 1_555 1_555
C24_4 O5_2 1_555 1_555
C26_3 O7_2 1_555 1_555
C29_4 C24_4 1_555 1_555
C31_3 C26_3 1_555 1_555
C34_4 C29_4 1_555 1_555
H15_4 C34_4 1_555 1_555
C39_4 C34_4 1_555 1_555
H20_4 C39_4 1_555 1_555
C44_4 C17_4 1_555 1_555
C49_4 C44_4 1_555 1_555
H25_4 C49_4 1_555 1_555
C54_4 C29_4 1_555 1_555
C56_3 C31_3 1_555 1_555
H30_4 C54_4 1_555 1_555
H32_3 C56_3 1_555 1_555
O3_2 Mg7 1_555 1_555
O16_2 C24_4 1_555 1_555
O18_2 C26_3 1_555 1_555
C39_4 C44_4 1_555 1_555
C49_4 C54_4 1_555 1_555
N9 C1_5 1_555 1_555
C1_5 H1_5 1_555 1_555
C11_5 N9 1_555 1_555
H7_5 C11_5 1_555 1_555
C28_5 C33_5 1_555 1_555
C33_5 H14_5 1_555 1_555
C38_5 C33_5 1_555 1_555
H19_5 C38_5 1_555 1_555
C43_5 C16_5 1_555 1_555
C11_5 C16_5 1_555 1_555
C38_5 C43_5 1_555 1_555
N7 C1_6 1_555 1_555
C1_6 H1_6 1_555 1_555
C2_6 C1_6 1_555 1_555
C3_6 C2_6 1_555 1_555
H2_6 C3_6 1_555 1_555
C7_6 C6_6 1_555 1_555
H4_6 C7_6 1_555 1_555
C8_6 C2_6 1_555 1_555
C9_6 C8_6 1_555 1_555
H5_6 C9_6 1_555 1_555
Mg9_3 O4_4 1_555 1_555
O4_4 C23_6 1_555 1_555
O21_2 C23_6 1_555 1_555
O22_4 Mg9_3 1_555 1_555
C11_6 N7 1_555 1_555
H7_6 C11_6 1_555 1_555
C16_6 C3_6 1_555 1_555
C23_6 C28_6 1_555 1_555
C28_6 C33_6 1_555 1_555
C33_6 H14_6 1_555 1_555
C38_6 C33_6 1_555 1_555
H19_6 C38_6 1_555 1_555
C43_6 C16_6 1_555 1_555
C48_6 C43_6 1_555 1_555
H24_6 C48_6 1_555 1_555
C53_6 C28_6 1_555 1_555
H29_6 C53_6 1_555 1_555
C7_6 C8_6 1_555 1_555
C11_6 C16_6 1_555 1_555
C38_6 C43_6 1_555 1_555
C48_6 C53_6 1_555 1_555
O13_2 C4_6 1_555 1_555
O25_2 C4_6 1_555 1_555
C4_6 C5_6 1_555 1_555
C10_6 C5_6 1_555 1_555
H6_6 C10_6 1_555 1_555
C12_5 H8_5 1_555 1_555
C17_5 C12_5 1_555 1_555
C21_8 C17_5 1_555 1_555
H12_8 C21_8 1_555 1_555
C24_5 O14_2 1_555 1_555
C29_5 C24_5 1_555 1_555
C34_5 C29_5 1_555 1_555
H15_5 C34_5 1_555 1_555
C39_5 C34_5 1_555 1_555
H20_5 C39_5 1_555 1_555
C44_5 C17_5 1_555 1_555
C49_5 C44_5 1_555 1_555
H25_5 C49_5 1_555 1_555
C54_5 C29_5 1_555 1_555
H30_5 C54_5 1_555 1_555
O20_2 C24_5 1_555 1_555
C39_5 C44_5 1_555 1_555
C49_5 C54_5 1_555 1_555
O9_4 Mg9_4 1_555 1_555
Mg11_2 O6_5 1_555 1_555
Mg7_4 O17_4 1_555 1_555
O6_5 C25_5 1_555 1_555
O10_5 Mg11_2 1_555 1_555
O17_4 C25_5 1_555 1_555
O24_5 Mg11_2 1_555 1_555
C13_5 N5_2 1_555 1_555
H9_5 C13_5 1_555 1_555
C18_5 C13_5 1_555 1_555
H12_9 C21_9 1_555 1_555
C25_5 C30_5 1_555 1_555
C30_5 C35_5 1_555 1_555
C35_5 H16_5 1_555 1_555
C40_5 C35_5 1_555 1_555
H21_5 C40_5 1_555 1_555
C45_5 C18_5 1_555 1_555
C50_5 C45_5 1_555 1_555
H26_5 C50_5 1_555 1_555
C55_5 C30_5 1_555 1_555
H31_5 C55_5 1_555 1_555
Mg7_4 O30_2 1_555 1_555
C18_5 C21_9 1_555 1_555
C40_5 C45_5 1_555 1_555
C50_5 C55_5 1_555 1_555
Mg7_4 O6_6 1_555 1_555
O6_6 C25_6 1_555 1_555
O10_6 Mg7_4 1_555 1_555
O23_2 C25_6 1_555 1_555
O24_6 Mg7_4 1_555 1_555
N8 C12_6 1_555 1_555
C12_6 H8_6 1_555 1_555
C13_6 N8 1_555 1_555
H9_6 C13_6 1_555 1_555
C17_6 C12_6 1_555 1_555
C18_6 C13_6 1_555 1_555
C21_10 C17_6 1_555 1_555
H12_10 C21_10 1_555 1_555
C24_6 O11_2 1_555 1_555
C25_6 C30_6 1_555 1_555
C29_6 C24_6 1_555 1_555
C30_6 C35_6 1_555 1_555
C34_6 C29_6 1_555 1_555
C35_6 H16_6 1_555 1_555
H15_6 C34_6 1_555 1_555
C39_6 C34_6 1_555 1_555
C40_6 C35_6 1_555 1_555
H20_6 C39_6 1_555 1_555
H21_6 C40_6 1_555 1_555
C44_6 C17_6 1_555 1_555
C45_6 C18_6 1_555 1_555
C49_6 C44_6 1_555 1_555
C50_6 C45_6 1_555 1_555
H25_6 C49_6 1_555 1_555
H26_6 C50_6 1_555 1_555
C54_6 C29_6 1_555 1_555
C55_6 C30_6 1_555 1_555
H30_6 C54_6 1_555 1_555
H31_6 C55_6 1_555 1_555
O28_2 C24_6 1_555 1_555
C18_6 C21_10 1_555 1_555
C39_6 C44_6 1_555 1_555
C40_6 C45_6 1_555 1_555
C49_6 C54_6 1_555 1_555
C50_6 C55_6 1_555 1_555
N6_2 C14_4 1_555 1_555
C12_5 N5_3 1_555 1_555
C14_4 H10_4 1_555 1_555
C15_4 N6_2 1_555 1_555
H11_4 C15_4 1_555 1_555
C20_4 C15_4 1_555 1_555
C32_4 C37_4 1_555 1_555
C37_4 H18_4 1_555 1_555
C42_4 C37_4 1_555 1_555
H23_4 C42_4 1_555 1_555
C47_4 C20_4 1_555 1_555
C42_4 C47_4 1_555 1_555
O10_5 C4_7 1_555 1_555
O24_4 C4_7 1_555 1_555
C3_7 C2_7 1_555 1_555
H2_7 C3_7 1_555 1_555
C4_7 C5_7 1_555 1_555
C5_7 C6_7 1_555 1_555
C6_7 H3_7 1_555 1_555
C7_7 C6_7 1_555 1_555
H4_7 C7_7 1_555 1_555
C8_7 C2_7 1_555 1_555
C9_7 C8_7 1_555 1_555
H5_7 C9_7 1_555 1_555
C10_7 C5_7 1_555 1_555
H6_7 C10_7 1_555 1_555
O9_4 C23_7 1_555 1_555
O12_2 C27_4 1_555 1_555
C22_4 C19_4 1_555 1_555
H13_4 C22_4 1_555 1_555
C26_4 O10_6 1_555 1_555
C31_4 C26_4 1_555 1_555
C36_4 C31_4 1_555 1_555
H17_4 C36_4 1_555 1_555
C41_4 C36_4 1_555 1_555
H22_4 C41_4 1_555 1_555
C46_4 C19_4 1_555 1_555
C51_4 C46_4 1_555 1_555
H24_7 C48_7 1_555 1_555
H27_4 C51_4 1_555 1_555
H28_4 C52_4 1_555 1_555
C56_4 C31_4 1_555 1_555
H29_7 C53_7 1_555 1_555
H32_4 C56_4 1_555 1_555
H33_4 C57_4 1_555 1_555
C7_7 C8_7 1_555 1_555
C9_7 C10_7 1_555 1_555
O24_5 C26_4 1_555 1_555
C41_4 C46_4 1_555 1_555
C48_7 C53_7 1_555 1_555
C51_4 C56_4 1_555 1_555
C52_4 C57_4 1_555 1_555
N6 C1_7 1_555 1_555
C1_7 H1_7 1_555 1_555
C11_7 N6 1_555 1_555
H7_7 C11_7 1_555 1_555
C28_7 C33_7 1_555 1_555
C33_7 H14_7 1_555 1_555
C38_7 C33_7 1_555 1_555
H19_7 C38_7 1_555 1_555
C43_7 C16_7 1_555 1_555
C11_7 C16_7 1_555 1_555
C38_7 C43_7 1_555 1_555
O10_4 C4_8 1_555 1_555
O24_6 C4_8 1_555 1_555
N6_3 C1_8 1_555 1_555
C1_8 H1_8 1_555 1_555
C2_8 C1_8 1_555 1_555
C3_8 C2_8 1_555 1_555
H2_8 C3_8 1_555 1_555
C4_8 C5_8 1_555 1_555
C5_8 C6_8 1_555 1_555
C6_8 H3_8 1_555 1_555
C7_8 C6_8 1_555 1_555
H4_8 C7_8 1_555 1_555
C8_8 C2_8 1_555 1_555
C9_8 C8_8 1_555 1_555
H5_8 C9_8 1_555 1_555
C10_8 C5_8 1_555 1_555
H6_8 C10_8 1_555 1_555
O9_3 C23_8 1_555 1_555
O22_4 C23_8 1_555 1_555
C11_8 N6_3 1_555 1_555
H7_8 C11_8 1_555 1_555
C16_8 C3_8 1_555 1_555
C23_8 C28_8 1_555 1_555
C28_8 C33_8 1_555 1_555
C33_8 H14_8 1_555 1_555
C38_8 C33_8 1_555 1_555
H19_8 C38_8 1_555 1_555
C43_8 C16_8 1_555 1_555
C48_8 C43_8 1_555 1_555
H24_8 C48_8 1_555 1_555
C53_8 C28_8 1_555 1_555
H29_8 C53_8 1_555 1_555
C7_8 C8_8 1_555 1_555
C9_8 C10_8 1_555 1_555
C11_8 C16_8 1_555 1_555
C38_8 C43_8 1_555 1_555
C48_8 C53_8 1_555 1_555
C12_4 N5_4 1_555 1_555

#END
