
###############################################################################
#
# This file contains modified crystal structure data generated from the
# MOF subset of the Cambridge Structural Database (CSD) v543 
# hosted by the Cambridge Crystallographic Data Centre (CCDC).
#
# This work is licensed under the Creative Commons
# Attribution-NonCommercial-ShareAlike 4.0 International License.
# To view a copy of this license, visit
# http://creativecommons.org/licenses/by-nc-sa/4.0/
# or send a letter to
# Creative Commons, PO Box 1866, Mountain View, CA 94042, USA.
#
# CIF created using the CSD Python API on 29 September 2022
# The structure has been converted into the P1 space group
# The structure has a 3D framework
# The original CSD entry WAQFIG is in the monoclinic crystal system
# The original CSD entry WAQFIG is in a Sohncke space group
# The framework has been calculated to contain at least 10.0% void space
# The void calculation uses a probe of radius 1.32A, grid spacing 0.4
# H atom positions have been added when not included in the experimental data
#
###############################################################################

data_WAQFIG
_chemical_formula_moiety         '(C52 H42 N6 O22 S2 Zn2)n'
_symmetry_cell_setting           triclinic
_symmetry_space_group_name_H-M   'P 1'
_symmetry_Int_Tables_number      1
_space_group_name_Hall           'P 1'
loop_
_symmetry_equiv_pos_site_id
_symmetry_equiv_pos_as_xyz
1 x,y,z
_cell_length_a                   10.246(2)
_cell_length_b                   16.147(3)
_cell_length_c                   19.161(4)
_cell_angle_alpha                90
_cell_angle_beta                 99.98(3)
_cell_angle_gamma                90
_cell_volume                     3122.07
loop_
_atom_site_label
_atom_site_type_symbol
_atom_site_fract_x
_atom_site_fract_y
_atom_site_fract_z
H7 H 0.0231 0.4205 0.9872
C21 C 0.0593(5) 0.5494(3) 0.9102(3)
O7 O 0.1285(4) 0.5537(2) 0.97187(18)
O8 O 0.0519(4) 0.6059(2) 0.86417(17)
Zn4 Zn 0.27871(5) 0.63247(3) 0.98929(3)
Zn7 Zn 0.03513(4) 0.72661(3) 0.87455(2)
O13 O 0.1832(3) 0.7564(2) 0.82592(16)
O14 O 0.0586(3) 0.7945(2) 0.95914(18)
C24 C 0.3556(9) 0.4158(6) 0.0119(6)
H10 H 0.2795 0.4440 0.0234
H11 H 0.4116 0.3982 0.0547
H17 H 0.5416 0.3393 0.0114
O12 O 0.3995(5) 0.6254(4) 0.0824(3)
O15 O 0.1780(4) 0.7148(2) 0.04135(18)
H20 H 0.404565 0.680299 0.106071
H21 H 0.36492 0.583748 0.112693
S1 S 0.20283(15) 0.87626(13) 0.46788(7)
C1 C 0.7822(4) 0.7328(4) 0.8449(2)
C2 C 0.6428(4) 0.7495(4) 0.8108(2)
C3 C 0.5416(4) 0.7378(3) 0.8495(2)
H1 H 0.5604 0.7198 0.8963
C4 C 0.4100(4) 0.7535(3) 0.8167(2)
C5 C 0.3003(4) 0.7394(3) 0.8574(2)
C6 C 0.3805(4) 0.7782(3) 0.7468(2)
H2 H 0.2929 0.7876 0.7257
C7 C 0.4831(4) 0.7893(4) 0.7076(2)
C8 C 0.6145(5) 0.7754(4) 0.7400(3)
H3 H 0.6830 0.7833 0.7145
C9 C 0.3476(5) 0.8354(5) 0.5975(3)
C10 C 0.3483(5) 0.8476(5) 0.5191(3)
C11 C 0.4424(7) 0.8396(7) 0.4800(3)
H4 H 0.5288 0.8239 0.4986
C12 C 0.3984(6) 0.8572(6) 0.4069(3)
H5 H 0.4525 0.8551 0.3727
C13 C 0.2697(6) 0.8773(4) 0.3934(3)
C14 C 0.1791(6) 0.8925(4) 0.3256(3)
C15 C 0.1579(5) 0.8916(3) 0.1967(2)
C16 C 0.1644(5) 0.8301(3) 0.1461(2)
H6 H 0.2126 0.7821 0.1592
C17 C 0.1006(5) 0.8396(3) 0.0772(2)
C18 C 0.0228(5) 0.9132(3) 0.0587(3)
C19 C 0.0172(5) 0.9714(3) 0.1087(2)
C20 C 0.0871(5) 0.9644(3) 0.1793(2)
C22 C 0.1132(5) 0.7781(3) 0.0221(3)
C23 C 0.4342(9) 0.4759(5) 0.9706(4)
H9 H 0.3273 0.3684 0.9830
C25 C 0.6219(9) 0.5008(5) 0.9130(4)
H12 H 0.6302 0.4775 0.8679
H13 H 0.7081 0.5057 0.9418
H14 H 0.5820 0.5546 0.9062
C26 C 0.5768(10) 0.3571(5) 0.9706(6)
H15 H 0.6719 0.3561 0.9812
H16 H 0.5465 0.3206 0.9316
N1 N 0.4619(4) 0.8128(3) 0.6370(2)
H18 H 0.5301 0.8127 0.6164
N2 N 0.2332(4) 0.8808(3) 0.2660(2)
H19 H 0.3151 0.8665 0.2704
N3 N 0.5314(8) 0.4421(4) 0.9516(4)
O1 O 0.3301(3) 0.7127(2) 0.92037(16)
O3 O 0.8733(3) 0.7601(2) 0.81019(17)
O4 O 0.8081(3) 0.6977(3) 0.90302(18)
O9 O 0.2444(4) 0.8440(5) 0.6173(2)
O10 O 0.0660(4) 0.9141(4) 0.3246(2)
O11 O 0.3983(5) 0.5494(3) 0.9482(3)
O5 O 0.9414(3) 0.2945(2) 0.04086(18)
Zn3 Zn 0.72129(5) 0.13247(3) 0.01071(3)
Zn6 Zn 0.96487(4) 0.22661(3) 0.12545(2)
S1_2 S 0.79717(15) 0.37626(13) 0.53212(7)
C1_2 C 0.2178(4) 0.2328(4) 0.1551(2)
C2_2 C 0.3572(4) 0.2495(4) 0.1892(2)
C3_2 C 0.4584(4) 0.2378(3) 0.1505(2)
H1_2 H 0.4396 0.2198 0.1037
C4_2 C 0.5900(4) 0.2535(3) 0.1833(2)
C5_2 C 0.6997(4) 0.2394(3) 0.1426(2)
C6_2 C 0.6195(4) 0.2782(3) 0.2532(2)
H2_2 H 0.7071 0.2876 0.2743
C7_2 C 0.5169(4) 0.2893(4) 0.2924(2)
C8_2 C 0.3855(5) 0.2754(4) 0.2600(3)
H3_2 H 0.3170 0.2833 0.2855
C9_2 C 0.6524(5) 0.3354(5) 0.4025(3)
C10_2 C 0.6517(5) 0.3476(5) 0.4809(3)
C11_2 C 0.5576(7) 0.3396(7) 0.5200(3)
H4_2 H 0.4712 0.3239 0.5014
C12_2 C 0.6016(6) 0.3572(6) 0.5931(3)
H5_2 H 0.5475 0.3551 0.6273
C13_2 C 0.7303(6) 0.3773(4) 0.6066(3)
C14_2 C 0.8209(6) 0.3925(4) 0.6744(3)
C15_2 C 0.8421(5) 0.3916(3) 0.8033(2)
C16_2 C 0.8356(5) 0.3301(3) 0.8539(2)
H6_2 H 0.7874 0.2821 0.8408
C17_2 C 0.8994(5) 0.3396(3) 0.9228(2)
C18_2 C 0.9772(5) 0.4132(3) 0.9413(3)
C19_2 C 0.9828(5) 0.4714(3) 0.8913(2)
C20_2 C 0.9129(5) 0.4644(3) 0.8207(2)
H8 H 0.9144 0.5064 0.7877
C22_2 C 0.8868(5) 0.2781(3) 0.9779(3)
C25_2 C 0.3781(9) 0.0008(5) 0.0870(4)
H13_2 H 0.2919 0.0057 0.0582
H14_2 H 0.4180 0.0546 0.0938
N1_2 N 0.5381(4) 0.3128(3) 0.3630(2)
H18_2 H 0.4699 0.3127 0.3836
N2_2 N 0.7668(4) 0.3808(3) 0.7340(2)
H19_2 H 0.6849 0.3665 0.7296
O1_2 O 0.6699(3) 0.2127(2) 0.07963(16)
O2 O 0.8168(3) 0.2564(2) 0.17408(16)
O3_2 O 0.1267(3) 0.2601(2) 0.18981(17)
O4_2 O 0.1919(3) 0.1977(3) 0.09698(18)
O6 O 0.8220(4) 0.2148(2) 0.95865(18)
O9_2 O 0.7556(4) 0.3440(5) 0.3827(2)
O10_2 O 0.9340(4) 0.4141(4) 0.6754(2)
O11_2 O 0.6017(5) 0.0494(3) 0.0518(3)
O16 O 0.8715(4) 0.0537(2) 0.02813(18)
O12_2 O 0.6005(5) 0.1254(4) 0.9176(3)
H20_2 H 0.595435 0.180299 0.893929
H21_2 H 0.63508 0.0837483 0.887307
O17 O 0.9481(4) 0.1059(2) 0.13583(17)
C21_2 C 0.9407(5) 0.0494(3) 0.0898(3)
C23_2 C 0.5658(9) 0.9759(5) 0.0294(4)
H9_2 H 0.6727 0.8684 0.0170
H12_2 H 0.3698 0.9775 0.1321
C26_2 C 0.4232(10) 0.8571(5) 0.0294(6)
H15_2 H 0.3281 0.8561 0.0188
H16_2 H 0.4535 0.8206 0.0684
N3_2 N 0.4686(8) 0.9421(4) 0.0484(4)
C24_2 C 0.6444(9) 0.9158(6) 0.9881(6)
H10_2 H 0.7205 0.9440 0.9766
H11_2 H 0.5884 0.8982 0.9453
H17_2 H 0.4584 0.8393 0.9886
H8_2 H 0.0856 0.0064 0.2123
H7_2 H 0.9769 0.9205 0.0128
loop_
_geom_bond_atom_site_label_1
_geom_bond_atom_site_label_2
_geom_bond_site_symmetry_1
_geom_bond_site_symmetry_2
O7 C21 1_555 1_555
O8 C21 1_555 1_555
Zn4 O7 1_555 1_555
Zn7 O8 1_555 1_555
O13 Zn7 1_555 1_555
O14 Zn7 1_555 1_555
H10 C24 1_555 1_555
H11 C24 1_555 1_555
O12 H20 1_555 1_555
O12 H21 1_555 1_555
Zn4 O1 1_555 1_555
S1 C10 1_555 1_555
C1 C2 1_555 1_555
C2 C3 1_555 1_555
C3 H1 1_555 1_555
C4 C3 1_555 1_555
C5 C4 1_555 1_555
C6 C4 1_555 1_555
H2 C6 1_555 1_555
C7 C6 1_555 1_555
C8 C2 1_555 1_555
H3 C8 1_555 1_555
C9 C10 1_555 1_555
C10 C11 1_555 1_555
C11 H4 1_555 1_555
C12 C11 1_555 1_555
H5 C12 1_555 1_555
C13 S1 1_555 1_555
C14 C13 1_555 1_555
C15 C16 1_555 1_555
C16 H6 1_555 1_555
C17 C16 1_555 1_555
C18 C17 1_555 1_555
C19 C18 1_555 1_555
C20 C15 1_555 1_555
C22 C17 1_555 1_555
C25 H12 1_555 1_555
H13 C25 1_555 1_555
H14 C25 1_555 1_555
C26 H15 1_555 1_555
H16 C26 1_555 1_555
N1 C7 1_555 1_555
H18 N1 1_555 1_555
N2 C14 1_555 1_555
H19 N2 1_555 1_555
N3 C23 1_555 1_555
O1 C5 1_555 1_555
O13 C5 1_555 1_555
O3 C1 1_555 1_555
O15 C22 1_555 1_555
O9 C9 1_555 1_555
O10 C14 1_555 1_555
O11 Zn4 1_555 1_555
C1 O4 1_555 1_555
C7 C8 1_555 1_555
C9 N1 1_555 1_555
C12 C13 1_555 1_555
C15 N2 1_555 1_555
C19 C20 1_555 1_555
C23 O11 1_555 1_555
C25 N3 1_555 1_555
C26 N3 1_555 1_555
Zn6 O5 1_555 1_555
Zn3 O1_2 1_555 1_555
S1_2 C10_2 1_555 1_555
C1_2 C2_2 1_555 1_555
C2_2 C3_2 1_555 1_555
C3_2 H1_2 1_555 1_555
C4_2 C3_2 1_555 1_555
C5_2 C4_2 1_555 1_555
C6_2 C4_2 1_555 1_555
H2_2 C6_2 1_555 1_555
C7_2 C6_2 1_555 1_555
C8_2 C2_2 1_555 1_555
H3_2 C8_2 1_555 1_555
C9_2 C10_2 1_555 1_555
C10_2 C11_2 1_555 1_555
C11_2 H4_2 1_555 1_555
C12_2 C11_2 1_555 1_555
H5_2 C12_2 1_555 1_555
C13_2 S1_2 1_555 1_555
C14_2 C13_2 1_555 1_555
C15_2 C16_2 1_555 1_555
C16_2 H6_2 1_555 1_555
C17_2 C16_2 1_555 1_555
C18_2 C17_2 1_555 1_555
C19_2 C18_2 1_555 1_555
C20_2 C15_2 1_555 1_555
H8 C20_2 1_555 1_555
C22_2 C17_2 1_555 1_555
H13_2 C25_2 1_555 1_555
H14_2 C25_2 1_555 1_555
N1_2 C7_2 1_555 1_555
H18_2 N1_2 1_555 1_555
N2_2 C14_2 1_555 1_555
H19_2 N2_2 1_555 1_555
O1_2 C5_2 1_555 1_555
O2 C5_2 1_555 1_555
O3_2 C1_2 1_555 1_555
O6 C22_2 1_555 1_555
O9_2 C9_2 1_555 1_555
O10_2 C14_2 1_555 1_555
O11_2 Zn3 1_555 1_555
Zn6 O2 1_555 1_555
O16 Zn3 1_555 1_555
C1_2 O4_2 1_555 1_555
C7_2 C8_2 1_555 1_555
C9_2 N1_2 1_555 1_555
C12_2 C13_2 1_555 1_555
C15_2 N2_2 1_555 1_555
C19_2 C20_2 1_555 1_555
O12_2 H20_2 1_555 1_555
O12_2 H21_2 1_555 1_555
O17 Zn6 1_555 1_555
O16 C21_2 1_555 1_555
O17 C21_2 1_555 1_555
C26_2 H15_2 1_555 1_555
H16_2 C26_2 1_555 1_555
N3_2 C23_2 1_555 1_555
C26_2 N3_2 1_555 1_555
H10_2 C24_2 1_555 1_555
H11_2 C24_2 1_555 1_555

#END
