
###############################################################################
#
# This file contains modified crystal structure data generated from the
# MOF subset of the Cambridge Structural Database (CSD) v543 
# hosted by the Cambridge Crystallographic Data Centre (CCDC).
#
# This work is licensed under the Creative Commons
# Attribution-NonCommercial-ShareAlike 4.0 International License.
# To view a copy of this license, visit
# http://creativecommons.org/licenses/by-nc-sa/4.0/
# or send a letter to
# Creative Commons, PO Box 1866, Mountain View, CA 94042, USA.
#
# CIF created using the CSD Python API on 29 September 2022
# The structure has been converted into the P1 space group
# The structure has a 3D framework
# The original CSD entry WAQTEQ is in the rhombohedral crystal system
# The framework has been calculated to contain at least 10.0% void space
# The void calculation uses a probe of radius 1.32A, grid spacing 0.4
# H atom positions have been added when not included in the experimental data
#
###############################################################################

data_WAQTEQ
_chemical_formula_moiety         '(C270 H252 N72 O116 Zn36)n'
_symmetry_cell_setting           triclinic
_symmetry_space_group_name_H-M   'P 1'
_symmetry_Int_Tables_number      1
_space_group_name_Hall           'P 1'
loop_
_symmetry_equiv_pos_site_id
_symmetry_equiv_pos_as_xyz
1 x,y,z
_cell_length_a                   22.168(3)
_cell_length_b                   22.168(3)
_cell_length_c                   37.019(7)
_cell_angle_alpha                90
_cell_angle_beta                 90
_cell_angle_gamma                120
_cell_volume                     15754.6
loop_
_atom_site_label
_atom_site_type_symbol
_atom_site_fract_x
_atom_site_fract_y
_atom_site_fract_z
H1 H 0.1052 0.5596 0.0064
O8 O 0.06157(10) 0.65937(6) 0.03889(3)
Zn1 Zn 0.080074(9) 0.619895(9) 0.953887(5)
O6 O 0.06575(5) 0.55070(5) 0.99253(3)
O7 O 0.15418(10) 0.68265(10) 0.91869(4)
N4 N 0.2554(2) 0.7673(2) 0.90191(11)
C12 C 0.2100(2) 0.7293(2) 0.92771(10)
H6 H 0.2215 0.7387 0.9520
C13 C 0.3223(3) 0.8266(3) 0.91279(12)
H7 H 0.3368 0.8162 0.9352
H8 H 0.3175 0.8670 0.9157
H9 H 0.3565 0.8356 0.8945
C15 C 0.2621(4) 0.7388(3) 0.86678(12)
H11 H 0.3103 0.7544 0.8622
H12 H 0.2439 0.7546 0.8478
H13 H 0.2365 0.6888 0.8677
Zn6 Zn 0.006252(9) 0.444371(9) 0.976036(5)
O9 O 0.12908(10) 0.70200(6) 0.98983(3)
N6 N 0.04842(7) 0.54322(12) 0.91469(3)
Zn2 Zn 0.993748(9) 0.555629(9) 0.023964(5)
O2 O 0.70200(6) 0.57292(8) 0.01017(3)
O3 O 0.92785(5) 0.57979(6) 0.00035(3)
Zn3 Zn 0.619895(9) 0.539821(13) 0.046113(5)
O10 O 0.93425(5) 0.44930(5) 0.00747(3)
N5 N 0.98038(7) 0.52561(11) 0.07557(3)
O1 O 0.65937(6) 0.59780(8) 0.96111(3)
O4 O 0.99266(5) 0.62606(6) 0.95065(3)
O5 O 0.92102(6) 0.64383(8) 0.84529(4)
N1 N 0.87857(9) 0.68629(7) 0.74224(3)
N2 N 0.83938(6) 0.66904(7) 0.86526(3)
N3 N 0.83854(10) 0.71509(7) 0.75198(3)
C1 C 0.70541(8) 0.59298(11) 0.97787(4)
C2 C 0.77111(8) 0.61099(11) 0.95729(4)
C3 C 0.77853(8) 0.63352(11) 0.92196(4)
H2 H 0.7437 0.6394 0.9114
C4 C 0.93969(8) 0.60726(8) 0.96934(4)
C5 C 0.88309(7) 0.61827(8) 0.95372(4)
C6 C 0.82372(7) 0.60289(8) 0.97296(4)
H3 H 0.8188 0.5870 0.9966
C7 C 0.88988(8) 0.64196(8) 0.91788(4)
H4 H 0.9303 0.6538 0.9050
C8 C 0.83703(8) 0.64762(8) 0.90180(4)
C9 C 0.87992(9) 0.66363(10) 0.83867(5)
C10 C 0.86937(12) 0.68133(9) 0.80226(4)
C11 C 0.83336(11) 0.71203(8) 0.78802(4)
H5 H 0.8090 0.7282 0.8016
C14 C 0.89748(12) 0.66706(9) 0.77190(4)
H10 H 0.9255 0.6469 0.7725
Zn4 Zn 0.793512(13) 0.746741(9) 0.712780(5)
Zn5 Zn 0.895214(13) 0.672919(9) 0.690631(5)
Zn7 Zn 0.555629(9) 0.561881(13) 0.976036(5)
H14 H 0.80914 0.689672 0.858369
Zn2_2 Zn 0.444371(9) 0.438119(13) 0.023964(5)
O2_2 O 0.42708(8) 0.12908(10) 0.01017(3)
O3_2 O 0.42021(6) 0.34806(8) 0.00035(3)
H1_2 H 0.4404 0.5456 0.0064
Zn3_2 Zn 0.460179(13) 0.080074(16) 0.046113(5)
O8_2 O 0.34063(6) 0.40220(12) 0.03889(3)
O10_2 O 0.55070(5) 0.48495(7) 0.00747(3)
N5_2 N 0.47439(11) 0.45476(13) 0.07557(3)
Zn1_2 Zn 0.380105(9) 0.460179(13) 0.953887(5)
O1_2 O 0.40220(8) 0.06157(10) 0.96111(3)
O4_2 O 0.37394(6) 0.36660(8) 0.95065(3)
O5_2 O 0.35617(8) 0.27719(10) 0.84529(4)
O6_2 O 0.44930(5) 0.51505(7) 0.99253(3)
O7_2 O 0.31735(10) 0.47153(14) 0.91869(4)
N1_2 N 0.31371(7) 0.19228(11) 0.74224(3)
N2_2 N 0.33096(7) 0.17034(9) 0.86526(3)
N3_2 N 0.28491(7) 0.12345(12) 0.75198(3)
N4_2 N 0.2327(2) 0.4881(3) 0.90191(11)
C1_2 C 0.40702(11) 0.11243(14) 0.97787(4)
C2_2 C 0.38901(11) 0.16012(14) 0.95729(4)
C3_2 C 0.36648(11) 0.14501(14) 0.92196(4)
H2_2 H 0.3606 0.1043 0.9114
C4_2 C 0.39274(8) 0.33243(11) 0.96934(4)
C5_2 C 0.38173(8) 0.26482(11) 0.95372(4)
C6_2 C 0.39711(8) 0.22083(11) 0.97296(4)
H3_2 H 0.4130 0.2318 0.9966
C7_2 C 0.35804(8) 0.24792(11) 0.91788(4)
H4_2 H 0.3462 0.2765 0.9050
C8_2 C 0.35238(8) 0.18941(11) 0.90180(4)
C9_2 C 0.33637(10) 0.21629(13) 0.83867(5)
C10_2 C 0.31867(9) 0.18804(15) 0.80226(4)
C11_2 C 0.28797(8) 0.12133(14) 0.78802(4)
H5_2 H 0.2718 0.0808 0.8016
C12_2 C 0.2707(2) 0.4807(3) 0.92771(10)
H6_2 H 0.2613 0.4828 0.9520
C13_2 C 0.1734(3) 0.4957(4) 0.91279(12)
H7_2 H 0.1838 0.5206 0.9352
H8_2 H 0.1330 0.4505 0.9157
H9_2 H 0.1644 0.5209 0.8945
C14_2 C 0.33294(9) 0.23042(15) 0.77190(4)
H10_2 H 0.3531 0.2786 0.7725
C15_2 C 0.2612(3) 0.5233(5) 0.86678(12)
H11_2 H 0.2456 0.5559 0.8622
H12_2 H 0.2454 0.4893 0.8478
H13_2 H 0.3112 0.5477 0.8677
Zn4_2 Zn 0.253259(9) 0.046772(16) 0.712780(5)
Zn5_2 Zn 0.327081(9) 0.222296(16) 0.690631(5)
O9_2 O 0.29800(6) 0.42708(12) 0.98983(3)
N6_2 N 0.45678(12) 0.50521(14) 0.91469(3)
H14_2 H 0.310328 0.119469 0.858369
Zn7_2 Zn 0.438119(13) 0.993748(16) 0.976036(5)
Zn2_3 Zn 0.561881(13) 0.006252(9) 0.023964(5)
O2_3 O 0.87092(10) 0.29800(6) 0.01017(3)
O3_3 O 0.65194(8) 0.07215(5) 0.00035(3)
Zn3_3 Zn 0.919926(16) 0.380105(9) 0.046113(5)
O10_3 O 0.51505(7) 0.06575(5) 0.00747(3)
N5_3 N 0.54524(13) 0.01962(7) 0.07557(3)
O1_3 O 0.93843(10) 0.34063(6) 0.96111(3)
O4_3 O 0.63340(8) 0.00734(5) 0.95065(3)
O5_3 O 0.72281(10) 0.07898(6) 0.84529(4)
N1_3 N 0.80772(11) 0.12143(9) 0.74224(3)
N2_3 N 0.82966(9) 0.16062(6) 0.86526(3)
N3_3 N 0.87655(12) 0.16146(10) 0.75198(3)
C1_3 C 0.88757(14) 0.29459(8) 0.97787(4)
C2_3 C 0.83988(14) 0.22889(8) 0.95729(4)
C3_3 C 0.85499(14) 0.22147(8) 0.92196(4)
H2_3 H 0.8957 0.2563 0.9114
C4_3 C 0.66757(11) 0.06031(8) 0.96934(4)
C5_3 C 0.73518(11) 0.11691(7) 0.95372(4)
C6_3 C 0.77917(11) 0.17628(7) 0.97296(4)
H3_3 H 0.7682 0.1812 0.9966
C7_3 C 0.75208(11) 0.11012(8) 0.91788(4)
H4_3 H 0.7235 0.0697 0.9050
C8_3 C 0.81059(11) 0.16297(8) 0.90180(4)
C9_3 C 0.78371(13) 0.12008(9) 0.83867(5)
C10_3 C 0.81196(15) 0.13063(12) 0.80226(4)
C11_3 C 0.87867(14) 0.16664(11) 0.78802(4)
H5_3 H 0.9192 0.1910 0.8016
C14_3 C 0.76958(15) 0.10252(12) 0.77190(4)
H10_3 H 0.7214 0.0745 0.7725
Zn4_3 Zn 0.953228(16) 0.206488(13) 0.712780(5)
Zn5_3 Zn 0.777704(16) 0.104786(13) 0.690631(5)
H14_3 H 0.880531 0.19086 0.858369
H1_3 H 0.4544 0.8948 0.0064
O8_3 O 0.59780(12) 0.93843(10) 0.03889(3)
Zn1_3 Zn 0.539821(13) 0.919926(9) 0.953887(5)
O6_3 O 0.48495(7) 0.93425(5) 0.99253(3)
O7_3 O 0.52847(14) 0.84582(10) 0.91869(4)
N4_3 N 0.5119(3) 0.7446(2) 0.90191(11)
C12_3 C 0.5193(3) 0.7900(2) 0.92771(10)
H6_3 H 0.5172 0.7785 0.9520
C13_3 C 0.5043(4) 0.6777(3) 0.91279(12)
H7_3 H 0.4794 0.6632 0.9352
H8_3 H 0.5495 0.6825 0.9157
H9_3 H 0.4791 0.6435 0.8945
C15_3 C 0.4767(5) 0.7379(4) 0.86678(12)
H11_3 H 0.4441 0.6897 0.8622
H12_3 H 0.5107 0.7561 0.8478
H13_3 H 0.4523 0.7635 0.8677
O9_3 O 0.57292(12) 0.87092(10) 0.98983(3)
N6_3 N 0.49479(14) 0.95158(7) 0.91469(3)
O7_4 O 0.82085(10) 0.01598(10) 0.25202(4)
N2_4 N 0.50605(6) 0.00237(7) 0.19859(3)
N3_4 N 0.50521(10) 0.04842(7) 0.08531(3)
N4_4 N 0.9221(2) 0.1006(2) 0.23524(11)
C10_4 C 0.53604(12) 0.01466(9) 0.13559(4)
C11_4 C 0.50003(11) 0.04536(8) 0.12135(4)
H5_4 H 0.4757 0.0615 0.1349
C12_4 C 0.8767(2) 0.0626(2) 0.26104(10)
H6_4 H 0.8882 0.0720 0.2853
C13_4 C 0.9890(3) 0.1599(3) 0.24612(12)
H8_4 H 0.9842 0.2003 0.2490
C14_4 C 0.56415(12) 0.00039(9) 0.10523(4)
C15_4 C 0.9288(4) 0.0721(3) 0.20011(12)
H11_4 H 0.9770 0.0877 0.1955
H12_4 H 0.9106 0.0879 0.1811
H13_4 H 0.9032 0.0221 0.2010
O9_4 O 0.79575(10) 0.03533(6) 0.32316(3)
H14_4 H 0.475807 0.0230048 0.191702
Zn1_4 Zn 0.746741(9) 0.953228(9) 0.287220(5)
Zn2_4 Zn 0.660415(9) 0.888962(9) 0.357297(5)
O1_4 O 0.32604(6) 0.93113(8) 0.29444(3)
O2_4 O 0.36867(6) 0.90625(8) 0.34350(3)
O3_4 O 0.59452(5) 0.91312(6) 0.33368(3)
O4_4 O 0.65933(5) 0.95939(6) 0.28398(3)
O5_4 O 0.58769(6) 0.97716(8) 0.17862(4)
O6_4 O 0.73242(5) 0.88403(5) 0.32586(3)
H1_4 H 0.7719 0.8929 0.3397
C1_4 C 0.37208(8) 0.92631(11) 0.31120(4)
C2_4 C 0.43778(8) 0.94432(11) 0.29062(4)
C3_4 C 0.44520(8) 0.96685(11) 0.25529(4)
H2_4 H 0.4104 0.9727 0.2447
C4_4 C 0.60636(8) 0.94059(8) 0.30267(4)
C5_4 C 0.54976(7) 0.95160(8) 0.28705(4)
C6_4 C 0.49039(7) 0.93622(8) 0.30629(4)
H3_4 H 0.4855 0.9203 0.3299
C7_4 C 0.55655(8) 0.97529(8) 0.25121(4)
H4_4 H 0.5970 0.9871 0.2383
C8_4 C 0.50370(8) 0.98095(8) 0.23513(4)
C9_4 C 0.54659(9) 0.99696(10) 0.17200(5)
H10_4 H 0.5922 0.9802 0.1058
Zn3_4 Zn 0.286562(9) 0.873154(13) 0.379446(5)
Zn6_2 Zn 0.672919(9) 0.777704(9) 0.309369(5)
Zn7_3 Zn 0.222296(9) 0.895214(13) 0.309369(5)
O8_4 O 0.72824(10) 0.99270(6) 0.37222(3)
O10_4 O 0.60092(5) 0.78263(5) 0.34080(3)
N5_4 N 0.64704(7) 0.85895(11) 0.40891(3)
N6_4 N 0.71509(7) 0.87655(12) 0.24802(3)
Zn1_5 Zn 0.046772(9) 0.793512(13) 0.287220(5)
Zn2_5 Zn 0.111038(9) 0.771452(13) 0.357297(5)
O1_5 O 0.06887(8) 0.39490(10) 0.29444(3)
O2_5 O 0.09375(8) 0.46241(10) 0.34350(3)
O3_5 O 0.08688(6) 0.68139(8) 0.33368(3)
O4_5 O 0.04061(6) 0.69993(8) 0.28398(3)
O5_5 O 0.02284(8) 0.61052(10) 0.17862(4)
O6_5 O 0.11597(5) 0.84838(7) 0.32586(3)
H1_5 H 0.1071 0.8789 0.3397
C1_5 C 0.07369(11) 0.44576(14) 0.31120(4)
C2_5 C 0.05568(11) 0.49345(14) 0.29062(4)
C3_5 C 0.03315(11) 0.47834(14) 0.25529(4)
H2_5 H 0.0273 0.4376 0.2447
C4_5 C 0.05941(8) 0.66576(11) 0.30267(4)
C5_5 C 0.04840(8) 0.59815(11) 0.28705(4)
C6_5 C 0.06378(8) 0.55416(11) 0.30629(4)
H3_5 H 0.0797 0.5651 0.3299
C7_5 C 0.02471(8) 0.58125(11) 0.25121(4)
H4_5 H 0.0129 0.6098 0.2383
C8_5 C 0.01905(8) 0.52274(11) 0.23513(4)
C9_5 C 0.00304(10) 0.54962(13) 0.17200(5)
H10_5 H 0.0198 0.6119 0.1058
Zn3_5 Zn 0.126846(13) 0.413407(16) 0.379446(5)
Zn7_4 Zn 0.104786(13) 0.327081(16) 0.309369(5)
O8_5 O 0.00730(6) 0.73553(12) 0.37222(3)
O10_5 O 0.21737(5) 0.81828(7) 0.34080(3)
N5_5 N 0.14105(11) 0.78810(13) 0.40891(3)
N6_5 N 0.12345(12) 0.83854(14) 0.24802(3)
O7_5 O 0.98402(10) 0.80486(14) 0.25202(4)
N2_5 N 0.99763(7) 0.50367(9) 0.19859(3)
N3_5 N 0.95158(7) 0.45678(12) 0.08531(3)
N4_5 N 0.8994(2) 0.8214(3) 0.23524(11)
C10_5 C 0.98534(9) 0.52137(15) 0.13559(4)
C11_5 C 0.95464(8) 0.45466(14) 0.12135(4)
H5_5 H 0.9385 0.4141 0.1349
C12_5 C 0.9374(2) 0.8140(3) 0.26104(10)
H6_5 H 0.9280 0.8161 0.2853
C13_5 C 0.8401(3) 0.8290(4) 0.24612(12)
H7_4 H 0.8505 0.8539 0.2685
H8_5 H 0.7997 0.7838 0.2490
H9_4 H 0.8311 0.8542 0.2278
C14_5 C 0.99961(9) 0.56375(15) 0.10523(4)
C15_5 C 0.9279(3) 0.8566(5) 0.20011(12)
H11_5 H 0.9123 0.8892 0.1955
H12_5 H 0.9121 0.8226 0.1811
H13_5 H 0.9779 0.8810 0.2010
O9_5 O 0.96467(6) 0.76041(12) 0.32316(3)
H14_5 H 0.976995 0.452802 0.191702
Zn1_6 Zn 0.206488(13) 0.253259(9) 0.287220(5)
Zn2_6 Zn 0.228548(13) 0.339585(9) 0.357297(5)
O1_6 O 0.60510(10) 0.67396(6) 0.29444(3)
O2_6 O 0.53759(10) 0.63133(6) 0.34350(3)
O3_6 O 0.31861(8) 0.40548(5) 0.33368(3)
O4_6 O 0.30007(8) 0.34067(5) 0.28398(3)
O5_6 O 0.38948(10) 0.41231(6) 0.17862(4)
O6_6 O 0.15162(7) 0.26758(5) 0.32586(3)
H1_6 H 0.1211 0.2281 0.3397
O7_6 O 0.19514(14) 0.17915(10) 0.25202(4)
N2_6 N 0.49633(9) 0.49395(6) 0.19859(3)
N3_6 N 0.54322(12) 0.49479(10) 0.08531(3)
N4_6 N 0.1786(3) 0.0779(2) 0.23524(11)
C1_6 C 0.55424(14) 0.62792(8) 0.31120(4)
C2_6 C 0.50655(14) 0.56222(8) 0.29062(4)
C3_6 C 0.52166(14) 0.55480(8) 0.25529(4)
H2_6 H 0.5624 0.5896 0.2447
C4_6 C 0.33424(11) 0.39364(8) 0.30267(4)
C5_6 C 0.40185(11) 0.45024(7) 0.28705(4)
C6_6 C 0.44584(11) 0.50961(7) 0.30629(4)
H3_6 H 0.4349 0.5145 0.3299
C7_6 C 0.41875(11) 0.44345(8) 0.25121(4)
H4_6 H 0.3902 0.4030 0.2383
C8_6 C 0.47726(11) 0.49630(8) 0.23513(4)
C9_6 C 0.45038(13) 0.45341(9) 0.17200(5)
C10_6 C 0.47863(15) 0.46396(12) 0.13559(4)
C11_6 C 0.54534(14) 0.49997(11) 0.12135(4)
H5_6 H 0.5859 0.5243 0.1349
C12_6 C 0.1860(3) 0.1233(2) 0.26104(10)
H6_6 H 0.1839 0.1118 0.2853
C13_6 C 0.1710(4) 0.0110(3) 0.24612(12)
H8_6 H 0.2162 0.0158 0.2490
C14_6 C 0.43625(15) 0.43585(12) 0.10523(4)
H10_6 H 0.3881 0.4078 0.1058
C15_6 C 0.1434(5) 0.0712(4) 0.20011(12)
H11_6 H 0.1108 0.0230 0.1955
H12_6 H 0.1774 0.0894 0.1811
H13_6 H 0.1190 0.0968 0.2010
Zn3_6 Zn 0.586593(16) 0.713438(9) 0.379446(5)
O8_6 O 0.26447(12) 0.27176(10) 0.37222(3)
O9_6 O 0.23959(12) 0.20425(10) 0.32316(3)
O10_6 O 0.18172(7) 0.39908(5) 0.34080(3)
N5_6 N 0.21190(13) 0.35296(7) 0.40891(3)
N6_6 N 0.16146(14) 0.28491(7) 0.24802(3)
H14_6 H 0.547198 0.524193 0.191702
Zn1_7 Zn 0.413407(9) 0.286562(9) 0.620554(5)
O2_7 O 0.03533(6) 0.23959(8) 0.67684(3)
O3_7 O 0.26118(5) 0.24646(6) 0.66702(3)
O4_7 O 0.32599(5) 0.29273(6) 0.61732(3)
O5_7 O 0.25435(6) 0.31050(8) 0.51196(4)
O6_7 O 0.39908(5) 0.21737(5) 0.65920(3)
H1_7 H 0.4385 0.2263 0.6731
O7_7 O 0.48751(10) 0.34932(10) 0.58536(4)
N2_7 N 0.17271(6) 0.33571(7) 0.53193(3)
N3_7 N 0.17187(10) 0.38176(7) 0.41865(3)
N4_7 N 0.5887(2) 0.4340(2) 0.56858(11)
C1_7 C 0.03874(8) 0.25965(11) 0.64454(4)
C2_7 C 0.10444(8) 0.27766(11) 0.62396(4)
C3_7 C 0.11186(8) 0.30019(11) 0.58863(4)
H2_7 H 0.0770 0.3061 0.5781
C4_7 C 0.27302(8) 0.27393(8) 0.63601(4)
C5_7 C 0.21642(7) 0.28494(8) 0.62039(4)
C6_7 C 0.15705(7) 0.26956(8) 0.63963(4)
H3_7 H 0.1521 0.2537 0.6633
C7_7 C 0.22321(8) 0.30863(8) 0.58455(4)
H4_7 H 0.2636 0.3205 0.5717
C8_7 C 0.17036(8) 0.31429(8) 0.56847(4)
C9_7 C 0.21325(9) 0.33030(10) 0.50534(5)
C10_7 C 0.20270(12) 0.34800(9) 0.46893(4)
C11_7 C 0.16669(11) 0.37870(8) 0.45469(4)
H5_7 H 0.1423 0.3949 0.4683
C12_7 C 0.5433(2) 0.3960(2) 0.59438(10)
H6_7 H 0.5548 0.4054 0.6187
C13_7 C 0.6556(3) 0.4933(3) 0.57946(12)
H7_5 H 0.6701 0.4829 0.6019
H8_7 H 0.6508 0.5337 0.5824
H9_5 H 0.6898 0.5023 0.5612
C14_7 C 0.23081(12) 0.33373(9) 0.43857(4)
H10_7 H 0.2588 0.3136 0.4392
C15_7 C 0.5954(4) 0.4055(3) 0.53345(12)
H11_7 H 0.6436 0.4211 0.5289
H12_7 H 0.5772 0.4213 0.5145
H13_7 H 0.5698 0.3555 0.5344
Zn6_3 Zn 0.339585(9) 0.111038(9) 0.642703(5)
O8_7 O 0.39490(10) 0.32604(6) 0.70556(3)
O9_7 O 0.46241(10) 0.36867(6) 0.65650(3)
O10_7 O 0.26758(5) 0.11597(5) 0.67414(3)
N6_7 N 0.38176(7) 0.20988(12) 0.58135(3)
H14_7 H 0.142474 0.356338 0.525035
O1_7 O 0.99270(6) 0.26447(8) 0.62778(3)
Zn7_5 Zn 0.888962(9) 0.228548(13) 0.642703(5)
Zn1_8 Zn 0.713438(9) 0.126846(13) 0.620554(5)
O3_8 O 0.75354(6) 0.01473(8) 0.66702(3)
O4_8 O 0.70727(6) 0.03327(8) 0.61732(3)
O6_8 O 0.78263(5) 0.18172(7) 0.65920(3)
H1_8 H 0.7737 0.2123 0.6731
O7_8 O 0.65068(10) 0.13820(14) 0.58536(4)
N4_8 N 0.5660(2) 0.1548(3) 0.56858(11)
C12_8 C 0.6040(2) 0.1474(3) 0.59438(10)
H6_8 H 0.5946 0.1495 0.6187
C13_8 C 0.5067(3) 0.1624(4) 0.57946(12)
H7_6 H 0.5171 0.1873 0.6019
H8_8 H 0.4663 0.1172 0.5824
H9_6 H 0.4977 0.1876 0.5612
C15_8 C 0.5945(3) 0.1900(5) 0.53345(12)
H11_8 H 0.5789 0.2226 0.5289
H12_8 H 0.5787 0.1560 0.5145
H13_8 H 0.6445 0.2144 0.5344
O8_8 O 0.67396(6) 0.06887(12) 0.70556(3)
O9_8 O 0.63133(6) 0.09375(12) 0.65650(3)
O10_8 O 0.88403(5) 0.15162(7) 0.67414(3)
N6_8 N 0.79012(12) 0.17187(14) 0.58135(3)
O1_8 O 0.73553(8) 0.72824(10) 0.62778(3)
O2_8 O 0.76041(8) 0.79575(10) 0.67684(3)
O5_8 O 0.68950(8) 0.94386(10) 0.51196(4)
N2_8 N 0.66429(7) 0.83701(9) 0.53193(3)
N3_8 N 0.61824(7) 0.79012(12) 0.41865(3)
C1_8 C 0.74035(11) 0.77910(14) 0.64454(4)
C2_8 C 0.72234(11) 0.82679(14) 0.62396(4)
C3_8 C 0.69981(11) 0.81168(14) 0.58863(4)
H2_8 H 0.6939 0.7710 0.5781
C4_8 C 0.72607(8) 0.99910(11) 0.63601(4)
C5_8 C 0.71506(8) 0.93149(11) 0.62039(4)
C6_8 C 0.73044(8) 0.88750(11) 0.63963(4)
H3_8 H 0.7463 0.8985 0.6633
C7_8 C 0.69137(8) 0.91459(11) 0.58455(4)
H4_8 H 0.6795 0.9432 0.5717
C8_8 C 0.68571(8) 0.85608(11) 0.56847(4)
C9_8 C 0.66970(10) 0.88296(13) 0.50534(5)
C10_8 C 0.65200(9) 0.85471(15) 0.46893(4)
C11_8 C 0.62130(8) 0.78800(14) 0.45469(4)
H5_8 H 0.6051 0.7475 0.4683
C14_8 C 0.66627(9) 0.89709(15) 0.43857(4)
H10_8 H 0.6864 0.9453 0.4392
Zn7_6 Zn 0.771452(13) 0.660415(16) 0.642703(5)
H14_8 H 0.643662 0.786135 0.525035
O1_9 O 0.27176(10) 0.00730(6) 0.62778(3)
O2_9 O 0.20425(10) 0.96467(6) 0.67684(3)
O5_9 O 0.05614(10) 0.74565(6) 0.51196(4)
N2_9 N 0.16299(9) 0.82729(6) 0.53193(3)
N3_9 N 0.20988(12) 0.82813(10) 0.41865(3)
C1_9 C 0.22090(14) 0.96126(8) 0.64454(4)
C2_9 C 0.17321(14) 0.89556(8) 0.62396(4)
C3_9 C 0.18832(14) 0.88814(8) 0.58863(4)
H2_9 H 0.2290 0.9230 0.5781
C4_9 C 0.00090(11) 0.72698(8) 0.63601(4)
C5_9 C 0.06851(11) 0.78358(7) 0.62039(4)
C6_9 C 0.11250(11) 0.84295(7) 0.63963(4)
H3_9 H 0.1015 0.8479 0.6633
C7_9 C 0.08541(11) 0.77679(8) 0.58455(4)
H4_9 H 0.0568 0.7364 0.5717
C8_9 C 0.14392(11) 0.82964(8) 0.56847(4)
C9_9 C 0.11704(13) 0.78675(9) 0.50534(5)
C10_9 C 0.14529(15) 0.79730(12) 0.46893(4)
C11_9 C 0.21200(14) 0.83331(11) 0.45469(4)
H5_9 H 0.2525 0.8577 0.4683
C14_9 C 0.10291(15) 0.76919(12) 0.43857(4)
H10_9 H 0.0547 0.7412 0.4392
H14_9 H 0.213865 0.857526 0.525035
Zn1_9 Zn 0.873154(13) 0.586593(9) 0.620554(5)
O3_9 O 0.98527(8) 0.73882(5) 0.66702(3)
O4_9 O 0.96673(8) 0.67401(5) 0.61732(3)
O6_9 O 0.81828(7) 0.60092(5) 0.65920(3)
H1_9 H 0.7877 0.5615 0.6731
O7_9 O 0.86180(14) 0.51249(10) 0.58536(4)
N4_9 N 0.8452(3) 0.4113(2) 0.56858(11)
C12_9 C 0.8526(3) 0.4567(2) 0.59438(10)
H6_9 H 0.8505 0.4452 0.6187
C13_9 C 0.8376(4) 0.3444(3) 0.57946(12)
H7_7 H 0.8127 0.3299 0.6019
H8_9 H 0.8828 0.3492 0.5824
H9_7 H 0.8124 0.3102 0.5612
C15_9 C 0.8100(5) 0.4046(4) 0.53345(12)
H11_9 H 0.7774 0.3564 0.5289
H12_9 H 0.8440 0.4228 0.5145
H13_9 H 0.7856 0.4302 0.5344
O8_9 O 0.93113(12) 0.60510(10) 0.70556(3)
O9_9 O 0.90625(12) 0.53759(10) 0.65650(3)
O10_9 O 0.84838(7) 0.73242(5) 0.67414(3)
N6_9 N 0.82813(14) 0.61824(7) 0.58135(3)
O4_10 O 0.00734(5) 0.37394(6) 0.04935(3)
O5_10 O 0.07898(6) 0.35617(8) 0.15471(4)
N1_4 N 0.12143(9) 0.31371(7) 0.25776(3)
N2_10 N 0.16062(6) 0.33096(7) 0.13474(3)
C1_10 C 0.29459(8) 0.40702(11) 0.02213(4)
C2_10 C 0.22889(8) 0.38901(11) 0.04271(4)
C3_10 C 0.22147(8) 0.36648(11) 0.07804(4)
H2_10 H 0.2563 0.3606 0.0886
C4_10 C 0.06031(8) 0.39274(8) 0.03066(4)
C5_10 C 0.11691(7) 0.38173(8) 0.04628(4)
C6_10 C 0.17628(7) 0.39711(8) 0.02704(4)
H3_10 H 0.1812 0.4130 0.0034
C7_10 C 0.11012(8) 0.35804(8) 0.08212(4)
H4_10 H 0.0697 0.3462 0.0950
C8_10 C 0.16297(8) 0.35238(8) 0.09820(4)
C9_10 C 0.12008(9) 0.33637(10) 0.16133(5)
C10_10 C 0.13063(12) 0.31867(9) 0.19774(4)
C11_10 C 0.16664(11) 0.28797(8) 0.21198(4)
H5_10 H 0.1910 0.2718 0.1984
C14_10 C 0.10252(12) 0.33294(9) 0.22810(4)
H10_10 H 0.0745 0.3531 0.2275
H14_10 H 0.19086 0.310328 0.141631
O3_10 O 0.07215(5) 0.42021(6) 0.99965(3)
N5_7 N 0.01962(7) 0.47439(11) 0.92443(3)
O7_10 O 0.84582(10) 0.31735(10) 0.08131(4)
N4_10 N 0.7446(2) 0.2327(2) 0.09809(11)
C12_10 C 0.7900(2) 0.2707(2) 0.07229(10)
H6_10 H 0.7785 0.2613 0.0480
C13_10 C 0.6777(3) 0.1734(3) 0.08721(12)
H7_8 H 0.6632 0.1838 0.0648
H8_10 H 0.6825 0.1330 0.0843
H9_8 H 0.6435 0.1644 0.1055
C15_10 C 0.7379(4) 0.2612(3) 0.13322(12)
H11_10 H 0.6897 0.2456 0.1378
H12_10 H 0.7561 0.2454 0.1522
H13_10 H 0.7635 0.3112 0.1323
H1_10 H 0.8948 0.4404 0.9936
O4_11 O 0.62606(6) 0.63340(8) 0.04935(3)
O5_11 O 0.64383(8) 0.72281(10) 0.15471(4)
O7_11 O 0.68265(10) 0.52847(14) 0.08131(4)
N1_5 N 0.68629(7) 0.80772(11) 0.25776(3)
N2_11 N 0.66904(7) 0.82966(9) 0.13474(3)
N4_11 N 0.7673(2) 0.5119(3) 0.09809(11)
C1_11 C 0.59298(11) 0.88757(14) 0.02213(4)
C2_11 C 0.61099(11) 0.83988(14) 0.04271(4)
C3_11 C 0.63352(11) 0.85499(14) 0.07804(4)
H2_11 H 0.6394 0.8957 0.0886
C4_11 C 0.60726(8) 0.66757(11) 0.03066(4)
C5_11 C 0.61827(8) 0.73518(11) 0.04628(4)
C6_11 C 0.60289(8) 0.77917(11) 0.02704(4)
H3_11 H 0.5870 0.7682 0.0034
C7_11 C 0.64196(8) 0.75208(11) 0.08212(4)
H4_11 H 0.6538 0.7235 0.0950
C8_11 C 0.64762(8) 0.81059(11) 0.09820(4)
C9_11 C 0.66363(10) 0.78371(13) 0.16133(5)
C10_11 C 0.68133(9) 0.81196(15) 0.19774(4)
C11_11 C 0.71203(8) 0.87867(14) 0.21198(4)
H5_11 H 0.7282 0.9192 0.1984
C12_11 C 0.7293(2) 0.5193(3) 0.07229(10)
H6_11 H 0.7387 0.5172 0.0480
C13_11 C 0.8266(3) 0.5043(4) 0.08721(12)
H7_9 H 0.8162 0.4794 0.0648
H8_11 H 0.8670 0.5495 0.0843
H9_9 H 0.8356 0.4791 0.1055
C14_11 C 0.66706(9) 0.76958(15) 0.22810(4)
H10_11 H 0.6469 0.7214 0.2275
C15_11 C 0.7388(3) 0.4767(5) 0.13322(12)
H11_11 H 0.7544 0.4441 0.1378
H12_11 H 0.7546 0.5107 0.1522
H13_11 H 0.6888 0.4523 0.1323
H14_11 H 0.689672 0.880531 0.141631
O3_11 O 0.57979(6) 0.65194(8) 0.99965(3)
H1_11 H 0.5596 0.4544 0.9936
N5_8 N 0.52561(11) 0.54524(13) 0.92443(3)
O7_12 O 0.47153(14) 0.15418(10) 0.08131(4)
N4_12 N 0.4881(3) 0.2554(2) 0.09809(11)
C12_12 C 0.4807(3) 0.2100(2) 0.07229(10)
H6_12 H 0.4828 0.2215 0.0480
C13_12 C 0.4957(4) 0.3223(3) 0.08721(12)
H7_10 H 0.5206 0.3368 0.0648
H8_12 H 0.4505 0.3175 0.0843
H9_10 H 0.5209 0.3565 0.1055
C15_12 C 0.5233(5) 0.2621(4) 0.13322(12)
H11_12 H 0.5559 0.3103 0.1378
H12_12 H 0.4893 0.2439 0.1522
H13_12 H 0.5477 0.2365 0.1323
H1_12 H 0.5456 0.1052 0.9936
O4_12 O 0.36660(8) 0.99266(5) 0.04935(3)
O5_12 O 0.27719(10) 0.92102(6) 0.15471(4)
N1_6 N 0.19228(11) 0.87857(9) 0.25776(3)
N2_12 N 0.17034(9) 0.83938(6) 0.13474(3)
C1_12 C 0.11243(14) 0.70541(8) 0.02213(4)
C2_12 C 0.16012(14) 0.77111(8) 0.04271(4)
C3_12 C 0.14501(14) 0.77853(8) 0.07804(4)
H2_12 H 0.1043 0.7437 0.0886
C4_12 C 0.33243(11) 0.93969(8) 0.03066(4)
C5_12 C 0.26482(11) 0.88309(7) 0.04628(4)
C6_12 C 0.22083(11) 0.82372(7) 0.02704(4)
H3_12 H 0.2318 0.8188 0.0034
C7_12 C 0.24792(11) 0.88988(8) 0.08212(4)
H4_12 H 0.2765 0.9303 0.0950
C8_12 C 0.18941(11) 0.83703(8) 0.09820(4)
C9_12 C 0.21629(13) 0.87992(9) 0.16133(5)
C10_12 C 0.18804(15) 0.86937(12) 0.19774(4)
C11_12 C 0.12133(14) 0.83336(11) 0.21198(4)
H5_12 H 0.0808 0.8090 0.1984
C14_12 C 0.23042(15) 0.89748(12) 0.22810(4)
H10_12 H 0.2786 0.9255 0.2275
H14_12 H 0.119469 0.80914 0.141631
O3_12 O 0.34806(8) 0.92785(5) 0.99965(3)
N5_9 N 0.45476(13) 0.98038(7) 0.92443(3)
O3_13 O 0.40548(5) 0.08688(6) 0.66632(3)
O4_13 O 0.34067(5) 0.04061(6) 0.71602(3)
O5_13 O 0.41231(6) 0.02284(8) 0.82138(4)
H1_13 H 0.2281 0.1071 0.6603
C1_13 C 0.62792(8) 0.07369(11) 0.68880(4)
C2_13 C 0.56222(8) 0.05568(11) 0.70938(4)
C3_13 C 0.55480(8) 0.03315(11) 0.74471(4)
H2_13 H 0.5896 0.0273 0.7553
C4_13 C 0.39364(8) 0.05941(8) 0.69733(4)
C5_13 C 0.45024(7) 0.04840(8) 0.71295(4)
C6_13 C 0.50961(7) 0.06378(8) 0.69371(4)
H3_13 H 0.5145 0.0797 0.6701
C7_13 C 0.44345(8) 0.02471(8) 0.74879(4)
H4_13 H 0.4030 0.0129 0.7617
C8_13 C 0.49630(8) 0.01905(8) 0.76487(4)
C9_13 C 0.45341(9) 0.00304(10) 0.82800(5)
H10_13 H 0.4078 0.0198 0.8942
N5_10 N 0.35296(7) 0.14105(11) 0.59109(3)
O7_13 O 0.17915(10) 0.98402(10) 0.74798(4)
N2_13 N 0.49395(6) 0.99763(7) 0.80141(3)
N4_13 N 0.0779(2) 0.8994(2) 0.76476(11)
C10_13 C 0.46396(12) 0.98534(9) 0.86441(4)
C11_13 C 0.49997(11) 0.95464(8) 0.87865(4)
H5_13 H 0.5243 0.9385 0.8651
C12_13 C 0.1233(2) 0.9374(2) 0.73896(10)
H6_13 H 0.1118 0.9280 0.7147
C13_13 C 0.0110(3) 0.8401(3) 0.75388(12)
H8_13 H 0.0158 0.7997 0.7510
C14_13 C 0.43585(12) 0.99961(9) 0.89477(4)
C15_13 C 0.0712(4) 0.9279(3) 0.79989(12)
H11_13 H 0.0230 0.9123 0.8045
H12_13 H 0.0894 0.9121 0.8189
H13_13 H 0.0968 0.9779 0.7990
H14_13 H 0.524193 0.976995 0.808298
O7_14 O 0.01598(10) 0.19514(14) 0.74798(4)
N2_14 N 0.00237(7) 0.49633(9) 0.80141(3)
N4_14 N 0.1006(2) 0.1786(3) 0.76476(11)
C10_14 C 0.01466(9) 0.47863(15) 0.86441(4)
C11_14 C 0.04536(8) 0.54534(14) 0.87865(4)
H5_14 H 0.0615 0.5859 0.8651
C12_14 C 0.0626(2) 0.1860(3) 0.73896(10)
H6_14 H 0.0720 0.1839 0.7147
C13_14 C 0.1599(3) 0.1710(4) 0.75388(12)
H7_11 H 0.1495 0.1461 0.7315
H8_14 H 0.2003 0.2162 0.7510
H9_11 H 0.1689 0.1458 0.7722
C14_14 C 0.00039(9) 0.43625(15) 0.89477(4)
C15_14 C 0.0721(3) 0.1434(5) 0.79989(12)
H11_14 H 0.0877 0.1108 0.8045
H12_14 H 0.0879 0.1774 0.8189
H13_14 H 0.0221 0.1190 0.7990
H14_14 H 0.0230048 0.547198 0.808298
O3_14 O 0.91312(6) 0.31861(8) 0.66632(3)
O4_14 O 0.95939(6) 0.30007(8) 0.71602(3)
O5_14 O 0.97716(8) 0.38948(10) 0.82138(4)
H1_14 H 0.8929 0.1211 0.6603
C1_14 C 0.92631(11) 0.55424(14) 0.68880(4)
C2_14 C 0.94432(11) 0.50655(14) 0.70938(4)
C3_14 C 0.96685(11) 0.52166(14) 0.74471(4)
H2_14 H 0.9727 0.5624 0.7553
C4_14 C 0.94059(8) 0.33424(11) 0.69733(4)
C5_14 C 0.95160(8) 0.40185(11) 0.71295(4)
C6_14 C 0.93622(8) 0.44584(11) 0.69371(4)
H3_14 H 0.9203 0.4349 0.6701
C7_14 C 0.97529(8) 0.41875(11) 0.74879(4)
H4_14 H 0.9871 0.3902 0.7617
C8_14 C 0.98095(8) 0.47726(11) 0.76487(4)
C9_14 C 0.99696(10) 0.45038(13) 0.82800(5)
H10_14 H 0.9802 0.3881 0.8942
N5_11 N 0.85895(11) 0.21190(13) 0.59109(3)
O3_15 O 0.68139(8) 0.59452(5) 0.66632(3)
O4_15 O 0.69993(8) 0.65933(5) 0.71602(3)
O5_15 O 0.61052(10) 0.58769(6) 0.82138(4)
H1_15 H 0.8789 0.7719 0.6603
O7_15 O 0.80486(14) 0.82085(10) 0.74798(4)
N2_15 N 0.50367(9) 0.50605(6) 0.80141(3)
N4_15 N 0.8214(3) 0.9221(2) 0.76476(11)
C1_15 C 0.44576(14) 0.37208(8) 0.68880(4)
C2_15 C 0.49345(14) 0.43778(8) 0.70938(4)
C3_15 C 0.47834(14) 0.44520(8) 0.74471(4)
H2_15 H 0.4376 0.4104 0.7553
C4_15 C 0.66576(11) 0.60636(8) 0.69733(4)
C5_15 C 0.59815(11) 0.54976(7) 0.71295(4)
C6_15 C 0.55416(11) 0.49039(7) 0.69371(4)
H3_15 H 0.5651 0.4855 0.6701
C7_15 C 0.58125(11) 0.55655(8) 0.74879(4)
H4_15 H 0.6098 0.5970 0.7617
C8_15 C 0.52274(11) 0.50370(8) 0.76487(4)
C9_15 C 0.54962(13) 0.54659(9) 0.82800(5)
C10_15 C 0.52137(15) 0.53604(12) 0.86441(4)
C11_15 C 0.45466(14) 0.50003(11) 0.87865(4)
H5_15 H 0.4141 0.4757 0.8651
C12_15 C 0.8140(3) 0.8767(2) 0.73896(10)
H6_15 H 0.8161 0.8882 0.7147
C13_15 C 0.8290(4) 0.9890(3) 0.75388(12)
H8_15 H 0.7838 0.9842 0.7510
C14_15 C 0.56375(15) 0.56415(12) 0.89477(4)
H10_15 H 0.6119 0.5922 0.8942
C15_15 C 0.8566(5) 0.9288(4) 0.79989(12)
H11_15 H 0.8892 0.9770 0.8045
H12_15 H 0.8226 0.9106 0.8189
H13_15 H 0.8810 0.9032 0.7990
N5_12 N 0.78810(13) 0.64704(7) 0.59109(3)
H14_15 H 0.452802 0.475807 0.808298
O3_16 O 0.73882(5) 0.75354(6) 0.33298(3)
O4_16 O 0.67401(5) 0.70727(6) 0.38268(3)
O5_16 O 0.74565(6) 0.68950(8) 0.48804(4)
H1_16 H 0.5615 0.7737 0.3269
O7_16 O 0.51249(10) 0.65068(10) 0.41464(4)
N2_16 N 0.82729(6) 0.66429(7) 0.46807(3)
N4_16 N 0.4113(2) 0.5660(2) 0.43142(11)
C1_16 C 0.96126(8) 0.74035(11) 0.35546(4)
C2_16 C 0.89556(8) 0.72234(11) 0.37604(4)
C3_16 C 0.88814(8) 0.69981(11) 0.41137(4)
H2_16 H 0.9230 0.6939 0.4219
C4_16 C 0.72698(8) 0.72607(8) 0.36399(4)
C5_16 C 0.78358(7) 0.71506(8) 0.37961(4)
C6_16 C 0.84295(7) 0.73044(8) 0.36037(4)
H3_16 H 0.8479 0.7463 0.3367
C7_16 C 0.77679(8) 0.69137(8) 0.41545(4)
H4_16 H 0.7364 0.6795 0.4283
C8_16 C 0.82964(8) 0.68571(8) 0.43153(4)
C9_16 C 0.78675(9) 0.66970(10) 0.49466(5)
C10_16 C 0.79730(12) 0.65200(9) 0.53107(4)
C11_16 C 0.83331(11) 0.62130(8) 0.54531(4)
H5_16 H 0.8577 0.6051 0.5317
C12_16 C 0.4567(2) 0.6040(2) 0.40562(10)
H6_16 H 0.4452 0.5946 0.3813
C13_16 C 0.3444(3) 0.5067(3) 0.42054(12)
H7_12 H 0.3299 0.5171 0.3981
H8_16 H 0.3492 0.4663 0.4176
H9_12 H 0.3102 0.4977 0.4388
C14_16 C 0.76919(12) 0.66627(9) 0.56143(4)
H10_16 H 0.7412 0.6864 0.5608
C15_16 C 0.4046(4) 0.5945(3) 0.46655(12)
H11_16 H 0.3564 0.5789 0.4711
H12_16 H 0.4228 0.5787 0.4855
H13_16 H 0.4302 0.6445 0.4656
H14_16 H 0.857526 0.643662 0.474965
O5_17 O 0.31050(8) 0.05614(10) 0.48804(4)
N2_17 N 0.33571(7) 0.16299(9) 0.46807(3)
C1_17 C 0.25965(11) 0.22090(14) 0.35546(4)
C2_17 C 0.27766(11) 0.17321(14) 0.37604(4)
C3_17 C 0.30019(11) 0.18832(14) 0.41137(4)
H2_17 H 0.3061 0.2290 0.4219
C4_17 C 0.27393(8) 0.00090(11) 0.36399(4)
C5_17 C 0.28494(8) 0.06851(11) 0.37961(4)
C6_17 C 0.26956(8) 0.11250(11) 0.36037(4)
H3_17 H 0.2537 0.1015 0.3367
C7_17 C 0.30863(8) 0.08541(11) 0.41545(4)
H4_17 H 0.3205 0.0568 0.4283
C8_17 C 0.31429(8) 0.14392(11) 0.43153(4)
C9_17 C 0.33030(10) 0.11704(13) 0.49466(5)
C10_17 C 0.34800(9) 0.14529(15) 0.53107(4)
C11_17 C 0.37870(8) 0.21200(14) 0.54531(4)
H5_17 H 0.3949 0.2525 0.5317
C14_17 C 0.33373(9) 0.10291(15) 0.56143(4)
H10_17 H 0.3136 0.0547 0.5608
H14_17 H 0.356338 0.213865 0.474965
O3_17 O 0.24646(6) 0.98527(8) 0.33298(3)
O4_17 O 0.29273(6) 0.96673(8) 0.38268(3)
H1_17 H 0.2263 0.7877 0.3269
O7_17 O 0.34932(10) 0.86180(14) 0.41464(4)
N4_17 N 0.4340(2) 0.8452(3) 0.43142(11)
C12_17 C 0.3960(2) 0.8526(3) 0.40562(10)
H6_17 H 0.4054 0.8505 0.3813
C13_17 C 0.4933(3) 0.8376(4) 0.42054(12)
H7_13 H 0.4829 0.8127 0.3981
H8_17 H 0.5337 0.8828 0.4176
H9_13 H 0.5023 0.8124 0.4388
C15_17 C 0.4055(3) 0.8100(5) 0.46655(12)
H11_17 H 0.4211 0.7774 0.4711
H12_17 H 0.4213 0.8440 0.4855
H13_17 H 0.3555 0.7856 0.4656
O3_18 O 0.01473(8) 0.26118(5) 0.33298(3)
O4_18 O 0.03327(8) 0.32599(5) 0.38268(3)
H1_18 H 0.2123 0.4385 0.3269
O7_18 O 0.13820(14) 0.48751(10) 0.41464(4)
N4_18 N 0.1548(3) 0.5887(2) 0.43142(11)
C12_18 C 0.1474(3) 0.5433(2) 0.40562(10)
H6_18 H 0.1495 0.5548 0.3813
C13_18 C 0.1624(4) 0.6556(3) 0.42054(12)
H7_14 H 0.1873 0.6701 0.3981
H8_18 H 0.1172 0.6508 0.4176
H9_14 H 0.1876 0.6898 0.4388
C15_18 C 0.1900(5) 0.5954(4) 0.46655(12)
H11_18 H 0.2226 0.6436 0.4711
H12_18 H 0.1560 0.5772 0.4855
H13_18 H 0.2144 0.5698 0.4656
O5_18 O 0.94386(10) 0.25435(6) 0.48804(4)
N2_18 N 0.83701(9) 0.17271(6) 0.46807(3)
C1_18 C 0.77910(14) 0.03874(8) 0.35546(4)
C2_18 C 0.82679(14) 0.10444(8) 0.37604(4)
C3_18 C 0.81168(14) 0.11186(8) 0.41137(4)
H2_18 H 0.7710 0.0770 0.4219
C4_18 C 0.99910(11) 0.27302(8) 0.36399(4)
C5_18 C 0.93149(11) 0.21642(7) 0.37961(4)
C6_18 C 0.88750(11) 0.15705(7) 0.36037(4)
H3_18 H 0.8985 0.1521 0.3367
C7_18 C 0.91459(11) 0.22321(8) 0.41545(4)
H4_18 H 0.9432 0.2636 0.4283
C8_18 C 0.85608(11) 0.17036(8) 0.43153(4)
C9_18 C 0.88296(13) 0.21325(9) 0.49466(5)
C10_18 C 0.85471(15) 0.20270(12) 0.53107(4)
C11_18 C 0.78800(14) 0.16669(11) 0.54531(4)
H5_18 H 0.7475 0.1423 0.5317
C14_18 C 0.89709(15) 0.23081(12) 0.56143(4)
H10_18 H 0.9453 0.2588 0.5608
H14_18 H 0.786135 0.142474 0.474965
H7_15 H 0.0035 0.1495 0.2685
H9_15 H 0.0232 0.1689 0.2278
H7_16 H 0.1461 0.9965 0.2685
H9_16 H 0.1458 0.9768 0.2278
H7_17 H 0.9965 0.8505 0.7315
H9_17 H 0.9768 0.8311 0.7722
H7_18 H 0.8539 0.0035 0.7315
H9_18 H 0.8542 0.0232 0.7722
loop_
_geom_bond_atom_site_label_1
_geom_bond_atom_site_label_2
_geom_bond_site_symmetry_1
_geom_bond_site_symmetry_2
O6 Zn1 1_555 1_555
O7 Zn1 1_555 1_555
N4 C12 1_555 1_555
C12 O7 1_555 1_555
H6 C12 1_555 1_555
C13 N4 1_555 1_555
H7 C13 1_555 1_555
H8 C13 1_555 1_555
H9 C13 1_555 1_555
C15 N4 1_555 1_555
H11 C15 1_555 1_555
H12 C15 1_555 1_555
H13 C15 1_555 1_555
Zn6 O6 1_555 1_555
O9 Zn1 1_555 1_555
N6 Zn1 1_555 1_555
Zn2 O3 1_555 1_555
Zn3 O2 1_555 1_555
O10 Zn2 1_555 1_555
N5 Zn2 1_555 1_555
O1 C1 1_555 1_555
O4 C4 1_555 1_555
O5 C9 1_555 1_555
N1 N3 1_555 1_555
N2 C8 1_555 1_555
N3 C11 1_555 1_555
C1 C2 1_555 1_555
C2 C3 1_555 1_555
C3 H2 1_555 1_555
C4 C5 1_555 1_555
C5 C6 1_555 1_555
C6 C2 1_555 1_555
H3 C6 1_555 1_555
C7 C5 1_555 1_555
H4 C7 1_555 1_555
C8 C3 1_555 1_555
C9 N2 1_555 1_555
C10 C9 1_555 1_555
C11 C10 1_555 1_555
H5 C11 1_555 1_555
C14 N1 1_555 1_555
H10 C14 1_555 1_555
Zn4 N3 1_555 1_555
Zn5 N1 1_555 1_555
Zn7 O1 1_555 1_555
C7 C8 1_555 1_555
C10 C14 1_555 1_555
N2 H14 1_555 1_555
Zn2_2 O3_2 1_555 1_555
Zn3_2 O2_2 1_555 1_555
O8_2 Zn2_2 1_555 1_555
O10_2 Zn2_2 1_555 1_555
N5_2 Zn2_2 1_555 1_555
Zn1_2 O4_2 1_555 1_555
O1_2 C1_2 1_555 1_555
O4_2 C4_2 1_555 1_555
O5_2 C9_2 1_555 1_555
O6_2 Zn1_2 1_555 1_555
O7_2 Zn1_2 1_555 1_555
N1_2 N3_2 1_555 1_555
N2_2 C8_2 1_555 1_555
N3_2 C11_2 1_555 1_555
N4_2 C12_2 1_555 1_555
C1_2 C2_2 1_555 1_555
C2_2 C3_2 1_555 1_555
C3_2 H2_2 1_555 1_555
C4_2 C5_2 1_555 1_555
C5_2 C6_2 1_555 1_555
C6_2 C2_2 1_555 1_555
H3_2 C6_2 1_555 1_555
C7_2 C5_2 1_555 1_555
H4_2 C7_2 1_555 1_555
C8_2 C3_2 1_555 1_555
C9_2 N2_2 1_555 1_555
C10_2 C9_2 1_555 1_555
C11_2 C10_2 1_555 1_555
H5_2 C11_2 1_555 1_555
C12_2 O7_2 1_555 1_555
H6_2 C12_2 1_555 1_555
C13_2 N4_2 1_555 1_555
H7_2 C13_2 1_555 1_555
H8_2 C13_2 1_555 1_555
H9_2 C13_2 1_555 1_555
C14_2 N1_2 1_555 1_555
H10_2 C14_2 1_555 1_555
C15_2 N4_2 1_555 1_555
H11_2 C15_2 1_555 1_555
H12_2 C15_2 1_555 1_555
H13_2 C15_2 1_555 1_555
Zn4_2 N3_2 1_555 1_555
Zn5_2 N1_2 1_555 1_555
Zn7 O6_2 1_555 1_555
O9_2 Zn1_2 1_555 1_555
N6_2 Zn1_2 1_555 1_555
C7_2 C8_2 1_555 1_555
C10_2 C14_2 1_555 1_555
N2_2 H14_2 1_555 1_555
Zn2_3 O3_3 1_555 1_555
Zn3_3 O2_3 1_555 1_555
O10_3 Zn2_3 1_555 1_555
N5_3 Zn2_3 1_555 1_555
O1_3 C1_3 1_555 1_555
O4_3 C4_3 1_555 1_555
O5_3 C9_3 1_555 1_555
N1_3 N3_3 1_555 1_555
N2_3 C8_3 1_555 1_555
N3_3 C11_3 1_555 1_555
C1_3 C2_3 1_555 1_555
C2_3 C3_3 1_555 1_555
C3_3 H2_3 1_555 1_555
C4_3 C5_3 1_555 1_555
C5_3 C6_3 1_555 1_555
C6_3 C2_3 1_555 1_555
H3_3 C6_3 1_555 1_555
C7_3 C5_3 1_555 1_555
H4_3 C7_3 1_555 1_555
C8_3 C3_3 1_555 1_555
C9_3 N2_3 1_555 1_555
C10_3 C9_3 1_555 1_555
C11_3 C10_3 1_555 1_555
H5_3 C11_3 1_555 1_555
C14_3 N1_3 1_555 1_555
H10_3 C14_3 1_555 1_555
Zn4_3 N3_3 1_555 1_555
Zn5_3 N1_3 1_555 1_555
C7_3 C8_3 1_555 1_555
C10_3 C14_3 1_555 1_555
N2_3 H14_3 1_555 1_555
O6_3 Zn1_3 1_555 1_555
O7_3 Zn1_3 1_555 1_555
N4_3 C12_3 1_555 1_555
C12_3 O7_3 1_555 1_555
H6_3 C12_3 1_555 1_555
C13_3 N4_3 1_555 1_555
H7_3 C13_3 1_555 1_555
H8_3 C13_3 1_555 1_555
H9_3 C13_3 1_555 1_555
C15_3 N4_3 1_555 1_555
H11_3 C15_3 1_555 1_555
H12_3 C15_3 1_555 1_555
H13_3 C15_3 1_555 1_555
Zn7_2 O6_3 1_555 1_555
O9_3 Zn1_3 1_555 1_555
N6_3 Zn1_3 1_555 1_555
N5_3 N3_4 1_555 1_555
N3_4 C11_4 1_555 1_555
N4_4 C12_4 1_555 1_555
C11_4 C10_4 1_555 1_555
H5_4 C11_4 1_555 1_555
C12_4 O7_4 1_555 1_555
H6_4 C12_4 1_555 1_555
C13_4 N4_4 1_555 1_555
H8_4 C13_4 1_555 1_555
C14_4 N5_3 1_555 1_555
C15_4 N4_4 1_555 1_555
H11_4 C15_4 1_555 1_555
H12_4 C15_4 1_555 1_555
H13_4 C15_4 1_555 1_555
Zn3_2 N3_4 1_555 1_555
C10_4 C14_4 1_555 1_555
N2_4 H14_4 1_555 1_555
Zn1_4 O4_4 1_555 1_555
Zn2_4 O3_4 1_555 1_555
O1_4 C1_4 1_555 1_555
O2_4 C1_4 1_555 1_555
O3_4 C4_4 1_555 1_555
O4_4 C4_4 1_555 1_555
O5_4 C9_4 1_555 1_555
O6_4 Zn1_4 1_555 1_555
H1_4 O6_4 1_555 1_555
C1_4 C2_4 1_555 1_555
C2_4 C3_4 1_555 1_555
C3_4 H2_4 1_555 1_555
C4_4 C5_4 1_555 1_555
C5_4 C6_4 1_555 1_555
C6_4 C2_4 1_555 1_555
H3_4 C6_4 1_555 1_555
C7_4 C5_4 1_555 1_555
H4_4 C7_4 1_555 1_555
C8_4 C3_4 1_555 1_555
Zn3_4 O2_4 1_555 1_555
Zn6_2 O6_4 1_555 1_555
Zn7_3 O1_4 1_555 1_555
O8_4 Zn2_4 1_555 1_555
O10_4 Zn2_4 1_555 1_555
N5_4 Zn2_4 1_555 1_555
N6_4 Zn1_4 1_555 1_555
Zn2_4 O6_4 1_555 1_555
C7_4 C8_4 1_555 1_555
Zn6_2 O10_4 1_555 1_555
Zn1_5 O4_5 1_555 1_555
Zn2_5 O3_5 1_555 1_555
O1_5 C1_5 1_555 1_555
O2_5 C1_5 1_555 1_555
O3_5 C4_5 1_555 1_555
O4_5 C4_5 1_555 1_555
O5_5 C9_5 1_555 1_555
O6_5 Zn1_5 1_555 1_555
H1_5 O6_5 1_555 1_555
C1_5 C2_5 1_555 1_555
C2_5 C3_5 1_555 1_555
C3_5 H2_5 1_555 1_555
C4_5 C5_5 1_555 1_555
C5_5 C6_5 1_555 1_555
C6_5 C2_5 1_555 1_555
H3_5 C6_5 1_555 1_555
C7_5 C5_5 1_555 1_555
H4_5 C7_5 1_555 1_555
C8_5 C3_5 1_555 1_555
Zn3_5 O2_5 1_555 1_555
Zn7_3 O6_5 1_555 1_555
Zn7_4 O1_5 1_555 1_555
O8_5 Zn2_5 1_555 1_555
O10_5 Zn2_5 1_555 1_555
N5_5 Zn2_5 1_555 1_555
N6_5 Zn1_5 1_555 1_555
Zn2_5 O6_5 1_555 1_555
C7_5 C8_5 1_555 1_555
Zn7_3 O10_5 1_555 1_555
N5 N3_5 1_555 1_555
N3_5 C11_5 1_555 1_555
N4_5 C12_5 1_555 1_555
C11_5 C10_5 1_555 1_555
H5_5 C11_5 1_555 1_555
C12_5 O7_5 1_555 1_555
H6_5 C12_5 1_555 1_555
C13_5 N4_5 1_555 1_555
H7_4 C13_5 1_555 1_555
H8_5 C13_5 1_555 1_555
H9_4 C13_5 1_555 1_555
C14_5 N5 1_555 1_555
C15_5 N4_5 1_555 1_555
H11_5 C15_5 1_555 1_555
H12_5 C15_5 1_555 1_555
H13_5 C15_5 1_555 1_555
Zn3_3 N3_5 1_555 1_555
C10_5 C14_5 1_555 1_555
N2_5 H14_5 1_555 1_555
Zn1_6 O4_6 1_555 1_555
Zn2_6 O3_6 1_555 1_555
O1_6 C1_6 1_555 1_555
O2_6 C1_6 1_555 1_555
O3_6 C4_6 1_555 1_555
O4_6 C4_6 1_555 1_555
O5_6 C9_6 1_555 1_555
O6_6 Zn1_6 1_555 1_555
H1_6 O6_6 1_555 1_555
O7_6 Zn1_6 1_555 1_555
N5_2 N3_6 1_555 1_555
N2_6 C8_6 1_555 1_555
N3_6 C11_6 1_555 1_555
N4_6 C12_6 1_555 1_555
C1_6 C2_6 1_555 1_555
C2_6 C3_6 1_555 1_555
C3_6 H2_6 1_555 1_555
C4_6 C5_6 1_555 1_555
C5_6 C6_6 1_555 1_555
C6_6 C2_6 1_555 1_555
H3_6 C6_6 1_555 1_555
C7_6 C5_6 1_555 1_555
H4_6 C7_6 1_555 1_555
C8_6 C3_6 1_555 1_555
C9_6 N2_6 1_555 1_555
C10_6 C9_6 1_555 1_555
C11_6 C10_6 1_555 1_555
H5_6 C11_6 1_555 1_555
C12_6 O7_6 1_555 1_555
H6_6 C12_6 1_555 1_555
C13_6 N4_6 1_555 1_555
H8_6 C13_6 1_555 1_555
C14_6 N5_2 1_555 1_555
H10_6 C14_6 1_555 1_555
C15_6 N4_6 1_555 1_555
H11_6 C15_6 1_555 1_555
H12_6 C15_6 1_555 1_555
H13_6 C15_6 1_555 1_555
Zn3_6 O2_6 1_555 1_555
Zn3 N3_6 1_555 1_555
Zn7_4 O6_6 1_555 1_555
Zn6_2 O1_6 1_555 1_555
O8_6 Zn2_6 1_555 1_555
O9_6 Zn1_6 1_555 1_555
O10_6 Zn2_6 1_555 1_555
N5_6 Zn2_6 1_555 1_555
N6_6 Zn1_6 1_555 1_555
Zn2_6 O6_6 1_555 1_555
C7_6 C8_6 1_555 1_555
C10_6 C14_6 1_555 1_555
Zn7_4 O10_6 1_555 1_555
N2_6 H14_6 1_555 1_555
Zn1_7 O4_7 1_555 1_555
Zn5_2 O3_7 1_555 1_555
O2_7 C1_7 1_555 1_555
O3_7 C4_7 1_555 1_555
O4_7 C4_7 1_555 1_555
O5_7 C9_7 1_555 1_555
O6_7 Zn1_7 1_555 1_555
H1_7 O6_7 1_555 1_555
O7_7 Zn1_7 1_555 1_555
N5_6 N3_7 1_555 1_555
N2_7 C8_7 1_555 1_555
N3_7 C11_7 1_555 1_555
N4_7 C12_7 1_555 1_555
C1_7 C2_7 1_555 1_555
C2_7 C3_7 1_555 1_555
C3_7 H2_7 1_555 1_555
C4_7 C5_7 1_555 1_555
C5_7 C6_7 1_555 1_555
C6_7 C2_7 1_555 1_555
H3_7 C6_7 1_555 1_555
C7_7 C5_7 1_555 1_555
H4_7 C7_7 1_555 1_555
C8_7 C3_7 1_555 1_555
C9_7 N2_7 1_555 1_555
C10_7 C9_7 1_555 1_555
C11_7 C10_7 1_555 1_555
H5_7 C11_7 1_555 1_555
C12_7 O7_7 1_555 1_555
H6_7 C12_7 1_555 1_555
C13_7 N4_7 1_555 1_555
H7_5 C13_7 1_555 1_555
H8_7 C13_7 1_555 1_555
H9_5 C13_7 1_555 1_555
C14_7 N5_6 1_555 1_555
H10_7 C14_7 1_555 1_555
C15_7 N4_7 1_555 1_555
H11_7 C15_7 1_555 1_555
H12_7 C15_7 1_555 1_555
H13_7 C15_7 1_555 1_555
Zn3_5 N3_7 1_555 1_555
Zn6_3 O6_7 1_555 1_555
O8_7 Zn5_2 1_555 1_555
O9_7 Zn1_7 1_555 1_555
O10_7 Zn5_2 1_555 1_555
N6_7 Zn1_7 1_555 1_555
Zn5_2 O6_7 1_555 1_555
C7_7 C8_7 1_555 1_555
C10_7 C14_7 1_555 1_555
Zn6_3 O10_7 1_555 1_555
N2_7 H14_7 1_555 1_555
Zn7_5 O1_7 1_555 1_555
Zn1_8 O4_8 1_555 1_555
Zn5_3 O3_8 1_555 1_555
O6_8 Zn1_8 1_555 1_555
H1_8 O6_8 1_555 1_555
O7_8 Zn1_8 1_555 1_555
N4_8 C12_8 1_555 1_555
C12_8 O7_8 1_555 1_555
H6_8 C12_8 1_555 1_555
C13_8 N4_8 1_555 1_555
H7_6 C13_8 1_555 1_555
H8_8 C13_8 1_555 1_555
H9_6 C13_8 1_555 1_555
C15_8 N4_8 1_555 1_555
H11_8 C15_8 1_555 1_555
H12_8 C15_8 1_555 1_555
H13_8 C15_8 1_555 1_555
Zn7_5 O6_8 1_555 1_555
O8_8 Zn5_3 1_555 1_555
O9_8 Zn1_8 1_555 1_555
O10_8 Zn5_3 1_555 1_555
N6_8 Zn1_8 1_555 1_555
Zn5_3 O6_8 1_555 1_555
Zn7_5 O10_8 1_555 1_555
O1_8 C1_8 1_555 1_555
O2_8 C1_8 1_555 1_555
O5_8 C9_8 1_555 1_555
N5_4 N3_8 1_555 1_555
N2_8 C8_8 1_555 1_555
N3_8 C11_8 1_555 1_555
C1_8 C2_8 1_555 1_555
C2_8 C3_8 1_555 1_555
C3_8 H2_8 1_555 1_555
C4_8 C5_8 1_555 1_555
C5_8 C6_8 1_555 1_555
C6_8 C2_8 1_555 1_555
H3_8 C6_8 1_555 1_555
C7_8 C5_8 1_555 1_555
H4_8 C7_8 1_555 1_555
C8_8 C3_8 1_555 1_555
C9_8 N2_8 1_555 1_555
C10_8 C9_8 1_555 1_555
C11_8 C10_8 1_555 1_555
H5_8 C11_8 1_555 1_555
C14_8 N5_4 1_555 1_555
H10_8 C14_8 1_555 1_555
Zn4 O2_8 1_555 1_555
Zn3_6 N3_8 1_555 1_555
Zn7_6 O1_8 1_555 1_555
C7_8 C8_8 1_555 1_555
C10_8 C14_8 1_555 1_555
N2_8 H14_8 1_555 1_555
Zn6_3 O1_9 1_555 1_555
O2_9 C1_9 1_555 1_555
O5_9 C9_9 1_555 1_555
N5_5 N3_9 1_555 1_555
N2_9 C8_9 1_555 1_555
N3_9 C11_9 1_555 1_555
C1_9 C2_9 1_555 1_555
C2_9 C3_9 1_555 1_555
C3_9 H2_9 1_555 1_555
C4_9 C5_9 1_555 1_555
C5_9 C6_9 1_555 1_555
C6_9 C2_9 1_555 1_555
H3_9 C6_9 1_555 1_555
C7_9 C5_9 1_555 1_555
H4_9 C7_9 1_555 1_555
C8_9 C3_9 1_555 1_555
C9_9 N2_9 1_555 1_555
C10_9 C9_9 1_555 1_555
C11_9 C10_9 1_555 1_555
H5_9 C11_9 1_555 1_555
C14_9 N5_5 1_555 1_555
H10_9 C14_9 1_555 1_555
Zn3_4 N3_9 1_555 1_555
C7_9 C8_9 1_555 1_555
C10_9 C14_9 1_555 1_555
N2_9 H14_9 1_555 1_555
Zn1_9 O4_9 1_555 1_555
Zn5 O3_9 1_555 1_555
O6_9 Zn1_9 1_555 1_555
H1_9 O6_9 1_555 1_555
O7_9 Zn1_9 1_555 1_555
N4_9 C12_9 1_555 1_555
C12_9 O7_9 1_555 1_555
H6_9 C12_9 1_555 1_555
C13_9 N4_9 1_555 1_555
H7_7 C13_9 1_555 1_555
H8_9 C13_9 1_555 1_555
H9_7 C13_9 1_555 1_555
C15_9 N4_9 1_555 1_555
H11_9 C15_9 1_555 1_555
H12_9 C15_9 1_555 1_555
H13_9 C15_9 1_555 1_555
Zn7_6 O6_9 1_555 1_555
O8_9 Zn5 1_555 1_555
O9_9 Zn1_9 1_555 1_555
O10_9 Zn5 1_555 1_555
N6_9 Zn1_9 1_555 1_555
Zn5 O6_9 1_555 1_555
Zn7_6 O10_9 1_555 1_555
O8_2 C1_10 1_555 1_555
O4_10 C4_10 1_555 1_555
O5_10 C9_10 1_555 1_555
N1_4 N6_6 1_555 1_555
N2_10 C8_10 1_555 1_555
N6_6 C11_10 1_555 1_555
C1_10 C2_10 1_555 1_555
C2_10 C3_10 1_555 1_555
C3_10 H2_10 1_555 1_555
C4_10 C5_10 1_555 1_555
C5_10 C6_10 1_555 1_555
C6_10 C2_10 1_555 1_555
H3_10 C6_10 1_555 1_555
C7_10 C5_10 1_555 1_555
H4_10 C7_10 1_555 1_555
C8_10 C3_10 1_555 1_555
C9_10 N2_10 1_555 1_555
C10_10 C9_10 1_555 1_555
C11_10 C10_10 1_555 1_555
H5_10 C11_10 1_555 1_555
C14_10 N1_4 1_555 1_555
H10_10 C14_10 1_555 1_555
Zn7_4 N1_4 1_555 1_555
C7_10 C8_10 1_555 1_555
C10_10 C14_10 1_555 1_555
N2_10 H14_10 1_555 1_555
Zn6 O3_10 1_555 1_555
N5_7 Zn6 1_555 1_555
O10 Zn3_3 1_555 1_555
O7_10 Zn3_3 1_555 1_555
N4_10 C12_10 1_555 1_555
C12_10 O7_10 1_555 1_555
H6_10 C12_10 1_555 1_555
C13_10 N4_10 1_555 1_555
H7_8 C13_10 1_555 1_555
H8_10 C13_10 1_555 1_555
H9_8 C13_10 1_555 1_555
C15_10 N4_10 1_555 1_555
H11_10 C15_10 1_555 1_555
H12_10 C15_10 1_555 1_555
H13_10 C15_10 1_555 1_555
Zn3 O4_11 1_555 1_555
O8_3 C1_11 1_555 1_555
O4_11 C4_11 1_555 1_555
O5_11 C9_11 1_555 1_555
O10_2 Zn3 1_555 1_555
O7_11 Zn3 1_555 1_555
N1_5 N6_4 1_555 1_555
N2_11 C8_11 1_555 1_555
N6_4 C11_11 1_555 1_555
N4_11 C12_11 1_555 1_555
C1_11 C2_11 1_555 1_555
C2_11 C3_11 1_555 1_555
C3_11 H2_11 1_555 1_555
C4_11 C5_11 1_555 1_555
C5_11 C6_11 1_555 1_555
C6_11 C2_11 1_555 1_555
H3_11 C6_11 1_555 1_555
C7_11 C5_11 1_555 1_555
H4_11 C7_11 1_555 1_555
C8_11 C3_11 1_555 1_555
C9_11 N2_11 1_555 1_555
C10_11 C9_11 1_555 1_555
C11_11 C10_11 1_555 1_555
H5_11 C11_11 1_555 1_555
C12_11 O7_11 1_555 1_555
H6_11 C12_11 1_555 1_555
C13_11 N4_11 1_555 1_555
H7_9 C13_11 1_555 1_555
H8_11 C13_11 1_555 1_555
H9_9 C13_11 1_555 1_555
C14_11 N1_5 1_555 1_555
H10_11 C14_11 1_555 1_555
C15_11 N4_11 1_555 1_555
H11_11 C15_11 1_555 1_555
H12_11 C15_11 1_555 1_555
H13_11 C15_11 1_555 1_555
Zn6_2 N1_5 1_555 1_555
C7_11 C8_11 1_555 1_555
C10_11 C14_11 1_555 1_555
N2_11 H14_11 1_555 1_555
Zn7 O3_11 1_555 1_555
N5_8 Zn7 1_555 1_555
O10_3 Zn3_2 1_555 1_555
O7_12 Zn3_2 1_555 1_555
N4_12 C12_12 1_555 1_555
C12_12 O7_12 1_555 1_555
H6_12 C12_12 1_555 1_555
C13_12 N4_12 1_555 1_555
H7_10 C13_12 1_555 1_555
H8_12 C13_12 1_555 1_555
H9_10 C13_12 1_555 1_555
C15_12 N4_12 1_555 1_555
H11_12 C15_12 1_555 1_555
H12_12 C15_12 1_555 1_555
H13_12 C15_12 1_555 1_555
O8 C1_12 1_555 1_555
O4_12 C4_12 1_555 1_555
O5_12 C9_12 1_555 1_555
N1_6 N6_5 1_555 1_555
N2_12 C8_12 1_555 1_555
N6_5 C11_12 1_555 1_555
C1_12 C2_12 1_555 1_555
C2_12 C3_12 1_555 1_555
C3_12 H2_12 1_555 1_555
C4_12 C5_12 1_555 1_555
C5_12 C6_12 1_555 1_555
C6_12 C2_12 1_555 1_555
H3_12 C6_12 1_555 1_555
C7_12 C5_12 1_555 1_555
H4_12 C7_12 1_555 1_555
C8_12 C3_12 1_555 1_555
C9_12 N2_12 1_555 1_555
C10_12 C9_12 1_555 1_555
C11_12 C10_12 1_555 1_555
H5_12 C11_12 1_555 1_555
C14_12 N1_6 1_555 1_555
H10_12 C14_12 1_555 1_555
Zn7_3 N1_6 1_555 1_555
C7_12 C8_12 1_555 1_555
C10_12 C14_12 1_555 1_555
N2_12 H14_12 1_555 1_555
Zn7_2 O3_12 1_555 1_555
N5_9 Zn7_2 1_555 1_555
Zn4_2 O4_13 1_555 1_555
Zn6_3 O3_13 1_555 1_555
O8_8 C1_13 1_555 1_555
O9_8 C1_13 1_555 1_555
O3_13 C4_13 1_555 1_555
O4_13 C4_13 1_555 1_555
O5_13 C9_13 1_555 1_555
O10_7 Zn4_2 1_555 1_555
H1_13 O10_7 1_555 1_555
C1_13 C2_13 1_555 1_555
C2_13 C3_13 1_555 1_555
C3_13 H2_13 1_555 1_555
C4_13 C5_13 1_555 1_555
C5_13 C6_13 1_555 1_555
C6_13 C2_13 1_555 1_555
H3_13 C6_13 1_555 1_555
C7_13 C5_13 1_555 1_555
H4_13 C7_13 1_555 1_555
C8_13 C3_13 1_555 1_555
N5_10 Zn6_3 1_555 1_555
C7_13 C8_13 1_555 1_555
N5_9 N6_3 1_555 1_555
N6_3 C11_13 1_555 1_555
N4_13 C12_13 1_555 1_555
C11_13 C10_13 1_555 1_555
H5_13 C11_13 1_555 1_555
C12_13 O7_13 1_555 1_555
H6_13 C12_13 1_555 1_555
C13_13 N4_13 1_555 1_555
H8_13 C13_13 1_555 1_555
C14_13 N5_9 1_555 1_555
C15_13 N4_13 1_555 1_555
H11_13 C15_13 1_555 1_555
H12_13 C15_13 1_555 1_555
H13_13 C15_13 1_555 1_555
C10_13 C14_13 1_555 1_555
N2_13 H14_13 1_555 1_555
N5_7 N6 1_555 1_555
N6 C11_14 1_555 1_555
N4_14 C12_14 1_555 1_555
C11_14 C10_14 1_555 1_555
H5_14 C11_14 1_555 1_555
C12_14 O7_14 1_555 1_555
H6_14 C12_14 1_555 1_555
C13_14 N4_14 1_555 1_555
H7_11 C13_14 1_555 1_555
H8_14 C13_14 1_555 1_555
H9_11 C13_14 1_555 1_555
C14_14 N5_7 1_555 1_555
C15_14 N4_14 1_555 1_555
H11_14 C15_14 1_555 1_555
H12_14 C15_14 1_555 1_555
H13_14 C15_14 1_555 1_555
C10_14 C14_14 1_555 1_555
N2_14 H14_14 1_555 1_555
Zn4_3 O4_14 1_555 1_555
Zn7_5 O3_14 1_555 1_555
O8_9 C1_14 1_555 1_555
O9_9 C1_14 1_555 1_555
O3_14 C4_14 1_555 1_555
O4_14 C4_14 1_555 1_555
O5_14 C9_14 1_555 1_555
O10_8 Zn4_3 1_555 1_555
H1_14 O10_8 1_555 1_555
C1_14 C2_14 1_555 1_555
C2_14 C3_14 1_555 1_555
C3_14 H2_14 1_555 1_555
C4_14 C5_14 1_555 1_555
C5_14 C6_14 1_555 1_555
C6_14 C2_14 1_555 1_555
H3_14 C6_14 1_555 1_555
C7_14 C5_14 1_555 1_555
H4_14 C7_14 1_555 1_555
C8_14 C3_14 1_555 1_555
N5_11 Zn7_5 1_555 1_555
C7_14 C8_14 1_555 1_555
Zn4 O4_15 1_555 1_555
Zn7_6 O3_15 1_555 1_555
O8_7 C1_15 1_555 1_555
O9_7 C1_15 1_555 1_555
O3_15 C4_15 1_555 1_555
O4_15 C4_15 1_555 1_555
O5_15 C9_15 1_555 1_555
O10_9 Zn4 1_555 1_555
H1_15 O10_9 1_555 1_555
O7_15 Zn4 1_555 1_555
N5_8 N6_2 1_555 1_555
N2_15 C8_15 1_555 1_555
N6_2 C11_15 1_555 1_555
N4_15 C12_15 1_555 1_555
C1_15 C2_15 1_555 1_555
C2_15 C3_15 1_555 1_555
C3_15 H2_15 1_555 1_555
C4_15 C5_15 1_555 1_555
C5_15 C6_15 1_555 1_555
C6_15 C2_15 1_555 1_555
H3_15 C6_15 1_555 1_555
C7_15 C5_15 1_555 1_555
H4_15 C7_15 1_555 1_555
C8_15 C3_15 1_555 1_555
C9_15 N2_15 1_555 1_555
C10_15 C9_15 1_555 1_555
C11_15 C10_15 1_555 1_555
H5_15 C11_15 1_555 1_555
C12_15 O7_15 1_555 1_555
H6_15 C12_15 1_555 1_555
C13_15 N4_15 1_555 1_555
H8_15 C13_15 1_555 1_555
C14_15 N5_8 1_555 1_555
H10_15 C14_15 1_555 1_555
C15_15 N4_15 1_555 1_555
H11_15 C15_15 1_555 1_555
H12_15 C15_15 1_555 1_555
H13_15 C15_15 1_555 1_555
N5_12 Zn7_6 1_555 1_555
C7_15 C8_15 1_555 1_555
C10_15 C14_15 1_555 1_555
N2_15 H14_15 1_555 1_555
Zn3_6 O4_16 1_555 1_555
Zn6_2 O3_16 1_555 1_555
O9_5 C1_16 1_555 1_555
O3_16 C4_16 1_555 1_555
O4_16 C4_16 1_555 1_555
O5_16 C9_16 1_555 1_555
O10_4 Zn3_6 1_555 1_555
H1_16 O10_4 1_555 1_555
O7_16 Zn3_6 1_555 1_555
N5_12 N6_9 1_555 1_555
N2_16 C8_16 1_555 1_555
N6_9 C11_16 1_555 1_555
N4_16 C12_16 1_555 1_555
C1_16 C2_16 1_555 1_555
C2_16 C3_16 1_555 1_555
C3_16 H2_16 1_555 1_555
C4_16 C5_16 1_555 1_555
C5_16 C6_16 1_555 1_555
C6_16 C2_16 1_555 1_555
H3_16 C6_16 1_555 1_555
C7_16 C5_16 1_555 1_555
H4_16 C7_16 1_555 1_555
C8_16 C3_16 1_555 1_555
C9_16 N2_16 1_555 1_555
C10_16 C9_16 1_555 1_555
C11_16 C10_16 1_555 1_555
H5_16 C11_16 1_555 1_555
C12_16 O7_16 1_555 1_555
H6_16 C12_16 1_555 1_555
C13_16 N4_16 1_555 1_555
H7_12 C13_16 1_555 1_555
H8_16 C13_16 1_555 1_555
H9_12 C13_16 1_555 1_555
C14_16 N5_12 1_555 1_555
H10_16 C14_16 1_555 1_555
C15_16 N4_16 1_555 1_555
H11_16 C15_16 1_555 1_555
H12_16 C15_16 1_555 1_555
H13_16 C15_16 1_555 1_555
C7_16 C8_16 1_555 1_555
C10_16 C14_16 1_555 1_555
N2_16 H14_16 1_555 1_555
O8_6 C1_17 1_555 1_555
O9_6 C1_17 1_555 1_555
O5_17 C9_17 1_555 1_555
N5_10 N6_7 1_555 1_555
N2_17 C8_17 1_555 1_555
N6_7 C11_17 1_555 1_555
C1_17 C2_17 1_555 1_555
C2_17 C3_17 1_555 1_555
C3_17 H2_17 1_555 1_555
C4_17 C5_17 1_555 1_555
C5_17 C6_17 1_555 1_555
C6_17 C2_17 1_555 1_555
H3_17 C6_17 1_555 1_555
C7_17 C5_17 1_555 1_555
H4_17 C7_17 1_555 1_555
C8_17 C3_17 1_555 1_555
C9_17 N2_17 1_555 1_555
C10_17 C9_17 1_555 1_555
C11_17 C10_17 1_555 1_555
H5_17 C11_17 1_555 1_555
C14_17 N5_10 1_555 1_555
H10_17 C14_17 1_555 1_555
C7_17 C8_17 1_555 1_555
C10_17 C14_17 1_555 1_555
N2_17 H14_17 1_555 1_555
Zn3_4 O4_17 1_555 1_555
Zn7_3 O3_17 1_555 1_555
O10_5 Zn3_4 1_555 1_555
H1_17 O10_5 1_555 1_555
O7_17 Zn3_4 1_555 1_555
N4_17 C12_17 1_555 1_555
C12_17 O7_17 1_555 1_555
H6_17 C12_17 1_555 1_555
C13_17 N4_17 1_555 1_555
H7_13 C13_17 1_555 1_555
H8_17 C13_17 1_555 1_555
H9_13 C13_17 1_555 1_555
C15_17 N4_17 1_555 1_555
H11_17 C15_17 1_555 1_555
H12_17 C15_17 1_555 1_555
H13_17 C15_17 1_555 1_555
Zn3_5 O4_18 1_555 1_555
Zn7_4 O3_18 1_555 1_555
O10_6 Zn3_5 1_555 1_555
H1_18 O10_6 1_555 1_555
O7_18 Zn3_5 1_555 1_555
N4_18 C12_18 1_555 1_555
C12_18 O7_18 1_555 1_555
H6_18 C12_18 1_555 1_555
C13_18 N4_18 1_555 1_555
H7_14 C13_18 1_555 1_555
H8_18 C13_18 1_555 1_555
H9_14 C13_18 1_555 1_555
C15_18 N4_18 1_555 1_555
H11_18 C15_18 1_555 1_555
H12_18 C15_18 1_555 1_555
H13_18 C15_18 1_555 1_555
O9_4 C1_18 1_555 1_555
O5_18 C9_18 1_555 1_555
N5_11 N6_8 1_555 1_555
N2_18 C8_18 1_555 1_555
N6_8 C11_18 1_555 1_555
C1_18 C2_18 1_555 1_555
C2_18 C3_18 1_555 1_555
C3_18 H2_18 1_555 1_555
C4_18 C5_18 1_555 1_555
C5_18 C6_18 1_555 1_555
C6_18 C2_18 1_555 1_555
H3_18 C6_18 1_555 1_555
C7_18 C5_18 1_555 1_555
H4_18 C7_18 1_555 1_555
C8_18 C3_18 1_555 1_555
C9_18 N2_18 1_555 1_555
C10_18 C9_18 1_555 1_555
C11_18 C10_18 1_555 1_555
H5_18 C11_18 1_555 1_555
C14_18 N5_11 1_555 1_555
H10_18 C14_18 1_555 1_555
C7_18 C8_18 1_555 1_555
C10_18 C14_18 1_555 1_555
N2_18 H14_18 1_555 1_555

#END
