
###############################################################################
#
# This file contains modified crystal structure data generated from the
# MOF subset of the Cambridge Structural Database (CSD) v543 
# hosted by the Cambridge Crystallographic Data Centre (CCDC).
#
# This work is licensed under the Creative Commons
# Attribution-NonCommercial-ShareAlike 4.0 International License.
# To view a copy of this license, visit
# http://creativecommons.org/licenses/by-nc-sa/4.0/
# or send a letter to
# Creative Commons, PO Box 1866, Mountain View, CA 94042, USA.
#
# CIF created using the CSD Python API on 29 September 2022
# The structure has been converted into the P1 space group
# The structure has a 3D framework
# The original CSD entry WARFAZ is in the tetragonal crystal system
# The original CSD entry WARFAZ is in a Sohncke space group
# The framework has been calculated to contain at least 10.0% void space
# The void calculation uses a probe of radius 1.32A, grid spacing 0.4
#
###############################################################################

data_WARFAZ
_chemical_formula_moiety         '(C240 H176 Cd8 N32 O72)n'
_symmetry_cell_setting           triclinic
_symmetry_space_group_name_H-M   'P 1'
_symmetry_Int_Tables_number      1
_space_group_name_Hall           'P 1'
loop_
_symmetry_equiv_pos_site_id
_symmetry_equiv_pos_as_xyz
1 x,y,z
_cell_length_a                   21.838(3)
_cell_length_b                   21.838(3)
_cell_length_c                   14.721(3)
_cell_angle_alpha                90
_cell_angle_beta                 90
_cell_angle_gamma                90
_cell_volume                     7020.42
loop_
_atom_site_label
_atom_site_type_symbol
_atom_site_fract_x
_atom_site_fract_y
_atom_site_fract_z
O4 O 0.34795(14) 0.06523(15) 0.6868(3)
O6 O 0.67128(14) 0.08661(14) 0.6975(2)
O7 O 0.72023(13) 0.02405(14) 0.8655(2)
O8 O 0.81353(13) 0.04251(14) 0.8134(2)
C3 C 0.2577(3) 0.0112(4) 0.8003(4)
H4 H 0.213268 0.005231 0.800932
H5 H 0.273687 0.007882 0.862327
H6 H 0.267260 0.051800 0.775826
C5 C 0.3808(2) 0.0230(2) 0.7069(3)
C6 C 0.4485(2) 0.02672(19) 0.7059(3)
C7 C 0.4770(2) 0.0826(2) 0.6952(3)
H7 H 0.453392 0.118900 0.689491
C8 C 0.5413(2) 0.08542(19) 0.6927(3)
H8 H 0.560885 0.123876 0.684701
C9 C 0.57617(19) 0.03359(19) 0.7018(3)
C17 C 0.6444(2) 0.0376(2) 0.7018(3)
C19 C 0.7763(2) 0.0101(3) 0.6311(4)
H13 H 0.818775 0.021248 0.644738
H14 H 0.754539 0.045987 0.607447
C20 C 0.75910(19) 0.02306(19) 0.8041(3)
Cd2 Cd 0.79510(2) 0.04931(2) 0.97919(2)
N5 N 0.19801(15) 0.05700(15) 0.4691(2)
Cd1 Cd 0.20490(2) 0.95069(2) 0.47919(2)
O1 O 0.29429(13) 0.95209(13) 0.57745(19)
O2 O 0.20261(14) 0.96005(16) 0.6403(2)
O3 O 0.36210(15) 0.86298(16) 0.7502(2)
O5 O 0.68269(14) 0.87960(14) 0.7239(3)
O9 O 0.10214(15) 0.93090(17) 0.4914(3)
H1 H 0.076376 0.933807 0.536936
H2 H 0.078965 0.946288 0.448716
N1 N 0.35526(16) 0.96702(18) 0.7350(3)
N2 N 0.67697(16) 0.98292(16) 0.7068(2)
N3 N 0.22710(17) 0.84918(16) 0.4565(3)
N4 N 0.30199(15) 0.55700(15) 0.2809(2)
C1 C 0.26030(19) 0.95854(19) 0.6453(3)
C2 C 0.2877(2) 0.9616(3) 0.7400(3)
H3 H 0.278883 0.921367 0.769601
C4 C 0.3880(2) 0.9115(2) 0.7377(3)
C10 C 0.54818(19) 0.97608(18) 0.7115(2)
C11 C 0.48357(19) 0.97260(18) 0.7159(3)
C12 C 0.4556(2) 0.91544(19) 0.7287(3)
C13 C 0.4907(2) 0.8630(2) 0.7350(3)
H9 H 0.471340 0.824425 0.743295
C14 C 0.5543(2) 0.86643(18) 0.7292(3)
H10 H 0.578064 0.830072 0.732754
C15 C 0.58298(19) 0.92219(18) 0.7184(3)
C16 C 0.6513(2) 0.9247(2) 0.7164(3)
C18 C 0.7453(2) 0.9881(2) 0.7166(3)
H11 H 0.760429 0.945419 0.726752
H12 H 0.775728 0.977416 0.585474
C21 C 0.1839(2) 0.8106(2) 0.4238(5)
H15 H 0.142475 0.823763 0.423155
C22 C 0.1977(2) 0.7533(2) 0.3915(4)
H16 H 0.165884 0.727574 0.369318
C23 C 0.2577(2) 0.7327(2) 0.3911(3)
C24 C 0.3014(2) 0.77248(19) 0.4283(3)
H17 H 0.343057 0.760055 0.432184
C25 C 0.2844(2) 0.82899(19) 0.4589(3)
H18 H 0.315113 0.855169 0.483019
C26 C 0.25073(19) 0.58699(18) 0.2570(3)
H19 H 0.223890 0.567989 0.214798
C27 C 0.23498(19) 0.64361(19) 0.2903(3)
H20 H 0.198221 0.663115 0.271540
C28 C 0.2746(2) 0.67212(19) 0.3530(3)
C29 C 0.32801(19) 0.6415(2) 0.3768(3)
H21 H 0.356033 0.659316 0.418464
C30 C 0.33991(19) 0.58471(19) 0.3392(3)
H22 H 0.376789 0.564423 0.355495
Cd3 Cd 0.29510(2) 0.45069(2) 0.27081(2)
O10 O 0.27977(13) 0.97595(14) 0.3655(2)
O11 O 0.18647(13) 0.95749(14) 0.3134(2)
O9_2 O 0.89786(15) 0.06910(17) 0.9914(3)
H2_2 H 0.921035 0.053712 0.948716
N3_2 N 0.77290(17) 0.15082(16) 0.9565(3)
N4_2 N 0.69801(15) 0.44300(15) 0.7809(2)
C21_2 C 0.8161(2) 0.1894(2) 0.9238(5)
H15_2 H 0.857525 0.176237 0.923155
C22_2 C 0.8023(2) 0.2467(2) 0.8915(4)
H16_2 H 0.834116 0.272426 0.869318
C23_2 C 0.7423(2) 0.2673(2) 0.8911(3)
C24_2 C 0.6986(2) 0.22752(19) 0.9283(3)
H17_2 H 0.656943 0.239945 0.932184
C25_2 C 0.7156(2) 0.17101(19) 0.9589(3)
H18_2 H 0.684887 0.144831 0.983019
C26_2 C 0.74927(19) 0.41301(18) 0.7570(3)
H19_2 H 0.776110 0.432011 0.714798
C27_2 C 0.76502(19) 0.35639(19) 0.7903(3)
H20_2 H 0.801779 0.336885 0.771540
C28_2 C 0.7254(2) 0.32788(19) 0.8530(3)
C29_2 C 0.67199(19) 0.3585(2) 0.8768(3)
H21_2 H 0.643967 0.340684 0.918464
C30_2 C 0.66009(19) 0.41529(19) 0.8392(3)
H22_2 H 0.623211 0.435577 0.855495
Cd3_2 Cd 0.70490(2) 0.54931(2) 0.77081(2)
O4_2 O 0.65205(14) 0.93477(15) 0.1868(3)
O6_2 O 0.32872(14) 0.91339(14) 0.1975(2)
C3_2 C 0.7423(3) 0.9888(4) 0.3003(4)
H4_2 H 0.786732 0.994769 0.300932
H5_2 H 0.726313 0.992118 0.362327
H6_2 H 0.732740 0.948200 0.275826
C5_2 C 0.6192(2) 0.9770(2) 0.2069(3)
C6_2 C 0.5515(2) 0.97328(19) 0.2059(3)
C7_2 C 0.5230(2) 0.9174(2) 0.1952(3)
H7_2 H 0.546608 0.881100 0.189491
C8_2 C 0.4587(2) 0.91458(19) 0.1927(3)
H8_2 H 0.439115 0.876124 0.184701
C9_2 C 0.42383(19) 0.96641(19) 0.2018(3)
C17_2 C 0.3556(2) 0.9624(2) 0.2018(3)
C19_2 C 0.2237(2) 0.9899(3) 0.1311(4)
H13_2 H 0.181225 0.978752 0.144738
H14_2 H 0.245461 0.954013 0.107447
C20_2 C 0.24090(19) 0.97694(19) 0.3041(3)
N5_2 N 0.80199(15) 0.94300(15) 0.9691(2)
O1_2 O 0.20571(13) 0.45209(13) 0.17255(19)
O2_2 O 0.29739(14) 0.46005(16) 0.1097(2)
O4_3 O 0.15205(14) 0.56523(15) 0.0632(3)
O9_3 O 0.39786(15) 0.43090(17) 0.2586(3)
H1_2 H 0.423624 0.433807 0.213064
H2_3 H 0.421035 0.446288 0.301284
N1_2 N 0.14474(16) 0.46702(18) 0.0150(3)
N3_3 N 0.27290(17) 0.34918(16) 0.2935(3)
C1_2 C 0.23970(19) 0.45854(19) 0.1047(3)
C2_2 C 0.2123(2) 0.4616(3) 0.0100(3)
C4_2 C 0.1120(2) 0.4115(2) 0.0123(3)
C5_3 C 0.1192(2) 0.5230(2) 0.0431(3)
C6_3 C 0.0515(2) 0.52672(19) 0.0441(3)
C7_3 C 0.0230(2) 0.5826(2) 0.0548(3)
H7_3 H 0.046608 0.618900 0.060509
C11_2 C 0.01643(19) 0.47260(18) 0.0341(3)
C12_2 C 0.0444(2) 0.41544(19) 0.0213(3)
C13_2 C 0.0093(2) 0.3630(2) 0.0150(3)
H9_2 H 0.028660 0.324425 0.006705
C21_3 C 0.3161(2) 0.3106(2) 0.3262(5)
H15_3 H 0.357525 0.323763 0.326845
C22_3 C 0.3023(2) 0.2533(2) 0.3585(4)
H16_3 H 0.334116 0.227574 0.380682
C23_3 C 0.2423(2) 0.2327(2) 0.3589(3)
C24_3 C 0.1986(2) 0.27248(19) 0.3217(3)
H17_3 H 0.156943 0.260055 0.317816
C25_3 C 0.2156(2) 0.32899(19) 0.2911(3)
H18_3 H 0.184887 0.355169 0.266981
C26_3 C 0.24927(19) 0.08699(18) 0.4930(3)
H19_3 H 0.276110 0.067989 0.535202
C27_3 C 0.26502(19) 0.14361(19) 0.4597(3)
H20_3 H 0.301779 0.163115 0.478460
C28_3 C 0.2254(2) 0.17212(19) 0.3970(3)
C29_3 C 0.17199(19) 0.1415(2) 0.3732(3)
H21_3 H 0.143967 0.159316 0.331536
C30_3 C 0.16009(19) 0.08471(19) 0.4108(3)
H22_3 H 0.123211 0.064423 0.394505
O10_2 O 0.22023(13) 0.47595(14) 0.3845(2)
O11_2 O 0.31353(13) 0.45749(14) 0.4366(2)
O7_2 O 0.77977(13) 0.52405(14) 0.8845(2)
O8_2 O 0.68647(13) 0.54251(14) 0.9366(2)
C20_3 C 0.74090(19) 0.52306(19) 0.9459(3)
O5_2 O 0.18269(14) 0.62040(14) 0.5261(3)
O6_3 O 0.17128(14) 0.41339(14) 0.5525(2)
N2_2 N 0.17697(16) 0.51708(16) 0.5432(2)
C8_3 C 0.0413(2) 0.41458(19) 0.5573(3)
H8_3 H 0.060885 0.376124 0.565299
C9_3 C 0.07617(19) 0.46641(19) 0.5482(3)
C10_2 C 0.04818(19) 0.52392(18) 0.5385(2)
C14_2 C 0.0543(2) 0.63357(18) 0.5208(3)
H10_2 H 0.078064 0.669928 0.517246
C15_2 C 0.08298(19) 0.57781(18) 0.5316(3)
C16_2 C 0.1513(2) 0.5753(2) 0.5336(3)
C17_3 C 0.1444(2) 0.4624(2) 0.5482(3)
C18_2 C 0.2453(2) 0.5119(2) 0.5334(3)
H11_2 H 0.260429 0.554581 0.523248
C19_3 C 0.2763(2) 0.4899(3) 0.6189(4)
H12_2 H 0.275728 0.522584 0.664526
H13_3 H 0.318775 0.478752 0.605262
H14_3 H 0.254539 0.454013 0.642553
C20_4 C 0.25910(19) 0.47694(19) 0.4459(3)
O1_3 O 0.79429(13) 0.54791(13) 0.67255(19)
O2_3 O 0.70261(14) 0.53995(16) 0.6097(2)
O3_2 O 0.86210(15) 0.63702(16) 0.4998(2)
O4_4 O 0.84795(14) 0.43477(15) 0.5632(3)
O9_4 O 0.60214(15) 0.56910(17) 0.7586(3)
H1_3 H 0.576376 0.566193 0.713064
H2_4 H 0.578965 0.553712 0.801284
N1_3 N 0.85526(16) 0.53298(18) 0.5150(3)
N3_4 N 0.72710(17) 0.65082(16) 0.7935(3)
C1_3 C 0.76030(19) 0.54146(19) 0.6047(3)
C2_3 C 0.7877(2) 0.5384(3) 0.5100(3)
H3_2 H 0.778883 0.578633 0.480399
C3_3 C 0.7577(3) 0.4888(4) 0.4497(4)
H4_3 H 0.713268 0.494769 0.449068
H5_3 H 0.773687 0.492118 0.387673
H6_3 H 0.767260 0.448200 0.474174
C4_3 C 0.8880(2) 0.5885(2) 0.5123(3)
C5_4 C 0.8808(2) 0.4770(2) 0.5431(3)
C6_4 C 0.9485(2) 0.47328(19) 0.5441(3)
C7_4 C 0.9770(2) 0.4174(2) 0.5548(3)
H7_4 H 0.953392 0.381100 0.560509
C11_3 C 0.98357(19) 0.52740(18) 0.5341(3)
C12_3 C 0.9556(2) 0.58456(19) 0.5213(3)
C13_3 C 0.9907(2) 0.6370(2) 0.5150(3)
H9_3 H 0.971340 0.675575 0.506705
C21_4 C 0.6839(2) 0.6894(2) 0.8262(5)
H15_4 H 0.642475 0.676237 0.826845
C22_4 C 0.6977(2) 0.7467(2) 0.8585(4)
H16_4 H 0.665884 0.772426 0.880682
C23_4 C 0.7577(2) 0.7673(2) 0.8589(3)
C24_4 C 0.8014(2) 0.72752(19) 0.8217(3)
H17_4 H 0.843057 0.739945 0.817816
C25_4 C 0.7844(2) 0.67101(19) 0.7911(3)
H18_4 H 0.815113 0.644831 0.766981
C26_4 C 0.75073(19) 0.91301(18) 0.9930(3)
C27_4 C 0.73498(19) 0.85639(19) 0.9597(3)
H20_4 H 0.698221 0.836885 0.978460
C28_4 C 0.7746(2) 0.82788(19) 0.8970(3)
C29_4 C 0.82801(19) 0.8585(2) 0.8732(3)
H21_4 H 0.856033 0.840684 0.831536
C30_4 C 0.83991(19) 0.91529(19) 0.9108(3)
H22_4 H 0.876789 0.935577 0.894505
O1_4 O 0.70571(13) 0.04791(13) 0.07745(19)
O2_4 O 0.79739(14) 0.03995(16) 0.1403(2)
O3_3 O 0.63790(15) 0.13702(16) 0.2502(2)
O5_3 O 0.31731(14) 0.12040(14) 0.2239(3)
H1_4 H 0.923624 0.066193 0.036936
N1_4 N 0.64474(16) 0.03298(18) 0.2350(3)
N2_3 N 0.32303(16) 0.01708(16) 0.2068(2)
C1_4 C 0.73970(19) 0.04146(19) 0.1453(3)
C2_4 C 0.7123(2) 0.0384(3) 0.2400(3)
H3_3 H 0.721117 0.078633 0.269601
C4_4 C 0.6120(2) 0.0885(2) 0.2377(3)
C10_3 C 0.45182(19) 0.02392(18) 0.2115(2)
C11_4 C 0.51643(19) 0.02740(18) 0.2159(3)
C12_4 C 0.5444(2) 0.08456(19) 0.2287(3)
C13_4 C 0.5093(2) 0.1370(2) 0.2350(3)
H9_4 H 0.528660 0.175575 0.243295
C14_3 C 0.4457(2) 0.13357(18) 0.2292(3)
H10_3 H 0.421936 0.169928 0.232754
C15_3 C 0.41702(19) 0.07781(18) 0.2184(3)
C16_3 C 0.3487(2) 0.0753(2) 0.2164(3)
C18_3 C 0.2547(2) 0.0119(2) 0.2166(3)
H11_3 H 0.239571 0.054581 0.226752
H12_3 H 0.224272 0.022584 0.085474
Cd3_3 Cd 0.04931(2) 0.79510(2) 0.02081(2)
O5_4 O 0.62040(14) 0.18269(14) 0.4739(3)
O6_4 O 0.41339(14) 0.17128(14) 0.4475(2)
O7_3 O 0.47595(14) 0.22023(13) 0.6155(2)
O8_3 O 0.45749(14) 0.31353(13) 0.5634(2)
N2_4 N 0.51708(16) 0.17697(16) 0.4568(2)
C8_4 C 0.41458(19) 0.0413(2) 0.4427(3)
H8_4 H 0.376124 0.060885 0.434701
C9_4 C 0.46641(19) 0.07617(19) 0.4518(3)
C10_4 C 0.52392(18) 0.04818(19) 0.4615(2)
C14_4 C 0.63357(18) 0.0543(2) 0.4792(3)
H10_4 H 0.669928 0.078064 0.482754
C15_4 C 0.57781(18) 0.08298(19) 0.4684(3)
C16_4 C 0.5753(2) 0.1513(2) 0.4664(3)
C17_4 C 0.4624(2) 0.1444(2) 0.4518(3)
C18_4 C 0.5119(2) 0.2453(2) 0.4666(3)
H11_4 H 0.554581 0.260429 0.476752
C19_4 C 0.4899(3) 0.2763(2) 0.3811(4)
H12_4 H 0.522584 0.275728 0.335474
H13_4 H 0.478752 0.318775 0.394738
H14_4 H 0.454013 0.254539 0.357447
C20_5 C 0.47694(19) 0.25910(19) 0.5541(3)
Cd2_2 Cd 0.45069(2) 0.29510(2) 0.72919(2)
Cd1_2 Cd 0.54931(2) 0.70490(2) 0.22919(2)
O1_5 O 0.54791(13) 0.79429(13) 0.32745(19)
O2_5 O 0.53995(16) 0.70261(14) 0.3903(2)
O3_4 O 0.63702(16) 0.86210(15) 0.5002(2)
O4_5 O 0.43477(15) 0.84795(14) 0.4368(3)
O9_5 O 0.56910(17) 0.60214(15) 0.2414(3)
H1_5 H 0.566193 0.576376 0.286936
H2_5 H 0.553712 0.578965 0.198716
N1_5 N 0.53298(18) 0.85526(16) 0.4850(3)
N3_5 N 0.65082(16) 0.72710(17) 0.2065(3)
N4_3 N 0.94300(15) 0.80199(15) 0.0309(2)
C1_5 C 0.54146(19) 0.76030(19) 0.3953(3)
C2_5 C 0.5384(3) 0.7877(2) 0.4900(3)
H3_4 H 0.578633 0.778883 0.519601
C3_4 C 0.4888(4) 0.7577(3) 0.5503(4)
H4_4 H 0.494769 0.713268 0.550932
H5_4 H 0.492118 0.773687 0.612327
H6_4 H 0.448200 0.767260 0.525826
C4_5 C 0.5885(2) 0.8880(2) 0.4877(3)
C5_5 C 0.4770(2) 0.8808(2) 0.4569(3)
C6_5 C 0.47328(19) 0.9485(2) 0.4559(3)
C7_5 C 0.4174(2) 0.9770(2) 0.4452(3)
H7_5 H 0.381100 0.953392 0.439491
C11_5 C 0.52740(18) 0.98357(19) 0.4659(3)
C12_5 C 0.58456(19) 0.9556(2) 0.4787(3)
C13_5 C 0.6370(2) 0.9907(2) 0.4850(3)
H9_5 H 0.675575 0.971340 0.493295
C21_5 C 0.6894(2) 0.6839(2) 0.1738(5)
H15_5 H 0.676237 0.642475 0.173155
C22_5 C 0.7467(2) 0.6977(2) 0.1415(4)
H16_5 H 0.772426 0.665884 0.119318
C23_5 C 0.7673(2) 0.7577(2) 0.1411(3)
C24_5 C 0.72752(19) 0.8014(2) 0.1783(3)
H17_5 H 0.739945 0.843057 0.182184
C25_5 C 0.67101(19) 0.7844(2) 0.2089(3)
H18_5 H 0.644831 0.815113 0.233019
C26_5 C 0.91301(18) 0.75073(19) 0.0070(3)
C27_5 C 0.85639(19) 0.73498(19) 0.0403(3)
H20_5 H 0.836885 0.698221 0.021540
C28_5 C 0.82788(19) 0.7746(2) 0.1030(3)
C29_5 C 0.8585(2) 0.82801(19) 0.1268(3)
H21_5 H 0.840684 0.856033 0.168464
C30_5 C 0.91529(19) 0.83991(19) 0.0892(3)
H22_5 H 0.935577 0.876789 0.105495
O10_3 O 0.52405(14) 0.77977(13) 0.1155(2)
O11_3 O 0.54251(14) 0.68647(13) 0.0634(2)
N5_3 N 0.44300(15) 0.69801(15) 0.2191(2)
O1_6 O 0.45209(13) 0.20571(13) 0.82745(19)
O2_6 O 0.46005(16) 0.29739(14) 0.8903(2)
O4_6 O 0.56523(15) 0.15205(14) 0.9368(3)
O9_6 O 0.43090(17) 0.39786(15) 0.7414(3)
H1_6 H 0.433807 0.423624 0.786936
H2_6 H 0.446288 0.421035 0.698716
N1_6 N 0.46702(18) 0.14474(16) 0.9850(3)
N3_6 N 0.34918(16) 0.27290(17) 0.7065(3)
N4_4 N 0.05700(15) 0.19801(15) 0.5309(2)
C1_6 C 0.45854(19) 0.23970(19) 0.8953(3)
C2_6 C 0.4616(3) 0.2123(2) 0.9900(3)
C4_6 C 0.4115(2) 0.1120(2) 0.9877(3)
C5_6 C 0.5230(2) 0.1192(2) 0.9569(3)
C6_6 C 0.52672(19) 0.0515(2) 0.9559(3)
C7_6 C 0.5826(2) 0.0230(2) 0.9452(3)
H7_6 H 0.618900 0.046608 0.939491
C11_6 C 0.47260(18) 0.01643(19) 0.9659(3)
C12_6 C 0.41544(19) 0.0444(2) 0.9787(3)
C13_6 C 0.3630(2) 0.0093(2) 0.9850(3)
H9_6 H 0.324425 0.028660 0.993295
C21_6 C 0.3106(2) 0.3161(2) 0.6738(5)
H15_6 H 0.323763 0.357525 0.673155
C22_6 C 0.2533(2) 0.3023(2) 0.6415(4)
H16_6 H 0.227574 0.334116 0.619318
C23_6 C 0.2327(2) 0.2423(2) 0.6411(3)
C24_6 C 0.27248(19) 0.1986(2) 0.6783(3)
H17_6 H 0.260055 0.156943 0.682184
C25_6 C 0.32899(19) 0.2156(2) 0.7089(3)
H18_6 H 0.355169 0.184887 0.733019
C26_6 C 0.08699(18) 0.24927(19) 0.5070(3)
H19_4 H 0.067989 0.276110 0.464798
C27_6 C 0.14361(19) 0.26502(19) 0.5403(3)
H20_6 H 0.163115 0.301779 0.521540
C28_6 C 0.17212(19) 0.2254(2) 0.6030(3)
C29_6 C 0.1415(2) 0.17199(19) 0.6268(3)
H21_6 H 0.159316 0.143967 0.668464
C30_6 C 0.08471(19) 0.16009(19) 0.5892(3)
H22_6 H 0.064423 0.123211 0.605495
N5_4 N 0.55700(15) 0.30199(15) 0.7191(2)
C20_6 C 0.52306(19) 0.74090(19) 0.0541(3)
Cd3_4 Cd 0.95069(2) 0.20490(2) 0.52081(2)
O4_7 O 0.06523(15) 0.34795(14) 0.3132(3)
O6_5 O 0.08661(14) 0.67128(14) 0.3025(2)
O7_4 O 0.02405(14) 0.72023(13) 0.1345(2)
O8_4 O 0.04251(14) 0.81353(13) 0.1866(2)
C3_5 C 0.0112(4) 0.2577(3) 0.1997(4)
H4_5 H 0.005231 0.213268 0.199068
H5_5 H 0.007882 0.273687 0.137673
H6_5 H 0.051800 0.267260 0.224174
C5_7 C 0.0230(2) 0.3808(2) 0.2931(3)
C6_7 C 0.02672(19) 0.4485(2) 0.2941(3)
C7_7 C 0.0826(2) 0.4770(2) 0.3048(3)
H7_7 H 0.118900 0.453392 0.310509
C8_5 C 0.08542(19) 0.5413(2) 0.3073(3)
H8_5 H 0.123876 0.560885 0.315299
C9_5 C 0.03359(19) 0.57617(19) 0.2982(3)
C17_5 C 0.0376(2) 0.6444(2) 0.2982(3)
C19_5 C 0.0101(3) 0.7763(2) 0.3689(4)
H13_5 H 0.021248 0.818775 0.355262
H14_5 H 0.045987 0.754539 0.392553
C20_7 C 0.02306(19) 0.75910(19) 0.1959(3)
O1_7 O 0.95209(13) 0.29429(13) 0.42255(19)
O2_7 O 0.96005(16) 0.20261(14) 0.3597(2)
O3_5 O 0.86298(16) 0.36210(15) 0.2498(2)
O5_5 O 0.87960(14) 0.68269(14) 0.2761(3)
O9_7 O 0.93090(17) 0.10214(15) 0.5086(3)
H1_7 H 0.933807 0.076376 0.463064
H2_7 H 0.946288 0.078965 0.551284
N1_7 N 0.96702(18) 0.35526(16) 0.2650(3)
N2_5 N 0.98292(16) 0.67697(16) 0.2932(2)
N3_7 N 0.84918(16) 0.22710(17) 0.5435(3)
C1_7 C 0.95854(19) 0.26030(19) 0.3547(3)
C2_7 C 0.9616(3) 0.2877(2) 0.2600(3)
H3_5 H 0.921367 0.278883 0.230399
C4_7 C 0.9115(2) 0.3880(2) 0.2623(3)
C10_5 C 0.97608(18) 0.54818(19) 0.2885(2)
C11_7 C 0.97260(18) 0.48357(19) 0.2841(3)
C12_7 C 0.91544(19) 0.4556(2) 0.2713(3)
C13_7 C 0.8630(2) 0.4907(2) 0.2650(3)
H9_7 H 0.824425 0.471340 0.256705
C14_5 C 0.86643(18) 0.5543(2) 0.2708(3)
H10_5 H 0.830072 0.578064 0.267246
C15_5 C 0.92219(18) 0.58298(19) 0.2816(3)
C16_5 C 0.9247(2) 0.6513(2) 0.2836(3)
C18_5 C 0.9881(2) 0.7453(2) 0.2834(3)
H11_5 H 0.945419 0.760429 0.273248
H12_5 H 0.977416 0.775728 0.414526
C21_7 C 0.8106(2) 0.1839(2) 0.5762(5)
H15_7 H 0.823763 0.142475 0.576845
C22_7 C 0.7533(2) 0.1977(2) 0.6085(4)
H16_7 H 0.727574 0.165884 0.630682
C23_7 C 0.7327(2) 0.2577(2) 0.6089(3)
C24_7 C 0.77248(19) 0.3014(2) 0.5717(3)
H17_7 H 0.760055 0.343057 0.567816
C25_7 C 0.82899(19) 0.2844(2) 0.5411(3)
H18_7 H 0.855169 0.315113 0.516981
C26_7 C 0.58699(18) 0.25073(19) 0.7430(3)
H19_5 H 0.567989 0.223890 0.785202
C27_7 C 0.64361(19) 0.23498(19) 0.7097(3)
H20_7 H 0.663115 0.198221 0.728460
C28_7 C 0.67212(19) 0.2746(2) 0.6470(3)
C29_7 C 0.6415(2) 0.32801(19) 0.6232(3)
H21_7 H 0.659316 0.356033 0.581536
C30_7 C 0.58471(19) 0.33991(19) 0.6608(3)
H22_7 H 0.564423 0.376789 0.644505
O10_4 O 0.97595(14) 0.27977(13) 0.6345(2)
O11_4 O 0.95749(14) 0.18647(13) 0.6866(2)
O9_8 O 0.06910(17) 0.89786(15) 0.0086(3)
H2_8 H 0.053712 0.921035 0.051284
N3_8 N 0.15082(16) 0.77290(17) 0.0435(3)
C21_8 C 0.1894(2) 0.8161(2) 0.0762(5)
H15_8 H 0.176237 0.857525 0.076845
C22_8 C 0.2467(2) 0.8023(2) 0.1085(4)
H16_8 H 0.272426 0.834116 0.130682
C23_8 C 0.2673(2) 0.7423(2) 0.1089(3)
C24_8 C 0.22752(19) 0.6986(2) 0.0717(3)
H17_8 H 0.239945 0.656943 0.067816
C25_8 C 0.17101(19) 0.7156(2) 0.0411(3)
H18_8 H 0.144831 0.684887 0.016981
C26_8 C 0.41301(18) 0.74927(19) 0.2430(3)
H19_6 H 0.432011 0.776110 0.285202
C27_8 C 0.35639(19) 0.76502(19) 0.2097(3)
H20_8 H 0.336885 0.801779 0.228460
C28_8 C 0.32788(19) 0.7254(2) 0.1470(3)
C29_8 C 0.3585(2) 0.67199(19) 0.1232(3)
H21_8 H 0.340684 0.643967 0.081536
C30_8 C 0.41529(19) 0.66009(19) 0.1608(3)
H22_8 H 0.435577 0.623211 0.144505
O4_8 O 0.93477(15) 0.65205(14) 0.8132(3)
O6_6 O 0.91339(14) 0.32872(14) 0.8025(2)
C3_6 C 0.9888(4) 0.7423(3) 0.6997(4)
H4_6 H 0.994769 0.786732 0.699068
H5_6 H 0.992118 0.726313 0.637673
H6_6 H 0.948200 0.732740 0.724174
C5_8 C 0.9770(2) 0.6192(2) 0.7931(3)
C6_8 C 0.97328(19) 0.5515(2) 0.7941(3)
C7_8 C 0.9174(2) 0.5230(2) 0.8048(3)
H7_8 H 0.881100 0.546608 0.810509
C8_6 C 0.91458(19) 0.4587(2) 0.8073(3)
H8_6 H 0.876124 0.439115 0.815299
C9_6 C 0.96641(19) 0.42383(19) 0.7982(3)
C17_6 C 0.9624(2) 0.3556(2) 0.7982(3)
C19_6 C 0.9899(3) 0.2237(2) 0.8689(4)
H13_6 H 0.978752 0.181225 0.855262
H14_6 H 0.954013 0.245461 0.892553
C20_8 C 0.97694(19) 0.24090(19) 0.6959(3)
H19_7 H 0.932011 0.723890 0.964798
O3_6 O 0.36298(16) 0.13790(15) 0.0002(2)
H3_6 H 0.421367 0.221117 0.019601
C3_7 C 0.5112(4) 0.2423(3) 0.0503(4)
H4_7 H 0.505231 0.286732 0.050932
H5_7 H 0.507882 0.226313 0.112327
H6_7 H 0.551800 0.232740 0.025826
O5_6 O 0.37960(14) 0.81731(14) 0.9739(3)
O6_7 O 0.58661(14) 0.82872(14) 0.9475(2)
N2_6 N 0.48292(16) 0.82303(16) 0.9568(2)
C8_7 C 0.58542(19) 0.9587(2) 0.9427(3)
H8_7 H 0.623876 0.939115 0.934701
C9_7 C 0.53359(19) 0.92383(19) 0.9518(3)
C10_6 C 0.47608(18) 0.95182(19) 0.9615(2)
C14_6 C 0.36643(18) 0.9457(2) 0.9792(3)
H10_6 H 0.330072 0.921936 0.982754
C15_6 C 0.42219(18) 0.91702(19) 0.9684(3)
C16_6 C 0.4247(2) 0.8487(2) 0.9664(3)
C17_7 C 0.5376(2) 0.8556(2) 0.9518(3)
C18_6 C 0.4881(2) 0.7547(2) 0.9666(3)
H11_6 H 0.445419 0.739571 0.976752
C19_7 C 0.5101(3) 0.7237(2) 0.8811(4)
H12_6 H 0.477416 0.724272 0.835474
H13_7 H 0.521248 0.681225 0.894738
H14_7 H 0.545987 0.745461 0.857447
O3_7 O 0.13790(15) 0.36298(16) 0.9998(2)
H3_7 H 0.221117 0.421367 0.980399
C3_8 C 0.2423(3) 0.5112(4) 0.9497(4)
H4_8 H 0.286732 0.505231 0.949068
H5_8 H 0.226313 0.507882 0.887673
H6_8 H 0.232740 0.551800 0.974174
O5_7 O 0.81731(14) 0.37960(14) 0.0261(3)
O6_8 O 0.82872(14) 0.58661(14) 0.0525(2)
N2_7 N 0.82303(16) 0.48292(16) 0.0432(2)
C8_8 C 0.9587(2) 0.58542(19) 0.0573(3)
H8_8 H 0.939115 0.623876 0.065299
C9_8 C 0.92383(19) 0.53359(19) 0.0482(3)
C10_7 C 0.95182(19) 0.47608(18) 0.0385(2)
C14_7 C 0.9457(2) 0.36643(18) 0.0208(3)
H10_7 H 0.921936 0.330072 0.017246
C15_7 C 0.91702(19) 0.42219(18) 0.0316(3)
C16_7 C 0.8487(2) 0.4247(2) 0.0336(3)
C17_8 C 0.8556(2) 0.5376(2) 0.0482(3)
C18_7 C 0.7547(2) 0.4881(2) 0.0334(3)
H11_7 H 0.739571 0.445419 0.023248
C19_8 C 0.7237(2) 0.5101(3) 0.1189(4)
H12_7 H 0.724272 0.477416 0.164526
H13_8 H 0.681225 0.521248 0.105262
H14_8 H 0.745461 0.545987 0.142553
H19_8 H 0.723890 0.932011 0.035202
O1_8 O 0.04791(13) 0.70571(13) 0.92255(19)
O2_8 O 0.03995(16) 0.79739(14) 0.8597(2)
O3_8 O 0.13702(16) 0.63790(15) 0.7498(2)
O5_8 O 0.12040(14) 0.31731(14) 0.7761(3)
H1_8 H 0.066193 0.923624 0.963064
N1_8 N 0.03298(18) 0.64474(16) 0.7650(3)
N2_8 N 0.01708(16) 0.32303(16) 0.7932(2)
C1_8 C 0.04146(19) 0.73970(19) 0.8547(3)
C2_8 C 0.0384(3) 0.7123(2) 0.7600(3)
H3_8 H 0.078633 0.721117 0.730399
C4_8 C 0.0885(2) 0.6120(2) 0.7623(3)
C10_8 C 0.02392(18) 0.45182(19) 0.7885(2)
C11_8 C 0.02740(18) 0.51643(19) 0.7841(3)
C12_8 C 0.08456(19) 0.5444(2) 0.7713(3)
C13_8 C 0.1370(2) 0.5093(2) 0.7650(3)
H9_8 H 0.175575 0.528660 0.756705
C14_8 C 0.13357(18) 0.4457(2) 0.7708(3)
H10_8 H 0.169928 0.421936 0.767246
C15_8 C 0.07781(18) 0.41702(19) 0.7816(3)
C16_8 C 0.0753(2) 0.3487(2) 0.7836(3)
C18_8 C 0.0119(2) 0.2547(2) 0.7834(3)
H11_8 H 0.054581 0.239571 0.773248
H12_8 H 0.022584 0.224272 0.914526
loop_
_geom_bond_atom_site_label_1
_geom_bond_atom_site_label_2
_geom_bond_site_symmetry_1
_geom_bond_site_symmetry_2
O4 C5 1_555 1_555
O6 C17 1_555 1_555
O7 C20 1_555 1_555
O8 C20 1_555 1_555
H4 C3 1_555 1_555
H5 C3 1_555 1_555
H6 C3 1_555 1_555
C6 C5 1_555 1_555
C7 C6 1_555 1_555
H7 C7 1_555 1_555
C8 C7 1_555 1_555
H8 C8 1_555 1_555
C9 C8 1_555 1_555
H13 C19 1_555 1_555
H14 C19 1_555 1_555
Cd2 O7 1_555 1_555
O8 Cd2 1_555 1_555
C9 C17 1_555 1_555
Cd1 O1 1_555 1_555
O1 C1 1_555 1_555
O2 Cd1 1_555 1_555
O3 C4 1_555 1_555
O5 C16 1_555 1_555
O9 Cd1 1_555 1_555
H1 O9 1_555 1_555
H2 O9 1_555 1_555
N1 C2 1_555 1_555
N2 C16 1_555 1_555
N3 Cd1 1_555 1_555
N4 C26 1_555 1_555
C1 O2 1_555 1_555
C2 C1 1_555 1_555
H3 C2 1_555 1_555
C4 N1 1_555 1_555
C12 C4 1_555 1_555
C13 C12 1_555 1_555
H9 C13 1_555 1_555
C14 C13 1_555 1_555
H10 C14 1_555 1_555
C15 C10 1_555 1_555
C16 C15 1_555 1_555
C18 N2 1_555 1_555
H11 C18 1_555 1_555
C21 N3 1_555 1_555
H15 C21 1_555 1_555
C22 C21 1_555 1_555
H16 C22 1_555 1_555
C23 C22 1_555 1_555
C24 C23 1_555 1_555
H17 C24 1_555 1_555
C25 N3 1_555 1_555
H18 C25 1_555 1_555
C26 H19 1_555 1_555
C27 C26 1_555 1_555
H20 C27 1_555 1_555
C28 C23 1_555 1_555
C29 C28 1_555 1_555
H21 C29 1_555 1_555
C30 N4 1_555 1_555
H22 C30 1_555 1_555
Cd3 N4 1_555 1_555
O10 Cd1 1_555 1_555
O11 Cd1 1_555 1_555
C10 C11 1_555 1_555
C11 C12 1_555 1_555
C14 C15 1_555 1_555
C24 C25 1_555 1_555
C27 C28 1_555 1_555
C29 C30 1_555 1_555
O9_2 Cd2 1_555 1_555
H2_2 O9_2 1_555 1_555
N3_2 Cd2 1_555 1_555
N4_2 C26_2 1_555 1_555
C21_2 N3_2 1_555 1_555
H15_2 C21_2 1_555 1_555
C22_2 C21_2 1_555 1_555
H16_2 C22_2 1_555 1_555
C23_2 C22_2 1_555 1_555
C24_2 C23_2 1_555 1_555
H17_2 C24_2 1_555 1_555
C25_2 N3_2 1_555 1_555
H18_2 C25_2 1_555 1_555
C26_2 H19_2 1_555 1_555
C27_2 C26_2 1_555 1_555
H20_2 C27_2 1_555 1_555
C28_2 C23_2 1_555 1_555
C29_2 C28_2 1_555 1_555
H21_2 C29_2 1_555 1_555
C30_2 N4_2 1_555 1_555
H22_2 C30_2 1_555 1_555
Cd3_2 N4_2 1_555 1_555
C24_2 C25_2 1_555 1_555
C27_2 C28_2 1_555 1_555
C29_2 C30_2 1_555 1_555
O4_2 C5_2 1_555 1_555
O6_2 C17_2 1_555 1_555
O10 C20_2 1_555 1_555
O11 C20_2 1_555 1_555
H4_2 C3_2 1_555 1_555
H5_2 C3_2 1_555 1_555
H6_2 C3_2 1_555 1_555
C6_2 C5_2 1_555 1_555
C7_2 C6_2 1_555 1_555
H7_2 C7_2 1_555 1_555
C8_2 C7_2 1_555 1_555
H8_2 C8_2 1_555 1_555
C9_2 C8_2 1_555 1_555
H13_2 C19_2 1_555 1_555
H14_2 C19_2 1_555 1_555
C9_2 C17_2 1_555 1_555
Cd3 O1_2 1_555 1_555
O1_2 C1_2 1_555 1_555
O2_2 Cd3 1_555 1_555
O4_3 C5_3 1_555 1_555
O9_3 Cd3 1_555 1_555
H1_2 O9_3 1_555 1_555
H2_3 O9_3 1_555 1_555
N1_2 C2_2 1_555 1_555
N3_3 Cd3 1_555 1_555
N5 C26_3 1_555 1_555
C1_2 O2_2 1_555 1_555
C2_2 C1_2 1_555 1_555
C4_2 N1_2 1_555 1_555
C5_3 N1_2 1_555 1_555
C6_3 C5_3 1_555 1_555
C7_3 C6_3 1_555 1_555
H7_3 C7_3 1_555 1_555
C11_2 C6_3 1_555 1_555
C12_2 C4_2 1_555 1_555
C13_2 C12_2 1_555 1_555
H9_2 C13_2 1_555 1_555
C21_3 N3_3 1_555 1_555
H15_3 C21_3 1_555 1_555
C22_3 C21_3 1_555 1_555
H16_3 C22_3 1_555 1_555
C23_3 C22_3 1_555 1_555
C24_3 C23_3 1_555 1_555
H17_3 C24_3 1_555 1_555
C25_3 N3_3 1_555 1_555
H18_3 C25_3 1_555 1_555
C26_3 H19_3 1_555 1_555
C27_3 C26_3 1_555 1_555
H20_3 C27_3 1_555 1_555
C28_3 C23_3 1_555 1_555
C29_3 C28_3 1_555 1_555
H21_3 C29_3 1_555 1_555
C30_3 N5 1_555 1_555
H22_3 C30_3 1_555 1_555
O10_2 Cd3 1_555 1_555
O11_2 Cd3 1_555 1_555
C11_2 C12_2 1_555 1_555
C24_3 C25_3 1_555 1_555
C27_3 C28_3 1_555 1_555
C29_3 C30_3 1_555 1_555
O7_2 C20_3 1_555 1_555
O8_2 C20_3 1_555 1_555
Cd3_2 O7_2 1_555 1_555
O8_2 Cd3_2 1_555 1_555
O5_2 C16_2 1_555 1_555
O6_3 C17_3 1_555 1_555
O10_2 C20_4 1_555 1_555
O11_2 C20_4 1_555 1_555
N2_2 C16_2 1_555 1_555
H8_3 C8_3 1_555 1_555
C9_3 C8_3 1_555 1_555
C10_2 C9_3 1_555 1_555
H10_2 C14_2 1_555 1_555
C15_2 C10_2 1_555 1_555
C16_2 C15_2 1_555 1_555
C17_3 N2_2 1_555 1_555
C18_2 N2_2 1_555 1_555
H11_2 C18_2 1_555 1_555
C19_3 C18_2 1_555 1_555
H12_2 C19_3 1_555 1_555
H13_3 C19_3 1_555 1_555
H14_3 C19_3 1_555 1_555
C20_4 C18_2 1_555 1_555
C9_3 C17_3 1_555 1_555
C14_2 C15_2 1_555 1_555
Cd3_2 O1_3 1_555 1_555
O1_3 C1_3 1_555 1_555
O2_3 Cd3_2 1_555 1_555
O3_2 C4_3 1_555 1_555
O4_4 C5_4 1_555 1_555
O9_4 Cd3_2 1_555 1_555
H1_3 O9_4 1_555 1_555
H2_4 O9_4 1_555 1_555
N1_3 C2_3 1_555 1_555
N3_4 Cd3_2 1_555 1_555
N5_2 C26_4 1_555 1_555
C1_3 O2_3 1_555 1_555
C2_3 C1_3 1_555 1_555
H3_2 C2_3 1_555 1_555
C3_3 C2_3 1_555 1_555
H4_3 C3_3 1_555 1_555
H5_3 C3_3 1_555 1_555
H6_3 C3_3 1_555 1_555
C4_3 N1_3 1_555 1_555
C5_4 N1_3 1_555 1_555
C6_4 C5_4 1_555 1_555
C7_4 C6_4 1_555 1_555
H7_4 C7_4 1_555 1_555
C11_3 C6_4 1_555 1_555
C12_3 C4_3 1_555 1_555
C13_3 C12_3 1_555 1_555
H9_3 C13_3 1_555 1_555
C21_4 N3_4 1_555 1_555
H15_4 C21_4 1_555 1_555
C22_4 C21_4 1_555 1_555
H16_4 C22_4 1_555 1_555
C23_4 C22_4 1_555 1_555
C24_4 C23_4 1_555 1_555
H17_4 C24_4 1_555 1_555
C25_4 N3_4 1_555 1_555
H18_4 C25_4 1_555 1_555
C27_4 C26_4 1_555 1_555
H20_4 C27_4 1_555 1_555
C28_4 C23_4 1_555 1_555
C29_4 C28_4 1_555 1_555
H21_4 C29_4 1_555 1_555
C30_4 N5_2 1_555 1_555
H22_4 C30_4 1_555 1_555
C11_3 C12_3 1_555 1_555
C24_4 C25_4 1_555 1_555
C27_4 C28_4 1_555 1_555
C29_4 C30_4 1_555 1_555
O1_4 C1_4 1_555 1_555
O3_3 C4_4 1_555 1_555
O5_3 C16_3 1_555 1_555
N1_4 C2_4 1_555 1_555
N2_3 C16_3 1_555 1_555
C1_4 O2_4 1_555 1_555
C2_4 C1_4 1_555 1_555
H3_3 C2_4 1_555 1_555
C4_4 N1_4 1_555 1_555
C12_4 C4_4 1_555 1_555
C13_4 C12_4 1_555 1_555
H9_4 C13_4 1_555 1_555
C14_3 C13_4 1_555 1_555
H10_3 C14_3 1_555 1_555
C15_3 C10_3 1_555 1_555
C16_3 C15_3 1_555 1_555
C18_3 N2_3 1_555 1_555
H11_3 C18_3 1_555 1_555
C10_3 C11_4 1_555 1_555
C11_4 C12_4 1_555 1_555
C14_3 C15_3 1_555 1_555
O5_4 C16_4 1_555 1_555
O6_4 C17_4 1_555 1_555
O7_3 C20_5 1_555 1_555
O8_3 C20_5 1_555 1_555
N2_4 C16_4 1_555 1_555
H8_4 C8_4 1_555 1_555
C9_4 C8_4 1_555 1_555
C10_4 C9_4 1_555 1_555
H10_4 C14_4 1_555 1_555
C15_4 C10_4 1_555 1_555
C16_4 C15_4 1_555 1_555
C17_4 N2_4 1_555 1_555
C18_4 N2_4 1_555 1_555
H11_4 C18_4 1_555 1_555
C19_4 C18_4 1_555 1_555
H12_4 C19_4 1_555 1_555
H13_4 C19_4 1_555 1_555
H14_4 C19_4 1_555 1_555
C20_5 C18_4 1_555 1_555
Cd2_2 O7_3 1_555 1_555
O8_3 Cd2_2 1_555 1_555
C9_4 C17_4 1_555 1_555
C14_4 C15_4 1_555 1_555
Cd1_2 O1_5 1_555 1_555
O1_5 C1_5 1_555 1_555
O2_5 Cd1_2 1_555 1_555
O3_4 C4_5 1_555 1_555
O4_5 C5_5 1_555 1_555
O9_5 Cd1_2 1_555 1_555
H1_5 O9_5 1_555 1_555
H2_5 O9_5 1_555 1_555
N1_5 C2_5 1_555 1_555
N3_5 Cd1_2 1_555 1_555
N4_3 C26_5 1_555 1_555
C1_5 O2_5 1_555 1_555
C2_5 C1_5 1_555 1_555
H3_4 C2_5 1_555 1_555
C3_4 C2_5 1_555 1_555
H4_4 C3_4 1_555 1_555
H5_4 C3_4 1_555 1_555
H6_4 C3_4 1_555 1_555
C4_5 N1_5 1_555 1_555
C5_5 N1_5 1_555 1_555
C6_5 C5_5 1_555 1_555
C7_5 C6_5 1_555 1_555
H7_5 C7_5 1_555 1_555
C11_5 C6_5 1_555 1_555
C12_5 C4_5 1_555 1_555
C13_5 C12_5 1_555 1_555
H9_5 C13_5 1_555 1_555
C21_5 N3_5 1_555 1_555
H15_5 C21_5 1_555 1_555
C22_5 C21_5 1_555 1_555
H16_5 C22_5 1_555 1_555
C23_5 C22_5 1_555 1_555
C24_5 C23_5 1_555 1_555
H17_5 C24_5 1_555 1_555
C25_5 N3_5 1_555 1_555
H18_5 C25_5 1_555 1_555
C27_5 C26_5 1_555 1_555
H20_5 C27_5 1_555 1_555
C28_5 C23_5 1_555 1_555
C29_5 C28_5 1_555 1_555
H21_5 C29_5 1_555 1_555
C30_5 N4_3 1_555 1_555
H22_5 C30_5 1_555 1_555
O10_3 Cd1_2 1_555 1_555
O11_3 Cd1_2 1_555 1_555
N5_3 Cd1_2 1_555 1_555
C11_5 C12_5 1_555 1_555
C24_5 C25_5 1_555 1_555
C27_5 C28_5 1_555 1_555
C29_5 C30_5 1_555 1_555
Cd2_2 O1_6 1_555 1_555
O1_6 C1_6 1_555 1_555
O2_6 Cd2_2 1_555 1_555
O4_6 C5_6 1_555 1_555
O9_6 Cd2_2 1_555 1_555
H1_6 O9_6 1_555 1_555
H2_6 O9_6 1_555 1_555
N1_6 C2_6 1_555 1_555
N3_6 Cd2_2 1_555 1_555
N4_4 C26_6 1_555 1_555
C1_6 O2_6 1_555 1_555
C2_6 C1_6 1_555 1_555
C4_6 N1_6 1_555 1_555
C5_6 N1_6 1_555 1_555
C6_6 C5_6 1_555 1_555
C7_6 C6_6 1_555 1_555
H7_6 C7_6 1_555 1_555
C11_6 C6_6 1_555 1_555
C12_6 C4_6 1_555 1_555
C13_6 C12_6 1_555 1_555
H9_6 C13_6 1_555 1_555
C21_6 N3_6 1_555 1_555
H15_6 C21_6 1_555 1_555
C22_6 C21_6 1_555 1_555
H16_6 C22_6 1_555 1_555
C23_6 C22_6 1_555 1_555
C24_6 C23_6 1_555 1_555
H17_6 C24_6 1_555 1_555
C25_6 N3_6 1_555 1_555
H18_6 C25_6 1_555 1_555
C26_6 H19_4 1_555 1_555
C27_6 C26_6 1_555 1_555
H20_6 C27_6 1_555 1_555
C28_6 C23_6 1_555 1_555
C29_6 C28_6 1_555 1_555
H21_6 C29_6 1_555 1_555
C30_6 N4_4 1_555 1_555
H22_6 C30_6 1_555 1_555
N5_4 Cd2_2 1_555 1_555
C11_6 C12_6 1_555 1_555
C24_6 C25_6 1_555 1_555
C27_6 C28_6 1_555 1_555
C29_6 C30_6 1_555 1_555
O10_3 C20_6 1_555 1_555
O11_3 C20_6 1_555 1_555
O4_7 C5_7 1_555 1_555
O6_5 C17_5 1_555 1_555
O7_4 C20_7 1_555 1_555
O8_4 C20_7 1_555 1_555
H4_5 C3_5 1_555 1_555
H5_5 C3_5 1_555 1_555
H6_5 C3_5 1_555 1_555
C6_7 C5_7 1_555 1_555
C7_7 C6_7 1_555 1_555
H7_7 C7_7 1_555 1_555
C8_5 C7_7 1_555 1_555
H8_5 C8_5 1_555 1_555
C9_5 C8_5 1_555 1_555
H13_5 C19_5 1_555 1_555
H14_5 C19_5 1_555 1_555
Cd3_3 O7_4 1_555 1_555
O8_4 Cd3_3 1_555 1_555
C9_5 C17_5 1_555 1_555
Cd3_4 O1_7 1_555 1_555
O1_7 C1_7 1_555 1_555
O2_7 Cd3_4 1_555 1_555
O3_5 C4_7 1_555 1_555
O5_5 C16_5 1_555 1_555
O9_7 Cd3_4 1_555 1_555
H1_7 O9_7 1_555 1_555
H2_7 O9_7 1_555 1_555
N1_7 C2_7 1_555 1_555
N2_5 C16_5 1_555 1_555
N3_7 Cd3_4 1_555 1_555
N5_4 C26_7 1_555 1_555
C1_7 O2_7 1_555 1_555
C2_7 C1_7 1_555 1_555
H3_5 C2_7 1_555 1_555
C4_7 N1_7 1_555 1_555
C12_7 C4_7 1_555 1_555
C13_7 C12_7 1_555 1_555
H9_7 C13_7 1_555 1_555
C14_5 C13_7 1_555 1_555
H10_5 C14_5 1_555 1_555
C15_5 C10_5 1_555 1_555
C16_5 C15_5 1_555 1_555
C18_5 N2_5 1_555 1_555
H11_5 C18_5 1_555 1_555
C21_7 N3_7 1_555 1_555
H15_7 C21_7 1_555 1_555
C22_7 C21_7 1_555 1_555
H16_7 C22_7 1_555 1_555
C23_7 C22_7 1_555 1_555
C24_7 C23_7 1_555 1_555
H17_7 C24_7 1_555 1_555
C25_7 N3_7 1_555 1_555
H18_7 C25_7 1_555 1_555
C26_7 H19_5 1_555 1_555
C27_7 C26_7 1_555 1_555
H20_7 C27_7 1_555 1_555
C28_7 C23_7 1_555 1_555
C29_7 C28_7 1_555 1_555
H21_7 C29_7 1_555 1_555
C30_7 N5_4 1_555 1_555
H22_7 C30_7 1_555 1_555
O10_4 Cd3_4 1_555 1_555
O11_4 Cd3_4 1_555 1_555
C10_5 C11_7 1_555 1_555
C11_7 C12_7 1_555 1_555
C14_5 C15_5 1_555 1_555
C24_7 C25_7 1_555 1_555
C27_7 C28_7 1_555 1_555
C29_7 C30_7 1_555 1_555
O9_8 Cd3_3 1_555 1_555
H2_8 O9_8 1_555 1_555
N3_8 Cd3_3 1_555 1_555
N5_3 C26_8 1_555 1_555
C21_8 N3_8 1_555 1_555
H15_8 C21_8 1_555 1_555
C22_8 C21_8 1_555 1_555
H16_8 C22_8 1_555 1_555
C23_8 C22_8 1_555 1_555
C24_8 C23_8 1_555 1_555
H17_8 C24_8 1_555 1_555
C25_8 N3_8 1_555 1_555
H18_8 C25_8 1_555 1_555
C26_8 H19_6 1_555 1_555
C27_8 C26_8 1_555 1_555
H20_8 C27_8 1_555 1_555
C28_8 C23_8 1_555 1_555
C29_8 C28_8 1_555 1_555
H21_8 C29_8 1_555 1_555
C30_8 N5_3 1_555 1_555
H22_8 C30_8 1_555 1_555
C24_8 C25_8 1_555 1_555
C27_8 C28_8 1_555 1_555
C29_8 C30_8 1_555 1_555
O4_8 C5_8 1_555 1_555
O6_6 C17_6 1_555 1_555
O10_4 C20_8 1_555 1_555
O11_4 C20_8 1_555 1_555
H4_6 C3_6 1_555 1_555
H5_6 C3_6 1_555 1_555
H6_6 C3_6 1_555 1_555
C6_8 C5_8 1_555 1_555
C7_8 C6_8 1_555 1_555
H7_8 C7_8 1_555 1_555
C8_6 C7_8 1_555 1_555
H8_6 C8_6 1_555 1_555
C9_6 C8_6 1_555 1_555
H13_6 C19_6 1_555 1_555
H14_6 C19_6 1_555 1_555
C9_6 C17_6 1_555 1_555
H4_7 C3_7 1_555 1_555
H5_7 C3_7 1_555 1_555
H6_7 C3_7 1_555 1_555
O5_6 C16_6 1_555 1_555
O6_7 C17_7 1_555 1_555
N2_6 C16_6 1_555 1_555
H8_7 C8_7 1_555 1_555
C9_7 C8_7 1_555 1_555
C10_6 C9_7 1_555 1_555
H10_6 C14_6 1_555 1_555
C15_6 C10_6 1_555 1_555
C16_6 C15_6 1_555 1_555
C17_7 N2_6 1_555 1_555
C18_6 N2_6 1_555 1_555
H11_6 C18_6 1_555 1_555
C19_7 C18_6 1_555 1_555
H12_6 C19_7 1_555 1_555
H13_7 C19_7 1_555 1_555
H14_7 C19_7 1_555 1_555
C9_7 C17_7 1_555 1_555
C14_6 C15_6 1_555 1_555
H4_8 C3_8 1_555 1_555
H5_8 C3_8 1_555 1_555
H6_8 C3_8 1_555 1_555
O5_7 C16_7 1_555 1_555
O6_8 C17_8 1_555 1_555
N2_7 C16_7 1_555 1_555
H8_8 C8_8 1_555 1_555
C9_8 C8_8 1_555 1_555
C10_7 C9_8 1_555 1_555
H10_7 C14_7 1_555 1_555
C15_7 C10_7 1_555 1_555
C16_7 C15_7 1_555 1_555
C17_8 N2_7 1_555 1_555
C18_7 N2_7 1_555 1_555
H11_7 C18_7 1_555 1_555
C19_8 C18_7 1_555 1_555
H12_7 C19_8 1_555 1_555
H13_8 C19_8 1_555 1_555
H14_8 C19_8 1_555 1_555
C9_8 C17_8 1_555 1_555
C14_7 C15_7 1_555 1_555
O1_8 C1_8 1_555 1_555
O3_8 C4_8 1_555 1_555
O5_8 C16_8 1_555 1_555
N1_8 C2_8 1_555 1_555
N2_8 C16_8 1_555 1_555
C1_8 O2_8 1_555 1_555
C2_8 C1_8 1_555 1_555
H3_8 C2_8 1_555 1_555
C4_8 N1_8 1_555 1_555
C12_8 C4_8 1_555 1_555
C13_8 C12_8 1_555 1_555
H9_8 C13_8 1_555 1_555
C14_8 C13_8 1_555 1_555
H10_8 C14_8 1_555 1_555
C15_8 C10_8 1_555 1_555
C16_8 C15_8 1_555 1_555
C18_8 N2_8 1_555 1_555
H11_8 C18_8 1_555 1_555
C10_8 C11_8 1_555 1_555
C11_8 C12_8 1_555 1_555
C14_8 C15_8 1_555 1_555

#END
