
###############################################################################
#
# This file contains modified crystal structure data generated from the
# MOF subset of the Cambridge Structural Database (CSD) v543 
# hosted by the Cambridge Crystallographic Data Centre (CCDC).
#
# This work is licensed under the Creative Commons
# Attribution-NonCommercial-ShareAlike 4.0 International License.
# To view a copy of this license, visit
# http://creativecommons.org/licenses/by-nc-sa/4.0/
# or send a letter to
# Creative Commons, PO Box 1866, Mountain View, CA 94042, USA.
#
# CIF created using the CSD Python API on 29 September 2022
# The structure has been converted into the P1 space group
# The structure has a 3D framework
# The original CSD entry WARJAC is in the trigonal crystal system
# The original CSD entry WARJAC is in a Sohncke space group
# The framework has been calculated to contain at least 10.0% void space
# The void calculation uses a probe of radius 1.32A, grid spacing 0.4
#
###############################################################################

data_WARJAC
_chemical_formula_moiety         '(C24 H36 N18 Ni12 O42)n'
_symmetry_cell_setting           triclinic
_symmetry_space_group_name_H-M   'P 1'
_symmetry_Int_Tables_number      1
_space_group_name_Hall           'P 1'
loop_
_symmetry_equiv_pos_site_id
_symmetry_equiv_pos_as_xyz
1 x,y,z
_cell_length_a                   11.92450(10)
_cell_length_b                   11.92450(10)
_cell_length_c                   16.3020(5)
_cell_angle_alpha                90
_cell_angle_beta                 90
_cell_angle_gamma                120
_cell_volume                     2007.48
loop_
_atom_site_label
_atom_site_type_symbol
_atom_site_fract_x
_atom_site_fract_y
_atom_site_fract_z
O16 O 0.0045(4) 0.7192(6) 0.0388(3)
Ni4 Ni -0.00000(8) 0.37325(6) 0.6667
Ni5 Ni 0.04826(5) 0.54338(6) 0.85893(3)
O13 O 0.1483(4) 0.7128(4) 0.7915(2)
N8 N 0.1782(5) 0.4873(4) 0.8204(2)
O15 O 0.1529(4) 0.6496(5) 0.9561(2)
H7 H 0.1523 0.6961 0.9955
H8 H 0.1045 0.5732 0.9741
H9 H 0.1880 0.6992 0.7530
H11 H 0.1155 0.7532 0.7682
Ni2 Ni 0.54338(6) 0.04826(5) 0.14107(3)
O4 O 0.7128(4) 0.1483(4) 0.2085(2)
O6 O 0.6496(5) 0.1529(4) 0.0439(2)
H1 H 0.6961 0.1523 0.0045
H2 H 0.5732 0.1045 0.0259
H3 H 0.6992 0.1880 0.2470
H5 H 0.7532 0.1155 0.2318
Ni3 Ni 0.37325(6) -0.00000(8) 0.3333
N7 N 0.4873(4) 0.1782(5) 0.1796(2)
Ni1 Ni 0.62675(6) 0.62675(6) 0.0000
N1 N 0.5745(3) 0.7195(3) 0.07986(19)
O1 O 0.4568(3) 0.9319(3) 0.24863(17)
O3 O 0.4303(4) 0.7532(3) 0.3110(2)
N2 N 0.5723(4) 0.8952(4) 0.1183(2)
O5 O 0.3730(4) 0.9487(4) 0.0746(3)
N3 N 0.5127(4) 0.6909(3) 0.1537(2)
C1 C 0.5139(4) 0.8003(4) 0.1750(2)
C2 C 0.6065(4) 0.8388(4) 0.0610(2)
C3 C 0.4616(5) 0.8265(4) 0.2519(3)
H4 H 0.3999 0.9949 0.0314
H6 H 0.3103 0.9601 0.0876
Ni3_2 Ni 0.37325(6) 1.00000(8) 0.3333
Ni6 Ni 0.45662(6) 0.50488(8) 0.19226(3)
O10 O 0.5432(3) 0.4751(4) 0.08470(17)
O11 O 0.8094(3) 0.6984(4) 0.05657(18)
C8 C 0.8908(5) 0.6801(6) 0.0172(3)
Ni1_2 Ni 0.62675(6) 0.62675(6) 1.0000
O2 O 0.6984(4) 0.8094(3) 0.94343(18)
C4 C 0.6801(6) 0.8908(5) 0.9828(3)
Ni4_2 Ni 1.00000(8) 0.37325(6) 0.6667
Ni7 Ni 0.50488(8) 0.45662(6) 0.80774(3)
N4 N 0.7195(3) 0.5745(3) 0.92014(19)
O8 O 0.9319(3) 0.4568(3) 0.75137(17)
O9 O 0.4751(4) 0.5432(3) 0.91530(17)
O12 O 0.7532(3) 0.4303(4) 0.6890(2)
N5 N 0.8952(4) 0.5723(4) 0.8817(2)
O14 O 0.9487(4) 0.3730(4) 0.9254(3)
N6 N 0.6909(3) 0.5127(4) 0.8463(2)
C5 C 0.8003(4) 0.5139(4) 0.8250(2)
C6 C 0.8388(4) 0.6065(4) 0.9390(2)
C7 C 0.8265(4) 0.4616(5) 0.7481(3)
H10 H 0.9949 0.3999 0.9686
H12 H 0.9601 0.3103 0.9124
N4_2 N 0.4255(3) 0.1450(4) 0.25347(19)
O10_2 O 0.5249(4) 0.0681(5) 0.41804(17)
O11_2 O 0.3016(4) 0.1110(5) 0.38990(18)
O12_2 O 0.5697(4) 0.3229(5) 0.0223(2)
N5_2 N 0.4277(4) 0.3229(6) 0.2150(2)
O13_2 O 0.2872(4) 0.4355(6) 0.1248(2)
O14_2 O 0.6270(4) 0.5757(6) 0.2587(3)
C5_2 C 0.4861(4) 0.2864(6) 0.1583(2)
C6_2 C 0.3935(4) 0.2323(6) 0.2723(2)
C7_2 C 0.5384(5) 0.3649(6) 0.0814(3)
O15_2 O 0.3504(5) 0.5033(6) 0.2894(2)
O16_2 O 0.2808(6) 0.2853(7) 0.3721(3)
C8_2 C 0.3199(6) 0.2107(8) 0.3505(3)
H7_2 H 0.3039 0.4562 0.3288
H8_2 H 0.4268 0.5313 0.3074
H9_2 H 0.3008 0.4888 0.0863
H10_2 H 0.6001 0.5950 0.3019
H11_2 H 0.2468 0.3623 0.1015
H12_2 H 0.6897 0.6498 0.2457
N1_2 N 0.2805(3) 0.8550(4) 0.41319(19)
O1_2 O 0.0681(3) 0.5249(4) 0.58196(17)
O2_2 O 0.1906(3) 0.8890(5) 0.27676(18)
O3_2 O 0.2468(3) 0.6771(5) 0.6443(2)
N2_2 N 0.1048(4) 0.6771(6) 0.4516(2)
O5_2 O 0.0513(4) 0.4243(6) 0.4079(3)
N3_2 N 0.3091(3) 0.8218(5) 0.4870(2)
C1_2 C 0.1997(4) 0.7136(6) 0.5083(2)
C2_2 C 0.1612(4) 0.7677(6) 0.3943(2)
C3_2 C 0.1735(4) 0.6351(6) 0.5852(3)
C4_2 C 0.1092(5) 0.7893(8) 0.3161(3)
H4_2 H 0.0051 0.4050 0.3647
H6_2 H 0.0399 0.3502 0.4209
Ni6_2 Ni 0.49512(8) 0.95174(10) 0.52560(3)
Ni2_2 Ni 0.95174(5) 0.49512(8) 0.47440(3)
O4_2 O 0.8517(4) 0.5645(6) 0.5418(2)
O6_2 O 0.8471(4) 0.4967(6) 0.3772(2)
O7 O 0.9955(4) 0.7147(7) 0.2945(3)
H1_2 H 0.8477 0.5438 0.3378
H2_2 H 0.8955 0.4687 0.3592
H3_2 H 0.8120 0.5112 0.5803
H5_2 H 0.8845 0.6377 0.5651
N7_2 N 0.8218(5) 0.3091(6) 0.5130(2)
N1_3 N 0.1450(4) 0.4255(3) 0.74653(19)
O2_3 O 0.1110(5) 0.3016(4) 0.61010(18)
O3_3 O 0.3229(5) 0.5697(4) 0.9777(2)
N2_3 N 0.3229(6) 0.4277(4) 0.7850(2)
O4_3 O 0.4355(6) 0.2872(4) 0.8752(2)
O5_3 O 0.5757(6) 0.6270(4) 0.7413(3)
C1_3 C 0.2864(6) 0.4861(4) 0.8417(2)
C2_3 C 0.2323(6) 0.3935(4) 0.7277(2)
C3_3 C 0.3649(6) 0.5384(5) 0.9186(3)
O6_3 O 0.5033(6) 0.3504(5) 0.7106(2)
O7_2 O 0.2853(7) 0.2808(6) 0.6279(3)
C4_3 C 0.2107(8) 0.3199(6) 0.6495(3)
H1_3 H 0.4562 0.3039 0.6712
H2_3 H 0.5313 0.4268 0.6926
H3_3 H 0.4888 0.3008 0.9137
H4_3 H 0.5950 0.6001 0.6981
H5_3 H 0.3623 0.2468 0.8985
H6_3 H 0.6498 0.6897 0.7543
N4_3 N 0.8550(4) 0.2805(3) 0.58681(19)
O11_3 O 0.8890(5) 0.1906(3) 0.72324(18)
O12_3 O 0.6771(5) 0.2468(3) 0.3557(2)
N5_3 N 0.6771(6) 0.1048(4) 0.5484(2)
O14_3 O 0.4243(6) 0.0513(4) 0.5921(3)
C5_3 C 0.7136(6) 0.1997(4) 0.4917(2)
C6_3 C 0.7677(6) 0.1612(4) 0.6057(2)
C7_3 C 0.6351(6) 0.1735(4) 0.4148(3)
C8_3 C 0.7893(8) 0.1092(5) 0.6839(3)
H10_3 H 0.4050 0.0051 0.6353
H12_3 H 0.3502 0.0399 0.5791
O13_3 O 0.5645(6) 0.8517(4) 0.4582(2)
O15_3 O 0.4967(6) 0.8471(4) 0.6228(2)
O16_3 O 0.7147(7) 0.9955(4) 0.7055(3)
H7_3 H 0.5438 0.8477 0.6622
H8_3 H 0.4687 0.8955 0.6408
H9_3 H 0.5112 0.8120 0.4197
H11_3 H 0.6377 0.8845 0.4349
O7_3 O 0.7192(6) 0.0045(4) 0.9612(3)
loop_
_geom_bond_atom_site_label_1
_geom_bond_atom_site_label_2
_geom_bond_site_symmetry_1
_geom_bond_site_symmetry_2
O13 Ni5 1_555 1_555
N8 Ni5 1_555 1_555
O15 Ni5 1_555 1_555
H7 O15 1_555 1_555
H8 O15 1_555 1_555
H9 O13 1_555 1_555
H11 O13 1_555 1_555
O4 Ni2 1_555 1_555
O6 Ni2 1_555 1_555
H1 O6 1_555 1_555
H2 O6 1_555 1_555
H3 O4 1_555 1_555
H5 O4 1_555 1_555
N7 Ni2 1_555 1_555
Ni1 N1 1_555 1_555
N1 N3 1_555 1_555
O1 C3 1_555 1_555
O3 C3 1_555 1_555
N3 C1 1_555 1_555
C1 N2 1_555 1_555
C2 N1 1_555 1_555
C3 C1 1_555 1_555
H4 O5 1_555 1_555
H6 O5 1_555 1_555
Ni3_2 O1 1_555 1_555
Ni6 N3 1_555 1_555
O10 Ni1 1_555 1_555
O11 Ni1 1_555 1_555
C8 O11 1_555 1_555
N2 C2 1_555 1_555
Ni6 O10 1_555 1_555
O2 Ni1_2 1_555 1_555
C4 O2 1_555 1_555
Ni4_2 O8 1_555 1_555
Ni7 O9 1_555 1_555
N4 Ni1_2 1_555 1_555
O8 C7 1_555 1_555
O9 Ni1_2 1_555 1_555
O12 C7 1_555 1_555
N6 Ni7 1_555 1_555
C5 N5 1_555 1_555
C6 N4 1_555 1_555
C7 C5 1_555 1_555
H10 O14 1_555 1_555
H12 O14 1_555 1_555
N4 N6 1_555 1_555
N5 C6 1_555 1_555
N6 C5 1_555 1_555
N4_2 Ni3 1_555 1_555
O10 C7_2 1_555 1_555
O10_2 Ni3 1_555 1_555
O11_2 Ni3 1_555 1_555
O12_2 C7_2 1_555 1_555
N5_2 Ni6 1_555 1_555
O13_2 Ni6 1_555 1_555
O14_2 Ni6 1_555 1_555
C5_2 N5_2 1_555 1_555
C6_2 N4_2 1_555 1_555
C7_2 C5_2 1_555 1_555
O15_2 Ni6 1_555 1_555
O16_2 C8_2 1_555 1_555
C8_2 O11_2 1_555 1_555
H7_2 O15_2 1_555 1_555
H8_2 O15_2 1_555 1_555
H9_2 O13_2 1_555 1_555
H10_2 O14_2 1_555 1_555
H11_2 O13_2 1_555 1_555
H12_2 O14_2 1_555 1_555
N4_2 N7 1_555 1_555
N5_2 C6_2 1_555 1_555
N7 C5_2 1_555 1_555
C6_2 C8_2 1_555 1_555
Ni3_2 N1_2 1_555 1_555
N1_2 N3_2 1_555 1_555
O1_2 C3_2 1_555 1_555
O2_2 Ni3_2 1_555 1_555
O3_2 C3_2 1_555 1_555
N3_2 C1_2 1_555 1_555
C1_2 N2_2 1_555 1_555
C2_2 N1_2 1_555 1_555
C3_2 C1_2 1_555 1_555
C4_2 O2_2 1_555 1_555
H4_2 O5_2 1_555 1_555
H6_2 O5_2 1_555 1_555
Ni4 O1_2 1_555 1_555
Ni6_2 N3_2 1_555 1_555
N2_2 C2_2 1_555 1_555
C2_2 C4_2 1_555 1_555
O4_2 Ni2_2 1_555 1_555
O6_2 Ni2_2 1_555 1_555
H1_2 O6_2 1_555 1_555
H2_2 O6_2 1_555 1_555
H3_2 O4_2 1_555 1_555
H5_2 O4_2 1_555 1_555
N7_2 Ni2_2 1_555 1_555
Ni4 N1_3 1_555 1_555
N1_3 N8 1_555 1_555
O9 C3_3 1_555 1_555
O2_3 Ni4 1_555 1_555
O3_3 C3_3 1_555 1_555
N2_3 Ni7 1_555 1_555
O4_3 Ni7 1_555 1_555
O5_3 Ni7 1_555 1_555
N8 C1_3 1_555 1_555
C1_3 N2_3 1_555 1_555
C2_3 N1_3 1_555 1_555
C3_3 C1_3 1_555 1_555
O6_3 Ni7 1_555 1_555
O7_2 C4_3 1_555 1_555
C4_3 O2_3 1_555 1_555
H1_3 O6_3 1_555 1_555
H2_3 O6_3 1_555 1_555
H3_3 O4_3 1_555 1_555
H4_3 O5_3 1_555 1_555
H5_3 O4_3 1_555 1_555
H6_3 O5_3 1_555 1_555
N2_3 C2_3 1_555 1_555
C2_3 C4_3 1_555 1_555
N4_3 Ni4_2 1_555 1_555
O10_2 C7_3 1_555 1_555
O11_3 Ni4_2 1_555 1_555
O12_3 C7_3 1_555 1_555
C5_3 N5_3 1_555 1_555
C6_3 N4_3 1_555 1_555
C7_3 C5_3 1_555 1_555
C8_3 O11_3 1_555 1_555
H10_3 O14_3 1_555 1_555
H12_3 O14_3 1_555 1_555
N4_3 N7_2 1_555 1_555
N5_3 C6_3 1_555 1_555
N7_2 C5_3 1_555 1_555
C6_3 C8_3 1_555 1_555
O13_3 Ni6_2 1_555 1_555
O15_3 Ni6_2 1_555 1_555
H7_3 O15_3 1_555 1_555
H8_3 O15_3 1_555 1_555
H9_3 O13_3 1_555 1_555
H11_3 O13_3 1_555 1_555

#END
