
###############################################################################
#
# This file contains modified crystal structure data generated from the
# MOF subset of the Cambridge Structural Database (CSD) v543 
# hosted by the Cambridge Crystallographic Data Centre (CCDC).
#
# This work is licensed under the Creative Commons
# Attribution-NonCommercial-ShareAlike 4.0 International License.
# To view a copy of this license, visit
# http://creativecommons.org/licenses/by-nc-sa/4.0/
# or send a letter to
# Creative Commons, PO Box 1866, Mountain View, CA 94042, USA.
#
# CIF created using the CSD Python API on 29 September 2022
# The structure has been converted into the P1 space group
# The structure has a 3D framework
# The original CSD entry WASMUB02 is in the orthorhombic crystal system
# The framework has been calculated to contain at least 10.0% void space
# The void calculation uses a probe of radius 1.32A, grid spacing 0.4
# The framework is charged, counterions have been retained in the structure
#
###############################################################################

data_WASMUB02
_chemical_formula_moiety         '(C120 H64 Fe4 N28 S16 4+)n'
_symmetry_cell_setting           triclinic
_symmetry_space_group_name_H-M   'P 1'
_symmetry_Int_Tables_number      1
_space_group_name_Hall           'P 1'
loop_
_symmetry_equiv_pos_site_id
_symmetry_equiv_pos_as_xyz
1 x,y,z
_cell_length_a                   15.348(3)
_cell_length_b                   30.693(2)
_cell_length_c                   9.8227(8)
_cell_angle_alpha                90
_cell_angle_beta                 90
_cell_angle_gamma                90
_cell_volume                     4627.24
loop_
_atom_site_label
_atom_site_type_symbol
_atom_site_fract_x
_atom_site_fract_y
_atom_site_fract_z
C6 C 0.0443(19) 0.8083(5) 0.5000
N8 N 0.1148(9) 0.8097(3) 0.5000
Fe2 Fe 0.23746(18) 0.78294(5) 0.5000
C9 C 0.8977(9) 0.4912(4) 0.0000
C10 C 0.8966(9) 0.4490(3) 0.0000
S2 S 0.9032(2) 0.41596(6) 0.1479(2)
C11 C 0.8721(8) 0.3673(2) 0.0643(8)
C12 C 0.8445(7) 0.3316(2) 0.1615(8)
C13 C 0.7924(10) 0.3410(5) 0.2730(16)
C14 C 0.8706(11) 0.2897(4) 0.1464(17)
C15 C 0.7656(12) 0.3084(5) 0.363(2)
H5 H 0.7749 0.3696 0.2881
H6 H 0.9030 0.2818 0.0703
C16 C 0.8490(12) 0.2577(5) 0.2454(17)
H7 H 0.7309 0.3160 0.4371
H8 H 0.8762 0.2307 0.2417
C17 C 0.8499(7) 0.5692(2) 0.0749(8)
C18 C 0.8300(8) 0.6046(2) 0.1598(8)
S3 S 0.8886(2) 0.52138(6) 0.1510(2)
C19 C 0.8804(12) 0.6195(5) 0.2708(19)
C20 C 0.7404(12) 0.6268(6) 0.153(2)
H9 H 0.9311 0.6039 0.2874
C21 C 0.8668(16) 0.6508(7) 0.350(3)
C22 C 0.7323(14) 0.6611(6) 0.233(2)
H10 H 0.6956 0.6169 0.0973
H11 H 0.9095 0.6619 0.4078
N9 N 0.7743(7) 0.6694(2) 0.3441(7)
H12 H 0.6917 0.6818 0.2059
Fe3 Fe 0.73746(18) 0.71706(5) 0.5000
N10 N 0.7889(12) 0.2655(4) 0.3467(16)
Fe4 Fe 0.76254(18) 0.21706(5) 0.5000
N1 N 0.8647(11) 0.7434(3) 0.5000
N2 N 0.7743(7) 0.6694(2) 0.6559(7)
N3 N 0.6148(9) 0.6903(3) 0.5000
N4 N 0.7111(12) 0.7655(4) 0.6533(16)
C1 C 0.9056(17) 0.7710(5) 0.5000
C2 C 0.8668(16) 0.6508(7) 0.650(3)
C3 C 0.7323(14) 0.6611(6) 0.767(2)
N5 N 0.9513(13) 0.8118(4) 0.5000
C4 C 0.8804(12) 0.6195(5) 0.7292(19)
H1 H 0.9095 0.6619 0.5922
H2 H 0.6917 0.6818 0.7941
C5 C 0.7404(12) 0.6268(6) 0.847(2)
C7 C 0.8300(8) 0.6046(2) 0.8402(8)
H3 H 0.9311 0.6039 0.7126
H4 H 0.6956 0.6169 0.9027
C8 C 0.8499(7) 0.5692(2) 0.9251(8)
S1 S 0.8886(2) 0.52138(6) 0.8490(2)
C9_2 C 0.8977(9) 0.4912(4) 1.0000
C10_2 C 0.8966(9) 0.4490(3) 1.0000
N7 N 0.7111(12) 0.7655(4) 0.3467(16)
S4 S 0.9032(2) 0.41596(6) 0.8521(2)
C23 C 0.8721(8) 0.3673(2) 0.9357(8)
C24 C 0.8445(7) 0.3316(2) 0.8385(8)
C25 C 0.7924(10) 0.3410(5) 0.7270(16)
C26 C 0.8706(11) 0.2897(4) 0.8536(17)
C27 C 0.7656(12) 0.3084(5) 0.637(2)
H13 H 0.7749 0.3696 0.7119
H14 H 0.9030 0.2818 0.9297
C28 C 0.8490(12) 0.2577(5) 0.7546(17)
H15 H 0.7309 0.3160 0.5629
N11 N 0.7889(12) 0.2655(4) 0.6533(16)
H16 H 0.8762 0.2307 0.7583
C9_3 C 0.1023(9) 0.5088(4) 0.0000
C10_3 C 0.1034(9) 0.5510(3) 0.0000
S2_2 S 0.0968(2) 0.58404(6) 0.1479(2)
C11_2 C 0.1279(8) 0.6327(2) 0.0643(8)
C12_2 C 0.1555(7) 0.6684(2) 0.1615(8)
C13_2 C 0.2076(10) 0.6590(5) 0.2730(16)
C14_2 C 0.1294(11) 0.7103(4) 0.1464(17)
C15_2 C 0.2344(12) 0.6916(5) 0.363(2)
H5_2 H 0.2251 0.6304 0.2881
H6_2 H 0.0970 0.7182 0.0703
C16_2 C 0.1510(12) 0.7423(5) 0.2454(17)
H7_2 H 0.2691 0.6840 0.4371
H8_2 H 0.1238 0.7693 0.2417
C17_2 C 0.1501(7) 0.4308(2) 0.0749(8)
C18_2 C 0.1700(8) 0.3954(2) 0.1598(8)
S3_2 S 0.1114(2) 0.47862(6) 0.1510(2)
C19_2 C 0.1196(12) 0.3805(5) 0.2708(19)
C20_2 C 0.2596(12) 0.3732(6) 0.153(2)
H9_2 H 0.0689 0.3961 0.2874
C21_2 C 0.1332(16) 0.3492(7) 0.350(3)
C22_2 C 0.2677(14) 0.3389(6) 0.233(2)
H10_2 H 0.3044 0.3831 0.0973
H11_2 H 0.0905 0.3381 0.4078
N9_2 N 0.2257(7) 0.3306(2) 0.3441(7)
H12_2 H 0.3083 0.3182 0.2059
Fe3_2 Fe 0.26254(18) 0.28294(5) 0.5000
N10_2 N 0.2111(12) 0.7345(4) 0.3467(16)
N1_2 N 0.1353(11) 0.2566(3) 0.5000
N2_2 N 0.2257(7) 0.3306(2) 0.6559(7)
N3_2 N 0.3852(9) 0.3097(3) 0.5000
N4_2 N 0.2889(12) 0.2345(4) 0.6533(16)
C1_2 C 0.0944(17) 0.2290(5) 0.5000
C2_2 C 0.1332(16) 0.3492(7) 0.650(3)
C3_2 C 0.2677(14) 0.3389(6) 0.767(2)
N5_2 N 0.0487(13) 0.1882(4) 0.5000
C4_2 C 0.1196(12) 0.3805(5) 0.7292(19)
H1_2 H 0.0905 0.3381 0.5922
H2_2 H 0.3083 0.3182 0.7941
C5_2 C 0.2596(12) 0.3732(6) 0.847(2)
C7_2 C 0.1700(8) 0.3954(2) 0.8402(8)
H3_2 H 0.0689 0.3961 0.7126
H4_2 H 0.3044 0.3831 0.9027
C8_2 C 0.1501(7) 0.4308(2) 0.9251(8)
S1_2 S 0.1114(2) 0.47862(6) 0.8490(2)
C9_4 C 0.1023(9) 0.5088(4) 1.0000
C10_4 C 0.1034(9) 0.5510(3) 1.0000
N7_2 N 0.2889(12) 0.2345(4) 0.3467(16)
S4_2 S 0.0968(2) 0.58404(6) 0.8521(2)
C23_2 C 0.1279(8) 0.6327(2) 0.9357(8)
C24_2 C 0.1555(7) 0.6684(2) 0.8385(8)
C25_2 C 0.2076(10) 0.6590(5) 0.7270(16)
C26_2 C 0.1294(11) 0.7103(4) 0.8536(17)
C27_2 C 0.2344(12) 0.6916(5) 0.637(2)
H13_2 H 0.2251 0.6304 0.7119
H14_2 H 0.0970 0.7182 0.9297
C28_2 C 0.1510(12) 0.7423(5) 0.7546(17)
H15_2 H 0.2691 0.6840 0.5629
N11_2 N 0.2111(12) 0.7345(4) 0.6533(16)
H16_2 H 0.1238 0.7693 0.7583
C6_2 C 0.9557(19) 0.1917(5) 0.5000
N8_2 N 0.8852(9) 0.1903(3) 0.5000
N1_3 N 0.6353(11) 0.2434(3) 0.5000
N2_3 N 0.7257(7) 0.1694(2) 0.3441(7)
C1_3 C 0.5944(17) 0.2710(5) 0.5000
C2_3 C 0.6332(16) 0.1508(7) 0.350(3)
C3_3 C 0.7677(14) 0.1611(6) 0.233(2)
N5_3 N 0.5487(13) 0.3118(4) 0.5000
C4_3 C 0.6196(12) 0.1195(5) 0.2708(19)
H1_3 H 0.5905 0.1619 0.4078
H2_3 H 0.8083 0.1818 0.2059
C5_3 C 0.7596(12) 0.1268(6) 0.153(2)
C6_3 C 0.4557(19) 0.3083(5) 0.5000
C7_3 C 0.6700(8) 0.1046(2) 0.1598(8)
H3_3 H 0.5689 0.1039 0.2874
H4_3 H 0.8044 0.1169 0.0973
C8_3 C 0.6501(7) 0.0692(2) 0.0749(8)
S1_3 S 0.6114(2) 0.02138(6) 0.1510(2)
N6 N 0.7257(7) 0.1694(2) 0.6559(7)
C17_3 C 0.6501(7) 0.0692(2) 0.9251(8)
C18_3 C 0.6700(8) 0.1046(2) 0.8402(8)
S3_3 S 0.6114(2) 0.02138(6) 0.8490(2)
C19_3 C 0.6196(12) 0.1195(5) 0.7292(19)
C20_3 C 0.7596(12) 0.1268(6) 0.847(2)
H9_3 H 0.5689 0.1039 0.7126
C21_3 C 0.6332(16) 0.1508(7) 0.650(3)
C22_3 C 0.7677(14) 0.1611(6) 0.767(2)
H10_3 H 0.8044 0.1169 0.9027
H11_3 H 0.5905 0.1619 0.5922
H12_3 H 0.8083 0.1818 0.7941
C9_5 C 0.6023(9) 0.9912(4) -0.0000
C10_5 C 0.6034(9) 0.9490(3) -0.0000
S4_3 S 0.5968(2) 0.91596(6) 0.1479(2)
C23_3 C 0.6279(8) 0.8673(2) 0.0643(8)
C24_3 C 0.6555(7) 0.8316(2) 0.1615(8)
C25_3 C 0.7076(10) 0.8410(5) 0.2730(16)
C26_3 C 0.6294(11) 0.7897(4) 0.1464(17)
C27_3 C 0.7344(12) 0.8084(5) 0.363(2)
H13_3 H 0.7251 0.8696 0.2881
H14_3 H 0.5970 0.7818 0.0703
C28_3 C 0.6510(12) 0.7577(5) 0.2454(17)
H15_3 H 0.7691 0.8160 0.4371
H16_3 H 0.6238 0.7307 0.2417
C9_6 C 0.6023(9) 0.9912(4) 1.0000
C10_6 C 0.6034(9) 0.9490(3) 1.0000
S2_3 S 0.5968(2) 0.91596(6) 0.8521(2)
C11_3 C 0.6279(8) 0.8673(2) 0.9357(8)
C12_3 C 0.6555(7) 0.8316(2) 0.8385(8)
C13_3 C 0.7076(10) 0.8410(5) 0.7270(16)
C14_3 C 0.6294(11) 0.7897(4) 0.8536(17)
C15_3 C 0.7344(12) 0.8084(5) 0.637(2)
H5_3 H 0.7251 0.8696 0.7119
H6_3 H 0.5970 0.7818 0.9297
C16_3 C 0.6510(12) 0.7577(5) 0.7546(17)
H7_3 H 0.7691 0.8160 0.5629
H8_3 H 0.6238 0.7307 0.7583
C9_7 C 0.3977(9) 0.0088(4) -0.0000
C10_7 C 0.3966(9) 0.0510(3) -0.0000
S4_4 S 0.4032(2) 0.08404(6) 0.1479(2)
C23_4 C 0.3721(8) 0.1327(2) 0.0643(8)
C24_4 C 0.3445(7) 0.1684(2) 0.1615(8)
C25_4 C 0.2924(10) 0.1590(5) 0.2730(16)
C26_4 C 0.3706(11) 0.2103(4) 0.1464(17)
C27_4 C 0.2656(12) 0.1916(5) 0.363(2)
H13_4 H 0.2749 0.1304 0.2881
H14_4 H 0.4030 0.2182 0.0703
C28_4 C 0.3490(12) 0.2423(5) 0.2454(17)
H15_4 H 0.2309 0.1840 0.4371
H16_4 H 0.3762 0.2693 0.2417
C9_8 C 0.3977(9) 0.0088(4) 1.0000
C10_8 C 0.3966(9) 0.0510(3) 1.0000
S2_4 S 0.4032(2) 0.08404(6) 0.8521(2)
C11_4 C 0.3721(8) 0.1327(2) 0.9357(8)
C12_4 C 0.3445(7) 0.1684(2) 0.8385(8)
C13_4 C 0.2924(10) 0.1590(5) 0.7270(16)
C14_4 C 0.3706(11) 0.2103(4) 0.8536(17)
C15_4 C 0.2656(12) 0.1916(5) 0.637(2)
H5_4 H 0.2749 0.1304 0.7119
H6_4 H 0.4030 0.2182 0.9297
C16_4 C 0.3490(12) 0.2423(5) 0.7546(17)
H7_4 H 0.2309 0.1840 0.5629
H8_4 H 0.3762 0.2693 0.7583
N1_4 N 0.3647(11) 0.7566(3) 0.5000
N2_4 N 0.2743(7) 0.8306(2) 0.3441(7)
C1_4 C 0.4056(17) 0.7290(5) 0.5000
C2_4 C 0.3668(16) 0.8492(7) 0.350(3)
C3_4 C 0.2323(14) 0.8389(6) 0.233(2)
N5_4 N 0.4513(13) 0.6882(4) 0.5000
C4_4 C 0.3804(12) 0.8805(5) 0.2708(19)
H1_4 H 0.4095 0.8381 0.4078
H2_4 H 0.1917 0.8182 0.2059
C5_4 C 0.2404(12) 0.8732(6) 0.153(2)
C6_4 C 0.5443(19) 0.6917(5) 0.5000
C7_4 C 0.3300(8) 0.8954(2) 0.1598(8)
H3_4 H 0.4311 0.8961 0.2874
H4_4 H 0.1956 0.8831 0.0973
C8_4 C 0.3499(7) 0.9308(2) 0.0749(8)
S1_4 S 0.3886(2) 0.97862(6) 0.1510(2)
N6_2 N 0.2743(7) 0.8306(2) 0.6559(7)
C17_4 C 0.3499(7) 0.9308(2) 0.9251(8)
C18_4 C 0.3300(8) 0.8954(2) 0.8402(8)
S3_4 S 0.3886(2) 0.97862(6) 0.8490(2)
C19_4 C 0.3804(12) 0.8805(5) 0.7292(19)
C20_4 C 0.2404(12) 0.8732(6) 0.847(2)
H9_4 H 0.4311 0.8961 0.7126
C21_4 C 0.3668(16) 0.8492(7) 0.650(3)
C22_4 C 0.2323(14) 0.8389(6) 0.767(2)
H10_4 H 0.1956 0.8831 0.9027
H11_4 H 0.4095 0.8381 0.5922
H12_4 H 0.1917 0.8182 0.7941
loop_
_geom_bond_atom_site_label_1
_geom_bond_atom_site_label_2
_geom_bond_site_symmetry_1
_geom_bond_site_symmetry_2
C6 N8 1_555 1_555
N8 Fe2 1_555 1_555
C10 C9 1_555 1_555
S2 C10 1_555 1_555
C11 S2 1_555 1_555
C12 C11 1_555 1_555
C13 C12 1_555 1_555
C14 C12 1_555 1_555
C15 C13 1_555 1_555
H5 C13 1_555 1_555
H6 C14 1_555 1_555
C16 C14 1_555 1_555
H7 C15 1_555 1_555
H8 C16 1_555 1_555
C18 C17 1_555 1_555
S3 C9 1_555 1_555
C19 C18 1_555 1_555
C20 C18 1_555 1_555
H9 C19 1_555 1_555
C21 C19 1_555 1_555
C22 C20 1_555 1_555
H10 C20 1_555 1_555
H11 C21 1_555 1_555
N9 C21 1_555 1_555
H12 C22 1_555 1_555
Fe3 N9 1_555 1_555
N10 C15 1_555 1_555
Fe4 N10 1_555 1_555
C16 N10 1_555 1_555
C17 S3 1_555 1_555
C22 N9 1_555 1_555
Fe3 N1 1_555 1_555
N1 C1 1_555 1_555
N2 Fe3 1_555 1_555
N3 Fe3 1_555 1_555
N4 Fe3 1_555 1_555
C1 N5 1_555 1_555
C2 N2 1_555 1_555
C3 N2 1_555 1_555
C4 C2 1_555 1_555
H1 C2 1_555 1_555
H2 C3 1_555 1_555
C5 C3 1_555 1_555
C7 C4 1_555 1_555
H3 C4 1_555 1_555
H4 C5 1_555 1_555
C8 C7 1_555 1_555
S1 C8 1_555 1_555
C9_2 S1 1_555 1_555
C10_2 C9_2 1_555 1_555
N7 Fe3 1_555 1_555
S4 C10_2 1_555 1_555
C24 C23 1_555 1_555
C25 C24 1_555 1_555
C26 C24 1_555 1_555
C27 C25 1_555 1_555
H13 C25 1_555 1_555
H14 C26 1_555 1_555
C28 C26 1_555 1_555
H15 C27 1_555 1_555
N11 C27 1_555 1_555
H16 C28 1_555 1_555
Fe4 N11 1_555 1_555
C5 C7 1_555 1_555
S4 C23 1_555 1_555
C28 N11 1_555 1_555
C10_3 C9_3 1_555 1_555
S2_2 C10_3 1_555 1_555
C11_2 S2_2 1_555 1_555
C12_2 C11_2 1_555 1_555
C13_2 C12_2 1_555 1_555
C14_2 C12_2 1_555 1_555
C15_2 C13_2 1_555 1_555
H5_2 C13_2 1_555 1_555
H6_2 C14_2 1_555 1_555
C16_2 C14_2 1_555 1_555
H7_2 C15_2 1_555 1_555
H8_2 C16_2 1_555 1_555
C18_2 C17_2 1_555 1_555
S3_2 C9_3 1_555 1_555
C19_2 C18_2 1_555 1_555
C20_2 C18_2 1_555 1_555
H9_2 C19_2 1_555 1_555
C21_2 C19_2 1_555 1_555
C22_2 C20_2 1_555 1_555
H10_2 C20_2 1_555 1_555
H11_2 C21_2 1_555 1_555
N9_2 C21_2 1_555 1_555
H12_2 C22_2 1_555 1_555
Fe3_2 N9_2 1_555 1_555
N10_2 C15_2 1_555 1_555
Fe2 N10_2 1_555 1_555
C16_2 N10_2 1_555 1_555
C17_2 S3_2 1_555 1_555
C22_2 N9_2 1_555 1_555
Fe3_2 N1_2 1_555 1_555
N1_2 C1_2 1_555 1_555
N2_2 Fe3_2 1_555 1_555
N3_2 Fe3_2 1_555 1_555
N4_2 Fe3_2 1_555 1_555
C1_2 N5_2 1_555 1_555
C2_2 N2_2 1_555 1_555
C3_2 N2_2 1_555 1_555
C4_2 C2_2 1_555 1_555
H1_2 C2_2 1_555 1_555
H2_2 C3_2 1_555 1_555
C5_2 C3_2 1_555 1_555
C7_2 C4_2 1_555 1_555
H3_2 C4_2 1_555 1_555
H4_2 C5_2 1_555 1_555
C8_2 C7_2 1_555 1_555
S1_2 C8_2 1_555 1_555
C9_4 S1_2 1_555 1_555
C10_4 C9_4 1_555 1_555
N7_2 Fe3_2 1_555 1_555
S4_2 C10_4 1_555 1_555
C24_2 C23_2 1_555 1_555
C25_2 C24_2 1_555 1_555
C26_2 C24_2 1_555 1_555
C27_2 C25_2 1_555 1_555
H13_2 C25_2 1_555 1_555
H14_2 C26_2 1_555 1_555
C28_2 C26_2 1_555 1_555
H15_2 C27_2 1_555 1_555
N11_2 C27_2 1_555 1_555
H16_2 C28_2 1_555 1_555
Fe2 N11_2 1_555 1_555
C5_2 C7_2 1_555 1_555
S4_2 C23_2 1_555 1_555
C28_2 N11_2 1_555 1_555
C6_2 N8_2 1_555 1_555
N8_2 Fe4 1_555 1_555
Fe4 N1_3 1_555 1_555
N1_3 C1_3 1_555 1_555
N2_3 Fe4 1_555 1_555
C1_3 N5_3 1_555 1_555
C2_3 N2_3 1_555 1_555
C3_3 N2_3 1_555 1_555
N5_3 C6_3 1_555 1_555
C4_3 C2_3 1_555 1_555
H1_3 C2_3 1_555 1_555
H2_3 C3_3 1_555 1_555
C5_3 C3_3 1_555 1_555
C6_3 N3_2 1_555 1_555
C7_3 C4_3 1_555 1_555
H3_3 C4_3 1_555 1_555
H4_3 C5_3 1_555 1_555
C8_3 C7_3 1_555 1_555
S1_3 C8_3 1_555 1_555
N6 Fe4 1_555 1_555
C5_3 C7_3 1_555 1_555
C18_3 C17_3 1_555 1_555
C19_3 C18_3 1_555 1_555
C20_3 C18_3 1_555 1_555
H9_3 C19_3 1_555 1_555
C21_3 C19_3 1_555 1_555
C22_3 C20_3 1_555 1_555
H10_3 C20_3 1_555 1_555
H11_3 C21_3 1_555 1_555
N6 C21_3 1_555 1_555
H12_3 C22_3 1_555 1_555
C17_3 S3_3 1_555 1_555
C22_3 N6 1_555 1_555
C10_5 C9_5 1_555 1_555
S4_3 C10_5 1_555 1_555
C24_3 C23_3 1_555 1_555
C25_3 C24_3 1_555 1_555
C26_3 C24_3 1_555 1_555
C27_3 C25_3 1_555 1_555
H13_3 C25_3 1_555 1_555
H14_3 C26_3 1_555 1_555
C28_3 C26_3 1_555 1_555
H15_3 C27_3 1_555 1_555
N7 C27_3 1_555 1_555
H16_3 C28_3 1_555 1_555
S4_3 C23_3 1_555 1_555
C28_3 N7 1_555 1_555
C10_6 C9_6 1_555 1_555
S2_3 C10_6 1_555 1_555
C11_3 S2_3 1_555 1_555
C12_3 C11_3 1_555 1_555
C13_3 C12_3 1_555 1_555
C14_3 C12_3 1_555 1_555
C15_3 C13_3 1_555 1_555
H5_3 C13_3 1_555 1_555
H6_3 C14_3 1_555 1_555
C16_3 C14_3 1_555 1_555
H7_3 C15_3 1_555 1_555
H8_3 C16_3 1_555 1_555
N4 C15_3 1_555 1_555
C16_3 N4 1_555 1_555
C10_7 C9_7 1_555 1_555
S4_4 C10_7 1_555 1_555
C24_4 C23_4 1_555 1_555
C25_4 C24_4 1_555 1_555
C26_4 C24_4 1_555 1_555
C27_4 C25_4 1_555 1_555
H13_4 C25_4 1_555 1_555
H14_4 C26_4 1_555 1_555
C28_4 C26_4 1_555 1_555
H15_4 C27_4 1_555 1_555
N7_2 C27_4 1_555 1_555
H16_4 C28_4 1_555 1_555
S4_4 C23_4 1_555 1_555
C28_4 N7_2 1_555 1_555
C10_8 C9_8 1_555 1_555
S2_4 C10_8 1_555 1_555
C11_4 S2_4 1_555 1_555
C12_4 C11_4 1_555 1_555
C13_4 C12_4 1_555 1_555
C14_4 C12_4 1_555 1_555
C15_4 C13_4 1_555 1_555
H5_4 C13_4 1_555 1_555
H6_4 C14_4 1_555 1_555
C16_4 C14_4 1_555 1_555
H7_4 C15_4 1_555 1_555
H8_4 C16_4 1_555 1_555
N4_2 C15_4 1_555 1_555
C16_4 N4_2 1_555 1_555
Fe2 N1_4 1_555 1_555
N1_4 C1_4 1_555 1_555
N2_4 Fe2 1_555 1_555
C1_4 N5_4 1_555 1_555
C2_4 N2_4 1_555 1_555
C3_4 N2_4 1_555 1_555
N5_4 C6_4 1_555 1_555
C4_4 C2_4 1_555 1_555
H1_4 C2_4 1_555 1_555
H2_4 C3_4 1_555 1_555
C5_4 C3_4 1_555 1_555
C6_4 N3 1_555 1_555
C7_4 C4_4 1_555 1_555
H3_4 C4_4 1_555 1_555
H4_4 C5_4 1_555 1_555
C8_4 C7_4 1_555 1_555
S1_4 C8_4 1_555 1_555
N6_2 Fe2 1_555 1_555
C5_4 C7_4 1_555 1_555
C18_4 C17_4 1_555 1_555
C19_4 C18_4 1_555 1_555
C20_4 C18_4 1_555 1_555
H9_4 C19_4 1_555 1_555
C21_4 C19_4 1_555 1_555
C22_4 C20_4 1_555 1_555
H10_4 C20_4 1_555 1_555
H11_4 C21_4 1_555 1_555
N6_2 C21_4 1_555 1_555
H12_4 C22_4 1_555 1_555
C17_4 S3_4 1_555 1_555
C22_4 N6_2 1_555 1_555

#END
