
###############################################################################
#
# This file contains modified crystal structure data generated from the
# MOF subset of the Cambridge Structural Database (CSD) v543 
# hosted by the Cambridge Crystallographic Data Centre (CCDC).
#
# This work is licensed under the Creative Commons
# Attribution-NonCommercial-ShareAlike 4.0 International License.
# To view a copy of this license, visit
# http://creativecommons.org/licenses/by-nc-sa/4.0/
# or send a letter to
# Creative Commons, PO Box 1866, Mountain View, CA 94042, USA.
#
# CIF created using the CSD Python API on 29 September 2022
# The structure has been converted into the P1 space group
# The structure has a 3D framework
# The original CSD entry WASNOU is in the triclinic crystal system
# The framework has been calculated to contain at least 10.0% void space
# The void calculation uses a probe of radius 1.32A, grid spacing 0.4
# The framework is charged, counterions have been retained in the structure
# H atom positions have been added when not included in the experimental data
# Generated hydrogen atom positions removed from atoms on special positions
#
###############################################################################

data_WASNOU
_chemical_formula_moiety         '(C70 H80 Cu9 N19 O17)n'
_symmetry_cell_setting           triclinic
_symmetry_space_group_name_H-M   'P 1'
_symmetry_Int_Tables_number      1
_space_group_name_Hall           'P 1'
loop_
_symmetry_equiv_pos_site_id
_symmetry_equiv_pos_as_xyz
1 x,y,z
_cell_length_a                   10.702(2)
_cell_length_b                   11.186(2)
_cell_length_c                   22.584(5)
_cell_angle_alpha                93.80(3)
_cell_angle_beta                 90.13(3)
_cell_angle_gamma                115.57(3)
_cell_volume                     2432
loop_
_atom_site_label
_atom_site_type_symbol
_atom_site_fract_x
_atom_site_fract_y
_atom_site_fract_z
Cu10 Cu 0.0000 0.0000 0.0000
Cu10_2 Cu -0.0000 0.0000 1.0000
Cu10_3 Cu 0.0000 1.0000 0.0000
H68 H 0.0569 0.8565 0.7662
C58 C 0.0048(4) 0.9301(4) 0.87269(16)
H70 H 0.0483 0.8763 0.8804
Cu10_4 Cu 0.0000 1.0000 1.0000
Cu10_5 Cu 1.0000 0.0000 0.0000
C59 C 0.9036(4) 0.0301(4) 0.8256(2)
H71 H 0.8650 0.0584 0.7957
C60 C 0.9096(4) 0.0635(4) 0.88390(19)
H72 H 0.8757 0.1205 0.9016
N17 N 0.9734(3) 0.0007(3) 0.91347(13)
Cu10_6 Cu 1.0000 0.0000 1.0000
Cu10_7 Cu 1.0000 1.0000 0.0000
C41 C 0.6448(4) 0.4966(4) 0.16497(16)
H45 H 0.5958 0.4045 0.1608
C42 C 0.7848(5) 0.6922(5) 0.1968(2)
H46 H 0.8530 0.7627 0.2194
C43 C 0.7149(5) 0.7046(5) 0.1503(2)
H47 H 0.7254 0.7834 0.1349
C44 C 0.5254(4) 0.5390(4) 0.07937(16)
H48 H 0.5758 0.5593 0.0429
H49 H 0.4694 0.4437 0.0778
C45 C 0.4319(4) 0.6078(4) 0.08302(16)
H50 H 0.4883 0.7028 0.0828
H51 H 0.3711 0.5798 0.0478
C46 C 0.3435(4) 0.5814(4) 0.13749(17)
H52 H 0.4031 0.6114 0.1730
H53 H 0.2866 0.4866 0.1384
C47 C 0.2518(4) 0.6522(5) 0.13687(18)
H54 H 0.1879 0.6166 0.1028
H55 H 0.3089 0.7456 0.1320
C48 C 0.0388(4) 0.5605(5) 0.19593(17)
C49 C 0.1105(4) 0.6730(5) 0.27909(19)
H57 H 0.1126 0.7059 0.3182
C50 C 0.2213(4) 0.7141(5) 0.2429(2)
H58 H 0.3109 0.7784 0.2522
C51 C 0.4824(4) 0.5266(4) 0.70596(17)
H59 H 0.4705 0.4660 0.7342
C52 C 0.4500(4) 0.6584(5) 0.65063(18)
H60 H 0.4099 0.7069 0.6332
C53 C 0.5754(4) 0.6637(5) 0.63851(19)
H61 H 0.6363 0.7152 0.6111
C54 C 0.7181(4) 0.5520(5) 0.6772(2)
H62 H 0.7283 0.5121 0.6391
H63 H 0.7033 0.4881 0.7066
C55 C 0.8488(5) 0.6739(5) 0.6934(2)
H64 H 0.9250 0.6491 0.6953
H65 H 0.8672 0.7344 0.6622
C56 C 0.8447(5) 0.7450(5) 0.75122(19)
H66 H 0.8345 0.6877 0.7831
H67 H 0.7647 0.7644 0.7507
C57 C 0.9771(5) 0.8757(5) 0.76337(18)
H69 H 0.9900 0.9318 0.7308
C61 C 0.2055(4) 0.3959(4) 0.49502(16)
C62 C 0.0916(4) 0.4422(4) 0.49943(15)
C63 C 0.0308(4) 0.4522(4) 0.44711(15)
H73 H 0.0501 0.4180 0.4115
C64 C 0.0590(3) 0.4874(4) 0.55311(15)
C65 C 0.1109(4) 0.4668(4) 0.61174(16)
N14 N 0.3908(3) 0.5691(3) 0.69319(13)
N15 N 0.5962(3) 0.5803(4) 0.67369(14)
N16 N 0.9662(3) 0.9455(3) 0.81869(13)
N19 N 0.7423(3) 0.5621(3) 0.20617(13)
N20 N 0.2577(3) 0.4379(3) 0.79383(13)
N21 N 0.6251(3) 0.5788(3) 0.12999(13)
N22 N 0.1722(3) 0.6407(4) 0.19035(14)
N24 N 0.0041(3) 0.4236(3) 0.75057(13)
O10 O 0.1867(3) 0.2953(3) 0.46377(13)
O11 O 0.3173(3) 0.4775(3) 0.52138(12)
O13 O 0.1173(3) 0.3615(3) 0.61809(12)
O14 O 0.1393(3) 0.5598(3) 0.65255(10)
O20 O 0.2537(3) 0.7165(3) 0.77372(12)
Cu5 Cu 0.5000 0.5000 0.5000
Cu6 Cu 0.20054(4) 0.51049(5) 0.725790(18)
Cu8 Cu 0.79946(4) 0.48951(5) 0.274210(18)
Cu10_8 Cu 1.0000 1.0000 1.0000
C5 C 0.5094(7) 0.0228(6) 0.4676(3)
H6 H 0.4785 0.0921 0.4651
H7 H 0.6071 0.0605 0.4590
C36 C 0.5652(5) 0.2937(4) 0.5441(2)
H38 H 0.6391 0.3140 0.5189
C37 C 0.3909(5) 0.2964(4) 0.5898(2)
H39 H 0.3213 0.3203 0.6020
C38 C 0.4117(5) 0.1949(5) 0.6096(2)
H40 H 0.3605 0.1373 0.6375
C39 C 0.5702(6) 0.0895(5) 0.5790(3)
H41 H 0.6681 0.1274 0.5706
H42 H 0.5591 0.0541 0.6178
N11 N 0.5227(4) 0.1938(4) 0.58048(19)
N12 N 0.4880(3) 0.3587(3) 0.54907(15)
C1 C 0.4348(5) 0.7063(4) 0.4559(2)
H1 H 0.3609 0.6860 0.4811
C2 C 0.6091(5) 0.7036(4) 0.4102(2)
H2 H 0.6787 0.6797 0.3980
C3 C 0.5883(5) 0.8051(5) 0.3904(2)
H3 H 0.6395 0.8627 0.3625
C4 C 0.4298(6) 0.9105(5) 0.4210(3)
H4 H 0.3319 0.8726 0.4294
H5 H 0.4409 0.9459 0.3822
C16 C 0.5176(4) 0.4734(4) 0.29404(17)
H22 H 0.5295 0.5340 0.2658
C17 C 0.5500(4) 0.3416(5) 0.34937(18)
H23 H 0.5901 0.2931 0.3668
C18 C 0.4246(4) 0.3363(5) 0.36149(19)
H24 H 0.3637 0.2848 0.3889
C19 C 0.2819(4) 0.4480(5) 0.3228(2)
H25 H 0.2717 0.4879 0.3609
H26 H 0.2967 0.5119 0.2934
C20 C 0.1512(5) 0.3261(5) 0.3066(2)
H27 H 0.0750 0.3509 0.3047
H28 H 0.1328 0.2656 0.3378
C21 C 0.1553(5) 0.2550(5) 0.24878(19)
H29 H 0.1655 0.3123 0.2169
H30 H 0.2353 0.2356 0.2493
C22 C 0.0229(5) 0.1243(5) 0.23663(18)
H32 H 0.0100 0.0682 0.2692
C26 C 0.7945(4) 0.6041(4) 0.50498(16)
C27 C 0.9084(4) 0.5578(4) 0.50057(15)
C28 C 0.9692(4) 0.5478(4) 0.55289(15)
H36 H 0.9499 0.5820 0.5885
C29 C 0.9410(3) 0.5126(4) 0.44689(15)
C30 C 0.8891(4) 0.5332(4) 0.38826(16)
N1 N 0.4773(4) 0.8062(4) 0.41952(19)
N2 N 0.5120(3) 0.6413(3) 0.45093(15)
N3 N 0.6092(3) 0.4309(3) 0.30681(13)
N4 N 0.4038(3) 0.4197(4) 0.32631(14)
N5 N 0.0338(3) 0.0545(3) 0.18131(13)
O1 O 0.8133(3) 0.7047(3) 0.53623(13)
O2 O 0.6827(3) 0.5225(3) 0.47862(12)
O3 O 0.8827(3) 0.6385(3) 0.38191(12)
O4 O 0.8607(3) 0.4402(3) 0.34745(10)
O9 O 0.7463(3) 0.2835(3) 0.22628(12)
C40 C 0.4906(7) 0.9772(6) 0.5324(3)
H43 H 0.5215 0.9079 0.5349
H44 H 0.3929 0.9395 0.5410
H56 H 0.9825 0.5004 0.1658
N23 N 0.9959(3) 0.5764(3) 0.24943(13)
C24 C 0.0964(4) 0.9699(4) 0.1744(2)
H34 H 0.1350 0.9416 0.2043
C25 C 0.0904(4) 0.9365(4) 0.11610(19)
H35 H 0.1243 0.8795 0.0984
N6 N 0.0266(3) 0.9993(3) 0.08653(13)
C66 C 0.0719(4) 0.2789(4) 0.00829(15)
C67 C 0.0311(4) 0.3923(3) 0.00660(15)
O17 O 0.1955(3) 0.3039(3) 0.00514(17)
C33 C 0.0828(4) 0.6052(3) 0.96636(15)
C35 C 0.1765(5) 0.7087(4) 0.9261(2)
O5 O 0.0266(3) 0.8356(2) 0.98806(11)
O7 O 0.1262(4) 0.7179(3) 0.87869(13)
O8 O 0.3002(4) 0.7720(4) 0.94255(17)
C69 C 0.1139(4) 0.4981(3) 0.97308(15)
H74 H 0.1912 0.4965 0.9550
H31 H 0.9431 0.1435 0.2338
C23 C 0.9952(4) 0.0699(4) 0.12731(16)
H33 H 0.9517 0.1237 0.1196
O16 O 0.9734(3) 0.1644(2) 0.01194(11)
C34 C 0.8861(4) 0.5019(3) 0.02692(15)
H37 H 0.8088 0.5035 0.0450
C68 C 0.9172(4) 0.3948(3) 0.03364(15)
C70 C 0.8235(5) 0.2913(4) 0.0739(2)
O18 O 0.8738(4) 0.2821(3) 0.12131(13)
O19 O 0.6998(4) 0.2280(4) 0.05745(17)
C31 C 0.9281(4) 0.7211(4) 0.99171(15)
C32 C 0.9689(4) 0.6077(3) 0.99340(15)
O6 O 0.8045(3) 0.6961(3) 0.99486(17)
H19 H 0.0175 0.4996 0.8342
C6 C 0.3552(4) 0.5034(4) 0.83503(16)
H8 H 0.4042 0.5955 0.8392
C7 C 0.2152(5) 0.3078(5) 0.8032(2)
H9 H 0.1470 0.2373 0.7806
C8 C 0.2851(5) 0.2954(5) 0.8497(2)
H10 H 0.2746 0.2166 0.8651
C9 C 0.4746(4) 0.4610(4) 0.92063(16)
H11 H 0.4242 0.4407 0.9571
H12 H 0.5306 0.5563 0.9222
C10 C 0.5681(4) 0.3922(4) 0.91698(16)
H13 H 0.5117 0.2972 0.9172
H14 H 0.6289 0.4202 0.9522
C11 C 0.6565(4) 0.4186(4) 0.86251(17)
H15 H 0.5969 0.3886 0.8270
H16 H 0.7134 0.5134 0.8616
C12 C 0.7482(4) 0.3478(5) 0.86313(18)
H17 H 0.8121 0.3834 0.8972
H18 H 0.6911 0.2544 0.8680
C13 C 0.9612(4) 0.4395(5) 0.80407(17)
C14 C 0.8895(4) 0.3270(5) 0.72091(19)
H20 H 0.8874 0.2941 0.6818
C15 C 0.7787(4) 0.2859(5) 0.7571(2)
H21 H 0.6891 0.2216 0.7478
N8 N 0.3749(3) 0.4212(3) 0.87001(13)
N9 N 0.8278(3) 0.3593(4) 0.80965(14)
loop_
_geom_bond_atom_site_label_1
_geom_bond_atom_site_label_2
_geom_bond_site_symmetry_1
_geom_bond_site_symmetry_2
C58 H70 1_555 1_555
C59 H71 1_555 1_555
C60 C59 1_555 1_555
H72 C60 1_555 1_555
Cu10_6 N17 1_555 1_555
C60 N17 1_555 1_555
C41 H45 1_555 1_555
C42 H46 1_555 1_555
C43 C42 1_555 1_555
H47 C43 1_555 1_555
C44 H48 1_555 1_555
H49 C44 1_555 1_555
C45 C44 1_555 1_555
H50 C45 1_555 1_555
H51 C45 1_555 1_555
C46 C45 1_555 1_555
H52 C46 1_555 1_555
H53 C46 1_555 1_555
C47 C46 1_555 1_555
H54 C47 1_555 1_555
H55 C47 1_555 1_555
C49 H57 1_555 1_555
C50 C49 1_555 1_555
H58 C50 1_555 1_555
C51 H59 1_555 1_555
C52 H60 1_555 1_555
C53 C52 1_555 1_555
H61 C53 1_555 1_555
C54 H62 1_555 1_555
H63 C54 1_555 1_555
C55 C54 1_555 1_555
H64 C55 1_555 1_555
H65 C55 1_555 1_555
C56 C55 1_555 1_555
H66 C56 1_555 1_555
H67 C56 1_555 1_555
C57 C56 1_555 1_555
H69 C57 1_555 1_555
C61 C62 1_555 1_555
C62 C63 1_555 1_555
H73 C63 1_555 1_555
C65 C64 1_555 1_555
N14 C51 1_555 1_555
N15 C51 1_555 1_555
N16 C57 1_555 1_555
N19 C41 1_555 1_555
N20 Cu6 1_555 1_555
N21 C41 1_555 1_555
N22 C47 1_555 1_555
N24 Cu6 1_555 1_555
O10 C61 1_555 1_555
O11 C61 1_555 1_555
O13 C65 1_555 1_555
O14 C65 1_555 1_555
O20 Cu6 1_555 1_555
Cu5 O11 1_555 1_555
Cu6 N14 1_555 1_555
Cu8 N19 1_555 1_555
C42 N19 1_555 1_555
C43 N21 1_555 1_555
C44 N21 1_555 1_555
C48 N22 1_555 1_555
C50 N22 1_555 1_555
C52 N14 1_555 1_555
C53 N15 1_555 1_555
C54 N15 1_555 1_555
C62 C64 1_555 1_555
O14 Cu6 1_555 1_555
H6 C5 1_555 1_555
H7 C5 1_555 1_555
C36 H38 1_555 1_555
C37 H39 1_555 1_555
C38 C37 1_555 1_555
H40 C38 1_555 1_555
C39 H41 1_555 1_555
H42 C39 1_555 1_555
N11 C36 1_555 1_555
N12 C36 1_555 1_555
Cu5 N12 1_555 1_555
C37 N12 1_555 1_555
C38 N11 1_555 1_555
C39 N11 1_555 1_555
C1 H1 1_555 1_555
C2 H2 1_555 1_555
C3 C2 1_555 1_555
H3 C3 1_555 1_555
C4 H4 1_555 1_555
H5 C4 1_555 1_555
C16 H22 1_555 1_555
C17 H23 1_555 1_555
C18 C17 1_555 1_555
H24 C18 1_555 1_555
C19 H25 1_555 1_555
H26 C19 1_555 1_555
C20 C19 1_555 1_555
H27 C20 1_555 1_555
H28 C20 1_555 1_555
C21 C20 1_555 1_555
H29 C21 1_555 1_555
H30 C21 1_555 1_555
C22 C21 1_555 1_555
H32 C22 1_555 1_555
C26 C27 1_555 1_555
C27 C28 1_555 1_555
C28 H36 1_555 1_555
C29 C27 1_555 1_555
C30 C29 1_555 1_555
N1 C1 1_555 1_555
N2 C1 1_555 1_555
N3 C16 1_555 1_555
N4 C16 1_555 1_555
N5 C22 1_555 1_555
O1 C26 1_555 1_555
O2 C26 1_555 1_555
O3 C30 1_555 1_555
O4 C30 1_555 1_555
O9 Cu8 1_555 1_555
Cu5 N2 1_555 1_555
Cu8 N3 1_555 1_555
H43 C40 1_555 1_555
H44 C40 1_555 1_555
N23 Cu8 1_555 1_555
C2 N2 1_555 1_555
C3 N1 1_555 1_555
C4 N1 1_555 1_555
C17 N3 1_555 1_555
C18 N4 1_555 1_555
C19 N4 1_555 1_555
O2 Cu5 1_555 1_555
O4 Cu8 1_555 1_555
C24 H34 1_555 1_555
C25 C24 1_555 1_555
H35 C25 1_555 1_555
Cu10_3 N6 1_555 1_555
C66 C67 1_555 1_555
O17 C66 1_555 1_555
C25 N6 1_555 1_555
C33 C35 1_555 1_555
C35 O7 1_555 1_555
O8 C35 1_555 1_555
C69 C33 1_555 1_555
H74 C69 1_555 1_555
O5 Cu10_4 1_555 1_555
C23 H33 1_555 1_555
O16 Cu10_5 1_555 1_555
H37 C34 1_555 1_555
C68 C34 1_555 1_555
C70 C68 1_555 1_555
O18 C70 1_555 1_555
O19 C70 1_555 1_555
C31 C32 1_555 1_555
O6 C31 1_555 1_555
C6 H8 1_555 1_555
C7 H9 1_555 1_555
C8 C7 1_555 1_555
H10 C8 1_555 1_555
C9 H11 1_555 1_555
H12 C9 1_555 1_555
C10 C9 1_555 1_555
H13 C10 1_555 1_555
H14 C10 1_555 1_555
C11 C10 1_555 1_555
H15 C11 1_555 1_555
H16 C11 1_555 1_555
C12 C11 1_555 1_555
H17 C12 1_555 1_555
H18 C12 1_555 1_555
C14 H20 1_555 1_555
C15 C14 1_555 1_555
H21 C15 1_555 1_555
N20 C6 1_555 1_555
N8 C6 1_555 1_555
N9 C12 1_555 1_555
C7 N20 1_555 1_555
C8 N8 1_555 1_555
C9 N8 1_555 1_555
C13 N9 1_555 1_555
C15 N9 1_555 1_555

#END
