
###############################################################################
#
# This file contains modified crystal structure data generated from the
# MOF subset of the Cambridge Structural Database (CSD) v543 
# hosted by the Cambridge Crystallographic Data Centre (CCDC).
#
# This work is licensed under the Creative Commons
# Attribution-NonCommercial-ShareAlike 4.0 International License.
# To view a copy of this license, visit
# http://creativecommons.org/licenses/by-nc-sa/4.0/
# or send a letter to
# Creative Commons, PO Box 1866, Mountain View, CA 94042, USA.
#
# CIF created using the CSD Python API on 29 September 2022
# The structure has been converted into the P1 space group
# The structure has a 3D framework
# The original CSD entry WASNUA is in the monoclinic crystal system
# The framework has been calculated to contain at least 10.0% void space
# The void calculation uses a probe of radius 1.32A, grid spacing 0.4
#
###############################################################################

data_WASNUA
_chemical_formula_moiety         '(C100 H108 Cu4 Fe4 N24 O16)n'
_symmetry_cell_setting           triclinic
_symmetry_space_group_name_H-M   'P 1'
_symmetry_Int_Tables_number      1
_space_group_name_Hall           'P 1'
loop_
_symmetry_equiv_pos_site_id
_symmetry_equiv_pos_as_xyz
1 x,y,z
_cell_length_a                   10.368(2)
_cell_length_b                   18.377(4)
_cell_length_c                   15.845(3)
_cell_angle_alpha                90
_cell_angle_beta                 96.86(3)
_cell_angle_gamma                90
_cell_volume                     2997.38
loop_
_atom_site_label
_atom_site_type_symbol
_atom_site_fract_x
_atom_site_fract_y
_atom_site_fract_z
Fe2 Fe 0.26486(6) 0.34885(4) 0.72963(4)
C43 C 0.0175(5) 0.2495(3) 0.7288(3)
C44 C 0.1271(4) 0.2770(2) 0.6836(3)
C45 C 0.2546(4) 0.2436(3) 0.6882(3)
H51 H 0.2835 0.2026 0.7191
C46 C 0.3263(5) 0.2869(3) 0.6356(3)
H52 H 0.4119 0.2788 0.6262
C47 C 0.2486(5) 0.3429(3) 0.6006(3)
H53 H 0.2736 0.3783 0.5639
C48 C 0.1247(4) 0.3379(2) 0.6296(3)
H54 H 0.0548 0.3692 0.6156
C51 C 0.4245(4) 0.3840(3) 0.8049(3)
C53 C 0.3526(5) 0.4449(3) 0.7674(3)
H56 H 0.3842 0.4800 0.7330
C55 C 0.2267(5) 0.4425(3) 0.7914(3)
H58 H 0.1600 0.4754 0.7755
C57 C 0.2198(5) 0.3797(3) 0.8451(3)
H60 H 0.1472 0.3648 0.8699
C59 C 0.3410(5) 0.3446(3) 0.8539(3)
H62 H 0.3630 0.3031 0.8860
O6 O 0.0253(3) 0.18978(17) 0.7644(2)
C3 C 0.0191(7) 0.3123(4) 0.0107(4)
H3 H 0.0872 0.3073 0.0541
C5 C 0.0394(9) 0.4812(5) 0.0527(6)
H6 H 0.1222 0.4577 0.0486
H7 H 0.0476 0.5170 0.0980
Cu3 Cu 0.21248(5) 0.75362(3) 0.20553(4)
C28 C 0.1480(5) 0.6466(3) 0.0712(4)
H30 H 0.2158 0.6166 0.0936
C29 C 0.0148(6) 0.7339(3) 0.0519(4)
N7 N 0.1176(4) 0.7088(2) 0.1019(2)
N9 N 0.0641(6) 0.6328(3) 0.0010(4)
H2 H 0.0271 0.2223 0.9400
C22 C 0.5631(5) 0.3644(3) 0.7953(3)
O3 O 0.6044(3) 0.30386(17) 0.8237(2)
O4 O 0.6260(3) 0.40962(18) 0.7591(2)
Cu2 Cu 0.78752(5) 0.24638(3) 0.79447(4)
C31 C 0.0681(7) 0.5709(3) 0.9416(4)
H33 H 0.0631 0.5894 0.8839
H34 H 0.1504 0.5457 0.9540
N8 N 0.8824(4) 0.2912(2) 0.8981(2)
N11 N 0.7454(4) 0.1560(2) 0.8661(2)
N14 N 0.6941(3) 0.20849(18) 0.6883(2)
O5 O 0.9201(3) 0.29149(16) 0.72719(18)
C4 C 0.9319(7) 0.4291(3) 0.0584(4)
H4 H 0.9369 0.4106 0.1161
H5 H 0.8496 0.4543 0.0460
C9 C 0.5922(6) 0.0874(3) 0.0425(4)
H11 H 0.6474 0.0847 0.0963
H12 H 0.5335 0.1281 0.0457
C10 C 0.5190(7) 0.0234(3) 0.0315(4)
H14 H 0.4376 0.0373 0.0514
H31 H 0.9729 0.7777 0.0600
C1 C 0.8520(5) 0.3534(3) 0.9288(4)
H1 H 0.7842 0.3834 0.9064
C2 C 0.9852(6) 0.2661(3) 0.9481(4)
C6 C 0.6539(5) 0.1528(3) 0.9157(3)
H8 H 0.5818 0.1833 0.9103
C7 C 0.8277(5) 0.1022(3) 0.8957(4)
H9 H 0.9032 0.0906 0.8722
C8 C 0.7886(6) 0.0674(3) 0.9625(4)
H10 H 0.8293 0.0290 0.9934
C11 C 0.6082(4) 0.1561(2) 0.6784(3)
H15 H 0.5816 0.1295 0.7232
C12 C 0.7032(4) 0.2326(2) 0.6059(3)
H16 H 0.7573 0.2699 0.5919
C13 C 0.6239(4) 0.1949(2) 0.5501(3)
H17 H 0.6117 0.2007 0.4914
C14 C 0.4736(4) 0.0884(2) 0.5623(3)
H18 H 0.4067 0.1102 0.5221
H19 H 0.4317 0.0665 0.6076
C15 C 0.5436(5) 0.0303(2) 0.5180(3)
H20 H 0.5839 0.0526 0.4722
H21 H 0.6122 0.0100 0.5581
N2 N 0.9359(6) 0.3672(3) 0.9990(4)
N4 N 0.6741(5) 0.1017(2) 0.9746(3)
N6 N 0.5634(3) 0.14518(19) 0.5978(2)
C30 C 0.9809(7) 0.6877(4) 0.9893(4)
H32 H 0.9128 0.6927 0.9459
C32 C 0.9606(9) 0.5188(5) 0.9473(6)
H35 H 0.8778 0.5423 0.9514
H36 H 0.9524 0.4830 0.9020
H42 H 0.4387 0.0080 0.9244
H13 H 0.5613 0.9920 0.0756
C33 C 0.3461(5) 0.8472(3) 0.0843(3)
H37 H 0.4182 0.8167 0.0897
C34 C 0.1723(5) 0.8978(3) 0.1043(4)
H38 H 0.0968 0.9094 0.1278
C35 C 0.2114(6) 0.9326(3) 0.0375(4)
H39 H 0.1707 0.9710 0.0066
N10 N 0.2546(4) 0.8440(2) 0.1339(2)
N12 N 0.3259(5) 0.8983(2) 0.0254(3)
C36 C 0.4078(6) 0.9126(3) 0.9575(4)
H40 H 0.3526 0.9153 0.9037
H41 H 0.4665 0.8719 0.9543
C37 C 0.4810(7) 0.9766(3) 0.9685(4)
H43 H 0.5624 0.9627 0.9486
C38 C 0.3918(4) 0.8439(2) 0.3216(3)
H44 H 0.4184 0.8705 0.2768
C39 C 0.2968(4) 0.7674(2) 0.3941(3)
H45 H 0.2427 0.7301 0.4081
C40 C 0.3761(4) 0.8051(2) 0.4499(3)
H46 H 0.3883 0.7993 0.5086
C41 C 0.5264(4) 0.9116(2) 0.4377(3)
H47 H 0.5933 0.8898 0.4779
H48 H 0.5683 0.9335 0.3924
C42 C 0.4564(5) 0.9697(2) 0.4820(3)
H49 H 0.4161 0.9474 0.5278
H50 H 0.3878 0.9900 0.4419
N13 N 0.3059(3) 0.79151(18) 0.3117(2)
N15 N 0.4366(3) 0.85482(19) 0.4022(2)
O1 O 0.0799(3) 0.70851(16) 0.27281(18)
Fe3 Fe 0.73514(6) 0.65115(4) 0.27037(4)
C49 C 0.4369(5) 0.6356(3) 0.2047(3)
C50 C 0.5755(4) 0.6160(3) 0.1951(3)
C52 C 0.6474(5) 0.5551(3) 0.2326(3)
H55 H 0.6158 0.5200 0.2670
C54 C 0.7733(5) 0.5575(3) 0.2086(3)
H57 H 0.8400 0.5246 0.2245
C56 C 0.7802(5) 0.6203(3) 0.1549(3)
H59 H 0.8528 0.6352 0.1301
C58 C 0.6590(5) 0.6554(3) 0.1461(3)
H61 H 0.6370 0.6969 0.1140
O7 O 0.3956(3) 0.69614(17) 0.1763(2)
O8 O 0.3740(3) 0.59038(18) 0.2409(2)
C16 C 0.9825(5) 0.7505(3) 0.2712(3)
C17 C 0.8729(4) 0.7230(2) 0.3164(3)
C18 C 0.7454(4) 0.7564(3) 0.3118(3)
H22 H 0.7165 0.7974 0.2809
C19 C 0.6737(5) 0.7131(3) 0.3644(3)
H23 H 0.5881 0.7212 0.3738
C20 C 0.7514(5) 0.6571(3) 0.3994(3)
H24 H 0.7264 0.6217 0.4361
C21 C 0.8753(4) 0.6621(2) 0.3704(3)
H25 H 0.9452 0.6308 0.3844
O2 O 0.9747(3) 0.81022(17) 0.2356(2)
H31_2 H 0.0271 0.2777 0.4400
C30_2 C 0.0191(7) 0.1877(4) 0.5107(4)
H32_2 H 0.0872 0.1927 0.5541
C32_2 C 0.0394(9) 0.0188(5) 0.5527(6)
H35_2 H 0.1222 0.0423 0.5486
H17_2 H 0.3883 0.7007 0.0086
H20_2 H 0.4161 0.5526 0.0278
Cu5 Cu 0.78752(5) 0.25362(3) 0.29447(4)
C38_2 C 0.6082(4) 0.3439(2) 0.1784(3)
H44_2 H 0.5816 0.3705 0.2232
C39_2 C 0.7032(4) 0.2674(2) 0.1059(3)
H45_2 H 0.7573 0.2301 0.0919
C40_2 C 0.6239(4) 0.3051(2) 0.0501(3)
C41_2 C 0.4736(4) 0.4116(2) 0.0623(3)
H47_2 H 0.4067 0.3898 0.0221
H48_2 H 0.4317 0.4335 0.1076
C42_2 C 0.5436(5) 0.4697(2) 0.0180(3)
H50_2 H 0.6122 0.4900 0.0581
N13_2 N 0.6941(3) 0.29151(18) 0.1883(2)
N15_2 N 0.5634(3) 0.35482(19) 0.0978(2)
Cu1 Cu 0.21248(5) 0.74638(3) 0.70553(4)
C1_2 C 0.1480(5) 0.8534(3) 0.5712(4)
H1_2 H 0.2158 0.8834 0.5936
C2_2 C 0.0148(6) 0.7661(3) 0.5519(4)
C4_2 C 0.0681(7) 0.9291(3) 0.4416(4)
H4_2 H 0.0631 0.9106 0.3839
H5_2 H 0.1504 0.9543 0.4540
C6_2 C 0.3461(5) 0.6528(3) 0.5843(3)
H8_2 H 0.4182 0.6833 0.5897
C7_2 C 0.1723(5) 0.6022(3) 0.6043(4)
H9_2 H 0.0968 0.5906 0.6278
C8_2 C 0.2114(6) 0.5674(3) 0.5375(4)
H10_2 H 0.1707 0.5290 0.5066
C9_2 C 0.4078(6) 0.5874(3) 0.4575(4)
H11_2 H 0.3526 0.5847 0.4037
H12_2 H 0.4665 0.6281 0.4543
C10_2 C 0.4810(7) 0.5234(3) 0.4685(4)
H13_2 H 0.4387 0.4920 0.4244
H14_2 H 0.5624 0.5373 0.4486
C11_2 C 0.3918(4) 0.6561(2) 0.8216(3)
H15_2 H 0.4184 0.6295 0.7768
C12_2 C 0.2968(4) 0.7326(2) 0.8941(3)
H16_2 H 0.2427 0.7699 0.9081
C13_2 C 0.3761(4) 0.6949(2) 0.9499(3)
C14_2 C 0.5264(4) 0.5884(2) 0.9377(3)
H18_2 H 0.5933 0.6102 0.9779
H19_2 H 0.5683 0.5665 0.8924
C15_2 C 0.4564(5) 0.5303(2) 0.9820(3)
H21_2 H 0.3878 0.5100 0.9419
N1 N 0.1176(4) 0.7912(2) 0.6019(2)
N2_2 N 0.0641(6) 0.8672(3) 0.5010(4)
N3 N 0.2546(4) 0.6560(2) 0.6339(2)
N4_2 N 0.3259(5) 0.6017(2) 0.5254(3)
N5 N 0.3059(3) 0.70849(18) 0.8117(2)
N6_2 N 0.4366(3) 0.64518(19) 0.9022(2)
O1_2 O 0.0799(3) 0.79149(16) 0.77281(18)
Fe3_2 Fe 0.73514(6) 0.84885(4) 0.77037(4)
H36_2 H 0.0476 0.9830 0.5980
C33_2 C 0.6539(5) 0.3472(3) 0.4157(3)
H37_2 H 0.5818 0.3167 0.4103
C34_2 C 0.8277(5) 0.3978(3) 0.3957(4)
H38_2 H 0.9032 0.4094 0.3722
C35_2 C 0.7886(6) 0.4326(3) 0.4625(4)
H39_2 H 0.8293 0.4710 0.4934
C36_2 C 0.5922(6) 0.4126(3) 0.5425(4)
H40_2 H 0.6474 0.4153 0.5963
H41_2 H 0.5335 0.3719 0.5457
C37_2 C 0.5190(7) 0.4766(3) 0.5315(4)
H42_2 H 0.5613 0.5080 0.5756
H43_2 H 0.4376 0.4627 0.5514
H46_2 H 0.6117 0.2993 0.9914
H49_2 H 0.5839 0.4474 0.9722
C49_2 C 0.4369(5) 0.8644(3) 0.7047(3)
C50_2 C 0.5755(4) 0.8840(3) 0.6951(3)
C52_2 C 0.6474(5) 0.9449(3) 0.7326(3)
H55_2 H 0.6158 0.9800 0.7670
C54_2 C 0.7733(5) 0.9425(3) 0.7086(3)
H57_2 H 0.8400 0.9754 0.7245
C56_2 C 0.7802(5) 0.8797(3) 0.6549(3)
H59_2 H 0.8528 0.8648 0.6301
C58_2 C 0.6590(5) 0.8446(3) 0.6461(3)
H61_2 H 0.6370 0.8031 0.6140
N10_2 N 0.7454(4) 0.3440(2) 0.3661(2)
N12_2 N 0.6741(5) 0.3983(2) 0.4746(3)
O7_2 O 0.3956(3) 0.80386(17) 0.6763(2)
O8_2 O 0.3740(3) 0.90962(18) 0.7409(2)
H7_2 H 0.9524 0.0170 0.4020
C28_2 C 0.8520(5) 0.1466(3) 0.4288(4)
H30_2 H 0.7842 0.1166 0.4064
C29_2 C 0.9852(6) 0.2339(3) 0.4481(4)
C31_2 C 0.9319(7) 0.0709(3) 0.5584(4)
H33_2 H 0.9369 0.0894 0.6161
H34_2 H 0.8496 0.0457 0.5460
N7_2 N 0.8824(4) 0.2088(2) 0.3981(2)
N9_2 N 0.9359(6) 0.1328(3) 0.4990(4)
H2_2 H 0.9729 0.7223 0.5600
C3_2 C 0.9809(7) 0.8123(4) 0.4893(4)
H3_2 H 0.9128 0.8073 0.4459
C5_2 C 0.9606(9) 0.9812(5) 0.4473(6)
H6_2 H 0.8778 0.9577 0.4514
C16_2 C 0.9825(5) 0.7495(3) 0.7712(3)
C17_2 C 0.8729(4) 0.7770(2) 0.8164(3)
C18_2 C 0.7454(4) 0.7436(3) 0.8118(3)
H22_2 H 0.7165 0.7026 0.7809
C19_2 C 0.6737(5) 0.7869(3) 0.8644(3)
H23_2 H 0.5881 0.7788 0.8738
C20_2 C 0.7514(5) 0.8429(3) 0.8994(3)
H24_2 H 0.7264 0.8783 0.9361
C21_2 C 0.8753(4) 0.8379(2) 0.8704(3)
H25_2 H 0.9452 0.8692 0.8844
O2_2 O 0.9747(3) 0.68978(17) 0.7356(2)
Fe2_2 Fe 0.26486(6) 0.15115(4) 0.22963(4)
C43_2 C 0.0175(5) 0.2505(3) 0.2288(3)
C44_2 C 0.1271(4) 0.2230(2) 0.1836(3)
C45_2 C 0.2546(4) 0.2564(3) 0.1882(3)
H51_2 H 0.2835 0.2974 0.2191
C46_2 C 0.3263(5) 0.2131(3) 0.1356(3)
H52_2 H 0.4119 0.2212 0.1262
C47_2 C 0.2486(5) 0.1571(3) 0.1006(3)
H53_2 H 0.2736 0.1217 0.0639
C48_2 C 0.1247(4) 0.1621(2) 0.1296(3)
H54_2 H 0.0548 0.1308 0.1156
C51_2 C 0.4245(4) 0.1160(3) 0.3049(3)
C53_2 C 0.3526(5) 0.0551(3) 0.2674(3)
H56_2 H 0.3842 0.0200 0.2330
C55_2 C 0.2267(5) 0.0575(3) 0.2914(3)
H58_2 H 0.1600 0.0246 0.2755
C57_2 C 0.2198(5) 0.1203(3) 0.3451(3)
H60_2 H 0.1472 0.1352 0.3699
C59_2 C 0.3410(5) 0.1554(3) 0.3539(3)
H62_2 H 0.3630 0.1969 0.3860
O6_2 O 0.0253(3) 0.31022(17) 0.2644(2)
C22_2 C 0.5631(5) 0.1356(3) 0.2953(3)
O3_2 O 0.6044(3) 0.19614(17) 0.3237(2)
O4_2 O 0.6260(3) 0.09038(18) 0.2591(2)
O5_2 O 0.9201(3) 0.20851(16) 0.22719(18)
loop_
_geom_bond_atom_site_label_1
_geom_bond_atom_site_label_2
_geom_bond_site_symmetry_1
_geom_bond_site_symmetry_2
Fe2 C44 1_555 1_555
C43 C44 1_555 1_555
C44 C45 1_555 1_555
C45 Fe2 1_555 1_555
H51 C45 1_555 1_555
C46 Fe2 1_555 1_555
H52 C46 1_555 1_555
C47 Fe2 1_555 1_555
H53 C47 1_555 1_555
C48 Fe2 1_555 1_555
H54 C48 1_555 1_555
C51 Fe2 1_555 1_555
C53 Fe2 1_555 1_555
H56 C53 1_555 1_555
C55 Fe2 1_555 1_555
H58 C55 1_555 1_555
C57 Fe2 1_555 1_555
H60 C57 1_555 1_555
C59 Fe2 1_555 1_555
H62 C59 1_555 1_555
O6 C43 1_555 1_555
C44 C48 1_555 1_555
C45 C46 1_555 1_555
C46 C47 1_555 1_555
C47 C48 1_555 1_555
C51 C53 1_555 1_555
C51 C59 1_555 1_555
C53 C55 1_555 1_555
C55 C57 1_555 1_555
C57 C59 1_555 1_555
H3 C3 1_555 1_555
H6 C5 1_555 1_555
H7 C5 1_555 1_555
Cu3 N7 1_555 1_555
C28 H30 1_555 1_555
N7 C28 1_555 1_555
N9 C28 1_555 1_555
C29 N7 1_555 1_555
C22 C51 1_555 1_555
O3 C22 1_555 1_555
O4 C22 1_555 1_555
Cu2 O3 1_555 1_555
C31 H33 1_555 1_555
H34 C31 1_555 1_555
N8 Cu2 1_555 1_555
N11 Cu2 1_555 1_555
N14 Cu2 1_555 1_555
O5 Cu2 1_555 1_555
C4 H4 1_555 1_555
H5 C4 1_555 1_555
C9 H11 1_555 1_555
H12 C9 1_555 1_555
C10 C9 1_555 1_555
H14 C10 1_555 1_555
C1 H1 1_555 1_555
C6 H8 1_555 1_555
C7 H9 1_555 1_555
C8 C7 1_555 1_555
H10 C8 1_555 1_555
C11 H15 1_555 1_555
C12 H16 1_555 1_555
C13 C12 1_555 1_555
H17 C13 1_555 1_555
C14 H18 1_555 1_555
H19 C14 1_555 1_555
C15 C14 1_555 1_555
H20 C15 1_555 1_555
H21 C15 1_555 1_555
N8 C1 1_555 1_555
N2 C1 1_555 1_555
N4 C6 1_555 1_555
N6 C11 1_555 1_555
H32 C30 1_555 1_555
H35 C32 1_555 1_555
H36 C32 1_555 1_555
C2 N8 1_555 1_555
C6 N11 1_555 1_555
C7 N11 1_555 1_555
C8 N4 1_555 1_555
C11 N14 1_555 1_555
C12 N14 1_555 1_555
C13 N6 1_555 1_555
C14 N6 1_555 1_555
Cu3 N10 1_555 1_555
C33 H37 1_555 1_555
C34 H38 1_555 1_555
C35 C34 1_555 1_555
H39 C35 1_555 1_555
N10 C33 1_555 1_555
N12 C33 1_555 1_555
C34 N10 1_555 1_555
C35 N12 1_555 1_555
Cu3 N13 1_555 1_555
C36 H40 1_555 1_555
H41 C36 1_555 1_555
H43 C37 1_555 1_555
C38 H44 1_555 1_555
C39 H45 1_555 1_555
C40 C39 1_555 1_555
H46 C40 1_555 1_555
C41 H47 1_555 1_555
H48 C41 1_555 1_555
H49 C42 1_555 1_555
H50 C42 1_555 1_555
N13 C38 1_555 1_555
N15 C38 1_555 1_555
C36 C37 1_555 1_555
C39 N13 1_555 1_555
C40 N15 1_555 1_555
C41 C42 1_555 1_555
C41 N15 1_555 1_555
O1 Cu3 1_555 1_555
Fe3 C50 1_555 1_555
C49 C50 1_555 1_555
C50 C52 1_555 1_555
C52 Fe3 1_555 1_555
H55 C52 1_555 1_555
C54 Fe3 1_555 1_555
H57 C54 1_555 1_555
C56 Fe3 1_555 1_555
H59 C56 1_555 1_555
C58 Fe3 1_555 1_555
H61 C58 1_555 1_555
O7 Cu3 1_555 1_555
O8 C49 1_555 1_555
C49 O7 1_555 1_555
C50 C58 1_555 1_555
C52 C54 1_555 1_555
C54 C56 1_555 1_555
C56 C58 1_555 1_555
Fe3 C17 1_555 1_555
C16 C17 1_555 1_555
C17 C18 1_555 1_555
C18 Fe3 1_555 1_555
H22 C18 1_555 1_555
C19 Fe3 1_555 1_555
H23 C19 1_555 1_555
C20 Fe3 1_555 1_555
H24 C20 1_555 1_555
C21 Fe3 1_555 1_555
H25 C21 1_555 1_555
O2 C16 1_555 1_555
C17 C21 1_555 1_555
C18 C19 1_555 1_555
C19 C20 1_555 1_555
C20 C21 1_555 1_555
H32_2 C30_2 1_555 1_555
H35_2 C32_2 1_555 1_555
Cu5 N13_2 1_555 1_555
C38_2 H44_2 1_555 1_555
C39_2 H45_2 1_555 1_555
C40_2 C39_2 1_555 1_555
C41_2 H47_2 1_555 1_555
H48_2 C41_2 1_555 1_555
H50_2 C42_2 1_555 1_555
N13_2 C38_2 1_555 1_555
N15_2 C38_2 1_555 1_555
C39_2 N13_2 1_555 1_555
C40_2 N15_2 1_555 1_555
C41_2 C42_2 1_555 1_555
C41_2 N15_2 1_555 1_555
Cu1 N1 1_555 1_555
C1_2 H1_2 1_555 1_555
C4_2 H4_2 1_555 1_555
H5_2 C4_2 1_555 1_555
C6_2 H8_2 1_555 1_555
C7_2 H9_2 1_555 1_555
C8_2 C7_2 1_555 1_555
H10_2 C8_2 1_555 1_555
C9_2 H11_2 1_555 1_555
H12_2 C9_2 1_555 1_555
C10_2 C9_2 1_555 1_555
H13_2 C10_2 1_555 1_555
H14_2 C10_2 1_555 1_555
C11_2 H15_2 1_555 1_555
C12_2 H16_2 1_555 1_555
C13_2 C12_2 1_555 1_555
C14_2 H18_2 1_555 1_555
H19_2 C14_2 1_555 1_555
C15_2 C14_2 1_555 1_555
H21_2 C15_2 1_555 1_555
N1 C1_2 1_555 1_555
N2_2 C1_2 1_555 1_555
N3 Cu1 1_555 1_555
N4_2 C6_2 1_555 1_555
N5 Cu1 1_555 1_555
N6_2 C11_2 1_555 1_555
O1_2 Cu1 1_555 1_555
Fe3_2 C50_2 1_555 1_555
Cu5 N10_2 1_555 1_555
C33_2 H37_2 1_555 1_555
C34_2 H38_2 1_555 1_555
C35_2 C34_2 1_555 1_555
H39_2 C35_2 1_555 1_555
C36_2 H40_2 1_555 1_555
H41_2 C36_2 1_555 1_555
C37_2 C10_2 1_555 1_555
H42_2 C37_2 1_555 1_555
H43_2 C37_2 1_555 1_555
C49_2 C50_2 1_555 1_555
C50_2 C52_2 1_555 1_555
C52_2 Fe3_2 1_555 1_555
H55_2 C52_2 1_555 1_555
C54_2 Fe3_2 1_555 1_555
H57_2 C54_2 1_555 1_555
C56_2 Fe3_2 1_555 1_555
H59_2 C56_2 1_555 1_555
C58_2 Fe3_2 1_555 1_555
H61_2 C58_2 1_555 1_555
N10_2 C33_2 1_555 1_555
N12_2 C33_2 1_555 1_555
O7_2 Cu1 1_555 1_555
O8_2 C49_2 1_555 1_555
C2_2 N1 1_555 1_555
C4_2 N2_2 1_555 1_555
C6_2 N3 1_555 1_555
C7_2 N3 1_555 1_555
C8_2 N4_2 1_555 1_555
C9_2 N4_2 1_555 1_555
C11_2 N5 1_555 1_555
C12_2 N5 1_555 1_555
C13_2 N6_2 1_555 1_555
C14_2 N6_2 1_555 1_555
C34_2 N10_2 1_555 1_555
C35_2 N12_2 1_555 1_555
C36_2 C37_2 1_555 1_555
C36_2 N12_2 1_555 1_555
C49_2 O7_2 1_555 1_555
C50_2 C58_2 1_555 1_555
C52_2 C54_2 1_555 1_555
C54_2 C56_2 1_555 1_555
C56_2 C58_2 1_555 1_555
Cu5 N7_2 1_555 1_555
C28_2 H30_2 1_555 1_555
C31_2 H33_2 1_555 1_555
H34_2 C31_2 1_555 1_555
N7_2 C28_2 1_555 1_555
N9_2 C28_2 1_555 1_555
C29_2 N7_2 1_555 1_555
C31_2 N9_2 1_555 1_555
Fe3_2 C17_2 1_555 1_555
H3_2 C3_2 1_555 1_555
H6_2 C5_2 1_555 1_555
C16_2 C17_2 1_555 1_555
C17_2 C18_2 1_555 1_555
C18_2 Fe3_2 1_555 1_555
H22_2 C18_2 1_555 1_555
C19_2 Fe3_2 1_555 1_555
H23_2 C19_2 1_555 1_555
C20_2 Fe3_2 1_555 1_555
H24_2 C20_2 1_555 1_555
C21_2 Fe3_2 1_555 1_555
H25_2 C21_2 1_555 1_555
O2_2 C16_2 1_555 1_555
C17_2 C21_2 1_555 1_555
C18_2 C19_2 1_555 1_555
C19_2 C20_2 1_555 1_555
C20_2 C21_2 1_555 1_555
Fe2_2 C44_2 1_555 1_555
C43_2 C44_2 1_555 1_555
C44_2 C45_2 1_555 1_555
C45_2 Fe2_2 1_555 1_555
H51_2 C45_2 1_555 1_555
C46_2 Fe2_2 1_555 1_555
H52_2 C46_2 1_555 1_555
C47_2 Fe2_2 1_555 1_555
H53_2 C47_2 1_555 1_555
C48_2 Fe2_2 1_555 1_555
H54_2 C48_2 1_555 1_555
C51_2 Fe2_2 1_555 1_555
C53_2 Fe2_2 1_555 1_555
H56_2 C53_2 1_555 1_555
C55_2 Fe2_2 1_555 1_555
H58_2 C55_2 1_555 1_555
C57_2 Fe2_2 1_555 1_555
H60_2 C57_2 1_555 1_555
C59_2 Fe2_2 1_555 1_555
H62_2 C59_2 1_555 1_555
O6_2 C43_2 1_555 1_555
C44_2 C48_2 1_555 1_555
C45_2 C46_2 1_555 1_555
C46_2 C47_2 1_555 1_555
C47_2 C48_2 1_555 1_555
C51_2 C53_2 1_555 1_555
C51_2 C59_2 1_555 1_555
C53_2 C55_2 1_555 1_555
C55_2 C57_2 1_555 1_555
C57_2 C59_2 1_555 1_555
C22_2 C51_2 1_555 1_555
O3_2 C22_2 1_555 1_555
O4_2 C22_2 1_555 1_555
Cu5 O3_2 1_555 1_555
O5_2 Cu5 1_555 1_555

#END
