
###############################################################################
#
# This file contains modified crystal structure data generated from the
# MOF subset of the Cambridge Structural Database (CSD) v543 
# hosted by the Cambridge Crystallographic Data Centre (CCDC).
#
# This work is licensed under the Creative Commons
# Attribution-NonCommercial-ShareAlike 4.0 International License.
# To view a copy of this license, visit
# http://creativecommons.org/licenses/by-nc-sa/4.0/
# or send a letter to
# Creative Commons, PO Box 1866, Mountain View, CA 94042, USA.
#
# CIF created using the CSD Python API on 29 September 2022
# The structure has been converted into the P1 space group
# The structure has a 3D framework
# The original CSD entry WASQIT is in the monoclinic crystal system
# The framework has been calculated to contain at least 10.0% void space
# The void calculation uses a probe of radius 1.32A, grid spacing 0.4
# The framework is charged, counterions have been retained in the structure
# H atom positions have been added when not included in the experimental data
#
###############################################################################

data_WASQIT
_chemical_formula_moiety         '(C496 H512 In8 N32 O60 24+)n'
_symmetry_cell_setting           triclinic
_symmetry_space_group_name_H-M   'P 1'
_symmetry_Int_Tables_number      1
_space_group_name_Hall           'P 1'
loop_
_symmetry_equiv_pos_site_id
_symmetry_equiv_pos_as_xyz
1 x,y,z
_cell_length_a                   38.3323(6)
_cell_length_b                   15.1848(3)
_cell_length_c                   32.1945(5)
_cell_angle_alpha                90
_cell_angle_beta                 91.6553(13)
_cell_angle_gamma                90
_cell_volume                     18731.6
loop_
_atom_site_label
_atom_site_type_symbol
_atom_site_fract_x
_atom_site_fract_y
_atom_site_fract_z
N1 N 0.6972(4) 0.8534(7) 0.5742(4)
C1 C 0.6945(3) 0.7595(7) 0.5791(4)
C2 C 0.6797(7) 0.8885(12) 0.5374(6)
H35 H 0.705906 0.726866 0.552604
H36 H 0.708418 0.739512 0.607523
H37 H 0.667132 0.741042 0.580881
H41 H 0.722887 0.86914 0.573033
H42 H 0.686747 0.882353 0.599389
H46 H 0.651967 0.873237 0.538152
H47 H 0.683215 0.959631 0.536465
H48 H 0.690742 0.859061 0.509875
N1_2 N 0.3028(4) 0.8534(7) 0.9258(4)
C1_2 C 0.3055(3) 0.7595(7) 0.9209(4)
C2_2 C 0.3203(7) 0.8885(12) 0.9626(6)
H35_2 H 0.294094 0.726866 0.947396
H36_2 H 0.291582 0.739512 0.892477
H37_2 H 0.332868 0.741042 0.919119
H41_2 H 0.277113 0.86914 0.926967
H42_2 H 0.313253 0.882353 0.900611
H46_2 H 0.348033 0.873237 0.961848
H47_2 H 0.316785 0.959631 0.963535
H48_2 H 0.309258 0.859061 0.990125
N1_3 N 0.1972(4) 0.3534(7) 0.5742(4)
C1_3 C 0.1945(3) 0.2595(7) 0.5791(4)
C2_3 C 0.1797(7) 0.3885(12) 0.5374(6)
H35_3 H 0.205906 0.226866 0.552604
H36_3 H 0.208418 0.239512 0.607523
H37_3 H 0.167132 0.241042 0.580881
H41_3 H 0.222887 0.36914 0.573033
H42_3 H 0.186747 0.382353 0.599389
H46_3 H 0.151967 0.373237 0.538152
H47_3 H 0.183215 0.459631 0.536465
H48_3 H 0.190742 0.359061 0.509875
N1_4 N 0.8028(4) 0.3534(7) 0.9258(4)
C1_4 C 0.8055(3) 0.2595(7) 0.9209(4)
C2_4 C 0.8203(7) 0.3885(12) 0.9626(6)
H35_4 H 0.794094 0.226866 0.947396
H36_4 H 0.791582 0.239512 0.892477
H37_4 H 0.832868 0.241042 0.919119
H41_4 H 0.777113 0.36914 0.926967
H42_4 H 0.813253 0.382353 0.900611
H46_4 H 0.848033 0.373237 0.961848
H47_4 H 0.816785 0.459631 0.963535
H48_4 H 0.809258 0.359061 0.990125
N1_5 N 0.3028(4) 0.1466(7) 0.4258(4)
C1_5 C 0.3055(3) 0.2405(7) 0.4209(4)
C2_5 C 0.3203(7) 0.1115(12) 0.4626(6)
H35_5 H 0.294094 0.273134 0.447396
H36_5 H 0.291582 0.260488 0.392477
H37_5 H 0.332868 0.258958 0.419119
H41_5 H 0.277113 0.13086 0.426967
H42_5 H 0.313253 0.117647 0.400611
H46_5 H 0.348033 0.126763 0.461848
H47_5 H 0.316785 0.0403693 0.463535
H48_5 H 0.309258 0.140939 0.490125
N1_6 N 0.6972(4) 0.1466(7) 0.0742(4)
C1_6 C 0.6945(3) 0.2405(7) 0.0791(4)
C2_6 C 0.6797(7) 0.1115(12) 0.0374(6)
H35_6 H 0.705906 0.273134 0.0526044
H36_6 H 0.708418 0.260488 0.107523
H37_6 H 0.667132 0.258958 0.0808814
H41_6 H 0.722887 0.13086 0.0730332
H42_6 H 0.686747 0.117647 0.0993887
H46_6 H 0.651967 0.126763 0.0381519
H47_6 H 0.683215 0.0403693 0.0364645
H48_6 H 0.690742 0.140939 0.0098749
N1_7 N 0.8028(4) 0.6466(7) 0.4258(4)
C1_7 C 0.8055(3) 0.7405(7) 0.4209(4)
C2_7 C 0.8203(7) 0.6115(12) 0.4626(6)
H35_7 H 0.794094 0.773134 0.447396
H36_7 H 0.791582 0.760488 0.392477
H37_7 H 0.832868 0.758958 0.419119
H41_7 H 0.777113 0.63086 0.426967
H42_7 H 0.813253 0.617647 0.400611
H46_7 H 0.848033 0.626763 0.461848
H47_7 H 0.816785 0.540369 0.463535
H48_7 H 0.809258 0.640939 0.490125
N1_8 N 0.1972(4) 0.6466(7) 0.0742(4)
C1_8 C 0.1945(3) 0.7405(7) 0.0791(4)
C2_8 C 0.1797(7) 0.6115(12) 0.0374(6)
H35_8 H 0.205906 0.773134 0.0526044
H36_8 H 0.208418 0.760488 0.107523
H37_8 H 0.167132 0.758958 0.0808814
H41_8 H 0.222887 0.63086 0.0730332
H42_8 H 0.186747 0.617647 0.0993887
H46_8 H 0.151967 0.626763 0.0381519
H47_8 H 0.183215 0.540369 0.0364645
H48_8 H 0.190742 0.640939 0.0098749
N2 N 0.7347(6) 0.4268(12) 0.5477(5)
C3 C 0.7357(6) 0.3851(12) 0.5074(5)
C4 C 0.7157(4) 0.5093(9) 0.5491(5)
H43 H 0.68865 0.498318 0.539176
H44 H 0.716612 0.534779 0.580732
H45 H 0.727573 0.556745 0.528444
H49 H 0.759665 0.43861 0.557508
H50 H 0.723387 0.384153 0.567511
H57 H 0.748124 0.429119 0.485591
H58 H 0.750529 0.324067 0.509919
H59 H 0.709201 0.370692 0.496323
H57_2 H 0.251876 0.429119 0.0144093
H59_2 H 0.290799 0.370692 0.00367694
N2_2 N 0.2653(6) 0.4268(12) 0.9523(5)
C3_2 C 0.2643(6) 0.3851(12) 0.9926(5)
C4_2 C 0.2843(4) 0.5093(9) 0.9509(5)
H43_2 H 0.31135 0.498318 0.960824
H44_2 H 0.283388 0.534779 0.919268
H45_2 H 0.272427 0.556745 0.971556
H49_2 H 0.240335 0.43861 0.942492
H50_2 H 0.276613 0.384153 0.932489
H58_2 H 0.249471 0.324067 0.990081
C4_3 C 0.2157(4) 0.0093(9) 0.5491(5)
H44_3 H 0.216612 0.0347792 0.580732
H45_3 H 0.227573 0.0567452 0.528444
N2_3 N 0.2347(6) 0.9268(12) 0.5477(5)
C3_3 C 0.2357(6) 0.8851(12) 0.5074(5)
H43_3 H 0.18865 0.998318 0.539176
H49_3 H 0.259665 0.93861 0.557508
H50_3 H 0.223387 0.884153 0.567511
H57_3 H 0.248124 0.929119 0.485591
H58_3 H 0.250529 0.824067 0.509919
H59_3 H 0.209201 0.870692 0.496323
C4_4 C 0.7843(4) 0.0093(9) 0.9509(5)
H44_4 H 0.783388 0.0347792 0.919268
H45_4 H 0.772427 0.0567452 0.971556
H57_4 H 0.751876 0.929119 0.0144093
H59_4 H 0.790799 0.870692 0.00367694
N2_4 N 0.7653(6) 0.9268(12) 0.9523(5)
C3_4 C 0.7643(6) 0.8851(12) 0.9926(5)
H43_4 H 0.81135 0.998318 0.960824
H49_4 H 0.740335 0.93861 0.942492
H50_4 H 0.776613 0.884153 0.932489
H58_4 H 0.749471 0.824067 0.990081
N2_5 N 0.2653(6) 0.5732(12) 0.4523(5)
C3_5 C 0.2643(6) 0.6149(12) 0.4926(5)
C4_5 C 0.2843(4) 0.4907(9) 0.4509(5)
H43_5 H 0.31135 0.501682 0.460824
H44_5 H 0.283388 0.465221 0.419268
H45_5 H 0.272427 0.443255 0.471556
H49_5 H 0.240335 0.56139 0.442492
H50_5 H 0.276613 0.615847 0.432489
H57_5 H 0.251876 0.570881 0.514409
H58_5 H 0.249471 0.675933 0.490081
H59_5 H 0.290799 0.629308 0.503677
N2_6 N 0.7347(6) 0.5732(12) 0.0477(5)
C3_6 C 0.7357(6) 0.6149(12) 0.0074(5)
C4_6 C 0.7157(4) 0.4907(9) 0.0491(5)
H43_6 H 0.68865 0.501682 0.0391759
H44_6 H 0.716612 0.465221 0.0807316
H45_6 H 0.727573 0.443255 0.0284436
H49_6 H 0.759665 0.56139 0.0575084
H50_6 H 0.723387 0.615847 0.0675115
H58_6 H 0.750529 0.675933 0.00991923
H57_6 H 0.748124 0.570881 0.985591
H59_6 H 0.709201 0.629308 0.996323
N2_7 N 0.7653(6) 0.0732(12) 0.4523(5)
C3_7 C 0.7643(6) 0.1149(12) 0.4926(5)
H43_7 H 0.81135 0.00168232 0.460824
H49_7 H 0.740335 0.0613897 0.442492
H50_7 H 0.776613 0.115847 0.432489
H57_7 H 0.751876 0.0708807 0.514409
H58_7 H 0.749471 0.175933 0.490081
H59_7 H 0.790799 0.129308 0.503677
C4_7 C 0.7843(4) 0.9907(9) 0.4509(5)
H44_7 H 0.783388 0.965221 0.419268
H45_7 H 0.772427 0.943255 0.471556
N2_8 N 0.2347(6) 0.0732(12) 0.0477(5)
C3_8 C 0.2357(6) 0.1149(12) 0.0074(5)
H43_8 H 0.18865 0.00168232 0.0391759
H49_8 H 0.259665 0.0613897 0.0575084
H50_8 H 0.223387 0.115847 0.0675115
H58_8 H 0.250529 0.175933 0.00991923
H57_8 H 0.248124 0.0708807 0.985591
H59_8 H 0.209201 0.129308 0.996323
C4_8 C 0.2157(4) 0.9907(9) 0.0491(5)
H44_8 H 0.216612 0.965221 0.0807316
H45_8 H 0.227573 0.943255 0.0284436
N3 N 0.3767(4) 0.6011(10) 0.5336(5)
C5 C 0.3992(8) 0.5257(14) 0.5401(10)
C6 C 0.3809(7) 0.6709(12) 0.5642(7)
H33 H 0.351596 0.579925 0.533986
H34 H 0.381612 0.626796 0.505258
H51 H 0.394153 0.496267 0.570181
H52 H 0.394047 0.477455 0.515658
H53 H 0.426357 0.546555 0.539359
H54 H 0.407584 0.695488 0.564076
H55 H 0.362883 0.724333 0.556563
H56 H 0.37538 0.645199 0.594898
N3_2 N 0.6233(4) 0.6011(10) 0.9664(5)
C5_2 C 0.6008(8) 0.5257(14) 0.9599(10)
C6_2 C 0.6191(7) 0.6709(12) 0.9358(7)
H33_2 H 0.648404 0.579925 0.966014
H34_2 H 0.618388 0.626796 0.994742
H51_2 H 0.605847 0.496267 0.929819
H52_2 H 0.605953 0.477455 0.984342
H53_2 H 0.573643 0.546555 0.960641
H54_2 H 0.592416 0.695488 0.935924
H55_2 H 0.637117 0.724333 0.943437
H56_2 H 0.62462 0.645199 0.905102
N3_3 N 0.8767(4) 0.1011(10) 0.5336(5)
C5_3 C 0.8992(8) 0.0257(14) 0.5401(10)
C6_3 C 0.8809(7) 0.1709(12) 0.5642(7)
H33_3 H 0.851596 0.0799253 0.533986
H34_3 H 0.881612 0.126796 0.505258
H53_3 H 0.926357 0.0465552 0.539359
H54_3 H 0.907584 0.195488 0.564076
H55_3 H 0.862883 0.224333 0.556563
H56_3 H 0.87538 0.145199 0.594898
H51_3 H 0.894153 0.996267 0.570181
H52_3 H 0.894047 0.977455 0.515658
N3_4 N 0.1233(4) 0.1011(10) 0.9664(5)
C5_4 C 0.1008(8) 0.0257(14) 0.9599(10)
C6_4 C 0.1191(7) 0.1709(12) 0.9358(7)
H33_4 H 0.148404 0.0799253 0.966014
H34_4 H 0.118388 0.126796 0.994742
H53_4 H 0.0736434 0.0465552 0.960641
H54_4 H 0.0924156 0.195488 0.935924
H55_4 H 0.137117 0.224333 0.943437
H56_4 H 0.12462 0.145199 0.905102
H51_4 H 0.105847 0.996267 0.929819
H52_4 H 0.105953 0.977455 0.984342
N3_5 N 0.6233(4) 0.3989(10) 0.4664(5)
C5_5 C 0.6008(8) 0.4743(14) 0.4599(10)
C6_5 C 0.6191(7) 0.3291(12) 0.4358(7)
H33_5 H 0.648404 0.420075 0.466014
H34_5 H 0.618388 0.373204 0.494742
H51_5 H 0.605847 0.503733 0.429819
H52_5 H 0.605953 0.522545 0.484342
H53_5 H 0.573643 0.453445 0.460641
H54_5 H 0.592416 0.304512 0.435924
H55_5 H 0.637117 0.275667 0.443437
H56_5 H 0.62462 0.354801 0.405102
N3_6 N 0.3767(4) 0.3989(10) 0.0336(5)
C5_6 C 0.3992(8) 0.4743(14) 0.0401(10)
C6_6 C 0.3809(7) 0.3291(12) 0.0642(7)
H33_6 H 0.351596 0.420075 0.0339858
H34_6 H 0.381612 0.373204 0.00525766
H51_6 H 0.394153 0.503733 0.0701815
H52_6 H 0.394047 0.522545 0.0156582
H53_6 H 0.426357 0.453445 0.0393588
H54_6 H 0.407584 0.304512 0.0640757
H55_6 H 0.362883 0.275667 0.0565631
H56_6 H 0.37538 0.354801 0.0948984
H51_7 H 0.105847 0.00373306 0.429819
H52_7 H 0.105953 0.022545 0.484342
N3_7 N 0.1233(4) 0.8989(10) 0.4664(5)
C5_7 C 0.1008(8) 0.9743(14) 0.4599(10)
C6_7 C 0.1191(7) 0.8291(12) 0.4358(7)
H33_7 H 0.148404 0.920075 0.466014
H34_7 H 0.118388 0.873204 0.494742
H53_7 H 0.0736434 0.953445 0.460641
H54_7 H 0.0924156 0.804512 0.435924
H55_7 H 0.137117 0.775667 0.443437
H56_7 H 0.12462 0.854801 0.405102
H51_8 H 0.894153 0.00373306 0.0701815
H52_8 H 0.894047 0.022545 0.0156582
N3_8 N 0.8767(4) 0.8989(10) 0.0336(5)
C5_8 C 0.8992(8) 0.9743(14) 0.0401(10)
C6_8 C 0.8809(7) 0.8291(12) 0.0642(7)
H33_8 H 0.851596 0.920075 0.0339858
H34_8 H 0.881612 0.873204 0.00525766
H53_8 H 0.926357 0.953445 0.0393588
H54_8 H 0.907584 0.804512 0.0640757
H55_8 H 0.862883 0.775667 0.0565631
H56_8 H 0.87538 0.854801 0.0948984
N4 N 0.6660(5) 0.2251(10) 0.7549(5)
C7 C 0.6541(8) 0.2291(18) 0.7116(5)
C8 C 0.6540(7) 0.1485(14) 0.7775(7)
H38 H 0.625691 0.230604 0.709934
H39 H 0.664321 0.288348 0.697279
H40 H 0.663384 0.171341 0.695188
H60 H 0.657358 0.279842 0.769486
H61 H 0.692489 0.224606 0.755742
H62 H 0.663281 0.0888533 0.76263
H63 H 0.664141 0.151148 0.809423
H64 H 0.625588 0.148116 0.777377
N4_2 N 0.3340(5) 0.2251(10) 0.7451(5)
C7_2 C 0.3459(8) 0.2291(18) 0.7884(5)
C8_2 C 0.3460(7) 0.1485(14) 0.7225(7)
H38_2 H 0.374309 0.230604 0.790066
H39_2 H 0.335679 0.288348 0.802721
H40_2 H 0.336616 0.171341 0.804812
H60_2 H 0.342642 0.279842 0.730514
H61_2 H 0.307511 0.224606 0.744258
H62_2 H 0.336719 0.0888533 0.73737
H63_2 H 0.335859 0.151148 0.690577
H64_2 H 0.374412 0.148116 0.722623
N4_3 N 0.1660(5) 0.7251(10) 0.7549(5)
C7_3 C 0.1541(8) 0.7291(18) 0.7116(5)
C8_3 C 0.1540(7) 0.6485(14) 0.7775(7)
H38_3 H 0.125691 0.730604 0.709934
H39_3 H 0.164321 0.788348 0.697279
H40_3 H 0.163384 0.671341 0.695188
H60_3 H 0.157358 0.779842 0.769486
H61_3 H 0.192489 0.724606 0.755742
H62_3 H 0.163281 0.588853 0.76263
H63_3 H 0.164141 0.651148 0.809423
H64_3 H 0.125588 0.648116 0.777377
N4_4 N 0.8340(5) 0.7251(10) 0.7451(5)
C7_4 C 0.8459(8) 0.7291(18) 0.7884(5)
C8_4 C 0.8460(7) 0.6485(14) 0.7225(7)
H38_4 H 0.874309 0.730604 0.790066
H39_4 H 0.835679 0.788348 0.802721
H40_4 H 0.836616 0.671341 0.804812
H60_4 H 0.842642 0.779842 0.730514
H61_4 H 0.807511 0.724606 0.744258
H62_4 H 0.836719 0.588853 0.73737
H63_4 H 0.835859 0.651148 0.690577
H64_4 H 0.874412 0.648116 0.722623
N4_5 N 0.3340(5) 0.7749(10) 0.2451(5)
C7_5 C 0.3459(8) 0.7709(18) 0.2884(5)
C8_5 C 0.3460(7) 0.8515(14) 0.2225(7)
H38_5 H 0.374309 0.769396 0.290066
H39_5 H 0.335679 0.711652 0.302721
H40_5 H 0.336616 0.828659 0.304812
H60_5 H 0.342642 0.720158 0.230514
H61_5 H 0.307511 0.775394 0.244258
H62_5 H 0.336719 0.911147 0.23737
H63_5 H 0.335859 0.848852 0.190577
H64_5 H 0.374412 0.851884 0.222623
N4_6 N 0.6660(5) 0.7749(10) 0.2549(5)
C7_6 C 0.6541(8) 0.7709(18) 0.2116(5)
C8_6 C 0.6540(7) 0.8515(14) 0.2775(7)
H38_6 H 0.625691 0.769396 0.209934
H39_6 H 0.664321 0.711652 0.197279
H40_6 H 0.663384 0.828659 0.195188
H60_6 H 0.657358 0.720158 0.269486
H61_6 H 0.692489 0.775394 0.255742
H62_6 H 0.663281 0.911147 0.26263
H63_6 H 0.664141 0.848852 0.309423
H64_6 H 0.625588 0.851884 0.277377
N4_7 N 0.8340(5) 0.2749(10) 0.2451(5)
C7_7 C 0.8459(8) 0.2709(18) 0.2884(5)
C8_7 C 0.8460(7) 0.3515(14) 0.2225(7)
H38_7 H 0.874309 0.269396 0.290066
H39_7 H 0.835679 0.211652 0.302721
H40_7 H 0.836616 0.328659 0.304812
H60_7 H 0.842642 0.220158 0.230514
H61_7 H 0.807511 0.275394 0.244258
H62_7 H 0.836719 0.411147 0.23737
H63_7 H 0.835859 0.348852 0.190577
H64_7 H 0.874412 0.351884 0.222623
N4_8 N 0.1660(5) 0.2749(10) 0.2549(5)
C7_8 C 0.1541(8) 0.2709(18) 0.2116(5)
C8_8 C 0.1540(7) 0.3515(14) 0.2775(7)
H38_8 H 0.125691 0.269396 0.209934
H39_8 H 0.164321 0.211652 0.197279
H40_8 H 0.163384 0.328659 0.195188
H60_8 H 0.157358 0.220158 0.269486
H61_8 H 0.192489 0.275394 0.255742
H62_8 H 0.163281 0.411147 0.26263
H63_8 H 0.164141 0.348852 0.309423
H64_8 H 0.125588 0.351884 0.277377
In1 In 0.78590(2) 0.04024(2) 0.80123(2)
O1 O 0.74270(8) 0.0611(2) 0.75276(10)
C11 C 0.68748(13) 0.0030(3) 0.69961(16)
H1 H 0.6904 0.0634 0.7029
H2 H 0.6448 0.0087 0.6611
O9 O 0.81493(7) 0.1417(2) 0.76391(9)
O10 O 0.82898(9) 0.0041(2) 0.75737(10)
O11 O 0.74468(9) 0.0218(2) 0.84705(10)
O12 O 0.75883(7) 0.1582(2) 0.83424(9)
O14 O 0.82925(7) 0.0656(2) 0.84840(9)
O2 O 0.75807(7) 0.9257(2) 0.76800(10)
O3 O 0.31493(7) 0.6417(2) 0.76391(9)
O4 O 0.32898(9) 0.5041(2) 0.75737(10)
O5 O 0.74468(9) 0.9782(2) 0.34705(10)
O6 O 0.75883(7) 0.8418(2) 0.33424(9)
O7 O 0.31291(8) 0.5715(2) 0.33846(10)
O8 O 0.32925(7) 0.4344(2) 0.34840(9)
C9 C 0.73882(11) 0.9791(3) 0.74819(14)
C10 C 0.71050(12) 0.9439(3) 0.71981(15)
C12 C 0.66009(14) 0.9698(3) 0.6745(2)
C13 C 0.65547(12) 0.8801(3) 0.66950(15)
C14 C 0.67923(12) 0.8220(3) 0.68844(15)
H3 H 0.6770 0.7617 0.6840
C15 C 0.70630(13) 0.8541(3) 0.71403(16)
H4 H 0.7216 0.8150 0.7273
C16 C 0.62582(11) 0.8460(3) 0.64419(14)
C17 C 0.61164(11) 0.8911(3) 0.61070(14)
H5 H 0.6211 0.9453 0.6037
C18 C 0.58378(10) 0.8587(3) 0.58703(14)
H6 H 0.5750 0.8908 0.5645
C19 C 0.56880(10) 0.7775(3) 0.59705(12)
C20 C 0.58210(11) 0.7323(3) 0.63140(14)
H7 H 0.5716 0.6799 0.6393
C21 C 0.61028(13) 0.7632(3) 0.65385(14)
H8 H 0.6195 0.7299 0.6758
C22 C 0.53837(9) 0.7404(3) 0.57247(12)
C23 C 0.50789(10) 0.7169(3) 0.59801(12)
C24 C 0.49270(15) 0.7787(4) 0.62280(19)
H9 H 0.5014 0.8359 0.6232
C25 C 0.46513(15) 0.7581(4) 0.6468(2)
H10 H 0.4555 0.8019 0.6631
C26 C 0.45109(10) 0.6752(3) 0.64773(13)
C27 C 0.46811(17) 0.6129(4) 0.6255(2)
H11 H 0.4617 0.5542 0.6282
C28 C 0.49437(16) 0.6339(4) 0.5994(2)
H12 H 0.5032 0.5906 0.5822
C29 C 0.42061(11) 0.6525(3) 0.67355(13)
C30 C 0.39978(14) 0.7157(4) 0.69040(19)
H13 H 0.4045 0.7747 0.6852
C31 C 0.37173(14) 0.6941(4) 0.71520(18)
H14 H 0.3583 0.7386 0.7264
C32 C 0.36393(11) 0.6083(3) 0.72304(13)
C33 C 0.3847(2) 0.5438(4) 0.7068(3)
H15 H 0.3804 0.4849 0.7129
C34 C 0.4122(2) 0.5660(5) 0.6811(3)
H16 H 0.4250 0.5215 0.6688
C35 C 0.33388(11) 0.5847(3) 0.74940(12)
C36 C 0.53859(9) 0.7285(3) 0.53111(12)
C37 C 0.56946(10) 0.7486(3) 0.50554(12)
C38 C 0.56648(12) 0.8132(4) 0.47492(15)
H17 H 0.5452 0.8414 0.4700
C39 C 0.59513(12) 0.8359(4) 0.45171(16)
H18 H 0.5930 0.8817 0.4327
C40 C 0.62663(10) 0.7925(3) 0.45603(13)
C41 C 0.62922(10) 0.7258(3) 0.48595(14)
H19 H 0.6500 0.6947 0.4892
C42 C 0.60124(10) 0.7048(3) 0.51106(14)
H20 H 0.6038 0.6617 0.5314
C43 C 0.65695(11) 0.8178(3) 0.43090(14)
C44 C 0.66277(16) 0.9046(4) 0.4214(2)
H21 H 0.6476 0.9468 0.4315
C45 C 0.69036(17) 0.9324(4) 0.3975(2)
H22 H 0.6942 0.9919 0.3927
C46 C 0.71203(11) 0.8682(3) 0.38090(13)
C47 C 0.70709(12) 0.7818(4) 0.39022(17)
H23 H 0.7220 0.7396 0.3796
C48 C 0.67974(12) 0.7551(4) 0.41565(16)
H24 H 0.6769 0.6959 0.4222
C49 C 0.74017(10) 0.8965(3) 0.35259(13)
C50 C 0.50745(10) 0.6978(3) 0.50655(12)
C51 C 0.47526(11) 0.7395(3) 0.50849(14)
H25 H 0.4726 0.7869 0.5264
C52 C 0.44731(11) 0.7115(3) 0.48406(15)
H26 H 0.4264 0.7423 0.4850
C53 C 0.44946(11) 0.6385(3) 0.45810(13)
C54 C 0.48184(12) 0.5961(4) 0.45630(17)
H27 H 0.4844 0.5477 0.4390
C55 C 0.51004(12) 0.6258(4) 0.48002(18)
H28 H 0.5313 0.5968 0.4782
C56 C 0.41887(11) 0.6055(3) 0.43228(14)
C57 C 0.39504(13) 0.6649(3) 0.41548(16)
H29 H 0.3980 0.7248 0.4203
C58 C 0.36678(13) 0.6356(3) 0.39147(17)
H30 H 0.3508 0.6760 0.3804
C59 C 0.36215(13) 0.5485(3) 0.38393(16)
C60 C 0.38543(12) 0.4865(3) 0.40157(15)
H31 H 0.3819 0.4266 0.3974
C61 C 0.41416(12) 0.5168(3) 0.42559(15)
H32 H 0.4301 0.4767 0.4370
C62 C 0.33293(11) 0.5162(3) 0.35553(13)
In2 In 0.28590(2) 0.54024(2) 0.80123(2)
In3 In 0.78590(2) 0.95976(2) 0.30123(2)
In4 In 0.28590(2) 0.45976(2) 0.30123(2)
O13 O 0.81291(8) 0.9285(2) 0.83846(10)
O1_2 O 0.24270(8) 0.5611(2) 0.75276(10)
O2_2 O 0.25807(7) 0.4257(2) 0.76800(10)
O5_2 O 0.24468(9) 0.4782(2) 0.34705(10)
O6_2 O 0.25883(7) 0.3418(2) 0.33424(9)
C9_2 C 0.23882(11) 0.4791(3) 0.74819(14)
C10_2 C 0.21050(12) 0.4439(3) 0.71981(15)
C11_2 C 0.18748(13) 0.5030(3) 0.69961(16)
H1_2 H 0.1904 0.5634 0.7029
C12_2 C 0.16009(14) 0.4698(3) 0.6745(2)
H2_2 H 0.1448 0.5087 0.6611
C13_2 C 0.15547(12) 0.3801(3) 0.66950(15)
C14_2 C 0.17923(12) 0.3220(3) 0.68844(15)
H3_2 H 0.1770 0.2617 0.6840
C15_2 C 0.20630(13) 0.3541(3) 0.71403(16)
H4_2 H 0.2216 0.3150 0.7273
C16_2 C 0.12582(11) 0.3460(3) 0.64419(14)
C17_2 C 0.11164(11) 0.3911(3) 0.61070(14)
H5_2 H 0.1211 0.4453 0.6037
C18_2 C 0.08378(10) 0.3587(3) 0.58703(14)
H6_2 H 0.0750 0.3908 0.5645
C19_2 C 0.06880(10) 0.2775(3) 0.59705(12)
C20_2 C 0.08210(11) 0.2323(3) 0.63140(14)
H7_2 H 0.0716 0.1799 0.6393
C21_2 C 0.11028(13) 0.2632(3) 0.65385(14)
H8_2 H 0.1195 0.2299 0.6758
C22_2 C 0.03837(9) 0.2404(3) 0.57247(12)
C23_2 C 0.00789(10) 0.2169(3) 0.59801(12)
H9_2 H 0.0014 0.3359 0.6232
H12_2 H 0.0032 0.0906 0.5822
C36_2 C 0.03859(9) 0.2285(3) 0.53111(12)
C37_2 C 0.06946(10) 0.2486(3) 0.50554(12)
C38_2 C 0.06648(12) 0.3132(4) 0.47492(15)
H17_2 H 0.0452 0.3414 0.4700
C39_2 C 0.09513(12) 0.3359(4) 0.45171(16)
H18_2 H 0.0930 0.3817 0.4327
C40_2 C 0.12663(10) 0.2925(3) 0.45603(13)
C41_2 C 0.12922(10) 0.2258(3) 0.48595(14)
H19_2 H 0.1500 0.1947 0.4892
C42_2 C 0.10124(10) 0.2048(3) 0.51106(14)
H20_2 H 0.1038 0.1617 0.5314
C43_2 C 0.15695(11) 0.3178(3) 0.43090(14)
C44_2 C 0.16277(16) 0.4046(4) 0.4214(2)
H21_2 H 0.1476 0.4468 0.4315
C45_2 C 0.19036(17) 0.4324(4) 0.3975(2)
H22_2 H 0.1942 0.4919 0.3927
C46_2 C 0.21203(11) 0.3682(3) 0.38090(13)
C47_2 C 0.20709(12) 0.2818(4) 0.39022(17)
H23_2 H 0.2220 0.2396 0.3796
C48_2 C 0.17974(12) 0.2551(4) 0.41565(16)
H24_2 H 0.1769 0.1959 0.4222
C49_2 C 0.24017(10) 0.3965(3) 0.35259(13)
C50_2 C 0.00745(10) 0.1978(3) 0.50655(12)
C55_2 C 0.01004(12) 0.1258(4) 0.48002(18)
H28_2 H 0.0313 0.0968 0.4782
O11_2 O 0.24468(9) 0.5218(2) 0.84705(10)
O12_2 O 0.25883(7) 0.6582(2) 0.83424(9)
O13_2 O 0.31291(8) 0.4285(2) 0.83846(10)
O14_2 O 0.32925(7) 0.5656(2) 0.84840(9)
O7_2 O 0.81291(8) 0.0715(2) 0.33846(10)
C24_2 C 0.99270(15) 0.2787(4) 0.62280(19)
C25_2 C 0.96513(15) 0.2581(4) 0.6468(2)
H10_2 H 0.9555 0.3019 0.6631
C26_2 C 0.95109(10) 0.1752(3) 0.64773(13)
C27_2 C 0.96811(17) 0.1129(4) 0.6255(2)
H11_2 H 0.9617 0.0542 0.6282
C28_2 C 0.99437(16) 0.1339(4) 0.5994(2)
C29_2 C 0.92061(11) 0.1525(3) 0.67355(13)
C30_2 C 0.89978(14) 0.2157(4) 0.69040(19)
H13_2 H 0.9045 0.2747 0.6852
C31_2 C 0.87173(14) 0.1941(4) 0.71520(18)
H14_2 H 0.8583 0.2386 0.7264
C32_2 C 0.86393(11) 0.1083(3) 0.72304(13)
C33_2 C 0.8847(2) 0.0438(4) 0.7068(3)
C34_2 C 0.9122(2) 0.0660(5) 0.6811(3)
H16_2 H 0.9250 0.0215 0.6688
C35_2 C 0.83388(11) 0.0847(3) 0.74940(12)
C51_2 C 0.97526(11) 0.2395(3) 0.50849(14)
H25_2 H 0.9726 0.2869 0.5264
C52_2 C 0.94731(11) 0.2115(3) 0.48406(15)
H26_2 H 0.9264 0.2423 0.4850
C53_2 C 0.94946(11) 0.1385(3) 0.45810(13)
C54_2 C 0.98184(12) 0.0961(4) 0.45630(17)
H27_2 H 0.9844 0.0477 0.4390
C56_2 C 0.91887(11) 0.1055(3) 0.43228(14)
C57_2 C 0.89504(13) 0.1649(3) 0.41548(16)
H29_2 H 0.8980 0.2248 0.4203
C58_2 C 0.86678(13) 0.1356(3) 0.39147(17)
H30_2 H 0.8508 0.1760 0.3804
C59_2 C 0.86215(13) 0.0485(3) 0.38393(16)
C61_2 C 0.91416(12) 0.0168(3) 0.42559(15)
C62_2 C 0.83293(11) 0.0162(3) 0.35553(13)
O8_2 O 0.82925(7) 0.9344(2) 0.34840(9)
H15_2 H 0.8804 0.9849 0.7129
C60_2 C 0.88543(12) 0.9865(3) 0.40157(15)
H31_2 H 0.8819 0.9266 0.3974
H32_2 H 0.9301 0.9767 0.4370
O2_3 O 0.75807(7) 0.0743(2) 0.26800(10)
O3_2 O 0.31493(7) 0.3583(2) 0.26391(9)
O4_2 O 0.32898(9) 0.4959(2) 0.25737(10)
C9_3 C 0.73882(11) 0.0209(3) 0.24819(14)
C10_3 C 0.71050(12) 0.0561(3) 0.21981(15)
C12_3 C 0.66009(14) 0.0302(3) 0.1745(2)
C13_3 C 0.65547(12) 0.1199(3) 0.16950(15)
C14_3 C 0.67923(12) 0.1780(3) 0.18844(15)
H3_3 H 0.6770 0.2383 0.1840
C15_3 C 0.70630(13) 0.1459(3) 0.21403(16)
H4_3 H 0.7216 0.1850 0.2273
C16_3 C 0.62582(11) 0.1540(3) 0.14419(14)
C17_3 C 0.61164(11) 0.1089(3) 0.11070(14)
H5_3 H 0.6211 0.0547 0.1037
C18_3 C 0.58378(10) 0.1413(3) 0.08703(14)
H6_3 H 0.5750 0.1092 0.0645
C19_3 C 0.56880(10) 0.2225(3) 0.09705(12)
C20_3 C 0.58210(11) 0.2677(3) 0.13140(14)
H7_3 H 0.5716 0.3201 0.1393
C21_3 C 0.61028(13) 0.2368(3) 0.15385(14)
H8_3 H 0.6195 0.2701 0.1758
C22_3 C 0.53837(9) 0.2596(3) 0.07247(12)
C23_3 C 0.50789(10) 0.2831(3) 0.09801(12)
C24_3 C 0.49270(15) 0.2213(4) 0.12280(19)
H9_3 H 0.5014 0.1641 0.1232
C25_3 C 0.46513(15) 0.2419(4) 0.1468(2)
H10_3 H 0.4555 0.1981 0.1631
C26_3 C 0.45109(10) 0.3248(3) 0.14773(13)
C27_3 C 0.46811(17) 0.3871(4) 0.1255(2)
H11_3 H 0.4617 0.4458 0.1282
C28_3 C 0.49437(16) 0.3661(4) 0.0994(2)
H12_3 H 0.5032 0.4094 0.0822
C29_3 C 0.42061(11) 0.3475(3) 0.17355(13)
C30_3 C 0.39978(14) 0.2843(4) 0.19040(19)
H13_3 H 0.4045 0.2253 0.1852
C31_3 C 0.37173(14) 0.3059(4) 0.21520(18)
H14_3 H 0.3583 0.2614 0.2264
C32_3 C 0.36393(11) 0.3917(3) 0.22304(13)
C33_3 C 0.3847(2) 0.4562(4) 0.2068(3)
H15_3 H 0.3804 0.5151 0.2129
C34_3 C 0.4122(2) 0.4340(5) 0.1811(3)
H16_3 H 0.4250 0.4785 0.1688
C35_3 C 0.33388(11) 0.4153(3) 0.24940(12)
C36_3 C 0.53859(9) 0.2715(3) 0.03111(12)
C37_3 C 0.56946(10) 0.2514(3) 0.00554(12)
C42_3 C 0.60124(10) 0.2952(3) 0.01106(14)
H20_3 H 0.6038 0.3383 0.0314
C50_3 C 0.50745(10) 0.3022(3) 0.00655(12)
C51_3 C 0.47526(11) 0.2605(3) 0.00849(14)
H25_3 H 0.4726 0.2131 0.0264
C38_3 C 0.56648(12) 0.1868(4) 0.97492(15)
H17_3 H 0.5452 0.1586 0.9700
C39_3 C 0.59513(12) 0.1641(4) 0.95171(16)
H18_3 H 0.5930 0.1183 0.9327
C40_3 C 0.62663(10) 0.2075(3) 0.95603(13)
C41_3 C 0.62922(10) 0.2742(3) 0.98595(14)
H19_3 H 0.6500 0.3053 0.9892
C43_3 C 0.65695(11) 0.1822(3) 0.93090(14)
C44_3 C 0.66277(16) 0.0954(4) 0.9214(2)
H21_3 H 0.6476 0.0532 0.9315
C45_3 C 0.69036(17) 0.0676(4) 0.8975(2)
H22_3 H 0.6942 0.0081 0.8927
C46_3 C 0.71203(11) 0.1318(3) 0.88090(13)
C47_3 C 0.70709(12) 0.2182(4) 0.89022(17)
H23_3 H 0.7220 0.2604 0.8796
C48_3 C 0.67974(12) 0.2449(4) 0.91565(16)
H24_3 H 0.6769 0.3041 0.9222
C49_3 C 0.74017(10) 0.1035(3) 0.85259(13)
C52_3 C 0.44731(11) 0.2885(3) 0.98406(15)
H26_3 H 0.4264 0.2577 0.9850
C53_3 C 0.44946(11) 0.3615(3) 0.95810(13)
C54_3 C 0.48184(12) 0.4039(4) 0.95630(17)
H27_3 H 0.4844 0.4523 0.9390
C55_3 C 0.51004(12) 0.3742(4) 0.98002(18)
H28_3 H 0.5313 0.4032 0.9782
C56_3 C 0.41887(11) 0.3945(3) 0.93228(14)
C57_3 C 0.39504(13) 0.3351(3) 0.91548(16)
H29_3 H 0.3980 0.2752 0.9203
C58_3 C 0.36678(13) 0.3644(3) 0.89147(17)
H30_3 H 0.3508 0.3240 0.8804
C59_3 C 0.36215(13) 0.4515(3) 0.88393(16)
C60_3 C 0.38543(12) 0.5135(3) 0.90157(15)
H31_3 H 0.3819 0.5734 0.8974
C61_3 C 0.41416(12) 0.4832(3) 0.92559(15)
H32_3 H 0.4301 0.5233 0.9370
C62_3 C 0.33293(11) 0.4838(3) 0.85553(13)
O1_3 O 0.74270(8) 0.9389(2) 0.25276(10)
C11_3 C 0.68748(13) 0.9970(3) 0.19961(16)
H1_3 H 0.6904 0.9366 0.2029
H2_3 H 0.6448 0.9913 0.1611
O9_2 O 0.81493(7) 0.8583(2) 0.26391(9)
O10_2 O 0.82898(9) 0.9959(2) 0.25737(10)
O1_4 O 0.24270(8) 0.4389(2) 0.25276(10)
O2_4 O 0.25807(7) 0.5743(2) 0.26800(10)
C9_4 C 0.23882(11) 0.5209(3) 0.24819(14)
C10_4 C 0.21050(12) 0.5561(3) 0.21981(15)
C11_4 C 0.18748(13) 0.4970(3) 0.19961(16)
H1_4 H 0.1904 0.4366 0.2029
C12_4 C 0.16009(14) 0.5302(3) 0.1745(2)
H2_4 H 0.1448 0.4913 0.1611
C13_4 C 0.15547(12) 0.6199(3) 0.16950(15)
C14_4 C 0.17923(12) 0.6780(3) 0.18844(15)
H3_4 H 0.1770 0.7383 0.1840
C15_4 C 0.20630(13) 0.6459(3) 0.21403(16)
H4_4 H 0.2216 0.6850 0.2273
C16_4 C 0.12582(11) 0.6540(3) 0.14419(14)
C17_4 C 0.11164(11) 0.6089(3) 0.11070(14)
H5_4 H 0.1211 0.5547 0.1037
C18_4 C 0.08378(10) 0.6413(3) 0.08703(14)
H6_4 H 0.0750 0.6092 0.0645
C19_4 C 0.06880(10) 0.7225(3) 0.09705(12)
C20_4 C 0.08210(11) 0.7677(3) 0.13140(14)
H7_4 H 0.0716 0.8201 0.1393
C21_4 C 0.11028(13) 0.7368(3) 0.15385(14)
H8_4 H 0.1195 0.7701 0.1758
C22_4 C 0.03837(9) 0.7596(3) 0.07247(12)
C23_4 C 0.00789(10) 0.7831(3) 0.09801(12)
H9_4 H 0.0014 0.6641 0.1232
H12_4 H 0.0032 0.9094 0.0822
C36_4 C 0.03859(9) 0.7715(3) 0.03111(12)
C37_4 C 0.06946(10) 0.7514(3) 0.00554(12)
C42_4 C 0.10124(10) 0.7952(3) 0.01106(14)
H20_4 H 0.1038 0.8383 0.0314
C50_4 C 0.00745(10) 0.8022(3) 0.00655(12)
C38_4 C 0.06648(12) 0.6868(4) 0.97492(15)
H17_4 H 0.0452 0.6586 0.9700
C39_4 C 0.09513(12) 0.6641(4) 0.95171(16)
H18_4 H 0.0930 0.6183 0.9327
C40_4 C 0.12663(10) 0.7075(3) 0.95603(13)
C41_4 C 0.12922(10) 0.7742(3) 0.98595(14)
H19_4 H 0.1500 0.8053 0.9892
C43_4 C 0.15695(11) 0.6822(3) 0.93090(14)
C44_4 C 0.16277(16) 0.5954(4) 0.9214(2)
H21_4 H 0.1476 0.5532 0.9315
C45_4 C 0.19036(17) 0.5676(4) 0.8975(2)
H22_4 H 0.1942 0.5081 0.8927
C46_4 C 0.21203(11) 0.6318(3) 0.88090(13)
C47_4 C 0.20709(12) 0.7182(4) 0.89022(17)
H23_4 H 0.2220 0.7604 0.8796
C48_4 C 0.17974(12) 0.7449(4) 0.91565(16)
H24_4 H 0.1769 0.8041 0.9222
C49_4 C 0.24017(10) 0.6035(3) 0.85259(13)
C55_4 C 0.01004(12) 0.8742(4) 0.98002(18)
H28_4 H 0.0313 0.9032 0.9782
C60_4 C 0.88543(12) 0.0135(3) 0.90157(15)
H31_4 H 0.8819 0.0734 0.8974
H32_4 H 0.9301 0.0233 0.9370
C24_4 C 0.99270(15) 0.7213(4) 0.12280(19)
C25_4 C 0.96513(15) 0.7419(4) 0.1468(2)
H10_4 H 0.9555 0.6981 0.1631
C26_4 C 0.95109(10) 0.8248(3) 0.14773(13)
C27_4 C 0.96811(17) 0.8871(4) 0.1255(2)
H11_4 H 0.9617 0.9458 0.1282
C28_4 C 0.99437(16) 0.8661(4) 0.0994(2)
C29_4 C 0.92061(11) 0.8475(3) 0.17355(13)
C30_4 C 0.89978(14) 0.7843(4) 0.19040(19)
H13_4 H 0.9045 0.7253 0.1852
C31_4 C 0.87173(14) 0.8059(4) 0.21520(18)
H14_4 H 0.8583 0.7614 0.2264
C32_4 C 0.86393(11) 0.8917(3) 0.22304(13)
C33_4 C 0.8847(2) 0.9562(4) 0.2068(3)
C34_4 C 0.9122(2) 0.9340(5) 0.1811(3)
H16_4 H 0.9250 0.9785 0.1688
C35_4 C 0.83388(11) 0.9153(3) 0.24940(12)
C51_4 C 0.97526(11) 0.7605(3) 0.00849(14)
H25_4 H 0.9726 0.7131 0.0264
C52_4 C 0.94731(11) 0.7885(3) 0.98406(15)
H26_4 H 0.9264 0.7577 0.9850
C53_4 C 0.94946(11) 0.8615(3) 0.95810(13)
C54_4 C 0.98184(12) 0.9039(4) 0.95630(17)
H27_4 H 0.9844 0.9523 0.9390
C56_4 C 0.91887(11) 0.8945(3) 0.93228(14)
C57_4 C 0.89504(13) 0.8351(3) 0.91548(16)
H29_4 H 0.8980 0.7752 0.9203
C58_4 C 0.86678(13) 0.8644(3) 0.89147(17)
H30_4 H 0.8508 0.8240 0.8804
C59_4 C 0.86215(13) 0.9515(3) 0.88393(16)
C61_4 C 0.91416(12) 0.9832(3) 0.92559(15)
C62_4 C 0.83293(11) 0.9838(3) 0.85553(13)
In1_2 In 0.21410(2) 0.04024(2) 0.69877(2)
O1_5 O 0.25730(8) 0.0611(2) 0.74724(10)
C11_5 C 0.31252(13) 0.0030(3) 0.80039(16)
H1_5 H 0.3096 0.0634 0.7971
H2_5 H 0.3552 0.0087 0.8389
O9_3 O 0.18507(7) 0.1417(2) 0.73609(9)
O10_3 O 0.17102(9) 0.0041(2) 0.74263(10)
O11_3 O 0.25532(9) 0.0218(2) 0.65295(10)
O12_3 O 0.24117(7) 0.1582(2) 0.66576(9)
O14_3 O 0.17075(7) 0.0656(2) 0.65160(9)
O5_3 O 0.25532(9) 0.9782(2) 0.15295(10)
O6_3 O 0.24117(7) 0.8418(2) 0.16576(9)
O7_3 O 0.68709(8) 0.5715(2) 0.16154(10)
O8_3 O 0.67075(7) 0.4344(2) 0.15160(9)
C38_5 C 0.43352(12) 0.8132(4) 0.02508(15)
H17_5 H 0.4548 0.8414 0.0300
C39_5 C 0.40487(12) 0.8359(4) 0.04829(16)
H18_5 H 0.4070 0.8817 0.0673
C40_5 C 0.37337(10) 0.7925(3) 0.04397(13)
C41_5 C 0.37078(10) 0.7258(3) 0.01405(14)
H19_5 H 0.3500 0.6947 0.0108
C43_5 C 0.34305(11) 0.8178(3) 0.06910(14)
C44_5 C 0.33723(16) 0.9046(4) 0.0786(2)
H21_5 H 0.3524 0.9468 0.0685
C45_5 C 0.30964(17) 0.9324(4) 0.1025(2)
H22_5 H 0.3058 0.9919 0.1073
C46_5 C 0.28797(11) 0.8682(3) 0.11910(13)
C47_5 C 0.29291(12) 0.7818(4) 0.10978(17)
H23_5 H 0.2780 0.7396 0.1204
C48_5 C 0.32026(12) 0.7551(4) 0.08435(16)
H24_5 H 0.3231 0.6959 0.0778
C49_5 C 0.25983(10) 0.8965(3) 0.14741(13)
C52_5 C 0.55269(11) 0.7115(3) 0.01594(15)
H26_5 H 0.5736 0.7423 0.0150
C53_5 C 0.55054(11) 0.6385(3) 0.04190(13)
C54_5 C 0.51816(12) 0.5961(4) 0.04370(17)
H27_5 H 0.5156 0.5477 0.0610
C55_5 C 0.48996(12) 0.6258(4) 0.01998(18)
H28_5 H 0.4687 0.5968 0.0218
C56_5 C 0.58113(11) 0.6055(3) 0.06772(14)
C57_5 C 0.60496(13) 0.6649(3) 0.08452(16)
H29_5 H 0.6020 0.7248 0.0797
C58_5 C 0.63322(13) 0.6356(3) 0.10853(17)
H30_5 H 0.6492 0.6760 0.1196
C59_5 C 0.63785(13) 0.5485(3) 0.11607(16)
C60_5 C 0.61457(12) 0.4865(3) 0.09843(15)
H31_5 H 0.6181 0.4266 0.1026
C61_5 C 0.58584(12) 0.5168(3) 0.07441(15)
H32_5 H 0.5699 0.4767 0.0630
C62_5 C 0.66707(11) 0.5162(3) 0.14447(13)
In3_2 In 0.21410(2) 0.95976(2) 0.19877(2)
In4_2 In 0.71410(2) 0.45976(2) 0.19877(2)
O2_5 O 0.24193(7) 0.9257(2) 0.73200(10)
O3_3 O 0.68507(7) 0.6417(2) 0.73609(9)
O4_3 O 0.67102(9) 0.5041(2) 0.74263(10)
C9_5 C 0.26118(11) 0.9791(3) 0.75181(14)
C10_5 C 0.28950(12) 0.9439(3) 0.78019(15)
C12_5 C 0.33991(14) 0.9698(3) 0.8255(2)
C13_5 C 0.34453(12) 0.8801(3) 0.83050(15)
C14_5 C 0.32077(12) 0.8220(3) 0.81156(15)
H3_5 H 0.3230 0.7617 0.8160
C15_5 C 0.29370(13) 0.8541(3) 0.78597(16)
H4_5 H 0.2784 0.8150 0.7727
C16_5 C 0.37418(11) 0.8460(3) 0.85581(14)
C17_5 C 0.38836(11) 0.8911(3) 0.88930(14)
H5_5 H 0.3789 0.9453 0.8963
C18_5 C 0.41622(10) 0.8587(3) 0.91297(14)
H6_5 H 0.4250 0.8908 0.9355
C19_5 C 0.43120(10) 0.7775(3) 0.90295(12)
C20_5 C 0.41790(11) 0.7323(3) 0.86860(14)
H7_5 H 0.4284 0.6799 0.8607
C21_5 C 0.38972(13) 0.7632(3) 0.84615(14)
H8_5 H 0.3805 0.7299 0.8242
C22_5 C 0.46163(9) 0.7404(3) 0.92753(12)
C23_5 C 0.49211(10) 0.7169(3) 0.90199(12)
C24_5 C 0.50730(15) 0.7787(4) 0.87720(19)
H9_5 H 0.4986 0.8359 0.8768
C25_5 C 0.53487(15) 0.7581(4) 0.8532(2)
H10_5 H 0.5445 0.8019 0.8369
C26_5 C 0.54891(10) 0.6752(3) 0.85227(13)
C27_5 C 0.53189(17) 0.6129(4) 0.8745(2)
H11_5 H 0.5383 0.5542 0.8718
C28_5 C 0.50563(16) 0.6339(4) 0.9006(2)
H12_5 H 0.4968 0.5906 0.9178
C29_5 C 0.57939(11) 0.6525(3) 0.82645(13)
C30_5 C 0.60022(14) 0.7157(4) 0.80960(19)
H13_5 H 0.5955 0.7747 0.8148
C31_5 C 0.62827(14) 0.6941(4) 0.78480(18)
H14_5 H 0.6417 0.7386 0.7736
C32_5 C 0.63607(11) 0.6083(3) 0.77696(13)
C33_5 C 0.6153(2) 0.5438(4) 0.7932(3)
H15_4 H 0.6196 0.4849 0.7871
C34_5 C 0.5878(2) 0.5660(5) 0.8189(3)
H16_5 H 0.5750 0.5215 0.8312
C35_5 C 0.66612(11) 0.5847(3) 0.75060(12)
C36_5 C 0.46141(9) 0.7285(3) 0.96889(12)
C37_5 C 0.43054(10) 0.7486(3) 0.99446(12)
C42_5 C 0.39876(10) 0.7048(3) 0.98894(14)
H20_5 H 0.3962 0.6617 0.9686
C50_5 C 0.49255(10) 0.6978(3) 0.99345(12)
C51_5 C 0.52474(11) 0.7395(3) 0.99151(14)
H25_5 H 0.5274 0.7869 0.9736
In2_2 In 0.71410(2) 0.54024(2) 0.69877(2)
O13_3 O 0.18709(8) 0.9285(2) 0.66154(10)
O7_4 O 0.18709(8) 0.0715(2) 0.16154(10)
C52_6 C 0.05269(11) 0.2115(3) 0.01594(15)
H26_6 H 0.0736 0.2423 0.0150
C53_6 C 0.05054(11) 0.1385(3) 0.04190(13)
C54_6 C 0.01816(12) 0.0961(4) 0.04370(17)
H27_6 H 0.0156 0.0477 0.0610
C56_6 C 0.08113(11) 0.1055(3) 0.06772(14)
C57_6 C 0.10496(13) 0.1649(3) 0.08452(16)
H29_6 H 0.1020 0.2248 0.0797
C58_6 C 0.13322(13) 0.1356(3) 0.10853(17)
H30_6 H 0.1492 0.1760 0.1196
C59_6 C 0.13785(13) 0.0485(3) 0.11607(16)
C61_6 C 0.08584(12) 0.0168(3) 0.07441(15)
C62_6 C 0.16707(11) 0.0162(3) 0.14447(13)
C24_6 C 0.00730(15) 0.2787(4) 0.87720(19)
C25_6 C 0.03487(15) 0.2581(4) 0.8532(2)
H10_6 H 0.0445 0.3019 0.8369
C26_6 C 0.04891(10) 0.1752(3) 0.85227(13)
C27_6 C 0.03189(17) 0.1129(4) 0.8745(2)
H11_6 H 0.0383 0.0542 0.8718
C28_6 C 0.00563(16) 0.1339(4) 0.9006(2)
C29_6 C 0.07939(11) 0.1525(3) 0.82645(13)
C30_6 C 0.10022(14) 0.2157(4) 0.80960(19)
H13_6 H 0.0955 0.2747 0.8148
C31_6 C 0.12827(14) 0.1941(4) 0.78480(18)
H14_6 H 0.1417 0.2386 0.7736
C32_6 C 0.13607(11) 0.1083(3) 0.77696(13)
C33_6 C 0.1153(2) 0.0438(4) 0.7932(3)
C34_6 C 0.0878(2) 0.0660(5) 0.8189(3)
H16_6 H 0.0750 0.0215 0.8312
C35_6 C 0.16612(11) 0.0847(3) 0.75060(12)
C51_6 C 0.02474(11) 0.2395(3) 0.99151(14)
H25_6 H 0.0274 0.2869 0.9736
O8_4 O 0.17075(7) 0.9344(2) 0.15160(9)
C60_6 C 0.11457(12) 0.9865(3) 0.09843(15)
H31_6 H 0.1181 0.9266 0.1026
H32_6 H 0.0699 0.9767 0.0630
O5_4 O 0.75532(9) 0.4782(2) 0.15295(10)
O6_4 O 0.74117(7) 0.3418(2) 0.16576(9)
C38_6 C 0.93352(12) 0.3132(4) 0.02508(15)
H17_6 H 0.9548 0.3414 0.0300
C39_6 C 0.90487(12) 0.3359(4) 0.04829(16)
H18_6 H 0.9070 0.3817 0.0673
C40_6 C 0.87337(10) 0.2925(3) 0.04397(13)
C41_6 C 0.87078(10) 0.2258(3) 0.01405(14)
H19_6 H 0.8500 0.1947 0.0108
C43_6 C 0.84305(11) 0.3178(3) 0.06910(14)
C44_6 C 0.83723(16) 0.4046(4) 0.0786(2)
H21_6 H 0.8524 0.4468 0.0685
C45_6 C 0.80964(17) 0.4324(4) 0.1025(2)
H22_6 H 0.8058 0.4919 0.1073
C46_6 C 0.78797(11) 0.3682(3) 0.11910(13)
C47_6 C 0.79291(12) 0.2818(4) 0.10978(17)
H23_6 H 0.7780 0.2396 0.1204
C48_6 C 0.82026(12) 0.2551(4) 0.08435(16)
H24_6 H 0.8231 0.1959 0.0778
C49_6 C 0.75983(10) 0.3965(3) 0.14741(13)
C55_6 C 0.98996(12) 0.1258(4) 0.01998(18)
H28_6 H 0.9687 0.0968 0.0218
O1_6 O 0.75730(8) 0.5611(2) 0.74724(10)
O2_6 O 0.74193(7) 0.4257(2) 0.73200(10)
C9_6 C 0.76118(11) 0.4791(3) 0.75181(14)
C10_6 C 0.78950(12) 0.4439(3) 0.78019(15)
C11_6 C 0.81252(13) 0.5030(3) 0.80039(16)
H1_6 H 0.8096 0.5634 0.7971
C12_6 C 0.83991(14) 0.4698(3) 0.8255(2)
H2_6 H 0.8552 0.5087 0.8389
C13_6 C 0.84453(12) 0.3801(3) 0.83050(15)
C14_6 C 0.82077(12) 0.3220(3) 0.81156(15)
H3_6 H 0.8230 0.2617 0.8160
C15_6 C 0.79370(13) 0.3541(3) 0.78597(16)
H4_6 H 0.7784 0.3150 0.7727
C16_6 C 0.87418(11) 0.3460(3) 0.85581(14)
C17_6 C 0.88836(11) 0.3911(3) 0.88930(14)
H5_6 H 0.8789 0.4453 0.8963
C18_6 C 0.91622(10) 0.3587(3) 0.91297(14)
H6_6 H 0.9250 0.3908 0.9355
C19_6 C 0.93120(10) 0.2775(3) 0.90295(12)
C20_6 C 0.91790(11) 0.2323(3) 0.86860(14)
H7_6 H 0.9284 0.1799 0.8607
C21_6 C 0.88972(13) 0.2632(3) 0.84615(14)
H8_6 H 0.8805 0.2299 0.8242
C22_6 C 0.96163(9) 0.2404(3) 0.92753(12)
C23_6 C 0.99211(10) 0.2169(3) 0.90199(12)
H9_6 H 0.9986 0.3359 0.8768
H12_6 H 0.9968 0.0906 0.9178
C36_6 C 0.96141(9) 0.2285(3) 0.96889(12)
C37_6 C 0.93054(10) 0.2486(3) 0.99446(12)
C42_6 C 0.89876(10) 0.2048(3) 0.98894(14)
H20_6 H 0.8962 0.1617 0.9686
C50_6 C 0.99255(10) 0.1978(3) 0.99345(12)
O11_4 O 0.75532(9) 0.5218(2) 0.65295(10)
O12_4 O 0.74117(7) 0.6582(2) 0.66576(9)
O13_4 O 0.68709(8) 0.4285(2) 0.66154(10)
O14_4 O 0.67075(7) 0.5656(2) 0.65160(9)
O2_7 O 0.24193(7) 0.0743(2) 0.23200(10)
O3_4 O 0.68507(7) 0.3583(2) 0.23609(9)
O4_4 O 0.67102(9) 0.4959(2) 0.24263(10)
C9_7 C 0.26118(11) 0.0209(3) 0.25181(14)
C10_7 C 0.28950(12) 0.0561(3) 0.28019(15)
C12_7 C 0.33991(14) 0.0302(3) 0.3255(2)
C13_7 C 0.34453(12) 0.1199(3) 0.33050(15)
C14_7 C 0.32077(12) 0.1780(3) 0.31156(15)
H3_7 H 0.3230 0.2383 0.3160
C15_7 C 0.29370(13) 0.1459(3) 0.28597(16)
H4_7 H 0.2784 0.1850 0.2727
C16_7 C 0.37418(11) 0.1540(3) 0.35581(14)
C17_7 C 0.38836(11) 0.1089(3) 0.38930(14)
H5_7 H 0.3789 0.0547 0.3963
C18_7 C 0.41622(10) 0.1413(3) 0.41297(14)
H6_7 H 0.4250 0.1092 0.4355
C19_7 C 0.43120(10) 0.2225(3) 0.40295(12)
C20_7 C 0.41790(11) 0.2677(3) 0.36860(14)
H7_7 H 0.4284 0.3201 0.3607
C21_7 C 0.38972(13) 0.2368(3) 0.34615(14)
H8_7 H 0.3805 0.2701 0.3242
C22_7 C 0.46163(9) 0.2596(3) 0.42753(12)
C23_7 C 0.49211(10) 0.2831(3) 0.40199(12)
C24_7 C 0.50730(15) 0.2213(4) 0.37720(19)
H9_7 H 0.4986 0.1641 0.3768
C25_7 C 0.53487(15) 0.2419(4) 0.3532(2)
H10_7 H 0.5445 0.1981 0.3369
C26_7 C 0.54891(10) 0.3248(3) 0.35227(13)
C27_7 C 0.53189(17) 0.3871(4) 0.3745(2)
H11_7 H 0.5383 0.4458 0.3718
C28_7 C 0.50563(16) 0.3661(4) 0.4006(2)
H12_7 H 0.4968 0.4094 0.4178
C29_7 C 0.57939(11) 0.3475(3) 0.32645(13)
C30_7 C 0.60022(14) 0.2843(4) 0.30960(19)
H13_7 H 0.5955 0.2253 0.3148
C31_7 C 0.62827(14) 0.3059(4) 0.28480(18)
H14_7 H 0.6417 0.2614 0.2736
C32_7 C 0.63607(11) 0.3917(3) 0.27696(13)
C33_7 C 0.6153(2) 0.4562(4) 0.2932(3)
H15_5 H 0.6196 0.5151 0.2871
C34_7 C 0.5878(2) 0.4340(5) 0.3189(3)
H16_7 H 0.5750 0.4785 0.3312
C35_7 C 0.66612(11) 0.4153(3) 0.25060(12)
C36_7 C 0.46141(9) 0.2715(3) 0.46889(12)
C37_7 C 0.43054(10) 0.2514(3) 0.49446(12)
C38_7 C 0.43352(12) 0.1868(4) 0.52508(15)
H17_7 H 0.4548 0.1586 0.5300
C39_7 C 0.40487(12) 0.1641(4) 0.54829(16)
H18_7 H 0.4070 0.1183 0.5673
C40_7 C 0.37337(10) 0.2075(3) 0.54397(13)
C41_7 C 0.37078(10) 0.2742(3) 0.51405(14)
H19_7 H 0.3500 0.3053 0.5108
C42_7 C 0.39876(10) 0.2952(3) 0.48894(14)
H20_7 H 0.3962 0.3383 0.4686
C43_7 C 0.34305(11) 0.1822(3) 0.56910(14)
C44_7 C 0.33723(16) 0.0954(4) 0.5786(2)
H21_7 H 0.3524 0.0532 0.5685
C45_7 C 0.30964(17) 0.0676(4) 0.6025(2)
H22_7 H 0.3058 0.0081 0.6073
C46_7 C 0.28797(11) 0.1318(3) 0.61910(13)
C47_7 C 0.29291(12) 0.2182(4) 0.60978(17)
H23_7 H 0.2780 0.2604 0.6204
C48_7 C 0.32026(12) 0.2449(4) 0.58435(16)
H24_7 H 0.3231 0.3041 0.5778
C49_7 C 0.25983(10) 0.1035(3) 0.64741(13)
C50_7 C 0.49255(10) 0.3022(3) 0.49345(12)
C51_7 C 0.52474(11) 0.2605(3) 0.49151(14)
H25_7 H 0.5274 0.2131 0.4736
C52_7 C 0.55269(11) 0.2885(3) 0.51594(15)
H26_7 H 0.5736 0.2577 0.5150
C53_7 C 0.55054(11) 0.3615(3) 0.54190(13)
C54_7 C 0.51816(12) 0.4039(4) 0.54370(17)
H27_7 H 0.5156 0.4523 0.5610
C55_7 C 0.48996(12) 0.3742(4) 0.51998(18)
H28_7 H 0.4687 0.4032 0.5218
C56_7 C 0.58113(11) 0.3945(3) 0.56772(14)
C57_7 C 0.60496(13) 0.3351(3) 0.58452(16)
H29_7 H 0.6020 0.2752 0.5797
C58_7 C 0.63322(13) 0.3644(3) 0.60853(17)
H30_7 H 0.6492 0.3240 0.6196
C59_7 C 0.63785(13) 0.4515(3) 0.61607(16)
C60_7 C 0.61457(12) 0.5135(3) 0.59843(15)
H31_7 H 0.6181 0.5734 0.6026
C61_7 C 0.58584(12) 0.4832(3) 0.57441(15)
H32_7 H 0.5699 0.5233 0.5630
C62_7 C 0.66707(11) 0.4838(3) 0.64447(13)
O1_7 O 0.25730(8) 0.9389(2) 0.24724(10)
C11_7 C 0.31252(13) 0.9970(3) 0.30039(16)
H1_7 H 0.3096 0.9366 0.2971
H2_7 H 0.3552 0.9913 0.3389
O9_4 O 0.18507(7) 0.8583(2) 0.23609(9)
O10_4 O 0.17102(9) 0.9959(2) 0.24263(10)
H15_6 H 0.1196 0.0151 0.2871
C60_8 C 0.11457(12) 0.0135(3) 0.59843(15)
H31_8 H 0.1181 0.0734 0.6026
H32_8 H 0.0699 0.0233 0.5630
C24_8 C 0.00730(15) 0.7213(4) 0.37720(19)
C25_8 C 0.03487(15) 0.7419(4) 0.3532(2)
H10_8 H 0.0445 0.6981 0.3369
C26_8 C 0.04891(10) 0.8248(3) 0.35227(13)
C27_8 C 0.03189(17) 0.8871(4) 0.3745(2)
H11_8 H 0.0383 0.9458 0.3718
C28_8 C 0.00563(16) 0.8661(4) 0.4006(2)
C29_8 C 0.07939(11) 0.8475(3) 0.32645(13)
C30_8 C 0.10022(14) 0.7843(4) 0.30960(19)
H13_8 H 0.0955 0.7253 0.3148
C31_8 C 0.12827(14) 0.8059(4) 0.28480(18)
H14_8 H 0.1417 0.7614 0.2736
C32_8 C 0.13607(11) 0.8917(3) 0.27696(13)
C33_8 C 0.1153(2) 0.9562(4) 0.2932(3)
C34_8 C 0.0878(2) 0.9340(5) 0.3189(3)
H16_8 H 0.0750 0.9785 0.3312
C35_8 C 0.16612(11) 0.9153(3) 0.25060(12)
C51_8 C 0.02474(11) 0.7605(3) 0.49151(14)
H25_8 H 0.0274 0.7131 0.4736
C52_8 C 0.05269(11) 0.7885(3) 0.51594(15)
H26_8 H 0.0736 0.7577 0.5150
C53_8 C 0.05054(11) 0.8615(3) 0.54190(13)
C54_8 C 0.01816(12) 0.9039(4) 0.54370(17)
H27_8 H 0.0156 0.9523 0.5610
C56_8 C 0.08113(11) 0.8945(3) 0.56772(14)
C57_8 C 0.10496(13) 0.8351(3) 0.58452(16)
H29_8 H 0.1020 0.7752 0.5797
C58_8 C 0.13322(13) 0.8644(3) 0.60853(17)
H30_8 H 0.1492 0.8240 0.6196
C59_8 C 0.13785(13) 0.9515(3) 0.61607(16)
C61_8 C 0.08584(12) 0.9832(3) 0.57441(15)
C62_8 C 0.16707(11) 0.9838(3) 0.64447(13)
O1_8 O 0.75730(8) 0.4389(2) 0.24724(10)
O2_8 O 0.74193(7) 0.5743(2) 0.23200(10)
C9_8 C 0.76118(11) 0.5209(3) 0.25181(14)
C10_8 C 0.78950(12) 0.5561(3) 0.28019(15)
C11_8 C 0.81252(13) 0.4970(3) 0.30039(16)
H1_8 H 0.8096 0.4366 0.2971
C12_8 C 0.83991(14) 0.5302(3) 0.3255(2)
H2_8 H 0.8552 0.4913 0.3389
C13_8 C 0.84453(12) 0.6199(3) 0.33050(15)
C14_8 C 0.82077(12) 0.6780(3) 0.31156(15)
H3_8 H 0.8230 0.7383 0.3160
C15_8 C 0.79370(13) 0.6459(3) 0.28597(16)
H4_8 H 0.7784 0.6850 0.2727
C16_8 C 0.87418(11) 0.6540(3) 0.35581(14)
C17_8 C 0.88836(11) 0.6089(3) 0.38930(14)
H5_8 H 0.8789 0.5547 0.3963
C18_8 C 0.91622(10) 0.6413(3) 0.41297(14)
H6_8 H 0.9250 0.6092 0.4355
C19_8 C 0.93120(10) 0.7225(3) 0.40295(12)
C20_8 C 0.91790(11) 0.7677(3) 0.36860(14)
H7_8 H 0.9284 0.8201 0.3607
C21_8 C 0.88972(13) 0.7368(3) 0.34615(14)
H8_8 H 0.8805 0.7701 0.3242
C22_8 C 0.96163(9) 0.7596(3) 0.42753(12)
C23_8 C 0.99211(10) 0.7831(3) 0.40199(12)
H9_8 H 0.9986 0.6641 0.3768
H12_8 H 0.9968 0.9094 0.4178
C36_8 C 0.96141(9) 0.7715(3) 0.46889(12)
C37_8 C 0.93054(10) 0.7514(3) 0.49446(12)
C38_8 C 0.93352(12) 0.6868(4) 0.52508(15)
H17_8 H 0.9548 0.6586 0.5300
C39_8 C 0.90487(12) 0.6641(4) 0.54829(16)
H18_8 H 0.9070 0.6183 0.5673
C40_8 C 0.87337(10) 0.7075(3) 0.54397(13)
C41_8 C 0.87078(10) 0.7742(3) 0.51405(14)
H19_8 H 0.8500 0.8053 0.5108
C42_8 C 0.89876(10) 0.7952(3) 0.48894(14)
H20_8 H 0.8962 0.8383 0.4686
C43_8 C 0.84305(11) 0.6822(3) 0.56910(14)
C44_8 C 0.83723(16) 0.5954(4) 0.5786(2)
H21_8 H 0.8524 0.5532 0.5685
C45_8 C 0.80964(17) 0.5676(4) 0.6025(2)
H22_8 H 0.8058 0.5081 0.6073
C46_8 C 0.78797(11) 0.6318(3) 0.61910(13)
C47_8 C 0.79291(12) 0.7182(4) 0.60978(17)
H23_8 H 0.7780 0.7604 0.6204
C48_8 C 0.82026(12) 0.7449(4) 0.58435(16)
H24_8 H 0.8231 0.8041 0.5778
C49_8 C 0.75983(10) 0.6035(3) 0.64741(13)
C50_8 C 0.99255(10) 0.8022(3) 0.49345(12)
C55_8 C 0.98996(12) 0.8742(4) 0.51998(18)
H28_8 H 0.9687 0.9032 0.5218
H15_7 H 0.1196 0.9849 0.7871
H15_8 H 0.8804 0.0151 0.2129
loop_
_geom_bond_atom_site_label_1
_geom_bond_atom_site_label_2
_geom_bond_site_symmetry_1
_geom_bond_site_symmetry_2
N1 C1 1_555 1_555
C2 N1 1_555 1_555
C1 H35 1_555 1_555
C1 H36 1_555 1_555
C1 H37 1_555 1_555
N1 H41 1_555 1_555
N1 H42 1_555 1_555
C2 H46 1_555 1_555
C2 H47 1_555 1_555
C2 H48 1_555 1_555
N1_2 C1_2 1_555 1_555
C2_2 N1_2 1_555 1_555
C1_2 H35_2 1_555 1_555
C1_2 H36_2 1_555 1_555
C1_2 H37_2 1_555 1_555
N1_2 H41_2 1_555 1_555
N1_2 H42_2 1_555 1_555
C2_2 H46_2 1_555 1_555
C2_2 H47_2 1_555 1_555
C2_2 H48_2 1_555 1_555
N1_3 C1_3 1_555 1_555
C2_3 N1_3 1_555 1_555
C1_3 H35_3 1_555 1_555
C1_3 H36_3 1_555 1_555
C1_3 H37_3 1_555 1_555
N1_3 H41_3 1_555 1_555
N1_3 H42_3 1_555 1_555
C2_3 H46_3 1_555 1_555
C2_3 H47_3 1_555 1_555
C2_3 H48_3 1_555 1_555
N1_4 C1_4 1_555 1_555
C2_4 N1_4 1_555 1_555
C1_4 H35_4 1_555 1_555
C1_4 H36_4 1_555 1_555
C1_4 H37_4 1_555 1_555
N1_4 H41_4 1_555 1_555
N1_4 H42_4 1_555 1_555
C2_4 H46_4 1_555 1_555
C2_4 H47_4 1_555 1_555
C2_4 H48_4 1_555 1_555
N1_5 C1_5 1_555 1_555
C2_5 N1_5 1_555 1_555
C1_5 H35_5 1_555 1_555
C1_5 H36_5 1_555 1_555
C1_5 H37_5 1_555 1_555
N1_5 H41_5 1_555 1_555
N1_5 H42_5 1_555 1_555
C2_5 H46_5 1_555 1_555
C2_5 H47_5 1_555 1_555
C2_5 H48_5 1_555 1_555
N1_6 C1_6 1_555 1_555
C2_6 N1_6 1_555 1_555
C1_6 H35_6 1_555 1_555
C1_6 H36_6 1_555 1_555
C1_6 H37_6 1_555 1_555
N1_6 H41_6 1_555 1_555
N1_6 H42_6 1_555 1_555
C2_6 H46_6 1_555 1_555
C2_6 H47_6 1_555 1_555
C2_6 H48_6 1_555 1_555
N1_7 C1_7 1_555 1_555
C2_7 N1_7 1_555 1_555
C1_7 H35_7 1_555 1_555
C1_7 H36_7 1_555 1_555
C1_7 H37_7 1_555 1_555
N1_7 H41_7 1_555 1_555
N1_7 H42_7 1_555 1_555
C2_7 H46_7 1_555 1_555
C2_7 H47_7 1_555 1_555
C2_7 H48_7 1_555 1_555
N1_8 C1_8 1_555 1_555
C2_8 N1_8 1_555 1_555
C1_8 H35_8 1_555 1_555
C1_8 H36_8 1_555 1_555
C1_8 H37_8 1_555 1_555
N1_8 H41_8 1_555 1_555
N1_8 H42_8 1_555 1_555
C2_8 H46_8 1_555 1_555
C2_8 H47_8 1_555 1_555
C2_8 H48_8 1_555 1_555
N2 C3 1_555 1_555
C4 N2 1_555 1_555
C4 H43 1_555 1_555
C4 H44 1_555 1_555
C4 H45 1_555 1_555
N2 H49 1_555 1_555
N2 H50 1_555 1_555
C3 H57 1_555 1_555
C3 H58 1_555 1_555
C3 H59 1_555 1_555
N2_2 C3_2 1_555 1_555
C4_2 N2_2 1_555 1_555
C4_2 H43_2 1_555 1_555
C4_2 H44_2 1_555 1_555
C4_2 H45_2 1_555 1_555
N2_2 H49_2 1_555 1_555
N2_2 H50_2 1_555 1_555
C3_2 H58_2 1_555 1_555
C4_3 H44_3 1_555 1_555
C4_3 H45_3 1_555 1_555
N2_3 C3_3 1_555 1_555
N2_3 H49_3 1_555 1_555
N2_3 H50_3 1_555 1_555
C3_3 H57_3 1_555 1_555
C3_3 H58_3 1_555 1_555
C3_3 H59_3 1_555 1_555
C4_4 H44_4 1_555 1_555
C4_4 H45_4 1_555 1_555
N2_4 C3_4 1_555 1_555
N2_4 H49_4 1_555 1_555
N2_4 H50_4 1_555 1_555
C3_4 H58_4 1_555 1_555
N2_5 C3_5 1_555 1_555
C4_5 N2_5 1_555 1_555
C4_5 H43_5 1_555 1_555
C4_5 H44_5 1_555 1_555
C4_5 H45_5 1_555 1_555
N2_5 H49_5 1_555 1_555
N2_5 H50_5 1_555 1_555
C3_5 H57_5 1_555 1_555
C3_5 H58_5 1_555 1_555
C3_5 H59_5 1_555 1_555
N2_6 C3_6 1_555 1_555
C4_6 N2_6 1_555 1_555
C4_6 H43_6 1_555 1_555
C4_6 H44_6 1_555 1_555
C4_6 H45_6 1_555 1_555
N2_6 H49_6 1_555 1_555
N2_6 H50_6 1_555 1_555
C3_6 H58_6 1_555 1_555
N2_7 C3_7 1_555 1_555
N2_7 H49_7 1_555 1_555
N2_7 H50_7 1_555 1_555
C3_7 H57_7 1_555 1_555
C3_7 H58_7 1_555 1_555
C3_7 H59_7 1_555 1_555
C4_7 H44_7 1_555 1_555
C4_7 H45_7 1_555 1_555
N2_8 C3_8 1_555 1_555
N2_8 H49_8 1_555 1_555
N2_8 H50_8 1_555 1_555
C3_8 H58_8 1_555 1_555
C4_8 H44_8 1_555 1_555
C4_8 H45_8 1_555 1_555
N3 C5 1_555 1_555
C6 N3 1_555 1_555
N3 H33 1_555 1_555
N3 H34 1_555 1_555
C5 H51 1_555 1_555
C5 H52 1_555 1_555
C5 H53 1_555 1_555
C6 H54 1_555 1_555
C6 H55 1_555 1_555
C6 H56 1_555 1_555
N3_2 C5_2 1_555 1_555
C6_2 N3_2 1_555 1_555
N3_2 H33_2 1_555 1_555
N3_2 H34_2 1_555 1_555
C5_2 H51_2 1_555 1_555
C5_2 H52_2 1_555 1_555
C5_2 H53_2 1_555 1_555
C6_2 H54_2 1_555 1_555
C6_2 H55_2 1_555 1_555
C6_2 H56_2 1_555 1_555
N3_3 C5_3 1_555 1_555
C6_3 N3_3 1_555 1_555
N3_3 H33_3 1_555 1_555
N3_3 H34_3 1_555 1_555
C5_3 H53_3 1_555 1_555
C6_3 H54_3 1_555 1_555
C6_3 H55_3 1_555 1_555
C6_3 H56_3 1_555 1_555
N3_4 C5_4 1_555 1_555
C6_4 N3_4 1_555 1_555
N3_4 H33_4 1_555 1_555
N3_4 H34_4 1_555 1_555
C5_4 H53_4 1_555 1_555
C6_4 H54_4 1_555 1_555
C6_4 H55_4 1_555 1_555
C6_4 H56_4 1_555 1_555
N3_5 C5_5 1_555 1_555
C6_5 N3_5 1_555 1_555
N3_5 H33_5 1_555 1_555
N3_5 H34_5 1_555 1_555
C5_5 H51_5 1_555 1_555
C5_5 H52_5 1_555 1_555
C5_5 H53_5 1_555 1_555
C6_5 H54_5 1_555 1_555
C6_5 H55_5 1_555 1_555
C6_5 H56_5 1_555 1_555
N3_6 C5_6 1_555 1_555
C6_6 N3_6 1_555 1_555
N3_6 H33_6 1_555 1_555
N3_6 H34_6 1_555 1_555
C5_6 H51_6 1_555 1_555
C5_6 H52_6 1_555 1_555
C5_6 H53_6 1_555 1_555
C6_6 H54_6 1_555 1_555
C6_6 H55_6 1_555 1_555
C6_6 H56_6 1_555 1_555
N3_7 C5_7 1_555 1_555
C6_7 N3_7 1_555 1_555
N3_7 H33_7 1_555 1_555
N3_7 H34_7 1_555 1_555
C5_7 H53_7 1_555 1_555
C6_7 H54_7 1_555 1_555
C6_7 H55_7 1_555 1_555
C6_7 H56_7 1_555 1_555
N3_8 C5_8 1_555 1_555
C6_8 N3_8 1_555 1_555
N3_8 H33_8 1_555 1_555
N3_8 H34_8 1_555 1_555
C5_8 H53_8 1_555 1_555
C6_8 H54_8 1_555 1_555
C6_8 H55_8 1_555 1_555
C6_8 H56_8 1_555 1_555
N4 C7 1_555 1_555
C8 N4 1_555 1_555
C7 H38 1_555 1_555
C7 H39 1_555 1_555
C7 H40 1_555 1_555
N4 H60 1_555 1_555
N4 H61 1_555 1_555
C8 H62 1_555 1_555
C8 H63 1_555 1_555
C8 H64 1_555 1_555
N4_2 C7_2 1_555 1_555
C8_2 N4_2 1_555 1_555
C7_2 H38_2 1_555 1_555
C7_2 H39_2 1_555 1_555
C7_2 H40_2 1_555 1_555
N4_2 H60_2 1_555 1_555
N4_2 H61_2 1_555 1_555
C8_2 H62_2 1_555 1_555
C8_2 H63_2 1_555 1_555
C8_2 H64_2 1_555 1_555
N4_3 C7_3 1_555 1_555
C8_3 N4_3 1_555 1_555
C7_3 H38_3 1_555 1_555
C7_3 H39_3 1_555 1_555
C7_3 H40_3 1_555 1_555
N4_3 H60_3 1_555 1_555
N4_3 H61_3 1_555 1_555
C8_3 H62_3 1_555 1_555
C8_3 H63_3 1_555 1_555
C8_3 H64_3 1_555 1_555
N4_4 C7_4 1_555 1_555
C8_4 N4_4 1_555 1_555
C7_4 H38_4 1_555 1_555
C7_4 H39_4 1_555 1_555
C7_4 H40_4 1_555 1_555
N4_4 H60_4 1_555 1_555
N4_4 H61_4 1_555 1_555
C8_4 H62_4 1_555 1_555
C8_4 H63_4 1_555 1_555
C8_4 H64_4 1_555 1_555
N4_5 C7_5 1_555 1_555
C8_5 N4_5 1_555 1_555
C7_5 H38_5 1_555 1_555
C7_5 H39_5 1_555 1_555
C7_5 H40_5 1_555 1_555
N4_5 H60_5 1_555 1_555
N4_5 H61_5 1_555 1_555
C8_5 H62_5 1_555 1_555
C8_5 H63_5 1_555 1_555
C8_5 H64_5 1_555 1_555
N4_6 C7_6 1_555 1_555
C8_6 N4_6 1_555 1_555
C7_6 H38_6 1_555 1_555
C7_6 H39_6 1_555 1_555
C7_6 H40_6 1_555 1_555
N4_6 H60_6 1_555 1_555
N4_6 H61_6 1_555 1_555
C8_6 H62_6 1_555 1_555
C8_6 H63_6 1_555 1_555
C8_6 H64_6 1_555 1_555
N4_7 C7_7 1_555 1_555
C8_7 N4_7 1_555 1_555
C7_7 H38_7 1_555 1_555
C7_7 H39_7 1_555 1_555
C7_7 H40_7 1_555 1_555
N4_7 H60_7 1_555 1_555
N4_7 H61_7 1_555 1_555
C8_7 H62_7 1_555 1_555
C8_7 H63_7 1_555 1_555
C8_7 H64_7 1_555 1_555
N4_8 C7_8 1_555 1_555
C8_8 N4_8 1_555 1_555
C7_8 H38_8 1_555 1_555
C7_8 H39_8 1_555 1_555
C7_8 H40_8 1_555 1_555
N4_8 H60_8 1_555 1_555
N4_8 H61_8 1_555 1_555
C8_8 H62_8 1_555 1_555
C8_8 H63_8 1_555 1_555
C8_8 H64_8 1_555 1_555
In1 O1 1_555 1_555
H1 C11 1_555 1_555
O9 In1 1_555 1_555
O10 In1 1_555 1_555
O11 In1 1_555 1_555
O12 In1 1_555 1_555
O14 In1 1_555 1_555
O3 C35 1_555 1_555
O4 C35 1_555 1_555
O5 C49 1_555 1_555
O6 C49 1_555 1_555
O7 C62 1_555 1_555
O8 C62 1_555 1_555
C9 O2 1_555 1_555
C10 C9 1_555 1_555
C13 C12 1_555 1_555
C14 C13 1_555 1_555
H3 C14 1_555 1_555
C15 C10 1_555 1_555
H4 C15 1_555 1_555
C16 C13 1_555 1_555
C17 C16 1_555 1_555
H5 C17 1_555 1_555
C18 C17 1_555 1_555
H6 C18 1_555 1_555
C19 C18 1_555 1_555
C20 C19 1_555 1_555
H7 C20 1_555 1_555
C21 C16 1_555 1_555
H8 C21 1_555 1_555
C22 C19 1_555 1_555
C23 C22 1_555 1_555
C24 C23 1_555 1_555
H9 C24 1_555 1_555
C25 C24 1_555 1_555
H10 C25 1_555 1_555
C26 C25 1_555 1_555
C27 C26 1_555 1_555
H11 C27 1_555 1_555
C28 C23 1_555 1_555
H12 C28 1_555 1_555
C29 C26 1_555 1_555
C30 C29 1_555 1_555
H13 C30 1_555 1_555
C31 C30 1_555 1_555
H14 C31 1_555 1_555
C32 C31 1_555 1_555
C33 C32 1_555 1_555
H15 C33 1_555 1_555
C34 C29 1_555 1_555
H16 C34 1_555 1_555
C35 C32 1_555 1_555
C36 C22 1_555 1_555
C37 C36 1_555 1_555
C38 C37 1_555 1_555
H17 C38 1_555 1_555
C39 C38 1_555 1_555
H18 C39 1_555 1_555
C40 C39 1_555 1_555
C41 C40 1_555 1_555
H19 C41 1_555 1_555
C42 C37 1_555 1_555
H20 C42 1_555 1_555
C43 C40 1_555 1_555
C44 C43 1_555 1_555
H21 C44 1_555 1_555
C45 C44 1_555 1_555
H22 C45 1_555 1_555
C46 C45 1_555 1_555
C47 C46 1_555 1_555
H23 C47 1_555 1_555
C48 C43 1_555 1_555
H24 C48 1_555 1_555
C49 C46 1_555 1_555
C50 C36 1_555 1_555
C51 C50 1_555 1_555
H25 C51 1_555 1_555
C52 C51 1_555 1_555
H26 C52 1_555 1_555
C53 C52 1_555 1_555
C54 C53 1_555 1_555
H27 C54 1_555 1_555
C55 C50 1_555 1_555
H28 C55 1_555 1_555
C56 C53 1_555 1_555
C57 C56 1_555 1_555
H29 C57 1_555 1_555
C58 C57 1_555 1_555
H30 C58 1_555 1_555
C59 C58 1_555 1_555
C60 C59 1_555 1_555
H31 C60 1_555 1_555
C61 C56 1_555 1_555
H32 C61 1_555 1_555
C62 C59 1_555 1_555
In2 O3 1_555 1_555
In3 O5 1_555 1_555
In4 O7 1_555 1_555
O4 In2 1_555 1_555
O6 In3 1_555 1_555
O8 In4 1_555 1_555
C14 C15 1_555 1_555
C20 C21 1_555 1_555
C27 C28 1_555 1_555
C33 C34 1_555 1_555
C41 C42 1_555 1_555
C47 C48 1_555 1_555
C54 C55 1_555 1_555
C60 C61 1_555 1_555
In2 O1_2 1_555 1_555
O1_2 C9_2 1_555 1_555
O2_2 In2 1_555 1_555
O5_2 C49_2 1_555 1_555
O6_2 C49_2 1_555 1_555
C9_2 O2_2 1_555 1_555
C10_2 C9_2 1_555 1_555
C11_2 C10_2 1_555 1_555
H1_2 C11_2 1_555 1_555
C12_2 C11_2 1_555 1_555
H2_2 C12_2 1_555 1_555
C13_2 C12_2 1_555 1_555
C14_2 C13_2 1_555 1_555
H3_2 C14_2 1_555 1_555
C15_2 C10_2 1_555 1_555
H4_2 C15_2 1_555 1_555
C16_2 C13_2 1_555 1_555
C17_2 C16_2 1_555 1_555
H5_2 C17_2 1_555 1_555
C18_2 C17_2 1_555 1_555
H6_2 C18_2 1_555 1_555
C19_2 C18_2 1_555 1_555
C20_2 C19_2 1_555 1_555
H7_2 C20_2 1_555 1_555
C21_2 C16_2 1_555 1_555
H8_2 C21_2 1_555 1_555
C22_2 C19_2 1_555 1_555
C23_2 C22_2 1_555 1_555
C36_2 C22_2 1_555 1_555
C37_2 C36_2 1_555 1_555
C38_2 C37_2 1_555 1_555
H17_2 C38_2 1_555 1_555
C39_2 C38_2 1_555 1_555
H18_2 C39_2 1_555 1_555
C40_2 C39_2 1_555 1_555
C41_2 C40_2 1_555 1_555
H19_2 C41_2 1_555 1_555
C42_2 C37_2 1_555 1_555
H20_2 C42_2 1_555 1_555
C43_2 C40_2 1_555 1_555
C44_2 C43_2 1_555 1_555
H21_2 C44_2 1_555 1_555
C45_2 C44_2 1_555 1_555
H22_2 C45_2 1_555 1_555
C46_2 C45_2 1_555 1_555
C47_2 C46_2 1_555 1_555
H23_2 C47_2 1_555 1_555
C48_2 C43_2 1_555 1_555
H24_2 C48_2 1_555 1_555
C49_2 C46_2 1_555 1_555
C50_2 C36_2 1_555 1_555
C55_2 C50_2 1_555 1_555
H28_2 C55_2 1_555 1_555
In4 O5_2 1_555 1_555
O11_2 In2 1_555 1_555
O12_2 In2 1_555 1_555
O13_2 In2 1_555 1_555
O14_2 In2 1_555 1_555
O6_2 In4 1_555 1_555
C14_2 C15_2 1_555 1_555
C20_2 C21_2 1_555 1_555
C41_2 C42_2 1_555 1_555
C47_2 C48_2 1_555 1_555
O9 C35_2 1_555 1_555
O10 C35_2 1_555 1_555
O7_2 C62_2 1_555 1_555
C25_2 C24_2 1_555 1_555
H10_2 C25_2 1_555 1_555
C26_2 C25_2 1_555 1_555
C27_2 C26_2 1_555 1_555
H11_2 C27_2 1_555 1_555
C29_2 C26_2 1_555 1_555
C30_2 C29_2 1_555 1_555
H13_2 C30_2 1_555 1_555
C31_2 C30_2 1_555 1_555
H14_2 C31_2 1_555 1_555
C32_2 C31_2 1_555 1_555
C33_2 C32_2 1_555 1_555
C34_2 C29_2 1_555 1_555
H16_2 C34_2 1_555 1_555
C35_2 C32_2 1_555 1_555
H25_2 C51_2 1_555 1_555
C52_2 C51_2 1_555 1_555
H26_2 C52_2 1_555 1_555
C53_2 C52_2 1_555 1_555
C54_2 C53_2 1_555 1_555
H27_2 C54_2 1_555 1_555
C56_2 C53_2 1_555 1_555
C57_2 C56_2 1_555 1_555
H29_2 C57_2 1_555 1_555
C58_2 C57_2 1_555 1_555
H30_2 C58_2 1_555 1_555
C59_2 C58_2 1_555 1_555
C61_2 C56_2 1_555 1_555
C62_2 C59_2 1_555 1_555
C27_2 C28_2 1_555 1_555
C33_2 C34_2 1_555 1_555
H31_2 C60_2 1_555 1_555
O8_2 In3 1_555 1_555
O3_2 C35_3 1_555 1_555
O4_2 C35_3 1_555 1_555
C9_3 O2_3 1_555 1_555
C10_3 C9_3 1_555 1_555
C13_3 C12_3 1_555 1_555
C14_3 C13_3 1_555 1_555
H3_3 C14_3 1_555 1_555
C15_3 C10_3 1_555 1_555
H4_3 C15_3 1_555 1_555
C16_3 C13_3 1_555 1_555
C17_3 C16_3 1_555 1_555
H5_3 C17_3 1_555 1_555
C18_3 C17_3 1_555 1_555
H6_3 C18_3 1_555 1_555
C19_3 C18_3 1_555 1_555
C20_3 C19_3 1_555 1_555
H7_3 C20_3 1_555 1_555
C21_3 C16_3 1_555 1_555
H8_3 C21_3 1_555 1_555
C22_3 C19_3 1_555 1_555
C23_3 C22_3 1_555 1_555
C24_3 C23_3 1_555 1_555
H9_3 C24_3 1_555 1_555
C25_3 C24_3 1_555 1_555
H10_3 C25_3 1_555 1_555
C26_3 C25_3 1_555 1_555
C27_3 C26_3 1_555 1_555
H11_3 C27_3 1_555 1_555
C28_3 C23_3 1_555 1_555
H12_3 C28_3 1_555 1_555
C29_3 C26_3 1_555 1_555
C30_3 C29_3 1_555 1_555
H13_3 C30_3 1_555 1_555
C31_3 C30_3 1_555 1_555
H14_3 C31_3 1_555 1_555
C32_3 C31_3 1_555 1_555
C33_3 C32_3 1_555 1_555
H15_3 C33_3 1_555 1_555
C34_3 C29_3 1_555 1_555
H16_3 C34_3 1_555 1_555
C35_3 C32_3 1_555 1_555
C36_3 C22_3 1_555 1_555
C37_3 C36_3 1_555 1_555
C42_3 C37_3 1_555 1_555
H20_3 C42_3 1_555 1_555
C50_3 C36_3 1_555 1_555
C51_3 C50_3 1_555 1_555
H25_3 C51_3 1_555 1_555
In4 O3_2 1_555 1_555
O4_2 In4 1_555 1_555
C14_3 C15_3 1_555 1_555
C20_3 C21_3 1_555 1_555
C27_3 C28_3 1_555 1_555
C33_3 C34_3 1_555 1_555
O11 C49_3 1_555 1_555
O12 C49_3 1_555 1_555
O13_2 C62_3 1_555 1_555
O14_2 C62_3 1_555 1_555
H17_3 C38_3 1_555 1_555
C39_3 C38_3 1_555 1_555
H18_3 C39_3 1_555 1_555
C40_3 C39_3 1_555 1_555
C41_3 C40_3 1_555 1_555
H19_3 C41_3 1_555 1_555
C43_3 C40_3 1_555 1_555
C44_3 C43_3 1_555 1_555
H21_3 C44_3 1_555 1_555
C45_3 C44_3 1_555 1_555
H22_3 C45_3 1_555 1_555
C46_3 C45_3 1_555 1_555
C47_3 C46_3 1_555 1_555
H23_3 C47_3 1_555 1_555
C48_3 C43_3 1_555 1_555
H24_3 C48_3 1_555 1_555
C49_3 C46_3 1_555 1_555
H26_3 C52_3 1_555 1_555
C53_3 C52_3 1_555 1_555
C54_3 C53_3 1_555 1_555
H27_3 C54_3 1_555 1_555
H28_3 C55_3 1_555 1_555
C56_3 C53_3 1_555 1_555
C57_3 C56_3 1_555 1_555
H29_3 C57_3 1_555 1_555
C58_3 C57_3 1_555 1_555
H30_3 C58_3 1_555 1_555
C59_3 C58_3 1_555 1_555
C60_3 C59_3 1_555 1_555
H31_3 C60_3 1_555 1_555
C61_3 C56_3 1_555 1_555
H32_3 C61_3 1_555 1_555
C62_3 C59_3 1_555 1_555
C47_3 C48_3 1_555 1_555
C54_3 C55_3 1_555 1_555
C60_3 C61_3 1_555 1_555
In3 O1_3 1_555 1_555
H1_3 C11_3 1_555 1_555
O9_2 In3 1_555 1_555
O10_2 In3 1_555 1_555
In4 O1_4 1_555 1_555
O1_4 C9_4 1_555 1_555
O2_4 In4 1_555 1_555
C9_4 O2_4 1_555 1_555
C10_4 C9_4 1_555 1_555
C11_4 C10_4 1_555 1_555
H1_4 C11_4 1_555 1_555
C12_4 C11_4 1_555 1_555
H2_4 C12_4 1_555 1_555
C13_4 C12_4 1_555 1_555
C14_4 C13_4 1_555 1_555
H3_4 C14_4 1_555 1_555
C15_4 C10_4 1_555 1_555
H4_4 C15_4 1_555 1_555
C16_4 C13_4 1_555 1_555
C17_4 C16_4 1_555 1_555
H5_4 C17_4 1_555 1_555
C18_4 C17_4 1_555 1_555
H6_4 C18_4 1_555 1_555
C19_4 C18_4 1_555 1_555
C20_4 C19_4 1_555 1_555
H7_4 C20_4 1_555 1_555
C21_4 C16_4 1_555 1_555
H8_4 C21_4 1_555 1_555
C22_4 C19_4 1_555 1_555
C23_4 C22_4 1_555 1_555
C36_4 C22_4 1_555 1_555
C37_4 C36_4 1_555 1_555
C42_4 C37_4 1_555 1_555
H20_4 C42_4 1_555 1_555
C50_4 C36_4 1_555 1_555
C14_4 C15_4 1_555 1_555
C20_4 C21_4 1_555 1_555
O11_2 C49_4 1_555 1_555
O12_2 C49_4 1_555 1_555
H17_4 C38_4 1_555 1_555
C39_4 C38_4 1_555 1_555
H18_4 C39_4 1_555 1_555
C40_4 C39_4 1_555 1_555
C41_4 C40_4 1_555 1_555
H19_4 C41_4 1_555 1_555
C43_4 C40_4 1_555 1_555
C44_4 C43_4 1_555 1_555
H21_4 C44_4 1_555 1_555
C45_4 C44_4 1_555 1_555
H22_4 C45_4 1_555 1_555
C46_4 C45_4 1_555 1_555
C47_4 C46_4 1_555 1_555
H23_4 C47_4 1_555 1_555
C48_4 C43_4 1_555 1_555
H24_4 C48_4 1_555 1_555
C49_4 C46_4 1_555 1_555
H28_4 C55_4 1_555 1_555
C47_4 C48_4 1_555 1_555
H31_4 C60_4 1_555 1_555
O9_2 C35_4 1_555 1_555
O10_2 C35_4 1_555 1_555
C25_4 C24_4 1_555 1_555
H10_4 C25_4 1_555 1_555
C26_4 C25_4 1_555 1_555
C27_4 C26_4 1_555 1_555
H11_4 C27_4 1_555 1_555
C29_4 C26_4 1_555 1_555
C30_4 C29_4 1_555 1_555
H13_4 C30_4 1_555 1_555
C31_4 C30_4 1_555 1_555
H14_4 C31_4 1_555 1_555
C32_4 C31_4 1_555 1_555
C33_4 C32_4 1_555 1_555
C34_4 C29_4 1_555 1_555
H16_4 C34_4 1_555 1_555
C35_4 C32_4 1_555 1_555
H25_4 C51_4 1_555 1_555
C27_4 C28_4 1_555 1_555
C33_4 C34_4 1_555 1_555
O13 C62_4 1_555 1_555
H26_4 C52_4 1_555 1_555
C53_4 C52_4 1_555 1_555
C54_4 C53_4 1_555 1_555
H27_4 C54_4 1_555 1_555
C56_4 C53_4 1_555 1_555
C57_4 C56_4 1_555 1_555
H29_4 C57_4 1_555 1_555
C58_4 C57_4 1_555 1_555
H30_4 C58_4 1_555 1_555
C59_4 C58_4 1_555 1_555
C61_4 C56_4 1_555 1_555
C62_4 C59_4 1_555 1_555
In1_2 O1_5 1_555 1_555
H1_5 C11_5 1_555 1_555
O9_3 In1_2 1_555 1_555
O10_3 In1_2 1_555 1_555
O11_3 In1_2 1_555 1_555
O12_3 In1_2 1_555 1_555
O14_3 In1_2 1_555 1_555
O5_3 C49_5 1_555 1_555
O6_3 C49_5 1_555 1_555
O7_3 C62_5 1_555 1_555
O8_3 C62_5 1_555 1_555
H17_5 C38_5 1_555 1_555
C39_5 C38_5 1_555 1_555
H18_5 C39_5 1_555 1_555
C40_5 C39_5 1_555 1_555
C41_5 C40_5 1_555 1_555
H19_5 C41_5 1_555 1_555
C43_5 C40_5 1_555 1_555
C44_5 C43_5 1_555 1_555
H21_5 C44_5 1_555 1_555
C45_5 C44_5 1_555 1_555
H22_5 C45_5 1_555 1_555
C46_5 C45_5 1_555 1_555
C47_5 C46_5 1_555 1_555
H23_5 C47_5 1_555 1_555
C48_5 C43_5 1_555 1_555
H24_5 C48_5 1_555 1_555
C49_5 C46_5 1_555 1_555
H26_5 C52_5 1_555 1_555
C53_5 C52_5 1_555 1_555
C54_5 C53_5 1_555 1_555
H27_5 C54_5 1_555 1_555
H28_5 C55_5 1_555 1_555
C56_5 C53_5 1_555 1_555
C57_5 C56_5 1_555 1_555
H29_5 C57_5 1_555 1_555
C58_5 C57_5 1_555 1_555
H30_5 C58_5 1_555 1_555
C59_5 C58_5 1_555 1_555
C60_5 C59_5 1_555 1_555
H31_5 C60_5 1_555 1_555
C61_5 C56_5 1_555 1_555
H32_5 C61_5 1_555 1_555
C62_5 C59_5 1_555 1_555
In3_2 O5_3 1_555 1_555
In4_2 O7_3 1_555 1_555
O6_3 In3_2 1_555 1_555
O8_3 In4_2 1_555 1_555
C47_5 C48_5 1_555 1_555
C54_5 C55_5 1_555 1_555
C60_5 C61_5 1_555 1_555
O3_3 C35_5 1_555 1_555
O4_3 C35_5 1_555 1_555
C9_5 O2_5 1_555 1_555
C10_5 C9_5 1_555 1_555
C13_5 C12_5 1_555 1_555
C14_5 C13_5 1_555 1_555
H3_5 C14_5 1_555 1_555
C15_5 C10_5 1_555 1_555
H4_5 C15_5 1_555 1_555
C16_5 C13_5 1_555 1_555
C17_5 C16_5 1_555 1_555
H5_5 C17_5 1_555 1_555
C18_5 C17_5 1_555 1_555
H6_5 C18_5 1_555 1_555
C19_5 C18_5 1_555 1_555
C20_5 C19_5 1_555 1_555
H7_5 C20_5 1_555 1_555
C21_5 C16_5 1_555 1_555
H8_5 C21_5 1_555 1_555
C22_5 C19_5 1_555 1_555
C23_5 C22_5 1_555 1_555
C24_5 C23_5 1_555 1_555
H9_5 C24_5 1_555 1_555
C25_5 C24_5 1_555 1_555
H10_5 C25_5 1_555 1_555
C26_5 C25_5 1_555 1_555
C27_5 C26_5 1_555 1_555
H11_5 C27_5 1_555 1_555
C28_5 C23_5 1_555 1_555
H12_5 C28_5 1_555 1_555
C29_5 C26_5 1_555 1_555
C30_5 C29_5 1_555 1_555
H13_5 C30_5 1_555 1_555
C31_5 C30_5 1_555 1_555
H14_5 C31_5 1_555 1_555
C32_5 C31_5 1_555 1_555
C33_5 C32_5 1_555 1_555
H15_4 C33_5 1_555 1_555
C34_5 C29_5 1_555 1_555
H16_5 C34_5 1_555 1_555
C35_5 C32_5 1_555 1_555
C36_5 C22_5 1_555 1_555
C37_5 C36_5 1_555 1_555
C42_5 C37_5 1_555 1_555
H20_5 C42_5 1_555 1_555
C50_5 C36_5 1_555 1_555
C51_5 C50_5 1_555 1_555
H25_5 C51_5 1_555 1_555
In2_2 O3_3 1_555 1_555
O4_3 In2_2 1_555 1_555
C14_5 C15_5 1_555 1_555
C20_5 C21_5 1_555 1_555
C27_5 C28_5 1_555 1_555
C33_5 C34_5 1_555 1_555
O7_4 C62_6 1_555 1_555
H26_6 C52_6 1_555 1_555
C53_6 C52_6 1_555 1_555
C54_6 C53_6 1_555 1_555
H27_6 C54_6 1_555 1_555
C56_6 C53_6 1_555 1_555
C57_6 C56_6 1_555 1_555
H29_6 C57_6 1_555 1_555
C58_6 C57_6 1_555 1_555
H30_6 C58_6 1_555 1_555
C59_6 C58_6 1_555 1_555
C61_6 C56_6 1_555 1_555
C62_6 C59_6 1_555 1_555
O9_3 C35_6 1_555 1_555
O10_3 C35_6 1_555 1_555
C25_6 C24_6 1_555 1_555
H10_6 C25_6 1_555 1_555
C26_6 C25_6 1_555 1_555
C27_6 C26_6 1_555 1_555
H11_6 C27_6 1_555 1_555
C29_6 C26_6 1_555 1_555
C30_6 C29_6 1_555 1_555
H13_6 C30_6 1_555 1_555
C31_6 C30_6 1_555 1_555
H14_6 C31_6 1_555 1_555
C32_6 C31_6 1_555 1_555
C33_6 C32_6 1_555 1_555
C34_6 C29_6 1_555 1_555
H16_6 C34_6 1_555 1_555
C35_6 C32_6 1_555 1_555
H25_6 C51_6 1_555 1_555
C27_6 C28_6 1_555 1_555
C33_6 C34_6 1_555 1_555
H31_6 C60_6 1_555 1_555
O8_4 In3_2 1_555 1_555
O5_4 C49_6 1_555 1_555
O6_4 C49_6 1_555 1_555
H17_6 C38_6 1_555 1_555
C39_6 C38_6 1_555 1_555
H18_6 C39_6 1_555 1_555
C40_6 C39_6 1_555 1_555
C41_6 C40_6 1_555 1_555
H19_6 C41_6 1_555 1_555
C43_6 C40_6 1_555 1_555
C44_6 C43_6 1_555 1_555
H21_6 C44_6 1_555 1_555
C45_6 C44_6 1_555 1_555
H22_6 C45_6 1_555 1_555
C46_6 C45_6 1_555 1_555
C47_6 C46_6 1_555 1_555
H23_6 C47_6 1_555 1_555
C48_6 C43_6 1_555 1_555
H24_6 C48_6 1_555 1_555
C49_6 C46_6 1_555 1_555
H28_6 C55_6 1_555 1_555
In4_2 O5_4 1_555 1_555
O6_4 In4_2 1_555 1_555
C47_6 C48_6 1_555 1_555
In2_2 O1_6 1_555 1_555
O1_6 C9_6 1_555 1_555
O2_6 In2_2 1_555 1_555
C9_6 O2_6 1_555 1_555
C10_6 C9_6 1_555 1_555
C11_6 C10_6 1_555 1_555
H1_6 C11_6 1_555 1_555
C12_6 C11_6 1_555 1_555
H2_6 C12_6 1_555 1_555
C13_6 C12_6 1_555 1_555
C14_6 C13_6 1_555 1_555
H3_6 C14_6 1_555 1_555
C15_6 C10_6 1_555 1_555
H4_6 C15_6 1_555 1_555
C16_6 C13_6 1_555 1_555
C17_6 C16_6 1_555 1_555
H5_6 C17_6 1_555 1_555
C18_6 C17_6 1_555 1_555
H6_6 C18_6 1_555 1_555
C19_6 C18_6 1_555 1_555
C20_6 C19_6 1_555 1_555
H7_6 C20_6 1_555 1_555
C21_6 C16_6 1_555 1_555
H8_6 C21_6 1_555 1_555
C22_6 C19_6 1_555 1_555
C23_6 C22_6 1_555 1_555
C36_6 C22_6 1_555 1_555
C37_6 C36_6 1_555 1_555
C42_6 C37_6 1_555 1_555
H20_6 C42_6 1_555 1_555
C50_6 C36_6 1_555 1_555
O11_4 In2_2 1_555 1_555
O12_4 In2_2 1_555 1_555
O13_4 In2_2 1_555 1_555
O14_4 In2_2 1_555 1_555
C14_6 C15_6 1_555 1_555
C20_6 C21_6 1_555 1_555
O3_4 C35_7 1_555 1_555
O4_4 C35_7 1_555 1_555
O11_3 C49_7 1_555 1_555
O12_3 C49_7 1_555 1_555
O13_4 C62_7 1_555 1_555
O14_4 C62_7 1_555 1_555
C9_7 O2_7 1_555 1_555
C10_7 C9_7 1_555 1_555
C13_7 C12_7 1_555 1_555
C14_7 C13_7 1_555 1_555
H3_7 C14_7 1_555 1_555
C15_7 C10_7 1_555 1_555
H4_7 C15_7 1_555 1_555
C16_7 C13_7 1_555 1_555
C17_7 C16_7 1_555 1_555
H5_7 C17_7 1_555 1_555
C18_7 C17_7 1_555 1_555
H6_7 C18_7 1_555 1_555
C19_7 C18_7 1_555 1_555
C20_7 C19_7 1_555 1_555
H7_7 C20_7 1_555 1_555
C21_7 C16_7 1_555 1_555
H8_7 C21_7 1_555 1_555
C22_7 C19_7 1_555 1_555
C23_7 C22_7 1_555 1_555
C24_7 C23_7 1_555 1_555
H9_7 C24_7 1_555 1_555
C25_7 C24_7 1_555 1_555
H10_7 C25_7 1_555 1_555
C26_7 C25_7 1_555 1_555
C27_7 C26_7 1_555 1_555
H11_7 C27_7 1_555 1_555
C28_7 C23_7 1_555 1_555
H12_7 C28_7 1_555 1_555
C29_7 C26_7 1_555 1_555
C30_7 C29_7 1_555 1_555
H13_7 C30_7 1_555 1_555
C31_7 C30_7 1_555 1_555
H14_7 C31_7 1_555 1_555
C32_7 C31_7 1_555 1_555
C33_7 C32_7 1_555 1_555
H15_5 C33_7 1_555 1_555
C34_7 C29_7 1_555 1_555
H16_7 C34_7 1_555 1_555
C35_7 C32_7 1_555 1_555
C36_7 C22_7 1_555 1_555
C37_7 C36_7 1_555 1_555
C38_7 C37_7 1_555 1_555
H17_7 C38_7 1_555 1_555
C39_7 C38_7 1_555 1_555
H18_7 C39_7 1_555 1_555
C40_7 C39_7 1_555 1_555
C41_7 C40_7 1_555 1_555
H19_7 C41_7 1_555 1_555
C42_7 C37_7 1_555 1_555
H20_7 C42_7 1_555 1_555
C43_7 C40_7 1_555 1_555
C44_7 C43_7 1_555 1_555
H21_7 C44_7 1_555 1_555
C45_7 C44_7 1_555 1_555
H22_7 C45_7 1_555 1_555
C46_7 C45_7 1_555 1_555
C47_7 C46_7 1_555 1_555
H23_7 C47_7 1_555 1_555
C48_7 C43_7 1_555 1_555
H24_7 C48_7 1_555 1_555
C49_7 C46_7 1_555 1_555
C50_7 C36_7 1_555 1_555
C51_7 C50_7 1_555 1_555
H25_7 C51_7 1_555 1_555
C52_7 C51_7 1_555 1_555
H26_7 C52_7 1_555 1_555
C53_7 C52_7 1_555 1_555
C54_7 C53_7 1_555 1_555
H27_7 C54_7 1_555 1_555
C55_7 C50_7 1_555 1_555
H28_7 C55_7 1_555 1_555
C56_7 C53_7 1_555 1_555
C57_7 C56_7 1_555 1_555
H29_7 C57_7 1_555 1_555
C58_7 C57_7 1_555 1_555
H30_7 C58_7 1_555 1_555
C59_7 C58_7 1_555 1_555
C60_7 C59_7 1_555 1_555
H31_7 C60_7 1_555 1_555
C61_7 C56_7 1_555 1_555
H32_7 C61_7 1_555 1_555
C62_7 C59_7 1_555 1_555
In4_2 O3_4 1_555 1_555
O4_4 In4_2 1_555 1_555
C14_7 C15_7 1_555 1_555
C20_7 C21_7 1_555 1_555
C27_7 C28_7 1_555 1_555
C33_7 C34_7 1_555 1_555
C41_7 C42_7 1_555 1_555
C47_7 C48_7 1_555 1_555
C54_7 C55_7 1_555 1_555
C60_7 C61_7 1_555 1_555
In3_2 O1_7 1_555 1_555
H1_7 C11_7 1_555 1_555
O9_4 In3_2 1_555 1_555
O10_4 In3_2 1_555 1_555
H31_8 C60_8 1_555 1_555
O9_4 C35_8 1_555 1_555
O10_4 C35_8 1_555 1_555
O13_3 C62_8 1_555 1_555
C25_8 C24_8 1_555 1_555
H10_8 C25_8 1_555 1_555
C26_8 C25_8 1_555 1_555
C27_8 C26_8 1_555 1_555
H11_8 C27_8 1_555 1_555
C29_8 C26_8 1_555 1_555
C30_8 C29_8 1_555 1_555
H13_8 C30_8 1_555 1_555
C31_8 C30_8 1_555 1_555
H14_8 C31_8 1_555 1_555
C32_8 C31_8 1_555 1_555
C33_8 C32_8 1_555 1_555
C34_8 C29_8 1_555 1_555
H16_8 C34_8 1_555 1_555
C35_8 C32_8 1_555 1_555
H25_8 C51_8 1_555 1_555
C52_8 C51_8 1_555 1_555
H26_8 C52_8 1_555 1_555
C53_8 C52_8 1_555 1_555
C54_8 C53_8 1_555 1_555
H27_8 C54_8 1_555 1_555
C56_8 C53_8 1_555 1_555
C57_8 C56_8 1_555 1_555
H29_8 C57_8 1_555 1_555
C58_8 C57_8 1_555 1_555
H30_8 C58_8 1_555 1_555
C59_8 C58_8 1_555 1_555
C61_8 C56_8 1_555 1_555
C62_8 C59_8 1_555 1_555
C27_8 C28_8 1_555 1_555
C33_8 C34_8 1_555 1_555
In4_2 O1_8 1_555 1_555
O1_8 C9_8 1_555 1_555
O2_8 In4_2 1_555 1_555
O11_4 C49_8 1_555 1_555
O12_4 C49_8 1_555 1_555
C9_8 O2_8 1_555 1_555
C10_8 C9_8 1_555 1_555
C11_8 C10_8 1_555 1_555
H1_8 C11_8 1_555 1_555
C12_8 C11_8 1_555 1_555
H2_8 C12_8 1_555 1_555
C13_8 C12_8 1_555 1_555
C14_8 C13_8 1_555 1_555
H3_8 C14_8 1_555 1_555
C15_8 C10_8 1_555 1_555
H4_8 C15_8 1_555 1_555
C16_8 C13_8 1_555 1_555
C17_8 C16_8 1_555 1_555
H5_8 C17_8 1_555 1_555
C18_8 C17_8 1_555 1_555
H6_8 C18_8 1_555 1_555
C19_8 C18_8 1_555 1_555
C20_8 C19_8 1_555 1_555
H7_8 C20_8 1_555 1_555
C21_8 C16_8 1_555 1_555
H8_8 C21_8 1_555 1_555
C22_8 C19_8 1_555 1_555
C23_8 C22_8 1_555 1_555
C36_8 C22_8 1_555 1_555
C37_8 C36_8 1_555 1_555
C38_8 C37_8 1_555 1_555
H17_8 C38_8 1_555 1_555
C39_8 C38_8 1_555 1_555
H18_8 C39_8 1_555 1_555
C40_8 C39_8 1_555 1_555
C41_8 C40_8 1_555 1_555
H19_8 C41_8 1_555 1_555
C42_8 C37_8 1_555 1_555
H20_8 C42_8 1_555 1_555
C43_8 C40_8 1_555 1_555
C44_8 C43_8 1_555 1_555
H21_8 C44_8 1_555 1_555
C45_8 C44_8 1_555 1_555
H22_8 C45_8 1_555 1_555
C46_8 C45_8 1_555 1_555
C47_8 C46_8 1_555 1_555
H23_8 C47_8 1_555 1_555
C48_8 C43_8 1_555 1_555
H24_8 C48_8 1_555 1_555
C49_8 C46_8 1_555 1_555
C50_8 C36_8 1_555 1_555
C55_8 C50_8 1_555 1_555
H28_8 C55_8 1_555 1_555
C14_8 C15_8 1_555 1_555
C20_8 C21_8 1_555 1_555
C41_8 C42_8 1_555 1_555
C47_8 C48_8 1_555 1_555

#END
