
###############################################################################
#
# This file contains modified crystal structure data generated from the
# MOF subset of the Cambridge Structural Database (CSD) v543 
# hosted by the Cambridge Crystallographic Data Centre (CCDC).
#
# This work is licensed under the Creative Commons
# Attribution-NonCommercial-ShareAlike 4.0 International License.
# To view a copy of this license, visit
# http://creativecommons.org/licenses/by-nc-sa/4.0/
# or send a letter to
# Creative Commons, PO Box 1866, Mountain View, CA 94042, USA.
#
# CIF created using the CSD Python API on 29 September 2022
# The structure has been converted into the P1 space group
# The structure has a 3D framework
# The original CSD entry WASTUG is in the orthorhombic crystal system
# The original CSD entry WASTUG is in a Sohncke space group
# The framework has been calculated to contain at least 10.0% void space
# The void calculation uses a probe of radius 1.32A, grid spacing 0.4
# H atom positions have been added when not included in the experimental data
#
###############################################################################

data_WASTUG
_chemical_formula_moiety         '(C36 H60 La8 Mo24 O122 P4)n'
_symmetry_cell_setting           triclinic
_symmetry_space_group_name_H-M   'P 1'
_symmetry_Int_Tables_number      1
_space_group_name_Hall           'P 1'
loop_
_symmetry_equiv_pos_site_id
_symmetry_equiv_pos_as_xyz
1 x,y,z
_cell_length_a                   20.5144(3)
_cell_length_b                   21.7012(4)
_cell_length_c                   12.16550(10)
_cell_angle_alpha                90
_cell_angle_beta                 90
_cell_angle_gamma                90
_cell_volume                     5415.92
loop_
_atom_site_label
_atom_site_type_symbol
_atom_site_fract_x
_atom_site_fract_y
_atom_site_fract_z
O15 O 0.1193(4) 0.5804(3) 0.0193(6)
O30 O 0.0353(5) 0.6584(4) 0.2018(7)
O32 O 0.0889(7) 0.7476(6) 0.0418(10)
Mo9 Mo 0.06261(5) 0.50902(4) 0.06777(7)
O39 O 0.0106(3) 0.4351(3) 0.0432(5)
H6 H 0.0546201 0.616566 0.207475
H7 H 0.0688556 0.689717 0.220236
H12 H 0.0771662 0.790335 0.0203614
H13 H 0.0992788 0.746379 0.121496
La1 La 0.19017(3) 0.53228(2) 0.57413(5)
Mo3 Mo 0.06461(4) 0.65793(4) 0.69594(7)
Mo4 Mo 0.14915(4) 0.59446(4) 0.87806(7)
P1 P -0.0000 0.5000 0.7895(3)
O2 O 0.0707(3) 0.5053(3) 0.5312(5)
O3 O 0.0551(3) 0.6278(3) 0.5569(6)
O7 O 0.1472(3) 0.4469(3) 0.7039(5)
O10 O 0.1065(4) 0.7237(3) 0.6775(6)
O11 O 0.0701(3) 0.6470(3) 0.8574(5)
O12 O 0.1334(3) 0.5948(3) 0.7182(6)
O13 O 0.2078(3) 0.6475(3) 0.8975(6)
O14 O 0.1942(3) 0.5224(3) 0.8619(6)
O27 O 0.1590(4) 0.5554(4) 0.3732(6)
O28 O 0.2910(4) 0.5370(4) 0.4451(8)
O29 O 0.2870(4) 0.4763(3) 0.6650(7)
Mo7 Mo 0.00495(4) 0.44074(3) 0.50642(7)
Mo8 Mo 0.10108(4) 0.36865(4) 0.71618(8)
Mo10 Mo 0.15879(4) 0.43563(4) 0.86157(8)
O34 O 0.0079(3) 0.4419(3) 0.7158(5)
O38 O 0.0608(3) 0.5059(3) 0.8646(5)
O40 O 0.2713(4) 0.6095(3) 0.6617(6)
O41 O 0.2103(4) 0.6481(3) 0.5280(6)
O42 O 0.1951(4) 0.4264(3) 0.4824(6)
H8 H 0.122875 0.585843 0.371609
H9 H 0.197361 0.572506 0.333869
H10 H 0.283213 0.567902 0.38635
H11 H 0.330069 0.549005 0.488269
H14 H 0.297232 0.438297 0.622939
H15 H 0.325649 0.503848 0.665332
La2 La 0.99399(4) 0.67651(3) 0.00249(5)
Mo5 Mo 0.93739(5) 0.49098(4) 0.06777(7)
O17 O 0.9222(4) 0.4896(3) 0.2033(6)
O18 O 0.9894(3) 0.5649(3) 0.0432(5)
O19 O 0.8590(3) 0.5456(3) 0.0259(5)
O21 O 0.8945(4) 0.6525(3) 0.1217(7)
O22 O 0.9262(5) 0.7500(4) 0.1302(8)
O23 O 0.7713(4) 0.8905(3) 0.3383(6)
O24 O 0.7103(4) 0.8519(3) 0.4720(6)
O25 O 0.8049(4) 0.5736(3) 0.4824(6)
O26 O 0.7126(4) 0.6235(4) 0.5357(9)
C1 C 0.8439(6) 0.7147(5) 0.2569(9)
C2 C 0.8198(5) 0.7733(4) 0.2812(9)
H1 H 0.8331 0.8069 0.2393
C3 C 0.7760(5) 0.7821(4) 0.3672(8)
C4 C 0.7581(5) 0.7312(5) 0.4329(10)
H2 H 0.7303 0.7365 0.4925
C5 C 0.7823(5) 0.6735(5) 0.4077(9)
C6 C 0.8250(5) 0.6648(4) 0.3217(8)
H3 H 0.8411 0.6256 0.3067
C7 C 0.8882(6) 0.7051(6) 0.1621(9)
C8 C 0.7507(5) 0.8449(5) 0.3950(9)
C9 C 0.7647(6) 0.6181(5) 0.4819(10)
La3 La 0.69017(3) 0.96772(2) 0.42587(5)
La4 La 0.80983(3) 0.46772(2) 0.57413(5)
O37 O 0.8807(4) 0.4196(3) 0.0193(6)
Mo1 Mo 0.99505(4) 0.55926(3) 0.50642(7)
Mo2 Mo 0.89892(4) 0.63135(4) 0.71618(8)
Mo6 Mo 0.84121(4) 0.56437(4) 0.86157(8)
P1_2 P 1.0000 0.5000 0.7895(3)
O1 O 0.9931(4) 0.5742(3) 0.3712(5)
O4 O 0.9207(3) 0.6196(3) 0.5503(5)
O5 O 0.9921(3) 0.5581(3) 0.7158(5)
O6 O 0.8421(3) 0.6866(3) 0.6970(6)
O8 O 0.9116(3) 0.6259(3) 0.8753(6)
O9 O 0.9807(3) 0.6837(3) 0.7178(6)
O16 O 0.9392(3) 0.4941(3) 0.8646(5)
O20 O 0.7715(4) 0.6039(3) 0.8763(7)
O31 O 0.9550(10) 0.7676(5) 0.8952(9)
O33 O 0.9293(3) 0.4947(3) 0.5312(5)
O35 O 0.8528(3) 0.5531(3) 0.7039(5)
O36 O 0.8058(3) 0.4776(3) 0.8619(6)
H4 H 0.907329 0.772683 0.906077
H5 H 0.97794 0.805211 0.920985
La2_2 La 0.00601(4) 0.32349(3) 0.00249(5)
O17_2 O 0.0778(4) 0.5104(3) 0.2033(6)
O19_2 O 0.1410(3) 0.4544(3) 0.0259(5)
O21_2 O 0.1055(4) 0.3475(3) 0.1217(7)
O22_2 O 0.0738(5) 0.2500(4) 0.1302(8)
O23_2 O 0.2287(4) 0.1095(3) 0.3383(6)
O24_2 O 0.2897(4) 0.1481(3) 0.4720(6)
O26_2 O 0.2874(4) 0.3765(4) 0.5357(9)
C1_2 C 0.1561(6) 0.2853(5) 0.2569(9)
C2_2 C 0.1802(5) 0.2267(4) 0.2812(9)
H1_2 H 0.1669 0.1931 0.2393
C3_2 C 0.2240(5) 0.2179(4) 0.3672(8)
C4_2 C 0.2419(5) 0.2688(5) 0.4329(10)
H2_2 H 0.2697 0.2635 0.4925
C5_2 C 0.2177(5) 0.3265(5) 0.4077(9)
C6_2 C 0.1750(5) 0.3352(4) 0.3217(8)
H3_2 H 0.1589 0.3744 0.3067
C7_2 C 0.1118(6) 0.2949(6) 0.1621(9)
C8_2 C 0.2493(5) 0.1551(5) 0.3950(9)
C9_2 C 0.2353(6) 0.3819(5) 0.4819(10)
La3_2 La 0.30983(3) 0.03228(2) 0.42587(5)
O1_2 O 0.0069(4) 0.4258(3) 0.3712(5)
O4_2 O 0.0793(3) 0.3804(3) 0.5503(5)
O6_2 O 0.1579(3) 0.3134(3) 0.6970(6)
O8_2 O 0.0884(3) 0.3741(3) 0.8753(6)
O9_2 O 0.0193(3) 0.3163(3) 0.7178(6)
O20_2 O 0.2285(4) 0.3961(3) 0.8763(7)
O31_2 O 0.0450(10) 0.2324(5) 0.8952(9)
H4_2 H 0.092671 0.227317 0.906077
H5_2 H 0.0220597 0.194789 0.920985
O30_2 O 0.9647(5) 0.3416(4) 0.2018(7)
O32_2 O 0.9111(7) 0.2524(6) 0.0418(10)
H6_2 H 0.94538 0.383434 0.207475
H7_2 H 0.931144 0.310283 0.220236
H12_2 H 0.922834 0.209665 0.0203614
H13_2 H 0.900721 0.253621 0.121496
Mo3_2 Mo 0.93539(4) 0.34207(4) 0.69594(7)
Mo4_2 Mo 0.85085(4) 0.40554(4) 0.87806(7)
O3_2 O 0.9449(3) 0.3722(3) 0.5569(6)
O10_2 O 0.8935(4) 0.2763(3) 0.6775(6)
O11_2 O 0.9299(3) 0.3530(3) 0.8574(5)
O12_2 O 0.8666(3) 0.4052(3) 0.7182(6)
O13_2 O 0.7922(3) 0.3525(3) 0.8975(6)
O27_2 O 0.8410(4) 0.4446(4) 0.3732(6)
O28_2 O 0.7090(4) 0.4630(4) 0.4451(8)
O29_2 O 0.7130(4) 0.5237(3) 0.6650(7)
O40_2 O 0.7287(4) 0.3905(3) 0.6617(6)
O41_2 O 0.7897(4) 0.3519(3) 0.5280(6)
H8_2 H 0.877125 0.414157 0.371609
H9_2 H 0.802639 0.427494 0.333869
H10_2 H 0.716787 0.432098 0.38635
H11_2 H 0.669931 0.450995 0.488269
H14_2 H 0.702768 0.561703 0.622939
H15_2 H 0.674351 0.496152 0.665332
Mo1_2 Mo 0.50495(4) 0.05926(3) 0.49358(7)
Mo2_2 Mo 0.60108(4) 0.13135(4) 0.28382(8)
Mo3_3 Mo 0.43539(4) 0.15793(4) 0.30406(7)
Mo4_3 Mo 0.35085(4) 0.09446(4) 0.12194(7)
Mo6_2 Mo 0.65879(4) 0.06437(4) 0.13843(8)
P1_3 P 0.5000 0.0000 0.2105(3)
O1_3 O 0.5069(4) 0.0742(3) 0.6288(5)
O2_2 O 0.4293(3) 0.0053(3) 0.4688(5)
O3_3 O 0.4449(3) 0.1278(3) 0.4431(6)
O4_3 O 0.5793(3) 0.1196(3) 0.4497(5)
O5_2 O 0.5079(3) 0.0581(3) 0.2842(5)
O6_3 O 0.6579(3) 0.1866(3) 0.3030(6)
O8_3 O 0.5884(3) 0.1259(3) 0.1247(6)
O9_3 O 0.5193(3) 0.1837(3) 0.2822(6)
O10_3 O 0.3935(4) 0.2237(3) 0.3225(6)
O11_3 O 0.4299(3) 0.1470(3) 0.1426(5)
O12_3 O 0.3666(3) 0.0948(3) 0.2818(6)
O13_3 O 0.2922(3) 0.1475(3) 0.1025(6)
O14_2 O 0.3058(3) 0.0224(3) 0.1381(6)
O20_3 O 0.7285(4) 0.1039(3) 0.1237(7)
O27_3 O 0.3410(4) 0.0554(4) 0.6268(6)
O28_3 O 0.2090(4) 0.0370(4) 0.5549(8)
O31_3 O 0.5450(10) 0.2676(5) 0.1048(9)
O35_2 O 0.6472(3) 0.0531(3) 0.2961(5)
O38_2 O 0.4392(3) 0.0059(3) 0.1354(5)
H4_3 H 0.592671 0.272683 0.0939234
H5_3 H 0.52206 0.305211 0.0790147
H8_3 H 0.377125 0.0858435 0.628391
H9_3 H 0.302639 0.0725063 0.666131
H10_3 H 0.216787 0.0679016 0.61365
H11_3 H 0.169931 0.0490047 0.511731
H15_3 H 0.174351 0.00384795 0.334668
La2_3 La 0.50601(4) 0.17651(3) 0.99751(5)
O15_2 O 0.3807(4) 0.0804(3) 0.9807(6)
O18_2 O 0.5106(3) 0.0649(3) 0.9568(5)
O19_3 O 0.6410(3) 0.0456(3) 0.9741(5)
O21_3 O 0.6055(4) 0.1525(3) 0.8783(7)
O22_3 O 0.5738(5) 0.2500(4) 0.8698(8)
O25_2 O 0.6951(4) 0.0736(3) 0.5176(6)
O26_3 O 0.7874(4) 0.1235(4) 0.4643(9)
O30_3 O 0.4647(5) 0.1584(4) 0.7982(7)
O32_3 O 0.4111(7) 0.2476(6) 0.9582(10)
C1_3 C 0.6561(6) 0.2147(5) 0.7431(9)
C2_3 C 0.6802(5) 0.2733(4) 0.7188(9)
H1_3 H 0.6669 0.3069 0.7607
C3_3 C 0.7240(5) 0.2821(4) 0.6328(8)
C4_3 C 0.7419(5) 0.2312(5) 0.5671(10)
H2_3 H 0.7697 0.2365 0.5075
C5_3 C 0.7177(5) 0.1735(5) 0.5923(9)
C6_3 C 0.6750(5) 0.1648(4) 0.6783(8)
H3_3 H 0.6589 0.1256 0.6933
C7_3 C 0.6118(6) 0.2051(6) 0.8379(9)
C8_3 C 0.7493(5) 0.3449(5) 0.6050(9)
C9_3 C 0.7353(6) 0.1181(5) 0.5181(10)
Mo9_2 Mo 0.43739(5) 0.00902(4) 0.93223(7)
H6_3 H 0.44538 0.116566 0.792525
H7_3 H 0.431144 0.189717 0.779764
H12_3 H 0.422834 0.290335 0.979639
H13_3 H 0.400721 0.246379 0.878504
P1_4 P 0.5000 1.0000 0.2105(3)
O7_2 O 0.3528(3) 0.9469(3) 0.2961(5)
O16_2 O 0.5608(3) 0.9941(3) 0.1354(5)
O29_3 O 0.2130(4) 0.9763(3) 0.3350(7)
Mo7_2 Mo 0.49505(4) 0.94074(3) 0.49358(7)
Mo8_2 Mo 0.39892(4) 0.86865(4) 0.28382(8)
Mo10_2 Mo 0.34121(4) 0.93563(4) 0.13843(8)
O33_2 O 0.5707(3) 0.9947(3) 0.4688(5)
O34_2 O 0.4921(3) 0.9419(3) 0.2842(5)
O36_2 O 0.6942(3) 0.9776(3) 0.1381(6)
O42_2 O 0.3049(4) 0.9264(3) 0.5176(6)
H14_3 H 0.202768 0.938297 0.377061
Mo5_2 Mo 0.56261(5) 0.99098(4) 0.93223(7)
O17_3 O 0.5778(4) 0.9896(3) 0.7967(6)
O37_2 O 0.6193(4) 0.9196(3) 0.9807(6)
O39_2 O 0.4894(3) 0.9351(3) 0.9568(5)
O29_4 O 0.7870(4) 0.0237(3) 0.3350(7)
H14_4 H 0.797232 0.0617034 0.377061
O17_4 O 0.4222(4) 0.0104(3) 0.7967(6)
Mo3_4 Mo 0.56461(4) 0.84207(4) 0.30406(7)
Mo4_4 Mo 0.64915(4) 0.90554(4) 0.12194(7)
O1_4 O 0.4931(4) 0.9258(3) 0.6288(5)
O3_4 O 0.5551(3) 0.8722(3) 0.4431(6)
O4_4 O 0.4207(3) 0.8804(3) 0.4497(5)
O6_4 O 0.3421(3) 0.8134(3) 0.3030(6)
O8_4 O 0.4116(3) 0.8741(3) 0.1247(6)
O9_4 O 0.4807(3) 0.8163(3) 0.2822(6)
O10_4 O 0.6065(4) 0.7763(3) 0.3225(6)
O11_4 O 0.5701(3) 0.8530(3) 0.1426(5)
O12_4 O 0.6334(3) 0.9052(3) 0.2818(6)
O13_4 O 0.7078(3) 0.8525(3) 0.1025(6)
O20_4 O 0.2715(4) 0.8961(3) 0.1237(7)
O27_4 O 0.6590(4) 0.9446(4) 0.6268(6)
O28_4 O 0.7910(4) 0.9630(4) 0.5549(8)
O31_4 O 0.4550(10) 0.7324(5) 0.1048(9)
H4_4 H 0.407329 0.727317 0.0939234
H5_4 H 0.47794 0.694789 0.0790147
H8_4 H 0.622875 0.914157 0.628391
H9_4 H 0.697361 0.927494 0.666131
H10_4 H 0.783213 0.932098 0.61365
H11_4 H 0.830069 0.950995 0.511731
H15_4 H 0.825649 0.996152 0.334668
La2_4 La 0.49399(4) 0.82349(3) 0.99751(5)
O19_4 O 0.3590(3) 0.9544(3) 0.9741(5)
O21_4 O 0.3945(4) 0.8475(3) 0.8783(7)
O22_4 O 0.4262(5) 0.7500(4) 0.8698(8)
O26_4 O 0.2126(4) 0.8765(4) 0.4643(9)
O30_4 O 0.5353(5) 0.8416(4) 0.7982(7)
O32_4 O 0.5889(7) 0.7524(6) 0.9582(10)
C1_4 C 0.3439(6) 0.7853(5) 0.7431(9)
C2_4 C 0.3198(5) 0.7267(4) 0.7188(9)
H1_4 H 0.3331 0.6931 0.7607
C3_4 C 0.2760(5) 0.7179(4) 0.6328(8)
C4_4 C 0.2581(5) 0.7688(5) 0.5671(10)
H2_4 H 0.2303 0.7635 0.5075
C5_4 C 0.2823(5) 0.8265(5) 0.5923(9)
C6_4 C 0.3250(5) 0.8352(4) 0.6783(8)
H3_4 H 0.3411 0.8744 0.6933
C7_4 C 0.3882(6) 0.7949(6) 0.8379(9)
C8_4 C 0.2507(5) 0.6551(5) 0.6050(9)
C9_4 C 0.2647(6) 0.8819(5) 0.5181(10)
H6_4 H 0.55462 0.883434 0.792525
H7_4 H 0.568856 0.810283 0.779764
H12_4 H 0.577166 0.709665 0.979639
H13_4 H 0.599279 0.753621 0.878504
loop_
_geom_bond_atom_site_label_1
_geom_bond_atom_site_label_2
_geom_bond_site_symmetry_1
_geom_bond_site_symmetry_2
O15 Mo9 1_555 1_555
Mo9 O39 1_555 1_555
O30 H6 1_555 1_555
O30 H7 1_555 1_555
O32 H12 1_555 1_555
O32 H13 1_555 1_555
La1 O2 1_555 1_555
Mo3 O3 1_555 1_555
Mo4 O11 1_555 1_555
O7 La1 1_555 1_555
O10 Mo3 1_555 1_555
O12 La1 1_555 1_555
O13 Mo4 1_555 1_555
O14 Mo4 1_555 1_555
O27 La1 1_555 1_555
O28 La1 1_555 1_555
O29 La1 1_555 1_555
Mo8 O7 1_555 1_555
Mo10 O7 1_555 1_555
O34 P1 1_555 1_555
O38 P1 1_555 1_555
O40 La1 1_555 1_555
O41 La1 1_555 1_555
O42 La1 1_555 1_555
Mo3 O11 1_555 1_555
Mo3 O12 1_555 1_555
Mo4 O12 1_555 1_555
O2 Mo7 1_555 1_555
O14 Mo10 1_555 1_555
Mo8 Mo10 1_555 1_555
Mo8 O34 1_555 1_555
O27 H8 1_555 1_555
O27 H9 1_555 1_555
O28 H10 1_555 1_555
O28 H11 1_555 1_555
O29 H14 1_555 1_555
O29 H15 1_555 1_555
O17 Mo5 1_555 1_555
O18 La2 1_555 1_555
O19 Mo5 1_555 1_555
O21 La2 1_555 1_555
O22 La2 1_555 1_555
O23 C8 1_555 1_555
O24 C8 1_555 1_555
O25 C9 1_555 1_555
O26 C9 1_555 1_555
C1 C2 1_555 1_555
C2 H1 1_555 1_555
C3 C2 1_555 1_555
C4 C3 1_555 1_555
H2 C4 1_555 1_555
C5 C4 1_555 1_555
C6 C1 1_555 1_555
H3 C6 1_555 1_555
C7 O21 1_555 1_555
C8 C3 1_555 1_555
C9 C5 1_555 1_555
La3 O23 1_555 1_555
La4 O25 1_555 1_555
O37 Mo5 1_555 1_555
Mo5 O18 1_555 1_555
O22 C7 1_555 1_555
O24 La3 1_555 1_555
C1 C7 1_555 1_555
C5 C6 1_555 1_555
Mo1 O1 1_555 1_555
Mo2 Mo6 1_555 1_555
Mo6 O8 1_555 1_555
P1_2 O5 1_555 1_555
O4 Mo1 1_555 1_555
O5 Mo2 1_555 1_555
O6 Mo2 1_555 1_555
O8 Mo2 1_555 1_555
O9 Mo2 1_555 1_555
O16 P1_2 1_555 1_555
O20 Mo6 1_555 1_555
O33 Mo1 1_555 1_555
O35 Mo2 1_555 1_555
O36 Mo6 1_555 1_555
Mo2 O4 1_555 1_555
Mo6 O35 1_555 1_555
O31 H4 1_555 1_555
O31 H5 1_555 1_555
O17_2 Mo9 1_555 1_555
O39 La2_2 1_555 1_555
O19_2 Mo9 1_555 1_555
O21_2 La2_2 1_555 1_555
O22_2 La2_2 1_555 1_555
O23_2 C8_2 1_555 1_555
O24_2 C8_2 1_555 1_555
O42 C9_2 1_555 1_555
O26_2 C9_2 1_555 1_555
C1_2 C2_2 1_555 1_555
C2_2 H1_2 1_555 1_555
C3_2 C2_2 1_555 1_555
C4_2 C3_2 1_555 1_555
H2_2 C4_2 1_555 1_555
C5_2 C4_2 1_555 1_555
C6_2 C1_2 1_555 1_555
H3_2 C6_2 1_555 1_555
C7_2 O21_2 1_555 1_555
C8_2 C3_2 1_555 1_555
C9_2 C5_2 1_555 1_555
La3_2 O23_2 1_555 1_555
O22_2 C7_2 1_555 1_555
O24_2 La3_2 1_555 1_555
C1_2 C7_2 1_555 1_555
C5_2 C6_2 1_555 1_555
Mo7 O1_2 1_555 1_555
Mo10 O8_2 1_555 1_555
O4_2 Mo7 1_555 1_555
O6_2 Mo8 1_555 1_555
O8_2 Mo8 1_555 1_555
O9_2 Mo8 1_555 1_555
O20_2 Mo10 1_555 1_555
Mo8 O4_2 1_555 1_555
O31_2 H4_2 1_555 1_555
O31_2 H5_2 1_555 1_555
O30_2 H6_2 1_555 1_555
O30_2 H7_2 1_555 1_555
O32_2 H12_2 1_555 1_555
O32_2 H13_2 1_555 1_555
La4 O33 1_555 1_555
Mo3_2 O3_2 1_555 1_555
Mo4_2 O11_2 1_555 1_555
O35 La4 1_555 1_555
O10_2 Mo3_2 1_555 1_555
O12_2 La4 1_555 1_555
O13_2 Mo4_2 1_555 1_555
O36 Mo4_2 1_555 1_555
O27_2 La4 1_555 1_555
O28_2 La4 1_555 1_555
O29_2 La4 1_555 1_555
O40_2 La4 1_555 1_555
O41_2 La4 1_555 1_555
Mo3_2 O11_2 1_555 1_555
Mo3_2 O12_2 1_555 1_555
Mo4_2 O12_2 1_555 1_555
O27_2 H8_2 1_555 1_555
O27_2 H9_2 1_555 1_555
O28_2 H10_2 1_555 1_555
O28_2 H11_2 1_555 1_555
O29_2 H14_2 1_555 1_555
O29_2 H15_2 1_555 1_555
La3_2 O2_2 1_555 1_555
Mo1_2 O1_3 1_555 1_555
Mo2_2 Mo6_2 1_555 1_555
Mo3_3 O3_3 1_555 1_555
Mo4_3 O11_3 1_555 1_555
Mo6_2 O8_3 1_555 1_555
P1_3 O5_2 1_555 1_555
O2_2 Mo1_2 1_555 1_555
O3_3 Mo1_2 1_555 1_555
O4_3 Mo1_2 1_555 1_555
O5_2 Mo2_2 1_555 1_555
O6_3 Mo2_2 1_555 1_555
O8_3 Mo2_2 1_555 1_555
O9_3 Mo2_2 1_555 1_555
O10_3 Mo3_3 1_555 1_555
O12_3 La3_2 1_555 1_555
O13_3 Mo4_3 1_555 1_555
O14_2 Mo4_3 1_555 1_555
O20_3 Mo6_2 1_555 1_555
O27_3 La3_2 1_555 1_555
O28_3 La3_2 1_555 1_555
O35_2 Mo2_2 1_555 1_555
O38_2 P1_3 1_555 1_555
Mo2_2 O4_3 1_555 1_555
Mo3_3 O9_3 1_555 1_555
Mo3_3 O11_3 1_555 1_555
Mo3_3 O12_3 1_555 1_555
Mo4_3 O12_3 1_555 1_555
Mo6_2 O35_2 1_555 1_555
O31_3 H4_3 1_555 1_555
O31_3 H5_3 1_555 1_555
O27_3 H8_3 1_555 1_555
O27_3 H9_3 1_555 1_555
O28_3 H10_3 1_555 1_555
O28_3 H11_3 1_555 1_555
O18_2 La2_3 1_555 1_555
O21_3 La2_3 1_555 1_555
O22_3 La2_3 1_555 1_555
O40_2 C8_3 1_555 1_555
O41_2 C8_3 1_555 1_555
O25_2 C9_3 1_555 1_555
O26_3 C9_3 1_555 1_555
O30_3 La2_3 1_555 1_555
O32_3 La2_3 1_555 1_555
C1_3 C2_3 1_555 1_555
C2_3 H1_3 1_555 1_555
C3_3 C2_3 1_555 1_555
C4_3 C3_3 1_555 1_555
H2_3 C4_3 1_555 1_555
C5_3 C4_3 1_555 1_555
C6_3 C1_3 1_555 1_555
H3_3 C6_3 1_555 1_555
C7_3 O21_3 1_555 1_555
C8_3 C3_3 1_555 1_555
C9_3 C5_3 1_555 1_555
O15_2 Mo9_2 1_555 1_555
O18_2 Mo9_2 1_555 1_555
O22_3 C7_3 1_555 1_555
C1_3 C7_3 1_555 1_555
C5_3 C6_3 1_555 1_555
O30_3 H6_3 1_555 1_555
O30_3 H7_3 1_555 1_555
O32_3 H12_3 1_555 1_555
O32_3 H13_3 1_555 1_555
O16_2 P1_4 1_555 1_555
Mo8_2 O7_2 1_555 1_555
Mo10_2 O7_2 1_555 1_555
O34_2 P1_4 1_555 1_555
Mo7_2 O33_2 1_555 1_555
Mo8_2 Mo10_2 1_555 1_555
Mo8_2 O34_2 1_555 1_555
O29_3 H14_3 1_555 1_555
O17_3 Mo5_2 1_555 1_555
O37_2 Mo5_2 1_555 1_555
O39_2 Mo5_2 1_555 1_555
O29_4 H14_4 1_555 1_555
O17_4 Mo9_2 1_555 1_555
La3 O33_2 1_555 1_555
Mo7_2 O1_4 1_555 1_555
Mo3_4 O3_4 1_555 1_555
Mo4_4 O11_4 1_555 1_555
Mo10_2 O8_4 1_555 1_555
O3_4 Mo7_2 1_555 1_555
O4_4 Mo7_2 1_555 1_555
O6_4 Mo8_2 1_555 1_555
O8_4 Mo8_2 1_555 1_555
O9_4 Mo8_2 1_555 1_555
O10_4 Mo3_4 1_555 1_555
O12_4 La3 1_555 1_555
O13_4 Mo4_4 1_555 1_555
O36_2 Mo4_4 1_555 1_555
O20_4 Mo10_2 1_555 1_555
O27_4 La3 1_555 1_555
O28_4 La3 1_555 1_555
Mo8_2 O4_4 1_555 1_555
Mo3_4 O9_4 1_555 1_555
Mo3_4 O11_4 1_555 1_555
Mo3_4 O12_4 1_555 1_555
Mo4_4 O12_4 1_555 1_555
O31_4 H4_4 1_555 1_555
O31_4 H5_4 1_555 1_555
O27_4 H8_4 1_555 1_555
O27_4 H9_4 1_555 1_555
O28_4 H10_4 1_555 1_555
O28_4 H11_4 1_555 1_555
O39_2 La2_4 1_555 1_555
O21_4 La2_4 1_555 1_555
O22_4 La2_4 1_555 1_555
O40 C8_4 1_555 1_555
O41 C8_4 1_555 1_555
O42_2 C9_4 1_555 1_555
O26_4 C9_4 1_555 1_555
O30_4 La2_4 1_555 1_555
O32_4 La2_4 1_555 1_555
C1_4 C2_4 1_555 1_555
C2_4 H1_4 1_555 1_555
C3_4 C2_4 1_555 1_555
C4_4 C3_4 1_555 1_555
H2_4 C4_4 1_555 1_555
C5_4 C4_4 1_555 1_555
C6_4 C1_4 1_555 1_555
H3_4 C6_4 1_555 1_555
C7_4 O21_4 1_555 1_555
C8_4 C3_4 1_555 1_555
C9_4 C5_4 1_555 1_555
O22_4 C7_4 1_555 1_555
C1_4 C7_4 1_555 1_555
C5_4 C6_4 1_555 1_555
O30_4 H6_4 1_555 1_555
O30_4 H7_4 1_555 1_555
O32_4 H12_4 1_555 1_555
O32_4 H13_4 1_555 1_555

#END
