
###############################################################################
#
# This file contains modified crystal structure data generated from the
# MOF subset of the Cambridge Structural Database (CSD) v543 
# hosted by the Cambridge Crystallographic Data Centre (CCDC).
#
# This work is licensed under the Creative Commons
# Attribution-NonCommercial-ShareAlike 4.0 International License.
# To view a copy of this license, visit
# http://creativecommons.org/licenses/by-nc-sa/4.0/
# or send a letter to
# Creative Commons, PO Box 1866, Mountain View, CA 94042, USA.
#
# CIF created using the CSD Python API on 29 September 2022
# The structure has been converted into the P1 space group
# The structure has a 3D framework
# The original CSD entry WAVLIR is in the orthorhombic crystal system
# The framework has been calculated to contain at least 10.0% void space
# The void calculation uses a probe of radius 1.32A, grid spacing 0.4
# The framework is charged, counterions have been retained in the structure
#
###############################################################################

data_WAVLIR
_chemical_formula_moiety         '(C400 H224 Co24 N16 O128 12-)n'
_symmetry_cell_setting           triclinic
_symmetry_space_group_name_H-M   'P 1'
_symmetry_Int_Tables_number      1
_space_group_name_Hall           'P 1'
loop_
_symmetry_equiv_pos_site_id
_symmetry_equiv_pos_as_xyz
1 x,y,z
_cell_length_a                   33.6004(6)
_cell_length_b                   26.9604(5)
_cell_length_c                   23.2138(5)
_cell_angle_alpha                90
_cell_angle_beta                 90
_cell_angle_gamma                90
_cell_volume                     21028.9
loop_
_atom_site_label
_atom_site_type_symbol
_atom_site_fract_x
_atom_site_fract_y
_atom_site_fract_z
O13 O 0.18836(6) 0.62758(7) 0.22474(9)
O14 O 0.15128(6) 0.56155(8) 0.20756(9)
C37 C 0.19939(10) 0.61303(10) 0.01075(13)
C38 C 0.20842(9) 0.65026(10) 0.04998(13)
H21 H 0.2209 0.6798 0.0369
C39 C 0.19969(9) 0.64501(11) 0.10690(13)
H22 H 0.2058 0.6711 0.1330
C40 C 0.18179(9) 0.60160(10) 0.12748(13)
C41 C 0.17236(10) 0.56446(10) 0.08826(13)
H23 H 0.1598 0.5350 0.1013
C42 C 0.18105(11) 0.56989(10) 0.03087(14)
H24 H 0.1745 0.5441 0.0046
C43 C 0.17297(9) 0.59550(11) 0.18954(12)
Co6 Co 0.2500 0.630203(17) 0.2500
Co10 Co 0.160046(11) 0.611659(14) 0.299252(17)
Co1 Co 0.2500 0.869797(17) 0.7500
Co2 Co 0.339954(11) 0.888341(14) 0.700748(17)
O1 O 0.32386(6) 0.83136(7) 0.65239(9)
O2 O 0.26500(6) 0.81474(7) 0.69390(8)
O3 O 0.31164(6) 0.62758(7) 0.27526(9)
O4 O 0.34872(6) 0.56155(8) 0.29244(9)
O5 O 0.18273(7) 0.44616(7) 0.65827(9)
O6 O 0.24272(7) 0.42716(8) 0.69263(11)
O7 O 0.39682(7) 0.90284(12) 0.68141(14)
O8 O 0.39522(8) 0.83930(15) 0.73715(16)
N1 N 0.29074(11) 0.61715(9) 0.54825(12)
C1 C 0.29365(8) 0.80473(10) 0.66148(11)
C2 C 0.29221(9) 0.75590(10) 0.63091(12)
C3 C 0.32284(10) 0.74203(11) 0.59310(14)
H1 H 0.3443 0.7642 0.5861
C4 C 0.32209(10) 0.69646(11) 0.56592(14)
H2 H 0.3429 0.6874 0.5403
C5 C 0.29126(11) 0.66437(10) 0.57607(13)
C6 C 0.26085(11) 0.67753(12) 0.61324(14)
H3 H 0.2395 0.6553 0.6202
C7 C 0.26175(10) 0.72297(11) 0.63993(14)
H4 H 0.2407 0.7318 0.6653
C8 C 0.30061(10) 0.61303(10) 0.48925(13)
C9 C 0.29158(9) 0.65026(10) 0.45002(13)
H5 H 0.2791 0.6798 0.4631
C10 C 0.30031(9) 0.64501(11) 0.39310(13)
H6 H 0.2942 0.6711 0.3670
C11 C 0.31821(9) 0.60160(10) 0.37252(13)
C12 C 0.32764(10) 0.56446(10) 0.41174(13)
H7 H 0.3402 0.5350 0.3987
C13 C 0.31895(11) 0.56989(10) 0.46913(14)
H8 H 0.3255 0.5441 0.4954
C14 C 0.32703(9) 0.59550(11) 0.31046(12)
C15 C 0.27287(12) 0.57621(11) 0.57717(14)
C16 C 0.24038(12) 0.55254(12) 0.55289(14)
H9 H 0.2305 0.5628 0.5164
C17 C 0.22239(11) 0.51370(11) 0.58226(14)
H10 H 0.1995 0.4982 0.5665
C18 C 0.23755(10) 0.49751(10) 0.63419(13)
C19 C 0.27050(10) 0.52071(11) 0.65729(14)
H11 H 0.2815 0.5090 0.6925
C20 C 0.28758(11) 0.56068(12) 0.62976(14)
H12 H 0.3094 0.5775 0.6469
C21 C 0.21966(9) 0.45359(10) 0.66427(13)
C22 C 0.41395(12) 0.87065(18) 0.7087(2)
C23 C 0.45852(11) 0.86938(18) 0.7082(2)
C24 C 0.47944(13) 0.8353(2) 0.7404(2)
H13 H 0.4654 0.8115 0.7629
C25 C 0.47886(12) 0.90386(19) 0.6759(2)
H14 H 0.4647 0.9276 0.6537
O9 O 0.60318(7) 0.90284(12) 0.68141(14)
O10 O 0.60478(8) 0.83930(15) 0.73715(16)
C26 C 0.58605(12) 0.87065(18) 0.7087(2)
C27 C 0.54148(11) 0.86938(18) 0.7082(2)
C28 C 0.52056(13) 0.8353(2) 0.7404(2)
H15 H 0.5346 0.8115 0.7629
C29 C 0.52114(12) 0.90386(19) 0.6759(2)
H16 H 0.5353 0.9276 0.6537
Co3 Co 0.160046(11) 0.888341(14) 0.799252(17)
O11 O 0.17614(6) 0.83136(7) 0.84761(9)
O12 O 0.23500(6) 0.81474(7) 0.80610(8)
O15 O 0.31727(7) 0.44616(7) 0.84173(9)
O16 O 0.25728(7) 0.42716(8) 0.80737(11)
N2 N 0.20926(11) 0.61715(9) 0.95175(12)
C30 C 0.20635(8) 0.80473(10) 0.83852(11)
C31 C 0.20779(9) 0.75590(10) 0.86909(12)
C32 C 0.17716(10) 0.74203(11) 0.90690(14)
H17 H 0.1557 0.7642 0.9139
C33 C 0.17791(10) 0.69646(11) 0.93408(14)
H18 H 0.1571 0.6874 0.9597
C34 C 0.20874(11) 0.66437(10) 0.92393(13)
C35 C 0.23915(11) 0.67753(12) 0.88676(14)
H19 H 0.2605 0.6553 0.8798
C36 C 0.23825(10) 0.72297(11) 0.86007(14)
H20 H 0.2593 0.7318 0.8347
C44 C 0.22713(12) 0.57621(11) 0.92283(14)
C45 C 0.25962(12) 0.55254(12) 0.94711(14)
H25 H 0.2695 0.5628 0.9836
C46 C 0.27761(11) 0.51370(11) 0.91774(14)
H26 H 0.3005 0.4982 0.9335
C47 C 0.26245(10) 0.49751(10) 0.86581(13)
C48 C 0.22950(10) 0.52071(11) 0.84271(14)
H27 H 0.2185 0.5090 0.8075
C49 C 0.21242(11) 0.56068(12) 0.87024(14)
H28 H 0.1906 0.5775 0.8531
C50 C 0.28034(9) 0.45359(10) 0.83573(13)
Co4 Co 0.2500 0.369797(17) 0.7500
Co7 Co 0.339954(11) 0.388341(14) 0.799252(17)
Co8 Co 0.339954(11) 0.611659(14) 0.200748(17)
Co9 Co 0.660046(11) 0.888341(14) 0.700748(17)
Co11 Co 0.160046(11) 0.388341(14) 0.700748(17)
O17 O 0.31164(6) 0.87242(7) 0.77526(9)
O18 O 0.18836(6) 0.87242(7) 0.72474(9)
O19 O 0.18273(7) 0.94616(7) 0.84173(9)
O20 O 0.31727(7) 0.94616(7) 0.65827(9)
O21 O 0.24272(7) 0.92716(8) 0.80737(11)
O22 O 0.25728(7) 0.92716(8) 0.69263(11)
O23 O 0.10318(7) 0.90284(12) 0.81859(14)
O24 O 0.10478(8) 0.83930(15) 0.76285(16)
O5_2 O 0.81727(7) 0.05384(7) 0.15827(9)
O6_2 O 0.75728(7) 0.07284(8) 0.19263(11)
H10_2 H 0.8005 0.0018 0.0665
C18_2 C 0.76245(10) 0.00249(10) 0.13419(13)
C21_2 C 0.78034(9) 0.04641(10) 0.16427(13)
O15_2 O 0.68273(7) 0.05384(7) 0.34173(9)
O16_2 O 0.74272(7) 0.07284(8) 0.30737(11)
H26_2 H 0.6995 0.0018 0.4335
C47_2 C 0.73755(10) 0.00249(10) 0.36581(13)
C50_2 C 0.71966(9) 0.04641(10) 0.33573(13)
Co4_2 Co 0.7500 0.130203(17) 0.2500
Co7_2 Co 0.660046(11) 0.111659(14) 0.299252(17)
Co11_2 Co 0.839954(11) 0.111659(14) 0.200748(17)
Co1_2 Co 0.7500 0.630203(17) 0.2500
Co2_2 Co 0.660046(11) 0.611659(14) 0.200748(17)
O1_2 O 0.67614(6) 0.66864(7) 0.15239(9)
O2_2 O 0.73500(6) 0.68526(7) 0.19390(8)
O7_2 O 0.60318(7) 0.59716(12) 0.18141(14)
O8_2 O 0.60478(8) 0.66070(15) 0.23715(16)
N1_2 N 0.70926(11) 0.88285(9) 0.04825(12)
C1_2 C 0.70635(8) 0.69527(10) 0.16148(11)
C2_2 C 0.70779(9) 0.74410(10) 0.13091(12)
C3_2 C 0.67716(10) 0.75797(11) 0.09310(14)
H1_2 H 0.6557 0.7358 0.0861
C4_2 C 0.67791(10) 0.80354(11) 0.06592(14)
H2_2 H 0.6571 0.8126 0.0403
C5_2 C 0.70874(11) 0.83563(10) 0.07607(13)
C6_2 C 0.73915(11) 0.82247(12) 0.11324(14)
H3_2 H 0.7605 0.8447 0.1202
C7_2 C 0.73825(10) 0.77703(11) 0.13993(14)
H4_2 H 0.7593 0.7682 0.1653
C15_2 C 0.72713(12) 0.92379(11) 0.07717(14)
C16_2 C 0.75962(12) 0.94746(12) 0.05289(14)
H9_2 H 0.7695 0.9372 0.0164
C17_2 C 0.77761(11) 0.98630(11) 0.08226(14)
C19_2 C 0.72950(10) 0.97929(11) 0.15729(14)
H11_2 H 0.7185 0.9910 0.1925
C20_2 C 0.71242(11) 0.93932(12) 0.12976(14)
H12_2 H 0.6906 0.9225 0.1469
C22_2 C 0.58605(12) 0.62935(18) 0.2087(2)
C23_2 C 0.54148(11) 0.63062(18) 0.2082(2)
C24_2 C 0.52056(13) 0.6647(2) 0.2404(2)
H13_2 H 0.5346 0.6885 0.2629
C25_2 C 0.52114(12) 0.59614(19) 0.1759(2)
H14_2 H 0.5353 0.5724 0.1537
O9_2 O 0.39682(7) 0.59716(12) 0.18141(14)
O10_2 O 0.39522(8) 0.66070(15) 0.23715(16)
C26_2 C 0.41395(12) 0.62935(18) 0.2087(2)
C27_2 C 0.45852(11) 0.63062(18) 0.2082(2)
C28_2 C 0.47944(13) 0.6647(2) 0.2404(2)
H15_2 H 0.4654 0.6885 0.2629
C29_2 C 0.47886(12) 0.59614(19) 0.1759(2)
H16_2 H 0.4647 0.5724 0.1537
Co3_2 Co 0.839954(11) 0.611659(14) 0.299252(17)
O11_2 O 0.82386(6) 0.66864(7) 0.34761(9)
O12_2 O 0.76500(6) 0.68526(7) 0.30610(8)
O13_2 O 0.81164(6) 0.87242(7) 0.72474(9)
O14_2 O 0.84872(6) 0.93845(8) 0.70756(9)
N2_2 N 0.79074(11) 0.88285(9) 0.45175(12)
C30_2 C 0.79365(8) 0.69527(10) 0.33852(11)
C31_2 C 0.79221(9) 0.74410(10) 0.36909(12)
C32_2 C 0.82284(10) 0.75797(11) 0.40690(14)
H17_2 H 0.8443 0.7358 0.4139
C33_2 C 0.82209(10) 0.80354(11) 0.43408(14)
H18_2 H 0.8429 0.8126 0.4597
C34_2 C 0.79126(11) 0.83563(10) 0.42393(13)
C35_2 C 0.76085(11) 0.82247(12) 0.38676(14)
H19_2 H 0.7395 0.8447 0.3798
C36_2 C 0.76175(10) 0.77703(11) 0.36007(14)
H20_2 H 0.7407 0.7682 0.3347
C37_2 C 0.80061(10) 0.88697(10) 0.51075(13)
C38_2 C 0.79158(9) 0.84974(10) 0.54998(13)
H21_2 H 0.7791 0.8202 0.5369
C39_2 C 0.80031(9) 0.85499(11) 0.60690(13)
H22_2 H 0.7942 0.8289 0.6330
C40_2 C 0.81821(9) 0.89840(10) 0.62748(13)
C41_2 C 0.82764(10) 0.93554(10) 0.58826(13)
H23_2 H 0.8402 0.9650 0.6013
C42_2 C 0.81895(11) 0.93011(10) 0.53087(14)
H24_2 H 0.8255 0.9559 0.5046
C43_2 C 0.82703(9) 0.90450(11) 0.68954(12)
C44_2 C 0.77287(12) 0.92379(11) 0.42283(14)
C45_2 C 0.74038(12) 0.94746(12) 0.44711(14)
H25_2 H 0.7305 0.9372 0.4836
C46_2 C 0.72239(11) 0.98630(11) 0.41774(14)
C48_2 C 0.77050(10) 0.97929(11) 0.34271(14)
H27_2 H 0.7815 0.9910 0.3075
C49_2 C 0.78758(11) 0.93932(12) 0.37024(14)
H28_2 H 0.8094 0.9225 0.3531
Co6_2 Co 0.7500 0.869797(17) 0.7500
Co10_2 Co 0.839954(11) 0.888341(14) 0.799252(17)
O17_2 O 0.68836(6) 0.62758(7) 0.27526(9)
O18_2 O 0.81164(6) 0.62758(7) 0.22474(9)
O19_2 O 0.81727(7) 0.55384(7) 0.34173(9)
O20_2 O 0.68273(7) 0.55384(7) 0.15827(9)
O21_2 O 0.75728(7) 0.57284(8) 0.30737(11)
O22_2 O 0.74272(7) 0.57284(8) 0.19263(11)
O23_2 O 0.89682(7) 0.59716(12) 0.31859(14)
O24_2 O 0.89522(8) 0.66070(15) 0.26285(16)
O3_2 O 0.68836(6) 0.87242(7) 0.77526(9)
O4_2 O 0.65128(6) 0.93845(8) 0.79244(9)
C8_2 C 0.69939(10) 0.88697(10) 0.98925(13)
C9_2 C 0.70842(9) 0.84974(10) 0.95002(13)
H5_2 H 0.7209 0.8202 0.9631
C10_2 C 0.69969(9) 0.85499(11) 0.89310(13)
H6_2 H 0.7058 0.8289 0.8670
C11_2 C 0.68179(9) 0.89840(10) 0.87252(13)
C12_2 C 0.67236(10) 0.93554(10) 0.91174(13)
H7_2 H 0.6598 0.9650 0.8987
C13_2 C 0.68105(11) 0.93011(10) 0.96913(14)
H8_2 H 0.6745 0.9559 0.9954
C14_2 C 0.67297(9) 0.90450(11) 0.81046(12)
O3_3 O 0.68836(6) 0.12758(7) 0.22474(9)
O4_3 O 0.65128(6) 0.06155(8) 0.20756(9)
C8_3 C 0.69939(10) 0.11303(10) 0.01075(13)
C9_3 C 0.70842(9) 0.15026(10) 0.04998(13)
H5_3 H 0.7209 0.1798 0.0369
C10_3 C 0.69969(9) 0.14501(11) 0.10690(13)
H6_3 H 0.7058 0.1711 0.1330
C11_3 C 0.68179(9) 0.10160(10) 0.12748(13)
C12_3 C 0.67236(10) 0.06446(10) 0.08826(13)
H7_3 H 0.6598 0.0350 0.1013
C13_3 C 0.68105(11) 0.06989(10) 0.03087(14)
H8_3 H 0.6745 0.0441 0.0046
C14_3 C 0.67297(9) 0.09550(11) 0.18954(12)
Co1_3 Co 0.7500 0.369797(17) 0.7500
Co2_3 Co 0.660046(11) 0.388341(14) 0.799252(17)
O1_3 O 0.67614(6) 0.33136(7) 0.84761(9)
O2_3 O 0.73500(6) 0.31474(7) 0.80610(8)
O7_3 O 0.60318(7) 0.40284(12) 0.81859(14)
O8_3 O 0.60478(8) 0.33930(15) 0.76285(16)
N1_3 N 0.70926(11) 0.11715(9) 0.95175(12)
C1_3 C 0.70635(8) 0.30473(10) 0.83852(11)
C2_3 C 0.70779(9) 0.25590(10) 0.86909(12)
C3_3 C 0.67716(10) 0.24203(11) 0.90690(14)
H1_3 H 0.6557 0.2642 0.9139
C4_3 C 0.67791(10) 0.19646(11) 0.93408(14)
H2_3 H 0.6571 0.1874 0.9597
C5_3 C 0.70874(11) 0.16437(10) 0.92393(13)
C6_3 C 0.73915(11) 0.17753(12) 0.88676(14)
H3_3 H 0.7605 0.1553 0.8798
C7_3 C 0.73825(10) 0.22297(11) 0.86007(14)
H4_3 H 0.7593 0.2318 0.8347
C15_3 C 0.72713(12) 0.07621(11) 0.92283(14)
C16_3 C 0.75962(12) 0.05254(12) 0.94711(14)
H9_3 H 0.7695 0.0628 0.9836
C17_3 C 0.77761(11) 0.01370(11) 0.91774(14)
C19_3 C 0.72950(10) 0.02071(11) 0.84271(14)
H11_3 H 0.7185 0.0090 0.8075
C20_3 C 0.71242(11) 0.06068(12) 0.87024(14)
H12_3 H 0.6906 0.0775 0.8531
C22_3 C 0.58605(12) 0.37065(18) 0.7913(2)
C23_3 C 0.54148(11) 0.36938(18) 0.7918(2)
C24_3 C 0.52056(13) 0.3353(2) 0.7596(2)
H13_3 H 0.5346 0.3115 0.7371
C25_3 C 0.52114(12) 0.40386(19) 0.8241(2)
H14_3 H 0.5353 0.4276 0.8463
O9_3 O 0.39682(7) 0.40284(12) 0.81859(14)
O10_3 O 0.39522(8) 0.33930(15) 0.76285(16)
C26_3 C 0.41395(12) 0.37065(18) 0.7913(2)
C27_3 C 0.45852(11) 0.36938(18) 0.7918(2)
C28_3 C 0.47944(13) 0.3353(2) 0.7596(2)
H15_3 H 0.4654 0.3115 0.7371
C29_3 C 0.47886(12) 0.40386(19) 0.8241(2)
H16_3 H 0.4647 0.4276 0.8463
Co3_3 Co 0.839954(11) 0.388341(14) 0.700748(17)
O11_3 O 0.82386(6) 0.33136(7) 0.65239(9)
O12_3 O 0.76500(6) 0.31474(7) 0.69390(8)
O13_3 O 0.81164(6) 0.12758(7) 0.27526(9)
O14_3 O 0.84872(6) 0.06155(8) 0.29244(9)
N2_3 N 0.79074(11) 0.11715(9) 0.54825(12)
C30_3 C 0.79365(8) 0.30473(10) 0.66148(11)
C31_3 C 0.79221(9) 0.25590(10) 0.63091(12)
C32_3 C 0.82284(10) 0.24203(11) 0.59310(14)
H17_3 H 0.8443 0.2642 0.5861
C33_3 C 0.82209(10) 0.19646(11) 0.56592(14)
H18_3 H 0.8429 0.1874 0.5403
C34_3 C 0.79126(11) 0.16437(10) 0.57607(13)
C35_3 C 0.76085(11) 0.17753(12) 0.61324(14)
H19_3 H 0.7395 0.1553 0.6202
C36_3 C 0.76175(10) 0.22297(11) 0.63993(14)
H20_3 H 0.7407 0.2318 0.6653
C37_3 C 0.80061(10) 0.11303(10) 0.48925(13)
C38_3 C 0.79158(9) 0.15026(10) 0.45002(13)
H21_3 H 0.7791 0.1798 0.4631
C39_3 C 0.80031(9) 0.14501(11) 0.39310(13)
H22_3 H 0.7942 0.1711 0.3670
C40_3 C 0.81821(9) 0.10160(10) 0.37252(13)
C41_3 C 0.82764(10) 0.06446(10) 0.41174(13)
H23_3 H 0.8402 0.0350 0.3987
C42_3 C 0.81895(11) 0.06989(10) 0.46913(14)
H24_3 H 0.8255 0.0441 0.4954
C43_3 C 0.82703(9) 0.09550(11) 0.31046(12)
C44_3 C 0.77287(12) 0.07621(11) 0.57717(14)
C45_3 C 0.74038(12) 0.05254(12) 0.55289(14)
H25_3 H 0.7305 0.0628 0.5164
C46_3 C 0.72239(11) 0.01370(11) 0.58226(14)
C48_3 C 0.77050(10) 0.02071(11) 0.65729(14)
H27_3 H 0.7815 0.0090 0.6925
C49_3 C 0.78758(11) 0.06068(12) 0.62976(14)
H28_3 H 0.8094 0.0775 0.6469
O17_3 O 0.68836(6) 0.37242(7) 0.72474(9)
O18_3 O 0.81164(6) 0.37242(7) 0.77526(9)
O19_3 O 0.81727(7) 0.44616(7) 0.65827(9)
O20_3 O 0.68273(7) 0.44616(7) 0.84173(9)
O21_3 O 0.75728(7) 0.42716(8) 0.69263(11)
O22_3 O 0.74272(7) 0.42716(8) 0.80737(11)
O23_3 O 0.89682(7) 0.40284(12) 0.68141(14)
O24_3 O 0.89522(8) 0.33930(15) 0.73715(16)
O5_3 O 0.81727(7) 0.94616(7) 0.84173(9)
O6_3 O 0.75728(7) 0.92716(8) 0.80737(11)
H10_3 H 0.8005 0.9982 0.9335
C18_3 C 0.76245(10) 0.99751(10) 0.86581(13)
C21_3 C 0.78034(9) 0.95359(10) 0.83573(13)
O15_3 O 0.68273(7) 0.94616(7) 0.65827(9)
O16_3 O 0.74272(7) 0.92716(8) 0.69263(11)
H26_3 H 0.6995 0.9982 0.5665
C47_3 C 0.73755(10) 0.99751(10) 0.63419(13)
C50_3 C 0.71966(9) 0.95359(10) 0.66427(13)
Co1_4 Co 0.2500 0.130203(17) 0.2500
Co2_4 Co 0.339954(11) 0.111659(14) 0.299252(17)
O1_4 O 0.32386(6) 0.16864(7) 0.34761(9)
O2_4 O 0.26500(6) 0.18526(7) 0.30610(8)
O3_4 O 0.31164(6) 0.37242(7) 0.72474(9)
O4_4 O 0.34872(6) 0.43845(8) 0.70756(9)
O5_4 O 0.18273(7) 0.55384(7) 0.34173(9)
O6_4 O 0.24272(7) 0.57284(8) 0.30737(11)
O7_4 O 0.39682(7) 0.09716(12) 0.31859(14)
O8_4 O 0.39522(8) 0.16070(15) 0.26285(16)
N1_4 N 0.29074(11) 0.38285(9) 0.45175(12)
C1_4 C 0.29365(8) 0.19527(10) 0.33852(11)
C2_4 C 0.29221(9) 0.24410(10) 0.36909(12)
C3_4 C 0.32284(10) 0.25797(11) 0.40690(14)
H1_4 H 0.3443 0.2358 0.4139
C4_4 C 0.32209(10) 0.30354(11) 0.43408(14)
H2_4 H 0.3429 0.3126 0.4597
C5_4 C 0.29126(11) 0.33563(10) 0.42393(13)
C6_4 C 0.26085(11) 0.32247(12) 0.38676(14)
H3_4 H 0.2395 0.3447 0.3798
C7_4 C 0.26175(10) 0.27703(11) 0.36007(14)
H4_4 H 0.2407 0.2682 0.3347
C8_4 C 0.30061(10) 0.38697(10) 0.51075(13)
C9_4 C 0.29158(9) 0.34974(10) 0.54998(13)
H5_4 H 0.2791 0.3202 0.5369
C10_4 C 0.30031(9) 0.35499(11) 0.60690(13)
H6_4 H 0.2942 0.3289 0.6330
C11_4 C 0.31821(9) 0.39840(10) 0.62748(13)
C12_4 C 0.32764(10) 0.43554(10) 0.58826(13)
H7_4 H 0.3402 0.4650 0.6013
C13_4 C 0.31895(11) 0.43011(10) 0.53087(14)
H8_4 H 0.3255 0.4559 0.5046
C14_4 C 0.32703(9) 0.40450(11) 0.68954(12)
C15_4 C 0.27287(12) 0.42379(11) 0.42283(14)
C16_4 C 0.24038(12) 0.44746(12) 0.44711(14)
H9_4 H 0.2305 0.4372 0.4836
C17_4 C 0.22239(11) 0.48630(11) 0.41774(14)
H10_4 H 0.1995 0.5018 0.4335
C18_4 C 0.23755(10) 0.50249(10) 0.36581(13)
C19_4 C 0.27050(10) 0.47929(11) 0.34271(14)
H11_4 H 0.2815 0.4910 0.3075
C20_4 C 0.28758(11) 0.43932(12) 0.37024(14)
H12_4 H 0.3094 0.4225 0.3531
C21_4 C 0.21966(9) 0.54641(10) 0.33573(13)
C22_4 C 0.41395(12) 0.12935(18) 0.2913(2)
C23_4 C 0.45852(11) 0.13062(18) 0.2918(2)
C24_4 C 0.47944(13) 0.1647(2) 0.2596(2)
H13_4 H 0.4654 0.1885 0.2371
C25_4 C 0.47886(12) 0.09614(19) 0.3241(2)
H14_4 H 0.4647 0.0724 0.3463
O9_4 O 0.60318(7) 0.09716(12) 0.31859(14)
O10_4 O 0.60478(8) 0.16070(15) 0.26285(16)
C26_4 C 0.58605(12) 0.12935(18) 0.2913(2)
C27_4 C 0.54148(11) 0.13062(18) 0.2918(2)
C28_4 C 0.52056(13) 0.1647(2) 0.2596(2)
H15_4 H 0.5346 0.1885 0.2371
C29_4 C 0.52114(12) 0.09614(19) 0.3241(2)
H16_4 H 0.5353 0.0724 0.3463
Co3_4 Co 0.160046(11) 0.111659(14) 0.200748(17)
O11_4 O 0.17614(6) 0.16864(7) 0.15239(9)
O12_4 O 0.23500(6) 0.18526(7) 0.19390(8)
O15_4 O 0.31727(7) 0.55384(7) 0.15827(9)
O16_4 O 0.25728(7) 0.57284(8) 0.19263(11)
N2_4 N 0.20926(11) 0.38285(9) 0.04825(12)
C30_4 C 0.20635(8) 0.19527(10) 0.16148(11)
C31_4 C 0.20779(9) 0.24410(10) 0.13091(12)
C32_4 C 0.17716(10) 0.25797(11) 0.09310(14)
H17_4 H 0.1557 0.2358 0.0861
C33_4 C 0.17791(10) 0.30354(11) 0.06592(14)
H18_4 H 0.1571 0.3126 0.0403
C34_4 C 0.20874(11) 0.33563(10) 0.07607(13)
C35_4 C 0.23915(11) 0.32247(12) 0.11324(14)
H19_4 H 0.2605 0.3447 0.1202
C36_4 C 0.23825(10) 0.27703(11) 0.13993(14)
H20_4 H 0.2593 0.2682 0.1653
C44_4 C 0.22713(12) 0.42379(11) 0.07717(14)
C45_4 C 0.25962(12) 0.44746(12) 0.05289(14)
H25_4 H 0.2695 0.4372 0.0164
C46_4 C 0.27761(11) 0.48630(11) 0.08226(14)
H26_4 H 0.3005 0.5018 0.0665
C47_4 C 0.26245(10) 0.50249(10) 0.13419(13)
C48_4 C 0.22950(10) 0.47929(11) 0.15729(14)
H27_4 H 0.2185 0.4910 0.1925
C49_4 C 0.21242(11) 0.43932(12) 0.12976(14)
H28_4 H 0.1906 0.4225 0.1469
C50_4 C 0.28034(9) 0.54641(10) 0.16427(13)
O17_4 O 0.31164(6) 0.12758(7) 0.22474(9)
O18_4 O 0.18836(6) 0.12758(7) 0.27526(9)
O19_4 O 0.18273(7) 0.05384(7) 0.15827(9)
O20_4 O 0.31727(7) 0.05384(7) 0.34173(9)
O21_4 O 0.24272(7) 0.07284(8) 0.19263(11)
O22_4 O 0.25728(7) 0.07284(8) 0.30737(11)
O23_4 O 0.10318(7) 0.09716(12) 0.18141(14)
O24_4 O 0.10478(8) 0.16070(15) 0.23715(16)
O13_4 O 0.18836(6) 0.37242(7) 0.77526(9)
O14_4 O 0.15128(6) 0.43845(8) 0.79244(9)
C37_4 C 0.19939(10) 0.38697(10) 0.98925(13)
C38_4 C 0.20842(9) 0.34974(10) 0.95002(13)
H21_4 H 0.2209 0.3202 0.9631
C39_4 C 0.19969(9) 0.35499(11) 0.89310(13)
H22_4 H 0.2058 0.3289 0.8670
C40_4 C 0.18179(9) 0.39840(10) 0.87252(13)
C41_4 C 0.17236(10) 0.43554(10) 0.91174(13)
H23_4 H 0.1598 0.4650 0.8987
C42_4 C 0.18105(11) 0.43011(10) 0.96913(14)
H24_4 H 0.1745 0.4559 0.9954
C43_4 C 0.17297(9) 0.40450(11) 0.81046(12)
O9_5 O 0.10318(7) 0.40284(12) 0.68141(14)
O10_5 O 0.10478(8) 0.33930(15) 0.73715(16)
C26_5 C 0.08605(12) 0.37065(18) 0.7087(2)
C27_5 C 0.04148(11) 0.36938(18) 0.7082(2)
C28_5 C 0.02056(13) 0.3353(2) 0.7404(2)
H15_5 H 0.0346 0.3115 0.7629
C29_5 C 0.02114(12) 0.40386(19) 0.6759(2)
H16_5 H 0.0353 0.4276 0.6537
C22_5 C 0.91395(12) 0.37065(18) 0.7087(2)
C23_5 C 0.95852(11) 0.36938(18) 0.7082(2)
C24_5 C 0.97944(13) 0.3353(2) 0.7404(2)
H13_5 H 0.9654 0.3115 0.7629
C25_5 C 0.97886(12) 0.40386(19) 0.6759(2)
H14_5 H 0.9647 0.4276 0.6537
C22_6 C 0.08605(12) 0.12935(18) 0.2087(2)
C23_6 C 0.04148(11) 0.13062(18) 0.2082(2)
C24_6 C 0.02056(13) 0.1647(2) 0.2404(2)
H13_6 H 0.0346 0.1885 0.2629
C25_6 C 0.02114(12) 0.09614(19) 0.1759(2)
H14_6 H 0.0353 0.0724 0.1537
O9_6 O 0.89682(7) 0.09716(12) 0.18141(14)
O10_6 O 0.89522(8) 0.16070(15) 0.23715(16)
C26_6 C 0.91395(12) 0.12935(18) 0.2087(2)
C27_6 C 0.95852(11) 0.13062(18) 0.2082(2)
C28_6 C 0.97944(13) 0.1647(2) 0.2404(2)
H15_6 H 0.9654 0.1885 0.2629
C29_6 C 0.97886(12) 0.09614(19) 0.1759(2)
H16_6 H 0.9647 0.0724 0.1537
C22_7 C 0.08605(12) 0.87065(18) 0.7913(2)
C23_7 C 0.04148(11) 0.86938(18) 0.7918(2)
C24_7 C 0.02056(13) 0.8353(2) 0.7596(2)
H13_7 H 0.0346 0.8115 0.7371
C25_7 C 0.02114(12) 0.90386(19) 0.8241(2)
H14_7 H 0.0353 0.9276 0.8463
O9_7 O 0.89682(7) 0.90284(12) 0.81859(14)
O10_7 O 0.89522(8) 0.83930(15) 0.76285(16)
C26_7 C 0.91395(12) 0.87065(18) 0.7913(2)
C27_7 C 0.95852(11) 0.86938(18) 0.7918(2)
C28_7 C 0.97944(13) 0.8353(2) 0.7596(2)
H15_7 H 0.9654 0.8115 0.7371
C29_7 C 0.97886(12) 0.90386(19) 0.8241(2)
H16_7 H 0.9647 0.9276 0.8463
O9_8 O 0.10318(7) 0.59716(12) 0.31859(14)
O10_8 O 0.10478(8) 0.66070(15) 0.26285(16)
C26_8 C 0.08605(12) 0.62935(18) 0.2913(2)
C27_8 C 0.04148(11) 0.63062(18) 0.2918(2)
C28_8 C 0.02056(13) 0.6647(2) 0.2596(2)
H15_8 H 0.0346 0.6885 0.2371
C29_8 C 0.02114(12) 0.59614(19) 0.3241(2)
H16_8 H 0.0353 0.5724 0.3463
C22_8 C 0.91395(12) 0.62935(18) 0.2913(2)
C23_8 C 0.95852(11) 0.63062(18) 0.2918(2)
C24_8 C 0.97944(13) 0.6647(2) 0.2596(2)
H13_8 H 0.9654 0.6885 0.2371
C25_8 C 0.97886(12) 0.59614(19) 0.3241(2)
H14_8 H 0.9647 0.5724 0.3463
O1_5 O 0.67614(6) 0.16864(7) 0.34761(9)
O2_5 O 0.73500(6) 0.18526(7) 0.30610(8)
O4_5 O 0.65128(6) 0.43845(8) 0.70756(9)
N1_5 N 0.70926(11) 0.38285(9) 0.45175(12)
C1_5 C 0.70635(8) 0.19527(10) 0.33852(11)
C2_5 C 0.70779(9) 0.24410(10) 0.36909(12)
C3_5 C 0.67716(10) 0.25797(11) 0.40690(14)
H1_5 H 0.6557 0.2358 0.4139
C4_5 C 0.67791(10) 0.30354(11) 0.43408(14)
H2_5 H 0.6571 0.3126 0.4597
C5_5 C 0.70874(11) 0.33563(10) 0.42393(13)
C6_5 C 0.73915(11) 0.32247(12) 0.38676(14)
H3_5 H 0.7605 0.3447 0.3798
C7_5 C 0.73825(10) 0.27703(11) 0.36007(14)
H4_5 H 0.7593 0.2682 0.3347
C8_5 C 0.69939(10) 0.38697(10) 0.51075(13)
C9_5 C 0.70842(9) 0.34974(10) 0.54998(13)
H5_5 H 0.7209 0.3202 0.5369
C10_5 C 0.69969(9) 0.35499(11) 0.60690(13)
H6_5 H 0.7058 0.3289 0.6330
C11_5 C 0.68179(9) 0.39840(10) 0.62748(13)
C12_5 C 0.67236(10) 0.43554(10) 0.58826(13)
H7_5 H 0.6598 0.4650 0.6013
C13_5 C 0.68105(11) 0.43011(10) 0.53087(14)
H8_5 H 0.6745 0.4559 0.5046
C14_5 C 0.67297(9) 0.40450(11) 0.68954(12)
C15_5 C 0.72713(12) 0.42379(11) 0.42283(14)
C16_5 C 0.75962(12) 0.44746(12) 0.44711(14)
H9_5 H 0.7695 0.4372 0.4836
C17_5 C 0.77761(11) 0.48630(11) 0.41774(14)
H10_5 H 0.8005 0.5018 0.4335
C18_5 C 0.76245(10) 0.50249(10) 0.36581(13)
C19_5 C 0.72950(10) 0.47929(11) 0.34271(14)
H11_5 H 0.7185 0.4910 0.3075
C20_5 C 0.71242(11) 0.43932(12) 0.37024(14)
H12_5 H 0.6906 0.4225 0.3531
C21_5 C 0.78034(9) 0.54641(10) 0.33573(13)
O11_5 O 0.82386(6) 0.16864(7) 0.15239(9)
O12_5 O 0.76500(6) 0.18526(7) 0.19390(8)
N2_5 N 0.79074(11) 0.38285(9) 0.04825(12)
C30_5 C 0.79365(8) 0.19527(10) 0.16148(11)
C31_5 C 0.79221(9) 0.24410(10) 0.13091(12)
C32_5 C 0.82284(10) 0.25797(11) 0.09310(14)
H17_5 H 0.8443 0.2358 0.0861
C33_5 C 0.82209(10) 0.30354(11) 0.06592(14)
H18_5 H 0.8429 0.3126 0.0403
C34_5 C 0.79126(11) 0.33563(10) 0.07607(13)
C35_5 C 0.76085(11) 0.32247(12) 0.11324(14)
H19_5 H 0.7395 0.3447 0.1202
C36_5 C 0.76175(10) 0.27703(11) 0.13993(14)
H20_5 H 0.7407 0.2682 0.1653
C44_5 C 0.77287(12) 0.42379(11) 0.07717(14)
C45_5 C 0.74038(12) 0.44746(12) 0.05289(14)
H25_5 H 0.7305 0.4372 0.0164
C46_5 C 0.72239(11) 0.48630(11) 0.08226(14)
H26_5 H 0.6995 0.5018 0.0665
C47_5 C 0.73755(10) 0.50249(10) 0.13419(13)
C48_5 C 0.77050(10) 0.47929(11) 0.15729(14)
H27_5 H 0.7815 0.4910 0.1925
C49_5 C 0.78758(11) 0.43932(12) 0.12976(14)
H28_5 H 0.8094 0.4225 0.1469
C50_5 C 0.71966(9) 0.54641(10) 0.16427(13)
O14_5 O 0.84872(6) 0.43845(8) 0.79244(9)
C37_5 C 0.80061(10) 0.38697(10) 0.98925(13)
C38_5 C 0.79158(9) 0.34974(10) 0.95002(13)
H21_5 H 0.7791 0.3202 0.9631
C39_5 C 0.80031(9) 0.35499(11) 0.89310(13)
H22_5 H 0.7942 0.3289 0.8670
C40_5 C 0.81821(9) 0.39840(10) 0.87252(13)
C41_5 C 0.82764(10) 0.43554(10) 0.91174(13)
H23_5 H 0.8402 0.4650 0.8987
C42_5 C 0.81895(11) 0.43011(10) 0.96913(14)
H24_5 H 0.8255 0.4559 0.9954
C43_5 C 0.82703(9) 0.40450(11) 0.81046(12)
O4_6 O 0.34872(6) 0.06155(8) 0.20756(9)
C8_6 C 0.30061(10) 0.11303(10) 0.01075(13)
C9_6 C 0.29158(9) 0.15026(10) 0.04998(13)
H5_6 H 0.2791 0.1798 0.0369
C10_6 C 0.30031(9) 0.14501(11) 0.10690(13)
H6_6 H 0.2942 0.1711 0.1330
C11_6 C 0.31821(9) 0.10160(10) 0.12748(13)
C12_6 C 0.32764(10) 0.06446(10) 0.08826(13)
H7_6 H 0.3402 0.0350 0.1013
C13_6 C 0.31895(11) 0.06989(10) 0.03087(14)
H8_6 H 0.3255 0.0441 0.0046
C14_6 C 0.32703(9) 0.09550(11) 0.18954(12)
O1_6 O 0.32386(6) 0.33136(7) 0.84761(9)
O2_6 O 0.26500(6) 0.31474(7) 0.80610(8)
N1_6 N 0.29074(11) 0.11715(9) 0.95175(12)
C1_6 C 0.29365(8) 0.30473(10) 0.83852(11)
C2_6 C 0.29221(9) 0.25590(10) 0.86909(12)
C3_6 C 0.32284(10) 0.24203(11) 0.90690(14)
H1_6 H 0.3443 0.2642 0.9139
C4_6 C 0.32209(10) 0.19646(11) 0.93408(14)
H2_6 H 0.3429 0.1874 0.9597
C5_6 C 0.29126(11) 0.16437(10) 0.92393(13)
C6_6 C 0.26085(11) 0.17753(12) 0.88676(14)
H3_6 H 0.2395 0.1553 0.8798
C7_6 C 0.26175(10) 0.22297(11) 0.86007(14)
H4_6 H 0.2407 0.2318 0.8347
C15_6 C 0.27287(12) 0.07621(11) 0.92283(14)
C16_6 C 0.24038(12) 0.05254(12) 0.94711(14)
H9_6 H 0.2305 0.0628 0.9836
C17_6 C 0.22239(11) 0.01370(11) 0.91774(14)
C19_6 C 0.27050(10) 0.02071(11) 0.84271(14)
H11_6 H 0.2815 0.0090 0.8075
C20_6 C 0.28758(11) 0.06068(12) 0.87024(14)
H12_6 H 0.3094 0.0775 0.8531
O11_6 O 0.17614(6) 0.33136(7) 0.65239(9)
O12_6 O 0.23500(6) 0.31474(7) 0.69390(8)
O14_6 O 0.15128(6) 0.06155(8) 0.29244(9)
N2_6 N 0.20926(11) 0.11715(9) 0.54825(12)
C30_6 C 0.20635(8) 0.30473(10) 0.66148(11)
C31_6 C 0.20779(9) 0.25590(10) 0.63091(12)
C32_6 C 0.17716(10) 0.24203(11) 0.59310(14)
H17_6 H 0.1557 0.2642 0.5861
C33_6 C 0.17791(10) 0.19646(11) 0.56592(14)
H18_6 H 0.1571 0.1874 0.5403
C34_6 C 0.20874(11) 0.16437(10) 0.57607(13)
C35_6 C 0.23915(11) 0.17753(12) 0.61324(14)
H19_6 H 0.2605 0.1553 0.6202
C36_6 C 0.23825(10) 0.22297(11) 0.63993(14)
H20_6 H 0.2593 0.2318 0.6653
C37_6 C 0.19939(10) 0.11303(10) 0.48925(13)
C38_6 C 0.20842(9) 0.15026(10) 0.45002(13)
H21_6 H 0.2209 0.1798 0.4631
C39_6 C 0.19969(9) 0.14501(11) 0.39310(13)
H22_6 H 0.2058 0.1711 0.3670
C40_6 C 0.18179(9) 0.10160(10) 0.37252(13)
C41_6 C 0.17236(10) 0.06446(10) 0.41174(13)
H23_6 H 0.1598 0.0350 0.3987
C42_6 C 0.18105(11) 0.06989(10) 0.46913(14)
H24_6 H 0.1745 0.0441 0.4954
C43_6 C 0.17297(9) 0.09550(11) 0.31046(12)
C44_6 C 0.22713(12) 0.07621(11) 0.57717(14)
C45_6 C 0.25962(12) 0.05254(12) 0.55289(14)
H25_6 H 0.2695 0.0628 0.5164
C46_6 C 0.27761(11) 0.01370(11) 0.58226(14)
C48_6 C 0.22950(10) 0.02071(11) 0.65729(14)
H27_6 H 0.2185 0.0090 0.6925
C49_6 C 0.21242(11) 0.06068(12) 0.62976(14)
H28_6 H 0.1906 0.0775 0.6469
H10_6 H 0.1995 0.9982 0.9335
C18_6 C 0.23755(10) 0.99751(10) 0.86581(13)
C21_6 C 0.21966(9) 0.95359(10) 0.83573(13)
H26_6 H 0.3005 0.9982 0.5665
C47_6 C 0.26245(10) 0.99751(10) 0.63419(13)
C50_6 C 0.28034(9) 0.95359(10) 0.66427(13)
H10_7 H 0.1995 0.0018 0.0665
C18_7 C 0.23755(10) 0.00249(10) 0.13419(13)
C21_7 C 0.21966(9) 0.04641(10) 0.16427(13)
H26_7 H 0.3005 0.0018 0.4335
C47_7 C 0.26245(10) 0.00249(10) 0.36581(13)
C50_7 C 0.28034(9) 0.04641(10) 0.33573(13)
O1_7 O 0.32386(6) 0.66864(7) 0.15239(9)
O2_7 O 0.26500(6) 0.68526(7) 0.19390(8)
N1_7 N 0.29074(11) 0.88285(9) 0.04825(12)
C1_7 C 0.29365(8) 0.69527(10) 0.16148(11)
C2_7 C 0.29221(9) 0.74410(10) 0.13091(12)
C3_7 C 0.32284(10) 0.75797(11) 0.09310(14)
H1_7 H 0.3443 0.7358 0.0861
C4_7 C 0.32209(10) 0.80354(11) 0.06592(14)
H2_7 H 0.3429 0.8126 0.0403
C5_7 C 0.29126(11) 0.83563(10) 0.07607(13)
C6_7 C 0.26085(11) 0.82247(12) 0.11324(14)
H3_7 H 0.2395 0.8447 0.1202
C7_7 C 0.26175(10) 0.77703(11) 0.13993(14)
H4_7 H 0.2407 0.7682 0.1653
C15_7 C 0.27287(12) 0.92379(11) 0.07717(14)
C16_7 C 0.24038(12) 0.94746(12) 0.05289(14)
H9_7 H 0.2305 0.9372 0.0164
C17_7 C 0.22239(11) 0.98630(11) 0.08226(14)
C19_7 C 0.27050(10) 0.97929(11) 0.15729(14)
H11_7 H 0.2815 0.9910 0.1925
C20_7 C 0.28758(11) 0.93932(12) 0.12976(14)
H12_7 H 0.3094 0.9225 0.1469
O11_7 O 0.17614(6) 0.66864(7) 0.34761(9)
O12_7 O 0.23500(6) 0.68526(7) 0.30610(8)
O14_7 O 0.15128(6) 0.93845(8) 0.70756(9)
N2_7 N 0.20926(11) 0.88285(9) 0.45175(12)
C30_7 C 0.20635(8) 0.69527(10) 0.33852(11)
C31_7 C 0.20779(9) 0.74410(10) 0.36909(12)
C32_7 C 0.17716(10) 0.75797(11) 0.40690(14)
H17_7 H 0.1557 0.7358 0.4139
C33_7 C 0.17791(10) 0.80354(11) 0.43408(14)
H18_7 H 0.1571 0.8126 0.4597
C34_7 C 0.20874(11) 0.83563(10) 0.42393(13)
C35_7 C 0.23915(11) 0.82247(12) 0.38676(14)
H19_7 H 0.2605 0.8447 0.3798
C36_7 C 0.23825(10) 0.77703(11) 0.36007(14)
H20_7 H 0.2593 0.7682 0.3347
C37_7 C 0.19939(10) 0.88697(10) 0.51075(13)
C38_7 C 0.20842(9) 0.84974(10) 0.54998(13)
H21_7 H 0.2209 0.8202 0.5369
C39_7 C 0.19969(9) 0.85499(11) 0.60690(13)
H22_7 H 0.2058 0.8289 0.6330
C40_7 C 0.18179(9) 0.89840(10) 0.62748(13)
C41_7 C 0.17236(10) 0.93554(10) 0.58826(13)
H23_7 H 0.1598 0.9650 0.6013
C42_7 C 0.18105(11) 0.93011(10) 0.53087(14)
H24_7 H 0.1745 0.9559 0.5046
C43_7 C 0.17297(9) 0.90450(11) 0.68954(12)
C44_7 C 0.22713(12) 0.92379(11) 0.42283(14)
C45_7 C 0.25962(12) 0.94746(12) 0.44711(14)
H25_7 H 0.2695 0.9372 0.4836
C46_7 C 0.27761(11) 0.98630(11) 0.41774(14)
C48_7 C 0.22950(10) 0.97929(11) 0.34271(14)
H27_7 H 0.2185 0.9910 0.3075
C49_7 C 0.21242(11) 0.93932(12) 0.37024(14)
H28_7 H 0.1906 0.9225 0.3531
O4_7 O 0.34872(6) 0.93845(8) 0.79244(9)
C8_7 C 0.30061(10) 0.88697(10) 0.98925(13)
C9_7 C 0.29158(9) 0.84974(10) 0.95002(13)
H5_7 H 0.2791 0.8202 0.9631
C10_7 C 0.30031(9) 0.85499(11) 0.89310(13)
H6_7 H 0.2942 0.8289 0.8670
C11_7 C 0.31821(9) 0.89840(10) 0.87252(13)
C12_7 C 0.32764(10) 0.93554(10) 0.91174(13)
H7_7 H 0.3402 0.9650 0.8987
C13_7 C 0.31895(11) 0.93011(10) 0.96913(14)
H8_7 H 0.3255 0.9559 0.9954
C14_7 C 0.32703(9) 0.90450(11) 0.81046(12)
O14_8 O 0.84872(6) 0.56155(8) 0.20756(9)
C37_8 C 0.80061(10) 0.61303(10) 0.01075(13)
C38_8 C 0.79158(9) 0.65026(10) 0.04998(13)
H21_8 H 0.7791 0.6798 0.0369
C39_8 C 0.80031(9) 0.64501(11) 0.10690(13)
H22_8 H 0.7942 0.6711 0.1330
C40_8 C 0.81821(9) 0.60160(10) 0.12748(13)
C41_8 C 0.82764(10) 0.56446(10) 0.08826(13)
H23_8 H 0.8402 0.5350 0.1013
C42_8 C 0.81895(11) 0.56989(10) 0.03087(14)
H24_8 H 0.8255 0.5441 0.0046
C43_8 C 0.82703(9) 0.59550(11) 0.18954(12)
O1_8 O 0.67614(6) 0.83136(7) 0.65239(9)
O2_8 O 0.73500(6) 0.81474(7) 0.69390(8)
O4_8 O 0.65128(6) 0.56155(8) 0.29244(9)
N1_8 N 0.70926(11) 0.61715(9) 0.54825(12)
C1_8 C 0.70635(8) 0.80473(10) 0.66148(11)
C2_8 C 0.70779(9) 0.75590(10) 0.63091(12)
C3_8 C 0.67716(10) 0.74203(11) 0.59310(14)
H1_8 H 0.6557 0.7642 0.5861
C4_8 C 0.67791(10) 0.69646(11) 0.56592(14)
H2_8 H 0.6571 0.6874 0.5403
C5_8 C 0.70874(11) 0.66437(10) 0.57607(13)
C6_8 C 0.73915(11) 0.67753(12) 0.61324(14)
H3_8 H 0.7605 0.6553 0.6202
C7_8 C 0.73825(10) 0.72297(11) 0.63993(14)
H4_8 H 0.7593 0.7318 0.6653
C8_8 C 0.69939(10) 0.61303(10) 0.48925(13)
C9_8 C 0.70842(9) 0.65026(10) 0.45002(13)
H5_8 H 0.7209 0.6798 0.4631
C10_8 C 0.69969(9) 0.64501(11) 0.39310(13)
H6_8 H 0.7058 0.6711 0.3670
C11_8 C 0.68179(9) 0.60160(10) 0.37252(13)
C12_8 C 0.67236(10) 0.56446(10) 0.41174(13)
H7_8 H 0.6598 0.5350 0.3987
C13_8 C 0.68105(11) 0.56989(10) 0.46913(14)
H8_8 H 0.6745 0.5441 0.4954
C14_8 C 0.67297(9) 0.59550(11) 0.31046(12)
C15_8 C 0.72713(12) 0.57621(11) 0.57717(14)
C16_8 C 0.75962(12) 0.55254(12) 0.55289(14)
H9_8 H 0.7695 0.5628 0.5164
C17_8 C 0.77761(11) 0.51370(11) 0.58226(14)
H10_8 H 0.8005 0.4982 0.5665
C18_8 C 0.76245(10) 0.49751(10) 0.63419(13)
C19_8 C 0.72950(10) 0.52071(11) 0.65729(14)
H11_8 H 0.7185 0.5090 0.6925
C20_8 C 0.71242(11) 0.56068(12) 0.62976(14)
H12_8 H 0.6906 0.5775 0.6469
C21_8 C 0.78034(9) 0.45359(10) 0.66427(13)
O11_8 O 0.82386(6) 0.83136(7) 0.84761(9)
O12_8 O 0.76500(6) 0.81474(7) 0.80610(8)
N2_8 N 0.79074(11) 0.61715(9) 0.95175(12)
C30_8 C 0.79365(8) 0.80473(10) 0.83852(11)
C31_8 C 0.79221(9) 0.75590(10) 0.86909(12)
C32_8 C 0.82284(10) 0.74203(11) 0.90690(14)
H17_8 H 0.8443 0.7642 0.9139
C33_8 C 0.82209(10) 0.69646(11) 0.93408(14)
H18_8 H 0.8429 0.6874 0.9597
C34_8 C 0.79126(11) 0.66437(10) 0.92393(13)
C35_8 C 0.76085(11) 0.67753(12) 0.88676(14)
H19_8 H 0.7395 0.6553 0.8798
C36_8 C 0.76175(10) 0.72297(11) 0.86007(14)
H20_8 H 0.7407 0.7318 0.8347
C44_8 C 0.77287(12) 0.57621(11) 0.92283(14)
C45_8 C 0.74038(12) 0.55254(12) 0.94711(14)
H25_8 H 0.7305 0.5628 0.9836
C46_8 C 0.72239(11) 0.51370(11) 0.91774(14)
H26_8 H 0.6995 0.4982 0.9335
C47_8 C 0.73755(10) 0.49751(10) 0.86581(13)
C48_8 C 0.77050(10) 0.52071(11) 0.84271(14)
H27_8 H 0.7815 0.5090 0.8075
C49_8 C 0.78758(11) 0.56068(12) 0.87024(14)
H28_8 H 0.8094 0.5775 0.8531
C50_8 C 0.71966(9) 0.45359(10) 0.83573(13)
loop_
_geom_bond_atom_site_label_1
_geom_bond_atom_site_label_2
_geom_bond_site_symmetry_1
_geom_bond_site_symmetry_2
O13 C43 1_555 1_555
O14 C43 1_555 1_555
C38 C37 1_555 1_555
H21 C38 1_555 1_555
C39 C38 1_555 1_555
H22 C39 1_555 1_555
C40 C39 1_555 1_555
C41 C40 1_555 1_555
H23 C41 1_555 1_555
C42 C37 1_555 1_555
H24 C42 1_555 1_555
C43 C40 1_555 1_555
Co6 O13 1_555 1_555
Co10 O13 1_555 1_555
C41 C42 1_555 1_555
Co1 O2 1_555 1_555
Co2 O1 1_555 1_555
O1 C1 1_555 1_555
O2 C1 1_555 1_555
O3 C14 1_555 1_555
O4 C14 1_555 1_555
O5 C21 1_555 1_555
O6 C21 1_555 1_555
O7 Co2 1_555 1_555
O8 Co2 1_555 1_555
N1 C5 1_555 1_555
C1 C2 1_555 1_555
C2 C3 1_555 1_555
C3 H1 1_555 1_555
C4 C3 1_555 1_555
H2 C4 1_555 1_555
C5 C4 1_555 1_555
C6 C5 1_555 1_555
H3 C6 1_555 1_555
C7 C2 1_555 1_555
H4 C7 1_555 1_555
C8 N1 1_555 1_555
C9 C8 1_555 1_555
H5 C9 1_555 1_555
C10 C9 1_555 1_555
H6 C10 1_555 1_555
C11 C10 1_555 1_555
C12 C11 1_555 1_555
H7 C12 1_555 1_555
C13 C8 1_555 1_555
H8 C13 1_555 1_555
C14 C11 1_555 1_555
C15 N1 1_555 1_555
C16 C15 1_555 1_555
H9 C16 1_555 1_555
C17 C16 1_555 1_555
H10 C17 1_555 1_555
C18 C17 1_555 1_555
C19 C18 1_555 1_555
H11 C19 1_555 1_555
C20 C15 1_555 1_555
H12 C20 1_555 1_555
C21 C18 1_555 1_555
C22 O7 1_555 1_555
C23 C22 1_555 1_555
C24 C23 1_555 1_555
H13 C24 1_555 1_555
C25 C23 1_555 1_555
H14 C25 1_555 1_555
O9 C26 1_555 1_555
O10 C26 1_555 1_555
C26 C27 1_555 1_555
C27 C28 1_555 1_555
C28 C24 1_555 1_555
H15 C28 1_555 1_555
C29 C25 1_555 1_555
H16 C29 1_555 1_555
Co3 O11 1_555 1_555
O11 C30 1_555 1_555
O12 Co1 1_555 1_555
O15 C50 1_555 1_555
O16 C50 1_555 1_555
N2 C34 1_555 1_555
C30 O12 1_555 1_555
C31 C30 1_555 1_555
C32 C31 1_555 1_555
H17 C32 1_555 1_555
C33 C32 1_555 1_555
H18 C33 1_555 1_555
C34 C33 1_555 1_555
C35 C34 1_555 1_555
H19 C35 1_555 1_555
C36 C31 1_555 1_555
H20 C36 1_555 1_555
C44 N2 1_555 1_555
C45 C44 1_555 1_555
H25 C45 1_555 1_555
C46 C45 1_555 1_555
H26 C46 1_555 1_555
C47 C46 1_555 1_555
C48 C47 1_555 1_555
H27 C48 1_555 1_555
C49 C44 1_555 1_555
H28 C49 1_555 1_555
C50 C47 1_555 1_555
Co4 O6 1_555 1_555
Co6 O3 1_555 1_555
Co7 O15 1_555 1_555
Co8 O3 1_555 1_555
Co9 O9 1_555 1_555
Co11 O5 1_555 1_555
O17 Co1 1_555 1_555
O18 Co1 1_555 1_555
O19 Co3 1_555 1_555
O20 Co2 1_555 1_555
O21 Co1 1_555 1_555
O22 Co1 1_555 1_555
O23 Co3 1_555 1_555
O24 Co3 1_555 1_555
Co2 O17 1_555 1_555
O8 C22 1_555 1_555
C6 C7 1_555 1_555
C12 C13 1_555 1_555
C19 C20 1_555 1_555
O10 Co9 1_555 1_555
C27 C29 1_555 1_555
Co3 O18 1_555 1_555
O16 Co4 1_555 1_555
C35 C36 1_555 1_555
C48 C49 1_555 1_555
O5_2 C21_2 1_555 1_555
O6_2 C21_2 1_555 1_555
C21_2 C18_2 1_555 1_555
O15_2 C50_2 1_555 1_555
O16_2 C50_2 1_555 1_555
C50_2 C47_2 1_555 1_555
Co4_2 O6_2 1_555 1_555
Co7_2 O15_2 1_555 1_555
Co11_2 O5_2 1_555 1_555
O16_2 Co4_2 1_555 1_555
Co1_2 O2_2 1_555 1_555
Co2_2 O1_2 1_555 1_555
O1_2 C1_2 1_555 1_555
O2_2 C1_2 1_555 1_555
O7_2 Co2_2 1_555 1_555
O8_2 Co2_2 1_555 1_555
N1_2 C5_2 1_555 1_555
C1_2 C2_2 1_555 1_555
C2_2 C3_2 1_555 1_555
C3_2 H1_2 1_555 1_555
C4_2 C3_2 1_555 1_555
H2_2 C4_2 1_555 1_555
C5_2 C4_2 1_555 1_555
C6_2 C5_2 1_555 1_555
H3_2 C6_2 1_555 1_555
C7_2 C2_2 1_555 1_555
H4_2 C7_2 1_555 1_555
C15_2 N1_2 1_555 1_555
C16_2 C15_2 1_555 1_555
H9_2 C16_2 1_555 1_555
C17_2 C16_2 1_555 1_555
H11_2 C19_2 1_555 1_555
C20_2 C15_2 1_555 1_555
H12_2 C20_2 1_555 1_555
C22_2 O7_2 1_555 1_555
C23_2 C22_2 1_555 1_555
C24_2 C23_2 1_555 1_555
H13_2 C24_2 1_555 1_555
C25_2 C23_2 1_555 1_555
H14_2 C25_2 1_555 1_555
O9_2 C26_2 1_555 1_555
O10_2 C26_2 1_555 1_555
C26_2 C27_2 1_555 1_555
C27_2 C28_2 1_555 1_555
C28_2 C24_2 1_555 1_555
H15_2 C28_2 1_555 1_555
C29_2 C25_2 1_555 1_555
H16_2 C29_2 1_555 1_555
Co3_2 O11_2 1_555 1_555
O11_2 C30_2 1_555 1_555
O12_2 Co1_2 1_555 1_555
O13_2 C43_2 1_555 1_555
O14_2 C43_2 1_555 1_555
N2_2 C34_2 1_555 1_555
C30_2 O12_2 1_555 1_555
C31_2 C30_2 1_555 1_555
C32_2 C31_2 1_555 1_555
H17_2 C32_2 1_555 1_555
C33_2 C32_2 1_555 1_555
H18_2 C33_2 1_555 1_555
C34_2 C33_2 1_555 1_555
C35_2 C34_2 1_555 1_555
H19_2 C35_2 1_555 1_555
C36_2 C31_2 1_555 1_555
H20_2 C36_2 1_555 1_555
C37_2 N2_2 1_555 1_555
C38_2 C37_2 1_555 1_555
H21_2 C38_2 1_555 1_555
C39_2 C38_2 1_555 1_555
H22_2 C39_2 1_555 1_555
C40_2 C39_2 1_555 1_555
C41_2 C40_2 1_555 1_555
H23_2 C41_2 1_555 1_555
C42_2 C37_2 1_555 1_555
H24_2 C42_2 1_555 1_555
C43_2 C40_2 1_555 1_555
C44_2 N2_2 1_555 1_555
C45_2 C44_2 1_555 1_555
H25_2 C45_2 1_555 1_555
C46_2 C45_2 1_555 1_555
H27_2 C48_2 1_555 1_555
C49_2 C44_2 1_555 1_555
H28_2 C49_2 1_555 1_555
Co6_2 O13_2 1_555 1_555
Co8 O9_2 1_555 1_555
Co10_2 O13_2 1_555 1_555
O17_2 Co1_2 1_555 1_555
O18_2 Co1_2 1_555 1_555
O19_2 Co3_2 1_555 1_555
O20_2 Co2_2 1_555 1_555
O21_2 Co1_2 1_555 1_555
O22_2 Co1_2 1_555 1_555
O23_2 Co3_2 1_555 1_555
O24_2 Co3_2 1_555 1_555
Co2_2 O17_2 1_555 1_555
O8_2 C22_2 1_555 1_555
C6_2 C7_2 1_555 1_555
C19_2 C20_2 1_555 1_555
O10_2 Co8 1_555 1_555
C27_2 C29_2 1_555 1_555
Co3_2 O18_2 1_555 1_555
C35_2 C36_2 1_555 1_555
C41_2 C42_2 1_555 1_555
C48_2 C49_2 1_555 1_555
O3_2 C14_2 1_555 1_555
O4_2 C14_2 1_555 1_555
C9_2 C8_2 1_555 1_555
H5_2 C9_2 1_555 1_555
C10_2 C9_2 1_555 1_555
H6_2 C10_2 1_555 1_555
C11_2 C10_2 1_555 1_555
C12_2 C11_2 1_555 1_555
H7_2 C12_2 1_555 1_555
C13_2 C8_2 1_555 1_555
H8_2 C13_2 1_555 1_555
C14_2 C11_2 1_555 1_555
Co6_2 O3_2 1_555 1_555
Co9 O3_2 1_555 1_555
C12_2 C13_2 1_555 1_555
O3_3 C14_3 1_555 1_555
O4_3 C14_3 1_555 1_555
C9_3 C8_3 1_555 1_555
H5_3 C9_3 1_555 1_555
C10_3 C9_3 1_555 1_555
H6_3 C10_3 1_555 1_555
C11_3 C10_3 1_555 1_555
C12_3 C11_3 1_555 1_555
H7_3 C12_3 1_555 1_555
C13_3 C8_3 1_555 1_555
H8_3 C13_3 1_555 1_555
C14_3 C11_3 1_555 1_555
Co4_2 O3_3 1_555 1_555
Co7_2 O3_3 1_555 1_555
C12_3 C13_3 1_555 1_555
Co1_3 O2_3 1_555 1_555
Co2_3 O1_3 1_555 1_555
O1_3 C1_3 1_555 1_555
O2_3 C1_3 1_555 1_555
O7_3 Co2_3 1_555 1_555
O8_3 Co2_3 1_555 1_555
N1_3 C5_3 1_555 1_555
C1_3 C2_3 1_555 1_555
C2_3 C3_3 1_555 1_555
C3_3 H1_3 1_555 1_555
C4_3 C3_3 1_555 1_555
H2_3 C4_3 1_555 1_555
C5_3 C4_3 1_555 1_555
C6_3 C5_3 1_555 1_555
H3_3 C6_3 1_555 1_555
C7_3 C2_3 1_555 1_555
H4_3 C7_3 1_555 1_555
C15_3 N1_3 1_555 1_555
C16_3 C15_3 1_555 1_555
H9_3 C16_3 1_555 1_555
C17_3 C16_3 1_555 1_555
H11_3 C19_3 1_555 1_555
C20_3 C15_3 1_555 1_555
H12_3 C20_3 1_555 1_555
C22_3 O7_3 1_555 1_555
C23_3 C22_3 1_555 1_555
C24_3 C23_3 1_555 1_555
H13_3 C24_3 1_555 1_555
C25_3 C23_3 1_555 1_555
H14_3 C25_3 1_555 1_555
O9_3 C26_3 1_555 1_555
O10_3 C26_3 1_555 1_555
C26_3 C27_3 1_555 1_555
C27_3 C28_3 1_555 1_555
C28_3 C24_3 1_555 1_555
H15_3 C28_3 1_555 1_555
C29_3 C25_3 1_555 1_555
H16_3 C29_3 1_555 1_555
Co3_3 O11_3 1_555 1_555
O11_3 C30_3 1_555 1_555
O12_3 Co1_3 1_555 1_555
O13_3 C43_3 1_555 1_555
O14_3 C43_3 1_555 1_555
N2_3 C34_3 1_555 1_555
C30_3 O12_3 1_555 1_555
C31_3 C30_3 1_555 1_555
C32_3 C31_3 1_555 1_555
H17_3 C32_3 1_555 1_555
C33_3 C32_3 1_555 1_555
H18_3 C33_3 1_555 1_555
C34_3 C33_3 1_555 1_555
C35_3 C34_3 1_555 1_555
H19_3 C35_3 1_555 1_555
C36_3 C31_3 1_555 1_555
H20_3 C36_3 1_555 1_555
C37_3 N2_3 1_555 1_555
C38_3 C37_3 1_555 1_555
H21_3 C38_3 1_555 1_555
C39_3 C38_3 1_555 1_555
H22_3 C39_3 1_555 1_555
C40_3 C39_3 1_555 1_555
C41_3 C40_3 1_555 1_555
H23_3 C41_3 1_555 1_555
C42_3 C37_3 1_555 1_555
H24_3 C42_3 1_555 1_555
C43_3 C40_3 1_555 1_555
C44_3 N2_3 1_555 1_555
C45_3 C44_3 1_555 1_555
H25_3 C45_3 1_555 1_555
C46_3 C45_3 1_555 1_555
H27_3 C48_3 1_555 1_555
C49_3 C44_3 1_555 1_555
H28_3 C49_3 1_555 1_555
Co4_2 O13_3 1_555 1_555
Co7 O9_3 1_555 1_555
Co11_2 O13_3 1_555 1_555
O17_3 Co1_3 1_555 1_555
O18_3 Co1_3 1_555 1_555
O19_3 Co3_3 1_555 1_555
O20_3 Co2_3 1_555 1_555
O21_3 Co1_3 1_555 1_555
O22_3 Co1_3 1_555 1_555
O23_3 Co3_3 1_555 1_555
O24_3 Co3_3 1_555 1_555
Co2_3 O17_3 1_555 1_555
O8_3 C22_3 1_555 1_555
C6_3 C7_3 1_555 1_555
C19_3 C20_3 1_555 1_555
O10_3 Co7 1_555 1_555
C27_3 C29_3 1_555 1_555
Co3_3 O18_3 1_555 1_555
C35_3 C36_3 1_555 1_555
C41_3 C42_3 1_555 1_555
C48_3 C49_3 1_555 1_555
O5_3 C21_3 1_555 1_555
O6_3 C21_3 1_555 1_555
C21_3 C18_3 1_555 1_555
O15_3 C50_3 1_555 1_555
O16_3 C50_3 1_555 1_555
C50_3 C47_3 1_555 1_555
Co6_2 O6_3 1_555 1_555
Co9 O15_3 1_555 1_555
Co10_2 O5_3 1_555 1_555
O16_3 Co6_2 1_555 1_555
Co1_4 O2_4 1_555 1_555
Co2_4 O1_4 1_555 1_555
O1_4 C1_4 1_555 1_555
O2_4 C1_4 1_555 1_555
O3_4 C14_4 1_555 1_555
O4_4 C14_4 1_555 1_555
O5_4 C21_4 1_555 1_555
O6_4 C21_4 1_555 1_555
O7_4 Co2_4 1_555 1_555
O8_4 Co2_4 1_555 1_555
N1_4 C5_4 1_555 1_555
C1_4 C2_4 1_555 1_555
C2_4 C3_4 1_555 1_555
C3_4 H1_4 1_555 1_555
C4_4 C3_4 1_555 1_555
H2_4 C4_4 1_555 1_555
C5_4 C4_4 1_555 1_555
C6_4 C5_4 1_555 1_555
H3_4 C6_4 1_555 1_555
C7_4 C2_4 1_555 1_555
H4_4 C7_4 1_555 1_555
C8_4 N1_4 1_555 1_555
C9_4 C8_4 1_555 1_555
H5_4 C9_4 1_555 1_555
C10_4 C9_4 1_555 1_555
H6_4 C10_4 1_555 1_555
C11_4 C10_4 1_555 1_555
C12_4 C11_4 1_555 1_555
H7_4 C12_4 1_555 1_555
C13_4 C8_4 1_555 1_555
H8_4 C13_4 1_555 1_555
C14_4 C11_4 1_555 1_555
C15_4 N1_4 1_555 1_555
C16_4 C15_4 1_555 1_555
H9_4 C16_4 1_555 1_555
C17_4 C16_4 1_555 1_555
H10_4 C17_4 1_555 1_555
C18_4 C17_4 1_555 1_555
C19_4 C18_4 1_555 1_555
H11_4 C19_4 1_555 1_555
C20_4 C15_4 1_555 1_555
H12_4 C20_4 1_555 1_555
C21_4 C18_4 1_555 1_555
C22_4 O7_4 1_555 1_555
C23_4 C22_4 1_555 1_555
C24_4 C23_4 1_555 1_555
H13_4 C24_4 1_555 1_555
C25_4 C23_4 1_555 1_555
H14_4 C25_4 1_555 1_555
O9_4 C26_4 1_555 1_555
O10_4 C26_4 1_555 1_555
C26_4 C27_4 1_555 1_555
C27_4 C28_4 1_555 1_555
C28_4 C24_4 1_555 1_555
H15_4 C28_4 1_555 1_555
C29_4 C25_4 1_555 1_555
H16_4 C29_4 1_555 1_555
Co3_4 O11_4 1_555 1_555
O11_4 C30_4 1_555 1_555
O12_4 Co1_4 1_555 1_555
O15_4 C50_4 1_555 1_555
O16_4 C50_4 1_555 1_555
N2_4 C34_4 1_555 1_555
C30_4 O12_4 1_555 1_555
C31_4 C30_4 1_555 1_555
C32_4 C31_4 1_555 1_555
H17_4 C32_4 1_555 1_555
C33_4 C32_4 1_555 1_555
H18_4 C33_4 1_555 1_555
C34_4 C33_4 1_555 1_555
C35_4 C34_4 1_555 1_555
H19_4 C35_4 1_555 1_555
C36_4 C31_4 1_555 1_555
H20_4 C36_4 1_555 1_555
C44_4 N2_4 1_555 1_555
C45_4 C44_4 1_555 1_555
H25_4 C45_4 1_555 1_555
C46_4 C45_4 1_555 1_555
H26_4 C46_4 1_555 1_555
C47_4 C46_4 1_555 1_555
C48_4 C47_4 1_555 1_555
H27_4 C48_4 1_555 1_555
C49_4 C44_4 1_555 1_555
H28_4 C49_4 1_555 1_555
C50_4 C47_4 1_555 1_555
Co6 O6_4 1_555 1_555
Co4 O3_4 1_555 1_555
Co8 O15_4 1_555 1_555
Co7 O3_4 1_555 1_555
Co7_2 O9_4 1_555 1_555
Co10 O5_4 1_555 1_555
O17_4 Co1_4 1_555 1_555
O18_4 Co1_4 1_555 1_555
O19_4 Co3_4 1_555 1_555
O20_4 Co2_4 1_555 1_555
O21_4 Co1_4 1_555 1_555
O22_4 Co1_4 1_555 1_555
O23_4 Co3_4 1_555 1_555
O24_4 Co3_4 1_555 1_555
Co2_4 O17_4 1_555 1_555
O8_4 C22_4 1_555 1_555
C6_4 C7_4 1_555 1_555
C12_4 C13_4 1_555 1_555
C19_4 C20_4 1_555 1_555
O10_4 Co7_2 1_555 1_555
C27_4 C29_4 1_555 1_555
Co3_4 O18_4 1_555 1_555
O16_4 Co6 1_555 1_555
C35_4 C36_4 1_555 1_555
C48_4 C49_4 1_555 1_555
O13_4 C43_4 1_555 1_555
O14_4 C43_4 1_555 1_555
C38_4 C37_4 1_555 1_555
H21_4 C38_4 1_555 1_555
C39_4 C38_4 1_555 1_555
H22_4 C39_4 1_555 1_555
C40_4 C39_4 1_555 1_555
C41_4 C40_4 1_555 1_555
H23_4 C41_4 1_555 1_555
C42_4 C37_4 1_555 1_555
H24_4 C42_4 1_555 1_555
C43_4 C40_4 1_555 1_555
Co4 O13_4 1_555 1_555
Co11 O13_4 1_555 1_555
C41_4 C42_4 1_555 1_555
O9_5 C26_5 1_555 1_555
O10_5 C26_5 1_555 1_555
C26_5 C27_5 1_555 1_555
C27_5 C28_5 1_555 1_555
H15_5 C28_5 1_555 1_555
H16_5 C29_5 1_555 1_555
Co11 O9_5 1_555 1_555
O10_5 Co11 1_555 1_555
C27_5 C29_5 1_555 1_555
C22_5 O23_3 1_555 1_555
C23_5 C22_5 1_555 1_555
C24_5 C23_5 1_555 1_555
H13_5 C24_5 1_555 1_555
C25_5 C23_5 1_555 1_555
H14_5 C25_5 1_555 1_555
O24_3 C22_5 1_555 1_555
C22_6 O23_4 1_555 1_555
C23_6 C22_6 1_555 1_555
C24_6 C23_6 1_555 1_555
H13_6 C24_6 1_555 1_555
C25_6 C23_6 1_555 1_555
H14_6 C25_6 1_555 1_555
O24_4 C22_6 1_555 1_555
O9_6 C26_6 1_555 1_555
O10_6 C26_6 1_555 1_555
C26_6 C27_6 1_555 1_555
C27_6 C28_6 1_555 1_555
H15_6 C28_6 1_555 1_555
H16_6 C29_6 1_555 1_555
Co11_2 O9_6 1_555 1_555
O10_6 Co11_2 1_555 1_555
C27_6 C29_6 1_555 1_555
C22_7 O23 1_555 1_555
C23_7 C22_7 1_555 1_555
C24_7 C23_7 1_555 1_555
H13_7 C24_7 1_555 1_555
C25_7 C23_7 1_555 1_555
H14_7 C25_7 1_555 1_555
O24 C22_7 1_555 1_555
O9_7 C26_7 1_555 1_555
O10_7 C26_7 1_555 1_555
C26_7 C27_7 1_555 1_555
C27_7 C28_7 1_555 1_555
H15_7 C28_7 1_555 1_555
H16_7 C29_7 1_555 1_555
Co10_2 O9_7 1_555 1_555
O10_7 Co10_2 1_555 1_555
C27_7 C29_7 1_555 1_555
O9_8 C26_8 1_555 1_555
O10_8 C26_8 1_555 1_555
C26_8 C27_8 1_555 1_555
C27_8 C28_8 1_555 1_555
H15_8 C28_8 1_555 1_555
H16_8 C29_8 1_555 1_555
Co10 O9_8 1_555 1_555
O10_8 Co10 1_555 1_555
C27_8 C29_8 1_555 1_555
C22_8 O23_2 1_555 1_555
C23_8 C22_8 1_555 1_555
C24_8 C23_8 1_555 1_555
H13_8 C24_8 1_555 1_555
C25_8 C23_8 1_555 1_555
H14_8 C25_8 1_555 1_555
O24_2 C22_8 1_555 1_555
Co4_2 O2_5 1_555 1_555
Co7_2 O1_5 1_555 1_555
O1_5 C1_5 1_555 1_555
O2_5 C1_5 1_555 1_555
O17_3 C14_5 1_555 1_555
O4_5 C14_5 1_555 1_555
O19_2 C21_5 1_555 1_555
O21_2 C21_5 1_555 1_555
N1_5 C5_5 1_555 1_555
C1_5 C2_5 1_555 1_555
C2_5 C3_5 1_555 1_555
C3_5 H1_5 1_555 1_555
C4_5 C3_5 1_555 1_555
H2_5 C4_5 1_555 1_555
C5_5 C4_5 1_555 1_555
C6_5 C5_5 1_555 1_555
H3_5 C6_5 1_555 1_555
C7_5 C2_5 1_555 1_555
H4_5 C7_5 1_555 1_555
C8_5 N1_5 1_555 1_555
C9_5 C8_5 1_555 1_555
H5_5 C9_5 1_555 1_555
C10_5 C9_5 1_555 1_555
H6_5 C10_5 1_555 1_555
C11_5 C10_5 1_555 1_555
C12_5 C11_5 1_555 1_555
H7_5 C12_5 1_555 1_555
C13_5 C8_5 1_555 1_555
H8_5 C13_5 1_555 1_555
C14_5 C11_5 1_555 1_555
C15_5 N1_5 1_555 1_555
C16_5 C15_5 1_555 1_555
H9_5 C16_5 1_555 1_555
C17_5 C16_5 1_555 1_555
H10_5 C17_5 1_555 1_555
C18_5 C17_5 1_555 1_555
C19_5 C18_5 1_555 1_555
H11_5 C19_5 1_555 1_555
C20_5 C15_5 1_555 1_555
H12_5 C20_5 1_555 1_555
C21_5 C18_5 1_555 1_555
Co11_2 O11_5 1_555 1_555
O11_5 C30_5 1_555 1_555
O12_5 Co4_2 1_555 1_555
O20_2 C50_5 1_555 1_555
O22_2 C50_5 1_555 1_555
N2_5 C34_5 1_555 1_555
C30_5 O12_5 1_555 1_555
C31_5 C30_5 1_555 1_555
C32_5 C31_5 1_555 1_555
H17_5 C32_5 1_555 1_555
C33_5 C32_5 1_555 1_555
H18_5 C33_5 1_555 1_555
C34_5 C33_5 1_555 1_555
C35_5 C34_5 1_555 1_555
H19_5 C35_5 1_555 1_555
C36_5 C31_5 1_555 1_555
H20_5 C36_5 1_555 1_555
C44_5 N2_5 1_555 1_555
C45_5 C44_5 1_555 1_555
H25_5 C45_5 1_555 1_555
C46_5 C45_5 1_555 1_555
H26_5 C46_5 1_555 1_555
C47_5 C46_5 1_555 1_555
C48_5 C47_5 1_555 1_555
H27_5 C48_5 1_555 1_555
C49_5 C44_5 1_555 1_555
H28_5 C49_5 1_555 1_555
C50_5 C47_5 1_555 1_555
C6_5 C7_5 1_555 1_555
C12_5 C13_5 1_555 1_555
C19_5 C20_5 1_555 1_555
C35_5 C36_5 1_555 1_555
C48_5 C49_5 1_555 1_555
O18_3 C43_5 1_555 1_555
O14_5 C43_5 1_555 1_555
C38_5 C37_5 1_555 1_555
H21_5 C38_5 1_555 1_555
C39_5 C38_5 1_555 1_555
H22_5 C39_5 1_555 1_555
C40_5 C39_5 1_555 1_555
C41_5 C40_5 1_555 1_555
H23_5 C41_5 1_555 1_555
C42_5 C37_5 1_555 1_555
H24_5 C42_5 1_555 1_555
C43_5 C40_5 1_555 1_555
C41_5 C42_5 1_555 1_555
O17_4 C14_6 1_555 1_555
O4_6 C14_6 1_555 1_555
C9_6 C8_6 1_555 1_555
H5_6 C9_6 1_555 1_555
C10_6 C9_6 1_555 1_555
H6_6 C10_6 1_555 1_555
C11_6 C10_6 1_555 1_555
C12_6 C11_6 1_555 1_555
H7_6 C12_6 1_555 1_555
C13_6 C8_6 1_555 1_555
H8_6 C13_6 1_555 1_555
C14_6 C11_6 1_555 1_555
C12_6 C13_6 1_555 1_555
Co4 O2_6 1_555 1_555
Co7 O1_6 1_555 1_555
O1_6 C1_6 1_555 1_555
O2_6 C1_6 1_555 1_555
N1_6 C5_6 1_555 1_555
C1_6 C2_6 1_555 1_555
C2_6 C3_6 1_555 1_555
C3_6 H1_6 1_555 1_555
C4_6 C3_6 1_555 1_555
H2_6 C4_6 1_555 1_555
C5_6 C4_6 1_555 1_555
C6_6 C5_6 1_555 1_555
H3_6 C6_6 1_555 1_555
C7_6 C2_6 1_555 1_555
H4_6 C7_6 1_555 1_555
C15_6 N1_6 1_555 1_555
C16_6 C15_6 1_555 1_555
H9_6 C16_6 1_555 1_555
C17_6 C16_6 1_555 1_555
H11_6 C19_6 1_555 1_555
C20_6 C15_6 1_555 1_555
H12_6 C20_6 1_555 1_555
Co11 O11_6 1_555 1_555
O11_6 C30_6 1_555 1_555
O12_6 Co4 1_555 1_555
O18_4 C43_6 1_555 1_555
O14_6 C43_6 1_555 1_555
N2_6 C34_6 1_555 1_555
C30_6 O12_6 1_555 1_555
C31_6 C30_6 1_555 1_555
C32_6 C31_6 1_555 1_555
H17_6 C32_6 1_555 1_555
C33_6 C32_6 1_555 1_555
H18_6 C33_6 1_555 1_555
C34_6 C33_6 1_555 1_555
C35_6 C34_6 1_555 1_555
H19_6 C35_6 1_555 1_555
C36_6 C31_6 1_555 1_555
H20_6 C36_6 1_555 1_555
C37_6 N2_6 1_555 1_555
C38_6 C37_6 1_555 1_555
H21_6 C38_6 1_555 1_555
C39_6 C38_6 1_555 1_555
H22_6 C39_6 1_555 1_555
C40_6 C39_6 1_555 1_555
C41_6 C40_6 1_555 1_555
H23_6 C41_6 1_555 1_555
C42_6 C37_6 1_555 1_555
H24_6 C42_6 1_555 1_555
C43_6 C40_6 1_555 1_555
C44_6 N2_6 1_555 1_555
C45_6 C44_6 1_555 1_555
H25_6 C45_6 1_555 1_555
C46_6 C45_6 1_555 1_555
H27_6 C48_6 1_555 1_555
C49_6 C44_6 1_555 1_555
H28_6 C49_6 1_555 1_555
C6_6 C7_6 1_555 1_555
C19_6 C20_6 1_555 1_555
C35_6 C36_6 1_555 1_555
C41_6 C42_6 1_555 1_555
C48_6 C49_6 1_555 1_555
O19 C21_6 1_555 1_555
O21 C21_6 1_555 1_555
C21_6 C18_6 1_555 1_555
O20 C50_6 1_555 1_555
O22 C50_6 1_555 1_555
C50_6 C47_6 1_555 1_555
O19_4 C21_7 1_555 1_555
O21_4 C21_7 1_555 1_555
C21_7 C18_7 1_555 1_555
O20_4 C50_7 1_555 1_555
O22_4 C50_7 1_555 1_555
C50_7 C47_7 1_555 1_555
Co6 O2_7 1_555 1_555
Co8 O1_7 1_555 1_555
O1_7 C1_7 1_555 1_555
O2_7 C1_7 1_555 1_555
N1_7 C5_7 1_555 1_555
C1_7 C2_7 1_555 1_555
C2_7 C3_7 1_555 1_555
C3_7 H1_7 1_555 1_555
C4_7 C3_7 1_555 1_555
H2_7 C4_7 1_555 1_555
C5_7 C4_7 1_555 1_555
C6_7 C5_7 1_555 1_555
H3_7 C6_7 1_555 1_555
C7_7 C2_7 1_555 1_555
H4_7 C7_7 1_555 1_555
C15_7 N1_7 1_555 1_555
C16_7 C15_7 1_555 1_555
H9_7 C16_7 1_555 1_555
C17_7 C16_7 1_555 1_555
H11_7 C19_7 1_555 1_555
C20_7 C15_7 1_555 1_555
H12_7 C20_7 1_555 1_555
Co10 O11_7 1_555 1_555
O11_7 C30_7 1_555 1_555
O12_7 Co6 1_555 1_555
O18 C43_7 1_555 1_555
O14_7 C43_7 1_555 1_555
N2_7 C34_7 1_555 1_555
C30_7 O12_7 1_555 1_555
C31_7 C30_7 1_555 1_555
C32_7 C31_7 1_555 1_555
H17_7 C32_7 1_555 1_555
C33_7 C32_7 1_555 1_555
H18_7 C33_7 1_555 1_555
C34_7 C33_7 1_555 1_555
C35_7 C34_7 1_555 1_555
H19_7 C35_7 1_555 1_555
C36_7 C31_7 1_555 1_555
H20_7 C36_7 1_555 1_555
C37_7 N2_7 1_555 1_555
C38_7 C37_7 1_555 1_555
H21_7 C38_7 1_555 1_555
C39_7 C38_7 1_555 1_555
H22_7 C39_7 1_555 1_555
C40_7 C39_7 1_555 1_555
C41_7 C40_7 1_555 1_555
H23_7 C41_7 1_555 1_555
C42_7 C37_7 1_555 1_555
H24_7 C42_7 1_555 1_555
C43_7 C40_7 1_555 1_555
C44_7 N2_7 1_555 1_555
C45_7 C44_7 1_555 1_555
H25_7 C45_7 1_555 1_555
C46_7 C45_7 1_555 1_555
H27_7 C48_7 1_555 1_555
C49_7 C44_7 1_555 1_555
H28_7 C49_7 1_555 1_555
C6_7 C7_7 1_555 1_555
C19_7 C20_7 1_555 1_555
C35_7 C36_7 1_555 1_555
C41_7 C42_7 1_555 1_555
C48_7 C49_7 1_555 1_555
O17 C14_7 1_555 1_555
O4_7 C14_7 1_555 1_555
C9_7 C8_7 1_555 1_555
H5_7 C9_7 1_555 1_555
C10_7 C9_7 1_555 1_555
H6_7 C10_7 1_555 1_555
C11_7 C10_7 1_555 1_555
C12_7 C11_7 1_555 1_555
H7_7 C12_7 1_555 1_555
C13_7 C8_7 1_555 1_555
H8_7 C13_7 1_555 1_555
C14_7 C11_7 1_555 1_555
C12_7 C13_7 1_555 1_555
O18_2 C43_8 1_555 1_555
O14_8 C43_8 1_555 1_555
C38_8 C37_8 1_555 1_555
H21_8 C38_8 1_555 1_555
C39_8 C38_8 1_555 1_555
H22_8 C39_8 1_555 1_555
C40_8 C39_8 1_555 1_555
C41_8 C40_8 1_555 1_555
H23_8 C41_8 1_555 1_555
C42_8 C37_8 1_555 1_555
H24_8 C42_8 1_555 1_555
C43_8 C40_8 1_555 1_555
C41_8 C42_8 1_555 1_555
Co6_2 O2_8 1_555 1_555
Co9 O1_8 1_555 1_555
O1_8 C1_8 1_555 1_555
O2_8 C1_8 1_555 1_555
O17_2 C14_8 1_555 1_555
O4_8 C14_8 1_555 1_555
O19_3 C21_8 1_555 1_555
O21_3 C21_8 1_555 1_555
N1_8 C5_8 1_555 1_555
C1_8 C2_8 1_555 1_555
C2_8 C3_8 1_555 1_555
C3_8 H1_8 1_555 1_555
C4_8 C3_8 1_555 1_555
H2_8 C4_8 1_555 1_555
C5_8 C4_8 1_555 1_555
C6_8 C5_8 1_555 1_555
H3_8 C6_8 1_555 1_555
C7_8 C2_8 1_555 1_555
H4_8 C7_8 1_555 1_555
C8_8 N1_8 1_555 1_555
C9_8 C8_8 1_555 1_555
H5_8 C9_8 1_555 1_555
C10_8 C9_8 1_555 1_555
H6_8 C10_8 1_555 1_555
C11_8 C10_8 1_555 1_555
C12_8 C11_8 1_555 1_555
H7_8 C12_8 1_555 1_555
C13_8 C8_8 1_555 1_555
H8_8 C13_8 1_555 1_555
C14_8 C11_8 1_555 1_555
C15_8 N1_8 1_555 1_555
C16_8 C15_8 1_555 1_555
H9_8 C16_8 1_555 1_555
C17_8 C16_8 1_555 1_555
H10_8 C17_8 1_555 1_555
C18_8 C17_8 1_555 1_555
C19_8 C18_8 1_555 1_555
H11_8 C19_8 1_555 1_555
C20_8 C15_8 1_555 1_555
H12_8 C20_8 1_555 1_555
C21_8 C18_8 1_555 1_555
Co10_2 O11_8 1_555 1_555
O11_8 C30_8 1_555 1_555
O12_8 Co6_2 1_555 1_555
O20_3 C50_8 1_555 1_555
O22_3 C50_8 1_555 1_555
N2_8 C34_8 1_555 1_555
C30_8 O12_8 1_555 1_555
C31_8 C30_8 1_555 1_555
C32_8 C31_8 1_555 1_555
H17_8 C32_8 1_555 1_555
C33_8 C32_8 1_555 1_555
H18_8 C33_8 1_555 1_555
C34_8 C33_8 1_555 1_555
C35_8 C34_8 1_555 1_555
H19_8 C35_8 1_555 1_555
C36_8 C31_8 1_555 1_555
H20_8 C36_8 1_555 1_555
C44_8 N2_8 1_555 1_555
C45_8 C44_8 1_555 1_555
H25_8 C45_8 1_555 1_555
C46_8 C45_8 1_555 1_555
H26_8 C46_8 1_555 1_555
C47_8 C46_8 1_555 1_555
C48_8 C47_8 1_555 1_555
H27_8 C48_8 1_555 1_555
C49_8 C44_8 1_555 1_555
H28_8 C49_8 1_555 1_555
C50_8 C47_8 1_555 1_555
C6_8 C7_8 1_555 1_555
C12_8 C13_8 1_555 1_555
C19_8 C20_8 1_555 1_555
C35_8 C36_8 1_555 1_555
C48_8 C49_8 1_555 1_555

#END
