
###############################################################################
#
# This file contains modified crystal structure data generated from the
# MOF subset of the Cambridge Structural Database (CSD) v543 
# hosted by the Cambridge Crystallographic Data Centre (CCDC).
#
# This work is licensed under the Creative Commons
# Attribution-NonCommercial-ShareAlike 4.0 International License.
# To view a copy of this license, visit
# http://creativecommons.org/licenses/by-nc-sa/4.0/
# or send a letter to
# Creative Commons, PO Box 1866, Mountain View, CA 94042, USA.
#
# CIF created using the CSD Python API on 29 September 2022
# The structure has been converted into the P1 space group
# The structure has a 3D framework
# The original CSD entry WAVQER is in the cubic crystal system
# The original CSD entry WAVQER is in a Sohncke space group
# The framework has been calculated to contain at least 10.0% void space
# The void calculation uses a probe of radius 1.32A, grid spacing 0.4
# The framework is charged, counterions have been retained in the structure
#
###############################################################################

data_WAVQER
_chemical_formula_moiety         '(C144 H120 In12 N12 O92 Sm4 4-)n'
_symmetry_cell_setting           triclinic
_symmetry_space_group_name_H-M   'P 1'
_symmetry_Int_Tables_number      1
_space_group_name_Hall           'P 1'
loop_
_symmetry_equiv_pos_site_id
_symmetry_equiv_pos_as_xyz
1 x,y,z
_cell_length_a                   16.8845(2)
_cell_length_b                   16.8845(2)
_cell_length_c                   16.8845(2)
_cell_angle_alpha                90
_cell_angle_beta                 90
_cell_angle_gamma                90
_cell_volume                     4813.54
loop_
_atom_site_label
_atom_site_type_symbol
_atom_site_fract_x
_atom_site_fract_y
_atom_site_fract_z
In11 In 0.38585(4) 0.04975(4) 0.50776(4)
O28 O 0.0910(5) 0.0533(5) 0.2432(5)
H18 H 0.1767 0.0065 0.3592
Sm3 Sm 0.41606(3) 0.58394(3) 0.08394(3)
In12 In 0.11415(4) 0.95025(4) 0.00776(4)
Sm1 Sm 0.08394(3) 0.41606(3) 0.58394(3)
O2 O 0.0888(4) 0.5426(3) 0.5056(3)
O3 O 0.0384(4) 0.7186(4) 0.4996(4)
O4 O 0.0707(5) 0.3647(4) 0.7172(4)
C1 C 0.1229(6) 0.6271(5) 0.7738(5)
C2 C 0.0957(7) 0.4023(8) 0.9244(6)
H1 H 0.1503 0.4167 0.9180
H2 H 0.0920 0.3566 0.9581
H3 H 0.0673 0.4456 0.9480
O8 O 0.0536(4) 0.6466(4) 0.6541(4)
N1 N 0.0617(5) 0.3841(5) 0.8477(5)
C3 C 0.0583(6) 0.8315(5) 0.4209(6)
C4 C 0.1248(6) 0.8535(6) 0.4632(6)
H4 H 0.1408 0.8233 0.5065
C5 C 0.0879(5) 0.5951(6) 0.6967(5)
C6 C 0.0099(6) 0.7595(6) 0.4436(7)
C7 C 0.1014(7) 0.3855(6) 0.7813(6)
H5 H 0.1538 0.4024 0.7818
C8 C 0.0903(5) 0.6947(6) 0.8094(5)
H6 H 0.0452 0.7183 0.7885
O9 O 0.0960(4) 0.5242(4) 0.6820(4)
In6 In 0.04975(4) 0.50776(4) 0.38585(4)
In9 In 0.45025(4) 0.49224(4) 0.88585(4)
O15 O 0.0056(3) 0.4112(4) 0.4574(3)
O18 O 0.0004(4) 0.9616(4) 0.2186(4)
O19 O 0.2814(4) 0.9996(4) 0.4616(4)
O22 O 0.2172(4) 0.4293(5) 0.6353(4)
O23 O 0.1353(4) 0.2828(4) 0.5707(5)
C13 C 0.2262(5) 0.6229(6) 0.8729(5)
C14 C 0.1271(5) 0.7262(5) 0.8771(6)
O29 O 0.2568(5) 0.9090(5) 0.5533(5)
C15 C 0.4244(6) 0.4043(7) 0.5977(8)
C16 C 0.0977(8) 0.0756(6) 0.5957(7)
H11 H 0.4180 0.3497 0.5833
H12 H 0.0833 0.0820 0.6503
H13 H 0.4581 0.4080 0.6434
H14 H 0.1434 0.0419 0.5920
H15 H 0.4480 0.4327 0.5544
H16 H 0.0544 0.0520 0.5673
O30 O 0.3459(4) 0.5536(4) 0.8534(4)
O31 O 0.1466(4) 0.8459(4) 0.9464(4)
N2 N 0.3477(5) 0.4383(5) 0.6159(5)
N3 N 0.1159(5) 0.1523(5) 0.5617(5)
C17 C 0.0791(6) 0.9417(6) 0.3315(5)
C18 C 0.1685(5) 0.9209(6) 0.4417(6)
C19 C 0.0368(6) 0.8752(6) 0.3535(6)
C20 C 0.1465(6) 0.9632(6) 0.3752(6)
C21 C 0.3033(5) 0.5879(5) 0.9049(6)
C22 C 0.0951(6) 0.8033(5) 0.9121(5)
C23 C 0.0564(7) 0.9901(6) 0.2595(6)
C24 C 0.2405(6) 0.9436(7) 0.4901(6)
C25 C 0.2813(6) 0.3986(7) 0.6145(6)
C26 C 0.1145(6) 0.2187(6) 0.6014(7)
H19 H 0.2818 0.3462 0.5976
H20 H 0.0976 0.2182 0.6538
C27 C 0.1906(5) 0.5903(5) 0.8053(6)
C28 C 0.1947(6) 0.6906(5) 0.9097(5)
H21 H 0.2115 0.5452 0.7817
H22 H 0.2183 0.7115 0.9548
C35 C 0.3487(7) 0.5198(7) 0.6369(8)
C36 C 0.1369(8) 0.1513(7) 0.4802(7)
H25 H 0.2956 0.5373 0.6474
H26 H 0.1474 0.2044 0.4627
H27 H 0.3705 0.5502 0.5940
H28 H 0.0940 0.1295 0.4498
H29 H 0.3806 0.5270 0.6834
H30 H 0.1834 0.1194 0.4730
O34 O 0.3180(4) 0.5960(4) 0.9758(4)
O35 O 0.0242(4) 0.8180(4) 0.9040(4)
O36 O 0.1820(4) 0.4040(4) 0.4758(4)
Sm5 Sm 0.58394(3) 0.08394(3) 0.41606(3)
In7 In 0.95025(4) 0.00776(4) 0.11415(4)
O12 O 0.5056(3) 0.0888(4) 0.5426(3)
O20 O 0.4996(4) 0.0384(4) 0.7186(4)
O32 O 0.6541(4) 0.0536(4) 0.6466(4)
In4 In 0.50776(4) 0.38585(4) 0.04975(4)
O13 O 0.5426(3) 0.5056(3) 0.0888(4)
O21 O 0.7186(4) 0.4996(4) 0.0384(4)
O33 O 0.6466(4) 0.6541(4) 0.0536(4)
In1 In 0.99224(4) 0.61415(4) 0.54975(4)
O1 O 0.9398(3) 0.5602(3) 0.4398(3)
O5 O 0.8869(4) 0.6632(4) 0.5968(4)
O6 O 0.8851(5) 0.5800(5) 0.7001(4)
O7 O 0.9467(5) 0.7432(5) 0.4090(5)
C9 C 0.8593(6) 0.6378(6) 0.6627(6)
C10 C 0.7503(5) 0.6555(5) 0.7618(5)
H7 H 0.7690 0.6113 0.7888
C11 C 0.7893(6) 0.6821(6) 0.6951(6)
C12 C 0.9802(7) 0.3631(8) 0.8487(7)
H8 H 0.9627 0.3526 0.7956
H9 H 0.9498 0.4060 0.8705
H10 H 0.9730 0.3166 0.8806
Sm4 Sm 0.91606(3) 0.91606(3) 0.91606(3)
In2 In 0.54975(4) 0.99224(4) 0.61415(4)
In3 In 0.61415(4) 0.54975(4) 0.99224(4)
In5 In 0.49224(4) 0.88585(4) 0.45025(4)
In13 In 0.88585(4) 0.45025(4) 0.49224(4)
O10 O 0.5602(3) 0.4398(3) 0.9398(3)
O11 O 0.4398(3) 0.9398(3) 0.5602(3)
O14 O 0.5888(4) 0.9574(3) 0.4944(3)
O16 O 0.4944(3) 0.5888(4) 0.9574(3)
O17 O 0.9574(3) 0.4944(3) 0.5888(4)
O24 O 0.5968(4) 0.8869(4) 0.6632(4)
O25 O 0.6632(4) 0.5968(4) 0.8869(4)
O26 O 0.7001(4) 0.8851(5) 0.5800(5)
O27 O 0.5800(5) 0.7001(4) 0.8851(5)
H17 H 0.9935 0.8592 0.3233
C29 C 0.6627(6) 0.8593(6) 0.6378(6)
C30 C 0.6378(6) 0.6627(6) 0.8593(6)
C31 C 0.7618(5) 0.7503(5) 0.6555(5)
C32 C 0.6555(5) 0.7618(5) 0.7503(5)
H23 H 0.7888 0.7690 0.6113
H24 H 0.6113 0.7888 0.7690
C33 C 0.6951(6) 0.7893(6) 0.6821(6)
C34 C 0.6821(6) 0.6951(6) 0.7893(6)
O37 O 0.9758(4) 0.3180(4) 0.5960(4)
O11_2 O 0.0602(3) 0.0602(3) 0.0602(3)
In5_2 In 0.00776(4) 0.11415(4) 0.95025(4)
O2_2 O 0.4112(4) 0.4574(3) 0.0056(3)
O4_2 O 0.4293(5) 0.6353(4) 0.2172(4)
O5_2 O 0.6131(4) 0.3368(4) 0.0968(4)
O6_2 O 0.6149(5) 0.4200(5) 0.2001(4)
C1_2 C 0.3771(6) 0.3729(5) 0.2738(5)
C2_2 C 0.4043(7) 0.5977(8) 0.4244(6)
H1_2 H 0.3497 0.5833 0.4180
H2_2 H 0.4080 0.6434 0.4581
H3_2 H 0.4327 0.5544 0.4480
O8_2 O 0.4464(4) 0.3534(4) 0.1541(4)
N1_2 N 0.4383(5) 0.6159(5) 0.3477(5)
H4_2 H 0.3592 0.1767 0.0065
C5_2 C 0.4121(5) 0.4049(6) 0.1967(5)
C7_2 C 0.3986(7) 0.6145(6) 0.2813(6)
H5_2 H 0.3462 0.5976 0.2818
C8_2 C 0.4097(5) 0.3053(6) 0.3094(5)
H6_2 H 0.4548 0.2817 0.2885
C9_2 C 0.6407(6) 0.3622(6) 0.1627(6)
C10_2 C 0.7497(5) 0.3445(5) 0.2618(5)
H7_2 H 0.7310 0.3887 0.2888
C11_2 C 0.7107(6) 0.3179(6) 0.1951(6)
C12_2 C 0.5198(7) 0.6369(8) 0.3487(7)
H8_2 H 0.5373 0.6474 0.2956
H9_2 H 0.5502 0.5940 0.3705
H10_2 H 0.5270 0.6834 0.3806
O9_2 O 0.4040(4) 0.4758(4) 0.1820(4)
O21_2 O 0.7814(4) 0.5004(4) 0.5384(4)
O22_2 O 0.2828(4) 0.5707(5) 0.1353(4)
O23_2 O 0.3647(4) 0.7172(4) 0.0707(5)
O24_2 O 0.9032(4) 0.1131(4) 0.1632(4)
O25_2 O 0.8368(4) 0.4032(4) 0.3869(4)
O26_2 O 0.7999(4) 0.1149(5) 0.0800(5)
O27_2 O 0.9200(5) 0.2999(4) 0.3851(5)
C13_2 C 0.2738(5) 0.3771(6) 0.3729(5)
C14_2 C 0.3729(5) 0.2738(5) 0.3771(6)
O29_2 O 0.2432(5) 0.0910(5) 0.0533(5)
C15_2 C 0.0756(6) 0.5957(7) 0.0977(8)
C16_2 C 0.4023(8) 0.9244(6) 0.0957(7)
H11_2 H 0.0820 0.6503 0.0833
H12_2 H 0.4167 0.9180 0.1503
H13_2 H 0.0419 0.5920 0.1434
H14_2 H 0.3566 0.9581 0.0920
H15_2 H 0.0520 0.5673 0.0544
H16_2 H 0.4456 0.9480 0.0673
O30_2 O 0.1541(4) 0.4464(4) 0.3534(4)
O31_2 O 0.3534(4) 0.1541(4) 0.4464(4)
O33_2 O 0.8534(4) 0.3459(4) 0.5536(4)
N2_2 N 0.1523(5) 0.5617(5) 0.1159(5)
N3_2 N 0.3841(5) 0.8477(5) 0.0617(5)
C21_2 C 0.1967(5) 0.4121(5) 0.4049(6)
C22_2 C 0.4049(6) 0.1967(5) 0.4121(5)
C25_2 C 0.2187(6) 0.6014(7) 0.1145(6)
C26_2 C 0.3855(6) 0.7813(6) 0.1014(7)
H19_2 H 0.2182 0.6538 0.0976
H20_2 H 0.4024 0.7818 0.1538
C27_2 C 0.3094(5) 0.4097(5) 0.3053(6)
C28_2 C 0.3053(6) 0.3094(5) 0.4097(5)
H21_2 H 0.2885 0.4548 0.2817
H22_2 H 0.2817 0.2885 0.4548
C29_2 C 0.8373(6) 0.1407(6) 0.1378(6)
C30_2 C 0.8622(6) 0.3373(6) 0.3593(6)
C31_2 C 0.7382(5) 0.2497(5) 0.1555(5)
C32_2 C 0.8445(5) 0.2382(5) 0.2503(5)
H23_2 H 0.7112 0.2310 0.1113
H24_2 H 0.8887 0.2112 0.2690
C33_2 C 0.8049(6) 0.2107(6) 0.1821(6)
C34_2 C 0.8179(6) 0.3049(6) 0.2893(6)
C35_2 C 0.1513(7) 0.4802(7) 0.1369(8)
H25_2 H 0.2044 0.4627 0.1474
H27_2 H 0.1295 0.4498 0.0940
H29_2 H 0.1194 0.4730 0.1834
O35_2 O 0.4758(4) 0.1820(4) 0.4040(4)
O37_2 O 0.5242(4) 0.6820(4) 0.0960(4)
O3_2 O 0.4616(4) 0.2814(4) 0.9996(4)
O7_2 O 0.5533(5) 0.2568(5) 0.9090(5)
C3_2 C 0.4417(6) 0.1685(5) 0.9209(6)
C4_2 C 0.3752(6) 0.1465(6) 0.9632(6)
C6_2 C 0.4901(6) 0.2405(6) 0.9436(7)
O14_2 O 0.9112(4) 0.0426(3) 0.9944(3)
O19_2 O 0.2186(4) 0.0004(4) 0.9616(4)
C17_2 C 0.4209(6) 0.0583(6) 0.8315(5)
C18_2 C 0.3315(5) 0.0791(6) 0.9417(6)
C19_2 C 0.4632(6) 0.1248(6) 0.8535(6)
C20_2 C 0.3535(6) 0.0368(6) 0.8752(6)
H17_2 H 0.5065 0.1408 0.8233
C23_2 C 0.4436(7) 0.0099(6) 0.7595(6)
C24_2 C 0.2595(6) 0.0564(7) 0.9901(6)
C36_2 C 0.3631(8) 0.8487(7) 0.9802(7)
H26_2 H 0.3526 0.7956 0.9627
H28_2 H 0.4060 0.8705 0.9498
H30_2 H 0.3166 0.8806 0.9730
O12_2 O 0.9944(3) 0.9112(4) 0.0426(3)
O32_2 O 0.8459(4) 0.9464(4) 0.1466(4)
O28_2 O 0.4090(5) 0.9467(5) 0.7432(5)
H18_2 H 0.3233 0.9935 0.8592
O7_3 O 0.0533(5) 0.2432(5) 0.0910(5)
H17_3 H 0.0065 0.3592 0.1767
O5_3 O 0.1131(4) 0.1632(4) 0.9032(4)
O6_3 O 0.1149(5) 0.0800(5) 0.7999(4)
C9_3 C 0.1407(6) 0.1378(6) 0.8373(6)
C10_3 C 0.2497(5) 0.1555(5) 0.7382(5)
H7_3 H 0.2310 0.1113 0.7112
C11_3 C 0.2107(6) 0.1821(6) 0.8049(6)
O13_2 O 0.4574(3) 0.0056(3) 0.4112(4)
O20_2 O 0.5004(4) 0.5384(4) 0.7814(4)
O24_3 O 0.4032(4) 0.3869(4) 0.8368(4)
O25_3 O 0.3368(4) 0.0968(4) 0.6131(4)
O26_3 O 0.2999(4) 0.3851(5) 0.9200(5)
O27_3 O 0.4200(5) 0.2001(4) 0.6149(5)
C29_3 C 0.3373(6) 0.3593(6) 0.8622(6)
C30_3 C 0.3622(6) 0.1627(6) 0.6407(6)
C31_3 C 0.2382(5) 0.2503(5) 0.8445(5)
C32_3 C 0.3445(5) 0.2618(5) 0.7497(5)
H23_3 H 0.2112 0.2690 0.8887
H24_3 H 0.3887 0.2888 0.7310
C33_3 C 0.3049(6) 0.2893(6) 0.8179(6)
C34_3 C 0.3179(6) 0.1951(6) 0.7107(6)
C12_3 C 0.0198(7) 0.8631(8) 0.6513(7)
H8_3 H 0.0373 0.8526 0.7044
H9_3 H 0.0502 0.9060 0.6295
H10_3 H 0.0270 0.8166 0.6194
O17_2 O 0.0426(3) 0.9944(3) 0.9112(4)
O3_3 O 0.9616(4) 0.2186(4) 0.0004(4)
C3_3 C 0.9417(6) 0.3315(5) 0.0791(6)
C4_3 C 0.8752(6) 0.3535(6) 0.0368(6)
C6_3 C 0.9901(6) 0.2595(6) 0.0564(7)
O18_2 O 0.9996(4) 0.4616(4) 0.2814(4)
O28_3 O 0.9090(5) 0.5533(5) 0.2568(5)
C17_3 C 0.9209(6) 0.4417(6) 0.1685(5)
C18_3 C 0.8315(5) 0.4209(6) 0.0583(6)
C19_3 C 0.9632(6) 0.3752(6) 0.1465(6)
C20_3 C 0.8535(6) 0.4632(6) 0.1248(6)
H18_3 H 0.8233 0.5065 0.1408
C23_3 C 0.9436(7) 0.4901(6) 0.2405(6)
C24_3 C 0.7595(6) 0.4436(7) 0.0099(6)
C1_3 C 0.8771(6) 0.1271(5) 0.7262(5)
O8_3 O 0.9464(4) 0.1466(4) 0.8459(4)
H4_3 H 0.8592 0.3233 0.9935
C5_3 C 0.9121(5) 0.0951(6) 0.8033(5)
C8_3 C 0.9097(5) 0.1947(6) 0.6906(5)
H6_3 H 0.9548 0.2183 0.7115
O9_3 O 0.9040(4) 0.0242(4) 0.8180(4)
C13_3 C 0.7738(5) 0.1229(6) 0.6271(5)
C14_3 C 0.8729(5) 0.2262(5) 0.6229(6)
O29_3 O 0.7432(5) 0.4090(5) 0.9467(5)
C21_3 C 0.6967(5) 0.0879(5) 0.5951(6)
C22_3 C 0.9049(6) 0.3033(5) 0.5879(5)
C27_3 C 0.8094(5) 0.0903(5) 0.6947(6)
C28_3 C 0.8053(6) 0.1906(5) 0.5903(5)
H21_3 H 0.7885 0.0452 0.7183
H22_3 H 0.7817 0.2115 0.5452
C35_3 C 0.6513(7) 0.0198(7) 0.8631(8)
H25_3 H 0.7044 0.0373 0.8526
H27_3 H 0.6295 0.0502 0.9060
H29_3 H 0.6194 0.0270 0.8166
O34_2 O 0.6820(4) 0.0960(4) 0.5242(4)
C36_3 C 0.8631(8) 0.6513(7) 0.0198(7)
H26_3 H 0.8526 0.7044 0.0373
H28_3 H 0.9060 0.6295 0.0502
H30_3 H 0.8166 0.6194 0.0270
O36_2 O 0.8180(4) 0.9040(4) 0.0242(4)
O4_3 O 0.9293(5) 0.8647(4) 0.7828(4)
C2_3 C 0.9043(7) 0.9023(8) 0.5756(6)
H1_3 H 0.8497 0.9167 0.5820
H2_3 H 0.9080 0.8566 0.5419
H3_3 H 0.9327 0.9456 0.5520
N1_3 N 0.9383(5) 0.8841(5) 0.6523(5)
C7_3 C 0.8986(7) 0.8855(6) 0.7187(6)
H5_3 H 0.8462 0.9024 0.7182
O22_3 O 0.7828(4) 0.9293(5) 0.8647(4)
O23_3 O 0.8647(4) 0.7828(4) 0.9293(5)
C15_3 C 0.5756(6) 0.9043(7) 0.9023(8)
C16_3 C 0.9023(8) 0.5756(6) 0.9043(7)
H11_3 H 0.5820 0.8497 0.9167
H12_3 H 0.9167 0.5820 0.8497
H13_3 H 0.5419 0.9080 0.8566
H14_3 H 0.8566 0.5419 0.9080
H15_3 H 0.5520 0.9327 0.9456
H16_3 H 0.9456 0.5520 0.9327
N2_3 N 0.6523(5) 0.9383(5) 0.8841(5)
N3_3 N 0.8841(5) 0.6523(5) 0.9383(5)
C25_3 C 0.7187(6) 0.8986(7) 0.8855(6)
C26_3 C 0.8855(6) 0.7187(6) 0.8986(7)
H19_3 H 0.7182 0.8462 0.9024
H20_3 H 0.9024 0.7182 0.8462
O4_4 O 0.5707(5) 0.1353(4) 0.2828(4)
C2_4 C 0.5957(7) 0.0977(8) 0.0756(6)
H1_4 H 0.6503 0.0833 0.0820
H2_4 H 0.5920 0.1434 0.0419
H3_4 H 0.5673 0.0544 0.0520
N1_4 N 0.5617(5) 0.1159(5) 0.1523(5)
C7_4 C 0.6014(7) 0.1145(6) 0.2187(6)
H5_4 H 0.6538 0.0976 0.2182
C12_4 C 0.4802(7) 0.1369(8) 0.1513(7)
H8_4 H 0.4627 0.1474 0.2044
H9_4 H 0.4498 0.0940 0.1295
H10_4 H 0.4730 0.1834 0.1194
O22_4 O 0.7172(4) 0.0707(5) 0.3647(4)
O23_4 O 0.6353(4) 0.2172(4) 0.4293(5)
C15_4 C 0.9244(6) 0.0957(7) 0.4023(8)
C16_4 C 0.5977(8) 0.4244(6) 0.4043(7)
H11_4 H 0.9180 0.1503 0.4167
H12_4 H 0.5833 0.4180 0.3497
H13_4 H 0.9581 0.0920 0.3566
H14_4 H 0.6434 0.4581 0.4080
H15_4 H 0.9480 0.0673 0.4456
H16_4 H 0.5544 0.4480 0.4327
N2_4 N 0.8477(5) 0.0617(5) 0.3841(5)
N3_4 N 0.6159(5) 0.3477(5) 0.4383(5)
C25_4 C 0.7813(6) 0.1014(7) 0.3855(6)
C26_4 C 0.6145(6) 0.2813(6) 0.3986(7)
H19_4 H 0.7818 0.1538 0.4024
H20_4 H 0.5976 0.2818 0.3462
C36_4 C 0.6369(8) 0.3487(7) 0.5198(7)
H26_4 H 0.6474 0.2956 0.5373
H28_4 H 0.5940 0.3705 0.5502
H30_4 H 0.6834 0.3806 0.5270
O3_4 O 0.5384(4) 0.7814(4) 0.5004(4)
O5_4 O 0.3869(4) 0.8368(4) 0.4032(4)
O6_4 O 0.3851(5) 0.9200(5) 0.2999(4)
C1_4 C 0.6229(6) 0.8729(5) 0.2262(5)
O7_4 O 0.4467(5) 0.7568(5) 0.5910(5)
O8_4 O 0.5536(4) 0.8534(4) 0.3459(4)
C3_4 C 0.5583(6) 0.6685(5) 0.5791(6)
C4_4 C 0.6248(6) 0.6465(6) 0.5368(6)
H4_4 H 0.6408 0.6767 0.4935
C5_4 C 0.5879(5) 0.9049(6) 0.3033(5)
C6_4 C 0.5099(6) 0.7405(6) 0.5564(7)
C8_4 C 0.5903(5) 0.8053(6) 0.1906(5)
H6_4 H 0.5452 0.7817 0.2115
C9_4 C 0.3593(6) 0.8622(6) 0.3373(6)
C10_4 C 0.2503(5) 0.8445(5) 0.2382(5)
H7_4 H 0.2690 0.8887 0.2112
C11_4 C 0.2893(6) 0.8179(6) 0.3049(6)
O9_4 O 0.5960(4) 0.9758(4) 0.3180(4)
O24_4 O 0.0968(4) 0.6131(4) 0.3368(4)
O25_4 O 0.1632(4) 0.9032(4) 0.1131(4)
O26_4 O 0.2001(4) 0.6149(5) 0.4200(5)
O27_4 O 0.0800(5) 0.7999(4) 0.1149(5)
C13_4 C 0.7262(5) 0.8771(6) 0.1271(5)
C14_4 C 0.6271(5) 0.7738(5) 0.1229(6)
O28_4 O 0.5910(5) 0.4467(5) 0.7568(5)
O29_4 O 0.7568(5) 0.5910(5) 0.4467(5)
C17_4 C 0.5791(6) 0.5583(6) 0.6685(5)
C18_4 C 0.6685(5) 0.5791(6) 0.5583(6)
C19_4 C 0.5368(6) 0.6248(6) 0.6465(6)
C20_4 C 0.6465(6) 0.5368(6) 0.6248(6)
H17_4 H 0.4935 0.6408 0.6767
H18_4 H 0.6767 0.4935 0.6408
C21_4 C 0.8033(5) 0.9121(5) 0.0951(6)
C22_4 C 0.5951(6) 0.6967(5) 0.0879(5)
C23_4 C 0.5564(7) 0.5099(6) 0.7405(6)
C24_4 C 0.7405(6) 0.5564(7) 0.5099(6)
C27_4 C 0.6906(5) 0.9097(5) 0.1947(6)
C28_4 C 0.6947(6) 0.8094(5) 0.0903(5)
H21_4 H 0.7115 0.9548 0.2183
H22_4 H 0.7183 0.7885 0.0452
C29_4 C 0.1627(6) 0.6407(6) 0.3622(6)
C30_4 C 0.1378(6) 0.8373(6) 0.1407(6)
C31_4 C 0.2618(5) 0.7497(5) 0.3445(5)
C32_4 C 0.1555(5) 0.7382(5) 0.2497(5)
H23_4 H 0.2888 0.7310 0.3887
H24_4 H 0.1113 0.7112 0.2310
C33_4 C 0.1951(6) 0.7107(6) 0.3179(6)
C34_4 C 0.1821(6) 0.8049(6) 0.2107(6)
C35_4 C 0.8487(7) 0.9802(7) 0.3631(8)
H25_4 H 0.7956 0.9627 0.3526
H27_4 H 0.8705 0.9498 0.4060
H29_4 H 0.8806 0.9730 0.3166
loop_
_geom_bond_atom_site_label_1
_geom_bond_atom_site_label_2
_geom_bond_site_symmetry_1
_geom_bond_site_symmetry_2
Sm1 O2 1_555 1_555
O4 Sm1 1_555 1_555
C1 C5 1_555 1_555
C2 H1 1_555 1_555
H2 C2 1_555 1_555
H3 C2 1_555 1_555
N1 C2 1_555 1_555
C3 C4 1_555 1_555
C4 H4 1_555 1_555
C5 O8 1_555 1_555
C6 O3 1_555 1_555
C7 O4 1_555 1_555
H5 C7 1_555 1_555
C8 C1 1_555 1_555
H6 C8 1_555 1_555
O9 Sm1 1_555 1_555
In6 O2 1_555 1_555
In9 O30 1_555 1_555
O15 Sm1 1_555 1_555
O18 C23 1_555 1_555
O19 C24 1_555 1_555
O22 Sm1 1_555 1_555
O23 Sm1 1_555 1_555
C13 C21 1_555 1_555
C14 C8 1_555 1_555
O29 C24 1_555 1_555
C15 H11 1_555 1_555
C16 H12 1_555 1_555
H13 C15 1_555 1_555
H14 C16 1_555 1_555
H15 C15 1_555 1_555
H16 C16 1_555 1_555
O30 C21 1_555 1_555
O31 C22 1_555 1_555
N2 C15 1_555 1_555
N3 C16 1_555 1_555
C17 C19 1_555 1_555
C18 C4 1_555 1_555
C19 C3 1_555 1_555
C20 C17 1_555 1_555
C21 O34 1_555 1_555
C22 C14 1_555 1_555
C23 C17 1_555 1_555
C24 C18 1_555 1_555
C25 O22 1_555 1_555
C26 O23 1_555 1_555
H19 C25 1_555 1_555
H20 C26 1_555 1_555
C27 C1 1_555 1_555
C28 C13 1_555 1_555
H21 C27 1_555 1_555
H22 C28 1_555 1_555
C35 N2 1_555 1_555
C36 N3 1_555 1_555
H25 C35 1_555 1_555
H26 C36 1_555 1_555
H27 C35 1_555 1_555
H28 C36 1_555 1_555
H29 C35 1_555 1_555
H30 C36 1_555 1_555
O35 C22 1_555 1_555
O36 Sm1 1_555 1_555
N1 C7 1_555 1_555
C3 C6 1_555 1_555
C5 O9 1_555 1_555
In6 O15 1_555 1_555
C13 C27 1_555 1_555
C14 C28 1_555 1_555
N2 C25 1_555 1_555
N3 C26 1_555 1_555
C18 C20 1_555 1_555
Sm5 O12 1_555 1_555
In11 O12 1_555 1_555
Sm3 O13 1_555 1_555
In4 O13 1_555 1_555
In1 O1 1_555 1_555
O5 In1 1_555 1_555
O6 C9 1_555 1_555
C9 O5 1_555 1_555
C10 H7 1_555 1_555
C11 C9 1_555 1_555
H8 C12 1_555 1_555
H9 C12 1_555 1_555
H10 C12 1_555 1_555
In2 O11 1_555 1_555
In3 O10 1_555 1_555
In5 O11 1_555 1_555
In9 O10 1_555 1_555
In13 O1 1_555 1_555
O24 In2 1_555 1_555
O25 In3 1_555 1_555
O26 C29 1_555 1_555
O27 C30 1_555 1_555
C29 O24 1_555 1_555
C30 O25 1_555 1_555
C31 C11 1_555 1_555
C32 H24 1_555 1_555
H23 C31 1_555 1_555
C33 C29 1_555 1_555
C34 C10 1_555 1_555
In1 O17 1_555 1_555
C10 C11 1_555 1_555
In2 O14 1_555 1_555
In3 O16 1_555 1_555
In5 O14 1_555 1_555
In9 O16 1_555 1_555
In13 O17 1_555 1_555
C30 C34 1_555 1_555
C31 C33 1_555 1_555
C32 C33 1_555 1_555
C32 C34 1_555 1_555
Sm3 O2_2 1_555 1_555
O2_2 In4 1_555 1_555
O4_2 Sm3 1_555 1_555
O5_2 In4 1_555 1_555
O6_2 C9_2 1_555 1_555
C1_2 C5_2 1_555 1_555
C2_2 H1_2 1_555 1_555
H2_2 C2_2 1_555 1_555
H3_2 C2_2 1_555 1_555
O8_2 In4 1_555 1_555
N1_2 C2_2 1_555 1_555
C5_2 O8_2 1_555 1_555
C7_2 O4_2 1_555 1_555
H5_2 C7_2 1_555 1_555
C8_2 C1_2 1_555 1_555
H6_2 C8_2 1_555 1_555
C9_2 O5_2 1_555 1_555
C10_2 H7_2 1_555 1_555
C11_2 C9_2 1_555 1_555
C12_2 N1_2 1_555 1_555
H8_2 C12_2 1_555 1_555
H9_2 C12_2 1_555 1_555
H10_2 C12_2 1_555 1_555
O9_2 Sm3 1_555 1_555
Sm5 O35_2 1_555 1_555
In6 O30_2 1_555 1_555
In11 O31_2 1_555 1_555
O21_2 In13 1_555 1_555
O22_2 Sm3 1_555 1_555
O23_2 Sm3 1_555 1_555
O24_2 In7 1_555 1_555
O25_2 In13 1_555 1_555
O26_2 C29_2 1_555 1_555
O27_2 C30_2 1_555 1_555
C13_2 C21_2 1_555 1_555
C14_2 C8_2 1_555 1_555
C15_2 H11_2 1_555 1_555
C16_2 H12_2 1_555 1_555
H13_2 C15_2 1_555 1_555
H14_2 C16_2 1_555 1_555
H15_2 C15_2 1_555 1_555
H16_2 C16_2 1_555 1_555
O30_2 C21_2 1_555 1_555
O31_2 C22_2 1_555 1_555
O33_2 In13 1_555 1_555
N2_2 C15_2 1_555 1_555
N3_2 C16_2 1_555 1_555
C21_2 O36 1_555 1_555
C22_2 C14_2 1_555 1_555
C25_2 O22_2 1_555 1_555
C26_2 O23_2 1_555 1_555
H19_2 C25_2 1_555 1_555
H20_2 C26_2 1_555 1_555
C27_2 C1_2 1_555 1_555
C28_2 C13_2 1_555 1_555
H21_2 C27_2 1_555 1_555
H22_2 C28_2 1_555 1_555
C29_2 O24_2 1_555 1_555
C30_2 O25_2 1_555 1_555
C31_2 C11_2 1_555 1_555
C32_2 H24_2 1_555 1_555
H23_2 C31_2 1_555 1_555
C33_2 C29_2 1_555 1_555
C34_2 C10_2 1_555 1_555
C35_2 N2_2 1_555 1_555
H25_2 C35_2 1_555 1_555
H27_2 C35_2 1_555 1_555
H29_2 C35_2 1_555 1_555
O35_2 C22_2 1_555 1_555
O37_2 Sm3 1_555 1_555
N1_2 C7_2 1_555 1_555
C5_2 O9_2 1_555 1_555
C10_2 C11_2 1_555 1_555
C13_2 C27_2 1_555 1_555
C14_2 C28_2 1_555 1_555
N2_2 C25_2 1_555 1_555
N3_2 C26_2 1_555 1_555
C30_2 C34_2 1_555 1_555
C31_2 C33_2 1_555 1_555
C32_2 C33_2 1_555 1_555
C32_2 C34_2 1_555 1_555
O7_2 C6_2 1_555 1_555
C3_2 C4_2 1_555 1_555
C6_2 O3_2 1_555 1_555
O20 C23_2 1_555 1_555
O19_2 C24_2 1_555 1_555
C17_2 C19_2 1_555 1_555
C18_2 C4_2 1_555 1_555
C19_2 C3_2 1_555 1_555
C20_2 C17_2 1_555 1_555
H17_2 C19_2 1_555 1_555
C23_2 C17_2 1_555 1_555
C24_2 C18_2 1_555 1_555
H26_2 C36_2 1_555 1_555
H28_2 C36_2 1_555 1_555
H30_2 C36_2 1_555 1_555
C3_2 C6_2 1_555 1_555
C18_2 C20_2 1_555 1_555
O5_3 In5_2 1_555 1_555
O6_3 C9_3 1_555 1_555
C9_3 O5_3 1_555 1_555
C10_3 H7_3 1_555 1_555
C11_3 C9_3 1_555 1_555
Sm5 O13_2 1_555 1_555
O13_2 In11 1_555 1_555
O20_2 In9 1_555 1_555
O24_3 In9 1_555 1_555
O25_3 In11 1_555 1_555
O26_3 C29_3 1_555 1_555
O27_3 C30_3 1_555 1_555
C29_3 O24_3 1_555 1_555
C30_3 O25_3 1_555 1_555
C31_3 C11_3 1_555 1_555
C32_3 H24_3 1_555 1_555
H23_3 C31_3 1_555 1_555
C33_3 C29_3 1_555 1_555
C34_3 C10_3 1_555 1_555
C10_3 C11_3 1_555 1_555
C30_3 C34_3 1_555 1_555
C31_3 C33_3 1_555 1_555
C32_3 C33_3 1_555 1_555
C32_3 C34_3 1_555 1_555
H8_3 C12_3 1_555 1_555
H9_3 C12_3 1_555 1_555
H10_3 C12_3 1_555 1_555
C3_3 C4_3 1_555 1_555
C6_3 O3_3 1_555 1_555
O18_2 C23_3 1_555 1_555
O21 C24_3 1_555 1_555
O28_3 C23_3 1_555 1_555
C17_3 C19_3 1_555 1_555
C18_3 C4_3 1_555 1_555
C19_3 C3_3 1_555 1_555
C20_3 C17_3 1_555 1_555
H18_3 C20_3 1_555 1_555
C23_3 C17_3 1_555 1_555
C24_3 C18_3 1_555 1_555
C3_3 C6_3 1_555 1_555
C18_3 C20_3 1_555 1_555
C1_3 C5_3 1_555 1_555
C5_3 O8_3 1_555 1_555
C8_3 C1_3 1_555 1_555
H6_3 C8_3 1_555 1_555
Sm5 O34_2 1_555 1_555
C13_3 C21_3 1_555 1_555
C14_3 C8_3 1_555 1_555
O32 C21_3 1_555 1_555
O33_2 C22_3 1_555 1_555
C21_3 O34_2 1_555 1_555
C22_3 C14_3 1_555 1_555
C27_3 C1_3 1_555 1_555
C28_3 C13_3 1_555 1_555
H21_3 C27_3 1_555 1_555
H22_3 C28_3 1_555 1_555
H25_3 C35_3 1_555 1_555
H27_3 C35_3 1_555 1_555
H29_3 C35_3 1_555 1_555
O37 C22_3 1_555 1_555
C5_3 O9_3 1_555 1_555
C13_3 C27_3 1_555 1_555
C14_3 C28_3 1_555 1_555
H26_3 C36_3 1_555 1_555
H28_3 C36_3 1_555 1_555
H30_3 C36_3 1_555 1_555
O4_3 Sm4 1_555 1_555
C2_3 H1_3 1_555 1_555
H2_3 C2_3 1_555 1_555
H3_3 C2_3 1_555 1_555
N1_3 C2_3 1_555 1_555
C7_3 O4_3 1_555 1_555
H5_3 C7_3 1_555 1_555
O22_3 Sm4 1_555 1_555
O23_3 Sm4 1_555 1_555
C15_3 H11_3 1_555 1_555
C16_3 H12_3 1_555 1_555
H13_3 C15_3 1_555 1_555
H14_3 C16_3 1_555 1_555
H15_3 C15_3 1_555 1_555
H16_3 C16_3 1_555 1_555
N2_3 C15_3 1_555 1_555
N3_3 C16_3 1_555 1_555
C25_3 O22_3 1_555 1_555
C26_3 O23_3 1_555 1_555
H19_3 C25_3 1_555 1_555
H20_3 C26_3 1_555 1_555
N1_3 C7_3 1_555 1_555
N2_3 C25_3 1_555 1_555
N3_3 C26_3 1_555 1_555
O4_4 Sm5 1_555 1_555
C2_4 H1_4 1_555 1_555
H2_4 C2_4 1_555 1_555
H3_4 C2_4 1_555 1_555
N1_4 C2_4 1_555 1_555
C7_4 O4_4 1_555 1_555
H5_4 C7_4 1_555 1_555
C12_4 N1_4 1_555 1_555
H8_4 C12_4 1_555 1_555
H9_4 C12_4 1_555 1_555
H10_4 C12_4 1_555 1_555
O22_4 Sm5 1_555 1_555
O23_4 Sm5 1_555 1_555
C15_4 H11_4 1_555 1_555
C16_4 H12_4 1_555 1_555
H13_4 C15_4 1_555 1_555
H14_4 C16_4 1_555 1_555
H15_4 C15_4 1_555 1_555
H16_4 C16_4 1_555 1_555
N2_4 C15_4 1_555 1_555
N3_4 C16_4 1_555 1_555
C25_4 O22_4 1_555 1_555
C26_4 O23_4 1_555 1_555
H19_4 C25_4 1_555 1_555
H20_4 C26_4 1_555 1_555
C36_4 N3_4 1_555 1_555
H26_4 C36_4 1_555 1_555
H28_4 C36_4 1_555 1_555
H30_4 C36_4 1_555 1_555
N1_4 C7_4 1_555 1_555
N2_4 C25_4 1_555 1_555
N3_4 C26_4 1_555 1_555
O3_4 In5 1_555 1_555
O5_4 In5 1_555 1_555
O6_4 C9_4 1_555 1_555
C1_4 C5_4 1_555 1_555
O7_4 C6_4 1_555 1_555
O8_4 In5 1_555 1_555
C3_4 C4_4 1_555 1_555
C4_4 H4_4 1_555 1_555
C5_4 O8_4 1_555 1_555
C6_4 O3_4 1_555 1_555
C8_4 C1_4 1_555 1_555
H6_4 C8_4 1_555 1_555
C9_4 O5_4 1_555 1_555
C10_4 H7_4 1_555 1_555
C11_4 C9_4 1_555 1_555
O20_2 C23_4 1_555 1_555
O21_2 C24_4 1_555 1_555
O24_4 In6 1_555 1_555
O25_4 In12 1_555 1_555
O26_4 C29_4 1_555 1_555
O27_4 C30_4 1_555 1_555
C13_4 C21_4 1_555 1_555
C14_4 C8_4 1_555 1_555
O28_4 C23_4 1_555 1_555
O29_4 C24_4 1_555 1_555
O32_2 C21_4 1_555 1_555
O33 C22_4 1_555 1_555
C17_4 C19_4 1_555 1_555
C18_4 C4_4 1_555 1_555
C19_4 C3_4 1_555 1_555
C20_4 C17_4 1_555 1_555
H17_4 C19_4 1_555 1_555
H18_4 C20_4 1_555 1_555
C21_4 O36_2 1_555 1_555
C22_4 C14_4 1_555 1_555
C23_4 C17_4 1_555 1_555
C24_4 C18_4 1_555 1_555
C27_4 C1_4 1_555 1_555
C28_4 C13_4 1_555 1_555
H21_4 C27_4 1_555 1_555
H22_4 C28_4 1_555 1_555
C29_4 O24_4 1_555 1_555
C30_4 O25_4 1_555 1_555
C31_4 C11_4 1_555 1_555
C32_4 H24_4 1_555 1_555
H23_4 C31_4 1_555 1_555
C33_4 C29_4 1_555 1_555
C34_4 C10_4 1_555 1_555
H25_4 C35_4 1_555 1_555
H27_4 C35_4 1_555 1_555
H29_4 C35_4 1_555 1_555
O37_2 C22_4 1_555 1_555
C3_4 C6_4 1_555 1_555
C5_4 O9_4 1_555 1_555
C10_4 C11_4 1_555 1_555
C13_4 C27_4 1_555 1_555
C14_4 C28_4 1_555 1_555
C18_4 C20_4 1_555 1_555
C30_4 C34_4 1_555 1_555
C31_4 C33_4 1_555 1_555
C32_4 C33_4 1_555 1_555
C32_4 C34_4 1_555 1_555

#END
