
###############################################################################
#
# This file contains modified crystal structure data generated from the
# MOF subset of the Cambridge Structural Database (CSD) v543 
# hosted by the Cambridge Crystallographic Data Centre (CCDC).
#
# This work is licensed under the Creative Commons
# Attribution-NonCommercial-ShareAlike 4.0 International License.
# To view a copy of this license, visit
# http://creativecommons.org/licenses/by-nc-sa/4.0/
# or send a letter to
# Creative Commons, PO Box 1866, Mountain View, CA 94042, USA.
#
# CIF created using the CSD Python API on 29 September 2022
# The structure has been converted into the P1 space group
# The structure has a 3D framework
# The original CSD entry WAVQIV is in the cubic crystal system
# The original CSD entry WAVQIV is in a Sohncke space group
# The framework has been calculated to contain at least 10.0% void space
# The void calculation uses a probe of radius 1.32A, grid spacing 0.4
# The framework is charged, counterions have been retained in the structure
# H atom positions have been added when not included in the experimental data
# Generated hydrogen atom positions removed from atoms on special positions
#
###############################################################################

data_WAVQIV
_chemical_formula_moiety         '(C324 H276 In12 Nd8 O112 4+)n'
_symmetry_cell_setting           triclinic
_symmetry_space_group_name_H-M   'P 1'
_symmetry_Int_Tables_number      1
_space_group_name_Hall           'P 1'
loop_
_symmetry_equiv_pos_site_id
_symmetry_equiv_pos_as_xyz
1 x,y,z
_cell_length_a                   27.1319(3)
_cell_length_b                   27.1319(3)
_cell_length_c                   27.1319(3)
_cell_angle_alpha                90
_cell_angle_beta                 90
_cell_angle_gamma                90
_cell_volume                     19972.9
loop_
_atom_site_label
_atom_site_type_symbol
_atom_site_fract_x
_atom_site_fract_y
_atom_site_fract_z
Nd1 Nd 0.19779(2) 0.19779(2) 0.19779(2)
Nd2 Nd 0.33992(2) 0.33992(2) 0.33992(2)
In1 In 0.22321(3) 0.32037(3) 0.25583(3)
O1 O 0.2884(2) 0.2884(2) 0.2884(2)
O2 O 0.2491(2) 0.2767(3) 0.1941(3)
O3 O 0.1884(4) 0.3528(4) 0.3175(4)
O4 O 0.1587(4) 0.3405(4) 0.2154(5)
O5 O 0.1392(3) 0.2649(4) 0.1863(4)
O6 O 0.2517(4) 0.3872(3) 0.2296(5)
C1 C 0.0527(6) 0.3034(7) 0.1455(8)
H1 H 0.0599 0.2702 0.1407
C2 C 0.1318(6) 0.3091(6) 0.1903(7)
C3 C 0.0856(5) 0.3311(5) 0.1711(7)
C4 C 0.0106(6) 0.3206(6) 0.1269(7)
C5 C 0.0009(6) 0.3694(6) 0.1316(7)
C6 C 0.0318(7) 0.3975(7) 0.1588(8)
H3 H 0.0228 0.4296 0.1668
C7 C 0.0755(8) 0.3798(8) 0.1747(9)
H4 H 0.0987 0.4011 0.1882
C8 C 0.2988(6) 0.5151(5) 0.1605(6)
H5 H 0.2893 0.5214 0.1282
O7 O 0.2968(9) 0.4018(6) 0.2922(6)
C9 C 0.2833(6) 0.4738(5) 0.1835(6)
H6 H 0.2604 0.4541 0.1674
C12 C 0.3455(8) 0.5942(8) 0.1596(7)
C13 C 0.3282(8) 0.5472(6) 0.1846(6)
C14 C 0.2842(8) 0.4102(7) 0.2508(7)
C15 C 0.3191(9) 0.6167(9) 0.1226(9)
H8 H 0.2868 0.6069 0.1164
C16 C 0.2989(8) 0.4594(6) 0.2285(6)
C17 C 0.3232(8) 0.4939(8) 0.2549(10)
H9 H 0.3322 0.4879 0.2875
O8 O 0.2575(11) 0.3694(10) 0.3693(10)
C18 C 0.2105(10) 0.3705(10) 0.3565(10)
C19 C 0.3342(10) 0.5372(11) 0.2330(6)
H10 H 0.3468 0.5621 0.2528
C20 C 0.1280(6) 0.3813(8) 0.3983(9)
H11 H 0.1157 0.3662 0.3701
C21 C 0.1769(7) 0.3897(9) 0.4012(9)
C22 C 0.0687(12) 0.4356(12) 0.5038(11)
C23 C 0.0308(11) 0.4100(11) 0.5260(11)
H12 H 0.0231 0.3783 0.5153
C24 C 0.2030(9) 0.4108(8) 0.4380(9)
H13 H 0.2369 0.4159 0.4395
C25 C 0.0960(10) 0.3938(12) 0.4343(10)
H14 H 0.0623 0.3876 0.4333
C26 C 0.1687(9) 0.4229(12) 0.4720(13)
H15 H 0.1812 0.4381 0.5001
C27 C 0.1194(10) 0.4165(11) 0.4719(12)
O9 O 0.2012(6) 0.1088(6) 0.1701(6)
O10 O 0.3974(11) 0.3317(10) 0.4162(10)
Nd6 Nd 0.16008(2) 0.66008(2) 0.83992(2)
Nd7 Nd 0.66008(2) 0.83992(2) 0.16008(2)
In2 In 0.25583(3) 0.22321(3) 0.32037(3)
In3 In 0.32037(3) 0.25583(3) 0.22321(3)
In7 In 0.67963(3) 0.75583(3) 0.27679(3)
In9 In 0.17963(3) 0.74417(3) 0.72321(3)
O11 O 0.1941(3) 0.2491(2) 0.2767(3)
O12 O 0.2767(3) 0.1941(3) 0.2491(2)
O14 O 0.1472(4) 0.6825(4) 0.6884(4)
O15 O 0.3175(4) 0.1884(4) 0.3528(4)
O16 O 0.3528(4) 0.3175(4) 0.1884(4)
O19 O 0.2154(5) 0.1587(4) 0.3405(4)
O20 O 0.3405(4) 0.2154(5) 0.1587(4)
O23 O 0.1863(4) 0.1392(3) 0.2649(4)
O24 O 0.2649(4) 0.1863(4) 0.1392(3)
O26 O 0.6128(3) 0.7296(5) 0.2483(4)
O27 O 0.2296(5) 0.2517(4) 0.3872(3)
O28 O 0.3872(3) 0.2296(5) 0.2517(4)
C42 C 0.3395(6) 0.7012(6) 0.0151(5)
C43 C 0.4849(5) 0.6605(6) 0.2012(6)
H24 H 0.3718 0.7107 0.0214
H25 H 0.4786 0.6282 0.2107
O30 O 0.5982(6) 0.7922(6) 0.2032(9)
O31 O 0.2922(6) 0.2968(9) 0.4018(6)
O32 O 0.4018(6) 0.2922(6) 0.2968(9)
C45 C 0.5262(5) 0.6835(6) 0.2167(6)
H27 H 0.5459 0.6674 0.2396
C50 C 0.3404(7) 0.6545(8) 0.0942(8)
C51 C 0.4058(8) 0.6596(7) 0.1545(8)
C52 C 0.3154(6) 0.6718(8) 0.0472(6)
C53 C 0.4528(6) 0.6846(6) 0.1718(8)
C55 C 0.5898(7) 0.7508(7) 0.2158(8)
C56 C 0.3774(9) 0.6809(9) 0.1167(9)
C57 C 0.3833(9) 0.6226(9) 0.1809(9)
H30 H 0.3836 0.7132 0.1069
H31 H 0.3931 0.6164 0.2132
C59 C 0.5406(6) 0.7285(6) 0.2011(8)
C61 C 0.5061(8) 0.7549(10) 0.1768(8)
H33 H 0.5121 0.7875 0.1678
O34 O 0.1306(10) 0.6307(10) 0.7575(11)
O35 O 0.3693(10) 0.2575(11) 0.3694(10)
O36 O 0.3694(10) 0.3693(10) 0.2575(11)
C63 C 0.1295(10) 0.6435(10) 0.7105(10)
C64 C 0.2670(6) 0.6658(10) 0.0372(11)
C65 C 0.4628(11) 0.7330(6) 0.1658(10)
H34 H 0.2472 0.6532 0.0621
H35 H 0.4379 0.7528 0.1532
C67 C 0.1187(8) 0.6017(9) 0.6280(6)
H37 H 0.1338 0.6299 0.6157
C69 C 0.1103(9) 0.5988(9) 0.6769(7)
C70 C 0.0038(11) 0.4313(12) 0.5644(12)
C71 C 0.0644(12) 0.4962(11) 0.5687(12)
C72 C 0.0260(11) 0.4692(11) 0.5900(11)
C73 C 0.0900(11) 0.4740(11) 0.5308(11)
H38 H 0.0153 0.4769 0.6217
H39 H 0.1217 0.4847 0.5231
C75 C 0.0892(8) 0.5620(9) 0.7030(9)
H41 H 0.0841 0.5605 0.7369
C77 C 0.1062(12) 0.5657(10) 0.5960(10)
H43 H 0.1124 0.5667 0.5623
C79 C 0.0771(12) 0.5280(13) 0.6687(9)
H44 H 0.0001 0.3188 0.5619
H45 H 0.0619 0.4999 0.6812
C81 C 0.0835(11) 0.5281(12) 0.6194(10)
O37 O 0.1701(6) 0.2012(6) 0.1088(6)
O38 O 0.1088(6) 0.1701(6) 0.2012(6)
O39 O 0.4162(10) 0.3974(11) 0.3317(10)
O40 O 0.3317(10) 0.4162(10) 0.3974(11)
H48 H 0.424681 0.308556 0.408481
H49 H 0.411253 0.364511 0.424629
H50 H 0.308556 0.408481 0.424681
H51 H 0.364511 0.424629 0.411253
H52 H 0.408481 0.424681 0.308556
H53 H 0.424629 0.411253 0.364511
In5 In 0.24417(3) 0.77679(3) 0.82037(3)
O25 O 0.2704(5) 0.7483(4) 0.8872(3)
O29 O 0.2078(6) 0.7032(9) 0.9018(6)
C44 C 0.3165(6) 0.7167(6) 0.9738(5)
H26 H 0.3326 0.7396 0.9541
C54 C 0.2492(7) 0.7158(8) 0.9102(7)
C58 C 0.2715(6) 0.7011(8) 0.9594(6)
C60 C 0.2451(10) 0.6768(8) 0.9939(8)
H32 H 0.2125 0.6678 0.9879
H2 H 0.9885 0.2997 0.1112
C10 C 0.9297(8) 0.4320(7) 0.1294(7)
H7 H 0.9424 0.4450 0.1585
C11 C 0.9528(8) 0.3902(8) 0.1085(8)
Nd3 Nd 0.80221(2) 0.69779(2) 0.30221(2)
Nd8 Nd 0.83992(2) 0.16008(2) 0.66008(2)
In4 In 0.75583(3) 0.27679(3) 0.67963(3)
In6 In 0.74417(3) 0.72321(3) 0.17963(3)
O13 O 0.8175(4) 0.3116(4) 0.6472(4)
O17 O 0.7846(5) 0.6587(4) 0.1595(4)
O21 O 0.8137(4) 0.6392(3) 0.2351(4)
C28 C 0.8545(8) 0.5527(6) 0.1966(7)
H16 H 0.8593 0.5599 0.2298
C30 C 0.8097(7) 0.6318(6) 0.1909(6)
C32 C 0.8289(7) 0.5856(5) 0.1689(5)
C34 C 0.8731(7) 0.5106(6) 0.1794(6)
H18 H 0.8888 0.4885 0.2003
H19 H 0.7997 0.3888 0.0115
C36 C 0.8684(7) 0.5009(6) 0.1306(6)
C38 C 0.8412(8) 0.5318(7) 0.1025(7)
H20 H 0.8332 0.5228 0.0704
C40 C 0.8253(9) 0.5755(8) 0.1202(8)
H22 H 0.8118 0.5987 0.0989
C46 C 0.8706(7) 0.4297(8) 0.0680(7)
C47 C 0.9320(7) 0.3706(7) 0.0703(8)
H28 H 0.8415 0.4424 0.0550
H29 H 0.9450 0.3415 0.0576
C48 C 0.8915(8) 0.4528(8) 0.1098(8)
C49 C 0.8902(8) 0.3915(8) 0.0472(8)
O33 O 0.8693(10) 0.2425(11) 0.6306(10)
C62 C 0.8565(10) 0.2895(10) 0.6295(10)
C66 C 0.8983(9) 0.3720(6) 0.6187(8)
H36 H 0.8701 0.3843 0.6338
C68 C 0.9012(9) 0.3231(7) 0.6103(9)
C74 C 0.9380(9) 0.2970(9) 0.5892(8)
H40 H 0.9395 0.2631 0.5841
C76 C 0.9343(10) 0.4040(10) 0.6062(12)
H42 H 0.9333 0.4377 0.6124
C78 C 0.9720(13) 0.3313(9) 0.5771(12)
C80 C 0.9719(12) 0.3806(10) 0.5835(11)
Nd4 Nd 0.69779(2) 0.30221(2) 0.80221(2)
In8 In 0.82037(3) 0.24417(3) 0.77679(3)
O18 O 0.8405(4) 0.2846(5) 0.8413(4)
O22 O 0.7649(4) 0.3137(4) 0.8608(3)
C29 C 0.8034(7) 0.3545(8) 0.9473(6)
H17 H 0.7702 0.3593 0.9401
C31 C 0.8091(6) 0.3097(7) 0.8682(6)
C33 C 0.8311(5) 0.3289(7) 0.9144(5)
C35 C 0.8206(6) 0.3731(7) 0.9894(6)
C37 C 0.8694(6) 0.3684(7) 0.9991(6)
C39 C 0.8975(7) 0.3412(8) 0.9682(7)
H21 H 0.9296 0.3332 0.9772
C41 C 0.8798(8) 0.3253(9) 0.9245(8)
H23 H 0.9011 0.3118 0.9013
C22_2 C 0.4313(12) 0.5644(12) 0.0038(11)
C23_2 C 0.4692(11) 0.5900(11) 0.0260(11)
H12_2 H 0.4769 0.6217 0.0153
H15_2 H 0.3188 0.5619 0.0001
O13_2 O 0.6825(4) 0.6884(4) 0.1472(4)
O33_2 O 0.6307(10) 0.7575(11) 0.1306(10)
C62_2 C 0.6435(10) 0.7105(10) 0.1295(10)
C63_2 C 0.3705(10) 0.3565(10) 0.2105(10)
C66_2 C 0.6017(9) 0.6280(6) 0.1187(8)
C67_2 C 0.3813(8) 0.3983(9) 0.1280(6)
H36_2 H 0.6299 0.6157 0.1338
H37_2 H 0.3662 0.3701 0.1157
C68_2 C 0.5988(9) 0.6769(7) 0.1103(9)
C69_2 C 0.3897(9) 0.4012(9) 0.1769(7)
C70_2 C 0.4962(11) 0.5687(12) 0.0644(12)
C71_2 C 0.4356(12) 0.5038(11) 0.0687(12)
C72_2 C 0.4740(11) 0.5308(11) 0.0900(11)
C73_2 C 0.4100(11) 0.5260(11) 0.0308(11)
H38_2 H 0.4847 0.5231 0.1217
H39_2 H 0.3783 0.5153 0.0231
C74_2 C 0.5620(9) 0.7030(9) 0.0892(8)
C75_2 C 0.4108(8) 0.4380(9) 0.2030(9)
H40_2 H 0.5605 0.7369 0.0841
H41_2 H 0.4159 0.4395 0.2369
C76_2 C 0.5657(10) 0.5960(10) 0.1062(12)
C77_2 C 0.3938(12) 0.4343(10) 0.0960(10)
H42_2 H 0.5667 0.5623 0.1124
H43_2 H 0.3876 0.4333 0.0623
C78_2 C 0.5280(13) 0.6687(9) 0.0771(12)
C79_2 C 0.4229(12) 0.4720(13) 0.1687(9)
H44_2 H 0.4999 0.6812 0.0619
H45_2 H 0.4381 0.5001 0.1812
C80_2 C 0.5281(12) 0.6194(10) 0.0835(11)
C81_2 C 0.4165(11) 0.4719(12) 0.1194(10)
Nd1_2 Nd 0.30221(2) 0.80221(2) 0.69779(2)
In1_2 In 0.27679(3) 0.67963(3) 0.75583(3)
O1_2 O 0.2116(2) 0.7116(2) 0.7884(2)
O2_2 O 0.2509(2) 0.7233(3) 0.6941(3)
O3_2 O 0.3116(4) 0.6472(4) 0.8175(4)
O4_2 O 0.3413(4) 0.6595(4) 0.7154(5)
O5_2 O 0.3608(3) 0.7351(4) 0.6863(4)
O6_2 O 0.2483(4) 0.6128(3) 0.7296(5)
C1_2 C 0.4473(6) 0.6966(7) 0.6455(8)
H1_2 H 0.4401 0.7298 0.6407
C2_2 C 0.3682(6) 0.6909(6) 0.6903(7)
C3_2 C 0.4144(5) 0.6689(5) 0.6711(7)
C4_2 C 0.4894(6) 0.6794(6) 0.6269(7)
H2_2 H 0.5115 0.7003 0.6112
C5_2 C 0.4991(6) 0.6306(6) 0.6316(7)
C6_2 C 0.4682(7) 0.6025(7) 0.6588(8)
H3_2 H 0.4772 0.5704 0.6668
C7_2 C 0.4245(8) 0.6202(8) 0.6747(9)
H4_2 H 0.4013 0.5989 0.6882
C8_2 C 0.2012(6) 0.4849(5) 0.6605(6)
H5_2 H 0.2107 0.4786 0.6282
O7_2 O 0.2032(9) 0.5982(6) 0.7922(6)
C9_2 C 0.2167(6) 0.5262(5) 0.6835(6)
H6_2 H 0.2396 0.5459 0.6674
C10_2 C 0.5703(8) 0.5680(7) 0.6294(7)
H7_2 H 0.5576 0.5550 0.6585
C11_2 C 0.5472(8) 0.6098(8) 0.6085(8)
C12_2 C 0.1545(8) 0.4058(8) 0.6596(7)
C13_2 C 0.1718(8) 0.4528(6) 0.6846(6)
C14_2 C 0.2158(8) 0.5898(7) 0.7508(7)
C15_2 C 0.1809(9) 0.3833(9) 0.6226(9)
H8_2 H 0.2132 0.3931 0.6164
C16_2 C 0.2011(8) 0.5406(6) 0.7285(6)
C17_2 C 0.1768(8) 0.5061(8) 0.7549(10)
H9_2 H 0.1678 0.5121 0.7875
O8_2 O 0.2425(11) 0.6306(10) 0.8693(10)
C18_2 C 0.2895(10) 0.6295(10) 0.8565(10)
C19_2 C 0.1658(10) 0.4628(11) 0.7330(6)
H10_2 H 0.1532 0.4379 0.7528
C20_2 C 0.3720(6) 0.6187(8) 0.8983(9)
H11_2 H 0.3843 0.6338 0.8701
C21_2 C 0.3231(7) 0.6103(9) 0.9012(9)
C24_2 C 0.2970(9) 0.5892(8) 0.9380(9)
H13_2 H 0.2631 0.5841 0.9395
C25_2 C 0.4040(10) 0.6062(12) 0.9343(10)
H14_2 H 0.4377 0.6124 0.9333
C26_2 C 0.3313(9) 0.5771(12) 0.9720(13)
C27_2 C 0.3806(10) 0.5835(11) 0.9719(12)
O9_2 O 0.2988(6) 0.8912(6) 0.6701(6)
O10_2 O 0.1026(11) 0.6683(10) 0.9162(10)
O11_2 O 0.3059(3) 0.7509(2) 0.7767(3)
O12_2 O 0.2233(3) 0.8059(3) 0.7491(2)
O15_2 O 0.1825(4) 0.8116(4) 0.8528(4)
O17_2 O 0.7154(5) 0.3413(4) 0.6595(4)
O18_2 O 0.6595(4) 0.7154(5) 0.3413(4)
O19_2 O 0.2846(5) 0.8413(4) 0.8405(4)
O20_2 O 0.1595(4) 0.7846(5) 0.6587(4)
O21_2 O 0.6863(4) 0.3608(3) 0.7351(4)
O22_2 O 0.7351(4) 0.6863(4) 0.3608(3)
O23_2 O 0.3137(4) 0.8608(3) 0.7649(4)
O24_2 O 0.2351(4) 0.8137(4) 0.6392(3)
O28_2 O 0.1128(3) 0.7704(5) 0.7517(4)
C28_2 C 0.6455(8) 0.4473(6) 0.6966(7)
C29_2 C 0.6966(7) 0.6455(8) 0.4473(6)
H16_2 H 0.6407 0.4401 0.7298
H17_2 H 0.7298 0.6407 0.4401
C30_2 C 0.6903(7) 0.3682(6) 0.6909(6)
C31_2 C 0.6909(6) 0.6903(7) 0.3682(6)
C32_2 C 0.6711(7) 0.4144(5) 0.6689(5)
C33_2 C 0.6689(5) 0.6711(7) 0.4144(5)
C34_2 C 0.6269(7) 0.4894(6) 0.6794(6)
C35_2 C 0.6794(6) 0.6269(7) 0.4894(6)
H18_2 H 0.6112 0.5115 0.7003
H19_2 H 0.7003 0.6112 0.5115
C36_2 C 0.6316(7) 0.4991(6) 0.6306(6)
C37_2 C 0.6306(6) 0.6316(7) 0.4991(6)
C38_2 C 0.6588(8) 0.4682(7) 0.6025(7)
C39_2 C 0.6025(7) 0.6588(8) 0.4682(7)
H20_2 H 0.6668 0.4772 0.5704
H21_2 H 0.5704 0.6668 0.4772
C40_2 C 0.6747(9) 0.4245(8) 0.6202(8)
C41_2 C 0.6202(8) 0.6747(9) 0.4245(8)
H22_2 H 0.6882 0.4013 0.5989
H23_2 H 0.5989 0.6882 0.4013
C42_2 C 0.1605(6) 0.2988(6) 0.5151(5)
C43_2 C 0.0151(5) 0.3395(6) 0.7012(6)
H24_2 H 0.1282 0.2893 0.5214
H25_2 H 0.0214 0.3718 0.7107
O32_2 O 0.0982(6) 0.7078(6) 0.7968(9)
C44_2 C 0.1835(6) 0.2833(6) 0.4738(5)
H26_2 H 0.1674 0.2604 0.4541
C46_2 C 0.6294(7) 0.5703(8) 0.5680(7)
C47_2 C 0.5680(7) 0.6294(7) 0.5703(8)
H28_2 H 0.6585 0.5576 0.5550
H29_2 H 0.5550 0.6585 0.5576
C48_2 C 0.6085(8) 0.5472(8) 0.6098(8)
C49_2 C 0.6098(8) 0.6085(8) 0.5472(8)
C50_2 C 0.1596(7) 0.3455(8) 0.5942(8)
C51_2 C 0.0942(8) 0.3404(7) 0.6545(8)
C52_2 C 0.1846(6) 0.3282(8) 0.5472(6)
C53_2 C 0.0472(6) 0.3154(6) 0.6718(8)
C54_2 C 0.2508(7) 0.2842(8) 0.4102(7)
C56_2 C 0.1226(9) 0.3191(9) 0.6167(9)
C57_2 C 0.1167(9) 0.3774(9) 0.6809(9)
H30_2 H 0.1164 0.2868 0.6069
H31_2 H 0.1069 0.3836 0.7132
C58_2 C 0.2285(6) 0.2989(8) 0.4594(6)
C60_2 C 0.2549(10) 0.3232(8) 0.4939(8)
H32_2 H 0.2875 0.3322 0.4879
O35_2 O 0.1307(10) 0.7425(11) 0.8694(10)
C64_2 C 0.2330(6) 0.3342(10) 0.5372(11)
C65_2 C 0.0372(11) 0.2670(6) 0.6658(10)
H34_2 H 0.2528 0.3468 0.5621
H35_2 H 0.0621 0.2472 0.6532
O37_2 O 0.3299(6) 0.7988(6) 0.6088(6)
O38_2 O 0.3912(6) 0.8299(6) 0.7012(6)
O39_2 O 0.0838(10) 0.6026(11) 0.8317(10)
O40_2 O 0.1683(10) 0.5838(10) 0.8974(11)
H48_2 H 0.0753189 0.691444 0.908481
H49_2 H 0.0887467 0.635489 0.924629
H50_2 H 0.191444 0.591519 0.924681
H51_2 H 0.135489 0.575371 0.911253
H52_2 H 0.0915194 0.575319 0.808556
H53_2 H 0.0753713 0.588747 0.864511
O26_2 O 0.8872(3) 0.2704(5) 0.7483(4)
O30_2 O 0.9018(6) 0.2078(6) 0.7032(9)
C45_2 C 0.9738(5) 0.3165(6) 0.7167(6)
H27_2 H 0.9541 0.3326 0.7396
C55_2 C 0.9102(7) 0.2492(7) 0.7158(8)
C59_2 C 0.9594(6) 0.2715(6) 0.7011(8)
C61_2 C 0.9939(8) 0.2451(10) 0.6768(8)
H33_2 H 0.9879 0.2125 0.6678
C28_3 C 0.1455(8) 0.0527(6) 0.3034(7)
H16_3 H 0.1407 0.0599 0.2702
C30_3 C 0.1903(7) 0.1318(6) 0.3091(6)
C32_3 C 0.1711(7) 0.0856(5) 0.3311(5)
C34_3 C 0.1269(7) 0.0106(6) 0.3206(6)
C36_3 C 0.1316(7) 0.0009(6) 0.3694(6)
C38_3 C 0.1588(8) 0.0318(7) 0.3975(7)
H20_3 H 0.1668 0.0228 0.4296
C40_3 C 0.1747(9) 0.0755(8) 0.3798(8)
H22_3 H 0.1882 0.0987 0.4011
H2_3 H 0.0115 0.7997 0.3888
C10_3 C 0.0703(8) 0.9320(7) 0.3706(7)
H7_3 H 0.0576 0.9450 0.3415
C11_3 C 0.0472(8) 0.8902(8) 0.3915(8)
C29_3 C 0.1966(7) 0.8545(8) 0.5527(6)
H17_3 H 0.2298 0.8593 0.5599
C31_3 C 0.1909(6) 0.8097(7) 0.6318(6)
C33_3 C 0.1689(5) 0.8289(7) 0.5856(5)
C35_3 C 0.1794(6) 0.8731(7) 0.5106(6)
H18_3 H 0.1112 0.9885 0.2997
H19_3 H 0.2003 0.8888 0.4885
C37_3 C 0.1306(6) 0.8684(7) 0.5009(6)
C39_3 C 0.1025(7) 0.8412(8) 0.5318(7)
H21_3 H 0.0704 0.8332 0.5228
C41_3 C 0.1202(8) 0.8253(9) 0.5755(8)
H23_3 H 0.0989 0.8118 0.5987
C46_3 C 0.1294(7) 0.9297(8) 0.4320(7)
C47_3 C 0.0680(7) 0.8706(7) 0.4297(8)
H28_3 H 0.1585 0.9424 0.4450
H29_3 H 0.0550 0.8415 0.4424
C48_3 C 0.1085(8) 0.9528(8) 0.3902(8)
C49_3 C 0.1098(8) 0.8915(8) 0.4528(8)
C62_3 C 0.1435(10) 0.7895(10) 0.8705(10)
C66_3 C 0.1017(9) 0.8720(6) 0.8813(8)
H36_3 H 0.1299 0.8843 0.8662
C68_3 C 0.0988(9) 0.8231(7) 0.8897(9)
C74_3 C 0.0620(9) 0.7970(9) 0.9108(8)
H40_3 H 0.0605 0.7631 0.9159
C76_3 C 0.0657(10) 0.9040(10) 0.8938(12)
H42_3 H 0.0667 0.9377 0.8876
C78_3 C 0.0280(13) 0.8313(9) 0.9229(12)
C80_3 C 0.0281(12) 0.8806(10) 0.9165(11)
C8_3 C 0.7012(6) 0.0151(5) 0.3395(6)
H5_3 H 0.7107 0.0214 0.3718
C12_3 C 0.6545(8) 0.0942(8) 0.3404(7)
C13_3 C 0.6718(8) 0.0472(6) 0.3154(6)
C15_3 C 0.6809(9) 0.1167(9) 0.3774(9)
H8_3 H 0.7132 0.1069 0.3836
C19_3 C 0.6658(10) 0.0372(11) 0.2670(6)
H10_3 H 0.6532 0.0621 0.2472
O25_2 O 0.7296(5) 0.2483(4) 0.6128(3)
C42_3 C 0.6605(6) 0.2012(6) 0.4849(5)
C43_3 C 0.5151(5) 0.1605(6) 0.2988(6)
H24_3 H 0.6282 0.2107 0.4786
H25_3 H 0.5214 0.1282 0.2893
O29_2 O 0.7922(6) 0.2032(9) 0.5982(6)
C44_3 C 0.6835(6) 0.2167(6) 0.5262(5)
C45_3 C 0.4738(5) 0.1835(6) 0.2833(6)
H26_3 H 0.6674 0.2396 0.5459
H27_3 H 0.4541 0.1674 0.2604
C50_3 C 0.6596(7) 0.1545(8) 0.4058(8)
C51_3 C 0.5942(8) 0.1596(7) 0.3455(8)
C52_3 C 0.6846(6) 0.1718(8) 0.4528(6)
C53_3 C 0.5472(6) 0.1846(6) 0.3282(8)
C54_3 C 0.7508(7) 0.2158(8) 0.5898(7)
C55_3 C 0.4102(7) 0.2508(7) 0.2842(8)
C56_3 C 0.6226(9) 0.1809(9) 0.3833(9)
C57_3 C 0.6167(9) 0.1226(9) 0.3191(9)
H30_3 H 0.6164 0.2132 0.3931
H31_3 H 0.6069 0.1164 0.2868
C58_3 C 0.7285(6) 0.2011(8) 0.5406(6)
C59_3 C 0.4594(6) 0.2285(6) 0.2989(8)
C60_3 C 0.7549(10) 0.1768(8) 0.5061(8)
C61_3 C 0.4939(8) 0.2549(10) 0.3232(8)
H32_3 H 0.7875 0.1678 0.5121
H33_3 H 0.4879 0.2875 0.3322
C64_3 C 0.7330(6) 0.1658(10) 0.4628(11)
C65_3 C 0.5372(11) 0.2330(6) 0.3342(10)
H34_3 H 0.7528 0.1532 0.4379
H35_3 H 0.5621 0.2528 0.3468
O14_2 O 0.8528(4) 0.1825(4) 0.8116(4)
O34_2 O 0.8694(10) 0.1307(10) 0.7425(11)
C63_3 C 0.8705(10) 0.1435(10) 0.7895(10)
C67_3 C 0.8813(8) 0.1017(9) 0.8720(6)
H37_3 H 0.8662 0.1299 0.8843
C69_3 C 0.8897(9) 0.0988(9) 0.8231(7)
C75_3 C 0.9108(8) 0.0620(9) 0.7970(9)
H41_3 H 0.9159 0.0605 0.7631
C77_3 C 0.8938(12) 0.0657(10) 0.9040(10)
H43_3 H 0.8876 0.0667 0.9377
C79_3 C 0.9229(12) 0.0280(13) 0.8313(9)
C81_3 C 0.9165(11) 0.0281(12) 0.8806(10)
In1_3 In 0.77679(3) 0.82037(3) 0.24417(3)
O1_3 O 0.7116(2) 0.7884(2) 0.2116(2)
O2_3 O 0.7509(2) 0.7767(3) 0.3059(3)
O3_3 O 0.8116(4) 0.8528(4) 0.1825(4)
O4_3 O 0.8413(4) 0.8405(4) 0.2846(5)
O5_3 O 0.8608(3) 0.7649(4) 0.3137(4)
O6_3 O 0.7483(4) 0.8872(3) 0.2704(5)
C1_3 C 0.9473(6) 0.8034(7) 0.3545(8)
H1_3 H 0.9401 0.7702 0.3593
C2_3 C 0.8682(6) 0.8091(6) 0.3097(7)
C3_3 C 0.9144(5) 0.8311(5) 0.3289(7)
C4_3 C 0.9894(6) 0.8206(6) 0.3731(7)
C5_3 C 0.9991(6) 0.8694(6) 0.3684(7)
C6_3 C 0.9682(7) 0.8975(7) 0.3412(8)
H3_3 H 0.9772 0.9296 0.3332
C7_3 C 0.9245(8) 0.8798(8) 0.3253(9)
H4_3 H 0.9013 0.9011 0.3118
O7_3 O 0.7032(9) 0.9018(6) 0.2078(6)
C9_3 C 0.7167(6) 0.9738(5) 0.3165(6)
H6_3 H 0.7396 0.9541 0.3326
C14_3 C 0.7158(8) 0.9102(7) 0.2492(7)
C16_3 C 0.7011(8) 0.9594(6) 0.2715(6)
C17_3 C 0.6768(8) 0.9939(8) 0.2451(10)
H9_3 H 0.6678 0.9879 0.2125
O8_3 O 0.7425(11) 0.8694(10) 0.1307(10)
C18_3 C 0.7895(10) 0.8705(10) 0.1435(10)
C20_3 C 0.8720(6) 0.8813(8) 0.1017(9)
H11_3 H 0.8843 0.8662 0.1299
C21_3 C 0.8231(7) 0.8897(9) 0.0988(9)
C24_3 C 0.7970(9) 0.9108(8) 0.0620(9)
H13_3 H 0.7631 0.9159 0.0605
C25_3 C 0.9040(10) 0.8938(12) 0.0657(10)
H14_3 H 0.9377 0.8876 0.0667
C26_3 C 0.8313(9) 0.9229(12) 0.0280(13)
C27_3 C 0.8806(10) 0.9165(11) 0.0281(12)
O9_3 O 0.7988(6) 0.6088(6) 0.3299(6)
O10_3 O 0.6026(11) 0.8317(10) 0.0838(10)
O11_3 O 0.8059(3) 0.7491(2) 0.2233(3)
O12_3 O 0.7233(3) 0.6941(3) 0.2509(2)
O16_2 O 0.6472(4) 0.8175(4) 0.3116(4)
O27_2 O 0.7704(5) 0.7517(4) 0.1128(3)
O31_2 O 0.7078(6) 0.7968(9) 0.0982(6)
O36_2 O 0.6306(10) 0.8693(10) 0.2425(11)
O37_3 O 0.8299(6) 0.7012(6) 0.3912(6)
O38_3 O 0.8912(6) 0.6701(6) 0.2988(6)
O39_3 O 0.5838(10) 0.8974(11) 0.1683(10)
O40_3 O 0.6683(10) 0.9162(10) 0.1026(11)
H48_3 H 0.575319 0.808556 0.0915194
H49_3 H 0.588747 0.864511 0.0753713
H50_3 H 0.691444 0.908481 0.0753189
H51_3 H 0.635489 0.924629 0.0887467
H52_3 H 0.591519 0.924681 0.191444
H53_3 H 0.575371 0.911253 0.135489
C45_4 C 0.0262(5) 0.8165(6) 0.7833(6)
H27_4 H 0.0459 0.8326 0.7604
C55_4 C 0.0898(7) 0.7492(7) 0.7842(8)
C59_4 C 0.0406(6) 0.7715(6) 0.7989(8)
C61_4 C 0.0061(8) 0.7451(10) 0.8232(8)
H33_4 H 0.0121 0.7125 0.8322
C29_4 C 0.3034(7) 0.1455(8) 0.0527(6)
H17_4 H 0.2702 0.1407 0.0599
C31_4 C 0.3091(6) 0.1903(7) 0.1318(6)
C33_4 C 0.3311(5) 0.1711(7) 0.0856(5)
C35_4 C 0.3206(6) 0.1269(7) 0.0106(6)
C37_4 C 0.3694(6) 0.1316(7) 0.0009(6)
C39_4 C 0.3975(7) 0.1588(8) 0.0318(7)
H21_4 H 0.4296 0.1668 0.0228
C41_4 C 0.3798(8) 0.1747(9) 0.0755(8)
H23_4 H 0.4011 0.1882 0.0987
In1_4 In 0.72321(3) 0.17963(3) 0.74417(3)
O1_4 O 0.7884(2) 0.2116(2) 0.7116(2)
O2_4 O 0.7491(2) 0.2233(3) 0.8059(3)
O3_4 O 0.6884(4) 0.1472(4) 0.6825(4)
O4_4 O 0.6587(4) 0.1595(4) 0.7846(5)
O5_4 O 0.6392(3) 0.2351(4) 0.8137(4)
O6_4 O 0.7517(4) 0.1128(3) 0.7704(5)
C1_4 C 0.5527(6) 0.1966(7) 0.8545(8)
H1_4 H 0.5599 0.2298 0.8593
C2_4 C 0.6318(6) 0.1909(6) 0.8097(7)
C3_4 C 0.5856(5) 0.1689(5) 0.8289(7)
C4_4 C 0.5106(6) 0.1794(6) 0.8731(7)
H2_4 H 0.4885 0.2003 0.8888
C5_4 C 0.5009(6) 0.1306(6) 0.8684(7)
C6_4 C 0.5318(7) 0.1025(7) 0.8412(8)
H3_4 H 0.5228 0.0704 0.8332
C7_4 C 0.5755(8) 0.1202(8) 0.8253(9)
H4_4 H 0.5987 0.0989 0.8118
O7_4 O 0.7968(9) 0.0982(6) 0.7078(6)
C9_4 C 0.7833(6) 0.0262(5) 0.8165(6)
H6_4 H 0.7604 0.0459 0.8326
C10_4 C 0.4297(8) 0.0680(7) 0.8706(7)
H7_4 H 0.4424 0.0550 0.8415
C11_4 C 0.4528(8) 0.1098(8) 0.8915(8)
C14_4 C 0.7842(8) 0.0898(7) 0.7492(7)
C16_4 C 0.7989(8) 0.0406(6) 0.7715(6)
C17_4 C 0.8232(8) 0.0061(8) 0.7451(10)
H9_4 H 0.8322 0.0121 0.7125
O8_4 O 0.7575(11) 0.1306(10) 0.6307(10)
C18_4 C 0.7105(10) 0.1295(10) 0.6435(10)
C20_4 C 0.6280(6) 0.1187(8) 0.6017(9)
H11_4 H 0.6157 0.1338 0.6299
C21_4 C 0.6769(7) 0.1103(9) 0.5988(9)
C22_3 C 0.5687(12) 0.0644(12) 0.4962(11)
C23_3 C 0.5308(11) 0.0900(11) 0.4740(11)
H12_3 H 0.5231 0.1217 0.4847
C24_4 C 0.7030(9) 0.0892(8) 0.5620(9)
H13_4 H 0.7369 0.0841 0.5605
C25_4 C 0.5960(10) 0.1062(12) 0.5657(10)
H14_4 H 0.5623 0.1124 0.5667
C26_4 C 0.6687(9) 0.0771(12) 0.5280(13)
H15_3 H 0.6812 0.0619 0.4999
C27_4 C 0.6194(10) 0.0835(11) 0.5281(12)
O9_4 O 0.7012(6) 0.3912(6) 0.8299(6)
O10_4 O 0.8974(11) 0.1683(10) 0.5838(10)
O11_4 O 0.6941(3) 0.2509(2) 0.7233(3)
O12_4 O 0.7767(3) 0.3059(3) 0.7509(2)
H18_4 H 0.3888 0.0115 0.7997
H19_4 H 0.2997 0.1112 0.9885
C46_4 C 0.3706(7) 0.0703(8) 0.9320(7)
C47_4 C 0.4320(7) 0.1294(7) 0.9297(8)
H28_4 H 0.3415 0.0576 0.9450
H29_4 H 0.4450 0.1585 0.9424
C48_4 C 0.3915(8) 0.0472(8) 0.8902(8)
C49_4 C 0.3902(8) 0.1085(8) 0.9528(8)
C62_4 C 0.3565(10) 0.2105(10) 0.3705(10)
C66_4 C 0.3983(9) 0.1280(6) 0.3813(8)
H36_4 H 0.3701 0.1157 0.3662
C68_4 C 0.4012(9) 0.1769(7) 0.3897(9)
C70_3 C 0.5038(11) 0.0687(12) 0.4356(12)
C71_3 C 0.5644(12) 0.0038(11) 0.4313(12)
C72_3 C 0.5260(11) 0.0308(11) 0.4100(11)
C73_3 C 0.5900(11) 0.0260(11) 0.4692(11)
H38_3 H 0.5153 0.0231 0.3783
H39_3 H 0.6217 0.0153 0.4769
C74_4 C 0.4380(9) 0.2030(9) 0.4108(8)
H40_4 H 0.4395 0.2369 0.4159
C76_4 C 0.4343(10) 0.0960(10) 0.3938(12)
H42_4 H 0.4333 0.0623 0.3876
C78_4 C 0.4720(13) 0.1687(9) 0.4229(12)
H44_3 H 0.5001 0.1812 0.4381
H45_3 H 0.5619 0.0001 0.3188
C80_4 C 0.4719(12) 0.1194(10) 0.4165(11)
O37_4 O 0.6701(6) 0.2988(6) 0.8912(6)
O38_4 O 0.6088(6) 0.3299(6) 0.7988(6)
O39_4 O 0.9162(10) 0.1026(11) 0.6683(10)
O40_4 O 0.8317(10) 0.0838(10) 0.6026(11)
H48_4 H 0.924681 0.191444 0.591519
H49_4 H 0.911253 0.135489 0.575371
H50_4 H 0.808556 0.0915194 0.575319
H51_4 H 0.864511 0.0753713 0.588747
H52_4 H 0.908481 0.0753189 0.691444
H53_4 H 0.924629 0.0887467 0.635489
C44_4 C 0.8165(6) 0.7833(6) 0.0262(5)
H26_4 H 0.8326 0.7604 0.0459
C54_4 C 0.7492(7) 0.7842(8) 0.0898(7)
C58_4 C 0.7715(6) 0.7989(8) 0.0406(6)
C60_4 C 0.7451(10) 0.8232(8) 0.0061(8)
H32_4 H 0.7125 0.8322 0.0121
C8_4 C 0.7988(6) 0.9849(5) 0.8395(6)
H5_4 H 0.7893 0.9786 0.8718
C12_4 C 0.8455(8) 0.9058(8) 0.8404(7)
C13_4 C 0.8282(8) 0.9528(6) 0.8154(6)
C15_4 C 0.8191(9) 0.8833(9) 0.8774(9)
H8_4 H 0.7868 0.8931 0.8836
C19_4 C 0.8342(10) 0.9628(11) 0.7670(6)
H10_4 H 0.8468 0.9379 0.7472
C28_4 C 0.3545(8) 0.9473(6) 0.8034(7)
H16_4 H 0.3593 0.9401 0.7702
C30_4 C 0.3097(7) 0.8682(6) 0.8091(6)
C32_4 C 0.3289(7) 0.9144(5) 0.8311(5)
C34_4 C 0.3731(7) 0.9894(6) 0.8206(6)
C36_4 C 0.3684(7) 0.9991(6) 0.8694(6)
C38_4 C 0.3412(8) 0.9682(7) 0.8975(7)
H20_4 H 0.3332 0.9772 0.9296
C40_4 C 0.3253(9) 0.9245(8) 0.8798(8)
H22_4 H 0.3118 0.9013 0.9011
C42_4 C 0.8395(6) 0.7988(6) 0.9849(5)
C43_4 C 0.9849(5) 0.8395(6) 0.7988(6)
H24_4 H 0.8718 0.7893 0.9786
H25_4 H 0.9786 0.8718 0.7893
C50_4 C 0.8404(7) 0.8455(8) 0.9058(8)
C51_4 C 0.9058(8) 0.8404(7) 0.8455(8)
C52_4 C 0.8154(6) 0.8282(8) 0.9528(6)
C53_4 C 0.9528(6) 0.8154(6) 0.8282(8)
C56_4 C 0.8774(9) 0.8191(9) 0.8833(9)
C57_4 C 0.8833(9) 0.8774(9) 0.8191(9)
H30_4 H 0.8836 0.7868 0.8931
H31_4 H 0.8931 0.8836 0.7868
C63_4 C 0.6295(10) 0.8565(10) 0.2895(10)
C64_4 C 0.7670(6) 0.8342(10) 0.9628(11)
C65_4 C 0.9628(11) 0.7670(6) 0.8342(10)
H34_4 H 0.7472 0.8468 0.9379
H35_4 H 0.9379 0.7472 0.8468
C67_4 C 0.6187(8) 0.8983(9) 0.3720(6)
H37_4 H 0.6338 0.8701 0.3843
C69_4 C 0.6103(9) 0.9012(9) 0.3231(7)
C75_4 C 0.5892(8) 0.9380(9) 0.2970(9)
H41_4 H 0.5841 0.9395 0.2631
C77_4 C 0.6062(12) 0.9343(10) 0.4040(10)
H43_4 H 0.6124 0.9333 0.4377
C79_4 C 0.5771(12) 0.9720(13) 0.3313(9)
C81_4 C 0.5835(11) 0.9719(12) 0.3806(10)
C22_4 C 0.9313(12) 0.9356(12) 0.9962(11)
C23_4 C 0.9692(11) 0.9100(11) 0.9740(11)
H12_4 H 0.9769 0.8783 0.9847
H15_4 H 0.8188 0.9381 0.9999
C70_4 C 0.9962(11) 0.9313(12) 0.9356(12)
C71_4 C 0.9356(12) 0.9962(11) 0.9313(12)
C72_4 C 0.9740(11) 0.9692(11) 0.9100(11)
C73_4 C 0.9100(11) 0.9740(11) 0.9692(11)
H38_4 H 0.9847 0.9769 0.8783
H39_4 H 0.8783 0.9847 0.9769
H44_4 H 0.9999 0.8188 0.9381
H45_4 H 0.9381 0.9999 0.8188
loop_
_geom_bond_atom_site_label_1
_geom_bond_atom_site_label_2
_geom_bond_site_symmetry_1
_geom_bond_site_symmetry_2
Nd1 O2 1_555 1_555
Nd2 O1 1_555 1_555
In1 O1 1_555 1_555
O1 In2 1_555 1_555
O2 In1 1_555 1_555
O3 In1 1_555 1_555
O4 In1 1_555 1_555
O5 Nd1 1_555 1_555
O6 In1 1_555 1_555
C1 H1 1_555 1_555
C2 O4 1_555 1_555
C3 C1 1_555 1_555
C4 C1 1_555 1_555
C5 C4 1_555 1_555
C6 C5 1_555 1_555
H3 C6 1_555 1_555
C7 C3 1_555 1_555
H4 C7 1_555 1_555
C8 H5 1_555 1_555
O7 Nd2 1_555 1_555
C9 C8 1_555 1_555
H6 C9 1_555 1_555
C12 C13 1_555 1_555
C13 C8 1_555 1_555
C14 O6 1_555 1_555
C15 C12 1_555 1_555
H8 C15 1_555 1_555
C16 C9 1_555 1_555
C17 C16 1_555 1_555
H9 C17 1_555 1_555
O8 Nd2 1_555 1_555
C18 O3 1_555 1_555
C19 C13 1_555 1_555
H10 C19 1_555 1_555
C20 H11 1_555 1_555
C21 C18 1_555 1_555
C22 C23 1_555 1_555
C23 H12 1_555 1_555
C24 C21 1_555 1_555
H13 C24 1_555 1_555
C25 C20 1_555 1_555
H14 C25 1_555 1_555
C26 C24 1_555 1_555
H15 C26 1_555 1_555
C27 C22 1_555 1_555
O9 Nd1 1_555 1_555
O10 Nd2 1_555 1_555
Nd6 O34 1_555 1_555
Nd7 O30 1_555 1_555
In2 O11 1_555 1_555
In3 O1 1_555 1_555
In7 O26 1_555 1_555
In9 O14 1_555 1_555
O11 Nd1 1_555 1_555
O12 Nd1 1_555 1_555
O14 C63 1_555 1_555
O15 In2 1_555 1_555
O16 In3 1_555 1_555
O19 In2 1_555 1_555
O20 In3 1_555 1_555
O23 Nd1 1_555 1_555
O24 Nd1 1_555 1_555
O26 C55 1_555 1_555
O27 In2 1_555 1_555
O28 In3 1_555 1_555
C42 H24 1_555 1_555
C43 H25 1_555 1_555
O30 C55 1_555 1_555
O31 Nd2 1_555 1_555
O32 Nd2 1_555 1_555
C45 C43 1_555 1_555
H27 C45 1_555 1_555
C50 C15 1_555 1_555
C51 C53 1_555 1_555
C52 C42 1_555 1_555
C53 C43 1_555 1_555
C55 C59 1_555 1_555
C56 C50 1_555 1_555
C57 C12 1_555 1_555
H30 C56 1_555 1_555
H31 C57 1_555 1_555
C59 C45 1_555 1_555
C61 C59 1_555 1_555
H33 C61 1_555 1_555
O34 C63 1_555 1_555
O35 Nd2 1_555 1_555
O36 Nd2 1_555 1_555
C63 C69 1_555 1_555
C64 C52 1_555 1_555
C65 C53 1_555 1_555
H34 C64 1_555 1_555
H35 C65 1_555 1_555
C67 H37 1_555 1_555
C69 C67 1_555 1_555
C70 C23 1_555 1_555
C71 C72 1_555 1_555
C72 C70 1_555 1_555
C73 C22 1_555 1_555
H38 C72 1_555 1_555
H39 C73 1_555 1_555
C75 C69 1_555 1_555
H41 C75 1_555 1_555
C77 C67 1_555 1_555
H43 C77 1_555 1_555
C79 C75 1_555 1_555
H45 C79 1_555 1_555
C81 C71 1_555 1_555
O37 Nd1 1_555 1_555
O38 Nd1 1_555 1_555
O39 Nd2 1_555 1_555
O40 Nd2 1_555 1_555
In1 O11 1_555 1_555
O2 In3 1_555 1_555
O5 C2 1_555 1_555
C2 C3 1_555 1_555
C6 C7 1_555 1_555
O7 C14 1_555 1_555
C14 C16 1_555 1_555
C17 C19 1_555 1_555
O8 C18 1_555 1_555
C20 C21 1_555 1_555
C25 C27 1_555 1_555
C26 C27 1_555 1_555
In2 O12 1_555 1_555
In3 O12 1_555 1_555
C50 C52 1_555 1_555
C51 C56 1_555 1_555
C51 C57 1_555 1_555
C61 C65 1_555 1_555
C71 C73 1_555 1_555
C77 C81 1_555 1_555
C79 C81 1_555 1_555
O10 H48 1_555 1_555
O10 H49 1_555 1_555
O40 H50 1_555 1_555
O40 H51 1_555 1_555
O39 H52 1_555 1_555
O39 H53 1_555 1_555
Nd6 O29 1_555 1_555
In5 O25 1_555 1_555
O25 C54 1_555 1_555
O29 C54 1_555 1_555
H26 C44 1_555 1_555
C54 C58 1_555 1_555
C58 C44 1_555 1_555
C60 C58 1_555 1_555
H32 C60 1_555 1_555
C10 H7 1_555 1_555
Nd3 O21 1_555 1_555
Nd8 O33 1_555 1_555
In4 O13 1_555 1_555
In6 O17 1_555 1_555
O13 C62 1_555 1_555
O17 C30 1_555 1_555
O21 C30 1_555 1_555
C28 H16 1_555 1_555
C30 C32 1_555 1_555
C32 C28 1_555 1_555
C34 C28 1_555 1_555
H18 C34 1_555 1_555
C36 C34 1_555 1_555
C38 C36 1_555 1_555
H20 C38 1_555 1_555
C40 C32 1_555 1_555
H22 C40 1_555 1_555
C46 H28 1_555 1_555
C47 C11 1_555 1_555
H29 C47 1_555 1_555
C48 C10 1_555 1_555
O33 C62 1_555 1_555
C62 C68 1_555 1_555
C66 H36 1_555 1_555
C68 C66 1_555 1_555
C74 C68 1_555 1_555
H40 C74 1_555 1_555
C76 C66 1_555 1_555
H42 C76 1_555 1_555
C78 C74 1_555 1_555
C10 C11 1_555 1_555
C36 C48 1_555 1_555
C38 C40 1_555 1_555
C46 C48 1_555 1_555
C46 C49 1_555 1_555
C47 C49 1_555 1_555
C76 C80 1_555 1_555
C78 C80 1_555 1_555
Nd4 O22 1_555 1_555
In8 O18 1_555 1_555
O18 C31 1_555 1_555
O22 C31 1_555 1_555
C29 H17 1_555 1_555
C31 C33 1_555 1_555
C33 C29 1_555 1_555
C35 C29 1_555 1_555
C37 C35 1_555 1_555
C39 C37 1_555 1_555
H21 C39 1_555 1_555
C41 C33 1_555 1_555
H23 C41 1_555 1_555
C39 C41 1_555 1_555
C22_2 C23_2 1_555 1_555
C23_2 H12_2 1_555 1_555
Nd7 O33_2 1_555 1_555
In6 O13_2 1_555 1_555
O13_2 C62_2 1_555 1_555
O16 C63_2 1_555 1_555
O33_2 C62_2 1_555 1_555
O36 C63_2 1_555 1_555
C62_2 C68_2 1_555 1_555
C63_2 C69_2 1_555 1_555
C66_2 H36_2 1_555 1_555
C67_2 H37_2 1_555 1_555
C68_2 C66_2 1_555 1_555
C69_2 C67_2 1_555 1_555
C70_2 C23_2 1_555 1_555
C71_2 C72_2 1_555 1_555
C72_2 C70_2 1_555 1_555
C73_2 C22_2 1_555 1_555
H38_2 C72_2 1_555 1_555
H39_2 C73_2 1_555 1_555
C74_2 C68_2 1_555 1_555
C75_2 C69_2 1_555 1_555
H40_2 C74_2 1_555 1_555
H41_2 C75_2 1_555 1_555
C76_2 C66_2 1_555 1_555
C77_2 C67_2 1_555 1_555
H42_2 C76_2 1_555 1_555
H43_2 C77_2 1_555 1_555
C78_2 C74_2 1_555 1_555
C79_2 C75_2 1_555 1_555
H44_2 C78_2 1_555 1_555
H45_2 C79_2 1_555 1_555
C80_2 C70_2 1_555 1_555
C81_2 C71_2 1_555 1_555
C71_2 C73_2 1_555 1_555
C76_2 C80_2 1_555 1_555
C77_2 C81_2 1_555 1_555
C78_2 C80_2 1_555 1_555
C79_2 C81_2 1_555 1_555
Nd1_2 O2_2 1_555 1_555
Nd6 O1_2 1_555 1_555
In1_2 O1_2 1_555 1_555
O1_2 In5 1_555 1_555
O2_2 In1_2 1_555 1_555
O3_2 In1_2 1_555 1_555
O4_2 In1_2 1_555 1_555
O5_2 Nd1_2 1_555 1_555
O6_2 In1_2 1_555 1_555
C1_2 H1_2 1_555 1_555
C2_2 O4_2 1_555 1_555
C3_2 C1_2 1_555 1_555
C4_2 C1_2 1_555 1_555
H2_2 C4_2 1_555 1_555
C5_2 C4_2 1_555 1_555
C6_2 C5_2 1_555 1_555
H3_2 C6_2 1_555 1_555
C7_2 C3_2 1_555 1_555
H4_2 C7_2 1_555 1_555
C8_2 H5_2 1_555 1_555
O7_2 Nd6 1_555 1_555
C9_2 C8_2 1_555 1_555
H6_2 C9_2 1_555 1_555
C10_2 H7_2 1_555 1_555
C11_2 C5_2 1_555 1_555
C12_2 C13_2 1_555 1_555
C13_2 C8_2 1_555 1_555
C14_2 O6_2 1_555 1_555
C15_2 C12_2 1_555 1_555
H8_2 C15_2 1_555 1_555
C16_2 C9_2 1_555 1_555
C17_2 C16_2 1_555 1_555
H9_2 C17_2 1_555 1_555
O8_2 Nd6 1_555 1_555
C18_2 O3_2 1_555 1_555
C19_2 C13_2 1_555 1_555
H10_2 C19_2 1_555 1_555
C20_2 H11_2 1_555 1_555
C21_2 C18_2 1_555 1_555
C24_2 C21_2 1_555 1_555
H13_2 C24_2 1_555 1_555
C25_2 C20_2 1_555 1_555
H14_2 C25_2 1_555 1_555
C26_2 C24_2 1_555 1_555
O9_2 Nd1_2 1_555 1_555
O10_2 Nd6 1_555 1_555
Nd4 O21_2 1_555 1_555
Nd3 O22_2 1_555 1_555
In5 O11_2 1_555 1_555
In9 O1_2 1_555 1_555
In4 O17_2 1_555 1_555
In7 O18_2 1_555 1_555
O11_2 Nd1_2 1_555 1_555
O12_2 Nd1_2 1_555 1_555
O15_2 In5 1_555 1_555
O17_2 C30_2 1_555 1_555
O18_2 C31_2 1_555 1_555
O19_2 In5 1_555 1_555
O20_2 In9 1_555 1_555
O21_2 C30_2 1_555 1_555
O22_2 C31_2 1_555 1_555
O23_2 Nd1_2 1_555 1_555
O24_2 Nd1_2 1_555 1_555
O27 C54_2 1_555 1_555
O28_2 In9 1_555 1_555
C28_2 H16_2 1_555 1_555
C29_2 H17_2 1_555 1_555
C30_2 C32_2 1_555 1_555
C31_2 C33_2 1_555 1_555
C32_2 C28_2 1_555 1_555
C33_2 C29_2 1_555 1_555
C34_2 C28_2 1_555 1_555
C35_2 C29_2 1_555 1_555
H18_2 C34_2 1_555 1_555
H19_2 C35_2 1_555 1_555
C36_2 C34_2 1_555 1_555
C37_2 C35_2 1_555 1_555
C38_2 C36_2 1_555 1_555
C39_2 C37_2 1_555 1_555
H20_2 C38_2 1_555 1_555
H21_2 C39_2 1_555 1_555
C40_2 C32_2 1_555 1_555
C41_2 C33_2 1_555 1_555
H22_2 C40_2 1_555 1_555
H23_2 C41_2 1_555 1_555
C42_2 H24_2 1_555 1_555
C43_2 H25_2 1_555 1_555
O31 C54_2 1_555 1_555
O32_2 Nd6 1_555 1_555
C44_2 C42_2 1_555 1_555
H26_2 C44_2 1_555 1_555
C46_2 H28_2 1_555 1_555
C47_2 C11_2 1_555 1_555
H29_2 C47_2 1_555 1_555
C48_2 C10_2 1_555 1_555
C49_2 C37_2 1_555 1_555
C50_2 C15_2 1_555 1_555
C51_2 C53_2 1_555 1_555
C52_2 C42_2 1_555 1_555
C53_2 C43_2 1_555 1_555
C54_2 C58_2 1_555 1_555
C56_2 C50_2 1_555 1_555
C57_2 C12_2 1_555 1_555
H30_2 C56_2 1_555 1_555
H31_2 C57_2 1_555 1_555
C58_2 C44_2 1_555 1_555
C60_2 C58_2 1_555 1_555
H32_2 C60_2 1_555 1_555
O35_2 Nd6 1_555 1_555
C64_2 C52_2 1_555 1_555
C65_2 C53_2 1_555 1_555
H34_2 C64_2 1_555 1_555
H35_2 C65_2 1_555 1_555
O37_2 Nd1_2 1_555 1_555
O38_2 Nd1_2 1_555 1_555
O39_2 Nd6 1_555 1_555
O40_2 Nd6 1_555 1_555
In1_2 O11_2 1_555 1_555
O2_2 In9 1_555 1_555
O5_2 C2_2 1_555 1_555
C2_2 C3_2 1_555 1_555
C6_2 C7_2 1_555 1_555
O7_2 C14_2 1_555 1_555
C10_2 C11_2 1_555 1_555
C14_2 C16_2 1_555 1_555
C17_2 C19_2 1_555 1_555
O8_2 C18_2 1_555 1_555
C20_2 C21_2 1_555 1_555
C25_2 C27_2 1_555 1_555
C26_2 C27_2 1_555 1_555
In5 O12_2 1_555 1_555
In9 O12_2 1_555 1_555
C36_2 C48_2 1_555 1_555
C38_2 C40_2 1_555 1_555
C39_2 C41_2 1_555 1_555
C46_2 C48_2 1_555 1_555
C46_2 C49_2 1_555 1_555
C47_2 C49_2 1_555 1_555
C50_2 C52_2 1_555 1_555
C51_2 C56_2 1_555 1_555
C51_2 C57_2 1_555 1_555
C60_2 C64_2 1_555 1_555
O10_2 H48_2 1_555 1_555
O10_2 H49_2 1_555 1_555
O40_2 H50_2 1_555 1_555
O40_2 H51_2 1_555 1_555
O39_2 H52_2 1_555 1_555
O39_2 H53_2 1_555 1_555
Nd8 O30_2 1_555 1_555
In8 O26_2 1_555 1_555
O26_2 C55_2 1_555 1_555
O30_2 C55_2 1_555 1_555
H27_2 C45_2 1_555 1_555
C55_2 C59_2 1_555 1_555
C59_2 C45_2 1_555 1_555
C61_2 C59_2 1_555 1_555
H33_2 C61_2 1_555 1_555
O19 C30_3 1_555 1_555
O23 C30_3 1_555 1_555
C28_3 H16_3 1_555 1_555
C30_3 C32_3 1_555 1_555
C32_3 C28_3 1_555 1_555
C34_3 C28_3 1_555 1_555
C36_3 C34_3 1_555 1_555
C38_3 C36_3 1_555 1_555
H20_3 C38_3 1_555 1_555
C40_3 C32_3 1_555 1_555
H22_3 C40_3 1_555 1_555
C38_3 C40_3 1_555 1_555
C10_3 H7_3 1_555 1_555
O20_2 C31_3 1_555 1_555
O24_2 C31_3 1_555 1_555
C29_3 H17_3 1_555 1_555
C31_3 C33_3 1_555 1_555
C33_3 C29_3 1_555 1_555
C35_3 C29_3 1_555 1_555
H19_3 C35_3 1_555 1_555
C37_3 C35_3 1_555 1_555
C39_3 C37_3 1_555 1_555
H21_3 C39_3 1_555 1_555
C41_3 C33_3 1_555 1_555
H23_3 C41_3 1_555 1_555
C46_3 H28_3 1_555 1_555
C47_3 C11_3 1_555 1_555
H29_3 C47_3 1_555 1_555
C48_3 C10_3 1_555 1_555
C49_3 C37_3 1_555 1_555
C10_3 C11_3 1_555 1_555
C39_3 C41_3 1_555 1_555
C46_3 C48_3 1_555 1_555
C46_3 C49_3 1_555 1_555
C47_3 C49_3 1_555 1_555
O15_2 C62_3 1_555 1_555
O35_2 C62_3 1_555 1_555
C62_3 C68_3 1_555 1_555
C66_3 H36_3 1_555 1_555
C68_3 C66_3 1_555 1_555
C74_3 C68_3 1_555 1_555
H40_3 C74_3 1_555 1_555
C76_3 C66_3 1_555 1_555
H42_3 C76_3 1_555 1_555
C78_3 C74_3 1_555 1_555
C76_3 C80_3 1_555 1_555
C78_3 C80_3 1_555 1_555
C8_3 H5_3 1_555 1_555
C12_3 C13_3 1_555 1_555
C13_3 C8_3 1_555 1_555
C15_3 C12_3 1_555 1_555
H8_3 C15_3 1_555 1_555
C19_3 C13_3 1_555 1_555
H10_3 C19_3 1_555 1_555
Nd8 O29_2 1_555 1_555
In4 O25_2 1_555 1_555
O25_2 C54_3 1_555 1_555
O28 C55_3 1_555 1_555
C42_3 H24_3 1_555 1_555
C43_3 H25_3 1_555 1_555
O29_2 C54_3 1_555 1_555
O32 C55_3 1_555 1_555
C44_3 C42_3 1_555 1_555
C45_3 C43_3 1_555 1_555
H26_3 C44_3 1_555 1_555
H27_3 C45_3 1_555 1_555
C50_3 C15_3 1_555 1_555
C51_3 C53_3 1_555 1_555
C52_3 C42_3 1_555 1_555
C53_3 C43_3 1_555 1_555
C54_3 C58_3 1_555 1_555
C55_3 C59_3 1_555 1_555
C56_3 C50_3 1_555 1_555
C57_3 C12_3 1_555 1_555
H30_3 C56_3 1_555 1_555
H31_3 C57_3 1_555 1_555
C58_3 C44_3 1_555 1_555
C59_3 C45_3 1_555 1_555
C60_3 C58_3 1_555 1_555
C61_3 C59_3 1_555 1_555
H32_3 C60_3 1_555 1_555
H33_3 C61_3 1_555 1_555
C64_3 C52_3 1_555 1_555
C65_3 C53_3 1_555 1_555
H34_3 C64_3 1_555 1_555
H35_3 C65_3 1_555 1_555
C50_3 C52_3 1_555 1_555
C51_3 C56_3 1_555 1_555
C51_3 C57_3 1_555 1_555
C60_3 C64_3 1_555 1_555
C61_3 C65_3 1_555 1_555
Nd8 O34_2 1_555 1_555
In8 O14_2 1_555 1_555
O14_2 C63_3 1_555 1_555
O34_2 C63_3 1_555 1_555
C63_3 C69_3 1_555 1_555
C67_3 H37_3 1_555 1_555
C69_3 C67_3 1_555 1_555
C75_3 C69_3 1_555 1_555
H41_3 C75_3 1_555 1_555
C77_3 C67_3 1_555 1_555
H43_3 C77_3 1_555 1_555
C79_3 C75_3 1_555 1_555
C77_3 C81_3 1_555 1_555
C79_3 C81_3 1_555 1_555
Nd3 O2_3 1_555 1_555
Nd7 O1_3 1_555 1_555
In1_3 O1_3 1_555 1_555
O1_3 In6 1_555 1_555
O2_3 In1_3 1_555 1_555
O3_3 In1_3 1_555 1_555
O4_3 In1_3 1_555 1_555
O5_3 Nd3 1_555 1_555
O6_3 In1_3 1_555 1_555
C1_3 H1_3 1_555 1_555
C2_3 O4_3 1_555 1_555
C3_3 C1_3 1_555 1_555
C4_3 C1_3 1_555 1_555
C5_3 C4_3 1_555 1_555
C6_3 C5_3 1_555 1_555
H3_3 C6_3 1_555 1_555
C7_3 C3_3 1_555 1_555
H4_3 C7_3 1_555 1_555
O7_3 Nd7 1_555 1_555
H6_3 C9_3 1_555 1_555
C14_3 O6_3 1_555 1_555
C16_3 C9_3 1_555 1_555
C17_3 C16_3 1_555 1_555
H9_3 C17_3 1_555 1_555
O8_3 Nd7 1_555 1_555
C18_3 O3_3 1_555 1_555
C20_3 H11_3 1_555 1_555
C21_3 C18_3 1_555 1_555
C24_3 C21_3 1_555 1_555
H13_3 C24_3 1_555 1_555
C25_3 C20_3 1_555 1_555
H14_3 C25_3 1_555 1_555
C26_3 C24_3 1_555 1_555
O9_3 Nd3 1_555 1_555
O10_3 Nd7 1_555 1_555
In6 O11_3 1_555 1_555
In7 O1_3 1_555 1_555
O11_3 Nd3 1_555 1_555
O12_3 Nd3 1_555 1_555
O16_2 In7 1_555 1_555
O27_2 In6 1_555 1_555
O31_2 Nd7 1_555 1_555
O36_2 Nd7 1_555 1_555
O37_3 Nd3 1_555 1_555
O38_3 Nd3 1_555 1_555
O39_3 Nd7 1_555 1_555
O40_3 Nd7 1_555 1_555
In1_3 O11_3 1_555 1_555
O2_3 In7 1_555 1_555
O5_3 C2_3 1_555 1_555
C2_3 C3_3 1_555 1_555
C6_3 C7_3 1_555 1_555
O7_3 C14_3 1_555 1_555
C14_3 C16_3 1_555 1_555
O8_3 C18_3 1_555 1_555
C20_3 C21_3 1_555 1_555
C25_3 C27_3 1_555 1_555
C26_3 C27_3 1_555 1_555
In6 O12_3 1_555 1_555
In7 O12_3 1_555 1_555
O10_3 H48_3 1_555 1_555
O10_3 H49_3 1_555 1_555
O40_3 H50_3 1_555 1_555
O40_3 H51_3 1_555 1_555
O39_3 H52_3 1_555 1_555
O39_3 H53_3 1_555 1_555
O28_2 C55_4 1_555 1_555
O32_2 C55_4 1_555 1_555
H27_4 C45_4 1_555 1_555
C55_4 C59_4 1_555 1_555
C59_4 C45_4 1_555 1_555
C61_4 C59_4 1_555 1_555
H33_4 C61_4 1_555 1_555
O20 C31_4 1_555 1_555
O24 C31_4 1_555 1_555
C29_4 H17_4 1_555 1_555
C31_4 C33_4 1_555 1_555
C33_4 C29_4 1_555 1_555
C35_4 C29_4 1_555 1_555
C37_4 C35_4 1_555 1_555
C39_4 C37_4 1_555 1_555
H21_4 C39_4 1_555 1_555
C41_4 C33_4 1_555 1_555
H23_4 C41_4 1_555 1_555
C39_4 C41_4 1_555 1_555
Nd4 O2_4 1_555 1_555
Nd8 O1_4 1_555 1_555
In1_4 O1_4 1_555 1_555
O1_4 In4 1_555 1_555
O2_4 In1_4 1_555 1_555
O3_4 In1_4 1_555 1_555
O4_4 In1_4 1_555 1_555
O5_4 Nd4 1_555 1_555
O6_4 In1_4 1_555 1_555
C1_4 H1_4 1_555 1_555
C2_4 O4_4 1_555 1_555
C3_4 C1_4 1_555 1_555
C4_4 C1_4 1_555 1_555
H2_4 C4_4 1_555 1_555
C5_4 C4_4 1_555 1_555
C6_4 C5_4 1_555 1_555
H3_4 C6_4 1_555 1_555
C7_4 C3_4 1_555 1_555
H4_4 C7_4 1_555 1_555
O7_4 Nd8 1_555 1_555
H6_4 C9_4 1_555 1_555
C10_4 H7_4 1_555 1_555
C11_4 C5_4 1_555 1_555
C14_4 O6_4 1_555 1_555
C16_4 C9_4 1_555 1_555
C17_4 C16_4 1_555 1_555
H9_4 C17_4 1_555 1_555
O8_4 Nd8 1_555 1_555
C18_4 O3_4 1_555 1_555
C20_4 H11_4 1_555 1_555
C21_4 C18_4 1_555 1_555
C22_3 C23_3 1_555 1_555
C23_3 H12_3 1_555 1_555
C24_4 C21_4 1_555 1_555
H13_4 C24_4 1_555 1_555
C25_4 C20_4 1_555 1_555
H14_4 C25_4 1_555 1_555
C26_4 C24_4 1_555 1_555
H15_3 C26_4 1_555 1_555
C27_4 C22_3 1_555 1_555
O9_4 Nd4 1_555 1_555
O10_4 Nd8 1_555 1_555
In4 O11_4 1_555 1_555
In8 O1_4 1_555 1_555
O11_4 Nd4 1_555 1_555
O12_4 Nd4 1_555 1_555
O15 C62_4 1_555 1_555
C46_4 H28_4 1_555 1_555
C47_4 C11_4 1_555 1_555
H29_4 C47_4 1_555 1_555
C48_4 C10_4 1_555 1_555
O35 C62_4 1_555 1_555
C62_4 C68_4 1_555 1_555
C66_4 H36_4 1_555 1_555
C68_4 C66_4 1_555 1_555
C70_3 C23_3 1_555 1_555
C71_3 C72_3 1_555 1_555
C72_3 C70_3 1_555 1_555
C73_3 C22_3 1_555 1_555
H38_3 C72_3 1_555 1_555
H39_3 C73_3 1_555 1_555
C74_4 C68_4 1_555 1_555
H40_4 C74_4 1_555 1_555
C76_4 C66_4 1_555 1_555
H42_4 C76_4 1_555 1_555
C78_4 C74_4 1_555 1_555
H44_3 C78_4 1_555 1_555
C80_4 C70_3 1_555 1_555
O37_4 Nd4 1_555 1_555
O38_4 Nd4 1_555 1_555
O39_4 Nd8 1_555 1_555
O40_4 Nd8 1_555 1_555
In1_4 O11_4 1_555 1_555
O2_4 In8 1_555 1_555
O5_4 C2_4 1_555 1_555
C2_4 C3_4 1_555 1_555
C6_4 C7_4 1_555 1_555
O7_4 C14_4 1_555 1_555
C10_4 C11_4 1_555 1_555
C14_4 C16_4 1_555 1_555
O8_4 C18_4 1_555 1_555
C20_4 C21_4 1_555 1_555
C25_4 C27_4 1_555 1_555
C26_4 C27_4 1_555 1_555
In4 O12_4 1_555 1_555
In8 O12_4 1_555 1_555
C46_4 C48_4 1_555 1_555
C46_4 C49_4 1_555 1_555
C47_4 C49_4 1_555 1_555
C71_3 C73_3 1_555 1_555
C76_4 C80_4 1_555 1_555
C78_4 C80_4 1_555 1_555
O10_4 H48_4 1_555 1_555
O10_4 H49_4 1_555 1_555
O40_4 H50_4 1_555 1_555
O40_4 H51_4 1_555 1_555
O39_4 H52_4 1_555 1_555
O39_4 H53_4 1_555 1_555
O27_2 C54_4 1_555 1_555
O31_2 C54_4 1_555 1_555
H26_4 C44_4 1_555 1_555
C54_4 C58_4 1_555 1_555
C58_4 C44_4 1_555 1_555
C60_4 C58_4 1_555 1_555
H32_4 C60_4 1_555 1_555
C8_4 H5_4 1_555 1_555
C12_4 C13_4 1_555 1_555
C13_4 C8_4 1_555 1_555
C15_4 C12_4 1_555 1_555
H8_4 C15_4 1_555 1_555
C19_4 C13_4 1_555 1_555
H10_4 C19_4 1_555 1_555
O16_2 C63_4 1_555 1_555
O19_2 C30_4 1_555 1_555
O23_2 C30_4 1_555 1_555
C28_4 H16_4 1_555 1_555
C30_4 C32_4 1_555 1_555
C32_4 C28_4 1_555 1_555
C34_4 C28_4 1_555 1_555
C36_4 C34_4 1_555 1_555
C38_4 C36_4 1_555 1_555
H20_4 C38_4 1_555 1_555
C40_4 C32_4 1_555 1_555
H22_4 C40_4 1_555 1_555
C42_4 H24_4 1_555 1_555
C43_4 H25_4 1_555 1_555
C50_4 C15_4 1_555 1_555
C51_4 C53_4 1_555 1_555
C52_4 C42_4 1_555 1_555
C53_4 C43_4 1_555 1_555
C56_4 C50_4 1_555 1_555
C57_4 C12_4 1_555 1_555
H30_4 C56_4 1_555 1_555
H31_4 C57_4 1_555 1_555
O36_2 C63_4 1_555 1_555
C63_4 C69_4 1_555 1_555
C64_4 C52_4 1_555 1_555
C65_4 C53_4 1_555 1_555
H34_4 C64_4 1_555 1_555
H35_4 C65_4 1_555 1_555
C67_4 H37_4 1_555 1_555
C69_4 C67_4 1_555 1_555
C75_4 C69_4 1_555 1_555
H41_4 C75_4 1_555 1_555
C77_4 C67_4 1_555 1_555
H43_4 C77_4 1_555 1_555
C79_4 C75_4 1_555 1_555
C38_4 C40_4 1_555 1_555
C50_4 C52_4 1_555 1_555
C51_4 C56_4 1_555 1_555
C51_4 C57_4 1_555 1_555
C77_4 C81_4 1_555 1_555
C79_4 C81_4 1_555 1_555
C22_4 C23_4 1_555 1_555
C23_4 H12_4 1_555 1_555
C70_4 C23_4 1_555 1_555
C71_4 C72_4 1_555 1_555
C72_4 C70_4 1_555 1_555
C73_4 C22_4 1_555 1_555
H38_4 C72_4 1_555 1_555
H39_4 C73_4 1_555 1_555
C71_4 C73_4 1_555 1_555

#END
