
###############################################################################
#
# This file contains modified crystal structure data generated from the
# MOF subset of the Cambridge Structural Database (CSD) v543 
# hosted by the Cambridge Crystallographic Data Centre (CCDC).
#
# This work is licensed under the Creative Commons
# Attribution-NonCommercial-ShareAlike 4.0 International License.
# To view a copy of this license, visit
# http://creativecommons.org/licenses/by-nc-sa/4.0/
# or send a letter to
# Creative Commons, PO Box 1866, Mountain View, CA 94042, USA.
#
# CIF created using the CSD Python API on 29 September 2022
# The structure has been converted into the P1 space group
# The structure has a 3D framework
# The original CSD entry WAVQOB is in the cubic crystal system
# The original CSD entry WAVQOB is in a Sohncke space group
# The framework has been calculated to contain at least 10.0% void space
# The void calculation uses a probe of radius 1.32A, grid spacing 0.4
# The framework is charged, counterions have been retained in the structure
# H atom positions have been added when not included in the experimental data
# Generated hydrogen atom positions removed from atoms on special positions
#
###############################################################################

data_WAVQOB
_chemical_formula_moiety         '(C324 H276 In12 O104 Pr8 10+)n'
_symmetry_cell_setting           triclinic
_symmetry_space_group_name_H-M   'P 1'
_symmetry_Int_Tables_number      1
_space_group_name_Hall           'P 1'
loop_
_symmetry_equiv_pos_site_id
_symmetry_equiv_pos_as_xyz
1 x,y,z
_cell_length_a                   27.13440(10)
_cell_length_b                   27.13440(10)
_cell_length_c                   27.13440(10)
_cell_angle_alpha                90
_cell_angle_beta                 90
_cell_angle_gamma                90
_cell_volume                     19978.4
loop_
_atom_site_label
_atom_site_type_symbol
_atom_site_fract_x
_atom_site_fract_y
_atom_site_fract_z
O2 O 0.00139(14) 0.55572(15) 0.02685(16)
In3 In 0.026724(15) 0.493972(18) 0.070543(14)
Pr8 Pr 0.090157(14) 0.909843(14) 0.409843(14)
O15 O 0.0222(2) 0.36260(17) 0.0035(2)
O24 O 0.11104(18) 0.5631(2) 0.01515(19)
O28 O 0.0905(2) 0.5340(2) 0.0915(2)
O34 O 0.0084(3) 0.8763(4) 0.3861(4)
O40 O 0.0620(2) 0.4320(2) 0.1035(2)
Pr1 Pr 0.052399(12) 0.552399(12) 0.947601(12)
O8 O 0.0473(3) 0.5799(3) 0.8581(3)
In7 In 0.006028(18) 0.929457(14) 0.526724(15)
O12 O 0.05572(15) 0.47315(16) 0.99861(14)
O23 O 0.0631(2) 0.48485(19) 0.88896(18)
O27 O 0.0340(2) 0.4085(2) 0.9095(2)
O31 O 0.1419(3) 0.5473(3) 0.9201(3)
O32 O 0.0799(3) 0.6419(3) 0.9527(3)
In6 In 0.526724(15) 0.006028(18) 0.929457(14)
Pr4 Pr 0.947601(12) 0.052399(12) 0.552399(12)
In1 In 0.929457(14) 0.526724(15) 0.006028(18)
Pr2 Pr 0.909843(14) 0.409843(14) 0.090157(14)
O1 O 0.96137(14) 0.46137(14) 0.03863(14)
O4 O 0.8437(3) 0.4569(3) 0.0438(3)
C3 C 0.7618(7) 0.4216(7) 0.0104(8)
H1 H 0.7728 0.4057 0.0387
H2 H 0.6813 0.4129 0.0087
O7 O 0.8472(5) 0.3357(5) 0.0854(5)
C19 C 0.8700(4) 0.6237(3) 0.1481(5)
H11 H 0.8865 0.6356 0.1206
O9 O 0.8861(4) 0.4916(3) 0.1237(4)
C20 C 0.8769(4) 0.5411(4) 0.1064(5)
C21 C 0.8167(5) 0.6775(6) 0.2566(6)
C22 C 0.8442(5) 0.7181(5) 0.2769(5)
H12 H 0.8748 0.7272 0.2644
C23 C 0.8615(4) 0.5717(3) 0.1465(5)
C24 C 0.8368(5) 0.5460(4) 0.1851(6)
H13 H 0.8300 0.5124 0.1865
C25 C 0.8582(4) 0.6614(4) 0.1838(5)
H14 H 0.8649 0.6950 0.1825
C26 C 0.8338(5) 0.6343(4) 0.2212(6)
C27 C 0.8246(7) 0.5824(5) 0.2211(6)
H15 H 0.8081 0.5706 0.2488
O10 O 0.8965(2) 0.5620(2) 0.0680(2)
In5 In 0.493972(18) 0.070543(14) 0.026724(15)
In8 In 0.506028(18) 0.570543(14) 0.473276(15)
In9 In 0.973276(15) 0.993972(18) 0.429457(14)
Pr3 Pr 0.552399(12) 0.947601(12) 0.052399(12)
Pr7 Pr 0.590157(14) 0.590157(14) 0.590157(14)
O16 O 0.9965(2) 0.5222(2) 0.13740(17)
O19 O 0.9562(3) 0.3437(3) 0.0431(3)
O20 O 0.9569(3) 0.4562(3) 0.1563(3)
O29 O 0.9146(5) 0.3472(5) 0.1643(5)
O30 O 0.8357(5) 0.4146(5) 0.1528(5)
C64 C 0.6481(5) 0.6300(4) 0.3763(3)
C65 C 0.8763(3) 0.8519(5) 0.3700(4)
H36 H 0.6206 0.6135 0.3644
H37 H 0.8644 0.8794 0.3865
O33 O 0.6237(4) 0.6139(4) 0.5084(3)
O35 O 0.8763(4) 0.3861(4) 0.0084(3)
O36 O 0.9916(3) 0.3763(4) 0.1139(4)
C66 C 0.6064(5) 0.6231(4) 0.4589(4)
C67 C 0.9589(4) 0.8936(5) 0.3769(4)
C68 C 0.8225(6) 0.7434(6) 0.3167(5)
C69 C 0.7566(6) 0.6833(5) 0.3225(6)
C70 C 0.7819(5) 0.7231(5) 0.3442(5)
C71 C 0.7769(5) 0.6558(5) 0.2819(5)
H38 H 0.7644 0.6252 0.2728
H39 H 0.7728 0.7356 0.3748
C72 C 0.6465(5) 0.6385(4) 0.4283(3)
C73 C 0.9283(3) 0.8535(5) 0.3615(4)
C74 C 0.6851(6) 0.6632(5) 0.4540(4)
C75 C 0.9540(4) 0.8149(6) 0.3368(5)
H40 H 0.6865 0.6700 0.4876
H41 H 0.9876 0.8135 0.3300
C76 C 0.6838(5) 0.6418(4) 0.3386(4)
C77 C 0.8386(4) 0.8162(5) 0.3582(4)
H42 H 0.6825 0.6351 0.3050
H43 H 0.8050 0.8175 0.3649
C78 C 0.7212(6) 0.6662(5) 0.3657(4)
C79 C 0.8657(4) 0.7788(6) 0.3338(5)
C80 C 0.7211(6) 0.6754(7) 0.4176(5)
C81 C 0.9176(5) 0.7789(6) 0.3246(7)
H44 H 0.7488 0.6919 0.4294
H45 H 0.9294 0.7512 0.3081
O37 O 0.5680(2) 0.6035(2) 0.4380(2)
O38 O 0.9380(2) 0.9320(2) 0.3965(2)
H46 H 0.929031 0.363913 0.193483
H47 H 0.880946 0.335347 0.172433
H50 H 0.806517 0.429031 0.136087
H51 H 0.827567 0.380946 0.164653
H54 H 0.863913 0.306517 0.0709686
H55 H 0.835347 0.327567 0.119054
O3 O 0.86260(17) 0.4965(2) 0.9778(2)
O5 O 0.98485(19) 0.61104(18) 0.9369(2)
O6 O 0.9085(2) 0.5905(2) 0.9660(2)
C1 C 0.8395(4) 0.4657(4) 0.9987(4)
C2 C 0.7898(4) 0.4528(5) 0.9799(4)
C4 C 0.7083(6) 0.4184(5) 0.9882(6)
C5 C 0.7013(4) 0.4242(5) 0.9357(5)
C6 C 0.7317(3) 0.4532(4) 0.9112(4)
H3 H 0.7238 0.4638 0.8796
C7 C 0.7757(3) 0.4678(3) 0.9333(4)
H4 H 0.7965 0.4887 0.9158
C8 C 0.6550(3) 0.4068(4) 0.9107(4)
C9 C 0.6367(4) 0.4290(5) 0.8719(4)
H5 H 0.6518 0.4577 0.8609
C10 C 0.9402(3) 0.6179(3) 0.9387(3)
C11 C 0.9182(3) 0.6649(3) 0.9200(4)
C12 C 0.8702(5) 0.6757(4) 0.9251(4)
H6 H 0.8497 0.6530 0.9407
C13 C 0.8514(3) 0.7164(3) 0.9092(4)
H7 H 0.8187 0.7244 0.9160
C14 C 0.8817(3) 0.7490(3) 0.8809(4)
C15 C 0.9291(3) 0.7388(3) 0.8771(4)
H8 H 0.9507 0.7613 0.8627
C16 C 0.9450(3) 0.6972(3) 0.8939(4)
H9 H 0.9776 0.6889 0.8873
C17 C 0.8609(4) 0.7987(4) 0.8601(4)
C18 C 0.8190(4) 0.8196(4) 0.8792(4)
H10 H 0.8040 0.8047 0.9061
In2 In 0.993972(18) 0.429457(14) 0.973276(15)
In4 In 0.473276(15) 0.506028(18) 0.570543(14)
Pr6 Pr 0.409843(14) 0.090157(14) 0.909843(14)
O11 O 0.97315(16) 0.50139(14) 0.94428(15)
O13 O 0.5035(2) 0.4778(2) 0.63740(17)
O14 O 0.5222(2) 0.13740(17) 0.9965(2)
O17 O 0.5431(3) 0.5438(3) 0.6563(3)
O18 O 0.4562(3) 0.1563(3) 0.9569(3)
O21 O 0.61104(18) 0.9369(2) 0.98485(19)
O22 O 0.9369(2) 0.98485(19) 0.61104(18)
O25 O 0.5905(2) 0.9660(2) 0.9085(2)
O26 O 0.9660(2) 0.9085(2) 0.5905(2)
C28 C 0.5343(4) 0.4987(4) 0.6605(4)
C29 C 0.5013(4) 0.1605(4) 0.9657(4)
C30 C 0.5472(5) 0.4799(4) 0.7102(4)
C31 C 0.5201(4) 0.2102(4) 0.9528(5)
C32 C 0.5784(7) 0.5104(8) 0.7382(7)
C33 C 0.4896(8) 0.2382(7) 0.9216(7)
H16 H 0.5943 0.5387 0.7272
H17 H 0.4613 0.2272 0.9057
C34 C 0.5816(5) 0.4882(6) 0.7917(6)
C35 C 0.5118(6) 0.2917(6) 0.9184(5)
H18 H 0.5871 0.5087 0.8187
H19 H 0.4913 0.3187 0.9129
C36 C 0.5758(5) 0.4357(5) 0.7987(4)
C37 C 0.5643(5) 0.2987(4) 0.9242(5)
C38 C 0.5468(4) 0.4112(4) 0.7683(3)
C39 C 0.5888(4) 0.2683(3) 0.9532(4)
H20 H 0.5362 0.3796 0.7762
H21 H 0.6204 0.2762 0.9638
C40 C 0.5322(3) 0.4333(4) 0.7243(3)
C41 C 0.5667(4) 0.2243(3) 0.9678(3)
H22 H 0.5113 0.4158 0.7035
H23 H 0.5842 0.2035 0.9887
C42 C 0.5932(4) 0.4107(4) 0.8450(3)
C43 C 0.5893(4) 0.3450(3) 0.9068(4)
C44 C 0.5710(5) 0.3719(4) 0.8633(4)
C45 C 0.6281(4) 0.3633(4) 0.9290(5)
H24 H 0.6391 0.3482 0.9577
H25 H 0.5423 0.3609 0.8482
C46 C 0.6179(3) 0.9387(3) 0.9402(3)
C47 C 0.9387(3) 0.9402(3) 0.6179(3)
C48 C 0.6649(3) 0.9200(4) 0.9182(3)
C49 C 0.9200(4) 0.9182(3) 0.6649(3)
C50 C 0.6757(4) 0.9251(4) 0.8702(5)
C51 C 0.9251(4) 0.8702(5) 0.6757(4)
H26 H 0.6530 0.9407 0.8497
H27 H 0.9407 0.8497 0.6530
C52 C 0.7164(3) 0.9092(4) 0.8514(3)
C53 C 0.9092(4) 0.8514(3) 0.7164(3)
H28 H 0.7244 0.9160 0.8187
H29 H 0.9160 0.8187 0.7244
C54 C 0.7490(3) 0.8809(4) 0.8817(3)
C55 C 0.8809(4) 0.8817(3) 0.7490(3)
C56 C 0.7388(3) 0.8771(4) 0.9291(3)
C57 C 0.8771(4) 0.9291(3) 0.7388(3)
H30 H 0.7613 0.8627 0.9507
H31 H 0.8627 0.9507 0.7613
C58 C 0.6972(3) 0.8939(4) 0.9450(3)
C59 C 0.8939(4) 0.9450(3) 0.6972(3)
H32 H 0.6889 0.8873 0.9776
H33 H 0.8873 0.9776 0.6889
C60 C 0.7987(4) 0.8601(4) 0.8609(4)
C61 C 0.8601(4) 0.8609(4) 0.7987(4)
C62 C 0.8196(4) 0.8792(4) 0.8190(4)
C63 C 0.8792(4) 0.8190(4) 0.8196(4)
H34 H 0.9061 0.8040 0.8047
H35 H 0.8047 0.9061 0.8040
O39 O 0.9320(2) 0.3965(2) 0.9380(2)
O18_2 O 0.0438(3) 0.8437(3) 0.4569(3)
C33_2 C 0.0104(8) 0.7618(7) 0.4216(7)
H17_2 H 0.0387 0.7728 0.4057
H19_2 H 0.0087 0.6813 0.4129
In1_2 In 0.570543(14) 0.473276(15) 0.506028(18)
Pr1_2 Pr 0.447601(12) 0.447601(12) 0.447601(12)
O1_2 O 0.53863(14) 0.53863(14) 0.53863(14)
O2_2 O 0.49861(14) 0.44428(15) 0.52685(16)
O3_2 O 0.63740(17) 0.5035(2) 0.4778(2)
O4_2 O 0.6563(3) 0.5431(3) 0.5438(3)
O5_2 O 0.51515(19) 0.38896(18) 0.4369(2)
O6_2 O 0.5915(2) 0.4095(2) 0.4660(2)
C1_2 C 0.6605(4) 0.5343(4) 0.4987(4)
C2_2 C 0.7102(4) 0.5472(5) 0.4799(4)
C3_2 C 0.7382(7) 0.5784(7) 0.5104(8)
H1_2 H 0.7272 0.5943 0.5387
C4_2 C 0.7917(6) 0.5816(5) 0.4882(6)
H2_2 H 0.8187 0.5871 0.5087
C5_2 C 0.7987(4) 0.5758(5) 0.4357(5)
C6_2 C 0.7683(3) 0.5468(4) 0.4112(4)
H3_2 H 0.7762 0.5362 0.3796
C7_2 C 0.7243(3) 0.5322(3) 0.4333(4)
H4_2 H 0.7035 0.5113 0.4158
C8_2 C 0.8450(3) 0.5932(4) 0.4107(4)
C9_2 C 0.8633(4) 0.5710(5) 0.3719(4)
H5_2 H 0.8482 0.5423 0.3609
C10_2 C 0.5598(3) 0.3821(3) 0.4387(3)
C11_2 C 0.5818(3) 0.3351(3) 0.4200(4)
C12_2 C 0.6298(5) 0.3243(4) 0.4251(4)
H6_2 H 0.6503 0.3470 0.4407
C13_2 C 0.6486(3) 0.2836(3) 0.4092(4)
H7_2 H 0.6813 0.2756 0.4160
C14_2 C 0.6183(3) 0.2510(3) 0.3809(4)
C15_2 C 0.5709(3) 0.2612(3) 0.3771(4)
H8_2 H 0.5493 0.2387 0.3627
C16_2 C 0.5550(3) 0.3028(3) 0.3939(4)
H9_2 H 0.5224 0.3111 0.3873
C17_2 C 0.6391(4) 0.2013(4) 0.3601(4)
C18_2 C 0.6810(4) 0.1804(4) 0.3792(4)
H10_2 H 0.6960 0.1953 0.4061
O7_2 O 0.6528(5) 0.6643(5) 0.5854(5)
O8_2 O 0.4527(3) 0.4201(3) 0.3581(3)
C19_2 C 0.6300(4) 0.3763(3) 0.6481(5)
H11_2 H 0.6135 0.3644 0.6206
O9_2 O 0.6139(4) 0.5084(3) 0.6237(4)
C20_2 C 0.6231(4) 0.4589(4) 0.6064(5)
C21_2 C 0.6833(5) 0.3225(6) 0.7566(6)
C22_2 C 0.6558(5) 0.2819(5) 0.7769(5)
H12_2 H 0.6252 0.2728 0.7644
C23_2 C 0.6385(4) 0.4283(3) 0.6465(5)
C24_2 C 0.6632(5) 0.4540(4) 0.6851(6)
H13_2 H 0.6700 0.4876 0.6865
C25_2 C 0.6418(4) 0.3386(4) 0.6838(5)
H14_2 H 0.6351 0.3050 0.6825
C26_2 C 0.6662(5) 0.3657(4) 0.7212(6)
C27_2 C 0.6754(7) 0.4176(5) 0.7211(6)
H15_2 H 0.6919 0.4294 0.7488
O10_2 O 0.6035(2) 0.4380(2) 0.5680(2)
O11_2 O 0.52685(16) 0.49861(14) 0.44428(15)
O12_2 O 0.44428(15) 0.52685(16) 0.49861(14)
O14_2 O 0.9778(2) 0.86260(17) 0.4965(2)
O15_2 O 0.4778(2) 0.63740(17) 0.5035(2)
O19_2 O 0.5438(3) 0.6563(3) 0.5431(3)
O21_2 O 0.88896(18) 0.0631(2) 0.48485(19)
O22_2 O 0.5631(2) 0.01515(19) 0.11104(18)
O23_2 O 0.4369(2) 0.51515(19) 0.38896(18)
O24_2 O 0.38896(18) 0.4369(2) 0.51515(19)
O25_2 O 0.9095(2) 0.0340(2) 0.4085(2)
O26_2 O 0.5340(2) 0.0915(2) 0.0905(2)
O27_2 O 0.4660(2) 0.5915(2) 0.4095(2)
O28_2 O 0.4095(2) 0.4660(2) 0.5915(2)
C28_2 C 0.9657(4) 0.5013(4) 0.1605(4)
C29_2 C 0.9987(4) 0.8395(4) 0.4657(4)
C30_2 C 0.9528(5) 0.5201(4) 0.2102(4)
C31_2 C 0.9799(4) 0.7898(4) 0.4528(5)
C32_2 C 0.9216(7) 0.4896(8) 0.2382(7)
H16_2 H 0.9057 0.4613 0.2272
C34_2 C 0.9184(5) 0.5118(6) 0.2917(6)
C35_2 C 0.9882(6) 0.7083(6) 0.4184(5)
H18_2 H 0.9129 0.4913 0.3187
C36_2 C 0.9242(5) 0.5643(5) 0.2987(4)
C37_2 C 0.9357(5) 0.7013(4) 0.4242(5)
C38_2 C 0.9532(4) 0.5888(4) 0.2683(3)
C39_2 C 0.9112(4) 0.7317(3) 0.4532(4)
H20_2 H 0.9638 0.6204 0.2762
H21_2 H 0.8796 0.7238 0.4638
C40_2 C 0.9678(3) 0.5667(4) 0.2243(3)
C41_2 C 0.9333(4) 0.7757(3) 0.4678(3)
H22_2 H 0.9887 0.5842 0.2035
H23_2 H 0.9158 0.7965 0.4887
C42_2 C 0.9068(4) 0.5893(4) 0.3450(3)
C43_2 C 0.9107(4) 0.6550(3) 0.4068(4)
C44_2 C 0.9290(5) 0.6281(4) 0.3633(4)
C45_2 C 0.8719(4) 0.6367(4) 0.4290(5)
H24_2 H 0.8609 0.6518 0.4577
H25_2 H 0.9577 0.6391 0.3482
C46_2 C 0.8821(3) 0.0613(3) 0.4402(3)
C47_2 C 0.5613(3) 0.0598(3) 0.1179(3)
C48_2 C 0.8351(3) 0.0800(4) 0.4182(3)
C49_2 C 0.5800(4) 0.0818(3) 0.1649(3)
C50_2 C 0.8243(4) 0.0749(4) 0.3702(5)
C51_2 C 0.5749(4) 0.1298(5) 0.1757(4)
H26_2 H 0.8470 0.0593 0.3497
H27_2 H 0.5593 0.1503 0.1530
C52_2 C 0.7836(3) 0.0908(4) 0.3514(3)
C53_2 C 0.5908(4) 0.1486(3) 0.2164(3)
H28_2 H 0.7756 0.0840 0.3187
H29_2 H 0.5840 0.1813 0.2244
C54_2 C 0.7510(3) 0.1191(4) 0.3817(3)
C55_2 C 0.6191(4) 0.1183(3) 0.2490(3)
C56_2 C 0.7612(3) 0.1229(4) 0.4291(3)
C57_2 C 0.6229(4) 0.0709(3) 0.2388(3)
H30_2 H 0.7387 0.1373 0.4507
H31_2 H 0.6373 0.0493 0.2613
C58_2 C 0.8028(3) 0.1061(4) 0.4450(3)
C59_2 C 0.6061(4) 0.0550(3) 0.1972(3)
H32_2 H 0.8111 0.1127 0.4776
H33_2 H 0.6127 0.0224 0.1889
C60_2 C 0.7013(4) 0.1399(4) 0.3609(4)
C61_2 C 0.6399(4) 0.1391(4) 0.2987(4)
C62_2 C 0.6804(4) 0.1208(4) 0.3190(4)
C63_2 C 0.6208(4) 0.1810(4) 0.3196(4)
H34_2 H 0.5939 0.1960 0.3047
H35_2 H 0.6953 0.0939 0.3040
O29_2 O 0.5854(5) 0.6528(5) 0.6643(5)
O30_2 O 0.6643(5) 0.5854(5) 0.6528(5)
O31_2 O 0.3581(3) 0.4527(3) 0.4201(3)
O32_2 O 0.4201(3) 0.3581(3) 0.4527(3)
C64_2 C 0.8519(5) 0.3700(4) 0.8763(3)
C65_2 C 0.6237(3) 0.1481(5) 0.8700(4)
H36_2 H 0.8794 0.3865 0.8644
H37_2 H 0.6356 0.1206 0.8865
O34_2 O 0.4916(3) 0.1237(4) 0.8861(4)
O36_2 O 0.5084(3) 0.6237(4) 0.6139(4)
C66_2 C 0.8936(5) 0.3769(4) 0.9589(4)
C67_2 C 0.5411(4) 0.1064(5) 0.8769(4)
C68_2 C 0.6775(6) 0.2566(6) 0.8167(5)
C69_2 C 0.7434(6) 0.3167(5) 0.8225(6)
C70_2 C 0.7181(5) 0.2769(5) 0.8442(5)
C71_2 C 0.7231(5) 0.3442(5) 0.7819(5)
H38_2 H 0.7356 0.3748 0.7728
H39_2 H 0.7272 0.2644 0.8748
C72_2 C 0.8535(5) 0.3615(4) 0.9283(3)
C73_2 C 0.5717(3) 0.1465(5) 0.8615(4)
C74_2 C 0.8149(6) 0.3368(5) 0.9540(4)
C75_2 C 0.5460(4) 0.1851(6) 0.8368(5)
H40_2 H 0.8135 0.3300 0.9876
H41_2 H 0.5124 0.1865 0.8300
C76_2 C 0.8162(5) 0.3582(4) 0.8386(4)
C77_2 C 0.6614(4) 0.1838(5) 0.8582(4)
H42_2 H 0.8175 0.3649 0.8050
H43_2 H 0.6950 0.1825 0.8649
C78_2 C 0.7788(6) 0.3338(5) 0.8657(4)
C79_2 C 0.6343(4) 0.2212(6) 0.8338(5)
C80_2 C 0.7789(6) 0.3246(7) 0.9176(5)
C81_2 C 0.5824(5) 0.2211(6) 0.8246(7)
H44_2 H 0.7512 0.3081 0.9294
H45_2 H 0.5706 0.2488 0.8081
O38_2 O 0.5620(2) 0.0680(2) 0.8965(2)
O40_2 O 0.4380(2) 0.5680(2) 0.6035(2)
H46_2 H 0.570969 0.636087 0.693483
H47_2 H 0.619054 0.664653 0.672433
H50_2 H 0.693483 0.570969 0.636087
H51_2 H 0.672433 0.619054 0.664653
H54_2 H 0.636087 0.693483 0.570969
H55_2 H 0.664653 0.672433 0.619054
In1_3 In 0.070543(14) 0.026724(15) 0.493972(18)
O5_3 O 0.01515(19) 0.11104(18) 0.5631(2)
O6_3 O 0.0915(2) 0.0905(2) 0.5340(2)
C10_3 C 0.0598(3) 0.1179(3) 0.5613(3)
C11_3 C 0.0818(3) 0.1649(3) 0.5800(4)
C12_3 C 0.1298(5) 0.1757(4) 0.5749(4)
H6_3 H 0.1503 0.1530 0.5593
C13_3 C 0.1486(3) 0.2164(3) 0.5908(4)
H7_3 H 0.1813 0.2244 0.5840
C14_3 C 0.1183(3) 0.2490(3) 0.6191(4)
C15_3 C 0.0709(3) 0.2388(3) 0.6229(4)
H8_3 H 0.0493 0.2613 0.6373
C16_3 C 0.0550(3) 0.1972(3) 0.6061(4)
H9_3 H 0.0224 0.1889 0.6127
C17_3 C 0.1391(4) 0.2987(4) 0.6399(4)
C18_3 C 0.1810(4) 0.3196(4) 0.6208(4)
H10_3 H 0.1960 0.3047 0.5939
C19_3 C 0.1300(4) 0.1237(3) 0.3519(5)
H11_3 H 0.1135 0.1356 0.3794
C20_3 C 0.1231(4) 0.0411(4) 0.3936(5)
C21_3 C 0.1833(5) 0.1775(6) 0.2434(6)
C22_3 C 0.1558(5) 0.2181(5) 0.2231(5)
H12_3 H 0.1252 0.2272 0.2356
C23_3 C 0.1385(4) 0.0717(3) 0.3535(5)
C24_3 C 0.1632(5) 0.0460(4) 0.3149(6)
H13_3 H 0.1700 0.0124 0.3135
C25_3 C 0.1418(4) 0.1614(4) 0.3162(5)
H14_3 H 0.1351 0.1950 0.3175
C26_3 C 0.1662(5) 0.1343(4) 0.2788(6)
C27_3 C 0.1754(7) 0.0824(5) 0.2789(6)
H15_3 H 0.1919 0.0706 0.2512
O10_3 O 0.1035(2) 0.0620(2) 0.4320(2)
O11_3 O 0.02685(16) 0.00139(14) 0.55572(15)
O16_2 O 0.0035(2) 0.0222(2) 0.36260(17)
O17_2 O 0.4569(3) 0.0438(3) 0.8437(3)
C32_3 C 0.4216(7) 0.0104(8) 0.7618(7)
H16_3 H 0.4057 0.0387 0.7728
H18_3 H 0.4129 0.0087 0.6813
C46_3 C 0.3821(3) 0.4387(3) 0.5598(3)
C47_3 C 0.0613(3) 0.4402(3) 0.8821(3)
C48_3 C 0.3351(3) 0.4200(4) 0.5818(3)
C49_3 C 0.0800(4) 0.4182(3) 0.8351(3)
C50_3 C 0.3243(4) 0.4251(4) 0.6298(5)
C51_3 C 0.0749(4) 0.3702(5) 0.8243(4)
H26_3 H 0.3470 0.4407 0.6503
H27_3 H 0.0593 0.3497 0.8470
C52_3 C 0.2836(3) 0.4092(4) 0.6486(3)
C53_3 C 0.0908(4) 0.3514(3) 0.7836(3)
H28_3 H 0.2756 0.4160 0.6813
H29_3 H 0.0840 0.3187 0.7756
C54_3 C 0.2510(3) 0.3809(4) 0.6183(3)
C55_3 C 0.1191(4) 0.3817(3) 0.7510(3)
C56_3 C 0.2612(3) 0.3771(4) 0.5709(3)
C57_3 C 0.1229(4) 0.4291(3) 0.7612(3)
H30_3 H 0.2387 0.3627 0.5493
H31_3 H 0.1373 0.4507 0.7387
C58_3 C 0.3028(3) 0.3939(4) 0.5550(3)
C59_3 C 0.1061(4) 0.4450(3) 0.8028(3)
H32_3 H 0.3111 0.3873 0.5224
H33_3 H 0.1127 0.4776 0.8111
C60_3 C 0.2013(4) 0.3601(4) 0.6391(4)
C61_3 C 0.1399(4) 0.3609(4) 0.7013(4)
C62_3 C 0.1804(4) 0.3792(4) 0.6810(4)
C63_3 C 0.1208(4) 0.3190(4) 0.6804(4)
H34_3 H 0.0939 0.3040 0.6953
H35_3 H 0.1953 0.4061 0.6960
C64_3 C 0.3519(5) 0.1300(4) 0.1237(3)
C65_3 C 0.1237(3) 0.3519(5) 0.1300(4)
H36_3 H 0.3794 0.1135 0.1356
H37_3 H 0.1356 0.3794 0.1135
C66_3 C 0.3936(5) 0.1231(4) 0.0411(4)
C67_3 C 0.0411(4) 0.3936(5) 0.1231(4)
C68_3 C 0.1775(6) 0.2434(6) 0.1833(5)
C69_3 C 0.2434(6) 0.1833(5) 0.1775(6)
C70_3 C 0.2181(5) 0.2231(5) 0.1558(5)
C71_3 C 0.2231(5) 0.1558(5) 0.2181(5)
H38_3 H 0.2356 0.1252 0.2272
H39_3 H 0.2272 0.2356 0.1252
C72_3 C 0.3535(5) 0.1385(4) 0.0717(3)
C73_3 C 0.0717(3) 0.3535(5) 0.1385(4)
C74_3 C 0.3149(6) 0.1632(5) 0.0460(4)
C75_3 C 0.0460(4) 0.3149(6) 0.1632(5)
H40_3 H 0.3135 0.1700 0.0124
H41_3 H 0.0124 0.3135 0.1700
C76_3 C 0.3162(5) 0.1418(4) 0.1614(4)
C77_3 C 0.1614(4) 0.3162(5) 0.1418(4)
H42_3 H 0.3175 0.1351 0.1950
H43_3 H 0.1950 0.3175 0.1351
C78_3 C 0.2788(6) 0.1662(5) 0.1343(4)
C79_3 C 0.1343(4) 0.2788(6) 0.1662(5)
C80_3 C 0.2789(6) 0.1754(7) 0.0824(5)
C81_3 C 0.0824(5) 0.2789(6) 0.1754(7)
H44_3 H 0.2512 0.1919 0.0706
H45_3 H 0.0706 0.2512 0.1919
O37_2 O 0.4320(2) 0.1035(2) 0.0620(2)
O33_2 O 0.3763(4) 0.1139(4) 0.9916(3)
O1_3 O 0.03863(14) 0.96137(14) 0.46137(14)
O3_3 O 0.13740(17) 0.9965(2) 0.5222(2)
O4_3 O 0.1563(3) 0.9569(3) 0.4562(3)
C1_3 C 0.1605(4) 0.9657(4) 0.5013(4)
C2_3 C 0.2102(4) 0.9528(5) 0.5201(4)
C3_3 C 0.2382(7) 0.9216(7) 0.4896(8)
H1_3 H 0.2272 0.9057 0.4613
C4_3 C 0.2917(6) 0.9184(5) 0.5118(6)
H2_3 H 0.3187 0.9129 0.4913
C5_3 C 0.2987(4) 0.9242(5) 0.5643(5)
C6_3 C 0.2683(3) 0.9532(4) 0.5888(4)
H3_3 H 0.2762 0.9638 0.6204
C7_3 C 0.2243(3) 0.9678(3) 0.5667(4)
H4_3 H 0.2035 0.9887 0.5842
C8_3 C 0.3450(3) 0.9068(4) 0.5893(4)
C9_3 C 0.3633(4) 0.9290(5) 0.6281(4)
H5_3 H 0.3482 0.9577 0.6391
O7_3 O 0.1528(5) 0.8357(5) 0.4146(5)
O9_3 O 0.1139(4) 0.9916(3) 0.3763(4)
O13_2 O 0.4965(2) 0.9778(2) 0.86260(17)
O20_2 O 0.0431(3) 0.9562(3) 0.3437(3)
C28_3 C 0.4657(4) 0.9987(4) 0.8395(4)
C29_3 C 0.4987(4) 0.6605(4) 0.5343(4)
C30_3 C 0.4528(5) 0.9799(4) 0.7898(4)
C31_3 C 0.4799(4) 0.7102(4) 0.5472(5)
C33_3 C 0.5104(8) 0.7382(7) 0.5784(7)
H17_3 H 0.5387 0.7272 0.5943
C34_3 C 0.4184(5) 0.9882(6) 0.7083(6)
C35_3 C 0.4882(6) 0.7917(6) 0.5816(5)
H19_3 H 0.5087 0.8187 0.5871
C36_3 C 0.4242(5) 0.9357(5) 0.7013(4)
C37_3 C 0.4357(5) 0.7987(4) 0.5758(5)
C38_3 C 0.4532(4) 0.9112(4) 0.7317(3)
C39_3 C 0.4112(4) 0.7683(3) 0.5468(4)
H20_3 H 0.4638 0.8796 0.7238
H21_3 H 0.3796 0.7762 0.5362
C40_3 C 0.4678(3) 0.9333(4) 0.7757(3)
C41_3 C 0.4333(4) 0.7243(3) 0.5322(3)
H22_3 H 0.4887 0.9158 0.7965
H23_3 H 0.4158 0.7035 0.5113
C42_3 C 0.4068(4) 0.9107(4) 0.6550(3)
C43_3 C 0.4107(4) 0.8450(3) 0.5932(4)
C44_3 C 0.4290(5) 0.8719(4) 0.6367(4)
C45_3 C 0.3719(4) 0.8633(4) 0.5710(5)
H24_3 H 0.3609 0.8482 0.5423
H25_3 H 0.4577 0.8609 0.6518
O29_3 O 0.0854(5) 0.8472(5) 0.3357(5)
O30_3 O 0.1643(5) 0.9146(5) 0.3472(5)
O35_2 O 0.1237(4) 0.8861(4) 0.4916(3)
O39_2 O 0.0680(2) 0.8965(2) 0.5620(2)
H46_3 H 0.0709686 0.863913 0.306517
H47_3 H 0.119054 0.835347 0.327567
H50_3 H 0.193483 0.929031 0.363913
H51_3 H 0.172433 0.880946 0.335347
H54_3 H 0.136087 0.806517 0.429031
H55_3 H 0.164653 0.827567 0.380946
O2_3 O 0.99861(14) 0.05572(15) 0.47315(16)
O8_3 O 0.9527(3) 0.0799(3) 0.6419(3)
O31_3 O 0.8581(3) 0.0473(3) 0.5799(3)
O32_3 O 0.9201(3) 0.1419(3) 0.5473(3)
O12_3 O 0.94428(15) 0.97315(16) 0.50139(14)
O3_4 O 0.36260(17) 0.0035(2) 0.0222(2)
C1_4 C 0.3395(4) 0.0343(4) 0.0013(4)
C2_4 C 0.2898(4) 0.0472(5) 0.0201(4)
C4_4 C 0.2083(6) 0.0816(5) 0.0118(6)
C5_4 C 0.2013(4) 0.0758(5) 0.0643(5)
C6_4 C 0.2317(3) 0.0468(4) 0.0888(4)
H3_4 H 0.2238 0.0362 0.1204
C7_4 C 0.2757(3) 0.0322(3) 0.0667(4)
H4_4 H 0.2965 0.0113 0.0842
C8_4 C 0.1550(3) 0.0932(4) 0.0893(4)
C9_4 C 0.1367(4) 0.0710(5) 0.1281(4)
H5_4 H 0.1518 0.0423 0.1391
O12_4 O 0.55572(15) 0.02685(16) 0.00139(14)
C28_4 C 0.0343(4) 0.0013(4) 0.3395(4)
C29_4 C 0.0013(4) 0.3395(4) 0.0343(4)
C30_4 C 0.0472(5) 0.0201(4) 0.2898(4)
C31_4 C 0.0201(4) 0.2898(4) 0.0472(5)
C34_4 C 0.0816(5) 0.0118(6) 0.2083(6)
C35_4 C 0.0118(6) 0.2083(6) 0.0816(5)
C36_4 C 0.0758(5) 0.0643(5) 0.2013(4)
C37_4 C 0.0643(5) 0.2013(4) 0.0758(5)
C38_4 C 0.0468(4) 0.0888(4) 0.2317(3)
C39_4 C 0.0888(4) 0.2317(3) 0.0468(4)
H20_4 H 0.0362 0.1204 0.2238
H21_4 H 0.1204 0.2238 0.0362
C40_4 C 0.0322(3) 0.0667(4) 0.2757(3)
C41_4 C 0.0667(4) 0.2757(3) 0.0322(3)
H22_4 H 0.0113 0.0842 0.2965
H23_4 H 0.0842 0.2965 0.0113
C42_4 C 0.0932(4) 0.0893(4) 0.1550(3)
C43_4 C 0.0893(4) 0.1550(3) 0.0932(4)
C44_4 C 0.0710(5) 0.1281(4) 0.1367(4)
C45_4 C 0.1281(4) 0.1367(4) 0.0710(5)
H24_4 H 0.1391 0.1518 0.0423
H25_4 H 0.0423 0.1391 0.1518
O1_4 O 0.46137(14) 0.03863(14) 0.96137(14)
O4_4 O 0.3437(3) 0.0431(3) 0.9562(3)
C3_4 C 0.2618(7) 0.0784(7) 0.9896(8)
H1_4 H 0.2728 0.0943 0.9613
H2_4 H 0.1813 0.0871 0.9913
O7_4 O 0.3472(5) 0.1643(5) 0.9146(5)
O9_4 O 0.3861(4) 0.0084(3) 0.8763(4)
O29_4 O 0.4146(5) 0.1528(5) 0.8357(5)
O30_4 O 0.3357(5) 0.0854(5) 0.8472(5)
H46_4 H 0.429031 0.136087 0.806517
H47_4 H 0.380946 0.164653 0.827567
H50_4 H 0.306517 0.0709686 0.863913
H51_4 H 0.327567 0.119054 0.835347
H54_4 H 0.363913 0.193483 0.929031
H55_4 H 0.335347 0.172433 0.880946
O5_4 O 0.48485(19) 0.88896(18) 0.0631(2)
O6_4 O 0.4085(2) 0.9095(2) 0.0340(2)
C10_4 C 0.4402(3) 0.8821(3) 0.0613(3)
C11_4 C 0.4182(3) 0.8351(3) 0.0800(4)
C12_4 C 0.3702(5) 0.8243(4) 0.0749(4)
H6_4 H 0.3497 0.8470 0.0593
C13_4 C 0.3514(3) 0.7836(3) 0.0908(4)
H7_4 H 0.3187 0.7756 0.0840
C14_4 C 0.3817(3) 0.7510(3) 0.1191(4)
C15_4 C 0.4291(3) 0.7612(3) 0.1229(4)
H8_4 H 0.4507 0.7387 0.1373
C16_4 C 0.4450(3) 0.8028(3) 0.1061(4)
H9_4 H 0.4776 0.8111 0.1127
C17_4 C 0.3609(4) 0.7013(4) 0.1399(4)
C18_4 C 0.3190(4) 0.6804(4) 0.1208(4)
H10_4 H 0.3040 0.6953 0.0939
O8_4 O 0.5473(3) 0.9201(3) 0.1419(3)
O11_4 O 0.47315(16) 0.99861(14) 0.05572(15)
C32_4 C 0.0784(7) 0.9896(8) 0.2618(7)
H16_4 H 0.0943 0.9613 0.2728
H18_4 H 0.0871 0.9913 0.1813
C46_4 C 0.1179(3) 0.5613(3) 0.0598(3)
C47_4 C 0.4387(3) 0.5598(3) 0.3821(3)
C48_4 C 0.1649(3) 0.5800(4) 0.0818(3)
C49_4 C 0.4200(4) 0.5818(3) 0.3351(3)
C50_4 C 0.1757(4) 0.5749(4) 0.1298(5)
C51_4 C 0.4251(4) 0.6298(5) 0.3243(4)
H26_4 H 0.1530 0.5593 0.1503
H27_4 H 0.4407 0.6503 0.3470
C52_4 C 0.2164(3) 0.5908(4) 0.1486(3)
C53_4 C 0.4092(4) 0.6486(3) 0.2836(3)
H28_4 H 0.2244 0.5840 0.1813
H29_4 H 0.4160 0.6813 0.2756
C54_4 C 0.2490(3) 0.6191(4) 0.1183(3)
C55_4 C 0.3809(4) 0.6183(3) 0.2510(3)
C56_4 C 0.2388(3) 0.6229(4) 0.0709(3)
C57_4 C 0.3771(4) 0.5709(3) 0.2612(3)
H30_4 H 0.2613 0.6373 0.0493
H31_4 H 0.3627 0.5493 0.2387
C58_4 C 0.1972(3) 0.6061(4) 0.0550(3)
C59_4 C 0.3939(4) 0.5550(3) 0.3028(3)
H32_4 H 0.1889 0.6127 0.0224
H33_4 H 0.3873 0.5224 0.3111
C60_4 C 0.2987(4) 0.6399(4) 0.1391(4)
C61_4 C 0.3601(4) 0.6391(4) 0.2013(4)
C62_4 C 0.3196(4) 0.6208(4) 0.1810(4)
C63_4 C 0.3792(4) 0.6810(4) 0.1804(4)
H34_4 H 0.4061 0.6960 0.1953
H35_4 H 0.3047 0.5939 0.1960
O31_4 O 0.6419(3) 0.9527(3) 0.0799(3)
O32_4 O 0.5799(3) 0.8581(3) 0.0473(3)
In1_4 In 0.429457(14) 0.973276(15) 0.993972(18)
O2_4 O 0.50139(14) 0.94428(15) 0.97315(16)
C19_4 C 0.3700(4) 0.8763(3) 0.8519(5)
H11_4 H 0.3865 0.8644 0.8794
C20_4 C 0.3769(4) 0.9589(4) 0.8936(5)
C21_4 C 0.3167(5) 0.8225(6) 0.7434(6)
C22_4 C 0.3442(5) 0.7819(5) 0.7231(5)
H12_4 H 0.3748 0.7728 0.7356
C23_4 C 0.3615(4) 0.9283(3) 0.8535(5)
C24_4 C 0.3368(5) 0.9540(4) 0.8149(6)
H13_4 H 0.3300 0.9876 0.8135
C25_4 C 0.3582(4) 0.8386(4) 0.8162(5)
H14_4 H 0.3649 0.8050 0.8175
C26_4 C 0.3338(5) 0.8657(4) 0.7788(6)
C27_4 C 0.3246(7) 0.9176(5) 0.7789(6)
H15_4 H 0.3081 0.9294 0.7512
O10_4 O 0.3965(2) 0.9380(2) 0.9320(2)
C64_4 C 0.1481(5) 0.8700(4) 0.6237(3)
C65_4 C 0.3763(3) 0.6481(5) 0.6300(4)
H36_4 H 0.1206 0.8865 0.6356
H37_4 H 0.3644 0.6206 0.6135
C66_4 C 0.1064(5) 0.8769(4) 0.5411(4)
C67_4 C 0.4589(4) 0.6064(5) 0.6231(4)
C68_4 C 0.3225(6) 0.7566(6) 0.6833(5)
C69_4 C 0.2566(6) 0.8167(5) 0.6775(6)
C70_4 C 0.2819(5) 0.7769(5) 0.6558(5)
C71_4 C 0.2769(5) 0.8442(5) 0.7181(5)
H38_4 H 0.2644 0.8748 0.7272
H39_4 H 0.2728 0.7644 0.6252
C72_4 C 0.1465(5) 0.8615(4) 0.5717(3)
C73_4 C 0.4283(3) 0.6465(5) 0.6385(4)
C74_4 C 0.1851(6) 0.8368(5) 0.5460(4)
C75_4 C 0.4540(4) 0.6851(6) 0.6632(5)
H40_4 H 0.1865 0.8300 0.5124
H41_4 H 0.4876 0.6865 0.6700
C76_4 C 0.1838(5) 0.8582(4) 0.6614(4)
C77_4 C 0.3386(4) 0.6838(5) 0.6418(4)
H42_4 H 0.1825 0.8649 0.6950
H43_4 H 0.3050 0.6825 0.6351
C78_4 C 0.2212(6) 0.8338(5) 0.6343(4)
C79_4 C 0.3657(4) 0.7212(6) 0.6662(5)
C80_4 C 0.2211(6) 0.8246(7) 0.5824(5)
C81_4 C 0.4176(5) 0.7211(6) 0.6754(7)
H44_4 H 0.2488 0.8081 0.5706
H45_4 H 0.4294 0.7488 0.6919
C33_4 C 0.9896(8) 0.2618(7) 0.0784(7)
H17_4 H 0.9613 0.2728 0.0943
H19_4 H 0.9913 0.1813 0.0871
loop_
_geom_bond_atom_site_label_1
_geom_bond_atom_site_label_2
_geom_bond_site_symmetry_1
_geom_bond_site_symmetry_2
Pr8 O34 1_555 1_555
O28 In3 1_555 1_555
O40 In3 1_555 1_555
O2 In3 1_555 1_555
O8 Pr1 1_555 1_555
O12 Pr1 1_555 1_555
O23 Pr1 1_555 1_555
O31 Pr1 1_555 1_555
O32 Pr1 1_555 1_555
In1 O1 1_555 1_555
Pr2 O1 1_555 1_555
O4 Pr2 1_555 1_555
H1 C3 1_555 1_555
O7 Pr2 1_555 1_555
C19 H11 1_555 1_555
O9 Pr2 1_555 1_555
C20 O9 1_555 1_555
C21 C22 1_555 1_555
C22 H12 1_555 1_555
C23 C19 1_555 1_555
C24 C23 1_555 1_555
H13 C24 1_555 1_555
C25 C19 1_555 1_555
H14 C25 1_555 1_555
C26 C21 1_555 1_555
C27 C24 1_555 1_555
H15 C27 1_555 1_555
O10 In1 1_555 1_555
In8 O37 1_555 1_555
In9 O38 1_555 1_555
Pr7 O33 1_555 1_555
O19 Pr2 1_555 1_555
O20 Pr2 1_555 1_555
O29 Pr2 1_555 1_555
O30 Pr2 1_555 1_555
C64 H36 1_555 1_555
C65 H37 1_555 1_555
O33 C66 1_555 1_555
O35 Pr2 1_555 1_555
O36 Pr2 1_555 1_555
C66 C72 1_555 1_555
C67 C73 1_555 1_555
C68 C22 1_555 1_555
C69 C70 1_555 1_555
C70 C68 1_555 1_555
C71 C21 1_555 1_555
H38 C71 1_555 1_555
H39 C70 1_555 1_555
C72 C64 1_555 1_555
C73 C65 1_555 1_555
C74 C72 1_555 1_555
C75 C73 1_555 1_555
H40 C74 1_555 1_555
H41 C75 1_555 1_555
C76 C64 1_555 1_555
C77 C65 1_555 1_555
H42 C76 1_555 1_555
H43 C77 1_555 1_555
C78 C69 1_555 1_555
C79 C68 1_555 1_555
C80 C74 1_555 1_555
C81 C75 1_555 1_555
H44 C80 1_555 1_555
H45 C81 1_555 1_555
O37 C66 1_555 1_555
O38 C67 1_555 1_555
C20 C23 1_555 1_555
C20 O10 1_555 1_555
C25 C26 1_555 1_555
C26 C27 1_555 1_555
C69 C71 1_555 1_555
C76 C78 1_555 1_555
C77 C79 1_555 1_555
C78 C80 1_555 1_555
C79 C81 1_555 1_555
O29 H46 1_555 1_555
O29 H47 1_555 1_555
O30 H50 1_555 1_555
O30 H51 1_555 1_555
O7 H54 1_555 1_555
O7 H55 1_555 1_555
C1 O3 1_555 1_555
C2 C1 1_555 1_555
C5 C4 1_555 1_555
C6 C5 1_555 1_555
H3 C6 1_555 1_555
C7 C2 1_555 1_555
H4 C7 1_555 1_555
C8 C5 1_555 1_555
C9 C8 1_555 1_555
H5 C9 1_555 1_555
C10 O5 1_555 1_555
C11 C10 1_555 1_555
C12 C11 1_555 1_555
H6 C12 1_555 1_555
C13 C12 1_555 1_555
H7 C13 1_555 1_555
C14 C13 1_555 1_555
C15 C14 1_555 1_555
H8 C15 1_555 1_555
C16 C11 1_555 1_555
H9 C16 1_555 1_555
C17 C14 1_555 1_555
C18 C17 1_555 1_555
H10 C18 1_555 1_555
In2 O11 1_555 1_555
In4 O13 1_555 1_555
Pr7 O17 1_555 1_555
Pr6 O18 1_555 1_555
O13 C28 1_555 1_555
O14 C29 1_555 1_555
O17 C28 1_555 1_555
O18 C29 1_555 1_555
O21 C46 1_555 1_555
O22 C47 1_555 1_555
O25 C46 1_555 1_555
O26 C47 1_555 1_555
C28 C30 1_555 1_555
C29 C31 1_555 1_555
C30 C32 1_555 1_555
C31 C33 1_555 1_555
C32 H16 1_555 1_555
C33 H17 1_555 1_555
C34 C32 1_555 1_555
C35 C33 1_555 1_555
H18 C34 1_555 1_555
H19 C35 1_555 1_555
C36 C34 1_555 1_555
C37 C35 1_555 1_555
C38 C36 1_555 1_555
C39 C37 1_555 1_555
H20 C38 1_555 1_555
H21 C39 1_555 1_555
C40 C30 1_555 1_555
C41 C31 1_555 1_555
H22 C40 1_555 1_555
H23 C41 1_555 1_555
C42 C9 1_555 1_555
C43 C37 1_555 1_555
C44 C42 1_555 1_555
C45 C8 1_555 1_555
H24 C45 1_555 1_555
H25 C44 1_555 1_555
C46 C48 1_555 1_555
C47 C49 1_555 1_555
C48 C50 1_555 1_555
C49 C51 1_555 1_555
C50 H26 1_555 1_555
C51 H27 1_555 1_555
C52 C50 1_555 1_555
C53 C51 1_555 1_555
H28 C52 1_555 1_555
H29 C53 1_555 1_555
C54 C52 1_555 1_555
C55 C53 1_555 1_555
C56 C54 1_555 1_555
C57 C55 1_555 1_555
H30 C56 1_555 1_555
H31 C57 1_555 1_555
C58 C48 1_555 1_555
C59 C49 1_555 1_555
H32 C58 1_555 1_555
H33 C59 1_555 1_555
C60 C18 1_555 1_555
C61 C55 1_555 1_555
C62 C60 1_555 1_555
C63 C17 1_555 1_555
H34 C63 1_555 1_555
H35 C62 1_555 1_555
O39 In2 1_555 1_555
O6 C10 1_555 1_555
C6 C7 1_555 1_555
C15 C16 1_555 1_555
C36 C42 1_555 1_555
C38 C40 1_555 1_555
C39 C41 1_555 1_555
C43 C44 1_555 1_555
C43 C45 1_555 1_555
C54 C60 1_555 1_555
C56 C58 1_555 1_555
C57 C59 1_555 1_555
C61 C62 1_555 1_555
C61 C63 1_555 1_555
Pr8 O18_2 1_555 1_555
C33_2 H17_2 1_555 1_555
In1_2 O1_2 1_555 1_555
Pr1_2 O2_2 1_555 1_555
Pr7 O1_2 1_555 1_555
O1_2 In8 1_555 1_555
O2_2 In1_2 1_555 1_555
O3_2 In1_2 1_555 1_555
O4_2 Pr7 1_555 1_555
O5_2 Pr1_2 1_555 1_555
O6_2 In1_2 1_555 1_555
C1_2 O3_2 1_555 1_555
C2_2 C1_2 1_555 1_555
C3_2 C2_2 1_555 1_555
H1_2 C3_2 1_555 1_555
C4_2 C3_2 1_555 1_555
H2_2 C4_2 1_555 1_555
C5_2 C4_2 1_555 1_555
C6_2 C5_2 1_555 1_555
H3_2 C6_2 1_555 1_555
C7_2 C2_2 1_555 1_555
H4_2 C7_2 1_555 1_555
C8_2 C5_2 1_555 1_555
C9_2 C8_2 1_555 1_555
H5_2 C9_2 1_555 1_555
C10_2 O5_2 1_555 1_555
C11_2 C10_2 1_555 1_555
C12_2 C11_2 1_555 1_555
H6_2 C12_2 1_555 1_555
C13_2 C12_2 1_555 1_555
H7_2 C13_2 1_555 1_555
C14_2 C13_2 1_555 1_555
C15_2 C14_2 1_555 1_555
H8_2 C15_2 1_555 1_555
C16_2 C11_2 1_555 1_555
H9_2 C16_2 1_555 1_555
C17_2 C14_2 1_555 1_555
C18_2 C17_2 1_555 1_555
H10_2 C18_2 1_555 1_555
O7_2 Pr7 1_555 1_555
O8_2 Pr1_2 1_555 1_555
C19_2 H11_2 1_555 1_555
O9_2 Pr7 1_555 1_555
C20_2 O9_2 1_555 1_555
C21_2 C22_2 1_555 1_555
C22_2 H12_2 1_555 1_555
C23_2 C19_2 1_555 1_555
C24_2 C23_2 1_555 1_555
H13_2 C24_2 1_555 1_555
C25_2 C19_2 1_555 1_555
H14_2 C25_2 1_555 1_555
C26_2 C21_2 1_555 1_555
C27_2 C24_2 1_555 1_555
H15_2 C27_2 1_555 1_555
O10_2 In1_2 1_555 1_555
In8 O11_2 1_555 1_555
In4 O1_2 1_555 1_555
In5 O26_2 1_555 1_555
In6 O38_2 1_555 1_555
Pr4 O21_2 1_555 1_555
Pr6 O34_2 1_555 1_555
O11_2 In1_2 1_555 1_555
O12_2 Pr1_2 1_555 1_555
O16 C28_2 1_555 1_555
O14_2 C29_2 1_555 1_555
O15_2 In8 1_555 1_555
O20 C28_2 1_555 1_555
O19_2 Pr7 1_555 1_555
O21_2 C46_2 1_555 1_555
O22_2 C47_2 1_555 1_555
O23_2 Pr1_2 1_555 1_555
O24_2 Pr1_2 1_555 1_555
O25_2 C46_2 1_555 1_555
O26_2 C47_2 1_555 1_555
O27_2 In8 1_555 1_555
O28_2 In4 1_555 1_555
C28_2 C30_2 1_555 1_555
C29_2 C31_2 1_555 1_555
C30_2 C32_2 1_555 1_555
C32_2 H16_2 1_555 1_555
C34_2 C32_2 1_555 1_555
H18_2 C34_2 1_555 1_555
C36_2 C34_2 1_555 1_555
C37_2 C35_2 1_555 1_555
C38_2 C36_2 1_555 1_555
C39_2 C37_2 1_555 1_555
H20_2 C38_2 1_555 1_555
H21_2 C39_2 1_555 1_555
C40_2 C30_2 1_555 1_555
C41_2 C31_2 1_555 1_555
H22_2 C40_2 1_555 1_555
H23_2 C41_2 1_555 1_555
C42_2 C9_2 1_555 1_555
C43_2 C37_2 1_555 1_555
C44_2 C42_2 1_555 1_555
C45_2 C8_2 1_555 1_555
H24_2 C45_2 1_555 1_555
H25_2 C44_2 1_555 1_555
C46_2 C48_2 1_555 1_555
C47_2 C49_2 1_555 1_555
C48_2 C50_2 1_555 1_555
C49_2 C51_2 1_555 1_555
C50_2 H26_2 1_555 1_555
C51_2 H27_2 1_555 1_555
C52_2 C50_2 1_555 1_555
C53_2 C51_2 1_555 1_555
H28_2 C52_2 1_555 1_555
H29_2 C53_2 1_555 1_555
C54_2 C52_2 1_555 1_555
C55_2 C53_2 1_555 1_555
C56_2 C54_2 1_555 1_555
C57_2 C55_2 1_555 1_555
H30_2 C56_2 1_555 1_555
H31_2 C57_2 1_555 1_555
C58_2 C48_2 1_555 1_555
C59_2 C49_2 1_555 1_555
H32_2 C58_2 1_555 1_555
H33_2 C59_2 1_555 1_555
C60_2 C18_2 1_555 1_555
C61_2 C55_2 1_555 1_555
C62_2 C60_2 1_555 1_555
C63_2 C17_2 1_555 1_555
H34_2 C63_2 1_555 1_555
H35_2 C62_2 1_555 1_555
O29_2 Pr7 1_555 1_555
O30_2 Pr7 1_555 1_555
O31_2 Pr1_2 1_555 1_555
O32_2 Pr1_2 1_555 1_555
C64_2 H36_2 1_555 1_555
C65_2 H37_2 1_555 1_555
O34_2 C67_2 1_555 1_555
O36_2 Pr7 1_555 1_555
C66_2 C72_2 1_555 1_555
C67_2 C73_2 1_555 1_555
C68_2 C22_2 1_555 1_555
C69_2 C70_2 1_555 1_555
C70_2 C68_2 1_555 1_555
C71_2 C21_2 1_555 1_555
H38_2 C71_2 1_555 1_555
H39_2 C70_2 1_555 1_555
C72_2 C64_2 1_555 1_555
C73_2 C65_2 1_555 1_555
C74_2 C72_2 1_555 1_555
C75_2 C73_2 1_555 1_555
H40_2 C74_2 1_555 1_555
H41_2 C75_2 1_555 1_555
C76_2 C64_2 1_555 1_555
C77_2 C65_2 1_555 1_555
H42_2 C76_2 1_555 1_555
H43_2 C77_2 1_555 1_555
C78_2 C69_2 1_555 1_555
C79_2 C68_2 1_555 1_555
C80_2 C74_2 1_555 1_555
C81_2 C75_2 1_555 1_555
H44_2 C80_2 1_555 1_555
H45_2 C81_2 1_555 1_555
O39 C66_2 1_555 1_555
O38_2 C67_2 1_555 1_555
O40_2 In4 1_555 1_555
Pr1_2 O11_2 1_555 1_555
O2_2 In4 1_555 1_555
O4_2 C1_2 1_555 1_555
O6_2 C10_2 1_555 1_555
C6_2 C7_2 1_555 1_555
C15_2 C16_2 1_555 1_555
C20_2 C23_2 1_555 1_555
C20_2 O10_2 1_555 1_555
C25_2 C26_2 1_555 1_555
C26_2 C27_2 1_555 1_555
In8 O12_2 1_555 1_555
In4 O12_2 1_555 1_555
C36_2 C42_2 1_555 1_555
C38_2 C40_2 1_555 1_555
C39_2 C41_2 1_555 1_555
C43_2 C44_2 1_555 1_555
C43_2 C45_2 1_555 1_555
C54_2 C60_2 1_555 1_555
C56_2 C58_2 1_555 1_555
C57_2 C59_2 1_555 1_555
C61_2 C62_2 1_555 1_555
C61_2 C63_2 1_555 1_555
C69_2 C71_2 1_555 1_555
C76_2 C78_2 1_555 1_555
C77_2 C79_2 1_555 1_555
C78_2 C80_2 1_555 1_555
C79_2 C81_2 1_555 1_555
O29_2 H46_2 1_555 1_555
O29_2 H47_2 1_555 1_555
O30_2 H50_2 1_555 1_555
O30_2 H51_2 1_555 1_555
O7_2 H54_2 1_555 1_555
O7_2 H55_2 1_555 1_555
O6_3 In1_3 1_555 1_555
C10_3 O5_3 1_555 1_555
C11_3 C10_3 1_555 1_555
C12_3 C11_3 1_555 1_555
H6_3 C12_3 1_555 1_555
C13_3 C12_3 1_555 1_555
H7_3 C13_3 1_555 1_555
C14_3 C13_3 1_555 1_555
C15_3 C14_3 1_555 1_555
H8_3 C15_3 1_555 1_555
C16_3 C11_3 1_555 1_555
H9_3 C16_3 1_555 1_555
C17_3 C14_3 1_555 1_555
C18_3 C17_3 1_555 1_555
H10_3 C18_3 1_555 1_555
C19_3 H11_3 1_555 1_555
C21_3 C22_3 1_555 1_555
C22_3 H12_3 1_555 1_555
C23_3 C19_3 1_555 1_555
C24_3 C23_3 1_555 1_555
H13_3 C24_3 1_555 1_555
C25_3 C19_3 1_555 1_555
H14_3 C25_3 1_555 1_555
C26_3 C21_3 1_555 1_555
C27_3 C24_3 1_555 1_555
H15_3 C27_3 1_555 1_555
O10_3 In1_3 1_555 1_555
In5 O37_2 1_555 1_555
Pr6 O17_2 1_555 1_555
O11_3 In1_3 1_555 1_555
O24_2 C46_3 1_555 1_555
O23 C47_3 1_555 1_555
O28_2 C46_3 1_555 1_555
O27 C47_3 1_555 1_555
C32_3 H16_3 1_555 1_555
C46_3 C48_3 1_555 1_555
C47_3 C49_3 1_555 1_555
C48_3 C50_3 1_555 1_555
C49_3 C51_3 1_555 1_555
C50_3 H26_3 1_555 1_555
C51_3 H27_3 1_555 1_555
C52_3 C50_3 1_555 1_555
C53_3 C51_3 1_555 1_555
H28_3 C52_3 1_555 1_555
H29_3 C53_3 1_555 1_555
C54_3 C52_3 1_555 1_555
C55_3 C53_3 1_555 1_555
C56_3 C54_3 1_555 1_555
C57_3 C55_3 1_555 1_555
H30_3 C56_3 1_555 1_555
H31_3 C57_3 1_555 1_555
C58_3 C48_3 1_555 1_555
C59_3 C49_3 1_555 1_555
H32_3 C58_3 1_555 1_555
H33_3 C59_3 1_555 1_555
C60_3 C18_3 1_555 1_555
C61_3 C55_3 1_555 1_555
C62_3 C60_3 1_555 1_555
C63_3 C17_3 1_555 1_555
H34_3 C63_3 1_555 1_555
H35_3 C62_3 1_555 1_555
C64_3 H36_3 1_555 1_555
C65_3 H37_3 1_555 1_555
C66_3 C72_3 1_555 1_555
C67_3 C73_3 1_555 1_555
C68_3 C22_3 1_555 1_555
C69_3 C70_3 1_555 1_555
C70_3 C68_3 1_555 1_555
C71_3 C21_3 1_555 1_555
H38_3 C71_3 1_555 1_555
H39_3 C70_3 1_555 1_555
C72_3 C64_3 1_555 1_555
C73_3 C65_3 1_555 1_555
C74_3 C72_3 1_555 1_555
C75_3 C73_3 1_555 1_555
H40_3 C74_3 1_555 1_555
H41_3 C75_3 1_555 1_555
C76_3 C64_3 1_555 1_555
C77_3 C65_3 1_555 1_555
H42_3 C76_3 1_555 1_555
H43_3 C77_3 1_555 1_555
C78_3 C69_3 1_555 1_555
C79_3 C68_3 1_555 1_555
C80_3 C74_3 1_555 1_555
C81_3 C75_3 1_555 1_555
H44_3 C80_3 1_555 1_555
H45_3 C81_3 1_555 1_555
O37_2 C66_3 1_555 1_555
O40 C67_3 1_555 1_555
O6_3 C10_3 1_555 1_555
C15_3 C16_3 1_555 1_555
C20_3 C23_3 1_555 1_555
C20_3 O10_3 1_555 1_555
C25_3 C26_3 1_555 1_555
C26_3 C27_3 1_555 1_555
C54_3 C60_3 1_555 1_555
C56_3 C58_3 1_555 1_555
C57_3 C59_3 1_555 1_555
C61_3 C62_3 1_555 1_555
C61_3 C63_3 1_555 1_555
C69_3 C71_3 1_555 1_555
C76_3 C78_3 1_555 1_555
C77_3 C79_3 1_555 1_555
C78_3 C80_3 1_555 1_555
C79_3 C81_3 1_555 1_555
Pr6 O33_2 1_555 1_555
Pr8 O1_3 1_555 1_555
O1_3 In7 1_555 1_555
O4_3 Pr8 1_555 1_555
C1_3 O3_3 1_555 1_555
C2_3 C1_3 1_555 1_555
C3_3 C2_3 1_555 1_555
H1_3 C3_3 1_555 1_555
C4_3 C3_3 1_555 1_555
H2_3 C4_3 1_555 1_555
C5_3 C4_3 1_555 1_555
C6_3 C5_3 1_555 1_555
H3_3 C6_3 1_555 1_555
C7_3 C2_3 1_555 1_555
H4_3 C7_3 1_555 1_555
C8_3 C5_3 1_555 1_555
C9_3 C8_3 1_555 1_555
H5_3 C9_3 1_555 1_555
O7_3 Pr8 1_555 1_555
O9_3 Pr8 1_555 1_555
O13_2 C28_3 1_555 1_555
O15_2 C29_3 1_555 1_555
O19_2 C29_3 1_555 1_555
O20_2 Pr8 1_555 1_555
C28_3 C30_3 1_555 1_555
C29_3 C31_3 1_555 1_555
C31_3 C33_3 1_555 1_555
C33_3 H17_3 1_555 1_555
C35_3 C33_3 1_555 1_555
H19_3 C35_3 1_555 1_555
C36_3 C34_3 1_555 1_555
C37_3 C35_3 1_555 1_555
C38_3 C36_3 1_555 1_555
C39_3 C37_3 1_555 1_555
H20_3 C38_3 1_555 1_555
H21_3 C39_3 1_555 1_555
C40_3 C30_3 1_555 1_555
C41_3 C31_3 1_555 1_555
H22_3 C40_3 1_555 1_555
H23_3 C41_3 1_555 1_555
C42_3 C9_3 1_555 1_555
C43_3 C37_3 1_555 1_555
C44_3 C42_3 1_555 1_555
C45_3 C8_3 1_555 1_555
H24_3 C45_3 1_555 1_555
H25_3 C44_3 1_555 1_555
O29_3 Pr8 1_555 1_555
O30_3 Pr8 1_555 1_555
O35_2 Pr8 1_555 1_555
O39_2 In7 1_555 1_555
O4_3 C1_3 1_555 1_555
C6_3 C7_3 1_555 1_555
C36_3 C42_3 1_555 1_555
C38_3 C40_3 1_555 1_555
C39_3 C41_3 1_555 1_555
C43_3 C44_3 1_555 1_555
C43_3 C45_3 1_555 1_555
O29_3 H46_3 1_555 1_555
O29_3 H47_3 1_555 1_555
O30_3 H50_3 1_555 1_555
O30_3 H51_3 1_555 1_555
O7_3 H54_3 1_555 1_555
O7_3 H55_3 1_555 1_555
Pr4 O2_3 1_555 1_555
O8_3 Pr4 1_555 1_555
O31_3 Pr4 1_555 1_555
O32_3 Pr4 1_555 1_555
In9 O12_3 1_555 1_555
C1_4 O3_4 1_555 1_555
C2_4 C1_4 1_555 1_555
C5_4 C4_4 1_555 1_555
C6_4 C5_4 1_555 1_555
H3_4 C6_4 1_555 1_555
C7_4 C2_4 1_555 1_555
H4_4 C7_4 1_555 1_555
C8_4 C5_4 1_555 1_555
C9_4 C8_4 1_555 1_555
H5_4 C9_4 1_555 1_555
O16_2 C28_4 1_555 1_555
O15 C29_4 1_555 1_555
C28_4 C30_4 1_555 1_555
C29_4 C31_4 1_555 1_555
C36_4 C34_4 1_555 1_555
C37_4 C35_4 1_555 1_555
C38_4 C36_4 1_555 1_555
C39_4 C37_4 1_555 1_555
H20_4 C38_4 1_555 1_555
H21_4 C39_4 1_555 1_555
C40_4 C30_4 1_555 1_555
C41_4 C31_4 1_555 1_555
H22_4 C40_4 1_555 1_555
H23_4 C41_4 1_555 1_555
C42_4 C9_4 1_555 1_555
C43_4 C37_4 1_555 1_555
C44_4 C42_4 1_555 1_555
C45_4 C8_4 1_555 1_555
H24_4 C45_4 1_555 1_555
H25_4 C44_4 1_555 1_555
C6_4 C7_4 1_555 1_555
In5 O12_4 1_555 1_555
C36_4 C42_4 1_555 1_555
C38_4 C40_4 1_555 1_555
C39_4 C41_4 1_555 1_555
C43_4 C44_4 1_555 1_555
C43_4 C45_4 1_555 1_555
Pr6 O1_4 1_555 1_555
O4_4 Pr6 1_555 1_555
H1_4 C3_4 1_555 1_555
O7_4 Pr6 1_555 1_555
O9_4 Pr6 1_555 1_555
In6 O1_4 1_555 1_555
O29_4 Pr6 1_555 1_555
O30_4 Pr6 1_555 1_555
O29_4 H46_4 1_555 1_555
O29_4 H47_4 1_555 1_555
O30_4 H50_4 1_555 1_555
O30_4 H51_4 1_555 1_555
O7_4 H54_4 1_555 1_555
O7_4 H55_4 1_555 1_555
O5_4 Pr3 1_555 1_555
C10_4 O5_4 1_555 1_555
C11_4 C10_4 1_555 1_555
C12_4 C11_4 1_555 1_555
H6_4 C12_4 1_555 1_555
C13_4 C12_4 1_555 1_555
H7_4 C13_4 1_555 1_555
C14_4 C13_4 1_555 1_555
C15_4 C14_4 1_555 1_555
H8_4 C15_4 1_555 1_555
C16_4 C11_4 1_555 1_555
H9_4 C16_4 1_555 1_555
C17_4 C14_4 1_555 1_555
C18_4 C17_4 1_555 1_555
H10_4 C18_4 1_555 1_555
O8_4 Pr3 1_555 1_555
O24 C46_4 1_555 1_555
O23_2 C47_4 1_555 1_555
O28 C46_4 1_555 1_555
O27_2 C47_4 1_555 1_555
C32_4 H16_4 1_555 1_555
C46_4 C48_4 1_555 1_555
C47_4 C49_4 1_555 1_555
C48_4 C50_4 1_555 1_555
C49_4 C51_4 1_555 1_555
C50_4 H26_4 1_555 1_555
C51_4 H27_4 1_555 1_555
C52_4 C50_4 1_555 1_555
C53_4 C51_4 1_555 1_555
H28_4 C52_4 1_555 1_555
H29_4 C53_4 1_555 1_555
C54_4 C52_4 1_555 1_555
C55_4 C53_4 1_555 1_555
C56_4 C54_4 1_555 1_555
C57_4 C55_4 1_555 1_555
H30_4 C56_4 1_555 1_555
H31_4 C57_4 1_555 1_555
C58_4 C48_4 1_555 1_555
C59_4 C49_4 1_555 1_555
H32_4 C58_4 1_555 1_555
H33_4 C59_4 1_555 1_555
C60_4 C18_4 1_555 1_555
C61_4 C55_4 1_555 1_555
C62_4 C60_4 1_555 1_555
C63_4 C17_4 1_555 1_555
H34_4 C63_4 1_555 1_555
H35_4 C62_4 1_555 1_555
O31_4 Pr3 1_555 1_555
O32_4 Pr3 1_555 1_555
Pr3 O11_4 1_555 1_555
O6_4 C10_4 1_555 1_555
C15_4 C16_4 1_555 1_555
C54_4 C60_4 1_555 1_555
C56_4 C58_4 1_555 1_555
C57_4 C59_4 1_555 1_555
C61_4 C62_4 1_555 1_555
C61_4 C63_4 1_555 1_555
O2_4 In1_4 1_555 1_555
C19_4 H11_4 1_555 1_555
C21_4 C22_4 1_555 1_555
C22_4 H12_4 1_555 1_555
C23_4 C19_4 1_555 1_555
C24_4 C23_4 1_555 1_555
H13_4 C24_4 1_555 1_555
C25_4 C19_4 1_555 1_555
H14_4 C25_4 1_555 1_555
C26_4 C21_4 1_555 1_555
C27_4 C24_4 1_555 1_555
H15_4 C27_4 1_555 1_555
O10_4 In1_4 1_555 1_555
C64_4 H36_4 1_555 1_555
C65_4 H37_4 1_555 1_555
O35_2 C66_4 1_555 1_555
O36_2 C67_4 1_555 1_555
C66_4 C72_4 1_555 1_555
C67_4 C73_4 1_555 1_555
C68_4 C22_4 1_555 1_555
C69_4 C70_4 1_555 1_555
C70_4 C68_4 1_555 1_555
C71_4 C21_4 1_555 1_555
H38_4 C71_4 1_555 1_555
H39_4 C70_4 1_555 1_555
C72_4 C64_4 1_555 1_555
C73_4 C65_4 1_555 1_555
C74_4 C72_4 1_555 1_555
C75_4 C73_4 1_555 1_555
H40_4 C74_4 1_555 1_555
H41_4 C75_4 1_555 1_555
C76_4 C64_4 1_555 1_555
C77_4 C65_4 1_555 1_555
H42_4 C76_4 1_555 1_555
H43_4 C77_4 1_555 1_555
C78_4 C69_4 1_555 1_555
C79_4 C68_4 1_555 1_555
C80_4 C74_4 1_555 1_555
C81_4 C75_4 1_555 1_555
H44_4 C80_4 1_555 1_555
H45_4 C81_4 1_555 1_555
O39_2 C66_4 1_555 1_555
O40_2 C67_4 1_555 1_555
C20_4 C23_4 1_555 1_555
C20_4 O10_4 1_555 1_555
C25_4 C26_4 1_555 1_555
C26_4 C27_4 1_555 1_555
C69_4 C71_4 1_555 1_555
C76_4 C78_4 1_555 1_555
C77_4 C79_4 1_555 1_555
C78_4 C80_4 1_555 1_555
C79_4 C81_4 1_555 1_555
C33_4 H17_4 1_555 1_555

#END
