
###############################################################################
#
# This file contains modified crystal structure data generated from the
# MOF subset of the Cambridge Structural Database (CSD) v543 
# hosted by the Cambridge Crystallographic Data Centre (CCDC).
#
# This work is licensed under the Creative Commons
# Attribution-NonCommercial-ShareAlike 4.0 International License.
# To view a copy of this license, visit
# http://creativecommons.org/licenses/by-nc-sa/4.0/
# or send a letter to
# Creative Commons, PO Box 1866, Mountain View, CA 94042, USA.
#
# CIF created using the CSD Python API on 29 September 2022
# The structure has been converted into the P1 space group
# The structure has a 3D framework
# The original CSD entry WAVRIW is in the rhombohedral crystal system
# The framework has been calculated to contain at least 10.0% void space
# The void calculation uses a probe of radius 1.32A, grid spacing 0.4
# H atom positions have been added when not included in the experimental data
#
###############################################################################

data_WAVRIW
_chemical_formula_moiety         '(C648 H396 Cu16 In18 O167)n'
_symmetry_cell_setting           triclinic
_symmetry_space_group_name_H-M   'P 1'
_symmetry_Int_Tables_number      1
_space_group_name_Hall           'P 1'
loop_
_symmetry_equiv_pos_site_id
_symmetry_equiv_pos_as_xyz
1 x,y,z
_cell_length_a                   36.218(14)
_cell_length_b                   36.218(14)
_cell_length_c                   23.612(19)
_cell_angle_alpha                90
_cell_angle_beta                 90
_cell_angle_gamma                120
_cell_volume                     26823.3
loop_
_atom_site_label
_atom_site_type_symbol
_atom_site_fract_x
_atom_site_fract_y
_atom_site_fract_z
O6 O 0.0912(3) 0.3236(3) 0.7875(4)
O8 O 0.0650(3) 0.2731(4) 0.8532(4)
C10 C 0.0607(10) 0.2879(6) 0.8089(15)
C11 C 0.0218(6) 0.2654(6) 0.7749(8)
C12 C 0.0197(7) 0.2704(7) 0.7221(9)
H6 H 0.0436 0.2910 0.7029
In4 In 0.09542(4) 0.30104(3) 0.92682(3)
Cu4 Cu 0.15765(8) 0.36808(5) 0.82099(7)
O7 O 0.8443(4) 0.1470(4) 0.3235(4)
O9 O 0.8720(3) 0.2164(3) 0.3388(3)
C13 C 0.9815(8) 0.2450(8) 0.6925(10)
H7 H 0.9788 0.2536 0.6564
C14 C 0.9549(8) 0.2076(8) 0.7664(12)
H8 H 0.9339 0.1833 0.7843
C15 C 0.9485(4) 0.2090(4) 0.7135(5)
C16 C 0.9854(4) 0.2338(6) 0.8005(6)
C17 C 0.9098(5) 0.1778(5) 0.6828(5)
C18 C 0.9056(5) 0.1835(5) 0.6261(6)
H9 H 0.9273 0.2071 0.6078
C19 C 0.8692(4) 0.1546(5) 0.5948(5)
C20 C 0.8392(5) 0.1191(5) 0.6235(5)
H10 H 0.8148 0.0995 0.6040
C21 C 0.8430(5) 0.1112(5) 0.6775(5)
C22 C 0.8786(5) 0.1423(5) 0.7075(5)
H11 H 0.8807 0.1382 0.7460
C23 C 0.8632(6) 0.1607(5) 0.5326(6)
C24 C 0.8796(5) 0.2024(5) 0.5115(5)
H12 H 0.8917 0.2261 0.5350
C25 C 0.8765(5) 0.2057(5) 0.4525(6)
H13 H 0.8879 0.2329 0.4373
C26 C 0.8584(5) 0.1727(5) 0.4169(6)
C27 C 0.8429(5) 0.1336(5) 0.4405(6)
H14 H 0.8300 0.1101 0.4167
C28 C 0.8450(5) 0.1264(5) 0.4969(6)
H15 H 0.8344 0.0989 0.5107
C29 C 0.8602(6) 0.1789(6) 0.3542(5)
C30 C 0.8117(4) 0.0712(5) 0.7049(5)
C31 C 0.7681(4) 0.0526(5) 0.6915(5)
H16 H 0.7591 0.0666 0.6671
C32 C 0.7394(5) 0.0146(5) 0.7137(6)
H17 H 0.7108 0.0027 0.7041
C34 C 0.7951(5) 0.0099(6) 0.7663(6)
C35 C 0.8257(4) 0.0497(5) 0.7440(5)
H19 H 0.8543 0.0621 0.7542
In5 In 0.87228(3) 0.23791(4) 0.26015(3)
In9 In 0.79439(3) 0.09542(4) 0.07318(3)
Cu7 Cu 0.78958(6) 0.15765(8) 0.17901(7)
O28 O 0.7676(4) 0.0912(3) 0.2125(4)
O34 O 0.7919(5) 0.0650(3) 0.1468(4)
C56 C 0.7728(12) 0.0607(10) 0.1911(15)
C58 C 0.7564(8) 0.0218(6) 0.2251(8)
C60 C 0.7493(10) 0.0197(7) 0.2779(9)
H31 H 0.7526 0.0436 0.2971
H60 H 0.982181 0.230787 0.846372
In1 In 0.63437(3) 0.87228(3) 0.73985(3)
Cu1 Cu 0.70141(5) 0.87709(6) 0.84568(7)
O1 O 0.66552(18) 0.8418(2) 0.7798(2)
O2 O 0.5783(2) 0.7696(3) 0.7846(4)
O3 O 0.5793(2) 0.8163(3) 0.7225(3)
O4 O 0.6850(3) 0.9330(3) 0.7521(5)
O5 O 0.7332(3) 0.9297(4) 0.8033(4)
C1 C 0.5625(4) 0.7814(4) 0.7517(6)
C2 C 0.5130(4) 0.7552(4) 0.7455(5)
C3 C 0.4922(4) 0.7191(4) 0.7743(5)
H1 H 0.5072 0.7094 0.7958
C4 C 0.4478(4) 0.6957(4) 0.7721(5)
H2 H 0.4331 0.6696 0.7907
C5 C 0.4258(3) 0.7114(3) 0.7424(5)
C6 C 0.4483(4) 0.7478(4) 0.7111(5)
H3 H 0.4338 0.7575 0.6885
C7 C 0.4916(4) 0.7699(3) 0.7130(4)
H4 H 0.5067 0.7949 0.6923
C8 C 0.3784(4) 0.6884(4) 0.7419(4)
C9 C 0.3557(5) 0.7091(3) 0.7426(5)
H5 H 0.3712 0.7387 0.7436
C33 C 0.7524(5) 0.9917(6) 0.7529(6)
H18 H 0.8039 0.9955 0.7905
C36 C 0.7218(5) 0.9490(6) 0.7707(7)
O10 O 0.6018(3) 0.9056(4) 0.7019(5)
In2 In 0.12772(3) 0.76209(4) 0.73985(3)
In3 In 0.23791(4) 0.36563(3) 0.73985(3)
In6 In 0.20561(3) 0.90458(4) 0.92682(3)
In8 In 0.76209(4) 0.63437(3) 0.26015(3)
In10 In 0.69896(3) 0.79439(3) 0.92682(3)
Cu2 Cu 0.63192(5) 0.78958(6) 0.82099(7)
Cu3 Cu 0.21042(6) 0.84235(8) 0.82099(7)
Cu6 Cu 0.82432(8) 0.70141(5) 0.15432(7)
Cu8 Cu 0.12291(6) 0.82432(8) 0.84568(7)
O11 O 0.66781(18) 0.8249(2) 0.8869(2)
O12 O 0.1582(2) 0.82372(27) 0.7798(2)
O13 O 0.17628(27) 0.33448(18) 0.7798(2)
O14 O 0.1751(2) 0.84295(27) 0.8869(2)
O15 O 0.2304(3) 0.8087(4) 0.7846(4)
O16 O 0.1913(4) 0.4217(2) 0.7846(4)
O17 O 0.7550(2) 0.8971(3) 0.8821(4)
O18 O 0.1837(3) 0.7630(4) 0.7225(3)
O19 O 0.2370(4) 0.4207(2) 0.7225(3)
O20 O 0.2663(3) 0.9147(4) 0.9146(5)
O21 O 0.7520(4) 0.6850(3) 0.2479(5)
O22 O 0.0670(3) 0.7520(4) 0.7521(5)
O23 O 0.2480(4) 0.3150(3) 0.7521(5)
O24 O 0.2630(4) 0.8632(5) 0.8634(4)
O25 O 0.8035(5) 0.7332(3) 0.1967(4)
O26 O 0.6001(3) 0.7370(4) 0.8634(4)
O27 O 0.6569(3) 0.8991(4) 0.8792(4)
O29 O 0.6764(3) 0.7676(4) 0.7875(4)
O30 O 0.2324(4) 0.9088(3) 0.7875(4)
O32 O 0.6973(6) 0.8443(4) 0.6765(4)
O33 O 0.6064(4) 0.8748(5) 0.8135(4)
O35 O 0.1252(5) 0.7317(3) 0.8135(4)
O36 O 0.2683(3) 0.3936(4) 0.8135(4)
O38 O 0.6556(4) 0.8720(3) 0.6612(3)
O39 O 0.1280(3) 0.7836(3) 0.6612(3)
O40 O 0.2164(3) 0.3444(4) 0.6612(3)
C37 C 0.2186(4) 0.7811(6) 0.7517(6)
C38 C 0.2189(6) 0.4375(4) 0.7517(6)
C39 C 0.2448(4) 0.7578(6) 0.7455(5)
C40 C 0.2422(6) 0.4870(4) 0.7455(5)
C41 C 0.2809(4) 0.7731(6) 0.7743(5)
C42 C 0.2269(6) 0.5078(4) 0.7743(5)
H20 H 0.2906 0.7978 0.7958
H21 H 0.2022 0.4928 0.7958
C43 C 0.3043(4) 0.7521(6) 0.7721(5)
C44 C 0.2479(6) 0.5522(4) 0.7721(5)
H22 H 0.3304 0.7635 0.7907
H23 H 0.2365 0.5669 0.7907
C45 C 0.2886(3) 0.7144(4) 0.7424(5)
C46 C 0.2856(4) 0.5742(3) 0.7424(5)
C47 C 0.2522(4) 0.7005(6) 0.7111(5)
C48 C 0.2995(6) 0.5517(4) 0.7111(5)
H24 H 0.2425 0.6763 0.6885
H25 H 0.3237 0.5662 0.6885
C49 C 0.2301(3) 0.7217(5) 0.7130(4)
C50 C 0.2783(5) 0.5084(4) 0.7130(4)
H26 H 0.2051 0.7118 0.6923
H27 H 0.2882 0.4933 0.6923
C51 C 0.3116(4) 0.6900(6) 0.7419(4)
C52 C 0.3100(6) 0.6216(4) 0.7419(4)
C53 C 0.2909(3) 0.6466(6) 0.7426(5)
C54 C 0.3534(6) 0.6443(5) 0.7426(5)
H28 H 0.3675 0.6288 0.7436
H29 H 0.2613 0.6325 0.7436
C55 C 0.6212(6) 0.8939(12) 0.8578(15)
C57 C 0.5987(6) 0.9103(8) 0.8918(8)
C59 C 0.6037(7) 0.9174(10) 0.9446(9)
H30 H 0.6243 0.9141 0.9638
C61 C 0.5783(8) 0.9302(11) 0.9742(10)
C62 C 0.7365(11) 0.9815(8) 0.3075(10)
H33 H 0.7252 0.9788 0.3436
C63 C 0.5409(8) 0.9194(11) 0.9003(12)
C64 C 0.7473(11) 0.9549(8) 0.2336(12)
H34 H 0.5166 0.9161 0.8824
H35 H 0.7506 0.9339 0.2157
C65 C 0.5423(4) 0.9272(6) 0.9532(5)
C66 C 0.7395(6) 0.9485(4) 0.2865(5)
C67 C 0.5671(6) 0.9151(7) 0.8662(6)
C68 C 0.7516(7) 0.9854(4) 0.1995(6)
C69 C 0.5111(5) 0.9347(7) 0.9839(5)
C70 C 0.7320(7) 0.9098(5) 0.3172(5)
C72 C 0.7221(7) 0.9056(5) 0.3739(6)
H37 H 0.7202 0.9273 0.3922
C74 C 0.7146(6) 0.8692(4) 0.4052(5)
C76 C 0.7201(7) 0.8392(5) 0.3765(5)
H39 H 0.7153 0.8148 0.3960
C77 C 0.4445(5) 0.9349(7) 0.9892(5)
C78 C 0.7318(7) 0.8430(5) 0.3225(5)
C79 C 0.4756(5) 0.9304(7) 0.9592(5)
C80 C 0.7363(7) 0.8786(5) 0.2925(5)
H40 H 0.4715 0.9242 0.9207
H41 H 0.7425 0.8807 0.2540
C82 C 0.7025(8) 0.8632(6) 0.4674(6)
C84 C 0.6772(7) 0.8796(5) 0.4885(5)
H43 H 0.6656 0.8917 0.4650
C86 C 0.6708(7) 0.8765(5) 0.5475(6)
H45 H 0.6550 0.8879 0.5627
C88 C 0.6857(7) 0.8584(5) 0.5831(6)
C90 C 0.7093(7) 0.8429(5) 0.5595(6)
H47 H 0.7199 0.8300 0.5833
C92 C 0.7186(7) 0.8450(5) 0.5031(6)
H49 H 0.7355 0.8344 0.4893
C94 C 0.6813(8) 0.8602(6) 0.6458(5)
C95 C 0.4045(5) 0.9262(6) 0.9618(5)
C96 C 0.7405(6) 0.8117(4) 0.2951(5)
C97 C 0.3859(5) 0.9512(6) 0.9752(5)
C98 C 0.7155(6) 0.7681(4) 0.3085(5)
H50 H 0.3999 0.9742 0.9996
H51 H 0.6925 0.7591 0.3329
C99 C 0.3479(5) 0.9419(7) 0.9530(6)
C100 C 0.7248(7) 0.7394(5) 0.2863(6)
H52 H 0.3360 0.9586 0.9626
H53 H 0.7081 0.7108 0.2959
C101 C 0.3250(6) 0.9060(8) 0.9138(6)
C102 C 0.7607(8) 0.7524(5) 0.2471(6)
C103 C 0.3432(6) 0.8815(8) 0.9004(6)
C104 C 0.7852(8) 0.7951(5) 0.2337(6)
H54 H 0.3288 0.8583 0.8762
H55 H 0.8084 0.8039 0.2095
C105 C 0.3830(5) 0.8907(6) 0.9227(5)
C106 C 0.7760(6) 0.8257(4) 0.2560(5)
H56 H 0.3954 0.8745 0.9125
H57 H 0.7922 0.8543 0.2458
C107 C 0.2823(6) 0.8939(8) 0.8960(7)
C108 C 0.7728(8) 0.7218(5) 0.2293(7)
O41 O 0.0944(4) 0.6962(5) 0.7019(5)
O42 O 0.3038(5) 0.3982(3) 0.7019(5)
H58 H 0.620433 0.936913 0.70609
H59 H 0.596234 0.898266 0.661093
H61 H 0.751394 0.982181 0.153628
H62 H 0.564121 0.915273 0.820295
H63 H 0.316481 0.379567 0.70609
H64 H 0.302032 0.403766 0.661093
H65 H 0.0630868 0.683519 0.70609
H66 H 0.101734 0.697968 0.661093
In8_2 In 0.36563(3) 0.12772(5) 0.26015(3)
Cu6_2 Cu 0.29859(5) 0.12291(9) 0.15432(7)
O21_2 O 0.3150(3) 0.0670(5) 0.2479(5)
O25_2 O 0.2668(3) 0.0703(6) 0.1967(4)
C102_2 C 0.2476(5) 0.0083(9) 0.2471(6)
H55_2 H 0.1961 0.0045 0.2095
C108_2 C 0.2782(5) 0.0510(9) 0.2293(7)
O5_2 O 0.0703(4) 0.8035(5) 0.8033(4)
C33_2 C 0.0083(6) 0.7607(8) 0.7529(6)
H18_2 H 0.0045 0.8084 0.7905
C36_2 C 0.0510(6) 0.7728(8) 0.7707(7)
Cu8_2 Cu 0.17568(8) 0.29859(10) 0.84568(7)
O14_2 O 0.15705(27) 0.33219(34) 0.8869(2)
O17_2 O 0.1029(3) 0.8580(4) 0.8821(4)
O20_2 O 0.0853(4) 0.3517(5) 0.9146(5)
O24_2 O 0.1368(5) 0.3999(6) 0.8634(4)
O27_2 O 0.1009(4) 0.7579(5) 0.8792(4)
O32_2 O 0.1557(4) 0.8530(7) 0.6765(4)
C55_2 C 0.1061(12) 0.7274(13) 0.8578(15)
C57_2 C 0.0897(8) 0.6885(10) 0.8918(8)
C59_2 C 0.0826(10) 0.6864(12) 0.9446(9)
H30_2 H 0.0859 0.7103 0.9638
C61_2 C 0.0698(11) 0.6482(14) 0.9742(10)
C62_2 C 0.0185(8) 0.7550(14) 0.3075(10)
H33_2 H 0.0212 0.7464 0.3436
C63_2 C 0.0806(11) 0.6216(14) 0.9003(12)
C64_2 C 0.0451(8) 0.7924(14) 0.2336(12)
H34_2 H 0.0839 0.6006 0.8824
H35_2 H 0.0661 0.8167 0.2157
C65_2 C 0.0728(6) 0.6152(7) 0.9532(5)
C66_2 C 0.0515(4) 0.7910(7) 0.2865(5)
C67_2 C 0.0849(7) 0.6521(9) 0.8662(6)
C68_2 C 0.0146(4) 0.7662(8) 0.1995(6)
C69_2 C 0.0653(7) 0.5765(9) 0.9839(5)
C70_2 C 0.0902(5) 0.8222(9) 0.3172(5)
C72_2 C 0.0944(5) 0.8165(9) 0.3739(6)
H37_2 H 0.0727 0.7929 0.3922
C74_2 C 0.1308(4) 0.8454(7) 0.4052(5)
C76_2 C 0.1608(5) 0.8809(9) 0.3765(5)
H39_2 H 0.1852 0.9005 0.3960
C77_2 C 0.0651(7) 0.5097(9) 0.9892(5)
C78_2 C 0.1570(5) 0.8888(9) 0.3225(5)
C79_2 C 0.0696(7) 0.5453(9) 0.9592(5)
C80_2 C 0.1214(5) 0.8577(9) 0.2925(5)
H40_2 H 0.0758 0.5474 0.9207
H41_2 H 0.1193 0.8618 0.2540
C82_2 C 0.1368(6) 0.8393(10) 0.4674(6)
C84_2 C 0.1204(5) 0.7976(9) 0.4885(5)
H43_2 H 0.1083 0.7739 0.4650
C86_2 C 0.1235(5) 0.7943(9) 0.5475(6)
H45_2 H 0.1121 0.7671 0.5627
C88_2 C 0.1416(5) 0.8273(9) 0.5831(6)
C90_2 C 0.1571(5) 0.8664(9) 0.5595(6)
H47_2 H 0.1700 0.8899 0.5833
C92_2 C 0.1550(5) 0.8736(9) 0.5031(6)
H49_2 H 0.1656 0.9011 0.4893
C94_2 C 0.1398(6) 0.8211(10) 0.6458(5)
C95_2 C 0.0738(6) 0.4784(8) 0.9618(5)
C96_2 C 0.1883(4) 0.9288(7) 0.2951(5)
C97_2 C 0.0488(6) 0.4348(8) 0.9752(5)
C98_2 C 0.2319(4) 0.9474(7) 0.3085(5)
H50_2 H 0.0258 0.4258 0.9996
H51_2 H 0.2409 0.9334 0.3329
C99_2 C 0.0581(7) 0.4061(9) 0.9530(6)
C100_2 C 0.2606(5) 0.9854(9) 0.2863(6)
H52_2 H 0.0414 0.3775 0.9626
H53_2 H 0.2892 0.9973 0.2959
C101_2 C 0.0940(8) 0.4191(10) 0.9138(6)
C103_2 C 0.1185(8) 0.4618(10) 0.9004(6)
C104_2 C 0.2049(5) 0.9901(9) 0.2337(6)
H54_2 H 0.1417 0.4706 0.8762
C105_2 C 0.1093(6) 0.4924(8) 0.9227(5)
C106_2 C 0.1743(4) 0.9503(7) 0.2560(5)
H56_2 H 0.1255 0.5210 0.9125
H57_2 H 0.1457 0.9379 0.2458
C107_2 C 0.1061(8) 0.3885(10) 0.8960(7)
H61_2 H 0.0178188 0.769213 0.153628
H62_2 H 0.0847271 0.648848 0.820295
O7_2 O 0.8530(4) 0.6973(6) 0.3235(4)
O8_2 O 0.7269(4) 0.7919(5) 0.8532(4)
O9_2 O 0.7836(3) 0.6556(4) 0.3388(3)
C10_2 C 0.7121(6) 0.7728(12) 0.8089(15)
C11_2 C 0.7346(6) 0.7564(8) 0.7749(8)
C12_2 C 0.7296(7) 0.7493(10) 0.7221(9)
H6_2 H 0.7090 0.7526 0.7029
C13_2 C 0.7550(8) 0.7365(11) 0.6925(10)
H7_2 H 0.7464 0.7252 0.6564
C14_2 C 0.7924(8) 0.7473(11) 0.7664(12)
H8_2 H 0.8167 0.7506 0.7843
C15_2 C 0.7910(4) 0.7395(6) 0.7135(5)
C16_2 C 0.7662(6) 0.7516(7) 0.8005(6)
C17_2 C 0.8222(5) 0.7320(7) 0.6828(5)
C18_2 C 0.8165(5) 0.7221(7) 0.6261(6)
H9_2 H 0.7929 0.7202 0.6078
C19_2 C 0.8454(5) 0.7146(6) 0.5948(5)
C20_2 C 0.8809(5) 0.7201(7) 0.6235(5)
H10_2 H 0.9005 0.7153 0.6040
C21_2 C 0.8888(5) 0.7318(7) 0.6775(5)
C22_2 C 0.8577(5) 0.7363(7) 0.7075(5)
H11_2 H 0.8618 0.7425 0.7460
C23_2 C 0.8393(5) 0.7025(8) 0.5326(6)
C24_2 C 0.7976(5) 0.6772(7) 0.5115(5)
H12_2 H 0.7739 0.6656 0.5350
C25_2 C 0.7943(5) 0.6708(7) 0.4525(6)
H13_2 H 0.7671 0.6550 0.4373
C26_2 C 0.8273(5) 0.6857(7) 0.4169(6)
C27_2 C 0.8664(5) 0.7093(7) 0.4405(6)
H14_2 H 0.8899 0.7199 0.4167
C28_2 C 0.8736(5) 0.7186(7) 0.4969(6)
H15_2 H 0.9011 0.7355 0.5107
C29_2 C 0.8211(6) 0.6813(8) 0.3542(5)
C30_2 C 0.9288(5) 0.7405(6) 0.7049(5)
C31_2 C 0.9474(5) 0.7155(6) 0.6915(5)
H16_2 H 0.9334 0.6925 0.6671
C32_2 C 0.9854(5) 0.7248(7) 0.7137(6)
H17_2 H 0.9973 0.7081 0.7041
C34_2 C 0.9901(6) 0.7852(8) 0.7663(6)
C35_2 C 0.9503(5) 0.7760(6) 0.7440(5)
H19_2 H 0.9379 0.7922 0.7542
In9_2 In 0.90458(4) 0.69896(5) 0.07318(3)
Cu7_2 Cu 0.84235(8) 0.63192(10) 0.17901(7)
O28_2 O 0.9088(3) 0.6764(5) 0.2125(4)
O34_2 O 0.9350(3) 0.7269(6) 0.1468(4)
C56_2 C 0.9393(10) 0.7121(16) 0.1911(15)
C58_2 C 0.9782(6) 0.7346(10) 0.2251(8)
C60_2 C 0.9803(7) 0.7296(12) 0.2779(9)
H31_2 H 0.9564 0.7090 0.2971
H60_2 H 0.769213 0.751394 0.846372
O5_3 O 0.1965(5) 0.2668(3) 0.8033(4)
O7_3 O 0.3027(6) 0.1557(4) 0.3235(4)
O9_3 O 0.3444(4) 0.1280(3) 0.3388(3)
C13_3 C 0.2635(11) 0.0185(8) 0.6925(10)
H7_3 H 0.2748 0.0212 0.6564
C14_3 C 0.2527(11) 0.0451(8) 0.7664(12)
H8_3 H 0.2494 0.0661 0.7843
C15_3 C 0.2605(6) 0.0515(4) 0.7135(5)
C16_3 C 0.2484(7) 0.0146(4) 0.8005(6)
C17_3 C 0.2680(7) 0.0902(5) 0.6828(5)
C18_3 C 0.2779(7) 0.0944(5) 0.6261(6)
H9_3 H 0.2798 0.0727 0.6078
C19_3 C 0.2854(6) 0.1308(4) 0.5948(5)
C20_3 C 0.2799(7) 0.1608(5) 0.6235(5)
H10_3 H 0.2847 0.1852 0.6040
C21_3 C 0.2682(7) 0.1570(5) 0.6775(5)
C22_3 C 0.2637(7) 0.1214(5) 0.7075(5)
H11_3 H 0.2575 0.1193 0.7460
C23_3 C 0.2975(8) 0.1368(6) 0.5326(6)
C24_3 C 0.3228(7) 0.1204(5) 0.5115(5)
H12_3 H 0.3344 0.1083 0.5350
C25_3 C 0.3292(7) 0.1235(5) 0.4525(6)
H13_3 H 0.3450 0.1121 0.4373
C26_3 C 0.3143(7) 0.1416(5) 0.4169(6)
C27_3 C 0.2907(7) 0.1571(5) 0.4405(6)
H14_3 H 0.2801 0.1700 0.4167
C28_3 C 0.2814(7) 0.1550(5) 0.4969(6)
H15_3 H 0.2645 0.1656 0.5107
C29_3 C 0.3187(8) 0.1398(6) 0.3542(5)
C30_3 C 0.2595(6) 0.1883(4) 0.7049(5)
C31_3 C 0.2845(6) 0.2319(4) 0.6915(5)
H16_3 H 0.3075 0.2409 0.6671
C32_3 C 0.2752(7) 0.2606(5) 0.7137(6)
H17_3 H 0.2919 0.2892 0.7041
C33_3 C 0.2393(8) 0.2476(5) 0.7529(6)
C34_3 C 0.2148(8) 0.2049(5) 0.7663(6)
H18_3 H 0.1916 0.1961 0.7905
C35_3 C 0.2240(6) 0.1743(4) 0.7440(5)
H19_3 H 0.2078 0.1457 0.7542
C36_3 C 0.2272(8) 0.2782(5) 0.7707(7)
In9_3 In 0.30104(5) 0.20561(3) 0.07318(3)
Cu7_3 Cu 0.36808(10) 0.21042(6) 0.17901(7)
O17_3 O 0.1420(4) 0.2450(2) 0.8821(4)
O20_3 O 0.6483(5) 0.7337(3) 0.9146(5)
O27_3 O 0.2421(5) 0.3431(3) 0.8792(4)
O28_3 O 0.3236(5) 0.2324(4) 0.2125(4)
O32_3 O 0.1470(7) 0.3027(6) 0.6765(4)
O34_3 O 0.2731(6) 0.2081(5) 0.1468(4)
C55_3 C 0.2726(13) 0.3788(6) 0.8578(15)
C56_3 C 0.2879(16) 0.2272(12) 0.1911(15)
C57_3 C 0.3115(10) 0.4013(6) 0.8918(8)
C58_3 C 0.2654(10) 0.2436(8) 0.2251(8)
C59_3 C 0.3136(12) 0.3963(7) 0.9446(9)
C60_3 C 0.2704(12) 0.2507(10) 0.2779(9)
H30_3 H 0.2897 0.3757 0.9638
H31_3 H 0.2910 0.2474 0.2971
C61_3 C 0.3518(14) 0.4217(8) 0.9742(10)
C62_3 C 0.2450(14) 0.2635(11) 0.3075(10)
H33_3 H 0.2536 0.2748 0.3436
C63_3 C 0.3784(14) 0.4591(8) 0.9003(12)
C64_3 C 0.2076(14) 0.2527(11) 0.2336(12)
H34_3 H 0.3994 0.4834 0.8824
H35_3 H 0.1833 0.2494 0.2157
C65_3 C 0.3848(7) 0.4577(4) 0.9532(5)
C66_3 C 0.2090(7) 0.2605(6) 0.2865(5)
C67_3 C 0.3479(9) 0.4329(6) 0.8662(6)
C68_3 C 0.2338(8) 0.2484(7) 0.1995(6)
C69_3 C 0.4235(9) 0.4889(5) 0.9839(5)
C70_3 C 0.1778(9) 0.2680(7) 0.3172(5)
C72_3 C 0.1835(9) 0.2779(7) 0.3739(6)
H37_3 H 0.2071 0.2798 0.3922
C74_3 C 0.1546(7) 0.2854(6) 0.4052(5)
C76_3 C 0.1191(9) 0.2799(7) 0.3765(5)
H39_3 H 0.0995 0.2847 0.3960
C77_3 C 0.4903(9) 0.5555(5) 0.9892(5)
C78_3 C 0.1112(9) 0.2682(7) 0.3225(5)
C79_3 C 0.4547(9) 0.5244(5) 0.9592(5)
C80_3 C 0.1423(9) 0.2637(7) 0.2925(5)
H40_3 H 0.4526 0.5285 0.9207
H41_3 H 0.1382 0.2575 0.2540
C82_3 C 0.1607(10) 0.2975(8) 0.4674(6)
C84_3 C 0.2024(9) 0.3228(7) 0.4885(5)
H43_3 H 0.2261 0.3344 0.4650
C86_3 C 0.2057(9) 0.3292(7) 0.5475(6)
H45_3 H 0.2329 0.3450 0.5627
C88_3 C 0.1727(9) 0.3143(7) 0.5831(6)
C90_3 C 0.1336(9) 0.2907(7) 0.5595(6)
H47_3 H 0.1101 0.2801 0.5833
C92_3 C 0.1264(9) 0.2814(7) 0.5031(6)
H49_3 H 0.0989 0.2645 0.4893
C94_3 C 0.1789(10) 0.3187(8) 0.6458(5)
C95_3 C 0.5216(8) 0.5955(5) 0.9618(5)
C96_3 C 0.0712(7) 0.2595(6) 0.2951(5)
C97_3 C 0.5652(8) 0.6141(5) 0.9752(5)
C98_3 C 0.0526(7) 0.2845(6) 0.3085(5)
H50_3 H 0.5742 0.6001 0.9996
H51_3 H 0.0666 0.3075 0.3329
C99_3 C 0.5939(9) 0.6521(5) 0.9530(6)
C100_3 C 0.0146(9) 0.2752(7) 0.2863(6)
H52_3 H 0.6225 0.6640 0.9626
H53_3 H 0.0027 0.2919 0.2959
C101_3 C 0.5809(10) 0.6750(6) 0.9138(6)
C103_3 C 0.5382(10) 0.6568(6) 0.9004(6)
C104_3 C 0.0099(9) 0.2148(8) 0.2337(6)
H54_3 H 0.5294 0.6712 0.8762
C105_3 C 0.5076(8) 0.6170(5) 0.9227(5)
C106_3 C 0.0497(7) 0.2240(6) 0.2560(5)
H56_3 H 0.4790 0.6046 0.9125
H57_3 H 0.0621 0.2078 0.2458
C107_3 C 0.6115(10) 0.7177(6) 0.8960(7)
H60_3 H 0.248606 0.0178188 0.846372
H61_3 H 0.230787 0.248606 0.153628
H62_3 H 0.351152 0.435879 0.820295
O8_3 O 0.2081(5) 0.9350(3) 0.8532(4)
C10_3 C 0.2272(12) 0.9393(10) 0.8089(15)
C11_3 C 0.2436(8) 0.9782(6) 0.7749(8)
C12_3 C 0.2507(10) 0.9803(7) 0.7221(9)
H6_3 H 0.2474 0.9564 0.7029
Cu6_3 Cu 0.87709(9) 0.17568(8) 0.15432(7)
O21_3 O 0.9330(5) 0.2480(4) 0.2479(5)
O25_3 O 0.9297(6) 0.1965(5) 0.1967(4)
C102_3 C 0.9917(9) 0.2393(8) 0.2471(6)
H55_3 H 0.9955 0.1916 0.2095
C108_3 C 0.9490(9) 0.2272(8) 0.2293(7)
O1_2 O 0.33219(18) 0.1751(2) 0.1131(2)
O2_2 O 0.2450(2) 0.1029(3) 0.1179(4)
O3_2 O 0.2460(2) 0.1496(3) 0.0558(3)
O4_2 O 0.3517(3) 0.2663(3) 0.0854(5)
O5_4 O 0.3999(3) 0.2630(4) 0.1366(4)
O6_2 O 0.7579(3) 0.6569(3) 0.1208(4)
O8_4 O 0.7317(3) 0.6064(4) 0.1865(4)
C1_2 C 0.2292(4) 0.1147(4) 0.0850(6)
C2_2 C 0.1797(4) 0.0885(4) 0.0788(5)
C3_2 C 0.1589(4) 0.0524(4) 0.1076(5)
H1_2 H 0.1739 0.0427 0.1291
C4_2 C 0.1145(4) 0.0290(4) 0.1054(5)
H2_2 H 0.0998 0.0029 0.1240
C5_2 C 0.0925(3) 0.0447(3) 0.0757(5)
C6_2 C 0.1150(4) 0.0811(4) 0.0444(5)
H3_2 H 0.1005 0.0908 0.0218
C7_2 C 0.1583(4) 0.1032(3) 0.0463(4)
H4_2 H 0.1734 0.1282 0.0256
C8_2 C 0.0451(4) 0.0217(4) 0.0752(4)
C9_2 C 0.0224(5) 0.0424(3) 0.0759(5)
H5_2 H 0.0379 0.0720 0.0769
C10_4 C 0.7274(10) 0.6212(6) 0.1422(15)
C11_4 C 0.6885(6) 0.5987(6) 0.1082(8)
C12_4 C 0.6864(7) 0.6037(7) 0.0554(9)
H6_4 H 0.7103 0.6243 0.0362
C13_4 C 0.6482(8) 0.5783(8) 0.0258(10)
C14_4 C 0.6216(8) 0.5409(8) 0.0997(12)
H8_4 H 0.6006 0.5166 0.1176
C15_4 C 0.6152(4) 0.5423(4) 0.0468(5)
C16_4 C 0.6521(4) 0.5671(6) 0.1338(6)
C17_4 C 0.5765(5) 0.5111(5) 0.0161(5)
C21_4 C 0.5097(5) 0.4445(5) 0.0108(5)
C22_4 C 0.5453(5) 0.4756(5) 0.0408(5)
H11_4 H 0.5474 0.4715 0.0793
C30_4 C 0.4784(4) 0.4045(5) 0.0382(5)
C31_4 C 0.4348(4) 0.3859(5) 0.0248(5)
H16_4 H 0.4258 0.3999 0.0004
C32_4 C 0.4061(5) 0.3479(5) 0.0470(6)
H17_4 H 0.3775 0.3360 0.0374
C33_4 C 0.4191(5) 0.3250(6) 0.0862(6)
C34_4 C 0.4618(5) 0.3432(6) 0.0996(6)
H18_4 H 0.4706 0.3288 0.1238
C35_4 C 0.4924(4) 0.3830(5) 0.0773(5)
H19_4 H 0.5210 0.3954 0.0875
C36_4 C 0.3885(5) 0.2823(6) 0.1040(7)
O10_2 O 0.2685(3) 0.2389(4) 0.0352(5)
O11_2 O 0.33448(18) 0.1582(2) 0.2202(2)
O17_4 O 0.4217(2) 0.2304(3) 0.2154(4)
O29_2 O 0.3431(3) 0.1009(4) 0.1208(4)
O32_4 O 0.3640(6) 0.1776(4) 0.0098(4)
H58_2 H 0.287099 0.270247 0.0394234
H60_4 H 0.648848 0.564121 0.179705
C54_2 C 0.0201(6) 0.9776(5) 0.0759(5)
H28_2 H 0.0342 0.9621 0.0769
O12_2 O 0.8249(2) 0.15705(27) 0.1131(2)
O14_3 O 0.8418(2) 0.17628(27) 0.2202(2)
O15_2 O 0.8971(3) 0.1420(4) 0.1179(4)
O18_2 O 0.8504(3) 0.0963(4) 0.0558(3)
O22_2 O 0.7337(3) 0.0853(4) 0.0854(5)
O30_2 O 0.8991(4) 0.2421(3) 0.1208(4)
C37_2 C 0.8853(4) 0.1144(6) 0.0850(6)
C39_2 C 0.9115(4) 0.0911(6) 0.0788(5)
C41_2 C 0.9476(4) 0.1064(6) 0.1076(5)
H20_2 H 0.9573 0.1311 0.1291
C43_2 C 0.9710(4) 0.0854(6) 0.1054(5)
H22_2 H 0.9971 0.0968 0.1240
C45_2 C 0.9553(3) 0.0477(4) 0.0757(5)
C47_2 C 0.9189(4) 0.0338(6) 0.0444(5)
H24_2 H 0.9092 0.0096 0.0218
C49_2 C 0.8968(3) 0.0550(5) 0.0463(4)
H26_2 H 0.8718 0.0451 0.0256
C51_2 C 0.9783(4) 0.0233(6) 0.0752(4)
O41_2 O 0.7611(4) 0.0295(5) 0.0352(5)
H65_2 H 0.729753 0.0168528 0.0394234
O13_2 O 0.84295(27) 0.66781(18) 0.1131(2)
O16_2 O 0.8580(4) 0.7550(2) 0.1179(4)
O19_2 O 0.9037(4) 0.7540(2) 0.0558(3)
O23_2 O 0.9147(4) 0.6483(3) 0.0854(5)
C38_2 C 0.8856(6) 0.7708(4) 0.0850(6)
C40_2 C 0.9089(6) 0.8203(4) 0.0788(5)
C42_2 C 0.8936(6) 0.8411(4) 0.1076(5)
H21_2 H 0.8689 0.8261 0.1291
C44_2 C 0.9146(6) 0.8855(4) 0.1054(5)
H23_2 H 0.9032 0.9002 0.1240
C46_2 C 0.9523(4) 0.9075(3) 0.0757(5)
C48_2 C 0.9662(6) 0.8850(4) 0.0444(5)
H25_2 H 0.9904 0.8995 0.0218
C50_2 C 0.9450(5) 0.8417(4) 0.0463(4)
H27_2 H 0.9549 0.8266 0.0256
C52_2 C 0.9767(6) 0.9549(4) 0.0752(4)
C53_2 C 0.9576(3) 0.9799(6) 0.0759(5)
H29_2 H 0.9280 0.9658 0.0769
O42_2 O 0.9705(5) 0.7315(3) 0.0352(5)
H63_2 H 0.983147 0.712901 0.0394234
O5_5 O 0.7370(4) 0.1368(5) 0.1366(4)
O8_5 O 0.3936(4) 0.1252(5) 0.1865(4)
C10_5 C 0.3788(6) 0.1061(12) 0.1422(15)
C11_5 C 0.4013(6) 0.0897(8) 0.1082(8)
C12_5 C 0.3963(7) 0.0826(10) 0.0554(9)
H6_5 H 0.3757 0.0859 0.0362
C13_5 C 0.4217(8) 0.0698(11) 0.0258(10)
C14_5 C 0.4591(8) 0.0806(11) 0.0997(12)
H8_5 H 0.4834 0.0839 0.1176
C15_5 C 0.4577(4) 0.0728(6) 0.0468(5)
C16_5 C 0.4329(6) 0.0849(7) 0.1338(6)
C17_5 C 0.4889(5) 0.0653(7) 0.0161(5)
C21_5 C 0.5555(5) 0.0651(7) 0.0108(5)
C22_5 C 0.5244(5) 0.0696(7) 0.0408(5)
H11_5 H 0.5285 0.0758 0.0793
C30_5 C 0.5955(5) 0.0738(6) 0.0382(5)
C31_5 C 0.6141(5) 0.0488(6) 0.0248(5)
H16_5 H 0.6001 0.0258 0.0004
C32_5 C 0.6521(5) 0.0581(7) 0.0470(6)
H17_5 H 0.6640 0.0414 0.0374
C33_5 C 0.6750(6) 0.0940(8) 0.0862(6)
C34_5 C 0.6568(6) 0.1185(8) 0.0996(6)
H18_5 H 0.6712 0.1417 0.1238
C35_5 C 0.6170(5) 0.1093(6) 0.0773(5)
H19_5 H 0.6046 0.1255 0.0875
C36_5 C 0.7177(6) 0.1061(8) 0.1040(7)
O17_5 O 0.7696(3) 0.1913(4) 0.2154(4)
O32_5 O 0.8224(4) 0.1863(7) 0.0098(4)
H60_5 H 0.435879 0.0847271 0.179705
O14_4 O 0.82372(27) 0.66552(34) 0.2202(2)
O5_6 O 0.8632(5) 0.6001(3) 0.1366(4)
O8_6 O 0.8748(5) 0.2683(3) 0.1865(4)
C10_6 C 0.8939(12) 0.2726(10) 0.1422(15)
C11_6 C 0.9103(8) 0.3115(6) 0.1082(8)
C12_6 C 0.9174(10) 0.3136(7) 0.0554(9)
H6_6 H 0.9141 0.2897 0.0362
C13_6 C 0.9302(11) 0.3518(8) 0.0258(10)
C14_6 C 0.9194(11) 0.3784(8) 0.0997(12)
H8_6 H 0.9161 0.3994 0.1176
C15_6 C 0.9272(6) 0.3848(4) 0.0468(5)
C16_6 C 0.9151(7) 0.3479(4) 0.1338(6)
C17_6 C 0.9347(7) 0.4235(5) 0.0161(5)
C21_6 C 0.9349(7) 0.4903(5) 0.0108(5)
C22_6 C 0.9304(7) 0.4547(5) 0.0408(5)
H11_6 H 0.9242 0.4526 0.0793
C30_6 C 0.9262(6) 0.5216(4) 0.0382(5)
C31_6 C 0.9512(6) 0.5652(4) 0.0248(5)
H16_6 H 0.9742 0.5742 0.0004
C32_6 C 0.9419(7) 0.5939(5) 0.0470(6)
H17_6 H 0.9586 0.6225 0.0374
C33_6 C 0.9060(8) 0.5809(5) 0.0862(6)
C34_6 C 0.8815(8) 0.5382(5) 0.0996(6)
H18_6 H 0.8583 0.5294 0.1238
C35_6 C 0.8907(6) 0.5076(4) 0.0773(5)
H19_6 H 0.8745 0.4790 0.0875
C36_6 C 0.8939(8) 0.6115(5) 0.1040(7)
O17_6 O 0.8087(4) 0.5783(2) 0.2154(4)
O32_6 O 0.8137(7) 0.6360(6) 0.0098(4)
H60_6 H 0.915273 0.351152 0.179705
O7_4 O 0.1776(4) 0.8137(4) 0.9902(4)
O7_5 O 0.1863(4) 0.3640(6) 0.9902(4)
O7_6 O 0.6360(6) 0.8224(4) 0.9902(4)
O3_3 O 0.4207(2) 0.1837(3) 0.2775(3)
C1_3 C 0.4375(4) 0.2186(4) 0.2483(6)
C2_3 C 0.4870(4) 0.2448(4) 0.2545(5)
C3_3 C 0.5078(4) 0.2809(4) 0.2257(5)
H1_3 H 0.4928 0.2906 0.2042
C4_3 C 0.5522(4) 0.3043(4) 0.2279(5)
H2_3 H 0.5669 0.3304 0.2093
C5_3 C 0.5742(3) 0.2886(3) 0.2576(5)
C6_3 C 0.5517(4) 0.2522(4) 0.2889(5)
H3_3 H 0.5662 0.2425 0.3115
C7_3 C 0.5084(4) 0.2301(3) 0.2870(4)
H4_3 H 0.4933 0.2051 0.3077
C8_3 C 0.6216(4) 0.3116(4) 0.2581(4)
C9_3 C 0.6443(5) 0.2909(3) 0.2574(5)
H5_3 H 0.6288 0.2613 0.2564
O10_3 O 0.3982(3) 0.0944(4) 0.2981(5)
O18_3 O 0.8163(3) 0.2370(4) 0.2775(3)
O19_3 O 0.7630(4) 0.5793(2) 0.2775(3)
C37_3 C 0.7814(4) 0.2189(6) 0.2483(6)
C38_3 C 0.7811(6) 0.5625(4) 0.2483(6)
C39_3 C 0.7552(4) 0.2422(6) 0.2545(5)
C40_3 C 0.7578(6) 0.5130(4) 0.2545(5)
C41_3 C 0.7191(4) 0.2269(6) 0.2257(5)
C42_3 C 0.7731(6) 0.4922(4) 0.2257(5)
H20_3 H 0.7094 0.2022 0.2042
H21_3 H 0.7978 0.5072 0.2042
C43_3 C 0.6957(4) 0.2479(6) 0.2279(5)
C44_3 C 0.7521(6) 0.4478(4) 0.2279(5)
H22_3 H 0.6696 0.2365 0.2093
H23_3 H 0.7635 0.4331 0.2093
C45_3 C 0.7114(3) 0.2856(4) 0.2576(5)
C46_3 C 0.7144(4) 0.4258(3) 0.2576(5)
C47_3 C 0.7478(4) 0.2995(6) 0.2889(5)
C48_3 C 0.7005(6) 0.4483(4) 0.2889(5)
H24_3 H 0.7575 0.3237 0.3115
H25_3 H 0.6763 0.4338 0.3115
C49_3 C 0.7699(3) 0.2783(5) 0.2870(4)
C50_3 C 0.7217(5) 0.4916(4) 0.2870(4)
H26_3 H 0.7949 0.2882 0.3077
H27_3 H 0.7118 0.5067 0.3077
C51_3 C 0.6884(4) 0.3100(6) 0.2581(4)
C52_3 C 0.6900(6) 0.3784(4) 0.2581(4)
C53_3 C 0.7091(3) 0.3534(6) 0.2574(5)
C54_3 C 0.6466(6) 0.3557(5) 0.2574(5)
H28_3 H 0.6325 0.3712 0.2564
H29_3 H 0.7387 0.3675 0.2564
O41_3 O 0.9056(4) 0.3038(5) 0.2981(5)
O42_3 O 0.6962(5) 0.6018(3) 0.2981(5)
H58_3 H 0.379567 0.0630868 0.29391
H59_2 H 0.403766 0.101734 0.338907
H63_3 H 0.683519 0.620433 0.29391
H64_2 H 0.697968 0.596234 0.338907
H65_3 H 0.936913 0.316481 0.29391
H66_2 H 0.898266 0.302032 0.338907
O19_4 O 0.0963(4) 0.2460(2) 0.9442(3)
C38_4 C 0.1144(6) 0.2292(4) 0.9150(6)
C40_4 C 0.0911(6) 0.1797(4) 0.9212(5)
C42_4 C 0.1064(6) 0.1589(4) 0.8924(5)
H21_4 H 0.1311 0.1739 0.8709
C44_4 C 0.0854(6) 0.1145(4) 0.8946(5)
H23_4 H 0.0968 0.0998 0.8760
C46_4 C 0.0477(4) 0.0925(3) 0.9243(5)
C48_4 C 0.0338(6) 0.1150(4) 0.9556(5)
H25_4 H 0.0096 0.1005 0.9782
C50_4 C 0.0550(5) 0.1583(4) 0.9537(4)
H27_4 H 0.0451 0.1734 0.9744
C52_4 C 0.0233(6) 0.0451(4) 0.9248(4)
C53_4 C 0.0424(3) 0.0201(6) 0.9241(5)
H29_4 H 0.0720 0.0342 0.9231
O42_4 O 0.0295(5) 0.2685(3) 0.9648(5)
H63_4 H 0.0168528 0.287099 0.960577
O18_4 O 0.1496(3) 0.9037(4) 0.9442(3)
C37_4 C 0.1147(4) 0.8856(6) 0.9150(6)
C39_4 C 0.0885(4) 0.9089(6) 0.9212(5)
C41_4 C 0.0524(4) 0.8936(6) 0.8924(5)
H20_4 H 0.0427 0.8689 0.8709
C43_4 C 0.0290(4) 0.9146(6) 0.8946(5)
H22_4 H 0.0029 0.9032 0.8760
C45_4 C 0.0447(3) 0.9523(4) 0.9243(5)
C47_4 C 0.0811(4) 0.9662(6) 0.9556(5)
H24_4 H 0.0908 0.9904 0.9782
C49_4 C 0.1032(3) 0.9450(5) 0.9537(4)
H26_4 H 0.1282 0.9549 0.9744
C51_4 C 0.0217(4) 0.9767(6) 0.9248(4)
O41_4 O 0.2389(4) 0.9705(5) 0.9648(5)
H65_4 H 0.270247 0.983147 0.960577
C54_4 C 0.9799(6) 0.0224(5) 0.9241(5)
H28_4 H 0.9658 0.0379 0.9231
O3_4 O 0.7540(2) 0.8504(3) 0.9442(3)
C1_4 C 0.7708(4) 0.8853(4) 0.9150(6)
C2_4 C 0.8203(4) 0.9115(4) 0.9212(5)
C3_4 C 0.8411(4) 0.9476(4) 0.8924(5)
H1_4 H 0.8261 0.9573 0.8709
C4_4 C 0.8855(4) 0.9710(4) 0.8946(5)
H2_4 H 0.9002 0.9971 0.8760
C5_4 C 0.9075(3) 0.9553(3) 0.9243(5)
C6_4 C 0.8850(4) 0.9189(4) 0.9556(5)
H3_4 H 0.8995 0.9092 0.9782
C7_4 C 0.8417(4) 0.8968(3) 0.9537(4)
H4_4 H 0.8266 0.8718 0.9744
C8_4 C 0.9549(4) 0.9783(4) 0.9248(4)
C9_4 C 0.9776(5) 0.9576(3) 0.9241(5)
H5_4 H 0.9621 0.9280 0.9231
O10_4 O 0.7315(3) 0.7611(4) 0.9648(5)
H58_4 H 0.712901 0.729753 0.960577
In7 In 0.57124(4) 0.03230(3) 0.40652(3)
O37 O 0.5497(3) 0.0111(4) 0.3279(3)
H42 H 0.5594 0.0011 0.1317
H44 H 0.5662 0.0117 0.2294
O31 O 0.4803(4) 0.9694(6) 0.3432(4)
H32 H 0.5869 0.9415 0.0103
C71 C 0.5168(5) 0.9446(7) 0.0406(6)
H36 H 0.5404 0.9465 0.0589
C73 C 0.4879(5) 0.9521(6) 0.0719(5)
C75 C 0.4524(5) 0.9466(7) 0.0432(5)
H38 H 0.4328 0.9514 0.0627
C81 C 0.4940(5) 0.9642(8) 0.1341(6)
C83 C 0.5357(5) 0.9895(7) 0.1552(5)
C85 C 0.5390(5) 0.9959(7) 0.2142(6)
C87 C 0.5060(5) 0.9810(7) 0.2498(6)
C89 C 0.4669(5) 0.9574(7) 0.2262(6)
H46 H 0.4434 0.9468 0.2500
C91 C 0.4597(5) 0.9481(7) 0.1698(6)
H48 H 0.4322 0.9312 0.1560
C93 C 0.5122(6) 0.9854(8) 0.3125(5)
O31_2 O 0.0306(6) 0.5110(7) 0.3432(4)
H32_2 H 0.0585 0.6455 0.0103
C71_2 C 0.0554(7) 0.5723(9) 0.0406(6)
H36_2 H 0.0535 0.5940 0.0589
C73_2 C 0.0479(6) 0.5359(8) 0.0719(5)
C75_2 C 0.0534(7) 0.5059(9) 0.0432(5)
H38_2 H 0.0486 0.4815 0.0627
C81_2 C 0.0358(8) 0.5299(9) 0.1341(6)
C83_2 C 0.0105(7) 0.5463(9) 0.1552(5)
C85_2 C 0.0041(7) 0.5432(9) 0.2142(6)
C87_2 C 0.0190(7) 0.5251(9) 0.2498(6)
C89_2 C 0.0426(7) 0.5096(9) 0.2262(6)
H46_2 H 0.0532 0.4967 0.2500
C91_2 C 0.0519(7) 0.5117(9) 0.1698(6)
H48_2 H 0.0688 0.5011 0.1560
C93_2 C 0.0146(8) 0.5269(10) 0.3125(5)
In7_2 In 0.96770(3) 0.53895(5) 0.40652(3)
O37_2 O 0.9889(4) 0.5387(5) 0.3279(3)
H42_2 H 0.9989 0.5584 0.1317
H44_2 H 0.9883 0.5546 0.2294
In7_3 In 0.46105(5) 0.42876(4) 0.40652(3)
O31_3 O 0.4890(7) 0.5197(4) 0.3432(4)
O37_3 O 0.4613(5) 0.4503(3) 0.3279(3)
H32_3 H 0.3545 0.4131 0.0103
C71_3 C 0.4277(9) 0.4832(5) 0.0406(6)
H36_3 H 0.4060 0.4596 0.0589
C73_3 C 0.4641(8) 0.5121(5) 0.0719(5)
C75_3 C 0.4941(9) 0.5476(5) 0.0432(5)
H38_3 H 0.5185 0.5672 0.0627
C81_3 C 0.4701(9) 0.5060(5) 0.1341(6)
C83_3 C 0.4537(9) 0.4643(5) 0.1552(5)
H42_3 H 0.4416 0.4406 0.1317
C85_3 C 0.4568(9) 0.4610(5) 0.2142(6)
H44_3 H 0.4454 0.4338 0.2294
C87_3 C 0.4749(9) 0.4940(5) 0.2498(6)
C89_3 C 0.4904(9) 0.5331(5) 0.2262(6)
H46_3 H 0.5033 0.5566 0.2500
C91_3 C 0.4883(9) 0.5403(5) 0.1698(6)
H48_3 H 0.4989 0.5678 0.1560
C93_3 C 0.4731(10) 0.4878(6) 0.3125(5)
O7_7 O 0.5110(4) 0.4803(4) 0.6568(4)
O9_4 O 0.5387(3) 0.5497(3) 0.6721(3)
H7_4 H 0.6455 0.5869 0.9897
C18_4 C 0.5723(5) 0.5168(5) 0.9594(6)
H9_4 H 0.5940 0.5404 0.9411
C19_4 C 0.5359(4) 0.4879(5) 0.9281(5)
C20_4 C 0.5059(5) 0.4524(5) 0.9568(5)
H10_4 H 0.4815 0.4328 0.9373
C23_4 C 0.5299(6) 0.4940(5) 0.8659(6)
C24_4 C 0.5463(5) 0.5357(5) 0.8448(5)
H12_4 H 0.5584 0.5594 0.8683
C25_4 C 0.5432(5) 0.5390(5) 0.7858(6)
H13_4 H 0.5546 0.5662 0.7706
C26_4 C 0.5251(5) 0.5060(5) 0.7502(6)
C27_4 C 0.5096(5) 0.4669(5) 0.7738(6)
H14_4 H 0.4967 0.4434 0.7500
C28_4 C 0.5117(5) 0.4597(5) 0.8302(6)
H15_4 H 0.5011 0.4322 0.8440
C29_4 C 0.5269(6) 0.5122(6) 0.6875(5)
In5_2 In 0.53895(3) 0.57124(4) 0.59348(3)
Cu6_4 Cu 0.49099(8) 0.03474(5) 0.48765(7)
Cu7_4 Cu 0.45624(6) 0.49099(8) 0.51235(7)
O21_4 O 0.4187(4) 0.0183(3) 0.5812(5)
O25_4 O 0.4702(5) 0.0665(3) 0.5300(4)
O28_4 O 0.4343(4) 0.4245(3) 0.5458(4)
O34_4 O 0.4586(5) 0.3983(3) 0.4801(4)
O38_2 O 0.3223(4) 0.2053(3) 0.9945(3)
C56_4 C 0.4395(12) 0.3940(10) 0.5244(15)
C58_4 C 0.4231(8) 0.3551(6) 0.5584(8)
C60_4 C 0.4160(10) 0.3530(7) 0.6112(9)
H31_4 H 0.4193 0.3769 0.6304
C62_4 C 0.4032(11) 0.3148(8) 0.6408(10)
H33_4 H 0.3919 0.3121 0.6769
C64_4 C 0.4140(11) 0.2882(8) 0.5669(12)
H35_4 H 0.4173 0.2672 0.5490
C66_4 C 0.4062(6) 0.2818(4) 0.6198(5)
C68_4 C 0.4183(7) 0.3187(4) 0.5328(6)
C70_4 C 0.3987(7) 0.2431(5) 0.6505(5)
C72_4 C 0.3888(7) 0.2389(5) 0.7072(6)
H37_4 H 0.3869 0.2606 0.7255
C74_4 C 0.3813(6) 0.2025(4) 0.7385(5)
C76_4 C 0.3868(7) 0.1725(5) 0.7098(5)
H39_4 H 0.3820 0.1481 0.7293
C78_4 C 0.3985(7) 0.1763(5) 0.6558(5)
C80_4 C 0.4030(7) 0.2119(5) 0.6258(5)
H41_4 H 0.4092 0.2140 0.5873
C82_4 C 0.3692(8) 0.1965(6) 0.8007(6)
C84_4 C 0.3439(7) 0.2129(5) 0.8218(5)
H43_4 H 0.3323 0.2250 0.7983
C86_4 C 0.3375(7) 0.2098(5) 0.8808(6)
H45_4 H 0.3217 0.2212 0.8960
C88_4 C 0.3524(7) 0.1917(5) 0.9164(6)
C90_4 C 0.3760(7) 0.1762(5) 0.8928(6)
H47_4 H 0.3866 0.1633 0.9166
C92_4 C 0.3853(7) 0.1783(5) 0.8364(6)
H49_4 H 0.4022 0.1677 0.8226
C94_4 C 0.3480(8) 0.1935(6) 0.9791(5)
C96_4 C 0.4072(6) 0.1450(4) 0.6284(5)
C98_4 C 0.3822(6) 0.1014(4) 0.6418(5)
H51_4 H 0.3592 0.0924 0.6662
C100_4 C 0.3915(7) 0.0727(5) 0.6196(6)
H53_4 H 0.3748 0.0441 0.6292
C102_4 C 0.4274(8) 0.0857(5) 0.5804(6)
C104_4 C 0.4519(8) 0.1284(5) 0.5670(6)
H55_4 H 0.4751 0.1372 0.5428
C106_4 C 0.4427(6) 0.1590(4) 0.5893(5)
H57_4 H 0.4589 0.1876 0.5791
C108_4 C 0.4395(8) 0.0551(5) 0.5626(7)
H59_3 H 0.2629 0.231599 0.994426
H61_4 H 0.41806 0.315515 0.486962
In8_3 In 0.42876(4) 0.96770(3) 0.59348(3)
O39_2 O 0.7947(3) 0.1169(3) 0.9945(3)
H66_3 H 0.768401 0.0313013 0.994426
O40_2 O 0.8831(3) 0.6777(4) 0.9945(3)
H64_3 H 0.968699 0.7371 0.994426
In8_4 In 0.03230(3) 0.46105(5) 0.59348(3)
O7_8 O 0.5197(4) 0.0306(6) 0.6568(4)
H7_5 H 0.4131 0.0585 0.9897
C18_5 C 0.4832(5) 0.0554(7) 0.9594(6)
H9_5 H 0.4596 0.0535 0.9411
C19_5 C 0.5121(5) 0.0479(6) 0.9281(5)
C20_5 C 0.5476(5) 0.0534(7) 0.9568(5)
H10_5 H 0.5672 0.0486 0.9373
C23_5 C 0.5060(5) 0.0358(8) 0.8659(6)
C24_5 C 0.4643(5) 0.0105(7) 0.8448(5)
C25_5 C 0.4610(5) 0.0041(7) 0.7858(6)
C26_5 C 0.4940(5) 0.0190(7) 0.7502(6)
C27_5 C 0.5331(5) 0.0426(7) 0.7738(6)
H14_5 H 0.5566 0.0532 0.7500
C28_5 C 0.5403(5) 0.0519(7) 0.8302(6)
H15_5 H 0.5678 0.0688 0.8440
C29_5 C 0.4878(6) 0.0146(8) 0.6875(5)
Cu6_5 Cu 0.96526(5) 0.45624(9) 0.48765(7)
O21_5 O 0.9817(3) 0.4003(5) 0.5812(5)
O25_5 O 0.9335(3) 0.4036(6) 0.5300(4)
O28_5 O 0.5755(3) 0.0097(5) 0.5458(4)
O34_5 O 0.6017(3) 0.0602(6) 0.4801(4)
C56_5 C 0.6060(10) 0.0454(16) 0.5244(15)
C58_5 C 0.6449(6) 0.0679(10) 0.5584(8)
C60_5 C 0.6470(7) 0.0629(12) 0.6112(9)
H31_5 H 0.6231 0.0423 0.6304
C62_5 C 0.6852(8) 0.0883(14) 0.6408(10)
H33_5 H 0.6879 0.0797 0.6769
C64_5 C 0.7118(8) 0.1257(14) 0.5669(12)
H35_5 H 0.7328 0.1500 0.5490
C66_5 C 0.7182(4) 0.1243(7) 0.6198(5)
C68_5 C 0.6813(4) 0.0995(8) 0.5328(6)
C70_5 C 0.7569(5) 0.1555(9) 0.6505(5)
C72_5 C 0.7611(5) 0.1498(9) 0.7072(6)
H37_5 H 0.7394 0.1262 0.7255
C74_5 C 0.7975(4) 0.1787(7) 0.7385(5)
C76_5 C 0.8275(5) 0.2142(9) 0.7098(5)
H39_5 H 0.8519 0.2338 0.7293
C78_5 C 0.8237(5) 0.2221(9) 0.6558(5)
C80_5 C 0.7881(5) 0.1910(9) 0.6258(5)
H41_5 H 0.7860 0.1951 0.5873
C82_5 C 0.8035(6) 0.1726(10) 0.8007(6)
C84_5 C 0.7871(5) 0.1309(9) 0.8218(5)
H43_5 H 0.7750 0.1072 0.7983
C86_5 C 0.7902(5) 0.1276(9) 0.8808(6)
H45_5 H 0.7788 0.1004 0.8960
C88_5 C 0.8083(5) 0.1606(9) 0.9164(6)
C90_5 C 0.8238(5) 0.1997(9) 0.8928(6)
H47_5 H 0.8367 0.2232 0.9166
C92_5 C 0.8217(5) 0.2069(9) 0.8364(6)
H49_5 H 0.8323 0.2344 0.8226
C94_5 C 0.8065(6) 0.1544(10) 0.9791(5)
C96_5 C 0.8550(4) 0.2621(7) 0.6284(5)
C98_5 C 0.8986(4) 0.2807(7) 0.6418(5)
H51_5 H 0.9076 0.2667 0.6662
C100_5 C 0.9273(5) 0.3187(9) 0.6196(6)
H53_5 H 0.9559 0.3306 0.6292
C102_5 C 0.9143(5) 0.3416(9) 0.5804(6)
C104_5 C 0.8716(5) 0.3234(9) 0.5670(6)
H55_5 H 0.8628 0.3378 0.5428
C106_5 C 0.8410(4) 0.2836(7) 0.5893(5)
H57_5 H 0.8124 0.2712 0.5791
C108_5 C 0.9449(5) 0.3843(9) 0.5626(7)
H61_5 H 0.684485 0.102546 0.486962
O9_5 O 0.4503(3) 0.9889(4) 0.6721(3)
H12_5 H 0.4406 0.9989 0.8683
H13_5 H 0.4338 0.9883 0.7706
Cu7_5 Cu 0.50901(8) 0.96526(10) 0.51235(7)
O9_6 O 0.0111(4) 0.4613(3) 0.6721(3)
H12_6 H 0.0011 0.4416 0.8683
H13_6 H 0.0117 0.4454 0.7706
Cu7_6 Cu 0.03474(10) 0.54376(6) 0.51235(7)
O7_9 O 0.9694(6) 0.4890(4) 0.6568(4)
H7_6 H 0.9415 0.3545 0.9897
C18_6 C 0.9446(7) 0.4277(5) 0.9594(6)
H9_6 H 0.9465 0.4060 0.9411
C19_6 C 0.9521(6) 0.4641(4) 0.9281(5)
C20_6 C 0.9466(7) 0.4941(5) 0.9568(5)
H10_6 H 0.9514 0.5185 0.9373
C23_6 C 0.9642(8) 0.4701(6) 0.8659(6)
C24_6 C 0.9895(7) 0.4537(5) 0.8448(5)
C25_6 C 0.9959(7) 0.4568(5) 0.7858(6)
C26_6 C 0.9810(7) 0.4749(5) 0.7502(6)
C27_6 C 0.9574(7) 0.4904(5) 0.7738(6)
H14_6 H 0.9468 0.5033 0.7500
C28_6 C 0.9481(7) 0.4883(5) 0.8302(6)
H15_6 H 0.9312 0.4989 0.8440
C29_6 C 0.9854(8) 0.4731(6) 0.6875(5)
Cu6_6 Cu 0.54376(9) 0.50901(8) 0.48765(7)
O21_6 O 0.5997(5) 0.5813(4) 0.5812(5)
O25_6 O 0.5964(6) 0.5298(5) 0.5300(4)
O28_6 O 0.9903(5) 0.5657(4) 0.5458(4)
O34_6 O 0.9398(6) 0.5414(5) 0.4801(4)
C56_6 C 0.9546(16) 0.5605(12) 0.5244(15)
C58_6 C 0.9321(10) 0.5769(8) 0.5584(8)
C60_6 C 0.9371(12) 0.5840(10) 0.6112(9)
H31_6 H 0.9577 0.5807 0.6304
C62_6 C 0.9117(14) 0.5968(11) 0.6408(10)
H33_6 H 0.9203 0.6081 0.6769
C64_6 C 0.8743(14) 0.5860(11) 0.5669(12)
H35_6 H 0.8500 0.5827 0.5490
C66_6 C 0.8757(7) 0.5938(6) 0.6198(5)
C68_6 C 0.9005(8) 0.5817(7) 0.5328(6)
C70_6 C 0.8445(9) 0.6013(7) 0.6505(5)
C72_6 C 0.8502(9) 0.6112(7) 0.7072(6)
H37_6 H 0.8738 0.6131 0.7255
C74_6 C 0.8213(7) 0.6187(6) 0.7385(5)
C76_6 C 0.7858(9) 0.6132(7) 0.7098(5)
H39_6 H 0.7662 0.6180 0.7293
C78_6 C 0.7779(9) 0.6015(7) 0.6558(5)
C80_6 C 0.8090(9) 0.5970(7) 0.6258(5)
H41_6 H 0.8049 0.5908 0.5873
C82_6 C 0.8274(10) 0.6308(8) 0.8007(6)
C84_6 C 0.8691(9) 0.6561(7) 0.8218(5)
H43_6 H 0.8928 0.6677 0.7983
C86_6 C 0.8724(9) 0.6625(7) 0.8808(6)
H45_6 H 0.8996 0.6783 0.8960
C88_6 C 0.8394(9) 0.6476(7) 0.9164(6)
C90_6 C 0.8003(9) 0.6240(7) 0.8928(6)
H47_6 H 0.7768 0.6134 0.9166
C92_6 C 0.7931(9) 0.6147(7) 0.8364(6)
H49_6 H 0.7656 0.5978 0.8226
C94_6 C 0.8456(10) 0.6520(8) 0.9791(5)
C96_6 C 0.7379(7) 0.5928(6) 0.6284(5)
C98_6 C 0.7193(7) 0.6178(6) 0.6418(5)
H51_6 H 0.7333 0.6408 0.6662
C100_6 C 0.6813(9) 0.6085(7) 0.6196(6)
H53_6 H 0.6694 0.6252 0.6292
C102_6 C 0.6584(9) 0.5726(8) 0.5804(6)
C104_6 C 0.6766(9) 0.5481(8) 0.5670(6)
H55_6 H 0.6622 0.5249 0.5428
C106_6 C 0.7164(7) 0.5573(6) 0.5893(5)
H57_6 H 0.7288 0.5411 0.5791
C108_6 C 0.6157(9) 0.5605(8) 0.5626(7)
H61_6 H 0.897454 0.58194 0.486962
O4_3 O 0.0183(3) 0.5997(3) 0.4188(5)
O5_7 O 0.0665(3) 0.5964(4) 0.4700(4)
O6_3 O 0.4245(3) 0.9903(3) 0.4542(4)
O8_7 O 0.3983(3) 0.9398(4) 0.5199(4)
O9_7 O 0.2053(3) 0.8831(3) 0.0055(3)
C10_7 C 0.3940(10) 0.9546(6) 0.4756(15)
C11_7 C 0.3551(6) 0.9321(6) 0.4416(8)
C12_7 C 0.3530(7) 0.9371(7) 0.3888(9)
H6_7 H 0.3769 0.9577 0.3696
C13_7 C 0.3148(8) 0.9117(8) 0.3592(10)
H7_7 H 0.3121 0.9203 0.3231
C14_7 C 0.2882(8) 0.8743(8) 0.4331(12)
H8_7 H 0.2672 0.8500 0.4510
C15_7 C 0.2818(4) 0.8757(4) 0.3802(5)
C16_7 C 0.3187(4) 0.9005(6) 0.4672(6)
C17_7 C 0.2431(5) 0.8445(5) 0.3495(5)
C18_7 C 0.2389(5) 0.8502(5) 0.2928(6)
H9_7 H 0.2606 0.8738 0.2745
C19_7 C 0.2025(4) 0.8213(5) 0.2615(5)
C20_7 C 0.1725(5) 0.7858(5) 0.2902(5)
H10_7 H 0.1481 0.7662 0.2707
C21_7 C 0.1763(5) 0.7779(5) 0.3442(5)
C22_7 C 0.2119(5) 0.8090(5) 0.3742(5)
H11_7 H 0.2140 0.8049 0.4127
C23_7 C 0.1965(6) 0.8274(5) 0.1993(6)
C24_7 C 0.2129(5) 0.8691(5) 0.1782(5)
H12_7 H 0.2250 0.8928 0.2017
C25_7 C 0.2098(5) 0.8724(5) 0.1192(6)
H13_7 H 0.2212 0.8996 0.1040
C26_7 C 0.1917(5) 0.8394(5) 0.0836(6)
C27_7 C 0.1762(5) 0.8003(5) 0.1072(6)
H14_7 H 0.1633 0.7768 0.0834
C28_7 C 0.1783(5) 0.7931(5) 0.1636(6)
H15_7 H 0.1677 0.7656 0.1774
C29_7 C 0.1935(6) 0.8456(6) 0.0209(5)
C30_7 C 0.1450(4) 0.7379(5) 0.3716(5)
C31_7 C 0.1014(4) 0.7193(5) 0.3582(5)
H16_7 H 0.0924 0.7333 0.3338
C32_7 C 0.0727(5) 0.6813(5) 0.3804(6)
H17_7 H 0.0441 0.6694 0.3708
C33_7 C 0.0857(5) 0.6584(6) 0.4196(6)
C34_7 C 0.1284(5) 0.6766(6) 0.4330(6)
H18_7 H 0.1372 0.6622 0.4572
C35_7 C 0.1590(4) 0.7164(5) 0.4107(5)
H19_7 H 0.1876 0.7288 0.4209
C36_7 C 0.0551(5) 0.6157(6) 0.4374(7)
O11_3 O 0.00115(18) 0.4915(2) 0.5535(2)
O17_7 O 0.0884(2) 0.5637(3) 0.5487(4)
O29_3 O 0.0097(3) 0.4343(4) 0.4542(4)
H60_7 H 0.315515 0.897454 0.513038
O1_3 O 0.99885(18) 0.5085(2) 0.4465(2)
O2_3 O 0.9116(2) 0.4363(3) 0.4513(4)
O3_5 O 0.9126(2) 0.4830(3) 0.3892(3)
C1_5 C 0.8958(4) 0.4481(4) 0.4184(6)
C2_5 C 0.8463(4) 0.4219(4) 0.4122(5)
C3_5 C 0.8255(4) 0.3858(4) 0.4410(5)
H1_5 H 0.8405 0.3761 0.4625
C4_5 C 0.7811(4) 0.3624(4) 0.4388(5)
H2_5 H 0.7664 0.3363 0.4574
C5_5 C 0.7591(3) 0.3781(3) 0.4091(5)
C6_5 C 0.7816(4) 0.4145(4) 0.3778(5)
H3_5 H 0.7671 0.4242 0.3552
C7_5 C 0.8249(4) 0.4366(3) 0.3797(4)
H4_5 H 0.8400 0.4616 0.3590
C8_5 C 0.7117(4) 0.3551(4) 0.4086(4)
C9_5 C 0.6890(5) 0.3758(3) 0.4093(5)
H5_5 H 0.7045 0.4054 0.4103
O10_5 O 0.9351(3) 0.5723(4) 0.3686(5)
O12_3 O 0.4915(2) 0.49039(27) 0.4465(2)
O13_3 O 0.50961(27) 0.00115(18) 0.4465(2)
O14_5 O 0.5085(2) 0.50961(27) 0.5535(2)
O15_3 O 0.5637(3) 0.4754(4) 0.4513(4)
O16_3 O 0.5246(4) 0.0884(2) 0.4513(4)
O18_5 O 0.5170(3) 0.4297(4) 0.3892(3)
O19_5 O 0.5703(4) 0.0874(2) 0.3892(3)
O22_3 O 0.4003(3) 0.4187(4) 0.4188(5)
O30_3 O 0.5657(4) 0.5755(3) 0.4542(4)
C37_5 C 0.5519(4) 0.4478(6) 0.4184(6)
C38_5 C 0.5522(6) 0.1042(4) 0.4184(6)
C39_5 C 0.5781(4) 0.4245(6) 0.4122(5)
C40_5 C 0.5755(6) 0.1537(4) 0.4122(5)
C41_5 C 0.6142(4) 0.4398(6) 0.4410(5)
C42_5 C 0.5602(6) 0.1745(4) 0.4410(5)
H20_5 H 0.6239 0.4645 0.4625
H21_5 H 0.5355 0.1595 0.4625
C43_5 C 0.6376(4) 0.4188(6) 0.4388(5)
C44_5 C 0.5812(6) 0.2189(4) 0.4388(5)
H22_5 H 0.6637 0.4302 0.4574
H23_5 H 0.5698 0.2336 0.4574
C45_5 C 0.6219(3) 0.3811(4) 0.4091(5)
C46_5 C 0.6189(4) 0.2409(3) 0.4091(5)
C47_5 C 0.5855(4) 0.3672(6) 0.3778(5)
C48_5 C 0.6328(6) 0.2184(4) 0.3778(5)
H24_5 H 0.5758 0.3430 0.3552
H25_5 H 0.6570 0.2329 0.3552
C49_5 C 0.5634(3) 0.3884(5) 0.3797(4)
C50_5 C 0.6116(5) 0.1751(4) 0.3797(4)
H26_5 H 0.5384 0.3785 0.3590
H27_5 H 0.6215 0.1600 0.3590
C51_5 C 0.6449(4) 0.3567(6) 0.4086(4)
C52_5 C 0.6433(6) 0.2883(4) 0.4086(4)
C53_5 C 0.6242(3) 0.3133(6) 0.4093(5)
C54_5 C 0.6867(6) 0.3110(5) 0.4093(5)
H28_5 H 0.7008 0.2955 0.4103
H29_5 H 0.5946 0.2992 0.4103
O41_5 O 0.4277(4) 0.3629(5) 0.3686(5)
O42_5 O 0.6371(5) 0.0649(3) 0.3686(5)
H58_5 H 0.953766 0.60358 0.372757
H59_4 H 0.929567 0.564932 0.32776
H63_5 H 0.649814 0.0462339 0.372757
H64_4 H 0.635365 0.0704329 0.32776
H65_5 H 0.39642 0.350186 0.372757
H66_4 H 0.435068 0.364635 0.32776
O23_3 O 0.5813(4) 0.9817(3) 0.4188(5)
O5_8 O 0.4036(4) 0.4702(5) 0.4700(4)
O8_8 O 0.0602(4) 0.4586(5) 0.5199(4)
O9_8 O 0.1169(3) 0.3223(4) 0.0055(3)
C10_8 C 0.0454(6) 0.4395(12) 0.4756(15)
C11_8 C 0.0679(6) 0.4231(8) 0.4416(8)
C12_8 C 0.0629(7) 0.4160(10) 0.3888(9)
H6_8 H 0.0423 0.4193 0.3696
C13_8 C 0.0883(8) 0.4032(11) 0.3592(10)
H7_8 H 0.0797 0.3919 0.3231
C14_8 C 0.1257(8) 0.4140(11) 0.4331(12)
H8_8 H 0.1500 0.4173 0.4510
C15_8 C 0.1243(4) 0.4062(6) 0.3802(5)
C16_8 C 0.0995(6) 0.4183(7) 0.4672(6)
C17_8 C 0.1555(5) 0.3987(7) 0.3495(5)
C18_8 C 0.1498(5) 0.3888(7) 0.2928(6)
H9_8 H 0.1262 0.3869 0.2745
C19_8 C 0.1787(5) 0.3813(6) 0.2615(5)
C20_8 C 0.2142(5) 0.3868(7) 0.2902(5)
H10_8 H 0.2338 0.3820 0.2707
C21_8 C 0.2221(5) 0.3985(7) 0.3442(5)
C22_8 C 0.1910(5) 0.4030(7) 0.3742(5)
H11_8 H 0.1951 0.4092 0.4127
C23_8 C 0.1726(5) 0.3692(8) 0.1993(6)
C24_8 C 0.1309(5) 0.3439(7) 0.1782(5)
H12_8 H 0.1072 0.3323 0.2017
C25_8 C 0.1276(5) 0.3375(7) 0.1192(6)
H13_8 H 0.1004 0.3217 0.1040
C26_8 C 0.1606(5) 0.3524(7) 0.0836(6)
C27_8 C 0.1997(5) 0.3760(7) 0.1072(6)
H14_8 H 0.2232 0.3866 0.0834
C28_8 C 0.2069(5) 0.3853(7) 0.1636(6)
H15_8 H 0.2344 0.4022 0.1774
C29_8 C 0.1544(6) 0.3480(8) 0.0209(5)
C30_8 C 0.2621(5) 0.4072(6) 0.3716(5)
C31_8 C 0.2807(5) 0.3822(6) 0.3582(5)
H16_8 H 0.2667 0.3592 0.3338
C32_8 C 0.3187(5) 0.3915(7) 0.3804(6)
H17_8 H 0.3306 0.3748 0.3708
C33_8 C 0.3416(6) 0.4274(8) 0.4196(6)
C34_8 C 0.3234(6) 0.4519(8) 0.4330(6)
H18_8 H 0.3378 0.4751 0.4572
C35_8 C 0.2836(5) 0.4427(6) 0.4107(5)
H19_8 H 0.2712 0.4589 0.4209
C36_8 C 0.3843(6) 0.4395(8) 0.4374(7)
O17_8 O 0.4363(3) 0.5246(4) 0.5487(4)
H60_8 H 0.102546 0.41806 0.513038
O14_6 O 0.49039(27) 0.99885(34) 0.5535(2)
O5_9 O 0.5298(5) 0.9335(3) 0.4700(4)
O8_9 O 0.5414(5) 0.6017(3) 0.5199(4)
O9_9 O 0.6777(4) 0.7947(3) 0.0055(3)
C10_9 C 0.5605(12) 0.6060(10) 0.4756(15)
C11_9 C 0.5769(8) 0.6449(6) 0.4416(8)
C12_9 C 0.5840(10) 0.6470(7) 0.3888(9)
H6_9 H 0.5807 0.6231 0.3696
C13_9 C 0.5968(11) 0.6852(8) 0.3592(10)
H7_9 H 0.6081 0.6879 0.3231
C14_9 C 0.5860(11) 0.7118(8) 0.4331(12)
H8_9 H 0.5827 0.7328 0.4510
C15_9 C 0.5938(6) 0.7182(4) 0.3802(5)
C16_9 C 0.5817(7) 0.6813(4) 0.4672(6)
C17_9 C 0.6013(7) 0.7569(5) 0.3495(5)
C18_9 C 0.6112(7) 0.7611(5) 0.2928(6)
H9_9 H 0.6131 0.7394 0.2745
C19_9 C 0.6187(6) 0.7975(4) 0.2615(5)
C20_9 C 0.6132(7) 0.8275(5) 0.2902(5)
H10_9 H 0.6180 0.8519 0.2707
C21_9 C 0.6015(7) 0.8237(5) 0.3442(5)
C22_9 C 0.5970(7) 0.7881(5) 0.3742(5)
H11_9 H 0.5908 0.7860 0.4127
C23_9 C 0.6308(8) 0.8035(6) 0.1993(6)
C24_9 C 0.6561(7) 0.7871(5) 0.1782(5)
H12_9 H 0.6677 0.7750 0.2017
C25_9 C 0.6625(7) 0.7902(5) 0.1192(6)
H13_9 H 0.6783 0.7788 0.1040
C26_9 C 0.6476(7) 0.8083(5) 0.0836(6)
C27_9 C 0.6240(7) 0.8238(5) 0.1072(6)
H14_9 H 0.6134 0.8367 0.0834
C28_9 C 0.6147(7) 0.8217(5) 0.1636(6)
H15_9 H 0.5978 0.8323 0.1774
C29_9 C 0.6520(8) 0.8065(6) 0.0209(5)
C30_9 C 0.5928(6) 0.8550(4) 0.3716(5)
C31_9 C 0.6178(6) 0.8986(4) 0.3582(5)
H16_9 H 0.6408 0.9076 0.3338
C32_9 C 0.6085(7) 0.9273(5) 0.3804(6)
H17_9 H 0.6252 0.9559 0.3708
C33_9 C 0.5726(8) 0.9143(5) 0.4196(6)
C34_9 C 0.5481(8) 0.8716(5) 0.4330(6)
H18_9 H 0.5249 0.8628 0.4572
C35_9 C 0.5573(6) 0.8410(4) 0.4107(5)
H19_9 H 0.5411 0.8124 0.4209
C36_9 C 0.5605(8) 0.9449(5) 0.4374(7)
O17_9 O 0.4754(4) 0.9116(2) 0.5487(4)
H60_9 H 0.58194 0.684485 0.513038
H64_5 H 0.0313013 0.2629 0.00557363
H66_5 H 0.231599 0.968699 0.00557363
H59_5 H 0.7371 0.768401 0.00557363
O3_6 O 0.0874(2) 0.5170(3) 0.6108(3)
C1_6 C 0.1042(4) 0.5519(4) 0.5816(6)
C2_6 C 0.1537(4) 0.5781(4) 0.5878(5)
C3_6 C 0.1745(4) 0.6142(4) 0.5590(5)
H1_6 H 0.1595 0.6239 0.5375
C4_6 C 0.2189(4) 0.6376(4) 0.5612(5)
H2_6 H 0.2336 0.6637 0.5426
C5_6 C 0.2409(3) 0.6219(3) 0.5909(5)
C6_6 C 0.2184(4) 0.5855(4) 0.6222(5)
H3_6 H 0.2329 0.5758 0.6448
C7_6 C 0.1751(4) 0.5634(3) 0.6203(4)
H4_6 H 0.1600 0.5384 0.6410
C8_6 C 0.2883(4) 0.6449(4) 0.5914(4)
C9_6 C 0.3110(5) 0.6242(3) 0.5907(5)
H5_6 H 0.2955 0.5946 0.5897
O10_6 O 0.0649(3) 0.4277(4) 0.6314(5)
O18_6 O 0.4830(3) 0.5703(4) 0.6108(3)
O19_6 O 0.4297(4) 0.9126(2) 0.6108(3)
C37_6 C 0.4481(4) 0.5522(6) 0.5816(6)
C38_6 C 0.4478(6) 0.8958(4) 0.5816(6)
C39_6 C 0.4219(4) 0.5755(6) 0.5878(5)
C40_6 C 0.4245(6) 0.8463(4) 0.5878(5)
C41_6 C 0.3858(4) 0.5602(6) 0.5590(5)
C42_6 C 0.4398(6) 0.8255(4) 0.5590(5)
H20_6 H 0.3761 0.5355 0.5375
H21_6 H 0.4645 0.8405 0.5375
C43_6 C 0.3624(4) 0.5812(6) 0.5612(5)
C44_6 C 0.4188(6) 0.7811(4) 0.5612(5)
H22_6 H 0.3363 0.5698 0.5426
H23_6 H 0.4302 0.7664 0.5426
C45_6 C 0.3781(3) 0.6189(4) 0.5909(5)
C46_6 C 0.3811(4) 0.7591(3) 0.5909(5)
C47_6 C 0.4145(4) 0.6328(6) 0.6222(5)
C48_6 C 0.3672(6) 0.7816(4) 0.6222(5)
H24_6 H 0.4242 0.6570 0.6448
H25_6 H 0.3430 0.7671 0.6448
C49_6 C 0.4366(3) 0.6116(5) 0.6203(4)
C50_6 C 0.3884(5) 0.8249(4) 0.6203(4)
H26_6 H 0.4616 0.6215 0.6410
H27_6 H 0.3785 0.8400 0.6410
C51_6 C 0.3551(4) 0.6433(6) 0.5914(4)
C52_6 C 0.3567(6) 0.7117(4) 0.5914(4)
C53_6 C 0.3758(3) 0.6867(6) 0.5907(5)
C54_6 C 0.3133(6) 0.6890(5) 0.5907(5)
H28_6 H 0.2992 0.7045 0.5897
H29_6 H 0.4054 0.7008 0.5897
O41_6 O 0.5723(4) 0.6371(5) 0.6314(5)
O42_6 O 0.3629(5) 0.9351(3) 0.6314(5)
H58_6 H 0.0462339 0.39642 0.627243
H59_6 H 0.0704329 0.435068 0.67224
H63_6 H 0.350186 0.953766 0.627243
H64_6 H 0.364635 0.929567 0.67224
H65_6 H 0.60358 0.649814 0.627243
H66_6 H 0.564932 0.635365 0.67224
loop_
_geom_bond_atom_site_label_1
_geom_bond_atom_site_label_2
_geom_bond_site_symmetry_1
_geom_bond_site_symmetry_2
O6 C10 1_555 1_555
O8 C10 1_555 1_555
C10 C11 1_555 1_555
C11 C12 1_555 1_555
C12 H6 1_555 1_555
In4 O8 1_555 1_555
Cu4 O6 1_555 1_555
O7 C29 1_555 1_555
O9 C29 1_555 1_555
H7 C13 1_555 1_555
C14 H8 1_555 1_555
C15 C13 1_555 1_555
C17 C15 1_555 1_555
C18 C17 1_555 1_555
H9 C18 1_555 1_555
C19 C18 1_555 1_555
C20 C19 1_555 1_555
H10 C20 1_555 1_555
C21 C20 1_555 1_555
C22 C17 1_555 1_555
H11 C22 1_555 1_555
C23 C19 1_555 1_555
C24 C23 1_555 1_555
H12 C24 1_555 1_555
C25 C24 1_555 1_555
H13 C25 1_555 1_555
C26 C25 1_555 1_555
C27 C26 1_555 1_555
H14 C27 1_555 1_555
C28 C23 1_555 1_555
H15 C28 1_555 1_555
C29 C26 1_555 1_555
C30 C21 1_555 1_555
C31 C30 1_555 1_555
H16 C31 1_555 1_555
C32 C31 1_555 1_555
H17 C32 1_555 1_555
C35 C30 1_555 1_555
H19 C35 1_555 1_555
In5 O9 1_555 1_555
In9 O34 1_555 1_555
Cu7 O28 1_555 1_555
O28 C56 1_555 1_555
O34 C56 1_555 1_555
C56 C58 1_555 1_555
C58 C60 1_555 1_555
C60 H31 1_555 1_555
C14 C15 1_555 1_555
C14 C16 1_555 1_555
C21 C22 1_555 1_555
C27 C28 1_555 1_555
C34 C35 1_555 1_555
C16 H60 1_555 1_555
In1 O1 1_555 1_555
Cu1 O1 1_555 1_555
O1 Cu2 1_555 1_555
O2 C1 1_555 1_555
O3 In1 1_555 1_555
O4 In1 1_555 1_555
O5 Cu1 1_555 1_555
C1 O3 1_555 1_555
C2 C1 1_555 1_555
C3 C2 1_555 1_555
H1 C3 1_555 1_555
C4 C3 1_555 1_555
H2 C4 1_555 1_555
C5 C4 1_555 1_555
C6 C5 1_555 1_555
H3 C6 1_555 1_555
C7 C2 1_555 1_555
H4 C7 1_555 1_555
C8 C5 1_555 1_555
C9 C8 1_555 1_555
H5 C9 1_555 1_555
C36 O4 1_555 1_555
O10 In1 1_555 1_555
In2 O12 1_555 1_555
In3 O13 1_555 1_555
In6 O14 1_555 1_555
In8 O21 1_555 1_555
In10 O11 1_555 1_555
Cu2 O2 1_555 1_555
Cu3 O12 1_555 1_555
Cu4 O13 1_555 1_555
Cu6 O25 1_555 1_555
Cu8 O12 1_555 1_555
O11 Cu1 1_555 1_555
O14 Cu3 1_555 1_555
O15 Cu3 1_555 1_555
O16 Cu4 1_555 1_555
O17 Cu1 1_555 1_555
O18 In2 1_555 1_555
O19 In3 1_555 1_555
O20 In6 1_555 1_555
O21 C108 1_555 1_555
O22 In2 1_555 1_555
O23 In3 1_555 1_555
O24 Cu3 1_555 1_555
O25 C108 1_555 1_555
O26 Cu2 1_555 1_555
O27 Cu1 1_555 1_555
O29 Cu2 1_555 1_555
O30 Cu3 1_555 1_555
O32 C94 1_555 1_555
O33 In1 1_555 1_555
O35 In2 1_555 1_555
O36 In3 1_555 1_555
O38 In1 1_555 1_555
O39 In2 1_555 1_555
O40 In3 1_555 1_555
C37 O15 1_555 1_555
C38 O16 1_555 1_555
C39 C37 1_555 1_555
C40 C38 1_555 1_555
C41 C39 1_555 1_555
C42 C40 1_555 1_555
H20 C41 1_555 1_555
H21 C42 1_555 1_555
C43 C41 1_555 1_555
C44 C42 1_555 1_555
H22 C43 1_555 1_555
H23 C44 1_555 1_555
C45 C43 1_555 1_555
C46 C44 1_555 1_555
C47 C45 1_555 1_555
C48 C46 1_555 1_555
H24 C47 1_555 1_555
H25 C48 1_555 1_555
C49 C39 1_555 1_555
C50 C40 1_555 1_555
H26 C49 1_555 1_555
H27 C50 1_555 1_555
C51 C9 1_555 1_555
C52 C46 1_555 1_555
C53 C51 1_555 1_555
C54 C8 1_555 1_555
H28 C54 1_555 1_555
H29 C53 1_555 1_555
C55 O27 1_555 1_555
C57 C55 1_555 1_555
C59 C57 1_555 1_555
H30 C59 1_555 1_555
C61 C59 1_555 1_555
H33 C62 1_555 1_555
C63 H34 1_555 1_555
C64 H35 1_555 1_555
C65 C61 1_555 1_555
C66 C62 1_555 1_555
C67 C57 1_555 1_555
C69 C65 1_555 1_555
C70 C66 1_555 1_555
C72 C70 1_555 1_555
H37 C72 1_555 1_555
C74 C72 1_555 1_555
C76 C74 1_555 1_555
H39 C76 1_555 1_555
C78 C76 1_555 1_555
C79 C69 1_555 1_555
C80 C70 1_555 1_555
H40 C79 1_555 1_555
H41 C80 1_555 1_555
C82 C74 1_555 1_555
C84 C82 1_555 1_555
H43 C84 1_555 1_555
C86 C84 1_555 1_555
H45 C86 1_555 1_555
C88 C86 1_555 1_555
C90 C88 1_555 1_555
H47 C90 1_555 1_555
C92 C82 1_555 1_555
H49 C92 1_555 1_555
C94 O38 1_555 1_555
C95 C77 1_555 1_555
C96 C78 1_555 1_555
C97 C95 1_555 1_555
C98 C96 1_555 1_555
H50 C97 1_555 1_555
H51 C98 1_555 1_555
C99 C97 1_555 1_555
C100 C98 1_555 1_555
H52 C99 1_555 1_555
H53 C100 1_555 1_555
C101 C99 1_555 1_555
C102 C100 1_555 1_555
C103 C101 1_555 1_555
C104 C102 1_555 1_555
H54 C103 1_555 1_555
H55 C104 1_555 1_555
C105 C95 1_555 1_555
C106 C96 1_555 1_555
H56 C105 1_555 1_555
H57 C106 1_555 1_555
C107 O20 1_555 1_555
C108 C102 1_555 1_555
O41 In2 1_555 1_555
O42 In3 1_555 1_555
O5 C36 1_555 1_555
C6 C7 1_555 1_555
C33 C36 1_555 1_555
Cu2 O11 1_555 1_555
Cu8 O14 1_555 1_555
O18 C37 1_555 1_555
O19 C38 1_555 1_555
O24 C107 1_555 1_555
O33 C55 1_555 1_555
C45 C51 1_555 1_555
C47 C49 1_555 1_555
C48 C50 1_555 1_555
C52 C53 1_555 1_555
C52 C54 1_555 1_555
C63 C65 1_555 1_555
C63 C67 1_555 1_555
C64 C66 1_555 1_555
C64 C68 1_555 1_555
C77 C79 1_555 1_555
C78 C80 1_555 1_555
C88 C94 1_555 1_555
C90 C92 1_555 1_555
C101 C107 1_555 1_555
C103 C105 1_555 1_555
C104 C106 1_555 1_555
O10 H58 1_555 1_555
O10 H59 1_555 1_555
C68 H61 1_555 1_555
C67 H62 1_555 1_555
O42 H63 1_555 1_555
O42 H64 1_555 1_555
O41 H65 1_555 1_555
O41 H66 1_555 1_555
In8_2 O21_2 1_555 1_555
Cu6_2 O25_2 1_555 1_555
O21_2 C108_2 1_555 1_555
O25_2 C108_2 1_555 1_555
C108_2 C102_2 1_555 1_555
O5_2 Cu8 1_555 1_555
C36_2 O22 1_555 1_555
In4 O14_2 1_555 1_555
Cu8_2 O13 1_555 1_555
O14_2 Cu4 1_555 1_555
O17_2 Cu8 1_555 1_555
O20_2 In4 1_555 1_555
O24_2 Cu4 1_555 1_555
O27_2 Cu8 1_555 1_555
O32_2 C94_2 1_555 1_555
C55_2 O27_2 1_555 1_555
C57_2 C55_2 1_555 1_555
C59_2 C57_2 1_555 1_555
H30_2 C59_2 1_555 1_555
C61_2 C59_2 1_555 1_555
H33_2 C62_2 1_555 1_555
C63_2 H34_2 1_555 1_555
C64_2 H35_2 1_555 1_555
C65_2 C61_2 1_555 1_555
C66_2 C62_2 1_555 1_555
C67_2 C57_2 1_555 1_555
C69_2 C65_2 1_555 1_555
C70_2 C66_2 1_555 1_555
C72_2 C70_2 1_555 1_555
H37_2 C72_2 1_555 1_555
C74_2 C72_2 1_555 1_555
C76_2 C74_2 1_555 1_555
H39_2 C76_2 1_555 1_555
C78_2 C76_2 1_555 1_555
C79_2 C69_2 1_555 1_555
C80_2 C70_2 1_555 1_555
H40_2 C79_2 1_555 1_555
H41_2 C80_2 1_555 1_555
C82_2 C74_2 1_555 1_555
C84_2 C82_2 1_555 1_555
H43_2 C84_2 1_555 1_555
C86_2 C84_2 1_555 1_555
H45_2 C86_2 1_555 1_555
C88_2 C86_2 1_555 1_555
C90_2 C88_2 1_555 1_555
H47_2 C90_2 1_555 1_555
C92_2 C82_2 1_555 1_555
H49_2 C92_2 1_555 1_555
C94_2 O39 1_555 1_555
C95_2 C77_2 1_555 1_555
C96_2 C78_2 1_555 1_555
C97_2 C95_2 1_555 1_555
C98_2 C96_2 1_555 1_555
H50_2 C97_2 1_555 1_555
H51_2 C98_2 1_555 1_555
C99_2 C97_2 1_555 1_555
C100_2 C98_2 1_555 1_555
H52_2 C99_2 1_555 1_555
H53_2 C100_2 1_555 1_555
C101_2 C99_2 1_555 1_555
C103_2 C101_2 1_555 1_555
H54_2 C103_2 1_555 1_555
C105_2 C95_2 1_555 1_555
C106_2 C96_2 1_555 1_555
H56_2 C105_2 1_555 1_555
H57_2 C106_2 1_555 1_555
C107_2 O20_2 1_555 1_555
O5_2 C36_2 1_555 1_555
C33_2 C36_2 1_555 1_555
Cu8_2 O14_2 1_555 1_555
O24_2 C107_2 1_555 1_555
O35 C55_2 1_555 1_555
C63_2 C65_2 1_555 1_555
C63_2 C67_2 1_555 1_555
C64_2 C66_2 1_555 1_555
C64_2 C68_2 1_555 1_555
C77_2 C79_2 1_555 1_555
C78_2 C80_2 1_555 1_555
C88_2 C94_2 1_555 1_555
C90_2 C92_2 1_555 1_555
C101_2 C107_2 1_555 1_555
C103_2 C105_2 1_555 1_555
C104_2 C106_2 1_555 1_555
C68_2 H61_2 1_555 1_555
C67_2 H62_2 1_555 1_555
O29 C10_2 1_555 1_555
O7_2 C29_2 1_555 1_555
O8_2 C10_2 1_555 1_555
O9_2 C29_2 1_555 1_555
C10_2 C11_2 1_555 1_555
C11_2 C12_2 1_555 1_555
C12_2 H6_2 1_555 1_555
C13_2 C12_2 1_555 1_555
H7_2 C13_2 1_555 1_555
C14_2 H8_2 1_555 1_555
C15_2 C13_2 1_555 1_555
C16_2 C11_2 1_555 1_555
C17_2 C15_2 1_555 1_555
C18_2 C17_2 1_555 1_555
H9_2 C18_2 1_555 1_555
C19_2 C18_2 1_555 1_555
C20_2 C19_2 1_555 1_555
H10_2 C20_2 1_555 1_555
C21_2 C20_2 1_555 1_555
C22_2 C17_2 1_555 1_555
H11_2 C22_2 1_555 1_555
C23_2 C19_2 1_555 1_555
C24_2 C23_2 1_555 1_555
H12_2 C24_2 1_555 1_555
C25_2 C24_2 1_555 1_555
H13_2 C25_2 1_555 1_555
C26_2 C25_2 1_555 1_555
C27_2 C26_2 1_555 1_555
H14_2 C27_2 1_555 1_555
C28_2 C23_2 1_555 1_555
H15_2 C28_2 1_555 1_555
C29_2 C26_2 1_555 1_555
C30_2 C21_2 1_555 1_555
C31_2 C30_2 1_555 1_555
H16_2 C31_2 1_555 1_555
C32_2 C31_2 1_555 1_555
H17_2 C32_2 1_555 1_555
C35_2 C30_2 1_555 1_555
H19_2 C35_2 1_555 1_555
In10 O8_2 1_555 1_555
In8 O9_2 1_555 1_555
In9_2 O34_2 1_555 1_555
Cu7_2 O28_2 1_555 1_555
O28_2 C56_2 1_555 1_555
O34_2 C56_2 1_555 1_555
C56_2 C58_2 1_555 1_555
C58_2 C60_2 1_555 1_555
C60_2 H31_2 1_555 1_555
C14_2 C15_2 1_555 1_555
C14_2 C16_2 1_555 1_555
C21_2 C22_2 1_555 1_555
C27_2 C28_2 1_555 1_555
C34_2 C35_2 1_555 1_555
C16_2 H60_2 1_555 1_555
O5_3 Cu8_2 1_555 1_555
O7_3 C29_3 1_555 1_555
O9_3 C29_3 1_555 1_555
H7_3 C13_3 1_555 1_555
C14_3 H8_3 1_555 1_555
C15_3 C13_3 1_555 1_555
C17_3 C15_3 1_555 1_555
C18_3 C17_3 1_555 1_555
H9_3 C18_3 1_555 1_555
C19_3 C18_3 1_555 1_555
C20_3 C19_3 1_555 1_555
H10_3 C20_3 1_555 1_555
C21_3 C20_3 1_555 1_555
C22_3 C17_3 1_555 1_555
H11_3 C22_3 1_555 1_555
C23_3 C19_3 1_555 1_555
C24_3 C23_3 1_555 1_555
H12_3 C24_3 1_555 1_555
C25_3 C24_3 1_555 1_555
H13_3 C25_3 1_555 1_555
C26_3 C25_3 1_555 1_555
C27_3 C26_3 1_555 1_555
H14_3 C27_3 1_555 1_555
C28_3 C23_3 1_555 1_555
H15_3 C28_3 1_555 1_555
C29_3 C26_3 1_555 1_555
C30_3 C21_3 1_555 1_555
C31_3 C30_3 1_555 1_555
H16_3 C31_3 1_555 1_555
C32_3 C31_3 1_555 1_555
H17_3 C32_3 1_555 1_555
C33_3 C32_3 1_555 1_555
C34_3 C33_3 1_555 1_555
H18_3 C34_3 1_555 1_555
C35_3 C30_3 1_555 1_555
H19_3 C35_3 1_555 1_555
C36_3 O23 1_555 1_555
In8_2 O9_3 1_555 1_555
In9_3 O34_3 1_555 1_555
Cu7_3 O28_3 1_555 1_555
O17_3 Cu8_2 1_555 1_555
O20_3 In10 1_555 1_555
O27_3 Cu8_2 1_555 1_555
O28_3 C56_3 1_555 1_555
O32_3 C94_3 1_555 1_555
O34_3 C56_3 1_555 1_555
C55_3 O27_3 1_555 1_555
C56_3 C58_3 1_555 1_555
C57_3 C55_3 1_555 1_555
C58_3 C60_3 1_555 1_555
C59_3 C57_3 1_555 1_555
C60_3 H31_3 1_555 1_555
H30_3 C59_3 1_555 1_555
C61_3 C59_3 1_555 1_555
C62_3 C60_3 1_555 1_555
H33_3 C62_3 1_555 1_555
C63_3 H34_3 1_555 1_555
C64_3 H35_3 1_555 1_555
C65_3 C61_3 1_555 1_555
C66_3 C62_3 1_555 1_555
C67_3 C57_3 1_555 1_555
C68_3 C58_3 1_555 1_555
C69_3 C65_3 1_555 1_555
C70_3 C66_3 1_555 1_555
C72_3 C70_3 1_555 1_555
H37_3 C72_3 1_555 1_555
C74_3 C72_3 1_555 1_555
C76_3 C74_3 1_555 1_555
H39_3 C76_3 1_555 1_555
C78_3 C76_3 1_555 1_555
C79_3 C69_3 1_555 1_555
C80_3 C70_3 1_555 1_555
H40_3 C79_3 1_555 1_555
H41_3 C80_3 1_555 1_555
C82_3 C74_3 1_555 1_555
C84_3 C82_3 1_555 1_555
H43_3 C84_3 1_555 1_555
C86_3 C84_3 1_555 1_555
H45_3 C86_3 1_555 1_555
C88_3 C86_3 1_555 1_555
C90_3 C88_3 1_555 1_555
H47_3 C90_3 1_555 1_555
C92_3 C82_3 1_555 1_555
H49_3 C92_3 1_555 1_555
C94_3 O40 1_555 1_555
C95_3 C77_3 1_555 1_555
C96_3 C78_3 1_555 1_555
C97_3 C95_3 1_555 1_555
C98_3 C96_3 1_555 1_555
H50_3 C97_3 1_555 1_555
H51_3 C98_3 1_555 1_555
C99_3 C97_3 1_555 1_555
C100_3 C98_3 1_555 1_555
H52_3 C99_3 1_555 1_555
H53_3 C100_3 1_555 1_555
C101_3 C99_3 1_555 1_555
C103_3 C101_3 1_555 1_555
H54_3 C103_3 1_555 1_555
C105_3 C95_3 1_555 1_555
C106_3 C96_3 1_555 1_555
H56_3 C105_3 1_555 1_555
H57_3 C106_3 1_555 1_555
C107_3 O20_3 1_555 1_555
O5_3 C36_3 1_555 1_555
C14_3 C15_3 1_555 1_555
C14_3 C16_3 1_555 1_555
C21_3 C22_3 1_555 1_555
C27_3 C28_3 1_555 1_555
C33_3 C36_3 1_555 1_555
C34_3 C35_3 1_555 1_555
O26 C107_3 1_555 1_555
O36 C55_3 1_555 1_555
C63_3 C65_3 1_555 1_555
C63_3 C67_3 1_555 1_555
C64_3 C66_3 1_555 1_555
C64_3 C68_3 1_555 1_555
C77_3 C79_3 1_555 1_555
C78_3 C80_3 1_555 1_555
C88_3 C94_3 1_555 1_555
C90_3 C92_3 1_555 1_555
C101_3 C107_3 1_555 1_555
C103_3 C105_3 1_555 1_555
C104_3 C106_3 1_555 1_555
C16_3 H60_3 1_555 1_555
C68_3 H61_3 1_555 1_555
C67_3 H62_3 1_555 1_555
O30 C10_3 1_555 1_555
O8_3 C10_3 1_555 1_555
C10_3 C11_3 1_555 1_555
C11_3 C12_3 1_555 1_555
C12_3 H6_3 1_555 1_555
In6 O8_3 1_555 1_555
In5 O21_3 1_555 1_555
Cu6_3 O25_3 1_555 1_555
O21_3 C108_3 1_555 1_555
O25_3 C108_3 1_555 1_555
C108_3 C102_3 1_555 1_555
In9_3 O1_2 1_555 1_555
Cu7_3 O1_2 1_555 1_555
O1_2 Cu6_2 1_555 1_555
O2_2 C1_2 1_555 1_555
O3_2 In9_3 1_555 1_555
O4_2 In9_3 1_555 1_555
O5_4 Cu7_3 1_555 1_555
O6_2 C10_4 1_555 1_555
O8_4 C10_4 1_555 1_555
C1_2 O3_2 1_555 1_555
C2_2 C1_2 1_555 1_555
C3_2 C2_2 1_555 1_555
H1_2 C3_2 1_555 1_555
C4_2 C3_2 1_555 1_555
H2_2 C4_2 1_555 1_555
C5_2 C4_2 1_555 1_555
C6_2 C5_2 1_555 1_555
H3_2 C6_2 1_555 1_555
C7_2 C2_2 1_555 1_555
H4_2 C7_2 1_555 1_555
C8_2 C5_2 1_555 1_555
C9_2 C8_2 1_555 1_555
H5_2 C9_2 1_555 1_555
C10_4 C11_4 1_555 1_555
C11_4 C12_4 1_555 1_555
C12_4 H6_4 1_555 1_555
C13_4 C12_4 1_555 1_555
C14_4 H8_4 1_555 1_555
C15_4 C13_4 1_555 1_555
C16_4 C11_4 1_555 1_555
C17_4 C15_4 1_555 1_555
C22_4 C17_4 1_555 1_555
H11_4 C22_4 1_555 1_555
C30_4 C21_4 1_555 1_555
C31_4 C30_4 1_555 1_555
H16_4 C31_4 1_555 1_555
C32_4 C31_4 1_555 1_555
H17_4 C32_4 1_555 1_555
C33_4 C32_4 1_555 1_555
C34_4 C33_4 1_555 1_555
H18_4 C34_4 1_555 1_555
C35_4 C30_4 1_555 1_555
H19_4 C35_4 1_555 1_555
C36_4 O4_2 1_555 1_555
O10_2 In9_3 1_555 1_555
In8 O8_4 1_555 1_555
In8_2 O11_2 1_555 1_555
Cu6_2 O2_2 1_555 1_555
Cu6 O6_2 1_555 1_555
O11_2 Cu7_3 1_555 1_555
O17_4 Cu7_3 1_555 1_555
O29_2 Cu6_2 1_555 1_555
O5_4 C36_4 1_555 1_555
C6_2 C7_2 1_555 1_555
C14_4 C15_4 1_555 1_555
C14_4 C16_4 1_555 1_555
C21_4 C22_4 1_555 1_555
C33_4 C36_4 1_555 1_555
C34_4 C35_4 1_555 1_555
Cu6_2 O11_2 1_555 1_555
O10_2 H58_2 1_555 1_555
C16_4 H60_4 1_555 1_555
H28_2 C54_2 1_555 1_555
In9 O12_2 1_555 1_555
In5 O14_3 1_555 1_555
Cu6_3 O12_2 1_555 1_555
Cu7 O12_2 1_555 1_555
O14_3 Cu6_3 1_555 1_555
O15_2 Cu6_3 1_555 1_555
O18_2 In9 1_555 1_555
O22_2 In9 1_555 1_555
O30_2 Cu6_3 1_555 1_555
C37_2 O15_2 1_555 1_555
C39_2 C37_2 1_555 1_555
C41_2 C39_2 1_555 1_555
H20_2 C41_2 1_555 1_555
C43_2 C41_2 1_555 1_555
H22_2 C43_2 1_555 1_555
C45_2 C43_2 1_555 1_555
C47_2 C45_2 1_555 1_555
H24_2 C47_2 1_555 1_555
C49_2 C39_2 1_555 1_555
H26_2 C49_2 1_555 1_555
O41_2 In9 1_555 1_555
Cu7 O14_3 1_555 1_555
O18_2 C37_2 1_555 1_555
C45_2 C51_2 1_555 1_555
C47_2 C49_2 1_555 1_555
O41_2 H65_2 1_555 1_555
In9_2 O13_2 1_555 1_555
Cu6 O13_2 1_555 1_555
O16_2 Cu6 1_555 1_555
O19_2 In9_2 1_555 1_555
O23_2 In9_2 1_555 1_555
C38_2 O16_2 1_555 1_555
C40_2 C38_2 1_555 1_555
C42_2 C40_2 1_555 1_555
H21_2 C42_2 1_555 1_555
C44_2 C42_2 1_555 1_555
H23_2 C44_2 1_555 1_555
C46_2 C44_2 1_555 1_555
C48_2 C46_2 1_555 1_555
H25_2 C48_2 1_555 1_555
C50_2 C40_2 1_555 1_555
H27_2 C50_2 1_555 1_555
C52_2 C46_2 1_555 1_555
H29_2 C53_2 1_555 1_555
O42_2 In9_2 1_555 1_555
O19_2 C38_2 1_555 1_555
C48_2 C50_2 1_555 1_555
C52_2 C53_2 1_555 1_555
O42_2 H63_2 1_555 1_555
O5_5 Cu7 1_555 1_555
O29_2 C10_5 1_555 1_555
O8_5 C10_5 1_555 1_555
C10_5 C11_5 1_555 1_555
C11_5 C12_5 1_555 1_555
C12_5 H6_5 1_555 1_555
C13_5 C12_5 1_555 1_555
C14_5 H8_5 1_555 1_555
C15_5 C13_5 1_555 1_555
C16_5 C11_5 1_555 1_555
C17_5 C15_5 1_555 1_555
C22_5 C17_5 1_555 1_555
H11_5 C22_5 1_555 1_555
C30_5 C21_5 1_555 1_555
C31_5 C30_5 1_555 1_555
H16_5 C31_5 1_555 1_555
C32_5 C31_5 1_555 1_555
H17_5 C32_5 1_555 1_555
C33_5 C32_5 1_555 1_555
C34_5 C33_5 1_555 1_555
H18_5 C34_5 1_555 1_555
C35_5 C30_5 1_555 1_555
H19_5 C35_5 1_555 1_555
C36_5 O22_2 1_555 1_555
In8_2 O8_5 1_555 1_555
O17_5 Cu7 1_555 1_555
O5_5 C36_5 1_555 1_555
C14_5 C15_5 1_555 1_555
C14_5 C16_5 1_555 1_555
C21_5 C22_5 1_555 1_555
C33_5 C36_5 1_555 1_555
C34_5 C35_5 1_555 1_555
C16_5 H60_5 1_555 1_555
In8 O14_4 1_555 1_555
Cu7_2 O13_2 1_555 1_555
O14_4 Cu6 1_555 1_555
Cu7_2 O14_4 1_555 1_555
O5_6 Cu7_2 1_555 1_555
O30_2 C10_6 1_555 1_555
O8_6 C10_6 1_555 1_555
C10_6 C11_6 1_555 1_555
C11_6 C12_6 1_555 1_555
C12_6 H6_6 1_555 1_555
C13_6 C12_6 1_555 1_555
C14_6 H8_6 1_555 1_555
C15_6 C13_6 1_555 1_555
C16_6 C11_6 1_555 1_555
C17_6 C15_6 1_555 1_555
C22_6 C17_6 1_555 1_555
H11_6 C22_6 1_555 1_555
C30_6 C21_6 1_555 1_555
C31_6 C30_6 1_555 1_555
H16_6 C31_6 1_555 1_555
C32_6 C31_6 1_555 1_555
H17_6 C32_6 1_555 1_555
C33_6 C32_6 1_555 1_555
C34_6 C33_6 1_555 1_555
H18_6 C34_6 1_555 1_555
C35_6 C30_6 1_555 1_555
H19_6 C35_6 1_555 1_555
C36_6 O23_2 1_555 1_555
In5 O8_6 1_555 1_555
O17_6 Cu7_2 1_555 1_555
O5_6 C36_6 1_555 1_555
C14_6 C15_6 1_555 1_555
C14_6 C16_6 1_555 1_555
C21_6 C22_6 1_555 1_555
C33_6 C36_6 1_555 1_555
C34_6 C35_6 1_555 1_555
C16_6 H60_6 1_555 1_555
O17_4 C1_3 1_555 1_555
O3_3 In8_2 1_555 1_555
C1_3 O3_3 1_555 1_555
C2_3 C1_3 1_555 1_555
C3_3 C2_3 1_555 1_555
H1_3 C3_3 1_555 1_555
C4_3 C3_3 1_555 1_555
H2_3 C4_3 1_555 1_555
C5_3 C4_3 1_555 1_555
C6_3 C5_3 1_555 1_555
H3_3 C6_3 1_555 1_555
C7_3 C2_3 1_555 1_555
H4_3 C7_3 1_555 1_555
C8_3 C5_3 1_555 1_555
C9_3 C8_3 1_555 1_555
H5_3 C9_3 1_555 1_555
O10_3 In8_2 1_555 1_555
O18_3 In5 1_555 1_555
O19_3 In8 1_555 1_555
C37_3 O17_5 1_555 1_555
C38_3 O17_6 1_555 1_555
C39_3 C37_3 1_555 1_555
C40_3 C38_3 1_555 1_555
C41_3 C39_3 1_555 1_555
C42_3 C40_3 1_555 1_555
H20_3 C41_3 1_555 1_555
H21_3 C42_3 1_555 1_555
C43_3 C41_3 1_555 1_555
C44_3 C42_3 1_555 1_555
H22_3 C43_3 1_555 1_555
H23_3 C44_3 1_555 1_555
C45_3 C43_3 1_555 1_555
C46_3 C44_3 1_555 1_555
C47_3 C45_3 1_555 1_555
C48_3 C46_3 1_555 1_555
H24_3 C47_3 1_555 1_555
H25_3 C48_3 1_555 1_555
C49_3 C39_3 1_555 1_555
C50_3 C40_3 1_555 1_555
H26_3 C49_3 1_555 1_555
H27_3 C50_3 1_555 1_555
C51_3 C9_3 1_555 1_555
C52_3 C46_3 1_555 1_555
C53_3 C51_3 1_555 1_555
C54_3 C8_3 1_555 1_555
H28_3 C54_3 1_555 1_555
H29_3 C53_3 1_555 1_555
O41_3 In5 1_555 1_555
O42_3 In8 1_555 1_555
C6_3 C7_3 1_555 1_555
O18_3 C37_3 1_555 1_555
O19_3 C38_3 1_555 1_555
C45_3 C51_3 1_555 1_555
C47_3 C49_3 1_555 1_555
C48_3 C50_3 1_555 1_555
C52_3 C53_3 1_555 1_555
C52_3 C54_3 1_555 1_555
O10_3 H58_3 1_555 1_555
O10_3 H59_2 1_555 1_555
O42_3 H63_3 1_555 1_555
O42_3 H64_2 1_555 1_555
O41_3 H65_3 1_555 1_555
O41_3 H66_2 1_555 1_555
O19_4 In4 1_555 1_555
C38_4 O17_3 1_555 1_555
C40_4 C38_4 1_555 1_555
C42_4 C40_4 1_555 1_555
H21_4 C42_4 1_555 1_555
C44_4 C42_4 1_555 1_555
H23_4 C44_4 1_555 1_555
C46_4 C44_4 1_555 1_555
C48_4 C46_4 1_555 1_555
H25_4 C48_4 1_555 1_555
C50_4 C40_4 1_555 1_555
H27_4 C50_4 1_555 1_555
C52_4 C46_4 1_555 1_555
H29_4 C53_4 1_555 1_555
O42_4 In4 1_555 1_555
O19_4 C38_4 1_555 1_555
C48_4 C50_4 1_555 1_555
C52_4 C53_4 1_555 1_555
O42_4 H63_4 1_555 1_555
O18_4 In6 1_555 1_555
C37_4 O17_2 1_555 1_555
C39_4 C37_4 1_555 1_555
C41_4 C39_4 1_555 1_555
H20_4 C41_4 1_555 1_555
C43_4 C41_4 1_555 1_555
H22_4 C43_4 1_555 1_555
C45_4 C43_4 1_555 1_555
C47_4 C45_4 1_555 1_555
H24_4 C47_4 1_555 1_555
C49_4 C39_4 1_555 1_555
H26_4 C49_4 1_555 1_555
O41_4 In6 1_555 1_555
O18_4 C37_4 1_555 1_555
C45_4 C51_4 1_555 1_555
C47_4 C49_4 1_555 1_555
O41_4 H65_4 1_555 1_555
H28_4 C54_4 1_555 1_555
O17 C1_4 1_555 1_555
O3_4 In10 1_555 1_555
C1_4 O3_4 1_555 1_555
C2_4 C1_4 1_555 1_555
C3_4 C2_4 1_555 1_555
H1_4 C3_4 1_555 1_555
C4_4 C3_4 1_555 1_555
H2_4 C4_4 1_555 1_555
C5_4 C4_4 1_555 1_555
C6_4 C5_4 1_555 1_555
H3_4 C6_4 1_555 1_555
C7_4 C2_4 1_555 1_555
H4_4 C7_4 1_555 1_555
C8_4 C5_4 1_555 1_555
C9_4 C8_4 1_555 1_555
H5_4 C9_4 1_555 1_555
O10_4 In10 1_555 1_555
C6_4 C7_4 1_555 1_555
O10_4 H58_4 1_555 1_555
In7 O37 1_555 1_555
O31 C93 1_555 1_555
H36 C71 1_555 1_555
C73 C71 1_555 1_555
C75 C73 1_555 1_555
H38 C75 1_555 1_555
C81 C73 1_555 1_555
C83 C81 1_555 1_555
C85 C83 1_555 1_555
C87 C85 1_555 1_555
C89 C87 1_555 1_555
H46 C89 1_555 1_555
C91 C81 1_555 1_555
H48 C91 1_555 1_555
C93 C87 1_555 1_555
C89 C91 1_555 1_555
O31_2 C93_2 1_555 1_555
H36_2 C71_2 1_555 1_555
C73_2 C71_2 1_555 1_555
C75_2 C73_2 1_555 1_555
H38_2 C75_2 1_555 1_555
C81_2 C73_2 1_555 1_555
C83_2 C81_2 1_555 1_555
C85_2 C83_2 1_555 1_555
C87_2 C85_2 1_555 1_555
C89_2 C87_2 1_555 1_555
H46_2 C89_2 1_555 1_555
C91_2 C81_2 1_555 1_555
H48_2 C91_2 1_555 1_555
C93_2 C87_2 1_555 1_555
C89_2 C91_2 1_555 1_555
In7_2 O37_2 1_555 1_555
In7_3 O37_3 1_555 1_555
O31_3 C93_3 1_555 1_555
O37_3 C93_3 1_555 1_555
H36_3 C71_3 1_555 1_555
C73_3 C71_3 1_555 1_555
C75_3 C73_3 1_555 1_555
H38_3 C75_3 1_555 1_555
C81_3 C73_3 1_555 1_555
C83_3 C81_3 1_555 1_555
H42_3 C83_3 1_555 1_555
C85_3 C83_3 1_555 1_555
H44_3 C85_3 1_555 1_555
C87_3 C85_3 1_555 1_555
C89_3 C87_3 1_555 1_555
H46_3 C89_3 1_555 1_555
C91_3 C81_3 1_555 1_555
H48_3 C91_3 1_555 1_555
C93_3 C87_3 1_555 1_555
C89_3 C91_3 1_555 1_555
O7_7 C29_4 1_555 1_555
O9_4 C29_4 1_555 1_555
H9_4 C18_4 1_555 1_555
C19_4 C18_4 1_555 1_555
C20_4 C19_4 1_555 1_555
H10_4 C20_4 1_555 1_555
C23_4 C19_4 1_555 1_555
C24_4 C23_4 1_555 1_555
H12_4 C24_4 1_555 1_555
C25_4 C24_4 1_555 1_555
H13_4 C25_4 1_555 1_555
C26_4 C25_4 1_555 1_555
C27_4 C26_4 1_555 1_555
H14_4 C27_4 1_555 1_555
C28_4 C23_4 1_555 1_555
H15_4 C28_4 1_555 1_555
C29_4 C26_4 1_555 1_555
In5_2 O9_4 1_555 1_555
In7_3 O34_4 1_555 1_555
Cu6_4 O25_4 1_555 1_555
Cu7_4 O28_4 1_555 1_555
O21_4 C108_4 1_555 1_555
O25_4 C108_4 1_555 1_555
O28_4 C56_4 1_555 1_555
O34_4 C56_4 1_555 1_555
C56_4 C58_4 1_555 1_555
C58_4 C60_4 1_555 1_555
C60_4 H31_4 1_555 1_555
C62_4 C60_4 1_555 1_555
H33_4 C62_4 1_555 1_555
C64_4 H35_4 1_555 1_555
C66_4 C62_4 1_555 1_555
C68_4 C58_4 1_555 1_555
C70_4 C66_4 1_555 1_555
C72_4 C70_4 1_555 1_555
H37_4 C72_4 1_555 1_555
C74_4 C72_4 1_555 1_555
C76_4 C74_4 1_555 1_555
H39_4 C76_4 1_555 1_555
C78_4 C76_4 1_555 1_555
C80_4 C70_4 1_555 1_555
H41_4 C80_4 1_555 1_555
C82_4 C74_4 1_555 1_555
C84_4 C82_4 1_555 1_555
H43_4 C84_4 1_555 1_555
C86_4 C84_4 1_555 1_555
H45_4 C86_4 1_555 1_555
C88_4 C86_4 1_555 1_555
C90_4 C88_4 1_555 1_555
H47_4 C90_4 1_555 1_555
C92_4 C82_4 1_555 1_555
H49_4 C92_4 1_555 1_555
C94_4 O38_2 1_555 1_555
C96_4 C78_4 1_555 1_555
C98_4 C96_4 1_555 1_555
H51_4 C98_4 1_555 1_555
C100_4 C98_4 1_555 1_555
H53_4 C100_4 1_555 1_555
C102_4 C100_4 1_555 1_555
C104_4 C102_4 1_555 1_555
H55_4 C104_4 1_555 1_555
C106_4 C96_4 1_555 1_555
H57_4 C106_4 1_555 1_555
C108_4 C102_4 1_555 1_555
C27_4 C28_4 1_555 1_555
C64_4 C66_4 1_555 1_555
C64_4 C68_4 1_555 1_555
C78_4 C80_4 1_555 1_555
C88_4 C94_4 1_555 1_555
C90_4 C92_4 1_555 1_555
C104_4 C106_4 1_555 1_555
C68_4 H61_4 1_555 1_555
O7_8 C29_5 1_555 1_555
H9_5 C18_5 1_555 1_555
C19_5 C18_5 1_555 1_555
C20_5 C19_5 1_555 1_555
H10_5 C20_5 1_555 1_555
C23_5 C19_5 1_555 1_555
C24_5 C23_5 1_555 1_555
C25_5 C24_5 1_555 1_555
C26_5 C25_5 1_555 1_555
C27_5 C26_5 1_555 1_555
H14_5 C27_5 1_555 1_555
C28_5 C23_5 1_555 1_555
H15_5 C28_5 1_555 1_555
C29_5 C26_5 1_555 1_555
In7 O34_5 1_555 1_555
Cu6_5 O25_5 1_555 1_555
O21_5 C108_5 1_555 1_555
O25_5 C108_5 1_555 1_555
O28_5 C56_5 1_555 1_555
O34_5 C56_5 1_555 1_555
C56_5 C58_5 1_555 1_555
C58_5 C60_5 1_555 1_555
C60_5 H31_5 1_555 1_555
C62_5 C60_5 1_555 1_555
H33_5 C62_5 1_555 1_555
C64_5 H35_5 1_555 1_555
C66_5 C62_5 1_555 1_555
C68_5 C58_5 1_555 1_555
C70_5 C66_5 1_555 1_555
C72_5 C70_5 1_555 1_555
H37_5 C72_5 1_555 1_555
C74_5 C72_5 1_555 1_555
C76_5 C74_5 1_555 1_555
H39_5 C76_5 1_555 1_555
C78_5 C76_5 1_555 1_555
C80_5 C70_5 1_555 1_555
H41_5 C80_5 1_555 1_555
C82_5 C74_5 1_555 1_555
C84_5 C82_5 1_555 1_555
H43_5 C84_5 1_555 1_555
C86_5 C84_5 1_555 1_555
H45_5 C86_5 1_555 1_555
C88_5 C86_5 1_555 1_555
C90_5 C88_5 1_555 1_555
H47_5 C90_5 1_555 1_555
C92_5 C82_5 1_555 1_555
H49_5 C92_5 1_555 1_555
C94_5 O39_2 1_555 1_555
C96_5 C78_5 1_555 1_555
C98_5 C96_5 1_555 1_555
H51_5 C98_5 1_555 1_555
C100_5 C98_5 1_555 1_555
H53_5 C100_5 1_555 1_555
C102_5 C100_5 1_555 1_555
C104_5 C102_5 1_555 1_555
H55_5 C104_5 1_555 1_555
C106_5 C96_5 1_555 1_555
H57_5 C106_5 1_555 1_555
C108_5 C102_5 1_555 1_555
C27_5 C28_5 1_555 1_555
C64_5 C66_5 1_555 1_555
C64_5 C68_5 1_555 1_555
C78_5 C80_5 1_555 1_555
C88_5 C94_5 1_555 1_555
C90_5 C92_5 1_555 1_555
C104_5 C106_5 1_555 1_555
C68_5 H61_5 1_555 1_555
In8_3 O9_5 1_555 1_555
In8_4 O9_6 1_555 1_555
O7_9 C29_6 1_555 1_555
H9_6 C18_6 1_555 1_555
C19_6 C18_6 1_555 1_555
C20_6 C19_6 1_555 1_555
H10_6 C20_6 1_555 1_555
C23_6 C19_6 1_555 1_555
C24_6 C23_6 1_555 1_555
C25_6 C24_6 1_555 1_555
C26_6 C25_6 1_555 1_555
C27_6 C26_6 1_555 1_555
H14_6 C27_6 1_555 1_555
C28_6 C23_6 1_555 1_555
H15_6 C28_6 1_555 1_555
C29_6 C26_6 1_555 1_555
In5_2 O21_6 1_555 1_555
In7_2 O34_6 1_555 1_555
Cu6_6 O25_6 1_555 1_555
O21_6 C108_6 1_555 1_555
O25_6 C108_6 1_555 1_555
O28_6 C56_6 1_555 1_555
O34_6 C56_6 1_555 1_555
C56_6 C58_6 1_555 1_555
C58_6 C60_6 1_555 1_555
C60_6 H31_6 1_555 1_555
C62_6 C60_6 1_555 1_555
H33_6 C62_6 1_555 1_555
C64_6 H35_6 1_555 1_555
C66_6 C62_6 1_555 1_555
C68_6 C58_6 1_555 1_555
C70_6 C66_6 1_555 1_555
C72_6 C70_6 1_555 1_555
H37_6 C72_6 1_555 1_555
C74_6 C72_6 1_555 1_555
C76_6 C74_6 1_555 1_555
H39_6 C76_6 1_555 1_555
C78_6 C76_6 1_555 1_555
C80_6 C70_6 1_555 1_555
H41_6 C80_6 1_555 1_555
C82_6 C74_6 1_555 1_555
C84_6 C82_6 1_555 1_555
H43_6 C84_6 1_555 1_555
C86_6 C84_6 1_555 1_555
H45_6 C86_6 1_555 1_555
C88_6 C86_6 1_555 1_555
C90_6 C88_6 1_555 1_555
H47_6 C90_6 1_555 1_555
C92_6 C82_6 1_555 1_555
H49_6 C92_6 1_555 1_555
C94_6 O40_2 1_555 1_555
C96_6 C78_6 1_555 1_555
C98_6 C96_6 1_555 1_555
H51_6 C98_6 1_555 1_555
C100_6 C98_6 1_555 1_555
H53_6 C100_6 1_555 1_555
C102_6 C100_6 1_555 1_555
C104_6 C102_6 1_555 1_555
H55_6 C104_6 1_555 1_555
C106_6 C96_6 1_555 1_555
H57_6 C106_6 1_555 1_555
C108_6 C102_6 1_555 1_555
C27_6 C28_6 1_555 1_555
C64_6 C66_6 1_555 1_555
C64_6 C68_6 1_555 1_555
C78_6 C80_6 1_555 1_555
C88_6 C94_6 1_555 1_555
C90_6 C92_6 1_555 1_555
C104_6 C106_6 1_555 1_555
C68_6 H61_6 1_555 1_555
O5_7 Cu7_6 1_555 1_555
O6_3 C10_7 1_555 1_555
O8_7 C10_7 1_555 1_555
O9_7 C29_7 1_555 1_555
C10_7 C11_7 1_555 1_555
C11_7 C12_7 1_555 1_555
C12_7 H6_7 1_555 1_555
C13_7 C12_7 1_555 1_555
H7_7 C13_7 1_555 1_555
C14_7 H8_7 1_555 1_555
C15_7 C13_7 1_555 1_555
C16_7 C11_7 1_555 1_555
C17_7 C15_7 1_555 1_555
C18_7 C17_7 1_555 1_555
H9_7 C18_7 1_555 1_555
C19_7 C18_7 1_555 1_555
C20_7 C19_7 1_555 1_555
H10_7 C20_7 1_555 1_555
C21_7 C20_7 1_555 1_555
C22_7 C17_7 1_555 1_555
H11_7 C22_7 1_555 1_555
C23_7 C19_7 1_555 1_555
C24_7 C23_7 1_555 1_555
H12_7 C24_7 1_555 1_555
C25_7 C24_7 1_555 1_555
H13_7 C25_7 1_555 1_555
C26_7 C25_7 1_555 1_555
C27_7 C26_7 1_555 1_555
H14_7 C27_7 1_555 1_555
C28_7 C23_7 1_555 1_555
H15_7 C28_7 1_555 1_555
C29_7 C26_7 1_555 1_555
C30_7 C21_7 1_555 1_555
C31_7 C30_7 1_555 1_555
H16_7 C31_7 1_555 1_555
C32_7 C31_7 1_555 1_555
H17_7 C32_7 1_555 1_555
C33_7 C32_7 1_555 1_555
C34_7 C33_7 1_555 1_555
H18_7 C34_7 1_555 1_555
C35_7 C30_7 1_555 1_555
H19_7 C35_7 1_555 1_555
C36_7 O4_3 1_555 1_555
In8_3 O8_7 1_555 1_555
In8_4 O11_3 1_555 1_555
O11_3 Cu7_6 1_555 1_555
O17_7 Cu7_6 1_555 1_555
O5_7 C36_7 1_555 1_555
C14_7 C15_7 1_555 1_555
C14_7 C16_7 1_555 1_555
C21_7 C22_7 1_555 1_555
C27_7 C28_7 1_555 1_555
C33_7 C36_7 1_555 1_555
C34_7 C35_7 1_555 1_555
C16_7 H60_7 1_555 1_555
In7_2 O1_3 1_555 1_555
O1_3 Cu6_5 1_555 1_555
O2_3 C1_5 1_555 1_555
O3_5 In7_2 1_555 1_555
C1_5 O3_5 1_555 1_555
C2_5 C1_5 1_555 1_555
C3_5 C2_5 1_555 1_555
H1_5 C3_5 1_555 1_555
C4_5 C3_5 1_555 1_555
H2_5 C4_5 1_555 1_555
C5_5 C4_5 1_555 1_555
C6_5 C5_5 1_555 1_555
H3_5 C6_5 1_555 1_555
C7_5 C2_5 1_555 1_555
H4_5 C7_5 1_555 1_555
C8_5 C5_5 1_555 1_555
C9_5 C8_5 1_555 1_555
H5_5 C9_5 1_555 1_555
O10_5 In7_2 1_555 1_555
In7_3 O12_3 1_555 1_555
In7 O13_3 1_555 1_555
In5_2 O14_5 1_555 1_555
Cu6_5 O2_3 1_555 1_555
Cu6_6 O12_3 1_555 1_555
Cu6_4 O13_3 1_555 1_555
Cu7_4 O12_3 1_555 1_555
O14_5 Cu6_6 1_555 1_555
O15_3 Cu6_6 1_555 1_555
O16_3 Cu6_4 1_555 1_555
O18_5 In7_3 1_555 1_555
O19_5 In7 1_555 1_555
O22_3 In7_3 1_555 1_555
O30_3 Cu6_6 1_555 1_555
C37_5 O15_3 1_555 1_555
C38_5 O16_3 1_555 1_555
C39_5 C37_5 1_555 1_555
C40_5 C38_5 1_555 1_555
C41_5 C39_5 1_555 1_555
C42_5 C40_5 1_555 1_555
H20_5 C41_5 1_555 1_555
H21_5 C42_5 1_555 1_555
C43_5 C41_5 1_555 1_555
C44_5 C42_5 1_555 1_555
H22_5 C43_5 1_555 1_555
H23_5 C44_5 1_555 1_555
C45_5 C43_5 1_555 1_555
C46_5 C44_5 1_555 1_555
C47_5 C45_5 1_555 1_555
C48_5 C46_5 1_555 1_555
H24_5 C47_5 1_555 1_555
H25_5 C48_5 1_555 1_555
C49_5 C39_5 1_555 1_555
C50_5 C40_5 1_555 1_555
H26_5 C49_5 1_555 1_555
H27_5 C50_5 1_555 1_555
C51_5 C9_5 1_555 1_555
C52_5 C46_5 1_555 1_555
C53_5 C51_5 1_555 1_555
C54_5 C8_5 1_555 1_555
H28_5 C54_5 1_555 1_555
H29_5 C53_5 1_555 1_555
O41_5 In7_3 1_555 1_555
O42_5 In7 1_555 1_555
C6_5 C7_5 1_555 1_555
Cu7_4 O14_5 1_555 1_555
O18_5 C37_5 1_555 1_555
O19_5 C38_5 1_555 1_555
C45_5 C51_5 1_555 1_555
C47_5 C49_5 1_555 1_555
C48_5 C50_5 1_555 1_555
C52_5 C53_5 1_555 1_555
C52_5 C54_5 1_555 1_555
O10_5 H58_5 1_555 1_555
O10_5 H59_4 1_555 1_555
O42_5 H63_5 1_555 1_555
O42_5 H64_4 1_555 1_555
O41_5 H65_5 1_555 1_555
O41_5 H66_4 1_555 1_555
O5_8 Cu7_4 1_555 1_555
O29_3 C10_8 1_555 1_555
O8_8 C10_8 1_555 1_555
O9_8 C29_8 1_555 1_555
C10_8 C11_8 1_555 1_555
C11_8 C12_8 1_555 1_555
C12_8 H6_8 1_555 1_555
C13_8 C12_8 1_555 1_555
H7_8 C13_8 1_555 1_555
C14_8 H8_8 1_555 1_555
C15_8 C13_8 1_555 1_555
C16_8 C11_8 1_555 1_555
C17_8 C15_8 1_555 1_555
C18_8 C17_8 1_555 1_555
H9_8 C18_8 1_555 1_555
C19_8 C18_8 1_555 1_555
C20_8 C19_8 1_555 1_555
H10_8 C20_8 1_555 1_555
C21_8 C20_8 1_555 1_555
C22_8 C17_8 1_555 1_555
H11_8 C22_8 1_555 1_555
C23_8 C19_8 1_555 1_555
C24_8 C23_8 1_555 1_555
H12_8 C24_8 1_555 1_555
C25_8 C24_8 1_555 1_555
H13_8 C25_8 1_555 1_555
C26_8 C25_8 1_555 1_555
C27_8 C26_8 1_555 1_555
H14_8 C27_8 1_555 1_555
C28_8 C23_8 1_555 1_555
H15_8 C28_8 1_555 1_555
C29_8 C26_8 1_555 1_555
C30_8 C21_8 1_555 1_555
C31_8 C30_8 1_555 1_555
H16_8 C31_8 1_555 1_555
C32_8 C31_8 1_555 1_555
H17_8 C32_8 1_555 1_555
C33_8 C32_8 1_555 1_555
C34_8 C33_8 1_555 1_555
H18_8 C34_8 1_555 1_555
C35_8 C30_8 1_555 1_555
H19_8 C35_8 1_555 1_555
C36_8 O22_3 1_555 1_555
In8_4 O8_8 1_555 1_555
O17_8 Cu7_4 1_555 1_555
O5_8 C36_8 1_555 1_555
C14_8 C15_8 1_555 1_555
C14_8 C16_8 1_555 1_555
C21_8 C22_8 1_555 1_555
C27_8 C28_8 1_555 1_555
C33_8 C36_8 1_555 1_555
C34_8 C35_8 1_555 1_555
C16_8 H60_8 1_555 1_555
In8_3 O14_6 1_555 1_555
Cu7_5 O14_6 1_555 1_555
O5_9 Cu7_5 1_555 1_555
O30_3 C10_9 1_555 1_555
O8_9 C10_9 1_555 1_555
O9_9 C29_9 1_555 1_555
C10_9 C11_9 1_555 1_555
C11_9 C12_9 1_555 1_555
C12_9 H6_9 1_555 1_555
C13_9 C12_9 1_555 1_555
H7_9 C13_9 1_555 1_555
C14_9 H8_9 1_555 1_555
C15_9 C13_9 1_555 1_555
C16_9 C11_9 1_555 1_555
C17_9 C15_9 1_555 1_555
C18_9 C17_9 1_555 1_555
H9_9 C18_9 1_555 1_555
C19_9 C18_9 1_555 1_555
C20_9 C19_9 1_555 1_555
H10_9 C20_9 1_555 1_555
C21_9 C20_9 1_555 1_555
C22_9 C17_9 1_555 1_555
H11_9 C22_9 1_555 1_555
C23_9 C19_9 1_555 1_555
C24_9 C23_9 1_555 1_555
H12_9 C24_9 1_555 1_555
C25_9 C24_9 1_555 1_555
H13_9 C25_9 1_555 1_555
C26_9 C25_9 1_555 1_555
C27_9 C26_9 1_555 1_555
H14_9 C27_9 1_555 1_555
C28_9 C23_9 1_555 1_555
H15_9 C28_9 1_555 1_555
C29_9 C26_9 1_555 1_555
C30_9 C21_9 1_555 1_555
C31_9 C30_9 1_555 1_555
H16_9 C31_9 1_555 1_555
C32_9 C31_9 1_555 1_555
H17_9 C32_9 1_555 1_555
C33_9 C32_9 1_555 1_555
C34_9 C33_9 1_555 1_555
H18_9 C34_9 1_555 1_555
C35_9 C30_9 1_555 1_555
H19_9 C35_9 1_555 1_555
C36_9 O23_3 1_555 1_555
In5_2 O8_9 1_555 1_555
O17_9 Cu7_5 1_555 1_555
O5_9 C36_9 1_555 1_555
C14_9 C15_9 1_555 1_555
C14_9 C16_9 1_555 1_555
C21_9 C22_9 1_555 1_555
C27_9 C28_9 1_555 1_555
C33_9 C36_9 1_555 1_555
C34_9 C35_9 1_555 1_555
C16_9 H60_9 1_555 1_555
O17_7 C1_6 1_555 1_555
O3_6 In8_4 1_555 1_555
C1_6 O3_6 1_555 1_555
C2_6 C1_6 1_555 1_555
C3_6 C2_6 1_555 1_555
H1_6 C3_6 1_555 1_555
C4_6 C3_6 1_555 1_555
H2_6 C4_6 1_555 1_555
C5_6 C4_6 1_555 1_555
C6_6 C5_6 1_555 1_555
H3_6 C6_6 1_555 1_555
C7_6 C2_6 1_555 1_555
H4_6 C7_6 1_555 1_555
C8_6 C5_6 1_555 1_555
C9_6 C8_6 1_555 1_555
H5_6 C9_6 1_555 1_555
O10_6 In8_4 1_555 1_555
O18_6 In5_2 1_555 1_555
O19_6 In8_3 1_555 1_555
C37_6 O17_8 1_555 1_555
C38_6 O17_9 1_555 1_555
C39_6 C37_6 1_555 1_555
C40_6 C38_6 1_555 1_555
C41_6 C39_6 1_555 1_555
C42_6 C40_6 1_555 1_555
H20_6 C41_6 1_555 1_555
H21_6 C42_6 1_555 1_555
C43_6 C41_6 1_555 1_555
C44_6 C42_6 1_555 1_555
H22_6 C43_6 1_555 1_555
H23_6 C44_6 1_555 1_555
C45_6 C43_6 1_555 1_555
C46_6 C44_6 1_555 1_555
C47_6 C45_6 1_555 1_555
C48_6 C46_6 1_555 1_555
H24_6 C47_6 1_555 1_555
H25_6 C48_6 1_555 1_555
C49_6 C39_6 1_555 1_555
C50_6 C40_6 1_555 1_555
H26_6 C49_6 1_555 1_555
H27_6 C50_6 1_555 1_555
C51_6 C9_6 1_555 1_555
C52_6 C46_6 1_555 1_555
C53_6 C51_6 1_555 1_555
C54_6 C8_6 1_555 1_555
H28_6 C54_6 1_555 1_555
H29_6 C53_6 1_555 1_555
O41_6 In5_2 1_555 1_555
O42_6 In8_3 1_555 1_555
C6_6 C7_6 1_555 1_555
O18_6 C37_6 1_555 1_555
O19_6 C38_6 1_555 1_555
C45_6 C51_6 1_555 1_555
C47_6 C49_6 1_555 1_555
C48_6 C50_6 1_555 1_555
C52_6 C53_6 1_555 1_555
C52_6 C54_6 1_555 1_555
O10_6 H58_6 1_555 1_555
O10_6 H59_6 1_555 1_555
O42_6 H63_6 1_555 1_555
O42_6 H64_6 1_555 1_555
O41_6 H65_6 1_555 1_555
O41_6 H66_6 1_555 1_555

#END
