
###############################################################################
#
# This file contains modified crystal structure data generated from the
# MOF subset of the Cambridge Structural Database (CSD) v543 
# hosted by the Cambridge Crystallographic Data Centre (CCDC).
#
# This work is licensed under the Creative Commons
# Attribution-NonCommercial-ShareAlike 4.0 International License.
# To view a copy of this license, visit
# http://creativecommons.org/licenses/by-nc-sa/4.0/
# or send a letter to
# Creative Commons, PO Box 1866, Mountain View, CA 94042, USA.
#
# CIF created using the CSD Python API on 29 September 2022
# The structure has been converted into the P1 space group
# The structure has a 3D framework
# The original CSD entry WAVROC is in the rhombohedral crystal system
# The framework has been calculated to contain at least 10.0% void space
# The void calculation uses a probe of radius 1.32A, grid spacing 0.4
# H atom positions have been added when not included in the experimental data
#
###############################################################################

data_WAVROC
_chemical_formula_moiety         '(C1296 H864 In32 Mg36 O372)n'
_symmetry_cell_setting           triclinic
_symmetry_space_group_name_H-M   'P 1'
_symmetry_Int_Tables_number      1
_space_group_name_Hall           'P 1'
loop_
_symmetry_equiv_pos_site_id
_symmetry_equiv_pos_as_xyz
1 x,y,z
_cell_length_a                   32.2214(3)
_cell_length_b                   32.2214(3)
_cell_length_c                   92.442(2)
_cell_angle_alpha                90
_cell_angle_beta                 90
_cell_angle_gamma                120
_cell_volume                     83116.8
loop_
_atom_site_label
_atom_site_type_symbol
_atom_site_fract_x
_atom_site_fract_y
_atom_site_fract_z
O32 O 0.05327(16) 0.46324(12) 0.10844(3)
O38 O 0.02708(14) 0.47046(9) 0.07934(3)
H66 H 0.00676969 0.512039 0.110048
H71 H 0.0522034 0.482484 0.116672
H72 H 0.0579732 0.436983 0.112173
In4 In 0.013888(13) 0.640181(9) 0.932947(3)
Mg7 Mg 0.44522(5) 0.01119(6) 0.096960(13)
In8 In 0.373707(9) 0.013888(13) 0.067053(3)
O44 O 0.37876(11) 0.00078(8) 0.08999(2)
O45 O 0.44062(9) 0.07797(13) 0.06680(3)
O47 O 0.36768(9) 0.03640(13) 0.04594(3)
O48 O 0.33411(8) 0.04543(11) 0.07668(2)
In1 In 0.640181(9) 0.626293(9) 0.067053(3)
Mg1 Mg 0.56597(4) 0.55478(5) 0.096960(13)
O1 O 0.63735(9) 0.55938(9) 0.06680(3)
O2 O 0.59064(10) 0.51701(10) 0.08547(3)
O7 O 0.66872(10) 0.63232(9) 0.04594(3)
O8 O 0.73080(10) 0.62147(10) 0.05154(3)
O9 O 0.71132(8) 0.66589(8) 0.07668(2)
C1 C 0.65366(14) 0.36880(14) 0.06163(5)
C2 C 0.70258(15) 0.37981(16) 0.06153(5)
H1 H 0.7266 0.4119 0.0614
C3 C 0.60496(16) 0.39976(16) 0.07287(5)
H2 H 0.5863 0.3696 0.0770
C4 C 0.66770(15) 0.45191(15) 0.05712(5)
H3 H 0.6920 0.4578 0.0506
C5 C 0.62320(14) 0.48133(14) 0.07033(4)
C6 C 0.59569(15) 0.43652(15) 0.07648(5)
H4 H 0.5713 0.4309 0.0830
C7 C 0.61587(15) 0.52204(14) 0.07464(5)
C8 C 0.65814(15) 0.48823(15) 0.06056(5)
H5 H 0.6758 0.5180 0.0562
C9 C 0.64149(15) 0.40743(14) 0.06330(5)
C27 C 0.66565(18) 0.5849(3) 0.00429(5)
C30 C 0.70055(16) 0.62073(15) 0.04306(4)
C33 C 0.73152(17) 0.5750(2) 0.00947(5)
H18 H 0.7542 0.5669 0.0066
C34 C 0.73214(16) 0.59029(19) 0.02355(5)
H19 H 0.7545 0.5914 0.0301
C35 C 0.69962(15) 0.60379(18) 0.02777(4)
C36 C 0.66572(16) 0.6005(2) 0.01812(5)
H20 H 0.6431 0.6088 0.0209
O10 O 0.50944(11) 0.48930(13) 0.10360(3)
O11 O 0.53676(12) 0.59003(11) 0.10844(3)
C37 C 0.71514(20) 0.34634(14) 0.06163(5)
C38 C 0.67723(22) 0.29742(15) 0.06153(5)
C39 C 0.63120(14) 0.28486(20) 0.06163(5)
C40 C 0.62019(16) 0.32277(22) 0.06153(5)
H21 H 0.5881 0.3147 0.0614
C41 C 0.59257(14) 0.23406(21) 0.06330(5)
C42 C 0.60024(16) 0.20520(23) 0.07287(5)
H22 H 0.6304 0.2167 0.0770
C43 C 0.56348(15) 0.15917(21) 0.07648(5)
C44 C 0.51867(14) 0.14187(20) 0.07033(4)
C45 C 0.47796(14) 0.09383(21) 0.07464(5)
O13 O 0.48299(10) 0.07363(14) 0.08547(3)
C46 C 0.51177(15) 0.16991(21) 0.06056(5)
C47 C 0.54809(15) 0.21579(21) 0.05712(5)
H23 H 0.5422 0.2342 0.0506
H24 H 0.4820 0.1578 0.0562
H25 H 0.5691 0.1404 0.0830
H26 H 0.6853 0.2734 0.0614
C48 C 0.76594(21) 0.35851(15) 0.06330(5)
C49 C 0.79480(23) 0.39504(16) 0.07287(5)
H27 H 0.7833 0.4137 0.0770
C50 C 0.84083(21) 0.40431(15) 0.07648(5)
C51 C 0.85813(20) 0.37680(14) 0.07033(4)
C52 C 0.90617(21) 0.38413(15) 0.07464(5)
O14 O 0.92203(13) 0.36265(9) 0.06680(3)
O15 O 0.92637(14) 0.40936(10) 0.08547(3)
C53 C 0.83009(21) 0.34186(15) 0.06056(5)
C54 C 0.78421(21) 0.33230(15) 0.05712(5)
H28 H 0.7658 0.3080 0.0506
H29 H 0.8422 0.3242 0.0562
H30 H 0.8596 0.4287 0.0830
O16 O 0.09207(10) 0.41203(12) 0.08125(3)
O17 O 0.05078(9) 0.35891(10) 0.06355(3)
O18 O 0.52954(9) 0.55662(11) 0.07934(3)
O19 O 0.56840(9) 0.59342(11) 0.05893(3)
C55 C 0.13451(17) 0.3792(2) 0.04976(6)
H31 H 0.1065 0.3516 0.0471
C56 C 0.08986(15) 0.39190(19) 0.06963(5)
C57 C 0.13456(15) 0.4054(2) 0.06112(5)
C58 C 0.17649(17) 0.4467(2) 0.06451(6)
H32 H 0.1768 0.4652 0.0723
C59 C 0.17677(19) 0.3938(3) 0.04195(6)
H33 H 0.1760 0.3754 0.0341
C60 C 0.26303(16) 0.4480(2) 0.03700(5)
C61 C 0.21819(17) 0.4331(2) 0.04531(5)
C62 C 0.21784(17) 0.4614(2) 0.05678(5)
H34 H 0.2454 0.4900 0.0591
C63 C 0.48368(15) 0.54916(18) 0.05882(5)
C64 C 0.44235(16) 0.5213(2) 0.06614(5)
H35 H 0.4433 0.5153 0.0759
C65 C 0.48203(15) 0.5604(2) 0.04436(5)
H36 H 0.5102 0.5813 0.0395
C66 C 0.53069(15) 0.56747(16) 0.06663(5)
C67 C 0.30670(17) 0.4736(2) 0.04393(5)
H37 H 0.3076 0.4825 0.0535
C68 C 0.39822(17) 0.5017(2) 0.05895(5)
H38 H 0.3699 0.4829 0.0640
C69 C 0.35015(17) 0.4866(2) 0.03661(5)
C70 C 0.39663(16) 0.5101(2) 0.04437(5)
C71 C 0.43887(17) 0.5405(2) 0.03720(5)
H39 H 0.4381 0.5476 0.0275
H40 H 0.3572 0.4168 0.0022
C73 C 0.30335(16) 0.4464(3) 0.01517(5)
C74 C 0.34808(17) 0.4737(2) 0.02232(5)
H41 H 0.3763 0.4829 0.0173
C76 C 0.26252(17) 0.4360(2) 0.02269(5)
H42 H 0.2332 0.4201 0.0179
C77 C 0.30227(16) 0.4283(2) 0.00027(5)
O22 O 0.58797(12) 0.68004(16) 0.08125(3)
O23 O 0.64109(10) 0.69187(13) 0.06355(3)
O24 O 0.44338(11) 0.97292(14) 0.07934(3)
O25 O 0.40658(11) 0.97498(14) 0.05893(3)
C82 C 0.6208(2) 0.75531(26) 0.04976(6)
H46 H 0.6484 0.7549 0.0471
C83 C 0.60810(19) 0.69796(24) 0.06963(5)
C84 C 0.5946(2) 0.72916(25) 0.06112(5)
C85 C 0.5533(2) 0.72979(26) 0.06451(6)
H47 H 0.5348 0.7116 0.0723
C86 C 0.6062(3) 0.78297(36) 0.04195(6)
H48 H 0.6246 0.8006 0.0341
C87 C 0.5520(2) 0.81503(26) 0.03700(5)
C88 C 0.5669(2) 0.78509(26) 0.04531(5)
C89 C 0.5386(2) 0.75644(26) 0.05678(5)
H49 H 0.5100 0.7554 0.0591
C90 C 0.45084(18) 0.93452(23) 0.05882(5)
C91 C 0.4787(2) 0.92105(26) 0.06614(5)
H50 H 0.4847 0.9280 0.0759
C92 C 0.4396(2) 0.92163(25) 0.04436(5)
H51 H 0.4187 0.9289 0.0395
C93 C 0.43253(16) 0.96322(22) 0.06663(5)
C94 C 0.5264(2) 0.83310(26) 0.04393(5)
H52 H 0.5175 0.8251 0.0535
C95 C 0.4983(2) 0.89652(26) 0.05895(5)
H53 H 0.5171 0.8870 0.0640
C96 C 0.5134(2) 0.86355(26) 0.03661(5)
C97 C 0.4899(2) 0.88653(26) 0.04437(5)
C98 C 0.4595(2) 0.89837(26) 0.03720(5)
H54 H 0.4524 0.8905 0.0275
H55 H 0.5832 0.9404 0.0022
C100 C 0.5536(3) 0.85695(34) 0.01517(5)
C101 C 0.5263(2) 0.87438(26) 0.02232(5)
H56 H 0.5171 0.8934 0.0173
C103 C 0.5640(2) 0.82652(26) 0.02269(5)
H57 H 0.5799 0.8131 0.0179
C104 C 0.5717(2) 0.87397(26) 0.00027(5)
O28 O 0.62201(8) 0.62124(11) 0.08999(2)
In3 In 0.986112(13) 0.359819(9) 0.067053(3)
Mg3 Mg 0.98881(6) 0.43403(4) 0.096960(13)
O29 O 0.51070(13) 0.02014(17) 0.10360(3)
O31 O 0.97986(17) 0.49056(11) 0.10360(3)
O33 O 0.60253(10) 0.55734(14) 0.11513(3)
Mg5 Mg 0.76736(4) 0.65548(6) 0.069707(13)
In6 In 0.693152(9) 0.652779(13) 0.099614(3)
O35 O 0.99922(8) 0.37799(8) 0.08999(2)
O37 O 0.44266(14) 0.04520(10) 0.11513(3)
O39 O 0.95480(10) 0.39747(10) 0.11513(3)
O46 O 0.30813(13) 0.94922(9) 0.06355(3)
H61 H 0.517516 0.56972 0.116672
H62 H 0.563017 0.62099 0.112173
H63 H 0.522128 0.471235 0.108923
H64 H 0.487961 0.49473 0.110048
H65 H 0.949107 0.477872 0.108923
H67 H 0.528765 0.0508933 0.108923
O3 O 0.90793(10) 0.58797(12) 0.91875(3)
O4 O 0.94922(9) 0.64109(10) 0.93645(3)
O5 O 0.47046(9) 0.44338(11) 0.92066(3)
O6 O 0.43160(9) 0.40658(11) 0.94107(3)
C10 C 0.86549(17) 0.6208(2) 0.95024(6)
H6 H 0.8935 0.6484 0.9529
C11 C 0.91014(15) 0.60810(19) 0.93037(5)
C12 C 0.86544(15) 0.5946(2) 0.93888(5)
C13 C 0.82351(17) 0.5533(2) 0.93549(6)
H7 H 0.8232 0.5348 0.9277
C14 C 0.82323(19) 0.6062(3) 0.95805(6)
H8 H 0.8240 0.6246 0.9659
C15 C 0.73697(16) 0.5520(2) 0.96300(5)
C16 C 0.78181(17) 0.5669(2) 0.95469(5)
C17 C 0.78216(17) 0.5386(2) 0.94322(5)
H9 H 0.7546 0.5100 0.9409
C18 C 0.51632(15) 0.45084(18) 0.94118(5)
C19 C 0.55765(16) 0.4787(2) 0.93386(5)
H10 H 0.5567 0.4847 0.9241
C20 C 0.51797(15) 0.4396(2) 0.95564(5)
H11 H 0.4898 0.4187 0.9605
C21 C 0.46931(15) 0.43253(16) 0.93337(5)
C22 C 0.69330(17) 0.5264(2) 0.95607(5)
H12 H 0.6924 0.5175 0.9465
C23 C 0.60178(17) 0.4983(2) 0.94105(5)
H13 H 0.6301 0.5171 0.9360
C24 C 0.64985(17) 0.5134(2) 0.96339(5)
C25 C 0.60337(16) 0.4899(2) 0.95563(5)
C26 C 0.56113(17) 0.4595(2) 0.96280(5)
H14 H 0.5619 0.4524 0.9725
H15 H 0.6428 0.5832 0.9978
C28 C 0.69665(16) 0.5536(3) 0.98483(5)
C29 C 0.65192(17) 0.5263(2) 0.97768(5)
H16 H 0.6237 0.5171 0.9827
C31 C 0.73748(17) 0.5640(2) 0.97731(5)
H17 H 0.7668 0.5799 0.9821
C32 C 0.69773(16) 0.5717(2) 0.99973(5)
O20 O 0.33128(10) 0.36768(9) 0.95406(3)
O21 O 0.26920(10) 0.37853(10) 0.94846(3)
C72 C 0.33435(18) 0.4151(3) 0.99571(5)
C75 C 0.29945(16) 0.37927(15) 0.95694(4)
C78 C 0.26848(17) 0.4250(2) 0.99053(5)
H43 H 0.2458 0.4331 0.9934
C79 C 0.26786(16) 0.40971(19) 0.97645(5)
H44 H 0.2455 0.4086 0.9699
C80 C 0.30038(15) 0.39621(18) 0.97223(4)
C81 C 0.33428(16) 0.3995(2) 0.98188(5)
H45 H 0.3569 0.3912 0.9791
O26 O 0.63232(9) 0.96360(13) 0.95406(3)
O27 O 0.62147(10) 0.89067(14) 0.94846(3)
C99 C 0.5849(3) 0.91925(35) 0.99571(5)
C102 C 0.62073(15) 0.92018(22) 0.95694(4)
C105 C 0.5750(2) 0.84348(26) 0.99053(5)
H58 H 0.5669 0.8127 0.9934
C106 C 0.59029(19) 0.85815(25) 0.97645(5)
H59 H 0.5914 0.8369 0.9699
C107 C 0.60379(18) 0.90417(23) 0.97223(4)
C108 C 0.6005(2) 0.93478(26) 0.98188(5)
H60 H 0.6088 0.9657 0.9791
Mg4 Mg 0.43403(4) 0.44522(5) 0.903040(13)
In5 In 0.359819(9) 0.373707(9) 0.932947(3)
Mg6 Mg 0.23264(4) 0.34452(6) 0.930293(13)
In9 In 0.626293(9) 0.986112(13) 0.932947(3)
Mg8 Mg 0.65548(6) 0.88811(5) 0.930293(13)
O40 O 0.37799(8) 0.37876(11) 0.91001(2)
O41 O 0.36265(9) 0.44062(9) 0.93320(3)
O42 O 0.35891(10) 0.30813(13) 0.93645(3)
O43 O 0.28868(8) 0.33411(8) 0.92332(2)
In10 In 0.306848(9) 0.347221(13) 0.900386(3)
O30 O 0.40997(11) 0.94673(16) 0.10844(3)
H68 H 0.50527 0.99323 0.110048
H69 H 0.43028 0.947797 0.116672
H70 H 0.37901 0.942027 0.112173
O8_2 O 0.37853(10) 0.10933(14) 0.05154(3)
C27_2 C 0.4151(3) 0.08075(35) 0.00429(5)
C30_2 C 0.37927(15) 0.07982(22) 0.04306(4)
C33_2 C 0.4250(2) 0.15652(26) 0.00947(5)
H18_2 H 0.4331 0.1873 0.0066
C34_2 C 0.40971(19) 0.14185(25) 0.02355(5)
H19_2 H 0.4086 0.1631 0.0301
C35_2 C 0.39621(18) 0.09583(23) 0.02777(4)
C36_2 C 0.3995(2) 0.06522(26) 0.01812(5)
H20_2 H 0.3912 0.0343 0.0209
Mg5_2 Mg 0.34452(6) 0.11189(7) 0.069707(13)
In6_2 In 0.347221(13) 0.040374(16) 0.099614(3)
O3_2 O 0.41203(12) 0.31996(16) 0.91875(3)
O5_2 O 0.55662(11) 0.02708(14) 0.92066(3)
O6_2 O 0.59342(11) 0.02502(14) 0.94107(3)
C10_2 C 0.3792(2) 0.24469(26) 0.95024(6)
H6_2 H 0.3516 0.2451 0.9529
C11_2 C 0.39190(19) 0.30204(24) 0.93037(5)
C12_2 C 0.4054(2) 0.27084(25) 0.93888(5)
C13_2 C 0.4467(2) 0.27021(26) 0.93549(6)
H7_2 H 0.4652 0.2884 0.9277
C14_2 C 0.3938(3) 0.21703(36) 0.95805(6)
H8_2 H 0.3754 0.1994 0.9659
C15_2 C 0.4480(2) 0.18497(26) 0.96300(5)
C16_2 C 0.4331(2) 0.21491(26) 0.95469(5)
C17_2 C 0.4614(2) 0.24356(26) 0.94322(5)
H9_2 H 0.4900 0.2446 0.9409
C18_2 C 0.54916(18) 0.06548(23) 0.94118(5)
C19_2 C 0.5213(2) 0.07895(26) 0.93386(5)
H10_2 H 0.5153 0.0720 0.9241
C20_2 C 0.5604(2) 0.07837(25) 0.95564(5)
H11_2 H 0.5813 0.0711 0.9605
C21_2 C 0.56747(16) 0.03678(22) 0.93337(5)
C22_2 C 0.4736(2) 0.16690(26) 0.95607(5)
H12_2 H 0.4825 0.1749 0.9465
C23_2 C 0.5017(2) 0.10348(26) 0.94105(5)
H13_2 H 0.4829 0.1130 0.9360
C24_2 C 0.4866(2) 0.13645(26) 0.96339(5)
C25_2 C 0.5101(2) 0.11347(26) 0.95563(5)
C26_2 C 0.5405(2) 0.10163(26) 0.96280(5)
H14_2 H 0.5476 0.1095 0.9725
H15_2 H 0.4168 0.0596 0.9978
C28_2 C 0.4464(3) 0.14305(34) 0.98483(5)
C29_2 C 0.4737(2) 0.12562(26) 0.97768(5)
H16_2 H 0.4829 0.1066 0.9827
C31_2 C 0.4360(2) 0.17348(26) 0.97731(5)
H17_2 H 0.4201 0.1869 0.9821
C32_2 C 0.4283(2) 0.12603(26) 0.99973(5)
O42_2 O 0.69187(13) 0.05078(16) 0.93645(3)
O22_2 O 0.31996(16) 0.90793(20) 0.08125(3)
O25_2 O 0.02502(14) 0.43160(18) 0.05893(3)
C82_2 C 0.24469(26) 0.86549(33) 0.04976(6)
H46_2 H 0.2451 0.8935 0.0471
C83_2 C 0.30204(24) 0.91014(31) 0.06963(5)
C84_2 C 0.27084(25) 0.86544(32) 0.06112(5)
C85_2 C 0.27021(26) 0.82351(33) 0.06451(6)
H47_2 H 0.2884 0.8232 0.0723
C86_2 C 0.21703(36) 0.82323(47) 0.04195(6)
H48_2 H 0.1994 0.8240 0.0341
C87_2 C 0.18497(26) 0.73697(33) 0.03700(5)
C88_2 C 0.21491(26) 0.78181(33) 0.04531(5)
C89_2 C 0.24356(26) 0.78216(33) 0.05678(5)
H49_2 H 0.2446 0.7546 0.0591
C90_2 C 0.06548(23) 0.51632(29) 0.05882(5)
C91_2 C 0.07895(26) 0.55765(33) 0.06614(5)
H50_2 H 0.0720 0.5567 0.0759
C92_2 C 0.07837(25) 0.51797(32) 0.04436(5)
H51_2 H 0.0711 0.4898 0.0395
C93_2 C 0.03678(22) 0.46931(27) 0.06663(5)
C94_2 C 0.16690(26) 0.69330(33) 0.04393(5)
H52_2 H 0.1749 0.6924 0.0535
C95_2 C 0.10348(26) 0.60178(33) 0.05895(5)
H53_2 H 0.1130 0.6301 0.0640
C96_2 C 0.13645(26) 0.64985(33) 0.03661(5)
C97_2 C 0.11347(26) 0.60337(33) 0.04437(5)
C98_2 C 0.10163(26) 0.56113(33) 0.03720(5)
H54_2 H 0.1095 0.5619 0.0275
H55_2 H 0.0596 0.6428 0.0022
C100_2 C 0.14305(34) 0.69665(45) 0.01517(5)
C101_2 C 0.12562(26) 0.65192(33) 0.02232(5)
H56_2 H 0.1066 0.6237 0.0173
C103_2 C 0.17348(26) 0.73748(33) 0.02269(5)
H57_2 H 0.1869 0.7668 0.0179
C104_2 C 0.12603(26) 0.69773(33) 0.00027(5)
O26_2 O 0.03640(13) 0.66872(16) 0.95406(3)
O27_2 O 0.10933(14) 0.73080(17) 0.94846(3)
C99_2 C 0.08075(35) 0.66565(46) 0.99571(5)
C102_2 C 0.07982(22) 0.70055(27) 0.95694(4)
C105_2 C 0.15652(26) 0.73152(33) 0.99053(5)
H58_2 H 0.1873 0.7542 0.9934
C106_2 C 0.14185(25) 0.73214(31) 0.97645(5)
H59_2 H 0.1631 0.7545 0.9699
C107_2 C 0.09583(23) 0.69962(29) 0.97223(4)
C108_2 C 0.06522(26) 0.66572(33) 0.98188(5)
H60_2 H 0.0343 0.6431 0.9791
Mg4_2 Mg 0.55478(5) 0.98881(6) 0.903040(13)
Mg8_2 Mg 0.11189(5) 0.76736(8) 0.930293(13)
O40_2 O 0.62124(11) 0.99922(14) 0.91001(2)
O41_2 O 0.55938(9) 0.92203(13) 0.93320(3)
O43_2 O 0.66589(8) 0.95457(11) 0.92332(2)
In10_2 In 0.652779(13) 0.959626(16) 0.900386(3)
O47_2 O 0.96360(13) 0.33128(16) 0.04594(3)
O48_2 O 0.95457(11) 0.28868(14) 0.07668(2)
Mg4_3 Mg 0.01119(6) 0.56597(4) 0.903040(13)
O40_3 O 0.00078(14) 0.62201(8) 0.91001(2)
O41_3 O 0.07797(13) 0.63735(9) 0.93320(3)
O43_3 O 0.04543(11) 0.71132(8) 0.92332(2)
In10_3 In 0.040374(16) 0.693152(9) 0.900386(3)
O8_3 O 0.89067(14) 0.26920(10) 0.05154(3)
C27_3 C 0.91925(35) 0.33435(18) 0.00429(5)
C30_3 C 0.92018(22) 0.29945(16) 0.04306(4)
C33_3 C 0.84348(26) 0.26848(17) 0.00947(5)
H18_3 H 0.8127 0.2458 0.0066
C34_3 C 0.85815(25) 0.26786(16) 0.02355(5)
H19_3 H 0.8369 0.2455 0.0301
C35_3 C 0.90417(23) 0.30038(15) 0.02777(4)
C36_3 C 0.93478(26) 0.33428(16) 0.01812(5)
H20_3 H 0.9657 0.3569 0.0209
Mg5_3 Mg 0.88811(7) 0.23264(4) 0.069707(13)
In6_3 In 0.959626(16) 0.306848(9) 0.099614(3)
O3_3 O 0.68004(16) 0.09207(10) 0.91875(3)
O5_3 O 0.97292(14) 0.52954(9) 0.92066(3)
O6_3 O 0.97498(14) 0.56840(9) 0.94107(3)
C10_3 C 0.75531(26) 0.13451(17) 0.95024(6)
H6_3 H 0.7549 0.1065 0.9529
C11_3 C 0.69796(24) 0.08986(15) 0.93037(5)
C12_3 C 0.72916(25) 0.13456(15) 0.93888(5)
C13_3 C 0.72979(26) 0.17649(17) 0.93549(6)
H7_3 H 0.7116 0.1768 0.9277
C14_3 C 0.78297(36) 0.17677(19) 0.95805(6)
H8_3 H 0.8006 0.1760 0.9659
C15_3 C 0.81503(26) 0.26303(16) 0.96300(5)
C16_3 C 0.78509(26) 0.21819(17) 0.95469(5)
C17_3 C 0.75644(26) 0.21784(17) 0.94322(5)
H9_3 H 0.7554 0.2454 0.9409
C18_3 C 0.93452(23) 0.48368(15) 0.94118(5)
C19_3 C 0.92105(26) 0.44235(16) 0.93386(5)
H10_3 H 0.9280 0.4433 0.9241
C20_3 C 0.92163(25) 0.48203(15) 0.95564(5)
H11_3 H 0.9289 0.5102 0.9605
C21_3 C 0.96322(22) 0.53069(15) 0.93337(5)
C22_3 C 0.83310(26) 0.30670(17) 0.95607(5)
H12_3 H 0.8251 0.3076 0.9465
C23_3 C 0.89652(26) 0.39822(17) 0.94105(5)
H13_3 H 0.8870 0.3699 0.9360
C24_3 C 0.86355(26) 0.35015(17) 0.96339(5)
C25_3 C 0.88653(26) 0.39663(16) 0.95563(5)
C26_3 C 0.89837(26) 0.43887(17) 0.96280(5)
H14_3 H 0.8905 0.4381 0.9725
H15_3 H 0.9404 0.3572 0.9978
C28_3 C 0.85695(34) 0.30335(16) 0.98483(5)
C29_3 C 0.87438(26) 0.34808(17) 0.97768(5)
H16_3 H 0.8934 0.3763 0.9827
C31_3 C 0.82652(26) 0.26252(17) 0.97731(5)
H17_3 H 0.8131 0.2332 0.9821
C32_3 C 0.87397(26) 0.30227(16) 0.99973(5)
Mg7_2 Mg 0.01119(6) 0.44522(5) 0.403040(13)
In8_2 In 0.013888(13) 0.373707(9) 0.432947(3)
O44_2 O 0.00078(8) 0.37876(11) 0.41001(2)
O45_2 O 0.07797(13) 0.44062(9) 0.43320(3)
O47_3 O 0.03640(13) 0.36768(9) 0.45406(3)
O48_3 O 0.04543(11) 0.33411(8) 0.42332(2)
O32_2 O 0.46324(12) 0.05327(16) 0.39156(3)
In4_2 In 0.640181(9) 0.013888(13) 0.567053(3)
O38_2 O 0.47046(9) 0.02708(14) 0.42066(3)
H66_2 H 0.512039 0.00676969 0.389952
H71_2 H 0.482484 0.0522034 0.383328
H72_2 H 0.436983 0.0579732 0.387827
In1_2 In 0.626293(9) 0.640181(9) 0.432947(3)
Mg1_2 Mg 0.55478(5) 0.56597(4) 0.403040(13)
O1_2 O 0.55938(9) 0.63735(9) 0.43320(3)
O2_2 O 0.51701(10) 0.59064(10) 0.41453(3)
O3_4 O 0.58797(12) 0.90793(10) 0.58125(3)
O4_2 O 0.64109(10) 0.94922(9) 0.56355(3)
O5_4 O 0.44338(11) 0.47046(9) 0.57934(3)
O6_4 O 0.40658(11) 0.43160(9) 0.55893(3)
O7_2 O 0.63232(9) 0.66872(10) 0.45406(3)
O8_4 O 0.62147(10) 0.73080(10) 0.44846(3)
O9_2 O 0.66589(8) 0.71132(8) 0.42332(2)
C1_2 C 0.36880(14) 0.65366(14) 0.43837(5)
C2_2 C 0.37981(16) 0.70258(15) 0.43847(5)
H1_2 H 0.4119 0.7266 0.4386
C3_2 C 0.39976(16) 0.60496(16) 0.42713(5)
H2_2 H 0.3696 0.5863 0.4230
C4_2 C 0.45191(15) 0.66770(15) 0.44288(5)
H3_2 H 0.4578 0.6920 0.4494
C5_2 C 0.48133(14) 0.62320(14) 0.42967(4)
C6_2 C 0.43652(15) 0.59569(15) 0.42352(5)
H4_2 H 0.4309 0.5713 0.4170
C7_2 C 0.52204(14) 0.61587(15) 0.42536(5)
C8_2 C 0.48823(15) 0.65814(15) 0.43944(5)
H5_2 H 0.5180 0.6758 0.4438
C9_2 C 0.40743(14) 0.64149(15) 0.43670(5)
C10_4 C 0.6208(2) 0.86549(17) 0.54976(6)
H6_4 H 0.6484 0.8935 0.5471
C11_4 C 0.60810(19) 0.91014(15) 0.56963(5)
C12_4 C 0.5946(2) 0.86544(15) 0.56112(5)
C13_4 C 0.5533(2) 0.82351(17) 0.56451(6)
H7_4 H 0.5348 0.8232 0.5723
C14_4 C 0.6062(3) 0.82323(19) 0.54195(6)
H8_4 H 0.6246 0.8240 0.5341
C15_4 C 0.5520(2) 0.73697(16) 0.53700(5)
C16_4 C 0.5669(2) 0.78181(17) 0.54531(5)
C17_4 C 0.5386(2) 0.78216(17) 0.55678(5)
H9_4 H 0.5100 0.7546 0.5591
C18_4 C 0.45084(18) 0.51632(15) 0.55882(5)
C19_4 C 0.4787(2) 0.55765(16) 0.56614(5)
H10_4 H 0.4847 0.5567 0.5759
C20_4 C 0.4396(2) 0.51797(15) 0.54436(5)
H11_4 H 0.4187 0.4898 0.5395
C21_4 C 0.43253(16) 0.46931(15) 0.56663(5)
C22_4 C 0.5264(2) 0.69330(17) 0.54393(5)
H12_4 H 0.5175 0.6924 0.5535
C23_4 C 0.4983(2) 0.60178(17) 0.55895(5)
H13_4 H 0.5171 0.6301 0.5640
C24_4 C 0.5134(2) 0.64985(17) 0.53661(5)
C25_4 C 0.4899(2) 0.60337(16) 0.54437(5)
C26_4 C 0.4595(2) 0.56113(17) 0.53720(5)
H14_4 H 0.4524 0.5619 0.5275
C27_4 C 0.5849(3) 0.66565(18) 0.49571(5)
H15_4 H 0.5832 0.6428 0.5022
C28_4 C 0.5536(3) 0.69665(16) 0.51517(5)
C29_4 C 0.5263(2) 0.65192(17) 0.52232(5)
H16_4 H 0.5171 0.6237 0.5173
C30_4 C 0.62073(15) 0.70055(16) 0.45694(4)
C31_4 C 0.5640(2) 0.73748(17) 0.52269(5)
H17_4 H 0.5799 0.7668 0.5179
C32_4 C 0.5717(2) 0.69773(16) 0.50027(5)
C33_4 C 0.5750(2) 0.73152(17) 0.49053(5)
H18_4 H 0.5669 0.7542 0.4934
C34_4 C 0.59029(19) 0.73214(16) 0.47645(5)
H19_4 H 0.5914 0.7545 0.4699
C35_4 C 0.60379(18) 0.69962(15) 0.47223(4)
C36_4 C 0.6005(2) 0.66572(16) 0.48188(5)
H20_4 H 0.6088 0.6431 0.4791
O10_2 O 0.48930(13) 0.50944(11) 0.39640(3)
O11_2 O 0.59003(11) 0.53676(12) 0.39156(3)
C37_2 C 0.34634(14) 0.71514(20) 0.43837(5)
C38_2 C 0.29742(15) 0.67723(22) 0.43847(5)
C39_2 C 0.28486(20) 0.63120(14) 0.43837(5)
C40_2 C 0.32277(22) 0.62019(16) 0.43847(5)
H21_2 H 0.3147 0.5881 0.4386
C41_2 C 0.23406(21) 0.59257(14) 0.43670(5)
C42_2 C 0.20520(23) 0.60024(16) 0.42713(5)
H22_2 H 0.2167 0.6304 0.4230
C43_2 C 0.15917(21) 0.56348(15) 0.42352(5)
C44_2 C 0.14187(20) 0.51867(14) 0.42967(4)
C45_2 C 0.09383(21) 0.47796(14) 0.42536(5)
O13_2 O 0.07363(14) 0.48299(10) 0.41453(3)
C46_2 C 0.16991(21) 0.51177(15) 0.43944(5)
C47_2 C 0.21579(21) 0.54809(15) 0.44288(5)
H23_2 H 0.2342 0.5422 0.4494
H24_2 H 0.1578 0.4820 0.4438
H25_2 H 0.1404 0.5691 0.4170
H26_2 H 0.2734 0.6853 0.4386
C48_2 C 0.35851(15) 0.76594(21) 0.43670(5)
C49_2 C 0.39504(16) 0.79480(23) 0.42713(5)
H27_2 H 0.4137 0.7833 0.4230
C50_2 C 0.40431(15) 0.84083(21) 0.42352(5)
C51_2 C 0.37680(14) 0.85813(20) 0.42967(4)
C52_2 C 0.38413(15) 0.90617(21) 0.42536(5)
O14_2 O 0.36265(9) 0.92203(13) 0.43320(3)
O15_2 O 0.40936(10) 0.92637(14) 0.41453(3)
C53_2 C 0.34186(15) 0.83009(21) 0.43944(5)
C54_2 C 0.33230(15) 0.78421(21) 0.44288(5)
H28_2 H 0.3080 0.7658 0.4494
H29_2 H 0.3242 0.8422 0.4438
H30_2 H 0.4287 0.8596 0.4170
O16_2 O 0.41203(12) 0.09207(10) 0.41875(3)
O17_2 O 0.35891(10) 0.05078(9) 0.43645(3)
O18_2 O 0.55662(11) 0.52954(9) 0.42066(3)
O19_2 O 0.59342(11) 0.56840(9) 0.44107(3)
O20_2 O 0.36768(9) 0.33128(10) 0.54594(3)
O21_2 O 0.37853(10) 0.26920(10) 0.55154(3)
C55_2 C 0.3792(2) 0.13451(17) 0.45024(6)
H31_2 H 0.3516 0.1065 0.4529
C56_2 C 0.39190(19) 0.08986(15) 0.43037(5)
C57_2 C 0.4054(2) 0.13456(15) 0.43888(5)
C58_2 C 0.4467(2) 0.17649(17) 0.43549(6)
H32_2 H 0.4652 0.1768 0.4277
C59_2 C 0.3938(3) 0.17677(19) 0.45805(6)
H33_2 H 0.3754 0.1760 0.4659
C60_2 C 0.4480(2) 0.26303(16) 0.46300(5)
C61_2 C 0.4331(2) 0.21819(17) 0.45469(5)
C62_2 C 0.4614(2) 0.21784(17) 0.44322(5)
H34_2 H 0.4900 0.2454 0.4409
C63_2 C 0.54916(18) 0.48368(15) 0.44118(5)
C64_2 C 0.5213(2) 0.44235(16) 0.43386(5)
H35_2 H 0.5153 0.4433 0.4241
C65_2 C 0.5604(2) 0.48203(15) 0.45564(5)
H36_2 H 0.5813 0.5102 0.4605
C66_2 C 0.56747(16) 0.53069(15) 0.43337(5)
C67_2 C 0.4736(2) 0.30670(17) 0.45607(5)
H37_2 H 0.4825 0.3076 0.4465
C68_2 C 0.5017(2) 0.39822(17) 0.44105(5)
H38_2 H 0.4829 0.3699 0.4360
C69_2 C 0.4866(2) 0.35015(17) 0.46339(5)
C70_2 C 0.5101(2) 0.39663(16) 0.45563(5)
C71_2 C 0.5405(2) 0.43887(17) 0.46280(5)
H39_2 H 0.5476 0.4381 0.4725
C72_2 C 0.4151(3) 0.33435(18) 0.50429(5)
H40_2 H 0.4168 0.3572 0.4978
C73_2 C 0.4464(3) 0.30335(16) 0.48483(5)
C74_2 C 0.4737(2) 0.34808(17) 0.47768(5)
H41_2 H 0.4829 0.3763 0.4827
C75_2 C 0.37927(15) 0.29945(16) 0.54306(4)
C76_2 C 0.4360(2) 0.26252(17) 0.47731(5)
H42_2 H 0.4201 0.2332 0.4821
C77_2 C 0.4283(2) 0.30227(16) 0.49973(5)
C78_2 C 0.4250(2) 0.26848(17) 0.50947(5)
H43_2 H 0.4331 0.2458 0.5066
C79_2 C 0.40971(19) 0.26786(16) 0.52355(5)
H44_2 H 0.4086 0.2455 0.5301
C80_2 C 0.39621(18) 0.30038(15) 0.52777(4)
C81_2 C 0.3995(2) 0.33428(16) 0.51812(5)
H45_2 H 0.3912 0.3569 0.5209
O22_3 O 0.68004(16) 0.58797(12) 0.41875(3)
O23_2 O 0.69187(13) 0.64109(10) 0.43645(3)
O24_2 O 0.97292(14) 0.44338(11) 0.42066(3)
O25_3 O 0.97498(14) 0.40658(11) 0.44107(3)
O26_3 O 0.96360(13) 0.63232(9) 0.54594(3)
O27_3 O 0.89067(14) 0.62147(10) 0.55154(3)
C82_3 C 0.75531(26) 0.6208(2) 0.45024(6)
H46_3 H 0.7549 0.6484 0.4529
C83_3 C 0.69796(24) 0.60810(19) 0.43037(5)
C84_3 C 0.72916(25) 0.5946(2) 0.43888(5)
C85_3 C 0.72979(26) 0.5533(2) 0.43549(6)
H47_3 H 0.7116 0.5348 0.4277
C86_3 C 0.78297(36) 0.6062(3) 0.45805(6)
H48_3 H 0.8006 0.6246 0.4659
C87_3 C 0.81503(26) 0.5520(2) 0.46300(5)
C88_3 C 0.78509(26) 0.5669(2) 0.45469(5)
C89_3 C 0.75644(26) 0.5386(2) 0.44322(5)
H49_3 H 0.7554 0.5100 0.4409
C90_3 C 0.93452(23) 0.45084(18) 0.44118(5)
C91_3 C 0.92105(26) 0.4787(2) 0.43386(5)
H50_3 H 0.9280 0.4847 0.4241
C92_3 C 0.92163(25) 0.4396(2) 0.45564(5)
H51_3 H 0.9289 0.4187 0.4605
C93_3 C 0.96322(22) 0.43253(16) 0.43337(5)
C94_3 C 0.83310(26) 0.5264(2) 0.45607(5)
H52_3 H 0.8251 0.5175 0.4465
C95_3 C 0.89652(26) 0.4983(2) 0.44105(5)
H53_3 H 0.8870 0.5171 0.4360
C96_3 C 0.86355(26) 0.5134(2) 0.46339(5)
C97_3 C 0.88653(26) 0.4899(2) 0.45563(5)
C98_3 C 0.89837(26) 0.4595(2) 0.46280(5)
H54_3 H 0.8905 0.4524 0.4725
C99_3 C 0.91925(35) 0.5849(3) 0.50429(5)
H55_3 H 0.9404 0.5832 0.4978
C100_3 C 0.85695(34) 0.5536(3) 0.48483(5)
C101_3 C 0.87438(26) 0.5263(2) 0.47768(5)
H56_3 H 0.8934 0.5171 0.4827
C102_3 C 0.92018(22) 0.62073(15) 0.54306(4)
C103_3 C 0.82652(26) 0.5640(2) 0.47731(5)
H57_3 H 0.8131 0.5799 0.4821
C104_3 C 0.87397(26) 0.5717(2) 0.49973(5)
C105_3 C 0.84348(26) 0.5750(2) 0.50947(5)
H58_3 H 0.8127 0.5669 0.5066
C106_3 C 0.85815(25) 0.59029(19) 0.52355(5)
H59_3 H 0.8369 0.5914 0.5301
C107_3 C 0.90417(23) 0.60379(18) 0.52777(4)
C108_3 C 0.93478(26) 0.6005(2) 0.51812(5)
H60_3 H 0.9657 0.6088 0.5209
O28_2 O 0.62124(11) 0.62201(8) 0.41001(2)
In3_2 In 0.359819(9) 0.986112(13) 0.432947(3)
Mg3_2 Mg 0.43403(4) 0.98881(6) 0.403040(13)
O29_2 O 0.02014(17) 0.51070(13) 0.39640(3)
O31_2 O 0.49056(11) 0.97986(17) 0.39640(3)
O33_2 O 0.55734(14) 0.60253(10) 0.38487(3)
Mg4_4 Mg 0.44522(5) 0.43403(4) 0.596960(13)
In5_2 In 0.373707(9) 0.359819(9) 0.567053(3)
Mg5_4 Mg 0.65548(6) 0.76736(4) 0.430293(13)
In6_4 In 0.652779(13) 0.693152(9) 0.400386(3)
Mg6_2 Mg 0.34452(6) 0.23264(4) 0.569707(13)
In9_2 In 0.986112(13) 0.626293(9) 0.567053(3)
Mg8_3 Mg 0.88811(5) 0.65548(6) 0.569707(13)
O35_2 O 0.37799(8) 0.99922(8) 0.41001(2)
O37_2 O 0.04520(10) 0.44266(14) 0.38487(3)
O39_2 O 0.39747(10) 0.95480(10) 0.38487(3)
O40_4 O 0.37876(11) 0.37799(8) 0.58999(2)
O41_4 O 0.44062(9) 0.36265(9) 0.56680(3)
O42_3 O 0.30813(13) 0.35891(10) 0.56355(3)
O43_4 O 0.33411(8) 0.28868(8) 0.57668(2)
O46_2 O 0.94922(9) 0.30813(13) 0.43645(3)
In10_4 In 0.347221(13) 0.306848(9) 0.599614(3)
H61_2 H 0.56972 0.517516 0.383328
H62_2 H 0.62099 0.563017 0.387827
H63_2 H 0.471235 0.522128 0.391077
H64_2 H 0.49473 0.487961 0.389952
H65_2 H 0.477872 0.949107 0.391077
H67_2 H 0.0508933 0.528765 0.391077
O30_2 O 0.94673(16) 0.40997(11) 0.39156(3)
H68_2 H 0.99323 0.50527 0.389952
H69_2 H 0.947797 0.43028 0.383328
H70_2 H 0.942027 0.37901 0.387827
O3_5 O 0.31996(16) 0.41203(12) 0.58125(3)
O5_5 O 0.02708(14) 0.55662(11) 0.57934(3)
O6_5 O 0.02502(14) 0.59342(11) 0.55893(3)
O8_5 O 0.10933(14) 0.37853(10) 0.44846(3)
C10_5 C 0.24469(26) 0.3792(2) 0.54976(6)
H6_5 H 0.2451 0.3516 0.5471
C11_5 C 0.30204(24) 0.39190(19) 0.56963(5)
C12_5 C 0.27084(25) 0.4054(2) 0.56112(5)
C13_5 C 0.27021(26) 0.4467(2) 0.56451(6)
H7_5 H 0.2884 0.4652 0.5723
C14_5 C 0.21703(36) 0.3938(3) 0.54195(6)
H8_5 H 0.1994 0.3754 0.5341
C15_5 C 0.18497(26) 0.4480(2) 0.53700(5)
C16_5 C 0.21491(26) 0.4331(2) 0.54531(5)
C17_5 C 0.24356(26) 0.4614(2) 0.55678(5)
H9_5 H 0.2446 0.4900 0.5591
C18_5 C 0.06548(23) 0.54916(18) 0.55882(5)
C19_5 C 0.07895(26) 0.5213(2) 0.56614(5)
H10_5 H 0.0720 0.5153 0.5759
C20_5 C 0.07837(25) 0.5604(2) 0.54436(5)
H11_5 H 0.0711 0.5813 0.5395
C21_5 C 0.03678(22) 0.56747(16) 0.56663(5)
C22_5 C 0.16690(26) 0.4736(2) 0.54393(5)
H12_5 H 0.1749 0.4825 0.5535
C23_5 C 0.10348(26) 0.5017(2) 0.55895(5)
H13_5 H 0.1130 0.4829 0.5640
C24_5 C 0.13645(26) 0.4866(2) 0.53661(5)
C25_5 C 0.11347(26) 0.5101(2) 0.54437(5)
C26_5 C 0.10163(26) 0.5405(2) 0.53720(5)
H14_5 H 0.1095 0.5476 0.5275
C27_5 C 0.08075(35) 0.4151(3) 0.49571(5)
H15_5 H 0.0596 0.4168 0.5022
C28_5 C 0.14305(34) 0.4464(3) 0.51517(5)
C29_5 C 0.12562(26) 0.4737(2) 0.52232(5)
H16_5 H 0.1066 0.4829 0.5173
C30_5 C 0.07982(22) 0.37927(15) 0.45694(4)
C31_5 C 0.17348(26) 0.4360(2) 0.52269(5)
H17_5 H 0.1869 0.4201 0.5179
C32_5 C 0.12603(26) 0.4283(2) 0.50027(5)
C33_5 C 0.15652(26) 0.4250(2) 0.49053(5)
H18_5 H 0.1873 0.4331 0.4934
C34_5 C 0.14185(25) 0.40971(19) 0.47645(5)
H19_5 H 0.1631 0.4086 0.4699
C35_5 C 0.09583(23) 0.39621(18) 0.47223(4)
C36_5 C 0.06522(26) 0.3995(2) 0.48188(5)
H20_5 H 0.0343 0.3912 0.4791
Mg5_5 Mg 0.11189(7) 0.34452(6) 0.430293(13)
In6_5 In 0.040374(16) 0.347221(13) 0.400386(3)
O42_4 O 0.05078(16) 0.69187(13) 0.56355(3)
O22_4 O 0.90793(20) 0.31996(16) 0.41875(3)
O25_4 O 0.43160(18) 0.02502(14) 0.44107(3)
O26_4 O 0.66872(16) 0.03640(13) 0.54594(3)
O27_4 O 0.73080(17) 0.10933(14) 0.55154(3)
C82_4 C 0.86549(33) 0.24469(26) 0.45024(6)
H46_4 H 0.8935 0.2451 0.4529
C83_4 C 0.91014(31) 0.30204(24) 0.43037(5)
C84_4 C 0.86544(32) 0.27084(25) 0.43888(5)
C85_4 C 0.82351(33) 0.27021(26) 0.43549(6)
H47_4 H 0.8232 0.2884 0.4277
C86_4 C 0.82323(47) 0.21703(36) 0.45805(6)
H48_4 H 0.8240 0.1994 0.4659
C87_4 C 0.73697(33) 0.18497(26) 0.46300(5)
C88_4 C 0.78181(33) 0.21491(26) 0.45469(5)
C89_4 C 0.78216(33) 0.24356(26) 0.44322(5)
H49_4 H 0.7546 0.2446 0.4409
C90_4 C 0.51632(29) 0.06548(23) 0.44118(5)
C91_4 C 0.55765(33) 0.07895(26) 0.43386(5)
H50_4 H 0.5567 0.0720 0.4241
C92_4 C 0.51797(32) 0.07837(25) 0.45564(5)
H51_4 H 0.4898 0.0711 0.4605
C93_4 C 0.46931(27) 0.03678(22) 0.43337(5)
C94_4 C 0.69330(33) 0.16690(26) 0.45607(5)
H52_4 H 0.6924 0.1749 0.4465
C95_4 C 0.60178(33) 0.10348(26) 0.44105(5)
H53_4 H 0.6301 0.1130 0.4360
C96_4 C 0.64985(33) 0.13645(26) 0.46339(5)
C97_4 C 0.60337(33) 0.11347(26) 0.45563(5)
C98_4 C 0.56113(33) 0.10163(26) 0.46280(5)
H54_4 H 0.5619 0.1095 0.4725
C99_4 C 0.66565(46) 0.08075(35) 0.50429(5)
H55_4 H 0.6428 0.0596 0.4978
C100_4 C 0.69665(45) 0.14305(34) 0.48483(5)
C101_4 C 0.65192(33) 0.12562(26) 0.47768(5)
H56_4 H 0.6237 0.1066 0.4827
C102_4 C 0.70055(27) 0.07982(22) 0.54306(4)
C103_4 C 0.73748(33) 0.17348(26) 0.47731(5)
H57_4 H 0.7668 0.1869 0.4821
C104_4 C 0.69773(33) 0.12603(26) 0.49973(5)
C105_4 C 0.73152(33) 0.15652(26) 0.50947(5)
H58_4 H 0.7542 0.1873 0.5066
C106_4 C 0.73214(31) 0.14185(25) 0.52355(5)
H59_4 H 0.7545 0.1631 0.5301
C107_4 C 0.69962(29) 0.09583(23) 0.52777(4)
C108_4 C 0.66572(33) 0.06522(26) 0.51812(5)
H60_4 H 0.6431 0.0343 0.5209
Mg4_5 Mg 0.98881(6) 0.55478(5) 0.596960(13)
Mg8_4 Mg 0.76736(8) 0.11189(5) 0.569707(13)
O40_5 O 0.99922(14) 0.62124(11) 0.58999(2)
O41_5 O 0.92203(13) 0.55938(9) 0.56680(3)
O43_5 O 0.95457(11) 0.66589(8) 0.57668(2)
In10_5 In 0.959626(16) 0.652779(13) 0.599614(3)
O47_4 O 0.33128(16) 0.96360(13) 0.45406(3)
O48_4 O 0.28868(14) 0.95457(11) 0.42332(2)
Mg4_6 Mg 0.56597(4) 0.01119(6) 0.596960(13)
O40_6 O 0.62201(8) 0.00078(14) 0.58999(2)
O41_6 O 0.63735(9) 0.07797(13) 0.56680(3)
O43_6 O 0.71132(8) 0.04543(11) 0.57668(2)
In10_6 In 0.693152(9) 0.040374(16) 0.599614(3)
O3_6 O 0.09207(10) 0.68004(16) 0.58125(3)
O5_6 O 0.52954(9) 0.97292(14) 0.57934(3)
O6_6 O 0.56840(9) 0.97498(14) 0.55893(3)
O8_6 O 0.26920(10) 0.89067(14) 0.44846(3)
C10_6 C 0.13451(17) 0.75531(26) 0.54976(6)
H6_6 H 0.1065 0.7549 0.5471
C11_6 C 0.08986(15) 0.69796(24) 0.56963(5)
C12_6 C 0.13456(15) 0.72916(25) 0.56112(5)
C13_6 C 0.17649(17) 0.72979(26) 0.56451(6)
H7_6 H 0.1768 0.7116 0.5723
C14_6 C 0.17677(19) 0.78297(36) 0.54195(6)
H8_6 H 0.1760 0.8006 0.5341
C15_6 C 0.26303(16) 0.81503(26) 0.53700(5)
C16_6 C 0.21819(17) 0.78509(26) 0.54531(5)
C17_6 C 0.21784(17) 0.75644(26) 0.55678(5)
H9_6 H 0.2454 0.7554 0.5591
C18_6 C 0.48368(15) 0.93452(23) 0.55882(5)
C19_6 C 0.44235(16) 0.92105(26) 0.56614(5)
H10_6 H 0.4433 0.9280 0.5759
C20_6 C 0.48203(15) 0.92163(25) 0.54436(5)
H11_6 H 0.5102 0.9289 0.5395
C21_6 C 0.53069(15) 0.96322(22) 0.56663(5)
C22_6 C 0.30670(17) 0.83310(26) 0.54393(5)
H12_6 H 0.3076 0.8251 0.5535
C23_6 C 0.39822(17) 0.89652(26) 0.55895(5)
H13_6 H 0.3699 0.8870 0.5640
C24_6 C 0.35015(17) 0.86355(26) 0.53661(5)
C25_6 C 0.39663(16) 0.88653(26) 0.54437(5)
C26_6 C 0.43887(17) 0.89837(26) 0.53720(5)
H14_6 H 0.4381 0.8905 0.5275
C27_6 C 0.33435(18) 0.91925(35) 0.49571(5)
H15_6 H 0.3572 0.9404 0.5022
C28_6 C 0.30335(16) 0.85695(34) 0.51517(5)
C29_6 C 0.34808(17) 0.87438(26) 0.52232(5)
H16_6 H 0.3763 0.8934 0.5173
C30_6 C 0.29945(16) 0.92018(22) 0.45694(4)
C31_6 C 0.26252(17) 0.82652(26) 0.52269(5)
H17_6 H 0.2332 0.8131 0.5179
C32_6 C 0.30227(16) 0.87397(26) 0.50027(5)
C33_6 C 0.26848(17) 0.84348(26) 0.49053(5)
H18_6 H 0.2458 0.8127 0.4934
C34_6 C 0.26786(16) 0.85815(25) 0.47645(5)
H19_6 H 0.2455 0.8369 0.4699
C35_6 C 0.30038(15) 0.90417(23) 0.47223(4)
C36_6 C 0.33428(16) 0.93478(26) 0.48188(5)
H20_6 H 0.3569 0.9657 0.4791
Mg5_6 Mg 0.23264(4) 0.88811(7) 0.430293(13)
In6_6 In 0.306848(9) 0.959626(16) 0.400386(3)
O22_5 O 0.25464(12) 0.01337(16) 0.41458(3)
O23_3 O 0.30776(10) 0.02520(13) 0.39688(3)
O24_3 O 0.11005(11) 0.30625(14) 0.41267(3)
O25_5 O 0.07325(11) 0.30831(14) 0.39226(3)
O26_5 O 0.29899(9) 0.29693(13) 0.28739(3)
O27_5 O 0.28814(10) 0.22400(14) 0.28179(3)
C82_5 C 0.2875(2) 0.08864(26) 0.38309(6)
H46_5 H 0.3151 0.0882 0.3804
C83_5 C 0.27477(19) 0.03129(24) 0.40296(5)
C84_5 C 0.2613(2) 0.06249(25) 0.39445(5)
C85_5 C 0.2200(2) 0.06312(26) 0.39784(6)
H47_5 H 0.2015 0.0449 0.4056
C86_5 C 0.2729(3) 0.11630(36) 0.37528(6)
H48_5 H 0.2913 0.1339 0.3674
C87_5 C 0.2187(2) 0.14836(26) 0.37033(5)
C88_5 C 0.2336(2) 0.11842(26) 0.37864(5)
C89_5 C 0.2053(2) 0.08977(26) 0.39011(5)
H49_5 H 0.1767 0.0887 0.3924
C90_5 C 0.11751(18) 0.26785(23) 0.39215(5)
C91_5 C 0.1454(2) 0.25438(26) 0.39947(5)
H50_5 H 0.1514 0.2613 0.4092
C92_5 C 0.1063(2) 0.25496(25) 0.37769(5)
H51_5 H 0.0854 0.2622 0.3728
C93_5 C 0.09920(16) 0.29655(22) 0.39996(5)
C94_5 C 0.1931(2) 0.16643(26) 0.37726(5)
H52_5 H 0.1842 0.1584 0.3868
C95_5 C 0.1650(2) 0.22985(26) 0.39228(5)
H53_5 H 0.1838 0.2203 0.3973
C96_5 C 0.1801(2) 0.19688(26) 0.36994(5)
C97_5 C 0.1566(2) 0.21986(26) 0.37770(5)
C98_5 C 0.1262(2) 0.23170(26) 0.37053(5)
H54_5 H 0.1191 0.2238 0.3608
C99_5 C 0.2516(3) 0.25258(35) 0.32904(5)
H55_5 H 0.2499 0.2737 0.3355
C100_5 C 0.2203(3) 0.19028(34) 0.34850(5)
C101_5 C 0.1930(2) 0.20771(26) 0.35565(5)
H56_5 H 0.1838 0.2267 0.3506
C102_5 C 0.28740(15) 0.25351(22) 0.29027(4)
C103_5 C 0.2307(2) 0.15985(26) 0.35602(5)
H57_5 H 0.2466 0.1464 0.3512
C104_5 C 0.2384(2) 0.20730(26) 0.33360(5)
C105_5 C 0.2417(2) 0.17681(26) 0.32386(5)
H58_5 H 0.2336 0.1460 0.3267
C106_5 C 0.25696(19) 0.19148(25) 0.30978(5)
H59_5 H 0.2581 0.1702 0.3032
C107_5 C 0.27046(18) 0.23750(23) 0.30556(4)
C108_5 C 0.2672(2) 0.26811(26) 0.31521(5)
H60_5 H 0.2755 0.2990 0.3124
In9_3 In 0.292960(9) 0.319445(13) 0.266280(3)
Mg8_5 Mg 0.32214(6) 0.22145(5) 0.263627(13)
O45_3 O 0.10729(9) 0.41130(13) 0.40013(3)
O47_5 O 0.03435(9) 0.36973(13) 0.37927(3)
O1_3 O 0.30402(9) 0.89271(9) 0.40013(3)
O2_3 O 0.25731(10) 0.85034(10) 0.41880(3)
O3_7 O 0.57460(10) 0.92130(12) 0.25208(3)
O4_3 O 0.61589(9) 0.97442(10) 0.26978(3)
O5_7 O 0.13713(9) 0.77671(11) 0.25399(3)
O6_7 O 0.09827(9) 0.73991(11) 0.27440(3)
O7_3 O 0.33539(10) 0.96565(9) 0.37927(3)
C1_3 C 0.32033(14) 0.70213(14) 0.39496(5)
C2_3 C 0.36925(15) 0.71314(16) 0.39486(5)
H1_3 H 0.3933 0.7452 0.3947
C3_3 C 0.27163(16) 0.73309(16) 0.40620(5)
H2_3 H 0.2530 0.7029 0.4103
C4_3 C 0.33437(15) 0.78524(15) 0.39045(5)
H3_3 H 0.3587 0.7911 0.3839
C5_3 C 0.28987(14) 0.81466(14) 0.40366(4)
C6_3 C 0.26236(15) 0.76985(15) 0.40981(5)
H4_3 H 0.2380 0.7642 0.4163
C7_3 C 0.28254(15) 0.85537(14) 0.40797(5)
C8_3 C 0.32481(15) 0.82156(15) 0.39389(5)
H5_3 H 0.3425 0.8513 0.3895
C9_3 C 0.30816(15) 0.74076(14) 0.39663(5)
C10_7 C 0.53216(17) 0.9541(2) 0.28357(6)
H6_7 H 0.5602 0.9817 0.2862
C11_7 C 0.57681(15) 0.94143(19) 0.26370(5)
C12_7 C 0.53211(15) 0.9279(2) 0.27221(5)
C13_7 C 0.49018(17) 0.8866(2) 0.26882(6)
H7_7 H 0.4899 0.8681 0.2610
C14_7 C 0.48990(19) 0.9395(3) 0.29138(6)
H8_7 H 0.4907 0.9579 0.2992
C15_7 C 0.40364(16) 0.8853(2) 0.29633(5)
C16_7 C 0.44848(17) 0.9002(2) 0.28802(5)
C17_7 C 0.44883(17) 0.8719(2) 0.27655(5)
H9_7 H 0.4213 0.8433 0.2742
C18_7 C 0.18299(15) 0.78417(18) 0.27451(5)
C19_7 C 0.22432(16) 0.8120(2) 0.26719(5)
H10_7 H 0.2234 0.8180 0.2574
C20_7 C 0.18464(15) 0.7729(2) 0.28897(5)
H11_7 H 0.1565 0.7520 0.2938
C21_7 C 0.13598(15) 0.76586(16) 0.26670(5)
C22_7 C 0.35997(17) 0.8597(2) 0.28940(5)
H12_7 H 0.3591 0.8508 0.2798
C23_7 C 0.26845(17) 0.8316(2) 0.27438(5)
H13_7 H 0.2968 0.8504 0.2693
C24_7 C 0.31652(17) 0.8467(2) 0.29672(5)
C25_7 C 0.27004(16) 0.8232(2) 0.28896(5)
C26_7 C 0.22780(17) 0.7928(2) 0.29613(5)
H14_7 H 0.2286 0.7857 0.3058
C27_7 C 0.33232(18) 0.9182(3) 0.33762(5)
H15_7 H 0.3095 0.9165 0.3311
C28_7 C 0.36332(16) 0.8869(3) 0.31816(5)
C29_7 C 0.31859(17) 0.8596(2) 0.31101(5)
H16_7 H 0.2904 0.8504 0.3160
C30_7 C 0.36722(16) 0.95406(15) 0.37639(4)
C31_7 C 0.40415(17) 0.8973(2) 0.31064(5)
H17_7 H 0.4335 0.9132 0.3154
C32_7 C 0.36440(16) 0.9050(2) 0.33306(5)
C33_7 C 0.39819(17) 0.9083(2) 0.34280(5)
H18_7 H 0.4209 0.9002 0.3399
C34_7 C 0.39881(16) 0.92362(19) 0.35688(5)
H19_7 H 0.4212 0.9247 0.3634
C35_7 C 0.36629(15) 0.93712(18) 0.36110(4)
C36_7 C 0.33239(16) 0.9338(2) 0.35145(5)
H20_7 H 0.3098 0.9421 0.3542
O10_3 O 0.17611(11) 0.82263(13) 0.43693(3)
O11_3 O 0.20343(12) 0.92336(11) 0.44177(3)
C37_3 C 0.38181(20) 0.67967(14) 0.39496(5)
C38_3 C 0.34390(22) 0.63075(15) 0.39486(5)
C39_3 C 0.29787(14) 0.61819(20) 0.39496(5)
C40_3 C 0.28686(16) 0.65610(22) 0.39486(5)
H21_3 H 0.2548 0.6480 0.3947
C41_3 C 0.25924(14) 0.56739(21) 0.39663(5)
C42_3 C 0.26691(16) 0.53853(23) 0.40620(5)
H22_3 H 0.2971 0.5500 0.4103
C43_3 C 0.23015(15) 0.49250(21) 0.40981(5)
C44_3 C 0.18534(14) 0.47520(20) 0.40366(4)
C45_3 C 0.14463(14) 0.42716(21) 0.40797(5)
O13_3 O 0.14966(10) 0.40696(14) 0.41880(3)
C46_3 C 0.17844(15) 0.50324(21) 0.39389(5)
C47_3 C 0.21476(15) 0.54912(21) 0.39045(5)
H23_3 H 0.2089 0.5675 0.3839
H24_3 H 0.1487 0.4911 0.3895
H25_3 H 0.2358 0.4737 0.4163
H26_3 H 0.3520 0.6067 0.3947
C48_3 C 0.43261(21) 0.69184(15) 0.39663(5)
C49_3 C 0.46147(23) 0.72837(16) 0.40620(5)
H27_3 H 0.4500 0.7470 0.4103
C50_3 C 0.50750(21) 0.73764(15) 0.40981(5)
C51_3 C 0.52480(20) 0.71013(14) 0.40366(4)
C52_3 C 0.57284(21) 0.71746(15) 0.40797(5)
O14_3 O 0.58870(13) 0.69598(9) 0.40013(3)
O15_3 O 0.59304(14) 0.74269(10) 0.41880(3)
C53_3 C 0.49676(21) 0.67519(15) 0.39389(5)
C54_3 C 0.45088(21) 0.66563(15) 0.39045(5)
H28_3 H 0.4325 0.6413 0.3839
H29_3 H 0.5089 0.6575 0.3895
H30_3 H 0.5263 0.7620 0.4163
O18_3 O 0.19621(9) 0.88995(11) 0.41267(3)
O19_3 O 0.23507(9) 0.92675(11) 0.39226(3)
C63_3 C 0.15035(15) 0.88249(18) 0.39215(5)
C64_3 C 0.10902(16) 0.8546(2) 0.39947(5)
H35_3 H 0.1100 0.8486 0.4092
C65_3 C 0.14870(15) 0.8937(2) 0.37769(5)
H36_3 H 0.1769 0.9146 0.3728
C66_3 C 0.19736(15) 0.90080(16) 0.39996(5)
C68_3 C 0.06489(17) 0.8350(2) 0.39228(5)
H38_3 H 0.0366 0.8162 0.3973
C69_3 C 0.01682(17) 0.8199(2) 0.36994(5)
C70_3 C 0.06330(16) 0.8434(2) 0.37770(5)
C71_3 C 0.10554(17) 0.8738(2) 0.37053(5)
H39_3 H 0.1048 0.8809 0.3608
C72_3 C 0.00102(18) 0.7484(3) 0.32904(5)
H40_3 H 0.0239 0.7501 0.3355
C74_3 C 0.01475(17) 0.8070(2) 0.35565(5)
H41_3 H 0.0430 0.8162 0.3506
C81_3 C 0.00095(16) 0.7328(2) 0.31521(5)
H45_3 H 0.0236 0.7245 0.3124
O29_3 O 0.17737(13) 0.35347(17) 0.43693(3)
O30_3 O 0.07664(11) 0.28006(16) 0.44177(3)
O31_3 O 0.64653(17) 0.82389(11) 0.43693(3)
O32_3 O 0.71994(16) 0.79657(12) 0.44177(3)
In4_3 In 0.680555(13) 0.973514(9) 0.266280(3)
Mg4_7 Mg 0.10070(4) 0.77855(5) 0.236373(13)
In5_3 In 0.026486(9) 0.707040(9) 0.266280(3)
O38_3 O 0.69375(14) 0.80379(9) 0.41267(3)
O40_7 O 0.04465(8) 0.71210(11) 0.24335(2)
O41_7 O 0.02932(9) 0.77395(9) 0.26653(3)
O42_5 O 0.02558(10) 0.64146(13) 0.26978(3)
H61_3 H 0.184183 0.903053 0.450005
H62_3 H 0.229683 0.954323 0.445507
H63_3 H 0.188795 0.804568 0.442256
H64_3 H 0.154627 0.828064 0.443382
H65_3 H 0.615773 0.811205 0.442256
H66_3 H 0.673436 0.845373 0.443382
H67_3 H 0.195432 0.384227 0.442256
H68_3 H 0.171936 0.326564 0.443382
H69_3 H 0.0969471 0.28113 0.450005
H70_3 H 0.0456768 0.27536 0.445507
H71_3 H 0.71887 0.815817 0.450005
H72_3 H 0.72464 0.770317 0.445507
O46_3 O 0.97480(13) 0.28255(9) 0.39688(3)
O16_3 O 0.75874(10) 0.74536(12) 0.41458(3)
O17_3 O 0.71745(9) 0.69224(10) 0.39688(3)
O20_3 O 0.99795(10) 0.70101(9) 0.28739(3)
O21_3 O 0.93587(10) 0.71186(10) 0.28179(3)
C55_3 C 0.80118(17) 0.7125(2) 0.38309(6)
H31_3 H 0.7732 0.6849 0.3804
C56_3 C 0.75653(15) 0.72523(19) 0.40296(5)
C57_3 C 0.80123(15) 0.7387(2) 0.39445(5)
C58_3 C 0.84316(17) 0.7800(2) 0.39784(6)
H32_3 H 0.8435 0.7985 0.4056
C59_3 C 0.84344(19) 0.7271(3) 0.37528(6)
H33_3 H 0.8427 0.7087 0.3674
C60_3 C 0.92970(16) 0.7813(2) 0.37033(5)
C61_3 C 0.88486(17) 0.7664(2) 0.37864(5)
C62_3 C 0.88451(17) 0.7947(2) 0.39011(5)
H34_3 H 0.9121 0.8233 0.3924
C67_3 C 0.97337(17) 0.8069(2) 0.37726(5)
H37_3 H 0.9743 0.8158 0.3868
C73_3 C 0.97002(16) 0.7797(3) 0.34850(5)
C75_3 C 0.96612(16) 0.71260(15) 0.29027(4)
C76_3 C 0.92919(17) 0.7693(2) 0.35602(5)
H42_3 H 0.8999 0.7534 0.3512
C77_3 C 0.96894(16) 0.7616(2) 0.33360(5)
C78_3 C 0.93515(17) 0.7583(2) 0.32386(5)
H43_3 H 0.9125 0.7664 0.3267
C79_3 C 0.93453(16) 0.74304(19) 0.30978(5)
H44_3 H 0.9122 0.7419 0.3032
C80_3 C 0.96705(15) 0.72954(18) 0.30556(4)
Mg6_3 Mg 0.89930(4) 0.67786(6) 0.263627(13)
O43_7 O 0.95535(8) 0.66744(8) 0.25665(2)
In10_7 In 0.973514(9) 0.680555(13) 0.233720(3)
O3_8 O 0.07870(12) 0.65329(16) 0.25208(3)
O5_8 O 0.22329(11) 0.36041(14) 0.25399(3)
O6_8 O 0.26009(11) 0.35835(14) 0.27440(3)
C10_8 C 0.0459(2) 0.57802(26) 0.28357(6)
H6_8 H 0.0183 0.5784 0.2862
C11_8 C 0.05857(19) 0.63537(24) 0.26370(5)
C12_8 C 0.0721(2) 0.60417(25) 0.27221(5)
C13_8 C 0.1134(2) 0.60354(26) 0.26882(6)
H7_8 H 0.1319 0.6217 0.2610
C14_8 C 0.0605(3) 0.55036(36) 0.29138(6)
H8_8 H 0.0421 0.5327 0.2992
C15_8 C 0.1147(2) 0.51830(26) 0.29633(5)
C16_8 C 0.0998(2) 0.54824(26) 0.28802(5)
C17_8 C 0.1281(2) 0.57689(26) 0.27655(5)
H9_8 H 0.1567 0.5779 0.2742
C18_8 C 0.21583(18) 0.39881(23) 0.27451(5)
C19_8 C 0.1880(2) 0.41228(26) 0.26719(5)
H10_8 H 0.1820 0.4053 0.2574
C20_8 C 0.2271(2) 0.41170(25) 0.28897(5)
H11_8 H 0.2480 0.4044 0.2938
C21_8 C 0.23414(16) 0.37011(22) 0.26670(5)
C22_8 C 0.1403(2) 0.50023(26) 0.28940(5)
H12_8 H 0.1492 0.5082 0.2798
C23_8 C 0.1684(2) 0.43681(26) 0.27438(5)
H13_8 H 0.1496 0.4463 0.2693
C24_8 C 0.1533(2) 0.46978(26) 0.29672(5)
C25_8 C 0.1768(2) 0.44680(26) 0.28896(5)
C26_8 C 0.2072(2) 0.43496(26) 0.29613(5)
H14_8 H 0.2143 0.4428 0.3058
C27_8 C 0.0818(3) 0.41408(35) 0.33762(5)
H15_8 H 0.0835 0.3929 0.3311
C28_8 C 0.1131(3) 0.47638(34) 0.31816(5)
C29_8 C 0.1404(2) 0.45895(26) 0.31101(5)
H16_8 H 0.1496 0.4399 0.3160
C30_8 C 0.04594(15) 0.41315(22) 0.37639(4)
C31_8 C 0.1027(2) 0.50681(26) 0.31064(5)
H17_8 H 0.0868 0.5202 0.3154
C32_8 C 0.0950(2) 0.45936(26) 0.33306(5)
C33_8 C 0.0917(2) 0.48985(26) 0.34280(5)
H18_8 H 0.0998 0.5206 0.3399
C34_8 C 0.07638(19) 0.47518(25) 0.35688(5)
H19_8 H 0.0753 0.4964 0.3634
C35_8 C 0.06288(18) 0.42916(23) 0.36110(4)
C36_8 C 0.0662(2) 0.39855(26) 0.35145(5)
H20_8 H 0.0579 0.3676 0.3542
Mg4_8 Mg 0.22145(5) 0.32214(6) 0.236373(13)
O40_8 O 0.28790(11) 0.33256(14) 0.24335(2)
O41_8 O 0.22605(9) 0.25536(13) 0.26653(3)
O42_6 O 0.35854(13) 0.38411(16) 0.26978(3)
O43_8 O 0.33256(8) 0.28790(11) 0.25665(2)
In10_8 In 0.319445(13) 0.292960(16) 0.233720(3)
O22_6 O 0.98663(16) 0.24126(20) 0.41458(3)
O26_6 O 0.70307(13) 0.00205(16) 0.28739(3)
O27_6 O 0.77600(14) 0.06413(17) 0.28179(3)
C82_6 C 0.91136(26) 0.19882(33) 0.38309(6)
H46_6 H 0.9118 0.2268 0.3804
C83_6 C 0.96871(24) 0.24347(31) 0.40296(5)
C84_6 C 0.93751(25) 0.19877(32) 0.39445(5)
C85_6 C 0.93688(26) 0.15684(33) 0.39784(6)
H47_6 H 0.9551 0.1565 0.4056
C86_6 C 0.88370(36) 0.15656(47) 0.37528(6)
H48_6 H 0.8661 0.1573 0.3674
C87_6 C 0.85164(26) 0.07030(33) 0.37033(5)
C88_6 C 0.88158(26) 0.11514(33) 0.37864(5)
C89_6 C 0.91023(26) 0.11549(33) 0.39011(5)
H49_6 H 0.9113 0.0879 0.3924
C94_6 C 0.83357(26) 0.02663(33) 0.37726(5)
H52_6 H 0.8416 0.0257 0.3868
C100_6 C 0.80972(34) 0.02998(45) 0.34850(5)
C102_6 C 0.74649(22) 0.03388(27) 0.29027(4)
C103_6 C 0.84015(26) 0.07081(33) 0.35602(5)
H57_6 H 0.8536 0.1001 0.3512
C104_6 C 0.79270(26) 0.03106(33) 0.33360(5)
C105_6 C 0.82319(26) 0.06485(33) 0.32386(5)
H58_6 H 0.8540 0.0875 0.3267
C106_6 C 0.80852(25) 0.06547(31) 0.30978(5)
H59_6 H 0.8298 0.0878 0.3032
C107_6 C 0.76250(23) 0.03295(29) 0.30556(4)
Mg8_6 Mg 0.77855(5) 0.10070(8) 0.263627(13)
O25_6 O 0.69169(14) 0.76493(18) 0.39226(3)
C90_6 C 0.73215(23) 0.84965(29) 0.39215(5)
C91_6 C 0.74562(26) 0.89098(33) 0.39947(5)
H50_6 H 0.7387 0.8900 0.4092
C92_6 C 0.74504(25) 0.85130(32) 0.37769(5)
H51_6 H 0.7378 0.8231 0.3728
C93_6 C 0.70345(22) 0.80264(27) 0.39996(5)
C95_6 C 0.77015(26) 0.93511(33) 0.39228(5)
H53_6 H 0.7797 0.9634 0.3973
C96_6 C 0.80312(26) 0.98318(33) 0.36994(5)
C97_6 C 0.78014(26) 0.93670(33) 0.37770(5)
C98_6 C 0.76830(26) 0.89446(33) 0.37053(5)
H54_6 H 0.7762 0.8952 0.3608
C99_6 C 0.74742(35) 0.99898(46) 0.32904(5)
H55_6 H 0.7263 0.9761 0.3355
C101_6 C 0.79229(26) 0.98525(33) 0.35565(5)
H56_6 H 0.7733 0.9570 0.3506
C108_6 C 0.73189(26) 0.99905(33) 0.31521(5)
H60_6 H 0.7010 0.9764 0.3124
O47_6 O 0.63027(13) 0.66461(16) 0.37927(3)
O43_9 O 0.71210(11) 0.04465(8) 0.25665(2)
In10_9 In 0.707040(16) 0.026486(9) 0.233720(3)
O3_9 O 0.34671(16) 0.42540(10) 0.25208(3)
O5_9 O 0.63959(14) 0.86287(9) 0.25399(3)
O6_9 O 0.64165(14) 0.90173(9) 0.27440(3)
C10_9 C 0.42198(26) 0.46784(17) 0.28357(6)
H6_9 H 0.4216 0.4398 0.2862
C11_9 C 0.36463(24) 0.42319(15) 0.26370(5)
C12_9 C 0.39583(25) 0.46789(15) 0.27221(5)
C13_9 C 0.39646(26) 0.50982(17) 0.26882(6)
H7_9 H 0.3783 0.5101 0.2610
C14_9 C 0.44964(36) 0.51010(19) 0.29138(6)
H8_9 H 0.4673 0.5093 0.2992
C15_9 C 0.48170(26) 0.59636(16) 0.29633(5)
C16_9 C 0.45176(26) 0.55152(17) 0.28802(5)
C17_9 C 0.42311(26) 0.55117(17) 0.27655(5)
H9_9 H 0.4221 0.5787 0.2742
C18_9 C 0.60119(23) 0.81701(15) 0.27451(5)
C19_9 C 0.58772(26) 0.77568(16) 0.26719(5)
H10_9 H 0.5947 0.7766 0.2574
C20_9 C 0.58830(25) 0.81536(15) 0.28897(5)
H11_9 H 0.5956 0.8435 0.2938
C21_9 C 0.62989(22) 0.86402(15) 0.26670(5)
C22_9 C 0.49977(26) 0.64003(17) 0.28940(5)
H12_9 H 0.4918 0.6409 0.2798
C23_9 C 0.56319(26) 0.73155(17) 0.27438(5)
H13_9 H 0.5537 0.7032 0.2693
C24_9 C 0.53022(26) 0.68348(17) 0.29672(5)
C25_9 C 0.55320(26) 0.72996(16) 0.28896(5)
C26_9 C 0.56504(26) 0.77220(17) 0.29613(5)
H14_9 H 0.5572 0.7714 0.3058
C27_9 C 0.58592(35) 0.66768(18) 0.33762(5)
H15_9 H 0.6071 0.6905 0.3311
C28_9 C 0.52362(34) 0.63668(16) 0.31816(5)
C29_9 C 0.54105(26) 0.68141(17) 0.31101(5)
H16_9 H 0.5601 0.7096 0.3160
C30_9 C 0.58685(22) 0.63278(16) 0.37639(4)
C31_9 C 0.49319(26) 0.59585(17) 0.31064(5)
H17_9 H 0.4798 0.5665 0.3154
C32_9 C 0.54064(26) 0.63560(16) 0.33306(5)
C33_9 C 0.51015(26) 0.60181(17) 0.34280(5)
H18_9 H 0.4794 0.5791 0.3399
C34_9 C 0.52482(25) 0.60119(16) 0.35688(5)
H19_9 H 0.5036 0.5788 0.3634
C35_9 C 0.57084(23) 0.63371(15) 0.36110(4)
C36_9 C 0.60145(26) 0.66761(16) 0.35145(5)
H20_9 H 0.6324 0.6902 0.3542
Mg4_9 Mg 0.67786(6) 0.89930(4) 0.236373(13)
O40_9 O 0.66744(14) 0.95535(8) 0.24335(2)
O41_9 O 0.74464(13) 0.97068(9) 0.26653(3)
O3_10 O 0.25464(12) 0.24126(10) 0.91458(3)
O4_4 O 0.30776(10) 0.28255(9) 0.89688(3)
O7_4 O 0.29899(9) 0.00205(10) 0.78739(3)
O8_7 O 0.28814(10) 0.06413(10) 0.78179(3)
O9_3 O 0.33256(8) 0.04465(8) 0.75665(2)
C2_4 C 0.04648(16) 0.03591(15) 0.77180(5)
H1_4 H 0.0786 0.0599 0.7719
C4_4 C 0.11858(15) 0.00103(15) 0.77621(5)
H3_4 H 0.1245 0.0253 0.7827
H5_4 H 0.1847 0.0091 0.7771
C10_10 C 0.2875(2) 0.19882(17) 0.88309(6)
H6_10 H 0.3151 0.2268 0.8804
C11_10 C 0.27477(19) 0.24347(15) 0.90296(5)
C12_10 C 0.2613(2) 0.19877(15) 0.89445(5)
C13_10 C 0.2200(2) 0.15684(17) 0.89784(6)
H7_10 H 0.2015 0.1565 0.9056
C14_10 C 0.2729(3) 0.15656(19) 0.87528(6)
H8_10 H 0.2913 0.1573 0.8674
C15_10 C 0.2187(2) 0.07030(16) 0.87033(5)
C16_10 C 0.2336(2) 0.11514(17) 0.87864(5)
C17_10 C 0.2053(2) 0.11549(17) 0.89011(5)
H9_10 H 0.1767 0.0879 0.8924
C22_10 C 0.1931(2) 0.02663(17) 0.87726(5)
H12_10 H 0.1842 0.0257 0.8868
C28_10 C 0.2203(3) 0.02998(16) 0.84850(5)
C30_10 C 0.28740(15) 0.03388(16) 0.79027(4)
C31_10 C 0.2307(2) 0.07081(17) 0.85602(5)
H17_10 H 0.2466 0.1001 0.8512
C32_10 C 0.2384(2) 0.03106(16) 0.83360(5)
C33_10 C 0.2417(2) 0.06485(17) 0.82386(5)
H18_10 H 0.2336 0.0875 0.8267
C34_10 C 0.25696(19) 0.06547(16) 0.80978(5)
H19_10 H 0.2581 0.0878 0.8032
C35_10 C 0.27046(18) 0.03295(15) 0.80556(4)
C37_4 C 0.01301(14) 0.04847(20) 0.77170(5)
C48_4 C 0.02518(15) 0.09927(21) 0.77003(5)
C49_4 C 0.06171(16) 0.12813(23) 0.76046(5)
H27_4 H 0.0804 0.1166 0.7563
C50_4 C 0.07098(15) 0.17416(21) 0.75685(5)
C51_4 C 0.04347(14) 0.19146(20) 0.76300(4)
C52_4 C 0.05080(15) 0.23950(21) 0.75869(5)
O14_4 O 0.02932(9) 0.25536(13) 0.76653(3)
O15_4 O 0.07603(10) 0.25970(14) 0.74786(3)
C53_4 C 0.00853(15) 0.16342(21) 0.77277(5)
H30_4 H 0.0954 0.1929 0.7503
In3_3 In 0.026486(9) 0.319445(13) 0.766280(3)
Mg3_3 Mg 0.10070(4) 0.32214(6) 0.736373(13)
O31_4 O 0.15723(11) 0.31319(17) 0.72973(3)
O32_4 O 0.12991(12) 0.38660(16) 0.72489(3)
Mg5_7 Mg 0.32214(6) 0.10070(4) 0.763627(13)
In6_7 In 0.319445(13) 0.026486(9) 0.733720(3)
O35_3 O 0.04465(8) 0.33256(8) 0.74335(2)
O38_4 O 0.13713(9) 0.36041(14) 0.75399(3)
O39_3 O 0.06413(10) 0.28814(10) 0.71821(3)
H65_4 H 0.144538 0.28244 0.724411
H66_4 H 0.178706 0.340103 0.723285
H71_4 H 0.149151 0.385537 0.716661
H72_4 H 0.10365 0.391307 0.72116
In1_3 In 0.292960(9) 0.973514(9) 0.766280(3)
Mg1_3 Mg 0.22145(5) 0.89930(4) 0.736373(13)
O1_4 O 0.22605(9) 0.97068(9) 0.76653(3)
O2_4 O 0.18368(10) 0.92397(10) 0.74786(3)
O5_10 O 0.11005(11) 0.80379(9) 0.91267(3)
O6_10 O 0.07325(11) 0.76493(9) 0.89226(3)
C1_4 C 0.03547(14) 0.98699(14) 0.77170(5)
C3_4 C 0.06643(16) 0.93829(16) 0.76046(5)
H2_4 H 0.0363 0.9196 0.7563
C5_4 C 0.14800(14) 0.95653(14) 0.76300(4)
C6_4 C 0.10319(15) 0.92902(15) 0.75685(5)
H4_4 H 0.0976 0.9046 0.7503
C7_4 C 0.18871(14) 0.94920(15) 0.75869(5)
C8_4 C 0.15490(15) 0.99147(15) 0.77277(5)
C9_4 C 0.07410(14) 0.97482(15) 0.77003(5)
C18_10 C 0.11751(18) 0.84965(15) 0.89215(5)
C19_10 C 0.1454(2) 0.89098(16) 0.89947(5)
H10_10 H 0.1514 0.8900 0.9092
C20_10 C 0.1063(2) 0.85130(15) 0.87769(5)
H11_10 H 0.0854 0.8231 0.8728
C21_10 C 0.09920(16) 0.80264(15) 0.89996(5)
C23_10 C 0.1650(2) 0.93511(17) 0.89228(5)
H13_10 H 0.1838 0.9634 0.8973
C24_10 C 0.1801(2) 0.98318(17) 0.86994(5)
C25_10 C 0.1566(2) 0.93670(16) 0.87770(5)
C26_10 C 0.1262(2) 0.89446(17) 0.87053(5)
H14_10 H 0.1191 0.8952 0.8608
C27_10 C 0.2516(3) 0.99898(18) 0.82904(5)
H15_10 H 0.2499 0.9761 0.8355
C29_10 C 0.1930(2) 0.98525(17) 0.85565(5)
H16_10 H 0.1838 0.9570 0.8506
C36_10 C 0.2672(2) 0.99905(16) 0.81521(5)
H20_10 H 0.2755 0.9764 0.8124
O10_4 O 0.15597(13) 0.84277(11) 0.72973(3)
O11_4 O 0.25670(11) 0.87009(12) 0.72489(3)
O16_4 O 0.07870(12) 0.42540(10) 0.75208(3)
O17_4 O 0.02558(10) 0.38411(9) 0.76978(3)
O18_4 O 0.22329(11) 0.86287(9) 0.75399(3)
O19_4 O 0.26009(11) 0.90173(9) 0.77440(3)
O20_4 O 0.03435(9) 0.66461(10) 0.87927(3)
O21_4 O 0.04520(10) 0.60253(10) 0.88487(3)
C55_4 C 0.0459(2) 0.46784(17) 0.78357(6)
H31_4 H 0.0183 0.4398 0.7862
C56_4 C 0.05857(19) 0.42319(15) 0.76370(5)
C57_4 C 0.0721(2) 0.46789(15) 0.77221(5)
C58_4 C 0.1134(2) 0.50982(17) 0.76882(6)
H32_4 H 0.1319 0.5101 0.7610
C59_4 C 0.0605(3) 0.51010(19) 0.79138(6)
H33_4 H 0.0421 0.5093 0.7992
C60_4 C 0.1147(2) 0.59636(16) 0.79633(5)
C61_4 C 0.0998(2) 0.55152(17) 0.78802(5)
C62_4 C 0.1281(2) 0.55117(17) 0.77655(5)
H34_4 H 0.1567 0.5787 0.7742
C63_4 C 0.21583(18) 0.81701(15) 0.77451(5)
C64_4 C 0.1880(2) 0.77568(16) 0.76719(5)
H35_4 H 0.1820 0.7766 0.7574
C65_4 C 0.2271(2) 0.81536(15) 0.78897(5)
H36_4 H 0.2480 0.8435 0.7938
C66_4 C 0.23414(16) 0.86402(15) 0.76670(5)
C67_4 C 0.1403(2) 0.64003(17) 0.78940(5)
H37_4 H 0.1492 0.6409 0.7798
C68_4 C 0.1684(2) 0.73155(17) 0.77438(5)
H38_4 H 0.1496 0.7032 0.7693
C69_4 C 0.1533(2) 0.68348(17) 0.79672(5)
C70_4 C 0.1768(2) 0.72996(16) 0.78896(5)
C71_4 C 0.2072(2) 0.77220(17) 0.79613(5)
H39_4 H 0.2143 0.7714 0.8058
C72_4 C 0.0818(3) 0.66768(18) 0.83762(5)
H40_4 H 0.0835 0.6905 0.8311
C73_4 C 0.1131(3) 0.63668(16) 0.81816(5)
C74_4 C 0.1404(2) 0.68141(17) 0.81101(5)
H41_4 H 0.1496 0.7096 0.8160
C75_4 C 0.04594(15) 0.63278(16) 0.87639(4)
C76_4 C 0.1027(2) 0.59585(17) 0.81064(5)
H42_4 H 0.0868 0.5665 0.8154
C77_4 C 0.0950(2) 0.63560(16) 0.83306(5)
C78_4 C 0.0917(2) 0.60181(17) 0.84280(5)
H43_4 H 0.0998 0.5791 0.8399
C79_4 C 0.07638(19) 0.60119(16) 0.85688(5)
H44_4 H 0.0753 0.5788 0.8634
C80_4 C 0.06288(18) 0.63371(15) 0.86110(4)
C81_4 C 0.0662(2) 0.66761(16) 0.85145(5)
H45_4 H 0.0579 0.6902 0.8542
O22_7 O 0.34671(16) 0.92130(12) 0.75208(3)
O23_4 O 0.35854(13) 0.97442(10) 0.76978(3)
O24_4 O 0.63959(14) 0.77671(11) 0.75399(3)
O25_7 O 0.64165(14) 0.73991(11) 0.77440(3)
O26_7 O 0.63027(13) 0.96565(9) 0.87927(3)
O27_7 O 0.55734(14) 0.95480(10) 0.88487(3)
C82_7 C 0.42198(26) 0.9541(2) 0.78357(6)
H46_7 H 0.4216 0.9817 0.7862
C83_7 C 0.36463(24) 0.94143(19) 0.76370(5)
C84_7 C 0.39583(25) 0.9279(2) 0.77221(5)
C85_7 C 0.39646(26) 0.8866(2) 0.76882(6)
H47_7 H 0.3783 0.8681 0.7610
C86_7 C 0.44964(36) 0.9395(3) 0.79138(6)
H48_7 H 0.4673 0.9579 0.7992
C87_7 C 0.48170(26) 0.8853(2) 0.79633(5)
C88_7 C 0.45176(26) 0.9002(2) 0.78802(5)
C89_7 C 0.42311(26) 0.8719(2) 0.77655(5)
H49_7 H 0.4221 0.8433 0.7742
C90_7 C 0.60119(23) 0.78417(18) 0.77451(5)
C91_7 C 0.58772(26) 0.8120(2) 0.76719(5)
H50_7 H 0.5947 0.8180 0.7574
C92_7 C 0.58830(25) 0.7729(2) 0.78897(5)
H51_7 H 0.5956 0.7520 0.7938
C93_7 C 0.62989(22) 0.76586(16) 0.76670(5)
C94_7 C 0.49977(26) 0.8597(2) 0.78940(5)
H52_7 H 0.4918 0.8508 0.7798
C95_7 C 0.56319(26) 0.8316(2) 0.77438(5)
H53_7 H 0.5537 0.8504 0.7693
C96_7 C 0.53022(26) 0.8467(2) 0.79672(5)
C97_7 C 0.55320(26) 0.8232(2) 0.78896(5)
C98_7 C 0.56504(26) 0.7928(2) 0.79613(5)
H54_7 H 0.5572 0.7857 0.8058
C99_7 C 0.58592(35) 0.9182(3) 0.83762(5)
H55_7 H 0.6071 0.9165 0.8311
C100_7 C 0.52362(34) 0.8869(3) 0.81816(5)
C101_7 C 0.54105(26) 0.8596(2) 0.81101(5)
H56_7 H 0.5601 0.8504 0.8160
C102_7 C 0.58685(22) 0.95406(15) 0.87639(4)
C103_7 C 0.49319(26) 0.8973(2) 0.81064(5)
H57_7 H 0.4798 0.9132 0.8154
C104_7 C 0.54064(26) 0.9050(2) 0.83306(5)
C105_7 C 0.51015(26) 0.9083(2) 0.84280(5)
H58_7 H 0.4794 0.9002 0.8399
C106_7 C 0.52482(25) 0.92362(19) 0.85688(5)
H59_7 H 0.5036 0.9247 0.8634
C107_7 C 0.57084(23) 0.93712(18) 0.86110(4)
C108_7 C 0.60145(26) 0.9338(2) 0.85145(5)
H60_7 H 0.6324 0.9421 0.8542
O28_3 O 0.28790(11) 0.95535(8) 0.74335(2)
O33_3 O 0.22400(14) 0.93587(10) 0.71821(3)
Mg7_3 Mg 0.67786(6) 0.77855(5) 0.736373(13)
In8_3 In 0.680555(13) 0.707040(9) 0.766280(3)
O41_10 O 0.10729(9) 0.69598(9) 0.90013(3)
O44_3 O 0.66744(8) 0.71210(11) 0.74335(2)
O45_4 O 0.74464(13) 0.77395(9) 0.76653(3)
O46_4 O 0.61589(9) 0.64146(13) 0.76978(3)
O47_7 O 0.70307(13) 0.70101(9) 0.78739(3)
O48_5 O 0.71210(11) 0.66744(8) 0.75665(2)
H61_4 H 0.236386 0.850849 0.716661
H62_4 H 0.287656 0.89635 0.72116
H63_4 H 0.137902 0.855462 0.724411
H64_4 H 0.161397 0.821294 0.723285
C38_4 C 0.96409(15) 0.01056(22) 0.77180(5)
H26_4 H 0.9401 0.0186 0.7719
C54_4 C 0.99897(15) 0.11754(21) 0.77621(5)
H28_4 H 0.9747 0.0991 0.7827
H29_4 H 0.9909 0.1755 0.7771
C39_4 C 0.95153(20) 0.96453(14) 0.77170(5)
C40_4 C 0.98944(22) 0.95352(16) 0.77180(5)
H21_4 H 0.9814 0.9214 0.7719
C41_4 C 0.90073(21) 0.92590(14) 0.77003(5)
C42_4 C 0.87187(23) 0.93357(16) 0.76046(5)
H22_4 H 0.8834 0.9637 0.7563
C43_4 C 0.82584(21) 0.89681(15) 0.75685(5)
C44_4 C 0.80854(20) 0.85200(14) 0.76300(4)
C45_4 C 0.76050(21) 0.81129(14) 0.75869(5)
O13_4 O 0.74030(14) 0.81632(10) 0.74786(3)
C46_4 C 0.83658(21) 0.84510(15) 0.77277(5)
C47_4 C 0.88246(21) 0.88142(15) 0.77621(5)
H23_4 H 0.9009 0.8755 0.7827
H24_4 H 0.8245 0.8153 0.7771
H25_4 H 0.8071 0.9024 0.7503
O29_4 O 0.68681(17) 0.84403(13) 0.72973(3)
O30_4 O 0.61340(16) 0.74330(11) 0.72489(3)
O37_3 O 0.71186(10) 0.77600(14) 0.71821(3)
O42_7 O 0.97480(13) 0.69224(10) 0.89688(3)
H67_4 H 0.71756 0.862098 0.724411
H68_4 H 0.659897 0.838603 0.723285
H69_4 H 0.614463 0.763614 0.716661
H70_4 H 0.608693 0.712344 0.72116
O42_8 O 0.71745(16) 0.02520(13) 0.89688(3)
O3_11 O 0.98663(16) 0.74536(12) 0.91458(3)
O5_11 O 0.69375(14) 0.88995(11) 0.91267(3)
O6_11 O 0.69169(14) 0.92675(11) 0.89226(3)
O8_8 O 0.77600(14) 0.71186(10) 0.78179(3)
C10_11 C 0.91136(26) 0.7125(2) 0.88309(6)
H6_11 H 0.9118 0.6849 0.8804
C11_11 C 0.96871(24) 0.72523(19) 0.90296(5)
C12_11 C 0.93751(25) 0.7387(2) 0.89445(5)
C13_11 C 0.93688(26) 0.7800(2) 0.89784(6)
H7_11 H 0.9551 0.7985 0.9056
C14_11 C 0.88370(36) 0.7271(3) 0.87528(6)
H8_11 H 0.8661 0.7087 0.8674
C15_11 C 0.85164(26) 0.7813(2) 0.87033(5)
C16_11 C 0.88158(26) 0.7664(2) 0.87864(5)
C17_11 C 0.91023(26) 0.7947(2) 0.89011(5)
H9_11 H 0.9113 0.8233 0.8924
C18_11 C 0.73215(23) 0.88249(18) 0.89215(5)
C19_11 C 0.74562(26) 0.8546(2) 0.89947(5)
H10_11 H 0.7387 0.8486 0.9092
C20_11 C 0.74504(25) 0.8937(2) 0.87769(5)
H11_11 H 0.7378 0.9146 0.8728
C21_11 C 0.70345(22) 0.90080(16) 0.89996(5)
C22_11 C 0.83357(26) 0.8069(2) 0.87726(5)
H12_11 H 0.8416 0.8158 0.8868
C23_11 C 0.77015(26) 0.8350(2) 0.89228(5)
H13_11 H 0.7797 0.8162 0.8973
C24_11 C 0.80312(26) 0.8199(2) 0.86994(5)
C25_11 C 0.78014(26) 0.8434(2) 0.87770(5)
C26_11 C 0.76830(26) 0.8738(2) 0.87053(5)
H14_11 H 0.7762 0.8809 0.8608
C27_11 C 0.74742(35) 0.7484(3) 0.82904(5)
H15_11 H 0.7263 0.7501 0.8355
C28_11 C 0.80972(34) 0.7797(3) 0.84850(5)
C29_11 C 0.79229(26) 0.8070(2) 0.85565(5)
H16_11 H 0.7733 0.8162 0.8506
C30_11 C 0.74649(22) 0.71260(15) 0.79027(4)
C31_11 C 0.84015(26) 0.7693(2) 0.85602(5)
H17_11 H 0.8536 0.7534 0.8512
C32_11 C 0.79270(26) 0.7616(2) 0.83360(5)
C33_11 C 0.82319(26) 0.7583(2) 0.82386(5)
H18_11 H 0.8540 0.7664 0.8267
C34_11 C 0.80852(25) 0.74304(19) 0.80978(5)
H19_11 H 0.8298 0.7419 0.8032
C35_11 C 0.76250(23) 0.72954(18) 0.80556(4)
C36_11 C 0.73189(26) 0.7328(2) 0.81521(5)
H20_11 H 0.7010 0.7245 0.8124
O22_8 O 0.57460(20) 0.65329(16) 0.75208(3)
O25_8 O 0.09827(18) 0.35835(14) 0.77440(3)
O26_8 O 0.33539(16) 0.36973(13) 0.87927(3)
O27_8 O 0.39747(17) 0.44266(14) 0.88487(3)
C82_8 C 0.53216(33) 0.57802(26) 0.78357(6)
H46_8 H 0.5602 0.5784 0.7862
C83_8 C 0.57681(31) 0.63537(24) 0.76370(5)
C84_8 C 0.53211(32) 0.60417(25) 0.77221(5)
C85_8 C 0.49018(33) 0.60354(26) 0.76882(6)
H47_8 H 0.4899 0.6217 0.7610
C86_8 C 0.48990(47) 0.55036(36) 0.79138(6)
H48_8 H 0.4907 0.5327 0.7992
C87_8 C 0.40364(33) 0.51830(26) 0.79633(5)
C88_8 C 0.44848(33) 0.54824(26) 0.78802(5)
C89_8 C 0.44883(33) 0.57689(26) 0.77655(5)
H49_8 H 0.4213 0.5779 0.7742
C90_8 C 0.18299(29) 0.39881(23) 0.77451(5)
C91_8 C 0.22432(33) 0.41228(26) 0.76719(5)
H50_8 H 0.2234 0.4053 0.7574
C92_8 C 0.18464(32) 0.41170(25) 0.78897(5)
H51_8 H 0.1565 0.4044 0.7938
C93_8 C 0.13598(27) 0.37011(22) 0.76670(5)
C94_8 C 0.35997(33) 0.50023(26) 0.78940(5)
H52_8 H 0.3591 0.5082 0.7798
C95_8 C 0.26845(33) 0.43681(26) 0.77438(5)
H53_8 H 0.2968 0.4463 0.7693
C96_8 C 0.31652(33) 0.46978(26) 0.79672(5)
C97_8 C 0.27004(33) 0.44680(26) 0.78896(5)
C98_8 C 0.22780(33) 0.43496(26) 0.79613(5)
H54_8 H 0.2286 0.4428 0.8058
C99_8 C 0.33232(46) 0.41408(35) 0.83762(5)
H55_8 H 0.3095 0.3929 0.8311
C100_8 C 0.36332(45) 0.47638(34) 0.81816(5)
C101_8 C 0.31859(33) 0.45895(26) 0.81101(5)
H56_8 H 0.2904 0.4399 0.8160
C102_8 C 0.36722(27) 0.41315(22) 0.87639(4)
C103_8 C 0.40415(33) 0.50681(26) 0.81064(5)
H57_8 H 0.4335 0.5202 0.8154
C104_8 C 0.36440(33) 0.45936(26) 0.83306(5)
C105_8 C 0.39819(33) 0.48985(26) 0.84280(5)
H58_8 H 0.4209 0.5206 0.8399
C106_8 C 0.39881(31) 0.47518(25) 0.85688(5)
H59_8 H 0.4212 0.4964 0.8634
C107_8 C 0.36629(29) 0.42916(23) 0.86110(4)
C108_8 C 0.33239(33) 0.39855(26) 0.85145(5)
H60_8 H 0.3098 0.3676 0.8542
Mg5_8 Mg 0.77855(7) 0.67786(6) 0.763627(13)
In6_8 In 0.707040(16) 0.680555(13) 0.733720(3)
O41_11 O 0.58870(13) 0.89271(9) 0.90013(3)
O47_8 O 0.99795(16) 0.29693(13) 0.78739(3)
O48_6 O 0.95535(14) 0.28790(11) 0.75665(2)
O5_12 O 0.19621(9) 0.30625(14) 0.91267(3)
O6_12 O 0.23507(9) 0.30831(14) 0.89226(3)
C18_12 C 0.15035(15) 0.26785(23) 0.89215(5)
C19_12 C 0.10902(16) 0.25438(26) 0.89947(5)
H10_12 H 0.1100 0.2613 0.9092
C20_12 C 0.14870(15) 0.25496(25) 0.87769(5)
H11_12 H 0.1769 0.2622 0.8728
C21_12 C 0.19736(15) 0.29655(22) 0.89996(5)
C23_12 C 0.06489(17) 0.22985(26) 0.89228(5)
H13_12 H 0.0366 0.2203 0.8973
C24_12 C 0.01682(17) 0.19688(26) 0.86994(5)
C25_12 C 0.06330(16) 0.21986(26) 0.87770(5)
C26_12 C 0.10554(17) 0.23170(26) 0.87053(5)
H14_12 H 0.1048 0.2238 0.8608
C27_12 C 0.00102(18) 0.25258(35) 0.82904(5)
H15_12 H 0.0239 0.2737 0.8355
C29_12 C 0.01475(17) 0.20771(26) 0.85565(5)
H16_12 H 0.0430 0.2267 0.8506
C36_12 C 0.00095(16) 0.26811(26) 0.81521(5)
H20_12 H 0.0236 0.2990 0.8124
O41_12 O 0.30402(9) 0.41130(13) 0.90013(3)
O3_12 O 0.75874(10) 0.01337(16) 0.91458(3)
O8_9 O 0.93587(10) 0.22400(14) 0.78179(3)
C10_12 C 0.80118(17) 0.08864(26) 0.88309(6)
H6_12 H 0.7732 0.0882 0.8804
C11_12 C 0.75653(15) 0.03129(24) 0.90296(5)
C12_12 C 0.80123(15) 0.06249(25) 0.89445(5)
C13_12 C 0.84316(17) 0.06312(26) 0.89784(6)
H7_12 H 0.8435 0.0449 0.9056
C14_12 C 0.84344(19) 0.11630(36) 0.87528(6)
H8_12 H 0.8427 0.1339 0.8674
C15_12 C 0.92970(16) 0.14836(26) 0.87033(5)
C16_12 C 0.88486(17) 0.11842(26) 0.87864(5)
C17_12 C 0.88451(17) 0.08977(26) 0.89011(5)
H9_12 H 0.9121 0.0887 0.8924
C22_12 C 0.97337(17) 0.16643(26) 0.87726(5)
H12_12 H 0.9743 0.1584 0.8868
C28_12 C 0.97002(16) 0.19028(34) 0.84850(5)
C30_12 C 0.96612(16) 0.25351(22) 0.79027(4)
C31_12 C 0.92919(17) 0.15985(26) 0.85602(5)
H17_12 H 0.8999 0.1464 0.8512
C32_12 C 0.96894(16) 0.20730(26) 0.83360(5)
C33_12 C 0.93515(17) 0.17681(26) 0.82386(5)
H18_12 H 0.9125 0.1460 0.8267
C34_12 C 0.93453(16) 0.19148(25) 0.80978(5)
H19_12 H 0.9122 0.1702 0.8032
C35_12 C 0.96705(15) 0.23750(23) 0.80556(4)
Mg5_9 Mg 0.89930(4) 0.22145(7) 0.763627(13)
In6_9 In 0.973514(9) 0.292960(16) 0.733720(3)
O3_13 O 0.24126(10) 0.25464(12) 0.58542(3)
O4_5 O 0.28255(9) 0.30776(10) 0.60312(3)
O7_5 O 0.00205(10) 0.29899(9) 0.71261(3)
C2_5 C 0.03591(15) 0.04648(16) 0.72820(5)
H1_5 H 0.0599 0.0786 0.7281
C4_5 C 0.00103(15) 0.11858(15) 0.72379(5)
H3_5 H 0.0253 0.1245 0.7173
H5_5 H 0.0091 0.1847 0.7229
C10_13 C 0.19882(17) 0.2875(2) 0.61691(6)
H6_13 H 0.2268 0.3151 0.6196
C11_13 C 0.24347(15) 0.27477(19) 0.59704(5)
C12_13 C 0.19877(15) 0.2613(2) 0.60555(5)
C13_13 C 0.15684(17) 0.2200(2) 0.60216(6)
H7_13 H 0.1565 0.2015 0.5944
C14_13 C 0.15656(19) 0.2729(3) 0.62472(6)
H8_13 H 0.1573 0.2913 0.6326
C15_13 C 0.07030(16) 0.2187(2) 0.62967(5)
C16_13 C 0.11514(17) 0.2336(2) 0.62136(5)
C17_13 C 0.11549(17) 0.2053(2) 0.60989(5)
H9_13 H 0.0879 0.1767 0.6076
C22_13 C 0.02663(17) 0.1931(2) 0.62274(5)
H12_13 H 0.0257 0.1842 0.6132
C28_13 C 0.02998(16) 0.2203(3) 0.65150(5)
C30_13 C 0.03388(16) 0.28740(15) 0.70973(4)
C31_13 C 0.07081(17) 0.2307(2) 0.64398(5)
H17_13 H 0.1001 0.2466 0.6488
C32_13 C 0.03106(16) 0.2384(2) 0.66640(5)
C33_13 C 0.06485(17) 0.2417(2) 0.67614(5)
H18_13 H 0.0875 0.2336 0.6733
C34_13 C 0.06547(16) 0.25696(19) 0.69022(5)
H19_13 H 0.0878 0.2581 0.6968
C35_13 C 0.03295(15) 0.27046(18) 0.69444(4)
C37_5 C 0.04847(20) 0.01301(14) 0.72830(5)
C48_5 C 0.09927(21) 0.02518(15) 0.72997(5)
C49_5 C 0.12813(23) 0.06171(16) 0.73954(5)
H27_5 H 0.1166 0.0804 0.7437
C50_5 C 0.17416(21) 0.07098(15) 0.74315(5)
C51_5 C 0.19146(20) 0.04347(14) 0.73700(4)
C52_5 C 0.23950(21) 0.05080(15) 0.74131(5)
O14_5 O 0.25536(13) 0.02932(9) 0.73347(3)
O15_5 O 0.25970(14) 0.07603(10) 0.75214(3)
C53_5 C 0.16342(21) 0.00853(15) 0.72723(5)
H30_5 H 0.1929 0.0954 0.7497
O31_5 O 0.31319(17) 0.15723(11) 0.77027(3)
O32_5 O 0.38660(16) 0.12991(12) 0.77511(3)
O38_5 O 0.36041(14) 0.13713(9) 0.74601(3)
H65_5 H 0.28244 0.144538 0.775589
H66_5 H 0.340103 0.178706 0.776715
H71_5 H 0.385537 0.149151 0.783339
H72_5 H 0.391307 0.10365 0.77884
C38_5 C 0.01056(22) 0.96409(15) 0.72820(5)
H26_5 H 0.0186 0.9401 0.7281
C54_5 C 0.11754(21) 0.99897(15) 0.72379(5)
H28_5 H 0.0991 0.9747 0.7173
H29_5 H 0.1755 0.9909 0.7229
O1_5 O 0.97068(9) 0.22605(9) 0.73347(3)
O2_5 O 0.92397(10) 0.18368(10) 0.75214(3)
O5_13 O 0.80379(9) 0.11005(11) 0.58733(3)
O6_13 O 0.76493(9) 0.07325(11) 0.60774(3)
C1_5 C 0.98699(14) 0.03547(14) 0.72830(5)
C3_5 C 0.93829(16) 0.06643(16) 0.73954(5)
H2_5 H 0.9196 0.0363 0.7437
C5_5 C 0.95653(14) 0.14800(14) 0.73700(4)
C6_5 C 0.92902(15) 0.10319(15) 0.74315(5)
H4_5 H 0.9046 0.0976 0.7497
C7_5 C 0.94920(15) 0.18871(14) 0.74131(5)
C8_5 C 0.99147(15) 0.15490(15) 0.72723(5)
C9_5 C 0.97482(15) 0.07410(14) 0.72997(5)
C18_13 C 0.84965(15) 0.11751(18) 0.60785(5)
C19_13 C 0.89098(16) 0.1454(2) 0.60053(5)
H10_13 H 0.8900 0.1514 0.5908
C20_13 C 0.85130(15) 0.1063(2) 0.62231(5)
H11_13 H 0.8231 0.0854 0.6272
C21_13 C 0.80264(15) 0.09920(16) 0.60004(5)
C23_13 C 0.93511(17) 0.1650(2) 0.60772(5)
H13_13 H 0.9634 0.1838 0.6027
C24_13 C 0.98318(17) 0.1801(2) 0.63006(5)
C25_13 C 0.93670(16) 0.1566(2) 0.62230(5)
C26_13 C 0.89446(17) 0.1262(2) 0.62947(5)
H14_13 H 0.8952 0.1191 0.6392
C27_13 C 0.99898(18) 0.2516(3) 0.67096(5)
H15_13 H 0.9761 0.2499 0.6645
C29_13 C 0.98525(17) 0.1930(2) 0.64435(5)
H16_13 H 0.9570 0.1838 0.6494
C36_13 C 0.99905(16) 0.2672(2) 0.68479(5)
H20_13 H 0.9764 0.2755 0.6876
O10_5 O 0.84277(11) 0.15597(13) 0.77027(3)
O11_5 O 0.87009(12) 0.25670(11) 0.77511(3)
O16_5 O 0.42540(10) 0.07870(12) 0.74792(3)
O17_5 O 0.38411(9) 0.02558(10) 0.73022(3)
O18_5 O 0.86287(9) 0.22329(11) 0.74601(3)
O19_5 O 0.90173(9) 0.26009(11) 0.72560(3)
O20_5 O 0.66461(10) 0.03435(9) 0.62073(3)
O21_5 O 0.60253(10) 0.04520(10) 0.61513(3)
C55_5 C 0.46784(17) 0.0459(2) 0.71643(6)
H31_5 H 0.4398 0.0183 0.7138
C56_5 C 0.42319(15) 0.05857(19) 0.73630(5)
C57_5 C 0.46789(15) 0.0721(2) 0.72779(5)
C58_5 C 0.50982(17) 0.1134(2) 0.73118(6)
H32_5 H 0.5101 0.1319 0.7390
C59_5 C 0.51010(19) 0.0605(3) 0.70862(6)
H33_5 H 0.5093 0.0421 0.7008
C60_5 C 0.59636(16) 0.1147(2) 0.70367(5)
C61_5 C 0.55152(17) 0.0998(2) 0.71198(5)
C62_5 C 0.55117(17) 0.1281(2) 0.72345(5)
H34_5 H 0.5787 0.1567 0.7258
C63_5 C 0.81701(15) 0.21583(18) 0.72549(5)
C64_5 C 0.77568(16) 0.1880(2) 0.73281(5)
H35_5 H 0.7766 0.1820 0.7426
C65_5 C 0.81536(15) 0.2271(2) 0.71103(5)
H36_5 H 0.8435 0.2480 0.7062
C66_5 C 0.86402(15) 0.23414(16) 0.73330(5)
C67_5 C 0.64003(17) 0.1403(2) 0.71060(5)
H37_5 H 0.6409 0.1492 0.7202
C68_5 C 0.73155(17) 0.1684(2) 0.72562(5)
H38_5 H 0.7032 0.1496 0.7307
C69_5 C 0.68348(17) 0.1533(2) 0.70328(5)
C70_5 C 0.72996(16) 0.1768(2) 0.71104(5)
C71_5 C 0.77220(17) 0.2072(2) 0.70387(5)
H39_5 H 0.7714 0.2143 0.6942
C72_5 C 0.66768(18) 0.0818(3) 0.66238(5)
H40_5 H 0.6905 0.0835 0.6689
C73_5 C 0.63668(16) 0.1131(3) 0.68184(5)
C74_5 C 0.68141(17) 0.1404(2) 0.68899(5)
H41_5 H 0.7096 0.1496 0.6840
C75_5 C 0.63278(16) 0.04594(15) 0.62361(4)
C76_5 C 0.59585(17) 0.1027(2) 0.68936(5)
H42_5 H 0.5665 0.0868 0.6846
C77_5 C 0.63560(16) 0.0950(2) 0.66694(5)
C78_5 C 0.60181(17) 0.0917(2) 0.65720(5)
H43_5 H 0.5791 0.0998 0.6601
C79_5 C 0.60119(16) 0.07638(19) 0.64312(5)
H44_5 H 0.5788 0.0753 0.6366
C80_5 C 0.63371(15) 0.06288(18) 0.63890(4)
C81_5 C 0.66761(16) 0.0662(2) 0.64855(5)
H45_5 H 0.6902 0.0579 0.6458
O22_9 O 0.92130(12) 0.34671(16) 0.74792(3)
O23_5 O 0.97442(10) 0.35854(13) 0.73022(3)
O24_5 O 0.77671(11) 0.63959(14) 0.74601(3)
O25_9 O 0.73991(11) 0.64165(14) 0.72560(3)
O26_9 O 0.96565(9) 0.63027(13) 0.62073(3)
O27_9 O 0.95480(10) 0.55734(14) 0.61513(3)
C82_9 C 0.9541(2) 0.42198(26) 0.71643(6)
H46_9 H 0.9817 0.4216 0.7138
C83_9 C 0.94143(19) 0.36463(24) 0.73630(5)
C84_9 C 0.9279(2) 0.39583(25) 0.72779(5)
C85_9 C 0.8866(2) 0.39646(26) 0.73118(6)
H47_9 H 0.8681 0.3783 0.7390
C86_9 C 0.9395(3) 0.44964(36) 0.70862(6)
H48_9 H 0.9579 0.4673 0.7008
C87_9 C 0.8853(2) 0.48170(26) 0.70367(5)
C88_9 C 0.9002(2) 0.45176(26) 0.71198(5)
C89_9 C 0.8719(2) 0.42311(26) 0.72345(5)
H49_9 H 0.8433 0.4221 0.7258
C90_9 C 0.78417(18) 0.60119(23) 0.72549(5)
C91_9 C 0.8120(2) 0.58772(26) 0.73281(5)
H50_9 H 0.8180 0.5947 0.7426
C92_9 C 0.7729(2) 0.58830(25) 0.71103(5)
H51_9 H 0.7520 0.5956 0.7062
C93_9 C 0.76586(16) 0.62989(22) 0.73330(5)
C94_9 C 0.8597(2) 0.49977(26) 0.71060(5)
H52_9 H 0.8508 0.4918 0.7202
C95_9 C 0.8316(2) 0.56319(26) 0.72562(5)
H53_9 H 0.8504 0.5537 0.7307
C96_9 C 0.8467(2) 0.53022(26) 0.70328(5)
C97_9 C 0.8232(2) 0.55320(26) 0.71104(5)
C98_9 C 0.7928(2) 0.56504(26) 0.70387(5)
H54_9 H 0.7857 0.5572 0.6942
C99_9 C 0.9182(3) 0.58592(35) 0.66238(5)
H55_9 H 0.9165 0.6071 0.6689
C100_9 C 0.8869(3) 0.52362(34) 0.68184(5)
C101_9 C 0.8596(2) 0.54105(26) 0.68899(5)
H56_9 H 0.8504 0.5601 0.6840
C102_9 C 0.95406(15) 0.58685(22) 0.62361(4)
C103_9 C 0.8973(2) 0.49319(26) 0.68936(5)
H57_9 H 0.9132 0.4798 0.6846
C104_9 C 0.9050(2) 0.54064(26) 0.66694(5)
C105_9 C 0.9083(2) 0.51015(26) 0.65720(5)
H58_9 H 0.9002 0.4794 0.6601
C106_9 C 0.92362(19) 0.52482(25) 0.64312(5)
H59_9 H 0.9247 0.5036 0.6366
C107_9 C 0.93712(18) 0.57084(23) 0.63890(4)
C108_9 C 0.9338(2) 0.60145(26) 0.64855(5)
H60_9 H 0.9421 0.6324 0.6458
O41_13 O 0.69598(9) 0.10729(9) 0.59987(3)
O45_5 O 0.77395(9) 0.74464(13) 0.73347(3)
O46_5 O 0.64146(13) 0.61589(9) 0.73022(3)
O47_9 O 0.70101(9) 0.70307(13) 0.71261(3)
H61_5 H 0.850849 0.236386 0.783339
H62_5 H 0.89635 0.287656 0.77884
H63_5 H 0.855462 0.137902 0.775589
H64_5 H 0.821294 0.161397 0.776715
C39_5 C 0.96453(14) 0.95153(20) 0.72830(5)
C40_5 C 0.95352(16) 0.98944(22) 0.72820(5)
H21_5 H 0.9214 0.9814 0.7281
C41_5 C 0.92590(14) 0.90073(21) 0.72997(5)
C42_5 C 0.93357(16) 0.87187(23) 0.73954(5)
H22_5 H 0.9637 0.8834 0.7437
C43_5 C 0.89681(15) 0.82584(21) 0.74315(5)
C44_5 C 0.85200(14) 0.80854(20) 0.73700(4)
C45_5 C 0.81129(14) 0.76050(21) 0.74131(5)
O13_5 O 0.81632(10) 0.74030(14) 0.75214(3)
C46_5 C 0.84510(15) 0.83658(21) 0.72723(5)
C47_5 C 0.88142(15) 0.88246(21) 0.72379(5)
H23_5 H 0.8755 0.9009 0.7173
H24_5 H 0.8153 0.8245 0.7229
H25_5 H 0.9024 0.8071 0.7497
O29_5 O 0.84403(13) 0.68681(17) 0.77027(3)
O30_5 O 0.74330(11) 0.61340(16) 0.77511(3)
O42_9 O 0.69224(10) 0.97480(13) 0.60312(3)
H67_5 H 0.862098 0.71756 0.775589
H68_5 H 0.838603 0.659897 0.776715
H69_5 H 0.763614 0.614463 0.783339
H70_5 H 0.712344 0.608693 0.77884
O42_10 O 0.02520(13) 0.71745(16) 0.60312(3)
O3_14 O 0.74536(12) 0.98663(16) 0.58542(3)
O5_14 O 0.88995(11) 0.69375(14) 0.58733(3)
O6_14 O 0.92675(11) 0.69169(14) 0.60774(3)
C10_14 C 0.7125(2) 0.91136(26) 0.61691(6)
H6_14 H 0.6849 0.9118 0.6196
C11_14 C 0.72523(19) 0.96871(24) 0.59704(5)
C12_14 C 0.7387(2) 0.93751(25) 0.60555(5)
C13_14 C 0.7800(2) 0.93688(26) 0.60216(6)
H7_14 H 0.7985 0.9551 0.5944
C14_14 C 0.7271(3) 0.88370(36) 0.62472(6)
H8_14 H 0.7087 0.8661 0.6326
C15_14 C 0.7813(2) 0.85164(26) 0.62967(5)
C16_14 C 0.7664(2) 0.88158(26) 0.62136(5)
C17_14 C 0.7947(2) 0.91023(26) 0.60989(5)
H9_14 H 0.8233 0.9113 0.6076
C18_14 C 0.88249(18) 0.73215(23) 0.60785(5)
C19_14 C 0.8546(2) 0.74562(26) 0.60053(5)
H10_14 H 0.8486 0.7387 0.5908
C20_14 C 0.8937(2) 0.74504(25) 0.62231(5)
H11_14 H 0.9146 0.7378 0.6272
C21_14 C 0.90080(16) 0.70345(22) 0.60004(5)
C22_14 C 0.8069(2) 0.83357(26) 0.62274(5)
H12_14 H 0.8158 0.8416 0.6132
C23_14 C 0.8350(2) 0.77015(26) 0.60772(5)
H13_14 H 0.8162 0.7797 0.6027
C24_14 C 0.8199(2) 0.80312(26) 0.63006(5)
C25_14 C 0.8434(2) 0.78014(26) 0.62230(5)
C26_14 C 0.8738(2) 0.76830(26) 0.62947(5)
H14_14 H 0.8809 0.7762 0.6392
C27_14 C 0.7484(3) 0.74742(35) 0.67096(5)
H15_14 H 0.7501 0.7263 0.6645
C28_14 C 0.7797(3) 0.80972(34) 0.65150(5)
C29_14 C 0.8070(2) 0.79229(26) 0.64435(5)
H16_14 H 0.8162 0.7733 0.6494
C30_14 C 0.71260(15) 0.74649(22) 0.70973(4)
C31_14 C 0.7693(2) 0.84015(26) 0.64398(5)
H17_14 H 0.7534 0.8536 0.6488
C32_14 C 0.7616(2) 0.79270(26) 0.66640(5)
C33_14 C 0.7583(2) 0.82319(26) 0.67614(5)
H18_14 H 0.7664 0.8540 0.6733
C34_14 C 0.74304(19) 0.80852(25) 0.69022(5)
H19_14 H 0.7419 0.8298 0.6968
C35_14 C 0.72954(18) 0.76250(23) 0.69444(4)
C36_14 C 0.7328(2) 0.73189(26) 0.68479(5)
H20_14 H 0.7245 0.7010 0.6876
O22_10 O 0.65329(16) 0.57460(20) 0.74792(3)
O25_10 O 0.35835(14) 0.09827(18) 0.72560(3)
O26_10 O 0.36973(13) 0.33539(16) 0.62073(3)
O27_10 O 0.44266(14) 0.39747(17) 0.61513(3)
C82_10 C 0.57802(26) 0.53216(33) 0.71643(6)
H46_10 H 0.5784 0.5602 0.7138
C83_10 C 0.63537(24) 0.57681(31) 0.73630(5)
C84_10 C 0.60417(25) 0.53211(32) 0.72779(5)
C85_10 C 0.60354(26) 0.49018(33) 0.73118(6)
H47_10 H 0.6217 0.4899 0.7390
C86_10 C 0.55036(36) 0.48990(47) 0.70862(6)
H48_10 H 0.5327 0.4907 0.7008
C87_10 C 0.51830(26) 0.40364(33) 0.70367(5)
C88_10 C 0.54824(26) 0.44848(33) 0.71198(5)
C89_10 C 0.57689(26) 0.44883(33) 0.72345(5)
H49_10 H 0.5779 0.4213 0.7258
C90_10 C 0.39881(23) 0.18299(29) 0.72549(5)
C91_10 C 0.41228(26) 0.22432(33) 0.73281(5)
H50_10 H 0.4053 0.2234 0.7426
C92_10 C 0.41170(25) 0.18464(32) 0.71103(5)
H51_10 H 0.4044 0.1565 0.7062
C93_10 C 0.37011(22) 0.13598(27) 0.73330(5)
C94_10 C 0.50023(26) 0.35997(33) 0.71060(5)
H52_10 H 0.5082 0.3591 0.7202
C95_10 C 0.43681(26) 0.26845(33) 0.72562(5)
H53_10 H 0.4463 0.2968 0.7307
C96_10 C 0.46978(26) 0.31652(33) 0.70328(5)
C97_10 C 0.44680(26) 0.27004(33) 0.71104(5)
C98_10 C 0.43496(26) 0.22780(33) 0.70387(5)
H54_10 H 0.4428 0.2286 0.6942
C99_10 C 0.41408(35) 0.33232(46) 0.66238(5)
H55_10 H 0.3929 0.3095 0.6689
C100_10 C 0.47638(34) 0.36332(45) 0.68184(5)
C101_10 C 0.45895(26) 0.31859(33) 0.68899(5)
H56_10 H 0.4399 0.2904 0.6840
C102_10 C 0.41315(22) 0.36722(27) 0.62361(4)
C103_10 C 0.50681(26) 0.40415(33) 0.68936(5)
H57_10 H 0.5202 0.4335 0.6846
C104_10 C 0.45936(26) 0.36440(33) 0.66694(5)
C105_10 C 0.48985(26) 0.39819(33) 0.65720(5)
H58_10 H 0.5206 0.4209 0.6601
C106_10 C 0.47518(25) 0.39881(31) 0.64312(5)
H59_10 H 0.4964 0.4212 0.6366
C107_10 C 0.42916(23) 0.36629(29) 0.63890(4)
C108_10 C 0.39855(26) 0.33239(33) 0.64855(5)
H60_10 H 0.3676 0.3098 0.6458
O41_14 O 0.89271(9) 0.58870(13) 0.59987(3)
O47_10 O 0.29693(13) 0.99795(16) 0.71261(3)
O5_15 O 0.30625(14) 0.19621(9) 0.58733(3)
O6_15 O 0.30831(14) 0.23507(9) 0.60774(3)
C18_15 C 0.26785(23) 0.15035(15) 0.60785(5)
C19_15 C 0.25438(26) 0.10902(16) 0.60053(5)
H10_15 H 0.2613 0.1100 0.5908
C20_15 C 0.25496(25) 0.14870(15) 0.62231(5)
H11_15 H 0.2622 0.1769 0.6272
C21_15 C 0.29655(22) 0.19736(15) 0.60004(5)
C23_15 C 0.22985(26) 0.06489(17) 0.60772(5)
H13_15 H 0.2203 0.0366 0.6027
C24_15 C 0.19688(26) 0.01682(17) 0.63006(5)
C25_15 C 0.21986(26) 0.06330(16) 0.62230(5)
C26_15 C 0.23170(26) 0.10554(17) 0.62947(5)
H14_15 H 0.2238 0.1048 0.6392
C27_15 C 0.25258(35) 0.00102(18) 0.67096(5)
H15_15 H 0.2737 0.0239 0.6645
C29_15 C 0.20771(26) 0.01475(17) 0.64435(5)
H16_15 H 0.2267 0.0430 0.6494
C36_15 C 0.26811(26) 0.00095(16) 0.68479(5)
H20_15 H 0.2990 0.0236 0.6876
O41_15 O 0.41130(13) 0.30402(9) 0.59987(3)
O3_15 O 0.01337(16) 0.75874(10) 0.58542(3)
C10_15 C 0.08864(26) 0.80118(17) 0.61691(6)
H6_15 H 0.0882 0.7732 0.6196
C11_15 C 0.03129(24) 0.75653(15) 0.59704(5)
C12_15 C 0.06249(25) 0.80123(15) 0.60555(5)
C13_15 C 0.06312(26) 0.84316(17) 0.60216(6)
H7_15 H 0.0449 0.8435 0.5944
C14_15 C 0.11630(36) 0.84344(19) 0.62472(6)
H8_15 H 0.1339 0.8427 0.6326
C15_15 C 0.14836(26) 0.92970(16) 0.62967(5)
C16_15 C 0.11842(26) 0.88486(17) 0.62136(5)
C17_15 C 0.08977(26) 0.88451(17) 0.60989(5)
H9_15 H 0.0887 0.9121 0.6076
C22_15 C 0.16643(26) 0.97337(17) 0.62274(5)
H12_15 H 0.1584 0.9743 0.6132
C28_15 C 0.19028(34) 0.97002(16) 0.65150(5)
C30_15 C 0.25351(22) 0.96612(16) 0.70973(4)
C31_15 C 0.15985(26) 0.92919(17) 0.64398(5)
H17_15 H 0.1464 0.8999 0.6488
C32_15 C 0.20730(26) 0.96894(16) 0.66640(5)
C33_15 C 0.17681(26) 0.93515(17) 0.67614(5)
H18_15 H 0.1460 0.9125 0.6733
C34_15 C 0.19148(25) 0.93453(16) 0.69022(5)
H19_15 H 0.1702 0.9122 0.6968
C35_15 C 0.23750(23) 0.96705(15) 0.69444(4)
O22_11 O 0.01337(16) 0.25464(12) 0.08542(3)
O23_6 O 0.02520(13) 0.30776(10) 0.10312(3)
O24_6 O 0.30625(14) 0.11005(11) 0.08733(3)
O25_11 O 0.30831(14) 0.07325(11) 0.10774(3)
O26_11 O 0.29693(13) 0.29899(9) 0.21261(3)
O27_11 O 0.22400(14) 0.28814(10) 0.21821(3)
C82_11 C 0.08864(26) 0.2875(2) 0.11691(6)
H46_11 H 0.0882 0.3151 0.1196
C83_11 C 0.03129(24) 0.27477(19) 0.09704(5)
C84_11 C 0.06249(25) 0.2613(2) 0.10555(5)
C85_11 C 0.06312(26) 0.2200(2) 0.10216(6)
H47_11 H 0.0449 0.2015 0.0944
C86_11 C 0.11630(36) 0.2729(3) 0.12472(6)
H48_11 H 0.1339 0.2913 0.1326
C87_11 C 0.14836(26) 0.2187(2) 0.12967(5)
C88_11 C 0.11842(26) 0.2336(2) 0.12136(5)
C89_11 C 0.08977(26) 0.2053(2) 0.10989(5)
H49_11 H 0.0887 0.1767 0.1076
C90_11 C 0.26785(23) 0.11751(18) 0.10785(5)
C91_11 C 0.25438(26) 0.1454(2) 0.10053(5)
H50_11 H 0.2613 0.1514 0.0908
C92_11 C 0.25496(25) 0.1063(2) 0.12231(5)
H51_11 H 0.2622 0.0854 0.1272
C93_11 C 0.29655(22) 0.09920(16) 0.10004(5)
C94_11 C 0.16643(26) 0.1931(2) 0.12274(5)
H52_11 H 0.1584 0.1842 0.1132
C95_11 C 0.22985(26) 0.1650(2) 0.10772(5)
H53_11 H 0.2203 0.1838 0.1027
C96_11 C 0.19688(26) 0.1801(2) 0.13006(5)
C97_11 C 0.21986(26) 0.1566(2) 0.12230(5)
C98_11 C 0.23170(26) 0.1262(2) 0.12947(5)
H54_11 H 0.2238 0.1191 0.1392
C99_11 C 0.25258(35) 0.2516(3) 0.17096(5)
H55_11 H 0.2737 0.2499 0.1645
C100_11 C 0.19028(34) 0.2203(3) 0.15150(5)
C101_11 C 0.20771(26) 0.1930(2) 0.14435(5)
H56_11 H 0.2267 0.1838 0.1494
C102_11 C 0.25351(22) 0.28740(15) 0.20973(4)
C103_11 C 0.15985(26) 0.2307(2) 0.14398(5)
H57_11 H 0.1464 0.2466 0.1488
C104_11 C 0.20730(26) 0.2384(2) 0.16640(5)
C105_11 C 0.17681(26) 0.2417(2) 0.17614(5)
H58_11 H 0.1460 0.2336 0.1733
C106_11 C 0.19148(25) 0.25696(19) 0.19022(5)
H59_11 H 0.1702 0.2581 0.1968
C107_11 C 0.23750(23) 0.27046(18) 0.19444(4)
C108_11 C 0.26811(26) 0.2672(2) 0.18479(5)
H60_11 H 0.2990 0.2755 0.1876
O45_6 O 0.41130(13) 0.10729(9) 0.09987(3)
O47_11 O 0.36973(13) 0.03435(9) 0.12073(3)
O46_6 O 0.28255(9) 0.97480(13) 0.10312(3)
O1_6 O 0.89271(9) 0.30402(9) 0.09987(3)
O2_6 O 0.85034(10) 0.25731(10) 0.08120(3)
O3_16 O 0.92130(12) 0.57460(10) 0.24792(3)
O4_6 O 0.97442(10) 0.61589(9) 0.23022(3)
O5_16 O 0.77671(11) 0.13713(9) 0.24601(3)
O6_16 O 0.73991(11) 0.09827(9) 0.22560(3)
O7_6 O 0.96565(9) 0.33539(10) 0.12073(3)
C1_6 C 0.70213(14) 0.32033(14) 0.10504(5)
C2_6 C 0.71314(16) 0.36925(15) 0.10514(5)
H1_6 H 0.7452 0.3933 0.1053
C3_6 C 0.73309(16) 0.27163(16) 0.09380(5)
H2_6 H 0.7029 0.2530 0.0897
C4_6 C 0.78524(15) 0.33437(15) 0.10955(5)
H3_6 H 0.7911 0.3587 0.1161
C5_6 C 0.81466(14) 0.28987(14) 0.09634(4)
C6_6 C 0.76985(15) 0.26236(15) 0.09019(5)
H4_6 H 0.7642 0.2380 0.0837
C7_6 C 0.85537(14) 0.28254(15) 0.09203(5)
C8_6 C 0.82156(15) 0.32481(15) 0.10611(5)
H5_6 H 0.8513 0.3425 0.1105
C9_6 C 0.74076(14) 0.30816(15) 0.10337(5)
C10_16 C 0.9541(2) 0.53216(17) 0.21643(6)
H6_16 H 0.9817 0.5602 0.2138
C11_16 C 0.94143(19) 0.57681(15) 0.23630(5)
C12_16 C 0.9279(2) 0.53211(15) 0.22779(5)
C13_16 C 0.8866(2) 0.49018(17) 0.23118(6)
H7_16 H 0.8681 0.4899 0.2390
C14_16 C 0.9395(3) 0.48990(19) 0.20862(6)
H8_16 H 0.9579 0.4907 0.2008
C15_16 C 0.8853(2) 0.40364(16) 0.20367(5)
C16_16 C 0.9002(2) 0.44848(17) 0.21198(5)
C17_16 C 0.8719(2) 0.44883(17) 0.22345(5)
H9_16 H 0.8433 0.4213 0.2258
C18_16 C 0.78417(18) 0.18299(15) 0.22549(5)
C19_16 C 0.8120(2) 0.22432(16) 0.23281(5)
H10_16 H 0.8180 0.2234 0.2426
C20_16 C 0.7729(2) 0.18464(15) 0.21103(5)
H11_16 H 0.7520 0.1565 0.2062
C21_16 C 0.76586(16) 0.13598(15) 0.23330(5)
C22_16 C 0.8597(2) 0.35997(17) 0.21060(5)
H12_16 H 0.8508 0.3591 0.2202
C23_16 C 0.8316(2) 0.26845(17) 0.22562(5)
H13_16 H 0.8504 0.2968 0.2307
C24_16 C 0.8467(2) 0.31652(17) 0.20328(5)
C25_16 C 0.8232(2) 0.27004(16) 0.21104(5)
C26_16 C 0.7928(2) 0.22780(17) 0.20387(5)
H14_16 H 0.7857 0.2286 0.1942
C27_16 C 0.9182(3) 0.33232(18) 0.16238(5)
H15_16 H 0.9165 0.3095 0.1689
C28_16 C 0.8869(3) 0.36332(16) 0.18184(5)
C29_16 C 0.8596(2) 0.31859(17) 0.18899(5)
H16_16 H 0.8504 0.2904 0.1840
C30_16 C 0.95406(15) 0.36722(16) 0.12361(4)
C31_16 C 0.8973(2) 0.40415(17) 0.18936(5)
H17_16 H 0.9132 0.4335 0.1846
C32_16 C 0.9050(2) 0.36440(16) 0.16694(5)
C33_16 C 0.9083(2) 0.39819(17) 0.15720(5)
H18_16 H 0.9002 0.4209 0.1601
C34_16 C 0.92362(19) 0.39881(16) 0.14312(5)
H19_16 H 0.9247 0.4212 0.1366
C35_16 C 0.93712(18) 0.36629(15) 0.13890(4)
C36_16 C 0.9338(2) 0.33239(16) 0.14855(5)
H20_16 H 0.9421 0.3098 0.1458
O10_6 O 0.82263(13) 0.17611(11) 0.06307(3)
O11_6 O 0.92336(11) 0.20343(12) 0.05823(3)
C37_6 C 0.67967(14) 0.38181(20) 0.10504(5)
C38_6 C 0.63075(15) 0.34390(22) 0.10514(5)
C39_6 C 0.61819(20) 0.29787(14) 0.10504(5)
C40_6 C 0.65610(22) 0.28686(16) 0.10514(5)
H21_6 H 0.6480 0.2548 0.1053
C41_6 C 0.56739(21) 0.25924(14) 0.10337(5)
C42_6 C 0.53853(23) 0.26691(16) 0.09380(5)
H22_6 H 0.5500 0.2971 0.0897
C43_6 C 0.49250(21) 0.23015(15) 0.09019(5)
C44_6 C 0.47520(20) 0.18534(14) 0.09634(4)
C45_6 C 0.42716(21) 0.14463(14) 0.09203(5)
O13_6 O 0.40696(14) 0.14966(10) 0.08120(3)
C46_6 C 0.50324(21) 0.17844(15) 0.10611(5)
C47_6 C 0.54912(21) 0.21476(15) 0.10955(5)
H23_6 H 0.5675 0.2089 0.1161
H24_6 H 0.4911 0.1487 0.1105
H25_6 H 0.4737 0.2358 0.0837
H26_6 H 0.6067 0.3520 0.1053
C48_6 C 0.69184(15) 0.43261(21) 0.10337(5)
C49_6 C 0.72837(16) 0.46147(23) 0.09380(5)
H27_6 H 0.7470 0.4500 0.0897
C50_6 C 0.73764(15) 0.50750(21) 0.09019(5)
C51_6 C 0.71013(14) 0.52480(20) 0.09634(4)
C52_6 C 0.71746(15) 0.57284(21) 0.09203(5)
O14_6 O 0.69598(9) 0.58870(13) 0.09987(3)
O15_6 O 0.74269(10) 0.59304(14) 0.08120(3)
C53_6 C 0.67519(15) 0.49676(21) 0.10611(5)
C54_6 C 0.66563(15) 0.45088(21) 0.10955(5)
H28_6 H 0.6413 0.4325 0.1161
H29_6 H 0.6575 0.5089 0.1105
H30_6 H 0.7620 0.5263 0.0837
O18_6 O 0.88995(11) 0.19621(9) 0.08733(3)
O19_6 O 0.92675(11) 0.23507(9) 0.10774(3)
C63_6 C 0.88249(18) 0.15035(15) 0.10785(5)
C64_6 C 0.8546(2) 0.10902(16) 0.10053(5)
H35_6 H 0.8486 0.1100 0.0908
C65_6 C 0.8937(2) 0.14870(15) 0.12231(5)
H36_6 H 0.9146 0.1769 0.1272
C66_6 C 0.90080(16) 0.19736(15) 0.10004(5)
C68_6 C 0.8350(2) 0.06489(17) 0.10772(5)
H38_6 H 0.8162 0.0366 0.1027
C69_6 C 0.8199(2) 0.01682(17) 0.13006(5)
C70_6 C 0.8434(2) 0.06330(16) 0.12230(5)
C71_6 C 0.8738(2) 0.10554(17) 0.12947(5)
H39_6 H 0.8809 0.1048 0.1392
C72_6 C 0.7484(3) 0.00102(18) 0.17096(5)
H40_6 H 0.7501 0.0239 0.1645
C74_6 C 0.8070(2) 0.01475(17) 0.14435(5)
H41_6 H 0.8162 0.0430 0.1494
C81_6 C 0.7328(2) 0.00095(16) 0.18479(5)
H45_6 H 0.7245 0.0236 0.1876
O29_6 O 0.35347(17) 0.17737(13) 0.06307(3)
O30_6 O 0.28006(16) 0.07664(11) 0.05823(3)
O31_6 O 0.82389(11) 0.64653(17) 0.06307(3)
O32_6 O 0.79657(12) 0.71994(16) 0.05823(3)
O38_6 O 0.80379(9) 0.69375(14) 0.08733(3)
O41_16 O 0.77395(9) 0.02932(9) 0.23347(3)
O42_11 O 0.64146(13) 0.02558(10) 0.23022(3)
H61_6 H 0.903053 0.184183 0.0499948
H62_6 H 0.954323 0.229683 0.0544932
H63_6 H 0.804568 0.188795 0.0577439
H64_6 H 0.828064 0.154627 0.0566183
H65_6 H 0.811205 0.615773 0.0577439
H66_6 H 0.845373 0.673436 0.0566183
H67_6 H 0.384227 0.195432 0.0577439
H68_6 H 0.326564 0.171936 0.0566183
H69_6 H 0.28113 0.0969471 0.0499948
H70_6 H 0.27536 0.0456768 0.0544932
H71_6 H 0.815817 0.71887 0.0499948
H72_6 H 0.770317 0.72464 0.0544932
O16_6 O 0.74536(12) 0.75874(10) 0.08542(3)
O17_6 O 0.69224(10) 0.71745(9) 0.10312(3)
O20_6 O 0.70101(9) 0.99795(10) 0.21261(3)
O21_6 O 0.71186(10) 0.93587(10) 0.21821(3)
C55_6 C 0.7125(2) 0.80118(17) 0.11691(6)
H31_6 H 0.6849 0.7732 0.1196
C56_6 C 0.72523(19) 0.75653(15) 0.09704(5)
C57_6 C 0.7387(2) 0.80123(15) 0.10555(5)
C58_6 C 0.7800(2) 0.84316(17) 0.10216(6)
H32_6 H 0.7985 0.8435 0.0944
C59_6 C 0.7271(3) 0.84344(19) 0.12472(6)
H33_6 H 0.7087 0.8427 0.1326
C60_6 C 0.7813(2) 0.92970(16) 0.12967(5)
C61_6 C 0.7664(2) 0.88486(17) 0.12136(5)
C62_6 C 0.7947(2) 0.88451(17) 0.10989(5)
H34_6 H 0.8233 0.9121 0.1076
C67_6 C 0.8069(2) 0.97337(17) 0.12274(5)
H37_6 H 0.8158 0.9743 0.1132
C73_6 C 0.7797(3) 0.97002(16) 0.15150(5)
C75_6 C 0.71260(15) 0.96612(16) 0.20973(4)
C76_6 C 0.7693(2) 0.92919(17) 0.14398(5)
H42_6 H 0.7534 0.8999 0.1488
C77_6 C 0.7616(2) 0.96894(16) 0.16640(5)
C78_6 C 0.7583(2) 0.93515(17) 0.17614(5)
H43_6 H 0.7664 0.9125 0.1733
C79_6 C 0.74304(19) 0.93453(16) 0.19022(5)
H44_6 H 0.7419 0.9122 0.1968
C80_6 C 0.72954(18) 0.96705(15) 0.19444(4)
O3_17 O 0.65329(16) 0.07870(12) 0.24792(3)
O5_17 O 0.36041(14) 0.22329(11) 0.24601(3)
O6_17 O 0.35835(14) 0.26009(11) 0.22560(3)
C10_17 C 0.57802(26) 0.0459(2) 0.21643(6)
H6_17 H 0.5784 0.0183 0.2138
C11_17 C 0.63537(24) 0.05857(19) 0.23630(5)
C12_17 C 0.60417(25) 0.0721(2) 0.22779(5)
C13_17 C 0.60354(26) 0.1134(2) 0.23118(6)
H7_17 H 0.6217 0.1319 0.2390
C14_17 C 0.55036(36) 0.0605(3) 0.20862(6)
H8_17 H 0.5327 0.0421 0.2008
C15_17 C 0.51830(26) 0.1147(2) 0.20367(5)
C16_17 C 0.54824(26) 0.0998(2) 0.21198(5)
C17_17 C 0.57689(26) 0.1281(2) 0.22345(5)
H9_17 H 0.5779 0.1567 0.2258
C18_17 C 0.39881(23) 0.21583(18) 0.22549(5)
C19_17 C 0.41228(26) 0.1880(2) 0.23281(5)
H10_17 H 0.4053 0.1820 0.2426
C20_17 C 0.41170(25) 0.2271(2) 0.21103(5)
H11_17 H 0.4044 0.2480 0.2062
C21_17 C 0.37011(22) 0.23414(16) 0.23330(5)
C22_17 C 0.50023(26) 0.1403(2) 0.21060(5)
H12_17 H 0.5082 0.1492 0.2202
C23_17 C 0.43681(26) 0.1684(2) 0.22562(5)
H13_17 H 0.4463 0.1496 0.2307
C24_17 C 0.46978(26) 0.1533(2) 0.20328(5)
C25_17 C 0.44680(26) 0.1768(2) 0.21104(5)
C26_17 C 0.43496(26) 0.2072(2) 0.20387(5)
H14_17 H 0.4428 0.2143 0.1942
C27_17 C 0.41408(35) 0.0818(3) 0.16238(5)
H15_17 H 0.3929 0.0835 0.1689
C28_17 C 0.47638(34) 0.1131(3) 0.18184(5)
C29_17 C 0.45895(26) 0.1404(2) 0.18899(5)
H16_17 H 0.4399 0.1496 0.1840
C30_17 C 0.41315(22) 0.04594(15) 0.12361(4)
C31_17 C 0.50681(26) 0.1027(2) 0.18936(5)
H17_17 H 0.5202 0.0868 0.1846
C32_17 C 0.45936(26) 0.0950(2) 0.16694(5)
C33_17 C 0.48985(26) 0.0917(2) 0.15720(5)
H18_17 H 0.5206 0.0998 0.1601
C34_17 C 0.47518(25) 0.07638(19) 0.14312(5)
H19_17 H 0.4964 0.0753 0.1366
C35_17 C 0.42916(23) 0.06288(18) 0.13890(4)
C36_17 C 0.39855(26) 0.0662(2) 0.14855(5)
H20_17 H 0.3676 0.0579 0.1458
O41_17 O 0.25536(13) 0.22605(9) 0.23347(3)
O42_12 O 0.38411(16) 0.35854(13) 0.23022(3)
O22_12 O 0.24126(20) 0.98663(16) 0.08542(3)
O26_12 O 0.00205(16) 0.70307(13) 0.21261(3)
O27_12 O 0.06413(17) 0.77600(14) 0.21821(3)
C82_12 C 0.19882(33) 0.91136(26) 0.11691(6)
H46_12 H 0.2268 0.9118 0.1196
C83_12 C 0.24347(31) 0.96871(24) 0.09704(5)
C84_12 C 0.19877(32) 0.93751(25) 0.10555(5)
C85_12 C 0.15684(33) 0.93688(26) 0.10216(6)
H47_12 H 0.1565 0.9551 0.0944
C86_12 C 0.15656(47) 0.88370(36) 0.12472(6)
H48_12 H 0.1573 0.8661 0.1326
C87_12 C 0.07030(33) 0.85164(26) 0.12967(5)
C88_12 C 0.11514(33) 0.88158(26) 0.12136(5)
C89_12 C 0.11549(33) 0.91023(26) 0.10989(5)
H49_12 H 0.0879 0.9113 0.1076
C94_12 C 0.02663(33) 0.83357(26) 0.12274(5)
H52_12 H 0.0257 0.8416 0.1132
C100_12 C 0.02998(45) 0.80972(34) 0.15150(5)
C102_12 C 0.03388(27) 0.74649(22) 0.20973(4)
C103_12 C 0.07081(33) 0.84015(26) 0.14398(5)
H57_12 H 0.1001 0.8536 0.1488
C104_12 C 0.03106(33) 0.79270(26) 0.16640(5)
C105_12 C 0.06485(33) 0.82319(26) 0.17614(5)
H58_12 H 0.0875 0.8540 0.1733
C106_12 C 0.06547(31) 0.80852(25) 0.19022(5)
H59_12 H 0.0878 0.8298 0.1968
C107_12 C 0.03295(29) 0.76250(23) 0.19444(4)
O25_12 O 0.76493(18) 0.69169(14) 0.10774(3)
C90_12 C 0.84965(29) 0.73215(23) 0.10785(5)
C91_12 C 0.89098(33) 0.74562(26) 0.10053(5)
H50_12 H 0.8900 0.7387 0.0908
C92_12 C 0.85130(32) 0.74504(25) 0.12231(5)
H51_12 H 0.8231 0.7378 0.1272
C93_12 C 0.80264(27) 0.70345(22) 0.10004(5)
C95_12 C 0.93511(33) 0.77015(26) 0.10772(5)
H53_12 H 0.9634 0.7797 0.1027
C96_12 C 0.98318(33) 0.80312(26) 0.13006(5)
C97_12 C 0.93670(33) 0.78014(26) 0.12230(5)
C98_12 C 0.89446(33) 0.76830(26) 0.12947(5)
H54_12 H 0.8952 0.7762 0.1392
C99_12 C 0.99898(46) 0.74742(35) 0.17096(5)
H55_12 H 0.9761 0.7263 0.1645
C101_12 C 0.98525(33) 0.79229(26) 0.14435(5)
H56_12 H 0.9570 0.7733 0.1494
C108_12 C 0.99905(33) 0.73189(26) 0.18479(5)
H60_12 H 0.9764 0.7010 0.1876
O47_12 O 0.66461(16) 0.63027(13) 0.12073(3)
O3_18 O 0.42540(10) 0.34671(16) 0.24792(3)
O5_18 O 0.86287(9) 0.63959(14) 0.24601(3)
O6_18 O 0.90173(9) 0.64165(14) 0.22560(3)
C10_18 C 0.46784(17) 0.42198(26) 0.21643(6)
H6_18 H 0.4398 0.4216 0.2138
C11_18 C 0.42319(15) 0.36463(24) 0.23630(5)
C12_18 C 0.46789(15) 0.39583(25) 0.22779(5)
C13_18 C 0.50982(17) 0.39646(26) 0.23118(6)
H7_18 H 0.5101 0.3783 0.2390
C14_18 C 0.51010(19) 0.44964(36) 0.20862(6)
H8_18 H 0.5093 0.4673 0.2008
C15_18 C 0.59636(16) 0.48170(26) 0.20367(5)
C16_18 C 0.55152(17) 0.45176(26) 0.21198(5)
C17_18 C 0.55117(17) 0.42311(26) 0.22345(5)
H9_18 H 0.5787 0.4221 0.2258
C18_18 C 0.81701(15) 0.60119(23) 0.22549(5)
C19_18 C 0.77568(16) 0.58772(26) 0.23281(5)
H10_18 H 0.7766 0.5947 0.2426
C20_18 C 0.81536(15) 0.58830(25) 0.21103(5)
H11_18 H 0.8435 0.5956 0.2062
C21_18 C 0.86402(15) 0.62989(22) 0.23330(5)
C22_18 C 0.64003(17) 0.49977(26) 0.21060(5)
H12_18 H 0.6409 0.4918 0.2202
C23_18 C 0.73155(17) 0.56319(26) 0.22562(5)
H13_18 H 0.7032 0.5537 0.2307
C24_18 C 0.68348(17) 0.53022(26) 0.20328(5)
C25_18 C 0.72996(16) 0.55320(26) 0.21104(5)
C26_18 C 0.77220(17) 0.56504(26) 0.20387(5)
H14_18 H 0.7714 0.5572 0.1942
C27_18 C 0.66768(18) 0.58592(35) 0.16238(5)
H15_18 H 0.6905 0.6071 0.1689
C28_18 C 0.63668(16) 0.52362(34) 0.18184(5)
C29_18 C 0.68141(17) 0.54105(26) 0.18899(5)
H16_18 H 0.7096 0.5601 0.1840
C30_18 C 0.63278(16) 0.58685(22) 0.12361(4)
C31_18 C 0.59585(17) 0.49319(26) 0.18936(5)
H17_18 H 0.5665 0.4798 0.1846
C32_18 C 0.63560(16) 0.54064(26) 0.16694(5)
C33_18 C 0.60181(17) 0.51015(26) 0.15720(5)
H18_18 H 0.5791 0.4794 0.1601
C34_18 C 0.60119(16) 0.52482(25) 0.14312(5)
H19_18 H 0.5788 0.5036 0.1366
C35_18 C 0.63371(15) 0.57084(23) 0.13890(4)
C36_18 C 0.66761(16) 0.60145(26) 0.14855(5)
H20_18 H 0.6902 0.6324 0.1458
O41_18 O 0.97068(9) 0.74464(13) 0.23347(3)
O30_7 O 0.59003(11) 0.05327(16) 0.89156(3)
H68_7 H 0.49473 0.00676969 0.889952
H69_7 H 0.56972 0.0522034 0.883328
H70_7 H 0.62099 0.0579732 0.887827
O2_7 O 0.40936(10) 0.48299(10) 0.91453(3)
C1_7 C 0.34634(14) 0.63120(14) 0.93837(5)
C2_7 C 0.29742(15) 0.62019(16) 0.93847(5)
H1_7 H 0.2734 0.5881 0.9386
C3_7 C 0.39504(16) 0.60024(16) 0.92713(5)
H2_7 H 0.4137 0.6304 0.9230
C4_7 C 0.33230(15) 0.54809(15) 0.94288(5)
H3_7 H 0.3080 0.5422 0.9494
C5_7 C 0.37680(14) 0.51867(14) 0.92967(4)
C6_7 C 0.40431(15) 0.56348(15) 0.92352(5)
H4_7 H 0.4287 0.5691 0.9170
C7_7 C 0.38413(15) 0.47796(14) 0.92536(5)
C8_7 C 0.34186(15) 0.51177(15) 0.93944(5)
H5_7 H 0.3242 0.4820 0.9438
C9_7 C 0.35851(15) 0.59257(14) 0.93670(5)
O10_7 O 0.49056(11) 0.51070(13) 0.89640(3)
O11_7 O 0.46324(12) 0.40997(11) 0.89156(3)
C37_7 C 0.28486(20) 0.65366(14) 0.93837(5)
C38_7 C 0.32277(22) 0.70258(15) 0.93847(5)
C39_7 C 0.36880(14) 0.71514(20) 0.93837(5)
C40_7 C 0.37981(16) 0.67723(22) 0.93847(5)
H21_7 H 0.4119 0.6853 0.9386
C41_7 C 0.40743(14) 0.76594(21) 0.93670(5)
C42_7 C 0.39976(16) 0.79480(23) 0.92713(5)
H22_7 H 0.3696 0.7833 0.9230
C43_7 C 0.43652(15) 0.84083(21) 0.92352(5)
C44_7 C 0.48133(14) 0.85813(20) 0.92967(4)
C45_7 C 0.52204(14) 0.90617(21) 0.92536(5)
O13_7 O 0.51701(10) 0.92637(14) 0.91453(3)
C46_7 C 0.48823(15) 0.83009(21) 0.93944(5)
C47_7 C 0.45191(15) 0.78421(21) 0.94288(5)
H23_7 H 0.4578 0.7658 0.9494
H24_7 H 0.5180 0.8422 0.9438
H25_7 H 0.4309 0.8596 0.9170
H26_7 H 0.3147 0.7266 0.9386
C48_7 C 0.23406(21) 0.64149(15) 0.93670(5)
C49_7 C 0.20520(23) 0.60496(16) 0.92713(5)
H27_7 H 0.2167 0.5863 0.9230
C50_7 C 0.15917(21) 0.59569(15) 0.92352(5)
C51_7 C 0.14187(20) 0.62320(14) 0.92967(4)
C52_7 C 0.09383(21) 0.61587(15) 0.92536(5)
O15_7 O 0.07363(14) 0.59064(10) 0.91453(3)
C53_7 C 0.16991(21) 0.65814(15) 0.93944(5)
C54_7 C 0.21579(21) 0.66770(15) 0.94288(5)
H28_7 H 0.2342 0.6920 0.9494
H29_7 H 0.1578 0.6758 0.9438
H30_7 H 0.1404 0.5713 0.9170
O29_7 O 0.48930(13) 0.97986(17) 0.89640(3)
O31_7 O 0.02014(17) 0.50944(11) 0.89640(3)
H61_7 H 0.482484 0.43028 0.883328
H62_7 H 0.436983 0.37901 0.887827
H63_7 H 0.477872 0.528765 0.891077
H64_7 H 0.512039 0.50527 0.889952
H65_7 H 0.0508933 0.522128 0.891077
H67_7 H 0.471235 0.949107 0.891077
O32_7 O 0.94673(16) 0.53676(12) 0.89156(3)
H66_7 H 0.99323 0.487961 0.889952
H71_7 H 0.947797 0.517516 0.883328
H72_7 H 0.942027 0.563017 0.887827
O30_8 O 0.05327(16) 0.59003(11) 0.60844(3)
H68_8 H 0.00676969 0.49473 0.610048
H69_8 H 0.0522034 0.56972 0.616672
H70_8 H 0.0579732 0.62099 0.612173
O2_8 O 0.48299(10) 0.40936(10) 0.58547(3)
C1_8 C 0.63120(14) 0.34634(14) 0.56163(5)
C2_8 C 0.62019(16) 0.29742(15) 0.56153(5)
H1_8 H 0.5881 0.2734 0.5614
C3_8 C 0.60024(16) 0.39504(16) 0.57287(5)
H2_8 H 0.6304 0.4137 0.5770
C4_8 C 0.54809(15) 0.33230(15) 0.55712(5)
H3_8 H 0.5422 0.3080 0.5506
C5_8 C 0.51867(14) 0.37680(14) 0.57033(4)
C6_8 C 0.56348(15) 0.40431(15) 0.57648(5)
H4_8 H 0.5691 0.4287 0.5830
C7_8 C 0.47796(14) 0.38413(15) 0.57464(5)
C8_8 C 0.51177(15) 0.34186(15) 0.56056(5)
H5_8 H 0.4820 0.3242 0.5562
C9_8 C 0.59257(14) 0.35851(15) 0.56330(5)
O10_8 O 0.51070(13) 0.49056(11) 0.60360(3)
O11_8 O 0.40997(11) 0.46324(12) 0.60844(3)
C37_8 C 0.65366(14) 0.28486(20) 0.56163(5)
C38_8 C 0.70258(15) 0.32277(22) 0.56153(5)
C39_8 C 0.71514(20) 0.36880(14) 0.56163(5)
C40_8 C 0.67723(22) 0.37981(16) 0.56153(5)
H21_8 H 0.6853 0.4119 0.5614
C41_8 C 0.76594(21) 0.40743(14) 0.56330(5)
C42_8 C 0.79480(23) 0.39976(16) 0.57287(5)
H22_8 H 0.7833 0.3696 0.5770
C43_8 C 0.84083(21) 0.43652(15) 0.57648(5)
C44_8 C 0.85813(20) 0.48133(14) 0.57033(4)
C45_8 C 0.90617(21) 0.52204(14) 0.57464(5)
O13_8 O 0.92637(14) 0.51701(10) 0.58547(3)
C46_8 C 0.83009(21) 0.48823(15) 0.56056(5)
C47_8 C 0.78421(21) 0.45191(15) 0.55712(5)
H23_8 H 0.7658 0.4578 0.5506
H24_8 H 0.8422 0.5180 0.5562
H25_8 H 0.8596 0.4309 0.5830
H26_8 H 0.7266 0.3147 0.5614
C48_8 C 0.64149(15) 0.23406(21) 0.56330(5)
C49_8 C 0.60496(16) 0.20520(23) 0.57287(5)
H27_8 H 0.5863 0.2167 0.5770
C50_8 C 0.59569(15) 0.15917(21) 0.57648(5)
C51_8 C 0.62320(14) 0.14187(20) 0.57033(4)
C52_8 C 0.61587(15) 0.09383(21) 0.57464(5)
O15_8 O 0.59064(10) 0.07363(14) 0.58547(3)
C53_8 C 0.65814(15) 0.16991(21) 0.56056(5)
C54_8 C 0.66770(15) 0.21579(21) 0.55712(5)
H28_8 H 0.6920 0.2342 0.5506
H29_8 H 0.6758 0.1578 0.5562
H30_8 H 0.5713 0.1404 0.5830
O29_8 O 0.97986(17) 0.48930(13) 0.60360(3)
O31_8 O 0.50944(11) 0.02014(17) 0.60360(3)
H61_8 H 0.43028 0.482484 0.616672
H62_8 H 0.37901 0.436983 0.612173
H63_8 H 0.528765 0.477872 0.608923
H64_8 H 0.50527 0.512039 0.610048
H65_8 H 0.522128 0.0508933 0.608923
H67_8 H 0.949107 0.471235 0.608923
O32_8 O 0.53676(12) 0.94673(16) 0.60844(3)
H66_8 H 0.487961 0.99323 0.610048
H71_8 H 0.517516 0.947797 0.616672
H72_8 H 0.563017 0.942027 0.612173
O2_9 O 0.74269(10) 0.14966(10) 0.58120(3)
C1_9 C 0.67967(14) 0.29787(14) 0.60504(5)
C2_9 C 0.63075(15) 0.28686(16) 0.60514(5)
H1_9 H 0.6067 0.2548 0.6053
C3_9 C 0.72837(16) 0.26691(16) 0.59380(5)
H2_9 H 0.7470 0.2971 0.5897
C4_9 C 0.66563(15) 0.21476(15) 0.60955(5)
H3_9 H 0.6413 0.2089 0.6161
C5_9 C 0.71013(14) 0.18534(14) 0.59634(4)
C6_9 C 0.73764(15) 0.23015(15) 0.59019(5)
H4_9 H 0.7620 0.2358 0.5837
C7_9 C 0.71746(15) 0.14463(14) 0.59203(5)
C8_9 C 0.67519(15) 0.17844(15) 0.60611(5)
H5_9 H 0.6575 0.1487 0.6105
C9_9 C 0.69184(15) 0.25924(14) 0.60337(5)
O10_9 O 0.82389(11) 0.17737(13) 0.56307(3)
O11_9 O 0.79657(12) 0.07664(11) 0.55823(3)
C37_9 C 0.61819(20) 0.32033(14) 0.60504(5)
C38_9 C 0.65610(22) 0.36925(15) 0.60514(5)
C39_9 C 0.70213(14) 0.38181(20) 0.60504(5)
C40_9 C 0.71314(16) 0.34390(22) 0.60514(5)
H21_9 H 0.7452 0.3520 0.6053
C41_9 C 0.74076(14) 0.43261(21) 0.60337(5)
C42_9 C 0.73309(16) 0.46147(23) 0.59380(5)
H22_9 H 0.7029 0.4500 0.5897
C43_9 C 0.76985(15) 0.50750(21) 0.59019(5)
C44_9 C 0.81466(14) 0.52480(20) 0.59634(4)
C45_9 C 0.85537(14) 0.57284(21) 0.59203(5)
O13_9 O 0.85034(10) 0.59304(14) 0.58120(3)
C46_9 C 0.82156(15) 0.49676(21) 0.60611(5)
C47_9 C 0.78524(15) 0.45088(21) 0.60955(5)
H23_9 H 0.7911 0.4325 0.6161
H24_9 H 0.8513 0.5089 0.6105
H25_9 H 0.7642 0.5263 0.5837
H26_9 H 0.6480 0.3933 0.6053
C48_9 C 0.56739(21) 0.30816(15) 0.60337(5)
C49_9 C 0.53853(23) 0.27163(16) 0.59380(5)
H27_9 H 0.5500 0.2530 0.5897
C50_9 C 0.49250(21) 0.26236(15) 0.59019(5)
C51_9 C 0.47520(20) 0.28987(14) 0.59634(4)
C52_9 C 0.42716(21) 0.28254(15) 0.59203(5)
O15_9 O 0.40696(14) 0.25731(10) 0.58120(3)
C53_9 C 0.50324(21) 0.32481(15) 0.60611(5)
C54_9 C 0.54912(21) 0.33437(15) 0.60955(5)
H28_9 H 0.5675 0.3587 0.6161
H29_9 H 0.4911 0.3425 0.6105
H30_9 H 0.4737 0.2380 0.5837
O29_9 O 0.82263(13) 0.64653(17) 0.56307(3)
O30_9 O 0.92336(11) 0.71994(16) 0.55823(3)
O31_9 O 0.35347(17) 0.17611(11) 0.56307(3)
O32_9 O 0.28006(16) 0.20343(12) 0.55823(3)
H61_9 H 0.815817 0.0969471 0.549995
H62_9 H 0.770317 0.0456768 0.554493
H63_9 H 0.811205 0.195432 0.557744
H64_9 H 0.845373 0.171936 0.556618
H65_9 H 0.384227 0.188795 0.557744
H66_9 H 0.326564 0.154627 0.556618
H67_9 H 0.804568 0.615773 0.557744
H68_9 H 0.828064 0.673436 0.556618
H69_9 H 0.903053 0.71887 0.549995
H70_9 H 0.954323 0.72464 0.554493
H71_9 H 0.28113 0.184183 0.549995
H72_9 H 0.27536 0.229683 0.554493
C39_10 C 0.04847(20) 0.03547(14) 0.22830(5)
C40_10 C 0.01056(22) 0.04648(16) 0.22820(5)
H21_10 H 0.0186 0.0786 0.2281
C41_10 C 0.09927(21) 0.07410(14) 0.22997(5)
C42_10 C 0.12813(23) 0.06643(16) 0.23954(5)
H22_10 H 0.1166 0.0363 0.2437
C43_10 C 0.17416(21) 0.10319(15) 0.24315(5)
C44_10 C 0.19146(20) 0.14800(14) 0.23700(4)
C45_10 C 0.23950(21) 0.18871(14) 0.24131(5)
O13_10 O 0.25970(14) 0.18368(10) 0.25214(3)
C46_10 C 0.16342(21) 0.15490(15) 0.22723(5)
C47_10 C 0.11754(21) 0.11858(15) 0.22379(5)
H23_10 H 0.0991 0.1245 0.2173
H24_10 H 0.1755 0.1847 0.2229
H25_10 H 0.1929 0.0976 0.2497
O29_10 O 0.31319(17) 0.15597(13) 0.27027(3)
O30_10 O 0.38660(16) 0.25670(11) 0.27511(3)
H67_10 H 0.28244 0.137902 0.275589
H68_10 H 0.340103 0.161397 0.276715
H69_10 H 0.385537 0.236386 0.283339
H70_10 H 0.391307 0.287656 0.27884
C38_10 C 0.03591(15) 0.98944(22) 0.22820(5)
H26_10 H 0.0599 0.9814 0.2281
C54_10 C 0.00103(15) 0.88246(21) 0.22379(5)
H28_10 H 0.0253 0.9009 0.2173
H29_10 H 0.0091 0.8245 0.2229
O2_10 O 0.81632(10) 0.07603(10) 0.25214(3)
C1_10 C 0.96453(14) 0.01301(14) 0.22830(5)
C3_10 C 0.93357(16) 0.06171(16) 0.23954(5)
H2_10 H 0.9637 0.0804 0.2437
C5_10 C 0.85200(14) 0.04347(14) 0.23700(4)
C6_10 C 0.89681(15) 0.07098(15) 0.24315(5)
H4_10 H 0.9024 0.0954 0.2497
C7_10 C 0.81129(14) 0.05080(15) 0.24131(5)
C8_10 C 0.84510(15) 0.00853(15) 0.22723(5)
C9_10 C 0.92590(14) 0.02518(15) 0.22997(5)
O10_10 O 0.84403(13) 0.15723(11) 0.27027(3)
O11_10 O 0.74330(11) 0.12991(12) 0.27511(3)
H61_10 H 0.763614 0.149151 0.283339
H62_10 H 0.712344 0.10365 0.27884
H63_10 H 0.862098 0.144538 0.275589
H64_10 H 0.838603 0.178706 0.276715
C2_10 C 0.95352(16) 0.96409(15) 0.22820(5)
H1_10 H 0.9214 0.9401 0.2281
C4_10 C 0.88142(15) 0.99897(15) 0.22379(5)
H3_10 H 0.8755 0.9747 0.2173
H5_10 H 0.8153 0.9909 0.2229
C37_10 C 0.98699(14) 0.95153(20) 0.22830(5)
C48_10 C 0.97482(15) 0.90073(21) 0.22997(5)
C49_10 C 0.93829(16) 0.87187(23) 0.23954(5)
H27_10 H 0.9196 0.8834 0.2437
C50_10 C 0.92902(15) 0.82584(21) 0.24315(5)
C51_10 C 0.95653(14) 0.80854(20) 0.23700(4)
C52_10 C 0.94920(15) 0.76050(21) 0.24131(5)
O15_10 O 0.92397(10) 0.74030(14) 0.25214(3)
C53_10 C 0.99147(15) 0.83658(21) 0.22723(5)
H30_10 H 0.9046 0.8071 0.2497
O31_10 O 0.84277(11) 0.68681(17) 0.27027(3)
O32_10 O 0.87009(12) 0.61340(16) 0.27511(3)
H65_10 H 0.855462 0.71756 0.275589
H66_10 H 0.821294 0.659897 0.276715
H71_10 H 0.850849 0.614463 0.283339
H72_10 H 0.89635 0.608693 0.27884
C39_11 C 0.03547(14) 0.04847(20) 0.27170(5)
C40_11 C 0.04648(16) 0.01056(22) 0.27180(5)
H21_11 H 0.0786 0.0186 0.2719
C41_11 C 0.07410(14) 0.09927(21) 0.27003(5)
C42_11 C 0.06643(16) 0.12813(23) 0.26046(5)
H22_11 H 0.0363 0.1166 0.2563
C43_11 C 0.10319(15) 0.17416(21) 0.25685(5)
C44_11 C 0.14800(14) 0.19146(20) 0.26300(4)
C45_11 C 0.18871(14) 0.23950(21) 0.25869(5)
O13_11 O 0.18368(10) 0.25970(14) 0.24786(3)
C46_11 C 0.15490(15) 0.16342(21) 0.27277(5)
C47_11 C 0.11858(15) 0.11754(21) 0.27621(5)
H23_11 H 0.1245 0.0991 0.2827
H24_11 H 0.1847 0.1755 0.2771
H25_11 H 0.0976 0.1929 0.2503
O29_11 O 0.15597(13) 0.31319(17) 0.22973(3)
O30_11 O 0.25670(11) 0.38660(16) 0.22489(3)
H67_11 H 0.137902 0.28244 0.224411
H68_11 H 0.161397 0.340103 0.223285
H69_11 H 0.236386 0.385537 0.216661
H70_11 H 0.287656 0.391307 0.22116
O2_11 O 0.07603(10) 0.81632(10) 0.24786(3)
C1_11 C 0.01301(14) 0.96453(14) 0.27170(5)
C3_11 C 0.06171(16) 0.93357(16) 0.26046(5)
H2_11 H 0.0804 0.9637 0.2563
C5_11 C 0.04347(14) 0.85200(14) 0.26300(4)
C6_11 C 0.07098(15) 0.89681(15) 0.25685(5)
H4_11 H 0.0954 0.9024 0.2503
C7_11 C 0.05080(15) 0.81129(14) 0.25869(5)
C8_11 C 0.00853(15) 0.84510(15) 0.27277(5)
C9_11 C 0.02518(15) 0.92590(14) 0.27003(5)
O10_11 O 0.15723(11) 0.84403(13) 0.22973(3)
O11_11 O 0.12991(12) 0.74330(11) 0.22489(3)
H61_11 H 0.149151 0.763614 0.216661
H62_11 H 0.10365 0.712344 0.22116
H63_11 H 0.144538 0.862098 0.224411
H64_11 H 0.178706 0.838603 0.223285
C38_11 C 0.98944(22) 0.03591(15) 0.27180(5)
H26_11 H 0.9814 0.0599 0.2719
C54_11 C 0.88246(21) 0.00103(15) 0.27621(5)
H28_11 H 0.9009 0.0253 0.2827
H29_11 H 0.8245 0.0091 0.2771
C2_11 C 0.96409(15) 0.95352(16) 0.27180(5)
H1_11 H 0.9401 0.9214 0.2719
C4_11 C 0.99897(15) 0.88142(15) 0.27621(5)
H3_11 H 0.9747 0.8755 0.2827
H5_11 H 0.9909 0.8153 0.2771
C37_11 C 0.95153(20) 0.98699(14) 0.27170(5)
C48_11 C 0.90073(21) 0.97482(15) 0.27003(5)
C49_11 C 0.87187(23) 0.93829(16) 0.26046(5)
H27_11 H 0.8834 0.9196 0.2563
C50_11 C 0.82584(21) 0.92902(15) 0.25685(5)
C51_11 C 0.80854(20) 0.95653(14) 0.26300(4)
C52_11 C 0.76050(21) 0.94920(15) 0.25869(5)
O15_11 O 0.74030(14) 0.92397(10) 0.24786(3)
C53_11 C 0.83658(21) 0.99147(15) 0.27277(5)
H30_11 H 0.8071 0.9046 0.2503
O31_11 O 0.68681(17) 0.84277(11) 0.22973(3)
O32_11 O 0.61340(16) 0.87009(12) 0.22489(3)
H65_11 H 0.71756 0.855462 0.224411
H66_11 H 0.659897 0.821294 0.223285
H71_11 H 0.614463 0.850849 0.216661
H72_11 H 0.608693 0.89635 0.22116
O2_12 O 0.14966(10) 0.74269(10) 0.91880(3)
C1_12 C 0.29787(14) 0.67967(14) 0.89496(5)
C2_12 C 0.28686(16) 0.63075(15) 0.89486(5)
H1_12 H 0.2548 0.6067 0.8947
C3_12 C 0.26691(16) 0.72837(16) 0.90620(5)
H2_12 H 0.2971 0.7470 0.9103
C4_12 C 0.21476(15) 0.66563(15) 0.89045(5)
H3_12 H 0.2089 0.6413 0.8839
C5_12 C 0.18534(14) 0.71013(14) 0.90366(4)
C6_12 C 0.23015(15) 0.73764(15) 0.90981(5)
H4_12 H 0.2358 0.7620 0.9163
C7_12 C 0.14463(14) 0.71746(15) 0.90797(5)
C8_12 C 0.17844(15) 0.67519(15) 0.89389(5)
H5_12 H 0.1487 0.6575 0.8895
C9_12 C 0.25924(14) 0.69184(15) 0.89663(5)
O10_12 O 0.17737(13) 0.82389(11) 0.93693(3)
O11_12 O 0.07664(11) 0.79657(12) 0.94177(3)
C37_12 C 0.32033(14) 0.61819(20) 0.89496(5)
C38_12 C 0.36925(15) 0.65610(22) 0.89486(5)
C39_12 C 0.38181(20) 0.70213(14) 0.89496(5)
C40_12 C 0.34390(22) 0.71314(16) 0.89486(5)
H21_12 H 0.3520 0.7452 0.8947
C41_12 C 0.43261(21) 0.74076(14) 0.89663(5)
C42_12 C 0.46147(23) 0.73309(16) 0.90620(5)
H22_12 H 0.4500 0.7029 0.9103
C43_12 C 0.50750(21) 0.76985(15) 0.90981(5)
C44_12 C 0.52480(20) 0.81466(14) 0.90366(4)
C45_12 C 0.57284(21) 0.85537(14) 0.90797(5)
O13_12 O 0.59304(14) 0.85034(10) 0.91880(3)
C46_12 C 0.49676(21) 0.82156(15) 0.89389(5)
C47_12 C 0.45088(21) 0.78524(15) 0.89045(5)
H23_12 H 0.4325 0.7911 0.8839
H24_12 H 0.5089 0.8513 0.8895
H25_12 H 0.5263 0.7642 0.9163
H26_12 H 0.3933 0.6480 0.8947
C48_12 C 0.30816(15) 0.56739(21) 0.89663(5)
C49_12 C 0.27163(16) 0.53853(23) 0.90620(5)
H27_12 H 0.2530 0.5500 0.9103
C50_12 C 0.26236(15) 0.49250(21) 0.90981(5)
C51_12 C 0.28987(14) 0.47520(20) 0.90366(4)
C52_12 C 0.28254(15) 0.42716(21) 0.90797(5)
O15_12 O 0.25731(10) 0.40696(14) 0.91880(3)
C53_12 C 0.32481(15) 0.50324(21) 0.89389(5)
C54_12 C 0.33437(15) 0.54912(21) 0.89045(5)
H28_12 H 0.3587 0.5675 0.8839
H29_12 H 0.3425 0.4911 0.8895
H30_12 H 0.2380 0.4737 0.9163
O29_12 O 0.64653(17) 0.82263(13) 0.93693(3)
O30_12 O 0.71994(16) 0.92336(11) 0.94177(3)
O31_12 O 0.17611(11) 0.35347(17) 0.93693(3)
O32_12 O 0.20343(12) 0.28006(16) 0.94177(3)
H61_12 H 0.0969471 0.815817 0.950005
H62_12 H 0.0456768 0.770317 0.945507
H63_12 H 0.195432 0.811205 0.942256
H64_12 H 0.171936 0.845373 0.943382
H65_12 H 0.188795 0.384227 0.942256
H66_12 H 0.154627 0.326564 0.943382
H67_12 H 0.615773 0.804568 0.942256
H68_12 H 0.673436 0.828064 0.943382
H69_12 H 0.71887 0.903053 0.950005
H70_12 H 0.72464 0.954323 0.945507
H71_12 H 0.184183 0.28113 0.950005
H72_12 H 0.229683 0.27536 0.945507
loop_
_geom_bond_atom_site_label_1
_geom_bond_atom_site_label_2
_geom_bond_site_symmetry_1
_geom_bond_site_symmetry_2
O32 H71 1_555 1_555
O32 H72 1_555 1_555
O44 Mg7 1_555 1_555
O45 In8 1_555 1_555
O47 In8 1_555 1_555
O48 In8 1_555 1_555
In8 O44 1_555 1_555
In1 O1 1_555 1_555
Mg1 O2 1_555 1_555
O1 C7 1_555 1_555
O2 C7 1_555 1_555
O7 In1 1_555 1_555
O8 C30 1_555 1_555
O9 In1 1_555 1_555
C1 C2 1_555 1_555
C2 H1 1_555 1_555
C3 H2 1_555 1_555
C4 H3 1_555 1_555
C5 C6 1_555 1_555
C6 C3 1_555 1_555
H4 C6 1_555 1_555
C7 C5 1_555 1_555
C8 C4 1_555 1_555
H5 C8 1_555 1_555
C9 C1 1_555 1_555
C30 O7 1_555 1_555
H18 C33 1_555 1_555
C34 C33 1_555 1_555
H19 C34 1_555 1_555
C35 C30 1_555 1_555
C36 C27 1_555 1_555
H20 C36 1_555 1_555
O10 Mg1 1_555 1_555
O11 Mg1 1_555 1_555
C37 C2 1_555 1_555
C38 C37 1_555 1_555
C39 C38 1_555 1_555
C40 C1 1_555 1_555
H21 C40 1_555 1_555
C41 C39 1_555 1_555
C42 C41 1_555 1_555
H22 C42 1_555 1_555
C43 C42 1_555 1_555
C44 C43 1_555 1_555
C45 C44 1_555 1_555
O45 C45 1_555 1_555
O13 C45 1_555 1_555
C46 C44 1_555 1_555
C47 C41 1_555 1_555
H23 C47 1_555 1_555
H24 C46 1_555 1_555
H25 C43 1_555 1_555
H26 C38 1_555 1_555
C48 C37 1_555 1_555
C49 C48 1_555 1_555
H27 C49 1_555 1_555
C50 C49 1_555 1_555
C51 C50 1_555 1_555
C52 C51 1_555 1_555
O14 C52 1_555 1_555
O15 C52 1_555 1_555
C53 C51 1_555 1_555
C54 C48 1_555 1_555
H28 C54 1_555 1_555
H29 C53 1_555 1_555
H30 C50 1_555 1_555
O16 C56 1_555 1_555
O17 C56 1_555 1_555
O18 Mg1 1_555 1_555
O19 In1 1_555 1_555
C55 H31 1_555 1_555
C56 C57 1_555 1_555
C57 C55 1_555 1_555
C58 C57 1_555 1_555
H32 C58 1_555 1_555
C59 C55 1_555 1_555
H33 C59 1_555 1_555
C60 C61 1_555 1_555
C61 C59 1_555 1_555
C62 C58 1_555 1_555
H34 C62 1_555 1_555
C63 C64 1_555 1_555
C64 H35 1_555 1_555
C65 C63 1_555 1_555
H36 C65 1_555 1_555
C66 O18 1_555 1_555
C67 C60 1_555 1_555
H37 C67 1_555 1_555
C68 C64 1_555 1_555
H38 C68 1_555 1_555
C69 C67 1_555 1_555
C70 C68 1_555 1_555
C71 C65 1_555 1_555
H39 C71 1_555 1_555
C73 C74 1_555 1_555
C74 C69 1_555 1_555
H41 C74 1_555 1_555
C76 C60 1_555 1_555
H42 C76 1_555 1_555
O22 C83 1_555 1_555
O23 In1 1_555 1_555
O24 C93 1_555 1_555
O25 C93 1_555 1_555
C82 H46 1_555 1_555
C83 O23 1_555 1_555
C84 C82 1_555 1_555
C85 C84 1_555 1_555
H47 C85 1_555 1_555
C86 C82 1_555 1_555
H48 C86 1_555 1_555
C87 C88 1_555 1_555
C88 C86 1_555 1_555
C89 C85 1_555 1_555
H49 C89 1_555 1_555
C90 C91 1_555 1_555
C91 H50 1_555 1_555
C92 C90 1_555 1_555
H51 C92 1_555 1_555
C93 C90 1_555 1_555
C94 C87 1_555 1_555
H52 C94 1_555 1_555
C95 C91 1_555 1_555
H53 C95 1_555 1_555
C96 C94 1_555 1_555
C97 C95 1_555 1_555
C98 C92 1_555 1_555
H54 C98 1_555 1_555
C100 C101 1_555 1_555
C101 C96 1_555 1_555
H56 C101 1_555 1_555
C103 C87 1_555 1_555
H57 C103 1_555 1_555
O28 In1 1_555 1_555
In3 O14 1_555 1_555
Mg7 O13 1_555 1_555
Mg3 O15 1_555 1_555
O29 Mg7 1_555 1_555
O31 Mg3 1_555 1_555
O33 Mg1 1_555 1_555
Mg5 O8 1_555 1_555
In6 O9 1_555 1_555
O35 In3 1_555 1_555
O37 Mg7 1_555 1_555
O39 Mg3 1_555 1_555
Mg1 O28 1_555 1_555
O9 Mg5 1_555 1_555
C3 C9 1_555 1_555
C4 C9 1_555 1_555
C5 C8 1_555 1_555
C34 C35 1_555 1_555
C35 C36 1_555 1_555
C39 C40 1_555 1_555
C46 C47 1_555 1_555
C53 C54 1_555 1_555
O19 C66 1_555 1_555
C61 C62 1_555 1_555
C63 C66 1_555 1_555
C69 C70 1_555 1_555
C70 C71 1_555 1_555
C73 C76 1_555 1_555
C73 C77 1_555 1_555
C83 C84 1_555 1_555
C88 C89 1_555 1_555
C96 C97 1_555 1_555
C97 C98 1_555 1_555
C100 C103 1_555 1_555
C100 C104 1_555 1_555
O28 In6 1_555 1_555
Mg3 O35 1_555 1_555
O11 H61 1_555 1_555
O11 H62 1_555 1_555
O10 H63 1_555 1_555
O10 H64 1_555 1_555
O31 H65 1_555 1_555
O29 H67 1_555 1_555
O3 C11 1_555 1_555
O4 C11 1_555 1_555
O5 C21 1_555 1_555
O6 C21 1_555 1_555
C10 H6 1_555 1_555
C11 C12 1_555 1_555
C12 C10 1_555 1_555
C13 C12 1_555 1_555
H7 C13 1_555 1_555
C14 C10 1_555 1_555
H8 C14 1_555 1_555
C15 C16 1_555 1_555
C16 C14 1_555 1_555
C17 C13 1_555 1_555
H9 C17 1_555 1_555
C18 C19 1_555 1_555
C19 H10 1_555 1_555
C20 C18 1_555 1_555
H11 C20 1_555 1_555
C21 C18 1_555 1_555
C22 C15 1_555 1_555
H12 C22 1_555 1_555
C23 C19 1_555 1_555
H13 C23 1_555 1_555
C24 C22 1_555 1_555
C25 C23 1_555 1_555
C26 C20 1_555 1_555
H14 C26 1_555 1_555
C28 C29 1_555 1_555
C29 C24 1_555 1_555
H16 C29 1_555 1_555
C31 C15 1_555 1_555
H17 C31 1_555 1_555
O20 C75 1_555 1_555
O21 C75 1_555 1_555
C75 C80 1_555 1_555
H43 C78 1_555 1_555
C79 C78 1_555 1_555
H44 C79 1_555 1_555
C80 C79 1_555 1_555
C81 C72 1_555 1_555
H45 C81 1_555 1_555
O26 C102 1_555 1_555
O27 C102 1_555 1_555
C102 C107 1_555 1_555
H58 C105 1_555 1_555
C106 C105 1_555 1_555
H59 C106 1_555 1_555
C107 C106 1_555 1_555
C108 C99 1_555 1_555
H60 C108 1_555 1_555
Mg4 O5 1_555 1_555
In5 O6 1_555 1_555
Mg6 O21 1_555 1_555
In9 O26 1_555 1_555
Mg8 O27 1_555 1_555
O40 Mg4 1_555 1_555
O41 In5 1_555 1_555
O42 In5 1_555 1_555
O43 In5 1_555 1_555
In10 O40 1_555 1_555
C16 C17 1_555 1_555
C24 C25 1_555 1_555
C25 C26 1_555 1_555
C28 C31 1_555 1_555
C28 C32 1_555 1_555
O20 In5 1_555 1_555
C80 C81 1_555 1_555
C107 C108 1_555 1_555
In5 O40 1_555 1_555
Mg6 O43 1_555 1_555
O43 In10 1_555 1_555
O30 H69 1_555 1_555
O30 H70 1_555 1_555
O8_2 C30_2 1_555 1_555
C30_2 O47 1_555 1_555
H18_2 C33_2 1_555 1_555
C34_2 C33_2 1_555 1_555
H19_2 C34_2 1_555 1_555
C35_2 C30_2 1_555 1_555
C36_2 C27_2 1_555 1_555
H20_2 C36_2 1_555 1_555
Mg5_2 O8_2 1_555 1_555
In6_2 O48 1_555 1_555
O48 Mg5_2 1_555 1_555
C34_2 C35_2 1_555 1_555
C35_2 C36_2 1_555 1_555
O44 In6_2 1_555 1_555
O3_2 C11_2 1_555 1_555
O42 C11_2 1_555 1_555
O5_2 C21_2 1_555 1_555
O6_2 C21_2 1_555 1_555
C10_2 H6_2 1_555 1_555
C11_2 C12_2 1_555 1_555
C12_2 C10_2 1_555 1_555
C13_2 C12_2 1_555 1_555
H7_2 C13_2 1_555 1_555
C14_2 C10_2 1_555 1_555
H8_2 C14_2 1_555 1_555
C15_2 C16_2 1_555 1_555
C16_2 C14_2 1_555 1_555
C17_2 C13_2 1_555 1_555
H9_2 C17_2 1_555 1_555
C18_2 C19_2 1_555 1_555
C19_2 H10_2 1_555 1_555
C20_2 C18_2 1_555 1_555
H11_2 C20_2 1_555 1_555
C21_2 C18_2 1_555 1_555
C22_2 C15_2 1_555 1_555
H12_2 C22_2 1_555 1_555
C23_2 C19_2 1_555 1_555
H13_2 C23_2 1_555 1_555
C24_2 C22_2 1_555 1_555
C25_2 C23_2 1_555 1_555
C26_2 C20_2 1_555 1_555
H14_2 C26_2 1_555 1_555
C28_2 C29_2 1_555 1_555
C29_2 C24_2 1_555 1_555
H16_2 C29_2 1_555 1_555
C31_2 C15_2 1_555 1_555
H17_2 C31_2 1_555 1_555
C16_2 C17_2 1_555 1_555
C24_2 C25_2 1_555 1_555
C25_2 C26_2 1_555 1_555
C28_2 C31_2 1_555 1_555
C28_2 C32_2 1_555 1_555
O22_2 C83_2 1_555 1_555
O38 C93_2 1_555 1_555
O25_2 C93_2 1_555 1_555
C82_2 H46_2 1_555 1_555
C83_2 O46 1_555 1_555
C84_2 C82_2 1_555 1_555
C85_2 C84_2 1_555 1_555
H47_2 C85_2 1_555 1_555
C86_2 C82_2 1_555 1_555
H48_2 C86_2 1_555 1_555
C87_2 C88_2 1_555 1_555
C88_2 C86_2 1_555 1_555
C89_2 C85_2 1_555 1_555
H49_2 C89_2 1_555 1_555
C90_2 C91_2 1_555 1_555
C91_2 H50_2 1_555 1_555
C92_2 C90_2 1_555 1_555
H51_2 C92_2 1_555 1_555
C93_2 C90_2 1_555 1_555
C94_2 C87_2 1_555 1_555
H52_2 C94_2 1_555 1_555
C95_2 C91_2 1_555 1_555
H53_2 C95_2 1_555 1_555
C96_2 C94_2 1_555 1_555
C97_2 C95_2 1_555 1_555
C98_2 C92_2 1_555 1_555
H54_2 C98_2 1_555 1_555
C100_2 C101_2 1_555 1_555
C101_2 C96_2 1_555 1_555
H56_2 C101_2 1_555 1_555
C103_2 C87_2 1_555 1_555
H57_2 C103_2 1_555 1_555
C83_2 C84_2 1_555 1_555
C88_2 C89_2 1_555 1_555
C96_2 C97_2 1_555 1_555
C97_2 C98_2 1_555 1_555
C100_2 C103_2 1_555 1_555
C100_2 C104_2 1_555 1_555
O26_2 C102_2 1_555 1_555
O27_2 C102_2 1_555 1_555
C102_2 C107_2 1_555 1_555
H58_2 C105_2 1_555 1_555
C106_2 C105_2 1_555 1_555
H59_2 C106_2 1_555 1_555
C107_2 C106_2 1_555 1_555
C108_2 C99_2 1_555 1_555
H60_2 C108_2 1_555 1_555
In4 O26_2 1_555 1_555
Mg8_2 O27_2 1_555 1_555
O40_2 Mg4_2 1_555 1_555
O41_2 In9 1_555 1_555
O43_2 In9 1_555 1_555
In10_2 O40_2 1_555 1_555
C107_2 C108_2 1_555 1_555
In9 O40_2 1_555 1_555
Mg8 O43_2 1_555 1_555
O43_2 In10_2 1_555 1_555
O47_2 In3 1_555 1_555
O48_2 In3 1_555 1_555
O40_3 Mg4_3 1_555 1_555
O41_3 In4 1_555 1_555
O43_3 In4 1_555 1_555
In10_3 O40_3 1_555 1_555
In4 O40_3 1_555 1_555
Mg8_2 O43_3 1_555 1_555
O43_3 In10_3 1_555 1_555
O8_3 C30_3 1_555 1_555
C30_3 O47_2 1_555 1_555
H18_3 C33_3 1_555 1_555
C34_3 C33_3 1_555 1_555
H19_3 C34_3 1_555 1_555
C35_3 C30_3 1_555 1_555
C36_3 C27_3 1_555 1_555
H20_3 C36_3 1_555 1_555
Mg5_3 O8_3 1_555 1_555
In6_3 O48_2 1_555 1_555
O48_2 Mg5_3 1_555 1_555
C34_3 C35_3 1_555 1_555
C35_3 C36_3 1_555 1_555
O35 In6_3 1_555 1_555
O3_3 C11_3 1_555 1_555
O42_2 C11_3 1_555 1_555
O5_3 C21_3 1_555 1_555
O6_3 C21_3 1_555 1_555
C10_3 H6_3 1_555 1_555
C11_3 C12_3 1_555 1_555
C12_3 C10_3 1_555 1_555
C13_3 C12_3 1_555 1_555
H7_3 C13_3 1_555 1_555
C14_3 C10_3 1_555 1_555
H8_3 C14_3 1_555 1_555
C15_3 C16_3 1_555 1_555
C16_3 C14_3 1_555 1_555
C17_3 C13_3 1_555 1_555
H9_3 C17_3 1_555 1_555
C18_3 C19_3 1_555 1_555
C19_3 H10_3 1_555 1_555
C20_3 C18_3 1_555 1_555
H11_3 C20_3 1_555 1_555
C21_3 C18_3 1_555 1_555
C22_3 C15_3 1_555 1_555
H12_3 C22_3 1_555 1_555
C23_3 C19_3 1_555 1_555
H13_3 C23_3 1_555 1_555
C24_3 C22_3 1_555 1_555
C25_3 C23_3 1_555 1_555
C26_3 C20_3 1_555 1_555
H14_3 C26_3 1_555 1_555
C28_3 C29_3 1_555 1_555
C29_3 C24_3 1_555 1_555
H16_3 C29_3 1_555 1_555
C31_3 C15_3 1_555 1_555
H17_3 C31_3 1_555 1_555
C16_3 C17_3 1_555 1_555
C24_3 C25_3 1_555 1_555
C25_3 C26_3 1_555 1_555
C28_3 C31_3 1_555 1_555
C28_3 C32_3 1_555 1_555
O44_2 Mg7_2 1_555 1_555
O45_2 In8_2 1_555 1_555
O47_3 In8_2 1_555 1_555
O48_3 In8_2 1_555 1_555
In8_2 O44_2 1_555 1_555
O32_2 H71_2 1_555 1_555
O32_2 H72_2 1_555 1_555
In1_2 O1_2 1_555 1_555
Mg1_2 O2_2 1_555 1_555
O1_2 C7_2 1_555 1_555
O2_2 C7_2 1_555 1_555
O3_4 C11_4 1_555 1_555
O4_2 C11_4 1_555 1_555
O5_4 C21_4 1_555 1_555
O6_4 C21_4 1_555 1_555
O7_2 In1_2 1_555 1_555
O8_4 C30_4 1_555 1_555
O9_2 In1_2 1_555 1_555
C1_2 C2_2 1_555 1_555
C2_2 H1_2 1_555 1_555
C3_2 H2_2 1_555 1_555
C4_2 H3_2 1_555 1_555
C5_2 C6_2 1_555 1_555
C6_2 C3_2 1_555 1_555
H4_2 C6_2 1_555 1_555
C7_2 C5_2 1_555 1_555
C8_2 C4_2 1_555 1_555
H5_2 C8_2 1_555 1_555
C9_2 C1_2 1_555 1_555
C10_4 H6_4 1_555 1_555
C11_4 C12_4 1_555 1_555
C12_4 C10_4 1_555 1_555
C13_4 C12_4 1_555 1_555
H7_4 C13_4 1_555 1_555
C14_4 C10_4 1_555 1_555
H8_4 C14_4 1_555 1_555
C15_4 C16_4 1_555 1_555
C16_4 C14_4 1_555 1_555
C17_4 C13_4 1_555 1_555
H9_4 C17_4 1_555 1_555
C18_4 C19_4 1_555 1_555
C19_4 H10_4 1_555 1_555
C20_4 C18_4 1_555 1_555
H11_4 C20_4 1_555 1_555
C21_4 C18_4 1_555 1_555
C22_4 C15_4 1_555 1_555
H12_4 C22_4 1_555 1_555
C23_4 C19_4 1_555 1_555
H13_4 C23_4 1_555 1_555
C24_4 C22_4 1_555 1_555
C25_4 C23_4 1_555 1_555
C26_4 C20_4 1_555 1_555
H14_4 C26_4 1_555 1_555
C27_4 H15_4 1_555 1_555
C28_4 C29_4 1_555 1_555
C29_4 C24_4 1_555 1_555
H16_4 C29_4 1_555 1_555
C30_4 O7_2 1_555 1_555
C31_4 C15_4 1_555 1_555
H17_4 C31_4 1_555 1_555
C32_4 C27_4 1_555 1_555
C33_4 C32_4 1_555 1_555
H18_4 C33_4 1_555 1_555
C34_4 C33_4 1_555 1_555
H19_4 C34_4 1_555 1_555
C35_4 C30_4 1_555 1_555
C36_4 C27_4 1_555 1_555
H20_4 C36_4 1_555 1_555
O10_2 Mg1_2 1_555 1_555
O11_2 Mg1_2 1_555 1_555
C37_2 C2_2 1_555 1_555
C38_2 C37_2 1_555 1_555
C39_2 C38_2 1_555 1_555
C40_2 C1_2 1_555 1_555
H21_2 C40_2 1_555 1_555
C41_2 C39_2 1_555 1_555
C42_2 C41_2 1_555 1_555
H22_2 C42_2 1_555 1_555
C43_2 C42_2 1_555 1_555
C44_2 C43_2 1_555 1_555
C45_2 C44_2 1_555 1_555
O45_2 C45_2 1_555 1_555
O13_2 C45_2 1_555 1_555
C46_2 C44_2 1_555 1_555
C47_2 C41_2 1_555 1_555
H23_2 C47_2 1_555 1_555
H24_2 C46_2 1_555 1_555
H25_2 C43_2 1_555 1_555
H26_2 C38_2 1_555 1_555
C48_2 C37_2 1_555 1_555
C49_2 C48_2 1_555 1_555
H27_2 C49_2 1_555 1_555
C50_2 C49_2 1_555 1_555
C51_2 C50_2 1_555 1_555
C52_2 C51_2 1_555 1_555
O14_2 C52_2 1_555 1_555
O15_2 C52_2 1_555 1_555
C53_2 C51_2 1_555 1_555
C54_2 C48_2 1_555 1_555
H28_2 C54_2 1_555 1_555
H29_2 C53_2 1_555 1_555
H30_2 C50_2 1_555 1_555
O16_2 C56_2 1_555 1_555
O17_2 C56_2 1_555 1_555
O18_2 Mg1_2 1_555 1_555
O19_2 In1_2 1_555 1_555
O20_2 C75_2 1_555 1_555
O21_2 C75_2 1_555 1_555
C55_2 H31_2 1_555 1_555
C56_2 C57_2 1_555 1_555
C57_2 C55_2 1_555 1_555
C58_2 C57_2 1_555 1_555
H32_2 C58_2 1_555 1_555
C59_2 C55_2 1_555 1_555
H33_2 C59_2 1_555 1_555
C60_2 C61_2 1_555 1_555
C61_2 C59_2 1_555 1_555
C62_2 C58_2 1_555 1_555
H34_2 C62_2 1_555 1_555
C63_2 C64_2 1_555 1_555
C64_2 H35_2 1_555 1_555
C65_2 C63_2 1_555 1_555
H36_2 C65_2 1_555 1_555
C66_2 O18_2 1_555 1_555
C67_2 C60_2 1_555 1_555
H37_2 C67_2 1_555 1_555
C68_2 C64_2 1_555 1_555
H38_2 C68_2 1_555 1_555
C69_2 C67_2 1_555 1_555
C70_2 C68_2 1_555 1_555
C71_2 C65_2 1_555 1_555
H39_2 C71_2 1_555 1_555
C72_2 H40_2 1_555 1_555
C73_2 C74_2 1_555 1_555
C74_2 C69_2 1_555 1_555
H41_2 C74_2 1_555 1_555
C75_2 C80_2 1_555 1_555
C76_2 C60_2 1_555 1_555
H42_2 C76_2 1_555 1_555
C77_2 C72_2 1_555 1_555
C78_2 C77_2 1_555 1_555
H43_2 C78_2 1_555 1_555
C79_2 C78_2 1_555 1_555
H44_2 C79_2 1_555 1_555
C80_2 C79_2 1_555 1_555
C81_2 C72_2 1_555 1_555
H45_2 C81_2 1_555 1_555
O22_3 C83_3 1_555 1_555
O23_2 In1_2 1_555 1_555
O24_2 C93_3 1_555 1_555
O25_3 C93_3 1_555 1_555
O26_3 C102_3 1_555 1_555
O27_3 C102_3 1_555 1_555
C82_3 H46_3 1_555 1_555
C83_3 O23_2 1_555 1_555
C84_3 C82_3 1_555 1_555
C85_3 C84_3 1_555 1_555
H47_3 C85_3 1_555 1_555
C86_3 C82_3 1_555 1_555
H48_3 C86_3 1_555 1_555
C87_3 C88_3 1_555 1_555
C88_3 C86_3 1_555 1_555
C89_3 C85_3 1_555 1_555
H49_3 C89_3 1_555 1_555
C90_3 C91_3 1_555 1_555
C91_3 H50_3 1_555 1_555
C92_3 C90_3 1_555 1_555
H51_3 C92_3 1_555 1_555
C93_3 C90_3 1_555 1_555
C94_3 C87_3 1_555 1_555
H52_3 C94_3 1_555 1_555
C95_3 C91_3 1_555 1_555
H53_3 C95_3 1_555 1_555
C96_3 C94_3 1_555 1_555
C97_3 C95_3 1_555 1_555
C98_3 C92_3 1_555 1_555
H54_3 C98_3 1_555 1_555
C99_3 H55_3 1_555 1_555
C100_3 C101_3 1_555 1_555
C101_3 C96_3 1_555 1_555
H56_3 C101_3 1_555 1_555
C102_3 C107_3 1_555 1_555
C103_3 C87_3 1_555 1_555
H57_3 C103_3 1_555 1_555
C104_3 C99_3 1_555 1_555
C105_3 C104_3 1_555 1_555
H58_3 C105_3 1_555 1_555
C106_3 C105_3 1_555 1_555
H59_3 C106_3 1_555 1_555
C107_3 C106_3 1_555 1_555
C108_3 C99_3 1_555 1_555
H60_3 C108_3 1_555 1_555
O28_2 In1_2 1_555 1_555
In3_2 O14_2 1_555 1_555
Mg7_2 O13_2 1_555 1_555
Mg3_2 O15_2 1_555 1_555
O29_2 Mg7_2 1_555 1_555
O31_2 Mg3_2 1_555 1_555
O33_2 Mg1_2 1_555 1_555
Mg4_4 O5_4 1_555 1_555
In5_2 O6_4 1_555 1_555
Mg5_4 O8_4 1_555 1_555
In6_4 O9_2 1_555 1_555
Mg6_2 O21_2 1_555 1_555
In9_2 O26_3 1_555 1_555
Mg8_3 O27_3 1_555 1_555
O35_2 In3_2 1_555 1_555
O37_2 Mg7_2 1_555 1_555
O39_2 Mg3_2 1_555 1_555
O40_4 Mg4_4 1_555 1_555
O41_4 In5_2 1_555 1_555
O42_3 In5_2 1_555 1_555
O43_4 In5_2 1_555 1_555
In10_4 O40_4 1_555 1_555
Mg1_2 O28_2 1_555 1_555
O9_2 Mg5_4 1_555 1_555
C3_2 C9_2 1_555 1_555
C4_2 C9_2 1_555 1_555
C5_2 C8_2 1_555 1_555
C16_4 C17_4 1_555 1_555
C24_4 C25_4 1_555 1_555
C25_4 C26_4 1_555 1_555
C28_4 C31_4 1_555 1_555
C28_4 C32_4 1_555 1_555
C34_4 C35_4 1_555 1_555
C35_4 C36_4 1_555 1_555
C39_2 C40_2 1_555 1_555
C46_2 C47_2 1_555 1_555
C53_2 C54_2 1_555 1_555
O19_2 C66_2 1_555 1_555
O20_2 In5_2 1_555 1_555
C61_2 C62_2 1_555 1_555
C63_2 C66_2 1_555 1_555
C69_2 C70_2 1_555 1_555
C70_2 C71_2 1_555 1_555
C73_2 C76_2 1_555 1_555
C73_2 C77_2 1_555 1_555
C80_2 C81_2 1_555 1_555
C83_3 C84_3 1_555 1_555
C88_3 C89_3 1_555 1_555
C96_3 C97_3 1_555 1_555
C97_3 C98_3 1_555 1_555
C100_3 C103_3 1_555 1_555
C100_3 C104_3 1_555 1_555
C107_3 C108_3 1_555 1_555
O28_2 In6_4 1_555 1_555
Mg3_2 O35_2 1_555 1_555
In5_2 O40_4 1_555 1_555
Mg6_2 O43_4 1_555 1_555
O43_4 In10_4 1_555 1_555
O11_2 H61_2 1_555 1_555
O11_2 H62_2 1_555 1_555
O10_2 H63_2 1_555 1_555
O10_2 H64_2 1_555 1_555
O31_2 H65_2 1_555 1_555
O29_2 H67_2 1_555 1_555
O30_2 H69_2 1_555 1_555
O30_2 H70_2 1_555 1_555
O3_5 C11_5 1_555 1_555
O42_3 C11_5 1_555 1_555
O5_5 C21_5 1_555 1_555
O6_5 C21_5 1_555 1_555
O8_5 C30_5 1_555 1_555
C10_5 H6_5 1_555 1_555
C11_5 C12_5 1_555 1_555
C12_5 C10_5 1_555 1_555
C13_5 C12_5 1_555 1_555
H7_5 C13_5 1_555 1_555
C14_5 C10_5 1_555 1_555
H8_5 C14_5 1_555 1_555
C15_5 C16_5 1_555 1_555
C16_5 C14_5 1_555 1_555
C17_5 C13_5 1_555 1_555
H9_5 C17_5 1_555 1_555
C18_5 C19_5 1_555 1_555
C19_5 H10_5 1_555 1_555
C20_5 C18_5 1_555 1_555
H11_5 C20_5 1_555 1_555
C21_5 C18_5 1_555 1_555
C22_5 C15_5 1_555 1_555
H12_5 C22_5 1_555 1_555
C23_5 C19_5 1_555 1_555
H13_5 C23_5 1_555 1_555
C24_5 C22_5 1_555 1_555
C25_5 C23_5 1_555 1_555
C26_5 C20_5 1_555 1_555
H14_5 C26_5 1_555 1_555
C27_5 H15_5 1_555 1_555
C28_5 C29_5 1_555 1_555
C29_5 C24_5 1_555 1_555
H16_5 C29_5 1_555 1_555
C30_5 O47_3 1_555 1_555
C31_5 C15_5 1_555 1_555
H17_5 C31_5 1_555 1_555
C32_5 C27_5 1_555 1_555
C33_5 C32_5 1_555 1_555
H18_5 C33_5 1_555 1_555
C34_5 C33_5 1_555 1_555
H19_5 C34_5 1_555 1_555
C35_5 C30_5 1_555 1_555
C36_5 C27_5 1_555 1_555
H20_5 C36_5 1_555 1_555
Mg5_5 O8_5 1_555 1_555
In6_5 O48_3 1_555 1_555
O48_3 Mg5_5 1_555 1_555
C16_5 C17_5 1_555 1_555
C24_5 C25_5 1_555 1_555
C25_5 C26_5 1_555 1_555
C28_5 C31_5 1_555 1_555
C28_5 C32_5 1_555 1_555
C34_5 C35_5 1_555 1_555
C35_5 C36_5 1_555 1_555
O44_2 In6_5 1_555 1_555
O22_4 C83_4 1_555 1_555
O38_2 C93_4 1_555 1_555
O25_4 C93_4 1_555 1_555
O26_4 C102_4 1_555 1_555
O27_4 C102_4 1_555 1_555
C82_4 H46_4 1_555 1_555
C83_4 O46_2 1_555 1_555
C84_4 C82_4 1_555 1_555
C85_4 C84_4 1_555 1_555
H47_4 C85_4 1_555 1_555
C86_4 C82_4 1_555 1_555
H48_4 C86_4 1_555 1_555
C87_4 C88_4 1_555 1_555
C88_4 C86_4 1_555 1_555
C89_4 C85_4 1_555 1_555
H49_4 C89_4 1_555 1_555
C90_4 C91_4 1_555 1_555
C91_4 H50_4 1_555 1_555
C92_4 C90_4 1_555 1_555
H51_4 C92_4 1_555 1_555
C93_4 C90_4 1_555 1_555
C94_4 C87_4 1_555 1_555
H52_4 C94_4 1_555 1_555
C95_4 C91_4 1_555 1_555
H53_4 C95_4 1_555 1_555
C96_4 C94_4 1_555 1_555
C97_4 C95_4 1_555 1_555
C98_4 C92_4 1_555 1_555
H54_4 C98_4 1_555 1_555
C99_4 H55_4 1_555 1_555
C100_4 C101_4 1_555 1_555
C101_4 C96_4 1_555 1_555
H56_4 C101_4 1_555 1_555
C102_4 C107_4 1_555 1_555
C103_4 C87_4 1_555 1_555
H57_4 C103_4 1_555 1_555
C104_4 C99_4 1_555 1_555
C105_4 C104_4 1_555 1_555
H58_4 C105_4 1_555 1_555
C106_4 C105_4 1_555 1_555
H59_4 C106_4 1_555 1_555
C107_4 C106_4 1_555 1_555
C108_4 C99_4 1_555 1_555
H60_4 C108_4 1_555 1_555
In4_2 O26_4 1_555 1_555
Mg8_4 O27_4 1_555 1_555
O40_5 Mg4_5 1_555 1_555
O41_5 In9_2 1_555 1_555
O43_5 In9_2 1_555 1_555
In10_5 O40_5 1_555 1_555
C83_4 C84_4 1_555 1_555
C88_4 C89_4 1_555 1_555
C96_4 C97_4 1_555 1_555
C97_4 C98_4 1_555 1_555
C100_4 C103_4 1_555 1_555
C100_4 C104_4 1_555 1_555
C107_4 C108_4 1_555 1_555
In9_2 O40_5 1_555 1_555
Mg8_3 O43_5 1_555 1_555
O43_5 In10_5 1_555 1_555
O47_4 In3_2 1_555 1_555
O48_4 In3_2 1_555 1_555
O40_6 Mg4_6 1_555 1_555
O41_6 In4_2 1_555 1_555
O43_6 In4_2 1_555 1_555
In10_6 O40_6 1_555 1_555
In4_2 O40_6 1_555 1_555
Mg8_4 O43_6 1_555 1_555
O43_6 In10_6 1_555 1_555
O3_6 C11_6 1_555 1_555
O42_4 C11_6 1_555 1_555
O5_6 C21_6 1_555 1_555
O6_6 C21_6 1_555 1_555
O8_6 C30_6 1_555 1_555
C10_6 H6_6 1_555 1_555
C11_6 C12_6 1_555 1_555
C12_6 C10_6 1_555 1_555
C13_6 C12_6 1_555 1_555
H7_6 C13_6 1_555 1_555
C14_6 C10_6 1_555 1_555
H8_6 C14_6 1_555 1_555
C15_6 C16_6 1_555 1_555
C16_6 C14_6 1_555 1_555
C17_6 C13_6 1_555 1_555
H9_6 C17_6 1_555 1_555
C18_6 C19_6 1_555 1_555
C19_6 H10_6 1_555 1_555
C20_6 C18_6 1_555 1_555
H11_6 C20_6 1_555 1_555
C21_6 C18_6 1_555 1_555
C22_6 C15_6 1_555 1_555
H12_6 C22_6 1_555 1_555
C23_6 C19_6 1_555 1_555
H13_6 C23_6 1_555 1_555
C24_6 C22_6 1_555 1_555
C25_6 C23_6 1_555 1_555
C26_6 C20_6 1_555 1_555
H14_6 C26_6 1_555 1_555
C27_6 H15_6 1_555 1_555
C28_6 C29_6 1_555 1_555
C29_6 C24_6 1_555 1_555
H16_6 C29_6 1_555 1_555
C30_6 O47_4 1_555 1_555
C31_6 C15_6 1_555 1_555
H17_6 C31_6 1_555 1_555
C32_6 C27_6 1_555 1_555
C33_6 C32_6 1_555 1_555
H18_6 C33_6 1_555 1_555
C34_6 C33_6 1_555 1_555
H19_6 C34_6 1_555 1_555
C35_6 C30_6 1_555 1_555
C36_6 C27_6 1_555 1_555
H20_6 C36_6 1_555 1_555
Mg5_6 O8_6 1_555 1_555
In6_6 O48_4 1_555 1_555
O48_4 Mg5_6 1_555 1_555
C16_6 C17_6 1_555 1_555
C24_6 C25_6 1_555 1_555
C25_6 C26_6 1_555 1_555
C28_6 C31_6 1_555 1_555
C28_6 C32_6 1_555 1_555
C34_6 C35_6 1_555 1_555
C35_6 C36_6 1_555 1_555
O35_2 In6_6 1_555 1_555
O22_5 C83_5 1_555 1_555
O24_3 C93_5 1_555 1_555
O25_5 C93_5 1_555 1_555
O26_5 C102_5 1_555 1_555
O27_5 C102_5 1_555 1_555
C82_5 H46_5 1_555 1_555
C83_5 O23_3 1_555 1_555
C84_5 C82_5 1_555 1_555
C85_5 C84_5 1_555 1_555
H47_5 C85_5 1_555 1_555
C86_5 C82_5 1_555 1_555
H48_5 C86_5 1_555 1_555
C87_5 C88_5 1_555 1_555
C88_5 C86_5 1_555 1_555
C89_5 C85_5 1_555 1_555
H49_5 C89_5 1_555 1_555
C90_5 C91_5 1_555 1_555
C91_5 H50_5 1_555 1_555
C92_5 C90_5 1_555 1_555
H51_5 C92_5 1_555 1_555
C93_5 C90_5 1_555 1_555
C94_5 C87_5 1_555 1_555
H52_5 C94_5 1_555 1_555
C95_5 C91_5 1_555 1_555
H53_5 C95_5 1_555 1_555
C96_5 C94_5 1_555 1_555
C97_5 C95_5 1_555 1_555
C98_5 C92_5 1_555 1_555
H54_5 C98_5 1_555 1_555
C99_5 H55_5 1_555 1_555
C100_5 C101_5 1_555 1_555
C101_5 C96_5 1_555 1_555
H56_5 C101_5 1_555 1_555
C102_5 C107_5 1_555 1_555
C103_5 C87_5 1_555 1_555
H57_5 C103_5 1_555 1_555
C104_5 C99_5 1_555 1_555
C105_5 C104_5 1_555 1_555
H58_5 C105_5 1_555 1_555
C106_5 C105_5 1_555 1_555
H59_5 C106_5 1_555 1_555
C107_5 C106_5 1_555 1_555
C108_5 C99_5 1_555 1_555
H60_5 C108_5 1_555 1_555
Mg5_5 O24_3 1_555 1_555
In6_5 O25_5 1_555 1_555
In9_3 O26_5 1_555 1_555
Mg8_5 O27_5 1_555 1_555
O45_3 In6_5 1_555 1_555
O47_5 In6_5 1_555 1_555
C83_5 C84_5 1_555 1_555
C88_5 C89_5 1_555 1_555
C96_5 C97_5 1_555 1_555
C97_5 C98_5 1_555 1_555
C100_5 C103_5 1_555 1_555
C100_5 C104_5 1_555 1_555
C107_5 C108_5 1_555 1_555
In6_6 O1_3 1_555 1_555
Mg5_6 O2_3 1_555 1_555
O1_3 C7_3 1_555 1_555
O2_3 C7_3 1_555 1_555
O3_7 C11_7 1_555 1_555
O4_3 C11_7 1_555 1_555
O5_7 C21_7 1_555 1_555
O6_7 C21_7 1_555 1_555
O7_3 In6_6 1_555 1_555
O39_2 C30_7 1_555 1_555
C1_3 C2_3 1_555 1_555
C2_3 H1_3 1_555 1_555
C3_3 H2_3 1_555 1_555
C4_3 H3_3 1_555 1_555
C5_3 C6_3 1_555 1_555
C6_3 C3_3 1_555 1_555
H4_3 C6_3 1_555 1_555
C7_3 C5_3 1_555 1_555
C8_3 C4_3 1_555 1_555
H5_3 C8_3 1_555 1_555
C9_3 C1_3 1_555 1_555
C10_7 H6_7 1_555 1_555
C11_7 C12_7 1_555 1_555
C12_7 C10_7 1_555 1_555
C13_7 C12_7 1_555 1_555
H7_7 C13_7 1_555 1_555
C14_7 C10_7 1_555 1_555
H8_7 C14_7 1_555 1_555
C15_7 C16_7 1_555 1_555
C16_7 C14_7 1_555 1_555
C17_7 C13_7 1_555 1_555
H9_7 C17_7 1_555 1_555
C18_7 C19_7 1_555 1_555
C19_7 H10_7 1_555 1_555
C20_7 C18_7 1_555 1_555
H11_7 C20_7 1_555 1_555
C21_7 C18_7 1_555 1_555
C22_7 C15_7 1_555 1_555
H12_7 C22_7 1_555 1_555
C23_7 C19_7 1_555 1_555
H13_7 C23_7 1_555 1_555
C24_7 C22_7 1_555 1_555
C25_7 C23_7 1_555 1_555
C26_7 C20_7 1_555 1_555
H14_7 C26_7 1_555 1_555
C27_7 H15_7 1_555 1_555
C28_7 C29_7 1_555 1_555
C29_7 C24_7 1_555 1_555
H16_7 C29_7 1_555 1_555
C30_7 O7_3 1_555 1_555
C31_7 C15_7 1_555 1_555
H17_7 C31_7 1_555 1_555
C32_7 C27_7 1_555 1_555
C33_7 C32_7 1_555 1_555
H18_7 C33_7 1_555 1_555
C34_7 C33_7 1_555 1_555
H19_7 C34_7 1_555 1_555
C35_7 C30_7 1_555 1_555
C36_7 C27_7 1_555 1_555
H20_7 C36_7 1_555 1_555
O10_3 Mg5_6 1_555 1_555
O11_3 Mg5_6 1_555 1_555
C37_3 C2_3 1_555 1_555
C38_3 C37_3 1_555 1_555
C39_3 C38_3 1_555 1_555
C40_3 C1_3 1_555 1_555
H21_3 C40_3 1_555 1_555
C41_3 C39_3 1_555 1_555
C42_3 C41_3 1_555 1_555
H22_3 C42_3 1_555 1_555
C43_3 C42_3 1_555 1_555
C44_3 C43_3 1_555 1_555
C45_3 C44_3 1_555 1_555
O45_3 C45_3 1_555 1_555
O13_3 C45_3 1_555 1_555
C46_3 C44_3 1_555 1_555
C47_3 C41_3 1_555 1_555
H23_3 C47_3 1_555 1_555
H24_3 C46_3 1_555 1_555
H25_3 C43_3 1_555 1_555
H26_3 C38_3 1_555 1_555
C48_3 C37_3 1_555 1_555
C49_3 C48_3 1_555 1_555
H27_3 C49_3 1_555 1_555
C50_3 C49_3 1_555 1_555
C51_3 C50_3 1_555 1_555
C52_3 C51_3 1_555 1_555
O14_3 C52_3 1_555 1_555
O15_3 C52_3 1_555 1_555
C53_3 C51_3 1_555 1_555
C54_3 C48_3 1_555 1_555
H28_3 C54_3 1_555 1_555
H29_3 C53_3 1_555 1_555
H30_3 C50_3 1_555 1_555
O18_3 Mg5_6 1_555 1_555
O19_3 In6_6 1_555 1_555
C63_3 C64_3 1_555 1_555
C64_3 H35_3 1_555 1_555
C65_3 C63_3 1_555 1_555
H36_3 C65_3 1_555 1_555
C66_3 O18_3 1_555 1_555
C68_3 C64_3 1_555 1_555
H38_3 C68_3 1_555 1_555
C70_3 C68_3 1_555 1_555
C71_3 C65_3 1_555 1_555
H39_3 C71_3 1_555 1_555
C72_3 H40_3 1_555 1_555
C74_3 C69_3 1_555 1_555
H41_3 C74_3 1_555 1_555
C81_3 C72_3 1_555 1_555
H45_3 C81_3 1_555 1_555
In6_4 O14_3 1_555 1_555
Mg5_5 O13_3 1_555 1_555
Mg5_4 O15_3 1_555 1_555
O29_3 Mg5_5 1_555 1_555
O30_3 Mg5_5 1_555 1_555
O31_3 Mg5_4 1_555 1_555
O32_3 Mg5_4 1_555 1_555
In4_3 O4_3 1_555 1_555
Mg4_7 O5_7 1_555 1_555
In5_3 O6_7 1_555 1_555
O38_3 Mg5_4 1_555 1_555
O40_7 Mg4_7 1_555 1_555
O41_7 In5_3 1_555 1_555
O42_5 In5_3 1_555 1_555
C3_3 C9_3 1_555 1_555
C4_3 C9_3 1_555 1_555
C5_3 C8_3 1_555 1_555
C16_7 C17_7 1_555 1_555
C24_7 C25_7 1_555 1_555
C25_7 C26_7 1_555 1_555
C28_7 C31_7 1_555 1_555
C28_7 C32_7 1_555 1_555
C34_7 C35_7 1_555 1_555
C35_7 C36_7 1_555 1_555
C39_3 C40_3 1_555 1_555
C46_3 C47_3 1_555 1_555
C53_3 C54_3 1_555 1_555
O19_3 C66_3 1_555 1_555
C63_3 C66_3 1_555 1_555
C69_3 C70_3 1_555 1_555
C70_3 C71_3 1_555 1_555
In5_3 O40_7 1_555 1_555
O11_3 H61_3 1_555 1_555
O11_3 H62_3 1_555 1_555
O10_3 H63_3 1_555 1_555
O10_3 H64_3 1_555 1_555
O31_3 H65_3 1_555 1_555
O31_3 H66_3 1_555 1_555
O29_3 H67_3 1_555 1_555
O29_3 H68_3 1_555 1_555
O30_3 H69_3 1_555 1_555
O30_3 H70_3 1_555 1_555
O32_3 H71_3 1_555 1_555
O32_3 H72_3 1_555 1_555
O16_3 C56_3 1_555 1_555
O17_3 C56_3 1_555 1_555
O20_3 C75_3 1_555 1_555
O21_3 C75_3 1_555 1_555
C55_3 H31_3 1_555 1_555
C56_3 C57_3 1_555 1_555
C57_3 C55_3 1_555 1_555
C58_3 C57_3 1_555 1_555
H32_3 C58_3 1_555 1_555
C59_3 C55_3 1_555 1_555
H33_3 C59_3 1_555 1_555
C60_3 C61_3 1_555 1_555
C61_3 C59_3 1_555 1_555
C62_3 C58_3 1_555 1_555
H34_3 C62_3 1_555 1_555
C67_3 C60_3 1_555 1_555
H37_3 C67_3 1_555 1_555
C75_3 C80_3 1_555 1_555
C76_3 C60_3 1_555 1_555
H42_3 C76_3 1_555 1_555
C78_3 C77_3 1_555 1_555
H43_3 C78_3 1_555 1_555
C79_3 C78_3 1_555 1_555
H44_3 C79_3 1_555 1_555
C80_3 C79_3 1_555 1_555
In6_4 O17_3 1_555 1_555
Mg6_3 O21_3 1_555 1_555
C61_3 C62_3 1_555 1_555
C73_3 C76_3 1_555 1_555
C73_3 C77_3 1_555 1_555
Mg6_3 O43_7 1_555 1_555
O43_7 In10_7 1_555 1_555
O3_8 C11_8 1_555 1_555
O42_5 C11_8 1_555 1_555
O5_8 C21_8 1_555 1_555
O6_8 C21_8 1_555 1_555
O37_2 C30_8 1_555 1_555
C10_8 H6_8 1_555 1_555
C11_8 C12_8 1_555 1_555
C12_8 C10_8 1_555 1_555
C13_8 C12_8 1_555 1_555
H7_8 C13_8 1_555 1_555
C14_8 C10_8 1_555 1_555
H8_8 C14_8 1_555 1_555
C15_8 C16_8 1_555 1_555
C16_8 C14_8 1_555 1_555
C17_8 C13_8 1_555 1_555
H9_8 C17_8 1_555 1_555
C18_8 C19_8 1_555 1_555
C19_8 H10_8 1_555 1_555
C20_8 C18_8 1_555 1_555
H11_8 C20_8 1_555 1_555
C21_8 C18_8 1_555 1_555
C22_8 C15_8 1_555 1_555
H12_8 C22_8 1_555 1_555
C23_8 C19_8 1_555 1_555
H13_8 C23_8 1_555 1_555
C24_8 C22_8 1_555 1_555
C25_8 C23_8 1_555 1_555
C26_8 C20_8 1_555 1_555
H14_8 C26_8 1_555 1_555
C27_8 H15_8 1_555 1_555
C28_8 C29_8 1_555 1_555
C29_8 C24_8 1_555 1_555
H16_8 C29_8 1_555 1_555
C30_8 O47_5 1_555 1_555
C31_8 C15_8 1_555 1_555
H17_8 C31_8 1_555 1_555
C32_8 C27_8 1_555 1_555
C33_8 C32_8 1_555 1_555
H18_8 C33_8 1_555 1_555
C34_8 C33_8 1_555 1_555
H19_8 C34_8 1_555 1_555
C35_8 C30_8 1_555 1_555
C36_8 C27_8 1_555 1_555
H20_8 C36_8 1_555 1_555
Mg4_8 O5_8 1_555 1_555
In9_3 O6_8 1_555 1_555
O40_8 Mg4_8 1_555 1_555
O41_8 In9_3 1_555 1_555
O42_6 In9_3 1_555 1_555
O43_8 In9_3 1_555 1_555
In10_8 O40_8 1_555 1_555
C16_8 C17_8 1_555 1_555
C24_8 C25_8 1_555 1_555
C25_8 C26_8 1_555 1_555
C28_8 C31_8 1_555 1_555
C28_8 C32_8 1_555 1_555
C34_8 C35_8 1_555 1_555
C35_8 C36_8 1_555 1_555
In9_3 O40_8 1_555 1_555
Mg8_5 O43_8 1_555 1_555
O43_8 In10_8 1_555 1_555
O22_6 C83_6 1_555 1_555
O26_6 C102_6 1_555 1_555
O27_6 C102_6 1_555 1_555
C82_6 H46_6 1_555 1_555
C83_6 O46_3 1_555 1_555
C84_6 C82_6 1_555 1_555
C85_6 C84_6 1_555 1_555
H47_6 C85_6 1_555 1_555
C86_6 C82_6 1_555 1_555
H48_6 C86_6 1_555 1_555
C87_6 C88_6 1_555 1_555
C88_6 C86_6 1_555 1_555
C89_6 C85_6 1_555 1_555
H49_6 C89_6 1_555 1_555
C94_6 C87_6 1_555 1_555
H52_6 C94_6 1_555 1_555
C102_6 C107_6 1_555 1_555
C103_6 C87_6 1_555 1_555
H57_6 C103_6 1_555 1_555
C105_6 C104_6 1_555 1_555
H58_6 C105_6 1_555 1_555
C106_6 C105_6 1_555 1_555
H59_6 C106_6 1_555 1_555
C107_6 C106_6 1_555 1_555
Mg8_6 O27_6 1_555 1_555
C83_6 C84_6 1_555 1_555
C88_6 C89_6 1_555 1_555
C100_6 C103_6 1_555 1_555
C100_6 C104_6 1_555 1_555
O38_3 C93_6 1_555 1_555
O25_6 C93_6 1_555 1_555
C90_6 C91_6 1_555 1_555
C91_6 H50_6 1_555 1_555
C92_6 C90_6 1_555 1_555
H51_6 C92_6 1_555 1_555
C93_6 C90_6 1_555 1_555
C95_6 C91_6 1_555 1_555
H53_6 C95_6 1_555 1_555
C97_6 C95_6 1_555 1_555
C98_6 C92_6 1_555 1_555
H54_6 C98_6 1_555 1_555
C99_6 H55_6 1_555 1_555
C101_6 C96_6 1_555 1_555
H56_6 C101_6 1_555 1_555
C108_6 C99_6 1_555 1_555
H60_6 C108_6 1_555 1_555
In6_4 O25_6 1_555 1_555
O47_6 In6_4 1_555 1_555
C96_6 C97_6 1_555 1_555
C97_6 C98_6 1_555 1_555
Mg8_6 O43_9 1_555 1_555
O43_9 In10_9 1_555 1_555
O3_9 C11_9 1_555 1_555
O42_6 C11_9 1_555 1_555
O5_9 C21_9 1_555 1_555
O6_9 C21_9 1_555 1_555
O33_2 C30_9 1_555 1_555
C10_9 H6_9 1_555 1_555
C11_9 C12_9 1_555 1_555
C12_9 C10_9 1_555 1_555
C13_9 C12_9 1_555 1_555
H7_9 C13_9 1_555 1_555
C14_9 C10_9 1_555 1_555
H8_9 C14_9 1_555 1_555
C15_9 C16_9 1_555 1_555
C16_9 C14_9 1_555 1_555
C17_9 C13_9 1_555 1_555
H9_9 C17_9 1_555 1_555
C18_9 C19_9 1_555 1_555
C19_9 H10_9 1_555 1_555
C20_9 C18_9 1_555 1_555
H11_9 C20_9 1_555 1_555
C21_9 C18_9 1_555 1_555
C22_9 C15_9 1_555 1_555
H12_9 C22_9 1_555 1_555
C23_9 C19_9 1_555 1_555
H13_9 C23_9 1_555 1_555
C24_9 C22_9 1_555 1_555
C25_9 C23_9 1_555 1_555
C26_9 C20_9 1_555 1_555
H14_9 C26_9 1_555 1_555
C27_9 H15_9 1_555 1_555
C28_9 C29_9 1_555 1_555
C29_9 C24_9 1_555 1_555
H16_9 C29_9 1_555 1_555
C30_9 O47_6 1_555 1_555
C31_9 C15_9 1_555 1_555
H17_9 C31_9 1_555 1_555
C32_9 C27_9 1_555 1_555
C33_9 C32_9 1_555 1_555
H18_9 C33_9 1_555 1_555
C34_9 C33_9 1_555 1_555
H19_9 C34_9 1_555 1_555
C35_9 C30_9 1_555 1_555
C36_9 C27_9 1_555 1_555
H20_9 C36_9 1_555 1_555
Mg4_9 O5_9 1_555 1_555
In4_3 O6_9 1_555 1_555
O40_9 Mg4_9 1_555 1_555
O41_9 In4_3 1_555 1_555
C16_9 C17_9 1_555 1_555
C24_9 C25_9 1_555 1_555
C25_9 C26_9 1_555 1_555
C28_9 C31_9 1_555 1_555
C28_9 C32_9 1_555 1_555
C34_9 C35_9 1_555 1_555
C35_9 C36_9 1_555 1_555
In4_3 O40_9 1_555 1_555
O3_10 C11_10 1_555 1_555
O4_4 C11_10 1_555 1_555
O8_7 C30_10 1_555 1_555
C2_4 H1_4 1_555 1_555
C4_4 H3_4 1_555 1_555
C10_10 H6_10 1_555 1_555
C11_10 C12_10 1_555 1_555
C12_10 C10_10 1_555 1_555
C13_10 C12_10 1_555 1_555
H7_10 C13_10 1_555 1_555
C14_10 C10_10 1_555 1_555
H8_10 C14_10 1_555 1_555
C15_10 C16_10 1_555 1_555
C16_10 C14_10 1_555 1_555
C17_10 C13_10 1_555 1_555
H9_10 C17_10 1_555 1_555
C22_10 C15_10 1_555 1_555
H12_10 C22_10 1_555 1_555
C30_10 O7_4 1_555 1_555
C31_10 C15_10 1_555 1_555
H17_10 C31_10 1_555 1_555
C33_10 C32_10 1_555 1_555
H18_10 C33_10 1_555 1_555
C34_10 C33_10 1_555 1_555
H19_10 C34_10 1_555 1_555
C35_10 C30_10 1_555 1_555
C37_4 C2_4 1_555 1_555
C48_4 C37_4 1_555 1_555
C49_4 C48_4 1_555 1_555
H27_4 C49_4 1_555 1_555
C50_4 C49_4 1_555 1_555
C51_4 C50_4 1_555 1_555
C52_4 C51_4 1_555 1_555
O14_4 C52_4 1_555 1_555
O15_4 C52_4 1_555 1_555
C53_4 C51_4 1_555 1_555
H30_4 C50_4 1_555 1_555
In3_3 O14_4 1_555 1_555
Mg3_3 O15_4 1_555 1_555
O31_4 Mg3_3 1_555 1_555
O32_4 Mg3_3 1_555 1_555
In10 O4_4 1_555 1_555
Mg5_7 O8_7 1_555 1_555
In6_7 O9_3 1_555 1_555
O35_3 In3_3 1_555 1_555
O38_4 Mg3_3 1_555 1_555
O39_3 Mg3_3 1_555 1_555
O9_3 Mg5_7 1_555 1_555
C16_10 C17_10 1_555 1_555
C28_10 C31_10 1_555 1_555
C28_10 C32_10 1_555 1_555
C34_10 C35_10 1_555 1_555
Mg3_3 O35_3 1_555 1_555
O31_4 H65_4 1_555 1_555
O31_4 H66_4 1_555 1_555
O32_4 H71_4 1_555 1_555
O32_4 H72_4 1_555 1_555
In1_3 O1_4 1_555 1_555
Mg1_3 O2_4 1_555 1_555
O1_4 C7_4 1_555 1_555
O2_4 C7_4 1_555 1_555
O5_10 C21_10 1_555 1_555
O6_10 C21_10 1_555 1_555
C3_4 H2_4 1_555 1_555
C5_4 C6_4 1_555 1_555
C6_4 C3_4 1_555 1_555
H4_4 C6_4 1_555 1_555
C7_4 C5_4 1_555 1_555
C9_4 C1_4 1_555 1_555
C18_10 C19_10 1_555 1_555
C19_10 H10_10 1_555 1_555
C20_10 C18_10 1_555 1_555
H11_10 C20_10 1_555 1_555
C21_10 C18_10 1_555 1_555
C23_10 C19_10 1_555 1_555
H13_10 C23_10 1_555 1_555
C25_10 C23_10 1_555 1_555
C26_10 C20_10 1_555 1_555
H14_10 C26_10 1_555 1_555
C27_10 H15_10 1_555 1_555
C29_10 C24_10 1_555 1_555
H16_10 C29_10 1_555 1_555
C36_10 C27_10 1_555 1_555
H20_10 C36_10 1_555 1_555
O10_4 Mg1_3 1_555 1_555
O11_4 Mg1_3 1_555 1_555
O16_4 C56_4 1_555 1_555
O17_4 C56_4 1_555 1_555
O18_4 Mg1_3 1_555 1_555
O19_4 In1_3 1_555 1_555
O20_4 C75_4 1_555 1_555
O21_4 C75_4 1_555 1_555
C55_4 H31_4 1_555 1_555
C56_4 C57_4 1_555 1_555
C57_4 C55_4 1_555 1_555
C58_4 C57_4 1_555 1_555
H32_4 C58_4 1_555 1_555
C59_4 C55_4 1_555 1_555
H33_4 C59_4 1_555 1_555
C60_4 C61_4 1_555 1_555
C61_4 C59_4 1_555 1_555
C62_4 C58_4 1_555 1_555
H34_4 C62_4 1_555 1_555
C63_4 C64_4 1_555 1_555
C64_4 H35_4 1_555 1_555
C65_4 C63_4 1_555 1_555
H36_4 C65_4 1_555 1_555
C66_4 O18_4 1_555 1_555
C67_4 C60_4 1_555 1_555
H37_4 C67_4 1_555 1_555
C68_4 C64_4 1_555 1_555
H38_4 C68_4 1_555 1_555
C69_4 C67_4 1_555 1_555
C70_4 C68_4 1_555 1_555
C71_4 C65_4 1_555 1_555
H39_4 C71_4 1_555 1_555
C72_4 H40_4 1_555 1_555
C73_4 C74_4 1_555 1_555
C74_4 C69_4 1_555 1_555
H41_4 C74_4 1_555 1_555
C75_4 C80_4 1_555 1_555
C76_4 C60_4 1_555 1_555
H42_4 C76_4 1_555 1_555
C77_4 C72_4 1_555 1_555
C78_4 C77_4 1_555 1_555
H43_4 C78_4 1_555 1_555
C79_4 C78_4 1_555 1_555
H44_4 C79_4 1_555 1_555
C80_4 C79_4 1_555 1_555
C81_4 C72_4 1_555 1_555
H45_4 C81_4 1_555 1_555
O22_7 C83_7 1_555 1_555
O23_4 In1_3 1_555 1_555
O24_4 C93_7 1_555 1_555
O25_7 C93_7 1_555 1_555
O26_7 C102_7 1_555 1_555
O27_7 C102_7 1_555 1_555
C82_7 H46_7 1_555 1_555
C83_7 O23_4 1_555 1_555
C84_7 C82_7 1_555 1_555
C85_7 C84_7 1_555 1_555
H47_7 C85_7 1_555 1_555
C86_7 C82_7 1_555 1_555
H48_7 C86_7 1_555 1_555
C87_7 C88_7 1_555 1_555
C88_7 C86_7 1_555 1_555
C89_7 C85_7 1_555 1_555
H49_7 C89_7 1_555 1_555
C90_7 C91_7 1_555 1_555
C91_7 H50_7 1_555 1_555
C92_7 C90_7 1_555 1_555
H51_7 C92_7 1_555 1_555
C93_7 C90_7 1_555 1_555
C94_7 C87_7 1_555 1_555
H52_7 C94_7 1_555 1_555
C95_7 C91_7 1_555 1_555
H53_7 C95_7 1_555 1_555
C96_7 C94_7 1_555 1_555
C97_7 C95_7 1_555 1_555
C98_7 C92_7 1_555 1_555
H54_7 C98_7 1_555 1_555
C99_7 H55_7 1_555 1_555
C100_7 C101_7 1_555 1_555
C101_7 C96_7 1_555 1_555
H56_7 C101_7 1_555 1_555
C102_7 C107_7 1_555 1_555
C103_7 C87_7 1_555 1_555
H57_7 C103_7 1_555 1_555
C104_7 C99_7 1_555 1_555
C105_7 C104_7 1_555 1_555
H58_7 C105_7 1_555 1_555
C106_7 C105_7 1_555 1_555
H59_7 C106_7 1_555 1_555
C107_7 C106_7 1_555 1_555
C108_7 C99_7 1_555 1_555
H60_7 C108_7 1_555 1_555
O28_3 In1_3 1_555 1_555
O33_3 Mg1_3 1_555 1_555
Mg8_2 O5_10 1_555 1_555
In10_3 O6_10 1_555 1_555
In3_3 O17_4 1_555 1_555
Mg4_3 O21_4 1_555 1_555
Mg7_3 O24_4 1_555 1_555
In8_3 O25_7 1_555 1_555
In10_2 O26_7 1_555 1_555
Mg4_2 O27_7 1_555 1_555
O41_10 In10_3 1_555 1_555
O44_3 Mg7_3 1_555 1_555
O45_4 In8_3 1_555 1_555
O46_4 In8_3 1_555 1_555
O47_7 In8_3 1_555 1_555
O48_5 In8_3 1_555 1_555
Mg1_3 O28_3 1_555 1_555
C3_4 C9_4 1_555 1_555
C5_4 C8_4 1_555 1_555
C24_10 C25_10 1_555 1_555
C25_10 C26_10 1_555 1_555
O19_4 C66_4 1_555 1_555
O20_4 In10_3 1_555 1_555
C61_4 C62_4 1_555 1_555
C63_4 C66_4 1_555 1_555
C69_4 C70_4 1_555 1_555
C70_4 C71_4 1_555 1_555
C73_4 C76_4 1_555 1_555
C73_4 C77_4 1_555 1_555
C80_4 C81_4 1_555 1_555
C83_7 C84_7 1_555 1_555
C88_7 C89_7 1_555 1_555
C96_7 C97_7 1_555 1_555
C97_7 C98_7 1_555 1_555
C100_7 C103_7 1_555 1_555
C100_7 C104_7 1_555 1_555
C107_7 C108_7 1_555 1_555
In8_3 O44_3 1_555 1_555
O11_4 H61_4 1_555 1_555
O11_4 H62_4 1_555 1_555
O10_4 H63_4 1_555 1_555
O10_4 H64_4 1_555 1_555
H26_4 C38_4 1_555 1_555
H28_4 C54_4 1_555 1_555
H21_4 C40_4 1_555 1_555
C41_4 C39_4 1_555 1_555
C42_4 C41_4 1_555 1_555
H22_4 C42_4 1_555 1_555
C43_4 C42_4 1_555 1_555
C44_4 C43_4 1_555 1_555
C45_4 C44_4 1_555 1_555
O45_4 C45_4 1_555 1_555
O13_4 C45_4 1_555 1_555
C46_4 C44_4 1_555 1_555
C47_4 C41_4 1_555 1_555
H23_4 C47_4 1_555 1_555
H24_4 C46_4 1_555 1_555
H25_4 C43_4 1_555 1_555
Mg7_3 O13_4 1_555 1_555
O29_4 Mg7_3 1_555 1_555
O30_4 Mg7_3 1_555 1_555
O37_3 Mg7_3 1_555 1_555
C39_4 C40_4 1_555 1_555
C46_4 C47_4 1_555 1_555
O29_4 H67_4 1_555 1_555
O29_4 H68_4 1_555 1_555
O30_4 H69_4 1_555 1_555
O30_4 H70_4 1_555 1_555
O3_11 C11_11 1_555 1_555
O42_7 C11_11 1_555 1_555
O5_11 C21_11 1_555 1_555
O6_11 C21_11 1_555 1_555
O8_8 C30_11 1_555 1_555
C10_11 H6_11 1_555 1_555
C11_11 C12_11 1_555 1_555
C12_11 C10_11 1_555 1_555
C13_11 C12_11 1_555 1_555
H7_11 C13_11 1_555 1_555
C14_11 C10_11 1_555 1_555
H8_11 C14_11 1_555 1_555
C15_11 C16_11 1_555 1_555
C16_11 C14_11 1_555 1_555
C17_11 C13_11 1_555 1_555
H9_11 C17_11 1_555 1_555
C18_11 C19_11 1_555 1_555
C19_11 H10_11 1_555 1_555
C20_11 C18_11 1_555 1_555
H11_11 C20_11 1_555 1_555
C21_11 C18_11 1_555 1_555
C22_11 C15_11 1_555 1_555
H12_11 C22_11 1_555 1_555
C23_11 C19_11 1_555 1_555
H13_11 C23_11 1_555 1_555
C24_11 C22_11 1_555 1_555
C25_11 C23_11 1_555 1_555
C26_11 C20_11 1_555 1_555
H14_11 C26_11 1_555 1_555
C27_11 H15_11 1_555 1_555
C28_11 C29_11 1_555 1_555
C29_11 C24_11 1_555 1_555
H16_11 C29_11 1_555 1_555
C30_11 O47_7 1_555 1_555
C31_11 C15_11 1_555 1_555
H17_11 C31_11 1_555 1_555
C32_11 C27_11 1_555 1_555
C33_11 C32_11 1_555 1_555
H18_11 C33_11 1_555 1_555
C34_11 C33_11 1_555 1_555
H19_11 C34_11 1_555 1_555
C35_11 C30_11 1_555 1_555
C36_11 C27_11 1_555 1_555
H20_11 C36_11 1_555 1_555
O22_8 C83_8 1_555 1_555
O38_4 C93_8 1_555 1_555
O25_8 C93_8 1_555 1_555
O26_8 C102_8 1_555 1_555
O27_8 C102_8 1_555 1_555
C82_8 H46_8 1_555 1_555
C83_8 O46_4 1_555 1_555
C84_8 C82_8 1_555 1_555
C85_8 C84_8 1_555 1_555
H47_8 C85_8 1_555 1_555
C86_8 C82_8 1_555 1_555
H48_8 C86_8 1_555 1_555
C87_8 C88_8 1_555 1_555
C88_8 C86_8 1_555 1_555
C89_8 C85_8 1_555 1_555
H49_8 C89_8 1_555 1_555
C90_8 C91_8 1_555 1_555
C91_8 H50_8 1_555 1_555
C92_8 C90_8 1_555 1_555
H51_8 C92_8 1_555 1_555
C93_8 C90_8 1_555 1_555
C94_8 C87_8 1_555 1_555
H52_8 C94_8 1_555 1_555
C95_8 C91_8 1_555 1_555
H53_8 C95_8 1_555 1_555
C96_8 C94_8 1_555 1_555
C97_8 C95_8 1_555 1_555
C98_8 C92_8 1_555 1_555
H54_8 C98_8 1_555 1_555
C99_8 H55_8 1_555 1_555
C100_8 C101_8 1_555 1_555
C101_8 C96_8 1_555 1_555
H56_8 C101_8 1_555 1_555
C102_8 C107_8 1_555 1_555
C103_8 C87_8 1_555 1_555
H57_8 C103_8 1_555 1_555
C104_8 C99_8 1_555 1_555
C105_8 C104_8 1_555 1_555
H58_8 C105_8 1_555 1_555
C106_8 C105_8 1_555 1_555
H59_8 C106_8 1_555 1_555
C107_8 C106_8 1_555 1_555
C108_8 C99_8 1_555 1_555
H60_8 C108_8 1_555 1_555
Mg8 O5_11 1_555 1_555
In10_2 O6_11 1_555 1_555
Mg5_8 O8_8 1_555 1_555
In6_8 O48_5 1_555 1_555
In3_3 O25_8 1_555 1_555
In10 O26_8 1_555 1_555
Mg4 O27_8 1_555 1_555
O41_11 In10_2 1_555 1_555
O48_5 Mg5_8 1_555 1_555
C16_11 C17_11 1_555 1_555
C24_11 C25_11 1_555 1_555
C25_11 C26_11 1_555 1_555
C28_11 C31_11 1_555 1_555
C28_11 C32_11 1_555 1_555
C34_11 C35_11 1_555 1_555
C35_11 C36_11 1_555 1_555
C83_8 C84_8 1_555 1_555
C88_8 C89_8 1_555 1_555
C96_8 C97_8 1_555 1_555
C97_8 C98_8 1_555 1_555
C100_8 C103_8 1_555 1_555
C100_8 C104_8 1_555 1_555
C107_8 C108_8 1_555 1_555
O44_3 In6_8 1_555 1_555
O5_12 C21_12 1_555 1_555
O6_12 C21_12 1_555 1_555
C18_12 C19_12 1_555 1_555
C19_12 H10_12 1_555 1_555
C20_12 C18_12 1_555 1_555
H11_12 C20_12 1_555 1_555
C21_12 C18_12 1_555 1_555
C23_12 C19_12 1_555 1_555
H13_12 C23_12 1_555 1_555
C25_12 C23_12 1_555 1_555
C26_12 C20_12 1_555 1_555
H14_12 C26_12 1_555 1_555
C27_12 H15_12 1_555 1_555
C29_12 C24_12 1_555 1_555
H16_12 C29_12 1_555 1_555
C36_12 C27_12 1_555 1_555
H20_12 C36_12 1_555 1_555
Mg6 O5_12 1_555 1_555
In10 O6_12 1_555 1_555
O41_12 In10 1_555 1_555
C24_12 C25_12 1_555 1_555
C25_12 C26_12 1_555 1_555
O3_12 C11_12 1_555 1_555
O42_8 C11_12 1_555 1_555
O8_9 C30_12 1_555 1_555
C10_12 H6_12 1_555 1_555
C11_12 C12_12 1_555 1_555
C12_12 C10_12 1_555 1_555
C13_12 C12_12 1_555 1_555
H7_12 C13_12 1_555 1_555
C14_12 C10_12 1_555 1_555
H8_12 C14_12 1_555 1_555
C15_12 C16_12 1_555 1_555
C16_12 C14_12 1_555 1_555
C17_12 C13_12 1_555 1_555
H9_12 C17_12 1_555 1_555
C22_12 C15_12 1_555 1_555
H12_12 C22_12 1_555 1_555
C30_12 O47_8 1_555 1_555
C31_12 C15_12 1_555 1_555
H17_12 C31_12 1_555 1_555
C33_12 C32_12 1_555 1_555
H18_12 C33_12 1_555 1_555
C34_12 C33_12 1_555 1_555
H19_12 C34_12 1_555 1_555
C35_12 C30_12 1_555 1_555
Mg5_9 O8_9 1_555 1_555
In6_9 O48_6 1_555 1_555
O48_6 Mg5_9 1_555 1_555
C16_12 C17_12 1_555 1_555
C28_12 C31_12 1_555 1_555
C28_12 C32_12 1_555 1_555
C34_12 C35_12 1_555 1_555
O3_13 C11_13 1_555 1_555
O4_5 C11_13 1_555 1_555
O39_3 C30_13 1_555 1_555
C2_5 H1_5 1_555 1_555
C4_5 H3_5 1_555 1_555
C10_13 H6_13 1_555 1_555
C11_13 C12_13 1_555 1_555
C12_13 C10_13 1_555 1_555
C13_13 C12_13 1_555 1_555
H7_13 C13_13 1_555 1_555
C14_13 C10_13 1_555 1_555
H8_13 C14_13 1_555 1_555
C15_13 C16_13 1_555 1_555
C16_13 C14_13 1_555 1_555
C17_13 C13_13 1_555 1_555
H9_13 C17_13 1_555 1_555
C22_13 C15_13 1_555 1_555
H12_13 C22_13 1_555 1_555
C30_13 O7_5 1_555 1_555
C31_13 C15_13 1_555 1_555
H17_13 C31_13 1_555 1_555
C33_13 C32_13 1_555 1_555
H18_13 C33_13 1_555 1_555
C34_13 C33_13 1_555 1_555
H19_13 C34_13 1_555 1_555
C35_13 C30_13 1_555 1_555
C37_5 C2_5 1_555 1_555
C48_5 C37_5 1_555 1_555
C49_5 C48_5 1_555 1_555
H27_5 C49_5 1_555 1_555
C50_5 C49_5 1_555 1_555
C51_5 C50_5 1_555 1_555
C52_5 C51_5 1_555 1_555
O14_5 C52_5 1_555 1_555
O15_5 C52_5 1_555 1_555
C53_5 C51_5 1_555 1_555
H30_5 C50_5 1_555 1_555
In6_7 O14_5 1_555 1_555
Mg5_7 O15_5 1_555 1_555
O31_5 Mg5_7 1_555 1_555
O32_5 Mg5_7 1_555 1_555
In10_4 O4_5 1_555 1_555
O38_5 Mg5_7 1_555 1_555
C16_13 C17_13 1_555 1_555
C28_13 C31_13 1_555 1_555
C28_13 C32_13 1_555 1_555
C34_13 C35_13 1_555 1_555
O31_5 H65_5 1_555 1_555
O31_5 H66_5 1_555 1_555
O32_5 H71_5 1_555 1_555
O32_5 H72_5 1_555 1_555
H26_5 C38_5 1_555 1_555
H28_5 C54_5 1_555 1_555
In6_9 O1_5 1_555 1_555
Mg5_9 O2_5 1_555 1_555
O1_5 C7_5 1_555 1_555
O2_5 C7_5 1_555 1_555
O5_13 C21_13 1_555 1_555
O6_13 C21_13 1_555 1_555
C3_5 H2_5 1_555 1_555
C5_5 C6_5 1_555 1_555
C6_5 C3_5 1_555 1_555
H4_5 C6_5 1_555 1_555
C7_5 C5_5 1_555 1_555
C9_5 C1_5 1_555 1_555
C18_13 C19_13 1_555 1_555
C19_13 H10_13 1_555 1_555
C20_13 C18_13 1_555 1_555
H11_13 C20_13 1_555 1_555
C21_13 C18_13 1_555 1_555
C23_13 C19_13 1_555 1_555
H13_13 C23_13 1_555 1_555
C25_13 C23_13 1_555 1_555
C26_13 C20_13 1_555 1_555
H14_13 C26_13 1_555 1_555
C27_13 H15_13 1_555 1_555
C29_13 C24_13 1_555 1_555
H16_13 C29_13 1_555 1_555
C36_13 C27_13 1_555 1_555
H20_13 C36_13 1_555 1_555
O10_5 Mg5_9 1_555 1_555
O11_5 Mg5_9 1_555 1_555
O16_5 C56_5 1_555 1_555
O17_5 C56_5 1_555 1_555
O18_5 Mg5_9 1_555 1_555
O19_5 In6_9 1_555 1_555
O20_5 C75_5 1_555 1_555
O21_5 C75_5 1_555 1_555
C55_5 H31_5 1_555 1_555
C56_5 C57_5 1_555 1_555
C57_5 C55_5 1_555 1_555
C58_5 C57_5 1_555 1_555
H32_5 C58_5 1_555 1_555
C59_5 C55_5 1_555 1_555
H33_5 C59_5 1_555 1_555
C60_5 C61_5 1_555 1_555
C61_5 C59_5 1_555 1_555
C62_5 C58_5 1_555 1_555
H34_5 C62_5 1_555 1_555
C63_5 C64_5 1_555 1_555
C64_5 H35_5 1_555 1_555
C65_5 C63_5 1_555 1_555
H36_5 C65_5 1_555 1_555
C66_5 O18_5 1_555 1_555
C67_5 C60_5 1_555 1_555
H37_5 C67_5 1_555 1_555
C68_5 C64_5 1_555 1_555
H38_5 C68_5 1_555 1_555
C69_5 C67_5 1_555 1_555
C70_5 C68_5 1_555 1_555
C71_5 C65_5 1_555 1_555
H39_5 C71_5 1_555 1_555
C72_5 H40_5 1_555 1_555
C73_5 C74_5 1_555 1_555
C74_5 C69_5 1_555 1_555
H41_5 C74_5 1_555 1_555
C75_5 C80_5 1_555 1_555
C76_5 C60_5 1_555 1_555
H42_5 C76_5 1_555 1_555
C77_5 C72_5 1_555 1_555
C78_5 C77_5 1_555 1_555
H43_5 C78_5 1_555 1_555
C79_5 C78_5 1_555 1_555
H44_5 C79_5 1_555 1_555
C80_5 C79_5 1_555 1_555
C81_5 C72_5 1_555 1_555
H45_5 C81_5 1_555 1_555
O22_9 C83_9 1_555 1_555
O23_5 In6_9 1_555 1_555
O24_5 C93_9 1_555 1_555
O25_9 C93_9 1_555 1_555
O26_9 C102_9 1_555 1_555
O27_9 C102_9 1_555 1_555
C82_9 H46_9 1_555 1_555
C83_9 O23_5 1_555 1_555
C84_9 C82_9 1_555 1_555
C85_9 C84_9 1_555 1_555
H47_9 C85_9 1_555 1_555
C86_9 C82_9 1_555 1_555
H48_9 C86_9 1_555 1_555
C87_9 C88_9 1_555 1_555
C88_9 C86_9 1_555 1_555
C89_9 C85_9 1_555 1_555
H49_9 C89_9 1_555 1_555
C90_9 C91_9 1_555 1_555
C91_9 H50_9 1_555 1_555
C92_9 C90_9 1_555 1_555
H51_9 C92_9 1_555 1_555
C93_9 C90_9 1_555 1_555
C94_9 C87_9 1_555 1_555
H52_9 C94_9 1_555 1_555
C95_9 C91_9 1_555 1_555
H53_9 C95_9 1_555 1_555
C96_9 C94_9 1_555 1_555
C97_9 C95_9 1_555 1_555
C98_9 C92_9 1_555 1_555
H54_9 C98_9 1_555 1_555
C99_9 H55_9 1_555 1_555
C100_9 C101_9 1_555 1_555
C101_9 C96_9 1_555 1_555
H56_9 C101_9 1_555 1_555
C102_9 C107_9 1_555 1_555
C103_9 C87_9 1_555 1_555
H57_9 C103_9 1_555 1_555
C104_9 C99_9 1_555 1_555
C105_9 C104_9 1_555 1_555
H58_9 C105_9 1_555 1_555
C106_9 C105_9 1_555 1_555
H59_9 C106_9 1_555 1_555
C107_9 C106_9 1_555 1_555
C108_9 C99_9 1_555 1_555
H60_9 C108_9 1_555 1_555
Mg8_4 O5_13 1_555 1_555
In10_6 O6_13 1_555 1_555
In6_7 O17_5 1_555 1_555
Mg4_6 O21_5 1_555 1_555
Mg5_8 O24_5 1_555 1_555
In6_8 O25_9 1_555 1_555
In10_5 O26_9 1_555 1_555
Mg4_5 O27_9 1_555 1_555
O41_13 In10_6 1_555 1_555
O45_5 In6_8 1_555 1_555
O46_5 In6_8 1_555 1_555
O47_9 In6_8 1_555 1_555
C3_5 C9_5 1_555 1_555
C5_5 C8_5 1_555 1_555
C24_13 C25_13 1_555 1_555
C25_13 C26_13 1_555 1_555
O19_5 C66_5 1_555 1_555
O20_5 In10_6 1_555 1_555
C61_5 C62_5 1_555 1_555
C63_5 C66_5 1_555 1_555
C69_5 C70_5 1_555 1_555
C70_5 C71_5 1_555 1_555
C73_5 C76_5 1_555 1_555
C73_5 C77_5 1_555 1_555
C80_5 C81_5 1_555 1_555
C83_9 C84_9 1_555 1_555
C88_9 C89_9 1_555 1_555
C96_9 C97_9 1_555 1_555
C97_9 C98_9 1_555 1_555
C100_9 C103_9 1_555 1_555
C100_9 C104_9 1_555 1_555
C107_9 C108_9 1_555 1_555
O11_5 H61_5 1_555 1_555
O11_5 H62_5 1_555 1_555
O10_5 H63_5 1_555 1_555
O10_5 H64_5 1_555 1_555
H21_5 C40_5 1_555 1_555
C41_5 C39_5 1_555 1_555
C42_5 C41_5 1_555 1_555
H22_5 C42_5 1_555 1_555
C43_5 C42_5 1_555 1_555
C44_5 C43_5 1_555 1_555
C45_5 C44_5 1_555 1_555
O45_5 C45_5 1_555 1_555
O13_5 C45_5 1_555 1_555
C46_5 C44_5 1_555 1_555
C47_5 C41_5 1_555 1_555
H23_5 C47_5 1_555 1_555
H24_5 C46_5 1_555 1_555
H25_5 C43_5 1_555 1_555
Mg5_8 O13_5 1_555 1_555
O29_5 Mg5_8 1_555 1_555
O30_5 Mg5_8 1_555 1_555
C39_5 C40_5 1_555 1_555
C46_5 C47_5 1_555 1_555
O29_5 H67_5 1_555 1_555
O29_5 H68_5 1_555 1_555
O30_5 H69_5 1_555 1_555
O30_5 H70_5 1_555 1_555
O3_14 C11_14 1_555 1_555
O42_9 C11_14 1_555 1_555
O5_14 C21_14 1_555 1_555
O6_14 C21_14 1_555 1_555
O37_3 C30_14 1_555 1_555
C10_14 H6_14 1_555 1_555
C11_14 C12_14 1_555 1_555
C12_14 C10_14 1_555 1_555
C13_14 C12_14 1_555 1_555
H7_14 C13_14 1_555 1_555
C14_14 C10_14 1_555 1_555
H8_14 C14_14 1_555 1_555
C15_14 C16_14 1_555 1_555
C16_14 C14_14 1_555 1_555
C17_14 C13_14 1_555 1_555
H9_14 C17_14 1_555 1_555
C18_14 C19_14 1_555 1_555
C19_14 H10_14 1_555 1_555
C20_14 C18_14 1_555 1_555
H11_14 C20_14 1_555 1_555
C21_14 C18_14 1_555 1_555
C22_14 C15_14 1_555 1_555
H12_14 C22_14 1_555 1_555
C23_14 C19_14 1_555 1_555
H13_14 C23_14 1_555 1_555
C24_14 C22_14 1_555 1_555
C25_14 C23_14 1_555 1_555
C26_14 C20_14 1_555 1_555
H14_14 C26_14 1_555 1_555
C27_14 H15_14 1_555 1_555
C28_14 C29_14 1_555 1_555
C29_14 C24_14 1_555 1_555
H16_14 C29_14 1_555 1_555
C30_14 O47_9 1_555 1_555
C31_14 C15_14 1_555 1_555
H17_14 C31_14 1_555 1_555
C32_14 C27_14 1_555 1_555
C33_14 C32_14 1_555 1_555
H18_14 C33_14 1_555 1_555
C34_14 C33_14 1_555 1_555
H19_14 C34_14 1_555 1_555
C35_14 C30_14 1_555 1_555
C36_14 C27_14 1_555 1_555
H20_14 C36_14 1_555 1_555
O22_10 C83_10 1_555 1_555
O38_5 C93_10 1_555 1_555
O25_10 C93_10 1_555 1_555
O26_10 C102_10 1_555 1_555
O27_10 C102_10 1_555 1_555
C82_10 H46_10 1_555 1_555
C83_10 O46_5 1_555 1_555
C84_10 C82_10 1_555 1_555
C85_10 C84_10 1_555 1_555
H47_10 C85_10 1_555 1_555
C86_10 C82_10 1_555 1_555
H48_10 C86_10 1_555 1_555
C87_10 C88_10 1_555 1_555
C88_10 C86_10 1_555 1_555
C89_10 C85_10 1_555 1_555
H49_10 C89_10 1_555 1_555
C90_10 C91_10 1_555 1_555
C91_10 H50_10 1_555 1_555
C92_10 C90_10 1_555 1_555
H51_10 C92_10 1_555 1_555
C93_10 C90_10 1_555 1_555
C94_10 C87_10 1_555 1_555
H52_10 C94_10 1_555 1_555
C95_10 C91_10 1_555 1_555
H53_10 C95_10 1_555 1_555
C96_10 C94_10 1_555 1_555
C97_10 C95_10 1_555 1_555
C98_10 C92_10 1_555 1_555
H54_10 C98_10 1_555 1_555
C99_10 H55_10 1_555 1_555
C100_10 C101_10 1_555 1_555
C101_10 C96_10 1_555 1_555
H56_10 C101_10 1_555 1_555
C102_10 C107_10 1_555 1_555
C103_10 C87_10 1_555 1_555
H57_10 C103_10 1_555 1_555
C104_10 C99_10 1_555 1_555
C105_10 C104_10 1_555 1_555
H58_10 C105_10 1_555 1_555
C106_10 C105_10 1_555 1_555
H59_10 C106_10 1_555 1_555
C107_10 C106_10 1_555 1_555
C108_10 C99_10 1_555 1_555
H60_10 C108_10 1_555 1_555
Mg8_3 O5_14 1_555 1_555
In10_5 O6_14 1_555 1_555
In6_7 O25_10 1_555 1_555
In10_4 O26_10 1_555 1_555
Mg4_4 O27_10 1_555 1_555
O41_14 In10_5 1_555 1_555
C16_14 C17_14 1_555 1_555
C24_14 C25_14 1_555 1_555
C25_14 C26_14 1_555 1_555
C28_14 C31_14 1_555 1_555
C28_14 C32_14 1_555 1_555
C34_14 C35_14 1_555 1_555
C35_14 C36_14 1_555 1_555
C83_10 C84_10 1_555 1_555
C88_10 C89_10 1_555 1_555
C96_10 C97_10 1_555 1_555
C97_10 C98_10 1_555 1_555
C100_10 C103_10 1_555 1_555
C100_10 C104_10 1_555 1_555
C107_10 C108_10 1_555 1_555
O5_15 C21_15 1_555 1_555
O6_15 C21_15 1_555 1_555
C18_15 C19_15 1_555 1_555
C19_15 H10_15 1_555 1_555
C20_15 C18_15 1_555 1_555
H11_15 C20_15 1_555 1_555
C21_15 C18_15 1_555 1_555
C23_15 C19_15 1_555 1_555
H13_15 C23_15 1_555 1_555
C25_15 C23_15 1_555 1_555
C26_15 C20_15 1_555 1_555
H14_15 C26_15 1_555 1_555
C27_15 H15_15 1_555 1_555
C29_15 C24_15 1_555 1_555
H16_15 C29_15 1_555 1_555
C36_15 C27_15 1_555 1_555
H20_15 C36_15 1_555 1_555
Mg6_2 O5_15 1_555 1_555
In10_4 O6_15 1_555 1_555
O41_15 In10_4 1_555 1_555
C24_15 C25_15 1_555 1_555
C25_15 C26_15 1_555 1_555
O3_15 C11_15 1_555 1_555
O42_10 C11_15 1_555 1_555
O33_3 C30_15 1_555 1_555
C10_15 H6_15 1_555 1_555
C11_15 C12_15 1_555 1_555
C12_15 C10_15 1_555 1_555
C13_15 C12_15 1_555 1_555
H7_15 C13_15 1_555 1_555
C14_15 C10_15 1_555 1_555
H8_15 C14_15 1_555 1_555
C15_15 C16_15 1_555 1_555
C16_15 C14_15 1_555 1_555
C17_15 C13_15 1_555 1_555
H9_15 C17_15 1_555 1_555
C22_15 C15_15 1_555 1_555
H12_15 C22_15 1_555 1_555
C30_15 O47_10 1_555 1_555
C31_15 C15_15 1_555 1_555
H17_15 C31_15 1_555 1_555
C33_15 C32_15 1_555 1_555
H18_15 C33_15 1_555 1_555
C34_15 C33_15 1_555 1_555
H19_15 C34_15 1_555 1_555
C35_15 C30_15 1_555 1_555
C16_15 C17_15 1_555 1_555
C28_15 C31_15 1_555 1_555
C28_15 C32_15 1_555 1_555
C34_15 C35_15 1_555 1_555
O22_11 C83_11 1_555 1_555
O24_6 C93_11 1_555 1_555
O25_11 C93_11 1_555 1_555
O26_11 C102_11 1_555 1_555
O27_11 C102_11 1_555 1_555
C82_11 H46_11 1_555 1_555
C83_11 O23_6 1_555 1_555
C84_11 C82_11 1_555 1_555
C85_11 C84_11 1_555 1_555
H47_11 C85_11 1_555 1_555
C86_11 C82_11 1_555 1_555
H48_11 C86_11 1_555 1_555
C87_11 C88_11 1_555 1_555
C88_11 C86_11 1_555 1_555
C89_11 C85_11 1_555 1_555
H49_11 C89_11 1_555 1_555
C90_11 C91_11 1_555 1_555
C91_11 H50_11 1_555 1_555
C92_11 C90_11 1_555 1_555
H51_11 C92_11 1_555 1_555
C93_11 C90_11 1_555 1_555
C94_11 C87_11 1_555 1_555
H52_11 C94_11 1_555 1_555
C95_11 C91_11 1_555 1_555
H53_11 C95_11 1_555 1_555
C96_11 C94_11 1_555 1_555
C97_11 C95_11 1_555 1_555
C98_11 C92_11 1_555 1_555
H54_11 C98_11 1_555 1_555
C99_11 H55_11 1_555 1_555
C100_11 C101_11 1_555 1_555
C101_11 C96_11 1_555 1_555
H56_11 C101_11 1_555 1_555
C102_11 C107_11 1_555 1_555
C103_11 C87_11 1_555 1_555
H57_11 C103_11 1_555 1_555
C104_11 C99_11 1_555 1_555
C105_11 C104_11 1_555 1_555
H58_11 C105_11 1_555 1_555
C106_11 C105_11 1_555 1_555
H59_11 C106_11 1_555 1_555
C107_11 C106_11 1_555 1_555
C108_11 C99_11 1_555 1_555
H60_11 C108_11 1_555 1_555
Mg5_2 O24_6 1_555 1_555
In6_2 O25_11 1_555 1_555
In10_8 O26_11 1_555 1_555
Mg4_8 O27_11 1_555 1_555
O45_6 In6_2 1_555 1_555
O47_11 In6_2 1_555 1_555
C83_11 C84_11 1_555 1_555
C88_11 C89_11 1_555 1_555
C96_11 C97_11 1_555 1_555
C97_11 C98_11 1_555 1_555
C100_11 C103_11 1_555 1_555
C100_11 C104_11 1_555 1_555
C107_11 C108_11 1_555 1_555
In6_3 O1_6 1_555 1_555
Mg5_3 O2_6 1_555 1_555
O1_6 C7_6 1_555 1_555
O2_6 C7_6 1_555 1_555
O3_16 C11_16 1_555 1_555
O4_6 C11_16 1_555 1_555
O5_16 C21_16 1_555 1_555
O6_16 C21_16 1_555 1_555
O7_6 In6_3 1_555 1_555
O39 C30_16 1_555 1_555
C1_6 C2_6 1_555 1_555
C2_6 H1_6 1_555 1_555
C3_6 H2_6 1_555 1_555
C4_6 H3_6 1_555 1_555
C5_6 C6_6 1_555 1_555
C6_6 C3_6 1_555 1_555
H4_6 C6_6 1_555 1_555
C7_6 C5_6 1_555 1_555
C8_6 C4_6 1_555 1_555
H5_6 C8_6 1_555 1_555
C9_6 C1_6 1_555 1_555
C10_16 H6_16 1_555 1_555
C11_16 C12_16 1_555 1_555
C12_16 C10_16 1_555 1_555
C13_16 C12_16 1_555 1_555
H7_16 C13_16 1_555 1_555
C14_16 C10_16 1_555 1_555
H8_16 C14_16 1_555 1_555
C15_16 C16_16 1_555 1_555
C16_16 C14_16 1_555 1_555
C17_16 C13_16 1_555 1_555
H9_16 C17_16 1_555 1_555
C18_16 C19_16 1_555 1_555
C19_16 H10_16 1_555 1_555
C20_16 C18_16 1_555 1_555
H11_16 C20_16 1_555 1_555
C21_16 C18_16 1_555 1_555
C22_16 C15_16 1_555 1_555
H12_16 C22_16 1_555 1_555
C23_16 C19_16 1_555 1_555
H13_16 C23_16 1_555 1_555
C24_16 C22_16 1_555 1_555
C25_16 C23_16 1_555 1_555
C26_16 C20_16 1_555 1_555
H14_16 C26_16 1_555 1_555
C27_16 H15_16 1_555 1_555
C28_16 C29_16 1_555 1_555
C29_16 C24_16 1_555 1_555
H16_16 C29_16 1_555 1_555
C30_16 O7_6 1_555 1_555
C31_16 C15_16 1_555 1_555
H17_16 C31_16 1_555 1_555
C32_16 C27_16 1_555 1_555
C33_16 C32_16 1_555 1_555
H18_16 C33_16 1_555 1_555
C34_16 C33_16 1_555 1_555
H19_16 C34_16 1_555 1_555
C35_16 C30_16 1_555 1_555
C36_16 C27_16 1_555 1_555
H20_16 C36_16 1_555 1_555
O10_6 Mg5_3 1_555 1_555
O11_6 Mg5_3 1_555 1_555
C37_6 C2_6 1_555 1_555
C38_6 C37_6 1_555 1_555
C39_6 C38_6 1_555 1_555
C40_6 C1_6 1_555 1_555
H21_6 C40_6 1_555 1_555
C41_6 C39_6 1_555 1_555
C42_6 C41_6 1_555 1_555
H22_6 C42_6 1_555 1_555
C43_6 C42_6 1_555 1_555
C44_6 C43_6 1_555 1_555
C45_6 C44_6 1_555 1_555
O45_6 C45_6 1_555 1_555
O13_6 C45_6 1_555 1_555
C46_6 C44_6 1_555 1_555
C47_6 C41_6 1_555 1_555
H23_6 C47_6 1_555 1_555
H24_6 C46_6 1_555 1_555
H25_6 C43_6 1_555 1_555
H26_6 C38_6 1_555 1_555
C48_6 C37_6 1_555 1_555
C49_6 C48_6 1_555 1_555
H27_6 C49_6 1_555 1_555
C50_6 C49_6 1_555 1_555
C51_6 C50_6 1_555 1_555
C52_6 C51_6 1_555 1_555
O14_6 C52_6 1_555 1_555
O15_6 C52_6 1_555 1_555
C53_6 C51_6 1_555 1_555
C54_6 C48_6 1_555 1_555
H28_6 C54_6 1_555 1_555
H29_6 C53_6 1_555 1_555
H30_6 C50_6 1_555 1_555
O18_6 Mg5_3 1_555 1_555
O19_6 In6_3 1_555 1_555
C63_6 C64_6 1_555 1_555
C64_6 H35_6 1_555 1_555
C65_6 C63_6 1_555 1_555
H36_6 C65_6 1_555 1_555
C66_6 O18_6 1_555 1_555
C68_6 C64_6 1_555 1_555
H38_6 C68_6 1_555 1_555
C70_6 C68_6 1_555 1_555
C71_6 C65_6 1_555 1_555
H39_6 C71_6 1_555 1_555
C72_6 H40_6 1_555 1_555
C74_6 C69_6 1_555 1_555
H41_6 C74_6 1_555 1_555
C81_6 C72_6 1_555 1_555
H45_6 C81_6 1_555 1_555
In6 O14_6 1_555 1_555
Mg5_2 O13_6 1_555 1_555
Mg5 O15_6 1_555 1_555
O29_6 Mg5_2 1_555 1_555
O30_6 Mg5_2 1_555 1_555
O31_6 Mg5 1_555 1_555
O32_6 Mg5 1_555 1_555
In10_7 O4_6 1_555 1_555
Mg8_6 O5_16 1_555 1_555
In10_9 O6_16 1_555 1_555
O38_6 Mg5 1_555 1_555
O41_16 In10_9 1_555 1_555
O42_11 In10_9 1_555 1_555
C3_6 C9_6 1_555 1_555
C4_6 C9_6 1_555 1_555
C5_6 C8_6 1_555 1_555
C16_16 C17_16 1_555 1_555
C24_16 C25_16 1_555 1_555
C25_16 C26_16 1_555 1_555
C28_16 C31_16 1_555 1_555
C28_16 C32_16 1_555 1_555
C34_16 C35_16 1_555 1_555
C35_16 C36_16 1_555 1_555
C39_6 C40_6 1_555 1_555
C46_6 C47_6 1_555 1_555
C53_6 C54_6 1_555 1_555
O19_6 C66_6 1_555 1_555
C63_6 C66_6 1_555 1_555
C69_6 C70_6 1_555 1_555
C70_6 C71_6 1_555 1_555
O11_6 H61_6 1_555 1_555
O11_6 H62_6 1_555 1_555
O10_6 H63_6 1_555 1_555
O10_6 H64_6 1_555 1_555
O31_6 H65_6 1_555 1_555
O31_6 H66_6 1_555 1_555
O29_6 H67_6 1_555 1_555
O29_6 H68_6 1_555 1_555
O30_6 H69_6 1_555 1_555
O30_6 H70_6 1_555 1_555
O32_6 H71_6 1_555 1_555
O32_6 H72_6 1_555 1_555
O16_6 C56_6 1_555 1_555
O17_6 C56_6 1_555 1_555
O20_6 C75_6 1_555 1_555
O21_6 C75_6 1_555 1_555
C55_6 H31_6 1_555 1_555
C56_6 C57_6 1_555 1_555
C57_6 C55_6 1_555 1_555
C58_6 C57_6 1_555 1_555
H32_6 C58_6 1_555 1_555
C59_6 C55_6 1_555 1_555
H33_6 C59_6 1_555 1_555
C60_6 C61_6 1_555 1_555
C61_6 C59_6 1_555 1_555
C62_6 C58_6 1_555 1_555
H34_6 C62_6 1_555 1_555
C67_6 C60_6 1_555 1_555
H37_6 C67_6 1_555 1_555
C75_6 C80_6 1_555 1_555
C76_6 C60_6 1_555 1_555
H42_6 C76_6 1_555 1_555
C78_6 C77_6 1_555 1_555
H43_6 C78_6 1_555 1_555
C79_6 C78_6 1_555 1_555
H44_6 C79_6 1_555 1_555
C80_6 C79_6 1_555 1_555
In6 O17_6 1_555 1_555
Mg4_9 O21_6 1_555 1_555
C61_6 C62_6 1_555 1_555
C73_6 C76_6 1_555 1_555
C73_6 C77_6 1_555 1_555
O3_17 C11_17 1_555 1_555
O42_11 C11_17 1_555 1_555
O5_17 C21_17 1_555 1_555
O6_17 C21_17 1_555 1_555
O37 C30_17 1_555 1_555
C10_17 H6_17 1_555 1_555
C11_17 C12_17 1_555 1_555
C12_17 C10_17 1_555 1_555
C13_17 C12_17 1_555 1_555
H7_17 C13_17 1_555 1_555
C14_17 C10_17 1_555 1_555
H8_17 C14_17 1_555 1_555
C15_17 C16_17 1_555 1_555
C16_17 C14_17 1_555 1_555
C17_17 C13_17 1_555 1_555
H9_17 C17_17 1_555 1_555
C18_17 C19_17 1_555 1_555
C19_17 H10_17 1_555 1_555
C20_17 C18_17 1_555 1_555
H11_17 C20_17 1_555 1_555
C21_17 C18_17 1_555 1_555
C22_17 C15_17 1_555 1_555
H12_17 C22_17 1_555 1_555
C23_17 C19_17 1_555 1_555
H13_17 C23_17 1_555 1_555
C24_17 C22_17 1_555 1_555
C25_17 C23_17 1_555 1_555
C26_17 C20_17 1_555 1_555
H14_17 C26_17 1_555 1_555
C27_17 H15_17 1_555 1_555
C28_17 C29_17 1_555 1_555
C29_17 C24_17 1_555 1_555
H16_17 C29_17 1_555 1_555
C30_17 O47_11 1_555 1_555
C31_17 C15_17 1_555 1_555
H17_17 C31_17 1_555 1_555
C32_17 C27_17 1_555 1_555
C33_17 C32_17 1_555 1_555
H18_17 C33_17 1_555 1_555
C34_17 C33_17 1_555 1_555
H19_17 C34_17 1_555 1_555
C35_17 C30_17 1_555 1_555
C36_17 C27_17 1_555 1_555
H20_17 C36_17 1_555 1_555
Mg8_5 O5_17 1_555 1_555
In10_8 O6_17 1_555 1_555
O41_17 In10_8 1_555 1_555
O42_12 In10_8 1_555 1_555
C16_17 C17_17 1_555 1_555
C24_17 C25_17 1_555 1_555
C25_17 C26_17 1_555 1_555
C28_17 C31_17 1_555 1_555
C28_17 C32_17 1_555 1_555
C34_17 C35_17 1_555 1_555
C35_17 C36_17 1_555 1_555
O22_12 C83_12 1_555 1_555
O26_12 C102_12 1_555 1_555
O27_12 C102_12 1_555 1_555
C82_12 H46_12 1_555 1_555
C83_12 O46_6 1_555 1_555
C84_12 C82_12 1_555 1_555
C85_12 C84_12 1_555 1_555
H47_12 C85_12 1_555 1_555
C86_12 C82_12 1_555 1_555
H48_12 C86_12 1_555 1_555
C87_12 C88_12 1_555 1_555
C88_12 C86_12 1_555 1_555
C89_12 C85_12 1_555 1_555
H49_12 C89_12 1_555 1_555
C94_12 C87_12 1_555 1_555
H52_12 C94_12 1_555 1_555
C102_12 C107_12 1_555 1_555
C103_12 C87_12 1_555 1_555
H57_12 C103_12 1_555 1_555
C105_12 C104_12 1_555 1_555
H58_12 C105_12 1_555 1_555
C106_12 C105_12 1_555 1_555
H59_12 C106_12 1_555 1_555
C107_12 C106_12 1_555 1_555
Mg4_7 O27_12 1_555 1_555
C83_12 C84_12 1_555 1_555
C88_12 C89_12 1_555 1_555
C100_12 C103_12 1_555 1_555
C100_12 C104_12 1_555 1_555
O38_6 C93_12 1_555 1_555
O25_12 C93_12 1_555 1_555
C90_12 C91_12 1_555 1_555
C91_12 H50_12 1_555 1_555
C92_12 C90_12 1_555 1_555
H51_12 C92_12 1_555 1_555
C93_12 C90_12 1_555 1_555
C95_12 C91_12 1_555 1_555
H53_12 C95_12 1_555 1_555
C97_12 C95_12 1_555 1_555
C98_12 C92_12 1_555 1_555
H54_12 C98_12 1_555 1_555
C99_12 H55_12 1_555 1_555
C101_12 C96_12 1_555 1_555
H56_12 C101_12 1_555 1_555
C108_12 C99_12 1_555 1_555
H60_12 C108_12 1_555 1_555
In6 O25_12 1_555 1_555
O47_12 In6 1_555 1_555
C96_12 C97_12 1_555 1_555
C97_12 C98_12 1_555 1_555
O3_18 C11_18 1_555 1_555
O42_12 C11_18 1_555 1_555
O5_18 C21_18 1_555 1_555
O6_18 C21_18 1_555 1_555
O33 C30_18 1_555 1_555
C10_18 H6_18 1_555 1_555
C11_18 C12_18 1_555 1_555
C12_18 C10_18 1_555 1_555
C13_18 C12_18 1_555 1_555
H7_18 C13_18 1_555 1_555
C14_18 C10_18 1_555 1_555
H8_18 C14_18 1_555 1_555
C15_18 C16_18 1_555 1_555
C16_18 C14_18 1_555 1_555
C17_18 C13_18 1_555 1_555
H9_18 C17_18 1_555 1_555
C18_18 C19_18 1_555 1_555
C19_18 H10_18 1_555 1_555
C20_18 C18_18 1_555 1_555
H11_18 C20_18 1_555 1_555
C21_18 C18_18 1_555 1_555
C22_18 C15_18 1_555 1_555
H12_18 C22_18 1_555 1_555
C23_18 C19_18 1_555 1_555
H13_18 C23_18 1_555 1_555
C24_18 C22_18 1_555 1_555
C25_18 C23_18 1_555 1_555
C26_18 C20_18 1_555 1_555
H14_18 C26_18 1_555 1_555
C27_18 H15_18 1_555 1_555
C28_18 C29_18 1_555 1_555
C29_18 C24_18 1_555 1_555
H16_18 C29_18 1_555 1_555
C30_18 O47_12 1_555 1_555
C31_18 C15_18 1_555 1_555
H17_18 C31_18 1_555 1_555
C32_18 C27_18 1_555 1_555
C33_18 C32_18 1_555 1_555
H18_18 C33_18 1_555 1_555
C34_18 C33_18 1_555 1_555
H19_18 C34_18 1_555 1_555
C35_18 C30_18 1_555 1_555
C36_18 C27_18 1_555 1_555
H20_18 C36_18 1_555 1_555
Mg6_3 O5_18 1_555 1_555
In10_7 O6_18 1_555 1_555
O41_18 In10_7 1_555 1_555
C16_18 C17_18 1_555 1_555
C24_18 C25_18 1_555 1_555
C25_18 C26_18 1_555 1_555
C28_18 C31_18 1_555 1_555
C28_18 C32_18 1_555 1_555
C34_18 C35_18 1_555 1_555
C35_18 C36_18 1_555 1_555
O30_7 H69_7 1_555 1_555
O30_7 H70_7 1_555 1_555
Mg4 O2_7 1_555 1_555
O41 C7_7 1_555 1_555
O2_7 C7_7 1_555 1_555
C1_7 C2_7 1_555 1_555
C2_7 H1_7 1_555 1_555
C3_7 H2_7 1_555 1_555
C4_7 H3_7 1_555 1_555
C5_7 C6_7 1_555 1_555
C6_7 C3_7 1_555 1_555
H4_7 C6_7 1_555 1_555
C7_7 C5_7 1_555 1_555
C8_7 C4_7 1_555 1_555
H5_7 C8_7 1_555 1_555
C9_7 C1_7 1_555 1_555
O10_7 Mg4 1_555 1_555
O11_7 Mg4 1_555 1_555
C37_7 C2_7 1_555 1_555
C38_7 C37_7 1_555 1_555
C39_7 C38_7 1_555 1_555
C40_7 C1_7 1_555 1_555
H21_7 C40_7 1_555 1_555
C41_7 C39_7 1_555 1_555
C42_7 C41_7 1_555 1_555
H22_7 C42_7 1_555 1_555
C43_7 C42_7 1_555 1_555
C44_7 C43_7 1_555 1_555
C45_7 C44_7 1_555 1_555
O41_2 C45_7 1_555 1_555
O13_7 C45_7 1_555 1_555
C46_7 C44_7 1_555 1_555
C47_7 C41_7 1_555 1_555
H23_7 C47_7 1_555 1_555
H24_7 C46_7 1_555 1_555
H25_7 C43_7 1_555 1_555
H26_7 C38_7 1_555 1_555
C48_7 C37_7 1_555 1_555
C49_7 C48_7 1_555 1_555
H27_7 C49_7 1_555 1_555
C50_7 C49_7 1_555 1_555
C51_7 C50_7 1_555 1_555
C52_7 C51_7 1_555 1_555
O41_3 C52_7 1_555 1_555
O15_7 C52_7 1_555 1_555
C53_7 C51_7 1_555 1_555
C54_7 C48_7 1_555 1_555
H28_7 C54_7 1_555 1_555
H29_7 C53_7 1_555 1_555
H30_7 C50_7 1_555 1_555
Mg4_2 O13_7 1_555 1_555
Mg4_3 O15_7 1_555 1_555
O29_7 Mg4_2 1_555 1_555
O31_7 Mg4_3 1_555 1_555
C3_7 C9_7 1_555 1_555
C4_7 C9_7 1_555 1_555
C5_7 C8_7 1_555 1_555
C39_7 C40_7 1_555 1_555
C46_7 C47_7 1_555 1_555
C53_7 C54_7 1_555 1_555
O11_7 H61_7 1_555 1_555
O11_7 H62_7 1_555 1_555
O10_7 H63_7 1_555 1_555
O10_7 H64_7 1_555 1_555
O31_7 H65_7 1_555 1_555
O29_7 H67_7 1_555 1_555
O32_7 H71_7 1_555 1_555
O32_7 H72_7 1_555 1_555
O30_8 H69_8 1_555 1_555
O30_8 H70_8 1_555 1_555
Mg4_4 O2_8 1_555 1_555
O41_4 C7_8 1_555 1_555
O2_8 C7_8 1_555 1_555
C1_8 C2_8 1_555 1_555
C2_8 H1_8 1_555 1_555
C3_8 H2_8 1_555 1_555
C4_8 H3_8 1_555 1_555
C5_8 C6_8 1_555 1_555
C6_8 C3_8 1_555 1_555
H4_8 C6_8 1_555 1_555
C7_8 C5_8 1_555 1_555
C8_8 C4_8 1_555 1_555
H5_8 C8_8 1_555 1_555
C9_8 C1_8 1_555 1_555
O10_8 Mg4_4 1_555 1_555
O11_8 Mg4_4 1_555 1_555
C37_8 C2_8 1_555 1_555
C38_8 C37_8 1_555 1_555
C39_8 C38_8 1_555 1_555
C40_8 C1_8 1_555 1_555
H21_8 C40_8 1_555 1_555
C41_8 C39_8 1_555 1_555
C42_8 C41_8 1_555 1_555
H22_8 C42_8 1_555 1_555
C43_8 C42_8 1_555 1_555
C44_8 C43_8 1_555 1_555
C45_8 C44_8 1_555 1_555
O41_5 C45_8 1_555 1_555
O13_8 C45_8 1_555 1_555
C46_8 C44_8 1_555 1_555
C47_8 C41_8 1_555 1_555
H23_8 C47_8 1_555 1_555
H24_8 C46_8 1_555 1_555
H25_8 C43_8 1_555 1_555
H26_8 C38_8 1_555 1_555
C48_8 C37_8 1_555 1_555
C49_8 C48_8 1_555 1_555
H27_8 C49_8 1_555 1_555
C50_8 C49_8 1_555 1_555
C51_8 C50_8 1_555 1_555
C52_8 C51_8 1_555 1_555
O41_6 C52_8 1_555 1_555
O15_8 C52_8 1_555 1_555
C53_8 C51_8 1_555 1_555
C54_8 C48_8 1_555 1_555
H28_8 C54_8 1_555 1_555
H29_8 C53_8 1_555 1_555
H30_8 C50_8 1_555 1_555
Mg4_5 O13_8 1_555 1_555
Mg4_6 O15_8 1_555 1_555
O29_8 Mg4_5 1_555 1_555
O31_8 Mg4_6 1_555 1_555
C3_8 C9_8 1_555 1_555
C4_8 C9_8 1_555 1_555
C5_8 C8_8 1_555 1_555
C39_8 C40_8 1_555 1_555
C46_8 C47_8 1_555 1_555
C53_8 C54_8 1_555 1_555
O11_8 H61_8 1_555 1_555
O11_8 H62_8 1_555 1_555
O10_8 H63_8 1_555 1_555
O10_8 H64_8 1_555 1_555
O31_8 H65_8 1_555 1_555
O29_8 H67_8 1_555 1_555
O32_8 H71_8 1_555 1_555
O32_8 H72_8 1_555 1_555
Mg8_4 O2_9 1_555 1_555
O41_13 C7_9 1_555 1_555
O2_9 C7_9 1_555 1_555
C1_9 C2_9 1_555 1_555
C2_9 H1_9 1_555 1_555
C3_9 H2_9 1_555 1_555
C4_9 H3_9 1_555 1_555
C5_9 C6_9 1_555 1_555
C6_9 C3_9 1_555 1_555
H4_9 C6_9 1_555 1_555
C7_9 C5_9 1_555 1_555
C8_9 C4_9 1_555 1_555
H5_9 C8_9 1_555 1_555
C9_9 C1_9 1_555 1_555
O10_9 Mg8_4 1_555 1_555
O11_9 Mg8_4 1_555 1_555
C37_9 C2_9 1_555 1_555
C38_9 C37_9 1_555 1_555
C39_9 C38_9 1_555 1_555
C40_9 C1_9 1_555 1_555
H21_9 C40_9 1_555 1_555
C41_9 C39_9 1_555 1_555
C42_9 C41_9 1_555 1_555
H22_9 C42_9 1_555 1_555
C43_9 C42_9 1_555 1_555
C44_9 C43_9 1_555 1_555
C45_9 C44_9 1_555 1_555
O41_14 C45_9 1_555 1_555
O13_9 C45_9 1_555 1_555
C46_9 C44_9 1_555 1_555
C47_9 C41_9 1_555 1_555
H23_9 C47_9 1_555 1_555
H24_9 C46_9 1_555 1_555
H25_9 C43_9 1_555 1_555
H26_9 C38_9 1_555 1_555
C48_9 C37_9 1_555 1_555
C49_9 C48_9 1_555 1_555
H27_9 C49_9 1_555 1_555
C50_9 C49_9 1_555 1_555
C51_9 C50_9 1_555 1_555
C52_9 C51_9 1_555 1_555
O41_15 C52_9 1_555 1_555
O15_9 C52_9 1_555 1_555
C53_9 C51_9 1_555 1_555
C54_9 C48_9 1_555 1_555
H28_9 C54_9 1_555 1_555
H29_9 C53_9 1_555 1_555
H30_9 C50_9 1_555 1_555
Mg8_3 O13_9 1_555 1_555
Mg6_2 O15_9 1_555 1_555
O29_9 Mg8_3 1_555 1_555
O30_9 Mg8_3 1_555 1_555
O31_9 Mg6_2 1_555 1_555
O32_9 Mg6_2 1_555 1_555
C3_9 C9_9 1_555 1_555
C4_9 C9_9 1_555 1_555
C5_9 C8_9 1_555 1_555
C39_9 C40_9 1_555 1_555
C46_9 C47_9 1_555 1_555
C53_9 C54_9 1_555 1_555
O11_9 H61_9 1_555 1_555
O11_9 H62_9 1_555 1_555
O10_9 H63_9 1_555 1_555
O10_9 H64_9 1_555 1_555
O31_9 H65_9 1_555 1_555
O31_9 H66_9 1_555 1_555
O29_9 H67_9 1_555 1_555
O29_9 H68_9 1_555 1_555
O30_9 H69_9 1_555 1_555
O30_9 H70_9 1_555 1_555
O32_9 H71_9 1_555 1_555
O32_9 H72_9 1_555 1_555
H21_10 C40_10 1_555 1_555
C41_10 C39_10 1_555 1_555
C42_10 C41_10 1_555 1_555
H22_10 C42_10 1_555 1_555
C43_10 C42_10 1_555 1_555
C44_10 C43_10 1_555 1_555
C45_10 C44_10 1_555 1_555
O41_17 C45_10 1_555 1_555
O13_10 C45_10 1_555 1_555
C46_10 C44_10 1_555 1_555
C47_10 C41_10 1_555 1_555
H23_10 C47_10 1_555 1_555
H24_10 C46_10 1_555 1_555
H25_10 C43_10 1_555 1_555
Mg8_5 O13_10 1_555 1_555
O29_10 Mg8_5 1_555 1_555
O30_10 Mg8_5 1_555 1_555
C39_10 C40_10 1_555 1_555
C46_10 C47_10 1_555 1_555
O29_10 H67_10 1_555 1_555
O29_10 H68_10 1_555 1_555
O30_10 H69_10 1_555 1_555
O30_10 H70_10 1_555 1_555
H26_10 C38_10 1_555 1_555
H28_10 C54_10 1_555 1_555
Mg8_6 O2_10 1_555 1_555
O41_16 C7_10 1_555 1_555
O2_10 C7_10 1_555 1_555
C3_10 H2_10 1_555 1_555
C5_10 C6_10 1_555 1_555
C6_10 C3_10 1_555 1_555
H4_10 C6_10 1_555 1_555
C7_10 C5_10 1_555 1_555
C9_10 C1_10 1_555 1_555
O10_10 Mg8_6 1_555 1_555
O11_10 Mg8_6 1_555 1_555
C3_10 C9_10 1_555 1_555
C5_10 C8_10 1_555 1_555
O11_10 H61_10 1_555 1_555
O11_10 H62_10 1_555 1_555
O10_10 H63_10 1_555 1_555
O10_10 H64_10 1_555 1_555
C2_10 H1_10 1_555 1_555
C4_10 H3_10 1_555 1_555
C37_10 C2_10 1_555 1_555
C48_10 C37_10 1_555 1_555
C49_10 C48_10 1_555 1_555
H27_10 C49_10 1_555 1_555
C50_10 C49_10 1_555 1_555
C51_10 C50_10 1_555 1_555
C52_10 C51_10 1_555 1_555
O41_18 C52_10 1_555 1_555
O15_10 C52_10 1_555 1_555
C53_10 C51_10 1_555 1_555
H30_10 C50_10 1_555 1_555
Mg6_3 O15_10 1_555 1_555
O31_10 Mg6_3 1_555 1_555
O32_10 Mg6_3 1_555 1_555
O31_10 H65_10 1_555 1_555
O31_10 H66_10 1_555 1_555
O32_10 H71_10 1_555 1_555
O32_10 H72_10 1_555 1_555
H21_11 C40_11 1_555 1_555
C41_11 C39_11 1_555 1_555
C42_11 C41_11 1_555 1_555
H22_11 C42_11 1_555 1_555
C43_11 C42_11 1_555 1_555
C44_11 C43_11 1_555 1_555
C45_11 C44_11 1_555 1_555
O41_8 C45_11 1_555 1_555
O13_11 C45_11 1_555 1_555
C46_11 C44_11 1_555 1_555
C47_11 C41_11 1_555 1_555
H23_11 C47_11 1_555 1_555
H24_11 C46_11 1_555 1_555
H25_11 C43_11 1_555 1_555
Mg4_8 O13_11 1_555 1_555
O29_11 Mg4_8 1_555 1_555
O30_11 Mg4_8 1_555 1_555
C39_11 C40_11 1_555 1_555
C46_11 C47_11 1_555 1_555
O29_11 H67_11 1_555 1_555
O29_11 H68_11 1_555 1_555
O30_11 H69_11 1_555 1_555
O30_11 H70_11 1_555 1_555
Mg4_7 O2_11 1_555 1_555
O41_7 C7_11 1_555 1_555
O2_11 C7_11 1_555 1_555
C3_11 H2_11 1_555 1_555
C5_11 C6_11 1_555 1_555
C6_11 C3_11 1_555 1_555
H4_11 C6_11 1_555 1_555
C7_11 C5_11 1_555 1_555
C9_11 C1_11 1_555 1_555
O10_11 Mg4_7 1_555 1_555
O11_11 Mg4_7 1_555 1_555
C3_11 C9_11 1_555 1_555
C5_11 C8_11 1_555 1_555
O11_11 H61_11 1_555 1_555
O11_11 H62_11 1_555 1_555
O10_11 H63_11 1_555 1_555
O10_11 H64_11 1_555 1_555
H26_11 C38_11 1_555 1_555
H28_11 C54_11 1_555 1_555
C2_11 H1_11 1_555 1_555
C4_11 H3_11 1_555 1_555
C37_11 C2_11 1_555 1_555
C48_11 C37_11 1_555 1_555
C49_11 C48_11 1_555 1_555
H27_11 C49_11 1_555 1_555
C50_11 C49_11 1_555 1_555
C51_11 C50_11 1_555 1_555
C52_11 C51_11 1_555 1_555
O41_9 C52_11 1_555 1_555
O15_11 C52_11 1_555 1_555
C53_11 C51_11 1_555 1_555
H30_11 C50_11 1_555 1_555
Mg4_9 O15_11 1_555 1_555
O31_11 Mg4_9 1_555 1_555
O32_11 Mg4_9 1_555 1_555
O31_11 H65_11 1_555 1_555
O31_11 H66_11 1_555 1_555
O32_11 H71_11 1_555 1_555
O32_11 H72_11 1_555 1_555
Mg8_2 O2_12 1_555 1_555
O41_10 C7_12 1_555 1_555
O2_12 C7_12 1_555 1_555
C1_12 C2_12 1_555 1_555
C2_12 H1_12 1_555 1_555
C3_12 H2_12 1_555 1_555
C4_12 H3_12 1_555 1_555
C5_12 C6_12 1_555 1_555
C6_12 C3_12 1_555 1_555
H4_12 C6_12 1_555 1_555
C7_12 C5_12 1_555 1_555
C8_12 C4_12 1_555 1_555
H5_12 C8_12 1_555 1_555
C9_12 C1_12 1_555 1_555
O10_12 Mg8_2 1_555 1_555
O11_12 Mg8_2 1_555 1_555
C37_12 C2_12 1_555 1_555
C38_12 C37_12 1_555 1_555
C39_12 C38_12 1_555 1_555
C40_12 C1_12 1_555 1_555
H21_12 C40_12 1_555 1_555
C41_12 C39_12 1_555 1_555
C42_12 C41_12 1_555 1_555
H22_12 C42_12 1_555 1_555
C43_12 C42_12 1_555 1_555
C44_12 C43_12 1_555 1_555
C45_12 C44_12 1_555 1_555
O41_11 C45_12 1_555 1_555
O13_12 C45_12 1_555 1_555
C46_12 C44_12 1_555 1_555
C47_12 C41_12 1_555 1_555
H23_12 C47_12 1_555 1_555
H24_12 C46_12 1_555 1_555
H25_12 C43_12 1_555 1_555
H26_12 C38_12 1_555 1_555
C48_12 C37_12 1_555 1_555
C49_12 C48_12 1_555 1_555
H27_12 C49_12 1_555 1_555
C50_12 C49_12 1_555 1_555
C51_12 C50_12 1_555 1_555
C52_12 C51_12 1_555 1_555
O41_12 C52_12 1_555 1_555
O15_12 C52_12 1_555 1_555
C53_12 C51_12 1_555 1_555
C54_12 C48_12 1_555 1_555
H28_12 C54_12 1_555 1_555
H29_12 C53_12 1_555 1_555
H30_12 C50_12 1_555 1_555
Mg8 O13_12 1_555 1_555
Mg6 O15_12 1_555 1_555
O29_12 Mg8 1_555 1_555
O30_12 Mg8 1_555 1_555
O31_12 Mg6 1_555 1_555
O32_12 Mg6 1_555 1_555
C3_12 C9_12 1_555 1_555
C4_12 C9_12 1_555 1_555
C5_12 C8_12 1_555 1_555
C39_12 C40_12 1_555 1_555
C46_12 C47_12 1_555 1_555
C53_12 C54_12 1_555 1_555
O11_12 H61_12 1_555 1_555
O11_12 H62_12 1_555 1_555
O10_12 H63_12 1_555 1_555
O10_12 H64_12 1_555 1_555
O31_12 H65_12 1_555 1_555
O31_12 H66_12 1_555 1_555
O29_12 H67_12 1_555 1_555
O29_12 H68_12 1_555 1_555
O30_12 H69_12 1_555 1_555
O30_12 H70_12 1_555 1_555
O32_12 H71_12 1_555 1_555
O32_12 H72_12 1_555 1_555

#END
