
###############################################################################
#
# This file contains modified crystal structure data generated from the
# MOF subset of the Cambridge Structural Database (CSD) v543 
# hosted by the Cambridge Crystallographic Data Centre (CCDC).
#
# This work is licensed under the Creative Commons
# Attribution-NonCommercial-ShareAlike 4.0 International License.
# To view a copy of this license, visit
# http://creativecommons.org/licenses/by-nc-sa/4.0/
# or send a letter to
# Creative Commons, PO Box 1866, Mountain View, CA 94042, USA.
#
# CIF created using the CSD Python API on 29 September 2022
# The structure has been converted into the P1 space group
# The structure has a 3D framework
# The original CSD entry WAVRAO is in the rhombohedral crystal system
# The framework has been calculated to contain at least 10.0% void space
# The void calculation uses a probe of radius 1.32A, grid spacing 0.4
# H atom positions have been added when not included in the experimental data
#
###############################################################################

data_WAVRAO
_chemical_formula_moiety         '(C720 H522 In18 Mn18 N18 O178)n'
_symmetry_cell_setting           triclinic
_symmetry_space_group_name_H-M   'P 1'
_symmetry_Int_Tables_number      1
_space_group_name_Hall           'P 1'
loop_
_symmetry_equiv_pos_site_id
_symmetry_equiv_pos_as_xyz
1 x,y,z
_cell_length_a                   36.4998(4)
_cell_length_b                   36.4998(4)
_cell_length_c                   24.1865(7)
_cell_angle_alpha                90
_cell_angle_beta                 90
_cell_angle_gamma                120
_cell_volume                     27905.2
loop_
_atom_site_label
_atom_site_type_symbol
_atom_site_fract_x
_atom_site_fract_y
_atom_site_fract_z
O21 O 0.0865(2) 0.30553(24) 0.3270(3)
O22 O 0.04569(16) 0.27312(25) 0.3953(3)
C77 C 0.01494(16) 0.25949(23) 0.3048(3)
C84 C 0.02215(19) 0.26096(25) 0.2507(3)
H42 H 0.0497 0.2770 0.2375
C85 C 0.0512(2) 0.28019(28) 0.3471(4)
O24 O 0.06186(16) 0.79528(13) 0.30071(14)
O27 O 0.06775(14) 0.75997(10) 0.22862(15)
H51 H 0.0006 0.7209 0.1792
C106 C 0.00520(20) 0.76262(14) 0.23786(19)
C107 C 0.04867(21) 0.77388(15) 0.25750(18)
In6 In 0.105143(14) 0.307012(10) 0.437237(13)
In8 In 0.131465(10) 0.771810(14) 0.229430(13)
Mn5 Mn 0.116383(18) 0.815137(26) 0.35101(2)
Mn9 Mn 0.148470(26) 0.365420(19) 0.31566(2)
O3 O 0.20472(13) 0.26658(10) 0.30071(14)
O6 O 0.24003(10) 0.30778(10) 0.22862(15)
C2 C 0.2910(2) 0.14020(18) 0.0053(2)
H2 H 0.2717 0.1488 0.0145
C3 C 0.30536(18) 0.12411(17) 0.0458(2)
C4 C 0.28624(16) 0.08892(15) 0.1398(2)
H3 H 0.2912 0.0679 0.1263
C5 C 0.21800(16) 0.20227(15) 0.26012(19)
H4 H 0.1980 0.1950 0.2879
C6 C 0.28242(17) 0.15165(16) 0.1247(2)
H5 H 0.2855 0.1732 0.1013
C7 C 0.29159(17) 0.12177(16) 0.1049(2)
C8 C 0.27441(16) 0.05915(18) 0.2883(2)
H6 H 0.2875 0.0867 0.3018
C9 C 0.26656(14) 0.05215(14) 0.2325(2)
C10 C 0.27375(15) 0.08743(15) 0.1939(2)
C12 C 0.27714(15) 0.22354(15) 0.1764(2)
H8 H 0.2973 0.2310 0.1487
C14 C 0.26510(15) 0.11854(15) 0.2130(2)
H9 H 0.2567 0.1177 0.2495
C15 C 0.25771(15) 0.18266(15) 0.19862(19)
C16 C 0.26884(15) 0.15073(16) 0.1783(2)
C17 C 0.22844(16) 0.17251(16) 0.2411(2)
H10 H 0.2157 0.1457 0.2570
C19 C 0.26662(16) 0.25294(14) 0.1952(2)
H11 H 0.2791 0.2797 0.1792
C20 C 0.23738(14) 0.24258(14) 0.23786(19)
C21 C 0.22612(15) 0.27479(14) 0.25750(18)
C31 C 0.26306(18) 0.02572(18) 0.3246(2)
H15 H 0.2679 0.0308 0.3623
C32 C 0.24988(17) 0.01117(18) 0.2133(3)
H16 H 0.2460 0.0057 0.1756
C33 C 0.33299(18) 0.10963(17) 0.0306(2)
H17 H 0.3432 0.0987 0.0574
C59 C 0.85980(18) 0.15080(27) 0.0053(2)
H28 H 0.8512 0.1229 0.0145
C60 C 0.87589(17) 0.18125(25) 0.0458(2)
C61 C 0.91108(15) 0.19732(22) 0.1398(2)
H29 H 0.9321 0.2233 0.1263
C62 C 0.79773(15) 0.01573(22) 0.26012(19)
H30 H 0.8050 0.0030 0.2879
C63 C 0.84835(16) 0.13077(23) 0.1247(2)
H31 H 0.8268 0.1123 0.1013
C64 C 0.87823(16) 0.16982(23) 0.1049(2)
C65 C 0.94085(18) 0.21526(24) 0.2883(2)
H32 H 0.9133 0.2008 0.3018
C66 C 0.94785(14) 0.21441(20) 0.2325(2)
C67 C 0.91257(15) 0.18632(21) 0.1939(2)
C68 C 0.77646(15) 0.05360(21) 0.1764(2)
H33 H 0.7690 0.0663 0.1487
C70 C 0.88146(15) 0.14656(21) 0.2130(2)
H34 H 0.8823 0.1390 0.2495
C71 C 0.81734(15) 0.07505(21) 0.19862(19)
C72 C 0.84927(16) 0.11811(22) 0.1783(2)
C73 C 0.82749(16) 0.05593(23) 0.2411(2)
H35 H 0.8543 0.0700 0.2570
C74 C 0.74706(14) 0.01368(21) 0.1952(2)
C80 C 0.97428(18) 0.23734(25) 0.3246(2)
H38 H 0.9692 0.2371 0.3623
C81 C 0.98883(18) 0.23871(25) 0.2133(3)
H39 H 0.9943 0.2403 0.1756
C82 C 0.89037(17) 0.22336(25) 0.0306(2)
H40 H 0.9013 0.2445 0.0574
O29 O 0.69447(24) 0.78097(14) 0.3270(3)
O30 O 0.72688(25) 0.77257(19) 0.3953(3)
C90 C 0.84920(27) 0.7090(2) 0.0053(2)
H43 H 0.8771 0.7283 0.0145
C91 C 0.81875(25) 0.69464(18) 0.0458(2)
C92 C 0.80268(22) 0.71376(16) 0.1398(2)
H44 H 0.7767 0.7088 0.1263
C93 C 0.98427(22) 0.78200(16) 0.26012(19)
H45 H 0.9970 0.8020 0.2879
C94 C 0.86923(23) 0.71758(17) 0.1247(2)
H46 H 0.8877 0.7145 0.1013
C95 C 0.83018(23) 0.70841(17) 0.1049(2)
C96 C 0.78474(24) 0.72559(16) 0.2883(2)
H47 H 0.7992 0.7125 0.3018
C97 C 0.78559(20) 0.73344(14) 0.2325(2)
C98 C 0.81368(21) 0.72625(15) 0.1939(2)
C99 C 0.94640(21) 0.72286(15) 0.1764(2)
H48 H 0.9337 0.7027 0.1487
C101 C 0.85344(21) 0.73490(15) 0.2130(2)
H49 H 0.8610 0.7433 0.2495
C102 C 0.92495(21) 0.74229(15) 0.19862(19)
C103 C 0.88189(22) 0.73116(15) 0.1783(2)
C104 C 0.94407(23) 0.77156(16) 0.2411(2)
H50 H 0.9300 0.7843 0.2570
C105 C 0.98632(21) 0.73338(16) 0.1952(2)
C108 C 0.74051(23) 0.75545(16) 0.3048(3)
C111 C 0.76266(25) 0.73694(18) 0.3246(2)
H53 H 0.7629 0.7321 0.3623
C112 C 0.76129(25) 0.75012(17) 0.2133(3)
H54 H 0.7597 0.7540 0.1756
C113 C 0.77664(25) 0.66701(18) 0.0306(2)
H55 H 0.7555 0.6568 0.0574
C115 C 0.73904(25) 0.76119(17) 0.2507(3)
H57 H 0.7230 0.7727 0.2375
C116 C 0.71981(28) 0.77101(19) 0.3471(4)
In4 In 0.692988(10) 0.798132(10) 0.437237(13)
In9 In 0.228190(14) 0.359655(10) 0.229430(13)
Mn6 Mn 0.184863(26) 0.301247(19) 0.35101(2)
Mn7 Mn 0.634580(19) 0.783050(18) 0.31566(2)
O9 O 0.21903(14) 0.9135(2) 0.3270(3)
O10 O 0.22743(19) 0.95431(16) 0.3953(3)
C28 C 0.24455(16) 0.98506(16) 0.3048(3)
C35 C 0.23881(17) 0.97785(19) 0.2507(3)
H19 H 0.2273 0.9503 0.2375
C36 C 0.22899(19) 0.9488(2) 0.3471(4)
O16 O 0.73342(10) 0.93814(16) 0.30071(14)
O19 O 0.69222(10) 0.93225(14) 0.22862(15)
H36 H 0.7203 0.9994 0.1792
C75 C 0.75742(14) 0.99480(20) 0.23786(19)
C76 C 0.72521(14) 0.95133(21) 0.25750(18)
In5 In 0.201868(10) 0.894857(14) 0.437237(13)
In7 In 0.640345(10) 0.868535(10) 0.229430(13)
Mn4 Mn 0.698753(19) 0.883617(18) 0.35101(2)
Mn8 Mn 0.216950(18) 0.851530(26) 0.31566(2)
Mn12 Mn 0.481803(26) 0.032087(19) 0.98233(2)
Mn11 Mn 0.550283(18) 0.518197(26) 0.98233(2)
O31 O 0.53805(13) 0.93325(10) 0.96738(14)
O32 O 0.06675(10) 0.60481(16) 0.96738(14)
O33 O 0.39519(16) 0.46195(13) 0.96738(14)
O37 O 0.00622(8) 0.51099(8) 0.94358(11)
O38 O 0.48901(8) 0.49524(11) 0.94358(11)
O39 O 0.50476(11) 0.99378(8) 0.94358(11)
Mn10 Mn 0.967913(19) 0.449717(18) 0.98233(2)
C47 C 0.04396(13) 0.02175(18) 0.42442(19)
O13 O 0.12797(19) 0.24331(10) 0.36675(16)
O14 O 0.09991(13) 0.24649(9) 0.44709(13)
C50 C 0.08107(20) 0.11361(13) 0.3893(2)
H24 H 0.0911 0.0989 0.3689
C51 C 0.03231(19) 0.11420(13) 0.4551(2)
H25 H 0.0092 0.0999 0.4786
C52 C 0.10703(21) 0.22730(13) 0.40969(19)
C53 C 0.10124(22) 0.15721(15) 0.3855(2)
H26 H 0.1243 0.1715 0.3621
C54 C 0.02239(18) 0.04427(12) 0.42431(18)
C55 C 0.05286(21) 0.15831(14) 0.45243(19)
H27 H 0.0438 0.1732 0.4744
C57 C 0.04563(18) 0.09143(12) 0.42345(19)
C58 C 0.08715(20) 0.17998(13) 0.41660(18)
O23 O 0.20862(33) 0.2940(3) 0.4285(2)
O25 O 0.15045(17) 0.33750(13) 0.50859(14)
O26 O 0.08275(16) 0.29955(11) 0.52782(12)
O27_2 O 0.40108(14) 0.42664(10) 0.89529(15)
O28 O 0.16190(11) 0.33956(8) 0.38976(11)
O29_2 O 0.02780(24) 0.44764(14) 0.9937(3)
N3 N 0.2536(4) 0.3072(3) 0.4969(2)
C90_2 C 0.18253(27) 0.3757(2) 0.6720(2)
H43_2 H 0.2104 0.3950 0.6812
C91_2 C 0.15208(25) 0.36131(18) 0.7125(2)
C92_2 C 0.13601(22) 0.38043(16) 0.8065(2)
H44_2 H 0.1100 0.3755 0.7930
C93_2 C 0.31760(22) 0.44867(16) 0.92679(19)
H45_2 H 0.3303 0.4687 0.9546
C94_2 C 0.20256(23) 0.38425(17) 0.7914(2)
H46_2 H 0.2210 0.3812 0.7680
C95_2 C 0.16351(23) 0.37508(17) 0.7716(2)
C96_2 C 0.11807(24) 0.39226(16) 0.9550(2)
H47_2 H 0.1325 0.3792 0.9685
C97_2 C 0.11892(20) 0.40011(14) 0.8992(2)
C98_2 C 0.14701(21) 0.39292(15) 0.8606(2)
C99_2 C 0.27973(21) 0.38953(15) 0.8431(2)
H48_2 H 0.2670 0.3694 0.8154
C100 C 0.12001(22) 0.32282(15) 0.5424(2)
C101_2 C 0.18677(21) 0.40157(15) 0.8797(2)
H49_2 H 0.1943 0.4100 0.9162
C102_2 C 0.25828(21) 0.40896(15) 0.86529(19)
C103_2 C 0.21522(22) 0.39783(15) 0.8450(2)
C104_2 C 0.27740(23) 0.43823(16) 0.9078(2)
H50_2 H 0.2633 0.4510 0.9237
C105_2 C 0.31965(21) 0.40005(16) 0.8619(2)
H51_2 H 0.3339 0.3876 0.8459
C106_2 C 0.33853(20) 0.42929(14) 0.90453(19)
C107_2 C 0.38200(21) 0.44055(15) 0.92417(18)
C108_2 C 0.07384(23) 0.42212(16) 0.9715(3)
C109 C 0.13022(24) 0.33522(17) 0.6026(2)
C110 C 0.09942(24) 0.32129(17) 0.6421(2)
H52 H 0.0713 0.3036 0.6323
C111_2 C 0.09599(25) 0.40361(18) 0.9913(2)
C112_2 C 0.09462(25) 0.41679(17) 0.8800(3)
H54_2 H 0.0930 0.4207 0.8423
C113_2 C 0.10997(25) 0.33368(18) 0.6973(2)
H55_2 H 0.0888 0.3235 0.7241
C114 C 0.17263(27) 0.3621(2) 0.6177(2)
H56 H 0.1939 0.3707 0.5914
C115_2 C 0.07237(25) 0.42786(17) 0.9174(3)
H57_2 H 0.0563 0.4394 0.9042
C117 C 0.2950(6) 0.3125(4) 0.5186(5)
C118 C 0.2334(4) 0.2891(3) 0.4481(4)
C119 C 0.2358(4) 0.3271(3) 0.5290(4)
C120 C 0.2640(6) 0.2781(4) 0.4097(6)
In8_2 In 0.464798(10) 0.438477(14) 0.896097(13)
O34 O 0.09330(10) 0.35889(10) 0.43805(15)
O39_2 O 0.17143(11) 0.32711(8) 0.27691(11)
O41 O 0.2468(2) 0.36114(24) 0.3397(3)
H65 H 0.0784137 0.0387785 0.42459
H79 H 0.257969 0.360965 0.530788
H80 H 0.206387 0.321423 0.510031
H81 H 0.22952 0.314044 0.57065
H82 H 0.281557 0.303741 0.380489
H83 H 0.286154 0.274406 0.436086
H84 H 0.244596 0.248789 0.387068
H85 H 0.320397 0.33155 0.489668
H86 H 0.302081 0.328141 0.558644
H87 H 0.292325 0.281512 0.522956
O11 O 0.11533(16) 0.87203(19) 0.36675(16)
O12 O 0.14657(10) 0.90009(13) 0.44709(13)
C41 C 0.03253(15) 0.91893(20) 0.3893(2)
H20 H 0.0077 0.9089 0.3689
C42 C 0.08188(14) 0.96769(19) 0.4551(2)
H21 H 0.0906 0.9908 0.4786
C43 C 0.12026(16) 0.89297(21) 0.40969(19)
C44 C 0.05596(16) 0.89876(22) 0.3855(2)
H22 H 0.0471 0.8757 0.3621
C45 C 0.02187(13) 0.97761(18) 0.42431(18)
C46 C 0.10544(15) 0.94714(21) 0.45243(19)
H23 H 0.1293 0.9562 0.4744
C48 C 0.04579(13) 0.95437(18) 0.42345(19)
C49 C 0.09282(15) 0.91285(20) 0.41660(18)
O15 O 0.08534(14) 0.79138(33) 0.4285(2)
O17 O 0.18704(11) 0.84955(17) 0.50859(14)
O18 O 0.21679(11) 0.91725(16) 0.52782(12)
O19_2 O 0.02555(10) 0.59892(14) 0.89529(15)
O20 O 0.17765(8) 0.83810(11) 0.38976(11)
O21_2 O 0.4198(2) 0.97220(24) 0.9937(3)
N2 N 0.0535(2) 0.7464(4) 0.4969(2)
C59_2 C 0.19313(18) 0.81747(27) 0.6720(2)
H28_2 H 0.1845 0.7896 0.6812
C60_2 C 0.20922(17) 0.84792(25) 0.7125(2)
C61_2 C 0.24441(15) 0.86399(22) 0.8065(2)
H29_2 H 0.2654 0.8900 0.7930
C62_2 C 0.13106(15) 0.68240(22) 0.92679(19)
H30_2 H 0.1383 0.6697 0.9546
C63_2 C 0.18168(16) 0.79744(23) 0.7914(2)
H31_2 H 0.1601 0.7790 0.7680
C64_2 C 0.21156(16) 0.83649(23) 0.7716(2)
C65_2 C 0.27418(18) 0.88193(24) 0.9550(2)
H32_2 H 0.2466 0.8675 0.9685
C66_2 C 0.28118(14) 0.88108(20) 0.8992(2)
C67_2 C 0.24590(15) 0.85299(21) 0.8606(2)
C68_2 C 0.10979(15) 0.72027(21) 0.8431(2)
H33_2 H 0.1023 0.7330 0.8154
C69 C 0.20280(16) 0.87999(22) 0.5424(2)
C70_2 C 0.21479(15) 0.81323(21) 0.8797(2)
H34_2 H 0.2156 0.8057 0.9162
C71_2 C 0.15067(15) 0.74172(21) 0.86529(19)
C72_2 C 0.18260(16) 0.78478(22) 0.8450(2)
C73_2 C 0.16082(16) 0.72260(23) 0.9078(2)
H35_2 H 0.1876 0.7367 0.9237
C74_2 C 0.08039(14) 0.68035(21) 0.8619(2)
H36_2 H 0.0536 0.6661 0.8459
C75_2 C 0.09075(14) 0.66147(20) 0.90453(19)
C76_2 C 0.05854(14) 0.61800(21) 0.92417(18)
C77_2 C 0.34827(16) 0.92616(23) 0.9715(3)
C78 C 0.20499(17) 0.86978(24) 0.6026(2)
C79 C 0.22186(17) 0.90058(24) 0.6421(2)
H37 H 0.2322 0.9287 0.6323
C80_2 C 0.30761(18) 0.90401(25) 0.9913(2)
C81_2 C 0.32216(18) 0.90538(25) 0.8800(3)
H39_2 H 0.3276 0.9070 0.8423
C82_2 C 0.22370(17) 0.89003(25) 0.6973(2)
H40_2 H 0.2346 0.9112 0.7241
C83 C 0.18943(18) 0.82737(27) 0.6177(2)
H41 H 0.1767 0.8061 0.5914
C84_2 C 0.35548(19) 0.92763(25) 0.9174(3)
H42_2 H 0.3830 0.9437 0.9042
C86 C 0.0174(4) 0.7050(6) 0.5186(5)
C87 C 0.0556(3) 0.7666(4) 0.4481(4)
C88 C 0.0912(3) 0.7642(4) 0.5290(4)
C89 C 0.0140(4) 0.7360(6) 0.4097(6)
O36 O 0.26558(14) 0.90670(10) 0.43805(15)
O38_2 O 0.15568(8) 0.82857(11) 0.27691(11)
O40 O 0.11430(14) 0.7532(2) 0.3397(3)
H70 H 0.0221841 0.718443 0.380489
H72 H 0.00419332 0.755404 0.387068
H73 H 0.0111535 0.679603 0.489668
H74 H 0.02606 0.697919 0.558644
H76 H 0.102996 0.742031 0.530788
H77 H 0.115035 0.793613 0.510031
H78 H 0.0845241 0.77048 0.57065
C56 C 0.97825(18) 0.02222(13) 0.42442(19)
In9_2 In 0.561523(14) 0.026322(10) 0.896097(13)
H61 H 0.718488 0.0108133 0.522956
H63 H 0.725594 0.0117476 0.436086
H69 H 0.961221 0.0396352 0.42459
O1 O 0.75669(10) 0.88467(16) 0.36675(16)
O2 O 0.7060(3) 0.91466(14) 0.4285(2)
O4 O 0.66250(13) 0.81296(11) 0.50859(14)
O5 O 0.70045(11) 0.78321(11) 0.52782(12)
O6_2 O 0.57336(10) 0.97445(10) 0.89529(15)
O7 O 0.75351(9) 0.85343(10) 0.44709(13)
O8 O 0.66044(8) 0.82235(8) 0.38976(11)
O9_2 O 0.55236(14) 0.5802(2) 0.9937(3)
N1 N 0.6928(3) 0.9465(2) 0.4969(2)
C1 C 0.88639(13) 0.96747(15) 0.3893(2)
H1 H 0.9011 0.9923 0.3689
C2_2 C 0.6243(2) 0.80687(18) 0.6720(2)
H2_2 H 0.6050 0.8155 0.6812
C3_2 C 0.63869(18) 0.79078(17) 0.7125(2)
C4_2 C 0.61957(16) 0.75559(15) 0.8065(2)
H3_2 H 0.6245 0.7346 0.7930
C5_2 C 0.55133(16) 0.86894(15) 0.92679(19)
H4_2 H 0.5313 0.8617 0.9546
C6_2 C 0.61575(17) 0.81832(16) 0.7914(2)
H5_2 H 0.6188 0.8399 0.7680
C7_2 C 0.62492(17) 0.78844(16) 0.7716(2)
C8_2 C 0.60774(16) 0.72582(18) 0.9550(2)
H6_2 H 0.6208 0.7534 0.9685
C9_2 C 0.59989(14) 0.71882(14) 0.8992(2)
C10_2 C 0.60708(15) 0.75410(15) 0.8606(2)
C11 C 0.88580(13) 0.91812(14) 0.4551(2)
H7 H 0.9001 0.9094 0.4786
C12_2 C 0.61047(15) 0.89021(15) 0.8431(2)
H8_2 H 0.6306 0.8977 0.8154
C13 C 0.67718(15) 0.79720(16) 0.5424(2)
C14_2 C 0.59843(15) 0.78521(15) 0.8797(2)
H9_2 H 0.5900 0.7844 0.9162
C15_2 C 0.59104(15) 0.84933(15) 0.86529(19)
C16_2 C 0.60217(15) 0.81740(16) 0.8450(2)
C17_2 C 0.56177(16) 0.83918(16) 0.9078(2)
H10_2 H 0.5490 0.8124 0.9237
C18 C 0.77270(13) 0.87974(16) 0.40969(19)
C19_2 C 0.59995(16) 0.91961(14) 0.8619(2)
H11_2 H 0.6124 0.9464 0.8459
C20_2 C 0.57071(14) 0.90925(14) 0.90453(19)
C21_2 C 0.55945(15) 0.94146(14) 0.92417(18)
C22 C 0.84279(15) 0.94404(16) 0.3855(2)
H12 H 0.8285 0.9529 0.3621
C23 C 0.95573(12) 0.97813(13) 0.42431(18)
C24 C 0.84169(14) 0.89456(15) 0.45243(19)
H13 H 0.8268 0.8707 0.4744
C25 C 0.97778(13) 0.95604(13) 0.42442(19)
C26 C 0.90857(12) 0.95421(13) 0.42345(19)
C27 C 0.82002(13) 0.90718(15) 0.41660(18)
C28_2 C 0.57788(16) 0.65173(16) 0.9715(3)
C29 C 0.66478(17) 0.79501(17) 0.6026(2)
C30 C 0.67871(17) 0.77814(17) 0.6421(2)
H14 H 0.6964 0.7678 0.6323
C31_2 C 0.59639(18) 0.69239(18) 0.9913(2)
C32_2 C 0.58321(17) 0.67784(18) 0.8800(3)
H16_2 H 0.5793 0.6724 0.8423
C33_2 C 0.66632(18) 0.77630(17) 0.6973(2)
H17_2 H 0.6765 0.7654 0.7241
C34 C 0.6379(2) 0.81057(18) 0.6177(2)
H18 H 0.6293 0.8233 0.5914
C35_2 C 0.57214(17) 0.64452(19) 0.9174(3)
H19_2 H 0.5606 0.6170 0.9042
C37 C 0.6875(4) 0.9826(4) 0.5186(5)
C38 C 0.7109(3) 0.9444(3) 0.4481(4)
C39 C 0.6729(3) 0.9088(3) 0.5290(4)
C40 C 0.7219(4) 0.9860(4) 0.4097(6)
In7_2 In 0.973678(10) 0.535202(10) 0.896097(13)
O35 O 0.64111(10) 0.73442(14) 0.43805(15)
O37_2 O 0.67289(8) 0.84432(8) 0.27691(11)
O42 O 0.63886(24) 0.88570(14) 0.3397(3)
H58 H 0.960365 0.921586 0.42459
H59 H 0.66845 0.988847 0.489668
H60 H 0.671859 0.97394 0.558644
H62 H 0.696259 0.977816 0.380489
H64 H 0.751211 0.995807 0.387068
H66 H 0.639035 0.897004 0.530788
H67 H 0.678577 0.884965 0.510031
H68 H 0.685956 0.915476 0.57065
H71 H 0.988252 0.713846 0.436086
H75 H 0.989187 0.707675 0.522956
O1_2 O 0.57664(10) 0.78200(16) 0.29992(16)
O2_2 O 0.6273(3) 0.75201(14) 0.2382(2)
O4_2 O 0.67083(13) 0.85371(11) 0.15808(14)
O5_2 O 0.63288(11) 0.88346(11) 0.13885(12)
O7_2 O 0.57982(9) 0.81324(10) 0.21958(13)
N1_2 N 0.6405(3) 0.7202(2) 0.1698(2)
C1_2 C 0.44694(13) 0.69920(15) 0.2774(2)
H1_2 H 0.4322 0.6744 0.2978
C11_2 C 0.44753(13) 0.74855(14) 0.2116(2)
H7_2 H 0.4332 0.7573 0.1881
C13_2 C 0.65615(15) 0.86947(16) 0.1243(2)
C18_2 C 0.56063(13) 0.78693(16) 0.25698(19)
C22_2 C 0.49054(15) 0.72263(16) 0.2812(2)
H12_2 H 0.5048 0.7138 0.3046
C23_2 C 0.37760(12) 0.68854(13) 0.24236(18)
C24_2 C 0.49164(14) 0.77211(15) 0.21424(19)
H13_2 H 0.5065 0.7960 0.1923
C25_2 C 0.35555(13) 0.71063(13) 0.24225(19)
C26_2 C 0.42476(12) 0.71246(13) 0.24322(19)
C27_2 C 0.51331(13) 0.75949(15) 0.25007(18)
C29_2 C 0.66855(17) 0.87166(17) 0.0641(2)
C30_2 C 0.65462(17) 0.88853(17) 0.0246(2)
H14_2 H 0.6369 0.8989 0.0344
C34_2 C 0.6954(2) 0.85610(18) 0.0490(2)
H18_2 H 0.7040 0.8434 0.0753
C37_2 C 0.6458(4) 0.6841(4) 0.1481(5)
C38_2 C 0.6224(3) 0.7223(3) 0.2186(4)
C39_2 C 0.6604(3) 0.7579(3) 0.1377(4)
C40_2 C 0.6114(4) 0.6807(4) 0.2570(6)
O11_2 O 0.21800(16) 0.79464(19) 0.29992(16)
O12_2 O 0.18676(10) 0.76658(13) 0.21958(13)
C41_2 C 0.30080(15) 0.74774(20) 0.2774(2)
H20_2 H 0.3256 0.7578 0.2978
C42_2 C 0.25145(14) 0.69898(19) 0.2116(2)
H21_2 H 0.2427 0.6759 0.1881
C43_2 C 0.21307(16) 0.77370(21) 0.25698(19)
C44_2 C 0.27737(16) 0.76791(22) 0.2812(2)
H22_2 H 0.2862 0.7910 0.3046
C45_2 C 0.31146(13) 0.68906(18) 0.24236(18)
C46_2 C 0.22789(15) 0.71953(21) 0.21424(19)
H23_2 H 0.2040 0.7105 0.1923
C47_2 C 0.28937(13) 0.64492(18) 0.24225(19)
C48_2 C 0.28754(13) 0.71230(18) 0.24322(19)
C49_2 C 0.24051(15) 0.75382(20) 0.25007(18)
O13_2 O 0.20536(19) 0.42336(10) 0.29992(16)
O14_2 O 0.23342(13) 0.42018(9) 0.21958(13)
C50_2 C 0.25226(20) 0.55306(13) 0.2774(2)
H24_2 H 0.2422 0.5678 0.2978
C51_2 C 0.30102(19) 0.55247(13) 0.2116(2)
H25_2 H 0.3241 0.5668 0.1881
C52_2 C 0.22630(21) 0.43937(13) 0.25698(19)
C53_2 C 0.23209(22) 0.50946(15) 0.2812(2)
H26_2 H 0.2090 0.4952 0.3046
C54_2 C 0.31094(18) 0.62240(12) 0.24236(18)
C55_2 C 0.28047(21) 0.50836(14) 0.21424(19)
H27_2 H 0.2895 0.4935 0.1923
C56_2 C 0.35508(18) 0.64445(13) 0.24225(19)
C57_2 C 0.28770(18) 0.57524(12) 0.24322(19)
C58_2 C 0.24618(20) 0.48669(13) 0.25007(18)
O15_2 O 0.24799(14) 0.87529(33) 0.2382(2)
O17_2 O 0.14629(11) 0.81712(17) 0.15808(14)
O18_2 O 0.11654(11) 0.74942(16) 0.13885(12)
N2_2 N 0.2798(2) 0.9203(4) 0.1698(2)
C69_2 C 0.13053(16) 0.78668(22) 0.1243(2)
C78_2 C 0.12834(17) 0.79689(24) 0.0641(2)
C79_2 C 0.11147(17) 0.76609(24) 0.0246(2)
H37_2 H 0.1011 0.7380 0.0344
C83_2 C 0.14390(18) 0.83930(27) 0.0490(2)
H41_2 H 0.1566 0.8606 0.0753
C86_2 C 0.3159(4) 0.9617(6) 0.1481(5)
C87_2 C 0.2777(3) 0.9001(4) 0.2186(4)
C88_2 C 0.2421(3) 0.9025(4) 0.1377(4)
C89_2 C 0.3193(4) 0.9307(6) 0.2570(6)
O23_2 O 0.12471(33) 0.3727(3) 0.2382(2)
O25_2 O 0.18288(17) 0.32917(13) 0.15808(14)
O26_2 O 0.25058(16) 0.36712(11) 0.13885(12)
N3_2 N 0.0797(4) 0.3595(3) 0.1698(2)
C100_2 C 0.21332(22) 0.34385(15) 0.1243(2)
C109_2 C 0.20311(24) 0.33145(17) 0.0641(2)
C110_2 C 0.23391(24) 0.34538(17) 0.0246(2)
H52_2 H 0.2620 0.3631 0.0344
C114_2 C 0.16070(27) 0.3046(2) 0.0490(2)
H56_2 H 0.1394 0.2960 0.0753
C117_2 C 0.0383(6) 0.3542(4) 0.1481(5)
C118_2 C 0.0999(4) 0.3776(3) 0.2186(4)
C119_2 C 0.0975(4) 0.3396(3) 0.1377(4)
C120_2 C 0.0693(6) 0.3886(4) 0.2570(6)
O31_2 O 0.12861(13) 0.40009(10) 0.36596(14)
O32_2 O 0.59991(10) 0.72853(16) 0.36596(14)
O33_2 O 0.27147(16) 0.87139(13) 0.36596(14)
O43 O 0.10590(19) 0.71236(16) 0.2714(3)
O44 O 0.28764(16) 0.39355(25) 0.2714(3)
O45 O 0.60645(25) 0.89410(19) 0.2714(3)
H58_2 H 0.372969 0.74508 0.242076
H59_2 H 0.664884 0.67782 0.176999
H60_2 H 0.661474 0.692727 0.108022
H61_2 H 0.614845 0.655853 0.14371
H62_2 H 0.637074 0.688851 0.286178
H63_2 H 0.60774 0.654919 0.230581
H64_2 H 0.582122 0.67086 0.279599
H65_2 H 0.25492 0.627888 0.242076
H66_2 H 0.694298 0.769663 0.135879
H67_2 H 0.654756 0.781702 0.156636
H68_2 H 0.647377 0.751191 0.0960167
H69_2 H 0.372112 0.627031 0.242076
H70_2 H 0.311149 0.948224 0.286178
H71_2 H 0.345081 0.952821 0.230581
H72_2 H 0.32914 0.911262 0.279599
H73_2 H 0.32218 0.987063 0.176999
H74_2 H 0.307273 0.968747 0.108022
H75_2 H 0.344147 0.958992 0.14371
H76_2 H 0.230337 0.924636 0.135879
H77_2 H 0.218298 0.873054 0.156636
H78_2 H 0.248809 0.896186 0.0960167
H79_2 H 0.0753643 0.305702 0.135879
H80_2 H 0.126946 0.345244 0.156636
H81_2 H 0.103814 0.352623 0.0960167
H82_2 H 0.0517763 0.362926 0.286178
H83_2 H 0.0471794 0.39226 0.230581
H84_2 H 0.0887378 0.417878 0.279599
H85_2 H 0.0129366 0.335116 0.176999
H86_2 H 0.0312527 0.338526 0.108022
H87_2 H 0.0410084 0.385155 0.14371
O4_3 O 0.00416(13) 0.52038(11) 0.82475(14)
C2_3 C 0.0423(2) 0.52647(18) 0.6614(2)
H2_3 H 0.0616 0.5179 0.6522
C3_3 C 0.02797(18) 0.54256(17) 0.6209(2)
C4_3 C 0.04709(16) 0.57775(15) 0.5269(2)
H3_3 H 0.0421 0.5988 0.5404
C5_3 C 0.11533(16) 0.46440(15) 0.40655(19)
H4_3 H 0.1353 0.4717 0.3788
C6_3 C 0.05091(17) 0.51502(16) 0.5420(2)
H5_3 H 0.0478 0.4935 0.5654
C7_3 C 0.04174(17) 0.54490(16) 0.5618(2)
C8_3 C 0.05892(16) 0.60752(18) 0.3784(2)
H6_3 H 0.0458 0.5800 0.3649
C9_3 C 0.06677(14) 0.61452(14) 0.4342(2)
C10_3 C 0.05958(15) 0.57924(15) 0.4728(2)
C12_3 C 0.05619(15) 0.44313(15) 0.4903(2)
H8_3 H 0.0360 0.4357 0.5180
C14_3 C 0.06823(15) 0.54813(15) 0.4537(2)
H9_3 H 0.0766 0.5490 0.4172
C15_3 C 0.07562(15) 0.48401(15) 0.46805(19)
C16_3 C 0.06449(15) 0.51594(16) 0.4884(2)
C17_3 C 0.10489(16) 0.49416(16) 0.4256(2)
H10_3 H 0.1176 0.5210 0.4097
C19_3 C 0.06671(16) 0.41373(14) 0.4715(2)
H11_3 H 0.0542 0.3870 0.4875
C20_3 C 0.09595(14) 0.42409(14) 0.42881(19)
C21_3 C 0.10721(15) 0.39188(14) 0.40917(18)
C28_3 C 0.08878(16) 0.68161(16) 0.3619(3)
C29_3 C 0.00188(17) 0.53833(17) 0.7308(2)
C31_3 C 0.07027(18) 0.64095(18) 0.3421(2)
H15_2 H 0.0654 0.6359 0.3044
C32_3 C 0.08345(17) 0.65550(18) 0.4534(3)
H16_3 H 0.0873 0.6610 0.4911
C33_3 C 0.00034(18) 0.55704(17) 0.6361(2)
C34_3 C 0.0287(2) 0.52277(18) 0.7157(2)
H18_3 H 0.0373 0.5101 0.7420
C35_3 C 0.09452(17) 0.68882(19) 0.4160(3)
H19_3 H 0.1060 0.7164 0.4292
C36_2 C 0.10434(19) 0.7179(2) 0.3196(4)
H66_3 H 0.0276315 0.436329 0.802545
O1_3 O 0.90997(10) 0.44867(16) 0.96659(16)
O2_3 O 0.9606(3) 0.41868(14) 0.9049(2)
O5_3 O 0.96621(11) 0.55013(11) 0.80552(12)
O7_3 O 0.91315(9) 0.47991(10) 0.88625(13)
N1_3 N 0.9738(3) 0.3869(2) 0.8365(2)
C1_3 C 0.78027(13) 0.36587(15) 0.9441(2)
H1_3 H 0.7655 0.3411 0.9645
C11_3 C 0.78086(13) 0.41522(14) 0.8783(2)
H7_3 H 0.7665 0.4240 0.8548
C13_3 C 0.98948(15) 0.53614(16) 0.7910(2)
C18_3 C 0.89396(13) 0.45360(16) 0.92365(19)
C22_3 C 0.82387(15) 0.38930(16) 0.9479(2)
H12_3 H 0.8381 0.3805 0.9713
C23_3 C 0.71093(12) 0.35521(13) 0.90903(18)
C24_3 C 0.82497(14) 0.43878(15) 0.88091(19)
H13_3 H 0.8398 0.4627 0.8590
C25_3 C 0.68888(13) 0.37730(13) 0.90892(19)
C26_3 C 0.75809(12) 0.37913(13) 0.90989(19)
C27_3 C 0.84664(13) 0.42616(15) 0.91674(18)
C30_3 C 0.98795(17) 0.55520(17) 0.6913(2)
H14_3 H 0.9702 0.5656 0.7011
H17_3 H 0.9901 0.5680 0.6093
C37_3 C 0.9791(4) 0.3508(4) 0.8148(5)
C38_3 C 0.9557(3) 0.3890(3) 0.8853(4)
C39_3 C 0.9937(3) 0.4246(3) 0.8044(4)
C40_3 C 0.9447(4) 0.3474(4) 0.9237(6)
O11_3 O 0.55133(16) 0.46131(19) 0.96659(16)
O12_3 O 0.52009(10) 0.43325(13) 0.88625(13)
C41_3 C 0.63413(15) 0.41441(20) 0.9441(2)
H20_3 H 0.6589 0.4245 0.9645
C42_3 C 0.58478(14) 0.36565(19) 0.8783(2)
H21_3 H 0.5760 0.3426 0.8548
C43_3 C 0.54640(16) 0.44037(21) 0.92365(19)
C44_3 C 0.61070(16) 0.43458(22) 0.9479(2)
H22_3 H 0.6195 0.4577 0.9713
C45_3 C 0.64479(13) 0.35573(18) 0.90903(18)
C46_3 C 0.56122(15) 0.38620(21) 0.88091(19)
H23_3 H 0.5373 0.3772 0.8590
C47_3 C 0.62270(13) 0.31159(18) 0.90892(19)
C48_3 C 0.62087(13) 0.37897(18) 0.90989(19)
C49_3 C 0.57384(15) 0.42049(20) 0.91674(18)
O13_3 O 0.53869(19) 0.09003(10) 0.96659(16)
O14_3 O 0.56675(13) 0.08685(9) 0.88625(13)
C50_3 C 0.58559(20) 0.21973(13) 0.9441(2)
H24_3 H 0.5755 0.2345 0.9645
C51_3 C 0.63435(19) 0.21914(13) 0.8783(2)
H25_3 H 0.6574 0.2335 0.8548
C52_3 C 0.55963(21) 0.10604(13) 0.92365(19)
C53_3 C 0.56542(22) 0.17613(15) 0.9479(2)
H26_3 H 0.5423 0.1619 0.9713
C54_3 C 0.64427(18) 0.28907(12) 0.90903(18)
C55_3 C 0.61380(21) 0.17503(14) 0.88091(19)
H27_3 H 0.6228 0.1602 0.8590
C56_3 C 0.68841(18) 0.31112(13) 0.90892(19)
C57_3 C 0.62103(18) 0.24191(12) 0.90989(19)
C58_3 C 0.57951(20) 0.15336(13) 0.91674(18)
O15_3 O 0.58132(14) 0.54196(33) 0.9049(2)
O17_3 O 0.47962(11) 0.48379(17) 0.82475(14)
O18_3 O 0.44987(11) 0.41609(16) 0.80552(12)
N2_3 N 0.6131(2) 0.5870(4) 0.8365(2)
C59_3 C 0.47353(18) 0.51587(27) 0.6614(2)
H28_3 H 0.4821 0.5438 0.6522
C60_3 C 0.45744(17) 0.48542(25) 0.6209(2)
C61_3 C 0.42225(15) 0.46935(22) 0.5269(2)
H29_3 H 0.4012 0.4434 0.5404
C62_3 C 0.53560(15) 0.65094(22) 0.40655(19)
H30_3 H 0.5283 0.6637 0.3788
C63_3 C 0.48498(16) 0.53590(23) 0.5420(2)
H31_3 H 0.5065 0.5544 0.5654
C64_3 C 0.45510(16) 0.49685(23) 0.5618(2)
C65_3 C 0.39248(18) 0.45141(24) 0.3784(2)
H32_3 H 0.4200 0.4659 0.3649
C66_3 C 0.38548(14) 0.45226(20) 0.4342(2)
C67_3 C 0.42076(15) 0.48035(21) 0.4728(2)
C68_3 C 0.55687(15) 0.61307(21) 0.4903(2)
H33_3 H 0.5643 0.6004 0.5180
C69_3 C 0.46386(16) 0.45335(22) 0.7910(2)
C70_3 C 0.45187(15) 0.52011(21) 0.4537(2)
H34_3 H 0.4510 0.5277 0.4172
C71_3 C 0.51599(15) 0.59162(21) 0.46805(19)
C72_3 C 0.48406(16) 0.54856(22) 0.4884(2)
C73_3 C 0.50584(16) 0.61074(23) 0.4256(2)
H35_3 H 0.4790 0.5967 0.4097
C74_3 C 0.58627(14) 0.65299(21) 0.4715(2)
H36_3 H 0.6130 0.6673 0.4875
C75_3 C 0.57591(14) 0.67187(20) 0.42881(19)
C76_3 C 0.60812(14) 0.71534(21) 0.40917(18)
C77_3 C 0.31839(16) 0.40718(23) 0.3619(3)
C78_3 C 0.46167(17) 0.46356(24) 0.7308(2)
C79_3 C 0.44480(17) 0.43276(24) 0.6913(2)
H37_3 H 0.4344 0.4047 0.7011
C80_3 C 0.35905(18) 0.42933(25) 0.3421(2)
H38_2 H 0.3641 0.4296 0.3044
C81_3 C 0.34450(18) 0.42796(25) 0.4534(3)
H39_3 H 0.3390 0.4264 0.4911
C82_3 C 0.44296(17) 0.44331(25) 0.6361(2)
H40_3 H 0.4320 0.4222 0.6093
C83_3 C 0.47723(18) 0.50597(27) 0.7157(2)
H41_3 H 0.4899 0.5273 0.7420
C84_3 C 0.31118(19) 0.40571(25) 0.4160(3)
H42_3 H 0.2836 0.3897 0.4292
C85_2 C 0.2821(2) 0.38648(28) 0.3196(4)
C86_3 C 0.6492(4) 0.6284(6) 0.8148(5)
C87_3 C 0.6110(3) 0.5668(4) 0.8853(4)
C88_3 C 0.5754(3) 0.5692(4) 0.8044(4)
C89_3 C 0.6526(4) 0.5974(6) 0.9237(6)
O23_3 O 0.45804(33) 0.0394(3) 0.9049(2)
O26_3 O 0.58391(16) 0.03379(11) 0.80552(12)
N3_3 N 0.4130(4) 0.0262(3) 0.8365(2)
C100_3 C 0.54665(22) 0.01052(15) 0.7910(2)
C110_3 C 0.56724(24) 0.01205(17) 0.6913(2)
H52_3 H 0.5953 0.0298 0.7011
H55_3 H 0.5778 0.0099 0.6093
C117_3 C 0.3716(6) 0.0209(4) 0.8148(5)
C118_3 C 0.4332(4) 0.0443(3) 0.8853(4)
C119_3 C 0.4308(4) 0.0063(3) 0.8044(4)
C120_3 C 0.4026(6) 0.0553(4) 0.9237(6)
O43_2 O 0.43924(19) 0.37902(16) 0.9380(3)
O44_2 O 0.62098(16) 0.06021(25) 0.9380(3)
O45_2 O 0.93979(25) 0.56076(19) 0.9380(3)
H58_3 H 0.706302 0.411747 0.908743
H59_3 H 0.998217 0.344487 0.843665
H60_3 H 0.994807 0.359393 0.774689
H61_3 H 0.948178 0.32252 0.810377
H62_3 H 0.970408 0.355517 0.952844
H63_3 H 0.941073 0.321586 0.897247
H64_3 H 0.915455 0.337527 0.946265
H65_3 H 0.588253 0.294555 0.908743
H67_3 H 0.988089 0.448369 0.823302
H68_3 H 0.98071 0.417857 0.762683
H69_3 H 0.705445 0.293698 0.908743
H70_3 H 0.644483 0.61489 0.952844
H71_3 H 0.678414 0.619487 0.897247
H72_3 H 0.662473 0.577929 0.946265
H73_3 H 0.655513 0.65373 0.843665
H74_3 H 0.640607 0.635414 0.774689
H75_3 H 0.67748 0.625658 0.810377
H76_3 H 0.563671 0.591302 0.802545
H77_3 H 0.551631 0.539721 0.823302
H78_3 H 0.582143 0.562853 0.762683
H80_3 H 0.460279 0.0119107 0.823302
H81_3 H 0.437147 0.0192895 0.762683
H82_3 H 0.38511 0.0295922 0.952844
H83_3 H 0.380513 0.058927 0.897247
H84_3 H 0.422071 0.0845445 0.946265
H85_3 H 0.34627 0.00178308 0.843665
H86_3 H 0.364586 0.00519272 0.774689
H87_3 H 0.374342 0.0518217 0.810377
O25_3 O 0.51621(17) 0.99584(13) 0.82475(14)
C90_3 C 0.48413(27) 0.9577(2) 0.6614(2)
H43_3 H 0.4562 0.9384 0.6522
C91_3 C 0.51458(25) 0.97203(18) 0.6209(2)
C92_3 C 0.53065(22) 0.95291(16) 0.5269(2)
H44_3 H 0.5566 0.9579 0.5404
C93_3 C 0.34906(22) 0.88467(16) 0.40655(19)
H45_3 H 0.3363 0.8647 0.3788
C94_3 C 0.46410(23) 0.94909(17) 0.5420(2)
H46_3 H 0.4456 0.9522 0.5654
C95_3 C 0.50315(23) 0.95826(17) 0.5618(2)
C96_3 C 0.54859(24) 0.94108(16) 0.3784(2)
H47_3 H 0.5341 0.9542 0.3649
C97_3 C 0.54774(20) 0.93323(14) 0.4342(2)
C98_3 C 0.51965(21) 0.94042(15) 0.4728(2)
C99_3 C 0.38693(21) 0.94381(15) 0.4903(2)
H48_3 H 0.3996 0.9640 0.5180
C101_3 C 0.47989(21) 0.93177(15) 0.4537(2)
H49_3 H 0.4723 0.9234 0.4172
C102_3 C 0.40838(21) 0.92438(15) 0.46805(19)
C103_3 C 0.45144(22) 0.93551(15) 0.4884(2)
C104_3 C 0.38926(23) 0.89511(16) 0.4256(2)
H50_3 H 0.4033 0.8824 0.4097
C105_3 C 0.34701(21) 0.93329(16) 0.4715(2)
H51_3 H 0.3327 0.9458 0.4875
C106_3 C 0.32813(20) 0.90405(14) 0.42881(19)
C107_3 C 0.28466(21) 0.89279(15) 0.40917(18)
C108_3 C 0.59282(23) 0.91122(16) 0.3619(3)
C109_3 C 0.53644(24) 0.99812(17) 0.7308(2)
C111_3 C 0.57067(25) 0.92973(18) 0.3421(2)
H53_2 H 0.5704 0.9346 0.3044
C112_3 C 0.57204(25) 0.91655(17) 0.4534(3)
H54_3 H 0.5736 0.9127 0.4911
C113_3 C 0.55669(25) 0.99966(18) 0.6361(2)
C114_3 C 0.49403(27) 0.9713(2) 0.7157(2)
H56_3 H 0.4727 0.9627 0.7420
C115_3 C 0.59429(25) 0.90548(17) 0.4160(3)
H57_3 H 0.6103 0.8940 0.4292
C116_2 C 0.61352(28) 0.89566(19) 0.3196(4)
H79_3 H 0.408698 0.972368 0.802545
H15_3 H 0.3988 0.3025 0.9710
C36_3 C 0.43768(19) 0.3845(2) 0.9862(4)
H38_3 H 0.6975 0.0962 0.9710
C85_3 C 0.6155(2) 0.05314(28) 0.9862(4)
H53_3 H 0.9038 0.6012 0.9710
C116_3 C 0.94686(28) 0.56232(19) 0.9862(4)
In1 In 0.359655(10) 0.131465(10) 0.770570(13)
Mn1 Mn 0.365420(19) 0.216950(18) 0.68434(2)
O1_4 O 0.42336(10) 0.21800(16) 0.70008(16)
O2_4 O 0.3727(3) 0.24799(14) 0.7618(2)
O4_4 O 0.32917(13) 0.14629(11) 0.84192(14)
O5_4 O 0.36712(11) 0.11654(11) 0.86115(12)
O7_4 O 0.42018(9) 0.18676(10) 0.78042(13)
O8_2 O 0.32711(8) 0.15568(8) 0.72309(11)
N1_4 N 0.3595(3) 0.2798(2) 0.8302(2)
C1_4 C 0.55306(13) 0.30080(15) 0.7226(2)
H1_4 H 0.5678 0.3256 0.7022
C11_4 C 0.55247(13) 0.25145(14) 0.7884(2)
H7_4 H 0.5668 0.2427 0.8119
C13_4 C 0.34385(15) 0.13053(16) 0.8757(2)
C18_4 C 0.43937(13) 0.21307(16) 0.74302(19)
C22_4 C 0.50946(15) 0.27737(16) 0.7188(2)
H12_4 H 0.4952 0.2862 0.6954
C23_4 C 0.62240(12) 0.31146(13) 0.75764(18)
C24_4 C 0.50836(14) 0.22789(15) 0.78576(19)
H13_4 H 0.4935 0.2040 0.8077
C25_4 C 0.64445(13) 0.28937(13) 0.75775(19)
C26_4 C 0.57524(12) 0.28754(13) 0.75678(19)
C27_4 C 0.48669(13) 0.24051(15) 0.74993(18)
C29_4 C 0.33145(17) 0.12834(17) 0.9359(2)
C30_4 C 0.34538(17) 0.11147(17) 0.9754(2)
H14_4 H 0.3631 0.1011 0.9656
C34_4 C 0.3046(2) 0.14390(18) 0.9510(2)
H18_4 H 0.2960 0.1566 0.9247
C37_4 C 0.3542(4) 0.3159(4) 0.8519(5)
C38_4 C 0.3776(3) 0.2777(3) 0.7814(4)
C39_4 C 0.3396(3) 0.2421(3) 0.8623(4)
C40_4 C 0.3886(4) 0.3193(4) 0.7430(6)
O11_4 O 0.78200(16) 0.20536(19) 0.70008(16)
O12_4 O 0.81324(10) 0.23342(13) 0.78042(13)
C41_4 C 0.69920(15) 0.25226(20) 0.7226(2)
H20_4 H 0.6744 0.2422 0.7022
C42_4 C 0.74855(14) 0.30102(19) 0.7884(2)
H21_4 H 0.7573 0.3241 0.8119
C43_4 C 0.78693(16) 0.22630(21) 0.74302(19)
C44_4 C 0.72263(16) 0.23209(22) 0.7188(2)
H22_4 H 0.7138 0.2090 0.6954
C45_4 C 0.68854(13) 0.31094(18) 0.75764(18)
C46_4 C 0.77211(15) 0.28047(21) 0.78576(19)
H23_4 H 0.7960 0.2895 0.8077
C47_4 C 0.71063(13) 0.35508(18) 0.75775(19)
C48_4 C 0.71246(13) 0.28770(18) 0.75678(19)
C49_4 C 0.75949(15) 0.24618(20) 0.74993(18)
O13_4 O 0.79464(19) 0.57664(10) 0.70008(16)
O14_4 O 0.76658(13) 0.57982(9) 0.78042(13)
C50_4 C 0.74774(20) 0.44694(13) 0.7226(2)
H24_4 H 0.7578 0.4322 0.7022
C51_4 C 0.69898(19) 0.44753(13) 0.7884(2)
H25_4 H 0.6759 0.4332 0.8119
C52_4 C 0.77370(21) 0.56063(13) 0.74302(19)
C53_4 C 0.76791(22) 0.49054(15) 0.7188(2)
H26_4 H 0.7910 0.5048 0.6954
C54_4 C 0.68906(18) 0.37760(12) 0.75764(18)
C55_4 C 0.71953(21) 0.49164(14) 0.78576(19)
H27_4 H 0.7105 0.5065 0.8077
C56_4 C 0.64492(18) 0.35555(13) 0.75775(19)
C57_4 C 0.71230(18) 0.42476(12) 0.75678(19)
C58_4 C 0.75382(20) 0.51331(13) 0.74993(18)
In2 In 0.868535(10) 0.228190(14) 0.770570(13)
Mn2 Mn 0.783050(18) 0.148470(26) 0.68434(2)
O15_4 O 0.75201(14) 0.12471(33) 0.7618(2)
O17_4 O 0.85371(11) 0.18288(17) 0.84192(14)
O18_4 O 0.88346(11) 0.25058(16) 0.86115(12)
O20_2 O 0.84432(8) 0.17143(11) 0.72309(11)
N2_4 N 0.7202(2) 0.0797(4) 0.8302(2)
C69_4 C 0.86947(16) 0.21332(22) 0.8757(2)
C78_4 C 0.87166(17) 0.20311(24) 0.9359(2)
C79_4 C 0.88853(17) 0.23391(24) 0.9754(2)
H37_4 H 0.8989 0.2620 0.9656
C83_4 C 0.85610(18) 0.16070(27) 0.9510(2)
H41_4 H 0.8434 0.1394 0.9247
C86_4 C 0.6841(4) 0.0383(6) 0.8519(5)
C87_4 C 0.7223(3) 0.0999(4) 0.7814(4)
C88_4 C 0.7579(3) 0.0975(4) 0.8623(4)
C89_4 C 0.6807(4) 0.0693(6) 0.7430(6)
In3 In 0.771810(14) 0.640345(10) 0.770570(13)
Mn3 Mn 0.851530(26) 0.634580(19) 0.68434(2)
O23_4 O 0.87529(33) 0.6273(3) 0.7618(2)
O25_4 O 0.81712(17) 0.67083(13) 0.84192(14)
O26_4 O 0.74942(16) 0.63288(11) 0.86115(12)
O28_2 O 0.82857(11) 0.67289(8) 0.72309(11)
N3_4 N 0.9203(4) 0.6405(3) 0.8302(2)
C100_4 C 0.78668(22) 0.65615(15) 0.8757(2)
C109_4 C 0.79689(24) 0.66855(17) 0.9359(2)
C110_4 C 0.76609(24) 0.65462(17) 0.9754(2)
H52_4 H 0.7380 0.6369 0.9656
C114_4 C 0.83930(27) 0.6954(2) 0.9510(2)
H56_4 H 0.8606 0.7040 0.9247
C117_4 C 0.9617(6) 0.6458(4) 0.8519(5)
C118_4 C 0.9001(4) 0.6224(3) 0.7814(4)
C119_4 C 0.9025(4) 0.6604(3) 0.8623(4)
C120_4 C 0.9307(6) 0.6114(4) 0.7430(6)
Mn10_2 Mn 0.301247(19) 0.116383(18) 0.64899(2)
Mn11_2 Mn 0.883617(18) 0.184863(26) 0.64899(2)
Mn12_2 Mn 0.815137(26) 0.698753(19) 0.64899(2)
O31_3 O 0.87139(13) 0.59991(10) 0.63404(14)
O32_3 O 0.40009(10) 0.27147(16) 0.63404(14)
O33_3 O 0.72853(16) 0.12861(13) 0.63404(14)
O34_2 O 0.75997(10) 0.69222(10) 0.77138(15)
O35_2 O 0.30778(10) 0.06775(14) 0.77138(15)
O36_2 O 0.93225(14) 0.24003(10) 0.77138(15)
O37_3 O 0.33956(8) 0.17765(8) 0.61024(11)
O38_3 O 0.82235(8) 0.16190(11) 0.61024(11)
O39_3 O 0.83810(11) 0.66044(8) 0.61024(11)
O40_2 O 0.78097(14) 0.0865(2) 0.6730(3)
O41_2 O 0.9135(2) 0.69447(24) 0.6730(3)
O42_2 O 0.30553(24) 0.21903(14) 0.6730(3)
O43_3 O 0.89410(19) 0.28764(16) 0.7286(3)
O44_3 O 0.71236(16) 0.60645(25) 0.7286(3)
O45_3 O 0.39355(25) 0.10590(19) 0.7286(3)
H58_4 H 0.627031 0.25492 0.757924
H59_4 H 0.335116 0.32218 0.823001
H60_4 H 0.338526 0.307273 0.891978
H61_4 H 0.385155 0.344147 0.85629
H62_4 H 0.362926 0.311149 0.713822
H63_4 H 0.39226 0.345081 0.769419
H64_4 H 0.417878 0.32914 0.720401
H65_4 H 0.74508 0.372112 0.757924
H66_4 H 0.305702 0.230337 0.864121
H67_4 H 0.345244 0.218298 0.843364
H68_4 H 0.352623 0.248809 0.903983
H69_4 H 0.627888 0.372969 0.757924
H70_4 H 0.688851 0.0517763 0.713822
H71_4 H 0.654919 0.0471794 0.769419
H72_4 H 0.67086 0.0887378 0.720401
H73_4 H 0.67782 0.0129366 0.823001
H74_4 H 0.692727 0.0312527 0.891978
H75_4 H 0.655853 0.0410084 0.85629
H76_4 H 0.769663 0.0753643 0.864121
H77_4 H 0.781702 0.126946 0.843364
H78_4 H 0.751191 0.103814 0.903983
H79_4 H 0.924636 0.694298 0.864121
H80_4 H 0.873054 0.654756 0.843364
H81_4 H 0.896186 0.647377 0.903983
H82_4 H 0.948224 0.637074 0.713822
H83_4 H 0.952821 0.60774 0.769419
H84_4 H 0.911262 0.582122 0.720401
H85_4 H 0.987063 0.664884 0.823001
H86_4 H 0.968747 0.661474 0.891978
H87_4 H 0.958992 0.614845 0.85629
O25_5 O 0.48379(17) 0.00416(13) 0.17525(14)
O27_3 O 0.73442(14) 0.09330(10) 0.56195(15)
O28_3 O 0.49524(11) 0.00622(8) 0.05642(11)
O29_3 O 0.36114(24) 0.11430(14) 0.6603(3)
C90_4 C 0.51587(27) 0.0423(2) 0.3386(2)
H43_4 H 0.5438 0.0616 0.3478
C91_4 C 0.48542(25) 0.02797(18) 0.3791(2)
C92_4 C 0.46935(22) 0.04709(16) 0.4731(2)
H44_4 H 0.4434 0.0421 0.4596
C93_4 C 0.65094(22) 0.11533(16) 0.59345(19)
H45_4 H 0.6637 0.1353 0.6212
C94_4 C 0.53590(23) 0.05091(17) 0.4580(2)
H46_4 H 0.5544 0.0478 0.4346
C95_4 C 0.49685(23) 0.04174(17) 0.4382(2)
C96_4 C 0.45141(24) 0.05892(16) 0.6216(2)
H47_4 H 0.4659 0.0458 0.6351
C97_4 C 0.45226(20) 0.06677(14) 0.5658(2)
C98_4 C 0.48035(21) 0.05958(15) 0.5272(2)
C99_4 C 0.61307(21) 0.05619(15) 0.5097(2)
H48_4 H 0.6004 0.0360 0.4820
C101_4 C 0.52011(21) 0.06823(15) 0.5463(2)
H49_4 H 0.5277 0.0766 0.5828
C102_4 C 0.59162(21) 0.07562(15) 0.53195(19)
C103_4 C 0.54856(22) 0.06449(15) 0.5116(2)
C104_4 C 0.61074(23) 0.10489(16) 0.5744(2)
H50_4 H 0.5967 0.1176 0.5903
C105_4 C 0.65299(21) 0.06671(16) 0.5285(2)
H51_4 H 0.6673 0.0542 0.5125
C106_4 C 0.67187(20) 0.09595(14) 0.57119(19)
C107_4 C 0.71534(21) 0.10721(15) 0.59083(18)
C108_4 C 0.40718(23) 0.08878(16) 0.6381(3)
C109_5 C 0.46356(24) 0.00188(17) 0.2692(2)
C111_4 C 0.42933(25) 0.07027(18) 0.6579(2)
H53_4 H 0.4296 0.0654 0.6956
C112_4 C 0.42796(25) 0.08345(17) 0.5466(3)
H54_4 H 0.4264 0.0873 0.5089
C113_4 C 0.44331(25) 0.00034(18) 0.3639(2)
C114_5 C 0.50597(27) 0.0287(2) 0.2843(2)
H56_5 H 0.5273 0.0373 0.2580
C115_4 C 0.40571(25) 0.09452(17) 0.5840(3)
H57_4 H 0.3897 0.1060 0.5708
C116_4 C 0.38648(28) 0.10434(19) 0.6804(4)
In8_3 In 0.798132(10) 0.105143(14) 0.562763(13)
O34_3 O 0.42664(10) 0.02555(10) 0.10471(15)
O41_3 O 0.5802(2) 0.02780(24) 0.0063(3)
H79_5 H 0.591302 0.0276315 0.197455
In1_2 In 0.026322(10) 0.464798(10) 0.103903(13)
Mn1_2 Mn 0.032087(19) 0.550283(18) 0.01767(2)
O1_5 O 0.09003(10) 0.55133(16) 0.03341(16)
O2_5 O 0.0394(3) 0.58132(14) 0.0951(2)
O5_5 O 0.03379(11) 0.44987(11) 0.19448(12)
O7_5 O 0.08685(9) 0.52009(10) 0.11375(13)
N1_5 N 0.0262(3) 0.6131(2) 0.1635(2)
C1_5 C 0.21973(13) 0.63413(15) 0.0559(2)
H1_5 H 0.2345 0.6589 0.0355
C11_5 C 0.21914(13) 0.58478(14) 0.1217(2)
H7_5 H 0.2335 0.5760 0.1452
C13_5 C 0.01052(15) 0.46386(16) 0.2090(2)
C18_5 C 0.10604(13) 0.54640(16) 0.07635(19)
C22_5 C 0.17613(15) 0.61070(16) 0.0521(2)
H12_5 H 0.1619 0.6195 0.0287
C23_5 C 0.28907(12) 0.64479(13) 0.09097(18)
C24_5 C 0.17503(14) 0.56122(15) 0.11909(19)
H13_5 H 0.1602 0.5373 0.1410
C25_5 C 0.31112(13) 0.62270(13) 0.09108(19)
C26_5 C 0.24191(12) 0.62087(13) 0.09011(19)
C27_5 C 0.15336(13) 0.57384(15) 0.08326(18)
C30_5 C 0.01205(17) 0.44480(17) 0.3087(2)
H14_5 H 0.0298 0.4344 0.2989
H17_4 H 0.0099 0.4320 0.3907
C37_5 C 0.0209(4) 0.6492(4) 0.1852(5)
C38_5 C 0.0443(3) 0.6110(3) 0.1147(4)
C39_5 C 0.0063(3) 0.5754(3) 0.1956(4)
C40_5 C 0.0553(4) 0.6526(4) 0.0763(6)
O11_5 O 0.44867(16) 0.53869(19) 0.03341(16)
O12_5 O 0.47991(10) 0.56675(13) 0.11375(13)
C41_5 C 0.36587(15) 0.58559(20) 0.0559(2)
H20_5 H 0.3411 0.5755 0.0355
C42_5 C 0.41522(14) 0.63435(19) 0.1217(2)
H21_5 H 0.4240 0.6574 0.1452
C43_5 C 0.45360(16) 0.55963(21) 0.07635(19)
C44_5 C 0.38930(16) 0.56542(22) 0.0521(2)
H22_5 H 0.3805 0.5423 0.0287
C45_5 C 0.35521(13) 0.64427(18) 0.09097(18)
C46_5 C 0.43878(15) 0.61380(21) 0.11909(19)
H23_5 H 0.4627 0.6228 0.1410
C47_5 C 0.37730(13) 0.68841(18) 0.09108(19)
C48_5 C 0.37913(13) 0.62103(18) 0.09011(19)
C49_5 C 0.42616(15) 0.57951(20) 0.08326(18)
O13_5 O 0.46131(19) 0.90997(10) 0.03341(16)
O14_5 O 0.43325(13) 0.91315(9) 0.11375(13)
C50_5 C 0.41441(20) 0.78027(13) 0.0559(2)
H24_5 H 0.4245 0.7655 0.0355
C51_5 C 0.36565(19) 0.78086(13) 0.1217(2)
H25_5 H 0.3426 0.7665 0.1452
C52_5 C 0.44037(21) 0.89396(13) 0.07635(19)
C53_5 C 0.43458(22) 0.82387(15) 0.0521(2)
H26_5 H 0.4577 0.8381 0.0287
C54_5 C 0.35573(18) 0.71093(12) 0.09097(18)
C55_5 C 0.38620(21) 0.82497(14) 0.11909(19)
H27_5 H 0.3772 0.8398 0.1410
C56_5 C 0.31159(18) 0.68888(13) 0.09108(19)
C57_5 C 0.37897(18) 0.75809(12) 0.09011(19)
C58_5 C 0.42049(20) 0.84664(13) 0.08326(18)
In2_2 In 0.535202(10) 0.561523(14) 0.103903(13)
Mn2_2 Mn 0.449717(18) 0.481803(26) 0.01767(2)
O15_5 O 0.41868(14) 0.45804(33) 0.0951(2)
O17_5 O 0.52038(11) 0.51621(17) 0.17525(14)
O18_5 O 0.55013(11) 0.58391(16) 0.19448(12)
O19_3 O 0.35889(10) 0.26558(14) 0.56195(15)
O20_3 O 0.51099(8) 0.50476(11) 0.05642(11)
O21_3 O 0.7532(2) 0.63886(24) 0.6603(3)
N2_5 N 0.3869(2) 0.4130(4) 0.1635(2)
C59_4 C 0.52647(18) 0.48413(27) 0.3386(2)
H28_4 H 0.5179 0.4562 0.3478
C60_4 C 0.54256(17) 0.51458(25) 0.3791(2)
C61_4 C 0.57775(15) 0.53065(22) 0.4731(2)
H29_4 H 0.5988 0.5566 0.4596
C62_4 C 0.46440(15) 0.34906(22) 0.59345(19)
H30_4 H 0.4717 0.3363 0.6212
C63_4 C 0.51502(16) 0.46410(23) 0.4580(2)
H31_4 H 0.4935 0.4456 0.4346
C64_4 C 0.54490(16) 0.50315(23) 0.4382(2)
C65_4 C 0.60752(18) 0.54859(24) 0.6216(2)
H32_4 H 0.5800 0.5341 0.6351
C66_4 C 0.61452(14) 0.54774(20) 0.5658(2)
C67_4 C 0.57924(15) 0.51965(21) 0.5272(2)
C68_4 C 0.44313(15) 0.38693(21) 0.5097(2)
H33_4 H 0.4357 0.3996 0.4820
C69_5 C 0.53614(16) 0.54665(22) 0.2090(2)
C70_4 C 0.54813(15) 0.47989(21) 0.5463(2)
H34_4 H 0.5490 0.4723 0.5828
C71_4 C 0.48401(15) 0.40838(21) 0.53195(19)
C72_4 C 0.51594(16) 0.45144(22) 0.5116(2)
C73_4 C 0.49416(16) 0.38926(23) 0.5744(2)
H35_4 H 0.5210 0.4033 0.5903
C74_4 C 0.41373(14) 0.34701(21) 0.5285(2)
H36_4 H 0.3870 0.3327 0.5125
C75_4 C 0.42409(14) 0.32813(20) 0.57119(19)
C76_4 C 0.39188(14) 0.28466(21) 0.59083(18)
C77_4 C 0.68161(16) 0.59282(23) 0.6381(3)
C78_5 C 0.53833(17) 0.53644(24) 0.2692(2)
C79_5 C 0.55520(17) 0.56724(24) 0.3087(2)
H37_5 H 0.5656 0.5953 0.2989
C80_4 C 0.64095(18) 0.57067(25) 0.6579(2)
H38_4 H 0.6359 0.5704 0.6956
C81_4 C 0.65550(18) 0.57204(25) 0.5466(3)
H39_4 H 0.6610 0.5736 0.5089
C82_4 C 0.55704(17) 0.55669(25) 0.3639(2)
H40_4 H 0.5680 0.5778 0.3907
C83_5 C 0.52277(18) 0.49403(27) 0.2843(2)
H41_5 H 0.5101 0.4727 0.2580
C84_4 C 0.68882(19) 0.59429(25) 0.5840(3)
H42_4 H 0.7164 0.6103 0.5708
C85_4 C 0.7179(2) 0.61352(28) 0.6804(4)
C86_5 C 0.3508(4) 0.3716(6) 0.1852(5)
C87_5 C 0.3890(3) 0.4332(4) 0.1147(4)
C88_5 C 0.4246(3) 0.4308(4) 0.1956(4)
C89_5 C 0.3474(4) 0.4026(6) 0.0763(6)
In3_2 In 0.438477(14) 0.973678(10) 0.103903(13)
Mn3_2 Mn 0.518197(26) 0.967913(19) 0.01767(2)
O23_5 O 0.54196(33) 0.9606(3) 0.0951(2)
O26_5 O 0.41609(16) 0.96621(11) 0.19448(12)
N3_5 N 0.5870(4) 0.9738(3) 0.1635(2)
C100_5 C 0.45335(22) 0.98948(15) 0.2090(2)
C110_5 C 0.43276(24) 0.98795(17) 0.3087(2)
H52_5 H 0.4047 0.9702 0.2989
H55_4 H 0.4222 0.9901 0.3907
C117_5 C 0.6284(6) 0.9791(4) 0.1852(5)
C118_5 C 0.5668(4) 0.9557(3) 0.1147(4)
C119_5 C 0.5692(4) 0.9937(3) 0.1956(4)
C120_5 C 0.5974(6) 0.9447(4) 0.0763(6)
In7_3 In 0.307012(10) 0.201868(10) 0.562763(13)
O36_3 O 0.59892(14) 0.57336(10) 0.10471(15)
O40_3 O 0.44764(14) 0.4198(2) 0.0063(3)
O43_4 O 0.56076(19) 0.62098(16) 0.0620(3)
O44_4 O 0.37902(16) 0.93979(25) 0.0620(3)
O45_4 O 0.06021(25) 0.43924(19) 0.0620(3)
H58_5 H 0.293698 0.588253 0.0912569
H59_5 H 0.00178308 0.655513 0.156335
H60_5 H 0.00519272 0.640607 0.225311
H61_5 H 0.0518217 0.67748 0.189623
H62_5 H 0.0295922 0.644483 0.0471555
H63_5 H 0.058927 0.678414 0.102753
H64_5 H 0.0845445 0.662473 0.0537346
H65_5 H 0.411747 0.705445 0.0912569
H67_5 H 0.0119107 0.551631 0.176698
H68_5 H 0.0192895 0.582143 0.237317
H69_5 H 0.294555 0.706302 0.0912569
H70_5 H 0.355517 0.38511 0.0471555
H71_5 H 0.321586 0.380513 0.102753
H72_5 H 0.337527 0.422071 0.0537346
H73_5 H 0.344487 0.34627 0.156335
H74_5 H 0.359393 0.364586 0.225311
H75_5 H 0.32252 0.374342 0.189623
H76_5 H 0.436329 0.408698 0.197455
H77_5 H 0.448369 0.460279 0.176698
H78_5 H 0.417857 0.437147 0.237317
H80_5 H 0.539721 0.988089 0.176698
H81_5 H 0.562853 0.98071 0.237317
H82_5 H 0.61489 0.970408 0.0471555
H83_5 H 0.619487 0.941073 0.102753
H84_5 H 0.577929 0.915455 0.0537346
H85_5 H 0.65373 0.998217 0.156335
H86_5 H 0.635414 0.994807 0.225311
H87_5 H 0.625658 0.948178 0.189623
O4_5 O 0.99584(13) 0.47962(11) 0.17525(14)
O6_3 O 0.90670(10) 0.64111(10) 0.56195(15)
O8_3 O 0.99378(8) 0.48901(8) 0.05642(11)
O9_3 O 0.88570(14) 0.2468(2) 0.6603(3)
C2_4 C 0.9577(2) 0.47353(18) 0.3386(2)
H2_4 H 0.9384 0.4821 0.3478
C3_4 C 0.97203(18) 0.45744(17) 0.3791(2)
C4_4 C 0.95291(16) 0.42225(15) 0.4731(2)
H3_4 H 0.9579 0.4012 0.4596
C5_4 C 0.88467(16) 0.53560(15) 0.59345(19)
H4_4 H 0.8647 0.5283 0.6212
C6_4 C 0.94909(17) 0.48498(16) 0.4580(2)
H5_4 H 0.9522 0.5065 0.4346
C7_4 C 0.95826(17) 0.45510(16) 0.4382(2)
C8_4 C 0.94108(16) 0.39248(18) 0.6216(2)
H6_4 H 0.9542 0.4200 0.6351
C9_4 C 0.93323(14) 0.38548(14) 0.5658(2)
C10_4 C 0.94042(15) 0.42076(15) 0.5272(2)
C12_4 C 0.94381(15) 0.55687(15) 0.5097(2)
H8_4 H 0.9640 0.5643 0.4820
C14_4 C 0.93177(15) 0.45187(15) 0.5463(2)
H9_4 H 0.9234 0.4510 0.5828
C15_4 C 0.92438(15) 0.51599(15) 0.53195(19)
C16_4 C 0.93551(15) 0.48406(16) 0.5116(2)
C17_4 C 0.89511(16) 0.50584(16) 0.5744(2)
H10_4 H 0.8824 0.4790 0.5903
C19_4 C 0.93329(16) 0.58627(14) 0.5285(2)
H11_4 H 0.9458 0.6130 0.5125
C20_4 C 0.90405(14) 0.57591(14) 0.57119(19)
C21_4 C 0.89279(15) 0.60812(14) 0.59083(18)
C28_4 C 0.91122(16) 0.31839(16) 0.6381(3)
C29_5 C 0.99812(17) 0.46167(17) 0.2692(2)
C31_4 C 0.92973(18) 0.35905(18) 0.6579(2)
H15_4 H 0.9346 0.3641 0.6956
C32_4 C 0.91655(17) 0.34450(18) 0.5466(3)
H16_4 H 0.9127 0.3390 0.5089
C33_4 C 0.99966(18) 0.44296(17) 0.3639(2)
C34_5 C 0.9713(2) 0.47723(18) 0.2843(2)
H18_5 H 0.9627 0.4899 0.2580
C35_4 C 0.90548(17) 0.31118(19) 0.5840(3)
H19_4 H 0.8940 0.2836 0.5708
C36_4 C 0.89566(19) 0.2821(2) 0.6804(4)
In9_3 In 0.894857(14) 0.692988(10) 0.562763(13)
O35_3 O 0.97445(10) 0.40108(14) 0.10471(15)
O42_3 O 0.97220(24) 0.55236(14) 0.0063(3)
H66_5 H 0.972368 0.563671 0.197455
H53_5 H 0.0962 0.3988 0.0290
C116_5 C 0.05314(28) 0.43768(19) 0.0138(4)
H38_5 H 0.3025 0.9038 0.0290
C85_5 C 0.3845(2) 0.94686(28) 0.0138(4)
H15_5 H 0.6012 0.6975 0.0290
C36_5 C 0.56232(19) 0.6155(2) 0.0138(4)
O10_2 O 0.77257(19) 0.04569(16) 0.6047(3)
C28_5 C 0.75545(16) 0.01494(16) 0.6952(3)
C35_5 C 0.76119(17) 0.02215(19) 0.7493(3)
H19_5 H 0.7727 0.0497 0.7625
C36_6 C 0.77101(19) 0.0512(2) 0.6529(4)
O16_2 O 0.26658(10) 0.06186(16) 0.69929(14)
H36_5 H 0.2797 0.0006 0.8208
C75_5 C 0.24258(14) 0.00520(20) 0.76214(19)
C76_5 C 0.27479(14) 0.04867(21) 0.74250(18)
O3_2 O 0.79528(13) 0.73342(10) 0.69929(14)
C2_5 C 0.7090(2) 0.85980(18) 0.9947(2)
H2_5 H 0.7283 0.8512 0.9855
C3_5 C 0.69464(18) 0.87589(17) 0.9542(2)
C4_5 C 0.71376(16) 0.91108(15) 0.8602(2)
H3_5 H 0.7088 0.9321 0.8737
C5_5 C 0.78200(16) 0.79773(15) 0.73988(19)
H4_5 H 0.8020 0.8050 0.7121
C6_5 C 0.71758(17) 0.84835(16) 0.8753(2)
H5_5 H 0.7145 0.8268 0.8987
C7_5 C 0.70841(17) 0.87823(16) 0.8951(2)
C8_5 C 0.72559(16) 0.94085(18) 0.7117(2)
H6_5 H 0.7125 0.9133 0.6982
C9_5 C 0.73344(14) 0.94785(14) 0.7675(2)
C10_5 C 0.72625(15) 0.91257(15) 0.8061(2)
C12_5 C 0.72286(15) 0.77646(15) 0.8236(2)
H8_5 H 0.7027 0.7690 0.8513
C14_5 C 0.73490(15) 0.88146(15) 0.7870(2)
H9_5 H 0.7433 0.8823 0.7505
C15_5 C 0.74229(15) 0.81734(15) 0.80138(19)
C16_5 C 0.73116(15) 0.84927(16) 0.8217(2)
C17_5 C 0.77156(16) 0.82749(16) 0.7589(2)
H10_5 H 0.7843 0.8543 0.7430
C19_5 C 0.73338(16) 0.74706(14) 0.8048(2)
H11_5 H 0.7209 0.7203 0.8208
C20_5 C 0.76262(14) 0.75742(14) 0.76214(19)
C21_5 C 0.77388(15) 0.72521(14) 0.74250(18)
C31_5 C 0.73694(18) 0.97428(18) 0.6754(2)
H15_6 H 0.7321 0.9692 0.6377
C32_5 C 0.75012(17) 0.98883(18) 0.7867(3)
H16_5 H 0.7540 0.9943 0.8244
C33_5 C 0.66701(18) 0.89037(17) 0.9694(2)
H17_5 H 0.6568 0.9013 0.9426
C59_5 C 0.14020(18) 0.84920(27) 0.9947(2)
H28_5 H 0.1488 0.8771 0.9855
C60_5 C 0.12411(17) 0.81875(25) 0.9542(2)
C61_5 C 0.08892(15) 0.80268(22) 0.8602(2)
H29_5 H 0.0679 0.7767 0.8737
C62_5 C 0.20227(15) 0.98427(22) 0.73988(19)
H30_5 H 0.1950 0.9970 0.7121
C63_5 C 0.15165(16) 0.86923(23) 0.8753(2)
H31_5 H 0.1732 0.8877 0.8987
C64_5 C 0.12177(16) 0.83018(23) 0.8951(2)
C65_5 C 0.05915(18) 0.78474(24) 0.7117(2)
H32_5 H 0.0867 0.7992 0.6982
C66_5 C 0.05215(14) 0.78559(20) 0.7675(2)
C67_5 C 0.08743(15) 0.81368(21) 0.8061(2)
C68_5 C 0.22354(15) 0.94640(21) 0.8236(2)
H33_5 H 0.2310 0.9337 0.8513
C70_5 C 0.11854(15) 0.85344(21) 0.7870(2)
H34_5 H 0.1177 0.8610 0.7505
C71_5 C 0.18266(15) 0.92495(21) 0.80138(19)
C72_5 C 0.15073(16) 0.88189(22) 0.8217(2)
C73_5 C 0.17251(16) 0.94407(23) 0.7589(2)
H35_5 H 0.1457 0.9300 0.7430
C74_5 C 0.25294(14) 0.98632(21) 0.8048(2)
C80_5 C 0.02572(18) 0.76266(25) 0.6754(2)
H38_6 H 0.0308 0.7629 0.6377
C81_5 C 0.01117(18) 0.76129(25) 0.7867(3)
H39_5 H 0.0057 0.7597 0.8244
C82_5 C 0.10963(17) 0.77664(25) 0.9694(2)
H40_5 H 0.0987 0.7555 0.9426
O30_2 O 0.27312(25) 0.22743(19) 0.6047(3)
C90_5 C 0.15080(27) 0.2910(2) 0.9947(2)
H43_5 H 0.1229 0.2717 0.9855
C91_5 C 0.18125(25) 0.30536(18) 0.9542(2)
C92_5 C 0.19732(22) 0.28624(16) 0.8602(2)
H44_5 H 0.2233 0.2912 0.8737
C93_5 C 0.01573(22) 0.21800(16) 0.73988(19)
H45_5 H 0.0030 0.1980 0.7121
C94_5 C 0.13077(23) 0.28242(17) 0.8753(2)
H46_5 H 0.1123 0.2855 0.8987
C95_5 C 0.16982(23) 0.29159(17) 0.8951(2)
C96_5 C 0.21526(24) 0.27441(16) 0.7117(2)
H47_5 H 0.2008 0.2875 0.6982
C97_5 C 0.21441(20) 0.26656(14) 0.7675(2)
C98_5 C 0.18632(21) 0.27375(15) 0.8061(2)
C99_5 C 0.05360(21) 0.27714(15) 0.8236(2)
H48_5 H 0.0663 0.2973 0.8513
C101_5 C 0.14656(21) 0.26510(15) 0.7870(2)
H49_5 H 0.1390 0.2567 0.7505
C102_5 C 0.07505(21) 0.25771(15) 0.80138(19)
C103_5 C 0.11811(22) 0.26884(15) 0.8217(2)
C104_5 C 0.05593(23) 0.22844(16) 0.7589(2)
H50_5 H 0.0700 0.2157 0.7430
C105_5 C 0.01368(21) 0.26662(16) 0.8048(2)
C108_5 C 0.25949(23) 0.24455(16) 0.6952(3)
C111_5 C 0.23734(25) 0.26306(18) 0.6754(2)
H53_6 H 0.2371 0.2679 0.6377
C112_5 C 0.23871(25) 0.24988(17) 0.7867(3)
H54_5 H 0.2403 0.2460 0.8244
C113_5 C 0.22336(25) 0.33299(18) 0.9694(2)
H55_5 H 0.2445 0.3432 0.9426
C115_5 C 0.26096(25) 0.23881(17) 0.7493(3)
H57_5 H 0.2770 0.2273 0.7625
C116_6 C 0.28019(28) 0.22899(19) 0.6529(4)
O22_2 O 0.95431(16) 0.72688(25) 0.6047(3)
C77_5 C 0.98506(16) 0.74051(23) 0.6952(3)
C84_5 C 0.97785(19) 0.73904(25) 0.7493(3)
H42_5 H 0.9503 0.7230 0.7625
C85_6 C 0.9488(2) 0.71981(28) 0.6529(4)
O24_2 O 0.93814(16) 0.20472(13) 0.69929(14)
H51_5 H 0.9994 0.2791 0.8208
C106_5 C 0.99480(20) 0.23738(14) 0.76214(19)
C107_5 C 0.95133(21) 0.22612(15) 0.74250(18)
O31_4 O 0.46195(13) 0.06675(10) 0.03262(14)
O32_4 O 0.93325(10) 0.39519(16) 0.03262(14)
O33_4 O 0.60481(16) 0.53805(13) 0.03262(14)
O1_6 O 0.24331(10) 0.11533(16) 0.63325(16)
O2_6 O 0.2940(3) 0.08534(14) 0.5715(2)
O4_6 O 0.33750(13) 0.18704(11) 0.49141(14)
O5_6 O 0.29955(11) 0.21679(11) 0.47218(12)
O7_6 O 0.24649(9) 0.14657(10) 0.55291(13)
N1_6 N 0.3072(3) 0.0535(2) 0.5031(2)
C1_6 C 0.11361(13) 0.03253(15) 0.6107(2)
H1_6 H 0.0989 0.0077 0.6311
C2_6 C 0.3757(2) 0.19313(18) 0.3280(2)
H2_6 H 0.3950 0.1845 0.3188
C3_6 C 0.36131(18) 0.20922(17) 0.2875(2)
C4_6 C 0.38043(16) 0.24441(15) 0.1935(2)
H3_6 H 0.3755 0.2654 0.2070
C5_6 C 0.44867(16) 0.13106(15) 0.07321(19)
H4_6 H 0.4687 0.1383 0.0454
C6_6 C 0.38425(17) 0.18168(16) 0.2086(2)
H5_6 H 0.3812 0.1601 0.2320
C7_6 C 0.37508(17) 0.21156(16) 0.2284(2)
C8_6 C 0.39226(16) 0.27418(18) 0.0450(2)
H6_6 H 0.3792 0.2466 0.0315
C9_6 C 0.40011(14) 0.28118(14) 0.1008(2)
C10_6 C 0.39292(15) 0.24590(15) 0.1394(2)
C11_6 C 0.11420(13) 0.08188(14) 0.5449(2)
H7_6 H 0.0999 0.0906 0.5214
C12_6 C 0.38953(15) 0.10979(15) 0.1569(2)
H8_6 H 0.3694 0.1023 0.1846
C13_6 C 0.32282(15) 0.20280(16) 0.4576(2)
C14_6 C 0.40157(15) 0.21479(15) 0.1203(2)
H9_6 H 0.4100 0.2156 0.0838
C15_6 C 0.40896(15) 0.15067(15) 0.13471(19)
C16_6 C 0.39783(15) 0.18260(16) 0.1550(2)
C17_6 C 0.43823(16) 0.16082(16) 0.0922(2)
H10_6 H 0.4510 0.1876 0.0763
C18_6 C 0.22730(13) 0.12026(16) 0.59031(19)
C19_6 C 0.40005(16) 0.08039(14) 0.1381(2)
H11_6 H 0.3876 0.0536 0.1541
C20_6 C 0.42929(14) 0.09075(14) 0.09547(19)
C21_6 C 0.44055(15) 0.05854(14) 0.07583(18)
C22_6 C 0.15721(15) 0.05596(16) 0.6145(2)
H12_6 H 0.1715 0.0471 0.6379
C23_6 C 0.04427(12) 0.02187(13) 0.57569(18)
C24_6 C 0.15831(14) 0.10544(15) 0.54757(19)
H13_6 H 0.1732 0.1293 0.5256
C25_6 C 0.02222(13) 0.04396(13) 0.57558(19)
C26_6 C 0.09143(12) 0.04579(13) 0.57655(19)
C27_6 C 0.17998(13) 0.09282(15) 0.58340(18)
C28_6 C 0.42212(16) 0.34827(16) 0.0285(3)
C29_6 C 0.33522(17) 0.20499(17) 0.3974(2)
C30_6 C 0.32129(17) 0.22186(17) 0.3579(2)
H14_6 H 0.3036 0.2322 0.3677
C31_6 C 0.40361(18) 0.30761(18) 0.0087(2)
C32_6 C 0.41679(17) 0.32216(18) 0.1200(3)
H16_6 H 0.4207 0.3276 0.1577
C33_6 C 0.33368(18) 0.22370(17) 0.3027(2)
H17_6 H 0.3235 0.2346 0.2759
C34_6 C 0.3621(2) 0.18943(18) 0.3823(2)
H18_6 H 0.3707 0.1767 0.4086
C35_6 C 0.42786(17) 0.35548(19) 0.0826(3)
H19_6 H 0.4394 0.3830 0.0958
C37_6 C 0.3125(4) 0.0174(4) 0.4814(5)
C38_6 C 0.2891(3) 0.0556(3) 0.5519(4)
C39_6 C 0.3271(3) 0.0912(3) 0.4710(4)
C40_6 C 0.2781(4) 0.0140(4) 0.5903(6)
H58_6 H 0.0396352 0.0784137 0.57541
H59_6 H 0.33155 0.0111535 0.510332
H60_6 H 0.328141 0.02606 0.441356
H62_6 H 0.303741 0.0221841 0.619511
H64_6 H 0.248789 0.00419332 0.612932
H66_6 H 0.360965 0.102996 0.469212
H67_6 H 0.321423 0.115035 0.489969
H68_6 H 0.314044 0.0845241 0.42935
H71_6 H 0.0117476 0.286154 0.563914
H75_6 H 0.0108133 0.292325 0.477044
C56_6 C 0.02175(18) 0.97778(13) 0.57558(19)
H61_6 H 0.281512 0.989187 0.477044
H63_6 H 0.274406 0.988252 0.563914
H69_6 H 0.0387785 0.960365 0.57541
O11_6 O 0.88467(16) 0.12797(19) 0.63325(16)
O12_6 O 0.85343(10) 0.09991(13) 0.55291(13)
C41_6 C 0.96747(15) 0.08107(20) 0.6107(2)
H20_6 H 0.9923 0.0911 0.6311
C42_6 C 0.91812(14) 0.03231(19) 0.5449(2)
H21_6 H 0.9094 0.0092 0.5214
C43_6 C 0.87974(16) 0.10703(21) 0.59031(19)
C44_6 C 0.94404(16) 0.10124(22) 0.6145(2)
H22_6 H 0.9529 0.1243 0.6379
C45_6 C 0.97813(13) 0.02239(18) 0.57569(18)
C46_6 C 0.89456(15) 0.05286(21) 0.54757(19)
H23_6 H 0.8707 0.0438 0.5256
C48_6 C 0.95421(13) 0.04563(18) 0.57655(19)
C49_6 C 0.90718(15) 0.08715(20) 0.58340(18)
O15_6 O 0.91466(14) 0.20862(33) 0.5715(2)
O17_6 O 0.81296(11) 0.15045(17) 0.49141(14)
O18_6 O 0.78321(11) 0.08275(16) 0.47218(12)
N2_6 N 0.9465(2) 0.2536(4) 0.5031(2)
C59_6 C 0.80687(18) 0.18253(27) 0.3280(2)
H28_6 H 0.8155 0.2104 0.3188
C60_6 C 0.79078(17) 0.15208(25) 0.2875(2)
C61_6 C 0.75559(15) 0.13601(22) 0.1935(2)
H29_6 H 0.7346 0.1100 0.2070
C62_6 C 0.86894(15) 0.31760(22) 0.07321(19)
H30_6 H 0.8617 0.3303 0.0454
C63_6 C 0.81832(16) 0.20256(23) 0.2086(2)
H31_6 H 0.8399 0.2210 0.2320
C64_6 C 0.78844(16) 0.16351(23) 0.2284(2)
C65_6 C 0.72582(18) 0.11807(24) 0.0450(2)
H32_6 H 0.7534 0.1325 0.0315
C66_6 C 0.71882(14) 0.11892(20) 0.1008(2)
C67_6 C 0.75410(15) 0.14701(21) 0.1394(2)
C68_6 C 0.89021(15) 0.27973(21) 0.1569(2)
H33_6 H 0.8977 0.2670 0.1846
C69_6 C 0.79720(16) 0.12001(22) 0.4576(2)
C70_6 C 0.78521(15) 0.18677(21) 0.1203(2)
H34_6 H 0.7844 0.1943 0.0838
C71_6 C 0.84933(15) 0.25828(21) 0.13471(19)
C72_6 C 0.81740(16) 0.21522(22) 0.1550(2)
C73_6 C 0.83918(16) 0.27740(23) 0.0922(2)
H35_6 H 0.8124 0.2633 0.0763
C74_6 C 0.91961(14) 0.31965(21) 0.1381(2)
H36_6 H 0.9464 0.3339 0.1541
C75_6 C 0.90925(14) 0.33853(20) 0.09547(19)
C76_6 C 0.94146(14) 0.38200(21) 0.07583(18)
C77_6 C 0.65173(16) 0.07384(23) 0.0285(3)
C78_6 C 0.79501(17) 0.13022(24) 0.3974(2)
C79_6 C 0.77814(17) 0.09942(24) 0.3579(2)
H37_6 H 0.7678 0.0713 0.3677
C80_6 C 0.69239(18) 0.09599(25) 0.0087(2)
C81_6 C 0.67784(18) 0.09462(25) 0.1200(3)
H39_6 H 0.6724 0.0930 0.1577
C82_6 C 0.77630(17) 0.10997(25) 0.3027(2)
H40_6 H 0.7654 0.0888 0.2759
C83_6 C 0.81057(18) 0.17263(27) 0.3823(2)
H41_6 H 0.8233 0.1939 0.4086
C84_6 C 0.64452(19) 0.07237(25) 0.0826(3)
H42_6 H 0.6170 0.0563 0.0958
C86_6 C 0.9826(4) 0.2950(6) 0.4814(5)
C87_6 C 0.9444(3) 0.2334(4) 0.5519(4)
C88_6 C 0.9088(3) 0.2358(4) 0.4710(4)
C89_6 C 0.9860(4) 0.2640(6) 0.5903(6)
H70_6 H 0.977816 0.281557 0.619511
H72_6 H 0.995807 0.244596 0.612932
H73_6 H 0.988847 0.320397 0.510332
H74_6 H 0.97394 0.302081 0.441356
H76_6 H 0.897004 0.257969 0.469212
H77_6 H 0.884965 0.206387 0.489969
H78_6 H 0.915476 0.22952 0.42935
C47_6 C 0.95604(13) 0.97825(18) 0.57558(19)
O13_6 O 0.87203(19) 0.75669(10) 0.63325(16)
O14_6 O 0.90009(13) 0.75351(9) 0.55291(13)
C50_6 C 0.91893(20) 0.88639(13) 0.6107(2)
H24_6 H 0.9089 0.9011 0.6311
C51_6 C 0.96769(19) 0.88580(13) 0.5449(2)
H25_6 H 0.9908 0.9001 0.5214
C52_6 C 0.89297(21) 0.77270(13) 0.59031(19)
C53_6 C 0.89876(22) 0.84279(15) 0.6145(2)
H26_6 H 0.8757 0.8285 0.6379
C54_6 C 0.97761(18) 0.95573(12) 0.57569(18)
C55_6 C 0.94714(21) 0.84169(14) 0.54757(19)
H27_6 H 0.9562 0.8268 0.5256
C57_6 C 0.95437(18) 0.90857(12) 0.57655(19)
C58_6 C 0.91285(20) 0.82002(13) 0.58340(18)
O23_6 O 0.79138(33) 0.7060(3) 0.5715(2)
O25_6 O 0.84955(17) 0.66250(13) 0.49141(14)
O26_6 O 0.91725(16) 0.70045(11) 0.47218(12)
N3_6 N 0.7464(4) 0.6928(3) 0.5031(2)
C90_6 C 0.81747(27) 0.6243(2) 0.3280(2)
H43_6 H 0.7896 0.6050 0.3188
C91_6 C 0.84792(25) 0.63869(18) 0.2875(2)
C92_6 C 0.86399(22) 0.61957(16) 0.1935(2)
H44_6 H 0.8900 0.6245 0.2070
C93_6 C 0.68240(22) 0.55133(16) 0.07321(19)
H45_6 H 0.6697 0.5313 0.0454
C94_6 C 0.79744(23) 0.61575(17) 0.2086(2)
H46_6 H 0.7790 0.6188 0.2320
C95_6 C 0.83649(23) 0.62492(17) 0.2284(2)
C96_6 C 0.88193(24) 0.60774(16) 0.0450(2)
H47_6 H 0.8675 0.6208 0.0315
C97_6 C 0.88108(20) 0.59989(14) 0.1008(2)
C98_6 C 0.85299(21) 0.60708(15) 0.1394(2)
C99_6 C 0.72027(21) 0.61047(15) 0.1569(2)
H48_6 H 0.7330 0.6306 0.1846
C100_6 C 0.87999(22) 0.67718(15) 0.4576(2)
C101_6 C 0.81323(21) 0.59843(15) 0.1203(2)
H49_6 H 0.8057 0.5900 0.0838
C102_6 C 0.74172(21) 0.59104(15) 0.13471(19)
C103_6 C 0.78478(22) 0.60217(15) 0.1550(2)
C104_6 C 0.72260(23) 0.56177(16) 0.0922(2)
H50_6 H 0.7367 0.5490 0.0763
C105_6 C 0.68035(21) 0.59995(16) 0.1381(2)
H51_6 H 0.6661 0.6124 0.1541
C106_6 C 0.66147(20) 0.57071(14) 0.09547(19)
C107_6 C 0.61800(21) 0.55945(15) 0.07583(18)
C108_6 C 0.92616(23) 0.57788(16) 0.0285(3)
C109_6 C 0.86978(24) 0.66478(17) 0.3974(2)
C110_6 C 0.90058(24) 0.67871(17) 0.3579(2)
H52_6 H 0.9287 0.6964 0.3677
C111_6 C 0.90401(25) 0.59639(18) 0.0087(2)
C112_6 C 0.90538(25) 0.58321(17) 0.1200(3)
H54_6 H 0.9070 0.5793 0.1577
C113_6 C 0.89003(25) 0.66632(18) 0.3027(2)
H55_6 H 0.9112 0.6765 0.2759
C114_6 C 0.82737(27) 0.6379(2) 0.3823(2)
H56_6 H 0.8061 0.6293 0.4086
C115_6 C 0.92763(25) 0.57214(17) 0.0826(3)
H57_6 H 0.9437 0.5606 0.0958
C117_6 C 0.7050(6) 0.6875(4) 0.4814(5)
C118_6 C 0.7666(4) 0.7109(3) 0.5519(4)
C119_6 C 0.7642(4) 0.6729(3) 0.4710(4)
C120_6 C 0.7360(6) 0.7219(4) 0.5903(6)
H65_6 H 0.921586 0.961221 0.57541
H79_6 H 0.742031 0.639035 0.469212
H80_6 H 0.793613 0.678577 0.489969
H81_6 H 0.77048 0.685956 0.42935
H82_6 H 0.718443 0.696259 0.619511
H83_6 H 0.713846 0.725594 0.563914
H84_6 H 0.755404 0.751211 0.612932
H85_6 H 0.679603 0.66845 0.510332
H86_6 H 0.697919 0.671859 0.441356
H87_6 H 0.707675 0.718488 0.477044
loop_
_geom_bond_atom_site_label_1
_geom_bond_atom_site_label_2
_geom_bond_site_symmetry_1
_geom_bond_site_symmetry_2
O21 C85 1_555 1_555
O22 C85 1_555 1_555
C84 C77 1_555 1_555
H42 C84 1_555 1_555
C85 C77 1_555 1_555
O24 C107 1_555 1_555
O27 C107 1_555 1_555
C107 C106 1_555 1_555
In6 O22 1_555 1_555
In8 O27 1_555 1_555
Mn5 O24 1_555 1_555
Mn9 O21 1_555 1_555
O3 C21 1_555 1_555
O6 C21 1_555 1_555
C2 H2 1_555 1_555
C3 C2 1_555 1_555
C4 H3 1_555 1_555
C5 H4 1_555 1_555
C6 H5 1_555 1_555
C7 C3 1_555 1_555
C8 H6 1_555 1_555
C9 C8 1_555 1_555
C10 C4 1_555 1_555
C12 H8 1_555 1_555
C14 C10 1_555 1_555
H9 C14 1_555 1_555
C15 C12 1_555 1_555
C16 C6 1_555 1_555
C17 C5 1_555 1_555
H10 C17 1_555 1_555
C19 C12 1_555 1_555
H11 C19 1_555 1_555
C20 C5 1_555 1_555
C21 C20 1_555 1_555
C31 C8 1_555 1_555
H15 C31 1_555 1_555
C32 C9 1_555 1_555
H16 C32 1_555 1_555
C33 C3 1_555 1_555
H17 C33 1_555 1_555
C59 H28 1_555 1_555
C60 C59 1_555 1_555
C61 H29 1_555 1_555
C62 H30 1_555 1_555
C63 H31 1_555 1_555
C64 C60 1_555 1_555
C65 H32 1_555 1_555
C66 C65 1_555 1_555
C67 C61 1_555 1_555
C68 H33 1_555 1_555
C70 C67 1_555 1_555
H34 C70 1_555 1_555
C71 C68 1_555 1_555
C72 C63 1_555 1_555
C73 C62 1_555 1_555
H35 C73 1_555 1_555
C74 C68 1_555 1_555
C80 C65 1_555 1_555
H38 C80 1_555 1_555
C81 C66 1_555 1_555
H39 C81 1_555 1_555
C82 C60 1_555 1_555
H40 C82 1_555 1_555
O29 C116 1_555 1_555
O30 C116 1_555 1_555
C90 H43 1_555 1_555
C91 C90 1_555 1_555
C92 H44 1_555 1_555
C93 H45 1_555 1_555
C94 H46 1_555 1_555
C95 C91 1_555 1_555
C96 H47 1_555 1_555
C97 C96 1_555 1_555
C98 C92 1_555 1_555
C99 H48 1_555 1_555
C101 C98 1_555 1_555
H49 C101 1_555 1_555
C102 C99 1_555 1_555
C103 C94 1_555 1_555
C104 C93 1_555 1_555
H50 C104 1_555 1_555
C105 C99 1_555 1_555
C108 C111 1_555 1_555
C111 C96 1_555 1_555
H53 C111 1_555 1_555
C112 C97 1_555 1_555
H54 C112 1_555 1_555
C113 C91 1_555 1_555
H55 C113 1_555 1_555
C115 C108 1_555 1_555
H57 C115 1_555 1_555
C116 C108 1_555 1_555
In4 O30 1_555 1_555
In9 O6 1_555 1_555
Mn6 O3 1_555 1_555
Mn7 O29 1_555 1_555
C4 C7 1_555 1_555
C6 C7 1_555 1_555
C9 C10 1_555 1_555
C14 C16 1_555 1_555
C15 C16 1_555 1_555
C15 C17 1_555 1_555
C19 C20 1_555 1_555
C61 C64 1_555 1_555
C63 C64 1_555 1_555
C66 C67 1_555 1_555
C70 C72 1_555 1_555
C71 C72 1_555 1_555
C71 C73 1_555 1_555
C92 C95 1_555 1_555
C94 C95 1_555 1_555
C97 C98 1_555 1_555
C101 C103 1_555 1_555
C102 C103 1_555 1_555
C102 C104 1_555 1_555
C112 C115 1_555 1_555
O9 C36 1_555 1_555
O10 C36 1_555 1_555
C35 C28 1_555 1_555
H19 C35 1_555 1_555
C36 C28 1_555 1_555
O16 C76 1_555 1_555
O19 C76 1_555 1_555
C76 C75 1_555 1_555
In5 O10 1_555 1_555
In7 O19 1_555 1_555
Mn4 O16 1_555 1_555
Mn8 O9 1_555 1_555
Mn11 O38 1_555 1_555
C47 C54 1_555 1_555
O13 C52 1_555 1_555
O14 C52 1_555 1_555
C50 H24 1_555 1_555
C51 H25 1_555 1_555
C52 C58 1_555 1_555
C53 C50 1_555 1_555
H26 C53 1_555 1_555
C55 C51 1_555 1_555
H27 C55 1_555 1_555
C57 C50 1_555 1_555
C58 C53 1_555 1_555
In6 O14 1_555 1_555
Mn6 O13 1_555 1_555
O23 Mn6 1_555 1_555
O33 C107_2 1_555 1_555
O25 In6 1_555 1_555
O26 In6 1_555 1_555
O27_2 C107_2 1_555 1_555
O28 In6 1_555 1_555
N3 C117 1_555 1_555
C90_2 H43_2 1_555 1_555
C91_2 C90_2 1_555 1_555
C92_2 H44_2 1_555 1_555
C93_2 H45_2 1_555 1_555
C94_2 H46_2 1_555 1_555
C95_2 C91_2 1_555 1_555
C96_2 H47_2 1_555 1_555
C97_2 C96_2 1_555 1_555
C98_2 C92_2 1_555 1_555
C99_2 H48_2 1_555 1_555
C100 O25 1_555 1_555
C101_2 C98_2 1_555 1_555
H49_2 C101_2 1_555 1_555
C102_2 C99_2 1_555 1_555
C103_2 C94_2 1_555 1_555
C104_2 C93_2 1_555 1_555
H50_2 C104_2 1_555 1_555
C105_2 C99_2 1_555 1_555
H51_2 C105_2 1_555 1_555
C106_2 C93_2 1_555 1_555
C107_2 C106_2 1_555 1_555
C108_2 C111_2 1_555 1_555
C109 C100 1_555 1_555
C110 C109 1_555 1_555
H52 C110 1_555 1_555
C111_2 C96_2 1_555 1_555
C112_2 C97_2 1_555 1_555
H54_2 C112_2 1_555 1_555
C113_2 C91_2 1_555 1_555
H55_2 C113_2 1_555 1_555
C114 C90_2 1_555 1_555
H56 C114 1_555 1_555
C115_2 C108_2 1_555 1_555
H57_2 C115_2 1_555 1_555
C118 O23 1_555 1_555
C119 N3 1_555 1_555
C120 C118 1_555 1_555
In8_2 O27_2 1_555 1_555
Mn9 O28 1_555 1_555
O34 In6 1_555 1_555
O39_2 Mn6 1_555 1_555
O41 Mn6 1_555 1_555
C51 C57 1_555 1_555
C54 C57 1_555 1_555
C55 C58 1_555 1_555
Mn6 O28 1_555 1_555
O26 C100 1_555 1_555
N3 C118 1_555 1_555
C92_2 C95_2 1_555 1_555
C94_2 C95_2 1_555 1_555
C97_2 C98_2 1_555 1_555
C101_2 C103_2 1_555 1_555
C102_2 C103_2 1_555 1_555
C102_2 C104_2 1_555 1_555
C105_2 C106_2 1_555 1_555
C109 C114 1_555 1_555
C110 C113_2 1_555 1_555
C112_2 C115_2 1_555 1_555
Mn9 O39_2 1_555 1_555
C47 H65 1_555 1_555
C119 H79 1_555 1_555
C119 H80 1_555 1_555
C119 H81 1_555 1_555
C120 H82 1_555 1_555
C120 H83 1_555 1_555
C120 H84 1_555 1_555
C117 H85 1_555 1_555
C117 H86 1_555 1_555
C117 H87 1_555 1_555
O11 C43 1_555 1_555
O12 C43 1_555 1_555
C41 H20 1_555 1_555
C42 H21 1_555 1_555
C43 C49 1_555 1_555
C44 C41 1_555 1_555
H22 C44 1_555 1_555
C46 C42 1_555 1_555
H23 C46 1_555 1_555
C48 C41 1_555 1_555
C49 C44 1_555 1_555
In5 O12 1_555 1_555
Mn5 O11 1_555 1_555
O15 Mn5 1_555 1_555
O32 C76_2 1_555 1_555
O17 In5 1_555 1_555
O18 In5 1_555 1_555
O19_2 C76_2 1_555 1_555
O20 In5 1_555 1_555
N2 C86 1_555 1_555
C59_2 H28_2 1_555 1_555
C60_2 C59_2 1_555 1_555
C61_2 H29_2 1_555 1_555
C62_2 H30_2 1_555 1_555
C63_2 H31_2 1_555 1_555
C64_2 C60_2 1_555 1_555
C65_2 H32_2 1_555 1_555
C66_2 C65_2 1_555 1_555
C67_2 C61_2 1_555 1_555
C68_2 H33_2 1_555 1_555
C69 O17 1_555 1_555
C70_2 C67_2 1_555 1_555
H34_2 C70_2 1_555 1_555
C71_2 C68_2 1_555 1_555
C72_2 C63_2 1_555 1_555
C73_2 C62_2 1_555 1_555
H35_2 C73_2 1_555 1_555
C74_2 C68_2 1_555 1_555
H36_2 C74_2 1_555 1_555
C75_2 C62_2 1_555 1_555
C76_2 C75_2 1_555 1_555
C77_2 C80_2 1_555 1_555
C78 C69 1_555 1_555
C79 C78 1_555 1_555
H37 C79 1_555 1_555
C80_2 C65_2 1_555 1_555
C81_2 C66_2 1_555 1_555
H39_2 C81_2 1_555 1_555
C82_2 C60_2 1_555 1_555
H40_2 C82_2 1_555 1_555
C83 C59_2 1_555 1_555
H41 C83 1_555 1_555
C84_2 C77_2 1_555 1_555
H42_2 C84_2 1_555 1_555
C87 O15 1_555 1_555
C88 N2 1_555 1_555
C89 C87 1_555 1_555
Mn8 O20 1_555 1_555
O36 In5 1_555 1_555
O38_2 Mn5 1_555 1_555
O40 Mn5 1_555 1_555
C42 C48 1_555 1_555
C45 C48 1_555 1_555
C46 C49 1_555 1_555
Mn5 O20 1_555 1_555
O18 C69 1_555 1_555
N2 C87 1_555 1_555
C61_2 C64_2 1_555 1_555
C63_2 C64_2 1_555 1_555
C66_2 C67_2 1_555 1_555
C70_2 C72_2 1_555 1_555
C71_2 C72_2 1_555 1_555
C71_2 C73_2 1_555 1_555
C74_2 C75_2 1_555 1_555
C78 C83 1_555 1_555
C79 C82_2 1_555 1_555
C81_2 C84_2 1_555 1_555
Mn8 O38_2 1_555 1_555
C89 H70 1_555 1_555
C89 H72 1_555 1_555
C86 H73 1_555 1_555
C86 H74 1_555 1_555
C88 H76 1_555 1_555
C88 H77 1_555 1_555
C88 H78 1_555 1_555
C56 H69 1_555 1_555
In4 O4 1_555 1_555
Mn4 O1 1_555 1_555
O1 C18 1_555 1_555
O2 Mn4 1_555 1_555
O31 C21_2 1_555 1_555
O4 C13 1_555 1_555
O5 In4 1_555 1_555
O6_2 C21_2 1_555 1_555
O7 In4 1_555 1_555
O8 In4 1_555 1_555
N1 C37 1_555 1_555
C1 H1 1_555 1_555
C2_2 H2_2 1_555 1_555
C3_2 C2_2 1_555 1_555
C4_2 H3_2 1_555 1_555
C5_2 H4_2 1_555 1_555
C6_2 H5_2 1_555 1_555
C7_2 C3_2 1_555 1_555
C8_2 H6_2 1_555 1_555
C9_2 C8_2 1_555 1_555
C10_2 C4_2 1_555 1_555
C11 H7 1_555 1_555
C12_2 H8_2 1_555 1_555
C13 O5 1_555 1_555
C14_2 C10_2 1_555 1_555
H9_2 C14_2 1_555 1_555
C15_2 C12_2 1_555 1_555
C16_2 C6_2 1_555 1_555
C17_2 C5_2 1_555 1_555
H10_2 C17_2 1_555 1_555
C18 O7 1_555 1_555
C19_2 C12_2 1_555 1_555
H11_2 C19_2 1_555 1_555
C20_2 C5_2 1_555 1_555
C21_2 C20_2 1_555 1_555
C22 C1 1_555 1_555
H12 C22 1_555 1_555
C23 C25 1_555 1_555
C24 C11 1_555 1_555
H13 C24 1_555 1_555
C26 C1 1_555 1_555
C27 C18 1_555 1_555
C28_2 C31_2 1_555 1_555
C29 C13 1_555 1_555
C30 C29 1_555 1_555
H14 C30 1_555 1_555
C31_2 C8_2 1_555 1_555
C32_2 C9_2 1_555 1_555
H16_2 C32_2 1_555 1_555
C33_2 C3_2 1_555 1_555
H17_2 C33_2 1_555 1_555
C34 C2_2 1_555 1_555
H18 C34 1_555 1_555
C35_2 C28_2 1_555 1_555
H19_2 C35_2 1_555 1_555
C38 O2 1_555 1_555
C39 N1 1_555 1_555
C40 C38 1_555 1_555
Mn11 O9_2 1_555 1_555
Mn7 O8 1_555 1_555
O35 In4 1_555 1_555
O37_2 Mn4 1_555 1_555
O42 Mn4 1_555 1_555
Mn4 O8 1_555 1_555
N1 C38 1_555 1_555
C4_2 C7_2 1_555 1_555
C6_2 C7_2 1_555 1_555
C9_2 C10_2 1_555 1_555
C11 C26 1_555 1_555
C14_2 C16_2 1_555 1_555
C15_2 C16_2 1_555 1_555
C15_2 C17_2 1_555 1_555
C19_2 C20_2 1_555 1_555
C22 C27 1_555 1_555
C23 C26 1_555 1_555
C24 C27 1_555 1_555
C29 C34 1_555 1_555
C30 C33_2 1_555 1_555
C32_2 C35_2 1_555 1_555
Mn7 O37_2 1_555 1_555
C25 H58 1_555 1_555
C37 H59 1_555 1_555
C37 H60 1_555 1_555
C40 H62 1_555 1_555
C40 H64 1_555 1_555
C39 H66 1_555 1_555
C39 H67 1_555 1_555
C39 H68 1_555 1_555
In7 O4_2 1_555 1_555
Mn7 O1_2 1_555 1_555
O1_2 C18_2 1_555 1_555
O2_2 Mn7 1_555 1_555
O4_2 C13_2 1_555 1_555
O5_2 In7 1_555 1_555
O7_2 In7 1_555 1_555
O37_2 In7 1_555 1_555
N1_2 C37_2 1_555 1_555
C1_2 H1_2 1_555 1_555
C11_2 H7_2 1_555 1_555
C13_2 O5_2 1_555 1_555
C18_2 O7_2 1_555 1_555
C22_2 C1_2 1_555 1_555
H12_2 C22_2 1_555 1_555
C23_2 C25_2 1_555 1_555
C24_2 C11_2 1_555 1_555
H13_2 C24_2 1_555 1_555
C25_2 C45_2 1_555 1_555
C26_2 C1_2 1_555 1_555
C27_2 C18_2 1_555 1_555
C29_2 C13_2 1_555 1_555
C30_2 C29_2 1_555 1_555
H14_2 C30_2 1_555 1_555
H18_2 C34_2 1_555 1_555
C38_2 O2_2 1_555 1_555
C39_2 N1_2 1_555 1_555
C40_2 C38_2 1_555 1_555
O11_2 C43_2 1_555 1_555
O12_2 C43_2 1_555 1_555
C41_2 H20_2 1_555 1_555
C42_2 H21_2 1_555 1_555
C43_2 C49_2 1_555 1_555
C44_2 C41_2 1_555 1_555
H22_2 C44_2 1_555 1_555
C45_2 C47_2 1_555 1_555
C46_2 C42_2 1_555 1_555
H23_2 C46_2 1_555 1_555
C47_2 C54_2 1_555 1_555
C48_2 C41_2 1_555 1_555
C49_2 C44_2 1_555 1_555
O13_2 C52_2 1_555 1_555
O14_2 C52_2 1_555 1_555
C50_2 H24_2 1_555 1_555
C51_2 H25_2 1_555 1_555
C52_2 C58_2 1_555 1_555
C53_2 C50_2 1_555 1_555
H26_2 C53_2 1_555 1_555
C54_2 C56_2 1_555 1_555
C55_2 C51_2 1_555 1_555
H27_2 C55_2 1_555 1_555
C56_2 C23_2 1_555 1_555
C57_2 C50_2 1_555 1_555
C58_2 C53_2 1_555 1_555
In8 O12_2 1_555 1_555
Mn8 O11_2 1_555 1_555
O15_2 Mn8 1_555 1_555
O17_2 In8 1_555 1_555
O18_2 In8 1_555 1_555
O38_2 In8 1_555 1_555
N2_2 C86_2 1_555 1_555
C69_2 O17_2 1_555 1_555
C78_2 C69_2 1_555 1_555
C79_2 C78_2 1_555 1_555
H37_2 C79_2 1_555 1_555
H41_2 C83_2 1_555 1_555
C87_2 O15_2 1_555 1_555
C88_2 N2_2 1_555 1_555
C89_2 C87_2 1_555 1_555
In9 O14_2 1_555 1_555
Mn9 O13_2 1_555 1_555
O23_2 Mn9 1_555 1_555
O25_2 In9 1_555 1_555
O26_2 In9 1_555 1_555
O39_2 In9 1_555 1_555
N3_2 C117_2 1_555 1_555
C100_2 O25_2 1_555 1_555
C109_2 C100_2 1_555 1_555
C110_2 C109_2 1_555 1_555
H52_2 C110_2 1_555 1_555
H56_2 C114_2 1_555 1_555
C118_2 O23_2 1_555 1_555
C119_2 N3_2 1_555 1_555
C120_2 C118_2 1_555 1_555
O31_2 Mn9 1_555 1_555
O32_2 Mn7 1_555 1_555
O33_2 Mn8 1_555 1_555
O43 In8 1_555 1_555
O44 In9 1_555 1_555
O45 In7 1_555 1_555
N1_2 C38_2 1_555 1_555
C11_2 C26_2 1_555 1_555
C22_2 C27_2 1_555 1_555
C23_2 C26_2 1_555 1_555
C24_2 C27_2 1_555 1_555
C29_2 C34_2 1_555 1_555
C42_2 C48_2 1_555 1_555
C45_2 C48_2 1_555 1_555
C46_2 C49_2 1_555 1_555
C51_2 C57_2 1_555 1_555
C54_2 C57_2 1_555 1_555
C55_2 C58_2 1_555 1_555
O18_2 C69_2 1_555 1_555
N2_2 C87_2 1_555 1_555
C78_2 C83_2 1_555 1_555
O26_2 C100_2 1_555 1_555
N3_2 C118_2 1_555 1_555
C109_2 C114_2 1_555 1_555
C25_2 H58_2 1_555 1_555
C37_2 H59_2 1_555 1_555
C37_2 H60_2 1_555 1_555
C37_2 H61_2 1_555 1_555
C40_2 H62_2 1_555 1_555
C40_2 H63_2 1_555 1_555
C40_2 H64_2 1_555 1_555
C47_2 H65_2 1_555 1_555
C39_2 H66_2 1_555 1_555
C39_2 H67_2 1_555 1_555
C39_2 H68_2 1_555 1_555
C56_2 H69_2 1_555 1_555
C89_2 H70_2 1_555 1_555
C89_2 H71_2 1_555 1_555
C89_2 H72_2 1_555 1_555
C86_2 H73_2 1_555 1_555
C86_2 H74_2 1_555 1_555
C86_2 H75_2 1_555 1_555
C88_2 H76_2 1_555 1_555
C88_2 H77_2 1_555 1_555
C88_2 H78_2 1_555 1_555
C119_2 H79_2 1_555 1_555
C119_2 H80_2 1_555 1_555
C119_2 H81_2 1_555 1_555
C120_2 H82_2 1_555 1_555
C120_2 H83_2 1_555 1_555
C120_2 H84_2 1_555 1_555
C117_2 H85_2 1_555 1_555
C117_2 H86_2 1_555 1_555
C117_2 H87_2 1_555 1_555
O31_2 C21_3 1_555 1_555
O34 C21_3 1_555 1_555
O40 C36_2 1_555 1_555
O43 C36_2 1_555 1_555
C2_3 H2_3 1_555 1_555
C3_3 C2_3 1_555 1_555
C4_3 H3_3 1_555 1_555
C5_3 H4_3 1_555 1_555
C6_3 H5_3 1_555 1_555
C7_3 C3_3 1_555 1_555
C8_3 H6_3 1_555 1_555
C9_3 C8_3 1_555 1_555
C10_3 C4_3 1_555 1_555
C12_3 H8_3 1_555 1_555
C14_3 C10_3 1_555 1_555
H9_3 C14_3 1_555 1_555
C15_3 C12_3 1_555 1_555
C16_3 C6_3 1_555 1_555
C17_3 C5_3 1_555 1_555
H10_3 C17_3 1_555 1_555
C19_3 C12_3 1_555 1_555
H11_3 C19_3 1_555 1_555
C20_3 C5_3 1_555 1_555
C21_3 C20_3 1_555 1_555
C28_3 C31_3 1_555 1_555
C31_3 C8_3 1_555 1_555
H15_2 C31_3 1_555 1_555
C32_3 C9_3 1_555 1_555
H16_3 C32_3 1_555 1_555
C33_3 C3_3 1_555 1_555
C34_3 C2_3 1_555 1_555
H18_3 C34_3 1_555 1_555
C35_3 C28_3 1_555 1_555
H19_3 C35_3 1_555 1_555
C36_2 C28_3 1_555 1_555
C4_3 C7_3 1_555 1_555
C6_3 C7_3 1_555 1_555
C9_3 C10_3 1_555 1_555
C14_3 C16_3 1_555 1_555
C15_3 C16_3 1_555 1_555
C15_3 C17_3 1_555 1_555
C19_3 C20_3 1_555 1_555
C29_3 C34_3 1_555 1_555
C32_3 C35_3 1_555 1_555
Mn10 O1_3 1_555 1_555
O1_3 C18_3 1_555 1_555
O2_3 Mn10 1_555 1_555
O5_3 In7_2 1_555 1_555
O7_3 In7_2 1_555 1_555
N1_3 C37_3 1_555 1_555
C1_3 H1_3 1_555 1_555
C11_3 H7_3 1_555 1_555
C13_3 O5_3 1_555 1_555
C18_3 O7_3 1_555 1_555
C22_3 C1_3 1_555 1_555
H12_3 C22_3 1_555 1_555
C23_3 C25_3 1_555 1_555
C24_3 C11_3 1_555 1_555
H13_3 C24_3 1_555 1_555
C25_3 C45_3 1_555 1_555
C26_3 C1_3 1_555 1_555
C27_3 C18_3 1_555 1_555
H14_3 C30_3 1_555 1_555
C38_3 O2_3 1_555 1_555
C39_3 N1_3 1_555 1_555
C40_3 C38_3 1_555 1_555
O11_3 C43_3 1_555 1_555
O12_3 C43_3 1_555 1_555
C41_3 H20_3 1_555 1_555
C42_3 H21_3 1_555 1_555
C43_3 C49_3 1_555 1_555
C44_3 C41_3 1_555 1_555
H22_3 C44_3 1_555 1_555
C45_3 C47_3 1_555 1_555
C46_3 C42_3 1_555 1_555
H23_3 C46_3 1_555 1_555
C47_3 C54_3 1_555 1_555
C48_3 C41_3 1_555 1_555
C49_3 C44_3 1_555 1_555
O13_3 C52_3 1_555 1_555
O14_3 C52_3 1_555 1_555
C50_3 H24_3 1_555 1_555
C51_3 H25_3 1_555 1_555
C52_3 C58_3 1_555 1_555
C53_3 C50_3 1_555 1_555
H26_3 C53_3 1_555 1_555
C54_3 C56_3 1_555 1_555
C55_3 C51_3 1_555 1_555
H27_3 C55_3 1_555 1_555
C56_3 C23_3 1_555 1_555
C57_3 C50_3 1_555 1_555
C58_3 C53_3 1_555 1_555
In8_2 O12_3 1_555 1_555
Mn11 O11_3 1_555 1_555
O15_3 Mn11 1_555 1_555
O32_2 C76_3 1_555 1_555
O17_3 In8_2 1_555 1_555
O18_3 In8_2 1_555 1_555
O35 C76_3 1_555 1_555
O38 In8_2 1_555 1_555
O41 C85_2 1_555 1_555
O44 C85_2 1_555 1_555
N2_3 C86_3 1_555 1_555
C59_3 H28_3 1_555 1_555
C60_3 C59_3 1_555 1_555
C61_3 H29_3 1_555 1_555
C62_3 H30_3 1_555 1_555
C63_3 H31_3 1_555 1_555
C64_3 C60_3 1_555 1_555
C65_3 H32_3 1_555 1_555
C66_3 C65_3 1_555 1_555
C67_3 C61_3 1_555 1_555
C68_3 H33_3 1_555 1_555
C69_3 O17_3 1_555 1_555
C70_3 C67_3 1_555 1_555
H34_3 C70_3 1_555 1_555
C71_3 C68_3 1_555 1_555
C72_3 C63_3 1_555 1_555
C73_3 C62_3 1_555 1_555
H35_3 C73_3 1_555 1_555
C74_3 C68_3 1_555 1_555
H36_3 C74_3 1_555 1_555
C75_3 C62_3 1_555 1_555
C76_3 C75_3 1_555 1_555
C77_3 C80_3 1_555 1_555
C78_3 C69_3 1_555 1_555
C79_3 C78_3 1_555 1_555
H37_3 C79_3 1_555 1_555
C80_3 C65_3 1_555 1_555
H38_2 C80_3 1_555 1_555
C81_3 C66_3 1_555 1_555
H39_3 C81_3 1_555 1_555
C82_3 C60_3 1_555 1_555
H40_3 C82_3 1_555 1_555
C83_3 C59_3 1_555 1_555
H41_3 C83_3 1_555 1_555
C84_3 C77_3 1_555 1_555
H42_3 C84_3 1_555 1_555
C85_2 C77_3 1_555 1_555
C87_3 O15_3 1_555 1_555
C88_3 N2_3 1_555 1_555
C89_3 C87_3 1_555 1_555
In9_2 O14_3 1_555 1_555
Mn12 O13_3 1_555 1_555
O23_3 Mn12 1_555 1_555
O26_3 In9_2 1_555 1_555
N3_3 C117_3 1_555 1_555
H52_3 C110_3 1_555 1_555
C118_3 O23_3 1_555 1_555
C119_3 N3_3 1_555 1_555
C120_3 C118_3 1_555 1_555
O43_2 In8_2 1_555 1_555
O44_2 In9_2 1_555 1_555
O45_2 In7_2 1_555 1_555
N1_3 C38_3 1_555 1_555
C11_3 C26_3 1_555 1_555
C22_3 C27_3 1_555 1_555
C23_3 C26_3 1_555 1_555
C24_3 C27_3 1_555 1_555
C42_3 C48_3 1_555 1_555
C45_3 C48_3 1_555 1_555
C46_3 C49_3 1_555 1_555
C51_3 C57_3 1_555 1_555
C54_3 C57_3 1_555 1_555
C55_3 C58_3 1_555 1_555
O18_3 C69_3 1_555 1_555
N2_3 C87_3 1_555 1_555
C61_3 C64_3 1_555 1_555
C63_3 C64_3 1_555 1_555
C66_3 C67_3 1_555 1_555
C70_3 C72_3 1_555 1_555
C71_3 C72_3 1_555 1_555
C71_3 C73_3 1_555 1_555
C74_3 C75_3 1_555 1_555
C78_3 C83_3 1_555 1_555
C79_3 C82_3 1_555 1_555
C81_3 C84_3 1_555 1_555
O26_3 C100_3 1_555 1_555
N3_3 C118_3 1_555 1_555
C25_3 H58_3 1_555 1_555
C37_3 H59_3 1_555 1_555
C37_3 H60_3 1_555 1_555
C37_3 H61_3 1_555 1_555
C40_3 H62_3 1_555 1_555
C40_3 H63_3 1_555 1_555
C40_3 H64_3 1_555 1_555
C47_3 H65_3 1_555 1_555
C39_3 H67_3 1_555 1_555
C39_3 H68_3 1_555 1_555
C56_3 H69_3 1_555 1_555
C89_3 H70_3 1_555 1_555
C89_3 H71_3 1_555 1_555
C89_3 H72_3 1_555 1_555
C86_3 H73_3 1_555 1_555
C86_3 H74_3 1_555 1_555
C86_3 H75_3 1_555 1_555
C88_3 H76_3 1_555 1_555
C88_3 H77_3 1_555 1_555
C88_3 H78_3 1_555 1_555
C119_3 H80_3 1_555 1_555
C119_3 H81_3 1_555 1_555
C120_3 H82_3 1_555 1_555
C120_3 H83_3 1_555 1_555
C120_3 H84_3 1_555 1_555
C117_3 H85_3 1_555 1_555
C117_3 H86_3 1_555 1_555
C117_3 H87_3 1_555 1_555
O33_2 C107_3 1_555 1_555
O36 C107_3 1_555 1_555
O42 C116_2 1_555 1_555
O45 C116_2 1_555 1_555
C90_3 H43_3 1_555 1_555
C91_3 C90_3 1_555 1_555
C92_3 H44_3 1_555 1_555
C93_3 H45_3 1_555 1_555
C94_3 H46_3 1_555 1_555
C95_3 C91_3 1_555 1_555
C96_3 H47_3 1_555 1_555
C97_3 C96_3 1_555 1_555
C98_3 C92_3 1_555 1_555
C99_3 H48_3 1_555 1_555
C101_3 C98_3 1_555 1_555
H49_3 C101_3 1_555 1_555
C102_3 C99_3 1_555 1_555
C103_3 C94_3 1_555 1_555
C104_3 C93_3 1_555 1_555
H50_3 C104_3 1_555 1_555
C105_3 C99_3 1_555 1_555
H51_3 C105_3 1_555 1_555
C106_3 C93_3 1_555 1_555
C107_3 C106_3 1_555 1_555
C108_3 C111_3 1_555 1_555
C111_3 C96_3 1_555 1_555
H53_2 C111_3 1_555 1_555
C112_3 C97_3 1_555 1_555
H54_3 C112_3 1_555 1_555
C113_3 C91_3 1_555 1_555
C114_3 C90_3 1_555 1_555
H56_3 C114_3 1_555 1_555
C115_3 C108_3 1_555 1_555
H57_3 C115_3 1_555 1_555
C116_2 C108_3 1_555 1_555
C92_3 C95_3 1_555 1_555
C94_3 C95_3 1_555 1_555
C97_3 C98_3 1_555 1_555
C101_3 C103_3 1_555 1_555
C102_3 C103_3 1_555 1_555
C102_3 C104_3 1_555 1_555
C105_3 C106_3 1_555 1_555
C109_3 C114_3 1_555 1_555
C112_3 C115_3 1_555 1_555
O43_2 C36_3 1_555 1_555
O44_2 C85_3 1_555 1_555
O45_2 C116_3 1_555 1_555
In1 O4_4 1_555 1_555
Mn1 O1_4 1_555 1_555
O1_4 C18_4 1_555 1_555
O2_4 Mn1 1_555 1_555
O4_4 C13_4 1_555 1_555
O5_4 In1 1_555 1_555
O7_4 In1 1_555 1_555
O8_2 In1 1_555 1_555
N1_4 C37_4 1_555 1_555
C1_4 H1_4 1_555 1_555
C11_4 H7_4 1_555 1_555
C13_4 O5_4 1_555 1_555
C18_4 O7_4 1_555 1_555
C22_4 C1_4 1_555 1_555
H12_4 C22_4 1_555 1_555
C23_4 C25_4 1_555 1_555
C24_4 C11_4 1_555 1_555
H13_4 C24_4 1_555 1_555
C25_4 C45_4 1_555 1_555
C26_4 C1_4 1_555 1_555
C27_4 C18_4 1_555 1_555
C29_4 C13_4 1_555 1_555
C30_4 C29_4 1_555 1_555
H14_4 C30_4 1_555 1_555
H18_4 C34_4 1_555 1_555
C38_4 O2_4 1_555 1_555
C39_4 N1_4 1_555 1_555
C40_4 C38_4 1_555 1_555
O11_4 C43_4 1_555 1_555
O12_4 C43_4 1_555 1_555
C41_4 H20_4 1_555 1_555
C42_4 H21_4 1_555 1_555
C43_4 C49_4 1_555 1_555
C44_4 C41_4 1_555 1_555
H22_4 C44_4 1_555 1_555
C45_4 C47_4 1_555 1_555
C46_4 C42_4 1_555 1_555
H23_4 C46_4 1_555 1_555
C47_4 C54_4 1_555 1_555
C48_4 C41_4 1_555 1_555
C49_4 C44_4 1_555 1_555
O13_4 C52_4 1_555 1_555
O14_4 C52_4 1_555 1_555
C50_4 H24_4 1_555 1_555
C51_4 H25_4 1_555 1_555
C52_4 C58_4 1_555 1_555
C53_4 C50_4 1_555 1_555
H26_4 C53_4 1_555 1_555
C54_4 C56_4 1_555 1_555
C55_4 C51_4 1_555 1_555
H27_4 C55_4 1_555 1_555
C56_4 C23_4 1_555 1_555
C57_4 C50_4 1_555 1_555
C58_4 C53_4 1_555 1_555
In2 O12_4 1_555 1_555
Mn2 O11_4 1_555 1_555
O15_4 Mn2 1_555 1_555
O17_4 In2 1_555 1_555
O18_4 In2 1_555 1_555
O20_2 In2 1_555 1_555
N2_4 C86_4 1_555 1_555
C69_4 O17_4 1_555 1_555
C78_4 C69_4 1_555 1_555
C79_4 C78_4 1_555 1_555
H37_4 C79_4 1_555 1_555
H41_4 C83_4 1_555 1_555
C87_4 O15_4 1_555 1_555
C88_4 N2_4 1_555 1_555
C89_4 C87_4 1_555 1_555
In3 O14_4 1_555 1_555
Mn3 O13_4 1_555 1_555
O23_4 Mn3 1_555 1_555
O25_4 In3 1_555 1_555
O26_4 In3 1_555 1_555
O28_2 In3 1_555 1_555
N3_4 C117_4 1_555 1_555
C100_4 O25_4 1_555 1_555
C109_4 C100_4 1_555 1_555
C110_4 C109_4 1_555 1_555
H52_4 C110_4 1_555 1_555
H56_4 C114_4 1_555 1_555
C118_4 O23_4 1_555 1_555
C119_4 N3_4 1_555 1_555
C120_4 C118_4 1_555 1_555
Mn10_2 O8_2 1_555 1_555
Mn11_2 O20_2 1_555 1_555
Mn12_2 O28_2 1_555 1_555
O31_3 Mn3 1_555 1_555
O32_3 Mn1 1_555 1_555
O33_3 Mn2 1_555 1_555
O34_2 In3 1_555 1_555
O35_2 In1 1_555 1_555
O36_2 In2 1_555 1_555
O37_3 Mn1 1_555 1_555
O38_3 Mn2 1_555 1_555
O39_3 Mn3 1_555 1_555
O40_2 Mn2 1_555 1_555
O41_2 Mn3 1_555 1_555
O42_2 Mn1 1_555 1_555
O43_3 In2 1_555 1_555
O44_3 In3 1_555 1_555
O45_3 In1 1_555 1_555
Mn1 O8_2 1_555 1_555
N1_4 C38_4 1_555 1_555
C11_4 C26_4 1_555 1_555
C22_4 C27_4 1_555 1_555
C23_4 C26_4 1_555 1_555
C24_4 C27_4 1_555 1_555
C29_4 C34_4 1_555 1_555
C42_4 C48_4 1_555 1_555
C45_4 C48_4 1_555 1_555
C46_4 C49_4 1_555 1_555
C51_4 C57_4 1_555 1_555
C54_4 C57_4 1_555 1_555
C55_4 C58_4 1_555 1_555
Mn2 O20_2 1_555 1_555
O18_4 C69_4 1_555 1_555
N2_4 C87_4 1_555 1_555
C78_4 C83_4 1_555 1_555
Mn3 O28_2 1_555 1_555
O26_4 C100_4 1_555 1_555
N3_4 C118_4 1_555 1_555
C109_4 C114_4 1_555 1_555
Mn10_2 O37_3 1_555 1_555
Mn11_2 O38_3 1_555 1_555
Mn12_2 O39_3 1_555 1_555
C25_4 H58_4 1_555 1_555
C37_4 H59_4 1_555 1_555
C37_4 H60_4 1_555 1_555
C37_4 H61_4 1_555 1_555
C40_4 H62_4 1_555 1_555
C40_4 H63_4 1_555 1_555
C40_4 H64_4 1_555 1_555
C47_4 H65_4 1_555 1_555
C39_4 H66_4 1_555 1_555
C39_4 H67_4 1_555 1_555
C39_4 H68_4 1_555 1_555
C56_4 H69_4 1_555 1_555
C89_4 H70_4 1_555 1_555
C89_4 H71_4 1_555 1_555
C89_4 H72_4 1_555 1_555
C86_4 H73_4 1_555 1_555
C86_4 H74_4 1_555 1_555
C86_4 H75_4 1_555 1_555
C88_4 H76_4 1_555 1_555
C88_4 H77_4 1_555 1_555
C88_4 H78_4 1_555 1_555
C119_4 H79_4 1_555 1_555
C119_4 H80_4 1_555 1_555
C119_4 H81_4 1_555 1_555
C120_4 H82_4 1_555 1_555
C120_4 H83_4 1_555 1_555
C120_4 H84_4 1_555 1_555
C117_4 H85_4 1_555 1_555
C117_4 H86_4 1_555 1_555
C117_4 H87_4 1_555 1_555
O33_3 C107_4 1_555 1_555
O27_3 C107_4 1_555 1_555
O29_3 C116_4 1_555 1_555
O45_3 C116_4 1_555 1_555
C90_4 H43_4 1_555 1_555
C91_4 C90_4 1_555 1_555
C92_4 H44_4 1_555 1_555
C93_4 H45_4 1_555 1_555
C94_4 H46_4 1_555 1_555
C95_4 C91_4 1_555 1_555
C96_4 H47_4 1_555 1_555
C97_4 C96_4 1_555 1_555
C98_4 C92_4 1_555 1_555
C99_4 H48_4 1_555 1_555
C101_4 C98_4 1_555 1_555
H49_4 C101_4 1_555 1_555
C102_4 C99_4 1_555 1_555
C103_4 C94_4 1_555 1_555
C104_4 C93_4 1_555 1_555
H50_4 C104_4 1_555 1_555
C105_4 C99_4 1_555 1_555
H51_4 C105_4 1_555 1_555
C106_4 C93_4 1_555 1_555
C107_4 C106_4 1_555 1_555
C108_4 C111_4 1_555 1_555
C111_4 C96_4 1_555 1_555
H53_4 C111_4 1_555 1_555
C112_4 C97_4 1_555 1_555
H54_4 C112_4 1_555 1_555
C113_4 C91_4 1_555 1_555
C114_5 C90_4 1_555 1_555
H56_5 C114_5 1_555 1_555
C115_4 C108_4 1_555 1_555
H57_4 C115_4 1_555 1_555
C116_4 C108_4 1_555 1_555
In8_3 O27_3 1_555 1_555
Mn10_2 O29_3 1_555 1_555
C92_4 C95_4 1_555 1_555
C94_4 C95_4 1_555 1_555
C97_4 C98_4 1_555 1_555
C101_4 C103_4 1_555 1_555
C102_4 C103_4 1_555 1_555
C102_4 C104_4 1_555 1_555
C105_4 C106_4 1_555 1_555
C109_5 C114_5 1_555 1_555
C112_4 C115_4 1_555 1_555
Mn1_2 O1_5 1_555 1_555
O1_5 C18_5 1_555 1_555
O2_5 Mn1_2 1_555 1_555
O5_5 In1_2 1_555 1_555
O7_5 In1_2 1_555 1_555
N1_5 C37_5 1_555 1_555
C1_5 H1_5 1_555 1_555
C11_5 H7_5 1_555 1_555
C13_5 O5_5 1_555 1_555
C18_5 O7_5 1_555 1_555
C22_5 C1_5 1_555 1_555
H12_5 C22_5 1_555 1_555
C23_5 C25_5 1_555 1_555
C24_5 C11_5 1_555 1_555
H13_5 C24_5 1_555 1_555
C25_5 C45_5 1_555 1_555
C26_5 C1_5 1_555 1_555
C27_5 C18_5 1_555 1_555
H14_5 C30_5 1_555 1_555
C38_5 O2_5 1_555 1_555
C39_5 N1_5 1_555 1_555
C40_5 C38_5 1_555 1_555
O11_5 C43_5 1_555 1_555
O12_5 C43_5 1_555 1_555
C41_5 H20_5 1_555 1_555
C42_5 H21_5 1_555 1_555
C43_5 C49_5 1_555 1_555
C44_5 C41_5 1_555 1_555
H22_5 C44_5 1_555 1_555
C45_5 C47_5 1_555 1_555
C46_5 C42_5 1_555 1_555
H23_5 C46_5 1_555 1_555
C47_5 C54_5 1_555 1_555
C48_5 C41_5 1_555 1_555
C49_5 C44_5 1_555 1_555
O13_5 C52_5 1_555 1_555
O14_5 C52_5 1_555 1_555
C50_5 H24_5 1_555 1_555
C51_5 H25_5 1_555 1_555
C52_5 C58_5 1_555 1_555
C53_5 C50_5 1_555 1_555
H26_5 C53_5 1_555 1_555
C54_5 C56_5 1_555 1_555
C55_5 C51_5 1_555 1_555
H27_5 C55_5 1_555 1_555
C56_5 C23_5 1_555 1_555
C57_5 C50_5 1_555 1_555
C58_5 C53_5 1_555 1_555
In2_2 O12_5 1_555 1_555
Mn2_2 O11_5 1_555 1_555
O15_5 Mn2_2 1_555 1_555
O32_3 C76_4 1_555 1_555
O17_5 In2_2 1_555 1_555
O18_5 In2_2 1_555 1_555
O19_3 C76_4 1_555 1_555
O20_3 In2_2 1_555 1_555
O21_3 C85_4 1_555 1_555
O44_3 C85_4 1_555 1_555
N2_5 C86_5 1_555 1_555
C59_4 H28_4 1_555 1_555
C60_4 C59_4 1_555 1_555
C61_4 H29_4 1_555 1_555
C62_4 H30_4 1_555 1_555
C63_4 H31_4 1_555 1_555
C64_4 C60_4 1_555 1_555
C65_4 H32_4 1_555 1_555
C66_4 C65_4 1_555 1_555
C67_4 C61_4 1_555 1_555
C68_4 H33_4 1_555 1_555
C69_5 O17_5 1_555 1_555
C70_4 C67_4 1_555 1_555
H34_4 C70_4 1_555 1_555
C71_4 C68_4 1_555 1_555
C72_4 C63_4 1_555 1_555
C73_4 C62_4 1_555 1_555
H35_4 C73_4 1_555 1_555
C74_4 C68_4 1_555 1_555
H36_4 C74_4 1_555 1_555
C75_4 C62_4 1_555 1_555
C76_4 C75_4 1_555 1_555
C77_4 C80_4 1_555 1_555
C78_5 C69_5 1_555 1_555
C79_5 C78_5 1_555 1_555
H37_5 C79_5 1_555 1_555
C80_4 C65_4 1_555 1_555
H38_4 C80_4 1_555 1_555
C81_4 C66_4 1_555 1_555
H39_4 C81_4 1_555 1_555
C82_4 C60_4 1_555 1_555
H40_4 C82_4 1_555 1_555
C83_5 C59_4 1_555 1_555
H41_5 C83_5 1_555 1_555
C84_4 C77_4 1_555 1_555
H42_4 C84_4 1_555 1_555
C85_4 C77_4 1_555 1_555
C87_5 O15_5 1_555 1_555
C88_5 N2_5 1_555 1_555
C89_5 C87_5 1_555 1_555
In3_2 O14_5 1_555 1_555
Mn3_2 O13_5 1_555 1_555
O23_5 Mn3_2 1_555 1_555
O26_5 In3_2 1_555 1_555
N3_5 C117_5 1_555 1_555
H52_5 C110_5 1_555 1_555
C118_5 O23_5 1_555 1_555
C119_5 N3_5 1_555 1_555
C120_5 C118_5 1_555 1_555
In7_3 O19_3 1_555 1_555
Mn12_2 O21_3 1_555 1_555
O36_3 In2_2 1_555 1_555
O40_3 Mn2_2 1_555 1_555
O43_4 In2_2 1_555 1_555
O44_4 In3_2 1_555 1_555
O45_4 In1_2 1_555 1_555
N1_5 C38_5 1_555 1_555
C11_5 C26_5 1_555 1_555
C22_5 C27_5 1_555 1_555
C23_5 C26_5 1_555 1_555
C24_5 C27_5 1_555 1_555
C42_5 C48_5 1_555 1_555
C45_5 C48_5 1_555 1_555
C46_5 C49_5 1_555 1_555
C51_5 C57_5 1_555 1_555
C54_5 C57_5 1_555 1_555
C55_5 C58_5 1_555 1_555
Mn2_2 O20_3 1_555 1_555
O18_5 C69_5 1_555 1_555
N2_5 C87_5 1_555 1_555
C61_4 C64_4 1_555 1_555
C63_4 C64_4 1_555 1_555
C66_4 C67_4 1_555 1_555
C70_4 C72_4 1_555 1_555
C71_4 C72_4 1_555 1_555
C71_4 C73_4 1_555 1_555
C74_4 C75_4 1_555 1_555
C78_5 C83_5 1_555 1_555
C79_5 C82_4 1_555 1_555
C81_4 C84_4 1_555 1_555
O26_5 C100_5 1_555 1_555
N3_5 C118_5 1_555 1_555
C25_5 H58_5 1_555 1_555
C37_5 H59_5 1_555 1_555
C37_5 H60_5 1_555 1_555
C37_5 H61_5 1_555 1_555
C40_5 H62_5 1_555 1_555
C40_5 H63_5 1_555 1_555
C40_5 H64_5 1_555 1_555
C47_5 H65_5 1_555 1_555
C39_5 H67_5 1_555 1_555
C39_5 H68_5 1_555 1_555
C56_5 H69_5 1_555 1_555
C89_5 H70_5 1_555 1_555
C89_5 H71_5 1_555 1_555
C89_5 H72_5 1_555 1_555
C86_5 H73_5 1_555 1_555
C86_5 H74_5 1_555 1_555
C86_5 H75_5 1_555 1_555
C88_5 H76_5 1_555 1_555
C88_5 H77_5 1_555 1_555
C88_5 H78_5 1_555 1_555
C119_5 H80_5 1_555 1_555
C119_5 H81_5 1_555 1_555
C120_5 H82_5 1_555 1_555
C120_5 H83_5 1_555 1_555
C120_5 H84_5 1_555 1_555
C117_5 H85_5 1_555 1_555
C117_5 H86_5 1_555 1_555
C117_5 H87_5 1_555 1_555
O31_3 C21_4 1_555 1_555
O6_3 C21_4 1_555 1_555
O9_3 C36_4 1_555 1_555
O43_3 C36_4 1_555 1_555
C2_4 H2_4 1_555 1_555
C3_4 C2_4 1_555 1_555
C4_4 H3_4 1_555 1_555
C5_4 H4_4 1_555 1_555
C6_4 H5_4 1_555 1_555
C7_4 C3_4 1_555 1_555
C8_4 H6_4 1_555 1_555
C9_4 C8_4 1_555 1_555
C10_4 C4_4 1_555 1_555
C12_4 H8_4 1_555 1_555
C14_4 C10_4 1_555 1_555
H9_4 C14_4 1_555 1_555
C15_4 C12_4 1_555 1_555
C16_4 C6_4 1_555 1_555
C17_4 C5_4 1_555 1_555
H10_4 C17_4 1_555 1_555
C19_4 C12_4 1_555 1_555
H11_4 C19_4 1_555 1_555
C20_4 C5_4 1_555 1_555
C21_4 C20_4 1_555 1_555
C28_4 C31_4 1_555 1_555
C31_4 C8_4 1_555 1_555
H15_4 C31_4 1_555 1_555
C32_4 C9_4 1_555 1_555
H16_4 C32_4 1_555 1_555
C33_4 C3_4 1_555 1_555
C34_5 C2_4 1_555 1_555
H18_5 C34_5 1_555 1_555
C35_4 C28_4 1_555 1_555
H19_4 C35_4 1_555 1_555
C36_4 C28_4 1_555 1_555
In9_3 O6_3 1_555 1_555
Mn11_2 O9_3 1_555 1_555
C4_4 C7_4 1_555 1_555
C6_4 C7_4 1_555 1_555
C9_4 C10_4 1_555 1_555
C14_4 C16_4 1_555 1_555
C15_4 C16_4 1_555 1_555
C15_4 C17_4 1_555 1_555
C19_4 C20_4 1_555 1_555
C29_5 C34_5 1_555 1_555
C32_4 C35_4 1_555 1_555
O45_4 C116_5 1_555 1_555
O44_4 C85_5 1_555 1_555
O43_4 C36_5 1_555 1_555
O40_2 C36_6 1_555 1_555
O10_2 C36_6 1_555 1_555
C35_5 C28_5 1_555 1_555
H19_5 C35_5 1_555 1_555
C36_6 C28_5 1_555 1_555
O16_2 C76_5 1_555 1_555
O35_2 C76_5 1_555 1_555
C76_5 C75_5 1_555 1_555
In8_3 O10_2 1_555 1_555
Mn10_2 O16_2 1_555 1_555
O3_2 C21_5 1_555 1_555
O34_2 C21_5 1_555 1_555
C2_5 H2_5 1_555 1_555
C3_5 C2_5 1_555 1_555
C4_5 H3_5 1_555 1_555
C5_5 H4_5 1_555 1_555
C6_5 H5_5 1_555 1_555
C7_5 C3_5 1_555 1_555
C8_5 H6_5 1_555 1_555
C9_5 C8_5 1_555 1_555
C10_5 C4_5 1_555 1_555
C12_5 H8_5 1_555 1_555
C14_5 C10_5 1_555 1_555
H9_5 C14_5 1_555 1_555
C15_5 C12_5 1_555 1_555
C16_5 C6_5 1_555 1_555
C17_5 C5_5 1_555 1_555
H10_5 C17_5 1_555 1_555
C19_5 C12_5 1_555 1_555
H11_5 C19_5 1_555 1_555
C20_5 C5_5 1_555 1_555
C21_5 C20_5 1_555 1_555
C31_5 C8_5 1_555 1_555
H15_6 C31_5 1_555 1_555
C32_5 C9_5 1_555 1_555
H16_5 C32_5 1_555 1_555
C33_5 C3_5 1_555 1_555
H17_5 C33_5 1_555 1_555
C59_5 H28_5 1_555 1_555
C60_5 C59_5 1_555 1_555
C61_5 H29_5 1_555 1_555
C62_5 H30_5 1_555 1_555
C63_5 H31_5 1_555 1_555
C64_5 C60_5 1_555 1_555
C65_5 H32_5 1_555 1_555
C66_5 C65_5 1_555 1_555
C67_5 C61_5 1_555 1_555
C68_5 H33_5 1_555 1_555
C70_5 C67_5 1_555 1_555
H34_5 C70_5 1_555 1_555
C71_5 C68_5 1_555 1_555
C72_5 C63_5 1_555 1_555
C73_5 C62_5 1_555 1_555
H35_5 C73_5 1_555 1_555
C74_5 C68_5 1_555 1_555
C80_5 C65_5 1_555 1_555
H38_6 C80_5 1_555 1_555
C81_5 C66_5 1_555 1_555
H39_5 C81_5 1_555 1_555
C82_5 C60_5 1_555 1_555
H40_5 C82_5 1_555 1_555
O42_2 C116_6 1_555 1_555
O30_2 C116_6 1_555 1_555
C90_5 H43_5 1_555 1_555
C91_5 C90_5 1_555 1_555
C92_5 H44_5 1_555 1_555
C93_5 H45_5 1_555 1_555
C94_5 H46_5 1_555 1_555
C95_5 C91_5 1_555 1_555
C96_5 H47_5 1_555 1_555
C97_5 C96_5 1_555 1_555
C98_5 C92_5 1_555 1_555
C99_5 H48_5 1_555 1_555
C101_5 C98_5 1_555 1_555
H49_5 C101_5 1_555 1_555
C102_5 C99_5 1_555 1_555
C103_5 C94_5 1_555 1_555
C104_5 C93_5 1_555 1_555
H50_5 C104_5 1_555 1_555
C105_5 C99_5 1_555 1_555
C108_5 C111_5 1_555 1_555
C111_5 C96_5 1_555 1_555
H53_6 C111_5 1_555 1_555
C112_5 C97_5 1_555 1_555
H54_5 C112_5 1_555 1_555
C113_5 C91_5 1_555 1_555
H55_5 C113_5 1_555 1_555
C115_5 C108_5 1_555 1_555
H57_5 C115_5 1_555 1_555
C116_6 C108_5 1_555 1_555
In7_3 O30_2 1_555 1_555
Mn12_2 O3_2 1_555 1_555
C4_5 C7_5 1_555 1_555
C6_5 C7_5 1_555 1_555
C9_5 C10_5 1_555 1_555
C14_5 C16_5 1_555 1_555
C15_5 C16_5 1_555 1_555
C15_5 C17_5 1_555 1_555
C19_5 C20_5 1_555 1_555
C61_5 C64_5 1_555 1_555
C63_5 C64_5 1_555 1_555
C66_5 C67_5 1_555 1_555
C70_5 C72_5 1_555 1_555
C71_5 C72_5 1_555 1_555
C71_5 C73_5 1_555 1_555
C92_5 C95_5 1_555 1_555
C94_5 C95_5 1_555 1_555
C97_5 C98_5 1_555 1_555
C101_5 C103_5 1_555 1_555
C102_5 C103_5 1_555 1_555
C102_5 C104_5 1_555 1_555
C112_5 C115_5 1_555 1_555
O41_2 C85_6 1_555 1_555
O22_2 C85_6 1_555 1_555
C84_5 C77_5 1_555 1_555
H42_5 C84_5 1_555 1_555
C85_6 C77_5 1_555 1_555
O24_2 C107_5 1_555 1_555
O36_2 C107_5 1_555 1_555
C107_5 C106_5 1_555 1_555
In9_3 O22_2 1_555 1_555
Mn11_2 O24_2 1_555 1_555
In7_3 O4_6 1_555 1_555
Mn10_2 O1_6 1_555 1_555
O1_6 C18_6 1_555 1_555
O2_6 Mn10_2 1_555 1_555
O31_4 C21_6 1_555 1_555
O4_6 C13_6 1_555 1_555
O5_6 In7_3 1_555 1_555
O34_3 C21_6 1_555 1_555
O7_6 In7_3 1_555 1_555
O37_3 In7_3 1_555 1_555
N1_6 C37_6 1_555 1_555
C1_6 H1_6 1_555 1_555
C2_6 H2_6 1_555 1_555
C3_6 C2_6 1_555 1_555
C4_6 H3_6 1_555 1_555
C5_6 H4_6 1_555 1_555
C6_6 H5_6 1_555 1_555
C7_6 C3_6 1_555 1_555
C8_6 H6_6 1_555 1_555
C9_6 C8_6 1_555 1_555
C10_6 C4_6 1_555 1_555
C11_6 H7_6 1_555 1_555
C12_6 H8_6 1_555 1_555
C13_6 O5_6 1_555 1_555
C14_6 C10_6 1_555 1_555
H9_6 C14_6 1_555 1_555
C15_6 C12_6 1_555 1_555
C16_6 C6_6 1_555 1_555
C17_6 C5_6 1_555 1_555
H10_6 C17_6 1_555 1_555
C18_6 O7_6 1_555 1_555
C19_6 C12_6 1_555 1_555
H11_6 C19_6 1_555 1_555
C20_6 C5_6 1_555 1_555
C21_6 C20_6 1_555 1_555
C22_6 C1_6 1_555 1_555
H12_6 C22_6 1_555 1_555
C23_6 C25_6 1_555 1_555
C24_6 C11_6 1_555 1_555
H13_6 C24_6 1_555 1_555
C26_6 C1_6 1_555 1_555
C27_6 C18_6 1_555 1_555
C28_6 C31_6 1_555 1_555
C29_6 C13_6 1_555 1_555
C30_6 C29_6 1_555 1_555
H14_6 C30_6 1_555 1_555
C31_6 C8_6 1_555 1_555
C32_6 C9_6 1_555 1_555
H16_6 C32_6 1_555 1_555
C33_6 C3_6 1_555 1_555
H17_6 C33_6 1_555 1_555
C34_6 C2_6 1_555 1_555
H18_6 C34_6 1_555 1_555
C35_6 C28_6 1_555 1_555
H19_6 C35_6 1_555 1_555
C38_6 O2_6 1_555 1_555
C39_6 N1_6 1_555 1_555
C40_6 C38_6 1_555 1_555
N1_6 C38_6 1_555 1_555
C4_6 C7_6 1_555 1_555
C6_6 C7_6 1_555 1_555
C9_6 C10_6 1_555 1_555
C11_6 C26_6 1_555 1_555
C14_6 C16_6 1_555 1_555
C15_6 C16_6 1_555 1_555
C15_6 C17_6 1_555 1_555
C19_6 C20_6 1_555 1_555
C22_6 C27_6 1_555 1_555
C23_6 C26_6 1_555 1_555
C24_6 C27_6 1_555 1_555
C29_6 C34_6 1_555 1_555
C30_6 C33_6 1_555 1_555
C32_6 C35_6 1_555 1_555
C25_6 H58_6 1_555 1_555
C37_6 H59_6 1_555 1_555
C37_6 H60_6 1_555 1_555
C40_6 H62_6 1_555 1_555
C40_6 H64_6 1_555 1_555
C39_6 H66_6 1_555 1_555
C39_6 H67_6 1_555 1_555
C39_6 H68_6 1_555 1_555
C56_6 H69_6 1_555 1_555
O11_6 C43_6 1_555 1_555
O12_6 C43_6 1_555 1_555
C41_6 H20_6 1_555 1_555
C42_6 H21_6 1_555 1_555
C43_6 C49_6 1_555 1_555
C44_6 C41_6 1_555 1_555
H22_6 C44_6 1_555 1_555
C46_6 C42_6 1_555 1_555
H23_6 C46_6 1_555 1_555
C48_6 C41_6 1_555 1_555
C49_6 C44_6 1_555 1_555
In8_3 O12_6 1_555 1_555
Mn11_2 O11_6 1_555 1_555
O15_6 Mn11_2 1_555 1_555
O32_4 C76_6 1_555 1_555
O17_6 In8_3 1_555 1_555
O18_6 In8_3 1_555 1_555
O35_3 C76_6 1_555 1_555
O38_3 In8_3 1_555 1_555
N2_6 C86_6 1_555 1_555
C59_6 H28_6 1_555 1_555
C60_6 C59_6 1_555 1_555
C61_6 H29_6 1_555 1_555
C62_6 H30_6 1_555 1_555
C63_6 H31_6 1_555 1_555
C64_6 C60_6 1_555 1_555
C65_6 H32_6 1_555 1_555
C66_6 C65_6 1_555 1_555
C67_6 C61_6 1_555 1_555
C68_6 H33_6 1_555 1_555
C69_6 O17_6 1_555 1_555
C70_6 C67_6 1_555 1_555
H34_6 C70_6 1_555 1_555
C71_6 C68_6 1_555 1_555
C72_6 C63_6 1_555 1_555
C73_6 C62_6 1_555 1_555
H35_6 C73_6 1_555 1_555
C74_6 C68_6 1_555 1_555
H36_6 C74_6 1_555 1_555
C75_6 C62_6 1_555 1_555
C76_6 C75_6 1_555 1_555
C77_6 C80_6 1_555 1_555
C78_6 C69_6 1_555 1_555
C79_6 C78_6 1_555 1_555
H37_6 C79_6 1_555 1_555
C80_6 C65_6 1_555 1_555
C81_6 C66_6 1_555 1_555
H39_6 C81_6 1_555 1_555
C82_6 C60_6 1_555 1_555
H40_6 C82_6 1_555 1_555
C83_6 C59_6 1_555 1_555
H41_6 C83_6 1_555 1_555
C84_6 C77_6 1_555 1_555
H42_6 C84_6 1_555 1_555
C87_6 O15_6 1_555 1_555
C88_6 N2_6 1_555 1_555
C89_6 C87_6 1_555 1_555
C42_6 C48_6 1_555 1_555
C45_6 C48_6 1_555 1_555
C46_6 C49_6 1_555 1_555
O18_6 C69_6 1_555 1_555
N2_6 C87_6 1_555 1_555
C61_6 C64_6 1_555 1_555
C63_6 C64_6 1_555 1_555
C66_6 C67_6 1_555 1_555
C70_6 C72_6 1_555 1_555
C71_6 C72_6 1_555 1_555
C71_6 C73_6 1_555 1_555
C74_6 C75_6 1_555 1_555
C78_6 C83_6 1_555 1_555
C79_6 C82_6 1_555 1_555
C81_6 C84_6 1_555 1_555
C89_6 H70_6 1_555 1_555
C89_6 H72_6 1_555 1_555
C86_6 H73_6 1_555 1_555
C86_6 H74_6 1_555 1_555
C88_6 H76_6 1_555 1_555
C88_6 H77_6 1_555 1_555
C88_6 H78_6 1_555 1_555
C47_6 C54_6 1_555 1_555
O13_6 C52_6 1_555 1_555
O14_6 C52_6 1_555 1_555
C50_6 H24_6 1_555 1_555
C51_6 H25_6 1_555 1_555
C52_6 C58_6 1_555 1_555
C53_6 C50_6 1_555 1_555
H26_6 C53_6 1_555 1_555
C55_6 C51_6 1_555 1_555
H27_6 C55_6 1_555 1_555
C57_6 C50_6 1_555 1_555
C58_6 C53_6 1_555 1_555
In9_3 O14_6 1_555 1_555
Mn12_2 O13_6 1_555 1_555
O23_6 Mn12_2 1_555 1_555
O33_4 C107_6 1_555 1_555
O25_6 In9_3 1_555 1_555
O26_6 In9_3 1_555 1_555
O36_3 C107_6 1_555 1_555
O39_3 In9_3 1_555 1_555
N3_6 C117_6 1_555 1_555
C90_6 H43_6 1_555 1_555
C91_6 C90_6 1_555 1_555
C92_6 H44_6 1_555 1_555
C93_6 H45_6 1_555 1_555
C94_6 H46_6 1_555 1_555
C95_6 C91_6 1_555 1_555
C96_6 H47_6 1_555 1_555
C97_6 C96_6 1_555 1_555
C98_6 C92_6 1_555 1_555
C99_6 H48_6 1_555 1_555
C100_6 O25_6 1_555 1_555
C101_6 C98_6 1_555 1_555
H49_6 C101_6 1_555 1_555
C102_6 C99_6 1_555 1_555
C103_6 C94_6 1_555 1_555
C104_6 C93_6 1_555 1_555
H50_6 C104_6 1_555 1_555
C105_6 C99_6 1_555 1_555
H51_6 C105_6 1_555 1_555
C106_6 C93_6 1_555 1_555
C107_6 C106_6 1_555 1_555
C108_6 C111_6 1_555 1_555
C109_6 C100_6 1_555 1_555
C110_6 C109_6 1_555 1_555
H52_6 C110_6 1_555 1_555
C111_6 C96_6 1_555 1_555
C112_6 C97_6 1_555 1_555
H54_6 C112_6 1_555 1_555
C113_6 C91_6 1_555 1_555
H55_6 C113_6 1_555 1_555
C114_6 C90_6 1_555 1_555
H56_6 C114_6 1_555 1_555
C115_6 C108_6 1_555 1_555
H57_6 C115_6 1_555 1_555
C118_6 O23_6 1_555 1_555
C119_6 N3_6 1_555 1_555
C120_6 C118_6 1_555 1_555
C51_6 C57_6 1_555 1_555
C54_6 C57_6 1_555 1_555
C55_6 C58_6 1_555 1_555
O26_6 C100_6 1_555 1_555
N3_6 C118_6 1_555 1_555
C92_6 C95_6 1_555 1_555
C94_6 C95_6 1_555 1_555
C97_6 C98_6 1_555 1_555
C101_6 C103_6 1_555 1_555
C102_6 C103_6 1_555 1_555
C102_6 C104_6 1_555 1_555
C105_6 C106_6 1_555 1_555
C109_6 C114_6 1_555 1_555
C110_6 C113_6 1_555 1_555
C112_6 C115_6 1_555 1_555
C47_6 H65_6 1_555 1_555
C119_6 H79_6 1_555 1_555
C119_6 H80_6 1_555 1_555
C119_6 H81_6 1_555 1_555
C120_6 H82_6 1_555 1_555
C120_6 H83_6 1_555 1_555
C120_6 H84_6 1_555 1_555
C117_6 H85_6 1_555 1_555
C117_6 H86_6 1_555 1_555
C117_6 H87_6 1_555 1_555

#END
