
###############################################################################
#
# This file contains modified crystal structure data generated from the
# MOF subset of the Cambridge Structural Database (CSD) v543 
# hosted by the Cambridge Crystallographic Data Centre (CCDC).
#
# This work is licensed under the Creative Commons
# Attribution-NonCommercial-ShareAlike 4.0 International License.
# To view a copy of this license, visit
# http://creativecommons.org/licenses/by-nc-sa/4.0/
# or send a letter to
# Creative Commons, PO Box 1866, Mountain View, CA 94042, USA.
#
# CIF created using the CSD Python API on 29 September 2022
# The structure has been converted into the P1 space group
# The structure has a 3D framework
# The original CSD entry WAVZOK is in the triclinic crystal system
# The framework has been calculated to contain at least 10.0% void space
# The void calculation uses a probe of radius 1.32A, grid spacing 0.4
#
###############################################################################

data_WAVZOK
_chemical_formula_moiety         '(C50 H48 Cu7 N12 O22)n'
_symmetry_cell_setting           triclinic
_symmetry_space_group_name_H-M   'P 1'
_symmetry_Int_Tables_number      1
_space_group_name_Hall           'P 1'
loop_
_symmetry_equiv_pos_site_id
_symmetry_equiv_pos_as_xyz
1 x,y,z
_cell_length_a                   8.1110(9)
_cell_length_b                   12.4063(14)
_cell_length_c                   16.3568(18)
_cell_angle_alpha                90.1150(10)
_cell_angle_beta                 95.4550(10)
_cell_angle_gamma                106.6550(10)
_cell_volume                     1569.01
loop_
_atom_site_label
_atom_site_type_symbol
_atom_site_fract_x
_atom_site_fract_y
_atom_site_fract_z
C43 C 0.0373(10) 0.1378(8) 0.1101(5)
H36 H 0.0718 0.2186 0.1115
H37 H 0.1380 0.1117 0.1187
Cu2 Cu 0.0000 1.0000 0.5000
O17 O 0.0061(4) 0.9689(2) 0.38237(15)
O18 O 0.3308(5) 0.9001(4) 0.1590(3)
N11 N 0.0505(6) 0.4978(4) 0.8189(3)
N12 N 0.0455(10) 0.7003(4) 0.5850(3)
N13 N 0.1296(10) 0.7028(4) 0.5178(3)
N14 N 0.0324(5) 0.8518(3) 0.5259(2)
C29 C 0.1118(5) 0.8950(3) 0.2418(2)
H28 H 0.1933 0.9471 0.2769
C30 C 0.1601(5) 0.8566(4) 0.1702(3)
C31 C 0.0395(5) 0.7793(3) 0.1175(2)
H29 H 0.0722 0.7530 0.0701
C34 C 0.3988(8) 0.8656(6) 0.0923(4)
H30 H 0.3497 0.8899 0.0425
H31 H 0.5221 0.8981 0.0977
H32 H 0.3718 0.7850 0.0907
H40 H 0.0270 0.5473 0.9284
H41 H 0.0691 0.4012 0.6850
C48 C 0.0628(15) 0.6153(7) 0.6505(5)
H45 H 0.0301 0.6365 0.7023
H46 H 0.1810 0.6116 0.6587
C49 C 0.1209(8) 0.7959(4) 0.4843(3)
H47 H 0.1706 0.8218 0.4365
Cu3 Cu 0.5000 0.0000 0.5000
O25 O 0.5418(4) 0.0493(3) 0.38999(17)
O27 O 0.3278(4) 0.0789(3) 0.50526(17)
H25 H 0.3350 0.1236 0.4679
H26 H 0.3435 0.1113 0.5512
Cu1 Cu 0.38306(5) 0.50842(3) 0.04886(2)
O14 O 0.5842(3) 0.6239(2) 0.10382(16)
O19 O 0.6540(3) 0.3783(2) 0.03165(15)
O21 O 0.4554(3) 0.3923(2) 0.11380(16)
O23 O 0.4016(5) 0.1796(3) 0.37119(19)
O26 O 0.9283(7) 0.0980(4) 0.1724(3)
N8 N 0.2068(4) 0.5319(3) 0.13106(19)
C35 C 0.6165(5) 0.2648(3) 0.1484(2)
C36 C 0.5336(5) 0.2332(3) 0.2183(2)
H33 H 0.4468 0.2640 0.2309
C37 C 0.5803(5) 0.1548(3) 0.2702(2)
C38 C 0.7077(6) 0.1089(4) 0.2510(3)
H34 H 0.7343 0.0538 0.2837
C39 C 0.7975(7) 0.1445(4) 0.1825(3)
C40 C 0.7490(6) 0.2201(4) 0.1306(2)
H35 H 0.8049 0.2413 0.0836
C41 C 0.5720(4) 0.3519(3) 0.0936(2)
C42 C 0.4992(5) 0.1262(3) 0.3495(2)
H38 H 0.9763 0.1102 0.0575
Cu2_2 Cu 0.0000 -0.0000 0.5000
Cu3_2 Cu 0.5000 1.0000 0.5000
O1 O 0.2172(3) 0.3864(2) 0.97967(15)
O2 O 0.4158(3) 0.3761(2) 0.89618(16)
O3 O 0.2532(4) 0.1584(3) 0.63881(19)
O6 O 0.3460(3) 0.6217(2) 0.96835(15)
O7 O 0.5446(3) 0.6077(2) 0.88620(16)
O8 O 0.5984(5) 0.8204(3) 0.62881(19)
O9 O 0.4582(4) 0.9507(3) 0.61001(17)
O10 O 0.0717(7) 0.9020(4) 0.8276(3)
O11 O 0.6722(4) 0.9211(3) 0.49474(17)
H1 H 0.6650 0.8764 0.5321
H2 H 0.6565 0.8887 0.4488
N2 N 0.0765(5) 0.5577(3) 0.2358(2)
C1 C 0.1319(5) 0.2588(3) 0.8638(2)
C2 C 0.1798(5) 0.2208(3) 0.7923(2)
H3 H 0.2937 0.2464 0.7798
C3 C 0.0566(5) 0.1442(3) 0.7396(2)
C7 C 0.2648(4) 0.3473(3) 0.9178(2)
C8 C 0.1065(6) 0.1083(3) 0.6597(2)
C10 C 0.3835(5) 0.7352(3) 0.8516(2)
C11 C 0.4664(5) 0.7668(3) 0.7817(2)
H9 H 0.5532 0.7360 0.7691
C12 C 0.4197(5) 0.8452(3) 0.7298(2)
C13 C 0.2923(6) 0.8911(4) 0.7490(3)
H10 H 0.2657 0.9462 0.7163
C14 C 0.2025(7) 0.8555(4) 0.8175(3)
C15 C 0.2510(6) 0.7799(4) 0.8694(2)
H11 H 0.1951 0.7587 0.9164
C16 C 0.4280(4) 0.6481(3) 0.9064(2)
C17 C 0.5008(5) 0.8738(3) 0.6505(2)
H14 H 0.0237 0.8898 0.9425
C19 C 0.2358(7) 0.5753(4) 0.2055(3)
H15 H 0.3432 0.6113 0.2332
C20 C 0.0305(6) 0.4891(4) 0.1203(3)
C21 C 0.0424(11) 0.5840(5) 0.3176(4)
H18 H 0.1300 0.6515 0.3392
C22 C 0.0428(14) 0.4827(6) 0.3777(4)
H19 H 0.1594 0.4761 0.3865
H20 H 0.0098 0.5004 0.4304
C25 C 0.0146(8) 0.2107(4) 0.4116(3)
H24 H 0.0793 0.1956 0.3713
Cu5 Cu 0.61694(5) 0.49158(3) 0.95114(2)
Cu2_3 Cu 1.0000 1.0000 0.5000
O12 O 0.7828(3) 0.6136(2) 0.02033(15)
O16 O 0.7468(4) 0.8416(3) 0.36119(19)
N7 N 0.7932(4) 0.4681(3) 0.86894(19)
N10 N 0.9235(5) 0.4423(3) 0.7642(2)
C26 C 0.8681(5) 0.7412(3) 0.1362(2)
C27 C 0.8202(5) 0.7792(3) 0.2077(2)
H27 H 0.7063 0.7536 0.2202
C28 C 0.9434(5) 0.8558(3) 0.2604(2)
C32 C 0.7352(4) 0.6527(3) 0.0822(2)
C33 C 0.8935(6) 0.8917(3) 0.3403(2)
C44 C 0.7642(7) 0.4247(4) 0.7945(3)
H39 H 0.6568 0.3887 0.7668
C45 C 0.9695(6) 0.5109(4) 0.8797(3)
C46 C 0.9576(11) 0.4160(5) 0.6824(4)
H42 H 0.8700 0.3485 0.6608
C47 C 0.9572(14) 0.5173(6) 0.6223(4)
H43 H 0.8406 0.5239 0.6135
H44 H 0.9902 0.4996 0.5696
C50 C 0.9854(8) 0.7893(4) 0.5884(3)
H48 H 0.9207 0.8044 0.6287
Cu2_4 Cu 1.0000 -0.0000 0.5000
O4 O 0.9939(4) 0.0311(2) 0.61763(15)
O5 O 0.6692(5) 0.0999(4) 0.8410(3)
N3 N 0.9495(6) 0.5022(4) 0.1811(3)
N4 N 0.9545(10) 0.2997(4) 0.4150(3)
N5 N 0.8704(10) 0.2972(4) 0.4822(3)
N6 N 0.9676(5) 0.1482(3) 0.4741(2)
C4 C 0.8882(5) 0.1050(3) 0.7582(2)
H4 H 0.8067 0.0529 0.7231
C5 C 0.8399(5) 0.1434(4) 0.8298(3)
C6 C 0.9605(5) 0.2207(3) 0.8825(2)
H5 H 0.9278 0.2470 0.9299
C9 C 0.6012(8) 0.1344(6) 0.9077(4)
H6 H 0.6503 0.1101 0.9575
H7 H 0.4779 0.1019 0.9023
H8 H 0.6282 0.2150 0.9093
C18 C 0.9627(10) 0.8622(8) 0.8899(5)
H12 H 0.9282 0.7814 0.8885
H13 H 0.8620 0.8883 0.8813
H16 H 0.9730 0.4527 0.0716
H17 H 0.9309 0.5988 0.3150
C23 C 0.9372(15) 0.3847(7) 0.3495(5)
H21 H 0.9699 0.3635 0.2977
H22 H 0.8190 0.3884 0.3413
C24 C 0.8791(8) 0.2041(4) 0.5157(3)
H23 H 0.8294 0.1782 0.5635
loop_
_geom_bond_atom_site_label_1
_geom_bond_atom_site_label_2
_geom_bond_site_symmetry_1
_geom_bond_site_symmetry_2
H36 C43 1_555 1_555
H37 C43 1_555 1_555
O17 Cu2 1_555 1_555
O18 C30 1_555 1_555
N12 N13 1_555 1_555
N13 C49 1_555 1_555
N14 Cu2 1_555 1_555
H28 C29 1_555 1_555
C30 C29 1_555 1_555
H29 C31 1_555 1_555
C34 O18 1_555 1_555
H30 C34 1_555 1_555
H31 C34 1_555 1_555
H32 C34 1_555 1_555
C48 N12 1_555 1_555
H45 C48 1_555 1_555
H46 C48 1_555 1_555
C49 N14 1_555 1_555
H47 C49 1_555 1_555
C30 C31 1_555 1_555
O25 Cu3 1_555 1_555
O27 Cu3 1_555 1_555
H25 O27 1_555 1_555
H26 O27 1_555 1_555
O14 Cu1 1_555 1_555
O21 Cu1 1_555 1_555
O23 C42 1_555 1_555
O25 C42 1_555 1_555
O26 C39 1_555 1_555
N8 Cu1 1_555 1_555
C35 C36 1_555 1_555
C36 H33 1_555 1_555
C37 C36 1_555 1_555
C38 C37 1_555 1_555
H34 C38 1_555 1_555
C39 C38 1_555 1_555
C40 C35 1_555 1_555
H35 C40 1_555 1_555
C41 O19 1_555 1_555
C42 C37 1_555 1_555
O21 C41 1_555 1_555
C35 C41 1_555 1_555
C39 C40 1_555 1_555
Cu3_2 O9 1_555 1_555
O1 C7 1_555 1_555
O2 C7 1_555 1_555
O3 C8 1_555 1_555
O7 C16 1_555 1_555
O8 C17 1_555 1_555
O9 C17 1_555 1_555
O10 C14 1_555 1_555
O11 Cu3_2 1_555 1_555
H1 O11 1_555 1_555
H2 O11 1_555 1_555
N8 C19 1_555 1_555
C1 C2 1_555 1_555
C2 H3 1_555 1_555
C3 C2 1_555 1_555
C7 C1 1_555 1_555
C8 C3 1_555 1_555
C10 C11 1_555 1_555
C11 H9 1_555 1_555
C12 C11 1_555 1_555
C13 C12 1_555 1_555
H10 C13 1_555 1_555
C14 C13 1_555 1_555
C15 C10 1_555 1_555
H11 C15 1_555 1_555
C16 O6 1_555 1_555
C17 C12 1_555 1_555
C19 N2 1_555 1_555
H15 C19 1_555 1_555
C20 N8 1_555 1_555
C21 N2 1_555 1_555
H18 C21 1_555 1_555
C22 C21 1_555 1_555
H19 C22 1_555 1_555
H20 C22 1_555 1_555
H24 C25 1_555 1_555
Cu5 O2 1_555 1_555
O7 Cu5 1_555 1_555
C10 C16 1_555 1_555
C14 C15 1_555 1_555
Cu5 N7 1_555 1_555
O12 C32 1_555 1_555
O14 C32 1_555 1_555
O16 C33 1_555 1_555
N7 C44 1_555 1_555
C26 C27 1_555 1_555
C27 H27 1_555 1_555
C28 C27 1_555 1_555
C32 C26 1_555 1_555
C44 N10 1_555 1_555
H39 C44 1_555 1_555
C45 N7 1_555 1_555
C46 N10 1_555 1_555
H42 C46 1_555 1_555
C47 C46 1_555 1_555
H43 C47 1_555 1_555
H44 C47 1_555 1_555
H48 C50 1_555 1_555
C28 C33 1_555 1_555
Cu2_4 O4 1_555 1_555
O5 C5 1_555 1_555
N4 N5 1_555 1_555
N5 C24 1_555 1_555
N6 Cu2_4 1_555 1_555
H4 C4 1_555 1_555
C5 C4 1_555 1_555
H5 C6 1_555 1_555
C9 O5 1_555 1_555
H6 C9 1_555 1_555
H7 C9 1_555 1_555
H8 C9 1_555 1_555
H12 C18 1_555 1_555
H13 C18 1_555 1_555
C23 N4 1_555 1_555
H21 C23 1_555 1_555
H22 C23 1_555 1_555
C24 N6 1_555 1_555
H23 C24 1_555 1_555
C5 C6 1_555 1_555

#END
