
###############################################################################
#
# This file contains modified crystal structure data generated from the
# MOF subset of the Cambridge Structural Database (CSD) v543 
# hosted by the Cambridge Crystallographic Data Centre (CCDC).
#
# This work is licensed under the Creative Commons
# Attribution-NonCommercial-ShareAlike 4.0 International License.
# To view a copy of this license, visit
# http://creativecommons.org/licenses/by-nc-sa/4.0/
# or send a letter to
# Creative Commons, PO Box 1866, Mountain View, CA 94042, USA.
#
# CIF created using the CSD Python API on 29 September 2022
# The structure has been converted into the P1 space group
# The structure has a 3D framework
# The original CSD entry WAWGOQ is in the monoclinic crystal system
# The framework has been calculated to contain at least 10.0% void space
# The void calculation uses a probe of radius 1.32A, grid spacing 0.4
# H atom positions have been added when not included in the experimental data
#
###############################################################################

data_WAWGOQ
_chemical_formula_moiety         '(C400 H264 N32 O80 Zn12)n'
_symmetry_cell_setting           triclinic
_symmetry_space_group_name_H-M   'P 1'
_symmetry_Int_Tables_number      1
_space_group_name_Hall           'P 1'
loop_
_symmetry_equiv_pos_site_id
_symmetry_equiv_pos_as_xyz
1 x,y,z
_cell_length_a                   27.6940(8)
_cell_length_b                   19.5100(9)
_cell_length_c                   32.5980(13)
_cell_angle_alpha                90
_cell_angle_beta                 92.724(3)
_cell_angle_gamma                90
_cell_volume                     17593.1
loop_
_atom_site_label
_atom_site_type_symbol
_atom_site_fract_x
_atom_site_fract_y
_atom_site_fract_z
H16 H 0.2920 0.0349 0.3222
C34 C 0.2361(2) 0.0002(4) 0.25995(18)
O3 O 0.23639(17) 0.0624(3) 0.26108(13)
Zn2 Zn 0.17584(2) 0.02710(3) 0.194730(16)
O11 O 0.12690(13) 0.0721(2) 0.22627(10)
O12 O 0.22505(12) 0.0672(2) 0.16137(10)
N1 N 0.42224(14) 0.7588(2) 0.38293(11)
N2 N 0.36219(13) 0.8025(2) 0.44826(12)
N3 N 0.41893(14) 0.7202(2) 0.50547(11)
N4 N 0.48136(13) 0.6816(2) 0.44140(11)
C1 C 0.50734(18) 0.6687(3) 0.40680(15)
C2 C 0.49549(18) 0.6945(3) 0.36784(14)
C3 C 0.4570(2) 0.7362(3) 0.35672(15)
C4 C 0.4450(2) 0.7630(3) 0.31635(14)
H1 H 0.4620 0.7548 0.2929
C5 C 0.4058(2) 0.8014(3) 0.31820(14)
H2 H 0.3907 0.8251 0.2964
C6 C 0.39060(18) 0.8002(3) 0.36017(14)
C7 C 0.35192(18) 0.8361(3) 0.37437(14)
C8 C 0.33864(18) 0.8386(3) 0.41644(15)
C9 C 0.29755(17) 0.8741(3) 0.43258(16)
H3 H 0.2754 0.9009 0.4174
C10 C 0.2969(2) 0.8617(3) 0.47321(16)
H4 H 0.2749 0.8788 0.4913
C11 C 0.33667(19) 0.8172(3) 0.48306(14)
C12 C 0.34857(19) 0.7900(3) 0.52207(14)
C13 C 0.38673(19) 0.7465(3) 0.53181(14)
C14 C 0.4000(2) 0.7204(3) 0.57177(14)
H5 H 0.3835 0.7297 0.5953
C15 C 0.4394(2) 0.6811(3) 0.57078(15)
H6 H 0.4556 0.6587 0.5926
C16 C 0.45117(18) 0.6812(3) 0.52818(15)
C17 C 0.49224(18) 0.6481(3) 0.51408(14)
C18 C 0.50646(18) 0.6481(3) 0.47362(15)
C19 C 0.54866(18) 0.6158(3) 0.45996(15)
H7 H 0.5710 0.5900 0.4756
C20 C 0.54944(18) 0.6305(3) 0.41886(16)
H8 H 0.5736 0.6176 0.4016
C21 C 0.52957(19) 0.6755(3) 0.33456(15)
C22 C 0.5282(2) 0.6157(4) 0.31532(18)
H9 H 0.5051 0.5831 0.3216
C23 C 0.5617(2) 0.6015(4) 0.28526(18)
H10 H 0.5620 0.5584 0.2731
C24 C 0.59355(19) 0.6498(4) 0.27384(15)
C25 C 0.5949(3) 0.7112(4) 0.2931(2)
H11 H 0.6176 0.7438 0.2860
C26 C 0.5628(2) 0.7263(4) 0.3233(2)
H12 H 0.5632 0.7691 0.3359
C27 C 0.6286(2) 0.6296(4) 0.24136(16)
O1 O 0.65803(16) 0.6782(2) 0.23243(12)
H13 H 0.6645 0.6631 0.2046
O2 O 0.62690(13) 0.5721(2) 0.22627(10)
C28 C 0.3225(2) 0.8762(4) 0.34513(16)
C29 C 0.2950(2) 0.8469(3) 0.31460(17)
H14 H 0.2944 0.7994 0.3123
C30 C 0.2678(2) 0.8862(4) 0.28674(16)
H15 H 0.2502 0.8644 0.2655
C31 C 0.26604(19) 0.9548(4) 0.28953(16)
C32 C 0.2926(2) 0.9874(3) 0.31992(17)
C33 C 0.3209(2) 0.9473(4) 0.34782(16)
H17 H 0.3392 0.9690 0.3687
O4 O 0.20958(13) 0.9633(3) 0.23240(11)
H18 H 0.2071 0.9148 0.2362
C35 C 0.31678(18) 0.8137(3) 0.55622(14)
C36 C 0.2855(2) 0.7660(3) 0.57161(17)
H19 H 0.2831 0.7222 0.5604
C37 C 0.25685(19) 0.7854(4) 0.60514(17)
H20 H 0.2366 0.7536 0.6169
C38 C 0.2595(2) 0.8523(3) 0.62007(15)
C39 C 0.2909(2) 0.8965(3) 0.60312(16)
H21 H 0.2935 0.9410 0.6133
C40 C 0.3192(2) 0.8771(3) 0.57094(17)
H22 H 0.3399 0.9087 0.5597
C41 C 0.2277(2) 0.8715(4) 0.65337(16)
O5 O 0.22505(12) 0.9328(2) 0.66137(10)
O6 O 0.20520(16) 0.8249(2) 0.67102(13)
C42 C 0.52364(19) 0.6088(4) 0.54452(15)
C43 C 0.5180(2) 0.5417(3) 0.55283(16)
H23 H 0.4933 0.5176 0.5389
C44 C 0.5476(2) 0.5075(3) 0.58115(16)
H24 H 0.5432 0.4608 0.5853
C45 C 0.58283(19) 0.5412(3) 0.60302(15)
C46 C 0.5889(2) 0.6092(4) 0.59598(19)
H25 H 0.6129 0.6326 0.6112
C47 C 0.5604(2) 0.6455(4) 0.56658(18)
H26 H 0.5655 0.6919 0.5618
C48 C 0.6150(2) 0.5072(4) 0.63455(19)
O7 O 0.63893(13) 0.5401(2) 0.66098(11)
O8 O 0.61872(13) 0.4415(2) 0.63240(9)
Zn1 Zn 0.41524(2) 0.72883(3) 0.442890(16)
O9 O 0.37163(12) 0.64165(19) 0.43178(9)
H27 H 0.3836 0.6240 0.4023
C49 C 0.3340(2) 0.6144(4) 0.4580(2)
H28 H 0.3092 0.5918 0.4409
H29 H 0.3190 0.6521 0.4720
C50 C 0.3548(3) 0.5641(4) 0.4895(2)
H30 H 0.3696 0.5255 0.4761
H31 H 0.3788 0.5860 0.5076
O10 O 0.3139(2) 0.5419(3) 0.51196(19)
H32 H 0.2912 0.5094 0.4927
Zn3 Zn 0.67584(2) 0.52710(3) 0.194730(16)
O13 O 0.13893(13) 0.9599(2) 0.16098(11)
Zn4 Zn 0.17584(2) 0.97290(3) 0.694730(16)
Zn5 Zn 0.67584(2) 0.47290(3) 0.694730(16)
H33 H 0.631567 0.428589 0.605544
C1_2 C 0.00734(18) 0.1687(3) 0.40680(15)
C18_2 C 0.00646(18) 0.1481(3) 0.47362(15)
C19_2 C 0.04866(18) 0.1158(3) 0.45996(15)
H7_2 H 0.0710 0.0900 0.4756
C20_2 C 0.04944(18) 0.1305(3) 0.41886(16)
H8_2 H 0.0736 0.1176 0.4016
C21_2 C 0.02957(19) 0.1755(3) 0.33456(15)
C22_2 C 0.0282(2) 0.1157(4) 0.31532(18)
H9_2 H 0.0051 0.0831 0.3216
C23_2 C 0.0617(2) 0.1015(4) 0.28526(18)
H10_2 H 0.0620 0.0584 0.2731
C24_2 C 0.09355(19) 0.1498(4) 0.27384(15)
C25_2 C 0.0949(3) 0.2112(4) 0.2931(2)
H11_2 H 0.1176 0.2438 0.2860
C26_2 C 0.0628(2) 0.2263(4) 0.3233(2)
H12_2 H 0.0632 0.2691 0.3359
C27_2 C 0.1286(2) 0.1296(4) 0.24136(16)
O1_2 O 0.15803(16) 0.1782(2) 0.23243(12)
H13_2 H 0.1645 0.1631 0.2046
C42_2 C 0.02364(19) 0.1088(4) 0.54452(15)
C43_2 C 0.0180(2) 0.0417(3) 0.55283(16)
C44_2 C 0.0476(2) 0.0075(3) 0.58115(16)
C45_2 C 0.08283(19) 0.0412(3) 0.60302(15)
C46_2 C 0.0889(2) 0.1092(4) 0.59598(19)
H25_2 H 0.1129 0.1326 0.6112
C47_2 C 0.0604(2) 0.1455(4) 0.56658(18)
H26_2 H 0.0655 0.1919 0.5618
C48_2 C 0.1150(2) 0.0072(4) 0.63455(19)
O7_2 O 0.13893(13) 0.0401(2) 0.66098(11)
H24_2 H 0.0432 0.9608 0.5853
O8_2 O 0.11872(13) 0.9415(2) 0.63240(9)
H33_2 H 0.131567 0.928589 0.605544
N1_2 N 0.92224(14) 0.2588(2) 0.38293(11)
N2_2 N 0.86219(13) 0.3025(2) 0.44826(12)
N3_2 N 0.91893(14) 0.2202(2) 0.50547(11)
N4_2 N 0.98136(13) 0.1816(2) 0.44140(11)
C2_2 C 0.99549(18) 0.1945(3) 0.36784(14)
C3_2 C 0.9570(2) 0.2362(3) 0.35672(15)
C4_2 C 0.9450(2) 0.2630(3) 0.31635(14)
H1_2 H 0.9620 0.2548 0.2929
C5_2 C 0.9058(2) 0.3014(3) 0.31820(14)
H2_2 H 0.8907 0.3251 0.2964
C6_2 C 0.89060(18) 0.3002(3) 0.36017(14)
C7_2 C 0.85192(18) 0.3361(3) 0.37437(14)
C8_2 C 0.83864(18) 0.3386(3) 0.41644(15)
C9_2 C 0.79755(17) 0.3741(3) 0.43258(16)
H3_2 H 0.7754 0.4009 0.4174
C10_2 C 0.7969(2) 0.3617(3) 0.47321(16)
H4_2 H 0.7749 0.3788 0.4913
C11_2 C 0.83667(19) 0.3172(3) 0.48306(14)
C12_2 C 0.84857(19) 0.2900(3) 0.52207(14)
C13_2 C 0.88673(19) 0.2465(3) 0.53181(14)
C14_2 C 0.9000(2) 0.2204(3) 0.57177(14)
H5_2 H 0.8835 0.2297 0.5953
C15_2 C 0.9394(2) 0.1811(3) 0.57078(15)
H6_2 H 0.9556 0.1587 0.5926
C16_2 C 0.95117(18) 0.1812(3) 0.52818(15)
C17_2 C 0.99224(18) 0.1481(3) 0.51408(14)
C28_2 C 0.8225(2) 0.3762(4) 0.34513(16)
C29_2 C 0.7950(2) 0.3469(3) 0.31460(17)
H14_2 H 0.7944 0.2994 0.3123
C30_2 C 0.7678(2) 0.3862(4) 0.28674(16)
H15_2 H 0.7502 0.3644 0.2655
C31_2 C 0.76604(19) 0.4548(4) 0.28953(16)
C32_2 C 0.7926(2) 0.4874(3) 0.31992(17)
H16_2 H 0.7920 0.5349 0.3222
C33_2 C 0.8209(2) 0.4473(4) 0.34782(16)
H17_2 H 0.8392 0.4690 0.3687
C34_2 C 0.7361(2) 0.5002(4) 0.25995(18)
O3_2 O 0.73639(17) 0.5624(3) 0.26108(13)
O4_2 O 0.70958(13) 0.4633(3) 0.23240(11)
H18_2 H 0.7071 0.4148 0.2362
C35_2 C 0.81678(18) 0.3137(3) 0.55622(14)
C36_2 C 0.7855(2) 0.2660(3) 0.57161(17)
H19_2 H 0.7831 0.2222 0.5604
C37_2 C 0.75685(19) 0.2854(4) 0.60514(17)
H20_2 H 0.7366 0.2536 0.6169
C38_2 C 0.7595(2) 0.3523(3) 0.62007(15)
C39_2 C 0.7909(2) 0.3965(3) 0.60312(16)
H21_2 H 0.7935 0.4410 0.6133
C40_2 C 0.8192(2) 0.3771(3) 0.57094(17)
H22_2 H 0.8399 0.4087 0.5597
C41_2 C 0.7277(2) 0.3715(4) 0.65337(16)
O5_2 O 0.72505(12) 0.4328(2) 0.66137(10)
O6_2 O 0.70520(16) 0.3249(2) 0.67102(13)
H23_2 H 0.9933 0.0176 0.5389
Zn1_2 Zn 0.91524(2) 0.22883(3) 0.442890(16)
O9_2 O 0.87163(12) 0.14165(19) 0.43178(9)
H27_2 H 0.8836 0.1240 0.4023
C49_2 C 0.8340(2) 0.1144(4) 0.4580(2)
H28_2 H 0.8092 0.0918 0.4409
H29_2 H 0.8190 0.1521 0.4720
C50_2 C 0.8548(3) 0.0641(4) 0.4895(2)
H30_2 H 0.8696 0.0255 0.4761
H31_2 H 0.8788 0.0860 0.5076
O10_2 O 0.8139(2) 0.0419(3) 0.51196(19)
H32_2 H 0.7912 0.0094 0.4927
O12_2 O 0.72505(12) 0.5672(2) 0.16137(10)
O13_2 O 0.63893(13) 0.4599(2) 0.16098(11)
N3_3 N 0.41893(14) 0.2798(2) 0.00547(11)
C12_3 C 0.34857(19) 0.2100(3) 0.02207(14)
C13_3 C 0.38673(19) 0.2535(3) 0.03181(14)
C14_3 C 0.4000(2) 0.2796(3) 0.07177(14)
H5_3 H 0.3835 0.2703 0.0953
C15_3 C 0.4394(2) 0.3189(3) 0.07078(15)
H6_3 H 0.4556 0.3413 0.0926
C16_3 C 0.45117(18) 0.3188(3) 0.02818(15)
C17_3 C 0.49224(18) 0.3519(3) 0.01408(14)
C35_3 C 0.31678(18) 0.1863(3) 0.05622(14)
C36_3 C 0.2855(2) 0.2340(3) 0.07161(17)
H19_3 H 0.2831 0.2778 0.0604
C37_3 C 0.25685(19) 0.2146(4) 0.10514(17)
H20_3 H 0.2366 0.2464 0.1169
C38_3 C 0.2595(2) 0.1477(3) 0.12007(15)
C39_3 C 0.2909(2) 0.1035(3) 0.10312(16)
H21_3 H 0.2935 0.0590 0.1133
C40_3 C 0.3192(2) 0.1229(3) 0.07094(17)
H22_3 H 0.3399 0.0913 0.0597
C41_3 C 0.2277(2) 0.1285(4) 0.15337(16)
O6_3 O 0.20520(16) 0.1751(2) 0.17102(13)
C42_3 C 0.52364(19) 0.3912(4) 0.04452(15)
C43_3 C 0.5180(2) 0.4583(3) 0.05283(16)
H23_3 H 0.4933 0.4824 0.0389
C44_3 C 0.5476(2) 0.4925(3) 0.08115(16)
H24_3 H 0.5432 0.5392 0.0853
C45_3 C 0.58283(19) 0.4588(3) 0.10302(15)
C46_3 C 0.5889(2) 0.3908(4) 0.09598(19)
H25_3 H 0.6129 0.3674 0.1112
C47_3 C 0.5604(2) 0.3545(4) 0.06658(18)
H26_3 H 0.5655 0.3081 0.0618
C48_3 C 0.6150(2) 0.4928(4) 0.13455(19)
O8_3 O 0.61872(13) 0.5585(2) 0.13240(9)
H31_3 H 0.3788 0.4140 0.0076
O10_3 O 0.3139(2) 0.4581(3) 0.01196(19)
H33_3 H 0.631567 0.571411 0.105544
N1_3 N 0.42224(14) 0.2412(2) 0.88293(11)
N2_3 N 0.36219(13) 0.1975(2) 0.94826(12)
N4_3 N 0.48136(13) 0.3184(2) 0.94140(11)
C1_3 C 0.50734(18) 0.3313(3) 0.90680(15)
C2_3 C 0.49549(18) 0.3055(3) 0.86784(14)
C3_3 C 0.4570(2) 0.2638(3) 0.85672(15)
C4_3 C 0.4450(2) 0.2370(3) 0.81635(14)
H1_3 H 0.4620 0.2452 0.7929
C5_3 C 0.4058(2) 0.1986(3) 0.81820(14)
H2_3 H 0.3907 0.1749 0.7964
C6_3 C 0.39060(18) 0.1998(3) 0.86017(14)
C7_3 C 0.35192(18) 0.1639(3) 0.87437(14)
C8_3 C 0.33864(18) 0.1614(3) 0.91644(15)
C9_3 C 0.29755(17) 0.1259(3) 0.93258(16)
H3_3 H 0.2754 0.0991 0.9174
C10_3 C 0.2969(2) 0.1383(3) 0.97321(16)
H4_3 H 0.2749 0.1212 0.9913
C11_3 C 0.33667(19) 0.1828(3) 0.98306(14)
C18_3 C 0.50646(18) 0.3519(3) 0.97362(15)
C19_3 C 0.54866(18) 0.3842(3) 0.95996(15)
H7_3 H 0.5710 0.4100 0.9756
C20_3 C 0.54944(18) 0.3695(3) 0.91886(16)
H8_3 H 0.5736 0.3824 0.9016
C21_3 C 0.52957(19) 0.3245(3) 0.83456(15)
C22_3 C 0.5282(2) 0.3843(4) 0.81532(18)
H9_3 H 0.5051 0.4169 0.8216
C23_3 C 0.5617(2) 0.3985(4) 0.78526(18)
H10_3 H 0.5620 0.4416 0.7731
C24_3 C 0.59355(19) 0.3502(4) 0.77384(15)
C25_3 C 0.5949(3) 0.2888(4) 0.7931(2)
H11_3 H 0.6176 0.2562 0.7860
C26_3 C 0.5628(2) 0.2737(4) 0.8233(2)
H12_3 H 0.5632 0.2309 0.8359
C27_3 C 0.6286(2) 0.3704(4) 0.74136(16)
O1_3 O 0.65803(16) 0.3218(2) 0.73243(12)
H13_3 H 0.6645 0.3369 0.7046
O2_2 O 0.62690(13) 0.4279(2) 0.72627(10)
C28_3 C 0.3225(2) 0.1238(4) 0.84513(16)
C29_3 C 0.2950(2) 0.1531(3) 0.81460(17)
H14_3 H 0.2944 0.2006 0.8123
C30_3 C 0.2678(2) 0.1138(4) 0.78674(16)
H15_3 H 0.2502 0.1356 0.7655
C31_3 C 0.26604(19) 0.0452(4) 0.78953(16)
C32_3 C 0.2926(2) 0.0126(3) 0.81992(17)
C33_3 C 0.3209(2) 0.0527(4) 0.84782(16)
H17_3 H 0.3392 0.0310 0.8687
O4_3 O 0.20958(13) 0.0367(3) 0.73240(11)
H18_3 H 0.2071 0.0852 0.7362
Zn1_3 Zn 0.41524(2) 0.27117(3) 0.942890(16)
O9_3 O 0.37163(12) 0.35835(19) 0.93178(9)
H27_3 H 0.3836 0.3760 0.9023
C49_3 C 0.3340(2) 0.3856(4) 0.9580(2)
H28_3 H 0.3092 0.4082 0.9409
H29_3 H 0.3190 0.3479 0.9720
C50_3 C 0.3548(3) 0.4359(4) 0.9895(2)
H30_3 H 0.3696 0.4745 0.9761
H32_3 H 0.2912 0.4906 0.9927
H16_3 H 0.2920 0.9651 0.8222
C34_3 C 0.2361(2) 0.9998(4) 0.75995(18)
O3_3 O 0.23639(17) 0.9376(3) 0.76108(13)
O11_2 O 0.12690(13) 0.9279(2) 0.72627(10)
H24_4 H 0.0432 0.0392 0.0853
O8_4 O 0.11872(13) 0.0585(2) 0.13240(9)
H33_4 H 0.131567 0.0714113 0.105544
C42_4 C 0.02364(19) 0.8912(4) 0.04452(15)
C43_4 C 0.0180(2) 0.9583(3) 0.05283(16)
C44_4 C 0.0476(2) 0.9925(3) 0.08115(16)
C45_4 C 0.08283(19) 0.9588(3) 0.10302(15)
C46_4 C 0.0889(2) 0.8908(4) 0.09598(19)
H25_4 H 0.1129 0.8674 0.1112
C47_4 C 0.0604(2) 0.8545(4) 0.06658(18)
H26_4 H 0.0655 0.8081 0.0618
C48_4 C 0.1150(2) 0.9928(4) 0.13455(19)
C1_4 C 0.00734(18) 0.8313(3) 0.90680(15)
C18_4 C 0.00646(18) 0.8519(3) 0.97362(15)
C19_4 C 0.04866(18) 0.8842(3) 0.95996(15)
H7_4 H 0.0710 0.9100 0.9756
C20_4 C 0.04944(18) 0.8695(3) 0.91886(16)
H8_4 H 0.0736 0.8824 0.9016
C21_4 C 0.02957(19) 0.8245(3) 0.83456(15)
C22_4 C 0.0282(2) 0.8843(4) 0.81532(18)
H9_4 H 0.0051 0.9169 0.8216
C23_4 C 0.0617(2) 0.8985(4) 0.78526(18)
H10_4 H 0.0620 0.9416 0.7731
C24_4 C 0.09355(19) 0.8502(4) 0.77384(15)
C25_4 C 0.0949(3) 0.7888(4) 0.7931(2)
H11_4 H 0.1176 0.7562 0.7860
C26_4 C 0.0628(2) 0.7737(4) 0.8233(2)
H12_4 H 0.0632 0.7309 0.8359
C27_4 C 0.1286(2) 0.8704(4) 0.74136(16)
O1_4 O 0.15803(16) 0.8218(2) 0.73243(12)
H13_4 H 0.1645 0.8369 0.7046
N3_4 N 0.91893(14) 0.7798(2) 0.00547(11)
C12_4 C 0.84857(19) 0.7100(3) 0.02207(14)
C13_4 C 0.88673(19) 0.7535(3) 0.03181(14)
C14_4 C 0.9000(2) 0.7796(3) 0.07177(14)
H5_4 H 0.8835 0.7703 0.0953
C15_4 C 0.9394(2) 0.8189(3) 0.07078(15)
H6_4 H 0.9556 0.8413 0.0926
C16_4 C 0.95117(18) 0.8188(3) 0.02818(15)
C17_4 C 0.99224(18) 0.8519(3) 0.01408(14)
C35_4 C 0.81678(18) 0.6863(3) 0.05622(14)
C36_4 C 0.7855(2) 0.7340(3) 0.07161(17)
H19_4 H 0.7831 0.7778 0.0604
C37_4 C 0.75685(19) 0.7146(4) 0.10514(17)
H20_4 H 0.7366 0.7464 0.1169
C38_4 C 0.7595(2) 0.6477(3) 0.12007(15)
C39_4 C 0.7909(2) 0.6035(3) 0.10312(16)
H21_4 H 0.7935 0.5590 0.1133
C40_4 C 0.8192(2) 0.6229(3) 0.07094(17)
H22_4 H 0.8399 0.5913 0.0597
C41_4 C 0.7277(2) 0.6285(4) 0.15337(16)
O6_4 O 0.70520(16) 0.6751(2) 0.17102(13)
H23_4 H 0.9933 0.9824 0.0389
H31_4 H 0.8788 0.9140 0.0076
O10_4 O 0.8139(2) 0.9581(3) 0.01196(19)
N1_4 N 0.92224(14) 0.7412(2) 0.88293(11)
N2_4 N 0.86219(13) 0.6975(2) 0.94826(12)
N4_4 N 0.98136(13) 0.8184(2) 0.94140(11)
C2_4 C 0.99549(18) 0.8055(3) 0.86784(14)
C3_4 C 0.9570(2) 0.7638(3) 0.85672(15)
C4_4 C 0.9450(2) 0.7370(3) 0.81635(14)
H1_4 H 0.9620 0.7452 0.7929
C5_4 C 0.9058(2) 0.6986(3) 0.81820(14)
H2_4 H 0.8907 0.6749 0.7964
C6_4 C 0.89060(18) 0.6998(3) 0.86017(14)
C7_4 C 0.85192(18) 0.6639(3) 0.87437(14)
C8_4 C 0.83864(18) 0.6614(3) 0.91644(15)
C9_4 C 0.79755(17) 0.6259(3) 0.93258(16)
H3_4 H 0.7754 0.5991 0.9174
C10_4 C 0.7969(2) 0.6383(3) 0.97321(16)
H4_4 H 0.7749 0.6212 0.9913
C11_4 C 0.83667(19) 0.6828(3) 0.98306(14)
C28_4 C 0.8225(2) 0.6238(4) 0.84513(16)
C29_4 C 0.7950(2) 0.6531(3) 0.81460(17)
H14_4 H 0.7944 0.7006 0.8123
C30_4 C 0.7678(2) 0.6138(4) 0.78674(16)
H15_4 H 0.7502 0.6356 0.7655
C31_4 C 0.76604(19) 0.5452(4) 0.78953(16)
C32_4 C 0.7926(2) 0.5126(3) 0.81992(17)
H16_4 H 0.7920 0.4651 0.8222
C33_4 C 0.8209(2) 0.5527(4) 0.84782(16)
H17_4 H 0.8392 0.5310 0.8687
C34_4 C 0.7361(2) 0.4998(4) 0.75995(18)
O3_4 O 0.73639(17) 0.4376(3) 0.76108(13)
O4_4 O 0.70958(13) 0.5367(3) 0.73240(11)
H18_4 H 0.7071 0.5852 0.7362
Zn1_4 Zn 0.91524(2) 0.77117(3) 0.942890(16)
O9_4 O 0.87163(12) 0.85835(19) 0.93178(9)
H27_4 H 0.8836 0.8760 0.9023
C49_4 C 0.8340(2) 0.8856(4) 0.9580(2)
H28_4 H 0.8092 0.9082 0.9409
H29_4 H 0.8190 0.8479 0.9720
C50_4 C 0.8548(3) 0.9359(4) 0.9895(2)
H30_4 H 0.8696 0.9745 0.9761
H32_4 H 0.7912 0.9906 0.9927
N1_5 N 0.57776(14) 0.2412(2) 0.61707(11)
N2_5 N 0.63781(13) 0.1975(2) 0.55174(12)
N3_5 N 0.58107(14) 0.2798(2) 0.49453(11)
N4_5 N 0.51864(13) 0.3184(2) 0.55860(11)
C1_5 C 0.49266(18) 0.3313(3) 0.59320(15)
C2_5 C 0.50451(18) 0.3055(3) 0.63216(14)
C3_5 C 0.5430(2) 0.2638(3) 0.64328(15)
C4_5 C 0.5550(2) 0.2370(3) 0.68365(14)
H1_5 H 0.5380 0.2452 0.7071
C5_5 C 0.5942(2) 0.1986(3) 0.68180(14)
H2_5 H 0.6093 0.1749 0.7036
C6_5 C 0.60940(18) 0.1998(3) 0.63983(14)
C7_5 C 0.64808(18) 0.1639(3) 0.62563(14)
C8_5 C 0.66136(18) 0.1614(3) 0.58356(15)
C9_5 C 0.70245(17) 0.1259(3) 0.56742(16)
H3_5 H 0.7246 0.0991 0.5826
C10_5 C 0.7031(2) 0.1383(3) 0.52679(16)
H4_5 H 0.7251 0.1212 0.5087
C11_5 C 0.66333(19) 0.1828(3) 0.51694(14)
C12_5 C 0.65143(19) 0.2100(3) 0.47793(14)
C13_5 C 0.61327(19) 0.2535(3) 0.46819(14)
C14_5 C 0.6000(2) 0.2796(3) 0.42823(14)
H5_5 H 0.6165 0.2703 0.4047
C15_5 C 0.5606(2) 0.3189(3) 0.42922(15)
H6_5 H 0.5444 0.3413 0.4074
C16_5 C 0.54883(18) 0.3188(3) 0.47182(15)
C17_5 C 0.50776(18) 0.3519(3) 0.48592(14)
C18_5 C 0.49354(18) 0.3519(3) 0.52638(15)
C19_5 C 0.45134(18) 0.3842(3) 0.54004(15)
H7_5 H 0.4290 0.4100 0.5244
C20_5 C 0.45056(18) 0.3695(3) 0.58114(16)
H8_5 H 0.4264 0.3824 0.5984
C21_5 C 0.47043(19) 0.3245(3) 0.66544(15)
C22_5 C 0.4718(2) 0.3843(4) 0.68468(18)
H9_5 H 0.4949 0.4169 0.6784
C23_5 C 0.4383(2) 0.3985(4) 0.71474(18)
H10_5 H 0.4380 0.4416 0.7269
C24_5 C 0.40645(19) 0.3502(4) 0.72616(15)
C25_5 C 0.4051(3) 0.2888(4) 0.7069(2)
H11_5 H 0.3824 0.2562 0.7140
C26_5 C 0.4372(2) 0.2737(4) 0.6767(2)
H12_5 H 0.4368 0.2309 0.6641
C27_5 C 0.3714(2) 0.3704(4) 0.75864(16)
O1_5 O 0.34197(16) 0.3218(2) 0.76757(12)
H13_5 H 0.3355 0.3369 0.7954
O2_3 O 0.37310(13) 0.4279(2) 0.77373(10)
C28_5 C 0.6775(2) 0.1238(4) 0.65487(16)
C29_5 C 0.7050(2) 0.1531(3) 0.68540(17)
H14_5 H 0.7056 0.2006 0.6877
C30_5 C 0.7322(2) 0.1138(4) 0.71326(16)
H15_5 H 0.7498 0.1356 0.7345
C31_5 C 0.73396(19) 0.0452(4) 0.71047(16)
C32_5 C 0.7074(2) 0.0126(3) 0.68008(17)
C33_5 C 0.6791(2) 0.0527(4) 0.65218(16)
H17_5 H 0.6608 0.0310 0.6313
O4_5 O 0.79042(13) 0.0367(3) 0.76760(11)
H18_5 H 0.7929 0.0852 0.7638
C35_5 C 0.68322(18) 0.1863(3) 0.44378(14)
C36_5 C 0.7145(2) 0.2340(3) 0.42839(17)
H19_5 H 0.7169 0.2778 0.4396
C37_5 C 0.74315(19) 0.2146(4) 0.39486(17)
H20_5 H 0.7634 0.2464 0.3831
C38_5 C 0.7405(2) 0.1477(3) 0.37993(15)
C39_5 C 0.7091(2) 0.1035(3) 0.39688(16)
H21_5 H 0.7065 0.0590 0.3867
C40_5 C 0.6808(2) 0.1229(3) 0.42906(17)
H22_5 H 0.6601 0.0913 0.4403
C41_5 C 0.7723(2) 0.1285(4) 0.34663(16)
O5_3 O 0.77495(12) 0.0672(2) 0.33863(10)
O6_5 O 0.79480(16) 0.1751(2) 0.32898(13)
C42_5 C 0.47636(19) 0.3912(4) 0.45548(15)
C43_5 C 0.4820(2) 0.4583(3) 0.44717(16)
H23_5 H 0.5067 0.4824 0.4611
C44_5 C 0.4524(2) 0.4925(3) 0.41885(16)
H24_5 H 0.4568 0.5392 0.4147
C45_5 C 0.41717(19) 0.4588(3) 0.39698(15)
C46_5 C 0.4111(2) 0.3908(4) 0.40402(19)
H25_5 H 0.3871 0.3674 0.3888
C47_5 C 0.4396(2) 0.3545(4) 0.43342(18)
H26_5 H 0.4345 0.3081 0.4382
C48_5 C 0.3850(2) 0.4928(4) 0.36545(19)
O7_3 O 0.36107(13) 0.4599(2) 0.33902(11)
O8_5 O 0.38128(13) 0.5585(2) 0.36760(9)
Zn1_5 Zn 0.58476(2) 0.27117(3) 0.557110(16)
O9_5 O 0.62837(12) 0.35835(19) 0.56822(9)
H27_5 H 0.6164 0.3760 0.5977
C49_5 C 0.6660(2) 0.3856(4) 0.5420(2)
H28_5 H 0.6908 0.4082 0.5591
H29_5 H 0.6810 0.3479 0.5280
C50_5 C 0.6452(3) 0.4359(4) 0.5105(2)
H30_5 H 0.6304 0.4745 0.5239
H31_5 H 0.6212 0.4140 0.4924
O10_5 O 0.6861(2) 0.4581(3) 0.48804(19)
H32_5 H 0.7088 0.4906 0.5073
Zn3_2 Zn 0.32416(2) 0.47290(3) 0.805270(16)
O13_3 O 0.86107(13) 0.0401(2) 0.83902(11)
Zn4_2 Zn 0.82416(2) 0.02710(3) 0.305270(16)
Zn5_2 Zn 0.32416(2) 0.52710(3) 0.305270(16)
H33_5 H 0.368433 0.571411 0.394456
H16_5 H 0.7080 0.9651 0.6778
C34_5 C 0.7639(2) 0.9998(4) 0.74005(18)
O3_5 O 0.76361(17) 0.9376(3) 0.73892(13)
Zn2_2 Zn 0.82416(2) 0.97290(3) 0.805270(16)
O11_3 O 0.87310(13) 0.9279(2) 0.77373(10)
O12_3 O 0.77495(12) 0.9328(2) 0.83863(10)
N1_6 N 0.07776(14) 0.7412(2) 0.61707(11)
N2_6 N 0.13781(13) 0.6975(2) 0.55174(12)
N3_6 N 0.08107(14) 0.7798(2) 0.49453(11)
N4_6 N 0.01864(13) 0.8184(2) 0.55860(11)
C2_6 C 0.00451(18) 0.8055(3) 0.63216(14)
C3_6 C 0.0430(2) 0.7638(3) 0.64328(15)
C4_6 C 0.0550(2) 0.7370(3) 0.68365(14)
H1_6 H 0.0380 0.7452 0.7071
C5_6 C 0.0942(2) 0.6986(3) 0.68180(14)
H2_6 H 0.1093 0.6749 0.7036
C6_6 C 0.10940(18) 0.6998(3) 0.63983(14)
C7_6 C 0.14808(18) 0.6639(3) 0.62563(14)
C8_6 C 0.16136(18) 0.6614(3) 0.58356(15)
C9_6 C 0.20245(17) 0.6259(3) 0.56742(16)
H3_6 H 0.2246 0.5991 0.5826
C10_6 C 0.2031(2) 0.6383(3) 0.52679(16)
H4_6 H 0.2251 0.6212 0.5087
C11_6 C 0.16333(19) 0.6828(3) 0.51694(14)
C12_6 C 0.15143(19) 0.7100(3) 0.47793(14)
C13_6 C 0.11327(19) 0.7535(3) 0.46819(14)
C14_6 C 0.1000(2) 0.7796(3) 0.42823(14)
H5_6 H 0.1165 0.7703 0.4047
C15_6 C 0.0606(2) 0.8189(3) 0.42922(15)
H6_6 H 0.0444 0.8413 0.4074
C16_6 C 0.04883(18) 0.8188(3) 0.47182(15)
C17_6 C 0.00776(18) 0.8519(3) 0.48592(14)
C28_6 C 0.1775(2) 0.6238(4) 0.65487(16)
C29_6 C 0.2050(2) 0.6531(3) 0.68540(17)
H14_6 H 0.2056 0.7006 0.6877
C30_6 C 0.2322(2) 0.6138(4) 0.71326(16)
H15_6 H 0.2498 0.6356 0.7345
C31_6 C 0.23396(19) 0.5452(4) 0.71047(16)
C32_6 C 0.2074(2) 0.5126(3) 0.68008(17)
H16_6 H 0.2080 0.4651 0.6778
C33_6 C 0.1791(2) 0.5527(4) 0.65218(16)
H17_6 H 0.1608 0.5310 0.6313
C34_6 C 0.2639(2) 0.4998(4) 0.74005(18)
O3_6 O 0.26361(17) 0.4376(3) 0.73892(13)
O4_6 O 0.29042(13) 0.5367(3) 0.76760(11)
H18_6 H 0.2929 0.5852 0.7638
C35_6 C 0.18322(18) 0.6863(3) 0.44378(14)
C36_6 C 0.2145(2) 0.7340(3) 0.42839(17)
H19_6 H 0.2169 0.7778 0.4396
C37_6 C 0.24315(19) 0.7146(4) 0.39486(17)
H20_6 H 0.2634 0.7464 0.3831
C38_6 C 0.2405(2) 0.6477(3) 0.37993(15)
C39_6 C 0.2091(2) 0.6035(3) 0.39688(16)
H21_6 H 0.2065 0.5590 0.3867
C40_6 C 0.1808(2) 0.6229(3) 0.42906(17)
H22_6 H 0.1601 0.5913 0.4403
C41_6 C 0.2723(2) 0.6285(4) 0.34663(16)
O5_4 O 0.27495(12) 0.5672(2) 0.33863(10)
O6_6 O 0.29480(16) 0.6751(2) 0.32898(13)
H23_6 H 0.0067 0.9824 0.4611
Zn1_6 Zn 0.08476(2) 0.77117(3) 0.557110(16)
O9_6 O 0.12837(12) 0.85835(19) 0.56822(9)
H27_6 H 0.1164 0.8760 0.5977
C49_6 C 0.1660(2) 0.8856(4) 0.5420(2)
H28_6 H 0.1908 0.9082 0.5591
H29_6 H 0.1810 0.8479 0.5280
C50_6 C 0.1452(3) 0.9359(4) 0.5105(2)
H30_6 H 0.1304 0.9745 0.5239
H31_6 H 0.1212 0.9140 0.4924
O10_6 O 0.1861(2) 0.9581(3) 0.48804(19)
H32_6 H 0.2088 0.9906 0.5073
O12_4 O 0.27495(12) 0.4328(2) 0.83863(10)
O13_4 O 0.36107(13) 0.5401(2) 0.83902(11)
H24_6 H 0.9568 0.0392 0.4147
O8_6 O 0.88128(13) 0.0585(2) 0.36760(9)
H33_6 H 0.868433 0.0714113 0.394456
C1_6 C 0.99266(18) 0.8313(3) 0.59320(15)
C18_6 C 0.99354(18) 0.8519(3) 0.52638(15)
C19_6 C 0.95134(18) 0.8842(3) 0.54004(15)
H7_6 H 0.9290 0.9100 0.5244
C20_6 C 0.95056(18) 0.8695(3) 0.58114(16)
H8_6 H 0.9264 0.8824 0.5984
C21_6 C 0.97043(19) 0.8245(3) 0.66544(15)
C22_6 C 0.9718(2) 0.8843(4) 0.68468(18)
H9_6 H 0.9949 0.9169 0.6784
C23_6 C 0.9383(2) 0.8985(4) 0.71474(18)
H10_6 H 0.9380 0.9416 0.7269
C24_6 C 0.90645(19) 0.8502(4) 0.72616(15)
C25_6 C 0.9051(3) 0.7888(4) 0.7069(2)
H11_6 H 0.8824 0.7562 0.7140
C26_6 C 0.9372(2) 0.7737(4) 0.6767(2)
H12_6 H 0.9368 0.7309 0.6641
C27_6 C 0.8714(2) 0.8704(4) 0.75864(16)
O1_6 O 0.84197(16) 0.8218(2) 0.76757(12)
H13_6 H 0.8355 0.8369 0.7954
C42_6 C 0.97636(19) 0.8912(4) 0.45548(15)
C43_6 C 0.9820(2) 0.9583(3) 0.44717(16)
C44_6 C 0.9524(2) 0.9925(3) 0.41885(16)
C45_6 C 0.91717(19) 0.9588(3) 0.39698(15)
C46_6 C 0.9111(2) 0.8908(4) 0.40402(19)
H25_6 H 0.8871 0.8674 0.3888
C47_6 C 0.9396(2) 0.8545(4) 0.43342(18)
H26_6 H 0.9345 0.8081 0.4382
C48_6 C 0.8850(2) 0.9928(4) 0.36545(19)
O7_4 O 0.86107(13) 0.9599(2) 0.33902(11)
H16_7 H 0.7080 0.0349 0.1778
C34_7 C 0.7639(2) 0.0002(4) 0.24005(18)
O3_7 O 0.76361(17) 0.0624(3) 0.23892(13)
O11_4 O 0.87310(13) 0.0721(2) 0.27373(10)
N1_7 N 0.57776(14) 0.7588(2) 0.11707(11)
N2_7 N 0.63781(13) 0.8025(2) 0.05174(12)
N4_7 N 0.51864(13) 0.6816(2) 0.05860(11)
C1_7 C 0.49266(18) 0.6687(3) 0.09320(15)
C2_7 C 0.50451(18) 0.6945(3) 0.13216(14)
C3_7 C 0.5430(2) 0.7362(3) 0.14328(15)
C4_7 C 0.5550(2) 0.7630(3) 0.18365(14)
H1_7 H 0.5380 0.7548 0.2071
C5_7 C 0.5942(2) 0.8014(3) 0.18180(14)
H2_7 H 0.6093 0.8251 0.2036
C6_7 C 0.60940(18) 0.8002(3) 0.13983(14)
C7_7 C 0.64808(18) 0.8361(3) 0.12563(14)
C8_7 C 0.66136(18) 0.8386(3) 0.08356(15)
C9_7 C 0.70245(17) 0.8741(3) 0.06742(16)
H3_7 H 0.7246 0.9009 0.0826
C10_7 C 0.7031(2) 0.8617(3) 0.02679(16)
H4_7 H 0.7251 0.8788 0.0087
C11_7 C 0.66333(19) 0.8172(3) 0.01694(14)
C18_7 C 0.49354(18) 0.6481(3) 0.02638(15)
C19_7 C 0.45134(18) 0.6158(3) 0.04004(15)
H7_7 H 0.4290 0.5900 0.0244
C20_7 C 0.45056(18) 0.6305(3) 0.08114(16)
H8_7 H 0.4264 0.6176 0.0984
C21_7 C 0.47043(19) 0.6755(3) 0.16544(15)
C22_7 C 0.4718(2) 0.6157(4) 0.18468(18)
H9_7 H 0.4949 0.5831 0.1784
C23_7 C 0.4383(2) 0.6015(4) 0.21474(18)
H10_7 H 0.4380 0.5584 0.2269
C24_7 C 0.40645(19) 0.6498(4) 0.22616(15)
C25_7 C 0.4051(3) 0.7112(4) 0.2069(2)
H11_7 H 0.3824 0.7438 0.2140
C26_7 C 0.4372(2) 0.7263(4) 0.1767(2)
H12_7 H 0.4368 0.7691 0.1641
C27_7 C 0.3714(2) 0.6296(4) 0.25864(16)
O1_7 O 0.34197(16) 0.6782(2) 0.26757(12)
H13_7 H 0.3355 0.6631 0.2954
O2_4 O 0.37310(13) 0.5721(2) 0.27373(10)
C28_7 C 0.6775(2) 0.8762(4) 0.15487(16)
C29_7 C 0.7050(2) 0.8469(3) 0.18540(17)
H14_7 H 0.7056 0.7994 0.1877
C30_7 C 0.7322(2) 0.8862(4) 0.21326(16)
H15_7 H 0.7498 0.8644 0.2345
C31_7 C 0.73396(19) 0.9548(4) 0.21047(16)
C32_7 C 0.7074(2) 0.9874(3) 0.18008(17)
C33_7 C 0.6791(2) 0.9473(4) 0.15218(16)
H17_7 H 0.6608 0.9690 0.1313
O4_7 O 0.79042(13) 0.9633(3) 0.26760(11)
H18_7 H 0.7929 0.9148 0.2638
Zn1_7 Zn 0.58476(2) 0.72883(3) 0.057110(16)
O9_7 O 0.62837(12) 0.64165(19) 0.06822(9)
H27_7 H 0.6164 0.6240 0.0977
C49_7 C 0.6660(2) 0.6144(4) 0.0420(2)
H28_7 H 0.6908 0.5918 0.0591
H29_7 H 0.6810 0.6521 0.0280
C50_7 C 0.6452(3) 0.5641(4) 0.0105(2)
H30_7 H 0.6304 0.5255 0.0239
H32_7 H 0.7088 0.5094 0.0073
N3_7 N 0.58107(14) 0.7202(2) 0.99453(11)
C12_7 C 0.65143(19) 0.7900(3) 0.97793(14)
C13_7 C 0.61327(19) 0.7465(3) 0.96819(14)
C14_7 C 0.6000(2) 0.7204(3) 0.92823(14)
H5_7 H 0.6165 0.7297 0.9047
C15_7 C 0.5606(2) 0.6811(3) 0.92922(15)
H6_7 H 0.5444 0.6587 0.9074
C16_7 C 0.54883(18) 0.6812(3) 0.97182(15)
C17_7 C 0.50776(18) 0.6481(3) 0.98592(14)
C35_7 C 0.68322(18) 0.8137(3) 0.94378(14)
C36_7 C 0.7145(2) 0.7660(3) 0.92839(17)
H19_7 H 0.7169 0.7222 0.9396
C37_7 C 0.74315(19) 0.7854(4) 0.89486(17)
H20_7 H 0.7634 0.7536 0.8831
C38_7 C 0.7405(2) 0.8523(3) 0.87993(15)
C39_7 C 0.7091(2) 0.8965(3) 0.89688(16)
H21_7 H 0.7065 0.9410 0.8867
C40_7 C 0.6808(2) 0.8771(3) 0.92906(17)
H22_7 H 0.6601 0.9087 0.9403
C41_7 C 0.7723(2) 0.8715(4) 0.84663(16)
O6_7 O 0.79480(16) 0.8249(2) 0.82898(13)
C42_7 C 0.47636(19) 0.6088(4) 0.95548(15)
C43_7 C 0.4820(2) 0.5417(3) 0.94717(16)
H23_7 H 0.5067 0.5176 0.9611
C44_7 C 0.4524(2) 0.5075(3) 0.91885(16)
H24_7 H 0.4568 0.4608 0.9147
C45_7 C 0.41717(19) 0.5412(3) 0.89698(15)
C46_7 C 0.4111(2) 0.6092(4) 0.90402(19)
H25_7 H 0.3871 0.6326 0.8888
C47_7 C 0.4396(2) 0.6455(4) 0.93342(18)
H26_7 H 0.4345 0.6919 0.9382
C48_7 C 0.3850(2) 0.5072(4) 0.86545(19)
O8_7 O 0.38128(13) 0.4415(2) 0.86760(9)
H31_7 H 0.6212 0.5860 0.9924
O10_7 O 0.6861(2) 0.5419(3) 0.98804(19)
H33_7 H 0.368433 0.428589 0.894456
N1_8 N 0.07776(14) 0.2588(2) 0.11707(11)
N2_8 N 0.13781(13) 0.3025(2) 0.05174(12)
N4_8 N 0.01864(13) 0.1816(2) 0.05860(11)
C2_8 C 0.00451(18) 0.1945(3) 0.13216(14)
C3_8 C 0.0430(2) 0.2362(3) 0.14328(15)
C4_8 C 0.0550(2) 0.2630(3) 0.18365(14)
H1_8 H 0.0380 0.2548 0.2071
C5_8 C 0.0942(2) 0.3014(3) 0.18180(14)
H2_8 H 0.1093 0.3251 0.2036
C6_8 C 0.10940(18) 0.3002(3) 0.13983(14)
C7_8 C 0.14808(18) 0.3361(3) 0.12563(14)
C8_8 C 0.16136(18) 0.3386(3) 0.08356(15)
C9_8 C 0.20245(17) 0.3741(3) 0.06742(16)
H3_8 H 0.2246 0.4009 0.0826
C10_8 C 0.2031(2) 0.3617(3) 0.02679(16)
H4_8 H 0.2251 0.3788 0.0087
C11_8 C 0.16333(19) 0.3172(3) 0.01694(14)
C28_8 C 0.1775(2) 0.3762(4) 0.15487(16)
C29_8 C 0.2050(2) 0.3469(3) 0.18540(17)
H14_8 H 0.2056 0.2994 0.1877
C30_8 C 0.2322(2) 0.3862(4) 0.21326(16)
H15_8 H 0.2498 0.3644 0.2345
C31_8 C 0.23396(19) 0.4548(4) 0.21047(16)
C32_8 C 0.2074(2) 0.4874(3) 0.18008(17)
H16_8 H 0.2080 0.5349 0.1778
C33_8 C 0.1791(2) 0.4473(4) 0.15218(16)
H17_8 H 0.1608 0.4690 0.1313
C34_8 C 0.2639(2) 0.5002(4) 0.24005(18)
O3_8 O 0.26361(17) 0.5624(3) 0.23892(13)
O4_8 O 0.29042(13) 0.4633(3) 0.26760(11)
H18_8 H 0.2929 0.4148 0.2638
Zn1_8 Zn 0.08476(2) 0.22883(3) 0.057110(16)
O9_8 O 0.12837(12) 0.14165(19) 0.06822(9)
H27_8 H 0.1164 0.1240 0.0977
C49_8 C 0.1660(2) 0.1144(4) 0.0420(2)
H28_8 H 0.1908 0.0918 0.0591
H29_8 H 0.1810 0.1521 0.0280
C50_8 C 0.1452(3) 0.0641(4) 0.0105(2)
H30_8 H 0.1304 0.0255 0.0239
H32_8 H 0.2088 0.0094 0.0073
N3_8 N 0.08107(14) 0.2202(2) 0.99453(11)
C12_8 C 0.15143(19) 0.2900(3) 0.97793(14)
C13_8 C 0.11327(19) 0.2465(3) 0.96819(14)
C14_8 C 0.1000(2) 0.2204(3) 0.92823(14)
H5_8 H 0.1165 0.2297 0.9047
C15_8 C 0.0606(2) 0.1811(3) 0.92922(15)
H6_8 H 0.0444 0.1587 0.9074
C16_8 C 0.04883(18) 0.1812(3) 0.97182(15)
C17_8 C 0.00776(18) 0.1481(3) 0.98592(14)
C35_8 C 0.18322(18) 0.3137(3) 0.94378(14)
C36_8 C 0.2145(2) 0.2660(3) 0.92839(17)
H19_8 H 0.2169 0.2222 0.9396
C37_8 C 0.24315(19) 0.2854(4) 0.89486(17)
H20_8 H 0.2634 0.2536 0.8831
C38_8 C 0.2405(2) 0.3523(3) 0.87993(15)
C39_8 C 0.2091(2) 0.3965(3) 0.89688(16)
H21_8 H 0.2065 0.4410 0.8867
C40_8 C 0.1808(2) 0.3771(3) 0.92906(17)
H22_8 H 0.1601 0.4087 0.9403
C41_8 C 0.2723(2) 0.3715(4) 0.84663(16)
O6_8 O 0.29480(16) 0.3249(2) 0.82898(13)
H23_8 H 0.0067 0.0176 0.9611
H31_8 H 0.1212 0.0860 0.9924
O10_8 O 0.1861(2) 0.0419(3) 0.98804(19)
C1_8 C 0.99266(18) 0.1687(3) 0.09320(15)
C18_8 C 0.99354(18) 0.1481(3) 0.02638(15)
C19_8 C 0.95134(18) 0.1158(3) 0.04004(15)
H7_8 H 0.9290 0.0900 0.0244
C20_8 C 0.95056(18) 0.1305(3) 0.08114(16)
H8_8 H 0.9264 0.1176 0.0984
C21_8 C 0.97043(19) 0.1755(3) 0.16544(15)
C22_8 C 0.9718(2) 0.1157(4) 0.18468(18)
H9_8 H 0.9949 0.0831 0.1784
C23_8 C 0.9383(2) 0.1015(4) 0.21474(18)
H10_8 H 0.9380 0.0584 0.2269
C24_8 C 0.90645(19) 0.1498(4) 0.22616(15)
C25_8 C 0.9051(3) 0.2112(4) 0.2069(2)
H11_8 H 0.8824 0.2438 0.2140
C26_8 C 0.9372(2) 0.2263(4) 0.1767(2)
H12_8 H 0.9368 0.2691 0.1641
C27_8 C 0.8714(2) 0.1296(4) 0.25864(16)
O1_8 O 0.84197(16) 0.1782(2) 0.26757(12)
H13_8 H 0.8355 0.1631 0.2954
C42_8 C 0.97636(19) 0.1088(4) 0.95548(15)
C43_8 C 0.9820(2) 0.0417(3) 0.94717(16)
C44_8 C 0.9524(2) 0.0075(3) 0.91885(16)
C45_8 C 0.91717(19) 0.0412(3) 0.89698(15)
C46_8 C 0.9111(2) 0.1092(4) 0.90402(19)
H25_8 H 0.8871 0.1326 0.8888
C47_8 C 0.9396(2) 0.1455(4) 0.93342(18)
H26_8 H 0.9345 0.1919 0.9382
C48_8 C 0.8850(2) 0.0072(4) 0.86545(19)
H24_8 H 0.9568 0.9608 0.9147
O8_8 O 0.88128(13) 0.9415(2) 0.86760(9)
H33_8 H 0.868433 0.928589 0.894456
loop_
_geom_bond_atom_site_label_1
_geom_bond_atom_site_label_2
_geom_bond_site_symmetry_1
_geom_bond_site_symmetry_2
O3 C34 1_555 1_555
O11 Zn2 1_555 1_555
O12 Zn2 1_555 1_555
N1 C3 1_555 1_555
N2 C8 1_555 1_555
N3 C13 1_555 1_555
N4 C1 1_555 1_555
C1 C2 1_555 1_555
C2 C3 1_555 1_555
C3 C4 1_555 1_555
C4 H1 1_555 1_555
C5 C4 1_555 1_555
H2 C5 1_555 1_555
C6 N1 1_555 1_555
C7 C6 1_555 1_555
C8 C7 1_555 1_555
C9 C8 1_555 1_555
H3 C9 1_555 1_555
C10 C9 1_555 1_555
H4 C10 1_555 1_555
C11 N2 1_555 1_555
C12 C11 1_555 1_555
C13 C12 1_555 1_555
C14 C13 1_555 1_555
H5 C14 1_555 1_555
C15 C14 1_555 1_555
H6 C15 1_555 1_555
C16 N3 1_555 1_555
C17 C16 1_555 1_555
C18 N4 1_555 1_555
C19 C18 1_555 1_555
H7 C19 1_555 1_555
C20 C1 1_555 1_555
H8 C20 1_555 1_555
C21 C2 1_555 1_555
C22 C21 1_555 1_555
H9 C22 1_555 1_555
C23 C22 1_555 1_555
H10 C23 1_555 1_555
C24 C23 1_555 1_555
C25 C24 1_555 1_555
H11 C25 1_555 1_555
C26 C21 1_555 1_555
H12 C26 1_555 1_555
C27 C24 1_555 1_555
O1 C27 1_555 1_555
H13 O1 1_555 1_555
O2 C27 1_555 1_555
C28 C7 1_555 1_555
C29 C28 1_555 1_555
H14 C29 1_555 1_555
C30 C29 1_555 1_555
H15 C30 1_555 1_555
C31 C30 1_555 1_555
C32 C31 1_555 1_555
C33 C28 1_555 1_555
H17 C33 1_555 1_555
H18 O4 1_555 1_555
C35 C12 1_555 1_555
C36 C35 1_555 1_555
H19 C36 1_555 1_555
C37 C36 1_555 1_555
H20 C37 1_555 1_555
C38 C37 1_555 1_555
C39 C38 1_555 1_555
H21 C39 1_555 1_555
C40 C35 1_555 1_555
H22 C40 1_555 1_555
C41 C38 1_555 1_555
O5 C41 1_555 1_555
O6 C41 1_555 1_555
C42 C17 1_555 1_555
C43 C42 1_555 1_555
H23 C43 1_555 1_555
C44 C43 1_555 1_555
H24 C44 1_555 1_555
C45 C44 1_555 1_555
C46 C45 1_555 1_555
H25 C46 1_555 1_555
C47 C42 1_555 1_555
H26 C47 1_555 1_555
C48 C45 1_555 1_555
O7 C48 1_555 1_555
O8 C48 1_555 1_555
Zn1 N1 1_555 1_555
O9 Zn1 1_555 1_555
H27 O9 1_555 1_555
C49 O9 1_555 1_555
H28 C49 1_555 1_555
H29 C49 1_555 1_555
C50 C49 1_555 1_555
H30 C50 1_555 1_555
H31 C50 1_555 1_555
O10 C50 1_555 1_555
H32 O10 1_555 1_555
Zn3 O2 1_555 1_555
Zn4 O5 1_555 1_555
Zn5 O7 1_555 1_555
N2 Zn1 1_555 1_555
N3 Zn1 1_555 1_555
N4 Zn1 1_555 1_555
C5 C6 1_555 1_555
C10 C11 1_555 1_555
C15 C16 1_555 1_555
C17 C18 1_555 1_555
C19 C20 1_555 1_555
C25 C26 1_555 1_555
C32 C33 1_555 1_555
C39 C40 1_555 1_555
C46 C47 1_555 1_555
O8 H33 1_555 1_555
C19_2 C18_2 1_555 1_555
H7_2 C19_2 1_555 1_555
C20_2 C1_2 1_555 1_555
H8_2 C20_2 1_555 1_555
C22_2 C21_2 1_555 1_555
H9_2 C22_2 1_555 1_555
C23_2 C22_2 1_555 1_555
H10_2 C23_2 1_555 1_555
C24_2 C23_2 1_555 1_555
C25_2 C24_2 1_555 1_555
H11_2 C25_2 1_555 1_555
C26_2 C21_2 1_555 1_555
H12_2 C26_2 1_555 1_555
C27_2 C24_2 1_555 1_555
O1_2 C27_2 1_555 1_555
H13_2 O1_2 1_555 1_555
O11 C27_2 1_555 1_555
C43_2 C42_2 1_555 1_555
C44_2 C43_2 1_555 1_555
C45_2 C44_2 1_555 1_555
C46_2 C45_2 1_555 1_555
H25_2 C46_2 1_555 1_555
C47_2 C42_2 1_555 1_555
H26_2 C47_2 1_555 1_555
C48_2 C45_2 1_555 1_555
O7_2 C48_2 1_555 1_555
C19_2 C20_2 1_555 1_555
C25_2 C26_2 1_555 1_555
C46_2 C47_2 1_555 1_555
O8_2 H33_2 1_555 1_555
N1_2 C3_2 1_555 1_555
N2_2 C8_2 1_555 1_555
N3_2 C13_2 1_555 1_555
C2_2 C3_2 1_555 1_555
C3_2 C4_2 1_555 1_555
C4_2 H1_2 1_555 1_555
C5_2 C4_2 1_555 1_555
H2_2 C5_2 1_555 1_555
C6_2 N1_2 1_555 1_555
C7_2 C6_2 1_555 1_555
C8_2 C7_2 1_555 1_555
C9_2 C8_2 1_555 1_555
H3_2 C9_2 1_555 1_555
C10_2 C9_2 1_555 1_555
H4_2 C10_2 1_555 1_555
C11_2 N2_2 1_555 1_555
C12_2 C11_2 1_555 1_555
C13_2 C12_2 1_555 1_555
C14_2 C13_2 1_555 1_555
H5_2 C14_2 1_555 1_555
C15_2 C14_2 1_555 1_555
H6_2 C15_2 1_555 1_555
C16_2 N3_2 1_555 1_555
C17_2 C16_2 1_555 1_555
C28_2 C7_2 1_555 1_555
C29_2 C28_2 1_555 1_555
H14_2 C29_2 1_555 1_555
C30_2 C29_2 1_555 1_555
H15_2 C30_2 1_555 1_555
C31_2 C30_2 1_555 1_555
C32_2 C31_2 1_555 1_555
H16_2 C32_2 1_555 1_555
C33_2 C28_2 1_555 1_555
H17_2 C33_2 1_555 1_555
C34_2 C31_2 1_555 1_555
O3_2 C34_2 1_555 1_555
O4_2 C34_2 1_555 1_555
H18_2 O4_2 1_555 1_555
C35_2 C12_2 1_555 1_555
C36_2 C35_2 1_555 1_555
H19_2 C36_2 1_555 1_555
C37_2 C36_2 1_555 1_555
H20_2 C37_2 1_555 1_555
C38_2 C37_2 1_555 1_555
C39_2 C38_2 1_555 1_555
H21_2 C39_2 1_555 1_555
C40_2 C35_2 1_555 1_555
H22_2 C40_2 1_555 1_555
C41_2 C38_2 1_555 1_555
O5_2 C41_2 1_555 1_555
O6_2 C41_2 1_555 1_555
Zn1_2 N1_2 1_555 1_555
Zn3 O4_2 1_555 1_555
O9_2 Zn1_2 1_555 1_555
H27_2 O9_2 1_555 1_555
C49_2 O9_2 1_555 1_555
H28_2 C49_2 1_555 1_555
H29_2 C49_2 1_555 1_555
C50_2 C49_2 1_555 1_555
H30_2 C50_2 1_555 1_555
H31_2 C50_2 1_555 1_555
O10_2 C50_2 1_555 1_555
H32_2 O10_2 1_555 1_555
O12_2 Zn3 1_555 1_555
O13_2 Zn3 1_555 1_555
Zn5 O5_2 1_555 1_555
N2_2 Zn1_2 1_555 1_555
N3_2 Zn1_2 1_555 1_555
N4_2 Zn1_2 1_555 1_555
C5_2 C6_2 1_555 1_555
C10_2 C11_2 1_555 1_555
C15_2 C16_2 1_555 1_555
C32_2 C33_2 1_555 1_555
C39_2 C40_2 1_555 1_555
N3_3 C13_3 1_555 1_555
C13_3 C12_3 1_555 1_555
C14_3 C13_3 1_555 1_555
H5_3 C14_3 1_555 1_555
C15_3 C14_3 1_555 1_555
H6_3 C15_3 1_555 1_555
C16_3 N3_3 1_555 1_555
C17_3 C16_3 1_555 1_555
C35_3 C12_3 1_555 1_555
C36_3 C35_3 1_555 1_555
H19_3 C36_3 1_555 1_555
C37_3 C36_3 1_555 1_555
H20_3 C37_3 1_555 1_555
C38_3 C37_3 1_555 1_555
C39_3 C38_3 1_555 1_555
H21_3 C39_3 1_555 1_555
C40_3 C35_3 1_555 1_555
H22_3 C40_3 1_555 1_555
C41_3 C38_3 1_555 1_555
O12 C41_3 1_555 1_555
O6_3 C41_3 1_555 1_555
C42_3 C17_3 1_555 1_555
C43_3 C42_3 1_555 1_555
H23_3 C43_3 1_555 1_555
C44_3 C43_3 1_555 1_555
H24_3 C44_3 1_555 1_555
C45_3 C44_3 1_555 1_555
C46_3 C45_3 1_555 1_555
H25_3 C46_3 1_555 1_555
C47_3 C42_3 1_555 1_555
H26_3 C47_3 1_555 1_555
C48_3 C45_3 1_555 1_555
O13_2 C48_3 1_555 1_555
O8_3 C48_3 1_555 1_555
C15_3 C16_3 1_555 1_555
C39_3 C40_3 1_555 1_555
C46_3 C47_3 1_555 1_555
O8_3 H33_3 1_555 1_555
N1_3 C3_3 1_555 1_555
N2_3 C8_3 1_555 1_555
N4_3 C1_3 1_555 1_555
C1_3 C2_3 1_555 1_555
C2_3 C3_3 1_555 1_555
C3_3 C4_3 1_555 1_555
C4_3 H1_3 1_555 1_555
C5_3 C4_3 1_555 1_555
H2_3 C5_3 1_555 1_555
C6_3 N1_3 1_555 1_555
C7_3 C6_3 1_555 1_555
C8_3 C7_3 1_555 1_555
C9_3 C8_3 1_555 1_555
H3_3 C9_3 1_555 1_555
C10_3 C9_3 1_555 1_555
H4_3 C10_3 1_555 1_555
C11_3 N2_3 1_555 1_555
C18_3 N4_3 1_555 1_555
C19_3 C18_3 1_555 1_555
H7_3 C19_3 1_555 1_555
C20_3 C1_3 1_555 1_555
H8_3 C20_3 1_555 1_555
C21_3 C2_3 1_555 1_555
C22_3 C21_3 1_555 1_555
H9_3 C22_3 1_555 1_555
C23_3 C22_3 1_555 1_555
H10_3 C23_3 1_555 1_555
C24_3 C23_3 1_555 1_555
C25_3 C24_3 1_555 1_555
H11_3 C25_3 1_555 1_555
C26_3 C21_3 1_555 1_555
H12_3 C26_3 1_555 1_555
C27_3 C24_3 1_555 1_555
O1_3 C27_3 1_555 1_555
H13_3 O1_3 1_555 1_555
O2_2 C27_3 1_555 1_555
C28_3 C7_3 1_555 1_555
C29_3 C28_3 1_555 1_555
H14_3 C29_3 1_555 1_555
C30_3 C29_3 1_555 1_555
H15_3 C30_3 1_555 1_555
C31_3 C30_3 1_555 1_555
C32_3 C31_3 1_555 1_555
C33_3 C28_3 1_555 1_555
H17_3 C33_3 1_555 1_555
H18_3 O4_3 1_555 1_555
Zn1_3 N1_3 1_555 1_555
O9_3 Zn1_3 1_555 1_555
H27_3 O9_3 1_555 1_555
C49_3 O9_3 1_555 1_555
H28_3 C49_3 1_555 1_555
H29_3 C49_3 1_555 1_555
C50_3 C49_3 1_555 1_555
H30_3 C50_3 1_555 1_555
Zn5 O2_2 1_555 1_555
N2_3 Zn1_3 1_555 1_555
N4_3 Zn1_3 1_555 1_555
C5_3 C6_3 1_555 1_555
C10_3 C11_3 1_555 1_555
C19_3 C20_3 1_555 1_555
C25_3 C26_3 1_555 1_555
C32_3 C33_3 1_555 1_555
O3_3 C34_3 1_555 1_555
O11_2 Zn4 1_555 1_555
O8_4 H33_4 1_555 1_555
C43_4 C42_4 1_555 1_555
C44_4 C43_4 1_555 1_555
C45_4 C44_4 1_555 1_555
C46_4 C45_4 1_555 1_555
H25_4 C46_4 1_555 1_555
C47_4 C42_4 1_555 1_555
H26_4 C47_4 1_555 1_555
C48_4 C45_4 1_555 1_555
O13 C48_4 1_555 1_555
C46_4 C47_4 1_555 1_555
C19_4 C18_4 1_555 1_555
H7_4 C19_4 1_555 1_555
C20_4 C1_4 1_555 1_555
H8_4 C20_4 1_555 1_555
C22_4 C21_4 1_555 1_555
H9_4 C22_4 1_555 1_555
C23_4 C22_4 1_555 1_555
H10_4 C23_4 1_555 1_555
C24_4 C23_4 1_555 1_555
C25_4 C24_4 1_555 1_555
H11_4 C25_4 1_555 1_555
C26_4 C21_4 1_555 1_555
H12_4 C26_4 1_555 1_555
C27_4 C24_4 1_555 1_555
O1_4 C27_4 1_555 1_555
H13_4 O1_4 1_555 1_555
O11_2 C27_4 1_555 1_555
C19_4 C20_4 1_555 1_555
C25_4 C26_4 1_555 1_555
N3_4 C13_4 1_555 1_555
C13_4 C12_4 1_555 1_555
C14_4 C13_4 1_555 1_555
H5_4 C14_4 1_555 1_555
C15_4 C14_4 1_555 1_555
H6_4 C15_4 1_555 1_555
C16_4 N3_4 1_555 1_555
C17_4 C16_4 1_555 1_555
C35_4 C12_4 1_555 1_555
C36_4 C35_4 1_555 1_555
H19_4 C36_4 1_555 1_555
C37_4 C36_4 1_555 1_555
H20_4 C37_4 1_555 1_555
C38_4 C37_4 1_555 1_555
C39_4 C38_4 1_555 1_555
H21_4 C39_4 1_555 1_555
C40_4 C35_4 1_555 1_555
H22_4 C40_4 1_555 1_555
C41_4 C38_4 1_555 1_555
O12_2 C41_4 1_555 1_555
O6_4 C41_4 1_555 1_555
C15_4 C16_4 1_555 1_555
C39_4 C40_4 1_555 1_555
N1_4 C3_4 1_555 1_555
N2_4 C8_4 1_555 1_555
C2_4 C3_4 1_555 1_555
C3_4 C4_4 1_555 1_555
C4_4 H1_4 1_555 1_555
C5_4 C4_4 1_555 1_555
H2_4 C5_4 1_555 1_555
C6_4 N1_4 1_555 1_555
C7_4 C6_4 1_555 1_555
C8_4 C7_4 1_555 1_555
C9_4 C8_4 1_555 1_555
H3_4 C9_4 1_555 1_555
C10_4 C9_4 1_555 1_555
H4_4 C10_4 1_555 1_555
C11_4 N2_4 1_555 1_555
C28_4 C7_4 1_555 1_555
C29_4 C28_4 1_555 1_555
H14_4 C29_4 1_555 1_555
C30_4 C29_4 1_555 1_555
H15_4 C30_4 1_555 1_555
C31_4 C30_4 1_555 1_555
C32_4 C31_4 1_555 1_555
H16_4 C32_4 1_555 1_555
C33_4 C28_4 1_555 1_555
H17_4 C33_4 1_555 1_555
C34_4 C31_4 1_555 1_555
O3_4 C34_4 1_555 1_555
O4_4 C34_4 1_555 1_555
H18_4 O4_4 1_555 1_555
Zn1_4 N1_4 1_555 1_555
Zn5 O4_4 1_555 1_555
O9_4 Zn1_4 1_555 1_555
H27_4 O9_4 1_555 1_555
C49_4 O9_4 1_555 1_555
H28_4 C49_4 1_555 1_555
H29_4 C49_4 1_555 1_555
C50_4 C49_4 1_555 1_555
H30_4 C50_4 1_555 1_555
N2_4 Zn1_4 1_555 1_555
N4_4 Zn1_4 1_555 1_555
C5_4 C6_4 1_555 1_555
C10_4 C11_4 1_555 1_555
C32_4 C33_4 1_555 1_555
N1_5 C3_5 1_555 1_555
N2_5 C8_5 1_555 1_555
N3_5 C13_5 1_555 1_555
N4_5 C1_5 1_555 1_555
C1_5 C2_5 1_555 1_555
C2_5 C3_5 1_555 1_555
C3_5 C4_5 1_555 1_555
C4_5 H1_5 1_555 1_555
C5_5 C4_5 1_555 1_555
H2_5 C5_5 1_555 1_555
C6_5 N1_5 1_555 1_555
C7_5 C6_5 1_555 1_555
C8_5 C7_5 1_555 1_555
C9_5 C8_5 1_555 1_555
H3_5 C9_5 1_555 1_555
C10_5 C9_5 1_555 1_555
H4_5 C10_5 1_555 1_555
C11_5 N2_5 1_555 1_555
C12_5 C11_5 1_555 1_555
C13_5 C12_5 1_555 1_555
C14_5 C13_5 1_555 1_555
H5_5 C14_5 1_555 1_555
C15_5 C14_5 1_555 1_555
H6_5 C15_5 1_555 1_555
C16_5 N3_5 1_555 1_555
C17_5 C16_5 1_555 1_555
C18_5 N4_5 1_555 1_555
C19_5 C18_5 1_555 1_555
H7_5 C19_5 1_555 1_555
C20_5 C1_5 1_555 1_555
H8_5 C20_5 1_555 1_555
C21_5 C2_5 1_555 1_555
C22_5 C21_5 1_555 1_555
H9_5 C22_5 1_555 1_555
C23_5 C22_5 1_555 1_555
H10_5 C23_5 1_555 1_555
C24_5 C23_5 1_555 1_555
C25_5 C24_5 1_555 1_555
H11_5 C25_5 1_555 1_555
C26_5 C21_5 1_555 1_555
H12_5 C26_5 1_555 1_555
C27_5 C24_5 1_555 1_555
O1_5 C27_5 1_555 1_555
H13_5 O1_5 1_555 1_555
O2_3 C27_5 1_555 1_555
C28_5 C7_5 1_555 1_555
C29_5 C28_5 1_555 1_555
H14_5 C29_5 1_555 1_555
C30_5 C29_5 1_555 1_555
H15_5 C30_5 1_555 1_555
C31_5 C30_5 1_555 1_555
C32_5 C31_5 1_555 1_555
C33_5 C28_5 1_555 1_555
H17_5 C33_5 1_555 1_555
H18_5 O4_5 1_555 1_555
C35_5 C12_5 1_555 1_555
C36_5 C35_5 1_555 1_555
H19_5 C36_5 1_555 1_555
C37_5 C36_5 1_555 1_555
H20_5 C37_5 1_555 1_555
C38_5 C37_5 1_555 1_555
C39_5 C38_5 1_555 1_555
H21_5 C39_5 1_555 1_555
C40_5 C35_5 1_555 1_555
H22_5 C40_5 1_555 1_555
C41_5 C38_5 1_555 1_555
O5_3 C41_5 1_555 1_555
O6_5 C41_5 1_555 1_555
C42_5 C17_5 1_555 1_555
C43_5 C42_5 1_555 1_555
H23_5 C43_5 1_555 1_555
C44_5 C43_5 1_555 1_555
H24_5 C44_5 1_555 1_555
C45_5 C44_5 1_555 1_555
C46_5 C45_5 1_555 1_555
H25_5 C46_5 1_555 1_555
C47_5 C42_5 1_555 1_555
H26_5 C47_5 1_555 1_555
C48_5 C45_5 1_555 1_555
O7_3 C48_5 1_555 1_555
O8_5 C48_5 1_555 1_555
Zn1_5 N1_5 1_555 1_555
O9_5 Zn1_5 1_555 1_555
H27_5 O9_5 1_555 1_555
C49_5 O9_5 1_555 1_555
H28_5 C49_5 1_555 1_555
H29_5 C49_5 1_555 1_555
C50_5 C49_5 1_555 1_555
H30_5 C50_5 1_555 1_555
H31_5 C50_5 1_555 1_555
O10_5 C50_5 1_555 1_555
H32_5 O10_5 1_555 1_555
Zn3_2 O2_3 1_555 1_555
Zn4_2 O5_3 1_555 1_555
Zn5_2 O7_3 1_555 1_555
N2_5 Zn1_5 1_555 1_555
N3_5 Zn1_5 1_555 1_555
N4_5 Zn1_5 1_555 1_555
C5_5 C6_5 1_555 1_555
C10_5 C11_5 1_555 1_555
C15_5 C16_5 1_555 1_555
C17_5 C18_5 1_555 1_555
C19_5 C20_5 1_555 1_555
C25_5 C26_5 1_555 1_555
C32_5 C33_5 1_555 1_555
C39_5 C40_5 1_555 1_555
C46_5 C47_5 1_555 1_555
O8_5 H33_5 1_555 1_555
O3_5 C34_5 1_555 1_555
O11_3 Zn2_2 1_555 1_555
O12_3 Zn2_2 1_555 1_555
N1_6 C3_6 1_555 1_555
N2_6 C8_6 1_555 1_555
N3_6 C13_6 1_555 1_555
C2_6 C3_6 1_555 1_555
C3_6 C4_6 1_555 1_555
C4_6 H1_6 1_555 1_555
C5_6 C4_6 1_555 1_555
H2_6 C5_6 1_555 1_555
C6_6 N1_6 1_555 1_555
C7_6 C6_6 1_555 1_555
C8_6 C7_6 1_555 1_555
C9_6 C8_6 1_555 1_555
H3_6 C9_6 1_555 1_555
C10_6 C9_6 1_555 1_555
H4_6 C10_6 1_555 1_555
C11_6 N2_6 1_555 1_555
C12_6 C11_6 1_555 1_555
C13_6 C12_6 1_555 1_555
C14_6 C13_6 1_555 1_555
H5_6 C14_6 1_555 1_555
C15_6 C14_6 1_555 1_555
H6_6 C15_6 1_555 1_555
C16_6 N3_6 1_555 1_555
C17_6 C16_6 1_555 1_555
C28_6 C7_6 1_555 1_555
C29_6 C28_6 1_555 1_555
H14_6 C29_6 1_555 1_555
C30_6 C29_6 1_555 1_555
H15_6 C30_6 1_555 1_555
C31_6 C30_6 1_555 1_555
C32_6 C31_6 1_555 1_555
H16_6 C32_6 1_555 1_555
C33_6 C28_6 1_555 1_555
H17_6 C33_6 1_555 1_555
C34_6 C31_6 1_555 1_555
O3_6 C34_6 1_555 1_555
O4_6 C34_6 1_555 1_555
H18_6 O4_6 1_555 1_555
C35_6 C12_6 1_555 1_555
C36_6 C35_6 1_555 1_555
H19_6 C36_6 1_555 1_555
C37_6 C36_6 1_555 1_555
H20_6 C37_6 1_555 1_555
C38_6 C37_6 1_555 1_555
C39_6 C38_6 1_555 1_555
H21_6 C39_6 1_555 1_555
C40_6 C35_6 1_555 1_555
H22_6 C40_6 1_555 1_555
C41_6 C38_6 1_555 1_555
O5_4 C41_6 1_555 1_555
O6_6 C41_6 1_555 1_555
Zn1_6 N1_6 1_555 1_555
Zn3_2 O4_6 1_555 1_555
O9_6 Zn1_6 1_555 1_555
H27_6 O9_6 1_555 1_555
C49_6 O9_6 1_555 1_555
H28_6 C49_6 1_555 1_555
H29_6 C49_6 1_555 1_555
C50_6 C49_6 1_555 1_555
H30_6 C50_6 1_555 1_555
H31_6 C50_6 1_555 1_555
O10_6 C50_6 1_555 1_555
H32_6 O10_6 1_555 1_555
O12_4 Zn3_2 1_555 1_555
O13_4 Zn3_2 1_555 1_555
Zn5_2 O5_4 1_555 1_555
N2_6 Zn1_6 1_555 1_555
N3_6 Zn1_6 1_555 1_555
N4_6 Zn1_6 1_555 1_555
C5_6 C6_6 1_555 1_555
C10_6 C11_6 1_555 1_555
C15_6 C16_6 1_555 1_555
C32_6 C33_6 1_555 1_555
C39_6 C40_6 1_555 1_555
O8_6 H33_6 1_555 1_555
C19_6 C18_6 1_555 1_555
H7_6 C19_6 1_555 1_555
C20_6 C1_6 1_555 1_555
H8_6 C20_6 1_555 1_555
C22_6 C21_6 1_555 1_555
H9_6 C22_6 1_555 1_555
C23_6 C22_6 1_555 1_555
H10_6 C23_6 1_555 1_555
C24_6 C23_6 1_555 1_555
C25_6 C24_6 1_555 1_555
H11_6 C25_6 1_555 1_555
C26_6 C21_6 1_555 1_555
H12_6 C26_6 1_555 1_555
C27_6 C24_6 1_555 1_555
O1_6 C27_6 1_555 1_555
H13_6 O1_6 1_555 1_555
O11_3 C27_6 1_555 1_555
C43_6 C42_6 1_555 1_555
C44_6 C43_6 1_555 1_555
C45_6 C44_6 1_555 1_555
C46_6 C45_6 1_555 1_555
H25_6 C46_6 1_555 1_555
C47_6 C42_6 1_555 1_555
H26_6 C47_6 1_555 1_555
C48_6 C45_6 1_555 1_555
O7_4 C48_6 1_555 1_555
C19_6 C20_6 1_555 1_555
C25_6 C26_6 1_555 1_555
C46_6 C47_6 1_555 1_555
O3_7 C34_7 1_555 1_555
O11_4 Zn4_2 1_555 1_555
N1_7 C3_7 1_555 1_555
N2_7 C8_7 1_555 1_555
N4_7 C1_7 1_555 1_555
C1_7 C2_7 1_555 1_555
C2_7 C3_7 1_555 1_555
C3_7 C4_7 1_555 1_555
C4_7 H1_7 1_555 1_555
C5_7 C4_7 1_555 1_555
H2_7 C5_7 1_555 1_555
C6_7 N1_7 1_555 1_555
C7_7 C6_7 1_555 1_555
C8_7 C7_7 1_555 1_555
C9_7 C8_7 1_555 1_555
H3_7 C9_7 1_555 1_555
C10_7 C9_7 1_555 1_555
H4_7 C10_7 1_555 1_555
C11_7 N2_7 1_555 1_555
C18_7 N4_7 1_555 1_555
C19_7 C18_7 1_555 1_555
H7_7 C19_7 1_555 1_555
C20_7 C1_7 1_555 1_555
H8_7 C20_7 1_555 1_555
C21_7 C2_7 1_555 1_555
C22_7 C21_7 1_555 1_555
H9_7 C22_7 1_555 1_555
C23_7 C22_7 1_555 1_555
H10_7 C23_7 1_555 1_555
C24_7 C23_7 1_555 1_555
C25_7 C24_7 1_555 1_555
H11_7 C25_7 1_555 1_555
C26_7 C21_7 1_555 1_555
H12_7 C26_7 1_555 1_555
C27_7 C24_7 1_555 1_555
O1_7 C27_7 1_555 1_555
H13_7 O1_7 1_555 1_555
O2_4 C27_7 1_555 1_555
C28_7 C7_7 1_555 1_555
C29_7 C28_7 1_555 1_555
H14_7 C29_7 1_555 1_555
C30_7 C29_7 1_555 1_555
H15_7 C30_7 1_555 1_555
C31_7 C30_7 1_555 1_555
C32_7 C31_7 1_555 1_555
C33_7 C28_7 1_555 1_555
H17_7 C33_7 1_555 1_555
H18_7 O4_7 1_555 1_555
Zn1_7 N1_7 1_555 1_555
O9_7 Zn1_7 1_555 1_555
H27_7 O9_7 1_555 1_555
C49_7 O9_7 1_555 1_555
H28_7 C49_7 1_555 1_555
H29_7 C49_7 1_555 1_555
C50_7 C49_7 1_555 1_555
H30_7 C50_7 1_555 1_555
Zn5_2 O2_4 1_555 1_555
N2_7 Zn1_7 1_555 1_555
N4_7 Zn1_7 1_555 1_555
C5_7 C6_7 1_555 1_555
C10_7 C11_7 1_555 1_555
C19_7 C20_7 1_555 1_555
C25_7 C26_7 1_555 1_555
C32_7 C33_7 1_555 1_555
N3_7 C13_7 1_555 1_555
C13_7 C12_7 1_555 1_555
C14_7 C13_7 1_555 1_555
H5_7 C14_7 1_555 1_555
C15_7 C14_7 1_555 1_555
H6_7 C15_7 1_555 1_555
C16_7 N3_7 1_555 1_555
C17_7 C16_7 1_555 1_555
C35_7 C12_7 1_555 1_555
C36_7 C35_7 1_555 1_555
H19_7 C36_7 1_555 1_555
C37_7 C36_7 1_555 1_555
H20_7 C37_7 1_555 1_555
C38_7 C37_7 1_555 1_555
C39_7 C38_7 1_555 1_555
H21_7 C39_7 1_555 1_555
C40_7 C35_7 1_555 1_555
H22_7 C40_7 1_555 1_555
C41_7 C38_7 1_555 1_555
O12_3 C41_7 1_555 1_555
O6_7 C41_7 1_555 1_555
C42_7 C17_7 1_555 1_555
C43_7 C42_7 1_555 1_555
H23_7 C43_7 1_555 1_555
C44_7 C43_7 1_555 1_555
H24_7 C44_7 1_555 1_555
C45_7 C44_7 1_555 1_555
C46_7 C45_7 1_555 1_555
H25_7 C46_7 1_555 1_555
C47_7 C42_7 1_555 1_555
H26_7 C47_7 1_555 1_555
C48_7 C45_7 1_555 1_555
O13_4 C48_7 1_555 1_555
O8_7 C48_7 1_555 1_555
C15_7 C16_7 1_555 1_555
C39_7 C40_7 1_555 1_555
C46_7 C47_7 1_555 1_555
O8_7 H33_7 1_555 1_555
N1_8 C3_8 1_555 1_555
N2_8 C8_8 1_555 1_555
C2_8 C3_8 1_555 1_555
C3_8 C4_8 1_555 1_555
C4_8 H1_8 1_555 1_555
C5_8 C4_8 1_555 1_555
H2_8 C5_8 1_555 1_555
C6_8 N1_8 1_555 1_555
C7_8 C6_8 1_555 1_555
C8_8 C7_8 1_555 1_555
C9_8 C8_8 1_555 1_555
H3_8 C9_8 1_555 1_555
C10_8 C9_8 1_555 1_555
H4_8 C10_8 1_555 1_555
C11_8 N2_8 1_555 1_555
C28_8 C7_8 1_555 1_555
C29_8 C28_8 1_555 1_555
H14_8 C29_8 1_555 1_555
C30_8 C29_8 1_555 1_555
H15_8 C30_8 1_555 1_555
C31_8 C30_8 1_555 1_555
C32_8 C31_8 1_555 1_555
H16_8 C32_8 1_555 1_555
C33_8 C28_8 1_555 1_555
H17_8 C33_8 1_555 1_555
C34_8 C31_8 1_555 1_555
O3_8 C34_8 1_555 1_555
O4_8 C34_8 1_555 1_555
H18_8 O4_8 1_555 1_555
Zn1_8 N1_8 1_555 1_555
Zn5_2 O4_8 1_555 1_555
O9_8 Zn1_8 1_555 1_555
H27_8 O9_8 1_555 1_555
C49_8 O9_8 1_555 1_555
H28_8 C49_8 1_555 1_555
H29_8 C49_8 1_555 1_555
C50_8 C49_8 1_555 1_555
H30_8 C50_8 1_555 1_555
N2_8 Zn1_8 1_555 1_555
N4_8 Zn1_8 1_555 1_555
C5_8 C6_8 1_555 1_555
C10_8 C11_8 1_555 1_555
C32_8 C33_8 1_555 1_555
N3_8 C13_8 1_555 1_555
C13_8 C12_8 1_555 1_555
C14_8 C13_8 1_555 1_555
H5_8 C14_8 1_555 1_555
C15_8 C14_8 1_555 1_555
H6_8 C15_8 1_555 1_555
C16_8 N3_8 1_555 1_555
C17_8 C16_8 1_555 1_555
C35_8 C12_8 1_555 1_555
C36_8 C35_8 1_555 1_555
H19_8 C36_8 1_555 1_555
C37_8 C36_8 1_555 1_555
H20_8 C37_8 1_555 1_555
C38_8 C37_8 1_555 1_555
C39_8 C38_8 1_555 1_555
H21_8 C39_8 1_555 1_555
C40_8 C35_8 1_555 1_555
H22_8 C40_8 1_555 1_555
C41_8 C38_8 1_555 1_555
O12_4 C41_8 1_555 1_555
O6_8 C41_8 1_555 1_555
C15_8 C16_8 1_555 1_555
C39_8 C40_8 1_555 1_555
C19_8 C18_8 1_555 1_555
H7_8 C19_8 1_555 1_555
C20_8 C1_8 1_555 1_555
H8_8 C20_8 1_555 1_555
C22_8 C21_8 1_555 1_555
H9_8 C22_8 1_555 1_555
C23_8 C22_8 1_555 1_555
H10_8 C23_8 1_555 1_555
C24_8 C23_8 1_555 1_555
C25_8 C24_8 1_555 1_555
H11_8 C25_8 1_555 1_555
C26_8 C21_8 1_555 1_555
H12_8 C26_8 1_555 1_555
C27_8 C24_8 1_555 1_555
O1_8 C27_8 1_555 1_555
H13_8 O1_8 1_555 1_555
O11_4 C27_8 1_555 1_555
C19_8 C20_8 1_555 1_555
C25_8 C26_8 1_555 1_555
C43_8 C42_8 1_555 1_555
C44_8 C43_8 1_555 1_555
C45_8 C44_8 1_555 1_555
C46_8 C45_8 1_555 1_555
H25_8 C46_8 1_555 1_555
C47_8 C42_8 1_555 1_555
H26_8 C47_8 1_555 1_555
C48_8 C45_8 1_555 1_555
O13_3 C48_8 1_555 1_555
C46_8 C47_8 1_555 1_555
O8_8 H33_8 1_555 1_555

#END
