
###############################################################################
#
# This file contains modified crystal structure data generated from the
# MOF subset of the Cambridge Structural Database (CSD) v543 
# hosted by the Cambridge Crystallographic Data Centre (CCDC).
#
# This work is licensed under the Creative Commons
# Attribution-NonCommercial-ShareAlike 4.0 International License.
# To view a copy of this license, visit
# http://creativecommons.org/licenses/by-nc-sa/4.0/
# or send a letter to
# Creative Commons, PO Box 1866, Mountain View, CA 94042, USA.
#
# CIF created using the CSD Python API on 29 September 2022
# The structure has been converted into the P1 space group
# The structure has a 3D framework
# The original CSD entry WEBBIS is in the orthorhombic crystal system
# The original CSD entry WEBBIS is in a Sohncke space group
# The framework has been calculated to contain at least 10.0% void space
# The void calculation uses a probe of radius 1.32A, grid spacing 0.4
#
###############################################################################

data_WEBBIS
_chemical_formula_moiety         '(C544 H352 Cd12 N64 O64)n'
_symmetry_cell_setting           triclinic
_symmetry_space_group_name_H-M   'P 1'
_symmetry_Int_Tables_number      1
_space_group_name_Hall           'P 1'
loop_
_symmetry_equiv_pos_site_id
_symmetry_equiv_pos_as_xyz
1 x,y,z
_cell_length_a                   16.9469(13)
_cell_length_b                   21.2747(16)
_cell_length_c                   43.876(3)
_cell_angle_alpha                90
_cell_angle_beta                 90
_cell_angle_gamma                90
_cell_volume                     15819.1
loop_
_atom_site_label
_atom_site_type_symbol
_atom_site_fract_x
_atom_site_fract_y
_atom_site_fract_z
H4 H 0.364832 0.007918 0.475033
H7 H 0.309152 0.032463 0.393171
C15 C 0.2080(5) 0.0042(3) 0.46495(17)
C16 C 0.2056(5) 0.0039(4) 0.43478(18)
C17 C 0.1565(5) 0.0456(4) 0.41575(17)
C18 C 0.1631(5) 0.1103(4) 0.41832(18)
H9 H 0.196736 0.128360 0.433282
C19 C 0.0711(4) 0.1243(3) 0.37597(17)
C20 C 0.0644(5) 0.0591(4) 0.37371(18)
H10 H 0.030751 0.040653 0.358891
C21 C 0.1184(5) 0.1500(4) 0.39804(17)
H11 H 0.121739 0.194422 0.399993
C22 C 0.1087(5) 0.0208(4) 0.39389(17)
C23 C 0.0302(5) 0.1649(4) 0.35464(17)
C24 C 0.0668(5) 0.1193(4) 0.52349(17)
C25 C 0.0335(5) 0.0860(4) 0.50129(16)
C26 C 0.1570(5) 0.0429(4) 0.48497(18)
C27 C 0.0767(5) 0.0478(4) 0.48118(18)
H14 H 0.050893 0.025660 0.465239
C28 C 0.1940(6) 0.0751(4) 0.5090(2)
H15 H 0.248848 0.070518 0.512910
C29 C 0.1461(6) 0.1147(4) 0.5271(2)
H16 H 0.170652 0.139357 0.542440
C30 C 0.0220(5) 0.1614(4) 0.54388(17)
O5 O 0.0018(4) 0.1441(3) 0.32980(13)
O6 O 0.0229(3) 0.2228(3) 0.36026(13)
O7 O 0.0567(3) 0.2085(3) 0.55529(13)
O27 O 0.0072(4) 0.3645(3) 0.58955(13)
O28 O 0.0327(3) 0.2853(2) 0.61953(12)
Cd2 Cd 0.00916(3) 0.25496(2) 0.06531(2)
H72 H 0.007385 0.366083 0.009184
O17 O 0.0216(4) 0.1481(3) 0.04160(13)
O18 O 0.1184(3) 0.2170(3) 0.04120(13)
O23 O 0.0842(4) 0.2738(3) 0.11002(13)
O24 O 0.0393(3) 0.3541(2) 0.08350(12)
C1 C 0.4091(5) 0.8358(4) 0.53340(18)
C2 C 0.2625(5) 0.9601(3) 0.48226(16)
C3 C 0.3615(5) 0.8805(4) 0.51494(17)
C4 C 0.2337(5) 0.9078(4) 0.4956(2)
H1 H 0.178987 0.898655 0.493989
C5 C 0.3887(5) 0.9319(4) 0.50274(19)
H2 H 0.442551 0.942422 0.505989
C6 C 0.2824(5) 0.8667(4) 0.51190(18)
H3 H 0.261173 0.829663 0.520777
C7 C 0.3420(5) 0.9726(4) 0.48495(19)
C8 C 0.4099(5) 0.8459(4) 0.36119(19)
C9 C 0.2590(5) 0.9609(4) 0.41583(16)
C10 C 0.2558(5) 0.8982(4) 0.41813(18)
H5 H 0.220136 0.879576 0.432174
C11 C 0.3044(5) 0.8592(4) 0.40013(17)
H6 H 0.300806 0.814752 0.401964
C12 C 0.3560(5) 0.8851(4) 0.38023(18)
C13 C 0.3091(6) 0.9881(4) 0.3955(2)
C14 C 0.3621(7) 0.9504(5) 0.3776(2)
H8 H 0.399800 0.969169 0.364415
H12 H 0.104971 0.976361 0.392090
C118 C 0.0608(4) 0.4975(3) 0.86083(16)
C119 C 0.1322(5) 0.4563(3) 0.86752(16)
C120 C 0.1570(4) 0.4462(4) 0.89681(15)
H75 H 0.134267 0.469901 0.912937
C121 C 0.2144(4) 0.4024(3) 0.90329(16)
H76 H 0.231145 0.395865 0.923710
C122 C 0.2475(4) 0.3679(4) 0.87970(15)
C123 C 0.2255(5) 0.3796(4) 0.84952(18)
H77 H 0.249670 0.357337 0.833243
C124 C 0.1682(5) 0.4237(4) 0.84381(16)
H78 H 0.153038 0.432043 0.823369
C125 C 0.3614(4) 0.3244(4) 0.90751(16)
H79 H 0.370293 0.358910 0.920837
C126 C 0.3113(4) 0.2641(4) 0.87062(16)
H80 H 0.279614 0.248812 0.854352
C127 C 0.3732(5) 0.2349(4) 0.88414(17)
H81 H 0.392919 0.194814 0.878433
C128 C 0.0697(4) 0.5389(3) 0.83385(16)
C129 C 0.0829(4) 0.6173(3) 0.78349(16)
C130 C 0.0197(5) 0.5327(4) 0.80891(17)
C131 C 0.0262(4) 0.5694(4) 0.78396(16)
C132 C 0.1282(5) 0.5846(4) 0.83241(16)
H84 H 0.165061 0.588325 0.848628
C133 C 0.1336(5) 0.6250(4) 0.80749(17)
H85 H 0.172024 0.657566 0.807175
C134 C 0.0419(5) 0.6586(3) 0.73311(16)
C135 C 0.1500(5) 0.6984(4) 0.7504(2)
H87 H 0.194299 0.707777 0.762837
N13 N 0.3041(4) 0.3214(3) 0.88578(13)
N14 N 0.4034(4) 0.2710(3) 0.90706(14)
N15 N 0.0896(4) 0.6552(3) 0.75709(14)
N16 N 0.0648(4) 0.6984(3) 0.71228(13)
O1 O 0.4784(4) 0.8519(3) 0.54160(13)
O2 O 0.3816(3) 0.7830(3) 0.54120(13)
O3 O 0.4102(3) 0.7871(3) 0.36720(13)
O4 O 0.4472(4) 0.8672(3) 0.33948(16)
C136 C 0.1336(5) 0.7238(4) 0.7231(2)
H88 H 0.164609 0.754569 0.712976
Cd7 Cd 0.49084(3) 0.74504(2) 0.56531(2)
Cd8 Cd 0.50916(3) 0.24504(2) 0.93469(2)
Cd11 Cd 0.49369(3) 0.76625(2) 0.32698(2)
N18 N 0.0974(3) 0.7599(3) 0.64501(12)
Cd4 Cd 0.95790(3) 0.26176(2) 0.57704(2)
H13 H 0.977828 0.088142 0.498900
C31 C 0.7550(5) 0.2311(4) 0.63700(18)
H17 H 0.719673 0.243438 0.652703
C32 C 0.8232(5) 0.2604(4) 0.62896(17)
H18 H 0.845514 0.295843 0.638933
C33 C 0.8077(5) 0.1817(4) 0.59837(17)
H19 H 0.815917 0.152017 0.582511
C34 C 0.6863(4) 0.1338(3) 0.61915(15)
C35 C 0.7015(4) 0.0723(4) 0.61091(18)
H20 H 0.752023 0.060383 0.603538
C36 C 0.5686(4) 0.0439(3) 0.62293(16)
C37 C 0.6426(4) 0.0289(3) 0.61355(18)
C38 C 0.5540(5) 0.1061(4) 0.6302(2)
H22 H 0.502650 0.118154 0.636580
C39 C 0.6129(4) 0.1513(4) 0.62832(19)
H23 H 0.602090 0.193814 0.633389
C42 C 0.4279(4) 0.0405(4) 0.58490(15)
C43 C 0.4765(5) 0.0406(4) 0.56098(18)
H24 H 0.519054 0.011526 0.560649
C44 C 0.4013(4) 0.1213(4) 0.53586(16)
C45 C 0.3628(4) 0.0809(4) 0.58459(16)
H25 H 0.326629 0.080793 0.601139
C46 C 0.3509(5) 0.1212(4) 0.56007(18)
H26 H 0.307108 0.149079 0.560201
C47 C 0.4673(5) 0.0821(3) 0.53614(17)
H27 H 0.504989 0.083346 0.520110
C48 C 0.3401(6) 0.2151(5) 0.5107(2)
H28 H 0.307776 0.229908 0.526855
C49 C 0.3469(6) 0.2401(5) 0.4829(2)
H29 H 0.318894 0.275828 0.475631
C50 C 0.4262(4) 0.1590(4) 0.48378(16)
H30 H 0.463306 0.127434 0.478336
H38 H 0.558216 0.011347 0.682147
N1 N 0.8549(3) 0.2301(3) 0.60383(13)
N2 N 0.7472(3) 0.1798(3) 0.61785(12)
N3 N 0.3901(4) 0.1626(3) 0.51120(14)
N4 N 0.4034(4) 0.2045(3) 0.46566(15)
O8 O 0.9501(4) 0.1517(3) 0.54918(13)
Cd5 Cd 0.96304(3) 0.24943(2) 0.31470(2)
Cd13 Cd 0.45790(3) 0.23824(2) 0.42296(2)
N17 N 0.9034(4) 0.2955(3) 0.53434(15)
Cd1 Cd 0.53696(3) 0.75057(2) 0.81470(2)
Cd3 Cd 0.99369(3) 0.73375(2) 0.67302(2)
H21 H 0.653865 0.986343 0.608604
C40 C 0.5050(4) 0.9963(3) 0.62745(15)
C41 C 0.4372(4) 0.9961(4) 0.61103(16)
C51 C 0.3697(4) 0.9527(3) 0.61617(16)
C52 C 0.3433(4) 0.9359(4) 0.64542(16)
H31 H 0.363938 0.957519 0.662612
C53 C 0.3365(5) 0.9238(4) 0.59157(17)
H32 H 0.352510 0.935161 0.571572
C54 C 0.2575(4) 0.8608(4) 0.62446(17)
C55 C 0.2893(4) 0.8897(4) 0.64988(16)
H33 H 0.273824 0.877605 0.669845
C56 C 0.2788(5) 0.8774(4) 0.59564(17)
H34 H 0.254938 0.857737 0.578532
C57 C 0.1408(4) 0.8103(4) 0.64778(17)
H35 H 0.130398 0.842738 0.662139
C58 C 0.1968(4) 0.7564(4) 0.61179(16)
H36 H 0.231888 0.743495 0.596088
C59 C 0.1338(5) 0.7244(4) 0.62216(17)
H37 H 0.116778 0.684451 0.615111
C60 C 0.5512(5) 0.9675(4) 0.67894(18)
C61 C 0.5254(4) 0.9486(3) 0.65119(15)
C62 C 0.5575(5) 0.8634(3) 0.69748(17)
C63 C 0.5320(5) 0.8417(4) 0.66896(16)
H39 H 0.524869 0.798021 0.665438
C64 C 0.5177(4) 0.8839(4) 0.64645(17)
H40 H 0.502030 0.869067 0.626936
C65 C 0.5680(6) 0.9280(4) 0.70268(18)
H41 H 0.586013 0.943450 0.721760
C66 C 0.5509(5) 0.8272(3) 0.75097(17)
H42 H 0.522444 0.862502 0.758390
C67 C 0.6119(5) 0.7398(4) 0.74758(19)
H43 H 0.635271 0.700610 0.752652
C68 C 0.6119(5) 0.7657(3) 0.71982(17)
H44 H 0.634617 0.748619 0.701838
C69 C 0.4613(6) 0.6501(4) 0.78827(18)
C70 C 0.4113(5) 0.6057(4) 0.77006(17)
C71 C 0.4402(5) 0.5723(4) 0.74568(16)
H45 H 0.494877 0.574879 0.741151
C72 C 0.3934(4) 0.5357(4) 0.72779(17)
H46 H 0.415884 0.513873 0.711012
C73 C 0.3349(5) 0.5971(4) 0.7766(2)
H47 H 0.313454 0.618112 0.793845
C74 C 0.3152(5) 0.5300(4) 0.73362(16)
C75 C 0.2853(5) 0.5588(5) 0.75932(17)
H48 H 0.231911 0.552649 0.765136
C76 C 0.4228(5) 0.6688(4) 0.60574(19)
C77 C 0.3812(5) 0.6231(4) 0.62726(17)
C78 C 0.3295(5) 0.6452(4) 0.65020(17)
H49 H 0.322123 0.689193 0.652568
C79 C 0.2986(5) 0.5417(4) 0.66587(15)
C80 C 0.2911(5) 0.6062(4) 0.66845(18)
H50 H 0.257509 0.622952 0.683746
C81 C 0.3906(5) 0.5592(4) 0.62401(17)
H51 H 0.424519 0.542538 0.608779
C82 C 0.3495(5) 0.5200(4) 0.64350(19)
H52 H 0.356514 0.475866 0.641441
C83 C 0.2534(5) 0.4953(3) 0.68499(18)
C84 C 0.2571(5) 0.4917(4) 0.71464(18)
C85 C 0.2087(4) 0.4462(4) 0.73318(17)
C86 C 0.0819(5) 0.4161(4) 0.75517(19)
H53 H 0.026851 0.422939 0.757662
C87 C 0.1210(5) 0.3647(4) 0.76997(18)
C88 C 0.2435(5) 0.3972(4) 0.74875(18)
H54 H 0.299096 0.391729 0.747668
C89 C 0.2008(4) 0.3577(4) 0.76515(19)
H55 H 0.226632 0.322655 0.774100
C90 C 0.1277(5) 0.4561(4) 0.73691(18)
H56 H 0.103257 0.490539 0.726885
C91 C 0.0753(6) 0.3229(5) 0.79068(19)
C92 C 0.0951(5) 0.3828(3) 0.63031(17)
C93 C 0.1479(5) 0.3554(4) 0.65114(17)
H57 H 0.149947 0.310933 0.652758
C94 C 0.1975(4) 0.4546(3) 0.66669(15)
C95 C 0.1953(5) 0.3901(4) 0.66873(17)
H58 H 0.228543 0.369601 0.683069
C96 C 0.1469(6) 0.4832(4) 0.6452(2)
H59 H 0.148530 0.527440 0.642298
C97 C 0.0937(5) 0.4462(4) 0.62818(19)
H60 H 0.056667 0.465979 0.615069
C98 C 0.0427(5) 0.3419(4) 0.61212(16)
C99 C 0.7343(4) 0.7268(4) 0.87730(16)
H61 H 0.763988 0.738870 0.894714
C100 C 0.6714(4) 0.7568(4) 0.86553(16)
H62 H 0.649558 0.794976 0.873003
C101 C 0.6924(5) 0.6743(4) 0.83749(18)
H63 H 0.688512 0.643443 0.821920
C102 C 0.9293(4) 0.5427(3) 0.87147(15)
C103 C 0.8576(5) 0.5244(4) 0.86140(19)
H64 H 0.848881 0.481078 0.857322
C104 C 0.7955(5) 0.5669(4) 0.85674(19)
H65 H 0.745453 0.553181 0.849549
C105 C 0.8100(4) 0.6294(3) 0.86304(17)
C106 C 0.9416(5) 0.6061(4) 0.8774(2)
H66 H 0.991897 0.619309 0.884482
C107 C 0.8830(5) 0.6508(4) 0.87326(19)
H67 H 0.892174 0.694103 0.877234
C108 C 0.9950(4) 0.4955(3) 0.87648(15)
C109 C 0.9861(4) 0.3851(3) 0.89740(16)
H68 H 0.998976 0.369344 0.877762
C110 C 0.9776(4) 0.4498(3) 0.90160(16)
C111 C 0.9529(5) 0.3685(4) 0.94950(16)
C112 C 0.9764(4) 0.3443(3) 0.92103(17)
H69 H 0.985166 0.300504 0.918373
C113 C 0.9520(5) 0.4718(3) 0.92966(17)
H70 H 0.940971 0.515239 0.932492
C114 C 0.9426(5) 0.4298(4) 0.95351(19)
H71 H 0.928477 0.445134 0.973100
C116 C 0.8999(6) 0.2715(5) 0.9747(2)
H73 H 0.869246 0.255273 0.958339
H82 H 0.979574 0.501617 0.809474
H83 H 0.992761 0.562717 0.766891
H86 H 0.995206 0.634222 0.731284
N5 N 0.2008(3) 0.8115(3) 0.62841(13)
N7 N 0.5737(4) 0.8201(3) 0.72237(13)
N8 N 0.5726(4) 0.7789(3) 0.76792(13)
N9 N 0.6437(3) 0.7232(3) 0.84083(13)
N10 N 0.7472(4) 0.6753(3) 0.85922(13)
N11 N 0.9440(4) 0.3248(3) 0.97405(13)
O9 O 0.4278(3) 0.6982(3) 0.79977(13)
O10 O 0.5336(4) 0.6401(2) 0.79087(13)
O11 O 0.4158(4) 0.7262(3) 0.61002(13)
O12 O 0.4607(3) 0.6459(2) 0.58350(12)
O13 O 0.0105(4) 0.3390(3) 0.80112(14)
O14 O 0.1057(4) 0.2685(3) 0.79733(14)
Cd10 Cd 0.00631(3) 0.23375(2) 0.82698(2)
O19 O 0.9102(3) 0.7129(3) 0.63280(13)
O20 O 0.9472(4) 0.6328(3) 0.66052(16)
O21 O 0.4982(4) 0.8559(3) 0.82980(13)
O22 O 0.4771(3) 0.7772(3) 0.86026(13)
O25 O 0.9895(4) 0.8390(3) 0.69888(14)
O26 O 0.8943(4) 0.7685(3) 0.70267(14)
C41_2 C 0.0628(4) 0.0039(4) 0.11103(16)
C51_2 C 0.1303(4) 0.0473(3) 0.11617(16)
C52_2 C 0.1567(4) 0.0641(4) 0.14542(16)
H31_2 H 0.136062 0.042481 0.162612
C53_2 C 0.1635(5) 0.0762(4) 0.09157(17)
H32_2 H 0.147490 0.064839 0.071572
C54_2 C 0.2425(4) 0.1392(4) 0.12446(17)
C55_2 C 0.2107(4) 0.1103(4) 0.14988(16)
H33_2 H 0.226176 0.122395 0.169845
C56_2 C 0.2212(5) 0.1226(4) 0.09564(17)
H34_2 H 0.245062 0.142263 0.078532
C57_2 C 0.3592(4) 0.1897(4) 0.14778(17)
H35_2 H 0.369602 0.157262 0.162139
C58_2 C 0.3032(4) 0.2436(4) 0.11179(16)
H36_2 H 0.268112 0.256505 0.096088
C59_2 C 0.3662(5) 0.2756(4) 0.12216(17)
H37_2 H 0.383222 0.315549 0.115111
C69_2 C 0.0387(6) 0.3499(4) 0.28827(18)
C70_2 C 0.0887(5) 0.3943(4) 0.27006(17)
C71_2 C 0.0598(5) 0.4277(4) 0.24568(16)
H45_2 H 0.005123 0.425121 0.241151
C72_2 C 0.1066(4) 0.4643(4) 0.22779(17)
H46_2 H 0.084116 0.486127 0.211012
C73_2 C 0.1651(5) 0.4029(4) 0.2766(2)
H47_2 H 0.186546 0.381888 0.293845
C74_2 C 0.1848(5) 0.4700(4) 0.23362(16)
C75_2 C 0.2147(5) 0.4412(5) 0.25932(17)
H48_2 H 0.268089 0.447351 0.265136
C76_2 C 0.0772(5) 0.3312(4) 0.10574(19)
C77_2 C 0.1188(5) 0.3769(4) 0.12726(17)
C78_2 C 0.1705(5) 0.3548(4) 0.15020(17)
H49_2 H 0.177877 0.310807 0.152568
C79_2 C 0.2014(5) 0.4583(4) 0.16587(15)
C80_2 C 0.2089(5) 0.3938(4) 0.16845(18)
H50_2 H 0.242491 0.377048 0.183746
C81_2 C 0.1094(5) 0.4408(4) 0.12401(17)
H51_2 H 0.075481 0.457462 0.108779
C82_2 C 0.1505(5) 0.4800(4) 0.14350(19)
H52_2 H 0.143486 0.524134 0.141441
C83_2 C 0.2466(5) 0.5047(3) 0.18499(18)
C84_2 C 0.2429(5) 0.5083(4) 0.21464(18)
C85_2 C 0.2913(4) 0.5538(4) 0.23318(17)
C86_2 C 0.4181(5) 0.5839(4) 0.25517(19)
H53_2 H 0.473149 0.577061 0.257662
C87_2 C 0.3790(5) 0.6353(4) 0.26997(18)
C88_2 C 0.2565(5) 0.6028(4) 0.24875(18)
H54_2 H 0.200904 0.608271 0.247668
C89_2 C 0.2992(4) 0.6423(4) 0.26515(19)
H55_2 H 0.273368 0.677345 0.274100
C90_2 C 0.3723(5) 0.5439(4) 0.23691(18)
H56_2 H 0.396743 0.509461 0.226885
C91_2 C 0.4247(6) 0.6771(5) 0.29068(19)
C92_2 C 0.4049(5) 0.6172(3) 0.13031(17)
C93_2 C 0.3521(5) 0.6446(4) 0.15114(17)
H57_2 H 0.350053 0.689067 0.152758
C94_2 C 0.3025(4) 0.5454(3) 0.16669(15)
C95_2 C 0.3047(5) 0.6099(4) 0.16873(17)
H58_2 H 0.271457 0.630399 0.183069
C96_2 C 0.3531(6) 0.5168(4) 0.1452(2)
H59_2 H 0.351470 0.472560 0.142298
C97_2 C 0.4063(5) 0.5538(4) 0.12818(19)
H60_2 H 0.443333 0.534021 0.115069
C98_2 C 0.4573(5) 0.6581(4) 0.11212(16)
N5_2 N 0.2992(3) 0.1885(3) 0.12841(13)
N6 N 0.4026(3) 0.2401(3) 0.14501(12)
O9_2 O 0.0722(3) 0.3018(3) 0.29977(13)
O13_2 O 0.4895(4) 0.6610(3) 0.30112(14)
O14_2 O 0.3943(4) 0.7315(3) 0.29733(14)
O15 O 0.4928(4) 0.6355(3) 0.08955(13)
O16 O 0.4673(3) 0.7147(2) 0.11953(12)
Cd9 Cd 0.50631(3) 0.26625(2) 0.17302(2)
Cd12 Cd 0.54210(3) 0.73824(2) 0.07704(2)
C49_2 C 0.1531(6) 0.7599(5) 0.9829(2)
H29_2 H 0.181106 0.724172 0.975631
C50_2 C 0.0738(4) 0.8410(4) 0.98378(16)
H30_2 H 0.036694 0.872566 0.978336
N4_2 N 0.0966(4) 0.7955(3) 0.96566(15)
Cd13_2 Cd 0.04210(3) 0.76176(2) 0.92296(2)
C1_2 C 0.0909(5) 0.1642(4) 0.03340(18)
C3_2 C 0.1385(5) 0.1195(4) 0.01494(17)
C5_2 C 0.1113(5) 0.0681(4) 0.00274(19)
H2_2 H 0.057449 0.057578 0.005989
C6_2 C 0.2176(5) 0.1333(4) 0.01190(18)
H3_2 H 0.238827 0.170337 0.020777
H21_2 H 0.846135 0.013657 0.108604
C40_2 C 0.9950(4) 0.0037(3) 0.12745(15)
C60_2 C 0.9488(5) 0.0325(4) 0.17894(18)
C61_2 C 0.9746(4) 0.0514(3) 0.15119(15)
C62_2 C 0.9425(5) 0.1366(3) 0.19748(17)
C63_2 C 0.9680(5) 0.1583(4) 0.16896(16)
H39_2 H 0.975131 0.201979 0.165438
C64_2 C 0.9823(4) 0.1161(4) 0.14645(17)
H40_2 H 0.997970 0.130933 0.126936
C65_2 C 0.9320(6) 0.0720(4) 0.20268(18)
H41_2 H 0.913987 0.056550 0.221760
C66_2 C 0.9491(5) 0.1728(3) 0.25097(17)
H42_2 H 0.977556 0.137498 0.258390
C67_2 C 0.8881(5) 0.2602(4) 0.24758(19)
H43_2 H 0.864729 0.299390 0.252652
C68_2 C 0.8881(5) 0.2343(3) 0.21982(17)
H44_2 H 0.865383 0.251381 0.201838
C99_2 C 0.7657(4) 0.2732(4) 0.37730(16)
H61_2 H 0.736012 0.261130 0.394714
C100_2 C 0.8286(4) 0.2432(4) 0.36553(16)
H62_2 H 0.850442 0.205024 0.373003
C101_2 C 0.8076(5) 0.3257(4) 0.33749(18)
H63_2 H 0.811488 0.356557 0.321920
C102_2 C 0.5707(4) 0.4573(3) 0.37147(15)
C103_2 C 0.6424(5) 0.4756(4) 0.36140(19)
H64_2 H 0.651119 0.518922 0.357322
C104_2 C 0.7045(5) 0.4331(4) 0.35674(19)
H65_2 H 0.754547 0.446819 0.349549
C105_2 C 0.6900(4) 0.3706(3) 0.36304(17)
C106_2 C 0.5584(5) 0.3939(4) 0.3774(2)
H66_2 H 0.508103 0.380691 0.384482
C107_2 C 0.6170(5) 0.3492(4) 0.37326(19)
H67_2 H 0.607826 0.305897 0.377234
C108_2 C 0.5050(4) 0.5045(3) 0.37648(15)
C109_2 C 0.5139(4) 0.6149(3) 0.39740(16)
H68_2 H 0.501024 0.630656 0.377762
C110_2 C 0.5224(4) 0.5502(3) 0.40160(16)
C111_2 C 0.5471(5) 0.6315(4) 0.44950(16)
C112_2 C 0.5236(4) 0.6557(3) 0.42103(17)
H69_2 H 0.514834 0.699496 0.418373
C113_2 C 0.5480(5) 0.5282(3) 0.42966(17)
H70_2 H 0.559029 0.484761 0.432492
C114_2 C 0.5574(5) 0.5702(4) 0.45351(19)
H71_2 H 0.571523 0.554866 0.473100
C115 C 0.5254(5) 0.6678(3) 0.50299(18)
H72_2 H 0.492615 0.633917 0.509184
C116_2 C 0.6001(6) 0.7285(5) 0.4747(2)
H73_2 H 0.630754 0.744727 0.458339
C117 C 0.5925(5) 0.7548(4) 0.50317(18)
H74 H 0.614069 0.793788 0.509647
C118_2 C 0.4392(4) 0.5025(3) 0.36083(16)
C119_2 C 0.3678(5) 0.5437(3) 0.36752(16)
C120_2 C 0.3430(4) 0.5538(4) 0.39681(15)
H75_2 H 0.365733 0.530099 0.412937
C121_2 C 0.2856(4) 0.5976(3) 0.40329(16)
H76_2 H 0.268855 0.604135 0.423710
C122_2 C 0.2525(4) 0.6321(4) 0.37970(15)
C123_2 C 0.2745(5) 0.6204(4) 0.34952(18)
H77_2 H 0.250330 0.642663 0.333243
C124_2 C 0.3318(5) 0.5763(4) 0.34381(16)
H78_2 H 0.346962 0.567957 0.323369
C125_2 C 0.1386(4) 0.6756(4) 0.40751(16)
H79_2 H 0.129707 0.641090 0.420837
C126_2 C 0.1887(4) 0.7359(4) 0.37062(16)
H80_2 H 0.220386 0.751188 0.354352
C127_2 C 0.1268(5) 0.7651(4) 0.38414(17)
H81_2 H 0.107081 0.805186 0.378433
C128_2 C 0.4303(4) 0.4611(3) 0.33385(16)
C129_2 C 0.4171(4) 0.3827(3) 0.28349(16)
C130_2 C 0.4803(5) 0.4673(4) 0.30891(17)
H82_2 H 0.520426 0.498383 0.309474
C131_2 C 0.4738(4) 0.4306(4) 0.28396(16)
H83_2 H 0.507239 0.437283 0.266891
C132_2 C 0.3718(5) 0.4154(4) 0.33241(16)
H84_2 H 0.334939 0.411675 0.348628
C133_2 C 0.3664(5) 0.3750(4) 0.30749(17)
H85_2 H 0.327976 0.342434 0.307175
C134_2 C 0.4581(5) 0.3414(3) 0.23311(16)
H86_2 H 0.504794 0.365778 0.231284
C135_2 C 0.3500(5) 0.3016(4) 0.2504(2)
H87_2 H 0.305701 0.292223 0.262837
N7_2 N 0.9263(4) 0.1799(3) 0.22237(13)
N8_2 N 0.9274(4) 0.2211(3) 0.26792(13)
N9_2 N 0.8563(3) 0.2768(3) 0.34083(13)
N10_2 N 0.7528(4) 0.3247(3) 0.35922(13)
N11_2 N 0.5560(4) 0.6752(3) 0.47405(13)
N12 N 0.5478(4) 0.7140(3) 0.52071(15)
N13_2 N 0.1959(4) 0.6786(3) 0.38578(13)
N14_2 N 0.0966(4) 0.7290(3) 0.40706(14)
N15_2 N 0.4104(4) 0.3448(3) 0.25709(14)
N16_2 N 0.4352(4) 0.3016(3) 0.21228(13)
O10_2 O 0.9664(4) 0.3599(2) 0.29087(13)
C136_2 C 0.3664(5) 0.2762(4) 0.2231(2)
H88_2 H 0.335391 0.245431 0.212976
N19 N 0.5966(4) 0.7710(3) 0.59294(14)
O19_2 O 0.5898(3) 0.2871(3) 0.13280(13)
O20_2 O 0.5528(4) 0.3672(3) 0.16052(16)
O25_2 O 0.5105(4) 0.1610(3) 0.19888(14)
O26_2 O 0.6057(4) 0.2315(3) 0.20267(14)
C2_2 C 0.2375(5) 0.0399(3) 0.98226(16)
C4_2 C 0.2663(5) 0.0922(4) 0.9956(2)
H1_2 H 0.321013 0.101345 0.993989
C7_2 C 0.1580(5) 0.0274(4) 0.98495(19)
C8_2 C 0.0901(5) 0.1541(4) 0.86119(19)
C9_2 C 0.2410(5) 0.0391(4) 0.91583(16)
C10_2 C 0.2442(5) 0.1018(4) 0.91813(18)
H5_2 H 0.279864 0.120424 0.932174
C11_2 C 0.1956(5) 0.1408(4) 0.90013(17)
H6_2 H 0.199194 0.185248 0.901964
C12_2 C 0.1440(5) 0.1149(4) 0.88023(18)
C13_2 C 0.1909(6) 0.0119(4) 0.8955(2)
C14_2 C 0.1379(7) 0.0496(5) 0.8776(2)
H8_2 H 0.100200 0.030831 0.864415
H12_2 H 0.395029 0.023639 0.892090
O3_2 O 0.0898(3) 0.2129(3) 0.86720(13)
O4_2 O 0.0528(4) 0.1328(3) 0.83948(16)
C24_2 C 0.4332(5) 0.8807(4) 0.02349(17)
C25_2 C 0.4665(5) 0.9140(4) 0.00129(16)
C28_2 C 0.3060(6) 0.9249(4) 0.0090(2)
H15_2 H 0.251152 0.929482 0.012910
C29_2 C 0.3539(6) 0.8853(4) 0.0271(2)
H16_2 H 0.329348 0.860643 0.042440
C30_2 C 0.4780(5) 0.8386(4) 0.04388(17)
C31_2 C 0.7450(5) 0.7689(4) 0.13700(18)
H17_2 H 0.780327 0.756562 0.152703
C32_2 C 0.6768(5) 0.7396(4) 0.12896(17)
H18_2 H 0.654486 0.704157 0.138933
C33_2 C 0.6923(5) 0.8183(4) 0.09837(17)
H19_2 H 0.684083 0.847983 0.082511
C34_2 C 0.8137(4) 0.8662(3) 0.11915(15)
C35_2 C 0.7985(4) 0.9277(4) 0.11091(18)
H20_2 H 0.747977 0.939617 0.103538
C36_2 C 0.9314(4) 0.9561(3) 0.12293(16)
C37_2 C 0.8574(4) 0.9711(3) 0.11355(18)
C38_2 C 0.9460(5) 0.8939(4) 0.1302(2)
H22_2 H 0.997350 0.881846 0.136580
C39_2 C 0.8871(4) 0.8487(4) 0.12832(19)
H23_2 H 0.897910 0.806186 0.133389
H24_2 H 0.980946 0.988474 0.060649
H27_2 H 0.995011 0.916654 0.020110
H38_2 H 0.941784 0.988653 0.182147
N1_2 N 0.6451(3) 0.7699(3) 0.10383(13)
N2_2 N 0.7528(3) 0.8202(3) 0.11785(12)
O7_2 O 0.4433(3) 0.7915(3) 0.05529(13)
O8_2 O 0.5499(4) 0.8483(3) 0.04918(13)
N17_2 N 0.5966(4) 0.7045(3) 0.03434(15)
H4_2 H 0.135168 0.992082 0.975033
H7_2 H 0.190848 0.967537 0.893171
C15_2 C 0.2920(5) 0.9958(3) 0.96495(17)
C16_2 C 0.2944(5) 0.9961(4) 0.93478(18)
C17_2 C 0.3435(5) 0.9544(4) 0.91575(17)
C18_2 C 0.3369(5) 0.8897(4) 0.91832(18)
H9_2 H 0.303264 0.871640 0.933282
C19_2 C 0.4289(4) 0.8757(3) 0.87597(17)
C20_2 C 0.4356(5) 0.9409(4) 0.87371(18)
H10_2 H 0.469249 0.959347 0.858891
C21_2 C 0.3816(5) 0.8500(4) 0.89804(17)
H11_2 H 0.378261 0.805578 0.899993
C22_2 C 0.3913(5) 0.9792(4) 0.89389(17)
C23_2 C 0.4698(5) 0.8351(4) 0.85464(17)
H13_2 H 0.522172 0.911858 0.998900
C26_2 C 0.3430(5) 0.9571(4) 0.98497(18)
C27_2 C 0.4233(5) 0.9522(4) 0.98118(18)
H14_2 H 0.449107 0.974340 0.965239
Cd8_2 Cd 0.99084(3) 0.75496(2) 0.43469(2)
H13_3 H 0.022172 0.588142 0.001100
C49_3 C 0.6531(6) 0.7401(5) 0.0171(2)
H29_3 H 0.681106 0.775828 0.024369
C50_3 C 0.5738(4) 0.6590(4) 0.01622(16)
H30_3 H 0.536694 0.627434 0.021664
Cd5_2 Cd 0.03696(3) 0.74943(2) 0.18530(2)
Cd1_2 Cd 0.46304(3) 0.25057(2) 0.68530(2)
C31_3 C 0.2450(5) 0.7311(4) 0.86300(18)
H17_3 H 0.280327 0.743438 0.847297
C32_3 C 0.1768(5) 0.7604(4) 0.87104(17)
H18_3 H 0.154486 0.795843 0.861067
C33_3 C 0.1923(5) 0.6817(4) 0.90163(17)
H19_3 H 0.184083 0.652017 0.917489
C34_3 C 0.3137(4) 0.6338(3) 0.88085(15)
C35_3 C 0.2985(4) 0.5723(4) 0.88909(18)
H20_3 H 0.247977 0.560383 0.896462
C36_3 C 0.4314(4) 0.5439(3) 0.87707(16)
C37_3 C 0.3574(4) 0.5289(3) 0.88645(18)
H21_3 H 0.346135 0.486343 0.891396
C38_3 C 0.4460(5) 0.6061(4) 0.8698(2)
H22_3 H 0.497350 0.618154 0.863420
C39_3 C 0.3871(4) 0.6513(4) 0.87168(19)
H23_3 H 0.397910 0.693814 0.866611
C40_3 C 0.4950(4) 0.4963(3) 0.87255(15)
C41_3 C 0.5628(4) 0.4961(4) 0.88897(16)
C42_2 C 0.5721(4) 0.5405(4) 0.91510(15)
C43_2 C 0.5235(5) 0.5406(4) 0.93902(18)
H24_3 H 0.480946 0.511526 0.939351
C44_2 C 0.5987(4) 0.6213(4) 0.96414(16)
C45_2 C 0.6372(4) 0.5809(4) 0.91541(16)
H25_2 H 0.673371 0.580793 0.898861
C46_2 C 0.6491(5) 0.6212(4) 0.93993(18)
H26_2 H 0.692892 0.649079 0.939799
C47_2 C 0.5327(5) 0.5821(3) 0.96386(17)
H27_3 H 0.495011 0.583346 0.979890
C48_2 C 0.6599(6) 0.7151(5) 0.9893(2)
H28_2 H 0.692224 0.729908 0.973145
C51_3 C 0.6303(4) 0.4527(3) 0.88383(16)
C52_3 C 0.6567(4) 0.4359(4) 0.85458(16)
H31_3 H 0.636062 0.457519 0.837388
C53_3 C 0.6635(5) 0.4238(4) 0.90843(17)
H32_3 H 0.647490 0.435161 0.928428
C54_3 C 0.7425(4) 0.3608(4) 0.87554(17)
C55_3 C 0.7107(4) 0.3897(4) 0.85012(16)
H33_3 H 0.726176 0.377605 0.830155
C56_3 C 0.7212(5) 0.3774(4) 0.90436(17)
H34_3 H 0.745062 0.357737 0.921468
C57_3 C 0.8592(4) 0.3103(4) 0.85222(17)
H35_3 H 0.869602 0.342738 0.837861
C58_3 C 0.8032(4) 0.2564(4) 0.88821(16)
H36_3 H 0.768112 0.243495 0.903912
C59_3 C 0.8662(5) 0.2244(4) 0.87784(17)
H37_3 H 0.883222 0.184451 0.884889
C60_3 C 0.4488(5) 0.4675(4) 0.82106(18)
H38_3 H 0.441784 0.511347 0.817853
C61_3 C 0.4746(4) 0.4486(3) 0.84881(15)
C62_3 C 0.4425(5) 0.3634(3) 0.80252(17)
C63_3 C 0.4680(5) 0.3417(4) 0.83104(16)
H39_3 H 0.475131 0.298021 0.834562
C64_3 C 0.4823(4) 0.3839(4) 0.85355(17)
H40_3 H 0.497970 0.369067 0.873064
C65_3 C 0.4320(6) 0.4280(4) 0.79732(18)
H41_3 H 0.413987 0.443450 0.778240
C66_3 C 0.4491(5) 0.3272(3) 0.74903(17)
H42_3 H 0.477556 0.362502 0.741610
C67_3 C 0.3881(5) 0.2398(4) 0.75242(19)
H43_3 H 0.364729 0.200610 0.747348
C68_3 C 0.3881(5) 0.2657(3) 0.78018(17)
H44_3 H 0.365383 0.248619 0.798162
C69_3 C 0.5387(6) 0.1501(4) 0.71173(18)
C70_3 C 0.5887(5) 0.1057(4) 0.72994(17)
C71_3 C 0.5598(5) 0.0723(4) 0.75432(16)
H45_3 H 0.505123 0.074879 0.758849
C72_3 C 0.6066(4) 0.0357(4) 0.77221(17)
H46_3 H 0.584116 0.013873 0.788988
C73_3 C 0.6651(5) 0.0971(4) 0.7234(2)
H47_3 H 0.686546 0.118112 0.706155
C74_3 C 0.6848(5) 0.0300(4) 0.76638(16)
C75_3 C 0.7147(5) 0.0588(5) 0.74068(17)
H48_3 H 0.768089 0.052649 0.734864
C76_3 C 0.5772(5) 0.1688(4) 0.89426(19)
C77_3 C 0.6188(5) 0.1231(4) 0.87274(17)
C78_3 C 0.6705(5) 0.1452(4) 0.84980(17)
H49_3 H 0.677877 0.189193 0.847432
C79_3 C 0.7014(5) 0.0417(4) 0.83413(15)
C80_3 C 0.7089(5) 0.1062(4) 0.83155(18)
H50_3 H 0.742491 0.122952 0.816254
C81_3 C 0.6094(5) 0.0592(4) 0.87599(17)
H51_3 H 0.575481 0.042538 0.891221
C82_3 C 0.6505(5) 0.0200(4) 0.85650(19)
H59_3 H 0.851470 0.027440 0.857702
C99_3 C 0.2657(4) 0.2268(4) 0.62270(16)
H61_3 H 0.236012 0.238870 0.605286
C100_3 C 0.3286(4) 0.2568(4) 0.63447(16)
H62_3 H 0.350442 0.294976 0.626997
C101_3 C 0.3076(5) 0.1743(4) 0.66251(18)
H63_3 H 0.311488 0.143443 0.678080
C102_3 C 0.0707(4) 0.0427(3) 0.62853(15)
C103_3 C 0.1424(5) 0.0244(4) 0.63860(19)
C104_3 C 0.2045(5) 0.0669(4) 0.64326(19)
H65_3 H 0.254547 0.053181 0.650451
C105_3 C 0.1900(4) 0.1294(3) 0.63696(17)
C106_3 C 0.0584(5) 0.1061(4) 0.6226(2)
H66_3 H 0.008103 0.119309 0.615518
C107_3 C 0.1170(5) 0.1508(4) 0.62674(19)
H67_3 H 0.107826 0.194103 0.622766
H70_3 H 0.059029 0.015239 0.567508
H82_3 H 0.020426 0.001617 0.690526
H83_3 H 0.007239 0.062717 0.733109
H86_3 H 0.004794 0.134222 0.768716
N1_3 N 0.1451(3) 0.7301(3) 0.89617(13)
N2_3 N 0.2528(3) 0.6798(3) 0.88215(12)
N3_2 N 0.6099(4) 0.6626(3) 0.98880(14)
N5_3 N 0.7992(3) 0.3115(3) 0.87159(13)
N6_2 N 0.9026(3) 0.2599(3) 0.85499(12)
N7_3 N 0.4263(4) 0.3201(3) 0.77763(13)
N8_3 N 0.4274(4) 0.2789(3) 0.73208(13)
N9_3 N 0.3563(3) 0.2232(3) 0.65917(13)
N10_3 N 0.2528(4) 0.1753(3) 0.64078(13)
O8_3 O 0.0499(4) 0.6517(3) 0.95082(13)
O9_3 O 0.5722(3) 0.1982(3) 0.70023(13)
O10_3 O 0.4664(4) 0.1401(2) 0.70913(13)
O11_2 O 0.5842(4) 0.2262(3) 0.88998(13)
O12_2 O 0.5393(3) 0.1459(2) 0.91650(12)
O21_2 O 0.5018(4) 0.3559(3) 0.67020(13)
O22_2 O 0.5229(3) 0.2772(3) 0.63974(13)
H52_3 H 0.643486 0.975866 0.858559
C83_3 C 0.7466(5) 0.9953(3) 0.81501(18)
C84_3 C 0.7429(5) 0.9917(4) 0.78536(18)
C85_3 C 0.7913(4) 0.9462(4) 0.76682(17)
C86_3 C 0.9181(5) 0.9161(4) 0.74483(19)
H53_3 H 0.973149 0.922939 0.742338
C87_3 C 0.8790(5) 0.8647(4) 0.73003(18)
C88_3 C 0.7565(5) 0.8972(4) 0.75125(18)
H54_3 H 0.700904 0.891729 0.752332
C89_3 C 0.7992(4) 0.8577(4) 0.73485(19)
H55_3 H 0.773368 0.822655 0.725900
C90_3 C 0.8723(5) 0.9561(4) 0.76309(18)
H56_3 H 0.896743 0.990539 0.773115
C91_3 C 0.9247(6) 0.8229(5) 0.70932(19)
C92_3 C 0.9049(5) 0.8828(3) 0.86969(17)
C93_3 C 0.8521(5) 0.8554(4) 0.84886(17)
H57_3 H 0.850053 0.810933 0.847242
C94_3 C 0.8025(4) 0.9546(3) 0.83331(15)
C95_3 C 0.8047(5) 0.8901(4) 0.83127(17)
H58_3 H 0.771457 0.869601 0.816931
C96_3 C 0.8531(6) 0.9832(4) 0.8548(2)
C97_3 C 0.9063(5) 0.9462(4) 0.87182(19)
H60_3 H 0.943333 0.965979 0.884931
C98_3 C 0.9573(5) 0.8419(4) 0.88788(16)
H64_3 H 0.151119 0.981078 0.642678
C108_3 C 0.0050(4) 0.9955(3) 0.62352(15)
C109_3 C 0.0139(4) 0.8851(3) 0.60260(16)
H68_3 H 0.001024 0.869344 0.622238
C110_3 C 0.0224(4) 0.9498(3) 0.59840(16)
C111_3 C 0.0471(5) 0.8685(4) 0.55050(16)
C112_3 C 0.0236(4) 0.8443(3) 0.57897(17)
H69_3 H 0.014834 0.800504 0.581627
C113_3 C 0.0480(5) 0.9718(3) 0.57034(17)
C114_3 C 0.0574(5) 0.9298(4) 0.54649(19)
H71_3 H 0.071523 0.945134 0.526900
C115_2 C 0.0254(5) 0.8322(3) 0.49701(18)
C116_3 C 0.1001(6) 0.7715(5) 0.5253(2)
H73_3 H 0.130754 0.755273 0.541661
C117_2 C 0.0925(5) 0.7452(4) 0.49683(18)
H74_2 H 0.114069 0.706212 0.490353
N11_3 N 0.0560(4) 0.8248(3) 0.52595(13)
N12_2 N 0.0478(4) 0.7860(3) 0.47929(15)
O15_2 O 0.9928(4) 0.8645(3) 0.91045(13)
O16_2 O 0.9673(3) 0.7853(2) 0.88047(12)
C2_3 C 0.7375(5) 0.4601(3) 0.01774(16)
C4_3 C 0.7663(5) 0.4078(4) 0.0044(2)
H1_3 H 0.821013 0.398655 0.006011
C7_3 C 0.6580(5) 0.4726(4) 0.01505(19)
H4_3 H 0.635168 0.507918 0.024967
C8_3 C 0.5901(5) 0.3459(4) 0.13881(19)
C9_3 C 0.7410(5) 0.4609(4) 0.08417(16)
C10_3 C 0.7442(5) 0.3982(4) 0.08187(18)
H5_3 H 0.779864 0.379576 0.067826
C11_3 C 0.6956(5) 0.3592(4) 0.09987(17)
H6_3 H 0.699194 0.314752 0.098036
C12_3 C 0.6440(5) 0.3851(4) 0.11977(18)
C13_3 C 0.6909(6) 0.4881(4) 0.1045(2)
H7_3 H 0.690848 0.532463 0.106829
C14_3 C 0.6379(7) 0.4504(5) 0.1224(2)
H8_3 H 0.600200 0.469169 0.135585
C15_3 C 0.7920(5) 0.5042(3) 0.03505(17)
C16_3 C 0.7944(5) 0.5039(4) 0.06522(18)
C17_3 C 0.8435(5) 0.5456(4) 0.08425(17)
C18_3 C 0.8369(5) 0.6103(4) 0.08168(18)
H9_3 H 0.803264 0.628360 0.066718
C19_3 C 0.9289(4) 0.6243(3) 0.12403(17)
C20_3 C 0.9356(5) 0.5591(4) 0.12629(18)
H10_3 H 0.969249 0.540653 0.141109
C21_3 C 0.8816(5) 0.6500(4) 0.10196(17)
H11_3 H 0.878261 0.694422 0.100007
C22_3 C 0.8913(5) 0.5208(4) 0.10611(17)
H12_3 H 0.895029 0.476361 0.107910
C23_3 C 0.9698(5) 0.6649(4) 0.14536(17)
C26_3 C 0.8430(5) 0.5429(4) 0.01503(18)
C27_3 C 0.9233(5) 0.5478(4) 0.01882(18)
H14_3 H 0.949107 0.525660 0.034761
O5_2 O 0.9982(4) 0.6441(3) 0.17020(13)
O6_2 O 0.9771(3) 0.7228(3) 0.13974(13)
C1_3 C 0.5909(5) 0.3358(4) 0.96660(18)
C3_3 C 0.6385(5) 0.3805(4) 0.98506(17)
C5_3 C 0.6113(5) 0.4319(4) 0.99726(19)
H2_3 H 0.557449 0.442422 0.994011
C6_3 C 0.7176(5) 0.3667(4) 0.98810(18)
H3_3 H 0.738827 0.329663 0.979223
C24_3 C 0.9332(5) 0.6193(4) 0.97651(17)
C25_3 C 0.9665(5) 0.5860(4) 0.99871(16)
C28_3 C 0.8060(6) 0.5751(4) 0.9910(2)
H15_3 H 0.751152 0.570518 0.987090
C29_3 C 0.8539(6) 0.6147(4) 0.9729(2)
H16_3 H 0.829348 0.639357 0.957560
C30_3 C 0.9780(5) 0.6614(4) 0.95612(17)
C128_3 C 0.9303(4) 0.0389(3) 0.66615(16)
C129_3 C 0.9171(4) 0.1173(3) 0.71651(16)
C130_3 C 0.9803(5) 0.0327(4) 0.69109(17)
C131_3 C 0.9738(4) 0.0694(4) 0.71604(16)
C132_3 C 0.8718(5) 0.0846(4) 0.66759(16)
H84_3 H 0.834939 0.088325 0.651372
C133_3 C 0.8664(5) 0.1250(4) 0.69251(17)
H85_3 H 0.827976 0.157566 0.692825
C134_3 C 0.9581(5) 0.1586(3) 0.76689(16)
C135_3 C 0.8500(5) 0.1984(4) 0.7496(2)
H87_3 H 0.805701 0.207777 0.737163
N15_3 N 0.9104(4) 0.1552(3) 0.74291(14)
N16_3 N 0.9352(4) 0.1984(3) 0.78772(13)
O1_2 O 0.5216(4) 0.3519(3) 0.95840(13)
O2_2 O 0.6184(3) 0.2830(3) 0.95880(13)
O7_3 O 0.9433(3) 0.7085(3) 0.94471(13)
C136_3 C 0.8664(5) 0.2238(4) 0.7769(2)
H88_3 H 0.835391 0.254569 0.787024
H72_3 H 0.992615 0.866083 0.490816
C118_3 C 0.9392(4) 0.9975(3) 0.63917(16)
C119_3 C 0.8678(5) 0.9563(3) 0.63248(16)
C120_3 C 0.8430(4) 0.9462(4) 0.60319(15)
H75_3 H 0.865733 0.969901 0.587063
C121_3 C 0.7856(4) 0.9024(3) 0.59671(16)
H76_3 H 0.768855 0.895865 0.576290
C122_3 C 0.7525(4) 0.8679(4) 0.62030(15)
C123_3 C 0.7745(5) 0.8796(4) 0.65048(18)
H77_3 H 0.750330 0.857337 0.666757
C124_3 C 0.8318(5) 0.9237(4) 0.65619(16)
H78_3 H 0.846962 0.932043 0.676631
C125_3 C 0.6386(4) 0.8244(4) 0.59249(16)
H79_3 H 0.629707 0.858910 0.579163
C126_3 C 0.6887(4) 0.7641(4) 0.62938(16)
H80_3 H 0.720386 0.748812 0.645648
C127_3 C 0.6268(5) 0.7349(4) 0.61586(17)
H81_3 H 0.607081 0.694814 0.621567
N13_3 N 0.6959(4) 0.8214(3) 0.61422(13)
O17_2 O 0.9784(4) 0.6481(3) 0.45840(13)
O18_2 O 0.8816(3) 0.7170(3) 0.45880(13)
O23_2 O 0.9158(4) 0.7738(3) 0.38998(13)
O24_2 O 0.9607(3) 0.8541(2) 0.41650(12)
C115_3 C 0.4746(5) 0.1678(3) 0.99701(18)
H72_4 H 0.507385 0.133917 0.990816
C117_3 C 0.4075(5) 0.2548(4) 0.99683(18)
H74_3 H 0.385931 0.293788 0.990353
N12_3 N 0.4522(4) 0.2140(3) 0.97929(15)
C1_4 C 0.9091(5) 0.6642(4) 0.46660(18)
C2_4 C 0.7625(5) 0.5399(3) 0.51774(16)
C3_4 C 0.8615(5) 0.6195(4) 0.48506(17)
C4_4 C 0.7337(5) 0.5922(4) 0.5044(2)
H1_4 H 0.678987 0.601345 0.506011
C5_4 C 0.8887(5) 0.5681(4) 0.49726(19)
H2_4 H 0.942551 0.557578 0.494011
C6_4 C 0.7824(5) 0.6333(4) 0.48810(18)
H3_4 H 0.761173 0.670337 0.479223
C7_4 C 0.8420(5) 0.5274(4) 0.51505(19)
H4_4 H 0.864832 0.492082 0.524967
C8_4 C 0.9099(5) 0.6541(4) 0.63881(19)
C9_4 C 0.7590(5) 0.5391(4) 0.58417(16)
C10_4 C 0.7558(5) 0.6018(4) 0.58187(18)
H5_4 H 0.720136 0.620424 0.567826
C11_4 C 0.8044(5) 0.6408(4) 0.59987(17)
H6_4 H 0.800806 0.685248 0.598036
C12_4 C 0.8560(5) 0.6149(4) 0.61977(18)
C13_4 C 0.8091(6) 0.5119(4) 0.6045(2)
H7_4 H 0.809152 0.467537 0.606829
C14_4 C 0.8621(7) 0.5496(5) 0.6224(2)
H8_4 H 0.899800 0.530831 0.635585
C15_4 C 0.7080(5) 0.4958(3) 0.53505(17)
C16_4 C 0.7056(5) 0.4961(4) 0.56522(18)
C17_4 C 0.6565(5) 0.4544(4) 0.58425(17)
C18_4 C 0.6631(5) 0.3897(4) 0.58168(18)
H9_4 H 0.696736 0.371640 0.566718
C19_4 C 0.5711(4) 0.3757(3) 0.62403(17)
C20_4 C 0.5644(5) 0.4409(4) 0.62629(18)
H10_4 H 0.530751 0.459347 0.641109
C21_4 C 0.6184(5) 0.3500(4) 0.60196(17)
H11_4 H 0.621739 0.305578 0.600007
C22_4 C 0.6087(5) 0.4792(4) 0.60611(17)
H12_4 H 0.604971 0.523639 0.607910
C23_4 C 0.5302(5) 0.3351(4) 0.64536(17)
C24_4 C 0.5668(5) 0.3807(4) 0.47651(17)
C25_4 C 0.5335(5) 0.4140(4) 0.49871(16)
H13_4 H 0.477828 0.411858 0.501100
C26_4 C 0.6570(5) 0.4571(4) 0.51503(18)
C27_4 C 0.5767(5) 0.4522(4) 0.51882(18)
H14_4 H 0.550893 0.474340 0.534761
C28_4 C 0.6940(6) 0.4249(4) 0.4910(2)
H15_4 H 0.748848 0.429482 0.487090
C29_4 C 0.6461(6) 0.3853(4) 0.4729(2)
H16_4 H 0.670652 0.360643 0.457560
C30_4 C 0.5220(5) 0.3386(4) 0.45612(17)
C31_4 C 0.2550(5) 0.2689(4) 0.36300(18)
H17_4 H 0.219673 0.256562 0.347297
C32_4 C 0.3232(5) 0.2396(4) 0.37104(17)
H18_4 H 0.345514 0.204157 0.361067
C33_4 C 0.3077(5) 0.3183(4) 0.40163(17)
H19_4 H 0.315917 0.347983 0.417489
C34_4 C 0.1863(4) 0.3662(3) 0.38085(15)
C35_4 C 0.2015(4) 0.4277(4) 0.38909(18)
H20_4 H 0.252023 0.439617 0.396462
C36_4 C 0.0686(4) 0.4561(3) 0.37707(16)
C37_4 C 0.1426(4) 0.4711(3) 0.38645(18)
H21_4 H 0.153865 0.513657 0.391396
C38_4 C 0.0540(5) 0.3939(4) 0.3698(2)
H22_4 H 0.002650 0.381846 0.363420
C39_4 C 0.1129(4) 0.3487(4) 0.37168(19)
H23_4 H 0.102090 0.306186 0.366611
C40_4 C 0.0050(4) 0.5037(3) 0.37255(15)
H24_4 H 0.019054 0.488474 0.439351
H27_4 H 0.004989 0.416654 0.479890
C60_4 C 0.0512(5) 0.5325(4) 0.32106(18)
H38_4 H 0.058216 0.488653 0.317853
C61_4 C 0.0254(4) 0.5514(3) 0.34881(15)
C62_4 C 0.0575(5) 0.6366(3) 0.30252(17)
C63_4 C 0.0320(5) 0.6583(4) 0.33104(16)
H39_4 H 0.024869 0.701979 0.334562
C64_4 C 0.0177(4) 0.6161(4) 0.35355(17)
H40_4 H 0.002030 0.630933 0.373064
C65_4 C 0.0680(6) 0.5720(4) 0.29732(18)
H41_4 H 0.086013 0.556550 0.278240
C66_4 C 0.0509(5) 0.6728(3) 0.24903(17)
H42_4 H 0.022444 0.637498 0.241610
C67_4 C 0.1119(5) 0.7602(4) 0.25242(19)
H43_4 H 0.135271 0.799390 0.247348
C68_4 C 0.1119(5) 0.7343(3) 0.28018(17)
H44_4 H 0.134617 0.751381 0.298162
C99_4 C 0.2343(4) 0.7732(4) 0.12270(16)
H61_4 H 0.263988 0.761130 0.105286
C100_4 C 0.1714(4) 0.7432(4) 0.13447(16)
H62_4 H 0.149558 0.705024 0.126997
C101_4 C 0.1924(5) 0.8257(4) 0.16251(18)
H63_4 H 0.188512 0.856557 0.178080
C102_4 C 0.4293(4) 0.9573(3) 0.12853(15)
C103_4 C 0.3576(5) 0.9756(4) 0.13860(19)
C104_4 C 0.2955(5) 0.9331(4) 0.14326(19)
H65_4 H 0.245453 0.946819 0.150451
C105_4 C 0.3100(4) 0.8706(3) 0.13696(17)
C106_4 C 0.4416(5) 0.8939(4) 0.1226(2)
H66_4 H 0.491897 0.880691 0.115518
C107_4 C 0.3830(5) 0.8492(4) 0.12674(19)
H67_4 H 0.392174 0.805897 0.122766
H70_4 H 0.440971 0.984761 0.067508
C128_4 C 0.5697(4) 0.9611(3) 0.16615(16)
C129_4 C 0.5829(4) 0.8827(3) 0.21651(16)
C130_4 C 0.5197(5) 0.9673(4) 0.19109(17)
H82_4 H 0.479574 0.998383 0.190526
C131_4 C 0.5262(4) 0.9306(4) 0.21604(16)
H83_4 H 0.492761 0.937283 0.233109
C132_4 C 0.6282(5) 0.9154(4) 0.16759(16)
H84_4 H 0.665061 0.911675 0.151372
C133_4 C 0.6336(5) 0.8750(4) 0.19251(17)
H85_4 H 0.672024 0.842434 0.192825
C134_4 C 0.5419(5) 0.8414(3) 0.26689(16)
H86_4 H 0.495206 0.865778 0.268716
C135_4 C 0.6500(5) 0.8016(4) 0.2496(2)
H87_4 H 0.694299 0.792223 0.237163
N1_4 N 0.3549(3) 0.2699(3) 0.39617(13)
N2_4 N 0.2472(3) 0.3202(3) 0.38215(12)
N7_4 N 0.0737(4) 0.6799(3) 0.27763(13)
N8_4 N 0.0726(4) 0.7211(3) 0.23208(13)
N9_4 N 0.1437(3) 0.7768(3) 0.15917(13)
N10_4 N 0.2472(4) 0.8247(3) 0.14078(13)
N15_4 N 0.5896(4) 0.8448(3) 0.24291(14)
N16_4 N 0.5648(4) 0.8016(3) 0.28772(13)
O7_4 O 0.5567(3) 0.2915(3) 0.44471(13)
O8_4 O 0.4501(4) 0.3483(3) 0.45082(13)
O10_4 O 0.0336(4) 0.8599(2) 0.20913(13)
C136_4 C 0.6336(5) 0.7762(4) 0.2769(2)
H88_4 H 0.664609 0.745431 0.287024
N18_2 N 0.5974(3) 0.7401(3) 0.35499(12)
O27_2 O 0.5072(4) 0.1355(3) 0.41045(13)
O28_2 O 0.5327(3) 0.2147(2) 0.38047(12)
H52_4 H 0.856514 0.024134 0.358559
C83_4 C 0.7534(5) 0.0047(3) 0.31501(18)
C84_4 C 0.7571(5) 0.0083(4) 0.28536(18)
C85_4 C 0.7087(4) 0.0538(4) 0.26682(17)
C86_4 C 0.5819(5) 0.0839(4) 0.24483(19)
H53_4 H 0.526851 0.077061 0.242338
C87_4 C 0.6210(5) 0.1353(4) 0.23003(18)
C88_4 C 0.7435(5) 0.1028(4) 0.25125(18)
H54_4 H 0.799096 0.108271 0.252332
C89_4 C 0.7008(4) 0.1423(4) 0.23485(19)
H55_4 H 0.726632 0.177345 0.225900
C90_4 C 0.6277(5) 0.0439(4) 0.26309(18)
H56_4 H 0.603257 0.009461 0.273115
C91_4 C 0.5753(6) 0.1771(5) 0.20932(19)
C92_4 C 0.5951(5) 0.1172(3) 0.36969(17)
C93_4 C 0.6479(5) 0.1446(4) 0.34886(17)
H57_4 H 0.649947 0.189067 0.347242
C94_4 C 0.6975(4) 0.0454(3) 0.33331(15)
C95_4 C 0.6953(5) 0.1099(4) 0.33127(17)
H58_4 H 0.728543 0.130399 0.316931
C96_4 C 0.6469(6) 0.0168(4) 0.3548(2)
C97_4 C 0.5937(5) 0.0538(4) 0.37182(19)
H60_4 H 0.556667 0.034021 0.384931
C98_4 C 0.5427(5) 0.1581(4) 0.38788(16)
C41_4 C 0.9372(4) 0.5039(4) 0.38897(16)
C42_3 C 0.9279(4) 0.4595(4) 0.41510(15)
C43_3 C 0.9765(5) 0.4594(4) 0.43902(18)
C44_3 C 0.9013(4) 0.3787(4) 0.46414(16)
C45_3 C 0.8628(4) 0.4191(4) 0.41541(16)
H25_3 H 0.826629 0.419207 0.398861
C46_3 C 0.8509(5) 0.3788(4) 0.43993(18)
H26_3 H 0.807108 0.350921 0.439799
C47_3 C 0.9673(5) 0.4179(3) 0.46386(17)
C48_3 C 0.8401(6) 0.2849(5) 0.4893(2)
H28_3 H 0.807776 0.270092 0.473145
C49_4 C 0.8469(6) 0.2599(5) 0.5171(2)
H29_4 H 0.818894 0.224172 0.524369
C50_4 C 0.9262(4) 0.3410(4) 0.51622(16)
H30_4 H 0.963306 0.372566 0.521664
C51_4 C 0.8697(4) 0.5473(3) 0.38383(16)
C52_4 C 0.8433(4) 0.5641(4) 0.35458(16)
H31_4 H 0.863938 0.542481 0.337388
C53_4 C 0.8365(5) 0.5762(4) 0.40843(17)
H32_4 H 0.852510 0.564839 0.428428
C54_4 C 0.7575(4) 0.6392(4) 0.37554(17)
C55_4 C 0.7893(4) 0.6103(4) 0.35012(16)
H33_4 H 0.773824 0.622395 0.330155
C56_4 C 0.7788(5) 0.6226(4) 0.40436(17)
H34_4 H 0.754938 0.642263 0.421468
C57_4 C 0.6408(4) 0.6897(4) 0.35222(17)
H35_4 H 0.630398 0.657262 0.337861
C58_4 C 0.6968(4) 0.7436(4) 0.38821(16)
H36_4 H 0.731888 0.756505 0.403912
C59_4 C 0.6338(5) 0.7756(4) 0.37784(17)
H37_4 H 0.616778 0.815549 0.384889
C69_4 C 0.9613(6) 0.8499(4) 0.21173(18)
C70_4 C 0.9113(5) 0.8943(4) 0.22994(17)
C71_4 C 0.9402(5) 0.9277(4) 0.25432(16)
H45_4 H 0.994877 0.925121 0.258849
C72_4 C 0.8934(4) 0.9643(4) 0.27221(17)
H46_4 H 0.915884 0.986127 0.288988
C73_4 C 0.8349(5) 0.9029(4) 0.2234(2)
H47_4 H 0.813454 0.881888 0.206155
C74_4 C 0.8152(5) 0.9700(4) 0.26638(16)
C75_4 C 0.7853(5) 0.9412(5) 0.24068(17)
H48_4 H 0.731911 0.947351 0.234864
C76_4 C 0.9228(5) 0.8312(4) 0.39426(19)
C77_4 C 0.8812(5) 0.8769(4) 0.37274(17)
C78_4 C 0.8295(5) 0.8548(4) 0.34980(17)
H49_4 H 0.822123 0.810807 0.347432
C79_4 C 0.7986(5) 0.9583(4) 0.33413(15)
C80_4 C 0.7911(5) 0.8938(4) 0.33155(18)
H50_4 H 0.757509 0.877048 0.316254
C81_4 C 0.8906(5) 0.9408(4) 0.37599(17)
H51_4 H 0.924519 0.957462 0.391221
C82_4 C 0.8495(5) 0.9800(4) 0.35650(19)
H59_4 H 0.648530 0.972560 0.357702
N3_3 N 0.8901(4) 0.3374(3) 0.48880(14)
N5_4 N 0.7008(3) 0.6885(3) 0.37159(13)
O9_4 O 0.9278(3) 0.8018(3) 0.20023(13)
C115_4 C 0.9746(5) 0.3322(3) 0.00299(18)
C117_4 C 0.9075(5) 0.2452(4) 0.00317(18)
H74_4 H 0.885931 0.206212 0.009647
N12_4 N 0.9522(4) 0.2860(3) 0.02071(15)
N19_2 N 0.9034(4) 0.2290(3) 0.09294(14)
H64_4 H 0.348881 0.018922 0.142678
C108_4 C 0.4950(4) 0.0045(3) 0.12352(15)
C109_4 C 0.4861(4) 0.1149(3) 0.10260(16)
H68_4 H 0.498976 0.130656 0.122238
C110_4 C 0.4776(4) 0.0502(3) 0.09840(16)
C111_4 C 0.4529(5) 0.1315(4) 0.05050(16)
C112_4 C 0.4764(4) 0.1557(3) 0.07897(17)
H69_4 H 0.485166 0.199496 0.081627
C113_4 C 0.4520(5) 0.0282(3) 0.07034(17)
C114_4 C 0.4426(5) 0.0702(4) 0.04649(19)
H71_4 H 0.428477 0.054866 0.026900
C116_4 C 0.3999(6) 0.2285(5) 0.0253(2)
H73_4 H 0.369246 0.244727 0.041661
C118_4 C 0.5608(4) 0.0025(3) 0.13917(16)
C119_4 C 0.6322(5) 0.0437(3) 0.13248(16)
C120_4 C 0.6570(4) 0.0538(4) 0.10319(15)
H75_4 H 0.634267 0.030099 0.087063
C121_4 C 0.7144(4) 0.0976(3) 0.09671(16)
H76_4 H 0.731145 0.104135 0.076290
C122_4 C 0.7475(4) 0.1321(4) 0.12030(15)
C123_4 C 0.7255(5) 0.1204(4) 0.15048(18)
H77_4 H 0.749670 0.142663 0.166757
C124_4 C 0.6682(5) 0.0763(4) 0.15619(16)
H78_4 H 0.653038 0.067957 0.176631
C125_4 C 0.8614(4) 0.1756(4) 0.09249(16)
H79_4 H 0.870293 0.141090 0.079163
C126_4 C 0.8113(4) 0.2359(4) 0.12938(16)
H80_4 H 0.779614 0.251188 0.145648
C127_4 C 0.8732(5) 0.2651(4) 0.11586(17)
H81_4 H 0.892919 0.305186 0.121567
N11_4 N 0.4440(4) 0.1752(3) 0.02595(13)
N13_4 N 0.8041(4) 0.1786(3) 0.11422(13)
C42_4 C 0.0721(4) 0.9595(4) 0.08490(15)
C43_4 C 0.0235(5) 0.9594(4) 0.06098(18)
C44_4 C 0.0987(4) 0.8787(4) 0.03586(16)
C45_4 C 0.1372(4) 0.9191(4) 0.08459(16)
H25_4 H 0.173371 0.919207 0.101139
C46_4 C 0.1491(5) 0.8788(4) 0.06007(18)
H26_4 H 0.192892 0.850921 0.060201
C47_4 C 0.0327(5) 0.9179(3) 0.03614(17)
C48_4 C 0.1599(6) 0.7849(5) 0.0107(2)
H28_4 H 0.192224 0.770092 0.026855
N3_4 N 0.1099(4) 0.8374(3) 0.01120(14)
loop_
_geom_bond_atom_site_label_1
_geom_bond_atom_site_label_2
_geom_bond_site_symmetry_1
_geom_bond_site_symmetry_2
C17 C16 1_555 1_555
C18 C17 1_555 1_555
H9 C18 1_555 1_555
C19 C20 1_555 1_555
C20 H10 1_555 1_555
C21 C18 1_555 1_555
H11 C21 1_555 1_555
C22 C17 1_555 1_555
C23 C19 1_555 1_555
C24 C25 1_555 1_555
C26 C15 1_555 1_555
C27 C25 1_555 1_555
H14 C27 1_555 1_555
C28 C26 1_555 1_555
H15 C28 1_555 1_555
C29 C24 1_555 1_555
H16 C29 1_555 1_555
C30 C24 1_555 1_555
O5 C23 1_555 1_555
O6 C23 1_555 1_555
C15 C16 1_555 1_555
C19 C21 1_555 1_555
C20 C22 1_555 1_555
C26 C27 1_555 1_555
C28 C29 1_555 1_555
C30 O7 1_555 1_555
O17 Cd2 1_555 1_555
O18 Cd2 1_555 1_555
O23 Cd2 1_555 1_555
O24 Cd2 1_555 1_555
C1 C3 1_555 1_555
C2 C4 1_555 1_555
C3 C5 1_555 1_555
C4 H1 1_555 1_555
C5 H2 1_555 1_555
C6 C3 1_555 1_555
H3 C6 1_555 1_555
C7 C2 1_555 1_555
C8 C12 1_555 1_555
C9 C10 1_555 1_555
C10 H5 1_555 1_555
C11 C10 1_555 1_555
H6 C11 1_555 1_555
C12 C11 1_555 1_555
C13 C9 1_555 1_555
C14 C12 1_555 1_555
H8 C14 1_555 1_555
C119 C118 1_555 1_555
C120 C119 1_555 1_555
H75 C120 1_555 1_555
C121 C120 1_555 1_555
H76 C121 1_555 1_555
C122 C121 1_555 1_555
C123 C122 1_555 1_555
H77 C123 1_555 1_555
C124 C119 1_555 1_555
H78 C124 1_555 1_555
C125 H79 1_555 1_555
C126 H80 1_555 1_555
C127 C126 1_555 1_555
H81 C127 1_555 1_555
C128 C118 1_555 1_555
C129 C131 1_555 1_555
C130 C128 1_555 1_555
C131 C130 1_555 1_555
C132 C128 1_555 1_555
H84 C132 1_555 1_555
C133 C129 1_555 1_555
H85 C133 1_555 1_555
C135 H87 1_555 1_555
N13 C122 1_555 1_555
N14 C125 1_555 1_555
N15 C129 1_555 1_555
N16 C134 1_555 1_555
O1 C1 1_555 1_555
O2 C1 1_555 1_555
O3 C8 1_555 1_555
O4 C8 1_555 1_555
C136 C135 1_555 1_555
H88 C136 1_555 1_555
Cd7 O1 1_555 1_555
Cd8 N14 1_555 1_555
Cd11 O3 1_555 1_555
C4 C6 1_555 1_555
C5 C7 1_555 1_555
C13 C14 1_555 1_555
C123 C124 1_555 1_555
C125 N13 1_555 1_555
C126 N13 1_555 1_555
C127 N14 1_555 1_555
C132 C133 1_555 1_555
C134 N15 1_555 1_555
C135 N15 1_555 1_555
N16 C136 1_555 1_555
O2 Cd7 1_555 1_555
O4 Cd11 1_555 1_555
Cd4 N1 1_555 1_555
C31 H17 1_555 1_555
C32 C31 1_555 1_555
H18 C32 1_555 1_555
C33 H19 1_555 1_555
C34 C35 1_555 1_555
C35 H20 1_555 1_555
C36 C37 1_555 1_555
C37 C35 1_555 1_555
C38 C36 1_555 1_555
H22 C38 1_555 1_555
C39 C34 1_555 1_555
H23 C39 1_555 1_555
C43 C42 1_555 1_555
H24 C43 1_555 1_555
C44 C46 1_555 1_555
C45 C42 1_555 1_555
H25 C45 1_555 1_555
C46 C45 1_555 1_555
H26 C46 1_555 1_555
C47 C43 1_555 1_555
H27 C47 1_555 1_555
C48 H28 1_555 1_555
C49 C48 1_555 1_555
H29 C49 1_555 1_555
C50 H30 1_555 1_555
N1 C32 1_555 1_555
N2 C31 1_555 1_555
N3 C44 1_555 1_555
N4 C49 1_555 1_555
O8 Cd4 1_555 1_555
Cd13 N4 1_555 1_555
N17 Cd4 1_555 1_555
C33 N1 1_555 1_555
C33 N2 1_555 1_555
C34 N2 1_555 1_555
C38 C39 1_555 1_555
C44 C47 1_555 1_555
C48 N3 1_555 1_555
C50 N3 1_555 1_555
C50 N4 1_555 1_555
Cd1 N8 1_555 1_555
C41 C40 1_555 1_555
C51 C41 1_555 1_555
C52 C51 1_555 1_555
H31 C52 1_555 1_555
C53 C51 1_555 1_555
H32 C53 1_555 1_555
C54 C55 1_555 1_555
C55 C52 1_555 1_555
H33 C55 1_555 1_555
C56 C53 1_555 1_555
H34 C56 1_555 1_555
C57 H35 1_555 1_555
C58 H36 1_555 1_555
C59 C58 1_555 1_555
H37 C59 1_555 1_555
C61 C40 1_555 1_555
C62 C63 1_555 1_555
C63 H39 1_555 1_555
C64 C61 1_555 1_555
H40 C64 1_555 1_555
C65 C60 1_555 1_555
H41 C65 1_555 1_555
C66 H42 1_555 1_555
C67 H43 1_555 1_555
C68 C67 1_555 1_555
H44 C68 1_555 1_555
C69 C70 1_555 1_555
C70 C71 1_555 1_555
C71 H45 1_555 1_555
C72 C71 1_555 1_555
H46 C72 1_555 1_555
C73 C70 1_555 1_555
H47 C73 1_555 1_555
C74 C72 1_555 1_555
C75 C73 1_555 1_555
H48 C75 1_555 1_555
C76 C77 1_555 1_555
C77 C78 1_555 1_555
C78 H49 1_555 1_555
C79 C80 1_555 1_555
C80 C78 1_555 1_555
H50 C80 1_555 1_555
C81 C77 1_555 1_555
H51 C81 1_555 1_555
C82 C79 1_555 1_555
H52 C82 1_555 1_555
C83 C79 1_555 1_555
C84 C74 1_555 1_555
C85 C84 1_555 1_555
C86 H53 1_555 1_555
C87 C86 1_555 1_555
C88 C85 1_555 1_555
H54 C88 1_555 1_555
C89 C87 1_555 1_555
H55 C89 1_555 1_555
C90 C85 1_555 1_555
H56 C90 1_555 1_555
C91 C87 1_555 1_555
C92 C93 1_555 1_555
C93 H57 1_555 1_555
C94 C83 1_555 1_555
C95 C93 1_555 1_555
H58 C95 1_555 1_555
C96 C94 1_555 1_555
H59 C96 1_555 1_555
C97 C92 1_555 1_555
H60 C97 1_555 1_555
C98 C92 1_555 1_555
C99 H61 1_555 1_555
C100 C99 1_555 1_555
H62 C100 1_555 1_555
C101 H63 1_555 1_555
C102 C103 1_555 1_555
C103 H64 1_555 1_555
C104 C103 1_555 1_555
H65 C104 1_555 1_555
C105 C104 1_555 1_555
C106 C102 1_555 1_555
H66 C106 1_555 1_555
C107 C105 1_555 1_555
H67 C107 1_555 1_555
C108 C102 1_555 1_555
C109 H68 1_555 1_555
C110 C108 1_555 1_555
C111 C112 1_555 1_555
C112 C109 1_555 1_555
H69 C112 1_555 1_555
C113 C110 1_555 1_555
H70 C113 1_555 1_555
C114 C111 1_555 1_555
H71 C114 1_555 1_555
C116 H73 1_555 1_555
N5 C54 1_555 1_555
N18 C57 1_555 1_555
N7 C62 1_555 1_555
N8 C66 1_555 1_555
N9 Cd1 1_555 1_555
N10 C99 1_555 1_555
N11 C111 1_555 1_555
O9 Cd1 1_555 1_555
O10 Cd1 1_555 1_555
O11 C76 1_555 1_555
O12 C76 1_555 1_555
O13 C91 1_555 1_555
O14 C91 1_555 1_555
O27 C98 1_555 1_555
O28 C98 1_555 1_555
Cd7 O11 1_555 1_555
Cd10 O13 1_555 1_555
O19 Cd3 1_555 1_555
O20 Cd3 1_555 1_555
O21 Cd1 1_555 1_555
O22 Cd1 1_555 1_555
O25 Cd3 1_555 1_555
O26 Cd3 1_555 1_555
C54 C56 1_555 1_555
C57 N5 1_555 1_555
C58 N5 1_555 1_555
C59 N18 1_555 1_555
C60 C61 1_555 1_555
C62 C65 1_555 1_555
C63 C64 1_555 1_555
C66 N7 1_555 1_555
C67 N8 1_555 1_555
C68 N7 1_555 1_555
C69 O9 1_555 1_555
C69 O10 1_555 1_555
C74 C75 1_555 1_555
C81 C82 1_555 1_555
C83 C84 1_555 1_555
C86 C90 1_555 1_555
C88 C89 1_555 1_555
C94 C95 1_555 1_555
C96 C97 1_555 1_555
C100 N9 1_555 1_555
C101 N9 1_555 1_555
C101 N10 1_555 1_555
C105 N10 1_555 1_555
C106 C107 1_555 1_555
C109 C110 1_555 1_555
C113 C114 1_555 1_555
C116 N11 1_555 1_555
O12 Cd7 1_555 1_555
O14 Cd10 1_555 1_555
C51_2 C41_2 1_555 1_555
C52_2 C51_2 1_555 1_555
H31_2 C52_2 1_555 1_555
C53_2 C51_2 1_555 1_555
H32_2 C53_2 1_555 1_555
C54_2 C55_2 1_555 1_555
C55_2 C52_2 1_555 1_555
H33_2 C55_2 1_555 1_555
C56_2 C53_2 1_555 1_555
H34_2 C56_2 1_555 1_555
C57_2 H35_2 1_555 1_555
C58_2 H36_2 1_555 1_555
C59_2 C58_2 1_555 1_555
H37_2 C59_2 1_555 1_555
C69_2 C70_2 1_555 1_555
C70_2 C71_2 1_555 1_555
C71_2 H45_2 1_555 1_555
C72_2 C71_2 1_555 1_555
H46_2 C72_2 1_555 1_555
C73_2 C70_2 1_555 1_555
H47_2 C73_2 1_555 1_555
C74_2 C72_2 1_555 1_555
C75_2 C73_2 1_555 1_555
H48_2 C75_2 1_555 1_555
C76_2 C77_2 1_555 1_555
C77_2 C78_2 1_555 1_555
C78_2 H49_2 1_555 1_555
C79_2 C80_2 1_555 1_555
C80_2 C78_2 1_555 1_555
H50_2 C80_2 1_555 1_555
C81_2 C77_2 1_555 1_555
H51_2 C81_2 1_555 1_555
C82_2 C79_2 1_555 1_555
H52_2 C82_2 1_555 1_555
C83_2 C79_2 1_555 1_555
C84_2 C74_2 1_555 1_555
C85_2 C84_2 1_555 1_555
C86_2 H53_2 1_555 1_555
C87_2 C86_2 1_555 1_555
C88_2 C85_2 1_555 1_555
H54_2 C88_2 1_555 1_555
C89_2 C87_2 1_555 1_555
H55_2 C89_2 1_555 1_555
C90_2 C85_2 1_555 1_555
H56_2 C90_2 1_555 1_555
C91_2 C87_2 1_555 1_555
C92_2 C93_2 1_555 1_555
C93_2 H57_2 1_555 1_555
C94_2 C83_2 1_555 1_555
C95_2 C93_2 1_555 1_555
H58_2 C95_2 1_555 1_555
C96_2 C94_2 1_555 1_555
H59_2 C96_2 1_555 1_555
C97_2 C92_2 1_555 1_555
H60_2 C97_2 1_555 1_555
C98_2 C92_2 1_555 1_555
N5_2 C54_2 1_555 1_555
N6 C57_2 1_555 1_555
O23 C76_2 1_555 1_555
O24 C76_2 1_555 1_555
O13_2 C91_2 1_555 1_555
O14_2 C91_2 1_555 1_555
O15 C98_2 1_555 1_555
O16 C98_2 1_555 1_555
Cd9 N6 1_555 1_555
Cd11 O13_2 1_555 1_555
Cd12 O15 1_555 1_555
C54_2 C56_2 1_555 1_555
C57_2 N5_2 1_555 1_555
C58_2 N5_2 1_555 1_555
C59_2 N6 1_555 1_555
C69_2 O9_2 1_555 1_555
C74_2 C75_2 1_555 1_555
C81_2 C82_2 1_555 1_555
C83_2 C84_2 1_555 1_555
C86_2 C90_2 1_555 1_555
C88_2 C89_2 1_555 1_555
C94_2 C95_2 1_555 1_555
C96_2 C97_2 1_555 1_555
O14_2 Cd11 1_555 1_555
O16 Cd12 1_555 1_555
H29_2 C49_2 1_555 1_555
C50_2 H30_2 1_555 1_555
N4_2 C49_2 1_555 1_555
Cd13_2 N4_2 1_555 1_555
C50_2 N4_2 1_555 1_555
Cd5 N8_2 1_555 1_555
Cd7 N12 1_555 1_555
Cd9 N16_2 1_555 1_555
C1_2 C3_2 1_555 1_555
C3_2 C5_2 1_555 1_555
C5_2 H2_2 1_555 1_555
C6_2 C3_2 1_555 1_555
H3_2 C6_2 1_555 1_555
C61_2 C40_2 1_555 1_555
C62_2 C63_2 1_555 1_555
C63_2 H39_2 1_555 1_555
C64_2 C61_2 1_555 1_555
H40_2 C64_2 1_555 1_555
C65_2 C60_2 1_555 1_555
H41_2 C65_2 1_555 1_555
C66_2 H42_2 1_555 1_555
C67_2 H43_2 1_555 1_555
C68_2 C67_2 1_555 1_555
H44_2 C68_2 1_555 1_555
C99_2 H61_2 1_555 1_555
C100_2 C99_2 1_555 1_555
H62_2 C100_2 1_555 1_555
C101_2 H63_2 1_555 1_555
C102_2 C103_2 1_555 1_555
C103_2 H64_2 1_555 1_555
C104_2 C103_2 1_555 1_555
H65_2 C104_2 1_555 1_555
C105_2 C104_2 1_555 1_555
C106_2 C102_2 1_555 1_555
H66_2 C106_2 1_555 1_555
C107_2 C105_2 1_555 1_555
H67_2 C107_2 1_555 1_555
C108_2 C102_2 1_555 1_555
C109_2 H68_2 1_555 1_555
C110_2 C108_2 1_555 1_555
C111_2 C112_2 1_555 1_555
C112_2 C109_2 1_555 1_555
H69_2 C112_2 1_555 1_555
C113_2 C110_2 1_555 1_555
H70_2 C113_2 1_555 1_555
C114_2 C111_2 1_555 1_555
H71_2 C114_2 1_555 1_555
C115 H72_2 1_555 1_555
C116_2 H73_2 1_555 1_555
C117 C116_2 1_555 1_555
H74 C117 1_555 1_555
C118_2 C108_2 1_555 1_555
C119_2 C118_2 1_555 1_555
C120_2 C119_2 1_555 1_555
H75_2 C120_2 1_555 1_555
C121_2 C120_2 1_555 1_555
H76_2 C121_2 1_555 1_555
C122_2 C121_2 1_555 1_555
C123_2 C122_2 1_555 1_555
H77_2 C123_2 1_555 1_555
C124_2 C119_2 1_555 1_555
H78_2 C124_2 1_555 1_555
C125_2 H79_2 1_555 1_555
C126_2 H80_2 1_555 1_555
C127_2 C126_2 1_555 1_555
H81_2 C127_2 1_555 1_555
C128_2 C118_2 1_555 1_555
C129_2 C131_2 1_555 1_555
C130_2 C128_2 1_555 1_555
H82_2 C130_2 1_555 1_555
C131_2 C130_2 1_555 1_555
H83_2 C131_2 1_555 1_555
C132_2 C128_2 1_555 1_555
H84_2 C132_2 1_555 1_555
C133_2 C129_2 1_555 1_555
H85_2 C133_2 1_555 1_555
C134_2 H86_2 1_555 1_555
C135_2 H87_2 1_555 1_555
N7_2 C62_2 1_555 1_555
N8_2 C66_2 1_555 1_555
N9_2 Cd5 1_555 1_555
N10_2 C99_2 1_555 1_555
N11_2 C111_2 1_555 1_555
N12 C115 1_555 1_555
N13_2 C122_2 1_555 1_555
N14_2 C125_2 1_555 1_555
N15_2 C129_2 1_555 1_555
N16_2 C134_2 1_555 1_555
O17 C1_2 1_555 1_555
O18 C1_2 1_555 1_555
O10_2 Cd5 1_555 1_555
C136_2 C135_2 1_555 1_555
H88_2 C136_2 1_555 1_555
N19 Cd7 1_555 1_555
O19_2 Cd9 1_555 1_555
O20_2 Cd9 1_555 1_555
O25_2 Cd9 1_555 1_555
O26_2 Cd9 1_555 1_555
C60_2 C61_2 1_555 1_555
C62_2 C65_2 1_555 1_555
C63_2 C64_2 1_555 1_555
C66_2 N7_2 1_555 1_555
C67_2 N8_2 1_555 1_555
C68_2 N7_2 1_555 1_555
C100_2 N9_2 1_555 1_555
C101_2 N9_2 1_555 1_555
C101_2 N10_2 1_555 1_555
C105_2 N10_2 1_555 1_555
C106_2 C107_2 1_555 1_555
C109_2 C110_2 1_555 1_555
C113_2 C114_2 1_555 1_555
C115 N11_2 1_555 1_555
C116_2 N11_2 1_555 1_555
C117 N12 1_555 1_555
C123_2 C124_2 1_555 1_555
C125_2 N13_2 1_555 1_555
C126_2 N13_2 1_555 1_555
C127_2 N14_2 1_555 1_555
C132_2 C133_2 1_555 1_555
C134_2 N15_2 1_555 1_555
C135_2 N15_2 1_555 1_555
N16_2 C136_2 1_555 1_555
C2_2 C4_2 1_555 1_555
C4_2 H1_2 1_555 1_555
C7_2 C2_2 1_555 1_555
C8_2 C12_2 1_555 1_555
C9_2 C10_2 1_555 1_555
C10_2 H5_2 1_555 1_555
C11_2 C10_2 1_555 1_555
H6_2 C11_2 1_555 1_555
C12_2 C11_2 1_555 1_555
C13_2 C9_2 1_555 1_555
C14_2 C12_2 1_555 1_555
H8_2 C14_2 1_555 1_555
O3_2 C8_2 1_555 1_555
O4_2 C8_2 1_555 1_555
Cd10 O3_2 1_555 1_555
C13_2 C14_2 1_555 1_555
O4_2 Cd10 1_555 1_555
Cd12 N1_2 1_555 1_555
C24_2 C25_2 1_555 1_555
H15_2 C28_2 1_555 1_555
C29_2 C24_2 1_555 1_555
H16_2 C29_2 1_555 1_555
C30_2 C24_2 1_555 1_555
C31_2 H17_2 1_555 1_555
C32_2 C31_2 1_555 1_555
H18_2 C32_2 1_555 1_555
C33_2 H19_2 1_555 1_555
C34_2 C35_2 1_555 1_555
C35_2 H20_2 1_555 1_555
C36_2 C37_2 1_555 1_555
C37_2 C35_2 1_555 1_555
C38_2 C36_2 1_555 1_555
H22_2 C38_2 1_555 1_555
C39_2 C34_2 1_555 1_555
H23_2 C39_2 1_555 1_555
N1_2 C32_2 1_555 1_555
N2_2 C31_2 1_555 1_555
O7_2 Cd12 1_555 1_555
O8_2 Cd12 1_555 1_555
N17_2 Cd12 1_555 1_555
C28_2 C29_2 1_555 1_555
C30_2 O7_2 1_555 1_555
C30_2 O8_2 1_555 1_555
C33_2 N1_2 1_555 1_555
C33_2 N2_2 1_555 1_555
C34_2 N2_2 1_555 1_555
C38_2 C39_2 1_555 1_555
C17_2 C16_2 1_555 1_555
C18_2 C17_2 1_555 1_555
H9_2 C18_2 1_555 1_555
C19_2 C20_2 1_555 1_555
C20_2 H10_2 1_555 1_555
C21_2 C18_2 1_555 1_555
H11_2 C21_2 1_555 1_555
C22_2 C17_2 1_555 1_555
C23_2 C19_2 1_555 1_555
C26_2 C15_2 1_555 1_555
H14_2 C27_2 1_555 1_555
O21 C23_2 1_555 1_555
O22 C23_2 1_555 1_555
C15_2 C16_2 1_555 1_555
C19_2 C21_2 1_555 1_555
C20_2 C22_2 1_555 1_555
C26_2 C27_2 1_555 1_555
H29_3 C49_3 1_555 1_555
C50_3 H30_3 1_555 1_555
N17_2 C49_3 1_555 1_555
C50_3 N17_2 1_555 1_555
Cd1_2 N8_3 1_555 1_555
Cd13_2 N1_3 1_555 1_555
C31_3 H17_3 1_555 1_555
C32_3 C31_3 1_555 1_555
H18_3 C32_3 1_555 1_555
C33_3 H19_3 1_555 1_555
C34_3 C35_3 1_555 1_555
C35_3 H20_3 1_555 1_555
C36_3 C37_3 1_555 1_555
C37_3 C35_3 1_555 1_555
H21_3 C37_3 1_555 1_555
C38_3 C36_3 1_555 1_555
H22_3 C38_3 1_555 1_555
C39_3 C34_3 1_555 1_555
H23_3 C39_3 1_555 1_555
C40_3 C36_3 1_555 1_555
C41_3 C40_3 1_555 1_555
C42_2 C41_3 1_555 1_555
C43_2 C42_2 1_555 1_555
H24_3 C43_2 1_555 1_555
C44_2 C46_2 1_555 1_555
C45_2 C42_2 1_555 1_555
H25_2 C45_2 1_555 1_555
C46_2 C45_2 1_555 1_555
H26_2 C46_2 1_555 1_555
C47_2 C43_2 1_555 1_555
H27_3 C47_2 1_555 1_555
C48_2 H28_2 1_555 1_555
C51_3 C41_3 1_555 1_555
C52_3 C51_3 1_555 1_555
H31_3 C52_3 1_555 1_555
C53_3 C51_3 1_555 1_555
H32_3 C53_3 1_555 1_555
C54_3 C55_3 1_555 1_555
C55_3 C52_3 1_555 1_555
H33_3 C55_3 1_555 1_555
C56_3 C53_3 1_555 1_555
H34_3 C56_3 1_555 1_555
C57_3 H35_3 1_555 1_555
C58_3 H36_3 1_555 1_555
C59_3 C58_3 1_555 1_555
H37_3 C59_3 1_555 1_555
C60_3 H38_3 1_555 1_555
C61_3 C40_3 1_555 1_555
C62_3 C63_3 1_555 1_555
C63_3 H39_3 1_555 1_555
C64_3 C61_3 1_555 1_555
H40_3 C64_3 1_555 1_555
C65_3 C60_3 1_555 1_555
H41_3 C65_3 1_555 1_555
C66_3 H42_3 1_555 1_555
C67_3 H43_3 1_555 1_555
C68_3 C67_3 1_555 1_555
H44_3 C68_3 1_555 1_555
C69_3 C70_3 1_555 1_555
C70_3 C71_3 1_555 1_555
C71_3 H45_3 1_555 1_555
C72_3 C71_3 1_555 1_555
H46_3 C72_3 1_555 1_555
C73_3 C70_3 1_555 1_555
H47_3 C73_3 1_555 1_555
C74_3 C72_3 1_555 1_555
C75_3 C73_3 1_555 1_555
H48_3 C75_3 1_555 1_555
C76_3 C77_3 1_555 1_555
C77_3 C78_3 1_555 1_555
C78_3 H49_3 1_555 1_555
C79_3 C80_3 1_555 1_555
C80_3 C78_3 1_555 1_555
H50_3 C80_3 1_555 1_555
C81_3 C77_3 1_555 1_555
H51_3 C81_3 1_555 1_555
C82_3 C79_3 1_555 1_555
C99_3 H61_3 1_555 1_555
C100_3 C99_3 1_555 1_555
H62_3 C100_3 1_555 1_555
C101_3 H63_3 1_555 1_555
C102_3 C103_3 1_555 1_555
C104_3 C103_3 1_555 1_555
H65_3 C104_3 1_555 1_555
C105_3 C104_3 1_555 1_555
C106_3 C102_3 1_555 1_555
H66_3 C106_3 1_555 1_555
C107_3 C105_3 1_555 1_555
H67_3 C107_3 1_555 1_555
N1_3 C32_3 1_555 1_555
N2_3 C31_3 1_555 1_555
N3_2 C44_2 1_555 1_555
N5_3 C54_3 1_555 1_555
N6_2 C57_3 1_555 1_555
N7_3 C62_3 1_555 1_555
N8_3 C66_3 1_555 1_555
N9_3 Cd1_2 1_555 1_555
N10_3 C99_3 1_555 1_555
O8_3 Cd13_2 1_555 1_555
O9_3 Cd1_2 1_555 1_555
O10_3 Cd1_2 1_555 1_555
O11_2 C76_3 1_555 1_555
O12_2 C76_3 1_555 1_555
Cd8 O11_2 1_555 1_555
O21_2 Cd1_2 1_555 1_555
O22_2 Cd1_2 1_555 1_555
C33_3 N1_3 1_555 1_555
C33_3 N2_3 1_555 1_555
C34_3 N2_3 1_555 1_555
C38_3 C39_3 1_555 1_555
C44_2 C47_2 1_555 1_555
C48_2 N3_2 1_555 1_555
C54_3 C56_3 1_555 1_555
C57_3 N5_3 1_555 1_555
C58_3 N5_3 1_555 1_555
C59_3 N6_2 1_555 1_555
C60_3 C61_3 1_555 1_555
C62_3 C65_3 1_555 1_555
C63_3 C64_3 1_555 1_555
C66_3 N7_3 1_555 1_555
C67_3 N8_3 1_555 1_555
C68_3 N7_3 1_555 1_555
C69_3 O9_3 1_555 1_555
C69_3 O10_3 1_555 1_555
C74_3 C75_3 1_555 1_555
C81_3 C82_3 1_555 1_555
C100_3 N9_3 1_555 1_555
C101_3 N9_3 1_555 1_555
C101_3 N10_3 1_555 1_555
C105_3 N10_3 1_555 1_555
C106_3 C107_3 1_555 1_555
O12_2 Cd8 1_555 1_555
C85_3 C84_3 1_555 1_555
C86_3 H53_3 1_555 1_555
C87_3 C86_3 1_555 1_555
C88_3 C85_3 1_555 1_555
H54_3 C88_3 1_555 1_555
C89_3 C87_3 1_555 1_555
H55_3 C89_3 1_555 1_555
C90_3 C85_3 1_555 1_555
H56_3 C90_3 1_555 1_555
C91_3 C87_3 1_555 1_555
C92_3 C93_3 1_555 1_555
C93_3 H57_3 1_555 1_555
C94_3 C83_3 1_555 1_555
C95_3 C93_3 1_555 1_555
H58_3 C95_3 1_555 1_555
C96_3 C94_3 1_555 1_555
C97_3 C92_3 1_555 1_555
H60_3 C97_3 1_555 1_555
C98_3 C92_3 1_555 1_555
C109_3 H68_3 1_555 1_555
C110_3 C108_3 1_555 1_555
C111_3 C112_3 1_555 1_555
C112_3 C109_3 1_555 1_555
H69_3 C112_3 1_555 1_555
C113_3 C110_3 1_555 1_555
C114_3 C111_3 1_555 1_555
H71_3 C114_3 1_555 1_555
C116_3 H73_3 1_555 1_555
C117_2 C116_3 1_555 1_555
H74_2 C117_2 1_555 1_555
N11_3 C111_3 1_555 1_555
N12_2 C115_2 1_555 1_555
O25 C91_3 1_555 1_555
O26 C91_3 1_555 1_555
O15_2 C98_3 1_555 1_555
O16_2 C98_3 1_555 1_555
C83_3 C84_3 1_555 1_555
C86_3 C90_3 1_555 1_555
C88_3 C89_3 1_555 1_555
C94_3 C95_3 1_555 1_555
C96_3 C97_3 1_555 1_555
C109_3 C110_3 1_555 1_555
C113_3 C114_3 1_555 1_555
C115_2 N11_3 1_555 1_555
C116_3 N11_3 1_555 1_555
C117_2 N12_2 1_555 1_555
C2_3 C4_3 1_555 1_555
C4_3 H1_3 1_555 1_555
C7_3 C2_3 1_555 1_555
H4_3 C7_3 1_555 1_555
C8_3 C12_3 1_555 1_555
C9_3 C10_3 1_555 1_555
C10_3 H5_3 1_555 1_555
C11_3 C10_3 1_555 1_555
H6_3 C11_3 1_555 1_555
C12_3 C11_3 1_555 1_555
C13_3 C9_3 1_555 1_555
H7_3 C13_3 1_555 1_555
C14_3 C12_3 1_555 1_555
H8_3 C14_3 1_555 1_555
C15_3 C2_3 1_555 1_555
C16_3 C9_3 1_555 1_555
C17_3 C16_3 1_555 1_555
C18_3 C17_3 1_555 1_555
H9_3 C18_3 1_555 1_555
C19_3 C20_3 1_555 1_555
C20_3 H10_3 1_555 1_555
C21_3 C18_3 1_555 1_555
H11_3 C21_3 1_555 1_555
C22_3 C17_3 1_555 1_555
H12_3 C22_3 1_555 1_555
C23_3 C19_3 1_555 1_555
C26_3 C15_3 1_555 1_555
H14_3 C27_3 1_555 1_555
O19_2 C8_3 1_555 1_555
O20_2 C8_3 1_555 1_555
O5_2 C23_3 1_555 1_555
O6_2 C23_3 1_555 1_555
C13_3 C14_3 1_555 1_555
C15_3 C16_3 1_555 1_555
C19_3 C21_3 1_555 1_555
C20_3 C22_3 1_555 1_555
C26_3 C27_3 1_555 1_555
C1_3 C3_3 1_555 1_555
C3_3 C5_3 1_555 1_555
C5_3 H2_3 1_555 1_555
C6_3 C3_3 1_555 1_555
H3_3 C6_3 1_555 1_555
C24_3 C25_3 1_555 1_555
H15_3 C28_3 1_555 1_555
C29_3 C24_3 1_555 1_555
H16_3 C29_3 1_555 1_555
C30_3 C24_3 1_555 1_555
C129_3 C131_3 1_555 1_555
C130_3 C128_3 1_555 1_555
C131_3 C130_3 1_555 1_555
C132_3 C128_3 1_555 1_555
H84_3 C132_3 1_555 1_555
C133_3 C129_3 1_555 1_555
H85_3 C133_3 1_555 1_555
C135_3 H87_3 1_555 1_555
N15_3 C129_3 1_555 1_555
N16_3 C134_3 1_555 1_555
O1_2 C1_3 1_555 1_555
O2_2 C1_3 1_555 1_555
C136_3 C135_3 1_555 1_555
H88_3 C136_3 1_555 1_555
Cd8 O1_2 1_555 1_555
C28_3 C29_3 1_555 1_555
C30_3 O7_3 1_555 1_555
C132_3 C133_3 1_555 1_555
C134_3 N15_3 1_555 1_555
C135_3 N15_3 1_555 1_555
N16_3 C136_3 1_555 1_555
O2_2 Cd8 1_555 1_555
C119_3 C118_3 1_555 1_555
C120_3 C119_3 1_555 1_555
H75_3 C120_3 1_555 1_555
C121_3 C120_3 1_555 1_555
H76_3 C121_3 1_555 1_555
C122_3 C121_3 1_555 1_555
C123_3 C122_3 1_555 1_555
H77_3 C123_3 1_555 1_555
C124_3 C119_3 1_555 1_555
H78_3 C124_3 1_555 1_555
C125_3 H79_3 1_555 1_555
C126_3 H80_3 1_555 1_555
C127_3 C126_3 1_555 1_555
H81_3 C127_3 1_555 1_555
N13_3 C122_3 1_555 1_555
N19 C125_3 1_555 1_555
O17_2 Cd8_2 1_555 1_555
O18_2 Cd8_2 1_555 1_555
O23_2 Cd8_2 1_555 1_555
O24_2 Cd8_2 1_555 1_555
C123_3 C124_3 1_555 1_555
C125_3 N13_3 1_555 1_555
C126_3 N13_3 1_555 1_555
C127_3 N19 1_555 1_555
Cd8 N12_3 1_555 1_555
C115_3 H72_4 1_555 1_555
H74_3 C117_3 1_555 1_555
N12_3 C115_3 1_555 1_555
C117_3 N12_3 1_555 1_555
Cd5_2 N8_4 1_555 1_555
Cd11 N16_4 1_555 1_555
Cd13 N1_4 1_555 1_555
C1_4 C3_4 1_555 1_555
C2_4 C4_4 1_555 1_555
C3_4 C5_4 1_555 1_555
C4_4 H1_4 1_555 1_555
C5_4 H2_4 1_555 1_555
C6_4 C3_4 1_555 1_555
H3_4 C6_4 1_555 1_555
C7_4 C2_4 1_555 1_555
H4_4 C7_4 1_555 1_555
C8_4 C12_4 1_555 1_555
C9_4 C10_4 1_555 1_555
C10_4 H5_4 1_555 1_555
C11_4 C10_4 1_555 1_555
H6_4 C11_4 1_555 1_555
C12_4 C11_4 1_555 1_555
C13_4 C9_4 1_555 1_555
H7_4 C13_4 1_555 1_555
C14_4 C12_4 1_555 1_555
H8_4 C14_4 1_555 1_555
C15_4 C2_4 1_555 1_555
C16_4 C9_4 1_555 1_555
C17_4 C16_4 1_555 1_555
C18_4 C17_4 1_555 1_555
H9_4 C18_4 1_555 1_555
C19_4 C20_4 1_555 1_555
C20_4 H10_4 1_555 1_555
C21_4 C18_4 1_555 1_555
H11_4 C21_4 1_555 1_555
C22_4 C17_4 1_555 1_555
H12_4 C22_4 1_555 1_555
C23_4 C19_4 1_555 1_555
C24_4 C25_4 1_555 1_555
C25_4 H13_4 1_555 1_555
C26_4 C15_4 1_555 1_555
C27_4 C25_4 1_555 1_555
H14_4 C27_4 1_555 1_555
C28_4 C26_4 1_555 1_555
H15_4 C28_4 1_555 1_555
C29_4 C24_4 1_555 1_555
H16_4 C29_4 1_555 1_555
C30_4 C24_4 1_555 1_555
C31_4 H17_4 1_555 1_555
C32_4 C31_4 1_555 1_555
H18_4 C32_4 1_555 1_555
C33_4 H19_4 1_555 1_555
C34_4 C35_4 1_555 1_555
C35_4 H20_4 1_555 1_555
C36_4 C37_4 1_555 1_555
C37_4 C35_4 1_555 1_555
H21_4 C37_4 1_555 1_555
C38_4 C36_4 1_555 1_555
H22_4 C38_4 1_555 1_555
C39_4 C34_4 1_555 1_555
H23_4 C39_4 1_555 1_555
C40_4 C36_4 1_555 1_555
C60_4 H38_4 1_555 1_555
C61_4 C40_4 1_555 1_555
C62_4 C63_4 1_555 1_555
C63_4 H39_4 1_555 1_555
C64_4 C61_4 1_555 1_555
H40_4 C64_4 1_555 1_555
C65_4 C60_4 1_555 1_555
H41_4 C65_4 1_555 1_555
C66_4 H42_4 1_555 1_555
C67_4 H43_4 1_555 1_555
C68_4 C67_4 1_555 1_555
H44_4 C68_4 1_555 1_555
C99_4 H61_4 1_555 1_555
C100_4 C99_4 1_555 1_555
H62_4 C100_4 1_555 1_555
C101_4 H63_4 1_555 1_555
C102_4 C103_4 1_555 1_555
C104_4 C103_4 1_555 1_555
H65_4 C104_4 1_555 1_555
C105_4 C104_4 1_555 1_555
C106_4 C102_4 1_555 1_555
H66_4 C106_4 1_555 1_555
C107_4 C105_4 1_555 1_555
H67_4 C107_4 1_555 1_555
C129_4 C131_4 1_555 1_555
C130_4 C128_4 1_555 1_555
H82_4 C130_4 1_555 1_555
C131_4 C130_4 1_555 1_555
H83_4 C131_4 1_555 1_555
C132_4 C128_4 1_555 1_555
H84_4 C132_4 1_555 1_555
C133_4 C129_4 1_555 1_555
H85_4 C133_4 1_555 1_555
C134_4 H86_4 1_555 1_555
C135_4 H87_4 1_555 1_555
N1_4 C32_4 1_555 1_555
N2_4 C31_4 1_555 1_555
N7_4 C62_4 1_555 1_555
N8_4 C66_4 1_555 1_555
N9_4 Cd5_2 1_555 1_555
N10_4 C99_4 1_555 1_555
N15_4 C129_4 1_555 1_555
N16_4 C134_4 1_555 1_555
O17_2 C1_4 1_555 1_555
O18_2 C1_4 1_555 1_555
O19 C8_4 1_555 1_555
O20 C8_4 1_555 1_555
O21_2 C23_4 1_555 1_555
O22_2 C23_4 1_555 1_555
O7_4 Cd13 1_555 1_555
O8_4 Cd13 1_555 1_555
O10_4 Cd5_2 1_555 1_555
C136_4 C135_4 1_555 1_555
H88_4 C136_4 1_555 1_555
N18_2 Cd11 1_555 1_555
O27_2 Cd13 1_555 1_555
O28_2 Cd13 1_555 1_555
C4_4 C6_4 1_555 1_555
C5_4 C7_4 1_555 1_555
C13_4 C14_4 1_555 1_555
C15_4 C16_4 1_555 1_555
C19_4 C21_4 1_555 1_555
C20_4 C22_4 1_555 1_555
C26_4 C27_4 1_555 1_555
C28_4 C29_4 1_555 1_555
C30_4 O7_4 1_555 1_555
C30_4 O8_4 1_555 1_555
C33_4 N1_4 1_555 1_555
C33_4 N2_4 1_555 1_555
C34_4 N2_4 1_555 1_555
C38_4 C39_4 1_555 1_555
C60_4 C61_4 1_555 1_555
C62_4 C65_4 1_555 1_555
C63_4 C64_4 1_555 1_555
C66_4 N7_4 1_555 1_555
C67_4 N8_4 1_555 1_555
C68_4 N7_4 1_555 1_555
C100_4 N9_4 1_555 1_555
C101_4 N9_4 1_555 1_555
C101_4 N10_4 1_555 1_555
C105_4 N10_4 1_555 1_555
C106_4 C107_4 1_555 1_555
C132_4 C133_4 1_555 1_555
C134_4 N15_4 1_555 1_555
C135_4 N15_4 1_555 1_555
N16_4 C136_4 1_555 1_555
C85_4 C84_4 1_555 1_555
C86_4 H53_4 1_555 1_555
C87_4 C86_4 1_555 1_555
C88_4 C85_4 1_555 1_555
H54_4 C88_4 1_555 1_555
C89_4 C87_4 1_555 1_555
H55_4 C89_4 1_555 1_555
C90_4 C85_4 1_555 1_555
H56_4 C90_4 1_555 1_555
C91_4 C87_4 1_555 1_555
C92_4 C93_4 1_555 1_555
C93_4 H57_4 1_555 1_555
C94_4 C83_4 1_555 1_555
C95_4 C93_4 1_555 1_555
H58_4 C95_4 1_555 1_555
C96_4 C94_4 1_555 1_555
C97_4 C92_4 1_555 1_555
H60_4 C97_4 1_555 1_555
C98_4 C92_4 1_555 1_555
O25_2 C91_4 1_555 1_555
O26_2 C91_4 1_555 1_555
O27_2 C98_4 1_555 1_555
O28_2 C98_4 1_555 1_555
C83_4 C84_4 1_555 1_555
C86_4 C90_4 1_555 1_555
C88_4 C89_4 1_555 1_555
C94_4 C95_4 1_555 1_555
C96_4 C97_4 1_555 1_555
C42_3 C41_4 1_555 1_555
C43_3 C42_3 1_555 1_555
C44_3 C46_3 1_555 1_555
C45_3 C42_3 1_555 1_555
H25_3 C45_3 1_555 1_555
C46_3 C45_3 1_555 1_555
H26_3 C46_3 1_555 1_555
C47_3 C43_3 1_555 1_555
C48_3 H28_3 1_555 1_555
C49_4 C48_3 1_555 1_555
H29_4 C49_4 1_555 1_555
C50_4 H30_4 1_555 1_555
C51_4 C41_4 1_555 1_555
C52_4 C51_4 1_555 1_555
H31_4 C52_4 1_555 1_555
C53_4 C51_4 1_555 1_555
H32_4 C53_4 1_555 1_555
C54_4 C55_4 1_555 1_555
C55_4 C52_4 1_555 1_555
H33_4 C55_4 1_555 1_555
C56_4 C53_4 1_555 1_555
H34_4 C56_4 1_555 1_555
C57_4 H35_4 1_555 1_555
C58_4 H36_4 1_555 1_555
C59_4 C58_4 1_555 1_555
H37_4 C59_4 1_555 1_555
C69_4 C70_4 1_555 1_555
C70_4 C71_4 1_555 1_555
C71_4 H45_4 1_555 1_555
C72_4 C71_4 1_555 1_555
H46_4 C72_4 1_555 1_555
C73_4 C70_4 1_555 1_555
H47_4 C73_4 1_555 1_555
C74_4 C72_4 1_555 1_555
C75_4 C73_4 1_555 1_555
H48_4 C75_4 1_555 1_555
C76_4 C77_4 1_555 1_555
C77_4 C78_4 1_555 1_555
C78_4 H49_4 1_555 1_555
C79_4 C80_4 1_555 1_555
C80_4 C78_4 1_555 1_555
H50_4 C80_4 1_555 1_555
C81_4 C77_4 1_555 1_555
H51_4 C81_4 1_555 1_555
C82_4 C79_4 1_555 1_555
N3_3 C44_3 1_555 1_555
N17 C49_4 1_555 1_555
N5_4 C54_4 1_555 1_555
N18_2 C57_4 1_555 1_555
O23_2 C76_4 1_555 1_555
O24_2 C76_4 1_555 1_555
C44_3 C47_3 1_555 1_555
C48_3 N3_3 1_555 1_555
C50_4 N3_3 1_555 1_555
C50_4 N17 1_555 1_555
C54_4 C56_4 1_555 1_555
C57_4 N5_4 1_555 1_555
C58_4 N5_4 1_555 1_555
C59_4 N18_2 1_555 1_555
C69_4 O9_4 1_555 1_555
C74_4 C75_4 1_555 1_555
C81_4 C82_4 1_555 1_555
H74_4 C117_4 1_555 1_555
N12_4 C115_4 1_555 1_555
C117_4 N12_4 1_555 1_555
C109_4 H68_4 1_555 1_555
C110_4 C108_4 1_555 1_555
C111_4 C112_4 1_555 1_555
C112_4 C109_4 1_555 1_555
H69_4 C112_4 1_555 1_555
C113_4 C110_4 1_555 1_555
C114_4 C111_4 1_555 1_555
H71_4 C114_4 1_555 1_555
C116_4 H73_4 1_555 1_555
C118_4 C108_4 1_555 1_555
C119_4 C118_4 1_555 1_555
C120_4 C119_4 1_555 1_555
H75_4 C120_4 1_555 1_555
C121_4 C120_4 1_555 1_555
H76_4 C121_4 1_555 1_555
C122_4 C121_4 1_555 1_555
C123_4 C122_4 1_555 1_555
H77_4 C123_4 1_555 1_555
C124_4 C119_4 1_555 1_555
H78_4 C124_4 1_555 1_555
C125_4 H79_4 1_555 1_555
C126_4 H80_4 1_555 1_555
C127_4 C126_4 1_555 1_555
H81_4 C127_4 1_555 1_555
N11_4 C111_4 1_555 1_555
N13_4 C122_4 1_555 1_555
N19_2 C125_4 1_555 1_555
C109_4 C110_4 1_555 1_555
C113_4 C114_4 1_555 1_555
C116_4 N11_4 1_555 1_555
C123_4 C124_4 1_555 1_555
C125_4 N13_4 1_555 1_555
C126_4 N13_4 1_555 1_555
C127_4 N19_2 1_555 1_555
C43_4 C42_4 1_555 1_555
C44_4 C46_4 1_555 1_555
C45_4 C42_4 1_555 1_555
H25_4 C45_4 1_555 1_555
C46_4 C45_4 1_555 1_555
H26_4 C46_4 1_555 1_555
C47_4 C43_4 1_555 1_555
C48_4 H28_4 1_555 1_555
N3_4 C44_4 1_555 1_555
C44_4 C47_4 1_555 1_555
C48_4 N3_4 1_555 1_555

#END
