
###############################################################################
#
# This file contains modified crystal structure data generated from the
# MOF subset of the Cambridge Structural Database (CSD) v543 
# hosted by the Cambridge Crystallographic Data Centre (CCDC).
#
# This work is licensed under the Creative Commons
# Attribution-NonCommercial-ShareAlike 4.0 International License.
# To view a copy of this license, visit
# http://creativecommons.org/licenses/by-nc-sa/4.0/
# or send a letter to
# Creative Commons, PO Box 1866, Mountain View, CA 94042, USA.
#
# CIF created using the CSD Python API on 29 September 2022
# The structure has been converted into the P1 space group
# The structure has a 3D framework
# The original CSD entry WEBGAP is in the monoclinic crystal system
# The framework has been calculated to contain at least 10.0% void space
# The void calculation uses a probe of radius 1.32A, grid spacing 0.4
#
###############################################################################

data_WEBGAP
_chemical_formula_moiety         '(C204 H156 B12 Cu10 F48 N24 O40)n'
_symmetry_cell_setting           triclinic
_symmetry_space_group_name_H-M   'P 1'
_symmetry_Int_Tables_number      1
_space_group_name_Hall           'P 1'
loop_
_symmetry_equiv_pos_site_id
_symmetry_equiv_pos_as_xyz
1 x,y,z
_cell_length_a                   14.932(3)
_cell_length_b                   31.562(5)
_cell_length_c                   14.861(3)
_cell_angle_alpha                90
_cell_angle_beta                 98.450(6)
_cell_angle_gamma                90
_cell_volume                     6927.72
loop_
_atom_site_label
_atom_site_type_symbol
_atom_site_fract_x
_atom_site_fract_y
_atom_site_fract_z
O3 O 0.0371(6) 0.5555(3) 0.0951(7)
O7 O 0.0305(6) 0.9513(3) 0.4090(8)
H8 H 0.047857 0.881328 0.338523
H19 H 0.039226 0.620606 0.200593
H37 H 0.002278 0.818719 0.268069
Cu8 Cu 0.08199(11) 0.51426(5) 0.01434(13)
Cu9 Cu 0.08199(11) 0.98574(5) 0.51434(13)
Cu2 Cu 0.91801(11) 0.01426(5) 0.48566(13)
Cu6 Cu 0.58864(11) 0.01475(5) 0.56664(13)
O13 O 0.7804(6) 0.0333(3) 0.5046(7)
O15 O 0.9629(6) 0.0555(3) 0.4049(7)
O19 O 0.9695(6) 0.0487(3) 0.5910(8)
Cu1 Cu 0.58864(11) 0.48525(5) 0.06664(13)
Cu3 Cu 0.75398(11) 0.51291(5) 0.08794(13)
O1 O 0.8877(6) 0.9737(3) 0.3877(8)
O4 O 0.5535(6) 0.9687(3) 0.4770(8)
O5 O 0.8945(6) 0.5325(3) 0.0686(7)
N1 N 0.8287(8) 0.2312(3) 0.4427(9)
O6 O 0.6335(7) 0.4453(3) 0.1612(8)
N2 N 0.5129(9) 0.7715(3) 0.3863(10)
O8 O 0.7738(7) 0.4717(3) 0.1866(8)
O9 O 0.6991(6) 0.9499(3) 0.4833(8)
O10 O 0.5718(7) 0.5278(3) 0.1577(8)
N3 N 0.8368(8) 0.7275(4) 0.1614(10)
N4 N 0.8392(8) 0.7953(4) 0.1929(10)
N5 N 0.5184(9) 0.7029(3) 0.3506(10)
N6 N 0.8274(8) 0.3004(4) 0.4086(10)
O11 O 0.6357(6) 0.0533(3) 0.4777(7)
C1 C 0.7986(10) 0.1880(4) 0.4460(12)
C2 C 0.7122(10) 0.4440(4) 0.1981(12)
O12 O 0.7147(7) 0.5540(3) 0.1682(7)
C3 C 0.7417(10) 0.4091(4) 0.2607(12)
C4 C 0.5678(11) 0.7388(4) 0.3650(12)
H1 H 0.630568 0.741225 0.361020
C5 C 0.5420(10) 0.8136(4) 0.4034(12)
C6 C 0.8364(10) 0.1176(4) 0.4901(11)
H2 H 0.880224 0.097440 0.515327
C7 C 0.8868(10) 0.7600(4) 0.1969(12)
H3 H 0.948959 0.758048 0.221946
C8 C 0.5539(11) 0.6646(4) 0.3163(13)
C9 C 0.7050(10) 0.3424(4) 0.3224(11)
H4 H 0.661354 0.321452 0.330871
C10 C 0.7953(10) 0.3380(4) 0.3631(12)
C11 C 0.5905(10) 0.8975(4) 0.4344(11)
C12 C 0.9523(10) 0.6706(4) 0.1930(11)
H5 H 0.990524 0.688644 0.233075
C13 C 0.7474(9) 0.1043(4) 0.4595(11)
C14 C 0.4232(10) 0.7574(4) 0.3858(13)
H6 H 0.381139 0.773181 0.339909
H7 H 0.404241 0.761546 0.446243
C15 C 0.9863(11) 0.8772(5) 0.3132(12)
C16 C 0.8603(10) 0.1577(4) 0.4845(12)
H9 H 0.920592 0.166023 0.507097
C17 C 0.7110(10) 0.1764(4) 0.4136(12)
H10 H 0.668451 0.196899 0.387412
C18 C 0.9543(10) 0.5589(4) 0.0959(11)
C19 C 0.9260(10) 0.6033(4) 0.1246(11)
C20 C 0.7450(10) 0.7410(4) 0.1254(13)
H11 H 0.699586 0.724934 0.153826
H12 H 0.732622 0.737091 0.058589
C21 C 0.6357(10) 0.5548(4) 0.1849(11)
C22 C 0.8294(10) 0.4059(4) 0.3079(11)
H13 H 0.870825 0.428630 0.305789
C23 C 0.6073(11) 0.5928(4) 0.2356(13)
C24 C 0.7798(10) 0.2625(4) 0.4090(12)
H14 H 0.717055 0.260054 0.386579
C25 C 0.8682(10) 0.6850(4) 0.1514(11)
C26 C 0.7440(10) 0.7883(4) 0.1508(12)
H15 H 0.727662 0.806297 0.096294
H16 H 0.701432 0.793928 0.194567
C27 C 0.4899(11) 0.6328(4) 0.2907(13)
H17 H 0.428883 0.635702 0.301025
C28 C 0.8359(11) 0.9050(4) 0.2770(13)
H18 H 0.795002 0.928131 0.274410
C29 C 0.7195(9) 0.0608(4) 0.4810(11)
C30 C 0.9802(10) 0.6297(4) 0.1755(11)
C31 C 0.8066(11) 0.8669(4) 0.2378(12)
H20 H 0.744792 0.862644 0.213424
C32 C 0.5181(11) 0.5981(4) 0.2512(13)
H21 H 0.475539 0.576242 0.233007
C33 C 0.8569(10) 0.3697(4) 0.3583(12)
H22 H 0.917202 0.367112 0.388640
C34 C 0.9221(10) 0.2927(4) 0.4518(13)
H23 H 0.937427 0.309677 0.508036
H24 H 0.965693 0.299323 0.409598
C35 C 0.8719(10) 0.8338(4) 0.2350(13)
C36 C 0.6185(10) 0.9429(4) 0.4651(12)
C37 C 0.8375(9) 0.6173(4) 0.0860(11)
H25 H 0.796930 0.598066 0.051829
C38 C 0.6282(10) 0.8294(4) 0.3864(11)
H26 H 0.669640 0.811363 0.362075
C39 C 0.9500(10) 0.9482(4) 0.3754(11)
C40 C 0.6399(11) 0.6611(4) 0.3087(13)
H27 H 0.681315 0.682824 0.330916
C41 C 0.4800(10) 0.8407(4) 0.4329(11)
H28 H 0.421572 0.831000 0.441247
C42 C 0.8109(10) 0.6576(4) 0.0975(11)
H29 H 0.753296 0.667095 0.068874
C43 C 0.6866(10) 0.1358(4) 0.4196(11)
H30 H 0.626299 0.127849 0.396194
C44 C 0.9213(11) 0.9098(4) 0.3186(12)
C45 C 0.9206(10) 0.2445(5) 0.4732(13)
H31 H 0.963356 0.228955 0.440112
H32 H 0.937446 0.239322 0.539190
C46 C 0.6500(10) 0.8716(4) 0.4064(11)
H33 H 0.708480 0.881854 0.399787
C47 C 0.4241(10) 0.7090(4) 0.3610(12)
H34 H 0.406812 0.691146 0.410459
H35 H 0.383280 0.702813 0.303768
C48 C 0.6814(10) 0.3767(4) 0.2716(12)
H36 H 0.620850 0.378903 0.241644
C49 C 0.9590(10) 0.8405(5) 0.2717(12)
C50 C 0.5056(10) 0.8833(4) 0.4503(11)
H38 H 0.465023 0.902403 0.472902
C51 C 0.6713(11) 0.6233(4) 0.2656(12)
H39 H 0.733035 0.619819 0.258476
Cu4 Cu 0.41136(11) 0.98525(5) 0.43336(13)
Cu12 Cu 0.75398(11) 0.98709(5) 0.58794(13)
O14 O 0.7804(6) 0.4667(3) 0.0046(7)
O16 O 0.4465(6) 0.4687(3) 0.0230(8)
O18 O 0.8945(6) 0.9675(3) 0.5686(7)
Cu10 Cu 0.91801(11) 0.48574(5) 0.98566(13)
O17 O 0.5535(6) 0.5313(3) 0.9770(8)
O20 O 0.6991(6) 0.5501(3) 0.9833(8)
O21 O 0.6357(6) 0.4467(3) 0.9777(7)
Cu3_2 Cu 0.24602(11) 0.01291(5) 0.41206(13)
O1_2 O 0.1123(6) 0.4737(3) 0.1123(8)
O5_2 O 0.1055(6) 0.0325(3) 0.4314(7)
N2_2 N 0.4871(9) 0.2715(3) 0.1137(10)
O9_2 O 0.3009(6) 0.4499(3) 0.0167(8)
O10_2 O 0.4282(7) 0.0278(3) 0.3423(8)
N3_2 N 0.1632(8) 0.2275(4) 0.3386(10)
N4_2 N 0.1608(8) 0.2953(4) 0.3071(10)
N5_2 N 0.4816(9) 0.2029(3) 0.1494(10)
O12_2 O 0.2853(7) 0.0540(3) 0.3318(7)
C4_2 C 0.4322(11) 0.2388(4) 0.1350(12)
H1_2 H 0.369432 0.241225 0.138980
C5_2 C 0.4580(10) 0.3136(4) 0.0966(12)
C7_2 C 0.1132(10) 0.2600(4) 0.3031(12)
H3_2 H 0.051041 0.258048 0.278054
C8_2 C 0.4461(11) 0.1646(4) 0.1837(13)
C11_2 C 0.4095(10) 0.3975(4) 0.0656(11)
C12_2 C 0.0477(10) 0.1706(4) 0.3070(11)
H5_2 H 0.009476 0.188644 0.266925
C14_2 C 0.5768(10) 0.2574(4) 0.1142(13)
H6_2 H 0.618861 0.273181 0.160091
H7_2 H 0.595759 0.261546 0.053757
C15_2 C 0.0137(11) 0.3772(5) 0.1868(12)
C18_2 C 0.0457(10) 0.0589(4) 0.4041(11)
C19_2 C 0.0740(10) 0.1033(4) 0.3754(11)
C20_2 C 0.2550(10) 0.2410(4) 0.3746(13)
H11_2 H 0.300414 0.224934 0.346174
H12_2 H 0.267378 0.237091 0.441411
C21_2 C 0.3643(10) 0.0548(4) 0.3151(11)
C23_2 C 0.3927(11) 0.0928(4) 0.2644(13)
C25_2 C 0.1318(10) 0.1850(4) 0.3486(11)
C26_2 C 0.2560(10) 0.2883(4) 0.3492(12)
H15_2 H 0.272338 0.306297 0.403706
H16_2 H 0.298568 0.293928 0.305433
C27_2 C 0.5101(11) 0.1328(4) 0.2093(13)
H17_2 H 0.571117 0.135702 0.198975
C28_2 C 0.1641(11) 0.4050(4) 0.2230(13)
H18_2 H 0.204998 0.428131 0.225590
C30_2 C 0.0198(10) 0.1297(4) 0.3245(11)
C31_2 C 0.1934(11) 0.3669(4) 0.2622(12)
H20_2 H 0.255208 0.362644 0.286576
C32_2 C 0.4819(11) 0.0981(4) 0.2488(13)
H21_2 H 0.524461 0.076242 0.266993
C35_2 C 0.1281(10) 0.3338(4) 0.2650(13)
C36_2 C 0.3815(10) 0.4429(4) 0.0349(12)
C37_2 C 0.1625(9) 0.1173(4) 0.4140(11)
H25_2 H 0.203070 0.098066 0.448171
C38_2 C 0.3718(10) 0.3294(4) 0.1136(11)
H26_2 H 0.330360 0.311363 0.137925
C39_2 C 0.0500(10) 0.4482(4) 0.1246(11)
C40_2 C 0.3601(11) 0.1611(4) 0.1913(13)
H27_2 H 0.318685 0.182824 0.169084
C41_2 C 0.5200(10) 0.3407(4) 0.0671(11)
H28_2 H 0.578428 0.331000 0.058753
C42_2 C 0.1891(10) 0.1576(4) 0.4025(11)
H29_2 H 0.246704 0.167095 0.431126
C44_2 C 0.0787(11) 0.4098(4) 0.1814(12)
C46_2 C 0.3500(10) 0.3716(4) 0.0936(11)
H33_2 H 0.291520 0.381854 0.100213
C47_2 C 0.5759(10) 0.2090(4) 0.1390(12)
H34_2 H 0.593188 0.191146 0.089541
H35_2 H 0.616720 0.202813 0.196232
C49_2 C 0.0410(10) 0.3405(5) 0.2283(12)
C50_2 C 0.4944(10) 0.3833(4) 0.0497(11)
H38_2 H 0.534977 0.402403 0.027098
C51_2 C 0.3287(11) 0.1233(4) 0.2344(12)
H39_2 H 0.266965 0.119819 0.241524
O17_2 O 0.4465(6) 0.0313(3) 0.5230(8)
O20_2 O 0.3009(6) 0.0501(3) 0.5167(8)
Cu6_2 Cu 0.41136(11) 0.51475(5) 0.93336(13)
Cu12_2 Cu 0.24602(11) 0.48709(5) 0.91206(13)
O13_2 O 0.2196(6) 0.5333(3) 0.9954(7)
O18_2 O 0.1055(6) 0.4675(3) 0.9314(7)
O19_2 O 0.0305(6) 0.5487(3) 0.9090(8)
N1_2 N 0.1713(8) 0.7312(3) 0.0573(9)
O6_2 O 0.3665(7) 0.9453(3) 0.3388(8)
O8_2 O 0.2262(7) 0.9717(3) 0.3134(8)
N6_2 N 0.1726(8) 0.8004(4) 0.0914(10)
O11_2 O 0.3643(6) 0.5533(3) 0.0223(7)
C1_2 C 0.2014(10) 0.6880(4) 0.0540(12)
C2_2 C 0.2878(10) 0.9440(4) 0.3019(12)
C3_2 C 0.2583(10) 0.9091(4) 0.2393(12)
C6_2 C 0.1636(10) 0.6176(4) 0.0099(11)
C9_2 C 0.2950(10) 0.8424(4) 0.1776(11)
H4_2 H 0.338646 0.821452 0.169129
C10_2 C 0.2047(10) 0.8380(4) 0.1369(12)
C13_2 C 0.2526(9) 0.6043(4) 0.0405(11)
C16_2 C 0.1397(10) 0.6577(4) 0.0155(12)
C17_2 C 0.2890(10) 0.6764(4) 0.0864(12)
H10_2 H 0.331549 0.696899 0.112588
C22_2 C 0.1706(10) 0.9059(4) 0.1921(11)
H13_2 H 0.129175 0.928630 0.194211
C24_2 C 0.2202(10) 0.7625(4) 0.0910(12)
H14_2 H 0.282945 0.760054 0.113421
C29_2 C 0.2805(9) 0.5608(4) 0.0190(11)
C33_2 C 0.1431(10) 0.8697(4) 0.1417(12)
H22_2 H 0.082798 0.867112 0.111360
C34_2 C 0.0779(10) 0.7927(4) 0.0482(13)
H24_2 H 0.034307 0.799323 0.090402
C43_2 C 0.3134(10) 0.6358(4) 0.0804(11)
H30_2 H 0.373701 0.627849 0.103806
C45_2 C 0.0794(10) 0.7445(5) 0.0268(13)
H31_2 H 0.036644 0.728955 0.059888
C48_2 C 0.3186(10) 0.8767(4) 0.2284(12)
H36_2 H 0.379150 0.878903 0.258356
O14_2 O 0.2196(6) 0.9667(3) 0.4954(7)
O21_2 O 0.3643(6) 0.9467(3) 0.5223(7)
H2_2 H 0.119776 0.597440 0.984673
H9_2 H 0.079408 0.666023 0.992903
H23_2 H 0.062573 0.809677 0.991964
H32_2 H 0.062554 0.739322 0.960810
O7_2 O 0.9695(6) 0.4513(3) 0.0910(8)
H8_2 H 0.952143 0.381328 0.161477
H19_2 H 0.960774 0.120606 0.299407
H37_2 H 0.997722 0.318719 0.231931
O1_3 O 0.1123(6) 0.0263(3) 0.6123(8)
N1_3 N 0.1713(8) 0.7688(3) 0.5573(9)
O6_3 O 0.3665(7) 0.5547(3) 0.8388(8)
N2_3 N 0.4871(9) 0.2285(3) 0.6137(10)
O8_3 O 0.2262(7) 0.5283(3) 0.8134(8)
O10_3 O 0.4282(7) 0.4722(3) 0.8423(8)
N3_3 N 0.1632(8) 0.2725(4) 0.8386(10)
N4_3 N 0.1608(8) 0.2047(4) 0.8071(10)
N5_3 N 0.4816(9) 0.2971(3) 0.6494(10)
N6_3 N 0.1726(8) 0.6996(4) 0.5914(10)
C1_3 C 0.2014(10) 0.8120(4) 0.5540(12)
C2_3 C 0.2878(10) 0.5560(4) 0.8019(12)
O12_3 O 0.2853(7) 0.4460(3) 0.8318(7)
C3_3 C 0.2583(10) 0.5909(4) 0.7393(12)
C4_3 C 0.4322(11) 0.2612(4) 0.6350(12)
H1_3 H 0.369432 0.258775 0.638980
C5_3 C 0.4580(10) 0.1864(4) 0.5966(12)
C6_3 C 0.1636(10) 0.8824(4) 0.5099(11)
H2_3 H 0.119776 0.902560 0.484673
C7_3 C 0.1132(10) 0.2400(4) 0.8031(12)
H3_3 H 0.051041 0.241952 0.778054
C8_3 C 0.4461(11) 0.3354(4) 0.6837(13)
C9_3 C 0.2950(10) 0.6576(4) 0.6776(11)
H4_3 H 0.338646 0.678548 0.669129
C10_3 C 0.2047(10) 0.6620(4) 0.6369(12)
C11_3 C 0.4095(10) 0.1025(4) 0.5656(11)
C12_3 C 0.0477(10) 0.3294(4) 0.8070(11)
H5_3 H 0.009476 0.311356 0.766925
C13_3 C 0.2526(9) 0.8957(4) 0.5405(11)
C14_3 C 0.5768(10) 0.2426(4) 0.6142(13)
H6_3 H 0.618861 0.226819 0.660091
H7_3 H 0.595759 0.238454 0.553757
C15_3 C 0.0137(11) 0.1228(5) 0.6868(12)
C16_3 C 0.1397(10) 0.8423(4) 0.5155(12)
H9_3 H 0.079408 0.833977 0.492903
C17_3 C 0.2890(10) 0.8236(4) 0.5864(12)
H10_3 H 0.331549 0.803101 0.612588
C18_3 C 0.0457(10) 0.4411(4) 0.9041(11)
C19_3 C 0.0740(10) 0.3967(4) 0.8754(11)
C20_3 C 0.2550(10) 0.2590(4) 0.8746(13)
H11_3 H 0.300414 0.275066 0.846174
H12_3 H 0.267378 0.262909 0.941411
C21_3 C 0.3643(10) 0.4452(4) 0.8151(11)
C22_3 C 0.1706(10) 0.5941(4) 0.6921(11)
H13_3 H 0.129175 0.571370 0.694211
C23_3 C 0.3927(11) 0.4072(4) 0.7644(13)
C24_3 C 0.2202(10) 0.7375(4) 0.5910(12)
H14_3 H 0.282945 0.739946 0.613421
C25_3 C 0.1318(10) 0.3150(4) 0.8486(11)
C26_3 C 0.2560(10) 0.2117(4) 0.8492(12)
H15_3 H 0.272338 0.193703 0.903706
H16_3 H 0.298568 0.206072 0.805433
C27_3 C 0.5101(11) 0.3672(4) 0.7093(13)
H17_3 H 0.571117 0.364298 0.698975
C28_3 C 0.1641(11) 0.0950(4) 0.7230(13)
H18_3 H 0.204998 0.071869 0.725590
C29_3 C 0.2805(9) 0.9392(4) 0.5190(11)
C30_3 C 0.0198(10) 0.3703(4) 0.8245(11)
C31_3 C 0.1934(11) 0.1331(4) 0.7622(12)
H20_3 H 0.255208 0.137356 0.786576
C32_3 C 0.4819(11) 0.4019(4) 0.7488(13)
H21_3 H 0.524461 0.423758 0.766993
C33_3 C 0.1431(10) 0.6303(4) 0.6417(12)
H22_3 H 0.082798 0.632888 0.611360
C34_3 C 0.0779(10) 0.7073(4) 0.5482(13)
H23_3 H 0.062573 0.690323 0.491964
H24_3 H 0.034307 0.700677 0.590402
C35_3 C 0.1281(10) 0.1662(4) 0.7650(13)
C36_3 C 0.3815(10) 0.0571(4) 0.5349(12)
C37_3 C 0.1625(9) 0.3827(4) 0.9140(11)
H25_3 H 0.203070 0.401934 0.948171
C38_3 C 0.3718(10) 0.1706(4) 0.6136(11)
H26_3 H 0.330360 0.188637 0.637925
C39_3 C 0.0500(10) 0.0518(4) 0.6246(11)
C40_3 C 0.3601(11) 0.3389(4) 0.6913(13)
H27_3 H 0.318685 0.317176 0.669084
C41_3 C 0.5200(10) 0.1593(4) 0.5671(11)
H28_3 H 0.578428 0.169000 0.558753
C42_3 C 0.1891(10) 0.3424(4) 0.9025(11)
H29_3 H 0.246704 0.332905 0.931126
C43_3 C 0.3134(10) 0.8642(4) 0.5804(11)
H30_3 H 0.373701 0.872151 0.603806
C44_3 C 0.0787(11) 0.0902(4) 0.6814(12)
C45_3 C 0.0794(10) 0.7555(5) 0.5268(13)
H31_3 H 0.036644 0.771045 0.559888
H32_3 H 0.062554 0.760678 0.460810
C46_3 C 0.3500(10) 0.1284(4) 0.5936(11)
H33_3 H 0.291520 0.118146 0.600213
C47_3 C 0.5759(10) 0.2910(4) 0.6390(12)
H34_3 H 0.593188 0.308854 0.589541
H35_3 H 0.616720 0.297187 0.696232
C48_3 C 0.3186(10) 0.6233(4) 0.7284(12)
H36_3 H 0.379150 0.621097 0.758356
C49_3 C 0.0410(10) 0.1595(5) 0.7283(12)
C50_3 C 0.4944(10) 0.1167(4) 0.5497(11)
H38_3 H 0.534977 0.097597 0.527098
C51_3 C 0.3287(11) 0.3767(4) 0.7344(12)
H39_3 H 0.266965 0.380181 0.741524
O15_2 O 0.0371(6) 0.9445(3) 0.5951(7)
O3_2 O 0.9629(6) 0.4445(3) 0.9049(7)
H8_3 H 0.952143 0.118672 0.661477
H19_3 H 0.960774 0.379394 0.799407
H37_3 H 0.997722 0.181281 0.731931
H8_4 H 0.047857 0.618672 0.838523
H19_4 H 0.039226 0.879394 0.700593
H37_4 H 0.002278 0.681281 0.768069
H2_4 H 0.880224 0.402560 0.015327
H9_4 H 0.920592 0.333977 0.007097
H23_4 H 0.937427 0.190323 0.008036
H32_4 H 0.937446 0.260678 0.039190
N1_4 N 0.8287(8) 0.2688(3) 0.9427(9)
O6_4 O 0.6335(7) 0.0547(3) 0.6612(8)
O8_4 O 0.7738(7) 0.0283(3) 0.6866(8)
N6_4 N 0.8274(8) 0.1996(4) 0.9086(10)
C1_4 C 0.7986(10) 0.3120(4) 0.9460(12)
C2_4 C 0.7122(10) 0.0560(4) 0.6981(12)
C3_4 C 0.7417(10) 0.0909(4) 0.7607(12)
C6_4 C 0.8364(10) 0.3824(4) 0.9901(11)
C9_4 C 0.7050(10) 0.1576(4) 0.8224(11)
H4_4 H 0.661354 0.178548 0.830871
C10_4 C 0.7953(10) 0.1620(4) 0.8631(12)
C13_4 C 0.7474(9) 0.3957(4) 0.9595(11)
C16_4 C 0.8603(10) 0.3423(4) 0.9845(12)
C17_4 C 0.7110(10) 0.3236(4) 0.9136(12)
H10_4 H 0.668451 0.303101 0.887412
C22_4 C 0.8294(10) 0.0941(4) 0.8079(11)
H13_4 H 0.870825 0.071370 0.805789
C24_4 C 0.7798(10) 0.2375(4) 0.9090(12)
H14_4 H 0.717055 0.239946 0.886579
C29_4 C 0.7195(9) 0.4392(4) 0.9810(11)
C33_4 C 0.8569(10) 0.1303(4) 0.8583(12)
H22_4 H 0.917202 0.132888 0.888640
C34_4 C 0.9221(10) 0.2073(4) 0.9518(13)
H24_4 H 0.965693 0.200677 0.909598
C43_4 C 0.6866(10) 0.3642(4) 0.9196(11)
H30_4 H 0.626299 0.372151 0.896194
C45_4 C 0.9206(10) 0.2555(5) 0.9732(13)
H31_4 H 0.963356 0.271045 0.940112
C48_4 C 0.6814(10) 0.1233(4) 0.7716(12)
H36_4 H 0.620850 0.121097 0.741644
O1_4 O 0.8877(6) 0.5263(3) 0.8877(8)
N2_4 N 0.5129(9) 0.7285(3) 0.8863(10)
O10_4 O 0.5718(7) 0.9722(3) 0.6577(8)
N3_4 N 0.8368(8) 0.7725(4) 0.6614(10)
N4_4 N 0.8392(8) 0.7047(4) 0.6929(10)
N5_4 N 0.5184(9) 0.7971(3) 0.8506(10)
O12_4 O 0.7147(7) 0.9460(3) 0.6682(7)
C4_4 C 0.5678(11) 0.7612(4) 0.8650(12)
H1_4 H 0.630568 0.758775 0.861020
C5_4 C 0.5420(10) 0.6864(4) 0.9034(12)
C7_4 C 0.8868(10) 0.7400(4) 0.6969(12)
H3_4 H 0.948959 0.741952 0.721946
C8_4 C 0.5539(11) 0.8354(4) 0.8163(13)
C11_4 C 0.5905(10) 0.6025(4) 0.9344(11)
C12_4 C 0.9523(10) 0.8294(4) 0.6930(11)
H5_4 H 0.990524 0.811356 0.733075
C14_4 C 0.4232(10) 0.7426(4) 0.8858(13)
H6_4 H 0.381139 0.726819 0.839909
H7_4 H 0.404241 0.738454 0.946243
C15_4 C 0.9863(11) 0.6228(5) 0.8132(12)
C18_4 C 0.9543(10) 0.9411(4) 0.5959(11)
C19_4 C 0.9260(10) 0.8967(4) 0.6246(11)
C20_4 C 0.7450(10) 0.7590(4) 0.6254(13)
H11_4 H 0.699586 0.775066 0.653826
H12_4 H 0.732622 0.762909 0.558589
C21_4 C 0.6357(10) 0.9452(4) 0.6849(11)
C23_4 C 0.6073(11) 0.9072(4) 0.7356(13)
C25_4 C 0.8682(10) 0.8150(4) 0.6514(11)
C26_4 C 0.7440(10) 0.7117(4) 0.6508(12)
H15_4 H 0.727662 0.693703 0.596294
H16_4 H 0.701432 0.706072 0.694567
C27_4 C 0.4899(11) 0.8672(4) 0.7907(13)
H17_4 H 0.428883 0.864298 0.801025
C28_4 C 0.8359(11) 0.5950(4) 0.7770(13)
H18_4 H 0.795002 0.571869 0.774410
C30_4 C 0.9802(10) 0.8703(4) 0.6755(11)
C31_4 C 0.8066(11) 0.6331(4) 0.7378(12)
H20_4 H 0.744792 0.637356 0.713424
C32_4 C 0.5181(11) 0.9019(4) 0.7512(13)
H21_4 H 0.475539 0.923758 0.733007
C35_4 C 0.8719(10) 0.6662(4) 0.7350(13)
C36_4 C 0.6185(10) 0.5571(4) 0.9651(12)
C37_4 C 0.8375(9) 0.8827(4) 0.5860(11)
H25_4 H 0.796930 0.901934 0.551829
C38_4 C 0.6282(10) 0.6706(4) 0.8864(11)
H26_4 H 0.669640 0.688637 0.862075
C39_4 C 0.9500(10) 0.5518(4) 0.8754(11)
C40_4 C 0.6399(11) 0.8389(4) 0.8087(13)
H27_4 H 0.681315 0.817176 0.830916
C41_4 C 0.4800(10) 0.6593(4) 0.9329(11)
H28_4 H 0.421572 0.669000 0.941247
C42_4 C 0.8109(10) 0.8424(4) 0.5975(11)
H29_4 H 0.753296 0.832905 0.568874
C44_4 C 0.9213(11) 0.5902(4) 0.8186(12)
C46_4 C 0.6500(10) 0.6284(4) 0.9064(11)
H33_4 H 0.708480 0.618146 0.899787
C47_4 C 0.4241(10) 0.7910(4) 0.8610(12)
H34_4 H 0.406812 0.808854 0.910459
H35_4 H 0.383280 0.797187 0.803768
C49_4 C 0.9590(10) 0.6595(5) 0.7717(12)
C50_4 C 0.5056(10) 0.6167(4) 0.9503(11)
H38_4 H 0.465023 0.597597 0.972902
C51_4 C 0.6713(11) 0.8767(4) 0.7656(12)
H39_4 H 0.733035 0.880181 0.758476
F1 F 0.0936(6) 0.7528(3) 0.2440(8)
F2 F 0.2408(7) 0.7329(4) 0.2612(8)
F3 F 0.1513(10) 0.7140(4) 0.3673(11)
F4 F 0.1901(10) 0.7825(4) 0.3560(9)
B1 B 0.1693(13) 0.7440(7) 0.3066(18)
F1_2 F 0.9064(6) 0.2528(3) 0.2560(8)
F2_2 F 0.7592(7) 0.2329(4) 0.2388(8)
F3_2 F 0.8487(10) 0.2140(4) 0.1327(11)
F4_2 F 0.8099(10) 0.2825(4) 0.1440(9)
B1_2 B 0.8307(13) 0.2440(7) 0.1934(18)
F1_3 F 0.9064(6) 0.2472(3) 0.7560(8)
F2_3 F 0.7592(7) 0.2671(4) 0.7388(8)
F3_3 F 0.8487(10) 0.2860(4) 0.6327(11)
F4_3 F 0.8099(10) 0.2175(4) 0.6440(9)
B1_3 B 0.8307(13) 0.2560(7) 0.6934(18)
F1_4 F 0.0936(6) 0.7472(3) 0.7440(8)
F2_4 F 0.2408(7) 0.7671(4) 0.7612(8)
F3_4 F 0.1513(10) 0.7860(4) 0.8673(11)
F4_4 F 0.1901(10) 0.7175(4) 0.8560(9)
B1_4 B 0.1693(13) 0.7560(7) 0.8066(18)
F5 F 0.7702(6) 0.7466(3) 0.3561(9)
F6 F 0.9174(7) 0.7296(4) 0.3702(9)
F7 F 0.8698(9) 0.7826(4) 0.4485(10)
F8 F 0.8403(13) 0.7177(4) 0.4857(11)
B2 B 0.8480(17) 0.7446(7) 0.4128(16)
F5_2 F 0.2298(6) 0.2466(3) 0.1439(9)
F6_2 F 0.0826(7) 0.2296(4) 0.1298(9)
F7_2 F 0.1302(9) 0.2826(4) 0.0515(10)
F8_2 F 0.1597(13) 0.2177(4) 0.0143(11)
B2_2 B 0.1520(17) 0.2446(7) 0.0872(16)
F5_3 F 0.2298(6) 0.2534(3) 0.6439(9)
F6_3 F 0.0826(7) 0.2704(4) 0.6298(9)
F7_3 F 0.1302(9) 0.2174(4) 0.5515(10)
F8_3 F 0.1597(13) 0.2823(4) 0.5143(11)
B2_3 B 0.1520(17) 0.2554(7) 0.5872(16)
F5_4 F 0.7702(6) 0.7534(3) 0.8561(9)
F6_4 F 0.9174(7) 0.7704(4) 0.8702(9)
F7_4 F 0.8698(9) 0.7174(4) 0.9485(10)
F8_4 F 0.8403(13) 0.7823(4) 0.9857(11)
B2_4 B 0.8480(17) 0.7554(7) 0.9128(16)
B3 B 0.5104(5) 0.7656(3) 0.1248(8)
F9 F 0.5374(9) 0.7928(6) 0.1984(8)
F10 F 0.4165(5) 0.7688(5) 0.0986(11)
F11 F 0.5547(8) 0.7770(4) 0.0515(8)
F12 F 0.5328(11) 0.7237(4) 0.1505(15)
B3_2 B 0.4896(5) 0.2656(3) 0.3752(8)
F9_2 F 0.4626(9) 0.2928(6) 0.3016(8)
F10_2 F 0.5835(5) 0.2688(5) 0.4014(11)
F11_2 F 0.4453(8) 0.2770(4) 0.4485(8)
F12_2 F 0.4672(11) 0.2237(4) 0.3495(15)
B3_3 B 0.4896(5) 0.2344(3) 0.8752(8)
F9_3 F 0.4626(9) 0.2072(6) 0.8016(8)
F10_3 F 0.5835(5) 0.2312(5) 0.9014(11)
F11_3 F 0.4453(8) 0.2230(4) 0.9485(8)
F12_3 F 0.4672(11) 0.2763(4) 0.8495(15)
B3_4 B 0.5104(5) 0.7344(3) 0.6248(8)
F9_4 F 0.5374(9) 0.7072(6) 0.6984(8)
F10_4 F 0.4165(5) 0.7312(5) 0.5986(11)
F11_4 F 0.5547(8) 0.7230(4) 0.5515(8)
F12_4 F 0.5328(11) 0.7763(4) 0.6505(15)
loop_
_geom_bond_atom_site_label_1
_geom_bond_atom_site_label_2
_geom_bond_site_symmetry_1
_geom_bond_site_symmetry_2
Cu8 O3 1_555 1_555
Cu9 O7 1_555 1_555
O13 Cu2 1_555 1_555
O15 Cu2 1_555 1_555
O19 Cu2 1_555 1_555
Cu1 O6 1_555 1_555
Cu3 O5 1_555 1_555
O1 C39 1_555 1_555
O13 C29 1_555 1_555
O4 C36 1_555 1_555
O5 C18 1_555 1_555
N1 C1 1_555 1_555
O6 C2 1_555 1_555
N2 C4 1_555 1_555
O8 Cu3 1_555 1_555
O9 C36 1_555 1_555
O10 Cu1 1_555 1_555
N3 C7 1_555 1_555
N4 C7 1_555 1_555
N5 C4 1_555 1_555
N6 C10 1_555 1_555
O11 C29 1_555 1_555
C1 C16 1_555 1_555
C2 O8 1_555 1_555
O12 Cu3 1_555 1_555
C3 C2 1_555 1_555
C4 H1 1_555 1_555
C5 N2 1_555 1_555
C6 H2 1_555 1_555
C7 H3 1_555 1_555
C8 N5 1_555 1_555
C9 H4 1_555 1_555
C10 C9 1_555 1_555
C11 C36 1_555 1_555
C12 H5 1_555 1_555
C13 C6 1_555 1_555
C14 N2 1_555 1_555
H6 C14 1_555 1_555
H7 C14 1_555 1_555
C16 C6 1_555 1_555
H9 C16 1_555 1_555
C17 C1 1_555 1_555
H10 C17 1_555 1_555
C18 C19 1_555 1_555
C19 C30 1_555 1_555
C20 N3 1_555 1_555
H11 C20 1_555 1_555
H12 C20 1_555 1_555
C21 O10 1_555 1_555
C22 C3 1_555 1_555
H13 C22 1_555 1_555
C23 C21 1_555 1_555
C24 N1 1_555 1_555
H14 C24 1_555 1_555
C25 N3 1_555 1_555
C26 N4 1_555 1_555
H15 C26 1_555 1_555
H16 C26 1_555 1_555
C27 C8 1_555 1_555
H17 C27 1_555 1_555
C28 H18 1_555 1_555
C29 C13 1_555 1_555
C30 C12 1_555 1_555
C31 C28 1_555 1_555
H20 C31 1_555 1_555
C32 C23 1_555 1_555
H21 C32 1_555 1_555
C33 C10 1_555 1_555
H22 C33 1_555 1_555
C34 N6 1_555 1_555
H23 C34 1_555 1_555
H24 C34 1_555 1_555
C35 N4 1_555 1_555
C37 C19 1_555 1_555
H25 C37 1_555 1_555
C38 C5 1_555 1_555
H26 C38 1_555 1_555
C39 C44 1_555 1_555
C40 C8 1_555 1_555
H27 C40 1_555 1_555
C41 C5 1_555 1_555
H28 C41 1_555 1_555
C42 C25 1_555 1_555
H29 C42 1_555 1_555
C43 C13 1_555 1_555
H30 C43 1_555 1_555
C44 C15 1_555 1_555
C45 N1 1_555 1_555
H31 C45 1_555 1_555
H32 C45 1_555 1_555
C46 C11 1_555 1_555
H33 C46 1_555 1_555
C47 N5 1_555 1_555
H34 C47 1_555 1_555
H35 C47 1_555 1_555
C48 C3 1_555 1_555
H36 C48 1_555 1_555
C49 C15 1_555 1_555
C50 C11 1_555 1_555
H38 C50 1_555 1_555
C51 C23 1_555 1_555
H39 C51 1_555 1_555
Cu4 O4 1_555 1_555
Cu6 O11 1_555 1_555
Cu12 O9 1_555 1_555
O14 Cu3 1_555 1_555
O16 Cu1 1_555 1_555
N6 C24 1_555 1_555
O12 C21 1_555 1_555
C9 C48 1_555 1_555
C12 C25 1_555 1_555
C14 C47 1_555 1_555
C17 C43 1_555 1_555
C20 C26 1_555 1_555
C22 C33 1_555 1_555
C27 C32 1_555 1_555
C28 C44 1_555 1_555
C31 C35 1_555 1_555
C34 C45 1_555 1_555
C35 C49 1_555 1_555
C37 C42 1_555 1_555
C38 C46 1_555 1_555
C40 C51 1_555 1_555
C41 C50 1_555 1_555
Cu12 O18 1_555 1_555
Cu8 O1_2 1_555 1_555
Cu3_2 O5_2 1_555 1_555
O1_2 C39_2 1_555 1_555
O16 C36_2 1_555 1_555
O5_2 C18_2 1_555 1_555
N2_2 C4_2 1_555 1_555
O9_2 C36_2 1_555 1_555
N3_2 C7_2 1_555 1_555
N4_2 C7_2 1_555 1_555
N5_2 C4_2 1_555 1_555
O12_2 Cu3_2 1_555 1_555
C4_2 H1_2 1_555 1_555
C5_2 N2_2 1_555 1_555
C7_2 H3_2 1_555 1_555
C8_2 N5_2 1_555 1_555
C11_2 C36_2 1_555 1_555
C12_2 H5_2 1_555 1_555
C14_2 N2_2 1_555 1_555
H6_2 C14_2 1_555 1_555
H7_2 C14_2 1_555 1_555
C18_2 C19_2 1_555 1_555
C19_2 C30_2 1_555 1_555
C20_2 N3_2 1_555 1_555
H11_2 C20_2 1_555 1_555
H12_2 C20_2 1_555 1_555
C21_2 O10_2 1_555 1_555
C23_2 C21_2 1_555 1_555
C25_2 N3_2 1_555 1_555
C26_2 N4_2 1_555 1_555
H15_2 C26_2 1_555 1_555
H16_2 C26_2 1_555 1_555
C27_2 C8_2 1_555 1_555
H17_2 C27_2 1_555 1_555
C28_2 H18_2 1_555 1_555
C30_2 C12_2 1_555 1_555
C31_2 C28_2 1_555 1_555
H20_2 C31_2 1_555 1_555
C32_2 C23_2 1_555 1_555
H21_2 C32_2 1_555 1_555
C35_2 N4_2 1_555 1_555
C37_2 C19_2 1_555 1_555
H25_2 C37_2 1_555 1_555
C38_2 C5_2 1_555 1_555
H26_2 C38_2 1_555 1_555
C39_2 C44_2 1_555 1_555
C40_2 C8_2 1_555 1_555
H27_2 C40_2 1_555 1_555
C41_2 C5_2 1_555 1_555
H28_2 C41_2 1_555 1_555
C42_2 C25_2 1_555 1_555
H29_2 C42_2 1_555 1_555
C44_2 C15_2 1_555 1_555
C46_2 C11_2 1_555 1_555
H33_2 C46_2 1_555 1_555
C47_2 N5_2 1_555 1_555
H34_2 C47_2 1_555 1_555
H35_2 C47_2 1_555 1_555
C49_2 C15_2 1_555 1_555
C50_2 C11_2 1_555 1_555
H38_2 C50_2 1_555 1_555
C51_2 C23_2 1_555 1_555
H39_2 C51_2 1_555 1_555
O20_2 Cu3_2 1_555 1_555
O12_2 C21_2 1_555 1_555
C12_2 C25_2 1_555 1_555
C14_2 C47_2 1_555 1_555
C20_2 C26_2 1_555 1_555
C27_2 C32_2 1_555 1_555
C28_2 C44_2 1_555 1_555
C31_2 C35_2 1_555 1_555
C35_2 C49_2 1_555 1_555
C37_2 C42_2 1_555 1_555
C38_2 C46_2 1_555 1_555
C40_2 C51_2 1_555 1_555
C41_2 C50_2 1_555 1_555
Cu12_2 O13_2 1_555 1_555
Cu12_2 O18_2 1_555 1_555
Cu4 O6_2 1_555 1_555
N1_2 C1_2 1_555 1_555
O6_2 C2_2 1_555 1_555
N6_2 C10_2 1_555 1_555
O11_2 C29_2 1_555 1_555
C1_2 C16_2 1_555 1_555
C2_2 O8_2 1_555 1_555
C3_2 C2_2 1_555 1_555
C9_2 H4_2 1_555 1_555
C10_2 C9_2 1_555 1_555
C13_2 C6_2 1_555 1_555
C16_2 C6_2 1_555 1_555
C17_2 C1_2 1_555 1_555
H10_2 C17_2 1_555 1_555
C22_2 C3_2 1_555 1_555
H13_2 C22_2 1_555 1_555
C24_2 N1_2 1_555 1_555
H14_2 C24_2 1_555 1_555
C29_2 C13_2 1_555 1_555
C33_2 C10_2 1_555 1_555
H22_2 C33_2 1_555 1_555
C34_2 N6_2 1_555 1_555
H24_2 C34_2 1_555 1_555
C43_2 C13_2 1_555 1_555
H30_2 C43_2 1_555 1_555
C45_2 N1_2 1_555 1_555
H31_2 C45_2 1_555 1_555
C48_2 C3_2 1_555 1_555
H36_2 C48_2 1_555 1_555
O21_2 Cu4 1_555 1_555
N6_2 C24_2 1_555 1_555
C9_2 C48_2 1_555 1_555
C17_2 C43_2 1_555 1_555
C22_2 C33_2 1_555 1_555
C34_2 C45_2 1_555 1_555
Cu9 O14_2 1_555 1_555
Cu6_2 O6_3 1_555 1_555
O1_3 C39_3 1_555 1_555
O14_2 C29_3 1_555 1_555
O17_2 C36_3 1_555 1_555
O18_2 C18_3 1_555 1_555
N1_3 C1_3 1_555 1_555
O6_3 C2_3 1_555 1_555
N2_3 C4_3 1_555 1_555
O8_3 Cu12_2 1_555 1_555
O20_2 C36_3 1_555 1_555
O10_3 Cu6_2 1_555 1_555
N3_3 C7_3 1_555 1_555
N4_3 C7_3 1_555 1_555
N5_3 C4_3 1_555 1_555
N6_3 C10_3 1_555 1_555
O21_2 C29_3 1_555 1_555
C1_3 C16_3 1_555 1_555
C2_3 O8_3 1_555 1_555
O12_3 Cu12_2 1_555 1_555
C3_3 C2_3 1_555 1_555
C4_3 H1_3 1_555 1_555
C5_3 N2_3 1_555 1_555
C6_3 H2_3 1_555 1_555
C7_3 H3_3 1_555 1_555
C8_3 N5_3 1_555 1_555
C9_3 H4_3 1_555 1_555
C10_3 C9_3 1_555 1_555
C11_3 C36_3 1_555 1_555
C12_3 H5_3 1_555 1_555
C13_3 C6_3 1_555 1_555
C14_3 N2_3 1_555 1_555
H6_3 C14_3 1_555 1_555
H7_3 C14_3 1_555 1_555
C16_3 C6_3 1_555 1_555
H9_3 C16_3 1_555 1_555
C17_3 C1_3 1_555 1_555
H10_3 C17_3 1_555 1_555
C18_3 C19_3 1_555 1_555
C19_3 C30_3 1_555 1_555
C20_3 N3_3 1_555 1_555
H11_3 C20_3 1_555 1_555
H12_3 C20_3 1_555 1_555
C21_3 O10_3 1_555 1_555
C22_3 C3_3 1_555 1_555
H13_3 C22_3 1_555 1_555
C23_3 C21_3 1_555 1_555
C24_3 N1_3 1_555 1_555
H14_3 C24_3 1_555 1_555
C25_3 N3_3 1_555 1_555
C26_3 N4_3 1_555 1_555
H15_3 C26_3 1_555 1_555
H16_3 C26_3 1_555 1_555
C27_3 C8_3 1_555 1_555
H17_3 C27_3 1_555 1_555
C28_3 H18_3 1_555 1_555
C29_3 C13_3 1_555 1_555
C30_3 C12_3 1_555 1_555
C31_3 C28_3 1_555 1_555
H20_3 C31_3 1_555 1_555
C32_3 C23_3 1_555 1_555
H21_3 C32_3 1_555 1_555
C33_3 C10_3 1_555 1_555
H22_3 C33_3 1_555 1_555
C34_3 N6_3 1_555 1_555
H23_3 C34_3 1_555 1_555
H24_3 C34_3 1_555 1_555
C35_3 N4_3 1_555 1_555
C37_3 C19_3 1_555 1_555
H25_3 C37_3 1_555 1_555
C38_3 C5_3 1_555 1_555
H26_3 C38_3 1_555 1_555
C39_3 C44_3 1_555 1_555
C40_3 C8_3 1_555 1_555
H27_3 C40_3 1_555 1_555
C41_3 C5_3 1_555 1_555
H28_3 C41_3 1_555 1_555
C42_3 C25_3 1_555 1_555
H29_3 C42_3 1_555 1_555
C43_3 C13_3 1_555 1_555
H30_3 C43_3 1_555 1_555
C44_3 C15_3 1_555 1_555
C45_3 N1_3 1_555 1_555
H31_3 C45_3 1_555 1_555
H32_3 C45_3 1_555 1_555
C46_3 C11_3 1_555 1_555
H33_3 C46_3 1_555 1_555
C47_3 N5_3 1_555 1_555
H34_3 C47_3 1_555 1_555
H35_3 C47_3 1_555 1_555
C48_3 C3_3 1_555 1_555
H36_3 C48_3 1_555 1_555
C49_3 C15_3 1_555 1_555
C50_3 C11_3 1_555 1_555
H38_3 C50_3 1_555 1_555
C51_3 C23_3 1_555 1_555
H39_3 C51_3 1_555 1_555
Cu6 O17_2 1_555 1_555
O17 Cu6_2 1_555 1_555
N6_3 C24_3 1_555 1_555
O12_3 C21_3 1_555 1_555
C9_3 C48_3 1_555 1_555
C12_3 C25_3 1_555 1_555
C14_3 C47_3 1_555 1_555
C17_3 C43_3 1_555 1_555
C20_3 C26_3 1_555 1_555
C22_3 C33_3 1_555 1_555
C27_3 C32_3 1_555 1_555
C28_3 C44_3 1_555 1_555
C31_3 C35_3 1_555 1_555
C34_3 C45_3 1_555 1_555
C35_3 C49_3 1_555 1_555
C37_3 C42_3 1_555 1_555
C38_3 C46_3 1_555 1_555
C40_3 C51_3 1_555 1_555
C41_3 C50_3 1_555 1_555
O15_2 Cu9 1_555 1_555
Cu10 O3_2 1_555 1_555
Cu6 O6_4 1_555 1_555
N1_4 C1_4 1_555 1_555
O6_4 C2_4 1_555 1_555
N6_4 C10_4 1_555 1_555
O21 C29_4 1_555 1_555
C1_4 C16_4 1_555 1_555
C2_4 O8_4 1_555 1_555
C3_4 C2_4 1_555 1_555
C9_4 H4_4 1_555 1_555
C10_4 C9_4 1_555 1_555
C13_4 C6_4 1_555 1_555
C16_4 C6_4 1_555 1_555
C17_4 C1_4 1_555 1_555
H10_4 C17_4 1_555 1_555
C22_4 C3_4 1_555 1_555
H13_4 C22_4 1_555 1_555
C24_4 N1_4 1_555 1_555
H14_4 C24_4 1_555 1_555
C29_4 C13_4 1_555 1_555
C33_4 C10_4 1_555 1_555
H22_4 C33_4 1_555 1_555
C34_4 N6_4 1_555 1_555
H24_4 C34_4 1_555 1_555
C43_4 C13_4 1_555 1_555
H30_4 C43_4 1_555 1_555
C45_4 N1_4 1_555 1_555
H31_4 C45_4 1_555 1_555
C48_4 C3_4 1_555 1_555
H36_4 C48_4 1_555 1_555
N6_4 C24_4 1_555 1_555
C9_4 C48_4 1_555 1_555
C17_4 C43_4 1_555 1_555
C22_4 C33_4 1_555 1_555
C34_4 C45_4 1_555 1_555
Cu10 O1_4 1_555 1_555
O1_4 C39_4 1_555 1_555
O17 C36_4 1_555 1_555
O18 C18_4 1_555 1_555
N2_4 C4_4 1_555 1_555
O20 C36_4 1_555 1_555
N3_4 C7_4 1_555 1_555
N4_4 C7_4 1_555 1_555
N5_4 C4_4 1_555 1_555
O12_4 Cu12 1_555 1_555
C4_4 H1_4 1_555 1_555
C5_4 N2_4 1_555 1_555
C7_4 H3_4 1_555 1_555
C8_4 N5_4 1_555 1_555
C11_4 C36_4 1_555 1_555
C12_4 H5_4 1_555 1_555
C14_4 N2_4 1_555 1_555
H6_4 C14_4 1_555 1_555
H7_4 C14_4 1_555 1_555
C18_4 C19_4 1_555 1_555
C19_4 C30_4 1_555 1_555
C20_4 N3_4 1_555 1_555
H11_4 C20_4 1_555 1_555
H12_4 C20_4 1_555 1_555
C21_4 O10_4 1_555 1_555
C23_4 C21_4 1_555 1_555
C25_4 N3_4 1_555 1_555
C26_4 N4_4 1_555 1_555
H15_4 C26_4 1_555 1_555
H16_4 C26_4 1_555 1_555
C27_4 C8_4 1_555 1_555
H17_4 C27_4 1_555 1_555
C28_4 H18_4 1_555 1_555
C30_4 C12_4 1_555 1_555
C31_4 C28_4 1_555 1_555
H20_4 C31_4 1_555 1_555
C32_4 C23_4 1_555 1_555
H21_4 C32_4 1_555 1_555
C35_4 N4_4 1_555 1_555
C37_4 C19_4 1_555 1_555
H25_4 C37_4 1_555 1_555
C38_4 C5_4 1_555 1_555
H26_4 C38_4 1_555 1_555
C39_4 C44_4 1_555 1_555
C40_4 C8_4 1_555 1_555
H27_4 C40_4 1_555 1_555
C41_4 C5_4 1_555 1_555
H28_4 C41_4 1_555 1_555
C42_4 C25_4 1_555 1_555
H29_4 C42_4 1_555 1_555
C44_4 C15_4 1_555 1_555
C46_4 C11_4 1_555 1_555
H33_4 C46_4 1_555 1_555
C47_4 N5_4 1_555 1_555
H34_4 C47_4 1_555 1_555
H35_4 C47_4 1_555 1_555
C49_4 C15_4 1_555 1_555
C50_4 C11_4 1_555 1_555
H38_4 C50_4 1_555 1_555
C51_4 C23_4 1_555 1_555
H39_4 C51_4 1_555 1_555
O12_4 C21_4 1_555 1_555
C12_4 C25_4 1_555 1_555
C14_4 C47_4 1_555 1_555
C20_4 C26_4 1_555 1_555
C27_4 C32_4 1_555 1_555
C28_4 C44_4 1_555 1_555
C31_4 C35_4 1_555 1_555
C35_4 C49_4 1_555 1_555
C37_4 C42_4 1_555 1_555
C38_4 C46_4 1_555 1_555
C40_4 C51_4 1_555 1_555
C41_4 C50_4 1_555 1_555
F1 B1 1_555 1_555
F2 B1 1_555 1_555
F3 B1 1_555 1_555
F4 B1 1_555 1_555
F1_2 B1_2 1_555 1_555
F2_2 B1_2 1_555 1_555
F3_2 B1_2 1_555 1_555
F4_2 B1_2 1_555 1_555
F1_3 B1_3 1_555 1_555
F2_3 B1_3 1_555 1_555
F3_3 B1_3 1_555 1_555
F4_3 B1_3 1_555 1_555
F1_4 B1_4 1_555 1_555
F2_4 B1_4 1_555 1_555
F3_4 B1_4 1_555 1_555
F4_4 B1_4 1_555 1_555
F5 B2 1_555 1_555
F6 B2 1_555 1_555
F7 B2 1_555 1_555
F8 B2 1_555 1_555
F5_2 B2_2 1_555 1_555
F6_2 B2_2 1_555 1_555
F7_2 B2_2 1_555 1_555
F8_2 B2_2 1_555 1_555
F5_3 B2_3 1_555 1_555
F6_3 B2_3 1_555 1_555
F7_3 B2_3 1_555 1_555
F8_3 B2_3 1_555 1_555
F5_4 B2_4 1_555 1_555
F6_4 B2_4 1_555 1_555
F7_4 B2_4 1_555 1_555
F8_4 B2_4 1_555 1_555
B3 F9 1_555 1_555
F10 B3 1_555 1_555
F11 B3 1_555 1_555
F12 B3 1_555 1_555
B3_2 F9_2 1_555 1_555
F10_2 B3_2 1_555 1_555
F11_2 B3_2 1_555 1_555
F12_2 B3_2 1_555 1_555
B3_3 F9_3 1_555 1_555
F10_3 B3_3 1_555 1_555
F11_3 B3_3 1_555 1_555
F12_3 B3_3 1_555 1_555
B3_4 F9_4 1_555 1_555
F10_4 B3_4 1_555 1_555
F11_4 B3_4 1_555 1_555
F12_4 B3_4 1_555 1_555

#END
