
###############################################################################
#
# This file contains modified crystal structure data generated from the
# MOF subset of the Cambridge Structural Database (CSD) v543 
# hosted by the Cambridge Crystallographic Data Centre (CCDC).
#
# This work is licensed under the Creative Commons
# Attribution-NonCommercial-ShareAlike 4.0 International License.
# To view a copy of this license, visit
# http://creativecommons.org/licenses/by-nc-sa/4.0/
# or send a letter to
# Creative Commons, PO Box 1866, Mountain View, CA 94042, USA.
#
# CIF created using the CSD Python API on 29 September 2022
# The structure has been converted into the P1 space group
# The structure has a 3D framework
# The original CSD entry WEBKOD is in the triclinic crystal system
# The framework has been calculated to contain at least 10.0% void space
# The void calculation uses a probe of radius 1.32A, grid spacing 0.4
# The framework is charged, counterions have been retained in the structure
# H atom positions have been added when not included in the experimental data
#
###############################################################################

data_WEBKOD
_chemical_formula_moiety         '(C64 H50 Cd6 N10 O22 2+)n'
_symmetry_cell_setting           triclinic
_symmetry_space_group_name_H-M   'P 1'
_symmetry_Int_Tables_number      1
_space_group_name_Hall           'P 1'
loop_
_symmetry_equiv_pos_site_id
_symmetry_equiv_pos_as_xyz
1 x,y,z
_cell_length_a                   12.0495(2)
_cell_length_b                   12.2773(2)
_cell_length_c                   19.1028(4)
_cell_angle_alpha                91.6690(10)
_cell_angle_beta                 96.8500(10)
_cell_angle_gamma                117.9450(10)
_cell_volume                     2466.97
loop_
_atom_site_label
_atom_site_type_symbol
_atom_site_fract_x
_atom_site_fract_y
_atom_site_fract_z
C18 C 0.0383(14) 0.5991(14) 0.2383(9)
H9 H 0.1043 0.6653 0.2195
N2 N 0.0596(12) 0.5086(12) 0.2621(7)
Cd6 Cd 0.23089(9) 0.49767(8) 0.22146(5)
C15 C 0.4877(14) 0.0212(13) 0.2167(9)
H6 H 0.5426 0.0185 0.1856
C16 C 0.4913(15) 0.1349(14) 0.2345(8)
H7 H 0.5463 0.2063 0.2138
C17 C 0.3387(18) 0.0376(13) 0.3077(8)
H8 H 0.2854 0.0407 0.3397
N1 N 0.4177(12) 0.1459(11) 0.2809(6)
Cd5 Cd 0.41141(8) 0.33031(8) 0.30188(4)
Cd3 Cd 0.57345(8) 0.67823(8) 0.19801(4)
O1 O 0.3830(9) 0.3136(9) 0.1800(4)
O2 O 0.3867(9) 0.5109(8) 0.3197(4)
O3 O 0.6257(9) 0.4369(9) 0.3062(5)
O4 O 0.3814(8) 0.4917(8) 0.1578(4)
O5 O 0.4745(10) 0.7947(9) 0.1819(6)
O6 O 0.6757(9) 0.5641(9) 0.2189(5)
O7 O 0.2027(9) 0.2121(9) 0.3066(5)
O8 O 0.5601(9) 0.6861(8) 0.3159(5)
O9 O 0.1219(10) 0.2933(9) 0.2261(6)
O10 O 0.3265(10) 0.7055(9) 0.2525(6)
C1 C 0.8230(13) 0.5056(12) 0.2656(7)
C2 C 0.6990(13) 0.5046(11) 0.2625(7)
C3 C 0.3270(13) 0.4113(12) 0.0125(7)
H1 H 0.2869 0.4572 0.0268
C4 C 0.3821(12) 0.3618(11) 0.0630(7)
C5 C 0.3816(12) 0.3915(13) 0.1398(6)
C6 C 0.1178(11) 0.2098(11) 0.2647(7)
C7 C 0.4832(12) 0.6112(11) 0.3467(7)
C9 C 0.9240(13) 0.6018(12) 0.2396(8)
H3 H 0.9147 0.6695 0.2226
C11 C 0.4047(13) 0.7969(11) 0.2245(8)
C12 C 0.8485(15) 0.4156(14) 0.2941(9)
H4 H 0.7861 0.3527 0.3168
C13 C 0.4084(14) 0.9161(12) 0.2426(7)
C14 C 0.3332(15) 0.9268(14) 0.2906(9)
H5 H 0.2779 0.8556 0.3114
C19 C 0.9609(15) 0.4149(16) 0.2904(11)
H10 H 0.9719 0.3483 0.3078
C24 C 0.5034(13) 0.6345(12) 0.4269(6)
C25 C 0.6256(12) 0.7128(12) 0.4656(7)
H15 H 0.6951 0.7577 0.4410
C26 C 0.4023(13) 0.5767(11) 0.4655(7)
H16 H 0.3178 0.5255 0.4424
C27 C 0.4312(13) 0.5978(13) 0.5398(6)
H17 H 0.3640 0.5572 0.5666
N4 N 0.5470(10) 0.6711(10) 0.5748(5)
C28 C 0.6445(13) 0.7245(13) 0.5380(7)
H18 H 0.7284 0.7713 0.5628
C29 C 0.4269(14) 0.2868(12) 0.0396(6)
H19 H 0.4550 0.2449 0.0723
O11 O 0.134(2) 0.511(3) 0.1075(8)
C31 C 0.126(6) 0.606(4) 0.007(2)
C32 C 0.186(3) 0.606(3) 0.0787(17)
N6 N 0.6116(11) 0.6776(11) 0.0816(6)
N9 N 0.7626(11) 0.8655(11) 0.2269(6)
N10 N 0.4530(10) 0.3289(10) 0.4252(5)
Cd8 Cd 0.58859(8) 0.66969(8) 0.69812(4)
H21 H 0.282558 0.623744 0.0753911
H22 H 0.188894 0.681057 0.11202
H23 H 0.0295717 0.59007 0.00872734
C8 C 0.3332(13) 0.3906(12) 0.9395(7)
H2 H 0.2982 0.4246 0.9050
C30 C 0.4319(17) 0.2711(13) 0.9675(7)
H20 H 0.4679 0.2216 0.9528
N5 N 0.3884(11) 0.3224(11) 0.9184(6)
Cd4 Cd 0.42655(8) 0.32177(8) 0.80199(4)
H24 H 0.18076 0.695172 0.987077
H25 H 0.123236 0.532758 0.972099
C20 C 0.9702(14) 0.9899(12) 0.2921(8)
C22 C 0.8561(14) 0.8838(13) 0.2769(7)
H13 H 0.8434 0.8175 0.3050
C23 C 0.7825(14) 0.9621(14) 0.1872(8)
H14 H 0.7180 0.9518 0.1498
C20_2 C 0.0298(14) 0.0101(12) 0.7079(8)
C22_2 C 0.1439(14) 0.1162(13) 0.7231(7)
H13_2 H 0.1566 0.1825 0.6950
C23_2 C 0.2175(14) 0.0379(14) 0.8128(8)
H14_2 H 0.2820 0.0482 0.8502
N3 N 0.2374(11) 0.1345(11) 0.7731(6)
C8_2 C 0.6668(13) 0.6094(12) 0.0605(7)
H2_2 H 0.7018 0.5754 0.0950
C30_2 C 0.5681(17) 0.7289(13) 0.0325(7)
H20_2 H 0.5321 0.7784 0.0472
H24_2 H 0.81924 0.304828 0.0129231
H25_2 H 0.876764 0.467242 0.0279015
Cd1 Cd 0.76911(9) 0.50233(8) 0.77854(5)
O1_2 O 0.6170(9) 0.6864(9) 0.8200(4)
O2_2 O 0.6133(9) 0.4891(8) 0.6803(4)
O3_2 O 0.3743(9) 0.5631(9) 0.6938(5)
O4_2 O 0.6186(8) 0.5083(8) 0.8422(4)
O5_2 O 0.5255(10) 0.2053(9) 0.8181(6)
O6_2 O 0.3243(9) 0.4359(9) 0.7811(5)
O7_2 O 0.7973(9) 0.7879(9) 0.6934(5)
O8_2 O 0.4399(9) 0.3139(8) 0.6841(5)
O9_2 O 0.8781(10) 0.7067(9) 0.7739(6)
O10_2 O 0.6735(10) 0.2945(9) 0.7475(6)
C1_2 C 0.1770(13) 0.4944(12) 0.7344(7)
C2_2 C 0.3010(13) 0.4954(11) 0.7375(7)
C3_2 C 0.6730(13) 0.5887(12) 0.9875(7)
H1_2 H 0.7131 0.5428 0.9732
C4_2 C 0.6179(12) 0.6382(11) 0.9370(7)
C5_2 C 0.6184(12) 0.6085(13) 0.8602(6)
C6_2 C 0.8822(11) 0.7902(11) 0.7353(7)
C7_2 C 0.5168(12) 0.3888(11) 0.6533(7)
C9_2 C 0.0760(13) 0.3982(12) 0.7604(8)
H3_2 H 0.0853 0.3305 0.7774
C11_2 C 0.5953(13) 0.2031(11) 0.7755(8)
C12_2 C 0.1515(15) 0.5844(14) 0.7059(9)
H4_2 H 0.2139 0.6473 0.6832
C13_2 C 0.5916(14) 0.0839(12) 0.7574(7)
C14_2 C 0.6668(15) 0.0732(14) 0.7094(9)
H5_2 H 0.7221 0.1444 0.6886
C19_2 C 0.0391(15) 0.5851(16) 0.7096(11)
H10_2 H 0.0281 0.6517 0.6922
C24_2 C 0.4966(13) 0.3655(12) 0.5731(6)
C25_2 C 0.3744(12) 0.2872(12) 0.5344(7)
H15_2 H 0.3049 0.2423 0.5590
C26_2 C 0.5977(13) 0.4233(11) 0.5345(7)
H16_2 H 0.6822 0.4745 0.5576
C27_2 C 0.5688(13) 0.4022(13) 0.4602(6)
H17_2 H 0.6360 0.4428 0.4334
C28_2 C 0.3555(13) 0.2755(13) 0.4620(7)
H18_2 H 0.2716 0.2287 0.4372
C29_2 C 0.5731(14) 0.7132(12) 0.9604(6)
H19_2 H 0.5450 0.7551 0.9277
O11_2 O 0.866(2) 0.489(3) 0.8925(8)
C31_2 C 0.874(6) 0.394(4) 0.993(2)
C32_2 C 0.814(3) 0.394(3) 0.9213(17)
N7 N 0.5823(12) 0.8541(11) 0.7191(6)
N8 N 0.9404(12) 0.4914(12) 0.7379(7)
H21_2 H 0.717442 0.376256 0.924609
H22_2 H 0.811106 0.318943 0.88798
H23_2 H 0.970428 0.40993 0.991273
C15_2 C 0.5123(14) 0.9788(13) 0.7833(9)
H6_2 H 0.4574 0.9815 0.8144
C16_2 C 0.5087(15) 0.8651(14) 0.7655(8)
H7_2 H 0.4537 0.7937 0.7862
C17_2 C 0.6613(18) 0.9624(13) 0.6923(8)
H8_2 H 0.7146 0.9593 0.6603
C18_2 C 0.9617(14) 0.4009(14) 0.7617(9)
H9_2 H 0.8957 0.3347 0.7805
H11 H 0.0332 0.9956 0.3293
C10 C 0.9922(11) 0.0893(11) 0.2521(7)
C21 C 0.8933(14) 0.0745(13) 0.1995(9)
H12 H 0.9021 0.1411 0.1725
C10_2 C 0.0078(11) 0.9107(11) 0.7479(7)
C21_2 C 0.1067(14) 0.9255(13) 0.8005(9)
H12_2 H 0.0979 0.8589 0.8275
H11_2 H 0.9668 0.0044 0.6707
loop_
_geom_bond_atom_site_label_1
_geom_bond_atom_site_label_2
_geom_bond_site_symmetry_1
_geom_bond_site_symmetry_2
H9 C18 1_555 1_555
N2 C18 1_555 1_555
Cd6 N2 1_555 1_555
H6 C15 1_555 1_555
C16 C15 1_555 1_555
H7 C16 1_555 1_555
H8 C17 1_555 1_555
N1 C16 1_555 1_555
Cd5 N1 1_555 1_555
C17 N1 1_555 1_555
Cd6 O2 1_555 1_555
Cd5 O1 1_555 1_555
Cd3 O4 1_555 1_555
O1 C5 1_555 1_555
O2 Cd5 1_555 1_555
O3 Cd5 1_555 1_555
O4 Cd6 1_555 1_555
O5 Cd3 1_555 1_555
O6 Cd3 1_555 1_555
O7 Cd5 1_555 1_555
O8 Cd3 1_555 1_555
O9 Cd6 1_555 1_555
O10 Cd6 1_555 1_555
C1 C2 1_555 1_555
C2 O3 1_555 1_555
C3 H1 1_555 1_555
C4 C3 1_555 1_555
C5 O4 1_555 1_555
C6 O7 1_555 1_555
C7 O2 1_555 1_555
C9 C1 1_555 1_555
H3 C9 1_555 1_555
C11 O5 1_555 1_555
C12 C1 1_555 1_555
H4 C12 1_555 1_555
C13 C11 1_555 1_555
C14 C13 1_555 1_555
H5 C14 1_555 1_555
C19 C12 1_555 1_555
H10 C19 1_555 1_555
C24 C7 1_555 1_555
C25 C24 1_555 1_555
H15 C25 1_555 1_555
C26 C24 1_555 1_555
H16 C26 1_555 1_555
C27 C26 1_555 1_555
H17 C27 1_555 1_555
N4 C27 1_555 1_555
C28 C25 1_555 1_555
H18 C28 1_555 1_555
C29 C4 1_555 1_555
H19 C29 1_555 1_555
O11 Cd6 1_555 1_555
C31 C32 1_555 1_555
C32 O11 1_555 1_555
N6 Cd3 1_555 1_555
N9 Cd3 1_555 1_555
N10 Cd5 1_555 1_555
Cd8 N4 1_555 1_555
O6 C2 1_555 1_555
O8 C7 1_555 1_555
O9 C6 1_555 1_555
O10 C11 1_555 1_555
C4 C5 1_555 1_555
N4 C28 1_555 1_555
C32 H21 1_555 1_555
C32 H22 1_555 1_555
C31 H23 1_555 1_555
H2 C8 1_555 1_555
H20 C30 1_555 1_555
N5 C8 1_555 1_555
Cd4 N5 1_555 1_555
C30 N5 1_555 1_555
C22 C20 1_555 1_555
H13 C22 1_555 1_555
H14 C23 1_555 1_555
N9 C22 1_555 1_555
C23 N9 1_555 1_555
C22_2 C20_2 1_555 1_555
H13_2 C22_2 1_555 1_555
H14_2 C23_2 1_555 1_555
N3 C22_2 1_555 1_555
Cd4 N3 1_555 1_555
C23_2 N3 1_555 1_555
H2_2 C8_2 1_555 1_555
H20_2 C30_2 1_555 1_555
N6 C8_2 1_555 1_555
C30_2 N6 1_555 1_555
Cd1 O2_2 1_555 1_555
Cd8 O1_2 1_555 1_555
Cd4 O4_2 1_555 1_555
O1_2 C5_2 1_555 1_555
O2_2 Cd8 1_555 1_555
O3_2 Cd8 1_555 1_555
O4_2 Cd1 1_555 1_555
O5_2 Cd4 1_555 1_555
O6_2 Cd4 1_555 1_555
O7_2 Cd8 1_555 1_555
O8_2 Cd4 1_555 1_555
O9_2 Cd1 1_555 1_555
O10_2 Cd1 1_555 1_555
C1_2 C2_2 1_555 1_555
C2_2 O3_2 1_555 1_555
C3_2 H1_2 1_555 1_555
C4_2 C3_2 1_555 1_555
C5_2 O4_2 1_555 1_555
C6_2 O7_2 1_555 1_555
C7_2 O2_2 1_555 1_555
C9_2 C1_2 1_555 1_555
H3_2 C9_2 1_555 1_555
C11_2 O5_2 1_555 1_555
C12_2 C1_2 1_555 1_555
H4_2 C12_2 1_555 1_555
C13_2 C11_2 1_555 1_555
C14_2 C13_2 1_555 1_555
H5_2 C14_2 1_555 1_555
C19_2 C12_2 1_555 1_555
H10_2 C19_2 1_555 1_555
C24_2 C7_2 1_555 1_555
C25_2 C24_2 1_555 1_555
H15_2 C25_2 1_555 1_555
C26_2 C24_2 1_555 1_555
H16_2 C26_2 1_555 1_555
C27_2 C26_2 1_555 1_555
H17_2 C27_2 1_555 1_555
N10 C27_2 1_555 1_555
C28_2 C25_2 1_555 1_555
H18_2 C28_2 1_555 1_555
C29_2 C4_2 1_555 1_555
H19_2 C29_2 1_555 1_555
O11_2 Cd1 1_555 1_555
C31_2 C32_2 1_555 1_555
C32_2 O11_2 1_555 1_555
N7 Cd8 1_555 1_555
N8 Cd1 1_555 1_555
O6_2 C2_2 1_555 1_555
O8_2 C7_2 1_555 1_555
O9_2 C6_2 1_555 1_555
O10_2 C11_2 1_555 1_555
C4_2 C5_2 1_555 1_555
N10 C28_2 1_555 1_555
C32_2 H21_2 1_555 1_555
C32_2 H22_2 1_555 1_555
C31_2 H23_2 1_555 1_555
H6_2 C15_2 1_555 1_555
C16_2 C15_2 1_555 1_555
H7_2 C16_2 1_555 1_555
H8_2 C17_2 1_555 1_555
N7 C16_2 1_555 1_555
C17_2 N7 1_555 1_555
H9_2 C18_2 1_555 1_555
N8 C18_2 1_555 1_555
C21 C10 1_555 1_555
H12 C21 1_555 1_555
C21_2 C10_2 1_555 1_555
H12_2 C21_2 1_555 1_555

#END
