
###############################################################################
#
# This file contains modified crystal structure data generated from the
# MOF subset of the Cambridge Structural Database (CSD) v543 
# hosted by the Cambridge Crystallographic Data Centre (CCDC).
#
# This work is licensed under the Creative Commons
# Attribution-NonCommercial-ShareAlike 4.0 International License.
# To view a copy of this license, visit
# http://creativecommons.org/licenses/by-nc-sa/4.0/
# or send a letter to
# Creative Commons, PO Box 1866, Mountain View, CA 94042, USA.
#
# CIF created using the CSD Python API on 29 September 2022
# The structure has been converted into the P1 space group
# The structure has a 3D framework
# The original CSD entry WEBKOF is in the tetragonal crystal system
# The framework has been calculated to contain at least 10.0% void space
# The void calculation uses a probe of radius 1.32A, grid spacing 0.4
# The framework is charged, counterions have been retained in the structure
#
###############################################################################

data_WEBKOF
_chemical_formula_moiety         '(C144 H48 In17 O77 Zn1 8-)n'
_symmetry_cell_setting           triclinic
_symmetry_space_group_name_H-M   'P 1'
_symmetry_Int_Tables_number      1
_space_group_name_Hall           'P 1'
loop_
_symmetry_equiv_pos_site_id
_symmetry_equiv_pos_as_xyz
1 x,y,z
_cell_length_a                   22.7219(3)
_cell_length_b                   22.7219(3)
_cell_length_c                   17.3033(6)
_cell_angle_alpha                90
_cell_angle_beta                 90
_cell_angle_gamma                90
_cell_volume                     8933.43
loop_
_atom_site_label
_atom_site_type_symbol
_atom_site_fract_x
_atom_site_fract_y
_atom_site_fract_z
In7 In 0.20067(2) 0.20013(2) 0.40891(3)
Zn4 Zn -0.0000 0.5000 0.2500
O34 O 0.1361(3) 0.2697(2) 0.3839(3)
O41 O 0.1057(3) 0.1978(3) 0.4591(3)
O60 O 0.0069(3) 0.4279(3) 0.3095(5)
C44 C 0.0372(3) 0.2786(4) 0.4294(5)
C47 C 0.0296(4) 0.3292(4) 0.3952(5)
H17 H 0.0598 0.3443 0.3647
C68 C 0.0945(5) 0.2484(4) 0.4206(5)
Zn1 Zn 0.5000 -0.0000 0.7500
O5 O 0.7303(2) 0.1361(3) 0.6161(3)
O6 O 0.8022(3) 0.1057(3) 0.5409(3)
O11 O 0.5721(3) 0.0069(3) 0.6905(5)
C9 C 0.7214(4) 0.0372(3) 0.5706(5)
C10 C 0.6708(4) 0.0296(4) 0.6048(5)
H4 H 0.6557 0.0598 0.6353
C17 C 0.7516(4) 0.0945(5) 0.5794(5)
In8 In 0.79987(2) 0.20067(2) 0.59109(3)
O64 O 0.4931(3) 0.0721(3) 0.8095(5)
In1 In 0.79933(2) 0.79987(2) 0.40891(3)
In2 In 0.5000 0.5000 0.5000
Zn1_2 Zn 0.5000 1.0000 0.7500
O1 O 0.7791(3) 0.7582(2) 0.5232(3)
O2 O 0.7304(3) 0.7014(3) 0.7875(3)
O3 O 0.7121(3) 0.8507(3) 0.4388(4)
O4 O 0.6528(3) 0.6481(3) 0.8091(3)
O7 O 0.7980(3) 0.8902(3) 0.4622(4)
O8 O 0.7332(3) 0.7215(2) 0.4234(3)
O9 O 0.5532(3) 0.5444(3) 0.5907(4)
O10 O 0.5780(3) 0.5640(3) 0.4731(4)
O12 O 0.5456(3) 0.9290(3) 0.6174(5)
C1 C 0.6350(4) 0.6096(3) 0.5735(4)
C2 C 0.6418(4) 0.6177(4) 0.6509(6)
H1 H 0.6184 0.5968 0.6854
C3 C 0.7420(4) 0.7238(3) 0.4942(5)
C4 C 0.6841(4) 0.6575(4) 0.6789(4)
C5 C 0.6659(4) 0.6408(4) 0.5231(5)
H2 H 0.6599 0.6349 0.4705
C6 C 0.7186(4) 0.6894(4) 0.6278(5)
H3 H 0.7480 0.7144 0.6458
C7 C 0.5827(5) 0.5707(4) 0.5480(5)
C8 C 0.7079(4) 0.6831(4) 0.5477(5)
C11 C 0.6592(4) 0.9323(4) 0.5470(6)
H5 H 0.6373 0.8989 0.5357
C12 C 0.7148(4) 0.9395(4) 0.5137(6)
C13 C 0.6364(4) 0.9745(4) 0.5966(6)
C14 C 0.7484(4) 0.9919(3) 0.5227(5)
H6 H 0.7850 0.9970 0.4996
C15 C 0.7456(5) 0.8918(4) 0.4609(6)
C16 C 0.5779(5) 0.9684(6) 0.6362(7)
C18 C 0.6889(6) 0.6708(4) 0.7635(6)
In5 In 0.20013(2) 0.79933(2) 0.59109(3)
In10 In 0.29933(2) 0.29987(2) 0.90891(3)
In11 In 0.70067(2) 0.70013(2) 0.90891(3)
In12 In 0.29987(2) 0.70067(2) 0.09109(3)
In13 In 0.70013(2) 0.29933(2) 0.09109(3)
Zn4_2 Zn 1.0000 0.5000 0.2500
O13 O 0.2209(3) 0.2418(2) 0.5232(3)
O14 O 0.7582(2) 0.2209(3) 0.4768(3)
O15 O 0.2418(2) 0.7791(3) 0.4768(3)
O16 O 0.2696(3) 0.2986(3) 0.7875(3)
O17 O 0.7014(3) 0.2696(3) 0.2125(3)
O18 O 0.2986(3) 0.7304(3) 0.2125(3)
O19 O 0.2304(3) 0.2014(3) 0.2875(3)
O20 O 0.7696(3) 0.7986(3) 0.2875(3)
O21 O 0.2014(3) 0.7696(3) 0.7125(3)
O22 O 0.7986(3) 0.2304(3) 0.7125(3)
O23 O 0.2879(3) 0.1493(3) 0.4388(4)
O24 O 0.8507(3) 0.2879(3) 0.5612(4)
O25 O 0.1493(3) 0.7121(3) 0.5612(4)
O26 O 0.3472(3) 0.3519(3) 0.8091(3)
O27 O 0.6481(3) 0.3472(3) 0.1909(3)
O28 O 0.3519(3) 0.6528(3) 0.1909(3)
O29 O 0.1528(3) 0.1481(3) 0.3091(3)
O30 O 0.8472(3) 0.8519(3) 0.3091(3)
O31 O 0.1481(3) 0.8472(3) 0.6909(3)
O32 O 0.8519(3) 0.1528(3) 0.6909(3)
O37 O 0.2697(2) 0.8639(3) 0.6161(3)
O39 O 0.8639(3) 0.7303(2) 0.3839(3)
O44 O 0.1978(3) 0.8943(3) 0.5409(3)
O46 O 0.8943(3) 0.8022(3) 0.4591(3)
O47 O 0.2020(3) 0.1098(3) 0.4622(4)
O48 O 0.8902(3) 0.2020(3) 0.5378(4)
O49 O 0.1098(3) 0.7980(3) 0.5378(4)
O50 O 0.2668(3) 0.2785(2) 0.4234(3)
O51 O 0.7215(2) 0.2668(3) 0.5766(3)
O52 O 0.2785(2) 0.7332(3) 0.5766(3)
O53 O 0.4468(3) 0.4556(3) 0.5907(4)
O54 O 0.5444(3) 0.4468(3) 0.4093(4)
O55 O 0.4556(3) 0.5532(3) 0.4093(4)
O56 O 0.4220(3) 0.4360(3) 0.4731(4)
O57 O 0.5640(3) 0.4220(3) 0.5269(4)
O58 O 0.4360(3) 0.5780(3) 0.5269(4)
O62 O 0.4279(3) 0.9931(3) 0.6905(5)
O63 O 0.5069(3) 0.9279(3) 0.8095(5)
O65 O 0.4544(3) 0.0710(3) 0.6174(5)
O66 O 0.9290(3) 0.4544(3) 0.3826(5)
O67 O 0.0710(3) 0.5456(3) 0.3826(5)
C19 C 0.3650(4) 0.3904(3) 0.5735(4)
C20 C 0.6096(3) 0.3650(4) 0.4265(4)
C21 C 0.3904(3) 0.6350(4) 0.4265(4)
C22 C 0.3582(4) 0.3823(4) 0.6509(6)
C23 C 0.6177(4) 0.3582(4) 0.3491(6)
C24 C 0.3823(4) 0.6418(4) 0.3491(6)
H7 H 0.3816 0.4032 0.6854
H8 H 0.5968 0.3816 0.3146
H9 H 0.4032 0.6184 0.3146
C25 C 0.2580(4) 0.2762(3) 0.4942(5)
C26 C 0.7238(3) 0.2580(4) 0.5058(5)
C27 C 0.2762(3) 0.7420(4) 0.5058(5)
C28 C 0.3159(4) 0.3425(4) 0.6789(4)
C29 C 0.6575(4) 0.3159(4) 0.3211(4)
C30 C 0.3425(4) 0.6841(4) 0.3211(4)
C31 C 0.3341(4) 0.3592(4) 0.5231(5)
C32 C 0.6408(4) 0.3341(4) 0.4769(5)
C33 C 0.3592(4) 0.6659(4) 0.4769(5)
H10 H 0.3401 0.3651 0.4705
H11 H 0.6349 0.3401 0.5295
H12 H 0.3651 0.6599 0.5295
C34 C 0.2814(4) 0.3106(4) 0.6278(5)
C35 C 0.6894(4) 0.2814(4) 0.3722(5)
C36 C 0.3106(4) 0.7186(4) 0.3722(5)
H13 H 0.2520 0.2856 0.6458
H14 H 0.7144 0.2520 0.3542
H15 H 0.2856 0.7480 0.3542
C37 C 0.4173(5) 0.4293(4) 0.5480(5)
C38 C 0.5707(4) 0.4173(5) 0.4520(5)
C39 C 0.4293(4) 0.5827(5) 0.4520(5)
C40 C 0.2921(4) 0.3169(4) 0.5477(5)
C41 C 0.6831(4) 0.2921(4) 0.4523(5)
C42 C 0.3169(4) 0.7079(4) 0.4523(5)
C49 C 0.3408(4) 0.0677(4) 0.5470(6)
C50 C 0.9323(4) 0.3408(4) 0.4530(6)
C51 C 0.0677(4) 0.6592(4) 0.4530(6)
H19 H 0.3627 0.1011 0.5357
H20 H 0.8989 0.3627 0.4643
H21 H 0.1011 0.6373 0.4643
C52 C 0.2852(4) 0.0605(4) 0.5137(6)
C53 C 0.9395(4) 0.2852(4) 0.4863(6)
C54 C 0.0605(4) 0.7148(4) 0.4863(6)
C55 C 0.3636(4) 0.0255(4) 0.5966(6)
C56 C 0.9745(4) 0.3636(4) 0.4034(6)
C57 C 0.0255(4) 0.6364(4) 0.4034(6)
C58 C 0.2516(4) 0.0081(3) 0.5227(5)
C59 C 0.9919(3) 0.2516(4) 0.4773(5)
C60 C 0.0081(3) 0.7484(4) 0.4773(5)
H22 H 0.2150 0.0030 0.4996
H23 H 0.9970 0.2150 0.5004
H24 H 0.0030 0.7850 0.5004
C61 C 0.2544(5) 0.1082(4) 0.4609(6)
C62 C 0.8918(4) 0.2544(5) 0.5391(6)
C63 C 0.1082(4) 0.7456(5) 0.5391(6)
C64 C 0.4221(5) 0.0316(6) 0.6362(7)
C65 C 0.9684(6) 0.4221(5) 0.3638(7)
C66 C 0.0316(6) 0.5779(5) 0.3638(7)
C71 C 0.2484(4) 0.9055(5) 0.5794(5)
C73 C 0.9055(5) 0.7516(4) 0.4206(5)
C74 C 0.3111(6) 0.3292(4) 0.7635(6)
C75 C 0.6708(4) 0.3111(6) 0.2365(6)
C76 C 0.3292(4) 0.6889(6) 0.2365(6)
C77 C 0.1889(6) 0.1708(4) 0.2635(6)
C78 C 0.8111(6) 0.8292(4) 0.2635(6)
C79 C 0.1708(4) 0.8111(6) 0.7365(6)
C80 C 0.8292(4) 0.1889(6) 0.7365(6)
C43 C 0.2786(4) 0.9628(3) 0.5706(5)
C46 C 0.3292(4) 0.9704(4) 0.6048(5)
H16 H 0.3443 0.9402 0.6353
O61 O 0.9931(3) 0.5721(3) 0.3095(5)
C45 C 0.9628(3) 0.7214(4) 0.4294(5)
C48 C 0.9704(4) 0.6708(4) 0.3952(5)
H18 H 0.9402 0.6557 0.3647
O64_2 O 0.0721(3) 0.5069(3) 0.1905(5)
O63_2 O 0.9279(3) 0.4931(3) 0.1905(5)
In2_2 In -0.0000 -0.0000 0.0000
O1_2 O 0.2791(3) 0.2582(2) 0.0232(3)
O5_2 O 0.2303(2) 0.6361(3) 0.1161(3)
O6_2 O 0.3022(3) 0.6057(3) 0.0409(3)
O9_2 O 0.0532(3) 0.0444(3) 0.0907(4)
O12_2 O 0.0456(3) 0.4290(3) 0.1174(5)
C1_2 C 0.1350(4) 0.1096(3) 0.0735(4)
C2_2 C 0.1418(4) 0.1177(4) 0.1509(6)
H1_2 H 0.1184 0.0968 0.1854
C4_2 C 0.1841(4) 0.1575(4) 0.1789(4)
C5_2 C 0.1659(4) 0.1408(4) 0.0231(5)
C6_2 C 0.2186(4) 0.1894(4) 0.1278(5)
H3_2 H 0.2480 0.2144 0.1458
C7_2 C 0.0827(5) 0.0707(4) 0.0480(5)
C8_2 C 0.2079(4) 0.1831(4) 0.0477(5)
C9_2 C 0.2214(4) 0.5372(3) 0.0706(5)
C10_2 C 0.1708(4) 0.5296(4) 0.1048(5)
H4_2 H 0.1557 0.5598 0.1353
C11_2 C 0.1592(4) 0.4323(4) 0.0470(6)
H5_2 H 0.1373 0.3989 0.0357
C12_2 C 0.2148(4) 0.4395(4) 0.0137(6)
C13_2 C 0.1364(4) 0.4745(4) 0.0966(6)
C14_2 C 0.2484(4) 0.4919(3) 0.0227(5)
C16_2 C 0.0779(5) 0.4684(6) 0.1362(7)
C17_2 C 0.2516(4) 0.5945(5) 0.0794(5)
In2_3 In -0.0000 -0.0000 1.0000
O3_2 O 0.2121(3) 0.3507(3) 0.9388(4)
O7_2 O 0.2980(3) 0.3902(3) 0.9622(4)
O8_2 O 0.2332(3) 0.2215(2) 0.9234(3)
O10_2 O 0.0780(3) 0.0640(3) 0.9731(4)
C3_2 C 0.2420(4) 0.2238(3) 0.9942(5)
H2_2 H 0.1599 0.1349 0.9705
H6_2 H 0.2850 0.4970 0.9996
C15_2 C 0.2456(5) 0.3918(4) 0.9609(6)
O39_2 O 0.3639(3) 0.2303(2) 0.8839(3)
O46_2 O 0.3943(3) 0.3022(3) 0.9591(3)
C73_2 C 0.4055(5) 0.2516(4) 0.9206(5)
In2_4 In -0.0000 1.0000 0.0000
O24_2 O 0.3507(3) 0.7879(3) 0.0612(4)
O48_2 O 0.3902(3) 0.7020(3) 0.0378(4)
O51_2 O 0.2215(2) 0.7668(3) 0.0766(3)
O57_2 O 0.0640(3) 0.9220(3) 0.0269(4)
C26_2 C 0.2238(3) 0.7580(4) 0.0058(5)
H11_2 H 0.1349 0.8401 0.0295
H23_2 H 0.4970 0.7150 0.0004
C62_2 C 0.3918(4) 0.7544(5) 0.0391(6)
In2_5 In -0.0000 1.0000 1.0000
O14_2 O 0.2582(2) 0.7209(3) 0.9768(3)
O34_2 O 0.6361(3) 0.7697(2) 0.8839(3)
O41_2 O 0.6057(3) 0.6978(3) 0.9591(3)
O54_2 O 0.0444(3) 0.9468(3) 0.9093(4)
O66_2 O 0.4290(3) 0.9544(3) 0.8826(5)
C20_2 C 0.1096(3) 0.8650(4) 0.9265(4)
C23_2 C 0.1177(4) 0.8582(4) 0.8491(6)
H8_2 H 0.0968 0.8816 0.8146
C29_2 C 0.1575(4) 0.8159(4) 0.8211(4)
C32_2 C 0.1408(4) 0.8341(4) 0.9769(5)
C35_2 C 0.1894(4) 0.7814(4) 0.8722(5)
H14_2 H 0.2144 0.7520 0.8542
C38_2 C 0.0707(4) 0.9173(5) 0.9520(5)
C41_2 C 0.1831(4) 0.7921(4) 0.9523(5)
C44_2 C 0.5372(3) 0.7786(4) 0.9294(5)
C47_2 C 0.5296(4) 0.8292(4) 0.8952(5)
H17_2 H 0.5598 0.8443 0.8647
C50_2 C 0.4323(4) 0.8408(4) 0.9530(6)
H20_2 H 0.3989 0.8627 0.9643
C53_2 C 0.4395(4) 0.7852(4) 0.9863(6)
C56_2 C 0.4745(4) 0.8636(4) 0.9034(6)
C59_2 C 0.4919(3) 0.7516(4) 0.9773(5)
C65_2 C 0.4684(6) 0.9221(5) 0.8638(7)
C68_2 C 0.5945(5) 0.7484(4) 0.9206(5)
In2_6 In 1.0000 -0.0000 0.0000
O25_2 O 0.6493(3) 0.2121(3) 0.0612(4)
O37_2 O 0.7697(2) 0.3639(3) 0.1161(3)
O44_2 O 0.6978(3) 0.3943(3) 0.0409(3)
O49_2 O 0.6098(3) 0.2980(3) 0.0378(4)
O52_2 O 0.7785(2) 0.2332(3) 0.0766(3)
O58_2 O 0.9360(3) 0.0780(3) 0.0269(4)
C27_2 C 0.7762(3) 0.2420(4) 0.0058(5)
H12_2 H 0.8651 0.1599 0.0295
H24_2 H 0.5030 0.2850 0.0004
C63_2 C 0.6082(4) 0.2456(5) 0.0391(6)
C71_2 C 0.7484(4) 0.4055(5) 0.0794(5)
In2_7 In 1.0000 -0.0000 1.0000
O15_2 O 0.7418(2) 0.2791(3) 0.9768(3)
O55_2 O 0.9556(3) 0.0532(3) 0.9093(4)
O67_2 O 0.5710(3) 0.0456(3) 0.8826(5)
C21_2 C 0.8904(3) 0.1350(4) 0.9265(4)
C24_2 C 0.8823(4) 0.1418(4) 0.8491(6)
H9_2 H 0.9032 0.1184 0.8146
C30_2 C 0.8425(4) 0.1841(4) 0.8211(4)
C33_2 C 0.8592(4) 0.1659(4) 0.9769(5)
C36_2 C 0.8106(4) 0.2186(4) 0.8722(5)
H15_2 H 0.7856 0.2480 0.8542
C39_2 C 0.9293(4) 0.0827(5) 0.9520(5)
C42_2 C 0.8169(4) 0.2079(4) 0.9523(5)
C45_2 C 0.4628(3) 0.2214(4) 0.9294(5)
C48_2 C 0.4704(4) 0.1708(4) 0.8952(5)
H18_2 H 0.4402 0.1557 0.8647
C51_2 C 0.5677(4) 0.1592(4) 0.9530(6)
H21_2 H 0.6011 0.1373 0.9643
C54_2 C 0.5605(4) 0.2148(4) 0.9863(6)
C57_2 C 0.5255(4) 0.1364(4) 0.9034(6)
C60_2 C 0.5081(3) 0.2484(4) 0.9773(5)
C66_2 C 0.5316(6) 0.0779(5) 0.8638(7)
In2_8 In 1.0000 1.0000 0.0000
O13_2 O 0.7209(3) 0.7418(2) 0.0232(3)
O53_2 O 0.9468(3) 0.9556(3) 0.0907(4)
O65_2 O 0.9544(3) 0.5710(3) 0.1174(5)
C19_2 C 0.8650(4) 0.8904(3) 0.0735(4)
C22_2 C 0.8582(4) 0.8823(4) 0.1509(6)
H7_2 H 0.8816 0.9032 0.1854
C28_2 C 0.8159(4) 0.8425(4) 0.1789(4)
C31_2 C 0.8341(4) 0.8592(4) 0.0231(5)
C34_2 C 0.7814(4) 0.8106(4) 0.1278(5)
H13_2 H 0.7520 0.7856 0.1458
C37_2 C 0.9173(5) 0.9293(4) 0.0480(5)
C40_2 C 0.7921(4) 0.8169(4) 0.0477(5)
C43_2 C 0.7786(4) 0.4628(3) 0.0706(5)
C46_2 C 0.8292(4) 0.4704(4) 0.1048(5)
H16_2 H 0.8443 0.4402 0.1353
C49_2 C 0.8408(4) 0.5677(4) 0.0470(6)
H19_2 H 0.8627 0.6011 0.0357
C52_2 C 0.7852(4) 0.5605(4) 0.0137(6)
C55_2 C 0.8636(4) 0.5255(4) 0.0966(6)
C58_2 C 0.7516(4) 0.5081(3) 0.0227(5)
C64_2 C 0.9221(5) 0.5316(6) 0.1362(7)
In2_9 In 1.0000 1.0000 1.0000
O23_2 O 0.7879(3) 0.6493(3) 0.9388(4)
O47_2 O 0.7020(3) 0.6098(3) 0.9622(4)
O50_2 O 0.7668(3) 0.7785(2) 0.9234(3)
O56_2 O 0.9220(3) 0.9360(3) 0.9731(4)
C25_2 C 0.7580(4) 0.7762(3) 0.9942(5)
H10_2 H 0.8401 0.8651 0.9705
H22_2 H 0.7150 0.5030 0.9996
C61_2 C 0.7544(5) 0.6082(4) 0.9609(6)
loop_
_geom_bond_atom_site_label_1
_geom_bond_atom_site_label_2
_geom_bond_site_symmetry_1
_geom_bond_site_symmetry_2
In7 O34 1_555 1_555
Zn4 O60 1_555 1_555
O34 C68 1_555 1_555
O41 In7 1_555 1_555
C44 C47 1_555 1_555
C47 H17 1_555 1_555
C68 O41 1_555 1_555
C44 C68 1_555 1_555
Zn1 O11 1_555 1_555
O5 C17 1_555 1_555
O6 C17 1_555 1_555
C9 C10 1_555 1_555
C10 H4 1_555 1_555
C17 C9 1_555 1_555
In8 O5 1_555 1_555
O64 Zn1 1_555 1_555
O6 In8 1_555 1_555
In1 O1 1_555 1_555
In2 O9 1_555 1_555
O1 C3 1_555 1_555
O2 C18 1_555 1_555
O3 In1 1_555 1_555
O4 C18 1_555 1_555
O7 In1 1_555 1_555
O8 In1 1_555 1_555
O9 C7 1_555 1_555
O10 In2 1_555 1_555
O12 C16 1_555 1_555
C1 C2 1_555 1_555
C2 H1 1_555 1_555
C3 O8 1_555 1_555
C4 C2 1_555 1_555
C5 C1 1_555 1_555
H2 C5 1_555 1_555
C6 C4 1_555 1_555
H3 C6 1_555 1_555
C7 O10 1_555 1_555
C8 C3 1_555 1_555
C11 H5 1_555 1_555
C12 C11 1_555 1_555
H6 C14 1_555 1_555
C15 O3 1_555 1_555
C16 C13 1_555 1_555
C18 C4 1_555 1_555
In7 O13 1_555 1_555
In8 O14 1_555 1_555
In5 O15 1_555 1_555
In10 O16 1_555 1_555
In11 O2 1_555 1_555
In12 O18 1_555 1_555
In13 O17 1_555 1_555
O13 C25 1_555 1_555
O14 C26 1_555 1_555
O15 C27 1_555 1_555
O16 C74 1_555 1_555
O17 C75 1_555 1_555
O18 C76 1_555 1_555
O19 In7 1_555 1_555
O20 In1 1_555 1_555
O21 In5 1_555 1_555
O22 In8 1_555 1_555
O23 In7 1_555 1_555
O24 In8 1_555 1_555
O25 In5 1_555 1_555
O26 In10 1_555 1_555
O27 In13 1_555 1_555
O28 In12 1_555 1_555
O29 In7 1_555 1_555
O30 In1 1_555 1_555
O31 In5 1_555 1_555
O32 In8 1_555 1_555
O37 In5 1_555 1_555
O39 In1 1_555 1_555
O44 In5 1_555 1_555
O46 In1 1_555 1_555
O47 In7 1_555 1_555
O48 In8 1_555 1_555
O49 In5 1_555 1_555
O50 In7 1_555 1_555
O51 In8 1_555 1_555
O52 In5 1_555 1_555
O53 In2 1_555 1_555
O54 In2 1_555 1_555
O55 In2 1_555 1_555
O56 In2 1_555 1_555
O57 In2 1_555 1_555
O58 In2 1_555 1_555
O62 Zn1_2 1_555 1_555
O63 Zn1_2 1_555 1_555
O65 C64 1_555 1_555
O66 C65 1_555 1_555
O67 C66 1_555 1_555
C19 C22 1_555 1_555
C20 C23 1_555 1_555
C21 C24 1_555 1_555
C22 H7 1_555 1_555
C23 H8 1_555 1_555
C24 H9 1_555 1_555
C25 O50 1_555 1_555
C26 O51 1_555 1_555
C27 O52 1_555 1_555
C28 C22 1_555 1_555
C29 C23 1_555 1_555
C30 C24 1_555 1_555
C31 C19 1_555 1_555
C32 C20 1_555 1_555
C33 C21 1_555 1_555
H10 C31 1_555 1_555
H11 C32 1_555 1_555
H12 C33 1_555 1_555
C34 C28 1_555 1_555
C35 C29 1_555 1_555
C36 C30 1_555 1_555
H13 C34 1_555 1_555
H14 C35 1_555 1_555
H15 C36 1_555 1_555
C37 O53 1_555 1_555
C38 O54 1_555 1_555
C39 O55 1_555 1_555
C40 C25 1_555 1_555
C41 C26 1_555 1_555
C42 C27 1_555 1_555
C49 H19 1_555 1_555
C50 H20 1_555 1_555
C51 H21 1_555 1_555
C52 C49 1_555 1_555
C53 C50 1_555 1_555
C54 C51 1_555 1_555
H22 C58 1_555 1_555
H23 C59 1_555 1_555
H24 C60 1_555 1_555
C61 O23 1_555 1_555
C62 O24 1_555 1_555
C63 O25 1_555 1_555
C64 C55 1_555 1_555
C65 C56 1_555 1_555
C66 C57 1_555 1_555
C71 O37 1_555 1_555
C73 O39 1_555 1_555
C74 O26 1_555 1_555
C75 O27 1_555 1_555
C76 O28 1_555 1_555
C77 O19 1_555 1_555
C78 O20 1_555 1_555
C79 O21 1_555 1_555
C80 O22 1_555 1_555
O4 In11 1_555 1_555
O7 C15 1_555 1_555
C1 C7 1_555 1_555
C5 C8 1_555 1_555
C6 C8 1_555 1_555
C11 C13 1_555 1_555
C12 C14 1_555 1_555
C12 C15 1_555 1_555
O29 C77 1_555 1_555
O30 C78 1_555 1_555
O31 C79 1_555 1_555
O32 C80 1_555 1_555
O44 C71 1_555 1_555
O46 C73 1_555 1_555
O47 C61 1_555 1_555
O48 C62 1_555 1_555
O49 C63 1_555 1_555
O56 C37 1_555 1_555
O57 C38 1_555 1_555
O58 C39 1_555 1_555
C19 C37 1_555 1_555
C20 C38 1_555 1_555
C21 C39 1_555 1_555
C28 C74 1_555 1_555
C29 C75 1_555 1_555
C30 C76 1_555 1_555
C31 C40 1_555 1_555
C32 C41 1_555 1_555
C33 C42 1_555 1_555
C34 C40 1_555 1_555
C35 C41 1_555 1_555
C36 C42 1_555 1_555
C49 C55 1_555 1_555
C50 C56 1_555 1_555
C51 C57 1_555 1_555
C52 C58 1_555 1_555
C52 C61 1_555 1_555
C53 C59 1_555 1_555
C53 C62 1_555 1_555
C54 C60 1_555 1_555
C54 C63 1_555 1_555
C43 C46 1_555 1_555
C46 H16 1_555 1_555
C43 C71 1_555 1_555
Zn4_2 O61 1_555 1_555
C45 C48 1_555 1_555
C48 H18 1_555 1_555
C45 C73 1_555 1_555
O64_2 Zn4 1_555 1_555
O63_2 Zn4_2 1_555 1_555
In2_2 O9_2 1_555 1_555
O5_2 C17_2 1_555 1_555
O6_2 C17_2 1_555 1_555
O9_2 C7_2 1_555 1_555
O64_2 C16_2 1_555 1_555
O12_2 C16_2 1_555 1_555
C1_2 C2_2 1_555 1_555
C2_2 H1_2 1_555 1_555
C4_2 C2_2 1_555 1_555
C5_2 C1_2 1_555 1_555
C6_2 C4_2 1_555 1_555
H3_2 C6_2 1_555 1_555
C9_2 C10_2 1_555 1_555
C10_2 H4_2 1_555 1_555
C11_2 H5_2 1_555 1_555
C12_2 C11_2 1_555 1_555
C13_2 C10_2 1_555 1_555
C14_2 C9_2 1_555 1_555
C16_2 C13_2 1_555 1_555
C17_2 C9_2 1_555 1_555
C77 C4_2 1_555 1_555
In12 O5_2 1_555 1_555
O6_2 In12 1_555 1_555
C1_2 C7_2 1_555 1_555
C5_2 C8_2 1_555 1_555
C6_2 C8_2 1_555 1_555
C11_2 C13_2 1_555 1_555
C12_2 C14_2 1_555 1_555
O3_2 In10 1_555 1_555
O7_2 In10 1_555 1_555
O8_2 In10 1_555 1_555
O10_2 In2_3 1_555 1_555
C3_2 O8_2 1_555 1_555
C15_2 O3_2 1_555 1_555
O39_2 In10 1_555 1_555
O46_2 In10 1_555 1_555
C73_2 O39_2 1_555 1_555
O7_2 C15_2 1_555 1_555
O46_2 C73_2 1_555 1_555
O24_2 In12 1_555 1_555
O48_2 In12 1_555 1_555
O51_2 In12 1_555 1_555
O57_2 In2_4 1_555 1_555
C26_2 O51_2 1_555 1_555
C62_2 O24_2 1_555 1_555
O48_2 C62_2 1_555 1_555
In11 O34_2 1_555 1_555
O34_2 C68_2 1_555 1_555
O41_2 In11 1_555 1_555
O54_2 In2_5 1_555 1_555
O63 C65_2 1_555 1_555
O66_2 C65_2 1_555 1_555
C20_2 C23_2 1_555 1_555
C23_2 H8_2 1_555 1_555
C29_2 C23_2 1_555 1_555
C32_2 C20_2 1_555 1_555
C35_2 C29_2 1_555 1_555
H14_2 C35_2 1_555 1_555
C38_2 O54_2 1_555 1_555
C44_2 C47_2 1_555 1_555
C47_2 H17_2 1_555 1_555
C50_2 H20_2 1_555 1_555
C53_2 C50_2 1_555 1_555
C56_2 C47_2 1_555 1_555
C59_2 C44_2 1_555 1_555
C65_2 C56_2 1_555 1_555
C68_2 O41_2 1_555 1_555
C20_2 C38_2 1_555 1_555
C29_2 C79 1_555 1_555
C32_2 C41_2 1_555 1_555
C35_2 C41_2 1_555 1_555
C44_2 C68_2 1_555 1_555
C50_2 C56_2 1_555 1_555
C53_2 C59_2 1_555 1_555
O25_2 In13 1_555 1_555
O37_2 In13 1_555 1_555
O44_2 In13 1_555 1_555
O49_2 In13 1_555 1_555
O52_2 In13 1_555 1_555
O58_2 In2_6 1_555 1_555
C27_2 O52_2 1_555 1_555
C63_2 O25_2 1_555 1_555
C71_2 O37_2 1_555 1_555
O44_2 C71_2 1_555 1_555
O49_2 C63_2 1_555 1_555
O55_2 In2_7 1_555 1_555
O64 C66_2 1_555 1_555
O67_2 C66_2 1_555 1_555
C21_2 C24_2 1_555 1_555
C24_2 H9_2 1_555 1_555
C30_2 C24_2 1_555 1_555
C33_2 C21_2 1_555 1_555
C36_2 C30_2 1_555 1_555
H15_2 C36_2 1_555 1_555
C39_2 O55_2 1_555 1_555
C45_2 C48_2 1_555 1_555
C48_2 H18_2 1_555 1_555
C51_2 H21_2 1_555 1_555
C54_2 C51_2 1_555 1_555
C57_2 C48_2 1_555 1_555
C60_2 C45_2 1_555 1_555
C66_2 C57_2 1_555 1_555
C21_2 C39_2 1_555 1_555
C30_2 C80 1_555 1_555
C33_2 C42_2 1_555 1_555
C36_2 C42_2 1_555 1_555
C45_2 C73_2 1_555 1_555
C51_2 C57_2 1_555 1_555
C54_2 C60_2 1_555 1_555
O53_2 In2_8 1_555 1_555
O63_2 C64_2 1_555 1_555
O65_2 C64_2 1_555 1_555
C19_2 C22_2 1_555 1_555
C22_2 H7_2 1_555 1_555
C28_2 C22_2 1_555 1_555
C31_2 C19_2 1_555 1_555
C34_2 C28_2 1_555 1_555
H13_2 C34_2 1_555 1_555
C37_2 O53_2 1_555 1_555
C43_2 C46_2 1_555 1_555
C46_2 H16_2 1_555 1_555
C49_2 H19_2 1_555 1_555
C52_2 C49_2 1_555 1_555
C55_2 C46_2 1_555 1_555
C58_2 C43_2 1_555 1_555
C64_2 C55_2 1_555 1_555
C19_2 C37_2 1_555 1_555
C28_2 C78 1_555 1_555
C31_2 C40_2 1_555 1_555
C34_2 C40_2 1_555 1_555
C43_2 C71_2 1_555 1_555
C49_2 C55_2 1_555 1_555
C52_2 C58_2 1_555 1_555
O23_2 In11 1_555 1_555
O47_2 In11 1_555 1_555
O50_2 In11 1_555 1_555
O56_2 In2_9 1_555 1_555
C25_2 O50_2 1_555 1_555
C61_2 O23_2 1_555 1_555
O47_2 C61_2 1_555 1_555

#END
