
###############################################################################
#
# This file contains modified crystal structure data generated from the
# MOF subset of the Cambridge Structural Database (CSD) v543 
# hosted by the Cambridge Crystallographic Data Centre (CCDC).
#
# This work is licensed under the Creative Commons
# Attribution-NonCommercial-ShareAlike 4.0 International License.
# To view a copy of this license, visit
# http://creativecommons.org/licenses/by-nc-sa/4.0/
# or send a letter to
# Creative Commons, PO Box 1866, Mountain View, CA 94042, USA.
#
# CIF created using the CSD Python API on 29 September 2022
# The structure has been converted into the P1 space group
# The structure has a 3D framework
# The original CSD entry WEBKIZ is in the tetragonal crystal system
# The framework has been calculated to contain at least 10.0% void space
# The void calculation uses a probe of radius 1.32A, grid spacing 0.4
# The framework is charged, counterions have been retained in the structure
#
###############################################################################

data_WEBKIZ
_chemical_formula_moiety         '(C144 H48 Co1 In12 O93 9-)n'
_symmetry_cell_setting           triclinic
_symmetry_space_group_name_H-M   'P 1'
_symmetry_Int_Tables_number      1
_space_group_name_Hall           'P 1'
loop_
_symmetry_equiv_pos_site_id
_symmetry_equiv_pos_as_xyz
1 x,y,z
_cell_length_a                   22.7880(16)
_cell_length_b                   22.7880(16)
_cell_length_c                   17.1540(3)
_cell_angle_alpha                90
_cell_angle_beta                 90
_cell_angle_gamma                90
_cell_volume                     8907.95
loop_
_atom_site_label
_atom_site_type_symbol
_atom_site_fract_x
_atom_site_fract_y
_atom_site_fract_z
Co3 Co -0.0000 -0.0000 0.5000
O5 O 0.1378(4) 0.2309(4) 0.3693(5)
O6 O 0.1110(4) 0.3025(5) 0.2881(6)
O11 O 0.0105(4) 0.0726(5) 0.4394(8)
C4 C 0.0995(9) 0.2469(12) 0.3300(16)
C11 C 0.0395(8) 0.2217(6) 0.3231(9)
C13 C 0.0286(7) 0.1759(6) 0.3543(12)
H4 H 0.0579 0.1621 0.3874
In3 In 0.19782(4) 0.70100(4) 0.15944(4)
In6 In 0.20100(4) 0.30218(4) 0.34056(4)
Co3_2 Co -0.0000 1.0000 0.5000
Co4 Co 0.5000 0.5000 0.0000
O13 O 0.1988(5) 0.7291(4) 0.0356(4)
O16 O 0.1450(5) 0.6532(4) 0.0583(5)
O20 O 0.1456(5) 0.7863(5) 0.1872(6)
O21 O 0.2863(5) 0.3544(5) 0.3128(6)
O25 O 0.1065(5) 0.7051(3) 0.2129(6)
O26 O 0.2051(3) 0.3935(5) 0.2871(6)
O31 O 0.2691(4) 0.6378(4) 0.1307(5)
O36 O 0.1975(5) 0.6110(4) 0.2119(6)
O43 O 0.2741(4) 0.7704(4) 0.1715(6)
O53 O 0.2372(4) 0.7260(6) 0.2724(5)
O61 O 0.4274(5) 0.5105(4) 0.0606(8)
O66 O 0.0678(4) 0.9532(6) 0.3664(9)
O67 O 0.4532(6) 0.4322(4) 0.1336(9)
C30 C 0.2531(12) 0.5995(9) 0.1700(16)
C43 C 0.1700(6) 0.6856(9) 0.0113(10)
C51 C 0.2783(6) 0.5395(8) 0.1769(9)
C53 C 0.0208(7) 0.8602(6) 0.3492(12)
C54 C 0.3602(6) 0.4792(7) 0.1508(12)
C57 C 0.3241(6) 0.5286(7) 0.1457(12)
H18 H 0.3379 0.5579 0.1126
C59 C 0.0074(6) 0.7511(6) 0.2707(9)
C60 C 0.2511(6) 0.4926(6) 0.2293(9)
H20 H 0.0032 0.7140 0.2490
H21 H 0.2140 0.4968 0.2510
C62 C 0.0541(6) 0.7834(7) 0.2581(13)
C63 C 0.2834(7) 0.4459(6) 0.2419(13)
C65 C 0.0282(11) 0.9248(9) 0.3884(13)
C66 C 0.4248(9) 0.4718(11) 0.1116(13)
C68 C 0.0646(6) 0.8391(6) 0.2930(11)
C69 C 0.3391(6) 0.4354(6) 0.2070(11)
H23 H 0.0977 0.8611 0.2808
H24 H 0.3611 0.4023 0.2192
C71 C 0.1035(9) 0.7528(7) 0.2065(13)
C72 C 0.2528(7) 0.3965(9) 0.2935(13)
In1 In -0.0000 0.5000 0.7500
In8 In 0.30218(4) 0.79900(4) 0.65944(4)
In10 In 0.29900(4) 0.19782(4) 0.84056(4)
Co4_2 Co 0.5000 0.5000 1.0000
O15 O 0.2291(4) 0.3012(5) 0.4644(4)
O18 O 0.1532(4) 0.3550(5) 0.4417(5)
O39 O 0.2259(4) 0.7296(4) 0.6715(6)
O41 O 0.2296(4) 0.2741(4) 0.8285(6)
O45 O 0.2704(4) 0.2259(4) 0.3285(6)
O46 O 0.0656(5) 0.5779(5) 0.7273(7)
O48 O 0.0779(5) 0.4344(5) 0.7727(7)
O49 O 0.2628(4) 0.7740(6) 0.7724(5)
O51 O 0.2740(6) 0.2372(4) 0.7276(5)
O55 O 0.2260(6) 0.2628(4) 0.2276(5)
O56 O 0.0460(4) 0.5530(5) 0.8354(6)
O58 O 0.0530(5) 0.4540(4) 0.6646(6)
C19 C 0.1089(5) 0.6315(6) 0.8233(8)
C21 C 0.1315(6) 0.3911(5) 0.6767(8)
C22 C 0.1384(6) 0.6637(6) 0.7709(9)
C24 C 0.1637(6) 0.3616(6) 0.7291(9)
H7 H 0.1315 0.6588 0.7179
H9 H 0.1588 0.3685 0.7821
C25 C 0.1584(5) 0.6847(5) 0.9251(7)
C27 C 0.1847(5) 0.3416(5) 0.5749(7)
C31 C 0.1814(7) 0.7066(6) 0.7979(7)
C33 C 0.2066(6) 0.3186(7) 0.7021(7)
C34 C 0.2276(6) 0.7364(6) 0.7448(9)
C36 C 0.2364(6) 0.2724(6) 0.7552(9)
C37 C 0.0732(7) 0.5797(8) 0.7983(7)
C39 C 0.0797(8) 0.4268(7) 0.7017(7)
C40 C 0.1154(7) 0.6428(7) 0.9019(8)
C42 C 0.1428(7) 0.3846(7) 0.5981(8)
H10 H 0.0924 0.6236 0.9387
H12 H 0.1236 0.4076 0.5613
C45 C 0.1856(9) 0.3300(6) 0.4887(10)
C46 C 0.1842(7) 0.7174(6) 0.8745(7)
C48 C 0.2174(6) 0.3158(7) 0.6255(7)
H13 H 0.2055 0.7496 0.8917
H15 H 0.2496 0.2945 0.6083
O63 O 0.0726(5) 0.9895(4) 0.5606(8)
Co3_3 Co 1.0000 -0.0000 0.5000
In2 In 0.80218(4) 0.29900(4) 0.15944(4)
O1 O 0.8012(5) 0.2709(4) 0.0356(4)
O2 O 0.8550(5) 0.3468(4) 0.0583(5)
O3 O 0.8544(5) 0.2137(5) 0.1872(6)
O4 O 0.8935(5) 0.2949(3) 0.2129(6)
O12 O 0.9322(4) 0.0468(6) 0.3664(9)
C9 C 0.8300(6) 0.3144(9) 0.0113(10)
C12 C 0.9792(7) 0.1398(6) 0.3492(12)
C14 C 0.9926(6) 0.2489(6) 0.2707(9)
H5 H 0.9968 0.2860 0.2490
C15 C 0.9459(6) 0.2166(7) 0.2581(13)
C16 C 0.9718(11) 0.0752(9) 0.3884(13)
C17 C 0.9354(6) 0.1609(6) 0.2930(11)
H6 H 0.9023 0.1389 0.2808
C18 C 0.8965(9) 0.2472(7) 0.2065(13)
In11 In 0.79900(4) 0.69782(4) 0.34056(4)
Co3_4 Co 1.0000 1.0000 0.5000
O19 O 0.7137(5) 0.6456(5) 0.3128(6)
O24 O 0.7949(3) 0.6065(5) 0.2871(6)
O29 O 0.7309(4) 0.3622(4) 0.1307(5)
O30 O 0.8622(4) 0.7691(4) 0.3693(5)
O34 O 0.8025(5) 0.3890(4) 0.2119(6)
O35 O 0.8890(4) 0.6975(5) 0.2881(6)
O42 O 0.7259(4) 0.2296(4) 0.1715(6)
O52 O 0.7628(4) 0.2740(6) 0.2724(5)
O59 O 0.5726(5) 0.4895(4) 0.0606(8)
O60 O 0.9895(4) 0.9274(5) 0.4394(8)
O64 O 0.9274(5) 0.0105(4) 0.5606(8)
O65 O 0.5468(6) 0.5678(4) 0.1336(9)
C28 C 0.7469(12) 0.4005(9) 0.1700(16)
C29 C 0.9005(9) 0.7531(12) 0.3300(16)
C49 C 0.7217(6) 0.4605(8) 0.1769(9)
C50 C 0.9605(8) 0.7783(6) 0.3231(9)
C52 C 0.6398(6) 0.5208(7) 0.1508(12)
C55 C 0.6759(6) 0.4714(7) 0.1457(12)
C56 C 0.9714(7) 0.8241(6) 0.3543(12)
H16 H 0.6621 0.4421 0.1126
H17 H 0.9421 0.8379 0.3874
C58 C 0.7489(6) 0.5074(6) 0.2293(9)
H19 H 0.7860 0.5032 0.2510
C61 C 0.7166(7) 0.5541(6) 0.2419(13)
C64 C 0.5752(9) 0.5282(11) 0.1116(13)
C67 C 0.6609(6) 0.5646(6) 0.2070(11)
H22 H 0.6389 0.5977 0.2192
C70 C 0.7472(7) 0.6035(9) 0.2935(13)
In1_2 In 1.0000 0.5000 0.7500
O7 O 0.7741(4) 0.2704(4) 0.6715(6)
O8 O 0.9344(5) 0.4221(5) 0.7273(7)
O9 O 0.7372(4) 0.2260(6) 0.7724(5)
O10 O 0.9540(4) 0.4470(5) 0.8354(6)
C1 C 0.8911(5) 0.3685(6) 0.8233(8)
C2 C 0.8616(6) 0.3363(6) 0.7709(9)
H1 H 0.8685 0.3412 0.7179
C3 C 0.8416(5) 0.3153(5) 0.9251(7)
C5 C 0.8186(7) 0.2934(6) 0.7979(7)
C6 C 0.7724(6) 0.2636(6) 0.7448(9)
C7 C 0.9268(7) 0.4203(8) 0.7983(7)
C8 C 0.8846(7) 0.3572(7) 0.9019(8)
H2 H 0.9076 0.3764 0.9387
C10 C 0.8158(7) 0.2826(6) 0.8745(7)
H3 H 0.7945 0.2504 0.8917
In7 In 0.69782(4) 0.20100(4) 0.65944(4)
In9 In 0.70100(4) 0.80218(4) 0.84056(4)
O14 O 0.7709(4) 0.6988(5) 0.4644(4)
O17 O 0.8468(4) 0.6450(5) 0.4417(5)
O40 O 0.7704(4) 0.7259(4) 0.8285(6)
O44 O 0.7296(4) 0.7741(4) 0.3285(6)
O47 O 0.9221(5) 0.5656(5) 0.7727(7)
O50 O 0.7260(6) 0.7628(4) 0.7276(5)
O54 O 0.7740(6) 0.7372(4) 0.2276(5)
O57 O 0.9470(5) 0.5460(4) 0.6646(6)
C20 C 0.8685(6) 0.6089(5) 0.6767(8)
C23 C 0.8363(6) 0.6384(6) 0.7291(9)
H8 H 0.8412 0.6315 0.7821
C26 C 0.8153(5) 0.6584(5) 0.5749(7)
C32 C 0.7934(6) 0.6814(7) 0.7021(7)
C35 C 0.7636(6) 0.7276(6) 0.7552(9)
C38 C 0.9203(8) 0.5732(7) 0.7017(7)
C41 C 0.8572(7) 0.6154(7) 0.5981(8)
H11 H 0.8764 0.5924 0.5613
C44 C 0.8144(9) 0.6700(6) 0.4887(10)
C47 C 0.7826(6) 0.6842(7) 0.6255(7)
H14 H 0.7504 0.7055 0.6083
In1_3 In 0.5000 0.0000 0.2500
O8_2 O 0.4221(5) 0.0656(5) 0.2727(7)
O10_2 O 0.4470(5) 0.0460(4) 0.1646(6)
C1_2 C 0.3685(6) 0.1089(5) 0.1767(8)
C2_2 C 0.3363(6) 0.1384(6) 0.2291(9)
H1_2 H 0.3412 0.1315 0.2821
C3_2 C 0.3153(5) 0.1584(5) 0.0749(7)
C5_2 C 0.2934(6) 0.1814(7) 0.2021(7)
C6_2 C 0.2636(6) 0.2276(6) 0.2552(9)
C7_2 C 0.4203(8) 0.0732(7) 0.2017(7)
C8_2 C 0.3572(7) 0.1154(7) 0.0981(8)
H2_2 H 0.3764 0.0924 0.0613
C10_2 C 0.2826(6) 0.1842(7) 0.1255(7)
H3_2 H 0.2504 0.2055 0.1083
O14_2 O 0.6988(5) 0.2291(4) 0.5356(4)
O17_2 O 0.6450(5) 0.1532(4) 0.5583(5)
O22 O 0.6456(5) 0.2863(5) 0.6872(6)
O27 O 0.6065(5) 0.2051(3) 0.7129(6)
O32 O 0.7691(4) 0.1378(4) 0.6307(5)
O37 O 0.6975(5) 0.1110(4) 0.7119(6)
O47_2 O 0.5656(5) 0.0779(5) 0.2273(7)
O57_2 O 0.5460(4) 0.0530(5) 0.3354(6)
C20_2 C 0.6089(5) 0.1315(6) 0.3233(8)
C23_2 C 0.6384(6) 0.1637(6) 0.2709(9)
H8_2 H 0.6315 0.1588 0.2179
C26_2 C 0.6584(5) 0.1847(5) 0.4251(7)
C32_2 C 0.6814(7) 0.2066(6) 0.2979(7)
C35_2 C 0.7276(6) 0.2364(6) 0.2448(9)
C38_2 C 0.5732(7) 0.0797(8) 0.2983(7)
C41_2 C 0.6154(7) 0.1428(7) 0.4019(8)
H11_2 H 0.5924 0.1236 0.4387
C44_2 C 0.6700(6) 0.1856(9) 0.5113(10)
C47_2 C 0.6842(7) 0.2174(6) 0.3745(7)
H14_2 H 0.7055 0.2496 0.3917
O1_2 O 0.2709(4) 0.1988(5) 0.9644(4)
O2_2 O 0.3468(4) 0.1450(5) 0.9417(5)
O3_2 O 0.2137(5) 0.1456(5) 0.8128(6)
O4_2 O 0.2949(3) 0.1065(5) 0.7871(6)
O12_2 O 0.0468(6) 0.0678(4) 0.6336(9)
C9_2 C 0.3144(9) 0.1700(6) 0.9887(10)
C12_2 C 0.1398(6) 0.0208(7) 0.6508(12)
C14_2 C 0.2489(6) 0.0074(6) 0.7293(9)
H5_2 H 0.2860 0.0032 0.7510
C15_2 C 0.2166(7) 0.0541(6) 0.7419(13)
C16_2 C 0.0752(9) 0.0282(11) 0.6116(13)
C17_2 C 0.1609(6) 0.0646(6) 0.7070(11)
H6_2 H 0.1389 0.0977 0.7192
C18_2 C 0.2472(7) 0.1035(9) 0.7935(13)
O29_2 O 0.3622(4) 0.2691(4) 0.8693(5)
O34_2 O 0.3890(4) 0.1975(5) 0.7881(6)
O59_2 O 0.4895(4) 0.4274(5) 0.9394(8)
O65_2 O 0.5678(4) 0.4532(6) 0.8664(9)
C28_2 C 0.4005(9) 0.2531(12) 0.8300(16)
C29_2 C 0.7531(12) 0.0995(9) 0.6700(16)
C49_2 C 0.4605(8) 0.2783(6) 0.8231(9)
C50_2 C 0.7783(6) 0.0395(8) 0.6769(9)
C52_2 C 0.5208(7) 0.3602(6) 0.8492(12)
C55_2 C 0.4714(7) 0.3241(6) 0.8543(12)
C56_2 C 0.8241(6) 0.0286(7) 0.6457(12)
H16_2 H 0.4421 0.3379 0.8874
H17_2 H 0.8379 0.0579 0.6126
C58_2 C 0.5074(6) 0.2511(6) 0.7707(9)
H19_2 H 0.5032 0.2140 0.7490
C61_2 C 0.5541(6) 0.2834(7) 0.7581(13)
C64_2 C 0.5282(11) 0.4248(9) 0.8884(13)
C67_2 C 0.5646(6) 0.3391(6) 0.7930(11)
H22_2 H 0.5977 0.3611 0.7808
C70_2 C 0.6035(9) 0.2528(7) 0.7065(13)
In1_4 In 0.5000 1.0000 0.2500
O15_2 O 0.3012(5) 0.7709(4) 0.5356(4)
O18_2 O 0.3550(5) 0.8468(4) 0.5583(5)
O23 O 0.3544(5) 0.7137(5) 0.6872(6)
O28 O 0.3935(5) 0.7949(3) 0.7129(6)
O33 O 0.2309(4) 0.8622(4) 0.6307(5)
O38 O 0.3025(5) 0.8890(4) 0.7119(6)
O46_2 O 0.5779(5) 0.9344(5) 0.2727(7)
O48_2 O 0.4344(5) 0.9221(5) 0.2273(7)
O56_2 O 0.5530(5) 0.9540(4) 0.1646(6)
O58_2 O 0.4540(4) 0.9470(5) 0.3354(6)
C19_2 C 0.6315(6) 0.8911(5) 0.1767(8)
C21_2 C 0.3911(5) 0.8685(6) 0.3233(8)
C22_2 C 0.6637(6) 0.8616(6) 0.2291(9)
C24_2 C 0.3616(6) 0.8363(6) 0.2709(9)
H7_2 H 0.6588 0.8685 0.2821
H9_2 H 0.3685 0.8412 0.2179
C25_2 C 0.6847(5) 0.8416(5) 0.0749(7)
C27_2 C 0.3416(5) 0.8153(5) 0.4251(7)
C31_2 C 0.7066(6) 0.8186(7) 0.2021(7)
C33_2 C 0.3186(7) 0.7934(6) 0.2979(7)
C34_2 C 0.7364(6) 0.7724(6) 0.2552(9)
C36_2 C 0.2724(6) 0.7636(6) 0.2448(9)
C37_2 C 0.5797(8) 0.9268(7) 0.2017(7)
C39_2 C 0.4268(7) 0.9203(8) 0.2983(7)
C40_2 C 0.6428(7) 0.8846(7) 0.0981(8)
C42_2 C 0.3846(7) 0.8572(7) 0.4019(8)
H10_2 H 0.6236 0.9076 0.0613
H12_2 H 0.4076 0.8764 0.4387
C45_2 C 0.3300(6) 0.8144(9) 0.5113(10)
C46_2 C 0.7174(6) 0.8158(7) 0.1255(7)
C48_2 C 0.3158(7) 0.7826(6) 0.3745(7)
H13_2 H 0.7496 0.7945 0.1083
H15_2 H 0.2945 0.7504 0.3917
C4_2 C 0.2469(12) 0.9005(9) 0.6700(16)
C11_2 C 0.2217(6) 0.9605(8) 0.6769(9)
C13_2 C 0.1759(6) 0.9714(7) 0.6457(12)
H4_2 H 0.1621 0.9421 0.6126
O13_2 O 0.7291(4) 0.8012(5) 0.9644(4)
O16_2 O 0.6532(4) 0.8550(5) 0.9417(5)
O20_2 O 0.7863(5) 0.8544(5) 0.8128(6)
O25_2 O 0.7051(3) 0.8935(5) 0.7871(6)
O31_2 O 0.6378(4) 0.7309(4) 0.8693(5)
O36_2 O 0.6110(4) 0.8025(5) 0.7881(6)
O61_2 O 0.5105(4) 0.5726(5) 0.9394(8)
O66_2 O 0.9532(6) 0.9322(4) 0.6336(9)
O67_2 O 0.4322(4) 0.5468(6) 0.8664(9)
C30_2 C 0.5995(9) 0.7469(12) 0.8300(16)
C43_2 C 0.6856(9) 0.8300(6) 0.9887(10)
C51_2 C 0.5395(8) 0.7217(6) 0.8231(9)
C53_2 C 0.8602(6) 0.9792(7) 0.6508(12)
C54_2 C 0.4792(7) 0.6398(6) 0.8492(12)
C57_2 C 0.5286(7) 0.6759(6) 0.8543(12)
H18_2 H 0.5579 0.6621 0.8874
C59_2 C 0.7511(6) 0.9926(6) 0.7293(9)
C60_2 C 0.4926(6) 0.7489(6) 0.7707(9)
H20_2 H 0.7140 0.9968 0.7510
H21_2 H 0.4968 0.7860 0.7490
C62_2 C 0.7834(7) 0.9459(6) 0.7419(13)
C63_2 C 0.4459(6) 0.7166(7) 0.7581(13)
C65_2 C 0.9248(9) 0.9718(11) 0.6116(13)
C66_2 C 0.4718(11) 0.5752(9) 0.8884(13)
C68_2 C 0.8391(6) 0.9354(6) 0.7070(11)
C69_2 C 0.4354(6) 0.6609(6) 0.7930(11)
H23_2 H 0.8611 0.9023 0.7192
H24_2 H 0.4023 0.6389 0.7808
C71_2 C 0.7528(7) 0.8965(9) 0.7935(13)
C72_2 C 0.3965(9) 0.7472(7) 0.7065(13)
loop_
_geom_bond_atom_site_label_1
_geom_bond_atom_site_label_2
_geom_bond_site_symmetry_1
_geom_bond_site_symmetry_2
Co3 O11 1_555 1_555
O5 C4 1_555 1_555
O6 C4 1_555 1_555
C4 C11 1_555 1_555
C11 C13 1_555 1_555
C13 H4 1_555 1_555
In3 O13 1_555 1_555
In6 O5 1_555 1_555
Co4 O61 1_555 1_555
O13 C43 1_555 1_555
O16 In3 1_555 1_555
O20 In3 1_555 1_555
O21 In6 1_555 1_555
O25 In3 1_555 1_555
O26 In6 1_555 1_555
O31 In3 1_555 1_555
O36 In3 1_555 1_555
O43 In3 1_555 1_555
O53 In3 1_555 1_555
O61 C66 1_555 1_555
O66 C65 1_555 1_555
O67 C66 1_555 1_555
C30 O31 1_555 1_555
C43 O16 1_555 1_555
C51 C30 1_555 1_555
C54 C57 1_555 1_555
C57 C51 1_555 1_555
H18 C57 1_555 1_555
C60 C51 1_555 1_555
H20 C59 1_555 1_555
H21 C60 1_555 1_555
C62 C59 1_555 1_555
C63 C60 1_555 1_555
C65 C53 1_555 1_555
C66 C54 1_555 1_555
C68 C53 1_555 1_555
C69 C54 1_555 1_555
H23 C68 1_555 1_555
H24 C69 1_555 1_555
C71 O20 1_555 1_555
C72 O21 1_555 1_555
O6 In6 1_555 1_555
O25 C71 1_555 1_555
O26 C72 1_555 1_555
O36 C30 1_555 1_555
C62 C68 1_555 1_555
C62 C71 1_555 1_555
C63 C69 1_555 1_555
C63 C72 1_555 1_555
In6 O15 1_555 1_555
In8 O39 1_555 1_555
In10 O41 1_555 1_555
O15 C45 1_555 1_555
O18 In6 1_555 1_555
O39 C34 1_555 1_555
O41 C36 1_555 1_555
O45 In6 1_555 1_555
O46 In1 1_555 1_555
O48 In1 1_555 1_555
O49 In8 1_555 1_555
O51 In10 1_555 1_555
O55 In6 1_555 1_555
O56 In1 1_555 1_555
O58 In1 1_555 1_555
C19 C22 1_555 1_555
C21 C24 1_555 1_555
C22 H7 1_555 1_555
C24 H9 1_555 1_555
C25 C40 1_555 1_555
C27 C42 1_555 1_555
C31 C22 1_555 1_555
C33 C24 1_555 1_555
C34 O49 1_555 1_555
C36 O51 1_555 1_555
C37 O46 1_555 1_555
C39 O48 1_555 1_555
C40 C19 1_555 1_555
C42 C21 1_555 1_555
H10 C40 1_555 1_555
H12 C42 1_555 1_555
C45 O18 1_555 1_555
C46 C25 1_555 1_555
C48 C27 1_555 1_555
H13 C46 1_555 1_555
H15 C48 1_555 1_555
O56 C37 1_555 1_555
O58 C39 1_555 1_555
C19 C37 1_555 1_555
C21 C39 1_555 1_555
C27 C45 1_555 1_555
C31 C34 1_555 1_555
C31 C46 1_555 1_555
C33 C36 1_555 1_555
C33 C48 1_555 1_555
O63 Co3_2 1_555 1_555
In2 O1 1_555 1_555
O1 C9 1_555 1_555
O2 In2 1_555 1_555
O3 In2 1_555 1_555
O4 In2 1_555 1_555
O12 C16 1_555 1_555
C9 O2 1_555 1_555
H5 C14 1_555 1_555
C15 C14 1_555 1_555
C16 C12 1_555 1_555
C17 C12 1_555 1_555
H6 C17 1_555 1_555
C18 O3 1_555 1_555
In11 O19 1_555 1_555
Co4 O59 1_555 1_555
Co3_4 O60 1_555 1_555
O19 C70 1_555 1_555
O24 In11 1_555 1_555
O29 In2 1_555 1_555
O30 In11 1_555 1_555
O34 In2 1_555 1_555
O35 In11 1_555 1_555
O42 In2 1_555 1_555
O52 In2 1_555 1_555
O59 C64 1_555 1_555
O64 Co3_3 1_555 1_555
O65 C64 1_555 1_555
C28 O29 1_555 1_555
C29 O30 1_555 1_555
C49 C28 1_555 1_555
C50 C29 1_555 1_555
C52 C55 1_555 1_555
C55 C49 1_555 1_555
C56 C50 1_555 1_555
H16 C55 1_555 1_555
H17 C56 1_555 1_555
C58 C49 1_555 1_555
H19 C58 1_555 1_555
C61 C58 1_555 1_555
C64 C52 1_555 1_555
C67 C52 1_555 1_555
H22 C67 1_555 1_555
C70 O24 1_555 1_555
O4 C18 1_555 1_555
C15 C17 1_555 1_555
C15 C18 1_555 1_555
O34 C28 1_555 1_555
O35 C29 1_555 1_555
C61 C67 1_555 1_555
C61 C70 1_555 1_555
In1_2 O8 1_555 1_555
O7 C6 1_555 1_555
O8 C7 1_555 1_555
O9 C6 1_555 1_555
O10 In1_2 1_555 1_555
C1 C2 1_555 1_555
C2 H1 1_555 1_555
C3 C8 1_555 1_555
C5 C2 1_555 1_555
C6 C5 1_555 1_555
C7 O10 1_555 1_555
C8 C1 1_555 1_555
H2 C8 1_555 1_555
C10 C3 1_555 1_555
H3 C10 1_555 1_555
In11 O14 1_555 1_555
In7 O7 1_555 1_555
In9 O40 1_555 1_555
O14 C44 1_555 1_555
O17 In11 1_555 1_555
O40 C35 1_555 1_555
O44 In11 1_555 1_555
O47 In1_2 1_555 1_555
O50 In9 1_555 1_555
O54 In11 1_555 1_555
O57 In1_2 1_555 1_555
C20 C23 1_555 1_555
C23 H8 1_555 1_555
C26 C41 1_555 1_555
C32 C23 1_555 1_555
C35 O50 1_555 1_555
C38 O47 1_555 1_555
C41 C20 1_555 1_555
H11 C41 1_555 1_555
C44 O17 1_555 1_555
C47 C26 1_555 1_555
H14 C47 1_555 1_555
O9 In7 1_555 1_555
C1 C7 1_555 1_555
C5 C10 1_555 1_555
O57 C38 1_555 1_555
C20 C38 1_555 1_555
C26 C44 1_555 1_555
C32 C35 1_555 1_555
C32 C47 1_555 1_555
In1_3 O8_2 1_555 1_555
O45 C6_2 1_555 1_555
O8_2 C7_2 1_555 1_555
O55 C6_2 1_555 1_555
O10_2 In1_3 1_555 1_555
C1_2 C2_2 1_555 1_555
C2_2 H1_2 1_555 1_555
C3_2 C8_2 1_555 1_555
C5_2 C2_2 1_555 1_555
C6_2 C5_2 1_555 1_555
C7_2 O10_2 1_555 1_555
C8_2 C1_2 1_555 1_555
H2_2 C8_2 1_555 1_555
C10_2 C3_2 1_555 1_555
H3_2 C10_2 1_555 1_555
In7 O14_2 1_555 1_555
O14_2 C44_2 1_555 1_555
O17_2 In7 1_555 1_555
O22 In7 1_555 1_555
O27 In7 1_555 1_555
O32 In7 1_555 1_555
O37 In7 1_555 1_555
O42 C35_2 1_555 1_555
O47_2 In1_3 1_555 1_555
O57_2 In1_3 1_555 1_555
C20_2 C23_2 1_555 1_555
C23_2 H8_2 1_555 1_555
C26_2 C41_2 1_555 1_555
C32_2 C23_2 1_555 1_555
C35_2 O52 1_555 1_555
C38_2 O47_2 1_555 1_555
C41_2 C20_2 1_555 1_555
H11_2 C41_2 1_555 1_555
C44_2 O17_2 1_555 1_555
C47_2 C26_2 1_555 1_555
H14_2 C47_2 1_555 1_555
C1_2 C7_2 1_555 1_555
C5_2 C10_2 1_555 1_555
O57_2 C38_2 1_555 1_555
C20_2 C38_2 1_555 1_555
C26_2 C44_2 1_555 1_555
C32_2 C35_2 1_555 1_555
C32_2 C47_2 1_555 1_555
In10 O1_2 1_555 1_555
O1_2 C9_2 1_555 1_555
O2_2 In10 1_555 1_555
O3_2 In10 1_555 1_555
O4_2 In10 1_555 1_555
O12_2 C16_2 1_555 1_555
C9_2 O2_2 1_555 1_555
H5_2 C14_2 1_555 1_555
C15_2 C14_2 1_555 1_555
C16_2 C12_2 1_555 1_555
C17_2 C12_2 1_555 1_555
H6_2 C17_2 1_555 1_555
C18_2 O3_2 1_555 1_555
Co4_2 O59_2 1_555 1_555
O22 C70_2 1_555 1_555
O29_2 In10 1_555 1_555
O34_2 In10 1_555 1_555
O59_2 C64_2 1_555 1_555
O65_2 C64_2 1_555 1_555
C28_2 O29_2 1_555 1_555
C29_2 O32 1_555 1_555
C49_2 C28_2 1_555 1_555
C50_2 C29_2 1_555 1_555
C52_2 C55_2 1_555 1_555
C55_2 C49_2 1_555 1_555
C56_2 C50_2 1_555 1_555
H16_2 C55_2 1_555 1_555
H17_2 C56_2 1_555 1_555
C58_2 C49_2 1_555 1_555
H19_2 C58_2 1_555 1_555
C61_2 C58_2 1_555 1_555
C64_2 C52_2 1_555 1_555
C67_2 C52_2 1_555 1_555
H22_2 C67_2 1_555 1_555
C70_2 O27 1_555 1_555
O4_2 C18_2 1_555 1_555
C15_2 C17_2 1_555 1_555
C15_2 C18_2 1_555 1_555
O34_2 C28_2 1_555 1_555
O37 C29_2 1_555 1_555
C61_2 C67_2 1_555 1_555
C61_2 C70_2 1_555 1_555
In8 O15_2 1_555 1_555
O15_2 C45_2 1_555 1_555
O18_2 In8 1_555 1_555
O23 In8 1_555 1_555
O28 In8 1_555 1_555
O33 In8 1_555 1_555
O38 In8 1_555 1_555
O44 C34_2 1_555 1_555
O43 C36_2 1_555 1_555
O46_2 In1_4 1_555 1_555
O48_2 In1_4 1_555 1_555
O56_2 In1_4 1_555 1_555
O58_2 In1_4 1_555 1_555
C19_2 C22_2 1_555 1_555
C21_2 C24_2 1_555 1_555
C22_2 H7_2 1_555 1_555
C24_2 H9_2 1_555 1_555
C25_2 C40_2 1_555 1_555
C27_2 C42_2 1_555 1_555
C31_2 C22_2 1_555 1_555
C33_2 C24_2 1_555 1_555
C34_2 O54 1_555 1_555
C36_2 O53 1_555 1_555
C37_2 O46_2 1_555 1_555
C39_2 O48_2 1_555 1_555
C40_2 C19_2 1_555 1_555
C42_2 C21_2 1_555 1_555
H10_2 C40_2 1_555 1_555
H12_2 C42_2 1_555 1_555
C45_2 O18_2 1_555 1_555
C46_2 C25_2 1_555 1_555
C48_2 C27_2 1_555 1_555
H13_2 C46_2 1_555 1_555
H15_2 C48_2 1_555 1_555
O56_2 C37_2 1_555 1_555
O58_2 C39_2 1_555 1_555
C19_2 C37_2 1_555 1_555
C21_2 C39_2 1_555 1_555
C27_2 C45_2 1_555 1_555
C31_2 C34_2 1_555 1_555
C31_2 C46_2 1_555 1_555
C33_2 C36_2 1_555 1_555
C33_2 C48_2 1_555 1_555
O33 C4_2 1_555 1_555
O38 C4_2 1_555 1_555
C4_2 C11_2 1_555 1_555
C11_2 C13_2 1_555 1_555
C13_2 H4_2 1_555 1_555
In9 O13_2 1_555 1_555
Co4_2 O61_2 1_555 1_555
O13_2 C43_2 1_555 1_555
O16_2 In9 1_555 1_555
O20_2 In9 1_555 1_555
O25_2 In9 1_555 1_555
O31_2 In9 1_555 1_555
O36_2 In9 1_555 1_555
O61_2 C66_2 1_555 1_555
O66_2 C65_2 1_555 1_555
O67_2 C66_2 1_555 1_555
C30_2 O31_2 1_555 1_555
C43_2 O16_2 1_555 1_555
C51_2 C30_2 1_555 1_555
C54_2 C57_2 1_555 1_555
C57_2 C51_2 1_555 1_555
H18_2 C57_2 1_555 1_555
C60_2 C51_2 1_555 1_555
H20_2 C59_2 1_555 1_555
H21_2 C60_2 1_555 1_555
C62_2 C59_2 1_555 1_555
C63_2 C60_2 1_555 1_555
C65_2 C53_2 1_555 1_555
C66_2 C54_2 1_555 1_555
C68_2 C53_2 1_555 1_555
C69_2 C54_2 1_555 1_555
H23_2 C68_2 1_555 1_555
H24_2 C69_2 1_555 1_555
C71_2 O20_2 1_555 1_555
C72_2 O23 1_555 1_555
O25_2 C71_2 1_555 1_555
O28 C72_2 1_555 1_555
O36_2 C30_2 1_555 1_555
C62_2 C68_2 1_555 1_555
C62_2 C71_2 1_555 1_555
C63_2 C69_2 1_555 1_555
C63_2 C72_2 1_555 1_555

#END
