
###############################################################################
#
# This file contains modified crystal structure data generated from the
# MOF subset of the Cambridge Structural Database (CSD) v543 
# hosted by the Cambridge Crystallographic Data Centre (CCDC).
#
# This work is licensed under the Creative Commons
# Attribution-NonCommercial-ShareAlike 4.0 International License.
# To view a copy of this license, visit
# http://creativecommons.org/licenses/by-nc-sa/4.0/
# or send a letter to
# Creative Commons, PO Box 1866, Mountain View, CA 94042, USA.
#
# CIF created using the CSD Python API on 29 September 2022
# The structure has been converted into the P1 space group
# The structure has a 3D framework
# The original CSD entry WEBREC is in the monoclinic crystal system
# The framework has been calculated to contain at least 10.0% void space
# The void calculation uses a probe of radius 1.32A, grid spacing 0.4
#
###############################################################################

data_WEBREC
_chemical_formula_moiety         '(C100 H64 N4 O20 Zn4)n'
_symmetry_cell_setting           triclinic
_symmetry_space_group_name_H-M   'P 1'
_symmetry_Int_Tables_number      1
_space_group_name_Hall           'P 1'
loop_
_symmetry_equiv_pos_site_id
_symmetry_equiv_pos_as_xyz
1 x,y,z
_cell_length_a                   13.289(3)
_cell_length_b                   16.467(3)
_cell_length_c                   13.711(3)
_cell_angle_alpha                90
_cell_angle_beta                 117.02(3)
_cell_angle_gamma                90
_cell_volume                     2672.88
loop_
_atom_site_label
_atom_site_type_symbol
_atom_site_fract_x
_atom_site_fract_y
_atom_site_fract_z
Zn5 Zn 0.092517(13) 0.997043(8) 0.614221(12)
Zn8 Zn 0.907483(13) 0.002957(8) 0.385779(12)
O2 O 0.14083(10) 0.58118(7) 0.02770(10)
O3 O 0.36076(11) 0.83324(7) 0.03387(10)
O4 O 0.55446(12) 0.73153(11) 0.46424(11)
O5 O 0.86414(10) 0.90871(7) 0.45701(9)
O6 O 0.99928(10) 0.90510(7) 0.63073(9)
H8 H 0.2547 0.7044 0.0555
C13 C 0.41073(13) 0.80725(9) 0.14178(13)
C14 C 0.47883(14) 0.73880(11) 0.17201(14)
H9 H 0.4906 0.7097 0.12
C15 C 0.52930(14) 0.71402(12) 0.28062(14)
H10 H 0.5751 0.6681 0.3023
C16 C 0.51019(15) 0.75895(12) 0.35625(14)
C17 C 0.44413(17) 0.82800(12) 0.32652(15)
H11 H 0.4337 0.8577 0.3789
C18 C 0.39339(16) 0.85277(10) 0.21783(15)
H12 H 0.3485 0.8991 0.1965
C19 C 0.66481(13) 0.75077(9) 0.53263(12)
C20 C 0.71022(14) 0.71445(9) 0.63593(14)
H13 H 0.6668 0.6789 0.6539
C21 C 0.82034(14) 0.73183(10) 0.71136(14)
H14 H 0.8515 0.7071 0.7798
C22 C 0.88462(12) 0.78629(9) 0.68498(12)
H15 H 0.9582 0.7983 0.7362
C23 C 0.83872(11) 0.82273(8) 0.58186(11)
C24 C 0.72830(13) 0.80458(9) 0.50442(12)
H16 H 0.6977 0.828 0.4352
C25 C 0.90600(11) 0.88335(7) 0.55409(11)
Zn6 Zn 0.092517(13) 0.502957(8) 0.114221(12)
Zn1 Zn 0.907483(13) 0.497043(8) 0.885779(12)
N1 N 0.76121(11) 0.49957(6) 0.74219(10)
C1 C 0.66289(13) 0.48816(10) 0.74632(12)
H1 H 0.6645 0.4797 0.8141
C2 C 0.55939(13) 0.48847(10) 0.65348(12)
H2 H 0.4933 0.4807 0.6598
C3 C 0.55436(11) 0.50039(6) 0.55088(10)
C4 C 0.65707(12) 0.51272(9) 0.54766(11)
H3 H 0.6582 0.5212 0.4811
C5 C 0.75717(12) 0.51211(9) 0.64454(12)
H4 H 0.8246 0.5209 0.641
O10 O 0.85917(10) 0.41882(7) 0.97230(10)
O14 O 0.13586(10) 0.40871(7) 0.04299(9)
O15 O 0.86414(10) 0.59129(7) 0.95701(9)
N2 N 0.23879(11) 0.50043(6) 0.25781(10)
C26 C 0.33711(13) 0.51184(10) 0.25368(12)
H17 H 0.3355 0.5203 0.1859
C27 C 0.44061(13) 0.51153(10) 0.34652(12)
H18 H 0.5067 0.5193 0.3402
C28 C 0.44564(11) 0.49961(6) 0.44912(10)
C29 C 0.34293(12) 0.48728(9) 0.45234(11)
H19 H 0.3418 0.4788 0.5189
C30 C 0.24283(12) 0.48789(9) 0.35546(12)
H20 H 0.1754 0.4791 0.359
O11 O 0.63924(11) 0.16676(7) 0.96613(10)
O12 O 0.44554(12) 0.26847(11) 0.53576(11)
O13 O 0.13586(10) 0.09129(7) 0.54299(9)
O16 O 0.00072(10) 0.09490(7) 0.36927(9)
H24 H 0.7453 0.2956 0.9445
C38 C 0.58927(13) 0.19275(9) 0.85822(13)
C39 C 0.52117(14) 0.26120(11) 0.82799(14)
H25 H 0.5094 0.2903 0.88
C40 C 0.47070(14) 0.28598(12) 0.71938(14)
H26 H 0.4249 0.3319 0.6977
C41 C 0.48981(15) 0.24105(12) 0.64375(14)
C42 C 0.55587(17) 0.17200(12) 0.67348(15)
H27 H 0.5663 0.1423 0.6211
C43 C 0.60661(16) 0.14723(10) 0.78217(15)
H28 H 0.6515 0.1009 0.8035
C44 C 0.33519(13) 0.24923(9) 0.46737(12)
C45 C 0.28978(14) 0.28555(9) 0.36407(14)
H29 H 0.3332 0.3211 0.3461
C46 C 0.17966(14) 0.26817(10) 0.28864(14)
H30 H 0.1485 0.2929 0.2202
C47 C 0.11538(12) 0.21371(9) 0.31502(12)
H31 H 0.0418 0.2017 0.2638
C48 C 0.16128(11) 0.17727(8) 0.41814(11)
C49 C 0.27170(13) 0.19542(9) 0.49558(12)
H32 H 0.3023 0.172 0.5648
C50 C 0.09400(11) 0.11665(7) 0.44591(11)
O7 O 0.00783(10) 0.92611(7) 0.35321(9)
O8 O 0.14083(10) 0.91882(7) 0.52770(10)
O11_2 O 0.36076(11) 0.66676(7) 0.53387(10)
O12_2 O 0.55446(12) 0.76847(11) 0.96424(11)
C31 C 0.09726(11) 0.89774(8) 0.42885(11)
C32 C 0.15588(11) 0.83153(8) 0.39907(11)
C33 C 0.12805(12) 0.81512(9) 0.29015(11)
H21 H 0.075 0.8469 0.2345
C34 C 0.18058(13) 0.75048(9) 0.26525(12)
H22 H 0.1625 0.7394 0.1926
C35 C 0.25938(13) 0.70270(9) 0.34786(13)
H23 H 0.2943 0.6599 0.3309
C36 C 0.28580(12) 0.71936(8) 0.45650(12)
C37 C 0.23548(12) 0.78406(8) 0.48279(11)
H24_2 H 0.2547 0.7956 0.5555
C38_2 C 0.41073(13) 0.69275(9) 0.64178(13)
C39_2 C 0.47883(14) 0.76120(11) 0.67201(14)
H25_2 H 0.4906 0.7903 0.62
C40_2 C 0.52930(14) 0.78598(12) 0.78062(14)
H26_2 H 0.5751 0.8319 0.8023
C41_2 C 0.51019(15) 0.74105(12) 0.85625(14)
C42_2 C 0.44413(17) 0.67200(12) 0.82652(15)
H27_2 H 0.4337 0.6423 0.8789
C43_2 C 0.39339(16) 0.64723(10) 0.71783(15)
H28_2 H 0.3485 0.6009 0.6965
H32_2 H 0.6977 0.672 0.9352
H3_2 H 0.3418 0.0212 0.0189
O9 O 0.85917(10) 0.08118(7) 0.47230(10)
N2_2 N 0.76121(11) 0.00043(6) 0.24219(10)
C26_2 C 0.66289(13) 0.01184(10) 0.24632(12)
H17_2 H 0.6645 0.0203 0.3141
C27_2 C 0.55939(13) 0.01153(10) 0.15348(12)
H18_2 H 0.4933 0.0193 0.1598
C3_2 C 0.44564(11) 0.00039(6) 0.94912(10)
C4_2 C 0.34293(12) 0.01272(9) 0.95234(11)
C5_2 C 0.24283(12) 0.01211(9) 0.85546(12)
H4_2 H 0.1754 0.0209 0.859
C28_2 C 0.55436(11) 0.99961(6) 0.05088(10)
C29_2 C 0.65707(12) 0.98728(9) 0.04766(11)
C30_2 C 0.75717(12) 0.98789(9) 0.14454(12)
H20_2 H 0.8246 0.9791 0.141
N1_2 N 0.23879(11) 0.99957(6) 0.75781(10)
C1_2 C 0.33711(13) 0.98816(10) 0.75368(12)
H1_2 H 0.3355 0.9797 0.6859
C2_2 C 0.44061(13) 0.98847(10) 0.84652(12)
H2_2 H 0.5067 0.9807 0.8402
H19_2 H 0.6582 0.9788 0.9811
O1 O 0.99217(10) 0.07389(7) 0.64679(9)
O3_2 O 0.63924(11) 0.33324(7) 0.46613(10)
O4_2 O 0.44554(12) 0.23153(11) 0.03576(11)
C6 C 0.90274(11) 0.10226(8) 0.57115(11)
C7 C 0.84412(11) 0.16847(8) 0.60093(11)
C8 C 0.87195(12) 0.18488(9) 0.70985(11)
H5 H 0.925 0.1531 0.7655
C9 C 0.81942(13) 0.24952(9) 0.73475(12)
H6 H 0.8375 0.2606 0.8074
C10 C 0.74062(13) 0.29730(9) 0.65214(13)
H7 H 0.7057 0.3401 0.6691
C11 C 0.71420(12) 0.28064(8) 0.54350(12)
C12 C 0.76452(12) 0.21594(8) 0.51721(11)
H8_2 H 0.7453 0.2044 0.4445
C13_2 C 0.58927(13) 0.30725(9) 0.35822(13)
C14_2 C 0.52117(14) 0.23880(11) 0.32799(14)
H9_2 H 0.5094 0.2097 0.38
C15_2 C 0.47070(14) 0.21402(12) 0.21938(14)
H10_2 H 0.4249 0.1681 0.1977
C16_2 C 0.48981(15) 0.25895(12) 0.14375(14)
C17_2 C 0.55587(17) 0.32800(12) 0.17348(15)
H11_2 H 0.5663 0.3577 0.1211
C18_2 C 0.60661(16) 0.35277(10) 0.28217(15)
H12_2 H 0.6515 0.3991 0.3035
H16_2 H 0.3023 0.328 0.0648
O1_2 O 0.00783(10) 0.57389(7) 0.85321(9)
C6_2 C 0.09726(11) 0.60226(8) 0.92885(11)
C7_2 C 0.15588(11) 0.66847(8) 0.89907(11)
C8_2 C 0.12805(12) 0.68488(9) 0.79015(11)
H5_2 H 0.075 0.6531 0.7345
C9_2 C 0.18058(13) 0.74952(9) 0.76525(12)
H6_2 H 0.1625 0.7606 0.6926
C10_2 C 0.25938(13) 0.79730(9) 0.84786(13)
H7_2 H 0.2943 0.8401 0.8309
C11_2 C 0.28580(12) 0.78064(8) 0.95650(12)
C12_2 C 0.23548(12) 0.71594(8) 0.98279(11)
O17 O 0.00072(10) 0.40510(7) 0.86927(9)
C19_2 C 0.33519(13) 0.25077(9) 0.96737(12)
C20_2 C 0.28978(14) 0.21445(9) 0.86407(14)
H13_2 H 0.3332 0.1789 0.8461
C21_2 C 0.17966(14) 0.23183(10) 0.78864(14)
H14_2 H 0.1485 0.2071 0.7202
C22_2 C 0.11538(12) 0.28629(9) 0.81502(12)
H15_2 H 0.0418 0.2983 0.7638
C23_2 C 0.16128(11) 0.32273(8) 0.91814(11)
C24_2 C 0.27170(13) 0.30458(9) 0.99558(12)
C25_2 C 0.09400(11) 0.38335(7) 0.94591(11)
O7_2 O 0.99217(10) 0.42611(7) 0.14679(9)
O18 O 0.99928(10) 0.59490(7) 0.13073(9)
C31_2 C 0.90274(11) 0.39774(8) 0.07115(11)
C32_2 C 0.84412(11) 0.33153(8) 0.10093(11)
C33_2 C 0.87195(12) 0.31512(9) 0.20985(11)
H21_2 H 0.925 0.3469 0.2655
C34_2 C 0.81942(13) 0.25048(9) 0.23475(12)
H22_2 H 0.8375 0.2394 0.3074
C35_2 C 0.74062(13) 0.20270(9) 0.15214(13)
H23_2 H 0.7057 0.1599 0.1691
C36_2 C 0.71420(12) 0.21936(8) 0.04350(12)
C37_2 C 0.76452(12) 0.28406(8) 0.01721(11)
C44_2 C 0.66481(13) 0.74923(9) 0.03263(12)
C45_2 C 0.71022(14) 0.78555(9) 0.13593(14)
H29_2 H 0.6668 0.8211 0.1539
C46_2 C 0.82034(14) 0.76817(10) 0.21136(14)
H30_2 H 0.8515 0.7929 0.2798
C47_2 C 0.88462(12) 0.71371(9) 0.18498(12)
H31_2 H 0.9582 0.7017 0.2362
C48_2 C 0.83872(11) 0.67727(8) 0.08186(11)
C49_2 C 0.72830(13) 0.69542(9) 0.00442(12)
C50_2 C 0.90600(11) 0.61665(7) 0.05409(11)
loop_
_geom_bond_atom_site_label_1
_geom_bond_atom_site_label_2
_geom_bond_site_symmetry_1
_geom_bond_site_symmetry_2
O4 C16 1_555 1_555
O5 C25 1_555 1_555
O6 C25 1_555 1_555
C13 O3 1_555 1_555
C14 C13 1_555 1_555
H9 C14 1_555 1_555
C15 C14 1_555 1_555
H10 C15 1_555 1_555
C16 C15 1_555 1_555
C17 C16 1_555 1_555
H11 C17 1_555 1_555
C18 C13 1_555 1_555
H12 C18 1_555 1_555
C19 O4 1_555 1_555
C20 C19 1_555 1_555
H13 C20 1_555 1_555
C21 C20 1_555 1_555
H14 C21 1_555 1_555
C22 C21 1_555 1_555
H15 C22 1_555 1_555
C23 C22 1_555 1_555
C24 C19 1_555 1_555
H16 C24 1_555 1_555
C25 C23 1_555 1_555
Zn6 O2 1_555 1_555
C17 C18 1_555 1_555
C23 C24 1_555 1_555
N1 Zn1 1_555 1_555
C1 N1 1_555 1_555
H1 C1 1_555 1_555
C2 C1 1_555 1_555
H2 C2 1_555 1_555
C3 C2 1_555 1_555
C4 C3 1_555 1_555
H3 C4 1_555 1_555
C5 N1 1_555 1_555
H4 C5 1_555 1_555
O10 Zn1 1_555 1_555
O14 Zn6 1_555 1_555
O15 Zn1 1_555 1_555
N2 Zn6 1_555 1_555
C26 N2 1_555 1_555
H17 C26 1_555 1_555
C27 C26 1_555 1_555
H18 C27 1_555 1_555
C28 C3 1_555 1_555
C29 C28 1_555 1_555
H19 C29 1_555 1_555
C30 N2 1_555 1_555
H20 C30 1_555 1_555
C4 C5 1_555 1_555
C27 C28 1_555 1_555
C29 C30 1_555 1_555
O12 C41 1_555 1_555
O13 C50 1_555 1_555
O16 C50 1_555 1_555
C38 O11 1_555 1_555
C39 C38 1_555 1_555
H25 C39 1_555 1_555
C40 C39 1_555 1_555
H26 C40 1_555 1_555
C41 C40 1_555 1_555
C42 C41 1_555 1_555
H27 C42 1_555 1_555
C43 C38 1_555 1_555
H28 C43 1_555 1_555
C44 O12 1_555 1_555
C45 C44 1_555 1_555
H29 C45 1_555 1_555
C46 C45 1_555 1_555
H30 C46 1_555 1_555
C47 C46 1_555 1_555
H31 C47 1_555 1_555
C48 C47 1_555 1_555
C49 C44 1_555 1_555
H32 C49 1_555 1_555
C50 C48 1_555 1_555
C42 C43 1_555 1_555
C48 C49 1_555 1_555
Zn5 O8 1_555 1_555
O7 C31 1_555 1_555
O8 C31 1_555 1_555
O11_2 C36 1_555 1_555
O12_2 C41_2 1_555 1_555
C31 C32 1_555 1_555
C32 C33 1_555 1_555
C33 H21 1_555 1_555
C34 C33 1_555 1_555
H22 C34 1_555 1_555
C35 C34 1_555 1_555
H23 C35 1_555 1_555
C36 C35 1_555 1_555
C37 C32 1_555 1_555
H24_2 C37 1_555 1_555
C38_2 O11_2 1_555 1_555
C39_2 C38_2 1_555 1_555
H25_2 C39_2 1_555 1_555
C40_2 C39_2 1_555 1_555
H26_2 C40_2 1_555 1_555
C41_2 C40_2 1_555 1_555
C42_2 C41_2 1_555 1_555
H27_2 C42_2 1_555 1_555
C43_2 C38_2 1_555 1_555
H28_2 C43_2 1_555 1_555
C36 C37 1_555 1_555
C42_2 C43_2 1_555 1_555
O9 Zn8 1_555 1_555
N2_2 Zn8 1_555 1_555
C26_2 N2_2 1_555 1_555
H17_2 C26_2 1_555 1_555
C27_2 C26_2 1_555 1_555
H18_2 C27_2 1_555 1_555
C4_2 C3_2 1_555 1_555
H4_2 C5_2 1_555 1_555
C4_2 C5_2 1_555 1_555
C29_2 C28_2 1_555 1_555
H20_2 C30_2 1_555 1_555
C29_2 C30_2 1_555 1_555
N1_2 Zn5 1_555 1_555
C1_2 N1_2 1_555 1_555
H1_2 C1_2 1_555 1_555
C2_2 C1_2 1_555 1_555
H2_2 C2_2 1_555 1_555
O1 C6 1_555 1_555
O9 C6 1_555 1_555
O3_2 C11 1_555 1_555
O4_2 C16_2 1_555 1_555
C6 C7 1_555 1_555
C7 C8 1_555 1_555
C8 H5 1_555 1_555
C9 C8 1_555 1_555
H6 C9 1_555 1_555
C10 C9 1_555 1_555
H7 C10 1_555 1_555
C11 C10 1_555 1_555
C12 C7 1_555 1_555
H8_2 C12 1_555 1_555
C13_2 O3_2 1_555 1_555
C14_2 C13_2 1_555 1_555
H9_2 C14_2 1_555 1_555
C15_2 C14_2 1_555 1_555
H10_2 C15_2 1_555 1_555
C16_2 C15_2 1_555 1_555
C17_2 C16_2 1_555 1_555
H11_2 C17_2 1_555 1_555
C18_2 C13_2 1_555 1_555
H12_2 C18_2 1_555 1_555
C11 C12 1_555 1_555
C17_2 C18_2 1_555 1_555
O1_2 C6_2 1_555 1_555
C6_2 C7_2 1_555 1_555
C7_2 C8_2 1_555 1_555
C8_2 H5_2 1_555 1_555
C9_2 C8_2 1_555 1_555
H6_2 C9_2 1_555 1_555
C10_2 C9_2 1_555 1_555
H7_2 C10_2 1_555 1_555
C11_2 C10_2 1_555 1_555
C12_2 C7_2 1_555 1_555
C11_2 C12_2 1_555 1_555
O17 C25_2 1_555 1_555
C20_2 C19_2 1_555 1_555
H13_2 C20_2 1_555 1_555
C21_2 C20_2 1_555 1_555
H14_2 C21_2 1_555 1_555
C22_2 C21_2 1_555 1_555
H15_2 C22_2 1_555 1_555
C23_2 C22_2 1_555 1_555
C24_2 C19_2 1_555 1_555
C25_2 C23_2 1_555 1_555
C23_2 C24_2 1_555 1_555
O7_2 C31_2 1_555 1_555
C31_2 C32_2 1_555 1_555
C32_2 C33_2 1_555 1_555
C33_2 H21_2 1_555 1_555
C34_2 C33_2 1_555 1_555
H22_2 C34_2 1_555 1_555
C35_2 C34_2 1_555 1_555
H23_2 C35_2 1_555 1_555
C36_2 C35_2 1_555 1_555
C37_2 C32_2 1_555 1_555
C36_2 C37_2 1_555 1_555
O18 C50_2 1_555 1_555
C45_2 C44_2 1_555 1_555
H29_2 C45_2 1_555 1_555
C46_2 C45_2 1_555 1_555
H30_2 C46_2 1_555 1_555
C47_2 C46_2 1_555 1_555
H31_2 C47_2 1_555 1_555
C48_2 C47_2 1_555 1_555
C49_2 C44_2 1_555 1_555
C50_2 C48_2 1_555 1_555
C48_2 C49_2 1_555 1_555

#END
