
###############################################################################
#
# This file contains modified crystal structure data generated from the
# MOF subset of the Cambridge Structural Database (CSD) v543 
# hosted by the Cambridge Crystallographic Data Centre (CCDC).
#
# This work is licensed under the Creative Commons
# Attribution-NonCommercial-ShareAlike 4.0 International License.
# To view a copy of this license, visit
# http://creativecommons.org/licenses/by-nc-sa/4.0/
# or send a letter to
# Creative Commons, PO Box 1866, Mountain View, CA 94042, USA.
#
# CIF created using the CSD Python API on 29 September 2022
# The structure has been converted into the P1 space group
# The structure has a 3D framework
# The original CSD entry WEBTOP is in the tetragonal crystal system
# The framework has been calculated to contain at least 10.0% void space
# The void calculation uses a probe of radius 1.32A, grid spacing 0.4
#
###############################################################################

data_WEBTOP
_chemical_formula_moiety         '(C560 H208 Cu40 O192)n'
_symmetry_cell_setting           triclinic
_symmetry_space_group_name_H-M   'P 1'
_symmetry_Int_Tables_number      1
_space_group_name_Hall           'P 1'
loop_
_symmetry_equiv_pos_site_id
_symmetry_equiv_pos_as_xyz
1 x,y,z
_cell_length_a                   26.027(5)
_cell_length_b                   26.027
_cell_length_c                   42.184(13)
_cell_angle_alpha                90
_cell_angle_beta                 90
_cell_angle_gamma                90
_cell_volume                     28575.6
loop_
_atom_site_label
_atom_site_type_symbol
_atom_site_fract_x
_atom_site_fract_y
_atom_site_fract_z
_atom_site_U_iso_or_equiv
_atom_site_thermal_displace_type
Cu15 Cu -0.000 0.3092(21) 0.500 0.0064 Uiso
Cu17 Cu -0.000 0.6908(21) 0.500 0.0064 Uiso
Cu18 Cu -0.000 0.4031(20) 0.500 0.0064 Uiso
Cu20 Cu -0.000 0.5969(20) 0.500 0.0064 Uiso
C1 C 0.500 0.18867(30) 0.33095(29) 0.0256 Uiso
C2 C 0.500 0.21084(30) 0.30236(29) 0.0256 Uiso
C3 C 0.453(6) 0.17791(30) 0.34468(29) 0.0256 Uiso
C4 C 0.500 0.14753(30) 0.38906(29) 0.0256 Uiso
H1 H 0.500 0.13260(30) 0.41304(29) 0.0290 Uiso
C5 C 0.500 0.23323(30) 0.27535(29) 0.0256 Uiso
C6 C 0.500 0.25655(30) 0.24712(29) 0.0256 Uiso
C7 C 0.500 0.30450(30) 0.19015(29) 0.0256 Uiso
H2 H 0.500 0.32376(30) 0.16740(29) 0.0290 Uiso
C8 C 0.354(6) 0.06628(30) 0.45806(29) 0.0256 Uiso
C9 C 0.354(7) 0.10034(30) 0.43025(29) 0.0256 Uiso
C10 C 0.307(8) 0.11498(30) 0.41760(29) 0.0256 Uiso
C11 C 0.308(8) 0.14532(30) 0.39009(29) 0.0256 Uiso
C12 C 0.355(9) 0.15925(30) 0.37751(29) 0.0256 Uiso
C13 C 0.403(7) 0.14412(30) 0.38959(29) 0.0256 Uiso
C14 C 0.401(7) 0.11338(30) 0.41705(29) 0.0256 Uiso
C15 C 0.452(6) 0.15622(30) 0.37534(29) 0.0256 Uiso
H3 H 0.418(26) 0.18490(30) 0.33279(29) 0.0290 Uiso
H4 H 0.436(27) 0.09931(30) 0.42724(29) 0.0290 Uiso
H5 H 0.271(30) 0.10383(30) 0.42725(29) 0.0290 Uiso
H6 H 0.35(5) 0.18321(30) 0.35651(29) 0.0290 Uiso
H7 H 0.416(28) 0.25848(30) 0.24358(29) 0.0290 Uiso
C16 C 0.453(7) 0.26767(30) 0.23329(29) 0.0256 Uiso
C17 C 0.453(6) 0.29252(30) 0.20369(29) 0.0256 Uiso
C18 C 0.404(5) 0.30331(30) 0.18842(29) 0.0256 Uiso
C19 C 0.259(5) 0.15847(30) 0.37502(29) 0.0256 Uiso
O1 O 0.3100(34) 0.05264(30) 0.46846(29) 0.0353 Uiso
O2 O 0.3982(31) 0.05266(30) 0.46843(29) 0.0353 Uiso
O3 O 0.2171(26) 0.14090(30) 0.38605(29) 0.0353 Uiso
O4 O 0.263(4) 0.18761(30) 0.34973(29) 0.0353 Uiso
O5 O 0.3618(35) 0.28604(30) 0.19973(29) 0.0353 Uiso
O6 O 0.4078(35) 0.3320(30) 0.16291(29) 0.0353 Uiso
Cu1 Cu 0.1529(8) 0.1529(8) 0.3637(8) 0.0064 Uiso
Cu2 Cu 0.2021(8) 0.2021(8) 0.3244(8) 0.0064 Uiso
Cu3 Cu 0.3092(21) 0.000 0.500 0.0064 Uiso
Cu4 Cu 0.4031(20) 0.000 0.500 0.0064 Uiso
C20 C 0.547(6) 0.17791(30) 0.34468(29) 0.0256 Uiso
C21 C 0.646(6) 0.06628(30) 0.45806(29) 0.0256 Uiso
C22 C 0.646(7) 0.10034(30) 0.43025(29) 0.0256 Uiso
C23 C 0.693(8) 0.11498(30) 0.41760(29) 0.0256 Uiso
C24 C 0.692(8) 0.14532(30) 0.39009(29) 0.0256 Uiso
C25 C 0.645(9) 0.15925(30) 0.37751(29) 0.0256 Uiso
C26 C 0.597(7) 0.14412(30) 0.38959(29) 0.0256 Uiso
C27 C 0.599(7) 0.11338(30) 0.41705(29) 0.0256 Uiso
C28 C 0.548(6) 0.15622(30) 0.37534(29) 0.0256 Uiso
H8 H 0.582(26) 0.18490(30) 0.33279(29) 0.0290 Uiso
H9 H 0.564(27) 0.09931(30) 0.42724(29) 0.0290 Uiso
H10 H 0.729(30) 0.10383(30) 0.42725(29) 0.0290 Uiso
H11 H 0.65(5) 0.18321(30) 0.35651(29) 0.0290 Uiso
H12 H 0.584(28) 0.25848(30) 0.24358(29) 0.0290 Uiso
C29 C 0.547(7) 0.26767(30) 0.23329(29) 0.0256 Uiso
C30 C 0.547(6) 0.29252(30) 0.20369(29) 0.0256 Uiso
C31 C 0.596(5) 0.30331(30) 0.18842(29) 0.0256 Uiso
C32 C 0.741(5) 0.15847(30) 0.37502(29) 0.0256 Uiso
O7 O 0.6900(34) 0.05264(30) 0.46846(29) 0.0353 Uiso
O8 O 0.6018(31) 0.05266(30) 0.46843(29) 0.0353 Uiso
O9 O 0.7829(26) 0.14090(30) 0.38605(29) 0.0353 Uiso
O10 O 0.737(4) 0.18761(30) 0.34973(29) 0.0353 Uiso
O11 O 0.6382(35) 0.28604(30) 0.19973(29) 0.0353 Uiso
O12 O 0.5922(35) 0.3320(30) 0.16291(29) 0.0353 Uiso
C33 C 0.81133(30) 0.500 0.33095(29) 0.0256 Uiso
C34 C 0.78916(30) 0.500 0.30236(29) 0.0256 Uiso
C35 C 0.82209(30) 0.453(6) 0.34468(29) 0.0256 Uiso
C36 C 0.85247(30) 0.500 0.38906(29) 0.0256 Uiso
H13 H 0.86740(30) 0.500 0.41304(29) 0.0290 Uiso
C37 C 0.76677(30) 0.500 0.27535(29) 0.0256 Uiso
C38 C 0.74345(30) 0.500 0.24712(29) 0.0256 Uiso
C39 C 0.69550(30) 0.500 0.19015(29) 0.0256 Uiso
H14 H 0.67624(30) 0.500 0.16740(29) 0.0290 Uiso
C40 C 0.93372(30) 0.354(6) 0.45806(29) 0.0256 Uiso
C41 C 0.89966(30) 0.354(7) 0.43025(29) 0.0256 Uiso
C42 C 0.88502(30) 0.307(8) 0.41760(29) 0.0256 Uiso
C43 C 0.85468(30) 0.308(8) 0.39009(29) 0.0256 Uiso
C44 C 0.84075(30) 0.355(9) 0.37751(29) 0.0256 Uiso
C45 C 0.85588(30) 0.403(7) 0.38959(29) 0.0256 Uiso
C46 C 0.88662(30) 0.401(7) 0.41705(29) 0.0256 Uiso
C47 C 0.84378(30) 0.452(6) 0.37534(29) 0.0256 Uiso
H15 H 0.81510(30) 0.418(26) 0.33279(29) 0.0290 Uiso
H16 H 0.90069(30) 0.436(27) 0.42724(29) 0.0290 Uiso
H17 H 0.89617(30) 0.271(30) 0.42725(29) 0.0290 Uiso
H18 H 0.81679(30) 0.35(5) 0.35651(29) 0.0290 Uiso
H19 H 0.74152(30) 0.416(28) 0.24358(29) 0.0290 Uiso
C48 C 0.73233(30) 0.453(7) 0.23329(29) 0.0256 Uiso
C49 C 0.70748(30) 0.453(6) 0.20369(29) 0.0256 Uiso
C50 C 0.69669(30) 0.404(5) 0.18842(29) 0.0256 Uiso
C51 C 0.84153(30) 0.259(5) 0.37502(29) 0.0256 Uiso
O13 O 0.94736(30) 0.3100(34) 0.46846(29) 0.0353 Uiso
O14 O 0.94734(30) 0.3982(31) 0.46843(29) 0.0353 Uiso
O15 O 0.85910(30) 0.2171(26) 0.38605(29) 0.0353 Uiso
O16 O 0.81239(30) 0.263(4) 0.34973(29) 0.0353 Uiso
O17 O 0.71396(30) 0.3618(35) 0.19973(29) 0.0353 Uiso
O18 O 0.6680(30) 0.4078(35) 0.16291(29) 0.0353 Uiso
Cu5 Cu 0.8471(8) 0.1529(8) 0.3637(8) 0.0064 Uiso
Cu6 Cu 0.7979(8) 0.2021(8) 0.3244(8) 0.0064 Uiso
C52 C 0.82209(30) 0.547(6) 0.34468(29) 0.0256 Uiso
C53 C 0.93372(30) 0.646(6) 0.45806(29) 0.0256 Uiso
C54 C 0.89966(30) 0.646(7) 0.43025(29) 0.0256 Uiso
C55 C 0.88502(30) 0.693(8) 0.41760(29) 0.0256 Uiso
C56 C 0.85468(30) 0.692(8) 0.39009(29) 0.0256 Uiso
C57 C 0.84075(30) 0.645(9) 0.37751(29) 0.0256 Uiso
C58 C 0.85588(30) 0.597(7) 0.38959(29) 0.0256 Uiso
C59 C 0.88662(30) 0.599(7) 0.41705(29) 0.0256 Uiso
C60 C 0.84378(30) 0.548(6) 0.37534(29) 0.0256 Uiso
H20 H 0.81510(30) 0.582(26) 0.33279(29) 0.0290 Uiso
H21 H 0.90069(30) 0.564(27) 0.42724(29) 0.0290 Uiso
H22 H 0.89617(30) 0.729(30) 0.42725(29) 0.0290 Uiso
H23 H 0.81679(30) 0.65(5) 0.35651(29) 0.0290 Uiso
H24 H 0.74152(30) 0.584(28) 0.24358(29) 0.0290 Uiso
C61 C 0.73233(30) 0.547(7) 0.23329(29) 0.0256 Uiso
C62 C 0.70748(30) 0.547(6) 0.20369(29) 0.0256 Uiso
C63 C 0.69669(30) 0.596(5) 0.18842(29) 0.0256 Uiso
C64 C 0.84153(30) 0.741(5) 0.37502(29) 0.0256 Uiso
O19 O 0.94736(30) 0.6900(34) 0.46846(29) 0.0353 Uiso
O20 O 0.94734(30) 0.6018(31) 0.46843(29) 0.0353 Uiso
O21 O 0.85910(30) 0.7829(26) 0.38605(29) 0.0353 Uiso
O22 O 0.81239(30) 0.737(4) 0.34973(29) 0.0353 Uiso
O23 O 0.71396(30) 0.6382(35) 0.19973(29) 0.0353 Uiso
O24 O 0.6680(30) 0.5922(35) 0.16291(29) 0.0353 Uiso
O26 O 0.3100(34) 0.05264(30) 0.53154(29) 0.0353 Uiso
O29 O 0.3982(31) 0.05266(30) 0.53157(29) 0.0353 Uiso
O31 O 0.14090(30) 0.2171(26) 0.38605(29) 0.0353 Uiso
O32 O 0.18761(30) 0.263(4) 0.34973(29) 0.0353 Uiso
O33 O 0.1382(35) 0.21396(30) 0.30027(29) 0.0353 Uiso
O34 O 0.78604(30) 0.1382(35) 0.30027(29) 0.0353 Uiso
O35 O 0.8618(35) 0.21396(30) 0.30027(29) 0.0353 Uiso
O36 O 0.21396(30) 0.1382(35) 0.30027(29) 0.0353 Uiso
O37 O 0.0922(35) 0.1680(30) 0.33709(29) 0.0353 Uiso
O38 O 0.8320(30) 0.0922(35) 0.33709(29) 0.0353 Uiso
O39 O 0.9078(35) 0.1680(30) 0.33709(29) 0.0353 Uiso
O40 O 0.1680(30) 0.0922(35) 0.33709(29) 0.0353 Uiso
Cu7 Cu 0.8471(8) 0.8471(8) 0.3637(8) 0.0064 Uiso
Cu8 Cu 0.3471(8) 0.3471(8) 0.1363(8) 0.0064 Uiso
Cu9 Cu 0.6529(8) 0.3471(8) 0.1363(8) 0.0064 Uiso
Cu10 Cu 0.6529(8) 0.6529(8) 0.1363(8) 0.0064 Uiso
Cu11 Cu 0.7979(8) 0.7979(8) 0.3244(8) 0.0064 Uiso
Cu12 Cu 0.2979(8) 0.2979(8) 0.1756(8) 0.0064 Uiso
Cu13 Cu 0.7021(8) 0.2979(8) 0.1756(8) 0.0064 Uiso
Cu14 Cu 0.7021(8) 0.7021(8) 0.1756(8) 0.0064 Uiso
Cu15_2 Cu 1.000 0.3092(21) 0.500 0.0064 Uiso
Cu16 Cu 0.6908(21) 0.000 0.500 0.0064 Uiso
Cu17_2 Cu 1.000 0.6908(21) 0.500 0.0064 Uiso
Cu18_2 Cu 1.000 0.4031(20) 0.500 0.0064 Uiso
Cu19 Cu 0.5969(20) 0.000 0.500 0.0064 Uiso
Cu20_2 Cu 1.000 0.5969(20) 0.500 0.0064 Uiso
Cu3_2 Cu 0.3092(21) 1.000 0.500 0.0064 Uiso
Cu4_2 Cu 0.4031(20) 1.000 0.500 0.0064 Uiso
O25 O 0.3100(34) 0.94736(30) 0.46846(29) 0.0353 Uiso
O27 O 0.3100(34) 0.94736(30) 0.53154(29) 0.0353 Uiso
O28 O 0.3982(31) 0.94734(30) 0.46843(29) 0.0353 Uiso
O30 O 0.3982(31) 0.94734(30) 0.53157(29) 0.0353 Uiso
Cu16_2 Cu 0.6908(21) 1.000 0.500 0.0064 Uiso
Cu19_2 Cu 0.5969(20) 1.000 0.500 0.0064 Uiso
O25_2 O 0.05264(30) 0.3100(34) 0.46846(29) 0.0353 Uiso
O27_2 O 0.05264(30) 0.3100(34) 0.53154(29) 0.0353 Uiso
O28_2 O 0.05266(30) 0.3982(31) 0.46843(29) 0.0353 Uiso
O30_2 O 0.05266(30) 0.3982(31) 0.53157(29) 0.0353 Uiso
C33_2 C 0.500 0.81133(30) 0.33095(29) 0.0256 Uiso
C34_2 C 0.500 0.78916(30) 0.30236(29) 0.0256 Uiso
C35_2 C 0.547(6) 0.82209(30) 0.34468(29) 0.0256 Uiso
C36_2 C 0.500 0.85247(30) 0.38906(29) 0.0256 Uiso
H13_2 H 0.500 0.86740(30) 0.41304(29) 0.0290 Uiso
C37_2 C 0.500 0.76677(30) 0.27535(29) 0.0256 Uiso
C38_2 C 0.500 0.74345(30) 0.24712(29) 0.0256 Uiso
C39_2 C 0.500 0.69550(30) 0.19015(29) 0.0256 Uiso
H14_2 H 0.500 0.67624(30) 0.16740(29) 0.0290 Uiso
C40_2 C 0.646(6) 0.93372(30) 0.45806(29) 0.0256 Uiso
C41_2 C 0.646(7) 0.89966(30) 0.43025(29) 0.0256 Uiso
C42_2 C 0.693(8) 0.88502(30) 0.41760(29) 0.0256 Uiso
C43_2 C 0.692(8) 0.85468(30) 0.39009(29) 0.0256 Uiso
C44_2 C 0.645(9) 0.84075(30) 0.37751(29) 0.0256 Uiso
C45_2 C 0.597(7) 0.85588(30) 0.38959(29) 0.0256 Uiso
C46_2 C 0.599(7) 0.88662(30) 0.41705(29) 0.0256 Uiso
C47_2 C 0.548(6) 0.84378(30) 0.37534(29) 0.0256 Uiso
H15_2 H 0.582(26) 0.81510(30) 0.33279(29) 0.0290 Uiso
H16_2 H 0.564(27) 0.90069(30) 0.42724(29) 0.0290 Uiso
H17_2 H 0.729(30) 0.89617(30) 0.42725(29) 0.0290 Uiso
H18_2 H 0.65(5) 0.81679(30) 0.35651(29) 0.0290 Uiso
H19_2 H 0.584(28) 0.74152(30) 0.24358(29) 0.0290 Uiso
C48_2 C 0.547(7) 0.73233(30) 0.23329(29) 0.0256 Uiso
C49_2 C 0.547(6) 0.70748(30) 0.20369(29) 0.0256 Uiso
C50_2 C 0.596(5) 0.69669(30) 0.18842(29) 0.0256 Uiso
C51_2 C 0.741(5) 0.84153(30) 0.37502(29) 0.0256 Uiso
O13_2 O 0.6900(34) 0.94736(30) 0.46846(29) 0.0353 Uiso
O14_2 O 0.6018(31) 0.94734(30) 0.46843(29) 0.0353 Uiso
O15_2 O 0.7829(26) 0.85910(30) 0.38605(29) 0.0353 Uiso
O16_2 O 0.737(4) 0.81239(30) 0.34973(29) 0.0353 Uiso
O17_2 O 0.6382(35) 0.71396(30) 0.19973(29) 0.0353 Uiso
O18_2 O 0.5922(35) 0.6680(30) 0.16291(29) 0.0353 Uiso
C52_2 C 0.453(6) 0.82209(30) 0.34468(29) 0.0256 Uiso
C53_2 C 0.354(6) 0.93372(30) 0.45806(29) 0.0256 Uiso
C54_2 C 0.354(7) 0.89966(30) 0.43025(29) 0.0256 Uiso
C55_2 C 0.307(8) 0.88502(30) 0.41760(29) 0.0256 Uiso
C56_2 C 0.308(8) 0.85468(30) 0.39009(29) 0.0256 Uiso
C57_2 C 0.355(9) 0.84075(30) 0.37751(29) 0.0256 Uiso
C58_2 C 0.403(7) 0.85588(30) 0.38959(29) 0.0256 Uiso
C59_2 C 0.401(7) 0.88662(30) 0.41705(29) 0.0256 Uiso
C60_2 C 0.452(6) 0.84378(30) 0.37534(29) 0.0256 Uiso
H20_2 H 0.418(26) 0.81510(30) 0.33279(29) 0.0290 Uiso
H21_2 H 0.436(27) 0.90069(30) 0.42724(29) 0.0290 Uiso
H22_2 H 0.271(30) 0.89617(30) 0.42725(29) 0.0290 Uiso
H23_2 H 0.35(5) 0.81679(30) 0.35651(29) 0.0290 Uiso
H24_2 H 0.416(28) 0.74152(30) 0.24358(29) 0.0290 Uiso
C61_2 C 0.453(7) 0.73233(30) 0.23329(29) 0.0256 Uiso
C62_2 C 0.453(6) 0.70748(30) 0.20369(29) 0.0256 Uiso
C63_2 C 0.404(5) 0.69669(30) 0.18842(29) 0.0256 Uiso
C64_2 C 0.259(5) 0.84153(30) 0.37502(29) 0.0256 Uiso
O21_2 O 0.2171(26) 0.85910(30) 0.38605(29) 0.0353 Uiso
O22_2 O 0.263(4) 0.81239(30) 0.34973(29) 0.0353 Uiso
O23_2 O 0.3618(35) 0.71396(30) 0.19973(29) 0.0353 Uiso
O24_2 O 0.4078(35) 0.6680(30) 0.16291(29) 0.0353 Uiso
O26_2 O 0.94736(30) 0.3100(34) 0.53154(29) 0.0353 Uiso
O29_2 O 0.94734(30) 0.3982(31) 0.53157(29) 0.0353 Uiso
O34_2 O 0.8618(35) 0.78604(30) 0.30027(29) 0.0353 Uiso
O35_2 O 0.78604(30) 0.8618(35) 0.30027(29) 0.0353 Uiso
O38_2 O 0.9078(35) 0.8320(30) 0.33709(29) 0.0353 Uiso
O39_2 O 0.8320(30) 0.9078(35) 0.33709(29) 0.0353 Uiso
Cu7_2 Cu 0.1529(8) 0.8471(8) 0.3637(8) 0.0064 Uiso
Cu10_2 Cu 0.3471(8) 0.6529(8) 0.1363(8) 0.0064 Uiso
Cu11_2 Cu 0.2021(8) 0.7979(8) 0.3244(8) 0.0064 Uiso
Cu14_2 Cu 0.2979(8) 0.7021(8) 0.1756(8) 0.0064 Uiso
O27_3 O 0.6900(34) 0.05264(30) 0.53154(29) 0.0353 Uiso
O30_3 O 0.6018(31) 0.05266(30) 0.53157(29) 0.0353 Uiso
C33_3 C 0.18867(30) 0.500 0.33095(29) 0.0256 Uiso
C34_3 C 0.21084(30) 0.500 0.30236(29) 0.0256 Uiso
C35_3 C 0.17791(30) 0.547(6) 0.34468(29) 0.0256 Uiso
C36_3 C 0.14753(30) 0.500 0.38906(29) 0.0256 Uiso
H13_3 H 0.13260(30) 0.500 0.41304(29) 0.0290 Uiso
C37_3 C 0.23323(30) 0.500 0.27535(29) 0.0256 Uiso
C38_3 C 0.25655(30) 0.500 0.24712(29) 0.0256 Uiso
C39_3 C 0.30450(30) 0.500 0.19015(29) 0.0256 Uiso
H14_3 H 0.32376(30) 0.500 0.16740(29) 0.0290 Uiso
C40_3 C 0.06628(30) 0.646(6) 0.45806(29) 0.0256 Uiso
C41_3 C 0.10034(30) 0.646(7) 0.43025(29) 0.0256 Uiso
C42_3 C 0.11498(30) 0.693(8) 0.41760(29) 0.0256 Uiso
C43_3 C 0.14532(30) 0.692(8) 0.39009(29) 0.0256 Uiso
C44_3 C 0.15925(30) 0.645(9) 0.37751(29) 0.0256 Uiso
C45_3 C 0.14412(30) 0.597(7) 0.38959(29) 0.0256 Uiso
C46_3 C 0.11338(30) 0.599(7) 0.41705(29) 0.0256 Uiso
C47_3 C 0.15622(30) 0.548(6) 0.37534(29) 0.0256 Uiso
H15_3 H 0.18490(30) 0.582(26) 0.33279(29) 0.0290 Uiso
H16_3 H 0.09931(30) 0.564(27) 0.42724(29) 0.0290 Uiso
H17_3 H 0.10383(30) 0.729(30) 0.42725(29) 0.0290 Uiso
H18_3 H 0.18321(30) 0.65(5) 0.35651(29) 0.0290 Uiso
H19_3 H 0.25848(30) 0.584(28) 0.24358(29) 0.0290 Uiso
C48_3 C 0.26767(30) 0.547(7) 0.23329(29) 0.0256 Uiso
C49_3 C 0.29252(30) 0.547(6) 0.20369(29) 0.0256 Uiso
C50_3 C 0.30331(30) 0.596(5) 0.18842(29) 0.0256 Uiso
C51_3 C 0.15847(30) 0.741(5) 0.37502(29) 0.0256 Uiso
O13_3 O 0.05264(30) 0.6900(34) 0.46846(29) 0.0353 Uiso
O14_3 O 0.05266(30) 0.6018(31) 0.46843(29) 0.0353 Uiso
O15_3 O 0.14090(30) 0.7829(26) 0.38605(29) 0.0353 Uiso
O16_3 O 0.18761(30) 0.737(4) 0.34973(29) 0.0353 Uiso
O17_3 O 0.28604(30) 0.6382(35) 0.19973(29) 0.0353 Uiso
O18_3 O 0.3320(30) 0.5922(35) 0.16291(29) 0.0353 Uiso
C52_3 C 0.17791(30) 0.453(6) 0.34468(29) 0.0256 Uiso
C53_3 C 0.06628(30) 0.354(6) 0.45806(29) 0.0256 Uiso
C54_3 C 0.10034(30) 0.354(7) 0.43025(29) 0.0256 Uiso
C55_3 C 0.11498(30) 0.307(8) 0.41760(29) 0.0256 Uiso
C56_3 C 0.14532(30) 0.308(8) 0.39009(29) 0.0256 Uiso
C57_3 C 0.15925(30) 0.355(9) 0.37751(29) 0.0256 Uiso
C58_3 C 0.14412(30) 0.403(7) 0.38959(29) 0.0256 Uiso
C59_3 C 0.11338(30) 0.401(7) 0.41705(29) 0.0256 Uiso
C60_3 C 0.15622(30) 0.452(6) 0.37534(29) 0.0256 Uiso
H20_3 H 0.18490(30) 0.418(26) 0.33279(29) 0.0290 Uiso
H21_3 H 0.09931(30) 0.436(27) 0.42724(29) 0.0290 Uiso
H22_3 H 0.10383(30) 0.271(30) 0.42725(29) 0.0290 Uiso
H23_3 H 0.18321(30) 0.35(5) 0.35651(29) 0.0290 Uiso
H24_3 H 0.25848(30) 0.416(28) 0.24358(29) 0.0290 Uiso
C61_3 C 0.26767(30) 0.453(7) 0.23329(29) 0.0256 Uiso
C62_3 C 0.29252(30) 0.453(6) 0.20369(29) 0.0256 Uiso
C63_3 C 0.30331(30) 0.404(5) 0.18842(29) 0.0256 Uiso
C64_3 C 0.15847(30) 0.259(5) 0.37502(29) 0.0256 Uiso
O23_3 O 0.28604(30) 0.3618(35) 0.19973(29) 0.0353 Uiso
O24_3 O 0.3320(30) 0.4078(35) 0.16291(29) 0.0353 Uiso
O26_3 O 0.6900(34) 0.94736(30) 0.53154(29) 0.0353 Uiso
O29_3 O 0.6018(31) 0.94734(30) 0.53157(29) 0.0353 Uiso
O34_3 O 0.21396(30) 0.8618(35) 0.30027(29) 0.0353 Uiso
O35_3 O 0.1382(35) 0.78604(30) 0.30027(29) 0.0353 Uiso
O38_3 O 0.1680(30) 0.9078(35) 0.33709(29) 0.0353 Uiso
O39_3 O 0.0922(35) 0.8320(30) 0.33709(29) 0.0353 Uiso
O26_4 O 0.05264(30) 0.6900(34) 0.53154(29) 0.0353 Uiso
O29_4 O 0.05266(30) 0.6018(31) 0.53157(29) 0.0353 Uiso
O27_4 O 0.94736(30) 0.6900(34) 0.53154(29) 0.0353 Uiso
O30_4 O 0.94734(30) 0.6018(31) 0.53157(29) 0.0353 Uiso
C1_2 C 0.500 0.81133(30) 0.66905(29) 0.0256 Uiso
C2_2 C 0.500 0.78916(30) 0.69764(29) 0.0256 Uiso
C3_2 C 0.453(6) 0.82209(30) 0.65532(29) 0.0256 Uiso
C4_2 C 0.500 0.85247(30) 0.61094(29) 0.0256 Uiso
H1_2 H 0.500 0.86740(30) 0.58696(29) 0.0290 Uiso
C5_2 C 0.500 0.76677(30) 0.72465(29) 0.0256 Uiso
C6_2 C 0.500 0.74345(30) 0.75288(29) 0.0256 Uiso
C7_2 C 0.500 0.69550(30) 0.80985(29) 0.0256 Uiso
H2_2 H 0.500 0.67624(30) 0.83260(29) 0.0290 Uiso
C8_2 C 0.354(6) 0.93372(30) 0.54194(29) 0.0256 Uiso
C9_2 C 0.354(7) 0.89966(30) 0.56975(29) 0.0256 Uiso
C10_2 C 0.307(8) 0.88502(30) 0.58240(29) 0.0256 Uiso
C11_2 C 0.308(8) 0.85468(30) 0.60991(29) 0.0256 Uiso
C12_2 C 0.355(9) 0.84075(30) 0.62249(29) 0.0256 Uiso
C13_2 C 0.403(7) 0.85588(30) 0.61041(29) 0.0256 Uiso
C14_2 C 0.401(7) 0.88662(30) 0.58295(29) 0.0256 Uiso
C15_2 C 0.452(6) 0.84378(30) 0.62466(29) 0.0256 Uiso
H3_2 H 0.418(26) 0.81510(30) 0.66721(29) 0.0290 Uiso
H4_2 H 0.436(27) 0.90069(30) 0.57276(29) 0.0290 Uiso
H5_2 H 0.271(30) 0.89617(30) 0.57275(29) 0.0290 Uiso
H6_2 H 0.35(5) 0.81679(30) 0.64349(29) 0.0290 Uiso
H7_2 H 0.416(28) 0.74152(30) 0.75642(29) 0.0290 Uiso
C16_2 C 0.453(7) 0.73233(30) 0.76671(29) 0.0256 Uiso
C17_2 C 0.453(6) 0.70748(30) 0.79631(29) 0.0256 Uiso
C18_2 C 0.404(5) 0.69669(30) 0.81158(29) 0.0256 Uiso
C19_2 C 0.259(5) 0.84153(30) 0.62498(29) 0.0256 Uiso
O3_2 O 0.2171(26) 0.85910(30) 0.61395(29) 0.0353 Uiso
O4_2 O 0.263(4) 0.81239(30) 0.65027(29) 0.0353 Uiso
O5_2 O 0.3618(35) 0.71396(30) 0.80027(29) 0.0353 Uiso
O6_2 O 0.4078(35) 0.6680(30) 0.83709(29) 0.0353 Uiso
Cu1_2 Cu 0.1529(8) 0.8471(8) 0.6363(8) 0.0064 Uiso
Cu2_2 Cu 0.2021(8) 0.7979(8) 0.6756(8) 0.0064 Uiso
C20_2 C 0.547(6) 0.82209(30) 0.65532(29) 0.0256 Uiso
C21_2 C 0.646(6) 0.93372(30) 0.54194(29) 0.0256 Uiso
C22_2 C 0.646(7) 0.89966(30) 0.56975(29) 0.0256 Uiso
C23_2 C 0.693(8) 0.88502(30) 0.58240(29) 0.0256 Uiso
C24_2 C 0.692(8) 0.85468(30) 0.60991(29) 0.0256 Uiso
C25_2 C 0.645(9) 0.84075(30) 0.62249(29) 0.0256 Uiso
C26_2 C 0.597(7) 0.85588(30) 0.61041(29) 0.0256 Uiso
C27_2 C 0.599(7) 0.88662(30) 0.58295(29) 0.0256 Uiso
C28_2 C 0.548(6) 0.84378(30) 0.62466(29) 0.0256 Uiso
H8_2 H 0.582(26) 0.81510(30) 0.66721(29) 0.0290 Uiso
H9_2 H 0.564(27) 0.90069(30) 0.57276(29) 0.0290 Uiso
H10_2 H 0.729(30) 0.89617(30) 0.57275(29) 0.0290 Uiso
H11_2 H 0.65(5) 0.81679(30) 0.64349(29) 0.0290 Uiso
H12_2 H 0.584(28) 0.74152(30) 0.75642(29) 0.0290 Uiso
C29_2 C 0.547(7) 0.73233(30) 0.76671(29) 0.0256 Uiso
C30_2 C 0.547(6) 0.70748(30) 0.79631(29) 0.0256 Uiso
C31_2 C 0.596(5) 0.69669(30) 0.81158(29) 0.0256 Uiso
C32_2 C 0.741(5) 0.84153(30) 0.62498(29) 0.0256 Uiso
O9_2 O 0.7829(26) 0.85910(30) 0.61395(29) 0.0353 Uiso
O10_2 O 0.737(4) 0.81239(30) 0.65027(29) 0.0353 Uiso
O11_2 O 0.6382(35) 0.71396(30) 0.80027(29) 0.0353 Uiso
O12_2 O 0.5922(35) 0.6680(30) 0.83709(29) 0.0353 Uiso
C33_4 C 0.81133(30) 0.500 0.66905(29) 0.0256 Uiso
C34_4 C 0.78916(30) 0.500 0.69764(29) 0.0256 Uiso
C35_4 C 0.82209(30) 0.547(6) 0.65532(29) 0.0256 Uiso
C36_4 C 0.85247(30) 0.500 0.61094(29) 0.0256 Uiso
H13_4 H 0.86740(30) 0.500 0.58696(29) 0.0290 Uiso
C37_4 C 0.76677(30) 0.500 0.72465(29) 0.0256 Uiso
C38_4 C 0.74345(30) 0.500 0.75288(29) 0.0256 Uiso
C39_4 C 0.69550(30) 0.500 0.80985(29) 0.0256 Uiso
H14_4 H 0.67624(30) 0.500 0.83260(29) 0.0290 Uiso
C40_4 C 0.93372(30) 0.646(6) 0.54194(29) 0.0256 Uiso
C41_4 C 0.89966(30) 0.646(7) 0.56975(29) 0.0256 Uiso
C42_4 C 0.88502(30) 0.693(8) 0.58240(29) 0.0256 Uiso
C43_4 C 0.85468(30) 0.692(8) 0.60991(29) 0.0256 Uiso
C44_4 C 0.84075(30) 0.645(9) 0.62249(29) 0.0256 Uiso
C45_4 C 0.85588(30) 0.597(7) 0.61041(29) 0.0256 Uiso
C46_4 C 0.88662(30) 0.599(7) 0.58295(29) 0.0256 Uiso
C47_4 C 0.84378(30) 0.548(6) 0.62466(29) 0.0256 Uiso
H15_4 H 0.81510(30) 0.582(26) 0.66721(29) 0.0290 Uiso
H16_4 H 0.90069(30) 0.564(27) 0.57276(29) 0.0290 Uiso
H17_4 H 0.89617(30) 0.729(30) 0.57275(29) 0.0290 Uiso
H18_4 H 0.81679(30) 0.65(5) 0.64349(29) 0.0290 Uiso
H19_4 H 0.74152(30) 0.584(28) 0.75642(29) 0.0290 Uiso
C48_4 C 0.73233(30) 0.547(7) 0.76671(29) 0.0256 Uiso
C49_4 C 0.70748(30) 0.547(6) 0.79631(29) 0.0256 Uiso
C50_4 C 0.69669(30) 0.596(5) 0.81158(29) 0.0256 Uiso
C51_4 C 0.84153(30) 0.741(5) 0.62498(29) 0.0256 Uiso
O15_4 O 0.85910(30) 0.7829(26) 0.61395(29) 0.0353 Uiso
O16_4 O 0.81239(30) 0.737(4) 0.65027(29) 0.0353 Uiso
O17_4 O 0.71396(30) 0.6382(35) 0.80027(29) 0.0353 Uiso
O18_4 O 0.6680(30) 0.5922(35) 0.83709(29) 0.0353 Uiso
Cu5_2 Cu 0.8471(8) 0.8471(8) 0.6363(8) 0.0064 Uiso
Cu6_2 Cu 0.7979(8) 0.7979(8) 0.6756(8) 0.0064 Uiso
C52_4 C 0.82209(30) 0.453(6) 0.65532(29) 0.0256 Uiso
C53_4 C 0.93372(30) 0.354(6) 0.54194(29) 0.0256 Uiso
C54_4 C 0.89966(30) 0.354(7) 0.56975(29) 0.0256 Uiso
C55_4 C 0.88502(30) 0.307(8) 0.58240(29) 0.0256 Uiso
C56_4 C 0.85468(30) 0.308(8) 0.60991(29) 0.0256 Uiso
C57_4 C 0.84075(30) 0.355(9) 0.62249(29) 0.0256 Uiso
C58_4 C 0.85588(30) 0.403(7) 0.61041(29) 0.0256 Uiso
C59_4 C 0.88662(30) 0.401(7) 0.58295(29) 0.0256 Uiso
C60_4 C 0.84378(30) 0.452(6) 0.62466(29) 0.0256 Uiso
H20_4 H 0.81510(30) 0.418(26) 0.66721(29) 0.0290 Uiso
H21_4 H 0.90069(30) 0.436(27) 0.57276(29) 0.0290 Uiso
H22_4 H 0.89617(30) 0.271(30) 0.57275(29) 0.0290 Uiso
H23_4 H 0.81679(30) 0.35(5) 0.64349(29) 0.0290 Uiso
H24_4 H 0.74152(30) 0.416(28) 0.75642(29) 0.0290 Uiso
C61_4 C 0.73233(30) 0.453(7) 0.76671(29) 0.0256 Uiso
C62_4 C 0.70748(30) 0.453(6) 0.79631(29) 0.0256 Uiso
C63_4 C 0.69669(30) 0.404(5) 0.81158(29) 0.0256 Uiso
C64_4 C 0.84153(30) 0.259(5) 0.62498(29) 0.0256 Uiso
O21_3 O 0.85910(30) 0.2171(26) 0.61395(29) 0.0353 Uiso
O22_3 O 0.81239(30) 0.263(4) 0.65027(29) 0.0353 Uiso
O23_4 O 0.71396(30) 0.3618(35) 0.80027(29) 0.0353 Uiso
O24_4 O 0.6680(30) 0.4078(35) 0.83709(29) 0.0353 Uiso
O31_2 O 0.14090(30) 0.7829(26) 0.61395(29) 0.0353 Uiso
O32_2 O 0.18761(30) 0.737(4) 0.65027(29) 0.0353 Uiso
O33_2 O 0.1382(35) 0.78604(30) 0.69973(29) 0.0353 Uiso
O34_4 O 0.78604(30) 0.8618(35) 0.69973(29) 0.0353 Uiso
O35_4 O 0.8618(35) 0.78604(30) 0.69973(29) 0.0353 Uiso
O36_2 O 0.21396(30) 0.8618(35) 0.69973(29) 0.0353 Uiso
O37_2 O 0.0922(35) 0.8320(30) 0.66291(29) 0.0353 Uiso
O38_4 O 0.8320(30) 0.9078(35) 0.66291(29) 0.0353 Uiso
O39_4 O 0.9078(35) 0.8320(30) 0.66291(29) 0.0353 Uiso
O40_2 O 0.1680(30) 0.9078(35) 0.66291(29) 0.0353 Uiso
Cu7_3 Cu 0.8471(8) 0.1529(8) 0.6363(8) 0.0064 Uiso
Cu8_2 Cu 0.3471(8) 0.6529(8) 0.8637(8) 0.0064 Uiso
Cu9_2 Cu 0.6529(8) 0.6529(8) 0.8637(8) 0.0064 Uiso
Cu10_3 Cu 0.6529(8) 0.3471(8) 0.8637(8) 0.0064 Uiso
Cu11_3 Cu 0.7979(8) 0.2021(8) 0.6756(8) 0.0064 Uiso
Cu12_2 Cu 0.2979(8) 0.7021(8) 0.8244(8) 0.0064 Uiso
Cu13_2 Cu 0.7021(8) 0.7021(8) 0.8244(8) 0.0064 Uiso
Cu14_3 Cu 0.7021(8) 0.2979(8) 0.8244(8) 0.0064 Uiso
C1_3 C 0.18867(30) 0.500 0.66905(29) 0.0256 Uiso
C2_3 C 0.21084(30) 0.500 0.69764(29) 0.0256 Uiso
C3_3 C 0.17791(30) 0.453(6) 0.65532(29) 0.0256 Uiso
C4_3 C 0.14753(30) 0.500 0.61094(29) 0.0256 Uiso
H1_3 H 0.13260(30) 0.500 0.58696(29) 0.0290 Uiso
C5_3 C 0.23323(30) 0.500 0.72465(29) 0.0256 Uiso
C6_3 C 0.25655(30) 0.500 0.75288(29) 0.0256 Uiso
C7_3 C 0.30450(30) 0.500 0.80985(29) 0.0256 Uiso
H2_3 H 0.32376(30) 0.500 0.83260(29) 0.0290 Uiso
C8_3 C 0.06628(30) 0.354(6) 0.54194(29) 0.0256 Uiso
C9_3 C 0.10034(30) 0.354(7) 0.56975(29) 0.0256 Uiso
C10_3 C 0.11498(30) 0.307(8) 0.58240(29) 0.0256 Uiso
C11_3 C 0.14532(30) 0.308(8) 0.60991(29) 0.0256 Uiso
C12_3 C 0.15925(30) 0.355(9) 0.62249(29) 0.0256 Uiso
C13_3 C 0.14412(30) 0.403(7) 0.61041(29) 0.0256 Uiso
C14_3 C 0.11338(30) 0.401(7) 0.58295(29) 0.0256 Uiso
C15_3 C 0.15622(30) 0.452(6) 0.62466(29) 0.0256 Uiso
H3_3 H 0.18490(30) 0.418(26) 0.66721(29) 0.0290 Uiso
H4_3 H 0.09931(30) 0.436(27) 0.57276(29) 0.0290 Uiso
H5_3 H 0.10383(30) 0.271(30) 0.57275(29) 0.0290 Uiso
H6_3 H 0.18321(30) 0.35(5) 0.64349(29) 0.0290 Uiso
H7_3 H 0.25848(30) 0.416(28) 0.75642(29) 0.0290 Uiso
C16_3 C 0.26767(30) 0.453(7) 0.76671(29) 0.0256 Uiso
C17_3 C 0.29252(30) 0.453(6) 0.79631(29) 0.0256 Uiso
C18_3 C 0.30331(30) 0.404(5) 0.81158(29) 0.0256 Uiso
C19_3 C 0.15847(30) 0.259(5) 0.62498(29) 0.0256 Uiso
O3_3 O 0.14090(30) 0.2171(26) 0.61395(29) 0.0353 Uiso
O4_3 O 0.18761(30) 0.263(4) 0.65027(29) 0.0353 Uiso
O5_3 O 0.28604(30) 0.3618(35) 0.80027(29) 0.0353 Uiso
O6_3 O 0.3320(30) 0.4078(35) 0.83709(29) 0.0353 Uiso
Cu1_3 Cu 0.1529(8) 0.1529(8) 0.6363(8) 0.0064 Uiso
Cu2_3 Cu 0.2021(8) 0.2021(8) 0.6756(8) 0.0064 Uiso
C20_3 C 0.17791(30) 0.547(6) 0.65532(29) 0.0256 Uiso
C21_3 C 0.06628(30) 0.646(6) 0.54194(29) 0.0256 Uiso
C22_3 C 0.10034(30) 0.646(7) 0.56975(29) 0.0256 Uiso
C23_3 C 0.11498(30) 0.693(8) 0.58240(29) 0.0256 Uiso
C24_3 C 0.14532(30) 0.692(8) 0.60991(29) 0.0256 Uiso
C25_3 C 0.15925(30) 0.645(9) 0.62249(29) 0.0256 Uiso
C26_3 C 0.14412(30) 0.597(7) 0.61041(29) 0.0256 Uiso
C27_3 C 0.11338(30) 0.599(7) 0.58295(29) 0.0256 Uiso
C28_3 C 0.15622(30) 0.548(6) 0.62466(29) 0.0256 Uiso
H8_3 H 0.18490(30) 0.582(26) 0.66721(29) 0.0290 Uiso
H9_3 H 0.09931(30) 0.564(27) 0.57276(29) 0.0290 Uiso
H10_3 H 0.10383(30) 0.729(30) 0.57275(29) 0.0290 Uiso
H11_3 H 0.18321(30) 0.65(5) 0.64349(29) 0.0290 Uiso
H12_3 H 0.25848(30) 0.584(28) 0.75642(29) 0.0290 Uiso
C29_3 C 0.26767(30) 0.547(7) 0.76671(29) 0.0256 Uiso
C30_3 C 0.29252(30) 0.547(6) 0.79631(29) 0.0256 Uiso
C31_3 C 0.30331(30) 0.596(5) 0.81158(29) 0.0256 Uiso
C32_3 C 0.15847(30) 0.741(5) 0.62498(29) 0.0256 Uiso
O11_3 O 0.28604(30) 0.6382(35) 0.80027(29) 0.0353 Uiso
O12_3 O 0.3320(30) 0.5922(35) 0.83709(29) 0.0353 Uiso
O31_3 O 0.2171(26) 0.14090(30) 0.61395(29) 0.0353 Uiso
O32_3 O 0.263(4) 0.18761(30) 0.65027(29) 0.0353 Uiso
O33_3 O 0.21396(30) 0.1382(35) 0.69973(29) 0.0353 Uiso
O36_3 O 0.1382(35) 0.21396(30) 0.69973(29) 0.0353 Uiso
O37_3 O 0.1680(30) 0.0922(35) 0.66291(29) 0.0353 Uiso
O40_3 O 0.0922(35) 0.1680(30) 0.66291(29) 0.0353 Uiso
Cu8_3 Cu 0.3471(8) 0.3471(8) 0.8637(8) 0.0064 Uiso
Cu12_3 Cu 0.2979(8) 0.2979(8) 0.8244(8) 0.0064 Uiso
C1_4 C 0.500 0.18867(30) 0.66905(29) 0.0256 Uiso
C2_4 C 0.500 0.21084(30) 0.69764(29) 0.0256 Uiso
C3_4 C 0.547(6) 0.17791(30) 0.65532(29) 0.0256 Uiso
C4_4 C 0.500 0.14753(30) 0.61094(29) 0.0256 Uiso
H1_4 H 0.500 0.13260(30) 0.58696(29) 0.0290 Uiso
C5_4 C 0.500 0.23323(30) 0.72465(29) 0.0256 Uiso
C6_4 C 0.500 0.25655(30) 0.75288(29) 0.0256 Uiso
C7_4 C 0.500 0.30450(30) 0.80985(29) 0.0256 Uiso
H2_4 H 0.500 0.32376(30) 0.83260(29) 0.0290 Uiso
C8_4 C 0.646(6) 0.06628(30) 0.54194(29) 0.0256 Uiso
C9_4 C 0.646(7) 0.10034(30) 0.56975(29) 0.0256 Uiso
C10_4 C 0.693(8) 0.11498(30) 0.58240(29) 0.0256 Uiso
C11_4 C 0.692(8) 0.14532(30) 0.60991(29) 0.0256 Uiso
C12_4 C 0.645(9) 0.15925(30) 0.62249(29) 0.0256 Uiso
C13_4 C 0.597(7) 0.14412(30) 0.61041(29) 0.0256 Uiso
C14_4 C 0.599(7) 0.11338(30) 0.58295(29) 0.0256 Uiso
C15_4 C 0.548(6) 0.15622(30) 0.62466(29) 0.0256 Uiso
H3_4 H 0.582(26) 0.18490(30) 0.66721(29) 0.0290 Uiso
H4_4 H 0.564(27) 0.09931(30) 0.57276(29) 0.0290 Uiso
H5_4 H 0.729(30) 0.10383(30) 0.57275(29) 0.0290 Uiso
H6_4 H 0.65(5) 0.18321(30) 0.64349(29) 0.0290 Uiso
H7_4 H 0.584(28) 0.25848(30) 0.75642(29) 0.0290 Uiso
C16_4 C 0.547(7) 0.26767(30) 0.76671(29) 0.0256 Uiso
C17_4 C 0.547(6) 0.29252(30) 0.79631(29) 0.0256 Uiso
C18_4 C 0.596(5) 0.30331(30) 0.81158(29) 0.0256 Uiso
C19_4 C 0.741(5) 0.15847(30) 0.62498(29) 0.0256 Uiso
O3_4 O 0.7829(26) 0.14090(30) 0.61395(29) 0.0353 Uiso
O4_4 O 0.737(4) 0.18761(30) 0.65027(29) 0.0353 Uiso
O5_4 O 0.6382(35) 0.28604(30) 0.80027(29) 0.0353 Uiso
O6_4 O 0.5922(35) 0.3320(30) 0.83709(29) 0.0353 Uiso
C20_4 C 0.453(6) 0.17791(30) 0.65532(29) 0.0256 Uiso
C21_4 C 0.354(6) 0.06628(30) 0.54194(29) 0.0256 Uiso
C22_4 C 0.354(7) 0.10034(30) 0.56975(29) 0.0256 Uiso
C23_4 C 0.307(8) 0.11498(30) 0.58240(29) 0.0256 Uiso
C24_4 C 0.308(8) 0.14532(30) 0.60991(29) 0.0256 Uiso
C25_4 C 0.355(9) 0.15925(30) 0.62249(29) 0.0256 Uiso
C26_4 C 0.403(7) 0.14412(30) 0.61041(29) 0.0256 Uiso
C27_4 C 0.401(7) 0.11338(30) 0.58295(29) 0.0256 Uiso
C28_4 C 0.452(6) 0.15622(30) 0.62466(29) 0.0256 Uiso
H8_4 H 0.418(26) 0.18490(30) 0.66721(29) 0.0290 Uiso
H9_4 H 0.436(27) 0.09931(30) 0.57276(29) 0.0290 Uiso
H10_4 H 0.271(30) 0.10383(30) 0.57275(29) 0.0290 Uiso
H11_4 H 0.35(5) 0.18321(30) 0.64349(29) 0.0290 Uiso
H12_4 H 0.416(28) 0.25848(30) 0.75642(29) 0.0290 Uiso
C29_4 C 0.453(7) 0.26767(30) 0.76671(29) 0.0256 Uiso
C30_4 C 0.453(6) 0.29252(30) 0.79631(29) 0.0256 Uiso
C31_4 C 0.404(5) 0.30331(30) 0.81158(29) 0.0256 Uiso
C32_4 C 0.259(5) 0.15847(30) 0.62498(29) 0.0256 Uiso
O11_4 O 0.3618(35) 0.28604(30) 0.80027(29) 0.0353 Uiso
O12_4 O 0.4078(35) 0.3320(30) 0.83709(29) 0.0353 Uiso
O33_4 O 0.8618(35) 0.21396(30) 0.69973(29) 0.0353 Uiso
O36_4 O 0.78604(30) 0.1382(35) 0.69973(29) 0.0353 Uiso
O37_4 O 0.9078(35) 0.1680(30) 0.66291(29) 0.0353 Uiso
O40_4 O 0.8320(30) 0.0922(35) 0.66291(29) 0.0353 Uiso
Cu17_3 Cu 0.500 0.1908(21) -0.000 0.0064 Uiso
Cu20_3 Cu 0.500 0.0969(20) -0.000 0.0064 Uiso
C33_5 C 0.31133(30) -0.000 0.83095(29) 0.0256 Uiso
C34_5 C 0.28916(30) -0.000 0.80236(29) 0.0256 Uiso
C36_5 C 0.35247(30) -0.000 0.88906(29) 0.0256 Uiso
H13_5 H 0.36740(30) -0.000 0.91304(29) 0.0290 Uiso
C37_5 C 0.26677(30) -0.000 0.77535(29) 0.0256 Uiso
C38_5 C 0.24345(30) -0.000 0.74712(29) 0.0256 Uiso
C39_5 C 0.19550(30) -0.000 0.69015(29) 0.0256 Uiso
H14_5 H 0.17624(30) -0.000 0.66740(29) 0.0290 Uiso
C52_5 C 0.32209(30) 0.047(6) 0.84468(29) 0.0256 Uiso
C53_5 C 0.43372(30) 0.146(6) 0.95806(29) 0.0256 Uiso
C54_5 C 0.39966(30) 0.146(7) 0.93025(29) 0.0256 Uiso
C55_5 C 0.38502(30) 0.193(8) 0.91760(29) 0.0256 Uiso
C56_5 C 0.35468(30) 0.192(8) 0.89009(29) 0.0256 Uiso
C57_5 C 0.34075(30) 0.145(9) 0.87751(29) 0.0256 Uiso
C58_5 C 0.35588(30) 0.097(7) 0.88959(29) 0.0256 Uiso
C59_5 C 0.38662(30) 0.099(7) 0.91705(29) 0.0256 Uiso
C60_5 C 0.34378(30) 0.048(6) 0.87534(29) 0.0256 Uiso
H20_5 H 0.31510(30) 0.082(26) 0.83279(29) 0.0290 Uiso
H21_5 H 0.40069(30) 0.064(27) 0.92724(29) 0.0290 Uiso
H22_5 H 0.39617(30) 0.229(30) 0.92725(29) 0.0290 Uiso
H23_5 H 0.31679(30) 0.15(5) 0.85651(29) 0.0290 Uiso
H24_5 H 0.24152(30) 0.084(28) 0.74358(29) 0.0290 Uiso
C61_5 C 0.23233(30) 0.047(7) 0.73329(29) 0.0256 Uiso
C62_5 C 0.20748(30) 0.047(6) 0.70369(29) 0.0256 Uiso
C63_5 C 0.19669(30) 0.096(5) 0.68842(29) 0.0256 Uiso
C64_5 C 0.34153(30) 0.241(5) 0.87502(29) 0.0256 Uiso
O19_2 O 0.44736(30) 0.1900(34) 0.96846(29) 0.0353 Uiso
O20_2 O 0.44734(30) 0.1018(31) 0.96843(29) 0.0353 Uiso
O21_4 O 0.35910(30) 0.2829(26) 0.88605(29) 0.0353 Uiso
O22_4 O 0.31239(30) 0.237(4) 0.84973(29) 0.0353 Uiso
Cu17_4 Cu 0.500 0.1908(21) 1.000 0.0064 Uiso
Cu20_4 Cu 0.500 0.0969(20) 1.000 0.0064 Uiso
Cu15_3 Cu 0.500 0.8092(21) -0.000 0.0064 Uiso
Cu16_3 Cu 0.1908(21) 0.500 -0.000 0.0064 Uiso
Cu18_3 Cu 0.500 0.9031(20) -0.000 0.0064 Uiso
Cu19_3 Cu 0.0969(20) 0.500 -0.000 0.0064 Uiso
C1_5 C -0.000 0.68867(30) 0.83095(29) 0.0256 Uiso
C2_5 C -0.000 0.71084(30) 0.80236(29) 0.0256 Uiso
C4_5 C -0.000 0.64753(30) 0.88906(29) 0.0256 Uiso
H1_5 H -0.000 0.63260(30) 0.91304(29) 0.0290 Uiso
C5_5 C -0.000 0.73323(30) 0.77535(29) 0.0256 Uiso
C6_5 C -0.000 0.75655(30) 0.74712(29) 0.0256 Uiso
C7_5 C -0.000 0.80450(30) 0.69015(29) 0.0256 Uiso
H2_5 H -0.000 0.82376(30) 0.66740(29) 0.0290 Uiso
C20_5 C 0.047(6) 0.67791(30) 0.84468(29) 0.0256 Uiso
C21_5 C 0.146(6) 0.56628(30) 0.95806(29) 0.0256 Uiso
C22_5 C 0.146(7) 0.60034(30) 0.93025(29) 0.0256 Uiso
C23_5 C 0.193(8) 0.61498(30) 0.91760(29) 0.0256 Uiso
C24_5 C 0.192(8) 0.64532(30) 0.89009(29) 0.0256 Uiso
C25_5 C 0.145(9) 0.65925(30) 0.87751(29) 0.0256 Uiso
C26_5 C 0.097(7) 0.64412(30) 0.88959(29) 0.0256 Uiso
C27_5 C 0.099(7) 0.61338(30) 0.91705(29) 0.0256 Uiso
C28_5 C 0.048(6) 0.65622(30) 0.87534(29) 0.0256 Uiso
H8_5 H 0.082(26) 0.68490(30) 0.83279(29) 0.0290 Uiso
H9_5 H 0.064(27) 0.59931(30) 0.92724(29) 0.0290 Uiso
H10_5 H 0.229(30) 0.60383(30) 0.92725(29) 0.0290 Uiso
H11_5 H 0.15(5) 0.68321(30) 0.85651(29) 0.0290 Uiso
H12_5 H 0.084(28) 0.75848(30) 0.74358(29) 0.0290 Uiso
C29_5 C 0.047(7) 0.76767(30) 0.73329(29) 0.0256 Uiso
C30_5 C 0.047(6) 0.79252(30) 0.70369(29) 0.0256 Uiso
C31_5 C 0.096(5) 0.80331(30) 0.68842(29) 0.0256 Uiso
C32_5 C 0.241(5) 0.65847(30) 0.87502(29) 0.0256 Uiso
O7_2 O 0.1900(34) 0.55264(30) 0.96846(29) 0.0353 Uiso
O8_2 O 0.1018(31) 0.55266(30) 0.96843(29) 0.0353 Uiso
O9_3 O 0.2829(26) 0.64090(30) 0.88605(29) 0.0353 Uiso
O10_3 O 0.237(4) 0.68761(30) 0.84973(29) 0.0353 Uiso
C33_6 C 0.31133(30) 1.000 0.83095(29) 0.0256 Uiso
C34_6 C 0.28916(30) 1.000 0.80236(29) 0.0256 Uiso
C35_5 C 0.32209(30) 0.953(6) 0.84468(29) 0.0256 Uiso
C36_6 C 0.35247(30) 1.000 0.88906(29) 0.0256 Uiso
H13_6 H 0.36740(30) 1.000 0.91304(29) 0.0290 Uiso
C37_6 C 0.26677(30) 1.000 0.77535(29) 0.0256 Uiso
C38_6 C 0.24345(30) 1.000 0.74712(29) 0.0256 Uiso
C39_6 C 0.19550(30) 1.000 0.69015(29) 0.0256 Uiso
H14_6 H 0.17624(30) 1.000 0.66740(29) 0.0290 Uiso
C40_5 C 0.43372(30) 0.854(6) 0.95806(29) 0.0256 Uiso
C41_5 C 0.39966(30) 0.854(7) 0.93025(29) 0.0256 Uiso
C42_5 C 0.38502(30) 0.807(8) 0.91760(29) 0.0256 Uiso
C43_5 C 0.35468(30) 0.808(8) 0.89009(29) 0.0256 Uiso
C44_5 C 0.34075(30) 0.855(9) 0.87751(29) 0.0256 Uiso
C45_5 C 0.35588(30) 0.903(7) 0.88959(29) 0.0256 Uiso
C46_5 C 0.38662(30) 0.901(7) 0.91705(29) 0.0256 Uiso
C47_5 C 0.34378(30) 0.952(6) 0.87534(29) 0.0256 Uiso
H15_5 H 0.31510(30) 0.918(26) 0.83279(29) 0.0290 Uiso
H16_5 H 0.40069(30) 0.936(27) 0.92724(29) 0.0290 Uiso
H17_5 H 0.39617(30) 0.771(30) 0.92725(29) 0.0290 Uiso
H18_5 H 0.31679(30) 0.85(5) 0.85651(29) 0.0290 Uiso
H19_5 H 0.24152(30) 0.916(28) 0.74358(29) 0.0290 Uiso
C48_5 C 0.23233(30) 0.953(7) 0.73329(29) 0.0256 Uiso
C49_5 C 0.20748(30) 0.953(6) 0.70369(29) 0.0256 Uiso
C50_5 C 0.19669(30) 0.904(5) 0.68842(29) 0.0256 Uiso
C51_5 C 0.34153(30) 0.759(5) 0.87502(29) 0.0256 Uiso
O13_4 O 0.44736(30) 0.8100(34) 0.96846(29) 0.0353 Uiso
O14_4 O 0.44734(30) 0.8982(31) 0.96843(29) 0.0353 Uiso
O15_5 O 0.35910(30) 0.7171(26) 0.88605(29) 0.0353 Uiso
O16_5 O 0.31239(30) 0.763(4) 0.84973(29) 0.0353 Uiso
Cu15_4 Cu 0.500 0.8092(21) 1.000 0.0064 Uiso
Cu16_4 Cu 0.1908(21) 0.500 1.000 0.0064 Uiso
Cu18_4 Cu 0.500 0.9031(20) 1.000 0.0064 Uiso
Cu19_4 Cu 0.0969(20) 0.500 1.000 0.0064 Uiso
Cu3_3 Cu 0.8092(21) 0.500 -0.000 0.0064 Uiso
Cu4_3 Cu 0.9031(20) 0.500 -0.000 0.0064 Uiso
O26_5 O 0.8100(34) 0.55264(30) 0.03154(29) 0.0353 Uiso
O27_5 O 0.8100(34) 0.44736(30) 0.03154(29) 0.0353 Uiso
O29_5 O 0.8982(31) 0.55266(30) 0.03157(29) 0.0353 Uiso
O30_5 O 0.8982(31) 0.44734(30) 0.03157(29) 0.0353 Uiso
C1_6 C 1.000 0.68867(30) 0.83095(29) 0.0256 Uiso
C2_6 C 1.000 0.71084(30) 0.80236(29) 0.0256 Uiso
C3_5 C 0.953(6) 0.67791(30) 0.84468(29) 0.0256 Uiso
C4_6 C 1.000 0.64753(30) 0.88906(29) 0.0256 Uiso
H1_6 H 1.000 0.63260(30) 0.91304(29) 0.0290 Uiso
C5_6 C 1.000 0.73323(30) 0.77535(29) 0.0256 Uiso
C6_6 C 1.000 0.75655(30) 0.74712(29) 0.0256 Uiso
C7_6 C 1.000 0.80450(30) 0.69015(29) 0.0256 Uiso
H2_6 H 1.000 0.82376(30) 0.66740(29) 0.0290 Uiso
C8_5 C 0.854(6) 0.56628(30) 0.95806(29) 0.0256 Uiso
C9_5 C 0.854(7) 0.60034(30) 0.93025(29) 0.0256 Uiso
C10_5 C 0.807(8) 0.61498(30) 0.91760(29) 0.0256 Uiso
C11_5 C 0.808(8) 0.64532(30) 0.89009(29) 0.0256 Uiso
C12_5 C 0.855(9) 0.65925(30) 0.87751(29) 0.0256 Uiso
C13_5 C 0.903(7) 0.64412(30) 0.88959(29) 0.0256 Uiso
C14_5 C 0.901(7) 0.61338(30) 0.91705(29) 0.0256 Uiso
C15_5 C 0.952(6) 0.65622(30) 0.87534(29) 0.0256 Uiso
H3_5 H 0.918(26) 0.68490(30) 0.83279(29) 0.0290 Uiso
H4_5 H 0.936(27) 0.59931(30) 0.92724(29) 0.0290 Uiso
H5_5 H 0.771(30) 0.60383(30) 0.92725(29) 0.0290 Uiso
H6_5 H 0.85(5) 0.68321(30) 0.85651(29) 0.0290 Uiso
H7_5 H 0.916(28) 0.75848(30) 0.74358(29) 0.0290 Uiso
C16_5 C 0.953(7) 0.76767(30) 0.73329(29) 0.0256 Uiso
C17_5 C 0.953(6) 0.79252(30) 0.70369(29) 0.0256 Uiso
C18_5 C 0.904(5) 0.80331(30) 0.68842(29) 0.0256 Uiso
C19_5 C 0.759(5) 0.65847(30) 0.87502(29) 0.0256 Uiso
O1_2 O 0.8100(34) 0.55264(30) 0.96846(29) 0.0353 Uiso
O2_2 O 0.8982(31) 0.55266(30) 0.96843(29) 0.0353 Uiso
O3_5 O 0.7171(26) 0.64090(30) 0.88605(29) 0.0353 Uiso
O4_5 O 0.763(4) 0.68761(30) 0.84973(29) 0.0353 Uiso
Cu3_4 Cu 0.8092(21) 0.500 1.000 0.0064 Uiso
Cu4_4 Cu 0.9031(20) 0.500 1.000 0.0064 Uiso
O25_3 O 0.8100(34) 0.44736(30) 0.96846(29) 0.0353 Uiso
O28_3 O 0.8982(31) 0.44734(30) 0.96843(29) 0.0353 Uiso
O31_4 O 0.64090(30) 0.7171(26) 0.88605(29) 0.0353 Uiso
O32_4 O 0.68761(30) 0.763(4) 0.84973(29) 0.0353 Uiso
C33_7 C 0.000 0.31133(30) 0.83095(29) 0.0256 Uiso
C34_7 C 0.000 0.28916(30) 0.80236(29) 0.0256 Uiso
C35_6 C 0.047(6) 0.32209(30) 0.84468(29) 0.0256 Uiso
C36_7 C 0.000 0.35247(30) 0.88906(29) 0.0256 Uiso
H13_7 H 0.000 0.36740(30) 0.91304(29) 0.0290 Uiso
C37_7 C 0.000 0.26677(30) 0.77535(29) 0.0256 Uiso
C38_7 C 0.000 0.24345(30) 0.74712(29) 0.0256 Uiso
C39_7 C 0.000 0.19550(30) 0.69015(29) 0.0256 Uiso
H14_7 H 0.000 0.17624(30) 0.66740(29) 0.0290 Uiso
C40_6 C 0.146(6) 0.43372(30) 0.95806(29) 0.0256 Uiso
C41_6 C 0.146(7) 0.39966(30) 0.93025(29) 0.0256 Uiso
C42_6 C 0.193(8) 0.38502(30) 0.91760(29) 0.0256 Uiso
C43_6 C 0.192(8) 0.35468(30) 0.89009(29) 0.0256 Uiso
C44_6 C 0.145(9) 0.34075(30) 0.87751(29) 0.0256 Uiso
C45_6 C 0.097(7) 0.35588(30) 0.88959(29) 0.0256 Uiso
C46_6 C 0.099(7) 0.38662(30) 0.91705(29) 0.0256 Uiso
C47_6 C 0.048(6) 0.34378(30) 0.87534(29) 0.0256 Uiso
H15_6 H 0.082(26) 0.31510(30) 0.83279(29) 0.0290 Uiso
H16_6 H 0.064(27) 0.40069(30) 0.92724(29) 0.0290 Uiso
H17_6 H 0.229(30) 0.39617(30) 0.92725(29) 0.0290 Uiso
H18_6 H 0.15(5) 0.31679(30) 0.85651(29) 0.0290 Uiso
H19_6 H 0.084(28) 0.24152(30) 0.74358(29) 0.0290 Uiso
C48_6 C 0.047(7) 0.23233(30) 0.73329(29) 0.0256 Uiso
C49_6 C 0.047(6) 0.20748(30) 0.70369(29) 0.0256 Uiso
C50_6 C 0.096(5) 0.19669(30) 0.68842(29) 0.0256 Uiso
C51_6 C 0.241(5) 0.34153(30) 0.87502(29) 0.0256 Uiso
O13_5 O 0.1900(34) 0.44736(30) 0.96846(29) 0.0353 Uiso
O14_5 O 0.1018(31) 0.44734(30) 0.96843(29) 0.0353 Uiso
O15_6 O 0.2829(26) 0.35910(30) 0.88605(29) 0.0353 Uiso
O16_6 O 0.237(4) 0.31239(30) 0.84973(29) 0.0353 Uiso
O26_6 O 0.44736(30) 0.8100(34) 0.03154(29) 0.0353 Uiso
O27_6 O 0.55264(30) 0.8100(34) 0.03154(29) 0.0353 Uiso
O29_6 O 0.44734(30) 0.8982(31) 0.03157(29) 0.0353 Uiso
O30_6 O 0.55266(30) 0.8982(31) 0.03157(29) 0.0353 Uiso
O25_4 O 0.55264(30) 0.8100(34) 0.96846(29) 0.0353 Uiso
O28_4 O 0.55266(30) 0.8982(31) 0.96843(29) 0.0353 Uiso
C33_8 C 1.000 0.31133(30) 0.83095(29) 0.0256 Uiso
C34_8 C 1.000 0.28916(30) 0.80236(29) 0.0256 Uiso
C36_8 C 1.000 0.35247(30) 0.88906(29) 0.0256 Uiso
H13_8 H 1.000 0.36740(30) 0.91304(29) 0.0290 Uiso
C37_8 C 1.000 0.26677(30) 0.77535(29) 0.0256 Uiso
C38_8 C 1.000 0.24345(30) 0.74712(29) 0.0256 Uiso
C39_8 C 1.000 0.19550(30) 0.69015(29) 0.0256 Uiso
H14_8 H 1.000 0.17624(30) 0.66740(29) 0.0290 Uiso
C52_6 C 0.953(6) 0.32209(30) 0.84468(29) 0.0256 Uiso
C53_6 C 0.854(6) 0.43372(30) 0.95806(29) 0.0256 Uiso
C54_6 C 0.854(7) 0.39966(30) 0.93025(29) 0.0256 Uiso
C55_6 C 0.807(8) 0.38502(30) 0.91760(29) 0.0256 Uiso
C56_6 C 0.808(8) 0.35468(30) 0.89009(29) 0.0256 Uiso
C57_6 C 0.855(9) 0.34075(30) 0.87751(29) 0.0256 Uiso
C58_6 C 0.903(7) 0.35588(30) 0.88959(29) 0.0256 Uiso
C59_6 C 0.901(7) 0.38662(30) 0.91705(29) 0.0256 Uiso
C60_6 C 0.952(6) 0.34378(30) 0.87534(29) 0.0256 Uiso
H20_6 H 0.918(26) 0.31510(30) 0.83279(29) 0.0290 Uiso
H21_6 H 0.936(27) 0.40069(30) 0.92724(29) 0.0290 Uiso
H22_6 H 0.771(30) 0.39617(30) 0.92725(29) 0.0290 Uiso
H23_6 H 0.85(5) 0.31679(30) 0.85651(29) 0.0290 Uiso
H24_6 H 0.916(28) 0.24152(30) 0.74358(29) 0.0290 Uiso
C61_6 C 0.953(7) 0.23233(30) 0.73329(29) 0.0256 Uiso
C62_6 C 0.953(6) 0.20748(30) 0.70369(29) 0.0256 Uiso
C63_6 C 0.904(5) 0.19669(30) 0.68842(29) 0.0256 Uiso
C64_6 C 0.759(5) 0.34153(30) 0.87502(29) 0.0256 Uiso
O21_5 O 0.7171(26) 0.35910(30) 0.88605(29) 0.0353 Uiso
O22_5 O 0.763(4) 0.31239(30) 0.84973(29) 0.0353 Uiso
O26_7 O 0.1900(34) 0.44736(30) 0.03154(29) 0.0353 Uiso
O27_7 O 0.1900(34) 0.55264(30) 0.03154(29) 0.0353 Uiso
O29_7 O 0.1018(31) 0.44734(30) 0.03157(29) 0.0353 Uiso
O30_7 O 0.1018(31) 0.55266(30) 0.03157(29) 0.0353 Uiso
C33_9 C 0.68867(30) 0.000 0.83095(29) 0.0256 Uiso
C34_9 C 0.71084(30) 0.000 0.80236(29) 0.0256 Uiso
C35_7 C 0.67791(30) 0.047(6) 0.84468(29) 0.0256 Uiso
C36_9 C 0.64753(30) 0.000 0.88906(29) 0.0256 Uiso
H13_9 H 0.63260(30) 0.000 0.91304(29) 0.0290 Uiso
C37_9 C 0.73323(30) 0.000 0.77535(29) 0.0256 Uiso
C38_9 C 0.75655(30) 0.000 0.74712(29) 0.0256 Uiso
C39_9 C 0.80450(30) 0.000 0.69015(29) 0.0256 Uiso
H14_9 H 0.82376(30) 0.000 0.66740(29) 0.0290 Uiso
C40_7 C 0.56628(30) 0.146(6) 0.95806(29) 0.0256 Uiso
C41_7 C 0.60034(30) 0.146(7) 0.93025(29) 0.0256 Uiso
C42_7 C 0.61498(30) 0.193(8) 0.91760(29) 0.0256 Uiso
C43_7 C 0.64532(30) 0.192(8) 0.89009(29) 0.0256 Uiso
C44_7 C 0.65925(30) 0.145(9) 0.87751(29) 0.0256 Uiso
C45_7 C 0.64412(30) 0.097(7) 0.88959(29) 0.0256 Uiso
C46_7 C 0.61338(30) 0.099(7) 0.91705(29) 0.0256 Uiso
C47_7 C 0.65622(30) 0.048(6) 0.87534(29) 0.0256 Uiso
H15_7 H 0.68490(30) 0.082(26) 0.83279(29) 0.0290 Uiso
H16_7 H 0.59931(30) 0.064(27) 0.92724(29) 0.0290 Uiso
H17_7 H 0.60383(30) 0.229(30) 0.92725(29) 0.0290 Uiso
H18_7 H 0.68321(30) 0.15(5) 0.85651(29) 0.0290 Uiso
H19_7 H 0.75848(30) 0.084(28) 0.74358(29) 0.0290 Uiso
C48_7 C 0.76767(30) 0.047(7) 0.73329(29) 0.0256 Uiso
C49_7 C 0.79252(30) 0.047(6) 0.70369(29) 0.0256 Uiso
C50_7 C 0.80331(30) 0.096(5) 0.68842(29) 0.0256 Uiso
C51_7 C 0.65847(30) 0.241(5) 0.87502(29) 0.0256 Uiso
O13_6 O 0.55264(30) 0.1900(34) 0.96846(29) 0.0353 Uiso
O14_6 O 0.55266(30) 0.1018(31) 0.96843(29) 0.0353 Uiso
O15_7 O 0.64090(30) 0.2829(26) 0.88605(29) 0.0353 Uiso
O16_7 O 0.68761(30) 0.237(4) 0.84973(29) 0.0353 Uiso
C33_10 C 0.68867(30) 1.000 0.83095(29) 0.0256 Uiso
C34_10 C 0.71084(30) 1.000 0.80236(29) 0.0256 Uiso
C36_10 C 0.64753(30) 1.000 0.88906(29) 0.0256 Uiso
H13_10 H 0.63260(30) 1.000 0.91304(29) 0.0290 Uiso
C37_10 C 0.73323(30) 1.000 0.77535(29) 0.0256 Uiso
C38_10 C 0.75655(30) 1.000 0.74712(29) 0.0256 Uiso
C39_10 C 0.80450(30) 1.000 0.69015(29) 0.0256 Uiso
H14_10 H 0.82376(30) 1.000 0.66740(29) 0.0290 Uiso
C52_7 C 0.67791(30) 0.953(6) 0.84468(29) 0.0256 Uiso
C53_7 C 0.56628(30) 0.854(6) 0.95806(29) 0.0256 Uiso
C54_7 C 0.60034(30) 0.854(7) 0.93025(29) 0.0256 Uiso
C55_7 C 0.61498(30) 0.807(8) 0.91760(29) 0.0256 Uiso
C56_7 C 0.64532(30) 0.808(8) 0.89009(29) 0.0256 Uiso
C57_7 C 0.65925(30) 0.855(9) 0.87751(29) 0.0256 Uiso
C58_7 C 0.64412(30) 0.903(7) 0.88959(29) 0.0256 Uiso
C59_7 C 0.61338(30) 0.901(7) 0.91705(29) 0.0256 Uiso
C60_7 C 0.65622(30) 0.952(6) 0.87534(29) 0.0256 Uiso
H20_7 H 0.68490(30) 0.918(26) 0.83279(29) 0.0290 Uiso
H21_7 H 0.59931(30) 0.936(27) 0.92724(29) 0.0290 Uiso
H22_7 H 0.60383(30) 0.771(30) 0.92725(29) 0.0290 Uiso
H23_7 H 0.68321(30) 0.85(5) 0.85651(29) 0.0290 Uiso
H24_7 H 0.75848(30) 0.916(28) 0.74358(29) 0.0290 Uiso
C61_7 C 0.76767(30) 0.953(7) 0.73329(29) 0.0256 Uiso
C62_7 C 0.79252(30) 0.953(6) 0.70369(29) 0.0256 Uiso
C63_7 C 0.80331(30) 0.904(5) 0.68842(29) 0.0256 Uiso
C64_7 C 0.65847(30) 0.759(5) 0.87502(29) 0.0256 Uiso
O26_8 O 0.55264(30) 0.1900(34) 0.03154(29) 0.0353 Uiso
O27_8 O 0.44736(30) 0.1900(34) 0.03154(29) 0.0353 Uiso
O29_8 O 0.55266(30) 0.1018(31) 0.03157(29) 0.0353 Uiso
O30_8 O 0.44734(30) 0.1018(31) 0.03157(29) 0.0353 Uiso
C1_7 C -0.000 0.31133(30) 0.16905(29) 0.0256 Uiso
C2_7 C -0.000 0.28916(30) 0.19764(29) 0.0256 Uiso
C4_7 C -0.000 0.35247(30) 0.11094(29) 0.0256 Uiso
H1_7 H -0.000 0.36740(30) 0.08696(29) 0.0290 Uiso
C5_7 C -0.000 0.26677(30) 0.22465(29) 0.0256 Uiso
C6_7 C -0.000 0.24345(30) 0.25288(29) 0.0256 Uiso
C7_7 C -0.000 0.19550(30) 0.30985(29) 0.0256 Uiso
H2_7 H -0.000 0.17624(30) 0.33260(29) 0.0290 Uiso
C20_6 C 0.047(6) 0.32209(30) 0.15532(29) 0.0256 Uiso
C21_6 C 0.146(6) 0.43372(30) 0.04194(29) 0.0256 Uiso
C22_6 C 0.146(7) 0.39966(30) 0.06975(29) 0.0256 Uiso
C23_6 C 0.193(8) 0.38502(30) 0.08240(29) 0.0256 Uiso
C24_6 C 0.192(8) 0.35468(30) 0.10991(29) 0.0256 Uiso
C25_6 C 0.145(9) 0.34075(30) 0.12249(29) 0.0256 Uiso
C26_6 C 0.097(7) 0.35588(30) 0.11041(29) 0.0256 Uiso
C27_6 C 0.099(7) 0.38662(30) 0.08295(29) 0.0256 Uiso
C28_6 C 0.048(6) 0.34378(30) 0.12466(29) 0.0256 Uiso
H8_6 H 0.082(26) 0.31510(30) 0.16721(29) 0.0290 Uiso
H9_6 H 0.064(27) 0.40069(30) 0.07276(29) 0.0290 Uiso
H10_6 H 0.229(30) 0.39617(30) 0.07275(29) 0.0290 Uiso
H11_6 H 0.15(5) 0.31679(30) 0.14349(29) 0.0290 Uiso
H12_6 H 0.084(28) 0.24152(30) 0.25642(29) 0.0290 Uiso
C29_6 C 0.047(7) 0.23233(30) 0.26671(29) 0.0256 Uiso
C30_6 C 0.047(6) 0.20748(30) 0.29631(29) 0.0256 Uiso
C31_6 C 0.096(5) 0.19669(30) 0.31158(29) 0.0256 Uiso
C32_6 C 0.241(5) 0.34153(30) 0.12498(29) 0.0256 Uiso
O9_4 O 0.2829(26) 0.35910(30) 0.11395(29) 0.0353 Uiso
O10_4 O 0.237(4) 0.31239(30) 0.15027(29) 0.0353 Uiso
C33_11 C 0.31133(30) 0.000 0.16905(29) 0.0256 Uiso
C34_11 C 0.28916(30) 0.000 0.19764(29) 0.0256 Uiso
C35_8 C 0.32209(30) 0.047(6) 0.15532(29) 0.0256 Uiso
C36_11 C 0.35247(30) 0.000 0.11094(29) 0.0256 Uiso
H13_11 H 0.36740(30) 0.000 0.08696(29) 0.0290 Uiso
C37_11 C 0.26677(30) 0.000 0.22465(29) 0.0256 Uiso
C38_11 C 0.24345(30) 0.000 0.25288(29) 0.0256 Uiso
C39_11 C 0.19550(30) 0.000 0.30985(29) 0.0256 Uiso
H14_11 H 0.17624(30) 0.000 0.33260(29) 0.0290 Uiso
C40_8 C 0.43372(30) 0.146(6) 0.04194(29) 0.0256 Uiso
C41_8 C 0.39966(30) 0.146(7) 0.06975(29) 0.0256 Uiso
C42_8 C 0.38502(30) 0.193(8) 0.08240(29) 0.0256 Uiso
C43_8 C 0.35468(30) 0.192(8) 0.10991(29) 0.0256 Uiso
C44_8 C 0.34075(30) 0.145(9) 0.12249(29) 0.0256 Uiso
C45_8 C 0.35588(30) 0.097(7) 0.11041(29) 0.0256 Uiso
C46_8 C 0.38662(30) 0.099(7) 0.08295(29) 0.0256 Uiso
C47_8 C 0.34378(30) 0.048(6) 0.12466(29) 0.0256 Uiso
H15_8 H 0.31510(30) 0.082(26) 0.16721(29) 0.0290 Uiso
H16_8 H 0.40069(30) 0.064(27) 0.07276(29) 0.0290 Uiso
H17_8 H 0.39617(30) 0.229(30) 0.07275(29) 0.0290 Uiso
H18_8 H 0.31679(30) 0.15(5) 0.14349(29) 0.0290 Uiso
H19_8 H 0.24152(30) 0.084(28) 0.25642(29) 0.0290 Uiso
C48_8 C 0.23233(30) 0.047(7) 0.26671(29) 0.0256 Uiso
C49_8 C 0.20748(30) 0.047(6) 0.29631(29) 0.0256 Uiso
C50_8 C 0.19669(30) 0.096(5) 0.31158(29) 0.0256 Uiso
C51_8 C 0.34153(30) 0.241(5) 0.12498(29) 0.0256 Uiso
O15_8 O 0.35910(30) 0.2829(26) 0.11395(29) 0.0353 Uiso
O16_8 O 0.31239(30) 0.237(4) 0.15027(29) 0.0353 Uiso
C33_12 C 0.31133(30) 1.000 0.16905(29) 0.0256 Uiso
C34_12 C 0.28916(30) 1.000 0.19764(29) 0.0256 Uiso
C36_12 C 0.35247(30) 1.000 0.11094(29) 0.0256 Uiso
H13_12 H 0.36740(30) 1.000 0.08696(29) 0.0290 Uiso
C37_12 C 0.26677(30) 1.000 0.22465(29) 0.0256 Uiso
C38_12 C 0.24345(30) 1.000 0.25288(29) 0.0256 Uiso
C39_12 C 0.19550(30) 1.000 0.30985(29) 0.0256 Uiso
H14_12 H 0.17624(30) 1.000 0.33260(29) 0.0290 Uiso
C52_8 C 0.32209(30) 0.953(6) 0.15532(29) 0.0256 Uiso
C53_8 C 0.43372(30) 0.854(6) 0.04194(29) 0.0256 Uiso
C54_8 C 0.39966(30) 0.854(7) 0.06975(29) 0.0256 Uiso
C55_8 C 0.38502(30) 0.807(8) 0.08240(29) 0.0256 Uiso
C56_8 C 0.35468(30) 0.808(8) 0.10991(29) 0.0256 Uiso
C57_8 C 0.34075(30) 0.855(9) 0.12249(29) 0.0256 Uiso
C58_8 C 0.35588(30) 0.903(7) 0.11041(29) 0.0256 Uiso
C59_8 C 0.38662(30) 0.901(7) 0.08295(29) 0.0256 Uiso
C60_8 C 0.34378(30) 0.952(6) 0.12466(29) 0.0256 Uiso
H20_8 H 0.31510(30) 0.918(26) 0.16721(29) 0.0290 Uiso
H21_8 H 0.40069(30) 0.936(27) 0.07276(29) 0.0290 Uiso
H22_8 H 0.39617(30) 0.771(30) 0.07275(29) 0.0290 Uiso
H23_8 H 0.31679(30) 0.85(5) 0.14349(29) 0.0290 Uiso
H24_8 H 0.24152(30) 0.916(28) 0.25642(29) 0.0290 Uiso
C61_8 C 0.23233(30) 0.953(7) 0.26671(29) 0.0256 Uiso
C62_8 C 0.20748(30) 0.953(6) 0.29631(29) 0.0256 Uiso
C63_8 C 0.19669(30) 0.904(5) 0.31158(29) 0.0256 Uiso
C64_8 C 0.34153(30) 0.759(5) 0.12498(29) 0.0256 Uiso
O21_6 O 0.35910(30) 0.7171(26) 0.11395(29) 0.0353 Uiso
O22_6 O 0.31239(30) 0.763(4) 0.15027(29) 0.0353 Uiso
C1_8 C 1.000 0.31133(30) 0.16905(29) 0.0256 Uiso
C2_8 C 1.000 0.28916(30) 0.19764(29) 0.0256 Uiso
C3_6 C 0.953(6) 0.32209(30) 0.15532(29) 0.0256 Uiso
C4_8 C 1.000 0.35247(30) 0.11094(29) 0.0256 Uiso
H1_8 H 1.000 0.36740(30) 0.08696(29) 0.0290 Uiso
C5_8 C 1.000 0.26677(30) 0.22465(29) 0.0256 Uiso
C6_8 C 1.000 0.24345(30) 0.25288(29) 0.0256 Uiso
C7_8 C 1.000 0.19550(30) 0.30985(29) 0.0256 Uiso
H2_8 H 1.000 0.17624(30) 0.33260(29) 0.0290 Uiso
C8_6 C 0.854(6) 0.43372(30) 0.04194(29) 0.0256 Uiso
C9_6 C 0.854(7) 0.39966(30) 0.06975(29) 0.0256 Uiso
C10_6 C 0.807(8) 0.38502(30) 0.08240(29) 0.0256 Uiso
C11_6 C 0.808(8) 0.35468(30) 0.10991(29) 0.0256 Uiso
C12_6 C 0.855(9) 0.34075(30) 0.12249(29) 0.0256 Uiso
C13_6 C 0.903(7) 0.35588(30) 0.11041(29) 0.0256 Uiso
C14_6 C 0.901(7) 0.38662(30) 0.08295(29) 0.0256 Uiso
C15_6 C 0.952(6) 0.34378(30) 0.12466(29) 0.0256 Uiso
H3_6 H 0.918(26) 0.31510(30) 0.16721(29) 0.0290 Uiso
H4_6 H 0.936(27) 0.40069(30) 0.07276(29) 0.0290 Uiso
H5_6 H 0.771(30) 0.39617(30) 0.07275(29) 0.0290 Uiso
H6_6 H 0.85(5) 0.31679(30) 0.14349(29) 0.0290 Uiso
H7_6 H 0.916(28) 0.24152(30) 0.25642(29) 0.0290 Uiso
C16_6 C 0.953(7) 0.23233(30) 0.26671(29) 0.0256 Uiso
C17_6 C 0.953(6) 0.20748(30) 0.29631(29) 0.0256 Uiso
C18_6 C 0.904(5) 0.19669(30) 0.31158(29) 0.0256 Uiso
C19_6 C 0.759(5) 0.34153(30) 0.12498(29) 0.0256 Uiso
O3_6 O 0.7171(26) 0.35910(30) 0.11395(29) 0.0353 Uiso
O4_6 O 0.763(4) 0.31239(30) 0.15027(29) 0.0353 Uiso
O31_5 O 0.64090(30) 0.2829(26) 0.11395(29) 0.0353 Uiso
O32_5 O 0.68761(30) 0.237(4) 0.15027(29) 0.0353 Uiso
C1_9 C 0.68867(30) -0.000 0.16905(29) 0.0256 Uiso
C2_9 C 0.71084(30) -0.000 0.19764(29) 0.0256 Uiso
C4_9 C 0.64753(30) -0.000 0.11094(29) 0.0256 Uiso
H1_9 H 0.63260(30) -0.000 0.08696(29) 0.0290 Uiso
C5_9 C 0.73323(30) -0.000 0.22465(29) 0.0256 Uiso
C6_9 C 0.75655(30) -0.000 0.25288(29) 0.0256 Uiso
C7_9 C 0.80450(30) -0.000 0.30985(29) 0.0256 Uiso
H2_9 H 0.82376(30) -0.000 0.33260(29) 0.0290 Uiso
C20_7 C 0.67791(30) 0.047(6) 0.15532(29) 0.0256 Uiso
C21_7 C 0.56628(30) 0.146(6) 0.04194(29) 0.0256 Uiso
C22_7 C 0.60034(30) 0.146(7) 0.06975(29) 0.0256 Uiso
C23_7 C 0.61498(30) 0.193(8) 0.08240(29) 0.0256 Uiso
C24_7 C 0.64532(30) 0.192(8) 0.10991(29) 0.0256 Uiso
C25_7 C 0.65925(30) 0.145(9) 0.12249(29) 0.0256 Uiso
C26_7 C 0.64412(30) 0.097(7) 0.11041(29) 0.0256 Uiso
C27_7 C 0.61338(30) 0.099(7) 0.08295(29) 0.0256 Uiso
C28_7 C 0.65622(30) 0.048(6) 0.12466(29) 0.0256 Uiso
H8_7 H 0.68490(30) 0.082(26) 0.16721(29) 0.0290 Uiso
H9_7 H 0.59931(30) 0.064(27) 0.07276(29) 0.0290 Uiso
H10_7 H 0.60383(30) 0.229(30) 0.07275(29) 0.0290 Uiso
H11_7 H 0.68321(30) 0.15(5) 0.14349(29) 0.0290 Uiso
H12_7 H 0.75848(30) 0.084(28) 0.25642(29) 0.0290 Uiso
C29_7 C 0.76767(30) 0.047(7) 0.26671(29) 0.0256 Uiso
C30_7 C 0.79252(30) 0.047(6) 0.29631(29) 0.0256 Uiso
C31_7 C 0.80331(30) 0.096(5) 0.31158(29) 0.0256 Uiso
C32_7 C 0.65847(30) 0.241(5) 0.12498(29) 0.0256 Uiso
C1_10 C 0.68867(30) 1.000 0.16905(29) 0.0256 Uiso
C2_10 C 0.71084(30) 1.000 0.19764(29) 0.0256 Uiso
C3_7 C 0.67791(30) 0.953(6) 0.15532(29) 0.0256 Uiso
C4_10 C 0.64753(30) 1.000 0.11094(29) 0.0256 Uiso
H1_10 H 0.63260(30) 1.000 0.08696(29) 0.0290 Uiso
C5_10 C 0.73323(30) 1.000 0.22465(29) 0.0256 Uiso
C6_10 C 0.75655(30) 1.000 0.25288(29) 0.0256 Uiso
C7_10 C 0.80450(30) 1.000 0.30985(29) 0.0256 Uiso
H2_10 H 0.82376(30) 1.000 0.33260(29) 0.0290 Uiso
C8_7 C 0.56628(30) 0.854(6) 0.04194(29) 0.0256 Uiso
C9_7 C 0.60034(30) 0.854(7) 0.06975(29) 0.0256 Uiso
C10_7 C 0.61498(30) 0.807(8) 0.08240(29) 0.0256 Uiso
C11_7 C 0.64532(30) 0.808(8) 0.10991(29) 0.0256 Uiso
C12_7 C 0.65925(30) 0.855(9) 0.12249(29) 0.0256 Uiso
C13_7 C 0.64412(30) 0.903(7) 0.11041(29) 0.0256 Uiso
C14_7 C 0.61338(30) 0.901(7) 0.08295(29) 0.0256 Uiso
C15_7 C 0.65622(30) 0.952(6) 0.12466(29) 0.0256 Uiso
H3_7 H 0.68490(30) 0.918(26) 0.16721(29) 0.0290 Uiso
H4_7 H 0.59931(30) 0.936(27) 0.07276(29) 0.0290 Uiso
H5_7 H 0.60383(30) 0.771(30) 0.07275(29) 0.0290 Uiso
H6_7 H 0.68321(30) 0.85(5) 0.14349(29) 0.0290 Uiso
H7_7 H 0.75848(30) 0.916(28) 0.25642(29) 0.0290 Uiso
C16_7 C 0.76767(30) 0.953(7) 0.26671(29) 0.0256 Uiso
C17_7 C 0.79252(30) 0.953(6) 0.29631(29) 0.0256 Uiso
C18_7 C 0.80331(30) 0.904(5) 0.31158(29) 0.0256 Uiso
C19_7 C 0.65847(30) 0.759(5) 0.12498(29) 0.0256 Uiso
O3_7 O 0.64090(30) 0.7171(26) 0.11395(29) 0.0353 Uiso
O4_7 O 0.68761(30) 0.763(4) 0.15027(29) 0.0353 Uiso
O31_6 O 0.7171(26) 0.64090(30) 0.11395(29) 0.0353 Uiso
O32_6 O 0.763(4) 0.68761(30) 0.15027(29) 0.0353 Uiso
C1_11 C 0.000 0.68867(30) 0.16905(29) 0.0256 Uiso
C2_11 C 0.000 0.71084(30) 0.19764(29) 0.0256 Uiso
C3_8 C 0.047(6) 0.67791(30) 0.15532(29) 0.0256 Uiso
C4_11 C 0.000 0.64753(30) 0.11094(29) 0.0256 Uiso
H1_11 H 0.000 0.63260(30) 0.08696(29) 0.0290 Uiso
C5_11 C 0.000 0.73323(30) 0.22465(29) 0.0256 Uiso
C6_11 C 0.000 0.75655(30) 0.25288(29) 0.0256 Uiso
C7_11 C 0.000 0.80450(30) 0.30985(29) 0.0256 Uiso
H2_11 H 0.000 0.82376(30) 0.33260(29) 0.0290 Uiso
C8_8 C 0.146(6) 0.56628(30) 0.04194(29) 0.0256 Uiso
C9_8 C 0.146(7) 0.60034(30) 0.06975(29) 0.0256 Uiso
C10_8 C 0.193(8) 0.61498(30) 0.08240(29) 0.0256 Uiso
C11_8 C 0.192(8) 0.64532(30) 0.10991(29) 0.0256 Uiso
C12_8 C 0.145(9) 0.65925(30) 0.12249(29) 0.0256 Uiso
C13_8 C 0.097(7) 0.64412(30) 0.11041(29) 0.0256 Uiso
C14_8 C 0.099(7) 0.61338(30) 0.08295(29) 0.0256 Uiso
C15_8 C 0.048(6) 0.65622(30) 0.12466(29) 0.0256 Uiso
H3_8 H 0.082(26) 0.68490(30) 0.16721(29) 0.0290 Uiso
H4_8 H 0.064(27) 0.59931(30) 0.07276(29) 0.0290 Uiso
H5_8 H 0.229(30) 0.60383(30) 0.07275(29) 0.0290 Uiso
H6_8 H 0.15(5) 0.68321(30) 0.14349(29) 0.0290 Uiso
H7_8 H 0.084(28) 0.75848(30) 0.25642(29) 0.0290 Uiso
C16_8 C 0.047(7) 0.76767(30) 0.26671(29) 0.0256 Uiso
C17_8 C 0.047(6) 0.79252(30) 0.29631(29) 0.0256 Uiso
C18_8 C 0.096(5) 0.80331(30) 0.31158(29) 0.0256 Uiso
C19_8 C 0.241(5) 0.65847(30) 0.12498(29) 0.0256 Uiso
O3_8 O 0.2829(26) 0.64090(30) 0.11395(29) 0.0353 Uiso
O4_8 O 0.237(4) 0.68761(30) 0.15027(29) 0.0353 Uiso
C1_12 C 1.000 0.68867(30) 0.16905(29) 0.0256 Uiso
C2_12 C 1.000 0.71084(30) 0.19764(29) 0.0256 Uiso
C4_12 C 1.000 0.64753(30) 0.11094(29) 0.0256 Uiso
H1_12 H 1.000 0.63260(30) 0.08696(29) 0.0290 Uiso
C5_12 C 1.000 0.73323(30) 0.22465(29) 0.0256 Uiso
C6_12 C 1.000 0.75655(30) 0.25288(29) 0.0256 Uiso
C7_12 C 1.000 0.80450(30) 0.30985(29) 0.0256 Uiso
H2_12 H 1.000 0.82376(30) 0.33260(29) 0.0290 Uiso
C20_8 C 0.953(6) 0.67791(30) 0.15532(29) 0.0256 Uiso
C21_8 C 0.854(6) 0.56628(30) 0.04194(29) 0.0256 Uiso
C22_8 C 0.854(7) 0.60034(30) 0.06975(29) 0.0256 Uiso
C23_8 C 0.807(8) 0.61498(30) 0.08240(29) 0.0256 Uiso
C24_8 C 0.808(8) 0.64532(30) 0.10991(29) 0.0256 Uiso
C25_8 C 0.855(9) 0.65925(30) 0.12249(29) 0.0256 Uiso
C26_8 C 0.903(7) 0.64412(30) 0.11041(29) 0.0256 Uiso
C27_8 C 0.901(7) 0.61338(30) 0.08295(29) 0.0256 Uiso
C28_8 C 0.952(6) 0.65622(30) 0.12466(29) 0.0256 Uiso
H8_8 H 0.918(26) 0.68490(30) 0.16721(29) 0.0290 Uiso
H9_8 H 0.936(27) 0.59931(30) 0.07276(29) 0.0290 Uiso
H10_8 H 0.771(30) 0.60383(30) 0.07275(29) 0.0290 Uiso
H11_8 H 0.85(5) 0.68321(30) 0.14349(29) 0.0290 Uiso
H12_8 H 0.916(28) 0.75848(30) 0.25642(29) 0.0290 Uiso
C29_8 C 0.953(7) 0.76767(30) 0.26671(29) 0.0256 Uiso
C30_8 C 0.953(6) 0.79252(30) 0.29631(29) 0.0256 Uiso
C31_8 C 0.904(5) 0.80331(30) 0.31158(29) 0.0256 Uiso
C32_8 C 0.759(5) 0.65847(30) 0.12498(29) 0.0256 Uiso
loop_
_geom_bond_atom_site_label_1
_geom_bond_atom_site_label_2
_geom_bond_site_symmetry_1
_geom_bond_site_symmetry_2
Cu15 Cu18 1_555 1_555
Cu17 Cu20 1_555 1_555
C1 C2 1_555 1_555
C2 C5 1_555 1_555
C3 C1 1_555 1_555
C4 H1 1_555 1_555
C5 C6 1_555 1_555
C6 C16 1_555 1_555
C7 H2 1_555 1_555
C8 C9 1_555 1_555
C9 C10 1_555 1_555
C10 C11 1_555 1_555
C11 C12 1_555 1_555
C12 C13 1_555 1_555
C13 C14 1_555 1_555
C14 C9 1_555 1_555
C15 C3 1_555 1_555
H3 C3 1_555 1_555
H4 C14 1_555 1_555
H5 C10 1_555 1_555
H6 C12 1_555 1_555
H7 C16 1_555 1_555
C16 C17 1_555 1_555
C17 C7 1_555 1_555
C18 C17 1_555 1_555
C19 C11 1_555 1_555
O1 C8 1_555 1_555
O2 C8 1_555 1_555
O3 C19 1_555 1_555
O4 C19 1_555 1_555
O5 C18 1_555 1_555
O6 C18 1_555 1_555
Cu1 O3 1_555 1_555
Cu2 O4 1_555 1_555
Cu3 O1 1_555 1_555
Cu4 O2 1_555 1_555
C20 C1 1_555 1_555
C21 C22 1_555 1_555
C22 C23 1_555 1_555
C23 C24 1_555 1_555
C24 C25 1_555 1_555
C25 C26 1_555 1_555
C26 C27 1_555 1_555
C27 C22 1_555 1_555
C28 C4 1_555 1_555
H8 C20 1_555 1_555
H9 C27 1_555 1_555
H10 C23 1_555 1_555
H11 C25 1_555 1_555
H12 C29 1_555 1_555
C29 C6 1_555 1_555
C30 C7 1_555 1_555
C31 C30 1_555 1_555
C32 C24 1_555 1_555
O7 C21 1_555 1_555
O8 C21 1_555 1_555
O9 C32 1_555 1_555
O10 C32 1_555 1_555
O11 C31 1_555 1_555
O12 C31 1_555 1_555
C33 C34 1_555 1_555
C34 C37 1_555 1_555
C35 C33 1_555 1_555
C36 H13 1_555 1_555
C37 C38 1_555 1_555
C38 C48 1_555 1_555
C39 H14 1_555 1_555
C40 C41 1_555 1_555
C41 C42 1_555 1_555
C42 C43 1_555 1_555
C43 C44 1_555 1_555
C44 C45 1_555 1_555
C45 C46 1_555 1_555
C46 C41 1_555 1_555
C47 C35 1_555 1_555
H15 C35 1_555 1_555
H16 C46 1_555 1_555
H17 C42 1_555 1_555
H18 C44 1_555 1_555
H19 C48 1_555 1_555
C48 C49 1_555 1_555
C49 C39 1_555 1_555
C50 C49 1_555 1_555
C51 C43 1_555 1_555
O13 C40 1_555 1_555
O14 C40 1_555 1_555
O15 C51 1_555 1_555
O16 C51 1_555 1_555
O17 C50 1_555 1_555
O18 C50 1_555 1_555
Cu5 O9 1_555 1_555
Cu6 O10 1_555 1_555
C52 C33 1_555 1_555
C53 C54 1_555 1_555
C54 C55 1_555 1_555
C55 C56 1_555 1_555
C56 C57 1_555 1_555
C57 C58 1_555 1_555
C58 C59 1_555 1_555
C59 C54 1_555 1_555
C60 C36 1_555 1_555
H20 C52 1_555 1_555
H21 C59 1_555 1_555
H22 C55 1_555 1_555
H23 C57 1_555 1_555
H24 C61 1_555 1_555
C61 C38 1_555 1_555
C62 C39 1_555 1_555
C63 C62 1_555 1_555
C64 C56 1_555 1_555
O19 C53 1_555 1_555
O20 C53 1_555 1_555
O21 C64 1_555 1_555
O22 C64 1_555 1_555
O23 C63 1_555 1_555
O24 C63 1_555 1_555
O26 Cu3 1_555 1_555
O29 Cu4 1_555 1_555
O31 Cu1 1_555 1_555
O32 Cu2 1_555 1_555
O33 Cu2 1_555 1_555
O34 Cu6 1_555 1_555
O35 Cu6 1_555 1_555
O36 Cu2 1_555 1_555
O37 Cu1 1_555 1_555
O38 Cu5 1_555 1_555
O39 Cu5 1_555 1_555
O40 Cu1 1_555 1_555
Cu7 O21 1_555 1_555
Cu8 O6 1_555 1_555
Cu9 O12 1_555 1_555
Cu10 O24 1_555 1_555
Cu11 O22 1_555 1_555
Cu12 O5 1_555 1_555
Cu13 O11 1_555 1_555
Cu14 O23 1_555 1_555
Cu15_2 O13 1_555 1_555
Cu16 O7 1_555 1_555
Cu17_2 O19 1_555 1_555
Cu18_2 O14 1_555 1_555
Cu19 O8 1_555 1_555
Cu20_2 O20 1_555 1_555
C4 C15 1_555 1_555
C13 C15 1_555 1_555
Cu1 Cu2 1_555 1_555
Cu3 Cu4 1_555 1_555
C20 C28 1_555 1_555
C26 C28 1_555 1_555
C29 C30 1_555 1_555
C36 C47 1_555 1_555
C45 C47 1_555 1_555
O15 Cu5 1_555 1_555
O16 Cu6 1_555 1_555
O17 Cu13 1_555 1_555
O18 Cu9 1_555 1_555
Cu5 Cu6 1_555 1_555
C52 C60 1_555 1_555
C58 C60 1_555 1_555
C61 C62 1_555 1_555
Cu7 Cu11 1_555 1_555
Cu8 Cu12 1_555 1_555
Cu9 Cu13 1_555 1_555
Cu10 Cu14 1_555 1_555
Cu15_2 Cu18_2 1_555 1_555
Cu16 Cu19 1_555 1_555
Cu17_2 Cu20_2 1_555 1_555
O25 Cu3_2 1_555 1_555
O27 Cu3_2 1_555 1_555
O28 Cu4_2 1_555 1_555
O30 Cu4_2 1_555 1_555
Cu3_2 Cu4_2 1_555 1_555
Cu16_2 Cu19_2 1_555 1_555
O25_2 Cu15 1_555 1_555
O27_2 Cu15 1_555 1_555
O28_2 Cu18 1_555 1_555
O30_2 Cu18 1_555 1_555
C33_2 C34_2 1_555 1_555
C34_2 C37_2 1_555 1_555
C35_2 C33_2 1_555 1_555
C36_2 H13_2 1_555 1_555
C37_2 C38_2 1_555 1_555
C38_2 C48_2 1_555 1_555
C39_2 H14_2 1_555 1_555
C40_2 C41_2 1_555 1_555
C41_2 C42_2 1_555 1_555
C42_2 C43_2 1_555 1_555
C43_2 C44_2 1_555 1_555
C44_2 C45_2 1_555 1_555
C45_2 C46_2 1_555 1_555
C46_2 C41_2 1_555 1_555
C47_2 C35_2 1_555 1_555
H15_2 C35_2 1_555 1_555
H16_2 C46_2 1_555 1_555
H17_2 C42_2 1_555 1_555
H18_2 C44_2 1_555 1_555
H19_2 C48_2 1_555 1_555
C48_2 C49_2 1_555 1_555
C49_2 C39_2 1_555 1_555
C50_2 C49_2 1_555 1_555
C51_2 C43_2 1_555 1_555
O13_2 C40_2 1_555 1_555
O14_2 C40_2 1_555 1_555
O15_2 C51_2 1_555 1_555
O16_2 C51_2 1_555 1_555
O17_2 C50_2 1_555 1_555
O18_2 C50_2 1_555 1_555
C52_2 C33_2 1_555 1_555
C53_2 C54_2 1_555 1_555
C54_2 C55_2 1_555 1_555
C55_2 C56_2 1_555 1_555
C56_2 C57_2 1_555 1_555
C57_2 C58_2 1_555 1_555
C58_2 C59_2 1_555 1_555
C59_2 C54_2 1_555 1_555
C60_2 C36_2 1_555 1_555
H20_2 C52_2 1_555 1_555
H21_2 C59_2 1_555 1_555
H22_2 C55_2 1_555 1_555
H23_2 C57_2 1_555 1_555
H24_2 C61_2 1_555 1_555
C61_2 C38_2 1_555 1_555
C62_2 C39_2 1_555 1_555
C63_2 C62_2 1_555 1_555
C64_2 C56_2 1_555 1_555
O25 C53_2 1_555 1_555
O28 C53_2 1_555 1_555
O21_2 C64_2 1_555 1_555
O22_2 C64_2 1_555 1_555
O23_2 C63_2 1_555 1_555
O24_2 C63_2 1_555 1_555
O26_2 Cu15_2 1_555 1_555
O29_2 Cu18_2 1_555 1_555
O34_2 Cu11 1_555 1_555
O35_2 Cu11 1_555 1_555
O38_2 Cu7 1_555 1_555
O39_2 Cu7 1_555 1_555
Cu7_2 O21_2 1_555 1_555
Cu10_2 O24_2 1_555 1_555
Cu11_2 O22_2 1_555 1_555
Cu14_2 O23_2 1_555 1_555
Cu16_2 O13_2 1_555 1_555
Cu19_2 O14_2 1_555 1_555
C36_2 C47_2 1_555 1_555
C45_2 C47_2 1_555 1_555
O15_2 Cu7 1_555 1_555
O16_2 Cu11 1_555 1_555
O17_2 Cu14 1_555 1_555
O18_2 Cu10 1_555 1_555
C52_2 C60_2 1_555 1_555
C58_2 C60_2 1_555 1_555
C61_2 C62_2 1_555 1_555
Cu7_2 Cu11_2 1_555 1_555
Cu10_2 Cu14_2 1_555 1_555
O27_3 Cu16 1_555 1_555
O30_3 Cu19 1_555 1_555
C33_3 C34_3 1_555 1_555
C34_3 C37_3 1_555 1_555
C35_3 C33_3 1_555 1_555
C36_3 H13_3 1_555 1_555
C37_3 C38_3 1_555 1_555
C38_3 C48_3 1_555 1_555
C39_3 H14_3 1_555 1_555
C40_3 C41_3 1_555 1_555
C41_3 C42_3 1_555 1_555
C42_3 C43_3 1_555 1_555
C43_3 C44_3 1_555 1_555
C44_3 C45_3 1_555 1_555
C45_3 C46_3 1_555 1_555
C46_3 C41_3 1_555 1_555
C47_3 C35_3 1_555 1_555
H15_3 C35_3 1_555 1_555
H16_3 C46_3 1_555 1_555
H17_3 C42_3 1_555 1_555
H18_3 C44_3 1_555 1_555
H19_3 C48_3 1_555 1_555
C48_3 C49_3 1_555 1_555
C49_3 C39_3 1_555 1_555
C50_3 C49_3 1_555 1_555
C51_3 C43_3 1_555 1_555
O13_3 C40_3 1_555 1_555
O14_3 C40_3 1_555 1_555
O15_3 C51_3 1_555 1_555
O16_3 C51_3 1_555 1_555
O17_3 C50_3 1_555 1_555
O18_3 C50_3 1_555 1_555
C52_3 C33_3 1_555 1_555
C53_3 C54_3 1_555 1_555
C54_3 C55_3 1_555 1_555
C55_3 C56_3 1_555 1_555
C56_3 C57_3 1_555 1_555
C57_3 C58_3 1_555 1_555
C58_3 C59_3 1_555 1_555
C59_3 C54_3 1_555 1_555
C60_3 C36_3 1_555 1_555
H20_3 C52_3 1_555 1_555
H21_3 C59_3 1_555 1_555
H22_3 C55_3 1_555 1_555
H23_3 C57_3 1_555 1_555
H24_3 C61_3 1_555 1_555
C61_3 C38_3 1_555 1_555
C62_3 C39_3 1_555 1_555
C63_3 C62_3 1_555 1_555
C64_3 C56_3 1_555 1_555
O25_2 C53_3 1_555 1_555
O28_2 C53_3 1_555 1_555
O31 C64_3 1_555 1_555
O32 C64_3 1_555 1_555
O23_3 C63_3 1_555 1_555
O24_3 C63_3 1_555 1_555
O26_3 Cu16_2 1_555 1_555
O29_3 Cu19_2 1_555 1_555
O34_3 Cu11_2 1_555 1_555
O35_3 Cu11_2 1_555 1_555
O38_3 Cu7_2 1_555 1_555
O39_3 Cu7_2 1_555 1_555
Cu8 O24_3 1_555 1_555
Cu12 O23_3 1_555 1_555
Cu17 O13_3 1_555 1_555
Cu20 O14_3 1_555 1_555
C36_3 C47_3 1_555 1_555
C45_3 C47_3 1_555 1_555
O15_3 Cu7_2 1_555 1_555
O16_3 Cu11_2 1_555 1_555
O17_3 Cu14_2 1_555 1_555
O18_3 Cu10_2 1_555 1_555
C52_3 C60_3 1_555 1_555
C58_3 C60_3 1_555 1_555
C61_3 C62_3 1_555 1_555
O26_4 Cu17 1_555 1_555
O29_4 Cu20 1_555 1_555
O27_4 Cu17_2 1_555 1_555
O30_4 Cu20_2 1_555 1_555
C1_2 C2_2 1_555 1_555
C2_2 C5_2 1_555 1_555
C3_2 C1_2 1_555 1_555
C4_2 H1_2 1_555 1_555
C5_2 C6_2 1_555 1_555
C6_2 C16_2 1_555 1_555
C7_2 H2_2 1_555 1_555
C8_2 C9_2 1_555 1_555
C9_2 C10_2 1_555 1_555
C10_2 C11_2 1_555 1_555
C11_2 C12_2 1_555 1_555
C12_2 C13_2 1_555 1_555
C13_2 C14_2 1_555 1_555
C14_2 C9_2 1_555 1_555
C15_2 C3_2 1_555 1_555
H3_2 C3_2 1_555 1_555
H4_2 C14_2 1_555 1_555
H5_2 C10_2 1_555 1_555
H6_2 C12_2 1_555 1_555
H7_2 C16_2 1_555 1_555
C16_2 C17_2 1_555 1_555
C17_2 C7_2 1_555 1_555
C18_2 C17_2 1_555 1_555
C19_2 C11_2 1_555 1_555
O27 C8_2 1_555 1_555
O30 C8_2 1_555 1_555
O3_2 C19_2 1_555 1_555
O4_2 C19_2 1_555 1_555
O5_2 C18_2 1_555 1_555
O6_2 C18_2 1_555 1_555
Cu1_2 O3_2 1_555 1_555
Cu2_2 O4_2 1_555 1_555
C20_2 C1_2 1_555 1_555
C21_2 C22_2 1_555 1_555
C22_2 C23_2 1_555 1_555
C23_2 C24_2 1_555 1_555
C24_2 C25_2 1_555 1_555
C25_2 C26_2 1_555 1_555
C26_2 C27_2 1_555 1_555
C27_2 C22_2 1_555 1_555
C28_2 C4_2 1_555 1_555
H8_2 C20_2 1_555 1_555
H9_2 C27_2 1_555 1_555
H10_2 C23_2 1_555 1_555
H11_2 C25_2 1_555 1_555
H12_2 C29_2 1_555 1_555
C29_2 C6_2 1_555 1_555
C30_2 C7_2 1_555 1_555
C31_2 C30_2 1_555 1_555
C32_2 C24_2 1_555 1_555
O26_3 C21_2 1_555 1_555
O29_3 C21_2 1_555 1_555
O9_2 C32_2 1_555 1_555
O10_2 C32_2 1_555 1_555
O11_2 C31_2 1_555 1_555
O12_2 C31_2 1_555 1_555
C33_4 C34_4 1_555 1_555
C34_4 C37_4 1_555 1_555
C35_4 C33_4 1_555 1_555
C36_4 H13_4 1_555 1_555
C37_4 C38_4 1_555 1_555
C38_4 C48_4 1_555 1_555
C39_4 H14_4 1_555 1_555
C40_4 C41_4 1_555 1_555
C41_4 C42_4 1_555 1_555
C42_4 C43_4 1_555 1_555
C43_4 C44_4 1_555 1_555
C44_4 C45_4 1_555 1_555
C45_4 C46_4 1_555 1_555
C46_4 C41_4 1_555 1_555
C47_4 C35_4 1_555 1_555
H15_4 C35_4 1_555 1_555
H16_4 C46_4 1_555 1_555
H17_4 C42_4 1_555 1_555
H18_4 C44_4 1_555 1_555
H19_4 C48_4 1_555 1_555
C48_4 C49_4 1_555 1_555
C49_4 C39_4 1_555 1_555
C50_4 C49_4 1_555 1_555
C51_4 C43_4 1_555 1_555
O27_4 C40_4 1_555 1_555
O30_4 C40_4 1_555 1_555
O15_4 C51_4 1_555 1_555
O16_4 C51_4 1_555 1_555
O17_4 C50_4 1_555 1_555
O18_4 C50_4 1_555 1_555
Cu5_2 O9_2 1_555 1_555
Cu6_2 O10_2 1_555 1_555
C52_4 C33_4 1_555 1_555
C53_4 C54_4 1_555 1_555
C54_4 C55_4 1_555 1_555
C55_4 C56_4 1_555 1_555
C56_4 C57_4 1_555 1_555
C57_4 C58_4 1_555 1_555
C58_4 C59_4 1_555 1_555
C59_4 C54_4 1_555 1_555
C60_4 C36_4 1_555 1_555
H20_4 C52_4 1_555 1_555
H21_4 C59_4 1_555 1_555
H22_4 C55_4 1_555 1_555
H23_4 C57_4 1_555 1_555
H24_4 C61_4 1_555 1_555
C61_4 C38_4 1_555 1_555
C62_4 C39_4 1_555 1_555
C63_4 C62_4 1_555 1_555
C64_4 C56_4 1_555 1_555
O26_2 C53_4 1_555 1_555
O29_2 C53_4 1_555 1_555
O21_3 C64_4 1_555 1_555
O22_3 C64_4 1_555 1_555
O23_4 C63_4 1_555 1_555
O24_4 C63_4 1_555 1_555
O31_2 Cu1_2 1_555 1_555
O32_2 Cu2_2 1_555 1_555
O33_2 Cu2_2 1_555 1_555
O34_4 Cu6_2 1_555 1_555
O35_4 Cu6_2 1_555 1_555
O36_2 Cu2_2 1_555 1_555
O37_2 Cu1_2 1_555 1_555
O38_4 Cu5_2 1_555 1_555
O39_4 Cu5_2 1_555 1_555
O40_2 Cu1_2 1_555 1_555
Cu7_3 O21_3 1_555 1_555
Cu8_2 O6_2 1_555 1_555
Cu9_2 O12_2 1_555 1_555
Cu10_3 O24_4 1_555 1_555
Cu11_3 O22_3 1_555 1_555
Cu12_2 O5_2 1_555 1_555
Cu13_2 O11_2 1_555 1_555
Cu14_3 O23_4 1_555 1_555
C4_2 C15_2 1_555 1_555
C13_2 C15_2 1_555 1_555
Cu1_2 Cu2_2 1_555 1_555
C20_2 C28_2 1_555 1_555
C26_2 C28_2 1_555 1_555
C29_2 C30_2 1_555 1_555
C36_4 C47_4 1_555 1_555
C45_4 C47_4 1_555 1_555
O15_4 Cu5_2 1_555 1_555
O16_4 Cu6_2 1_555 1_555
O17_4 Cu13_2 1_555 1_555
O18_4 Cu9_2 1_555 1_555
Cu5_2 Cu6_2 1_555 1_555
C52_4 C60_4 1_555 1_555
C58_4 C60_4 1_555 1_555
C61_4 C62_4 1_555 1_555
Cu7_3 Cu11_3 1_555 1_555
Cu8_2 Cu12_2 1_555 1_555
Cu9_2 Cu13_2 1_555 1_555
Cu10_3 Cu14_3 1_555 1_555
C1_3 C2_3 1_555 1_555
C2_3 C5_3 1_555 1_555
C3_3 C1_3 1_555 1_555
C4_3 H1_3 1_555 1_555
C5_3 C6_3 1_555 1_555
C6_3 C16_3 1_555 1_555
C7_3 H2_3 1_555 1_555
C8_3 C9_3 1_555 1_555
C9_3 C10_3 1_555 1_555
C10_3 C11_3 1_555 1_555
C11_3 C12_3 1_555 1_555
C12_3 C13_3 1_555 1_555
C13_3 C14_3 1_555 1_555
C14_3 C9_3 1_555 1_555
C15_3 C3_3 1_555 1_555
H3_3 C3_3 1_555 1_555
H4_3 C14_3 1_555 1_555
H5_3 C10_3 1_555 1_555
H6_3 C12_3 1_555 1_555
H7_3 C16_3 1_555 1_555
C16_3 C17_3 1_555 1_555
C17_3 C7_3 1_555 1_555
C18_3 C17_3 1_555 1_555
C19_3 C11_3 1_555 1_555
O27_2 C8_3 1_555 1_555
O30_2 C8_3 1_555 1_555
O3_3 C19_3 1_555 1_555
O4_3 C19_3 1_555 1_555
O5_3 C18_3 1_555 1_555
O6_3 C18_3 1_555 1_555
Cu1_3 O3_3 1_555 1_555
Cu2_3 O4_3 1_555 1_555
C20_3 C1_3 1_555 1_555
C21_3 C22_3 1_555 1_555
C22_3 C23_3 1_555 1_555
C23_3 C24_3 1_555 1_555
C24_3 C25_3 1_555 1_555
C25_3 C26_3 1_555 1_555
C26_3 C27_3 1_555 1_555
C27_3 C22_3 1_555 1_555
C28_3 C4_3 1_555 1_555
H8_3 C20_3 1_555 1_555
H9_3 C27_3 1_555 1_555
H10_3 C23_3 1_555 1_555
H11_3 C25_3 1_555 1_555
H12_3 C29_3 1_555 1_555
C29_3 C6_3 1_555 1_555
C30_3 C7_3 1_555 1_555
C31_3 C30_3 1_555 1_555
C32_3 C24_3 1_555 1_555
O26_4 C21_3 1_555 1_555
O29_4 C21_3 1_555 1_555
O31_2 C32_3 1_555 1_555
O32_2 C32_3 1_555 1_555
O11_3 C31_3 1_555 1_555
O12_3 C31_3 1_555 1_555
O31_3 Cu1_3 1_555 1_555
O32_3 Cu2_3 1_555 1_555
O33_3 Cu2_3 1_555 1_555
O36_3 Cu2_3 1_555 1_555
O37_3 Cu1_3 1_555 1_555
O40_3 Cu1_3 1_555 1_555
Cu8_3 O6_3 1_555 1_555
Cu8_2 O12_3 1_555 1_555
Cu12_3 O5_3 1_555 1_555
Cu12_2 O11_3 1_555 1_555
C4_3 C15_3 1_555 1_555
C13_3 C15_3 1_555 1_555
Cu1_3 Cu2_3 1_555 1_555
C20_3 C28_3 1_555 1_555
C26_3 C28_3 1_555 1_555
C29_3 C30_3 1_555 1_555
Cu8_3 Cu12_3 1_555 1_555
C1_4 C2_4 1_555 1_555
C2_4 C5_4 1_555 1_555
C3_4 C1_4 1_555 1_555
C4_4 H1_4 1_555 1_555
C5_4 C6_4 1_555 1_555
C6_4 C16_4 1_555 1_555
C7_4 H2_4 1_555 1_555
C8_4 C9_4 1_555 1_555
C9_4 C10_4 1_555 1_555
C10_4 C11_4 1_555 1_555
C11_4 C12_4 1_555 1_555
C12_4 C13_4 1_555 1_555
C13_4 C14_4 1_555 1_555
C14_4 C9_4 1_555 1_555
C15_4 C3_4 1_555 1_555
H3_4 C3_4 1_555 1_555
H4_4 C14_4 1_555 1_555
H5_4 C10_4 1_555 1_555
H6_4 C12_4 1_555 1_555
H7_4 C16_4 1_555 1_555
C16_4 C17_4 1_555 1_555
C17_4 C7_4 1_555 1_555
C18_4 C17_4 1_555 1_555
C19_4 C11_4 1_555 1_555
O27_3 C8_4 1_555 1_555
O30_3 C8_4 1_555 1_555
O3_4 C19_4 1_555 1_555
O4_4 C19_4 1_555 1_555
O5_4 C18_4 1_555 1_555
O6_4 C18_4 1_555 1_555
Cu7_3 O3_4 1_555 1_555
Cu11_3 O4_4 1_555 1_555
C20_4 C1_4 1_555 1_555
C21_4 C22_4 1_555 1_555
C22_4 C23_4 1_555 1_555
C23_4 C24_4 1_555 1_555
C24_4 C25_4 1_555 1_555
C25_4 C26_4 1_555 1_555
C26_4 C27_4 1_555 1_555
C27_4 C22_4 1_555 1_555
C28_4 C4_4 1_555 1_555
H8_4 C20_4 1_555 1_555
H9_4 C27_4 1_555 1_555
H10_4 C23_4 1_555 1_555
H11_4 C25_4 1_555 1_555
H12_4 C29_4 1_555 1_555
C29_4 C6_4 1_555 1_555
C30_4 C7_4 1_555 1_555
C31_4 C30_4 1_555 1_555
C32_4 C24_4 1_555 1_555
O26 C21_4 1_555 1_555
O29 C21_4 1_555 1_555
O31_3 C32_4 1_555 1_555
O32_3 C32_4 1_555 1_555
O11_4 C31_4 1_555 1_555
O12_4 C31_4 1_555 1_555
O33_4 Cu11_3 1_555 1_555
O36_4 Cu11_3 1_555 1_555
O37_4 Cu7_3 1_555 1_555
O40_4 Cu7_3 1_555 1_555
Cu10_3 O6_4 1_555 1_555
Cu8_3 O12_4 1_555 1_555
Cu14_3 O5_4 1_555 1_555
Cu12_3 O11_4 1_555 1_555
C4_4 C15_4 1_555 1_555
C13_4 C15_4 1_555 1_555
C20_4 C28_4 1_555 1_555
C26_4 C28_4 1_555 1_555
C29_4 C30_4 1_555 1_555
Cu17_3 Cu20_3 1_555 1_555
C33_5 C34_5 1_555 1_555
C34_5 C37_5 1_555 1_555
C36_5 H13_5 1_555 1_555
C37_5 C38_5 1_555 1_555
C39_5 H14_5 1_555 1_555
C52_5 C33_5 1_555 1_555
C53_5 C54_5 1_555 1_555
C54_5 C55_5 1_555 1_555
C55_5 C56_5 1_555 1_555
C56_5 C57_5 1_555 1_555
C57_5 C58_5 1_555 1_555
C58_5 C59_5 1_555 1_555
C59_5 C54_5 1_555 1_555
C60_5 C36_5 1_555 1_555
H20_5 C52_5 1_555 1_555
H21_5 C59_5 1_555 1_555
H22_5 C55_5 1_555 1_555
H23_5 C57_5 1_555 1_555
H24_5 C61_5 1_555 1_555
C61_5 C38_5 1_555 1_555
C62_5 C39_5 1_555 1_555
C63_5 C62_5 1_555 1_555
C64_5 C56_5 1_555 1_555
O19_2 C53_5 1_555 1_555
O20_2 C53_5 1_555 1_555
O21_4 C64_5 1_555 1_555
O22_4 C64_5 1_555 1_555
O33_3 C63_5 1_555 1_555
O37_3 C63_5 1_555 1_555
Cu8_3 O21_4 1_555 1_555
Cu12_3 O22_4 1_555 1_555
Cu17_4 O19_2 1_555 1_555
Cu20_4 O20_2 1_555 1_555
C52_5 C60_5 1_555 1_555
C58_5 C60_5 1_555 1_555
C61_5 C62_5 1_555 1_555
Cu17_4 Cu20_4 1_555 1_555
Cu15_3 Cu18_3 1_555 1_555
Cu16_3 Cu19_3 1_555 1_555
C1_5 C2_5 1_555 1_555
C2_5 C5_5 1_555 1_555
C4_5 H1_5 1_555 1_555
C5_5 C6_5 1_555 1_555
C7_5 H2_5 1_555 1_555
C20_5 C1_5 1_555 1_555
C21_5 C22_5 1_555 1_555
C22_5 C23_5 1_555 1_555
C23_5 C24_5 1_555 1_555
C24_5 C25_5 1_555 1_555
C25_5 C26_5 1_555 1_555
C26_5 C27_5 1_555 1_555
C27_5 C22_5 1_555 1_555
C28_5 C4_5 1_555 1_555
H8_5 C20_5 1_555 1_555
H9_5 C27_5 1_555 1_555
H10_5 C23_5 1_555 1_555
H11_5 C25_5 1_555 1_555
H12_5 C29_5 1_555 1_555
C29_5 C6_5 1_555 1_555
C30_5 C7_5 1_555 1_555
C31_5 C30_5 1_555 1_555
C32_5 C24_5 1_555 1_555
O7_2 C21_5 1_555 1_555
O8_2 C21_5 1_555 1_555
O9_3 C32_5 1_555 1_555
O10_3 C32_5 1_555 1_555
O33_2 C31_5 1_555 1_555
O37_2 C31_5 1_555 1_555
C33_6 C34_6 1_555 1_555
C34_6 C37_6 1_555 1_555
C35_5 C33_6 1_555 1_555
C36_6 H13_6 1_555 1_555
C37_6 C38_6 1_555 1_555
C38_6 C48_5 1_555 1_555
C39_6 H14_6 1_555 1_555
C40_5 C41_5 1_555 1_555
C41_5 C42_5 1_555 1_555
C42_5 C43_5 1_555 1_555
C43_5 C44_5 1_555 1_555
C44_5 C45_5 1_555 1_555
C45_5 C46_5 1_555 1_555
C46_5 C41_5 1_555 1_555
C47_5 C35_5 1_555 1_555
H15_5 C35_5 1_555 1_555
H16_5 C46_5 1_555 1_555
H17_5 C42_5 1_555 1_555
H18_5 C44_5 1_555 1_555
H19_5 C48_5 1_555 1_555
C48_5 C49_5 1_555 1_555
C49_5 C39_6 1_555 1_555
C50_5 C49_5 1_555 1_555
C51_5 C43_5 1_555 1_555
O13_4 C40_5 1_555 1_555
O14_4 C40_5 1_555 1_555
O15_5 C51_5 1_555 1_555
O16_5 C51_5 1_555 1_555
O36_2 C50_5 1_555 1_555
O40_2 C50_5 1_555 1_555
Cu8_2 O9_3 1_555 1_555
Cu12_2 O10_3 1_555 1_555
Cu15_4 O13_4 1_555 1_555
Cu16_4 O7_2 1_555 1_555
Cu18_4 O14_4 1_555 1_555
Cu19_4 O8_2 1_555 1_555
C20_5 C28_5 1_555 1_555
C26_5 C28_5 1_555 1_555
C29_5 C30_5 1_555 1_555
C36_6 C47_5 1_555 1_555
C45_5 C47_5 1_555 1_555
O15_5 Cu8_2 1_555 1_555
O16_5 Cu12_2 1_555 1_555
Cu15_4 Cu18_4 1_555 1_555
Cu16_4 Cu19_4 1_555 1_555
O26_5 Cu3_3 1_555 1_555
O27_5 Cu3_3 1_555 1_555
O29_5 Cu4_3 1_555 1_555
O30_5 Cu4_3 1_555 1_555
Cu3_3 Cu4_3 1_555 1_555
C1_6 C2_6 1_555 1_555
C2_6 C5_6 1_555 1_555
C3_5 C1_6 1_555 1_555
C4_6 H1_6 1_555 1_555
C5_6 C6_6 1_555 1_555
C6_6 C16_5 1_555 1_555
C7_6 H2_6 1_555 1_555
C8_5 C9_5 1_555 1_555
C9_5 C10_5 1_555 1_555
C10_5 C11_5 1_555 1_555
C11_5 C12_5 1_555 1_555
C12_5 C13_5 1_555 1_555
C13_5 C14_5 1_555 1_555
C14_5 C9_5 1_555 1_555
C15_5 C3_5 1_555 1_555
H3_5 C3_5 1_555 1_555
H4_5 C14_5 1_555 1_555
H5_5 C10_5 1_555 1_555
H6_5 C12_5 1_555 1_555
H7_5 C16_5 1_555 1_555
C16_5 C17_5 1_555 1_555
C17_5 C7_6 1_555 1_555
C18_5 C17_5 1_555 1_555
C19_5 C11_5 1_555 1_555
O1_2 C8_5 1_555 1_555
O2_2 C8_5 1_555 1_555
O3_5 C19_5 1_555 1_555
O4_5 C19_5 1_555 1_555
O35_4 C18_5 1_555 1_555
O39_4 C18_5 1_555 1_555
Cu9_2 O3_5 1_555 1_555
Cu13_2 O4_5 1_555 1_555
Cu3_4 O1_2 1_555 1_555
Cu4_4 O2_2 1_555 1_555
O25_3 Cu3_4 1_555 1_555
O28_3 Cu4_4 1_555 1_555
O31_4 Cu9_2 1_555 1_555
O32_4 Cu13_2 1_555 1_555
C4_6 C15_5 1_555 1_555
C13_5 C15_5 1_555 1_555
Cu3_4 Cu4_4 1_555 1_555
C33_7 C34_7 1_555 1_555
C34_7 C37_7 1_555 1_555
C35_6 C33_7 1_555 1_555
C36_7 H13_7 1_555 1_555
C37_7 C38_7 1_555 1_555
C38_7 C48_6 1_555 1_555
C39_7 H14_7 1_555 1_555
C40_6 C41_6 1_555 1_555
C41_6 C42_6 1_555 1_555
C42_6 C43_6 1_555 1_555
C43_6 C44_6 1_555 1_555
C44_6 C45_6 1_555 1_555
C45_6 C46_6 1_555 1_555
C46_6 C41_6 1_555 1_555
C47_6 C35_6 1_555 1_555
H15_6 C35_6 1_555 1_555
H16_6 C46_6 1_555 1_555
H17_6 C42_6 1_555 1_555
H18_6 C44_6 1_555 1_555
H19_6 C48_6 1_555 1_555
C48_6 C49_6 1_555 1_555
C49_6 C39_7 1_555 1_555
C50_6 C49_6 1_555 1_555
C51_6 C43_6 1_555 1_555
O13_5 C40_6 1_555 1_555
O14_5 C40_6 1_555 1_555
O15_6 C51_6 1_555 1_555
O16_6 C51_6 1_555 1_555
O36_3 C50_6 1_555 1_555
O40_3 C50_6 1_555 1_555
Cu16_4 O13_5 1_555 1_555
Cu19_4 O14_5 1_555 1_555
C36_7 C47_6 1_555 1_555
C45_6 C47_6 1_555 1_555
O15_6 Cu8_3 1_555 1_555
O16_6 Cu12_3 1_555 1_555
O26_6 Cu15_3 1_555 1_555
O27_6 Cu15_3 1_555 1_555
O29_6 Cu18_3 1_555 1_555
O30_6 Cu18_3 1_555 1_555
O25_4 Cu15_4 1_555 1_555
O28_4 Cu18_4 1_555 1_555
C33_8 C34_8 1_555 1_555
C34_8 C37_8 1_555 1_555
C36_8 H13_8 1_555 1_555
C37_8 C38_8 1_555 1_555
C39_8 H14_8 1_555 1_555
C52_6 C33_8 1_555 1_555
C53_6 C54_6 1_555 1_555
C54_6 C55_6 1_555 1_555
C55_6 C56_6 1_555 1_555
C56_6 C57_6 1_555 1_555
C57_6 C58_6 1_555 1_555
C58_6 C59_6 1_555 1_555
C59_6 C54_6 1_555 1_555
C60_6 C36_8 1_555 1_555
H20_6 C52_6 1_555 1_555
H21_6 C59_6 1_555 1_555
H22_6 C55_6 1_555 1_555
H23_6 C57_6 1_555 1_555
H24_6 C61_6 1_555 1_555
C61_6 C38_8 1_555 1_555
C62_6 C39_8 1_555 1_555
C63_6 C62_6 1_555 1_555
C64_6 C56_6 1_555 1_555
O25_3 C53_6 1_555 1_555
O28_3 C53_6 1_555 1_555
O21_5 C64_6 1_555 1_555
O22_5 C64_6 1_555 1_555
O33_4 C63_6 1_555 1_555
O37_4 C63_6 1_555 1_555
Cu10_3 O21_5 1_555 1_555
Cu14_3 O22_5 1_555 1_555
C52_6 C60_6 1_555 1_555
C58_6 C60_6 1_555 1_555
C61_6 C62_6 1_555 1_555
O26_7 Cu16_3 1_555 1_555
O27_7 Cu16_3 1_555 1_555
O29_7 Cu19_3 1_555 1_555
O30_7 Cu19_3 1_555 1_555
C33_9 C34_9 1_555 1_555
C34_9 C37_9 1_555 1_555
C35_7 C33_9 1_555 1_555
C36_9 H13_9 1_555 1_555
C37_9 C38_9 1_555 1_555
C38_9 C48_7 1_555 1_555
C39_9 H14_9 1_555 1_555
C40_7 C41_7 1_555 1_555
C41_7 C42_7 1_555 1_555
C42_7 C43_7 1_555 1_555
C43_7 C44_7 1_555 1_555
C44_7 C45_7 1_555 1_555
C45_7 C46_7 1_555 1_555
C46_7 C41_7 1_555 1_555
C47_7 C35_7 1_555 1_555
H15_7 C35_7 1_555 1_555
H16_7 C46_7 1_555 1_555
H17_7 C42_7 1_555 1_555
H18_7 C44_7 1_555 1_555
H19_7 C48_7 1_555 1_555
C48_7 C49_7 1_555 1_555
C49_7 C39_9 1_555 1_555
C50_7 C49_7 1_555 1_555
C51_7 C43_7 1_555 1_555
O13_6 C40_7 1_555 1_555
O14_6 C40_7 1_555 1_555
O15_7 C51_7 1_555 1_555
O16_7 C51_7 1_555 1_555
O36_4 C50_7 1_555 1_555
O40_4 C50_7 1_555 1_555
Cu17_4 O13_6 1_555 1_555
Cu20_4 O14_6 1_555 1_555
C36_9 C47_7 1_555 1_555
C45_7 C47_7 1_555 1_555
O15_7 Cu10_3 1_555 1_555
O16_7 Cu14_3 1_555 1_555
C33_10 C34_10 1_555 1_555
C34_10 C37_10 1_555 1_555
C36_10 H13_10 1_555 1_555
C37_10 C38_10 1_555 1_555
C39_10 H14_10 1_555 1_555
C52_7 C33_10 1_555 1_555
C53_7 C54_7 1_555 1_555
C54_7 C55_7 1_555 1_555
C55_7 C56_7 1_555 1_555
C56_7 C57_7 1_555 1_555
C57_7 C58_7 1_555 1_555
C58_7 C59_7 1_555 1_555
C59_7 C54_7 1_555 1_555
C60_7 C36_10 1_555 1_555
H20_7 C52_7 1_555 1_555
H21_7 C59_7 1_555 1_555
H22_7 C55_7 1_555 1_555
H23_7 C57_7 1_555 1_555
H24_7 C61_7 1_555 1_555
C61_7 C38_10 1_555 1_555
C62_7 C39_10 1_555 1_555
C63_7 C62_7 1_555 1_555
C64_7 C56_7 1_555 1_555
O25_4 C53_7 1_555 1_555
O28_4 C53_7 1_555 1_555
O31_4 C64_7 1_555 1_555
O32_4 C64_7 1_555 1_555
O34_4 C63_7 1_555 1_555
O38_4 C63_7 1_555 1_555
C52_7 C60_7 1_555 1_555
C58_7 C60_7 1_555 1_555
C61_7 C62_7 1_555 1_555
O26_8 Cu17_3 1_555 1_555
O27_8 Cu17_3 1_555 1_555
O29_8 Cu20_3 1_555 1_555
O30_8 Cu20_3 1_555 1_555
C1_7 C2_7 1_555 1_555
C2_7 C5_7 1_555 1_555
C4_7 H1_7 1_555 1_555
C5_7 C6_7 1_555 1_555
C7_7 H2_7 1_555 1_555
C20_6 C1_7 1_555 1_555
C21_6 C22_6 1_555 1_555
C22_6 C23_6 1_555 1_555
C23_6 C24_6 1_555 1_555
C24_6 C25_6 1_555 1_555
C25_6 C26_6 1_555 1_555
C26_6 C27_6 1_555 1_555
C27_6 C22_6 1_555 1_555
C28_6 C4_7 1_555 1_555
H8_6 C20_6 1_555 1_555
H9_6 C27_6 1_555 1_555
H10_6 C23_6 1_555 1_555
H11_6 C25_6 1_555 1_555
H12_6 C29_6 1_555 1_555
C29_6 C6_7 1_555 1_555
C30_6 C7_7 1_555 1_555
C31_6 C30_6 1_555 1_555
C32_6 C24_6 1_555 1_555
O26_7 C21_6 1_555 1_555
O29_7 C21_6 1_555 1_555
O9_4 C32_6 1_555 1_555
O10_4 C32_6 1_555 1_555
O33 C31_6 1_555 1_555
O37 C31_6 1_555 1_555
C33_11 C34_11 1_555 1_555
C34_11 C37_11 1_555 1_555
C35_8 C33_11 1_555 1_555
C36_11 H13_11 1_555 1_555
C37_11 C38_11 1_555 1_555
C38_11 C48_8 1_555 1_555
C39_11 H14_11 1_555 1_555
C40_8 C41_8 1_555 1_555
C41_8 C42_8 1_555 1_555
C42_8 C43_8 1_555 1_555
C43_8 C44_8 1_555 1_555
C44_8 C45_8 1_555 1_555
C45_8 C46_8 1_555 1_555
C46_8 C41_8 1_555 1_555
C47_8 C35_8 1_555 1_555
H15_8 C35_8 1_555 1_555
H16_8 C46_8 1_555 1_555
H17_8 C42_8 1_555 1_555
H18_8 C44_8 1_555 1_555
H19_8 C48_8 1_555 1_555
C48_8 C49_8 1_555 1_555
C49_8 C39_11 1_555 1_555
C50_8 C49_8 1_555 1_555
C51_8 C43_8 1_555 1_555
O27_8 C40_8 1_555 1_555
O30_8 C40_8 1_555 1_555
O15_8 C51_8 1_555 1_555
O16_8 C51_8 1_555 1_555
O36 C50_8 1_555 1_555
O40 C50_8 1_555 1_555
Cu8 O9_4 1_555 1_555
Cu12 O10_4 1_555 1_555
C20_6 C28_6 1_555 1_555
C26_6 C28_6 1_555 1_555
C29_6 C30_6 1_555 1_555
C36_11 C47_8 1_555 1_555
C45_8 C47_8 1_555 1_555
O15_8 Cu8 1_555 1_555
O16_8 Cu12 1_555 1_555
C33_12 C34_12 1_555 1_555
C34_12 C37_12 1_555 1_555
C36_12 H13_12 1_555 1_555
C37_12 C38_12 1_555 1_555
C39_12 H14_12 1_555 1_555
C52_8 C33_12 1_555 1_555
C53_8 C54_8 1_555 1_555
C54_8 C55_8 1_555 1_555
C55_8 C56_8 1_555 1_555
C56_8 C57_8 1_555 1_555
C57_8 C58_8 1_555 1_555
C58_8 C59_8 1_555 1_555
C59_8 C54_8 1_555 1_555
C60_8 C36_12 1_555 1_555
H20_8 C52_8 1_555 1_555
H21_8 C59_8 1_555 1_555
H22_8 C55_8 1_555 1_555
H23_8 C57_8 1_555 1_555
H24_8 C61_8 1_555 1_555
C61_8 C38_12 1_555 1_555
C62_8 C39_12 1_555 1_555
C63_8 C62_8 1_555 1_555
C64_8 C56_8 1_555 1_555
O26_6 C53_8 1_555 1_555
O29_6 C53_8 1_555 1_555
O21_6 C64_8 1_555 1_555
O22_6 C64_8 1_555 1_555
O34_3 C63_8 1_555 1_555
O38_3 C63_8 1_555 1_555
Cu10_2 O21_6 1_555 1_555
Cu14_2 O22_6 1_555 1_555
C52_8 C60_8 1_555 1_555
C58_8 C60_8 1_555 1_555
C61_8 C62_8 1_555 1_555
C1_8 C2_8 1_555 1_555
C2_8 C5_8 1_555 1_555
C3_6 C1_8 1_555 1_555
C4_8 H1_8 1_555 1_555
C5_8 C6_8 1_555 1_555
C6_8 C16_6 1_555 1_555
C7_8 H2_8 1_555 1_555
C8_6 C9_6 1_555 1_555
C9_6 C10_6 1_555 1_555
C10_6 C11_6 1_555 1_555
C11_6 C12_6 1_555 1_555
C12_6 C13_6 1_555 1_555
C13_6 C14_6 1_555 1_555
C14_6 C9_6 1_555 1_555
C15_6 C3_6 1_555 1_555
H3_6 C3_6 1_555 1_555
H4_6 C14_6 1_555 1_555
H5_6 C10_6 1_555 1_555
H6_6 C12_6 1_555 1_555
H7_6 C16_6 1_555 1_555
C16_6 C17_6 1_555 1_555
C17_6 C7_8 1_555 1_555
C18_6 C17_6 1_555 1_555
C19_6 C11_6 1_555 1_555
O27_5 C8_6 1_555 1_555
O30_5 C8_6 1_555 1_555
O3_6 C19_6 1_555 1_555
O4_6 C19_6 1_555 1_555
O35 C18_6 1_555 1_555
O39 C18_6 1_555 1_555
Cu9 O3_6 1_555 1_555
Cu13 O4_6 1_555 1_555
O31_5 Cu9 1_555 1_555
O32_5 Cu13 1_555 1_555
C4_8 C15_6 1_555 1_555
C13_6 C15_6 1_555 1_555
C1_9 C2_9 1_555 1_555
C2_9 C5_9 1_555 1_555
C4_9 H1_9 1_555 1_555
C5_9 C6_9 1_555 1_555
C7_9 H2_9 1_555 1_555
C20_7 C1_9 1_555 1_555
C21_7 C22_7 1_555 1_555
C22_7 C23_7 1_555 1_555
C23_7 C24_7 1_555 1_555
C24_7 C25_7 1_555 1_555
C25_7 C26_7 1_555 1_555
C26_7 C27_7 1_555 1_555
C27_7 C22_7 1_555 1_555
C28_7 C4_9 1_555 1_555
H8_7 C20_7 1_555 1_555
H9_7 C27_7 1_555 1_555
H10_7 C23_7 1_555 1_555
H11_7 C25_7 1_555 1_555
H12_7 C29_7 1_555 1_555
C29_7 C6_9 1_555 1_555
C30_7 C7_9 1_555 1_555
C31_7 C30_7 1_555 1_555
C32_7 C24_7 1_555 1_555
O26_8 C21_7 1_555 1_555
O29_8 C21_7 1_555 1_555
O31_5 C32_7 1_555 1_555
O32_5 C32_7 1_555 1_555
O34 C31_7 1_555 1_555
O38 C31_7 1_555 1_555
C20_7 C28_7 1_555 1_555
C26_7 C28_7 1_555 1_555
C29_7 C30_7 1_555 1_555
C1_10 C2_10 1_555 1_555
C2_10 C5_10 1_555 1_555
C3_7 C1_10 1_555 1_555
C4_10 H1_10 1_555 1_555
C5_10 C6_10 1_555 1_555
C6_10 C16_7 1_555 1_555
C7_10 H2_10 1_555 1_555
C8_7 C9_7 1_555 1_555
C9_7 C10_7 1_555 1_555
C10_7 C11_7 1_555 1_555
C11_7 C12_7 1_555 1_555
C12_7 C13_7 1_555 1_555
C13_7 C14_7 1_555 1_555
C14_7 C9_7 1_555 1_555
C15_7 C3_7 1_555 1_555
H3_7 C3_7 1_555 1_555
H4_7 C14_7 1_555 1_555
H5_7 C10_7 1_555 1_555
H6_7 C12_7 1_555 1_555
H7_7 C16_7 1_555 1_555
C16_7 C17_7 1_555 1_555
C17_7 C7_10 1_555 1_555
C18_7 C17_7 1_555 1_555
C19_7 C11_7 1_555 1_555
O27_6 C8_7 1_555 1_555
O30_6 C8_7 1_555 1_555
O3_7 C19_7 1_555 1_555
O4_7 C19_7 1_555 1_555
O35_2 C18_7 1_555 1_555
O39_2 C18_7 1_555 1_555
Cu10 O3_7 1_555 1_555
Cu14 O4_7 1_555 1_555
O31_6 Cu10 1_555 1_555
O32_6 Cu14 1_555 1_555
C4_10 C15_7 1_555 1_555
C13_7 C15_7 1_555 1_555
C1_11 C2_11 1_555 1_555
C2_11 C5_11 1_555 1_555
C3_8 C1_11 1_555 1_555
C4_11 H1_11 1_555 1_555
C5_11 C6_11 1_555 1_555
C6_11 C16_8 1_555 1_555
C7_11 H2_11 1_555 1_555
C8_8 C9_8 1_555 1_555
C9_8 C10_8 1_555 1_555
C10_8 C11_8 1_555 1_555
C11_8 C12_8 1_555 1_555
C12_8 C13_8 1_555 1_555
C13_8 C14_8 1_555 1_555
C14_8 C9_8 1_555 1_555
C15_8 C3_8 1_555 1_555
H3_8 C3_8 1_555 1_555
H4_8 C14_8 1_555 1_555
H5_8 C10_8 1_555 1_555
H6_8 C12_8 1_555 1_555
H7_8 C16_8 1_555 1_555
C16_8 C17_8 1_555 1_555
C17_8 C7_11 1_555 1_555
C18_8 C17_8 1_555 1_555
C19_8 C11_8 1_555 1_555
O27_7 C8_8 1_555 1_555
O30_7 C8_8 1_555 1_555
O3_8 C19_8 1_555 1_555
O4_8 C19_8 1_555 1_555
O35_3 C18_8 1_555 1_555
O39_3 C18_8 1_555 1_555
Cu10_2 O3_8 1_555 1_555
Cu14_2 O4_8 1_555 1_555
C4_11 C15_8 1_555 1_555
C13_8 C15_8 1_555 1_555
C1_12 C2_12 1_555 1_555
C2_12 C5_12 1_555 1_555
C4_12 H1_12 1_555 1_555
C5_12 C6_12 1_555 1_555
C7_12 H2_12 1_555 1_555
C20_8 C1_12 1_555 1_555
C21_8 C22_8 1_555 1_555
C22_8 C23_8 1_555 1_555
C23_8 C24_8 1_555 1_555
C24_8 C25_8 1_555 1_555
C25_8 C26_8 1_555 1_555
C26_8 C27_8 1_555 1_555
C27_8 C22_8 1_555 1_555
C28_8 C4_12 1_555 1_555
H8_8 C20_8 1_555 1_555
H9_8 C27_8 1_555 1_555
H10_8 C23_8 1_555 1_555
H11_8 C25_8 1_555 1_555
H12_8 C29_8 1_555 1_555
C29_8 C6_12 1_555 1_555
C30_8 C7_12 1_555 1_555
C31_8 C30_8 1_555 1_555
C32_8 C24_8 1_555 1_555
O26_5 C21_8 1_555 1_555
O29_5 C21_8 1_555 1_555
O31_6 C32_8 1_555 1_555
O32_6 C32_8 1_555 1_555
O34_2 C31_8 1_555 1_555
O38_2 C31_8 1_555 1_555
C20_8 C28_8 1_555 1_555
C26_8 C28_8 1_555 1_555
C29_8 C30_8 1_555 1_555

#END
