
###############################################################################
#
# This file contains modified crystal structure data generated from the
# MOF subset of the Cambridge Structural Database (CSD) v543 
# hosted by the Cambridge Crystallographic Data Centre (CCDC).
#
# This work is licensed under the Creative Commons
# Attribution-NonCommercial-ShareAlike 4.0 International License.
# To view a copy of this license, visit
# http://creativecommons.org/licenses/by-nc-sa/4.0/
# or send a letter to
# Creative Commons, PO Box 1866, Mountain View, CA 94042, USA.
#
# CIF created using the CSD Python API on 29 September 2022
# The structure has been converted into the P1 space group
# The structure has a 3D framework
# The original CSD entry WEBZEK is in the tetragonal crystal system
# The framework has been calculated to contain at least 10.0% void space
# The void calculation uses a probe of radius 1.32A, grid spacing 0.4
# The framework is charged, counterions have been retained in the structure
#
###############################################################################

data_WEBZEK
_chemical_formula_moiety         '(C704 H736 Cd29 N32 O234 10+)n'
_symmetry_cell_setting           triclinic
_symmetry_space_group_name_H-M   'P 1'
_symmetry_Int_Tables_number      1
_space_group_name_Hall           'P 1'
loop_
_symmetry_equiv_pos_site_id
_symmetry_equiv_pos_as_xyz
1 x,y,z
_cell_length_a                   22.180(3)
_cell_length_b                   22.180(3)
_cell_length_c                   43.666(9)
_cell_angle_alpha                90
_cell_angle_beta                 90
_cell_angle_gamma                90
_cell_volume                     21481.6
loop_
_atom_site_label
_atom_site_type_symbol
_atom_site_fract_x
_atom_site_fract_y
_atom_site_fract_z
C1 C 0.4231(2) 0.2219(2) 0.39602(12)
H1 H 0.4540 0.2059 0.4091
H2 H 0.3846 0.2179 0.4059
H3 H 0.4310 0.2637 0.3920
C2 C 0.3839(3) 0.2249(3) 0.34551(14)
H4 H 0.3512 0.2006 0.3381
H5 H 0.4077 0.2386 0.3285
H6 H 0.3680 0.2590 0.3564
N1 N 0.4225(2) 0.1881(2) 0.36666(11)
H7 H 0.4068 0.1510 0.3693
H8 H 0.4601 0.1844 0.3591
C1_2 C 0.5769(2) 0.7781(2) 0.39602(12)
H1_2 H 0.5460 0.7941 0.4091
H2_2 H 0.6154 0.7821 0.4059
H3_2 H 0.5690 0.7363 0.3920
C2_2 C 0.6161(3) 0.7751(3) 0.34551(14)
H4_2 H 0.6488 0.7994 0.3381
H5_2 H 0.5923 0.7614 0.3285
H6_2 H 0.6320 0.7410 0.3564
N1_2 N 0.5775(2) 0.8119(2) 0.36666(11)
H7_2 H 0.5932 0.8490 0.3693
H8_2 H 0.5399 0.8156 0.3591
C1_3 C 0.2219(2) 0.5769(2) 0.60398(12)
H1_3 H 0.2059 0.5460 0.5909
H2_3 H 0.2179 0.6154 0.5941
H3_3 H 0.2637 0.5690 0.6080
C2_3 C 0.2249(3) 0.6161(3) 0.65449(14)
H4_3 H 0.2006 0.6488 0.6619
H5_3 H 0.2386 0.5923 0.6715
H6_3 H 0.2590 0.6320 0.6436
N1_3 N 0.1881(2) 0.5775(2) 0.63334(11)
H7_3 H 0.1510 0.5932 0.6307
H8_3 H 0.1844 0.5399 0.6409
C1_4 C 0.7781(2) 0.4231(2) 0.60398(12)
H1_4 H 0.7941 0.4540 0.5909
H2_4 H 0.7821 0.3846 0.5941
H3_4 H 0.7363 0.4310 0.6080
C2_4 C 0.7751(3) 0.3839(3) 0.65449(14)
H4_4 H 0.7994 0.3512 0.6619
H5_4 H 0.7614 0.4077 0.6715
H6_4 H 0.7410 0.3680 0.6436
N1_4 N 0.8119(2) 0.4225(2) 0.63334(11)
H7_4 H 0.8490 0.4068 0.6307
H8_4 H 0.8156 0.4601 0.6409
C1_5 C 0.0769(2) 0.2219(2) 0.35398(12)
H1_5 H 0.0460 0.2059 0.3409
H2_5 H 0.1154 0.2179 0.3441
H3_5 H 0.0690 0.2637 0.3580
C2_5 C 0.1161(3) 0.2249(3) 0.40449(14)
H4_5 H 0.1488 0.2006 0.4119
H5_5 H 0.0923 0.2386 0.4215
H6_5 H 0.1320 0.2590 0.3936
N1_5 N 0.0775(2) 0.1881(2) 0.38334(11)
H7_5 H 0.0932 0.1510 0.3807
H8_5 H 0.0399 0.1844 0.3909
C1_6 C 0.9231(2) 0.7781(2) 0.35398(12)
H1_6 H 0.9540 0.7941 0.3409
H2_6 H 0.8846 0.7821 0.3441
H3_6 H 0.9310 0.7363 0.3580
C2_6 C 0.8839(3) 0.7751(3) 0.40449(14)
H4_6 H 0.8512 0.7994 0.4119
H5_6 H 0.9077 0.7614 0.4215
H6_6 H 0.8680 0.7410 0.3936
N1_6 N 0.9225(2) 0.8119(2) 0.38334(11)
H7_6 H 0.9068 0.8490 0.3807
H8_6 H 0.9601 0.8156 0.3909
C1_7 C 0.2781(2) 0.5769(2) 0.14602(12)
H1_7 H 0.2941 0.5460 0.1591
H2_7 H 0.2821 0.6154 0.1559
H3_7 H 0.2363 0.5690 0.1420
C2_7 C 0.2751(3) 0.6161(3) 0.09551(14)
H4_7 H 0.2994 0.6488 0.0881
H5_7 H 0.2614 0.5923 0.0785
H6_7 H 0.2410 0.6320 0.1064
N1_7 N 0.3119(2) 0.5775(2) 0.11666(11)
H7_7 H 0.3490 0.5932 0.1193
H8_7 H 0.3156 0.5399 0.1091
C1_8 C 0.7219(2) 0.4231(2) 0.14602(12)
H1_8 H 0.7059 0.4540 0.1591
H2_8 H 0.7179 0.3846 0.1559
H3_8 H 0.7637 0.4310 0.1420
C2_8 C 0.7249(3) 0.3839(3) 0.09551(14)
H4_8 H 0.7006 0.3512 0.0881
H5_8 H 0.7386 0.4077 0.0785
H6_8 H 0.7590 0.3680 0.1064
N1_8 N 0.6881(2) 0.4225(2) 0.11666(11)
H7_8 H 0.6510 0.4068 0.1193
H8_8 H 0.6844 0.4601 0.1091
C1_9 C 0.9231(2) 0.7219(2) 0.89602(12)
H1_9 H 0.9540 0.7059 0.9091
H2_9 H 0.8846 0.7179 0.9059
H3_9 H 0.9310 0.7637 0.8920
C2_9 C 0.8839(3) 0.7249(3) 0.84551(14)
H4_9 H 0.8512 0.7006 0.8381
H5_9 H 0.9077 0.7386 0.8285
H6_9 H 0.8680 0.7590 0.8564
N1_9 N 0.9225(2) 0.6881(2) 0.86666(11)
H7_9 H 0.9068 0.6510 0.8693
H8_9 H 0.9601 0.6844 0.8591
C1_10 C 0.0769(2) 0.2781(2) 0.89602(12)
H1_10 H 0.0460 0.2941 0.9091
H2_10 H 0.1154 0.2821 0.9059
H3_10 H 0.0690 0.2363 0.8920
C2_10 C 0.1161(3) 0.2751(3) 0.84551(14)
H4_10 H 0.1488 0.2994 0.8381
H5_10 H 0.0923 0.2614 0.8285
H6_10 H 0.1320 0.2410 0.8564
N1_10 N 0.0775(2) 0.3119(2) 0.86666(11)
H7_10 H 0.0932 0.3490 0.8693
H8_10 H 0.0399 0.3156 0.8591
C1_11 C 0.7219(2) 0.0769(2) 0.10398(12)
H1_11 H 0.7059 0.0460 0.0909
H2_11 H 0.7179 0.1154 0.0941
H3_11 H 0.7637 0.0690 0.1080
C2_11 C 0.7249(3) 0.1161(3) 0.15449(14)
H4_11 H 0.7006 0.1488 0.1619
H5_11 H 0.7386 0.0923 0.1715
H6_11 H 0.7590 0.1320 0.1436
N1_11 N 0.6881(2) 0.0775(2) 0.13334(11)
H7_11 H 0.6510 0.0932 0.1307
H8_11 H 0.6844 0.0399 0.1409
C1_12 C 0.2781(2) 0.9231(2) 0.10398(12)
H1_12 H 0.2941 0.9540 0.0909
H2_12 H 0.2821 0.8846 0.0941
H3_12 H 0.2363 0.9310 0.1080
C2_12 C 0.2751(3) 0.8839(3) 0.15449(14)
H4_12 H 0.2994 0.8512 0.1619
H5_12 H 0.2614 0.9077 0.1715
H6_12 H 0.2410 0.8680 0.1436
N1_12 N 0.3119(2) 0.9225(2) 0.13334(11)
H7_12 H 0.3490 0.9068 0.1307
H8_12 H 0.3156 0.9601 0.1409
C1_13 C 0.5769(2) 0.7219(2) 0.85398(12)
H1_13 H 0.5460 0.7059 0.8409
H2_13 H 0.6154 0.7179 0.8441
H3_13 H 0.5690 0.7637 0.8580
C2_13 C 0.6161(3) 0.7249(3) 0.90449(14)
H4_13 H 0.6488 0.7006 0.9119
H5_13 H 0.5923 0.7386 0.9215
H6_13 H 0.6320 0.7590 0.8936
N1_13 N 0.5775(2) 0.6881(2) 0.88334(11)
H7_13 H 0.5932 0.6510 0.8807
H8_13 H 0.5399 0.6844 0.8909
C1_14 C 0.4231(2) 0.2781(2) 0.85398(12)
H1_14 H 0.4540 0.2941 0.8409
H2_14 H 0.3846 0.2821 0.8441
H3_14 H 0.4310 0.2363 0.8580
C2_14 C 0.3839(3) 0.2751(3) 0.90449(14)
H4_14 H 0.3512 0.2994 0.9119
H5_14 H 0.4077 0.2614 0.9215
H6_14 H 0.3680 0.2410 0.8936
N1_14 N 0.4225(2) 0.3119(2) 0.88334(11)
H7_14 H 0.4068 0.3490 0.8807
H8_14 H 0.4601 0.3156 0.8909
C1_15 C 0.7781(2) 0.0769(2) 0.64602(12)
H1_15 H 0.7941 0.0460 0.6591
H2_15 H 0.7821 0.1154 0.6559
H3_15 H 0.7363 0.0690 0.6420
C2_15 C 0.7751(3) 0.1161(3) 0.59551(14)
H4_15 H 0.7994 0.1488 0.5881
H5_15 H 0.7614 0.0923 0.5785
H6_15 H 0.7410 0.1320 0.6064
N1_15 N 0.8119(2) 0.0775(2) 0.61666(11)
H7_15 H 0.8490 0.0932 0.6193
H8_15 H 0.8156 0.0399 0.6091
C1_16 C 0.2219(2) 0.9231(2) 0.64602(12)
H1_16 H 0.2059 0.9540 0.6591
H2_16 H 0.2179 0.8846 0.6559
H3_16 H 0.2637 0.9310 0.6420
C2_16 C 0.2249(3) 0.8839(3) 0.59551(14)
H4_16 H 0.2006 0.8512 0.5881
H5_16 H 0.2386 0.9077 0.5785
H6_16 H 0.2590 0.8680 0.6064
N1_16 N 0.1881(2) 0.9225(2) 0.61666(11)
H7_16 H 0.1510 0.9068 0.6193
H8_16 H 0.1844 0.9601 0.6091
C3 C 0.4597(5) 0.3709(6) 0.4106(3)
H9 H 0.4222 0.3504 0.4141
H10 H 0.4692 0.3956 0.4280
H11 H 0.4912 0.3417 0.4077
C4 C 0.3984(5) 0.3919(5) 0.3636(3)
H12 H 0.3923 0.4196 0.3470
H13 H 0.3637 0.3923 0.3767
H14 H 0.4041 0.3520 0.3555
N2 N 0.4544(4) 0.4107(4) 0.3819(2)
H15 H 0.4512 0.4497 0.3874
H16 H 0.4876 0.4065 0.3703
C3_2 C 0.5403(5) 0.6291(6) 0.4106(3)
H9_2 H 0.5778 0.6496 0.4141
H10_2 H 0.5308 0.6044 0.4280
H11_2 H 0.5088 0.6583 0.4077
C4_2 C 0.6016(5) 0.6081(5) 0.3636(3)
H12_2 H 0.6077 0.5804 0.3470
H13_2 H 0.6363 0.6077 0.3767
H14_2 H 0.5959 0.6480 0.3555
N2_2 N 0.5456(4) 0.5893(4) 0.3819(2)
H15_2 H 0.5488 0.5503 0.3874
H16_2 H 0.5124 0.5935 0.3703
C3_3 C 0.3709(6) 0.5403(5) 0.5894(3)
H9_3 H 0.3504 0.5778 0.5859
H10_3 H 0.3956 0.5308 0.5720
H11_3 H 0.3417 0.5088 0.5923
C4_3 C 0.3919(5) 0.6016(5) 0.6364(3)
H12_3 H 0.4196 0.6077 0.6530
H13_3 H 0.3923 0.6363 0.6233
H14_3 H 0.3520 0.5959 0.6445
N2_3 N 0.4107(4) 0.5456(4) 0.6181(2)
H15_3 H 0.4497 0.5488 0.6126
H16_3 H 0.4065 0.5124 0.6297
C3_4 C 0.6291(6) 0.4597(5) 0.5894(3)
H9_4 H 0.6496 0.4222 0.5859
H10_4 H 0.6044 0.4692 0.5720
H11_4 H 0.6583 0.4912 0.5923
C4_4 C 0.6081(5) 0.3984(5) 0.6364(3)
H12_4 H 0.5804 0.3923 0.6530
H13_4 H 0.6077 0.3637 0.6233
H14_4 H 0.6480 0.4041 0.6445
N2_4 N 0.5893(4) 0.4544(4) 0.6181(2)
H15_4 H 0.5503 0.4512 0.6126
H16_4 H 0.5935 0.4876 0.6297
C3_5 C 0.0403(5) 0.3709(6) 0.3394(3)
H9_5 H 0.0778 0.3504 0.3359
H10_5 H 0.0308 0.3956 0.3220
H11_5 H 0.0088 0.3417 0.3423
C4_5 C 0.1016(5) 0.3919(5) 0.3864(3)
H12_5 H 0.1077 0.4196 0.4030
H13_5 H 0.1363 0.3923 0.3733
H14_5 H 0.0959 0.3520 0.3945
N2_5 N 0.0456(4) 0.4107(4) 0.3681(2)
H15_5 H 0.0488 0.4497 0.3626
H16_5 H 0.0124 0.4065 0.3797
C3_6 C 0.9597(5) 0.6291(6) 0.3394(3)
H9_6 H 0.9222 0.6496 0.3359
H10_6 H 0.9692 0.6044 0.3220
H11_6 H 0.9912 0.6583 0.3423
C4_6 C 0.8984(5) 0.6081(5) 0.3864(3)
H12_6 H 0.8923 0.5804 0.4030
H13_6 H 0.8637 0.6077 0.3733
H14_6 H 0.9041 0.6480 0.3945
N2_6 N 0.9544(4) 0.5893(4) 0.3681(2)
H15_6 H 0.9512 0.5503 0.3626
H16_6 H 0.9876 0.5935 0.3797
C3_7 C 0.1291(6) 0.5403(5) 0.1606(3)
H9_7 H 0.1496 0.5778 0.1641
H10_7 H 0.1044 0.5308 0.1780
H11_7 H 0.1583 0.5088 0.1577
C4_7 C 0.1081(5) 0.6016(5) 0.1136(3)
H12_7 H 0.0804 0.6077 0.0970
H13_7 H 0.1077 0.6363 0.1267
H14_7 H 0.1480 0.5959 0.1055
N2_7 N 0.0893(4) 0.5456(4) 0.1319(2)
H15_7 H 0.0503 0.5488 0.1374
H16_7 H 0.0935 0.5124 0.1203
C3_8 C 0.8709(6) 0.4597(5) 0.1606(3)
H9_8 H 0.8504 0.4222 0.1641
H10_8 H 0.8956 0.4692 0.1780
H11_8 H 0.8417 0.4912 0.1577
C4_8 C 0.8919(5) 0.3984(5) 0.1136(3)
H12_8 H 0.9196 0.3923 0.0970
H13_8 H 0.8923 0.3637 0.1267
H14_8 H 0.8520 0.4041 0.1055
N2_8 N 0.9107(4) 0.4544(4) 0.1319(2)
H15_8 H 0.9497 0.4512 0.1374
H16_8 H 0.9065 0.4876 0.1203
C3_9 C 0.9597(5) 0.8709(6) 0.9106(3)
H9_9 H 0.9222 0.8504 0.9141
H10_9 H 0.9692 0.8956 0.9280
H11_9 H 0.9912 0.8417 0.9077
C4_9 C 0.8984(5) 0.8919(5) 0.8636(3)
H12_9 H 0.8923 0.9196 0.8470
H13_9 H 0.8637 0.8923 0.8767
H14_9 H 0.9041 0.8520 0.8555
N2_9 N 0.9544(4) 0.9107(4) 0.8819(2)
H15_9 H 0.9512 0.9497 0.8874
H16_9 H 0.9876 0.9065 0.8703
C3_10 C 0.0403(5) 0.1291(6) 0.9106(3)
H9_10 H 0.0778 0.1496 0.9141
H10_10 H 0.0308 0.1044 0.9280
H11_10 H 0.0088 0.1583 0.9077
C4_10 C 0.1016(5) 0.1081(5) 0.8636(3)
H12_10 H 0.1077 0.0804 0.8470
H13_10 H 0.1363 0.1077 0.8767
H14_10 H 0.0959 0.1480 0.8555
N2_10 N 0.0456(4) 0.0893(4) 0.8819(2)
H15_10 H 0.0488 0.0503 0.8874
H16_10 H 0.0124 0.0935 0.8703
C3_11 C 0.8709(6) 0.0403(5) 0.0894(3)
H9_11 H 0.8504 0.0778 0.0859
H10_11 H 0.8956 0.0308 0.0720
H11_11 H 0.8417 0.0088 0.0923
C4_11 C 0.8919(5) 0.1016(5) 0.1364(3)
H12_11 H 0.9196 0.1077 0.1530
H13_11 H 0.8923 0.1363 0.1233
H14_11 H 0.8520 0.0959 0.1445
N2_11 N 0.9107(4) 0.0456(4) 0.1181(2)
H15_11 H 0.9497 0.0488 0.1126
H16_11 H 0.9065 0.0124 0.1297
C3_12 C 0.1291(6) 0.9597(5) 0.0894(3)
H9_12 H 0.1496 0.9222 0.0859
H10_12 H 0.1044 0.9692 0.0720
H11_12 H 0.1583 0.9912 0.0923
C4_12 C 0.1081(5) 0.8984(5) 0.1364(3)
H12_12 H 0.0804 0.8923 0.1530
H13_12 H 0.1077 0.8637 0.1233
H14_12 H 0.1480 0.9041 0.1445
N2_12 N 0.0893(4) 0.9544(4) 0.1181(2)
H15_12 H 0.0503 0.9512 0.1126
H16_12 H 0.0935 0.9876 0.1297
C3_13 C 0.5403(5) 0.8709(6) 0.8394(3)
H9_13 H 0.5778 0.8504 0.8359
H10_13 H 0.5308 0.8956 0.8220
H11_13 H 0.5088 0.8417 0.8423
C4_13 C 0.6016(5) 0.8919(5) 0.8864(3)
H12_13 H 0.6077 0.9196 0.9030
H13_13 H 0.6363 0.8923 0.8733
H14_13 H 0.5959 0.8520 0.8945
N2_13 N 0.5456(4) 0.9107(4) 0.8681(2)
H15_13 H 0.5488 0.9497 0.8626
H16_13 H 0.5124 0.9065 0.8797
C3_14 C 0.4597(5) 0.1291(6) 0.8394(3)
H9_14 H 0.4222 0.1496 0.8359
H10_14 H 0.4692 0.1044 0.8220
H11_14 H 0.4912 0.1583 0.8423
C4_14 C 0.3984(5) 0.1081(5) 0.8864(3)
H12_14 H 0.3923 0.0804 0.9030
H13_14 H 0.3637 0.1077 0.8733
H14_14 H 0.4041 0.1480 0.8945
N2_14 N 0.4544(4) 0.0893(4) 0.8681(2)
H15_14 H 0.4512 0.0503 0.8626
H16_14 H 0.4876 0.0935 0.8797
C3_15 C 0.6291(6) 0.0403(5) 0.6606(3)
H9_15 H 0.6496 0.0778 0.6641
H10_15 H 0.6044 0.0308 0.6780
H11_15 H 0.6583 0.0088 0.6577
C4_15 C 0.6081(5) 0.1016(5) 0.6136(3)
H12_15 H 0.5804 0.1077 0.5970
H13_15 H 0.6077 0.1363 0.6267
H14_15 H 0.6480 0.0959 0.6055
N2_15 N 0.5893(4) 0.0456(4) 0.6319(2)
H15_15 H 0.5503 0.0488 0.6374
H16_15 H 0.5935 0.0124 0.6203
C3_16 C 0.3709(6) 0.9597(5) 0.6606(3)
H9_16 H 0.3504 0.9222 0.6641
H10_16 H 0.3956 0.9692 0.6780
H11_16 H 0.3417 0.9912 0.6577
C4_16 C 0.3919(5) 0.8984(5) 0.6136(3)
H12_16 H 0.4196 0.8923 0.5970
H13_16 H 0.3923 0.8637 0.6267
H14_16 H 0.3520 0.9041 0.6055
N2_16 N 0.4107(4) 0.9544(4) 0.6319(2)
H15_16 H 0.4497 0.9512 0.6374
H16_16 H 0.4065 0.9876 0.6203
C36 C 0.0204(3) 0.3725(3) 0.49741(14)
H38 H 0.0494 0.3909 0.4840
H39 H 0.0339 0.3327 0.5028
H40 H 0.0163 0.3963 0.5156
C39 C 0.0563(3) 0.1313(3) 0.62335(12)
C42 C 0.0202(3) 0.1292(3) 0.59468(12)
C45 C 0.0149(3) 0.0781(3) 0.57648(13)
H43 H 0.0372 0.0437 0.5811
H76 H 0.0018 0.2475 0.4587
Cd5 Cd 0.131555(18) 0.129445(18) 0.675087(9)
Cd16 Cd 0.13215(2) 0.2500 0.6250
O15 O 0.08377(19) 0.07899(19) 0.63055(9)
O18 O 0.06395(16) 0.17580(18) 0.63879(9)
O24 O 0.11665(17) 0.21326(17) 0.70357(8)
O40 O 0.20043(17) 0.17727(18) 0.64057(9)
O45 O 0.21449(18) 0.08214(18) 0.64891(9)
O51 O 0.17230(18) 0.08781(19) 0.72094(9)
O57 O 0.09070(19) 0.05080(17) 0.70182(8)
C5 C 0.6313(3) 0.0563(3) 0.37335(12)
C6 C 0.6292(3) 0.0202(3) 0.34468(12)
C7 C 0.5781(3) 0.0149(3) 0.32648(13)
H17 H 0.5437 0.0372 0.3311
H28 H 0.7475 0.0018 0.2087
C21 C 0.8687(3) 0.2280(3) 0.36430(13)
C22 C 0.8732(3) 0.2746(2) 0.38921(12)
C23 C 0.8187(2) 0.2836(2) 0.40709(11)
H29 H 0.7829 0.2632 0.4030
C24 C 0.8240(3) 0.3249(3) 0.43058(11)
C25 C 0.8698(3) 0.3610(2) 0.43595(10)
C26 C 0.9204(3) 0.3545(3) 0.41633(12)
H30 H 0.9528 0.3808 0.4182
C27 C 0.9220(3) 0.3075(2) 0.39336(14)
H31 H 0.9566 0.3007 0.3818
C28 C 0.8703(3) 0.4096(3) 0.45976(12)
C29 C 0.8271(3) 0.4547(2) 0.45976(12)
H32 H 0.7985 0.4546 0.4442
C30 C 0.8238(3) 0.5004(3) 0.48190(13)
H33 H 0.7928 0.5286 0.4819
C31 C 0.8694(3) 0.5016(2) 0.50399(14)
C32 C 0.9147(2) 0.4568(3) 0.50424(13)
H34 H 0.9446 0.4562 0.5192
C33 C 0.9127(3) 0.4145(3) 0.48179(14)
C34 C 0.8690(3) 0.5460(2) 0.52893(11)
C35 C 0.7205(2) 0.3023(3) 0.44528(13)
H35 H 0.6993 0.3159 0.4274
H36 H 0.6948 0.3057 0.4629
H37 H 0.7323 0.2610 0.4426
Cd1 Cd 0.629445(18) 0.131555(18) 0.425087(9)
Cd2 Cd 0.7500 0.13215(2) 0.3750
O1 O 0.57899(19) 0.08377(19) 0.38055(9)
O2 O 0.67580(18) 0.06395(16) 0.38879(9)
O7 O 0.82273(18) 0.20043(17) 0.35943(9)
O8 O 0.91786(18) 0.21449(18) 0.35109(9)
O9 O 0.82770(18) 0.58781(19) 0.52906(9)
O10 O 0.90930(19) 0.55080(17) 0.54818(8)
O11 O 0.77115(18) 0.33727(19) 0.44955(10)
O12 O 0.95846(15) 0.36827(18) 0.48086(8)
C37 C 0.8687(3) 0.0563(3) 0.37665(12)
C38 C 0.4437(3) 0.1313(3) 0.12665(12)
C40 C 0.8708(3) 0.0202(3) 0.40532(12)
C41 C 0.4798(3) 0.1292(3) 0.15532(12)
C43 C 0.9219(3) 0.0149(3) 0.42352(13)
C44 C 0.4851(3) 0.0781(3) 0.17352(13)
H41 H 0.9563 0.0372 0.4189
H42 H 0.4628 0.0437 0.1689
C47 C 0.5237(2) 0.0783(3) 0.19859(13)
C48 C 0.9763(2) 0.0783(3) 0.55141(13)
H45 H 0.5273 0.0441 0.2108
H46 H 0.9727 0.0441 0.5392
C50 C 0.5570(2) 0.1297(2) 0.20547(14)
C51 C 0.9430(2) 0.1297(2) 0.54453(14)
C53 C 0.5516(3) 0.1808(3) 0.18727(12)
C54 C 0.9484(3) 0.1808(3) 0.56273(12)
C56 C 0.5130(2) 0.1806(3) 0.16220(13)
C57 C 0.9870(2) 0.1806(3) 0.58780(13)
H48 H 0.5095 0.2148 0.1500
H49 H 0.9905 0.2148 0.6000
C59 C 0.6025(2) 0.1279(3) 0.23099(13)
C60 C 0.8975(2) 0.1279(3) 0.51901(13)
C62 C 0.6585(3) 0.1023(3) 0.22619(14)
C63 C 0.8415(3) 0.1023(3) 0.52381(14)
H51 H 0.6683 0.0853 0.2074
H52 H 0.8317 0.0853 0.5426
C65 C 0.7004(3) 0.1024(3) 0.25041(13)
C66 C 0.7996(3) 0.1024(3) 0.49959(13)
H54 H 0.7385 0.0861 0.2473
H55 H 0.7615 0.0861 0.5027
C68 C 0.6860(2) 0.1262(3) 0.27866(12)
C69 C 0.8140(2) 0.1262(3) 0.47134(12)
C71 C 0.6309(3) 0.1519(3) 0.28264(15)
C72 C 0.8691(3) 0.1519(3) 0.46736(15)
H57 H 0.6214 0.1686 0.3016
H58 H 0.8786 0.1686 0.4484
C74 C 0.5881(3) 0.1542(3) 0.25921(14)
C75 C 0.9119(3) 0.1542(3) 0.49079(14)
C77 C 0.7313(3) 0.1308(3) 0.30358(12)
C78 C 0.7687(3) 0.1308(3) 0.44642(12)
C80 C 0.5528(3) 0.2943(3) 0.18989(13)
C81 C 0.9472(3) 0.2943(3) 0.56011(13)
H60 H 0.5549 0.3220 0.2068
H61 H 0.9451 0.3220 0.5432
H63 H 0.5755 0.3099 0.1730
H64 H 0.9245 0.3099 0.5770
H66 H 0.5114 0.2893 0.1839
H67 H 0.9886 0.2893 0.5661
C83 C 0.5356(3) 0.2256(3) 0.29110(17)
C84 C 0.9644(3) 0.2256(3) 0.45890(17)
H69 H 0.5394 0.2032 0.3098
H70 H 0.9606 0.2032 0.4402
H72 H 0.5686 0.2534 0.2893
H73 H 0.9314 0.2534 0.4607
H74 H 0.7525 0.0018 0.5413
H75 H 0.4982 0.2475 0.2913
C85 C 0.6313(3) 0.2280(3) 0.38570(13)
C86 C 0.2280(3) 0.1313(3) 0.63570(13)
C87 C 0.2720(3) 0.3687(3) 0.13570(13)
C88 C 0.6268(3) 0.2746(2) 0.36079(12)
C89 C 0.2746(2) 0.1268(3) 0.61079(12)
C90 C 0.2254(2) 0.3732(3) 0.11079(12)
C91 C 0.6813(2) 0.2836(2) 0.34291(11)
C92 C 0.2836(2) 0.1813(2) 0.59291(11)
C93 C 0.2164(2) 0.3187(2) 0.09291(11)
H77 H 0.7171 0.2632 0.3470
H78 H 0.2632 0.2171 0.5970
H79 H 0.2368 0.2829 0.0970
C94 C 0.6760(3) 0.3249(3) 0.31942(11)
C95 C 0.3249(3) 0.1760(3) 0.56942(11)
C96 C 0.1751(3) 0.3240(3) 0.06942(11)
C97 C 0.6302(3) 0.3610(2) 0.31405(10)
C98 C 0.3610(2) 0.1302(3) 0.56405(10)
C99 C 0.1390(2) 0.3698(3) 0.06405(10)
C100 C 0.5796(3) 0.3545(3) 0.33367(12)
C101 C 0.3545(3) 0.0796(3) 0.58367(12)
C102 C 0.1455(3) 0.4204(3) 0.08367(12)
H80 H 0.5472 0.3808 0.3318
H81 H 0.3808 0.0472 0.5818
H82 H 0.1192 0.4528 0.0818
C103 C 0.5780(3) 0.3075(2) 0.35664(14)
C104 C 0.3075(2) 0.0780(3) 0.60664(14)
C105 C 0.1925(2) 0.4220(3) 0.10664(14)
H83 H 0.5434 0.3007 0.3682
H84 H 0.3007 0.0434 0.6182
H85 H 0.1993 0.4566 0.1182
C106 C 0.6297(3) 0.4096(3) 0.29024(12)
C107 C 0.4096(3) 0.1297(3) 0.54024(12)
C108 C 0.0904(3) 0.3703(3) 0.04024(12)
C109 C 0.6729(3) 0.4547(2) 0.29024(12)
C110 C 0.4547(2) 0.1729(3) 0.54024(12)
C111 C 0.0453(2) 0.3271(3) 0.04024(12)
H86 H 0.7015 0.4546 0.3058
H87 H 0.4546 0.2015 0.5558
H88 H 0.0454 0.2985 0.0558
C112 C 0.6762(3) 0.5004(3) 0.26810(13)
C113 C 0.5004(3) 0.1762(3) 0.51810(13)
H89 H 0.7072 0.5286 0.2681
H90 H 0.5286 0.2072 0.5181
C115 C 0.6306(3) 0.5016(2) 0.24601(14)
C116 C 0.5016(2) 0.1306(3) 0.49601(14)
C118 C 0.5853(2) 0.4568(3) 0.24576(13)
C119 C 0.4568(3) 0.0853(2) 0.49576(13)
H92 H 0.5554 0.4562 0.2308
H93 H 0.4562 0.0554 0.4808
C121 C 0.5873(3) 0.4145(3) 0.26821(14)
C122 C 0.4145(3) 0.0873(3) 0.51821(14)
C123 C 0.0855(3) 0.4127(3) 0.01821(14)
C124 C 0.6310(3) 0.5460(2) 0.22107(11)
C125 C 0.5460(2) 0.1310(3) 0.47107(11)
C127 C 0.7795(2) 0.3023(3) 0.30472(13)
C128 C 0.3023(3) 0.2795(2) 0.55472(13)
C129 C 0.1977(3) 0.2205(2) 0.05472(13)
H95 H 0.8007 0.3159 0.3226
H96 H 0.3159 0.3007 0.5726
H97 H 0.1841 0.1993 0.0726
H98 H 0.8052 0.3057 0.2871
H99 H 0.3057 0.3052 0.5371
H100 H 0.1943 0.1948 0.0371
H101 H 0.7677 0.2610 0.3074
H102 H 0.2610 0.2677 0.5574
H103 H 0.2390 0.2323 0.0574
C130 C 0.4796(3) 0.3725(3) 0.25259(14)
C132 C 0.1275(3) 0.5204(3) 0.00259(14)
H104 H 0.4506 0.3909 0.2660
H106 H 0.1091 0.5494 0.0160
H107 H 0.4661 0.3327 0.2472
H110 H 0.4837 0.3963 0.2344
Cd3 Cd 0.870555(18) 0.131555(18) 0.324913(9)
Cd4 Cd 0.368445(18) 0.129445(18) 0.074913(9)
Cd7 Cd 0.868445(18) 0.629445(18) 0.574913(9)
Cd9 Cd 0.631555(18) 0.629445(18) 0.175087(9)
Cd11 Cd 0.368445(18) 0.370555(18) 0.175087(9)
Cd13 Cd 0.36785(2) 0.2500 0.1250
O13 O 0.92101(19) 0.08377(19) 0.36945(9)
O14 O 0.41623(19) 0.07899(19) 0.11945(9)
O16 O 0.82420(18) 0.06395(16) 0.36121(9)
O17 O 0.43605(16) 0.17580(18) 0.11121(9)
O19 O 0.43605(16) 0.32420(18) 0.13879(9)
O21 O 0.78674(17) 0.11665(17) 0.29643(8)
O22 O 0.71326(17) 0.11665(17) 0.45357(8)
O23 O 0.38335(17) 0.21326(17) 0.04643(8)
O26 O 0.71459(16) 0.13680(15) 0.32881(7)
O27 O 0.78541(16) 0.13680(15) 0.42119(7)
O28 O 0.36320(15) 0.21459(16) 0.17119(7)
O29 O 0.36320(15) 0.28541(16) 0.07881(7)
O31 O 0.57734(17) 0.23676(17) 0.19906(9)
O32 O 0.92266(17) 0.23676(17) 0.55094(9)
O34 O 0.53627(18) 0.18552(19) 0.26596(9)
O35 O 0.96373(18) 0.18552(19) 0.48404(9)
O36 O 0.67727(18) 0.20043(17) 0.39057(9)
O38 O 0.29957(17) 0.32273(18) 0.14057(9)
O39 O 0.29957(17) 0.17727(18) 0.10943(9)
O41 O 0.58214(18) 0.21449(18) 0.39891(9)
O43 O 0.28551(18) 0.41786(18) 0.14891(9)
O44 O 0.28551(18) 0.08214(18) 0.10109(9)
O46 O 0.67230(18) 0.58781(19) 0.22094(9)
O47 O 0.58781(19) 0.17230(18) 0.47094(9)
O49 O 0.91219(19) 0.17230(18) 0.27906(9)
O50 O 0.32770(18) 0.08781(19) 0.02906(9)
O52 O 0.59070(19) 0.55080(17) 0.20182(8)
O53 O 0.55080(17) 0.09070(19) 0.45182(8)
O55 O 0.94920(17) 0.09070(19) 0.29818(8)
O56 O 0.40930(19) 0.05080(17) 0.04818(8)
O58 O 0.72885(18) 0.33727(19) 0.30045(10)
O59 O 0.33727(19) 0.22885(18) 0.55045(10)
O60 O 0.16273(19) 0.27115(18) 0.05045(10)
O61 O 0.54154(15) 0.36827(18) 0.26914(8)
O62 O 0.36827(18) 0.04154(15) 0.51914(8)
O63 O 0.13173(18) 0.45846(15) 0.01914(8)
C120 C 0.0432(3) 0.4147(2) 0.99576(13)
H94 H 0.0438 0.4446 0.9808
H109 H 0.1673 0.5339 0.9972
H112 H 0.1037 0.5163 0.9844
C8 C 0.5783(3) 0.9763(2) 0.30141(13)
H18 H 0.5441 0.9727 0.2892
C9 C 0.6297(2) 0.9430(2) 0.29453(14)
C10 C 0.6808(3) 0.9484(3) 0.31273(12)
C11 C 0.6806(3) 0.9870(2) 0.33780(13)
H19 H 0.7148 0.9905 0.3500
C12 C 0.6279(3) 0.8975(2) 0.26901(13)
C13 C 0.6023(3) 0.8415(3) 0.27381(14)
H20 H 0.5853 0.8317 0.2926
C14 C 0.6024(3) 0.7996(3) 0.24959(13)
H21 H 0.5861 0.7615 0.2527
C15 C 0.6262(3) 0.8140(2) 0.22134(12)
C16 C 0.6519(3) 0.8691(3) 0.21736(15)
H22 H 0.6686 0.8786 0.1984
C17 C 0.6542(3) 0.9119(3) 0.24079(14)
C18 C 0.6308(3) 0.7687(3) 0.19642(12)
C19 C 0.7943(3) 0.9472(3) 0.31011(13)
H23 H 0.8220 0.9451 0.2932
H24 H 0.8099 0.9245 0.3270
H25 H 0.7893 0.9886 0.3161
C20 C 0.7256(3) 0.9644(3) 0.20890(17)
H26 H 0.7032 0.9606 0.1902
H27 H 0.7534 0.9314 0.2107
O3 O 0.61665(17) 0.71326(17) 0.20357(8)
O4 O 0.63680(15) 0.78541(16) 0.17119(7)
O5 O 0.73676(17) 0.92266(17) 0.30094(9)
O6 O 0.68552(19) 0.96373(18) 0.23404(9)
C46 C 0.9217(3) 0.9763(2) 0.44859(13)
H44 H 0.9559 0.9727 0.4608
C49 C 0.8703(2) 0.9430(2) 0.45547(14)
C52 C 0.8192(3) 0.9484(3) 0.43727(12)
C55 C 0.8194(3) 0.9870(2) 0.41220(13)
H47 H 0.7852 0.9905 0.4000
C58 C 0.8721(3) 0.8975(2) 0.48099(13)
C61 C 0.8977(3) 0.8415(3) 0.47619(14)
H50 H 0.9147 0.8317 0.4574
C64 C 0.8976(3) 0.7996(3) 0.50041(13)
H53 H 0.9139 0.7615 0.4973
C67 C 0.8738(3) 0.8140(2) 0.52866(12)
C70 C 0.8481(3) 0.8691(3) 0.53264(15)
H56 H 0.8314 0.8786 0.5516
C73 C 0.8458(3) 0.9119(3) 0.50921(14)
C76 C 0.8692(3) 0.7687(3) 0.55358(12)
C79 C 0.7057(3) 0.9472(3) 0.43989(13)
H59 H 0.6780 0.9451 0.4568
H62 H 0.6901 0.9245 0.4230
H65 H 0.7107 0.9886 0.4339
C82 C 0.7744(3) 0.9644(3) 0.54110(17)
H68 H 0.7968 0.9606 0.5598
H71 H 0.7466 0.9314 0.5393
C131 C 0.3725(3) 0.9796(3) 0.50259(14)
H105 H 0.3909 0.9506 0.5160
H108 H 0.3327 0.9661 0.4972
H111 H 0.3963 0.9837 0.4844
Cd14 Cd 0.63215(2) 0.7500 0.1250
Cd15 Cd 0.86785(2) 0.7500 0.6250
O20 O 0.88335(17) 0.71326(17) 0.54643(8)
O25 O 0.86320(15) 0.78541(16) 0.57881(7)
O30 O 0.76324(17) 0.92266(17) 0.44906(9)
O33 O 0.81448(19) 0.96373(18) 0.51596(9)
C114 C 0.9996(3) 0.3238(3) 0.01810(13)
H91 H 0.9714 0.2928 0.0181
C117 C 0.9984(2) 0.3694(3) 0.99601(14)
C126 C 0.9540(2) 0.3690(3) 0.97107(11)
Cd12 Cd 0.870555(18) 0.368445(18) 0.925087(9)
O48 O 0.91219(19) 0.32770(18) 0.97094(9)
O54 O 0.94920(17) 0.40930(19) 0.95182(8)
C114_2 C 0.0004(3) 0.6762(3) 0.01810(13)
H91_2 H 0.0286 0.7072 0.0181
C117_2 C 0.0016(2) 0.6306(3) 0.99601(14)
C126_2 C 0.0460(2) 0.6310(3) 0.97107(11)
Cd12_2 Cd 0.129445(18) 0.631555(18) 0.925087(9)
O48_2 O 0.08781(19) 0.67230(18) 0.97094(9)
O54_2 O 0.05080(17) 0.59070(19) 0.95182(8)
C8_2 C 0.4217(3) 0.0237(2) 0.30141(13)
H18_2 H 0.4559 0.0273 0.2892
C9_2 C 0.3703(2) 0.0570(2) 0.29453(14)
C10_2 C 0.3192(3) 0.0516(3) 0.31273(12)
C11_2 C 0.3194(3) 0.0130(2) 0.33780(13)
H19_2 H 0.2852 0.0095 0.3500
C12_2 C 0.3721(3) 0.1025(2) 0.26901(13)
C13_2 C 0.3977(3) 0.1585(3) 0.27381(14)
H20_2 H 0.4147 0.1683 0.2926
C14_2 C 0.3976(3) 0.2004(3) 0.24959(13)
H21_2 H 0.4139 0.2385 0.2527
C15_2 C 0.3738(3) 0.1860(2) 0.22134(12)
C16_2 C 0.3481(3) 0.1309(3) 0.21736(15)
H22_2 H 0.3314 0.1214 0.1984
C17_2 C 0.3458(3) 0.0881(3) 0.24079(14)
C18_2 C 0.3692(3) 0.2313(3) 0.19642(12)
C19_2 C 0.2057(3) 0.0528(3) 0.31011(13)
H23_2 H 0.1780 0.0549 0.2932
H24_2 H 0.1901 0.0755 0.3270
H25_2 H 0.2107 0.0114 0.3161
C20_2 C 0.2744(3) 0.0356(3) 0.20890(17)
H26_2 H 0.2968 0.0394 0.1902
H27_2 H 0.2466 0.0686 0.2107
O3_2 O 0.38335(17) 0.28674(17) 0.20357(8)
O5_2 O 0.26324(17) 0.07734(17) 0.30094(9)
O6_2 O 0.31448(19) 0.03627(18) 0.23404(9)
C46_2 C 0.0783(3) 0.0237(2) 0.44859(13)
H44_2 H 0.0441 0.0273 0.4608
C49_2 C 0.1297(2) 0.0570(2) 0.45547(14)
C52_2 C 0.1808(3) 0.0516(3) 0.43727(12)
C55_2 C 0.1806(3) 0.0130(2) 0.41220(13)
H47_2 H 0.2148 0.0095 0.4000
C58_2 C 0.1279(3) 0.1025(2) 0.48099(13)
C61_2 C 0.1023(3) 0.1585(3) 0.47619(14)
H50_2 H 0.0853 0.1683 0.4574
C64_2 C 0.1024(3) 0.2004(3) 0.50041(13)
H53_2 H 0.0861 0.2385 0.4973
C67_2 C 0.1262(3) 0.1860(2) 0.52866(12)
C70_2 C 0.1519(3) 0.1309(3) 0.53264(15)
H56_2 H 0.1686 0.1214 0.5516
C73_2 C 0.1542(3) 0.0881(3) 0.50921(14)
C76_2 C 0.1308(3) 0.2313(3) 0.55358(12)
C79_2 C 0.2943(3) 0.0528(3) 0.43989(13)
H59_2 H 0.3220 0.0549 0.4568
H62_2 H 0.3099 0.0755 0.4230
H65_2 H 0.2893 0.0114 0.4339
C82_2 C 0.2256(3) 0.0356(3) 0.54110(17)
H68_2 H 0.2032 0.0394 0.5598
H71_2 H 0.2534 0.0686 0.5393
C131_2 C 0.6275(3) 0.0204(3) 0.50259(14)
H105_2 H 0.6091 0.0494 0.5160
H108_2 H 0.6673 0.0339 0.4972
H111_2 H 0.6037 0.0163 0.4844
Cd8 Cd 0.131555(18) 0.370555(18) 0.574913(9)
O20_2 O 0.11665(17) 0.28674(17) 0.54643(8)
O25_2 O 0.13680(15) 0.21459(16) 0.57881(7)
O30_2 O 0.23676(17) 0.07734(17) 0.44906(9)
O33_2 O 0.18552(19) 0.03627(18) 0.51596(9)
C5_2 C 0.3687(3) 0.9437(3) 0.37335(12)
C6_2 C 0.3708(3) 0.9798(3) 0.34468(12)
C7_2 C 0.4219(3) 0.9851(3) 0.32648(13)
H17_2 H 0.4563 0.9628 0.3311
H28_2 H 0.2525 0.9982 0.2087
C21_2 C 0.1313(3) 0.7720(3) 0.36430(13)
C22_2 C 0.1268(3) 0.7254(2) 0.38921(12)
C23_2 C 0.1813(2) 0.7164(2) 0.40709(11)
H29_2 H 0.2171 0.7368 0.4030
C24_2 C 0.1760(3) 0.6751(3) 0.43058(11)
C25_2 C 0.1302(3) 0.6390(2) 0.43595(10)
C26_2 C 0.0796(3) 0.6455(3) 0.41633(12)
H30_2 H 0.0472 0.6192 0.4182
C27_2 C 0.0780(3) 0.6925(2) 0.39336(14)
H31_2 H 0.0434 0.6993 0.3818
C28_2 C 0.1297(3) 0.5904(3) 0.45976(12)
C29_2 C 0.1729(3) 0.5453(2) 0.45976(12)
H32_2 H 0.2015 0.5454 0.4442
C30_2 C 0.1762(3) 0.4996(3) 0.48190(13)
H33_2 H 0.2072 0.4714 0.4819
C31_2 C 0.1306(3) 0.4984(2) 0.50399(14)
C32_2 C 0.0853(2) 0.5432(3) 0.50424(13)
H34_2 H 0.0554 0.5438 0.5192
C33_2 C 0.0873(3) 0.5855(3) 0.48179(14)
C34_2 C 0.1310(3) 0.4540(2) 0.52893(11)
C35_2 C 0.2795(2) 0.6977(3) 0.44528(13)
H35_2 H 0.3007 0.6841 0.4274
H36_2 H 0.3052 0.6943 0.4629
H37_2 H 0.2677 0.7390 0.4426
Cd1_2 Cd 0.370555(18) 0.868445(18) 0.425087(9)
Cd2_2 Cd 0.2500 0.86785(2) 0.3750
O1_2 O 0.42101(19) 0.91623(19) 0.38055(9)
O2_2 O 0.32420(18) 0.93605(16) 0.38879(9)
O7_2 O 0.17727(18) 0.79957(17) 0.35943(9)
O8_2 O 0.08214(18) 0.78551(18) 0.35109(9)
O9_2 O 0.17230(18) 0.41219(19) 0.52906(9)
O10_2 O 0.09070(19) 0.44920(17) 0.54818(8)
O11_2 O 0.22885(18) 0.66273(19) 0.44955(10)
O12_2 O 0.04154(15) 0.63173(18) 0.48086(8)
C37_2 C 0.1313(3) 0.9437(3) 0.37665(12)
C38_2 C 0.5563(3) 0.8687(3) 0.12665(12)
C40_2 C 0.1292(3) 0.9798(3) 0.40532(12)
C41_2 C 0.5202(3) 0.8708(3) 0.15532(12)
C43_2 C 0.0781(3) 0.9851(3) 0.42352(13)
C44_2 C 0.5149(3) 0.9219(3) 0.17352(13)
H41_2 H 0.0437 0.9628 0.4189
H42_2 H 0.5372 0.9563 0.1689
C47_2 C 0.4763(2) 0.9217(3) 0.19859(13)
C48_2 C 0.0237(2) 0.9217(3) 0.55141(13)
H45_2 H 0.4727 0.9559 0.2108
H46_2 H 0.0273 0.9559 0.5392
C50_2 C 0.4430(2) 0.8703(2) 0.20547(14)
C51_2 C 0.0570(2) 0.8703(2) 0.54453(14)
C53_2 C 0.4484(3) 0.8192(3) 0.18727(12)
C54_2 C 0.0516(3) 0.8192(3) 0.56273(12)
C56_2 C 0.4870(2) 0.8194(3) 0.16220(13)
C57_2 C 0.0130(2) 0.8194(3) 0.58780(13)
H48_2 H 0.4905 0.7852 0.1500
H49_2 H 0.0095 0.7852 0.6000
C59_2 C 0.3975(2) 0.8721(3) 0.23099(13)
C60_2 C 0.1025(2) 0.8721(3) 0.51901(13)
C62_2 C 0.3415(3) 0.8977(3) 0.22619(14)
C63_2 C 0.1585(3) 0.8977(3) 0.52381(14)
H51_2 H 0.3317 0.9147 0.2074
H52_2 H 0.1683 0.9147 0.5426
C65_2 C 0.2996(3) 0.8976(3) 0.25041(13)
C66_2 C 0.2004(3) 0.8976(3) 0.49959(13)
H54_2 H 0.2615 0.9139 0.2473
H55_2 H 0.2385 0.9139 0.5027
C68_2 C 0.3140(2) 0.8738(3) 0.27866(12)
C69_2 C 0.1860(2) 0.8738(3) 0.47134(12)
C71_2 C 0.3691(3) 0.8481(3) 0.28264(15)
C72_2 C 0.1309(3) 0.8481(3) 0.46736(15)
H57_2 H 0.3786 0.8314 0.3016
H58_2 H 0.1214 0.8314 0.4484
C74_2 C 0.4119(3) 0.8458(3) 0.25921(14)
C75_2 C 0.0881(3) 0.8458(3) 0.49079(14)
C77_2 C 0.2687(3) 0.8692(3) 0.30358(12)
C78_2 C 0.2313(3) 0.8692(3) 0.44642(12)
C80_2 C 0.4472(3) 0.7057(3) 0.18989(13)
C81_2 C 0.0528(3) 0.7057(3) 0.56011(13)
H60_2 H 0.4451 0.6780 0.2068
H61_2 H 0.0549 0.6780 0.5432
H63_2 H 0.4245 0.6901 0.1730
H64_2 H 0.0755 0.6901 0.5770
H66_2 H 0.4886 0.7107 0.1839
H67_2 H 0.0114 0.7107 0.5661
C83_2 C 0.4644(3) 0.7744(3) 0.29110(17)
C84_2 C 0.0356(3) 0.7744(3) 0.45890(17)
H69_2 H 0.4606 0.7968 0.3098
H70_2 H 0.0394 0.7968 0.4402
H72_2 H 0.4314 0.7466 0.2893
H73_2 H 0.0686 0.7466 0.4607
H74_2 H 0.2475 0.9982 0.5413
H75_2 H 0.5018 0.7525 0.2913
C85_2 C 0.3687(3) 0.7720(3) 0.38570(13)
C86_2 C 0.7720(3) 0.8687(3) 0.63570(13)
C87_2 C 0.7280(3) 0.6313(3) 0.13570(13)
C88_2 C 0.3732(3) 0.7254(2) 0.36079(12)
C89_2 C 0.7254(2) 0.8732(3) 0.61079(12)
C90_2 C 0.7746(2) 0.6268(3) 0.11079(12)
C91_2 C 0.3187(2) 0.7164(2) 0.34291(11)
C92_2 C 0.7164(2) 0.8187(2) 0.59291(11)
C93_2 C 0.7836(2) 0.6813(2) 0.09291(11)
H77_2 H 0.2829 0.7368 0.3470
H78_2 H 0.7368 0.7829 0.5970
H79_2 H 0.7632 0.7171 0.0970
C94_2 C 0.3240(3) 0.6751(3) 0.31942(11)
C95_2 C 0.6751(3) 0.8240(3) 0.56942(11)
C96_2 C 0.8249(3) 0.6760(3) 0.06942(11)
C97_2 C 0.3698(3) 0.6390(2) 0.31405(10)
C98_2 C 0.6390(2) 0.8698(3) 0.56405(10)
C99_2 C 0.8610(2) 0.6302(3) 0.06405(10)
C100_2 C 0.4204(3) 0.6455(3) 0.33367(12)
C101_2 C 0.6455(3) 0.9204(3) 0.58367(12)
C102_2 C 0.8545(3) 0.5796(3) 0.08367(12)
H80_2 H 0.4528 0.6192 0.3318
H81_2 H 0.6192 0.9528 0.5818
H82_2 H 0.8808 0.5472 0.0818
C103_2 C 0.4220(3) 0.6925(2) 0.35664(14)
C104_2 C 0.6925(2) 0.9220(3) 0.60664(14)
C105_2 C 0.8075(2) 0.5780(3) 0.10664(14)
H83_2 H 0.4566 0.6993 0.3682
H84_2 H 0.6993 0.9566 0.6182
H85_2 H 0.8007 0.5434 0.1182
C106_2 C 0.3703(3) 0.5904(3) 0.29024(12)
C107_2 C 0.5904(3) 0.8703(3) 0.54024(12)
C108_2 C 0.9096(3) 0.6297(3) 0.04024(12)
C109_2 C 0.3271(3) 0.5453(2) 0.29024(12)
C110_2 C 0.5453(2) 0.8271(3) 0.54024(12)
C111_2 C 0.9547(2) 0.6729(3) 0.04024(12)
H86_2 H 0.2985 0.5454 0.3058
H87_2 H 0.5454 0.7985 0.5558
H88_2 H 0.9546 0.7015 0.0558
C112_2 C 0.3238(3) 0.4996(3) 0.26810(13)
C113_2 C 0.4996(3) 0.8238(3) 0.51810(13)
H89_2 H 0.2928 0.4714 0.2681
H90_2 H 0.4714 0.7928 0.5181
C115_2 C 0.3694(3) 0.4984(2) 0.24601(14)
C116_2 C 0.4984(2) 0.8694(3) 0.49601(14)
C118_2 C 0.4147(2) 0.5432(3) 0.24576(13)
C119_2 C 0.5432(3) 0.9147(2) 0.49576(13)
H92_2 H 0.4446 0.5438 0.2308
H93_2 H 0.5438 0.9446 0.4808
C121_2 C 0.4127(3) 0.5855(3) 0.26821(14)
C122_2 C 0.5855(3) 0.9127(3) 0.51821(14)
C123_2 C 0.9145(3) 0.5873(3) 0.01821(14)
C124_2 C 0.3690(3) 0.4540(2) 0.22107(11)
C125_2 C 0.4540(2) 0.8690(3) 0.47107(11)
C127_2 C 0.2205(2) 0.6977(3) 0.30472(13)
C128_2 C 0.6977(3) 0.7205(2) 0.55472(13)
C129_2 C 0.8023(3) 0.7795(2) 0.05472(13)
H95_2 H 0.1993 0.6841 0.3226
H96_2 H 0.6841 0.6993 0.5726
H97_2 H 0.8159 0.8007 0.0726
H98_2 H 0.1948 0.6943 0.2871
H99_2 H 0.6943 0.6948 0.5371
H100_2 H 0.8057 0.8052 0.0371
H101_2 H 0.2323 0.7390 0.3074
H102_2 H 0.7390 0.7323 0.5574
H103_2 H 0.7610 0.7677 0.0574
C130_2 C 0.5204(3) 0.6275(3) 0.25259(14)
C132_2 C 0.8725(3) 0.4796(3) 0.00259(14)
H104_2 H 0.5494 0.6091 0.2660
H106_2 H 0.8909 0.4506 0.0160
H107_2 H 0.5339 0.6673 0.2472
H110_2 H 0.5163 0.6037 0.2344
Cd3_2 Cd 0.129445(18) 0.868445(18) 0.324913(9)
Cd4_2 Cd 0.631555(18) 0.870555(18) 0.074913(9)
Cd10 Cd 0.868445(18) 0.870555(18) 0.675087(9)
O13_2 O 0.07899(19) 0.91623(19) 0.36945(9)
O14_2 O 0.58377(19) 0.92101(19) 0.11945(9)
O16_2 O 0.17580(18) 0.93605(16) 0.36121(9)
O17_2 O 0.56395(16) 0.82420(18) 0.11121(9)
O19_2 O 0.56395(16) 0.67580(18) 0.13879(9)
O21_2 O 0.21326(17) 0.88335(17) 0.29643(8)
O22_2 O 0.28674(17) 0.88335(17) 0.45357(8)
O23_2 O 0.61665(17) 0.78674(17) 0.04643(8)
O26_2 O 0.28541(16) 0.86320(15) 0.32881(7)
O27_2 O 0.21459(16) 0.86320(15) 0.42119(7)
O29_2 O 0.63680(15) 0.71459(16) 0.07881(7)
O31_2 O 0.42266(17) 0.76324(17) 0.19906(9)
O32_2 O 0.07734(17) 0.76324(17) 0.55094(9)
O34_2 O 0.46373(18) 0.81448(19) 0.26596(9)
O35_2 O 0.03627(18) 0.81448(19) 0.48404(9)
O36_2 O 0.32273(18) 0.79957(17) 0.39057(9)
O37 O 0.79957(17) 0.82273(18) 0.64057(9)
O38_2 O 0.70043(17) 0.67727(18) 0.14057(9)
O39_2 O 0.70043(17) 0.82273(18) 0.10943(9)
O41_2 O 0.41786(18) 0.78551(18) 0.39891(9)
O42 O 0.78551(18) 0.91786(18) 0.64891(9)
O43_2 O 0.71449(18) 0.58214(18) 0.14891(9)
O44_2 O 0.71449(18) 0.91786(18) 0.10109(9)
O46_2 O 0.32770(18) 0.41219(19) 0.22094(9)
O47_2 O 0.41219(19) 0.82770(18) 0.47094(9)
O49_2 O 0.08781(19) 0.82770(18) 0.27906(9)
O50_2 O 0.67230(18) 0.91219(19) 0.02906(9)
O52_2 O 0.40930(19) 0.44920(17) 0.20182(8)
O53_2 O 0.44920(17) 0.90930(19) 0.45182(8)
O55_2 O 0.05080(17) 0.90930(19) 0.29818(8)
O56_2 O 0.59070(19) 0.94920(17) 0.04818(8)
O58_2 O 0.27115(18) 0.66273(19) 0.30045(10)
O59_2 O 0.66273(19) 0.77115(18) 0.55045(10)
O60_2 O 0.83727(19) 0.72885(18) 0.05045(10)
O61_2 O 0.45846(15) 0.63173(18) 0.26914(8)
O62_2 O 0.63173(18) 0.95846(15) 0.51914(8)
O63_2 O 0.86827(18) 0.54154(15) 0.01914(8)
C120_2 C 0.9568(3) 0.5853(2) 0.99576(13)
H94_2 H 0.9562 0.5554 0.9808
H109_2 H 0.8327 0.4661 0.9972
H112_2 H 0.8963 0.4837 0.9844
C36_2 C 0.9796(3) 0.6275(3) 0.49741(14)
H38_2 H 0.9506 0.6091 0.4840
H39_2 H 0.9661 0.6673 0.5028
H40_2 H 0.9837 0.6037 0.5156
C39_2 C 0.9437(3) 0.8687(3) 0.62335(12)
C42_2 C 0.9798(3) 0.8708(3) 0.59468(12)
C45_2 C 0.9851(3) 0.9219(3) 0.57648(13)
H43_2 H 0.9628 0.9563 0.5811
H76_2 H 0.9982 0.7525 0.4587
O15_2 O 0.91623(19) 0.92101(19) 0.63055(9)
O18_2 O 0.93605(16) 0.82420(18) 0.63879(9)
O24_2 O 0.88335(17) 0.78674(17) 0.70357(8)
O51_2 O 0.82770(18) 0.91219(19) 0.72094(9)
O57_2 O 0.90930(19) 0.94920(17) 0.70182(8)
C117_3 C 0.3694(3) 0.0016(2) 0.00399(14)
C126_3 C 0.3690(3) 0.0460(2) 0.02893(11)
C114_3 C 0.3238(3) 0.0004(3) 0.98190(13)
H91_3 H 0.2928 0.0286 0.9819
C120_3 C 0.4147(2) 0.9568(3) 0.00424(13)
H94_3 H 0.4446 0.9562 0.0192
H109_3 H 0.5339 0.8327 0.0028
H112_3 H 0.5163 0.8963 0.0156
C5_3 C 0.0563(3) 0.3687(3) 0.62665(12)
C6_3 C 0.0202(3) 0.3708(3) 0.65532(12)
C7_3 C 0.0149(3) 0.4219(3) 0.67352(13)
H17_3 H 0.0372 0.4563 0.6689
H28_3 H 0.0018 0.2525 0.7913
O1_3 O 0.08377(19) 0.42101(19) 0.61945(9)
O2_3 O 0.06395(16) 0.32420(18) 0.61121(9)
C38_3 C 0.1313(3) 0.5563(3) 0.87335(12)
C41_3 C 0.1292(3) 0.5202(3) 0.84468(12)
C44_3 C 0.0781(3) 0.5149(3) 0.82648(13)
H42_3 H 0.0437 0.5372 0.8311
C47_3 C 0.0783(3) 0.4763(2) 0.80141(13)
H45_3 H 0.0441 0.4727 0.7892
C50_3 C 0.1297(2) 0.4430(2) 0.79453(14)
C53_3 C 0.1808(3) 0.4484(3) 0.81273(12)
C56_3 C 0.1806(3) 0.4870(2) 0.83780(13)
H48_3 H 0.2148 0.4905 0.8500
C59_3 C 0.1279(3) 0.3975(2) 0.76901(13)
C62_3 C 0.1023(3) 0.3415(3) 0.77381(14)
H51_3 H 0.0853 0.3317 0.7926
C65_3 C 0.1024(3) 0.2996(3) 0.74959(13)
H54_3 H 0.0861 0.2615 0.7527
C68_3 C 0.1262(3) 0.3140(2) 0.72134(12)
C71_3 C 0.1519(3) 0.3691(3) 0.71736(15)
H57_3 H 0.1686 0.3786 0.6984
C74_3 C 0.1542(3) 0.4119(3) 0.74079(14)
C77_3 C 0.1308(3) 0.2687(3) 0.69642(12)
C80_3 C 0.2943(3) 0.4472(3) 0.81011(13)
H60_3 H 0.3220 0.4451 0.7932
H63_3 H 0.3099 0.4245 0.8270
H66_3 H 0.2893 0.4886 0.8161
C83_3 C 0.2256(3) 0.4644(3) 0.70890(17)
H69_3 H 0.2032 0.4606 0.6902
H72_3 H 0.2534 0.4314 0.7107
H75_3 H 0.2475 0.5018 0.7087
C85_3 C 0.2280(3) 0.3687(3) 0.61430(13)
C87_3 C 0.3687(3) 0.7280(3) 0.86430(13)
C88_3 C 0.2746(2) 0.3732(3) 0.63921(12)
C90_3 C 0.3732(3) 0.7746(2) 0.88921(12)
C91_3 C 0.2836(2) 0.3187(2) 0.65709(11)
C93_3 C 0.3187(2) 0.7836(2) 0.90709(11)
H77_3 H 0.2632 0.2829 0.6530
H79_3 H 0.2829 0.7632 0.9030
C94_3 C 0.3249(3) 0.3240(3) 0.68058(11)
C96_3 C 0.3240(3) 0.8249(3) 0.93058(11)
C97_3 C 0.3610(2) 0.3698(3) 0.68595(10)
C99_3 C 0.3698(3) 0.8610(2) 0.93595(10)
C100_3 C 0.3545(3) 0.4204(3) 0.66633(12)
C102_3 C 0.4204(3) 0.8545(3) 0.91633(12)
H80_3 H 0.3808 0.4528 0.6682
H82_3 H 0.4528 0.8808 0.9182
C103_3 C 0.3075(2) 0.4220(3) 0.64336(14)
C105_3 C 0.4220(3) 0.8075(2) 0.89336(14)
H83_3 H 0.3007 0.4566 0.6318
H85_3 H 0.4566 0.8007 0.8818
C106_3 C 0.4096(3) 0.3703(3) 0.70976(12)
C108_3 C 0.3703(3) 0.9096(3) 0.95976(12)
C109_3 C 0.4547(2) 0.3271(3) 0.70976(12)
C111_3 C 0.3271(3) 0.9547(2) 0.95976(12)
H86_3 H 0.4546 0.2985 0.6942
H88_3 H 0.2985 0.9546 0.9442
C112_3 C 0.5004(3) 0.3238(3) 0.73190(13)
H89_3 H 0.5286 0.2928 0.7319
C115_3 C 0.5016(2) 0.3694(3) 0.75399(14)
C118_3 C 0.4568(3) 0.4147(2) 0.75424(13)
H92_3 H 0.4562 0.4446 0.7692
C121_3 C 0.4145(3) 0.4127(3) 0.73179(14)
C123_3 C 0.4127(3) 0.9145(3) 0.98179(14)
C124_3 C 0.5460(2) 0.3690(3) 0.77893(11)
C127_3 C 0.3023(3) 0.2205(2) 0.69528(13)
C129_3 C 0.2205(2) 0.8023(3) 0.94528(13)
H95_3 H 0.3159 0.1993 0.6774
H97_3 H 0.1993 0.8159 0.9274
H98_3 H 0.3057 0.1948 0.7129
H100_3 H 0.1948 0.8057 0.9629
H101_3 H 0.2610 0.2323 0.6926
H103_3 H 0.2323 0.7610 0.9426
C130_3 C 0.3725(3) 0.5204(3) 0.74741(14)
C132_3 C 0.5204(3) 0.8725(3) 0.99741(14)
H104_3 H 0.3909 0.5494 0.7340
H106_3 H 0.5494 0.8909 0.9840
H107_3 H 0.3327 0.5339 0.7528
H110_3 H 0.3963 0.5163 0.7656
Cd9_2 Cd 0.629445(18) 0.368445(18) 0.824913(9)
Cd11_2 Cd 0.370555(18) 0.631555(18) 0.824913(9)
Cd13_2 Cd 0.2500 0.63215(2) 0.8750
O14_3 O 0.07899(19) 0.58377(19) 0.88055(9)
O17_3 O 0.17580(18) 0.56395(16) 0.88879(9)
O19_3 O 0.32420(18) 0.56395(16) 0.86121(9)
O23_3 O 0.21326(17) 0.61665(17) 0.95357(8)
O26_3 O 0.13680(15) 0.28541(16) 0.67119(7)
O28_2 O 0.21459(16) 0.63680(15) 0.82881(7)
O29_3 O 0.28541(16) 0.63680(15) 0.92119(7)
O31_3 O 0.23676(17) 0.42266(17) 0.80094(9)
O34_3 O 0.18552(19) 0.46373(18) 0.73404(9)
O36_3 O 0.20043(17) 0.32273(18) 0.60943(9)
O38_3 O 0.32273(18) 0.70043(17) 0.85943(9)
O39_3 O 0.17727(18) 0.70043(17) 0.89057(9)
O41_3 O 0.21449(18) 0.41786(18) 0.60109(9)
O43_3 O 0.41786(18) 0.71449(18) 0.85109(9)
O44_3 O 0.08214(18) 0.71449(18) 0.89891(9)
O46_3 O 0.58781(19) 0.32770(18) 0.77906(9)
O52_3 O 0.55080(17) 0.40930(19) 0.79818(8)
O58_3 O 0.33727(19) 0.27115(18) 0.69955(10)
O60_3 O 0.27115(18) 0.83727(19) 0.94955(10)
O61_3 O 0.36827(18) 0.45846(15) 0.73086(8)
O63_3 O 0.45846(15) 0.86827(18) 0.98086(8)
C8_3 C 0.9763(2) 0.4217(3) 0.69859(13)
H18_3 H 0.9727 0.4559 0.7108
C9_3 C 0.9430(2) 0.3703(2) 0.70547(14)
C10_3 C 0.9484(3) 0.3192(3) 0.68727(12)
C11_3 C 0.9870(2) 0.3194(3) 0.66220(13)
H19_3 H 0.9905 0.2852 0.6500
C12_3 C 0.8975(2) 0.3721(3) 0.73099(13)
C13_3 C 0.8415(3) 0.3977(3) 0.72619(14)
H20_3 H 0.8317 0.4147 0.7074
C14_3 C 0.7996(3) 0.3976(3) 0.75041(13)
H21_3 H 0.7615 0.4139 0.7473
C15_3 C 0.8140(2) 0.3738(3) 0.77866(12)
C16_3 C 0.8691(3) 0.3481(3) 0.78264(15)
H22_3 H 0.8786 0.3314 0.8016
C17_3 C 0.9119(3) 0.3458(3) 0.75921(14)
C18_3 C 0.7687(3) 0.3692(3) 0.80358(12)
C19_3 C 0.9472(3) 0.2057(3) 0.68989(13)
H23_3 H 0.9451 0.1780 0.7068
H24_3 H 0.9245 0.1901 0.6730
H25_3 H 0.9886 0.2107 0.6839
C20_3 C 0.9644(3) 0.2744(3) 0.79110(17)
H26_3 H 0.9606 0.2968 0.8098
H27_3 H 0.9314 0.2466 0.7893
O3_3 O 0.71326(17) 0.38335(17) 0.79643(8)
O4_2 O 0.78541(16) 0.36320(15) 0.82881(7)
O5_3 O 0.92266(17) 0.26324(17) 0.69906(9)
O6_3 O 0.96373(18) 0.31448(19) 0.76596(9)
Cd14_2 Cd 0.7500 0.36785(2) 0.8750
C8_4 C 0.0237(2) 0.5783(3) 0.69859(13)
H18_4 H 0.0273 0.5441 0.7108
C9_4 C 0.0570(2) 0.6297(2) 0.70547(14)
C10_4 C 0.0516(3) 0.6808(3) 0.68727(12)
C11_4 C 0.0130(2) 0.6806(3) 0.66220(13)
H19_4 H 0.0095 0.7148 0.6500
C12_4 C 0.1025(2) 0.6279(3) 0.73099(13)
C13_4 C 0.1585(3) 0.6023(3) 0.72619(14)
H20_4 H 0.1683 0.5853 0.7074
C14_4 C 0.2004(3) 0.6024(3) 0.75041(13)
H21_4 H 0.2385 0.5861 0.7473
C15_4 C 0.1860(2) 0.6262(3) 0.77866(12)
C16_4 C 0.1309(3) 0.6519(3) 0.78264(15)
H22_4 H 0.1214 0.6686 0.8016
C17_4 C 0.0881(3) 0.6542(3) 0.75921(14)
C18_4 C 0.2313(3) 0.6308(3) 0.80358(12)
C19_4 C 0.0528(3) 0.7943(3) 0.68989(13)
H23_4 H 0.0549 0.8220 0.7068
H24_4 H 0.0755 0.8099 0.6730
H25_4 H 0.0114 0.7893 0.6839
C20_4 C 0.0356(3) 0.7256(3) 0.79110(17)
H26_4 H 0.0394 0.7032 0.8098
H27_4 H 0.0686 0.7534 0.7893
O3_4 O 0.28674(17) 0.61665(17) 0.79643(8)
O5_4 O 0.07734(17) 0.73676(17) 0.69906(9)
O6_4 O 0.03627(18) 0.68552(19) 0.76596(9)
C120_4 C 0.5853(2) 0.0432(3) 0.00424(13)
H94_4 H 0.5554 0.0438 0.0192
H109_4 H 0.4661 0.1673 0.0028
H112_4 H 0.4837 0.1037 0.0156
C5_4 C 0.9437(3) 0.6313(3) 0.62665(12)
C6_4 C 0.9798(3) 0.6292(3) 0.65532(12)
C7_4 C 0.9851(3) 0.5781(3) 0.67352(13)
H17_4 H 0.9628 0.5437 0.6689
H28_4 H 0.9982 0.7475 0.7913
O1_4 O 0.91623(19) 0.57899(19) 0.61945(9)
O2_4 O 0.93605(16) 0.67580(18) 0.61121(9)
C38_4 C 0.8687(3) 0.4437(3) 0.87335(12)
C41_4 C 0.8708(3) 0.4798(3) 0.84468(12)
C44_4 C 0.9219(3) 0.4851(3) 0.82648(13)
H42_4 H 0.9563 0.4628 0.8311
C47_4 C 0.9217(3) 0.5237(2) 0.80141(13)
H45_4 H 0.9559 0.5273 0.7892
C50_4 C 0.8703(2) 0.5570(2) 0.79453(14)
C53_4 C 0.8192(3) 0.5516(3) 0.81273(12)
C56_4 C 0.8194(3) 0.5130(2) 0.83780(13)
H48_4 H 0.7852 0.5095 0.8500
C59_4 C 0.8721(3) 0.6025(2) 0.76901(13)
C62_4 C 0.8977(3) 0.6585(3) 0.77381(14)
H51_4 H 0.9147 0.6683 0.7926
C65_4 C 0.8976(3) 0.7004(3) 0.74959(13)
H54_4 H 0.9139 0.7385 0.7527
C68_4 C 0.8738(3) 0.6860(2) 0.72134(12)
C71_4 C 0.8481(3) 0.6309(3) 0.71736(15)
H57_4 H 0.8314 0.6214 0.6984
C74_4 C 0.8458(3) 0.5881(3) 0.74079(14)
C77_4 C 0.8692(3) 0.7313(3) 0.69642(12)
C80_4 C 0.7057(3) 0.5528(3) 0.81011(13)
H60_4 H 0.6780 0.5549 0.7932
H63_4 H 0.6901 0.5755 0.8270
H66_4 H 0.7107 0.5114 0.8161
C83_4 C 0.7744(3) 0.5356(3) 0.70890(17)
H69_4 H 0.7968 0.5394 0.6902
H72_4 H 0.7466 0.5686 0.7107
H75_4 H 0.7525 0.4982 0.7087
C85_4 C 0.7720(3) 0.6313(3) 0.61430(13)
C87_4 C 0.6313(3) 0.2720(3) 0.86430(13)
C88_4 C 0.7254(2) 0.6268(3) 0.63921(12)
C90_4 C 0.6268(3) 0.2254(2) 0.88921(12)
C91_4 C 0.7164(2) 0.6813(2) 0.65709(11)
C93_4 C 0.6813(2) 0.2164(2) 0.90709(11)
H77_4 H 0.7368 0.7171 0.6530
H79_4 H 0.7171 0.2368 0.9030
C94_4 C 0.6751(3) 0.6760(3) 0.68058(11)
C96_4 C 0.6760(3) 0.1751(3) 0.93058(11)
C97_4 C 0.6390(2) 0.6302(3) 0.68595(10)
C99_4 C 0.6302(3) 0.1390(2) 0.93595(10)
C100_4 C 0.6455(3) 0.5796(3) 0.66633(12)
C102_4 C 0.5796(3) 0.1455(3) 0.91633(12)
H80_4 H 0.6192 0.5472 0.6682
H82_4 H 0.5472 0.1192 0.9182
C103_4 C 0.6925(2) 0.5780(3) 0.64336(14)
C105_4 C 0.5780(3) 0.1925(2) 0.89336(14)
H83_4 H 0.6993 0.5434 0.6318
H85_4 H 0.5434 0.1993 0.8818
C106_4 C 0.5904(3) 0.6297(3) 0.70976(12)
C108_4 C 0.6297(3) 0.0904(3) 0.95976(12)
C109_4 C 0.5453(2) 0.6729(3) 0.70976(12)
C111_4 C 0.6729(3) 0.0453(2) 0.95976(12)
H86_4 H 0.5454 0.7015 0.6942
H88_4 H 0.7015 0.0454 0.9442
C112_4 C 0.4996(3) 0.6762(3) 0.73190(13)
H89_4 H 0.4714 0.7072 0.7319
C115_4 C 0.4984(2) 0.6306(3) 0.75399(14)
C118_4 C 0.5432(3) 0.5853(2) 0.75424(13)
H92_4 H 0.5438 0.5554 0.7692
C121_4 C 0.5855(3) 0.5873(3) 0.73179(14)
C123_4 C 0.5873(3) 0.0855(3) 0.98179(14)
C124_4 C 0.4540(2) 0.6310(3) 0.77893(11)
C127_4 C 0.6977(3) 0.7795(2) 0.69528(13)
C129_4 C 0.7795(2) 0.1977(3) 0.94528(13)
H95_4 H 0.6841 0.8007 0.6774
H97_4 H 0.8007 0.1841 0.9274
H98_4 H 0.6943 0.8052 0.7129
H100_4 H 0.8052 0.1943 0.9629
H101_4 H 0.7390 0.7677 0.6926
H103_4 H 0.7677 0.2390 0.9426
C130_4 C 0.6275(3) 0.4796(3) 0.74741(14)
C132_4 C 0.4796(3) 0.1275(3) 0.99741(14)
H104_4 H 0.6091 0.4506 0.7340
H106_4 H 0.4506 0.1091 0.9840
H107_4 H 0.6673 0.4661 0.7528
H110_4 H 0.6037 0.4837 0.7656
O14_4 O 0.92101(19) 0.41623(19) 0.88055(9)
O17_4 O 0.82420(18) 0.43605(16) 0.88879(9)
O19_4 O 0.67580(18) 0.43605(16) 0.86121(9)
O23_4 O 0.78674(17) 0.38335(17) 0.95357(8)
O26_4 O 0.86320(15) 0.71459(16) 0.67119(7)
O29_4 O 0.71459(16) 0.36320(15) 0.92119(7)
O31_4 O 0.76324(17) 0.57734(17) 0.80094(9)
O34_4 O 0.81448(19) 0.53627(18) 0.73404(9)
O36_4 O 0.79957(17) 0.67727(18) 0.60943(9)
O38_4 O 0.67727(18) 0.29957(17) 0.85943(9)
O39_4 O 0.82273(18) 0.29957(17) 0.89057(9)
O41_4 O 0.78551(18) 0.58214(18) 0.60109(9)
O43_4 O 0.58214(18) 0.28551(18) 0.85109(9)
O44_4 O 0.91786(18) 0.28551(18) 0.89891(9)
O46_4 O 0.41219(19) 0.67230(18) 0.77906(9)
O52_4 O 0.44920(17) 0.59070(19) 0.79818(8)
O58_4 O 0.66273(19) 0.72885(18) 0.69955(10)
O60_4 O 0.72885(18) 0.16273(19) 0.94955(10)
O61_4 O 0.63173(18) 0.54154(15) 0.73086(8)
O63_4 O 0.54154(15) 0.13173(18) 0.98086(8)
C117_4 C 0.6306(3) 0.9984(2) 0.00399(14)
C126_4 C 0.6310(3) 0.9540(2) 0.02893(11)
C114_4 C 0.6762(3) 0.9996(3) 0.98190(13)
H91_4 H 0.7072 0.9714 0.9819
C86_3 C 0.2720(3) 0.1313(3) 0.11430(13)
C89_3 C 0.2254(2) 0.1268(3) 0.13921(12)
C92_3 C 0.2164(2) 0.1813(2) 0.15709(11)
H78_3 H 0.2368 0.2171 0.1530
C95_3 C 0.1751(3) 0.1760(3) 0.18058(11)
C98_3 C 0.1390(2) 0.1302(3) 0.18595(10)
C101_3 C 0.1455(3) 0.0796(3) 0.16633(12)
H81_3 H 0.1192 0.0472 0.1682
C104_3 C 0.1925(2) 0.0780(3) 0.14336(14)
H84_3 H 0.1993 0.0434 0.1318
C107_3 C 0.0904(3) 0.1297(3) 0.20976(12)
C110_3 C 0.0453(2) 0.1729(3) 0.20976(12)
H87_3 H 0.0454 0.2015 0.1942
C119_3 C 0.0432(3) 0.0853(2) 0.25424(13)
H93_3 H 0.0438 0.0554 0.2692
C122_3 C 0.0855(3) 0.0873(3) 0.23179(14)
C128_3 C 0.1977(3) 0.2795(2) 0.19528(13)
H96_3 H 0.1841 0.3007 0.1774
H99_3 H 0.1943 0.3052 0.2129
H102_3 H 0.2390 0.2677 0.1926
O59_3 O 0.16273(19) 0.22885(18) 0.19955(10)
O62_3 O 0.13173(18) 0.04154(15) 0.23086(8)
C131_3 C 0.1275(3) 0.9796(3) 0.24741(14)
H105_3 H 0.1091 0.9506 0.2340
H108_3 H 0.1673 0.9661 0.2528
H111_3 H 0.1037 0.9837 0.2656
C113_3 C 0.9996(3) 0.1762(3) 0.23190(13)
H90_3 H 0.9714 0.2072 0.2319
C116_3 C 0.9984(2) 0.1306(3) 0.25399(14)
C125_3 C 0.9540(2) 0.1310(3) 0.27893(11)
C113_4 C 0.0004(3) 0.8238(3) 0.23190(13)
H90_4 H 0.0286 0.7928 0.2319
C116_4 C 0.0016(2) 0.8694(3) 0.25399(14)
C125_4 C 0.0460(2) 0.8690(3) 0.27893(11)
C131_4 C 0.8725(3) 0.0204(3) 0.24741(14)
H105_4 H 0.8909 0.0494 0.2340
H108_4 H 0.8327 0.0339 0.2528
H111_4 H 0.8963 0.0163 0.2656
C86_4 C 0.7280(3) 0.8687(3) 0.11430(13)
C89_4 C 0.7746(2) 0.8732(3) 0.13921(12)
C92_4 C 0.7836(2) 0.8187(2) 0.15709(11)
H78_4 H 0.7632 0.7829 0.1530
C95_4 C 0.8249(3) 0.8240(3) 0.18058(11)
C98_4 C 0.8610(2) 0.8698(3) 0.18595(10)
C101_4 C 0.8545(3) 0.9204(3) 0.16633(12)
H81_4 H 0.8808 0.9528 0.1682
C104_4 C 0.8075(2) 0.9220(3) 0.14336(14)
H84_4 H 0.8007 0.9566 0.1318
C107_4 C 0.9096(3) 0.8703(3) 0.20976(12)
C110_4 C 0.9547(2) 0.8271(3) 0.20976(12)
H87_4 H 0.9546 0.7985 0.1942
C119_4 C 0.9568(3) 0.9147(2) 0.25424(13)
H93_4 H 0.9562 0.9446 0.2692
C122_4 C 0.9145(3) 0.9127(3) 0.23179(14)
C128_4 C 0.8023(3) 0.7205(2) 0.19528(13)
H96_4 H 0.8159 0.6993 0.1774
H99_4 H 0.8057 0.6948 0.2129
H102_4 H 0.7610 0.7323 0.1926
O59_4 O 0.83727(19) 0.77115(18) 0.19955(10)
O62_4 O 0.86827(18) 0.95846(15) 0.23086(8)
C114_5 C 0.1762(3) 0.0004(3) 0.76810(13)
H91_5 H 0.2072 0.0286 0.7681
C117_5 C 0.1306(3) 0.0016(2) 0.74601(14)
C126_5 C 0.1310(3) 0.0460(2) 0.72107(11)
C5_5 C 0.4437(3) 0.3687(3) 0.12335(12)
C6_5 C 0.4798(3) 0.3708(3) 0.09468(12)
C7_5 C 0.4851(3) 0.4219(3) 0.07648(13)
H17_5 H 0.4628 0.4563 0.0811
C8_5 C 0.5237(2) 0.4217(3) 0.05141(13)
H18_5 H 0.5273 0.4559 0.0392
C9_5 C 0.5570(2) 0.3703(2) 0.04453(14)
C10_5 C 0.5516(3) 0.3192(3) 0.06273(12)
C11_5 C 0.5130(2) 0.3194(3) 0.08780(13)
H19_5 H 0.5095 0.2852 0.1000
C12_5 C 0.6025(2) 0.3721(3) 0.01901(13)
C13_5 C 0.6585(3) 0.3977(3) 0.02381(14)
H20_5 H 0.6683 0.4147 0.0426
H21_5 H 0.7385 0.4139 0.0027
C19_5 C 0.5528(3) 0.2057(3) 0.06011(13)
H23_5 H 0.5549 0.1780 0.0432
H24_5 H 0.5755 0.1901 0.0770
H25_5 H 0.5114 0.2107 0.0661
O1_5 O 0.41623(19) 0.42101(19) 0.13055(9)
O5_5 O 0.57734(17) 0.26324(17) 0.05094(9)
C65_5 C 0.3976(3) 0.2996(3) 0.00041(13)
C68_5 C 0.3738(3) 0.3140(2) 0.02866(12)
C71_5 C 0.3481(3) 0.3691(3) 0.03264(15)
H57_5 H 0.3314 0.3786 0.0516
C74_5 C 0.3458(3) 0.4119(3) 0.00921(14)
C77_5 C 0.3692(3) 0.2687(3) 0.05358(12)
C83_5 C 0.2744(3) 0.4644(3) 0.04110(17)
H69_5 H 0.2968 0.4606 0.0598
H72_5 H 0.2466 0.4314 0.0393
H75_5 H 0.2525 0.5018 0.0413
O34_5 O 0.31448(19) 0.46373(18) 0.01596(9)
C14_5 C 0.7004(3) 0.3976(3) 0.99959(13)
C15_5 C 0.6860(2) 0.3738(3) 0.97134(12)
C16_5 C 0.6309(3) 0.3481(3) 0.96736(15)
H22_5 H 0.6214 0.3314 0.9484
C17_5 C 0.5881(3) 0.3458(3) 0.99079(14)
C18_5 C 0.7313(3) 0.3692(3) 0.94642(12)
C20_5 C 0.5356(3) 0.2744(3) 0.95890(17)
H26_5 H 0.5394 0.2968 0.9402
H27_5 H 0.5686 0.2466 0.9607
H28_5 H 0.4982 0.2525 0.9587
O6_5 O 0.53627(18) 0.31448(19) 0.98404(9)
C38_5 C 0.3687(3) 0.5563(3) 0.87665(12)
C41_5 C 0.3708(3) 0.5202(3) 0.90532(12)
C44_5 C 0.4219(3) 0.5149(3) 0.92352(13)
H42_5 H 0.4563 0.5372 0.9189
C47_5 C 0.4217(3) 0.4763(2) 0.94859(13)
H45_5 H 0.4559 0.4727 0.9608
C50_5 C 0.3703(2) 0.4430(2) 0.95547(14)
C53_5 C 0.3192(3) 0.4484(3) 0.93727(12)
C56_5 C 0.3194(3) 0.4870(2) 0.91220(13)
H48_5 H 0.2852 0.4905 0.9000
C59_5 C 0.3721(3) 0.3975(2) 0.98099(13)
C62_5 C 0.3977(3) 0.3415(3) 0.97619(14)
H51_5 H 0.4147 0.3317 0.9574
H54_5 H 0.4139 0.2615 0.9973
C80_5 C 0.2057(3) 0.4472(3) 0.93989(13)
H60_5 H 0.1780 0.4451 0.9568
H63_5 H 0.1901 0.4245 0.9230
H66_5 H 0.2107 0.4886 0.9339
C87_5 C 0.1313(3) 0.7280(3) 0.88570(13)
C90_5 C 0.1268(3) 0.7746(2) 0.86079(12)
C93_5 C 0.1813(2) 0.7836(2) 0.84291(11)
H79_5 H 0.2171 0.7632 0.8470
C96_5 C 0.1760(3) 0.8249(3) 0.81942(11)
C99_5 C 0.1302(3) 0.8610(2) 0.81405(10)
C102_5 C 0.0796(3) 0.8545(3) 0.83367(12)
H82_5 H 0.0472 0.8808 0.8318
C105_5 C 0.0780(3) 0.8075(2) 0.85664(14)
H85_5 H 0.0434 0.8007 0.8682
C108_5 C 0.1297(3) 0.9096(3) 0.79024(12)
C111_5 C 0.1729(3) 0.9547(2) 0.79024(12)
H88_5 H 0.2015 0.9546 0.8058
C120_5 C 0.0853(2) 0.9568(3) 0.74576(13)
H94_5 H 0.0554 0.9562 0.7308
C123_5 C 0.0873(3) 0.9145(3) 0.76821(14)
C129_5 C 0.2795(2) 0.8023(3) 0.80472(13)
H97_5 H 0.3007 0.8159 0.8226
H100_5 H 0.3052 0.8057 0.7871
H103_5 H 0.2677 0.7610 0.8074
O14_5 O 0.42101(19) 0.58377(19) 0.86945(9)
O31_5 O 0.26324(17) 0.42266(17) 0.94906(9)
O60_5 O 0.22885(18) 0.83727(19) 0.80045(10)
O63_5 O 0.04154(15) 0.86827(18) 0.76914(8)
C132_5 C 0.9796(3) 0.8725(3) 0.75259(14)
H106_5 H 0.9506 0.8909 0.7660
H109_5 H 0.9661 0.8327 0.7472
H112_5 H 0.9837 0.8963 0.7344
C132_6 C 0.0204(3) 0.1275(3) 0.75259(14)
H106_6 H 0.0494 0.1091 0.7660
H109_6 H 0.0339 0.1673 0.7472
H112_6 H 0.0163 0.1037 0.7344
C5_6 C 0.5563(3) 0.6313(3) 0.12335(12)
C6_6 C 0.5202(3) 0.6292(3) 0.09468(12)
C7_6 C 0.5149(3) 0.5781(3) 0.07648(13)
H17_6 H 0.5372 0.5437 0.0811
C8_6 C 0.4763(2) 0.5783(3) 0.05141(13)
H18_6 H 0.4727 0.5441 0.0392
C9_6 C 0.4430(2) 0.6297(2) 0.04453(14)
C10_6 C 0.4484(3) 0.6808(3) 0.06273(12)
C11_6 C 0.4870(2) 0.6806(3) 0.08780(13)
H19_6 H 0.4905 0.7148 0.1000
C12_6 C 0.3975(2) 0.6279(3) 0.01901(13)
C13_6 C 0.3415(3) 0.6023(3) 0.02381(14)
H20_6 H 0.3317 0.5853 0.0426
H21_6 H 0.2615 0.5861 0.0027
C19_6 C 0.4472(3) 0.7943(3) 0.06011(13)
H23_6 H 0.4451 0.8220 0.0432
H24_6 H 0.4245 0.8099 0.0770
H25_6 H 0.4886 0.7893 0.0661
O1_6 O 0.58377(19) 0.57899(19) 0.13055(9)
O5_6 O 0.42266(17) 0.73676(17) 0.05094(9)
C65_6 C 0.6024(3) 0.7004(3) 0.00041(13)
C68_6 C 0.6262(3) 0.6860(2) 0.02866(12)
C71_6 C 0.6519(3) 0.6309(3) 0.03264(15)
H57_6 H 0.6686 0.6214 0.0516
C74_6 C 0.6542(3) 0.5881(3) 0.00921(14)
C77_6 C 0.6308(3) 0.7313(3) 0.05358(12)
C83_6 C 0.7256(3) 0.5356(3) 0.04110(17)
H69_6 H 0.7032 0.5394 0.0598
H72_6 H 0.7534 0.5686 0.0393
H75_6 H 0.7475 0.4982 0.0413
O34_6 O 0.68552(19) 0.53627(18) 0.01596(9)
C14_6 C 0.2996(3) 0.6024(3) 0.99959(13)
C15_6 C 0.3140(2) 0.6262(3) 0.97134(12)
C16_6 C 0.3691(3) 0.6519(3) 0.96736(15)
H22_6 H 0.3786 0.6686 0.9484
C17_6 C 0.4119(3) 0.6542(3) 0.99079(14)
C18_6 C 0.2687(3) 0.6308(3) 0.94642(12)
C20_6 C 0.4644(3) 0.7256(3) 0.95890(17)
H26_6 H 0.4606 0.7032 0.9402
H27_6 H 0.4314 0.7534 0.9607
H28_6 H 0.5018 0.7475 0.9587
O6_6 O 0.46373(18) 0.68552(19) 0.98404(9)
C38_6 C 0.6313(3) 0.4437(3) 0.87665(12)
C41_6 C 0.6292(3) 0.4798(3) 0.90532(12)
C44_6 C 0.5781(3) 0.4851(3) 0.92352(13)
H42_6 H 0.5437 0.4628 0.9189
C47_6 C 0.5783(3) 0.5237(2) 0.94859(13)
H45_6 H 0.5441 0.5273 0.9608
C50_6 C 0.6297(2) 0.5570(2) 0.95547(14)
C53_6 C 0.6808(3) 0.5516(3) 0.93727(12)
C56_6 C 0.6806(3) 0.5130(2) 0.91220(13)
H48_6 H 0.7148 0.5095 0.9000
C59_6 C 0.6279(3) 0.6025(2) 0.98099(13)
C62_6 C 0.6023(3) 0.6585(3) 0.97619(14)
H51_6 H 0.5853 0.6683 0.9574
H54_6 H 0.5861 0.7385 0.9973
C80_6 C 0.7943(3) 0.5528(3) 0.93989(13)
H60_6 H 0.8220 0.5549 0.9568
H63_6 H 0.8099 0.5755 0.9230
H66_6 H 0.7893 0.5114 0.9339
C87_6 C 0.8687(3) 0.2720(3) 0.88570(13)
C90_6 C 0.8732(3) 0.2254(2) 0.86079(12)
C93_6 C 0.8187(2) 0.2164(2) 0.84291(11)
H79_6 H 0.7829 0.2368 0.8470
C96_6 C 0.8240(3) 0.1751(3) 0.81942(11)
C99_6 C 0.8698(3) 0.1390(2) 0.81405(10)
C102_6 C 0.9204(3) 0.1455(3) 0.83367(12)
H82_6 H 0.9528 0.1192 0.8318
C105_6 C 0.9220(3) 0.1925(2) 0.85664(14)
H85_6 H 0.9566 0.1993 0.8682
C108_6 C 0.8703(3) 0.0904(3) 0.79024(12)
C111_6 C 0.8271(3) 0.0453(2) 0.79024(12)
H88_6 H 0.7985 0.0454 0.8058
C120_6 C 0.9147(2) 0.0432(3) 0.74576(13)
H94_6 H 0.9446 0.0438 0.7308
C123_6 C 0.9127(3) 0.0855(3) 0.76821(14)
C129_6 C 0.7205(2) 0.1977(3) 0.80472(13)
H97_6 H 0.6993 0.1841 0.8226
H100_6 H 0.6948 0.1943 0.7871
H103_6 H 0.7323 0.2390 0.8074
O14_6 O 0.57899(19) 0.41623(19) 0.86945(9)
O31_6 O 0.73676(17) 0.57734(17) 0.94906(9)
O60_6 O 0.77115(18) 0.16273(19) 0.80045(10)
O63_6 O 0.95846(15) 0.13173(18) 0.76914(8)
C114_6 C 0.8238(3) 0.9996(3) 0.76810(13)
H91_6 H 0.7928 0.9714 0.7681
C117_6 C 0.8694(3) 0.9984(2) 0.74601(14)
C126_6 C 0.8690(3) 0.9540(2) 0.72107(11)
Cd19 Cd -0.0000 0.5000 0.2500
C133 C 0.5891(3) 0.4854(3) 0.45645(14)
C134 C 0.6395(3) 0.4851(3) 0.43282(14)
C135 C 0.6439(3) 0.4381(3) 0.41193(13)
H113 H 0.6161 0.4061 0.4133
C136 C 0.6882(3) 0.4393(3) 0.38932(14)
H114 H 0.6911 0.4078 0.3753
C137 C 0.7279(3) 0.4875(2) 0.38771(13)
C138 C 0.7235(3) 0.5348(3) 0.40853(12)
C139 C 0.6792(3) 0.5335(2) 0.43112(13)
H115 H 0.6761 0.5650 0.4451
C140 C 0.7575(3) 0.6354(2) 0.42019(12)
H116 H 0.7284 0.6575 0.4085
H117 H 0.7951 0.6568 0.4203
H118 H 0.7433 0.6308 0.4408
Cd18 Cd 0.5000 0.5000 0.5000
O64 O 0.5480(2) 0.44701(19) 0.45495(10)
O65 O 0.58901(17) 0.52452(18) 0.47554(8)
O66 O 0.76554(18) 0.57797(18) 0.40697(9)
C141 C 0.9109(3) 0.4854(3) 0.29355(14)
C142 C 0.4109(3) 0.5146(3) 0.45645(14)
C143 C 0.0891(3) 0.5146(3) 0.29355(14)
C144 C 0.8605(3) 0.4851(3) 0.31718(14)
C145 C 0.3605(3) 0.5149(3) 0.43282(14)
C146 C 0.1395(3) 0.5149(3) 0.31718(14)
C147 C 0.8561(3) 0.4381(3) 0.33807(13)
C148 C 0.3561(3) 0.5619(3) 0.41193(13)
C149 C 0.1439(3) 0.5619(3) 0.33807(13)
H119 H 0.8839 0.4061 0.3367
H120 H 0.3839 0.5939 0.4133
H121 H 0.1161 0.5939 0.3367
C150 C 0.8118(3) 0.4393(3) 0.36068(14)
C151 C 0.3118(3) 0.5607(3) 0.38932(14)
C152 C 0.1882(3) 0.5607(3) 0.36068(14)
H122 H 0.8089 0.4078 0.3747
H123 H 0.3089 0.5922 0.3753
H124 H 0.1911 0.5922 0.3747
C153 C 0.7721(3) 0.4875(2) 0.36229(13)
C154 C 0.2721(3) 0.5125(2) 0.38771(13)
C155 C 0.2279(3) 0.5125(2) 0.36229(13)
C156 C 0.7765(3) 0.5348(3) 0.34147(12)
C157 C 0.2765(3) 0.4652(3) 0.40853(12)
C158 C 0.2235(3) 0.4652(3) 0.34147(12)
C159 C 0.8208(3) 0.5335(2) 0.31888(13)
C160 C 0.3208(3) 0.4665(2) 0.43112(13)
C161 C 0.1792(3) 0.4665(2) 0.31888(13)
H125 H 0.8239 0.5650 0.3049
H126 H 0.3239 0.4350 0.4451
H127 H 0.1761 0.4350 0.3049
C162 C 0.7425(3) 0.6354(2) 0.32981(12)
C163 C 0.2425(3) 0.3646(2) 0.42019(12)
C164 C 0.2575(3) 0.3646(2) 0.32981(12)
H128 H 0.7716 0.6575 0.3415
H129 H 0.2716 0.3425 0.4085
H130 H 0.2284 0.3425 0.3415
H131 H 0.7049 0.6568 0.3297
H132 H 0.2049 0.3432 0.4203
H133 H 0.2951 0.3432 0.3297
H134 H 0.7567 0.6308 0.3092
H135 H 0.2567 0.3692 0.4408
H136 H 0.2433 0.3692 0.3092
Cd19_2 Cd 1.0000 0.5000 0.2500
O67 O 0.9520(2) 0.44701(19) 0.29505(10)
O68 O 0.4520(2) 0.55299(19) 0.45495(10)
O69 O 0.0480(2) 0.55299(19) 0.29505(10)
O70 O 0.44701(19) 0.4520(2) 0.54505(10)
O71 O 0.55299(19) 0.5480(2) 0.54505(10)
O72 O 0.91099(17) 0.52452(18) 0.27446(8)
O73 O 0.41099(17) 0.47548(18) 0.47554(8)
O74 O 0.08901(17) 0.47548(18) 0.27446(8)
O75 O 0.52452(18) 0.41099(17) 0.52446(8)
O76 O 0.47548(18) 0.58901(17) 0.52446(8)
O77 O 0.73446(18) 0.57797(18) 0.34303(9)
O78 O 0.23446(18) 0.42203(18) 0.40697(9)
O79 O 0.26554(18) 0.42203(18) 0.34303(9)
Cd20 Cd 0.5000 0.0000 0.7500
C133_2 C 0.4854(3) 0.4109(3) 0.54355(14)
C134_2 C 0.4851(3) 0.3605(3) 0.56718(14)
C135_2 C 0.4381(3) 0.3561(3) 0.58807(13)
H113_2 H 0.4061 0.3839 0.5867
C136_2 C 0.4393(3) 0.3118(3) 0.61068(14)
H114_2 H 0.4078 0.3089 0.6247
C137_2 C 0.4875(2) 0.2721(3) 0.61229(13)
C138_2 C 0.5348(3) 0.2765(3) 0.59147(12)
C139_2 C 0.5335(2) 0.3208(3) 0.56888(13)
H115_2 H 0.5650 0.3239 0.5549
C140_2 C 0.6354(2) 0.2425(3) 0.57981(12)
H116_2 H 0.6575 0.2716 0.5915
H117_2 H 0.6568 0.2049 0.5797
H118_2 H 0.6308 0.2567 0.5592
O66_2 O 0.57797(18) 0.23446(18) 0.59303(9)
C141_2 C 0.4854(3) 0.0891(3) 0.70645(14)
C142_2 C 0.5146(3) 0.5891(3) 0.54355(14)
C143_2 C 0.5146(3) 0.9109(3) 0.70645(14)
C144_2 C 0.4851(3) 0.1395(3) 0.68282(14)
C145_2 C 0.5149(3) 0.6395(3) 0.56718(14)
C146_2 C 0.5149(3) 0.8605(3) 0.68282(14)
C147_2 C 0.4381(3) 0.1439(3) 0.66193(13)
C148_2 C 0.5619(3) 0.6439(3) 0.58807(13)
C149_2 C 0.5619(3) 0.8561(3) 0.66193(13)
H119_2 H 0.4061 0.1161 0.6633
H120_2 H 0.5939 0.6161 0.5867
H121_2 H 0.5939 0.8839 0.6633
C150_2 C 0.4393(3) 0.1882(3) 0.63932(14)
C151_2 C 0.5607(3) 0.6882(3) 0.61068(14)
C152_2 C 0.5607(3) 0.8118(3) 0.63932(14)
H122_2 H 0.4078 0.1911 0.6253
H123_2 H 0.5922 0.6911 0.6247
H124_2 H 0.5922 0.8089 0.6253
C153_2 C 0.4875(2) 0.2279(3) 0.63771(13)
C154_2 C 0.5125(2) 0.7279(3) 0.61229(13)
C155_2 C 0.5125(2) 0.7721(3) 0.63771(13)
C156_2 C 0.5348(3) 0.2235(3) 0.65853(12)
C157_2 C 0.4652(3) 0.7235(3) 0.59147(12)
C158_2 C 0.4652(3) 0.7765(3) 0.65853(12)
C159_2 C 0.5335(2) 0.1792(3) 0.68112(13)
C160_2 C 0.4665(2) 0.6792(3) 0.56888(13)
C161_2 C 0.4665(2) 0.8208(3) 0.68112(13)
H125_2 H 0.5650 0.1761 0.6951
H126_2 H 0.4350 0.6761 0.5549
H127_2 H 0.4350 0.8239 0.6951
C162_2 C 0.6354(2) 0.2575(3) 0.67019(12)
C163_2 C 0.3646(2) 0.7575(3) 0.57981(12)
C164_2 C 0.3646(2) 0.7425(3) 0.67019(12)
H128_2 H 0.6575 0.2284 0.6585
H129_2 H 0.3425 0.7284 0.5915
H130_2 H 0.3425 0.7716 0.6585
H131_2 H 0.6568 0.2951 0.6703
H132_2 H 0.3432 0.7951 0.5797
H133_2 H 0.3432 0.7049 0.6703
H134_2 H 0.6308 0.2433 0.6908
H135_2 H 0.3692 0.7433 0.5592
H136_2 H 0.3692 0.7567 0.6908
Cd20_2 Cd 0.5000 1.0000 0.7500
O67_2 O 0.44701(19) 0.0480(2) 0.70495(10)
O69_2 O 0.55299(19) 0.9520(2) 0.70495(10)
O72_2 O 0.52452(18) 0.08901(17) 0.72554(8)
O74_2 O 0.47548(18) 0.91099(17) 0.72554(8)
O77_2 O 0.57797(18) 0.26554(18) 0.65697(9)
O78_2 O 0.42203(18) 0.76554(18) 0.59303(9)
O79_2 O 0.42203(18) 0.73446(18) 0.65697(9)
O70_2 O 0.05299(19) 0.4520(2) 0.20495(10)
O76_2 O 0.02452(18) 0.58901(17) 0.22554(8)
O71_2 O 0.94701(19) 0.5480(2) 0.20495(10)
O75_2 O 0.97548(18) 0.41099(17) 0.22554(8)
Cd20_3 Cd 0.0000 0.0000 0.0000
Cd20_4 Cd 0.0000 0.0000 1.0000
C133_3 C 0.0146(3) 0.4109(3) 0.20645(14)
C134_3 C 0.0149(3) 0.3605(3) 0.18282(14)
C135_3 C 0.0619(3) 0.3561(3) 0.16193(13)
H113_3 H 0.0939 0.3839 0.1633
C136_3 C 0.0607(3) 0.3118(3) 0.13932(14)
H114_3 H 0.0922 0.3089 0.1253
C137_3 C 0.0125(2) 0.2721(3) 0.13771(13)
C141_3 C 0.0146(3) 0.0891(3) 0.04355(14)
C144_3 C 0.0149(3) 0.1395(3) 0.06718(14)
C147_3 C 0.0619(3) 0.1439(3) 0.08807(13)
H119_3 H 0.0939 0.1161 0.0867
C150_3 C 0.0607(3) 0.1882(3) 0.11068(14)
H122_3 H 0.0922 0.1911 0.1247
C153_3 C 0.0125(2) 0.2279(3) 0.11229(13)
C157_3 C 0.0348(3) 0.7235(3) 0.15853(12)
C158_3 C 0.0348(3) 0.7765(3) 0.09147(12)
C160_3 C 0.0335(2) 0.6792(3) 0.18112(13)
C161_3 C 0.0335(2) 0.8208(3) 0.06888(13)
H126_3 H 0.0650 0.6761 0.1951
H127_3 H 0.0650 0.8239 0.0549
C163_3 C 0.1354(2) 0.7575(3) 0.17019(12)
C164_3 C 0.1354(2) 0.7425(3) 0.07981(12)
H129_3 H 0.1575 0.7284 0.1585
H130_3 H 0.1575 0.7716 0.0915
H132_3 H 0.1568 0.7951 0.1703
H133_3 H 0.1568 0.7049 0.0797
H135_3 H 0.1308 0.7433 0.1908
H136_3 H 0.1308 0.7567 0.0592
Cd20_5 Cd 0.0000 1.0000 0.0000
O67_3 O 0.05299(19) 0.0480(2) 0.04505(10)
O74_3 O 0.02452(18) 0.91099(17) 0.02446(8)
O78_3 O 0.07797(18) 0.76554(18) 0.15697(9)
O79_3 O 0.07797(18) 0.73446(18) 0.09303(9)
Cd20_6 Cd 0.0000 1.0000 1.0000
Cd20_7 Cd 1.0000 0.0000 0.0000
Cd20_8 Cd 1.0000 0.0000 1.0000
C138_3 C 0.9652(3) 0.2765(3) 0.15853(12)
C139_3 C 0.9665(2) 0.3208(3) 0.18112(13)
H115_3 H 0.9350 0.3239 0.1951
C140_3 C 0.8646(2) 0.2425(3) 0.17019(12)
H116_3 H 0.8425 0.2716 0.1585
H117_3 H 0.8432 0.2049 0.1703
H118_3 H 0.8692 0.2567 0.1908
O66_3 O 0.92203(18) 0.23446(18) 0.15697(9)
C142_3 C 0.9854(3) 0.5891(3) 0.20645(14)
C143_3 C 0.9854(3) 0.9109(3) 0.04355(14)
C145_3 C 0.9851(3) 0.6395(3) 0.18282(14)
C146_3 C 0.9851(3) 0.8605(3) 0.06718(14)
C148_3 C 0.9381(3) 0.6439(3) 0.16193(13)
C149_3 C 0.9381(3) 0.8561(3) 0.08807(13)
H120_3 H 0.9061 0.6161 0.1633
H121_3 H 0.9061 0.8839 0.0867
C151_3 C 0.9393(3) 0.6882(3) 0.13932(14)
C152_3 C 0.9393(3) 0.8118(3) 0.11068(14)
H123_3 H 0.9078 0.6911 0.1253
H124_3 H 0.9078 0.8089 0.1247
C154_3 C 0.9875(2) 0.7279(3) 0.13771(13)
C155_3 C 0.9875(2) 0.7721(3) 0.11229(13)
C156_3 C 0.9652(3) 0.2235(3) 0.09147(12)
C159_3 C 0.9665(2) 0.1792(3) 0.06888(13)
H125_3 H 0.9350 0.1761 0.0549
C162_3 C 0.8646(2) 0.2575(3) 0.07981(12)
H128_3 H 0.8425 0.2284 0.0915
H131_3 H 0.8432 0.2951 0.0797
H134_3 H 0.8692 0.2433 0.0592
Cd20_9 Cd 1.0000 1.0000 0.0000
O69_3 O 0.94701(19) 0.9520(2) 0.04505(10)
O72_3 O 0.97548(18) 0.08901(17) 0.02446(8)
O77_3 O 0.92203(18) 0.26554(18) 0.09303(9)
Cd20_10 Cd 1.0000 1.0000 1.0000
C138_4 C 0.2235(3) 0.0348(3) 0.90853(12)
C139_4 C 0.1792(3) 0.0335(2) 0.93112(13)
H115_4 H 0.1761 0.0650 0.9451
C140_4 C 0.2575(3) 0.1354(2) 0.92019(12)
H116_4 H 0.2284 0.1575 0.9085
H117_4 H 0.2951 0.1568 0.9203
H118_4 H 0.2433 0.1308 0.9408
O65_2 O 0.08901(17) 0.02452(18) 0.97554(8)
O66_4 O 0.26554(18) 0.07797(18) 0.90697(9)
C156_4 C 0.2765(3) 0.0348(3) 0.84147(12)
C159_4 C 0.3208(3) 0.0335(2) 0.81888(13)
H125_4 H 0.3239 0.0650 0.8049
C162_4 C 0.2425(3) 0.1354(2) 0.82981(12)
H128_4 H 0.2716 0.1575 0.8415
H131_4 H 0.2049 0.1568 0.8297
H134_4 H 0.2567 0.1308 0.8092
O72_4 O 0.41099(17) 0.02452(18) 0.77446(8)
O77_4 O 0.23446(18) 0.07797(18) 0.84303(9)
C133_4 C 0.0891(3) 0.9854(3) 0.95645(14)
C134_4 C 0.1395(3) 0.9851(3) 0.93282(14)
C135_4 C 0.1439(3) 0.9381(3) 0.91193(13)
H113_4 H 0.1161 0.9061 0.9133
C136_4 C 0.1882(3) 0.9393(3) 0.88932(14)
H114_4 H 0.1911 0.9078 0.8753
C137_4 C 0.2279(3) 0.9875(2) 0.88771(13)
O64_2 O 0.0480(2) 0.94701(19) 0.95495(10)
C141_4 C 0.4109(3) 0.9854(3) 0.79355(14)
C144_4 C 0.3605(3) 0.9851(3) 0.81718(14)
C147_4 C 0.3561(3) 0.9381(3) 0.83807(13)
H119_4 H 0.3839 0.9061 0.8367
C150_4 C 0.3118(3) 0.9393(3) 0.86068(14)
H122_4 H 0.3089 0.9078 0.8747
C153_4 C 0.2721(3) 0.9875(2) 0.86229(13)
O67_4 O 0.4520(2) 0.94701(19) 0.79505(10)
C142_4 C 0.9109(3) 0.0146(3) 0.95645(14)
C143_4 C 0.5891(3) 0.0146(3) 0.79355(14)
C145_4 C 0.8605(3) 0.0149(3) 0.93282(14)
C146_4 C 0.6395(3) 0.0149(3) 0.81718(14)
C148_4 C 0.8561(3) 0.0619(3) 0.91193(13)
C149_4 C 0.6439(3) 0.0619(3) 0.83807(13)
H120_4 H 0.8839 0.0939 0.9133
H121_4 H 0.6161 0.0939 0.8367
C151_4 C 0.8118(3) 0.0607(3) 0.88932(14)
C152_4 C 0.6882(3) 0.0607(3) 0.86068(14)
H123_4 H 0.8089 0.0922 0.8753
H124_4 H 0.6911 0.0922 0.8747
C154_4 C 0.7721(3) 0.0125(2) 0.88771(13)
C155_4 C 0.7279(3) 0.0125(2) 0.86229(13)
O68_2 O 0.9520(2) 0.05299(19) 0.95495(10)
O69_4 O 0.5480(2) 0.05299(19) 0.79505(10)
C157_4 C 0.7765(3) 0.9652(3) 0.90853(12)
C158_4 C 0.7235(3) 0.9652(3) 0.84147(12)
C160_4 C 0.8208(3) 0.9665(2) 0.93112(13)
C161_4 C 0.6792(3) 0.9665(2) 0.81888(13)
H126_4 H 0.8239 0.9350 0.9451
H127_4 H 0.6761 0.9350 0.8049
C163_4 C 0.7425(3) 0.8646(2) 0.92019(12)
C164_4 C 0.7575(3) 0.8646(2) 0.82981(12)
H129_4 H 0.7716 0.8425 0.9085
H130_4 H 0.7284 0.8425 0.8415
H132_4 H 0.7049 0.8432 0.9203
H133_4 H 0.7951 0.8432 0.8297
H135_4 H 0.7567 0.8692 0.9408
H136_4 H 0.7433 0.8692 0.8092
O73_2 O 0.91099(17) 0.97548(18) 0.97554(8)
O74_4 O 0.58901(17) 0.97548(18) 0.77446(8)
O78_4 O 0.73446(18) 0.92203(18) 0.90697(9)
O79_4 O 0.76554(18) 0.92203(18) 0.84303(9)
loop_
_geom_bond_atom_site_label_1
_geom_bond_atom_site_label_2
_geom_bond_site_symmetry_1
_geom_bond_site_symmetry_2
C1 H1 1_555 1_555
H2 C1 1_555 1_555
H3 C1 1_555 1_555
C2 H4 1_555 1_555
H5 C2 1_555 1_555
H6 C2 1_555 1_555
N1 C1 1_555 1_555
H7 N1 1_555 1_555
H8 N1 1_555 1_555
C2 N1 1_555 1_555
C1_2 H1_2 1_555 1_555
H2_2 C1_2 1_555 1_555
H3_2 C1_2 1_555 1_555
C2_2 H4_2 1_555 1_555
H5_2 C2_2 1_555 1_555
H6_2 C2_2 1_555 1_555
N1_2 C1_2 1_555 1_555
H7_2 N1_2 1_555 1_555
H8_2 N1_2 1_555 1_555
C2_2 N1_2 1_555 1_555
C1_3 H1_3 1_555 1_555
H2_3 C1_3 1_555 1_555
H3_3 C1_3 1_555 1_555
C2_3 H4_3 1_555 1_555
H5_3 C2_3 1_555 1_555
H6_3 C2_3 1_555 1_555
N1_3 C1_3 1_555 1_555
H7_3 N1_3 1_555 1_555
H8_3 N1_3 1_555 1_555
C2_3 N1_3 1_555 1_555
C1_4 H1_4 1_555 1_555
H2_4 C1_4 1_555 1_555
H3_4 C1_4 1_555 1_555
C2_4 H4_4 1_555 1_555
H5_4 C2_4 1_555 1_555
H6_4 C2_4 1_555 1_555
N1_4 C1_4 1_555 1_555
H7_4 N1_4 1_555 1_555
H8_4 N1_4 1_555 1_555
C2_4 N1_4 1_555 1_555
C1_5 H1_5 1_555 1_555
H2_5 C1_5 1_555 1_555
H3_5 C1_5 1_555 1_555
C2_5 H4_5 1_555 1_555
H5_5 C2_5 1_555 1_555
H6_5 C2_5 1_555 1_555
N1_5 C1_5 1_555 1_555
H7_5 N1_5 1_555 1_555
H8_5 N1_5 1_555 1_555
C2_5 N1_5 1_555 1_555
C1_6 H1_6 1_555 1_555
H2_6 C1_6 1_555 1_555
H3_6 C1_6 1_555 1_555
C2_6 H4_6 1_555 1_555
H5_6 C2_6 1_555 1_555
H6_6 C2_6 1_555 1_555
N1_6 C1_6 1_555 1_555
H7_6 N1_6 1_555 1_555
H8_6 N1_6 1_555 1_555
C2_6 N1_6 1_555 1_555
C1_7 H1_7 1_555 1_555
H2_7 C1_7 1_555 1_555
H3_7 C1_7 1_555 1_555
C2_7 H4_7 1_555 1_555
H5_7 C2_7 1_555 1_555
H6_7 C2_7 1_555 1_555
N1_7 C1_7 1_555 1_555
H7_7 N1_7 1_555 1_555
H8_7 N1_7 1_555 1_555
C2_7 N1_7 1_555 1_555
C1_8 H1_8 1_555 1_555
H2_8 C1_8 1_555 1_555
H3_8 C1_8 1_555 1_555
C2_8 H4_8 1_555 1_555
H5_8 C2_8 1_555 1_555
H6_8 C2_8 1_555 1_555
N1_8 C1_8 1_555 1_555
H7_8 N1_8 1_555 1_555
H8_8 N1_8 1_555 1_555
C2_8 N1_8 1_555 1_555
C1_9 H1_9 1_555 1_555
H2_9 C1_9 1_555 1_555
H3_9 C1_9 1_555 1_555
C2_9 H4_9 1_555 1_555
H5_9 C2_9 1_555 1_555
H6_9 C2_9 1_555 1_555
N1_9 C1_9 1_555 1_555
H7_9 N1_9 1_555 1_555
H8_9 N1_9 1_555 1_555
C2_9 N1_9 1_555 1_555
C1_10 H1_10 1_555 1_555
H2_10 C1_10 1_555 1_555
H3_10 C1_10 1_555 1_555
C2_10 H4_10 1_555 1_555
H5_10 C2_10 1_555 1_555
H6_10 C2_10 1_555 1_555
N1_10 C1_10 1_555 1_555
H7_10 N1_10 1_555 1_555
H8_10 N1_10 1_555 1_555
C2_10 N1_10 1_555 1_555
C1_11 H1_11 1_555 1_555
H2_11 C1_11 1_555 1_555
H3_11 C1_11 1_555 1_555
C2_11 H4_11 1_555 1_555
H5_11 C2_11 1_555 1_555
H6_11 C2_11 1_555 1_555
N1_11 C1_11 1_555 1_555
H7_11 N1_11 1_555 1_555
H8_11 N1_11 1_555 1_555
C2_11 N1_11 1_555 1_555
C1_12 H1_12 1_555 1_555
H2_12 C1_12 1_555 1_555
H3_12 C1_12 1_555 1_555
C2_12 H4_12 1_555 1_555
H5_12 C2_12 1_555 1_555
H6_12 C2_12 1_555 1_555
N1_12 C1_12 1_555 1_555
H7_12 N1_12 1_555 1_555
H8_12 N1_12 1_555 1_555
C2_12 N1_12 1_555 1_555
C1_13 H1_13 1_555 1_555
H2_13 C1_13 1_555 1_555
H3_13 C1_13 1_555 1_555
C2_13 H4_13 1_555 1_555
H5_13 C2_13 1_555 1_555
H6_13 C2_13 1_555 1_555
N1_13 C1_13 1_555 1_555
H7_13 N1_13 1_555 1_555
H8_13 N1_13 1_555 1_555
C2_13 N1_13 1_555 1_555
C1_14 H1_14 1_555 1_555
H2_14 C1_14 1_555 1_555
H3_14 C1_14 1_555 1_555
C2_14 H4_14 1_555 1_555
H5_14 C2_14 1_555 1_555
H6_14 C2_14 1_555 1_555
N1_14 C1_14 1_555 1_555
H7_14 N1_14 1_555 1_555
H8_14 N1_14 1_555 1_555
C2_14 N1_14 1_555 1_555
C1_15 H1_15 1_555 1_555
H2_15 C1_15 1_555 1_555
H3_15 C1_15 1_555 1_555
C2_15 H4_15 1_555 1_555
H5_15 C2_15 1_555 1_555
H6_15 C2_15 1_555 1_555
N1_15 C1_15 1_555 1_555
H7_15 N1_15 1_555 1_555
H8_15 N1_15 1_555 1_555
C2_15 N1_15 1_555 1_555
C1_16 H1_16 1_555 1_555
H2_16 C1_16 1_555 1_555
H3_16 C1_16 1_555 1_555
C2_16 H4_16 1_555 1_555
H5_16 C2_16 1_555 1_555
H6_16 C2_16 1_555 1_555
N1_16 C1_16 1_555 1_555
H7_16 N1_16 1_555 1_555
H8_16 N1_16 1_555 1_555
C2_16 N1_16 1_555 1_555
C3 H9 1_555 1_555
H10 C3 1_555 1_555
H11 C3 1_555 1_555
C4 H12 1_555 1_555
H13 C4 1_555 1_555
H14 C4 1_555 1_555
N2 C3 1_555 1_555
H15 N2 1_555 1_555
H16 N2 1_555 1_555
C4 N2 1_555 1_555
C3_2 H9_2 1_555 1_555
H10_2 C3_2 1_555 1_555
H11_2 C3_2 1_555 1_555
C4_2 H12_2 1_555 1_555
H13_2 C4_2 1_555 1_555
H14_2 C4_2 1_555 1_555
N2_2 C3_2 1_555 1_555
H15_2 N2_2 1_555 1_555
H16_2 N2_2 1_555 1_555
C4_2 N2_2 1_555 1_555
C3_3 H9_3 1_555 1_555
H10_3 C3_3 1_555 1_555
H11_3 C3_3 1_555 1_555
C4_3 H12_3 1_555 1_555
H13_3 C4_3 1_555 1_555
H14_3 C4_3 1_555 1_555
N2_3 C3_3 1_555 1_555
H15_3 N2_3 1_555 1_555
H16_3 N2_3 1_555 1_555
C4_3 N2_3 1_555 1_555
C3_4 H9_4 1_555 1_555
H10_4 C3_4 1_555 1_555
H11_4 C3_4 1_555 1_555
C4_4 H12_4 1_555 1_555
H13_4 C4_4 1_555 1_555
H14_4 C4_4 1_555 1_555
N2_4 C3_4 1_555 1_555
H15_4 N2_4 1_555 1_555
H16_4 N2_4 1_555 1_555
C4_4 N2_4 1_555 1_555
C3_5 H9_5 1_555 1_555
H10_5 C3_5 1_555 1_555
H11_5 C3_5 1_555 1_555
C4_5 H12_5 1_555 1_555
H13_5 C4_5 1_555 1_555
H14_5 C4_5 1_555 1_555
N2_5 C3_5 1_555 1_555
H15_5 N2_5 1_555 1_555
H16_5 N2_5 1_555 1_555
C4_5 N2_5 1_555 1_555
C3_6 H9_6 1_555 1_555
H10_6 C3_6 1_555 1_555
H11_6 C3_6 1_555 1_555
C4_6 H12_6 1_555 1_555
H13_6 C4_6 1_555 1_555
H14_6 C4_6 1_555 1_555
N2_6 C3_6 1_555 1_555
H15_6 N2_6 1_555 1_555
H16_6 N2_6 1_555 1_555
C4_6 N2_6 1_555 1_555
C3_7 H9_7 1_555 1_555
H10_7 C3_7 1_555 1_555
H11_7 C3_7 1_555 1_555
C4_7 H12_7 1_555 1_555
H13_7 C4_7 1_555 1_555
H14_7 C4_7 1_555 1_555
N2_7 C3_7 1_555 1_555
H15_7 N2_7 1_555 1_555
H16_7 N2_7 1_555 1_555
C4_7 N2_7 1_555 1_555
C3_8 H9_8 1_555 1_555
H10_8 C3_8 1_555 1_555
H11_8 C3_8 1_555 1_555
C4_8 H12_8 1_555 1_555
H13_8 C4_8 1_555 1_555
H14_8 C4_8 1_555 1_555
N2_8 C3_8 1_555 1_555
H15_8 N2_8 1_555 1_555
H16_8 N2_8 1_555 1_555
C4_8 N2_8 1_555 1_555
C3_9 H9_9 1_555 1_555
H10_9 C3_9 1_555 1_555
H11_9 C3_9 1_555 1_555
C4_9 H12_9 1_555 1_555
H13_9 C4_9 1_555 1_555
H14_9 C4_9 1_555 1_555
N2_9 C3_9 1_555 1_555
H15_9 N2_9 1_555 1_555
H16_9 N2_9 1_555 1_555
C4_9 N2_9 1_555 1_555
C3_10 H9_10 1_555 1_555
H10_10 C3_10 1_555 1_555
H11_10 C3_10 1_555 1_555
C4_10 H12_10 1_555 1_555
H13_10 C4_10 1_555 1_555
H14_10 C4_10 1_555 1_555
N2_10 C3_10 1_555 1_555
H15_10 N2_10 1_555 1_555
H16_10 N2_10 1_555 1_555
C4_10 N2_10 1_555 1_555
C3_11 H9_11 1_555 1_555
H10_11 C3_11 1_555 1_555
H11_11 C3_11 1_555 1_555
C4_11 H12_11 1_555 1_555
H13_11 C4_11 1_555 1_555
H14_11 C4_11 1_555 1_555
N2_11 C3_11 1_555 1_555
H15_11 N2_11 1_555 1_555
H16_11 N2_11 1_555 1_555
C4_11 N2_11 1_555 1_555
C3_12 H9_12 1_555 1_555
H10_12 C3_12 1_555 1_555
H11_12 C3_12 1_555 1_555
C4_12 H12_12 1_555 1_555
H13_12 C4_12 1_555 1_555
H14_12 C4_12 1_555 1_555
N2_12 C3_12 1_555 1_555
H15_12 N2_12 1_555 1_555
H16_12 N2_12 1_555 1_555
C4_12 N2_12 1_555 1_555
C3_13 H9_13 1_555 1_555
H10_13 C3_13 1_555 1_555
H11_13 C3_13 1_555 1_555
C4_13 H12_13 1_555 1_555
H13_13 C4_13 1_555 1_555
H14_13 C4_13 1_555 1_555
N2_13 C3_13 1_555 1_555
H15_13 N2_13 1_555 1_555
H16_13 N2_13 1_555 1_555
C4_13 N2_13 1_555 1_555
C3_14 H9_14 1_555 1_555
H10_14 C3_14 1_555 1_555
H11_14 C3_14 1_555 1_555
C4_14 H12_14 1_555 1_555
H13_14 C4_14 1_555 1_555
H14_14 C4_14 1_555 1_555
N2_14 C3_14 1_555 1_555
H15_14 N2_14 1_555 1_555
H16_14 N2_14 1_555 1_555
C4_14 N2_14 1_555 1_555
C3_15 H9_15 1_555 1_555
H10_15 C3_15 1_555 1_555
H11_15 C3_15 1_555 1_555
C4_15 H12_15 1_555 1_555
H13_15 C4_15 1_555 1_555
H14_15 C4_15 1_555 1_555
N2_15 C3_15 1_555 1_555
H15_15 N2_15 1_555 1_555
H16_15 N2_15 1_555 1_555
C4_15 N2_15 1_555 1_555
C3_16 H9_16 1_555 1_555
H10_16 C3_16 1_555 1_555
H11_16 C3_16 1_555 1_555
C4_16 H12_16 1_555 1_555
H13_16 C4_16 1_555 1_555
H14_16 C4_16 1_555 1_555
N2_16 C3_16 1_555 1_555
H15_16 N2_16 1_555 1_555
H16_16 N2_16 1_555 1_555
C4_16 N2_16 1_555 1_555
C36 H38 1_555 1_555
H39 C36 1_555 1_555
H40 C36 1_555 1_555
C39 C42 1_555 1_555
C42 C45 1_555 1_555
C45 H43 1_555 1_555
Cd5 O15 1_555 1_555
Cd16 O18 1_555 1_555
O15 C39 1_555 1_555
O18 C39 1_555 1_555
O24 Cd5 1_555 1_555
O40 Cd5 1_555 1_555
O45 Cd5 1_555 1_555
O51 Cd5 1_555 1_555
O57 Cd5 1_555 1_555
Cd5 O18 1_555 1_555
Cd16 O40 1_555 1_555
C5 C6 1_555 1_555
C6 C7 1_555 1_555
C7 H17 1_555 1_555
C21 C22 1_555 1_555
C22 C23 1_555 1_555
C23 H29 1_555 1_555
C24 C23 1_555 1_555
C25 C24 1_555 1_555
C26 C25 1_555 1_555
H30 C26 1_555 1_555
C27 C22 1_555 1_555
H31 C27 1_555 1_555
C28 C25 1_555 1_555
C29 C28 1_555 1_555
H32 C29 1_555 1_555
C30 C29 1_555 1_555
H33 C30 1_555 1_555
C31 C30 1_555 1_555
C32 C31 1_555 1_555
H34 C32 1_555 1_555
C33 C28 1_555 1_555
C34 C31 1_555 1_555
C35 H35 1_555 1_555
H36 C35 1_555 1_555
H37 C35 1_555 1_555
Cd1 O1 1_555 1_555
Cd2 O2 1_555 1_555
O1 C5 1_555 1_555
O2 C5 1_555 1_555
O7 C21 1_555 1_555
O8 C21 1_555 1_555
O9 C34 1_555 1_555
O10 C34 1_555 1_555
O11 C24 1_555 1_555
O12 C33 1_555 1_555
C37 C40 1_555 1_555
C38 C41 1_555 1_555
C40 C43 1_555 1_555
C41 C44 1_555 1_555
C43 H41 1_555 1_555
C44 H42 1_555 1_555
C47 C44 1_555 1_555
H45 C47 1_555 1_555
H46 C48 1_555 1_555
C50 C47 1_555 1_555
C51 C48 1_555 1_555
C53 C50 1_555 1_555
C54 C51 1_555 1_555
C56 C41 1_555 1_555
H48 C56 1_555 1_555
H49 C57 1_555 1_555
C59 C50 1_555 1_555
C60 C51 1_555 1_555
C62 C59 1_555 1_555
C63 C60 1_555 1_555
H51 C62 1_555 1_555
H52 C63 1_555 1_555
C65 C62 1_555 1_555
C66 C63 1_555 1_555
H54 C65 1_555 1_555
H55 C66 1_555 1_555
C68 C65 1_555 1_555
C69 C66 1_555 1_555
C71 C68 1_555 1_555
C72 C69 1_555 1_555
H57 C71 1_555 1_555
H58 C72 1_555 1_555
C74 C59 1_555 1_555
C75 C60 1_555 1_555
C77 C68 1_555 1_555
C78 C69 1_555 1_555
C80 H60 1_555 1_555
C81 H61 1_555 1_555
H63 C80 1_555 1_555
H64 C81 1_555 1_555
H66 C80 1_555 1_555
H67 C81 1_555 1_555
C83 H69 1_555 1_555
C84 H70 1_555 1_555
H72 C83 1_555 1_555
H73 C84 1_555 1_555
H75 C83 1_555 1_555
C85 C88 1_555 1_555
C86 C89 1_555 1_555
C87 C90 1_555 1_555
C88 C91 1_555 1_555
C89 C92 1_555 1_555
C90 C93 1_555 1_555
C91 H77 1_555 1_555
C92 H78 1_555 1_555
C93 H79 1_555 1_555
C94 C91 1_555 1_555
C95 C92 1_555 1_555
C96 C93 1_555 1_555
C97 C94 1_555 1_555
C98 C95 1_555 1_555
C99 C96 1_555 1_555
C100 C97 1_555 1_555
C101 C98 1_555 1_555
C102 C99 1_555 1_555
H80 C100 1_555 1_555
H81 C101 1_555 1_555
H82 C102 1_555 1_555
C103 C88 1_555 1_555
C104 C89 1_555 1_555
C105 C90 1_555 1_555
H83 C103 1_555 1_555
H84 C104 1_555 1_555
H85 C105 1_555 1_555
C106 C97 1_555 1_555
C107 C98 1_555 1_555
C108 C99 1_555 1_555
C109 C106 1_555 1_555
C110 C107 1_555 1_555
C111 C108 1_555 1_555
H86 C109 1_555 1_555
H87 C110 1_555 1_555
H88 C111 1_555 1_555
C112 C109 1_555 1_555
C113 C110 1_555 1_555
H89 C112 1_555 1_555
H90 C113 1_555 1_555
C115 C112 1_555 1_555
C116 C113 1_555 1_555
C118 C115 1_555 1_555
C119 C116 1_555 1_555
H92 C118 1_555 1_555
H93 C119 1_555 1_555
C121 C106 1_555 1_555
C122 C107 1_555 1_555
C123 C108 1_555 1_555
C124 C115 1_555 1_555
C125 C116 1_555 1_555
C127 H95 1_555 1_555
C128 H96 1_555 1_555
C129 H97 1_555 1_555
H98 C127 1_555 1_555
H99 C128 1_555 1_555
H100 C129 1_555 1_555
H101 C127 1_555 1_555
H102 C128 1_555 1_555
H103 C129 1_555 1_555
C130 H104 1_555 1_555
C132 H106 1_555 1_555
H107 C130 1_555 1_555
H110 C130 1_555 1_555
Cd3 O7 1_555 1_555
Cd4 O14 1_555 1_555
Cd7 O9 1_555 1_555
Cd9 O46 1_555 1_555
Cd11 O19 1_555 1_555
Cd13 O17 1_555 1_555
O13 C37 1_555 1_555
O14 C38 1_555 1_555
O16 Cd2 1_555 1_555
O17 C38 1_555 1_555
O19 Cd13 1_555 1_555
O21 C77 1_555 1_555
O22 Cd1 1_555 1_555
O23 Cd4 1_555 1_555
O26 Cd2 1_555 1_555
O27 Cd2 1_555 1_555
O28 Cd13 1_555 1_555
O29 Cd13 1_555 1_555
O31 C53 1_555 1_555
O32 C54 1_555 1_555
O34 C74 1_555 1_555
O35 C75 1_555 1_555
O36 Cd1 1_555 1_555
O40 C86 1_555 1_555
O38 C87 1_555 1_555
O39 Cd4 1_555 1_555
O41 Cd1 1_555 1_555
O45 C86 1_555 1_555
O43 C87 1_555 1_555
O44 Cd4 1_555 1_555
O46 C124 1_555 1_555
O47 Cd1 1_555 1_555
O49 Cd3 1_555 1_555
O50 Cd4 1_555 1_555
O52 C124 1_555 1_555
O53 Cd1 1_555 1_555
O55 Cd3 1_555 1_555
O56 Cd4 1_555 1_555
O58 C94 1_555 1_555
O59 C95 1_555 1_555
O60 C96 1_555 1_555
O61 C121 1_555 1_555
O62 C122 1_555 1_555
O63 C123 1_555 1_555
C26 C27 1_555 1_555
C32 C33 1_555 1_555
C35 O11 1_555 1_555
Cd1 O2 1_555 1_555
Cd2 O7 1_555 1_555
Cd2 O36 1_555 1_555
O8 Cd3 1_555 1_555
O10 Cd7 1_555 1_555
C37 O16 1_555 1_555
C53 C56 1_555 1_555
C54 C57 1_555 1_555
C71 C74 1_555 1_555
C72 C75 1_555 1_555
C77 O26 1_555 1_555
C78 O22 1_555 1_555
C78 O27 1_555 1_555
C80 O31 1_555 1_555
C81 O32 1_555 1_555
C83 O34 1_555 1_555
C84 O35 1_555 1_555
C85 O36 1_555 1_555
C85 O41 1_555 1_555
C100 C103 1_555 1_555
C101 C104 1_555 1_555
C102 C105 1_555 1_555
C118 C121 1_555 1_555
C119 C122 1_555 1_555
C125 O47 1_555 1_555
C125 O53 1_555 1_555
C127 O58 1_555 1_555
C128 O59 1_555 1_555
C129 O60 1_555 1_555
C130 O61 1_555 1_555
C132 O63 1_555 1_555
Cd3 O13 1_555 1_555
Cd3 O16 1_555 1_555
Cd3 O21 1_555 1_555
Cd4 O17 1_555 1_555
Cd9 O52 1_555 1_555
Cd11 O38 1_555 1_555
Cd11 O43 1_555 1_555
Cd13 O38 1_555 1_555
Cd13 O39 1_555 1_555
H94 C120 1_555 1_555
H18 C8 1_555 1_555
C9 C8 1_555 1_555
C10 C9 1_555 1_555
H19 C11 1_555 1_555
C12 C9 1_555 1_555
C13 C12 1_555 1_555
H20 C13 1_555 1_555
C14 C13 1_555 1_555
H21 C14 1_555 1_555
C15 C14 1_555 1_555
C16 C15 1_555 1_555
H22 C16 1_555 1_555
C17 C12 1_555 1_555
C18 C15 1_555 1_555
C19 H23 1_555 1_555
H24 C19 1_555 1_555
H25 C19 1_555 1_555
C20 H26 1_555 1_555
H27 C20 1_555 1_555
O3 C18 1_555 1_555
O4 C18 1_555 1_555
O5 C10 1_555 1_555
O6 C17 1_555 1_555
H44 C46 1_555 1_555
C49 C46 1_555 1_555
C52 C49 1_555 1_555
H47 C55 1_555 1_555
C58 C49 1_555 1_555
C61 C58 1_555 1_555
H50 C61 1_555 1_555
C64 C61 1_555 1_555
H53 C64 1_555 1_555
C67 C64 1_555 1_555
C70 C67 1_555 1_555
H56 C70 1_555 1_555
C73 C58 1_555 1_555
C76 C67 1_555 1_555
C79 H59 1_555 1_555
H62 C79 1_555 1_555
H65 C79 1_555 1_555
C82 H68 1_555 1_555
H71 C82 1_555 1_555
C131 H105 1_555 1_555
H108 C131 1_555 1_555
H111 C131 1_555 1_555
Cd9 O3 1_555 1_555
Cd7 O20 1_555 1_555
Cd14 O4 1_555 1_555
Cd15 O25 1_555 1_555
O20 C76 1_555 1_555
O25 C76 1_555 1_555
O30 C52 1_555 1_555
O33 C73 1_555 1_555
C10 C11 1_555 1_555
C16 C17 1_555 1_555
C19 O5 1_555 1_555
C20 O6 1_555 1_555
C52 C55 1_555 1_555
C70 C73 1_555 1_555
C79 O30 1_555 1_555
C82 O33 1_555 1_555
H91 C114 1_555 1_555
C126 C117 1_555 1_555
Cd12 O48 1_555 1_555
O48 C126 1_555 1_555
O54 C126 1_555 1_555
Cd12 O54 1_555 1_555
H91_2 C114_2 1_555 1_555
C126_2 C117_2 1_555 1_555
Cd12_2 O48_2 1_555 1_555
O48_2 C126_2 1_555 1_555
O54_2 C126_2 1_555 1_555
Cd12_2 O54_2 1_555 1_555
H18_2 C8_2 1_555 1_555
C9_2 C8_2 1_555 1_555
C10_2 C9_2 1_555 1_555
H19_2 C11_2 1_555 1_555
C12_2 C9_2 1_555 1_555
C13_2 C12_2 1_555 1_555
H20_2 C13_2 1_555 1_555
C14_2 C13_2 1_555 1_555
H21_2 C14_2 1_555 1_555
C15_2 C14_2 1_555 1_555
C16_2 C15_2 1_555 1_555
H22_2 C16_2 1_555 1_555
C17_2 C12_2 1_555 1_555
C18_2 C15_2 1_555 1_555
C19_2 H23_2 1_555 1_555
H24_2 C19_2 1_555 1_555
H25_2 C19_2 1_555 1_555
C20_2 H26_2 1_555 1_555
H27_2 C20_2 1_555 1_555
O3_2 C18_2 1_555 1_555
O28 C18_2 1_555 1_555
O5_2 C10_2 1_555 1_555
O6_2 C17_2 1_555 1_555
H44_2 C46_2 1_555 1_555
C49_2 C46_2 1_555 1_555
C52_2 C49_2 1_555 1_555
H47_2 C55_2 1_555 1_555
C58_2 C49_2 1_555 1_555
C61_2 C58_2 1_555 1_555
H50_2 C61_2 1_555 1_555
C64_2 C61_2 1_555 1_555
H53_2 C64_2 1_555 1_555
C67_2 C64_2 1_555 1_555
C70_2 C67_2 1_555 1_555
H56_2 C70_2 1_555 1_555
C73_2 C58_2 1_555 1_555
C76_2 C67_2 1_555 1_555
C79_2 H59_2 1_555 1_555
H62_2 C79_2 1_555 1_555
H65_2 C79_2 1_555 1_555
C82_2 H68_2 1_555 1_555
H71_2 C82_2 1_555 1_555
C131_2 H105_2 1_555 1_555
H108_2 C131_2 1_555 1_555
H111_2 C131_2 1_555 1_555
Cd11 O3_2 1_555 1_555
Cd8 O20_2 1_555 1_555
Cd16 O25_2 1_555 1_555
O20_2 C76_2 1_555 1_555
O25_2 C76_2 1_555 1_555
O30_2 C52_2 1_555 1_555
O33_2 C73_2 1_555 1_555
C10_2 C11_2 1_555 1_555
C16_2 C17_2 1_555 1_555
C19_2 O5_2 1_555 1_555
C20_2 O6_2 1_555 1_555
C52_2 C55_2 1_555 1_555
C70_2 C73_2 1_555 1_555
C79_2 O30_2 1_555 1_555
C82_2 O33_2 1_555 1_555
C5_2 C6_2 1_555 1_555
C6_2 C7_2 1_555 1_555
C7_2 H17_2 1_555 1_555
C21_2 C22_2 1_555 1_555
C22_2 C23_2 1_555 1_555
C23_2 H29_2 1_555 1_555
C24_2 C23_2 1_555 1_555
C25_2 C24_2 1_555 1_555
C26_2 C25_2 1_555 1_555
H30_2 C26_2 1_555 1_555
C27_2 C22_2 1_555 1_555
H31_2 C27_2 1_555 1_555
C28_2 C25_2 1_555 1_555
C29_2 C28_2 1_555 1_555
H32_2 C29_2 1_555 1_555
C30_2 C29_2 1_555 1_555
H33_2 C30_2 1_555 1_555
C31_2 C30_2 1_555 1_555
C32_2 C31_2 1_555 1_555
H34_2 C32_2 1_555 1_555
C33_2 C28_2 1_555 1_555
C34_2 C31_2 1_555 1_555
C35_2 H35_2 1_555 1_555
H36_2 C35_2 1_555 1_555
H37_2 C35_2 1_555 1_555
Cd1_2 O1_2 1_555 1_555
Cd2_2 O2_2 1_555 1_555
O1_2 C5_2 1_555 1_555
O2_2 C5_2 1_555 1_555
O7_2 C21_2 1_555 1_555
O8_2 C21_2 1_555 1_555
O9_2 C34_2 1_555 1_555
O10_2 C34_2 1_555 1_555
O11_2 C24_2 1_555 1_555
O12_2 C33_2 1_555 1_555
C37_2 C40_2 1_555 1_555
C38_2 C41_2 1_555 1_555
C40_2 C43_2 1_555 1_555
C41_2 C44_2 1_555 1_555
C43_2 H41_2 1_555 1_555
C44_2 H42_2 1_555 1_555
C47_2 C44_2 1_555 1_555
H45_2 C47_2 1_555 1_555
H46_2 C48_2 1_555 1_555
C50_2 C47_2 1_555 1_555
C51_2 C48_2 1_555 1_555
C53_2 C50_2 1_555 1_555
C54_2 C51_2 1_555 1_555
C56_2 C41_2 1_555 1_555
H48_2 C56_2 1_555 1_555
H49_2 C57_2 1_555 1_555
C59_2 C50_2 1_555 1_555
C60_2 C51_2 1_555 1_555
C62_2 C59_2 1_555 1_555
C63_2 C60_2 1_555 1_555
H51_2 C62_2 1_555 1_555
H52_2 C63_2 1_555 1_555
C65_2 C62_2 1_555 1_555
C66_2 C63_2 1_555 1_555
H54_2 C65_2 1_555 1_555
H55_2 C66_2 1_555 1_555
C68_2 C65_2 1_555 1_555
C69_2 C66_2 1_555 1_555
C71_2 C68_2 1_555 1_555
C72_2 C69_2 1_555 1_555
H57_2 C71_2 1_555 1_555
H58_2 C72_2 1_555 1_555
C74_2 C59_2 1_555 1_555
C75_2 C60_2 1_555 1_555
C77_2 C68_2 1_555 1_555
C78_2 C69_2 1_555 1_555
C80_2 H60_2 1_555 1_555
C81_2 H61_2 1_555 1_555
H63_2 C80_2 1_555 1_555
H64_2 C81_2 1_555 1_555
H66_2 C80_2 1_555 1_555
H67_2 C81_2 1_555 1_555
C83_2 H69_2 1_555 1_555
C84_2 H70_2 1_555 1_555
H72_2 C83_2 1_555 1_555
H73_2 C84_2 1_555 1_555
H75_2 C83_2 1_555 1_555
C85_2 C88_2 1_555 1_555
C86_2 C89_2 1_555 1_555
C87_2 C90_2 1_555 1_555
C88_2 C91_2 1_555 1_555
C89_2 C92_2 1_555 1_555
C90_2 C93_2 1_555 1_555
C91_2 H77_2 1_555 1_555
C92_2 H78_2 1_555 1_555
C93_2 H79_2 1_555 1_555
C94_2 C91_2 1_555 1_555
C95_2 C92_2 1_555 1_555
C96_2 C93_2 1_555 1_555
C97_2 C94_2 1_555 1_555
C98_2 C95_2 1_555 1_555
C99_2 C96_2 1_555 1_555
C100_2 C97_2 1_555 1_555
C101_2 C98_2 1_555 1_555
C102_2 C99_2 1_555 1_555
H80_2 C100_2 1_555 1_555
H81_2 C101_2 1_555 1_555
H82_2 C102_2 1_555 1_555
C103_2 C88_2 1_555 1_555
C104_2 C89_2 1_555 1_555
C105_2 C90_2 1_555 1_555
H83_2 C103_2 1_555 1_555
H84_2 C104_2 1_555 1_555
H85_2 C105_2 1_555 1_555
C106_2 C97_2 1_555 1_555
C107_2 C98_2 1_555 1_555
C108_2 C99_2 1_555 1_555
C109_2 C106_2 1_555 1_555
C110_2 C107_2 1_555 1_555
C111_2 C108_2 1_555 1_555
H86_2 C109_2 1_555 1_555
H87_2 C110_2 1_555 1_555
H88_2 C111_2 1_555 1_555
C112_2 C109_2 1_555 1_555
C113_2 C110_2 1_555 1_555
H89_2 C112_2 1_555 1_555
H90_2 C113_2 1_555 1_555
C115_2 C112_2 1_555 1_555
C116_2 C113_2 1_555 1_555
C118_2 C115_2 1_555 1_555
C119_2 C116_2 1_555 1_555
H92_2 C118_2 1_555 1_555
H93_2 C119_2 1_555 1_555
C121_2 C106_2 1_555 1_555
C122_2 C107_2 1_555 1_555
C123_2 C108_2 1_555 1_555
C124_2 C115_2 1_555 1_555
C125_2 C116_2 1_555 1_555
C127_2 H95_2 1_555 1_555
C128_2 H96_2 1_555 1_555
C129_2 H97_2 1_555 1_555
H98_2 C127_2 1_555 1_555
H99_2 C128_2 1_555 1_555
H100_2 C129_2 1_555 1_555
H101_2 C127_2 1_555 1_555
H102_2 C128_2 1_555 1_555
H103_2 C129_2 1_555 1_555
C130_2 H104_2 1_555 1_555
C132_2 H106_2 1_555 1_555
H107_2 C130_2 1_555 1_555
H110_2 C130_2 1_555 1_555
Cd3_2 O7_2 1_555 1_555
Cd4_2 O14_2 1_555 1_555
Cd8 O9_2 1_555 1_555
Cd11 O46_2 1_555 1_555
Cd10 O37 1_555 1_555
Cd9 O19_2 1_555 1_555
Cd14 O17_2 1_555 1_555
Cd15 O37 1_555 1_555
O13_2 C37_2 1_555 1_555
O14_2 C38_2 1_555 1_555
O16_2 Cd2_2 1_555 1_555
O17_2 C38_2 1_555 1_555
O19_2 Cd14 1_555 1_555
O21_2 C77_2 1_555 1_555
O22_2 Cd1_2 1_555 1_555
O23_2 Cd4_2 1_555 1_555
O26_2 Cd2_2 1_555 1_555
O27_2 Cd2_2 1_555 1_555
O29_2 Cd14 1_555 1_555
O31_2 C53_2 1_555 1_555
O32_2 C54_2 1_555 1_555
O34_2 C74_2 1_555 1_555
O35_2 C75_2 1_555 1_555
O36_2 Cd1_2 1_555 1_555
O37 C86_2 1_555 1_555
O38_2 C87_2 1_555 1_555
O39_2 Cd4_2 1_555 1_555
O41_2 Cd1_2 1_555 1_555
O42 C86_2 1_555 1_555
O43_2 C87_2 1_555 1_555
O44_2 Cd4_2 1_555 1_555
O46_2 C124_2 1_555 1_555
O47_2 Cd1_2 1_555 1_555
O49_2 Cd3_2 1_555 1_555
O50_2 Cd4_2 1_555 1_555
O52_2 C124_2 1_555 1_555
O53_2 Cd1_2 1_555 1_555
O55_2 Cd3_2 1_555 1_555
O56_2 Cd4_2 1_555 1_555
O58_2 C94_2 1_555 1_555
O59_2 C95_2 1_555 1_555
O60_2 C96_2 1_555 1_555
O61_2 C121_2 1_555 1_555
O62_2 C122_2 1_555 1_555
O63_2 C123_2 1_555 1_555
C26_2 C27_2 1_555 1_555
C32_2 C33_2 1_555 1_555
C35_2 O11_2 1_555 1_555
Cd1_2 O2_2 1_555 1_555
Cd2_2 O7_2 1_555 1_555
Cd2_2 O36_2 1_555 1_555
O8_2 Cd3_2 1_555 1_555
O10_2 Cd8 1_555 1_555
C37_2 O16_2 1_555 1_555
C53_2 C56_2 1_555 1_555
C54_2 C57_2 1_555 1_555
C71_2 C74_2 1_555 1_555
C72_2 C75_2 1_555 1_555
C77_2 O26_2 1_555 1_555
C78_2 O22_2 1_555 1_555
C78_2 O27_2 1_555 1_555
C80_2 O31_2 1_555 1_555
C81_2 O32_2 1_555 1_555
C83_2 O34_2 1_555 1_555
C84_2 O35_2 1_555 1_555
C85_2 O36_2 1_555 1_555
C85_2 O41_2 1_555 1_555
C100_2 C103_2 1_555 1_555
C101_2 C104_2 1_555 1_555
C102_2 C105_2 1_555 1_555
C118_2 C121_2 1_555 1_555
C119_2 C122_2 1_555 1_555
C125_2 O47_2 1_555 1_555
C125_2 O53_2 1_555 1_555
C127_2 O58_2 1_555 1_555
C128_2 O59_2 1_555 1_555
C129_2 O60_2 1_555 1_555
C130_2 O61_2 1_555 1_555
C132_2 O63_2 1_555 1_555
Cd3_2 O13_2 1_555 1_555
Cd3_2 O16_2 1_555 1_555
Cd3_2 O21_2 1_555 1_555
Cd4_2 O17_2 1_555 1_555
Cd11 O52_2 1_555 1_555
Cd10 O42 1_555 1_555
Cd9 O38_2 1_555 1_555
Cd9 O43_2 1_555 1_555
Cd14 O38_2 1_555 1_555
Cd14 O39_2 1_555 1_555
H94_2 C120_2 1_555 1_555
C36_2 H38_2 1_555 1_555
H39_2 C36_2 1_555 1_555
H40_2 C36_2 1_555 1_555
C39_2 C42_2 1_555 1_555
C42_2 C45_2 1_555 1_555
C45_2 H43_2 1_555 1_555
Cd10 O15_2 1_555 1_555
Cd15 O18_2 1_555 1_555
O15_2 C39_2 1_555 1_555
O18_2 C39_2 1_555 1_555
O24_2 Cd10 1_555 1_555
O51_2 Cd10 1_555 1_555
O57_2 Cd10 1_555 1_555
Cd10 O18_2 1_555 1_555
C126_3 C117_3 1_555 1_555
O50 C126_3 1_555 1_555
O56 C126_3 1_555 1_555
H91_3 C114_3 1_555 1_555
H94_3 C120_3 1_555 1_555
C5_3 C6_3 1_555 1_555
C6_3 C7_3 1_555 1_555
C7_3 H17_3 1_555 1_555
Cd8 O1_3 1_555 1_555
Cd16 O2_3 1_555 1_555
O1_3 C5_3 1_555 1_555
O2_3 C5_3 1_555 1_555
C38_3 C41_3 1_555 1_555
C41_3 C44_3 1_555 1_555
C44_3 H42_3 1_555 1_555
C47_3 C44_3 1_555 1_555
H45_3 C47_3 1_555 1_555
C50_3 C47_3 1_555 1_555
C53_3 C50_3 1_555 1_555
C56_3 C41_3 1_555 1_555
H48_3 C56_3 1_555 1_555
C59_3 C50_3 1_555 1_555
C62_3 C59_3 1_555 1_555
H51_3 C62_3 1_555 1_555
C65_3 C62_3 1_555 1_555
H54_3 C65_3 1_555 1_555
C68_3 C65_3 1_555 1_555
C71_3 C68_3 1_555 1_555
H57_3 C71_3 1_555 1_555
C74_3 C59_3 1_555 1_555
C77_3 C68_3 1_555 1_555
C80_3 H60_3 1_555 1_555
H63_3 C80_3 1_555 1_555
H66_3 C80_3 1_555 1_555
C83_3 H69_3 1_555 1_555
H72_3 C83_3 1_555 1_555
H75_3 C83_3 1_555 1_555
C85_3 C88_3 1_555 1_555
C87_3 C90_3 1_555 1_555
C88_3 C91_3 1_555 1_555
C90_3 C93_3 1_555 1_555
C91_3 H77_3 1_555 1_555
C93_3 H79_3 1_555 1_555
C94_3 C91_3 1_555 1_555
C96_3 C93_3 1_555 1_555
C97_3 C94_3 1_555 1_555
C99_3 C96_3 1_555 1_555
C100_3 C97_3 1_555 1_555
C102_3 C99_3 1_555 1_555
H80_3 C100_3 1_555 1_555
H82_3 C102_3 1_555 1_555
C103_3 C88_3 1_555 1_555
C105_3 C90_3 1_555 1_555
H83_3 C103_3 1_555 1_555
H85_3 C105_3 1_555 1_555
C106_3 C97_3 1_555 1_555
C108_3 C99_3 1_555 1_555
C109_3 C106_3 1_555 1_555
C111_3 C108_3 1_555 1_555
H86_3 C109_3 1_555 1_555
H88_3 C111_3 1_555 1_555
C112_3 C109_3 1_555 1_555
H89_3 C112_3 1_555 1_555
C115_3 C112_3 1_555 1_555
C118_3 C115_3 1_555 1_555
H92_3 C118_3 1_555 1_555
C121_3 C106_3 1_555 1_555
C123_3 C108_3 1_555 1_555
C124_3 C115_3 1_555 1_555
C127_3 H95_3 1_555 1_555
C129_3 H97_3 1_555 1_555
H98_3 C127_3 1_555 1_555
H100_3 C129_3 1_555 1_555
H101_3 C127_3 1_555 1_555
H103_3 C129_3 1_555 1_555
C130_3 H104_3 1_555 1_555
C132_3 H106_3 1_555 1_555
H107_3 C130_3 1_555 1_555
H110_3 C130_3 1_555 1_555
Cd12_2 O14_3 1_555 1_555
Cd9_2 O46_3 1_555 1_555
Cd11_2 O19_3 1_555 1_555
Cd13_2 O17_3 1_555 1_555
O14_3 C38_3 1_555 1_555
O17_3 C38_3 1_555 1_555
O19_3 Cd13_2 1_555 1_555
O24 C77_3 1_555 1_555
O23_3 Cd12_2 1_555 1_555
O26_3 Cd16 1_555 1_555
O28_2 Cd13_2 1_555 1_555
O29_3 Cd13_2 1_555 1_555
O31_3 C53_3 1_555 1_555
O34_3 C74_3 1_555 1_555
O36_3 Cd8 1_555 1_555
O38_3 C87_3 1_555 1_555
O39_3 Cd12_2 1_555 1_555
O41_3 Cd8 1_555 1_555
O43_3 C87_3 1_555 1_555
O44_3 Cd12_2 1_555 1_555
O46_3 C124_3 1_555 1_555
O52_3 C124_3 1_555 1_555
O58_3 C94_3 1_555 1_555
O60_3 C96_3 1_555 1_555
O61_3 C121_3 1_555 1_555
O63_3 C123_3 1_555 1_555
Cd8 O2_3 1_555 1_555
Cd16 O36_3 1_555 1_555
C53_3 C56_3 1_555 1_555
C71_3 C74_3 1_555 1_555
C77_3 O26_3 1_555 1_555
C80_3 O31_3 1_555 1_555
C83_3 O34_3 1_555 1_555
C85_3 O36_3 1_555 1_555
C85_3 O41_3 1_555 1_555
C100_3 C103_3 1_555 1_555
C102_3 C105_3 1_555 1_555
C118_3 C121_3 1_555 1_555
C127_3 O58_3 1_555 1_555
C129_3 O60_3 1_555 1_555
C130_3 O61_3 1_555 1_555
C132_3 O63_3 1_555 1_555
Cd12_2 O17_3 1_555 1_555
Cd9_2 O52_3 1_555 1_555
Cd11_2 O38_3 1_555 1_555
Cd11_2 O43_3 1_555 1_555
Cd13_2 O38_3 1_555 1_555
Cd13_2 O39_3 1_555 1_555
H18_3 C8_3 1_555 1_555
C9_3 C8_3 1_555 1_555
C10_3 C9_3 1_555 1_555
H19_3 C11_3 1_555 1_555
C12_3 C9_3 1_555 1_555
C13_3 C12_3 1_555 1_555
H20_3 C13_3 1_555 1_555
C14_3 C13_3 1_555 1_555
H21_3 C14_3 1_555 1_555
C15_3 C14_3 1_555 1_555
C16_3 C15_3 1_555 1_555
H22_3 C16_3 1_555 1_555
C17_3 C12_3 1_555 1_555
C18_3 C15_3 1_555 1_555
C19_3 H23_3 1_555 1_555
H24_3 C19_3 1_555 1_555
H25_3 C19_3 1_555 1_555
C20_3 H26_3 1_555 1_555
H27_3 C20_3 1_555 1_555
O3_3 C18_3 1_555 1_555
O4_2 C18_3 1_555 1_555
O5_3 C10_3 1_555 1_555
O6_3 C17_3 1_555 1_555
Cd9_2 O3_3 1_555 1_555
Cd14_2 O4_2 1_555 1_555
C10_3 C11_3 1_555 1_555
C16_3 C17_3 1_555 1_555
C19_3 O5_3 1_555 1_555
C20_3 O6_3 1_555 1_555
H18_4 C8_4 1_555 1_555
C9_4 C8_4 1_555 1_555
C10_4 C9_4 1_555 1_555
H19_4 C11_4 1_555 1_555
C12_4 C9_4 1_555 1_555
C13_4 C12_4 1_555 1_555
H20_4 C13_4 1_555 1_555
C14_4 C13_4 1_555 1_555
H21_4 C14_4 1_555 1_555
C15_4 C14_4 1_555 1_555
C16_4 C15_4 1_555 1_555
H22_4 C16_4 1_555 1_555
C17_4 C12_4 1_555 1_555
C18_4 C15_4 1_555 1_555
C19_4 H23_4 1_555 1_555
H24_4 C19_4 1_555 1_555
H25_4 C19_4 1_555 1_555
C20_4 H26_4 1_555 1_555
H27_4 C20_4 1_555 1_555
O3_4 C18_4 1_555 1_555
O28_2 C18_4 1_555 1_555
O5_4 C10_4 1_555 1_555
O6_4 C17_4 1_555 1_555
Cd11_2 O3_4 1_555 1_555
C10_4 C11_4 1_555 1_555
C16_4 C17_4 1_555 1_555
C19_4 O5_4 1_555 1_555
C20_4 O6_4 1_555 1_555
H94_4 C120_4 1_555 1_555
C5_4 C6_4 1_555 1_555
C6_4 C7_4 1_555 1_555
C7_4 H17_4 1_555 1_555
Cd7 O1_4 1_555 1_555
Cd15 O2_4 1_555 1_555
O1_4 C5_4 1_555 1_555
O2_4 C5_4 1_555 1_555
C38_4 C41_4 1_555 1_555
C41_4 C44_4 1_555 1_555
C44_4 H42_4 1_555 1_555
C47_4 C44_4 1_555 1_555
H45_4 C47_4 1_555 1_555
C50_4 C47_4 1_555 1_555
C53_4 C50_4 1_555 1_555
C56_4 C41_4 1_555 1_555
H48_4 C56_4 1_555 1_555
C59_4 C50_4 1_555 1_555
C62_4 C59_4 1_555 1_555
H51_4 C62_4 1_555 1_555
C65_4 C62_4 1_555 1_555
H54_4 C65_4 1_555 1_555
C68_4 C65_4 1_555 1_555
C71_4 C68_4 1_555 1_555
H57_4 C71_4 1_555 1_555
C74_4 C59_4 1_555 1_555
C77_4 C68_4 1_555 1_555
C80_4 H60_4 1_555 1_555
H63_4 C80_4 1_555 1_555
H66_4 C80_4 1_555 1_555
C83_4 H69_4 1_555 1_555
H72_4 C83_4 1_555 1_555
H75_4 C83_4 1_555 1_555
C85_4 C88_4 1_555 1_555
C87_4 C90_4 1_555 1_555
C88_4 C91_4 1_555 1_555
C90_4 C93_4 1_555 1_555
C91_4 H77_4 1_555 1_555
C93_4 H79_4 1_555 1_555
C94_4 C91_4 1_555 1_555
C96_4 C93_4 1_555 1_555
C97_4 C94_4 1_555 1_555
C99_4 C96_4 1_555 1_555
C100_4 C97_4 1_555 1_555
C102_4 C99_4 1_555 1_555
H80_4 C100_4 1_555 1_555
H82_4 C102_4 1_555 1_555
C103_4 C88_4 1_555 1_555
C105_4 C90_4 1_555 1_555
H83_4 C103_4 1_555 1_555
H85_4 C105_4 1_555 1_555
C106_4 C97_4 1_555 1_555
C108_4 C99_4 1_555 1_555
C109_4 C106_4 1_555 1_555
C111_4 C108_4 1_555 1_555
H86_4 C109_4 1_555 1_555
H88_4 C111_4 1_555 1_555
C112_4 C109_4 1_555 1_555
H89_4 C112_4 1_555 1_555
C115_4 C112_4 1_555 1_555
C118_4 C115_4 1_555 1_555
H92_4 C118_4 1_555 1_555
C121_4 C106_4 1_555 1_555
C123_4 C108_4 1_555 1_555
C124_4 C115_4 1_555 1_555
C127_4 H95_4 1_555 1_555
C129_4 H97_4 1_555 1_555
H98_4 C127_4 1_555 1_555
H100_4 C129_4 1_555 1_555
H101_4 C127_4 1_555 1_555
H103_4 C129_4 1_555 1_555
C130_4 H104_4 1_555 1_555
C132_4 H106_4 1_555 1_555
H107_4 C130_4 1_555 1_555
H110_4 C130_4 1_555 1_555
Cd12 O14_4 1_555 1_555
Cd11_2 O46_4 1_555 1_555
Cd9_2 O19_4 1_555 1_555
Cd14_2 O17_4 1_555 1_555
O14_4 C38_4 1_555 1_555
O17_4 C38_4 1_555 1_555
O19_4 Cd14_2 1_555 1_555
O24_2 C77_4 1_555 1_555
O23_4 Cd12 1_555 1_555
O26_4 Cd15 1_555 1_555
O29_4 Cd14_2 1_555 1_555
O31_4 C53_4 1_555 1_555
O34_4 C74_4 1_555 1_555
O36_4 Cd7 1_555 1_555
O38_4 C87_4 1_555 1_555
O39_4 Cd12 1_555 1_555
O41_4 Cd7 1_555 1_555
O43_4 C87_4 1_555 1_555
O44_4 Cd12 1_555 1_555
O46_4 C124_4 1_555 1_555
O52_4 C124_4 1_555 1_555
O58_4 C94_4 1_555 1_555
O60_4 C96_4 1_555 1_555
O61_4 C121_4 1_555 1_555
O63_4 C123_4 1_555 1_555
Cd7 O2_4 1_555 1_555
Cd15 O36_4 1_555 1_555
C53_4 C56_4 1_555 1_555
C71_4 C74_4 1_555 1_555
C77_4 O26_4 1_555 1_555
C80_4 O31_4 1_555 1_555
C83_4 O34_4 1_555 1_555
C85_4 O36_4 1_555 1_555
C85_4 O41_4 1_555 1_555
C100_4 C103_4 1_555 1_555
C102_4 C105_4 1_555 1_555
C118_4 C121_4 1_555 1_555
C127_4 O58_4 1_555 1_555
C129_4 O60_4 1_555 1_555
C130_4 O61_4 1_555 1_555
C132_4 O63_4 1_555 1_555
Cd12 O17_4 1_555 1_555
Cd11_2 O52_4 1_555 1_555
Cd9_2 O38_4 1_555 1_555
Cd9_2 O43_4 1_555 1_555
Cd14_2 O38_4 1_555 1_555
Cd14_2 O39_4 1_555 1_555
C126_4 C117_4 1_555 1_555
O50_2 C126_4 1_555 1_555
O56_2 C126_4 1_555 1_555
H91_4 C114_4 1_555 1_555
C86_3 C89_3 1_555 1_555
C89_3 C92_3 1_555 1_555
C92_3 H78_3 1_555 1_555
C95_3 C92_3 1_555 1_555
C98_3 C95_3 1_555 1_555
C101_3 C98_3 1_555 1_555
H81_3 C101_3 1_555 1_555
C104_3 C89_3 1_555 1_555
H84_3 C104_3 1_555 1_555
C107_3 C98_3 1_555 1_555
C110_3 C107_3 1_555 1_555
H87_3 C110_3 1_555 1_555
H93_3 C119_3 1_555 1_555
C122_3 C107_3 1_555 1_555
C128_3 H96_3 1_555 1_555
H99_3 C128_3 1_555 1_555
H102_3 C128_3 1_555 1_555
O39 C86_3 1_555 1_555
O44 C86_3 1_555 1_555
O59_3 C95_3 1_555 1_555
O62_3 C122_3 1_555 1_555
C101_3 C104_3 1_555 1_555
C119_3 C122_3 1_555 1_555
C128_3 O59_3 1_555 1_555
C131_3 H105_3 1_555 1_555
H108_3 C131_3 1_555 1_555
H111_3 C131_3 1_555 1_555
H90_3 C113_3 1_555 1_555
C116_3 C113_3 1_555 1_555
C125_3 C116_3 1_555 1_555
C125_3 O49 1_555 1_555
C125_3 O55 1_555 1_555
H90_4 C113_4 1_555 1_555
C116_4 C113_4 1_555 1_555
C125_4 C116_4 1_555 1_555
C125_4 O49_2 1_555 1_555
C125_4 O55_2 1_555 1_555
C131_4 H105_4 1_555 1_555
H108_4 C131_4 1_555 1_555
H111_4 C131_4 1_555 1_555
C86_4 C89_4 1_555 1_555
C89_4 C92_4 1_555 1_555
C92_4 H78_4 1_555 1_555
C95_4 C92_4 1_555 1_555
C98_4 C95_4 1_555 1_555
C101_4 C98_4 1_555 1_555
H81_4 C101_4 1_555 1_555
C104_4 C89_4 1_555 1_555
H84_4 C104_4 1_555 1_555
C107_4 C98_4 1_555 1_555
C110_4 C107_4 1_555 1_555
H87_4 C110_4 1_555 1_555
H93_4 C119_4 1_555 1_555
C122_4 C107_4 1_555 1_555
C128_4 H96_4 1_555 1_555
H99_4 C128_4 1_555 1_555
H102_4 C128_4 1_555 1_555
O39_2 C86_4 1_555 1_555
O44_2 C86_4 1_555 1_555
O59_4 C95_4 1_555 1_555
O62_4 C122_4 1_555 1_555
C101_4 C104_4 1_555 1_555
C119_4 C122_4 1_555 1_555
C128_4 O59_4 1_555 1_555
H91_5 C114_5 1_555 1_555
C117_5 C114_5 1_555 1_555
C126_5 C117_5 1_555 1_555
O51 C126_5 1_555 1_555
O57 C126_5 1_555 1_555
C5_5 C6_5 1_555 1_555
C6_5 C7_5 1_555 1_555
C7_5 H17_5 1_555 1_555
C8_5 C7_5 1_555 1_555
H18_5 C8_5 1_555 1_555
C9_5 C8_5 1_555 1_555
C10_5 C9_5 1_555 1_555
C11_5 C6_5 1_555 1_555
H19_5 C11_5 1_555 1_555
C12_5 C9_5 1_555 1_555
C13_5 C12_5 1_555 1_555
H20_5 C13_5 1_555 1_555
C19_5 H23_5 1_555 1_555
H24_5 C19_5 1_555 1_555
H25_5 C19_5 1_555 1_555
Cd11 O1_5 1_555 1_555
O1_5 C5_5 1_555 1_555
O19 C5_5 1_555 1_555
O5_5 C10_5 1_555 1_555
C68_5 C65_5 1_555 1_555
C71_5 C68_5 1_555 1_555
H57_5 C71_5 1_555 1_555
C77_5 C68_5 1_555 1_555
C83_5 H69_5 1_555 1_555
H72_5 C83_5 1_555 1_555
H75_5 C83_5 1_555 1_555
O23 C77_5 1_555 1_555
O34_5 C74_5 1_555 1_555
C10_5 C11_5 1_555 1_555
C19_5 O5_5 1_555 1_555
C71_5 C74_5 1_555 1_555
C77_5 O29 1_555 1_555
C83_5 O34_5 1_555 1_555
C15_5 C14_5 1_555 1_555
C16_5 C15_5 1_555 1_555
H22_5 C16_5 1_555 1_555
C18_5 C15_5 1_555 1_555
C20_5 H26_5 1_555 1_555
H27_5 C20_5 1_555 1_555
H28_5 C20_5 1_555 1_555
O23_4 C18_5 1_555 1_555
O29_4 C18_5 1_555 1_555
O6_5 C17_5 1_555 1_555
C38_5 C41_5 1_555 1_555
C41_5 C44_5 1_555 1_555
C44_5 H42_5 1_555 1_555
C47_5 C44_5 1_555 1_555
H45_5 C47_5 1_555 1_555
C50_5 C47_5 1_555 1_555
C53_5 C50_5 1_555 1_555
C56_5 C41_5 1_555 1_555
H48_5 C56_5 1_555 1_555
C59_5 C50_5 1_555 1_555
C62_5 C59_5 1_555 1_555
H51_5 C62_5 1_555 1_555
C80_5 H60_5 1_555 1_555
H63_5 C80_5 1_555 1_555
H66_5 C80_5 1_555 1_555
C87_5 C90_5 1_555 1_555
C90_5 C93_5 1_555 1_555
C93_5 H79_5 1_555 1_555
C96_5 C93_5 1_555 1_555
C99_5 C96_5 1_555 1_555
C102_5 C99_5 1_555 1_555
H82_5 C102_5 1_555 1_555
C105_5 C90_5 1_555 1_555
H85_5 C105_5 1_555 1_555
C108_5 C99_5 1_555 1_555
C111_5 C108_5 1_555 1_555
H88_5 C111_5 1_555 1_555
H94_5 C120_5 1_555 1_555
C123_5 C108_5 1_555 1_555
C129_5 H97_5 1_555 1_555
H100_5 C129_5 1_555 1_555
H103_5 C129_5 1_555 1_555
Cd11_2 O14_5 1_555 1_555
O14_5 C38_5 1_555 1_555
O19_3 C38_5 1_555 1_555
O31_5 C53_5 1_555 1_555
O39_3 C87_5 1_555 1_555
O44_3 C87_5 1_555 1_555
O60_5 C96_5 1_555 1_555
O63_5 C123_5 1_555 1_555
C16_5 C17_5 1_555 1_555
C20_5 O6_5 1_555 1_555
C53_5 C56_5 1_555 1_555
C80_5 O31_5 1_555 1_555
C102_5 C105_5 1_555 1_555
C120_5 C123_5 1_555 1_555
C129_5 O60_5 1_555 1_555
C132_5 H106_5 1_555 1_555
H109_5 C132_5 1_555 1_555
H112_5 C132_5 1_555 1_555
C132_6 H106_6 1_555 1_555
H109_6 C132_6 1_555 1_555
H112_6 C132_6 1_555 1_555
C5_6 C6_6 1_555 1_555
C6_6 C7_6 1_555 1_555
C7_6 H17_6 1_555 1_555
C8_6 C7_6 1_555 1_555
H18_6 C8_6 1_555 1_555
C9_6 C8_6 1_555 1_555
C10_6 C9_6 1_555 1_555
C11_6 C6_6 1_555 1_555
H19_6 C11_6 1_555 1_555
C12_6 C9_6 1_555 1_555
C13_6 C12_6 1_555 1_555
H20_6 C13_6 1_555 1_555
C19_6 H23_6 1_555 1_555
H24_6 C19_6 1_555 1_555
H25_6 C19_6 1_555 1_555
Cd9 O1_6 1_555 1_555
O1_6 C5_6 1_555 1_555
O19_2 C5_6 1_555 1_555
O5_6 C10_6 1_555 1_555
C68_6 C65_6 1_555 1_555
C71_6 C68_6 1_555 1_555
H57_6 C71_6 1_555 1_555
C77_6 C68_6 1_555 1_555
C83_6 H69_6 1_555 1_555
H72_6 C83_6 1_555 1_555
H75_6 C83_6 1_555 1_555
O23_2 C77_6 1_555 1_555
O34_6 C74_6 1_555 1_555
C10_6 C11_6 1_555 1_555
C19_6 O5_6 1_555 1_555
C71_6 C74_6 1_555 1_555
C77_6 O29_2 1_555 1_555
C83_6 O34_6 1_555 1_555
C15_6 C14_6 1_555 1_555
C16_6 C15_6 1_555 1_555
H22_6 C16_6 1_555 1_555
C18_6 C15_6 1_555 1_555
C20_6 H26_6 1_555 1_555
H27_6 C20_6 1_555 1_555
H28_6 C20_6 1_555 1_555
O23_3 C18_6 1_555 1_555
O29_3 C18_6 1_555 1_555
O6_6 C17_6 1_555 1_555
C38_6 C41_6 1_555 1_555
C41_6 C44_6 1_555 1_555
C44_6 H42_6 1_555 1_555
C47_6 C44_6 1_555 1_555
H45_6 C47_6 1_555 1_555
C50_6 C47_6 1_555 1_555
C53_6 C50_6 1_555 1_555
C56_6 C41_6 1_555 1_555
H48_6 C56_6 1_555 1_555
C59_6 C50_6 1_555 1_555
C62_6 C59_6 1_555 1_555
H51_6 C62_6 1_555 1_555
C80_6 H60_6 1_555 1_555
H63_6 C80_6 1_555 1_555
H66_6 C80_6 1_555 1_555
C87_6 C90_6 1_555 1_555
C90_6 C93_6 1_555 1_555
C93_6 H79_6 1_555 1_555
C96_6 C93_6 1_555 1_555
C99_6 C96_6 1_555 1_555
C102_6 C99_6 1_555 1_555
H82_6 C102_6 1_555 1_555
C105_6 C90_6 1_555 1_555
H85_6 C105_6 1_555 1_555
C108_6 C99_6 1_555 1_555
C111_6 C108_6 1_555 1_555
H88_6 C111_6 1_555 1_555
H94_6 C120_6 1_555 1_555
C123_6 C108_6 1_555 1_555
C129_6 H97_6 1_555 1_555
H100_6 C129_6 1_555 1_555
H103_6 C129_6 1_555 1_555
Cd9_2 O14_6 1_555 1_555
O14_6 C38_6 1_555 1_555
O19_4 C38_6 1_555 1_555
O31_6 C53_6 1_555 1_555
O39_4 C87_6 1_555 1_555
O44_4 C87_6 1_555 1_555
O60_6 C96_6 1_555 1_555
O63_6 C123_6 1_555 1_555
C16_6 C17_6 1_555 1_555
C20_6 O6_6 1_555 1_555
C53_6 C56_6 1_555 1_555
C80_6 O31_6 1_555 1_555
C102_6 C105_6 1_555 1_555
C120_6 C123_6 1_555 1_555
C129_6 O60_6 1_555 1_555
H91_6 C114_6 1_555 1_555
C117_6 C114_6 1_555 1_555
C126_6 C117_6 1_555 1_555
O51_2 C126_6 1_555 1_555
O57_2 C126_6 1_555 1_555
C133 C134 1_555 1_555
C134 C135 1_555 1_555
C135 H113 1_555 1_555
C136 C135 1_555 1_555
H114 C136 1_555 1_555
C137 C136 1_555 1_555
C138 C137 1_555 1_555
C139 C134 1_555 1_555
H115 C139 1_555 1_555
C140 H116 1_555 1_555
H117 C140 1_555 1_555
H118 C140 1_555 1_555
Cd18 O64 1_555 1_555
O64 C133 1_555 1_555
O65 C133 1_555 1_555
O66 C138 1_555 1_555
C141 C144 1_555 1_555
C142 C145 1_555 1_555
C143 C146 1_555 1_555
C144 C147 1_555 1_555
C145 C148 1_555 1_555
C146 C149 1_555 1_555
C147 H119 1_555 1_555
C148 H120 1_555 1_555
C149 H121 1_555 1_555
C150 C147 1_555 1_555
C151 C148 1_555 1_555
C152 C149 1_555 1_555
H122 C150 1_555 1_555
H123 C151 1_555 1_555
H124 C152 1_555 1_555
C153 C137 1_555 1_555
C154 C151 1_555 1_555
C155 C152 1_555 1_555
C156 C153 1_555 1_555
C157 C154 1_555 1_555
C158 C155 1_555 1_555
C159 C144 1_555 1_555
C160 C145 1_555 1_555
C161 C146 1_555 1_555
H125 C159 1_555 1_555
H126 C160 1_555 1_555
H127 C161 1_555 1_555
C162 H128 1_555 1_555
C163 H129 1_555 1_555
C164 H130 1_555 1_555
H131 C162 1_555 1_555
H132 C163 1_555 1_555
H133 C164 1_555 1_555
H134 C162 1_555 1_555
H135 C163 1_555 1_555
H136 C164 1_555 1_555
Cd19_2 O67 1_555 1_555
Cd19 O69 1_555 1_555
O67 C141 1_555 1_555
O68 Cd18 1_555 1_555
O69 C143 1_555 1_555
O70 Cd18 1_555 1_555
O71 Cd18 1_555 1_555
O72 C141 1_555 1_555
O73 Cd18 1_555 1_555
O74 C143 1_555 1_555
O75 Cd18 1_555 1_555
O76 Cd18 1_555 1_555
O77 C156 1_555 1_555
O78 C157 1_555 1_555
O79 C158 1_555 1_555
C138 C139 1_555 1_555
C140 O66 1_555 1_555
Cd18 O65 1_555 1_555
C142 O68 1_555 1_555
C142 O73 1_555 1_555
C150 C153 1_555 1_555
C154 C155 1_555 1_555
C156 C159 1_555 1_555
C157 C160 1_555 1_555
C158 C161 1_555 1_555
C162 O77 1_555 1_555
C163 O78 1_555 1_555
C164 O79 1_555 1_555
Cd19_2 O72 1_555 1_555
Cd19 O74 1_555 1_555
C133_2 C134_2 1_555 1_555
C134_2 C135_2 1_555 1_555
C135_2 H113_2 1_555 1_555
C136_2 C135_2 1_555 1_555
H114_2 C136_2 1_555 1_555
C137_2 C136_2 1_555 1_555
C138_2 C137_2 1_555 1_555
C139_2 C134_2 1_555 1_555
H115_2 C139_2 1_555 1_555
C140_2 H116_2 1_555 1_555
H117_2 C140_2 1_555 1_555
H118_2 C140_2 1_555 1_555
O70 C133_2 1_555 1_555
O75 C133_2 1_555 1_555
O66_2 C138_2 1_555 1_555
C141_2 C144_2 1_555 1_555
C142_2 C145_2 1_555 1_555
C143_2 C146_2 1_555 1_555
C144_2 C147_2 1_555 1_555
C145_2 C148_2 1_555 1_555
C146_2 C149_2 1_555 1_555
C147_2 H119_2 1_555 1_555
C148_2 H120_2 1_555 1_555
C149_2 H121_2 1_555 1_555
C150_2 C147_2 1_555 1_555
C151_2 C148_2 1_555 1_555
C152_2 C149_2 1_555 1_555
H122_2 C150_2 1_555 1_555
H123_2 C151_2 1_555 1_555
H124_2 C152_2 1_555 1_555
C153_2 C137_2 1_555 1_555
C154_2 C151_2 1_555 1_555
C155_2 C152_2 1_555 1_555
C156_2 C153_2 1_555 1_555
C157_2 C154_2 1_555 1_555
C158_2 C155_2 1_555 1_555
C159_2 C144_2 1_555 1_555
C160_2 C145_2 1_555 1_555
C161_2 C146_2 1_555 1_555
H125_2 C159_2 1_555 1_555
H126_2 C160_2 1_555 1_555
H127_2 C161_2 1_555 1_555
C162_2 H128_2 1_555 1_555
C163_2 H129_2 1_555 1_555
C164_2 H130_2 1_555 1_555
H131_2 C162_2 1_555 1_555
H132_2 C163_2 1_555 1_555
H133_2 C164_2 1_555 1_555
H134_2 C162_2 1_555 1_555
H135_2 C163_2 1_555 1_555
H136_2 C164_2 1_555 1_555
Cd20 O67_2 1_555 1_555
Cd20_2 O69_2 1_555 1_555
O67_2 C141_2 1_555 1_555
O69_2 C143_2 1_555 1_555
O72_2 C141_2 1_555 1_555
O74_2 C143_2 1_555 1_555
O77_2 C156_2 1_555 1_555
O78_2 C157_2 1_555 1_555
O79_2 C158_2 1_555 1_555
C138_2 C139_2 1_555 1_555
C140_2 O66_2 1_555 1_555
C142_2 O71 1_555 1_555
C142_2 O76 1_555 1_555
C150_2 C153_2 1_555 1_555
C154_2 C155_2 1_555 1_555
C156_2 C159_2 1_555 1_555
C157_2 C160_2 1_555 1_555
C158_2 C161_2 1_555 1_555
C162_2 O77_2 1_555 1_555
C163_2 O78_2 1_555 1_555
C164_2 O79_2 1_555 1_555
Cd20 O72_2 1_555 1_555
Cd20_2 O74_2 1_555 1_555
O70_2 Cd19 1_555 1_555
O76_2 Cd19 1_555 1_555
O71_2 Cd19_2 1_555 1_555
O75_2 Cd19_2 1_555 1_555
C133_3 C134_3 1_555 1_555
C134_3 C135_3 1_555 1_555
C135_3 H113_3 1_555 1_555
C136_3 C135_3 1_555 1_555
H114_3 C136_3 1_555 1_555
C137_3 C136_3 1_555 1_555
O70_2 C133_3 1_555 1_555
C141_3 C144_3 1_555 1_555
C144_3 C147_3 1_555 1_555
C147_3 H119_3 1_555 1_555
C150_3 C147_3 1_555 1_555
H122_3 C150_3 1_555 1_555
C153_3 C137_3 1_555 1_555
H126_3 C160_3 1_555 1_555
H127_3 C161_3 1_555 1_555
C163_3 H129_3 1_555 1_555
C164_3 H130_3 1_555 1_555
H132_3 C163_3 1_555 1_555
H133_3 C164_3 1_555 1_555
H135_3 C163_3 1_555 1_555
H136_3 C164_3 1_555 1_555
Cd20_3 O67_3 1_555 1_555
O67_3 C141_3 1_555 1_555
O78_3 C157_3 1_555 1_555
O79_3 C158_3 1_555 1_555
C150_3 C153_3 1_555 1_555
C157_3 C160_3 1_555 1_555
C158_3 C161_3 1_555 1_555
C163_3 O78_3 1_555 1_555
C164_3 O79_3 1_555 1_555
Cd20_5 O74_3 1_555 1_555
H115_3 C139_3 1_555 1_555
C140_3 H116_3 1_555 1_555
H117_3 C140_3 1_555 1_555
H118_3 C140_3 1_555 1_555
O66_3 C138_3 1_555 1_555
C142_3 C145_3 1_555 1_555
C143_3 C146_3 1_555 1_555
C145_3 C148_3 1_555 1_555
C146_3 C149_3 1_555 1_555
C148_3 H120_3 1_555 1_555
C149_3 H121_3 1_555 1_555
C151_3 C148_3 1_555 1_555
C152_3 C149_3 1_555 1_555
H123_3 C151_3 1_555 1_555
H124_3 C152_3 1_555 1_555
C154_3 C151_3 1_555 1_555
C155_3 C152_3 1_555 1_555
H125_3 C159_3 1_555 1_555
C162_3 H128_3 1_555 1_555
H131_3 C162_3 1_555 1_555
H134_3 C162_3 1_555 1_555
Cd20_9 O69_3 1_555 1_555
O69_3 C143_3 1_555 1_555
O77_3 C156_3 1_555 1_555
C138_3 C139_3 1_555 1_555
C140_3 O66_3 1_555 1_555
C142_3 O71_2 1_555 1_555
C154_3 C155_3 1_555 1_555
C156_3 C159_3 1_555 1_555
C162_3 O77_3 1_555 1_555
Cd20_7 O72_3 1_555 1_555
H115_4 C139_4 1_555 1_555
C140_4 H116_4 1_555 1_555
H117_4 C140_4 1_555 1_555
H118_4 C140_4 1_555 1_555
O66_4 C138_4 1_555 1_555
H125_4 C159_4 1_555 1_555
C162_4 H128_4 1_555 1_555
H131_4 C162_4 1_555 1_555
H134_4 C162_4 1_555 1_555
O77_4 C156_4 1_555 1_555
C138_4 C139_4 1_555 1_555
C140_4 O66_4 1_555 1_555
Cd20_4 O65_2 1_555 1_555
C156_4 C159_4 1_555 1_555
C162_4 O77_4 1_555 1_555
Cd20 O72_4 1_555 1_555
C133_4 C134_4 1_555 1_555
C134_4 C135_4 1_555 1_555
C135_4 H113_4 1_555 1_555
C136_4 C135_4 1_555 1_555
H114_4 C136_4 1_555 1_555
C137_4 C136_4 1_555 1_555
Cd20_6 O64_2 1_555 1_555
O64_2 C133_4 1_555 1_555
C141_4 C144_4 1_555 1_555
C144_4 C147_4 1_555 1_555
C147_4 H119_4 1_555 1_555
C150_4 C147_4 1_555 1_555
H122_4 C150_4 1_555 1_555
C153_4 C137_4 1_555 1_555
Cd20_2 O67_4 1_555 1_555
O67_4 C141_4 1_555 1_555
C150_4 C153_4 1_555 1_555
C142_4 C145_4 1_555 1_555
C143_4 C146_4 1_555 1_555
C145_4 C148_4 1_555 1_555
C146_4 C149_4 1_555 1_555
C148_4 H120_4 1_555 1_555
C149_4 H121_4 1_555 1_555
C151_4 C148_4 1_555 1_555
C152_4 C149_4 1_555 1_555
H123_4 C151_4 1_555 1_555
H124_4 C152_4 1_555 1_555
C154_4 C151_4 1_555 1_555
C155_4 C152_4 1_555 1_555
Cd20 O69_4 1_555 1_555
O68_2 Cd20_8 1_555 1_555
O69_4 C143_4 1_555 1_555
C142_4 O68_2 1_555 1_555
C154_4 C155_4 1_555 1_555
H126_4 C160_4 1_555 1_555
H127_4 C161_4 1_555 1_555
C163_4 H129_4 1_555 1_555
C164_4 H130_4 1_555 1_555
H132_4 C163_4 1_555 1_555
H133_4 C164_4 1_555 1_555
H135_4 C163_4 1_555 1_555
H136_4 C164_4 1_555 1_555
O73_2 Cd20_10 1_555 1_555
O78_4 C157_4 1_555 1_555
O79_4 C158_4 1_555 1_555
C157_4 C160_4 1_555 1_555
C158_4 C161_4 1_555 1_555
C163_4 O78_4 1_555 1_555
C164_4 O79_4 1_555 1_555
Cd20_2 O74_4 1_555 1_555

#END
