
###############################################################################
#
# This file contains modified crystal structure data generated from the
# MOF subset of the Cambridge Structural Database (CSD) v543 
# hosted by the Cambridge Crystallographic Data Centre (CCDC).
#
# This work is licensed under the Creative Commons
# Attribution-NonCommercial-ShareAlike 4.0 International License.
# To view a copy of this license, visit
# http://creativecommons.org/licenses/by-nc-sa/4.0/
# or send a letter to
# Creative Commons, PO Box 1866, Mountain View, CA 94042, USA.
#
# CIF created using the CSD Python API on 29 September 2022
# The structure has been converted into the P1 space group
# The structure has a 3D framework
# The original CSD entry WECYEL is in the orthorhombic crystal system
# The framework has been calculated to contain at least 10.0% void space
# The void calculation uses a probe of radius 1.32A, grid spacing 0.4
#
###############################################################################

data_WECYEL
_chemical_formula_moiety         '(C240 H160 Co8 N32 O54 S8)n'
_symmetry_cell_setting           triclinic
_symmetry_space_group_name_H-M   'P 1'
_symmetry_Int_Tables_number      1
_space_group_name_Hall           'P 1'
loop_
_symmetry_equiv_pos_site_id
_symmetry_equiv_pos_as_xyz
1 x,y,z
_cell_length_a                   15.4896(5)
_cell_length_b                   18.1048(5)
_cell_length_c                   24.9836(8)
_cell_angle_alpha                90
_cell_angle_beta                 90
_cell_angle_gamma                90
_cell_volume                     7006.3
loop_
_atom_site_label
_atom_site_type_symbol
_atom_site_fract_x
_atom_site_fract_y
_atom_site_fract_z
H3 H 0.0030 0.2625 0.5119
Co3 Co 0.11955(2) 0.44173(2) 0.50915(2)
O1 O 0.86257(10) 0.44731(8) 0.48962(7)
Co1 Co 0.61955(2) 0.05827(2) 0.49085(2)
O2 O 0.99449(11) 0.41376(9) 0.51572(7)
C1 C 0.73919(16) 0.15139(12) 0.49168(10)
S1 S 0.78648(4) 0.29884(3) 0.48956(3)
N1 N 0.62558(13) 0.06023(10) 0.40560(8)
O3 O 0.66215(11) 0.17417(8) 0.48767(7)
O4 O 0.75714(11) 0.08405(8) 0.49434(7)
C3 C 0.89269(14) 0.32192(12) 0.49884(9)
C4 C 0.94383(16) 0.26069(12) 0.50573(10)
C5 C 0.65591(17) 0.05251(12) 0.04928(10)
H4 H 0.6790 0.0271 0.0202
C6 C 0.80986(16) 0.20625(12) 0.49407(10)
N4 N 0.64781(15) 0.08872(11) 0.23977(9)
H5 H 0.6480 0.1342 0.2297
C7 C 0.58952(17) 0.12911(13) 0.13634(11)
H6 H 0.5674 0.1552 0.1653
C8 C 0.66931(17) 0.02751(13) 0.10083(11)
C9 C 0.89552(16) 0.19430(12) 0.50228(10)
H8 H 0.9199 0.1475 0.5053
C10 C 0.59226(17) 0.11829(13) 0.37968(11)
H9 H 0.5629 0.1536 0.3997
C11 C 0.63770(17) 0.06577(13) 0.14508(11)
C12 C 0.67640(18) 0.01509(13) 0.32091(11)
C15 C 0.65366(19) 0.03695(14) 0.20018(11)
C16 C 0.59879(18) 0.12893(13) 0.32553(11)
H12 H 0.5752 0.1707 0.3095
C19 C 0.57400(17) 0.15387(13) 0.08505(11)
H15 H 0.5409 0.1961 0.0796
C20 C 0.64147(17) 0.07595(13) 0.29486(11)
C21 C 0.66678(18) 0.00977(13) 0.37567(11)
C27 C 0.60769(16) 0.11586(12) 0.04151(10)
C30 C 0.91925(15) 0.39989(12) 0.50095(9)
Co4 Co 0.88045(2) 0.55827(2) 0.49085(2)
O9 O 0.49449(11) 0.08624(9) 0.48428(7)
N5 N 0.60801(13) 0.06422(10) 0.57608(8)
C2 C 0.61414(17) 0.16619(13) 0.90208(11)
H1 H 0.6296 0.2147 0.9097
N2 N 0.57755(15) 0.09088(11) 0.74214(9)
H2 H 0.5682 0.1358 0.7518
O7 O 0.59383(11) 0.15040(9) 0.99329(7)
C13 C 0.59580(18) 0.13002(13) 0.59953(11)
H11 H 0.5948 0.1717 0.5778
C14 C 0.59553(16) 0.11758(12) 0.94343(10)
C17 C 0.60964(17) 0.14260(13) 0.84975(11)
H13 H 0.6216 0.1754 0.8221
C18 C 0.57388(17) 0.04513(13) 0.93297(11)
H14 H 0.5619 0.0125 0.9608
C22 C 0.5970(2) 0.01003(14) 0.66383(12)
C23 C 0.60829(18) 0.00592(13) 0.60929(11)
C24 C 0.58471(19) 0.13968(14) 0.65346(11)
H19 H 0.5763 0.1868 0.6674
C25 C 0.58733(17) 0.06995(13) 0.83810(11)
C26 C 0.57029(19) 0.02194(14) 0.88031(11)
C28 C 0.58608(18) 0.07857(13) 0.68737(11)
C29 C 0.58239(19) 0.03946(14) 0.78265(11)
O5 O 0.66955(16) 0.97198(10) 0.20918(8)
H7 H 0.7002 0.9841 0.1061
H10 H 0.7056 0.9787 0.3019
H16 H 0.6902 0.9688 0.3928
O8 O 0.63743(10) 0.94731(8) 0.48962(7)
C2_2 C 0.11414(17) 0.33381(13) 0.09792(11)
H1_2 H 0.1296 0.2853 0.0903
N2_2 N 0.07755(15) 0.40912(11) 0.25786(9)
H2_2 H 0.0682 0.3642 0.2482
N3 N 0.10801(13) 0.43578(10) 0.42392(8)
O6 O 0.08382(16) 0.52675(10) 0.22603(8)
O7_2 O 0.09383(11) 0.34960(9) 0.00671(7)
C13_2 C 0.09580(18) 0.36998(13) 0.40047(11)
H11_2 H 0.0948 0.3283 0.4222
C14_2 C 0.09553(16) 0.38242(12) 0.05657(10)
C17_2 C 0.10964(17) 0.35740(13) 0.15025(11)
H13_2 H 0.1216 0.3246 0.1779
C18_2 C 0.07388(17) 0.45487(13) 0.06703(11)
H14_2 H 0.0619 0.4875 0.0392
C22_2 C 0.0970(2) 0.48997(14) 0.33617(12)
H17 H 0.0967 0.5326 0.3154
C23_2 C 0.10829(18) 0.49408(13) 0.39071(11)
H18 H 0.1167 0.5406 0.4057
C24_2 C 0.08471(19) 0.36032(14) 0.34654(11)
H19_2 H 0.0763 0.3132 0.3326
C25_2 C 0.08733(17) 0.43005(13) 0.16190(11)
C26_2 C 0.07029(19) 0.47806(14) 0.11969(11)
H20 H 0.0561 0.5269 0.1271
C28_2 C 0.08608(18) 0.42143(13) 0.31263(11)
C29_2 C 0.08239(19) 0.46054(14) 0.21735(11)
O1_2 O 0.36257(10) 0.05269(8) 0.51038(7)
C1_2 C 0.23919(16) 0.34861(12) 0.50832(10)
S1_2 S 0.28648(4) 0.20116(3) 0.51044(3)
N1_2 N 0.12558(13) 0.43977(10) 0.59440(8)
O3_2 O 0.16215(11) 0.32583(8) 0.51233(7)
O4_2 O 0.25714(11) 0.41595(8) 0.50566(7)
C3_2 C 0.39269(14) 0.17808(12) 0.50116(9)
C4_2 C 0.44383(16) 0.23931(12) 0.49427(10)
H3_2 H 0.5030 0.2375 0.4881
O5_2 O 0.16955(16) 0.52802(10) 0.79082(8)
C5_2 C 0.15591(17) 0.44749(12) 0.95072(10)
H4_2 H 0.1790 0.4729 0.9798
C6_2 C 0.30986(16) 0.29375(12) 0.50593(10)
N4_2 N 0.14781(15) 0.41128(11) 0.76023(9)
H5_2 H 0.1480 0.3658 0.7703
C7_2 C 0.08952(17) 0.37089(13) 0.86366(11)
H6_2 H 0.0674 0.3448 0.8347
C8_2 C 0.16931(17) 0.47249(13) 0.89917(11)
H7_2 H 0.2002 0.5159 0.8939
C9_2 C 0.39552(16) 0.30570(12) 0.49772(10)
H8_2 H 0.4199 0.3525 0.4947
C10_2 C 0.09226(17) 0.38171(13) 0.62032(11)
H9_2 H 0.0629 0.3464 0.6003
C11_2 C 0.13770(17) 0.43423(13) 0.85492(11)
C12_2 C 0.17640(18) 0.48491(13) 0.67909(11)
H10_2 H 0.2056 0.5213 0.6981
C15_2 C 0.15366(19) 0.46305(14) 0.79982(11)
C16_2 C 0.09879(18) 0.37107(13) 0.67447(11)
H12_2 H 0.0752 0.3293 0.6905
C19_2 C 0.07400(17) 0.34613(13) 0.91495(11)
H15_2 H 0.0409 0.3039 0.9204
C20_2 C 0.14147(17) 0.42405(13) 0.70514(11)
C21_2 C 0.16678(18) 0.49023(13) 0.62433(11)
H16_2 H 0.1902 0.5312 0.6072
C27_2 C 0.10769(16) 0.38414(12) 0.95849(10)
C30_2 C 0.41925(15) 0.10011(12) 0.49905(9)
O8_2 O 0.13743(10) 0.55269(8) 0.51038(7)
Co4_2 Co 0.38045(2) 0.94173(2) 0.50915(2)
O5_3 O 0.33045(16) 0.02802(10) 0.79082(8)
H7_3 H 0.2998 0.0159 0.8939
H10_3 H 0.2944 0.0213 0.6981
H16_3 H 0.3098 0.0312 0.6072
C2_3 C 0.38586(17) 0.83381(13) 0.09792(11)
H1_3 H 0.3704 0.7853 0.0903
N2_3 N 0.42245(15) 0.90912(11) 0.25786(9)
H2_3 H 0.4318 0.8642 0.2482
N3_2 N 0.39199(13) 0.93578(10) 0.42392(8)
O7_3 O 0.40617(11) 0.84960(9) 0.00671(7)
C13_3 C 0.40420(18) 0.86998(13) 0.40047(11)
H11_3 H 0.4052 0.8283 0.4222
C14_3 C 0.40447(16) 0.88242(12) 0.05657(10)
C17_3 C 0.39036(17) 0.85740(13) 0.15025(11)
H13_3 H 0.3784 0.8246 0.1779
C18_3 C 0.42612(17) 0.95487(13) 0.06703(11)
H14_3 H 0.4381 0.9875 0.0392
C22_3 C 0.4030(2) 0.98997(14) 0.33617(12)
C23_3 C 0.39171(18) 0.99408(13) 0.39071(11)
C24_3 C 0.41529(19) 0.86032(14) 0.34654(11)
H19_3 H 0.4237 0.8132 0.3326
C25_3 C 0.41267(17) 0.93005(13) 0.16190(11)
C26_3 C 0.42971(19) 0.97806(14) 0.11969(11)
C28_3 C 0.41392(18) 0.92143(13) 0.31263(11)
C29_3 C 0.41761(19) 0.96054(14) 0.21735(11)
O2_2 O 0.00551(11) 0.58624(9) 0.48428(7)
C1_3 C 0.26081(16) 0.84861(12) 0.50832(10)
S1_3 S 0.21352(4) 0.70116(3) 0.51044(3)
N1_3 N 0.37442(13) 0.93977(10) 0.59440(8)
O3_3 O 0.33785(11) 0.82583(8) 0.51233(7)
O4_3 O 0.24286(11) 0.91595(8) 0.50566(7)
C3_3 C 0.10731(14) 0.67808(12) 0.50116(9)
C4_3 C 0.05617(16) 0.73931(12) 0.49427(10)
C5_3 C 0.34409(17) 0.94749(12) 0.95072(10)
H4_3 H 0.3210 0.9729 0.9798
C6_3 C 0.19014(16) 0.79375(12) 0.50593(10)
N4_3 N 0.35219(15) 0.91128(11) 0.76023(9)
H5_3 H 0.3520 0.8658 0.7703
C7_3 C 0.41048(17) 0.87089(13) 0.86366(11)
H6_3 H 0.4326 0.8448 0.8347
C8_3 C 0.33069(17) 0.97249(13) 0.89917(11)
C9_3 C 0.10448(16) 0.80570(12) 0.49772(10)
H8_3 H 0.0801 0.8525 0.4947
C10_3 C 0.40774(17) 0.88171(13) 0.62032(11)
H9_3 H 0.4371 0.8464 0.6003
C11_3 C 0.36230(17) 0.93423(13) 0.85492(11)
C12_3 C 0.32360(18) 0.98491(13) 0.67909(11)
C15_3 C 0.34634(19) 0.96305(14) 0.79982(11)
C16_3 C 0.40121(18) 0.87107(13) 0.67447(11)
H12_3 H 0.4248 0.8293 0.6905
C19_3 C 0.42600(17) 0.84613(13) 0.91495(11)
H15_3 H 0.4591 0.8039 0.9204
C20_3 C 0.35853(17) 0.92405(13) 0.70514(11)
C21_3 C 0.33322(18) 0.99023(13) 0.62433(11)
C27_3 C 0.39231(16) 0.88414(12) 0.95849(10)
C30_3 C 0.08075(15) 0.60011(12) 0.49905(9)
O9_2 O 0.50551(11) 0.91376(9) 0.51572(7)
H3_3 H 0.9970 0.7375 0.4881
C1_4 C 0.76081(16) 0.65139(12) 0.49168(10)
S1_4 S 0.71352(4) 0.79884(3) 0.48956(3)
N1_4 N 0.87442(13) 0.56023(10) 0.40560(8)
O3_4 O 0.83785(11) 0.67417(8) 0.48767(7)
O4_4 O 0.74286(11) 0.58405(8) 0.49434(7)
C3_4 C 0.60731(14) 0.82192(12) 0.49884(9)
C4_4 C 0.55617(16) 0.76069(12) 0.50573(10)
H3_4 H 0.4970 0.7625 0.5119
O5_4 O 0.83045(16) 0.47198(10) 0.20918(8)
C5_4 C 0.84409(17) 0.55251(12) 0.04928(10)
H4_4 H 0.8210 0.5271 0.0202
C6_4 C 0.69014(16) 0.70625(12) 0.49407(10)
N4_4 N 0.85219(15) 0.58872(11) 0.23977(9)
H5_4 H 0.8520 0.6342 0.2297
C7_4 C 0.91048(17) 0.62911(13) 0.13634(11)
H6_4 H 0.9326 0.6552 0.1653
C8_4 C 0.83069(17) 0.52751(13) 0.10083(11)
H7_4 H 0.7998 0.4841 0.1061
C9_4 C 0.60448(16) 0.69430(12) 0.50228(10)
H8_4 H 0.5801 0.6475 0.5053
C10_4 C 0.90774(17) 0.61829(13) 0.37968(11)
H9_4 H 0.9371 0.6536 0.3997
C11_4 C 0.86230(17) 0.56577(13) 0.14508(11)
C12_4 C 0.82360(18) 0.51509(13) 0.32091(11)
H10_4 H 0.7944 0.4787 0.3019
C15_4 C 0.84634(19) 0.53695(14) 0.20018(11)
C16_4 C 0.90121(18) 0.62893(13) 0.32553(11)
H12_4 H 0.9248 0.6707 0.3095
C19_4 C 0.92600(17) 0.65387(13) 0.08505(11)
H15_4 H 0.9591 0.6961 0.0796
C20_4 C 0.85853(17) 0.57595(13) 0.29486(11)
C21_4 C 0.83322(18) 0.50977(13) 0.37567(11)
H16_4 H 0.8098 0.4688 0.3928
C27_4 C 0.89231(16) 0.61586(12) 0.04151(10)
C30_4 C 0.58075(15) 0.89989(12) 0.50095(9)
N5_2 N 0.89199(13) 0.56422(10) 0.57608(8)
C2_4 C 0.88586(17) 0.66619(13) 0.90208(11)
H1_4 H 0.8704 0.7147 0.9097
N2_4 N 0.92245(15) 0.59088(11) 0.74214(9)
H2_4 H 0.9318 0.6358 0.7518
O6_2 O 0.91618(16) 0.47325(10) 0.77397(8)
O7_4 O 0.90617(11) 0.65040(9) 0.99329(7)
C13_4 C 0.90420(18) 0.63002(13) 0.59953(11)
H11_4 H 0.9052 0.6717 0.5778
C14_4 C 0.90447(16) 0.61758(12) 0.94343(10)
C17_4 C 0.89036(17) 0.64260(13) 0.84975(11)
H13_4 H 0.8784 0.6754 0.8221
C18_4 C 0.92612(17) 0.54513(13) 0.93297(11)
H14_4 H 0.9381 0.5125 0.9608
C22_4 C 0.9030(2) 0.51003(14) 0.66383(12)
H17_2 H 0.9033 0.4674 0.6846
C23_4 C 0.89171(18) 0.50592(13) 0.60929(11)
H18_2 H 0.8833 0.4594 0.5943
C24_4 C 0.91529(19) 0.63968(14) 0.65346(11)
H19_4 H 0.9237 0.6868 0.6674
C25_4 C 0.91267(17) 0.56995(13) 0.83810(11)
C26_4 C 0.92971(19) 0.52194(14) 0.88031(11)
H20_2 H 0.9439 0.4731 0.8729
C28_4 C 0.91392(18) 0.57857(13) 0.68737(11)
C29_4 C 0.91761(19) 0.53946(14) 0.78265(11)
O6_3 O 0.58382(16) 0.97325(10) 0.77397(8)
H17_3 H 0.5967 0.9674 0.6846
H18_3 H 0.6167 0.9594 0.5943
H20_3 H 0.5561 0.9731 0.8729
Co4_3 Co 0.11955(2) 0.05827(2) 0.00915(2)
Co2 Co 0.38045(2) 0.55827(2) 0.00915(2)
O1_3 O 0.13743(10) 0.94731(8) 0.01038(7)
C1_5 C 0.26081(16) 0.65139(12) 0.00832(10)
C2_5 C 0.38586(17) 0.66619(13) 0.59792(11)
H1_5 H 0.3704 0.7147 0.5903
S1_5 S 0.21352(4) 0.79884(3) 0.01044(3)
N1_5 N 0.37442(13) 0.56023(10) 0.09440(8)
N2_5 N 0.42245(15) 0.59088(11) 0.75786(9)
H2_5 H 0.4318 0.6358 0.7482
O3_5 O 0.33785(11) 0.67417(8) 0.01233(7)
O4_5 O 0.24286(11) 0.58405(8) 0.00566(7)
C3_5 C 0.10731(14) 0.82192(12) 0.00116(9)
N3_3 N 0.39199(13) 0.56422(10) 0.92392(8)
O5_5 O 0.33045(16) 0.47198(10) 0.29082(8)
O6_4 O 0.41618(16) 0.47325(10) 0.72603(8)
C5_5 C 0.34409(17) 0.55251(12) 0.45072(10)
H4_5 H 0.3210 0.5271 0.4798
C6_5 C 0.19014(16) 0.70625(12) 0.00593(10)
O7_5 O 0.40617(11) 0.65040(9) 0.50671(7)
N4_5 N 0.35219(15) 0.58872(11) 0.26023(9)
H5_5 H 0.3520 0.6342 0.2703
C7_5 C 0.41048(17) 0.62911(13) 0.36366(11)
H6_5 H 0.4326 0.6552 0.3347
C8_5 C 0.33069(17) 0.52751(13) 0.39917(11)
H7_5 H 0.2998 0.4841 0.3939
C10_5 C 0.40774(17) 0.61829(13) 0.12032(11)
H9_5 H 0.4371 0.6536 0.1003
C11_5 C 0.36230(17) 0.56577(13) 0.35492(11)
C12_5 C 0.32360(18) 0.51509(13) 0.17909(11)
H10_5 H 0.2944 0.4787 0.1981
C13_5 C 0.40420(18) 0.63002(13) 0.90047(11)
H11_5 H 0.4052 0.6717 0.9222
C14_5 C 0.40447(16) 0.61758(12) 0.55657(10)
C15_5 C 0.34634(19) 0.53695(14) 0.29982(11)
C16_5 C 0.40121(18) 0.62893(13) 0.17447(11)
H12_5 H 0.4248 0.6707 0.1905
C17_5 C 0.39036(17) 0.64260(13) 0.65025(11)
H13_5 H 0.3784 0.6754 0.6779
C18_5 C 0.42612(17) 0.54513(13) 0.56703(11)
H14_5 H 0.4381 0.5125 0.5392
C19_5 C 0.42600(17) 0.65387(13) 0.41495(11)
H15_5 H 0.4591 0.6961 0.4204
C20_5 C 0.35853(17) 0.57595(13) 0.20514(11)
C21_5 C 0.33322(18) 0.50977(13) 0.12433(11)
H16_5 H 0.3098 0.4688 0.1072
C22_5 C 0.4030(2) 0.51003(14) 0.83617(12)
H17_4 H 0.4033 0.4674 0.8154
C23_5 C 0.39171(18) 0.50592(13) 0.89071(11)
H18_4 H 0.3833 0.4594 0.9057
C24_5 C 0.41529(19) 0.63968(14) 0.84654(11)
H19_5 H 0.4237 0.6868 0.8326
C25_5 C 0.41267(17) 0.56995(13) 0.66190(11)
C26_5 C 0.42971(19) 0.52194(14) 0.61969(11)
H20_4 H 0.4439 0.4731 0.6271
C27_5 C 0.39231(16) 0.61586(12) 0.45849(10)
C28_5 C 0.41392(18) 0.57857(13) 0.81263(11)
C29_5 C 0.41761(19) 0.53946(14) 0.71735(11)
O8_3 O 0.36257(10) 0.44731(8) 0.01038(7)
O9_3 O 0.50551(11) 0.58624(9) 0.01572(7)
O2_3 O 0.00551(11) 0.91376(9) 0.98428(7)
C4_5 C 0.05617(16) 0.76069(12) 0.99427(10)
C9_5 C 0.10448(16) 0.69430(12) 0.99772(10)
H8_5 H 0.0801 0.6475 0.9947
C30_5 C 0.08075(15) 0.89989(12) 0.99905(9)
H3_5 H 0.9970 0.7625 0.9881
Co3_2 Co 0.88045(2) 0.94173(2) 0.99085(2)
O5_6 O 0.83045(16) 0.02802(10) 0.70918(8)
O6_5 O 0.91618(16) 0.02675(10) 0.27397(8)
H7_6 H 0.7998 0.0159 0.6061
H10_6 H 0.7944 0.0213 0.8019
H16_6 H 0.8098 0.0312 0.8928
H17_5 H 0.9033 0.0326 0.1846
H18_5 H 0.8833 0.0406 0.0943
H20_5 H 0.9439 0.0269 0.3729
O8_4 O 0.86257(10) 0.05269(8) 0.98962(7)
C4_6 C 0.55617(16) 0.73931(12) 0.00573(10)
H3_6 H 0.4970 0.7375 0.0119
C9_6 C 0.60448(16) 0.80570(12) 0.00228(10)
H8_6 H 0.5801 0.8525 0.0053
C30_6 C 0.58075(15) 0.60011(12) 0.00095(9)
N5_3 N 0.89199(13) 0.93578(10) 0.07608(8)
O1_4 O 0.63743(10) 0.55269(8) 0.98962(7)
C1_6 C 0.76081(16) 0.84861(12) 0.99168(10)
C2_6 C 0.88586(17) 0.83381(13) 0.40208(11)
H1_6 H 0.8704 0.7853 0.4097
S1_6 S 0.71352(4) 0.70116(3) 0.98956(3)
N1_6 N 0.87442(13) 0.93977(10) 0.90560(8)
N2_6 N 0.92245(15) 0.90912(11) 0.24214(9)
H2_6 H 0.9318 0.8642 0.2518
O3_6 O 0.83785(11) 0.82583(8) 0.98767(7)
O4_6 O 0.74286(11) 0.91595(8) 0.99434(7)
C3_6 C 0.60731(14) 0.67808(12) 0.99884(9)
C5_6 C 0.84409(17) 0.94749(12) 0.54928(10)
H4_6 H 0.8210 0.9729 0.5202
C6_6 C 0.69014(16) 0.79375(12) 0.99407(10)
O7_6 O 0.90617(11) 0.84960(9) 0.49329(7)
N4_6 N 0.85219(15) 0.91128(11) 0.73977(9)
H5_6 H 0.8520 0.8658 0.7297
C7_6 C 0.91048(17) 0.87089(13) 0.63634(11)
H6_6 H 0.9326 0.8448 0.6653
C8_6 C 0.83069(17) 0.97249(13) 0.60083(11)
C10_6 C 0.90774(17) 0.88171(13) 0.87968(11)
H9_6 H 0.9371 0.8464 0.8997
C11_6 C 0.86230(17) 0.93423(13) 0.64508(11)
C12_6 C 0.82360(18) 0.98491(13) 0.82091(11)
C13_6 C 0.90420(18) 0.86998(13) 0.09953(11)
H11_6 H 0.9052 0.8283 0.0778
C14_6 C 0.90447(16) 0.88242(12) 0.44343(10)
C15_6 C 0.84634(19) 0.96305(14) 0.70018(11)
C16_6 C 0.90121(18) 0.87107(13) 0.82553(11)
H12_6 H 0.9248 0.8293 0.8095
C17_6 C 0.89036(17) 0.85740(13) 0.34975(11)
H13_6 H 0.8784 0.8246 0.3221
C18_6 C 0.92612(17) 0.95487(13) 0.43297(11)
H14_6 H 0.9381 0.9875 0.4608
C19_6 C 0.92600(17) 0.84613(13) 0.58505(11)
H15_6 H 0.9591 0.8039 0.5796
C20_6 C 0.85853(17) 0.92405(13) 0.79486(11)
C21_6 C 0.83322(18) 0.99023(13) 0.87567(11)
C22_6 C 0.9030(2) 0.98997(14) 0.16383(12)
C23_6 C 0.89171(18) 0.99408(13) 0.10929(11)
C24_6 C 0.91529(19) 0.86032(14) 0.15346(11)
H19_6 H 0.9237 0.8132 0.1674
C25_6 C 0.91267(17) 0.93005(13) 0.33810(11)
C26_6 C 0.92971(19) 0.97806(14) 0.38031(11)
C27_6 C 0.89231(16) 0.88414(12) 0.54151(10)
C28_6 C 0.91392(18) 0.92143(13) 0.18737(11)
C29_6 C 0.91761(19) 0.96054(14) 0.28265(11)
Co4_4 Co 0.61955(2) 0.44173(2) 0.99085(2)
H3_7 H 0.0030 0.2375 0.0119
O2_4 O 0.99449(11) 0.08624(9) 0.01572(7)
C4_7 C 0.94383(16) 0.23931(12) 0.00573(10)
C9_7 C 0.89552(16) 0.30570(12) 0.00228(10)
H8_7 H 0.9199 0.3525 0.0053
C30_7 C 0.91925(15) 0.10011(12) 0.00095(9)
N5_4 N 0.60801(13) 0.43578(10) 0.07608(8)
C1_7 C 0.73919(16) 0.34861(12) 0.99168(10)
C2_7 C 0.61414(17) 0.33381(13) 0.40208(11)
H1_7 H 0.6296 0.2853 0.4097
S1_7 S 0.78648(4) 0.20116(3) 0.98956(3)
N1_7 N 0.62558(13) 0.43977(10) 0.90560(8)
N2_7 N 0.57755(15) 0.40912(11) 0.24214(9)
H2_7 H 0.5682 0.3642 0.2518
O3_7 O 0.66215(11) 0.32583(8) 0.98767(7)
O4_7 O 0.75714(11) 0.41595(8) 0.99434(7)
C3_7 C 0.89269(14) 0.17808(12) 0.99884(9)
O5_7 O 0.66955(16) 0.52802(10) 0.70918(8)
O6_6 O 0.58382(16) 0.52675(10) 0.27397(8)
C5_7 C 0.65591(17) 0.44749(12) 0.54928(10)
H4_7 H 0.6790 0.4729 0.5202
C6_7 C 0.80986(16) 0.29375(12) 0.99407(10)
O7_7 O 0.59383(11) 0.34960(9) 0.49329(7)
N4_7 N 0.64781(15) 0.41128(11) 0.73977(9)
H5_7 H 0.6480 0.3658 0.7297
C7_7 C 0.58952(17) 0.37089(13) 0.63634(11)
H6_7 H 0.5674 0.3448 0.6653
C8_7 C 0.66931(17) 0.47249(13) 0.60083(11)
H7_7 H 0.7002 0.5159 0.6061
C10_7 C 0.59226(17) 0.38171(13) 0.87968(11)
H9_7 H 0.5629 0.3464 0.8997
C11_7 C 0.63770(17) 0.43423(13) 0.64508(11)
C12_7 C 0.67640(18) 0.48491(13) 0.82091(11)
H10_7 H 0.7056 0.5213 0.8019
C13_7 C 0.59580(18) 0.36998(13) 0.09953(11)
H11_7 H 0.5948 0.3283 0.0778
C14_7 C 0.59553(16) 0.38242(12) 0.44343(10)
C15_7 C 0.65366(19) 0.46305(14) 0.70018(11)
C16_7 C 0.59879(18) 0.37107(13) 0.82553(11)
H12_7 H 0.5752 0.3293 0.8095
C17_7 C 0.60964(17) 0.35740(13) 0.34975(11)
H13_7 H 0.6216 0.3246 0.3221
C18_7 C 0.57388(17) 0.45487(13) 0.43297(11)
H14_7 H 0.5619 0.4875 0.4608
C19_7 C 0.57400(17) 0.34613(13) 0.58505(11)
H15_7 H 0.5409 0.3039 0.5796
C20_7 C 0.64147(17) 0.42405(13) 0.79486(11)
C21_7 C 0.66678(18) 0.49023(13) 0.87567(11)
H16_7 H 0.6902 0.5312 0.8928
C22_7 C 0.5970(2) 0.48997(14) 0.16383(12)
H17_6 H 0.5967 0.5326 0.1846
C23_7 C 0.60829(18) 0.49408(13) 0.10929(11)
H18_6 H 0.6167 0.5406 0.0943
C24_7 C 0.58471(19) 0.36032(14) 0.15346(11)
H19_7 H 0.5763 0.3132 0.1674
C25_7 C 0.58733(17) 0.43005(13) 0.33810(11)
C26_7 C 0.57029(19) 0.47806(14) 0.38031(11)
H20_6 H 0.5561 0.5269 0.3729
C27_7 C 0.60769(16) 0.38414(12) 0.54151(10)
C28_7 C 0.58608(18) 0.42143(13) 0.18737(11)
C29_7 C 0.58239(19) 0.46054(14) 0.28265(11)
O9_4 O 0.49449(11) 0.41376(9) 0.98428(7)
C1_8 C 0.23919(16) 0.15139(12) 0.00832(10)
C2_8 C 0.11414(17) 0.16619(13) 0.59792(11)
H1_8 H 0.1296 0.2147 0.5903
S1_8 S 0.28648(4) 0.29884(3) 0.01044(3)
N1_8 N 0.12558(13) 0.06023(10) 0.09440(8)
N2_8 N 0.07755(15) 0.09088(11) 0.75786(9)
H2_8 H 0.0682 0.1358 0.7482
O3_8 O 0.16215(11) 0.17417(8) 0.01233(7)
O4_8 O 0.25714(11) 0.08405(8) 0.00566(7)
C3_8 C 0.39269(14) 0.32192(12) 0.00116(9)
N3_4 N 0.10801(13) 0.06422(10) 0.92392(8)
C5_8 C 0.15591(17) 0.05251(12) 0.45072(10)
H4_8 H 0.1790 0.0271 0.4798
C6_8 C 0.30986(16) 0.20625(12) 0.00593(10)
O7_8 O 0.09383(11) 0.15040(9) 0.50671(7)
N4_8 N 0.14781(15) 0.08872(11) 0.26023(9)
H5_8 H 0.1480 0.1342 0.2703
C7_8 C 0.08952(17) 0.12911(13) 0.36366(11)
H6_8 H 0.0674 0.1552 0.3347
C8_8 C 0.16931(17) 0.02751(13) 0.39917(11)
C10_8 C 0.09226(17) 0.11829(13) 0.12032(11)
H9_8 H 0.0629 0.1536 0.1003
C11_8 C 0.13770(17) 0.06577(13) 0.35492(11)
C12_8 C 0.17640(18) 0.01509(13) 0.17909(11)
C13_8 C 0.09580(18) 0.13002(13) 0.90047(11)
H11_8 H 0.0948 0.1717 0.9222
C14_8 C 0.09553(16) 0.11758(12) 0.55657(10)
C15_8 C 0.15366(19) 0.03695(14) 0.29982(11)
C16_8 C 0.09879(18) 0.12893(13) 0.17447(11)
H12_8 H 0.0752 0.1707 0.1905
C17_8 C 0.10964(17) 0.14260(13) 0.65025(11)
H13_8 H 0.1216 0.1754 0.6779
C18_8 C 0.07388(17) 0.04513(13) 0.56703(11)
H14_8 H 0.0619 0.0125 0.5392
C19_8 C 0.07400(17) 0.15387(13) 0.41495(11)
H15_8 H 0.0409 0.1961 0.4204
C20_8 C 0.14147(17) 0.07595(13) 0.20514(11)
C21_8 C 0.16678(18) 0.00977(13) 0.12433(11)
C22_8 C 0.0970(2) 0.01003(14) 0.83617(12)
C23_8 C 0.10829(18) 0.00592(13) 0.89071(11)
C24_8 C 0.08471(19) 0.13968(14) 0.84654(11)
H19_8 H 0.0763 0.1868 0.8326
C25_8 C 0.08733(17) 0.06995(13) 0.66190(11)
C26_8 C 0.07029(19) 0.02194(14) 0.61969(11)
C27_8 C 0.10769(16) 0.11586(12) 0.45849(10)
C28_8 C 0.08608(18) 0.07857(13) 0.81263(11)
C29_8 C 0.08239(19) 0.03946(14) 0.71735(11)
C4_8 C 0.44383(16) 0.26069(12) 0.99427(10)
H3_8 H 0.5030 0.2625 0.9881
C9_8 C 0.39552(16) 0.19430(12) 0.99772(10)
H8_8 H 0.4199 0.1475 0.9947
C30_8 C 0.41925(15) 0.39989(12) 0.99905(9)
O5_8 O 0.16955(16) 0.97198(10) 0.29082(8)
O6_7 O 0.08382(16) 0.97325(10) 0.72603(8)
H7_8 H 0.2002 0.9841 0.3939
H10_8 H 0.2056 0.9787 0.1981
H16_8 H 0.1902 0.9688 0.1072
H17_7 H 0.0967 0.9674 0.8154
H18_7 H 0.1167 0.9594 0.9057
H20_7 H 0.0561 0.9731 0.6271
O6_8 O 0.41618(16) 0.02675(10) 0.22603(8)
H17_8 H 0.4033 0.0326 0.3154
H18_8 H 0.3833 0.0406 0.4057
H20_8 H 0.4439 0.0269 0.1271
loop_
_geom_bond_atom_site_label_1
_geom_bond_atom_site_label_2
_geom_bond_site_symmetry_1
_geom_bond_site_symmetry_2
O1 C30 1_555 1_555
Co1 N1 1_555 1_555
O2 C30 1_555 1_555
C1 O3 1_555 1_555
S1 C3 1_555 1_555
N1 C10 1_555 1_555
O3 Co1 1_555 1_555
O4 Co1 1_555 1_555
C3 C4 1_555 1_555
C5 H4 1_555 1_555
C6 C1 1_555 1_555
N4 H5 1_555 1_555
C7 H6 1_555 1_555
C8 C5 1_555 1_555
C9 C4 1_555 1_555
H8 C9 1_555 1_555
C10 H9 1_555 1_555
C11 C7 1_555 1_555
C15 N4 1_555 1_555
C16 C10 1_555 1_555
H12 C16 1_555 1_555
C19 C7 1_555 1_555
H15 C19 1_555 1_555
C20 N4 1_555 1_555
C21 N1 1_555 1_555
C27 C5 1_555 1_555
C30 C3 1_555 1_555
Co4 O1 1_555 1_555
O9 Co1 1_555 1_555
N5 Co1 1_555 1_555
C1 O4 1_555 1_555
S1 C6 1_555 1_555
C6 C9 1_555 1_555
C8 C11 1_555 1_555
C11 C15 1_555 1_555
C12 C20 1_555 1_555
C12 C21 1_555 1_555
C16 C20 1_555 1_555
C19 C27 1_555 1_555
C2 H1 1_555 1_555
N2 H2 1_555 1_555
N5 C13 1_555 1_555
O7 C14 1_555 1_555
C13 H11 1_555 1_555
C14 C2 1_555 1_555
C17 C2 1_555 1_555
H13 C17 1_555 1_555
C18 C14 1_555 1_555
H14 C18 1_555 1_555
C23 N5 1_555 1_555
C24 C13 1_555 1_555
H19 C24 1_555 1_555
C25 C17 1_555 1_555
C26 C18 1_555 1_555
C28 N2 1_555 1_555
C29 N2 1_555 1_555
C22 C23 1_555 1_555
C22 C28 1_555 1_555
C24 C28 1_555 1_555
C25 C26 1_555 1_555
C25 C29 1_555 1_555
C2_2 H1_2 1_555 1_555
N2_2 H2_2 1_555 1_555
N3 C13_2 1_555 1_555
O6 C29_2 1_555 1_555
O7_2 C14_2 1_555 1_555
C13_2 H11_2 1_555 1_555
C14_2 C2_2 1_555 1_555
C17_2 C2_2 1_555 1_555
H13_2 C17_2 1_555 1_555
C18_2 C14_2 1_555 1_555
H14_2 C18_2 1_555 1_555
C22_2 H17 1_555 1_555
C23_2 N3 1_555 1_555
H18 C23_2 1_555 1_555
C24_2 C13_2 1_555 1_555
H19_2 C24_2 1_555 1_555
C25_2 C17_2 1_555 1_555
C26_2 C18_2 1_555 1_555
H20 C26_2 1_555 1_555
C28_2 N2_2 1_555 1_555
C29_2 N2_2 1_555 1_555
Co3 N3 1_555 1_555
C22_2 C23_2 1_555 1_555
C22_2 C28_2 1_555 1_555
C24_2 C28_2 1_555 1_555
C25_2 C26_2 1_555 1_555
C25_2 C29_2 1_555 1_555
O1_2 C30_2 1_555 1_555
Co3 N1_2 1_555 1_555
O9 C30_2 1_555 1_555
C1_2 O3_2 1_555 1_555
S1_2 C3_2 1_555 1_555
N1_2 C10_2 1_555 1_555
O3_2 Co3 1_555 1_555
O4_2 Co3 1_555 1_555
C3_2 C4_2 1_555 1_555
C4_2 H3_2 1_555 1_555
O5_2 C15_2 1_555 1_555
C5_2 H4_2 1_555 1_555
C6_2 C1_2 1_555 1_555
N4_2 H5_2 1_555 1_555
C7_2 H6_2 1_555 1_555
C8_2 C5_2 1_555 1_555
H7_2 C8_2 1_555 1_555
C9_2 C4_2 1_555 1_555
H8_2 C9_2 1_555 1_555
C10_2 H9_2 1_555 1_555
C11_2 C7_2 1_555 1_555
C12_2 H10_2 1_555 1_555
C15_2 N4_2 1_555 1_555
C16_2 C10_2 1_555 1_555
H12_2 C16_2 1_555 1_555
C19_2 C7_2 1_555 1_555
H15_2 C19_2 1_555 1_555
C20_2 N4_2 1_555 1_555
C21_2 N1_2 1_555 1_555
H16_2 C21_2 1_555 1_555
C27_2 C5_2 1_555 1_555
C30_2 C3_2 1_555 1_555
O8_2 Co3 1_555 1_555
C1_2 O4_2 1_555 1_555
S1_2 C6_2 1_555 1_555
C6_2 C9_2 1_555 1_555
C8_2 C11_2 1_555 1_555
C11_2 C15_2 1_555 1_555
C12_2 C20_2 1_555 1_555
C12_2 C21_2 1_555 1_555
C16_2 C20_2 1_555 1_555
C19_2 C27_2 1_555 1_555
C2_3 H1_3 1_555 1_555
N2_3 H2_3 1_555 1_555
N3_2 C13_3 1_555 1_555
O7_3 C14_3 1_555 1_555
C13_3 H11_3 1_555 1_555
C14_3 C2_3 1_555 1_555
C17_3 C2_3 1_555 1_555
H13_3 C17_3 1_555 1_555
C18_3 C14_3 1_555 1_555
H14_3 C18_3 1_555 1_555
C23_3 N3_2 1_555 1_555
C24_3 C13_3 1_555 1_555
H19_3 C24_3 1_555 1_555
C25_3 C17_3 1_555 1_555
C26_3 C18_3 1_555 1_555
C28_3 N2_3 1_555 1_555
C29_3 N2_3 1_555 1_555
Co4_2 N3_2 1_555 1_555
C22_3 C23_3 1_555 1_555
C22_3 C28_3 1_555 1_555
C24_3 C28_3 1_555 1_555
C25_3 C26_3 1_555 1_555
C25_3 C29_3 1_555 1_555
O8_2 C30_3 1_555 1_555
Co4_2 N1_3 1_555 1_555
O2_2 C30_3 1_555 1_555
C1_3 O3_3 1_555 1_555
S1_3 C3_3 1_555 1_555
N1_3 C10_3 1_555 1_555
O3_3 Co4_2 1_555 1_555
O4_3 Co4_2 1_555 1_555
C3_3 C4_3 1_555 1_555
C5_3 H4_3 1_555 1_555
C6_3 C1_3 1_555 1_555
N4_3 H5_3 1_555 1_555
C7_3 H6_3 1_555 1_555
C8_3 C5_3 1_555 1_555
C9_3 C4_3 1_555 1_555
H8_3 C9_3 1_555 1_555
C10_3 H9_3 1_555 1_555
C11_3 C7_3 1_555 1_555
C15_3 N4_3 1_555 1_555
C16_3 C10_3 1_555 1_555
H12_3 C16_3 1_555 1_555
C19_3 C7_3 1_555 1_555
H15_3 C19_3 1_555 1_555
C20_3 N4_3 1_555 1_555
C21_3 N1_3 1_555 1_555
C27_3 C5_3 1_555 1_555
C30_3 C3_3 1_555 1_555
O9_2 Co4_2 1_555 1_555
C1_3 O4_3 1_555 1_555
S1_3 C6_3 1_555 1_555
C6_3 C9_3 1_555 1_555
C8_3 C11_3 1_555 1_555
C11_3 C15_3 1_555 1_555
C12_3 C20_3 1_555 1_555
C12_3 C21_3 1_555 1_555
C16_3 C20_3 1_555 1_555
C19_3 C27_3 1_555 1_555
O8 C30_4 1_555 1_555
Co4 N1_4 1_555 1_555
O9_2 C30_4 1_555 1_555
C1_4 O3_4 1_555 1_555
S1_4 C3_4 1_555 1_555
N1_4 C10_4 1_555 1_555
O3_4 Co4 1_555 1_555
O4_4 Co4 1_555 1_555
C3_4 C4_4 1_555 1_555
C4_4 H3_4 1_555 1_555
O5_4 C15_4 1_555 1_555
C5_4 H4_4 1_555 1_555
C6_4 C1_4 1_555 1_555
N4_4 H5_4 1_555 1_555
C7_4 H6_4 1_555 1_555
C8_4 C5_4 1_555 1_555
H7_4 C8_4 1_555 1_555
C9_4 C4_4 1_555 1_555
H8_4 C9_4 1_555 1_555
C10_4 H9_4 1_555 1_555
C11_4 C7_4 1_555 1_555
C12_4 H10_4 1_555 1_555
C15_4 N4_4 1_555 1_555
C16_4 C10_4 1_555 1_555
H12_4 C16_4 1_555 1_555
C19_4 C7_4 1_555 1_555
H15_4 C19_4 1_555 1_555
C20_4 N4_4 1_555 1_555
C21_4 N1_4 1_555 1_555
H16_4 C21_4 1_555 1_555
C27_4 C5_4 1_555 1_555
C30_4 C3_4 1_555 1_555
N5_2 Co4 1_555 1_555
C1_4 O4_4 1_555 1_555
S1_4 C6_4 1_555 1_555
C6_4 C9_4 1_555 1_555
C8_4 C11_4 1_555 1_555
C11_4 C15_4 1_555 1_555
C12_4 C20_4 1_555 1_555
C12_4 C21_4 1_555 1_555
C16_4 C20_4 1_555 1_555
C19_4 C27_4 1_555 1_555
C2_4 H1_4 1_555 1_555
N2_4 H2_4 1_555 1_555
N5_2 C13_4 1_555 1_555
O6_2 C29_4 1_555 1_555
O7_4 C14_4 1_555 1_555
C13_4 H11_4 1_555 1_555
C14_4 C2_4 1_555 1_555
C17_4 C2_4 1_555 1_555
H13_4 C17_4 1_555 1_555
C18_4 C14_4 1_555 1_555
H14_4 C18_4 1_555 1_555
C22_4 H17_2 1_555 1_555
C23_4 N5_2 1_555 1_555
H18_2 C23_4 1_555 1_555
C24_4 C13_4 1_555 1_555
H19_4 C24_4 1_555 1_555
C25_4 C17_4 1_555 1_555
C26_4 C18_4 1_555 1_555
H20_2 C26_4 1_555 1_555
C28_4 N2_4 1_555 1_555
C29_4 N2_4 1_555 1_555
C22_4 C23_4 1_555 1_555
C22_4 C28_4 1_555 1_555
C24_4 C28_4 1_555 1_555
C25_4 C26_4 1_555 1_555
C25_4 C29_4 1_555 1_555
Co2 N1_5 1_555 1_555
C1_5 O3_5 1_555 1_555
C2_5 H1_5 1_555 1_555
S1_5 C3_5 1_555 1_555
N1_5 C10_5 1_555 1_555
N2_5 H2_5 1_555 1_555
O3_5 Co2 1_555 1_555
O4_5 Co2 1_555 1_555
N3_3 C13_5 1_555 1_555
O5_5 C15_5 1_555 1_555
O6_4 C29_5 1_555 1_555
C5_5 H4_5 1_555 1_555
C6_5 C1_5 1_555 1_555
O7_5 C14_5 1_555 1_555
N4_5 H5_5 1_555 1_555
C7_5 H6_5 1_555 1_555
C8_5 C5_5 1_555 1_555
H7_5 C8_5 1_555 1_555
C10_5 H9_5 1_555 1_555
C11_5 C7_5 1_555 1_555
C12_5 H10_5 1_555 1_555
C13_5 H11_5 1_555 1_555
C14_5 C2_5 1_555 1_555
C15_5 N4_5 1_555 1_555
C16_5 C10_5 1_555 1_555
H12_5 C16_5 1_555 1_555
C17_5 C2_5 1_555 1_555
H13_5 C17_5 1_555 1_555
C18_5 C14_5 1_555 1_555
H14_5 C18_5 1_555 1_555
C19_5 C7_5 1_555 1_555
H15_5 C19_5 1_555 1_555
C20_5 N4_5 1_555 1_555
C21_5 N1_5 1_555 1_555
H16_5 C21_5 1_555 1_555
C22_5 H17_4 1_555 1_555
C23_5 N3_3 1_555 1_555
H18_4 C23_5 1_555 1_555
C24_5 C13_5 1_555 1_555
H19_5 C24_5 1_555 1_555
C25_5 C17_5 1_555 1_555
C26_5 C18_5 1_555 1_555
H20_4 C26_5 1_555 1_555
C27_5 C5_5 1_555 1_555
C28_5 N2_5 1_555 1_555
C29_5 N2_5 1_555 1_555
O8_3 Co2 1_555 1_555
O9_3 Co2 1_555 1_555
C1_5 O4_5 1_555 1_555
S1_5 C6_5 1_555 1_555
O7_5 C27_5 1_555 1_555
C8_5 C11_5 1_555 1_555
C11_5 C15_5 1_555 1_555
C12_5 C20_5 1_555 1_555
C12_5 C21_5 1_555 1_555
C16_5 C20_5 1_555 1_555
C19_5 C27_5 1_555 1_555
C22_5 C23_5 1_555 1_555
C22_5 C28_5 1_555 1_555
C24_5 C28_5 1_555 1_555
C25_5 C26_5 1_555 1_555
C25_5 C29_5 1_555 1_555
O2_3 C30_5 1_555 1_555
C9_5 C4_5 1_555 1_555
H8_5 C9_5 1_555 1_555
O9_3 C30_6 1_555 1_555
C4_6 H3_6 1_555 1_555
C9_6 C4_6 1_555 1_555
H8_6 C9_6 1_555 1_555
Co3_2 N1_6 1_555 1_555
C1_6 O3_6 1_555 1_555
C2_6 H1_6 1_555 1_555
S1_6 C3_6 1_555 1_555
N1_6 C10_6 1_555 1_555
N2_6 H2_6 1_555 1_555
O3_6 Co3_2 1_555 1_555
O4_6 Co3_2 1_555 1_555
N5_3 C13_6 1_555 1_555
C5_6 H4_6 1_555 1_555
C6_6 C1_6 1_555 1_555
O7_6 C14_6 1_555 1_555
N4_6 H5_6 1_555 1_555
C7_6 H6_6 1_555 1_555
C8_6 C5_6 1_555 1_555
C10_6 H9_6 1_555 1_555
C11_6 C7_6 1_555 1_555
C13_6 H11_6 1_555 1_555
C14_6 C2_6 1_555 1_555
C15_6 N4_6 1_555 1_555
C16_6 C10_6 1_555 1_555
H12_6 C16_6 1_555 1_555
C17_6 C2_6 1_555 1_555
H13_6 C17_6 1_555 1_555
C18_6 C14_6 1_555 1_555
H14_6 C18_6 1_555 1_555
C19_6 C7_6 1_555 1_555
H15_6 C19_6 1_555 1_555
C20_6 N4_6 1_555 1_555
C21_6 N1_6 1_555 1_555
C23_6 N5_3 1_555 1_555
C24_6 C13_6 1_555 1_555
H19_6 C24_6 1_555 1_555
C25_6 C17_6 1_555 1_555
C26_6 C18_6 1_555 1_555
C27_6 C5_6 1_555 1_555
C28_6 N2_6 1_555 1_555
C29_6 N2_6 1_555 1_555
Co4_4 O1_4 1_555 1_555
C1_6 O4_6 1_555 1_555
S1_6 C6_6 1_555 1_555
O7_6 C27_6 1_555 1_555
C8_6 C11_6 1_555 1_555
C11_6 C15_6 1_555 1_555
C12_6 C20_6 1_555 1_555
C12_6 C21_6 1_555 1_555
C16_6 C20_6 1_555 1_555
C19_6 C27_6 1_555 1_555
C22_6 C23_6 1_555 1_555
C22_6 C28_6 1_555 1_555
C24_6 C28_6 1_555 1_555
C25_6 C26_6 1_555 1_555
C25_6 C29_6 1_555 1_555
O2_4 C30_7 1_555 1_555
C9_7 C4_7 1_555 1_555
H8_7 C9_7 1_555 1_555
Co4_4 N1_7 1_555 1_555
C1_7 O3_7 1_555 1_555
C2_7 H1_7 1_555 1_555
S1_7 C3_7 1_555 1_555
N1_7 C10_7 1_555 1_555
N2_7 H2_7 1_555 1_555
O3_7 Co4_4 1_555 1_555
O4_7 Co4_4 1_555 1_555
N5_4 C13_7 1_555 1_555
O5_7 C15_7 1_555 1_555
O6_6 C29_7 1_555 1_555
C5_7 H4_7 1_555 1_555
C6_7 C1_7 1_555 1_555
O7_7 C14_7 1_555 1_555
N4_7 H5_7 1_555 1_555
C7_7 H6_7 1_555 1_555
C8_7 C5_7 1_555 1_555
H7_7 C8_7 1_555 1_555
C10_7 H9_7 1_555 1_555
C11_7 C7_7 1_555 1_555
C12_7 H10_7 1_555 1_555
C13_7 H11_7 1_555 1_555
C14_7 C2_7 1_555 1_555
C15_7 N4_7 1_555 1_555
C16_7 C10_7 1_555 1_555
H12_7 C16_7 1_555 1_555
C17_7 C2_7 1_555 1_555
H13_7 C17_7 1_555 1_555
C18_7 C14_7 1_555 1_555
H14_7 C18_7 1_555 1_555
C19_7 C7_7 1_555 1_555
H15_7 C19_7 1_555 1_555
C20_7 N4_7 1_555 1_555
C21_7 N1_7 1_555 1_555
H16_7 C21_7 1_555 1_555
C22_7 H17_6 1_555 1_555
C23_7 N5_4 1_555 1_555
H18_6 C23_7 1_555 1_555
C24_7 C13_7 1_555 1_555
H19_7 C24_7 1_555 1_555
C25_7 C17_7 1_555 1_555
C26_7 C18_7 1_555 1_555
H20_6 C26_7 1_555 1_555
C27_7 C5_7 1_555 1_555
C28_7 N2_7 1_555 1_555
C29_7 N2_7 1_555 1_555
O9_4 Co4_4 1_555 1_555
C1_7 O4_7 1_555 1_555
S1_7 C6_7 1_555 1_555
O7_7 C27_7 1_555 1_555
C8_7 C11_7 1_555 1_555
C11_7 C15_7 1_555 1_555
C12_7 C20_7 1_555 1_555
C12_7 C21_7 1_555 1_555
C16_7 C20_7 1_555 1_555
C19_7 C27_7 1_555 1_555
C22_7 C23_7 1_555 1_555
C22_7 C28_7 1_555 1_555
C24_7 C28_7 1_555 1_555
C25_7 C26_7 1_555 1_555
C25_7 C29_7 1_555 1_555
Co4_3 N1_8 1_555 1_555
C1_8 O3_8 1_555 1_555
C2_8 H1_8 1_555 1_555
S1_8 C3_8 1_555 1_555
N1_8 C10_8 1_555 1_555
N2_8 H2_8 1_555 1_555
O3_8 Co4_3 1_555 1_555
O4_8 Co4_3 1_555 1_555
N3_4 C13_8 1_555 1_555
C5_8 H4_8 1_555 1_555
C6_8 C1_8 1_555 1_555
O7_8 C14_8 1_555 1_555
N4_8 H5_8 1_555 1_555
C7_8 H6_8 1_555 1_555
C8_8 C5_8 1_555 1_555
C10_8 H9_8 1_555 1_555
C11_8 C7_8 1_555 1_555
C13_8 H11_8 1_555 1_555
C14_8 C2_8 1_555 1_555
C15_8 N4_8 1_555 1_555
C16_8 C10_8 1_555 1_555
H12_8 C16_8 1_555 1_555
C17_8 C2_8 1_555 1_555
H13_8 C17_8 1_555 1_555
C18_8 C14_8 1_555 1_555
H14_8 C18_8 1_555 1_555
C19_8 C7_8 1_555 1_555
H15_8 C19_8 1_555 1_555
C20_8 N4_8 1_555 1_555
C21_8 N1_8 1_555 1_555
C23_8 N3_4 1_555 1_555
C24_8 C13_8 1_555 1_555
H19_8 C24_8 1_555 1_555
C25_8 C17_8 1_555 1_555
C26_8 C18_8 1_555 1_555
C27_8 C5_8 1_555 1_555
C28_8 N2_8 1_555 1_555
C29_8 N2_8 1_555 1_555
C1_8 O4_8 1_555 1_555
S1_8 C6_8 1_555 1_555
O7_8 C27_8 1_555 1_555
C8_8 C11_8 1_555 1_555
C11_8 C15_8 1_555 1_555
C12_8 C20_8 1_555 1_555
C12_8 C21_8 1_555 1_555
C16_8 C20_8 1_555 1_555
C19_8 C27_8 1_555 1_555
C22_8 C23_8 1_555 1_555
C22_8 C28_8 1_555 1_555
C24_8 C28_8 1_555 1_555
C25_8 C26_8 1_555 1_555
C25_8 C29_8 1_555 1_555
O9_4 C30_8 1_555 1_555
C4_8 H3_8 1_555 1_555
C9_8 C4_8 1_555 1_555
H8_8 C9_8 1_555 1_555

#END
