
###############################################################################
#
# This file contains modified crystal structure data generated from the
# MOF subset of the Cambridge Structural Database (CSD) v543 
# hosted by the Cambridge Crystallographic Data Centre (CCDC).
#
# This work is licensed under the Creative Commons
# Attribution-NonCommercial-ShareAlike 4.0 International License.
# To view a copy of this license, visit
# http://creativecommons.org/licenses/by-nc-sa/4.0/
# or send a letter to
# Creative Commons, PO Box 1866, Mountain View, CA 94042, USA.
#
# CIF created using the CSD Python API on 29 September 2022
# The structure has been converted into the P1 space group
# The structure has a 3D framework
# The original CSD entry WEDQED is in the monoclinic crystal system
# The framework has been calculated to contain at least 10.0% void space
# The void calculation uses a probe of radius 1.32A, grid spacing 0.4
#
###############################################################################

data_WEDQED
_chemical_formula_moiety         '(C176 H158 Co16 N16 O61)n'
_symmetry_cell_setting           triclinic
_symmetry_space_group_name_H-M   'P 1'
_symmetry_Int_Tables_number      1
_space_group_name_Hall           'P 1'
loop_
_symmetry_equiv_pos_site_id
_symmetry_equiv_pos_as_xyz
1 x,y,z
_cell_length_a                   20.6969(19)
_cell_length_b                   18.0075(16)
_cell_length_c                   14.8130(13)
_cell_angle_alpha                90
_cell_angle_beta                 90.320(2)
_cell_angle_gamma                90
_cell_volume                     5520.71
loop_
_atom_site_label
_atom_site_type_symbol
_atom_site_fract_x
_atom_site_fract_y
_atom_site_fract_z
Co1 Co 0.62908(3) 0.07701(4) 0.03892(4)
O1 O 0.53122(17) 0.06947(19) 0.0130(2)
O4 O 0.61007(16) 0.03459(19) 0.1683(2)
N1 N 0.6219(2) 0.1908(2) 0.0744(3)
N2 N 0.7724(2) 0.5727(3) 0.4071(3)
C10 C 0.6617(3) 0.2417(4) 0.0385(4)
C11 C 0.6645(4) 0.3142(4) 0.0650(5)
H8 H 0.6926 0.3471 0.0369
C12 C 0.6257(5) 0.3381(4) 0.1331(7)
C13 C 0.5833(5) 0.2865(4) 0.1699(6)
H9 H 0.5559 0.3006 0.2163
C14 C 0.5816(3) 0.2139(4) 0.1377(5)
H10 H 0.5516 0.1808 0.1611
C15 C 0.6350(4) 0.4187(5) 0.1677(8)
H11 H 0.6783 0.4232 0.1926
H12 H 0.6320 0.4522 0.1165
C16 C 0.5888(5) 0.4428(5) 0.2361(8)
H13 H 0.5946 0.4131 0.2902
H14 H 0.5452 0.4345 0.2138
C17 C 0.5967(4) 0.5240(4) 0.2598(8)
H15 H 0.5599 0.5395 0.2954
H16 H 0.5963 0.5528 0.2045
C18 C 0.6584(3) 0.5421(4) 0.3123(6)
C19 C 0.7035(4) 0.5899(5) 0.2780(5)
H17 H 0.6965 0.6132 0.2227
C20 C 0.7605(3) 0.6035(4) 0.3273(5)
H18 H 0.7912 0.6354 0.3030
C21 C 0.7278(3) 0.5277(4) 0.4401(5)
H19 H 0.7348 0.5062 0.4964
C22 C 0.6701(3) 0.5109(4) 0.3932(6)
H20 H 0.6403 0.4784 0.4183
Co5 Co 0.87092(3) 0.57701(4) 0.46108(4)
Co8 Co 0.46685(3) 0.00899(4) 0.09039(4)
Co9 Co 0.53315(3) 0.00899(4) 0.40961(4)
O12 O 0.37957(17) 0.0366(2) 0.0095(2)
O21 O 0.4438(2) 0.0980(2) 0.1770(3)
H23 H 0.429(4) 0.083(5) 0.228(3)
H24 H 0.413(3) 0.118(5) 0.147(5)
N5 N 0.7276(2) 0.0727(3) 0.0929(3)
C39 C 0.9033(4) 0.0240(4) 0.2402(8)
H36 H 0.9401 0.0395 0.2046
H37 H 0.9037 0.0528 0.2955
C40 C 0.8416(3) 0.0421(4) 0.1877(6)
C41 C 0.7965(4) 0.0899(5) 0.2220(5)
H38 H 0.8035 0.1132 0.2773
C42 C 0.7395(3) 0.1035(4) 0.1727(5)
H39 H 0.7088 0.1354 0.1970
C43 C 0.7722(3) 0.0277(4) 0.0599(5)
H40 H 0.7652 0.0062 0.0036
C44 C 0.8299(3) 0.0109(4) 0.1068(6)
H1 H 0.525(3) 0.1115(18) 0.989(4)
H7 H 0.6892 0.2265 0.9925
O11 O 0.62043(17) 0.0366(2) 0.4905(2)
O13 O 0.6535(3) 0.1447(3) 0.4364(3)
O15 O 0.53922(16) 0.0579(2) 0.6488(2)
O16 O 0.46078(16) 0.0579(2) 0.8512(2)
O17 O 0.59220(17) 0.0522(2) 0.8305(2)
O19 O 0.66852(18) 0.1067(2) 0.9146(2)
C23 C 0.6741(2) 0.1199(3) 0.5901(3)
C24 C 0.6488(2) 0.0909(3) 0.6704(3)
C25 C 0.6720(2) 0.1165(3) 0.7533(3)
C26 C 0.7207(3) 0.1702(3) 0.7557(4)
H25 H 0.7360 0.1873 0.8111
C27 C 0.7462(3) 0.1982(4) 0.6775(4)
H26 H 0.7790 0.2335 0.6798
C28 C 0.7228(3) 0.1733(3) 0.5945(4)
H27 H 0.7399 0.1925 0.5414
C29 C 0.6480(3) 0.0994(3) 0.4990(3)
C30 C 0.5945(2) 0.0336(3) 0.6631(3)
C31 C 0.6429(2) 0.0896(3) 0.8394(3)
O5 O 0.53922(16) 0.9421(2) 0.1488(2)
O6 O 0.59220(17) 0.9478(2) 0.3305(2)
O7 O 0.66852(18) 0.8933(2) 0.4146(2)
C1 C 0.6741(2) 0.8801(3) 0.0901(3)
C2 C 0.6488(2) 0.9091(3) 0.1704(3)
C3 C 0.6720(2) 0.8835(3) 0.2533(3)
C4 C 0.7207(3) 0.8298(3) 0.2557(4)
H4 H 0.7360 0.8127 0.3111
C5 C 0.7462(3) 0.8018(4) 0.1775(4)
H5 H 0.7790 0.7665 0.1798
C6 C 0.7228(3) 0.8267(3) 0.0945(4)
H6 H 0.7399 0.8075 0.0414
C8 C 0.5945(2) 0.9664(3) 0.1631(3)
C9 C 0.6429(2) 0.9104(3) 0.3394(3)
Co4 Co 0.62908(3) 0.92299(4) 0.53892(4)
H21 H 0.475(3) 0.8885(18) 0.011(4)
O18 O 0.40780(17) 0.9478(2) 0.1695(2)
N3 N 0.8781(2) 0.6908(2) 0.4256(3)
C32 C 0.8383(3) 0.7417(4) 0.4615(4)
H28 H 0.8108 0.7265 0.5075
C33 C 0.8355(4) 0.8142(4) 0.4350(5)
H29 H 0.8074 0.8471 0.4631
C34 C 0.8743(5) 0.8381(4) 0.3669(7)
C35 C 0.9167(5) 0.7865(4) 0.3301(6)
H30 H 0.9441 0.8006 0.2837
C36 C 0.9184(3) 0.7139(4) 0.3623(5)
H31 H 0.9484 0.6808 0.3389
C37 C 0.8650(4) 0.9187(5) 0.3323(8)
H32 H 0.8217 0.9232 0.3074
H33 H 0.8680 0.9522 0.3835
C38 C 0.9112(5) 0.9428(5) 0.2639(8)
H34 H 0.9054 0.9131 0.2098
H35 H 0.9548 0.9345 0.2862
H41 H 0.8597 0.9784 0.0817
Co2 Co 0.53315(3) 0.99101(4) 0.90961(4)
O2 O 0.62043(17) 0.9634(2) 0.9905(2)
O3 O 0.6535(3) 0.8553(3) 0.9364(3)
O8 O 0.5562(2) 0.9020(2) 0.8230(3)
H2 H 0.571(4) 0.917(5) 0.772(3)
H3 H 0.587(3) 0.882(5) 0.853(5)
C7 C 0.6480(3) 0.9006(3) 0.9990(3)
Co7 Co 0.37092(3) 0.92299(4) 0.96108(4)
Co11 Co 0.46685(3) 0.99101(4) 0.59039(4)
O9 O 0.46878(17) 0.93053(19) 0.9870(2)
O10 O 0.53122(17) 0.93053(19) 0.5130(2)
H22 H 0.525(3) 0.8885(18) 0.489(4)
O14 O 0.61007(16) 0.96541(19) 0.6683(2)
N4 N 0.6219(2) 0.8092(2) 0.5744(3)
N6 N 0.7276(2) 0.9273(3) 0.5929(3)
O13_2 O 0.3465(3) 0.1447(3) 0.0636(3)
C29_2 C 0.3520(3) 0.0994(3) 0.0010(3)
Co1_2 Co 0.37092(3) 0.07701(4) 0.46108(4)
O1_2 O 0.46878(17) 0.06947(19) 0.4870(2)
H1_2 H 0.475(3) 0.1115(18) 0.511(4)
O4_2 O 0.38993(16) 0.03459(19) 0.3317(2)
N1_2 N 0.3781(2) 0.1908(2) 0.4256(3)
N2_2 N 0.2276(2) 0.5727(3) 0.0929(3)
C10_2 C 0.3383(3) 0.2417(4) 0.4615(4)
H7_2 H 0.3108 0.2265 0.5075
C11_2 C 0.3355(4) 0.3142(4) 0.4350(5)
H8_2 H 0.3074 0.3471 0.4631
C12_2 C 0.3743(5) 0.3381(4) 0.3669(7)
C13_2 C 0.4167(5) 0.2865(4) 0.3301(6)
H9_2 H 0.4441 0.3006 0.2837
C14_2 C 0.4184(3) 0.2139(4) 0.3623(5)
H10_2 H 0.4484 0.1808 0.3389
C15_2 C 0.3650(4) 0.4187(5) 0.3323(8)
H11_2 H 0.3217 0.4232 0.3074
H12_2 H 0.3680 0.4522 0.3835
C16_2 C 0.4112(5) 0.4428(5) 0.2639(8)
H13_2 H 0.4054 0.4131 0.2098
H14_2 H 0.4548 0.4345 0.2862
C17_2 C 0.4033(4) 0.5240(4) 0.2402(8)
H15_2 H 0.4401 0.5395 0.2046
H16_2 H 0.4037 0.5528 0.2955
C18_2 C 0.3416(3) 0.5421(4) 0.1877(6)
C19_2 C 0.2965(4) 0.5899(5) 0.2220(5)
H17_2 H 0.3035 0.6132 0.2773
C20_2 C 0.2395(3) 0.6035(4) 0.1727(5)
H18_2 H 0.2088 0.6354 0.1970
C21_2 C 0.2722(3) 0.5277(4) 0.0599(5)
H19_2 H 0.2652 0.5062 0.0036
C22_2 C 0.3299(3) 0.5109(4) 0.1068(6)
H20_2 H 0.3597 0.4784 0.0817
Co5_2 Co 0.12908(3) 0.57701(4) 0.03892(4)
O17_2 O 0.40780(17) 0.0522(2) 0.6695(2)
O19_2 O 0.33148(18) 0.1067(2) 0.5854(2)
O21_2 O 0.5562(2) 0.0980(2) 0.3230(3)
H23_2 H 0.571(4) 0.083(5) 0.272(3)
H24_2 H 0.587(3) 0.118(5) 0.353(5)
N5_2 N 0.2724(2) 0.0727(3) 0.4071(3)
C23_2 C 0.3259(2) 0.1199(3) 0.9099(3)
C24_2 C 0.3512(2) 0.0909(3) 0.8296(3)
C25_2 C 0.3280(2) 0.1165(3) 0.7467(3)
C26_2 C 0.2793(3) 0.1702(3) 0.7443(4)
H25_2 H 0.2640 0.1873 0.6889
C27_2 C 0.2538(3) 0.1982(4) 0.8225(4)
H26_2 H 0.2210 0.2335 0.8202
C28_2 C 0.2772(3) 0.1733(3) 0.9055(4)
H27_2 H 0.2601 0.1925 0.9586
C30_2 C 0.4055(2) 0.0336(3) 0.8369(3)
C31_2 C 0.3571(2) 0.0896(3) 0.6606(3)
C39_2 C 0.0967(4) 0.0240(4) 0.2598(8)
H36_2 H 0.0599 0.0395 0.2954
H37_2 H 0.0963 0.0528 0.2045
C40_2 C 0.1584(3) 0.0421(4) 0.3123(6)
C41_2 C 0.2035(4) 0.0899(5) 0.2780(5)
H38_2 H 0.1965 0.1132 0.2227
C42_2 C 0.2605(3) 0.1035(4) 0.3273(5)
H39_2 H 0.2912 0.1354 0.3030
C43_2 C 0.2278(3) 0.0277(4) 0.4401(5)
H40_2 H 0.2348 0.0062 0.4964
C44_2 C 0.1701(3) 0.0109(4) 0.3932(6)
O20 O 0.33148(18) 0.8933(2) 0.0854(2)
O2_2 O 0.37957(17) 0.9634(2) 0.5095(2)
O3_2 O 0.3465(3) 0.8553(3) 0.5636(3)
O5_2 O 0.46078(16) 0.9421(2) 0.3512(2)
O8_2 O 0.4438(2) 0.9020(2) 0.6770(3)
H2_2 H 0.429(4) 0.917(5) 0.728(3)
H3_2 H 0.413(3) 0.882(5) 0.647(5)
C1_2 C 0.3259(2) 0.8801(3) 0.4099(3)
C2_2 C 0.3512(2) 0.9091(3) 0.3296(3)
C3_2 C 0.3280(2) 0.8835(3) 0.2467(3)
C4_2 C 0.2793(3) 0.8298(3) 0.2443(4)
H4_2 H 0.2640 0.8127 0.1889
C5_2 C 0.2538(3) 0.8018(4) 0.3225(4)
H5_2 H 0.2210 0.7665 0.3202
C6_2 C 0.2772(3) 0.8267(3) 0.4055(4)
H6_2 H 0.2601 0.8075 0.4586
C7_2 C 0.3520(3) 0.9006(3) 0.5010(3)
C8_2 C 0.4055(2) 0.9664(3) 0.3369(3)
C9_2 C 0.3571(2) 0.9104(3) 0.1606(3)
O14_2 O 0.38993(16) 0.96541(19) 0.8317(2)
N3_2 N 0.1219(2) 0.6908(2) 0.0744(3)
N4_2 N 0.3781(2) 0.8092(2) 0.9256(3)
N6_2 N 0.2724(2) 0.9273(3) 0.9071(3)
C32_2 C 0.1617(3) 0.7417(4) 0.0385(4)
C33_2 C 0.1645(4) 0.8142(4) 0.0650(5)
H29_2 H 0.1926 0.8471 0.0369
C34_2 C 0.1257(5) 0.8381(4) 0.1331(7)
C35_2 C 0.0833(5) 0.7865(4) 0.1699(6)
H30_2 H 0.0559 0.8006 0.2163
C36_2 C 0.0816(3) 0.7139(4) 0.1377(5)
H31_2 H 0.0516 0.6808 0.1611
C37_2 C 0.1350(4) 0.9187(5) 0.1677(8)
H32_2 H 0.1783 0.9232 0.1926
H33_2 H 0.1320 0.9522 0.1165
C38_2 C 0.0888(5) 0.9428(5) 0.2361(8)
H34_2 H 0.0946 0.9131 0.2902
H35_2 H 0.0452 0.9345 0.2138
H41_2 H 0.1403 0.9784 0.4183
H28_2 H 0.1892 0.7265 0.9925
O1_3 O 0.03122(17) 0.56947(19) 0.0130(2)
O4_3 O 0.11007(16) 0.53459(19) 0.1683(2)
O5_3 O 0.03922(16) 0.4421(2) 0.1488(2)
O6_2 O 0.09220(17) 0.4478(2) 0.3305(2)
O7_2 O 0.16852(18) 0.3933(2) 0.4146(2)
C1_3 C 0.1741(2) 0.3801(3) 0.0901(3)
C2_3 C 0.1488(2) 0.4091(3) 0.1704(3)
C3_3 C 0.1720(2) 0.3835(3) 0.2533(3)
C4_3 C 0.2207(3) 0.3298(3) 0.2557(4)
H4_3 H 0.2360 0.3127 0.3111
C5_3 C 0.2462(3) 0.3018(4) 0.1775(4)
H5_3 H 0.2790 0.2665 0.1798
C6_3 C 0.2228(3) 0.3267(3) 0.0945(4)
H6_3 H 0.2399 0.3075 0.0414
C8_3 C 0.0945(2) 0.4664(3) 0.1631(3)
C9_3 C 0.1429(2) 0.4104(3) 0.3394(3)
Co4_2 Co 0.12908(3) 0.42299(4) 0.53892(4)
Co9_2 Co 0.03315(3) 0.50899(4) 0.40961(4)
Co2_2 Co 0.03315(3) 0.49101(4) 0.90961(4)
H1_3 H 0.025(3) 0.6115(18) 0.989(4)
O2_3 O 0.12043(17) 0.4634(2) 0.9905(2)
O3_3 O 0.1535(3) 0.3553(3) 0.9364(3)
O8_3 O 0.0562(2) 0.4020(2) 0.8230(3)
H2_3 H 0.071(4) 0.417(5) 0.772(3)
H3_3 H 0.087(3) 0.382(5) 0.853(5)
C7_3 C 0.1480(3) 0.4006(3) 0.9990(3)
O10_2 O 0.03122(17) 0.43053(19) 0.5130(2)
H22_2 H 0.025(3) 0.3885(18) 0.489(4)
O11_2 O 0.12043(17) 0.5366(2) 0.4905(2)
O13_3 O 0.1535(3) 0.6447(3) 0.4364(3)
O14_3 O 0.11007(16) 0.46541(19) 0.6683(2)
O15_2 O 0.03922(16) 0.5579(2) 0.6488(2)
O17_3 O 0.09220(17) 0.5522(2) 0.8305(2)
O19_3 O 0.16852(18) 0.6067(2) 0.9146(2)
N4_3 N 0.1219(2) 0.3092(2) 0.5744(3)
N6_3 N 0.2276(2) 0.4273(3) 0.5929(3)
C23_3 C 0.1741(2) 0.6199(3) 0.5901(3)
C24_3 C 0.1488(2) 0.5909(3) 0.6704(3)
C25_3 C 0.1720(2) 0.6165(3) 0.7533(3)
C26_3 C 0.2207(3) 0.6702(3) 0.7557(4)
H25_3 H 0.2360 0.6873 0.8111
C27_3 C 0.2462(3) 0.6982(4) 0.6775(4)
H26_3 H 0.2790 0.7335 0.6798
C28_3 C 0.2228(3) 0.6733(3) 0.5945(4)
H27_3 H 0.2399 0.6925 0.5414
C29_3 C 0.1480(3) 0.5994(3) 0.4990(3)
C30_3 C 0.0945(2) 0.5336(3) 0.6631(3)
C31_3 C 0.1429(2) 0.5896(3) 0.8394(3)
Co8_2 Co 0.96685(3) 0.50899(4) 0.09039(4)
H21_2 H 0.975(3) 0.3885(18) 0.011(4)
O12_2 O 0.87957(17) 0.5366(2) 0.0095(2)
O18_2 O 0.90780(17) 0.4478(2) 0.1695(2)
O21_3 O 0.9438(2) 0.5980(2) 0.1770(3)
H23_3 H 0.929(4) 0.583(5) 0.228(3)
H24_3 H 0.913(3) 0.618(5) 0.147(5)
Co7_2 Co 0.87092(3) 0.42299(4) 0.96108(4)
Co11_2 Co 0.96685(3) 0.49101(4) 0.59039(4)
O9_2 O 0.96878(17) 0.43053(19) 0.9870(2)
O16_2 O 0.96078(16) 0.5579(2) 0.8512(2)
O21_4 O 0.0562(2) 0.5980(2) 0.3230(3)
H23_4 H 0.071(4) 0.583(5) 0.272(3)
H24_4 H 0.087(3) 0.618(5) 0.353(5)
O13_4 O 0.8465(3) 0.6447(3) 0.0636(3)
O20_2 O 0.83148(18) 0.3933(2) 0.0854(2)
C29_4 C 0.8520(3) 0.5994(3) 0.0010(3)
O1_4 O 0.96878(17) 0.56947(19) 0.4870(2)
H1_4 H 0.975(3) 0.6115(18) 0.511(4)
O2_4 O 0.87957(17) 0.4634(2) 0.5095(2)
O3_4 O 0.8465(3) 0.3553(3) 0.5636(3)
O4_4 O 0.88993(16) 0.53459(19) 0.3317(2)
O5_4 O 0.96078(16) 0.4421(2) 0.3512(2)
O8_4 O 0.9438(2) 0.4020(2) 0.6770(3)
H2_4 H 0.929(4) 0.417(5) 0.728(3)
H3_4 H 0.913(3) 0.382(5) 0.647(5)
C1_4 C 0.8259(2) 0.3801(3) 0.4099(3)
C2_4 C 0.8512(2) 0.4091(3) 0.3296(3)
C3_4 C 0.8280(2) 0.3835(3) 0.2467(3)
C4_4 C 0.7793(3) 0.3298(3) 0.2443(4)
H4_4 H 0.7640 0.3127 0.1889
C5_4 C 0.7538(3) 0.3018(4) 0.3225(4)
H5_4 H 0.7210 0.2665 0.3202
C6_4 C 0.7772(3) 0.3267(3) 0.4055(4)
H6_4 H 0.7601 0.3075 0.4586
C7_4 C 0.8520(3) 0.4006(3) 0.5010(3)
C8_4 C 0.9055(2) 0.4664(3) 0.3369(3)
C9_4 C 0.8571(2) 0.4104(3) 0.1606(3)
O14_4 O 0.88993(16) 0.46541(19) 0.8317(2)
O17_4 O 0.90780(17) 0.5522(2) 0.6695(2)
O19_4 O 0.83148(18) 0.6067(2) 0.5854(2)
N4_4 N 0.8781(2) 0.3092(2) 0.9256(3)
N6_4 N 0.7724(2) 0.4273(3) 0.9071(3)
C23_4 C 0.8259(2) 0.6199(3) 0.9099(3)
C24_4 C 0.8512(2) 0.5909(3) 0.8296(3)
C25_4 C 0.8280(2) 0.6165(3) 0.7467(3)
C26_4 C 0.7793(3) 0.6702(3) 0.7443(4)
H25_4 H 0.7640 0.6873 0.6889
C27_4 C 0.7538(3) 0.6982(4) 0.8225(4)
H26_4 H 0.7210 0.7335 0.8202
C28_4 C 0.7772(3) 0.6733(3) 0.9055(4)
H27_4 H 0.7601 0.6925 0.9586
C30_4 C 0.9055(2) 0.5336(3) 0.8369(3)
C31_4 C 0.8571(2) 0.5896(3) 0.6606(3)
C32_3 C 0.1617(3) 0.2583(4) 0.5385(4)
H28_3 H 0.1892 0.2735 0.4925
C33_3 C 0.1645(4) 0.1858(4) 0.5650(5)
H29_3 H 0.1926 0.1529 0.5369
C34_3 C 0.1257(5) 0.1619(4) 0.6331(7)
C35_3 C 0.0833(5) 0.2135(4) 0.6699(6)
H30_3 H 0.0559 0.1994 0.7163
C36_3 C 0.0816(3) 0.2861(4) 0.6377(5)
H31_3 H 0.0516 0.3192 0.6611
C37_3 C 0.1350(4) 0.0813(5) 0.6677(8)
H32_3 H 0.1783 0.0768 0.6926
H33_3 H 0.1320 0.0478 0.6165
C38_3 C 0.0888(5) 0.0572(5) 0.7361(8)
H34_3 H 0.0946 0.0869 0.7902
H35_3 H 0.0452 0.0655 0.7138
H41_3 H 0.1403 0.0216 0.9183
H7_3 H 0.3108 0.7735 0.0075
C10_3 C 0.3383(3) 0.7583(4) 0.9615(4)
C11_3 C 0.3355(4) 0.6858(4) 0.9350(5)
H8_3 H 0.3074 0.6529 0.9631
C12_3 C 0.3743(5) 0.6619(4) 0.8669(7)
C13_3 C 0.4167(5) 0.7135(4) 0.8301(6)
H9_3 H 0.4441 0.6994 0.7837
C14_3 C 0.4184(3) 0.7861(4) 0.8623(5)
H10_3 H 0.4484 0.8192 0.8389
C15_3 C 0.3650(4) 0.5813(5) 0.8323(8)
H11_3 H 0.3217 0.5768 0.8074
H12_3 H 0.3680 0.5478 0.8835
C16_3 C 0.4112(5) 0.5572(5) 0.7639(8)
H13_3 H 0.4054 0.5869 0.7098
H14_3 H 0.4548 0.5655 0.7862
C17_3 C 0.4033(4) 0.4760(4) 0.7402(8)
H15_3 H 0.4401 0.4605 0.7046
H16_3 H 0.4037 0.4472 0.7955
C18_3 C 0.3416(3) 0.4579(4) 0.6877(6)
C19_3 C 0.2965(4) 0.4101(5) 0.7220(5)
H17_3 H 0.3035 0.3868 0.7773
C20_3 C 0.2395(3) 0.3965(4) 0.6727(5)
H18_3 H 0.2088 0.3646 0.6970
C21_3 C 0.2722(3) 0.4723(4) 0.5599(5)
H19_3 H 0.2652 0.4938 0.5036
C22_3 C 0.3299(3) 0.4891(4) 0.6068(6)
H20_3 H 0.3597 0.5216 0.5817
C39_3 C 0.0967(4) 0.9760(4) 0.7598(8)
H36_3 H 0.0599 0.9605 0.7954
H37_3 H 0.0963 0.9472 0.7045
C40_3 C 0.1584(3) 0.9579(4) 0.8123(6)
C41_3 C 0.2035(4) 0.9101(5) 0.7780(5)
H38_3 H 0.1965 0.8868 0.7227
C42_3 C 0.2605(3) 0.8965(4) 0.8273(5)
H39_3 H 0.2912 0.8646 0.8030
C43_3 C 0.2278(3) 0.9723(4) 0.9401(5)
H40_3 H 0.2348 0.9938 0.9964
C44_3 C 0.1701(3) 0.9891(4) 0.8932(6)
H28_4 H 0.8108 0.2735 0.0075
C32_4 C 0.8383(3) 0.2583(4) 0.9615(4)
C33_4 C 0.8355(4) 0.1858(4) 0.9350(5)
H29_4 H 0.8074 0.1529 0.9631
C34_4 C 0.8743(5) 0.1619(4) 0.8669(7)
C35_4 C 0.9167(5) 0.2135(4) 0.8301(6)
H30_4 H 0.9441 0.1994 0.7837
C36_4 C 0.9184(3) 0.2861(4) 0.8623(5)
H31_4 H 0.9484 0.3192 0.8389
C37_4 C 0.8650(4) 0.0813(5) 0.8323(8)
H32_4 H 0.8217 0.0768 0.8074
H33_4 H 0.8680 0.0478 0.8835
C38_4 C 0.9112(5) 0.0572(5) 0.7639(8)
H34_4 H 0.9054 0.0869 0.7098
H35_4 H 0.9548 0.0655 0.7862
H41_4 H 0.8597 0.0216 0.5817
C10_4 C 0.6617(3) 0.7583(4) 0.5385(4)
H7_4 H 0.6892 0.7735 0.4925
C11_4 C 0.6645(4) 0.6858(4) 0.5650(5)
H8_4 H 0.6926 0.6529 0.5369
C12_4 C 0.6257(5) 0.6619(4) 0.6331(7)
C13_4 C 0.5833(5) 0.7135(4) 0.6699(6)
H9_4 H 0.5559 0.6994 0.7163
C14_4 C 0.5816(3) 0.7861(4) 0.6377(5)
H10_4 H 0.5516 0.8192 0.6611
C15_4 C 0.6350(4) 0.5813(5) 0.6677(8)
H11_4 H 0.6783 0.5768 0.6926
H12_4 H 0.6320 0.5478 0.6165
C16_4 C 0.5888(5) 0.5572(5) 0.7361(8)
H13_4 H 0.5946 0.5869 0.7902
H14_4 H 0.5452 0.5655 0.7138
C17_4 C 0.5967(4) 0.4760(4) 0.7598(8)
H15_4 H 0.5599 0.4605 0.7954
H16_4 H 0.5963 0.4472 0.7045
C18_4 C 0.6584(3) 0.4579(4) 0.8123(6)
C19_4 C 0.7035(4) 0.4101(5) 0.7780(5)
H17_4 H 0.6965 0.3868 0.7227
C20_4 C 0.7605(3) 0.3965(4) 0.8273(5)
H18_4 H 0.7912 0.3646 0.8030
C21_4 C 0.7278(3) 0.4723(4) 0.9401(5)
H19_4 H 0.7348 0.4938 0.9964
C22_4 C 0.6701(3) 0.4891(4) 0.8932(6)
H20_4 H 0.6403 0.5216 0.9183
C39_4 C 0.9033(4) 0.9760(4) 0.7402(8)
H36_4 H 0.9401 0.9605 0.7046
H37_4 H 0.9037 0.9472 0.7955
C40_4 C 0.8416(3) 0.9579(4) 0.6877(6)
C41_4 C 0.7965(4) 0.9101(5) 0.7220(5)
H38_4 H 0.8035 0.8868 0.7773
C42_4 C 0.7395(3) 0.8965(4) 0.6727(5)
H39_4 H 0.7088 0.8646 0.6970
C43_4 C 0.7722(3) 0.9723(4) 0.5599(5)
H40_4 H 0.7652 0.9938 0.5036
C44_4 C 0.8299(3) 0.9891(4) 0.6068(6)
loop_
_geom_bond_atom_site_label_1
_geom_bond_atom_site_label_2
_geom_bond_site_symmetry_1
_geom_bond_site_symmetry_2
Co1 O1 1_555 1_555
O4 Co1 1_555 1_555
N1 Co1 1_555 1_555
N2 C20 1_555 1_555
C10 N1 1_555 1_555
C11 C10 1_555 1_555
H8 C11 1_555 1_555
C12 C11 1_555 1_555
C13 C12 1_555 1_555
H9 C13 1_555 1_555
C14 N1 1_555 1_555
H10 C14 1_555 1_555
C15 C12 1_555 1_555
H11 C15 1_555 1_555
H12 C15 1_555 1_555
C16 C15 1_555 1_555
H13 C16 1_555 1_555
H14 C16 1_555 1_555
C17 C16 1_555 1_555
H15 C17 1_555 1_555
H16 C17 1_555 1_555
C18 C17 1_555 1_555
C19 C18 1_555 1_555
H17 C19 1_555 1_555
C20 C19 1_555 1_555
H18 C20 1_555 1_555
C21 N2 1_555 1_555
H19 C21 1_555 1_555
C22 C18 1_555 1_555
H20 C22 1_555 1_555
Co5 N2 1_555 1_555
Co8 O1 1_555 1_555
O21 Co8 1_555 1_555
H23 O21 1_555 1_555
H24 O21 1_555 1_555
N5 Co1 1_555 1_555
H36 C39 1_555 1_555
H37 C39 1_555 1_555
C40 C39 1_555 1_555
C41 C40 1_555 1_555
H38 C41 1_555 1_555
C42 N5 1_555 1_555
H39 C42 1_555 1_555
C43 N5 1_555 1_555
H40 C43 1_555 1_555
C44 C40 1_555 1_555
C13 C14 1_555 1_555
C21 C22 1_555 1_555
Co8 O12 1_555 1_555
C41 C42 1_555 1_555
C43 C44 1_555 1_555
O13 C29 1_555 1_555
C23 C24 1_555 1_555
C24 C25 1_555 1_555
C25 C26 1_555 1_555
C26 H25 1_555 1_555
C27 C26 1_555 1_555
H26 C27 1_555 1_555
C28 C23 1_555 1_555
H27 C28 1_555 1_555
C29 O11 1_555 1_555
C31 O17 1_555 1_555
Co9 O11 1_555 1_555
O15 C30 1_555 1_555
O19 C31 1_555 1_555
C23 C29 1_555 1_555
C24 C30 1_555 1_555
C25 C31 1_555 1_555
C27 C28 1_555 1_555
O5 C8 1_555 1_555
O6 C9 1_555 1_555
O7 C9 1_555 1_555
C1 C2 1_555 1_555
C2 C3 1_555 1_555
C3 C4 1_555 1_555
C4 H4 1_555 1_555
C5 C4 1_555 1_555
H5 C5 1_555 1_555
C6 C1 1_555 1_555
H6 C6 1_555 1_555
C9 C3 1_555 1_555
Co4 O7 1_555 1_555
Co5 N3 1_555 1_555
N3 C32 1_555 1_555
C32 H28 1_555 1_555
C33 C32 1_555 1_555
H29 C33 1_555 1_555
C34 C33 1_555 1_555
C35 C34 1_555 1_555
H30 C35 1_555 1_555
C36 N3 1_555 1_555
H31 C36 1_555 1_555
C37 C34 1_555 1_555
H32 C37 1_555 1_555
H33 C37 1_555 1_555
C38 C37 1_555 1_555
H34 C38 1_555 1_555
H35 C38 1_555 1_555
C2 C8 1_555 1_555
C5 C6 1_555 1_555
C35 C36 1_555 1_555
O3 C7 1_555 1_555
O8 Co2 1_555 1_555
H2 O8 1_555 1_555
H3 O8 1_555 1_555
C7 O2 1_555 1_555
Co4 O10 1_555 1_555
Co7 O9 1_555 1_555
Co11 O10 1_555 1_555
O9 Co2 1_555 1_555
O10 H22 1_555 1_555
O14 Co4 1_555 1_555
N4 Co4 1_555 1_555
N6 Co4 1_555 1_555
Co2 O2 1_555 1_555
O13_2 C29_2 1_555 1_555
C29_2 O12 1_555 1_555
Co1_2 O1_2 1_555 1_555
O1_2 H1_2 1_555 1_555
O4_2 Co1_2 1_555 1_555
N1_2 Co1_2 1_555 1_555
N2_2 C20_2 1_555 1_555
C10_2 N1_2 1_555 1_555
H7_2 C10_2 1_555 1_555
C11_2 C10_2 1_555 1_555
H8_2 C11_2 1_555 1_555
C12_2 C11_2 1_555 1_555
C13_2 C12_2 1_555 1_555
H9_2 C13_2 1_555 1_555
C14_2 N1_2 1_555 1_555
H10_2 C14_2 1_555 1_555
C15_2 C12_2 1_555 1_555
H11_2 C15_2 1_555 1_555
H12_2 C15_2 1_555 1_555
C16_2 C15_2 1_555 1_555
H13_2 C16_2 1_555 1_555
H14_2 C16_2 1_555 1_555
C17_2 C16_2 1_555 1_555
H15_2 C17_2 1_555 1_555
H16_2 C17_2 1_555 1_555
C18_2 C17_2 1_555 1_555
C19_2 C18_2 1_555 1_555
H17_2 C19_2 1_555 1_555
C20_2 C19_2 1_555 1_555
H18_2 C20_2 1_555 1_555
C21_2 N2_2 1_555 1_555
H19_2 C21_2 1_555 1_555
C22_2 C18_2 1_555 1_555
H20_2 C22_2 1_555 1_555
Co5_2 N2_2 1_555 1_555
Co9 O1_2 1_555 1_555
O19_2 Co1_2 1_555 1_555
O21_2 Co9 1_555 1_555
H23_2 O21_2 1_555 1_555
H24_2 O21_2 1_555 1_555
N5_2 Co1_2 1_555 1_555
C23_2 C24_2 1_555 1_555
C24_2 C25_2 1_555 1_555
C25_2 C26_2 1_555 1_555
C26_2 H25_2 1_555 1_555
C27_2 C26_2 1_555 1_555
H26_2 C27_2 1_555 1_555
C28_2 C23_2 1_555 1_555
H27_2 C28_2 1_555 1_555
C31_2 O17_2 1_555 1_555
H36_2 C39_2 1_555 1_555
H37_2 C39_2 1_555 1_555
C40_2 C39_2 1_555 1_555
C41_2 C40_2 1_555 1_555
H38_2 C41_2 1_555 1_555
C42_2 N5_2 1_555 1_555
H39_2 C42_2 1_555 1_555
C43_2 N5_2 1_555 1_555
H40_2 C43_2 1_555 1_555
C44_2 C40_2 1_555 1_555
C13_2 C14_2 1_555 1_555
C21_2 C22_2 1_555 1_555
O16 C30_2 1_555 1_555
O19_2 C31_2 1_555 1_555
C24_2 C30_2 1_555 1_555
C25_2 C31_2 1_555 1_555
C27_2 C28_2 1_555 1_555
C41_2 C42_2 1_555 1_555
C43_2 C44_2 1_555 1_555
O3_2 C7_2 1_555 1_555
O5_2 C8_2 1_555 1_555
O18 C9_2 1_555 1_555
O20 C9_2 1_555 1_555
O8_2 Co11 1_555 1_555
H2_2 O8_2 1_555 1_555
H3_2 O8_2 1_555 1_555
C1_2 C2_2 1_555 1_555
C2_2 C3_2 1_555 1_555
C3_2 C4_2 1_555 1_555
C4_2 H4_2 1_555 1_555
C5_2 C4_2 1_555 1_555
H5_2 C5_2 1_555 1_555
C6_2 C1_2 1_555 1_555
H6_2 C6_2 1_555 1_555
C7_2 O2_2 1_555 1_555
C9_2 C3_2 1_555 1_555
Co5_2 N3_2 1_555 1_555
O14_2 Co7 1_555 1_555
N3_2 C32_2 1_555 1_555
N4_2 Co7 1_555 1_555
N6_2 Co7 1_555 1_555
C33_2 C32_2 1_555 1_555
H29_2 C33_2 1_555 1_555
C34_2 C33_2 1_555 1_555
C35_2 C34_2 1_555 1_555
H30_2 C35_2 1_555 1_555
C36_2 N3_2 1_555 1_555
H31_2 C36_2 1_555 1_555
C37_2 C34_2 1_555 1_555
H32_2 C37_2 1_555 1_555
H33_2 C37_2 1_555 1_555
C38_2 C37_2 1_555 1_555
H34_2 C38_2 1_555 1_555
H35_2 C38_2 1_555 1_555
Co11 O2_2 1_555 1_555
C1_2 C7_2 1_555 1_555
C2_2 C8_2 1_555 1_555
C5_2 C6_2 1_555 1_555
C35_2 C36_2 1_555 1_555
Co5_2 O1_3 1_555 1_555
O4_3 Co5_2 1_555 1_555
O5_3 C8_3 1_555 1_555
O6_2 C9_3 1_555 1_555
O7_2 C9_3 1_555 1_555
C1_3 C2_3 1_555 1_555
C2_3 C3_3 1_555 1_555
C3_3 C4_3 1_555 1_555
C4_3 H4_3 1_555 1_555
C5_3 C4_3 1_555 1_555
H5_3 C5_3 1_555 1_555
C6_3 C1_3 1_555 1_555
H6_3 C6_3 1_555 1_555
C8_3 O4_3 1_555 1_555
C9_3 C3_3 1_555 1_555
Co4_2 O7_2 1_555 1_555
Co9_2 O6_2 1_555 1_555
C2_3 C8_3 1_555 1_555
C5_3 C6_3 1_555 1_555
O3_3 C7_3 1_555 1_555
O8_3 Co2_2 1_555 1_555
H2_3 O8_3 1_555 1_555
H3_3 O8_3 1_555 1_555
C7_3 O2_3 1_555 1_555
Co4_2 O10_2 1_555 1_555
Co9_2 O10_2 1_555 1_555
O10_2 H22_2 1_555 1_555
O11_2 Co4_2 1_555 1_555
O13_3 C29_3 1_555 1_555
O14_3 Co4_2 1_555 1_555
O17_3 Co2_2 1_555 1_555
N4_3 Co4_2 1_555 1_555
N6_3 Co4_2 1_555 1_555
C23_3 C24_3 1_555 1_555
C24_3 C25_3 1_555 1_555
C25_3 C26_3 1_555 1_555
C26_3 H25_3 1_555 1_555
C27_3 C26_3 1_555 1_555
H26_3 C27_3 1_555 1_555
C28_3 C23_3 1_555 1_555
H27_3 C28_3 1_555 1_555
C29_3 O11_2 1_555 1_555
C30_3 O14_3 1_555 1_555
C31_3 O17_3 1_555 1_555
Co2_2 O2_3 1_555 1_555
Co9_2 O11_2 1_555 1_555
O15_2 C30_3 1_555 1_555
O19_3 C31_3 1_555 1_555
C23_3 C29_3 1_555 1_555
C24_3 C30_3 1_555 1_555
C25_3 C31_3 1_555 1_555
C27_3 C28_3 1_555 1_555
O18_2 Co8_2 1_555 1_555
O21_3 Co8_2 1_555 1_555
H23_3 O21_3 1_555 1_555
H24_3 O21_3 1_555 1_555
Co8_2 O12_2 1_555 1_555
Co7_2 O9_2 1_555 1_555
O21_4 Co9_2 1_555 1_555
H23_4 O21_4 1_555 1_555
H24_4 O21_4 1_555 1_555
O13_4 C29_4 1_555 1_555
C29_4 O12_2 1_555 1_555
Co5 O1_4 1_555 1_555
Co11_2 O1_4 1_555 1_555
O1_4 H1_4 1_555 1_555
O2_4 Co5 1_555 1_555
O3_4 C7_4 1_555 1_555
O4_4 Co5 1_555 1_555
O5_4 C8_4 1_555 1_555
O18_2 C9_4 1_555 1_555
O20_2 C9_4 1_555 1_555
O8_4 Co11_2 1_555 1_555
H2_4 O8_4 1_555 1_555
H3_4 O8_4 1_555 1_555
C1_4 C2_4 1_555 1_555
C2_4 C3_4 1_555 1_555
C3_4 C4_4 1_555 1_555
C4_4 H4_4 1_555 1_555
C5_4 C4_4 1_555 1_555
H5_4 C5_4 1_555 1_555
C6_4 C1_4 1_555 1_555
H6_4 C6_4 1_555 1_555
C7_4 O2_4 1_555 1_555
C8_4 O4_4 1_555 1_555
C9_4 C3_4 1_555 1_555
O14_4 Co7_2 1_555 1_555
O17_4 Co11_2 1_555 1_555
O19_4 Co5 1_555 1_555
N4_4 Co7_2 1_555 1_555
N6_4 Co7_2 1_555 1_555
C23_4 C24_4 1_555 1_555
C24_4 C25_4 1_555 1_555
C25_4 C26_4 1_555 1_555
C26_4 H25_4 1_555 1_555
C27_4 C26_4 1_555 1_555
H26_4 C27_4 1_555 1_555
C28_4 C23_4 1_555 1_555
H27_4 C28_4 1_555 1_555
C30_4 O14_4 1_555 1_555
C31_4 O17_4 1_555 1_555
Co11_2 O2_4 1_555 1_555
C1_4 C7_4 1_555 1_555
C2_4 C8_4 1_555 1_555
C5_4 C6_4 1_555 1_555
O16_2 C30_4 1_555 1_555
O19_4 C31_4 1_555 1_555
C24_4 C30_4 1_555 1_555
C25_4 C31_4 1_555 1_555
C27_4 C28_4 1_555 1_555
N4_3 C32_3 1_555 1_555
C32_3 H28_3 1_555 1_555
C33_3 C32_3 1_555 1_555
H29_3 C33_3 1_555 1_555
C34_3 C33_3 1_555 1_555
C35_3 C34_3 1_555 1_555
H30_3 C35_3 1_555 1_555
C36_3 N4_3 1_555 1_555
H31_3 C36_3 1_555 1_555
C37_3 C34_3 1_555 1_555
H32_3 C37_3 1_555 1_555
H33_3 C37_3 1_555 1_555
C38_3 C37_3 1_555 1_555
H34_3 C38_3 1_555 1_555
H35_3 C38_3 1_555 1_555
C35_3 C36_3 1_555 1_555
N6_3 C20_3 1_555 1_555
C10_3 N4_2 1_555 1_555
C11_3 C10_3 1_555 1_555
H8_3 C11_3 1_555 1_555
C12_3 C11_3 1_555 1_555
C13_3 C12_3 1_555 1_555
H9_3 C13_3 1_555 1_555
C14_3 N4_2 1_555 1_555
H10_3 C14_3 1_555 1_555
C15_3 C12_3 1_555 1_555
H11_3 C15_3 1_555 1_555
H12_3 C15_3 1_555 1_555
C16_3 C15_3 1_555 1_555
H13_3 C16_3 1_555 1_555
H14_3 C16_3 1_555 1_555
C17_3 C16_3 1_555 1_555
H15_3 C17_3 1_555 1_555
H16_3 C17_3 1_555 1_555
C18_3 C17_3 1_555 1_555
C19_3 C18_3 1_555 1_555
H17_3 C19_3 1_555 1_555
C20_3 C19_3 1_555 1_555
H18_3 C20_3 1_555 1_555
C21_3 N6_3 1_555 1_555
H19_3 C21_3 1_555 1_555
C22_3 C18_3 1_555 1_555
H20_3 C22_3 1_555 1_555
H36_3 C39_3 1_555 1_555
H37_3 C39_3 1_555 1_555
C40_3 C39_3 1_555 1_555
C41_3 C40_3 1_555 1_555
H38_3 C41_3 1_555 1_555
C42_3 N6_2 1_555 1_555
H39_3 C42_3 1_555 1_555
C43_3 N6_2 1_555 1_555
H40_3 C43_3 1_555 1_555
C44_3 C40_3 1_555 1_555
C13_3 C14_3 1_555 1_555
C21_3 C22_3 1_555 1_555
C41_3 C42_3 1_555 1_555
C43_3 C44_3 1_555 1_555
N4_4 C32_4 1_555 1_555
C33_4 C32_4 1_555 1_555
H29_4 C33_4 1_555 1_555
C34_4 C33_4 1_555 1_555
C35_4 C34_4 1_555 1_555
H30_4 C35_4 1_555 1_555
C36_4 N4_4 1_555 1_555
H31_4 C36_4 1_555 1_555
C37_4 C34_4 1_555 1_555
H32_4 C37_4 1_555 1_555
H33_4 C37_4 1_555 1_555
C38_4 C37_4 1_555 1_555
H34_4 C38_4 1_555 1_555
H35_4 C38_4 1_555 1_555
C35_4 C36_4 1_555 1_555
N6_4 C20_4 1_555 1_555
C10_4 N4 1_555 1_555
H7_4 C10_4 1_555 1_555
C11_4 C10_4 1_555 1_555
H8_4 C11_4 1_555 1_555
C12_4 C11_4 1_555 1_555
C13_4 C12_4 1_555 1_555
H9_4 C13_4 1_555 1_555
C14_4 N4 1_555 1_555
H10_4 C14_4 1_555 1_555
C15_4 C12_4 1_555 1_555
H11_4 C15_4 1_555 1_555
H12_4 C15_4 1_555 1_555
C16_4 C15_4 1_555 1_555
H13_4 C16_4 1_555 1_555
H14_4 C16_4 1_555 1_555
C17_4 C16_4 1_555 1_555
H15_4 C17_4 1_555 1_555
H16_4 C17_4 1_555 1_555
C18_4 C17_4 1_555 1_555
C19_4 C18_4 1_555 1_555
H17_4 C19_4 1_555 1_555
C20_4 C19_4 1_555 1_555
H18_4 C20_4 1_555 1_555
C21_4 N6_4 1_555 1_555
H19_4 C21_4 1_555 1_555
C22_4 C18_4 1_555 1_555
H20_4 C22_4 1_555 1_555
H36_4 C39_4 1_555 1_555
H37_4 C39_4 1_555 1_555
C40_4 C39_4 1_555 1_555
C41_4 C40_4 1_555 1_555
H38_4 C41_4 1_555 1_555
C42_4 N6 1_555 1_555
H39_4 C42_4 1_555 1_555
C43_4 N6 1_555 1_555
H40_4 C43_4 1_555 1_555
C44_4 C40_4 1_555 1_555
C13_4 C14_4 1_555 1_555
C21_4 C22_4 1_555 1_555
C41_4 C42_4 1_555 1_555
C43_4 C44_4 1_555 1_555

#END
