
###############################################################################
#
# This file contains modified crystal structure data generated from the
# MOF subset of the Cambridge Structural Database (CSD) v543 
# hosted by the Cambridge Crystallographic Data Centre (CCDC).
#
# This work is licensed under the Creative Commons
# Attribution-NonCommercial-ShareAlike 4.0 International License.
# To view a copy of this license, visit
# http://creativecommons.org/licenses/by-nc-sa/4.0/
# or send a letter to
# Creative Commons, PO Box 1866, Mountain View, CA 94042, USA.
#
# CIF created using the CSD Python API on 29 September 2022
# The structure has been converted into the P1 space group
# The structure has a 3D framework
# The original CSD entry WEDSIK is in the rhombohedral crystal system
# The framework has been calculated to contain at least 10.0% void space
# The void calculation uses a probe of radius 1.32A, grid spacing 0.4
#
###############################################################################

data_WEDSIK
_chemical_formula_moiety         '(C234 H198 Cd11 N36 O65 P12)n'
_symmetry_cell_setting           triclinic
_symmetry_space_group_name_H-M   'P 1'
_symmetry_Int_Tables_number      1
_space_group_name_Hall           'P 1'
loop_
_symmetry_equiv_pos_site_id
_symmetry_equiv_pos_as_xyz
1 x,y,z
_cell_length_a                   16.783(8)
_cell_length_b                   16.783(8)
_cell_length_c                   30.325(17)
_cell_angle_alpha                90
_cell_angle_beta                 90
_cell_angle_gamma                120
_cell_volume                     7397.26
loop_
_atom_site_label
_atom_site_type_symbol
_atom_site_fract_x
_atom_site_fract_y
_atom_site_fract_z
P1 P -0.0000 -0.0000 0.39529(5)
O3 O -0.0000 -0.0000 0.34614(13)
C16 C 0.2408(3) 0.0091(4) 0.41878(16)
H13 H 0.3005 0.0425 0.4079
C17 C 0.1734(3) 0.0242(4) 0.40116(14)
H14 H 0.1875 0.0668 0.3787
C21 C 0.0535(4) 0.2756(3) 0.45153(14)
C22 C 0.0894(4) 0.1537(3) 0.45033(13)
H16 H 0.1223 0.1270 0.4613
C25 C 0.1057(4) 0.2372(3) 0.46718(14)
H19 H 0.1506 0.2674 0.4886
O7 O 0.0095(4) 0.3850(3) 0.46375(15)
C26 C 0.0647(6) 0.3619(4) 0.47174(19)
O8 O 0.1305(6) 0.4052(4) 0.4967(2)
C27 C 0.0252(3) 0.1095(2) 0.41753(11)
Cd2 Cd 0.5000 -0.0000 0.5000
N5 N 0.4924(3) 0.0932(4) 0.55100(12)
C34 C 0.4204(3) 0.0838(4) 0.57254(14)
H25 H 0.3598 0.0399 0.5662
N6 N 0.4466(2) 0.1468(3) 0.60520(10)
C35 C 0.5404(3) 0.1979(4) 0.60417(14)
H26 H 0.5780 0.2460 0.6230
C36 C 0.5678(3) 0.1650(4) 0.57064(15)
H27 H 0.6285 0.1874 0.5621
C37 C 0.3879(3) 0.1563(4) 0.63620(12)
C38 C 0.3070(3) 0.0823(4) 0.64854(14)
H28 H 0.2887 0.0248 0.6363
C39 C 0.2521(3) 0.0917(4) 0.67899(14)
H29 H 0.1969 0.0407 0.6875
N7 N 0.1743(3) 0.2401(4) 0.78233(12)
C40 C 0.2463(3) 0.2495(4) 0.76079(14)
H32 H 0.3069 0.2934 0.7671
N8 N 0.2201(2) 0.1865(3) 0.72813(10)
C41 C 0.1263(3) 0.1354(4) 0.72916(14)
H33 H 0.0887 0.0873 0.7103
C42 C 0.0989(3) 0.1683(4) 0.76269(15)
H34 H 0.0382 0.1459 0.7712
C43 C 0.2788(3) 0.1770(4) 0.69713(12)
C44 C 0.3597(3) 0.2510(4) 0.68479(14)
H35 H 0.3780 0.3085 0.6970
C45 C 0.4146(3) 0.2416(4) 0.65434(14)
H36 H 0.4698 0.2926 0.6458
Cd3 Cd 0.0000 0.5000 0.5000
O10 O 0.1314(6) 0.5445(4) 0.54357(18)
H42 H 0.1773 0.5463 0.5291
H43 H 0.1081 0.4874 0.5524
O19 O 0.5869(4) 0.1314(6) 0.45643(18)
H63 H 0.6310 0.1773 0.4709
H64 H 0.6207 0.1081 0.4476
Cd7 Cd 0.1667 0.3333 0.8333
O21 O 0.6245(3) 0.0095(4) 0.53625(15)
N15 N 0.0932(4) 0.6008(3) 0.44900(12)
P1_2 P -0.0000 1.0000 0.39529(5)
O3_2 O -0.0000 1.0000 0.34614(13)
C14 C 0.2221(3) 0.9465(4) 0.45153(14)
C15 C 0.0643(3) 0.9106(4) 0.45033(13)
H12 H 0.0047 0.8777 0.4613
C18 C 0.1315(3) 0.8943(4) 0.46718(14)
H15 H 0.1168 0.8494 0.4886
O5 O 0.3755(3) 0.9905(4) 0.46375(15)
C19 C 0.2972(4) 0.9353(6) 0.47174(19)
O6 O 0.2747(4) 0.8695(6) 0.4967(2)
C20 C 0.0843(2) 0.9748(3) 0.41753(11)
N3 N 0.0659(3) 0.8257(3) 0.78233(12)
C28 C 0.0033(3) 0.7537(3) 0.76079(14)
C29 C 0.0092(3) 0.8737(3) 0.72916(14)
C30 C 0.0695(3) 0.9011(3) 0.76269(15)
H22 H 0.1078 0.9618 0.7712
Cd2_2 Cd 0.5000 1.0000 0.5000
O9 O 0.4131(4) 0.8686(6) 0.54357(18)
H30 H 0.3690 0.8227 0.5291
H31 H 0.3793 0.8919 0.5524
Cd6 Cd 0.1667 0.8333 0.8333
N14 N 0.5076(3) 0.9068(4) 0.44900(12)
P1_3 P 1.0000 -0.0000 0.39529(5)
O3_3 O 1.0000 -0.0000 0.34614(13)
C23 C 0.9909(4) 0.2317(3) 0.41878(16)
H17 H 0.9575 0.2580 0.4079
C24 C 0.9758(4) 0.1492(3) 0.40116(14)
H18 H 0.9332 0.1207 0.3787
Cd3_2 Cd 1.0000 0.5000 0.5000
N9 N 0.9068(4) 0.3992(3) 0.55100(12)
C46 C 0.9162(4) 0.3366(3) 0.57254(14)
H37 H 0.9601 0.3199 0.5662
N10 N 0.8532(3) 0.2998(2) 0.60520(10)
C47 C 0.8021(4) 0.3425(3) 0.60417(14)
H38 H 0.7540 0.3320 0.6230
C48 C 0.8350(4) 0.4028(3) 0.57064(15)
H39 H 0.8126 0.4411 0.5621
C49 C 0.8437(4) 0.2316(3) 0.63620(12)
C50 C 0.9177(4) 0.2247(3) 0.64854(14)
H40 H 0.9752 0.2639 0.6363
C51 C 0.9083(4) 0.1604(3) 0.67899(14)
H41 H 0.9593 0.1562 0.6875
H44 H 0.7066 0.0134 0.7671
N12 N 0.8135(3) 0.0335(2) 0.72813(10)
H45 H 0.9127 0.0013 0.7103
C55 C 0.8230(4) 0.1017(3) 0.69713(12)
C56 C 0.7490(4) 0.1086(3) 0.68479(14)
H47 H 0.6915 0.0694 0.6970
C57 C 0.7584(4) 0.1729(3) 0.65434(14)
H48 H 0.7074 0.1771 0.6458
O20 O 0.8686(6) 0.4555(4) 0.45643(18)
H65 H 0.8227 0.4537 0.4709
H66 H 0.8919 0.5126 0.4476
O22 O 0.9905(4) 0.6150(3) 0.53625(15)
Cd1 Cd 0.5000 0.5000 0.5000
P1_4 P 1.0000 1.0000 0.39529(5)
C1 C 0.7244(3) 0.7779(3) 0.45153(14)
C2 C 0.8463(3) 0.9357(3) 0.45033(13)
H1 H 0.8730 0.9953 0.4613
C3 C 0.7683(3) 0.7592(3) 0.41878(16)
H2 H 0.7420 0.6995 0.4079
C4 C 0.8508(3) 0.8266(3) 0.40116(14)
H3 H 0.8793 0.8125 0.3787
C5 C 0.7628(3) 0.8685(3) 0.46718(14)
H4 H 0.7326 0.8832 0.4886
O1 O 0.6150(3) 0.6245(3) 0.46375(15)
C6 C 0.6381(4) 0.7028(4) 0.47174(19)
O2 O 0.5948(4) 0.7253(4) 0.4967(2)
O3_4 O 1.0000 1.0000 0.34614(13)
C7 C 0.8905(2) 0.9157(2) 0.41753(11)
N1 N 0.6008(3) 0.5076(3) 0.55100(12)
C8 C 0.6634(3) 0.5796(3) 0.57254(14)
H5 H 0.6801 0.6402 0.5662
N2 N 0.7002(2) 0.5534(2) 0.60520(10)
C9 C 0.6575(3) 0.4596(3) 0.60417(14)
H6 H 0.6680 0.4220 0.6230
C10 C 0.5972(3) 0.4322(3) 0.57064(15)
H7 H 0.5589 0.3715 0.5621
C11 C 0.7684(3) 0.6121(3) 0.63620(12)
C12 C 0.7753(3) 0.6930(3) 0.64854(14)
H8 H 0.7361 0.7113 0.6363
C13 C 0.8396(3) 0.7479(3) 0.67899(14)
H9 H 0.8438 0.8031 0.6875
O4 O 0.4555(4) 0.5869(4) 0.54357(18)
H10 H 0.4537 0.6310 0.5291
H11 H 0.5126 0.6207 0.5524
H20 H 0.9866 0.6931 0.7671
N4 N 0.9665(2) 0.7799(2) 0.72813(10)
H21 H 0.9987 0.9113 0.7103
C31 C 0.8983(3) 0.7212(3) 0.69713(12)
C32 C 0.8914(3) 0.6403(3) 0.68479(14)
H23 H 0.9306 0.6220 0.6970
C33 C 0.8271(3) 0.5854(3) 0.65434(14)
H24 H 0.8229 0.5302 0.6458
N11 N 0.7599(4) 0.9341(3) 0.78233(12)
C52 C 0.7505(4) 0.9967(3) 0.76079(14)
C53 C 0.8646(4) 0.9908(3) 0.72916(14)
C54 C 0.8317(4) 0.9305(3) 0.76269(15)
H46 H 0.8541 0.8922 0.7712
P2 P 0.0000 -0.0000 0.60471(5)
C58 C 0.2756(3) 0.2221(3) 0.54847(14)
C59 C 0.1537(3) 0.0643(3) 0.54967(13)
H49 H 0.1270 0.0047 0.5387
C60 C 0.2317(3) 0.2408(3) 0.58122(16)
H50 H 0.2580 0.3005 0.5921
C61 C 0.1492(3) 0.1734(3) 0.59884(14)
H51 H 0.1207 0.1875 0.6213
C62 C 0.2372(3) 0.1315(3) 0.53282(14)
H52 H 0.2674 0.1168 0.5114
O11 O 0.3850(3) 0.3755(3) 0.53625(15)
C63 C 0.3619(4) 0.2972(4) 0.52826(19)
O12 O 0.4052(4) 0.2747(4) 0.5033(2)
O13 O 0.0000 -0.0000 0.65386(13)
C64 C 0.1095(2) 0.0843(2) 0.58247(11)
O14 O 0.5445(4) 0.4131(4) 0.45643(18)
H53 H 0.5463 0.3690 0.4709
H54 H 0.4874 0.3793 0.4476
Cd8 Cd 0.6667 0.8333 0.8333
N13 N 0.3992(3) 0.4924(3) 0.44900(12)
P2_2 P 0.0000 1.0000 0.60471(5)
O13_2 O 0.0000 1.0000 0.65386(13)
C74 C 0.0091(4) 0.7683(3) 0.58122(16)
H60 H 0.0425 0.7420 0.5921
C75 C 0.0242(4) 0.8508(3) 0.59884(14)
H61 H 0.0668 0.8793 0.6213
P2_3 P 1.0000 -0.0000 0.60471(5)
O13_3 O 1.0000 -0.0000 0.65386(13)
C65 C 0.7779(3) 0.0535(4) 0.54847(14)
C66 C 0.9357(3) 0.0894(4) 0.54967(13)
H55 H 0.9953 0.1223 0.5387
C69 C 0.8685(3) 0.1057(4) 0.53282(14)
H58 H 0.8832 0.1506 0.5114
C70 C 0.7028(4) 0.0647(6) 0.52826(19)
O16 O 0.7253(4) 0.1305(6) 0.5033(2)
C71 C 0.9157(2) 0.0252(3) 0.58247(11)
P2_4 P 1.0000 1.0000 0.60471(5)
O13_4 O 1.0000 1.0000 0.65386(13)
C67 C 0.7592(3) 0.9909(4) 0.58122(16)
H56 H 0.6995 0.9575 0.5921
C68 C 0.8266(3) 0.9758(4) 0.59884(14)
H57 H 0.8125 0.9332 0.6213
C72 C 0.9465(4) 0.7244(3) 0.54847(14)
C73 C 0.9106(4) 0.8463(3) 0.54967(13)
H59 H 0.8777 0.8730 0.5387
C76 C 0.8943(4) 0.7628(3) 0.53282(14)
H62 H 0.8494 0.7326 0.5114
C77 C 0.9353(6) 0.6381(4) 0.52826(19)
O18 O 0.8695(6) 0.5948(4) 0.5033(2)
C78 C 0.9748(3) 0.8905(2) 0.58247(11)
C44_2 C 0.0263(3) 0.5844(4) 0.01813(14)
H35_2 H 0.0446 0.6419 0.0304
O5_2 O 0.0422(3) 0.3238(4) 0.79708(15)
N5_2 N 0.1591(3) 0.4265(4) 0.88433(12)
C34_2 C 0.0871(3) 0.4171(4) 0.90587(14)
H25_2 H 0.0265 0.3732 0.8995
N6_2 N 0.1133(2) 0.4801(3) 0.93853(10)
C35_2 C 0.2071(3) 0.5312(4) 0.93750(14)
H26_2 H 0.2447 0.5793 0.9563
C36_2 C 0.2345(3) 0.4983(4) 0.90397(15)
H27_2 H 0.2952 0.5207 0.8954
C37_2 C 0.0546(3) 0.4896(4) 0.96953(12)
O9_2 O 0.0798(4) 0.2019(6) 0.87690(18)
H30_2 H 0.0357 0.1560 0.8624
H31_2 H 0.0460 0.2252 0.8857
C45_2 C 0.0812(3) 0.5750(4) 0.98768(14)
H36_2 H 0.1364 0.6260 0.9792
O19_2 O 0.2536(4) 0.4647(6) 0.78976(18)
H63_2 H 0.2977 0.5106 0.8042
H64_2 H 0.2874 0.4414 0.7809
O21_2 O 0.2912(3) 0.3428(4) 0.86958(15)
C13_2 C 0.5063(3) 0.0812(3) 0.01232(14)
H9_2 H 0.5105 0.1364 0.0208
N3_2 N 0.7325(3) 0.1591(3) 0.11567(12)
C28_2 C 0.6699(3) 0.0871(3) 0.09413(14)
H20_2 H 0.6532 0.0265 0.1005
N4_2 N 0.6331(2) 0.1133(2) 0.06147(10)
C29_2 C 0.6758(3) 0.2071(3) 0.06250(14)
H21_2 H 0.6653 0.2447 0.0437
C30_2 C 0.7361(3) 0.2345(3) 0.09603(15)
H22_2 H 0.7744 0.2952 0.1046
C31_2 C 0.5649(3) 0.0546(3) 0.03047(12)
C39_2 C 0.9188(3) 0.4250(4) 0.01232(14)
H29_2 H 0.8636 0.3740 0.0208
N7_2 N 0.8409(3) 0.5735(4) 0.11567(12)
C40_2 C 0.9129(3) 0.5829(4) 0.09413(14)
H32_2 H 0.9735 0.6268 0.1005
N8_2 N 0.8867(2) 0.5199(3) 0.06147(10)
C41_2 C 0.7929(3) 0.4688(4) 0.06250(14)
H33_2 H 0.7553 0.4207 0.0437
C42_2 C 0.7655(3) 0.5017(4) 0.09603(15)
H34_2 H 0.7048 0.4793 0.1046
C43_2 C 0.9454(3) 0.5104(4) 0.03047(12)
C51_2 C 0.5750(4) 0.4937(3) 0.01232(14)
H41_2 H 0.6260 0.4895 0.0208
N11_2 N 0.4265(4) 0.2675(3) 0.11567(12)
C52_2 C 0.4171(4) 0.3301(3) 0.09413(14)
H44_2 H 0.3732 0.3468 0.1005
N12_2 N 0.4801(3) 0.3669(2) 0.06147(10)
C53_2 C 0.5312(4) 0.3242(3) 0.06250(14)
H45_2 H 0.5793 0.3347 0.0437
C54_2 C 0.4983(4) 0.2639(3) 0.09603(15)
H46_2 H 0.5207 0.2256 0.1046
C55_2 C 0.4896(4) 0.4351(3) 0.03047(12)
C56_2 C 0.4156(4) 0.4420(3) 0.01813(14)
H47_2 H 0.3581 0.4028 0.0304
Cd6_2 Cd 0.8333 0.1667 0.1667
Cd7_2 Cd 0.8333 0.6667 0.1667
Cd8_2 Cd 0.3333 0.1667 0.1667
P1_5 P 0.6667 0.3333 0.72862(5)
C1_2 C 0.3911(3) 0.1112(3) 0.78486(14)
C2_2 C 0.5130(3) 0.2690(3) 0.78366(13)
H1_2 H 0.5397 0.3286 0.7946
C3_2 C 0.4350(3) 0.0925(3) 0.75211(16)
H2_2 H 0.4087 0.0328 0.7412
C4_2 C 0.5175(3) 0.1599(3) 0.73449(14)
H3_2 H 0.5460 0.1458 0.7120
C5_2 C 0.4295(3) 0.2018(3) 0.80051(14)
H4_2 H 0.3993 0.2165 0.8219
C6_2 C 0.3048(4) 0.0361(4) 0.80507(19)
O2_2 O 0.2615(4) 0.0586(4) 0.8300(2)
O3_5 O 0.6667 0.3333 0.67947(13)
C7_2 C 0.5572(2) 0.2490(2) 0.75086(11)
C12_2 C 0.4420(3) 0.0263(3) 0.98187(14)
H8_2 H 0.4028 0.0446 0.9696
C14_2 C 0.8888(3) 0.2798(4) 0.78486(14)
C15_2 C 0.7310(3) 0.2439(4) 0.78366(13)
H12_2 H 0.6714 0.2110 0.7946
C16_2 C 0.9075(3) 0.3424(4) 0.75211(16)
H13_2 H 0.9672 0.3758 0.7412
C17_2 C 0.8401(3) 0.3575(4) 0.73449(14)
H14_2 H 0.8542 0.4001 0.7120
C18_2 C 0.7982(3) 0.2276(4) 0.80051(14)
H15_2 H 0.7835 0.1827 0.8219
C19_2 C 0.9639(4) 0.2686(6) 0.80507(19)
O6_2 O 0.9414(4) 0.2028(6) 0.8300(2)
C20_2 C 0.7510(2) 0.3081(3) 0.75086(11)
C21_2 C 0.7202(4) 0.6089(3) 0.78486(14)
C22_2 C 0.7561(4) 0.4870(3) 0.78366(13)
H16_2 H 0.7890 0.4603 0.7946
C23_2 C 0.6576(4) 0.5650(3) 0.75211(16)
H17_2 H 0.6242 0.5913 0.7412
C24_2 C 0.6425(4) 0.4825(3) 0.73449(14)
H18_2 H 0.5999 0.4540 0.7120
C25_2 C 0.7724(4) 0.5705(3) 0.80051(14)
H19_2 H 0.8173 0.6007 0.8219
O7_2 O 0.6762(4) 0.7183(3) 0.79708(15)
C26_2 C 0.7314(6) 0.6952(4) 0.80507(19)
O8_2 O 0.7972(6) 0.7385(4) 0.8300(2)
C27_2 C 0.6919(3) 0.4428(2) 0.75086(11)
C38_2 C 0.9737(3) 0.4156(4) 0.98187(14)
H28_2 H 0.9554 0.3581 0.9696
N9_2 N 0.5735(4) 0.7325(3) 0.88433(12)
C46_2 C 0.5829(4) 0.6699(3) 0.90587(14)
H37_2 H 0.6268 0.6532 0.8995
N10_2 N 0.5199(3) 0.6331(2) 0.93853(10)
C47_2 C 0.4688(4) 0.6758(3) 0.93750(14)
H38_2 H 0.4207 0.6653 0.9563
C48_2 C 0.5017(4) 0.7361(3) 0.90397(15)
H39_2 H 0.4793 0.7744 0.8954
C49_2 C 0.5104(4) 0.5649(3) 0.96953(12)
C50_2 C 0.5844(4) 0.5580(3) 0.98187(14)
H40_2 H 0.6419 0.5972 0.9696
O10_2 O 0.7981(6) 0.8778(4) 0.87690(18)
H42_2 H 0.8440 0.8796 0.8624
H43_2 H 0.7748 0.8207 0.8857
C57_2 C 0.4250(4) 0.5063(3) 0.98768(14)
H48_2 H 0.3740 0.5105 0.9792
O20_2 O 0.5353(6) 0.7888(4) 0.78976(18)
H65_2 H 0.4894 0.7870 0.8042
H66_2 H 0.5586 0.8459 0.7809
O22_2 O 0.6572(4) 0.9483(3) 0.86958(15)
C32_2 C 0.5580(3) 0.9737(3) 0.01813(14)
H23_2 H 0.5972 0.9554 0.0304
O1_2 O 0.2817(3) 0.9578(3) 0.79708(15)
N1_2 N 0.2675(3) 0.8409(3) 0.88433(12)
C8_2 C 0.3301(3) 0.9129(3) 0.90587(14)
H5_2 H 0.3468 0.9735 0.8995
N2_2 N 0.3669(2) 0.8867(2) 0.93853(10)
C9_2 C 0.3242(3) 0.7929(3) 0.93750(14)
H6_2 H 0.3347 0.7553 0.9563
C10_2 C 0.2639(3) 0.7655(3) 0.90397(15)
H7_2 H 0.2256 0.7048 0.8954
C11_2 C 0.4351(3) 0.9454(3) 0.96953(12)
O4_2 O 0.1222(4) 0.9202(4) 0.87690(18)
H10_2 H 0.1204 0.9643 0.8624
H11_2 H 0.1793 0.9540 0.8857
C33_2 C 0.4937(3) 0.9188(3) 0.98768(14)
H24_2 H 0.4895 0.8636 0.9792
O11_2 O 0.0517(3) 0.7088(3) 0.86958(15)
C63_2 C 0.0286(4) 0.6305(4) 0.86159(19)
O12_2 O 0.0719(4) 0.6080(4) 0.8366(2)
O14_2 O 0.2112(4) 0.7464(4) 0.78976(18)
H53_2 H 0.2130 0.7023 0.8042
H54_2 H 0.1541 0.7126 0.7809
P2_5 P 0.6667 0.3333 0.93804(5)
C58_2 C 0.9423(3) 0.5554(3) 0.88180(14)
C59_2 C 0.8204(3) 0.3976(3) 0.88300(13)
H49_2 H 0.7937 0.3380 0.8720
C60_2 C 0.8984(3) 0.5741(3) 0.91455(16)
H50_2 H 0.9247 0.6338 0.9254
C61_2 C 0.8159(3) 0.5067(3) 0.93217(14)
H51_2 H 0.7874 0.5208 0.9546
C62_2 C 0.9039(3) 0.4648(3) 0.86615(14)
H52_2 H 0.9341 0.4501 0.8447
O13_5 O 0.6667 0.3333 0.98719(13)
C64_2 C 0.7762(2) 0.4176(2) 0.91580(11)
C65_2 C 0.4446(3) 0.3868(4) 0.88180(14)
C66_2 C 0.6024(3) 0.4227(4) 0.88300(13)
H55_2 H 0.6620 0.4556 0.8720
C67_2 C 0.4259(3) 0.3242(4) 0.91455(16)
H56_2 H 0.3662 0.2908 0.9254
C68_2 C 0.4933(3) 0.3091(4) 0.93217(14)
H57_2 H 0.4792 0.2665 0.9546
C69_2 C 0.5352(3) 0.4390(4) 0.86615(14)
H58_2 H 0.5499 0.4839 0.8447
C70_2 C 0.3695(4) 0.3980(6) 0.86159(19)
O16_2 O 0.3920(4) 0.4638(6) 0.8366(2)
C71_2 C 0.5824(2) 0.3585(3) 0.91580(11)
C72_2 C 0.6132(4) 0.0577(3) 0.88180(14)
C73_2 C 0.5773(4) 0.1796(3) 0.88300(13)
H59_2 H 0.5444 0.2063 0.8720
C74_2 C 0.6758(4) 0.1016(3) 0.91455(16)
H60_2 H 0.7092 0.0753 0.9254
C75_2 C 0.6909(4) 0.1841(3) 0.93217(14)
H61_2 H 0.7335 0.2126 0.9546
C76_2 C 0.5610(4) 0.0961(3) 0.86615(14)
H62_2 H 0.5161 0.0659 0.8447
C78_2 C 0.6415(3) 0.2238(2) 0.91580(11)
C77_2 C 0.6020(6) 0.9714(4) 0.86159(19)
O18_2 O 0.5362(6) 0.9281(4) 0.8366(2)
O7_3 O 0.3428(4) 0.0517(3) 0.13042(15)
C26_3 C 0.3980(6) 0.0286(4) 0.13841(19)
O8_3 O 0.4638(6) 0.0719(4) 0.1634(2)
N9_3 N 0.2401(4) 0.0659(3) 0.21767(12)
C46_3 C 0.2495(4) 0.0033(3) 0.23921(14)
C47_3 C 0.1354(4) 0.0092(3) 0.27084(14)
C48_3 C 0.1683(4) 0.0695(3) 0.23731(15)
H39_3 H 0.1459 0.1078 0.2288
O10_3 O 0.4647(6) 0.2112(4) 0.21024(18)
H42_3 H 0.5106 0.2130 0.1958
H43_3 H 0.4414 0.1541 0.2191
O20_3 O 0.2019(6) 0.1222(4) 0.12310(18)
H65_3 H 0.1560 0.1204 0.1376
H66_3 H 0.2252 0.1793 0.1143
O22_3 O 0.3238(4) 0.2817(3) 0.20292(15)
P1_6 P 0.3333 0.6667 0.06196(5)
C1_3 C 0.0577(3) 0.4446(3) 0.11820(14)
C2_3 C 0.1796(3) 0.6024(3) 0.11700(13)
H1_3 H 0.2063 0.6620 0.1280
C3_3 C 0.1016(3) 0.4259(3) 0.08545(16)
H2_3 H 0.0753 0.3662 0.0746
C4_3 C 0.1841(3) 0.4933(3) 0.06783(14)
H3_3 H 0.2126 0.4792 0.0454
C5_3 C 0.0961(3) 0.5352(3) 0.13385(14)
H4_3 H 0.0659 0.5499 0.1553
O3_6 O 0.3333 0.6667 0.01281(13)
C7_3 C 0.2238(2) 0.5824(2) 0.08420(11)
H5_3 H 0.0134 0.3069 0.2329
N2_3 N 0.0335(2) 0.2201(2) 0.27187(10)
H6_3 H 0.0013 0.0887 0.2897
C11_3 C 0.1017(3) 0.2788(3) 0.30287(12)
C12_3 C 0.1086(3) 0.3597(3) 0.31521(14)
H8_3 H 0.0694 0.3780 0.3030
C13_3 C 0.1729(3) 0.4146(3) 0.34566(14)
H9_3 H 0.1771 0.4698 0.3542
C14_3 C 0.5554(3) 0.6132(4) 0.11820(14)
C15_3 C 0.3976(3) 0.5773(4) 0.11700(13)
H12_3 H 0.3380 0.5444 0.1280
C16_3 C 0.5741(3) 0.6758(4) 0.08545(16)
H13_3 H 0.6338 0.7092 0.0746
C17_3 C 0.5067(3) 0.6909(4) 0.06783(14)
H14_3 H 0.5208 0.7335 0.0454
C18_3 C 0.4648(3) 0.5610(4) 0.13385(14)
H15_3 H 0.4501 0.5161 0.1553
O5_3 O 0.7088(3) 0.6572(4) 0.13042(15)
C19_3 C 0.6305(4) 0.6020(6) 0.13841(19)
O6_3 O 0.6080(4) 0.5362(6) 0.1634(2)
C20_3 C 0.4176(2) 0.6415(3) 0.08420(11)
C21_3 C 0.3868(4) 0.9423(3) 0.11820(14)
C22_3 C 0.4227(4) 0.8204(3) 0.11700(13)
H16_3 H 0.4556 0.7937 0.1280
C23_3 C 0.3242(4) 0.8984(3) 0.08545(16)
H17_3 H 0.2908 0.9247 0.0746
C24_3 C 0.3091(4) 0.8159(3) 0.06783(14)
H18_3 H 0.2665 0.7874 0.0454
C25_3 C 0.4390(4) 0.9039(3) 0.13385(14)
H19_3 H 0.4839 0.9341 0.1553
C27_3 C 0.3585(3) 0.7762(2) 0.08420(11)
C28_3 C 0.3366(3) 0.4204(3) 0.42746(14)
H20_3 H 0.3199 0.3598 0.4338
N4_3 N 0.2998(2) 0.4466(2) 0.39480(10)
C29_3 C 0.3425(3) 0.5404(3) 0.39583(14)
H21_3 H 0.3320 0.5780 0.3770
C30_3 C 0.4028(3) 0.5678(3) 0.42936(15)
H22_3 H 0.4411 0.6285 0.4379
C31_3 C 0.2316(3) 0.3879(3) 0.36380(12)
C32_3 C 0.2247(3) 0.3070(3) 0.35146(14)
H23_3 H 0.2639 0.2887 0.3637
C33_3 C 0.1604(3) 0.2521(3) 0.32101(14)
H24_3 H 0.1562 0.1969 0.3125
N5_3 N 0.8257(3) 0.7599(4) 0.21767(12)
C34_3 C 0.7537(3) 0.7505(4) 0.23921(14)
H25_3 H 0.6931 0.7066 0.2329
N6_3 N 0.7799(2) 0.8135(3) 0.27187(10)
C35_3 C 0.8737(3) 0.8646(4) 0.27084(14)
H26_3 H 0.9113 0.9127 0.2897
C36_3 C 0.9011(3) 0.8317(4) 0.23731(15)
H27_3 H 0.9618 0.8541 0.2288
C37_3 C 0.7212(3) 0.8230(4) 0.30287(12)
C38_3 C 0.6403(3) 0.7490(4) 0.31521(14)
H28_3 H 0.6220 0.6915 0.3030
C39_3 C 0.5854(3) 0.7584(4) 0.34566(14)
H29_3 H 0.5302 0.7074 0.3542
O9_3 O 0.7464(4) 0.5353(6) 0.21024(18)
H30_3 H 0.7023 0.4894 0.1958
H31_3 H 0.7126 0.5586 0.2191
C40_3 C 0.5796(3) 0.9162(4) 0.42746(14)
H32_3 H 0.6402 0.9601 0.4338
N8_3 N 0.5534(2) 0.8532(3) 0.39480(10)
C41_3 C 0.4596(3) 0.8021(4) 0.39583(14)
H33_3 H 0.4220 0.7540 0.3770
C42_3 C 0.4322(3) 0.8350(4) 0.42936(15)
H34_3 H 0.3715 0.8126 0.4379
C43_3 C 0.6121(3) 0.8437(4) 0.36380(12)
C44_3 C 0.6930(3) 0.9177(4) 0.35146(14)
H35_3 H 0.7113 0.9752 0.3637
C45_3 C 0.7479(3) 0.9083(4) 0.32101(14)
H36_3 H 0.8031 0.9593 0.3125
H37_3 H 0.2934 0.9866 0.2329
N10_3 N 0.1865(3) 0.9665(2) 0.27187(10)
H38_3 H 0.0873 0.9987 0.2897
C49_3 C 0.1770(4) 0.8983(3) 0.30287(12)
C50_3 C 0.2510(4) 0.8914(3) 0.31521(14)
H40_3 H 0.3085 0.9306 0.3030
C51_3 C 0.2416(4) 0.8271(3) 0.34566(14)
H41_3 H 0.2926 0.8229 0.3542
C52_3 C 0.0838(4) 0.6634(3) 0.42746(14)
H44_3 H 0.0399 0.6801 0.4338
N12_3 N 0.1468(3) 0.7002(2) 0.39480(10)
C53_3 C 0.1979(4) 0.6575(3) 0.39583(14)
H45_3 H 0.2460 0.6680 0.3770
C54_3 C 0.1650(4) 0.5972(3) 0.42936(15)
H46_3 H 0.1874 0.5589 0.4379
C55_3 C 0.1563(4) 0.7684(3) 0.36380(12)
C56_3 C 0.0823(4) 0.7753(3) 0.35146(14)
H47_3 H 0.0248 0.7361 0.3637
C57_3 C 0.0917(4) 0.8396(3) 0.32101(14)
H48_3 H 0.0407 0.8438 0.3125
O19_3 O 0.9202(4) 0.7981(6) 0.12310(18)
H63_3 H 0.9643 0.8440 0.1376
H64_3 H 0.9540 0.7748 0.1143
O21_3 O 0.9578(3) 0.6762(4) 0.20292(15)
O1_3 O 0.9483(3) 0.2912(3) 0.13042(15)
C6_3 C 0.9714(4) 0.3695(4) 0.13841(19)
O2_3 O 0.9281(4) 0.3920(4) 0.1634(2)
N1_3 N 0.9341(3) 0.1743(3) 0.21767(12)
C8_3 C 0.9967(3) 0.2463(3) 0.23921(14)
C9_3 C 0.9908(3) 0.1263(3) 0.27084(14)
C10_3 C 0.9305(3) 0.0989(3) 0.23731(15)
H7_3 H 0.8922 0.0382 0.2288
O4_3 O 0.7888(4) 0.2536(4) 0.21024(18)
H10_3 H 0.7870 0.2977 0.1958
H11_3 H 0.8459 0.2874 0.2191
O11_3 O 0.7183(3) 0.0422(3) 0.20292(15)
O14_3 O 0.8778(4) 0.0798(4) 0.12310(18)
H53_3 H 0.8796 0.0357 0.1376
H54_3 H 0.8207 0.0460 0.1143
P2_6 P 0.3333 0.6667 0.27138(5)
C58_3 C 0.6089(3) 0.8888(3) 0.21514(14)
C59_3 C 0.4870(3) 0.7310(3) 0.21634(13)
H49_3 H 0.4603 0.6714 0.2054
C60_3 C 0.5650(3) 0.9075(3) 0.24789(16)
H50_3 H 0.5913 0.9672 0.2588
C61_3 C 0.4825(3) 0.8401(3) 0.26551(14)
H51_3 H 0.4540 0.8542 0.2880
C62_3 C 0.5705(3) 0.7982(3) 0.19949(14)
H52_3 H 0.6007 0.7835 0.1781
C63_3 C 0.6952(4) 0.9639(4) 0.19493(19)
O12_3 O 0.7385(4) 0.9414(4) 0.1700(2)
O13_6 O 0.3333 0.6667 0.32053(13)
C64_3 C 0.4428(2) 0.7510(2) 0.24914(11)
C65_3 C 0.1112(3) 0.7202(4) 0.21514(14)
C66_3 C 0.2690(3) 0.7561(4) 0.21634(13)
H55_3 H 0.3286 0.7890 0.2054
C67_3 C 0.0925(3) 0.6576(4) 0.24789(16)
H56_3 H 0.0328 0.6242 0.2588
C68_3 C 0.1599(3) 0.6425(4) 0.26551(14)
H57_3 H 0.1458 0.5999 0.2880
C69_3 C 0.2018(3) 0.7724(4) 0.19949(14)
H58_3 H 0.2165 0.8173 0.1781
C70_3 C 0.0361(4) 0.7314(6) 0.19493(19)
O16_3 O 0.0586(4) 0.7972(6) 0.1700(2)
C71_3 C 0.2490(2) 0.6919(3) 0.24914(11)
C72_3 C 0.2798(4) 0.3911(3) 0.21514(14)
C73_3 C 0.2439(4) 0.5130(3) 0.21634(13)
H59_3 H 0.2110 0.5397 0.2054
C74_3 C 0.3424(4) 0.4350(3) 0.24789(16)
H60_3 H 0.3758 0.4087 0.2588
C75_3 C 0.3575(4) 0.5175(3) 0.26551(14)
H61_3 H 0.4001 0.5460 0.2880
C76_3 C 0.2276(4) 0.4295(3) 0.19949(14)
H62_3 H 0.1827 0.3993 0.1781
C77_3 C 0.2686(6) 0.3048(4) 0.19493(19)
O18_3 O 0.2028(6) 0.2615(4) 0.1700(2)
C78_3 C 0.3081(3) 0.5572(2) 0.24914(11)
loop_
_geom_bond_atom_site_label_1
_geom_bond_atom_site_label_2
_geom_bond_site_symmetry_1
_geom_bond_site_symmetry_2
P1 O3 1_555 1_555
C16 H13 1_555 1_555
C17 C16 1_555 1_555
H14 C17 1_555 1_555
C22 H16 1_555 1_555
C25 C21 1_555 1_555
H19 C25 1_555 1_555
O7 C26 1_555 1_555
C26 C21 1_555 1_555
O8 C26 1_555 1_555
C27 P1 1_555 1_555
N5 Cd2 1_555 1_555
C34 N5 1_555 1_555
H25 C34 1_555 1_555
N6 C34 1_555 1_555
C35 N6 1_555 1_555
H26 C35 1_555 1_555
C36 N5 1_555 1_555
H27 C36 1_555 1_555
C37 N6 1_555 1_555
C38 C37 1_555 1_555
H28 C38 1_555 1_555
C39 C38 1_555 1_555
H29 C39 1_555 1_555
N7 C40 1_555 1_555
C40 H32 1_555 1_555
N8 C40 1_555 1_555
C41 N8 1_555 1_555
H33 C41 1_555 1_555
C42 N7 1_555 1_555
H34 C42 1_555 1_555
C43 C39 1_555 1_555
C44 C43 1_555 1_555
H35 C44 1_555 1_555
C45 C37 1_555 1_555
H36 C45 1_555 1_555
Cd3 O7 1_555 1_555
O10 Cd3 1_555 1_555
H42 O10 1_555 1_555
H43 O10 1_555 1_555
O19 Cd2 1_555 1_555
H63 O19 1_555 1_555
H64 O19 1_555 1_555
Cd7 N7 1_555 1_555
O21 Cd2 1_555 1_555
N15 Cd3 1_555 1_555
C22 C25 1_555 1_555
C22 C27 1_555 1_555
C35 C36 1_555 1_555
N8 C43 1_555 1_555
C41 C42 1_555 1_555
C44 C45 1_555 1_555
P1_2 O3_2 1_555 1_555
C15 H12 1_555 1_555
C18 C14 1_555 1_555
H15 C18 1_555 1_555
O5 C19 1_555 1_555
C19 C14 1_555 1_555
O6 C19 1_555 1_555
C20 P1_2 1_555 1_555
N3 C28 1_555 1_555
C30 N3 1_555 1_555
H22 C30 1_555 1_555
Cd2_2 O5 1_555 1_555
O9 Cd2_2 1_555 1_555
H30 O9 1_555 1_555
H31 O9 1_555 1_555
Cd6 N3 1_555 1_555
N14 Cd2_2 1_555 1_555
C15 C18 1_555 1_555
C15 C20 1_555 1_555
C29 C30 1_555 1_555
P1_3 O3_3 1_555 1_555
C23 H17 1_555 1_555
C24 C23 1_555 1_555
H18 C24 1_555 1_555
N9 Cd3_2 1_555 1_555
C46 N9 1_555 1_555
H37 C46 1_555 1_555
N10 C46 1_555 1_555
C47 N10 1_555 1_555
H38 C47 1_555 1_555
C48 N9 1_555 1_555
H39 C48 1_555 1_555
C49 N10 1_555 1_555
C50 C49 1_555 1_555
H40 C50 1_555 1_555
C51 C50 1_555 1_555
H41 C51 1_555 1_555
C55 C51 1_555 1_555
C56 C55 1_555 1_555
H47 C56 1_555 1_555
C57 C49 1_555 1_555
H48 C57 1_555 1_555
O20 Cd3_2 1_555 1_555
H65 O20 1_555 1_555
H66 O20 1_555 1_555
O22 Cd3_2 1_555 1_555
C47 C48 1_555 1_555
N12 C55 1_555 1_555
C56 C57 1_555 1_555
Cd1 O1 1_555 1_555
P1_4 O3_4 1_555 1_555
C1 C3 1_555 1_555
C2 H1 1_555 1_555
C3 H2 1_555 1_555
C4 C3 1_555 1_555
H3 C4 1_555 1_555
C5 C1 1_555 1_555
H4 C5 1_555 1_555
O1 C6 1_555 1_555
C6 C1 1_555 1_555
O2 C6 1_555 1_555
C7 P1_4 1_555 1_555
N1 Cd1 1_555 1_555
C8 N1 1_555 1_555
H5 C8 1_555 1_555
N2 C8 1_555 1_555
C9 N2 1_555 1_555
H6 C9 1_555 1_555
C10 N1 1_555 1_555
H7 C10 1_555 1_555
C11 N2 1_555 1_555
C12 C11 1_555 1_555
H8 C12 1_555 1_555
C13 C12 1_555 1_555
H9 C13 1_555 1_555
O4 Cd1 1_555 1_555
H10 O4 1_555 1_555
H11 O4 1_555 1_555
C31 C13 1_555 1_555
C32 C31 1_555 1_555
H23 C32 1_555 1_555
C33 C11 1_555 1_555
H24 C33 1_555 1_555
N11 C52 1_555 1_555
C54 N11 1_555 1_555
H46 C54 1_555 1_555
P2 O13 1_555 1_555
C58 C60 1_555 1_555
C59 H49 1_555 1_555
C60 H50 1_555 1_555
C61 C60 1_555 1_555
H51 C61 1_555 1_555
C62 C58 1_555 1_555
H52 C62 1_555 1_555
O11 Cd1 1_555 1_555
C63 C58 1_555 1_555
O12 C63 1_555 1_555
C64 P2 1_555 1_555
O14 Cd1 1_555 1_555
H53 O14 1_555 1_555
H54 O14 1_555 1_555
Cd8 N11 1_555 1_555
N13 Cd1 1_555 1_555
C2 C5 1_555 1_555
C2 C7 1_555 1_555
C4 C7 1_555 1_555
C9 C10 1_555 1_555
N4 C31 1_555 1_555
C32 C33 1_555 1_555
C53 C54 1_555 1_555
C59 C62 1_555 1_555
C59 C64 1_555 1_555
C61 C64 1_555 1_555
O11 C63 1_555 1_555
P2_2 O13_2 1_555 1_555
C74 H60 1_555 1_555
C75 C74 1_555 1_555
H61 C75 1_555 1_555
P2_3 O13_3 1_555 1_555
C66 H55 1_555 1_555
C69 C65 1_555 1_555
H58 C69 1_555 1_555
O21 C70 1_555 1_555
C70 C65 1_555 1_555
O16 C70 1_555 1_555
C71 P2_3 1_555 1_555
C66 C69 1_555 1_555
C66 C71 1_555 1_555
P2_4 O13_4 1_555 1_555
C67 H56 1_555 1_555
C68 C67 1_555 1_555
H57 C68 1_555 1_555
C73 H59 1_555 1_555
C76 C72 1_555 1_555
H62 C76 1_555 1_555
O22 C77 1_555 1_555
C77 C72 1_555 1_555
O18 C77 1_555 1_555
C78 P2_4 1_555 1_555
C73 C76 1_555 1_555
C73 C78 1_555 1_555
H35_2 C44_2 1_555 1_555
Cd7 O5_2 1_555 1_555
N5_2 Cd7 1_555 1_555
C34_2 N5_2 1_555 1_555
H25_2 C34_2 1_555 1_555
N6_2 C34_2 1_555 1_555
C35_2 N6_2 1_555 1_555
H26_2 C35_2 1_555 1_555
C36_2 N5_2 1_555 1_555
H27_2 C36_2 1_555 1_555
C37_2 N6_2 1_555 1_555
O9_2 Cd7 1_555 1_555
H30_2 O9_2 1_555 1_555
H31_2 O9_2 1_555 1_555
C45_2 C37_2 1_555 1_555
H36_2 C45_2 1_555 1_555
O19_2 Cd7 1_555 1_555
H63_2 O19_2 1_555 1_555
H64_2 O19_2 1_555 1_555
O21_2 Cd7 1_555 1_555
C35_2 C36_2 1_555 1_555
H9_2 C13_2 1_555 1_555
N3_2 C28_2 1_555 1_555
C28_2 H20_2 1_555 1_555
N4_2 C28_2 1_555 1_555
C29_2 N4_2 1_555 1_555
H21_2 C29_2 1_555 1_555
C30_2 N3_2 1_555 1_555
H22_2 C30_2 1_555 1_555
C31_2 C13_2 1_555 1_555
H29_2 C39_2 1_555 1_555
N7_2 C40_2 1_555 1_555
C40_2 H32_2 1_555 1_555
N8_2 C40_2 1_555 1_555
C41_2 N8_2 1_555 1_555
H33_2 C41_2 1_555 1_555
C42_2 N7_2 1_555 1_555
H34_2 C42_2 1_555 1_555
C43_2 C39_2 1_555 1_555
H41_2 C51_2 1_555 1_555
N11_2 C52_2 1_555 1_555
C52_2 H44_2 1_555 1_555
N12_2 C52_2 1_555 1_555
C53_2 N12_2 1_555 1_555
H45_2 C53_2 1_555 1_555
C54_2 N11_2 1_555 1_555
H46_2 C54_2 1_555 1_555
C55_2 C51_2 1_555 1_555
C56_2 C55_2 1_555 1_555
H47_2 C56_2 1_555 1_555
Cd6_2 N3_2 1_555 1_555
Cd7_2 N7_2 1_555 1_555
Cd8_2 N11_2 1_555 1_555
N4_2 C31_2 1_555 1_555
C29_2 C30_2 1_555 1_555
N8_2 C43_2 1_555 1_555
C41_2 C42_2 1_555 1_555
N12_2 C55_2 1_555 1_555
C53_2 C54_2 1_555 1_555
P1_5 O3_5 1_555 1_555
C1_2 C3_2 1_555 1_555
C2_2 H1_2 1_555 1_555
C3_2 H2_2 1_555 1_555
C4_2 C3_2 1_555 1_555
H3_2 C4_2 1_555 1_555
C5_2 C1_2 1_555 1_555
H4_2 C5_2 1_555 1_555
C6_2 C1_2 1_555 1_555
O2_2 C6_2 1_555 1_555
C7_2 P1_5 1_555 1_555
H8_2 C12_2 1_555 1_555
C14_2 C16_2 1_555 1_555
C15_2 H12_2 1_555 1_555
C16_2 H13_2 1_555 1_555
C17_2 C16_2 1_555 1_555
H14_2 C17_2 1_555 1_555
C18_2 C14_2 1_555 1_555
H15_2 C18_2 1_555 1_555
C19_2 C14_2 1_555 1_555
O6_2 C19_2 1_555 1_555
C20_2 P1_5 1_555 1_555
C21_2 C23_2 1_555 1_555
C22_2 H16_2 1_555 1_555
C23_2 H17_2 1_555 1_555
C24_2 C23_2 1_555 1_555
H18_2 C24_2 1_555 1_555
C25_2 C21_2 1_555 1_555
H19_2 C25_2 1_555 1_555
O7_2 C26_2 1_555 1_555
C26_2 C21_2 1_555 1_555
O8_2 C26_2 1_555 1_555
C27_2 P1_5 1_555 1_555
H28_2 C38_2 1_555 1_555
Cd8 O7_2 1_555 1_555
N9_2 Cd8 1_555 1_555
C46_2 N9_2 1_555 1_555
H37_2 C46_2 1_555 1_555
N10_2 C46_2 1_555 1_555
C47_2 N10_2 1_555 1_555
H38_2 C47_2 1_555 1_555
C48_2 N9_2 1_555 1_555
H39_2 C48_2 1_555 1_555
C49_2 N10_2 1_555 1_555
C50_2 C49_2 1_555 1_555
H40_2 C50_2 1_555 1_555
O10_2 Cd8 1_555 1_555
H42_2 O10_2 1_555 1_555
H43_2 O10_2 1_555 1_555
C57_2 C49_2 1_555 1_555
H48_2 C57_2 1_555 1_555
O20_2 Cd8 1_555 1_555
H65_2 O20_2 1_555 1_555
H66_2 O20_2 1_555 1_555
O22_2 Cd8 1_555 1_555
C2_2 C5_2 1_555 1_555
C2_2 C7_2 1_555 1_555
C4_2 C7_2 1_555 1_555
C15_2 C18_2 1_555 1_555
C15_2 C20_2 1_555 1_555
C17_2 C20_2 1_555 1_555
C22_2 C25_2 1_555 1_555
C22_2 C27_2 1_555 1_555
C24_2 C27_2 1_555 1_555
C47_2 C48_2 1_555 1_555
H23_2 C32_2 1_555 1_555
Cd6 O1_2 1_555 1_555
N1_2 Cd6 1_555 1_555
C8_2 N1_2 1_555 1_555
H5_2 C8_2 1_555 1_555
N2_2 C8_2 1_555 1_555
C9_2 N2_2 1_555 1_555
H6_2 C9_2 1_555 1_555
C10_2 N1_2 1_555 1_555
H7_2 C10_2 1_555 1_555
C11_2 N2_2 1_555 1_555
O4_2 Cd6 1_555 1_555
H10_2 O4_2 1_555 1_555
H11_2 O4_2 1_555 1_555
C33_2 C11_2 1_555 1_555
H24_2 C33_2 1_555 1_555
O11_2 Cd6 1_555 1_555
O12_2 C63_2 1_555 1_555
O14_2 Cd6 1_555 1_555
H53_2 O14_2 1_555 1_555
H54_2 O14_2 1_555 1_555
C9_2 C10_2 1_555 1_555
O11_2 C63_2 1_555 1_555
P2_5 O13_5 1_555 1_555
C58_2 C60_2 1_555 1_555
C59_2 H49_2 1_555 1_555
C60_2 H50_2 1_555 1_555
C61_2 C60_2 1_555 1_555
H51_2 C61_2 1_555 1_555
C62_2 C58_2 1_555 1_555
H52_2 C62_2 1_555 1_555
C64_2 P2_5 1_555 1_555
C65_2 C67_2 1_555 1_555
C66_2 H55_2 1_555 1_555
C67_2 H56_2 1_555 1_555
C68_2 C67_2 1_555 1_555
H57_2 C68_2 1_555 1_555
C69_2 C65_2 1_555 1_555
H58_2 C69_2 1_555 1_555
O21_2 C70_2 1_555 1_555
C70_2 C65_2 1_555 1_555
O16_2 C70_2 1_555 1_555
C71_2 P2_5 1_555 1_555
C72_2 C74_2 1_555 1_555
C73_2 H59_2 1_555 1_555
C74_2 H60_2 1_555 1_555
C75_2 C74_2 1_555 1_555
H61_2 C75_2 1_555 1_555
C76_2 C72_2 1_555 1_555
H62_2 C76_2 1_555 1_555
C78_2 P2_5 1_555 1_555
C59_2 C62_2 1_555 1_555
C59_2 C64_2 1_555 1_555
C61_2 C64_2 1_555 1_555
C66_2 C69_2 1_555 1_555
C66_2 C71_2 1_555 1_555
C68_2 C71_2 1_555 1_555
C73_2 C76_2 1_555 1_555
C73_2 C78_2 1_555 1_555
C75_2 C78_2 1_555 1_555
O22_2 C77_2 1_555 1_555
O18_2 C77_2 1_555 1_555
O7_3 C26_3 1_555 1_555
O8_3 C26_3 1_555 1_555
Cd8_2 O7_3 1_555 1_555
N9_3 Cd8_2 1_555 1_555
C46_3 N9_3 1_555 1_555
C48_3 N9_3 1_555 1_555
H39_3 C48_3 1_555 1_555
O10_3 Cd8_2 1_555 1_555
H42_3 O10_3 1_555 1_555
H43_3 O10_3 1_555 1_555
O20_3 Cd8_2 1_555 1_555
H65_3 O20_3 1_555 1_555
H66_3 O20_3 1_555 1_555
O22_3 Cd8_2 1_555 1_555
C47_3 C48_3 1_555 1_555
P1_6 O3_6 1_555 1_555
C1_3 C3_3 1_555 1_555
C2_3 H1_3 1_555 1_555
C3_3 H2_3 1_555 1_555
C4_3 C3_3 1_555 1_555
H3_3 C4_3 1_555 1_555
C5_3 C1_3 1_555 1_555
H4_3 C5_3 1_555 1_555
C7_3 P1_6 1_555 1_555
C11_3 N2_3 1_555 1_555
C12_3 C11_3 1_555 1_555
H8_3 C12_3 1_555 1_555
C13_3 C12_3 1_555 1_555
H9_3 C13_3 1_555 1_555
C14_3 C16_3 1_555 1_555
C15_3 H12_3 1_555 1_555
C16_3 H13_3 1_555 1_555
C17_3 C16_3 1_555 1_555
H14_3 C17_3 1_555 1_555
C18_3 C14_3 1_555 1_555
H15_3 C18_3 1_555 1_555
O5_3 C19_3 1_555 1_555
C19_3 C14_3 1_555 1_555
O6_3 C19_3 1_555 1_555
C20_3 P1_6 1_555 1_555
C21_3 C23_3 1_555 1_555
C22_3 H16_3 1_555 1_555
C23_3 H17_3 1_555 1_555
C24_3 C23_3 1_555 1_555
H18_3 C24_3 1_555 1_555
C25_3 C21_3 1_555 1_555
H19_3 C25_3 1_555 1_555
C27_3 P1_6 1_555 1_555
N13 C28_3 1_555 1_555
C28_3 H20_3 1_555 1_555
N4_3 C28_3 1_555 1_555
C29_3 N4_3 1_555 1_555
H21_3 C29_3 1_555 1_555
C30_3 N13 1_555 1_555
H22_3 C30_3 1_555 1_555
C31_3 C13_3 1_555 1_555
C32_3 C31_3 1_555 1_555
H23_3 C32_3 1_555 1_555
C33_3 C11_3 1_555 1_555
H24_3 C33_3 1_555 1_555
Cd7_2 O5_3 1_555 1_555
N5_3 Cd7_2 1_555 1_555
C34_3 N5_3 1_555 1_555
H25_3 C34_3 1_555 1_555
N6_3 C34_3 1_555 1_555
C35_3 N6_3 1_555 1_555
H26_3 C35_3 1_555 1_555
C36_3 N5_3 1_555 1_555
H27_3 C36_3 1_555 1_555
C37_3 N6_3 1_555 1_555
C38_3 C37_3 1_555 1_555
H28_3 C38_3 1_555 1_555
C39_3 C38_3 1_555 1_555
H29_3 C39_3 1_555 1_555
O9_3 Cd7_2 1_555 1_555
H30_3 O9_3 1_555 1_555
H31_3 O9_3 1_555 1_555
N14 C40_3 1_555 1_555
C40_3 H32_3 1_555 1_555
N8_3 C40_3 1_555 1_555
C41_3 N8_3 1_555 1_555
H33_3 C41_3 1_555 1_555
C42_3 N14 1_555 1_555
H34_3 C42_3 1_555 1_555
C43_3 C39_3 1_555 1_555
C44_3 C43_3 1_555 1_555
H35_3 C44_3 1_555 1_555
C45_3 C37_3 1_555 1_555
H36_3 C45_3 1_555 1_555
C49_3 N10_3 1_555 1_555
C50_3 C49_3 1_555 1_555
H40_3 C50_3 1_555 1_555
C51_3 C50_3 1_555 1_555
H41_3 C51_3 1_555 1_555
N15 C52_3 1_555 1_555
C52_3 H44_3 1_555 1_555
N12_3 C52_3 1_555 1_555
C53_3 N12_3 1_555 1_555
H45_3 C53_3 1_555 1_555
C54_3 N15 1_555 1_555
H46_3 C54_3 1_555 1_555
C55_3 C51_3 1_555 1_555
C56_3 C55_3 1_555 1_555
H47_3 C56_3 1_555 1_555
C57_3 C49_3 1_555 1_555
H48_3 C57_3 1_555 1_555
O19_3 Cd7_2 1_555 1_555
H63_3 O19_3 1_555 1_555
H64_3 O19_3 1_555 1_555
O21_3 Cd7_2 1_555 1_555
C2_3 C5_3 1_555 1_555
C2_3 C7_3 1_555 1_555
C4_3 C7_3 1_555 1_555
C15_3 C18_3 1_555 1_555
C15_3 C20_3 1_555 1_555
C17_3 C20_3 1_555 1_555
C22_3 C25_3 1_555 1_555
C22_3 C27_3 1_555 1_555
C24_3 C27_3 1_555 1_555
N4_3 C31_3 1_555 1_555
C29_3 C30_3 1_555 1_555
C32_3 C33_3 1_555 1_555
C35_3 C36_3 1_555 1_555
N8_3 C43_3 1_555 1_555
C41_3 C42_3 1_555 1_555
C44_3 C45_3 1_555 1_555
N12_3 C55_3 1_555 1_555
C53_3 C54_3 1_555 1_555
C56_3 C57_3 1_555 1_555
Cd6_2 O1_3 1_555 1_555
O1_3 C6_3 1_555 1_555
O2_3 C6_3 1_555 1_555
N1_3 Cd6_2 1_555 1_555
C8_3 N1_3 1_555 1_555
C10_3 N1_3 1_555 1_555
H7_3 C10_3 1_555 1_555
O4_3 Cd6_2 1_555 1_555
H10_3 O4_3 1_555 1_555
H11_3 O4_3 1_555 1_555
O11_3 Cd6_2 1_555 1_555
O14_3 Cd6_2 1_555 1_555
H53_3 O14_3 1_555 1_555
H54_3 O14_3 1_555 1_555
C9_3 C10_3 1_555 1_555
P2_6 O13_6 1_555 1_555
C58_3 C60_3 1_555 1_555
C59_3 H49_3 1_555 1_555
C60_3 H50_3 1_555 1_555
C61_3 C60_3 1_555 1_555
H51_3 C61_3 1_555 1_555
C62_3 C58_3 1_555 1_555
H52_3 C62_3 1_555 1_555
C63_3 C58_3 1_555 1_555
O12_3 C63_3 1_555 1_555
C64_3 P2_6 1_555 1_555
C65_3 C67_3 1_555 1_555
C66_3 H55_3 1_555 1_555
C67_3 H56_3 1_555 1_555
C68_3 C67_3 1_555 1_555
H57_3 C68_3 1_555 1_555
C69_3 C65_3 1_555 1_555
H58_3 C69_3 1_555 1_555
C70_3 C65_3 1_555 1_555
O16_3 C70_3 1_555 1_555
C71_3 P2_6 1_555 1_555
C72_3 C74_3 1_555 1_555
C73_3 H59_3 1_555 1_555
C74_3 H60_3 1_555 1_555
C75_3 C74_3 1_555 1_555
H61_3 C75_3 1_555 1_555
C76_3 C72_3 1_555 1_555
H62_3 C76_3 1_555 1_555
O22_3 C77_3 1_555 1_555
C77_3 C72_3 1_555 1_555
O18_3 C77_3 1_555 1_555
C78_3 P2_6 1_555 1_555
C59_3 C62_3 1_555 1_555
C59_3 C64_3 1_555 1_555
C61_3 C64_3 1_555 1_555
C66_3 C69_3 1_555 1_555
C66_3 C71_3 1_555 1_555
C68_3 C71_3 1_555 1_555
C73_3 C76_3 1_555 1_555
C73_3 C78_3 1_555 1_555
C75_3 C78_3 1_555 1_555

#END
