
###############################################################################
#
# This file contains modified crystal structure data generated from the
# MOF subset of the Cambridge Structural Database (CSD) v543 
# hosted by the Cambridge Crystallographic Data Centre (CCDC).
#
# This work is licensed under the Creative Commons
# Attribution-NonCommercial-ShareAlike 4.0 International License.
# To view a copy of this license, visit
# http://creativecommons.org/licenses/by-nc-sa/4.0/
# or send a letter to
# Creative Commons, PO Box 1866, Mountain View, CA 94042, USA.
#
# CIF created using the CSD Python API on 29 September 2022
# The structure has been converted into the P1 space group
# The structure has a 3D framework
# The original CSD entry WEFSEF is in the cubic crystal system
# The original CSD entry WEFSEF is in a Sohncke space group
# The framework has been calculated to contain at least 10.0% void space
# The void calculation uses a probe of radius 1.32A, grid spacing 0.4
# The framework is charged, counterions have been retained in the structure
# H atom positions have been added when not included in the experimental data
#
###############################################################################

data_WEFSEF
_chemical_formula_moiety         '(C96 H360 N12 Na1 Pt8 S12 3-)n'
_symmetry_cell_setting           triclinic
_symmetry_space_group_name_H-M   'P 1'
_symmetry_Int_Tables_number      1
_space_group_name_Hall           'P 1'
loop_
_symmetry_equiv_pos_site_id
_symmetry_equiv_pos_as_xyz
1 x,y,z
_cell_length_a                   15.254(2)
_cell_length_b                   15.254(2)
_cell_length_c                   15.254(2)
_cell_angle_alpha                90
_cell_angle_beta                 90
_cell_angle_gamma                90
_cell_volume                     3549.37
loop_
_atom_site_label
_atom_site_type_symbol
_atom_site_fract_x
_atom_site_fract_y
_atom_site_fract_z
Pt1 Pt 0.42246(4) 0.42246(4) 0.42246(4)
Pt2 Pt 0.29500(4) 0.29500(4) 0.29500(4)
C1 C 0.5605(10) 0.4139(11) 0.4371(13)
C2 C 0.1901(11) 0.2177(12) 0.3333(11)
S1 S 0.4069(3) 0.2615(2) 0.4078(3)
C3 C 0.3741(10) 0.2164(11) 0.5138(10)
C4 C 0.4581(10) 0.2025(11) 0.5687(10)
C5 C 0.4393(11) 0.1633(11) 0.6551(10)
C6 C 0.3079(11) 0.0939(11) 0.6007(10)
C7 C 0.3237(10) 0.1329(10) 0.5092(10)
C8 C 0.3799(13) 0.0393(14) 0.7332(11)
N1 N 0.3934(8) 0.0792(9) 0.6466(8)
H1 H 0.3373(10) 0.2605(11) 0.5440(10)
H2 H 0.4983(10) 0.1642(11) 0.5364(10)
H3 H 0.4873(10) 0.2591(11) 0.5771(10)
H4 H 0.4945(11) 0.1543(11) 0.6868(10)
H5 H 0.4032(11) 0.2039(11) 0.6895(10)
H6 H 0.2715(11) 0.1341(11) 0.6352(10)
H7 H 0.2765(11) 0.0382(11) 0.5952(10)
H8 H 0.3562(10) 0.0905(10) 0.4734(10)
H9 H 0.2672(10) 0.1437(10) 0.4806(10)
H11 H 0.3411(67) 0.0760(45) 0.7677(31)
H12 H 0.4359(17) 0.0338(75) 0.7629(35)
C9 C 0.4371(13) 0.5605(10) 0.4139(11)
C10 C 0.4139(11) 0.4371(13) 0.5605(10)
S2 S 0.4078(3) 0.4069(3) 0.2615(2)
C11 C 0.5138(10) 0.3741(10) 0.2164(11)
C12 C 0.5687(10) 0.4581(10) 0.2025(11)
C13 C 0.6551(10) 0.4393(11) 0.1633(11)
C14 C 0.6007(10) 0.3079(11) 0.0939(11)
C15 C 0.5092(10) 0.3237(10) 0.1329(10)
C16 C 0.7332(11) 0.3799(13) 0.0393(14)
N2 N 0.6466(8) 0.3934(8) 0.0792(9)
H13 H 0.5440(10) 0.3373(10) 0.2605(11)
H14 H 0.5364(10) 0.4983(10) 0.1642(11)
H15 H 0.5771(10) 0.4873(10) 0.2591(11)
H16 H 0.6868(10) 0.4945(11) 0.1543(11)
H17 H 0.6895(10) 0.4032(11) 0.2039(11)
H18 H 0.6352(10) 0.2715(11) 0.1341(11)
H19 H 0.5952(10) 0.2765(11) 0.0382(11)
H20 H 0.4734(10) 0.3562(10) 0.0905(10)
H21 H 0.4806(10) 0.2672(10) 0.1437(10)
H23 H 0.7677(31) 0.3411(67) 0.0760(45)
H24 H 0.7629(35) 0.4359(17) 0.0338(75)
S3 S 0.2615(2) 0.4078(3) 0.4069(3)
C17 C 0.2164(11) 0.5138(10) 0.3741(10)
C18 C 0.2025(11) 0.5687(10) 0.4581(10)
C19 C 0.1633(11) 0.6551(10) 0.4393(11)
C20 C 0.0939(11) 0.6007(10) 0.3079(11)
C21 C 0.1329(10) 0.5092(10) 0.3237(10)
C22 C 0.0393(14) 0.7332(11) 0.3799(13)
N3 N 0.0792(9) 0.6466(8) 0.3934(8)
H25 H 0.2605(11) 0.5440(10) 0.3373(10)
H26 H 0.1642(11) 0.5364(10) 0.4983(10)
H27 H 0.2591(11) 0.5771(10) 0.4873(10)
H28 H 0.1543(11) 0.6868(10) 0.4945(11)
H29 H 0.2039(11) 0.6895(10) 0.4032(11)
H30 H 0.1341(11) 0.6352(10) 0.2715(11)
H31 H 0.0382(11) 0.5952(10) 0.2765(11)
H32 H 0.0905(10) 0.4734(10) 0.3562(10)
H33 H 0.1437(10) 0.4806(10) 0.2672(10)
H35 H 0.0760(45) 0.7677(31) 0.3411(67)
H36 H 0.0338(75) 0.7629(35) 0.4359(17)
C23 C 0.3333(11) 0.1901(11) 0.2177(12)
C24 C 0.2177(12) 0.3333(11) 0.1901(11)
H37 H 0.450147 0.495242 0.580557
H38 H 0.345431 0.444012 0.579497
H39 H 0.441728 0.37956 0.592304
H40 H 0.169512 0.236404 0.399049
H41 H 0.135848 0.226983 0.287833
H42 H 0.2098 0.149081 0.33315
H43 H 0.478773 0.576603 0.358216
H44 H 0.373015 0.590733 0.405192
H45 H 0.467027 0.585023 0.473898
H46 H 0.588762 0.383592 0.378968
H47 H 0.58766 0.479402 0.445378
H48 H 0.575937 0.374312 0.494469
H49 H 0.281748 0.175154 0.170629
H50 H 0.393261 0.206908 0.182787
H51 H 0.345023 0.133098 0.259052
H52 H 0.158262 0.364449 0.214462
H53 H 0.253888 0.379557 0.149511
H54 H 0.200318 0.276026 0.151187
H22 H 0.7262(11) 0.3539(76) 0.9817(37)
Na2 Na 0.5380(8) 0.4620(8) 0.9620(8)
Na1 Na 0.4620(8) 0.9620(8) 0.5380(8)
H10 H 0.3539(76) 0.9817(37) 0.7262(11)
N4 N 0.5792(9) 0.8534(8) 0.6066(8)
N5 N 0.3534(8) 0.8934(8) 0.4208(9)
H34 H 0.9817(37) 0.7262(11) 0.3539(76)
Na3 Na 0.9620(8) 0.5380(8) 0.4620(8)
H37_2 H 0.580557 0.450147 0.495242
H38_2 H 0.579497 0.345431 0.444012
H39_2 H 0.592304 0.441728 0.37956
H40_2 H 0.399049 0.169512 0.236404
H41_2 H 0.287833 0.135848 0.226983
H42_2 H 0.33315 0.2098 0.149081
H43_2 H 0.358216 0.478773 0.576603
H44_2 H 0.405192 0.373015 0.590733
H45_2 H 0.473898 0.467027 0.585023
H46_2 H 0.378968 0.588762 0.383592
H47_2 H 0.445378 0.58766 0.479402
H48_2 H 0.494469 0.575937 0.374312
H49_2 H 0.170629 0.281748 0.175154
H50_2 H 0.182787 0.393261 0.206908
H51_2 H 0.259052 0.345023 0.133098
H52_2 H 0.214462 0.158262 0.364449
H53_2 H 0.149511 0.253888 0.379557
H54_2 H 0.151187 0.200318 0.276026
N4_2 N 0.6066(8) 0.5792(9) 0.8534(8)
N5_2 N 0.4208(9) 0.3534(8) 0.8934(8)
H37_3 H 0.495242 0.580557 0.450147
H38_3 H 0.444012 0.579497 0.345431
H39_3 H 0.37956 0.592304 0.441728
H40_3 H 0.236404 0.399049 0.169512
H41_3 H 0.226983 0.287833 0.135848
H42_3 H 0.149081 0.33315 0.2098
H43_3 H 0.576603 0.358216 0.478773
H44_3 H 0.590733 0.405192 0.373015
H45_3 H 0.585023 0.473898 0.467027
H46_3 H 0.383592 0.378968 0.588762
H47_3 H 0.479402 0.445378 0.58766
H48_3 H 0.374312 0.494469 0.575937
H49_3 H 0.175154 0.170629 0.281748
H50_3 H 0.206908 0.182787 0.393261
H51_3 H 0.133098 0.259052 0.345023
H52_3 H 0.364449 0.214462 0.158262
H53_3 H 0.379557 0.149511 0.253888
H54_3 H 0.276026 0.151187 0.200318
N4_3 N 0.8534(8) 0.6066(8) 0.5792(9)
N5_3 N 0.8934(8) 0.4208(9) 0.3534(8)
C1_2 C 0.0605(10) 0.0861(11) 0.5629(13)
C11_2 C 0.0138(10) 0.1259(10) 0.7836(11)
C12_2 C 0.0687(10) 0.0419(10) 0.7975(11)
C13_2 C 0.1551(10) 0.0607(11) 0.8367(11)
C14_2 C 0.1007(10) 0.1921(11) 0.9061(11)
C15_2 C 0.0092(10) 0.1763(10) 0.8671(10)
C16_2 C 0.2332(11) 0.1201(13) 0.9607(14)
N2_2 N 0.1466(8) 0.1066(8) 0.9208(9)
H13_2 H 0.0440(10) 0.1627(10) 0.7395(11)
H14_2 H 0.0364(10) 0.0017(10) 0.8358(11)
H15_2 H 0.0771(10) 0.0127(10) 0.7409(11)
H16_2 H 0.1868(10) 0.0055(11) 0.8457(11)
H17_2 H 0.1895(10) 0.0968(11) 0.7961(11)
H18_2 H 0.1352(10) 0.2285(11) 0.8659(11)
H19_2 H 0.0952(10) 0.2235(11) 0.9618(11)
H23_2 H 0.2677(31) 0.1589(67) 0.9240(45)
H24_2 H 0.2629(35) 0.0641(17) 0.9662(75)
H46_4 H 0.0887618 0.116408 0.621032
H47_4 H 0.0876598 0.0205981 0.554622
H48_4 H 0.0759367 0.125688 0.505531
Pt1_2 Pt 0.92246(4) 0.07754(4) 0.57754(4)
Pt2_2 Pt 0.79500(4) 0.20500(4) 0.70500(4)
C2_2 C 0.6901(11) 0.2823(12) 0.6667(11)
S1_2 S 0.9069(3) 0.2385(2) 0.5922(3)
C3_2 C 0.8741(10) 0.2836(11) 0.4862(10)
C4_2 C 0.9581(10) 0.2975(11) 0.4313(10)
C5_2 C 0.9393(11) 0.3367(11) 0.3449(10)
C6_2 C 0.8079(11) 0.4061(11) 0.3993(10)
C7_2 C 0.8237(10) 0.3671(10) 0.4908(10)
C8_2 C 0.8799(13) 0.4607(14) 0.2668(11)
H1_2 H 0.8373(10) 0.2395(11) 0.4560(10)
H2_2 H 0.9983(10) 0.3358(11) 0.4636(10)
H3_2 H 0.9873(10) 0.2409(11) 0.4229(10)
H4_2 H 0.9945(11) 0.3457(11) 0.3132(10)
H5_2 H 0.9032(11) 0.2961(11) 0.3105(10)
H6_2 H 0.7715(11) 0.3659(11) 0.3648(10)
H7_2 H 0.7765(11) 0.4618(11) 0.4048(10)
H8_2 H 0.8562(10) 0.4095(10) 0.5266(10)
H9_2 H 0.7672(10) 0.3563(10) 0.5194(10)
H10_2 H 0.8539(76) 0.5183(37) 0.2738(11)
H11_2 H 0.8411(67) 0.4240(45) 0.2323(31)
H12_2 H 0.9359(17) 0.4662(75) 0.2371(35)
C10_2 C 0.9139(11) 0.0629(13) 0.4395(10)
S2_2 S 0.9078(3) 0.0931(3) 0.7385(2)
H20_2 H 0.9734(10) 0.1438(10) 0.9095(10)
H21_2 H 0.9806(10) 0.2328(10) 0.8563(10)
S3_2 S 0.7615(2) 0.0922(3) 0.5931(3)
H32_2 H 0.5905(10) 0.0266(10) 0.6438(10)
H33_2 H 0.6437(10) 0.0194(10) 0.7328(10)
C23_2 C 0.8333(11) 0.3099(11) 0.7823(12)
C24_2 C 0.7177(12) 0.1667(11) 0.8099(11)
H37_4 H 0.950147 0.00475767 0.419443
H38_4 H 0.845431 0.0559878 0.420503
H39_4 H 0.941728 0.12044 0.407696
H40_4 H 0.669512 0.263596 0.600951
H41_4 H 0.635848 0.273017 0.712167
H42_4 H 0.7098 0.350919 0.66685
H49_4 H 0.781748 0.324846 0.829371
H50_4 H 0.893261 0.293092 0.817213
H51_4 H 0.845023 0.366902 0.740948
H52_4 H 0.658262 0.135551 0.785538
H53_4 H 0.753888 0.120443 0.850489
H54_4 H 0.700318 0.223974 0.848813
C9_2 C 0.9371(13) 0.9395(10) 0.5861(11)
C17_2 C 0.7164(11) 0.9862(10) 0.6259(10)
C18_2 C 0.7025(11) 0.9313(10) 0.5419(10)
C19_2 C 0.6633(11) 0.8449(10) 0.5607(11)
C20_2 C 0.5939(11) 0.8993(10) 0.6921(11)
C21_2 C 0.6329(10) 0.9908(10) 0.6763(10)
C22_2 C 0.5393(14) 0.7668(11) 0.6201(13)
H25_2 H 0.7605(11) 0.9560(10) 0.6627(10)
H26_2 H 0.6642(11) 0.9636(10) 0.5017(10)
H27_2 H 0.7591(11) 0.9229(10) 0.5127(10)
H28_2 H 0.6543(11) 0.8132(10) 0.5055(11)
H29_2 H 0.7039(11) 0.8105(10) 0.5968(11)
H30_2 H 0.6341(11) 0.8648(10) 0.7285(11)
H31_2 H 0.5382(11) 0.9048(10) 0.7235(11)
H34_2 H 0.4817(37) 0.7738(11) 0.6461(76)
H35_2 H 0.5760(45) 0.7323(31) 0.6589(67)
H36_2 H 0.5338(75) 0.7371(35) 0.5641(17)
H43_4 H 0.978773 0.923397 0.641784
H44_4 H 0.873015 0.909267 0.594808
H45_4 H 0.967027 0.914977 0.526102
H37_5 H 0.0805573 0.0498527 0.504758
H38_5 H 0.079497 0.154569 0.555988
H39_5 H 0.092304 0.0582721 0.62044
N4_4 N 0.1066(8) 0.9208(9) 0.1466(8)
N5_4 N 0.9208(9) 0.1466(8) 0.1066(8)
H40_5 H 0.899049 0.330488 0.763596
H41_5 H 0.787833 0.364152 0.773017
H42_5 H 0.83315 0.2902 0.850919
H43_5 H 0.858216 0.0212268 0.423397
H44_5 H 0.905192 0.126985 0.409267
H45_5 H 0.973898 0.0329735 0.414977
H49_5 H 0.670629 0.218252 0.824846
H50_5 H 0.682787 0.106739 0.793092
H51_5 H 0.759052 0.154977 0.866902
H52_5 H 0.714462 0.341738 0.635551
H53_5 H 0.649511 0.246112 0.620443
H54_5 H 0.651187 0.299682 0.723974
H46_5 H 0.878968 0.911238 0.616408
H47_5 H 0.945378 0.91234 0.520598
H48_5 H 0.994469 0.924063 0.625688
H43_6 H 0.0766032 0.141784 0.521227
H44_6 H 0.0907326 0.0948077 0.626985
H45_6 H 0.0850226 0.0261022 0.532973
H40_6 H 0.736404 0.100951 0.830488
H41_6 H 0.726983 0.212167 0.864152
H42_6 H 0.649081 0.16685 0.7902
H46_6 H 0.883592 0.121032 0.411238
H47_6 H 0.979402 0.0546215 0.41234
H48_6 H 0.874312 0.00553106 0.424063
H49_6 H 0.675154 0.329371 0.718252
H50_6 H 0.706908 0.317213 0.606739
H51_6 H 0.633098 0.240948 0.654977
H52_6 H 0.864449 0.285538 0.841738
H53_6 H 0.879557 0.350489 0.746112
H54_6 H 0.776026 0.348813 0.799682
H37_6 H 0.995242 0.919443 0.549853
H38_6 H 0.944012 0.920503 0.654569
H39_6 H 0.87956 0.907696 0.558272
C9_3 C 0.5629(13) 0.0605(10) 0.0861(11)
C17_3 C 0.7836(11) 0.0138(10) 0.1259(10)
C18_3 C 0.7975(11) 0.0687(10) 0.0419(10)
C19_3 C 0.8367(11) 0.1551(10) 0.0607(11)
C20_3 C 0.9061(11) 0.1007(10) 0.1921(11)
C21_3 C 0.8671(10) 0.0092(10) 0.1763(10)
C22_3 C 0.9607(14) 0.2332(11) 0.1201(13)
H25_3 H 0.7395(11) 0.0440(10) 0.1627(10)
H26_3 H 0.8358(11) 0.0364(10) 0.0017(10)
H27_3 H 0.7409(11) 0.0771(10) 0.0127(10)
H28_3 H 0.8457(11) 0.1868(10) 0.0055(11)
H29_3 H 0.7961(11) 0.1895(10) 0.0968(11)
H30_3 H 0.8659(11) 0.1352(10) 0.2285(11)
H31_3 H 0.9618(11) 0.0952(10) 0.2235(11)
H35_3 H 0.9240(45) 0.2677(31) 0.1589(67)
H36_3 H 0.9662(75) 0.2629(35) 0.0641(17)
H43_7 H 0.521227 0.0766032 0.141784
H44_7 H 0.626985 0.0907326 0.0948077
H45_7 H 0.532973 0.0850226 0.0261022
Pt1_3 Pt 0.57754(4) 0.92246(4) 0.07754(4)
Pt2_3 Pt 0.70500(4) 0.79500(4) 0.20500(4)
C1_3 C 0.4395(10) 0.9139(11) 0.0629(13)
C2_3 C 0.8099(11) 0.7177(12) 0.1667(11)
S1_3 S 0.5931(3) 0.7615(2) 0.0922(3)
H8_3 H 0.6438(10) 0.5905(10) 0.0266(10)
H9_3 H 0.7328(10) 0.6437(10) 0.0194(10)
S2_3 S 0.5922(3) 0.9069(3) 0.2385(2)
C11_3 C 0.4862(10) 0.8741(10) 0.2836(11)
C12_3 C 0.4313(10) 0.9581(10) 0.2975(11)
C13_3 C 0.3449(10) 0.9393(11) 0.3367(11)
C14_3 C 0.3993(10) 0.8079(11) 0.4061(11)
C15_3 C 0.4908(10) 0.8237(10) 0.3671(10)
C16_3 C 0.2668(11) 0.8799(13) 0.4607(14)
H13_3 H 0.4560(10) 0.8373(10) 0.2395(11)
H14_3 H 0.4636(10) 0.9983(10) 0.3358(11)
H15_3 H 0.4229(10) 0.9873(10) 0.2409(11)
H16_3 H 0.3132(10) 0.9945(11) 0.3457(11)
H17_3 H 0.3105(10) 0.9032(11) 0.2961(11)
H18_3 H 0.3648(10) 0.7715(11) 0.3659(11)
H19_3 H 0.4048(10) 0.7765(11) 0.4618(11)
H20_3 H 0.5266(10) 0.8562(10) 0.4095(10)
H21_3 H 0.5194(10) 0.7672(10) 0.3563(10)
H22_2 H 0.2738(11) 0.8539(76) 0.5183(37)
H23_3 H 0.2323(31) 0.8411(67) 0.4240(45)
H24_3 H 0.2371(35) 0.9359(17) 0.4662(75)
S3_3 S 0.7385(2) 0.9078(3) 0.0931(3)
H32_3 H 0.9095(10) 0.9734(10) 0.1438(10)
H33_3 H 0.8563(10) 0.9806(10) 0.2328(10)
C23_3 C 0.6667(11) 0.6901(11) 0.2823(12)
C24_3 C 0.7823(12) 0.8333(11) 0.3099(11)
H40_7 H 0.830488 0.736404 0.100951
H41_7 H 0.864152 0.726983 0.212167
H42_7 H 0.7902 0.649081 0.16685
H46_7 H 0.411238 0.883592 0.121032
H47_7 H 0.41234 0.979402 0.0546215
H48_7 H 0.424063 0.874312 0.00553106
H49_7 H 0.718252 0.675154 0.329371
H50_7 H 0.606739 0.706908 0.317213
H51_7 H 0.654977 0.633098 0.240948
H52_7 H 0.841738 0.864449 0.285538
H53_7 H 0.746112 0.879557 0.350489
H54_7 H 0.799682 0.776026 0.348813
C3_3 C 0.6259(10) 0.7164(11) 0.9862(10)
C4_3 C 0.5419(10) 0.7025(11) 0.9313(10)
C5_3 C 0.5607(11) 0.6633(11) 0.8449(10)
C6_3 C 0.6921(11) 0.5939(11) 0.8993(10)
C7_3 C 0.6763(10) 0.6329(10) 0.9908(10)
C8_3 C 0.6201(13) 0.5393(14) 0.7668(11)
H1_3 H 0.6627(10) 0.7605(11) 0.9560(10)
H2_3 H 0.5017(10) 0.6642(11) 0.9636(10)
H3_3 H 0.5127(10) 0.7591(11) 0.9229(10)
H4_3 H 0.5055(11) 0.6543(11) 0.8132(10)
H5_3 H 0.5968(11) 0.7039(11) 0.8105(10)
H6_3 H 0.7285(11) 0.6341(11) 0.8648(10)
H7_3 H 0.7235(11) 0.5382(11) 0.9048(10)
H10_3 H 0.6461(76) 0.4817(37) 0.7738(11)
H11_3 H 0.6589(67) 0.5760(45) 0.7323(31)
H12_3 H 0.5641(17) 0.5338(75) 0.7371(35)
C10_3 C 0.5861(11) 0.9371(13) 0.9395(10)
H37_7 H 0.549853 0.995242 0.919443
H38_7 H 0.654569 0.944012 0.920503
H39_7 H 0.558272 0.87956 0.907696
H46_8 H 0.621032 0.0887618 0.116408
H47_8 H 0.554622 0.0876598 0.0205981
H48_8 H 0.505531 0.0759367 0.125688
H37_8 H 0.419443 0.950147 0.00475767
H38_8 H 0.420503 0.845431 0.0559878
H39_8 H 0.407696 0.941728 0.12044
H40_8 H 0.600951 0.669512 0.263596
H41_8 H 0.712167 0.635848 0.273017
H42_8 H 0.66685 0.7098 0.350919
H49_8 H 0.829371 0.781748 0.324846
H50_8 H 0.817213 0.893261 0.293092
H51_8 H 0.740948 0.845023 0.366902
H52_8 H 0.785538 0.658262 0.135551
H53_8 H 0.850489 0.753888 0.120443
H54_8 H 0.848813 0.700318 0.223974
H43_8 H 0.641784 0.978773 0.923397
H44_8 H 0.594808 0.873015 0.909267
H45_8 H 0.526102 0.967027 0.914977
H37_9 H 0.504758 0.0805573 0.0498527
H38_9 H 0.555988 0.079497 0.154569
H39_9 H 0.62044 0.092304 0.0582721
H40_9 H 0.763596 0.899049 0.330488
H41_9 H 0.773017 0.787833 0.364152
H42_9 H 0.850919 0.83315 0.2902
H43_9 H 0.423397 0.858216 0.0212268
H44_9 H 0.409267 0.905192 0.126985
H45_9 H 0.414977 0.973898 0.0329735
H49_9 H 0.824846 0.670629 0.218252
H50_9 H 0.793092 0.682787 0.106739
H51_9 H 0.866902 0.759052 0.154977
H52_9 H 0.635551 0.714462 0.341738
H53_9 H 0.620443 0.649511 0.246112
H54_9 H 0.723974 0.651187 0.299682
H46_9 H 0.616408 0.878968 0.911238
H47_9 H 0.520598 0.945378 0.91234
H48_9 H 0.625688 0.994469 0.924063
C3_4 C 0.1259(10) 0.7836(11) 0.0138(10)
C4_4 C 0.0419(10) 0.7975(11) 0.0687(10)
C5_4 C 0.0607(11) 0.8367(11) 0.1551(10)
C6_4 C 0.1921(11) 0.9061(11) 0.1007(10)
C7_4 C 0.1763(10) 0.8671(10) 0.0092(10)
C8_4 C 0.1201(13) 0.9607(14) 0.2332(11)
H1_4 H 0.1627(10) 0.7395(11) 0.0440(10)
H2_4 H 0.0017(10) 0.8358(11) 0.0364(10)
H3_4 H 0.0127(10) 0.7409(11) 0.0771(10)
H4_4 H 0.0055(11) 0.8457(11) 0.1868(10)
H5_4 H 0.0968(11) 0.7961(11) 0.1895(10)
H6_4 H 0.2285(11) 0.8659(11) 0.1352(10)
H7_4 H 0.2235(11) 0.9618(11) 0.0952(10)
H11_4 H 0.1589(67) 0.9240(45) 0.2677(31)
H12_4 H 0.0641(17) 0.9662(75) 0.2629(35)
C10_4 C 0.0861(11) 0.5629(13) 0.0605(10)
H37_10 H 0.0498527 0.504758 0.0805573
H38_10 H 0.154569 0.555988 0.079497
H39_10 H 0.0582721 0.62044 0.092304
Pt1_4 Pt 0.07754(4) 0.57754(4) 0.92246(4)
Pt2_4 Pt 0.20500(4) 0.70500(4) 0.79500(4)
C2_4 C 0.3099(11) 0.7823(12) 0.8333(11)
S1_4 S 0.0931(3) 0.7385(2) 0.9078(3)
H8_4 H 0.1438(10) 0.9095(10) 0.9734(10)
H9_4 H 0.2328(10) 0.8563(10) 0.9806(10)
C9_4 C 0.0629(13) 0.4395(10) 0.9139(11)
S2_4 S 0.0922(3) 0.5931(3) 0.7615(2)
H20_4 H 0.0266(10) 0.6438(10) 0.5905(10)
H21_4 H 0.0194(10) 0.7328(10) 0.6437(10)
S3_4 S 0.2385(2) 0.5922(3) 0.9069(3)
C17_4 C 0.2836(11) 0.4862(10) 0.8741(10)
C18_4 C 0.2975(11) 0.4313(10) 0.9581(10)
C19_4 C 0.3367(11) 0.3449(10) 0.9393(11)
C20_4 C 0.4061(11) 0.3993(10) 0.8079(11)
C21_4 C 0.3671(10) 0.4908(10) 0.8237(10)
C22_4 C 0.4607(14) 0.2668(11) 0.8799(13)
H25_4 H 0.2395(11) 0.4560(10) 0.8373(10)
H26_4 H 0.3358(11) 0.4636(10) 0.9983(10)
H27_4 H 0.2409(11) 0.4229(10) 0.9873(10)
H28_4 H 0.3457(11) 0.3132(10) 0.9945(11)
H29_4 H 0.2961(11) 0.3105(10) 0.9032(11)
H30_4 H 0.3659(11) 0.3648(10) 0.7715(11)
H31_4 H 0.4618(11) 0.4048(10) 0.7765(11)
H32_4 H 0.4095(10) 0.5266(10) 0.8562(10)
H33_4 H 0.3563(10) 0.5194(10) 0.7672(10)
H34_3 H 0.5183(37) 0.2738(11) 0.8539(76)
H35_4 H 0.4240(45) 0.2323(31) 0.8411(67)
H36_4 H 0.4662(75) 0.2371(35) 0.9359(17)
C23_4 C 0.1667(11) 0.8099(11) 0.7177(12)
C24_4 C 0.2823(12) 0.6667(11) 0.6901(11)
H40_10 H 0.330488 0.763596 0.899049
H41_10 H 0.364152 0.773017 0.787833
H42_10 H 0.2902 0.850919 0.83315
H43_10 H 0.0212268 0.423397 0.858216
H44_10 H 0.126985 0.409267 0.905192
H45_10 H 0.0329735 0.414977 0.973898
H49_10 H 0.218252 0.824846 0.670629
H50_10 H 0.106739 0.793092 0.682787
H51_10 H 0.154977 0.866902 0.759052
H52_10 H 0.341738 0.635551 0.714462
H53_10 H 0.246112 0.620443 0.649511
H54_10 H 0.299682 0.723974 0.651187
C1_4 C 0.9395(10) 0.5861(11) 0.9371(13)
C11_4 C 0.9862(10) 0.6259(10) 0.7164(11)
C12_4 C 0.9313(10) 0.5419(10) 0.7025(11)
C13_4 C 0.8449(10) 0.5607(11) 0.6633(11)
C14_4 C 0.8993(10) 0.6921(11) 0.5939(11)
C15_4 C 0.9908(10) 0.6763(10) 0.6329(10)
C16_4 C 0.7668(11) 0.6201(13) 0.5393(14)
H13_4 H 0.9560(10) 0.6627(10) 0.7605(11)
H14_4 H 0.9636(10) 0.5017(10) 0.6642(11)
H15_4 H 0.9229(10) 0.5127(10) 0.7591(11)
H16_4 H 0.8132(10) 0.5055(11) 0.6543(11)
H17_4 H 0.8105(10) 0.5968(11) 0.7039(11)
H18_4 H 0.8648(10) 0.7285(11) 0.6341(11)
H19_4 H 0.9048(10) 0.7235(11) 0.5382(11)
H22_3 H 0.7738(11) 0.6461(76) 0.4817(37)
H23_4 H 0.7323(31) 0.6589(67) 0.5760(45)
H24_4 H 0.7371(35) 0.5641(17) 0.5338(75)
H46_10 H 0.911238 0.616408 0.878968
H47_10 H 0.91234 0.520598 0.945378
H48_10 H 0.924063 0.625688 0.994469
H43_11 H 0.141784 0.521227 0.0766032
H44_11 H 0.0948077 0.626985 0.0907326
H45_11 H 0.0261022 0.532973 0.0850226
H40_11 H 0.100951 0.830488 0.736404
H41_11 H 0.212167 0.864152 0.726983
H42_11 H 0.16685 0.7902 0.649081
H46_11 H 0.121032 0.411238 0.883592
H47_11 H 0.0546215 0.41234 0.979402
H48_11 H 0.00553106 0.424063 0.874312
H49_11 H 0.329371 0.718252 0.675154
H50_11 H 0.317213 0.606739 0.706908
H51_11 H 0.240948 0.654977 0.633098
H52_11 H 0.285538 0.841738 0.864449
H53_11 H 0.350489 0.746112 0.879557
H54_11 H 0.348813 0.799682 0.776026
H37_11 H 0.919443 0.549853 0.995242
H38_11 H 0.920503 0.654569 0.944012
H39_11 H 0.907696 0.558272 0.87956
H46_12 H 0.116408 0.621032 0.0887618
H47_12 H 0.0205981 0.554622 0.0876598
H48_12 H 0.125688 0.505531 0.0759367
H37_12 H 0.00475767 0.419443 0.950147
H38_12 H 0.0559878 0.420503 0.845431
H39_12 H 0.12044 0.407696 0.941728
H40_12 H 0.263596 0.600951 0.669512
H41_12 H 0.273017 0.712167 0.635848
H42_12 H 0.350919 0.66685 0.7098
H49_12 H 0.324846 0.829371 0.781748
H50_12 H 0.293092 0.817213 0.893261
H51_12 H 0.366902 0.740948 0.845023
H52_12 H 0.135551 0.785538 0.658262
H53_12 H 0.120443 0.850489 0.753888
H54_12 H 0.223974 0.848813 0.700318
H43_12 H 0.923397 0.641784 0.978773
H44_12 H 0.909267 0.594808 0.873015
H45_12 H 0.914977 0.526102 0.967027
H22_4 H 0.2262(11) 0.1461(76) 0.0183(37)
Na2_2 Na 0.0380(8) 0.0380(8) 0.0380(8)
H34_4 H 0.0183(37) 0.2262(11) 0.1461(76)
H10_4 H 0.1461(76) 0.0183(37) 0.2262(11)
loop_
_geom_bond_atom_site_label_1
_geom_bond_atom_site_label_2
_geom_bond_site_symmetry_1
_geom_bond_site_symmetry_2
Pt1 C1 1_555 1_555
Pt2 C2 1_555 1_555
S1 Pt1 1_555 1_555
C3 S1 1_555 1_555
C4 C3 1_555 1_555
C5 C4 1_555 1_555
C6 C7 1_555 1_555
C7 C3 1_555 1_555
C8 N1 1_555 1_555
N1 C5 1_555 1_555
H1 C3 1_555 1_555
H2 C4 1_555 1_555
H3 C4 1_555 1_555
H4 C5 1_555 1_555
H5 C5 1_555 1_555
H6 C6 1_555 1_555
H7 C6 1_555 1_555
H8 C7 1_555 1_555
H9 C7 1_555 1_555
H11 C8 1_555 1_555
H12 C8 1_555 1_555
C9 Pt1 1_555 1_555
C10 Pt1 1_555 1_555
S2 Pt1 1_555 1_555
C11 S2 1_555 1_555
C12 C11 1_555 1_555
C13 C12 1_555 1_555
C14 C15 1_555 1_555
C15 C11 1_555 1_555
C16 N2 1_555 1_555
N2 C13 1_555 1_555
H13 C11 1_555 1_555
H14 C12 1_555 1_555
H15 C12 1_555 1_555
H16 C13 1_555 1_555
H17 C13 1_555 1_555
H18 C14 1_555 1_555
H19 C14 1_555 1_555
H20 C15 1_555 1_555
H21 C15 1_555 1_555
H23 C16 1_555 1_555
H24 C16 1_555 1_555
S3 Pt1 1_555 1_555
C17 S3 1_555 1_555
C18 C17 1_555 1_555
C19 C18 1_555 1_555
C20 C21 1_555 1_555
C21 C17 1_555 1_555
C22 N3 1_555 1_555
N3 C19 1_555 1_555
H25 C17 1_555 1_555
H26 C18 1_555 1_555
H27 C18 1_555 1_555
H28 C19 1_555 1_555
H29 C19 1_555 1_555
H30 C20 1_555 1_555
H31 C20 1_555 1_555
H32 C21 1_555 1_555
H33 C21 1_555 1_555
H35 C22 1_555 1_555
H36 C22 1_555 1_555
C23 Pt2 1_555 1_555
C24 Pt2 1_555 1_555
Pt2 S1 1_555 1_555
Pt2 S2 1_555 1_555
Pt2 S3 1_555 1_555
C6 N1 1_555 1_555
C14 N2 1_555 1_555
C20 N3 1_555 1_555
C10 H37 1_555 1_555
C10 H38 1_555 1_555
C10 H39 1_555 1_555
C2 H40 1_555 1_555
C2 H41 1_555 1_555
C2 H42 1_555 1_555
C9 H43 1_555 1_555
C9 H44 1_555 1_555
C9 H45 1_555 1_555
C1 H46 1_555 1_555
C1 H47 1_555 1_555
C1 H48 1_555 1_555
C23 H49 1_555 1_555
C23 H50 1_555 1_555
C23 H51 1_555 1_555
C24 H52 1_555 1_555
C24 H53 1_555 1_555
C24 H54 1_555 1_555
N4 Na1 1_555 1_555
N5 Na1 1_555 1_555
C1 H37_2 1_555 1_555
C1 H38_2 1_555 1_555
C1 H39_2 1_555 1_555
C23 H40_2 1_555 1_555
C23 H41_2 1_555 1_555
C23 H42_2 1_555 1_555
C10 H43_2 1_555 1_555
C10 H44_2 1_555 1_555
C10 H45_2 1_555 1_555
C9 H46_2 1_555 1_555
C9 H47_2 1_555 1_555
C9 H48_2 1_555 1_555
C24 H49_2 1_555 1_555
C24 H50_2 1_555 1_555
C24 H51_2 1_555 1_555
C2 H52_2 1_555 1_555
C2 H53_2 1_555 1_555
C2 H54_2 1_555 1_555
N4_2 Na2 1_555 1_555
N5_2 Na2 1_555 1_555
C9 H37_3 1_555 1_555
C9 H38_3 1_555 1_555
C9 H39_3 1_555 1_555
C24 H40_3 1_555 1_555
C24 H41_3 1_555 1_555
C24 H42_3 1_555 1_555
C1 H43_3 1_555 1_555
C1 H44_3 1_555 1_555
C1 H45_3 1_555 1_555
C10 H46_3 1_555 1_555
C10 H47_3 1_555 1_555
C10 H48_3 1_555 1_555
C2 H49_3 1_555 1_555
C2 H50_3 1_555 1_555
C2 H51_3 1_555 1_555
C23 H52_3 1_555 1_555
C23 H53_3 1_555 1_555
C23 H54_3 1_555 1_555
N4_3 Na3 1_555 1_555
N5_3 Na3 1_555 1_555
C12_2 C11_2 1_555 1_555
C13_2 C12_2 1_555 1_555
C14_2 C15_2 1_555 1_555
C15_2 C11_2 1_555 1_555
C16_2 N2_2 1_555 1_555
N2_2 C13_2 1_555 1_555
H13_2 C11_2 1_555 1_555
H14_2 C12_2 1_555 1_555
H15_2 C12_2 1_555 1_555
H16_2 C13_2 1_555 1_555
H17_2 C13_2 1_555 1_555
H18_2 C14_2 1_555 1_555
H19_2 C14_2 1_555 1_555
H23_2 C16_2 1_555 1_555
H24_2 C16_2 1_555 1_555
C14_2 N2_2 1_555 1_555
C1_2 H46_4 1_555 1_555
C1_2 H47_4 1_555 1_555
C1_2 H48_4 1_555 1_555
Pt2_2 C2_2 1_555 1_555
S1_2 Pt1_2 1_555 1_555
C3_2 S1_2 1_555 1_555
C4_2 C3_2 1_555 1_555
C5_2 C4_2 1_555 1_555
C6_2 C7_2 1_555 1_555
C7_2 C3_2 1_555 1_555
C8_2 N5_3 1_555 1_555
N5_3 C5_2 1_555 1_555
H1_2 C3_2 1_555 1_555
H2_2 C4_2 1_555 1_555
H3_2 C4_2 1_555 1_555
H4_2 C5_2 1_555 1_555
H5_2 C5_2 1_555 1_555
H6_2 C6_2 1_555 1_555
H7_2 C6_2 1_555 1_555
H8_2 C7_2 1_555 1_555
H9_2 C7_2 1_555 1_555
H10_2 C8_2 1_555 1_555
H11_2 C8_2 1_555 1_555
H12_2 C8_2 1_555 1_555
C10_2 Pt1_2 1_555 1_555
S2_2 Pt1_2 1_555 1_555
S3_2 Pt1_2 1_555 1_555
C23_2 Pt2_2 1_555 1_555
C24_2 Pt2_2 1_555 1_555
Pt2_2 S1_2 1_555 1_555
Pt2_2 S2_2 1_555 1_555
Pt2_2 S3_2 1_555 1_555
C6_2 N5_3 1_555 1_555
C10_2 H37_4 1_555 1_555
C10_2 H38_4 1_555 1_555
C10_2 H39_4 1_555 1_555
C2_2 H40_4 1_555 1_555
C2_2 H41_4 1_555 1_555
C2_2 H42_4 1_555 1_555
C23_2 H49_4 1_555 1_555
C23_2 H50_4 1_555 1_555
C23_2 H51_4 1_555 1_555
C24_2 H52_4 1_555 1_555
C24_2 H53_4 1_555 1_555
C24_2 H54_4 1_555 1_555
C18_2 C17_2 1_555 1_555
C19_2 C18_2 1_555 1_555
C20_2 C21_2 1_555 1_555
C21_2 C17_2 1_555 1_555
C22_2 N4 1_555 1_555
N4 C19_2 1_555 1_555
H25_2 C17_2 1_555 1_555
H26_2 C18_2 1_555 1_555
H27_2 C18_2 1_555 1_555
H28_2 C19_2 1_555 1_555
H29_2 C19_2 1_555 1_555
H30_2 C20_2 1_555 1_555
H31_2 C20_2 1_555 1_555
H34_2 C22_2 1_555 1_555
H35_2 C22_2 1_555 1_555
H36_2 C22_2 1_555 1_555
C20_2 N4 1_555 1_555
C9_2 H43_4 1_555 1_555
C9_2 H44_4 1_555 1_555
C9_2 H45_4 1_555 1_555
C1_2 H37_5 1_555 1_555
C1_2 H38_5 1_555 1_555
C1_2 H39_5 1_555 1_555
C23_2 H40_5 1_555 1_555
C23_2 H41_5 1_555 1_555
C23_2 H42_5 1_555 1_555
C10_2 H43_5 1_555 1_555
C10_2 H44_5 1_555 1_555
C10_2 H45_5 1_555 1_555
C24_2 H49_5 1_555 1_555
C24_2 H50_5 1_555 1_555
C24_2 H51_5 1_555 1_555
C2_2 H52_5 1_555 1_555
C2_2 H53_5 1_555 1_555
C2_2 H54_5 1_555 1_555
C9_2 H46_5 1_555 1_555
C9_2 H47_5 1_555 1_555
C9_2 H48_5 1_555 1_555
C1_2 H43_6 1_555 1_555
C1_2 H44_6 1_555 1_555
C1_2 H45_6 1_555 1_555
C24_2 H40_6 1_555 1_555
C24_2 H41_6 1_555 1_555
C24_2 H42_6 1_555 1_555
C10_2 H46_6 1_555 1_555
C10_2 H47_6 1_555 1_555
C10_2 H48_6 1_555 1_555
C2_2 H49_6 1_555 1_555
C2_2 H50_6 1_555 1_555
C2_2 H51_6 1_555 1_555
C23_2 H52_6 1_555 1_555
C23_2 H53_6 1_555 1_555
C23_2 H54_6 1_555 1_555
C9_2 H37_6 1_555 1_555
C9_2 H38_6 1_555 1_555
C9_2 H39_6 1_555 1_555
C18_3 C17_3 1_555 1_555
C19_3 C18_3 1_555 1_555
C20_3 C21_3 1_555 1_555
C21_3 C17_3 1_555 1_555
C22_3 N5_4 1_555 1_555
N5_4 C19_3 1_555 1_555
H25_3 C17_3 1_555 1_555
H26_3 C18_3 1_555 1_555
H27_3 C18_3 1_555 1_555
H28_3 C19_3 1_555 1_555
H29_3 C19_3 1_555 1_555
H30_3 C20_3 1_555 1_555
H31_3 C20_3 1_555 1_555
H35_3 C22_3 1_555 1_555
H36_3 C22_3 1_555 1_555
C20_3 N5_4 1_555 1_555
C9_3 H43_7 1_555 1_555
C9_3 H44_7 1_555 1_555
C9_3 H45_7 1_555 1_555
Pt1_3 C1_3 1_555 1_555
Pt2_3 C2_3 1_555 1_555
S1_3 Pt1_3 1_555 1_555
S2_3 Pt1_3 1_555 1_555
C11_3 S2_3 1_555 1_555
C12_3 C11_3 1_555 1_555
C13_3 C12_3 1_555 1_555
C14_3 C15_3 1_555 1_555
C15_3 C11_3 1_555 1_555
C16_3 N5 1_555 1_555
N5 C13_3 1_555 1_555
H13_3 C11_3 1_555 1_555
H14_3 C12_3 1_555 1_555
H15_3 C12_3 1_555 1_555
H16_3 C13_3 1_555 1_555
H17_3 C13_3 1_555 1_555
H18_3 C14_3 1_555 1_555
H19_3 C14_3 1_555 1_555
H20_3 C15_3 1_555 1_555
H21_3 C15_3 1_555 1_555
H22_2 C16_3 1_555 1_555
H23_3 C16_3 1_555 1_555
H24_3 C16_3 1_555 1_555
S3_3 Pt1_3 1_555 1_555
C23_3 Pt2_3 1_555 1_555
C24_3 Pt2_3 1_555 1_555
Pt2_3 S1_3 1_555 1_555
Pt2_3 S2_3 1_555 1_555
Pt2_3 S3_3 1_555 1_555
C14_3 N5 1_555 1_555
C2_3 H40_7 1_555 1_555
C2_3 H41_7 1_555 1_555
C2_3 H42_7 1_555 1_555
C1_3 H46_7 1_555 1_555
C1_3 H47_7 1_555 1_555
C1_3 H48_7 1_555 1_555
C23_3 H49_7 1_555 1_555
C23_3 H50_7 1_555 1_555
C23_3 H51_7 1_555 1_555
C24_3 H52_7 1_555 1_555
C24_3 H53_7 1_555 1_555
C24_3 H54_7 1_555 1_555
C4_3 C3_3 1_555 1_555
C5_3 C4_3 1_555 1_555
C6_3 C7_3 1_555 1_555
C7_3 C3_3 1_555 1_555
C8_3 N4_2 1_555 1_555
N4_2 C5_3 1_555 1_555
H1_3 C3_3 1_555 1_555
H2_3 C4_3 1_555 1_555
H3_3 C4_3 1_555 1_555
H4_3 C5_3 1_555 1_555
H5_3 C5_3 1_555 1_555
H6_3 C6_3 1_555 1_555
H7_3 C6_3 1_555 1_555
H10_3 C8_3 1_555 1_555
H11_3 C8_3 1_555 1_555
H12_3 C8_3 1_555 1_555
C6_3 N4_2 1_555 1_555
C10_3 H37_7 1_555 1_555
C10_3 H38_7 1_555 1_555
C10_3 H39_7 1_555 1_555
C9_3 H46_8 1_555 1_555
C9_3 H47_8 1_555 1_555
C9_3 H48_8 1_555 1_555
C1_3 H37_8 1_555 1_555
C1_3 H38_8 1_555 1_555
C1_3 H39_8 1_555 1_555
C23_3 H40_8 1_555 1_555
C23_3 H41_8 1_555 1_555
C23_3 H42_8 1_555 1_555
C24_3 H49_8 1_555 1_555
C24_3 H50_8 1_555 1_555
C24_3 H51_8 1_555 1_555
C2_3 H52_8 1_555 1_555
C2_3 H53_8 1_555 1_555
C2_3 H54_8 1_555 1_555
C10_3 H43_8 1_555 1_555
C10_3 H44_8 1_555 1_555
C10_3 H45_8 1_555 1_555
C9_3 H37_9 1_555 1_555
C9_3 H38_9 1_555 1_555
C9_3 H39_9 1_555 1_555
C24_3 H40_9 1_555 1_555
C24_3 H41_9 1_555 1_555
C24_3 H42_9 1_555 1_555
C1_3 H43_9 1_555 1_555
C1_3 H44_9 1_555 1_555
C1_3 H45_9 1_555 1_555
C2_3 H49_9 1_555 1_555
C2_3 H50_9 1_555 1_555
C2_3 H51_9 1_555 1_555
C23_3 H52_9 1_555 1_555
C23_3 H53_9 1_555 1_555
C23_3 H54_9 1_555 1_555
C10_3 H46_9 1_555 1_555
C10_3 H47_9 1_555 1_555
C10_3 H48_9 1_555 1_555
C4_4 C3_4 1_555 1_555
C5_4 C4_4 1_555 1_555
C6_4 C7_4 1_555 1_555
C7_4 C3_4 1_555 1_555
C8_4 N4_4 1_555 1_555
N4_4 C5_4 1_555 1_555
H1_4 C3_4 1_555 1_555
H2_4 C4_4 1_555 1_555
H3_4 C4_4 1_555 1_555
H4_4 C5_4 1_555 1_555
H5_4 C5_4 1_555 1_555
H6_4 C6_4 1_555 1_555
H7_4 C6_4 1_555 1_555
H11_4 C8_4 1_555 1_555
H12_4 C8_4 1_555 1_555
C6_4 N4_4 1_555 1_555
C10_4 H37_10 1_555 1_555
C10_4 H38_10 1_555 1_555
C10_4 H39_10 1_555 1_555
Pt2_4 C2_4 1_555 1_555
S1_4 Pt1_4 1_555 1_555
C9_4 Pt1_4 1_555 1_555
S2_4 Pt1_4 1_555 1_555
S3_4 Pt1_4 1_555 1_555
C17_4 S3_4 1_555 1_555
C18_4 C17_4 1_555 1_555
C19_4 C18_4 1_555 1_555
C20_4 C21_4 1_555 1_555
C21_4 C17_4 1_555 1_555
C22_4 N5_2 1_555 1_555
N5_2 C19_4 1_555 1_555
H25_4 C17_4 1_555 1_555
H26_4 C18_4 1_555 1_555
H27_4 C18_4 1_555 1_555
H28_4 C19_4 1_555 1_555
H29_4 C19_4 1_555 1_555
H30_4 C20_4 1_555 1_555
H31_4 C20_4 1_555 1_555
H32_4 C21_4 1_555 1_555
H33_4 C21_4 1_555 1_555
H34_3 C22_4 1_555 1_555
H35_4 C22_4 1_555 1_555
H36_4 C22_4 1_555 1_555
C23_4 Pt2_4 1_555 1_555
C24_4 Pt2_4 1_555 1_555
Pt2_4 S1_4 1_555 1_555
Pt2_4 S2_4 1_555 1_555
Pt2_4 S3_4 1_555 1_555
C20_4 N5_2 1_555 1_555
C2_4 H40_10 1_555 1_555
C2_4 H41_10 1_555 1_555
C2_4 H42_10 1_555 1_555
C9_4 H43_10 1_555 1_555
C9_4 H44_10 1_555 1_555
C9_4 H45_10 1_555 1_555
C23_4 H49_10 1_555 1_555
C23_4 H50_10 1_555 1_555
C23_4 H51_10 1_555 1_555
C24_4 H52_10 1_555 1_555
C24_4 H53_10 1_555 1_555
C24_4 H54_10 1_555 1_555
C12_4 C11_4 1_555 1_555
C13_4 C12_4 1_555 1_555
C14_4 C15_4 1_555 1_555
C15_4 C11_4 1_555 1_555
C16_4 N4_3 1_555 1_555
N4_3 C13_4 1_555 1_555
H13_4 C11_4 1_555 1_555
H14_4 C12_4 1_555 1_555
H15_4 C12_4 1_555 1_555
H16_4 C13_4 1_555 1_555
H17_4 C13_4 1_555 1_555
H18_4 C14_4 1_555 1_555
H19_4 C14_4 1_555 1_555
H22_3 C16_4 1_555 1_555
H23_4 C16_4 1_555 1_555
H24_4 C16_4 1_555 1_555
C14_4 N4_3 1_555 1_555
C1_4 H46_10 1_555 1_555
C1_4 H47_10 1_555 1_555
C1_4 H48_10 1_555 1_555
C10_4 H43_11 1_555 1_555
C10_4 H44_11 1_555 1_555
C10_4 H45_11 1_555 1_555
C23_4 H40_11 1_555 1_555
C23_4 H41_11 1_555 1_555
C23_4 H42_11 1_555 1_555
C9_4 H46_11 1_555 1_555
C9_4 H47_11 1_555 1_555
C9_4 H48_11 1_555 1_555
C24_4 H49_11 1_555 1_555
C24_4 H50_11 1_555 1_555
C24_4 H51_11 1_555 1_555
C2_4 H52_11 1_555 1_555
C2_4 H53_11 1_555 1_555
C2_4 H54_11 1_555 1_555
C1_4 H37_11 1_555 1_555
C1_4 H38_11 1_555 1_555
C1_4 H39_11 1_555 1_555
C10_4 H46_12 1_555 1_555
C10_4 H47_12 1_555 1_555
C10_4 H48_12 1_555 1_555
C9_4 H37_12 1_555 1_555
C9_4 H38_12 1_555 1_555
C9_4 H39_12 1_555 1_555
C24_4 H40_12 1_555 1_555
C24_4 H41_12 1_555 1_555
C24_4 H42_12 1_555 1_555
C2_4 H49_12 1_555 1_555
C2_4 H50_12 1_555 1_555
C2_4 H51_12 1_555 1_555
C23_4 H52_12 1_555 1_555
C23_4 H53_12 1_555 1_555
C23_4 H54_12 1_555 1_555
C1_4 H43_12 1_555 1_555
C1_4 H44_12 1_555 1_555
C1_4 H45_12 1_555 1_555

#END
