
###############################################################################
#
# This file contains modified crystal structure data generated from the
# MOF subset of the Cambridge Structural Database (CSD) v543 
# hosted by the Cambridge Crystallographic Data Centre (CCDC).
#
# This work is licensed under the Creative Commons
# Attribution-NonCommercial-ShareAlike 4.0 International License.
# To view a copy of this license, visit
# http://creativecommons.org/licenses/by-nc-sa/4.0/
# or send a letter to
# Creative Commons, PO Box 1866, Mountain View, CA 94042, USA.
#
# CIF created using the CSD Python API on 29 September 2022
# The structure has been converted into the P1 space group
# The structure has a 3D framework
# The original CSD entry WEFXIQ is in the monoclinic crystal system
# The framework has been calculated to contain at least 10.0% void space
# The void calculation uses a probe of radius 1.32A, grid spacing 0.4
#
###############################################################################

data_WEFXIQ
_chemical_formula_moiety         '(C48 H36 N16 Ni4 O12 S4)n'
_symmetry_cell_setting           triclinic
_symmetry_space_group_name_H-M   'P 1'
_symmetry_Int_Tables_number      1
_space_group_name_Hall           'P 1'
loop_
_symmetry_equiv_pos_site_id
_symmetry_equiv_pos_as_xyz
1 x,y,z
_cell_length_a                   7.45937(48)
_cell_length_b                   15.5887(18)
_cell_length_c                   17.1515(31)
_cell_angle_alpha                90
_cell_angle_beta                 91.6479(82)
_cell_angle_gamma                90
_cell_volume                     1993.58
loop_
_atom_site_label
_atom_site_type_symbol
_atom_site_fract_x
_atom_site_fract_y
_atom_site_fract_z
Ni4 Ni 0.00000 0.00000 0.00000
Ni4_2 Ni -0.00000 0.00000 1.00000
Ni5 Ni 0.00000 0.50000 0.50000
Ni4_3 Ni 0.00000 1.00000 0.00000
Ni4_4 Ni -0.00000 1.00000 1.00000
Ni4_5 Ni 1.00000 0.00000 0.00000
H14 H 0.386480 0.043820 0.041510
Ni4_6 Ni 1.00000 0.00000 1.00000
Ni5_2 Ni 1.00000 0.50000 0.50000
C13 C 0.537410 0.172490 0.818850
C14 C 0.691510 0.135370 0.790090
S2 S 0.769040 0.035930 0.827740
O5 O 0.863140 0.050260 0.906440
C15 C 0.784720 0.176340 0.731770
H10 H 0.890040 0.150970 0.712110
C16 C 0.723830 0.254430 0.702210
C17 C 0.569730 0.291550 0.730970
H11 H 0.528120 0.344930 0.710760
C18 C 0.476520 0.250580 0.789290
H12 H 0.371200 0.275950 0.808950
C19 C 0.440170 0.129740 0.879690
C20 C 0.509340 0.104780 0.950330
H13 H 0.629850 0.112290 0.968480
N5 N 0.375710 0.067190 0.990440
N6 N 0.223950 0.068910 0.944580
C21 C 0.263790 0.107570 0.876140
H15 H 0.182660 0.117370 0.833360
C22 C 0.821070 0.297180 0.641370
C23 C 0.901760 0.375240 0.647190
H16 H 0.904330 0.411330 0.691840
N8 N 0.978150 0.392550 0.577880
N11 N 0.944660 0.325190 0.529220
H17 H 0.982450 0.320190 0.476990
C24 C 0.847580 0.266250 0.568460
H18 H 0.805650 0.212840 0.548450
Ni4_7 Ni 1.00000 1.00000 0.00000
O6 O 0.136860 0.949740 0.093560
Ni4_8 Ni 1.00000 1.00000 1.00000
O4 O 0.610890 0.975750 0.837410
O7 O 0.899910 0.996450 0.771670
N9 N 0.021850 0.892550 0.922120
N10 N 0.978150 0.107450 0.077880
N7 N 0.776050 0.931090 0.055420
H8 H 0.017550 0.820190 0.023010
C1 C 0.462590 0.672490 0.681150
C2 C 0.308490 0.635370 0.709910
S1 S 0.230960 0.535930 0.672260
O1 O 0.389110 0.475750 0.662590
O2 O 0.136860 0.550260 0.593560
O3 O 0.100090 0.496450 0.728330
C3 C 0.215280 0.676340 0.768230
H1 H 0.109960 0.650970 0.787890
C4 C 0.276170 0.754430 0.797790
C5 C 0.430270 0.791550 0.769030
H2 H 0.471880 0.844930 0.789240
C6 C 0.523480 0.750580 0.710710
H3 H 0.628800 0.775950 0.691050
C7 C 0.559830 0.629740 0.620310
C8 C 0.490660 0.604780 0.549670
H4 H 0.370150 0.612290 0.531520
N1 N 0.624290 0.567190 0.509560
H5 H 0.613520 0.543820 0.458490
N2 N 0.776050 0.568910 0.555420
C9 C 0.736210 0.607570 0.623860
H6 H 0.817340 0.617370 0.666640
C10 C 0.178930 0.797180 0.858630
C11 C 0.098240 0.875240 0.852810
H7 H 0.095670 0.911330 0.808160
N4 N 0.055340 0.825190 0.970780
C12 C 0.152420 0.766250 0.931540
H9 H 0.194350 0.712840 0.951550
N7_2 N 0.223950 0.431090 0.444580
N10_2 N 0.021850 0.607450 0.422120
O6_2 O 0.863140 0.449740 0.406440
O1_2 O 0.389110 0.024250 0.162590
O3_2 O 0.100090 0.003550 0.228330
C1_2 C 0.462590 0.827510 0.181150
C2_2 C 0.308490 0.864630 0.209910
S1_2 S 0.230960 0.964070 0.172260
C3_2 C 0.215280 0.823660 0.268230
H1_2 H 0.109960 0.849030 0.287890
C4_2 C 0.276170 0.745570 0.297790
C5_2 C 0.430270 0.708450 0.269030
H2_2 H 0.471880 0.655070 0.289240
C6_2 C 0.523480 0.749420 0.210710
H3_2 H 0.628800 0.724050 0.191050
C7_2 C 0.559830 0.870260 0.120310
C8_2 C 0.490660 0.895220 0.049670
H4_2 H 0.370150 0.887710 0.031520
N1_2 N 0.624290 0.932810 0.009560
C9_2 C 0.736210 0.892430 0.123860
H6_2 H 0.817340 0.882630 0.166640
C10_2 C 0.178930 0.702820 0.358630
C11_2 C 0.098240 0.624760 0.352810
H7_2 H 0.095670 0.588670 0.308160
N4_2 N 0.055340 0.674810 0.470780
H8_2 H 0.017550 0.679810 0.523010
C12_2 C 0.152420 0.733750 0.431540
H9_2 H 0.194350 0.787160 0.451550
H5_2 H 0.613520 0.956180 0.958490
C13_2 C 0.537410 0.327510 0.318850
C14_2 C 0.691510 0.364630 0.290090
S2_2 S 0.769040 0.464070 0.327740
O4_2 O 0.610890 0.524250 0.337410
O7_2 O 0.899910 0.503550 0.271670
C15_2 C 0.784720 0.323660 0.231770
H10_2 H 0.890040 0.349030 0.212110
C16_2 C 0.723830 0.245570 0.202210
C17_2 C 0.569730 0.208450 0.230970
H11_2 H 0.528120 0.155070 0.210760
C18_2 C 0.476520 0.249420 0.289290
H12_2 H 0.371200 0.224050 0.308950
C19_2 C 0.440170 0.370260 0.379690
C20_2 C 0.509340 0.395220 0.450330
H13_2 H 0.629850 0.387710 0.468480
N5_2 N 0.375710 0.432810 0.490440
H14_2 H 0.386480 0.456180 0.541510
C21_2 C 0.263790 0.392430 0.376140
H15_2 H 0.182660 0.382630 0.333360
C22_2 C 0.821070 0.202820 0.141370
C23_2 C 0.901760 0.124760 0.147190
H16_2 H 0.904330 0.088670 0.191840
N11_2 N 0.944660 0.174810 0.029220
C24_2 C 0.847580 0.233750 0.068460
H18_2 H 0.805650 0.287160 0.048450
H17_2 H 0.982450 0.179810 0.976990
loop_
_geom_bond_atom_site_label_1
_geom_bond_atom_site_label_2
_geom_bond_site_symmetry_1
_geom_bond_site_symmetry_2
Ni4_6 O5 1_555 1_555
Ni5_2 N8 1_555 1_555
C13 C14 1_555 1_555
C14 S2 1_555 1_555
O5 S2 1_555 1_555
C15 C14 1_555 1_555
H10 C15 1_555 1_555
C16 C15 1_555 1_555
C17 C16 1_555 1_555
H11 C17 1_555 1_555
C18 C13 1_555 1_555
H12 C18 1_555 1_555
C19 C13 1_555 1_555
C20 C19 1_555 1_555
H13 C20 1_555 1_555
N5 C20 1_555 1_555
N6 Ni4_2 1_555 1_555
C21 C19 1_555 1_555
H15 C21 1_555 1_555
C22 C16 1_555 1_555
C23 C22 1_555 1_555
H16 C23 1_555 1_555
N8 C23 1_555 1_555
N11 N8 1_555 1_555
H17 N11 1_555 1_555
C24 C22 1_555 1_555
H18 C24 1_555 1_555
C17 C18 1_555 1_555
N5 N6 1_555 1_555
N6 C21 1_555 1_555
N11 C24 1_555 1_555
O6 Ni4_3 1_555 1_555
N9 Ni4_4 1_555 1_555
N10 Ni4_5 1_555 1_555
N7 Ni4_7 1_555 1_555
Ni5 O2 1_555 1_555
C1 C2 1_555 1_555
C2 S1 1_555 1_555
S1 O1 1_555 1_555
O2 S1 1_555 1_555
O3 S1 1_555 1_555
C3 C2 1_555 1_555
H1 C3 1_555 1_555
C4 C3 1_555 1_555
C5 C4 1_555 1_555
H2 C5 1_555 1_555
C6 C1 1_555 1_555
H3 C6 1_555 1_555
C7 C1 1_555 1_555
C8 C7 1_555 1_555
H4 C8 1_555 1_555
N1 C8 1_555 1_555
H5 N1 1_555 1_555
N2 N1 1_555 1_555
C9 C7 1_555 1_555
H6 C9 1_555 1_555
C10 C4 1_555 1_555
C11 C10 1_555 1_555
H7 C11 1_555 1_555
N9 C11 1_555 1_555
N4 N9 1_555 1_555
C12 C10 1_555 1_555
H9 C12 1_555 1_555
Ni5_2 N2 1_555 1_555
N7_2 Ni5 1_555 1_555
N10_2 Ni5 1_555 1_555
C5 C6 1_555 1_555
N2 C9 1_555 1_555
N4 C12 1_555 1_555
O6_2 Ni5_2 1_555 1_555
C1_2 C2_2 1_555 1_555
C2_2 S1_2 1_555 1_555
O6 S1_2 1_555 1_555
C3_2 C2_2 1_555 1_555
H1_2 C3_2 1_555 1_555
C4_2 C3_2 1_555 1_555
C5_2 C4_2 1_555 1_555
H2_2 C5_2 1_555 1_555
C6_2 C1_2 1_555 1_555
H3_2 C6_2 1_555 1_555
C7_2 C1_2 1_555 1_555
C8_2 C7_2 1_555 1_555
H4_2 C8_2 1_555 1_555
N1_2 C8_2 1_555 1_555
N7 N1_2 1_555 1_555
C9_2 C7_2 1_555 1_555
H6_2 C9_2 1_555 1_555
C10_2 C4_2 1_555 1_555
C11_2 C10_2 1_555 1_555
H7_2 C11_2 1_555 1_555
N10_2 C11_2 1_555 1_555
N4_2 N10_2 1_555 1_555
H8_2 N4_2 1_555 1_555
C12_2 C10_2 1_555 1_555
H9_2 C12_2 1_555 1_555
C5_2 C6_2 1_555 1_555
N7 C9_2 1_555 1_555
N4_2 C12_2 1_555 1_555
C13_2 C14_2 1_555 1_555
C14_2 S2_2 1_555 1_555
S2_2 O4_2 1_555 1_555
O6_2 S2_2 1_555 1_555
O7_2 S2_2 1_555 1_555
C15_2 C14_2 1_555 1_555
H10_2 C15_2 1_555 1_555
C16_2 C15_2 1_555 1_555
C17_2 C16_2 1_555 1_555
H11_2 C17_2 1_555 1_555
C18_2 C13_2 1_555 1_555
H12_2 C18_2 1_555 1_555
C19_2 C13_2 1_555 1_555
C20_2 C19_2 1_555 1_555
H13_2 C20_2 1_555 1_555
N5_2 C20_2 1_555 1_555
H14_2 N5_2 1_555 1_555
C21_2 C19_2 1_555 1_555
H15_2 C21_2 1_555 1_555
C22_2 C16_2 1_555 1_555
C23_2 C22_2 1_555 1_555
H16_2 C23_2 1_555 1_555
N10 C23_2 1_555 1_555
N11_2 N10 1_555 1_555
C24_2 C22_2 1_555 1_555
H18_2 C24_2 1_555 1_555
C17_2 C18_2 1_555 1_555
N5_2 N7_2 1_555 1_555
N7_2 C21_2 1_555 1_555
N11_2 C24_2 1_555 1_555

#END
