
###############################################################################
#
# This file contains modified crystal structure data generated from the
# MOF subset of the Cambridge Structural Database (CSD) v543 
# hosted by the Cambridge Crystallographic Data Centre (CCDC).
#
# This work is licensed under the Creative Commons
# Attribution-NonCommercial-ShareAlike 4.0 International License.
# To view a copy of this license, visit
# http://creativecommons.org/licenses/by-nc-sa/4.0/
# or send a letter to
# Creative Commons, PO Box 1866, Mountain View, CA 94042, USA.
#
# CIF created using the CSD Python API on 29 September 2022
# The structure has been converted into the P1 space group
# The structure has a 3D framework
# The original CSD entry WEFXAI is in the monoclinic crystal system
# The framework has been calculated to contain at least 10.0% void space
# The void calculation uses a probe of radius 1.32A, grid spacing 0.4
#
###############################################################################

data_WEFXAI
_chemical_formula_moiety         '(C48 H36 N18 Ni4 O12 S4)n'
_symmetry_cell_setting           triclinic
_symmetry_space_group_name_H-M   'P 1'
_symmetry_Int_Tables_number      1
_space_group_name_Hall           'P 1'
loop_
_symmetry_equiv_pos_site_id
_symmetry_equiv_pos_as_xyz
1 x,y,z
_cell_length_a                   7.5258(13)
_cell_length_b                   16.3434(45)
_cell_length_c                   17.6314(49)
_cell_angle_alpha                90
_cell_angle_beta                 94.065(15)
_cell_angle_gamma                90
_cell_volume                     2163.16
loop_
_atom_site_label
_atom_site_type_symbol
_atom_site_fract_x
_atom_site_fract_y
_atom_site_fract_z
Ni2 Ni 0.00000 0.00000 0.00000
Ni2_2 Ni 0.00000 0.00000 1.00000
Ni2_3 Ni 0.00000 1.00000 0.00000
Ni2_4 Ni 0.00000 1.00000 1.00000
H4 H 0.343390 0.169150 0.001810
N1 N 0.576480 0.109540 0.037800
H5 H 0.558670 0.093640 0.088530
N2 N 0.724660 0.094840 0.000050
Ni2_5 Ni 1.00000 0.00000 0.00000
N11 N 0.144850 0.081720 0.076560
C1 C 0.452210 0.203320 0.856530
C2 C 0.307550 0.168190 0.815260
S1 S 0.222430 0.072950 0.843830
O1 O 0.076020 0.044870 0.785840
O2 O 0.146960 0.082250 0.921080
O3 O 0.371430 0.009980 0.849190
C3 C 0.229720 0.207870 0.751540
H1 H 0.130850 0.183860 0.723330
C4 C 0.296570 0.282670 0.729110
C5 C 0.441230 0.317790 0.770380
H2 H 0.486920 0.368910 0.755050
C6 C 0.519060 0.278110 0.834100
H3 H 0.617930 0.302110 0.862310
C7 C 0.533390 0.161930 0.923000
C8 C 0.458270 0.151000 0.99018
N2_2 N 0.724660 0.094840 1.000050
C9 C 0.698030 0.127220 0.929100
H6 H 0.780030 0.125830 0.890560
C10 C 0.215390 0.324050 0.662640
C11 C 0.246090 0.402670 0.641940
H7 H 0.324500 0.440120 0.668480
N3 N 0.144850 0.418280 0.576560
N4 N 0.051580 0.349300 0.556870
C12 C 0.095170 0.291070 0.610070
H9 H 0.049640 0.236870 0.610440
Ni2_6 Ni 1.00000 0.00000 1.00000
Ni3 Ni 0.00000 0.50000 0.50000
Ni2_7 Ni 1.00000 1.00000 0.00000
N8 N 0.275340 0.905160 -0.000050
H17 H 0.029750 0.657080 0.48645
Ni2_8 Ni 1.00000 1.00000 1.00000
N8_2 N 0.275340 0.905160 0.999950
H8 H 0.970250 0.342920 0.51355
Ni3_2 Ni 1.00000 0.50000 0.50000
C13 C 0.547790 0.796680 0.143470
C14 C 0.692450 0.831810 0.184740
S2 S 0.777570 0.927050 0.156170
O4 O 0.923980 0.955130 0.214160
O5 O 0.853040 0.917750 0.078920
O6 O 0.628570 0.990020 0.150810
C15 C 0.770280 0.792130 0.248460
H10 H 0.869150 0.816140 0.276670
C16 C 0.703430 0.717330 0.270890
C17 C 0.558770 0.682210 0.229620
H11 H 0.513080 0.631090 0.244950
C18 C 0.480940 0.721890 0.165900
H12 H 0.382070 0.697890 0.137690
C19 C 0.466610 0.838070 0.077000
C20 C 0.541730 0.849000 0.00982
C21 C 0.301970 0.872780 0.070900
H15 H 0.219970 0.874170 0.109440
C22 C 0.784610 0.675950 0.337360
C23 C 0.753910 0.597330 0.358060
H16 H 0.675500 0.559880 0.331520
N9 N 0.855150 0.581720 0.423440
N12 N 0.948420 0.650700 0.443130
C24 C 0.904830 0.708930 0.389930
H18 H 0.950360 0.763130 0.389560
H13 H 0.656610 0.830850 0.998190
N5 N 0.423520 0.890460 0.962200
H14 H 0.441330 0.906360 0.911470
N10 N 0.855150 0.918280 0.923440
H8_2 H 0.029750 0.842920 0.98645
C13_2 C 0.452210 0.296680 0.356530
C14_2 C 0.307550 0.331810 0.315260
S2_2 S 0.222430 0.427050 0.343830
O4_2 O 0.076020 0.455130 0.285840
O5_2 O 0.146960 0.417750 0.421080
O6_2 O 0.371430 0.490020 0.349190
C15_2 C 0.229720 0.292130 0.251540
H10_2 H 0.130850 0.316140 0.223330
C16_2 C 0.296570 0.217330 0.229110
C17_2 C 0.441230 0.182210 0.270380
H11_2 H 0.486920 0.131090 0.255050
C18_2 C 0.519060 0.221890 0.334100
H12_2 H 0.617930 0.197890 0.362310
C19_2 C 0.533390 0.338070 0.423000
C20_2 C 0.458270 0.349000 0.49018
H13_2 H 0.343390 0.330850 0.501810
N5_2 N 0.576480 0.390460 0.537800
H14_2 H 0.558670 0.406360 0.588530
N6 N 0.724660 0.405160 0.500050
N7 N 0.275340 0.594840 0.499950
C21_2 C 0.698030 0.372780 0.429100
H15_2 H 0.780030 0.374170 0.390560
C22_2 C 0.215390 0.175950 0.162640
C23_2 C 0.246090 0.097330 0.141940
H16_2 H 0.324500 0.059880 0.168480
N12_2 N 0.051580 0.150700 0.056870
C24_2 C 0.095170 0.208930 0.110070
H18_2 H 0.049640 0.263130 0.110440
C1_2 C 0.547790 0.703320 0.643470
C2_2 C 0.692450 0.668190 0.684740
S1_2 S 0.777570 0.572950 0.656170
O1_2 O 0.923980 0.544870 0.714160
O2_2 O 0.853040 0.582250 0.578920
O3_2 O 0.628570 0.509980 0.650810
C3_2 C 0.770280 0.707870 0.748460
H1_2 H 0.869150 0.683860 0.776670
C4_2 C 0.703430 0.782670 0.770890
C5_2 C 0.558770 0.817790 0.729620
H2_2 H 0.513080 0.868910 0.744950
C6_2 C 0.480940 0.778110 0.665900
H3_2 H 0.382070 0.802110 0.637690
C7_2 C 0.466610 0.661930 0.577000
C8_2 C 0.541730 0.651000 0.50982
H4_2 H 0.656610 0.669150 0.498190
N1_2 N 0.423520 0.609540 0.462200
H5_2 H 0.441330 0.593640 0.411470
C9_2 C 0.301970 0.627220 0.570900
H6_2 H 0.219970 0.625830 0.609440
C10_2 C 0.784610 0.824050 0.837360
C11_2 C 0.753910 0.902670 0.858060
H7_2 H 0.675500 0.940120 0.831520
N4_2 N 0.948420 0.849300 0.943130
C12_2 C 0.904830 0.791070 0.889930
H9_2 H 0.950360 0.736870 0.889560
H17_2 H 0.970250 0.157080 0.01355
loop_
_geom_bond_atom_site_label_1
_geom_bond_atom_site_label_2
_geom_bond_site_symmetry_1
_geom_bond_site_symmetry_2
H5 N1 1_555 1_555
N2 N1 1_555 1_555
Ni2_5 N2 1_555 1_555
N11 Ni2 1_555 1_555
Ni2_2 O2 1_555 1_555
C1 C2 1_555 1_555
C2 S1 1_555 1_555
S1 O1 1_555 1_555
O2 S1 1_555 1_555
O3 S1 1_555 1_555
C3 C2 1_555 1_555
H1 C3 1_555 1_555
C4 C3 1_555 1_555
C5 C4 1_555 1_555
H2 C5 1_555 1_555
C6 C1 1_555 1_555
H3 C6 1_555 1_555
C7 C1 1_555 1_555
C8 C7 1_555 1_555
C9 C7 1_555 1_555
H6 C9 1_555 1_555
C10 C4 1_555 1_555
C11 C10 1_555 1_555
H7 C11 1_555 1_555
N3 C11 1_555 1_555
N4 N3 1_555 1_555
C12 C10 1_555 1_555
H9 C12 1_555 1_555
Ni2_6 N2_2 1_555 1_555
Ni3 N3 1_555 1_555
C5 C6 1_555 1_555
N2_2 C9 1_555 1_555
N4 C12 1_555 1_555
N8 Ni2_3 1_555 1_555
N8_2 Ni2_4 1_555 1_555
Ni3_2 N9 1_555 1_555
C13 C14 1_555 1_555
C14 S2 1_555 1_555
S2 O4 1_555 1_555
O5 Ni2_7 1_555 1_555
O6 S2 1_555 1_555
C15 C14 1_555 1_555
H10 C15 1_555 1_555
C16 C15 1_555 1_555
C17 C16 1_555 1_555
H11 C17 1_555 1_555
C18 C13 1_555 1_555
H12 C18 1_555 1_555
C19 C13 1_555 1_555
C20 C19 1_555 1_555
C21 C19 1_555 1_555
H15 C21 1_555 1_555
C22 C16 1_555 1_555
C23 C22 1_555 1_555
H16 C23 1_555 1_555
N9 C23 1_555 1_555
N12 N9 1_555 1_555
C24 C22 1_555 1_555
H18 C24 1_555 1_555
S2 O5 1_555 1_555
C17 C18 1_555 1_555
N8 C21 1_555 1_555
N12 C24 1_555 1_555
H14 N5 1_555 1_555
N8_2 N5 1_555 1_555
N10 Ni2_8 1_555 1_555
Ni3_2 N6 1_555 1_555
C13_2 C14_2 1_555 1_555
C14_2 S2_2 1_555 1_555
S2_2 O4_2 1_555 1_555
O5_2 Ni3 1_555 1_555
O6_2 S2_2 1_555 1_555
C15_2 C14_2 1_555 1_555
H10_2 C15_2 1_555 1_555
C16_2 C15_2 1_555 1_555
C17_2 C16_2 1_555 1_555
H11_2 C17_2 1_555 1_555
C18_2 C13_2 1_555 1_555
H12_2 C18_2 1_555 1_555
C19_2 C13_2 1_555 1_555
C20_2 C19_2 1_555 1_555
H13_2 C20_2 1_555 1_555
N5_2 C20_2 1_555 1_555
H14_2 N5_2 1_555 1_555
N6 N5_2 1_555 1_555
N7 Ni3 1_555 1_555
C21_2 C19_2 1_555 1_555
H15_2 C21_2 1_555 1_555
C22_2 C16_2 1_555 1_555
C23_2 C22_2 1_555 1_555
H16_2 C23_2 1_555 1_555
N11 C23_2 1_555 1_555
N12_2 N11 1_555 1_555
C24_2 C22_2 1_555 1_555
H18_2 C24_2 1_555 1_555
S2_2 O5_2 1_555 1_555
C17_2 C18_2 1_555 1_555
N6 C21_2 1_555 1_555
N12_2 C24_2 1_555 1_555
Ni3_2 O2_2 1_555 1_555
C1_2 C2_2 1_555 1_555
C2_2 S1_2 1_555 1_555
S1_2 O1_2 1_555 1_555
O2_2 S1_2 1_555 1_555
O3_2 S1_2 1_555 1_555
C3_2 C2_2 1_555 1_555
H1_2 C3_2 1_555 1_555
C4_2 C3_2 1_555 1_555
C5_2 C4_2 1_555 1_555
H2_2 C5_2 1_555 1_555
C6_2 C1_2 1_555 1_555
H3_2 C6_2 1_555 1_555
C7_2 C1_2 1_555 1_555
C8_2 C7_2 1_555 1_555
H4_2 C8_2 1_555 1_555
N1_2 C8_2 1_555 1_555
H5_2 N1_2 1_555 1_555
N7 N1_2 1_555 1_555
C9_2 C7_2 1_555 1_555
H6_2 C9_2 1_555 1_555
C10_2 C4_2 1_555 1_555
C11_2 C10_2 1_555 1_555
H7_2 C11_2 1_555 1_555
N10 C11_2 1_555 1_555
N4_2 N10 1_555 1_555
C12_2 C10_2 1_555 1_555
H9_2 C12_2 1_555 1_555
C5_2 C6_2 1_555 1_555
N7 C9_2 1_555 1_555
N4_2 C12_2 1_555 1_555

#END
