
###############################################################################
#
# This file contains modified crystal structure data generated from the
# MOF subset of the Cambridge Structural Database (CSD) v543 
# hosted by the Cambridge Crystallographic Data Centre (CCDC).
#
# This work is licensed under the Creative Commons
# Attribution-NonCommercial-ShareAlike 4.0 International License.
# To view a copy of this license, visit
# http://creativecommons.org/licenses/by-nc-sa/4.0/
# or send a letter to
# Creative Commons, PO Box 1866, Mountain View, CA 94042, USA.
#
# CIF created using the CSD Python API on 29 September 2022
# The structure has been converted into the P1 space group
# The structure has a 3D framework
# The original CSD entry WEFXEM is in the monoclinic crystal system
# The framework has been calculated to contain at least 10.0% void space
# The void calculation uses a probe of radius 1.32A, grid spacing 0.4
#
###############################################################################

data_WEFXEM
_chemical_formula_moiety         '(C48 H36 N16 Ni6 O12 S4)n'
_symmetry_cell_setting           triclinic
_symmetry_space_group_name_H-M   'P 1'
_symmetry_Int_Tables_number      1
_space_group_name_Hall           'P 1'
loop_
_symmetry_equiv_pos_site_id
_symmetry_equiv_pos_as_xyz
1 x,y,z
_cell_length_a                   7.45297(44)
_cell_length_b                   15.0032(13)
_cell_length_c                   17.6120(26)
_cell_angle_alpha                90
_cell_angle_beta                 91.2922(55)
_cell_angle_gamma                90
_cell_volume                     1968.84
loop_
_atom_site_label
_atom_site_type_symbol
_atom_site_fract_x
_atom_site_fract_y
_atom_site_fract_z
Ni4 Ni -0.00000 0.00000 0.00000
Ni4_2 Ni -0.00000 0.00000 1.00000
Ni4_3 Ni -0.00000 1.00000 0.00000
Ni4_4 Ni -0.00000 1.00000 1.00000
Ni4_5 Ni 1.00000 0.00000 0.00000
O5 O 0.057430 0.006870 0.200810
O6 O 0.367940 0.047010 0.165960
H8 H 0.080130 0.280380 0.501210
Ni3 Ni 0.00000 0.50000 0.50000
Ni4_6 Ni 1.00000 0.00000 1.00000
N6 N 0.238340 0.050590 0.945820
Ni4_7 Ni 1.00000 1.00000 0.00000
C13 C 0.462770 0.83717 0.181040
C14 C 0.305890 0.876850 0.205640
S2 S 0.224610 0.975040 0.161040
O4 O 0.178710 0.955590 0.078160
C15 C 0.212850 0.839420 0.265280
H10 H 0.105630 0.866540 0.282090
C16 C 0.276690 0.762310 0.300300
C17 C 0.433570 0.722630 0.275700
H11 H 0.477190 0.669930 0.299640
C18 C 0.526610 0.76006 0.216060
H12 H 0.633830 0.732940 0.199250
C19 C 0.559830 0.876220 0.118830
C20 C 0.513440 0.870490 0.043860
H13 H 0.411750 0.840210 0.023060
N5 N 0.638170 0.915730 0.003910
N8 N 0.761660 0.949410 0.054180
C21 C 0.713240 0.924990 0.125210
H15 H 0.77563 0.939460 0.171200
C22 C 0.179630 0.723260 0.362510
C23 C 0.186740 0.636520 0.384790
H16 H 0.256160 0.590870 0.362330
N11 N 0.077000 0.626600 0.444870
N12 N 0.002080 0.707210 0.459720
C24 C 0.065500 0.766960 0.408820
H18 H 0.035380 0.828420 0.406090
Ni4_8 Ni 1.00000 1.00000 1.00000
H14 H 0.638920 0.922600 0.950290
N9 N 0.077000 0.873400 0.944870
H5 H 0.361080 0.077400 0.049710
N10 N 0.923000 0.126600 0.055130
C1 C 0.537230 0.16283 0.818960
C2 C 0.694110 0.123150 0.794360
S1 S 0.775390 0.024960 0.838960
O1 O 0.821290 0.044410 0.921840
C3 C 0.787150 0.160580 0.734720
H1 H 0.894370 0.133460 0.717910
C4 C 0.723310 0.237690 0.699700
C5 C 0.566430 0.277370 0.724300
H2 H 0.522810 0.330070 0.700360
C6 C 0.473390 0.23994 0.783940
H3 H 0.366170 0.267060 0.800750
C7 C 0.440170 0.123780 0.881170
C8 C 0.486560 0.129510 0.956140
H4 H 0.588250 0.159790 0.976940
N1 N 0.361830 0.084270 0.996090
C9 C 0.286760 0.075010 0.874790
H6 H 0.22437 0.060540 0.828800
C10 C 0.820370 0.276740 0.637490
C11 C 0.813260 0.363480 0.615210
H7 H 0.743840 0.409130 0.637670
N3 N 0.923000 0.373400 0.555130
N4 N 0.997920 0.292790 0.540280
C12 C 0.934500 0.233040 0.591180
H9 H 0.964620 0.171580 0.593910
Ni3_2 Ni 1.00000 0.50000 0.50000
H17 H 0.919870 0.719620 0.498790
O2 O 0.942570 0.993130 0.799190
O3 O 0.632060 0.952990 0.834040
C1_2 C 0.462770 0.66283 0.681040
C2_2 C 0.305890 0.623150 0.705640
S1_2 S 0.224610 0.524960 0.661040
O1_2 O 0.178710 0.544410 0.578160
O2_2 O 0.057430 0.493130 0.700810
O3_2 O 0.367940 0.452990 0.665960
C3_2 C 0.212850 0.660580 0.765280
H1_2 H 0.105630 0.633460 0.782090
C4_2 C 0.276690 0.737690 0.800300
C5_2 C 0.433570 0.777370 0.775700
H2_2 H 0.477190 0.830070 0.799640
C6_2 C 0.526610 0.73994 0.716060
H3_2 H 0.633830 0.767060 0.699250
C7_2 C 0.559830 0.623780 0.618830
C8_2 C 0.513440 0.629510 0.543860
H4_2 H 0.411750 0.659790 0.523060
N1_2 N 0.638170 0.584270 0.503910
H5_2 H 0.638920 0.577400 0.450290
N2 N 0.761660 0.550590 0.554180
C9_2 C 0.713240 0.575010 0.625210
H6_2 H 0.77563 0.560540 0.671200
C10_2 C 0.179630 0.776740 0.862510
C11_2 C 0.186740 0.863480 0.884790
H7_2 H 0.256160 0.909130 0.862330
N4_2 N 0.002080 0.792790 0.959720
C12_2 C 0.065500 0.733040 0.908820
H9_2 H 0.035380 0.671580 0.906090
N7 N 0.238340 0.449410 0.445820
H17_2 H 0.080130 0.219620 0.001210
H8_2 H 0.919870 0.780380 0.998790
C13_2 C 0.537230 0.33717 0.318960
C14_2 C 0.694110 0.376850 0.294360
S2_2 S 0.775390 0.475040 0.338960
O4_2 O 0.821290 0.455590 0.421840
O5_2 O 0.942570 0.506870 0.299190
O6_2 O 0.632060 0.547010 0.334040
C15_2 C 0.787150 0.339420 0.234720
H10_2 H 0.894370 0.366540 0.217910
C16_2 C 0.723310 0.262310 0.199700
C17_2 C 0.566430 0.222630 0.224300
H11_2 H 0.522810 0.169930 0.200360
C18_2 C 0.473390 0.26006 0.283940
H12_2 H 0.366170 0.232940 0.300750
C19_2 C 0.440170 0.376220 0.381170
C20_2 C 0.486560 0.370490 0.456140
H13_2 H 0.588250 0.340210 0.476940
N5_2 N 0.361830 0.415730 0.496090
H14_2 H 0.361080 0.422600 0.549710
C21_2 C 0.286760 0.424990 0.374790
H15_2 H 0.22437 0.439460 0.328800
C22_2 C 0.820370 0.223260 0.137490
C23_2 C 0.813260 0.136520 0.115210
H16_2 H 0.743840 0.090870 0.137670
N12_2 N 0.997920 0.207210 0.040280
C24_2 C 0.934500 0.266960 0.091180
H18_2 H 0.964620 0.328420 0.093910
loop_
_geom_bond_atom_site_label_1
_geom_bond_atom_site_label_2
_geom_bond_site_symmetry_1
_geom_bond_site_symmetry_2
N6 Ni4_2 1_555 1_555
Ni4_7 N8 1_555 1_555
Ni3 N11 1_555 1_555
C13 C14 1_555 1_555
C14 S2 1_555 1_555
S2 O4 1_555 1_555
O4 Ni4_3 1_555 1_555
C15 C14 1_555 1_555
H10 C15 1_555 1_555
C16 C15 1_555 1_555
C17 C16 1_555 1_555
H11 C17 1_555 1_555
C18 C13 1_555 1_555
H12 C18 1_555 1_555
C19 C13 1_555 1_555
C20 C19 1_555 1_555
H13 C20 1_555 1_555
N5 C20 1_555 1_555
N8 N5 1_555 1_555
C21 C19 1_555 1_555
H15 C21 1_555 1_555
C22 C16 1_555 1_555
C23 C22 1_555 1_555
H16 C23 1_555 1_555
N11 C23 1_555 1_555
N12 N11 1_555 1_555
C24 C22 1_555 1_555
H18 C24 1_555 1_555
C17 C18 1_555 1_555
N8 C21 1_555 1_555
N12 C24 1_555 1_555
N9 Ni4_4 1_555 1_555
N10 Ni4_5 1_555 1_555
Ni4_6 O1 1_555 1_555
C1 C2 1_555 1_555
C2 S1 1_555 1_555
S1 O1 1_555 1_555
C3 C2 1_555 1_555
H1 C3 1_555 1_555
C4 C3 1_555 1_555
C5 C4 1_555 1_555
H2 C5 1_555 1_555
C6 C1 1_555 1_555
H3 C6 1_555 1_555
C7 C1 1_555 1_555
C8 C7 1_555 1_555
H4 C8 1_555 1_555
N1 C8 1_555 1_555
N6 N1 1_555 1_555
C9 C7 1_555 1_555
H6 C9 1_555 1_555
C10 C4 1_555 1_555
C11 C10 1_555 1_555
H7 C11 1_555 1_555
N3 C11 1_555 1_555
N4 N3 1_555 1_555
C12 C10 1_555 1_555
H9 C12 1_555 1_555
Ni3_2 N3 1_555 1_555
C5 C6 1_555 1_555
N6 C9 1_555 1_555
N4 C12 1_555 1_555
Ni3 O1_2 1_555 1_555
C1_2 C2_2 1_555 1_555
C2_2 S1_2 1_555 1_555
S1_2 O1_2 1_555 1_555
O2_2 S1_2 1_555 1_555
O3_2 S1_2 1_555 1_555
C3_2 C2_2 1_555 1_555
H1_2 C3_2 1_555 1_555
C4_2 C3_2 1_555 1_555
C5_2 C4_2 1_555 1_555
H2_2 C5_2 1_555 1_555
C6_2 C1_2 1_555 1_555
H3_2 C6_2 1_555 1_555
C7_2 C1_2 1_555 1_555
C8_2 C7_2 1_555 1_555
H4_2 C8_2 1_555 1_555
N1_2 C8_2 1_555 1_555
H5_2 N1_2 1_555 1_555
N2 N1_2 1_555 1_555
C9_2 C7_2 1_555 1_555
H6_2 C9_2 1_555 1_555
C10_2 C4_2 1_555 1_555
C11_2 C10_2 1_555 1_555
H7_2 C11_2 1_555 1_555
N9 C11_2 1_555 1_555
N4_2 N9 1_555 1_555
C12_2 C10_2 1_555 1_555
H9_2 C12_2 1_555 1_555
Ni3_2 N2 1_555 1_555
N7 Ni3 1_555 1_555
C5_2 C6_2 1_555 1_555
N2 C9_2 1_555 1_555
N4_2 C12_2 1_555 1_555
C13_2 C14_2 1_555 1_555
C14_2 S2_2 1_555 1_555
S2_2 O4_2 1_555 1_555
O4_2 Ni3_2 1_555 1_555
O5_2 S2_2 1_555 1_555
O6_2 S2_2 1_555 1_555
C15_2 C14_2 1_555 1_555
H10_2 C15_2 1_555 1_555
C16_2 C15_2 1_555 1_555
C17_2 C16_2 1_555 1_555
H11_2 C17_2 1_555 1_555
C18_2 C13_2 1_555 1_555
H12_2 C18_2 1_555 1_555
C19_2 C13_2 1_555 1_555
C20_2 C19_2 1_555 1_555
H13_2 C20_2 1_555 1_555
N5_2 C20_2 1_555 1_555
H14_2 N5_2 1_555 1_555
N7 N5_2 1_555 1_555
C21_2 C19_2 1_555 1_555
H15_2 C21_2 1_555 1_555
C22_2 C16_2 1_555 1_555
C23_2 C22_2 1_555 1_555
H16_2 C23_2 1_555 1_555
N10 C23_2 1_555 1_555
N12_2 N10 1_555 1_555
C24_2 C22_2 1_555 1_555
H18_2 C24_2 1_555 1_555
C17_2 C18_2 1_555 1_555
N7 C21_2 1_555 1_555
N12_2 C24_2 1_555 1_555

#END
