
###############################################################################
#
# This file contains modified crystal structure data generated from the
# MOF subset of the Cambridge Structural Database (CSD) v543 
# hosted by the Cambridge Crystallographic Data Centre (CCDC).
#
# This work is licensed under the Creative Commons
# Attribution-NonCommercial-ShareAlike 4.0 International License.
# To view a copy of this license, visit
# http://creativecommons.org/licenses/by-nc-sa/4.0/
# or send a letter to
# Creative Commons, PO Box 1866, Mountain View, CA 94042, USA.
#
# CIF created using the CSD Python API on 29 September 2022
# The structure has been converted into the P1 space group
# The structure has a 3D framework
# The original CSD entry WEGDET is in the monoclinic crystal system
# The framework has been calculated to contain at least 10.0% void space
# The void calculation uses a probe of radius 1.32A, grid spacing 0.4
# H atom positions have been added when not included in the experimental data
#
###############################################################################

data_WEGDET
_chemical_formula_moiety         '(C104 H70 Mn6 N14 O32)n'
_symmetry_cell_setting           triclinic
_symmetry_space_group_name_H-M   'P 1'
_symmetry_Int_Tables_number      1
_space_group_name_Hall           'P 1'
loop_
_symmetry_equiv_pos_site_id
_symmetry_equiv_pos_as_xyz
1 x,y,z
_cell_length_a                   11.890(10)
_cell_length_b                   14.865(12)
_cell_length_c                   16.590(14)
_cell_angle_alpha                90
_cell_angle_beta                 98.250(12)
_cell_angle_gamma                90
_cell_volume                     2901.85
loop_
_atom_site_label
_atom_site_type_symbol
_atom_site_fract_x
_atom_site_fract_y
_atom_site_fract_z
C6 C 0.1638(6) 0.7861(5) 0.0005(5)
C8 C 0.1343(8) 0.9411(6) 0.0265(8)
H6 H 0.1116 0.9984 0.0085
C9 C 0.1741(8) 0.9277(6) 0.1064(7)
H7 H 0.1763 0.9741 0.1442
C10 C 0.2111(7) 0.8420(5) 0.1293(5)
H8 H 0.2411 0.8324 0.1835
C11 C 0.6362(6) 0.1698(5) 0.1948(5)
C12 C 0.5753(5) 0.2377(4) 0.1380(4)
C13 C 0.5226(5) 0.3113(4) 0.1699(4)
H9 H 0.5234 0.3170 0.2258
C14 C 0.4692(5) 0.3759(4) 0.1167(4)
C15 C 0.4088(5) 0.4532(5) 0.1481(4)
C16 C 0.4725(5) 0.3678(5) 0.0334(4)
C17 C 0.5224(5) 0.2956(4) 0.0014(4)
C18 C 0.5730(5) 0.2294(4) 0.0550(4)
H11 H 0.6055 0.1792 0.0342
C19 C 0.0751(6) 0.5910(4) 0.1836(5)
Mn1 Mn 0.29776(9) 0.64085(7) 0.11085(6)
N2 N 0.2066(5) 0.7727(4) 0.0787(4)
O1 O 0.6500(4) 0.1862(3) 0.2693(3)
O2 O 0.6716(4) 0.0998(3) 0.1629(3)
O3 O 0.3841(4) 0.5189(3) 0.1011(3)
O4 O 0.3828(4) 0.4476(3) 0.2196(3)
O5 O 0.1570(4) 0.5574(3) 0.1494(3)
O6 O 0.0714(4) 0.5781(3) 0.2578(3)
Mn4 Mn 0.70224(9) 0.14085(7) 0.38915(6)
Mn5 Mn 0.24038(8) 0.49813(7) 0.26962(6)
N5 N 0.4674(5) 0.7113(4) 0.0820(3)
H19 H 0.4932 0.6691 0.1150
H20 H 0.4355 0.7577 0.0998
O9 O 0.3500(4) 0.6862(3) 0.2307(3)
O11 O 0.8430(4) 0.0574(3) 0.3506(3)
O12 O 0.9286(4) 0.0781(3) 0.2422(3)
H21 H 0.485936 0.711084 0.0241545
C1 C 0.2242(7) 0.5613(6) 0.9340(5)
H1 H 0.2666 0.5121 0.9556
C2 C 0.1683(7) 0.5554(7) 0.8554(5)
H2 H 0.1709 0.5030 0.8252
C3 C 0.1080(7) 0.6302(7) 0.8227(6)
H3 H 0.0701 0.6294 0.7696
C4 C 0.1056(7) 0.7046(7) 0.8701(5)
H4 H 0.0646 0.7548 0.8495
C5 C 0.1624(6) 0.7065(5) 0.9474(4)
C7 C 0.1273(7) 0.8720(6) 0.9721(6)
H5 H 0.0991 0.8813 0.9175
H10 H 0.4398 0.4126 0.9985
N1 N 0.2207(5) 0.6334(4) 0.9805(4)
N3 N 0.5326(5) 0.2887(4) 0.9180(3)
H15 H 0.5068 0.3309 0.8850
H16 H 0.5645 0.2423 0.9002
Mn3 Mn 0.70224(9) 0.35915(7) 0.88915(6)
Mn2 Mn 0.75962(8) 0.99813(7) 0.23038(6)
O10 O 0.6172(4) 0.9476(3) 0.2804(3)
O13 O 0.8436(4) 0.8661(3) 0.2349(3)
O14 O 0.7647(5) 0.9158(4) 0.1166(3)
C20 C 0.9863(5) 0.6474(4) 0.1320(4)
C21 C 0.9385(6) 0.7182(4) 0.1679(4)
H12 H 0.9561 0.7281 0.2237
C22 C 0.8641(6) 0.7745(5) 0.1205(4)
C23 C 0.8330(6) 0.7559(5) 0.0381(5)
H13 H 0.7819 0.7936 0.0065
C24 C 0.8774(6) 0.6816(5) 0.0021(4)
C25 C 0.9578(6) 0.6288(5) 0.0491(4)
H14 H 0.9925 0.5814 0.0255
C26 C 0.8198(6) 0.8571(5) 0.1588(5)
C20_2 C 0.0137(5) 0.1474(4) 0.3680(4)
C21_2 C 0.0615(6) 0.2182(4) 0.3321(4)
H12_2 H 0.0439 0.2281 0.2763
C22_2 C 0.1359(6) 0.2745(5) 0.3795(4)
C23_2 C 0.1670(6) 0.2559(5) 0.4619(5)
H13_2 H 0.2181 0.2936 0.4935
C24_2 C 0.1226(6) 0.1816(5) 0.4979(4)
C25_2 C 0.0422(6) 0.1288(5) 0.4509(4)
H14_2 H 0.0075 0.0814 0.4745
C26_2 C 0.1802(6) 0.3571(5) 0.3412(5)
N4 N 0.1587(6) 0.1630(5) 0.5792(4)
H17 H 0.1311 0.1177 0.6020
H18 H 0.2087 0.1968 0.6070
O7 O 0.1564(4) 0.3661(3) 0.2651(3)
O8 O 0.2353(5) 0.4158(4) 0.3834(3)
C1_2 C 0.7758(7) 0.0613(6) 0.5660(5)
H1_2 H 0.7334 0.0121 0.5444
C2_2 C 0.8317(7) 0.0554(7) 0.6446(5)
H2_2 H 0.8291 0.0030 0.6748
C3_2 C 0.8920(7) 0.1302(7) 0.6773(6)
H3_2 H 0.9299 0.1294 0.7304
C4_2 C 0.8944(7) 0.2046(7) 0.6299(5)
H4_2 H 0.9354 0.2548 0.6505
C5_2 C 0.8376(6) 0.2065(5) 0.5526(4)
C6_2 C 0.8362(6) 0.2861(5) 0.4995(5)
C7_2 C 0.8727(7) 0.3720(6) 0.5279(6)
H5_2 H 0.9009 0.3813 0.5825
C8_2 C 0.8657(8) 0.4411(6) 0.4735(8)
H6_2 H 0.8884 0.4984 0.4915
C9_2 C 0.8259(8) 0.4277(6) 0.3936(7)
H7_2 H 0.8237 0.4741 0.3558
C10_2 C 0.7889(7) 0.3420(5) 0.3707(5)
H8_2 H 0.7589 0.3324 0.3165
C19_2 C 0.9249(6) 0.0910(4) 0.3164(5)
N1_2 N 0.7793(5) 0.1334(4) 0.5195(4)
N2_2 N 0.7934(5) 0.2727(4) 0.4213(4)
O3_2 O 0.6159(4) 0.0189(3) 0.3989(3)
N5_2 N 0.5326(5) 0.2113(4) 0.4180(3)
H19_2 H 0.5068 0.1691 0.3850
H20_2 H 0.5645 0.2577 0.4002
H21_2 H 0.514064 0.211084 0.475845
C11_2 C 0.3638(6) 0.6698(5) 0.3052(5)
C12_2 C 0.4247(5) 0.7377(4) 0.3620(4)
C13_2 C 0.4774(5) 0.8113(4) 0.3301(4)
H9_2 H 0.4766 0.8170 0.2742
C14_2 C 0.5308(5) 0.8759(4) 0.3833(4)
C15_2 C 0.5912(5) 0.9532(5) 0.3519(4)
C16_2 C 0.5275(5) 0.8678(5) 0.4666(4)
H10_2 H 0.5602 0.9126 0.5015
C17_2 C 0.4776(5) 0.7956(4) 0.4986(4)
C18_2 C 0.4270(5) 0.7294(4) 0.4450(4)
H11_2 H 0.3945 0.6792 0.4658
N3_2 N 0.4674(5) 0.7887(4) 0.5820(3)
H15_2 H 0.4932 0.8309 0.6150
H16_2 H 0.4355 0.7423 0.5998
O2_2 O 0.3284(4) 0.5998(3) 0.3371(3)
Mn3_2 Mn 0.29776(9) 0.85915(7) 0.61085(6)
C20_3 C 0.0137(5) 0.3526(4) 0.8680(4)
C21_3 C 0.0615(6) 0.2818(4) 0.8321(4)
H12_3 H 0.0439 0.2719 0.7763
C22_3 C 0.1359(6) 0.2255(5) 0.8795(4)
C23_3 C 0.1670(6) 0.2441(5) 0.9619(5)
H13_3 H 0.2181 0.2064 0.9935
C24_3 C 0.1226(6) 0.3184(5) 0.9979(4)
C25_3 C 0.0422(6) 0.3712(5) 0.9509(4)
H14_3 H 0.0075 0.4186 0.9745
C26_3 C 0.1802(6) 0.1429(5) 0.8412(5)
O7_2 O 0.1564(4) 0.1339(3) 0.7651(3)
O8_2 O 0.2353(5) 0.0842(4) 0.8834(3)
Mn6 Mn 0.24038(8) 0.00187(7) 0.76962(6)
O10_2 O 0.3828(4) 0.0524(3) 0.7196(3)
C1_3 C 0.7758(7) 0.4387(6) 0.0660(5)
H1_3 H 0.7334 0.4879 0.0444
C2_3 C 0.8317(7) 0.4446(7) 0.1446(5)
H2_3 H 0.8291 0.4970 0.1748
C3_3 C 0.8920(7) 0.3698(7) 0.1773(6)
H3_3 H 0.9299 0.3706 0.2304
C4_3 C 0.8944(7) 0.2954(7) 0.1299(5)
H4_3 H 0.9354 0.2452 0.1505
C5_3 C 0.8376(6) 0.2935(5) 0.0526(4)
C7_3 C 0.8727(7) 0.1280(6) 0.0279(6)
H5_3 H 0.9009 0.1187 0.0825
H10_3 H 0.5602 0.5874 0.0015
N1_3 N 0.7793(5) 0.3666(4) 0.0195(4)
C6_3 C 0.8362(6) 0.2139(5) 0.9995(5)
C8_3 C 0.8657(8) 0.0589(6) 0.9735(8)
H6_3 H 0.8884 0.0016 0.9915
C9_3 C 0.8259(8) 0.0723(6) 0.8936(7)
H7_3 H 0.8237 0.0259 0.8558
C10_3 C 0.7889(7) 0.1580(5) 0.8707(5)
H8_3 H 0.7589 0.1676 0.8165
C11_3 C 0.3638(6) 0.8302(5) 0.8052(5)
C12_3 C 0.4247(5) 0.7623(4) 0.8620(4)
C13_3 C 0.4774(5) 0.6887(4) 0.8301(4)
H9_3 H 0.4766 0.6830 0.7742
C14_3 C 0.5308(5) 0.6241(4) 0.8833(4)
C15_3 C 0.5912(5) 0.5468(5) 0.8519(4)
C16_3 C 0.5275(5) 0.6322(5) 0.9666(4)
C17_3 C 0.4776(5) 0.7044(4) 0.9986(4)
C18_3 C 0.4270(5) 0.7706(4) 0.9450(4)
H11_3 H 0.3945 0.8208 0.9658
C19_3 C 0.9249(6) 0.4090(4) 0.8164(5)
N2_3 N 0.7934(5) 0.2273(4) 0.9213(4)
O1_2 O 0.3500(4) 0.8138(3) 0.7307(3)
O2_3 O 0.3284(4) 0.9002(3) 0.8371(3)
O3_3 O 0.6159(4) 0.4811(3) 0.8989(3)
O4_2 O 0.6172(4) 0.5524(3) 0.7804(3)
O5_2 O 0.8430(4) 0.4426(3) 0.8506(3)
O6_2 O 0.9286(4) 0.4219(3) 0.7422(3)
Mn5_2 Mn 0.75962(8) 0.50187(7) 0.73038(6)
O9_2 O 0.6500(4) 0.3138(3) 0.7693(3)
O11_2 O 0.1570(4) 0.9426(3) 0.6494(3)
O12_2 O 0.0714(4) 0.9219(3) 0.7578(3)
H21_3 H 0.514064 0.288916 0.975845
C11_4 C 0.6362(6) 0.3302(5) 0.6948(5)
C12_4 C 0.5753(5) 0.2623(4) 0.6380(4)
C13_4 C 0.5226(5) 0.1887(4) 0.6699(4)
H9_4 H 0.5234 0.1830 0.7258
C14_4 C 0.4692(5) 0.1241(4) 0.6167(4)
C15_4 C 0.4088(5) 0.0468(5) 0.6481(4)
C16_4 C 0.4725(5) 0.1322(5) 0.5334(4)
H10_4 H 0.4398 0.0874 0.4985
C17_4 C 0.5224(5) 0.2044(4) 0.5014(4)
C18_4 C 0.5730(5) 0.2706(4) 0.5550(4)
H11_4 H 0.6055 0.3208 0.5342
O2_4 O 0.6716(4) 0.4002(3) 0.6629(3)
O13_2 O 0.8436(4) 0.6339(3) 0.7349(3)
O14_2 O 0.7647(5) 0.5842(4) 0.6166(3)
C1_4 C 0.2242(7) 0.9387(6) 0.4340(5)
H1_4 H 0.2666 0.9879 0.4556
C2_4 C 0.1683(7) 0.9446(7) 0.3554(5)
H2_4 H 0.1709 0.9970 0.3252
C3_4 C 0.1080(7) 0.8698(7) 0.3227(6)
H3_4 H 0.0701 0.8706 0.2696
C4_4 C 0.1056(7) 0.7954(7) 0.3701(5)
H4_4 H 0.0646 0.7452 0.3495
C5_4 C 0.1624(6) 0.7935(5) 0.4474(4)
C6_4 C 0.1638(6) 0.7139(5) 0.5005(5)
C7_4 C 0.1273(7) 0.6280(6) 0.4721(6)
H5_4 H 0.0991 0.6187 0.4175
C8_4 C 0.1343(8) 0.5589(6) 0.5265(8)
H6_4 H 0.1116 0.5016 0.5085
C9_4 C 0.1741(8) 0.5723(6) 0.6064(7)
H7_4 H 0.1763 0.5259 0.6442
C10_4 C 0.2111(7) 0.6580(5) 0.6293(5)
H8_4 H 0.2411 0.6676 0.6835
C19_4 C 0.0751(6) 0.9090(4) 0.6836(5)
N1_4 N 0.2207(5) 0.8666(4) 0.4805(4)
N2_4 N 0.2066(5) 0.7273(4) 0.5787(4)
O3_4 O 0.3841(4) 0.9811(3) 0.6011(3)
H21_4 H 0.485936 0.788916 0.524155
C20_4 C 0.9863(5) 0.8526(4) 0.6320(4)
C21_4 C 0.9385(6) 0.7818(4) 0.6679(4)
H12_4 H 0.9561 0.7719 0.7237
C22_4 C 0.8641(6) 0.7255(5) 0.6205(4)
C23_4 C 0.8330(6) 0.7441(5) 0.5381(5)
H13_4 H 0.7819 0.7064 0.5065
C24_4 C 0.8774(6) 0.8184(5) 0.5021(4)
C25_4 C 0.9578(6) 0.8712(5) 0.5491(4)
H14_4 H 0.9925 0.9186 0.5255
C26_4 C 0.8198(6) 0.6429(5) 0.6588(5)
N4_2 N 0.8413(6) 0.8370(5) 0.4208(4)
H17_2 H 0.8689 0.8823 0.3980
H18_2 H 0.7913 0.8032 0.3930
N4_3 N 0.8413(6) 0.6630(5) 0.9208(4)
H17_3 H 0.8689 0.6177 0.8980
H18_3 H 0.7913 0.6968 0.8930
N4_4 N 0.1587(6) 0.3370(5) 0.0792(4)
H17_4 H 0.1311 0.3823 0.1020
H18_4 H 0.2087 0.3032 0.1070
loop_
_geom_bond_atom_site_label_1
_geom_bond_atom_site_label_2
_geom_bond_site_symmetry_1
_geom_bond_site_symmetry_2
H6 C8 1_555 1_555
C9 C8 1_555 1_555
H7 C9 1_555 1_555
C10 C9 1_555 1_555
H8 C10 1_555 1_555
C11 C12 1_555 1_555
C12 C13 1_555 1_555
C13 H9 1_555 1_555
C14 C13 1_555 1_555
C15 C14 1_555 1_555
C16 C14 1_555 1_555
C17 C16 1_555 1_555
C18 C12 1_555 1_555
H11 C18 1_555 1_555
N2 C6 1_555 1_555
O1 C11 1_555 1_555
O2 C11 1_555 1_555
O3 C15 1_555 1_555
O4 C15 1_555 1_555
O5 C19 1_555 1_555
O6 C19 1_555 1_555
Mn4 O1 1_555 1_555
Mn5 O4 1_555 1_555
N5 Mn1 1_555 1_555
H19 N5 1_555 1_555
H20 N5 1_555 1_555
O9 Mn1 1_555 1_555
C10 N2 1_555 1_555
C17 C18 1_555 1_555
Mn1 N2 1_555 1_555
Mn1 O3 1_555 1_555
Mn1 O5 1_555 1_555
O5 Mn5 1_555 1_555
O6 Mn5 1_555 1_555
Mn4 O11 1_555 1_555
N5 H21 1_555 1_555
C1 H1 1_555 1_555
C2 C1 1_555 1_555
H2 C2 1_555 1_555
C3 C2 1_555 1_555
H3 C3 1_555 1_555
C4 C3 1_555 1_555
H4 C4 1_555 1_555
C5 C4 1_555 1_555
H5 C7 1_555 1_555
N1 C1 1_555 1_555
H15 N3 1_555 1_555
H16 N3 1_555 1_555
Mn3 N3 1_555 1_555
C5 N1 1_555 1_555
O10 Mn2 1_555 1_555
O13 Mn2 1_555 1_555
O14 Mn2 1_555 1_555
C20 C21 1_555 1_555
C21 H12 1_555 1_555
C22 C21 1_555 1_555
C23 C22 1_555 1_555
H13 C23 1_555 1_555
C24 C23 1_555 1_555
C25 C20 1_555 1_555
H14 C25 1_555 1_555
C26 C22 1_555 1_555
O13 C26 1_555 1_555
O14 C26 1_555 1_555
C24 C25 1_555 1_555
C20_2 C21_2 1_555 1_555
C21_2 H12_2 1_555 1_555
C22_2 C21_2 1_555 1_555
C23_2 C22_2 1_555 1_555
H13_2 C23_2 1_555 1_555
C24_2 C23_2 1_555 1_555
C25_2 C20_2 1_555 1_555
H14_2 C25_2 1_555 1_555
C26_2 C22_2 1_555 1_555
N4 C24_2 1_555 1_555
H17 N4 1_555 1_555
H18 N4 1_555 1_555
O7 C26_2 1_555 1_555
O8 C26_2 1_555 1_555
Mn5 O7 1_555 1_555
C24_2 C25_2 1_555 1_555
O8 Mn5 1_555 1_555
C1_2 H1_2 1_555 1_555
C2_2 C1_2 1_555 1_555
H2_2 C2_2 1_555 1_555
C3_2 C2_2 1_555 1_555
H3_2 C3_2 1_555 1_555
C4_2 C3_2 1_555 1_555
H4_2 C4_2 1_555 1_555
C5_2 C4_2 1_555 1_555
C6_2 C5_2 1_555 1_555
C7_2 C6_2 1_555 1_555
H5_2 C7_2 1_555 1_555
C8_2 C7_2 1_555 1_555
H6_2 C8_2 1_555 1_555
C9_2 C8_2 1_555 1_555
H7_2 C9_2 1_555 1_555
C10_2 C9_2 1_555 1_555
H8_2 C10_2 1_555 1_555
Mn4 N1_2 1_555 1_555
N1_2 C1_2 1_555 1_555
N2_2 C6_2 1_555 1_555
O11 C19_2 1_555 1_555
O12 C19_2 1_555 1_555
N5_2 Mn4 1_555 1_555
H19_2 N5_2 1_555 1_555
H20_2 N5_2 1_555 1_555
C5_2 N1_2 1_555 1_555
C10_2 N2_2 1_555 1_555
Mn4 N2_2 1_555 1_555
Mn4 O3_2 1_555 1_555
N5_2 H21_2 1_555 1_555
C11_2 C12_2 1_555 1_555
C12_2 C13_2 1_555 1_555
C13_2 H9_2 1_555 1_555
C14_2 C13_2 1_555 1_555
C15_2 C14_2 1_555 1_555
C16_2 C14_2 1_555 1_555
H10_2 C16_2 1_555 1_555
C17_2 C16_2 1_555 1_555
C18_2 C12_2 1_555 1_555
H11_2 C18_2 1_555 1_555
Mn5 O2_2 1_555 1_555
N3_2 C17_2 1_555 1_555
H15_2 N3_2 1_555 1_555
H16_2 N3_2 1_555 1_555
O9 C11_2 1_555 1_555
O2_2 C11_2 1_555 1_555
O10 C15_2 1_555 1_555
Mn3_2 N3_2 1_555 1_555
C17_2 C18_2 1_555 1_555
C20_3 C21_3 1_555 1_555
C21_3 H12_3 1_555 1_555
C22_3 C21_3 1_555 1_555
C23_3 C22_3 1_555 1_555
H13_3 C23_3 1_555 1_555
C24_3 C23_3 1_555 1_555
C25_3 C20_3 1_555 1_555
H14_3 C25_3 1_555 1_555
C26_3 C22_3 1_555 1_555
O7_2 C26_3 1_555 1_555
O8_2 C26_3 1_555 1_555
Mn6 O7_2 1_555 1_555
C24_3 C25_3 1_555 1_555
O8_2 Mn6 1_555 1_555
O10_2 Mn6 1_555 1_555
C1_3 H1_3 1_555 1_555
C2_3 C1_3 1_555 1_555
H2_3 C2_3 1_555 1_555
C3_3 C2_3 1_555 1_555
H3_3 C3_3 1_555 1_555
C4_3 C3_3 1_555 1_555
H4_3 C4_3 1_555 1_555
C5_3 C4_3 1_555 1_555
H5_3 C7_3 1_555 1_555
N1_3 C1_3 1_555 1_555
C5_3 N1_3 1_555 1_555
H6_3 C8_3 1_555 1_555
C9_3 C8_3 1_555 1_555
H7_3 C9_3 1_555 1_555
C10_3 C9_3 1_555 1_555
H8_3 C10_3 1_555 1_555
C11_3 C12_3 1_555 1_555
C12_3 C13_3 1_555 1_555
C13_3 H9_3 1_555 1_555
C14_3 C13_3 1_555 1_555
C15_3 C14_3 1_555 1_555
C16_3 C14_3 1_555 1_555
C17_3 C16_3 1_555 1_555
C18_3 C12_3 1_555 1_555
H11_3 C18_3 1_555 1_555
N2_3 C6_3 1_555 1_555
O1_2 C11_3 1_555 1_555
O2_3 C11_3 1_555 1_555
O3_3 C15_3 1_555 1_555
O4_2 C15_3 1_555 1_555
O5_2 C19_3 1_555 1_555
O6_2 C19_3 1_555 1_555
Mn3_2 O1_2 1_555 1_555
Mn5_2 O4_2 1_555 1_555
O9_2 Mn3 1_555 1_555
C10_3 N2_3 1_555 1_555
C17_3 C18_3 1_555 1_555
Mn3 N2_3 1_555 1_555
Mn3 O3_3 1_555 1_555
Mn3 O5_2 1_555 1_555
O5_2 Mn5_2 1_555 1_555
O6_2 Mn5_2 1_555 1_555
Mn3_2 O11_2 1_555 1_555
N3 H21_3 1_555 1_555
C11_4 C12_4 1_555 1_555
C12_4 C13_4 1_555 1_555
C13_4 H9_4 1_555 1_555
C14_4 C13_4 1_555 1_555
C15_4 C14_4 1_555 1_555
C16_4 C14_4 1_555 1_555
H10_4 C16_4 1_555 1_555
C17_4 C16_4 1_555 1_555
C18_4 C12_4 1_555 1_555
H11_4 C18_4 1_555 1_555
Mn5_2 O2_4 1_555 1_555
N5_2 C17_4 1_555 1_555
O9_2 C11_4 1_555 1_555
O2_4 C11_4 1_555 1_555
O10_2 C15_4 1_555 1_555
O13_2 Mn5_2 1_555 1_555
O14_2 Mn5_2 1_555 1_555
C17_4 C18_4 1_555 1_555
C1_4 H1_4 1_555 1_555
C2_4 C1_4 1_555 1_555
H2_4 C2_4 1_555 1_555
C3_4 C2_4 1_555 1_555
H3_4 C3_4 1_555 1_555
C4_4 C3_4 1_555 1_555
H4_4 C4_4 1_555 1_555
C5_4 C4_4 1_555 1_555
C6_4 C5_4 1_555 1_555
C7_4 C6_4 1_555 1_555
H5_4 C7_4 1_555 1_555
C8_4 C7_4 1_555 1_555
H6_4 C8_4 1_555 1_555
C9_4 C8_4 1_555 1_555
H7_4 C9_4 1_555 1_555
C10_4 C9_4 1_555 1_555
H8_4 C10_4 1_555 1_555
Mn3_2 N1_4 1_555 1_555
N1_4 C1_4 1_555 1_555
N2_4 C6_4 1_555 1_555
O11_2 C19_4 1_555 1_555
O12_2 C19_4 1_555 1_555
C5_4 N1_4 1_555 1_555
C10_4 N2_4 1_555 1_555
Mn3_2 N2_4 1_555 1_555
Mn3_2 O3_4 1_555 1_555
N3_2 H21_4 1_555 1_555
C20_4 C21_4 1_555 1_555
C21_4 H12_4 1_555 1_555
C22_4 C21_4 1_555 1_555
C23_4 C22_4 1_555 1_555
H13_4 C23_4 1_555 1_555
C24_4 C23_4 1_555 1_555
C25_4 C20_4 1_555 1_555
H14_4 C25_4 1_555 1_555
C26_4 C22_4 1_555 1_555
N4_2 C24_4 1_555 1_555
H17_2 N4_2 1_555 1_555
H18_2 N4_2 1_555 1_555
O13_2 C26_4 1_555 1_555
O14_2 C26_4 1_555 1_555
C24_4 C25_4 1_555 1_555
H17_3 N4_3 1_555 1_555
H18_3 N4_3 1_555 1_555
H17_4 N4_4 1_555 1_555
H18_4 N4_4 1_555 1_555

#END
