
###############################################################################
#
# This file contains modified crystal structure data generated from the
# MOF subset of the Cambridge Structural Database (CSD) v543 
# hosted by the Cambridge Crystallographic Data Centre (CCDC).
#
# This work is licensed under the Creative Commons
# Attribution-NonCommercial-ShareAlike 4.0 International License.
# To view a copy of this license, visit
# http://creativecommons.org/licenses/by-nc-sa/4.0/
# or send a letter to
# Creative Commons, PO Box 1866, Mountain View, CA 94042, USA.
#
# CIF created using the CSD Python API on 29 September 2022
# The structure has been converted into the P1 space group
# The structure has a 3D framework
# The original CSD entry WEGDIX is in the triclinic crystal system
# The framework has been calculated to contain at least 10.0% void space
# The void calculation uses a probe of radius 1.32A, grid spacing 0.4
# The framework is charged, counterions have been retained in the structure
#
###############################################################################

data_WEGDIX
_chemical_formula_moiety         '(C32 H44 Cd4 N8 O16 S4 2+)n'
_symmetry_cell_setting           triclinic
_symmetry_space_group_name_H-M   'P 1'
_symmetry_Int_Tables_number      1
_space_group_name_Hall           'P 1'
loop_
_symmetry_equiv_pos_site_id
_symmetry_equiv_pos_as_xyz
1 x,y,z
_cell_length_a                   7.8398(3)
_cell_length_b                   14.4250(10)
_cell_length_c                   14.4884(10)
_cell_angle_alpha                90.760(6)
_cell_angle_beta                 97.907(5)
_cell_angle_gamma                105.506(5)
_cell_volume                     1561.68
loop_
_atom_site_label
_atom_site_type_symbol
_atom_site_fract_x
_atom_site_fract_y
_atom_site_fract_z
Cd1 Cd 0.27558(4) 0.03618(2) 0.006591(19)
Cd2 Cd 0.44139(4) 0.52703(2) 0.353570(19)
C1 C 0.2719(6) 0.2431(3) 0.1123(3)
H1 H 0.3808 0.2408 0.1456
C2 C 0.2036(5) 0.3169(3) 0.1340(3)
C3 C 0.0402(6) 0.3197(3) 0.0832(3)
C6 C 0.2989(6) 0.3922(3) 0.2108(3)
N1 N 0.1910(4) 0.1736(2) 0.0457(2)
O1 O 0.2267(5) 0.4553(2) 0.2297(2)
O2 O 0.4457(5) 0.3880(2) 0.2527(2)
O5 O 0.3692(4) 0.4035(2) 0.4691(2)
O6 O 0.1868(4) 0.5103(2) 0.4384(2)
O7 O 0.2693(4) 0.4712(2) 0.59641(18)
O8 O 0.0582(4) 0.3521(2) 0.4917(2)
S3 S 0.21752(13) 0.43342(7) 0.49727(7)
Cd6 Cd 0.55861(4) 0.47297(2) 0.646430(19)
O9 O 0.5814(5) 0.6512(2) 0.2548(2)
O10 O 0.4110(4) 0.6845(2) 0.3500(2)
O11 O 0.7307(4) 0.5288(2) 0.40359(18)
S5 S 0.59361(14) 0.08717(7) 0.11109(7)
C5 C 0.0329(5) 0.1759(3) 0.9967(3)
C7 C 0.3955(5) 0.1731(3) 0.8308(3)
H4 H 0.3567 0.2203 0.8595
C8 C 0.4675(5) 0.1943(3) 0.7498(3)
C9 C 0.5191(5) 0.1223(3) 0.7070(3)
H5 H 0.5670 0.1334 0.6517
C10 C 0.5001(5) 0.0340(3) 0.7459(3)
C11 C 0.4305(5) 0.0191(3) 0.8301(3)
C12 C 0.4934(6) 0.2932(3) 0.7127(3)
N2 N 0.3781(4) 0.0889(2) 0.8708(2)
O3 O 0.4186(5) 0.3488(2) 0.7452(2)
O4 O 0.5890(4) 0.3155(2) 0.6500(2)
H6 H 0.5330 0.9851 0.7166
S2 S 0.40639(14) 0.91283(7) 0.88891(7)
Cd4 Cd 0.72442(4) 0.96382(2) 0.993409(19)
H6_2 H 0.4670 0.0149 0.2834
C5_2 C 0.9671(5) 0.8241(3) 0.0033(3)
C7_2 C 0.6045(5) 0.8269(3) 0.1692(3)
H4_2 H 0.6433 0.7797 0.1405
C8_2 C 0.5325(5) 0.8057(3) 0.2502(3)
C9_2 C 0.4809(5) 0.8777(3) 0.2930(3)
H5_2 H 0.4330 0.8666 0.3483
C10_2 C 0.4999(5) 0.9660(3) 0.2541(3)
C11_2 C 0.5695(5) 0.9809(3) 0.1699(3)
C12_2 C 0.5066(6) 0.7068(3) 0.2873(3)
N2_2 N 0.6219(4) 0.9111(2) 0.1292(2)
C1_2 C 0.7281(6) 0.7569(3) 0.8877(3)
H1_2 H 0.6192 0.7592 0.8544
C2_2 C 0.7964(5) 0.6831(3) 0.8660(3)
C3_2 C 0.9598(6) 0.6803(3) 0.9168(3)
C6_2 C 0.7011(6) 0.6078(3) 0.7892(3)
N1_2 N 0.8090(4) 0.8264(2) 0.9543(2)
O1_2 O 0.7733(5) 0.5447(2) 0.7703(2)
O2_2 O 0.5543(5) 0.6120(2) 0.7473(2)
O5_2 O 0.6308(4) 0.5965(2) 0.5309(2)
O6_2 O 0.8132(4) 0.4897(2) 0.5616(2)
O8_2 O 0.9418(4) 0.6479(2) 0.5083(2)
S3_2 S 0.78248(13) 0.56658(7) 0.50273(7)
S4 S 0.06364(14) 0.91431(8) 0.09086(7)
H3 H 0.1522 0.7491 0.0196
H2 H 0.9888 0.3688 0.0956
C4 C 0.9563(6) 0.2494(3) 0.0148(3)
H3_2 H 0.8478 0.2509 0.9804
S1 S 0.93636(14) 0.08569(8) 0.90914(7)
H2_2 H 0.0112 0.6312 0.9044
C4_2 C 0.0437(6) 0.7506(3) 0.9852(3)
H7 H 0.1028 0.2469 0.6919
C14 C 0.0152(9) 0.3960(6) 0.7655(5)
H11 H 0.0116 0.4613 0.7565
H12 H 0.1348 0.3952 0.7903
H13 H 0.0300 0.3739 0.6382
C13 C 0.9786(8) 0.2457(4) 0.6831(5)
H8 H 0.9199 0.2105 0.6256
H9 H 0.9235 0.2150 0.7341
H10 H 0.9353 0.3679 0.8084
N3 N 0.9628(6) 0.3429(3) 0.6798(3)
H14 H 0.8482 0.3408 0.6591
C13_2 C 0.0214(8) 0.7543(4) 0.3169(5)
H8_2 H 0.0801 0.7895 0.3744
H9_2 H 0.0765 0.7850 0.2659
H10_2 H 0.0647 0.6321 0.1916
N3_2 N 0.0372(6) 0.6571(3) 0.3202(3)
H14_2 H 0.1518 0.6592 0.3409
H7_2 H 0.8972 0.7531 0.3081
C14_2 C 0.9848(9) 0.6040(6) 0.2345(5)
H11_2 H 0.9884 0.5387 0.2435
H12_2 H 0.8652 0.6048 0.2097
H13_2 H 0.9700 0.6261 0.3618
C15 C 0.1978(8) 0.6865(5) 0.7124(4)
H15 H 0.2968 0.6954 0.7618
H16 H 0.1010 0.6340 0.7255
H17 H 0.1592 0.7443 0.7079
C16 C 0.3779(8) 0.7436(5) 0.5873(5)
H18 H 0.3210 0.7938 0.5719
H19 H 0.4143 0.7215 0.5323
H20 H 0.4810 0.7681 0.6337
N4 N 0.2539(6) 0.6645(3) 0.6233(3)
H21 H 0.3044 0.6155 0.6311
H22 H 0.1556 0.6443 0.5803
C15_2 C 0.8022(8) 0.3135(5) 0.2876(4)
H15_2 H 0.7032 0.3046 0.2382
H16_2 H 0.8990 0.3660 0.2745
H17_2 H 0.8408 0.2557 0.2921
C16_2 C 0.6221(8) 0.2564(5) 0.4127(5)
H18_2 H 0.6790 0.2062 0.4281
H19_2 H 0.5857 0.2785 0.4677
H20_2 H 0.5190 0.2319 0.3663
N4_2 N 0.7461(6) 0.3355(3) 0.3767(3)
H21_2 H 0.6956 0.3845 0.3689
H22_2 H 0.8444 0.3557 0.4197
loop_
_geom_bond_atom_site_label_1
_geom_bond_atom_site_label_2
_geom_bond_site_symmetry_1
_geom_bond_site_symmetry_2
Cd1 N1 1_555 1_555
Cd2 O1 1_555 1_555
C1 H1 1_555 1_555
C2 C1 1_555 1_555
C3 C2 1_555 1_555
C6 C2 1_555 1_555
N1 C1 1_555 1_555
O1 C6 1_555 1_555
O2 Cd2 1_555 1_555
O5 Cd2 1_555 1_555
O6 Cd2 1_555 1_555
O7 S3 1_555 1_555
O8 S3 1_555 1_555
S3 O5 1_555 1_555
Cd6 O7 1_555 1_555
O9 Cd2 1_555 1_555
O10 Cd2 1_555 1_555
O11 Cd2 1_555 1_555
S5 Cd1 1_555 1_555
C6 O2 1_555 1_555
O6 S3 1_555 1_555
C7 H4 1_555 1_555
C8 C7 1_555 1_555
C9 C8 1_555 1_555
H5 C9 1_555 1_555
C10 C9 1_555 1_555
C11 C10 1_555 1_555
C12 C8 1_555 1_555
O3 C12 1_555 1_555
O4 C12 1_555 1_555
Cd6 O3 1_555 1_555
C7 N2 1_555 1_555
C11 N2 1_555 1_555
O4 Cd6 1_555 1_555
Cd4 S2 1_555 1_555
C7_2 H4_2 1_555 1_555
C8_2 C7_2 1_555 1_555
C9_2 C8_2 1_555 1_555
H5_2 C9_2 1_555 1_555
C10_2 C9_2 1_555 1_555
C11_2 C10_2 1_555 1_555
C12_2 C8_2 1_555 1_555
O9 C12_2 1_555 1_555
O10 C12_2 1_555 1_555
C7_2 N2_2 1_555 1_555
C11_2 N2_2 1_555 1_555
Cd4 N1_2 1_555 1_555
Cd6 O1_2 1_555 1_555
C1_2 H1_2 1_555 1_555
C2_2 C1_2 1_555 1_555
C3_2 C2_2 1_555 1_555
C6_2 C2_2 1_555 1_555
N1_2 C1_2 1_555 1_555
O1_2 C6_2 1_555 1_555
O2_2 Cd6 1_555 1_555
O5_2 Cd6 1_555 1_555
O6_2 Cd6 1_555 1_555
O11 S3_2 1_555 1_555
O8_2 S3_2 1_555 1_555
S3_2 O5_2 1_555 1_555
C6_2 O2_2 1_555 1_555
O6_2 S3_2 1_555 1_555
H11 C14 1_555 1_555
H12 C14 1_555 1_555
H8 C13 1_555 1_555
H9 C13 1_555 1_555
N3 C13 1_555 1_555
H14 N3 1_555 1_555
H8_2 C13_2 1_555 1_555
H9_2 C13_2 1_555 1_555
N3_2 C13_2 1_555 1_555
H14_2 N3_2 1_555 1_555
H11_2 C14_2 1_555 1_555
H12_2 C14_2 1_555 1_555
C15 H15 1_555 1_555
H16 C15 1_555 1_555
H17 C15 1_555 1_555
C16 H18 1_555 1_555
H19 C16 1_555 1_555
H20 C16 1_555 1_555
N4 C15 1_555 1_555
H21 N4 1_555 1_555
H22 N4 1_555 1_555
C16 N4 1_555 1_555
C15_2 H15_2 1_555 1_555
H16_2 C15_2 1_555 1_555
H17_2 C15_2 1_555 1_555
C16_2 H18_2 1_555 1_555
H19_2 C16_2 1_555 1_555
H20_2 C16_2 1_555 1_555
N4_2 C15_2 1_555 1_555
H21_2 N4_2 1_555 1_555
H22_2 N4_2 1_555 1_555
C16_2 N4_2 1_555 1_555

#END
