
###############################################################################
#
# This file contains modified crystal structure data generated from the
# MOF subset of the Cambridge Structural Database (CSD) v543 
# hosted by the Cambridge Crystallographic Data Centre (CCDC).
#
# This work is licensed under the Creative Commons
# Attribution-NonCommercial-ShareAlike 4.0 International License.
# To view a copy of this license, visit
# http://creativecommons.org/licenses/by-nc-sa/4.0/
# or send a letter to
# Creative Commons, PO Box 1866, Mountain View, CA 94042, USA.
#
# CIF created using the CSD Python API on 29 September 2022
# The structure has been converted into the P1 space group
# The structure has a 3D framework
# The original CSD entry WEGGAS is in the monoclinic crystal system
# The framework has been calculated to contain at least 10.0% void space
# The void calculation uses a probe of radius 1.32A, grid spacing 0.4
#
###############################################################################

data_WEGGAS
_chemical_formula_moiety         '(C48 H32 N12 O36 Tb4)n'
_symmetry_cell_setting           triclinic
_symmetry_space_group_name_H-M   'P 1'
_symmetry_Int_Tables_number      1
_space_group_name_Hall           'P 1'
loop_
_symmetry_equiv_pos_site_id
_symmetry_equiv_pos_as_xyz
1 x,y,z
_cell_length_a                   10.1792(10)
_cell_length_b                   17.5193(11)
_cell_length_c                   11.4268(11)
_cell_angle_alpha                90
_cell_angle_beta                 110.035(5)
_cell_angle_gamma                90
_cell_volume                     1914.45
loop_
_atom_site_label
_atom_site_type_symbol
_atom_site_fract_x
_atom_site_fract_y
_atom_site_fract_z
Tb6 Tb 0.01038(3) 0.507249(18) 0.18171(3)
Tb5 Tb 0.01038(3) 0.992751(18) 0.68171(3)
O11 O 0.0255(5) 0.9152(3) 0.4741(5)
O14 O 0.0620(5) 0.8610(3) 0.6556(4)
O15 O 0.0620(5) 0.6390(3) 0.1556(4)
O17 O 0.2273(6) 0.4861(3) 0.1533(5)
O19 O 0.8545(4) 0.4190(3) 0.2250(4)
O22 O 0.2058(7) 0.5376(4) 0.3802(6)
O23 O 0.1456(6) 0.4182(3) 0.3427(5)
O24 O 0.3334(11) 0.4519(8) 0.4950(8)
N5 N 0.7156(5) 0.4262(3) 0.1893(5)
N6 N 0.2319(8) 0.4675(5) 0.4083(6)
C13 C 0.0389(6) 0.8567(4) 0.5418(6)
C14 C 0.0110(7) 0.7793(4) 0.4796(6)
C16 C 0.0530(7) 0.7132(4) 0.5499(6)
H10 H 0.1010 0.7164 0.6352
C18 C 0.0233(8) 0.6432(4) 0.4929(6)
H12 H 0.0545 0.5990 0.5394
C19 C 0.2751(6) 0.4619(4) 0.0721(6)
C20 C 0.4301(6) 0.4454(4) 0.1160(6)
C21 C 0.4903(7) 0.4096(4) 0.0388(6)
C22 C 0.5174(7) 0.4691(5) 0.2324(7)
H14 H 0.4793 0.4911 0.2876
C23 C 0.6353(7) 0.3995(4) 0.0778(6)
H15 H 0.6757 0.3745 0.0268
C24 C 0.6616(7) 0.4603(5) 0.2675(6)
H16 H 0.7200 0.4778 0.3446
O1 O 0.0843(6) 0.4303(3) 0.6814(5)
N1 N 0.0510(6) 0.3624(3) 0.6304(5)
C3 C 0.0620(9) 0.2274(4) 0.6473(6)
H1 H 0.0896 0.1839 0.6962
C5 C 0.0932(8) 0.2982(5) 0.7002(6)
H3 H 0.1439 0.3025 0.7848
O12 O 0.0255(5) 0.5848(3) 0.9741(5)
O18 O 0.2084(4) 0.4520(3) 0.9576(4)
O20 O 0.1455(4) 0.5810(3) 0.7750(4)
H13 H 0.4342 0.3922 0.9608
Tb8 Tb 0.98962(3) 0.007249(18) 0.31829(3)
O5 O 0.7916(4) 0.5480(3) 0.0424(4)
H5 H 0.5658 0.6078 0.0392
O10 O 0.9157(6) 0.5697(3) 0.3186(5)
O13 O 0.9745(5) 0.4152(3) 0.0259(5)
N4 N 0.9490(6) 0.6376(3) 0.3696(5)
C15 C 0.9380(9) 0.7726(4) 0.3527(6)
H9 H 0.9104 0.8161 0.3038
C17 C 0.9068(8) 0.7018(5) 0.2998(6)
H11 H 0.8561 0.6975 0.2152
Tb1 Tb 0.98962(3) 0.492751(18) 0.81829(3)
O2 O 0.9745(5) 0.0848(3) 0.5259(5)
O3 O 0.9380(5) 0.1390(3) 0.3444(4)
O4 O 0.7727(6) 0.5139(3) 0.8467(5)
O7 O 0.7942(7) 0.4624(4) 0.6198(6)
O8 O 0.8544(6) 0.5818(3) 0.6573(5)
O9 O 0.6666(11) 0.5481(8) 0.5050(8)
N2 N 0.2844(5) 0.5738(3) 0.8107(5)
N3 N 0.7681(8) 0.5325(5) 0.5917(6)
C1 C 0.9611(6) 0.1433(4) 0.4582(6)
C2 C 0.9890(7) 0.2207(4) 0.5204(6)
C4 C 0.9470(7) 0.2868(4) 0.4501(6)
H2 H 0.8990 0.2836 0.3648
C6 C 0.9767(8) 0.3568(4) 0.5071(6)
H4 H 0.9455 0.4010 0.4606
C7 C 0.7249(6) 0.5381(4) 0.9279(6)
C8 C 0.5699(6) 0.5546(4) 0.8840(6)
C9 C 0.5097(7) 0.5904(4) 0.9612(6)
C10 C 0.4826(7) 0.5309(5) 0.7676(7)
H6 H 0.5207 0.5089 0.7124
C11 C 0.3647(7) 0.6005(4) 0.9222(6)
H7 H 0.3243 0.6255 0.9732
C12 C 0.3384(7) 0.5397(5) 0.7325(6)
H8 H 0.2800 0.5222 0.6554
O16 O 0.9380(5) 0.3610(3) 0.8444(4)
O4_2 O 0.2273(6) 0.0139(3) 0.6533(5)
O5_2 O 0.2084(4) 0.0480(3) 0.4576(4)
O6 O 0.8545(4) 0.0810(3) 0.7250(4)
O8_2 O 0.1456(6) 0.0818(3) 0.8427(5)
O9_2 O 0.3334(11) 0.0481(8) 0.9950(8)
N2_2 N 0.7156(5) 0.0738(3) 0.6893(5)
N3_2 N 0.2319(8) 0.0325(5) 0.9083(6)
C7_2 C 0.2751(6) 0.0381(4) 0.5721(6)
C8_2 C 0.4301(6) 0.0546(4) 0.6160(6)
C9_2 C 0.4903(7) 0.0904(4) 0.5388(6)
H5_2 H 0.4342 0.1078 0.4608
C10_2 C 0.5174(7) 0.0309(5) 0.7324(7)
H6_2 H 0.4793 0.0089 0.7876
C11_2 C 0.6353(7) 0.1005(4) 0.5778(6)
H7_2 H 0.6757 0.1255 0.5268
C12_2 C 0.6616(7) 0.0397(5) 0.7675(6)
H8_2 H 0.7200 0.0222 0.8446
O10_2 O 0.0843(6) 0.0697(3) 0.1814(5)
N4_2 N 0.0510(6) 0.1376(3) 0.1304(5)
C15_2 C 0.0620(9) 0.2726(4) 0.1473(6)
H9_2 H 0.0896 0.3161 0.1962
C17_2 C 0.0932(8) 0.2018(5) 0.2002(6)
H11_2 H 0.1439 0.1975 0.2848
C1_2 C 0.0389(6) 0.6433(4) 0.0418(6)
C4_2 C 0.0530(7) 0.7868(4) 0.0499(6)
H2_2 H 0.1010 0.7836 0.1352
H4_2 H 0.0545 0.9010 0.0394
O7_2 O 0.2058(7) 0.9624(4) 0.8802(6)
C2_2 C 0.0110(7) 0.7207(4) 0.9796(6)
C6_2 C 0.0233(8) 0.8568(4) 0.9929(6)
O21 O 0.1455(4) 0.9190(3) 0.2750(4)
O22_2 O 0.7942(7) 0.0376(4) 0.1198(6)
C14_2 C 0.9890(7) 0.2793(4) 0.0204(6)
C18_2 C 0.9767(8) 0.1432(4) 0.0071(6)
C13_2 C 0.9611(6) 0.3567(4) 0.9582(6)
C16_2 C 0.9470(7) 0.2132(4) 0.9501(6)
H10_2 H 0.8990 0.2164 0.8648
H12_2 H 0.9455 0.0990 0.9606
O1_2 O 0.9157(6) 0.9303(3) 0.8186(5)
N1_2 N 0.9490(6) 0.8624(3) 0.8696(5)
C3_2 C 0.9380(9) 0.7274(4) 0.8527(6)
H1_2 H 0.9104 0.6839 0.8038
C5_2 C 0.9068(8) 0.7982(5) 0.7998(6)
H3_2 H 0.8561 0.8025 0.7152
O17_2 O 0.7727(6) 0.9861(3) 0.3467(5)
O18_2 O 0.7916(4) 0.9520(3) 0.5424(4)
O23_2 O 0.8544(6) 0.9182(3) 0.1573(5)
O24_2 O 0.6666(11) 0.9519(8) 0.0050(8)
N5_2 N 0.2844(5) 0.9262(3) 0.3107(5)
N6_2 N 0.7681(8) 0.9675(5) 0.0917(6)
C19_2 C 0.7249(6) 0.9619(4) 0.4279(6)
C20_2 C 0.5699(6) 0.9454(4) 0.3840(6)
C21_2 C 0.5097(7) 0.9096(4) 0.4612(6)
H13_2 H 0.5658 0.8922 0.5392
C22_2 C 0.4826(7) 0.9691(5) 0.2676(7)
H14_2 H 0.5207 0.9911 0.2124
C23_2 C 0.3647(7) 0.8995(4) 0.4222(6)
H15_2 H 0.3243 0.8745 0.4732
C24_2 C 0.3384(7) 0.9603(5) 0.2325(6)
H16_2 H 0.2800 0.9778 0.1554
loop_
_geom_bond_atom_site_label_1
_geom_bond_atom_site_label_2
_geom_bond_site_symmetry_1
_geom_bond_site_symmetry_2
Tb5 O11 1_555 1_555
O11 C13 1_555 1_555
O14 Tb5 1_555 1_555
O15 Tb6 1_555 1_555
O17 Tb6 1_555 1_555
O19 N5 1_555 1_555
O22 Tb6 1_555 1_555
O23 Tb6 1_555 1_555
O24 N6 1_555 1_555
N5 C23 1_555 1_555
N6 O22 1_555 1_555
C13 O14 1_555 1_555
C14 C13 1_555 1_555
C16 C14 1_555 1_555
H10 C16 1_555 1_555
H12 C18 1_555 1_555
C19 O17 1_555 1_555
C20 C19 1_555 1_555
C21 C20 1_555 1_555
C22 C20 1_555 1_555
H14 C22 1_555 1_555
C23 C21 1_555 1_555
H15 C23 1_555 1_555
C24 N5 1_555 1_555
H16 C24 1_555 1_555
O23 N6 1_555 1_555
C16 C18 1_555 1_555
C22 C24 1_555 1_555
O1 N1 1_555 1_555
N1 C5 1_555 1_555
C3 H1 1_555 1_555
C5 C3 1_555 1_555
H3 C5 1_555 1_555
N4 O10 1_555 1_555
H9 C15 1_555 1_555
C17 N4 1_555 1_555
H11 C17 1_555 1_555
C15 C17 1_555 1_555
O2 C1 1_555 1_555
O3 C1 1_555 1_555
O4 Tb1 1_555 1_555
O20 N2 1_555 1_555
O7 Tb1 1_555 1_555
O8 Tb1 1_555 1_555
O9 N3 1_555 1_555
N2 C11 1_555 1_555
N3 O7 1_555 1_555
C1 C2 1_555 1_555
C4 C2 1_555 1_555
H2 C4 1_555 1_555
H4 C6 1_555 1_555
C7 O4 1_555 1_555
C8 C7 1_555 1_555
C9 C8 1_555 1_555
C10 C8 1_555 1_555
H6 C10 1_555 1_555
C11 C9 1_555 1_555
H7 C11 1_555 1_555
C12 N2 1_555 1_555
H8 C12 1_555 1_555
Tb8 O2 1_555 1_555
O16 Tb1 1_555 1_555
O3 Tb8 1_555 1_555
O8 N3 1_555 1_555
C4 C6 1_555 1_555
C10 C12 1_555 1_555
O5_2 C7_2 1_555 1_555
O6 N2_2 1_555 1_555
O9_2 N3_2 1_555 1_555
N2_2 C11_2 1_555 1_555
C7_2 O4_2 1_555 1_555
C8_2 C7_2 1_555 1_555
C9_2 C8_2 1_555 1_555
H5_2 C9_2 1_555 1_555
C10_2 C8_2 1_555 1_555
H6_2 C10_2 1_555 1_555
C11_2 C9_2 1_555 1_555
H7_2 C11_2 1_555 1_555
C12_2 N2_2 1_555 1_555
H8_2 C12_2 1_555 1_555
N4_2 O10_2 1_555 1_555
H9_2 C15_2 1_555 1_555
C17_2 N4_2 1_555 1_555
H11_2 C17_2 1_555 1_555
O8_2 N3_2 1_555 1_555
C10_2 C12_2 1_555 1_555
C15_2 C17_2 1_555 1_555
O15 C1_2 1_555 1_555
H2_2 C4_2 1_555 1_555
O7_2 Tb5 1_555 1_555
O22_2 Tb8 1_555 1_555
C13_2 O16 1_555 1_555
H10_2 C16_2 1_555 1_555
O1_2 N1_2 1_555 1_555
N1_2 C5_2 1_555 1_555
C3_2 H1_2 1_555 1_555
C5_2 C3_2 1_555 1_555
H3_2 C5_2 1_555 1_555
O21 N5_2 1_555 1_555
O24_2 N6_2 1_555 1_555
N5_2 C23_2 1_555 1_555
C19_2 O17_2 1_555 1_555
C20_2 C19_2 1_555 1_555
C21_2 C20_2 1_555 1_555
H13_2 C21_2 1_555 1_555
C22_2 C20_2 1_555 1_555
H14_2 C22_2 1_555 1_555
C23_2 C21_2 1_555 1_555
H15_2 C23_2 1_555 1_555
C24_2 N5_2 1_555 1_555
H16_2 C24_2 1_555 1_555
O18_2 C19_2 1_555 1_555
O23_2 N6_2 1_555 1_555
C22_2 C24_2 1_555 1_555

#END
