
###############################################################################
#
# This file contains modified crystal structure data generated from the
# MOF subset of the Cambridge Structural Database (CSD) v543 
# hosted by the Cambridge Crystallographic Data Centre (CCDC).
#
# This work is licensed under the Creative Commons
# Attribution-NonCommercial-ShareAlike 4.0 International License.
# To view a copy of this license, visit
# http://creativecommons.org/licenses/by-nc-sa/4.0/
# or send a letter to
# Creative Commons, PO Box 1866, Mountain View, CA 94042, USA.
#
# CIF created using the CSD Python API on 29 September 2022
# The structure has been converted into the P1 space group
# The structure has a 3D framework
# The original CSD entry WEGJEB is in the tetragonal crystal system
# The framework has been calculated to contain at least 10.0% void space
# The void calculation uses a probe of radius 1.32A, grid spacing 0.4
#
###############################################################################

data_WEGJEB
_chemical_formula_moiety         '(C128 H96 As16 Cu2 Mo48 N48 O184)n'
_symmetry_cell_setting           triclinic
_symmetry_space_group_name_H-M   'P 1'
_symmetry_Int_Tables_number      1
_space_group_name_Hall           'P 1'
loop_
_symmetry_equiv_pos_site_id
_symmetry_equiv_pos_as_xyz
1 x,y,z
_cell_length_a                   19.3189(8)
_cell_length_b                   19.3189(8)
_cell_length_c                   23.7533(12)
_cell_angle_alpha                90
_cell_angle_beta                 90
_cell_angle_gamma                90
_cell_volume                     8865.2
loop_
_atom_site_label
_atom_site_type_symbol
_atom_site_fract_x
_atom_site_fract_y
_atom_site_fract_z
Cu1 Cu 0.250000 0.53573(12) 0.500000
N1 N 0.1598(6) 0.4899(6) 0.5037(5)
N2 N 0.1319(8) 0.4501(8) 0.5503(7)
N3 N 0.0666(5) 0.4400(5) 0.4738(4)
C3 C 0.0173(7) 0.4307(6) 0.3790(5)
H2 H 0.053825 0.456434 0.364379
C4 C 0.0122(6) 0.4181(6) 0.4360(5)
C7 C 0.1192(7) 0.4830(7) 0.4618(6)
H5 H 0.125296 0.504991 0.427339
C8 C 0.0753(10) 0.4230(10) 0.5322(8)
H6 H 0.044859 0.396546 0.553539
O43 O 0.0105(4) 0.3458(4) 0.2172(4)
N13 N 0.3402(6) 0.4899(6) 0.4963(5)
O48 O 0.2651(5) 0.6120(5) 0.5578(3)
O50 O 0.2349(5) 0.6120(5) 0.4422(3)
H17 H 0.004991 0.874704 0.072661
Cu7 Cu 0.03573(12) 0.750000 0.000000
Cu7_2 Cu 0.03573(12) 0.750000 1.000000
Mo1 Mo 0.80745(5) 0.17398(6) 0.40447(4)
Mo2 Mo 0.78804(5) 0.04963(5) 0.30514(4)
Mo3 Mo 0.65383(5) 0.06897(5) 0.19403(4)
As1 As 0.84763(5) 0.32235(6) 0.31934(4)
O1 O 0.7651(5) 0.1120(5) 0.4422(3)
O2 O 0.8771(4) 0.1938(4) 0.4449(3)
O3 O 0.750000 0.250000 0.4174(4)
O4 O 0.8564(4) 0.1065(4) 0.3519(3)
O5 O 0.8508(3) 0.2361(3) 0.3328(2)
O6 O 0.7669(3) 0.3506(3) 0.3314(3)
O7 O 0.7492(5) 0.0074(4) 0.3591(4)
O9 O 0.7198(4) 0.0439(4) 0.2490(3)
O10 O 0.8693(3) 0.3388(3) 0.2517(3)
O11 O 0.5810(4) 0.0306(4) 0.2183(3)
O12 O 0.6763(5) 0.0183(4) 0.1389(3)
C1 C 0.9128(5) 0.3667(5) 0.3668(4)
C2 C 0.9662(6) 0.4038(6) 0.3441(5)
H1 H 0.968246 0.411133 0.305433
C5 C 0.9608(7) 0.3821(7) 0.4591(6)
H3 H 0.960456 0.373274 0.497573
C6 C 0.9062(6) 0.3571(6) 0.4240(5)
H4 H 0.867650 0.335260 0.439210
As2 As 0.65237(5) 0.17765(6) 0.31934(4)
N4 N 0.3402(6) 0.0101(6) 0.5037(5)
N5 N 0.3681(8) 0.0499(8) 0.5503(7)
N6 N 0.4334(5) 0.0600(5) 0.4738(4)
O13 O 0.6492(3) 0.2639(3) 0.3328(2)
O14 O 0.7331(3) 0.1494(3) 0.3314(3)
O15 O 0.6307(3) 0.1612(3) 0.2517(3)
C9 C 0.5872(5) 0.1333(5) 0.3668(4)
C10 C 0.5338(6) 0.0962(6) 0.3441(5)
H7 H 0.531754 0.088867 0.305433
C11 C 0.4827(7) 0.0693(6) 0.3790(5)
H8 H 0.446175 0.043566 0.364379
C12 C 0.4878(6) 0.0819(6) 0.4360(5)
C13 C 0.5392(7) 0.1179(7) 0.4591(6)
H9 H 0.539544 0.126726 0.497573
C14 C 0.5938(6) 0.1429(6) 0.4240(5)
H10 H 0.632350 0.164740 0.439210
C15 C 0.3808(7) 0.0170(7) 0.4618(6)
C16 C 0.4247(10) 0.0770(10) 0.5322(8)
H12 H 0.455141 0.103454 0.553539
Mo4 Mo 0.69255(5) 0.32602(6) 0.40447(4)
Mo5 Mo 0.71196(5) 0.45037(5) 0.30514(4)
Mo6 Mo 0.84617(5) 0.43103(5) 0.19403(4)
O16 O 0.7349(5) 0.3880(5) 0.4422(3)
O17 O 0.6229(4) 0.3062(4) 0.4449(3)
O18 O 0.6436(4) 0.3935(4) 0.3519(3)
O19 O 0.7508(5) 0.4926(4) 0.3591(4)
O20 O 0.6542(4) 0.5105(4) 0.2828(4)
O21 O 0.7802(4) 0.4561(4) 0.2490(3)
O22 O 0.9190(4) 0.4694(4) 0.2183(3)
O23 O 0.8237(5) 0.4817(4) 0.1389(3)
As3 As 0.82235(6) 0.15237(5) 0.18066(4)
O24 O 0.7361(3) 0.1492(3) 0.1672(2)
O25 O 0.8506(3) 0.2331(3) 0.1686(3)
O26 O 0.8388(3) 0.1307(3) 0.2483(3)
C17 C 0.8667(5) 0.0872(5) 0.1332(4)
C18 C 0.9038(6) 0.0338(6) 0.1559(5)
H13 H 0.911133 0.031754 0.194567
C21 C 0.8821(7) 0.0392(7) 0.0409(6)
H15 H 0.873274 0.039544 0.002427
C22 C 0.8571(6) 0.0938(6) 0.0760(5)
H16 H 0.835260 0.132350 0.060790
Mo7 Mo 0.67398(6) 0.19255(5) 0.09553(4)
Mo8 Mo 0.54963(5) 0.21196(5) 0.19486(4)
Mo9 Mo 0.56897(5) 0.34617(5) 0.30597(4)
O27 O 0.6120(5) 0.2349(5) 0.0578(3)
O28 O 0.6938(4) 0.1229(4) 0.0551(3)
O29 O 0.750000 0.250000 0.0826(4)
O30 O 0.6065(4) 0.1436(4) 0.1481(3)
O31 O 0.5074(4) 0.2508(5) 0.1409(4)
O32 O 0.4895(4) 0.1542(4) 0.2172(4)
O33 O 0.5439(4) 0.2802(4) 0.2510(3)
O34 O 0.5306(4) 0.4190(4) 0.2817(3)
O35 O 0.5183(4) 0.3237(5) 0.3611(3)
As4 As 0.67765(6) 0.34763(5) 0.18066(4)
N12 N 0.5600(5) 0.5666(5) 0.0262(4)
O36 O 0.7639(3) 0.3508(3) 0.1672(2)
O37 O 0.6494(3) 0.2669(3) 0.1686(3)
O38 O 0.6612(3) 0.3693(3) 0.2483(3)
C25 C 0.6333(5) 0.4128(5) 0.1332(4)
C26 C 0.5962(6) 0.4662(6) 0.1559(5)
H19 H 0.588867 0.468246 0.194567
C27 C 0.5693(6) 0.5173(7) 0.1210(5)
H20 H 0.543566 0.553825 0.135621
C28 C 0.5819(6) 0.5122(6) 0.0640(5)
C29 C 0.6179(7) 0.4608(7) 0.0409(6)
H21 H 0.626726 0.460456 0.002427
C30 C 0.6429(6) 0.4062(6) 0.0760(5)
H22 H 0.664740 0.367650 0.060790
C31 C 0.5170(7) 0.6192(7) 0.0382(6)
H23 H 0.495009 0.625296 0.072661
Mo10 Mo 0.82602(6) 0.30745(5) 0.09553(4)
Mo11 Mo 0.95037(5) 0.28804(5) 0.19486(4)
Mo12 Mo 0.93103(5) 0.15383(5) 0.30597(4)
O39 O 0.8880(5) 0.2651(5) 0.0578(3)
O40 O 0.8062(4) 0.3771(4) 0.0551(3)
O41 O 0.8935(4) 0.3564(4) 0.1481(3)
O42 O 0.9926(4) 0.2492(5) 0.1409(4)
O44 O 0.9561(4) 0.2198(4) 0.2510(3)
O45 O 0.9694(4) 0.0810(4) 0.2817(3)
O46 O 0.9817(4) 0.1763(5) 0.3611(3)
Cu3 Cu 0.96427(12) 0.250000 0.000000
Cu4 Cu 0.53573(12) 0.250000 0.000000
Cu5 Cu 0.750000 0.46427(12) 0.500000
Cu6 Cu 0.750000 0.03573(12) 0.500000
Cu8 Cu 0.46427(12) 0.750000 0.000000
N14 N 0.1598(6) 0.0101(6) 0.4963(5)
N10 N 0.5101(6) 0.6598(6) 0.9963(5)
N11 N 0.5499(8) 0.6319(8) 0.9497(7)
C32 C 0.5770(10) 0.5753(10) 0.9678(8)
H24 H 0.603454 0.544859 0.946461
Cu3_2 Cu 0.96427(12) 0.250000 1.000000
Cu4_2 Cu 0.53573(12) 0.250000 1.000000
Cu8_2 Cu 0.46427(12) 0.750000 1.000000
O8 O 0.8458(4) 0.9895(4) 0.2828(4)
H11 H 0.374704 0.995009 0.427339
N9 N 0.9400(5) 0.9334(5) 0.0262(4)
C19 C 0.9307(6) 0.9827(7) 0.1210(5)
H14 H 0.956434 0.946175 0.135621
C20 C 0.9181(6) 0.9878(6) 0.0640(5)
C23 C 0.9830(7) 0.8808(7) 0.0382(6)
Cu2 Cu 0.250000 0.96427(12) 0.500000
O47 O 0.2349(5) 0.8880(5) 0.5578(3)
O49 O 0.2651(5) 0.8880(5) 0.4422(3)
N7 N 0.9899(6) 0.8402(6) 0.9963(5)
N8 N 0.9501(8) 0.8681(8) 0.9497(7)
C24 C 0.9230(10) 0.9247(10) 0.9678(8)
H18 H 0.896546 0.955141 0.946461
N1_2 N 0.0101(6) 0.1598(6) 0.0037(5)
N2_2 N 0.0499(8) 0.1319(8) 0.0503(7)
C8_2 C 0.0770(10) 0.0753(10) 0.0322(8)
H6_2 H 0.103454 0.044859 0.053539
N3_2 N 0.0600(5) 0.0666(5) 0.9738(4)
C3_2 C 0.0693(6) 0.0173(7) 0.8790(5)
H2_2 H 0.043566 0.053825 0.864379
C4_2 C 0.0819(6) 0.0122(6) 0.9360(5)
C7_2 C 0.0170(7) 0.1192(7) 0.9618(6)
H17_2 H 0.625296 0.004991 0.572661
O43_2 O 0.1542(4) 0.0105(4) 0.7172(4)
N13_2 N 0.0101(6) 0.3402(6) 0.9963(5)
N4_2 N 0.4899(6) 0.3402(6) 0.0037(5)
N5_2 N 0.4501(8) 0.3681(8) 0.0503(7)
C16_2 C 0.4230(10) 0.4247(10) 0.0322(8)
H12_2 H 0.396546 0.455141 0.053539
Mo1_2 Mo 0.32602(6) 0.80745(5) 0.90447(4)
Mo2_2 Mo 0.45037(5) 0.78804(5) 0.80514(4)
Mo3_2 Mo 0.43103(5) 0.65383(5) 0.69403(4)
As1_2 As 0.17765(6) 0.84763(5) 0.81934(4)
O1_2 O 0.3880(5) 0.7651(5) 0.9422(3)
O2_2 O 0.3062(4) 0.8771(4) 0.9449(3)
O3_2 O 0.250000 0.750000 0.9174(4)
O4_2 O 0.3935(4) 0.8564(4) 0.8519(3)
O5_2 O 0.2639(3) 0.8508(3) 0.8328(2)
O6_2 O 0.1494(3) 0.7669(3) 0.8314(3)
O7_2 O 0.4926(4) 0.7492(5) 0.8591(4)
O8_2 O 0.5105(4) 0.8458(4) 0.7828(4)
O9_2 O 0.4561(4) 0.7198(4) 0.7490(3)
O10_2 O 0.1612(3) 0.8693(3) 0.7517(3)
O11_2 O 0.4694(4) 0.5810(4) 0.7183(3)
O12_2 O 0.4817(4) 0.6763(5) 0.6389(3)
C1_2 C 0.1333(5) 0.9128(5) 0.8668(4)
C2_2 C 0.0962(6) 0.9662(6) 0.8441(5)
H1_2 H 0.088867 0.968246 0.805433
C5_2 C 0.1179(7) 0.9608(7) 0.9591(6)
H3_2 H 0.126726 0.960456 0.997573
C6_2 C 0.1429(6) 0.9062(6) 0.9240(5)
H4_2 H 0.164740 0.867650 0.939210
As2_2 As 0.32235(6) 0.65237(5) 0.81934(4)
N6_2 N 0.4400(5) 0.4334(5) 0.9738(4)
O13_2 O 0.2361(3) 0.6492(3) 0.8328(2)
O14_2 O 0.3506(3) 0.7331(3) 0.8314(3)
O15_2 O 0.3388(3) 0.6307(3) 0.7517(3)
C9_2 C 0.3667(5) 0.5872(5) 0.8668(4)
C10_2 C 0.4038(6) 0.5338(6) 0.8441(5)
H7_2 H 0.411133 0.531754 0.805433
C11_2 C 0.4307(6) 0.4827(7) 0.8790(5)
H8_2 H 0.456434 0.446175 0.864379
C12_2 C 0.4181(6) 0.4878(6) 0.9360(5)
C13_2 C 0.3821(7) 0.5392(7) 0.9591(6)
H9_2 H 0.373274 0.539544 0.997573
C14_2 C 0.3571(6) 0.5938(6) 0.9240(5)
H10_2 H 0.335260 0.632350 0.939210
C15_2 C 0.4830(7) 0.3808(7) 0.9618(6)
H11_2 H 0.504991 0.374704 0.927339
Mo4_2 Mo 0.17398(6) 0.69255(5) 0.90447(4)
Mo5_2 Mo 0.04963(5) 0.71196(5) 0.80514(4)
Mo6_2 Mo 0.06897(5) 0.84617(5) 0.69403(4)
O16_2 O 0.1120(5) 0.7349(5) 0.9422(3)
O17_2 O 0.1938(4) 0.6229(4) 0.9449(3)
O18_2 O 0.1065(4) 0.6436(4) 0.8519(3)
O19_2 O 0.0074(4) 0.7508(5) 0.8591(4)
O21_2 O 0.0439(4) 0.7802(4) 0.7490(3)
O22_2 O 0.0306(4) 0.9190(4) 0.7183(3)
O23_2 O 0.0183(4) 0.8237(5) 0.6389(3)
As3_2 As 0.34763(5) 0.82235(6) 0.68066(4)
N7_2 N 0.6598(6) 0.9899(6) 0.4963(5)
N8_2 N 0.6319(8) 0.9501(8) 0.4497(7)
N9_2 N 0.5666(5) 0.9400(5) 0.5262(4)
O24_2 O 0.3508(3) 0.7361(3) 0.6672(2)
O25_2 O 0.2669(3) 0.8506(3) 0.6686(3)
O26_2 O 0.3693(3) 0.8388(3) 0.7483(3)
C17_2 C 0.4128(5) 0.8667(5) 0.6332(4)
C18_2 C 0.4662(6) 0.9038(6) 0.6559(5)
H13_2 H 0.468246 0.911133 0.694567
C19_2 C 0.5173(7) 0.9307(6) 0.6210(5)
H14_2 H 0.553825 0.956434 0.635621
C20_2 C 0.5122(6) 0.9181(6) 0.5640(5)
C21_2 C 0.4608(7) 0.8821(7) 0.5409(6)
H15_2 H 0.460456 0.873274 0.502427
C22_2 C 0.4062(6) 0.8571(6) 0.5760(5)
H16_2 H 0.367650 0.835260 0.560790
C23_2 C 0.6192(7) 0.9830(7) 0.5382(6)
C24_2 C 0.5753(10) 0.9230(10) 0.4678(8)
H18_2 H 0.544859 0.896546 0.446461
Mo7_2 Mo 0.30745(5) 0.67398(6) 0.59553(4)
Mo8_2 Mo 0.28804(5) 0.54963(5) 0.69486(4)
Mo9_2 Mo 0.15383(5) 0.56897(5) 0.80597(4)
O28_2 O 0.3771(4) 0.6938(4) 0.5551(3)
O29_2 O 0.250000 0.750000 0.5826(4)
O30_2 O 0.3564(4) 0.6065(4) 0.6481(3)
O31_2 O 0.2492(5) 0.5074(4) 0.6409(4)
O32_2 O 0.3458(4) 0.4895(4) 0.7172(4)
O33_2 O 0.2198(4) 0.5439(4) 0.7510(3)
O34_2 O 0.0810(4) 0.5306(4) 0.7817(3)
O35_2 O 0.1763(5) 0.5183(4) 0.8611(3)
As4_2 As 0.15237(5) 0.67765(6) 0.68066(4)
O36_2 O 0.1492(3) 0.7639(3) 0.6672(2)
O37_2 O 0.2331(3) 0.6494(3) 0.6686(3)
O38_2 O 0.1307(3) 0.6612(3) 0.7483(3)
C25_2 C 0.0872(5) 0.6333(5) 0.6332(4)
C26_2 C 0.0338(6) 0.5962(6) 0.6559(5)
H19_2 H 0.031754 0.588867 0.694567
C29_2 C 0.0392(7) 0.6179(7) 0.5409(6)
H21_2 H 0.039544 0.626726 0.502427
C30_2 C 0.0938(6) 0.6429(6) 0.5760(5)
H22_2 H 0.132350 0.664740 0.560790
Mo10_2 Mo 0.19255(5) 0.82602(6) 0.59553(4)
Mo11_2 Mo 0.21196(5) 0.95037(5) 0.69486(4)
Mo12_2 Mo 0.34617(5) 0.93103(5) 0.80597(4)
O40_2 O 0.1229(4) 0.8062(4) 0.5551(3)
O41_2 O 0.1436(4) 0.8935(4) 0.6481(3)
O42_2 O 0.2508(5) 0.9926(4) 0.6409(4)
O44_2 O 0.2802(4) 0.9561(4) 0.7510(3)
O45_2 O 0.4190(4) 0.9694(4) 0.7817(3)
O46_2 O 0.3237(5) 0.9817(4) 0.8611(3)
N14_2 N 0.4899(6) 0.1598(6) 0.9963(5)
O49_2 O 0.6120(5) 0.2651(5) 0.9422(3)
H5_2 H 0.995009 0.125296 0.927339
O50_2 O 0.8880(5) 0.2349(5) 0.9422(3)
O20_2 O 0.9895(4) 0.6542(4) 0.7828(4)
N10_2 N 0.8402(6) 0.5101(6) 0.4963(5)
N11_2 N 0.8681(8) 0.5499(8) 0.4497(7)
N12_2 N 0.9334(5) 0.5600(5) 0.5262(4)
C27_2 C 0.9827(7) 0.5693(6) 0.6210(5)
H20_2 H 0.946175 0.543566 0.635621
C28_2 C 0.9878(6) 0.5819(6) 0.5640(5)
C31_2 C 0.8808(7) 0.5170(7) 0.5382(6)
H23_2 H 0.874704 0.495009 0.572661
C32_2 C 0.9247(10) 0.5770(10) 0.4678(8)
H24_2 H 0.955141 0.603454 0.446461
N5_3 N 0.1319(8) 0.0499(8) 0.4497(7)
N6_3 N 0.0666(5) 0.0600(5) 0.5262(4)
C11_3 C 0.0173(7) 0.0693(6) 0.6210(5)
H8_3 H 0.053825 0.043566 0.635621
C12_3 C 0.0122(6) 0.0819(6) 0.5640(5)
C15_3 C 0.1192(7) 0.0170(7) 0.5382(6)
C16_3 C 0.0753(10) 0.0770(10) 0.4678(8)
H12_3 H 0.044859 0.103454 0.446461
O32_3 O 0.0105(4) 0.1542(4) 0.7828(4)
H23_3 H 0.004991 0.625296 0.927339
H11_3 H 0.125296 0.995009 0.572661
N10_3 N 0.9899(6) 0.6598(6) 0.0037(5)
N11_3 N 0.9501(8) 0.6319(8) 0.0503(7)
C32_3 C 0.9230(10) 0.5753(10) 0.0322(8)
H24_3 H 0.896546 0.544859 0.053539
Mo1_3 Mo 0.69255(5) 0.17398(6) 0.59553(4)
Mo2_3 Mo 0.71196(5) 0.04963(5) 0.69486(4)
Mo3_3 Mo 0.84617(5) 0.06897(5) 0.80597(4)
As1_3 As 0.65237(5) 0.32235(6) 0.68066(4)
N2_3 N 0.3681(8) 0.4501(8) 0.4497(7)
N3_3 N 0.4334(5) 0.4400(5) 0.5262(4)
O1_3 O 0.7349(5) 0.1120(5) 0.5578(3)
O2_3 O 0.6229(4) 0.1938(4) 0.5551(3)
O3_3 O 0.750000 0.250000 0.5826(4)
O4_3 O 0.6436(4) 0.1065(4) 0.6481(3)
O5_3 O 0.6492(3) 0.2361(3) 0.6672(2)
O6_3 O 0.7331(3) 0.3506(3) 0.6686(3)
O7_3 O 0.7508(5) 0.0074(4) 0.6409(4)
O9_3 O 0.7802(4) 0.0439(4) 0.7510(3)
O10_3 O 0.6307(3) 0.3388(3) 0.7483(3)
O11_3 O 0.9190(4) 0.0306(4) 0.7817(3)
O12_3 O 0.8237(5) 0.0183(4) 0.8611(3)
C1_3 C 0.5872(5) 0.3667(5) 0.6332(4)
C2_3 C 0.5338(6) 0.4038(6) 0.6559(5)
H1_3 H 0.531754 0.411133 0.694567
C3_3 C 0.4827(7) 0.4307(6) 0.6210(5)
H2_3 H 0.446175 0.456434 0.635621
C4_3 C 0.4878(6) 0.4181(6) 0.5640(5)
C5_3 C 0.5392(7) 0.3821(7) 0.5409(6)
H3_3 H 0.539544 0.373274 0.502427
C6_3 C 0.5938(6) 0.3571(6) 0.5760(5)
H4_3 H 0.632350 0.335260 0.560790
C7_3 C 0.3808(7) 0.4830(7) 0.5382(6)
H5_3 H 0.374704 0.504991 0.572661
C8_3 C 0.4247(10) 0.4230(10) 0.4678(8)
H6_3 H 0.455141 0.396546 0.446461
As2_3 As 0.84763(5) 0.17765(6) 0.68066(4)
O13_3 O 0.8508(3) 0.2639(3) 0.6672(2)
O14_3 O 0.7669(3) 0.1494(3) 0.6686(3)
O15_3 O 0.8693(3) 0.1612(3) 0.7483(3)
C9_3 C 0.9128(5) 0.1333(5) 0.6332(4)
C10_3 C 0.9662(6) 0.0962(6) 0.6559(5)
H7_3 H 0.968246 0.088867 0.694567
C13_3 C 0.9608(7) 0.1179(7) 0.5409(6)
H9_3 H 0.960456 0.126726 0.502427
C14_3 C 0.9062(6) 0.1429(6) 0.5760(5)
H10_3 H 0.867650 0.164740 0.560790
Mo4_3 Mo 0.80745(5) 0.32602(6) 0.59553(4)
Mo5_3 Mo 0.78804(5) 0.45037(5) 0.69486(4)
Mo6_3 Mo 0.65383(5) 0.43103(5) 0.80597(4)
O16_3 O 0.7651(5) 0.3880(5) 0.5578(3)
O17_3 O 0.8771(4) 0.3062(4) 0.5551(3)
O18_3 O 0.8564(4) 0.3935(4) 0.6481(3)
O19_3 O 0.7492(5) 0.4926(4) 0.6409(4)
O20_3 O 0.8458(4) 0.5105(4) 0.7172(4)
O21_3 O 0.7198(4) 0.4561(4) 0.7510(3)
O22_3 O 0.5810(4) 0.4694(4) 0.7817(3)
O23_3 O 0.6763(5) 0.4817(4) 0.8611(3)
As3_3 As 0.67765(6) 0.15237(5) 0.81934(4)
O24_3 O 0.7639(3) 0.1492(3) 0.8328(2)
O25_3 O 0.6494(3) 0.2331(3) 0.8314(3)
O26_3 O 0.6612(3) 0.1307(3) 0.7517(3)
C17_3 C 0.6333(5) 0.0872(5) 0.8668(4)
C18_3 C 0.5962(6) 0.0338(6) 0.8441(5)
H13_3 H 0.588867 0.031754 0.805433
C21_3 C 0.6179(7) 0.0392(7) 0.9591(6)
H15_3 H 0.626726 0.039544 0.997573
C22_3 C 0.6429(6) 0.0938(6) 0.9240(5)
H16_3 H 0.664740 0.132350 0.939210
Mo7_3 Mo 0.82602(6) 0.19255(5) 0.90447(4)
Mo8_3 Mo 0.95037(5) 0.21196(5) 0.80514(4)
Mo9_3 Mo 0.93103(5) 0.34617(5) 0.69403(4)
O28_3 O 0.8062(4) 0.1229(4) 0.9449(3)
O29_3 O 0.750000 0.250000 0.9174(4)
O30_3 O 0.8935(4) 0.1436(4) 0.8519(3)
O31_3 O 0.9926(4) 0.2508(5) 0.8591(4)
O33_3 O 0.9561(4) 0.2802(4) 0.7490(3)
O34_3 O 0.9694(4) 0.4190(4) 0.7183(3)
O35_3 O 0.9817(4) 0.3237(5) 0.6389(3)
As4_3 As 0.82235(6) 0.34763(5) 0.81934(4)
N12_3 N 0.9400(5) 0.5666(5) 0.9738(4)
O36_3 O 0.7361(3) 0.3508(3) 0.8328(2)
O37_3 O 0.8506(3) 0.2669(3) 0.8314(3)
O38_3 O 0.8388(3) 0.3693(3) 0.7517(3)
C25_3 C 0.8667(5) 0.4128(5) 0.8668(4)
C26_3 C 0.9038(6) 0.4662(6) 0.8441(5)
H19_3 H 0.911133 0.468246 0.805433
C27_3 C 0.9307(6) 0.5173(7) 0.8790(5)
H20_3 H 0.956434 0.553825 0.864379
C28_3 C 0.9181(6) 0.5122(6) 0.9360(5)
C29_3 C 0.8821(7) 0.4608(7) 0.9591(6)
H21_3 H 0.873274 0.460456 0.997573
C30_3 C 0.8571(6) 0.4062(6) 0.9240(5)
H22_3 H 0.835260 0.367650 0.939210
C31_3 C 0.9830(7) 0.6192(7) 0.9618(6)
Mo10_3 Mo 0.67398(6) 0.30745(5) 0.90447(4)
Mo11_3 Mo 0.54963(5) 0.28804(5) 0.80514(4)
Mo12_3 Mo 0.56897(5) 0.15383(5) 0.69403(4)
O40_3 O 0.6938(4) 0.3771(4) 0.9449(3)
O41_3 O 0.6065(4) 0.3564(4) 0.8519(3)
O42_3 O 0.5074(4) 0.2492(5) 0.8591(4)
O43_3 O 0.4895(4) 0.3458(4) 0.7828(4)
O44_3 O 0.5439(4) 0.2198(4) 0.7490(3)
O45_3 O 0.5306(4) 0.0810(4) 0.7183(3)
O46_3 O 0.5183(4) 0.1763(5) 0.6389(3)
N7_3 N 0.5101(6) 0.8402(6) 0.0037(5)
N8_3 N 0.5499(8) 0.8681(8) 0.0503(7)
C24_3 C 0.5770(10) 0.9247(10) 0.0322(8)
H18_3 H 0.603454 0.955141 0.053539
O8_3 O 0.6542(4) 0.9895(4) 0.7172(4)
N9_3 N 0.5600(5) 0.9334(5) 0.9738(4)
C19_3 C 0.5693(6) 0.9827(7) 0.8790(5)
H14_3 H 0.543566 0.946175 0.864379
C20_3 C 0.5819(6) 0.9878(6) 0.9360(5)
C23_3 C 0.5170(7) 0.8808(7) 0.9618(6)
H17_3 H 0.495009 0.874704 0.927339
N3_4 N 0.4400(5) 0.0666(5) 0.0262(4)
C3_4 C 0.4307(6) 0.0173(7) 0.1210(5)
H2_4 H 0.456434 0.053825 0.135621
C4_4 C 0.4181(6) 0.0122(6) 0.0640(5)
C7_4 C 0.4830(7) 0.1192(7) 0.0382(6)
H5_4 H 0.504991 0.125296 0.072661
O43_4 O 0.3458(4) 0.0105(4) 0.2828(4)
N2_4 N 0.4501(8) 0.1319(8) 0.9497(7)
C8_4 C 0.4230(10) 0.0753(10) 0.9678(8)
H6_4 H 0.396546 0.044859 0.946461
Mo1_4 Mo 0.17398(6) 0.80745(5) 0.09553(4)
Mo2_4 Mo 0.04963(5) 0.78804(5) 0.19486(4)
Mo3_4 Mo 0.06897(5) 0.65383(5) 0.30597(4)
As1_4 As 0.32235(6) 0.84763(5) 0.18066(4)
O1_4 O 0.1120(5) 0.7651(5) 0.0578(3)
O2_4 O 0.1938(4) 0.8771(4) 0.0551(3)
O3_4 O 0.250000 0.750000 0.0826(4)
O4_4 O 0.1065(4) 0.8564(4) 0.1481(3)
O5_4 O 0.2361(3) 0.8508(3) 0.1672(2)
O6_4 O 0.3506(3) 0.7669(3) 0.1686(3)
O7_4 O 0.0074(4) 0.7492(5) 0.1409(4)
O9_4 O 0.0439(4) 0.7198(4) 0.2510(3)
O10_4 O 0.3388(3) 0.8693(3) 0.2483(3)
O11_4 O 0.0306(4) 0.5810(4) 0.2817(3)
O12_4 O 0.0183(4) 0.6763(5) 0.3611(3)
C1_4 C 0.3667(5) 0.9128(5) 0.1332(4)
C2_4 C 0.4038(6) 0.9662(6) 0.1559(5)
H1_4 H 0.411133 0.968246 0.194567
C5_4 C 0.3821(7) 0.9608(7) 0.0409(6)
H3_4 H 0.373274 0.960456 0.002427
C6_4 C 0.3571(6) 0.9062(6) 0.0760(5)
H4_4 H 0.335260 0.867650 0.060790
As2_4 As 0.17765(6) 0.65237(5) 0.18066(4)
N6_4 N 0.0600(5) 0.4334(5) 0.0262(4)
O13_4 O 0.2639(3) 0.6492(3) 0.1672(2)
O14_4 O 0.1494(3) 0.7331(3) 0.1686(3)
O15_4 O 0.1612(3) 0.6307(3) 0.2483(3)
C9_4 C 0.1333(5) 0.5872(5) 0.1332(4)
C10_4 C 0.0962(6) 0.5338(6) 0.1559(5)
H7_4 H 0.088867 0.531754 0.194567
C11_4 C 0.0693(6) 0.4827(7) 0.1210(5)
H8_4 H 0.043566 0.446175 0.135621
C12_4 C 0.0819(6) 0.4878(6) 0.0640(5)
C13_4 C 0.1179(7) 0.5392(7) 0.0409(6)
H9_4 H 0.126726 0.539544 0.002427
C14_4 C 0.1429(6) 0.5938(6) 0.0760(5)
H10_4 H 0.164740 0.632350 0.060790
C15_4 C 0.0170(7) 0.3808(7) 0.0382(6)
Mo4_4 Mo 0.32602(6) 0.69255(5) 0.09553(4)
Mo5_4 Mo 0.45037(5) 0.71196(5) 0.19486(4)
Mo6_4 Mo 0.43103(5) 0.84617(5) 0.30597(4)
O16_4 O 0.3880(5) 0.7349(5) 0.0578(3)
O17_4 O 0.3062(4) 0.6229(4) 0.0551(3)
O18_4 O 0.3935(4) 0.6436(4) 0.1481(3)
O19_4 O 0.4926(4) 0.7508(5) 0.1409(4)
O20_4 O 0.5105(4) 0.6542(4) 0.2172(4)
O21_4 O 0.4561(4) 0.7802(4) 0.2510(3)
O22_4 O 0.4694(4) 0.9190(4) 0.2817(3)
O23_4 O 0.4817(4) 0.8237(5) 0.3611(3)
As3_4 As 0.15237(5) 0.82235(6) 0.31934(4)
O24_4 O 0.1492(3) 0.7361(3) 0.3328(2)
O25_4 O 0.2331(3) 0.8506(3) 0.3314(3)
O26_4 O 0.1307(3) 0.8388(3) 0.2517(3)
C17_4 C 0.0872(5) 0.8667(5) 0.3668(4)
C18_4 C 0.0338(6) 0.9038(6) 0.3441(5)
H13_4 H 0.031754 0.911133 0.305433
C21_4 C 0.0392(7) 0.8821(7) 0.4591(6)
H15_4 H 0.039544 0.873274 0.497573
C22_4 C 0.0938(6) 0.8571(6) 0.4240(5)
H16_4 H 0.132350 0.835260 0.439210
Mo7_4 Mo 0.19255(5) 0.67398(6) 0.40447(4)
Mo8_4 Mo 0.21196(5) 0.54963(5) 0.30514(4)
Mo9_4 Mo 0.34617(5) 0.56897(5) 0.19403(4)
O28_4 O 0.1229(4) 0.6938(4) 0.4449(3)
O29_4 O 0.250000 0.750000 0.4174(4)
O30_4 O 0.1436(4) 0.6065(4) 0.3519(3)
O31_4 O 0.2508(5) 0.5074(4) 0.3591(4)
O32_4 O 0.1542(4) 0.4895(4) 0.2828(4)
O33_4 O 0.2802(4) 0.5439(4) 0.2490(3)
O34_4 O 0.4190(4) 0.5306(4) 0.2183(3)
O35_4 O 0.3237(5) 0.5183(4) 0.1389(3)
As4_4 As 0.34763(5) 0.67765(6) 0.31934(4)
N10_4 N 0.6598(6) 0.5101(6) 0.5037(5)
N11_4 N 0.6319(8) 0.5499(8) 0.5503(7)
N12_4 N 0.5666(5) 0.5600(5) 0.4738(4)
O36_4 O 0.3508(3) 0.7639(3) 0.3328(2)
O37_4 O 0.2669(3) 0.6494(3) 0.3314(3)
O38_4 O 0.3693(3) 0.6612(3) 0.2517(3)
C25_4 C 0.4128(5) 0.6333(5) 0.3668(4)
C26_4 C 0.4662(6) 0.5962(6) 0.3441(5)
H19_4 H 0.468246 0.588867 0.305433
C27_4 C 0.5173(7) 0.5693(6) 0.3790(5)
H20_4 H 0.553825 0.543566 0.364379
C28_4 C 0.5122(6) 0.5819(6) 0.4360(5)
C29_4 C 0.4608(7) 0.6179(7) 0.4591(6)
H21_4 H 0.460456 0.626726 0.497573
C30_4 C 0.4062(6) 0.6429(6) 0.4240(5)
H22_4 H 0.367650 0.664740 0.439210
C31_4 C 0.6192(7) 0.5170(7) 0.4618(6)
H23_4 H 0.625296 0.495009 0.427339
C32_4 C 0.5753(10) 0.5770(10) 0.5322(8)
H24_4 H 0.544859 0.603454 0.553539
Mo10_4 Mo 0.30745(5) 0.82602(6) 0.40447(4)
Mo11_4 Mo 0.28804(5) 0.95037(5) 0.30514(4)
Mo12_4 Mo 0.15383(5) 0.93103(5) 0.19403(4)
O40_4 O 0.3771(4) 0.8062(4) 0.4449(3)
O41_4 O 0.3564(4) 0.8935(4) 0.3519(3)
O42_4 O 0.2492(5) 0.9926(4) 0.3591(4)
O44_4 O 0.2198(4) 0.9561(4) 0.2490(3)
O45_4 O 0.0810(4) 0.9694(4) 0.2183(3)
O46_4 O 0.1763(5) 0.9817(4) 0.1389(3)
N5_4 N 0.0499(8) 0.3681(8) 0.9497(7)
C16_4 C 0.0770(10) 0.4247(10) 0.9678(8)
H12_4 H 0.103454 0.455141 0.946461
H17_4 H 0.874704 0.004991 0.427339
O8_4 O 0.9895(4) 0.8458(4) 0.2172(4)
H11_4 H 0.995009 0.374704 0.072661
N7_4 N 0.8402(6) 0.9899(6) 0.5037(5)
N8_4 N 0.8681(8) 0.9501(8) 0.5503(7)
N9_4 N 0.9334(5) 0.9400(5) 0.4738(4)
C19_4 C 0.9827(7) 0.9307(6) 0.3790(5)
H14_4 H 0.946175 0.956434 0.364379
C20_4 C 0.9878(6) 0.9181(6) 0.4360(5)
C23_4 C 0.8808(7) 0.9830(7) 0.4618(6)
C24_4 C 0.9247(10) 0.9230(10) 0.5322(8)
H18_4 H 0.955141 0.896546 0.553539
loop_
_geom_bond_atom_site_label_1
_geom_bond_atom_site_label_2
_geom_bond_site_symmetry_1
_geom_bond_site_symmetry_2
Cu1 N1 1_555 1_555
N1 N2 1_555 1_555
N2 C8 1_555 1_555
N3 C4 1_555 1_555
H2 C3 1_555 1_555
C4 C3 1_555 1_555
C7 N1 1_555 1_555
H5 C7 1_555 1_555
C8 N3 1_555 1_555
H6 C8 1_555 1_555
N13 Cu1 1_555 1_555
O48 Cu1 1_555 1_555
O50 Cu1 1_555 1_555
N3 C7 1_555 1_555
Mo1 O1 1_555 1_555
Mo2 O4 1_555 1_555
Mo3 O9 1_555 1_555
As1 O5 1_555 1_555
O1 Cu6 1_555 1_555
O2 Mo1 1_555 1_555
O3 Mo1 1_555 1_555
O4 Mo1 1_555 1_555
O5 Mo1 1_555 1_555
O6 As1 1_555 1_555
O7 Mo2 1_555 1_555
O9 Mo2 1_555 1_555
O10 As1 1_555 1_555
O11 Mo3 1_555 1_555
O12 Mo3 1_555 1_555
C1 As1 1_555 1_555
C2 C1 1_555 1_555
H1 C2 1_555 1_555
H3 C5 1_555 1_555
C6 C1 1_555 1_555
H4 C6 1_555 1_555
As2 O13 1_555 1_555
N4 N5 1_555 1_555
N5 C16 1_555 1_555
N6 C12 1_555 1_555
O13 Mo4 1_555 1_555
O14 Mo1 1_555 1_555
O15 Mo3 1_555 1_555
C9 As2 1_555 1_555
C10 C9 1_555 1_555
H7 C10 1_555 1_555
C11 C10 1_555 1_555
H8 C11 1_555 1_555
C12 C11 1_555 1_555
C13 C12 1_555 1_555
H9 C13 1_555 1_555
C14 C9 1_555 1_555
H10 C14 1_555 1_555
C15 N4 1_555 1_555
C16 N6 1_555 1_555
H12 C16 1_555 1_555
Mo4 O3 1_555 1_555
Mo5 O6 1_555 1_555
Mo6 O10 1_555 1_555
O16 Mo4 1_555 1_555
O17 Mo4 1_555 1_555
O18 Mo4 1_555 1_555
O19 Mo5 1_555 1_555
O20 Mo5 1_555 1_555
O21 Mo5 1_555 1_555
O22 Mo6 1_555 1_555
O23 Mo6 1_555 1_555
As3 O24 1_555 1_555
O24 Mo3 1_555 1_555
O25 As3 1_555 1_555
O26 Mo2 1_555 1_555
C17 As3 1_555 1_555
C18 C17 1_555 1_555
H13 C18 1_555 1_555
H15 C21 1_555 1_555
C22 C17 1_555 1_555
H16 C22 1_555 1_555
Mo7 O24 1_555 1_555
Mo8 O15 1_555 1_555
Mo9 O13 1_555 1_555
O27 Mo7 1_555 1_555
O28 Mo7 1_555 1_555
O29 Mo7 1_555 1_555
O30 Mo3 1_555 1_555
O31 Mo8 1_555 1_555
O32 Mo8 1_555 1_555
O33 Mo8 1_555 1_555
O34 Mo9 1_555 1_555
O35 Mo9 1_555 1_555
As4 O36 1_555 1_555
N12 C28 1_555 1_555
O36 Mo6 1_555 1_555
O37 Mo7 1_555 1_555
O38 Mo5 1_555 1_555
C25 As4 1_555 1_555
C26 C25 1_555 1_555
H19 C26 1_555 1_555
C27 C26 1_555 1_555
H20 C27 1_555 1_555
C28 C27 1_555 1_555
C29 C28 1_555 1_555
H21 C29 1_555 1_555
C30 C25 1_555 1_555
H22 C30 1_555 1_555
H23 C31 1_555 1_555
Mo10 O25 1_555 1_555
Mo11 O10 1_555 1_555
Mo12 O4 1_555 1_555
O39 Mo10 1_555 1_555
O40 Mo10 1_555 1_555
O41 Mo6 1_555 1_555
O42 Mo11 1_555 1_555
O44 Mo11 1_555 1_555
O45 Mo12 1_555 1_555
O46 Mo12 1_555 1_555
Cu3 O39 1_555 1_555
Cu4 O27 1_555 1_555
Cu5 O16 1_555 1_555
Mo2 O14 1_555 1_555
O5 Mo12 1_555 1_555
O6 Mo4 1_555 1_555
C5 C6 1_555 1_555
As2 O14 1_555 1_555
As2 O15 1_555 1_555
N6 C15 1_555 1_555
C13 C14 1_555 1_555
Mo5 O18 1_555 1_555
Mo6 O21 1_555 1_555
O18 Mo9 1_555 1_555
As3 O26 1_555 1_555
O25 Mo11 1_555 1_555
O26 Mo12 1_555 1_555
C21 C22 1_555 1_555
Mo7 O30 1_555 1_555
Mo8 O30 1_555 1_555
Mo8 O37 1_555 1_555
Mo9 O33 1_555 1_555
Mo9 O38 1_555 1_555
O29 Mo10 1_555 1_555
As4 O37 1_555 1_555
As4 O38 1_555 1_555
N12 C31 1_555 1_555
O36 Mo10 1_555 1_555
C29 C30 1_555 1_555
Mo10 O41 1_555 1_555
Mo11 O41 1_555 1_555
Mo12 O44 1_555 1_555
N10 N11 1_555 1_555
N11 C32 1_555 1_555
H24 C32 1_555 1_555
Cu8_2 N10 1_555 1_555
N9 C20 1_555 1_555
H14 C19 1_555 1_555
C20 C19 1_555 1_555
O47 Cu2 1_555 1_555
O49 Cu2 1_555 1_555
N9 C23 1_555 1_555
N7 N8 1_555 1_555
N8 C24 1_555 1_555
H18 C24 1_555 1_555
N1_2 N2_2 1_555 1_555
N2_2 C8_2 1_555 1_555
H6_2 C8_2 1_555 1_555
N3_2 C4_2 1_555 1_555
H2_2 C3_2 1_555 1_555
C4_2 C3_2 1_555 1_555
N3_2 C7_2 1_555 1_555
N4_2 N5_2 1_555 1_555
N5_2 C16_2 1_555 1_555
H12_2 C16_2 1_555 1_555
Cu4 N4_2 1_555 1_555
Mo1_2 O1_2 1_555 1_555
Mo2_2 O4_2 1_555 1_555
Mo3_2 O9_2 1_555 1_555
As1_2 O5_2 1_555 1_555
O1_2 Cu8_2 1_555 1_555
O2_2 Mo1_2 1_555 1_555
O3_2 Mo1_2 1_555 1_555
O4_2 Mo1_2 1_555 1_555
O5_2 Mo1_2 1_555 1_555
O6_2 As1_2 1_555 1_555
O7_2 Mo2_2 1_555 1_555
O8_2 Mo2_2 1_555 1_555
O9_2 Mo2_2 1_555 1_555
O10_2 As1_2 1_555 1_555
O11_2 Mo3_2 1_555 1_555
O12_2 Mo3_2 1_555 1_555
C1_2 As1_2 1_555 1_555
C2_2 C1_2 1_555 1_555
H1_2 C2_2 1_555 1_555
H3_2 C5_2 1_555 1_555
C6_2 C1_2 1_555 1_555
H4_2 C6_2 1_555 1_555
As2_2 O13_2 1_555 1_555
N6_2 C12_2 1_555 1_555
O13_2 Mo4_2 1_555 1_555
O14_2 Mo1_2 1_555 1_555
O15_2 Mo3_2 1_555 1_555
C9_2 As2_2 1_555 1_555
C10_2 C9_2 1_555 1_555
H7_2 C10_2 1_555 1_555
C11_2 C10_2 1_555 1_555
H8_2 C11_2 1_555 1_555
C12_2 C11_2 1_555 1_555
C13_2 C12_2 1_555 1_555
H9_2 C13_2 1_555 1_555
C14_2 C9_2 1_555 1_555
H10_2 C14_2 1_555 1_555
H11_2 C15_2 1_555 1_555
Mo4_2 O3_2 1_555 1_555
Mo5_2 O6_2 1_555 1_555
Mo6_2 O10_2 1_555 1_555
O16_2 Mo4_2 1_555 1_555
O17_2 Mo4_2 1_555 1_555
O18_2 Mo4_2 1_555 1_555
O19_2 Mo5_2 1_555 1_555
O21_2 Mo5_2 1_555 1_555
O22_2 Mo6_2 1_555 1_555
O23_2 Mo6_2 1_555 1_555
As3_2 O24_2 1_555 1_555
N7_2 N8_2 1_555 1_555
N8_2 C24_2 1_555 1_555
N9_2 C20_2 1_555 1_555
O24_2 Mo3_2 1_555 1_555
O25_2 As3_2 1_555 1_555
O26_2 Mo2_2 1_555 1_555
C17_2 As3_2 1_555 1_555
C18_2 C17_2 1_555 1_555
H13_2 C18_2 1_555 1_555
C19_2 C18_2 1_555 1_555
H14_2 C19_2 1_555 1_555
C20_2 C19_2 1_555 1_555
C21_2 C20_2 1_555 1_555
H15_2 C21_2 1_555 1_555
C22_2 C17_2 1_555 1_555
H16_2 C22_2 1_555 1_555
C23_2 N7_2 1_555 1_555
C24_2 N9_2 1_555 1_555
H18_2 C24_2 1_555 1_555
Mo7_2 O24_2 1_555 1_555
Mo8_2 O15_2 1_555 1_555
Mo9_2 O13_2 1_555 1_555
O48 Mo7_2 1_555 1_555
O28_2 Mo7_2 1_555 1_555
O29_2 Mo7_2 1_555 1_555
O30_2 Mo3_2 1_555 1_555
O31_2 Mo8_2 1_555 1_555
O32_2 Mo8_2 1_555 1_555
O33_2 Mo8_2 1_555 1_555
O34_2 Mo9_2 1_555 1_555
O35_2 Mo9_2 1_555 1_555
As4_2 O36_2 1_555 1_555
O36_2 Mo6_2 1_555 1_555
O37_2 Mo7_2 1_555 1_555
O38_2 Mo5_2 1_555 1_555
C25_2 As4_2 1_555 1_555
C26_2 C25_2 1_555 1_555
H19_2 C26_2 1_555 1_555
H21_2 C29_2 1_555 1_555
C30_2 C25_2 1_555 1_555
H22_2 C30_2 1_555 1_555
Mo10_2 O25_2 1_555 1_555
Mo11_2 O10_2 1_555 1_555
Mo12_2 O4_2 1_555 1_555
O47 Mo10_2 1_555 1_555
O40_2 Mo10_2 1_555 1_555
O41_2 Mo6_2 1_555 1_555
O42_2 Mo11_2 1_555 1_555
O44_2 Mo11_2 1_555 1_555
O45_2 Mo12_2 1_555 1_555
O46_2 Mo12_2 1_555 1_555
Cu7_2 O16_2 1_555 1_555
N14_2 Cu4_2 1_555 1_555
O49_2 Cu4_2 1_555 1_555
Mo2_2 O14_2 1_555 1_555
O5_2 Mo12_2 1_555 1_555
O6_2 Mo4_2 1_555 1_555
C5_2 C6_2 1_555 1_555
As2_2 O14_2 1_555 1_555
As2_2 O15_2 1_555 1_555
N6_2 C15_2 1_555 1_555
C13_2 C14_2 1_555 1_555
Mo5_2 O18_2 1_555 1_555
Mo6_2 O21_2 1_555 1_555
O18_2 Mo9_2 1_555 1_555
As3_2 O26_2 1_555 1_555
N9_2 C23_2 1_555 1_555
O25_2 Mo11_2 1_555 1_555
O26_2 Mo12_2 1_555 1_555
C21_2 C22_2 1_555 1_555
Mo7_2 O30_2 1_555 1_555
Mo8_2 O30_2 1_555 1_555
Mo8_2 O37_2 1_555 1_555
Mo9_2 O33_2 1_555 1_555
Mo9_2 O38_2 1_555 1_555
O29_2 Mo10_2 1_555 1_555
As4_2 O37_2 1_555 1_555
As4_2 O38_2 1_555 1_555
O36_2 Mo10_2 1_555 1_555
C29_2 C30_2 1_555 1_555
Mo10_2 O41_2 1_555 1_555
Mo11_2 O41_2 1_555 1_555
Mo12_2 O44_2 1_555 1_555
O50_2 Cu3_2 1_555 1_555
N10_2 N11_2 1_555 1_555
N11_2 C32_2 1_555 1_555
N12_2 C28_2 1_555 1_555
H20_2 C27_2 1_555 1_555
C28_2 C27_2 1_555 1_555
C31_2 N10_2 1_555 1_555
H23_2 C31_2 1_555 1_555
C32_2 N12_2 1_555 1_555
H24_2 C32_2 1_555 1_555
Cu5 N10_2 1_555 1_555
N12_2 C31_2 1_555 1_555
N14 N5_3 1_555 1_555
N5_3 C16_3 1_555 1_555
N6_3 C12_3 1_555 1_555
H8_3 C11_3 1_555 1_555
C12_3 C11_3 1_555 1_555
C15_3 N14 1_555 1_555
C16_3 N6_3 1_555 1_555
H12_3 C16_3 1_555 1_555
N6_3 C15_3 1_555 1_555
N10_3 N11_3 1_555 1_555
N11_3 C32_3 1_555 1_555
H24_3 C32_3 1_555 1_555
Mo1_3 O1_3 1_555 1_555
Mo2_3 O4_3 1_555 1_555
Mo3_3 O9_3 1_555 1_555
As1_3 O5_3 1_555 1_555
N13 N2_3 1_555 1_555
N2_3 C8_3 1_555 1_555
N3_3 C4_3 1_555 1_555
O1_3 Cu6 1_555 1_555
O2_3 Mo1_3 1_555 1_555
O3_3 Mo1_3 1_555 1_555
O4_3 Mo1_3 1_555 1_555
O5_3 Mo1_3 1_555 1_555
O6_3 As1_3 1_555 1_555
O7_3 Mo2_3 1_555 1_555
O9_3 Mo2_3 1_555 1_555
O10_3 As1_3 1_555 1_555
O11_3 Mo3_3 1_555 1_555
O12_3 Mo3_3 1_555 1_555
C1_3 As1_3 1_555 1_555
C2_3 C1_3 1_555 1_555
H1_3 C2_3 1_555 1_555
C3_3 C2_3 1_555 1_555
H2_3 C3_3 1_555 1_555
C4_3 C3_3 1_555 1_555
C5_3 C4_3 1_555 1_555
H3_3 C5_3 1_555 1_555
C6_3 C1_3 1_555 1_555
H4_3 C6_3 1_555 1_555
C7_3 N13 1_555 1_555
H5_3 C7_3 1_555 1_555
C8_3 N3_3 1_555 1_555
H6_3 C8_3 1_555 1_555
As2_3 O13_3 1_555 1_555
O13_3 Mo4_3 1_555 1_555
O14_3 Mo1_3 1_555 1_555
O15_3 Mo3_3 1_555 1_555
C9_3 As2_3 1_555 1_555
C10_3 C9_3 1_555 1_555
H7_3 C10_3 1_555 1_555
H9_3 C13_3 1_555 1_555
C14_3 C9_3 1_555 1_555
H10_3 C14_3 1_555 1_555
Mo4_3 O3_3 1_555 1_555
Mo5_3 O6_3 1_555 1_555
Mo6_3 O10_3 1_555 1_555
O16_3 Mo4_3 1_555 1_555
O17_3 Mo4_3 1_555 1_555
O18_3 Mo4_3 1_555 1_555
O19_3 Mo5_3 1_555 1_555
O20_3 Mo5_3 1_555 1_555
O21_3 Mo5_3 1_555 1_555
O22_3 Mo6_3 1_555 1_555
O23_3 Mo6_3 1_555 1_555
As3_3 O24_3 1_555 1_555
O24_3 Mo3_3 1_555 1_555
O25_3 As3_3 1_555 1_555
O26_3 Mo2_3 1_555 1_555
C17_3 As3_3 1_555 1_555
C18_3 C17_3 1_555 1_555
H13_3 C18_3 1_555 1_555
H15_3 C21_3 1_555 1_555
C22_3 C17_3 1_555 1_555
H16_3 C22_3 1_555 1_555
Mo7_3 O24_3 1_555 1_555
Mo8_3 O15_3 1_555 1_555
Mo9_3 O13_3 1_555 1_555
O50_2 Mo7_3 1_555 1_555
O28_3 Mo7_3 1_555 1_555
O29_3 Mo7_3 1_555 1_555
O30_3 Mo3_3 1_555 1_555
O31_3 Mo8_3 1_555 1_555
O33_3 Mo8_3 1_555 1_555
O34_3 Mo9_3 1_555 1_555
O35_3 Mo9_3 1_555 1_555
As4_3 O36_3 1_555 1_555
N12_3 C28_3 1_555 1_555
O36_3 Mo6_3 1_555 1_555
O37_3 Mo7_3 1_555 1_555
O38_3 Mo5_3 1_555 1_555
C25_3 As4_3 1_555 1_555
C26_3 C25_3 1_555 1_555
H19_3 C26_3 1_555 1_555
C27_3 C26_3 1_555 1_555
H20_3 C27_3 1_555 1_555
C28_3 C27_3 1_555 1_555
C29_3 C28_3 1_555 1_555
H21_3 C29_3 1_555 1_555
C30_3 C25_3 1_555 1_555
H22_3 C30_3 1_555 1_555
Mo10_3 O25_3 1_555 1_555
Mo11_3 O10_3 1_555 1_555
Mo12_3 O4_3 1_555 1_555
O49_2 Mo10_3 1_555 1_555
O40_3 Mo10_3 1_555 1_555
O41_3 Mo6_3 1_555 1_555
O42_3 Mo11_3 1_555 1_555
O43_3 Mo11_3 1_555 1_555
O44_3 Mo11_3 1_555 1_555
O45_3 Mo12_3 1_555 1_555
O46_3 Mo12_3 1_555 1_555
Cu5 O16_3 1_555 1_555
Mo2_3 O14_3 1_555 1_555
N3_3 C7_3 1_555 1_555
O5_3 Mo12_3 1_555 1_555
O6_3 Mo4_3 1_555 1_555
C5_3 C6_3 1_555 1_555
As2_3 O14_3 1_555 1_555
As2_3 O15_3 1_555 1_555
C13_3 C14_3 1_555 1_555
Mo5_3 O18_3 1_555 1_555
Mo6_3 O21_3 1_555 1_555
O18_3 Mo9_3 1_555 1_555
As3_3 O26_3 1_555 1_555
O25_3 Mo11_3 1_555 1_555
O26_3 Mo12_3 1_555 1_555
C21_3 C22_3 1_555 1_555
Mo7_3 O30_3 1_555 1_555
Mo8_3 O30_3 1_555 1_555
Mo8_3 O37_3 1_555 1_555
Mo9_3 O33_3 1_555 1_555
Mo9_3 O38_3 1_555 1_555
O29_3 Mo10_3 1_555 1_555
As4_3 O37_3 1_555 1_555
As4_3 O38_3 1_555 1_555
N12_3 C31_3 1_555 1_555
O36_3 Mo10_3 1_555 1_555
C29_3 C30_3 1_555 1_555
Mo10_3 O41_3 1_555 1_555
Mo11_3 O41_3 1_555 1_555
Mo12_3 O44_3 1_555 1_555
N7_3 N8_3 1_555 1_555
N8_3 C24_3 1_555 1_555
H18_3 C24_3 1_555 1_555
Cu8 N7_3 1_555 1_555
N9_3 C20_3 1_555 1_555
H14_3 C19_3 1_555 1_555
C20_3 C19_3 1_555 1_555
H17_3 C23_3 1_555 1_555
N9_3 C23_3 1_555 1_555
N3_4 C4_4 1_555 1_555
H2_4 C3_4 1_555 1_555
C4_4 C3_4 1_555 1_555
H5_4 C7_4 1_555 1_555
N3_4 C7_4 1_555 1_555
N14_2 N2_4 1_555 1_555
N2_4 C8_4 1_555 1_555
H6_4 C8_4 1_555 1_555
Mo1_4 O1_4 1_555 1_555
Mo2_4 O4_4 1_555 1_555
Mo3_4 O9_4 1_555 1_555
As1_4 O5_4 1_555 1_555
O1_4 Cu7 1_555 1_555
O2_4 Mo1_4 1_555 1_555
O3_4 Mo1_4 1_555 1_555
O4_4 Mo1_4 1_555 1_555
O5_4 Mo1_4 1_555 1_555
O6_4 As1_4 1_555 1_555
O7_4 Mo2_4 1_555 1_555
O9_4 Mo2_4 1_555 1_555
O10_4 As1_4 1_555 1_555
O11_4 Mo3_4 1_555 1_555
O12_4 Mo3_4 1_555 1_555
C1_4 As1_4 1_555 1_555
C2_4 C1_4 1_555 1_555
H1_4 C2_4 1_555 1_555
H3_4 C5_4 1_555 1_555
C6_4 C1_4 1_555 1_555
H4_4 C6_4 1_555 1_555
As2_4 O13_4 1_555 1_555
N6_4 C12_4 1_555 1_555
O13_4 Mo4_4 1_555 1_555
O14_4 Mo1_4 1_555 1_555
O15_4 Mo3_4 1_555 1_555
C9_4 As2_4 1_555 1_555
C10_4 C9_4 1_555 1_555
H7_4 C10_4 1_555 1_555
C11_4 C10_4 1_555 1_555
H8_4 C11_4 1_555 1_555
C12_4 C11_4 1_555 1_555
C13_4 C12_4 1_555 1_555
H9_4 C13_4 1_555 1_555
C14_4 C9_4 1_555 1_555
H10_4 C14_4 1_555 1_555
Mo4_4 O3_4 1_555 1_555
Mo5_4 O6_4 1_555 1_555
Mo6_4 O10_4 1_555 1_555
O16_4 Mo4_4 1_555 1_555
O17_4 Mo4_4 1_555 1_555
O18_4 Mo4_4 1_555 1_555
O19_4 Mo5_4 1_555 1_555
O20_4 Mo5_4 1_555 1_555
O21_4 Mo5_4 1_555 1_555
O22_4 Mo6_4 1_555 1_555
O23_4 Mo6_4 1_555 1_555
As3_4 O24_4 1_555 1_555
O24_4 Mo3_4 1_555 1_555
O25_4 As3_4 1_555 1_555
O26_4 Mo2_4 1_555 1_555
C17_4 As3_4 1_555 1_555
C18_4 C17_4 1_555 1_555
H13_4 C18_4 1_555 1_555
H15_4 C21_4 1_555 1_555
C22_4 C17_4 1_555 1_555
H16_4 C22_4 1_555 1_555
Mo7_4 O24_4 1_555 1_555
Mo8_4 O15_4 1_555 1_555
Mo9_4 O13_4 1_555 1_555
O50 Mo7_4 1_555 1_555
O28_4 Mo7_4 1_555 1_555
O29_4 Mo7_4 1_555 1_555
O30_4 Mo3_4 1_555 1_555
O31_4 Mo8_4 1_555 1_555
O32_4 Mo8_4 1_555 1_555
O33_4 Mo8_4 1_555 1_555
O34_4 Mo9_4 1_555 1_555
O35_4 Mo9_4 1_555 1_555
As4_4 O36_4 1_555 1_555
N10_4 N11_4 1_555 1_555
N11_4 C32_4 1_555 1_555
N12_4 C28_4 1_555 1_555
O36_4 Mo6_4 1_555 1_555
O37_4 Mo7_4 1_555 1_555
O38_4 Mo5_4 1_555 1_555
C25_4 As4_4 1_555 1_555
C26_4 C25_4 1_555 1_555
H19_4 C26_4 1_555 1_555
C27_4 C26_4 1_555 1_555
H20_4 C27_4 1_555 1_555
C28_4 C27_4 1_555 1_555
C29_4 C28_4 1_555 1_555
H21_4 C29_4 1_555 1_555
C30_4 C25_4 1_555 1_555
H22_4 C30_4 1_555 1_555
C31_4 N10_4 1_555 1_555
H23_4 C31_4 1_555 1_555
C32_4 N12_4 1_555 1_555
H24_4 C32_4 1_555 1_555
Mo10_4 O25_4 1_555 1_555
Mo11_4 O10_4 1_555 1_555
Mo12_4 O4_4 1_555 1_555
O49 Mo10_4 1_555 1_555
O40_4 Mo10_4 1_555 1_555
O41_4 Mo6_4 1_555 1_555
O42_4 Mo11_4 1_555 1_555
O44_4 Mo11_4 1_555 1_555
O45_4 Mo12_4 1_555 1_555
O46_4 Mo12_4 1_555 1_555
Cu8 O16_4 1_555 1_555
Cu5 N10_4 1_555 1_555
Mo2_4 O14_4 1_555 1_555
O5_4 Mo12_4 1_555 1_555
O6_4 Mo4_4 1_555 1_555
C5_4 C6_4 1_555 1_555
As2_4 O14_4 1_555 1_555
As2_4 O15_4 1_555 1_555
N6_4 C15_4 1_555 1_555
C13_4 C14_4 1_555 1_555
Mo5_4 O18_4 1_555 1_555
Mo6_4 O21_4 1_555 1_555
O18_4 Mo9_4 1_555 1_555
As3_4 O26_4 1_555 1_555
O25_4 Mo11_4 1_555 1_555
O26_4 Mo12_4 1_555 1_555
C21_4 C22_4 1_555 1_555
Mo7_4 O30_4 1_555 1_555
Mo8_4 O30_4 1_555 1_555
Mo8_4 O37_4 1_555 1_555
Mo9_4 O33_4 1_555 1_555
Mo9_4 O38_4 1_555 1_555
O29_4 Mo10_4 1_555 1_555
As4_4 O37_4 1_555 1_555
As4_4 O38_4 1_555 1_555
N12_4 C31_4 1_555 1_555
O36_4 Mo10_4 1_555 1_555
C29_4 C30_4 1_555 1_555
Mo10_4 O41_4 1_555 1_555
Mo11_4 O41_4 1_555 1_555
Mo12_4 O44_4 1_555 1_555
N13_2 N5_4 1_555 1_555
N5_4 C16_4 1_555 1_555
H12_4 C16_4 1_555 1_555
N7_4 N8_4 1_555 1_555
N8_4 C24_4 1_555 1_555
N9_4 C20_4 1_555 1_555
H14_4 C19_4 1_555 1_555
C20_4 C19_4 1_555 1_555
C23_4 N7_4 1_555 1_555
C24_4 N9_4 1_555 1_555
H18_4 C24_4 1_555 1_555
N9_4 C23_4 1_555 1_555

#END
