
###############################################################################
#
# This file contains modified crystal structure data generated from the
# MOF subset of the Cambridge Structural Database (CSD) v543 
# hosted by the Cambridge Crystallographic Data Centre (CCDC).
#
# This work is licensed under the Creative Commons
# Attribution-NonCommercial-ShareAlike 4.0 International License.
# To view a copy of this license, visit
# http://creativecommons.org/licenses/by-nc-sa/4.0/
# or send a letter to
# Creative Commons, PO Box 1866, Mountain View, CA 94042, USA.
#
# CIF created using the CSD Python API on 29 September 2022
# The structure has been converted into the P1 space group
# The structure has a 3D framework
# The original CSD entry WEHHUO is in the orthorhombic crystal system
# The framework has been calculated to contain at least 10.0% void space
# The void calculation uses a probe of radius 1.32A, grid spacing 0.4
# H atom positions have been added when not included in the experimental data
# Generated hydrogen atom positions removed from atoms on special positions
#
###############################################################################

data_WEHHUO
_chemical_formula_moiety         '(C166 H152 O96 Zn16)n'
_symmetry_cell_setting           triclinic
_symmetry_space_group_name_H-M   'P 1'
_symmetry_Int_Tables_number      1
_space_group_name_Hall           'P 1'
loop_
_symmetry_equiv_pos_site_id
_symmetry_equiv_pos_as_xyz
1 x,y,z
_cell_length_a                   12.5059(3)
_cell_length_b                   26.1708(6)
_cell_length_c                   26.2509(5)
_cell_angle_alpha                90
_cell_angle_beta                 90
_cell_angle_gamma                90
_cell_volume                     8591.64
loop_
_atom_site_label
_atom_site_type_symbol
_atom_site_fract_x
_atom_site_fract_y
_atom_site_fract_z
H5 H 0.0164 0.2251 0.4260
C12 C 0.0415(4) 0.2500 0.5000
C13 C 0.1123(3) 0.20535(15) 0.51731(15)
H11 H 0.0683 0.1762 0.5263
H12 H 0.1603 0.1953 0.4901
O9 O 0.1719(2) 0.22193(11) 0.56042(12)
C14 C 0.3777(3) 0.12222(15) 0.57661(15)
C15 C 0.2877(3) 0.14721(15) 0.55624(16)
H13 H 0.2512 0.1333 0.5287
C16 C 0.2541(3) 0.19278(15) 0.57770(15)
C17 C 0.3099(4) 0.21406(16) 0.61906(16)
H14 H 0.2871 0.2447 0.6333
C18 C 0.4192(3) 0.07472(16) 0.55092(17)
C19 C 0.3983(3) 0.18940(16) 0.63847(15)
C20 C 0.4319(3) 0.14318(15) 0.61793(15)
H15 H 0.4905 0.1263 0.6318
C21 C 0.4608(4) 0.21557(17) 0.68081(16)
O10 O 0.3741(3) 0.06134(10) 0.51063(12)
O11 O 0.5441(3) 0.19386(12) 0.69576(11)
O12 O 0.4978(2) 0.05307(11) 0.57177(13)
O13 O 0.4239(3) 0.25706(14) 0.69632(14)
Zn4 Zn 0.48667(5) 0.19657(2) 0.2500
Zn5 Zn 0.48667(5) 0.30343(2) 0.7500
Zn7 Zn 0.65016(5) 0.27934(2) 0.2500
Zn8 Zn 0.65016(5) 0.22066(2) 0.7500
Zn12 Zn 0.58104(3) 0.506601(16) 0.458838(16)
Zn14 Zn 0.41896(3) 0.006601(16) 0.458838(16)
Zn16 Zn 0.41896(3) 0.493399(16) 0.541162(16)
H20 H 0.0164 0.2749 0.5740
C33 C 0.1123(3) 0.29465(15) 0.48269(15)
H26 H 0.0683 0.3238 0.4737
H27 H 0.1603 0.3047 0.5099
O24 O 0.1719(2) 0.27807(11) 0.43958(12)
C34 C 0.3777(3) 0.37778(15) 0.42339(15)
C35 C 0.2877(3) 0.35279(15) 0.44376(16)
H28 H 0.2512 0.3667 0.4713
C36 C 0.2541(3) 0.30722(15) 0.42230(15)
C37 C 0.3099(4) 0.28594(16) 0.38094(16)
H29 H 0.2871 0.2553 0.3667
C38 C 0.4192(3) 0.42528(16) 0.44908(17)
C39 C 0.3983(3) 0.31060(16) 0.36153(15)
C40 C 0.4319(3) 0.35682(15) 0.38207(15)
H30 H 0.4905 0.3737 0.3682
C41 C 0.4608(4) 0.28443(17) 0.31919(16)
O25 O 0.3741(3) 0.43866(10) 0.48937(12)
O28 O 0.5441(3) 0.30614(12) 0.30424(11)
O31 O 0.4978(2) 0.44693(11) 0.42823(13)
O34 O 0.4239(3) 0.24294(14) 0.30368(14)
Zn11 Zn 0.58104(3) 0.993399(16) 0.541162(16)
C1 C 0.6701(4) 0.19460(16) 0.32229(15)
C3 C 0.9721(3) 0.23315(14) 0.45530(14)
H4 H 0.9228 0.2601 0.4459
C4 C 0.8340(3) 0.17055(15) 0.44144(15)
C5 C 0.8015(3) 0.19093(15) 0.39559(14)
H6 H 0.8378 0.2185 0.3815
C6 C 0.7140(3) 0.16989(16) 0.37061(15)
C7 C 0.6597(3) 0.12861(16) 0.39141(15)
H7 H 0.6003 0.1151 0.3749
C8 C 0.6943(3) 0.10764(15) 0.43690(15)
C9 C 0.7809(3) 0.12794(16) 0.46184(15)
H8 H 0.8043 0.1135 0.4922
C10 C 0.6307(4) 0.06499(16) 0.46153(16)
O1 O 0.7560(4) 0.3356(2) 0.2500
O2 O 0.5897(3) 0.17263(14) 0.30284(13)
O3 O 0.3805(4) 0.1400(2) 0.2500
O4 O 0.7138(2) 0.23381(11) 0.30586(10)
O5 O 0.9147(2) 0.18888(12) 0.47165(11)
O6 O 0.6670(3) 0.04539(12) 0.50171(12)
O7 O 0.5451(3) 0.05285(12) 0.43992(13)
C22 C 0.6701(4) 0.30540(16) 0.67771(15)
C23 C 0.6615(13) 0.6250(5) 0.3774(6)
H16 H 0.6769 0.6417 0.3457
H17 H 0.7049 0.6395 0.4039
H18 H 0.5873 0.6296 0.3857
C24 C 0.9721(3) 0.26685(14) 0.54470(14)
H19 H 0.9228 0.2399 0.5541
C25 C 0.8340(3) 0.32945(15) 0.55856(15)
C26 C 0.8015(3) 0.30907(15) 0.60441(14)
H21 H 0.8378 0.2815 0.6185
C27 C 0.7140(3) 0.33011(16) 0.62939(15)
C28 C 0.6597(3) 0.37139(16) 0.60859(15)
H22 H 0.6003 0.3849 0.6251
C29 C 0.6943(3) 0.39236(15) 0.56310(15)
C30 C 0.7809(3) 0.37206(16) 0.53816(15)
H23 H 0.8043 0.3865 0.5078
C31 C 0.6307(4) 0.43501(16) 0.53847(16)
C32 C 0.6863(10) 0.5668(4) 0.3726(4)
H24 H 0.6462 0.5570 0.3425
H25 H 0.7606 0.5665 0.3620
O14 O 0.5897(3) 0.32737(14) 0.69716(13)
O15 O 0.5897(3) 0.17263(14) 0.19716(13)
O16 O 0.7138(2) 0.26619(11) 0.69414(10)
O17 O 0.7138(2) 0.23381(11) 0.19414(10)
O18 O 0.9147(2) 0.31112(12) 0.52835(11)
O19 O 0.6670(3) 0.45461(12) 0.49829(12)
O20 O 0.5451(3) 0.44715(12) 0.56008(13)
O22 O 0.4549(3) 0.55285(12) 0.43992(13)
O23 O 0.6792(3) 0.52440(16) 0.40264(14)
O27 O 0.6259(3) 0.56134(10) 0.51063(12)
O30 O 0.5441(3) 0.30614(12) 0.19576(11)
O36 O 0.4239(3) 0.24294(14) 0.19632(14)
C2 C 0.6615(13) 0.8750(5) 0.6226(6)
H1 H 0.6769 0.8583 0.6543
H2 H 0.7049 0.8605 0.5961
H3 H 0.5873 0.8704 0.6143
C11 C 0.6863(10) 0.9332(4) 0.6274(4)
H9 H 0.6462 0.9430 0.6575
H10 H 0.7606 0.9335 0.6380
O8 O 0.6792(3) 0.97560(16) 0.59736(14)
O21 O 0.4549(3) 0.94715(12) 0.56008(13)
O26 O 0.6259(3) 0.93866(10) 0.48937(12)
Zn3 Zn 0.41896(3) 0.006601(16) 0.041162(16)
C2_2 C 0.3385(13) 0.1250(5) 0.1226(6)
H1_2 H 0.3231 0.1417 0.1543
H2_2 H 0.2951 0.1395 0.0961
H3_2 H 0.4127 0.1296 0.1143
C11_2 C 0.3137(10) 0.0668(4) 0.1274(4)
H9_2 H 0.3538 0.0570 0.1575
H10_2 H 0.2394 0.0665 0.1380
O8_2 O 0.3208(3) 0.02440(16) 0.09736(14)
O21_2 O 0.5451(3) 0.05285(12) 0.06008(13)
O26_2 O 0.3741(3) 0.06134(10) 0.98937(12)
O6_2 O 0.3330(3) 0.95461(12) 0.00171(12)
Zn6 Zn 0.51333(5) 0.69657(2) 0.2500
Zn9 Zn 0.34984(5) 0.77934(2) 0.2500
Zn15 Zn 0.58104(3) 0.506601(16) 0.041162(16)
C22_2 C 0.3299(4) 0.69460(16) 0.17771(15)
C24_2 C 0.0279(3) 0.73315(14) 0.04470(14)
H19_2 H 0.0772 0.7601 0.0541
C25_2 C 0.1660(3) 0.67055(15) 0.05856(15)
C26_2 C 0.1985(3) 0.69093(15) 0.10441(14)
H21_2 H 0.1622 0.7185 0.1185
C27_2 C 0.2860(3) 0.66989(16) 0.12939(15)
C28_2 C 0.3403(3) 0.62861(16) 0.10859(15)
H22_2 H 0.3997 0.6151 0.1251
C29_2 C 0.3057(3) 0.60764(15) 0.06310(15)
C30_2 C 0.2191(3) 0.62794(16) 0.03816(15)
H23_2 H 0.1957 0.6135 0.0078
C31_2 C 0.3693(4) 0.56499(16) 0.03847(16)
O14_2 O 0.4103(3) 0.67263(14) 0.19716(13)
O16_2 O 0.2862(2) 0.73381(11) 0.19414(10)
O18_2 O 0.0853(2) 0.68888(12) 0.02835(11)
O20_2 O 0.4549(3) 0.55285(12) 0.06008(13)
O27_2 O 0.3741(3) 0.43866(10) 0.01063(12)
O32 O 0.5022(2) 0.94693(11) 0.07177(13)
Zn1 Zn 0.51333(5) 0.80343(2) 0.7500
Zn2 Zn 0.34984(5) 0.72066(2) 0.7500
C1_2 C 0.3299(4) 0.80540(16) 0.82229(15)
C3_2 C 0.0279(3) 0.76685(14) 0.95530(14)
H4_2 H 0.0772 0.7399 0.9459
C4_2 C 0.1660(3) 0.82945(15) 0.94144(15)
C5_2 C 0.1985(3) 0.80907(15) 0.89559(14)
H6_2 H 0.1622 0.7815 0.8815
C6_2 C 0.2860(3) 0.83011(16) 0.87061(15)
C7_2 C 0.3403(3) 0.87139(16) 0.89141(15)
H7_2 H 0.3997 0.8849 0.8749
C8_2 C 0.3057(3) 0.89236(15) 0.93690(15)
C9_2 C 0.2191(3) 0.87206(16) 0.96184(15)
H8_2 H 0.1957 0.8865 0.9922
C10_2 C 0.3693(4) 0.93501(16) 0.96153(16)
O1_2 O 0.2440(4) 0.6644(2) 0.7500
O2_2 O 0.4103(3) 0.82737(14) 0.80284(13)
O3_2 O 0.6195(4) 0.8600(2) 0.7500
O4_2 O 0.2862(2) 0.76619(11) 0.80586(10)
O5_2 O 0.0853(2) 0.81112(12) 0.97165(11)
O7_2 O 0.4549(3) 0.94715(12) 0.93992(13)
Zn10 Zn 0.41896(3) 0.493399(16) 0.958838(16)
Zn13 Zn 0.58104(3) 0.993399(16) 0.958838(16)
C23_2 C 0.3385(13) 0.3750(5) 0.8774(6)
H16_2 H 0.3231 0.3583 0.8457
H17_2 H 0.2951 0.3605 0.9039
H18_2 H 0.4127 0.3704 0.8857
C32_2 C 0.3137(10) 0.4332(4) 0.8726(4)
H24_2 H 0.3538 0.4430 0.8425
H25_2 H 0.2394 0.4335 0.8620
O15_2 O 0.4103(3) 0.82737(14) 0.69716(13)
O17_2 O 0.2862(2) 0.76619(11) 0.69414(10)
O19_2 O 0.3330(3) 0.54539(12) 0.99829(12)
O22_2 O 0.5451(3) 0.44715(12) 0.93992(13)
O23_2 O 0.3208(3) 0.47560(16) 0.90264(14)
O29 O 0.4559(3) 0.69386(12) 0.80424(11)
O30_2 O 0.4559(3) 0.69386(12) 0.69576(11)
O33 O 0.5022(2) 0.55307(11) 0.92823(13)
O35 O 0.5761(3) 0.75706(14) 0.80368(14)
O36_2 O 0.5761(3) 0.75706(14) 0.69632(14)
C12_2 C 0.9585(4) 0.7500 -0.0000
C13_2 C 0.8877(3) 0.79465(15) 0.01731(15)
H11_2 H 0.9317 0.8238 0.0263
O9_2 O 0.8281(2) 0.77807(11) 0.06042(12)
C14_2 C 0.6223(3) 0.87778(15) 0.07661(15)
C15_2 C 0.7123(3) 0.85279(15) 0.05624(16)
H13_2 H 0.7488 0.8667 0.0287
C16_2 C 0.7459(3) 0.80722(15) 0.07770(15)
C17_2 C 0.6901(4) 0.78594(16) 0.11906(16)
H14_2 H 0.7129 0.7553 0.1333
C18_2 C 0.5808(3) 0.92528(16) 0.05092(17)
C19_2 C 0.6017(3) 0.81060(16) 0.13847(15)
C20_2 C 0.5681(3) 0.85682(15) 0.11793(15)
H15_2 H 0.5095 0.8737 0.1318
C21_2 C 0.5392(4) 0.78443(17) 0.18081(16)
O10_2 O 0.6259(3) 0.93866(10) 0.01063(12)
O11_2 O 0.4559(3) 0.80614(12) 0.19576(11)
O13_2 O 0.5761(3) 0.74294(14) 0.19632(14)
H20_2 H 0.9836 0.7251 0.0740
H27_2 H 0.8397 0.6953 0.0099
H5_2 H 0.9836 0.7749 0.9260
C12_3 C 0.9585(4) 0.7500 1.0000
H12_2 H 0.8397 0.8047 0.9901
C33_2 C 0.8877(3) 0.70535(15) 0.98269(15)
H26_2 H 0.9317 0.6762 0.9737
O24_2 O 0.8281(2) 0.72193(11) 0.93958(12)
C34_2 C 0.6223(3) 0.62222(15) 0.92339(15)
C35_2 C 0.7123(3) 0.64721(15) 0.94376(16)
H28_2 H 0.7488 0.6333 0.9713
C36_2 C 0.7459(3) 0.69278(15) 0.92230(15)
C37_2 C 0.6901(4) 0.71406(16) 0.88094(16)
H29_2 H 0.7129 0.7447 0.8667
C38_2 C 0.5808(3) 0.57472(16) 0.94908(17)
C39_2 C 0.6017(3) 0.68940(16) 0.86153(15)
C40_2 C 0.5681(3) 0.64318(15) 0.88207(15)
H30_2 H 0.5095 0.6263 0.8682
C41_2 C 0.5392(4) 0.71557(17) 0.81919(16)
O25_2 O 0.6259(3) 0.56134(10) 0.98937(12)
O1_3 O 0.7560(4) 0.1644(2) 0.7500
O3_3 O 0.3805(4) 0.3600(2) 0.7500
O15_3 O 0.5897(3) 0.32737(14) 0.80284(13)
O17_3 O 0.7138(2) 0.26619(11) 0.80586(10)
O30_3 O 0.5441(3) 0.19386(12) 0.80424(11)
O36_3 O 0.4239(3) 0.25706(14) 0.80368(14)
O1_4 O 0.2440(4) 0.8356(2) 0.2500
O3_4 O 0.6195(4) 0.6400(2) 0.2500
O15_4 O 0.4103(3) 0.67263(14) 0.30284(13)
O17_4 O 0.2862(2) 0.73381(11) 0.30586(10)
O30_4 O 0.4559(3) 0.80614(12) 0.30424(11)
O36_4 O 0.5761(3) 0.74294(14) 0.30368(14)
C2_3 C 0.3385(13) 0.1250(5) 0.3774(6)
H1_3 H 0.3231 0.1417 0.3457
H2_3 H 0.2951 0.1395 0.4039
H3_3 H 0.4127 0.1296 0.3857
C11_3 C 0.3137(10) 0.0668(4) 0.3726(4)
H9_3 H 0.3538 0.0570 0.3425
H10_3 H 0.2394 0.0665 0.3620
O8_3 O 0.3208(3) 0.02440(16) 0.40264(14)
C1_3 C 0.3299(4) 0.80540(16) 0.67771(15)
C3_3 C 0.0279(3) 0.76685(14) 0.54470(14)
H4_3 H 0.0772 0.7399 0.5541
C4_3 C 0.1660(3) 0.82945(15) 0.55856(15)
C5_3 C 0.1985(3) 0.80907(15) 0.60441(14)
H6_3 H 0.1622 0.7815 0.6185
C6_3 C 0.2860(3) 0.83011(16) 0.62939(15)
C7_3 C 0.3403(3) 0.87139(16) 0.60859(15)
H7_3 H 0.3997 0.8849 0.6251
C8_3 C 0.3057(3) 0.89236(15) 0.56310(15)
C9_3 C 0.2191(3) 0.87206(16) 0.53816(15)
H8_3 H 0.1957 0.8865 0.5078
C10_3 C 0.3693(4) 0.93501(16) 0.53847(16)
O5_3 O 0.0853(2) 0.81112(12) 0.52835(11)
O6_3 O 0.3330(3) 0.95461(12) 0.49829(12)
C22_3 C 0.3299(4) 0.69460(16) 0.32229(15)
C23_3 C 0.3385(13) 0.3750(5) 0.6226(6)
H16_3 H 0.3231 0.3583 0.6543
H17_3 H 0.2951 0.3605 0.5961
H18_3 H 0.4127 0.3704 0.6143
C24_3 C 0.0279(3) 0.73315(14) 0.45530(14)
H19_3 H 0.0772 0.7601 0.4459
C25_3 C 0.1660(3) 0.67055(15) 0.44144(15)
C26_3 C 0.1985(3) 0.69093(15) 0.39559(14)
H21_3 H 0.1622 0.7185 0.3815
C27_3 C 0.2860(3) 0.66989(16) 0.37061(15)
C28_3 C 0.3403(3) 0.62861(16) 0.39141(15)
H22_3 H 0.3997 0.6151 0.3749
C29_3 C 0.3057(3) 0.60764(15) 0.43690(15)
C30_3 C 0.2191(3) 0.62794(16) 0.46184(15)
H23_3 H 0.1957 0.6135 0.4922
C31_3 C 0.3693(4) 0.56499(16) 0.46153(16)
C32_3 C 0.3137(10) 0.4332(4) 0.6274(4)
H24_3 H 0.3538 0.4430 0.6575
H25_3 H 0.2394 0.4335 0.6380
O18_3 O 0.0853(2) 0.68888(12) 0.47165(11)
O19_3 O 0.3330(3) 0.54539(12) 0.50171(12)
O23_3 O 0.3208(3) 0.47560(16) 0.59736(14)
O32_2 O 0.5022(2) 0.94693(11) 0.42823(13)
O33_2 O 0.5022(2) 0.55307(11) 0.57177(13)
H5_3 H 0.9836 0.7749 0.5740
C12_4 C 0.9585(4) 0.7500 0.5000
C13_3 C 0.8877(3) 0.79465(15) 0.48269(15)
H11_3 H 0.9317 0.8238 0.4737
H12_3 H 0.8397 0.8047 0.5099
O9_3 O 0.8281(2) 0.77807(11) 0.43958(12)
C14_3 C 0.6223(3) 0.87778(15) 0.42339(15)
C15_3 C 0.7123(3) 0.85279(15) 0.44376(16)
H13_3 H 0.7488 0.8667 0.4713
C16_3 C 0.7459(3) 0.80722(15) 0.42230(15)
C17_3 C 0.6901(4) 0.78594(16) 0.38094(16)
H14_3 H 0.7129 0.7553 0.3667
C18_3 C 0.5808(3) 0.92528(16) 0.44908(17)
C19_3 C 0.6017(3) 0.81060(16) 0.36153(15)
C20_3 C 0.5681(3) 0.85682(15) 0.38207(15)
H15_3 H 0.5095 0.8737 0.3682
C21_3 C 0.5392(4) 0.78443(17) 0.31919(16)
H20_3 H 0.9836 0.7251 0.4260
C33_3 C 0.8877(3) 0.70535(15) 0.51731(15)
H26_3 H 0.9317 0.6762 0.5263
H27_3 H 0.8397 0.6953 0.4901
O24_3 O 0.8281(2) 0.72193(11) 0.56042(12)
C34_3 C 0.6223(3) 0.62222(15) 0.57661(15)
C35_3 C 0.7123(3) 0.64721(15) 0.55624(16)
H28_3 H 0.7488 0.6333 0.5287
C36_3 C 0.7459(3) 0.69278(15) 0.57770(15)
C37_3 C 0.6901(4) 0.71406(16) 0.61906(16)
H29_3 H 0.7129 0.7447 0.6333
C38_3 C 0.5808(3) 0.57472(16) 0.55092(17)
C39_3 C 0.6017(3) 0.68940(16) 0.63847(15)
C40_3 C 0.5681(3) 0.64318(15) 0.61793(15)
H30_3 H 0.5095 0.6263 0.6318
C41_3 C 0.5392(4) 0.71557(17) 0.68081(16)
H5_4 H 0.0164 0.2251 0.0740
C12_5 C 0.0415(4) 0.2500 0.0000
H12_4 H 0.1603 0.1953 0.0099
C33_4 C 0.1123(3) 0.29465(15) 0.01731(15)
H26_4 H 0.0683 0.3238 0.0263
O24_4 O 0.1719(2) 0.27807(11) 0.06042(12)
C34_4 C 0.3777(3) 0.37778(15) 0.07661(15)
C35_4 C 0.2877(3) 0.35279(15) 0.05624(16)
H28_4 H 0.2512 0.3667 0.0287
C36_4 C 0.2541(3) 0.30722(15) 0.07770(15)
C37_4 C 0.3099(4) 0.28594(16) 0.11906(16)
H29_4 H 0.2871 0.2553 0.1333
C38_4 C 0.4192(3) 0.42528(16) 0.05092(17)
C39_4 C 0.3983(3) 0.31060(16) 0.13847(15)
C40_4 C 0.4319(3) 0.35682(15) 0.11793(15)
H30_4 H 0.4905 0.3737 0.1318
C41_4 C 0.4608(4) 0.28443(17) 0.18081(16)
O31_2 O 0.4978(2) 0.44693(11) 0.07177(13)
C12_6 C 0.0415(4) 0.2500 1.0000
C13_4 C 0.1123(3) 0.20535(15) 0.98269(15)
H11_4 H 0.0683 0.1762 0.9737
O9_4 O 0.1719(2) 0.22193(11) 0.93958(12)
C14_4 C 0.3777(3) 0.12222(15) 0.92339(15)
C15_4 C 0.2877(3) 0.14721(15) 0.94376(16)
H13_4 H 0.2512 0.1333 0.9713
C16_4 C 0.2541(3) 0.19278(15) 0.92230(15)
C17_4 C 0.3099(4) 0.21406(16) 0.88094(16)
H14_4 H 0.2871 0.2447 0.8667
C18_4 C 0.4192(3) 0.07472(16) 0.94908(17)
C19_4 C 0.3983(3) 0.18940(16) 0.86153(15)
C20_4 C 0.4319(3) 0.14318(15) 0.88207(15)
H15_4 H 0.4905 0.1263 0.8682
C21_4 C 0.4608(4) 0.21557(17) 0.81919(16)
O12_2 O 0.4978(2) 0.05307(11) 0.92823(13)
H20_4 H 0.0164 0.2749 0.9260
H27_4 H 0.1603 0.3047 0.9901
C1_4 C 0.6701(4) 0.19460(16) 0.17771(15)
C3_4 C 0.9721(3) 0.23315(14) 0.04470(14)
H4_4 H 0.9228 0.2601 0.0541
C4_4 C 0.8340(3) 0.17055(15) 0.05856(15)
C5_4 C 0.8015(3) 0.19093(15) 0.10441(14)
H6_4 H 0.8378 0.2185 0.1185
C6_4 C 0.7140(3) 0.16989(16) 0.12939(15)
C7_4 C 0.6597(3) 0.12861(16) 0.10859(15)
H7_4 H 0.6003 0.1151 0.1251
C8_4 C 0.6943(3) 0.10764(15) 0.06310(15)
C9_4 C 0.7809(3) 0.12794(16) 0.03816(15)
H8_4 H 0.8043 0.1135 0.0078
C10_4 C 0.6307(4) 0.06499(16) 0.03847(16)
O5_4 O 0.9147(2) 0.18888(12) 0.02835(11)
C23_4 C 0.6615(13) 0.6250(5) 0.1226(6)
H16_4 H 0.6769 0.6417 0.1543
H17_4 H 0.7049 0.6395 0.0961
H18_4 H 0.5873 0.6296 0.1143
C32_4 C 0.6863(10) 0.5668(4) 0.1274(4)
H24_4 H 0.6462 0.5570 0.1575
H25_4 H 0.7606 0.5665 0.1380
O19_4 O 0.6670(3) 0.45461(12) 0.00171(12)
O23_4 O 0.6792(3) 0.52440(16) 0.09736(14)
O6_4 O 0.6670(3) 0.04539(12) 0.99829(12)
C22_4 C 0.6701(4) 0.30540(16) 0.82229(15)
C24_4 C 0.9721(3) 0.26685(14) 0.95530(14)
H19_4 H 0.9228 0.2399 0.9459
C25_4 C 0.8340(3) 0.32945(15) 0.94144(15)
C26_4 C 0.8015(3) 0.30907(15) 0.89559(14)
H21_4 H 0.8378 0.2815 0.8815
C27_4 C 0.7140(3) 0.33011(16) 0.87061(15)
C28_4 C 0.6597(3) 0.37139(16) 0.89141(15)
H22_4 H 0.6003 0.3849 0.8749
C29_4 C 0.6943(3) 0.39236(15) 0.93690(15)
C30_4 C 0.7809(3) 0.37206(16) 0.96184(15)
H23_4 H 0.8043 0.3865 0.9922
C31_4 C 0.6307(4) 0.43501(16) 0.96153(16)
O18_4 O 0.9147(2) 0.31112(12) 0.97165(11)
C2_4 C 0.6615(13) 0.8750(5) 0.8774(6)
H1_4 H 0.6769 0.8583 0.8457
H2_4 H 0.7049 0.8605 0.9039
H3_4 H 0.5873 0.8704 0.8857
C11_4 C 0.6863(10) 0.9332(4) 0.8726(4)
H9_4 H 0.6462 0.9430 0.8425
H10_4 H 0.7606 0.9335 0.8620
O8_4 O 0.6792(3) 0.97560(16) 0.90264(14)
loop_
_geom_bond_atom_site_label_1
_geom_bond_atom_site_label_2
_geom_bond_site_symmetry_1
_geom_bond_site_symmetry_2
C13 C12 1_555 1_555
H11 C13 1_555 1_555
H12 C13 1_555 1_555
O9 C13 1_555 1_555
C14 C15 1_555 1_555
C15 H13 1_555 1_555
C16 O9 1_555 1_555
C17 C16 1_555 1_555
H14 C17 1_555 1_555
C18 C14 1_555 1_555
C19 C17 1_555 1_555
C20 C14 1_555 1_555
H15 C20 1_555 1_555
C21 C19 1_555 1_555
O10 C18 1_555 1_555
O11 C21 1_555 1_555
O12 C18 1_555 1_555
O13 C21 1_555 1_555
Zn4 O34 1_555 1_555
Zn5 O13 1_555 1_555
Zn7 O28 1_555 1_555
Zn8 O11 1_555 1_555
Zn12 O31 1_555 1_555
Zn14 O10 1_555 1_555
Zn16 O25 1_555 1_555
C33 C12 1_555 1_555
H26 C33 1_555 1_555
H27 C33 1_555 1_555
O24 C33 1_555 1_555
C34 C35 1_555 1_555
C35 H28 1_555 1_555
C36 O24 1_555 1_555
C37 C36 1_555 1_555
H29 C37 1_555 1_555
C38 C34 1_555 1_555
C39 C37 1_555 1_555
C40 C34 1_555 1_555
H30 C40 1_555 1_555
C41 C39 1_555 1_555
O25 C38 1_555 1_555
O28 C41 1_555 1_555
O31 C38 1_555 1_555
O34 C41 1_555 1_555
C15 C16 1_555 1_555
C19 C20 1_555 1_555
C35 C36 1_555 1_555
C39 C40 1_555 1_555
Zn4 O2 1_555 1_555
Zn7 O1 1_555 1_555
C1 C6 1_555 1_555
C3 H4 1_555 1_555
C4 C5 1_555 1_555
C5 H6 1_555 1_555
C6 C5 1_555 1_555
C7 C6 1_555 1_555
H7 C7 1_555 1_555
C8 C7 1_555 1_555
C9 C4 1_555 1_555
H8 C9 1_555 1_555
C10 C8 1_555 1_555
O2 C1 1_555 1_555
O3 Zn4 1_555 1_555
O4 Zn7 1_555 1_555
O5 C3 1_555 1_555
O6 C10 1_555 1_555
O7 C10 1_555 1_555
Zn5 O14 1_555 1_555
Zn8 O16 1_555 1_555
Zn12 O19 1_555 1_555
Zn14 O7 1_555 1_555
Zn16 O20 1_555 1_555
C22 C27 1_555 1_555
C23 H16 1_555 1_555
H17 C23 1_555 1_555
H18 C23 1_555 1_555
H19 C24 1_555 1_555
C25 C26 1_555 1_555
C26 H21 1_555 1_555
C27 C26 1_555 1_555
C28 C27 1_555 1_555
H22 C28 1_555 1_555
C29 C28 1_555 1_555
C30 C25 1_555 1_555
H23 C30 1_555 1_555
C31 C29 1_555 1_555
C32 C23 1_555 1_555
H24 C32 1_555 1_555
H25 C32 1_555 1_555
O14 C22 1_555 1_555
O15 Zn4 1_555 1_555
O16 C22 1_555 1_555
O17 Zn7 1_555 1_555
O18 C24 1_555 1_555
O19 C31 1_555 1_555
O20 C31 1_555 1_555
O22 Zn12 1_555 1_555
O23 Zn12 1_555 1_555
O27 Zn12 1_555 1_555
O30 Zn7 1_555 1_555
O36 Zn4 1_555 1_555
C1 O4 1_555 1_555
C4 O5 1_555 1_555
C8 C9 1_555 1_555
C25 O18 1_555 1_555
C29 C30 1_555 1_555
C32 O23 1_555 1_555
C2 H1 1_555 1_555
H2 C2 1_555 1_555
H3 C2 1_555 1_555
C11 C2 1_555 1_555
H9 C11 1_555 1_555
H10 C11 1_555 1_555
O8 Zn11 1_555 1_555
O21 Zn11 1_555 1_555
O26 Zn11 1_555 1_555
C11 O8 1_555 1_555
C2_2 H1_2 1_555 1_555
H2_2 C2_2 1_555 1_555
H3_2 C2_2 1_555 1_555
C11_2 C2_2 1_555 1_555
H9_2 C11_2 1_555 1_555
H10_2 C11_2 1_555 1_555
O8_2 Zn3 1_555 1_555
O21_2 Zn3 1_555 1_555
C11_2 O8_2 1_555 1_555
Zn6 O14_2 1_555 1_555
Zn9 O16_2 1_555 1_555
Zn15 O20_2 1_555 1_555
C22_2 C27_2 1_555 1_555
H19_2 C24_2 1_555 1_555
C25_2 C26_2 1_555 1_555
C26_2 H21_2 1_555 1_555
C27_2 C26_2 1_555 1_555
C28_2 C27_2 1_555 1_555
H22_2 C28_2 1_555 1_555
C29_2 C28_2 1_555 1_555
C30_2 C25_2 1_555 1_555
H23_2 C30_2 1_555 1_555
C31_2 C29_2 1_555 1_555
O14_2 C22_2 1_555 1_555
O16_2 C22_2 1_555 1_555
O18_2 C24_2 1_555 1_555
O20_2 C31_2 1_555 1_555
C25_2 O18_2 1_555 1_555
C29_2 C30_2 1_555 1_555
Zn1 O2_2 1_555 1_555
Zn2 O1_2 1_555 1_555
C1_2 C6_2 1_555 1_555
C3_2 H4_2 1_555 1_555
C4_2 C5_2 1_555 1_555
C5_2 H6_2 1_555 1_555
C6_2 C5_2 1_555 1_555
C7_2 C6_2 1_555 1_555
H7_2 C7_2 1_555 1_555
C8_2 C7_2 1_555 1_555
C9_2 C4_2 1_555 1_555
H8_2 C9_2 1_555 1_555
C10_2 C8_2 1_555 1_555
O2_2 C1_2 1_555 1_555
O3_2 Zn1 1_555 1_555
O4_2 Zn2 1_555 1_555
O5_2 C3_2 1_555 1_555
O7_2 C10_2 1_555 1_555
Zn10 O19_2 1_555 1_555
Zn13 O7_2 1_555 1_555
C23_2 H16_2 1_555 1_555
H17_2 C23_2 1_555 1_555
H18_2 C23_2 1_555 1_555
C32_2 C23_2 1_555 1_555
H24_2 C32_2 1_555 1_555
H25_2 C32_2 1_555 1_555
O15_2 Zn1 1_555 1_555
O17_2 Zn2 1_555 1_555
O22_2 Zn10 1_555 1_555
O23_2 Zn10 1_555 1_555
O29 Zn2 1_555 1_555
O30_2 Zn2 1_555 1_555
O33 Zn10 1_555 1_555
O35 Zn1 1_555 1_555
O36_2 Zn1 1_555 1_555
C1_2 O4_2 1_555 1_555
C4_2 O5_2 1_555 1_555
C8_2 C9_2 1_555 1_555
C32_2 O23_2 1_555 1_555
C13_2 C12_2 1_555 1_555
H11_2 C13_2 1_555 1_555
O9_2 C13_2 1_555 1_555
C14_2 C15_2 1_555 1_555
C15_2 H13_2 1_555 1_555
C16_2 O9_2 1_555 1_555
C17_2 C16_2 1_555 1_555
H14_2 C17_2 1_555 1_555
C18_2 C14_2 1_555 1_555
C19_2 C17_2 1_555 1_555
C20_2 C14_2 1_555 1_555
H15_2 C20_2 1_555 1_555
C21_2 C19_2 1_555 1_555
O10_2 C18_2 1_555 1_555
O11_2 C21_2 1_555 1_555
O32 C18_2 1_555 1_555
O13_2 C21_2 1_555 1_555
Zn6 O13_2 1_555 1_555
Zn9 O11_2 1_555 1_555
C15_2 C16_2 1_555 1_555
C19_2 C20_2 1_555 1_555
C33_2 C12_3 1_555 1_555
H26_2 C33_2 1_555 1_555
O24_2 C33_2 1_555 1_555
C34_2 C35_2 1_555 1_555
C35_2 H28_2 1_555 1_555
C36_2 O24_2 1_555 1_555
C37_2 C36_2 1_555 1_555
H29_2 C37_2 1_555 1_555
C38_2 C34_2 1_555 1_555
C39_2 C37_2 1_555 1_555
C40_2 C34_2 1_555 1_555
H30_2 C40_2 1_555 1_555
C41_2 C39_2 1_555 1_555
O25_2 C38_2 1_555 1_555
O29 C41_2 1_555 1_555
O33 C38_2 1_555 1_555
O35 C41_2 1_555 1_555
C35_2 C36_2 1_555 1_555
C39_2 C40_2 1_555 1_555
Zn8 O1_3 1_555 1_555
O3_3 Zn5 1_555 1_555
O15_3 Zn5 1_555 1_555
O17_3 Zn8 1_555 1_555
O30_3 Zn8 1_555 1_555
O36_3 Zn5 1_555 1_555
Zn9 O1_4 1_555 1_555
O3_4 Zn6 1_555 1_555
O15_4 Zn6 1_555 1_555
O17_4 Zn9 1_555 1_555
O30_4 Zn9 1_555 1_555
O36_4 Zn6 1_555 1_555
C2_3 H1_3 1_555 1_555
H2_3 C2_3 1_555 1_555
H3_3 C2_3 1_555 1_555
C11_3 C2_3 1_555 1_555
H9_3 C11_3 1_555 1_555
H10_3 C11_3 1_555 1_555
O8_3 Zn14 1_555 1_555
C11_3 O8_3 1_555 1_555
C1_3 C6_3 1_555 1_555
C3_3 H4_3 1_555 1_555
C4_3 C5_3 1_555 1_555
C5_3 H6_3 1_555 1_555
C6_3 C5_3 1_555 1_555
C7_3 C6_3 1_555 1_555
H7_3 C7_3 1_555 1_555
C8_3 C7_3 1_555 1_555
C9_3 C4_3 1_555 1_555
H8_3 C9_3 1_555 1_555
C10_3 C8_3 1_555 1_555
O15_2 C1_3 1_555 1_555
O5_3 C3_3 1_555 1_555
O6_3 C10_3 1_555 1_555
O21 C10_3 1_555 1_555
Zn16 O19_3 1_555 1_555
C22_3 C27_3 1_555 1_555
C23_3 H16_3 1_555 1_555
H17_3 C23_3 1_555 1_555
H18_3 C23_3 1_555 1_555
H19_3 C24_3 1_555 1_555
C25_3 C26_3 1_555 1_555
C26_3 H21_3 1_555 1_555
C27_3 C26_3 1_555 1_555
C28_3 C27_3 1_555 1_555
H22_3 C28_3 1_555 1_555
C29_3 C28_3 1_555 1_555
C30_3 C25_3 1_555 1_555
H23_3 C30_3 1_555 1_555
C31_3 C29_3 1_555 1_555
C32_3 C23_3 1_555 1_555
H24_3 C32_3 1_555 1_555
H25_3 C32_3 1_555 1_555
O15_4 C22_3 1_555 1_555
O17_4 C22_3 1_555 1_555
O18_3 C24_3 1_555 1_555
O19_3 C31_3 1_555 1_555
O22 C31_3 1_555 1_555
O23_3 Zn16 1_555 1_555
O33_2 Zn16 1_555 1_555
C1_3 O17_2 1_555 1_555
C4_3 O5_3 1_555 1_555
C8_3 C9_3 1_555 1_555
C25_3 O18_3 1_555 1_555
C29_3 C30_3 1_555 1_555
C32_3 O23_3 1_555 1_555
C13_3 C12_4 1_555 1_555
H11_3 C13_3 1_555 1_555
H12_3 C13_3 1_555 1_555
O9_3 C13_3 1_555 1_555
C14_3 C15_3 1_555 1_555
C15_3 H13_3 1_555 1_555
C16_3 O9_3 1_555 1_555
C17_3 C16_3 1_555 1_555
H14_3 C17_3 1_555 1_555
C18_3 C14_3 1_555 1_555
C19_3 C17_3 1_555 1_555
C20_3 C14_3 1_555 1_555
H15_3 C20_3 1_555 1_555
C21_3 C19_3 1_555 1_555
O26 C18_3 1_555 1_555
O30_4 C21_3 1_555 1_555
O32_2 C18_3 1_555 1_555
O36_4 C21_3 1_555 1_555
C33_3 C12_4 1_555 1_555
H26_3 C33_3 1_555 1_555
H27_3 C33_3 1_555 1_555
O24_3 C33_3 1_555 1_555
C34_3 C35_3 1_555 1_555
C35_3 H28_3 1_555 1_555
C36_3 O24_3 1_555 1_555
C37_3 C36_3 1_555 1_555
H29_3 C37_3 1_555 1_555
C38_3 C34_3 1_555 1_555
C39_3 C37_3 1_555 1_555
C40_3 C34_3 1_555 1_555
H30_3 C40_3 1_555 1_555
C41_3 C39_3 1_555 1_555
O27 C38_3 1_555 1_555
O30_2 C41_3 1_555 1_555
O33_2 C38_3 1_555 1_555
O36_2 C41_3 1_555 1_555
C15_3 C16_3 1_555 1_555
C19_3 C20_3 1_555 1_555
C35_3 C36_3 1_555 1_555
C39_3 C40_3 1_555 1_555
Zn15 O31_2 1_555 1_555
C33_4 C12_5 1_555 1_555
H26_4 C33_4 1_555 1_555
O24_4 C33_4 1_555 1_555
C34_4 C35_4 1_555 1_555
C35_4 H28_4 1_555 1_555
C36_4 O24_4 1_555 1_555
C37_4 C36_4 1_555 1_555
H29_4 C37_4 1_555 1_555
C38_4 C34_4 1_555 1_555
C39_4 C37_4 1_555 1_555
C40_4 C34_4 1_555 1_555
H30_4 C40_4 1_555 1_555
C41_4 C39_4 1_555 1_555
O27_2 C38_4 1_555 1_555
O30 C41_4 1_555 1_555
O31_2 C38_4 1_555 1_555
O36 C41_4 1_555 1_555
C35_4 C36_4 1_555 1_555
C39_4 C40_4 1_555 1_555
C13_4 C12_6 1_555 1_555
H11_4 C13_4 1_555 1_555
O9_4 C13_4 1_555 1_555
C14_4 C15_4 1_555 1_555
C15_4 H13_4 1_555 1_555
C16_4 O9_4 1_555 1_555
C17_4 C16_4 1_555 1_555
H14_4 C17_4 1_555 1_555
C18_4 C14_4 1_555 1_555
C19_4 C17_4 1_555 1_555
C20_4 C14_4 1_555 1_555
H15_4 C20_4 1_555 1_555
C21_4 C19_4 1_555 1_555
O26_2 C18_4 1_555 1_555
O30_3 C21_4 1_555 1_555
O12_2 C18_4 1_555 1_555
O36_3 C21_4 1_555 1_555
C15_4 C16_4 1_555 1_555
C19_4 C20_4 1_555 1_555
C1_4 C6_4 1_555 1_555
C3_4 H4_4 1_555 1_555
C4_4 C5_4 1_555 1_555
C5_4 H6_4 1_555 1_555
C6_4 C5_4 1_555 1_555
C7_4 C6_4 1_555 1_555
H7_4 C7_4 1_555 1_555
C8_4 C7_4 1_555 1_555
C9_4 C4_4 1_555 1_555
H8_4 C9_4 1_555 1_555
C10_4 C8_4 1_555 1_555
O15 C1_4 1_555 1_555
O5_4 C3_4 1_555 1_555
O21_2 C10_4 1_555 1_555
Zn15 O19_4 1_555 1_555
C23_4 H16_4 1_555 1_555
H17_4 C23_4 1_555 1_555
H18_4 C23_4 1_555 1_555
C32_4 C23_4 1_555 1_555
H24_4 C32_4 1_555 1_555
H25_4 C32_4 1_555 1_555
O23_4 Zn15 1_555 1_555
C1_4 O17 1_555 1_555
C4_4 O5_4 1_555 1_555
C8_4 C9_4 1_555 1_555
C32_4 O23_4 1_555 1_555
C22_4 C27_4 1_555 1_555
H19_4 C24_4 1_555 1_555
C25_4 C26_4 1_555 1_555
C26_4 H21_4 1_555 1_555
C27_4 C26_4 1_555 1_555
C28_4 C27_4 1_555 1_555
H22_4 C28_4 1_555 1_555
C29_4 C28_4 1_555 1_555
C30_4 C25_4 1_555 1_555
H23_4 C30_4 1_555 1_555
C31_4 C29_4 1_555 1_555
O15_3 C22_4 1_555 1_555
O17_3 C22_4 1_555 1_555
O18_4 C24_4 1_555 1_555
O22_2 C31_4 1_555 1_555
C25_4 O18_4 1_555 1_555
C29_4 C30_4 1_555 1_555
C2_4 H1_4 1_555 1_555
H2_4 C2_4 1_555 1_555
H3_4 C2_4 1_555 1_555
C11_4 C2_4 1_555 1_555
H9_4 C11_4 1_555 1_555
H10_4 C11_4 1_555 1_555
O8_4 Zn13 1_555 1_555
C11_4 O8_4 1_555 1_555

#END
